# Generated by pormake.
# Topology rtl, (3,6)-cn, num edge types: 1
# Building blocks:
#     Node 0, Type 0, BuildingBlock: PAMTOO_clean_linker_0, # of connection points: 3
#     Node 1, Type 0, BuildingBlock: PAMTOO_clean_linker_0, # of connection points: 3
#     Node 2, Type 0, BuildingBlock: PAMTOO_clean_linker_0, # of connection points: 3
#     Node 3, Type 0, BuildingBlock: PAMTOO_clean_linker_0, # of connection points: 3
#     Node 4, Type 1, BuildingBlock: VOLQOD_clean_sbu_1, # of connection points: 6
#     Node 5, Type 1, BuildingBlock: VOLQOD_clean_sbu_1, # of connection points: 6
#     Edge 6, Type (0, 1), BuildingBlock: AJUNOK_clean_linker_0, # of connection points: 2
#     Edge 7, Type (0, 1), BuildingBlock: AJUNOK_clean_linker_0, # of connection points: 2
#     Edge 8, Type (0, 1), BuildingBlock: AJUNOK_clean_linker_0, # of connection points: 2
#     Edge 9, Type (0, 1), BuildingBlock: AJUNOK_clean_linker_0, # of connection points: 2
#     Edge 10, Type (0, 1), BuildingBlock: AJUNOK_clean_linker_0, # of connection points: 2
#     Edge 11, Type (0, 1), BuildingBlock: AJUNOK_clean_linker_0, # of connection points: 2
#     Edge 12, Type (0, 1), BuildingBlock: AJUNOK_clean_linker_0, # of connection points: 2
#     Edge 13, Type (0, 1), BuildingBlock: AJUNOK_clean_linker_0, # of connection points: 2
#     Edge 14, Type (0, 1), BuildingBlock: AJUNOK_clean_linker_0, # of connection points: 2
#     Edge 15, Type (0, 1), BuildingBlock: AJUNOK_clean_linker_0, # of connection points: 2
#     Edge 16, Type (0, 1), BuildingBlock: AJUNOK_clean_linker_0, # of connection points: 2
#     Edge 17, Type (0, 1), BuildingBlock: AJUNOK_clean_linker_0, # of connection points: 2
# Relax obj value: 0.042
# Max RMSD: 0.144
# Mean RMSD: 0.091
data_MOF--net-rtl--node1-VOLQOD_clean_sbu_1--node2-PAMTOO_clean_linker_0--edge1-AJUNOK_clean_linker_0
_symmetry_space_group_name_H-M    P1
_symmetry_Int_Tables_number       1
_symmetry_cell_setting            triclinic
loop_
_symmetry_equiv_pos_as_xyz
'x, y, z'
_cell_length_a     27.978686
_cell_length_b     28.391512
_cell_length_c     16.625368
_cell_angle_alpha  92.513586
_cell_angle_beta   90.404901
_cell_angle_gamma 89.989258
loop_
_atom_site_label
_atom_site_type_symbol
_atom_site_fract_x
_atom_site_fract_y
_atom_site_fract_z
_atom_type_partial_charge
H0 H 0.13175 0.9001 -0.01208 0.0
H1 H 0.22135 0.80183 0.10814 0.0
H2 H 0.22311 0.80581 0.84971 0.0
H3 H 0.22861 0.70895 0.91644 0.0
C4 C 0.24878 0.71841 0.97277 0.0
O5 O 0.2596 0.76578 0.97582 0.0
H6 H 0.22561 0.7101 0.02445 0.0
C7 C 0.15809 0.87203 -0.01486 0.0
C8 C 0.17556 0.85562 0.91033 0.0
C9 C 0.1744 0.85301 0.05659 0.0
C10 C 0.20796 0.81638 0.05317 0.0
C11 C 0.2254 0.79934 0.97852 0.0
C12 C 0.20897 0.81869 0.90707 0.0
H13 H 0.63552 0.60894 0.49714 0.0
H14 H 0.73281 0.69888 0.37604 0.0
H15 H 0.73844 0.69222 0.63392 0.0
H16 H 0.7533 0.78404 0.58868 0.0
C17 C 0.76395 0.77888 0.5246 0.0
O18 O 0.77478 0.73195 0.50841 0.0
H19 H 0.73319 0.78915 0.48619 0.0
C20 C 0.66482 0.634 0.49931 0.0
C21 C 0.68476 0.64835 0.57393 0.0
C22 C 0.68195 0.65158 0.42757 0.0
C23 C 0.71987 0.68403 0.43074 0.0
C24 C 0.74025 0.69858 0.50517 0.0
C25 C 0.7232 0.68013 0.57658 0.0
H26 H 0.89854 0.11953 -0.00569 0.0
H27 H 0.80353 0.21247 0.87316 0.0
H28 H 0.80158 0.20847 0.13155 0.0
H29 H 0.70699 0.22155 0.06493 0.0
C30 C 0.71609 0.23676 0.00647 0.0
O31 O 0.76415 0.2475 0.00554 0.0
H32 H 0.70807 0.21011 0.95708 0.0
C33 C 0.87053 0.146 -0.00315 0.0
C34 C 0.85206 0.16142 0.07149 0.0
C35 C 0.85359 0.16432 0.92532 0.0
C36 C 0.81681 0.19785 0.92814 0.0
C37 C 0.79809 0.21368 0.00263 0.0
C38 C 0.81568 0.19549 0.07424 0.0
H39 H 0.38747 0.40519 0.47625 0.0
H40 H 0.3035 0.30413 0.59893 0.0
H41 H 0.29616 0.30858 0.34089 0.0
H42 H 0.20314 0.29611 0.42275 0.0
C43 C 0.21578 0.27628 0.47512 0.0
O44 O 0.26397 0.26704 0.468 0.0
H45 H 0.20907 0.29869 0.53057 0.0
C46 C 0.3615 0.37677 0.47454 0.0
C47 C 0.34299 0.35995 0.40038 0.0
C48 C 0.34764 0.35703 0.54639 0.0
C49 C 0.31517 0.31938 0.54378 0.0
C50 C 0.29649 0.30215 0.46974 0.0
C51 C 0.31077 0.32204 0.3979 0.0
O52 O 0.90789 0.95621 0.49243 0.0
Zn53 Zn 0.9432 0.01808 0.49257 0.0
O54 O 0.01255 0.00692 0.49102 0.0
Zn55 Zn 0.04296 0.03857 0.58452 0.0
Zn56 Zn 0.02622 0.93872 0.4895 0.0
Zn57 Zn 0.03883 0.03387 0.39589 0.0
O58 O 0.08896 0.08981 0.5548 0.0
O59 O 0.08516 0.0859 0.42187 0.0
O60 O 0.92411 0.05701 0.59194 0.0
O61 O 0.99344 0.07018 0.65446 0.0
O62 O 0.07863 0.99194 0.64978 0.0
O63 O 0.06616 0.92254 0.58657 0.0
O64 O 0.06421 0.91784 0.39007 0.0
O65 O 0.92068 0.05355 0.39625 0.0
O66 O 0.07348 0.98531 0.32953 0.0
O67 O 0.9879 0.06221 0.32889 0.0
C68 C 0.9205 0.91307 0.49318 0.0
C69 C 0.1018 0.1045 0.48702 0.0
C70 C 0.08482 0.94747 0.6442 0.0
C71 C 0.94834 0.07549 0.65033 0.0
C72 C 0.08123 0.94135 0.33323 0.0
C73 C 0.94313 0.06859 0.33617 0.0
O74 O 0.96448 0.90117 0.49248 0.0
O75 O 0.61276 0.44525 -0.00869 0.0
Zn76 Zn 0.58205 0.5104 -0.00866 0.0
O77 O 0.51181 0.50608 -0.01186 0.0
Zn78 Zn 0.48731 0.53505 0.89243 0.0
Zn79 Zn 0.49267 0.43985 -0.01487 0.0
Zn80 Zn 0.48397 0.53881 0.0824 0.0
O81 O 0.43794 0.58449 0.91874 0.0
O82 O 0.43534 0.58782 0.05186 0.0
O83 O 0.60697 0.54499 0.8958 0.0
O84 O 0.54037 0.56447 0.8321 0.0
O85 O 0.45444 0.4874 0.81873 0.0
O86 O 0.45532 0.42159 0.88564 0.0
O87 O 0.45205 0.4249 0.07937 0.0
O88 O 0.60351 0.54759 0.09148 0.0
O89 O 0.448 0.49319 0.14897 0.0
O90 O 0.53586 0.56965 0.15118 0.0
C91 C 0.59473 0.40393 -0.01181 0.0
C92 C 0.4206 0.60163 -0.01584 0.0
C93 C 0.44345 0.44418 0.82433 0.0
C94 C 0.58574 0.56531 0.83875 0.0
C95 C 0.43725 0.44969 0.1397 0.0
C96 C 0.58142 0.56968 0.14831 0.0
O97 O 0.54973 0.39775 -0.01398 0.0
C98 C 0.16979 0.216 0.55089 0.0
C99 C 0.18868 0.23063 0.47795 0.0
C100 C 0.14293 0.17443 0.55373 0.0
C101 C 0.1341 0.14588 0.48373 0.0
H102 H 0.17511 0.23728 0.60591 0.0
H103 H 0.12803 0.16532 0.61097 0.0
S104 S 0.18056 0.16673 0.27931 0.0
N105 N 0.20015 0.21213 0.33565 0.0
N106 N 0.14992 0.13385 0.34019 0.0
C107 C 0.15463 0.15935 0.41094 0.0
C108 C 0.18192 0.20169 0.40831 0.0
C109 C 0.31042 0.67195 0.04783 0.0
C110 C 0.2944 0.69031 0.97528 0.0
C111 C 0.35216 0.64468 0.05072 0.0
C112 C 0.37962 0.63494 -0.01882 0.0
H113 H 0.29007 0.67802 0.10249 0.0
H114 H 0.36218 0.63017 0.10762 0.0
S115 S 0.35535 0.68001 0.77825 0.0
N116 N 0.31079 0.70058 0.83411 0.0
N117 N 0.38928 0.64947 0.83872 0.0
C118 C 0.36491 0.65504 0.90892 0.0
C119 C 0.3224 0.68278 0.90626 0.0
C120 C 0.79926 0.85349 0.47369 0.0
C121 C 0.8064 0.81027 0.51022 0.0
C122 C 0.83662 0.88592 0.46702 0.0
C123 C 0.88276 0.87646 0.4965 0.0
H124 H 0.76417 0.86282 0.45149 0.0
H125 H 0.82907 0.91892 0.43915 0.0
S126 S 0.91982 0.76901 0.60009 0.0
N127 N 0.8627 0.76027 0.57857 0.0
N128 N 0.93336 0.82074 0.56456 0.0
C129 C 0.8906 0.83311 0.53247 0.0
C130 C 0.8523 0.80028 0.54005 0.0
C131 C 0.70153 0.32492 0.02711 0.0
C132 C 0.68601 0.2804 -0.00356 0.0
C133 C 0.67243 0.36501 0.0221 0.0
C134 C 0.62624 0.36186 -0.01174 0.0
H135 H 0.73622 0.32883 0.05591 0.0
H136 H 0.68575 0.39843 0.047 0.0
S137 S 0.56856 0.25323 0.9006 0.0
N138 N 0.62147 0.23552 0.93178 0.0
N139 N 0.56663 0.31044 0.92277 0.0
C140 C 0.6103 0.31748 0.95765 0.0
C141 C 0.6401 0.27688 0.96205 0.0
C142 C 0.12909 0.84711 0.18513 0.0
C143 C 0.15715 0.87369 0.13401 0.0
C144 C 0.10593 0.86879 0.25175 0.0
C145 C 0.1101 0.91769 0.26886 0.0
H146 H 0.12325 0.8099 0.17138 0.0
H147 H 0.08307 0.8475 0.2879 0.0
S148 S 0.18562 1.0009 0.15884 0.0
N149 N 0.19205 0.94978 0.10893 0.0
N150 N 0.14918 0.99071 0.23376 0.0
C151 C 0.14059 0.94385 0.22051 0.0
C152 C 0.16396 0.92179 0.15315 0.0
C153 C 0.61288 0.63715 0.65779 0.0
C154 C 0.66242 0.63175 0.64803 0.0
C155 C 0.58899 0.6167 0.72095 0.0
C156 C 0.61359 0.58979 0.77718 0.0
H157 H 0.59215 0.6565 0.6149 0.0
H158 H 0.55063 0.62135 0.72443 0.0
S159 S 0.74448 0.56751 0.78037 0.0
N160 N 0.73598 0.59967 0.70109 0.0
N161 N 0.69125 0.56102 0.82085 0.0
C162 C 0.66367 0.58575 0.77001 0.0
C163 C 0.68804 0.60682 0.70526 0.0
C164 C 0.92284 0.14272 0.1552 0.0
C165 C 0.87296 0.14241 0.14535 0.0
C166 C 0.94476 0.11951 0.21789 0.0
C167 C 0.91773 0.09494 0.27363 0.0
H168 H 0.94527 0.16024 0.11281 0.0
H169 H 0.98342 0.1204 0.22174 0.0
S170 S 0.78533 0.08539 0.27588 0.0
N171 N 0.79671 0.11714 0.19733 0.0
N172 N 0.8378 0.07352 0.31646 0.0
C173 C 0.86751 0.09584 0.26624 0.0
C174 C 0.84515 0.11962 0.20188 0.0
C175 C 0.36646 0.42625 0.63778 0.0
C176 C 0.36732 0.37712 0.62312 0.0
C177 C 0.39047 0.44737 0.70381 0.0
C178 C 0.41608 0.42017 0.75812 0.0
H179 H 0.34795 0.44868 0.59662 0.0
H180 H 0.38935 0.48544 0.71168 0.0
S181 S 0.42805 0.28974 0.74766 0.0
N182 N 0.39475 0.30156 0.66865 0.0
N183 N 0.43957 0.34112 0.79417 0.0
C184 C 0.41577 0.37073 0.74585 0.0
C185 C 0.39138 0.34923 0.67806 0.0
C186 C 0.60835 0.63849 0.34431 0.0
C187 C 0.6584 0.63624 0.35069 0.0
C188 C 0.58411 0.6182 0.27759 0.0
C189 C 0.6089 0.59456 0.21436 0.0
H190 H 0.58759 0.65509 0.39251 0.0
H191 H 0.54545 0.62011 0.27689 0.0
S192 S 0.74091 0.58163 0.20033 0.0
N193 N 0.73239 0.61077 0.28719 0.0
N194 N 0.68717 0.57267 0.16085 0.0
C195 C 0.65933 0.59385 0.21851 0.0
C196 C 0.68399 0.61473 0.28677 0.0
C197 C 0.85038 0.12196 0.79035 0.0
C198 C 0.87627 0.14854 0.84894 0.0
C199 C 0.87371 0.09957 0.72464 0.0
C200 C 0.92368 0.103 0.71572 0.0
H201 H 0.81232 0.11663 0.79737 0.0
H202 H 0.85263 0.07802 0.68235 0.0
S203 S 0.00606 0.17422 0.84866 0.0
N204 N 0.95313 0.18101 0.8908 0.0
N205 N 0.99722 0.13948 0.7677 0.0
C206 C 0.94934 0.13187 0.77204 0.0
C207 C 0.92556 0.1545 0.83855 0.0
C208 C 0.38351 0.3555 0.26702 0.0
C209 C 0.35913 0.38222 0.32668 0.0
C210 C 0.40745 0.37755 0.2051 0.0
C211 C 0.40792 0.42708 0.2011 0.0
H212 H 0.3862 0.31757 0.2706 0.0
H213 H 0.42731 0.35566 0.16208 0.0
S214 S 0.34291 0.51192 0.33701 0.0
N215 N 0.33214 0.45987 0.37355 0.0
N216 N 0.37709 0.50156 0.25764 0.0
C217 C 0.38109 0.45384 0.25793 0.0
C218 C 0.35666 0.43134 0.32056 0.0
C219 C 0.1349 0.85216 0.77549 0.0
C220 C 0.15881 0.87845 0.83691 0.0
C221 C 0.11226 0.87463 0.71195 0.0
C222 C 0.11283 0.92417 0.70767 0.0
H223 H 0.13185 0.81424 0.7785 0.0
H224 H 0.09286 0.85302 0.66745 0.0
S225 S 0.17656 0.00794 0.84927 0.0
N226 N 0.18591 0.95568 0.88616 0.0
N227 N 0.14374 0.99813 0.76735 0.0
C228 C 0.13902 0.95046 0.76687 0.0
C229 C 0.16191 0.92754 0.83128 0.0
loop_
_geom_bond_atom_site_label_1
_geom_bond_atom_site_label_2
_geom_bond_distance
_geom_bond_site_symmetry_2
_ccdc_geom_bond_type
H0 C7 0.929 . S
H1 C10 0.930 . S
H2 C12 0.929 . S
H3 C4 0.969 . S
C4 H3 0.969 . S
C4 O5 1.550 1_554 S
C4 H6 0.973 . S
O5 C4 1.550 1_556 S
O5 C11 1.412 . S
H6 C4 0.973 . S
C7 H0 0.929 . S
C7 C8 1.400 1_554 S
C7 C9 1.364 . S
C8 C7 1.400 1_556 S
C8 C12 1.377 . S
C9 C7 1.364 . S
C9 C10 1.374 . S
C10 H1 0.930 . S
C10 C9 1.374 . S
C10 C11 1.383 1_554 S
C11 O5 1.412 . S
C11 C10 1.383 1_556 S
C11 C12 1.394 . S
C12 H2 0.929 . S
C12 C8 1.377 . S
C12 C11 1.394 . S
H13 C20 0.929 . S
H14 C23 0.930 . S
H15 C25 0.929 . S
H16 C17 0.969 . S
C17 H16 0.969 . S
C17 O18 1.550 . S
C17 H19 0.973 . S
O18 C17 1.550 . S
O18 C24 1.412 . S
H19 C17 0.973 . S
C20 H13 0.929 . S
C20 C21 1.400 . S
C20 C22 1.364 . S
C21 C20 1.400 . S
C21 C25 1.377 . S
C22 C20 1.364 . S
C22 C23 1.374 . S
C23 H14 0.930 . S
C23 C22 1.374 . S
C23 C24 1.383 . S
C24 O18 1.412 . S
C24 C23 1.383 . S
C24 C25 1.394 . S
C25 H15 0.929 . S
C25 C21 1.377 . S
C25 C24 1.394 . S
H26 C33 0.930 . S
H27 C36 0.930 . S
H28 C38 0.929 . S
H29 C30 0.969 . S
C30 H29 0.969 . S
C30 O31 1.550 1_556 S
C30 H32 0.973 . S
O31 C30 1.550 1_554 S
O31 C37 1.412 . S
H32 C30 0.973 . S
C33 H26 0.930 . S
C33 C34 1.400 . S
C33 C35 1.364 1_554 S
C34 C33 1.400 . S
C34 C38 1.377 . S
C35 C33 1.364 1_556 S
C35 C36 1.374 . S
C36 H27 0.930 . S
C36 C35 1.374 . S
C36 C37 1.383 1_556 S
C37 O31 1.412 . S
C37 C36 1.383 1_554 S
C37 C38 1.394 . S
C38 H28 0.929 . S
C38 C34 1.377 . S
C38 C37 1.394 . S
H39 C46 0.929 . S
H40 C49 0.930 . S
H41 C51 0.929 . S
H42 C43 0.969 . S
C43 H42 0.969 . S
C43 O44 1.550 . S
C43 H45 0.973 . S
O44 C43 1.550 . S
O44 C50 1.412 . S
H45 C43 0.973 . S
C46 H39 0.929 . S
C46 C47 1.400 . S
C46 C48 1.364 . S
C47 C46 1.400 . S
C47 C51 1.377 . S
C48 C46 1.364 . S
C48 C49 1.374 . S
C49 H40 0.930 . S
C49 C48 1.374 . S
C49 C50 1.383 . S
C50 O44 1.412 . S
C50 C49 1.383 . S
C50 C51 1.394 . S
C51 H41 0.929 . S
C51 C47 1.377 . S
C51 C50 1.394 . S
O52 Zn53 1.953 1_565 S
O52 C68 1.225 . S
Zn53 O52 1.953 1_545 S
Zn53 O54 1.949 1_655 S
Zn53 O60 1.919 . S
Zn53 O65 1.924 . S
O54 Zn53 1.949 1_455 S
O54 Zn55 1.923 . S
O54 Zn56 1.950 1_545 S
O54 Zn57 1.945 . S
Zn55 O54 1.923 . S
Zn55 O58 1.933 . S
Zn55 O61 1.941 . S
Zn55 O62 1.965 1_545 S
Zn56 O54 1.950 1_565 S
Zn56 O63 1.938 . S
Zn56 O64 1.906 . S
Zn56 O74 1.953 1_455 S
Zn57 O54 1.945 . S
Zn57 O59 1.932 . S
Zn57 O66 1.977 1_545 S
Zn57 O67 1.910 1_455 S
O58 Zn55 1.933 . S
O58 C69 1.226 . S
O59 Zn57 1.932 . S
O59 C69 1.307 . S
O60 Zn53 1.919 . S
O60 C71 1.253 . S
O61 Zn55 1.941 . S
O61 C71 1.283 1_455 S
O62 Zn55 1.965 1_565 S
O62 C70 1.303 . S
O63 Zn56 1.938 . S
O63 C70 1.247 . S
O64 Zn56 1.906 . S
O64 C72 1.304 . S
O65 Zn53 1.924 . S
O65 C73 1.311 . S
O66 Zn57 1.977 1_565 S
O66 C72 1.272 . S
O67 Zn57 1.910 1_655 S
O67 C73 1.231 . S
C68 O52 1.225 . S
C68 O74 1.298 . S
C69 O58 1.226 . S
C69 O59 1.307 . S
C70 O62 1.303 . S
C70 O63 1.247 . S
C71 O60 1.253 . S
C71 O61 1.283 1_655 S
C72 O64 1.304 . S
C72 O66 1.272 . S
C73 O65 1.311 . S
C73 O67 1.231 . S
O74 Zn56 1.953 1_655 S
O74 C68 1.298 . S
O75 Zn76 1.953 . S
O75 C91 1.225 1_556 S
Zn76 O75 1.953 . S
Zn76 O77 1.949 1_556 S
Zn76 O83 1.919 . S
Zn76 O88 1.924 1_556 S
O77 Zn76 1.949 1_554 S
O77 Zn78 1.923 1_554 S
O77 Zn79 1.950 . S
O77 Zn80 1.945 . S
Zn78 O77 1.923 1_556 S
Zn78 O81 1.933 . S
Zn78 O84 1.941 . S
Zn78 O85 1.965 . S
Zn79 O77 1.950 . S
Zn79 O86 1.938 1_554 S
Zn79 O87 1.906 . S
Zn79 O97 1.953 . S
Zn80 O77 1.945 . S
Zn80 O82 1.932 . S
Zn80 O89 1.977 . S
Zn80 O90 1.910 . S
O81 Zn78 1.933 . S
O81 C92 1.226 1_556 S
O82 Zn80 1.932 . S
O82 C92 1.307 . S
O83 Zn76 1.919 . S
O83 C94 1.253 . S
O84 Zn78 1.941 . S
O84 C94 1.283 . S
O85 Zn78 1.965 . S
O85 C93 1.303 . S
O86 Zn79 1.938 1_556 S
O86 C93 1.247 . S
O87 Zn79 1.906 . S
O87 C95 1.304 . S
O88 Zn76 1.924 1_554 S
O88 C96 1.311 . S
O89 Zn80 1.977 . S
O89 C95 1.272 . S
O90 Zn80 1.910 . S
O90 C96 1.231 . S
C91 O75 1.225 1_554 S
C91 O97 1.298 . S
C92 O81 1.226 1_554 S
C92 O82 1.307 . S
C93 O85 1.303 . S
C93 O86 1.247 . S
C94 O83 1.253 . S
C94 O84 1.283 . S
C95 O87 1.304 . S
C95 O89 1.272 . S
C96 O88 1.311 . S
C96 O90 1.231 . S
O97 Zn79 1.953 . S
O97 C91 1.298 . S
C98 C99 1.369 . S
C98 C100 1.419 . S
C98 H102 0.930 . S
C99 C98 1.369 . S
C99 C108 1.429 . S
C100 C98 1.419 . S
C100 C101 1.363 . S
C100 H103 0.929 . S
C101 C100 1.363 . S
C101 C107 1.428 . S
H102 C98 0.930 . S
H103 C100 0.929 . S
S104 N105 1.613 . S
S104 N106 1.610 . S
N105 S104 1.613 . S
N105 C108 1.350 . S
N106 S104 1.610 . S
N106 C107 1.351 . S
C107 C101 1.428 . S
C107 N106 1.351 . S
C107 C108 1.434 . S
C108 C99 1.429 . S
C108 N105 1.350 . S
C108 C107 1.434 . S
C109 C110 1.369 . S
C109 C111 1.419 . S
C109 H113 0.930 . S
C110 C109 1.369 . S
C110 C119 1.429 1_554 S
C111 C109 1.419 . S
C111 C112 1.363 . S
C111 H114 0.929 . S
C112 C111 1.363 . S
C112 C118 1.428 1_554 S
H113 C109 0.930 . S
H114 C111 0.929 . S
S115 N116 1.613 . S
S115 N117 1.610 . S
N116 S115 1.613 . S
N116 C119 1.350 . S
N117 S115 1.610 . S
N117 C118 1.351 . S
C118 C112 1.428 1_556 S
C118 N117 1.351 . S
C118 C119 1.434 . S
C119 C110 1.429 1_556 S
C119 N116 1.350 . S
C119 C118 1.434 . S
C120 C121 1.369 . S
C120 C122 1.419 . S
C120 H124 0.930 . S
C121 C120 1.369 . S
C121 C130 1.429 . S
C122 C120 1.419 . S
C122 C123 1.363 . S
C122 H125 0.929 . S
C123 C122 1.363 . S
C123 C129 1.428 . S
H124 C120 0.930 . S
H125 C122 0.929 . S
S126 N127 1.613 . S
S126 N128 1.610 . S
N127 S126 1.613 . S
N127 C130 1.350 . S
N128 S126 1.610 . S
N128 C129 1.351 . S
C129 C123 1.428 . S
C129 N128 1.351 . S
C129 C130 1.434 . S
C130 C121 1.429 . S
C130 N127 1.350 . S
C130 C129 1.434 . S
C131 C132 1.369 1_554 S
C131 C133 1.419 . S
C131 H135 0.930 . S
C132 C131 1.369 1_556 S
C132 C141 1.429 . S
C133 C131 1.419 . S
C133 C134 1.363 . S
C133 H136 0.929 . S
C134 C133 1.363 . S
C134 C140 1.428 1_554 S
H135 C131 0.930 . S
H136 C133 0.929 . S
S137 N138 1.613 . S
S137 N139 1.610 . S
N138 S137 1.613 . S
N138 C141 1.350 . S
N139 S137 1.610 . S
N139 C140 1.351 . S
C140 C134 1.428 1_556 S
C140 N139 1.351 . S
C140 C141 1.434 . S
C141 C132 1.429 . S
C141 N138 1.350 . S
C141 C140 1.434 . S
C142 C143 1.369 . S
C142 C144 1.419 . S
C142 H146 0.930 . S
C143 C142 1.369 . S
C143 C152 1.429 . S
C144 C142 1.419 . S
C144 C145 1.363 . S
C144 H147 0.929 . S
C145 C144 1.363 . S
C145 C151 1.428 . S
H146 C142 0.930 . S
H147 C144 0.929 . S
S148 N149 1.613 . S
S148 N150 1.610 . S
N149 S148 1.613 . S
N149 C152 1.350 . S
N150 S148 1.610 . S
N150 C151 1.351 . S
C151 C145 1.428 . S
C151 N150 1.351 . S
C151 C152 1.434 . S
C152 C143 1.429 . S
C152 N149 1.350 . S
C152 C151 1.434 . S
C153 C154 1.369 . S
C153 C155 1.419 . S
C153 H157 0.930 . S
C154 C153 1.369 . S
C154 C163 1.429 . S
C155 C153 1.419 . S
C155 C156 1.363 . S
C155 H158 0.929 . S
C156 C155 1.363 . S
C156 C162 1.428 . S
H157 C153 0.930 . S
H158 C155 0.929 . S
S159 N160 1.613 . S
S159 N161 1.610 . S
N160 S159 1.613 . S
N160 C163 1.350 . S
N161 S159 1.610 . S
N161 C162 1.351 . S
C162 C156 1.428 . S
C162 N161 1.351 . S
C162 C163 1.434 . S
C163 C154 1.429 . S
C163 N160 1.350 . S
C163 C162 1.434 . S
C164 C165 1.369 . S
C164 C166 1.419 . S
C164 H168 0.930 . S
C165 C164 1.369 . S
C165 C174 1.429 . S
C166 C164 1.419 . S
C166 C167 1.363 . S
C166 H169 0.929 . S
C167 C166 1.363 . S
C167 C173 1.428 . S
H168 C164 0.930 . S
H169 C166 0.929 . S
S170 N171 1.613 . S
S170 N172 1.610 . S
N171 S170 1.613 . S
N171 C174 1.350 . S
N172 S170 1.610 . S
N172 C173 1.351 . S
C173 C167 1.428 . S
C173 N172 1.351 . S
C173 C174 1.434 . S
C174 C165 1.429 . S
C174 N171 1.350 . S
C174 C173 1.434 . S
C175 C176 1.369 . S
C175 C177 1.419 . S
C175 H179 0.930 . S
C176 C175 1.369 . S
C176 C185 1.429 . S
C177 C175 1.419 . S
C177 C178 1.363 . S
C177 H180 0.929 . S
C178 C177 1.363 . S
C178 C184 1.428 . S
H179 C175 0.930 . S
H180 C177 0.929 . S
S181 N182 1.613 . S
S181 N183 1.610 . S
N182 S181 1.613 . S
N182 C185 1.350 . S
N183 S181 1.610 . S
N183 C184 1.351 . S
C184 C178 1.428 . S
C184 N183 1.351 . S
C184 C185 1.434 . S
C185 C176 1.429 . S
C185 N182 1.350 . S
C185 C184 1.434 . S
C186 C187 1.369 . S
C186 C188 1.419 . S
C186 H190 0.930 . S
C187 C186 1.369 . S
C187 C196 1.429 . S
C188 C186 1.419 . S
C188 C189 1.363 . S
C188 H191 0.929 . S
C189 C188 1.363 . S
C189 C195 1.428 . S
H190 C186 0.930 . S
H191 C188 0.929 . S
S192 N193 1.613 . S
S192 N194 1.610 . S
N193 S192 1.613 . S
N193 C196 1.350 . S
N194 S192 1.610 . S
N194 C195 1.351 . S
C195 C189 1.428 . S
C195 N194 1.351 . S
C195 C196 1.434 . S
C196 C187 1.429 . S
C196 N193 1.350 . S
C196 C195 1.434 . S
C197 C198 1.369 . S
C197 C199 1.419 . S
C197 H201 0.930 . S
C198 C197 1.369 . S
C198 C207 1.429 . S
C199 C197 1.419 . S
C199 C200 1.363 . S
C199 H202 0.929 . S
C200 C199 1.363 . S
C200 C206 1.428 . S
H201 C197 0.930 . S
H202 C199 0.929 . S
S203 N204 1.613 . S
S203 N205 1.610 . S
N204 S203 1.613 . S
N204 C207 1.350 . S
N205 S203 1.610 . S
N205 C206 1.351 . S
C206 C200 1.428 . S
C206 N205 1.351 . S
C206 C207 1.434 . S
C207 C198 1.429 . S
C207 N204 1.350 . S
C207 C206 1.434 . S
C208 C209 1.369 . S
C208 C210 1.419 . S
C208 H212 0.930 . S
C209 C208 1.369 . S
C209 C218 1.429 . S
C210 C208 1.419 . S
C210 C211 1.363 . S
C210 H213 0.929 . S
C211 C210 1.363 . S
C211 C217 1.428 . S
H212 C208 0.930 . S
H213 C210 0.929 . S
S214 N215 1.613 . S
S214 N216 1.610 . S
N215 S214 1.613 . S
N215 C218 1.350 . S
N216 S214 1.610 . S
N216 C217 1.351 . S
C217 C211 1.428 . S
C217 N216 1.351 . S
C217 C218 1.434 . S
C218 C209 1.429 . S
C218 N215 1.350 . S
C218 C217 1.434 . S
C219 C220 1.369 . S
C219 C221 1.419 . S
C219 H223 0.930 . S
C220 C219 1.369 . S
C220 C229 1.429 . S
C221 C219 1.419 . S
C221 C222 1.363 . S
C221 H224 0.929 . S
C222 C221 1.363 . S
C222 C228 1.428 . S
H223 C219 0.930 . S
H224 C221 0.929 . S
S225 N226 1.613 1_545 S
S225 N227 1.610 1_545 S
N226 S225 1.613 1_565 S
N226 C229 1.350 . S
N227 S225 1.610 1_565 S
N227 C228 1.351 . S
C228 C222 1.428 . S
C228 N227 1.351 . S
C228 C229 1.434 . S
C229 C220 1.429 . S
C229 N226 1.350 . S
C229 C228 1.434 . S
C101 C69 1.487 . S
C99 C43 1.445 . S
C110 C4 1.451 . S
C112 C92 1.491 . S
C121 C17 1.471 . S
C123 C68 1.517 . S
C132 C30 1.466 . S
C134 C91 1.515 . S
C145 C72 1.450 . S
C143 C9 1.477 . S
C156 C94 1.466 . S
C154 C21 1.528 . S
C165 C34 1.514 . S
C167 C73 1.455 . S
C176 C48 1.530 . S
C178 C93 1.468 . S
C189 C96 1.451 . S
C187 C22 1.487 . S
C200 C71 1.479 . S
C198 C35 1.532 . S
C211 C95 1.447 . S
C209 C47 1.501 . S
C220 C8 1.523 . S
C222 C70 1.463 . S
