# Generated by pormake.
# Topology rtl, (3,6)-cn, num edge types: 1
# Building blocks:
#     Node 0, Type 0, BuildingBlock: QEWDON_clean_linker_0, # of connection points: 3
#     Node 1, Type 0, BuildingBlock: QEWDON_clean_linker_0, # of connection points: 3
#     Node 2, Type 0, BuildingBlock: QEWDON_clean_linker_0, # of connection points: 3
#     Node 3, Type 0, BuildingBlock: QEWDON_clean_linker_0, # of connection points: 3
#     Node 4, Type 1, BuildingBlock: VOLQOD_clean_sbu_1, # of connection points: 6
#     Node 5, Type 1, BuildingBlock: VOLQOD_clean_sbu_1, # of connection points: 6
#     Edge 6, Type (0, 1), None
#     Edge 7, Type (0, 1), None
#     Edge 8, Type (0, 1), None
#     Edge 9, Type (0, 1), None
#     Edge 10, Type (0, 1), None
#     Edge 11, Type (0, 1), None
#     Edge 12, Type (0, 1), None
#     Edge 13, Type (0, 1), None
#     Edge 14, Type (0, 1), None
#     Edge 15, Type (0, 1), None
#     Edge 16, Type (0, 1), None
#     Edge 17, Type (0, 1), None
# Relax obj value: 0.050
# Max RMSD: 0.149
# Mean RMSD: 0.118
data_MOF--net-rtl--node1-VOLQOD_clean_sbu_1--node2-QEWDON_clean_linker_0--edge1-none
_symmetry_space_group_name_H-M    P1
_symmetry_Int_Tables_number       1
_symmetry_cell_setting            triclinic
loop_
_symmetry_equiv_pos_as_xyz
'x, y, z'
_cell_length_a     19.736766
_cell_length_b     18.896404
_cell_length_c     10.232059
_cell_angle_alpha  91.50559
_cell_angle_beta   91.781382
_cell_angle_gamma 89.234021
loop_
_atom_site_label
_atom_site_type_symbol
_atom_site_fract_x
_atom_site_fract_y
_atom_site_fract_z
_atom_type_partial_charge
H0 H 0.23305 0.91337 0.18252 0.0
C1 C 0.2068 0.921 0.0892 0.0
C2 C 0.13985 0.94679 0.08513 0.0
C3 C 0.24146 0.91055 0.97199 0.0
H4 H 0.05576 0.97963 0.96227 0.0
C5 C 0.10758 0.95947 0.96492 0.0
C6 C 0.14164 0.95009 0.8485 0.0
C7 C 0.20857 0.92453 0.85132 0.0
C8 C 0.31423 0.89333 -0.02396 0.0
H9 H 0.23606 0.9192 0.76139 0.0
C10 C 0.33657 0.82269 -0.02091 0.0
C11 C 0.40611 0.80678 -0.0221 0.0
C12 C 0.36161 0.94795 0.97319 0.0
H13 H 0.34488 1.00276 0.97054 0.0
C14 C 0.43092 0.93202 0.97306 0.0
H15 H 0.30003 0.78037 -0.01967 0.0
C16 C 0.45322 0.86158 0.97486 0.0
H17 H 0.50708 0.8498 0.97357 0.0
H18 H 0.46734 0.97426 0.97067 0.0
H19 H 0.74619 0.65542 0.27851 0.0
C20 C 0.72158 0.64309 0.36823 0.0
C21 C 0.65738 0.61205 0.36287 0.0
C22 C 0.75367 0.65874 0.49043 0.0
H23 H 0.57602 0.57349 0.47539 0.0
C24 C 0.62603 0.59687 0.47964 0.0
C25 C 0.65774 0.61074 0.60174 0.0
C26 C 0.72226 0.64098 0.60707 0.0
C27 C 0.82321 0.68632 0.49643 0.0
H28 H 0.74733 0.65206 0.70103 0.0
C29 C 0.83729 0.75855 0.47712 0.0
C30 C 0.90499 0.78218 0.48433 0.0
C31 C 0.8763 0.63842 0.52264 0.0
H32 H 0.86607 0.58306 0.53776 0.0
C33 C 0.94291 0.66116 0.52876 0.0
H34 H 0.79607 0.79561 0.45764 0.0
C35 C 0.95725 0.73198 0.5098 0.0
H36 H 0.00997 0.74723 0.51664 0.0
H37 H 0.98373 0.62377 0.54874 0.0
H38 H 0.74699 0.15561 0.16496 0.0
C39 C 0.77329 0.14692 0.07436 0.0
C40 C 0.83955 0.11909 0.07732 0.0
C41 C 0.74128 0.16459 0.95408 0.0
H42 H 0.92423 0.08716 0.96029 0.0
C43 C 0.87299 0.10878 0.95856 0.0
C44 C 0.84082 0.12305 0.83726 0.0
C45 C 0.77444 0.15073 0.8356 0.0
C46 C 0.67048 0.19092 0.9515 0.0
H47 H 0.74884 0.16191 0.74302 0.0
C48 C 0.65436 0.26409 0.95791 0.0
C49 C 0.58583 0.28715 0.95611 0.0
C50 C 0.61841 0.14127 0.94334 0.0
H51 H 0.63009 0.08507 0.93852 0.0
C52 C 0.55095 0.16353 0.94154 0.0
H53 H 0.69478 0.30238 0.96429 0.0
C54 C 0.53469 0.23551 0.94785 0.0
H55 H 0.48151 0.25048 0.94612 0.0
H56 H 0.51097 0.12479 0.93527 0.0
H57 H 0.29413 0.38471 0.66491 0.0
C58 C 0.30412 0.41145 0.57513 0.0
C59 C 0.34031 0.47488 0.57991 0.0
C60 C 0.28721 0.37815 0.4546 0.0
H61 H 0.38496 0.55486 0.46533 0.0
C62 C 0.35552 0.50682 0.46196 0.0
C63 C 0.34213 0.47242 0.34051 0.0
C64 C 0.30682 0.40828 0.33766 0.0
C65 C 0.26607 0.30385 0.45364 0.0
H66 H 0.29867 0.37922 0.24584 0.0
C67 C 0.1976 0.28493 0.46267 0.0
C68 C 0.18084 0.21302 0.46784 0.0
C69 C 0.3168 0.25113 0.44962 0.0
H70 H 0.36965 0.26521 0.4435 0.0
C71 C 0.29995 0.18005 0.45526 0.0
H72 H 0.1582 0.32539 0.46534 0.0
C73 C 0.23242 0.16104 0.46447 0.0
H74 H 0.22018 0.10534 0.4675 0.0
H75 H 0.33928 0.13962 0.45239 0.0
O76 O 0.88057 0.90854 0.46421 0.0
Zn77 Zn 0.895 1.01872 0.45823 0.0
O78 O 0.9938 0.03659 0.4633 0.0
Zn79 Zn 0.02045 0.09215 0.61605 0.0
Zn80 Zn 0.05046 0.94995 0.46339 0.0
Zn81 Zn 0.01864 0.0897 0.31528 0.0
O82 O 0.08984 0.16569 0.57691 0.0
O83 O 0.08521 0.16621 0.36047 0.0
O84 O 0.85392 0.06613 0.62587 0.0
O85 O 0.94063 0.12608 0.71728 0.0
O86 O 0.07051 0.03039 0.73891 0.0
O87 O 0.11165 0.94012 0.62233 0.0
O88 O 0.10733 0.93484 0.30535 0.0
O89 O 0.85249 0.06142 0.28547 0.0
O90 O 0.06959 1.02738 0.19498 0.0
O91 O 0.93885 0.12129 0.20896 0.0
C92 C 0.9244 0.85772 0.46916 0.0
C93 C 0.11081 0.18805 0.46934 0.0
C94 C 0.1076 0.97522 0.72912 0.0
C95 C 0.87874 0.10753 0.71614 0.0
C96 C 0.10475 0.97082 0.20247 0.0
C97 C 0.87724 0.10231 0.20101 0.0
O98 O 0.9876 0.86988 0.46797 0.0
O99 O 0.6094 0.41288 0.96873 0.0
Zn100 Zn 0.59768 0.52254 0.97504 0.0
O101 O 0.49862 0.54809 0.97113 0.0
Zn102 Zn 0.47559 0.60506 0.82093 0.0
Zn103 Zn 0.44137 0.46379 0.96405 0.0
Zn104 Zn 0.4746 0.6046 0.12413 0.0
O105 O 0.4421 0.70286 0.86728 0.0
O106 O 0.43861 0.7018 0.08383 0.0
O107 O 0.64419 0.56246 0.81455 0.0
O108 O 0.55637 0.61503 0.71399 0.0
O109 O 0.40724 0.55776 0.7019 0.0
O110 O 0.3823 0.45821 0.79838 0.0
O111 O 0.38383 0.45557 0.12449 0.0
O112 O 0.6437 0.56261 0.14505 0.0
O113 O 0.40801 0.55558 0.23243 0.0
O114 O 0.55606 0.61636 0.23925 0.0
C115 C 0.56536 0.36362 0.96213 0.0
C116 C 0.42962 0.73313 -0.02371 0.0
C117 C 0.37518 0.49987 0.70281 0.0
C118 C 0.61871 0.59749 0.71934 0.0
C119 C 0.3769 0.49707 0.22352 0.0
C120 C 0.61841 0.59874 0.23951 0.0
O121 O 0.50211 0.3782 0.95978 0.0
loop_
_geom_bond_atom_site_label_1
_geom_bond_atom_site_label_2
_geom_bond_distance
_geom_bond_site_symmetry_2
_ccdc_geom_bond_type
H0 C1 0.949 . S
C1 H0 0.949 . S
C1 C2 1.395 . S
C1 C3 1.391 1_554 S
C2 C1 1.395 . S
C2 C5 1.390 . S
C3 C1 1.391 1_556 S
C3 C7 1.387 . S
C3 C8 1.491 . S
H4 C5 0.950 . S
C5 C2 1.390 . S
C5 H4 0.950 . S
C5 C6 1.378 1_554 S
C6 C5 1.378 1_556 S
C6 C7 1.409 . S
C7 C3 1.387 . S
C7 C6 1.409 . S
C7 H9 0.951 . S
C8 C3 1.491 . S
C8 C10 1.382 1_556 S
C8 C12 1.404 . S
H9 C7 0.951 . S
C10 C8 1.382 1_554 S
C10 C11 1.390 . S
C10 H15 0.949 . S
C11 C10 1.390 . S
C11 C16 1.399 1_554 S
C12 C8 1.404 . S
C12 H13 0.950 . S
C12 C14 1.375 . S
H13 C12 0.950 . S
C14 C12 1.375 . S
C14 C16 1.382 . S
C14 H18 0.950 . S
H15 C10 0.949 . S
C16 C11 1.399 1_556 S
C16 C14 1.382 . S
C16 H17 0.952 . S
H17 C16 0.952 . S
H18 C14 0.950 . S
H19 C20 0.949 . S
C20 H19 0.949 . S
C20 C21 1.395 . S
C20 C22 1.391 . S
C21 C20 1.395 . S
C21 C24 1.390 . S
C22 C20 1.391 . S
C22 C26 1.387 . S
C22 C27 1.491 . S
H23 C24 0.950 . S
C24 C21 1.390 . S
C24 H23 0.950 . S
C24 C25 1.378 . S
C25 C24 1.378 . S
C25 C26 1.409 . S
C26 C22 1.387 . S
C26 C25 1.409 . S
C26 H28 0.951 . S
C27 C22 1.491 . S
C27 C29 1.382 . S
C27 C31 1.404 . S
H28 C26 0.951 . S
C29 C27 1.382 . S
C29 C30 1.390 . S
C29 H34 0.949 . S
C30 C29 1.390 . S
C30 C35 1.399 . S
C31 C27 1.404 . S
C31 H32 0.950 . S
C31 C33 1.375 . S
H32 C31 0.950 . S
C33 C31 1.375 . S
C33 C35 1.382 . S
C33 H37 0.950 . S
H34 C29 0.949 . S
C35 C30 1.399 . S
C35 C33 1.382 . S
C35 H36 0.952 . S
H36 C35 0.952 . S
H37 C33 0.950 . S
H38 C39 0.949 . S
C39 H38 0.949 . S
C39 C40 1.395 . S
C39 C41 1.391 1_554 S
C40 C39 1.395 . S
C40 C43 1.390 . S
C41 C39 1.391 1_556 S
C41 C45 1.387 . S
C41 C46 1.491 . S
H42 C43 0.950 . S
C43 C40 1.390 . S
C43 H42 0.950 . S
C43 C44 1.378 1_554 S
C44 C43 1.378 1_556 S
C44 C45 1.409 . S
C45 C41 1.387 . S
C45 C44 1.409 . S
C45 H47 0.951 . S
C46 C41 1.491 . S
C46 C48 1.382 1_556 S
C46 C50 1.404 . S
H47 C45 0.951 . S
C48 C46 1.382 1_554 S
C48 C49 1.390 . S
C48 H53 0.949 . S
C49 C48 1.390 . S
C49 C54 1.399 1_554 S
C50 C46 1.404 . S
C50 H51 0.950 . S
C50 C52 1.375 . S
H51 C50 0.950 . S
C52 C50 1.375 . S
C52 C54 1.382 . S
C52 H56 0.950 . S
H53 C48 0.949 . S
C54 C49 1.399 1_556 S
C54 C52 1.382 . S
C54 H55 0.952 . S
H55 C54 0.952 . S
H56 C52 0.950 . S
H57 C58 0.949 . S
C58 H57 0.949 . S
C58 C59 1.395 . S
C58 C60 1.391 . S
C59 C58 1.395 . S
C59 C62 1.390 . S
C60 C58 1.391 . S
C60 C64 1.387 . S
C60 C65 1.491 . S
H61 C62 0.950 . S
C62 C59 1.390 . S
C62 H61 0.950 . S
C62 C63 1.378 . S
C63 C62 1.378 . S
C63 C64 1.409 . S
C64 C60 1.387 . S
C64 C63 1.409 . S
C64 H66 0.951 . S
C65 C60 1.491 . S
C65 C67 1.382 . S
C65 C69 1.404 . S
H66 C64 0.951 . S
C67 C65 1.382 . S
C67 C68 1.390 . S
C67 H72 0.949 . S
C68 C67 1.390 . S
C68 C73 1.399 . S
C69 C65 1.404 . S
C69 H70 0.950 . S
C69 C71 1.375 . S
H70 C69 0.950 . S
C71 C69 1.375 . S
C71 C73 1.382 . S
C71 H75 0.950 . S
H72 C67 0.949 . S
C73 C68 1.399 . S
C73 C71 1.382 . S
C73 H74 0.952 . S
H74 C73 0.952 . S
H75 C71 0.950 . S
O76 Zn77 1.953 1_565 S
O76 C92 1.225 . S
Zn77 O76 1.953 1_545 S
Zn77 O78 1.949 1_655 S
Zn77 O84 1.919 . S
Zn77 O89 1.924 . S
O78 Zn77 1.949 1_455 S
O78 Zn79 1.923 . S
O78 Zn80 1.950 1_545 S
O78 Zn81 1.945 . S
Zn79 O78 1.923 . S
Zn79 O82 1.933 . S
Zn79 O85 1.941 1_455 S
Zn79 O86 1.965 1_545 S
Zn80 O78 1.950 1_565 S
Zn80 O87 1.938 . S
Zn80 O88 1.906 . S
Zn80 O98 1.953 1_455 S
Zn81 O78 1.945 . S
Zn81 O83 1.932 . S
Zn81 O90 1.977 1_545 S
Zn81 O91 1.910 1_455 S
O82 Zn79 1.933 . S
O82 C93 1.226 . S
O83 Zn81 1.932 . S
O83 C93 1.307 . S
O84 Zn77 1.919 . S
O84 C95 1.253 . S
O85 Zn79 1.941 1_655 S
O85 C95 1.283 . S
O86 Zn79 1.965 1_565 S
O86 C94 1.303 . S
O87 Zn80 1.938 . S
O87 C94 1.247 . S
O88 Zn80 1.906 . S
O88 C96 1.304 . S
O89 Zn77 1.924 . S
O89 C97 1.311 . S
O90 Zn81 1.977 1_565 S
O90 C96 1.272 . S
O91 Zn81 1.910 1_655 S
O91 C97 1.231 . S
C92 O76 1.225 . S
C92 O98 1.298 . S
C93 O82 1.226 . S
C93 O83 1.307 . S
C94 O86 1.303 . S
C94 O87 1.247 . S
C95 O84 1.253 . S
C95 O85 1.283 . S
C96 O88 1.304 . S
C96 O90 1.272 . S
C97 O89 1.311 . S
C97 O91 1.231 . S
O98 Zn80 1.953 1_655 S
O98 C92 1.298 . S
O99 Zn100 1.953 1_556 S
O99 C115 1.225 1_556 S
Zn100 O99 1.953 1_554 S
Zn100 O101 1.949 . S
Zn100 O107 1.919 1_554 S
Zn100 O112 1.924 . S
O101 Zn100 1.949 . S
O101 Zn102 1.923 1_554 S
O101 Zn103 1.950 . S
O101 Zn104 1.945 . S
Zn102 O101 1.923 1_556 S
Zn102 O105 1.933 . S
Zn102 O108 1.941 . S
Zn102 O109 1.965 . S
Zn103 O101 1.950 . S
Zn103 O110 1.938 1_554 S
Zn103 O111 1.906 . S
Zn103 O121 1.953 . S
Zn104 O101 1.945 . S
Zn104 O106 1.932 . S
Zn104 O113 1.977 . S
Zn104 O114 1.910 . S
O105 Zn102 1.933 . S
O105 C116 1.226 1_556 S
O106 Zn104 1.932 . S
O106 C116 1.307 . S
O107 Zn100 1.919 1_556 S
O107 C118 1.253 . S
O108 Zn102 1.941 . S
O108 C118 1.283 . S
O109 Zn102 1.965 . S
O109 C117 1.303 . S
O110 Zn103 1.938 1_556 S
O110 C117 1.247 . S
O111 Zn103 1.906 . S
O111 C119 1.304 . S
O112 Zn100 1.924 . S
O112 C120 1.311 . S
O113 Zn104 1.977 . S
O113 C119 1.272 . S
O114 Zn104 1.910 . S
O114 C120 1.231 . S
C115 O99 1.225 1_554 S
C115 O121 1.298 . S
C116 O105 1.226 1_554 S
C116 O106 1.307 . S
C117 O109 1.303 . S
C117 O110 1.247 . S
C118 O107 1.253 . S
C118 O108 1.283 . S
C119 O111 1.304 . S
C119 O113 1.272 . S
C120 O112 1.311 . S
C120 O114 1.231 . S
O121 Zn103 1.953 . S
O121 C115 1.298 . S
C93 C68 1.328 . S
C11 C116 1.345 . S
C30 C92 1.463 . S
C49 C115 1.393 . S
C96 C2 1.567 . S
C118 C25 1.615 . S
C40 C97 1.634 . S
C59 C117 1.629 . S
C120 C21 1.461 . S
C95 C44 1.479 . S
C119 C63 1.483 . S
C6 C94 1.545 . S
