# Generated by pormake.
# Topology ant, (3,6)-cn, num edge types: 1
# Building blocks:
#     Node 0, Type 0, BuildingBlock: QEWDON_clean_linker_0, # of connection points: 3
#     Node 1, Type 0, BuildingBlock: QEWDON_clean_linker_0, # of connection points: 3
#     Node 2, Type 0, BuildingBlock: QEWDON_clean_linker_0, # of connection points: 3
#     Node 3, Type 0, BuildingBlock: QEWDON_clean_linker_0, # of connection points: 3
#     Node 4, Type 0, BuildingBlock: QEWDON_clean_linker_0, # of connection points: 3
#     Node 5, Type 0, BuildingBlock: QEWDON_clean_linker_0, # of connection points: 3
#     Node 6, Type 0, BuildingBlock: QEWDON_clean_linker_0, # of connection points: 3
#     Node 7, Type 0, BuildingBlock: QEWDON_clean_linker_0, # of connection points: 3
#     Node 8, Type 1, BuildingBlock: MIDCAF_clean_sbu_0, # of connection points: 6
#     Node 9, Type 1, BuildingBlock: MIDCAF_clean_sbu_0, # of connection points: 6
#     Node 10, Type 1, BuildingBlock: MIDCAF_clean_sbu_0, # of connection points: 6
#     Node 11, Type 1, BuildingBlock: MIDCAF_clean_sbu_0, # of connection points: 6
#     Edge 12, Type (0, 1), None
#     Edge 13, Type (0, 1), None
#     Edge 14, Type (0, 1), None
#     Edge 15, Type (0, 1), None
#     Edge 16, Type (0, 1), None
#     Edge 17, Type (0, 1), None
#     Edge 18, Type (0, 1), None
#     Edge 19, Type (0, 1), None
#     Edge 20, Type (0, 1), None
#     Edge 21, Type (0, 1), None
#     Edge 22, Type (0, 1), None
#     Edge 23, Type (0, 1), None
#     Edge 24, Type (0, 1), None
#     Edge 25, Type (0, 1), None
#     Edge 26, Type (0, 1), None
#     Edge 27, Type (0, 1), None
#     Edge 28, Type (0, 1), None
#     Edge 29, Type (0, 1), None
#     Edge 30, Type (0, 1), None
#     Edge 31, Type (0, 1), None
#     Edge 32, Type (0, 1), None
#     Edge 33, Type (0, 1), None
#     Edge 34, Type (0, 1), None
#     Edge 35, Type (0, 1), None
# Relax obj value: 0.060
# Max RMSD: 0.157
# Mean RMSD: 0.108
data_MOF--net-ant--node1-MIDCAF_clean_sbu_0--node2-QEWDON_clean_linker_0--edge1-none
_symmetry_space_group_name_H-M    P1
_symmetry_Int_Tables_number       1
_symmetry_cell_setting            triclinic
loop_
_symmetry_equiv_pos_as_xyz
'x, y, z'
_cell_length_a     14.187962
_cell_length_b     14.366867
_cell_length_c     31.490436
_cell_angle_alpha  93.266625
_cell_angle_beta   106.52561
_cell_angle_gamma 89.646146
loop_
_atom_site_label
_atom_site_type_symbol
_atom_site_fract_x
_atom_site_fract_y
_atom_site_fract_z
_atom_type_partial_charge
H0 H 0.11508 0.24153 0.02744 0.0
C1 C 0.07606 0.30433 0.03273 0.0
C2 C 0.05917 0.37311 0.00169 0.0
C3 C 0.04551 0.31652 0.07116 0.0
H4 H 0.99096 0.5057 -0.016 0.0
C5 C 0.00759 0.45397 0.0085 0.0
C6 C 0.98154 0.47003 0.04807 0.0
C7 C 0.9996 0.39982 0.07903 0.0
C8 C 0.06233 0.241 0.10255 0.0
H9 H 0.97997 0.41042 0.10979 0.0
C10 C 0.02357 0.15207 0.08706 0.0
C11 C 0.04222 0.07667 0.11478 0.0
C12 C 0.12017 0.25496 0.14672 0.0
H13 H 0.15129 0.32311 0.15939 0.0
C14 C 0.14062 0.17982 0.17439 0.0
H15 H 0.97862 0.14171 0.05292 0.0
C16 C 0.10248 0.09064 0.15847 0.0
H17 H 0.11809 0.03362 0.18042 0.0
H18 H 0.18622 0.19073 0.20828 0.0
H19 H 0.91661 0.85617 0.24552 0.0
C20 C 0.99537 0.85051 0.25899 0.0
C21 C 0.05261 0.85525 0.22946 0.0
C22 C 0.03724 0.82502 0.30288 0.0
H23 H 0.19992 0.86074 0.22394 0.0
C24 C 0.15572 0.85444 0.24634 0.0
C25 C 0.19914 0.82944 0.29015 0.0
C26 C 0.13953 0.81711 0.31801 0.0
C27 C 0.97515 0.79031 0.33012 0.0
H28 H 0.17366 0.79192 0.35049 0.0
C29 C 0.87913 0.75631 0.30957 0.0
C30 C 0.81852 0.72832 0.33471 0.0
C31 C 0.01181 0.78742 0.37671 0.0
H32 H 0.08341 0.81544 0.39476 0.0
C33 C 0.95563 0.74886 0.40124 0.0
H34 H 0.84737 0.75617 0.27405 0.0
C35 C 0.85928 0.71982 0.38052 0.0
H36 H 0.81489 0.69772 0.40101 0.0
H37 H 0.98516 0.74602 0.43685 0.0
H38 H 0.68955 0.68061 0.48624 0.0
C39 C 0.6756 0.74307 0.50442 0.0
C40 C 0.64605 0.82536 0.48203 0.0
C41 C 0.68729 0.74175 0.55036 0.0
H42 H 0.6095 0.9701 0.48906 0.0
C43 C 0.6296 0.90653 0.5059 0.0
C44 C 0.63934 0.9061 0.55143 0.0
C45 C 0.66815 0.82315 0.57331 0.0
C46 C 0.72613 0.65852 0.57574 0.0
H47 H 0.67843 0.8222 0.60875 0.0
C48 C 0.66716 0.57874 0.5737 0.0
C49 C 0.70371 0.50253 0.60029 0.0
C50 C 0.82193 0.66164 0.6046 0.0
H51 H 0.86828 0.72256 0.60716 0.0
C52 C 0.85875 0.5865 0.63049 0.0
H53 H 0.59293 0.57657 0.55165 0.0
C54 C 0.80036 0.50743 0.62838 0.0
H55 H 0.83081 0.45041 0.64893 0.0
H56 H 0.93292 0.58973 0.65249 0.0
H57 H 0.52684 0.27257 0.73653 0.0
C58 C 0.59326 0.30911 0.75602 0.0
C59 C 0.66883 0.32511 0.73662 0.0
C60 C 0.60876 0.32348 0.80167 0.0
H61 H 0.81487 0.38335 0.74851 0.0
C62 C 0.75707 0.36797 0.76295 0.0
C63 C 0.77683 0.37635 0.80953 0.0
C64 C 0.69994 0.35813 0.8282 0.0
C65 C 0.54524 0.27219 0.8223 0.0
H66 H 0.7148 0.35946 0.86399 0.0
C67 C 0.46828 0.31558 0.83545 0.0
C68 C 0.41292 0.26471 0.85704 0.0
C69 C 0.56457 0.17755 0.82967 0.0
H70 H 0.62326 0.14298 0.81939 0.0
C71 C 0.51071 0.12773 0.85166 0.0
H72 H 0.45397 0.38893 0.83039 0.0
C73 C 0.43707 0.17183 0.86636 0.0
H74 H 0.4018 0.13456 0.8866 0.0
H75 H 0.52821 0.05572 0.85862 0.0
H76 H 0.05095 0.89796 0.94381 0.0
C77 C 0.08722 0.83171 0.9429 0.0
C78 C 0.06162 0.75766 0.96508 0.0
C79 C 0.1603 0.82104 0.92047 0.0
H80 H 0.09039 0.61542 0.98118 0.0
C81 C 0.10669 0.67186 0.96329 0.0
C82 C 0.17247 0.65783 0.93818 0.0
C83 C 0.2021 0.73231 0.91813 0.0
C84 C 0.19009 0.90112 0.8985 0.0
H85 H 0.25718 0.72014 0.90075 0.0
C86 C 0.18384 0.99404 0.91471 0.0
C87 C 0.19999 0.06978 0.8911 0.0
C88 C 0.21985 0.88578 0.85962 0.0
H89 H 0.22382 0.81624 0.84521 0.0
C90 C 0.24026 0.96058 0.8372 0.0
H91 H 0.16218 0.00823 0.94473 0.0
C92 C 0.22805 0.05176 0.8521 0.0
H93 H 0.23617 0.1079 0.83183 0.0
H94 H 0.26099 0.94775 0.80686 0.0
H95 H 0.55956 0.73884 0.18104 0.0
C96 C 0.48071 0.74782 0.16887 0.0
C97 C 0.42466 0.75367 0.1991 0.0
C98 C 0.43348 0.74536 0.12287 0.0
H99 H 0.28033 0.74611 0.20678 0.0
C100 C 0.32253 0.75589 0.18372 0.0
C101 C 0.2741 0.76083 0.13889 0.0
C102 C 0.3296 0.755 0.10821 0.0
C103 C 0.48994 0.7188 0.09056 0.0
H104 H 0.29148 0.75203 0.07304 0.0
C105 C 0.58507 0.75549 0.09475 0.0
C106 C 0.63623 0.72673 0.06381 0.0
C107 C 0.44938 0.65153 0.05594 0.0
H108 H 0.37829 0.61982 0.05242 0.0
C109 C 0.50085 0.62229 0.02601 0.0
H110 H 0.61751 0.80798 0.12084 0.0
C111 C 0.59298 0.66016 0.0296 0.0
H112 H 0.63064 0.63765 0.00535 0.0
H113 H 0.46924 0.57008 -0.00023 0.0
H114 H 0.60693 0.31751 0.47125 0.0
C115 C 0.59072 0.25601 0.4486 0.0
C116 C 0.54264 0.17974 0.45885 0.0
C117 C 0.6196 0.25344 0.40986 0.0
H118 H 0.48458 0.04117 0.43854 0.0
C119 C 0.5214 0.10014 0.43005 0.0
C120 C 0.55319 0.09552 0.39163 0.0
C121 C 0.60071 0.17343 0.38135 0.0
C122 C 0.66369 0.33701 0.39821 0.0
H123 H 0.62443 0.1718 0.35148 0.0
C124 C 0.61243 0.42067 0.39629 0.0
C125 C 0.64546 0.5 0.38081 0.0
C126 C 0.75244 0.33356 0.38693 0.0
H127 H 0.79318 0.26923 0.38838 0.0
C128 C 0.78839 0.41356 0.37333 0.0
H129 H 0.54289 0.42206 0.4043 0.0
C130 C 0.73445 0.49605 0.36956 0.0
H131 H 0.75967 0.55421 0.35552 0.0
H132 H 0.8563 0.41075 0.3641 0.0
H133 H 0.18942 0.24192 0.74814 0.0
C134 C 0.11805 0.24352 0.72363 0.0
C135 C 0.03654 0.27503 0.73653 0.0
C136 C 0.10634 0.20512 0.68049 0.0
H137 H 0.88054 0.28192 0.71758 0.0
C138 C 0.94382 0.27059 0.70596 0.0
C139 C 0.92997 0.23363 0.66268 0.0
C140 C 0.01189 0.1998 0.64989 0.0
C141 C 0.19007 0.15501 0.67142 0.0
H142 H 0.00127 0.16324 0.61778 0.0
C143 C 0.25278 0.19842 0.65103 0.0
C144 C 0.33963 0.15408 0.64778 0.0
C145 C 0.21369 0.06681 0.68822 0.0
H146 H 0.16685 0.03322 0.70475 0.0
C147 C 0.29916 0.02243 0.68488 0.0
H148 H 0.23501 0.26724 0.63878 0.0
C149 C 0.36214 0.0658 0.66503 0.0
H150 H 0.42807 0.02975 0.6629 0.0
H151 H 0.31715 0.95457 0.6981 0.0
Zn152 Zn 0.98645 0.66718 0.12951 0.0
Zn153 Zn 0.86043 0.87208 0.02973 0.0
Zn154 Zn 0.95627 0.77623 0.08312 0.0
C155 C 0.9938 0.77267 -0.00733 0.0
C156 C 0.99431 0.98622 0.097 0.0
O157 O 0.03668 0.84235 0.1503 0.0
O158 O 0.95184 0.74787 0.17777 0.0
C159 C 0.94817 0.56288 0.06086 0.0
O160 O 0.00219 0.72547 0.02688 0.0
O161 O 0.93494 0.84018 -0.01461 0.0
O162 O 0.91315 0.98757 0.06692 0.0
O163 O 0.03345 0.90762 0.10982 0.0
O164 O 0.9037 0.56673 0.09057 0.0
O165 O 0.98606 0.63882 0.05243 0.0
O166 O 0.10675 0.81827 0.12148 0.0
O167 O 0.13217 0.66855 0.12737 0.0
C168 C 0.16634 0.7487 0.12506 0.0
O169 O 0.81096 0.75354 0.09146 0.0
O170 O 0.73032 0.8139 0.02909 0.0
C171 C 0.006 0.81992 0.18314 0.0
C172 C 0.72959 0.77053 0.06289 0.0
Zn173 Zn 0.43345 0.65962 0.32053 0.0
Zn174 Zn 0.66207 0.87669 0.34903 0.0
Zn175 Zn 0.52398 0.79288 0.34207 0.0
C176 C 0.55288 0.00642 0.36623 0.0
C177 C 0.71162 0.73949 0.31622 0.0
O178 O 0.60596 0.65814 0.36024 0.0
O179 O 0.48686 0.5626 0.36152 0.0
C180 C 0.29827 0.78882 0.30449 0.0
O181 O 0.52372 0.93049 0.37815 0.0
O182 O 0.60328 1.00137 0.33911 0.0
O183 O 0.68658 0.81073 0.29451 0.0
O184 O 0.6555 0.71429 0.33896 0.0
O185 O 0.30756 0.71402 0.32426 0.0
O186 O 0.37452 0.82404 0.29742 0.0
O187 O 0.46076 0.81384 0.27342 0.0
O188 O 0.47126 0.66354 0.26096 0.0
C189 C 0.46711 0.74472 0.24669 0.0
O190 O 0.54102 0.84526 0.40869 0.0
O191 O 0.69773 0.82569 0.41575 0.0
C192 C 0.57751 0.57865 0.36943 0.0
C193 C 0.62728 0.82651 0.43345 0.0
Zn194 Zn 0.46778 0.30221 0.56627 0.0
Zn195 Zn 0.67841 0.09576 0.64846 0.0
Zn196 Zn 0.6068 0.20211 0.60229 0.0
C197 C 0.82931 0.20298 0.63875 0.0
C198 C 0.62422 0.99197 0.57725 0.0
O199 O 0.48974 0.16335 0.62807 0.0
O200 O 0.37729 0.26776 0.60265 0.0
C201 C 0.64209 0.41748 0.59741 0.0
O202 O 0.75621 0.25925 0.63443 0.0
O203 O 0.81211 0.11672 0.63787 0.0
O204 O 0.60697 0.98387 0.61424 0.0
O205 O 0.639 0.07422 0.56581 0.0
O206 O 0.55119 0.4202 0.57717 0.0
O207 O 0.67975 0.34068 0.6139 0.0
O208 O 0.59373 0.16451 0.53545 0.0
O209 O 0.45466 0.23717 0.5064 0.0
C210 C 0.52376 0.18513 0.50179 0.0
O211 O 0.68443 0.29276 0.66152 0.0
O212 O 0.64546 0.17871 0.69731 0.0
C213 C 0.40565 0.19808 0.62569 0.0
C214 C 0.66597 0.26451 0.69655 0.0
Zn215 Zn 0.01677 0.25061 0.86879 0.0
Zn216 Zn 0.28847 0.39663 0.94961 0.0
Zn217 Zn 0.11251 0.37162 0.87057 0.0
C218 C 0.10741 0.36513 0.96593 0.0
C219 C 0.20408 0.56322 0.93105 0.0
O220 O 0.03724 0.37133 0.80144 0.0
O221 O 0.04148 0.22017 0.80617 0.0
C222 C 0.16463 0.16367 0.90057 0.0
O223 O 0.07268 0.40595 0.92993 0.0
O224 O 0.19146 0.32746 0.97396 0.0
O225 O 0.28392 0.53482 0.95584 0.0
O226 O 0.14429 0.50698 0.90367 0.0
O227 O 0.09038 0.168 0.91533 0.0
O228 O 0.18537 0.23389 0.88121 0.0
O229 O 0.95549 0.39212 0.82609 0.0
O230 O 0.89381 0.31848 0.87098 0.0
C231 C 0.87993 0.36989 0.8385 0.0
O232 O 0.25085 0.30978 0.85969 0.0
O233 O 0.37977 0.34416 0.91751 0.0
C234 C 0.04443 0.28992 0.78366 0.0
C235 C 0.34483 0.31263 0.87797 0.0
loop_
_geom_bond_atom_site_label_1
_geom_bond_atom_site_label_2
_geom_bond_distance
_geom_bond_site_symmetry_2
_ccdc_geom_bond_type
H0 C1 0.949 . S
C1 H0 0.949 . S
C1 C2 1.395 . S
C1 C3 1.391 . S
C2 C1 1.395 . S
C2 C5 1.390 . S
C3 C1 1.391 . S
C3 C7 1.387 . S
C3 C8 1.491 . S
H4 C5 0.950 . S
C5 C2 1.390 . S
C5 H4 0.950 . S
C5 C6 1.378 . S
C6 C5 1.378 . S
C6 C7 1.409 . S
C7 C3 1.387 . S
C7 C6 1.409 . S
C7 H9 0.951 . S
C8 C3 1.491 . S
C8 C10 1.382 . S
C8 C12 1.404 . S
H9 C7 0.951 . S
C10 C8 1.382 . S
C10 C11 1.390 . S
C10 H15 0.949 . S
C11 C10 1.390 . S
C11 C16 1.399 . S
C12 C8 1.404 . S
C12 H13 0.950 . S
C12 C14 1.375 . S
H13 C12 0.950 . S
C14 C12 1.375 . S
C14 C16 1.382 . S
C14 H18 0.950 . S
H15 C10 0.949 . S
C16 C11 1.399 . S
C16 C14 1.382 . S
C16 H17 0.952 1_545 S
H17 C16 0.952 1_565 S
H18 C14 0.950 . S
H19 C20 0.949 . S
C20 H19 0.949 . S
C20 C21 1.395 . S
C20 C22 1.391 . S
C21 C20 1.395 . S
C21 C24 1.390 . S
C22 C20 1.391 . S
C22 C26 1.387 . S
C22 C27 1.491 . S
H23 C24 0.950 . S
C24 C21 1.390 . S
C24 H23 0.950 . S
C24 C25 1.378 . S
C25 C24 1.378 . S
C25 C26 1.409 . S
C26 C22 1.387 . S
C26 C25 1.409 . S
C26 H28 0.951 . S
C27 C22 1.491 . S
C27 C29 1.382 1_455 S
C27 C31 1.404 . S
H28 C26 0.951 . S
C29 C27 1.382 1_655 S
C29 C30 1.390 . S
C29 H34 0.949 . S
C30 C29 1.390 . S
C30 C35 1.399 . S
C31 C27 1.404 . S
C31 H32 0.950 . S
C31 C33 1.375 1_455 S
H32 C31 0.950 . S
C33 C31 1.375 1_655 S
C33 C35 1.382 . S
C33 H37 0.950 1_565 S
H34 C29 0.949 . S
C35 C30 1.399 . S
C35 C33 1.382 . S
C35 H36 0.952 . S
H36 C35 0.952 . S
H37 C33 0.950 1_545 S
H38 C39 0.949 . S
C39 H38 0.949 . S
C39 C40 1.395 . S
C39 C41 1.391 . S
C40 C39 1.395 . S
C40 C43 1.390 . S
C41 C39 1.391 . S
C41 C45 1.387 . S
C41 C46 1.491 . S
H42 C43 0.950 . S
C43 C40 1.390 . S
C43 H42 0.950 . S
C43 C44 1.378 . S
C44 C43 1.378 . S
C44 C45 1.409 . S
C45 C41 1.387 . S
C45 C44 1.409 . S
C45 H47 0.951 . S
C46 C41 1.491 . S
C46 C48 1.382 . S
C46 C50 1.404 . S
H47 C45 0.951 . S
C48 C46 1.382 . S
C48 C49 1.390 . S
C48 H53 0.949 . S
C49 C48 1.390 . S
C49 C54 1.399 . S
C50 C46 1.404 . S
C50 H51 0.950 . S
C50 C52 1.375 . S
H51 C50 0.950 . S
C52 C50 1.375 . S
C52 C54 1.382 . S
C52 H56 0.950 . S
H53 C48 0.949 . S
C54 C49 1.399 . S
C54 C52 1.382 . S
C54 H55 0.952 . S
H55 C54 0.952 . S
H56 C52 0.950 . S
H57 C58 0.949 . S
C58 H57 0.949 . S
C58 C59 1.395 . S
C58 C60 1.391 . S
C59 C58 1.395 . S
C59 C62 1.390 . S
C60 C58 1.391 . S
C60 C64 1.387 . S
C60 C65 1.491 . S
H61 C62 0.950 . S
C62 C59 1.390 . S
C62 H61 0.950 . S
C62 C63 1.378 . S
C63 C62 1.378 . S
C63 C64 1.409 . S
C64 C60 1.387 . S
C64 C63 1.409 . S
C64 H66 0.951 . S
C65 C60 1.491 . S
C65 C67 1.382 . S
C65 C69 1.404 . S
H66 C64 0.951 . S
C67 C65 1.382 . S
C67 C68 1.390 . S
C67 H72 0.949 . S
C68 C67 1.390 . S
C68 C73 1.399 . S
C69 C65 1.404 . S
C69 H70 0.950 . S
C69 C71 1.375 . S
H70 C69 0.950 . S
C71 C69 1.375 . S
C71 C73 1.382 . S
C71 H75 0.950 . S
H72 C67 0.949 . S
C73 C68 1.399 . S
C73 C71 1.382 . S
C73 H74 0.952 . S
H74 C73 0.952 . S
H75 C71 0.950 . S
H76 C77 0.949 . S
C77 H76 0.949 . S
C77 C78 1.395 . S
C77 C79 1.391 1_455 S
C78 C77 1.395 . S
C78 C81 1.390 . S
C79 C77 1.391 1_655 S
C79 C83 1.387 . S
C79 C84 1.491 . S
H80 C81 0.950 . S
C81 C78 1.390 . S
C81 H80 0.950 . S
C81 C82 1.378 . S
C82 C81 1.378 . S
C82 C83 1.409 1_455 S
C83 C79 1.387 . S
C83 C82 1.409 1_655 S
C83 H85 0.951 . S
C84 C79 1.491 . S
C84 C86 1.382 . S
C84 C88 1.404 . S
H85 C83 0.951 . S
C86 C84 1.382 . S
C86 C87 1.390 . S
C86 H91 0.949 1_655 S
C87 C86 1.390 . S
C87 C92 1.399 . S
C88 C84 1.404 . S
C88 H89 0.950 . S
C88 C90 1.375 . S
H89 C88 0.950 . S
C90 C88 1.375 . S
C90 C92 1.382 . S
C90 H94 0.950 . S
H91 C86 0.949 1_455 S
C92 C87 1.399 . S
C92 C90 1.382 . S
C92 H93 0.952 1_565 S
H93 C92 0.952 1_545 S
H94 C90 0.950 . S
H95 C96 0.949 . S
C96 H95 0.949 . S
C96 C97 1.395 . S
C96 C98 1.391 . S
C97 C96 1.395 . S
C97 C100 1.390 . S
C98 C96 1.391 . S
C98 C102 1.387 . S
C98 C103 1.491 . S
H99 C100 0.950 . S
C100 C97 1.390 . S
C100 H99 0.950 . S
C100 C101 1.378 . S
C101 C100 1.378 . S
C101 C102 1.409 . S
C102 C98 1.387 . S
C102 C101 1.409 . S
C102 H104 0.951 . S
C103 C98 1.491 . S
C103 C105 1.382 . S
C103 C107 1.404 . S
H104 C102 0.951 . S
C105 C103 1.382 . S
C105 C106 1.390 . S
C105 H110 0.949 . S
C106 C105 1.390 . S
C106 C111 1.399 . S
C107 C103 1.404 . S
C107 H108 0.950 . S
C107 C109 1.375 . S
H108 C107 0.950 . S
C109 C107 1.375 . S
C109 C111 1.382 . S
C109 H113 0.950 . S
H110 C105 0.949 . S
C111 C106 1.399 . S
C111 C109 1.382 . S
C111 H112 0.952 . S
H112 C111 0.952 . S
H113 C109 0.950 . S
H114 C115 0.949 . S
C115 H114 0.949 . S
C115 C116 1.395 . S
C115 C117 1.391 . S
C116 C115 1.395 . S
C116 C119 1.390 . S
C117 C115 1.391 . S
C117 C121 1.387 . S
C117 C122 1.491 . S
H118 C119 0.950 . S
C119 C116 1.390 . S
C119 H118 0.950 . S
C119 C120 1.378 . S
C120 C119 1.378 . S
C120 C121 1.409 . S
C121 C117 1.387 . S
C121 C120 1.409 . S
C121 H123 0.951 . S
C122 C117 1.491 . S
C122 C124 1.382 . S
C122 C126 1.404 . S
H123 C121 0.951 . S
C124 C122 1.382 . S
C124 C125 1.390 . S
C124 H129 0.949 . S
C125 C124 1.390 . S
C125 C130 1.399 . S
C126 C122 1.404 . S
C126 H127 0.950 . S
C126 C128 1.375 . S
H127 C126 0.950 . S
C128 C126 1.375 . S
C128 C130 1.382 . S
C128 H132 0.950 . S
H129 C124 0.949 . S
C130 C125 1.399 . S
C130 C128 1.382 . S
C130 H131 0.952 . S
H131 C130 0.952 . S
H132 C128 0.950 . S
H133 C134 0.949 . S
C134 H133 0.949 . S
C134 C135 1.395 . S
C134 C136 1.391 . S
C135 C134 1.395 . S
C135 C138 1.390 1_455 S
C136 C134 1.391 . S
C136 C140 1.387 . S
C136 C141 1.491 . S
H137 C138 0.950 . S
C138 C135 1.390 1_655 S
C138 H137 0.950 . S
C138 C139 1.378 . S
C139 C138 1.378 . S
C139 C140 1.409 1_655 S
C140 C136 1.387 . S
C140 C139 1.409 1_455 S
C140 H142 0.951 1_455 S
C141 C136 1.491 . S
C141 C143 1.382 . S
C141 C145 1.404 . S
H142 C140 0.951 1_655 S
C143 C141 1.382 . S
C143 C144 1.390 . S
C143 H148 0.949 . S
C144 C143 1.390 . S
C144 C149 1.399 . S
C145 C141 1.404 . S
C145 H146 0.950 . S
C145 C147 1.375 . S
H146 C145 0.950 . S
C147 C145 1.375 . S
C147 C149 1.382 . S
C147 H151 0.950 . S
H148 C143 0.949 . S
C149 C144 1.399 . S
C149 C147 1.382 . S
C149 H150 0.952 . S
H150 C149 0.952 . S
H151 C147 0.950 . S
Zn152 O158 1.920 . S
Zn152 O164 1.898 . S
Zn152 O167 1.905 . S
Zn153 O161 1.905 . S
Zn153 O162 1.898 1_655 S
Zn153 O170 1.920 . S
Zn154 O157 2.080 . S
Zn154 O160 2.114 . S
Zn154 O163 2.120 . S
Zn154 O165 2.120 . S
Zn154 O166 2.114 . S
Zn154 O169 2.080 1_455 S
C155 O160 1.166 . S
C155 O161 1.182 1_455 S
C156 O162 1.167 . S
C156 O163 1.299 . S
O157 Zn154 2.080 . S
O157 C171 1.305 . S
O158 Zn152 1.920 . S
O158 C171 1.234 . S
C159 O164 1.167 . S
C159 O165 1.299 . S
O160 Zn154 2.114 . S
O160 C155 1.166 . S
O161 Zn153 1.905 . S
O161 C155 1.182 1_655 S
O162 Zn153 1.898 1_455 S
O162 C156 1.167 . S
O163 Zn154 2.120 . S
O163 C156 1.299 . S
O164 Zn152 1.898 . S
O164 C159 1.167 . S
O165 Zn154 2.120 . S
O165 C159 1.299 . S
O166 Zn154 2.114 . S
O166 C168 1.166 . S
O167 Zn152 1.905 . S
O167 C168 1.182 . S
C168 O166 1.166 . S
C168 O167 1.182 . S
O169 Zn154 2.080 1_655 S
O169 C172 1.305 . S
O170 Zn153 1.920 . S
O170 C172 1.234 . S
C171 O157 1.305 . S
C171 O158 1.234 . S
C172 O169 1.305 . S
C172 O170 1.234 . S
Zn173 O179 1.920 . S
Zn173 O185 1.898 . S
Zn173 O188 1.905 . S
Zn174 O182 1.905 1_565 S
Zn174 O183 1.898 . S
Zn174 O191 1.920 . S
Zn175 O178 2.080 . S
Zn175 O181 2.114 . S
Zn175 O184 2.120 . S
Zn175 O186 2.120 . S
Zn175 O187 2.114 . S
Zn175 O190 2.080 . S
C176 O181 1.166 . S
C176 O182 1.182 1_565 S
C177 O183 1.167 . S
C177 O184 1.299 . S
O178 Zn175 2.080 . S
O178 C192 1.305 . S
O179 Zn173 1.920 . S
O179 C192 1.234 . S
C180 O185 1.167 . S
C180 O186 1.299 . S
O181 Zn175 2.114 . S
O181 C176 1.166 . S
O182 Zn174 1.905 1_545 S
O182 C176 1.182 1_545 S
O183 Zn174 1.898 . S
O183 C177 1.167 . S
O184 Zn175 2.120 . S
O184 C177 1.299 . S
O185 Zn173 1.898 . S
O185 C180 1.167 . S
O186 Zn175 2.120 . S
O186 C180 1.299 . S
O187 Zn175 2.114 . S
O187 C189 1.166 . S
O188 Zn173 1.905 . S
O188 C189 1.182 . S
C189 O187 1.166 . S
C189 O188 1.182 . S
O190 Zn175 2.080 . S
O190 C193 1.305 . S
O191 Zn174 1.920 . S
O191 C193 1.234 . S
C192 O178 1.305 . S
C192 O179 1.234 . S
C193 O190 1.305 . S
C193 O191 1.234 . S
Zn194 O200 1.920 . S
Zn194 O206 1.898 . S
Zn194 O209 1.905 . S
Zn195 O203 1.905 . S
Zn195 O204 1.898 1_545 S
Zn195 O212 1.920 . S
Zn196 O199 2.080 . S
Zn196 O202 2.114 . S
Zn196 O205 2.120 . S
Zn196 O207 2.120 . S
Zn196 O208 2.114 . S
Zn196 O211 2.080 . S
C197 O202 1.166 . S
C197 O203 1.182 . S
C198 O204 1.167 . S
C198 O205 1.299 1_565 S
O199 Zn196 2.080 . S
O199 C213 1.305 . S
O200 Zn194 1.920 . S
O200 C213 1.234 . S
C201 O206 1.167 . S
C201 O207 1.299 . S
O202 Zn196 2.114 . S
O202 C197 1.166 . S
O203 Zn195 1.905 . S
O203 C197 1.182 . S
O204 Zn195 1.898 1_565 S
O204 C198 1.167 . S
O205 Zn196 2.120 . S
O205 C198 1.299 1_545 S
O206 Zn194 1.898 . S
O206 C201 1.167 . S
O207 Zn196 2.120 . S
O207 C201 1.299 . S
O208 Zn196 2.114 . S
O208 C210 1.166 . S
O209 Zn194 1.905 . S
O209 C210 1.182 . S
C210 O208 1.166 . S
C210 O209 1.182 . S
O211 Zn196 2.080 . S
O211 C214 1.305 . S
O212 Zn195 1.920 . S
O212 C214 1.234 . S
C213 O199 1.305 . S
C213 O200 1.234 . S
C214 O211 1.305 . S
C214 O212 1.234 . S
Zn215 O221 1.920 . S
Zn215 O227 1.898 . S
Zn215 O230 1.905 . S
Zn216 O224 1.905 . S
Zn216 O225 1.898 . S
Zn216 O233 1.920 . S
Zn217 O220 2.080 . S
Zn217 O223 2.114 . S
Zn217 O226 2.120 . S
Zn217 O228 2.120 . S
Zn217 O229 2.114 1_455 S
Zn217 O232 2.080 . S
C218 O223 1.166 . S
C218 O224 1.182 . S
C219 O225 1.167 . S
C219 O226 1.299 . S
O220 Zn217 2.080 . S
O220 C234 1.305 . S
O221 Zn215 1.920 . S
O221 C234 1.234 1_655 S
C222 O227 1.167 1_455 S
C222 O228 1.299 . S
O223 Zn217 2.114 . S
O223 C218 1.166 . S
O224 Zn216 1.905 . S
O224 C218 1.182 . S
O225 Zn216 1.898 . S
O225 C219 1.167 . S
O226 Zn217 2.120 . S
O226 C219 1.299 . S
O227 Zn215 1.898 . S
O227 C222 1.167 1_655 S
O228 Zn217 2.120 . S
O228 C222 1.299 . S
O229 Zn217 2.114 1_655 S
O229 C231 1.166 . S
O230 Zn215 1.905 . S
O230 C231 1.182 . S
C231 O229 1.166 . S
C231 O230 1.182 . S
O232 Zn217 2.080 . S
O232 C235 1.305 . S
O233 Zn216 1.920 . S
O233 C235 1.234 . S
C234 O220 1.305 . S
C234 O221 1.234 1_455 S
C235 O232 1.305 . S
C235 O233 1.234 . S
C159 C6 1.398 . S
C177 C30 1.204 . S
C49 C201 1.471 . S
C231 C63 1.193 . S
C219 C82 1.369 . S
C106 C172 1.245 . S
C125 C192 1.478 . S
C139 C197 1.282 . S
C144 C213 1.239 . S
C101 C168 1.273 . S
C235 C68 1.237 . S
C180 C25 1.176 . S
C44 C198 1.378 . S
C11 C156 1.464 1_545 S
C176 C120 1.363 1_565 S
C222 C87 1.466 1_445 S
C218 C2 1.345 1_556 S
C171 C21 1.904 . S
C40 C193 1.305 . S
C59 C214 1.895 . S
C155 C78 1.365 1_554 S
C97 C189 1.627 . S
C210 C116 1.388 . S
C234 C135 1.590 . S
