# Generated by pormake.
# Topology tsx, (6,3)-cn, num edge types: 1
# Building blocks:
#     Node 0, Type 0, BuildingBlock: MIDCAF_clean_sbu_0, # of connection points: 6
#     Node 1, Type 0, BuildingBlock: MIDCAF_clean_sbu_0, # of connection points: 6
#     Node 2, Type 1, BuildingBlock: BETDAH_clean_linker_0, # of connection points: 3
#     Node 3, Type 1, BuildingBlock: BETDAH_clean_linker_0, # of connection points: 3
#     Node 4, Type 1, BuildingBlock: BETDAH_clean_linker_0, # of connection points: 3
#     Node 5, Type 1, BuildingBlock: BETDAH_clean_linker_0, # of connection points: 3
#     Edge 6, Type (0, 1), BuildingBlock: EYOCIG_clean_linker_4, # of connection points: 2
#     Edge 7, Type (0, 1), BuildingBlock: EYOCIG_clean_linker_4, # of connection points: 2
#     Edge 8, Type (0, 1), BuildingBlock: EYOCIG_clean_linker_4, # of connection points: 2
#     Edge 9, Type (0, 1), BuildingBlock: EYOCIG_clean_linker_4, # of connection points: 2
#     Edge 10, Type (0, 1), BuildingBlock: EYOCIG_clean_linker_4, # of connection points: 2
#     Edge 11, Type (0, 1), BuildingBlock: EYOCIG_clean_linker_4, # of connection points: 2
#     Edge 12, Type (0, 1), BuildingBlock: EYOCIG_clean_linker_4, # of connection points: 2
#     Edge 13, Type (0, 1), BuildingBlock: EYOCIG_clean_linker_4, # of connection points: 2
#     Edge 14, Type (0, 1), BuildingBlock: EYOCIG_clean_linker_4, # of connection points: 2
#     Edge 15, Type (0, 1), BuildingBlock: EYOCIG_clean_linker_4, # of connection points: 2
#     Edge 16, Type (0, 1), BuildingBlock: EYOCIG_clean_linker_4, # of connection points: 2
#     Edge 17, Type (0, 1), BuildingBlock: EYOCIG_clean_linker_4, # of connection points: 2
# Relax obj value: 0.078
# Max RMSD: 0.147
# Mean RMSD: 0.106
data_MOF--net-tsx--node1-MIDCAF_clean_sbu_0--node2-BETDAH_clean_linker_0--edge1-EYOCIG_clean_linker_4
_symmetry_space_group_name_H-M    P1
_symmetry_Int_Tables_number       1
_symmetry_cell_setting            triclinic
loop_
_symmetry_equiv_pos_as_xyz
'x, y, z'
_cell_length_a     15.930864
_cell_length_b     16.922946
_cell_length_c     28.097038
_cell_angle_alpha  90.415451
_cell_angle_beta   103.32548
_cell_angle_gamma 89.852125
loop_
_atom_site_label
_atom_site_type_symbol
_atom_site_fract_x
_atom_site_fract_y
_atom_site_fract_z
_atom_type_partial_charge
Zn0 Zn 0.90149 0.98475 0.93613 0.0
Zn1 Zn 0.21118 -0.00699 0.05789 0.0
Zn2 Zn 0.05652 -0.00423 -0.003 0.0
C3 C 0.17133 0.14889 0.02592 0.0
C4 C 0.21998 0.89316 0.98089 0.0
O5 O 0.97122 0.92382 0.03126 0.0
O6 O 0.85709 0.89811 0.97131 0.0
C7 C 0.9325 0.14316 0.96636 0.0
O8 O 0.09606 0.11944 0.00884 0.0
O9 O 0.23447 0.1054 0.04494 0.0
O10 O 0.26113 0.90712 0.02414 0.0
O11 O 0.14614 0.92567 0.96366 0.0
O12 O 0.87177 0.09658 0.94786 0.0
O13 O 0.00934 0.11726 0.9836 0.0
O14 O 0.07547 0.94661 0.92732 0.0
O15 O 0.94757 0.96398 0.87706 0.0
C16 C 0.02647 0.94662 0.88393 0.0
O17 O 0.04062 0.94849 0.06745 0.0
O18 O 0.16738 0.97241 0.1175 0.0
C19 C 0.89927 0.88773 0.01467 0.0
C20 C 0.08954 0.95171 0.11083 0.0
Zn21 Zn 0.70395 0.48446 0.55883 0.0
Zn22 Zn 0.39796 0.48535 0.43659 0.0
Zn23 Zn 0.55131 0.49161 0.49765 0.0
C24 C 0.52218 0.44574 0.38436 0.0
C25 C 0.43165 0.64233 0.46862 0.0
O26 O 0.53164 0.44351 0.56706 0.0
O27 O 0.6581 0.46534 0.61788 0.0
C28 C 0.71299 0.38555 0.48178 0.0
O29 O 0.57058 0.44314 0.42787 0.0
O30 O 0.44401 0.46569 0.37745 0.0
O31 O 0.37 0.59708 0.44957 0.0
O32 O 0.50791 0.61479 0.48562 0.0
O33 O 0.75295 0.39745 0.5255 0.0
O34 O 0.64046 0.42022 0.4642 0.0
O35 O 0.59494 0.61465 0.5107 0.0
O36 O 0.73259 0.59591 0.54684 0.0
C37 C 0.67138 0.6416 0.52803 0.0
O38 O 0.4626 0.41971 0.53039 0.0
O39 O 0.34929 0.39821 0.46921 0.0
C40 C 0.57978 0.44602 0.61067 0.0
C41 C 0.38993 0.38534 0.51258 0.0
H42 H 0.18559 0.8909 0.34333 0.0
H43 H 0.99745 0.07311 0.34557 0.0
H44 H 0.18619 0.01524 0.47727 0.0
C45 C 0.15779 0.93521 0.36327 0.0
C46 C 0.19338 0.94761 0.41306 0.0
C47 C 0.0873 0.98021 0.33889 0.0
C48 C 0.05127 0.03761 0.36467 0.0
C49 C 0.08739 0.05048 0.41486 0.0
C50 C 0.15856 0.00545 0.43864 0.0
N51 N 0.05608 0.10909 0.4427 0.0
C52 C 0.97952 0.15112 0.42805 0.0
H53 H 0.92531 0.88848 0.65319 0.0
H54 H 0.12026 0.0618 0.648 0.0
H55 H 0.92736 0.00349 0.51766 0.0
C56 C 0.95428 0.93032 0.63262 0.0
C57 C 0.91829 0.94102 0.58282 0.0
C58 C 0.02701 0.97356 0.65615 0.0
C59 C 0.06453 0.0278 0.62957 0.0
C60 C 0.02813 0.03884 0.57932 0.0
C61 C 0.95505 -0.00471 0.55635 0.0
N62 N 0.06172 0.09336 0.55042 0.0
C63 C 0.13551 0.13901 0.56577 0.0
H64 H 0.67991 0.38956 0.84142 0.0
H65 H 0.4938 0.57266 0.84587 0.0
H66 H 0.68747 0.51551 0.97565 0.0
C67 C 0.65344 0.43427 0.86172 0.0
C68 C 0.69126 0.44721 0.91118 0.0
C69 C 0.58234 0.47924 0.83813 0.0
C70 C 0.54812 0.53721 0.86438 0.0
C71 C 0.58655 0.55052 0.91427 0.0
C72 C 0.65813 0.50542 0.93725 0.0
N73 N 0.55692 0.60939 0.94262 0.0
C74 C 0.48171 0.65327 0.9281 0.0
H75 H 0.41742 0.39324 0.15298 0.0
H76 H 0.61701 0.56262 0.14964 0.0
H77 H 0.42249 0.51111 0.01877 0.0
C78 C 0.4474 0.43507 0.13292 0.0
C79 C 0.41177 0.44765 0.08326 0.0
C80 C 0.52133 0.47629 0.15689 0.0
C81 C 0.56025 0.53027 0.13088 0.0
C82 C 0.52407 0.54308 0.08077 0.0
C83 C 0.44985 0.50167 0.05739 0.0
N84 N 0.5593 0.59713 0.05239 0.0
C85 C 0.63452 0.64034 0.06851 0.0
C86 C 0.21976 0.29611 0.02985 0.0
C87 C 0.18631 0.23204 0.02484 0.0
C88 C 0.27814 0.35914 0.04285 0.0
C89 C 0.33868 0.40166 0.05869 0.0
C90 C 0.29949 0.79359 0.93397 0.0
C91 C 0.25705 0.83959 0.95157 0.0
C92 C 0.3599 0.73945 0.92287 0.0
C93 C 0.41877 0.69498 0.92202 0.0
C94 C 0.81662 0.78046 0.06547 0.0
C95 C 0.86533 0.83475 0.04512 0.0
C96 C 0.76592 0.73394 0.07502 0.0
C97 C 0.69782 0.6815 0.07624 0.0
C98 C 0.87826 0.28929 0.96218 0.0
C99 C 0.91306 0.22572 0.96691 0.0
C100 C 0.82084 0.35332 0.95011 0.0
C101 C 0.76239 0.39847 0.93505 0.0
C102 C 0.72613 0.78729 0.5319 0.0
C103 C 0.69024 0.72421 0.52706 0.0
C104 C 0.78551 0.84998 0.54403 0.0
C105 C 0.84559 0.8936 0.55903 0.0
C106 C 0.7939 0.2874 0.43463 0.0
C107 C 0.75076 0.33292 0.45216 0.0
C108 C 0.85548 0.23448 0.42339 0.0
C109 C 0.91542 0.19137 0.42224 0.0
C110 C 0.31171 0.28411 0.55836 0.0
C111 C 0.3535 0.33101 0.54136 0.0
C112 C 0.26296 0.2367 0.56921 0.0
C113 C 0.19715 0.18234 0.57217 0.0
C114 C 0.37931 0.78903 0.46528 0.0
C115 C 0.41376 0.72523 0.46982 0.0
C116 C 0.3221 0.85331 0.45307 0.0
C117 C 0.26397 0.8987 0.43765 0.0
C118 C 0.04064 0.94318 0.1936 0.0
C119 C 0.05383 0.94415 0.15304 0.0
C120 C 0.04186 0.95503 0.24357 0.0
C121 C 0.05776 0.9703 0.28672 0.0
C122 C 0.07608 0.93863 0.80129 0.0
C123 C 0.06272 0.93976 0.84181 0.0
C124 C 0.07452 0.95002 0.75134 0.0
C125 C 0.05813 0.96456 0.70821 0.0
C126 C 0.52992 0.43939 0.69312 0.0
C127 C 0.54297 0.43942 0.65253 0.0
C128 C 0.53249 0.45243 0.74314 0.0
C129 C 0.55021 0.4686 0.78618 0.0
C130 C 0.57149 0.43757 0.30171 0.0
C131 C 0.55855 0.43831 0.34233 0.0
C132 C 0.56931 0.44977 0.25177 0.0
C133 C 0.55258 0.46542 0.2088 0.0
loop_
_geom_bond_atom_site_label_1
_geom_bond_atom_site_label_2
_geom_bond_distance
_geom_bond_site_symmetry_2
_ccdc_geom_bond_type
Zn0 O6 1.920 1_545 S
Zn0 O12 1.898 . S
Zn0 O15 1.905 1_545 S
Zn1 O9 1.905 . S
Zn1 O10 1.898 1_545 S
Zn1 O18 1.920 1_545 S
Zn2 O5 2.081 1_444 S
Zn2 O8 2.114 . S
Zn2 O11 2.120 1_545 S
Zn2 O13 2.120 1_455 S
Zn2 O14 2.114 1_554 S
Zn2 O17 2.080 . S
C3 O8 1.166 . S
C3 O9 1.182 . S
C4 O10 1.167 . S
C4 O11 1.299 . S
O5 Zn2 2.081 1_666 S
O5 C19 1.304 . S
O6 Zn0 1.920 1_565 S
O6 C19 1.237 . S
C7 O12 1.167 . S
C7 O13 1.299 1_556 S
O8 Zn2 2.114 . S
O8 C3 1.166 . S
O9 Zn1 1.905 . S
O9 C3 1.182 . S
O10 Zn1 1.898 1_565 S
O10 C4 1.167 . S
O11 Zn2 2.120 1_565 S
O11 C4 1.299 . S
O12 Zn0 1.898 . S
O12 C7 1.167 . S
O13 Zn2 2.120 1_655 S
O13 C7 1.299 1_554 S
O14 Zn2 2.114 1_556 S
O14 C16 1.166 1_445 S
O15 Zn0 1.905 1_565 S
O15 C16 1.182 . S
C16 O14 1.166 1_665 S
C16 O15 1.182 . S
O17 Zn2 2.080 . S
O17 C20 1.305 1_545 S
O18 Zn1 1.920 1_565 S
O18 C20 1.234 . S
C19 O5 1.304 . S
C19 O6 1.237 . S
C20 O17 1.305 1_565 S
C20 O18 1.234 . S
Zn21 O27 1.920 . S
Zn21 O33 1.898 . S
Zn21 O36 1.905 . S
Zn22 O30 1.905 . S
Zn22 O31 1.898 . S
Zn22 O39 1.920 . S
Zn23 O26 2.080 . S
Zn23 O29 2.114 . S
Zn23 O32 2.120 . S
Zn23 O34 2.120 . S
Zn23 O35 2.114 . S
Zn23 O38 2.080 . S
C24 O29 1.166 . S
C24 O30 1.182 . S
C25 O31 1.167 . S
C25 O32 1.299 . S
O26 Zn23 2.080 . S
O26 C40 1.305 . S
O27 Zn21 1.920 . S
O27 C40 1.234 . S
C28 O33 1.167 . S
C28 O34 1.299 . S
O29 Zn23 2.114 . S
O29 C24 1.166 . S
O30 Zn22 1.905 . S
O30 C24 1.182 . S
O31 Zn22 1.898 . S
O31 C25 1.167 . S
O32 Zn23 2.120 . S
O32 C25 1.299 . S
O33 Zn21 1.898 . S
O33 C28 1.167 . S
O34 Zn23 2.120 . S
O34 C28 1.299 . S
O35 Zn23 2.114 . S
O35 C37 1.166 . S
O36 Zn21 1.905 . S
O36 C37 1.182 . S
C37 O35 1.166 . S
C37 O36 1.182 . S
O38 Zn23 2.080 . S
O38 C41 1.305 . S
O39 Zn22 1.920 . S
O39 C41 1.234 . S
C40 O26 1.305 . S
C40 O27 1.234 . S
C41 O38 1.305 . S
C41 O39 1.234 . S
H42 C45 0.929 . S
H43 C48 0.929 . S
H44 C50 0.930 . S
C45 H42 0.929 . S
C45 C46 1.398 . S
C45 C47 1.396 1_565 S
C46 C45 1.398 . S
C46 C50 1.407 . S
C47 C45 1.396 1_545 S
C47 C48 1.394 . S
C48 H43 0.929 . S
C48 C47 1.394 . S
C48 C49 1.382 . S
C49 C48 1.382 . S
C49 C50 1.392 1_545 S
C49 N51 1.420 . S
C50 H44 0.930 . S
C50 C46 1.407 . S
C50 C49 1.392 1_565 S
N51 C49 1.420 . S
N51 C52 1.244 1_455 S
C52 N51 1.244 1_655 S
H53 C56 0.929 . S
H54 C59 0.929 . S
H55 C61 0.930 . S
C56 H53 0.929 . S
C56 C57 1.398 . S
C56 C58 1.396 1_565 S
C57 C56 1.398 . S
C57 C61 1.407 . S
C58 C56 1.396 1_545 S
C58 C59 1.394 1_655 S
C59 H54 0.929 . S
C59 C58 1.394 1_455 S
C59 C60 1.382 . S
C60 C59 1.382 . S
C60 C61 1.392 1_445 S
C60 N62 1.420 . S
C61 H55 0.930 . S
C61 C57 1.407 . S
C61 C60 1.392 1_665 S
N62 C60 1.420 . S
N62 C63 1.244 . S
C63 N62 1.244 . S
H64 C67 0.929 . S
H65 C70 0.929 . S
H66 C72 0.930 . S
C67 H64 0.929 . S
C67 C68 1.398 . S
C67 C69 1.396 . S
C68 C67 1.398 . S
C68 C72 1.407 . S
C69 C67 1.396 . S
C69 C70 1.394 . S
C70 H65 0.929 . S
C70 C69 1.394 . S
C70 C71 1.382 . S
C71 C70 1.382 . S
C71 C72 1.392 . S
C71 N73 1.420 . S
C72 H66 0.930 . S
C72 C68 1.407 . S
C72 C71 1.392 . S
N73 C71 1.420 . S
N73 C74 1.244 . S
C74 N73 1.244 . S
H75 C78 0.929 . S
H76 C81 0.929 . S
H77 C83 0.930 . S
C78 H75 0.929 . S
C78 C79 1.398 . S
C78 C80 1.396 . S
C79 C78 1.398 . S
C79 C83 1.407 . S
C80 C78 1.396 . S
C80 C81 1.394 . S
C81 H76 0.929 . S
C81 C80 1.394 . S
C81 C82 1.382 . S
C82 C81 1.382 . S
C82 C83 1.392 . S
C82 N84 1.420 . S
C83 H77 0.930 . S
C83 C79 1.407 . S
C83 C82 1.392 . S
N84 C82 1.420 . S
N84 C85 1.244 . S
C85 N84 1.244 . S
C86 C87 1.170 . S
C86 C88 1.380 . S
C87 C86 1.170 . S
C88 C86 1.380 . S
C88 C89 1.170 . S
C89 C88 1.170 . S
C90 C91 1.170 . S
C90 C92 1.380 . S
C91 C90 1.170 . S
C92 C90 1.380 . S
C92 C93 1.170 . S
C93 C92 1.170 . S
C94 C95 1.170 . S
C94 C96 1.380 . S
C95 C94 1.170 . S
C96 C94 1.380 . S
C96 C97 1.170 . S
C97 C96 1.170 . S
C98 C99 1.170 . S
C98 C100 1.380 . S
C99 C98 1.170 . S
C100 C98 1.380 . S
C100 C101 1.170 . S
C101 C100 1.170 . S
C102 C103 1.170 . S
C102 C104 1.380 . S
C103 C102 1.170 . S
C104 C102 1.380 . S
C104 C105 1.170 . S
C105 C104 1.170 . S
C106 C107 1.170 . S
C106 C108 1.380 . S
C107 C106 1.170 . S
C108 C106 1.380 . S
C108 C109 1.170 . S
C109 C108 1.170 . S
C110 C111 1.170 . S
C110 C112 1.380 . S
C111 C110 1.170 . S
C112 C110 1.380 . S
C112 C113 1.170 . S
C113 C112 1.170 . S
C114 C115 1.170 . S
C114 C116 1.380 . S
C115 C114 1.170 . S
C116 C114 1.380 . S
C116 C117 1.170 . S
C117 C116 1.170 . S
C118 C119 1.170 . S
C118 C120 1.380 1_565 S
C119 C118 1.170 . S
C120 C118 1.380 1_545 S
C120 C121 1.170 . S
C121 C120 1.170 . S
C122 C123 1.170 . S
C122 C124 1.378 1_565 S
C123 C122 1.170 . S
C124 C122 1.378 1_545 S
C124 C125 1.173 . S
C125 C124 1.173 . S
C126 C127 1.170 . S
C126 C128 1.380 . S
C127 C126 1.170 . S
C128 C126 1.380 . S
C128 C129 1.170 . S
C129 C128 1.170 . S
C130 C131 1.170 . S
C130 C132 1.380 . S
C131 C130 1.170 . S
C132 C130 1.380 . S
C132 C133 1.170 . S
C133 C132 1.170 . S
C89 C79 1.362 . S
C87 C3 1.247 . S
C91 C4 1.447 1_556 S
C93 C74 1.527 . S
C95 C19 1.460 1_554 S
C97 C85 1.543 . S
C99 C7 1.230 . S
C101 C68 1.360 . S
C103 C37 1.240 . S
C105 C57 1.359 . S
C107 C28 1.423 . S
C109 C52 1.533 . S
C113 C63 1.519 . S
C111 C41 1.467 . S
C117 C46 1.361 . S
C115 C25 1.236 . S
C119 C20 1.397 . S
C121 C47 1.514 . S
C123 C16 1.436 1_455 S
C125 C58 1.539 1_455 S
C129 C69 1.496 . S
C127 C40 1.388 . S
C131 C24 1.436 . S
C133 C80 1.539 . S
