# Generated by pormake.
# Topology pyr, (3,6)-cn, num edge types: 1
# Building blocks:
#     Node 0, Type 0, BuildingBlock: ESEHIV_clean_linker_0, # of connection points: 3
#     Node 1, Type 0, BuildingBlock: ESEHIV_clean_linker_0, # of connection points: 3
#     Node 2, Type 0, BuildingBlock: ESEHIV_clean_linker_0, # of connection points: 3
#     Node 3, Type 0, BuildingBlock: ESEHIV_clean_linker_0, # of connection points: 3
#     Node 4, Type 0, BuildingBlock: ESEHIV_clean_linker_0, # of connection points: 3
#     Node 5, Type 0, BuildingBlock: ESEHIV_clean_linker_0, # of connection points: 3
#     Node 6, Type 0, BuildingBlock: ESEHIV_clean_linker_0, # of connection points: 3
#     Node 7, Type 0, BuildingBlock: ESEHIV_clean_linker_0, # of connection points: 3
#     Node 8, Type 1, BuildingBlock: FUNLAD_clean_sbu_0, # of connection points: 6
#     Node 9, Type 1, BuildingBlock: FUNLAD_clean_sbu_0, # of connection points: 6
#     Node 10, Type 1, BuildingBlock: FUNLAD_clean_sbu_0, # of connection points: 6
#     Node 11, Type 1, BuildingBlock: FUNLAD_clean_sbu_0, # of connection points: 6
#     Edge 12, Type (0, 1), None
#     Edge 13, Type (0, 1), None
#     Edge 14, Type (0, 1), None
#     Edge 15, Type (0, 1), None
#     Edge 16, Type (0, 1), None
#     Edge 17, Type (0, 1), None
#     Edge 18, Type (0, 1), None
#     Edge 19, Type (0, 1), None
#     Edge 20, Type (0, 1), None
#     Edge 21, Type (0, 1), None
#     Edge 22, Type (0, 1), None
#     Edge 23, Type (0, 1), None
#     Edge 24, Type (0, 1), None
#     Edge 25, Type (0, 1), None
#     Edge 26, Type (0, 1), None
#     Edge 27, Type (0, 1), None
#     Edge 28, Type (0, 1), None
#     Edge 29, Type (0, 1), None
#     Edge 30, Type (0, 1), None
#     Edge 31, Type (0, 1), None
#     Edge 32, Type (0, 1), None
#     Edge 33, Type (0, 1), None
#     Edge 34, Type (0, 1), None
#     Edge 35, Type (0, 1), None
# Relax obj value: 0.415
# Max RMSD: 0.133
# Mean RMSD: 0.074
data_MOF--net-pry--node1-FUNLAD_clean_sbu_0--node2-ESEHIV_clean_linker_0--edge1-none
_symmetry_space_group_name_H-M    P1
_symmetry_Int_Tables_number       1
_symmetry_cell_setting            triclinic
loop_
_symmetry_equiv_pos_as_xyz
'x, y, z'
_cell_length_a     15.42716
_cell_length_b     15.068401
_cell_length_c     14.479875
_cell_angle_alpha  89.6369
_cell_angle_beta   90.17136
_cell_angle_gamma 77.073097
loop_
_atom_site_label
_atom_site_type_symbol
_atom_site_fract_x
_atom_site_fract_y
_atom_site_fract_z
_atom_type_partial_charge
H0 H -0.03429 0.30804 0.35157 0.0
H1 H 0.18455 1.07098 0.33449 0.0
H2 H 0.16709 0.29594 0.14453 0.0
C3 C 0.0269 0.27185 0.3201 0.0
C4 C 0.06124 0.31255 0.24216 0.0
C5 C 0.06906 0.18223 0.3542 0.0
C6 C 0.14971 0.13732 0.30949 0.0
C7 C 0.18712 0.17903 0.23478 0.0
C8 C 0.14033 0.26447 0.20217 0.0
H9 H 0.21399 0.08511 0.83421 0.0
H10 H 0.43518 0.84991 0.85146 0.0
H11 H 0.232 0.86226 0.64464 0.0
C12 C 0.2493 1.01933 0.80932 0.0
C13 C 0.21176 0.97794 0.73491 0.0
C14 C 0.33061 0.97491 0.85398 0.0
C15 C 0.37348 0.88584 0.8199 0.0
C16 C 0.33897 0.84545 0.74191 0.0
C17 C 0.25903 0.89329 0.70217 0.0
H18 H 0.72163 0.38808 0.16681 0.0
H19 H 0.67174 0.64077 1.01567 0.0
H20 H 0.46376 0.50439 1.06057 0.0
C21 C 0.67419 0.44572 0.13792 0.0
C22 C 0.58579 0.44112 0.12252 0.0
C23 C 0.70094 0.52474 0.10832 0.0
C24 C 0.64524 0.59013 1.05314 0.0
C25 C 0.5626 0.57624 1.02927 0.0
C26 C 0.52892 0.514 1.08023 0.0
H27 H 0.67702 0.7664 0.66814 0.0
H28 H 0.93349 0.65516 0.55885 0.0
H29 H 0.72841 0.51282 0.52226 0.0
C30 C 0.72474 0.70931 0.63971 0.0
C31 C 0.69906 0.62923 0.61269 0.0
C32 C 0.81209 0.71583 0.62217 0.0
C33 C 0.86923 0.64406 0.57985 0.0
C34 C 0.83606 0.57989 0.53192 0.0
C35 C 0.75468 0.5643 0.55809 0.0
H36 H 0.71356 0.08738 0.8785 0.0
H37 H 0.93246 0.85036 0.86154 0.0
H38 H 0.7311 0.86253 1.06862 0.0
C39 C 0.74843 1.02106 0.90354 0.0
C40 C 0.71103 0.97937 0.97828 0.0
C41 C 0.82909 0.97615 0.85885 0.0
C42 C 0.87127 0.88655 0.893 0.0
C43 C 0.83695 0.84589 0.97099 0.0
C44 C 0.75785 0.89398 1.01096 0.0
H45 H 0.46299 0.3085 0.36139 0.0
H46 H 0.68411 1.07326 0.37879 0.0
H47 H 0.66617 0.29624 0.56818 0.0
C48 C 0.52468 0.27258 0.39296 0.0
C49 C 0.55921 0.31301 0.47091 0.0
C50 C 0.56753 0.18348 0.35895 0.0
C51 C 0.64882 0.13906 0.40364 0.0
C52 C 0.68638 0.18048 0.47801 0.0
C53 C 0.63913 0.26518 0.51068 0.0
H54 H 0.17647 0.77047 1.04662 0.0
H55 H 0.2267 0.51745 0.19715 0.0
H56 H 0.43472 0.65355 0.15146 0.0
C57 C 0.22398 0.71272 1.0752 0.0
C58 C 0.31247 0.71716 1.09022 0.0
C59 C 0.19726 0.63368 0.10477 0.0
C60 C 0.25313 0.56812 0.15963 0.0
C61 C 0.33587 0.58193 0.18325 0.0
C62 C 0.36947 0.64404 0.13203 0.0
H63 H -0.0351 0.50281 0.65483 0.0
H64 H 0.22104 0.39213 0.54436 0.0
H65 H 0.16987 0.64532 0.69098 0.0
C66 C 0.02908 0.51395 0.63363 0.0
C67 C 0.06227 0.57821 0.68141 0.0
C68 C 0.0861 0.44244 0.5908 0.0
C69 C 0.17338 0.4491 0.57307 0.0
C70 C 0.19908 0.52914 0.60022 0.0
C71 C 0.14358 0.59388 0.6551 0.0
C72 C 0.03031 0.13664 0.43653 0.0
N73 N 0.93765 0.26992 0.68613 0.0
C74 C 0.0142 0.27449 0.7305 0.0
C75 C 0.07704 0.31316 0.68601 0.0
C76 C 0.05561 0.35798 0.60073 0.0
C77 C -0.02826 0.35957 0.56166 0.0
C78 C 0.91053 0.32312 0.6107 0.0
Zn79 Zn 0.94081 0.14113 0.64643 0.0
C80 C 0.77603 0.14047 0.52272 0.0
N81 N -0.03962 0.88854 0.52665 0.0
C82 C -0.01248 0.83544 0.60214 0.0
C83 C 0.88391 0.88377 0.48223 0.0
C84 C 0.82115 0.84496 0.52669 0.0
C85 C 0.84258 0.80028 0.61203 0.0
C86 C 0.92638 0.79886 0.65115 0.0
Zn87 Zn -0.0427 1.01726 0.56655 0.0
O88 O 0.0051 0.18017 0.51079 0.0
C89 C 0.1221 1.01793 0.69024 0.0
O90 O 0.02126 1.05434 0.4351 0.0
H91 H 0.86721 0.91871 0.41688 0.0
H92 H 0.03083 0.23957 0.79587 0.0
H93 H 0.05222 0.8313 0.63241 0.0
O94 O 0.07411 0.094 0.7134 0.0
O95 O 0.09042 0.97356 0.62904 0.0
H96 H 0.8458 0.32733 0.58044 0.0
O97 O 0.89306 0.97818 0.70225 0.0
O98 O 0.87681 0.10407 0.77787 0.0
O99 O 0.82398 1.06435 0.49962 0.0
O100 O 0.80773 0.18486 0.58388 0.0
C101 C 0.86782 1.02174 0.77648 0.0
H102 H 0.13742 0.31717 0.72265 0.0
H103 H -0.05009 0.39777 0.49933 0.0
H104 H 0.76081 0.84083 0.49003 0.0
H105 H -0.05173 0.76071 0.71349 0.0
C106 C 0.62194 1.01933 1.02329 0.0
N107 N 0.43565 0.27087 1.02521 0.0
C108 C 0.51234 0.27577 0.98176 0.0
C109 C 0.57543 0.31325 1.02721 0.0
C110 C 0.55384 0.35752 0.11202 0.0
C111 C 0.46942 0.35979 0.14968 0.0
C112 C 0.40827 0.32373 1.09998 0.0
Zn113 Zn 0.44022 0.14145 1.0661 0.0
C114 C 0.36886 1.0208 0.93626 0.0
N115 N 0.46238 0.88758 0.18801 0.0
C116 C 0.48985 0.83483 0.11319 0.0
C117 C 0.38574 0.88246 0.23143 0.0
C118 C 0.32277 0.84483 0.18593 0.0
C119 C 0.34443 0.80072 1.10106 0.0
C120 C 0.42883 0.79866 1.06343 0.0
Zn121 Zn 0.4579 1.01693 0.14692 0.0
O122 O 0.5736 0.09552 0.99969 0.0
C123 C 0.52927 0.13758 0.27671 0.0
O124 O 0.59086 0.97449 1.08496 0.0
H125 H 0.36897 0.91659 0.29662 0.0
H126 H 0.52899 0.24164 0.91655 0.0
H127 H 0.55492 0.83048 1.08415 0.0
O128 O 0.50397 0.181 0.20173 0.0
O129 O 0.5215 1.0548 0.27861 0.0
H130 H 0.34322 0.32813 0.12909 0.0
O131 O 0.3245 1.06282 0.21327 0.0
O132 O 0.3073 0.18392 0.12812 0.0
O133 O 0.3942 0.97735 1.01122 0.0
O134 O 0.37657 0.1036 0.93441 0.0
C135 C 0.27621 0.13905 0.18974 0.0
H136 H 0.63622 0.31689 0.99151 0.0
H137 H 0.44731 0.39847 0.21113 0.0
H138 H 0.262 0.84105 0.22159 0.0
H139 H 0.45105 0.76005 1.00197 0.0
C140 C 0.5158 0.40301 0.51751 0.0
N141 N 0.47964 0.48128 0.79096 0.0
C142 C 0.41951 0.5342 0.84649 0.0
C143 C 0.44924 0.58818 0.91026 0.0
C144 C 0.54006 0.57025 0.93231 0.0
C145 C 0.59979 0.50391 0.88174 0.0
C146 C 0.56692 0.45619 0.81361 0.0
Zn147 Zn 0.46194 0.54136 0.66979 0.0
C148 C 0.60866 0.6219 0.61749 0.0
N149 N 0.41868 0.67703 0.42178 0.0
C150 C 0.33138 0.70201 0.39914 0.0
C151 C 0.4789 0.62438 0.36616 0.0
C152 C 0.44931 0.57049 0.3022 0.0
C153 C 0.35848 0.58823 0.28016 0.0
C154 C 0.29865 0.6544 0.33081 0.0
Zn155 Zn 0.43619 0.61708 0.54299 0.0
O156 O 0.51586 0.40886 0.60521 0.0
C157 C 0.28947 0.53649 0.59534 0.0
O158 O 0.48967 0.47749 0.47322 0.0
H159 H 0.5488 0.60888 0.384 0.0
H160 H 0.3496 0.54976 0.82871 0.0
H161 H 0.28555 0.74745 0.44339 0.0
O162 O 0.3392 0.51045 0.66385 0.0
O163 O 0.31116 0.58833 0.53575 0.0
H164 H 0.61267 0.41056 0.76944 0.0
O165 O 0.38219 0.74961 0.60755 0.0
O166 O 0.40855 0.681 0.73953 0.0
O167 O 0.55893 0.64805 0.54899 0.0
O168 O 0.58696 0.57001 0.67699 0.0
C169 C 0.38235 0.75547 0.69526 0.0
H170 H 0.40076 0.63556 0.94897 0.0
H171 H 0.66974 0.48395 0.8997 0.0
H172 H 0.49787 0.52327 0.26343 0.0
H173 H 0.22869 0.67427 0.31287 0.0
C174 C 0.88022 0.75538 1.01753 0.0
N175 N 0.91391 0.67399 0.29066 0.0
C176 C -0.02475 0.62265 0.34709 0.0
C177 C -0.05254 0.56802 0.41188 0.0
C178 C 0.85702 0.58414 0.4344 0.0
C179 C 0.7955 0.6483 0.38211 0.0
C180 C 0.82644 0.69632 0.31241 0.0
Zn181 Zn 0.93533 0.61596 0.16994 0.0
C182 C 0.79122 0.53227 0.11423 0.0
N183 N -0.0159 0.48455 0.92255 0.0
C184 C 0.07161 0.46217 0.90097 0.0
C185 C 0.92286 0.53587 0.86602 0.0
C186 C -0.04922 0.59054 0.80136 0.0
C187 C 0.04125 0.5743 0.77892 0.0
C188 C 0.10267 0.51015 0.83132 0.0
Zn189 Zn -0.03716 0.54251 1.0433 0.0
O190 O 0.87975 0.74816 0.10514 0.0
C191 C 0.10696 0.62617 1.09899 0.0
O192 O 0.90772 0.68197 0.97307 0.0
H193 H 0.85303 0.54976 0.88328 0.0
H194 H 0.04505 0.60881 0.32976 0.0
H195 H 0.11846 0.41823 0.9464 0.0
O196 O 0.05703 0.65033 0.16714 0.0
O197 O 0.08617 0.57463 1.03915 0.0
H198 H 0.7795 0.74025 0.26705 0.0
O199 O 0.01844 0.41033 0.10806 0.0
O200 O -0.00954 0.47647 0.24016 0.0
O201 O 0.84119 0.50814 1.04611 0.0
O202 O 0.81196 0.58385 0.17408 0.0
C203 C 0.01798 0.40308 0.19567 0.0
H204 H -0.00266 0.52247 0.45137 0.0
H205 H 0.72559 0.66657 0.39987 0.0
H206 H 0.90098 0.63616 0.76184 0.0
H207 H 0.1726 0.4918 0.81363 0.0
loop_
_geom_bond_atom_site_label_1
_geom_bond_atom_site_label_2
_geom_bond_distance
_geom_bond_site_symmetry_2
_ccdc_geom_bond_type
H0 C3 0.931 1_655 S
H1 C6 0.928 . S
H2 C8 0.930 . S
C3 H0 0.931 1_455 S
C3 C4 1.413 . S
C3 C5 1.360 . S
C4 C3 1.413 . S
C4 C8 1.429 . S
C5 C3 1.360 . S
C5 C6 1.372 . S
C6 H1 0.928 . S
C6 C5 1.372 . S
C6 C7 1.404 . S
C7 C6 1.404 . S
C7 C8 1.391 . S
C8 H2 0.930 . S
C8 C4 1.429 . S
C8 C7 1.391 . S
H9 C12 0.931 . S
H10 C15 0.928 . S
H11 C17 0.930 . S
C12 H9 0.931 . S
C12 C13 1.413 . S
C12 C14 1.360 . S
C13 C12 1.413 . S
C13 C17 1.429 . S
C14 C12 1.360 . S
C14 C15 1.372 . S
C15 H10 0.928 . S
C15 C14 1.372 . S
C15 C16 1.404 . S
C16 C15 1.404 . S
C16 C17 1.391 . S
C17 H11 0.930 . S
C17 C13 1.429 . S
C17 C16 1.391 . S
H18 C21 0.931 . S
H19 C24 0.928 . S
H20 C26 0.930 . S
C21 H18 0.931 . S
C21 C22 1.413 1_554 S
C21 C23 1.360 1_554 S
C22 C21 1.413 1_556 S
C22 C26 1.429 . S
C23 C21 1.360 1_556 S
C23 C24 1.372 . S
C24 H19 0.928 . S
C24 C23 1.372 . S
C24 C25 1.404 . S
C25 C24 1.404 . S
C25 C26 1.391 . S
C26 H20 0.930 . S
C26 C22 1.429 . S
C26 C25 1.391 . S
H27 C30 0.931 . S
H28 C33 0.928 . S
H29 C35 0.930 . S
C30 H27 0.931 . S
C30 C31 1.413 . S
C30 C32 1.360 . S
C31 C30 1.413 . S
C31 C35 1.429 . S
C32 C30 1.360 . S
C32 C33 1.372 . S
C33 H28 0.928 . S
C33 C32 1.372 . S
C33 C34 1.404 . S
C34 C33 1.404 . S
C34 C35 1.391 . S
C35 H29 0.930 . S
C35 C31 1.429 . S
C35 C34 1.391 . S
H36 C39 0.931 . S
H37 C42 0.928 1_455 S
H38 C44 0.930 . S
C39 H36 0.931 . S
C39 C40 1.413 . S
C39 C41 1.360 . S
C40 C39 1.413 . S
C40 C44 1.429 . S
C41 C39 1.360 . S
C41 C42 1.372 . S
C42 H37 0.928 1_655 S
C42 C41 1.372 . S
C42 C43 1.404 . S
C43 C42 1.404 . S
C43 C44 1.391 . S
C44 H38 0.930 . S
C44 C40 1.429 . S
C44 C43 1.391 . S
H45 C48 0.931 . S
H46 C51 0.928 . S
H47 C53 0.930 . S
C48 H45 0.931 . S
C48 C49 1.413 . S
C48 C50 1.360 . S
C49 C48 1.413 . S
C49 C53 1.429 . S
C50 C48 1.360 . S
C50 C51 1.372 . S
C51 H46 0.928 . S
C51 C50 1.372 . S
C51 C52 1.404 . S
C52 C51 1.404 . S
C52 C53 1.391 . S
C53 H47 0.930 . S
C53 C49 1.429 . S
C53 C52 1.391 . S
H54 C57 0.931 1_556 S
H55 C60 0.928 . S
H56 C62 0.930 . S
C57 H54 0.931 1_554 S
C57 C58 1.413 . S
C57 C59 1.360 . S
C58 C57 1.413 . S
C58 C62 1.429 . S
C59 C57 1.360 . S
C59 C60 1.372 . S
C60 H55 0.928 . S
C60 C59 1.372 . S
C60 C61 1.404 . S
C61 C60 1.404 . S
C61 C62 1.391 . S
C62 H56 0.930 . S
C62 C58 1.429 . S
C62 C61 1.391 . S
H63 C66 0.931 . S
H64 C69 0.928 . S
H65 C71 0.930 . S
C66 H63 0.931 . S
C66 C67 1.413 . S
C66 C68 1.360 . S
C67 C66 1.413 . S
C67 C71 1.429 . S
C68 C66 1.360 . S
C68 C69 1.372 . S
C69 H64 0.928 . S
C69 C68 1.372 . S
C69 C70 1.404 . S
C70 C69 1.404 . S
C70 C71 1.391 . S
C71 H65 0.930 . S
C71 C67 1.429 . S
C71 C70 1.391 . S
C72 O88 1.251 . S
C72 O90 1.254 1_545 S
N73 C74 1.333 . S
N73 C78 1.307 . S
N73 Zn79 2.020 . S
C74 N73 1.333 . S
C74 C75 1.379 . S
C74 H92 0.952 . S
C75 C74 1.379 . S
C75 C76 1.390 . S
C75 H102 0.949 . S
C76 C75 1.390 . S
C76 C77 1.357 . S
C77 C76 1.357 . S
C77 C78 1.370 . S
C77 H103 0.950 . S
C78 N73 1.307 . S
C78 C77 1.370 . S
C78 H96 0.948 1_455 S
Zn79 N73 2.020 . S
Zn79 O88 2.039 . S
Zn79 O94 2.034 . S
Zn79 O98 2.025 1_455 S
Zn79 O100 2.024 1_455 S
C80 O99 1.246 1_545 S
C80 O100 1.249 . S
N81 C82 1.307 . S
N81 C83 1.333 . S
N81 Zn87 2.020 . S
C82 N81 1.307 . S
C82 C86 1.370 . S
C82 H93 0.948 1_655 S
C83 N81 1.333 . S
C83 C84 1.379 . S
C83 H91 0.952 . S
C84 C83 1.379 . S
C84 C85 1.390 . S
C84 H104 0.949 . S
C85 C84 1.390 . S
C85 C86 1.357 . S
C86 C82 1.370 . S
C86 C85 1.357 . S
C86 H105 0.950 . S
Zn87 N81 2.020 . S
Zn87 O90 2.025 1_655 S
Zn87 O95 2.024 1_655 S
Zn87 O97 2.039 . S
Zn87 O99 2.034 . S
O88 C72 1.251 . S
O88 Zn79 2.039 . S
C89 O94 1.246 1_565 S
C89 O95 1.249 . S
O90 C72 1.254 1_565 S
O90 Zn87 2.025 1_455 S
H91 C83 0.952 . S
H92 C74 0.952 . S
H93 C82 0.948 1_455 S
O94 Zn79 2.034 . S
O94 C89 1.246 1_545 S
O95 Zn87 2.024 1_455 S
O95 C89 1.249 . S
H96 C78 0.948 1_655 S
O97 Zn87 2.039 . S
O97 C101 1.251 . S
O98 Zn79 2.025 1_655 S
O98 C101 1.254 1_545 S
O99 C80 1.246 1_565 S
O99 Zn87 2.034 . S
O100 Zn79 2.024 1_655 S
O100 C80 1.249 . S
C101 O97 1.251 . S
C101 O98 1.254 1_565 S
H102 C75 0.949 . S
H103 C77 0.950 . S
H104 C84 0.949 . S
H105 C86 0.950 . S
C106 O122 1.251 1_565 S
C106 O124 1.254 . S
N107 C108 1.333 . S
N107 C112 1.307 . S
N107 Zn113 2.020 . S
C108 N107 1.333 . S
C108 C109 1.379 . S
C108 H126 0.952 . S
C109 C108 1.379 . S
C109 C110 1.390 . S
C109 H136 0.949 . S
C110 C109 1.390 . S
C110 C111 1.357 . S
C111 C110 1.357 . S
C111 C112 1.370 . S
C111 H137 0.950 . S
C112 N107 1.307 . S
C112 C111 1.370 . S
C112 H130 0.948 . S
Zn113 N107 2.020 . S
Zn113 O122 2.039 . S
Zn113 O128 2.034 1_556 S
Zn113 O132 2.025 1_556 S
Zn113 O134 2.024 . S
C114 O133 1.246 . S
C114 O134 1.249 1_565 S
N115 C116 1.307 . S
N115 C117 1.333 . S
N115 Zn121 2.020 . S
C116 N115 1.307 . S
C116 C120 1.370 . S
C116 H127 0.948 . S
C117 N115 1.333 . S
C117 C118 1.379 . S
C117 H125 0.952 . S
C118 C117 1.379 . S
C118 C119 1.390 . S
C118 H138 0.949 . S
C119 C118 1.390 . S
C119 C120 1.357 . S
C120 C116 1.370 . S
C120 C119 1.357 . S
C120 H139 0.950 . S
Zn121 N115 2.020 . S
Zn121 O124 2.025 1_554 S
Zn121 O129 2.024 . S
Zn121 O131 2.039 . S
Zn121 O133 2.034 1_554 S
O122 C106 1.251 1_545 S
O122 Zn113 2.039 . S
C123 O128 1.246 . S
C123 O129 1.249 1_545 S
O124 C106 1.254 . S
O124 Zn121 2.025 1_556 S
H125 C117 0.952 . S
H126 C108 0.952 . S
H127 C116 0.948 . S
O128 Zn113 2.034 1_554 S
O128 C123 1.246 . S
O129 Zn121 2.024 . S
O129 C123 1.249 1_565 S
H130 C112 0.948 . S
O131 Zn121 2.039 . S
O131 C135 1.251 1_565 S
O132 Zn113 2.025 1_554 S
O132 C135 1.254 . S
O133 C114 1.246 . S
O133 Zn121 2.034 1_556 S
O134 Zn113 2.024 . S
O134 C114 1.249 1_545 S
C135 O131 1.251 1_545 S
C135 O132 1.254 . S
H136 C109 0.949 . S
H137 C111 0.950 . S
H138 C118 0.949 . S
H139 C120 0.950 . S
C140 O156 1.251 . S
C140 O158 1.254 . S
N141 C142 1.333 . S
N141 C146 1.307 . S
N141 Zn147 2.020 . S
C142 N141 1.333 . S
C142 C143 1.379 . S
C142 H160 0.952 . S
C143 C142 1.379 . S
C143 C144 1.390 . S
C143 H170 0.949 . S
C144 C143 1.390 . S
C144 C145 1.357 . S
C145 C144 1.357 . S
C145 C146 1.370 . S
C145 H171 0.950 . S
C146 N141 1.307 . S
C146 C145 1.370 . S
C146 H164 0.948 . S
Zn147 N141 2.020 . S
Zn147 O156 2.039 . S
Zn147 O162 2.034 . S
Zn147 O166 2.025 . S
Zn147 O168 2.024 . S
C148 O167 1.246 . S
C148 O168 1.249 . S
N149 C150 1.307 . S
N149 C151 1.333 . S
N149 Zn155 2.020 . S
C150 N149 1.307 . S
C150 C154 1.370 . S
C150 H161 0.948 . S
C151 N149 1.333 . S
C151 C152 1.379 . S
C151 H159 0.952 . S
C152 C151 1.379 . S
C152 C153 1.390 . S
C152 H172 0.949 . S
C153 C152 1.390 . S
C153 C154 1.357 . S
C154 C150 1.370 . S
C154 C153 1.357 . S
C154 H173 0.950 . S
Zn155 N149 2.020 . S
Zn155 O158 2.025 . S
Zn155 O163 2.024 . S
Zn155 O165 2.039 . S
Zn155 O167 2.034 . S
O156 C140 1.251 . S
O156 Zn147 2.039 . S
C157 O162 1.246 . S
C157 O163 1.249 . S
O158 C140 1.254 . S
O158 Zn155 2.025 . S
H159 C151 0.952 . S
H160 C142 0.952 . S
H161 C150 0.948 . S
O162 Zn147 2.034 . S
O162 C157 1.246 . S
O163 Zn155 2.024 . S
O163 C157 1.249 . S
H164 C146 0.948 . S
O165 Zn155 2.039 . S
O165 C169 1.251 . S
O166 Zn147 2.025 . S
O166 C169 1.254 . S
O167 C148 1.246 . S
O167 Zn155 2.034 . S
O168 Zn147 2.024 . S
O168 C148 1.249 . S
C169 O165 1.251 . S
C169 O166 1.254 . S
H170 C143 0.949 . S
H171 C145 0.950 . S
H172 C152 0.949 . S
H173 C154 0.950 . S
C174 O190 1.251 1_556 S
C174 O192 1.254 . S
N175 C176 1.333 . S
N175 C180 1.307 . S
N175 Zn181 2.020 . S
C176 N175 1.333 . S
C176 C177 1.379 . S
C176 H194 0.952 . S
C177 C176 1.379 . S
C177 C178 1.390 . S
C177 H204 0.949 . S
C178 C177 1.390 . S
C178 C179 1.357 . S
C179 C178 1.357 . S
C179 C180 1.370 . S
C179 H205 0.950 . S
C180 N175 1.307 . S
C180 C179 1.370 . S
C180 H198 0.948 . S
Zn181 N175 2.020 . S
Zn181 O190 2.039 . S
Zn181 O196 2.034 1_655 S
Zn181 O200 2.025 1_655 S
Zn181 O202 2.024 . S
C182 O201 1.246 . S
C182 O202 1.249 1_556 S
N183 C184 1.307 . S
N183 C185 1.333 . S
N183 Zn189 2.020 . S
C184 N183 1.307 . S
C184 C188 1.370 . S
C184 H195 0.948 . S
C185 N183 1.333 . S
C185 C186 1.379 . S
C185 H193 0.952 . S
C186 C185 1.379 . S
C186 C187 1.390 . S
C186 H206 0.949 . S
C187 C186 1.390 . S
C187 C188 1.357 . S
C188 C184 1.370 . S
C188 C187 1.357 . S
C188 H207 0.950 . S
Zn189 N183 2.020 . S
Zn189 O192 2.025 1_455 S
Zn189 O197 2.024 . S
Zn189 O199 2.039 . S
Zn189 O201 2.034 1_455 S
O190 C174 1.251 1_554 S
O190 Zn181 2.039 . S
C191 O196 1.246 . S
C191 O197 1.249 1_554 S
O192 C174 1.254 . S
O192 Zn189 2.025 1_655 S
H193 C185 0.952 . S
H194 C176 0.952 . S
H195 C184 0.948 . S
O196 Zn181 2.034 1_455 S
O196 C191 1.246 . S
O197 Zn189 2.024 . S
O197 C191 1.249 1_556 S
H198 C180 0.948 . S
O199 Zn189 2.039 . S
O199 C203 1.251 1_556 S
O200 Zn181 2.025 1_455 S
O200 C203 1.254 . S
O201 C182 1.246 . S
O201 Zn189 2.034 1_655 S
O202 Zn181 2.024 . S
O202 C182 1.249 1_554 S
C203 O199 1.251 1_554 S
C203 O200 1.254 . S
H204 C177 0.949 . S
H205 C179 0.950 . S
H206 C186 0.949 . S
H207 C188 0.950 . S
C5 C72 3.144 . S
C14 C114 3.123 . S
C144 C25 1.068 . S
C34 C178 1.086 . S
C135 C7 2.136 . S
C89 C13 2.178 . S
C182 C23 0.770 . S
C148 C31 0.844 . S
C4 C203 2.904 . S
C110 C22 1.450 . S
C32 C85 1.424 . S
C16 C169 2.874 . S
C101 C41 3.132 . S
C50 C123 3.132 . S
C61 C153 1.063 . S
C67 C187 1.134 . S
C40 C106 2.150 . S
C80 C52 2.167 . S
C191 C59 0.754 . S
C157 C70 0.838 . S
C43 C174 2.901 . S
C119 C58 1.449 . S
C76 C68 1.455 . S
C49 C140 2.886 . S
