# Generated by pormake.
# Topology pyr, (3,6)-cn, num edge types: 1
# Building blocks:
#     Node 0, Type 0, BuildingBlock: PAMTOO_clean_linker_0, # of connection points: 3
#     Node 1, Type 0, BuildingBlock: PAMTOO_clean_linker_0, # of connection points: 3
#     Node 2, Type 0, BuildingBlock: PAMTOO_clean_linker_0, # of connection points: 3
#     Node 3, Type 0, BuildingBlock: PAMTOO_clean_linker_0, # of connection points: 3
#     Node 4, Type 0, BuildingBlock: PAMTOO_clean_linker_0, # of connection points: 3
#     Node 5, Type 0, BuildingBlock: PAMTOO_clean_linker_0, # of connection points: 3
#     Node 6, Type 0, BuildingBlock: PAMTOO_clean_linker_0, # of connection points: 3
#     Node 7, Type 0, BuildingBlock: PAMTOO_clean_linker_0, # of connection points: 3
#     Node 8, Type 1, BuildingBlock: VOLQOD_clean_sbu_1, # of connection points: 6
#     Node 9, Type 1, BuildingBlock: VOLQOD_clean_sbu_1, # of connection points: 6
#     Node 10, Type 1, BuildingBlock: VOLQOD_clean_sbu_1, # of connection points: 6
#     Node 11, Type 1, BuildingBlock: VOLQOD_clean_sbu_1, # of connection points: 6
#     Edge 12, Type (0, 1), None
#     Edge 13, Type (0, 1), None
#     Edge 14, Type (0, 1), None
#     Edge 15, Type (0, 1), None
#     Edge 16, Type (0, 1), None
#     Edge 17, Type (0, 1), None
#     Edge 18, Type (0, 1), None
#     Edge 19, Type (0, 1), None
#     Edge 20, Type (0, 1), None
#     Edge 21, Type (0, 1), None
#     Edge 22, Type (0, 1), None
#     Edge 23, Type (0, 1), None
#     Edge 24, Type (0, 1), None
#     Edge 25, Type (0, 1), None
#     Edge 26, Type (0, 1), None
#     Edge 27, Type (0, 1), None
#     Edge 28, Type (0, 1), None
#     Edge 29, Type (0, 1), None
#     Edge 30, Type (0, 1), None
#     Edge 31, Type (0, 1), None
#     Edge 32, Type (0, 1), None
#     Edge 33, Type (0, 1), None
#     Edge 34, Type (0, 1), None
#     Edge 35, Type (0, 1), None
# Relax obj value: 0.142
# Max RMSD: 0.195
# Mean RMSD: 0.157
data_MOF--net-pry--node1-VOLQOD_clean_sbu_1--node2-PAMTOO_clean_linker_0--edge1-none
_symmetry_space_group_name_H-M    P1
_symmetry_Int_Tables_number       1
_symmetry_cell_setting            triclinic
loop_
_symmetry_equiv_pos_as_xyz
'x, y, z'
_cell_length_a     16.619535
_cell_length_b     17.519381
_cell_length_c     17.113721
_cell_angle_alpha  89.031783
_cell_angle_beta   92.279332
_cell_angle_gamma 97.387543
loop_
_atom_site_label
_atom_site_type_symbol
_atom_site_fract_x
_atom_site_fract_y
_atom_site_fract_z
_atom_type_partial_charge
H0 H 0.03631 0.22603 0.26797 0.0
H1 H 0.20355 0.05695 0.27365 0.0
H2 H 0.20571 0.21706 0.08335 0.0
H3 H 0.21832 0.0485 0.04612 0.0
C4 C 0.25581 0.03734 0.09944 0.0
O5 O 0.26999 0.10217 0.1444 0.0
H6 H 0.22381 0.98861 0.13332 0.0
C7 C 0.084 0.20014 0.24113 0.0
C8 C 0.11683 0.23111 0.17008 0.0
C9 C 0.11517 0.1364 0.27835 0.0
C10 C 0.17821 0.10475 0.24514 0.0
C11 C 0.20921 0.1337 0.17507 0.0
C12 C 0.1791 0.19593 0.13762 0.0
H13 H 0.31946 0.01518 0.74631 0.0
H14 H 0.31633 0.88432 0.53479 0.0
H15 H 0.49438 0.85691 0.71693 0.0
H16 H 0.55772 0.84841 0.57925 0.0
C17 C 0.50862 0.81378 0.54423 0.0
O18 O 0.4362 0.80855 0.58198 0.0
H19 H 0.50097 0.84083 0.48562 0.0
C20 C 0.34658 0.97573 0.71041 0.0
C21 C 0.41401 0.94115 0.74026 0.0
C22 C 0.31094 0.95564 0.63593 0.0
C23 C 0.3447 0.90242 0.59073 0.0
C24 C 0.41089 0.86736 0.62039 0.0
C25 C 0.44456 0.88633 0.69465 0.0
H26 H 0.74516 0.26429 0.04366 0.0
H27 H 0.53415 0.28213 0.8913 0.0
H28 H 0.74054 0.45253 0.87993 0.0
H29 H 0.60954 0.51785 0.85108 0.0
C30 C 0.56793 0.4729 0.81922 0.0
O31 O 0.59991 0.40446 0.8191 0.0
H32 H 0.50801 0.46465 0.84693 0.0
C33 C 0.71231 0.29539 1.00033 0.0
C34 C 0.7511 0.36303 0.96723 0.0
C35 C 0.63436 0.26447 0.97208 0.0
C36 C 0.59335 0.30548 0.91532 0.0
C37 C 0.63243 0.37296 0.88282 0.0
C38 C 0.71073 0.40124 0.90816 0.0
H39 H 0.84909 0.73047 0.55926 0.0
H40 H 0.87137 0.52866 0.42422 0.0
H41 H 0.03509 0.73463 0.39077 0.0
H42 H 0.95696 0.66692 0.25304 0.0
C43 C 0.95116 0.60447 0.2684 0.0
O44 O 0.98773 0.59509 0.34104 0.0
H45 H 0.88557 0.58136 0.26994 0.0
C46 C 0.88091 0.70028 0.51789 0.0
C47 C 0.94748 0.74037 0.47962 0.0
C48 C 0.85142 0.62375 0.49773 0.0
C49 C 0.89331 0.58678 0.44254 0.0
C50 C 0.95872 0.62681 0.40383 0.0
C51 C 0.98587 0.70338 0.42257 0.0
H52 H 0.80805 0.0099 0.82567 0.0
H53 H 0.83123 0.83948 0.00717 0.0
H54 H 0.01711 0.8864 0.84194 0.0
H55 H 0.97204 0.74152 0.84526 0.0
C56 C 0.94507 0.72951 0.90335 0.0
O57 O 0.96126 0.79373 0.94992 0.0
H58 H 0.87835 0.71432 0.89308 0.0
C59 C 0.84351 0.96974 0.85555 0.0
C60 C 0.91655 0.95331 0.82414 0.0
C61 C 0.81428 0.93074 0.92385 0.0
C62 C 0.85635 0.87372 0.95846 0.0
C63 C 0.92896 0.858 0.92784 0.0
C64 C 0.96101 0.90088 0.86447 0.0
H65 H 0.74315 0.99346 0.33242 0.0
H66 H 0.54593 0.13017 0.31428 0.0
H67 H 0.72307 0.16809 0.50321 0.0
H68 H 0.57511 0.20148 0.54722 0.0
C69 C 0.55125 0.22893 0.49358 0.0
O70 O 0.59981 0.21995 0.43134 0.0
H71 H 0.48816 0.20152 0.48054 0.0
C72 C 0.71029 0.03657 0.35658 0.0
C73 C 0.74013 0.0753 0.42609 0.0
C74 C 0.63928 0.05466 0.31641 0.0
C75 C 0.59804 0.11253 0.34649 0.0
C76 C 0.62894 0.15384 0.41326 0.0
C77 C 0.69893 0.13435 0.45312 0.0
H78 H 0.33925 0.70427 1.00376 0.0
H79 H 0.35718 0.4831 0.11151 0.0
H80 H 0.53199 0.67567 0.17225 0.0
H81 H 0.5924 0.55091 0.20534 0.0
C82 C 0.54148 0.51254 0.23124 0.0
O83 O 0.46773 0.5345 0.20917 0.0
H84 H 0.54467 0.45243 0.21315 0.0
C85 C 0.37241 0.66686 0.0403 0.0
C86 C 0.44493 0.69696 0.0801 0.0
C87 C 0.34 0.58963 0.05222 0.0
C88 C 0.38332 0.5418 0.09892 0.0
C89 C 0.45013 0.57325 0.14406 0.0
C90 C 0.48133 0.65093 0.13505 0.0
H91 H 0.0615 0.27601 0.76363 0.0
H92 H 0.14562 0.51237 0.70788 0.0
H93 H 0.15822 0.33728 0.53795 0.0
H94 H 0.25939 0.55894 0.63156 0.0
C95 C 0.24873 0.54053 0.56974 0.0
O96 O 0.18273 0.48421 0.56212 0.0
H97 H 0.23341 0.59217 0.5366 0.0
C98 C 0.0894 0.31905 0.72334 0.0
C99 C 0.10615 0.29814 0.64771 0.0
C100 C 0.10682 0.39581 0.74634 0.0
C101 C 0.13742 0.4522 0.69194 0.0
C102 C 0.15909 0.43066 0.61752 0.0
C103 C 0.14503 0.35326 0.59657 0.0
O104 O 0.00739 0.18896 0.6285 0.0
Zn105 Zn 0.94637 0.08373 0.60135 0.0
O106 O 0.02275 0.02648 0.5474 0.0
Zn107 Zn 0.97398 0.9895 0.44669 0.0
Zn108 Zn 0.12698 0.08884 0.52832 0.0
Zn109 Zn 0.047 0.94076 0.6128 0.0
O110 O 0.96799 0.8724 0.44134 0.0
O111 O 0.9985 0.84086 0.56483 0.0
O112 O 0.84455 0.09313 0.52915 0.0
O113 O 0.85994 0.01432 0.43207 0.0
O114 O 0.02966 0.04889 0.35583 0.0
O115 O 0.13233 0.12244 0.415 0.0
O116 O 0.22679 0.03759 0.56628 0.0
O117 O 0.91176 0.0329 0.70709 0.0
O118 O 0.16741 0.93799 0.63374 0.0
O119 O 0.99687 0.94534 0.71506 0.0
C120 C 0.08066 0.21975 0.62038 0.0
C121 C 0.97342 0.8222 0.49578 0.0
C122 C 0.08806 0.10372 0.35417 0.0
C123 C 0.81818 0.05921 0.46558 0.0
C124 C 0.23117 0.97914 0.61109 0.0
C125 C 0.94356 0.98035 0.74529 0.0
O126 O 0.132 0.18656 0.58512 0.0
O127 O 0.533 0.15627 0.96406 0.0
Zn128 Zn 0.4727 0.05019 0.96781 0.0
O129 O 0.53848 0.98173 0.02753 0.0
Zn130 Zn 0.55316 0.89977 0.95609 0.0
Zn131 Zn 0.64427 0.03467 0.06283 0.0
Zn132 Zn 0.4848 0.94285 0.12282 0.0
O133 O 0.50762 0.79843 1.00333 0.0
O134 O 0.46948 0.82606 0.12232 0.0
O135 O 0.43799 0.01655 0.85679 0.0
O136 O 0.49225 0.9081 0.85247 0.0
O137 O 0.67177 0.90246 0.93154 0.0
O138 O 0.73584 0.99453 0.00803 0.0
O139 O 0.66346 0.03849 0.18175 0.0
O140 O 0.36891 0.05437 0.01925 0.0
O141 O 0.54322 0.98857 0.22387 0.0
O142 O 0.3727 0.97397 0.12109 0.0
C143 C 0.60227 0.18478 0.99208 0.0
C144 C 0.4777 0.77792 0.06893 0.0
C145 C 0.73642 0.94388 0.95556 0.0
C146 C 0.44989 0.95651 0.82052 0.0
C147 C 0.61499 0.02267 0.23737 0.0
C148 C 0.33565 0.01816 0.07678 0.0
O149 O 0.64876 0.1439 0.02985 0.0
O150 O 0.60068 0.5553 0.70911 0.0
Zn151 Zn 0.60968 0.59966 0.59934 0.0
O152 O 0.54883 0.52562 0.52856 0.0
Zn153 Zn 0.62459 0.47474 0.47035 0.0
Zn154 Zn 0.47785 0.4449 0.58017 0.0
Zn155 Zn 0.48179 0.58238 0.46148 0.0
O156 O 0.6006 0.48463 0.35576 0.0
O157 O 0.49919 0.5565 0.35164 0.0
O158 O 0.72784 0.62264 0.56643 0.0
O159 O 0.73856 0.5266 0.48605 0.0
O160 O 0.61353 0.36008 0.48965 0.0
O161 O 0.49063 0.33759 0.53896 0.0
O162 O 0.36097 0.46736 0.57907 0.0
O163 O 0.56353 0.70175 0.59399 0.0
O164 O 0.36447 0.56213 0.49125 0.0
O165 O 0.50546 0.69679 0.47471 0.0
C166 C 0.55736 0.49587 0.73608 0.0
C167 C 0.54839 0.51879 0.31782 0.0
C168 C 0.55194 0.31355 0.50907 0.0
C169 C 0.76986 0.58731 0.52146 0.0
C170 C 0.32617 0.51743 0.54054 0.0
C171 C 0.52981 0.73387 0.53621 0.0
O172 O 0.51129 0.44935 0.69258 0.0
O173 O 0.95747 0.49519 0.18901 0.0
Zn174 Zn 0.97664 0.42193 0.10393 0.0
O175 O 0.04234 0.4802 0.02384 0.0
Zn176 Zn 0.98086 0.49167 0.92766 0.0
Zn177 Zn 0.08045 0.58549 0.05741 0.0
Zn178 Zn 0.12984 0.4228 0.99902 0.0
O179 O 0.03414 0.46145 0.83279 0.0
O180 O 0.12547 0.39144 0.8846 0.0
O181 O 0.86601 0.3819 0.05601 0.0
O182 O 0.87581 0.42979 0.93498 0.0
O183 O 0.95363 0.59658 0.90804 0.0
O184 O 0.03196 0.66791 0.99352 0.0
O185 O 0.20165 0.60538 0.05179 0.0
O186 O 0.02946 0.33074 0.15166 0.0
O187 O 0.23477 0.49194 0.01622 0.0
O188 O 0.13086 0.32942 0.07132 0.0
C189 C 0.98928 0.56306 0.207 0.0
C190 C 0.08819 0.41748 0.8254 0.0
C191 C 0.97885 0.66126 0.93775 0.0
C192 C 0.8359 0.39155 0.98741 0.0
C193 C 0.25434 0.56245 0.03398 0.0
C194 C 0.09042 0.30056 0.12917 0.0
O195 O 0.04231 0.60168 0.16532 0.0
loop_
_geom_bond_atom_site_label_1
_geom_bond_atom_site_label_2
_geom_bond_distance
_geom_bond_site_symmetry_2
_ccdc_geom_bond_type
H0 C7 0.929 . S
H1 C10 0.930 . S
H2 C12 0.929 . S
H3 C4 0.969 . S
C4 H3 0.969 . S
C4 O5 1.550 . S
C4 H6 0.973 . S
O5 C4 1.550 . S
O5 C11 1.412 . S
H6 C4 0.973 . S
C7 H0 0.929 . S
C7 C8 1.400 . S
C7 C9 1.364 . S
C8 C7 1.400 . S
C8 C12 1.377 . S
C9 C7 1.364 . S
C9 C10 1.374 . S
C10 H1 0.930 . S
C10 C9 1.374 . S
C10 C11 1.383 . S
C11 O5 1.412 . S
C11 C10 1.383 . S
C11 C12 1.394 . S
C12 H2 0.929 . S
C12 C8 1.377 . S
C12 C11 1.394 . S
H13 C20 0.929 1_545 S
H14 C23 0.930 . S
H15 C25 0.929 . S
H16 C17 0.969 . S
C17 H16 0.969 . S
C17 O18 1.550 . S
C17 H19 0.973 . S
O18 C17 1.550 . S
O18 C24 1.412 . S
H19 C17 0.973 . S
C20 H13 0.929 1_565 S
C20 C21 1.400 . S
C20 C22 1.364 . S
C21 C20 1.400 . S
C21 C25 1.377 . S
C22 C20 1.364 . S
C22 C23 1.374 . S
C23 H14 0.930 . S
C23 C22 1.374 . S
C23 C24 1.383 . S
C24 O18 1.412 . S
C24 C23 1.383 . S
C24 C25 1.394 . S
C25 H15 0.929 . S
C25 C21 1.377 . S
C25 C24 1.394 . S
H26 C33 0.929 1_554 S
H27 C36 0.930 . S
H28 C38 0.929 . S
H29 C30 0.969 . S
C30 H29 0.969 . S
C30 O31 1.550 . S
C30 H32 0.973 . S
O31 C30 1.550 . S
O31 C37 1.412 . S
H32 C30 0.973 . S
C33 H26 0.929 1_556 S
C33 C34 1.400 . S
C33 C35 1.364 . S
C34 C33 1.400 . S
C34 C38 1.377 . S
C35 C33 1.364 . S
C35 C36 1.374 . S
C36 H27 0.930 . S
C36 C35 1.374 . S
C36 C37 1.383 . S
C37 O31 1.412 . S
C37 C36 1.383 . S
C37 C38 1.394 . S
C38 H28 0.929 . S
C38 C34 1.377 . S
C38 C37 1.394 . S
H39 C46 0.929 . S
H40 C49 0.930 . S
H41 C51 0.929 1_455 S
H42 C43 0.969 . S
C43 H42 0.969 . S
C43 O44 1.550 . S
C43 H45 0.973 . S
O44 C43 1.550 . S
O44 C50 1.412 . S
H45 C43 0.973 . S
C46 H39 0.929 . S
C46 C47 1.400 . S
C46 C48 1.364 . S
C47 C46 1.400 . S
C47 C51 1.377 . S
C48 C46 1.364 . S
C48 C49 1.374 . S
C49 H40 0.930 . S
C49 C48 1.374 . S
C49 C50 1.383 . S
C50 O44 1.412 . S
C50 C49 1.383 . S
C50 C51 1.394 . S
C51 H41 0.929 1_655 S
C51 C47 1.377 . S
C51 C50 1.394 . S
H52 C59 0.929 . S
H53 C62 0.930 1_554 S
H54 C64 0.929 1_455 S
H55 C56 0.969 1_556 S
C56 H55 0.969 1_554 S
C56 O57 1.550 1_654 S
C56 H58 0.973 . S
O57 C56 1.550 1_456 S
O57 C63 1.412 1_455 S
H58 C56 0.973 . S
C59 H52 0.929 . S
C59 C60 1.400 1_545 S
C59 C61 1.364 1_545 S
C60 C59 1.400 1_565 S
C60 C64 1.377 . S
C61 C59 1.364 1_565 S
C61 C62 1.374 . S
C62 H53 0.930 1_556 S
C62 C61 1.374 . S
C62 C63 1.383 . S
C63 O57 1.412 1_655 S
C63 C62 1.383 . S
C63 C64 1.394 . S
C64 H54 0.929 1_655 S
C64 C60 1.377 . S
C64 C63 1.394 . S
H65 C72 0.929 . S
H66 C75 0.930 . S
H67 C77 0.929 . S
H68 C69 0.969 . S
C69 H68 0.969 . S
C69 O70 1.550 . S
C69 H71 0.973 . S
O70 C69 1.550 . S
O70 C76 1.412 . S
H71 C69 0.973 . S
C72 H65 0.929 . S
C72 C73 1.400 1_565 S
C72 C74 1.364 1_565 S
C73 C72 1.400 1_545 S
C73 C77 1.377 . S
C74 C72 1.364 1_545 S
C74 C75 1.374 . S
C75 H66 0.930 . S
C75 C74 1.374 . S
C75 C76 1.383 . S
C76 O70 1.412 . S
C76 C75 1.383 . S
C76 C77 1.394 . S
C77 H67 0.929 . S
C77 C73 1.377 . S
C77 C76 1.394 . S
H78 C85 0.929 1_556 S
H79 C88 0.930 . S
H80 C90 0.929 . S
H81 C82 0.969 . S
C82 H81 0.969 . S
C82 O83 1.550 . S
C82 H84 0.973 . S
O83 C82 1.550 . S
O83 C89 1.412 . S
H84 C82 0.973 . S
C85 H78 0.929 1_554 S
C85 C86 1.400 . S
C85 C87 1.364 . S
C86 C85 1.400 . S
C86 C90 1.377 . S
C87 C85 1.364 . S
C87 C88 1.374 . S
C88 H79 0.930 . S
C88 C87 1.374 . S
C88 C89 1.383 . S
C89 O83 1.412 . S
C89 C88 1.383 . S
C89 C90 1.394 . S
C90 H80 0.929 . S
C90 C86 1.377 . S
C90 C89 1.394 . S
H91 C98 0.929 1_655 S
H92 C101 0.930 . S
H93 C103 0.929 . S
H94 C95 0.969 . S
C95 H94 0.969 . S
C95 O96 1.550 . S
C95 H97 0.973 . S
O96 C95 1.550 . S
O96 C102 1.412 . S
H97 C95 0.973 . S
C98 H91 0.929 1_455 S
C98 C99 1.400 . S
C98 C100 1.364 . S
C99 C98 1.400 . S
C99 C103 1.377 . S
C100 C98 1.364 . S
C100 C101 1.374 . S
C101 H92 0.930 . S
C101 C100 1.374 . S
C101 C102 1.383 . S
C102 O96 1.412 . S
C102 C101 1.383 . S
C102 C103 1.394 . S
C103 H93 0.929 . S
C103 C99 1.377 . S
C103 C102 1.394 . S
O104 Zn105 1.953 . S
O104 C120 1.225 1_655 S
Zn105 O104 1.953 . S
Zn105 O106 1.949 1_655 S
Zn105 O112 1.919 . S
Zn105 O117 1.924 . S
O106 Zn105 1.949 1_455 S
O106 Zn107 1.923 1_445 S
O106 Zn108 1.950 . S
O106 Zn109 1.945 1_545 S
Zn107 O106 1.923 1_665 S
Zn107 O110 1.933 . S
Zn107 O113 1.941 1_565 S
Zn107 O114 1.965 1_665 S
Zn108 O106 1.950 . S
Zn108 O115 1.938 . S
Zn108 O116 1.906 . S
Zn108 O126 1.953 . S
Zn109 O106 1.945 1_565 S
Zn109 O111 1.932 1_455 S
Zn109 O118 1.977 . S
Zn109 O119 1.910 1_455 S
O110 Zn107 1.933 . S
O110 C121 1.226 . S
O111 Zn109 1.932 1_655 S
O111 C121 1.307 . S
O112 Zn105 1.919 . S
O112 C123 1.253 . S
O113 Zn107 1.941 1_545 S
O113 C123 1.283 . S
O114 Zn107 1.965 1_445 S
O114 C122 1.303 . S
O115 Zn108 1.938 . S
O115 C122 1.247 . S
O116 Zn108 1.906 . S
O116 C124 1.304 1_545 S
O117 Zn105 1.924 . S
O117 C125 1.311 1_545 S
O118 Zn109 1.977 . S
O118 C124 1.272 . S
O119 Zn109 1.910 1_655 S
O119 C125 1.231 . S
C120 O104 1.225 1_455 S
C120 O126 1.298 . S
C121 O110 1.226 . S
C121 O111 1.307 . S
C122 O114 1.303 . S
C122 O115 1.247 . S
C123 O112 1.253 . S
C123 O113 1.283 . S
C124 O116 1.304 1_565 S
C124 O118 1.272 . S
C125 O117 1.311 1_565 S
C125 O119 1.231 . S
O126 Zn108 1.953 . S
O126 C120 1.298 . S
O127 Zn128 1.953 . S
O127 C143 1.225 . S
Zn128 O127 1.953 . S
Zn128 O129 1.949 1_556 S
Zn128 O135 1.919 . S
Zn128 O140 1.924 . S
O129 Zn128 1.949 1_554 S
O129 Zn130 1.923 1_544 S
O129 Zn131 1.950 . S
O129 Zn132 1.945 1_545 S
Zn130 O129 1.923 1_566 S
Zn130 O133 1.933 1_556 S
Zn130 O136 1.941 . S
Zn130 O137 1.965 . S
Zn131 O129 1.950 . S
Zn131 O138 1.938 . S
Zn131 O139 1.906 . S
Zn131 O149 1.953 . S
Zn132 O129 1.945 1_565 S
Zn132 O134 1.932 . S
Zn132 O141 1.977 1_565 S
Zn132 O142 1.910 1_565 S
O133 Zn130 1.933 1_554 S
O133 C144 1.226 . S
O134 Zn132 1.932 . S
O134 C144 1.307 . S
O135 Zn128 1.919 . S
O135 C146 1.253 1_545 S
O136 Zn130 1.941 . S
O136 C146 1.283 . S
O137 Zn130 1.965 . S
O137 C145 1.303 . S
O138 Zn131 1.938 . S
O138 C145 1.247 1_544 S
O139 Zn131 1.906 . S
O139 C147 1.304 . S
O140 Zn128 1.924 . S
O140 C148 1.311 1_556 S
O141 Zn132 1.977 1_545 S
O141 C147 1.272 . S
O142 Zn132 1.910 1_545 S
O142 C148 1.231 . S
C143 O127 1.225 . S
C143 O149 1.298 1_556 S
C144 O133 1.226 . S
C144 O134 1.307 . S
C145 O137 1.303 . S
C145 O138 1.247 1_566 S
C146 O135 1.253 1_565 S
C146 O136 1.283 . S
C147 O139 1.304 . S
C147 O141 1.272 . S
C148 O140 1.311 1_554 S
C148 O142 1.231 . S
O149 Zn131 1.953 . S
O149 C143 1.298 1_554 S
O150 Zn151 1.953 . S
O150 C166 1.225 . S
Zn151 O150 1.953 . S
Zn151 O152 1.949 . S
Zn151 O158 1.919 . S
Zn151 O163 1.924 . S
O152 Zn151 1.949 . S
O152 Zn153 1.923 . S
O152 Zn154 1.950 . S
O152 Zn155 1.945 . S
Zn153 O152 1.923 . S
Zn153 O156 1.933 . S
Zn153 O159 1.941 . S
Zn153 O160 1.965 . S
Zn154 O152 1.950 . S
Zn154 O161 1.938 . S
Zn154 O162 1.906 . S
Zn154 O172 1.953 . S
Zn155 O152 1.945 . S
Zn155 O157 1.932 . S
Zn155 O164 1.977 . S
Zn155 O165 1.910 . S
O156 Zn153 1.933 . S
O156 C167 1.226 . S
O157 Zn155 1.932 . S
O157 C167 1.307 . S
O158 Zn151 1.919 . S
O158 C169 1.253 . S
O159 Zn153 1.941 . S
O159 C169 1.283 . S
O160 Zn153 1.965 . S
O160 C168 1.303 . S
O161 Zn154 1.938 . S
O161 C168 1.247 . S
O162 Zn154 1.906 . S
O162 C170 1.304 . S
O163 Zn151 1.924 . S
O163 C171 1.311 . S
O164 Zn155 1.977 . S
O164 C170 1.272 . S
O165 Zn155 1.910 . S
O165 C171 1.231 . S
C166 O150 1.225 . S
C166 O172 1.298 . S
C167 O156 1.226 . S
C167 O157 1.307 . S
C168 O160 1.303 . S
C168 O161 1.247 . S
C169 O158 1.253 . S
C169 O159 1.283 . S
C170 O162 1.304 . S
C170 O164 1.272 . S
C171 O163 1.311 . S
C171 O165 1.231 . S
O172 Zn154 1.953 . S
O172 C166 1.298 . S
O173 Zn174 1.953 . S
O173 C189 1.225 . S
Zn174 O173 1.953 . S
Zn174 O175 1.949 1_655 S
Zn174 O181 1.919 . S
Zn174 O186 1.924 . S
O175 Zn174 1.949 1_455 S
O175 Zn176 1.923 1_454 S
O175 Zn177 1.950 . S
O175 Zn178 1.945 1_554 S
Zn176 O175 1.923 1_656 S
Zn176 O179 1.933 1_655 S
Zn176 O182 1.941 . S
Zn176 O183 1.965 . S
Zn177 O175 1.950 . S
Zn177 O184 1.938 . S
Zn177 O185 1.906 . S
Zn177 O195 1.953 . S
Zn178 O175 1.945 1_556 S
Zn178 O180 1.932 . S
Zn178 O187 1.977 1_556 S
Zn178 O188 1.910 1_556 S
O179 Zn176 1.933 1_455 S
O179 C190 1.226 . S
O180 Zn178 1.932 . S
O180 C190 1.307 . S
O181 Zn174 1.919 . S
O181 C192 1.253 1_554 S
O182 Zn176 1.941 . S
O182 C192 1.283 . S
O183 Zn176 1.965 . S
O183 C191 1.303 1_655 S
O184 Zn177 1.938 . S
O184 C191 1.248 1_554 S
O185 Zn177 1.906 . S
O185 C193 1.304 . S
O186 Zn174 1.924 . S
O186 C194 1.311 1_655 S
O187 Zn178 1.977 1_554 S
O187 C193 1.272 . S
O188 Zn178 1.910 1_554 S
O188 C194 1.231 . S
C189 O173 1.225 . S
C189 O195 1.298 1_655 S
C190 O179 1.226 . S
C190 O180 1.307 . S
C191 O183 1.303 1_455 S
C191 O184 1.248 1_556 S
C192 O181 1.253 1_556 S
C192 O182 1.283 . S
C193 O185 1.304 . S
C193 O187 1.272 . S
C194 O186 1.311 1_455 S
C194 O188 1.231 . S
O195 Zn177 1.953 . S
O195 C189 1.298 1_455 S
C9 C122 2.150 . S
C21 C146 1.807 . S
C166 C30 1.560 . S
C43 C189 1.054 . S
C148 C4 1.839 . S
C124 C22 2.354 . S
C192 C34 1.423 . S
C169 C48 1.618 . S
C8 C194 1.661 . S
C143 C35 1.748 . S
C47 C121 1.728 . S
C17 C171 1.827 . S
C125 C60 1.769 . S
C74 C147 2.019 . S
C82 C167 1.577 . S
C100 C190 2.240 . S
C61 C145 1.877 . S
C123 C73 1.768 . S
C193 C87 1.719 . S
C170 C95 1.415 . S
C56 C191 1.829 1_654 S
C144 C86 2.074 . S
C120 C99 1.660 . S
C69 C168 1.831 . S
