# Generated by pormake.
# Topology ftw, (4,12)-cn, num edge types: 1
# Building blocks:
#     Node 0, Type 0, BuildingBlock: GIZVER_clean_linker_0, # of connection points: 4
#     Node 1, Type 0, BuildingBlock: GIZVER_clean_linker_0, # of connection points: 4
#     Node 2, Type 0, BuildingBlock: GIZVER_clean_linker_0, # of connection points: 4
#     Node 3, Type 1, BuildingBlock: EZIPEK_clean_sbu_0, # of connection points: 12
#     Edge 4, Type (0, 1), None
#     Edge 5, Type (0, 1), None
#     Edge 6, Type (0, 1), None
#     Edge 7, Type (0, 1), None
#     Edge 8, Type (0, 1), None
#     Edge 9, Type (0, 1), None
#     Edge 10, Type (0, 1), None
#     Edge 11, Type (0, 1), None
#     Edge 12, Type (0, 1), None
#     Edge 13, Type (0, 1), None
#     Edge 14, Type (0, 1), None
#     Edge 15, Type (0, 1), None
# Relax obj value: 0.085
# Max RMSD: 0.239
# Mean RMSD: 0.181
data_MOF--net-ftw--node1-EZIPEK_clean_sbu_0--node2-GIZVER_clean_linker_0--edge1-none
_symmetry_space_group_name_H-M    P1
_symmetry_Int_Tables_number       1
_symmetry_cell_setting            triclinic
loop_
_symmetry_equiv_pos_as_xyz
'x, y, z'
_cell_length_a     14.388772
_cell_length_b     11.635154
_cell_length_c     11.339593
_cell_angle_alpha  89.736226
_cell_angle_beta   89.935962
_cell_angle_gamma 90.055916
loop_
_atom_site_label
_atom_site_type_symbol
_atom_site_fract_x
_atom_site_fract_y
_atom_site_fract_z
_atom_type_partial_charge
H0 H 0.82597 0.45582 0.3484 0.0
H1 H 0.82715 0.45501 0.72849 0.0
H2 H 0.06833 0.34487 0.53724 0.0
H3 H 0.70823 0.57022 0.45881 0.0
H4 H 0.70814 0.56884 0.61907 0.0
H5 H 0.82683 0.68377 0.34935 0.0
H6 H 0.06795 0.79412 0.54025 0.0
H7 H 0.82542 0.68301 0.72952 0.0
C8 C 0.86176 0.44014 0.43106 0.0
C9 C 0.95283 0.39855 0.43003 0.0
C10 C 0.81892 0.46937 0.5385 0.0
C11 C 0.86242 0.43965 0.64545 0.0
C12 C 0.95353 0.39837 0.64557 0.0
C13 C -0.00025 0.38374 0.53756 0.0
C14 C 0.75286 0.56906 0.53893 0.0
C15 C 0.81815 0.66981 0.53938 0.0
C16 C 0.86201 0.6992 0.43236 0.0
C17 C 0.95322 0.74035 0.43208 0.0
C18 C -0.00067 0.75519 0.54006 0.0
C19 C 0.95231 0.74047 0.64766 0.0
C20 C 0.8612 0.69878 0.64676 0.0
H21 H 0.40505 0.1662 0.34822 0.0
H22 H 0.40542 0.16516 0.72902 0.0
H23 H 0.19112 0.98824 0.53951 0.0
H24 H 0.50598 0.29542 0.45911 0.0
H25 H 0.50554 0.29585 0.61642 0.0
H26 H 0.60641 0.16544 0.34877 0.0
H27 H 0.81978 0.98817 0.54085 0.0
H28 H 0.60611 0.1674 0.72938 0.0
C29 C 0.37621 0.13529 0.43083 0.0
C30 C 0.29173 0.07504 0.43099 0.0
C31 C 0.41968 0.16393 0.53859 0.0
C32 C 0.3764 0.1347 0.64672 0.0
C33 C 0.29191 0.07449 0.64731 0.0
C34 C 0.25519 1.03747 0.53931 0.0
C35 C 0.50551 0.2384 0.53821 0.0
C36 C 0.59223 0.16577 0.53905 0.0
C37 C 0.63529 0.13544 0.4316 0.0
C38 C 0.71951 0.07482 0.43221 0.0
C39 C 0.75596 1.03783 0.54035 0.0
C40 C 0.71933 0.07597 0.64775 0.0
C41 C 0.63511 0.13658 0.64715 0.0
H42 H 0.60155 0.38345 0.13412 0.0
H43 H 0.60121 0.75513 0.13387 0.0
H44 H 0.81884 0.57053 0.95854 0.0
H45 H 0.50051 0.49184 0.26613 0.0
H46 H 0.50084 0.64492 0.26663 0.0
H47 H 0.40011 0.38382 0.13346 0.0
H48 H 0.1821 0.57109 0.96086 0.0
H49 H 0.40062 0.75554 0.13459 0.0
C50 C 0.63115 0.46388 0.10336 0.0
C51 C 0.7166 0.4633 0.04378 0.0
C52 C 0.58735 0.56928 0.13185 0.0
C53 C 0.63095 0.6751 0.10323 0.0
C54 C 0.71641 0.67658 0.04375 0.0
C55 C 0.75404 0.57018 1.00741 0.0
C56 C 0.50096 0.56884 0.20749 0.0
C57 C 0.41383 0.56965 0.13332 0.0
C58 C 0.3703 0.46439 0.10369 0.0
C59 C 0.28467 0.46406 0.04475 0.0
C60 C 0.24705 0.57073 1.0092 0.0
C61 C 0.28494 0.67687 0.04535 0.0
C62 C 0.37059 0.67549 0.10434 0.0
C63 C 0.98718 0.33387 0.74827 0.0
C64 C 0.98565 0.33342 0.32779 0.0
C65 C 0.98513 0.80587 0.74976 0.0
C66 C 0.98706 0.80487 0.32931 0.0
C67 C 0.22321 0.78094 0.04035 0.0
C68 C 0.22289 0.36004 0.03917 0.0
C69 C 0.77851 0.78073 0.03909 0.0
C70 C 0.77875 0.35936 0.03873 0.0
C71 C 0.78122 0.06903 0.32755 0.0
C72 C 0.22952 0.07024 0.3263 0.0
C73 C 0.781 0.0711 0.75239 0.0
C74 C 0.22975 0.06946 0.75231 0.0
Eu75 Eu 9e-05 0.28653 0.03813 0.0
O76 O 0.08936 0.17359 0.13866 0.0
O77 O 0.91709 0.16969 0.93805 0.0
Eu78 Eu 0.18757 0.07057 0.03943 0.0
Eu79 Eu 0.81807 0.07017 0.03998 0.0
O80 O 0.08978 0.17388 0.93881 0.0
O81 O 0.91741 0.16951 0.13996 0.0
Eu82 Eu 0.00594 0.06986 0.82733 0.0
Eu83 Eu 0.00587 0.06905 0.25114 0.0
O84 O 0.08995 0.96627 0.93976 0.0
O85 O 0.08956 0.96585 0.13879 0.0
O86 O 0.91706 0.96934 0.14031 0.0
O87 O 0.91704 0.97027 0.93918 0.0
Eu88 Eu 7e-05 0.85297 0.03933 0.0
O89 O 0.97571 0.37357 0.85797 0.0
O90 O 0.97559 0.37366 0.21765 0.0
O91 O 0.97576 0.76547 0.85995 0.0
O92 O 0.97554 0.76542 0.21948 0.0
O93 O 0.25811 0.88908 0.04337 0.0
O94 O 0.25784 0.2521 0.0429 0.0
O95 O 0.7449 0.8894 0.04313 0.0
O96 O 0.74507 0.25069 0.04307 0.0
O97 O 0.87168 0.06649 0.35326 0.0
O98 O 0.13941 0.06855 0.35306 0.0
O99 O 0.87146 0.06991 0.72627 0.0
O100 O 0.13968 0.06671 0.7257 0.0
O101 O 0.86813 0.75305 0.03698 0.0
O102 O 0.13312 0.75381 0.03849 0.0
O103 O 0.86842 0.387 0.03596 0.0
O104 O 0.13279 0.38678 0.03662 0.0
O105 O 0.00846 0.22729 0.35644 0.0
O106 O 0.01125 0.91049 0.35703 0.0
O107 O 0.01122 0.22816 0.72077 0.0
O108 O 0.00743 0.91221 0.72112 0.0
O109 O 0.26434 0.07396 0.8618 0.0
O110 O 0.26423 0.07337 0.21674 0.0
O111 O 0.74488 0.07358 0.86117 0.0
O112 O 0.74512 0.07309 0.21895 0.0
loop_
_geom_bond_atom_site_label_1
_geom_bond_atom_site_label_2
_geom_bond_distance
_geom_bond_site_symmetry_2
_ccdc_geom_bond_type
H0 C8 0.930 . S
H1 C11 0.930 . S
H2 C13 0.930 . S
H3 C14 0.970 . S
H4 C14 0.970 . S
H5 C16 0.930 . S
H6 C18 0.930 . S
H7 C20 0.930 . S
C8 H0 0.930 . S
C8 C9 1.382 . S
C8 C10 1.426 . S
C9 C8 1.382 . S
C9 C13 1.389 1_655 S
C10 C8 1.426 . S
C10 C11 1.375 . S
C10 C14 1.532 . S
C11 H1 0.930 . S
C11 C10 1.375 . S
C11 C12 1.416 . S
C12 C11 1.416 . S
C12 C13 1.371 1_655 S
C13 H2 0.930 . S
C13 C9 1.389 1_455 S
C13 C12 1.371 1_455 S
C14 H3 0.970 . S
C14 H4 0.970 . S
C14 C10 1.532 . S
C14 C15 1.499 . S
C15 C14 1.499 . S
C15 C16 1.370 . S
C15 C20 1.415 . S
C16 H5 0.930 . S
C16 C15 1.370 . S
C16 C17 1.407 . S
C17 C16 1.407 . S
C17 C18 1.365 1_655 S
C18 H6 0.930 . S
C18 C17 1.365 1_455 S
C18 C19 1.393 1_455 S
C19 C18 1.393 1_655 S
C19 C20 1.387 . S
C20 H7 0.930 . S
C20 C15 1.415 . S
C20 C19 1.387 . S
H21 C29 0.930 . S
H22 C32 0.930 . S
H23 C34 0.930 . S
H24 C35 0.970 . S
H25 C35 0.970 . S
H26 C37 0.930 . S
H27 C39 0.930 . S
H28 C41 0.930 . S
C29 H21 0.930 . S
C29 C30 1.382 . S
C29 C31 1.426 . S
C30 C29 1.382 . S
C30 C34 1.389 1_545 S
C31 C29 1.426 . S
C31 C32 1.375 . S
C31 C35 1.532 . S
C32 H22 0.930 . S
C32 C31 1.375 . S
C32 C33 1.416 . S
C33 C32 1.416 . S
C33 C34 1.371 1_545 S
C34 H23 0.930 . S
C34 C30 1.389 1_565 S
C34 C33 1.371 1_565 S
C35 H24 0.970 . S
C35 H25 0.970 . S
C35 C31 1.532 . S
C35 C36 1.499 . S
C36 C35 1.499 . S
C36 C37 1.370 . S
C36 C41 1.415 . S
C37 H26 0.930 . S
C37 C36 1.370 . S
C37 C38 1.407 . S
C38 C37 1.407 . S
C38 C39 1.365 1_545 S
C39 H27 0.930 . S
C39 C38 1.365 1_565 S
C39 C40 1.393 1_565 S
C40 C39 1.393 1_545 S
C40 C41 1.387 . S
C41 H28 0.930 . S
C41 C36 1.415 . S
C41 C40 1.387 . S
H42 C50 0.930 . S
H43 C53 0.930 . S
H44 C55 0.930 . S
H45 C56 0.970 . S
H46 C56 0.970 . S
H47 C58 0.930 . S
H48 C60 0.930 . S
H49 C62 0.930 . S
C50 H42 0.930 . S
C50 C51 1.382 . S
C50 C52 1.426 . S
C51 C50 1.382 . S
C51 C55 1.389 1_554 S
C52 C50 1.426 . S
C52 C53 1.375 . S
C52 C56 1.532 . S
C53 H43 0.930 . S
C53 C52 1.375 . S
C53 C54 1.416 . S
C54 C53 1.416 . S
C54 C55 1.371 1_554 S
C55 H44 0.930 . S
C55 C51 1.389 1_556 S
C55 C54 1.371 1_556 S
C56 H45 0.970 . S
C56 H46 0.970 . S
C56 C52 1.532 . S
C56 C57 1.499 . S
C57 C56 1.499 . S
C57 C58 1.370 . S
C57 C62 1.415 . S
C58 H47 0.930 . S
C58 C57 1.370 . S
C58 C59 1.407 . S
C59 C58 1.407 . S
C59 C60 1.365 1_554 S
C60 H48 0.930 . S
C60 C59 1.365 1_556 S
C60 C61 1.393 1_556 S
C61 C60 1.393 1_554 S
C61 C62 1.387 . S
C62 H49 0.930 . S
C62 C57 1.415 . S
C62 C61 1.387 . S
C63 O89 1.283 . S
C63 O107 1.283 . S
C64 O90 1.283 1_655 S
C64 O105 1.283 . S
C65 O91 1.283 1_455 S
C65 O108 1.283 . S
C66 O92 1.283 . S
C66 O106 1.283 . S
C67 O93 1.283 . S
C67 O102 1.283 . S
C68 O94 1.283 . S
C68 O104 1.283 . S
C69 O95 1.283 . S
C69 O101 1.283 . S
C70 O96 1.283 . S
C70 O103 1.283 . S
C71 O97 1.283 . S
C71 O112 1.283 . S
C72 O98 1.283 . S
C72 O110 1.283 . S
C73 O99 1.283 . S
C73 O111 1.283 . S
C74 O100 1.283 . S
C74 O109 1.283 . S
Eu75 O76 2.370 . S
Eu75 O77 2.370 1_454 S
Eu75 O80 2.370 1_554 S
Eu75 O81 2.370 1_455 S
Eu75 O89 2.363 1_554 S
Eu75 O90 2.363 . S
Eu75 O103 2.363 1_455 S
Eu75 O104 2.363 . S
O76 Eu75 2.370 . S
O76 Eu78 2.370 . S
O76 Eu83 2.364 1_455 S
O77 Eu75 2.370 1_656 S
O77 Eu79 2.370 1_556 S
O77 Eu82 2.370 1_655 S
Eu78 O76 2.370 . S
Eu78 O80 2.370 1_554 S
Eu78 O84 2.370 1_544 S
Eu78 O85 2.370 1_545 S
Eu78 O93 2.363 1_545 S
Eu78 O94 2.363 . S
Eu78 O109 2.363 1_554 S
Eu78 O110 2.363 . S
Eu79 O77 2.370 1_554 S
Eu79 O81 2.370 . S
Eu79 O86 2.370 1_545 S
Eu79 O87 2.370 1_544 S
Eu79 O95 2.363 1_545 S
Eu79 O96 2.363 . S
Eu79 O111 2.363 1_554 S
Eu79 O112 2.363 . S
O80 Eu75 2.370 1_556 S
O80 Eu78 2.370 1_556 S
O80 Eu82 2.370 . S
O81 Eu75 2.370 1_655 S
O81 Eu79 2.370 . S
O81 Eu83 2.377 . S
Eu82 O77 2.370 1_455 S
Eu82 O80 2.370 . S
Eu82 O84 2.370 1_545 S
Eu82 O87 2.370 1_445 S
Eu82 O99 2.363 1_455 S
Eu82 O100 2.363 . S
Eu82 O107 2.363 . S
Eu82 O108 2.363 1_545 S
Eu83 O76 2.364 1_655 S
Eu83 O81 2.377 . S
Eu83 O85 2.364 1_645 S
Eu83 O86 2.376 1_545 S
Eu83 O97 2.374 . S
Eu83 O98 2.352 1_655 S
Eu83 O105 2.363 . S
Eu83 O106 2.363 1_545 S
O84 Eu78 2.370 1_566 S
O84 Eu82 2.370 1_565 S
O84 Eu88 2.365 1_456 S
O85 Eu78 2.370 1_565 S
O85 Eu83 2.364 1_465 S
O85 Eu88 2.365 1_455 S
O86 Eu79 2.370 1_565 S
O86 Eu83 2.376 1_565 S
O86 Eu88 2.375 . S
O87 Eu79 2.370 1_566 S
O87 Eu82 2.370 1_665 S
O87 Eu88 2.375 1_556 S
Eu88 O84 2.365 1_654 S
Eu88 O85 2.365 1_655 S
Eu88 O86 2.375 . S
Eu88 O87 2.375 1_554 S
Eu88 O91 2.363 1_554 S
Eu88 O92 2.363 . S
Eu88 O101 2.372 . S
Eu88 O102 2.354 1_655 S
O89 C63 1.283 . S
O89 Eu75 2.363 1_556 S
O90 C64 1.283 1_455 S
O90 Eu75 2.363 . S
O91 C65 1.283 1_655 S
O91 Eu88 2.363 1_556 S
O92 C66 1.283 . S
O92 Eu88 2.363 . S
O93 C67 1.283 . S
O93 Eu78 2.363 1_565 S
O94 C68 1.283 . S
O94 Eu78 2.363 . S
O95 C69 1.283 . S
O95 Eu79 2.363 1_565 S
O96 C70 1.283 . S
O96 Eu79 2.363 . S
O97 C71 1.283 . S
O97 Eu83 2.374 . S
O98 C72 1.283 . S
O98 Eu83 2.352 1_455 S
O99 C73 1.283 . S
O99 Eu82 2.363 1_655 S
O100 C74 1.283 . S
O100 Eu82 2.363 . S
O101 C69 1.283 . S
O101 Eu88 2.372 . S
O102 C67 1.283 . S
O102 Eu88 2.354 1_455 S
O103 C70 1.283 . S
O103 Eu75 2.363 1_655 S
O104 C68 1.283 . S
O104 Eu75 2.363 . S
O105 C64 1.283 . S
O105 Eu83 2.363 . S
O106 C66 1.283 . S
O106 Eu83 2.363 1_565 S
O107 C63 1.283 . S
O107 Eu82 2.363 . S
O108 C65 1.283 . S
O108 Eu82 2.363 1_565 S
O109 C74 1.283 . S
O109 Eu78 2.363 1_556 S
O110 C72 1.283 . S
O110 Eu78 2.363 . S
O111 C73 1.283 . S
O111 Eu79 2.363 1_556 S
O112 C71 1.283 . S
O112 Eu79 2.363 . S
C64 C9 1.497 . S
C71 C38 1.632 . S
C66 C17 1.469 . S
C72 C30 1.643 . S
C19 C65 1.497 1_655 S
C74 C33 1.619 . S
C12 C63 1.482 1_655 S
C40 C73 1.640 . S
C59 C68 2.138 . S
C61 C67 2.141 . S
C70 C51 2.143 . S
C69 C54 2.128 . S
