# Generated by pormake.
# Topology dag, (6,3)-cn, num edge types: 1
# Building blocks:
#     Node 0, Type 0, BuildingBlock: OJICUG_clean_sbu_0, # of connection points: 6
#     Node 1, Type 0, BuildingBlock: OJICUG_clean_sbu_0, # of connection points: 6
#     Node 2, Type 0, BuildingBlock: OJICUG_clean_sbu_0, # of connection points: 6
#     Node 3, Type 0, BuildingBlock: OJICUG_clean_sbu_0, # of connection points: 6
#     Node 4, Type 1, BuildingBlock: ESEHIV_clean_linker_0, # of connection points: 3
#     Node 5, Type 1, BuildingBlock: ESEHIV_clean_linker_0, # of connection points: 3
#     Node 6, Type 1, BuildingBlock: ESEHIV_clean_linker_0, # of connection points: 3
#     Node 7, Type 1, BuildingBlock: ESEHIV_clean_linker_0, # of connection points: 3
#     Node 8, Type 1, BuildingBlock: ESEHIV_clean_linker_0, # of connection points: 3
#     Node 9, Type 1, BuildingBlock: ESEHIV_clean_linker_0, # of connection points: 3
#     Node 10, Type 1, BuildingBlock: ESEHIV_clean_linker_0, # of connection points: 3
#     Node 11, Type 1, BuildingBlock: ESEHIV_clean_linker_0, # of connection points: 3
#     Edge 12, Type (0, 1), None
#     Edge 13, Type (0, 1), None
#     Edge 14, Type (0, 1), None
#     Edge 15, Type (0, 1), None
#     Edge 16, Type (0, 1), None
#     Edge 17, Type (0, 1), None
#     Edge 18, Type (0, 1), None
#     Edge 19, Type (0, 1), None
#     Edge 20, Type (0, 1), None
#     Edge 21, Type (0, 1), None
#     Edge 22, Type (0, 1), None
#     Edge 23, Type (0, 1), None
#     Edge 24, Type (0, 1), None
#     Edge 25, Type (0, 1), None
#     Edge 26, Type (0, 1), None
#     Edge 27, Type (0, 1), None
#     Edge 28, Type (0, 1), None
#     Edge 29, Type (0, 1), None
#     Edge 30, Type (0, 1), None
#     Edge 31, Type (0, 1), None
#     Edge 32, Type (0, 1), None
#     Edge 33, Type (0, 1), None
#     Edge 34, Type (0, 1), None
#     Edge 35, Type (0, 1), None
# Relax obj value: 0.252
# Max RMSD: 0.199
# Mean RMSD: 0.164
data_MOF--net-dag--node1-OJICUG_clean_sbu_0--node2-ESEHIV_clean_linker_0--edge1-none
_symmetry_space_group_name_H-M    P1
_symmetry_Int_Tables_number       1
_symmetry_cell_setting            triclinic
loop_
_symmetry_equiv_pos_as_xyz
'x, y, z'
_cell_length_a     14.93035
_cell_length_b     15.752483
_cell_length_c     15.198782
_cell_angle_alpha  92.700031
_cell_angle_beta   90.007407
_cell_angle_gamma 90.000661
loop_
_atom_site_label
_atom_site_type_symbol
_atom_site_fract_x
_atom_site_fract_y
_atom_site_fract_z
_atom_type_partial_charge
Sc0 Sc 0.05819 0.89306 0.00987 0.0
Sc1 Sc 0.09642 0.68262 0.00042 0.0
Sc2 Sc 0.26751 0.83245 0.04851 0.0
O3 O 0.14252 0.80038 0.02071 0.0
C4 C 0.21022 0.96054 0.90186 0.0
C5 C -0.00973 0.77949 0.86801 0.0
C6 C 0.28495 0.68301 0.906 0.0
C7 C 0.95047 0.77898 0.12093 0.0
C8 C 0.16334 0.9644 0.15991 0.0
C9 C 0.22948 0.66874 0.15876 0.0
O10 O 0.13316 0.9255 0.89474 0.0
O11 O 0.04492 0.71768 0.86883 0.0
O12 O 0.31043 0.75687 0.93425 0.0
O13 O -0.00405 0.84765 0.12441 0.0
O14 O 0.22033 0.90541 0.16923 0.0
O15 O 0.15276 0.64857 0.12645 0.0
O16 O 0.13953 -0.02014 0.08332 0.0
O17 O 0.97046 0.71559 0.06867 0.0
O18 O 0.28019 0.72443 0.1266 0.0
O19 O 0.96739 0.8134 0.94024 0.0
O20 O 0.26238 0.94396 0.96586 0.0
O21 O 0.2169 0.64485 0.93529 0.0
Sc22 Sc 0.76752 0.61987 0.47 0.0
Sc23 Sc 0.59643 0.76972 0.518 0.0
Sc24 Sc 0.5582 0.55928 0.50864 0.0
O25 O 0.64253 0.65195 0.49777 0.0
C26 C 0.66334 0.48787 0.35866 0.0
C27 C 0.72949 0.78352 0.35967 0.0
C28 C 0.45048 0.6733 0.39751 0.0
C29 C 0.78496 0.76938 0.61244 0.0
C30 C 0.71023 0.49185 0.61672 0.0
C31 C 0.49025 0.67291 0.65043 0.0
O32 O 0.72034 0.54685 0.34931 0.0
O33 O 0.65279 0.80372 0.39197 0.0
O34 O 0.49596 0.60463 0.39407 0.0
O35 O 0.81045 0.69552 0.58422 0.0
O36 O 0.63318 0.5269 0.62381 0.0
O37 O 0.54492 0.73471 0.64961 0.0
O38 O 0.76239 0.5084 0.55272 0.0
O39 O 0.7169 0.80752 0.58314 0.0
O40 O 0.46739 0.63897 0.5782 0.0
O41 O 0.78019 0.72783 0.39183 0.0
O42 O 0.63953 0.47245 0.43525 0.0
O43 O 0.47047 0.73671 0.44973 0.0
Sc44 Sc 0.86824 0.2697 0.01809 0.0
Sc45 Sc 0.69715 0.11987 0.97001 0.0
Sc46 Sc 0.90648 0.05927 0.00864 0.0
O47 O 0.82215 0.15194 -0.0022 0.0
C48 C 0.0142 0.17333 0.89759 0.0
C49 C 0.73517 0.28359 0.85977 0.0
C50 C 0.80131 -0.01211 0.85862 0.0
C51 C 0.67972 0.26932 0.11251 0.0
C52 C 0.97445 0.17286 0.15049 0.0
C53 C 0.75448 -0.00822 0.11666 0.0
O54 O -0.0058 0.23673 0.94982 0.0
O55 O 0.68447 0.22787 0.8919 0.0
O56 O 0.82514 0.97246 0.93521 0.0
O57 O 0.74777 0.30747 0.08323 0.0
O58 O -0.00269 0.13894 0.07826 0.0
O59 O 0.7023 0.00836 0.05268 0.0
O60 O 0.91974 0.23463 0.14967 0.0
O61 O 0.65423 0.19546 0.08426 0.0
O62 O 0.83152 0.02686 0.12379 0.0
O63 O 0.81189 0.30375 0.89206 0.0
O64 O 0.9687 0.10467 0.8941 0.0
O65 O 0.74433 0.0469 0.8493 0.0
Sc66 Sc 0.40647 0.39304 0.50987 0.0
Sc67 Sc 0.19714 0.33245 0.5485 0.0
Sc68 Sc 0.36823 0.18261 0.50052 0.0
O69 O 0.32214 0.30037 0.52075 0.0
C70 C 0.47447 0.27937 0.3681 0.0
C71 C 0.25447 0.46047 0.40178 0.0
C72 C 0.1797 0.18293 0.40608 0.0
C73 C 0.30131 0.46447 0.65984 0.0
C74 C 0.51419 0.27904 0.62101 0.0
C75 C 0.23515 0.16879 0.65884 0.0
O76 O 0.49731 0.31334 0.44032 0.0
O77 O 0.20229 0.44392 0.46576 0.0
O78 O 0.24777 0.1448 0.43537 0.0
O79 O 0.32514 0.47987 0.58325 0.0
O80 O 0.49419 0.21561 0.56881 0.0
O81 O 0.18447 0.2245 0.62668 0.0
O82 O 0.46868 0.3477 0.62446 0.0
O83 O 0.24432 0.40548 0.66918 0.0
O84 O 0.31187 0.1486 0.62655 0.0
O85 O 0.33151 0.42539 0.39468 0.0
O86 O 0.41974 0.21762 0.36892 0.0
O87 O 0.15422 0.2568 0.43429 0.0
H88 H -0.00592 0.00854 0.1625 0.0
H89 H 0.23109 0.03769 0.31544 0.0
H90 H 0.03916 0.24215 0.31036 0.0
C91 C 0.03163 0.04443 0.21253 0.0
C92 C 0.00993 0.13084 0.22836 0.0
C93 C 0.11801 0.01574 0.23165 0.0
C94 C 0.16513 0.06011 0.29793 0.0
C95 C 0.13021 0.13783 0.33503 0.0
C96 C 0.05585 0.17613 0.29519 0.0
H97 H 0.47058 0.50861 0.66248 0.0
H98 H 0.23356 0.53778 0.81534 0.0
H99 H 0.42548 0.74226 0.81028 0.0
C100 C 0.43301 0.54453 0.71249 0.0
C101 C 0.45472 0.63093 0.72831 0.0
C102 C 0.34663 0.51584 0.73158 0.0
C103 C 0.29952 0.56021 0.79783 0.0
C104 C 0.33443 0.63794 0.83495 0.0
C105 C 0.40879 0.67624 0.79511 0.0
H106 H 0.83159 0.86351 0.0383 0.0
H107 H 0.8703 0.72319 0.26484 0.0
H108 H 0.6781 0.9288 0.27097 0.0
C109 C 0.80872 0.84882 0.10318 0.0
C110 C 0.75183 0.90537 0.14914 0.0
C111 C 0.8577 0.79016 0.1483 0.0
C112 C 0.83153 0.77053 0.232 0.0
C113 C 0.75962 0.81439 0.2742 0.0
C114 C 0.72341 0.88645 0.23464 0.0
H115 H 0.63304 0.36358 0.5384 0.0
H116 H 0.59437 0.22323 0.7649 0.0
H117 H 0.78656 0.42887 0.77109 0.0
C118 C 0.65592 0.34889 0.60327 0.0
C119 C 0.71281 0.40544 0.64924 0.0
C120 C 0.60696 0.29021 0.64838 0.0
C121 C 0.63314 0.27058 0.73208 0.0
C122 C 0.70504 0.31446 0.77429 0.0
C123 C 0.74124 0.38652 0.73475 0.0
H124 H 0.49408 0.44369 0.35605 0.0
H125 H 0.73108 0.41456 0.20315 0.0
H126 H 0.53921 0.21006 0.20824 0.0
C127 C 0.53165 0.40779 0.30603 0.0
C128 C 0.50996 0.32138 0.29022 0.0
C129 C 0.61802 0.43649 0.28692 0.0
C130 C 0.66513 0.39212 0.22066 0.0
C131 C 0.63023 0.31439 0.18356 0.0
C132 C 0.55589 0.27608 0.2234 0.0
H133 H 0.13309 0.08881 0.98021 0.0
H134 H 0.09436 0.22915 0.75368 0.0
H135 H 0.28654 0.02352 0.74753 0.0
C136 C 0.15594 0.10351 0.91533 0.0
C137 C 0.21282 0.04695 0.86937 0.0
C138 C 0.10697 0.16218 0.87022 0.0
C139 C 0.13313 0.18181 0.78652 0.0
C140 C 0.20503 0.13794 0.74431 0.0
C141 C 0.24123 0.06587 0.78386 0.0
H142 H 0.33163 0.58874 0.48012 0.0
H143 H 0.37028 0.72908 0.25361 0.0
H144 H 0.17809 0.52345 0.24744 0.0
C145 C 0.30875 0.60342 0.41524 0.0
C146 C 0.25184 0.54688 0.36928 0.0
C147 C 0.35771 0.66209 0.37013 0.0
C148 C 0.33152 0.68173 0.28643 0.0
C149 C 0.25961 0.63786 0.24423 0.0
C150 C 0.22341 0.5658 0.28377 0.0
H151 H 0.97055 0.94384 0.856 0.0
H152 H 0.92552 0.71017 0.70815 0.0
H153 H 0.73357 0.91461 0.70309 0.0
C154 C 0.93304 0.90789 0.80597 0.0
C155 C 0.84665 0.93657 0.78687 0.0
C156 C 0.95474 0.82149 0.79014 0.0
C157 C 0.90882 0.77619 0.72332 0.0
C158 C 0.83445 0.81448 0.68349 0.0
C159 C 0.79953 0.8922 0.7206 0.0
loop_
_geom_bond_atom_site_label_1
_geom_bond_atom_site_label_2
_geom_bond_distance
_geom_bond_site_symmetry_2
_ccdc_geom_bond_type
Sc0 O3 2.025 . S
Sc0 O10 2.105 1_554 S
Sc0 O13 2.105 1_455 S
Sc0 O16 2.105 . S
Sc0 O19 2.105 1_554 S
Sc1 O3 2.025 . S
Sc1 O11 2.105 1_554 S
Sc1 O15 2.105 . S
Sc1 O17 2.105 1_455 S
Sc1 O21 2.105 1_554 S
Sc2 O3 2.025 . S
Sc2 O12 2.105 . S
Sc2 O14 2.105 . S
Sc2 O18 2.105 . S
Sc2 O20 2.105 . S
O3 Sc0 2.025 . S
O3 Sc1 2.025 . S
O3 Sc2 2.025 . S
C4 O10 1.268 . S
C4 O20 1.268 1_556 S
C5 O11 1.268 . S
C5 O19 1.268 . S
C6 O12 1.268 1_556 S
C6 O21 1.268 . S
C7 O13 1.268 . S
C7 O17 1.268 . S
C8 O14 1.268 . S
C8 O16 1.268 . S
C9 O15 1.268 . S
C9 O18 1.268 . S
O10 Sc0 2.105 1_556 S
O10 C4 1.268 . S
O11 Sc1 2.105 1_556 S
O11 C5 1.268 . S
O12 Sc2 2.105 . S
O12 C6 1.268 1_554 S
O13 Sc0 2.105 1_655 S
O13 C7 1.268 . S
O14 Sc2 2.105 . S
O14 C8 1.268 . S
O15 Sc1 2.105 . S
O15 C9 1.268 . S
O16 Sc0 2.105 . S
O16 C8 1.268 . S
O17 Sc1 2.105 1_655 S
O17 C7 1.268 . S
O18 Sc2 2.105 . S
O18 C9 1.268 . S
O19 Sc0 2.105 1_556 S
O19 C5 1.268 . S
O20 Sc2 2.105 . S
O20 C4 1.268 1_554 S
O21 Sc1 2.105 1_556 S
O21 C6 1.268 . S
Sc22 O25 2.025 . S
Sc22 O32 2.105 . S
Sc22 O35 2.105 . S
Sc22 O38 2.105 . S
Sc22 O41 2.105 . S
Sc23 O25 2.025 . S
Sc23 O33 2.105 . S
Sc23 O37 2.105 . S
Sc23 O39 2.105 . S
Sc23 O43 2.105 . S
Sc24 O25 2.025 . S
Sc24 O34 2.105 . S
Sc24 O36 2.105 . S
Sc24 O40 2.105 . S
Sc24 O42 2.105 . S
O25 Sc22 2.025 . S
O25 Sc23 2.025 . S
O25 Sc24 2.025 . S
C26 O32 1.268 . S
C26 O42 1.268 . S
C27 O33 1.268 . S
C27 O41 1.268 . S
C28 O34 1.268 . S
C28 O43 1.268 . S
C29 O35 1.268 . S
C29 O39 1.268 . S
C30 O36 1.268 . S
C30 O38 1.268 . S
C31 O37 1.268 . S
C31 O40 1.268 . S
O32 Sc22 2.105 . S
O32 C26 1.268 . S
O33 Sc23 2.105 . S
O33 C27 1.268 . S
O34 Sc24 2.105 . S
O34 C28 1.268 . S
O35 Sc22 2.105 . S
O35 C29 1.268 . S
O36 Sc24 2.105 . S
O36 C30 1.268 . S
O37 Sc23 2.105 . S
O37 C31 1.268 . S
O38 Sc22 2.105 . S
O38 C30 1.268 . S
O39 Sc23 2.105 . S
O39 C29 1.268 . S
O40 Sc24 2.105 . S
O40 C31 1.268 . S
O41 Sc22 2.105 . S
O41 C27 1.268 . S
O42 Sc24 2.105 . S
O42 C26 1.268 . S
O43 Sc23 2.105 . S
O43 C28 1.268 . S
Sc44 O47 2.025 . S
Sc44 O54 2.105 1_654 S
Sc44 O57 2.105 . S
Sc44 O60 2.105 . S
Sc44 O63 2.105 1_554 S
Sc45 O47 2.025 1_556 S
Sc45 O55 2.105 . S
Sc45 O59 2.105 1_556 S
Sc45 O61 2.105 1_556 S
Sc45 O65 2.105 . S
Sc46 O47 2.025 . S
Sc46 O56 2.105 1_554 S
Sc46 O58 2.105 . S
Sc46 O62 2.105 . S
Sc46 O64 2.105 1_654 S
O47 Sc44 2.025 . S
O47 Sc45 2.025 1_554 S
O47 Sc46 2.025 . S
C48 O54 1.268 . S
C48 O64 1.268 . S
C49 O55 1.268 . S
C49 O63 1.268 . S
C50 O56 1.268 . S
C50 O65 1.268 . S
C51 O57 1.268 . S
C51 O61 1.268 . S
C52 O58 1.268 . S
C52 O60 1.268 . S
C53 O59 1.268 . S
C53 O62 1.268 . S
O54 Sc44 2.105 1_456 S
O54 C48 1.268 . S
O55 Sc45 2.105 . S
O55 C49 1.268 . S
O56 Sc46 2.105 1_556 S
O56 C50 1.268 . S
O57 Sc44 2.105 . S
O57 C51 1.268 . S
O58 Sc46 2.105 . S
O58 C52 1.268 . S
O59 Sc45 2.105 1_554 S
O59 C53 1.268 . S
O60 Sc44 2.105 . S
O60 C52 1.268 . S
O61 Sc45 2.105 1_554 S
O61 C51 1.268 . S
O62 Sc46 2.105 . S
O62 C53 1.268 . S
O63 Sc44 2.105 1_556 S
O63 C49 1.268 . S
O64 Sc46 2.105 1_456 S
O64 C48 1.268 . S
O65 Sc45 2.105 . S
O65 C50 1.268 . S
Sc66 O69 2.025 . S
Sc66 O76 2.105 . S
Sc66 O79 2.105 . S
Sc66 O82 2.105 . S
Sc66 O85 2.105 . S
Sc67 O69 2.025 . S
Sc67 O77 2.105 . S
Sc67 O81 2.105 . S
Sc67 O83 2.105 . S
Sc67 O87 2.105 . S
Sc68 O69 2.025 . S
Sc68 O78 2.105 . S
Sc68 O80 2.105 . S
Sc68 O84 2.105 . S
Sc68 O86 2.105 . S
O69 Sc66 2.025 . S
O69 Sc67 2.025 . S
O69 Sc68 2.025 . S
C70 O76 1.268 . S
C70 O86 1.268 . S
C71 O77 1.268 . S
C71 O85 1.268 . S
C72 O78 1.268 . S
C72 O87 1.268 . S
C73 O79 1.268 . S
C73 O83 1.268 . S
C74 O80 1.268 . S
C74 O82 1.268 . S
C75 O81 1.268 . S
C75 O84 1.268 . S
O76 Sc66 2.105 . S
O76 C70 1.268 . S
O77 Sc67 2.105 . S
O77 C71 1.268 . S
O78 Sc68 2.105 . S
O78 C72 1.268 . S
O79 Sc66 2.105 . S
O79 C73 1.268 . S
O80 Sc68 2.105 . S
O80 C74 1.268 . S
O81 Sc67 2.105 . S
O81 C75 1.268 . S
O82 Sc66 2.105 . S
O82 C74 1.268 . S
O83 Sc67 2.105 . S
O83 C73 1.268 . S
O84 Sc68 2.105 . S
O84 C75 1.268 . S
O85 Sc66 2.105 . S
O85 C71 1.268 . S
O86 Sc68 2.105 . S
O86 C70 1.268 . S
O87 Sc67 2.105 . S
O87 C72 1.268 . S
H88 C91 0.931 1_655 S
H89 C94 0.928 . S
H90 C96 0.930 . S
C91 H88 0.931 1_455 S
C91 C92 1.413 1_455 S
C91 C93 1.360 . S
C92 C91 1.413 1_655 S
C92 C96 1.429 1_655 S
C93 C91 1.360 . S
C93 C94 1.372 . S
C94 H89 0.928 . S
C94 C93 1.372 . S
C94 C95 1.404 . S
C95 C94 1.404 . S
C95 C96 1.391 . S
C96 H90 0.930 . S
C96 C92 1.429 1_455 S
C96 C95 1.391 . S
H97 C100 0.931 . S
H98 C103 0.928 . S
H99 C105 0.930 . S
C100 H97 0.931 . S
C100 C101 1.413 . S
C100 C102 1.360 . S
C101 C100 1.413 . S
C101 C105 1.429 . S
C102 C100 1.360 . S
C102 C103 1.372 . S
C103 H98 0.928 . S
C103 C102 1.372 . S
C103 C104 1.404 . S
C104 C103 1.404 . S
C104 C105 1.391 . S
C105 H99 0.930 . S
C105 C101 1.429 . S
C105 C104 1.391 . S
H106 C109 0.931 . S
H107 C112 0.928 . S
H108 C114 0.930 . S
C109 H106 0.931 . S
C109 C110 1.413 . S
C109 C111 1.360 . S
C110 C109 1.413 . S
C110 C114 1.429 . S
C111 C109 1.360 . S
C111 C112 1.372 . S
C112 H107 0.928 . S
C112 C111 1.372 . S
C112 C113 1.404 . S
C113 C112 1.404 . S
C113 C114 1.391 . S
C114 H108 0.930 . S
C114 C110 1.429 . S
C114 C113 1.391 . S
H115 C118 0.931 . S
H116 C121 0.928 . S
H117 C123 0.930 . S
C118 H115 0.931 . S
C118 C119 1.413 . S
C118 C120 1.360 . S
C119 C118 1.413 . S
C119 C123 1.429 . S
C120 C118 1.360 . S
C120 C121 1.372 . S
C121 H116 0.928 . S
C121 C120 1.372 . S
C121 C122 1.404 . S
C122 C121 1.404 . S
C122 C123 1.391 . S
C123 H117 0.930 . S
C123 C119 1.429 . S
C123 C122 1.391 . S
H124 C127 0.931 . S
H125 C130 0.928 . S
H126 C132 0.930 . S
C127 H124 0.931 . S
C127 C128 1.413 . S
C127 C129 1.360 . S
C128 C127 1.413 . S
C128 C132 1.429 . S
C129 C127 1.360 . S
C129 C130 1.372 . S
C130 H125 0.928 . S
C130 C129 1.372 . S
C130 C131 1.404 . S
C131 C130 1.404 . S
C131 C132 1.391 . S
C132 H126 0.930 . S
C132 C128 1.429 . S
C132 C131 1.391 . S
H133 C136 0.931 . S
H134 C139 0.928 . S
H135 C141 0.930 . S
C136 H133 0.931 . S
C136 C137 1.413 . S
C136 C138 1.360 . S
C137 C136 1.413 . S
C137 C141 1.429 . S
C138 C136 1.360 . S
C138 C139 1.372 . S
C139 H134 0.928 . S
C139 C138 1.372 . S
C139 C140 1.404 . S
C140 C139 1.404 . S
C140 C141 1.391 . S
C141 H135 0.930 . S
C141 C137 1.429 . S
C141 C140 1.391 . S
H142 C145 0.931 . S
H143 C148 0.928 . S
H144 C150 0.930 . S
C145 H142 0.931 . S
C145 C146 1.413 . S
C145 C147 1.360 . S
C146 C145 1.413 . S
C146 C150 1.429 . S
C147 C145 1.360 . S
C147 C148 1.372 . S
C148 H143 0.928 . S
C148 C147 1.372 . S
C148 C149 1.404 . S
C149 C148 1.404 . S
C149 C150 1.391 . S
C150 H144 0.930 . S
C150 C146 1.429 . S
C150 C149 1.391 . S
H151 C154 0.931 1_455 S
H152 C157 0.928 . S
H153 C159 0.930 . S
C154 H151 0.931 1_655 S
C154 C155 1.413 . S
C154 C156 1.360 1_655 S
C155 C154 1.413 . S
C155 C159 1.429 . S
C156 C154 1.360 1_455 S
C156 C157 1.372 1_455 S
C157 H152 0.928 . S
C157 C156 1.372 1_655 S
C157 C158 1.404 . S
C158 C157 1.404 . S
C158 C159 1.391 . S
C159 H153 0.930 . S
C159 C155 1.429 . S
C159 C158 1.391 . S
C8 C93 1.607 1_565 S
C31 C101 1.541 . S
C53 C110 1.498 1_545 S
C120 C74 1.473 . S
C129 C26 1.604 . S
C48 C138 1.473 . S
C71 C146 1.496 . S
C5 C156 1.564 . S
C50 C155 1.597 1_545 S
C128 C70 1.554 . S
C137 C4 1.492 1_545 S
C28 C147 1.479 . S
C102 C73 1.580 . S
C7 C111 1.479 . S
C119 C30 1.490 . S
C92 C52 1.555 . S
C149 C9 1.795 . S
C158 C29 1.378 . S
C51 C131 1.368 . S
C140 C75 1.773 . S
C113 C27 1.796 . S
C49 C122 1.772 . S
C95 C72 1.369 . S
C104 C6 1.363 . S
