# Generated by pormake.
# Topology ftw, (4,12)-cn, num edge types: 1
# Building blocks:
#     Node 0, Type 0, BuildingBlock: NAWXER_clean_linker_0, # of connection points: 4
#     Node 1, Type 0, BuildingBlock: NAWXER_clean_linker_0, # of connection points: 4
#     Node 2, Type 0, BuildingBlock: NAWXER_clean_linker_0, # of connection points: 4
#     Node 3, Type 1, BuildingBlock: EZIPEK_clean_sbu_0, # of connection points: 12
#     Edge 4, Type (0, 1), BuildingBlock: EYOCIG_clean_linker_4, # of connection points: 2
#     Edge 5, Type (0, 1), BuildingBlock: EYOCIG_clean_linker_4, # of connection points: 2
#     Edge 6, Type (0, 1), BuildingBlock: EYOCIG_clean_linker_4, # of connection points: 2
#     Edge 7, Type (0, 1), BuildingBlock: EYOCIG_clean_linker_4, # of connection points: 2
#     Edge 8, Type (0, 1), BuildingBlock: EYOCIG_clean_linker_4, # of connection points: 2
#     Edge 9, Type (0, 1), BuildingBlock: EYOCIG_clean_linker_4, # of connection points: 2
#     Edge 10, Type (0, 1), BuildingBlock: EYOCIG_clean_linker_4, # of connection points: 2
#     Edge 11, Type (0, 1), BuildingBlock: EYOCIG_clean_linker_4, # of connection points: 2
#     Edge 12, Type (0, 1), BuildingBlock: EYOCIG_clean_linker_4, # of connection points: 2
#     Edge 13, Type (0, 1), BuildingBlock: EYOCIG_clean_linker_4, # of connection points: 2
#     Edge 14, Type (0, 1), BuildingBlock: EYOCIG_clean_linker_4, # of connection points: 2
#     Edge 15, Type (0, 1), BuildingBlock: EYOCIG_clean_linker_4, # of connection points: 2
# Relax obj value: 0.032
# Max RMSD: 0.131
# Mean RMSD: 0.100
data_MOF--net-ftw--node1-EZIPEK_clean_sbu_0--node2-NAWXER_clean_linker_0--edge1-EYOCIG_clean_linker_4
_symmetry_space_group_name_H-M    P1
_symmetry_Int_Tables_number       1
_symmetry_cell_setting            triclinic
loop_
_symmetry_equiv_pos_as_xyz
'x, y, z'
_cell_length_a     23.578248
_cell_length_b     24.129744
_cell_length_c     23.757838
_cell_angle_alpha  90.009036
_cell_angle_beta   89.892176
_cell_angle_gamma 89.983139
loop_
_atom_site_label
_atom_site_type_symbol
_atom_site_fract_x
_atom_site_fract_y
_atom_site_fract_z
_atom_type_partial_charge
C0 C 0.02155 0.70704 0.61326 0.0
C1 C 0.98106 0.70786 0.65665 0.0
C2 C 0.02027 0.66523 0.57217 0.0
C3 C 0.97822 0.62386 0.57385 0.0
C4 C 0.93806 0.66789 0.65732 0.0
C5 C 0.93676 0.6262 0.61646 0.0
C6 C 0.98183 0.57348 0.53797 0.0
C7 C 0.95388 0.70689 0.40441 0.0
C8 C -0.00564 0.70787 0.36101 0.0
C9 C 0.95536 0.66508 0.44548 0.0
C10 C -0.0024 0.62387 0.44377 0.0
C11 C 0.03753 0.66804 0.3603 0.0
C12 C 0.03902 0.62635 0.40114 0.0
C13 C -0.00572 0.57349 0.47969 0.0
C14 C 0.95494 0.34034 0.40439 0.0
C15 C -0.00455 0.33954 0.36102 0.0
C16 C 0.95621 0.38214 0.4455 0.0
C17 C -0.00175 0.42351 0.44384 0.0
C18 C 0.03845 0.37952 0.36038 0.0
C19 C 0.03973 0.42119 0.40125 0.0
C20 C -0.00539 0.47389 0.47973 0.0
C21 C 0.02257 0.34051 0.61332 0.0
C22 C 0.98209 0.33954 0.65672 0.0
C23 C 0.02109 0.38231 0.57223 0.0
C24 C 0.97883 0.42351 0.57392 0.0
C25 C 0.93891 0.37935 0.65741 0.0
C26 C 0.93741 0.42103 0.61655 0.0
C27 C 0.98216 0.47388 0.53801 0.0
H28 H 0.05527 0.73753 0.61226 0.0
H29 H 0.05375 0.66372 0.54095 0.0
H30 H 0.90644 0.66783 0.69049 0.0
H31 H 0.90423 0.5946 0.61919 0.0
H32 H 0.92004 0.73727 0.40545 0.0
H33 H 0.9219 0.66345 0.47671 0.0
H34 H 0.06915 0.66811 0.32713 0.0
H35 H 0.0717 0.59488 0.39838 0.0
H36 H 0.92124 0.30985 0.40538 0.0
H37 H 0.92271 0.38364 0.4767 0.0
H38 H 0.07009 0.37959 0.32722 0.0
H39 H 0.07226 0.4528 0.39854 0.0
H40 H 0.05641 0.31014 0.6123 0.0
H41 H 0.05455 0.38394 0.54101 0.0
H42 H 0.90729 0.37929 0.69058 0.0
H43 H 0.90472 0.4525 0.6193 0.0
N44 N 0.97627 0.52368 0.56429 0.0
N45 N 0.00017 0.5237 0.45341 0.0
C46 C 0.59381 0.05728 0.69195 0.0
C47 C 0.63494 1.01553 0.69458 0.0
C48 C 0.55296 0.05623 0.64949 0.0
C49 C 0.55293 1.01316 0.60966 0.0
C50 C 0.63367 0.97142 0.65646 0.0
C51 C 0.59298 0.97033 0.61405 0.0
C52 C 0.5176 1.01663 0.55878 0.0
C53 C 0.38425 0.98993 0.69278 0.0
C54 C 0.34317 0.03171 0.69576 0.0
C55 C 0.42505 0.99114 0.65015 0.0
C56 C 0.42502 0.03438 0.61053 0.0
C57 C 0.34454 0.0761 0.658 0.0
C58 C 0.38517 0.07734 0.61542 0.0
C59 C 0.4597 0.03074 0.55919 0.0
C60 C 0.38283 0.98966 0.32573 0.0
C61 C 0.34166 0.03137 0.32311 0.0
C62 C 0.42368 0.99074 0.3682 0.0
C63 C 0.42365 0.0338 0.40804 0.0
C64 C 0.34286 0.07547 0.36125 0.0
C65 C 0.38355 0.07658 0.40367 0.0
C66 C 0.45899 0.03036 0.45892 0.0
C67 C 0.59229 0.05733 0.32496 0.0
C68 C 0.63345 1.01562 0.32195 0.0
C69 C 0.55149 0.05601 0.36759 0.0
C70 C 0.5516 1.01274 0.40717 0.0
C71 C 0.63217 0.97121 0.35969 0.0
C72 C 0.59153 0.96987 0.40226 0.0
C73 C 0.5169 1.01628 0.45852 0.0
H74 H 0.59472 0.09177 0.72116 0.0
H75 H 0.52352 0.09053 0.64603 0.0
H76 H 0.66542 0.93896 0.65814 0.0
H77 H 0.59398 0.93705 0.58343 0.0
H78 H 0.38324 0.95524 0.72173 0.0
H79 H 0.45437 0.95678 0.64628 0.0
H80 H 0.31282 0.10857 0.65998 0.0
H81 H 0.38416 0.11074 0.58495 0.0
H82 H 0.38197 0.95518 0.29651 0.0
H83 H 0.45316 0.95648 0.37165 0.0
H84 H 0.31108 0.10789 0.35958 0.0
H85 H 0.38251 0.10986 0.43429 0.0
H86 H 0.59324 0.09204 0.29603 0.0
H87 H 0.5221 0.09031 0.37147 0.0
H88 H 0.66396 0.9388 0.35768 0.0
H89 H 0.59261 0.93644 0.43271 0.0
N90 N 0.54389 1.00995 0.50844 0.0
N91 N 0.43271 0.03706 0.50926 0.0
C92 C 0.3845 0.34049 0.97475 0.0
C93 C 0.34148 0.33871 0.01556 0.0
C94 C 0.42519 0.38279 0.97598 0.0
C95 C 0.4234 0.42355 0.0183 0.0
C96 C 0.34069 0.37809 0.05878 0.0
C97 C 0.38118 0.42029 0.06003 0.0
C98 C 0.45906 0.47401 0.01499 0.0
C99 C 0.59285 0.34101 0.04289 0.0
C100 C 0.63575 0.33928 1.00198 0.0
C101 C 0.55193 0.38312 0.04162 0.0
C102 C 0.55342 0.42372 0.99915 0.0
C103 C 0.63621 0.37846 0.95858 0.0
C104 C 0.5955 0.42047 0.95729 0.0
C105 C 0.51763 0.47408 1.00247 0.0
C106 C 0.59206 0.70689 0.04286 0.0
C107 C 0.63508 0.70869 1.00207 0.0
C108 C 0.55138 0.66457 0.04161 0.0
C109 C 0.5532 0.62382 0.99928 0.0
C110 C 0.63591 0.66931 0.95884 0.0
C111 C 0.59543 0.6271 0.95756 0.0
C112 C 0.51753 0.57336 1.00256 0.0
C113 C 0.38378 0.70639 0.97466 0.0
C114 C 0.34087 0.70813 0.01557 0.0
C115 C 0.42468 0.66427 0.97593 0.0
C116 C 0.42318 0.62366 0.01839 0.0
C117 C 0.34039 0.66893 0.05895 0.0
C118 C 0.38109 0.62691 0.06024 0.0
C119 C 0.45896 0.5733 0.01506 0.0
H120 H 0.38544 0.31042 0.94089 0.0
H121 H 0.45615 0.38513 0.94234 0.0
H122 H 0.30767 0.3773 0.09058 0.0
H123 H 0.37849 0.45149 0.09274 0.0
H124 H 0.59217 0.31108 0.07688 0.0
H125 H 0.52105 0.38547 0.07533 0.0
H126 H 0.66914 0.37768 0.9267 0.0
H127 H 0.59794 0.45156 0.92446 0.0
H128 H 0.59109 0.73695 0.07673 0.0
H129 H 0.52041 0.66222 0.07523 0.0
H130 H 0.66893 0.67013 0.92705 0.0
H131 H 0.59814 0.59592 0.92484 0.0
H132 H 0.38448 0.73633 0.94068 0.0
H133 H 0.45557 0.66191 0.94222 0.0
H134 H 0.30746 0.66972 0.09083 0.0
H135 H 0.37863 0.59581 0.09306 0.0
N136 N 0.43239 0.52363 0.02081 0.0
N137 N 0.5442 0.52375 0.99673 0.0
C138 C -0.01133 0.15779 0.87128 0.0
C139 C -0.01127 0.15786 0.14635 0.0
C140 C 0.98787 0.88956 0.8713 0.0
C141 C 0.98787 0.88963 0.14646 0.0
C142 C 0.12584 0.88956 0.00882 0.0
C143 C 0.12673 0.15691 0.00883 0.0
C144 C 0.84982 0.89051 0.00888 0.0
C145 C 0.85079 0.15785 0.00883 0.0
C146 C 0.85106 0.02416 0.14397 0.0
C147 C 0.12536 1.02344 0.14384 0.0
C148 C 0.85123 0.02383 0.87386 0.0
C149 C 0.12553 1.02331 0.87372 0.0
Eu150 Eu -0.01134 0.1299 0.00882 0.0
O151 O 0.03831 0.07331 0.05887 0.0
O152 O 0.93859 0.07365 0.95878 0.0
Eu153 Eu 0.0945 1.02334 0.00879 0.0
Eu154 Eu 0.88209 0.02409 0.00891 0.0
O155 O 0.03843 0.07328 0.95871 0.0
O156 O 0.9385 0.07366 0.05896 0.0
Eu157 Eu -0.01162 0.02369 0.90218 0.0
Eu158 Eu -0.01179 0.02375 0.11552 0.0
O159 O 0.03803 0.97368 0.95879 0.0
O160 O 0.03793 0.9737 0.05885 0.0
O161 O 0.93822 0.97407 0.05892 0.0
O162 O 0.93835 0.97404 0.95889 0.0
Eu163 Eu 0.98793 0.91737 0.00887 0.0
O164 O -0.01119 0.17565 0.9246 0.0
O165 O -0.01119 0.1757 0.09303 0.0
O166 O 0.98777 0.87167 0.9246 0.0
O167 O 0.98777 0.87172 0.09315 0.0
O168 O 0.14267 0.94224 0.00882 0.0
O169 O 0.14324 0.10412 0.00883 0.0
O170 O 0.83334 0.94331 0.0089 0.0
O171 O 0.83394 0.10519 0.00881 0.0
O172 O 0.90442 0.02399 0.16226 0.0
O173 O 0.07193 1.0236 0.16216 0.0
O174 O 0.90466 0.02372 0.85553 0.0
O175 O 0.07217 1.02347 0.85544 0.0
O176 O 0.90324 0.87211 0.0089 0.0
O177 O 0.07231 0.87152 0.00881 0.0
O178 O 0.90434 0.17585 0.00887 0.0
O179 O 0.0733 0.17526 0.00879 0.0
O180 O -0.0115 0.10515 0.16318 0.0
O181 O -0.01196 0.94237 0.16323 0.0
O182 O -0.01151 0.10506 0.85447 0.0
O183 O -0.01187 0.94228 0.8545 0.0
O184 O 0.14258 1.02323 0.92697 0.0
O185 O 0.14251 1.02331 0.09054 0.0
O186 O 0.83409 0.02401 0.92715 0.0
O187 O 0.83401 0.02423 0.09073 0.0
C188 C -0.00966 0.26778 0.2763 0.0
C189 C -0.00842 0.2999 0.31541 0.0
C190 C -0.01051 0.23112 0.22956 0.0
C191 C -0.01085 0.199 0.19043 0.0
C192 C 0.7196 1.02217 0.2519 0.0
C193 C 0.67978 1.02036 0.28334 0.0
C194 C 0.76731 1.02346 0.21665 0.0
C195 C 0.80713 0.02378 0.18517 0.0
C196 C -0.01095 0.77973 0.2764 0.0
C197 C -0.00965 0.74758 0.31548 0.0
C198 C -0.01174 0.81642 0.2297 0.0
C199 C -0.01192 0.84854 0.19057 0.0
C200 C 0.25606 0.02548 0.25249 0.0
C201 C 0.29557 0.0271 0.28422 0.0
C202 C 0.20875 0.02426 0.21679 0.0
C203 C 0.16921 0.02389 0.18505 0.0
C204 C 0.98622 0.77966 0.74134 0.0
C205 C 0.98495 0.74751 0.70224 0.0
C206 C 0.98709 0.81633 0.78806 0.0
C207 C 0.98744 0.84844 0.8272 0.0
C208 C 0.25701 0.02532 0.76581 0.0
C209 C 0.29682 0.02708 0.73437 0.0
C210 C 0.20929 0.02405 0.80105 0.0
C211 C 0.16947 0.02371 0.83252 0.0
C212 C 0.98743 0.26771 0.74136 0.0
C213 C 0.98611 0.29985 0.70226 0.0
C214 C -0.01176 0.23104 0.78807 0.0
C215 C -0.01155 0.19891 0.8272 0.0
C216 C 0.72056 1.02144 0.76518 0.0
C217 C 0.68105 1.01978 0.73345 0.0
C218 C 0.76786 1.02277 0.8009 0.0
C219 C 0.80739 1.02325 0.83264 0.0
C220 C 0.25726 0.2663 0.01033 0.0
C221 C 0.29617 0.29876 0.01162 0.0
C222 C 0.21057 0.22956 0.00945 0.0
C223 C 0.17125 0.19755 0.00916 0.0
C224 C 0.25625 0.78008 0.01026 0.0
C225 C 0.29534 0.74782 0.01159 0.0
C226 C 0.20944 0.81667 0.00938 0.0
C227 C 0.17014 0.8487 0.00912 0.0
C228 C 0.72041 0.26737 1.00731 0.0
C229 C 0.68131 0.29961 1.00597 0.0
C230 C 0.76723 0.23078 1.00822 0.0
C231 C 0.80652 0.19875 1.0085 0.0
C232 C 0.71927 0.78113 1.00733 0.0
C233 C 0.68038 0.74865 1.00602 0.0
C234 C 0.76595 0.81789 1.00824 0.0
C235 C 0.80527 0.84989 1.00853 0.0
loop_
_geom_bond_atom_site_label_1
_geom_bond_atom_site_label_2
_geom_bond_distance
_geom_bond_site_symmetry_2
_ccdc_geom_bond_type
C0 C1 1.384 1_455 S
C0 C2 1.384 . S
C0 H28 0.931 . S
C1 C0 1.384 1_655 S
C1 C4 1.382 . S
C2 C0 1.384 . S
C2 C3 1.381 1_455 S
C2 H29 0.930 . S
C3 C2 1.381 1_655 S
C3 C5 1.381 . S
C3 C6 1.487 . S
C4 C1 1.382 . S
C4 C5 1.387 . S
C4 H30 0.930 . S
C5 C3 1.381 . S
C5 C4 1.387 . S
C5 H31 0.931 . S
C6 C3 1.487 . S
C6 C13 1.399 1_655 S
C6 N44 1.343 . S
C7 C8 1.384 1_655 S
C7 C9 1.384 . S
C7 H32 0.931 . S
C8 C7 1.384 1_455 S
C8 C11 1.382 . S
C9 C7 1.384 . S
C9 C10 1.381 1_655 S
C9 H33 0.930 . S
C10 C9 1.381 1_455 S
C10 C12 1.381 . S
C10 C13 1.487 . S
C11 C8 1.382 . S
C11 C12 1.387 . S
C11 H34 0.930 . S
C12 C10 1.381 . S
C12 C11 1.387 . S
C12 H35 0.931 . S
C13 C6 1.399 1_455 S
C13 C10 1.487 . S
C13 N45 1.343 . S
C14 C15 1.384 1_655 S
C14 C16 1.384 . S
C14 H36 0.931 . S
C15 C14 1.384 1_455 S
C15 C18 1.382 . S
C16 C14 1.384 . S
C16 C17 1.381 1_655 S
C16 H37 0.930 . S
C17 C16 1.381 1_455 S
C17 C19 1.381 . S
C17 C20 1.487 . S
C18 C15 1.382 . S
C18 C19 1.387 . S
C18 H38 0.930 . S
C19 C17 1.381 . S
C19 C18 1.387 . S
C19 H39 0.931 . S
C20 C17 1.487 . S
C20 C27 1.399 1_455 S
C20 N45 1.343 . S
C21 C22 1.384 1_455 S
C21 C23 1.384 . S
C21 H40 0.931 . S
C22 C21 1.384 1_655 S
C22 C25 1.382 . S
C23 C21 1.384 . S
C23 C24 1.381 1_455 S
C23 H41 0.930 . S
C24 C23 1.381 1_655 S
C24 C26 1.381 . S
C24 C27 1.487 . S
C25 C22 1.382 . S
C25 C26 1.387 . S
C25 H42 0.930 . S
C26 C24 1.381 . S
C26 C25 1.387 . S
C26 H43 0.931 . S
C27 C20 1.399 1_655 S
C27 C24 1.487 . S
C27 N44 1.343 . S
H28 C0 0.931 . S
H29 C2 0.930 . S
H30 C4 0.930 . S
H31 C5 0.931 . S
H32 C7 0.931 . S
H33 C9 0.930 . S
H34 C11 0.930 . S
H35 C12 0.931 . S
H36 C14 0.931 . S
H37 C16 0.930 . S
H38 C18 0.930 . S
H39 C19 0.931 . S
H40 C21 0.931 . S
H41 C23 0.930 . S
H42 C25 0.930 . S
H43 C26 0.931 . S
N44 C6 1.343 . S
N44 C27 1.343 . S
N45 C13 1.343 . S
N45 C20 1.343 . S
C46 C47 1.384 1_545 S
C46 C48 1.384 . S
C46 H74 0.931 . S
C47 C46 1.384 1_565 S
C47 C50 1.382 . S
C48 C46 1.384 . S
C48 C49 1.381 1_545 S
C48 H75 0.930 . S
C49 C48 1.381 1_565 S
C49 C51 1.381 . S
C49 C52 1.487 . S
C50 C47 1.382 . S
C50 C51 1.387 . S
C50 H76 0.930 . S
C51 C49 1.381 . S
C51 C50 1.387 . S
C51 H77 0.931 . S
C52 C49 1.487 . S
C52 C59 1.399 1_565 S
C52 N90 1.343 . S
C53 C54 1.384 1_565 S
C53 C55 1.384 . S
C53 H78 0.931 . S
C54 C53 1.384 1_545 S
C54 C57 1.382 . S
C55 C53 1.384 . S
C55 C56 1.381 1_565 S
C55 H79 0.930 . S
C56 C55 1.381 1_545 S
C56 C58 1.381 . S
C56 C59 1.487 . S
C57 C54 1.382 . S
C57 C58 1.387 . S
C57 H80 0.930 . S
C58 C56 1.381 . S
C58 C57 1.387 . S
C58 H81 0.931 . S
C59 C52 1.399 1_545 S
C59 C56 1.487 . S
C59 N91 1.343 . S
C60 C61 1.384 1_565 S
C60 C62 1.384 . S
C60 H82 0.931 . S
C61 C60 1.384 1_545 S
C61 C64 1.382 . S
C62 C60 1.384 . S
C62 C63 1.381 1_565 S
C62 H83 0.930 . S
C63 C62 1.381 1_545 S
C63 C65 1.381 . S
C63 C66 1.487 . S
C64 C61 1.382 . S
C64 C65 1.387 . S
C64 H84 0.930 . S
C65 C63 1.381 . S
C65 C64 1.387 . S
C65 H85 0.931 . S
C66 C63 1.487 . S
C66 C73 1.399 1_545 S
C66 N91 1.343 . S
C67 C68 1.384 1_545 S
C67 C69 1.384 . S
C67 H86 0.931 . S
C68 C67 1.384 1_565 S
C68 C71 1.382 . S
C69 C67 1.384 . S
C69 C70 1.381 1_545 S
C69 H87 0.930 . S
C70 C69 1.381 1_565 S
C70 C72 1.381 . S
C70 C73 1.487 . S
C71 C68 1.382 . S
C71 C72 1.387 . S
C71 H88 0.930 . S
C72 C70 1.381 . S
C72 C71 1.387 . S
C72 H89 0.931 . S
C73 C66 1.399 1_565 S
C73 C70 1.487 . S
C73 N90 1.343 . S
H74 C46 0.931 . S
H75 C48 0.930 . S
H76 C50 0.930 . S
H77 C51 0.931 . S
H78 C53 0.931 . S
H79 C55 0.930 . S
H80 C57 0.930 . S
H81 C58 0.931 . S
H82 C60 0.931 . S
H83 C62 0.930 . S
H84 C64 0.930 . S
H85 C65 0.931 . S
H86 C67 0.931 . S
H87 C69 0.930 . S
H88 C71 0.930 . S
H89 C72 0.931 . S
N90 C52 1.343 . S
N90 C73 1.343 . S
N91 C59 1.343 . S
N91 C66 1.343 . S
C92 C93 1.384 1_556 S
C92 C94 1.384 . S
C92 H120 0.931 . S
C93 C92 1.384 1_554 S
C93 C96 1.382 . S
C94 C92 1.384 . S
C94 C95 1.381 1_556 S
C94 H121 0.930 . S
C95 C94 1.381 1_554 S
C95 C97 1.381 . S
C95 C98 1.487 . S
C96 C93 1.382 . S
C96 C97 1.387 . S
C96 H122 0.930 . S
C97 C95 1.381 . S
C97 C96 1.387 . S
C97 H123 0.931 . S
C98 C95 1.487 . S
C98 C105 1.399 1_554 S
C98 N136 1.343 . S
C99 C100 1.384 1_554 S
C99 C101 1.384 . S
C99 H124 0.931 . S
C100 C99 1.384 1_556 S
C100 C103 1.382 . S
C101 C99 1.384 . S
C101 C102 1.381 1_554 S
C101 H125 0.930 . S
C102 C101 1.381 1_556 S
C102 C104 1.381 . S
C102 C105 1.487 . S
C103 C100 1.382 . S
C103 C104 1.387 . S
C103 H126 0.930 . S
C104 C102 1.381 . S
C104 C103 1.387 . S
C104 H127 0.931 . S
C105 C98 1.399 1_556 S
C105 C102 1.487 . S
C105 N137 1.343 . S
C106 C107 1.384 1_554 S
C106 C108 1.384 . S
C106 H128 0.931 . S
C107 C106 1.384 1_556 S
C107 C110 1.382 . S
C108 C106 1.384 . S
C108 C109 1.381 1_554 S
C108 H129 0.930 . S
C109 C108 1.381 1_556 S
C109 C111 1.381 . S
C109 C112 1.487 . S
C110 C107 1.382 . S
C110 C111 1.387 . S
C110 H130 0.930 . S
C111 C109 1.381 . S
C111 C110 1.387 . S
C111 H131 0.931 . S
C112 C109 1.487 . S
C112 C119 1.399 1_556 S
C112 N137 1.343 . S
C113 C114 1.384 1_556 S
C113 C115 1.384 . S
C113 H132 0.931 . S
C114 C113 1.384 1_554 S
C114 C117 1.382 . S
C115 C113 1.384 . S
C115 C116 1.381 1_556 S
C115 H133 0.930 . S
C116 C115 1.381 1_554 S
C116 C118 1.381 . S
C116 C119 1.487 . S
C117 C114 1.382 . S
C117 C118 1.387 . S
C117 H134 0.930 . S
C118 C116 1.381 . S
C118 C117 1.387 . S
C118 H135 0.931 . S
C119 C112 1.399 1_554 S
C119 C116 1.487 . S
C119 N136 1.343 . S
H120 C92 0.931 . S
H121 C94 0.930 . S
H122 C96 0.930 . S
H123 C97 0.931 . S
H124 C99 0.931 . S
H125 C101 0.930 . S
H126 C103 0.930 . S
H127 C104 0.931 . S
H128 C106 0.931 . S
H129 C108 0.930 . S
H130 C110 0.930 . S
H131 C111 0.931 . S
H132 C113 0.931 . S
H133 C115 0.930 . S
H134 C117 0.930 . S
H135 C118 0.931 . S
N136 C98 1.343 . S
N136 C119 1.343 . S
N137 C105 1.343 . S
N137 C112 1.343 . S
C138 O164 1.283 . S
C138 O182 1.283 . S
C139 O165 1.283 . S
C139 O180 1.283 . S
C140 O166 1.283 . S
C140 O183 1.283 . S
C141 O167 1.283 . S
C141 O181 1.283 . S
C142 O168 1.283 . S
C142 O177 1.283 . S
C143 O169 1.283 . S
C143 O179 1.283 . S
C144 O170 1.283 . S
C144 O176 1.283 . S
C145 O171 1.283 . S
C145 O178 1.283 . S
C146 O172 1.283 . S
C146 O187 1.283 . S
C147 O173 1.283 . S
C147 O185 1.283 . S
C148 O174 1.283 . S
C148 O186 1.283 . S
C149 O175 1.283 . S
C149 O184 1.283 . S
Eu150 O151 2.370 . S
Eu150 O152 2.370 1_454 S
Eu150 O155 2.370 1_554 S
Eu150 O156 2.370 1_455 S
Eu150 O164 2.363 1_554 S
Eu150 O165 2.363 . S
Eu150 O178 2.363 1_455 S
Eu150 O179 2.363 . S
O151 Eu150 2.370 . S
O151 Eu153 2.370 . S
O151 Eu158 2.370 . S
O152 Eu150 2.370 1_656 S
O152 Eu154 2.370 1_556 S
O152 Eu157 2.370 1_655 S
Eu153 O151 2.370 . S
Eu153 O155 2.370 1_554 S
Eu153 O159 2.370 1_544 S
Eu153 O160 2.370 1_545 S
Eu153 O168 2.363 1_545 S
Eu153 O169 2.363 . S
Eu153 O184 2.363 1_554 S
Eu153 O185 2.363 . S
Eu154 O152 2.370 1_554 S
Eu154 O156 2.370 . S
Eu154 O161 2.370 1_545 S
Eu154 O162 2.370 1_544 S
Eu154 O170 2.363 1_545 S
Eu154 O171 2.363 . S
Eu154 O186 2.363 1_554 S
Eu154 O187 2.363 . S
O155 Eu150 2.370 1_556 S
O155 Eu153 2.370 1_556 S
O155 Eu157 2.370 . S
O156 Eu150 2.370 1_655 S
O156 Eu154 2.370 . S
O156 Eu158 2.370 1_655 S
Eu157 O152 2.370 1_455 S
Eu157 O155 2.370 . S
Eu157 O159 2.370 1_545 S
Eu157 O162 2.370 1_445 S
Eu157 O174 2.363 1_455 S
Eu157 O175 2.363 . S
Eu157 O182 2.363 . S
Eu157 O183 2.363 1_545 S
Eu158 O151 2.370 . S
Eu158 O156 2.370 1_455 S
Eu158 O160 2.370 1_545 S
Eu158 O161 2.370 1_445 S
Eu158 O172 2.363 1_455 S
Eu158 O173 2.363 . S
Eu158 O180 2.363 . S
Eu158 O181 2.363 1_545 S
O159 Eu153 2.370 1_566 S
O159 Eu157 2.370 1_565 S
O159 Eu163 2.370 1_556 S
O160 Eu153 2.370 1_565 S
O160 Eu158 2.370 1_565 S
O160 Eu163 2.370 . S
O161 Eu154 2.370 1_565 S
O161 Eu158 2.370 1_665 S
O161 Eu163 2.370 1_655 S
O162 Eu154 2.370 1_566 S
O162 Eu157 2.370 1_665 S
O162 Eu163 2.370 1_656 S
Eu163 O159 2.370 1_554 S
Eu163 O160 2.370 . S
Eu163 O161 2.370 1_455 S
Eu163 O162 2.370 1_454 S
Eu163 O166 2.363 1_554 S
Eu163 O167 2.363 . S
Eu163 O176 2.363 1_455 S
Eu163 O177 2.363 . S
O164 C138 1.283 . S
O164 Eu150 2.363 1_556 S
O165 C139 1.283 . S
O165 Eu150 2.363 . S
O166 C140 1.283 . S
O166 Eu163 2.363 1_556 S
O167 C141 1.283 . S
O167 Eu163 2.363 . S
O168 C142 1.283 . S
O168 Eu153 2.363 1_565 S
O169 C143 1.283 . S
O169 Eu153 2.363 . S
O170 C144 1.283 . S
O170 Eu154 2.363 1_565 S
O171 C145 1.283 . S
O171 Eu154 2.363 . S
O172 C146 1.283 . S
O172 Eu158 2.363 1_655 S
O173 C147 1.283 . S
O173 Eu158 2.363 . S
O174 C148 1.283 . S
O174 Eu157 2.363 1_655 S
O175 C149 1.283 . S
O175 Eu157 2.363 . S
O176 C144 1.283 . S
O176 Eu163 2.363 1_655 S
O177 C142 1.283 . S
O177 Eu163 2.363 . S
O178 C145 1.283 . S
O178 Eu150 2.363 1_655 S
O179 C143 1.283 . S
O179 Eu150 2.363 . S
O180 C139 1.283 . S
O180 Eu158 2.363 . S
O181 C141 1.283 . S
O181 Eu158 2.363 1_565 S
O182 C138 1.283 . S
O182 Eu157 2.363 . S
O183 C140 1.283 . S
O183 Eu157 2.363 1_565 S
O184 C149 1.283 . S
O184 Eu153 2.363 1_556 S
O185 C147 1.283 . S
O185 Eu153 2.363 . S
O186 C148 1.283 . S
O186 Eu154 2.363 1_556 S
O187 C146 1.283 . S
O187 Eu154 2.363 . S
C188 C189 1.170 . S
C188 C190 1.380 . S
C189 C188 1.170 . S
C190 C188 1.380 . S
C190 C191 1.170 . S
C191 C190 1.170 . S
C192 C193 1.170 . S
C192 C194 1.380 . S
C193 C192 1.170 . S
C194 C192 1.380 . S
C194 C195 1.170 . S
C195 C194 1.170 . S
C196 C197 1.170 . S
C196 C198 1.380 . S
C197 C196 1.170 . S
C198 C196 1.380 . S
C198 C199 1.170 . S
C199 C198 1.170 . S
C200 C201 1.170 . S
C200 C202 1.380 . S
C201 C200 1.170 . S
C202 C200 1.380 . S
C202 C203 1.170 . S
C203 C202 1.170 . S
C204 C205 1.170 . S
C204 C206 1.380 . S
C205 C204 1.170 . S
C206 C204 1.380 . S
C206 C207 1.170 . S
C207 C206 1.170 . S
C208 C209 1.170 1_565 S
C208 C210 1.380 . S
C209 C208 1.170 1_545 S
C210 C208 1.380 . S
C210 C211 1.170 . S
C211 C210 1.170 . S
C212 C213 1.170 . S
C212 C214 1.380 . S
C213 C212 1.170 . S
C214 C212 1.380 . S
C214 C215 1.170 . S
C215 C214 1.170 . S
C216 C217 1.170 . S
C216 C218 1.380 . S
C217 C216 1.170 . S
C218 C216 1.380 . S
C218 C219 1.170 . S
C219 C218 1.170 . S
C220 C221 1.170 . S
C220 C222 1.380 . S
C221 C220 1.170 . S
C222 C220 1.380 . S
C222 C223 1.170 . S
C223 C222 1.170 . S
C224 C225 1.170 . S
C224 C226 1.380 . S
C225 C224 1.170 . S
C226 C224 1.380 . S
C226 C227 1.170 . S
C227 C226 1.170 . S
C228 C229 1.170 . S
C228 C230 1.380 . S
C229 C228 1.170 . S
C230 C228 1.380 . S
C230 C231 1.170 . S
C231 C230 1.170 . S
C232 C233 1.170 . S
C232 C234 1.380 . S
C233 C232 1.170 . S
C234 C232 1.380 . S
C234 C235 1.170 . S
C235 C234 1.170 . S
C191 C139 1.746 . S
C189 C15 1.730 . S
C195 C146 1.349 . S
C193 C68 1.334 1_545 S
C199 C141 1.741 . S
C197 C8 1.735 . S
C203 C147 1.348 1_565 S
C201 C61 1.332 1_565 S
C205 C1 1.731 . S
C207 C140 1.747 1_655 S
C211 C149 1.342 1_565 S
C209 C54 1.350 . S
C213 C22 1.741 . S
C215 C138 1.743 1_655 S
C217 C47 1.335 . S
C219 C148 1.349 1_565 S
C221 C93 1.523 . S
C223 C143 1.524 . S
C225 C114 1.528 1_556 S
C227 C142 1.526 1_556 S
C231 C145 1.528 . S
C229 C100 1.526 1_554 S
C235 C144 1.528 1_556 S
C233 C107 1.525 . S
