# Generated by pormake.
# Topology tsx, (6,3)-cn, num edge types: 1
# Building blocks:
#     Node 0, Type 0, BuildingBlock: FUNLAD_clean_sbu_0, # of connection points: 6
#     Node 1, Type 0, BuildingBlock: FUNLAD_clean_sbu_0, # of connection points: 6
#     Node 2, Type 1, BuildingBlock: BETDIP_clean_linker_0, # of connection points: 3
#     Node 3, Type 1, BuildingBlock: BETDIP_clean_linker_0, # of connection points: 3
#     Node 4, Type 1, BuildingBlock: BETDIP_clean_linker_0, # of connection points: 3
#     Node 5, Type 1, BuildingBlock: BETDIP_clean_linker_0, # of connection points: 3
#     Edge 6, Type (0, 1), BuildingBlock: OJICUG_clean_linker_0, # of connection points: 2
#     Edge 7, Type (0, 1), BuildingBlock: OJICUG_clean_linker_0, # of connection points: 2
#     Edge 8, Type (0, 1), BuildingBlock: OJICUG_clean_linker_0, # of connection points: 2
#     Edge 9, Type (0, 1), BuildingBlock: OJICUG_clean_linker_0, # of connection points: 2
#     Edge 10, Type (0, 1), BuildingBlock: OJICUG_clean_linker_0, # of connection points: 2
#     Edge 11, Type (0, 1), BuildingBlock: OJICUG_clean_linker_0, # of connection points: 2
#     Edge 12, Type (0, 1), BuildingBlock: OJICUG_clean_linker_0, # of connection points: 2
#     Edge 13, Type (0, 1), BuildingBlock: OJICUG_clean_linker_0, # of connection points: 2
#     Edge 14, Type (0, 1), BuildingBlock: OJICUG_clean_linker_0, # of connection points: 2
#     Edge 15, Type (0, 1), BuildingBlock: OJICUG_clean_linker_0, # of connection points: 2
#     Edge 16, Type (0, 1), BuildingBlock: OJICUG_clean_linker_0, # of connection points: 2
#     Edge 17, Type (0, 1), BuildingBlock: OJICUG_clean_linker_0, # of connection points: 2
# Relax obj value: 0.117
# Max RMSD: 0.123
# Mean RMSD: 0.117
data_MOF--net-tsx--node1-FUNLAD_clean_sbu_0--node2-BETDIP_clean_linker_0--edge1-OJICUG_clean_linker_0
_symmetry_space_group_name_H-M    P1
_symmetry_Int_Tables_number       1
_symmetry_cell_setting            triclinic
loop_
_symmetry_equiv_pos_as_xyz
'x, y, z'
_cell_length_a     13.847307
_cell_length_b     15.455141
_cell_length_c     30.533297
_cell_angle_alpha  90.89045
_cell_angle_beta   101.96316
_cell_angle_gamma 90.070453
loop_
_atom_site_label
_atom_site_type_symbol
_atom_site_fract_x
_atom_site_fract_y
_atom_site_fract_z
_atom_type_partial_charge
C0 C 0.97617 0.86487 0.0281 0.0
N1 N 0.16596 0.03213 0.1138 0.0
C2 C 0.08772 0.05405 0.13222 0.0
C3 C 0.101 0.07281 0.17772 0.0
C4 C 0.19522 0.06666 0.20497 0.0
C5 C 0.2752 0.04393 0.18551 0.0
C6 C 0.25897 0.0279 0.13929 0.0
Zn7 Zn 0.13454 0.00432 0.04676 0.0
C8 C 0.25594 0.86644 0.01762 0.0
N9 N 0.0473 0.95019 0.90722 0.0
C10 C 0.95175 0.95318 0.88454 0.0
C11 C 0.12305 0.94471 0.88513 0.0
C12 C 0.10434 0.94458 0.83848 0.0
C13 C 0.00702 0.95214 0.81443 0.0
C14 C 0.92988 0.95515 0.8378 0.0
Zn15 Zn 0.08186 0.97164 0.97487 0.0
O16 O 0.02891 0.91354 0.05752 0.0
C17 C 0.96324 0.11242 0.00019 0.0
O18 O 0.98423 0.87057 0.98738 0.0
H19 H 0.19854 0.94422 0.90367 0.0
H20 H 0.01399 0.05492 0.11185 0.0
H21 H 0.8926 0.95761 0.90268 0.0
O22 O 0.02516 0.10646 0.03707 0.0
O23 O 0.96775 0.05942 0.96873 0.0
H24 H 0.32011 0.01033 0.12398 0.0
O25 O 0.17848 0.07701 0.96436 0.0
O26 O 0.2375 0.09308 0.03656 0.0
O27 O 0.19746 0.8829 0.98099 0.0
O28 O 0.24659 0.90578 0.05348 0.0
C29 C 0.23703 0.11468 -0.00327 0.0
H30 H 0.03724 0.08768 0.19188 0.0
H31 H 0.34867 0.03727 0.20591 0.0
H32 H 0.1656 0.94265 0.82144 0.0
H33 H 0.8538 0.96027 0.82012 0.0
C34 C 0.29516 0.39853 0.47938 0.0
N35 N 0.52073 0.4859 0.58248 0.0
C36 C 0.45308 0.50684 0.60747 0.0
C37 C 0.47967 0.50859 0.65401 0.0
C38 C 0.57601 0.48678 0.67488 0.0
C39 C 0.6437 0.46239 0.64867 0.0
C40 C 0.61455 0.46327 0.60205 0.0
Zn41 Zn 0.4802 0.49917 0.51497 0.0
C42 C 0.56999 0.37608 0.46135 0.0
N43 N 0.38418 0.53902 0.3758 0.0
C44 C 0.29027 0.53166 0.35131 0.0
C45 C 0.46093 0.55755 0.3559 0.0
C46 C 0.44515 0.57025 0.31003 0.0
C47 C 0.34994 0.56125 0.28388 0.0
C48 C 0.27154 0.54139 0.30473 0.0
Zn49 Zn 0.42068 0.51989 0.44347 0.0
O50 O 0.35587 0.42299 0.51435 0.0
C51 C 0.33279 0.64524 0.49337 0.0
O52 O 0.30625 0.42334 0.44108 0.0
H53 H 0.53548 0.56037 0.37536 0.0
H54 H 0.37864 0.52375 0.5913 0.0
H55 H 0.23034 0.51648 0.36771 0.0
O56 O 0.39748 0.61448 0.52502 0.0
O57 O 0.32209 0.61324 0.45425 0.0
H58 H 0.66726 0.44753 0.58153 0.0
O59 O 0.5343 0.62018 0.44984 0.0
O60 O 0.60282 0.57519 0.51664 0.0
O61 O 0.52036 0.42469 0.43198 0.0
O62 O 0.564 0.38705 0.50218 0.0
C63 C 0.60359 0.62539 0.48443 0.0
H64 H 0.42556 0.52646 0.67355 0.0
H65 H 0.71858 0.44473 0.6641 0.0
H66 H 0.50771 0.58298 0.29479 0.0
H67 H 0.19735 0.53251 0.28519 0.0
H68 H 0.01484 0.96461 0.47923 0.0
H69 H 0.00736 0.12687 0.36559 0.0
H70 H 0.25741 0.96361 0.41282 0.0
H71 H 0.84969 0.14347 0.36755 0.0
C72 C 0.84544 0.14154 0.40261 0.0
C73 C 0.04925 0.99004 0.45357 0.0
C74 C 0.14177 0.95852 0.44982 0.0
C75 C 1.00149 0.05329 0.42455 0.0
C76 C 0.04533 0.08117 0.38945 0.0
C77 C 0.1367 0.04714 0.38401 0.0
C78 C 0.18653 0.98958 0.41603 0.0
N79 N 0.91156 0.08866 0.43253 0.0
H80 H 0.85985 0.98505 0.49271 0.0
H81 H 1.00307 0.10119 0.61873 0.0
H82 H 0.84788 0.85986 0.61592 0.0
H83 H 0.97762 0.22716 0.57027 0.0
C84 C 0.00809 0.19779 0.54356 0.0
C85 C 0.87827 0.98426 0.52889 0.0
C86 C 0.84828 0.91401 0.55127 0.0
C87 C 0.93589 0.05122 0.55274 0.0
C88 C 0.95752 0.0507 0.59984 0.0
C89 C 0.92549 0.98154 0.62256 0.0
C90 C 0.87191 0.91339 0.59817 0.0
N91 N 0.97968 0.11245 0.52851 0.0
H92 H 0.69199 0.45956 -0.00338 0.0
H93 H 0.56666 0.59113 0.87538 0.0
H94 H 0.7665 0.37802 0.87323 0.0
H95 H 0.60938 0.71186 0.9454 0.0
C96 C 0.55808 0.67438 0.96012 0.0
C97 C 0.68583 0.46786 0.96104 0.0
C98 C 0.73416 0.4103 0.93721 0.0
C99 C 0.62679 0.53396 0.93885 0.0
C100 C 0.61711 0.54316 0.8925 0.0
C101 C 0.66593 0.48599 0.86807 0.0
C102 C 0.72661 0.4216 0.89119 0.0
N103 N 0.5679 0.58328 0.96265 0.0
H104 H 0.54027 0.44764 0.01201 0.0
H105 H 0.53073 0.61875 0.12331 0.0
H106 H 0.29524 0.43691 0.07671 0.0
H107 H 0.68182 0.65281 0.12078 0.0
C108 C 0.6924 0.64204 0.08691 0.0
C109 C 0.50263 0.47329 0.0369 0.0
C110 C 0.41236 0.43659 0.04042 0.0
C111 C 0.54472 0.5413 0.06545 0.0
C112 C 0.49711 0.56939 0.09968 0.0
C113 C 0.40816 0.53034 0.10501 0.0
C114 C 0.36407 0.46715 0.07357 0.0
N115 N 0.63405 0.57953 0.05844 0.0
C116 C 0.39071 0.20083 0.00996 0.0
C117 C 0.2899 0.1941 -0.00946 0.0
H118 H 0.50973 0.28517 0.03983 0.0
C119 C 0.23482 0.26958 0.97904 0.0
H120 H 0.43373 0.14322 0.01991 0.0
C121 C 0.27729 0.35067 -0.00829 0.0
C122 C 0.37578 0.35689 0.01503 0.0
H123 H 0.15629 0.26556 0.96506 0.0
H124 H 0.2313 0.40779 0.98652 0.0
C125 C 0.43382 0.28191 0.02156 0.0
C126 C 0.43142 0.8514 0.01352 0.0
C127 C 0.34133 0.81161 0.01553 0.0
H128 H 0.57062 0.83869 -0.0065 0.0
C129 C 0.32669 0.72396 0.00332 0.0
H130 H 0.44296 0.91966 0.02162 0.0
C131 C 0.39962 0.67764 0.98753 0.0
C132 C 0.48696 0.71918 0.98253 0.0
H133 H 0.25666 0.69278 0.00353 0.0
H134 H 0.38496 0.61099 0.97668 0.0
C135 C 0.50348 0.80565 -0.00321 0.0
C136 C 0.88233 0.81642 0.08492 0.0
C137 C 0.90448 0.80537 0.0422 0.0
H138 H 0.79796 0.77379 0.13191 0.0
C139 C 0.85766 0.73805 0.0142 0.0
H140 H 0.91671 0.86768 0.10746 0.0
C141 C 0.79021 0.68318 0.02879 0.0
C142 C 0.76689 0.6958 0.07115 0.0
H143 H 0.87369 0.72732 0.9813 0.0
H144 H 0.75679 0.63101 0.00694 0.0
C145 C 0.81424 0.76259 0.09908 0.0
C146 C 0.91325 0.26521 0.0137 0.0
C147 C 0.89378 0.18531 -0.00916 0.0
H148 H 0.8775 0.40066 0.01428 0.0
C149 C 0.81447 0.17872 0.95391 0.0
H150 H 0.9743 0.27206 0.04216 0.0
C151 C 0.76041 0.25154 0.93799 0.0
C152 C 0.78428 0.3327 0.95861 0.0
H153 H 0.79692 0.11783 0.93591 0.0
H154 H 0.7018 0.24493 0.90849 0.0
C155 C 0.8585 0.33867 -0.00233 0.0
C156 C 0.65131 0.77932 0.4752 0.0
C157 C 0.67696 0.69602 0.49135 0.0
H158 H 0.68598 0.91509 0.48208 0.0
C159 C 0.76662 0.68419 0.5219 0.0
H160 H 0.58208 0.79015 0.45193 0.0
C161 C 0.82523 0.75501 0.53914 0.0
C162 C 0.79524 0.83922 0.52635 0.0
H163 H 0.78849 0.62052 0.53461 0.0
H164 H 0.89176 0.74424 0.5642 0.0
C165 C 0.71028 0.8507 0.49265 0.0
C166 C 0.69281 0.25378 0.47731 0.0
C167 C 0.63685 0.3113 0.44705 0.0
H168 H 0.80059 0.15289 0.48687 0.0
C169 C 0.64739 0.30905 0.40213 0.0
H170 H 0.6861 0.25343 0.51202 0.0
C171 C 0.71387 0.25268 0.38805 0.0
C172 C 0.77136 0.19664 0.41833 0.0
H173 H 0.60553 0.35218 0.3777 0.0
H174 H 0.72143 0.25397 0.35344 0.0
C175 C 0.75901 0.19655 0.46295 0.0
C176 C 0.20263 0.25964 0.47804 0.0
C177 C 0.20839 0.34932 0.4856 0.0
H178 H 0.13722 0.14061 0.49228 0.0
C179 C 0.14341 0.38916 0.50935 0.0
H180 H 0.25444 0.22729 0.46122 0.0
C181 C 0.07583 0.33988 0.52667 0.0
C182 C 0.07254 0.24975 0.52087 0.0
H183 H 0.14848 0.45815 0.51648 0.0
H184 H 0.02854 0.37194 0.54599 0.0
C185 C 0.13544 0.21014 0.4958 0.0
C186 C 0.33273 0.80278 0.50792 0.0
C187 C 0.27961 0.72496 0.499 0.0
H188 H 0.32938 0.94024 0.49898 0.0
C189 C 0.1772 0.72706 0.48297 0.0
H190 H 0.4122 0.80215 0.51951 0.0
C191 C 0.12976 0.80567 0.47188 0.0
C192 C 0.18484 0.88275 0.47558 0.0
H193 H 0.13544 0.66741 0.47533 0.0
H194 H 0.05211 0.80497 0.45605 0.0
C195 C 0.28565 0.88143 0.49586 0.0
C196 C 0.16751 0.14306 0.27398 0.0
C197 C 0.20484 0.0717 0.2539 0.0
H198 H 0.12139 0.19344 0.33199 0.0
C199 C 0.23353 0.99781 0.27911 0.0
H200 H 0.145 0.20082 0.25493 0.0
C201 C 0.21667 0.99204 0.32239 0.0
C202 C 0.17265 0.06099 0.34183 0.0
H203 H 0.26098 0.94153 0.264 0.0
H204 H 0.23152 0.9307 0.33901 0.0
C205 C 0.1528 0.13822 0.31783 0.0
C206 C 0.93289 0.03103 0.74471 0.0
C207 C 0.9869 0.96037 0.76529 0.0
H208 H 0.87327 0.09426 0.68286 0.0
C209 C 0.0238 0.89882 0.73881 0.0
H210 H 0.9047 0.07972 0.76464 0.0
C211 C 0.00499 0.90668 0.69234 0.0
C212 C 0.95089 0.97718 0.67178 0.0
H213 H 0.06572 0.84394 0.75402 0.0
H214 H 0.03234 0.85754 0.67237 0.0
C215 C 0.91582 0.03984 0.69824 0.0
C216 C 0.60779 0.56584 0.74828 0.0
C217 C 0.60443 0.48776 0.72397 0.0
H218 H 0.6335 0.62722 0.813 0.0
C219 C 0.62309 0.40982 0.74673 0.0
H220 H 0.59328 0.62666 0.731 0.0
C221 C 0.64293 0.40953 0.79336 0.0
C222 C 0.64704 0.48758 0.81827 0.0
H223 H 0.61925 0.3489 0.72837 0.0
H224 H 0.65245 0.34756 0.8097 0.0
C225 C 0.62993 0.56591 0.79509 0.0
C226 C 0.36886 0.63346 0.21359 0.0
C227 C 0.33777 0.5617 0.23478 0.0
H228 H 0.41029 0.68167 0.15477 0.0
C229 C 0.31478 0.48416 0.21058 0.0
H230 H 0.3871 0.69395 0.23186 0.0
C231 C 0.33158 0.47582 0.16722 0.0
C232 C 0.37004 0.54557 0.14679 0.0
H233 H 0.29222 0.42766 0.22659 0.0
H234 H 0.32156 0.4124 0.15139 0.0
C235 C 0.38346 0.62586 0.16972 0.0
loop_
_geom_bond_atom_site_label_1
_geom_bond_atom_site_label_2
_geom_bond_distance
_geom_bond_site_symmetry_2
_ccdc_geom_bond_type
C0 O16 1.251 . S
C0 O18 1.254 1_554 S
N1 C2 1.333 1_445 S
N1 C6 1.307 . S
N1 Zn7 2.020 . S
C2 N1 1.333 1_665 S
C2 C3 1.379 . S
C2 H20 0.952 . S
C3 C2 1.379 . S
C3 C4 1.390 1_665 S
C3 H30 0.949 . S
C4 C3 1.390 1_445 S
C4 C5 1.357 . S
C5 C4 1.357 . S
C5 C6 1.370 . S
C5 H31 0.950 . S
C6 N1 1.307 . S
C6 C5 1.370 . S
C6 H24 0.948 . S
Zn7 N1 2.020 . S
Zn7 O16 2.039 1_445 S
Zn7 O22 2.034 1_455 S
Zn7 O26 2.025 . S
Zn7 O28 2.024 1_545 S
C8 O27 1.246 1_554 S
C8 O28 1.249 . S
N9 C10 1.307 1_545 S
N9 C11 1.333 1_655 S
N9 Zn15 2.020 1_655 S
C10 N9 1.307 1_565 S
C10 C14 1.370 . S
C10 H21 0.948 . S
C11 N9 1.333 1_455 S
C11 C12 1.379 . S
C11 H19 0.952 . S
C12 C11 1.379 . S
C12 C13 1.390 1_455 S
C12 H32 0.949 . S
C13 C12 1.390 1_655 S
C13 C14 1.357 1_545 S
C14 C10 1.370 . S
C14 C13 1.357 1_565 S
C14 H33 0.950 . S
Zn15 N9 2.020 1_455 S
Zn15 O18 2.025 1_445 S
Zn15 O23 2.024 1_455 S
Zn15 O25 2.039 . S
Zn15 O27 2.034 1_545 S
O16 C0 1.251 . S
O16 Zn7 2.039 1_665 S
C17 O22 1.244 . S
C17 O23 1.251 1_554 S
O18 C0 1.254 1_556 S
O18 Zn15 2.025 1_665 S
H19 C11 0.952 . S
H20 C2 0.952 . S
H21 C10 0.948 . S
O22 Zn7 2.034 1_655 S
O22 C17 1.244 . S
O23 Zn15 2.024 1_655 S
O23 C17 1.251 1_556 S
H24 C6 0.948 . S
O25 Zn15 2.039 . S
O25 C29 1.251 1_556 S
O26 Zn7 2.025 . S
O26 C29 1.254 . S
O27 C8 1.246 1_556 S
O27 Zn15 2.034 1_565 S
O28 Zn7 2.024 1_565 S
O28 C8 1.249 . S
C29 O25 1.251 1_554 S
C29 O26 1.254 . S
H30 C3 0.949 . S
H31 C5 0.950 . S
H32 C12 0.949 . S
H33 C14 0.950 . S
C34 O50 1.251 . S
C34 O52 1.254 . S
N35 C36 1.333 . S
N35 C40 1.307 . S
N35 Zn41 2.020 . S
C36 N35 1.333 . S
C36 C37 1.379 . S
C36 H54 0.952 . S
C37 C36 1.379 . S
C37 C38 1.390 . S
C37 H64 0.949 . S
C38 C37 1.390 . S
C38 C39 1.357 . S
C39 C38 1.357 . S
C39 C40 1.370 . S
C39 H65 0.950 . S
C40 N35 1.307 . S
C40 C39 1.370 . S
C40 H58 0.948 . S
Zn41 N35 2.020 . S
Zn41 O50 2.039 . S
Zn41 O56 2.034 . S
Zn41 O60 2.025 . S
Zn41 O62 2.024 . S
C42 O61 1.246 . S
C42 O62 1.249 . S
N43 C44 1.307 . S
N43 C45 1.333 . S
N43 Zn49 2.020 . S
C44 N43 1.307 . S
C44 C48 1.370 . S
C44 H55 0.948 . S
C45 N43 1.333 . S
C45 C46 1.379 . S
C45 H53 0.952 . S
C46 C45 1.379 . S
C46 C47 1.390 . S
C46 H66 0.949 . S
C47 C46 1.390 . S
C47 C48 1.357 . S
C48 C44 1.370 . S
C48 C47 1.357 . S
C48 H67 0.950 . S
Zn49 N43 2.020 . S
Zn49 O52 2.025 . S
Zn49 O57 2.024 . S
Zn49 O59 2.039 . S
Zn49 O61 2.034 . S
O50 C34 1.251 . S
O50 Zn41 2.039 . S
C51 O56 1.246 . S
C51 O57 1.249 . S
O52 C34 1.254 . S
O52 Zn49 2.025 . S
H53 C45 0.952 . S
H54 C36 0.952 . S
H55 C44 0.948 . S
O56 Zn41 2.034 . S
O56 C51 1.246 . S
O57 Zn49 2.024 . S
O57 C51 1.249 . S
H58 C40 0.948 . S
O59 Zn49 2.039 . S
O59 C63 1.251 . S
O60 Zn41 2.025 . S
O60 C63 1.254 . S
O61 C42 1.246 . S
O61 Zn49 2.034 . S
O62 Zn41 2.024 . S
O62 C42 1.249 . S
C63 O59 1.251 . S
C63 O60 1.254 . S
H64 C37 0.949 . S
H65 C39 0.950 . S
H66 C46 0.949 . S
H67 C48 0.950 . S
H68 C73 0.930 . S
H69 C76 0.930 1_655 S
H70 C78 0.930 . S
H71 C72 1.016 . S
C72 H71 1.016 . S
C72 N79 1.286 . S
C73 H68 0.930 . S
C73 C74 1.397 . S
C73 C75 1.361 1_565 S
C74 C73 1.397 . S
C74 C78 1.390 . S
C75 C73 1.361 1_545 S
C75 C76 1.393 . S
C75 N79 1.413 1_455 S
C76 H69 0.930 1_455 S
C76 C75 1.393 . S
C76 C77 1.399 1_545 S
C77 C76 1.399 1_565 S
C77 C78 1.381 . S
C78 H70 0.930 . S
C78 C74 1.390 . S
C78 C77 1.381 . S
N79 C72 1.286 . S
N79 C75 1.413 1_655 S
H80 C85 0.930 . S
H81 C88 0.930 . S
H82 C90 0.930 . S
H83 C84 1.016 . S
C84 H83 1.016 . S
C84 N91 1.286 . S
C85 H80 0.930 . S
C85 C86 1.397 . S
C85 C87 1.361 1_665 S
C86 C85 1.397 . S
C86 C90 1.390 . S
C87 C85 1.361 1_445 S
C87 C88 1.393 . S
C87 N91 1.413 . S
C88 H81 0.930 . S
C88 C87 1.393 . S
C88 C89 1.399 1_455 S
C89 C88 1.399 1_655 S
C89 C90 1.381 1_545 S
C90 H82 0.930 . S
C90 C86 1.390 . S
C90 C89 1.381 1_565 S
N91 C84 1.286 . S
N91 C87 1.413 . S
H92 C97 0.930 . S
H93 C100 0.930 . S
H94 C102 0.930 . S
H95 C96 1.016 . S
C96 H95 1.016 . S
C96 N103 1.286 1_556 S
C97 H92 0.930 . S
C97 C98 1.397 1_554 S
C97 C99 1.361 1_554 S
C98 C97 1.397 1_556 S
C98 C102 1.390 . S
C99 C97 1.361 1_556 S
C99 C100 1.393 . S
C99 N103 1.413 1_556 S
C100 H93 0.930 . S
C100 C99 1.393 . S
C100 C101 1.399 . S
C101 C100 1.399 . S
C101 C102 1.381 . S
C102 H94 0.930 . S
C102 C98 1.390 . S
C102 C101 1.381 . S
N103 C96 1.286 1_554 S
N103 C99 1.413 1_554 S
H104 C109 0.930 1_556 S
H105 C112 0.930 . S
H106 C114 0.930 . S
H107 C108 1.016 . S
C108 H107 1.016 . S
C108 N115 1.286 . S
C109 H104 0.930 1_554 S
C109 C110 1.397 . S
C109 C111 1.361 . S
C110 C109 1.397 . S
C110 C114 1.390 . S
C111 C109 1.361 . S
C111 C112 1.393 . S
C111 N115 1.413 . S
C112 H105 0.930 . S
C112 C111 1.393 . S
C112 C113 1.399 . S
C113 C112 1.399 . S
C113 C114 1.381 . S
C114 H106 0.930 . S
C114 C110 1.390 . S
C114 C113 1.381 . S
N115 C108 1.286 . S
N115 C111 1.413 . S
C116 C117 1.387 . S
C116 H120 0.950 . S
C116 C125 1.390 . S
C117 C116 1.387 . S
C117 C119 1.387 1_554 S
H118 C125 0.950 . S
C119 C117 1.387 1_556 S
C119 C121 1.390 . S
C119 H123 0.950 . S
H120 C116 0.950 . S
C121 C119 1.390 . S
C121 C122 1.387 1_556 S
C121 H124 0.950 . S
C122 C121 1.387 1_554 S
C122 C125 1.387 . S
H123 C119 0.950 . S
H124 C121 0.950 . S
C125 C116 1.390 . S
C125 H118 0.950 . S
C125 C122 1.387 . S
C126 C127 1.387 . S
C126 H130 0.950 . S
C126 C135 1.390 . S
C127 C126 1.387 . S
C127 C129 1.387 . S
H128 C135 0.950 . S
C129 C127 1.387 . S
C129 C131 1.390 . S
C129 H133 0.950 1_554 S
H130 C126 0.950 . S
C131 C129 1.390 . S
C131 C132 1.387 . S
C131 H134 0.948 1_554 S
C132 C131 1.387 . S
C132 C135 1.387 . S
H133 C129 0.950 1_556 S
H134 C131 0.948 1_556 S
C135 C126 1.390 . S
C135 H128 0.950 . S
C135 C132 1.387 . S
C136 C137 1.402 . S
C136 H140 0.950 . S
C136 C145 1.390 . S
C137 C136 1.402 . S
C137 C139 1.377 1_554 S
H138 C145 0.950 . S
C139 C137 1.377 1_556 S
C139 C141 1.390 . S
C139 H143 0.950 . S
H140 C136 0.950 . S
C141 C139 1.390 . S
C141 C142 1.381 1_556 S
C141 H144 0.950 . S
C142 C141 1.381 1_554 S
C142 C145 1.392 . S
H143 C139 0.950 . S
H144 C141 0.950 . S
C145 C136 1.390 . S
C145 H138 0.950 . S
C145 C142 1.392 . S
C146 C147 1.387 1_554 S
C146 H150 0.950 . S
C146 C155 1.390 . S
C147 C146 1.387 1_556 S
C147 C149 1.387 . S
H148 C155 0.950 . S
C149 C147 1.387 . S
C149 C151 1.390 . S
C149 H153 0.950 . S
H150 C146 0.950 . S
C151 C149 1.390 . S
C151 C152 1.387 . S
C151 H154 0.950 . S
C152 C151 1.387 . S
C152 C155 1.387 1_556 S
H153 C149 0.950 . S
H154 C151 0.950 . S
C155 C146 1.390 . S
C155 H148 0.950 . S
C155 C152 1.387 1_554 S
C156 C157 1.387 . S
C156 H160 0.950 . S
C156 C165 1.390 . S
C157 C156 1.387 . S
C157 C159 1.387 . S
H158 C165 0.950 . S
C159 C157 1.387 . S
C159 C161 1.390 . S
C159 H163 0.950 . S
H160 C156 0.950 . S
C161 C159 1.390 . S
C161 C162 1.387 . S
C161 H164 0.950 . S
C162 C161 1.387 . S
C162 C165 1.387 . S
H163 C159 0.950 . S
H164 C161 0.950 . S
C165 C156 1.390 . S
C165 H158 0.950 . S
C165 C162 1.387 . S
C166 C167 1.387 . S
C166 H170 0.950 . S
C166 C175 1.390 . S
C167 C166 1.387 . S
C167 C169 1.387 . S
H168 C175 0.950 . S
C169 C167 1.387 . S
C169 C171 1.390 . S
C169 H173 0.950 . S
H170 C166 0.950 . S
C171 C169 1.390 . S
C171 C172 1.387 . S
C171 H174 0.950 . S
C172 C171 1.387 . S
C172 C175 1.387 . S
H173 C169 0.950 . S
H174 C171 0.950 . S
C175 C166 1.390 . S
C175 H168 0.950 . S
C175 C172 1.387 . S
C176 C177 1.387 . S
C176 H180 0.950 . S
C176 C185 1.390 . S
C177 C176 1.387 . S
C177 C179 1.387 . S
H178 C185 0.950 . S
C179 C177 1.387 . S
C179 C181 1.390 . S
C179 H183 0.950 . S
H180 C176 0.950 . S
C181 C179 1.390 . S
C181 C182 1.387 . S
C181 H184 0.950 . S
C182 C181 1.387 . S
C182 C185 1.387 . S
H183 C179 0.950 . S
H184 C181 0.950 . S
C185 C176 1.390 . S
C185 H178 0.950 . S
C185 C182 1.387 . S
C186 C187 1.387 . S
C186 H190 0.950 . S
C186 C195 1.390 . S
C187 C186 1.387 . S
C187 C189 1.387 . S
H188 C195 0.950 . S
C189 C187 1.387 . S
C189 C191 1.390 . S
C189 H193 0.950 . S
H190 C186 0.950 . S
C191 C189 1.390 . S
C191 C192 1.387 . S
C191 H194 0.950 . S
C192 C191 1.387 . S
C192 C195 1.387 . S
H193 C189 0.950 . S
H194 C191 0.950 . S
C195 C186 1.390 . S
C195 H188 0.950 . S
C195 C192 1.387 . S
C196 C197 1.387 . S
C196 H200 0.950 . S
C196 C205 1.390 . S
C197 C196 1.387 . S
C197 C199 1.387 1_545 S
H198 C205 0.950 . S
C199 C197 1.387 1_565 S
C199 C201 1.390 . S
C199 H203 0.950 . S
H200 C196 0.950 . S
C201 C199 1.390 . S
C201 C202 1.387 1_565 S
C201 H204 0.950 . S
C202 C201 1.387 1_545 S
C202 C205 1.387 . S
H203 C199 0.950 . S
H204 C201 0.950 . S
C205 C196 1.390 . S
C205 H198 0.950 . S
C205 C202 1.387 . S
C206 C207 1.387 . S
C206 H210 0.950 . S
C206 C215 1.390 . S
C207 C206 1.387 . S
C207 C209 1.387 1_545 S
H208 C215 0.950 . S
C209 C207 1.387 1_565 S
C209 C211 1.390 . S
C209 H213 0.950 . S
H210 C206 0.950 . S
C211 C209 1.390 . S
C211 C212 1.387 1_565 S
C211 H214 0.950 . S
C212 C211 1.387 1_545 S
C212 C215 1.387 . S
H213 C209 0.950 . S
H214 C211 0.950 . S
C215 C206 1.390 . S
C215 H208 0.950 . S
C215 C212 1.387 . S
C216 C217 1.387 . S
C216 H220 0.950 . S
C216 C225 1.390 . S
C217 C216 1.387 . S
C217 C219 1.387 . S
H218 C225 0.950 . S
C219 C217 1.387 . S
C219 C221 1.390 . S
C219 H223 0.950 . S
H220 C216 0.950 . S
C221 C219 1.390 . S
C221 C222 1.387 . S
C221 H224 0.950 . S
C222 C221 1.387 . S
C222 C225 1.387 . S
H223 C219 0.950 . S
H224 C221 0.950 . S
C225 C216 1.390 . S
C225 H218 0.950 . S
C225 C222 1.387 . S
C226 C227 1.387 . S
C226 H230 0.950 . S
C226 C235 1.390 . S
C227 C226 1.387 . S
C227 C229 1.387 . S
H228 C235 0.950 . S
C229 C227 1.387 . S
C229 C231 1.390 . S
C229 H233 0.950 . S
H230 C226 0.950 . S
C231 C229 1.390 . S
C231 C232 1.387 . S
C231 H234 0.950 . S
C232 C231 1.387 . S
C232 C235 1.387 . S
H233 C229 0.950 . S
H234 C231 0.950 . S
C235 C226 1.390 . S
C235 H228 0.950 . S
C235 C232 1.387 . S
C122 C110 1.473 . S
C117 C29 1.516 . S
C127 C8 1.460 . S
C132 C96 1.399 1_554 S
C137 C0 1.462 . S
C142 C108 1.408 . S
C147 C17 1.516 1_556 S
C152 C98 1.477 . S
C157 C63 1.516 . S
C162 C86 1.475 . S
C167 C42 1.460 . S
C172 C72 1.397 . S
C182 C84 1.402 . S
C177 C34 1.465 . S
C192 C74 1.477 . S
C187 C51 1.516 . S
C197 C4 1.525 . S
C202 C77 1.522 1_545 S
C207 C13 1.516 . S
C212 C89 1.514 . S
C222 C101 1.522 . S
C217 C38 1.525 . S
C227 C47 1.517 . S
C232 C113 1.513 . S
