# Generated by pormake.
# Topology anh, (6,3)-cn, num edge types: 1
# Building blocks:
#     Node 0, Type 0, BuildingBlock: GEDQOX_clean_sbu_0, # of connection points: 6
#     Node 1, Type 0, BuildingBlock: GEDQOX_clean_sbu_0, # of connection points: 6
#     Node 2, Type 0, BuildingBlock: GEDQOX_clean_sbu_0, # of connection points: 6
#     Node 3, Type 1, BuildingBlock: BETDAH_clean_linker_0, # of connection points: 3
#     Node 4, Type 1, BuildingBlock: BETDAH_clean_linker_0, # of connection points: 3
#     Node 5, Type 1, BuildingBlock: BETDAH_clean_linker_0, # of connection points: 3
#     Node 6, Type 1, BuildingBlock: BETDAH_clean_linker_0, # of connection points: 3
#     Node 7, Type 1, BuildingBlock: BETDAH_clean_linker_0, # of connection points: 3
#     Node 8, Type 1, BuildingBlock: BETDAH_clean_linker_0, # of connection points: 3
#     Edge 9, Type (0, 1), None
#     Edge 10, Type (0, 1), None
#     Edge 11, Type (0, 1), None
#     Edge 12, Type (0, 1), None
#     Edge 13, Type (0, 1), None
#     Edge 14, Type (0, 1), None
#     Edge 15, Type (0, 1), None
#     Edge 16, Type (0, 1), None
#     Edge 17, Type (0, 1), None
#     Edge 18, Type (0, 1), None
#     Edge 19, Type (0, 1), None
#     Edge 20, Type (0, 1), None
#     Edge 21, Type (0, 1), None
#     Edge 22, Type (0, 1), None
#     Edge 23, Type (0, 1), None
#     Edge 24, Type (0, 1), None
#     Edge 25, Type (0, 1), None
#     Edge 26, Type (0, 1), None
# Relax obj value: 0.387
# Max RMSD: 0.286
# Mean RMSD: 0.149
data_MOF--net-anh--node1-GEDQOX_clean_sbu_0--node2-BETDAH_clean_linker_0--edge1-none
_symmetry_space_group_name_H-M    P1
_symmetry_Int_Tables_number       1
_symmetry_cell_setting            triclinic
loop_
_symmetry_equiv_pos_as_xyz
'x, y, z'
_cell_length_a     14.459916
_cell_length_b     13.695976
_cell_length_c     22.084401
_cell_angle_alpha  96.176203
_cell_angle_beta   92.884313
_cell_angle_gamma 86.724891
loop_
_atom_site_label
_atom_site_type_symbol
_atom_site_fract_x
_atom_site_fract_y
_atom_site_fract_z
_atom_type_partial_charge
Nd0 Nd 1.15445 0.69776 0.12542 0.0
Nd1 Nd 1.15986 0.47702 0.12464 0.0
C2 C 0.19488 0.88299 0.12163 0.0
C3 C 0.28413 0.93023 0.13569 0.0
C4 C 0.36767 0.88291 0.11587 0.0
C5 C 0.45276 0.9125 0.14257 0.0
C6 C 0.45664 0.99169 0.18889 0.0
C7 C 0.37307 0.04426 0.20459 0.0
C8 C 0.28788 1.01308 0.17887 0.0
C9 C 1.13136 0.63308 0.23758 0.0
C10 C 0.37092 0.57577 0.12006 0.0
C11 C 1.16271 0.29768 0.15904 0.0
C12 C 1.09013 0.23078 0.17148 0.0
C13 C 1.0351 0.25197 0.22276 0.0
C14 C 0.96452 0.19073 0.23309 0.0
C15 C 0.94811 0.10707 0.19269 0.0
C16 C 1.00364 0.0843 0.14227 0.0
C17 C 1.07408 0.14567 0.1317 0.0
C18 C 1.1407 0.54347 0.01318 0.0
C19 C 0.9467 0.59263 0.10157 0.0
O20 O 0.18793 0.82031 0.07262 0.0
O21 O 1.16003 0.85096 0.16861 0.0
O22 O 1.08285 0.70556 0.21673 0.0
O23 O 0.18847 0.59768 0.19887 0.0
O24 O 0.3204 0.66144 0.12648 0.0
O25 O 0.3251 0.4923 0.11751 0.0
O26 O 1.16975 0.37733 0.19691 0.0
O27 O 0.17185 0.31397 0.10229 0.0
O28 O 1.10268 0.46427 0.02489 0.0
O29 O 0.19271 0.576 0.05656 0.0
O30 O 0.99381 0.51671 0.12514 0.0
O31 O 0.99706 0.66719 0.0887 0.0
H32 H 0.3673 0.81911 0.08239 0.0
H33 H 0.51474 0.86919 0.12916 0.0
H34 H 0.37282 0.10736 0.23863 0.0
H35 H 0.22461 0.05032 0.19549 0.0
H36 H 1.04549 0.31667 0.25458 0.0
H37 H 0.92202 0.20946 0.27212 0.0
H38 H 0.99182 1.01965 0.11059 0.0
H39 H 1.11565 0.12688 0.09224 0.0
Nd40 Nd 0.56495 0.08353 0.5045 0.0
Nd41 Nd 0.76237 0.06653 0.50215 0.0
C42 C 0.38758 0.05951 0.51738 0.0
C43 C 0.33302 0.97377 0.49531 0.0
C44 C 0.36606 0.87898 0.50686 0.0
C45 C 0.32569 0.79646 0.47676 0.0
C46 C 0.24872 0.8058 0.4356 0.0
C47 C 0.21264 0.90118 0.42647 0.0
C48 C 0.25544 0.98415 0.45526 0.0
C49 C 0.62621 0.08408 0.38808 0.0
C50 C 0.66985 0.85828 0.49724 0.0
C51 C 0.93899 0.08089 0.48073 0.0
C52 C 0.99689 0.15687 0.46306 0.0
C53 C 0.96758 0.21516 0.41623 0.0
C54 C 1.0238 0.28754 0.40072 0.0
C55 C 1.10941 0.30197 0.43184 0.0
C56 C 1.13828 0.24485 0.47887 0.0
C57 C 1.08218 0.17274 0.49449 0.0
C58 C 0.70075 0.06664 0.61867 0.0
C59 C 0.65961 0.28978 0.51394 0.0
O60 O 0.4513 0.04654 0.56045 0.0
O61 O 0.4171 0.10735 0.47472 0.0
O62 O 0.56056 0.14253 0.41112 0.0
O63 O 0.65728 1.02685 0.42638 0.0
O64 O 0.59334 0.91367 0.50832 0.0
O65 O 0.7472 0.89918 0.48767 0.0
O66 O 0.87825 0.04518 0.43966 0.0
O67 O 0.90649 0.09654 0.5352 0.0
O68 O 0.76337 1.00448 0.59494 0.0
O69 O 0.6706 0.12433 0.58026 0.0
O70 O 0.73035 0.23434 0.49115 0.0
O71 O 0.58919 0.24683 0.53367 0.0
H72 H 0.42632 0.86784 0.53691 0.0
H73 H 0.3585 0.7255 0.48411 0.0
H74 H 1.15292 0.91215 0.39594 0.0
H75 H 0.23037 0.05626 0.44422 0.0
H76 H 0.90124 0.20526 0.39195 0.0
H77 H 1.00026 0.33246 0.36491 0.0
H78 H 0.20422 0.25594 0.50354 0.0
H79 H 1.10557 0.12905 0.53097 0.0
Nd80 Nd 0.63106 0.55901 0.80348 0.0
Nd81 Nd 0.81648 0.53795 0.79757 0.0
C82 C 0.45857 0.61918 0.77822 0.0
C83 C 0.40141 0.7105 0.79009 0.0
C84 C 0.34166 0.74309 0.7435 0.0
C85 C 0.27134 0.81512 0.75767 0.0
C86 C 0.2586 0.85029 0.8188 0.0
C87 C 0.32952 0.83262 0.86255 0.0
C88 C 0.40029 0.76166 0.84853 0.0
C89 C 0.7062 0.55141 0.9217 0.0
C90 C 0.74495 0.76276 0.81316 0.0
C91 C 0.99399 0.48606 0.79274 0.0
C92 C 1.06365 0.42199 0.75866 0.0
C93 C 1.11064 0.35064 0.79192 0.0
C94 C 0.20402 0.36476 0.80944 0.0
C95 C 0.23641 0.45742 0.80082 0.0
C96 C 0.21204 0.48332 0.74186 0.0
C97 C 1.1193 0.47054 0.72176 0.0
C98 C 0.72995 0.54371 0.68359 0.0
C99 C 0.70588 0.33266 0.7906 0.0
O100 O 0.52541 0.62312 0.74129 0.0
O101 O 0.48253 0.56975 0.82467 0.0
O102 O 0.6324 0.50863 0.89906 0.0
O103 O 0.73985 0.59885 0.88217 0.0
O104 O 0.66632 0.72198 0.79604 0.0
O105 O 0.81695 0.70538 0.8279 0.0
O106 O 0.93925 0.44773 0.82805 0.0
O107 O 0.95549 0.56034 0.76693 0.0
O108 O 0.79564 0.59969 0.70387 0.0
O109 O 0.70977 0.4914 0.72379 0.0
O110 O 0.78401 0.3744 0.80906 0.0
O111 O 0.6338 0.39045 0.77625 0.0
H112 H 0.34359 0.70637 0.69756 0.0
H113 H 0.21753 0.82812 0.72306 0.0
H114 H 0.32148 0.86018 0.90999 0.0
H115 H 0.44828 0.74052 0.88469 0.0
H116 H 1.07289 0.30035 0.81481 0.0
H117 H 0.23673 0.32152 0.8436 0.0
H118 H 0.25034 0.53711 0.72241 0.0
H119 H 1.08824 0.51638 0.68838 0.0
H120 H 0.48151 0.05558 0.30984 0.0
H121 H 0.77947 0.04798 0.3193 0.0
H122 H 0.63414 0.97236 0.14789 0.0
C123 C 0.54626 0.04559 0.28676 0.0
C124 C 0.5459 1.01387 0.22389 0.0
C125 C 0.6298 0.05795 0.32149 0.0
C126 C 0.71467 0.04035 0.2928 0.0
C127 C 0.71553 1.01011 0.22987 0.0
C128 C 0.63167 0.99649 0.19614 0.0
N129 N 0.7996 0.98392 0.20035 0.0
C130 C 0.87214 0.04645 0.20093 0.0
H131 H 0.6997 0.36717 0.62588 0.0
H132 H 0.70673 0.67125 0.59703 0.0
H133 H 0.64586 0.45324 0.44569 0.0
C134 C 0.6911 0.42377 0.59538 0.0
C135 C 0.67104 0.39698 0.53348 0.0
C136 C 0.70469 0.52149 0.6183 0.0
C137 C 0.69646 0.59578 0.57886 0.0
C138 C 0.67368 0.57273 0.51639 0.0
C139 C 0.66237 0.47225 0.49374 0.0
N140 N 0.66155 0.648 0.47562 0.0
C141 C 0.66681 0.75046 0.49079 0.0
H142 H 0.22762 0.43967 0.92378 0.0
H143 H 1.08017 0.71464 0.97334 0.0
H144 H 0.18723 0.65615 0.79542 0.0
C145 C 0.20085 0.51033 0.91087 0.0
C146 C 0.2128 0.53657 0.85202 0.0
C147 C 1.14956 0.57209 0.9527 0.0
C148 C 1.11616 0.66548 0.93943 0.0
C149 C 1.1334 0.6976 0.88369 0.0
C150 C 0.18057 0.63266 0.83997 0.0
N151 N 1.10854 0.79679 0.87326 0.0
C152 C 1.16739 0.84334 0.83946 0.0
H153 H 0.17064 0.78682 0.31879 0.0
H154 H 1.15379 0.47272 0.30027 0.0
H155 H 0.24804 0.61989 0.47029 0.0
C156 C 0.17521 0.71846 0.33953 0.0
C157 C 0.21148 0.71623 0.39995 0.0
C158 C 1.15318 0.63099 0.3034 0.0
C159 C 1.16669 0.54081 0.32812 0.0
C160 C 0.20187 0.53801 0.38817 0.0
C161 C 0.22187 0.62499 0.42389 0.0
N162 N 0.22938 0.44798 0.41106 0.0
C163 C 1.16742 0.37687 0.41737 0.0
H164 H 0.66952 0.2469 0.67839 0.0
H165 H 0.72844 0.94426 0.70779 0.0
H166 H 0.74358 0.17137 0.85908 0.0
C167 C 0.68738 0.19228 0.70929 0.0
C168 C 0.70593 0.22318 0.77125 0.0
C169 C 0.69932 0.09296 0.6857 0.0
C170 C 0.72039 1.02082 0.72592 0.0
C171 C 0.73322 0.04739 0.78906 0.0
C172 C 0.72947 0.14957 0.81104 0.0
N173 N 0.75305 0.97424 0.83093 0.0
C174 C 0.74965 0.87084 0.81843 0.0
H175 H 0.87411 0.57991 0.98449 0.0
H176 H 0.58092 0.56062 0.00838 0.0
H177 H 0.77082 0.58944 0.16604 0.0
C178 C 0.81792 0.58003 0.01519 0.0
C179 C 0.83963 0.58636 0.0791 0.0
C180 C 0.72599 0.56839 -0.01038 0.0
C181 C 0.65047 0.56815 0.02833 0.0
C182 C 0.66216 0.57738 0.09208 0.0
C183 C 0.75882 0.5844 0.11707 0.0
N184 N 0.58023 0.57802 0.13078 0.0
C185 C 0.47924 0.5749 0.11876 0.0
loop_
_geom_bond_atom_site_label_1
_geom_bond_atom_site_label_2
_geom_bond_distance
_geom_bond_site_symmetry_2
_ccdc_geom_bond_type
Nd0 C2 2.836 . S
Nd0 O20 2.500 . S
Nd0 O21 2.492 . S
Nd0 O22 2.487 . S
Nd0 O23 2.682 . S
Nd0 O24 2.410 . S
Nd0 O29 2.414 . S
Nd0 O31 2.424 1_455 S
Nd1 C11 2.836 . S
Nd1 O23 2.414 1_655 S
Nd1 O25 2.424 1_655 S
Nd1 O26 2.500 . S
Nd1 O27 2.492 . S
Nd1 O28 2.487 . S
Nd1 O29 2.682 1_655 S
Nd1 O30 2.410 . S
C2 Nd0 2.836 . S
C2 C3 1.498 . S
C2 O20 1.258 . S
C2 O21 1.239 . S
C3 C2 1.498 . S
C3 C4 1.366 . S
C3 C8 1.407 . S
C4 C3 1.366 . S
C4 C5 1.392 . S
C4 H32 0.930 . S
C5 C4 1.392 . S
C5 C6 1.398 . S
C5 H33 0.929 . S
C6 C5 1.398 . S
C6 C7 1.352 . S
C7 C6 1.352 . S
C7 C8 1.384 . S
C7 H34 0.930 1_565 S
C8 C3 1.407 . S
C8 C7 1.384 . S
C8 H35 0.929 . S
C9 O22 1.241 . S
C9 O23 1.273 . S
C10 O24 1.251 . S
C10 O25 1.268 . S
C11 Nd1 2.836 . S
C11 C12 1.498 . S
C11 O26 1.258 . S
C11 O27 1.239 . S
C12 C11 1.498 . S
C12 C13 1.366 . S
C12 C17 1.407 . S
C13 C12 1.366 . S
C13 C14 1.392 . S
C13 H36 0.930 . S
C14 C13 1.392 . S
C14 C15 1.398 . S
C14 H37 0.929 . S
C15 C14 1.398 . S
C15 C16 1.352 . S
C16 C15 1.352 . S
C16 C17 1.384 . S
C16 H38 0.930 . S
C17 C12 1.407 . S
C17 C16 1.384 . S
C17 H39 0.929 . S
C18 O28 1.241 1_455 S
C18 O29 1.273 . S
C19 O30 1.251 . S
C19 O31 1.268 . S
O20 Nd0 2.500 . S
O20 C2 1.258 . S
O21 Nd0 2.492 . S
O21 C2 1.239 . S
O22 Nd0 2.487 . S
O22 C9 1.241 . S
O23 Nd0 2.682 . S
O23 Nd1 2.414 1_455 S
O23 C9 1.273 . S
O24 Nd0 2.410 . S
O24 C10 1.251 . S
O25 Nd1 2.424 1_455 S
O25 C10 1.268 . S
O26 Nd1 2.500 . S
O26 C11 1.258 . S
O27 Nd1 2.492 . S
O27 C11 1.239 . S
O28 Nd1 2.487 . S
O28 C18 1.241 1_655 S
O29 Nd0 2.414 . S
O29 Nd1 2.682 1_455 S
O29 C18 1.273 . S
O30 Nd1 2.410 . S
O30 C19 1.251 . S
O31 Nd0 2.424 1_655 S
O31 C19 1.268 . S
H32 C4 0.930 . S
H33 C5 0.929 . S
H34 C7 0.930 1_545 S
H35 C8 0.929 . S
H36 C13 0.930 . S
H37 C14 0.929 . S
H38 C16 0.930 . S
H39 C17 0.929 . S
Nd40 C42 2.836 1_545 S
Nd40 O60 2.500 1_545 S
Nd40 O61 2.492 1_545 S
Nd40 O62 2.487 . S
Nd40 O63 2.682 . S
Nd40 O64 2.410 1_545 S
Nd40 O69 2.414 . S
Nd40 O71 2.424 . S
Nd41 C51 2.836 . S
Nd41 O63 2.414 . S
Nd41 O65 2.424 1_545 S
Nd41 O66 2.500 . S
Nd41 O67 2.492 . S
Nd41 O68 2.487 . S
Nd41 O69 2.682 . S
Nd41 O70 2.410 . S
C42 Nd40 2.836 1_565 S
C42 C43 1.498 . S
C42 O60 1.258 . S
C42 O61 1.239 . S
C43 C42 1.498 . S
C43 C44 1.366 . S
C43 C48 1.407 . S
C44 C43 1.366 . S
C44 C45 1.392 . S
C44 H72 0.930 . S
C45 C44 1.392 . S
C45 C46 1.398 . S
C45 H73 0.929 . S
C46 C45 1.398 . S
C46 C47 1.352 . S
C47 C46 1.352 . S
C47 C48 1.384 . S
C47 H74 0.930 . S
C48 C43 1.407 . S
C48 C47 1.384 . S
C48 H75 0.929 . S
C49 O62 1.241 . S
C49 O63 1.273 . S
C50 O64 1.251 . S
C50 O65 1.268 . S
C51 Nd41 2.836 . S
C51 C52 1.498 . S
C51 O66 1.258 . S
C51 O67 1.239 . S
C52 C51 1.498 . S
C52 C53 1.366 . S
C52 C57 1.407 . S
C53 C52 1.366 . S
C53 C54 1.392 . S
C53 H76 0.930 . S
C54 C53 1.392 . S
C54 C55 1.398 . S
C54 H77 0.929 . S
C55 C54 1.398 . S
C55 C56 1.352 . S
C56 C55 1.352 . S
C56 C57 1.384 . S
C56 H78 0.930 . S
C57 C52 1.407 . S
C57 C56 1.384 . S
C57 H79 0.929 . S
C58 O68 1.241 . S
C58 O69 1.273 . S
C59 O70 1.251 . S
C59 O71 1.268 . S
O60 Nd40 2.500 1_565 S
O60 C42 1.258 . S
O61 Nd40 2.492 1_565 S
O61 C42 1.239 . S
O62 Nd40 2.487 . S
O62 C49 1.241 . S
O63 Nd40 2.682 . S
O63 Nd41 2.414 . S
O63 C49 1.273 . S
O64 Nd40 2.410 1_565 S
O64 C50 1.251 . S
O65 Nd41 2.424 1_565 S
O65 C50 1.268 . S
O66 Nd41 2.500 . S
O66 C51 1.258 . S
O67 Nd41 2.492 . S
O67 C51 1.239 . S
O68 Nd41 2.487 . S
O68 C58 1.241 . S
O69 Nd40 2.414 . S
O69 Nd41 2.682 . S
O69 C58 1.273 . S
O70 Nd41 2.410 . S
O70 C59 1.251 . S
O71 Nd40 2.424 . S
O71 C59 1.268 . S
H72 C44 0.930 . S
H73 C45 0.929 . S
H74 C47 0.930 . S
H75 C48 0.929 . S
H76 C53 0.930 . S
H77 C54 0.929 . S
H78 C56 0.930 . S
H79 C57 0.929 . S
Nd80 C82 2.836 . S
Nd80 O100 2.500 . S
Nd80 O101 2.492 . S
Nd80 O102 2.487 . S
Nd80 O103 2.682 . S
Nd80 O104 2.410 . S
Nd80 O109 2.414 . S
Nd80 O111 2.424 . S
Nd81 C91 2.836 . S
Nd81 O103 2.414 . S
Nd81 O105 2.424 . S
Nd81 O106 2.500 . S
Nd81 O107 2.492 . S
Nd81 O108 2.487 . S
Nd81 O109 2.682 . S
Nd81 O110 2.410 . S
C82 Nd80 2.836 . S
C82 C83 1.498 . S
C82 O100 1.258 . S
C82 O101 1.239 . S
C83 C82 1.498 . S
C83 C84 1.366 . S
C83 C88 1.407 . S
C84 C83 1.366 . S
C84 C85 1.392 . S
C84 H112 0.930 . S
C85 C84 1.392 . S
C85 C86 1.398 . S
C85 H113 0.929 . S
C86 C85 1.398 . S
C86 C87 1.352 . S
C87 C86 1.352 . S
C87 C88 1.384 . S
C87 H114 0.930 . S
C88 C83 1.407 . S
C88 C87 1.384 . S
C88 H115 0.929 . S
C89 O102 1.241 . S
C89 O103 1.273 . S
C90 O104 1.251 . S
C90 O105 1.268 . S
C91 Nd81 2.836 . S
C91 C92 1.498 . S
C91 O106 1.258 . S
C91 O107 1.239 . S
C92 C91 1.498 . S
C92 C93 1.366 . S
C92 C97 1.407 . S
C93 C92 1.366 . S
C93 C94 1.392 . S
C93 H116 0.930 . S
C94 C93 1.392 . S
C94 C95 1.398 . S
C94 H117 0.929 . S
C95 C94 1.398 . S
C95 C96 1.352 . S
C96 C95 1.352 . S
C96 C97 1.384 . S
C96 H118 0.930 . S
C97 C92 1.407 . S
C97 C96 1.384 . S
C97 H119 0.929 . S
C98 O108 1.241 . S
C98 O109 1.273 . S
C99 O110 1.251 . S
C99 O111 1.268 . S
O100 Nd80 2.500 . S
O100 C82 1.258 . S
O101 Nd80 2.492 . S
O101 C82 1.239 . S
O102 Nd80 2.487 . S
O102 C89 1.241 . S
O103 Nd80 2.682 . S
O103 Nd81 2.414 . S
O103 C89 1.273 . S
O104 Nd80 2.410 . S
O104 C90 1.251 . S
O105 Nd81 2.424 . S
O105 C90 1.268 . S
O106 Nd81 2.500 . S
O106 C91 1.258 . S
O107 Nd81 2.492 . S
O107 C91 1.239 . S
O108 Nd81 2.487 . S
O108 C98 1.241 . S
O109 Nd80 2.414 . S
O109 Nd81 2.682 . S
O109 C98 1.273 . S
O110 Nd81 2.410 . S
O110 C99 1.251 . S
O111 Nd80 2.424 . S
O111 C99 1.268 . S
H112 C84 0.930 . S
H113 C85 0.929 . S
H114 C87 0.930 . S
H115 C88 0.929 . S
H116 C93 0.930 . S
H117 C94 0.929 . S
H118 C96 0.930 . S
H119 C97 0.929 . S
H120 C123 0.929 . S
H121 C126 0.929 . S
H122 C128 0.930 . S
C123 H120 0.929 . S
C123 C124 1.398 . S
C123 C125 1.396 1_565 S
C124 C123 1.398 . S
C124 C128 1.407 . S
C125 C123 1.396 1_545 S
C125 C126 1.394 . S
C126 H121 0.929 . S
C126 C125 1.394 . S
C126 C127 1.382 . S
C127 C126 1.382 . S
C127 C128 1.392 1_545 S
C127 N129 1.420 . S
C128 H122 0.930 . S
C128 C124 1.407 . S
C128 C127 1.392 1_565 S
N129 C127 1.420 . S
N129 C130 1.244 . S
C130 N129 1.244 . S
H131 C134 0.929 . S
H132 C137 0.929 . S
H133 C139 0.930 . S
C134 H131 0.929 . S
C134 C135 1.398 . S
C134 C136 1.396 . S
C135 C134 1.398 . S
C135 C139 1.407 . S
C136 C134 1.396 . S
C136 C137 1.394 . S
C137 H132 0.929 . S
C137 C136 1.394 . S
C137 C138 1.382 . S
C138 C137 1.382 . S
C138 C139 1.392 . S
C138 N140 1.420 . S
C139 H133 0.930 . S
C139 C135 1.407 . S
C139 C138 1.392 . S
N140 C138 1.420 . S
N140 C141 1.244 . S
C141 N140 1.244 . S
H142 C145 0.929 1_554 S
H143 C148 0.929 1_554 S
H144 C150 0.930 . S
C145 H142 0.929 1_556 S
C145 C146 1.398 . S
C145 C147 1.396 1_656 S
C146 C145 1.398 . S
C146 C150 1.407 . S
C147 C145 1.396 1_454 S
C147 C148 1.394 1_554 S
C148 H143 0.929 1_556 S
C148 C147 1.394 1_556 S
C148 C149 1.382 . S
C149 C148 1.382 . S
C149 C150 1.392 1_455 S
C149 N151 1.420 . S
C150 H144 0.930 . S
C150 C146 1.407 . S
C150 C149 1.392 1_655 S
N151 C149 1.420 . S
N151 C152 1.244 . S
C152 N151 1.244 . S
H153 C156 0.929 . S
H154 C159 0.929 . S
H155 C161 0.930 . S
C156 H153 0.929 . S
C156 C157 1.398 . S
C156 C158 1.396 . S
C157 C156 1.398 . S
C157 C161 1.407 . S
C158 C156 1.396 . S
C158 C159 1.394 1_455 S
C159 H154 0.929 . S
C159 C158 1.394 1_655 S
C159 C160 1.382 1_655 S
C160 C159 1.382 1_455 S
C160 C161 1.392 . S
C160 N162 1.420 1_455 S
C161 H155 0.930 . S
C161 C157 1.407 . S
C161 C160 1.392 . S
N162 C160 1.420 1_655 S
N162 C163 1.244 . S
C163 N162 1.244 . S
H164 C167 0.929 . S
H165 C170 0.929 . S
H166 C172 0.930 . S
C167 H164 0.929 . S
C167 C168 1.398 . S
C167 C169 1.396 . S
C168 C167 1.398 . S
C168 C172 1.407 . S
C169 C167 1.396 . S
C169 C170 1.394 1_545 S
C170 H165 0.929 . S
C170 C169 1.394 1_565 S
C170 C171 1.382 . S
C171 C170 1.382 . S
C171 C172 1.392 1_565 S
C171 N173 1.420 . S
C172 H166 0.930 . S
C172 C168 1.407 . S
C172 C171 1.392 1_545 S
N173 C171 1.420 . S
N173 C174 1.244 . S
C174 N173 1.244 . S
H175 C178 0.929 . S
H176 C181 0.929 . S
H177 C183 0.930 . S
C178 H175 0.929 . S
C178 C179 1.398 . S
C178 C180 1.396 . S
C179 C178 1.398 . S
C179 C183 1.407 . S
C180 C178 1.396 . S
C180 C181 1.394 . S
C181 H176 0.929 . S
C181 C180 1.394 . S
C181 C182 1.382 . S
C182 C181 1.382 . S
C182 C183 1.392 . S
C182 N184 1.420 . S
C183 H177 0.930 . S
C183 C179 1.407 . S
C183 C182 1.392 . S
N184 C182 1.420 . S
N184 C185 1.244 . S
C185 N184 1.244 . S
C10 C185 4.760 . S
C55 C163 2.299 . S
C90 C174 2.513 . S
C19 C179 4.753 . S
C157 C46 2.130 . S
C168 C99 2.616 . S
C50 C141 2.395 . S
C95 C146 4.147 . S
C6 C124 2.035 . S
C135 C59 2.402 . S
C152 C86 3.089 . S
C15 C130 3.091 . S
C147 C18 0.891 . S
C49 C125 1.396 . S
C98 C136 1.247 . S
C169 C58 1.103 . S
C180 C89 2.031 1_554 S
C9 C158 1.474 . S
