# Generated by pormake.
# Topology tsx, (6,3)-cn, num edge types: 1
# Building blocks:
#     Node 0, Type 0, BuildingBlock: MIDCAF_clean_sbu_0, # of connection points: 6
#     Node 1, Type 0, BuildingBlock: MIDCAF_clean_sbu_0, # of connection points: 6
#     Node 2, Type 1, BuildingBlock: PAMTOO_clean_linker_0, # of connection points: 3
#     Node 3, Type 1, BuildingBlock: PAMTOO_clean_linker_0, # of connection points: 3
#     Node 4, Type 1, BuildingBlock: PAMTOO_clean_linker_0, # of connection points: 3
#     Node 5, Type 1, BuildingBlock: PAMTOO_clean_linker_0, # of connection points: 3
#     Edge 6, Type (0, 1), BuildingBlock: OJICUG_clean_linker_0, # of connection points: 2
#     Edge 7, Type (0, 1), BuildingBlock: OJICUG_clean_linker_0, # of connection points: 2
#     Edge 8, Type (0, 1), BuildingBlock: OJICUG_clean_linker_0, # of connection points: 2
#     Edge 9, Type (0, 1), BuildingBlock: OJICUG_clean_linker_0, # of connection points: 2
#     Edge 10, Type (0, 1), BuildingBlock: OJICUG_clean_linker_0, # of connection points: 2
#     Edge 11, Type (0, 1), BuildingBlock: OJICUG_clean_linker_0, # of connection points: 2
#     Edge 12, Type (0, 1), BuildingBlock: OJICUG_clean_linker_0, # of connection points: 2
#     Edge 13, Type (0, 1), BuildingBlock: OJICUG_clean_linker_0, # of connection points: 2
#     Edge 14, Type (0, 1), BuildingBlock: OJICUG_clean_linker_0, # of connection points: 2
#     Edge 15, Type (0, 1), BuildingBlock: OJICUG_clean_linker_0, # of connection points: 2
#     Edge 16, Type (0, 1), BuildingBlock: OJICUG_clean_linker_0, # of connection points: 2
#     Edge 17, Type (0, 1), BuildingBlock: OJICUG_clean_linker_0, # of connection points: 2
# Relax obj value: 0.097
# Max RMSD: 0.164
# Mean RMSD: 0.126
data_MOF--net-tsx--node1-MIDCAF_clean_sbu_0--node2-PAMTOO_clean_linker_0--edge1-OJICUG_clean_linker_0
_symmetry_space_group_name_H-M    P1
_symmetry_Int_Tables_number       1
_symmetry_cell_setting            triclinic
loop_
_symmetry_equiv_pos_as_xyz
'x, y, z'
_cell_length_a     13.720386
_cell_length_b     15.127911
_cell_length_c     26.445432
_cell_angle_alpha  79.714517
_cell_angle_beta   100.59294
_cell_angle_gamma 90.16921
loop_
_atom_site_label
_atom_site_type_symbol
_atom_site_fract_x
_atom_site_fract_y
_atom_site_fract_z
_atom_type_partial_charge
Zn0 Zn 0.8712 0.95132 0.92911 0.0
Zn1 Zn 0.13775 0.85249 0.05122 0.0
Zn2 Zn 1.0316 0.93006 0.98248 0.0
C3 C 0.21378 0.02329 0.02557 0.0
C4 C 0.15414 0.77798 0.97072 0.0
O5 O 0.94995 0.82315 0.0169 0.0
O6 O 0.80809 0.84137 0.96189 0.0
C7 C 0.92323 0.11005 0.97324 0.0
O8 O 0.11863 0.03593 0.01384 0.0
O9 O 0.2481 0.94305 0.0378 0.0
O10 O 0.12845 0.74749 0.01396 0.0
O11 O 0.13999 0.86214 0.95159 0.0
O12 O 0.85213 0.07174 0.94879 0.0
O13 O 1.0073 0.06815 -0.00841 0.0
O14 O 0.07476 0.93623 0.90665 0.0
O15 O 0.92161 0.9533 0.86249 0.0
C16 C 1.01385 0.94851 0.86285 0.0
O17 O 0.04259 1.00509 0.04797 0.0
O18 O 0.05474 0.87808 0.10404 0.0
C19 C 0.8628 0.79714 0.00211 0.0
C20 C 0.03747 0.96232 0.09407 0.0
Zn21 Zn 0.75597 0.57223 0.55162 0.0
Zn22 Zn 0.41023 0.60749 0.42848 0.0
Zn23 Zn 0.58445 0.592 0.48853 0.0
C24 C 0.5387 0.52697 0.37805 0.0
C25 C 0.46235 0.78094 0.43933 0.0
O26 O 0.5619 0.52512 0.56619 0.0
O27 O 0.71378 0.49993 0.61281 0.0
C28 C 0.78366 0.48822 0.47183 0.0
O29 O 0.6003 0.53261 0.42038 0.0
O30 O 0.45026 0.55606 0.37136 0.0
O31 O 0.39011 0.73811 0.42015 0.0
O32 O 0.54361 0.73906 0.46429 0.0
O33 O 0.83355 0.51075 0.51229 0.0
O34 O 0.69087 0.51226 0.45717 0.0
O35 O 0.63934 0.7284 0.49442 0.0
O36 O 0.77819 0.70101 0.55324 0.0
C37 C 0.71596 0.75631 0.52266 0.0
O38 O 0.47338 0.51499 0.53097 0.0
O39 O 0.33263 0.53246 0.47373 0.0
C40 C 0.62125 0.49399 0.60939 0.0
C41 C 0.38051 0.49848 0.51836 0.0
H42 H 0.25432 0.03015 0.28988 0.0
H43 H 1.01415 0.22125 0.27087 0.0
H44 H 0.23094 0.17529 0.41345 0.0
H45 H 1.02075 0.18066 0.42513 0.0
C46 C 0.98923 0.22902 0.38899 0.0
O47 O 0.06503 0.26222 0.3638 0.0
H48 H 0.93692 0.1927 0.363 0.0
C49 C 0.21938 0.08234 0.30436 0.0
C50 C 0.25714 0.10013 0.35449 0.0
C51 C 0.13181 0.12497 0.27429 0.0
C52 C 0.08324 0.18955 0.29331 0.0
C53 C 0.11903 0.20762 0.34349 0.0
C54 C 0.20588 0.16313 0.37405 0.0
H55 H 0.20787 0.17728 0.68553 0.0
H56 H 1.01668 0.98434 0.61783 0.0
H57 H 0.10142 0.21497 0.51919 0.0
H58 H 0.8758 0.14286 0.46979 0.0
C59 C 0.88984 0.10199 0.50965 0.0
O60 O 0.98915 0.07523 0.52305 0.0
H61 H 0.86923 0.14533 0.53625 0.0
C62 C 0.16694 0.15279 0.65198 0.0
C63 C 0.16551 0.20289 0.60149 0.0
C64 C 0.10982 0.07508 0.65891 0.0
C65 C 0.05714 0.04592 0.61416 0.0
C66 C 0.05088 0.09817 0.56449 0.0
C67 C 0.1057 0.17575 0.55812 0.0
H68 H 0.75256 0.39107 0.83747 0.0
H69 H 0.49196 0.55984 0.82226 0.0
H70 H 0.68618 0.4887 0.9702 0.0
H71 H 0.47623 0.50492 0.98136 0.0
C72 C 0.44767 0.53584 0.93991 0.0
O73 O 0.52443 0.57788 0.91913 0.0
H74 H 0.41793 0.48178 0.91822 0.0
C75 C 0.70553 0.43113 0.85388 0.0
C76 C 0.72941 0.43423 0.90751 0.0
C77 C 0.61949 0.47542 0.8222 0.0
C78 C 0.56007 0.52664 0.84481 0.0
C79 C 0.58553 0.53271 0.89765 0.0
C80 C 0.66976 0.48672 0.92893 0.0
H81 H 0.72833 0.54535 0.18527 0.0
H82 H 0.55234 0.30792 0.18865 0.0
H83 H 0.67304 0.4129 0.05295 0.0
H84 H 0.49678 0.34431 0.01654 0.0
C85 C 0.47428 0.31954 0.05472 0.0
O86 O 0.55835 0.29324 0.09223 0.0
H87 H 0.4335 0.37526 0.06522 0.0
C88 C 0.69905 0.4886 0.1681 0.0
C89 C 0.7099 0.48485 0.11695 0.0
C90 C 0.6426 0.42516 0.19491 0.0
C91 C 0.59787 0.35683 0.16955 0.0
C92 C 0.60929 0.35276 0.11848 0.0
C93 C 0.66698 0.41537 0.09283 0.0
C94 C 0.24077 0.18574 0.0295 0.0
C95 C 0.2801 0.09897 0.03234 0.0
H96 H 0.27176 0.32299 0.03491 0.0
C97 C 0.38362 0.08478 0.04252 0.0
H98 H 0.16136 0.19897 0.02132 0.0
C99 C 0.44658 0.15581 0.05013 0.0
C100 C 0.40718 0.24192 0.04877 0.0
H101 H 0.41613 0.01886 0.04435 0.0
H102 H 0.52607 0.14342 0.05711 0.0
C103 C 0.3038 0.25658 0.03756 0.0
C104 C 0.20601 0.62549 0.96257 0.0
C105 C 0.21551 0.71894 0.94999 0.0
H106 H 0.27294 0.49543 0.96896 0.0
C107 C 0.2959 0.75306 0.92745 0.0
H108 H 0.14443 0.59759 0.97995 0.0
C109 C 0.37026 0.69445 0.92185 0.0
C110 C 0.36401 0.60096 0.93805 0.0
H111 H 0.30519 0.8249 0.91793 0.0
H112 H 0.43422 0.72284 0.90705 0.0
C113 C 0.27956 0.56712 0.95661 0.0
C114 C 0.7315 0.68462 0.01265 0.0
C115 C 0.82576 0.71548 0.03111 0.0
H116 H 0.62127 0.58748 0.026 0.0
C117 C 0.88362 0.66774 0.07736 0.0
H118 H 0.685 0.71978 0.97718 0.0
C119 C 0.84709 0.59125 0.10496 0.0
C120 C 0.75279 0.56105 0.08638 0.0
H121 H 0.95657 0.6899 0.09252 0.0
H122 H 0.89203 0.55599 0.14091 0.0
C123 C 0.69531 0.60837 0.04018 0.0
C124 C 0.8241 0.22327 -0.00115 0.0
C125 C 0.90642 0.20333 0.97792 0.0
H126 H 0.70296 0.31497 -0.00724 0.0
C127 C 0.94648 0.27135 0.94519 0.0
H128 H 0.79177 0.17112 0.02383 0.0
C129 C 0.89501 0.35387 0.92681 0.0
C130 C 0.80391 0.36871 0.94159 0.0
H131 H 1.00949 0.25674 0.92828 0.0
H132 H 0.92045 0.40183 0.89677 0.0
C133 C 0.77325 0.3058 0.98097 0.0
C134 C 0.7705 0.88795 0.5632 0.0
C135 C 0.73754 0.85226 0.51779 0.0
H136 H 0.84007 0.99738 0.5956 0.0
C137 C 0.74335 0.90374 0.46881 0.0
H138 H 0.76684 0.84907 0.60139 0.0
C139 C 0.78914 0.9869 0.46573 0.0
C140 C 0.82686 0.0204 0.51152 0.0
H141 H 0.71944 0.8768 0.43338 0.0
H142 H 0.79875 0.02325 0.42788 0.0
C143 C 0.81337 0.97199 0.55999 0.0
C144 C 0.93704 0.43102 0.44859 0.0
C145 C 0.8333 0.42938 0.44454 0.0
H146 H 0.06738 0.36893 0.43456 0.0
C147 C 0.78063 0.3645 0.41971 0.0
H148 H 0.97999 0.47931 0.46832 0.0
C149 C 0.83061 0.30291 0.39909 0.0
C150 C 0.93449 0.3036 0.40409 0.0
H151 H 0.70134 0.35939 0.41776 0.0
H152 H 0.78846 0.25223 0.38116 0.0
C153 C 0.98716 0.36832 0.42901 0.0
C154 C 0.37966 0.35732 0.58526 0.0
C155 C 0.32915 0.43312 0.55237 0.0
H156 H 0.36627 0.22357 0.62733 0.0
C157 C 0.22492 0.4379 0.54426 0.0
H158 H 0.4598 0.35135 0.59181 0.0
C159 C 0.17203 0.36522 0.56412 0.0
C160 C 0.222 0.28612 0.59274 0.0
H161 H 0.18377 0.4957 0.51951 0.0
H162 H 0.09171 0.3687 0.55434 0.0
C163 C 0.32622 0.28412 0.6054 0.0
C164 C 0.37719 0.91069 0.45838 0.0
C165 C 0.44753 0.87875 0.43298 0.0
H166 H 0.26193 0.00854 0.45359 0.0
C167 C 0.47274 0.934 0.38912 0.0
H168 H 0.35553 0.86834 0.49183 0.0
C169 C 0.41875 0.01438 0.36693 0.0
C170 C 0.33843 0.03996 0.38816 0.0
H171 H 0.52563 0.9101 0.36845 0.0
H172 H 0.43275 0.05138 0.33007 0.0
C173 C 0.32329 0.99102 0.43631 0.0
C174 C 1.03301 0.96152 0.18775 0.0
C175 C 0.03698 0.01071 0.13787 0.0
H176 H 0.05986 0.96048 0.27013 0.0
C177 C 0.05651 0.10307 0.13247 0.0
H178 H 1.01708 0.89062 0.19317 0.0
C179 C 0.08096 0.1431 0.17686 0.0
C180 C 0.08568 0.09115 0.22684 0.0
H181 H 0.05964 0.14283 0.09449 0.0
H182 H 0.10234 0.21265 0.17239 0.0
C183 C 0.05752 1.00131 0.2318 0.0
C184 C 0.14352 0.99402 0.80711 0.0
C185 C 0.04737 0.96553 0.81188 0.0
H186 H 0.24 0.05022 0.75491 0.0
C187 C 0.97671 0.96539 0.76622 0.0
H188 H 0.19955 0.99515 0.84165 0.0
C189 C 0.9987 0.99841 0.71727 0.0
C190 C 0.09306 0.03111 0.71186 0.0
H191 H 0.90191 0.94384 0.76824 0.0
H192 H 0.93899 1.00236 0.68389 0.0
C193 C 0.16618 0.02663 0.75744 0.0
C194 C 0.54197 0.54403 0.67535 0.0
C195 C 0.58454 0.47322 0.65842 0.0
H196 H 0.52414 0.60284 0.74051 0.0
C197 C 0.62036 0.39576 0.69448 0.0
H198 H 0.51539 0.60506 0.64799 0.0
C199 C 0.6226 0.39281 0.7477 0.0
C200 C 0.59348 0.46909 0.76574 0.0
H201 H 0.65371 0.34053 0.68195 0.0
H202 H 0.65332 0.33285 0.77473 0.0
C203 C 0.54776 0.54273 0.72867 0.0
C204 C 0.5005 0.44903 0.30183 0.0
C205 C 0.57007 0.49009 0.33549 0.0
H206 H 0.46813 0.39699 0.23101 0.0
C207 C 0.66619 0.50255 0.32514 0.0
H208 H 0.42549 0.43916 0.30881 0.0
C209 C 0.69208 0.47523 0.28153 0.0
C210 C 0.62103 0.43824 0.2462 0.0
H211 H 0.72042 0.53612 0.34972 0.0
H212 H 0.76686 0.48619 0.27452 0.0
C213 C 0.52549 0.42366 0.25757 0.0
loop_
_geom_bond_atom_site_label_1
_geom_bond_atom_site_label_2
_geom_bond_distance
_geom_bond_site_symmetry_2
_ccdc_geom_bond_type
Zn0 O6 1.920 1_545 S
Zn0 O12 1.898 . S
Zn0 O15 1.905 1_545 S
Zn1 O9 1.905 . S
Zn1 O10 1.898 1_545 S
Zn1 O18 1.920 1_545 S
Zn2 O5 2.080 1_445 S
Zn2 O8 2.114 1_554 S
Zn2 O11 2.120 1_545 S
Zn2 O13 2.120 1_455 S
Zn2 O14 2.114 1_554 S
Zn2 O17 2.080 . S
C3 O8 1.166 1_554 S
C3 O9 1.182 . S
C4 O10 1.167 . S
C4 O11 1.299 . S
O5 Zn2 2.080 1_665 S
O5 C19 1.305 . S
O6 Zn0 1.920 1_565 S
O6 C19 1.234 1_556 S
C7 O12 1.167 . S
C7 O13 1.299 1_556 S
O8 Zn2 2.114 1_556 S
O8 C3 1.166 1_556 S
O9 Zn1 1.905 . S
O9 C3 1.182 . S
O10 Zn1 1.898 1_565 S
O10 C4 1.167 . S
O11 Zn2 2.120 1_565 S
O11 C4 1.299 . S
O12 Zn0 1.898 . S
O12 C7 1.167 . S
O13 Zn2 2.120 1_655 S
O13 C7 1.299 1_554 S
O14 Zn2 2.114 1_556 S
O14 C16 1.166 1_545 S
O15 Zn0 1.905 1_565 S
O15 C16 1.183 1_655 S
C16 O14 1.166 1_565 S
C16 O15 1.183 1_455 S
O17 Zn2 2.080 . S
O17 C20 1.305 1_545 S
O18 Zn1 1.920 1_565 S
O18 C20 1.234 . S
C19 O5 1.305 . S
C19 O6 1.234 1_554 S
C20 O17 1.305 1_565 S
C20 O18 1.234 . S
Zn21 O27 1.920 . S
Zn21 O33 1.898 . S
Zn21 O36 1.905 . S
Zn22 O30 1.905 . S
Zn22 O31 1.898 . S
Zn22 O39 1.920 . S
Zn23 O26 2.080 . S
Zn23 O29 2.114 . S
Zn23 O32 2.120 . S
Zn23 O34 2.120 . S
Zn23 O35 2.114 . S
Zn23 O38 2.080 . S
C24 O29 1.166 . S
C24 O30 1.182 . S
C25 O31 1.167 . S
C25 O32 1.299 . S
O26 Zn23 2.080 . S
O26 C40 1.305 . S
O27 Zn21 1.920 . S
O27 C40 1.234 . S
C28 O33 1.167 . S
C28 O34 1.299 . S
O29 Zn23 2.114 . S
O29 C24 1.166 . S
O30 Zn22 1.905 . S
O30 C24 1.182 . S
O31 Zn22 1.898 . S
O31 C25 1.167 . S
O32 Zn23 2.120 . S
O32 C25 1.299 . S
O33 Zn21 1.898 . S
O33 C28 1.167 . S
O34 Zn23 2.120 . S
O34 C28 1.299 . S
O35 Zn23 2.114 . S
O35 C37 1.166 . S
O36 Zn21 1.905 . S
O36 C37 1.182 . S
C37 O35 1.166 . S
C37 O36 1.182 . S
O38 Zn23 2.080 . S
O38 C41 1.305 . S
O39 Zn22 1.920 . S
O39 C41 1.234 . S
C40 O26 1.305 . S
C40 O27 1.234 . S
C41 O38 1.305 . S
C41 O39 1.234 . S
H42 C49 0.929 . S
H43 C52 0.930 . S
H44 C54 0.929 . S
H45 C46 0.969 . S
C46 H45 0.969 . S
C46 O47 1.550 1_655 S
C46 H48 0.973 . S
O47 C46 1.550 1_455 S
O47 C53 1.412 . S
H48 C46 0.973 . S
C49 H42 0.929 . S
C49 C50 1.400 . S
C49 C51 1.364 1_565 S
C50 C49 1.400 . S
C50 C54 1.377 . S
C51 C49 1.364 1_545 S
C51 C52 1.374 . S
C52 H43 0.930 . S
C52 C51 1.374 . S
C52 C53 1.383 . S
C53 O47 1.412 . S
C53 C52 1.383 . S
C53 C54 1.394 1_545 S
C54 H44 0.929 . S
C54 C50 1.377 . S
C54 C53 1.394 1_565 S
H55 C62 0.929 . S
H56 C65 0.930 1_565 S
H57 C67 0.929 . S
H58 C59 0.969 . S
C59 H58 0.969 . S
C59 O60 1.550 . S
C59 H61 0.973 . S
O60 C59 1.550 . S
O60 C66 1.412 1_565 S
H61 C59 0.973 . S
C62 H55 0.929 . S
C62 C63 1.400 . S
C62 C64 1.364 . S
C63 C62 1.400 . S
C63 C67 1.377 . S
C64 C62 1.364 . S
C64 C65 1.374 1_455 S
C65 H56 0.930 1_545 S
C65 C64 1.374 1_655 S
C65 C66 1.383 . S
C66 O60 1.412 1_545 S
C66 C65 1.383 . S
C66 C67 1.394 1_655 S
C67 H57 0.929 . S
C67 C63 1.377 . S
C67 C66 1.394 1_455 S
H68 C75 0.929 . S
H69 C78 0.930 . S
H70 C80 0.929 . S
H71 C72 0.969 . S
C72 H71 0.969 . S
C72 O73 1.550 . S
C72 H74 0.973 . S
O73 C72 1.550 . S
O73 C79 1.412 . S
H74 C72 0.973 . S
C75 H68 0.929 . S
C75 C76 1.400 . S
C75 C77 1.364 . S
C76 C75 1.400 . S
C76 C80 1.377 . S
C77 C75 1.364 . S
C77 C78 1.374 . S
C78 H69 0.930 . S
C78 C77 1.374 . S
C78 C79 1.383 . S
C79 O73 1.412 . S
C79 C78 1.383 . S
C79 C80 1.394 . S
C80 H70 0.929 . S
C80 C76 1.377 . S
C80 C79 1.394 . S
H81 C88 0.929 . S
H82 C91 0.930 . S
H83 C93 0.929 . S
H84 C85 0.969 . S
C85 H84 0.969 . S
C85 O86 1.550 . S
C85 H87 0.973 . S
O86 C85 1.550 . S
O86 C92 1.412 . S
H87 C85 0.973 . S
C88 H81 0.929 . S
C88 C89 1.400 . S
C88 C90 1.364 . S
C89 C88 1.400 . S
C89 C93 1.377 . S
C90 C88 1.364 . S
C90 C91 1.374 . S
C91 H82 0.930 . S
C91 C90 1.374 . S
C91 C92 1.383 . S
C92 O86 1.412 . S
C92 C91 1.383 . S
C92 C93 1.394 . S
C93 H83 0.929 . S
C93 C89 1.377 . S
C93 C92 1.394 . S
C94 C95 1.387 1_556 S
C94 H98 0.950 . S
C94 C103 1.390 . S
C95 C94 1.387 1_554 S
C95 C97 1.387 . S
H96 C103 0.950 . S
C97 C95 1.387 . S
C97 C99 1.390 . S
C97 H101 0.950 . S
H98 C94 0.950 . S
C99 C97 1.390 . S
C99 C100 1.387 . S
C99 H102 0.950 . S
C100 C99 1.387 . S
C100 C103 1.387 1_554 S
H101 C97 0.950 . S
H102 C99 0.950 . S
C103 C94 1.390 . S
C103 H96 0.950 . S
C103 C100 1.387 1_556 S
C104 C105 1.387 1_554 S
C104 H108 0.950 . S
C104 C113 1.390 . S
C105 C104 1.387 1_556 S
C105 C107 1.387 . S
H106 C113 0.950 . S
C107 C105 1.387 . S
C107 C109 1.390 . S
C107 H111 0.950 . S
H108 C104 0.950 . S
C109 C107 1.390 . S
C109 C110 1.387 . S
C109 H112 0.950 . S
C110 C109 1.387 . S
C110 C113 1.387 1_556 S
H111 C107 0.950 . S
H112 C109 0.950 . S
C113 C104 1.390 . S
C113 H106 0.950 . S
C113 C110 1.387 1_554 S
C114 C115 1.387 1_556 S
C114 H118 0.950 . S
C114 C123 1.390 1_556 S
C115 C114 1.387 1_554 S
C115 C117 1.387 . S
H116 C123 0.950 1_556 S
C117 C115 1.387 . S
C117 C119 1.390 . S
C117 H121 0.950 . S
H118 C114 0.950 . S
C119 C117 1.390 . S
C119 C120 1.387 . S
C119 H122 0.950 . S
C120 C119 1.387 . S
C120 C123 1.387 . S
H121 C117 0.950 . S
H122 C119 0.950 . S
C123 C114 1.390 1_554 S
C123 H116 0.950 1_554 S
C123 C120 1.387 . S
C124 C125 1.387 1_554 S
C124 H128 0.950 . S
C124 C133 1.390 1_554 S
C125 C124 1.387 1_556 S
C125 C127 1.387 . S
H126 C133 0.938 1_554 S
C127 C125 1.387 . S
C127 C129 1.390 . S
C127 H131 0.950 . S
H128 C124 0.950 . S
C129 C127 1.390 . S
C129 C130 1.387 . S
C129 H132 0.950 . S
C130 C129 1.387 . S
C130 C133 1.399 . S
H131 C127 0.950 . S
H132 C129 0.950 . S
C133 C124 1.390 1_556 S
C133 H126 0.938 1_556 S
C133 C130 1.399 . S
C134 C135 1.387 . S
C134 H138 0.950 . S
C134 C143 1.390 . S
C135 C134 1.387 . S
C135 C137 1.387 . S
H136 C143 0.950 . S
C137 C135 1.387 . S
C137 C139 1.390 . S
C137 H141 0.950 . S
H138 C134 0.950 . S
C139 C137 1.390 . S
C139 C140 1.387 . S
C139 H142 0.950 . S
C140 C139 1.387 . S
C140 C143 1.387 . S
H141 C137 0.950 . S
H142 C139 0.950 . S
C143 C134 1.390 . S
C143 H136 0.950 . S
C143 C140 1.387 . S
C144 C145 1.387 . S
C144 H148 0.950 . S
C144 C153 1.390 . S
C145 C144 1.387 . S
C145 C147 1.387 . S
H146 C153 0.950 . S
C147 C145 1.387 . S
C147 C149 1.390 . S
C147 H151 0.950 . S
H148 C144 0.950 . S
C149 C147 1.390 . S
C149 C150 1.387 . S
C149 H152 0.950 . S
C150 C149 1.387 . S
C150 C153 1.387 . S
H151 C147 0.950 . S
H152 C149 0.950 . S
C153 C144 1.390 . S
C153 H146 0.950 . S
C153 C150 1.387 . S
C154 C155 1.387 . S
C154 H158 0.950 . S
C154 C163 1.390 . S
C155 C154 1.387 . S
C155 C157 1.387 . S
H156 C163 0.950 . S
C157 C155 1.387 . S
C157 C159 1.390 . S
C157 H161 0.950 . S
H158 C154 0.950 . S
C159 C157 1.390 . S
C159 C160 1.387 . S
C159 H162 0.950 . S
C160 C159 1.387 . S
C160 C163 1.387 . S
H161 C157 0.950 . S
H162 C159 0.950 . S
C163 C154 1.390 . S
C163 H156 0.950 . S
C163 C160 1.387 . S
C164 C165 1.387 . S
C164 H168 0.950 . S
C164 C173 1.390 . S
C165 C164 1.387 . S
C165 C167 1.387 . S
H166 C173 0.950 . S
C167 C165 1.387 . S
C167 C169 1.390 . S
C167 H171 0.950 . S
H168 C164 0.950 . S
C169 C167 1.390 . S
C169 C170 1.387 . S
C169 H172 0.950 . S
C170 C169 1.387 . S
C170 C173 1.387 . S
H171 C167 0.950 . S
H172 C169 0.950 . S
C173 C164 1.390 . S
C173 H166 0.950 . S
C173 C170 1.387 . S
C174 C175 1.387 . S
C174 H178 0.950 . S
C174 C183 1.390 . S
C175 C174 1.387 . S
C175 C177 1.394 1_565 S
H176 C183 0.950 . S
C177 C175 1.394 1_545 S
C177 C179 1.390 . S
C177 H181 0.943 1_455 S
H178 C174 0.950 . S
C179 C177 1.390 . S
C179 C180 1.388 1_545 S
C179 H182 0.950 1_455 S
C180 C179 1.388 1_565 S
C180 C183 1.387 . S
H181 C177 0.943 1_655 S
H182 C179 0.950 1_655 S
C183 C174 1.390 . S
C183 H176 0.950 . S
C183 C180 1.387 . S
C184 C185 1.387 1_545 S
C184 H188 0.950 1_545 S
C184 C193 1.390 . S
C185 C184 1.387 1_565 S
C185 C187 1.387 1_465 S
H186 C193 0.950 . S
C187 C185 1.387 1_645 S
C187 C189 1.390 . S
C187 H191 0.950 . S
H188 C184 0.950 1_565 S
C189 C187 1.390 . S
C189 C190 1.387 1_655 S
C189 H192 0.950 . S
C190 C189 1.387 1_455 S
C190 C193 1.387 . S
H191 C187 0.950 . S
H192 C189 0.950 . S
C193 C184 1.390 . S
C193 H186 0.950 . S
C193 C190 1.387 . S
C194 C195 1.387 . S
C194 H198 0.950 . S
C194 C203 1.390 . S
C195 C194 1.387 . S
C195 C197 1.387 . S
H196 C203 0.950 . S
C197 C195 1.387 . S
C197 C199 1.390 . S
C197 H201 0.950 . S
H198 C194 0.950 . S
C199 C197 1.390 . S
C199 C200 1.387 . S
C199 H202 0.950 . S
C200 C199 1.387 . S
C200 C203 1.387 . S
H201 C197 0.950 . S
H202 C199 0.950 . S
C203 C194 1.390 . S
C203 H196 0.950 . S
C203 C200 1.387 . S
C204 C205 1.387 . S
C204 H208 0.950 . S
C204 C213 1.390 . S
C205 C204 1.387 . S
C205 C207 1.387 . S
H206 C213 0.950 . S
C207 C205 1.387 . S
C207 C209 1.390 . S
C207 H211 0.950 . S
H208 C204 0.950 . S
C209 C207 1.390 . S
C209 C210 1.387 . S
C209 H212 0.950 . S
C210 C209 1.387 . S
C210 C213 1.387 . S
H211 C207 0.950 . S
H212 C209 0.950 . S
C213 C204 1.390 . S
C213 H206 0.950 . S
C213 C210 1.387 . S
C100 C85 1.252 . S
C95 C3 1.212 . S
C105 C4 1.450 1_556 S
C110 C72 1.438 . S
C115 C19 1.495 . S
C120 C89 1.622 . S
C125 C7 1.225 . S
C130 C76 1.388 . S
C135 C37 1.216 . S
C140 C59 1.252 . S
C145 C28 1.451 . S
C150 C46 1.440 . S
C160 C63 1.621 . S
C155 C41 1.496 . S
C170 C50 1.388 . S
C165 C25 1.226 . S
C175 C20 1.358 . S
C180 C51 1.546 1_565 S
C185 C16 1.404 . S
C190 C64 1.567 . S
C200 C77 1.545 . S
C195 C40 1.352 . S
C205 C24 1.407 . S
C210 C90 1.568 . S
