# Generated by pormake.
# Topology zzz, (3,6)-cn, num edge types: 1
# Building blocks:
#     Node 0, Type 0, BuildingBlock: ESEHIV_clean_linker_0, # of connection points: 3
#     Node 1, Type 0, BuildingBlock: ESEHIV_clean_linker_0, # of connection points: 3
#     Node 2, Type 0, BuildingBlock: ESEHIV_clean_linker_0, # of connection points: 3
#     Node 3, Type 0, BuildingBlock: ESEHIV_clean_linker_0, # of connection points: 3
#     Node 4, Type 0, BuildingBlock: ESEHIV_clean_linker_0, # of connection points: 3
#     Node 5, Type 0, BuildingBlock: ESEHIV_clean_linker_0, # of connection points: 3
#     Node 6, Type 0, BuildingBlock: ESEHIV_clean_linker_0, # of connection points: 3
#     Node 7, Type 0, BuildingBlock: ESEHIV_clean_linker_0, # of connection points: 3
#     Node 8, Type 1, BuildingBlock: BETDAH_clean_sbu_0, # of connection points: 6
#     Node 9, Type 1, BuildingBlock: BETDAH_clean_sbu_0, # of connection points: 6
#     Node 10, Type 1, BuildingBlock: BETDAH_clean_sbu_0, # of connection points: 6
#     Node 11, Type 1, BuildingBlock: BETDAH_clean_sbu_0, # of connection points: 6
#     Edge 12, Type (0, 1), None
#     Edge 13, Type (0, 1), None
#     Edge 14, Type (0, 1), None
#     Edge 15, Type (0, 1), None
#     Edge 16, Type (0, 1), None
#     Edge 17, Type (0, 1), None
#     Edge 18, Type (0, 1), None
#     Edge 19, Type (0, 1), None
#     Edge 20, Type (0, 1), None
#     Edge 21, Type (0, 1), None
#     Edge 22, Type (0, 1), None
#     Edge 23, Type (0, 1), None
#     Edge 24, Type (0, 1), None
#     Edge 25, Type (0, 1), None
#     Edge 26, Type (0, 1), None
#     Edge 27, Type (0, 1), None
#     Edge 28, Type (0, 1), None
#     Edge 29, Type (0, 1), None
#     Edge 30, Type (0, 1), None
#     Edge 31, Type (0, 1), None
#     Edge 32, Type (0, 1), None
#     Edge 33, Type (0, 1), None
#     Edge 34, Type (0, 1), None
#     Edge 35, Type (0, 1), None
# Relax obj value: 1.059
# Max RMSD: 0.328
# Mean RMSD: 0.246
data_MOF--net-zzz--node1-BETDAH_clean_sbu_0--node2-ESEHIV_clean_linker_0--edge1-none
_symmetry_space_group_name_H-M    P1
_symmetry_Int_Tables_number       1
_symmetry_cell_setting            triclinic
loop_
_symmetry_equiv_pos_as_xyz
'x, y, z'
_cell_length_a     19.496633
_cell_length_b     19.515967
_cell_length_c     6.5603699
_cell_angle_alpha  89.171729
_cell_angle_beta   90.364473
_cell_angle_gamma 90.151832
loop_
_atom_site_label
_atom_site_type_symbol
_atom_site_fract_x
_atom_site_fract_y
_atom_site_fract_z
_atom_type_partial_charge
H0 H 0.88507 0.50334 0.28553 0.0
H1 H 0.68081 0.47883 0.10993 0.0
H2 H 0.7305 0.62992 0.54957 0.0
C3 C 0.83297 0.52072 0.30438 0.0
C4 C 0.81847 0.55947 0.47202 0.0
C5 C 0.77957 0.47984 0.23102 0.0
C6 C 0.71832 0.50932 0.18283 0.0
C7 C 0.69655 0.56681 0.27869 0.0
C8 C 0.74676 0.59072 0.44572 0.0
H9 H 0.96707 0.83793 0.36786 0.0
H10 H 0.987 0.71376 0.93443 0.0
H11 H 0.95451 0.70854 0.59928 0.0
C12 C 0.9669 0.84175 0.23556 0.0
C13 C 0.9672 0.81837 0.45772 0.0
C14 C 1.00099 0.8003 0.10259 0.0
C15 C 0.97721 0.73538 0.08175 0.0
C16 C 0.9685 0.69352 0.25406 0.0
C17 C 0.96351 0.73449 0.45635 0.0
H18 H 0.69327 0.87778 0.28044 0.0
H19 H 0.80869 0.94854 0.95489 0.0
H20 H 0.82215 0.95433 0.61756 0.0
C21 C 0.69522 0.93289 0.29934 0.0
C22 C 0.71654 0.94982 0.4912 0.0
C23 C 0.72479 0.9695 0.13911 0.0
C24 C 0.79172 0.95191 0.10985 0.0
C25 C 0.83639 0.96481 0.2724 0.0
C26 C 0.79545 0.96042 0.47818 0.0
H27 H 0.50103 0.63679 0.30036 0.0
H28 H 0.61641 0.80978 0.51245 0.0
H29 H 0.46738 0.82423 1.02026 0.0
C30 C 0.51789 0.68941 0.29212 0.0
C31 C 0.4728 0.73436 0.19699 0.0
C32 C 0.55631 0.7136 0.45287 0.0
C33 C 0.57951 0.78663 0.41063 0.0
C34 C 0.55154 0.82838 0.22983 0.0
C35 C 0.49787 0.79621 0.12769 0.0
H36 H 0.14296 0.50308 0.44082 0.0
H37 H 0.33538 0.53769 0.68486 0.0
H38 H 0.31843 0.41291 0.15783 0.0
C39 C 0.19586 0.4871 0.43664 0.0
C40 C 0.22015 0.46258 0.25487 0.0
C41 C 0.23928 0.52902 0.54348 0.0
C42 C 0.30467 0.50743 0.58846 0.0
C43 C 0.33829 0.46287 0.46288 0.0
C44 C 0.29502 0.44187 0.27791 0.0
H45 H 0.94268 0.18053 0.27783 0.0
H46 H 0.99437 0.32251 0.73262 0.0
H47 H 0.12485 0.30558 0.21366 0.0
C48 C 0.97781 0.21972 0.33014 0.0
C49 C 0.03942 0.22783 0.23043 0.0
C50 C 0.96089 0.25768 0.50134 0.0
C51 C 1.00639 0.30261 0.58756 0.0
C52 C 0.05656 0.33394 0.475 0.0
C53 C 0.07941 0.29068 0.29709 0.0
H54 H 0.3933 1.00578 0.43565 0.0
H55 H 0.19885 0.96834 0.67052 0.0
H56 H 0.21967 0.11427 0.18126 0.0
C57 C 0.34043 0.02215 0.43389 0.0
C58 C 0.31744 0.05797 0.26269 0.0
C59 C 0.29404 0.97838 0.53302 0.0
C60 C 0.23009 1.001 0.57943 0.0
C61 C 0.19961 0.05407 0.47337 0.0
C62 C 0.24288 0.08003 0.29264 0.0
H63 H 0.55568 0.29703 0.98884 0.0
H64 H 0.37137 0.27717 0.34482 0.0
H65 H 0.5569 0.21067 0.58306 0.0
C66 C 0.52581 0.28018 0.11916 0.0
C67 C 0.56301 0.26071 0.29112 0.0
C68 C 0.46369 0.31041 0.16047 0.0
C69 C 0.42488 0.26682 0.3161 0.0
C70 C 0.46105 0.20915 0.43329 0.0
C71 C 0.5299 0.22383 0.44509 0.0
Ho72 Ho 0.05484 1.01216 0.93868 0.0
Ho73 Ho 0.98483 0.03213 0.81439 0.0
C74 C 0.97887 0.88419 0.64669 0.0
C75 C 0.15263 0.95413 0.14517 0.0
C76 C 0.18294 0.88646 0.12957 0.0
C77 C 0.16966 0.84977 0.30721 0.0
C78 C 0.10873 0.81557 0.30667 0.0
C79 C 0.07563 0.80131 0.12109 0.0
C80 C 0.11352 0.8069 0.94547 0.0
C81 C 0.1674 0.85285 0.94718 0.0
C82 C 0.12431 0.06553 0.57144 0.0
C83 C 0.04988 0.16485 0.07685 0.0
C84 C 0.87938 0.07746 0.62642 0.0
C85 C 0.83686 0.13358 0.66662 0.0
C86 C 0.8142 0.16719 0.49329 0.0
C87 C 0.83938 0.23145 0.46118 0.0
C88 C 0.89306 0.25215 0.59081 0.0
C89 C 0.89176 0.23093 0.79404 0.0
C90 C 0.85852 0.17091 0.83659 0.0
C91 C 0.91471 0.97571 0.17756 0.0
O92 O 0.0297 0.89834 0.78119 0.0
O93 O 0.95158 0.9434 0.60851 0.0
O94 O 0.16343 0.99639 0.99699 0.0
O95 O 0.08831 0.95381 0.1978 0.0
O96 O 0.11889 0.09339 0.75054 0.0
O97 O 0.07965 0.01686 0.60358 0.0
O98 O 1.00536 0.14801 0.92959 0.0
O99 O 0.07882 0.10791 0.13593 0.0
O100 O 0.87886 0.03468 0.77574 0.0
O101 O 0.94149 0.09271 0.56783 0.0
O102 O 0.93021 0.94711 1.0051 0.0
O103 O 0.95487 0.02849 0.14506 0.0
H104 H 0.18003 0.87094 0.45375 0.0
H105 H 0.0863 0.80901 0.45285 0.0
H106 H 0.09113 0.79308 0.80182 0.0
H107 H 0.17693 0.87559 0.80233 0.0
H108 H 0.80353 0.1389 0.35731 0.0
H109 H 0.83796 0.24624 0.3042 0.0
H110 H 0.92818 0.24895 0.90497 0.0
H111 H 0.8692 0.14565 0.98165 0.0
Ho112 Ho 0.53051 0.05094 0.88298 0.0
Ho113 Ho 0.49201 0.99002 0.80001 0.0
C114 C 0.64766 0.96933 0.63223 0.0
C115 C 0.59711 0.15967 0.97428 0.0
C116 C 0.66257 0.16991 0.07845 0.0
C117 C 0.66426 0.14291 0.27457 0.0
C118 C 0.69325 0.08125 0.30622 0.0
C119 C 0.71803 0.04502 0.13984 0.0
C120 C 0.7365 0.08379 0.96882 0.0
C121 C 0.71796 0.15298 0.95804 0.0
C122 C 0.44164 0.14674 0.58768 0.0
C123 C 0.37726 0.05975 0.08444 0.0
C124 C 0.45502 0.87323 0.66737 0.0
C125 C 0.41186 0.83867 0.52561 0.0
C126 C 0.39841 0.87395 0.34182 0.0
C127 C 0.33186 0.89209 0.30078 0.0
C128 C 0.29776 0.90605 0.48187 0.0
C129 C 0.30146 0.85584 0.63727 0.0
C130 C 0.35513 0.80973 0.62382 0.0
C131 C 0.57347 0.89859 0.1157 0.0
O132 O 0.64114 1.00057 0.80739 0.0
O133 O 0.58333 0.96824 0.56421 0.0
O134 O 0.54608 0.13554 0.08267 0.0
O135 O 0.60269 0.12712 0.8041 0.0
O136 O 0.47661 0.08817 0.59261 0.0
O137 O 0.47679 0.08809 0.59554 0.0
O138 O 0.37923 0.02191 0.9169 0.0
O139 O 0.44266 0.07436 0.12586 0.0
O140 O 0.50942 0.90433 0.60021 0.0
O141 O 0.42076 0.9105 0.79561 0.0
O142 O 0.53608 0.95517 0.10494 0.0
O143 O 0.53609 0.95512 0.1003 0.0
H144 H 0.62611 0.15118 0.38491 0.0
H145 H 0.69569 0.06724 0.46231 0.0
H146 H 0.75488 0.05783 0.83689 0.0
H147 H 0.72326 0.17995 0.81505 0.0
H148 H 0.43665 0.90303 0.26366 0.0
H149 H 0.32255 0.92257 0.16431 0.0
H150 H 0.28386 0.86544 0.78826 0.0
H151 H 0.36415 0.77295 0.74392 0.0
Ho152 Ho 0.47842 0.54167 0.90696 0.0
Ho153 Ho 0.55238 0.50298 0.83142 0.0
C154 C 0.55997 0.65568 0.63454 0.0
C155 C 0.35939 0.58773 1.00534 0.0
C156 C 0.32615 0.62328 0.16613 0.0
C157 C 0.36403 0.62096 0.34664 0.0
C158 C 0.38779 0.68128 0.42175 0.0
C159 C 0.40097 0.72882 0.26483 0.0
C160 C 0.34584 0.74213 0.13411 0.0
C161 C 0.30057 0.68802 0.10824 0.0
C162 C 0.41544 0.44799 0.54594 0.0
C163 C 0.46086 0.38511 1.04697 0.0
C164 C 0.6636 0.4384 0.76969 0.0
C165 C 0.67416 0.39807 0.60127 0.0
C166 C 0.63372 0.4179 0.43791 0.0
C167 C 0.61367 0.37168 0.30184 0.0
C168 C 0.6224 0.30214 0.34373 0.0
C169 C 0.66846 0.28184 0.49859 0.0
C170 C 0.69468 0.33009 0.62777 0.0
C171 C 0.62366 0.59076 0.18105 0.0
O172 O 0.51794 0.65254 0.79391 0.0
O173 O 0.57737 0.59159 0.59485 0.0
O174 O 0.37938 0.52549 1.04248 0.0
O175 O 0.40604 0.62347 0.9094 0.0
O176 O 0.46145 0.49603 0.59122 0.0
O177 O 0.4614 0.49606 0.5961 0.0
O178 O 0.49623 0.39628 0.87803 0.0
O179 O 0.45602 0.44613 0.13073 0.0
O180 O 0.65846 0.50428 0.73378 0.0
O181 O 0.61167 0.41323 0.86704 0.0
O182 O 0.57127 0.54878 0.14273 0.0
O183 O 0.5712 0.5486 0.13868 0.0
H184 H 0.39365 0.57731 0.3882 0.0
H185 H 0.42062 0.67829 0.55403 0.0
H186 H 0.34038 0.78945 1.05043 0.0
H187 H 0.25495 0.69353 1.01951 0.0
H188 H 0.61003 0.46775 0.42701 0.0
H189 H 0.57804 0.39184 0.19487 0.0
H190 H 0.67542 0.2299 0.54661 0.0
H191 H 0.72129 0.31227 0.76179 0.0
Ho192 Ho 1.00894 0.48002 0.91149 0.0
Ho193 Ho 0.03707 0.5524 0.81393 0.0
C194 C 0.88287 0.55678 0.63669 0.0
C195 C 0.9441 0.37432 1.03699 0.0
C196 C 0.88752 0.35643 0.15775 0.0
C197 C 0.88607 0.37716 0.36169 0.0
C198 C 0.82352 0.39 0.44658 0.0
C199 C 0.77502 0.40813 0.29966 0.0
C200 C 0.76599 0.36281 0.14226 0.0
C201 C 0.82569 0.34198 1.05442 0.0
C202 C 0.07421 0.40667 0.58 0.0
C203 C 0.15911 0.46752 0.08317 0.0
C204 C 0.08838 0.66751 0.67907 0.0
C205 C 0.14139 0.70077 0.5545 0.0
C206 C 0.14438 0.67564 0.35718 0.0
C207 C 0.18739 0.62198 0.33315 0.0
C208 C 0.22789 0.60134 0.50229 0.0
C209 C 0.24709 0.65182 0.6382 0.0
C210 C 0.20508 0.70851 0.6485 0.0
C211 C 0.9678 0.61414 0.1726 0.0
O212 O 0.89312 0.50974 0.78513 0.0
O213 O 0.94473 0.57924 0.59163 0.0
O214 O 0.99731 0.39905 0.12952 0.0
O215 O 0.92701 0.41017 0.87634 0.0
O216 O 0.0898 0.40664 0.77134 0.0
O217 O 0.03441 0.46045 0.5822 0.0
O218 O 0.15134 0.51397 0.93074 0.0
O219 O 0.09688 0.44788 0.13162 0.0
O220 O 0.1064 0.63918 0.8515 0.0
O221 O 0.04594 0.62815 0.58313 0.0
O222 O 0.94524 0.60255 0.98942 0.0
O223 O 0.01828 0.57188 0.14651 0.0
H224 H 0.93048 0.39557 0.44159 0.0
H225 H 0.82284 0.41393 0.59421 0.0
H226 H 0.71997 0.36364 1.05309 0.0
H227 H 0.82392 0.33043 0.89511 0.0
H228 H 0.1017 0.67829 0.25343 0.0
H229 H 0.18186 0.59266 0.19761 0.0
H230 H 0.29062 0.64621 0.73426 0.0
H231 H 0.21443 0.74687 0.75979 0.0
loop_
_geom_bond_atom_site_label_1
_geom_bond_atom_site_label_2
_geom_bond_distance
_geom_bond_site_symmetry_2
_ccdc_geom_bond_type
H0 C3 0.931 . S
H1 C6 0.928 . S
H2 C8 0.930 . S
C3 H0 0.931 . S
C3 C4 1.413 . S
C3 C5 1.360 . S
C4 C3 1.413 . S
C4 C8 1.429 . S
C5 C3 1.360 . S
C5 C6 1.372 . S
C6 H1 0.928 . S
C6 C5 1.372 . S
C6 C7 1.404 . S
C7 C6 1.404 . S
C7 C8 1.391 . S
C8 H2 0.930 . S
C8 C4 1.429 . S
C8 C7 1.391 . S
H9 C12 0.931 . S
H10 C15 0.928 . S
H11 C17 0.930 . S
C12 H9 0.931 . S
C12 C13 1.413 . S
C12 C14 1.360 . S
C13 C12 1.413 . S
C13 C17 1.429 1_655 S
C14 C12 1.360 . S
C14 C15 1.372 . S
C15 H10 0.928 . S
C15 C14 1.372 . S
C15 C16 1.404 . S
C16 C15 1.404 . S
C16 C17 1.390 1_655 S
C17 H11 0.930 . S
C17 C13 1.429 1_455 S
C17 C16 1.390 1_455 S
H18 C21 0.931 . S
H19 C24 0.928 . S
H20 C26 0.930 . S
C21 H18 0.931 . S
C21 C22 1.414 . S
C21 C23 1.360 . S
C22 C21 1.414 . S
C22 C26 1.429 1_565 S
C23 C21 1.360 . S
C23 C24 1.372 . S
C24 H19 0.928 . S
C24 C23 1.372 . S
C24 C25 1.405 . S
C25 C24 1.405 . S
C25 C26 1.390 1_565 S
C26 H20 0.930 . S
C26 C22 1.429 1_545 S
C26 C25 1.390 1_545 S
H27 C30 0.931 . S
H28 C33 0.928 . S
H29 C35 0.930 . S
C30 H27 0.931 . S
C30 C31 1.413 . S
C30 C32 1.360 . S
C31 C30 1.413 . S
C31 C35 1.429 . S
C32 C30 1.360 . S
C32 C33 1.372 . S
C33 H28 0.928 . S
C33 C32 1.372 . S
C33 C34 1.404 . S
C34 C33 1.404 . S
C34 C35 1.391 . S
C35 H29 0.930 . S
C35 C31 1.429 . S
C35 C34 1.391 . S
H36 C39 0.931 . S
H37 C42 0.928 . S
H38 C44 0.930 . S
C39 H36 0.931 . S
C39 C40 1.413 . S
C39 C41 1.360 1_556 S
C40 C39 1.413 . S
C40 C44 1.429 . S
C41 C39 1.360 1_554 S
C41 C42 1.372 . S
C42 H37 0.928 . S
C42 C41 1.372 . S
C42 C43 1.404 . S
C43 C42 1.404 . S
C43 C44 1.391 1_554 S
C44 H38 0.930 . S
C44 C40 1.429 . S
C44 C43 1.391 1_556 S
H45 C48 0.931 . S
H46 C51 0.928 . S
H47 C53 0.930 . S
C48 H45 0.931 . S
C48 C49 1.413 . S
C48 C50 1.360 1_556 S
C49 C48 1.413 . S
C49 C53 1.429 1_655 S
C50 C48 1.360 1_554 S
C50 C51 1.372 . S
C51 H46 0.928 . S
C51 C50 1.372 . S
C51 C52 1.404 . S
C52 C51 1.404 . S
C52 C53 1.391 1_654 S
C53 H47 0.930 . S
C53 C49 1.429 1_455 S
C53 C52 1.391 1_456 S
H54 C57 0.931 . S
H55 C60 0.928 . S
H56 C62 0.930 . S
C57 H54 0.931 . S
C57 C58 1.413 . S
C57 C59 1.360 1_556 S
C58 C57 1.413 . S
C58 C62 1.429 1_565 S
C59 C57 1.360 1_554 S
C59 C60 1.372 . S
C60 H55 0.928 . S
C60 C59 1.372 . S
C60 C61 1.404 . S
C61 C60 1.404 . S
C61 C62 1.391 1_564 S
C62 H56 0.930 . S
C62 C58 1.429 1_545 S
C62 C61 1.391 1_546 S
H63 C66 0.931 . S
H64 C69 0.928 . S
H65 C71 0.930 . S
C66 H63 0.931 . S
C66 C67 1.413 1_556 S
C66 C68 1.360 . S
C67 C66 1.413 1_554 S
C67 C71 1.429 . S
C68 C66 1.360 . S
C68 C69 1.372 . S
C69 H64 0.928 . S
C69 C68 1.372 . S
C69 C70 1.404 1_556 S
C70 C69 1.404 1_554 S
C70 C71 1.391 . S
C71 H65 0.930 . S
C71 C67 1.429 . S
C71 C70 1.391 . S
Ho72 C75 2.811 1_556 S
Ho72 O92 2.322 . S
Ho72 O94 2.378 1_556 S
Ho72 O95 2.524 1_556 S
Ho72 O96 2.381 . S
Ho72 O97 2.669 1_565 S
Ho72 O99 2.346 1_565 S
Ho72 O103 2.305 1_455 S
Ho73 C84 2.811 . S
Ho73 O93 2.346 1_545 S
Ho73 O97 2.305 1_655 S
Ho73 O98 2.322 . S
Ho73 O100 2.378 . S
Ho73 O101 2.524 . S
Ho73 O102 2.381 . S
Ho73 O103 2.669 1_545 S
C74 O92 1.259 1_655 S
C74 O93 1.268 . S
C75 Ho72 2.811 1_554 S
C75 C76 1.488 . S
C75 O94 1.215 . S
C75 O95 1.289 . S
C76 C75 1.488 . S
C76 C77 1.348 . S
C76 C81 1.413 . S
C77 C76 1.348 . S
C77 C78 1.442 . S
C77 H104 0.930 . S
C78 C77 1.442 . S
C78 C79 1.381 . S
C78 H105 0.931 . S
C79 C78 1.381 . S
C79 C80 1.321 . S
C80 C79 1.321 . S
C80 C81 1.403 . S
C80 H106 0.934 . S
C81 C76 1.413 . S
C81 C80 1.403 . S
C81 H107 0.930 . S
C82 O96 1.275 . S
C82 O97 1.256 1_565 S
C83 O98 1.259 1_455 S
C83 O99 1.268 . S
C84 Ho73 2.811 . S
C84 C85 1.488 . S
C84 O100 1.215 . S
C84 O101 1.289 . S
C85 C84 1.488 . S
C85 C86 1.348 . S
C85 C90 1.413 . S
C86 C85 1.348 . S
C86 C87 1.442 . S
C86 H108 0.930 . S
C87 C86 1.442 . S
C87 C88 1.381 . S
C87 H109 0.931 . S
C88 C87 1.381 . S
C88 C89 1.321 . S
C89 C88 1.321 . S
C89 C90 1.403 . S
C89 H110 0.934 . S
C90 C85 1.413 . S
C90 C89 1.403 . S
C90 H111 0.930 . S
C91 O102 1.275 1_554 S
C91 O103 1.256 1_544 S
O92 Ho72 2.322 . S
O92 C74 1.259 1_455 S
O93 Ho73 2.346 1_565 S
O93 C74 1.268 . S
O94 Ho72 2.378 1_554 S
O94 C75 1.215 . S
O95 Ho72 2.524 1_554 S
O95 C75 1.289 . S
O96 Ho72 2.381 . S
O96 C82 1.275 . S
O97 Ho72 2.669 1_545 S
O97 Ho73 2.305 1_455 S
O97 C82 1.256 1_545 S
O98 Ho73 2.322 . S
O98 C83 1.259 1_655 S
O99 Ho72 2.346 1_545 S
O99 C83 1.268 . S
O100 Ho73 2.378 . S
O100 C84 1.215 . S
O101 Ho73 2.524 . S
O101 C84 1.289 . S
O102 Ho73 2.381 . S
O102 C91 1.275 1_556 S
O103 Ho72 2.305 1_655 S
O103 Ho73 2.669 1_565 S
O103 C91 1.256 1_566 S
H104 C77 0.930 . S
H105 C78 0.931 . S
H106 C80 0.934 . S
H107 C81 0.930 . S
H108 C86 0.930 . S
H109 C87 0.931 . S
H110 C89 0.934 . S
H111 C90 0.930 . S
Ho112 C115 2.811 1_556 S
Ho112 O132 2.322 . S
Ho112 O134 2.378 1_556 S
Ho112 O135 2.524 1_556 S
Ho112 O136 2.381 . S
Ho112 O137 2.669 . S
Ho112 O139 2.346 . S
Ho112 O143 2.305 1_545 S
Ho113 C124 2.811 . S
Ho113 O133 2.346 . S
Ho113 O137 2.305 1_565 S
Ho113 O138 2.322 . S
Ho113 O140 2.378 . S
Ho113 O141 2.524 . S
Ho113 O142 2.381 . S
Ho113 O143 2.669 . S
C114 O132 1.259 1_565 S
C114 O133 1.268 . S
C115 Ho112 2.811 1_554 S
C115 C116 1.488 . S
C115 O134 1.215 . S
C115 O135 1.289 . S
C116 C115 1.488 . S
C116 C117 1.348 . S
C116 C121 1.413 . S
C117 C116 1.348 . S
C117 C118 1.442 . S
C117 H144 0.930 . S
C118 C117 1.442 . S
C118 C119 1.381 . S
C118 H145 0.931 . S
C119 C118 1.381 . S
C119 C120 1.321 . S
C120 C119 1.321 . S
C120 C121 1.403 . S
C120 H146 0.934 . S
C121 C116 1.413 . S
C121 C120 1.403 . S
C121 H147 0.930 . S
C122 O136 1.275 . S
C122 O137 1.256 . S
C123 O138 1.259 1_545 S
C123 O139 1.268 . S
C124 Ho113 2.811 . S
C124 C125 1.488 . S
C124 O140 1.215 . S
C124 O141 1.289 . S
C125 C124 1.488 . S
C125 C126 1.348 . S
C125 C130 1.413 . S
C126 C125 1.348 . S
C126 C127 1.442 . S
C126 H148 0.930 . S
C127 C126 1.442 . S
C127 C128 1.381 . S
C127 H149 0.931 . S
C128 C127 1.381 . S
C128 C129 1.321 . S
C129 C128 1.321 . S
C129 C130 1.403 . S
C129 H150 0.934 . S
C130 C125 1.413 . S
C130 C129 1.403 . S
C130 H151 0.930 . S
C131 O142 1.275 1_554 S
C131 O143 1.256 1_554 S
O132 Ho112 2.322 . S
O132 C114 1.259 1_545 S
O133 Ho113 2.346 . S
O133 C114 1.268 . S
O134 Ho112 2.378 1_554 S
O134 C115 1.215 . S
O135 Ho112 2.524 1_554 S
O135 C115 1.289 . S
O136 Ho112 2.381 . S
O136 C122 1.275 . S
O137 Ho112 2.669 . S
O137 Ho113 2.305 1_545 S
O137 C122 1.256 . S
O138 Ho113 2.322 . S
O138 C123 1.259 1_565 S
O139 Ho112 2.346 . S
O139 C123 1.268 . S
O140 Ho113 2.378 . S
O140 C124 1.215 . S
O141 Ho113 2.524 . S
O141 C124 1.289 . S
O142 Ho113 2.381 . S
O142 C131 1.275 1_556 S
O143 Ho112 2.305 1_565 S
O143 Ho113 2.669 . S
O143 C131 1.256 1_556 S
H144 C117 0.930 . S
H145 C118 0.931 . S
H146 C120 0.934 . S
H147 C121 0.930 . S
H148 C126 0.930 . S
H149 C127 0.931 . S
H150 C129 0.934 . S
H151 C130 0.930 . S
Ho152 C155 2.811 1_556 S
Ho152 O172 2.322 . S
Ho152 O174 2.378 1_556 S
Ho152 O175 2.524 1_556 S
Ho152 O176 2.381 . S
Ho152 O177 2.669 . S
Ho152 O179 2.346 . S
Ho152 O183 2.305 . S
Ho153 C164 2.811 . S
Ho153 O173 2.346 . S
Ho153 O177 2.305 . S
Ho153 O178 2.322 . S
Ho153 O180 2.378 . S
Ho153 O181 2.524 . S
Ho153 O182 2.381 . S
Ho153 O183 2.669 . S
C154 O172 1.259 . S
C154 O173 1.268 . S
C155 Ho152 2.811 1_554 S
C155 C156 1.488 . S
C155 O174 1.215 . S
C155 O175 1.289 . S
C156 C155 1.488 . S
C156 C157 1.348 . S
C156 C161 1.413 . S
C157 C156 1.348 . S
C157 C158 1.442 . S
C157 H184 0.930 . S
C158 C157 1.442 . S
C158 C159 1.381 . S
C158 H185 0.931 . S
C159 C158 1.381 . S
C159 C160 1.321 . S
C160 C159 1.321 . S
C160 C161 1.403 . S
C160 H186 0.934 . S
C161 C156 1.413 . S
C161 C160 1.403 . S
C161 H187 0.930 . S
C162 O176 1.275 . S
C162 O177 1.256 . S
C163 O178 1.259 . S
C163 O179 1.268 . S
C164 Ho153 2.811 . S
C164 C165 1.488 . S
C164 O180 1.215 . S
C164 O181 1.289 . S
C165 C164 1.488 . S
C165 C166 1.348 . S
C165 C170 1.413 . S
C166 C165 1.348 . S
C166 C167 1.442 . S
C166 H188 0.930 . S
C167 C166 1.442 . S
C167 C168 1.381 . S
C167 H189 0.931 . S
C168 C167 1.381 . S
C168 C169 1.321 . S
C169 C168 1.321 . S
C169 C170 1.403 . S
C169 H190 0.934 . S
C170 C165 1.413 . S
C170 C169 1.403 . S
C170 H191 0.930 . S
C171 O182 1.275 1_554 S
C171 O183 1.256 1_554 S
O172 Ho152 2.322 . S
O172 C154 1.259 . S
O173 Ho153 2.346 . S
O173 C154 1.268 . S
O174 Ho152 2.378 1_554 S
O174 C155 1.215 . S
O175 Ho152 2.524 1_554 S
O175 C155 1.289 . S
O176 Ho152 2.381 . S
O176 C162 1.275 . S
O177 Ho152 2.669 . S
O177 Ho153 2.305 . S
O177 C162 1.256 . S
O178 Ho153 2.322 . S
O178 C163 1.259 . S
O179 Ho152 2.346 . S
O179 C163 1.268 . S
O180 Ho153 2.378 . S
O180 C164 1.215 . S
O181 Ho153 2.524 . S
O181 C164 1.289 . S
O182 Ho153 2.381 . S
O182 C171 1.275 1_556 S
O183 Ho152 2.305 . S
O183 Ho153 2.669 . S
O183 C171 1.256 1_556 S
H184 C157 0.930 . S
H185 C158 0.931 . S
H186 C160 0.934 . S
H187 C161 0.930 . S
H188 C166 0.930 . S
H189 C167 0.931 . S
H190 C169 0.934 . S
H191 C170 0.930 . S
Ho192 C195 2.811 1_556 S
Ho192 O212 2.322 . S
Ho192 O214 2.378 1_556 S
Ho192 O215 2.524 1_556 S
Ho192 O216 2.381 . S
Ho192 O217 2.669 1_655 S
Ho192 O219 2.346 1_655 S
Ho192 O223 2.305 . S
Ho193 C204 2.811 . S
Ho193 O213 2.346 1_455 S
Ho193 O217 2.305 . S
Ho193 O218 2.322 . S
Ho193 O220 2.378 . S
Ho193 O221 2.524 . S
Ho193 O222 2.381 . S
Ho193 O223 2.669 1_455 S
C194 O212 1.259 . S
C194 O213 1.268 . S
C195 Ho192 2.811 1_554 S
C195 C196 1.488 . S
C195 O214 1.215 . S
C195 O215 1.289 . S
C196 C195 1.488 . S
C196 C197 1.348 . S
C196 C201 1.413 . S
C197 C196 1.348 . S
C197 C198 1.442 . S
C197 H224 0.930 . S
C198 C197 1.442 . S
C198 C199 1.381 . S
C198 H225 0.931 . S
C199 C198 1.381 . S
C199 C200 1.321 . S
C200 C199 1.321 . S
C200 C201 1.403 . S
C200 H226 0.934 . S
C201 C196 1.413 . S
C201 C200 1.403 . S
C201 H227 0.930 . S
C202 O216 1.276 . S
C202 O217 1.256 1_655 S
C203 O218 1.259 . S
C203 O219 1.268 . S
C204 Ho193 2.811 . S
C204 C205 1.488 . S
C204 O220 1.215 . S
C204 O221 1.289 . S
C205 C204 1.488 . S
C205 C206 1.348 . S
C205 C210 1.413 . S
C206 C205 1.348 . S
C206 C207 1.442 . S
C206 H228 0.930 . S
C207 C206 1.442 . S
C207 C208 1.381 . S
C207 H229 0.931 . S
C208 C207 1.381 . S
C208 C209 1.321 . S
C209 C208 1.321 . S
C209 C210 1.403 . S
C209 H230 0.934 . S
C210 C205 1.413 . S
C210 C209 1.403 . S
C210 H231 0.930 . S
C211 O222 1.277 1_554 S
C211 O223 1.255 1_454 S
O212 Ho192 2.322 . S
O212 C194 1.259 . S
O213 Ho193 2.346 1_655 S
O213 C194 1.268 . S
O214 Ho192 2.378 1_554 S
O214 C195 1.215 . S
O215 Ho192 2.524 1_554 S
O215 C195 1.289 . S
O216 Ho192 2.381 . S
O216 C202 1.276 . S
O217 Ho192 2.669 1_455 S
O217 Ho193 2.305 . S
O217 C202 1.256 1_455 S
O218 Ho193 2.322 . S
O218 C203 1.259 . S
O219 Ho192 2.346 1_455 S
O219 C203 1.268 . S
O220 Ho193 2.378 . S
O220 C204 1.215 . S
O221 Ho193 2.524 . S
O221 C204 1.289 . S
O222 Ho193 2.381 . S
O222 C211 1.277 1_556 S
O223 Ho192 2.305 . S
O223 Ho193 2.669 1_655 S
O223 C211 1.255 1_656 S
H224 C197 0.930 . S
H225 C198 0.931 . S
H226 C200 0.934 . S
H227 C201 0.930 . S
H228 C206 0.930 . S
H229 C207 0.931 . S
H230 C209 0.934 . S
H231 C210 0.930 . S
C61 C82 3.611 1_554 S
C122 C70 3.582 1_556 S
C162 C43 3.641 1_556 S
C202 C52 3.588 1_556 S
C91 C25 3.610 1_544 S
C34 C131 3.586 1_556 S
C7 C171 3.637 1_556 S
C16 C211 3.587 1_656 S
C88 C50 3.141 . S
C128 C59 2.919 . S
C168 C67 2.834 . S
C41 C208 2.978 . S
C14 C79 3.167 1_655 S
C119 C23 2.946 1_545 S
C159 C31 2.814 . S
C5 C199 3.018 . S
C49 C83 4.186 1_655 S
C58 C123 4.110 1_565 S
C163 C68 4.112 . S
C203 C40 4.188 . S
C13 C74 4.188 . S
C114 C22 4.108 . S
C154 C32 4.124 . S
C4 C194 4.186 . S
