# Generated by pormake.
# Topology ftw, (4,12)-cn, num edge types: 1
# Building blocks:
#     Node 0, Type 0, BuildingBlock: GIZVER_clean_linker_0, # of connection points: 4
#     Node 1, Type 0, BuildingBlock: GIZVER_clean_linker_0, # of connection points: 4
#     Node 2, Type 0, BuildingBlock: GIZVER_clean_linker_0, # of connection points: 4
#     Node 3, Type 1, BuildingBlock: QEWDON_clean_sbu_0, # of connection points: 12
#     Edge 4, Type (0, 1), BuildingBlock: OJICUG_clean_linker_0, # of connection points: 2
#     Edge 5, Type (0, 1), BuildingBlock: OJICUG_clean_linker_0, # of connection points: 2
#     Edge 6, Type (0, 1), BuildingBlock: OJICUG_clean_linker_0, # of connection points: 2
#     Edge 7, Type (0, 1), BuildingBlock: OJICUG_clean_linker_0, # of connection points: 2
#     Edge 8, Type (0, 1), BuildingBlock: OJICUG_clean_linker_0, # of connection points: 2
#     Edge 9, Type (0, 1), BuildingBlock: OJICUG_clean_linker_0, # of connection points: 2
#     Edge 10, Type (0, 1), BuildingBlock: OJICUG_clean_linker_0, # of connection points: 2
#     Edge 11, Type (0, 1), BuildingBlock: OJICUG_clean_linker_0, # of connection points: 2
#     Edge 12, Type (0, 1), BuildingBlock: OJICUG_clean_linker_0, # of connection points: 2
#     Edge 13, Type (0, 1), BuildingBlock: OJICUG_clean_linker_0, # of connection points: 2
#     Edge 14, Type (0, 1), BuildingBlock: OJICUG_clean_linker_0, # of connection points: 2
#     Edge 15, Type (0, 1), BuildingBlock: OJICUG_clean_linker_0, # of connection points: 2
# Relax obj value: 0.120
# Max RMSD: 0.260
# Mean RMSD: 0.213
data_MOF--net-ftw--node1-QEWDON_clean_sbu_0--node2-GIZVER_clean_linker_0--edge1-OJICUG_clean_linker_0
_symmetry_space_group_name_H-M    P1
_symmetry_Int_Tables_number       1
_symmetry_cell_setting            triclinic
loop_
_symmetry_equiv_pos_as_xyz
'x, y, z'
_cell_length_a     20.032067
_cell_length_b     19.169664
_cell_length_c     18.10142
_cell_angle_alpha  90.047914
_cell_angle_beta   89.573617
_cell_angle_gamma 90.866574
loop_
_atom_site_label
_atom_site_type_symbol
_atom_site_fract_x
_atom_site_fract_y
_atom_site_fract_z
_atom_type_partial_charge
H0 H 0.93283 0.43515 0.36788 0.0
H1 H 0.91534 0.41396 0.60308 0.0
H2 H 1.00212 0.24933 0.47502 0.0
H3 H 0.84663 0.49896 0.44047 0.0
H4 H 0.84606 0.49531 0.53894 0.0
H5 H 0.92336 0.57657 0.37436 0.0
H6 H 0.02746 0.73374 0.49989 0.0
H7 H 0.93281 0.56029 0.6113 0.0
C8 C 0.94278 0.40582 0.41765 0.0
C9 C 0.97187 0.33946 0.41265 0.0
C10 C 0.92198 0.43265 0.48614 0.0
C11 C 0.93352 0.39437 0.55057 0.0
C12 C 0.96279 0.32836 0.54695 0.0
C13 C 0.98249 0.30164 0.478 0.0
C14 C 0.87958 0.49705 0.48965 0.0
C15 C 0.92215 0.56231 0.49265 0.0
C16 C 0.93952 0.59748 0.42704 0.0
C17 C 0.9783 0.65891 0.42927 0.0
C18 C 0.99934 0.68502 0.49781 0.0
C19 C 0.98399 0.64973 0.56374 0.0
C20 C 0.94502 0.58825 0.56084 0.0
H21 H 0.4569 0.05573 0.35741 0.0
H22 H 0.45157 0.07977 0.59295 0.0
H23 H 0.27913 -0.00124 0.47993 0.0
H24 H 0.53056 0.14043 0.42002 0.0
H25 H 0.52898 0.149 0.51798 0.0
H26 H 0.60754 0.06304 0.36123 0.0
H27 H 0.74827 0.95469 0.49544 0.0
H28 H 0.58078 0.05549 0.59746 0.0
C29 C 0.43091 0.0481 0.40957 0.0
C30 C 0.36444 0.02282 0.41033 0.0
C31 C 0.46244 0.06893 0.47524 0.0
C32 C 0.4283 0.06097 0.54269 0.0
C33 C 0.36226 0.03533 0.5449 0.0
C34 C 0.33103 0.01552 0.47862 0.0
C35 C 0.52738 0.11007 0.47235 0.0
C36 C 0.58726 0.06382 0.47864 0.0
C37 C 0.6241 0.04608 0.4151 0.0
C38 C 0.68222 0.00665 0.42093 0.0
C39 C 0.7033 0.98511 0.49092 0.0
C40 C 0.66728 0.00221 0.55504 0.0
C41 C 0.60865 0.04103 0.54838 0.0
H42 H 0.53226 0.34953 0.16654 0.0
H43 H 0.62205 0.55466 0.17863 0.0
H44 H 0.70507 0.40119 0.03327 0.0
H45 H 0.49936 0.43335 0.26535 0.0
H46 H 0.53598 0.51938 0.26822 0.0
H47 H 0.40707 0.40669 0.1832 0.0
H48 H 0.32177 0.57021 0.0542 0.0
H49 H 0.50142 0.61017 0.17691 0.0
C50 C 0.5702 0.38687 0.14865 0.0
C51 C 0.618 0.36736 0.09571 0.0
C52 C 0.57112 0.45473 0.17821 0.0
C53 C 0.62121 0.50229 0.15592 0.0
C54 C 0.6692 0.48327 0.10321 0.0
C55 C 0.66676 0.41628 0.07256 0.0
C56 C 0.517 0.47784 0.23051 0.0
C57 C 0.46008 0.5055 0.18589 0.0
C58 C 0.40795 0.46033 0.1642 0.0
C59 C 0.35798 0.4835 0.11665 0.0
C60 C 0.36103 0.55187 0.08994 0.0
C61 C 0.41234 0.59788 0.11182 0.0
C62 C 0.46162 0.57477 0.16017 0.0
Zn63 Zn 0.13492 0.15906 0.92175 0.0
Zn64 Zn 0.09981 0.14237 0.09343 0.0
O65 O 0.11255 0.08746 0.00051 0.0
H66 H 0.09679 0.04034 0.99167 0.0
C67 C 0.92523 0.16914 0.8138 0.0
O68 O 0.94249 0.19541 0.87808 0.0
Zn69 Zn 0.92709 0.82876 0.09042 0.0
Zn70 Zn 0.87395 0.83053 0.92344 0.0
O71 O 0.9179 0.88998 0.00198 0.0
H72 H 0.9426 0.93284 0.99323 0.0
Zn73 Zn 0.85163 0.07671 0.91192 0.0
O74 O 0.91894 0.07243 0.99494 0.0
Zn75 Zn 0.86401 0.0663 0.08703 0.0
H76 H 0.96645 0.06563 0.99009 0.0
Zn77 Zn 0.17441 0.86591 0.92068 0.0
O78 O 0.10921 0.89186 0.00133 0.0
H79 H 0.06448 0.90848 0.99401 0.0
Zn80 Zn 0.16252 0.90063 0.09357 0.0
C81 C 0.08031 0.78132 0.83104 0.0
O82 O 0.04358 0.78335 0.89142 0.0
O83 O 0.17184 0.25064 0.96644 0.0
O84 O 0.1321 0.24218 0.08135 0.0
O85 O 0.83856 0.73554 0.96157 0.0
O86 O 0.88943 0.73154 0.07057 0.0
O87 O 0.76245 0.11777 0.94807 0.0
O88 O 0.76973 0.09754 0.06851 0.0
C89 C 0.18096 0.04324 0.17116 0.0
O90 O 0.2639 0.83297 0.96237 0.0
O91 O 0.25727 0.86741 0.07951 0.0
O92 O 0.83157 0.87911 0.83276 0.0
C93 C 0.16412 0.27572 0.03116 0.0
O94 O 0.17478 0.12487 0.82192 0.0
C95 C 0.8504 0.92748 0.17448 0.0
O96 O 0.88697 0.11567 0.81224 0.0
C97 C 0.8521 0.70376 0.02138 0.0
O98 O 0.13679 0.81261 0.82982 0.0
C99 C 0.95948 0.15719 0.16413 0.0
O100 O 0.16108 0.1057 0.17055 0.0
O101 O 0.1554 0.00041 0.12547 0.0
C102 C 0.73781 0.12048 0.01313 0.0
O103 O 0.87026 0.86505 0.17314 0.0
O104 O 0.87017 0.96775 0.12282 0.0
C105 C 0.06237 0.81635 0.17166 0.0
O106 O 0.8996 0.13488 0.161 0.0
O107 O 1.00263 0.13075 0.12104 0.0
C108 C 0.28914 0.83858 0.02661 0.0
O109 O 0.12249 0.83835 0.17099 0.0
O110 O 0.02447 0.83474 0.11922 0.0
C111 C 0.76912 0.88873 0.8273 0.0
O112 O 0.72904 0.86638 0.88027 0.0
C113 C 0.22411 0.08389 0.821 0.0
O114 O 0.24885 0.06265 0.88399 0.0
C115 C 0.92817 0.30976 0.28752 0.0
C116 C 0.97931 0.30408 0.33974 0.0
H117 H 0.88318 0.26813 0.19025 0.0
C118 C 0.03135 0.25689 0.32574 0.0
H119 H 0.88678 0.34455 0.2964 0.0
C120 C 0.02904 0.21241 0.26404 0.0
C121 C 0.97444 0.21441 0.2161 0.0
H122 H 0.0719 0.25179 0.36451 0.0
H123 H 0.06691 0.17317 0.25723 0.0
C124 C 0.92578 0.26545 0.22667 0.0
C125 C 0.74405 0.91845 0.34734 0.0
C126 C 0.72161 0.98703 0.35465 0.0
H127 H 0.80189 0.8465 0.28559 0.0
C128 C 0.74004 0.03658 0.30065 0.0
H129 H 0.72991 0.8789 0.38748 0.0
C130 C 0.78185 0.01799 0.24154 0.0
C131 C 0.80545 0.94955 0.23531 0.0
H132 H 0.72369 0.09002 0.30525 0.0
H133 H 0.79614 0.05728 0.20162 0.0
C134 C 0.78536 0.89998 0.28864 0.0
C135 C 0.06482 0.72091 0.35369 0.0
C136 C 0.99905 0.69559 0.36064 0.0
H137 H 0.13566 0.77859 0.28967 0.0
C138 C 0.95385 0.70761 0.30311 0.0
H139 H 0.10126 0.71121 0.39627 0.0
C140 C 0.97388 0.7462 0.24081 0.0
C141 C 0.03922 0.77343 0.23518 0.0
H142 H 0.90274 0.68863 0.30701 0.0
H143 H 0.93816 0.75491 0.19779 0.0
C144 C 0.08455 0.7594 0.29209 0.0
C145 C 0.27584 0.96534 0.33024 0.0
C146 C 0.3259 0.01706 0.34031 0.0
H147 H 0.19051 0.93179 0.26681 0.0
C148 C 0.33301 0.06994 0.28703 0.0
H149 H 0.26933 0.92364 0.37008 0.0
C150 C 0.28837 0.07431 0.22873 0.0
C151 C 0.23568 0.02578 0.22156 0.0
H152 H 0.36999 0.11129 0.29313 0.0
H153 H 0.2928 0.11833 0.19136 0.0
C154 C 0.23115 0.96946 0.27089 0.0
C155 C 0.96793 0.68278 0.69737 0.0
C156 C 0.00949 0.67808 0.63472 0.0
H157 H 0.95749 0.71962 0.8087 0.0
C158 C 0.07522 0.70449 0.63865 0.0
H159 H 0.91692 0.66328 0.69583 0.0
C160 C 0.09821 0.73714 0.70264 0.0
C161 C 0.05619 0.74387 0.7646 0.0
H162 H 0.10887 0.70056 0.59175 0.0
H163 H 0.14887 0.75769 0.70316 0.0
C164 C 0.99107 0.71543 0.76177 0.0
C165 C 0.26037 0.07082 0.6158 0.0
C166 C 0.32336 0.03945 0.61493 0.0
H167 H 0.17972 0.10954 0.68139 0.0
C168 C 0.3513 0.01838 0.68216 0.0
H169 H 0.23791 0.08856 0.56505 0.0
C170 C 0.31794 0.03051 0.74902 0.0
C171 C 0.25629 0.06466 0.75004 0.0
H172 H 0.39965 -0.00617 0.68309 0.0
H173 H 0.34153 0.01508 0.79999 0.0
C174 C 0.22728 0.08343 0.68259 0.0
C175 C 0.93602 0.21569 0.61101 0.0
C176 C 0.96304 0.28374 0.61379 0.0
H177 H 0.90289 0.12599 0.67207 0.0
C178 C 0.98336 0.31112 0.68215 0.0
H179 H 0.91915 0.19351 0.55922 0.0
C180 C 0.97406 0.27242 0.74691 0.0
C181 C 0.94354 0.20592 0.7446 0.0
H182 H 1.00465 0.3633 0.68572 0.0
H183 H 0.98833 0.29587 0.79903 0.0
C184 C 0.92622 0.17722 0.67577 0.0
C185 C 0.64818 0.95 0.68122 0.0
C186 C 0.69198 0.97916 0.62823 0.0
H187 H 0.63817 0.89831 0.78578 0.0
C188 C 0.76067 0.98247 0.64376 0.0
H189 H 0.59506 0.94647 0.6708 0.0
C190 C 0.78539 0.95433 0.70896 0.0
C191 C 0.742 0.92263 0.76064 0.0
H192 H 0.79562 0.00608 0.60489 0.0
H193 H 0.83872 0.95673 0.71837 0.0
C194 C 0.67296 0.92207 0.74687 0.0
C195 C 0.28652 0.42723 0.01997 0.0
C196 C 0.30255 0.4363 0.0948 0.0
H197 H 0.22909 0.36956 0.94079 0.0
C198 C 0.2664 0.39882 0.14865 0.0
H199 H 0.31362 0.45591 0.97747 0.0
C200 C 0.2172 0.35052 0.12794 0.0
C201 C 0.20408 0.33784 0.05279 0.0
H202 H 0.27717 0.40589 0.20677 0.0
H203 H 0.19221 0.3204 0.17085 0.0
C204 C 0.23799 0.37808 0.99908 0.0
C205 C 0.40204 0.68667 0.01301 0.0
C206 C 0.40895 0.6713 0.08828 0.0
H207 H 0.36071 0.75524 0.93332 0.0
C208 C 0.39501 0.72283 0.14095 0.0
H209 H 0.41335 0.64774 0.97151 0.0
C210 C 0.36421 0.78441 0.11935 0.0
C211 C 0.34684 0.79454 0.0449 0.0
H212 H 0.40038 0.71206 0.19934 0.0
H213 H 0.347 0.81968 0.16199 0.0
C214 C 0.37177 0.74833 0.99132 0.0
C215 C 0.63557 0.28018 0.99521 0.0
C216 C 0.62323 0.29434 0.07015 0.0
H217 H 0.6795 0.21091 0.91703 0.0
C218 C 0.63037 0.24077 0.12214 0.0
H219 H 0.62914 0.32039 0.95394 0.0
C220 C 0.65939 0.17789 0.10119 0.0
C221 C 0.68177 0.16811 0.02803 0.0
H222 H 0.62066 0.25019 0.18023 0.0
H223 H 0.67106 0.14053 0.14392 0.0
C224 C 0.66413 0.21718 0.97412 0.0
C225 C 0.73227 0.55023 0.00608 0.0
C226 C 0.72225 0.53341 0.08084 0.0
H227 H 0.78202 0.6175 0.92816 0.0
C228 C 0.76131 0.56684 0.13464 0.0
H229 H 0.70277 0.52477 0.96368 0.0
C230 C 0.80749 0.61871 0.11443 0.0
C231 C 0.81451 0.63909 0.04007 0.0
H232 H 0.75499 0.55389 0.19255 0.0
H233 H 0.83491 0.6454 0.15769 0.0
C234 C 0.77767 0.60307 0.98586 0.0
loop_
_geom_bond_atom_site_label_1
_geom_bond_atom_site_label_2
_geom_bond_distance
_geom_bond_site_symmetry_2
_ccdc_geom_bond_type
H0 C8 0.930 . S
H1 C11 0.930 . S
H2 C13 0.930 . S
H3 C14 0.970 . S
H4 C14 0.970 . S
H5 C16 0.930 . S
H6 C18 0.930 . S
H7 C20 0.930 . S
C8 H0 0.930 . S
C8 C9 1.382 . S
C8 C10 1.426 . S
C9 C8 1.382 . S
C9 C13 1.389 1_655 S
C10 C8 1.426 . S
C10 C11 1.375 . S
C10 C14 1.532 . S
C11 H1 0.930 . S
C11 C10 1.375 . S
C11 C12 1.416 . S
C12 C11 1.416 . S
C12 C13 1.371 1_655 S
C13 H2 0.930 . S
C13 C9 1.389 1_455 S
C13 C12 1.371 1_455 S
C14 H3 0.970 . S
C14 H4 0.970 . S
C14 C10 1.532 . S
C14 C15 1.499 . S
C15 C14 1.499 . S
C15 C16 1.370 . S
C15 C20 1.415 . S
C16 H5 0.930 . S
C16 C15 1.370 . S
C16 C17 1.407 . S
C17 C16 1.407 . S
C17 C18 1.365 1_655 S
C18 H6 0.930 . S
C18 C17 1.365 1_455 S
C18 C19 1.393 1_455 S
C19 C18 1.393 1_655 S
C19 C20 1.387 . S
C20 H7 0.930 . S
C20 C15 1.415 . S
C20 C19 1.387 . S
H21 C29 0.930 . S
H22 C32 0.930 . S
H23 C34 0.930 . S
H24 C35 0.970 . S
H25 C35 0.970 . S
H26 C37 0.930 . S
H27 C39 0.930 . S
H28 C41 0.930 . S
C29 H21 0.930 . S
C29 C30 1.382 . S
C29 C31 1.426 . S
C30 C29 1.382 . S
C30 C34 1.389 1_545 S
C31 C29 1.426 . S
C31 C32 1.375 . S
C31 C35 1.532 . S
C32 H22 0.930 . S
C32 C31 1.375 . S
C32 C33 1.416 . S
C33 C32 1.416 . S
C33 C34 1.371 1_545 S
C34 H23 0.930 . S
C34 C30 1.389 1_565 S
C34 C33 1.371 1_565 S
C35 H24 0.970 . S
C35 H25 0.970 . S
C35 C31 1.532 . S
C35 C36 1.499 . S
C36 C35 1.499 . S
C36 C37 1.370 . S
C36 C41 1.415 . S
C37 H26 0.930 . S
C37 C36 1.370 . S
C37 C38 1.407 . S
C38 C37 1.407 . S
C38 C39 1.365 1_545 S
C39 H27 0.930 . S
C39 C38 1.365 1_565 S
C39 C40 1.393 1_565 S
C40 C39 1.393 1_545 S
C40 C41 1.387 . S
C41 H28 0.930 . S
C41 C36 1.415 . S
C41 C40 1.387 . S
H42 C50 0.930 . S
H43 C53 0.930 . S
H44 C55 0.930 1_556 S
H45 C56 0.970 . S
H46 C56 0.970 . S
H47 C58 0.930 . S
H48 C60 0.930 1_556 S
H49 C62 0.930 . S
C50 H42 0.930 . S
C50 C51 1.382 . S
C50 C52 1.426 . S
C51 C50 1.382 . S
C51 C55 1.389 . S
C52 C50 1.426 . S
C52 C53 1.375 . S
C52 C56 1.532 . S
C53 H43 0.930 . S
C53 C52 1.375 . S
C53 C54 1.416 . S
C54 C53 1.416 . S
C54 C55 1.371 . S
C55 H44 0.930 1_554 S
C55 C51 1.389 . S
C55 C54 1.371 . S
C56 H45 0.970 . S
C56 H46 0.970 . S
C56 C52 1.532 . S
C56 C57 1.499 . S
C57 C56 1.499 . S
C57 C58 1.370 . S
C57 C62 1.415 . S
C58 H47 0.930 . S
C58 C57 1.370 . S
C58 C59 1.407 . S
C59 C58 1.407 . S
C59 C60 1.365 . S
C60 H48 0.930 1_554 S
C60 C59 1.365 . S
C60 C61 1.393 . S
C61 C60 1.393 . S
C61 C62 1.387 . S
C62 H49 0.930 . S
C62 C57 1.415 . S
C62 C61 1.387 . S
Zn63 O65 1.933 1_556 S
Zn63 O83 1.985 . S
Zn63 O94 1.955 . S
Zn64 O65 1.911 . S
Zn64 O84 1.970 . S
Zn64 O100 1.945 . S
Zn64 O107 1.981 . S
O65 Zn63 1.933 1_554 S
O65 Zn64 1.911 . S
O65 H66 0.841 . S
H66 O65 0.841 . S
C67 O68 1.246 . S
C67 O96 1.276 1_455 S
O68 C67 1.246 . S
Zn69 O71 1.911 . S
Zn69 O86 1.970 . S
Zn69 O103 1.945 . S
Zn69 O110 1.981 . S
Zn70 O71 1.933 1_556 S
Zn70 O85 1.985 . S
Zn70 O92 1.955 . S
O71 Zn69 1.911 . S
O71 Zn70 1.933 1_554 S
O71 H72 0.841 . S
H72 O71 0.841 . S
Zn73 O74 1.933 1_556 S
Zn73 O87 1.985 . S
Zn73 O96 1.955 . S
O74 Zn73 1.933 1_554 S
O74 Zn75 1.911 . S
O74 H76 0.841 . S
Zn75 O74 1.911 . S
Zn75 O88 1.970 . S
Zn75 O104 1.981 . S
Zn75 O106 1.945 . S
H76 O74 0.841 . S
Zn77 O78 1.933 1_556 S
Zn77 O90 1.985 . S
Zn77 O98 1.955 . S
O78 Zn77 1.933 1_554 S
O78 H79 0.841 . S
O78 Zn80 1.911 . S
H79 O78 0.841 . S
Zn80 O78 1.911 . S
Zn80 O91 1.970 . S
Zn80 O101 1.981 . S
Zn80 O109 1.945 . S
C81 O82 1.246 . S
C81 O98 1.276 1_655 S
O82 C81 1.246 . S
O83 Zn63 1.985 . S
O83 C93 1.245 1_556 S
O84 Zn64 1.970 . S
O84 C93 1.263 . S
O85 Zn70 1.985 . S
O85 C97 1.245 1_556 S
O86 Zn69 1.970 . S
O86 C97 1.263 . S
O87 Zn73 1.985 . S
O87 C102 1.245 1_556 S
O88 Zn75 1.970 . S
O88 C102 1.263 . S
C89 O100 1.262 . S
C89 O101 1.245 1_545 S
O90 Zn77 1.985 . S
O90 C108 1.245 1_556 S
O91 Zn80 1.970 . S
O91 C108 1.263 . S
O92 Zn70 1.955 . S
O92 C111 1.276 1_565 S
C93 O83 1.245 1_554 S
C93 O84 1.263 . S
O94 Zn63 1.955 . S
O94 C113 1.276 1_545 S
C95 O103 1.264 . S
C95 O104 1.244 1_565 S
O96 C67 1.276 1_655 S
O96 Zn73 1.955 . S
C97 O85 1.245 1_554 S
C97 O86 1.263 . S
O98 Zn77 1.955 . S
O98 C81 1.276 1_455 S
C99 O106 1.265 . S
C99 O107 1.243 1_655 S
O100 Zn64 1.945 . S
O100 C89 1.262 . S
O101 Zn80 1.981 . S
O101 C89 1.245 1_565 S
C102 O87 1.245 1_554 S
C102 O88 1.263 . S
O103 Zn69 1.945 . S
O103 C95 1.264 . S
O104 Zn75 1.981 . S
O104 C95 1.244 1_545 S
C105 O109 1.261 1_655 S
C105 O110 1.245 . S
O106 Zn75 1.945 . S
O106 C99 1.265 . S
O107 Zn64 1.981 . S
O107 C99 1.243 1_455 S
C108 O90 1.245 1_554 S
C108 O91 1.263 . S
O109 Zn80 1.945 . S
O109 C105 1.261 1_455 S
O110 Zn69 1.981 . S
O110 C105 1.245 . S
C111 O92 1.276 1_545 S
C111 O112 1.246 . S
O112 C111 1.246 . S
C113 O94 1.276 1_565 S
C113 O114 1.246 . S
O114 C113 1.246 . S
C115 C116 1.387 . S
C115 H119 0.950 . S
C115 C124 1.390 . S
C116 C115 1.387 . S
C116 C118 1.387 1_655 S
H117 C124 0.950 . S
C118 C116 1.387 1_455 S
C118 C120 1.390 . S
C118 H122 0.950 . S
H119 C115 0.950 . S
C120 C118 1.390 . S
C120 C121 1.387 . S
C120 H123 0.950 . S
C121 C120 1.387 . S
C121 C124 1.387 1_455 S
H122 C118 0.950 . S
H123 C120 0.950 . S
C124 C115 1.390 . S
C124 H117 0.950 . S
C124 C121 1.387 1_655 S
C125 C126 1.384 1_565 S
C125 H129 0.950 . S
C125 C134 1.390 . S
C126 C125 1.384 1_545 S
C126 C128 1.391 . S
H127 C134 0.950 . S
C128 C126 1.391 . S
C128 C130 1.390 . S
C128 H132 0.950 . S
H129 C125 0.950 . S
C130 C128 1.390 . S
C130 C131 1.387 . S
C130 H133 0.950 . S
C131 C130 1.387 . S
C131 C134 1.387 1_545 S
H132 C128 0.950 . S
H133 C130 0.950 . S
C134 C125 1.390 . S
C134 H127 0.950 . S
C134 C131 1.387 1_565 S
C135 C136 1.387 . S
C135 H139 0.950 . S
C135 C144 1.390 . S
C136 C135 1.387 . S
C136 C138 1.387 1_455 S
H137 C144 0.950 . S
C138 C136 1.387 1_655 S
C138 C140 1.390 . S
C138 H142 0.950 . S
H139 C135 0.950 . S
C140 C138 1.390 . S
C140 C141 1.387 . S
C140 H143 0.950 . S
C141 C140 1.387 . S
C141 C144 1.387 1_655 S
H142 C138 0.950 . S
H143 C140 0.950 . S
C144 C135 1.390 . S
C144 H137 0.950 . S
C144 C141 1.387 1_455 S
C145 C146 1.387 1_565 S
C145 H149 0.950 . S
C145 C154 1.390 . S
C146 C145 1.387 1_545 S
C146 C148 1.387 . S
H147 C154 0.950 . S
C148 C146 1.387 . S
C148 C150 1.390 . S
C148 H152 0.950 . S
H149 C145 0.950 . S
C150 C148 1.390 . S
C150 C151 1.387 1_545 S
C150 H153 0.950 . S
C151 C150 1.387 1_565 S
C151 C154 1.387 . S
H152 C148 0.950 . S
H153 C150 0.950 . S
C154 C145 1.390 . S
C154 H147 0.950 . S
C154 C151 1.387 . S
C155 C156 1.387 . S
C155 H159 0.950 . S
C155 C164 1.390 . S
C156 C155 1.387 . S
C156 C158 1.387 1_655 S
H157 C164 0.950 . S
C158 C156 1.387 1_455 S
C158 C160 1.390 . S
C158 H162 0.950 . S
H159 C155 0.950 . S
C160 C158 1.390 . S
C160 C161 1.387 1_455 S
C160 H163 0.950 . S
C161 C160 1.387 1_655 S
C161 C164 1.387 . S
H162 C158 0.950 . S
H163 C160 0.950 . S
C164 C155 1.390 . S
C164 H157 0.950 . S
C164 C161 1.387 . S
C165 C166 1.387 1_545 S
C165 H169 0.950 . S
C165 C174 1.390 . S
C166 C165 1.387 1_565 S
C166 C168 1.387 . S
H167 C174 0.950 . S
C168 C166 1.387 . S
C168 C170 1.390 . S
C168 H172 0.950 . S
H169 C165 0.950 . S
C170 C168 1.390 . S
C170 C171 1.387 . S
C170 H173 0.950 . S
C171 C170 1.387 . S
C171 C174 1.387 1_565 S
H172 C168 0.950 . S
H173 C170 0.950 . S
C174 C165 1.390 . S
C174 H167 0.950 . S
C174 C171 1.387 1_545 S
C175 C176 1.387 . S
C175 H179 0.950 . S
C175 C184 1.390 . S
C176 C175 1.387 . S
C176 C178 1.387 1_455 S
H177 C184 0.950 . S
C178 C176 1.387 1_655 S
C178 C180 1.390 1_655 S
C178 H182 0.950 . S
H179 C175 0.950 . S
C180 C178 1.390 1_455 S
C180 C181 1.387 . S
C180 H183 0.950 1_455 S
C181 C180 1.387 . S
C181 C184 1.387 . S
H182 C178 0.950 . S
H183 C180 0.950 1_655 S
C184 C175 1.390 . S
C184 H177 0.950 . S
C184 C181 1.387 . S
C185 C186 1.387 1_565 S
C185 H189 0.950 . S
C185 C194 1.390 . S
C186 C185 1.387 1_545 S
C186 C188 1.387 . S
H187 C194 0.950 . S
C188 C186 1.387 . S
C188 C190 1.390 . S
C188 H192 0.950 . S
H189 C185 0.950 . S
C190 C188 1.390 . S
C190 C191 1.387 . S
C190 H193 0.950 . S
C191 C190 1.387 . S
C191 C194 1.387 1_545 S
H192 C188 0.950 . S
H193 C190 0.950 . S
C194 C185 1.390 . S
C194 H187 0.950 . S
C194 C191 1.387 1_565 S
C195 C196 1.387 1_556 S
C195 H199 0.950 . S
C195 C204 1.390 . S
C196 C195 1.387 1_554 S
C196 C198 1.387 . S
H197 C204 0.950 . S
C198 C196 1.387 . S
C198 C200 1.390 . S
C198 H202 0.950 . S
H199 C195 0.950 . S
C200 C198 1.390 . S
C200 C201 1.387 . S
C200 H203 0.950 . S
C201 C200 1.387 . S
C201 C204 1.387 1_554 S
H202 C198 0.950 . S
H203 C200 0.950 . S
C204 C195 1.390 . S
C204 H197 0.950 . S
C204 C201 1.387 1_556 S
C205 C206 1.387 1_556 S
C205 H209 0.950 . S
C205 C214 1.390 . S
C206 C205 1.387 1_554 S
C206 C208 1.387 . S
H207 C214 0.950 . S
C208 C206 1.387 . S
C208 C210 1.390 . S
C208 H212 0.950 . S
H209 C205 0.950 . S
C210 C208 1.390 . S
C210 C211 1.387 . S
C210 H213 0.950 . S
C211 C210 1.387 . S
C211 C214 1.387 1_554 S
H212 C208 0.950 . S
H213 C210 0.950 . S
C214 C205 1.390 . S
C214 H207 0.950 . S
C214 C211 1.387 1_556 S
C215 C216 1.387 1_556 S
C215 H219 0.950 . S
C215 C224 1.390 . S
C216 C215 1.387 1_554 S
C216 C218 1.387 . S
H217 C224 0.950 . S
C218 C216 1.387 . S
C218 C220 1.390 . S
C218 H222 0.950 . S
H219 C215 0.950 . S
C220 C218 1.390 . S
C220 C221 1.387 . S
C220 H223 0.950 . S
C221 C220 1.387 . S
C221 C224 1.387 1_554 S
H222 C218 0.950 . S
H223 C220 0.950 . S
C224 C215 1.390 . S
C224 H217 0.950 . S
C224 C221 1.387 1_556 S
C225 C226 1.387 1_556 S
C225 H229 0.950 . S
C225 C234 1.390 . S
C226 C225 1.387 1_554 S
C226 C228 1.387 . S
H227 C234 0.950 . S
C228 C226 1.387 . S
C228 C230 1.390 . S
C228 H232 0.950 . S
H229 C225 0.950 . S
C230 C228 1.390 . S
C230 C231 1.387 . S
C230 H233 0.950 . S
C231 C230 1.387 . S
C231 C234 1.387 1_554 S
H232 C228 0.950 . S
H233 C230 0.950 . S
C234 C225 1.390 . S
C234 H227 0.950 . S
C234 C231 1.387 1_556 S
C121 C99 1.383 1_455 S
C116 C9 1.440 . S
C131 C95 1.647 1_545 S
C126 C38 1.684 . S
C141 C105 1.395 . S
C136 C17 1.425 1_455 S
C151 C89 1.634 1_565 S
C146 C30 1.704 . S
C156 C19 1.507 . S
C161 C81 1.447 . S
C171 C113 1.725 . S
C166 C33 1.786 1_565 S
C176 C12 1.524 1_455 S
C181 C67 1.469 . S
C186 C40 1.779 . S
C191 C111 1.702 . S
C196 C59 1.371 . S
C201 C93 1.390 . S
C206 C61 1.464 . S
C211 C108 1.392 . S
C221 C102 1.398 . S
C216 C51 1.463 . S
C231 C97 1.387 . S
C226 C54 1.358 . S
