# Generated by pormake.
# Topology nom, (4,4)-cn, num edge types: 1
# Building blocks:
#     Node 0, Type 0, BuildingBlock: KUFVIS_clean_linker_0, # of connection points: 4
#     Node 1, Type 0, BuildingBlock: KUFVIS_clean_linker_0, # of connection points: 4
#     Node 2, Type 0, BuildingBlock: KUFVIS_clean_linker_0, # of connection points: 4
#     Node 3, Type 0, BuildingBlock: KUFVIS_clean_linker_0, # of connection points: 4
#     Node 4, Type 0, BuildingBlock: KUFVIS_clean_linker_0, # of connection points: 4
#     Node 5, Type 0, BuildingBlock: KUFVIS_clean_linker_0, # of connection points: 4
#     Node 6, Type 1, BuildingBlock: AZAVOO_clean_sbu_0, # of connection points: 4
#     Node 7, Type 1, BuildingBlock: AZAVOO_clean_sbu_0, # of connection points: 4
#     Node 8, Type 1, BuildingBlock: AZAVOO_clean_sbu_0, # of connection points: 4
#     Node 9, Type 1, BuildingBlock: AZAVOO_clean_sbu_0, # of connection points: 4
#     Node 10, Type 1, BuildingBlock: AZAVOO_clean_sbu_0, # of connection points: 4
#     Node 11, Type 1, BuildingBlock: AZAVOO_clean_sbu_0, # of connection points: 4
#     Edge 12, Type (0, 1), None
#     Edge 13, Type (0, 1), None
#     Edge 14, Type (0, 1), None
#     Edge 15, Type (0, 1), None
#     Edge 16, Type (0, 1), None
#     Edge 17, Type (0, 1), None
#     Edge 18, Type (0, 1), None
#     Edge 19, Type (0, 1), None
#     Edge 20, Type (0, 1), None
#     Edge 21, Type (0, 1), None
#     Edge 22, Type (0, 1), None
#     Edge 23, Type (0, 1), None
#     Edge 24, Type (0, 1), None
#     Edge 25, Type (0, 1), None
#     Edge 26, Type (0, 1), None
#     Edge 27, Type (0, 1), None
#     Edge 28, Type (0, 1), None
#     Edge 29, Type (0, 1), None
#     Edge 30, Type (0, 1), None
#     Edge 31, Type (0, 1), None
#     Edge 32, Type (0, 1), None
#     Edge 33, Type (0, 1), None
#     Edge 34, Type (0, 1), None
#     Edge 35, Type (0, 1), None
# Relax obj value: 0.032
# Max RMSD: 0.169
# Mean RMSD: 0.099
data_MOF--net-nom--node1-AZAVOO_clean_sbu_0--node2-KUFVIS_clean_linker_0--edge1-none
_symmetry_space_group_name_H-M    P1
_symmetry_Int_Tables_number       1
_symmetry_cell_setting            triclinic
loop_
_symmetry_equiv_pos_as_xyz
'x, y, z'
_cell_length_a     21.889355
_cell_length_b     22.117871
_cell_length_c     20.385898
_cell_angle_alpha  90.653792
_cell_angle_beta   89.930421
_cell_angle_gamma 119.47281
loop_
_atom_site_label
_atom_site_type_symbol
_atom_site_fract_x
_atom_site_fract_y
_atom_site_fract_z
_atom_type_partial_charge
H0 H 0.22127 0.62903 0.37222 0.0
H1 H 0.05926 0.57472 0.22783 0.0
H2 H 0.00701 0.4857 0.42092 0.0
H3 H 0.9128 0.51765 0.39106 0.0
H4 H 0.75717 0.4153 0.24044 0.0
H5 H 0.96731 0.4552 0.20804 0.0
C6 C 0.16638 0.60039 0.35801 0.0
C7 C 0.11684 0.55677 0.40373 0.0
C8 C 0.1464 0.60627 0.29412 0.0
C9 C 0.07524 0.56889 0.27657 0.0
C10 C 0.02425 0.5255 0.32199 0.0
C11 C 0.04562 0.51901 0.38555 0.0
C12 C 0.94891 0.48928 0.30259 0.0
C13 C 0.89808 0.4921 0.34345 0.0
C14 C 0.82878 0.46467 0.32098 0.0
C15 C 0.81057 0.43512 0.25797 0.0
C16 C 0.85993 0.43158 0.21692 0.0
C17 C 0.92875 0.45736 0.23994 0.0
H18 H 0.61705 0.23461 0.53216 0.0
H19 H 0.52983 0.06897 0.38922 0.0
H20 H 0.58026 0.0322 0.58428 0.0
H21 H 0.46893 0.93396 0.56393 0.0
H22 H 0.40622 0.77048 0.42004 0.0
H23 H 0.55554 0.9792 0.36858 0.0
C24 C 0.59916 0.18094 0.5184 0.0
C25 C 0.60127 0.13611 0.56518 0.0
C26 C 0.57547 0.15775 0.45422 0.0
C27 C 0.55139 0.08778 0.43775 0.0
C28 C 0.55189 0.04142 0.4845 0.0
C29 C 0.57896 0.06681 0.54779 0.0
C30 C 0.51821 0.96572 0.46886 0.0
C31 C 0.47463 0.91672 0.51551 0.0
C32 C 0.43454 0.84603 0.49861 0.0
C33 C 0.43837 0.82456 0.43447 0.0
C34 C 0.48193 0.87216 0.38773 0.0
C35 C 0.52301 0.94239 0.40537 0.0
H36 H 0.62197 0.40341 0.57909 0.0
H37 H 0.50124 0.44699 0.71862 0.0
H38 H 0.53211 0.52934 0.5229 0.0
H39 H 0.4074 0.48885 0.54602 0.0
H40 H 0.32688 0.57475 0.68899 0.0
H41 H 0.50766 0.55677 0.73684 0.0
C42 C 0.59222 0.4291 0.59203 0.0
C43 C 0.58122 0.46792 0.54444 0.0
C44 C 0.56466 0.42228 0.65533 0.0
C45 C 0.52497 0.45451 0.67058 0.0
C46 C 0.51257 0.49319 0.62312 0.0
C47 C 0.54201 0.50064 0.5602 0.0
C48 C 0.46488 0.52122 0.63872 0.0
C49 C 0.41185 0.51293 0.59367 0.0
C50 C 0.36226 0.53262 0.61203 0.0
C51 C 0.36593 0.56037 0.67466 0.0
C52 C 0.41736 0.56836 0.7198 0.0
C53 C 0.46791 0.55044 0.70152 0.0
H54 H 0.23396 0.62669 0.77244 0.0
H55 H 0.05906 0.50177 0.89564 0.0
H56 H 0.02533 0.55357 0.70013 0.0
H57 H 0.93507 0.43237 0.71857 0.0
H58 H 0.75781 0.36949 0.84479 0.0
H59 H 0.96096 0.52478 0.9121 0.0
C60 C 0.17793 0.60221 0.78178 0.0
C61 C 0.13287 0.59567 0.73037 0.0
C62 C 0.15171 0.56761 0.84096 0.0
C63 C 0.07932 0.53124 0.85106 0.0
C64 C 0.03308 0.52872 0.80158 0.0
C65 C 0.06028 0.55966 0.74038 0.0
C66 C 0.95644 0.48771 0.81196 0.0
C67 C 0.91283 0.43981 0.76345 0.0
C68 C 0.84104 0.39807 0.77503 0.0
C69 C 0.81293 0.40452 0.83462 0.0
C70 C 0.85592 0.44875 0.88445 0.0
C71 C 0.92757 0.49121 0.87299 0.0
H72 H 0.37689 0.78611 0.02673 0.0
H73 H 0.48433 0.94919 0.88884 0.0
H74 H 0.47425 -0.00268 0.09398 0.0
H75 H 0.58655 0.08275 0.06628 0.0
H76 H 0.66175 0.24776 0.92798 0.0
H77 H 0.48427 0.05184 0.87664 0.0
C78 C 0.40535 0.8411 0.01559 0.0
C79 C 0.4228 0.8893 0.06687 0.0
C80 C 0.42732 0.86219 0.95146 0.0
C81 C 0.46496 0.93321 0.9381 0.0
C82 C 0.48187 0.98313 0.98888 0.0
C83 C 0.46029 0.9604 0.05373 0.0
C84 C 0.52753 0.05811 0.97446 0.0
C85 C 0.58023 0.10215 0.01971 0.0
C86 C 0.62768 0.17074 0.00306 0.0
C87 C 0.62332 0.19509 0.94139 0.0
C88 C 0.57286 0.15217 0.8955 0.0
C89 C 0.52348 0.08446 0.91254 0.0
H90 H 0.38962 0.64211 0.07945 0.0
H91 H 0.49202 0.57879 0.2201 0.0
H92 H 0.4097 0.46228 0.03887 0.0
H93 H 0.52285 0.47381 0.04829 0.0
H94 H 0.57626 0.36128 0.18505 0.0
H95 H 0.46435 0.46338 0.25232 0.0
C96 C 0.40588 0.60527 0.09477 0.0
C97 C 0.39602 0.55126 0.05218 0.0
C98 C 0.43864 0.61431 0.15586 0.0
C99 C 0.46308 0.56912 0.17453 0.0
C100 C 0.4529 0.51364 0.13236 0.0
C101 C 0.4174 0.50415 0.07201 0.0
C102 C 0.48497 0.46967 0.14749 0.0
C103 C 0.51916 0.45338 0.09708 0.0
C104 C 0.55291 0.41501 0.1104 0.0
C105 C 0.54956 0.39031 0.1738 0.0
C106 C 0.51892 0.40835 0.225 0.0
C107 C 0.48651 0.4481 0.21216 0.0
Mg108 Mg 0.60806 0.36012 0.36256 0.0
O109 O 0.59023 0.40669 0.45403 0.0
O110 O 0.63419 0.52081 0.44301 0.0
Mg111 Mg 0.67143 0.54478 0.33553 0.0
C112 C 0.60328 0.46559 0.4767 0.0
C113 C 0.57604 0.20722 0.40541 0.0
O114 O 0.56457 0.1903 0.34287 0.0
O115 O 0.72575 0.41207 0.38151 0.0
O116 O 0.76002 0.51646 0.33931 0.0
O117 O 0.50454 0.33796 0.31783 0.0
O118 O 0.60358 0.43505 0.30555 0.0
C119 C 0.77333 0.46911 0.3579 0.0
C120 C 0.53832 0.39848 0.29109 0.0
O121 O 0.59144 0.26812 0.42409 0.0
Mg122 Mg 0.26264 0.64096 0.58308 0.0
O123 O 0.18958 0.61001 0.49559 0.0
O124 O 0.11768 0.49546 0.49915 0.0
Mg125 Mg 0.12941 0.45971 0.60252 0.0
C126 C 0.14133 0.55371 0.47046 0.0
C127 C 0.3856 0.79452 0.54589 0.0
O128 O 0.38623 0.81073 0.60818 0.0
O129 O 0.3098 0.57639 0.54239 0.0
O130 O 0.24276 0.47793 0.5939 0.0
O131 O 0.19751 0.67407 0.64423 0.0
O132 O 0.18201 0.56824 0.64037 0.0
C133 C 0.30244 0.52225 0.57093 0.0
C134 C 0.16375 0.6107 0.66461 0.0
O135 O 0.34245 0.73363 0.52554 0.0
Mg136 Mg 0.63166 0.27491 0.74471 0.0
O137 O 0.60356 0.20266 0.65695 0.0
O138 O 0.6651 0.147 0.66334 0.0
Mg139 Mg 0.71089 0.1648 0.76819 0.0
C140 C 0.62383 0.16227 0.63266 0.0
C141 C 0.57582 0.37936 0.70387 0.0
O142 O 0.56115 0.38076 0.76618 0.0
O143 O 0.74358 0.33677 0.70769 0.0
O144 O 0.79095 0.2807 0.75757 0.0
O145 O 0.53898 0.2 0.8063 0.0
O146 O 0.6416 0.20495 0.80303 0.0
C147 C 0.79588 0.33656 0.73494 0.0
C148 C 0.58056 0.17891 0.82866 0.0
O149 O 0.60133 0.34162 0.68475 0.0
Mg150 Mg 0.36513 0.6475 0.86535 0.0
O151 O 0.39082 0.60758 0.95686 0.0
O152 O 0.328 0.49194 0.95732 0.0
Mg153 Mg 0.27982 0.45836 0.85364 0.0
C154 C 0.37018 0.54968 0.98498 0.0
C155 C 0.41434 0.80875 0.90092 0.0
O156 O 0.41485 0.82152 0.8381 0.0
O157 O 0.25439 0.60879 0.90192 0.0
O158 O 0.20297 0.50075 0.86169 0.0
O159 O 0.45578 0.65366 0.80648 0.0
O160 O 0.35077 0.56196 0.81214 0.0
C161 C 0.20028 0.55484 0.88001 0.0
C162 C 0.41188 0.59133 0.78628 0.0
O163 O 0.40006 0.74868 0.91975 0.0
Mg164 Mg 0.72522 0.37359 0.03 0.0
O165 O 0.79443 0.41649 0.12027 0.0
O166 O 0.86325 0.36828 0.12244 0.0
Mg167 Mg 0.85973 0.32284 0.01861 0.0
C168 C 0.83899 0.40457 0.14915 0.0
C169 C 0.59851 0.40659 0.06172 0.0
O170 O 0.59788 0.4216 -0.00035 0.0
O171 O 0.68002 0.2659 0.07352 0.0
O172 O 0.74668 0.23071 0.02284 0.0
O173 O 0.79048 0.46792 0.96816 0.0
O174 O 0.80826 0.37895 0.977 0.0
C175 C 0.68696 0.21822 0.04486 0.0
C176 C 0.82541 0.43736 0.95025 0.0
O177 O 0.64221 0.38878 0.08203 0.0
Mg178 Mg 0.35988 0.75334 0.20385 0.0
O179 O 0.41368 0.81165 0.29625 0.0
O180 O 0.52982 0.86637 0.28398 0.0
Mg181 Mg 0.54879 0.85186 0.17476 0.0
C182 C 0.47538 0.849 0.31883 0.0
C183 C 0.20057 0.65087 0.24635 0.0
O184 O 0.18508 0.64991 0.18396 0.0
O185 O 0.39767 0.67531 0.21845 0.0
O186 O 0.50505 0.73311 0.17567 0.0
O187 O 0.3516 0.84323 0.16189 0.0
O188 O 0.44064 0.82527 0.14673 0.0
C189 C 0.45185 0.6765 0.19375 0.0
C190 C 0.41082 0.86105 0.13325 0.0
O191 O 0.26365 0.68798 0.2656 0.0
loop_
_geom_bond_atom_site_label_1
_geom_bond_atom_site_label_2
_geom_bond_distance
_geom_bond_site_symmetry_2
_ccdc_geom_bond_type
H0 C6 0.930 . S
H1 C9 0.931 . S
H2 C11 0.931 . S
H3 C13 0.930 . S
H4 C15 0.930 . S
H5 C17 0.931 . S
C6 H0 0.930 . S
C6 C7 1.380 . S
C6 C8 1.394 . S
C7 C6 1.380 . S
C7 C11 1.382 . S
C8 C6 1.394 . S
C8 C9 1.400 . S
C9 H1 0.931 . S
C9 C8 1.400 . S
C9 C10 1.375 . S
C10 C9 1.375 . S
C10 C11 1.415 . S
C10 C12 1.501 1_455 S
C11 H2 0.931 . S
C11 C7 1.382 . S
C11 C10 1.415 . S
C12 C10 1.501 1_655 S
C12 C13 1.384 . S
C12 C17 1.408 . S
C13 H3 0.930 . S
C13 C12 1.384 . S
C13 C14 1.389 . S
C14 C13 1.389 . S
C14 C15 1.405 . S
C15 H4 0.930 . S
C15 C14 1.405 . S
C15 C16 1.364 . S
C16 C15 1.364 . S
C16 C17 1.400 . S
C17 H5 0.931 . S
C17 C12 1.408 . S
C17 C16 1.400 . S
H18 C24 0.930 . S
H19 C27 0.931 . S
H20 C29 0.931 . S
H21 C31 0.930 . S
H22 C33 0.930 . S
H23 C35 0.931 . S
C24 H18 0.930 . S
C24 C25 1.380 . S
C24 C26 1.394 . S
C25 C24 1.380 . S
C25 C29 1.382 . S
C26 C24 1.394 . S
C26 C27 1.400 . S
C27 H19 0.931 . S
C27 C26 1.400 . S
C27 C28 1.375 . S
C28 C27 1.375 . S
C28 C29 1.415 . S
C28 C30 1.501 1_545 S
C29 H20 0.931 . S
C29 C25 1.382 . S
C29 C28 1.415 . S
C30 C28 1.501 1_565 S
C30 C31 1.384 . S
C30 C35 1.408 . S
C31 H21 0.930 . S
C31 C30 1.384 . S
C31 C32 1.389 . S
C32 C31 1.389 . S
C32 C33 1.405 . S
C33 H22 0.930 . S
C33 C32 1.405 . S
C33 C34 1.364 . S
C34 C33 1.364 . S
C34 C35 1.400 . S
C35 H23 0.931 . S
C35 C30 1.408 . S
C35 C34 1.400 . S
H36 C42 0.930 . S
H37 C45 0.931 . S
H38 C47 0.931 . S
H39 C49 0.930 . S
H40 C51 0.930 . S
H41 C53 0.931 . S
C42 H36 0.930 . S
C42 C43 1.380 . S
C42 C44 1.394 . S
C43 C42 1.380 . S
C43 C47 1.382 . S
C44 C42 1.394 . S
C44 C45 1.400 . S
C45 H37 0.931 . S
C45 C44 1.400 . S
C45 C46 1.375 . S
C46 C45 1.375 . S
C46 C47 1.415 . S
C46 C48 1.501 . S
C47 H38 0.931 . S
C47 C43 1.382 . S
C47 C46 1.415 . S
C48 C46 1.501 . S
C48 C49 1.384 . S
C48 C53 1.408 . S
C49 H39 0.930 . S
C49 C48 1.384 . S
C49 C50 1.389 . S
C50 C49 1.389 . S
C50 C51 1.405 . S
C51 H40 0.930 . S
C51 C50 1.405 . S
C51 C52 1.364 . S
C52 C51 1.364 . S
C52 C53 1.400 . S
C53 H41 0.931 . S
C53 C48 1.408 . S
C53 C52 1.400 . S
H54 C60 0.930 . S
H55 C63 0.931 . S
H56 C65 0.931 . S
H57 C67 0.930 . S
H58 C69 0.930 . S
H59 C71 0.931 . S
C60 H54 0.930 . S
C60 C61 1.380 . S
C60 C62 1.394 . S
C61 C60 1.380 . S
C61 C65 1.382 . S
C62 C60 1.394 . S
C62 C63 1.400 . S
C63 H55 0.931 . S
C63 C62 1.400 . S
C63 C64 1.375 . S
C64 C63 1.375 . S
C64 C65 1.415 . S
C64 C66 1.501 1_455 S
C65 H56 0.931 . S
C65 C61 1.382 . S
C65 C64 1.415 . S
C66 C64 1.501 1_655 S
C66 C67 1.384 . S
C66 C71 1.408 . S
C67 H57 0.930 . S
C67 C66 1.384 . S
C67 C68 1.389 . S
C68 C67 1.389 . S
C68 C69 1.405 . S
C69 H58 0.930 . S
C69 C68 1.405 . S
C69 C70 1.364 . S
C70 C69 1.364 . S
C70 C71 1.400 . S
C71 H59 0.931 . S
C71 C66 1.408 . S
C71 C70 1.400 . S
H72 C78 0.930 . S
H73 C81 0.931 . S
H74 C83 0.927 1_545 S
H75 C85 0.930 . S
H76 C87 0.930 . S
H77 C89 0.931 . S
C78 H72 0.930 . S
C78 C79 1.380 . S
C78 C80 1.394 1_554 S
C79 C78 1.380 . S
C79 C83 1.382 . S
C80 C78 1.394 1_556 S
C80 C81 1.400 . S
C81 H73 0.931 . S
C81 C80 1.400 . S
C81 C82 1.382 . S
C82 C81 1.382 . S
C82 C83 1.404 1_556 S
C82 C84 1.504 1_565 S
C83 H74 0.927 1_565 S
C83 C79 1.382 . S
C83 C82 1.404 1_554 S
C84 C82 1.504 1_545 S
C84 C85 1.384 1_556 S
C84 C89 1.408 . S
C85 H75 0.930 . S
C85 C84 1.384 1_554 S
C85 C86 1.389 . S
C86 C85 1.389 . S
C86 C87 1.405 1_554 S
C87 H76 0.930 . S
C87 C86 1.405 1_556 S
C87 C88 1.364 . S
C88 C87 1.364 . S
C88 C89 1.400 . S
C89 H77 0.931 . S
C89 C84 1.408 . S
C89 C88 1.400 . S
H90 C96 0.930 . S
H91 C99 0.931 . S
H92 C101 0.931 . S
H93 C103 0.930 . S
H94 C105 0.930 . S
H95 C107 0.931 . S
C96 H90 0.930 . S
C96 C97 1.380 . S
C96 C98 1.394 . S
C97 C96 1.380 . S
C97 C101 1.382 . S
C98 C96 1.394 . S
C98 C99 1.400 . S
C99 H91 0.931 . S
C99 C98 1.400 . S
C99 C100 1.375 . S
C100 C99 1.375 . S
C100 C101 1.415 . S
C100 C102 1.501 . S
C101 H92 0.931 . S
C101 C97 1.382 . S
C101 C100 1.415 . S
C102 C100 1.501 . S
C102 C103 1.384 . S
C102 C107 1.408 . S
C103 H93 0.930 . S
C103 C102 1.384 . S
C103 C104 1.389 . S
C104 C103 1.389 . S
C104 C105 1.405 . S
C105 H94 0.930 . S
C105 C104 1.405 . S
C105 C106 1.364 . S
C106 C105 1.364 . S
C106 C107 1.400 . S
C107 H95 0.931 . S
C107 C102 1.408 . S
C107 C106 1.400 . S
Mg108 O109 2.028 . S
Mg108 O115 1.986 . S
Mg108 O117 2.114 . S
Mg108 O118 2.251 . S
Mg108 O121 2.010 . S
O109 Mg108 2.028 . S
O109 C112 1.250 . S
O110 Mg111 2.028 . S
O110 C112 1.248 . S
Mg111 O110 2.028 . S
Mg111 O116 2.032 . S
Mg111 O118 2.079 . S
C112 O109 1.250 . S
C112 O110 1.248 . S
C113 O114 1.264 . S
C113 O121 1.249 . S
O114 C113 1.264 . S
O115 Mg108 1.986 . S
O115 C119 1.246 . S
O116 Mg111 2.032 . S
O116 C119 1.259 . S
O117 Mg108 2.114 . S
O117 C120 1.252 . S
O118 Mg108 2.251 . S
O118 Mg111 2.079 . S
O118 C120 1.273 . S
C119 O115 1.246 . S
C119 O116 1.259 . S
C120 O117 1.252 . S
C120 O118 1.273 . S
O121 Mg108 2.010 . S
O121 C113 1.249 . S
Mg122 O123 2.028 . S
Mg122 O129 1.986 . S
Mg122 O131 2.114 . S
Mg122 O132 2.251 . S
Mg122 O135 2.010 . S
O123 Mg122 2.028 . S
O123 C126 1.250 . S
O124 Mg125 2.028 . S
O124 C126 1.248 . S
Mg125 O124 2.028 . S
Mg125 O130 2.032 . S
Mg125 O132 2.079 . S
C126 O123 1.250 . S
C126 O124 1.248 . S
C127 O128 1.264 . S
C127 O135 1.249 . S
O128 C127 1.264 . S
O129 Mg122 1.986 . S
O129 C133 1.246 . S
O130 Mg125 2.032 . S
O130 C133 1.259 . S
O131 Mg122 2.114 . S
O131 C134 1.252 . S
O132 Mg122 2.251 . S
O132 Mg125 2.079 . S
O132 C134 1.273 . S
C133 O129 1.246 . S
C133 O130 1.259 . S
C134 O131 1.252 . S
C134 O132 1.273 . S
O135 Mg122 2.010 . S
O135 C127 1.249 . S
Mg136 O137 2.028 . S
Mg136 O143 1.986 . S
Mg136 O145 2.114 . S
Mg136 O146 2.251 . S
Mg136 O149 2.010 . S
O137 Mg136 2.028 . S
O137 C140 1.250 . S
O138 Mg139 2.028 . S
O138 C140 1.248 . S
Mg139 O138 2.028 . S
Mg139 O144 2.032 . S
Mg139 O146 2.079 . S
C140 O137 1.250 . S
C140 O138 1.248 . S
C141 O142 1.264 . S
C141 O149 1.249 . S
O142 C141 1.264 . S
O143 Mg136 1.986 . S
O143 C147 1.246 . S
O144 Mg139 2.032 . S
O144 C147 1.259 . S
O145 Mg136 2.114 . S
O145 C148 1.252 . S
O146 Mg136 2.251 . S
O146 Mg139 2.079 . S
O146 C148 1.273 . S
C147 O143 1.246 . S
C147 O144 1.259 . S
C148 O145 1.252 . S
C148 O146 1.273 . S
O149 Mg136 2.010 . S
O149 C141 1.249 . S
Mg150 O151 2.028 . S
Mg150 O157 1.986 . S
Mg150 O159 2.114 . S
Mg150 O160 2.251 . S
Mg150 O163 2.010 . S
O151 Mg150 2.028 . S
O151 C154 1.250 . S
O152 Mg153 2.028 . S
O152 C154 1.248 . S
Mg153 O152 2.028 . S
Mg153 O158 2.032 . S
Mg153 O160 2.079 . S
C154 O151 1.250 . S
C154 O152 1.248 . S
C155 O156 1.264 . S
C155 O163 1.249 . S
O156 C155 1.264 . S
O157 Mg150 1.986 . S
O157 C161 1.246 . S
O158 Mg153 2.032 . S
O158 C161 1.259 . S
O159 Mg150 2.114 . S
O159 C162 1.252 . S
O160 Mg150 2.251 . S
O160 Mg153 2.079 . S
O160 C162 1.273 . S
C161 O157 1.246 . S
C161 O158 1.259 . S
C162 O159 1.252 . S
C162 O160 1.273 . S
O163 Mg150 2.010 . S
O163 C155 1.249 . S
Mg164 O165 2.028 . S
Mg164 O171 1.986 . S
Mg164 O173 2.114 1_554 S
Mg164 O174 2.251 1_554 S
Mg164 O177 2.010 . S
O165 Mg164 2.028 . S
O165 C168 1.250 . S
O166 Mg167 2.028 . S
O166 C168 1.248 . S
Mg167 O166 2.028 . S
Mg167 O172 2.032 . S
Mg167 O174 2.079 1_554 S
C168 O165 1.250 . S
C168 O166 1.248 . S
C169 O170 1.264 . S
C169 O177 1.249 . S
O170 C169 1.264 . S
O171 Mg164 1.986 . S
O171 C175 1.246 . S
O172 Mg167 2.032 . S
O172 C175 1.259 . S
O173 Mg164 2.114 1_556 S
O173 C176 1.252 . S
O174 Mg164 2.251 1_556 S
O174 Mg167 2.079 1_556 S
O174 C176 1.273 . S
C175 O171 1.246 . S
C175 O172 1.259 . S
C176 O173 1.252 . S
C176 O174 1.273 . S
O177 Mg164 2.010 . S
O177 C169 1.249 . S
Mg178 O179 2.028 . S
Mg178 O185 1.986 . S
Mg178 O187 2.114 . S
Mg178 O188 2.251 . S
Mg178 O191 2.010 . S
O179 Mg178 2.028 . S
O179 C182 1.250 . S
O180 Mg181 2.028 . S
O180 C182 1.248 . S
Mg181 O180 2.028 . S
Mg181 O186 2.032 . S
Mg181 O188 2.079 . S
C182 O179 1.250 . S
C182 O180 1.248 . S
C183 O184 1.264 . S
C183 O191 1.249 . S
O184 C183 1.264 . S
O185 Mg178 1.986 . S
O185 C189 1.246 . S
O186 Mg181 2.032 . S
O186 C189 1.259 . S
O187 Mg178 2.114 . S
O187 C190 1.252 . S
O188 Mg178 2.251 . S
O188 Mg181 2.079 . S
O188 C190 1.273 . S
C189 O185 1.246 . S
C189 O186 1.259 . S
C190 O187 1.252 . S
C190 O188 1.273 . S
O191 Mg178 2.010 . S
O191 C183 1.249 . S
C183 C8 1.728 . S
C26 C113 1.743 . S
C50 C133 1.765 . S
C68 C147 1.724 . S
C155 C80 1.601 . S
C104 C169 1.576 . S
C32 C127 1.676 . S
C44 C141 1.674 . S
C62 C161 1.682 . S
C175 C86 1.711 . S
C189 C98 1.810 . S
C119 C14 1.793 . S
C7 C126 1.524 . S
C25 C140 1.497 . S
C162 C52 1.453 . S
C70 C176 1.467 . S
C190 C79 1.377 . S
C120 C106 1.403 . S
C182 C34 1.504 . S
C43 C112 1.501 . S
C134 C61 1.446 . S
C88 C148 1.437 . S
C97 C154 1.557 1_554 S
C16 C168 1.583 . S
