# Generated by pormake.
# Topology hwx, (6,3)-cn, num edge types: 1
# Building blocks:
#     Node 0, Type 0, BuildingBlock: OJICUG_clean_sbu_0, # of connection points: 6
#     Node 1, Type 0, BuildingBlock: OJICUG_clean_sbu_0, # of connection points: 6
#     Node 2, Type 0, BuildingBlock: OJICUG_clean_sbu_0, # of connection points: 6
#     Node 3, Type 0, BuildingBlock: OJICUG_clean_sbu_0, # of connection points: 6
#     Node 4, Type 1, BuildingBlock: QEWDON_clean_linker_0, # of connection points: 3
#     Node 5, Type 1, BuildingBlock: QEWDON_clean_linker_0, # of connection points: 3
#     Node 6, Type 1, BuildingBlock: QEWDON_clean_linker_0, # of connection points: 3
#     Node 7, Type 1, BuildingBlock: QEWDON_clean_linker_0, # of connection points: 3
#     Node 8, Type 1, BuildingBlock: QEWDON_clean_linker_0, # of connection points: 3
#     Node 9, Type 1, BuildingBlock: QEWDON_clean_linker_0, # of connection points: 3
#     Node 10, Type 1, BuildingBlock: QEWDON_clean_linker_0, # of connection points: 3
#     Node 11, Type 1, BuildingBlock: QEWDON_clean_linker_0, # of connection points: 3
#     Edge 12, Type (0, 1), None
#     Edge 13, Type (0, 1), None
#     Edge 14, Type (0, 1), None
#     Edge 15, Type (0, 1), None
#     Edge 16, Type (0, 1), None
#     Edge 17, Type (0, 1), None
#     Edge 18, Type (0, 1), None
#     Edge 19, Type (0, 1), None
#     Edge 20, Type (0, 1), None
#     Edge 21, Type (0, 1), None
#     Edge 22, Type (0, 1), None
#     Edge 23, Type (0, 1), None
#     Edge 24, Type (0, 1), None
#     Edge 25, Type (0, 1), None
#     Edge 26, Type (0, 1), None
#     Edge 27, Type (0, 1), None
#     Edge 28, Type (0, 1), None
#     Edge 29, Type (0, 1), None
#     Edge 30, Type (0, 1), None
#     Edge 31, Type (0, 1), None
#     Edge 32, Type (0, 1), None
#     Edge 33, Type (0, 1), None
#     Edge 34, Type (0, 1), None
#     Edge 35, Type (0, 1), None
# Relax obj value: 0.003
# Max RMSD: 0.072
# Mean RMSD: 0.067
data_MOF--net-hwx--node1-OJICUG_clean_sbu_0--node2-QEWDON_clean_linker_0--edge1-none
_symmetry_space_group_name_H-M    P1
_symmetry_Int_Tables_number       1
_symmetry_cell_setting            triclinic
loop_
_symmetry_equiv_pos_as_xyz
'x, y, z'
_cell_length_a     26.638843
_cell_length_b     26.638833
_cell_length_c     9.620243
_cell_angle_alpha  92.583066
_cell_angle_beta   92.581482
_cell_angle_gamma 90.154231
loop_
_atom_site_label
_atom_site_type_symbol
_atom_site_fract_x
_atom_site_fract_y
_atom_site_fract_z
_atom_type_partial_charge
Sc0 Sc 0.27503 0.25982 0.1003 0.0
Sc1 Sc 0.16788 0.21286 0.91145 0.0
Sc2 Sc 0.26181 0.2732 0.74302 0.0
O3 O 0.23503 0.24884 0.91916 0.0
C4 C 0.29886 0.36108 0.95983 0.0
C5 C 0.16015 0.28384 0.17713 0.0
C6 C 0.15063 0.29384 0.67632 0.0
C7 C 0.22701 0.15532 0.15238 0.0
C8 C 0.35908 0.22769 0.88706 0.0
C9 C 0.21249 0.16647 0.64554 0.0
O10 O 0.28863 0.33841 0.06856 0.0
O11 O 0.13977 0.26731 0.06124 0.0
O12 O 0.19396 0.31366 0.69601 0.0
O13 O 0.26644 0.18219 0.15075 0.0
O14 O 0.33082 0.23327 0.77873 0.0
O15 O 0.19339 0.15647 0.76034 0.0
O16 O 0.34608 0.23981 0.00995 0.0
O17 O 0.18708 0.16522 0.08206 0.0
O18 O 0.23281 0.2086 0.62499 0.0
O19 O 0.20727 0.28011 0.20661 0.0
O20 O 0.29438 0.34089 0.83804 0.0
O21 O 0.13784 0.25523 0.73976 0.0
Sc22 Sc 0.24562 0.7622 0.30662 0.0
Sc23 Sc 0.33356 0.6891 0.48642 0.0
Sc24 Sc 0.26046 0.77704 0.66622 0.0
O25 O 0.27986 0.7428 0.48642 0.0
C26 C 0.26237 0.86825 0.46331 0.0
C27 C 0.36253 0.74995 0.23335 0.0
C28 C 0.37351 0.76333 0.73911 0.0
C29 C 0.25933 0.64915 0.23372 0.0
C30 C 0.1544 0.76029 0.50954 0.0
C31 C 0.27271 0.66013 0.73949 0.0
O32 O 0.26148 0.84033 0.3529 0.0
O33 O 0.37771 0.73019 0.34594 0.0
O34 O 0.33718 0.79381 0.72825 0.0
O35 O 0.22885 0.68548 0.2446 0.0
O36 O 0.18233 0.76118 0.61995 0.0
O37 O 0.29247 0.64495 0.6269 0.0
O38 O 0.17125 0.76543 0.38938 0.0
O39 O 0.29998 0.64746 0.30775 0.0
O40 O 0.26388 0.70646 0.76812 0.0
O41 O 0.31619 0.75877 0.20472 0.0
O42 O 0.25723 0.85141 0.58347 0.0
O43 O 0.3752 0.72268 0.66508 0.0
Sc44 Sc 0.76284 0.74763 0.87254 0.0
Sc45 Sc 0.80979 0.85478 0.06139 0.0
Sc46 Sc 0.74946 0.76085 0.22982 0.0
O47 O 0.77382 0.78763 0.05368 0.0
C48 C 0.66158 0.72379 0.01301 0.0
C49 C 0.73882 0.86251 0.79572 0.0
C50 C 0.72882 0.87203 0.29653 0.0
C51 C 0.86734 0.79565 0.82045 0.0
C52 C 0.79497 0.66358 0.08577 0.0
C53 C 0.85619 0.81016 0.32729 0.0
O54 O 0.68425 0.73403 0.90428 0.0
O55 O 0.75535 0.88289 0.91161 0.0
O56 O 0.70899 0.8287 0.27683 0.0
O57 O 0.84047 0.75622 0.82209 0.0
O58 O 0.78938 0.69184 0.19411 0.0
O59 O 0.86619 0.82927 0.2125 0.0
O60 O 0.78285 0.67658 -0.03711 0.0
O61 O 0.85744 0.83558 0.89077 0.0
O62 O 0.81406 0.78985 0.34785 0.0
O63 O 0.74255 0.81539 0.76623 0.0
O64 O 0.68177 0.72827 0.1348 0.0
O65 O 0.76743 0.88482 0.23308 0.0
Sc66 Sc 0.77702 0.27635 0.66032 0.0
Sc67 Sc 0.68224 0.34042 0.48642 0.0
Sc68 Sc 0.74631 0.24564 0.31252 0.0
O69 O 0.73583 0.28683 0.48642 0.0
C70 C 0.85908 0.26003 0.43098 0.0
C71 C 0.75784 0.38678 0.72638 0.0
C72 C 0.74091 0.36267 0.22791 0.0
C73 C 0.65999 0.28175 0.74493 0.0
C74 C 0.76263 0.16358 0.54186 0.0
C75 C 0.63587 0.26482 0.24646 0.0
O76 O 0.84801 0.26943 0.55713 0.0
O77 O 0.71381 0.38256 0.67059 0.0
O78 O 0.74369 0.31519 0.19957 0.0
O79 O 0.70747 0.27897 0.77326 0.0
O80 O 0.75323 0.17465 0.41571 0.0
O81 O 0.6401 0.30885 0.30226 0.0
O82 O 0.76912 0.1964 0.64114 0.0
O83 O 0.6415 0.29711 0.62926 0.0
O84 O 0.66696 0.23125 0.28019 0.0
O85 O 0.79141 0.3557 0.69264 0.0
O86 O 0.82626 0.25354 0.33169 0.0
O87 O 0.72555 0.38116 0.34358 0.0
H88 H 0.28651 0.55123 0.19145 0.0
C89 C 0.27779 0.57023 0.09599 0.0
C90 C 0.25697 0.61842 0.10247 0.0
C91 C 0.29196 0.54856 -0.03183 0.0
H92 H 0.23334 0.68148 -0.01408 0.0
C93 C 0.24809 0.6436 -0.02087 0.0
C94 C 0.26636 0.62468 0.85253 0.0
C95 C 0.28713 0.57614 0.84686 0.0
C96 C 0.32042 0.50134 -0.03213 0.0
H97 H 0.3025 0.56108 0.75132 0.0
C98 C 0.29556 0.45481 -0.03096 0.0
C99 C 0.32355 0.41033 -0.0253 0.0
C100 C 0.37313 0.50317 -0.02667 0.0
H101 H 0.39272 0.53889 -0.02627 0.0
C102 C 0.40087 0.45892 -0.01996 0.0
H103 H 0.25483 0.45321 -0.0364 0.0
C104 C 0.37623 0.41262 -0.01966 0.0
H105 H 0.39825 0.37848 -0.01734 0.0
H106 H 0.44152 0.46048 -0.01586 0.0
H107 H 0.95589 0.78347 0.33492 0.0
C108 C 0.94109 0.79134 0.43675 0.0
C109 C 0.89258 0.81104 0.44737 0.0
C110 C 0.96769 0.77557 0.55695 0.0
H111 H 0.83487 0.83289 0.58745 0.0
C112 C 0.87284 0.81855 0.57931 0.0
C113 C 0.89758 0.80057 0.6978 0.0
C114 C 0.94515 0.77898 0.6869 0.0
C115 C 0.01372 0.74571 0.54248 0.0
H116 H 0.96347 0.76273 0.77712 0.0
C117 C 0.06071 0.76866 0.52711 0.0
C118 C 0.10391 0.73873 0.51748 0.0
C119 C 1.01022 0.6932 0.54604 0.0
H120 H 0.97424 0.67512 0.55753 0.0
C121 C 0.05304 0.66365 0.53481 0.0
H122 H 0.06372 0.80921 0.52543 0.0
C123 C 0.09969 0.68625 0.52116 0.0
H124 H 0.13272 0.66274 0.5143 0.0
H125 H 0.05012 0.62318 0.53771 0.0
H126 H 0.79514 0.48062 0.8184 0.0
C127 C 0.78283 0.45783 0.90106 0.0
C128 C 0.76269 0.40965 0.86915 0.0
C129 C 0.78921 0.47529 0.04157 0.0
H130 H 0.736 0.34212 0.95259 0.0
C131 C 0.74947 0.37966 -0.02235 0.0
C132 C 0.75424 0.3968 0.11732 0.0
C133 C 0.77381 0.44503 0.14861 0.0
C134 C 0.81617 0.52279 0.08066 0.0
H135 H 0.77903 0.45837 0.2565 0.0
C136 C 0.7956 0.56969 0.04834 0.0
C137 C 0.81848 0.61428 0.10479 0.0
C138 C 0.86092 0.52101 0.1634 0.0
H139 H 0.87728 0.48524 0.1894 0.0
C140 C 0.88431 0.56521 0.21582 0.0
H141 H 0.76055 0.57137 -0.01304 0.0
C142 C 0.86286 0.61161 0.18853 0.0
H143 H 0.8809 0.64553 0.23305 0.0
H144 H 0.91857 0.56347 0.2803 0.0
H145 H 0.05011 0.28216 0.62257 0.0
C146 C 0.07034 0.29096 0.53133 0.0
C147 C 0.1216 0.30399 0.54596 0.0
C148 C 0.04726 0.28187 0.39855 0.0
H149 H 0.18881 0.31743 0.43713 0.0
C150 C 0.14869 0.31047 0.42589 0.0
C151 C 0.12701 0.29832 0.29275 0.0
C152 C 0.07547 0.28696 0.27988 0.0
C153 C 1.00016 0.2523 0.38359 0.0
H154 H 0.05844 0.2758 0.17863 0.0
C155 C 0.95354 0.27163 0.42466 0.0
C156 C 0.90983 0.24197 0.40123 0.0
C157 C 1.00277 0.20296 0.32587 0.0
H158 H 0.0384 0.1872 0.29602 0.0
C159 C 0.95977 0.17343 0.30623 0.0
H160 H 0.95109 0.30959 0.46922 0.0
C161 C 0.91358 0.19285 0.3426 0.0
H162 H 0.88045 0.16925 0.3252 0.0
H163 H 0.96219 0.13551 0.26172 0.0
H164 H 0.74049 0.97255 0.35028 0.0
C165 C 0.73169 0.95231 0.44152 0.0
C166 C 0.71867 0.90106 0.42689 0.0
C167 C 0.74079 0.9754 0.5743 0.0
H168 H 0.70523 0.83384 0.53572 0.0
C169 C 0.71219 0.87397 0.54696 0.0
C170 C 0.72434 0.89564 0.68009 0.0
C171 C 0.7357 0.94719 0.69297 0.0
C172 C 0.77036 0.0225 0.58926 0.0
H173 H 0.74686 0.96422 0.79422 0.0
C174 C 0.75103 0.06912 0.54818 0.0
C175 C 0.78069 0.11283 0.5716 0.0
C176 C 0.81969 0.01989 0.64698 0.0
H177 H 0.83546 0.98426 0.67683 0.0
C178 C 0.84922 0.06289 0.6666 0.0
H179 H 0.71307 0.07156 0.50363 0.0
C180 C 0.82981 0.10908 0.63023 0.0
H181 H 0.8534 0.14221 0.64763 0.0
H182 H 0.88715 0.06048 0.71112 0.0
H183 H 0.54204 0.22752 0.15444 0.0
C184 C 0.56483 0.23982 0.07179 0.0
C185 C 0.61301 0.25997 0.10369 0.0
C186 C 0.54736 0.23345 0.93127 0.0
H187 H 0.68053 0.28666 0.02025 0.0
C188 C 0.643 0.27319 -0.00481 0.0
C189 C 0.62586 0.26843 0.85552 0.0
C190 C 0.57762 0.24885 0.82423 0.0
C191 C 0.49987 0.20649 0.89218 0.0
H192 H 0.56429 0.24363 0.71634 0.0
C193 C 0.45297 0.22706 0.9245 0.0
C194 C 0.40838 0.20418 0.86805 0.0
C195 C 0.50165 0.16174 0.80944 0.0
H196 H 0.53742 0.14537 0.78345 0.0
C197 C 0.45745 0.13835 0.75701 0.0
H198 H 0.45129 0.26211 -0.01412 0.0
C199 C 0.41105 0.1598 0.7843 0.0
H200 H 0.37713 0.14176 0.73978 0.0
H201 H 0.4592 0.10408 0.69254 0.0
H202 H 0.23919 0.06677 0.63791 0.0
C203 C 0.23132 0.08156 0.53608 0.0
C204 C 0.21162 0.13008 0.52546 0.0
C205 C 0.24709 0.05496 0.41587 0.0
H206 H 0.18977 0.18779 0.38539 0.0
C207 C 0.20411 0.14982 0.39353 0.0
C208 C 0.22209 0.12508 0.27504 0.0
C209 C 0.24368 0.0775 0.28593 0.0
C210 C 0.27695 1.00894 0.43034 0.0
H211 H 0.25993 0.05918 0.1957 0.0
C212 C 0.254 0.96194 0.44573 0.0
C213 C 0.28392 0.91875 0.45536 0.0
C214 C 0.32946 0.01244 0.42678 0.0
H215 H 0.34754 0.04842 0.41529 0.0
C216 C 0.35901 0.96962 0.43802 0.0
H217 H 0.21345 0.95894 0.4474 0.0
C218 C 0.33641 0.92297 0.45169 0.0
H219 H 0.35992 0.88994 0.45856 0.0
H220 H 0.39948 0.97254 0.43513 0.0
H221 H 0.47143 0.73614 0.78138 0.0
C222 C 0.45242 0.74486 0.87684 0.0
C223 C 0.40424 0.76569 0.87037 0.0
C224 C 0.4741 0.7307 0.00466 0.0
H225 H 0.34118 0.78932 -0.01308 0.0
C226 C 0.37906 0.77457 -0.00629 0.0
C227 C 0.39798 0.7563 0.12031 0.0
C228 C 0.44652 0.73553 0.12597 0.0
C229 C 0.52131 0.70224 0.00496 0.0
H230 H 0.46158 0.72016 0.22151 0.0
C231 C 0.56785 0.7271 0.0038 0.0
C232 C 0.61233 0.69911 -0.00186 0.0
C233 C 0.51949 0.64953 -0.0005 0.0
H234 H 0.48377 0.62994 -0.0009 0.0
C235 C 0.56374 0.62179 -0.00721 0.0
H236 H 0.56945 0.76782 0.00923 0.0
C237 C 0.61004 0.64642 -0.0075 0.0
H238 H 0.64417 0.6244 -0.00982 0.0
H239 H 0.56218 0.58114 -0.0113 0.0
loop_
_geom_bond_atom_site_label_1
_geom_bond_atom_site_label_2
_geom_bond_distance
_geom_bond_site_symmetry_2
_ccdc_geom_bond_type
Sc0 O3 2.025 . S
Sc0 O10 2.105 . S
Sc0 O13 2.105 . S
Sc0 O16 2.105 . S
Sc0 O19 2.105 . S
Sc1 O3 2.025 1_556 S
Sc1 O11 2.105 1_556 S
Sc1 O15 2.105 . S
Sc1 O17 2.105 1_556 S
Sc1 O21 2.105 . S
Sc2 O3 2.025 1_556 S
Sc2 O12 2.105 . S
Sc2 O14 2.105 . S
Sc2 O18 2.105 . S
Sc2 O20 2.105 . S
O3 Sc0 2.025 . S
O3 Sc1 2.025 1_554 S
O3 Sc2 2.025 1_554 S
C4 O10 1.268 . S
C4 O20 1.268 1_554 S
C5 O11 1.268 . S
C5 O19 1.268 . S
C6 O12 1.268 . S
C6 O21 1.268 . S
C7 O13 1.268 . S
C7 O17 1.268 . S
C8 O14 1.268 1_554 S
C8 O16 1.268 . S
C9 O15 1.268 . S
C9 O18 1.268 . S
O10 Sc0 2.105 . S
O10 C4 1.268 . S
O11 Sc1 2.105 1_554 S
O11 C5 1.268 . S
O12 Sc2 2.105 . S
O12 C6 1.268 . S
O13 Sc0 2.105 . S
O13 C7 1.268 . S
O14 Sc2 2.105 . S
O14 C8 1.268 1_556 S
O15 Sc1 2.105 . S
O15 C9 1.268 . S
O16 Sc0 2.105 . S
O16 C8 1.268 . S
O17 Sc1 2.105 1_554 S
O17 C7 1.268 . S
O18 Sc2 2.105 . S
O18 C9 1.268 . S
O19 Sc0 2.105 . S
O19 C5 1.268 . S
O20 Sc2 2.105 . S
O20 C4 1.268 1_556 S
O21 Sc1 2.105 . S
O21 C6 1.268 . S
Sc22 O25 2.025 . S
Sc22 O32 2.105 . S
Sc22 O35 2.105 . S
Sc22 O38 2.105 . S
Sc22 O41 2.105 . S
Sc23 O25 2.025 . S
Sc23 O33 2.105 . S
Sc23 O37 2.105 . S
Sc23 O39 2.105 . S
Sc23 O43 2.105 . S
Sc24 O25 2.025 . S
Sc24 O34 2.105 . S
Sc24 O36 2.105 . S
Sc24 O40 2.105 . S
Sc24 O42 2.105 . S
O25 Sc22 2.025 . S
O25 Sc23 2.025 . S
O25 Sc24 2.025 . S
C26 O32 1.268 . S
C26 O42 1.268 . S
C27 O33 1.268 . S
C27 O41 1.268 . S
C28 O34 1.268 . S
C28 O43 1.268 . S
C29 O35 1.268 . S
C29 O39 1.268 . S
C30 O36 1.268 . S
C30 O38 1.268 . S
C31 O37 1.268 . S
C31 O40 1.268 . S
O32 Sc22 2.105 . S
O32 C26 1.268 . S
O33 Sc23 2.105 . S
O33 C27 1.268 . S
O34 Sc24 2.105 . S
O34 C28 1.268 . S
O35 Sc22 2.105 . S
O35 C29 1.268 . S
O36 Sc24 2.105 . S
O36 C30 1.268 . S
O37 Sc23 2.105 . S
O37 C31 1.268 . S
O38 Sc22 2.105 . S
O38 C30 1.268 . S
O39 Sc23 2.105 . S
O39 C29 1.268 . S
O40 Sc24 2.105 . S
O40 C31 1.268 . S
O41 Sc22 2.105 . S
O41 C27 1.268 . S
O42 Sc24 2.105 . S
O42 C26 1.268 . S
O43 Sc23 2.105 . S
O43 C28 1.268 . S
Sc44 O47 2.025 1_556 S
Sc44 O54 2.105 . S
Sc44 O57 2.105 . S
Sc44 O60 2.105 . S
Sc44 O63 2.105 . S
Sc45 O47 2.025 . S
Sc45 O55 2.105 1_554 S
Sc45 O59 2.105 . S
Sc45 O61 2.105 1_554 S
Sc45 O65 2.105 . S
Sc46 O47 2.025 . S
Sc46 O56 2.105 . S
Sc46 O58 2.105 . S
Sc46 O62 2.105 . S
Sc46 O64 2.105 . S
O47 Sc44 2.025 1_554 S
O47 Sc45 2.025 . S
O47 Sc46 2.025 . S
C48 O54 1.268 1_554 S
C48 O64 1.268 . S
C49 O55 1.268 . S
C49 O63 1.268 . S
C50 O56 1.268 . S
C50 O65 1.268 . S
C51 O57 1.268 . S
C51 O61 1.268 . S
C52 O58 1.268 . S
C52 O60 1.268 1_554 S
C53 O59 1.268 . S
C53 O62 1.268 . S
O54 Sc44 2.105 . S
O54 C48 1.268 1_556 S
O55 Sc45 2.105 1_556 S
O55 C49 1.268 . S
O56 Sc46 2.105 . S
O56 C50 1.268 . S
O57 Sc44 2.105 . S
O57 C51 1.268 . S
O58 Sc46 2.105 . S
O58 C52 1.268 . S
O59 Sc45 2.105 . S
O59 C53 1.268 . S
O60 Sc44 2.105 . S
O60 C52 1.268 1_556 S
O61 Sc45 2.105 1_556 S
O61 C51 1.268 . S
O62 Sc46 2.105 . S
O62 C53 1.268 . S
O63 Sc44 2.105 . S
O63 C49 1.268 . S
O64 Sc46 2.105 . S
O64 C48 1.268 . S
O65 Sc45 2.105 . S
O65 C50 1.268 . S
Sc66 O69 2.025 . S
Sc66 O76 2.105 . S
Sc66 O79 2.105 . S
Sc66 O82 2.105 . S
Sc66 O85 2.105 . S
Sc67 O69 2.025 . S
Sc67 O77 2.105 . S
Sc67 O81 2.105 . S
Sc67 O83 2.105 . S
Sc67 O87 2.105 . S
Sc68 O69 2.025 . S
Sc68 O78 2.105 . S
Sc68 O80 2.105 . S
Sc68 O84 2.105 . S
Sc68 O86 2.105 . S
O69 Sc66 2.025 . S
O69 Sc67 2.025 . S
O69 Sc68 2.025 . S
C70 O76 1.268 . S
C70 O86 1.268 . S
C71 O77 1.268 . S
C71 O85 1.268 . S
C72 O78 1.268 . S
C72 O87 1.268 . S
C73 O79 1.268 . S
C73 O83 1.268 . S
C74 O80 1.268 . S
C74 O82 1.268 . S
C75 O81 1.268 . S
C75 O84 1.268 . S
O76 Sc66 2.105 . S
O76 C70 1.268 . S
O77 Sc67 2.105 . S
O77 C71 1.268 . S
O78 Sc68 2.105 . S
O78 C72 1.268 . S
O79 Sc66 2.105 . S
O79 C73 1.268 . S
O80 Sc68 2.105 . S
O80 C74 1.268 . S
O81 Sc67 2.105 . S
O81 C75 1.268 . S
O82 Sc66 2.105 . S
O82 C74 1.268 . S
O83 Sc67 2.105 . S
O83 C73 1.268 . S
O84 Sc68 2.105 . S
O84 C75 1.268 . S
O85 Sc66 2.105 . S
O85 C71 1.268 . S
O86 Sc68 2.105 . S
O86 C70 1.268 . S
O87 Sc67 2.105 . S
O87 C72 1.268 . S
H88 C89 0.949 . S
C89 H88 0.949 . S
C89 C90 1.395 . S
C89 C91 1.391 1_554 S
C90 C89 1.395 . S
C90 C93 1.390 . S
C91 C89 1.391 1_556 S
C91 C95 1.387 . S
C91 C96 1.491 . S
H92 C93 0.950 . S
C93 C90 1.390 . S
C93 H92 0.950 . S
C93 C94 1.378 1_554 S
C94 C93 1.378 1_556 S
C94 C95 1.409 . S
C95 C91 1.387 . S
C95 C94 1.409 . S
C95 H97 0.951 . S
C96 C91 1.491 . S
C96 C98 1.382 1_556 S
C96 C100 1.404 . S
H97 C95 0.951 . S
C98 C96 1.382 1_554 S
C98 C99 1.390 1_554 S
C98 H103 0.949 . S
C99 C98 1.390 1_556 S
C99 C104 1.399 . S
C100 C96 1.404 . S
C100 H101 0.950 . S
C100 C102 1.375 . S
H101 C100 0.950 . S
C102 C100 1.375 . S
C102 C104 1.382 . S
C102 H106 0.950 . S
H103 C98 0.949 . S
C104 C99 1.399 . S
C104 C102 1.382 . S
C104 H105 0.952 . S
H105 C104 0.952 . S
H106 C102 0.950 . S
H107 C108 0.949 . S
C108 H107 0.949 . S
C108 C109 1.395 . S
C108 C110 1.391 . S
C109 C108 1.395 . S
C109 C112 1.390 . S
C110 C108 1.391 . S
C110 C114 1.387 . S
C110 C115 1.491 1_655 S
H111 C112 0.950 . S
C112 C109 1.390 . S
C112 H111 0.950 . S
C112 C113 1.378 . S
C113 C112 1.378 . S
C113 C114 1.409 . S
C114 C110 1.387 . S
C114 C113 1.409 . S
C114 H116 0.951 . S
C115 C110 1.491 1_455 S
C115 C117 1.382 . S
C115 C119 1.404 . S
H116 C114 0.951 . S
C117 C115 1.382 . S
C117 C118 1.390 . S
C117 H122 0.949 . S
C118 C117 1.390 . S
C118 C123 1.399 . S
C119 C115 1.404 . S
C119 H120 0.950 . S
C119 C121 1.375 . S
H120 C119 0.950 . S
C121 C119 1.375 . S
C121 C123 1.382 . S
C121 H125 0.950 . S
H122 C117 0.949 . S
C123 C118 1.399 . S
C123 C121 1.382 . S
C123 H124 0.952 . S
H124 C123 0.952 . S
H125 C121 0.950 . S
H126 C127 0.949 . S
C127 H126 0.949 . S
C127 C128 1.395 . S
C127 C129 1.391 1_556 S
C128 C127 1.395 . S
C128 C131 1.390 1_556 S
C129 C127 1.391 1_554 S
C129 C133 1.387 . S
C129 C134 1.491 . S
H130 C131 0.950 . S
C131 C128 1.390 1_554 S
C131 H130 0.950 . S
C131 C132 1.378 . S
C132 C131 1.378 . S
C132 C133 1.409 . S
C133 C129 1.387 . S
C133 C132 1.409 . S
C133 H135 0.951 . S
C134 C129 1.491 . S
C134 C136 1.382 . S
C134 C138 1.404 . S
H135 C133 0.951 . S
C136 C134 1.382 . S
C136 C137 1.390 . S
C136 H141 0.949 1_554 S
C137 C136 1.390 . S
C137 C142 1.399 . S
C138 C134 1.404 . S
C138 H139 0.950 . S
C138 C140 1.375 . S
H139 C138 0.950 . S
C140 C138 1.375 . S
C140 C142 1.382 . S
C140 H144 0.950 . S
H141 C136 0.949 1_556 S
C142 C137 1.399 . S
C142 C140 1.382 . S
C142 H143 0.952 . S
H143 C142 0.952 . S
H144 C140 0.950 . S
H145 C146 0.949 . S
C146 H145 0.949 . S
C146 C147 1.395 . S
C146 C148 1.391 . S
C147 C146 1.395 . S
C147 C150 1.390 . S
C148 C146 1.391 . S
C148 C152 1.387 . S
C148 C153 1.491 1_455 S
H149 C150 0.950 . S
C150 C147 1.390 . S
C150 H149 0.950 . S
C150 C151 1.378 . S
C151 C150 1.378 . S
C151 C152 1.409 . S
C152 C148 1.387 . S
C152 C151 1.409 . S
C152 H154 0.951 . S
C153 C148 1.491 1_655 S
C153 C155 1.382 . S
C153 C157 1.404 . S
H154 C152 0.951 . S
C155 C153 1.382 . S
C155 C156 1.390 . S
C155 H160 0.949 . S
C156 C155 1.390 . S
C156 C161 1.399 . S
C157 C153 1.404 . S
C157 H158 0.950 . S
C157 C159 1.375 . S
H158 C157 0.950 . S
C159 C157 1.375 . S
C159 C161 1.382 . S
C159 H163 0.950 . S
H160 C155 0.949 . S
C161 C156 1.399 . S
C161 C159 1.382 . S
C161 H162 0.952 . S
H162 C161 0.952 . S
H163 C159 0.950 . S
H164 C165 0.949 . S
C165 H164 0.949 . S
C165 C166 1.395 . S
C165 C167 1.391 . S
C166 C165 1.395 . S
C166 C169 1.390 . S
C167 C165 1.391 . S
C167 C171 1.387 . S
C167 C172 1.491 1_565 S
H168 C169 0.950 . S
C169 C166 1.390 . S
C169 H168 0.950 . S
C169 C170 1.378 . S
C170 C169 1.378 . S
C170 C171 1.409 . S
C171 C167 1.387 . S
C171 C170 1.409 . S
C171 H173 0.951 . S
C172 C167 1.491 1_545 S
C172 C174 1.382 . S
C172 C176 1.404 . S
H173 C171 0.951 . S
C174 C172 1.382 . S
C174 C175 1.390 . S
C174 H179 0.949 . S
C175 C174 1.390 . S
C175 C180 1.399 . S
C176 C172 1.404 . S
C176 H177 0.950 . S
C176 C178 1.375 . S
H177 C176 0.950 . S
C178 C176 1.375 . S
C178 C180 1.382 . S
C178 H182 0.950 . S
H179 C174 0.949 . S
C180 C175 1.399 . S
C180 C178 1.382 . S
C180 H181 0.952 . S
H181 C180 0.952 . S
H182 C178 0.950 . S
H183 C184 0.949 . S
C184 H183 0.949 . S
C184 C185 1.395 . S
C184 C186 1.391 1_554 S
C185 C184 1.395 . S
C185 C188 1.390 . S
C186 C184 1.391 1_556 S
C186 C190 1.387 . S
C186 C191 1.491 . S
H187 C188 0.950 . S
C188 C185 1.390 . S
C188 H187 0.950 . S
C188 C189 1.378 1_554 S
C189 C188 1.378 1_556 S
C189 C190 1.409 . S
C190 C186 1.387 . S
C190 C189 1.409 . S
C190 H192 0.951 . S
C191 C186 1.491 . S
C191 C193 1.382 1_556 S
C191 C195 1.404 . S
H192 C190 0.951 . S
C193 C191 1.382 1_554 S
C193 C194 1.390 1_554 S
C193 H198 0.949 . S
C194 C193 1.390 1_556 S
C194 C199 1.399 . S
C195 C191 1.404 . S
C195 H196 0.950 . S
C195 C197 1.375 . S
H196 C195 0.950 . S
C197 C195 1.375 . S
C197 C199 1.382 . S
C197 H201 0.950 . S
H198 C193 0.949 . S
C199 C194 1.399 . S
C199 C197 1.382 . S
C199 H200 0.952 . S
H200 C199 0.952 . S
H201 C197 0.950 . S
H202 C203 0.949 . S
C203 H202 0.949 . S
C203 C204 1.395 . S
C203 C205 1.391 . S
C204 C203 1.395 . S
C204 C207 1.390 . S
C205 C203 1.391 . S
C205 C209 1.387 . S
C205 C210 1.491 1_545 S
H206 C207 0.950 . S
C207 C204 1.390 . S
C207 H206 0.950 . S
C207 C208 1.378 . S
C208 C207 1.378 . S
C208 C209 1.409 . S
C209 C205 1.387 . S
C209 C208 1.409 . S
C209 H211 0.951 . S
C210 C205 1.491 1_565 S
C210 C212 1.382 . S
C210 C214 1.404 . S
H211 C209 0.951 . S
C212 C210 1.382 . S
C212 C213 1.390 . S
C212 H217 0.949 . S
C213 C212 1.390 . S
C213 C218 1.399 . S
C214 C210 1.404 . S
C214 H215 0.950 . S
C214 C216 1.375 . S
H215 C214 0.950 . S
C216 C214 1.375 . S
C216 C218 1.382 . S
C216 H220 0.950 . S
H217 C212 0.949 . S
C218 C213 1.399 . S
C218 C216 1.382 . S
C218 H219 0.952 . S
H219 C218 0.952 . S
H220 C216 0.950 . S
H221 C222 0.949 . S
C222 H221 0.949 . S
C222 C223 1.395 . S
C222 C224 1.391 1_556 S
C223 C222 1.395 . S
C223 C226 1.390 1_556 S
C224 C222 1.391 1_554 S
C224 C228 1.387 . S
C224 C229 1.491 . S
H225 C226 0.950 . S
C226 C223 1.390 1_554 S
C226 H225 0.950 . S
C226 C227 1.378 . S
C227 C226 1.378 . S
C227 C228 1.409 . S
C228 C224 1.387 . S
C228 C227 1.409 . S
C228 H230 0.951 . S
C229 C224 1.491 . S
C229 C231 1.382 . S
C229 C233 1.404 . S
H230 C228 0.951 . S
C231 C229 1.382 . S
C231 C232 1.390 . S
C231 H236 0.949 1_554 S
C232 C231 1.390 . S
C232 C237 1.399 . S
C233 C229 1.404 . S
C233 H234 0.950 . S
C233 C235 1.375 . S
H234 C233 0.950 . S
C235 C233 1.375 . S
C235 C237 1.382 . S
C235 H239 0.950 . S
H236 C231 0.949 1_556 S
C237 C232 1.399 . S
C237 C235 1.382 . S
C237 H238 0.952 . S
H238 C237 0.952 . S
H239 C235 0.950 . S
C5 C151 1.442 . S
C31 C94 1.528 . S
C109 C53 1.544 . S
C71 C128 1.441 . S
C185 C75 1.442 . S
C204 C9 1.544 . S
C227 C27 1.528 . S
C170 C49 1.442 . S
C51 C113 1.453 . S
C72 C132 1.543 . S
C6 C147 1.539 . S
C90 C29 1.438 . S
C28 C223 1.438 . S
C166 C50 1.540 . S
C189 C73 1.543 . S
C7 C208 1.453 . S
C99 C4 1.277 1_556 S
C118 C30 1.597 . S
C52 C137 1.587 . S
C70 C156 1.293 . S
C175 C74 1.294 . S
C8 C194 1.587 1_554 S
C26 C213 1.597 . S
C48 C232 1.277 . S
