# Generated by pormake.
# Topology rtl, (3,6)-cn, num edge types: 1
# Building blocks:
#     Node 0, Type 0, BuildingBlock: PAMTOO_clean_linker_0, # of connection points: 3
#     Node 1, Type 0, BuildingBlock: PAMTOO_clean_linker_0, # of connection points: 3
#     Node 2, Type 0, BuildingBlock: PAMTOO_clean_linker_0, # of connection points: 3
#     Node 3, Type 0, BuildingBlock: PAMTOO_clean_linker_0, # of connection points: 3
#     Node 4, Type 1, BuildingBlock: CIFDUS_clean_sbu_1, # of connection points: 6
#     Node 5, Type 1, BuildingBlock: CIFDUS_clean_sbu_1, # of connection points: 6
#     Edge 6, Type (0, 1), None
#     Edge 7, Type (0, 1), None
#     Edge 8, Type (0, 1), None
#     Edge 9, Type (0, 1), None
#     Edge 10, Type (0, 1), None
#     Edge 11, Type (0, 1), None
#     Edge 12, Type (0, 1), None
#     Edge 13, Type (0, 1), None
#     Edge 14, Type (0, 1), None
#     Edge 15, Type (0, 1), None
#     Edge 16, Type (0, 1), None
#     Edge 17, Type (0, 1), None
# Relax obj value: 0.022
# Max RMSD: 0.096
# Mean RMSD: 0.079
data_MOF--net-rtl--node1-CIFDUS_clean_sbu_1--node2-PAMTOO_clean_linker_0--edge1-none
_symmetry_space_group_name_H-M    P1
_symmetry_Int_Tables_number       1
_symmetry_cell_setting            triclinic
loop_
_symmetry_equiv_pos_as_xyz
'x, y, z'
_cell_length_a     15.466392
_cell_length_b     15.935239
_cell_length_c     9.2381672
_cell_angle_alpha  91.877564
_cell_angle_beta   105.2252
_cell_angle_gamma 90.450032
loop_
_atom_site_label
_atom_site_type_symbol
_atom_site_fract_x
_atom_site_fract_y
_atom_site_fract_z
_atom_type_partial_charge
H0 H 0.072 0.94945 0.06308 0.0
H1 H 0.25295 0.80594 0.39468 0.0
H2 H 0.32122 0.87082 0.98869 0.0
H3 H 0.31797 0.66393 0.20252 0.0
C4 C 0.38128 0.699 0.20787 0.0
O5 O 0.37127 0.78418 0.23575 0.0
H6 H 0.43404 0.67371 0.30148 0.0
C7 C 0.13285 0.91377 0.09748 0.0
C8 C 0.19139 0.91037 1.00517 0.0
C9 C 0.15572 0.87946 0.24008 0.0
C10 C 0.23523 0.83392 0.28572 0.0
C11 C 0.2928 0.8258 0.19036 0.0
C12 C 0.27263 0.86813 0.05399 0.0
H13 H 0.60068 0.57461 0.61562 0.0
H14 H 0.81482 0.68943 0.47263 0.0
H15 H 0.7711 0.7609 0.90255 0.0
H16 H 0.9276 0.90117 0.78629 0.0
C17 C 0.87422 0.86914 0.69671 0.0
O18 O 0.87505 0.78371 0.72103 0.0
H19 H 0.80885 0.89598 0.7019 0.0
C20 C 0.65659 0.619 0.6362 0.0
C21 C 0.68067 0.66578 0.77165 0.0
C22 C 0.70257 0.62865 0.52629 0.0
C23 C 0.77578 0.68509 0.55377 0.0
C24 C 0.80082 0.73319 0.68987 0.0
C25 C 0.75247 0.72375 0.79839 0.0
H26 H 0.96256 0.0501 1.01182 0.0
H27 H 0.89579 0.28965 0.81665 0.0
H28 H 0.84716 0.23775 0.24348 0.0
H29 H 0.69986 0.31979 0.89138 0.0
C30 C 0.73694 0.36987 0.97087 0.0
O31 O 0.82635 0.34922 1.02694 0.0
H32 H 0.73217 0.42891 0.90884 0.0
C33 C 0.93182 0.11083 1.01372 0.0
C34 C 0.90305 0.13641 0.13975 0.0
C35 C 0.93153 0.16599 0.8988 0.0
C36 C 0.89392 0.24551 0.90262 0.0
C37 C 0.85895 0.27049 1.0227 0.0
C38 C 0.86717 0.21694 0.14479 0.0
H39 H 0.44772 0.51807 0.48543 0.0
H40 H 0.34532 0.33341 0.72922 0.0
H41 H 0.36955 0.27289 0.28511 0.0
H42 H 0.22148 0.13223 0.3962 0.0
C43 C 0.2296 0.18846 0.4731 0.0
O44 O 0.31821 0.21592 0.50925 0.0
H45 H 0.18347 0.2377 0.41639 0.0
C46 C 0.41545 0.4576 0.48777 0.0
C47 C 0.40924 0.39926 0.36826 0.0
C48 C 0.39421 0.43425 0.62009 0.0
C49 C 0.35942 0.35295 0.62663 0.0
C50 C 0.34524 0.2964 0.50119 0.0
C51 C 0.37154 0.31957 0.37402 0.0
O52 O 0.9815 0.09186 0.3835 0.0
Mn53 Mn 0.04639 0.02328 0.57285 0.0
O54 O 0.87618 1.00645 0.23229 0.0
Mn55 Mn 0.91377 0.90791 0.33082 0.0
O56 O 0.11051 0.95477 0.76259 0.0
O57 O 0.14585 0.11162 0.62285 0.0
Mn58 Mn 0.17367 0.1376 0.81628 0.0
O59 O 0.97589 0.0876 0.70712 0.0
O60 O 0.21489 0.04041 0.91421 0.0
O61 O 0.11507 0.95659 0.43701 0.0
O62 O 1.01597 0.8643 0.28858 0.0
O63 O 0.2473 0.20389 0.7404 0.0
O64 O 0.07157 0.18126 0.85598 0.0
C65 C 0.88908 0.88481 0.54608 0.0
C66 C 0.9165 0.0776 0.26447 0.0
C67 C 0.17574 0.96907 0.88114 0.0
C68 C 0.20677 0.16618 0.61434 0.0
C69 C 0.99371 0.14831 0.80638 0.0
C70 C 0.09485 0.89609 0.33651 0.0
O71 O 0.9477 0.93665 0.5226 0.0
O72 O 0.84241 0.84646 0.42501 0.0
O73 O 0.62412 0.59573 0.2716 0.0
Mn74 Mn 0.54853 0.53349 0.07395 0.0
O75 O 0.69484 0.49365 0.41979 0.0
Mn76 Mn 0.64823 0.40278 0.29138 0.0
O77 O 0.47309 0.47056 0.87534 0.0
O78 O 0.46165 0.62894 0.03902 0.0
Mn79 Mn 0.44142 0.66301 0.85408 0.0
O80 O 0.62635 0.59049 0.94724 0.0
O81 O 0.39646 0.57024 0.7279 0.0
O82 O 0.46886 0.47894 0.20084 0.0
O83 O 0.53779 0.36325 0.30025 0.0
O84 O 0.37021 0.72709 0.9458 0.0
O85 O 0.55154 0.70234 0.83863 0.0
C86 C 0.69494 0.3805 0.09847 0.0
C87 C 0.67747 0.57076 0.39413 0.0
C88 C 0.41877 0.49386 0.75208 0.0
C89 C 0.40605 0.68457 0.06249 0.0
C90 C 0.62142 0.65762 0.87135 0.0
C91 C 0.47059 0.41093 0.27278 0.0
O92 O 0.63644 0.43709 0.10825 0.0
O93 O 0.72178 0.33556 0.21542 0.0
loop_
_geom_bond_atom_site_label_1
_geom_bond_atom_site_label_2
_geom_bond_distance
_geom_bond_site_symmetry_2
_ccdc_geom_bond_type
H0 C7 0.929 . S
H1 C10 0.930 . S
H2 C12 0.929 . S
H3 C4 0.969 . S
C4 H3 0.969 . S
C4 O5 1.550 . S
C4 H6 0.973 . S
O5 C4 1.550 . S
O5 C11 1.412 . S
H6 C4 0.973 . S
C7 H0 0.929 . S
C7 C8 1.400 1_554 S
C7 C9 1.364 . S
C8 C7 1.400 1_556 S
C8 C12 1.377 . S
C9 C7 1.364 . S
C9 C10 1.374 . S
C10 H1 0.930 . S
C10 C9 1.374 . S
C10 C11 1.383 . S
C11 O5 1.412 . S
C11 C10 1.383 . S
C11 C12 1.394 1_554 S
C12 H2 0.929 . S
C12 C8 1.377 . S
C12 C11 1.394 1_556 S
H13 C20 0.929 . S
H14 C23 0.930 . S
H15 C25 0.929 . S
H16 C17 0.969 . S
C17 H16 0.969 . S
C17 O18 1.550 . S
C17 H19 0.973 . S
O18 C17 1.550 . S
O18 C24 1.412 . S
H19 C17 0.973 . S
C20 H13 0.929 . S
C20 C21 1.400 . S
C20 C22 1.364 . S
C21 C20 1.400 . S
C21 C25 1.377 . S
C22 C20 1.364 . S
C22 C23 1.374 . S
C23 H14 0.930 . S
C23 C22 1.374 . S
C23 C24 1.383 . S
C24 O18 1.412 . S
C24 C23 1.383 . S
C24 C25 1.394 . S
C25 H15 0.929 . S
C25 C21 1.377 . S
C25 C24 1.394 . S
H26 C33 0.929 1_556 S
H27 C36 0.930 . S
H28 C38 0.929 . S
H29 C30 0.969 . S
C30 H29 0.969 . S
C30 O31 1.550 1_556 S
C30 H32 0.973 . S
O31 C30 1.550 1_554 S
O31 C37 1.412 . S
H32 C30 0.973 . S
C33 H26 0.929 1_554 S
C33 C34 1.400 . S
C33 C35 1.364 1_554 S
C34 C33 1.400 . S
C34 C38 1.377 . S
C35 C33 1.364 1_556 S
C35 C36 1.374 . S
C36 H27 0.930 . S
C36 C35 1.374 . S
C36 C37 1.383 1_556 S
C37 O31 1.412 . S
C37 C36 1.383 1_554 S
C37 C38 1.394 . S
C38 H28 0.929 . S
C38 C34 1.377 . S
C38 C37 1.394 . S
H39 C46 0.929 . S
H40 C49 0.930 . S
H41 C51 0.929 . S
H42 C43 0.969 . S
C43 H42 0.969 . S
C43 O44 1.550 . S
C43 H45 0.973 . S
O44 C43 1.550 . S
O44 C50 1.412 . S
H45 C43 0.973 . S
C46 H39 0.929 . S
C46 C47 1.400 . S
C46 C48 1.364 . S
C47 C46 1.400 . S
C47 C51 1.377 . S
C48 C46 1.364 . S
C48 C49 1.374 . S
C49 H40 0.930 . S
C49 C48 1.374 . S
C49 C50 1.383 . S
C50 O44 1.412 . S
C50 C49 1.383 . S
C50 C51 1.394 . S
C51 H41 0.929 . S
C51 C47 1.377 . S
C51 C50 1.394 . S
O52 Mn53 2.163 1_655 S
O52 C66 1.244 . S
Mn53 O52 2.163 1_455 S
Mn53 O56 2.160 1_545 S
Mn53 O57 2.221 . S
Mn53 O59 2.163 1_455 S
Mn53 O61 2.160 1_545 S
Mn53 O71 2.221 1_445 S
O54 Mn55 2.087 1_545 S
O54 C66 1.256 . S
Mn55 O54 2.087 1_565 S
Mn55 O62 2.089 1_655 S
Mn55 O71 2.290 . S
Mn55 O72 2.251 . S
O56 Mn53 2.160 1_565 S
O56 C67 1.239 . S
O57 Mn53 2.221 . S
O57 Mn58 2.290 . S
O57 C68 1.278 . S
Mn58 O57 2.290 . S
Mn58 O60 2.089 . S
Mn58 O63 2.251 . S
Mn58 O64 2.087 . S
O59 Mn53 2.163 1_655 S
O59 C69 1.244 . S
O60 Mn58 2.089 . S
O60 C67 1.256 1_545 S
O61 Mn53 2.160 1_565 S
O61 C70 1.239 . S
O62 Mn55 2.089 1_455 S
O62 C70 1.256 . S
O63 Mn58 2.251 . S
O63 C68 1.241 . S
O64 Mn58 2.087 . S
O64 C69 1.256 1_455 S
C65 O71 1.278 . S
C65 O72 1.241 . S
C66 O52 1.244 . S
C66 O54 1.256 . S
C67 O56 1.239 . S
C67 O60 1.256 1_565 S
C68 O57 1.278 . S
C68 O63 1.241 . S
C69 O59 1.244 . S
C69 O64 1.256 1_655 S
C70 O61 1.239 . S
C70 O62 1.256 . S
O71 Mn53 2.221 1_665 S
O71 Mn55 2.290 . S
O71 C65 1.278 . S
O72 Mn55 2.251 . S
O72 C65 1.241 . S
O73 Mn74 2.163 . S
O73 C87 1.244 . S
Mn74 O73 2.163 . S
Mn74 O77 2.160 1_554 S
Mn74 O78 2.221 1_554 S
Mn74 O80 2.163 1_554 S
Mn74 O82 2.160 . S
Mn74 O92 2.221 . S
O75 Mn76 2.087 . S
O75 C87 1.256 . S
Mn76 O75 2.087 . S
Mn76 O83 2.089 . S
Mn76 O92 2.290 . S
Mn76 O93 2.251 . S
O77 Mn74 2.160 1_556 S
O77 C88 1.239 . S
O78 Mn74 2.221 1_556 S
O78 Mn79 2.290 . S
O78 C89 1.278 1_556 S
Mn79 O78 2.290 . S
Mn79 O81 2.089 . S
Mn79 O84 2.251 . S
Mn79 O85 2.087 . S
O80 Mn74 2.163 1_556 S
O80 C90 1.244 . S
O81 Mn79 2.089 . S
O81 C88 1.256 . S
O82 Mn74 2.160 . S
O82 C91 1.239 . S
O83 Mn76 2.089 . S
O83 C91 1.256 . S
O84 Mn79 2.251 . S
O84 C89 1.241 1_556 S
O85 Mn79 2.087 . S
O85 C90 1.256 . S
C86 O92 1.278 . S
C86 O93 1.241 . S
C87 O73 1.244 . S
C87 O75 1.256 . S
C88 O77 1.239 . S
C88 O81 1.256 . S
C89 O78 1.278 1_554 S
C89 O84 1.241 1_554 S
C90 O80 1.244 . S
C90 O85 1.256 . S
C91 O82 1.239 . S
C91 O83 1.256 . S
O92 Mn74 2.221 . S
O92 Mn76 2.290 . S
O92 C86 1.278 . S
O93 Mn76 2.251 . S
O93 C86 1.241 . S
C68 C43 1.047 . S
C4 C89 1.616 . S
C17 C65 1.152 . S
C30 C86 1.695 1_556 S
C70 C9 1.433 . S
C90 C21 1.499 . S
C34 C66 1.569 . S
C48 C88 1.352 . S
C87 C22 1.504 . S
C69 C35 1.483 . S
C91 C47 1.430 . S
C8 C67 1.391 . S
