# Generated by pormake.
# Topology zzz, (3,6)-cn, num edge types: 1
# Building blocks:
#     Node 0, Type 0, BuildingBlock: ESEHIV_clean_linker_0, # of connection points: 3
#     Node 1, Type 0, BuildingBlock: ESEHIV_clean_linker_0, # of connection points: 3
#     Node 2, Type 0, BuildingBlock: ESEHIV_clean_linker_0, # of connection points: 3
#     Node 3, Type 0, BuildingBlock: ESEHIV_clean_linker_0, # of connection points: 3
#     Node 4, Type 0, BuildingBlock: ESEHIV_clean_linker_0, # of connection points: 3
#     Node 5, Type 0, BuildingBlock: ESEHIV_clean_linker_0, # of connection points: 3
#     Node 6, Type 0, BuildingBlock: ESEHIV_clean_linker_0, # of connection points: 3
#     Node 7, Type 0, BuildingBlock: ESEHIV_clean_linker_0, # of connection points: 3
#     Node 8, Type 1, BuildingBlock: FUNLAD_clean_sbu_0, # of connection points: 6
#     Node 9, Type 1, BuildingBlock: FUNLAD_clean_sbu_0, # of connection points: 6
#     Node 10, Type 1, BuildingBlock: FUNLAD_clean_sbu_0, # of connection points: 6
#     Node 11, Type 1, BuildingBlock: FUNLAD_clean_sbu_0, # of connection points: 6
#     Edge 12, Type (0, 1), None
#     Edge 13, Type (0, 1), None
#     Edge 14, Type (0, 1), None
#     Edge 15, Type (0, 1), None
#     Edge 16, Type (0, 1), None
#     Edge 17, Type (0, 1), None
#     Edge 18, Type (0, 1), None
#     Edge 19, Type (0, 1), None
#     Edge 20, Type (0, 1), None
#     Edge 21, Type (0, 1), None
#     Edge 22, Type (0, 1), None
#     Edge 23, Type (0, 1), None
#     Edge 24, Type (0, 1), None
#     Edge 25, Type (0, 1), None
#     Edge 26, Type (0, 1), None
#     Edge 27, Type (0, 1), None
#     Edge 28, Type (0, 1), None
#     Edge 29, Type (0, 1), None
#     Edge 30, Type (0, 1), None
#     Edge 31, Type (0, 1), None
#     Edge 32, Type (0, 1), None
#     Edge 33, Type (0, 1), None
#     Edge 34, Type (0, 1), None
#     Edge 35, Type (0, 1), None
# Relax obj value: 0.254
# Max RMSD: 0.293
# Mean RMSD: 0.213
data_MOF--net-zzz--node1-FUNLAD_clean_sbu_0--node2-ESEHIV_clean_linker_0--edge1-none
_symmetry_space_group_name_H-M    P1
_symmetry_Int_Tables_number       1
_symmetry_cell_setting            triclinic
loop_
_symmetry_equiv_pos_as_xyz
'x, y, z'
_cell_length_a     18.146635
_cell_length_b     24.154018
_cell_length_c     8.2557211
_cell_angle_alpha  79.853187
_cell_angle_beta   77.751379
_cell_angle_gamma 91.259169
loop_
_atom_site_label
_atom_site_type_symbol
_atom_site_fract_x
_atom_site_fract_y
_atom_site_fract_z
_atom_type_partial_charge
H0 H 1.05491 0.46029 0.4697 0.0
H1 H 0.89273 0.40031 0.24948 0.0
H2 H 0.83597 0.52789 0.56091 0.0
C3 C 0.99551 0.45778 0.46553 0.0
C4 C 0.94218 0.48601 0.56719 0.0
C5 C 0.97723 0.43511 0.33649 0.0
C6 C 0.90235 0.42538 0.34023 0.0
C7 C 0.85426 0.46758 0.38555 0.0
C8 C 0.87278 0.49732 0.51142 0.0
H9 H 1.05585 0.91426 0.3897 0.0
H10 H 0.1325 0.82576 -0.00654 0.0
H11 H 0.96426 0.74524 0.43231 0.0
C12 C 1.05528 0.87543 0.34107 0.0
C13 C 1.00422 0.83036 0.42755 0.0
C14 C 0.10222 0.87369 0.18874 0.0
C15 C 0.0991 0.82476 0.1189 0.0
C16 C 1.0484 0.77772 0.20145 0.0
C17 C 1.00153 0.78079 0.36039 0.0
H18 H 0.65987 0.0644 0.33495 0.0
H19 H 0.84344 0.05535 0.92675 0.0
H20 H 0.87551 1.01566 0.43759 0.0
C21 C 0.71996 0.05971 0.29234 0.0
C22 C 0.76309 0.04055 0.40939 0.0
C23 C 0.74833 0.06342 0.12191 0.0
C24 C 0.82379 0.0537 0.06131 0.0
C25 C 0.87236 0.03815 0.17118 0.0
C26 C 0.84096 0.03032 0.34925 0.0
H27 H 0.57473 0.56026 0.37966 0.0
H28 H 0.67465 0.71793 0.43092 0.0
H29 H 0.56873 0.7063 0.01269 0.0
C30 C 0.58761 0.60506 0.33599 0.0
C31 C 0.56637 0.63037 0.18892 0.0
C32 C 0.62763 0.63527 0.42432 0.0
C33 C 0.64573 0.69346 0.36253 0.0
C34 C 0.62439 0.71972 0.21219 0.0
C35 C 0.58377 0.68756 0.12974 0.0
H36 H 0.13062 0.5738 0.26061 0.0
H37 H 0.29278 0.63383 0.48078 0.0
H38 H 0.34958 0.50622 0.16944 0.0
C39 C 0.19002 0.57631 0.26479 0.0
C40 C 0.24336 0.54809 0.16313 0.0
C41 C 0.2083 0.599 0.39381 0.0
C42 C 0.28317 0.60874 0.39006 0.0
C43 C 0.33127 0.56653 0.34478 0.0
C44 C 0.31275 0.53678 0.21892 0.0
H45 H 0.12983 0.11983 0.34066 0.0
H46 H 1.05314 0.20833 0.73689 0.0
H47 H 0.2214 0.28885 0.2981 0.0
C48 C 0.13039 0.15866 0.3893 0.0
C49 C 0.18145 0.20373 0.30283 0.0
C50 C 0.08344 0.1604 0.54162 0.0
C51 C 0.08655 0.20933 0.61146 0.0
C52 C 0.13725 0.25637 0.52893 0.0
C53 C 0.18414 0.2533 0.37 0.0
H54 H 0.52581 0.96969 0.39539 0.0
H55 H 0.34224 0.97874 0.80359 0.0
H56 H 0.31017 0.01843 0.29276 0.0
C57 C 0.46572 0.97438 0.438 0.0
C58 C 0.42259 0.99354 0.32096 0.0
C59 C 0.43735 0.97067 0.60843 0.0
C60 C 0.36189 0.98039 0.66903 0.0
C61 C 0.31332 0.99594 0.55917 0.0
C62 C 0.34472 1.00377 0.3811 0.0
H63 H 0.61078 0.47384 0.35074 0.0
H64 H 0.51095 0.31615 0.29941 0.0
H65 H 0.61689 0.3278 0.7176 0.0
C66 C 0.59792 0.42903 0.39438 0.0
C67 C 0.61919 0.40373 0.54142 0.0
C68 C 0.55792 0.39883 0.30604 0.0
C69 C 0.53985 0.34062 0.36781 0.0
C70 C 0.56121 0.31437 0.51813 0.0
C71 C 0.60183 0.34653 0.60058 0.0
C72 C 0.12436 0.92863 0.07973 0.0
N73 N 1.01532 0.92875 0.70986 0.0
C74 C 1.05014 0.87914 0.73144 0.0
C75 C 1.01879 0.82985 0.70147 0.0
C76 C 0.96631 0.8362 0.59935 0.0
C77 C 0.92072 0.88274 0.60912 0.0
C78 C 0.94711 0.92955 0.6658 0.0
Zn79 Zn 0.06713 0.99588 0.77902 0.0
C80 C 0.95182 0.02673 0.08819 0.0
N81 N 0.17036 0.10534 0.02046 0.0
C82 C 0.23856 0.10454 0.06459 0.0
C83 C 0.13555 0.15496 -0.00111 0.0
C84 C 0.1669 0.20425 0.02889 0.0
C85 C 0.21937 0.19789 0.13104 0.0
C86 C 0.26496 0.15134 0.12128 0.0
Zn87 Zn 0.11855 0.0382 0.95133 0.0
O88 O 0.09458 0.93556 0.95473 0.0
C89 C 0.23386 1.00736 0.64216 0.0
O90 O 0.14556 0.97191 0.13146 0.0
H91 H 0.08008 0.15616 -0.0281 0.0
H92 H 0.10562 0.87795 0.75841 0.0
H93 H 0.26914 0.06667 0.06749 0.0
O94 O 0.17544 0.98789 0.60285 0.0
O95 O 0.22426 0.0289 0.77556 0.0
H96 H 0.91651 0.96741 0.66293 0.0
O97 O 0.0911 0.09853 0.77563 0.0
O98 O 1.04012 0.06218 0.5989 0.0
O99 O 1.01024 0.0462 0.1275 0.0
O100 O 0.96142 1.00518 0.95479 0.0
C101 C 0.06131 0.10545 0.65064 0.0
H102 H 1.05217 0.79312 0.70664 0.0
H103 H 0.87457 0.88738 0.54432 0.0
H104 H 0.13352 0.24098 0.02372 0.0
H105 H 0.31108 0.14666 0.18614 0.0
C106 C 0.49192 0.97993 0.70676 0.0
N107 N 0.55385 0.1419 0.74327 0.0
C108 C 0.56499 0.15619 0.57195 0.0
C109 C 0.56135 0.2121 0.49374 0.0
C110 C 0.54464 0.25345 0.59322 0.0
C111 C 0.52507 0.23621 0.77015 0.0
C112 C 0.53133 0.18024 0.84283 0.0
Zn113 Zn 0.57725 0.0619 0.84624 0.0
C114 C 0.46786 1.0056 0.14328 0.0
N115 N 0.63183 0.89219 -0.01294 0.0
C116 C 0.65432 0.85385 0.88749 0.0
C117 C 0.62068 0.8779 0.15837 0.0
C118 C 0.62431 0.82198 0.23658 0.0
C119 C 0.64099 0.78064 0.1371 0.0
C120 C 0.66056 0.79788 0.96017 0.0
Zn121 Zn 0.60843 0.97219 0.88409 0.0
O122 O 0.50354 0.03031 0.72299 0.0
C123 C 0.71781 0.02849 0.58706 0.0
O124 O 0.53375 0.94173 0.75447 0.0
H125 H 0.60534 0.90936 0.23557 0.0
H126 H 0.58035 0.12473 0.49476 0.0
H127 H 0.66427 0.86609 0.75181 0.0
O128 O 0.67337 0.06586 0.63342 0.0
O129 O 0.7036 0.97817 0.66876 0.0
H130 H 0.52138 0.168 -0.02149 0.0
O131 O 0.68213 1.00378 0.00735 0.0
O132 O 0.65193 0.09236 -0.02413 0.0
O133 O 0.5123 0.96823 0.09692 0.0
O134 O 0.48208 0.05592 0.06158 0.0
C135 C 0.69376 0.05416 0.02358 0.0
H136 H 0.5765 0.22331 0.35744 0.0
H137 H 0.50984 0.2665 0.8521 0.0
H138 H 0.60915 0.81078 0.37288 0.0
H139 H 0.67578 0.76758 0.87821 0.0
C140 C 0.62444 0.43958 0.66378 0.0
N141 N 0.43383 0.51833 0.77143 0.0
C142 C 0.4142 0.47747 0.68908 0.0
C143 C 0.38694 0.49168 0.53886 0.0
C144 C 0.38152 0.54849 0.46839 0.0
C145 C 0.40618 0.58893 0.55356 0.0
C146 C 0.42471 0.57314 0.71033 0.0
Zn147 Zn 0.52907 0.51251 0.88436 0.0
C148 C 0.55036 0.4299 0.13835 0.0
N149 N 0.75179 0.51586 0.9588 0.0
C150 C 0.76081 0.46103 0.01999 0.0
C151 C 0.77141 0.55669 0.04125 0.0
C152 C 0.79863 0.54246 0.19151 0.0
C153 C 0.80401 0.48564 0.26196 0.0
C154 C 0.77932 0.44522 0.17678 0.0
Zn155 Zn 0.6565 0.52159 0.84599 0.0
O156 O 0.56177 0.45474 0.73541 0.0
C157 C 0.6352 0.60419 0.59201 0.0
O158 O 0.68599 0.46049 0.68565 0.0
H159 H 0.7617 0.60025 -0.00249 0.0
H160 H 0.42392 0.43391 0.73284 0.0
H161 H 0.74274 0.42844 0.9598 0.0
O162 O 0.57495 0.57769 0.67912 0.0
O163 O 0.69771 0.59029 0.63096 0.0
H164 H 0.44278 0.60574 0.77048 0.0
O165 O 0.6238 0.57936 -0.00509 0.0
O166 O 0.49958 0.57359 0.04472 0.0
O167 O 0.61061 0.45641 0.05126 0.0
O168 O 0.48785 0.4438 0.09937 0.0
C169 C 0.56113 0.59451 0.06656 0.0
H170 H 0.3707 0.45858 0.47826 0.0
H171 H 0.40872 0.63356 0.50225 0.0
H172 H 0.81487 0.57555 0.25214 0.0
H173 H 0.77677 0.40058 0.22806 0.0
C174 C 0.16547 0.57383 0.56018 0.0
N175 N 0.14465 0.40051 0.77276 0.0
C176 C 0.20716 0.39013 0.6607 0.0
C177 C 0.20718 0.343 0.58091 0.0
C178 C 0.14135 0.30679 0.61291 0.0
C179 C 0.07832 0.31898 0.73017 0.0
C180 C 0.0817 0.36481 0.81033 0.0
Zn181 Zn 0.12326 0.47687 0.85747 0.0
C182 C 0.21354 0.53006 0.02095 0.0
N183 N 1.04088 0.6336 0.95752 0.0
C184 C 0.10385 0.66929 0.91993 0.0
C185 C 0.97842 0.64396 0.06974 0.0
C186 C 0.97844 0.69109 0.14956 0.0
C187 C 1.04427 0.7273 0.11746 0.0
C188 C 0.10727 0.71512 0.00011 0.0
Zn189 Zn 0.06228 0.55724 0.87284 0.0
O190 O 0.17952 0.5241 0.62383 0.0
C191 C 0.97201 0.50404 0.70935 0.0
O192 O 0.11826 0.60154 0.64277 0.0
H193 H 0.92975 0.6147 0.10194 0.0
H194 H 0.25584 0.41939 0.6286 0.0
H195 H 0.15435 0.66031 0.8352 0.0
O196 O 1.02526 0.47511 0.75129 0.0
O197 O 0.96312 0.55149 0.75678 0.0
H198 H 1.03118 0.37379 0.895 0.0
O199 O 1.00603 0.51001 0.10649 0.0
O200 O 0.06727 0.43257 0.08753 0.0
O201 O 0.1603 0.55901 -0.021 0.0
O202 O 0.22242 0.48261 -0.02645 0.0
C203 C 1.02006 0.46028 0.17012 0.0
H204 H 0.25801 0.3357 0.49371 0.0
H205 H 1.02494 0.29473 0.75717 0.0
H206 H 0.92763 0.69837 0.23684 0.0
H207 H 0.16065 0.73936 -0.02694 0.0
loop_
_geom_bond_atom_site_label_1
_geom_bond_atom_site_label_2
_geom_bond_distance
_geom_bond_site_symmetry_2
_ccdc_geom_bond_type
H0 C3 0.931 1_455 S
H1 C6 0.928 . S
H2 C8 0.930 . S
C3 H0 0.931 1_655 S
C3 C4 1.413 . S
C3 C5 1.360 . S
C4 C3 1.413 . S
C4 C8 1.429 . S
C5 C3 1.360 . S
C5 C6 1.372 . S
C6 H1 0.928 . S
C6 C5 1.372 . S
C6 C7 1.404 . S
C7 C6 1.404 . S
C7 C8 1.391 . S
C8 H2 0.930 . S
C8 C4 1.429 . S
C8 C7 1.391 . S
H9 C12 0.931 . S
H10 C15 0.928 . S
H11 C17 0.930 . S
C12 H9 0.931 . S
C12 C13 1.413 . S
C12 C14 1.360 1_554 S
C13 C12 1.413 . S
C13 C17 1.429 . S
C14 C12 1.360 1_556 S
C14 C15 1.372 . S
C15 H10 0.928 . S
C15 C14 1.372 . S
C15 C16 1.404 . S
C16 C15 1.404 . S
C16 C17 1.391 1_556 S
C17 H11 0.930 . S
C17 C13 1.429 . S
C17 C16 1.391 1_554 S
H18 C21 0.930 . S
H19 C24 0.928 1_556 S
H20 C26 0.931 . S
C21 H18 0.930 . S
C21 C22 1.412 . S
C21 C23 1.360 . S
C22 C21 1.412 . S
C22 C26 1.430 1_565 S
C23 C21 1.360 . S
C23 C24 1.373 . S
C24 H19 0.928 1_554 S
C24 C23 1.373 . S
C24 C25 1.406 . S
C25 C24 1.406 . S
C25 C26 1.387 1_565 S
C26 H20 0.931 . S
C26 C22 1.430 1_545 S
C26 C25 1.387 1_545 S
H27 C30 0.931 . S
H28 C33 0.928 . S
H29 C35 0.930 1_556 S
C30 H27 0.931 . S
C30 C31 1.413 . S
C30 C32 1.360 . S
C31 C30 1.413 . S
C31 C35 1.429 . S
C32 C30 1.360 . S
C32 C33 1.372 . S
C33 H28 0.928 . S
C33 C32 1.372 . S
C33 C34 1.404 . S
C34 C33 1.404 . S
C34 C35 1.391 . S
C35 H29 0.930 1_554 S
C35 C31 1.429 . S
C35 C34 1.391 . S
H36 C39 0.931 . S
H37 C42 0.928 . S
H38 C44 0.930 . S
C39 H36 0.931 . S
C39 C40 1.413 . S
C39 C41 1.360 . S
C40 C39 1.413 . S
C40 C44 1.429 . S
C41 C39 1.360 . S
C41 C42 1.372 . S
C42 H37 0.928 . S
C42 C41 1.372 . S
C42 C43 1.404 . S
C43 C42 1.404 . S
C43 C44 1.391 . S
C44 H38 0.930 . S
C44 C40 1.429 . S
C44 C43 1.391 . S
H45 C48 0.931 . S
H46 C51 0.928 1_554 S
H47 C53 0.930 . S
C48 H45 0.931 . S
C48 C49 1.413 . S
C48 C50 1.360 . S
C49 C48 1.413 . S
C49 C53 1.429 . S
C50 C48 1.360 . S
C50 C51 1.372 . S
C51 H46 0.928 1_556 S
C51 C50 1.372 . S
C51 C52 1.404 . S
C52 C51 1.404 . S
C52 C53 1.391 . S
C53 H47 0.930 . S
C53 C49 1.429 . S
C53 C52 1.391 . S
H54 C57 0.930 . S
H55 C60 0.928 . S
H56 C62 0.930 . S
C57 H54 0.930 . S
C57 C58 1.414 . S
C57 C59 1.360 . S
C58 C57 1.414 . S
C58 C62 1.428 1_565 S
C59 C57 1.360 . S
C59 C60 1.371 . S
C60 H55 0.928 . S
C60 C59 1.371 . S
C60 C61 1.403 . S
C61 C60 1.403 . S
C61 C62 1.393 1_565 S
C62 H56 0.930 . S
C62 C58 1.428 1_545 S
C62 C61 1.393 1_545 S
H63 C66 0.931 . S
H64 C69 0.928 . S
H65 C71 0.930 . S
C66 H63 0.931 . S
C66 C67 1.413 . S
C66 C68 1.360 . S
C67 C66 1.413 . S
C67 C71 1.429 . S
C68 C66 1.360 . S
C68 C69 1.372 . S
C69 H64 0.928 . S
C69 C68 1.372 . S
C69 C70 1.404 . S
C70 C69 1.404 . S
C70 C71 1.391 . S
C71 H65 0.930 . S
C71 C67 1.429 . S
C71 C70 1.391 . S
C72 O88 1.253 1_554 S
C72 O90 1.254 . S
N73 C74 1.333 . S
N73 C78 1.307 1_465 S
N73 Zn79 2.020 . S
C74 N73 1.333 . S
C74 C75 1.379 1_455 S
C74 H92 0.952 . S
C75 C74 1.379 1_655 S
C75 C76 1.390 . S
C75 H102 0.950 . S
C76 C75 1.390 . S
C76 C77 1.357 1_565 S
C77 C76 1.357 1_545 S
C77 C78 1.370 . S
C77 H103 0.950 . S
C78 N73 1.307 1_645 S
C78 C77 1.370 . S
C78 H96 0.948 . S
Zn79 N73 2.020 . S
Zn79 O88 2.040 . S
Zn79 O94 2.034 . S
Zn79 O98 2.025 1_565 S
Zn79 O100 2.024 1_465 S
C80 O99 1.246 1_556 S
C80 O100 1.249 . S
N81 C82 1.307 1_545 S
N81 C83 1.333 . S
N81 Zn87 2.020 . S
C82 N81 1.307 1_565 S
C82 C86 1.370 . S
C82 H93 0.948 . S
C83 N81 1.333 . S
C83 C84 1.379 . S
C83 H91 0.952 . S
C84 C83 1.379 . S
C84 C85 1.390 . S
C84 H104 0.949 . S
C85 C84 1.390 . S
C85 C86 1.357 1_545 S
C86 C82 1.370 . S
C86 C85 1.357 1_565 S
C86 H105 0.950 . S
Zn87 N81 2.020 . S
Zn87 O90 2.025 1_545 S
Zn87 O95 2.024 1_544 S
Zn87 O97 2.039 1_554 S
Zn87 O99 2.034 1_455 S
O88 C72 1.253 1_556 S
O88 Zn79 2.040 . S
C89 O94 1.246 . S
C89 O95 1.249 . S
O90 C72 1.254 . S
O90 Zn87 2.025 1_565 S
H91 C83 0.952 . S
H92 C74 0.952 . S
H93 C82 0.948 . S
O94 Zn79 2.034 . S
O94 C89 1.246 . S
O95 Zn87 2.024 1_566 S
O95 C89 1.249 . S
H96 C78 0.948 . S
O97 Zn87 2.039 1_556 S
O97 C101 1.251 . S
O98 Zn79 2.025 1_545 S
O98 C101 1.254 . S
O99 C80 1.246 1_554 S
O99 Zn87 2.034 1_655 S
O100 Zn79 2.024 1_645 S
O100 C80 1.249 . S
C101 O97 1.251 . S
C101 O98 1.254 . S
H102 C75 0.950 . S
H103 C77 0.950 . S
H104 C84 0.949 . S
H105 C86 0.950 . S
C106 O122 1.251 1_565 S
C106 O124 1.254 . S
N107 C108 1.333 . S
N107 C112 1.307 . S
N107 Zn113 2.020 . S
C108 N107 1.333 . S
C108 C109 1.379 . S
C108 H126 0.952 . S
C109 C108 1.379 . S
C109 C110 1.390 . S
C109 H136 0.949 . S
C110 C109 1.390 . S
C110 C111 1.357 . S
C111 C110 1.357 . S
C111 C112 1.370 . S
C111 H137 0.950 . S
C112 N107 1.307 . S
C112 C111 1.370 . S
C112 H130 0.948 . S
Zn113 N107 2.020 . S
Zn113 O122 2.039 . S
Zn113 O128 2.034 . S
Zn113 O132 2.025 . S
Zn113 O134 2.024 1_556 S
C114 O133 1.246 1_545 S
C114 O134 1.249 . S
N115 C116 1.307 1_554 S
N115 C117 1.333 . S
N115 Zn121 2.020 1_554 S
C116 N115 1.307 1_556 S
C116 C120 1.370 . S
C116 H127 0.948 . S
C117 N115 1.333 . S
C117 C118 1.379 . S
C117 H125 0.952 . S
C118 C117 1.379 . S
C118 C119 1.390 . S
C118 H138 0.949 . S
C119 C118 1.390 . S
C119 C120 1.357 1_554 S
C120 C116 1.370 . S
C120 C119 1.357 1_556 S
C120 H139 0.950 . S
Zn121 N115 2.020 1_556 S
Zn121 O124 2.025 . S
Zn121 O129 2.024 . S
Zn121 O131 2.039 1_556 S
Zn121 O133 2.034 1_556 S
O122 C106 1.251 1_545 S
O122 Zn113 2.039 . S
C123 O128 1.246 1_565 S
C123 O129 1.249 . S
O124 C106 1.254 . S
O124 Zn121 2.025 . S
H125 C117 0.952 . S
H126 C108 0.952 . S
H127 C116 0.948 . S
O128 Zn113 2.034 . S
O128 C123 1.246 1_545 S
O129 Zn121 2.024 . S
O129 C123 1.249 . S
H130 C112 0.948 . S
O131 Zn121 2.039 1_554 S
O131 C135 1.251 1_565 S
O132 Zn113 2.025 . S
O132 C135 1.254 1_556 S
O133 C114 1.246 1_565 S
O133 Zn121 2.034 1_554 S
O134 Zn113 2.024 1_554 S
O134 C114 1.249 . S
C135 O131 1.251 1_545 S
C135 O132 1.254 1_554 S
H136 C109 0.949 . S
H137 C111 0.950 . S
H138 C118 0.949 . S
H139 C120 0.950 . S
C140 O156 1.251 . S
C140 O158 1.254 . S
N141 C142 1.333 . S
N141 C146 1.307 . S
N141 Zn147 2.020 . S
C142 N141 1.333 . S
C142 C143 1.379 . S
C142 H160 0.952 . S
C143 C142 1.379 . S
C143 C144 1.390 . S
C143 H170 0.949 . S
C144 C143 1.390 . S
C144 C145 1.357 . S
C145 C144 1.357 . S
C145 C146 1.370 . S
C145 H171 0.950 1_556 S
C146 N141 1.307 . S
C146 C145 1.370 . S
C146 H164 0.948 1_556 S
Zn147 N141 2.020 . S
Zn147 O156 2.039 . S
Zn147 O162 2.034 . S
Zn147 O166 2.025 1_556 S
Zn147 O168 2.024 1_556 S
C148 O167 1.246 . S
C148 O168 1.249 . S
N149 C150 1.307 . S
N149 C151 1.333 1_556 S
N149 Zn155 2.020 . S
C150 N149 1.307 . S
C150 C154 1.370 . S
C150 H161 0.948 . S
C151 N149 1.333 1_554 S
C151 C152 1.379 . S
C151 H159 0.952 . S
C152 C151 1.379 . S
C152 C153 1.390 . S
C152 H172 0.949 . S
C153 C152 1.390 . S
C153 C154 1.357 1_554 S
C154 C150 1.370 . S
C154 C153 1.357 1_556 S
C154 H173 0.950 . S
Zn155 N149 2.020 . S
Zn155 O158 2.025 . S
Zn155 O163 2.024 . S
Zn155 O165 2.039 1_556 S
Zn155 O167 2.034 1_556 S
O156 C140 1.251 . S
O156 Zn147 2.039 . S
C157 O162 1.246 . S
C157 O163 1.249 . S
O158 C140 1.254 . S
O158 Zn155 2.025 . S
H159 C151 0.952 . S
H160 C142 0.952 . S
H161 C150 0.948 . S
O162 Zn147 2.034 . S
O162 C157 1.246 . S
O163 Zn155 2.024 . S
O163 C157 1.249 . S
H164 C146 0.948 1_554 S
O165 Zn155 2.039 1_554 S
O165 C169 1.251 . S
O166 Zn147 2.025 1_554 S
O166 C169 1.254 . S
O167 C148 1.246 . S
O167 Zn155 2.034 1_554 S
O168 Zn147 2.024 1_554 S
O168 C148 1.249 . S
C169 O165 1.251 . S
C169 O166 1.254 . S
H170 C143 0.949 . S
H171 C145 0.950 1_554 S
H172 C152 0.949 . S
H173 C154 0.950 . S
C174 O190 1.251 . S
C174 O192 1.254 . S
N175 C176 1.333 . S
N175 C180 1.307 1_556 S
N175 Zn181 2.020 . S
C176 N175 1.333 . S
C176 C177 1.379 . S
C176 H194 0.952 . S
C177 C176 1.379 . S
C177 C178 1.390 . S
C177 H204 0.949 . S
C178 C177 1.390 . S
C178 C179 1.357 1_556 S
C179 C178 1.357 1_554 S
C179 C180 1.370 . S
C179 H205 0.950 . S
C180 N175 1.307 1_554 S
C180 C179 1.370 . S
C180 H198 0.948 . S
Zn181 N175 2.020 . S
Zn181 O190 2.039 . S
Zn181 O196 2.034 1_455 S
Zn181 O200 2.025 1_456 S
Zn181 O202 2.024 1_556 S
C182 O201 1.246 . S
C182 O202 1.249 . S
N183 C184 1.307 . S
N183 C185 1.333 1_456 S
N183 Zn189 2.020 . S
C184 N183 1.307 . S
C184 C188 1.370 . S
C184 H195 0.948 . S
C185 N183 1.333 1_654 S
C185 C186 1.379 . S
C185 H193 0.952 . S
C186 C185 1.379 . S
C186 C187 1.390 1_554 S
C186 H206 0.949 . S
C187 C186 1.390 1_556 S
C187 C188 1.357 1_655 S
C188 C184 1.370 . S
C188 C187 1.357 1_455 S
C188 H207 0.950 . S
Zn189 N183 2.020 . S
Zn189 O192 2.025 . S
Zn189 O197 2.024 1_455 S
Zn189 O199 2.039 1_456 S
Zn189 O201 2.034 1_556 S
O190 C174 1.251 . S
O190 Zn181 2.039 . S
C191 O196 1.246 . S
C191 O197 1.249 . S
O192 C174 1.254 . S
O192 Zn189 2.025 . S
H193 C185 0.952 . S
H194 C176 0.952 . S
H195 C184 0.948 . S
O196 Zn181 2.034 1_655 S
O196 C191 1.246 . S
O197 Zn189 2.024 1_655 S
O197 C191 1.249 . S
H198 C180 0.948 . S
O199 Zn189 2.039 1_654 S
O199 C203 1.251 . S
O200 Zn181 2.025 1_654 S
O200 C203 1.254 . S
O201 C182 1.246 . S
O201 Zn189 2.034 1_554 S
O202 Zn181 2.024 1_554 S
O202 C182 1.249 . S
C203 O199 1.251 . S
C203 O200 1.254 . S
H204 C177 0.949 . S
H205 C179 0.950 . S
H206 C186 0.949 . S
H207 C188 0.950 . S
C61 C89 2.302 . S
C110 C70 1.567 . S
C144 C43 2.210 . S
C178 C52 1.663 . S
C80 C25 2.305 1_546 S
C34 C119 1.562 . S
C7 C153 2.214 . S
C16 C187 1.676 . S
C101 C50 1.697 . S
C106 C59 1.400 . S
C140 C67 1.204 . S
C41 C174 0.781 . S
C14 C72 1.720 1_656 S
C135 C23 1.403 1_545 S
C169 C31 1.192 . S
C5 C203 0.788 . S
C49 C85 2.064 . S
C58 C114 2.122 1_565 S
C148 C68 1.559 . S
C182 C40 1.625 . S
C13 C76 2.072 . S
C123 C22 2.120 . S
C157 C32 1.562 . S
C4 C191 1.622 . S
