# Generated by pormake.
# Topology rtl, (3,6)-cn, num edge types: 1
# Building blocks:
#     Node 0, Type 0, BuildingBlock: CUQRIR_clean_linker_1, # of connection points: 3
#     Node 1, Type 0, BuildingBlock: CUQRIR_clean_linker_1, # of connection points: 3
#     Node 2, Type 0, BuildingBlock: CUQRIR_clean_linker_1, # of connection points: 3
#     Node 3, Type 0, BuildingBlock: CUQRIR_clean_linker_1, # of connection points: 3
#     Node 4, Type 1, BuildingBlock: FUNLAD_clean_sbu_0, # of connection points: 6
#     Node 5, Type 1, BuildingBlock: FUNLAD_clean_sbu_0, # of connection points: 6
#     Edge 6, Type (0, 1), BuildingBlock: OJICUG_clean_linker_0, # of connection points: 2
#     Edge 7, Type (0, 1), BuildingBlock: OJICUG_clean_linker_0, # of connection points: 2
#     Edge 8, Type (0, 1), BuildingBlock: OJICUG_clean_linker_0, # of connection points: 2
#     Edge 9, Type (0, 1), BuildingBlock: OJICUG_clean_linker_0, # of connection points: 2
#     Edge 10, Type (0, 1), BuildingBlock: OJICUG_clean_linker_0, # of connection points: 2
#     Edge 11, Type (0, 1), BuildingBlock: OJICUG_clean_linker_0, # of connection points: 2
#     Edge 12, Type (0, 1), BuildingBlock: OJICUG_clean_linker_0, # of connection points: 2
#     Edge 13, Type (0, 1), BuildingBlock: OJICUG_clean_linker_0, # of connection points: 2
#     Edge 14, Type (0, 1), BuildingBlock: OJICUG_clean_linker_0, # of connection points: 2
#     Edge 15, Type (0, 1), BuildingBlock: OJICUG_clean_linker_0, # of connection points: 2
#     Edge 16, Type (0, 1), BuildingBlock: OJICUG_clean_linker_0, # of connection points: 2
#     Edge 17, Type (0, 1), BuildingBlock: OJICUG_clean_linker_0, # of connection points: 2
# Relax obj value: 0.002
# Max RMSD: 0.020
# Mean RMSD: 0.013
data_MOF--net-rtl--node1-FUNLAD_clean_sbu_0--node2-CUQRIR_clean_linker_1--edge1-OJICUG_clean_linker_0
_symmetry_space_group_name_H-M    P1
_symmetry_Int_Tables_number       1
_symmetry_cell_setting            triclinic
loop_
_symmetry_equiv_pos_as_xyz
'x, y, z'
_cell_length_a     28.335415
_cell_length_b     28.282989
_cell_length_c     12.878792
_cell_angle_alpha  89.925452
_cell_angle_beta   90.963966
_cell_angle_gamma 90.018068
loop_
_atom_site_label
_atom_site_type_symbol
_atom_site_fract_x
_atom_site_fract_y
_atom_site_fract_z
_atom_type_partial_charge
C0 C 0.18534 0.81116 0.9492 0.0
N1 N 0.15391 0.84404 0.98005 0.0
N2 N 0.20902 0.79281 0.03219 0.0
C3 C 0.19502 0.79933 0.8377 0.0
C4 C 0.19091 0.81598 0.11453 0.0
N5 N 0.15766 0.84734 0.08261 0.0
C6 C 0.20323 0.80569 0.22637 0.0
H7 H 0.17088 0.77053 0.81231 0.0
H8 H 0.23195 0.78724 0.82842 0.0
H9 H 0.1885 0.83039 0.78673 0.0
H10 H 0.2321 0.82973 0.25191 0.0
H11 H 0.21537 0.76864 0.23637 0.0
H12 H 0.17247 0.81191 0.27675 0.0
C13 C 0.68469 0.68911 0.61365 0.0
N14 N 0.65336 0.65568 0.58255 0.0
N15 N 0.70894 0.70587 0.53152 0.0
C16 C 0.69401 0.70275 0.725 0.0
C17 C 0.69132 0.68113 0.44954 0.0
N18 N 0.65793 0.6503 0.48085 0.0
C19 C 0.704 0.6896 0.33804 0.0
H20 H 0.66978 0.7319 0.74598 0.0
H21 H 0.7309 0.71503 0.73669 0.0
H22 H 0.68735 0.67252 0.77776 0.0
H23 H 0.73282 0.66507 0.31687 0.0
H24 H 0.71628 0.72643 0.32618 0.0
H25 H 0.67336 0.68267 0.28547 0.0
C26 C 0.8081 0.18233 0.10023 0.0
N27 N 0.84139 0.15133 0.06949 0.0
N28 N 0.78985 0.20617 1.01751 0.0
C29 C 0.79588 0.19162 0.2116 0.0
C30 C 0.81352 0.18863 0.93549 0.0
N31 N 0.84508 0.15556 0.96732 0.0
C32 C 0.80357 0.20133 0.82377 0.0
H33 H 0.76718 0.16722 0.23436 0.0
H34 H 0.78358 0.22852 0.22209 0.0
H35 H 0.82675 0.18512 0.26383 0.0
H36 H 0.82759 0.23037 0.80086 0.0
H37 H 0.76659 0.21342 0.81252 0.0
H38 H 0.81004 0.17068 0.7722 0.0
C39 C 0.31392 0.30933 0.43901 0.0
N40 N 0.34507 0.34293 0.47001 0.0
N41 N 0.28962 0.29275 0.52113 0.0
C42 C 0.30675 0.2931 0.3287 0.0
C43 C 0.30697 0.31769 0.60297 0.0
N44 N 0.34037 0.34847 0.5716 0.0
C45 C 0.29175 0.31151 0.71349 0.0
H46 H 0.27918 0.3154 0.29098 0.0
H47 H 0.29481 0.25575 0.32617 0.0
H48 H 0.33956 0.2967 0.28373 0.0
H49 H 0.31476 0.28469 0.7517 0.0
H50 H 0.25466 0.29905 0.71656 0.0
H51 H 0.29523 0.34497 0.75763 0.0
C52 C 0.04867 0.95111 0.37496 0.0
N53 N 0.0776 0.07889 0.52599 0.0
C54 C 0.12389 0.06617 0.52963 0.0
C55 C 0.15918 0.10062 0.52887 0.0
C56 C 0.14676 0.14868 0.5245 0.0
C57 C 0.09865 0.16075 0.52108 0.0
C58 C 0.06452 0.12514 0.52182 0.0
Zn59 Zn 0.02694 0.02753 0.52565 0.0
C60 C 0.95037 0.04667 0.3688 0.0
N61 N 0.9213 0.92005 0.52388 0.0
C62 C 0.93445 0.87386 0.53013 0.0
C63 C 0.87499 0.93261 0.51859 0.0
C64 C 0.83978 0.89808 0.51913 0.0
C65 C 0.85221 0.85004 0.52654 0.0
C66 C 0.90039 0.83821 0.53224 0.0
Zn67 Zn 0.97195 0.9715 0.52407 0.0
O68 O 0.0651 0.98879 0.41514 0.0
C69 C 0.04781 0.95162 0.68089 0.0
O70 O 0.00912 0.93528 0.40499 0.0
H71 H 0.86528 0.96953 0.51386 0.0
H72 H 0.13352 0.02919 0.53264 0.0
H73 H 0.97146 0.86461 0.53419 0.0
O74 O 0.06307 0.99137 0.64943 0.0
O75 O 0.01065 0.93441 0.63944 0.0
H76 H 0.0275 0.13446 0.51914 0.0
O77 O 0.93583 0.00872 0.64316 0.0
O78 O 0.98822 0.06574 0.63619 0.0
O79 O 0.93383 0.0092 0.40868 0.0
O80 O 0.9898 0.06266 0.40189 0.0
C81 C 0.95097 0.04863 0.67485 0.0
H82 H 0.1958 0.08965 0.53021 0.0
H83 H 0.08743 0.19734 0.51907 0.0
H84 H 0.80324 0.90902 0.51274 0.0
H85 H 0.91182 0.80183 0.53971 0.0
C86 C 0.44918 0.45319 0.87039 0.0
N87 N 0.57728 0.41984 0.02087 0.0
C88 C 0.56416 0.37369 1.0133 0.0
C89 C 0.59825 0.33808 1.01131 0.0
C90 C 0.64639 0.34996 0.01815 0.0
C91 C 0.6588 0.39796 0.02622 0.0
C92 C 0.62357 0.43244 0.02694 0.0
Zn93 Zn 0.52668 0.47121 0.02369 0.0
C94 C 0.54684 0.54926 0.87567 0.0
N95 N 0.42122 0.57875 0.03162 0.0
C96 C 0.37501 0.56601 0.03589 0.0
C97 C 0.43424 0.62502 0.02853 0.0
C98 C 0.40012 0.66061 0.02887 0.0
C99 C 0.35204 0.64857 0.03339 0.0
C100 C 0.33975 0.60044 0.03738 0.0
Zn101 Zn 0.47183 0.52739 0.02888 0.0
O102 O 0.48781 0.43608 0.90506 0.0
C103 C 0.45172 0.44929 0.177 0.0
O104 O 0.43364 0.4914 0.90894 0.0
H105 H 0.47119 0.63438 0.0252 0.0
H106 H 0.52715 0.36444 1.0086 0.0
H107 H 0.36541 0.52902 0.03823 0.0
O108 O 0.48966 0.43302 0.13958 0.0
O109 O 0.43566 0.4885 0.14358 0.0
H110 H 0.63325 0.46934 0.03285 0.0
O111 O 0.51033 0.56237 0.14874 0.0
O112 O 0.565 0.50758 0.14241 0.0
O113 O 0.50925 0.56571 0.91423 0.0
O114 O 0.5627 0.50973 0.90776 0.0
C115 C 0.54928 0.54544 0.1821 0.0
H116 H 0.58691 0.30169 1.00337 0.0
H117 H 0.69533 0.40888 0.03334 0.0
H118 H 0.41135 0.69713 0.02409 0.0
H119 H 0.30329 0.58938 0.04263 0.0
C120 C 0.25943 0.21666 0.5851 0.0
C121 C 0.25394 0.25664 0.52161 0.0
H122 H 0.22961 0.15148 0.63709 0.0
C123 C 0.21327 0.26114 0.45894 0.0
H124 H 0.29078 0.21256 0.63351 0.0
C125 C 0.17847 0.22613 0.45972 0.0
C126 C 0.18374 0.18595 0.52348 0.0
H127 H 0.20841 0.29194 0.40991 0.0
H128 H 0.1477 0.2303 0.40955 0.0
C129 C 0.22467 0.18165 0.58619 0.0
C130 C 0.23688 0.71385 0.98071 0.0
C131 C 0.24478 0.7567 0.03278 0.0
H132 H 0.26476 0.6466 0.9378 0.0
C133 C 0.28791 0.76398 0.0853 0.0
H134 H 0.20365 0.70744 0.94047 0.0
C135 C 0.3226 0.72888 0.0861 0.0
C136 C 0.31499 0.68588 0.03341 0.0
H137 H 0.29477 0.79697 0.1253 0.0
H138 H 0.35518 0.73532 0.1289 0.0
C139 C 0.27168 0.67889 0.98049 0.0
C140 C 0.78795 0.73357 0.48203 0.0
C141 C 0.74494 0.74178 0.53116 0.0
H142 H 0.85496 0.76148 0.43933 0.0
C143 C 0.73729 0.78549 0.57923 0.0
H144 H 0.79469 0.69991 0.44524 0.0
C145 C 0.77214 0.82044 0.57852 0.0
C146 C 0.81523 0.81261 0.52841 0.0
H147 H 0.70417 0.79265 0.61682 0.0
H148 H 0.76536 0.85343 0.61809 0.0
C149 C 0.82262 0.76868 0.48 0.0
C150 C 0.76135 0.28543 0.96732 0.0
C151 C 0.75382 0.24201 1.01701 0.0
H152 H 0.7331 0.35311 0.92638 0.0
C153 C 0.71087 0.23397 0.06658 0.0
H154 H 0.79442 0.29241 0.92932 0.0
C155 C 0.67608 0.26895 0.06722 0.0
C156 C 0.68337 0.31259 1.01728 0.0
H157 H 0.70428 0.20053 0.10464 0.0
H158 H 0.64372 0.26193 0.10802 0.0
C159 C 0.72643 0.32029 0.96694 0.0
C160 C 0.15053 0.91125 0.21004 0.0
C161 C 0.12921 0.87641 0.14802 0.0
H162 H 0.14165 0.9625 0.33006 0.0
C163 C 0.08089 0.86715 0.15765 0.0
H164 H 0.1879 0.91844 0.20361 0.0
C165 C 0.05441 0.89151 0.2312 0.0
C166 C 0.07587 0.92599 0.29494 0.0
H167 H 0.06419 0.83995 0.11071 0.0
H168 H 0.01732 0.88313 0.23866 0.0
C169 C 0.12405 0.93615 0.28227 0.0
C170 C 0.58914 0.65045 0.70811 0.0
C171 C 0.62347 0.62815 0.64833 0.0
H172 H 0.53749 0.64283 0.82651 0.0
C173 C 0.63119 0.57951 0.65994 0.0
H174 H 0.583 0.68807 0.69996 0.0
C175 C 0.60601 0.55368 0.73334 0.0
C176 C 0.57215 0.57607 0.79505 0.0
H177 H 0.6579 0.562 0.61473 0.0
H178 H 0.61334 0.5163 0.74238 0.0
C179 C 0.56334 0.62457 0.78028 0.0
C180 C 0.91823 0.13107 0.14939 0.0
C181 C 0.86995 0.12175 0.13589 0.0
H182 H 0.98175 0.11497 0.23525 0.0
C183 C 0.84871 0.08646 0.19546 0.0
H184 H 0.93487 0.1586 0.10438 0.0
C185 C 0.87519 0.0613 0.26935 0.0
C186 C 0.92329 0.07163 0.28616 0.0
H187 H 0.81136 0.07921 0.18602 0.0
H188 H 0.85762 0.0347 0.31536 0.0
C189 C 0.94472 0.10644 0.22459 0.0
C190 C 0.35051 0.41836 0.68304 0.0
C191 C 0.36937 0.37781 0.63728 0.0
H192 H 0.36102 0.47429 0.79299 0.0
C193 C 0.41531 0.36353 0.6636 0.0
H194 H 0.31492 0.42954 0.6633 0.0
C195 C 0.44161 0.3885 0.73816 0.0
C196 C 0.42235 0.42841 0.78708 0.0
H197 H 0.43006 0.33208 0.62891 0.0
H198 H 0.47668 0.37602 0.75876 0.0
C199 C 0.37682 0.44362 0.7572 0.0
C200 C 0.58124 0.62935 0.40165 0.0
C201 C 0.62957 0.62036 0.41495 0.0
H202 H 0.51781 0.61299 0.31611 0.0
C203 C 0.65094 0.58512 0.3556 0.0
H204 H 0.56448 0.65681 0.44648 0.0
C205 C 0.62453 0.55978 0.28185 0.0
C206 C 0.57643 0.56997 0.26507 0.0
H207 H 0.68834 0.57808 0.36496 0.0
H208 H 0.64214 0.5333 0.23576 0.0
C209 C 0.55488 0.6046 0.32669 0.0
C210 C 0.90915 0.14979 0.84204 0.0
C211 C 0.87475 0.12771 0.90199 0.0
H212 H 0.96057 0.14198 0.72357 0.0
C213 C 0.86653 0.07913 0.89037 0.0
H214 H 0.91558 0.18736 0.85006 0.0
C215 C 0.89144 0.05314 0.81683 0.0
C216 C 0.92544 0.07537 0.75507 0.0
H217 H 0.8397 0.06182 0.93571 0.0
H218 H 0.88383 0.01583 0.80778 0.0
C219 C 0.93461 0.12381 0.7698 0.0
C220 C 0.36158 0.41741 0.37988 0.0
C221 C 0.37452 0.37093 0.40443 0.0
H222 H 0.37566 0.4787 0.28784 0.0
C223 C 0.4142 0.35088 0.35834 0.0
H224 H 0.33087 0.43312 0.41498 0.0
C225 C 0.43997 0.37663 0.2858 0.0
C226 C 0.42616 0.42279 0.25792 0.0
H227 H 0.42442 0.31492 0.37689 0.0
H228 H 0.47 0.35998 0.24992 0.0
C229 C 0.38705 0.44313 0.3069 0.0
C230 C 0.13271 0.92072 0.90184 0.0
C231 C 0.124 0.87225 0.91364 0.0
H232 H 0.11578 0.98407 0.81734 0.0
C233 C 0.08902 0.85049 0.85236 0.0
H234 H 0.16002 0.93775 0.94821 0.0
C235 C 0.06352 0.87663 0.77849 0.0
C236 C 0.07322 0.92493 0.76341 0.0
H237 H 0.08225 0.81299 0.86047 0.0
H238 H 0.03715 0.85864 0.73116 0.0
C239 C 0.10774 0.94688 0.82666 0.0
loop_
_geom_bond_atom_site_label_1
_geom_bond_atom_site_label_2
_geom_bond_distance
_geom_bond_site_symmetry_2
_ccdc_geom_bond_type
C0 N1 1.317 . S
C0 N2 1.348 1_556 S
C0 C3 1.485 . S
N1 C0 1.317 . S
N1 N5 1.370 1_556 S
N2 C0 1.348 1_554 S
N2 C4 1.346 . S
C3 C0 1.485 . S
C3 H7 0.960 . S
C3 H8 0.961 . S
C3 H9 0.960 . S
C4 N2 1.346 . S
C4 N5 1.307 . S
C4 C6 1.486 . S
N5 N1 1.370 1_554 S
N5 C4 1.307 . S
C6 C4 1.486 . S
C6 H10 0.960 . S
C6 H11 0.960 . S
C6 H12 0.959 . S
H7 C3 0.960 . S
H8 C3 0.961 . S
H9 C3 0.960 . S
H10 C6 0.960 . S
H11 C6 0.960 . S
H12 C6 0.959 . S
C13 N14 1.317 . S
C13 N15 1.348 . S
C13 C16 1.485 . S
N14 C13 1.317 . S
N14 N18 1.370 . S
N15 C13 1.348 . S
N15 C17 1.346 . S
C16 C13 1.485 . S
C16 H20 0.960 . S
C16 H21 0.961 . S
C16 H22 0.960 . S
C17 N15 1.346 . S
C17 N18 1.307 . S
C17 C19 1.486 . S
N18 N14 1.370 . S
N18 C17 1.307 . S
C19 C17 1.486 . S
C19 H23 0.960 . S
C19 H24 0.960 . S
C19 H25 0.959 . S
H20 C16 0.960 . S
H21 C16 0.961 . S
H22 C16 0.960 . S
H23 C19 0.960 . S
H24 C19 0.960 . S
H25 C19 0.959 . S
C26 N27 1.317 . S
C26 N28 1.348 . S
C26 C29 1.485 . S
N27 C26 1.317 . S
N27 N31 1.370 1_554 S
N28 C26 1.348 . S
N28 C30 1.346 1_554 S
C29 C26 1.485 . S
C29 H33 0.960 . S
C29 H34 0.961 . S
C29 H35 0.960 . S
C30 N28 1.346 1_556 S
C30 N31 1.307 . S
C30 C32 1.486 . S
N31 N27 1.370 1_556 S
N31 C30 1.307 . S
C32 C30 1.486 . S
C32 H36 0.960 . S
C32 H37 0.960 . S
C32 H38 0.959 . S
H33 C29 0.960 . S
H34 C29 0.961 . S
H35 C29 0.960 . S
H36 C32 0.960 . S
H37 C32 0.960 . S
H38 C32 0.959 . S
C39 N40 1.317 . S
C39 N41 1.348 . S
C39 C42 1.485 . S
N40 C39 1.317 . S
N40 N44 1.370 . S
N41 C39 1.348 . S
N41 C43 1.346 . S
C42 C39 1.485 . S
C42 H46 0.960 . S
C42 H47 0.961 . S
C42 H48 0.960 . S
C43 N41 1.346 . S
C43 N44 1.307 . S
C43 C45 1.486 . S
N44 N40 1.370 . S
N44 C43 1.307 . S
C45 C43 1.486 . S
C45 H49 0.960 . S
C45 H50 0.960 . S
C45 H51 0.959 . S
H46 C42 0.960 . S
H47 C42 0.961 . S
H48 C42 0.960 . S
H49 C45 0.960 . S
H50 C45 0.960 . S
H51 C45 0.959 . S
C52 O68 1.251 . S
C52 O70 1.254 . S
N53 C54 1.333 . S
N53 C58 1.307 . S
N53 Zn59 2.020 . S
C54 N53 1.333 . S
C54 C55 1.379 . S
C54 H72 0.952 . S
C55 C54 1.379 . S
C55 C56 1.390 . S
C55 H82 0.949 . S
C56 C55 1.390 . S
C56 C57 1.357 . S
C57 C56 1.357 . S
C57 C58 1.370 . S
C57 H83 0.950 . S
C58 N53 1.307 . S
C58 C57 1.370 . S
C58 H76 0.948 . S
Zn59 N53 2.020 . S
Zn59 O68 2.039 1_545 S
Zn59 O74 2.034 1_545 S
Zn59 O78 2.025 1_455 S
Zn59 O80 2.024 1_455 S
C60 O79 1.246 . S
C60 O80 1.249 . S
N61 C62 1.307 . S
N61 C63 1.333 . S
N61 Zn67 2.020 . S
C62 N61 1.307 . S
C62 C66 1.370 . S
C62 H73 0.948 . S
C63 N61 1.333 . S
C63 C64 1.379 . S
C63 H71 0.952 . S
C64 C63 1.379 . S
C64 C65 1.390 . S
C64 H84 0.949 . S
C65 C64 1.390 . S
C65 C66 1.357 . S
C66 C62 1.370 . S
C66 C65 1.357 . S
C66 H85 0.950 . S
Zn67 N61 2.020 . S
Zn67 O70 2.025 1_655 S
Zn67 O75 2.024 1_655 S
Zn67 O77 2.039 1_565 S
Zn67 O79 2.034 1_565 S
O68 C52 1.251 . S
O68 Zn59 2.039 1_565 S
C69 O74 1.246 . S
C69 O75 1.249 . S
O70 C52 1.254 . S
O70 Zn67 2.025 1_455 S
H71 C63 0.952 . S
H72 C54 0.952 . S
H73 C62 0.948 . S
O74 Zn59 2.034 1_565 S
O74 C69 1.246 . S
O75 Zn67 2.024 1_455 S
O75 C69 1.249 . S
H76 C58 0.948 . S
O77 Zn67 2.039 1_545 S
O77 C81 1.251 . S
O78 Zn59 2.025 1_655 S
O78 C81 1.254 . S
O79 C60 1.246 . S
O79 Zn67 2.034 1_545 S
O80 Zn59 2.024 1_655 S
O80 C60 1.249 . S
C81 O77 1.251 . S
C81 O78 1.254 . S
H82 C55 0.949 . S
H83 C57 0.950 . S
H84 C64 0.949 . S
H85 C66 0.950 . S
C86 O102 1.251 . S
C86 O104 1.254 . S
N87 C88 1.333 1_554 S
N87 C92 1.307 . S
N87 Zn93 2.020 . S
C88 N87 1.333 1_556 S
C88 C89 1.379 . S
C88 H106 0.952 . S
C89 C88 1.379 . S
C89 C90 1.390 1_556 S
C89 H116 0.949 . S
C90 C89 1.390 1_554 S
C90 C91 1.357 . S
C91 C90 1.357 . S
C91 C92 1.370 . S
C91 H117 0.950 . S
C92 N87 1.307 . S
C92 C91 1.370 . S
C92 H110 0.948 . S
Zn93 N87 2.020 . S
Zn93 O102 2.039 1_554 S
Zn93 O108 2.034 . S
Zn93 O112 2.025 . S
Zn93 O114 2.024 1_554 S
C94 O113 1.246 . S
C94 O114 1.249 . S
N95 C96 1.307 1_554 S
N95 C97 1.333 . S
N95 Zn101 2.020 . S
C96 N95 1.307 1_556 S
C96 C100 1.370 . S
C96 H107 0.948 . S
C97 N95 1.333 . S
C97 C98 1.379 . S
C97 H105 0.952 . S
C98 C97 1.379 . S
C98 C99 1.390 . S
C98 H118 0.949 . S
C99 C98 1.390 . S
C99 C100 1.357 1_554 S
C100 C96 1.370 . S
C100 C99 1.357 1_556 S
C100 H119 0.950 . S
Zn101 N95 2.020 . S
Zn101 O104 2.025 1_554 S
Zn101 O109 2.024 . S
Zn101 O111 2.039 . S
Zn101 O113 2.034 1_554 S
O102 C86 1.251 . S
O102 Zn93 2.039 1_556 S
C103 O108 1.246 . S
C103 O109 1.249 . S
O104 C86 1.254 . S
O104 Zn101 2.025 1_556 S
H105 C97 0.952 . S
H106 C88 0.952 . S
H107 C96 0.948 . S
O108 Zn93 2.034 . S
O108 C103 1.246 . S
O109 Zn101 2.024 . S
O109 C103 1.249 . S
H110 C92 0.948 . S
O111 Zn101 2.039 . S
O111 C115 1.251 . S
O112 Zn93 2.025 . S
O112 C115 1.254 . S
O113 C94 1.246 . S
O113 Zn101 2.034 1_556 S
O114 Zn93 2.024 1_556 S
O114 C94 1.249 . S
C115 O111 1.251 . S
C115 O112 1.254 . S
H116 C89 0.949 . S
H117 C91 0.950 . S
H118 C98 0.949 . S
H119 C100 0.950 . S
C120 C121 1.387 . S
C120 H124 0.950 . S
C120 C129 1.390 . S
C121 C120 1.387 . S
C121 C123 1.387 . S
H122 C129 0.950 . S
C123 C121 1.387 . S
C123 C125 1.390 . S
C123 H127 0.950 . S
H124 C120 0.950 . S
C125 C123 1.390 . S
C125 C126 1.387 . S
C125 H128 0.950 . S
C126 C125 1.387 . S
C126 C129 1.387 . S
H127 C123 0.950 . S
H128 C125 0.950 . S
C129 C120 1.390 . S
C129 H122 0.950 . S
C129 C126 1.387 . S
C130 C131 1.387 1_556 S
C130 H134 0.950 . S
C130 C139 1.390 . S
C131 C130 1.387 1_554 S
C131 C133 1.387 . S
H132 C139 0.950 . S
C133 C131 1.387 . S
C133 C135 1.390 . S
C133 H137 0.950 . S
H134 C130 0.950 . S
C135 C133 1.390 . S
C135 C136 1.387 . S
C135 H138 0.950 . S
C136 C135 1.387 . S
C136 C139 1.387 1_554 S
H137 C133 0.950 . S
H138 C135 0.950 . S
C139 C130 1.390 . S
C139 H132 0.950 . S
C139 C136 1.387 1_556 S
C140 C141 1.387 . S
C140 H144 0.950 . S
C140 C149 1.390 . S
C141 C140 1.387 . S
C141 C143 1.387 . S
H142 C149 0.950 . S
C143 C141 1.387 . S
C143 C145 1.390 . S
C143 H147 0.950 . S
H144 C140 0.950 . S
C145 C143 1.390 . S
C145 C146 1.387 . S
C145 H148 0.950 . S
C146 C145 1.387 . S
C146 C149 1.387 . S
H147 C143 0.950 . S
H148 C145 0.950 . S
C149 C140 1.390 . S
C149 H142 0.950 . S
C149 C146 1.387 . S
C150 C151 1.382 1_556 S
C150 H154 0.950 . S
C150 C159 1.390 . S
C151 C150 1.382 1_554 S
C151 C153 1.393 . S
H152 C159 0.950 . S
C153 C151 1.393 . S
C153 C155 1.390 . S
C153 H157 0.950 . S
H154 C150 0.950 . S
C155 C153 1.390 . S
C155 C156 1.387 . S
C155 H158 0.950 . S
C156 C155 1.387 . S
C156 C159 1.387 1_554 S
H157 C153 0.950 . S
H158 C155 0.950 . S
C159 C150 1.390 . S
C159 H152 0.950 . S
C159 C156 1.387 1_556 S
C160 C161 1.387 . S
C160 H164 0.950 . S
C160 C169 1.390 . S
C161 C160 1.387 . S
C161 C163 1.387 . S
H162 C169 0.950 . S
C163 C161 1.387 . S
C163 C165 1.390 . S
C163 H167 0.950 . S
H164 C160 0.950 . S
C165 C163 1.390 . S
C165 C166 1.387 . S
C165 H168 0.950 . S
C166 C165 1.387 . S
C166 C169 1.387 . S
H167 C163 0.950 . S
H168 C165 0.950 . S
C169 C160 1.390 . S
C169 H162 0.950 . S
C169 C166 1.387 . S
C170 C171 1.387 . S
C170 H174 0.950 . S
C170 C179 1.390 . S
C171 C170 1.387 . S
C171 C173 1.387 . S
H172 C179 0.950 . S
C173 C171 1.387 . S
C173 C175 1.390 . S
C173 H177 0.950 . S
H174 C170 0.950 . S
C175 C173 1.390 . S
C175 C176 1.387 . S
C175 H178 0.950 . S
C176 C175 1.387 . S
C176 C179 1.387 . S
H177 C173 0.950 . S
H178 C175 0.950 . S
C179 C170 1.390 . S
C179 H172 0.950 . S
C179 C176 1.387 . S
C180 C181 1.387 . S
C180 H184 0.950 . S
C180 C189 1.390 . S
C181 C180 1.387 . S
C181 C183 1.387 . S
H182 C189 0.950 . S
C183 C181 1.387 . S
C183 C185 1.390 . S
C183 H187 0.950 . S
H184 C180 0.950 . S
C185 C183 1.390 . S
C185 C186 1.387 . S
C185 H188 0.950 . S
C186 C185 1.387 . S
C186 C189 1.387 . S
H187 C183 0.950 . S
H188 C185 0.950 . S
C189 C180 1.390 . S
C189 H182 0.950 . S
C189 C186 1.387 . S
C190 C191 1.387 . S
C190 H194 0.950 . S
C190 C199 1.390 . S
C191 C190 1.387 . S
C191 C193 1.387 . S
H192 C199 0.950 . S
C193 C191 1.387 . S
C193 C195 1.390 . S
C193 H197 0.950 . S
H194 C190 0.950 . S
C195 C193 1.390 . S
C195 C196 1.387 . S
C195 H198 0.950 . S
C196 C195 1.387 . S
C196 C199 1.387 . S
H197 C193 0.950 . S
H198 C195 0.950 . S
C199 C190 1.390 . S
C199 H192 0.950 . S
C199 C196 1.387 . S
C200 C201 1.387 . S
C200 H204 0.950 . S
C200 C209 1.390 . S
C201 C200 1.387 . S
C201 C203 1.387 . S
H202 C209 0.950 . S
C203 C201 1.387 . S
C203 C205 1.390 . S
C203 H207 0.950 . S
H204 C200 0.950 . S
C205 C203 1.390 . S
C205 C206 1.387 . S
C205 H208 0.950 . S
C206 C205 1.387 . S
C206 C209 1.387 . S
H207 C203 0.950 . S
H208 C205 0.950 . S
C209 C200 1.390 . S
C209 H202 0.950 . S
C209 C206 1.387 . S
C210 C211 1.387 . S
C210 H214 0.950 . S
C210 C219 1.390 . S
C211 C210 1.387 . S
C211 C213 1.387 . S
H212 C219 0.950 . S
C213 C211 1.387 . S
C213 C215 1.390 . S
C213 H217 0.950 . S
H214 C210 0.950 . S
C215 C213 1.390 . S
C215 C216 1.387 . S
C215 H218 0.950 . S
C216 C215 1.387 . S
C216 C219 1.387 . S
H217 C213 0.950 . S
H218 C215 0.950 . S
C219 C210 1.390 . S
C219 H212 0.950 . S
C219 C216 1.387 . S
C220 C221 1.387 . S
C220 H224 0.950 . S
C220 C229 1.390 . S
C221 C220 1.387 . S
C221 C223 1.387 . S
H222 C229 0.950 . S
C223 C221 1.387 . S
C223 C225 1.390 . S
C223 H227 0.950 . S
H224 C220 0.950 . S
C225 C223 1.390 . S
C225 C226 1.387 . S
C225 H228 0.950 . S
C226 C225 1.387 . S
C226 C229 1.387 . S
H227 C223 0.950 . S
H228 C225 0.950 . S
C229 C220 1.390 . S
C229 H222 0.950 . S
C229 C226 1.387 . S
C230 C231 1.387 . S
C230 H234 0.950 . S
C230 C239 1.390 . S
C231 C230 1.387 . S
C231 C233 1.387 . S
H232 C239 0.950 . S
C233 C231 1.387 . S
C233 C235 1.390 . S
C233 H237 0.950 . S
H234 C230 0.950 . S
C235 C233 1.390 . S
C235 C236 1.387 . S
C235 H238 0.950 . S
C236 C235 1.387 . S
C236 C239 1.387 . S
H237 C233 0.950 . S
H238 C235 0.950 . S
C239 C230 1.390 . S
C239 H232 0.950 . S
C239 C236 1.387 . S
C126 C56 1.507 . S
C121 N41 1.509 . S
C131 N2 1.509 . S
C136 C99 1.507 . S
C141 N15 1.508 . S
C146 C65 1.507 . S
C151 N28 1.507 . S
C156 C90 1.507 . S
C166 C52 1.516 . S
C161 N5 1.511 . S
C176 C94 1.512 . S
C171 N14 1.508 . S
C181 N27 1.506 . S
C186 C60 1.512 . S
C191 N44 1.510 . S
C196 C86 1.515 . S
C206 C115 1.515 . S
C201 N18 1.509 . S
C216 C81 1.516 . S
C211 N31 1.511 . S
C226 C103 1.513 . S
C221 N40 1.511 . S
C231 N1 1.510 . S
C236 C69 1.512 . S
