# Generated by pormake.
# Topology rtl, (3,6)-cn, num edge types: 1
# Building blocks:
#     Node 0, Type 0, BuildingBlock: BELTOD_clean_linker_0, # of connection points: 3
#     Node 1, Type 0, BuildingBlock: BELTOD_clean_linker_0, # of connection points: 3
#     Node 2, Type 0, BuildingBlock: BELTOD_clean_linker_0, # of connection points: 3
#     Node 3, Type 0, BuildingBlock: BELTOD_clean_linker_0, # of connection points: 3
#     Node 4, Type 1, BuildingBlock: FUNLAD_clean_sbu_0, # of connection points: 6
#     Node 5, Type 1, BuildingBlock: FUNLAD_clean_sbu_0, # of connection points: 6
#     Edge 6, Type (0, 1), None
#     Edge 7, Type (0, 1), None
#     Edge 8, Type (0, 1), None
#     Edge 9, Type (0, 1), None
#     Edge 10, Type (0, 1), None
#     Edge 11, Type (0, 1), None
#     Edge 12, Type (0, 1), None
#     Edge 13, Type (0, 1), None
#     Edge 14, Type (0, 1), None
#     Edge 15, Type (0, 1), None
#     Edge 16, Type (0, 1), None
#     Edge 17, Type (0, 1), None
# Relax obj value: 0.017
# Max RMSD: 0.137
# Mean RMSD: 0.107
data_MOF--net-rtl--node1-FUNLAD_clean_sbu_0--node2-BELTOD_clean_linker_0--edge1-none
_symmetry_space_group_name_H-M    P1
_symmetry_Int_Tables_number       1
_symmetry_cell_setting            triclinic
loop_
_symmetry_equiv_pos_as_xyz
'x, y, z'
_cell_length_a     26.516673
_cell_length_b     20.512397
_cell_length_c     13.370685
_cell_angle_alpha  87.906077
_cell_angle_beta   90.681537
_cell_angle_gamma 90.012478
loop_
_atom_site_label
_atom_site_type_symbol
_atom_site_fract_x
_atom_site_fract_y
_atom_site_fract_z
_atom_type_partial_charge
P0 P 0.14508 0.82521 0.01455 0.0
H1 H 0.17819 0.83503 0.22026 0.0
H2 H 0.13488 0.87814 0.3634 0.0
H3 H 0.99264 0.86601 0.20451 0.0
H4 H 0.03639 0.8234 0.06034 0.0
H5 H 0.193 0.77951 0.83759 0.0
H6 H 0.26078 0.70033 0.82069 0.0
H7 H 0.23692 0.62897 0.12396 0.0
H8 H 0.16929 0.70899 0.14124 0.0
H9 H 0.12093 0.95683 0.95155 0.0
H10 H 0.08286 0.76381 0.85737 0.0
O11 O 0.19244 0.87815 0.02618 0.0
H12 H 0.07593 0.00454 0.80748 0.0
H13 H 0.03639 0.81223 0.71134 0.0
C14 C 0.11067 0.82769 0.12909 0.0
C15 C 0.13747 0.83928 0.21743 0.0
C16 C 0.11271 0.86414 0.29902 0.0
C17 C 0.06067 0.8767 0.29371 0.0
C18 C 0.03284 0.85697 0.2101 0.0
C19 C 0.05787 0.83273 0.12766 0.0
C20 C 0.17571 0.74966 -0.00975 0.0
C21 C 0.20055 0.74477 0.89891 0.0
C22 C 0.2396 0.7 0.88953 0.0
C23 C 0.25415 0.65925 0.97135 0.0
C24 C 0.22605 0.65972 0.05969 0.0
C25 C 0.18728 0.70525 0.06944 0.0
C26 C 0.10672 0.85697 0.91265 0.0
C27 C 0.10263 0.92467 0.89985 0.0
C28 C 0.07664 0.95188 0.81791 0.0
C29 C 0.05333 0.91187 0.74817 0.0
C30 C 0.05414 0.84385 0.7645 0.0
C31 C 0.08097 0.81635 0.84687 0.0
P32 P 0.64473 0.68575 0.46682 0.0
H33 H 0.67853 0.67364 0.26362 0.0
H34 H 0.63547 0.63032 0.11834 0.0
H35 H 0.49273 0.64485 0.2682 0.0
H36 H 0.53624 0.6878 0.41448 0.0
H37 H 0.69562 0.7324 0.64219 0.0
H38 H 0.76382 0.81166 0.65627 0.0
H39 H 0.73404 0.88181 0.35319 0.0
H40 H 0.66603 0.80182 0.33878 0.0
H41 H 0.61625 0.55515 0.52422 0.0
H42 H 0.58597 0.74843 0.62541 0.0
O43 O 0.69194 0.63235 0.45952 0.0
H44 H 0.57081 0.50781 0.66597 0.0
H45 H 0.53914 0.70044 0.76909 0.0
C46 C 0.61072 0.68219 0.35042 0.0
C47 C 0.63778 0.66977 0.26399 0.0
C48 C 0.61317 0.64481 0.1812 0.0
C49 C 0.56103 0.6329 0.18343 0.0
C50 C 0.53302 0.65334 0.26505 0.0
C51 C 0.55789 0.67775 0.34867 0.0
C52 C 0.67549 0.76159 0.48981 0.0
C53 C 0.70202 0.76692 0.58038 0.0
C54 C 0.7413 0.81172 0.58811 0.0
C55 C 0.75431 0.85205 0.50541 0.0
C56 C 0.72442 0.85133 0.41807 0.0
C57 C 0.68544 0.80579 0.40997 0.0
C58 C 0.60592 0.65497 0.56677 0.0
C59 C 0.59949 0.58745 0.57687 0.0
C60 C 0.57323 0.56048 0.65738 0.0
C61 C 0.55204 0.60065 0.72838 0.0
C62 C 0.55517 0.66874 0.71476 0.0
C63 C 0.58223 0.69597 0.63377 0.0
P64 P 0.91863 0.27121 0.96769 0.0
H65 H 0.97888 0.29801 0.78856 0.0
H66 H -0.00049 0.23167 0.64627 0.0
H67 H 0.90212 0.07856 0.76236 0.0
H68 H 0.88318 0.14398 0.90608 0.0
H69 H 0.87388 0.37084 0.08605 0.0
H70 H 0.78784 0.41287 0.09786 0.0
H71 H 0.73734 0.27602 0.88009 0.0
H72 H 0.82304 0.23483 0.86756 0.0
H73 H 0.01261 0.24495 0.07408 0.0
H74 H 0.85815 0.18028 0.09231 0.0
O75 O 0.95707 0.33568 0.96764 0.0
H76 H 0.0353 0.17215 0.21511 0.0
H77 H 0.88056 0.10644 0.23442 0.0
C78 C 0.92948 0.22584 0.85769 0.0
C79 C 0.96165 0.25042 0.78297 0.0
C80 C 0.97333 0.2126 0.70161 0.0
C81 C 0.95218 0.15022 0.69316 0.0
C82 C 0.91849 0.1268 0.76635 0.0
C83 C 0.9078 0.16401 0.84869 0.0
C84 C 0.85506 0.30041 0.97504 0.0
C85 C 0.84429 0.35007 0.04065 0.0
C86 C 0.79525 0.37393 0.04744 0.0
C87 C 0.75616 0.34766 -0.01032 0.0
C88 C 0.7668 0.29667 0.926 0.0
C89 C 0.81597 0.27332 0.91849 0.0
C90 C 0.93359 0.21915 0.07464 0.0
C91 C 0.98346 0.21543 0.10927 0.0
C92 C -0.00365 0.17343 0.18972 0.0
C93 C 0.95961 0.13366 0.23642 0.0
C94 C 0.90964 0.13659 0.20025 0.0
C95 C 0.89676 0.17902 0.11957 0.0
P96 P 0.41891 0.23944 0.50155 0.0
H97 H 0.47733 0.21237 0.68572 0.0
H98 H 0.49753 0.27904 0.82889 0.0
H99 H 0.40422 0.4344 0.70178 0.0
H100 H 0.38579 0.36867 0.55724 0.0
H101 H 0.37289 0.13709 0.38802 0.0
H102 H 0.28663 0.09507 0.37765 0.0
H103 H 0.23823 0.23848 0.58485 0.0
H104 H 0.32401 0.27981 0.59564 0.0
H105 H 0.51277 0.26402 0.39829 0.0
H106 H 0.35854 0.32977 0.37291 0.0
O107 O 0.45704 0.17463 0.50449 0.0
H108 H 0.53566 0.33647 0.25798 0.0
H109 H 0.38116 0.40327 0.2317 0.0
C110 C 0.43016 0.28572 0.61094 0.0
C111 C 0.461 0.2606 0.68893 0.0
C112 C 0.47237 0.29856 0.7708 0.0
C113 C 0.45213 0.36158 0.7765 0.0
C114 C 0.4198 0.38565 0.69987 0.0
C115 C 0.4095 0.3483 0.61702 0.0
C116 C 0.3551 0.21083 0.49365 0.0
C117 C 0.34369 0.15937 0.43129 0.0
C118 C 0.29453 0.13548 0.42538 0.0
C119 C 0.25597 0.1635 0.48079 0.0
C120 C 0.26723 0.21641 0.54081 0.0
C121 C 0.31649 0.23983 0.54737 0.0
C122 C 0.43384 0.29042 0.39414 0.0
C123 C 0.4837 0.29365 0.36161 0.0
C124 C 0.49672 0.33545 0.28161 0.0
C125 C 0.46012 0.37553 0.23335 0.0
C126 C 0.41014 0.37289 0.26714 0.0
C127 C 0.39713 0.33064 0.3473 0.0
C128 C 0.03842 0.92071 0.36554 0.0
N129 N 0.10868 0.08255 0.48379 0.0
C130 C 0.14942 0.04248 0.49454 0.0
C131 C 0.19797 0.06811 0.49217 0.0
C132 C 0.20467 0.13566 0.47969 0.0
C133 C 0.16209 0.1761 0.4692 0.0
C134 C 0.11406 0.14827 0.47096 0.0
Zn135 Zn 0.03923 0.04109 0.48718 0.0
C136 C 0.97408 0.09078 0.32328 0.0
N137 N 0.8971 0.94562 0.49414 0.0
C138 C 0.8943 0.88065 0.51728 0.0
C139 C 0.85473 0.98194 0.47591 0.0
C140 C 0.80712 0.95266 0.47953 0.0
C141 C 0.80339 0.88594 0.50456 0.0
C142 C 0.8476 0.84984 0.52381 0.0
Zn143 Zn 0.96654 0.98828 0.48906 0.0
O144 O 0.06568 0.96596 0.39919 0.0
C145 C 0.03436 0.94285 0.6545 0.0
O146 O 0.99195 0.91817 0.38735 0.0
H147 H 0.8578 0.03366 0.45837 0.0
H148 H 0.14431 0.99044 0.50555 0.0
H149 H 0.92836 0.85252 0.53032 0.0
O150 O 0.06005 0.989 0.61578 0.0
O151 O 0.99245 0.92733 0.61473 0.0
H152 H 0.0811 0.17908 0.46225 0.0
O153 O 0.94221 0.05816 0.59142 0.0
O154 O 0.0121 0.11494 0.57629 0.0
O155 O 0.94293 0.05096 0.36399 0.0
O156 O 0.01839 0.09465 0.35907 0.0
C157 C 0.96882 0.10709 0.61442 0.0
H158 H 0.22994 0.03552 0.50203 0.0
H159 H 0.16595 0.22849 0.45903 0.0
H160 H 0.77367 0.98173 0.46371 0.0
H161 H 0.84607 0.79791 0.54147 0.0
C162 C 0.46854 0.40456 0.85626 0.0
N163 N 0.60883 0.4284 -0.00872 0.0
C164 C 0.61438 0.36253 0.00097 0.0
C165 C 0.66244 0.33474 0.00114 0.0
C166 C 0.70488 0.37537 -0.00751 0.0
C167 C 0.69804 0.44307 -0.01634 0.0
C168 C 0.64946 0.46866 -0.01739 0.0
Zn169 Zn 0.53924 0.46973 -0.01268 0.0
C170 C 0.53346 0.56934 0.82112 0.0
N171 N 0.39681 0.56503 0.97732 0.0
C172 C 0.35462 0.52869 -0.00473 0.0
C173 C 0.3938 0.63019 0.95565 0.0
C174 C 0.34709 0.66122 0.95072 0.0
C175 C 0.30311 0.62515 0.97014 0.0
C176 C 0.30705 0.55817 -0.0067 0.0
Zn177 Zn 0.46641 0.52246 -0.01707 0.0
O178 O 0.51184 0.39671 0.89622 0.0
C179 C 0.47471 0.4187 0.14763 0.0
O180 O 0.44178 0.45329 0.87844 0.0
H181 H 0.42773 0.65836 0.94296 0.0
H182 H 0.58152 0.33153 0.008 0.0
H183 H 0.35783 0.47684 0.01171 0.0
O184 O 0.51904 0.41502 0.1139 0.0
O185 O 0.44357 0.45879 0.10605 0.0
H186 H 0.64423 0.52083 0.97387 0.0
O187 O 0.49221 0.59178 0.08661 0.0
O188 O 0.56595 0.54405 0.07741 0.0
O189 O 0.49155 0.58443 0.8593 0.0
O190 O 0.55933 0.52305 0.86018 0.0
C191 C 0.53871 0.58912 0.11038 0.0
H192 H 0.66643 0.28223 0.00853 0.0
H193 H 0.7299 0.47582 0.97539 0.0
H194 H 0.34542 0.71331 0.9344 0.0
H195 H 0.27378 0.5291 0.00912 0.0
loop_
_geom_bond_atom_site_label_1
_geom_bond_atom_site_label_2
_geom_bond_distance
_geom_bond_site_symmetry_2
_ccdc_geom_bond_type
P0 O11 1.490 . S
P0 C14 1.812 . S
P0 C20 1.803 . S
P0 C26 1.819 1_554 S
H1 C15 0.941 . S
H2 C16 0.939 . S
H3 C18 0.940 1_655 S
H4 C19 0.940 . S
H5 C21 0.939 . S
H6 C22 0.942 . S
H7 C24 0.940 . S
H8 C25 0.939 . S
H9 C27 0.941 . S
H10 C31 0.939 . S
O11 P0 1.490 . S
H12 C28 0.939 . S
H13 C30 0.940 . S
C14 P0 1.812 . S
C14 C15 1.389 . S
C14 C19 1.391 . S
C15 H1 0.941 . S
C15 C14 1.389 . S
C15 C16 1.397 . S
C16 H2 0.939 . S
C16 C15 1.397 . S
C16 C17 1.378 . S
C17 C16 1.378 . S
C17 C18 1.378 . S
C18 H3 0.940 1_455 S
C18 C17 1.378 . S
C18 C19 1.396 . S
C19 H4 0.940 . S
C19 C14 1.391 . S
C19 C18 1.396 . S
C20 P0 1.803 . S
C20 C21 1.378 1_554 S
C20 C25 1.400 . S
C21 H5 0.939 . S
C21 C20 1.378 1_556 S
C21 C22 1.361 . S
C22 H6 0.942 . S
C22 C21 1.361 . S
C22 C23 1.369 1_556 S
C23 C22 1.369 1_554 S
C23 C24 1.404 . S
C24 H7 0.940 . S
C24 C23 1.404 . S
C24 C25 1.389 . S
C25 H8 0.939 . S
C25 C20 1.400 . S
C25 C24 1.389 . S
C26 P0 1.819 1_556 S
C26 C27 1.391 . S
C26 C31 1.391 . S
C27 H9 0.941 . S
C27 C26 1.391 . S
C27 C28 1.396 . S
C28 H12 0.939 . S
C28 C27 1.396 . S
C28 C29 1.397 . S
C29 C28 1.397 . S
C29 C30 1.385 . S
C30 H13 0.940 . S
C30 C29 1.385 . S
C30 C31 1.388 . S
C31 H10 0.939 . S
C31 C26 1.391 . S
C31 C30 1.388 . S
P32 O43 1.490 . S
P32 C46 1.812 . S
P32 C52 1.803 . S
P32 C58 1.819 . S
H33 C47 0.941 . S
H34 C48 0.939 . S
H35 C50 0.940 . S
H36 C51 0.940 . S
H37 C53 0.939 . S
H38 C54 0.942 . S
H39 C56 0.940 . S
H40 C57 0.939 . S
H41 C59 0.941 . S
H42 C63 0.939 . S
O43 P32 1.490 . S
H44 C60 0.939 . S
H45 C62 0.940 . S
C46 P32 1.812 . S
C46 C47 1.389 . S
C46 C51 1.391 . S
C47 H33 0.941 . S
C47 C46 1.389 . S
C47 C48 1.397 . S
C48 H34 0.939 . S
C48 C47 1.397 . S
C48 C49 1.378 . S
C49 C48 1.378 . S
C49 C50 1.378 . S
C50 H35 0.940 . S
C50 C49 1.378 . S
C50 C51 1.396 . S
C51 H36 0.940 . S
C51 C46 1.391 . S
C51 C50 1.396 . S
C52 P32 1.803 . S
C52 C53 1.378 . S
C52 C57 1.400 . S
C53 H37 0.939 . S
C53 C52 1.378 . S
C53 C54 1.361 . S
C54 H38 0.942 . S
C54 C53 1.361 . S
C54 C55 1.369 . S
C55 C54 1.369 . S
C55 C56 1.404 . S
C56 H39 0.940 . S
C56 C55 1.404 . S
C56 C57 1.389 . S
C57 H40 0.939 . S
C57 C52 1.400 . S
C57 C56 1.389 . S
C58 P32 1.819 . S
C58 C59 1.391 . S
C58 C63 1.391 . S
C59 H41 0.941 . S
C59 C58 1.391 . S
C59 C60 1.396 . S
C60 H44 0.939 . S
C60 C59 1.396 . S
C60 C61 1.397 . S
C61 C60 1.397 . S
C61 C62 1.385 . S
C62 H45 0.940 . S
C62 C61 1.385 . S
C62 C63 1.388 . S
C63 H42 0.939 . S
C63 C58 1.391 . S
C63 C62 1.388 . S
P64 O75 1.490 . S
P64 C78 1.812 . S
P64 C84 1.803 . S
P64 C90 1.819 1_556 S
H65 C79 0.941 . S
H66 C80 0.939 . S
H67 C82 0.940 . S
H68 C83 0.940 . S
H69 C85 0.939 . S
H70 C86 0.942 . S
H71 C88 0.940 . S
H72 C89 0.939 . S
H73 C91 0.941 . S
H74 C95 0.939 . S
O75 P64 1.490 . S
H76 C92 0.939 . S
H77 C94 0.940 . S
C78 P64 1.812 . S
C78 C79 1.389 . S
C78 C83 1.391 . S
C79 H65 0.941 . S
C79 C78 1.389 . S
C79 C80 1.397 . S
C80 H66 0.939 . S
C80 C79 1.397 . S
C80 C81 1.378 . S
C81 C80 1.378 . S
C81 C82 1.378 . S
C82 H67 0.940 . S
C82 C81 1.378 . S
C82 C83 1.396 . S
C83 H68 0.940 . S
C83 C78 1.391 . S
C83 C82 1.396 . S
C84 P64 1.803 . S
C84 C85 1.378 1_556 S
C84 C89 1.400 . S
C85 H69 0.939 . S
C85 C84 1.378 1_554 S
C85 C86 1.361 . S
C86 H70 0.942 . S
C86 C85 1.361 . S
C86 C87 1.373 . S
C87 C86 1.373 . S
C87 C88 1.400 1_554 S
C88 H71 0.940 . S
C88 C87 1.400 1_556 S
C88 C89 1.389 . S
C89 H72 0.939 . S
C89 C84 1.400 . S
C89 C88 1.389 . S
C90 P64 1.819 1_554 S
C90 C91 1.391 1_655 S
C90 C95 1.391 . S
C91 H73 0.941 . S
C91 C90 1.391 1_455 S
C91 C92 1.396 . S
C92 H76 0.939 . S
C92 C91 1.396 . S
C92 C93 1.397 1_455 S
C93 C92 1.397 1_655 S
C93 C94 1.385 . S
C94 H77 0.940 . S
C94 C93 1.385 . S
C94 C95 1.388 . S
C95 H74 0.939 . S
C95 C90 1.391 . S
C95 C94 1.388 . S
P96 O107 1.490 . S
P96 C110 1.812 . S
P96 C116 1.803 . S
P96 C122 1.819 . S
H97 C111 0.941 . S
H98 C112 0.939 . S
H99 C114 0.940 . S
H100 C115 0.940 . S
H101 C117 0.939 . S
H102 C118 0.942 . S
H103 C120 0.940 . S
H104 C121 0.939 . S
H105 C123 0.941 . S
H106 C127 0.939 . S
O107 P96 1.490 . S
H108 C124 0.939 . S
H109 C126 0.940 . S
C110 P96 1.812 . S
C110 C111 1.389 . S
C110 C115 1.391 . S
C111 H97 0.941 . S
C111 C110 1.389 . S
C111 C112 1.397 . S
C112 H98 0.939 . S
C112 C111 1.397 . S
C112 C113 1.378 . S
C113 C112 1.378 . S
C113 C114 1.378 . S
C114 H99 0.940 . S
C114 C113 1.378 . S
C114 C115 1.396 . S
C115 H100 0.940 . S
C115 C110 1.391 . S
C115 C114 1.396 . S
C116 P96 1.803 . S
C116 C117 1.378 . S
C116 C121 1.400 . S
C117 H101 0.939 . S
C117 C116 1.378 . S
C117 C118 1.361 . S
C118 H102 0.942 . S
C118 C117 1.361 . S
C118 C119 1.369 . S
C119 C118 1.369 . S
C119 C120 1.404 . S
C120 H103 0.940 . S
C120 C119 1.404 . S
C120 C121 1.389 . S
C121 H104 0.939 . S
C121 C116 1.400 . S
C121 C120 1.389 . S
C122 P96 1.819 . S
C122 C123 1.391 . S
C122 C127 1.391 . S
C123 H105 0.941 . S
C123 C122 1.391 . S
C123 C124 1.396 . S
C124 H108 0.939 . S
C124 C123 1.396 . S
C124 C125 1.397 . S
C125 C124 1.397 . S
C125 C126 1.385 . S
C126 H109 0.940 . S
C126 C125 1.385 . S
C126 C127 1.388 . S
C127 H106 0.939 . S
C127 C122 1.391 . S
C127 C126 1.388 . S
C128 O144 1.251 . S
C128 O146 1.254 1_455 S
N129 C130 1.333 . S
N129 C134 1.307 . S
N129 Zn135 2.020 . S
C130 N129 1.333 . S
C130 C131 1.379 . S
C130 H148 0.952 . S
C131 C130 1.379 . S
C131 C132 1.390 . S
C131 H158 0.949 . S
C132 C131 1.390 . S
C132 C133 1.357 . S
C133 C132 1.357 . S
C133 C134 1.370 . S
C133 H159 0.950 . S
C134 N129 1.307 . S
C134 C133 1.370 . S
C134 H152 0.948 . S
Zn135 N129 2.020 . S
Zn135 O144 2.039 1_545 S
Zn135 O150 2.034 1_545 S
Zn135 O154 2.025 . S
Zn135 O156 2.024 . S
C136 O155 1.246 . S
C136 O156 1.249 1_655 S
N137 C138 1.307 . S
N137 C139 1.333 . S
N137 Zn143 2.020 . S
C138 N137 1.307 . S
C138 C142 1.370 . S
C138 H149 0.948 . S
C139 N137 1.333 . S
C139 C140 1.379 . S
C139 H147 0.952 . S
C140 C139 1.379 . S
C140 C141 1.390 . S
C140 H160 0.949 . S
C141 C140 1.390 . S
C141 C142 1.357 . S
C142 C138 1.370 . S
C142 C141 1.357 . S
C142 H161 0.950 . S
Zn143 N137 2.020 . S
Zn143 O146 2.025 . S
Zn143 O151 2.024 . S
Zn143 O153 2.039 1_565 S
Zn143 O155 2.034 1_565 S
O144 C128 1.251 . S
O144 Zn135 2.039 1_565 S
C145 O150 1.246 . S
C145 O151 1.249 1_455 S
O146 C128 1.254 1_655 S
O146 Zn143 2.025 . S
H147 C139 0.952 . S
H148 C130 0.952 . S
H149 C138 0.948 . S
O150 Zn135 2.034 1_565 S
O150 C145 1.246 . S
O151 Zn143 2.024 . S
O151 C145 1.249 1_655 S
H152 C134 0.948 . S
O153 Zn143 2.039 1_545 S
O153 C157 1.251 . S
O154 Zn135 2.025 . S
O154 C157 1.254 1_455 S
O155 C136 1.246 . S
O155 Zn143 2.034 1_545 S
O156 Zn135 2.024 . S
O156 C136 1.249 1_455 S
C157 O153 1.251 . S
C157 O154 1.254 1_655 S
H158 C131 0.949 . S
H159 C133 0.950 . S
H160 C140 0.949 . S
H161 C142 0.950 . S
C162 O178 1.251 . S
C162 O180 1.254 . S
N163 C164 1.333 1_554 S
N163 C168 1.307 . S
N163 Zn169 2.020 . S
C164 N163 1.333 1_556 S
C164 C165 1.379 . S
C164 H182 0.952 . S
C165 C164 1.379 . S
C165 C166 1.390 1_556 S
C165 H192 0.949 . S
C166 C165 1.390 1_554 S
C166 C167 1.357 . S
C167 C166 1.357 . S
C167 C168 1.370 . S
C167 H193 0.950 . S
C168 N163 1.307 . S
C168 C167 1.370 . S
C168 H186 0.948 . S
Zn169 N163 2.020 . S
Zn169 O178 2.039 1_554 S
Zn169 O184 2.034 . S
Zn169 O188 2.025 . S
Zn169 O190 2.024 1_554 S
C170 O189 1.246 . S
C170 O190 1.249 . S
N171 C172 1.307 . S
N171 C173 1.333 1_556 S
N171 Zn177 2.020 1_556 S
C172 N171 1.307 . S
C172 C176 1.370 . S
C172 H183 0.948 . S
C173 N171 1.333 1_554 S
C173 C174 1.379 . S
C173 H181 0.952 . S
C174 C173 1.379 . S
C174 C175 1.390 . S
C174 H194 0.949 . S
C175 C174 1.390 . S
C175 C176 1.357 1_554 S
C176 C172 1.370 . S
C176 C175 1.357 1_556 S
C176 H195 0.950 . S
Zn177 N171 2.020 1_554 S
Zn177 O180 2.025 1_554 S
Zn177 O185 2.024 . S
Zn177 O187 2.039 . S
Zn177 O189 2.034 1_554 S
O178 C162 1.251 . S
O178 Zn169 2.039 1_556 S
C179 O184 1.246 . S
C179 O185 1.249 . S
O180 C162 1.254 . S
O180 Zn177 2.025 1_556 S
H181 C173 0.952 . S
H182 C164 0.952 . S
H183 C172 0.948 . S
O184 Zn169 2.034 . S
O184 C179 1.246 . S
O185 Zn177 2.024 . S
O185 C179 1.249 . S
H186 C168 0.948 . S
O187 Zn177 2.039 . S
O187 C191 1.251 . S
O188 Zn169 2.025 . S
O188 C191 1.254 . S
O189 C170 1.246 . S
O189 Zn177 2.034 1_556 S
O190 Zn169 2.024 1_556 S
O190 C170 1.249 . S
C191 O187 1.251 . S
C191 O188 1.254 . S
H192 C165 0.949 . S
H193 C167 0.950 . S
H194 C174 0.949 . S
H195 C176 0.950 . S
C132 C119 1.951 . S
C23 C175 1.490 . S
C55 C141 1.600 . S
C87 C166 1.774 . S
C128 C17 1.664 . S
C170 C61 1.783 . S
C93 C136 1.963 . S
C113 C162 2.205 . S
C191 C49 1.817 . S
C157 C81 2.005 . S
C179 C125 2.232 . S
C29 C145 1.580 . S
