# Generated by pormake.
# Topology rtl, (3,6)-cn, num edge types: 1
# Building blocks:
#     Node 0, Type 0, BuildingBlock: BETDAH_clean_linker_0, # of connection points: 3
#     Node 1, Type 0, BuildingBlock: BETDAH_clean_linker_0, # of connection points: 3
#     Node 2, Type 0, BuildingBlock: BETDAH_clean_linker_0, # of connection points: 3
#     Node 3, Type 0, BuildingBlock: BETDAH_clean_linker_0, # of connection points: 3
#     Node 4, Type 1, BuildingBlock: LEVNOQ01_clean_sbu_1, # of connection points: 6
#     Node 5, Type 1, BuildingBlock: LEVNOQ01_clean_sbu_1, # of connection points: 6
#     Edge 6, Type (0, 1), BuildingBlock: OJICUG_clean_linker_0, # of connection points: 2
#     Edge 7, Type (0, 1), BuildingBlock: OJICUG_clean_linker_0, # of connection points: 2
#     Edge 8, Type (0, 1), BuildingBlock: OJICUG_clean_linker_0, # of connection points: 2
#     Edge 9, Type (0, 1), BuildingBlock: OJICUG_clean_linker_0, # of connection points: 2
#     Edge 10, Type (0, 1), BuildingBlock: OJICUG_clean_linker_0, # of connection points: 2
#     Edge 11, Type (0, 1), BuildingBlock: OJICUG_clean_linker_0, # of connection points: 2
#     Edge 12, Type (0, 1), BuildingBlock: OJICUG_clean_linker_0, # of connection points: 2
#     Edge 13, Type (0, 1), BuildingBlock: OJICUG_clean_linker_0, # of connection points: 2
#     Edge 14, Type (0, 1), BuildingBlock: OJICUG_clean_linker_0, # of connection points: 2
#     Edge 15, Type (0, 1), BuildingBlock: OJICUG_clean_linker_0, # of connection points: 2
#     Edge 16, Type (0, 1), BuildingBlock: OJICUG_clean_linker_0, # of connection points: 2
#     Edge 17, Type (0, 1), BuildingBlock: OJICUG_clean_linker_0, # of connection points: 2
# Relax obj value: 0.017
# Max RMSD: 0.110
# Mean RMSD: 0.083
data_MOF--net-rtl--node1-LEVNOQ01_clean_sbu_1--node2-BETDAH_clean_linker_0--edge1-OJICUG_clean_linker_0
_symmetry_space_group_name_H-M    P1
_symmetry_Int_Tables_number       1
_symmetry_cell_setting            triclinic
loop_
_symmetry_equiv_pos_as_xyz
'x, y, z'
_cell_length_a     26.042032
_cell_length_b     25.412795
_cell_length_c     16.136325
_cell_angle_alpha  91.420986
_cell_angle_beta   101.98409
_cell_angle_gamma 90.136398
loop_
_atom_site_label
_atom_site_type_symbol
_atom_site_fract_x
_atom_site_fract_y
_atom_site_fract_z
_atom_type_partial_charge
H0 H 0.12102 0.95107 0.00971 0.0
H1 H 0.21595 0.82493 0.12981 0.0
H2 H 0.19264 0.84226 0.86051 0.0
C3 C 0.14735 0.91858 0.00578 0.0
C4 C 0.15545 0.90158 0.92603 0.0
C5 C 0.16887 0.89138 0.07964 0.0
C6 C 0.20017 0.8469 0.07363 0.0
C7 C 0.20842 0.82911 0.99426 0.0
C8 C 0.186 0.85647 0.92124 0.0
N9 N 0.23582 0.7819 0.98416 0.0
C10 C 0.27274 0.75828 0.04695 0.0
H11 H 0.68442 0.6039 0.69423 0.0
H12 H 0.73596 0.73977 0.58168 0.0
H13 H 0.73417 0.744 0.84681 0.0
C14 C 0.69907 0.64394 0.70135 0.0
C15 C 0.70707 0.67024 0.78095 0.0
C16 C 0.70786 0.66915 0.62895 0.0
C17 C 0.72903 0.72033 0.63725 0.0
C18 C 0.74077 0.74621 0.7173 0.0
C19 C 0.72798 0.72181 0.78745 0.0
N20 N 0.76449 0.79709 0.72953 0.0
C21 C 0.79202 0.81915 0.6736 0.0
H22 H 0.83299 0.10246 0.89414 0.0
H23 H 0.79262 0.2433 0.01728 0.0
H24 H 0.79862 0.24503 0.75402 0.0
C25 C 0.82194 0.14347 0.89051 0.0
C26 C 0.817 0.16969 0.81337 0.0
C27 C 0.81473 0.17 0.96476 0.0
C28 C 0.79849 0.22273 0.96048 0.0
C29 C 0.79062 0.24886 0.88287 0.0
C30 C 0.80175 0.22288 0.81125 0.0
N31 N 0.77256 0.30157 0.87472 0.0
C32 C 0.74127 0.32417 0.92575 0.0
H33 H 0.3918 0.45778 0.55874 0.0
H34 H 0.32311 0.34801 0.70336 0.0
H35 H 0.29343 0.33116 0.43232 0.0
C36 C 0.36539 0.42514 0.56122 0.0
C37 C 0.34196 0.39806 0.48556 0.0
C38 C 0.35904 0.40783 0.64052 0.0
C39 C 0.32845 0.3625 0.64312 0.0
C40 C 0.3045 0.33497 0.5687 0.0
C41 C 0.3107 0.35316 0.48973 0.0
N42 N 0.27817 0.28699 0.57712 0.0
C43 C 0.24013 0.26194 0.51523 0.0
O44 O 0.91874 0.13086 0.5007 0.0
Mg45 Mg 0.99634 0.10045 0.52653 0.0
O46 O 0.92179 0.04801 0.52631 0.0
Mg47 Mg 0.98131 0.02151 0.43871 0.0
O48 O 0.04074 0.0971 0.43679 0.0
O49 O 0.04099 0.16445 0.53051 0.0
O50 O 0.03895 0.98543 0.35608 0.0
O51 O 0.926 0.05956 0.31997 0.0
Mg52 Mg 0.93055 0.93716 0.31529 0.0
O53 O 0.92762 0.94645 0.43986 0.0
O54 O 0.00293 0.91169 0.29527 0.0
O55 O 0.88858 0.99397 0.23642 0.0
O56 O 0.8874 0.88086 0.35502 0.0
C57 C 0.04407 1.00952 0.62927 0.0
C58 C 0.89952 0.09211 0.53057 0.0
C59 C 0.05845 0.1431 0.4688 0.0
C60 C 0.04177 0.94275 0.31358 0.0
C61 C 0.89461 0.04289 0.25249 0.0
C62 C 0.89829 0.90406 0.42872 0.0
O63 O 0.02747 0.05591 0.63785 0.0
O64 O 0.0353 0.98729 0.55606 0.0
O65 O 0.61586 0.49722 0.34327 0.0
Mg66 Mg 0.57506 0.44278 0.25315 0.0
O67 O 0.58828 0.56451 0.26225 0.0
Mg68 Mg 0.53341 0.52673 0.13919 0.0
O69 O 0.58693 0.45163 0.13381 0.0
O70 O 0.62015 0.38584 0.21882 0.0
O71 O 0.48046 0.49267 0.01762 0.0
O72 O 0.59529 0.55237 0.0563 0.0
Mg73 Mg 0.52213 0.60554 0.05796 0.0
O74 O 0.4746 0.60228 0.14293 0.0
O75 O 0.49174 0.56095 0.94219 0.0
O76 O 0.60061 0.63508 0.08984 0.0
O77 O 0.47884 0.67 0.05692 0.0
C78 C 0.46533 0.44834 0.24954 0.0
C79 C 0.61533 0.54622 0.33077 0.0
C80 C 0.6149 0.40887 0.14718 0.0
C81 C 0.4736 0.51482 0.94627 0.0
C82 C 0.61899 0.59618 0.0567 0.0
C83 C 0.45841 0.6483 0.11376 0.0
O84 O 0.50156 0.41487 0.2615 0.0
O85 O 0.47229 0.49241 0.21661 0.0
C86 C 0.14639 0.25578 0.45068 0.0
C87 C 0.19534 0.23142 0.47127 0.0
H88 H 0.06307 0.24547 0.43012 0.0
C89 C 0.19795 0.1762 0.46861 0.0
H90 H 0.14354 0.29831 0.45339 0.0
C91 C 0.15174 0.14573 0.45428 0.0
C92 C 0.10272 0.17041 0.4438 0.0
H93 H 0.23549 0.15671 0.48556 0.0
H94 H 0.15468 0.10349 0.46147 0.0
C95 C 0.10038 0.22548 0.43709 0.0
C96 C 0.31618 0.67527 0.0966 0.0
C97 C 0.31709 0.73049 0.09477 0.0
H98 H 0.36209 0.60467 0.10881 0.0
C99 C 0.36478 0.75742 0.12179 0.0
H100 H 0.27966 0.65381 0.07492 0.0
C101 C 0.41174 0.72945 0.14107 0.0
C102 C 0.4116 0.67417 0.1336 0.0
H103 H 0.36633 0.8 0.12004 0.0
H104 H 0.4485 0.75121 0.15304 0.0
C105 C 0.36329 0.64715 0.11666 0.0
C106 C 0.82806 0.80992 0.54547 0.0
C107 C 0.82146 0.84048 0.61556 0.0
H108 H 0.85807 0.80598 0.43233 0.0
C109 C 0.84324 0.89141 0.62811 0.0
H110 H 0.81225 0.77029 0.53533 0.0
C111 C 0.87028 0.91208 0.56928 0.0
C112 C 0.87527 0.88203 0.49708 0.0
H113 H 0.83874 0.9154 0.68257 0.0
H114 H 0.88577 0.95185 0.57897 0.0
C115 C 0.85451 0.83048 0.48672 0.0
C116 C 0.69498 0.31496 0.04181 0.0
C117 C 0.70727 0.3455 0.97779 0.0
H118 H 0.65542 0.31092 0.14454 0.0
C119 C 0.68633 0.39623 0.96496 0.0
H120 H 0.71022 0.27548 0.05184 0.0
C121 C 0.6543 0.41677 0.01777 0.0
C122 C 0.64335 0.38673 0.08412 0.0
H123 H 0.69527 0.42014 0.91503 0.0
H124 H 0.63952 0.45644 0.00831 0.0
C125 C 0.66343 0.33535 0.09457 0.0
C126 C 0.14459 0.9578 0.18307 0.0
C127 C 0.1507 0.90487 0.1589 0.0
H128 H 0.10558 0.01172 0.25359 0.0
C129 C 0.12987 0.86505 0.20117 0.0
H130 H 0.1608 0.9893 0.15214 0.0
C131 C 0.09838 0.87789 0.25873 0.0
C132 C 0.08746 0.93075 0.27571 0.0
H133 H 0.13363 0.82398 0.18398 0.0
H134 H 0.07926 0.84632 0.28503 0.0
C135 C 0.11332 0.97068 0.24147 0.0
C136 C 0.71218 0.66136 0.93943 0.0
C137 C 0.69054 0.64515 0.85494 0.0
H138 H 0.70614 0.65892 0.07023 0.0
C139 C 0.65024 0.60667 0.84156 0.0
H140 H 0.7443 0.68936 0.95398 0.0
C141 C 0.63111 0.58678 0.90915 0.0
C142 C 0.64995 0.60626 0.99189 0.0
H143 H 0.63077 0.59356 0.77864 0.0
H144 H 0.5984 0.55926 0.89551 0.0
C145 C 0.69121 0.64308 0.00681 0.0
C146 C 0.80807 0.09108 0.05133 0.0
C147 C 0.82728 0.14228 0.04654 0.0
H148 H 0.81349 0.02018 0.1205 0.0
C149 C 0.86395 0.16347 0.11602 0.0
H150 H 0.77936 0.07397 0.99922 0.0
C151 C 0.88396 0.13241 0.18615 0.0
C152 C 0.8675 0.07973 0.18773 0.0
H153 H 0.8796 0.20281 0.11377 0.0
H154 H 0.91432 0.14867 0.23659 0.0
C155 C 0.82782 0.06027 0.12096 0.0
C156 C 0.40811 0.40695 0.79315 0.0
C157 C 0.38705 0.4354 0.72019 0.0
H158 H 0.4517 0.40956 0.92144 0.0
C159 C 0.3945 0.49039 0.72316 0.0
H160 H 0.40426 0.36453 0.79318 0.0
C161 C 0.42292 0.51599 0.79617 0.0
C162 C 0.4439 0.48746 0.86875 0.0
H163 H 0.37815 0.5139 0.66909 0.0
H164 H 0.42794 0.55831 0.79599 0.0
C165 C 0.43581 0.43271 0.86667 0.0
C166 C 0.65721 0.66518 0.47768 0.0
C167 C 0.69204 0.64172 0.54497 0.0
H168 H 0.60522 0.65338 0.3562 0.0
C169 C 0.70608 0.58898 0.53576 0.0
H170 H 0.64554 0.70578 0.48334 0.0
C171 C 0.68299 0.55917 0.46396 0.0
C172 C 0.64521 0.58125 0.39916 0.0
H173 H 0.73332 0.57007 0.58603 0.0
H174 H 0.69343 0.51804 0.46087 0.0
C175 C 0.63396 0.63516 0.40516 0.0
C176 C 0.80988 0.15973 0.65438 0.0
C177 C 0.83101 0.14288 0.73717 0.0
H178 H 0.81541 0.15709 0.52331 0.0
C179 C 0.86874 0.10251 0.74674 0.0
H180 H 0.77943 0.18912 0.64291 0.0
C181 C 0.88666 0.08192 0.67701 0.0
C182 C 0.86892 0.10241 0.59631 0.0
H183 H 0.88726 0.08864 0.80849 0.0
H184 H 0.91784 0.05314 0.68772 0.0
C185 C 0.82955 0.14061 0.5851 0.0
C186 C 0.36643 0.46515 0.38754 0.0
C187 C 0.35814 0.41214 0.4056 0.0
H188 H 0.40668 0.51873 0.32155 0.0
C189 C 0.3751 0.37242 0.35576 0.0
H190 H 0.35295 0.49671 0.42386 0.0
C191 C 0.40537 0.38509 0.2971 0.0
C192 C 0.41925 0.43768 0.28686 0.0
H193 H 0.36956 0.33126 0.36771 0.0
H194 H 0.42174 0.3533 0.26501 0.0
C195 C 0.39677 0.47787 0.32843 0.0
C196 C 0.10828 0.90114 0.77231 0.0
C197 C 0.12923 0.92936 0.84808 0.0
H198 H 0.06508 0.90417 0.644 0.0
C199 C 0.12286 0.98436 0.84996 0.0
H200 H 0.11154 0.85873 0.76856 0.0
C201 C 0.09519 0.01019 0.77911 0.0
C202 C 0.07383 0.98189 0.7039 0.0
H203 H 0.13924 1.00766 0.90639 0.0
H204 H 0.0908 0.05249 0.78322 0.0
C205 C 0.0812 0.92715 0.70094 0.0
loop_
_geom_bond_atom_site_label_1
_geom_bond_atom_site_label_2
_geom_bond_distance
_geom_bond_site_symmetry_2
_ccdc_geom_bond_type
H0 C3 0.929 . S
H1 C6 0.929 . S
H2 C8 0.930 . S
C3 H0 0.929 . S
C3 C4 1.398 1_554 S
C3 C5 1.396 . S
C4 C3 1.398 1_556 S
C4 C8 1.407 . S
C5 C3 1.396 . S
C5 C6 1.394 . S
C6 H1 0.929 . S
C6 C5 1.394 . S
C6 C7 1.382 . S
C7 C6 1.382 . S
C7 C8 1.392 1_554 S
C7 N9 1.420 . S
C8 H2 0.930 . S
C8 C4 1.407 . S
C8 C7 1.392 1_556 S
N9 C7 1.420 . S
N9 C10 1.244 . S
C10 N9 1.244 . S
H11 C14 0.929 . S
H12 C17 0.929 . S
H13 C19 0.930 . S
C14 H11 0.929 . S
C14 C15 1.398 . S
C14 C16 1.396 . S
C15 C14 1.398 . S
C15 C19 1.407 . S
C16 C14 1.396 . S
C16 C17 1.394 . S
C17 H12 0.929 . S
C17 C16 1.394 . S
C17 C18 1.382 . S
C18 C17 1.382 . S
C18 C19 1.392 . S
C18 N20 1.420 . S
C19 H13 0.930 . S
C19 C15 1.407 . S
C19 C18 1.392 . S
N20 C18 1.420 . S
N20 C21 1.244 . S
C21 N20 1.244 . S
H22 C25 0.929 . S
H23 C28 0.929 . S
H24 C30 0.930 . S
C25 H22 0.929 . S
C25 C26 1.398 1_554 S
C25 C27 1.396 . S
C26 C25 1.398 1_556 S
C26 C30 1.407 . S
C27 C25 1.396 . S
C27 C28 1.394 . S
C28 H23 0.929 . S
C28 C27 1.394 . S
C28 C29 1.382 1_554 S
C29 C28 1.382 1_556 S
C29 C30 1.392 . S
C29 N31 1.420 . S
C30 H24 0.930 . S
C30 C26 1.407 . S
C30 C29 1.392 . S
N31 C29 1.420 . S
N31 C32 1.244 1_556 S
C32 N31 1.244 1_554 S
H33 C36 0.929 . S
H34 C39 0.929 . S
H35 C41 0.930 . S
C36 H33 0.929 . S
C36 C37 1.398 . S
C36 C38 1.396 . S
C37 C36 1.398 . S
C37 C41 1.407 . S
C38 C36 1.396 . S
C38 C39 1.394 . S
C39 H34 0.929 . S
C39 C38 1.394 . S
C39 C40 1.382 . S
C40 C39 1.382 . S
C40 C41 1.392 . S
C40 N42 1.420 . S
C41 H35 0.930 . S
C41 C37 1.407 . S
C41 C40 1.392 . S
N42 C40 1.420 . S
N42 C43 1.244 . S
C43 N42 1.244 . S
O44 Mg45 1.990 . S
O44 C58 1.253 1_455 S
Mg45 O44 1.990 . S
Mg45 O48 2.180 . S
Mg45 O49 2.117 . S
Mg45 O63 2.030 . S
O46 Mg47 2.072 1_655 S
O46 C58 1.260 . S
Mg47 O46 2.072 1_455 S
Mg47 O48 2.099 . S
Mg47 O50 2.079 1_545 S
Mg47 O51 2.072 1_455 S
Mg47 O53 2.099 1_445 S
Mg47 O64 2.079 1_545 S
O48 Mg45 2.180 . S
O48 Mg47 2.099 . S
O48 C59 1.279 . S
O49 Mg45 2.117 . S
O49 C59 1.250 . S
O50 Mg47 2.079 1_565 S
O50 C60 1.264 . S
O51 Mg47 2.072 1_655 S
O51 C61 1.260 . S
Mg52 O53 2.180 . S
Mg52 O54 2.030 1_655 S
Mg52 O55 1.990 1_565 S
Mg52 O56 2.117 . S
O53 Mg47 2.099 1_665 S
O53 Mg52 2.180 . S
O53 C62 1.279 . S
O54 Mg52 2.030 1_455 S
O54 C60 1.248 . S
O55 Mg52 1.990 1_545 S
O55 C61 1.253 . S
O56 Mg52 2.117 . S
O56 C62 1.250 . S
C57 O63 1.248 1_565 S
C57 O64 1.264 . S
C58 O44 1.253 1_655 S
C58 O46 1.260 . S
C59 O48 1.279 . S
C59 O49 1.250 . S
C60 O50 1.264 . S
C60 O54 1.248 . S
C61 O51 1.260 . S
C61 O55 1.253 . S
C62 O53 1.279 . S
C62 O56 1.250 . S
O63 Mg45 2.030 . S
O63 C57 1.248 1_545 S
O64 Mg47 2.079 1_565 S
O64 C57 1.264 . S
O65 Mg66 1.990 . S
O65 C79 1.253 . S
Mg66 O65 1.990 . S
Mg66 O69 2.180 . S
Mg66 O70 2.117 . S
Mg66 O84 2.030 . S
O67 Mg68 2.072 . S
O67 C79 1.260 . S
Mg68 O67 2.072 . S
Mg68 O69 2.099 . S
Mg68 O71 2.079 1_554 S
Mg68 O72 2.072 1_554 S
Mg68 O74 2.099 . S
Mg68 O85 2.079 . S
O69 Mg66 2.180 . S
O69 Mg68 2.099 . S
O69 C80 1.279 . S
O70 Mg66 2.117 . S
O70 C80 1.250 . S
O71 Mg68 2.079 1_556 S
O71 C81 1.264 . S
O72 Mg68 2.072 1_556 S
O72 C82 1.260 . S
Mg73 O74 2.180 1_556 S
Mg73 O75 2.030 . S
Mg73 O76 1.990 . S
Mg73 O77 2.117 . S
O74 Mg68 2.099 . S
O74 Mg73 2.180 1_554 S
O74 C83 1.279 . S
O75 Mg73 2.030 . S
O75 C81 1.248 . S
O76 Mg73 1.990 . S
O76 C82 1.253 . S
O77 Mg73 2.117 . S
O77 C83 1.250 1_556 S
C78 O84 1.248 . S
C78 O85 1.264 . S
C79 O65 1.253 . S
C79 O67 1.260 . S
C80 O69 1.279 . S
C80 O70 1.250 . S
C81 O71 1.264 . S
C81 O75 1.248 . S
C82 O72 1.260 . S
C82 O76 1.253 . S
C83 O74 1.279 . S
C83 O77 1.250 1_554 S
O84 Mg66 2.030 . S
O84 C78 1.248 . S
O85 Mg68 2.079 . S
O85 C78 1.264 . S
C86 C87 1.387 . S
C86 H90 0.950 . S
C86 C95 1.390 . S
C87 C86 1.387 . S
C87 C89 1.387 . S
H88 C95 0.950 . S
C89 C87 1.387 . S
C89 C91 1.390 . S
C89 H93 0.950 . S
H90 C86 0.950 . S
C91 C89 1.390 . S
C91 C92 1.387 . S
C91 H94 0.950 . S
C92 C91 1.387 . S
C92 C95 1.387 . S
H93 C89 0.950 . S
H94 C91 0.950 . S
C95 C86 1.390 . S
C95 H88 0.950 . S
C95 C92 1.387 . S
C96 C97 1.387 . S
C96 H100 0.950 1_554 S
C96 C105 1.390 . S
C97 C96 1.387 . S
C97 C99 1.387 . S
H98 C105 0.950 1_556 S
C99 C97 1.387 . S
C99 C101 1.390 . S
C99 H103 0.950 . S
H100 C96 0.950 1_556 S
C101 C99 1.390 . S
C101 C102 1.387 . S
C101 H104 0.950 . S
C102 C101 1.387 . S
C102 C105 1.387 . S
H103 C99 0.950 . S
H104 C101 0.950 . S
C105 C96 1.390 . S
C105 H98 0.950 1_554 S
C105 C102 1.387 . S
C106 C107 1.387 . S
C106 H110 0.950 . S
C106 C115 1.390 . S
C107 C106 1.387 . S
C107 C109 1.387 . S
H108 C115 0.950 . S
C109 C107 1.387 . S
C109 C111 1.390 . S
C109 H113 0.950 . S
H110 C106 0.950 . S
C111 C109 1.390 . S
C111 C112 1.387 . S
C111 H114 0.950 . S
C112 C111 1.387 . S
C112 C115 1.387 . S
H113 C109 0.950 . S
H114 C111 0.950 . S
C115 C106 1.390 . S
C115 H108 0.950 . S
C115 C112 1.387 . S
C116 C117 1.387 . S
C116 H120 0.950 . S
C116 C125 1.390 . S
C117 C116 1.387 . S
C117 C119 1.387 1_554 S
H118 C125 0.950 . S
C119 C117 1.387 1_556 S
C119 C121 1.390 . S
C119 H123 0.950 . S
H120 C116 0.950 . S
C121 C119 1.390 . S
C121 C122 1.387 1_556 S
C121 H124 0.950 . S
C122 C121 1.387 1_554 S
C122 C125 1.387 . S
H123 C119 0.950 . S
H124 C121 0.950 . S
C125 C116 1.390 . S
C125 H118 0.950 . S
C125 C122 1.387 . S
C126 C127 1.387 . S
C126 H130 0.950 . S
C126 C135 1.390 . S
C127 C126 1.387 . S
C127 C129 1.387 . S
H128 C135 0.950 . S
C129 C127 1.387 . S
C129 C131 1.390 . S
C129 H133 0.950 . S
H130 C126 0.950 . S
C131 C129 1.390 . S
C131 C132 1.387 . S
C131 H134 0.950 . S
C132 C131 1.387 . S
C132 C135 1.387 . S
H133 C129 0.950 . S
H134 C131 0.950 . S
C135 C126 1.390 . S
C135 H128 0.950 . S
C135 C132 1.387 . S
C136 C137 1.387 . S
C136 H140 0.950 . S
C136 C145 1.390 . S
C137 C136 1.387 . S
C137 C139 1.387 . S
H138 C145 0.950 . S
C139 C137 1.387 . S
C139 C141 1.390 . S
C139 H143 0.950 . S
H140 C136 0.950 . S
C141 C139 1.390 . S
C141 C142 1.387 . S
C141 H144 0.950 . S
C142 C141 1.387 . S
C142 C145 1.387 . S
H143 C139 0.950 . S
H144 C141 0.950 . S
C145 C136 1.390 . S
C145 H138 0.950 . S
C145 C142 1.387 . S
C146 C147 1.387 . S
C146 H150 0.950 . S
C146 C155 1.390 . S
C147 C146 1.387 . S
C147 C149 1.387 . S
H148 C155 0.950 . S
C149 C147 1.387 . S
C149 C151 1.390 . S
C149 H153 0.950 . S
H150 C146 0.950 . S
C151 C149 1.390 . S
C151 C152 1.387 . S
C151 H154 0.950 . S
C152 C151 1.387 . S
C152 C155 1.387 . S
H153 C149 0.950 . S
H154 C151 0.950 . S
C155 C146 1.390 . S
C155 H148 0.950 . S
C155 C152 1.387 . S
C156 C157 1.387 . S
C156 H160 0.950 . S
C156 C165 1.390 . S
C157 C156 1.387 . S
C157 C159 1.387 . S
H158 C165 0.950 . S
C159 C157 1.387 . S
C159 C161 1.390 . S
C159 H163 0.950 . S
H160 C156 0.950 . S
C161 C159 1.390 . S
C161 C162 1.387 . S
C161 H164 0.950 . S
C162 C161 1.387 . S
C162 C165 1.387 . S
H163 C159 0.950 . S
H164 C161 0.950 . S
C165 C156 1.390 . S
C165 H158 0.950 . S
C165 C162 1.387 . S
C166 C167 1.387 . S
C166 H170 0.950 . S
C166 C175 1.390 . S
C167 C166 1.387 . S
C167 C169 1.387 . S
H168 C175 0.950 . S
C169 C167 1.387 . S
C169 C171 1.390 . S
C169 H173 0.950 . S
H170 C166 0.950 . S
C171 C169 1.390 . S
C171 C172 1.387 . S
C171 H174 0.950 . S
C172 C171 1.387 . S
C172 C175 1.387 . S
H173 C169 0.950 . S
H174 C171 0.950 . S
C175 C166 1.390 . S
C175 H168 0.950 . S
C175 C172 1.387 . S
C176 C177 1.387 . S
C176 H180 0.950 . S
C176 C185 1.390 . S
C177 C176 1.387 . S
C177 C179 1.387 . S
H178 C185 0.950 . S
C179 C177 1.387 . S
C179 C181 1.390 . S
C179 H183 0.950 . S
H180 C176 0.950 . S
C181 C179 1.390 . S
C181 C182 1.387 . S
C181 H184 0.950 . S
C182 C181 1.387 . S
C182 C185 1.387 . S
H183 C179 0.950 . S
H184 C181 0.950 . S
C185 C176 1.390 . S
C185 H178 0.950 . S
C185 C182 1.387 . S
C186 C187 1.387 . S
C186 H190 0.950 . S
C186 C195 1.390 . S
C187 C186 1.387 . S
C187 C189 1.387 . S
H188 C195 0.950 . S
C189 C187 1.387 . S
C189 C191 1.390 . S
C189 H193 0.950 . S
H190 C186 0.950 . S
C191 C189 1.390 . S
C191 C192 1.387 . S
C191 H194 0.950 . S
C192 C191 1.387 . S
C192 C195 1.387 . S
H193 C189 0.950 . S
H194 C191 0.950 . S
C195 C186 1.390 . S
C195 H188 0.950 . S
C195 C192 1.387 . S
C196 C197 1.387 . S
C196 H200 0.950 . S
C196 C205 1.390 . S
C197 C196 1.387 . S
C197 C199 1.387 . S
H198 C205 0.950 . S
C199 C197 1.387 . S
C199 C201 1.390 . S
C199 H203 0.950 . S
H200 C196 0.950 . S
C201 C199 1.390 . S
C201 C202 1.387 . S
C201 H204 0.950 1_565 S
C202 C201 1.387 . S
C202 C205 1.387 . S
H203 C199 0.950 . S
H204 C201 0.950 1_545 S
C205 C196 1.390 . S
C205 H198 0.950 . S
C205 C202 1.387 . S
C92 C59 1.269 . S
C87 C43 1.461 . S
C97 C10 1.495 . S
C102 C83 1.315 . S
C107 C21 1.568 . S
C112 C62 1.388 . S
C117 C32 1.568 . S
C122 C80 1.361 . S
C132 C60 1.496 . S
C127 C5 1.495 . S
C142 C82 1.520 . S
C137 C15 1.594 . S
C147 C27 1.584 . S
C152 C61 1.542 . S
C157 C38 1.504 . S
C162 C81 1.449 . S
C172 C79 1.476 . S
C167 C16 1.520 . S
C182 C58 1.459 . S
C177 C26 1.527 . S
C192 C78 1.420 . S
C187 C37 1.452 . S
C197 C4 1.457 . S
C202 C57 1.396 . S
