# Generated by pormake.
# Topology rtl, (3,6)-cn, num edge types: 1
# Building blocks:
#     Node 0, Type 0, BuildingBlock: INOVEN_clean_linker_0, # of connection points: 3
#     Node 1, Type 0, BuildingBlock: INOVEN_clean_linker_0, # of connection points: 3
#     Node 2, Type 0, BuildingBlock: INOVEN_clean_linker_0, # of connection points: 3
#     Node 3, Type 0, BuildingBlock: INOVEN_clean_linker_0, # of connection points: 3
#     Node 4, Type 1, BuildingBlock: LEVNOQ01_clean_sbu_1, # of connection points: 6
#     Node 5, Type 1, BuildingBlock: LEVNOQ01_clean_sbu_1, # of connection points: 6
#     Edge 6, Type (0, 1), BuildingBlock: EYOCIG_clean_linker_4, # of connection points: 2
#     Edge 7, Type (0, 1), BuildingBlock: EYOCIG_clean_linker_4, # of connection points: 2
#     Edge 8, Type (0, 1), BuildingBlock: EYOCIG_clean_linker_4, # of connection points: 2
#     Edge 9, Type (0, 1), BuildingBlock: EYOCIG_clean_linker_4, # of connection points: 2
#     Edge 10, Type (0, 1), BuildingBlock: EYOCIG_clean_linker_4, # of connection points: 2
#     Edge 11, Type (0, 1), BuildingBlock: EYOCIG_clean_linker_4, # of connection points: 2
#     Edge 12, Type (0, 1), BuildingBlock: EYOCIG_clean_linker_4, # of connection points: 2
#     Edge 13, Type (0, 1), BuildingBlock: EYOCIG_clean_linker_4, # of connection points: 2
#     Edge 14, Type (0, 1), BuildingBlock: EYOCIG_clean_linker_4, # of connection points: 2
#     Edge 15, Type (0, 1), BuildingBlock: EYOCIG_clean_linker_4, # of connection points: 2
#     Edge 16, Type (0, 1), BuildingBlock: EYOCIG_clean_linker_4, # of connection points: 2
#     Edge 17, Type (0, 1), BuildingBlock: EYOCIG_clean_linker_4, # of connection points: 2
# Relax obj value: 0.016
# Max RMSD: 0.111
# Mean RMSD: 0.081
data_MOF--net-rtl--node1-LEVNOQ01_clean_sbu_1--node2-INOVEN_clean_linker_0--edge1-EYOCIG_clean_linker_4
_symmetry_space_group_name_H-M    P1
_symmetry_Int_Tables_number       1
_symmetry_cell_setting            triclinic
loop_
_symmetry_equiv_pos_as_xyz
'x, y, z'
_cell_length_a     28.290351
_cell_length_b     28.536952
_cell_length_c     17.558406
_cell_angle_alpha  91.549371
_cell_angle_beta   99.7895
_cell_angle_gamma 89.848822
loop_
_atom_site_label
_atom_site_type_symbol
_atom_site_fract_x
_atom_site_fract_y
_atom_site_fract_z
_atom_type_partial_charge
H0 H 0.2157 0.80623 0.95161 0.0
H1 H 0.12908 0.90146 0.06279 0.0
H2 H 0.23127 0.81253 0.20009 0.0
N3 N 0.26309 0.76958 0.07763 0.0
N4 N 0.28425 0.75281 0.13894 0.0
C5 C 0.20558 0.82121 0.00394 0.0
C6 C 0.16991 0.85558 0.99896 0.0
C7 C 0.22803 0.80545 0.076 0.0
C8 C 0.21461 0.82475 0.14398 0.0
C9 C 0.17901 0.85945 0.13926 0.0
C10 C 0.15685 0.8749 0.06664 0.0
H11 H 0.71489 0.70996 0.72924 0.0
H12 H 0.61808 0.62259 0.57055 0.0
H13 H 0.70047 0.72891 0.48368 0.0
N14 N 0.74787 0.75913 0.62409 0.0
N15 N 0.76219 0.77973 0.57065 0.0
C16 C 0.69854 0.7002 0.67058 0.0
C17 C 0.66495 0.66361 0.6571 0.0
C18 C 0.71179 0.72393 0.6086 0.0
C19 C 0.6904 0.71119 0.5324 0.0
C20 C 0.65665 0.67485 0.51875 0.0
C21 C 0.64395 0.65104 0.58113 0.0
H22 H 0.7983 0.20896 0.85376 0.0
H23 H 0.8916 0.12087 0.00776 0.0
H24 H 0.80915 0.22867 0.10018 0.0
N25 N 0.7645 0.25859 0.95976 0.0
N26 N 0.74832 0.27966 0.01262 0.0
C27 C 0.81372 0.1992 0.912 0.0
C28 C 0.8464 0.16228 0.92361 0.0
C29 C 0.79989 0.22324 0.97494 0.0
C30 C 0.81985 0.2106 0.05075 0.0
C31 C 0.85305 0.17383 0.06257 0.0
C32 C 0.86628 0.14965 0.99885 0.0
H33 H 0.27557 0.32756 0.34853 0.0
H34 H 0.37808 0.40409 0.51485 0.0
H35 H 0.28104 0.30735 0.59215 0.0
N36 N 0.23741 0.27917 0.44756 0.0
N37 N 0.22165 0.2566 0.49748 0.0
C38 C 0.29083 0.33629 0.40813 0.0
C39 C 0.32835 0.36875 0.4248 0.0
C40 C 0.27358 0.31383 0.46774 0.0
C41 C 0.29392 0.32456 0.54532 0.0
C42 C 0.3316 0.35707 0.56237 0.0
C43 C 0.34867 0.37923 0.50194 0.0
O44 O -0.00518 0.08858 0.69445 0.0
Mg45 Mg 0.0617 0.06875 0.66874 0.0
O46 O 0.95282 0.04105 0.60537 0.0
Mg47 Mg 0.00383 0.00747 0.52619 0.0
O48 O 0.05887 0.06725 0.55238 0.0
O49 O 0.10579 0.11674 0.63184 0.0
O50 O 0.05546 0.97311 0.447 0.0
O51 O 0.96682 0.05502 0.42637 0.0
Mg52 Mg 0.94702 0.94811 0.38279 0.0
O53 O 0.94656 0.94907 0.49914 0.0
O54 O 0.0136 0.92549 0.35813 0.0
O55 O 0.92183 0.01204 0.33433 0.0
O56 O 0.90034 0.90096 0.41587 0.0
C57 C 0.07218 0.96581 0.69041 0.0
C58 C 0.9555 0.07033 0.66235 0.0
C59 C 0.08984 0.10117 0.56269 0.0
C60 C 0.05307 0.94331 0.39058 0.0
C61 C 0.93767 0.05137 0.36245 0.0
C62 C 0.91431 0.91626 0.4858 0.0
O63 O 0.08851 0.00557 0.71535 0.0
O64 O 0.04165 0.96068 0.62796 0.0
O65 O 0.58563 0.51693 0.23362 0.0
Mg66 Mg 0.56082 0.45221 0.18305 0.0
O67 O 0.54183 0.55867 0.14225 0.0
Mg68 Mg 0.50399 0.50886 0.04163 0.0
O69 O 0.5614 0.45112 0.067 0.0
O70 O 0.60753 0.40463 0.1492 0.0
O71 O 0.46482 0.45888 0.94006 0.0
O72 O 0.55495 0.54034 0.9617 0.0
Mg73 Mg 0.44628 0.56626 0.90134 0.0
O74 O 0.44822 0.56826 0.01779 0.0
O75 O 0.41878 0.50207 0.85326 0.0
O76 O 0.51264 0.58594 0.87444 0.0
O77 O 0.40175 0.61558 0.93792 0.0
C78 C 0.45568 0.44829 0.17723 0.0
C79 C 0.57057 0.55588 0.20649 0.0
C80 C 0.59373 0.41864 0.07978 0.0
C81 C 0.4341 0.46267 0.87789 0.0
C82 C 0.55211 0.56838 0.90543 0.0
C83 C 0.41687 0.60178 0.00707 0.0
O84 O 0.49486 0.42994 0.20755 0.0
O85 O 0.45332 0.47718 0.12213 0.0
C86 C 0.15895 0.19021 0.46458 0.0
C87 C 0.18758 0.22184 0.47596 0.0
C88 C 0.12787 0.15261 0.47111 0.0
C89 C 0.10583 0.12416 0.50036 0.0
C90 C 0.34587 0.68671 0.12736 0.0
C91 C 0.31769 0.71747 0.13575 0.0
C92 C 0.37647 0.65179 0.1044 0.0
C93 C 0.39867 0.62523 0.06926 0.0
C94 C 0.82991 0.8418 0.58967 0.0
C95 C 0.7983 0.81311 0.58561 0.0
C96 C 0.86549 0.87363 0.57606 0.0
C97 C 0.89177 0.89712 0.54529 0.0
C98 C 0.68124 0.34168 0.98593 0.0
C99 C 0.71282 0.31301 0.99523 0.0
C100 C 0.64456 0.37418 0.99266 0.0
C101 C 0.61694 0.39869 0.02039 0.0
C102 C 0.1477 0.89549 0.26227 0.0
C103 C 0.16336 0.87793 0.2083 0.0
C104 C 0.12283 0.91548 0.31871 0.0
C105 C 0.09481 0.93112 0.35762 0.0
C106 C 0.63968 0.61813 0.77353 0.0
C107 C 0.65167 0.63927 0.72129 0.0
C108 C 0.61914 0.59563 0.83083 0.0
C109 C 0.59335 0.57972 0.87184 0.0
C110 C 0.88956 0.1441 0.2016 0.0
C111 C 0.87188 0.15912 0.1397 0.0
C112 C 0.90919 0.11955 0.26832 0.0
C113 C 0.92468 0.09179 0.31681 0.0
C114 C 0.37349 0.37859 0.70584 0.0
C115 C 0.35325 0.36758 0.64162 0.0
C116 C 0.39786 0.39792 0.77679 0.0
C117 C 0.41764 0.42254 0.82962 0.0
C118 C 0.6189 0.64679 0.37664 0.0
C119 C 0.63677 0.66048 0.44059 0.0
C120 C 0.59918 0.62392 0.30623 0.0
C121 C 0.58344 0.5968 0.25443 0.0
C122 C 0.87021 0.11747 0.80214 0.0
C123 C 0.85951 0.13775 0.85774 0.0
C124 C 0.88924 0.09621 0.74067 0.0
C125 C 0.91453 0.08084 0.69741 0.0
C126 C 0.3636 0.40662 0.31021 0.0
C127 C 0.34747 0.38932 0.3623 0.0
C128 C 0.3875 0.42485 0.25299 0.0
C129 C 0.41462 0.43858 0.21229 0.0
C130 C 0.12661 0.8835 0.86199 0.0
C131 C 0.14649 0.87061 0.92418 0.0
C132 C 0.10413 0.90311 0.79207 0.0
C133 C 0.0864 0.92708 0.73929 0.0
loop_
_geom_bond_atom_site_label_1
_geom_bond_atom_site_label_2
_geom_bond_distance
_geom_bond_site_symmetry_2
_ccdc_geom_bond_type
H0 C5 0.929 . S
H1 C10 0.931 . S
H2 C8 0.930 . S
N3 N4 1.234 . S
N3 C7 1.453 . S
N4 N3 1.234 . S
C5 H0 0.929 . S
C5 C6 1.373 . S
C5 C7 1.368 1_556 S
C6 C5 1.373 . S
C6 C10 1.397 1_556 S
C7 N3 1.453 . S
C7 C5 1.368 1_554 S
C7 C8 1.373 . S
C8 H2 0.930 . S
C8 C7 1.373 . S
C8 C9 1.371 . S
C9 C8 1.371 . S
C9 C10 1.383 . S
C10 H1 0.931 . S
C10 C6 1.397 1_554 S
C10 C9 1.383 . S
H11 C16 0.929 . S
H12 C21 0.931 . S
H13 C19 0.930 . S
N14 N15 1.234 . S
N14 C18 1.453 . S
N15 N14 1.234 . S
C16 H11 0.929 . S
C16 C17 1.373 . S
C16 C18 1.368 . S
C17 C16 1.373 . S
C17 C21 1.397 . S
C18 N14 1.453 . S
C18 C16 1.368 . S
C18 C19 1.373 . S
C19 H13 0.930 . S
C19 C18 1.373 . S
C19 C20 1.371 . S
C20 C19 1.371 . S
C20 C21 1.383 . S
C21 H12 0.931 . S
C21 C17 1.397 . S
C21 C20 1.383 . S
H22 C27 0.929 . S
H23 C32 0.931 . S
H24 C30 0.930 . S
N25 N26 1.234 1_556 S
N25 C29 1.453 . S
N26 N25 1.234 1_554 S
C27 H22 0.929 . S
C27 C28 1.373 . S
C27 C29 1.368 . S
C28 C27 1.373 . S
C28 C32 1.397 1_556 S
C29 N25 1.453 . S
C29 C27 1.368 . S
C29 C30 1.373 1_556 S
C30 H24 0.930 . S
C30 C29 1.373 1_554 S
C30 C31 1.371 . S
C31 C30 1.371 . S
C31 C32 1.383 . S
C32 H23 0.931 . S
C32 C28 1.397 1_554 S
C32 C31 1.383 . S
H33 C38 0.929 . S
H34 C43 0.931 . S
H35 C41 0.930 . S
N36 N37 1.234 . S
N36 C40 1.453 . S
N37 N36 1.234 . S
C38 H33 0.929 . S
C38 C39 1.373 . S
C38 C40 1.368 . S
C39 C38 1.373 . S
C39 C43 1.397 . S
C40 N36 1.453 . S
C40 C38 1.368 . S
C40 C41 1.373 . S
C41 H35 0.930 . S
C41 C40 1.373 . S
C41 C42 1.371 . S
C42 C41 1.371 . S
C42 C43 1.383 . S
C43 H34 0.931 . S
C43 C39 1.397 . S
C43 C42 1.383 . S
O44 Mg45 1.990 . S
O44 C58 1.253 1_455 S
Mg45 O44 1.990 . S
Mg45 O48 2.180 . S
Mg45 O49 2.117 . S
Mg45 O63 2.030 . S
O46 Mg47 2.072 1_655 S
O46 C58 1.260 . S
Mg47 O46 2.072 1_455 S
Mg47 O48 2.099 . S
Mg47 O50 2.079 1_545 S
Mg47 O51 2.072 1_455 S
Mg47 O53 2.099 1_445 S
Mg47 O64 2.079 1_545 S
O48 Mg45 2.180 . S
O48 Mg47 2.099 . S
O48 C59 1.279 . S
O49 Mg45 2.117 . S
O49 C59 1.250 . S
O50 Mg47 2.079 1_565 S
O50 C60 1.264 . S
O51 Mg47 2.072 1_655 S
O51 C61 1.260 . S
Mg52 O53 2.180 . S
Mg52 O54 2.030 1_655 S
Mg52 O55 1.990 1_565 S
Mg52 O56 2.117 . S
O53 Mg47 2.099 1_665 S
O53 Mg52 2.180 . S
O53 C62 1.279 . S
O54 Mg52 2.030 1_455 S
O54 C60 1.248 . S
O55 Mg52 1.990 1_545 S
O55 C61 1.253 . S
O56 Mg52 2.117 . S
O56 C62 1.250 . S
C57 O63 1.248 1_565 S
C57 O64 1.264 . S
C58 O44 1.253 1_655 S
C58 O46 1.260 . S
C59 O48 1.279 . S
C59 O49 1.250 . S
C60 O50 1.264 . S
C60 O54 1.248 . S
C61 O51 1.260 . S
C61 O55 1.253 . S
C62 O53 1.279 . S
C62 O56 1.250 . S
O63 Mg45 2.030 . S
O63 C57 1.248 1_545 S
O64 Mg47 2.079 1_565 S
O64 C57 1.264 . S
O65 Mg66 1.990 . S
O65 C79 1.253 . S
Mg66 O65 1.990 . S
Mg66 O69 2.180 . S
Mg66 O70 2.117 . S
Mg66 O84 2.030 . S
O67 Mg68 2.072 . S
O67 C79 1.260 . S
Mg68 O67 2.072 . S
Mg68 O69 2.099 . S
Mg68 O71 2.079 1_554 S
Mg68 O72 2.072 1_554 S
Mg68 O74 2.099 . S
Mg68 O85 2.079 . S
O69 Mg66 2.180 . S
O69 Mg68 2.099 . S
O69 C80 1.279 . S
O70 Mg66 2.117 . S
O70 C80 1.250 . S
O71 Mg68 2.079 1_556 S
O71 C81 1.264 . S
O72 Mg68 2.072 1_556 S
O72 C82 1.260 . S
Mg73 O74 2.180 1_556 S
Mg73 O75 2.030 . S
Mg73 O76 1.990 . S
Mg73 O77 2.117 . S
O74 Mg68 2.099 . S
O74 Mg73 2.180 1_554 S
O74 C83 1.279 . S
O75 Mg73 2.030 . S
O75 C81 1.248 . S
O76 Mg73 1.990 . S
O76 C82 1.253 . S
O77 Mg73 2.117 . S
O77 C83 1.250 1_556 S
C78 O84 1.248 . S
C78 O85 1.264 . S
C79 O65 1.253 . S
C79 O67 1.260 . S
C80 O69 1.279 . S
C80 O70 1.250 . S
C81 O71 1.264 . S
C81 O75 1.248 . S
C82 O72 1.260 . S
C82 O76 1.253 . S
C83 O74 1.279 . S
C83 O77 1.250 1_554 S
O84 Mg66 2.030 . S
O84 C78 1.248 . S
O85 Mg68 2.079 . S
O85 C78 1.264 . S
C86 C87 1.170 . S
C86 C88 1.380 . S
C87 C86 1.170 . S
C88 C86 1.380 . S
C88 C89 1.170 . S
C89 C88 1.170 . S
C90 C91 1.170 . S
C90 C92 1.380 . S
C91 C90 1.170 . S
C92 C90 1.380 . S
C92 C93 1.170 . S
C93 C92 1.170 . S
C94 C95 1.170 . S
C94 C96 1.380 . S
C95 C94 1.170 . S
C96 C94 1.380 . S
C96 C97 1.170 . S
C97 C96 1.170 . S
C98 C99 1.170 . S
C98 C100 1.380 . S
C99 C98 1.170 . S
C100 C98 1.380 . S
C100 C101 1.170 . S
C101 C100 1.170 . S
C102 C103 1.170 . S
C102 C104 1.380 . S
C103 C102 1.170 . S
C104 C102 1.380 . S
C104 C105 1.170 . S
C105 C104 1.170 . S
C106 C107 1.170 . S
C106 C108 1.380 . S
C107 C106 1.170 . S
C108 C106 1.380 . S
C108 C109 1.170 . S
C109 C108 1.170 . S
C110 C111 1.170 . S
C110 C112 1.380 . S
C111 C110 1.170 . S
C112 C110 1.380 . S
C112 C113 1.170 . S
C113 C112 1.170 . S
C114 C115 1.170 . S
C114 C116 1.380 . S
C115 C114 1.170 . S
C116 C114 1.380 . S
C116 C117 1.170 . S
C117 C116 1.170 . S
C118 C119 1.170 . S
C118 C120 1.380 . S
C119 C118 1.170 . S
C120 C118 1.380 . S
C120 C121 1.170 . S
C121 C120 1.170 . S
C122 C123 1.170 . S
C122 C124 1.380 . S
C123 C122 1.170 . S
C124 C122 1.380 . S
C124 C125 1.170 . S
C125 C124 1.170 . S
C126 C127 1.170 . S
C126 C128 1.380 . S
C127 C126 1.170 . S
C128 C126 1.380 . S
C128 C129 1.170 . S
C129 C128 1.170 . S
C130 C131 1.170 . S
C130 C132 1.380 . S
C131 C130 1.170 . S
C132 C130 1.380 . S
C132 C133 1.170 . S
C133 C132 1.170 . S
C89 C59 1.231 . S
C87 N37 1.450 . S
C91 N4 1.489 . S
C93 C83 1.268 . S
C95 N15 1.574 . S
C97 C62 1.422 . S
C99 N26 1.564 . S
C101 C80 1.336 . S
C105 C60 1.512 . S
C103 C9 1.497 . S
C109 C82 1.528 . S
C107 C17 1.595 . S
C111 C31 1.581 . S
C113 C61 1.554 . S
C115 C42 1.512 . S
C117 C81 1.450 . S
C121 C79 1.450 . S
C119 C20 1.504 . S
C125 C58 1.438 . S
C123 C28 1.519 . S
C129 C78 1.428 . S
C127 C39 1.443 . S
C131 C6 1.452 . S
C133 C57 1.367 . S
