# Generated by pormake.
# Topology tsx, (6,3)-cn, num edge types: 1
# Building blocks:
#     Node 0, Type 0, BuildingBlock: JUFBIX_clean_sbu_0, # of connection points: 6
#     Node 1, Type 0, BuildingBlock: JUFBIX_clean_sbu_0, # of connection points: 6
#     Node 2, Type 1, BuildingBlock: BETDIP_clean_linker_0, # of connection points: 3
#     Node 3, Type 1, BuildingBlock: BETDIP_clean_linker_0, # of connection points: 3
#     Node 4, Type 1, BuildingBlock: BETDIP_clean_linker_0, # of connection points: 3
#     Node 5, Type 1, BuildingBlock: BETDIP_clean_linker_0, # of connection points: 3
#     Edge 6, Type (0, 1), BuildingBlock: EYOCIG_clean_linker_4, # of connection points: 2
#     Edge 7, Type (0, 1), BuildingBlock: EYOCIG_clean_linker_4, # of connection points: 2
#     Edge 8, Type (0, 1), BuildingBlock: EYOCIG_clean_linker_4, # of connection points: 2
#     Edge 9, Type (0, 1), BuildingBlock: EYOCIG_clean_linker_4, # of connection points: 2
#     Edge 10, Type (0, 1), BuildingBlock: EYOCIG_clean_linker_4, # of connection points: 2
#     Edge 11, Type (0, 1), BuildingBlock: EYOCIG_clean_linker_4, # of connection points: 2
#     Edge 12, Type (0, 1), BuildingBlock: EYOCIG_clean_linker_4, # of connection points: 2
#     Edge 13, Type (0, 1), BuildingBlock: EYOCIG_clean_linker_4, # of connection points: 2
#     Edge 14, Type (0, 1), BuildingBlock: EYOCIG_clean_linker_4, # of connection points: 2
#     Edge 15, Type (0, 1), BuildingBlock: EYOCIG_clean_linker_4, # of connection points: 2
#     Edge 16, Type (0, 1), BuildingBlock: EYOCIG_clean_linker_4, # of connection points: 2
#     Edge 17, Type (0, 1), BuildingBlock: EYOCIG_clean_linker_4, # of connection points: 2
# Relax obj value: 0.106
# Max RMSD: 0.135
# Mean RMSD: 0.119
data_MOF--net-tsx--node1-JUFBIX_clean_sbu_0--node2-BETDIP_clean_linker_0--edge1-EYOCIG_clean_linker_4
_symmetry_space_group_name_H-M    P1
_symmetry_Int_Tables_number       1
_symmetry_cell_setting            triclinic
loop_
_symmetry_equiv_pos_as_xyz
'x, y, z'
_cell_length_a     16.5159
_cell_length_b     18.929127
_cell_length_c     26.838641
_cell_angle_alpha  92.186338
_cell_angle_beta   99.453865
_cell_angle_gamma 101.44265
loop_
_atom_site_label
_atom_site_type_symbol
_atom_site_fract_x
_atom_site_fract_y
_atom_site_fract_z
_atom_type_partial_charge
Co0 Co 0.06867 0.97744 -0.02663 0.0
C1 C 0.98133 0.0175 0.88395 0.0
Co2 Co 0.97438 0.04295 -0.01593 0.0
C3 C 0.16852 0.86399 -0.02479 0.0
C4 C 0.20361 0.95 0.9283 0.0
N5 N 0.1497 0.92713 0.95997 0.0
N6 N 0.23196 0.84771 0.95407 0.0
C7 C 0.25412 0.90139 0.9247 0.0
H8 H 0.13594 0.83047 0.00055 0.0
H9 H 0.20533 0.99874 0.90838 0.0
C10 C 0.06253 1.00386 0.0734 0.0
N11 N 0.89503 0.09513 -0.00398 0.0
C12 C 0.87784 0.15458 -0.02617 0.0
C13 C 0.84219 0.08216 0.02959 0.0
N14 N 0.81666 0.17876 -0.00763 0.0
C15 C 0.79368 0.13375 0.02734 0.0
C16 C 0.9129 0.89383 -0.02389 0.0
O17 O 0.09961 0.97194 0.04433 0.0
O18 O 0.0068 0.03772 0.05491 0.0
O19 O 0.89426 0.95526 -0.01838 0.0
O20 O 0.98682 0.88958 -0.0296 0.0
O21 O 0.94313 0.04791 0.91301 0.0
H22 H 0.83914 0.03798 0.05408 0.0
H23 H 0.90938 0.17948 0.94462 0.0
O24 O 0.0369 0.98368 0.90249 0.0
O25 O 0.14943 0.0662 -0.02251 0.0
O26 O 0.05493 0.12994 -0.01282 0.0
C27 C 0.12974 0.12699 -0.01635 0.0
H28 H 0.30276 0.90461 0.90178 0.0
H29 H 0.74517 0.13775 0.04934 0.0
Co30 Co 0.56793 0.47724 0.47301 0.0
C31 C 0.48066 0.51778 0.38373 0.0
Co32 Co 0.47392 0.54294 0.48391 0.0
C33 C 0.66787 0.36383 0.4749 0.0
C34 C 0.7022 0.44938 0.42748 0.0
N35 N 0.64871 0.42677 0.45944 0.0
N36 N 0.73109 0.34743 0.45361 0.0
C37 C 0.75278 0.40081 0.42391 0.0
H38 H 0.63574 0.3306 0.50056 0.0
H39 H 0.70365 0.49796 0.4074 0.0
C40 C 0.56195 0.50334 0.5731 0.0
N41 N 0.39484 0.59531 0.49602 0.0
C42 C 0.37778 0.65484 0.47388 0.0
C43 C 0.34206 0.58244 0.52964 0.0
N44 N 0.31675 0.67915 0.49248 0.0
C45 C 0.29373 0.63416 0.52746 0.0
C46 C 0.41201 0.39388 0.47577 0.0
O47 O 0.59893 0.47148 0.54394 0.0
O48 O 0.50635 0.5374 0.55471 0.0
O49 O 0.39355 0.45537 0.48136 0.0
O50 O 0.48587 0.38951 0.46998 0.0
O51 O 0.44263 0.54821 0.41288 0.0
H52 H 0.33893 0.53823 0.5541 0.0
H53 H 0.40929 0.67968 0.44464 0.0
O54 O 0.53607 0.48374 0.40216 0.0
O55 O 0.64894 0.56585 0.47719 0.0
O56 O 0.55474 0.6298 0.48713 0.0
C57 C 0.62948 0.62671 0.4835 0.0
H58 H 0.80121 0.4039 0.40085 0.0
H59 H 0.24529 0.63825 0.5495 0.0
H60 H 0.08801 0.97822 0.46666 0.0
H61 H 0.01412 0.07021 0.32586 0.0
H62 H 0.17385 0.91653 0.3321 0.0
H63 H 0.99349 0.15951 0.37716 0.0
C64 C 0.96864 0.13123 0.40754 0.0
C65 C 0.09012 0.98362 0.4269 0.0
C66 C 0.13581 0.94241 0.40249 0.0
C67 C 0.04661 0.03096 0.39997 0.0
C68 C 0.04959 0.0364 0.34806 0.0
C69 C 0.09604 0.99568 0.3239 0.0
C70 C 0.13919 0.94899 0.35114 0.0
N71 N 0.99704 0.06912 0.42518 0.0
H72 H 0.95771 0.96943 0.49094 0.0
H73 H 0.05508 0.0994 0.63171 0.0
H74 H 0.86168 0.90921 0.62581 0.0
H75 H 0.09414 0.18689 0.58002 0.0
C76 C 0.11129 0.15827 0.5489 0.0
C77 C 0.95797 0.98034 0.53081 0.0
C78 C 0.90384 0.93287 0.55528 0.0
C79 C 0.01235 0.04141 0.55764 0.0
C80 C 0.01181 0.05425 0.60967 0.0
C81 C 0.95707 1.00683 0.63399 0.0
C82 C 0.90318 0.9464 0.60674 0.0
N83 N 0.06926 0.08643 0.53192 0.0
H84 H 0.58773 0.47786 0.96646 0.0
H85 H 0.51327 0.56916 0.82546 0.0
H86 H 0.67287 0.41538 0.83183 0.0
H87 H 0.49209 0.65837 0.87638 0.0
C88 C 0.4678 0.63043 0.90704 0.0
C89 C 0.58962 0.48301 0.92666 0.0
C90 C 0.63513 0.44162 0.90225 0.0
C91 C 0.54602 0.53025 0.89966 0.0
C92 C 0.54877 0.53541 0.8477 0.0
C93 C 0.5951 0.49456 0.82357 0.0
C94 C 0.63829 0.44794 0.85086 0.0
N95 N 0.49666 0.56861 0.92489 0.0
H96 H 0.45768 0.4697 -0.00911 0.0
H97 H 0.5549 0.60009 0.1315 0.0
H98 H 0.36128 0.4101 0.12574 0.0
H99 H 0.594 0.68738 0.07964 0.0
C100 C 0.61133 0.65859 0.04866 0.0
C101 C 0.45785 0.48078 0.03073 0.0
C102 C 0.4036 0.43347 0.05522 0.0
C103 C 0.51224 0.54189 0.0575 0.0
C104 C 0.5116 0.55493 0.10949 0.0
C105 C 0.45676 0.50765 0.13385 0.0
C106 C 0.40285 0.44719 0.10665 0.0
N107 N 0.56929 0.58672 0.03177 0.0
C108 C 0.24391 0.24824 -0.00291 0.0
C109 C 0.19311 0.19202 -0.0092 0.0
C110 C 0.30192 0.31419 0.01101 0.0
C111 C 0.34983 0.3694 0.02848 0.0
C112 C 0.30776 0.73966 0.95686 0.0
C113 C 0.26834 0.78674 0.95857 0.0
C114 C 0.36116 0.6932 0.94634 0.0
C115 C 0.4095 0.6608 0.93128 0.0
C116 C 0.79618 0.78259 -0.01023 0.0
C117 C 0.85269 0.83039 -0.01709 0.0
C118 C 0.73006 0.73331 0.00504 0.0
C119 C 0.67493 0.69658 0.02285 0.0
C120 C 0.75067 0.28829 0.96438 0.0
C121 C 0.78149 0.23773 -0.02288 0.0
C122 C 0.71134 0.3447 0.94705 0.0
C123 C 0.67552 0.38968 0.92872 0.0
C124 C 0.74392 0.7478 0.49703 0.0
C125 C 0.69301 0.69164 0.49069 0.0
C126 C 0.80204 0.81368 0.51097 0.0
C127 C 0.85001 0.86887 0.52846 0.0
C128 C 0.80758 0.2398 0.45684 0.0
C129 C 0.76787 0.28671 0.45838 0.0
C130 C 0.86133 0.19357 0.44649 0.0
C131 C 0.90996 0.16136 0.43159 0.0
C132 C 0.29532 0.2827 0.48958 0.0
C133 C 0.35177 0.33051 0.48265 0.0
C134 C 0.22943 0.23333 0.50499 0.0
C135 C 0.17456 0.19647 0.52294 0.0
C136 C 0.251 0.78883 0.46453 0.0
C137 C 0.2817 0.73819 0.47726 0.0
C138 C 0.21181 0.84531 0.4472 0.0
C139 C 0.17608 0.89035 0.42889 0.0
C140 C 0.0914 1.00101 0.17273 0.0
C141 C 0.08097 1.00045 0.12722 0.0
C142 C 0.09633 1.00095 0.22567 0.0
C143 C 0.09598 0.99876 0.27043 0.0
C144 C 0.95837 0.0252 0.78497 0.0
C145 C 0.96557 0.02383 0.83032 0.0
C146 C 0.95684 0.02341 0.73221 0.0
C147 C 0.95859 0.01752 0.68755 0.0
C148 C 0.59058 0.49994 0.67239 0.0
C149 C 0.58028 0.49962 0.62689 0.0
C150 C 0.59539 0.49973 0.72533 0.0
C151 C 0.59505 0.49757 0.77009 0.0
C152 C 0.45782 0.52595 0.28479 0.0
C153 C 0.46496 0.52439 0.33013 0.0
C154 C 0.45641 0.52431 0.23205 0.0
C155 C 0.45826 0.51844 0.1874 0.0
loop_
_geom_bond_atom_site_label_1
_geom_bond_atom_site_label_2
_geom_bond_distance
_geom_bond_site_symmetry_2
_ccdc_geom_bond_type
Co0 N5 2.057 . S
Co0 O17 2.021 . S
Co0 O20 2.062 1_455 S
Co0 O24 2.117 1_554 S
Co0 O25 2.020 1_565 S
C1 O21 1.259 1_455 S
C1 O24 1.258 1_545 S
Co2 N11 2.063 . S
Co2 O18 2.136 . S
Co2 O19 2.025 1_544 S
Co2 O21 2.000 1_554 S
Co2 O26 2.059 1_655 S
C3 N5 1.316 . S
C3 N6 1.347 . S
C3 H8 0.931 . S
C4 N5 1.375 1_556 S
C4 C7 1.350 . S
C4 H9 0.930 . S
N5 Co0 2.057 . S
N5 C3 1.316 . S
N5 C4 1.375 1_554 S
N6 C3 1.347 . S
N6 C7 1.373 1_554 S
C7 C4 1.350 . S
C7 N6 1.373 1_556 S
C7 H28 0.931 . S
H8 C3 0.931 . S
H9 C4 0.930 . S
C10 O17 1.255 1_545 S
C10 O18 1.262 1_455 S
N11 Co2 2.063 . S
N11 C12 1.316 1_554 S
N11 C13 1.375 . S
C12 N11 1.316 1_556 S
C12 N14 1.347 1_556 S
C12 H23 0.931 . S
C13 N11 1.375 . S
C13 C15 1.350 . S
C13 H22 0.930 . S
N14 C12 1.347 1_554 S
N14 C15 1.373 . S
C15 C13 1.350 . S
C15 N14 1.373 . S
C15 H29 0.931 . S
C16 O19 1.254 1_554 S
C16 O20 1.255 . S
O17 Co0 2.021 . S
O17 C10 1.255 1_565 S
O18 Co2 2.136 . S
O18 C10 1.262 1_655 S
O19 Co2 2.025 1_566 S
O19 C16 1.254 1_556 S
O20 Co0 2.062 1_655 S
O20 C16 1.255 . S
O21 C1 1.259 1_655 S
O21 Co2 2.000 1_556 S
H22 C13 0.930 . S
H23 C12 0.931 . S
O24 Co0 2.117 1_556 S
O24 C1 1.258 1_565 S
O25 Co0 2.020 1_545 S
O25 C27 1.256 . S
O26 Co2 2.059 1_455 S
O26 C27 1.255 . S
C27 O25 1.256 . S
C27 O26 1.255 . S
H28 C7 0.931 . S
H29 C15 0.931 . S
Co30 N35 2.057 . S
Co30 O47 2.021 . S
Co30 O50 2.062 . S
Co30 O54 2.117 . S
Co30 O55 2.020 . S
C31 O51 1.259 . S
C31 O54 1.258 . S
Co32 N41 2.057 . S
Co32 O48 2.117 . S
Co32 O49 2.020 . S
Co32 O51 2.021 . S
Co32 O56 2.062 . S
C33 N35 1.316 . S
C33 N36 1.347 . S
C33 H38 0.931 . S
C34 N35 1.375 . S
C34 C37 1.350 . S
C34 H39 0.930 . S
N35 Co30 2.057 . S
N35 C33 1.316 . S
N35 C34 1.375 . S
N36 C33 1.347 . S
N36 C37 1.373 . S
C37 C34 1.350 . S
C37 N36 1.373 . S
C37 H58 0.931 . S
H38 C33 0.931 . S
H39 C34 0.930 . S
C40 O47 1.259 . S
C40 O48 1.258 . S
N41 Co32 2.057 . S
N41 C42 1.316 . S
N41 C43 1.375 . S
C42 N41 1.316 . S
C42 N44 1.347 . S
C42 H53 0.931 . S
C43 N41 1.375 . S
C43 C45 1.350 . S
C43 H52 0.930 . S
N44 C42 1.347 . S
N44 C45 1.373 . S
C45 C43 1.350 . S
C45 N44 1.373 . S
C45 H59 0.931 . S
C46 O49 1.256 . S
C46 O50 1.255 . S
O47 Co30 2.021 . S
O47 C40 1.259 . S
O48 Co32 2.117 . S
O48 C40 1.258 . S
O49 Co32 2.020 . S
O49 C46 1.256 . S
O50 Co30 2.062 . S
O50 C46 1.255 . S
O51 C31 1.259 . S
O51 Co32 2.021 . S
H52 C43 0.930 . S
H53 C42 0.931 . S
O54 Co30 2.117 . S
O54 C31 1.258 . S
O55 Co30 2.020 . S
O55 C57 1.256 . S
O56 Co32 2.062 . S
O56 C57 1.255 . S
C57 O55 1.256 . S
C57 O56 1.255 . S
H58 C37 0.931 . S
H59 C45 0.931 . S
H60 C65 0.930 . S
H61 C68 0.930 1_655 S
H62 C70 0.930 . S
H63 C64 1.016 . S
C64 H63 1.016 . S
C64 N71 1.286 . S
C65 H60 0.930 . S
C65 C66 1.397 . S
C65 C67 1.361 1_565 S
C66 C65 1.397 . S
C66 C70 1.390 . S
C67 C65 1.361 1_545 S
C67 C68 1.393 . S
C67 N71 1.413 1_455 S
C68 H61 0.930 1_455 S
C68 C67 1.393 . S
C68 C69 1.399 1_545 S
C69 C68 1.399 1_565 S
C69 C70 1.381 . S
C70 H62 0.930 . S
C70 C66 1.390 . S
C70 C69 1.381 . S
N71 C64 1.286 . S
N71 C67 1.413 1_655 S
H72 C77 0.930 . S
H73 C80 0.930 . S
H74 C82 0.930 . S
H75 C76 1.016 . S
C76 H75 1.016 . S
C76 N83 1.286 . S
C77 H72 0.930 . S
C77 C78 1.397 . S
C77 C79 1.361 1_665 S
C78 C77 1.397 . S
C78 C82 1.390 . S
C79 C77 1.361 1_445 S
C79 C80 1.393 . S
C79 N83 1.413 . S
C80 H73 0.930 . S
C80 C79 1.393 . S
C80 C81 1.399 1_445 S
C81 C80 1.399 1_665 S
C81 C82 1.381 . S
C82 H74 0.930 . S
C82 C78 1.390 . S
C82 C81 1.381 . S
N83 C76 1.286 . S
N83 C79 1.413 . S
H84 C89 0.930 1_554 S
H85 C92 0.930 . S
H86 C94 0.930 . S
H87 C88 1.016 . S
C88 H87 1.016 . S
C88 N95 1.286 . S
C89 H84 0.930 1_556 S
C89 C90 1.397 . S
C89 C91 1.361 . S
C90 C89 1.397 . S
C90 C94 1.390 . S
C91 C89 1.361 . S
C91 C92 1.393 . S
C91 N95 1.413 . S
C92 H85 0.930 . S
C92 C91 1.393 . S
C92 C93 1.399 . S
C93 C92 1.399 . S
C93 C94 1.381 . S
C94 H86 0.930 . S
C94 C90 1.390 . S
C94 C93 1.381 . S
N95 C88 1.286 . S
N95 C91 1.413 . S
H96 C101 0.930 1_556 S
H97 C104 0.930 . S
H98 C106 0.930 . S
H99 C100 1.016 . S
C100 H99 1.016 . S
C100 N107 1.286 . S
C101 H96 0.930 1_554 S
C101 C102 1.397 . S
C101 C103 1.361 . S
C102 C101 1.397 . S
C102 C106 1.390 . S
C103 C101 1.361 . S
C103 C104 1.393 . S
C103 N107 1.413 . S
C104 H97 0.930 . S
C104 C103 1.393 . S
C104 C105 1.399 . S
C105 C104 1.399 . S
C105 C106 1.381 . S
C106 H98 0.930 . S
C106 C102 1.390 . S
C106 C105 1.381 . S
N107 C100 1.286 . S
N107 C103 1.413 . S
C108 C109 1.170 . S
C108 C110 1.380 . S
C109 C108 1.170 . S
C110 C108 1.380 . S
C110 C111 1.170 . S
C111 C110 1.170 . S
C112 C113 1.170 . S
C112 C114 1.380 . S
C113 C112 1.170 . S
C114 C112 1.380 . S
C114 C115 1.170 . S
C115 C114 1.170 . S
C116 C117 1.170 . S
C116 C118 1.380 . S
C117 C116 1.170 . S
C118 C116 1.380 . S
C118 C119 1.170 . S
C119 C118 1.170 . S
C120 C121 1.170 . S
C120 C122 1.380 . S
C121 C120 1.170 . S
C122 C120 1.380 . S
C122 C123 1.170 . S
C123 C122 1.170 . S
C124 C125 1.170 . S
C124 C126 1.380 . S
C125 C124 1.170 . S
C126 C124 1.380 . S
C126 C127 1.170 . S
C127 C126 1.170 . S
C128 C129 1.170 . S
C128 C130 1.380 . S
C129 C128 1.170 . S
C130 C128 1.380 . S
C130 C131 1.170 . S
C131 C130 1.170 . S
C132 C133 1.170 . S
C132 C134 1.380 . S
C133 C132 1.170 . S
C134 C132 1.380 . S
C134 C135 1.170 . S
C135 C134 1.170 . S
C136 C137 1.170 . S
C136 C138 1.380 . S
C137 C136 1.170 . S
C138 C136 1.380 . S
C138 C139 1.170 . S
C139 C138 1.170 . S
C140 C141 1.171 . S
C140 C142 1.379 1_545 S
C141 C140 1.171 . S
C142 C140 1.379 1_565 S
C142 C143 1.170 . S
C143 C142 1.170 . S
C144 C145 1.171 . S
C144 C146 1.380 . S
C145 C144 1.171 . S
C146 C144 1.380 . S
C146 C147 1.170 . S
C147 C146 1.170 . S
C148 C149 1.170 . S
C148 C150 1.380 . S
C149 C148 1.170 . S
C150 C148 1.380 . S
C150 C151 1.170 . S
C151 C150 1.170 . S
C152 C153 1.170 . S
C152 C154 1.380 . S
C153 C152 1.170 . S
C154 C152 1.380 . S
C154 C155 1.170 . S
C155 C154 1.170 . S
C111 C102 1.482 . S
C109 C27 1.496 . S
C113 N6 1.381 . S
C115 C88 1.407 1_554 S
C117 C16 1.469 . S
C119 C100 1.426 . S
C121 N14 1.436 1_556 S
C123 C90 1.440 . S
C125 C57 1.499 . S
C127 C78 1.477 . S
C129 N36 1.411 . S
C131 C64 1.427 . S
C135 C76 1.396 . S
C133 C46 1.460 . S
C139 C66 1.442 . S
C137 N44 1.435 . S
C141 C10 1.475 . S
C143 C69 1.475 . S
C145 C1 1.545 1_665 S
C147 C81 1.539 . S
C151 C93 1.476 . S
C149 C40 1.475 . S
C153 C31 1.545 . S
C155 C105 1.545 . S
