# Generated by pormake.
# Topology pth, (4,4)-cn, num edge types: 1
# Building blocks:
#     Node 0, Type 0, BuildingBlock: AZAVOO_clean_sbu_0, # of connection points: 4
#     Node 1, Type 0, BuildingBlock: AZAVOO_clean_sbu_0, # of connection points: 4
#     Node 2, Type 0, BuildingBlock: AZAVOO_clean_sbu_0, # of connection points: 4
#     Node 3, Type 1, BuildingBlock: NAWXER_clean_linker_0, # of connection points: 4
#     Node 4, Type 1, BuildingBlock: NAWXER_clean_linker_0, # of connection points: 4
#     Node 5, Type 1, BuildingBlock: NAWXER_clean_linker_0, # of connection points: 4
#     Edge 6, Type (0, 1), None
#     Edge 7, Type (0, 1), None
#     Edge 8, Type (0, 1), None
#     Edge 9, Type (0, 1), None
#     Edge 10, Type (0, 1), None
#     Edge 11, Type (0, 1), None
#     Edge 12, Type (0, 1), None
#     Edge 13, Type (0, 1), None
#     Edge 14, Type (0, 1), None
#     Edge 15, Type (0, 1), None
#     Edge 16, Type (0, 1), None
#     Edge 17, Type (0, 1), None
# Relax obj value: 0.066
# Max RMSD: 0.217
# Mean RMSD: 0.104
data_MOF--net-pth--node1-AZAVOO_clean_sbu_0--node2-NAWXER_clean_linker_0--edge1-none
_symmetry_space_group_name_H-M    P1
_symmetry_Int_Tables_number       1
_symmetry_cell_setting            triclinic
loop_
_symmetry_equiv_pos_as_xyz
'x, y, z'
_cell_length_a     15.336522
_cell_length_b     15.575385
_cell_length_c     37.050501
_cell_angle_alpha  92.061983
_cell_angle_beta   94.095005
_cell_angle_gamma 121.87761
loop_
_atom_site_label
_atom_site_type_symbol
_atom_site_fract_x
_atom_site_fract_y
_atom_site_fract_z
_atom_type_partial_charge
Mg0 Mg 0.17573 0.0791 0.02151 0.0
O1 O 0.02827 0.97111 -0.01625 0.0
O2 O 0.98458 0.06385 0.95177 0.0
Mg3 Mg 0.10478 0.23161 0.96828 0.0
C4 C 0.96888 0.97807 0.95975 0.0
C5 C 0.164 0.95251 0.08706 0.0
O6 O 0.21021 0.04298 0.10467 0.0
O7 O 0.09283 0.1233 0.06014 0.0
O8 O 0.06057 0.22142 0.02626 0.0
O9 O 0.27306 0.08733 -0.0227 0.0
O10 O 0.21794 0.19119 -0.0143 0.0
C11 C 0.05917 0.18225 0.05606 0.0
C12 C 0.26602 0.16204 0.96676 0.0
O13 O 0.14306 0.94363 0.05283 0.0
Mg14 Mg 0.91712 0.9773 0.34496 0.0
O15 O 0.06355 0.02311 0.38211 0.0
O16 O 0.11647 0.16914 0.41423 0.0
Mg17 Mg 0.00241 0.21732 0.39822 0.0
C18 C 0.1266 0.09489 0.40586 0.0
C19 C 0.91691 0.84096 0.27988 0.0
O20 O 0.87049 0.87999 0.26215 0.0
O21 O 0.00381 0.0982 0.306 0.0
O22 O 0.04315 0.23859 0.3397 0.0
O23 O 0.8172 0.89759 0.38935 0.0
O24 O 0.88128 0.05856 0.38059 0.0
C25 C 0.04107 0.19362 0.30984 0.0
C26 C 0.82824 0.98364 0.39936 0.0
O27 O 0.94187 0.86369 0.31388 0.0
Mg28 Mg 0.9866 0.97125 0.67961 0.0
O29 O 0.1002 0.10969 0.71844 0.0
O30 O 0.01285 0.1601 0.74922 0.0
Mg31 Mg 0.84023 0.04649 0.73192 0.0
C32 C 0.09748 0.16937 0.74213 0.0
C33 C 0.10231 0.97157 0.6145 0.0
O34 O 0.00634 0.92129 0.59937 0.0
O35 O 0.94591 0.05853 0.64105 0.0
O36 O 0.84704 0.09086 0.67333 0.0
O37 O 0.97458 0.87179 0.72387 0.0
O38 O 0.87241 0.9303 0.71381 0.0
C39 C 0.88619 0.09179 0.64393 0.0
C40 C 0.89836 0.87881 0.73298 0.0
O41 O 0.12048 0.00034 0.64817 0.0
C42 C 0.99292 0.20754 0.24554 0.0
C43 C 0.06137 0.25143 0.27755 0.0
C44 C 0.98929 0.26917 0.21959 0.0
C45 C 0.05595 0.37512 0.22495 0.0
C46 C 0.1324 0.35661 0.28153 0.0
C47 C 0.12978 0.41771 0.25546 0.0
C48 C 0.04313 0.44438 0.20209 0.0
C49 C 0.10295 0.25655 0.12044 0.0
C50 C 0.03648 0.22368 0.08794 0.0
C51 C 0.10263 0.32404 0.14644 0.0
C52 C 0.03378 0.35711 0.14068 0.0
C53 C 0.96395 0.25226 0.08331 0.0
C54 C 0.96241 0.31792 0.10946 0.0
C55 C 0.04179 0.44091 0.16389 0.0
C56 C 0.16944 0.87201 0.14374 0.0
C57 C 0.13358 0.86158 0.10693 0.0
C58 C 0.14076 0.78638 0.16256 0.0
C59 C 0.07345 0.68826 0.14528 0.0
C60 C 0.06786 0.76349 0.0894 0.0
C61 C 0.03825 0.67774 0.10839 0.0
C62 C 0.04705 0.59716 0.16476 0.0
C63 C 0.90637 0.74028 0.22364 0.0
C64 C 0.94443 0.77538 0.26022 0.0
C65 C 0.93412 0.68048 0.20476 0.0
C66 C 0.00253 0.65622 0.22174 0.0
C67 C 0.01052 0.74875 0.27754 0.0
C68 C 0.03908 0.68963 0.25851 0.0
C69 C 0.03053 0.59097 0.20184 0.0
H70 H 0.93587 0.12679 0.24215 0.0
H71 H 0.93034 0.23457 0.19666 0.0
H72 H 0.18539 0.39237 0.30602 0.0
H73 H 0.18214 0.49925 0.26012 0.0
H74 H 0.16122 0.23743 0.12429 0.0
H75 H 0.1602 0.35487 0.1698 0.0
H76 H 0.91254 0.22872 0.0584 0.0
H77 H 0.90854 0.34224 0.10439 0.0
H78 H 0.22102 0.94639 0.15793 0.0
H79 H 0.17293 0.79723 0.19053 0.0
H80 H 0.03885 0.75284 0.06103 0.0
H81 H 0.98767 0.60311 0.09423 0.0
H82 H 0.8544 0.75832 0.20959 0.0
H83 H 0.90103 0.65241 0.17691 0.0
H84 H 0.04113 0.77443 0.30574 0.0
H85 H 0.09055 0.67079 0.27246 0.0
N86 N 0.03383 0.51739 0.21936 0.0
N87 N 0.04738 0.51953 0.14695 0.0
C88 C 0.81515 0.08923 0.44851 0.0
C89 C 0.77361 0.99477 0.42858 0.0
C90 C 0.75524 0.10614 0.47094 0.0
C91 C 0.65267 0.02897 0.47349 0.0
C92 C 0.67273 0.91599 0.4328 0.0
C93 C 0.61226 0.93344 0.45474 0.0
C94 C 0.58465 0.04789 0.49387 0.0
C95 C 0.80531 0.03587 0.58016 0.0
C96 C 0.83863 0.10644 0.61062 0.0
C97 C 0.73059 0.02571 0.55338 0.0
C98 C 0.69096 0.08882 0.55586 0.0
C99 C 0.80334 0.17305 0.6121 0.0
C100 C 0.73098 0.16485 0.58484 0.0
C101 C 0.59926 0.06946 0.53198 0.0
C102 C 0.16754 0.94616 0.5577 0.0
C103 C 0.18793 0.99614 0.5924 0.0
C104 C 0.24817 0.9677 0.53696 0.0
C105 C 0.35095 0.04197 0.54998 0.0
C106 C 0.29063 0.06958 0.60568 0.0
C107 C 0.37128 0.09229 0.58465 0.0
C108 C 0.43763 0.05871 0.52942 0.0
C109 C 0.26668 0.1543 0.45725 0.0
C110 C 0.2095 0.08805 0.42614 0.0
C111 C 0.33904 0.14315 0.4781 0.0
C112 C 0.35597 0.06546 0.46839 0.0
C113 C 0.22885 0.01217 0.41582 0.0
C114 C 0.30212 0.00163 0.43659 0.0
C115 C 0.43168 0.05317 0.49111 0.0
H116 H 0.89299 0.15097 0.44606 0.0
H117 H 0.78765 0.18026 0.48527 0.0
H118 H 0.63848 0.84292 0.41746 0.0
H119 H 0.53307 0.87294 0.45651 0.0
H120 H 0.82913 0.98166 0.57881 0.0
H121 H 0.69897 0.96364 0.53244 0.0
H122 H 0.82684 0.22724 0.63548 0.0
H123 H 0.70184 0.21454 0.58751 0.0
H124 H 0.08939 0.88839 0.54687 0.0
H125 H 0.22988 0.92374 0.51119 0.0
H126 H 0.30878 0.1096 0.63232 0.0
H127 H 0.44977 0.14863 0.59566 0.0
H128 H 0.25428 0.21379 0.46599 0.0
H129 H 0.38168 0.19527 0.50197 0.0
H130 H 0.18663 0.96012 0.39191 0.0
H131 H 0.31487 0.94204 0.42831 0.0
N132 N 0.50311 0.0437 0.47475 0.0
N133 N 0.52315 0.07064 0.54825 0.0
C134 C 0.27357 0.22591 0.77172 0.0
C135 C 0.19444 0.24534 0.76441 0.0
C136 C 0.36297 0.2945 0.79452 0.0
C137 C 0.37535 0.38427 0.80982 0.0
C138 C 0.20703 0.3352 0.78005 0.0
C139 C 0.29762 0.40491 0.80207 0.0
C140 C 0.47234 0.46083 0.83156 0.0
C141 C 0.27143 0.26045 0.91462 0.0
C142 C 0.31654 0.21794 0.93573 0.0
C143 C 0.32838 0.33315 0.89104 0.0
C144 C 0.43124 0.36387 0.8879 0.0
C145 C 0.4172 0.24369 0.93087 0.0
C146 C 0.47456 0.31705 0.90736 0.0
C147 C 0.49754 0.45268 0.86814 0.0
C148 C 0.81861 0.89065 0.91157 0.0
C149 C 0.88366 0.88443 0.93861 0.0
C150 C 0.74303 0.80426 0.88981 0.0
C151 C 0.73111 0.70945 0.89416 0.0
C152 C 0.86942 0.78879 0.94383 0.0
C153 C 0.79339 0.70202 0.92193 0.0
C154 C 0.64958 0.61821 0.87098 0.0
C155 C 0.87104 0.77967 0.78745 0.0
C156 C 0.83721 0.82454 0.76255 0.0
C157 C 0.80566 0.71787 0.81232 0.0
C158 C 0.70538 0.69917 0.81211 0.0
C159 C 0.73887 0.81001 0.76393 0.0
C160 C 0.67309 0.74678 0.78816 0.0
C161 C 0.63 0.62042 0.83339 0.0
H162 H 0.26553 0.15673 0.76034 0.0
H163 H 0.42294 0.27818 0.79985 0.0
H164 H 0.14743 0.35207 0.77493 0.0
H165 H 0.30681 0.47475 0.81334 0.0
H166 H 0.19344 0.2407 0.91738 0.0
H167 H 0.2938 0.36953 0.87703 0.0
H168 H 0.45397 0.21263 0.94709 0.0
H169 H 0.55415 0.34022 0.90544 0.0
H170 H 0.82635 0.96252 0.90693 0.0
H171 H 0.6932 0.81171 0.86966 0.0
H172 H 0.91789 0.78104 0.96449 0.0
H173 H 0.78439 0.62947 0.92628 0.0
H174 H 0.94643 0.78974 0.78698 0.0
H175 H 0.83136 0.68054 0.83039 0.0
H176 H 0.71037 0.84335 0.74503 0.0
H177 H 0.59586 0.73281 0.78754 0.0
N178 N 0.54078 0.54322 0.81529 0.0
N179 N 0.58417 0.53285 0.88682 0.0
loop_
_geom_bond_atom_site_label_1
_geom_bond_atom_site_label_2
_geom_bond_distance
_geom_bond_site_symmetry_2
_ccdc_geom_bond_type
Mg0 O1 2.028 1_445 S
Mg0 O7 1.986 . S
Mg0 O9 2.114 . S
Mg0 O10 2.251 . S
Mg0 O13 2.010 1_545 S
O1 Mg0 2.028 1_665 S
O1 C4 1.250 . S
O2 Mg3 2.028 1_655 S
O2 C4 1.248 1_546 S
Mg3 O2 2.028 1_455 S
Mg3 O8 2.032 1_456 S
Mg3 O10 2.079 1_556 S
C4 O1 1.250 . S
C4 O2 1.248 1_564 S
C5 O6 1.264 . S
C5 O13 1.249 . S
O6 C5 1.264 . S
O7 Mg0 1.986 . S
O7 C11 1.246 . S
O8 Mg3 2.032 1_654 S
O8 C11 1.259 1_655 S
O9 Mg0 2.114 . S
O9 C12 1.261 . S
O10 Mg0 2.251 . S
O10 Mg3 2.079 1_554 S
O10 C12 1.279 . S
C11 O7 1.246 . S
C11 O8 1.259 1_455 S
C12 O9 1.261 . S
C12 O10 1.279 . S
O13 Mg0 2.010 1_565 S
O13 C5 1.249 . S
Mg14 O15 2.028 1_655 S
Mg14 O21 1.986 1_655 S
Mg14 O23 2.114 1_545 S
Mg14 O24 2.251 . S
Mg14 O27 2.010 1_545 S
O15 Mg14 2.028 1_455 S
O15 C18 1.250 . S
O16 Mg17 2.028 . S
O16 C18 1.248 . S
Mg17 O16 2.028 . S
Mg17 O22 2.032 . S
Mg17 O24 2.079 1_455 S
C18 O15 1.250 . S
C18 O16 1.248 . S
C19 O20 1.264 . S
C19 O27 1.249 . S
O20 C19 1.264 . S
O21 Mg14 1.986 1_455 S
O21 C25 1.246 . S
O22 Mg17 2.032 . S
O22 C25 1.259 . S
O23 Mg14 2.114 1_565 S
O23 C26 1.252 . S
O24 Mg14 2.251 . S
O24 Mg17 2.079 1_655 S
O24 C26 1.273 1_545 S
C25 O21 1.246 . S
C25 O22 1.259 . S
C26 O23 1.252 . S
C26 O24 1.273 1_565 S
O27 Mg14 2.010 1_565 S
O27 C19 1.249 . S
Mg28 O29 2.028 1_565 S
Mg28 O35 1.986 1_465 S
Mg28 O37 2.114 1_455 S
Mg28 O38 2.251 1_455 S
Mg28 O41 2.010 . S
O29 Mg28 2.028 1_545 S
O29 C32 1.250 . S
O30 Mg31 2.028 1_455 S
O30 C32 1.248 . S
Mg31 O30 2.028 1_655 S
Mg31 O36 2.032 . S
Mg31 O38 2.079 1_545 S
C32 O29 1.250 . S
C32 O30 1.248 . S
C33 O34 1.264 . S
C33 O41 1.249 . S
O34 C33 1.264 . S
O35 Mg28 1.986 1_645 S
O35 C39 1.246 . S
O36 Mg31 2.032 . S
O36 C39 1.259 . S
O37 Mg28 2.114 1_655 S
O37 C40 1.252 . S
O38 Mg28 2.251 1_655 S
O38 Mg31 2.079 1_565 S
O38 C40 1.273 . S
C39 O35 1.246 . S
C39 O36 1.259 . S
C40 O37 1.252 . S
C40 O38 1.273 . S
O41 Mg28 2.010 . S
O41 C33 1.249 . S
C42 C43 1.384 1_655 S
C42 C44 1.384 . S
C42 H70 0.931 . S
C43 C42 1.384 1_455 S
C43 C46 1.382 . S
C44 C42 1.384 . S
C44 C45 1.381 1_655 S
C44 H71 0.930 . S
C45 C44 1.381 1_455 S
C45 C47 1.381 . S
C45 C48 1.487 . S
C46 C43 1.382 . S
C46 C47 1.387 . S
C46 H72 0.930 . S
C47 C45 1.381 . S
C47 C46 1.387 . S
C47 H73 0.931 . S
C48 C45 1.487 . S
C48 C55 1.399 . S
C48 N86 1.343 . S
C49 C50 1.384 . S
C49 C51 1.384 . S
C49 H74 0.931 . S
C50 C49 1.384 . S
C50 C53 1.382 1_455 S
C51 C49 1.384 . S
C51 C52 1.381 . S
C51 H75 0.930 . S
C52 C51 1.381 . S
C52 C54 1.381 1_455 S
C52 C55 1.487 . S
C53 C50 1.382 1_655 S
C53 C54 1.387 . S
C53 H76 0.930 . S
C54 C52 1.381 1_655 S
C54 C53 1.387 . S
C54 H77 0.931 . S
C55 C48 1.399 . S
C55 C52 1.487 . S
C55 N87 1.343 . S
C56 C57 1.384 . S
C56 C58 1.384 . S
C56 H78 0.931 . S
C57 C56 1.384 . S
C57 C60 1.382 1_455 S
C58 C56 1.384 . S
C58 C59 1.381 . S
C58 H79 0.930 . S
C59 C58 1.381 . S
C59 C61 1.381 1_455 S
C59 C62 1.487 . S
C60 C57 1.382 1_655 S
C60 C61 1.387 . S
C60 H80 0.930 . S
C61 C59 1.381 1_655 S
C61 C60 1.387 . S
C61 H81 0.931 . S
C62 C59 1.487 . S
C62 C69 1.399 . S
C62 N87 1.343 . S
C63 C64 1.384 1_655 S
C63 C65 1.384 . S
C63 H82 0.931 . S
C64 C63 1.384 1_455 S
C64 C67 1.382 . S
C65 C63 1.384 . S
C65 C66 1.381 1_655 S
C65 H83 0.930 . S
C66 C65 1.381 1_455 S
C66 C68 1.381 . S
C66 C69 1.487 . S
C67 C64 1.382 . S
C67 C68 1.387 . S
C67 H84 0.930 . S
C68 C66 1.381 . S
C68 C67 1.387 . S
C68 H85 0.931 . S
C69 C62 1.399 . S
C69 C66 1.487 . S
C69 N86 1.343 . S
H70 C42 0.931 . S
H71 C44 0.930 . S
H72 C46 0.930 . S
H73 C47 0.931 . S
H74 C49 0.931 . S
H75 C51 0.930 . S
H76 C53 0.930 . S
H77 C54 0.931 . S
H78 C56 0.931 . S
H79 C58 0.930 . S
H80 C60 0.930 . S
H81 C61 0.931 . S
H82 C63 0.931 . S
H83 C65 0.930 . S
H84 C67 0.930 . S
H85 C68 0.931 . S
N86 C48 1.343 . S
N86 C69 1.343 . S
N87 C55 1.343 . S
N87 C62 1.343 . S
C88 C89 1.384 . S
C88 C90 1.384 . S
C88 H116 0.931 . S
C89 C88 1.384 . S
C89 C92 1.382 1_545 S
C90 C88 1.384 . S
C90 C91 1.381 . S
C90 H117 0.930 . S
C91 C90 1.381 . S
C91 C93 1.381 1_545 S
C91 C94 1.487 . S
C92 C89 1.382 1_565 S
C92 C93 1.387 . S
C92 H118 0.930 . S
C93 C91 1.381 1_565 S
C93 C92 1.387 . S
C93 H119 0.931 . S
C94 C91 1.487 . S
C94 C101 1.399 . S
C94 N132 1.343 . S
C95 C96 1.384 1_565 S
C95 C97 1.384 . S
C95 H120 0.931 . S
C96 C95 1.384 1_545 S
C96 C99 1.382 . S
C97 C95 1.384 . S
C97 C98 1.381 1_565 S
C97 H121 0.930 . S
C98 C97 1.381 1_545 S
C98 C100 1.381 . S
C98 C101 1.487 . S
C99 C96 1.382 . S
C99 C100 1.387 . S
C99 H122 0.930 . S
C100 C98 1.381 . S
C100 C99 1.387 . S
C100 H123 0.931 . S
C101 C94 1.399 . S
C101 C98 1.487 . S
C101 N133 1.343 . S
C102 C103 1.384 1_565 S
C102 C104 1.384 . S
C102 H124 0.931 . S
C103 C102 1.384 1_545 S
C103 C106 1.382 . S
C104 C102 1.384 . S
C104 C105 1.381 1_565 S
C104 H125 0.930 . S
C105 C104 1.381 1_545 S
C105 C107 1.381 . S
C105 C108 1.487 . S
C106 C103 1.382 . S
C106 C107 1.387 . S
C106 H126 0.930 . S
C107 C105 1.381 . S
C107 C106 1.387 . S
C107 H127 0.931 . S
C108 C105 1.487 . S
C108 C115 1.399 . S
C108 N133 1.343 . S
C109 C110 1.384 . S
C109 C111 1.384 . S
C109 H128 0.931 . S
C110 C109 1.384 . S
C110 C113 1.382 1_545 S
C111 C109 1.384 . S
C111 C112 1.381 . S
C111 H129 0.930 . S
C112 C111 1.381 . S
C112 C114 1.381 1_545 S
C112 C115 1.487 . S
C113 C110 1.382 1_565 S
C113 C114 1.387 . S
C113 H130 0.930 . S
C114 C112 1.381 1_565 S
C114 C113 1.387 . S
C114 H131 0.931 . S
C115 C108 1.399 . S
C115 C112 1.487 . S
C115 N132 1.343 . S
H116 C88 0.931 . S
H117 C90 0.930 . S
H118 C92 0.930 . S
H119 C93 0.931 . S
H120 C95 0.931 . S
H121 C97 0.930 . S
H122 C99 0.930 . S
H123 C100 0.931 . S
H124 C102 0.931 . S
H125 C104 0.930 . S
H126 C106 0.930 . S
H127 C107 0.931 . S
H128 C109 0.931 . S
H129 C111 0.930 . S
H130 C113 0.930 . S
H131 C114 0.931 . S
N132 C94 1.343 . S
N132 C115 1.343 . S
N133 C101 1.343 . S
N133 C108 1.343 . S
C134 C135 1.384 . S
C134 C136 1.384 . S
C134 H162 0.931 . S
C135 C134 1.384 . S
C135 C138 1.382 . S
C136 C134 1.384 . S
C136 C137 1.381 . S
C136 H163 0.930 . S
C137 C136 1.381 . S
C137 C139 1.381 . S
C137 C140 1.487 . S
C138 C135 1.382 . S
C138 C139 1.387 . S
C138 H164 0.930 . S
C139 C137 1.381 . S
C139 C138 1.387 . S
C139 H165 0.931 . S
C140 C137 1.487 . S
C140 C147 1.399 . S
C140 N178 1.343 . S
C141 C142 1.384 . S
C141 C143 1.384 . S
C141 H166 0.931 . S
C142 C141 1.384 . S
C142 C145 1.382 . S
C143 C141 1.384 . S
C143 C144 1.381 . S
C143 H167 0.930 . S
C144 C143 1.381 . S
C144 C146 1.381 . S
C144 C147 1.487 . S
C145 C142 1.382 . S
C145 C146 1.387 . S
C145 H168 0.930 . S
C146 C144 1.381 . S
C146 C145 1.387 . S
C146 H169 0.931 . S
C147 C140 1.399 . S
C147 C144 1.487 . S
C147 N179 1.343 . S
C148 C149 1.384 . S
C148 C150 1.384 . S
C148 H170 0.931 . S
C149 C148 1.384 . S
C149 C152 1.382 . S
C150 C148 1.384 . S
C150 C151 1.381 . S
C150 H171 0.930 . S
C151 C150 1.381 . S
C151 C153 1.381 . S
C151 C154 1.487 . S
C152 C149 1.382 . S
C152 C153 1.387 . S
C152 H172 0.930 1_556 S
C153 C151 1.381 . S
C153 C152 1.387 . S
C153 H173 0.931 . S
C154 C151 1.487 . S
C154 C161 1.399 . S
C154 N179 1.343 . S
C155 C156 1.384 . S
C155 C157 1.384 . S
C155 H174 0.931 . S
C156 C155 1.384 . S
C156 C159 1.382 . S
C157 C155 1.384 . S
C157 C158 1.381 . S
C157 H175 0.930 . S
C158 C157 1.381 . S
C158 C160 1.381 . S
C158 C161 1.487 . S
C159 C156 1.382 . S
C159 C160 1.387 . S
C159 H176 0.930 . S
C160 C158 1.381 . S
C160 C159 1.387 . S
C160 H177 0.931 . S
C161 C154 1.399 . S
C161 C158 1.487 . S
C161 N178 1.343 . S
H162 C134 0.931 . S
H163 C136 0.930 . S
H164 C138 0.930 . S
H165 C139 0.931 . S
H166 C141 0.931 . S
H167 C143 0.930 . S
H168 C145 0.930 . S
H169 C146 0.931 . S
H170 C148 0.931 . S
H171 C150 0.930 . S
H172 C152 0.930 1_554 S
H173 C153 0.931 . S
H174 C155 0.931 . S
H175 C157 0.930 . S
H176 C159 0.930 . S
H177 C160 0.931 . S
N178 C140 1.343 . S
N178 C161 1.343 . S
N179 C147 1.343 . S
N179 C154 1.343 . S
C50 C11 1.525 . S
C26 C89 1.761 1_565 S
C40 C156 1.534 . S
C5 C57 1.626 . S
C110 C18 1.686 . S
C32 C135 1.481 . S
C96 C39 1.346 . S
C4 C149 1.544 1_554 S
C64 C19 1.691 1_455 S
C103 C33 1.652 1_545 S
C142 C12 1.533 1_556 S
C25 C43 1.563 . S
