# Generated by pormake.
# Topology tsx, (6,3)-cn, num edge types: 1
# Building blocks:
#     Node 0, Type 0, BuildingBlock: VOLQOD_clean_sbu_1, # of connection points: 6
#     Node 1, Type 0, BuildingBlock: VOLQOD_clean_sbu_1, # of connection points: 6
#     Node 2, Type 1, BuildingBlock: BETDAH_clean_linker_0, # of connection points: 3
#     Node 3, Type 1, BuildingBlock: BETDAH_clean_linker_0, # of connection points: 3
#     Node 4, Type 1, BuildingBlock: BETDAH_clean_linker_0, # of connection points: 3
#     Node 5, Type 1, BuildingBlock: BETDAH_clean_linker_0, # of connection points: 3
#     Edge 6, Type (0, 1), BuildingBlock: OJICUG_clean_linker_0, # of connection points: 2
#     Edge 7, Type (0, 1), BuildingBlock: OJICUG_clean_linker_0, # of connection points: 2
#     Edge 8, Type (0, 1), BuildingBlock: OJICUG_clean_linker_0, # of connection points: 2
#     Edge 9, Type (0, 1), BuildingBlock: OJICUG_clean_linker_0, # of connection points: 2
#     Edge 10, Type (0, 1), BuildingBlock: OJICUG_clean_linker_0, # of connection points: 2
#     Edge 11, Type (0, 1), BuildingBlock: OJICUG_clean_linker_0, # of connection points: 2
#     Edge 12, Type (0, 1), BuildingBlock: OJICUG_clean_linker_0, # of connection points: 2
#     Edge 13, Type (0, 1), BuildingBlock: OJICUG_clean_linker_0, # of connection points: 2
#     Edge 14, Type (0, 1), BuildingBlock: OJICUG_clean_linker_0, # of connection points: 2
#     Edge 15, Type (0, 1), BuildingBlock: OJICUG_clean_linker_0, # of connection points: 2
#     Edge 16, Type (0, 1), BuildingBlock: OJICUG_clean_linker_0, # of connection points: 2
#     Edge 17, Type (0, 1), BuildingBlock: OJICUG_clean_linker_0, # of connection points: 2
# Relax obj value: 0.054
# Max RMSD: 0.109
# Mean RMSD: 0.099
data_MOF--net-tsx--node1-VOLQOD_clean_sbu_1--node2-BETDAH_clean_linker_0--edge1-OJICUG_clean_linker_0
_symmetry_space_group_name_H-M    P1
_symmetry_Int_Tables_number       1
_symmetry_cell_setting            triclinic
loop_
_symmetry_equiv_pos_as_xyz
'x, y, z'
_cell_length_a     16.192992
_cell_length_b     16.0766
_cell_length_c     27.642478
_cell_angle_alpha  90.748893
_cell_angle_beta   95.212748
_cell_angle_gamma 89.149677
loop_
_atom_site_label
_atom_site_type_symbol
_atom_site_fract_x
_atom_site_fract_y
_atom_site_fract_z
_atom_type_partial_charge
O0 O 0.06511 0.97391 0.11193 0.0
Zn1 Zn 0.09635 0.97987 0.04293 0.0
O2 O -0.00169 0.0064 -0.0003 0.0
Zn3 Zn 0.97114 0.91277 0.95733 0.0
Zn4 Zn 0.90652 0.03306 0.03837 0.0
Zn5 Zn 0.01824 0.10039 0.95988 0.0
O6 O 0.96331 0.94516 0.88697 0.0
O7 O 0.02732 0.0669 0.89023 0.0
O8 O 0.15454 0.87326 0.02189 0.0
O9 O 0.06319 0.82931 0.9628 0.0
O10 O 0.86952 0.85549 0.97645 0.0
O11 O 0.82814 0.93638 0.03569 0.0
O12 O 0.84306 0.13619 0.01438 0.0
O13 O 0.17567 0.07507 0.0441 0.0
O14 O 0.92152 0.17887 0.95789 0.0
O15 O 0.1191 0.16108 0.98772 0.0
C16 C 0.0082 0.01208 0.13288 0.0
C17 C -0.00414 0.00524 0.86615 0.0
C18 C 0.8209 0.87077 0.00936 0.0
C19 C 0.13176 0.82053 0.98856 0.0
C20 C 0.85755 0.18669 0.98114 0.0
C21 C 0.17575 0.14328 0.02116 0.0
O22 O 0.94721 0.04749 0.10865 0.0
O23 O 0.56763 0.49442 0.60964 0.0
Zn24 Zn 0.58941 0.50025 0.53897 0.0
O25 O 0.48597 0.52546 0.50048 0.0
Zn26 Zn 0.45466 0.43107 0.45953 0.0
Zn27 Zn 0.3994 0.55171 0.54325 0.0
Zn28 Zn 0.49964 0.6199 0.45962 0.0
O29 O 0.44908 0.4609 0.38894 0.0
O30 O 0.50922 0.58455 0.38995 0.0
O31 O 0.64453 0.3928 0.51625 0.0
O32 O 0.54271 0.34303 0.46548 0.0
O33 O 0.35074 0.37874 0.479 0.0
O34 O 0.32041 0.45572 0.54252 0.0
O35 O 0.33109 0.65357 0.52112 0.0
O36 O 0.66682 0.5965 0.53649 0.0
O37 O 0.3984 0.69268 0.45882 0.0
O38 O 0.59914 0.68551 0.48576 0.0
C39 C 0.51317 0.53032 0.63363 0.0
C40 C 0.48036 0.5205 0.36703 0.0
C41 C 0.30698 0.39305 0.51436 0.0
C42 C 0.61505 0.33603 0.48716 0.0
C43 C 0.33806 0.70076 0.48508 0.0
C44 C 0.66108 0.66687 0.51565 0.0
O45 O 0.44842 0.56456 0.61243 0.0
H46 H 0.13766 0.96298 0.35457 0.0
H47 H 0.87858 0.02871 0.34325 0.0
H48 H -0.01412 0.89755 0.46785 0.0
C49 C 0.07818 0.96306 0.36961 0.0
C50 C 0.07061 0.92306 0.4138 0.0
C51 C 0.0085 0.99532 0.3419 0.0
C52 C 0.93352 0.0037 0.36356 0.0
C53 C 0.92698 0.97218 0.41016 0.0
C54 C -0.00577 0.92864 0.43416 0.0
N55 N 0.8502 0.97509 0.4308 0.0
C56 C 0.80705 0.04921 0.43722 0.0
H57 H 0.88888 0.88248 0.66066 0.0
H58 H 0.03064 0.10281 0.63994 0.0
H59 H 0.89441 0.98429 0.51916 0.0
C60 C 0.91283 0.92779 0.63706 0.0
C61 C 0.88771 0.92404 0.58728 0.0
C62 C 0.96444 0.99191 0.65683 0.0
C63 C -0.00876 0.0528 0.62556 0.0
C64 C 0.96473 0.04984 0.57569 0.0
C65 C 0.91347 0.98595 0.55736 0.0
N66 N -0.01575 0.11158 0.54265 0.0
C67 C 0.05176 0.16383 0.54839 0.0
H68 H 0.66532 0.46597 0.85201 0.0
H69 H 0.40644 0.5324 0.84772 0.0
H70 H 0.51973 0.39144 0.96624 0.0
C71 C 0.60696 0.46489 0.86821 0.0
C72 C 0.60194 0.42257 0.91199 0.0
C73 C 0.53589 0.4996 0.84275 0.0
C74 C 0.4624 0.50599 0.86619 0.0
C75 C 0.45843 0.4704 0.91197 0.0
C76 C 0.52664 0.42567 0.93346 0.0
N77 N 0.38335 0.47055 0.93437 0.0
C78 C 0.33814 0.54282 0.94188 0.0
H79 H 0.38929 0.37652 0.16633 0.0
H80 H 0.54636 0.5825 0.13875 0.0
H81 H 0.4273 0.44046 0.02086 0.0
C82 C 0.4196 0.4146 0.14133 0.0
C83 C 0.40316 0.40023 0.09145 0.0
C84 C 0.47182 0.47962 0.15913 0.0
C85 C 0.50674 0.5317 0.12577 0.0
C86 C 0.48953 0.51737 0.07548 0.0
C87 C 0.43875 0.45178 0.05923 0.0
N88 N 0.51921 0.56769 0.03928 0.0
C89 C 0.58062 0.62685 0.04593 0.0
C90 C 0.2982 0.19119 0.07592 0.0
C91 C 0.23837 0.20644 0.03676 0.0
H92 H 0.39749 0.24049 0.12381 0.0
C93 C 0.23479 0.28512 0.01506 0.0
H94 H 0.30262 0.13127 0.0935 0.0
C95 C 0.28835 0.34771 0.03283 0.0
C96 C 0.34711 0.33298 0.07251 0.0
H97 H 0.18922 0.29925 0.98504 0.0
H98 H 0.28237 0.40835 0.01614 0.0
C99 C 0.35201 0.2539 0.09364 0.0
C100 C 0.16133 0.69459 0.93847 0.0
C101 C 0.18611 0.74894 0.9774 0.0
H102 H 0.19124 0.58676 0.89663 0.0
C103 C 0.26316 0.73477 0.00402 0.0
H104 H 0.10261 0.70343 0.91698 0.0
C105 C 0.31386 0.66758 0.99198 0.0
C106 C 0.28835 0.61417 0.95313 0.0
H107 H 0.28421 0.77534 0.03408 0.0
H108 H 0.37261 0.65719 0.01316 0.0
C109 C 0.21202 0.62791 0.92651 0.0
C110 C 0.70352 0.82278 0.05536 0.0
C111 C 0.75827 0.80836 0.0192 0.0
H112 H 0.60363 0.77504 0.09271 0.0
C113 C 0.75497 0.73193 -0.00622 0.0
H114 H 0.70457 0.8808 0.07575 0.0
C115 C 0.69813 0.6717 0.00403 0.0
C116 C 0.64372 0.68666 0.0398 0.0
H117 H 0.79631 0.7184 0.96592 0.0
H118 H 0.69584 0.61378 0.98341 0.0
C119 C 0.64633 0.76231 0.06545 0.0
C120 C 0.78313 0.26987 0.91585 0.0
C121 C 0.79539 0.25078 0.9653 0.0
H122 H 0.71108 0.33451 0.86017 0.0
C123 C 0.74623 0.29086 -0.00194 0.0
H124 H 0.81931 0.23881 0.88968 0.0
C125 C 0.68558 0.34943 0.98136 0.0
C126 C 0.67148 0.36691 0.93139 0.0
H127 H 0.75498 0.27728 0.03648 0.0
H128 H 0.64951 0.38031 0.00758 0.0
C129 C 0.72127 0.32594 0.89902 0.0
C130 C 0.71211 0.81311 0.51397 0.0
C131 C 0.72355 0.73091 0.53025 0.0
H132 H 0.75361 0.93876 0.52009 0.0
C133 C 0.79163 0.71211 0.56382 0.0
H134 H 0.66014 0.82995 0.48834 0.0
C135 C 0.84549 0.77454 0.58182 0.0
C136 C 0.8325 0.85712 0.56668 0.0
H137 H 0.80249 0.64941 0.57704 0.0
H138 H 0.89714 0.75823 0.6078 0.0
C139 C 0.76584 0.87555 0.5321 0.0
C140 C 0.75186 0.2586 0.48791 0.0
C141 C 0.66556 0.26158 0.47593 0.0
H142 H 0.86518 0.18867 0.48352 0.0
C143 C 0.62744 0.19364 0.45052 0.0
H144 H 0.78323 0.30999 0.50706 0.0
C145 C 0.67425 0.12467 0.43738 0.0
C146 C 0.76005 0.12246 0.44897 0.0
H147 H 0.56114 0.19354 0.44073 0.0
H148 H 0.64327 0.07293 0.41829 0.0
C149 C 0.79878 0.18955 0.4743 0.0
C150 C 0.19061 0.34827 0.5621 0.0
C151 C 0.24161 0.33358 0.5241 0.0
H152 H 0.08969 0.30447 0.60001 0.0
C153 C 0.23092 0.26017 0.4961 0.0
H154 H 0.19731 0.40402 0.58445 0.0
C155 C 0.1702 0.20338 0.5055 0.0
C156 C 0.11927 0.21887 0.54296 0.0
H157 H 0.2692 0.24653 0.46676 0.0
H158 H 0.16207 0.14799 0.48287 0.0
C159 C 0.12956 0.29131 0.57133 0.0
C160 C 0.2524 0.77155 0.41908 0.0
C161 C 0.27024 0.75921 0.469 0.0
H162 H 0.17389 0.82749 0.3629 0.0
C163 C 0.22123 0.80014 0.50168 0.0
H164 H 0.28752 0.7391 0.39291 0.0
C165 C 0.15669 0.85451 0.48437 0.0
C166 C 0.13932 0.86715 0.43407 0.0
H167 H 0.23351 0.79101 0.54043 0.0
H168 H 0.12103 0.88684 0.51026 0.0
C169 C 0.18724 0.82332 0.40188 0.0
C170 C 0.96294 0.06898 0.21156 0.0
C171 C 0.01123 0.01236 0.18644 0.0
H172 H 0.92595 0.1103 0.28059 0.0
C173 C 0.06067 0.95348 0.21286 0.0
H174 H 0.9244 0.11543 0.19207 0.0
C175 C 0.06032 0.94952 0.26306 0.0
C176 C 0.01199 0.00566 0.28863 0.0
H177 H 0.09776 0.90834 0.19463 0.0
H178 H 0.09617 0.90006 0.28148 0.0
C179 C 0.96364 0.06595 0.26224 0.0
C180 C 0.00049 0.92658 0.78825 0.0
C181 C -0.00339 0.00312 0.81287 0.0
H182 H -0.00134 0.86331 0.71987 0.0
C183 C -0.00894 0.07694 0.78607 0.0
H184 H 0.00658 0.86884 0.80814 0.0
C185 C -0.01579 0.07386 0.73524 0.0
C186 C -0.0156 0.99689 0.71041 0.0
H187 H -0.01182 0.13683 0.80431 0.0
H188 H 0.97491 0.13153 0.71557 0.0
C189 C -0.00429 0.92355 0.73766 0.0
C190 C 0.47746 0.58241 0.71545 0.0
C191 C 0.52344 0.52848 0.68729 0.0
H192 H 0.44752 0.61836 0.7868 0.0
C193 C 0.57728 0.46975 0.71079 0.0
H194 H 0.43588 0.62889 0.69828 0.0
C195 C 0.58266 0.46254 0.76109 0.0
C196 C 0.53573 0.51517 0.78964 0.0
H197 H 0.61305 0.42679 0.69021 0.0
H198 H 0.62131 0.41284 0.77717 0.0
C199 C 0.48396 0.57621 0.76617 0.0
C200 C 0.48356 0.58257 0.28415 0.0
C201 C 0.48613 0.51248 0.31419 0.0
H202 H 0.47604 0.62737 0.21101 0.0
C203 C 0.49327 0.43306 0.29328 0.0
H204 H 0.47865 0.64459 0.29951 0.0
C205 C 0.49426 0.42338 0.24323 0.0
C206 C 0.48591 0.49271 0.21257 0.0
H207 H 0.49751 0.37804 0.31565 0.0
H208 H 0.49919 0.361 0.22838 0.0
C209 C 0.48281 0.57274 0.23361 0.0
loop_
_geom_bond_atom_site_label_1
_geom_bond_atom_site_label_2
_geom_bond_distance
_geom_bond_site_symmetry_2
_ccdc_geom_bond_type
O0 Zn1 1.953 . S
O0 C16 1.225 1_565 S
Zn1 O0 1.953 . S
Zn1 O2 1.949 1_565 S
Zn1 O8 1.919 . S
Zn1 O13 1.924 1_565 S
O2 Zn1 1.949 1_545 S
O2 Zn3 1.923 1_444 S
O2 Zn4 1.950 1_455 S
O2 Zn5 1.945 1_554 S
Zn3 O2 1.923 1_666 S
Zn3 O6 1.933 . S
Zn3 O9 1.941 1_655 S
Zn3 O10 1.965 . S
Zn4 O2 1.950 1_655 S
Zn4 O11 1.938 1_545 S
Zn4 O12 1.906 . S
Zn4 O22 1.953 . S
Zn5 O2 1.945 1_556 S
Zn5 O7 1.932 . S
Zn5 O14 1.977 1_455 S
Zn5 O15 1.910 . S
O6 Zn3 1.933 . S
O6 C17 1.226 1_565 S
O7 Zn5 1.932 . S
O7 C17 1.307 1_455 S
O8 Zn1 1.919 . S
O8 C19 1.243 1_554 S
O9 Zn3 1.941 1_455 S
O9 C19 1.287 . S
O10 Zn3 1.965 . S
O10 C18 1.303 1_556 S
O11 Zn4 1.938 1_565 S
O11 C18 1.247 . S
O12 Zn4 1.906 . S
O12 C20 1.304 1_554 S
O13 Zn1 1.924 1_545 S
O13 C21 1.311 . S
O14 Zn5 1.977 1_655 S
O14 C20 1.272 . S
O15 Zn5 1.910 . S
O15 C21 1.231 1_556 S
C16 O0 1.225 1_545 S
C16 O22 1.298 1_455 S
C17 O6 1.226 1_545 S
C17 O7 1.307 1_655 S
C18 O10 1.303 1_554 S
C18 O11 1.247 . S
C19 O8 1.243 1_556 S
C19 O9 1.287 . S
C20 O12 1.304 1_556 S
C20 O14 1.272 . S
C21 O13 1.311 . S
C21 O15 1.231 1_554 S
O22 Zn4 1.953 . S
O22 C16 1.298 1_655 S
O23 Zn24 1.953 . S
O23 C39 1.225 . S
Zn24 O23 1.953 . S
Zn24 O25 1.949 . S
Zn24 O31 1.919 . S
Zn24 O36 1.924 . S
O25 Zn24 1.949 . S
O25 Zn26 1.923 . S
O25 Zn27 1.950 . S
O25 Zn28 1.945 . S
Zn26 O25 1.923 . S
Zn26 O29 1.933 . S
Zn26 O32 1.941 . S
Zn26 O33 1.965 . S
Zn27 O25 1.950 . S
Zn27 O34 1.938 . S
Zn27 O35 1.906 . S
Zn27 O45 1.953 . S
Zn28 O25 1.945 . S
Zn28 O30 1.932 . S
Zn28 O37 1.977 . S
Zn28 O38 1.910 . S
O29 Zn26 1.933 . S
O29 C40 1.226 . S
O30 Zn28 1.932 . S
O30 C40 1.307 . S
O31 Zn24 1.919 . S
O31 C42 1.253 . S
O32 Zn26 1.941 . S
O32 C42 1.283 . S
O33 Zn26 1.965 . S
O33 C41 1.303 . S
O34 Zn27 1.938 . S
O34 C41 1.247 . S
O35 Zn27 1.906 . S
O35 C43 1.304 . S
O36 Zn24 1.924 . S
O36 C44 1.311 . S
O37 Zn28 1.977 . S
O37 C43 1.272 . S
O38 Zn28 1.910 . S
O38 C44 1.231 . S
C39 O23 1.225 . S
C39 O45 1.298 . S
C40 O29 1.226 . S
C40 O30 1.307 . S
C41 O33 1.303 . S
C41 O34 1.247 . S
C42 O31 1.253 . S
C42 O32 1.283 . S
C43 O35 1.304 . S
C43 O37 1.272 . S
C44 O36 1.311 . S
C44 O38 1.231 . S
O45 Zn27 1.953 . S
O45 C39 1.298 . S
H46 C49 0.929 . S
H47 C52 0.929 . S
H48 C54 0.930 . S
C49 H46 0.929 . S
C49 C50 1.398 . S
C49 C51 1.396 . S
C50 C49 1.398 . S
C50 C54 1.407 . S
C51 C49 1.396 . S
C51 C52 1.394 1_465 S
C52 H47 0.929 . S
C52 C51 1.394 1_645 S
C52 C53 1.382 . S
C53 C52 1.382 . S
C53 C54 1.392 1_645 S
C53 N55 1.420 . S
C54 H48 0.930 . S
C54 C50 1.407 . S
C54 C53 1.392 1_465 S
N55 C53 1.420 . S
N55 C56 1.244 . S
C56 N55 1.244 . S
H57 C60 0.929 . S
H58 C63 0.929 . S
H59 C65 0.930 . S
C60 H57 0.929 . S
C60 C61 1.398 . S
C60 C62 1.396 . S
C61 C60 1.398 . S
C61 C65 1.407 . S
C62 C60 1.396 . S
C62 C63 1.394 1_665 S
C63 H58 0.929 . S
C63 C62 1.394 1_445 S
C63 C64 1.382 . S
C64 C63 1.382 . S
C64 C65 1.392 1_445 S
C64 N66 1.420 . S
C65 H59 0.930 . S
C65 C61 1.407 . S
C65 C64 1.392 1_665 S
N66 C64 1.420 . S
N66 C67 1.244 . S
C67 N66 1.244 . S
H68 C71 0.929 . S
H69 C74 0.929 . S
H70 C76 0.930 . S
C71 H68 0.929 . S
C71 C72 1.398 . S
C71 C73 1.396 . S
C72 C71 1.398 . S
C72 C76 1.407 . S
C73 C71 1.396 . S
C73 C74 1.394 . S
C74 H69 0.929 . S
C74 C73 1.394 . S
C74 C75 1.382 . S
C75 C74 1.382 . S
C75 C76 1.392 . S
C75 N77 1.420 . S
C76 H70 0.930 . S
C76 C72 1.407 . S
C76 C75 1.392 . S
N77 C75 1.420 . S
N77 C78 1.244 . S
C78 N77 1.244 . S
H79 C82 0.929 . S
H80 C85 0.929 . S
H81 C87 0.930 . S
C82 H79 0.929 . S
C82 C83 1.398 . S
C82 C84 1.396 . S
C83 C82 1.398 . S
C83 C87 1.407 . S
C84 C82 1.396 . S
C84 C85 1.394 . S
C85 H80 0.929 . S
C85 C84 1.394 . S
C85 C86 1.382 . S
C86 C85 1.382 . S
C86 C87 1.392 . S
C86 N88 1.420 . S
C87 H81 0.930 . S
C87 C83 1.407 . S
C87 C86 1.392 . S
N88 C86 1.420 . S
N88 C89 1.244 . S
C89 N88 1.244 . S
C90 C91 1.387 . S
C90 H94 0.950 . S
C90 C99 1.390 . S
C91 C90 1.387 . S
C91 C93 1.387 . S
H92 C99 0.950 . S
C93 C91 1.387 . S
C93 C95 1.390 . S
C93 H97 0.950 1_554 S
H94 C90 0.950 . S
C95 C93 1.390 . S
C95 C96 1.387 . S
C95 H98 0.950 1_554 S
C96 C95 1.387 . S
C96 C99 1.387 . S
H97 C93 0.950 1_556 S
H98 C95 0.950 1_556 S
C99 C90 1.390 . S
C99 H92 0.950 . S
C99 C96 1.387 . S
C100 C101 1.387 . S
C100 H104 0.950 . S
C100 C109 1.390 . S
C101 C100 1.387 . S
C101 C103 1.387 1_556 S
H102 C109 0.950 . S
C103 C101 1.387 1_554 S
C103 C105 1.390 . S
C103 H107 0.950 . S
H104 C100 0.950 . S
C105 C103 1.390 . S
C105 C106 1.387 1_554 S
C105 H108 0.950 . S
C106 C105 1.387 1_556 S
C106 C109 1.387 . S
H107 C103 0.950 . S
H108 C105 0.950 . S
C109 C100 1.390 . S
C109 H102 0.950 . S
C109 C106 1.387 . S
C110 C111 1.387 . S
C110 H114 0.950 . S
C110 C119 1.390 . S
C111 C110 1.387 . S
C111 C113 1.387 1_554 S
H112 C119 0.950 . S
C113 C111 1.387 1_556 S
C113 C115 1.390 1_556 S
C113 H117 0.950 . S
H114 C110 0.950 . S
C115 C113 1.390 1_554 S
C115 C116 1.387 . S
C115 H118 0.950 1_554 S
C116 C115 1.387 . S
C116 C119 1.387 . S
H117 C113 0.950 . S
H118 C115 0.950 1_556 S
C119 C110 1.390 . S
C119 H112 0.950 . S
C119 C116 1.387 . S
C120 C121 1.387 . S
C120 H124 0.950 . S
C120 C129 1.390 . S
C121 C120 1.387 . S
C121 C123 1.387 . S
H122 C129 0.950 . S
C123 C121 1.387 . S
C123 C125 1.390 . S
C123 H127 0.950 1_556 S
H124 C120 0.950 . S
C125 C123 1.390 . S
C125 C126 1.387 . S
C125 H128 0.950 1_556 S
C126 C125 1.387 . S
C126 C129 1.387 . S
H127 C123 0.950 1_554 S
H128 C125 0.950 1_554 S
C129 C120 1.390 . S
C129 H122 0.950 . S
C129 C126 1.387 . S
C130 C131 1.387 . S
C130 H134 0.950 . S
C130 C139 1.390 . S
C131 C130 1.387 . S
C131 C133 1.387 . S
H132 C139 0.950 . S
C133 C131 1.387 . S
C133 C135 1.390 . S
C133 H137 0.950 . S
H134 C130 0.950 . S
C135 C133 1.390 . S
C135 C136 1.387 . S
C135 H138 0.950 . S
C136 C135 1.387 . S
C136 C139 1.387 . S
H137 C133 0.950 . S
H138 C135 0.950 . S
C139 C130 1.390 . S
C139 H132 0.950 . S
C139 C136 1.387 . S
C140 C141 1.387 . S
C140 H144 0.950 . S
C140 C149 1.390 . S
C141 C140 1.387 . S
C141 C143 1.387 . S
H142 C149 0.950 . S
C143 C141 1.387 . S
C143 C145 1.390 . S
C143 H147 0.950 . S
H144 C140 0.950 . S
C145 C143 1.390 . S
C145 C146 1.387 . S
C145 H148 0.950 . S
C146 C145 1.387 . S
C146 C149 1.387 . S
H147 C143 0.950 . S
H148 C145 0.950 . S
C149 C140 1.390 . S
C149 H142 0.950 . S
C149 C146 1.387 . S
C150 C151 1.387 . S
C150 H154 0.950 . S
C150 C159 1.390 . S
C151 C150 1.387 . S
C151 C153 1.387 . S
H152 C159 0.950 . S
C153 C151 1.387 . S
C153 C155 1.390 . S
C153 H157 0.950 . S
H154 C150 0.950 . S
C155 C153 1.390 . S
C155 C156 1.387 . S
C155 H158 0.950 . S
C156 C155 1.387 . S
C156 C159 1.387 . S
H157 C153 0.950 . S
H158 C155 0.950 . S
C159 C150 1.390 . S
C159 H152 0.950 . S
C159 C156 1.387 . S
C160 C161 1.387 . S
C160 H164 0.950 . S
C160 C169 1.390 . S
C161 C160 1.387 . S
C161 C163 1.387 . S
H162 C169 0.950 . S
C163 C161 1.387 . S
C163 C165 1.390 . S
C163 H167 0.950 . S
H164 C160 0.950 . S
C165 C163 1.390 . S
C165 C166 1.387 . S
C165 H168 0.950 . S
C166 C165 1.387 . S
C166 C169 1.387 . S
H167 C163 0.950 . S
H168 C165 0.950 . S
C169 C160 1.390 . S
C169 H162 0.950 . S
C169 C166 1.387 . S
C170 C171 1.387 . S
C170 H174 0.950 . S
C170 C179 1.390 . S
C171 C170 1.387 . S
C171 C173 1.387 1_545 S
H172 C179 0.950 1_655 S
C173 C171 1.387 1_565 S
C173 C175 1.390 . S
C173 H177 0.950 . S
H174 C170 0.950 . S
C175 C173 1.390 . S
C175 C176 1.387 . S
C175 H178 0.950 . S
C176 C175 1.387 . S
C176 C179 1.387 1_565 S
H177 C173 0.950 . S
H178 C175 0.950 . S
C179 C170 1.390 . S
C179 H172 0.950 1_455 S
C179 C176 1.387 1_545 S
C180 C181 1.387 1_465 S
C180 H184 0.950 . S
C180 C189 1.390 . S
C181 C180 1.387 1_645 S
C181 C183 1.387 . S
H182 C189 0.950 . S
C183 C181 1.387 . S
C183 C185 1.390 . S
C183 H187 0.950 . S
H184 C180 0.950 . S
C185 C183 1.390 . S
C185 C186 1.387 1_545 S
C185 H188 0.950 . S
C186 C185 1.387 1_565 S
C186 C189 1.387 1_655 S
H187 C183 0.950 . S
H188 C185 0.950 . S
C189 C180 1.390 . S
C189 H182 0.950 . S
C189 C186 1.387 1_455 S
C190 C191 1.387 . S
C190 H194 0.950 . S
C190 C199 1.390 . S
C191 C190 1.387 . S
C191 C193 1.387 . S
H192 C199 0.950 . S
C193 C191 1.387 . S
C193 C195 1.390 . S
C193 H197 0.950 . S
H194 C190 0.950 . S
C195 C193 1.390 . S
C195 C196 1.387 . S
C195 H198 0.950 . S
C196 C195 1.387 . S
C196 C199 1.387 . S
H197 C193 0.950 . S
H198 C195 0.950 . S
C199 C190 1.390 . S
C199 H192 0.950 . S
C199 C196 1.387 . S
C200 C201 1.387 . S
C200 H204 0.950 . S
C200 C209 1.390 . S
C201 C200 1.387 . S
C201 C203 1.387 . S
H202 C209 0.950 . S
C203 C201 1.387 . S
C203 C205 1.390 . S
C203 H207 0.950 . S
H204 C200 0.950 . S
C205 C203 1.390 . S
C205 C206 1.387 . S
C205 H208 0.950 . S
C206 C205 1.387 . S
C206 C209 1.387 . S
H207 C203 0.950 . S
H208 C205 0.950 . S
C209 C200 1.390 . S
C209 H202 0.950 . S
C209 C206 1.387 . S
C96 C83 1.510 . S
C91 C21 1.512 . S
C101 C19 1.449 . S
C106 C78 1.426 . S
C111 C18 1.415 . S
C116 C89 1.411 . S
C121 C20 1.498 . S
C126 C72 1.503 . S
C131 C44 1.512 . S
C136 C61 1.511 . S
C141 C42 1.445 . S
C146 C56 1.428 . S
C156 C67 1.411 . S
C151 C41 1.415 . S
C166 C50 1.503 . S
C161 C43 1.498 . S
C171 C16 1.530 . S
C176 C51 1.526 . S
C181 C17 1.498 . S
C186 C62 1.494 . S
C196 C73 1.526 . S
C191 C39 1.530 . S
C201 C40 1.498 . S
C206 C84 1.494 . S
