# Generated by pormake.
# Topology cml, (3,6)-cn, num edge types: 1
# Building blocks:
#     Node 0, Type 0, BuildingBlock: CUQRIR_clean_linker_1, # of connection points: 3
#     Node 1, Type 0, BuildingBlock: CUQRIR_clean_linker_1, # of connection points: 3
#     Node 2, Type 0, BuildingBlock: CUQRIR_clean_linker_1, # of connection points: 3
#     Node 3, Type 0, BuildingBlock: CUQRIR_clean_linker_1, # of connection points: 3
#     Node 4, Type 0, BuildingBlock: CUQRIR_clean_linker_1, # of connection points: 3
#     Node 5, Type 0, BuildingBlock: CUQRIR_clean_linker_1, # of connection points: 3
#     Node 6, Type 0, BuildingBlock: CUQRIR_clean_linker_1, # of connection points: 3
#     Node 7, Type 0, BuildingBlock: CUQRIR_clean_linker_1, # of connection points: 3
#     Node 8, Type 1, BuildingBlock: OJICUG_clean_sbu_0, # of connection points: 6
#     Node 9, Type 1, BuildingBlock: OJICUG_clean_sbu_0, # of connection points: 6
#     Node 10, Type 1, BuildingBlock: OJICUG_clean_sbu_0, # of connection points: 6
#     Node 11, Type 1, BuildingBlock: OJICUG_clean_sbu_0, # of connection points: 6
#     Edge 12, Type (0, 1), None
#     Edge 13, Type (0, 1), None
#     Edge 14, Type (0, 1), None
#     Edge 15, Type (0, 1), None
#     Edge 16, Type (0, 1), None
#     Edge 17, Type (0, 1), None
#     Edge 18, Type (0, 1), None
#     Edge 19, Type (0, 1), None
#     Edge 20, Type (0, 1), None
#     Edge 21, Type (0, 1), None
#     Edge 22, Type (0, 1), None
#     Edge 23, Type (0, 1), None
#     Edge 24, Type (0, 1), None
#     Edge 25, Type (0, 1), None
#     Edge 26, Type (0, 1), None
#     Edge 27, Type (0, 1), None
#     Edge 28, Type (0, 1), None
#     Edge 29, Type (0, 1), None
#     Edge 30, Type (0, 1), None
#     Edge 31, Type (0, 1), None
#     Edge 32, Type (0, 1), None
#     Edge 33, Type (0, 1), None
#     Edge 34, Type (0, 1), None
#     Edge 35, Type (0, 1), None
# Relax obj value: 0.002
# Max RMSD: 0.046
# Mean RMSD: 0.041
data_MOF--net-cml--node1-OJICUG_clean_sbu_0--node2-CUQRIR_clean_linker_1--edge1-none
_symmetry_space_group_name_H-M    P1
_symmetry_Int_Tables_number       1
_symmetry_cell_setting            triclinic
loop_
_symmetry_equiv_pos_as_xyz
'x, y, z'
_cell_length_a     15.588882
_cell_length_b     15.606146
_cell_length_c     13.477618
_cell_angle_alpha  90.0
_cell_angle_beta   90.0
_cell_angle_gamma 90.001933
loop_
_atom_site_label
_atom_site_type_symbol
_atom_site_fract_x
_atom_site_fract_y
_atom_site_fract_z
_atom_type_partial_charge
C0 C 0.24741 0.31617 0.04311 0.0
N1 N 0.31352 0.37273 0.04681 0.0
N2 N 0.20403 0.323 0.95574 0.0
C3 C 0.22079 0.2595 0.1287 0.0
C4 C 0.24664 0.38625 0.90655 0.0
N5 N 0.31309 0.41639 0.96153 0.0
C6 C 0.21803 0.42548 0.8095 0.0
H7 H 0.23123 0.19148 0.10806 0.0
H8 H 0.15157 0.26857 0.14473 0.0
H9 H 0.25615 0.27395 0.19802 0.0
H10 H 0.14849 0.44039 0.81257 0.0
H11 H 0.22878 0.37919 0.74852 0.0
H12 H 0.25231 0.48593 0.79234 0.0
C13 C 0.76541 0.67498 0.54311 0.0
N14 N 0.6993 0.61841 0.54681 0.0
N15 N 0.80879 0.66814 0.45574 0.0
C16 C 0.79203 0.73165 0.6287 0.0
C17 C 0.76618 0.60489 0.40655 0.0
N18 N 0.69973 0.57475 0.46153 0.0
C19 C 0.79479 0.56567 0.3095 0.0
H20 H 0.78159 0.79967 0.60806 0.0
H21 H 0.86125 0.72258 0.64473 0.0
H22 H 0.75666 0.7172 0.69802 0.0
H23 H 0.86433 0.55076 0.31257 0.0
H24 H 0.78404 0.61196 0.24852 0.0
H25 H 0.76051 0.50522 0.29234 0.0
C26 C 0.76539 0.31617 0.04309 0.0
N27 N 0.69929 0.37274 0.0468 0.0
N28 N 0.80878 0.323 0.95572 0.0
C29 C 0.79199 0.25947 0.12867 0.0
C30 C 0.76617 0.38626 0.90653 0.0
N31 N 0.69972 0.4164 0.96152 0.0
C32 C 0.79479 0.42549 0.80949 0.0
H33 H 0.86121 0.26854 0.14472 0.0
H34 H 0.78156 0.19146 0.108 0.0
H35 H 0.75662 0.27391 0.19798 0.0
H36 H 0.78401 0.37922 0.7485 0.0
H37 H 0.86433 0.44037 0.81255 0.0
H38 H 0.76053 0.48596 0.79235 0.0
C39 C 0.24743 0.67498 0.54309 0.0
N40 N 0.31353 0.61841 0.5468 0.0
N41 N 0.20404 0.66814 0.45572 0.0
C42 C 0.22082 0.73167 0.62867 0.0
C43 C 0.24665 0.60489 0.40653 0.0
N44 N 0.31309 0.57475 0.46152 0.0
C45 C 0.21803 0.56566 0.30949 0.0
H46 H 0.15161 0.72261 0.64472 0.0
H47 H 0.23126 0.79969 0.608 0.0
H48 H 0.2562 0.71724 0.69798 0.0
H49 H 0.22881 0.61193 0.2485 0.0
H50 H 0.14848 0.55077 0.31255 0.0
H51 H 0.25229 0.50519 0.29235 0.0
C52 C 0.74741 0.81617 0.04311 0.0
N53 N 0.81352 0.87273 0.04681 0.0
N54 N 0.70403 0.823 0.95574 0.0
C55 C 0.72079 0.7595 0.1287 0.0
C56 C 0.74664 0.88625 0.90655 0.0
N57 N 0.81309 0.91639 0.96153 0.0
C58 C 0.71803 0.92548 0.8095 0.0
H59 H 0.73123 0.69148 0.10806 0.0
H60 H 0.65157 0.76857 0.14473 0.0
H61 H 0.75615 0.77395 0.19802 0.0
H62 H 0.64849 0.94039 0.81257 0.0
H63 H 0.72878 0.87919 0.74852 0.0
H64 H 0.75231 0.98593 0.79234 0.0
C65 C 0.26541 0.17498 0.54311 0.0
N66 N 0.1993 0.11841 0.54681 0.0
N67 N 0.30879 0.16814 0.45574 0.0
C68 C 0.29203 0.23165 0.6287 0.0
C69 C 0.26618 0.10489 0.40655 0.0
N70 N 0.19973 0.07475 0.46153 0.0
C71 C 0.29479 0.06567 0.3095 0.0
H72 H 0.28159 0.29967 0.60806 0.0
H73 H 0.36125 0.22258 0.64473 0.0
H74 H 0.25666 0.2172 0.69802 0.0
H75 H 0.36433 0.05076 0.31257 0.0
H76 H 0.28404 0.11196 0.24852 0.0
H77 H 0.26051 0.00522 0.29234 0.0
C78 C 0.26539 0.81617 0.04309 0.0
N79 N 0.19929 0.87274 0.0468 0.0
N80 N 0.30878 0.823 0.95572 0.0
C81 C 0.29199 0.75947 0.12867 0.0
C82 C 0.26617 0.88626 0.90653 0.0
N83 N 0.19972 0.9164 0.96152 0.0
C84 C 0.29479 0.92549 0.80949 0.0
H85 H 0.36121 0.76854 0.14472 0.0
H86 H 0.28156 0.69146 0.108 0.0
H87 H 0.25662 0.77391 0.19798 0.0
H88 H 0.28401 0.87922 0.7485 0.0
H89 H 0.36433 0.94037 0.81255 0.0
H90 H 0.26053 0.98596 0.79235 0.0
C91 C 0.74743 0.17498 0.54309 0.0
N92 N 0.81353 0.11841 0.5468 0.0
N93 N 0.70404 0.16814 0.45572 0.0
C94 C 0.72082 0.23167 0.62867 0.0
C95 C 0.74665 0.10489 0.40653 0.0
N96 N 0.81309 0.07475 0.46152 0.0
C97 C 0.71803 0.06566 0.30949 0.0
H98 H 0.65161 0.22261 0.64472 0.0
H99 H 0.73126 0.29969 0.608 0.0
H100 H 0.7562 0.21724 0.69798 0.0
H101 H 0.72881 0.11193 0.2485 0.0
H102 H 0.64848 0.05077 0.31255 0.0
H103 H 0.75229 0.00519 0.29235 0.0
Sc104 Sc 0.00641 0.75836 0.24605 0.0
Sc105 Sc 0.00642 0.98369 0.24705 0.0
Sc106 Sc 0.00642 0.86994 0.47282 0.0
O107 O 0.00642 0.87073 0.32192 0.0
C108 C 0.87688 0.71632 0.42336 0.0
C109 C 0.87823 0.87248 0.11527 0.0
C110 C 0.87796 0.02386 0.42709 0.0
C111 C 0.13459 0.87249 0.11526 0.0
C112 C 0.13596 0.71632 0.42333 0.0
C113 C 0.13486 0.02387 0.4271 0.0
O114 O 0.90685 0.70342 0.33696 0.0
O115 O 0.90845 0.94345 0.14498 0.0
O116 O 0.90842 0.96635 0.48349 0.0
O117 O 0.1067 0.80087 0.14697 0.0
O118 O 0.1059 0.77441 0.47951 0.0
O119 O 0.10707 0.03599 0.33936 0.0
O120 O 0.10599 0.70344 0.33693 0.0
O121 O 0.1044 0.94346 0.145 0.0
O122 O 0.10443 0.96634 0.48349 0.0
O123 O 0.90609 0.80086 0.14701 0.0
O124 O 0.90692 0.77442 0.47952 0.0
O125 O 0.90574 0.03597 0.33934 0.0
Sc126 Sc 0.00641 0.23279 0.74605 0.0
Sc127 Sc 0.0064 0.00746 0.74705 0.0
Sc128 Sc 0.0064 0.12121 0.97282 0.0
O129 O 0.0064 0.12041 0.82192 0.0
C130 C 0.13594 0.27483 0.92336 0.0
C131 C 0.13459 0.11866 0.61527 0.0
C132 C 0.13485 0.96729 0.92709 0.0
C133 C 0.87823 0.11866 0.61526 0.0
C134 C 0.87686 0.27483 0.92333 0.0
C135 C 0.87796 0.96728 0.9271 0.0
O136 O 0.10597 0.28773 0.83696 0.0
O137 O 0.10437 0.0477 0.64498 0.0
O138 O 0.1044 0.0248 0.98349 0.0
O139 O 0.90612 0.19027 0.64697 0.0
O140 O 0.90692 0.21674 0.97951 0.0
O141 O 0.90575 0.95515 0.83936 0.0
O142 O 0.90682 0.28771 0.83693 0.0
O143 O 0.90842 0.04769 0.645 0.0
O144 O 0.90839 0.02481 0.98349 0.0
O145 O 0.10673 0.19028 0.64701 0.0
O146 O 0.1059 0.21673 0.97952 0.0
O147 O 0.10708 0.95518 0.83934 0.0
Sc148 Sc 0.50641 0.25836 0.24605 0.0
Sc149 Sc 0.50642 0.48369 0.24705 0.0
Sc150 Sc 0.50642 0.36994 0.47282 0.0
O151 O 0.50642 0.37073 0.32192 0.0
C152 C 0.37688 0.21632 0.42336 0.0
C153 C 0.37823 0.37248 0.11527 0.0
C154 C 0.37796 0.52386 0.42709 0.0
C155 C 0.63459 0.37249 0.11526 0.0
C156 C 0.63596 0.21632 0.42333 0.0
C157 C 0.63486 0.52387 0.4271 0.0
O158 O 0.40685 0.20342 0.33696 0.0
O159 O 0.40845 0.44345 0.14498 0.0
O160 O 0.40842 0.46635 0.48349 0.0
O161 O 0.6067 0.30087 0.14697 0.0
O162 O 0.6059 0.27441 0.47951 0.0
O163 O 0.60707 0.53599 0.33936 0.0
O164 O 0.60599 0.20344 0.33693 0.0
O165 O 0.6044 0.44346 0.145 0.0
O166 O 0.60443 0.46634 0.48349 0.0
O167 O 0.40609 0.30086 0.14701 0.0
O168 O 0.40692 0.27442 0.47952 0.0
O169 O 0.40574 0.53597 0.33934 0.0
Sc170 Sc 0.50641 0.73279 0.74605 0.0
Sc171 Sc 0.5064 0.50746 0.74705 0.0
Sc172 Sc 0.5064 0.62121 0.97282 0.0
O173 O 0.5064 0.62041 0.82192 0.0
C174 C 0.63594 0.77483 0.92336 0.0
C175 C 0.63459 0.61866 0.61527 0.0
C176 C 0.63485 0.46729 0.92709 0.0
C177 C 0.37823 0.61866 0.61526 0.0
C178 C 0.37686 0.77483 0.92333 0.0
C179 C 0.37796 0.46728 0.9271 0.0
O180 O 0.60597 0.78773 0.83696 0.0
O181 O 0.60437 0.5477 0.64498 0.0
O182 O 0.6044 0.5248 0.98349 0.0
O183 O 0.40612 0.69027 0.64697 0.0
O184 O 0.40692 0.71674 0.97951 0.0
O185 O 0.40575 0.45515 0.83936 0.0
O186 O 0.40682 0.78771 0.83693 0.0
O187 O 0.40842 0.54769 0.645 0.0
O188 O 0.40839 0.52481 0.98349 0.0
O189 O 0.60673 0.69028 0.64701 0.0
O190 O 0.6059 0.71673 0.97952 0.0
O191 O 0.60708 0.45518 0.83934 0.0
loop_
_geom_bond_atom_site_label_1
_geom_bond_atom_site_label_2
_geom_bond_distance
_geom_bond_site_symmetry_2
_ccdc_geom_bond_type
C0 N1 1.317 . S
C0 N2 1.348 1_554 S
C0 C3 1.485 . S
N1 C0 1.317 . S
N1 N5 1.370 1_554 S
N2 C0 1.348 1_556 S
N2 C4 1.346 . S
C3 C0 1.485 . S
C3 H7 0.960 . S
C3 H8 0.961 . S
C3 H9 0.960 . S
C4 N2 1.346 . S
C4 N5 1.307 . S
C4 C6 1.486 . S
N5 N1 1.370 1_556 S
N5 C4 1.307 . S
C6 C4 1.486 . S
C6 H10 0.960 . S
C6 H11 0.960 . S
C6 H12 0.959 . S
H7 C3 0.960 . S
H8 C3 0.961 . S
H9 C3 0.960 . S
H10 C6 0.960 . S
H11 C6 0.960 . S
H12 C6 0.959 . S
C13 N14 1.317 . S
C13 N15 1.348 . S
C13 C16 1.485 . S
N14 C13 1.317 . S
N14 N18 1.370 . S
N15 C13 1.348 . S
N15 C17 1.346 . S
C16 C13 1.485 . S
C16 H20 0.960 . S
C16 H21 0.961 . S
C16 H22 0.960 . S
C17 N15 1.346 . S
C17 N18 1.307 . S
C17 C19 1.486 . S
N18 N14 1.370 . S
N18 C17 1.307 . S
C19 C17 1.486 . S
C19 H23 0.960 . S
C19 H24 0.960 . S
C19 H25 0.959 . S
H20 C16 0.960 . S
H21 C16 0.961 . S
H22 C16 0.960 . S
H23 C19 0.960 . S
H24 C19 0.960 . S
H25 C19 0.959 . S
C26 N27 1.317 . S
C26 N28 1.348 1_554 S
C26 C29 1.485 . S
N27 C26 1.317 . S
N27 N31 1.370 1_554 S
N28 C26 1.348 1_556 S
N28 C30 1.346 . S
C29 C26 1.485 . S
C29 H33 0.960 . S
C29 H34 0.961 . S
C29 H35 0.960 . S
C30 N28 1.346 . S
C30 N31 1.307 . S
C30 C32 1.486 . S
N31 N27 1.370 1_556 S
N31 C30 1.307 . S
C32 C30 1.486 . S
C32 H36 0.960 . S
C32 H37 0.960 . S
C32 H38 0.959 . S
H33 C29 0.960 . S
H34 C29 0.961 . S
H35 C29 0.960 . S
H36 C32 0.960 . S
H37 C32 0.960 . S
H38 C32 0.959 . S
C39 N40 1.317 . S
C39 N41 1.348 . S
C39 C42 1.485 . S
N40 C39 1.317 . S
N40 N44 1.370 . S
N41 C39 1.348 . S
N41 C43 1.346 . S
C42 C39 1.485 . S
C42 H46 0.960 . S
C42 H47 0.961 . S
C42 H48 0.960 . S
C43 N41 1.346 . S
C43 N44 1.307 . S
C43 C45 1.486 . S
N44 N40 1.370 . S
N44 C43 1.307 . S
C45 C43 1.486 . S
C45 H49 0.960 . S
C45 H50 0.960 . S
C45 H51 0.959 . S
H46 C42 0.960 . S
H47 C42 0.961 . S
H48 C42 0.960 . S
H49 C45 0.960 . S
H50 C45 0.960 . S
H51 C45 0.959 . S
C52 N53 1.317 . S
C52 N54 1.348 1_554 S
C52 C55 1.485 . S
N53 C52 1.317 . S
N53 N57 1.370 1_554 S
N54 C52 1.348 1_556 S
N54 C56 1.346 . S
C55 C52 1.485 . S
C55 H59 0.960 . S
C55 H60 0.961 . S
C55 H61 0.960 . S
C56 N54 1.346 . S
C56 N57 1.307 . S
C56 C58 1.486 . S
N57 N53 1.370 1_556 S
N57 C56 1.307 . S
C58 C56 1.486 . S
C58 H62 0.960 . S
C58 H63 0.960 . S
C58 H64 0.959 . S
H59 C55 0.960 . S
H60 C55 0.961 . S
H61 C55 0.960 . S
H62 C58 0.960 . S
H63 C58 0.960 . S
H64 C58 0.959 . S
C65 N66 1.317 . S
C65 N67 1.348 . S
C65 C68 1.485 . S
N66 C65 1.317 . S
N66 N70 1.370 . S
N67 C65 1.348 . S
N67 C69 1.346 . S
C68 C65 1.485 . S
C68 H72 0.960 . S
C68 H73 0.961 . S
C68 H74 0.960 . S
C69 N67 1.346 . S
C69 N70 1.307 . S
C69 C71 1.486 . S
N70 N66 1.370 . S
N70 C69 1.307 . S
C71 C69 1.486 . S
C71 H75 0.960 . S
C71 H76 0.960 . S
C71 H77 0.959 . S
H72 C68 0.960 . S
H73 C68 0.961 . S
H74 C68 0.960 . S
H75 C71 0.960 . S
H76 C71 0.960 . S
H77 C71 0.959 . S
C78 N79 1.317 . S
C78 N80 1.348 1_554 S
C78 C81 1.485 . S
N79 C78 1.317 . S
N79 N83 1.370 1_554 S
N80 C78 1.348 1_556 S
N80 C82 1.346 . S
C81 C78 1.485 . S
C81 H85 0.960 . S
C81 H86 0.961 . S
C81 H87 0.960 . S
C82 N80 1.346 . S
C82 N83 1.307 . S
C82 C84 1.486 . S
N83 N79 1.370 1_556 S
N83 C82 1.307 . S
C84 C82 1.486 . S
C84 H88 0.960 . S
C84 H89 0.960 . S
C84 H90 0.959 . S
H85 C81 0.960 . S
H86 C81 0.961 . S
H87 C81 0.960 . S
H88 C84 0.960 . S
H89 C84 0.960 . S
H90 C84 0.959 . S
C91 N92 1.317 . S
C91 N93 1.348 . S
C91 C94 1.485 . S
N92 C91 1.317 . S
N92 N96 1.370 . S
N93 C91 1.348 . S
N93 C95 1.346 . S
C94 C91 1.485 . S
C94 H98 0.960 . S
C94 H99 0.961 . S
C94 H100 0.960 . S
C95 N93 1.346 . S
C95 N96 1.307 . S
C95 C97 1.486 . S
N96 N92 1.370 . S
N96 C95 1.307 . S
C97 C95 1.486 . S
C97 H101 0.960 . S
C97 H102 0.960 . S
C97 H103 0.959 . S
H98 C94 0.960 . S
H99 C94 0.961 . S
H100 C94 0.960 . S
H101 C97 0.960 . S
H102 C97 0.960 . S
H103 C97 0.959 . S
Sc104 O107 2.025 . S
Sc104 O114 2.104 1_455 S
Sc104 O117 2.105 . S
Sc104 O120 2.105 . S
Sc104 O123 2.104 1_455 S
Sc105 O107 2.025 . S
Sc105 O115 2.104 1_455 S
Sc105 O119 2.105 1_565 S
Sc105 O121 2.105 . S
Sc105 O125 2.104 1_465 S
Sc106 O107 2.025 . S
Sc106 O116 2.104 1_455 S
Sc106 O118 2.105 . S
Sc106 O122 2.105 . S
Sc106 O124 2.104 1_455 S
O107 Sc104 2.025 . S
O107 Sc105 2.025 . S
O107 Sc106 2.025 . S
C108 O114 1.268 . S
C108 O124 1.268 . S
C109 O115 1.268 . S
C109 O123 1.268 . S
C110 O116 1.268 1_545 S
C110 O125 1.268 . S
C111 O117 1.268 . S
C111 O121 1.268 . S
C112 O118 1.268 . S
C112 O120 1.268 . S
C113 O119 1.268 . S
C113 O122 1.268 1_545 S
O114 Sc104 2.104 1_655 S
O114 C108 1.268 . S
O115 Sc105 2.104 1_655 S
O115 C109 1.268 . S
O116 Sc106 2.104 1_655 S
O116 C110 1.268 1_565 S
O117 Sc104 2.105 . S
O117 C111 1.268 . S
O118 Sc106 2.105 . S
O118 C112 1.268 . S
O119 Sc105 2.105 1_545 S
O119 C113 1.268 . S
O120 Sc104 2.105 . S
O120 C112 1.268 . S
O121 Sc105 2.105 . S
O121 C111 1.268 . S
O122 Sc106 2.105 . S
O122 C113 1.268 1_565 S
O123 Sc104 2.104 1_655 S
O123 C109 1.268 . S
O124 Sc106 2.104 1_655 S
O124 C108 1.268 . S
O125 Sc105 2.104 1_645 S
O125 C110 1.268 . S
Sc126 O129 2.025 . S
Sc126 O136 2.105 . S
Sc126 O139 2.104 1_455 S
Sc126 O142 2.104 1_455 S
Sc126 O145 2.105 . S
Sc127 O129 2.025 . S
Sc127 O137 2.105 . S
Sc127 O141 2.104 1_445 S
Sc127 O143 2.104 1_455 S
Sc127 O147 2.105 1_545 S
Sc128 O129 2.025 . S
Sc128 O138 2.105 1_556 S
Sc128 O140 2.104 1_455 S
Sc128 O144 2.104 1_456 S
Sc128 O146 2.105 . S
O129 Sc126 2.025 . S
O129 Sc127 2.025 . S
O129 Sc128 2.025 . S
C130 O136 1.268 . S
C130 O146 1.268 . S
C131 O137 1.268 . S
C131 O145 1.268 . S
C132 O138 1.264 1_566 S
C132 O147 1.268 . S
C133 O139 1.268 . S
C133 O143 1.268 . S
C134 O140 1.268 . S
C134 O142 1.268 . S
C135 O141 1.268 . S
C135 O144 1.264 1_566 S
O136 Sc126 2.105 . S
O136 C130 1.268 . S
O137 Sc127 2.105 . S
O137 C131 1.268 . S
O138 Sc128 2.105 1_554 S
O138 C132 1.264 1_544 S
O139 Sc126 2.104 1_655 S
O139 C133 1.268 . S
O140 Sc128 2.104 1_655 S
O140 C134 1.268 . S
O141 Sc127 2.104 1_665 S
O141 C135 1.268 . S
O142 Sc126 2.104 1_655 S
O142 C134 1.268 . S
O143 Sc127 2.104 1_655 S
O143 C133 1.268 . S
O144 Sc128 2.104 1_654 S
O144 C135 1.264 1_544 S
O145 Sc126 2.105 . S
O145 C131 1.268 . S
O146 Sc128 2.105 . S
O146 C130 1.268 . S
O147 Sc127 2.105 1_565 S
O147 C132 1.268 . S
Sc148 O151 2.025 . S
Sc148 O158 2.105 . S
Sc148 O161 2.105 . S
Sc148 O164 2.105 . S
Sc148 O167 2.105 . S
Sc149 O151 2.025 . S
Sc149 O159 2.105 . S
Sc149 O163 2.105 . S
Sc149 O165 2.105 . S
Sc149 O169 2.105 . S
Sc150 O151 2.025 . S
Sc150 O160 2.105 . S
Sc150 O162 2.105 . S
Sc150 O166 2.105 . S
Sc150 O168 2.105 . S
O151 Sc148 2.025 . S
O151 Sc149 2.025 . S
O151 Sc150 2.025 . S
C152 O158 1.268 . S
C152 O168 1.268 . S
C153 O159 1.268 . S
C153 O167 1.268 . S
C154 O160 1.268 . S
C154 O169 1.268 . S
C155 O161 1.268 . S
C155 O165 1.268 . S
C156 O162 1.268 . S
C156 O164 1.268 . S
C157 O163 1.268 . S
C157 O166 1.268 . S
O158 Sc148 2.105 . S
O158 C152 1.268 . S
O159 Sc149 2.105 . S
O159 C153 1.268 . S
O160 Sc150 2.105 . S
O160 C154 1.268 . S
O161 Sc148 2.105 . S
O161 C155 1.268 . S
O162 Sc150 2.105 . S
O162 C156 1.268 . S
O163 Sc149 2.105 . S
O163 C157 1.268 . S
O164 Sc148 2.105 . S
O164 C156 1.268 . S
O165 Sc149 2.105 . S
O165 C155 1.268 . S
O166 Sc150 2.105 . S
O166 C157 1.268 . S
O167 Sc148 2.105 . S
O167 C153 1.268 . S
O168 Sc150 2.105 . S
O168 C152 1.268 . S
O169 Sc149 2.105 . S
O169 C154 1.268 . S
Sc170 O173 2.025 . S
Sc170 O180 2.105 . S
Sc170 O183 2.105 . S
Sc170 O186 2.105 . S
Sc170 O189 2.105 . S
Sc171 O173 2.025 . S
Sc171 O181 2.105 . S
Sc171 O185 2.105 . S
Sc171 O187 2.105 . S
Sc171 O191 2.105 . S
Sc172 O173 2.025 . S
Sc172 O182 2.104 1_556 S
Sc172 O184 2.105 . S
Sc172 O188 2.104 1_556 S
Sc172 O190 2.105 . S
O173 Sc170 2.025 . S
O173 Sc171 2.025 . S
O173 Sc172 2.025 . S
C174 O180 1.268 . S
C174 O190 1.268 . S
C175 O181 1.268 . S
C175 O189 1.268 . S
C176 O182 1.264 1_556 S
C176 O191 1.268 . S
C177 O183 1.268 . S
C177 O187 1.268 . S
C178 O184 1.268 . S
C178 O186 1.268 . S
C179 O185 1.268 . S
C179 O188 1.264 1_556 S
O180 Sc170 2.105 . S
O180 C174 1.268 . S
O181 Sc171 2.105 . S
O181 C175 1.268 . S
O182 Sc172 2.104 1_554 S
O182 C176 1.264 1_554 S
O183 Sc170 2.105 . S
O183 C177 1.268 . S
O184 Sc172 2.105 . S
O184 C178 1.268 . S
O185 Sc171 2.105 . S
O185 C179 1.268 . S
O186 Sc170 2.105 . S
O186 C178 1.268 . S
O187 Sc171 2.105 . S
O187 C177 1.268 . S
O188 Sc172 2.104 1_554 S
O188 C179 1.264 1_554 S
O189 Sc170 2.105 . S
O189 C175 1.268 . S
O190 Sc172 2.105 . S
O190 C174 1.268 . S
O191 Sc171 2.105 . S
O191 C176 1.268 . S
N2 C130 1.501 . S
C108 N15 1.501 . S
C134 N28 1.492 . S
C112 N41 1.492 . S
C174 N54 1.501 . S
C152 N67 1.501 . S
N80 C178 1.492 . S
C156 N93 1.492 . S
N5 C179 1.524 . S
C157 N18 1.524 . S
N31 C176 1.516 . S
N44 C154 1.516 . S
C135 N57 1.524 . S
N70 C113 1.524 . S
C132 N83 1.516 . S
C110 N96 1.516 . S
C153 N1 1.536 . S
C175 N14 1.536 . S
N27 C155 1.486 . S
C177 N40 1.486 . S
C109 N53 1.536 . S
N66 C131 1.536 . S
N79 C111 1.486 . S
N92 C133 1.486 . S
