# Generated by pormake.
# Topology rtl, (3,6)-cn, num edge types: 1
# Building blocks:
#     Node 0, Type 0, BuildingBlock: MIDCAF_clean_linker_0, # of connection points: 3
#     Node 1, Type 0, BuildingBlock: MIDCAF_clean_linker_0, # of connection points: 3
#     Node 2, Type 0, BuildingBlock: MIDCAF_clean_linker_0, # of connection points: 3
#     Node 3, Type 0, BuildingBlock: MIDCAF_clean_linker_0, # of connection points: 3
#     Node 4, Type 1, BuildingBlock: CIFDUS_clean_sbu_1, # of connection points: 6
#     Node 5, Type 1, BuildingBlock: CIFDUS_clean_sbu_1, # of connection points: 6
#     Edge 6, Type (0, 1), None
#     Edge 7, Type (0, 1), None
#     Edge 8, Type (0, 1), None
#     Edge 9, Type (0, 1), None
#     Edge 10, Type (0, 1), None
#     Edge 11, Type (0, 1), None
#     Edge 12, Type (0, 1), None
#     Edge 13, Type (0, 1), None
#     Edge 14, Type (0, 1), None
#     Edge 15, Type (0, 1), None
#     Edge 16, Type (0, 1), None
#     Edge 17, Type (0, 1), None
# Relax obj value: 0.030
# Max RMSD: 0.063
# Mean RMSD: 0.048
data_MOF--net-rtl--node1-CIFDUS_clean_sbu_1--node2-MIDCAF_clean_linker_0--edge1-none
_symmetry_space_group_name_H-M    P1
_symmetry_Int_Tables_number       1
_symmetry_cell_setting            triclinic
loop_
_symmetry_equiv_pos_as_xyz
'x, y, z'
_cell_length_a     20.513712
_cell_length_b     22.564265
_cell_length_c     16.032015
_cell_angle_alpha  89.779549
_cell_angle_beta   98.638789
_cell_angle_gamma 89.474085
loop_
_atom_site_label
_atom_site_type_symbol
_atom_site_fract_x
_atom_site_fract_y
_atom_site_fract_z
_atom_type_partial_charge
C0 C 0.16819 0.02097 0.34697 0.0
C1 C 0.18312 0.9874 0.42145 0.0
C2 C 0.2331 0.94391 0.42625 0.0
C3 C 0.26188 0.92938 0.35515 0.0
H4 H 0.28528 0.74355 0.14875 0.0
H5 H 0.35051 0.65912 0.10872 0.0
H6 H 0.5051 0.77888 0.06707 0.0
H7 H 0.4394 0.86271 0.10397 0.0
H8 H 0.22016 0.88015 0.8883 0.0
H9 H 0.15524 0.92247 0.75946 0.0
H10 H 0.12094 0.08044 0.89923 0.0
H11 H 0.18392 0.03916 0.02414 0.0
H12 H 0.18012 0.02996 0.21724 0.0
H13 H 0.12907 0.05403 0.34077 0.0
H14 H 0.24501 0.91689 0.48261 0.0
H15 H 0.29655 0.89261 0.35971 0.0
N16 N 0.29984 0.88522 0.19924 0.0
N17 N 0.28229 0.88296 0.05052 0.0
N18 N 0.23008 0.95536 0.12228 0.0
C19 C 0.31178 0.86027 0.12595 0.0
C20 C 0.24116 0.93075 0.0483 0.0
C21 C 0.25905 0.93325 0.19787 0.0
C22 C 0.35715 0.80928 0.12739 0.0
C23 C 0.33449 0.75115 0.13445 0.0
C24 C 0.37228 0.70278 0.11332 0.0
C25 C 0.43279 0.71251 0.08499 0.0
C26 C 0.45897 0.77007 0.08989 0.0
C27 C 0.42099 0.81822 0.1095 0.0
C28 C 0.20676 0.95595 0.96716 0.0
C29 C 0.19888 0.92409 0.8907 0.0
C30 C 0.16149 0.94818 0.81696 0.0
C31 C 0.13191 1.00469 0.81848 0.0
C32 C 0.14201 0.0366 0.89465 0.0
C33 C 0.17848 0.01274 0.96728 0.0
C34 C 0.24099 0.95789 0.27749 0.0
C35 C 0.19668 1.00622 0.27553 0.0
C36 C 0.58764 0.55429 0.38229 0.0
C37 C 0.60092 0.56898 0.30135 0.0
C38 C 0.65189 0.60915 0.29399 0.0
C39 C 0.68999 0.6325 0.36665 0.0
H40 H 0.91037 0.69139 0.54505 0.0
H41 H 0.9863 0.76808 0.51666 0.0
H42 H 0.86489 0.90102 0.61351 0.0
H43 H 0.7893 0.82205 0.64574 0.0
H44 H 0.7587 0.68581 0.83079 0.0
H45 H 0.69839 0.65983 0.94536 0.0
H46 H 0.63049 0.49978 0.81616 0.0
H47 H 0.69049 0.52538 0.70098 0.0
H48 H 0.61308 0.56427 0.51493 0.0
H49 H 0.54825 0.52417 0.39057 0.0
H50 H 0.66346 0.62121 0.23245 0.0
H51 H 0.72976 0.6624 0.35932 0.0
N52 N 0.76102 0.68346 0.52539 0.0
N53 N 0.78496 0.68013 0.67399 0.0
N54 N 0.70996 0.61357 0.60145 0.0
C55 C 0.79423 0.70481 0.5991 0.0
C56 C 0.74322 0.63367 0.67524 0.0
C57 C 0.71789 0.63814 0.52634 0.0
C58 C 0.84396 0.75113 0.59629 0.0
C59 C 0.90087 0.73668 0.56251 0.0
C60 C 0.94431 0.78079 0.54659 0.0
C61 C 0.93111 0.84088 0.5618 0.0
C62 C 0.87655 0.85519 0.60166 0.0
C63 C 0.83316 0.81023 0.61922 0.0
C64 C 0.72745 0.60876 0.75551 0.0
C65 C 0.73383 0.64358 0.82855 0.0
C66 C 0.70002 0.62827 0.89491 0.0
C67 C 0.65993 0.57781 0.88948 0.0
C68 C 0.66183 0.53841 0.82254 0.0
C69 C 0.69517 0.55388 0.75575 0.0
C70 C 0.67759 0.61609 0.44771 0.0
C71 C 0.62523 0.57737 0.45409 0.0
C72 C 0.85695 0.0397 0.7756 0.0
C73 C 0.84728 0.07565 0.70321 0.0
C74 C 0.80053 0.12206 0.69827 0.0
C75 C 0.77194 0.138 0.76898 0.0
H76 H 0.7313 0.32444 0.95902 0.0
H77 H 0.6563 0.40406 0.99424 0.0
H78 H 0.53402 0.27136 0.08645 0.0
H79 H 0.60913 0.19382 0.05466 0.0
H80 H 0.78812 0.16179 0.24106 0.0
H81 H 0.85221 0.11856 0.369 0.0
H82 H 0.96885 0.01879 0.21438 0.0
H83 H 0.90607 0.06119 0.0886 0.0
H84 H 0.84214 0.03031 0.90408 0.0
H85 H 0.89325 1.00412 0.7816 0.0
H86 H 0.79261 0.15075 0.64323 0.0
H87 H 0.74119 0.17747 0.76545 0.0
N88 N 0.73415 0.18108 0.92751 0.0
N89 N 0.75919 0.18429 0.07586 0.0
N90 N 0.80955 0.1132 1.00019 0.0
C91 C 0.72572 0.20631 1.00221 0.0
C92 C 0.80199 0.13801 0.07513 0.0
C93 C 0.77585 0.13382 0.92633 0.0
C94 C 0.67592 0.25339 1.00536 0.0
C95 C 0.68725 0.31282 0.98486 0.0
C96 C 0.64423 0.3582 1.00419 0.0
C97 C 0.58964 0.34401 0.04367 0.0
C98 C 0.57594 0.28387 0.0566 0.0
C99 C 0.6189 0.23928 0.03867 0.0
C100 C 0.84124 0.11451 0.15419 0.0
C101 C 0.8277 0.13083 0.23467 0.0
C102 C 0.86445 0.10619 0.30796 0.0
C103 C 0.91522 0.06474 0.30194 0.0
C104 C 0.92951 0.04985 0.22159 0.0
C105 C 0.89321 0.07429 0.14903 0.0
C106 C 0.78969 0.10765 0.84576 0.0
C107 C 0.82869 0.05576 0.84655 0.0
C108 C 0.39429 0.51334 0.70983 0.0
C109 C 0.38238 0.49269 0.78891 0.0
C110 C 0.33998 0.44441 0.79195 0.0
C111 C 0.30794 0.41934 0.71626 0.0
H112 H 0.08173 0.35553 0.47229 0.0
H113 H 0.01283 0.27545 0.51105 0.0
H114 H 0.1761 0.1527 0.52009 0.0
H115 H 0.24544 0.23352 0.4807 0.0
H116 H 0.22194 0.39181 0.24281 0.0
H117 H 0.27217 0.41907 0.12002 0.0
H118 H 0.38705 0.55239 0.26547 0.0
H119 H 0.33758 0.52522 0.38895 0.0
H120 H 0.37355 0.50716 0.5766 0.0
H121 H 0.42762 0.5498 0.70508 0.0
H122 H 0.32989 0.42762 0.85205 0.0
H123 H 0.27417 0.38313 0.71981 0.0
N124 N 0.24378 0.37132 0.552 0.0
N125 N 0.22204 0.37904 0.40369 0.0
N126 N 0.29212 0.44667 0.48198 0.0
C127 C 0.21318 0.35105 0.47634 0.0
C128 C 0.2617 0.42723 0.40607 0.0
C129 C 0.28358 0.4193 0.55529 0.0
C130 C 0.1686 0.30038 0.47448 0.0
C131 C 0.10182 0.31085 0.47819 0.0
C132 C 0.06228 0.26483 0.49926 0.0
C133 C 0.0891 0.20783 0.51775 0.0
C134 C 0.15395 0.19587 0.50443 0.0
C135 C 0.19377 0.2422 0.48335 0.0
C136 C 0.27741 0.45471 0.32685 0.0
C137 C 0.25598 0.42848 0.24821 0.0
C138 C 0.2839 0.4448 0.17715 0.0
C139 C 0.33344 0.48787 0.18303 0.0
C140 C 0.34822 0.51973 0.25848 0.0
C141 C 0.32071 0.50312 0.3299 0.0
C142 C 0.31843 0.4421 0.63703 0.0
C143 C 0.36301 0.48869 0.63552 0.0
O144 O 0.95177 0.05518 0.45142 0.0
Mn145 Mn 0.01387 0.02955 0.56068 0.0
O146 O 0.98478 0.98803 0.36643 0.0
Mn147 Mn 0.02006 0.93806 0.45484 0.0
O148 O 0.07663 1.00518 0.67276 0.0
O149 O 0.04255 0.11761 0.57293 0.0
Mn150 Mn 0.01973 0.13151 0.67302 0.0
O151 O 0.9328 0.03734 0.62913 0.0
O152 O 0.06753 0.08401 0.75469 0.0
O153 O 0.09577 0.02523 0.49221 0.0
O154 O 0.10935 0.93091 0.47987 0.0
O155 O 0.05397 0.2007 0.65029 0.0
O156 O 0.93031 0.1317 0.66444 0.0
C157 C 0.96678 0.88561 0.51852 0.0
C158 C 0.95244 0.03485 0.37733 0.0
C159 C 0.08994 0.03228 0.74386 0.0
C160 C 0.06065 0.17339 0.58099 0.0
C161 C 0.90264 0.08218 0.65534 0.0
C162 C 0.13267 0.98159 0.47761 0.0
O163 O 0.98134 0.93977 0.548 0.0
O164 O 0.98348 0.86869 0.44738 0.0
O165 O 0.56111 0.55951 0.15246 0.0
Mn166 Mn 0.50137 0.53122 0.04299 0.0
O167 O 0.535 0.49068 0.24034 0.0
Mn168 Mn 0.50061 0.43944 0.15485 0.0
O169 O 0.44163 0.50106 0.93127 0.0
O170 O 0.47091 0.61918 0.02565 0.0
Mn171 Mn 0.47532 0.62859 0.91712 0.0
O172 O 0.58245 0.54157 0.97663 0.0
O173 O 0.41627 0.58186 0.85168 0.0
O174 O 0.4188 0.5258 0.10985 0.0
O175 O 0.41152 0.43148 0.13175 0.0
O176 O 0.44745 0.6998 0.94378 0.0
O177 O 0.56062 0.62364 0.89824 0.0
C178 C 0.55473 0.38825 0.0893 0.0
C179 C 0.56354 0.53876 0.22723 0.0
C180 C 0.41218 0.52665 0.86382 0.0
C181 C 0.4514 0.67499 0.01755 0.0
C182 C 0.59891 0.58162 0.9266 0.0
C183 C 0.38498 0.48158 0.12859 0.0
O184 O 0.53725 0.44236 0.06038 0.0
O185 O 0.54045 0.3706 0.16146 0.0
loop_
_geom_bond_atom_site_label_1
_geom_bond_atom_site_label_2
_geom_bond_distance
_geom_bond_site_symmetry_2
_ccdc_geom_bond_type
C0 C1 1.378 1_545 S
C0 H13 0.959 . S
C0 C35 1.376 1_545 S
C1 C0 1.378 1_565 S
C1 C2 1.378 . S
C2 C1 1.378 . S
C2 C3 1.378 . S
C2 H14 0.952 . S
C3 C2 1.378 . S
C3 H15 0.950 . S
C3 C34 1.383 . S
H4 C23 0.947 . S
H5 C24 0.946 . S
H6 C26 0.953 1_556 S
H7 C27 0.945 1_556 S
H8 C29 0.952 . S
H9 C30 0.949 . S
H10 C32 0.950 . S
H11 C33 0.948 . S
H12 C35 0.951 . S
H13 C0 0.959 . S
H14 C2 0.952 . S
H15 C3 0.950 . S
N16 C19 1.382 . S
N16 C21 1.363 . S
N17 C19 1.371 . S
N17 C20 1.372 . S
N18 C20 1.361 . S
N18 C21 1.377 . S
C19 N16 1.382 . S
C19 N17 1.371 . S
C19 C22 1.480 . S
C20 N17 1.372 . S
C20 N18 1.361 . S
C20 C28 1.457 1_554 S
C21 N16 1.363 . S
C21 N18 1.377 . S
C21 C34 1.479 . S
C22 C19 1.480 . S
C22 C23 1.383 . S
C22 C27 1.385 . S
C23 H4 0.947 . S
C23 C22 1.383 . S
C23 C24 1.388 . S
C24 H5 0.946 . S
C24 C23 1.388 . S
C24 C25 1.384 . S
C25 C24 1.384 . S
C25 C26 1.377 . S
C26 H6 0.953 1_554 S
C26 C25 1.377 . S
C26 C27 1.369 . S
C27 H7 0.945 1_554 S
C27 C22 1.385 . S
C27 C26 1.369 . S
C28 C20 1.457 1_556 S
C28 C29 1.372 . S
C28 C33 1.364 1_565 S
C29 H8 0.952 . S
C29 C28 1.372 . S
C29 C30 1.389 . S
C30 H9 0.949 . S
C30 C29 1.389 . S
C30 C31 1.387 . S
C31 C30 1.387 . S
C31 C32 1.372 1_565 S
C32 H10 0.950 . S
C32 C31 1.372 1_545 S
C32 C33 1.379 . S
C33 H11 0.948 . S
C33 C28 1.364 1_545 S
C33 C32 1.379 . S
C34 C3 1.383 . S
C34 C21 1.479 . S
C34 C35 1.398 . S
C35 C0 1.376 1_565 S
C35 H12 0.951 . S
C35 C34 1.398 . S
C36 C37 1.384 . S
C36 H49 0.947 . S
C36 C71 1.382 . S
C37 C36 1.384 . S
C37 C38 1.378 . S
C38 C37 1.378 . S
C38 C39 1.378 . S
C38 H50 0.952 . S
C39 C38 1.378 . S
C39 H51 0.950 . S
C39 C70 1.383 . S
H40 C59 0.947 . S
H41 C60 0.946 . S
H42 C62 0.953 . S
H43 C63 0.945 . S
H44 C65 0.952 . S
H45 C66 0.949 . S
H46 C68 0.950 . S
H47 C69 0.948 . S
H48 C71 0.951 . S
H49 C36 0.947 . S
H50 C38 0.952 . S
H51 C39 0.950 . S
N52 C55 1.382 . S
N52 C57 1.363 . S
N53 C55 1.371 . S
N53 C56 1.372 . S
N54 C56 1.361 . S
N54 C57 1.377 . S
C55 N52 1.382 . S
C55 N53 1.371 . S
C55 C58 1.480 . S
C56 N53 1.372 . S
C56 N54 1.361 . S
C56 C64 1.457 . S
C57 N52 1.363 . S
C57 N54 1.377 . S
C57 C70 1.479 . S
C58 C55 1.480 . S
C58 C59 1.383 . S
C58 C63 1.385 . S
C59 H40 0.947 . S
C59 C58 1.383 . S
C59 C60 1.388 . S
C60 H41 0.946 . S
C60 C59 1.388 . S
C60 C61 1.384 . S
C61 C60 1.384 . S
C61 C62 1.377 . S
C62 H42 0.953 . S
C62 C61 1.377 . S
C62 C63 1.369 . S
C63 H43 0.945 . S
C63 C58 1.385 . S
C63 C62 1.369 . S
C64 C56 1.457 . S
C64 C65 1.372 . S
C64 C69 1.364 . S
C65 H44 0.952 . S
C65 C64 1.372 . S
C65 C66 1.389 . S
C66 H45 0.949 . S
C66 C65 1.389 . S
C66 C67 1.387 . S
C67 C66 1.387 . S
C67 C68 1.372 . S
C68 H46 0.950 . S
C68 C67 1.372 . S
C68 C69 1.379 . S
C69 H47 0.948 . S
C69 C64 1.364 . S
C69 C68 1.379 . S
C70 C39 1.383 . S
C70 C57 1.479 . S
C70 C71 1.398 . S
C71 C36 1.382 . S
C71 H48 0.951 . S
C71 C70 1.398 . S
C72 C73 1.384 . S
C72 H85 0.947 . S
C72 C107 1.382 . S
C73 C72 1.384 . S
C73 C74 1.378 . S
C74 C73 1.378 . S
C74 C75 1.378 . S
C74 H86 0.952 . S
C75 C74 1.378 . S
C75 H87 0.950 . S
C75 C106 1.383 . S
H76 C95 0.947 . S
H77 C96 0.946 . S
H78 C98 0.953 . S
H79 C99 0.945 . S
H80 C101 0.952 . S
H81 C102 0.949 . S
H82 C104 0.950 . S
H83 C105 0.948 . S
H84 C107 0.951 . S
H85 C72 0.947 . S
H86 C74 0.952 . S
H87 C75 0.950 . S
N88 C91 1.382 1_556 S
N88 C93 1.363 . S
N89 C91 1.371 . S
N89 C92 1.372 . S
N90 C92 1.361 . S
N90 C93 1.377 1_554 S
C91 N88 1.382 1_554 S
C91 N89 1.371 . S
C91 C94 1.480 . S
C92 N89 1.372 . S
C92 N90 1.361 . S
C92 C100 1.457 . S
C93 N88 1.363 . S
C93 N90 1.377 1_556 S
C93 C106 1.479 . S
C94 C91 1.480 . S
C94 C95 1.383 1_554 S
C94 C99 1.385 . S
C95 H76 0.947 . S
C95 C94 1.383 1_556 S
C95 C96 1.388 . S
C96 H77 0.946 . S
C96 C95 1.388 . S
C96 C97 1.384 . S
C97 C96 1.384 . S
C97 C98 1.377 1_556 S
C98 H78 0.953 . S
C98 C97 1.377 1_554 S
C98 C99 1.369 . S
C99 H79 0.945 . S
C99 C94 1.385 . S
C99 C98 1.369 . S
C100 C92 1.457 . S
C100 C101 1.372 . S
C100 C105 1.364 . S
C101 H80 0.952 . S
C101 C100 1.372 . S
C101 C102 1.389 . S
C102 H81 0.949 . S
C102 C101 1.389 . S
C102 C103 1.387 . S
C103 C102 1.387 . S
C103 C104 1.372 . S
C104 H82 0.950 . S
C104 C103 1.372 . S
C104 C105 1.379 . S
C105 H83 0.948 . S
C105 C100 1.364 . S
C105 C104 1.379 . S
C106 C75 1.383 . S
C106 C93 1.479 . S
C106 C107 1.398 . S
C107 C72 1.382 . S
C107 H84 0.951 . S
C107 C106 1.398 . S
C108 C109 1.384 . S
C108 H121 0.947 . S
C108 C143 1.382 . S
C109 C108 1.384 . S
C109 C110 1.378 . S
C110 C109 1.378 . S
C110 C111 1.378 . S
C110 H122 0.952 . S
C111 C110 1.378 . S
C111 H123 0.950 . S
C111 C142 1.383 . S
H112 C131 0.947 . S
H113 C132 0.946 . S
H114 C134 0.953 . S
H115 C135 0.945 . S
H116 C137 0.952 . S
H117 C138 0.949 . S
H118 C140 0.950 . S
H119 C141 0.948 . S
H120 C143 0.951 . S
H121 C108 0.947 . S
H122 C110 0.952 . S
H123 C111 0.950 . S
N124 C127 1.382 . S
N124 C129 1.363 . S
N125 C127 1.371 . S
N125 C128 1.372 . S
N126 C128 1.361 . S
N126 C129 1.377 . S
C127 N124 1.382 . S
C127 N125 1.371 . S
C127 C130 1.480 . S
C128 N125 1.372 . S
C128 N126 1.361 . S
C128 C136 1.457 . S
C129 N124 1.363 . S
C129 N126 1.377 . S
C129 C142 1.479 . S
C130 C127 1.480 . S
C130 C131 1.383 . S
C130 C135 1.385 . S
C131 H112 0.947 . S
C131 C130 1.383 . S
C131 C132 1.388 . S
C132 H113 0.946 . S
C132 C131 1.388 . S
C132 C133 1.384 . S
C133 C132 1.384 . S
C133 C134 1.377 . S
C134 H114 0.953 . S
C134 C133 1.377 . S
C134 C135 1.369 . S
C135 H115 0.945 . S
C135 C130 1.385 . S
C135 C134 1.369 . S
C136 C128 1.457 . S
C136 C137 1.372 . S
C136 C141 1.364 . S
C137 H116 0.952 . S
C137 C136 1.372 . S
C137 C138 1.389 . S
C138 H117 0.949 . S
C138 C137 1.389 . S
C138 C139 1.387 . S
C139 C138 1.387 . S
C139 C140 1.372 . S
C140 H118 0.950 . S
C140 C139 1.372 . S
C140 C141 1.379 . S
C141 H119 0.948 . S
C141 C136 1.364 . S
C141 C140 1.379 . S
C142 C111 1.383 . S
C142 C129 1.479 . S
C142 C143 1.398 . S
C143 C108 1.382 . S
C143 H120 0.951 . S
C143 C142 1.398 . S
O144 Mn145 2.163 1_655 S
O144 C158 1.244 . S
Mn145 O144 2.163 1_455 S
Mn145 O148 2.160 1_545 S
Mn145 O149 2.221 . S
Mn145 O151 2.163 1_455 S
Mn145 O153 2.160 1_545 S
Mn145 O163 2.221 1_445 S
O146 Mn147 2.087 . S
O146 C158 1.256 1_565 S
Mn147 O146 2.087 . S
Mn147 O154 2.089 1_655 S
Mn147 O163 2.290 . S
Mn147 O164 2.251 . S
O148 Mn145 2.160 1_565 S
O148 C159 1.239 . S
O149 Mn145 2.221 . S
O149 Mn150 2.290 . S
O149 C160 1.278 . S
Mn150 O149 2.290 . S
Mn150 O152 2.089 . S
Mn150 O155 2.251 . S
Mn150 O156 2.087 1_455 S
O151 Mn145 2.163 1_655 S
O151 C161 1.244 . S
O152 Mn150 2.089 . S
O152 C159 1.256 1_545 S
O153 Mn145 2.160 1_565 S
O153 C162 1.239 . S
O154 Mn147 2.089 1_455 S
O154 C162 1.256 . S
O155 Mn150 2.251 . S
O155 C160 1.241 . S
O156 Mn150 2.087 1_655 S
O156 C161 1.256 . S
C157 O163 1.278 . S
C157 O164 1.241 . S
C158 O144 1.244 . S
C158 O146 1.256 1_545 S
C159 O148 1.239 . S
C159 O152 1.256 1_565 S
C160 O149 1.278 . S
C160 O155 1.241 . S
C161 O151 1.244 . S
C161 O156 1.256 . S
C162 O153 1.239 . S
C162 O154 1.256 . S
O163 Mn145 2.221 1_665 S
O163 Mn147 2.290 . S
O163 C157 1.278 . S
O164 Mn147 2.251 . S
O164 C157 1.241 . S
O165 Mn166 2.163 . S
O165 C179 1.244 . S
Mn166 O165 2.163 . S
Mn166 O169 2.160 1_554 S
Mn166 O170 2.221 . S
Mn166 O172 2.163 1_554 S
Mn166 O174 2.160 . S
Mn166 O184 2.221 . S
O167 Mn168 2.087 . S
O167 C179 1.256 . S
Mn168 O167 2.087 . S
Mn168 O175 2.089 . S
Mn168 O184 2.290 . S
Mn168 O185 2.251 . S
O169 Mn166 2.160 1_556 S
O169 C180 1.239 . S
O170 Mn166 2.221 . S
O170 Mn171 2.290 1_554 S
O170 C181 1.278 . S
Mn171 O170 2.290 1_556 S
Mn171 O173 2.089 . S
Mn171 O176 2.251 . S
Mn171 O177 2.087 . S
O172 Mn166 2.163 1_556 S
O172 C182 1.244 . S
O173 Mn171 2.089 . S
O173 C180 1.256 . S
O174 Mn166 2.160 . S
O174 C183 1.239 . S
O175 Mn168 2.089 . S
O175 C183 1.256 . S
O176 Mn171 2.251 . S
O176 C181 1.241 1_556 S
O177 Mn171 2.087 . S
O177 C182 1.256 . S
C178 O184 1.278 . S
C178 O185 1.241 . S
C179 O165 1.244 . S
C179 O167 1.256 . S
C180 O169 1.239 . S
C180 O173 1.256 . S
C181 O170 1.278 . S
C181 O176 1.241 1_554 S
C182 O172 1.244 . S
C182 O177 1.256 . S
C183 O174 1.239 . S
C183 O175 1.256 . S
O184 Mn166 2.221 . S
O184 Mn168 2.290 . S
O184 C178 1.278 . S
O185 Mn168 2.251 . S
O185 C178 1.241 . S
C160 C133 1.910 . S
C25 C181 1.982 . S
C61 C157 2.102 . S
C97 C178 1.888 1_556 S
C162 C1 2.371 . S
C182 C67 2.062 . S
C103 C158 1.621 . S
C109 C180 1.819 . S
C179 C37 1.732 . S
C161 C73 1.968 . S
C183 C139 2.200 . S
C31 C159 1.943 . S
