# Generated by pormake.
# Topology zzz, (3,6)-cn, num edge types: 1
# Building blocks:
#     Node 0, Type 0, BuildingBlock: BETDAH_clean_linker_0, # of connection points: 3
#     Node 1, Type 0, BuildingBlock: BETDAH_clean_linker_0, # of connection points: 3
#     Node 2, Type 0, BuildingBlock: BETDAH_clean_linker_0, # of connection points: 3
#     Node 3, Type 0, BuildingBlock: BETDAH_clean_linker_0, # of connection points: 3
#     Node 4, Type 0, BuildingBlock: BETDAH_clean_linker_0, # of connection points: 3
#     Node 5, Type 0, BuildingBlock: BETDAH_clean_linker_0, # of connection points: 3
#     Node 6, Type 0, BuildingBlock: BETDAH_clean_linker_0, # of connection points: 3
#     Node 7, Type 0, BuildingBlock: BETDAH_clean_linker_0, # of connection points: 3
#     Node 8, Type 1, BuildingBlock: CIFDUS_clean_sbu_1, # of connection points: 6
#     Node 9, Type 1, BuildingBlock: CIFDUS_clean_sbu_1, # of connection points: 6
#     Node 10, Type 1, BuildingBlock: CIFDUS_clean_sbu_1, # of connection points: 6
#     Node 11, Type 1, BuildingBlock: CIFDUS_clean_sbu_1, # of connection points: 6
#     Edge 12, Type (0, 1), None
#     Edge 13, Type (0, 1), None
#     Edge 14, Type (0, 1), None
#     Edge 15, Type (0, 1), None
#     Edge 16, Type (0, 1), None
#     Edge 17, Type (0, 1), None
#     Edge 18, Type (0, 1), None
#     Edge 19, Type (0, 1), None
#     Edge 20, Type (0, 1), None
#     Edge 21, Type (0, 1), None
#     Edge 22, Type (0, 1), None
#     Edge 23, Type (0, 1), None
#     Edge 24, Type (0, 1), None
#     Edge 25, Type (0, 1), None
#     Edge 26, Type (0, 1), None
#     Edge 27, Type (0, 1), None
#     Edge 28, Type (0, 1), None
#     Edge 29, Type (0, 1), None
#     Edge 30, Type (0, 1), None
#     Edge 31, Type (0, 1), None
#     Edge 32, Type (0, 1), None
#     Edge 33, Type (0, 1), None
#     Edge 34, Type (0, 1), None
#     Edge 35, Type (0, 1), None
# Relax obj value: 0.119
# Max RMSD: 0.172
# Mean RMSD: 0.108
data_MOF--net-zzz--node1-CIFDUS_clean_sbu_1--node2-BETDAH_clean_linker_0--edge1-none
_symmetry_space_group_name_H-M    P1
_symmetry_Int_Tables_number       1
_symmetry_cell_setting            triclinic
loop_
_symmetry_equiv_pos_as_xyz
'x, y, z'
_cell_length_a     19.876428
_cell_length_b     19.876155
_cell_length_c     8.5359059
_cell_angle_alpha  89.998724
_cell_angle_beta   90.012388
_cell_angle_gamma 90.003145
loop_
_atom_site_label
_atom_site_type_symbol
_atom_site_fract_x
_atom_site_fract_y
_atom_site_fract_z
_atom_type_partial_charge
H0 H 1.01131 0.56781 0.22258 0.0
H1 H 0.85431 0.58531 0.88835 0.0
H2 H 0.81118 0.62202 0.37695 0.0
C3 C 0.95948 0.58146 0.19761 0.0
C4 C 0.91558 0.5998 0.31856 0.0
C5 C 0.93537 0.57276 0.04722 0.0
C6 C 0.86954 0.58908 0.00981 0.0
C7 C 0.82351 0.60767 0.12602 0.0
C8 C 0.84657 0.61193 0.28339 0.0
N9 N 0.75425 0.61683 0.08476 0.0
C10 C 0.72936 0.59167 -0.05777 0.0
H11 H 0.08967 1.01311 0.22366 0.0
H12 H 0.07225 0.85629 0.88902 0.0
H13 H 1.035 0.81297 0.37732 0.0
C14 C 0.07602 0.96129 0.19853 0.0
C15 C 1.05746 0.91737 0.31931 0.0
C16 C 0.08479 0.93725 0.0481 0.0
C17 C 1.06844 0.87146 0.01051 0.0
C18 C 1.04968 0.82539 0.12651 0.0
C19 C 1.04528 0.84838 0.28391 0.0
N20 N 1.0404 0.75617 0.08502 0.0
C21 C 1.06554 0.73132 -0.05757 0.0
H22 H 0.64335 0.09182 0.22323 0.0
H23 H 0.80005 0.07405 0.88861 0.0
H24 H 0.84355 1.03745 0.37719 0.0
C25 C 0.69517 0.07813 0.19817 0.0
C26 C 0.73911 1.05974 0.31903 0.0
C27 C 0.71918 0.08677 0.04772 0.0
C28 C 0.78495 1.07036 0.01015 0.0
C29 C 0.83108 1.05177 0.12624 0.0
C30 C 0.80811 1.04758 0.28371 0.0
N31 N 0.90029 1.04245 0.0847 0.0
C32 C 0.92493 1.06679 -0.05887 0.0
H33 H 0.56594 0.64585 0.22239 0.0
H34 H 0.58314 0.80296 0.88838 0.0
H35 H 0.61983 0.84605 0.37704 0.0
C36 C 0.57952 0.69771 0.19749 0.0
C37 C 0.59778 0.74161 0.31852 0.0
C38 C 0.57076 0.72184 0.04713 0.0
C39 C 0.58696 0.7877 0.00982 0.0
C40 C 0.6055 0.83374 0.12609 0.0
C41 C 0.6098 0.81066 0.28343 0.0
N42 N 0.61455 0.90302 0.08493 0.0
C43 C 0.58931 0.92792 -0.05754 0.0
H44 H 0.14374 0.59207 0.10171 0.0
H45 H 0.30035 0.57441 0.43676 0.0
H46 H 0.34392 0.53735 -0.05154 0.0
C47 C 0.19554 0.57838 0.12694 0.0
C48 C 0.2395 0.55982 0.00625 0.0
C49 C 0.21952 0.58709 0.27744 0.0
C50 C 0.28527 0.57067 0.31519 0.0
C51 C 0.33141 0.55196 0.19929 0.0
C52 C 0.30848 0.54763 0.0418 0.0
N53 N 0.4006 0.5426 0.24102 0.0
C54 C 0.42523 0.56702 0.38453 0.0
H55 H 1.06529 0.14554 0.10268 0.0
H56 H 0.08289 0.30231 0.43726 0.0
H57 H 0.11954 0.34576 -0.05127 0.0
C58 C 0.07895 0.19737 0.12775 0.0
C59 C 0.09731 0.24131 0.00689 0.0
C60 C 1.07027 0.2214 0.27818 0.0
C61 C 0.08662 0.28719 0.31574 0.0
C62 C 0.10521 0.33331 0.19966 0.0
C63 C 0.10943 0.31033 0.04221 0.0
N64 N 0.11448 0.40254 0.24117 0.0
C65 C 0.09008 0.42719 0.38466 0.0
H66 H 0.5109 1.06742 0.10226 0.0
H67 H 0.35403 0.08473 0.43672 0.0
H68 H 0.31074 0.12196 -0.05165 0.0
C69 C 0.45907 0.08105 0.12732 0.0
C70 C 0.41515 0.09956 0.00648 0.0
C71 C 0.43502 0.07225 0.27773 0.0
C72 C 0.36921 0.08856 0.31525 0.0
C73 C 0.32315 0.1073 0.19919 0.0
C74 C 0.34615 0.1117 0.04181 0.0
N75 N 0.25392 0.11655 0.24061 0.0
C76 C 0.22906 0.0914 0.38319 0.0
H77 H 0.59017 0.5134 0.10151 0.0
H78 H 0.57215 0.35691 0.43664 0.0
H79 H 0.53518 0.31326 -0.05171 0.0
C80 C 0.5764 0.46162 0.12674 0.0
C81 C 0.55779 0.41767 0.00605 0.0
C82 C 0.58503 0.43766 0.27727 0.0
C83 C 0.56849 0.37194 0.31505 0.0
C84 C 0.54975 0.3258 0.19914 0.0
C85 C 0.5455 0.3487 0.04162 0.0
N86 N 0.54028 0.25663 0.24094 0.0
C87 C 0.5646 0.23202 0.38458 0.0
O88 O 0.10646 0.15551 0.81734 0.0
Mn89 Mn 0.07743 0.07932 0.66304 0.0
O90 O 1.03222 0.24002 0.78123 0.0
Mn91 Mn 0.96861 0.19199 0.66403 0.0
O92 O 1.04833 1.00325 0.50862 0.0
O93 O 0.17211 1.0525 0.62054 0.0
Mn94 Mn 0.186 0.96651 0.66185 0.0
O95 O 1.07041 1.01414 0.84857 0.0
O96 O 0.12201 0.91842 0.5459 0.0
O97 O 0.08453 0.14448 0.47762 0.0
O98 O 0.98412 0.19492 0.45094 0.0
O99 O 0.25762 0.99673 0.53921 0.0
O100 O 0.17087 0.96378 0.87511 0.0
C101 C 0.93263 0.10755 0.80086 0.0
C102 C 0.08393 0.21502 0.84837 0.0
C103 C 1.07059 0.94363 0.47801 0.0
C104 C 0.22127 1.05011 0.52257 0.0
C105 C 0.11256 0.97915 -0.0737 0.0
C106 C 1.04245 0.17954 0.39992 0.0
O107 O 0.9828 0.10612 0.7057 0.0
O108 O 0.89647 0.16106 0.78414 0.0
O109 O 0.64228 0.0725 0.84824 0.0
Mn110 Mn 0.57712 0.07959 0.66279 0.0
O111 O 0.69271 0.17292 0.87492 0.0
Mn112 Mn 0.68979 0.18842 0.66181 0.0
O113 O 0.51193 0.08663 0.47724 0.0
O114 O 0.5503 0.98492 0.70527 0.0
Mn115 Mn 0.4643 0.971 0.66402 0.0
O116 O 0.50104 0.10868 0.81719 0.0
O117 O 0.46153 0.98617 0.45077 0.0
O118 O 0.65331 1.05059 0.50853 0.0
O119 O 0.73783 0.12481 0.5447 0.0
O120 O 0.49458 0.89937 0.7866 0.0
O121 O 0.41622 1.03496 0.78001 0.0
C122 C 0.60536 0.22438 0.52488 0.0
C123 C 0.67733 0.11459 -0.07405 0.0
C124 C 0.47691 1.04448 0.39956 0.0
C125 C 0.54795 0.93573 0.8032 0.0
C126 C 0.44142 0.0864 0.84783 0.0
C127 C 0.71282 0.07311 0.47754 0.0
O128 O 0.60391 0.17423 0.62015 0.0
O129 O 0.65886 0.26054 0.54157 0.0
O130 O 0.58491 0.64481 0.84782 0.0
Mn131 Mn 0.57775 0.57963 0.66241 0.0
O132 O 0.48458 0.69545 0.87427 0.0
Mn133 Mn 0.46897 0.69237 0.66122 0.0
O134 O 0.57066 0.51447 0.47688 0.0
O135 O 0.6724 0.55277 0.70487 0.0
Mn136 Mn 0.68627 0.46677 0.66352 0.0
O137 O 0.54865 0.50355 0.81678 0.0
O138 O 0.67113 0.46417 0.45024 0.0
O139 O 0.60679 0.65579 0.50809 0.0
O140 O 0.53255 0.74032 0.54387 0.0
O141 O 0.75789 0.49697 0.78629 0.0
O142 O 0.62225 0.41868 0.77937 0.0
C143 C 0.43293 0.60786 0.52467 0.0
C144 C 0.5429 0.68002 -0.07467 0.0
C145 C 0.61282 0.47956 0.39904 0.0
C146 C 0.72155 0.55036 0.8029 0.0
C147 C 0.57087 0.4439 0.84732 0.0
C148 C 0.58428 0.71529 0.47692 0.0
O149 O 0.48312 0.60647 0.61983 0.0
O150 O 0.39679 0.66138 0.54121 0.0
O151 O 0.15361 0.55065 0.81695 0.0
Mn152 Mn 0.07754 0.57976 0.66253 0.0
O153 O 0.23848 0.62427 0.77952 0.0
Mn154 Mn 0.19038 0.6883 0.66366 0.0
O155 O 1.00138 0.60882 0.50818 0.0
O156 O 1.05068 0.48513 0.61992 0.0
Mn157 Mn 0.96478 0.47099 0.66135 0.0
O158 O 1.01237 0.58691 0.8479 0.0
O159 O 0.91685 0.53458 0.54397 0.0
O160 O 0.1427 0.57268 0.47702 0.0
O161 O 0.19299 0.67318 0.45038 0.0
O162 O 0.99573 0.39879 0.54139 0.0
O163 O 0.96173 0.48658 0.8744 0.0
C164 C 0.10682 0.72355 0.80306 0.0
C165 C 0.21325 0.57289 0.8475 0.0
C166 C 0.94188 0.58631 0.47701 0.0
C167 C 1.04926 0.43493 0.5248 0.0
C168 C 0.97717 0.54489 -0.07456 0.0
C169 C 0.17761 0.61486 0.39919 0.0
O170 O 0.1044 0.67441 0.70501 0.0
O171 O 0.16021 0.75989 0.78644 0.0
loop_
_geom_bond_atom_site_label_1
_geom_bond_atom_site_label_2
_geom_bond_distance
_geom_bond_site_symmetry_2
_ccdc_geom_bond_type
H0 C3 0.929 . S
H1 C6 0.929 . S
H2 C8 0.930 . S
C3 H0 0.929 . S
C3 C4 1.398 . S
C3 C5 1.396 1_554 S
C4 C3 1.398 . S
C4 C8 1.407 . S
C5 C3 1.396 1_556 S
C5 C6 1.394 . S
C6 H1 0.929 . S
C6 C5 1.394 . S
C6 C7 1.382 1_556 S
C7 C6 1.382 1_554 S
C7 C8 1.392 . S
C7 N9 1.420 . S
C8 H2 0.930 . S
C8 C4 1.407 . S
C8 C7 1.392 . S
N9 C7 1.420 . S
N9 C10 1.244 1_554 S
C10 N9 1.244 1_556 S
H11 C14 0.929 . S
H12 C17 0.929 . S
H13 C19 0.930 . S
C14 H11 0.929 . S
C14 C15 1.398 . S
C14 C16 1.396 1_554 S
C15 C14 1.398 . S
C15 C19 1.407 . S
C16 C14 1.396 1_556 S
C16 C17 1.394 . S
C17 H12 0.929 . S
C17 C16 1.394 . S
C17 C18 1.382 1_556 S
C18 C17 1.382 1_554 S
C18 C19 1.392 . S
C18 N20 1.420 . S
C19 H13 0.930 . S
C19 C15 1.407 . S
C19 C18 1.392 . S
N20 C18 1.420 . S
N20 C21 1.244 1_554 S
C21 N20 1.244 1_556 S
H22 C25 0.929 . S
H23 C28 0.929 . S
H24 C30 0.930 . S
C25 H22 0.929 . S
C25 C26 1.398 . S
C25 C27 1.396 1_554 S
C26 C25 1.398 . S
C26 C30 1.407 . S
C27 C25 1.396 1_556 S
C27 C28 1.394 . S
C28 H23 0.929 . S
C28 C27 1.394 . S
C28 C29 1.382 1_556 S
C29 C28 1.382 1_554 S
C29 C30 1.392 . S
C29 N31 1.420 . S
C30 H24 0.930 . S
C30 C26 1.407 . S
C30 C29 1.392 . S
N31 C29 1.420 . S
N31 C32 1.244 1_554 S
C32 N31 1.244 1_556 S
H33 C36 0.929 . S
H34 C39 0.929 . S
H35 C41 0.930 . S
C36 H33 0.929 . S
C36 C37 1.398 . S
C36 C38 1.396 1_554 S
C37 C36 1.398 . S
C37 C41 1.407 . S
C38 C36 1.396 1_556 S
C38 C39 1.394 . S
C39 H34 0.929 . S
C39 C38 1.394 . S
C39 C40 1.382 1_556 S
C40 C39 1.382 1_554 S
C40 C41 1.392 . S
C40 N42 1.420 . S
C41 H35 0.930 . S
C41 C37 1.407 . S
C41 C40 1.392 . S
N42 C40 1.420 . S
N42 C43 1.244 1_554 S
C43 N42 1.244 1_556 S
H44 C47 0.929 . S
H45 C50 0.929 . S
H46 C52 0.930 . S
C47 H44 0.929 . S
C47 C48 1.398 . S
C47 C49 1.396 . S
C48 C47 1.398 . S
C48 C52 1.407 . S
C49 C47 1.396 . S
C49 C50 1.394 . S
C50 H45 0.929 . S
C50 C49 1.394 . S
C50 C51 1.382 . S
C51 C50 1.382 . S
C51 C52 1.392 . S
C51 N53 1.420 . S
C52 H46 0.930 . S
C52 C48 1.407 . S
C52 C51 1.392 . S
N53 C51 1.420 . S
N53 C54 1.244 . S
C54 N53 1.244 . S
H55 C58 0.929 . S
H56 C61 0.929 . S
H57 C63 0.930 . S
C58 H55 0.929 . S
C58 C59 1.398 . S
C58 C60 1.396 . S
C59 C58 1.398 . S
C59 C63 1.407 . S
C60 C58 1.396 . S
C60 C61 1.394 . S
C61 H56 0.929 . S
C61 C60 1.394 . S
C61 C62 1.382 . S
C62 C61 1.382 . S
C62 C63 1.392 . S
C62 N64 1.420 . S
C63 H57 0.930 . S
C63 C59 1.407 . S
C63 C62 1.392 . S
N64 C62 1.420 . S
N64 C65 1.244 . S
C65 N64 1.244 . S
H66 C69 0.929 . S
H67 C72 0.929 . S
H68 C74 0.930 . S
C69 H66 0.929 . S
C69 C70 1.398 . S
C69 C71 1.396 . S
C70 C69 1.398 . S
C70 C74 1.407 . S
C71 C69 1.396 . S
C71 C72 1.394 . S
C72 H67 0.929 . S
C72 C71 1.394 . S
C72 C73 1.382 . S
C73 C72 1.382 . S
C73 C74 1.392 . S
C73 N75 1.420 . S
C74 H68 0.930 . S
C74 C70 1.407 . S
C74 C73 1.392 . S
N75 C73 1.420 . S
N75 C76 1.244 . S
C76 N75 1.244 . S
H77 C80 0.929 . S
H78 C83 0.929 . S
H79 C85 0.930 . S
C80 H77 0.929 . S
C80 C81 1.398 . S
C80 C82 1.396 . S
C81 C80 1.398 . S
C81 C85 1.407 . S
C82 C80 1.396 . S
C82 C83 1.394 . S
C83 H78 0.929 . S
C83 C82 1.394 . S
C83 C84 1.382 . S
C84 C83 1.382 . S
C84 C85 1.392 . S
C84 N86 1.420 . S
C85 H79 0.930 . S
C85 C81 1.407 . S
C85 C84 1.392 . S
N86 C84 1.420 . S
N86 C87 1.244 . S
C87 N86 1.244 . S
O88 Mn89 2.163 . S
O88 C102 1.244 1_556 S
Mn89 O88 2.163 . S
Mn89 O92 2.160 1_445 S
Mn89 O93 2.221 1_545 S
Mn89 O95 2.163 1_445 S
Mn89 O97 2.160 . S
Mn89 O107 2.221 1_455 S
O90 Mn91 2.087 1_554 S
O90 C102 1.256 1_655 S
Mn91 O90 2.087 1_556 S
Mn91 O98 2.089 . S
Mn91 O107 2.290 . S
Mn91 O108 2.251 1_556 S
O92 Mn89 2.160 1_665 S
O92 C103 1.239 . S
O93 Mn89 2.221 1_565 S
O93 Mn94 2.290 . S
O93 C104 1.278 . S
Mn94 O93 2.290 . S
Mn94 O96 2.089 . S
Mn94 O99 2.251 . S
Mn94 O100 2.087 . S
O95 Mn89 2.163 1_665 S
O95 C105 1.244 1_655 S
O96 Mn94 2.089 . S
O96 C103 1.256 1_455 S
O97 Mn89 2.160 . S
O97 C106 1.239 1_455 S
O98 Mn91 2.089 . S
O98 C106 1.256 . S
O99 Mn94 2.251 . S
O99 C104 1.241 . S
O100 Mn94 2.087 . S
O100 C105 1.256 . S
C101 O107 1.278 . S
C101 O108 1.241 1_556 S
C102 O88 1.244 1_554 S
C102 O90 1.256 1_455 S
C103 O92 1.239 . S
C103 O96 1.256 1_655 S
C104 O93 1.278 . S
C104 O99 1.241 . S
C105 O95 1.244 1_455 S
C105 O100 1.256 . S
C106 O97 1.239 1_655 S
C106 O98 1.256 . S
O107 Mn89 2.221 1_655 S
O107 Mn91 2.290 . S
O107 C101 1.278 . S
O108 Mn91 2.251 1_554 S
O108 C101 1.241 1_554 S
O109 Mn110 2.163 1_565 S
O109 C123 1.244 1_565 S
Mn110 O109 2.163 1_545 S
Mn110 O113 2.160 . S
Mn110 O114 2.221 1_545 S
Mn110 O116 2.163 . S
Mn110 O118 2.160 1_545 S
Mn110 O128 2.221 . S
O111 Mn112 2.087 . S
O111 C123 1.256 . S
Mn112 O111 2.087 . S
Mn112 O119 2.089 . S
Mn112 O128 2.290 . S
Mn112 O129 2.251 . S
O113 Mn110 2.160 . S
O113 C124 1.239 1_545 S
O114 Mn110 2.221 1_565 S
O114 Mn115 2.290 . S
O114 C125 1.278 . S
Mn115 O114 2.290 . S
Mn115 O117 2.089 . S
Mn115 O120 2.251 1_556 S
Mn115 O121 2.087 1_556 S
O116 Mn110 2.163 . S
O116 C126 1.244 1_556 S
O117 Mn115 2.089 . S
O117 C124 1.256 . S
O118 Mn110 2.160 1_565 S
O118 C127 1.239 . S
O119 Mn112 2.089 . S
O119 C127 1.256 1_545 S
O120 Mn115 2.251 1_554 S
O120 C125 1.241 1_554 S
O121 Mn115 2.087 1_554 S
O121 C126 1.256 1_565 S
C122 O128 1.278 . S
C122 O129 1.241 . S
C123 O109 1.244 1_545 S
C123 O111 1.256 . S
C124 O113 1.239 1_565 S
C124 O117 1.256 . S
C125 O114 1.278 . S
C125 O120 1.241 1_556 S
C126 O116 1.244 1_554 S
C126 O121 1.256 1_545 S
C127 O118 1.239 . S
C127 O119 1.256 1_565 S
O128 Mn110 2.221 . S
O128 Mn112 2.290 . S
O128 C122 1.278 . S
O129 Mn112 2.251 . S
O129 C122 1.241 . S
O130 Mn131 2.163 . S
O130 C144 1.244 . S
Mn131 O130 2.163 . S
Mn131 O134 2.160 . S
Mn131 O135 2.221 . S
Mn131 O137 2.163 . S
Mn131 O139 2.160 . S
Mn131 O149 2.221 . S
O132 Mn133 2.087 . S
O132 C144 1.256 . S
Mn133 O132 2.087 . S
Mn133 O140 2.089 . S
Mn133 O149 2.290 . S
Mn133 O150 2.251 . S
O134 Mn131 2.160 . S
O134 C145 1.239 . S
O135 Mn131 2.221 . S
O135 Mn136 2.290 . S
O135 C146 1.278 . S
Mn136 O135 2.290 . S
Mn136 O138 2.089 . S
Mn136 O141 2.251 1_556 S
Mn136 O142 2.087 1_556 S
O137 Mn131 2.163 . S
O137 C147 1.244 1_556 S
O138 Mn136 2.089 . S
O138 C145 1.256 . S
O139 Mn131 2.160 . S
O139 C148 1.239 . S
O140 Mn133 2.089 . S
O140 C148 1.256 . S
O141 Mn136 2.251 1_554 S
O141 C146 1.241 1_554 S
O142 Mn136 2.087 1_554 S
O142 C147 1.256 . S
C143 O149 1.278 . S
C143 O150 1.241 . S
C144 O130 1.244 . S
C144 O132 1.256 . S
C145 O134 1.239 . S
C145 O138 1.256 . S
C146 O135 1.278 . S
C146 O141 1.241 1_556 S
C147 O137 1.244 1_554 S
C147 O142 1.256 . S
C148 O139 1.239 . S
C148 O140 1.256 . S
O149 Mn131 2.221 . S
O149 Mn133 2.290 . S
O149 C143 1.278 . S
O150 Mn133 2.251 . S
O150 C143 1.241 . S
O151 Mn152 2.163 . S
O151 C165 1.244 1_556 S
Mn152 O151 2.163 . S
Mn152 O155 2.160 1_455 S
Mn152 O156 2.221 1_455 S
Mn152 O158 2.163 1_455 S
Mn152 O160 2.160 . S
Mn152 O170 2.221 . S
O153 Mn154 2.087 1_554 S
O153 C165 1.256 . S
Mn154 O153 2.087 1_556 S
Mn154 O161 2.089 . S
Mn154 O170 2.290 . S
Mn154 O171 2.251 1_556 S
O155 Mn152 2.160 1_655 S
O155 C166 1.239 . S
O156 Mn152 2.221 1_655 S
O156 Mn157 2.290 . S
O156 C167 1.278 . S
Mn157 O156 2.290 . S
Mn157 O159 2.089 . S
Mn157 O162 2.251 . S
Mn157 O163 2.087 . S
O158 Mn152 2.163 1_655 S
O158 C168 1.244 . S
O159 Mn157 2.089 . S
O159 C166 1.256 . S
O160 Mn152 2.160 . S
O160 C169 1.239 . S
O161 Mn154 2.089 . S
O161 C169 1.256 . S
O162 Mn157 2.251 . S
O162 C167 1.241 . S
O163 Mn157 2.087 . S
O163 C168 1.256 . S
C164 O170 1.278 . S
C164 O171 1.241 1_556 S
C165 O151 1.244 1_554 S
C165 O153 1.256 . S
C166 O155 1.239 . S
C166 O159 1.256 . S
C167 O156 1.278 . S
C167 O162 1.241 . S
C168 O158 1.244 . S
C168 O163 1.256 . S
C169 O160 1.239 . S
C169 O161 1.256 . S
O170 Mn152 2.221 . S
O170 Mn154 2.290 . S
O170 C164 1.278 . S
O171 Mn154 2.251 1_554 S
O171 C164 1.241 1_554 S
C76 C104 1.967 1_545 S
C122 C87 1.968 . S
C143 C54 1.967 . S
C167 C65 1.968 1_655 S
C101 C32 1.601 1_545 S
C43 C125 1.602 . S
C10 C146 1.601 . S
C21 C164 1.602 1_655 S
C106 C60 1.279 1_655 S
C124 C71 1.279 1_565 S
C145 C82 1.279 . S
C49 C169 1.279 . S
C16 C105 1.290 1_655 S
C123 C27 1.289 1_545 S
C144 C38 1.290 . S
C5 C168 1.289 . S
C59 C102 1.590 . S
C70 C126 1.589 . S
C147 C81 1.590 . S
C165 C48 1.589 . S
C15 C103 1.365 . S
C127 C26 1.365 . S
C148 C37 1.365 . S
C4 C166 1.365 . S
