# Generated by pormake.
# Topology zzz, (3,6)-cn, num edge types: 1
# Building blocks:
#     Node 0, Type 0, BuildingBlock: ESEHIV_clean_linker_0, # of connection points: 3
#     Node 1, Type 0, BuildingBlock: ESEHIV_clean_linker_0, # of connection points: 3
#     Node 2, Type 0, BuildingBlock: ESEHIV_clean_linker_0, # of connection points: 3
#     Node 3, Type 0, BuildingBlock: ESEHIV_clean_linker_0, # of connection points: 3
#     Node 4, Type 0, BuildingBlock: ESEHIV_clean_linker_0, # of connection points: 3
#     Node 5, Type 0, BuildingBlock: ESEHIV_clean_linker_0, # of connection points: 3
#     Node 6, Type 0, BuildingBlock: ESEHIV_clean_linker_0, # of connection points: 3
#     Node 7, Type 0, BuildingBlock: ESEHIV_clean_linker_0, # of connection points: 3
#     Node 8, Type 1, BuildingBlock: BETFEN_clean_sbu_0, # of connection points: 6
#     Node 9, Type 1, BuildingBlock: BETFEN_clean_sbu_0, # of connection points: 6
#     Node 10, Type 1, BuildingBlock: BETFEN_clean_sbu_0, # of connection points: 6
#     Node 11, Type 1, BuildingBlock: BETFEN_clean_sbu_0, # of connection points: 6
#     Edge 12, Type (0, 1), None
#     Edge 13, Type (0, 1), None
#     Edge 14, Type (0, 1), None
#     Edge 15, Type (0, 1), None
#     Edge 16, Type (0, 1), None
#     Edge 17, Type (0, 1), None
#     Edge 18, Type (0, 1), None
#     Edge 19, Type (0, 1), None
#     Edge 20, Type (0, 1), None
#     Edge 21, Type (0, 1), None
#     Edge 22, Type (0, 1), None
#     Edge 23, Type (0, 1), None
#     Edge 24, Type (0, 1), None
#     Edge 25, Type (0, 1), None
#     Edge 26, Type (0, 1), None
#     Edge 27, Type (0, 1), None
#     Edge 28, Type (0, 1), None
#     Edge 29, Type (0, 1), None
#     Edge 30, Type (0, 1), None
#     Edge 31, Type (0, 1), None
#     Edge 32, Type (0, 1), None
#     Edge 33, Type (0, 1), None
#     Edge 34, Type (0, 1), None
#     Edge 35, Type (0, 1), None
# Relax obj value: 1.066
# Max RMSD: 0.329
# Mean RMSD: 0.245
data_MOF--net-zzz--node1-BETFEN_clean_sbu_0--node2-ESEHIV_clean_linker_0--edge1-none
_symmetry_space_group_name_H-M    P1
_symmetry_Int_Tables_number       1
_symmetry_cell_setting            triclinic
loop_
_symmetry_equiv_pos_as_xyz
'x, y, z'
_cell_length_a     20.794743
_cell_length_b     18.812304
_cell_length_c     7.1178949
_cell_angle_alpha  91.058034
_cell_angle_beta   100.78618
_cell_angle_gamma 89.99651
loop_
_atom_site_label
_atom_site_type_symbol
_atom_site_fract_x
_atom_site_fract_y
_atom_site_fract_z
_atom_type_partial_charge
H0 H 0.84772 0.55154 0.21975 0.0
H1 H 0.64976 0.50746 0.04021 0.0
H2 H 0.70784 0.63669 0.53892 0.0
C3 C 0.79854 0.56095 0.24384 0.0
C4 C 0.79018 0.587 0.42108 0.0
C5 C 0.7492 0.51408 0.15678 0.0
C6 C 0.6871 0.53969 0.1236 0.0
C7 C 0.66918 0.5901 0.24661 0.0
C8 C 0.72094 0.6087 0.41749 0.0
H9 H -0.00508 0.92581 0.20936 0.0
H10 H 0.98415 0.73695 0.89869 0.0
H11 H 0.93284 0.73739 0.46632 0.0
C12 C 0.97868 0.87091 0.20444 0.0
C13 C 0.96193 0.84217 0.36656 0.0
C14 C 0.00253 0.82697 0.07597 0.0
C15 C 0.9743 0.76207 1.02818 0.0
C16 C 0.95377 0.72207 0.16843 0.0
C17 C 0.94818 0.76364 0.34857 0.0
H18 H 0.64517 0.89268 0.49168 0.0
H19 H 0.8442 0.94424 0.57117 0.0
H20 H 0.75105 0.91535 0.05809 0.0
C21 C 0.69028 0.8992 0.59503 0.0
C22 C 0.68553 0.91701 0.78246 0.0
C23 C 0.74211 0.93034 0.52779 0.0
C24 C 0.80431 0.92869 0.63924 0.0
C25 C 0.8119 0.93268 0.83854 0.0
C26 C 0.74975 0.92545 0.91067 0.0
H27 H 0.45688 0.78159 0.7279 0.0
H28 H 0.5954 0.76606 0.34731 0.0
H29 H 0.41029 0.84709 0.14834 0.0
C30 C 0.47364 0.79144 0.59526 0.0
C31 C 0.42547 0.80709 0.43844 0.0
C32 C 0.52491 0.75196 0.54754 0.0
C33 C 0.54971 0.78411 0.38296 0.0
C34 C 0.51093 0.84104 0.26687 0.0
C35 C 0.44528 0.83514 0.27582 0.0
H36 H 0.18803 0.60856 0.06944 0.0
H37 H 0.31761 0.58883 0.60516 0.0
H38 H 0.24982 0.40361 0.2725 0.0
C39 C 0.21381 0.57617 0.18163 0.0
C40 C 0.20094 0.50449 0.17122 0.0
C41 C 0.24572 0.60697 0.35337 0.0
C42 C 0.28941 0.56534 0.47761 0.0
C43 C 0.30313 0.49597 0.42899 0.0
C44 C 0.25066 0.46084 0.29055 0.0
H45 H 0.90891 0.18435 0.19665 0.0
H46 H 0.93577 0.35332 0.60319 0.0
H47 H 0.09279 0.29814 0.31054 0.0
C48 C 0.94069 0.22538 0.27205 0.0
C49 C 0.00434 0.22766 0.24334 0.0
C50 C 0.91603 0.27418 0.38999 0.0
C51 C 0.95657 0.32139 0.50424 0.0
C52 C 0.01721 0.33941 0.47071 0.0
C53 C 0.04411 0.28933 0.33875 0.0
H54 H 0.33098 0.17512 0.16139 0.0
H55 H 0.13334 0.11562 0.05672 0.0
H56 H 0.23252 0.1509 0.58532 0.0
C57 C 0.28665 0.16806 0.0548 0.0
C58 C 0.29318 0.15199 0.86741 0.0
C59 C 0.23408 0.1359 0.11655 0.0
C60 C 0.17342 0.13511 0.99673 0.0
C61 C 0.16831 0.13549 0.79769 0.0
C62 C 0.23107 0.14406 0.73283 0.0
H63 H 0.53269 0.30085 0.96231 0.0
H64 H 0.38708 0.3043 0.32204 0.0
H65 H 0.57425 0.22883 0.53609 0.0
C66 C 0.51471 0.28926 0.09199 0.0
C67 C 0.56147 0.27305 0.2505 0.0
C68 C 0.46044 0.32445 0.13472 0.0
C69 C 0.43442 0.28925 0.29231 0.0
C70 C 0.47399 0.2334 0.40947 0.0
C71 C 0.54021 0.24202 0.40789 0.0
Pr72 Pr 0.03589 1.00988 0.88535 0.0
Pr73 Pr 0.94974 0.05734 0.74144 0.0
C74 C 0.15278 0.96119 0.06533 0.0
C75 C 0.18658 0.8924 0.11201 0.0
C76 C 0.16842 0.84394 0.95949 0.0
C77 C 0.10439 0.81892 0.94003 0.0
C78 C 0.07324 0.82723 0.0981 0.0
C79 C 0.11224 0.84325 0.28024 0.0
C80 C 0.17533 0.86714 0.28593 0.0
C81 C 0.10035 0.10821 0.6865 0.0
C82 C 0.968 0.90179 0.53145 0.0
C83 C 0.83759 0.09759 0.52705 0.0
C84 C 0.79551 0.15702 0.47304 0.0
C85 C 0.7984 0.21074 0.61308 0.0
C86 C 0.82967 0.27185 0.57652 0.0
C87 C 0.84604 0.27654 0.39528 0.0
C88 C 0.80458 0.24346 0.24213 0.0
C89 C 0.78828 0.17596 0.28081 0.0
C90 C 0.88093 0.96293 0.93855 0.0
C91 C 0.01437 0.16692 0.0947 0.0
O92 O 0.10541 0.98023 0.1555 0.0
O93 O 0.139 0.97537 0.88422 0.0
O94 O 0.04971 0.12173 0.76071 0.0
O95 O 0.09544 0.04082 0.64309 0.0
O96 O 0.9565 0.96962 0.48962 0.0
O97 O -0.00092 0.8969 0.70986 0.0
O98 O 0.89146 0.09161 0.45685 0.0
O99 O 0.84509 0.0831 0.7069 0.0
O100 O 0.93221 0.94789 0.86598 0.0
O101 O 0.88527 1.03092 0.97573 0.0
O102 O 0.02821 0.09956 0.14191 0.0
O103 O 0.98136 0.16915 0.91674 0.0
H104 H 0.18967 0.84804 0.83222 0.0
H105 H 0.07786 0.80427 0.80063 0.0
H106 H 0.09376 0.84167 0.41251 0.0
H107 H 0.2043 0.8827 0.42169 0.0
H108 H 0.7974 0.19867 0.76083 0.0
H109 H 0.85748 0.29889 0.69903 0.0
H110 H 0.81252 0.24995 0.09788 0.0
H111 H 0.79383 0.13732 0.17056 0.0
Pr112 Pr 0.50872 0.06267 0.90553 0.0
Pr113 Pr 0.4709 1.01011 0.76485 0.0
C114 C 0.59365 0.13831 0.14173 0.0
C115 C 0.64903 0.10574 0.25924 0.0
C116 C 0.69401 0.06809 0.17168 0.0
C117 C 0.7342 1.01838 0.27374 0.0
C118 C 0.72377 1.00039 0.45158 0.0
C119 C 0.69054 0.04877 0.55246 0.0
C120 C 0.65036 0.0987 0.45408 0.0
C121 C 0.45779 0.17721 0.5598 0.0
C122 C 0.61672 0.9485 0.80528 0.0
C123 C 0.37636 0.93584 0.55398 0.0
C124 C 0.32149 0.96383 0.42108 0.0
C125 C 0.26861 0.99655 0.48629 0.0
C126 C 0.23172 0.04669 0.37233 0.0
C127 C 0.25219 0.06778 0.20703 0.0
C128 C 0.29158 1.02116 0.12265 0.0
C129 C 0.32884 0.97253 0.23247 0.0
C130 C 0.52559 0.8959 0.11118 0.0
C131 C 0.36175 0.12188 0.84694 0.0
O132 O 0.53675 0.12155 0.18214 0.0
O133 O 0.59463 0.13767 0.95997 0.0
O134 O 0.49304 0.11912 0.60634 0.0
O135 O 0.49373 0.11913 0.60199 0.0
O136 O 0.56533 0.95319 0.66534 0.0
O137 O 0.6062 0.98675 0.94989 0.0
O138 O 0.4338 0.9465 0.50798 0.0
O139 O 0.37582 0.94907 0.73341 0.0
O140 O 0.48991 0.95374 0.06563 0.0
O141 O 0.48926 0.95382 0.06964 0.0
O142 O 0.41118 0.11544 0.99126 0.0
O143 O 0.37348 0.08503 0.70165 0.0
H144 H 0.69936 0.07817 1.02619 0.0
H145 H 0.77767 1.00035 0.22688 0.0
H146 H 0.69237 0.046 0.70388 0.0
H147 H 0.61773 0.12698 0.5285 0.0
H148 H 0.25796 0.98608 0.62647 0.0
H149 H 0.18805 0.06889 0.41076 0.0
H150 H 0.29692 1.02449 0.97594 0.0
H151 H 0.36704 0.94756 0.17344 0.0
Pr152 Pr 0.45322 0.56154 0.88556 0.0
Pr153 Pr 0.52433 0.51619 0.79962 0.0
C154 C 0.35003 0.63356 0.95934 0.0
C155 C 0.33822 0.67202 0.12152 0.0
C156 C 0.30665 0.73797 0.10266 0.0
C157 C 0.31574 0.78474 0.25825 0.0
C158 C 0.36336 0.76806 0.41698 0.0
C159 C 0.37545 0.69605 0.45092 0.0
C160 C 0.37402 0.65183 0.2959 0.0
C161 C 0.36949 0.4682 0.54066 0.0
C162 C 0.53162 0.67764 0.65589 0.0
C163 C 0.63025 0.44809 0.71801 0.0
C164 C 0.65197 0.40997 0.5642 0.0
C165 C 0.6777 0.34104 0.59076 0.0
C166 C 0.6701 0.29359 0.43667 0.0
C167 C 0.62454 0.31102 0.27558 0.0
C168 C 0.61707 0.38334 0.23338 0.0
C169 C 0.62666 0.43197 0.38198 0.0
C170 C 0.59578 0.61013 0.18783 0.0
C171 C 0.45045 0.39805 1.02574 0.0
O172 O 0.39764 0.66195 0.89238 0.0
O173 O 0.35444 0.56456 0.97469 0.0
O174 O 0.42089 0.5105 0.58015 0.0
O175 O 0.42096 0.51055 0.57846 0.0
O176 O 0.5348 0.614 0.5785 0.0
O177 O 0.50913 0.67116 0.81786 0.0
O178 O 0.58252 0.417 0.77939 0.0
O179 O 0.62222 0.51681 0.70188 0.0
O180 O 0.55068 0.56273 0.11809 0.0
O181 O 0.55031 0.56233 0.11952 0.0
O182 O 0.44424 0.46157 0.10244 0.0
O183 O 0.47298 0.4049 0.8643 0.0
H184 H 0.28413 0.75795 0.96557 0.0
H185 H 0.30197 0.83873 0.23143 0.0
H186 H 0.40412 0.67809 0.58038 0.0
H187 H 0.40118 0.60262 0.31156 0.0
H188 H 0.6916 0.3185 0.72985 0.0
H189 H 0.67919 0.23844 0.46727 0.0
H190 H 0.58702 0.40103 0.10439 0.0
H191 H 0.6036 0.48258 0.36198 0.0
Pr192 Pr 0.98184 0.49436 0.87917 0.0
Pr193 Pr 0.00369 0.56916 0.78148 0.0
C194 C 0.91333 0.39186 1.00118 0.0
C195 C 0.85887 0.39156 0.09549 0.0
C196 C 0.79711 0.37474 0.98801 0.0
C197 C 0.74273 0.39241 0.06283 0.0
C198 C 0.75279 0.43908 0.21696 0.0
C199 C 0.8069 0.42444 0.35605 0.0
C200 C 0.86372 0.41836 0.28245 0.0
C201 C 0.03968 0.40979 0.59133 0.0
C202 C 0.8549 0.57971 0.57907 0.0
C203 C 0.06618 0.67944 0.67151 0.0
C204 C 0.12233 0.69249 0.58584 0.0
C205 C 0.18512 0.69849 0.69621 0.0
C206 C 0.23824 0.69706 0.60366 0.0
C207 C 0.22691 0.67934 0.4089 0.0
C208 C 0.1682 0.70285 0.30443 0.0
C209 C 0.1143 0.69696 0.38844 0.0
C210 C 0.94737 0.64113 0.09782 0.0
C211 C 0.13246 0.4902 0.04592 0.0
O212 O 0.89848 0.42026 0.83441 0.0
O213 O 0.9692 0.41372 0.0996 0.0
O214 O 0.00488 0.46746 0.57004 0.0
O215 O 0.05236 0.40437 0.77554 0.0
O216 O 0.91101 0.60147 0.54431 0.0
O217 O 0.86621 0.53214 0.71882 0.0
O218 O 0.0171 0.64748 0.56261 0.0
O219 O 0.07814 0.65641 0.84574 0.0
O220 O -0.00477 0.59725 0.09997 0.0
O221 O 0.9191 0.63019 0.92195 0.0
O222 O 0.08014 0.47816 0.11762 0.0
O223 O 0.11528 0.52286 0.88111 0.0
H224 H 0.79119 0.35264 0.84672 0.0
H225 H 0.69471 0.38205 0.98546 0.0
H226 H 0.80877 0.4431 0.50067 0.0
H227 H 0.90847 0.43834 0.36398 0.0
H228 H 0.19271 0.69924 0.84992 0.0
H229 H 0.28689 0.69844 0.68424 0.0
H230 H 0.16087 0.70847 0.15191 0.0
H231 H 0.06762 0.69561 0.29871 0.0
loop_
_geom_bond_atom_site_label_1
_geom_bond_atom_site_label_2
_geom_bond_distance
_geom_bond_site_symmetry_2
_ccdc_geom_bond_type
H0 C3 0.931 . S
H1 C6 0.928 . S
H2 C8 0.930 . S
C3 H0 0.931 . S
C3 C4 1.413 . S
C3 C5 1.360 . S
C4 C3 1.413 . S
C4 C8 1.429 . S
C5 C3 1.360 . S
C5 C6 1.372 . S
C6 H1 0.928 . S
C6 C5 1.372 . S
C6 C7 1.404 . S
C7 C6 1.404 . S
C7 C8 1.391 . S
C8 H2 0.930 . S
C8 C4 1.429 . S
C8 C7 1.391 . S
H9 C12 0.931 . S
H10 C15 0.928 . S
H11 C17 0.930 . S
C12 H9 0.931 . S
C12 C13 1.413 . S
C12 C14 1.360 . S
C13 C12 1.413 . S
C13 C17 1.429 1_655 S
C14 C12 1.360 . S
C14 C15 1.372 . S
C15 H10 0.928 . S
C15 C14 1.372 . S
C15 C16 1.404 . S
C16 C15 1.404 . S
C16 C17 1.390 1_655 S
C17 H11 0.930 . S
C17 C13 1.429 1_455 S
C17 C16 1.390 1_455 S
H18 C21 0.931 . S
H19 C24 0.928 . S
H20 C26 0.930 . S
C21 H18 0.931 . S
C21 C22 1.414 . S
C21 C23 1.360 . S
C22 C21 1.414 . S
C22 C26 1.429 1_565 S
C23 C21 1.360 . S
C23 C24 1.372 . S
C24 H19 0.928 . S
C24 C23 1.372 . S
C24 C25 1.405 . S
C25 C24 1.405 . S
C25 C26 1.390 1_565 S
C26 H20 0.930 . S
C26 C22 1.429 1_545 S
C26 C25 1.390 1_545 S
H27 C30 0.931 . S
H28 C33 0.928 . S
H29 C35 0.930 . S
C30 H27 0.931 . S
C30 C31 1.413 . S
C30 C32 1.360 . S
C31 C30 1.413 . S
C31 C35 1.429 . S
C32 C30 1.360 . S
C32 C33 1.372 . S
C33 H28 0.928 . S
C33 C32 1.372 . S
C33 C34 1.404 . S
C34 C33 1.404 . S
C34 C35 1.391 . S
C35 H29 0.930 . S
C35 C31 1.429 . S
C35 C34 1.391 . S
H36 C39 0.931 . S
H37 C42 0.928 . S
H38 C44 0.930 . S
C39 H36 0.931 . S
C39 C40 1.413 . S
C39 C41 1.360 1_556 S
C40 C39 1.413 . S
C40 C44 1.429 . S
C41 C39 1.360 1_554 S
C41 C42 1.372 . S
C42 H37 0.928 . S
C42 C41 1.372 . S
C42 C43 1.404 . S
C43 C42 1.404 . S
C43 C44 1.391 1_554 S
C44 H38 0.930 . S
C44 C40 1.429 . S
C44 C43 1.391 1_556 S
H45 C48 0.931 . S
H46 C51 0.928 . S
H47 C53 0.930 . S
C48 H45 0.931 . S
C48 C49 1.413 . S
C48 C50 1.360 1_556 S
C49 C48 1.413 . S
C49 C53 1.429 1_655 S
C50 C48 1.360 1_554 S
C50 C51 1.372 . S
C51 H46 0.928 . S
C51 C50 1.372 . S
C51 C52 1.404 . S
C52 C51 1.404 . S
C52 C53 1.391 1_654 S
C53 H47 0.930 . S
C53 C49 1.429 1_455 S
C53 C52 1.391 1_456 S
H54 C57 0.931 . S
H55 C60 0.928 . S
H56 C62 0.930 . S
C57 H54 0.931 . S
C57 C58 1.413 . S
C57 C59 1.360 1_556 S
C58 C57 1.413 . S
C58 C62 1.429 1_565 S
C59 C57 1.360 1_554 S
C59 C60 1.372 . S
C60 H55 0.928 . S
C60 C59 1.372 . S
C60 C61 1.404 . S
C61 C60 1.404 . S
C61 C62 1.391 1_564 S
C62 H56 0.930 . S
C62 C58 1.429 1_545 S
C62 C61 1.391 1_546 S
H63 C66 0.931 . S
H64 C69 0.928 . S
H65 C71 0.930 . S
C66 H63 0.931 . S
C66 C67 1.413 1_556 S
C66 C68 1.360 . S
C67 C66 1.413 1_554 S
C67 C71 1.429 . S
C68 C66 1.360 . S
C68 C69 1.372 . S
C69 H64 0.928 . S
C69 C68 1.372 . S
C69 C70 1.404 1_556 S
C70 C69 1.404 1_554 S
C70 C71 1.391 . S
C71 H65 0.930 . S
C71 C67 1.429 . S
C71 C70 1.391 . S
Pr72 C74 2.880 1_556 S
Pr72 O92 2.562 1_556 S
Pr72 O93 2.490 1_556 S
Pr72 O94 2.695 1_565 S
Pr72 O95 2.512 . S
Pr72 O97 2.437 . S
Pr72 O100 2.436 1_455 S
Pr72 O102 2.438 1_565 S
Pr73 C83 2.880 . S
Pr73 O94 2.436 1_655 S
Pr73 O96 2.438 1_545 S
Pr73 O98 2.562 . S
Pr73 O99 2.490 . S
Pr73 O100 2.695 1_545 S
Pr73 O101 2.512 . S
Pr73 O103 2.437 . S
C74 Pr72 2.880 1_554 S
C74 C75 1.491 . S
C74 O92 1.254 . S
C74 O93 1.225 . S
C75 C74 1.491 . S
C75 C76 1.392 . S
C75 C80 1.356 . S
C76 C75 1.392 . S
C76 C77 1.368 . S
C76 H104 0.929 . S
C77 C76 1.368 . S
C77 C78 1.386 . S
C77 H105 0.929 . S
C78 C77 1.386 . S
C78 C79 1.373 . S
C79 C78 1.373 . S
C79 C80 1.409 . S
C79 H106 0.931 . S
C80 C75 1.356 . S
C80 C79 1.409 . S
C80 H107 0.930 . S
C81 O94 1.270 1_565 S
C81 O95 1.248 . S
C82 O96 1.267 . S
C82 O97 1.278 1_655 S
C83 Pr73 2.880 . S
C83 C84 1.491 . S
C83 O98 1.254 . S
C83 O99 1.225 . S
C84 C83 1.491 . S
C84 C85 1.392 . S
C84 C89 1.356 . S
C85 C84 1.392 . S
C85 C86 1.368 . S
C85 H108 0.929 . S
C86 C85 1.368 . S
C86 C87 1.386 . S
C86 H109 0.929 . S
C87 C86 1.386 . S
C87 C88 1.373 . S
C88 C87 1.373 . S
C88 C89 1.409 . S
C88 H110 0.931 . S
C89 C84 1.356 . S
C89 C88 1.409 . S
C89 H111 0.930 . S
C90 O100 1.270 1_544 S
C90 O101 1.248 1_554 S
C91 O102 1.267 . S
C91 O103 1.278 1_455 S
O92 Pr72 2.562 1_554 S
O92 C74 1.254 . S
O93 Pr72 2.490 1_554 S
O93 C74 1.225 . S
O94 Pr72 2.695 1_545 S
O94 Pr73 2.436 1_455 S
O94 C81 1.270 1_545 S
O95 Pr72 2.512 . S
O95 C81 1.248 . S
O96 Pr73 2.438 1_565 S
O96 C82 1.267 . S
O97 Pr72 2.437 . S
O97 C82 1.278 1_455 S
O98 Pr73 2.562 . S
O98 C83 1.254 . S
O99 Pr73 2.490 . S
O99 C83 1.225 . S
O100 Pr72 2.436 1_655 S
O100 Pr73 2.695 1_565 S
O100 C90 1.270 1_566 S
O101 Pr73 2.512 . S
O101 C90 1.248 1_556 S
O102 Pr72 2.438 1_545 S
O102 C91 1.267 . S
O103 Pr73 2.437 . S
O103 C91 1.278 1_655 S
H104 C76 0.929 . S
H105 C77 0.929 . S
H106 C79 0.931 . S
H107 C80 0.930 . S
H108 C85 0.929 . S
H109 C86 0.929 . S
H110 C88 0.931 . S
H111 C89 0.930 . S
Pr112 C114 2.880 1_556 S
Pr112 O132 2.562 1_556 S
Pr112 O133 2.490 1_556 S
Pr112 O134 2.695 . S
Pr112 O135 2.512 . S
Pr112 O137 2.437 . S
Pr112 O140 2.436 1_545 S
Pr112 O142 2.438 . S
Pr113 C123 2.880 . S
Pr113 O134 2.436 1_565 S
Pr113 O136 2.438 . S
Pr113 O138 2.562 . S
Pr113 O139 2.490 . S
Pr113 O140 2.695 . S
Pr113 O141 2.512 . S
Pr113 O143 2.437 . S
C114 Pr112 2.880 1_554 S
C114 C115 1.491 . S
C114 O132 1.254 . S
C114 O133 1.225 . S
C115 C114 1.491 . S
C115 C116 1.392 . S
C115 C120 1.356 . S
C116 C115 1.392 . S
C116 C117 1.368 . S
C116 H144 0.929 . S
C117 C116 1.368 . S
C117 C118 1.386 . S
C117 H145 0.929 . S
C118 C117 1.386 . S
C118 C119 1.373 . S
C119 C118 1.373 . S
C119 C120 1.409 . S
C119 H146 0.931 . S
C120 C115 1.356 . S
C120 C119 1.409 . S
C120 H147 0.930 . S
C121 O134 1.270 . S
C121 O135 1.248 . S
C122 O136 1.267 . S
C122 O137 1.278 1_565 S
C123 Pr113 2.880 . S
C123 C124 1.491 . S
C123 O138 1.254 . S
C123 O139 1.225 . S
C124 C123 1.491 . S
C124 C125 1.392 . S
C124 C129 1.356 . S
C125 C124 1.392 . S
C125 C126 1.368 . S
C125 H148 0.929 . S
C126 C125 1.368 . S
C126 C127 1.386 . S
C126 H149 0.929 . S
C127 C126 1.386 . S
C127 C128 1.373 . S
C128 C127 1.373 . S
C128 C129 1.409 . S
C128 H150 0.931 . S
C129 C124 1.356 . S
C129 C128 1.409 . S
C129 H151 0.930 . S
C130 O140 1.270 1_554 S
C130 O141 1.248 1_554 S
C131 O142 1.267 . S
C131 O143 1.278 1_545 S
O132 Pr112 2.562 1_554 S
O132 C114 1.254 . S
O133 Pr112 2.490 1_554 S
O133 C114 1.225 . S
O134 Pr112 2.695 . S
O134 Pr113 2.436 1_545 S
O134 C121 1.270 . S
O135 Pr112 2.512 . S
O135 C121 1.248 . S
O136 Pr113 2.438 . S
O136 C122 1.267 . S
O137 Pr112 2.437 . S
O137 C122 1.278 1_545 S
O138 Pr113 2.562 . S
O138 C123 1.254 . S
O139 Pr113 2.490 . S
O139 C123 1.225 . S
O140 Pr112 2.436 1_565 S
O140 Pr113 2.695 . S
O140 C130 1.270 1_556 S
O141 Pr113 2.512 . S
O141 C130 1.248 1_556 S
O142 Pr112 2.438 . S
O142 C131 1.267 . S
O143 Pr113 2.437 . S
O143 C131 1.278 1_565 S
H144 C116 0.929 . S
H145 C117 0.929 . S
H146 C119 0.931 . S
H147 C120 0.930 . S
H148 C125 0.929 . S
H149 C126 0.929 . S
H150 C128 0.931 . S
H151 C129 0.930 . S
Pr152 C154 2.880 1_556 S
Pr152 O172 2.562 1_556 S
Pr152 O173 2.490 1_556 S
Pr152 O174 2.695 . S
Pr152 O175 2.512 . S
Pr152 O177 2.437 . S
Pr152 O180 2.436 . S
Pr152 O182 2.438 . S
Pr153 C163 2.880 . S
Pr153 O174 2.436 . S
Pr153 O176 2.438 . S
Pr153 O178 2.562 . S
Pr153 O179 2.490 . S
Pr153 O180 2.695 . S
Pr153 O181 2.512 . S
Pr153 O183 2.437 . S
C154 Pr152 2.880 1_554 S
C154 C155 1.491 . S
C154 O172 1.254 . S
C154 O173 1.225 . S
C155 C154 1.491 . S
C155 C156 1.392 . S
C155 C160 1.356 . S
C156 C155 1.392 . S
C156 C157 1.368 . S
C156 H184 0.929 . S
C157 C156 1.368 . S
C157 C158 1.386 . S
C157 H185 0.929 . S
C158 C157 1.386 . S
C158 C159 1.373 . S
C159 C158 1.373 . S
C159 C160 1.409 . S
C159 H186 0.931 . S
C160 C155 1.356 . S
C160 C159 1.409 . S
C160 H187 0.930 . S
C161 O174 1.270 . S
C161 O175 1.248 . S
C162 O176 1.267 . S
C162 O177 1.278 . S
C163 Pr153 2.880 . S
C163 C164 1.491 . S
C163 O178 1.254 . S
C163 O179 1.225 . S
C164 C163 1.491 . S
C164 C165 1.392 . S
C164 C169 1.356 . S
C165 C164 1.392 . S
C165 C166 1.368 . S
C165 H188 0.929 . S
C166 C165 1.368 . S
C166 C167 1.386 . S
C166 H189 0.929 . S
C167 C166 1.386 . S
C167 C168 1.373 . S
C168 C167 1.373 . S
C168 C169 1.409 . S
C168 H190 0.931 . S
C169 C164 1.356 . S
C169 C168 1.409 . S
C169 H191 0.930 . S
C170 O180 1.270 1_554 S
C170 O181 1.248 1_554 S
C171 O182 1.267 . S
C171 O183 1.278 . S
O172 Pr152 2.562 1_554 S
O172 C154 1.254 . S
O173 Pr152 2.490 1_554 S
O173 C154 1.225 . S
O174 Pr152 2.695 . S
O174 Pr153 2.436 . S
O174 C161 1.270 . S
O175 Pr152 2.512 . S
O175 C161 1.248 . S
O176 Pr153 2.438 . S
O176 C162 1.267 . S
O177 Pr152 2.437 . S
O177 C162 1.278 . S
O178 Pr153 2.562 . S
O178 C163 1.254 . S
O179 Pr153 2.490 . S
O179 C163 1.225 . S
O180 Pr152 2.436 . S
O180 Pr153 2.695 . S
O180 C170 1.270 1_556 S
O181 Pr153 2.512 . S
O181 C170 1.248 1_556 S
O182 Pr152 2.438 . S
O182 C171 1.267 . S
O183 Pr153 2.437 . S
O183 C171 1.278 . S
H184 C156 0.929 . S
H185 C157 0.929 . S
H186 C159 0.931 . S
H187 C160 0.930 . S
H188 C165 0.929 . S
H189 C166 0.929 . S
H190 C168 0.931 . S
H191 C169 0.930 . S
Pr192 C194 2.880 1_556 S
Pr192 O212 2.562 1_556 S
Pr192 O213 2.490 1_556 S
Pr192 O214 2.695 1_655 S
Pr192 O215 2.512 . S
Pr192 O217 2.437 . S
Pr192 O220 2.436 . S
Pr192 O222 2.438 1_655 S
Pr193 C203 2.880 . S
Pr193 O214 2.436 . S
Pr193 O216 2.438 1_455 S
Pr193 O218 2.562 . S
Pr193 O219 2.490 . S
Pr193 O220 2.695 1_455 S
Pr193 O221 2.512 . S
Pr193 O223 2.437 . S
C194 Pr192 2.880 1_554 S
C194 C195 1.491 . S
C194 O212 1.254 . S
C194 O213 1.225 . S
C195 C194 1.491 . S
C195 C196 1.392 . S
C195 C200 1.356 . S
C196 C195 1.392 . S
C196 C197 1.368 . S
C196 H224 0.929 . S
C197 C196 1.368 . S
C197 C198 1.386 . S
C197 H225 0.929 . S
C198 C197 1.386 . S
C198 C199 1.373 . S
C199 C198 1.373 . S
C199 C200 1.409 . S
C199 H226 0.931 . S
C200 C195 1.356 . S
C200 C199 1.409 . S
C200 H227 0.930 . S
C201 O214 1.268 1_655 S
C201 O215 1.252 . S
C202 O216 1.267 . S
C202 O217 1.278 . S
C203 Pr193 2.880 . S
C203 C204 1.491 . S
C203 O218 1.254 . S
C203 O219 1.225 . S
C204 C203 1.491 . S
C204 C205 1.392 . S
C204 C209 1.356 . S
C205 C204 1.392 . S
C205 C206 1.368 . S
C205 H228 0.929 . S
C206 C205 1.368 . S
C206 C207 1.386 . S
C206 H229 0.929 . S
C207 C206 1.386 . S
C207 C208 1.373 . S
C208 C207 1.373 . S
C208 C209 1.409 . S
C208 H230 0.931 . S
C209 C204 1.356 . S
C209 C208 1.409 . S
C209 H231 0.930 . S
C210 O220 1.267 1_455 S
C210 O221 1.253 . S
C211 O222 1.267 . S
C211 O223 1.278 . S
O212 Pr192 2.562 1_554 S
O212 C194 1.254 . S
O213 Pr192 2.490 1_554 S
O213 C194 1.225 . S
O214 Pr192 2.695 1_455 S
O214 Pr193 2.436 . S
O214 C201 1.268 1_455 S
O215 Pr192 2.512 . S
O215 C201 1.252 . S
O216 Pr193 2.438 1_655 S
O216 C202 1.267 . S
O217 Pr192 2.437 . S
O217 C202 1.278 . S
O218 Pr193 2.562 . S
O218 C203 1.254 . S
O219 Pr193 2.490 . S
O219 C203 1.225 . S
O220 Pr192 2.436 . S
O220 Pr193 2.695 1_655 S
O220 C210 1.267 1_655 S
O221 Pr193 2.512 . S
O221 C210 1.253 . S
O222 Pr192 2.438 1_455 S
O222 C211 1.267 . S
O223 Pr193 2.437 . S
O223 C211 1.278 . S
H224 C196 0.929 . S
H225 C197 0.929 . S
H226 C199 0.931 . S
H227 C200 0.930 . S
H228 C205 0.929 . S
H229 C206 0.929 . S
H230 C208 0.931 . S
H231 C209 0.930 . S
C61 C81 3.696 1_554 S
C121 C70 3.666 1_556 S
C161 C43 3.730 1_556 S
C201 C52 3.671 1_556 S
C90 C25 3.695 1_544 S
C34 C130 3.669 1_556 S
C7 C170 3.725 1_556 S
C16 C210 3.671 1_655 S
C87 C50 3.198 . S
C127 C59 2.959 . S
C167 C67 2.869 . S
C41 C207 3.027 . S
C14 C78 3.224 1_655 S
C118 C23 2.986 1_545 S
C158 C31 2.849 . S
C5 C198 3.065 . S
C49 C91 4.184 1_655 S
C58 C131 4.104 1_565 S
C171 C68 4.108 . S
C211 C40 4.186 . S
C13 C82 4.185 . S
C122 C22 4.102 . S
C162 C32 4.120 . S
C4 C202 4.184 . S
