# Generated by pormake.
# Topology tsx, (6,3)-cn, num edge types: 1
# Building blocks:
#     Node 0, Type 0, BuildingBlock: LEVNOQ01_clean_sbu_1, # of connection points: 6
#     Node 1, Type 0, BuildingBlock: LEVNOQ01_clean_sbu_1, # of connection points: 6
#     Node 2, Type 1, BuildingBlock: MIDCAF_clean_linker_0, # of connection points: 3
#     Node 3, Type 1, BuildingBlock: MIDCAF_clean_linker_0, # of connection points: 3
#     Node 4, Type 1, BuildingBlock: MIDCAF_clean_linker_0, # of connection points: 3
#     Node 5, Type 1, BuildingBlock: MIDCAF_clean_linker_0, # of connection points: 3
#     Edge 6, Type (0, 1), BuildingBlock: EYOCIG_clean_linker_4, # of connection points: 2
#     Edge 7, Type (0, 1), BuildingBlock: EYOCIG_clean_linker_4, # of connection points: 2
#     Edge 8, Type (0, 1), BuildingBlock: EYOCIG_clean_linker_4, # of connection points: 2
#     Edge 9, Type (0, 1), BuildingBlock: EYOCIG_clean_linker_4, # of connection points: 2
#     Edge 10, Type (0, 1), BuildingBlock: EYOCIG_clean_linker_4, # of connection points: 2
#     Edge 11, Type (0, 1), BuildingBlock: EYOCIG_clean_linker_4, # of connection points: 2
#     Edge 12, Type (0, 1), BuildingBlock: EYOCIG_clean_linker_4, # of connection points: 2
#     Edge 13, Type (0, 1), BuildingBlock: EYOCIG_clean_linker_4, # of connection points: 2
#     Edge 14, Type (0, 1), BuildingBlock: EYOCIG_clean_linker_4, # of connection points: 2
#     Edge 15, Type (0, 1), BuildingBlock: EYOCIG_clean_linker_4, # of connection points: 2
#     Edge 16, Type (0, 1), BuildingBlock: EYOCIG_clean_linker_4, # of connection points: 2
#     Edge 17, Type (0, 1), BuildingBlock: EYOCIG_clean_linker_4, # of connection points: 2
# Relax obj value: 0.132
# Max RMSD: 0.158
# Mean RMSD: 0.121
data_MOF--net-tsx--node1-LEVNOQ01_clean_sbu_1--node2-MIDCAF_clean_linker_0--edge1-EYOCIG_clean_linker_4
_symmetry_space_group_name_H-M    P1
_symmetry_Int_Tables_number       1
_symmetry_cell_setting            triclinic
loop_
_symmetry_equiv_pos_as_xyz
'x, y, z'
_cell_length_a     18.117923
_cell_length_b     22.649017
_cell_length_c     37.927011
_cell_angle_alpha  97.169081
_cell_angle_beta   92.705592
_cell_angle_gamma 91.410785
loop_
_atom_site_label
_atom_site_type_symbol
_atom_site_fract_x
_atom_site_fract_y
_atom_site_fract_z
_atom_type_partial_charge
O0 O 0.13778 0.03348 0.08264 0.0
Mg1 Mg 0.20753 0.03928 0.03992 0.0
O2 O 0.03027 0.01811 0.05096 0.0
Mg3 Mg 0.04862 0.0295 -0.00864 0.0
O4 O 0.15229 0.08696 0.0059 0.0
O5 O 0.26096 0.11869 0.03081 0.0
O6 O 0.07026 0.03908 0.93199 0.0
O7 O 0.98317 0.11846 -0.00111 0.0
Mg8 Mg 0.89643 0.02252 0.94136 0.0
O9 O 0.94401 0.97106 0.97603 0.0
O10 O 0.96568 0.02386 0.89838 0.0
O11 O 0.87417 0.10636 0.96882 0.0
O12 O 0.83517 0.94664 0.94772 0.0
C13 C 0.17861 0.92283 -0.00746 0.0
C14 C 0.06866 0.02199 0.08041 0.0
C15 C 0.20496 0.12692 0.01002 0.0
C16 C 0.03492 0.03383 0.90176 0.0
C17 C 0.92034 0.13787 -0.01028 0.0
C18 C 0.88768 0.9344 0.96948 0.0
O19 O 0.22726 0.95542 0.01138 0.0
O20 O 0.1146 0.94146 0.98466 0.0
O21 O 0.63924 0.53423 0.58262 0.0
Mg22 Mg 0.70877 0.53998 0.53982 0.0
O23 O 0.53164 0.51868 0.55104 0.0
Mg24 Mg 0.54974 0.52988 0.49139 0.0
O25 O 0.65332 0.58752 0.50578 0.0
O26 O 0.76203 0.61938 0.53061 0.0
O27 O 0.57113 0.53927 0.43196 0.0
O28 O 0.48412 0.61877 0.49886 0.0
Mg29 Mg 0.39743 0.52256 0.44151 0.0
O30 O 0.44519 0.47124 0.47621 0.0
O31 O 0.46645 0.52382 0.39844 0.0
O32 O 0.37504 0.60644 0.46887 0.0
O33 O 0.3363 0.4467 0.44798 0.0
C34 C 0.67996 0.4234 0.49259 0.0
C35 C 0.57013 0.52269 0.58046 0.0
C36 C 0.70594 0.62752 0.50984 0.0
C37 C 0.53568 0.53388 0.40176 0.0
C38 C 0.42122 0.63807 0.4897 0.0
C39 C 0.38889 0.43454 0.46973 0.0
O40 O 0.72862 0.45609 0.51135 0.0
O41 O 0.61588 0.44193 0.48474 0.0
C42 C 0.81039 0.12212 0.42664 0.0
C43 C 0.83284 0.16107 0.45694 0.0
C44 C 0.89797 0.15082 0.47648 0.0
C45 C 0.94305 0.10396 0.46425 0.0
H46 H 0.0997 0.96585 0.48741 0.0
H47 H 0.18782 0.90844 0.51916 0.0
H48 H 0.27576 0.83763 0.41951 0.0
H49 H 0.18879 0.89471 0.3875 0.0
H50 H 0.11122 0.92077 0.31265 0.0
H51 H 0.10809 0.92015 0.24772 0.0
H52 H 0.92744 0.04067 0.2539 0.0
H53 H 0.92943 0.0417 0.31803 0.0
H54 H 0.83821 0.04789 0.38985 0.0
H55 H 0.76005 0.12939 0.41138 0.0
H56 H 0.91587 0.18076 0.50004 0.0
H57 H 0.9952 0.09875 0.47848 0.0
N58 N 0.03029 0.00111 0.43266 0.0
N59 N 0.07678 0.95883 0.37855 0.0
N60 N 0.97432 0.01939 0.37837 0.0
C61 C 0.08013 0.96604 0.41488 0.0
C62 C 0.02389 -0.01428 0.36015 0.0
C63 C 0.97674 0.02736 0.41433 0.0
C64 C 0.13657 0.93479 0.43475 0.0
C65 C 0.13825 0.93866 0.47219 0.0
C66 C 0.18869 0.90598 0.49046 0.0
C67 C 0.23807 0.86903 0.47157 0.0
C68 C 0.23803 0.86617 0.43449 0.0
C69 C 0.18796 0.89878 0.41623 0.0
C70 C 0.02085 0.9814 0.32073 0.0
C71 C 0.07046 0.94673 0.30017 0.0
C72 C 0.06866 0.94621 0.26311 0.0
C73 C 0.01738 0.98033 0.24632 0.0
C74 C 0.96711 0.01387 0.26651 0.0
C75 C 0.96862 0.01436 0.30329 0.0
C76 C 0.92339 0.06759 0.43224 0.0
C77 C 0.85526 0.0757 0.41437 0.0
C78 C 0.8454 0.88677 0.54608 0.0
C79 C 0.83906 0.87944 0.50892 0.0
C80 C 0.88104 0.91652 0.49002 0.0
C81 C 0.93102 0.9593 0.50842 0.0
H82 H 0.12569 0.07763 0.49821 0.0
H83 H 0.20969 0.14708 0.47332 0.0
H84 H 0.24874 0.24635 0.57742 0.0
H85 H 0.16583 0.17851 0.60231 0.0
H86 H 0.15774 0.10951 0.66685 0.0
H87 H 0.17479 0.10986 0.73114 0.0
H88 H 1.00015 0.97637 0.7282 0.0
H89 H 0.9823 0.97531 0.66377 0.0
H90 H 0.89889 0.93256 0.59312 0.0
H91 H 0.81338 0.85845 0.56109 0.0
H92 H 0.87695 0.91125 0.4612 0.0
H93 H 0.96402 -0.01339 0.4934 0.0
N94 N 0.03965 0.04359 0.54933 0.0
N95 N 0.09969 0.07946 0.60434 0.0
N96 N 1.00589 0.00655 0.60174 0.0
C97 C 0.09142 0.08048 0.56871 0.0
C98 C 0.05758 0.04273 0.6211 0.0
C99 C 0.99623 0.00657 0.56594 0.0
C100 C 0.13907 0.12234 0.55224 0.0
C101 C 0.15191 0.11441 0.51567 0.0
C102 C 0.20025 0.15367 0.50151 0.0
C103 C 0.23569 0.20117 0.52378 0.0
C104 C 0.22241 0.20947 0.55998 0.0
C105 C 0.17477 0.17051 0.57409 0.0
C106 C 0.06846 0.04237 0.66003 0.0
C107 C 0.12296 0.07995 0.67971 0.0
C108 C 0.13306 0.0802 0.71646 0.0
C109 C 0.08894 0.04298 0.73407 0.0
C110 C 0.0349 0.0052 0.71478 0.0
C111 C 0.0247 0.0048 0.678 0.0
C112 C 0.93965 0.9652 0.54582 0.0
C113 C 0.89485 0.92918 0.56436 0.0
C114 C 0.30985 0.62191 0.92642 0.0
C115 C 0.33182 0.6607 0.95686 0.0
C116 C 0.39674 0.65042 0.97656 0.0
C117 C 0.44208 0.60372 0.96437 0.0
H118 H 0.59882 0.46555 -0.01243 0.0
H119 H 0.68668 0.40797 0.01935 0.0
H120 H 0.77606 0.33831 0.91983 0.0
H121 H 0.68935 0.39556 0.8878 0.0
H122 H 0.61159 0.42107 0.81284 0.0
H123 H 0.60889 0.42053 0.74792 0.0
H124 H 0.42968 0.54244 0.754 0.0
H125 H 0.43127 0.5434 0.81812 0.0
H126 H 0.3383 0.54799 0.88956 0.0
H127 H 0.25968 0.62921 0.91104 0.0
H128 H 0.41427 0.68023 0.00024 0.0
H129 H 0.49406 0.5985 0.97874 0.0
N130 N 0.53001 0.50125 0.93279 0.0
N131 N 0.57723 0.45948 0.87874 0.0
N132 N 0.47465 0.51988 0.87843 0.0
C133 C 0.58014 0.46641 0.91506 0.0
C134 C 0.52452 0.48644 0.86027 0.0
C135 C 0.47661 0.52757 0.91439 0.0
C136 C 0.63643 0.43508 0.93498 0.0
C137 C 0.63763 0.43858 0.9724 0.0
C138 C 0.68794 0.40581 -0.00932 0.0
C139 C 0.73763 0.36913 0.97183 0.0
C140 C 0.73807 0.36664 0.93479 0.0
C141 C 0.68816 0.39935 0.91651 0.0
C142 C 0.5219 0.48237 0.82087 0.0
C143 C 0.57127 0.44738 0.80034 0.0
C144 C 0.5697 0.4469 0.76329 0.0
C145 C 0.51891 0.48139 0.74647 0.0
C146 C 0.46895 0.51533 0.76663 0.0
C147 C 0.47022 0.51577 0.80341 0.0
C148 C 0.42291 0.56754 0.93223 0.0
C149 C 0.35498 0.57566 0.91419 0.0
C150 C 0.3448 0.38625 0.04619 0.0
C151 C 0.33835 0.37887 0.00902 0.0
C152 C 0.38023 0.41595 -0.00992 0.0
C153 C 0.43021 0.45878 0.00842 0.0
H154 H 0.62467 0.57728 -0.00195 0.0
H155 H 0.7085 0.64677 0.97308 0.0
H156 H 0.74761 0.74619 0.07714 0.0
H157 H 0.66487 0.67831 0.10209 0.0
H158 H 0.65718 0.60936 0.16667 0.0
H159 H 0.6745 0.60976 0.23094 0.0
H160 H 0.50024 0.47599 0.22817 0.0
H161 H 0.48212 0.47488 0.16376 0.0
H162 H 0.39838 0.43213 0.09317 0.0
H163 H 0.31286 0.35794 0.06123 0.0
H164 H 0.37604 0.41064 0.96125 0.0
H165 H 0.46312 0.48609 -0.00664 0.0
N166 N 0.53882 0.54322 0.04924 0.0
N167 N 0.599 0.57917 0.1042 0.0
N168 N 0.50533 0.50617 0.10169 0.0
C169 C 0.59059 0.58017 0.06857 0.0
C170 C 0.55703 0.5424 0.121 0.0
C171 C 0.49554 0.50616 0.06589 0.0
C172 C 0.6381 0.62206 0.05205 0.0
C173 C 0.65087 0.6141 0.01548 0.0
C174 C 0.6991 0.65339 0.00128 0.0
C175 C 0.73451 0.70094 0.02351 0.0
C176 C 0.7213 0.70927 0.05972 0.0
C177 C 0.67376 0.67029 0.07388 0.0
C178 C 0.56807 0.54208 0.15993 0.0
C179 C 0.62254 0.57976 0.17956 0.0
C180 C 0.63279 0.58004 0.21631 0.0
C181 C 0.58886 0.54275 0.23396 0.0
C182 C 0.53485 0.50488 0.21472 0.0
C183 C 0.5245 0.50444 0.17794 0.0
C184 C 0.43895 0.46474 0.04582 0.0
C185 C 0.39425 0.42872 0.06441 0.0
C186 C 0.21925 0.22898 0.98547 0.0
C187 C 0.20278 0.18077 -0.00633 0.0
C188 C 0.25424 0.2852 0.98455 0.0
C189 C 0.29334 0.32944 -0.00856 0.0
C190 C 0.2202 0.81297 0.97602 0.0
C191 C 0.19598 0.86201 0.98213 0.0
C192 C 0.25629 0.75839 0.9708 0.0
C193 C 0.29184 0.71429 0.96514 0.0
C194 C 0.86089 0.83353 -0.00606 0.0
C195 C 0.88145 0.88029 0.98518 0.0
C196 C 0.82264 0.78228 0.00199 0.0
C197 C 0.78212 0.74343 0.00973 0.0
C198 C 0.87179 0.24572 0.00372 0.0
C199 C 0.90186 0.19857 0.00028 0.0
C200 C 0.82737 0.29497 -0.00062 0.0
C201 C 0.78486 0.33043 -0.01048 0.0
C202 C 0.72001 0.72957 0.48527 0.0
C203 C 0.70361 0.68135 0.49348 0.0
C204 C 0.75497 0.7858 0.48436 0.0
C205 C 0.79408 0.83004 0.49129 0.0
C206 C 0.72162 0.31353 0.47613 0.0
C207 C 0.6974 0.36257 0.48223 0.0
C208 C 0.75764 0.25892 0.47091 0.0
C209 C 0.79304 0.21475 0.46523 0.0
C210 C 0.36222 0.33372 0.49425 0.0
C211 C 0.38276 0.38047 0.48547 0.0
C212 C 0.32395 0.28248 0.50231 0.0
C213 C 0.28337 0.24365 0.51003 0.0
C214 C 0.37255 0.74591 0.50356 0.0
C215 C 0.40268 0.69878 0.50018 0.0
C216 C 0.32805 0.79509 0.49915 0.0
C217 C 0.28547 0.83048 0.48928 0.0
C218 C 0.02106 -0.00085 0.14165 0.0
C219 C 0.03548 0.0087 0.11216 0.0
C220 C 0.01655 -0.01083 0.17747 0.0
C221 C 0.01832 0.98418 0.20876 0.0
C222 C 0.09201 0.04207 0.84036 0.0
C223 C 0.07308 0.03931 0.87011 0.0
C224 C 0.09984 0.04398 0.80376 0.0
C225 C 0.09691 0.04502 0.77208 0.0
C226 C 0.52276 0.5 0.64177 0.0
C227 C 0.5371 0.50946 0.61226 0.0
C228 C 0.51826 0.49008 0.67761 0.0
C229 C 0.51998 0.48513 0.7089 0.0
C230 C 0.59246 0.542 0.34028 0.0
C231 C 0.57369 0.53931 0.37006 0.0
C232 C 0.60009 0.54383 0.30366 0.0
C233 C 0.59698 0.54483 0.27197 0.0
loop_
_geom_bond_atom_site_label_1
_geom_bond_atom_site_label_2
_geom_bond_distance
_geom_bond_site_symmetry_2
_ccdc_geom_bond_type
O0 Mg1 1.990 . S
O0 C14 1.253 . S
Mg1 O0 1.990 . S
Mg1 O4 2.180 . S
Mg1 O5 2.117 . S
Mg1 O19 2.030 1_545 S
O2 Mg3 2.072 1_554 S
O2 C14 1.260 . S
Mg3 O2 2.072 1_556 S
Mg3 O4 2.099 1_556 S
Mg3 O6 2.079 . S
Mg3 O7 2.072 1_456 S
Mg3 O9 2.099 1_445 S
Mg3 O20 2.079 1_545 S
O4 Mg1 2.180 . S
O4 Mg3 2.099 1_554 S
O4 C15 1.279 . S
O5 Mg1 2.117 . S
O5 C15 1.250 . S
O6 Mg3 2.079 . S
O6 C16 1.264 . S
O7 Mg3 2.072 1_654 S
O7 C17 1.260 1_554 S
Mg8 O9 2.180 1_545 S
Mg8 O10 2.030 . S
Mg8 O11 1.990 . S
Mg8 O12 2.117 1_545 S
O9 Mg3 2.099 1_665 S
O9 Mg8 2.180 1_565 S
O9 C18 1.277 1_556 S
O10 Mg8 2.030 . S
O10 C16 1.248 1_655 S
O11 Mg8 1.990 . S
O11 C17 1.253 . S
O12 Mg8 2.117 1_565 S
O12 C18 1.249 1_556 S
C13 O19 1.248 . S
C13 O20 1.264 1_554 S
C14 O0 1.253 . S
C14 O2 1.260 . S
C15 O4 1.279 . S
C15 O5 1.250 . S
C16 O6 1.264 . S
C16 O10 1.248 1_455 S
C17 O7 1.260 1_556 S
C17 O11 1.253 . S
C18 O9 1.277 1_554 S
C18 O12 1.249 1_554 S
O19 Mg1 2.030 1_565 S
O19 C13 1.248 . S
O20 Mg3 2.079 1_565 S
O20 C13 1.264 1_556 S
O21 Mg22 1.990 . S
O21 C35 1.253 . S
Mg22 O21 1.990 . S
Mg22 O25 2.180 . S
Mg22 O26 2.117 . S
Mg22 O40 2.030 . S
O23 Mg24 2.072 . S
O23 C35 1.260 . S
Mg24 O23 2.072 . S
Mg24 O25 2.099 . S
Mg24 O27 2.079 . S
Mg24 O28 2.072 . S
Mg24 O30 2.099 . S
Mg24 O41 2.079 . S
O25 Mg22 2.180 . S
O25 Mg24 2.099 . S
O25 C36 1.279 . S
O26 Mg22 2.117 . S
O26 C36 1.250 . S
O27 Mg24 2.079 . S
O27 C37 1.264 . S
O28 Mg24 2.072 . S
O28 C38 1.260 . S
Mg29 O30 2.180 . S
Mg29 O31 2.030 . S
Mg29 O32 1.990 . S
Mg29 O33 2.117 . S
O30 Mg24 2.099 . S
O30 Mg29 2.180 . S
O30 C39 1.279 . S
O31 Mg29 2.030 . S
O31 C37 1.248 . S
O32 Mg29 1.990 . S
O32 C38 1.253 . S
O33 Mg29 2.117 . S
O33 C39 1.250 . S
C34 O40 1.248 . S
C34 O41 1.264 . S
C35 O21 1.253 . S
C35 O23 1.260 . S
C36 O25 1.279 . S
C36 O26 1.250 . S
C37 O27 1.264 . S
C37 O31 1.248 . S
C38 O28 1.260 . S
C38 O32 1.253 . S
C39 O30 1.279 . S
C39 O33 1.250 . S
O40 Mg22 2.030 . S
O40 C34 1.248 . S
O41 Mg24 2.079 . S
O41 C34 1.264 . S
C42 C43 1.384 . S
C42 H55 0.947 . S
C42 C77 1.382 . S
C43 C42 1.384 . S
C43 C44 1.378 . S
C44 C43 1.378 . S
C44 C45 1.378 . S
C44 H56 0.952 . S
C45 C44 1.378 . S
C45 H57 0.950 1_655 S
C45 C76 1.383 . S
H46 C65 0.947 . S
H47 C66 0.946 . S
H48 C68 0.953 . S
H49 C69 0.945 . S
H50 C71 0.952 . S
H51 C72 0.949 . S
H52 C74 0.950 . S
H53 C75 0.948 . S
H54 C77 0.951 . S
H55 C42 0.947 . S
H56 C44 0.952 . S
H57 C45 0.950 1_455 S
N58 C61 1.382 1_545 S
N58 C63 1.363 . S
N59 C61 1.371 . S
N59 C62 1.372 1_565 S
N60 C62 1.361 . S
N60 C63 1.377 . S
C61 N58 1.382 1_565 S
C61 N59 1.371 . S
C61 C64 1.480 . S
C62 N59 1.372 1_545 S
C62 N60 1.361 . S
C62 C70 1.457 . S
C63 N58 1.363 . S
C63 N60 1.377 . S
C63 C76 1.479 1_455 S
C64 C61 1.480 . S
C64 C65 1.383 . S
C64 C69 1.385 . S
C65 H46 0.947 . S
C65 C64 1.383 . S
C65 C66 1.388 . S
C66 H47 0.946 . S
C66 C65 1.388 . S
C66 C67 1.384 . S
C67 C66 1.384 . S
C67 C68 1.377 . S
C68 H48 0.953 . S
C68 C67 1.377 . S
C68 C69 1.369 . S
C69 H49 0.945 . S
C69 C64 1.385 . S
C69 C68 1.369 . S
C70 C62 1.457 . S
C70 C71 1.372 1_545 S
C70 C75 1.364 . S
C71 H50 0.952 . S
C71 C70 1.372 1_565 S
C71 C72 1.389 . S
C72 H51 0.949 . S
C72 C71 1.389 . S
C72 C73 1.387 . S
C73 C72 1.387 . S
C73 C74 1.372 1_565 S
C74 H52 0.950 . S
C74 C73 1.372 1_545 S
C74 C75 1.379 . S
C75 H53 0.948 . S
C75 C70 1.364 . S
C75 C74 1.379 . S
C76 C45 1.383 . S
C76 C63 1.479 1_655 S
C76 C77 1.398 . S
C77 C42 1.382 . S
C77 H54 0.951 . S
C77 C76 1.398 . S
C78 C79 1.384 . S
C78 H91 0.947 . S
C78 C113 1.382 . S
C79 C78 1.384 . S
C79 C80 1.378 . S
C80 C79 1.378 . S
C80 C81 1.378 . S
C80 H92 0.952 . S
C81 C80 1.378 . S
C81 H93 0.950 1_565 S
C81 C112 1.383 . S
H82 C101 0.947 . S
H83 C102 0.946 . S
H84 C104 0.953 . S
H85 C105 0.945 . S
H86 C107 0.952 . S
H87 C108 0.949 . S
H88 C110 0.950 . S
H89 C111 0.938 1_565 S
H90 C113 0.951 . S
H91 C78 0.947 . S
H92 C80 0.952 . S
H93 C81 0.950 1_545 S
N94 C97 1.382 . S
N94 C99 1.363 1_455 S
N95 C97 1.371 . S
N95 C98 1.372 . S
N96 C98 1.361 1_655 S
N96 C99 1.377 . S
C97 N94 1.382 . S
C97 N95 1.371 . S
C97 C100 1.480 . S
C98 N95 1.372 . S
C98 N96 1.361 1_455 S
C98 C106 1.457 . S
C99 N94 1.363 1_655 S
C99 N96 1.377 . S
C99 C112 1.479 1_545 S
C100 C97 1.480 . S
C100 C101 1.383 . S
C100 C105 1.385 . S
C101 H82 0.947 . S
C101 C100 1.383 . S
C101 C102 1.388 . S
C102 H83 0.946 . S
C102 C101 1.388 . S
C102 C103 1.384 . S
C103 C102 1.384 . S
C103 C104 1.377 . S
C104 H84 0.953 . S
C104 C103 1.377 . S
C104 C105 1.369 . S
C105 H85 0.945 . S
C105 C100 1.385 . S
C105 C104 1.369 . S
C106 C98 1.457 . S
C106 C107 1.372 . S
C106 C111 1.364 1_455 S
C107 H86 0.952 . S
C107 C106 1.372 . S
C107 C108 1.389 . S
C108 H87 0.949 . S
C108 C107 1.389 . S
C108 C109 1.387 . S
C109 C108 1.387 . S
C109 C110 1.372 1_455 S
C110 H88 0.950 . S
C110 C109 1.372 1_655 S
C110 C111 1.379 . S
C111 H89 0.938 1_545 S
C111 C106 1.364 1_655 S
C111 C110 1.379 . S
C112 C81 1.383 . S
C112 C99 1.479 1_565 S
C112 C113 1.398 . S
C113 C78 1.382 . S
C113 H90 0.951 . S
C113 C112 1.398 . S
C114 C115 1.384 . S
C114 H127 0.947 . S
C114 C149 1.382 . S
C115 C114 1.384 . S
C115 C116 1.378 1_556 S
C116 C115 1.378 1_554 S
C116 C117 1.378 1_554 S
C116 H128 0.952 . S
C117 C116 1.378 1_556 S
C117 H129 0.950 1_556 S
C117 C148 1.383 . S
H118 C137 0.960 . S
H119 C138 0.946 . S
H120 C140 0.953 . S
H121 C141 0.945 . S
H122 C143 0.952 . S
H123 C144 0.949 . S
H124 C146 0.950 . S
H125 C147 0.948 . S
H126 C149 0.951 . S
H127 C114 0.947 . S
H128 C116 0.952 . S
H129 C117 0.950 1_554 S
N130 C133 1.382 . S
N130 C135 1.363 . S
N131 C133 1.371 . S
N131 C134 1.372 . S
N132 C134 1.361 . S
N132 C135 1.377 . S
C133 N130 1.382 . S
C133 N131 1.371 . S
C133 C136 1.480 . S
C134 N131 1.372 . S
C134 N132 1.361 . S
C134 C142 1.457 . S
C135 N130 1.363 . S
C135 N132 1.377 . S
C135 C148 1.479 . S
C136 C133 1.480 . S
C136 C137 1.383 . S
C136 C141 1.385 . S
C137 H118 0.960 . S
C137 C136 1.383 . S
C137 C138 1.388 1_556 S
C138 H119 0.946 . S
C138 C137 1.388 1_554 S
C138 C139 1.384 1_554 S
C139 C138 1.384 1_556 S
C139 C140 1.377 . S
C140 H120 0.953 . S
C140 C139 1.377 . S
C140 C141 1.369 . S
C141 H121 0.945 . S
C141 C136 1.385 . S
C141 C140 1.369 . S
C142 C134 1.457 . S
C142 C143 1.372 . S
C142 C147 1.364 . S
C143 H122 0.952 . S
C143 C142 1.372 . S
C143 C144 1.389 . S
C144 H123 0.949 . S
C144 C143 1.389 . S
C144 C145 1.387 . S
C145 C144 1.387 . S
C145 C146 1.372 . S
C146 H124 0.950 . S
C146 C145 1.372 . S
C146 C147 1.379 . S
C147 H125 0.948 . S
C147 C142 1.364 . S
C147 C146 1.379 . S
C148 C117 1.383 . S
C148 C135 1.479 . S
C148 C149 1.398 . S
C149 C114 1.382 . S
C149 H126 0.951 . S
C149 C148 1.398 . S
C150 C151 1.384 . S
C150 H163 0.947 . S
C150 C185 1.382 . S
C151 C150 1.384 . S
C151 C152 1.378 1_554 S
C152 C151 1.378 1_556 S
C152 C153 1.378 1_556 S
C152 H164 0.952 . S
C153 C152 1.378 1_554 S
C153 H165 0.950 . S
C153 C184 1.383 . S
H154 C173 0.947 . S
H155 C174 0.946 1_556 S
H156 C176 0.953 . S
H157 C177 0.945 . S
H158 C179 0.952 . S
H159 C180 0.949 . S
H160 C182 0.950 . S
H161 C183 0.948 . S
H162 C185 0.951 . S
H163 C150 0.947 . S
H164 C152 0.952 . S
H165 C153 0.950 . S
N166 C169 1.382 . S
N166 C171 1.363 . S
N167 C169 1.371 . S
N167 C170 1.372 . S
N168 C170 1.361 . S
N168 C171 1.377 . S
C169 N166 1.382 . S
C169 N167 1.371 . S
C169 C172 1.480 . S
C170 N167 1.372 . S
C170 N168 1.361 . S
C170 C178 1.457 . S
C171 N166 1.363 . S
C171 N168 1.377 . S
C171 C184 1.479 . S
C172 C169 1.480 . S
C172 C173 1.383 . S
C172 C177 1.385 . S
C173 H154 0.947 . S
C173 C172 1.383 . S
C173 C174 1.388 . S
C174 H155 0.946 1_554 S
C174 C173 1.388 . S
C174 C175 1.384 . S
C175 C174 1.384 . S
C175 C176 1.377 . S
C176 H156 0.953 . S
C176 C175 1.377 . S
C176 C177 1.369 . S
C177 H157 0.945 . S
C177 C172 1.385 . S
C177 C176 1.369 . S
C178 C170 1.457 . S
C178 C179 1.372 . S
C178 C183 1.364 . S
C179 H158 0.952 . S
C179 C178 1.372 . S
C179 C180 1.389 . S
C180 H159 0.949 . S
C180 C179 1.389 . S
C180 C181 1.387 . S
C181 C180 1.387 . S
C181 C182 1.372 . S
C182 H160 0.950 . S
C182 C181 1.372 . S
C182 C183 1.379 . S
C183 H161 0.948 . S
C183 C178 1.364 . S
C183 C182 1.379 . S
C184 C153 1.383 . S
C184 C171 1.479 . S
C184 C185 1.398 . S
C185 C150 1.382 . S
C185 H162 0.951 . S
C185 C184 1.398 . S
C186 C187 1.170 . S
C186 C188 1.380 . S
C187 C186 1.170 . S
C188 C186 1.380 . S
C188 C189 1.170 . S
C189 C188 1.170 . S
C190 C191 1.170 . S
C190 C192 1.380 . S
C191 C190 1.170 . S
C192 C190 1.380 . S
C192 C193 1.170 . S
C193 C192 1.170 . S
C194 C195 1.170 . S
C194 C196 1.380 . S
C195 C194 1.170 . S
C196 C194 1.380 . S
C196 C197 1.170 . S
C197 C196 1.170 . S
C198 C199 1.169 1_556 S
C198 C200 1.380 . S
C199 C198 1.169 1_554 S
C200 C198 1.380 . S
C200 C201 1.170 . S
C201 C200 1.170 . S
C202 C203 1.170 . S
C202 C204 1.380 . S
C203 C202 1.170 . S
C204 C202 1.380 . S
C204 C205 1.170 . S
C205 C204 1.170 . S
C206 C207 1.170 . S
C206 C208 1.380 . S
C207 C206 1.170 . S
C208 C206 1.380 . S
C208 C209 1.170 . S
C209 C208 1.170 . S
C210 C211 1.170 . S
C210 C212 1.380 . S
C211 C210 1.170 . S
C212 C210 1.380 . S
C212 C213 1.170 . S
C213 C212 1.170 . S
C214 C215 1.170 . S
C214 C216 1.380 . S
C215 C214 1.170 . S
C216 C214 1.380 . S
C216 C217 1.170 . S
C217 C216 1.170 . S
C218 C219 1.170 . S
C218 C220 1.380 1_545 S
C219 C218 1.170 . S
C220 C218 1.380 1_565 S
C220 C221 1.170 . S
C221 C220 1.170 . S
C222 C223 1.170 . S
C222 C224 1.380 . S
C223 C222 1.170 . S
C224 C222 1.380 . S
C224 C225 1.170 . S
C225 C224 1.170 . S
C226 C227 1.170 . S
C226 C228 1.380 . S
C227 C226 1.170 . S
C228 C226 1.380 . S
C228 C229 1.170 . S
C229 C228 1.170 . S
C230 C231 1.170 . S
C230 C232 1.380 . S
C231 C230 1.170 . S
C232 C230 1.380 . S
C232 C233 1.170 . S
C233 C232 1.170 . S
C189 C151 1.521 . S
C187 C15 1.438 . S
C191 C13 1.599 . S
C193 C115 1.581 1_554 S
C195 C18 1.272 . S
C197 C175 1.504 . S
C199 C17 1.388 1_554 S
C201 C139 1.427 . S
C203 C36 1.459 . S
C205 C79 1.541 . S
C207 C34 1.580 . S
C209 C43 1.575 . S
C213 C103 1.499 . S
C211 C39 1.333 . S
C217 C67 1.432 . S
C215 C38 1.397 . S
C219 C14 1.528 . S
C221 C73 1.556 . S
C223 C16 1.386 . S
C225 C109 1.444 . S
C229 C145 1.546 . S
C227 C35 1.496 . S
C231 C37 1.388 . S
C233 C181 1.445 . S
