# Generated by pormake.
# Topology pyr, (3,6)-cn, num edge types: 1
# Building blocks:
#     Node 0, Type 0, BuildingBlock: CUQRIR_clean_linker_1, # of connection points: 3
#     Node 1, Type 0, BuildingBlock: CUQRIR_clean_linker_1, # of connection points: 3
#     Node 2, Type 0, BuildingBlock: CUQRIR_clean_linker_1, # of connection points: 3
#     Node 3, Type 0, BuildingBlock: CUQRIR_clean_linker_1, # of connection points: 3
#     Node 4, Type 0, BuildingBlock: CUQRIR_clean_linker_1, # of connection points: 3
#     Node 5, Type 0, BuildingBlock: CUQRIR_clean_linker_1, # of connection points: 3
#     Node 6, Type 0, BuildingBlock: CUQRIR_clean_linker_1, # of connection points: 3
#     Node 7, Type 0, BuildingBlock: CUQRIR_clean_linker_1, # of connection points: 3
#     Node 8, Type 1, BuildingBlock: CIFDUS_clean_sbu_1, # of connection points: 6
#     Node 9, Type 1, BuildingBlock: CIFDUS_clean_sbu_1, # of connection points: 6
#     Node 10, Type 1, BuildingBlock: CIFDUS_clean_sbu_1, # of connection points: 6
#     Node 11, Type 1, BuildingBlock: CIFDUS_clean_sbu_1, # of connection points: 6
#     Edge 12, Type (0, 1), None
#     Edge 13, Type (0, 1), None
#     Edge 14, Type (0, 1), None
#     Edge 15, Type (0, 1), None
#     Edge 16, Type (0, 1), None
#     Edge 17, Type (0, 1), None
#     Edge 18, Type (0, 1), None
#     Edge 19, Type (0, 1), None
#     Edge 20, Type (0, 1), None
#     Edge 21, Type (0, 1), None
#     Edge 22, Type (0, 1), None
#     Edge 23, Type (0, 1), None
#     Edge 24, Type (0, 1), None
#     Edge 25, Type (0, 1), None
#     Edge 26, Type (0, 1), None
#     Edge 27, Type (0, 1), None
#     Edge 28, Type (0, 1), None
#     Edge 29, Type (0, 1), None
#     Edge 30, Type (0, 1), None
#     Edge 31, Type (0, 1), None
#     Edge 32, Type (0, 1), None
#     Edge 33, Type (0, 1), None
#     Edge 34, Type (0, 1), None
#     Edge 35, Type (0, 1), None
# Relax obj value: 0.123
# Max RMSD: 0.210
# Mean RMSD: 0.158
data_MOF--net-pry--node1-CIFDUS_clean_sbu_1--node2-CUQRIR_clean_linker_1--edge1-none
_symmetry_space_group_name_H-M    P1
_symmetry_Int_Tables_number       1
_symmetry_cell_setting            triclinic
loop_
_symmetry_equiv_pos_as_xyz
'x, y, z'
_cell_length_a     13.889132
_cell_length_b     12.76454
_cell_length_c     12.411285
_cell_angle_alpha  88.971053
_cell_angle_beta   92.994566
_cell_angle_gamma 95.024404
loop_
_atom_site_label
_atom_site_type_symbol
_atom_site_fract_x
_atom_site_fract_y
_atom_site_fract_z
_atom_type_partial_charge
C0 C 0.13899 0.23691 0.22111 0.0
N1 N 0.20436 0.16493 0.24514 0.0
N2 N 0.15064 0.28375 0.12477 0.0
C3 C 0.05165 0.25371 0.28649 0.0
C4 C 0.23091 0.24149 0.09138 0.0
N5 N 0.26255 0.16319 0.15962 0.0
C6 C 0.2869 0.28833 0.99874 0.0
H7 H 0.99959 0.18339 0.27869 0.0
H8 H 0.01206 0.32104 0.25703 0.0
H9 H 0.07333 0.26591 0.37288 0.0
H10 H 0.34892 0.34149 0.03073 0.0
H11 H 0.24061 0.33529 0.94467 0.0
H12 H 0.31589 0.22536 0.95267 0.0
C13 C 0.37812 0.882 0.56095 0.0
N14 N 0.36132 0.93982 0.64722 0.0
N15 N 0.46428 0.84317 0.57204 0.0
C16 C 0.30976 0.85593 0.46449 0.0
C17 C 0.50753 0.90439 0.65259 0.0
N18 N 0.44461 0.95713 0.70818 0.0
C19 C 0.61147 0.8959 0.68878 0.0
H20 H 0.2414 0.81379 0.48973 0.0
H21 H 0.34325 0.80622 0.40684 0.0
H22 H 0.29237 0.92967 0.42206 0.0
H23 H 0.65578 0.89227 0.61733 0.0
H24 H 0.61775 0.82205 0.73605 0.0
H25 H 0.63881 0.96441 0.73821 0.0
C26 C 0.61377 0.35911 0.84145 0.0
N27 N 0.66451 0.34809 0.93655 0.0
N28 N 0.61749 0.4611 0.81116 0.0
C29 C 0.54153 0.2753 0.79126 0.0
C30 C 0.67437 0.51021 0.88745 0.0
N31 N 0.717 0.441 0.95323 0.0
C32 C 0.70764 0.62596 0.87712 0.0
H33 H 0.58147 0.21984 0.74663 0.0
H34 H 0.48866 0.30898 0.73335 0.0
H35 H 0.50012 0.22979 0.85267 0.0
H36 H 0.6449 0.67389 0.87301 0.0
H37 H 0.74331 0.6395 0.79951 0.0
H38 H 0.75765 0.65223 0.94534 0.0
C39 C 0.86287 0.56855 0.40534 0.0
N40 N 0.92886 0.63684 0.36366 0.0
N41 N 0.81594 0.6111 0.48521 0.0
C42 C 0.83319 0.46441 0.35412 0.0
C43 C 0.87184 0.70331 0.50218 0.0
N44 N 0.94253 0.719 0.42988 0.0
C45 C 0.84549 0.78524 0.57792 0.0
H46 H 0.78595 0.47552 0.2806 0.0
H47 H 0.79588 0.41525 0.41293 0.0
H48 H 0.89629 0.42427 0.33056 0.0
H49 H 0.78536 0.75427 0.62828 0.0
H50 H 0.82467 0.85587 0.53198 0.0
H51 H 0.90948 0.80763 0.63169 0.0
C52 C 0.87578 0.90064 0.99839 0.0
N53 N 0.94222 0.87463 0.92901 0.0
N54 N 0.82275 0.9771 0.9568 0.0
C55 C 0.84202 0.83352 0.09386 0.0
C56 C 0.86186 0.99978 0.86156 0.0
N57 N 0.93386 0.93893 0.84272 0.0
C58 C 0.8298 0.08571 0.78759 0.0
H59 H 0.77677 0.78152 0.06985 0.0
H60 H 0.82095 0.885 0.1582 0.0
H61 H 0.89648 0.78259 0.12665 0.0
H62 H 0.87086 0.15996 0.81305 0.0
H63 H 0.75236 0.09767 0.79491 0.0
H64 H 0.84338 0.06873 0.70269 0.0
C65 C 0.75143 0.22087 0.48698 0.0
N66 N 0.7742 0.14043 0.42357 0.0
N67 N 0.65386 0.23115 0.48787 0.0
C68 C 0.82213 0.28289 0.56102 0.0
C69 C 0.62022 0.14051 0.43857 0.0
N70 N 0.6882 0.09926 0.37902 0.0
C71 C 0.51312 0.10754 0.42747 0.0
H72 H 0.83211 0.2352 0.63445 0.0
H73 H 0.79305 0.35647 0.58627 0.0
H74 H 0.89284 0.30032 0.52392 0.0
H75 H 0.47558 0.16774 0.38075 0.0
H76 H 0.48302 0.10411 0.50865 0.0
H77 H 0.49828 0.02986 0.38849 0.0
C78 C 0.34246 0.62665 0.22277 0.0
N79 N 0.43634 0.65966 0.2265 0.0
N80 N 0.29372 0.68037 0.14537 0.0
C81 C 0.30074 0.5599 0.31074 0.0
C82 C 0.35472 0.76036 0.11863 0.0
N83 N 0.44391 0.74693 0.16312 0.0
C84 C 0.3238 0.84391 0.03838 0.0
H85 H 0.3163 0.47668 0.30193 0.0
H86 H 0.22511 0.56649 0.31663 0.0
H87 H 0.33439 0.5922 0.38684 0.0
H88 H 0.26031 0.87952 0.0684 0.0
H89 H 0.2991 0.80578 0.96089 0.0
H90 H 0.37812 0.90824 1.02223 0.0
C91 C 0.07389 0.38094 0.67536 0.0
N92 N 0.14288 0.34494 0.61596 0.0
N93 N 0.09073 0.48387 0.69064 0.0
C94 C 1.00376 0.3122 0.74058 0.0
C95 C 0.15764 0.5148 0.62008 0.0
N96 N 0.20027 0.43 0.58359 0.0
C97 C 0.20013 0.62732 0.61426 0.0
H98 H 0.93493 0.34866 0.74426 0.0
H99 H 0.03437 0.30396 0.82441 0.0
H100 H 0.98978 0.23313 0.70489 0.0
H101 H 0.23609 0.64915 0.69371 0.0
H102 H 0.1415 0.6802 0.5987 0.0
H103 H 0.25299 0.63838 0.55043 0.0
O104 O 0.93466 0.11074 0.49515 0.0
Mn105 Mn 0.07141 0.03533 0.54126 0.0
O106 O 0.87881 0.03711 0.34011 0.0
Mn107 Mn 0.99442 0.96723 0.33316 0.0
O108 O 0.20314 0.96687 0.59136 0.0
O109 O 0.13536 0.1618 0.62703 0.0
Mn110 Mn 0.17435 0.11579 0.75814 0.0
O111 O 1.00102 0.97219 0.67923 0.0
O112 O 0.27492 0.03975 0.74244 0.0
O113 O 0.15155 0.10198 0.40794 0.0
O114 O 0.10561 1.01715 0.26133 0.0
O115 O 0.21088 0.25606 0.75519 0.0
O116 O 0.07253 0.04471 0.8293 0.0
C117 C 0.98055 0.81587 0.39501 0.0
C118 C 0.86477 0.09611 0.41913 0.0
C119 C 0.27619 0.9811 0.66249 0.0
C120 C 0.17467 0.25436 0.6567 0.0
C121 C 1.00919 0.97942 0.78322 0.0
C122 C 0.16673 0.08245 0.30833 0.0
O123 O 0.01388 0.89502 0.45945 0.0
O124 O 0.96932 0.83543 0.29358 0.0
O125 O 0.48978 0.0302 0.88076 0.0
Mn126 Mn 0.5435 0.04686 0.05413 0.0
O127 O 0.46132 0.85785 0.85728 0.0
Mn128 Mn 0.55993 0.83583 0.95821 0.0
O129 O 0.60205 0.04936 0.21973 0.0
O130 O 0.58337 0.20701 0.03222 0.0
Mn131 Mn 0.55525 0.24957 0.16179 0.0
O132 O 0.39604 0.07589 0.10337 0.0
O133 O 0.66167 0.21087 0.24378 0.0
O134 O 0.68411 0.03306 1.01327 0.0
O135 O 0.68254 0.88201 0.92592 0.0
O136 O 0.58866 0.37106 0.09326 0.0
O137 O 0.4224 0.22313 0.19795 0.0
C138 C 0.51919 0.78374 0.10676 0.0
C139 C 0.45374 0.95031 0.82075 0.0
C140 C 0.66292 0.11558 0.27143 0.0
C141 C 0.60866 0.30826 1.01821 0.0
C142 C 0.3626 0.14707 0.16341 0.0
C143 C 0.72608 0.96605 0.96232 0.0
O144 O 0.53074 0.88504 0.08326 0.0
O145 O 0.54952 0.71894 0.03971 0.0
O146 O 0.66169 0.56122 0.53437 0.0
Mn147 Mn 0.51019 0.5193 0.51777 0.0
O148 O 0.68877 0.6197 0.37339 0.0
Mn149 Mn 0.61452 0.50768 0.31454 0.0
O150 O 0.35573 0.46785 0.52156 0.0
O151 O 0.51579 0.51704 0.67812 0.0
Mn152 Mn 0.41564 0.56572 0.72792 0.0
O153 O 0.48722 0.67781 0.51827 0.0
O154 O 0.32595 0.45724 0.69609 0.0
O155 O 0.55103 0.36253 0.51748 0.0
O156 O 0.6375 0.37034 0.36862 0.0
O157 O 0.48528 0.54198 0.84943 0.0
O158 O 0.41976 0.70213 0.67537 0.0
C159 C 0.50581 0.5937 0.26062 0.0
C160 C 0.71833 0.60978 0.46922 0.0
C161 C 0.29904 0.43802 0.59939 0.0
C162 C 0.539 0.5056 0.77854 0.0
C163 C 0.4586 0.73758 0.58933 0.0
C164 C 0.61359 0.32456 0.45826 0.0
O165 O 0.4979 0.52997 0.34692 0.0
O166 O 0.56838 0.56988 0.19275 0.0
O167 O 0.86612 0.50674 1.01684 0.0
Mn168 Mn 0.01516 0.56034 0.02731 0.0
O169 O 0.84365 0.4613 0.85095 0.0
Mn170 Mn 0.9272 0.57867 0.82481 0.0
O171 O 0.16339 0.61008 0.04849 0.0
O172 O 0.9756 0.58331 0.19465 0.0
Mn173 Mn 0.09752 0.56897 0.22028 0.0
O174 O 0.04953 0.40453 0.05332 0.0
O175 O 0.14937 0.69892 0.19069 0.0
O176 O 0.99308 0.71984 0.99988 0.0
O177 O 0.9135 0.72021 0.84256 0.0
O178 O 0.07169 0.57287 0.35423 0.0
O179 O 0.1582 0.44973 0.18091 0.0
C180 C 0.03731 0.54233 0.74879 0.0
C181 C 0.81508 0.4529 0.94545 0.0
C182 C 0.19982 0.67643 0.11831 0.0
C183 C 0.99586 0.60253 0.301 0.0
C184 C 0.12567 0.38448 0.10986 0.0
C185 C 0.95638 0.77045 0.92004 0.0
O186 O 0.0439 0.53816 0.85767 0.0
O187 O 0.96416 0.57656 0.6949 0.0
loop_
_geom_bond_atom_site_label_1
_geom_bond_atom_site_label_2
_geom_bond_distance
_geom_bond_site_symmetry_2
_ccdc_geom_bond_type
C0 N1 1.317 . S
C0 N2 1.348 . S
C0 C3 1.485 . S
N1 C0 1.317 . S
N1 N5 1.370 . S
N2 C0 1.348 . S
N2 C4 1.346 . S
C3 C0 1.485 . S
C3 H7 0.960 1_455 S
C3 H8 0.961 . S
C3 H9 0.960 . S
C4 N2 1.346 . S
C4 N5 1.307 . S
C4 C6 1.486 1_554 S
N5 N1 1.370 . S
N5 C4 1.307 . S
C6 C4 1.486 1_556 S
C6 H10 0.960 . S
C6 H11 0.960 . S
C6 H12 0.959 . S
H7 C3 0.960 1_655 S
H8 C3 0.961 . S
H9 C3 0.960 . S
H10 C6 0.960 . S
H11 C6 0.960 . S
H12 C6 0.959 . S
C13 N14 1.317 . S
C13 N15 1.348 . S
C13 C16 1.485 . S
N14 C13 1.317 . S
N14 N18 1.370 . S
N15 C13 1.348 . S
N15 C17 1.346 . S
C16 C13 1.485 . S
C16 H20 0.960 . S
C16 H21 0.961 . S
C16 H22 0.960 . S
C17 N15 1.346 . S
C17 N18 1.307 . S
C17 C19 1.486 . S
N18 N14 1.370 . S
N18 C17 1.307 . S
C19 C17 1.486 . S
C19 H23 0.960 . S
C19 H24 0.960 . S
C19 H25 0.959 . S
H20 C16 0.960 . S
H21 C16 0.961 . S
H22 C16 0.960 . S
H23 C19 0.960 . S
H24 C19 0.960 . S
H25 C19 0.959 . S
C26 N27 1.317 . S
C26 N28 1.348 . S
C26 C29 1.485 . S
N27 C26 1.317 . S
N27 N31 1.370 . S
N28 C26 1.348 . S
N28 C30 1.346 . S
C29 C26 1.485 . S
C29 H33 0.960 . S
C29 H34 0.961 . S
C29 H35 0.960 . S
C30 N28 1.346 . S
C30 N31 1.307 . S
C30 C32 1.486 . S
N31 N27 1.370 . S
N31 C30 1.307 . S
C32 C30 1.486 . S
C32 H36 0.960 . S
C32 H37 0.960 . S
C32 H38 0.959 . S
H33 C29 0.960 . S
H34 C29 0.961 . S
H35 C29 0.960 . S
H36 C32 0.960 . S
H37 C32 0.960 . S
H38 C32 0.959 . S
C39 N40 1.317 . S
C39 N41 1.348 . S
C39 C42 1.485 . S
N40 C39 1.317 . S
N40 N44 1.370 . S
N41 C39 1.348 . S
N41 C43 1.346 . S
C42 C39 1.485 . S
C42 H46 0.960 . S
C42 H47 0.961 . S
C42 H48 0.960 . S
C43 N41 1.346 . S
C43 N44 1.307 . S
C43 C45 1.486 . S
N44 N40 1.370 . S
N44 C43 1.307 . S
C45 C43 1.486 . S
C45 H49 0.960 . S
C45 H50 0.960 . S
C45 H51 0.959 . S
H46 C42 0.960 . S
H47 C42 0.961 . S
H48 C42 0.960 . S
H49 C45 0.960 . S
H50 C45 0.960 . S
H51 C45 0.959 . S
C52 N53 1.317 . S
C52 N54 1.348 . S
C52 C55 1.485 1_556 S
N53 C52 1.317 . S
N53 N57 1.370 . S
N54 C52 1.348 . S
N54 C56 1.346 . S
C55 C52 1.485 1_554 S
C55 H59 0.960 . S
C55 H60 0.961 . S
C55 H61 0.960 . S
C56 N54 1.346 . S
C56 N57 1.307 . S
C56 C58 1.486 1_565 S
N57 N53 1.370 . S
N57 C56 1.307 . S
C58 C56 1.486 1_545 S
C58 H62 0.960 . S
C58 H63 0.960 . S
C58 H64 0.959 . S
H59 C55 0.960 . S
H60 C55 0.961 . S
H61 C55 0.960 . S
H62 C58 0.960 . S
H63 C58 0.960 . S
H64 C58 0.959 . S
C65 N66 1.317 . S
C65 N67 1.348 . S
C65 C68 1.485 . S
N66 C65 1.317 . S
N66 N70 1.370 . S
N67 C65 1.348 . S
N67 C69 1.346 . S
C68 C65 1.485 . S
C68 H72 0.960 . S
C68 H73 0.961 . S
C68 H74 0.960 . S
C69 N67 1.346 . S
C69 N70 1.307 . S
C69 C71 1.486 . S
N70 N66 1.370 . S
N70 C69 1.307 . S
C71 C69 1.486 . S
C71 H75 0.960 . S
C71 H76 0.960 . S
C71 H77 0.959 . S
H72 C68 0.960 . S
H73 C68 0.961 . S
H74 C68 0.960 . S
H75 C71 0.960 . S
H76 C71 0.960 . S
H77 C71 0.959 . S
C78 N79 1.317 . S
C78 N80 1.348 . S
C78 C81 1.485 . S
N79 C78 1.317 . S
N79 N83 1.370 . S
N80 C78 1.348 . S
N80 C82 1.346 . S
C81 C78 1.485 . S
C81 H85 0.960 . S
C81 H86 0.961 . S
C81 H87 0.960 . S
C82 N80 1.346 . S
C82 N83 1.307 . S
C82 C84 1.486 1_554 S
N83 N79 1.370 . S
N83 C82 1.307 . S
C84 C82 1.486 1_556 S
C84 H88 0.960 1_556 S
C84 H89 0.960 . S
C84 H90 0.959 . S
H85 C81 0.960 . S
H86 C81 0.961 . S
H87 C81 0.960 . S
H88 C84 0.960 1_554 S
H89 C84 0.960 . S
H90 C84 0.959 . S
C91 N92 1.317 . S
C91 N93 1.348 . S
C91 C94 1.485 1_455 S
N92 C91 1.317 . S
N92 N96 1.370 . S
N93 C91 1.348 . S
N93 C95 1.346 . S
C94 C91 1.485 1_655 S
C94 H98 0.960 . S
C94 H99 0.961 . S
C94 H100 0.960 . S
C95 N93 1.346 . S
C95 N96 1.307 . S
C95 C97 1.486 . S
N96 N92 1.370 . S
N96 C95 1.307 . S
C97 C95 1.486 . S
C97 H101 0.960 . S
C97 H102 0.960 . S
C97 H103 0.959 . S
H98 C94 0.960 . S
H99 C94 0.961 . S
H100 C94 0.960 . S
H101 C97 0.960 . S
H102 C97 0.960 . S
H103 C97 0.959 . S
O104 Mn105 2.163 1_655 S
O104 C118 1.244 . S
Mn105 O104 2.163 1_455 S
Mn105 O108 2.160 1_545 S
Mn105 O109 2.221 . S
Mn105 O111 2.163 1_545 S
Mn105 O113 2.160 . S
Mn105 O123 2.221 1_545 S
O106 Mn107 2.087 1_545 S
O106 C118 1.256 . S
Mn107 O106 2.087 1_565 S
Mn107 O114 2.089 1_665 S
Mn107 O123 2.290 1_655 S
Mn107 O124 2.251 . S
O108 Mn105 2.160 1_565 S
O108 C119 1.239 . S
O109 Mn105 2.221 . S
O109 Mn110 2.290 . S
O109 C120 1.278 . S
Mn110 O109 2.290 . S
Mn110 O112 2.089 1_545 S
Mn110 O115 2.251 . S
Mn110 O116 2.087 . S
O111 Mn105 2.163 1_565 S
O111 C121 1.244 . S
O112 Mn110 2.089 1_565 S
O112 C119 1.256 . S
O113 Mn105 2.160 . S
O113 C122 1.239 . S
O114 Mn107 2.089 1_445 S
O114 C122 1.256 . S
O115 Mn110 2.251 . S
O115 C120 1.241 . S
O116 Mn110 2.087 . S
O116 C121 1.256 1_545 S
C117 O123 1.278 1_655 S
C117 O124 1.241 . S
C118 O104 1.244 . S
C118 O106 1.256 . S
C119 O108 1.239 . S
C119 O112 1.256 . S
C120 O109 1.278 . S
C120 O115 1.241 . S
C121 O111 1.244 . S
C121 O116 1.256 1_565 S
C122 O113 1.239 . S
C122 O114 1.256 . S
O123 Mn105 2.221 1_565 S
O123 Mn107 2.290 1_455 S
O123 C117 1.278 1_455 S
O124 Mn107 2.251 . S
O124 C117 1.241 . S
O125 Mn126 2.163 1_556 S
O125 C139 1.244 1_545 S
Mn126 O125 2.163 1_554 S
Mn126 O129 2.160 . S
Mn126 O130 2.221 . S
Mn126 O132 2.163 . S
Mn126 O134 2.160 . S
Mn126 O144 2.221 1_545 S
O127 Mn128 2.087 . S
O127 C139 1.256 . S
Mn128 O127 2.087 . S
Mn128 O135 2.089 . S
Mn128 O144 2.290 1_556 S
Mn128 O145 2.251 1_556 S
O129 Mn126 2.160 . S
O129 C140 1.239 . S
O130 Mn126 2.221 . S
O130 Mn131 2.290 . S
O130 C141 1.278 1_554 S
Mn131 O130 2.290 . S
Mn131 O133 2.089 . S
Mn131 O136 2.251 1_554 S
Mn131 O137 2.087 . S
O132 Mn126 2.163 . S
O132 C142 1.244 . S
O133 Mn131 2.089 . S
O133 C140 1.256 . S
O134 Mn126 2.160 . S
O134 C143 1.239 1_544 S
O135 Mn128 2.089 . S
O135 C143 1.256 . S
O136 Mn131 2.251 1_556 S
O136 C141 1.241 . S
O137 Mn131 2.087 . S
O137 C142 1.256 . S
C138 O144 1.278 . S
C138 O145 1.241 . S
C139 O125 1.244 1_565 S
C139 O127 1.256 . S
C140 O129 1.239 . S
C140 O133 1.256 . S
C141 O130 1.278 1_556 S
C141 O136 1.241 . S
C142 O132 1.244 . S
C142 O137 1.256 . S
C143 O134 1.239 1_566 S
C143 O135 1.256 . S
O144 Mn126 2.221 1_565 S
O144 Mn128 2.290 1_554 S
O144 C138 1.278 . S
O145 Mn128 2.251 1_554 S
O145 C138 1.241 . S
O146 Mn147 2.163 . S
O146 C160 1.244 . S
Mn147 O146 2.163 . S
Mn147 O150 2.160 . S
Mn147 O151 2.221 . S
Mn147 O153 2.163 . S
Mn147 O155 2.160 . S
Mn147 O165 2.221 . S
O148 Mn149 2.087 . S
O148 C160 1.256 . S
Mn149 O148 2.087 . S
Mn149 O156 2.089 . S
Mn149 O165 2.290 . S
Mn149 O166 2.251 . S
O150 Mn147 2.160 . S
O150 C161 1.239 . S
O151 Mn147 2.221 . S
O151 Mn152 2.290 . S
O151 C162 1.278 . S
Mn152 O151 2.290 . S
Mn152 O154 2.089 . S
Mn152 O157 2.251 . S
Mn152 O158 2.087 . S
O153 Mn147 2.163 . S
O153 C163 1.244 . S
O154 Mn152 2.089 . S
O154 C161 1.256 . S
O155 Mn147 2.160 . S
O155 C164 1.239 . S
O156 Mn149 2.089 . S
O156 C164 1.256 . S
O157 Mn152 2.251 . S
O157 C162 1.241 . S
O158 Mn152 2.087 . S
O158 C163 1.256 . S
C159 O165 1.278 . S
C159 O166 1.241 . S
C160 O146 1.244 . S
C160 O148 1.256 . S
C161 O150 1.239 . S
C161 O154 1.256 . S
C162 O151 1.278 . S
C162 O157 1.241 . S
C163 O153 1.244 . S
C163 O158 1.256 . S
C164 O155 1.239 . S
C164 O156 1.256 . S
O165 Mn147 2.221 . S
O165 Mn149 2.290 . S
O165 C159 1.278 . S
O166 Mn149 2.251 . S
O166 C159 1.241 . S
O167 Mn168 2.163 1_656 S
O167 C181 1.244 . S
Mn168 O167 2.163 1_454 S
Mn168 O171 2.160 . S
Mn168 O172 2.221 1_455 S
Mn168 O174 2.163 . S
Mn168 O176 2.160 1_454 S
Mn168 O186 2.221 1_554 S
O169 Mn170 2.087 . S
O169 C181 1.256 . S
Mn170 O169 2.087 . S
Mn170 O177 2.089 . S
Mn170 O186 2.290 1_655 S
Mn170 O187 2.251 . S
O171 Mn168 2.160 . S
O171 C182 1.239 . S
O172 Mn168 2.221 1_655 S
O172 Mn173 2.290 1_655 S
O172 C183 1.278 . S
Mn173 O172 2.290 1_455 S
Mn173 O175 2.089 . S
Mn173 O178 2.251 1_455 S
Mn173 O179 2.087 . S
O174 Mn168 2.163 . S
O174 C184 1.244 . S
O175 Mn173 2.089 . S
O175 C182 1.256 . S
O176 Mn168 2.160 1_656 S
O176 C185 1.239 . S
O177 Mn170 2.089 . S
O177 C185 1.256 . S
O178 Mn173 2.251 1_655 S
O178 C183 1.241 . S
O179 Mn173 2.087 . S
O179 C184 1.256 . S
C180 O186 1.278 . S
C180 O187 1.241 1_455 S
C181 O167 1.244 . S
C181 O169 1.256 . S
C182 O171 1.239 . S
C182 O175 1.256 . S
C183 O172 1.278 . S
C183 O178 1.241 . S
C184 O174 1.244 . S
C184 O179 1.256 . S
C185 O176 1.239 . S
C185 O177 1.256 . S
O186 Mn168 2.221 1_556 S
O186 Mn170 2.290 1_455 S
O186 C180 1.278 . S
O187 Mn170 2.251 . S
O187 C180 1.241 1_655 S
N1 C122 1.458 . S
N18 C139 1.670 . S
C162 N28 0.875 . S
N40 C183 1.544 . S
C142 N5 2.027 . S
C119 N14 1.559 . S
C181 N31 1.313 . S
C160 N41 1.211 . S
N2 C184 1.567 . S
C141 N27 1.287 . S
N44 C117 1.464 . S
N15 C163 1.381 . S
C121 N57 1.802 1_455 S
N70 C140 1.223 . S
N79 C159 1.240 . S
N93 C180 1.143 . S
N54 C143 1.483 . S
C118 N66 2.148 . S
C182 N80 0.795 . S
C161 N96 1.445 . S
N53 C185 1.555 . S
C138 N83 1.043 . S
C120 N92 1.458 . S
N67 C164 1.735 . S
