# Generated by pormake.
# Topology pyr, (3,6)-cn, num edge types: 1
# Building blocks:
#     Node 0, Type 0, BuildingBlock: BETDIP_clean_linker_0, # of connection points: 3
#     Node 1, Type 0, BuildingBlock: BETDIP_clean_linker_0, # of connection points: 3
#     Node 2, Type 0, BuildingBlock: BETDIP_clean_linker_0, # of connection points: 3
#     Node 3, Type 0, BuildingBlock: BETDIP_clean_linker_0, # of connection points: 3
#     Node 4, Type 0, BuildingBlock: BETDIP_clean_linker_0, # of connection points: 3
#     Node 5, Type 0, BuildingBlock: BETDIP_clean_linker_0, # of connection points: 3
#     Node 6, Type 0, BuildingBlock: BETDIP_clean_linker_0, # of connection points: 3
#     Node 7, Type 0, BuildingBlock: BETDIP_clean_linker_0, # of connection points: 3
#     Node 8, Type 1, BuildingBlock: MIFKUJ_clean_sbu_0, # of connection points: 6
#     Node 9, Type 1, BuildingBlock: MIFKUJ_clean_sbu_0, # of connection points: 6
#     Node 10, Type 1, BuildingBlock: MIFKUJ_clean_sbu_0, # of connection points: 6
#     Node 11, Type 1, BuildingBlock: MIFKUJ_clean_sbu_0, # of connection points: 6
#     Edge 12, Type (0, 1), None
#     Edge 13, Type (0, 1), None
#     Edge 14, Type (0, 1), None
#     Edge 15, Type (0, 1), None
#     Edge 16, Type (0, 1), None
#     Edge 17, Type (0, 1), None
#     Edge 18, Type (0, 1), None
#     Edge 19, Type (0, 1), None
#     Edge 20, Type (0, 1), None
#     Edge 21, Type (0, 1), None
#     Edge 22, Type (0, 1), None
#     Edge 23, Type (0, 1), None
#     Edge 24, Type (0, 1), None
#     Edge 25, Type (0, 1), None
#     Edge 26, Type (0, 1), None
#     Edge 27, Type (0, 1), None
#     Edge 28, Type (0, 1), None
#     Edge 29, Type (0, 1), None
#     Edge 30, Type (0, 1), None
#     Edge 31, Type (0, 1), None
#     Edge 32, Type (0, 1), None
#     Edge 33, Type (0, 1), None
#     Edge 34, Type (0, 1), None
#     Edge 35, Type (0, 1), None
# Relax obj value: 0.080
# Max RMSD: 0.183
# Mean RMSD: 0.124
data_MOF--net-pyr--node1-MIFKUJ_clean_sbu_0--node2-BETDIP_clean_linker_0--edge1-none
_symmetry_space_group_name_H-M    P1
_symmetry_Int_Tables_number       1
_symmetry_cell_setting            triclinic
loop_
_symmetry_equiv_pos_as_xyz
'x, y, z'
_cell_length_a     18.625722
_cell_length_b     16.029279
_cell_length_c     16.848754
_cell_angle_alpha  86.514296
_cell_angle_beta   80.4433
_cell_angle_gamma 107.16377
loop_
_atom_site_label
_atom_site_type_symbol
_atom_site_fract_x
_atom_site_fract_y
_atom_site_fract_z
_atom_type_partial_charge
H0 H 0.06983 0.1547 0.32574 0.0
H1 H 0.24803 0.16458 0.12409 0.0
H2 H 0.21364 -0.00935 0.34155 0.0
H3 H 0.24415 0.29829 0.09936 0.0
C4 C 0.18879 0.30306 0.12688 0.0
C5 C 0.11554 0.13057 0.29801 0.0
C6 C 0.1358 0.0672 0.34196 0.0
C7 C 0.15777 0.16914 0.22142 0.0
C8 C 0.21714 0.13798 0.18486 0.0
C9 C 0.23763 0.07276 0.22711 0.0
C10 C 0.19748 0.03903 0.30686 0.0
N11 N 0.14142 0.24263 0.18621 0.0
H12 H 0.37899 0.94065 0.82102 0.0
H13 H 0.31015 0.77831 0.63664 0.0
H14 H 0.49702 0.75565 0.747 0.0
H15 H 0.19636 0.80671 0.68496 0.0
C16 C 0.2171 0.87538 0.69475 0.0
C17 C 0.38608 0.88938 0.78425 0.0
C18 C 0.44349 0.85071 0.7918 0.0
C19 C 0.33664 0.86206 0.73018 0.0
C20 C 0.34625 0.79697 0.68086 0.0
C21 C 0.4046 0.75877 0.68579 0.0
C22 C 0.45248 0.78544 0.74212 0.0
N23 N 0.28305 0.90766 0.72126 0.0
H24 H 0.70709 0.48633 0.79432 0.0
H25 H 0.51055 0.25495 0.83913 0.0
H26 H 0.69433 0.27248 0.96881 0.0
H27 H 0.51066 0.29878 0.71 0.0
C28 C 0.5331 0.37005 0.69996 0.0
C29 C 0.67648 0.42189 0.82717 0.0
C30 C 0.70877 0.38563 0.88453 0.0
C31 C 0.60627 0.37538 0.80897 0.0
C32 C 0.56565 0.29149 0.85148 0.0
C33 C 0.59727 0.25347 0.90902 0.0
C34 C 0.66891 0.3014 0.92547 0.0
N35 N 0.58061 0.4146 0.74552 0.0
H36 H 0.75428 0.51149 0.28488 0.0
H37 H 0.92035 0.74435 0.33064 0.0
H38 H 0.68267 0.68249 0.44461 0.0
H39 H 0.84389 0.56541 0.15802 0.0
C40 C 0.8942 0.56771 0.18381 0.0
C41 C 0.76784 0.57185 0.313 0.0
C42 C 0.71016 0.59167 0.36504 0.0
C43 C 0.84379 0.62639 0.30118 0.0
C44 C 0.86144 0.70242 0.34017 0.0
C45 C 0.80326 0.72419 0.39094 0.0
C46 C 0.72789 0.66732 0.40455 0.0
N47 N 0.90314 0.60285 0.25315 0.0
H48 H 0.75909 0.8729 0.93605 0.0
H49 H 0.93131 0.85828 0.73722 0.0
H50 H 0.7825 0.00944 0.70028 0.0
H51 H 0.94494 0.75805 0.81642 0.0
C52 C 0.90608 0.74413 0.87445 0.0
C53 C 0.78858 0.89287 0.87358 0.0
C54 C 0.76487 0.9481 0.82291 0.0
C55 C 0.84732 0.85852 0.84382 0.0
C56 C 0.88586 0.88352 0.76252 0.0
C57 C 0.86212 0.93714 0.71064 0.0
C58 C 0.80152 0.9691 0.74094 0.0
N59 N 0.85875 0.7916 0.89515 0.0
H60 H 0.62298 0.06284 0.2079 0.0
H61 H 0.67665 0.20252 0.41126 0.0
H62 H 0.50689 0.248 0.28464 0.0
H63 H 0.79322 0.17564 0.36344 0.0
C64 C 0.77232 0.10806 0.35042 0.0
C65 C 0.61446 0.11109 0.24779 0.0
C66 C 0.56075 0.15477 0.23794 0.0
C67 C 0.6582 0.12983 0.30846 0.0
C68 C 0.64567 0.1906 0.36198 0.0
C69 C 0.59014 0.23248 0.35442 0.0
C70 C 0.54918 0.21525 0.29136 0.0
N71 N 0.70859 0.08016 0.31905 0.0
H72 H 0.28839 0.57058 0.27728 0.0
H73 H 0.48769 0.79748 0.20773 0.0
H74 H 0.30389 0.75356 0.07373 0.0
H75 H 0.37561 0.51543 0.31331 0.0
C76 C 0.41109 0.56719 0.34158 0.0
C77 C 0.32074 0.62934 0.23657 0.0
C78 C 0.28867 0.65474 0.17292 0.0
C79 C 0.39361 0.67898 0.24826 0.0
C80 C 0.43259 0.75768 0.19758 0.0
C81 C 0.40027 0.7856 0.13487 0.0
C82 C 0.32876 0.73301 0.12228 0.0
N83 N 0.42722 0.65211 0.31188 0.0
H84 H 0.06617 0.21898 0.7523 0.0
H85 H 0.2321 0.45527 0.79259 0.0
H86 H 0.29434 0.30367 0.6078 0.0
H87 H 0.14979 0.40847 0.92143 0.0
C88 C 0.09776 0.40132 0.89781 0.0
C89 C 0.12416 0.26378 0.73849 0.0
C90 C 0.17887 0.25024 0.67664 0.0
C91 C 0.14343 0.3369 0.78122 0.0
C92 C 0.21772 0.39631 0.76255 0.0
C93 C 0.27125 0.38502 0.6994 0.0
C94 C 0.25201 0.31212 0.65657 0.0
N95 N 0.08516 0.35787 0.83336 0.0
Zn96 Zn 0.07884 0.00097 0.60002 0.0
Zn97 Zn 0.90762 0.98 0.45264 0.0
C98 C 0.15991 0.17323 0.6317 0.0
O99 O 0.20468 0.17086 0.56343 0.0
C100 C 0.82083 0.8059 0.4295 0.0
O101 O 0.77334 0.81515 0.49281 0.0
O102 O 0.11623 0.90554 0.64737 0.0
O103 O 0.96699 0.97125 0.59727 0.0
O104 O 0.85354 0.95189 0.57124 0.0
C105 C 0.17714 0.93242 0.67588 0.0
O106 O 0.20641 0.01671 0.68064 0.0
O107 O 0.10233 0.10682 0.66046 0.0
C108 C 0.81008 0.04865 0.36985 0.0
O109 O 0.78102 0.96522 0.36134 0.0
O110 O 0.86887 0.07298 0.40228 0.0
O111 O 0.02336 0.01346 0.44582 0.0
O112 O 0.13444 0.03531 0.48227 0.0
O113 O 0.88089 0.86912 0.40006 0.0
C114 C 0.89559 0.95243 0.62328 0.0
C115 C 0.0961 0.03713 0.4267 0.0
Zn116 Zn 0.5648 0.98271 0.968 0.0
Zn117 Zn 0.43305 0.04335 0.06287 0.0
C118 C 0.49368 0.87808 0.85151 0.0
O119 O 0.53589 0.83003 0.87056 0.0
C120 C 0.51468 0.1364 0.17394 0.0
O121 O 0.47902 0.19136 0.153 0.0
O122 O 0.66121 0.95197 0.92645 0.0
O123 O 0.59782 0.11527 0.96904 0.0
O124 O 0.48529 0.13066 0.96188 0.0
C125 C 0.69889 0.97869 0.8545 0.0
O126 O 0.67587 0.02959 0.80716 0.0
O127 O 0.496 0.94745 0.88561 0.0
C128 C 0.30262 0.04304 0.18901 0.0
O129 O 0.32574 0.98726 0.23056 0.0
O130 O 0.33829 0.07356 0.11675 0.0
O131 O 0.40028 0.91288 0.05412 0.0
O132 O 0.51186 0.90436 0.07347 0.0
O133 O 0.50542 0.06553 0.14151 0.0
C134 C 0.55801 0.16233 0.9488 0.0
C135 C 0.43951 0.87075 0.08413 0.0
Zn136 Zn 0.49639 0.41538 0.47573 0.0
Zn137 Zn 0.47638 0.55933 0.56633 0.0
C138 C 0.63259 0.53009 0.38173 0.0
O139 O 0.60532 0.48565 0.32457 0.0
C140 C 0.34515 0.45279 0.67405 0.0
O141 O 0.38076 0.49519 0.72768 0.0
O142 O 0.51613 0.32085 0.41048 0.0
O143 O 0.47286 0.36762 0.59193 0.0
O144 O 0.54301 0.49656 0.61687 0.0
C145 C 0.57373 0.2938 0.41182 0.0
O146 O 0.62015 0.32419 0.46148 0.0
O147 O 0.59483 0.51262 0.45371 0.0
C148 C 0.41449 0.69071 0.63268 0.0
O149 O 0.362 0.656 0.59054 0.0
O150 O 0.47196 0.66256 0.62941 0.0
O151 O 0.48235 0.59543 0.44473 0.0
O152 O 0.42017 0.45882 0.43034 0.0
O153 O 0.3742 0.47181 0.59931 0.0
C154 C 0.51549 0.41321 0.63509 0.0
C155 C 0.43897 0.54066 0.40756 0.0
Zn156 Zn 0.91811 0.50077 0.95994 0.0
Zn157 Zn 0.09267 0.50185 0.09783 0.0
C158 C 0.78647 0.43456 0.89583 0.0
O159 O 0.83425 0.48927 0.83546 0.0
C160 C 0.21314 0.59855 0.16115 0.0
O161 O 0.16791 0.54133 0.22137 0.0
O162 O 0.93775 0.61867 0.89878 0.0
O163 O 0.94699 0.52035 0.06967 0.0
O164 O 0.00775 0.53318 0.17129 0.0
C165 C 0.89998 0.66907 0.92395 0.0
O166 O 0.84993 0.64511 0.99248 0.0
O167 O 0.80866 0.42551 0.96239 0.0
C168 C 0.16995 0.37701 0.10333 0.0
O169 O 0.21757 0.43647 0.04638 0.0
O170 O 0.10872 0.3898 0.13834 0.0
O171 O 0.05186 0.47659 0.99627 0.0
O172 O 0.99006 0.44407 0.8983 0.0
O173 O 0.19255 0.59946 0.09271 0.0
C174 C 0.9504 0.53844 0.14133 0.0
C175 C 0.04648 0.44266 0.9309 0.0
loop_
_geom_bond_atom_site_label_1
_geom_bond_atom_site_label_2
_geom_bond_distance
_geom_bond_site_symmetry_2
_ccdc_geom_bond_type
H0 C5 0.930 . S
H1 C8 0.930 . S
H2 C10 0.930 . S
H3 C4 1.016 . S
C4 H3 1.016 . S
C4 N11 1.286 . S
C5 H0 0.930 . S
C5 C6 1.397 . S
C5 C7 1.361 . S
C6 C5 1.397 . S
C6 C10 1.390 . S
C7 C5 1.361 . S
C7 C8 1.393 . S
C7 N11 1.413 . S
C8 H1 0.930 . S
C8 C7 1.393 . S
C8 C9 1.399 . S
C9 C8 1.399 . S
C9 C10 1.381 . S
C10 H2 0.930 . S
C10 C6 1.390 . S
C10 C9 1.381 . S
N11 C4 1.286 . S
N11 C7 1.413 . S
H12 C17 0.930 . S
H13 C20 0.930 . S
H14 C22 0.930 . S
H15 C16 1.016 . S
C16 H15 1.016 . S
C16 N23 1.286 . S
C17 H12 0.930 . S
C17 C18 1.397 . S
C17 C19 1.361 . S
C18 C17 1.397 . S
C18 C22 1.390 . S
C19 C17 1.361 . S
C19 C20 1.393 . S
C19 N23 1.413 . S
C20 H13 0.930 . S
C20 C19 1.393 . S
C20 C21 1.399 . S
C21 C20 1.399 . S
C21 C22 1.381 . S
C22 H14 0.930 . S
C22 C18 1.390 . S
C22 C21 1.381 . S
N23 C16 1.286 . S
N23 C19 1.413 . S
H24 C29 0.930 . S
H25 C32 0.930 . S
H26 C34 0.930 . S
H27 C28 1.016 . S
C28 H27 1.016 . S
C28 N35 1.286 . S
C29 H24 0.930 . S
C29 C30 1.397 . S
C29 C31 1.361 . S
C30 C29 1.397 . S
C30 C34 1.390 . S
C31 C29 1.361 . S
C31 C32 1.393 . S
C31 N35 1.413 . S
C32 H25 0.930 . S
C32 C31 1.393 . S
C32 C33 1.399 . S
C33 C32 1.399 . S
C33 C34 1.381 . S
C34 H26 0.930 . S
C34 C30 1.390 . S
C34 C33 1.381 . S
N35 C28 1.286 . S
N35 C31 1.413 . S
H36 C41 0.930 . S
H37 C44 0.930 . S
H38 C46 0.930 . S
H39 C40 1.016 . S
C40 H39 1.016 . S
C40 N47 1.286 . S
C41 H36 0.930 . S
C41 C42 1.397 . S
C41 C43 1.361 . S
C42 C41 1.397 . S
C42 C46 1.390 . S
C43 C41 1.361 . S
C43 C44 1.393 . S
C43 N47 1.413 . S
C44 H37 0.930 . S
C44 C43 1.393 . S
C44 C45 1.399 . S
C45 C44 1.399 . S
C45 C46 1.381 . S
C46 H38 0.930 . S
C46 C42 1.390 . S
C46 C45 1.381 . S
N47 C40 1.286 . S
N47 C43 1.413 . S
H48 C53 0.930 . S
H49 C56 0.930 . S
H50 C58 0.930 . S
H51 C52 1.016 . S
C52 H51 1.016 . S
C52 N59 1.286 . S
C53 H48 0.930 . S
C53 C54 1.397 . S
C53 C55 1.361 . S
C54 C53 1.397 . S
C54 C58 1.390 . S
C55 C53 1.361 . S
C55 C56 1.393 . S
C55 N59 1.413 . S
C56 H49 0.930 . S
C56 C55 1.393 . S
C56 C57 1.399 . S
C57 C56 1.399 . S
C57 C58 1.381 . S
C58 H50 0.930 . S
C58 C54 1.390 . S
C58 C57 1.381 . S
N59 C52 1.286 . S
N59 C55 1.413 . S
H60 C65 0.930 . S
H61 C68 0.930 . S
H62 C70 0.930 . S
H63 C64 1.016 . S
C64 H63 1.016 . S
C64 N71 1.286 . S
C65 H60 0.930 . S
C65 C66 1.397 . S
C65 C67 1.361 . S
C66 C65 1.397 . S
C66 C70 1.390 . S
C67 C65 1.361 . S
C67 C68 1.393 . S
C67 N71 1.413 . S
C68 H61 0.930 . S
C68 C67 1.393 . S
C68 C69 1.399 . S
C69 C68 1.399 . S
C69 C70 1.381 . S
C70 H62 0.930 . S
C70 C66 1.390 . S
C70 C69 1.381 . S
N71 C64 1.286 . S
N71 C67 1.413 . S
H72 C77 0.930 . S
H73 C80 0.930 . S
H74 C82 0.930 . S
H75 C76 1.016 . S
C76 H75 1.016 . S
C76 N83 1.286 . S
C77 H72 0.930 . S
C77 C78 1.397 . S
C77 C79 1.361 . S
C78 C77 1.397 . S
C78 C82 1.390 . S
C79 C77 1.361 . S
C79 C80 1.393 . S
C79 N83 1.413 . S
C80 H73 0.930 . S
C80 C79 1.393 . S
C80 C81 1.399 . S
C81 C80 1.399 . S
C81 C82 1.381 . S
C82 H74 0.930 . S
C82 C78 1.390 . S
C82 C81 1.381 . S
N83 C76 1.286 . S
N83 C79 1.413 . S
H84 C89 0.930 . S
H85 C92 0.930 . S
H86 C94 0.930 . S
H87 C88 1.016 . S
C88 H87 1.016 . S
C88 N95 1.286 . S
C89 H84 0.930 . S
C89 C90 1.397 . S
C89 C91 1.361 . S
C90 C89 1.397 . S
C90 C94 1.390 . S
C91 C89 1.361 . S
C91 C92 1.393 . S
C91 N95 1.413 . S
C92 H85 0.930 . S
C92 C91 1.393 . S
C92 C93 1.399 . S
C93 C92 1.399 . S
C93 C94 1.381 . S
C94 H86 0.930 . S
C94 C90 1.390 . S
C94 C93 1.381 . S
N95 C88 1.286 . S
N95 C91 1.413 . S
Zn96 O102 1.969 1_545 S
Zn96 O103 1.965 1_445 S
Zn96 O107 2.024 . S
Zn96 O112 1.969 . S
Zn97 O104 1.969 . S
Zn97 O110 1.969 1_565 S
Zn97 O111 1.965 1_665 S
Zn97 O113 2.024 . S
C98 O99 1.229 . S
C98 O107 1.058 . S
O99 C98 1.229 . S
C100 O101 1.229 . S
C100 O113 1.058 . S
O101 C100 1.229 . S
O102 Zn96 1.969 1_565 S
O102 C105 1.267 . S
O103 Zn96 1.965 1_665 S
O103 C114 1.260 . S
O104 Zn97 1.969 . S
O104 C114 1.258 . S
C105 O102 1.267 . S
C105 O106 1.228 . S
O106 C105 1.228 . S
O107 Zn96 2.024 . S
O107 C98 1.058 . S
C108 O109 1.228 . S
C108 O110 1.267 . S
O109 C108 1.228 . S
O110 Zn97 1.969 1_545 S
O110 C108 1.267 . S
O111 Zn97 1.965 1_445 S
O111 C115 1.260 . S
O112 Zn96 1.969 . S
O112 C115 1.258 . S
O113 Zn97 2.024 . S
O113 C100 1.058 . S
C114 O103 1.260 . S
C114 O104 1.258 . S
C115 O111 1.260 . S
C115 O112 1.258 . S
Zn116 O122 1.969 . S
Zn116 O123 1.965 1_565 S
Zn116 O127 2.024 . S
Zn116 O132 1.969 1_556 S
Zn117 O124 1.969 . S
Zn117 O130 1.969 . S
Zn117 O131 1.965 1_545 S
Zn117 O133 2.024 . S
C118 O119 1.229 . S
C118 O127 1.058 . S
O119 C118 1.229 . S
C120 O121 1.229 . S
C120 O133 1.058 . S
O121 C120 1.229 . S
O122 Zn116 1.969 . S
O122 C125 1.267 . S
O123 Zn116 1.965 1_545 S
O123 C134 1.260 . S
O124 Zn117 1.969 . S
O124 C134 1.258 1_554 S
C125 O122 1.267 . S
C125 O126 1.228 . S
O126 C125 1.228 . S
O127 Zn116 2.024 . S
O127 C118 1.058 . S
C128 O129 1.228 . S
C128 O130 1.267 . S
O129 C128 1.228 . S
O130 Zn117 1.969 . S
O130 C128 1.267 . S
O131 Zn117 1.965 1_565 S
O131 C135 1.260 . S
O132 Zn116 1.969 1_554 S
O132 C135 1.258 . S
O133 Zn117 2.024 . S
O133 C120 1.058 . S
C134 O123 1.260 . S
C134 O124 1.258 1_556 S
C135 O131 1.260 . S
C135 O132 1.258 . S
Zn136 O142 1.969 . S
Zn136 O143 1.965 . S
Zn136 O147 2.024 . S
Zn136 O152 1.969 . S
Zn137 O144 1.969 . S
Zn137 O150 1.969 . S
Zn137 O151 1.965 . S
Zn137 O153 2.024 . S
C138 O139 1.229 . S
C138 O147 1.058 . S
O139 C138 1.229 . S
C140 O141 1.229 . S
C140 O153 1.058 . S
O141 C140 1.229 . S
O142 Zn136 1.969 . S
O142 C145 1.267 . S
O143 Zn136 1.965 . S
O143 C154 1.260 . S
O144 Zn137 1.969 . S
O144 C154 1.258 . S
C145 O142 1.267 . S
C145 O146 1.228 . S
O146 C145 1.228 . S
O147 Zn136 2.024 . S
O147 C138 1.058 . S
C148 O149 1.228 . S
C148 O150 1.267 . S
O149 C148 1.228 . S
O150 Zn137 1.969 . S
O150 C148 1.267 . S
O151 Zn137 1.965 . S
O151 C155 1.260 . S
O152 Zn136 1.969 . S
O152 C155 1.258 . S
O153 Zn137 2.024 . S
O153 C140 1.058 . S
C154 O143 1.260 . S
C154 O144 1.258 . S
C155 O151 1.260 . S
C155 O152 1.258 . S
Zn156 O162 1.969 . S
Zn156 O163 1.965 1_556 S
Zn156 O167 2.024 . S
Zn156 O172 1.969 1_655 S
Zn157 O164 1.969 . S
Zn157 O170 1.969 . S
Zn157 O171 1.965 1_554 S
Zn157 O173 2.024 . S
C158 O159 1.229 . S
C158 O167 1.058 . S
O159 C158 1.229 . S
C160 O161 1.229 . S
C160 O173 1.058 . S
O161 C160 1.229 . S
O162 Zn156 1.969 . S
O162 C165 1.267 . S
O163 Zn156 1.965 1_554 S
O163 C174 1.260 . S
O164 Zn157 1.969 . S
O164 C174 1.258 1_455 S
C165 O162 1.267 . S
C165 O166 1.228 . S
O166 C165 1.228 . S
O167 Zn156 2.024 . S
O167 C158 1.058 . S
C168 O169 1.228 . S
C168 O170 1.267 . S
O169 C168 1.228 . S
O170 Zn157 1.969 . S
O170 C168 1.267 . S
O171 Zn157 1.965 1_556 S
O171 C175 1.260 . S
O172 Zn156 1.969 1_455 S
O172 C175 1.258 . S
O173 Zn157 2.024 . S
O173 C160 1.058 . S
C174 O163 1.260 . S
C174 O164 1.258 1_655 S
C175 O171 1.260 . S
C175 O172 1.258 . S
C6 C115 1.677 . S
C18 C118 1.277 . S
C154 C28 2.245 . S
C40 C174 1.531 . S
C128 C9 1.923 . S
C105 C16 1.531 . S
C158 C30 1.662 . S
C138 C42 1.228 . S
C4 C168 1.349 . S
C134 C33 2.048 . S
C45 C100 1.491 . S
C21 C148 1.391 . S
C114 C57 1.737 . S
C66 C120 1.234 . S
C76 C155 2.259 . S
C88 C175 1.501 . S
C54 C125 1.891 . S
C108 C64 1.689 . S
C160 C78 1.609 . S
C140 C93 1.316 . S
C52 C165 1.270 . S
C135 C81 2.061 . S
C98 C90 1.419 . S
C69 C145 1.428 . S
