# Generated by pormake.
# Topology rtl, (3,6)-cn, num edge types: 1
# Building blocks:
#     Node 0, Type 0, BuildingBlock: BETDIP_clean_linker_0, # of connection points: 3
#     Node 1, Type 0, BuildingBlock: BETDIP_clean_linker_0, # of connection points: 3
#     Node 2, Type 0, BuildingBlock: BETDIP_clean_linker_0, # of connection points: 3
#     Node 3, Type 0, BuildingBlock: BETDIP_clean_linker_0, # of connection points: 3
#     Node 4, Type 1, BuildingBlock: KUMBUR_clean_sbu_1, # of connection points: 6
#     Node 5, Type 1, BuildingBlock: KUMBUR_clean_sbu_1, # of connection points: 6
#     Edge 6, Type (0, 1), None
#     Edge 7, Type (0, 1), None
#     Edge 8, Type (0, 1), None
#     Edge 9, Type (0, 1), None
#     Edge 10, Type (0, 1), None
#     Edge 11, Type (0, 1), None
#     Edge 12, Type (0, 1), None
#     Edge 13, Type (0, 1), None
#     Edge 14, Type (0, 1), None
#     Edge 15, Type (0, 1), None
#     Edge 16, Type (0, 1), None
#     Edge 17, Type (0, 1), None
# Relax obj value: 0.058
# Max RMSD: 0.288
# Mean RMSD: 0.201
data_MOF--net-rtl--node1-KUMBUR_clean_sbu_1--node2-BETDIP_clean_linker_0--edge1-none
_symmetry_space_group_name_H-M    P1
_symmetry_Int_Tables_number       1
_symmetry_cell_setting            triclinic
loop_
_symmetry_equiv_pos_as_xyz
'x, y, z'
_cell_length_a     15.851763
_cell_length_b     16.764041
_cell_length_c     14.041958
_cell_angle_alpha  66.259523
_cell_angle_beta   96.517629
_cell_angle_gamma 92.754132
loop_
_atom_site_label
_atom_site_type_symbol
_atom_site_fract_x
_atom_site_fract_y
_atom_site_fract_z
_atom_type_partial_charge
H0 H 0.20065 0.79956 0.82863 0.0
H1 H 0.22461 0.74612 0.15478 0.0
H2 H 0.05944 0.94895 0.93807 0.0
H3 H 0.35089 0.6916 0.14875 0.0
C4 C 0.35019 0.67253 0.08328 0.0
C5 C 0.18541 0.81598 0.89023 0.0
C6 C 0.13105 0.88547 0.86832 0.0
C7 C 0.2234 0.76817 0.99051 0.0
C8 C 0.20023 0.78558 0.07507 0.0
C9 C 0.13995 0.85132 0.05595 0.0
C10 C 0.10716 0.90111 0.95226 0.0
N11 N 0.28447 0.70449 0.00048 0.0
H12 H 0.70473 0.76765 0.8599 0.0
H13 H 0.77144 0.71337 0.60462 0.0
H14 H 0.58879 0.55369 0.80259 0.0
H15 H 0.88798 0.78445 0.61562 0.0
C16 C 0.87432 0.83401 0.64296 0.0
C17 C 0.69866 0.72771 0.81616 0.0
C18 C 0.64205 0.65605 0.84362 0.0
C19 C 0.74745 0.7487 0.73107 0.0
C20 C 0.73605 0.69827 0.67106 0.0
C21 C 0.67831 0.62806 0.69586 0.0
C22 C 0.63223 0.60797 0.78208 0.0
N23 N 0.80635 0.82043 0.70732 0.0
H24 H 0.81434 0.25274 0.01127 0.0
H25 H 0.81798 0.21978 0.33265 0.0
H26 H 0.98122 0.06744 0.24982 0.0
H27 H 0.75716 0.34779 0.25611 0.0
C28 C 0.71919 0.35534 0.18435 0.0
C29 C 0.83748 0.22008 0.09322 0.0
C30 C 0.90227 0.1579 0.12368 0.0
C31 C 0.80581 0.24413 0.1673 0.0
C32 C 0.84058 0.20304 0.27405 0.0
C33 C 0.90396 0.13792 0.3054 0.0
C34 C 0.93209 0.1156 0.22889 0.0
N35 N 0.73981 0.30894 0.13121 0.0
H36 H 0.35265 0.30369 0.32299 0.0
H37 H 0.27695 0.35705 0.57648 0.0
H38 H 0.47492 0.50708 0.39861 0.0
H39 H 0.2101 0.23259 0.61664 0.0
C40 C 0.19751 0.21368 0.55117 0.0
C41 C 0.35994 0.34047 0.37121 0.0
C42 C 0.42215 0.40597 0.35368 0.0
C43 C 0.30701 0.32114 0.45131 0.0
C44 C 0.3178 0.36858 0.51565 0.0
C45 C 0.37966 0.43509 0.49794 0.0
C46 C 0.43034 0.45345 0.41611 0.0
N47 N 0.24312 0.25555 0.4622 0.0
Tb48 Tb 0.11045 0.97507 0.51572 0.0
C49 C 0.91603 0.28345 0.54309 0.0
N50 N 0.98297 0.23492 0.60533 0.0
C51 C 0.0509 0.36335 0.6138 0.0
C52 C 0.91551 0.37459 0.51162 0.0
C53 C 0.04714 0.27286 0.64634 0.0
C54 C 0.98544 0.41469 0.54459 0.0
C55 C 0.76974 0.28743 0.46819 0.0
C56 C 0.8438 0.2404 0.52051 0.0
C57 C 0.77111 0.37832 0.43246 0.0
C58 C 0.84352 0.42208 0.45324 0.0
Tb59 Tb 0.96641 0.08865 0.65157 0.0
N60 N 0.84516 0.15191 0.55448 0.0
C61 C 0.69647 0.24175 0.45336 0.0
C62 C 0.77376 0.10647 0.54291 0.0
C63 C 0.69848 0.15085 0.49118 0.0
H64 H 0.09515 0.23372 0.70526 0.0
H65 H 0.64195 0.115 0.48117 0.0
H66 H 0.07422 0.76158 0.62486 0.0
H67 H 0.40911 0.15121 0.45686 0.0
H68 H 0.7744 0.03617 0.57419 0.0
H69 H 0.63808 0.27597 0.4134 0.0
H70 H 0.25748 0.12655 0.416 0.0
H71 H 0.10319 0.39321 0.64424 0.0
H72 H 0.71617 0.41504 0.38859 0.0
H73 H 0.84224 0.4923 0.42702 0.0
H74 H 0.15599 0.62855 0.73733 0.0
H75 H 0.98741 0.48467 0.52148 0.0
H76 H 0.49358 0.03542 0.60007 0.0
N77 N 0.17836 0.84755 0.62185 0.0
C78 C 0.26214 0.85491 0.65111 0.0
C79 C 0.18646 0.69179 0.71374 0.0
C80 C 0.31116 0.78063 0.71485 0.0
C81 C 0.14027 0.76716 0.6507 0.0
C82 C 0.27199 0.69862 0.7467 0.0
N83 N 0.25134 1.00576 0.54664 0.0
C84 C 0.29175 0.07863 0.48375 0.0
C85 C 0.3874 0.94579 0.63786 0.0
C86 C 0.29921 0.93686 0.61457 0.0
C87 C 0.42605 0.02597 0.5851 0.0
C88 C 0.37849 0.09169 0.50476 0.0
H89 H 0.30707 0.64034 0.79682 0.0
H90 H 0.43512 0.73505 0.79654 0.0
H91 H 0.50257 0.87905 0.72724 0.0
O92 O 0.12009 1.02176 0.35248 0.0
O93 O 0.10344 0.91017 0.68604 0.0
O94 O 0.08527 0.0236 0.73257 0.0
O95 O 0.14753 0.89045 0.45108 0.0
O96 O 0.12799 0.11526 0.48916 0.0
O97 O 0.10203 0.11747 0.64544 0.0
O98 O 0.93445 1.01087 0.80403 0.0
O99 O 0.94685 0.13372 0.47931 0.0
O100 O 0.98209 1.01816 0.44148 0.0
O101 O 0.90788 0.14639 0.73437 0.0
O102 O 0.91236 0.96399 0.65468 0.0
O103 O 0.9905 0.90439 0.5647 0.0
C104 C 0.09992 0.9409 0.75818 0.0
C105 C 0.09673 0.91515 0.27982 0.0
C106 C 0.09981 0.86132 0.14164 0.0
C107 C 1.01412 0.83795 0.15141 0.0
C108 C 1.01101 0.89097 0.28727 0.0
C109 C 0.96995 0.85286 0.22298 0.0
C110 C 0.14144 0.90019 0.20666 0.0
C111 C 0.14096 0.1488 0.56018 0.0
C112 C 0.14143 0.94683 0.35592 0.0
C113 C 0.39706 0.79069 0.74538 0.0
C114 C 0.43523 0.87302 0.7068 0.0
C115 C 0.94586 0.09434 0.41486 0.0
C116 C 0.95524 0.09411 0.90755 0.0
C117 C 0.94848 0.14321 0.04703 0.0
C118 C 0.03651 0.15823 0.04953 0.0
C119 C 0.04307 0.11078 0.91034 0.0
C120 C 0.90773 0.11092 0.97584 0.0
C121 C 0.08364 0.14149 0.98205 0.0
C122 C 0.92723 0.90325 0.62064 0.0
C123 C 0.9116 0.07773 0.8197 0.0
H124 H 0.98146 0.80821 0.10277 0.0
H125 H 0.9763 0.90016 0.34423 0.0
H126 H 0.90381 0.83417 0.22907 0.0
H127 H 0.20768 0.9187 0.20034 0.0
H128 H 0.06841 0.18386 0.10335 0.0
H129 H 0.08011 0.10206 0.85527 0.0
H130 H 0.83959 0.10055 0.9723 0.0
H131 H 0.15129 0.15411 0.98382 0.0
Tb132 Tb 0.46551 0.47092 0.01719 0.0
C133 C 0.75354 0.7106 0.07211 0.0
N134 N 0.7424 0.62429 0.13059 0.0
C135 C 0.88594 0.59504 0.11669 0.0
C136 C 0.8311 0.742 0.03057 0.0
C137 C 0.80781 0.56686 0.15618 0.0
C138 C 0.89724 0.68269 0.05227 0.0
C139 C 0.69368 0.85594 0.98593 0.0
C140 C 0.68443 0.76616 0.04731 0.0
C141 C 0.77146 0.88789 0.94609 0.0
C142 C 0.83944 0.83085 0.96685 0.0
Tb143 Tb 0.61081 0.58551 0.1843 0.0
N144 N 0.60829 0.73214 0.08183 0.0
C145 C 0.62422 0.91081 0.96537 0.0
C146 C 0.54285 0.78694 0.06914 0.0
C147 C 0.54896 0.87631 0.00868 0.0
H148 H 0.79972 0.49948 0.20703 0.0
H149 H 0.49613 0.91885 -0.00249 0.0
H150 H 0.27208 0.54976 -0.00582 0.0
H151 H 0.57876 0.13787 0.16367 0.0
H152 H 0.48713 0.76388 0.10907 0.0
H153 H 0.62875 0.9801 0.91856 0.0
H154 H 0.58563 0.29545 0.06517 0.0
H155 H 0.9373 0.54914 0.1357 0.0
H156 H 0.77898 0.95636 0.89764 0.0
H157 H 0.89829 0.85583 0.93331 0.0
H158 H 0.13198 0.49316 0.05139 0.0
H159 H 0.95749 0.70402 0.02048 0.0
H160 H 0.44711 0.07024 0.24069 0.0
N161 N 0.33227 0.42593 0.06491 0.0
C162 C 0.32137 0.33845 0.11522 0.0
C163 C 0.18491 0.449 0.07081 0.0
C164 C 0.24184 0.303 0.1474 0.0
C165 C 0.2649 0.48116 0.04005 0.0
C166 C 0.17342 0.35955 0.12542 0.0
N167 N 0.46705 0.32159 0.10493 0.0
C168 C 0.53153 0.26906 0.10758 0.0
C169 C 0.3819 0.1935 0.18776 0.0
C170 C 0.39122 0.28476 0.13716 0.0
C171 C 0.45163 0.14054 0.20194 0.0
C172 C 0.52626 0.17849 0.1596 0.0
H173 H 0.11135 0.33476 0.14905 0.0
H174 H 0.17354 0.18427 0.22882 0.0
H175 H 0.2947 0.08799 0.25912 0.0
O176 O 0.49558 0.43109 0.90005 0.0
O177 O 0.42919 0.44352 0.17277 0.0
O178 O 0.55071 0.45951 0.27195 0.0
O179 O 0.37326 0.48248 0.89271 0.0
O180 O 0.60347 0.43524 0.06169 0.0
O181 O 0.63964 0.45061 0.21807 0.0
O182 O 0.58594 0.63988 0.28986 0.0
O183 O 0.64458 0.60078 0.03015 0.0
O184 O 0.5176 0.60165 0.93495 0.0
O185 O 0.70328 0.57463 0.30815 0.0
O186 O 0.47502 0.60956 0.16045 0.0
O187 O 0.42125 0.59956 0.00429 0.0
C188 C 0.47139 0.43344 0.26258 0.0
C189 C 0.4175 0.49549 0.73324 0.0
C190 C 0.39209 0.48733 0.56266 0.0
C191 C 0.40296 0.57838 0.51474 0.0
C192 C 0.42857 0.58585 0.68405 0.0
C193 C 0.42118 0.62705 0.57522 0.0
C194 C 0.39897 0.44645 0.67245 0.0
C195 C 0.65151 0.41549 0.15212 0.0
C196 C 0.42125 0.45125 0.84754 0.0
C197 C 0.23336 0.21258 0.20089 0.0
C198 C 0.30282 0.15786 0.21967 0.0
C199 C 0.59778 0.62493 0.94023 0.0
C200 C 0.65078 0.56757 0.46131 0.0
C201 C 0.6649 0.57566 0.63164 0.0
C202 C 0.64764 0.48559 0.67827 0.0
C203 C 0.63012 0.47887 0.50871 0.0
C204 C 0.66651 0.61586 0.52261 0.0
C205 C 0.6293 0.43801 0.61677 0.0
C206 C 0.41613 0.62542 0.08153 0.0
C207 C 0.65663 0.61171 0.34846 0.0
H208 H 0.39757 0.612 0.43034 0.0
H209 H 0.44286 0.62432 0.72984 0.0
H210 H 0.42973 0.69691 0.53761 0.0
H211 H 0.39145 0.37637 0.7107 0.0
H212 H 0.64794 0.45167 0.7622 0.0
H213 H 0.61338 0.44124 0.46261 0.0
H214 H 0.67849 0.68521 0.48454 0.0
H215 H 0.61415 0.36932 0.65293 0.0
loop_
_geom_bond_atom_site_label_1
_geom_bond_atom_site_label_2
_geom_bond_distance
_geom_bond_site_symmetry_2
_ccdc_geom_bond_type
H0 C5 0.930 . S
H1 C8 0.930 . S
H2 C10 0.920 1_545 S
H3 C4 1.016 . S
C4 H3 1.016 . S
C4 N11 1.286 . S
C5 H0 0.930 . S
C5 C6 1.397 . S
C5 C7 1.361 1_556 S
C6 C5 1.397 . S
C6 C10 1.390 . S
C7 C5 1.361 1_554 S
C7 C8 1.393 . S
C7 N11 1.413 . S
C8 H1 0.930 . S
C8 C7 1.393 . S
C8 C9 1.399 . S
C9 C8 1.399 . S
C9 C10 1.381 1_554 S
C10 H2 0.920 1_565 S
C10 C6 1.390 . S
C10 C9 1.381 1_556 S
N11 C4 1.286 . S
N11 C7 1.413 . S
H12 C17 0.930 . S
H13 C20 0.930 . S
H14 C22 0.930 . S
H15 C16 1.016 . S
C16 H15 1.016 . S
C16 N23 1.286 . S
C17 H12 0.930 . S
C17 C18 1.397 . S
C17 C19 1.361 . S
C18 C17 1.397 . S
C18 C22 1.390 . S
C19 C17 1.361 . S
C19 C20 1.393 . S
C19 N23 1.413 . S
C20 H13 0.930 . S
C20 C19 1.393 . S
C20 C21 1.399 . S
C21 C20 1.399 . S
C21 C22 1.381 . S
C22 H14 0.930 . S
C22 C18 1.390 . S
C22 C21 1.381 . S
N23 C16 1.286 . S
N23 C19 1.413 . S
H24 C29 0.930 . S
H25 C32 0.930 . S
H26 C34 0.930 . S
H27 C28 1.016 . S
C28 H27 1.016 . S
C28 N35 1.286 . S
C29 H24 0.930 . S
C29 C30 1.397 . S
C29 C31 1.361 . S
C30 C29 1.397 . S
C30 C34 1.390 . S
C31 C29 1.361 . S
C31 C32 1.393 . S
C31 N35 1.413 . S
C32 H25 0.930 . S
C32 C31 1.393 . S
C32 C33 1.399 . S
C33 C32 1.399 . S
C33 C34 1.381 . S
C34 H26 0.930 . S
C34 C30 1.390 . S
C34 C33 1.381 . S
N35 C28 1.286 . S
N35 C31 1.413 . S
H36 C41 0.930 . S
H37 C44 0.930 . S
H38 C46 0.930 . S
H39 C40 1.016 . S
C40 H39 1.016 . S
C40 N47 1.286 . S
C41 H36 0.930 . S
C41 C42 1.397 . S
C41 C43 1.361 . S
C42 C41 1.397 . S
C42 C46 1.390 . S
C43 C41 1.361 . S
C43 C44 1.393 . S
C43 N47 1.413 . S
C44 H37 0.930 . S
C44 C43 1.393 . S
C44 C45 1.399 . S
C45 C44 1.399 . S
C45 C46 1.381 . S
C46 H38 0.930 . S
C46 C42 1.390 . S
C46 C45 1.381 . S
N47 C40 1.286 . S
N47 C43 1.413 . S
Tb48 N77 2.617 . S
Tb48 N83 2.572 . S
Tb48 O92 2.465 . S
Tb48 O93 2.387 . S
Tb48 O95 2.428 . S
Tb48 O96 2.308 1_565 S
Tb48 O100 2.349 1_465 S
Tb48 O103 2.393 1_455 S
Tb48 C112 2.802 . S
C49 N50 1.379 . S
C49 C52 1.416 . S
C49 C56 1.424 . S
N50 C49 1.379 . S
N50 C53 1.334 1_655 S
N50 Tb59 2.617 . S
C51 C53 1.390 . S
C51 C54 1.328 1_455 S
C51 H71 0.941 . S
C52 C49 1.416 . S
C52 C54 1.416 . S
C52 C58 1.448 . S
C53 N50 1.334 1_455 S
C53 C51 1.390 . S
C53 H64 0.930 . S
C54 C51 1.328 1_655 S
C54 C52 1.416 . S
C54 H75 0.930 . S
C55 C56 1.413 . S
C55 C57 1.427 . S
C55 C61 1.416 . S
C56 C49 1.424 . S
C56 C55 1.413 . S
C56 N60 1.361 . S
C57 C55 1.427 . S
C57 C58 1.328 . S
C57 H72 0.929 . S
C58 C52 1.448 . S
C58 C57 1.328 . S
C58 H73 0.930 . S
Tb59 N50 2.617 . S
Tb59 N60 2.572 . S
Tb59 O94 2.349 1_655 S
Tb59 O97 2.393 1_655 S
Tb59 O98 2.465 . S
Tb59 O99 2.387 . S
Tb59 O101 2.428 . S
Tb59 O102 2.308 1_545 S
Tb59 C123 2.802 . S
N60 C56 1.361 . S
N60 Tb59 2.572 . S
N60 C62 1.340 . S
C61 C55 1.416 . S
C61 C63 1.332 . S
C61 H69 0.931 . S
C62 N60 1.340 . S
C62 C63 1.407 . S
C62 H68 0.930 . S
C63 C61 1.332 . S
C63 C62 1.407 . S
C63 H65 0.929 . S
H64 C53 0.930 . S
H65 C63 0.929 . S
H66 C81 0.930 1_655 S
H67 C88 0.929 . S
H68 C62 0.930 . S
H69 C61 0.931 . S
H70 C84 0.930 . S
H71 C51 0.941 . S
H72 C57 0.929 . S
H73 C58 0.930 . S
H74 C79 0.930 1_655 S
H75 C54 0.930 . S
H76 C87 0.931 . S
N77 Tb48 2.617 . S
N77 C78 1.379 . S
N77 C81 1.334 . S
C78 N77 1.379 . S
C78 C80 1.416 . S
C78 C86 1.424 . S
C79 H74 0.930 1_455 S
C79 C81 1.390 . S
C79 C82 1.339 . S
C80 C78 1.416 . S
C80 C82 1.416 . S
C80 C113 1.448 . S
C81 H66 0.930 1_455 S
C81 N77 1.334 . S
C81 C79 1.390 . S
C82 C79 1.339 . S
C82 C80 1.416 . S
C82 H89 0.930 . S
N83 Tb48 2.572 . S
N83 C84 1.340 . S
N83 C86 1.361 . S
C84 H70 0.930 . S
C84 N83 1.340 . S
C84 C88 1.407 . S
C85 C86 1.413 . S
C85 C87 1.416 . S
C85 C114 1.427 . S
C86 C78 1.424 . S
C86 N83 1.361 . S
C86 C85 1.413 . S
C87 H76 0.931 . S
C87 C85 1.416 . S
C87 C88 1.332 . S
C88 H67 0.929 . S
C88 C84 1.407 . S
C88 C87 1.332 . S
H89 C82 0.930 . S
H90 C113 0.930 . S
H91 C114 0.929 . S
O92 Tb48 2.465 . S
O92 C112 1.264 . S
O93 Tb48 2.387 . S
O93 C104 1.264 . S
O94 Tb59 2.349 1_455 S
O94 C104 1.243 1_545 S
O95 Tb48 2.428 . S
O95 C112 1.256 . S
O96 Tb48 2.308 1_545 S
O96 C111 1.266 . S
O97 Tb59 2.393 1_455 S
O97 C111 1.248 . S
O98 Tb59 2.465 . S
O98 C123 1.264 . S
O99 Tb59 2.387 . S
O99 C115 1.264 . S
O100 Tb48 2.349 1_645 S
O100 C115 1.243 . S
O101 Tb59 2.428 . S
O101 C123 1.256 . S
O102 Tb59 2.308 1_565 S
O102 C122 1.266 . S
O103 Tb48 2.393 1_655 S
O103 C122 1.248 . S
C104 O93 1.264 . S
C104 O94 1.243 1_565 S
C105 C108 1.399 . S
C105 C110 1.383 . S
C105 C112 1.496 . S
C106 C107 1.399 . S
C106 C110 1.389 . S
C107 C106 1.399 . S
C107 C109 1.380 . S
C107 H124 0.929 . S
C108 C105 1.399 . S
C108 C109 1.392 . S
C108 H125 0.929 . S
C109 C107 1.380 . S
C109 C108 1.392 . S
C109 H126 0.929 . S
C110 C105 1.383 . S
C110 C106 1.389 . S
C110 H127 0.931 . S
C111 O96 1.266 . S
C111 O97 1.248 . S
C112 Tb48 2.802 . S
C112 O92 1.264 . S
C112 O95 1.256 . S
C112 C105 1.496 . S
C113 C80 1.448 . S
C113 H90 0.930 . S
C113 C114 1.328 . S
C114 C85 1.427 . S
C114 H91 0.929 . S
C114 C113 1.328 . S
C115 O99 1.264 . S
C115 O100 1.243 . S
C116 C119 1.399 . S
C116 C120 1.383 . S
C116 C123 1.496 . S
C117 C118 1.399 . S
C117 C120 1.389 1_554 S
C118 C117 1.399 . S
C118 C121 1.380 . S
C118 H128 0.929 . S
C119 C116 1.399 . S
C119 C121 1.392 1_556 S
C119 H129 0.929 . S
C120 C116 1.383 . S
C120 C117 1.389 1_556 S
C120 H130 0.931 . S
C121 C118 1.380 . S
C121 C119 1.392 1_554 S
C121 H131 0.929 . S
C122 O102 1.266 . S
C122 O103 1.248 . S
C123 Tb59 2.802 . S
C123 O98 1.264 . S
C123 O101 1.256 . S
C123 C116 1.496 . S
H124 C107 0.929 . S
H125 C108 0.929 . S
H126 C109 0.929 . S
H127 C110 0.931 . S
H128 C118 0.929 . S
H129 C119 0.929 . S
H130 C120 0.931 . S
H131 C121 0.929 . S
Tb132 N161 2.617 1_554 S
Tb132 N167 2.572 . S
Tb132 O176 2.465 1_554 S
Tb132 O177 2.387 . S
Tb132 O179 2.428 1_554 S
Tb132 O180 2.308 . S
Tb132 O184 2.349 1_554 S
Tb132 O187 2.393 1_554 S
Tb132 C196 2.802 1_554 S
C133 N134 1.379 . S
C133 C136 1.416 . S
C133 C140 1.424 . S
N134 C133 1.379 . S
N134 C137 1.334 . S
N134 Tb143 2.617 . S
C135 C137 1.390 . S
C135 C138 1.339 . S
C135 H155 0.930 . S
C136 C133 1.416 . S
C136 C138 1.416 . S
C136 C142 1.448 . S
C137 N134 1.334 . S
C137 C135 1.390 . S
C137 H148 0.930 . S
C138 C135 1.339 . S
C138 C136 1.416 . S
C138 H159 0.930 . S
C139 C140 1.413 . S
C139 C141 1.427 . S
C139 C145 1.416 . S
C140 C133 1.424 . S
C140 C139 1.413 . S
C140 N144 1.361 . S
C141 C139 1.427 . S
C141 C142 1.328 . S
C141 H156 0.929 . S
C142 C136 1.448 . S
C142 C141 1.328 . S
C142 H157 0.930 . S
Tb143 N134 2.617 . S
Tb143 N144 2.572 . S
Tb143 O178 2.349 . S
Tb143 O181 2.393 . S
Tb143 O182 2.465 . S
Tb143 O183 2.387 . S
Tb143 O185 2.428 . S
Tb143 O186 2.308 . S
Tb143 C207 2.802 . S
N144 C140 1.361 . S
N144 Tb143 2.572 . S
N144 C146 1.340 . S
C145 C139 1.416 . S
C145 C147 1.332 . S
C145 H153 0.931 . S
C146 N144 1.340 . S
C146 C147 1.407 . S
C146 H152 0.930 . S
C147 C145 1.332 . S
C147 C146 1.407 . S
C147 H149 0.929 . S
H148 C137 0.930 . S
H149 C147 0.929 . S
H150 C165 0.930 . S
H151 C172 0.929 . S
H152 C146 0.930 . S
H153 C145 0.931 . S
H154 C168 0.930 . S
H155 C135 0.930 . S
H156 C141 0.929 . S
H157 C142 0.930 . S
H158 C163 0.930 . S
H159 C138 0.930 . S
H160 C171 0.931 . S
N161 Tb132 2.617 1_556 S
N161 C162 1.379 1_556 S
N161 C165 1.334 . S
C162 N161 1.379 1_554 S
C162 C164 1.416 . S
C162 C170 1.424 . S
C163 H158 0.930 . S
C163 C165 1.390 . S
C163 C166 1.339 1_556 S
C164 C162 1.416 . S
C164 C166 1.416 . S
C164 C197 1.448 . S
C165 H150 0.930 . S
C165 N161 1.334 . S
C165 C163 1.390 . S
C166 C163 1.339 1_554 S
C166 C164 1.416 . S
C166 H173 0.930 . S
N167 Tb132 2.572 . S
N167 C168 1.340 . S
N167 C170 1.361 . S
C168 H154 0.930 . S
C168 N167 1.340 . S
C168 C172 1.407 . S
C169 C170 1.413 . S
C169 C171 1.416 . S
C169 C198 1.427 . S
C170 C162 1.424 . S
C170 N167 1.361 . S
C170 C169 1.413 . S
C171 H160 0.931 . S
C171 C169 1.416 . S
C171 C172 1.332 . S
C172 H151 0.929 . S
C172 C168 1.407 . S
C172 C171 1.332 . S
H173 C166 0.930 . S
H174 C197 0.930 . S
H175 C198 0.929 . S
O176 Tb132 2.465 1_556 S
O176 C196 1.264 . S
O177 Tb132 2.387 . S
O177 C188 1.264 . S
O178 Tb143 2.349 . S
O178 C188 1.243 . S
O179 Tb132 2.428 1_556 S
O179 C196 1.256 . S
O180 Tb132 2.308 . S
O180 C195 1.266 . S
O181 Tb143 2.393 . S
O181 C195 1.248 . S
O182 Tb143 2.465 . S
O182 C207 1.264 . S
O183 Tb143 2.387 . S
O183 C199 1.264 1_554 S
O184 Tb132 2.349 1_556 S
O184 C199 1.243 . S
O185 Tb143 2.428 . S
O185 C207 1.256 . S
O186 Tb143 2.308 . S
O186 C206 1.266 . S
O187 Tb132 2.393 1_556 S
O187 C206 1.248 1_556 S
C188 O177 1.264 . S
C188 O178 1.243 . S
C189 C192 1.399 . S
C189 C194 1.383 . S
C189 C196 1.496 . S
C190 C191 1.399 . S
C190 C194 1.389 . S
C191 C190 1.399 . S
C191 C193 1.380 . S
C191 H208 0.929 . S
C192 C189 1.399 . S
C192 C193 1.392 . S
C192 H209 0.929 . S
C193 C191 1.380 . S
C193 C192 1.392 . S
C193 H210 0.929 . S
C194 C189 1.383 . S
C194 C190 1.389 . S
C194 H211 0.931 . S
C195 O180 1.266 . S
C195 O181 1.248 . S
C196 Tb132 2.802 1_556 S
C196 O176 1.264 . S
C196 O179 1.256 . S
C196 C189 1.496 . S
C197 C164 1.448 . S
C197 H174 0.930 . S
C197 C198 1.328 . S
C198 C169 1.427 . S
C198 H175 0.929 . S
C198 C197 1.328 . S
C199 O183 1.264 1_556 S
C199 O184 1.243 . S
C200 C203 1.399 . S
C200 C204 1.383 . S
C200 C207 1.496 . S
C201 C202 1.399 . S
C201 C204 1.389 . S
C202 C201 1.399 . S
C202 C205 1.380 . S
C202 H212 0.929 . S
C203 C200 1.399 . S
C203 C205 1.392 . S
C203 H213 0.929 . S
C204 C200 1.383 . S
C204 C201 1.389 . S
C204 H214 0.931 . S
C205 C202 1.380 . S
C205 C203 1.392 . S
C205 H215 0.929 . S
C206 O186 1.266 . S
C206 O187 1.248 1_554 S
C207 Tb143 2.802 . S
C207 O182 1.264 . S
C207 O185 1.256 . S
C207 C200 1.496 . S
H208 C191 0.929 . S
H209 C192 0.929 . S
H210 C193 0.929 . S
H211 C194 0.931 . S
H212 C202 0.929 . S
H213 C203 0.929 . S
H214 C204 0.931 . S
H215 C205 0.929 . S
C111 C40 1.713 . S
C4 C206 1.877 . S
C16 C122 1.720 . S
C28 C195 1.667 . S
C106 C9 1.347 . S
C199 C18 1.849 . S
C33 C115 1.826 . S
C45 C190 1.461 . S
C201 C21 1.446 . S
C117 C30 1.257 . S
C188 C42 1.711 . S
C6 C104 1.746 . S
