# Generated by pormake.
# Topology tsx, (6,3)-cn, num edge types: 1
# Building blocks:
#     Node 0, Type 0, BuildingBlock: MIDCAF_clean_sbu_0, # of connection points: 6
#     Node 1, Type 0, BuildingBlock: MIDCAF_clean_sbu_0, # of connection points: 6
#     Node 2, Type 1, BuildingBlock: BETDIP_clean_linker_0, # of connection points: 3
#     Node 3, Type 1, BuildingBlock: BETDIP_clean_linker_0, # of connection points: 3
#     Node 4, Type 1, BuildingBlock: BETDIP_clean_linker_0, # of connection points: 3
#     Node 5, Type 1, BuildingBlock: BETDIP_clean_linker_0, # of connection points: 3
#     Edge 6, Type (0, 1), BuildingBlock: OJICUG_clean_linker_0, # of connection points: 2
#     Edge 7, Type (0, 1), BuildingBlock: OJICUG_clean_linker_0, # of connection points: 2
#     Edge 8, Type (0, 1), BuildingBlock: OJICUG_clean_linker_0, # of connection points: 2
#     Edge 9, Type (0, 1), BuildingBlock: OJICUG_clean_linker_0, # of connection points: 2
#     Edge 10, Type (0, 1), BuildingBlock: OJICUG_clean_linker_0, # of connection points: 2
#     Edge 11, Type (0, 1), BuildingBlock: OJICUG_clean_linker_0, # of connection points: 2
#     Edge 12, Type (0, 1), BuildingBlock: OJICUG_clean_linker_0, # of connection points: 2
#     Edge 13, Type (0, 1), BuildingBlock: OJICUG_clean_linker_0, # of connection points: 2
#     Edge 14, Type (0, 1), BuildingBlock: OJICUG_clean_linker_0, # of connection points: 2
#     Edge 15, Type (0, 1), BuildingBlock: OJICUG_clean_linker_0, # of connection points: 2
#     Edge 16, Type (0, 1), BuildingBlock: OJICUG_clean_linker_0, # of connection points: 2
#     Edge 17, Type (0, 1), BuildingBlock: OJICUG_clean_linker_0, # of connection points: 2
# Relax obj value: 0.080
# Max RMSD: 0.147
# Mean RMSD: 0.109
data_MOF--net-tsx--node1-MIDCAF_clean_sbu_0--node2-BETDIP_clean_linker_0--edge1-OJICUG_clean_linker_0
_symmetry_space_group_name_H-M    P1
_symmetry_Int_Tables_number       1
_symmetry_cell_setting            triclinic
loop_
_symmetry_equiv_pos_as_xyz
'x, y, z'
_cell_length_a     13.859913
_cell_length_b     15.746962
_cell_length_c     26.601528
_cell_angle_alpha  96.783995
_cell_angle_beta   111.10898
_cell_angle_gamma 91.081049
loop_
_atom_site_label
_atom_site_type_symbol
_atom_site_fract_x
_atom_site_fract_y
_atom_site_fract_z
_atom_type_partial_charge
Zn0 Zn 0.99604 0.89987 0.94802 0.0
Zn1 Zn 0.30628 0.0142 0.08267 0.0
Zn2 Zn 0.13612 0.97051 0.01433 0.0
C3 C 0.23909 0.1545 0.02434 0.0
C4 C 0.32332 0.86812 0.01371 0.0
O5 O 1.02623 0.90761 0.0436 0.0
O6 O 0.98029 0.79462 0.98075 0.0
C7 C 0.94605 0.06982 0.9681 0.0
O8 O 0.1553 0.10547 0.00083 0.0
O9 O 0.31696 0.12809 0.05952 0.0
O10 O 0.37603 0.91855 0.05588 0.0
O11 O 0.2267 0.87681 0.99009 0.0
O12 O 0.90103 -0.00431 0.95824 0.0
O13 O 0.04482 0.07574 0.97858 0.0
O14 O 0.10428 0.03852 0.94321 0.0
O15 O 0.0615 0.91307 0.89205 0.0
C16 C 0.08999 -0.00826 0.89774 0.0
O17 O 0.10755 0.96327 0.08762 0.0
O18 O 0.26314 0.00901 0.14688 0.0
C19 C 0.97815 0.83312 0.02493 0.0
C20 C 0.1701 -0.01616 0.13673 0.0
Zn21 Zn 0.81487 0.49305 0.56694 0.0
Zn22 Zn 0.48935 0.40665 0.44621 0.0
Zn23 Zn 0.63385 0.47122 0.50831 0.0
C24 C 0.57241 0.4988 0.39097 0.0
C25 C 0.45133 0.57772 0.47278 0.0
O26 O 0.62053 0.46553 0.58514 0.0
O27 O 0.78547 0.49611 0.63646 0.0
C28 C 0.78601 0.342 0.49151 0.0
O29 O 0.59786 0.5433 0.43822 0.0
O30 O 0.53833 0.42137 0.38439 0.0
O31 O 0.40498 0.50441 0.4643 0.0
O32 O 0.54791 0.58168 0.4783 0.0
O33 O 0.85409 0.3839 0.53315 0.0
O34 O 0.69485 0.36781 0.4734 0.0
O35 O 0.66388 0.60517 0.49873 0.0
O36 O 0.8333 0.60591 0.5426 0.0
C37 C 0.75491 0.64394 0.51643 0.0
O38 O 0.53071 0.41247 0.54337 0.0
O39 O 0.47966 0.30086 0.47958 0.0
C40 C 0.69268 0.48054 0.63202 0.0
C41 C 0.48245 0.33795 0.52512 0.0
H42 H 0.12062 0.87512 0.47163 0.0
H43 H 0.98455 0.00188 0.32976 0.0
H44 H 0.22622 0.83252 0.33758 0.0
H45 H 0.83702 -0.00945 0.36006 0.0
C46 C 0.88727 0.02121 0.40003 0.0
C47 C 0.1156 0.88643 0.43138 0.0
C48 C 0.1828 0.84751 0.4081 0.0
C49 C 0.04257 0.94105 0.40299 0.0
C50 C 1.03781 0.95747 0.35137 0.0
C51 C 0.1037 0.91799 0.32788 0.0
C52 C 0.17533 0.86295 0.35611 0.0
N53 N 0.98041 -0.01596 0.4287 0.0
H54 H 0.9815 0.01794 0.52957 0.0
H55 H 0.13779 0.14786 0.69138 0.0
H56 H 0.89398 0.95499 0.66082 0.0
H57 H 0.18383 0.24732 0.64805 0.0
C58 C 0.19585 0.20867 0.61446 0.0
C59 C 0.98805 0.0299 0.57154 0.0
C60 C 0.92533 -0.01938 0.59003 0.0
C61 C 0.0629 0.09182 0.60724 0.0
C62 C 0.07641 0.104 0.6626 0.0
C63 C 1.01443 0.05571 0.68186 0.0
C64 C 0.93762 -0.0044 0.64523 0.0
N65 N 0.12998 0.1342 0.58713 0.0
H66 H 0.64421 0.39478 0.97305 0.0
H67 H 0.54486 0.53814 0.83678 0.0
H68 H 0.73257 0.32545 0.83492 0.0
H69 H 0.61427 0.64529 0.92332 0.0
C70 C 0.55254 0.62026 0.93478 0.0
C71 C 0.64058 0.40416 0.93272 0.0
C72 C 0.69476 0.3521 0.9067 0.0
C73 C 0.58793 0.47255 0.90794 0.0
C74 C 0.5859 0.48589 0.85625 0.0
C75 C 0.6365 0.43212 0.82956 0.0
C76 C 0.69056 0.36556 0.85492 0.0
N77 N 0.54189 0.53075 0.93609 0.0
H78 H 0.45624 0.52456 0.02236 0.0
H79 H 0.61734 0.6559 0.18351 0.0
H80 H 0.37131 0.46677 0.15559 0.0
H81 H 0.65872 0.75482 0.13783 0.0
C82 C 0.67364 0.71386 0.10596 0.0
C83 C 0.46378 0.53751 0.06454 0.0
C84 C 0.40075 0.49019 0.08392 0.0
C85 C 0.54023 0.59881 0.0997 0.0
C86 C 0.55495 0.61236 0.15527 0.0
C87 C 0.49295 0.56586 0.17541 0.0
C88 C 0.41479 0.50633 0.13934 0.0
N89 N 0.60794 0.63915 0.0791 0.0
C90 C 0.33074 0.27127 0.00234 0.0
C91 C 0.24698 0.24424 0.01567 0.0
H92 H 0.44525 0.37126 0.01326 0.0
C93 C 0.19847 0.30512 0.03961 0.0
H94 H 0.37027 0.22491 0.98462 0.0
C95 C 0.24164 0.3895 0.05641 0.0
C96 C 0.33438 0.41364 0.04986 0.0
H97 H 0.13505 0.28534 0.05125 0.0
H98 H 0.20814 0.43345 0.07908 0.0
C99 C 0.37397 0.35535 0.01909 0.0
C100 C 0.33391 0.71995 0.97002 0.0
C101 C 0.37763 0.80367 0.99123 0.0
H102 H 0.3567 0.59426 0.9364 0.0
C103 C 0.47753 0.82596 0.99312 0.0
H104 H 0.25711 0.70142 0.96846 0.0
C105 C 0.53282 0.76599 0.97391 0.0
C106 C 0.49099 0.68171 0.95429 0.0
H107 H 0.51273 0.89027 0.00911 0.0
H108 H 0.60938 0.78519 0.97534 0.0
C109 C 0.39097 0.65882 0.95221 0.0
C110 C 0.86163 0.71529 0.03208 0.0
C111 C 0.90859 0.79883 0.04985 0.0
H112 H 0.75047 0.62245 0.0359 0.0
C113 C 0.8798 0.8526 0.08747 0.0
H114 H 0.88145 0.67253 0.00279 0.0
C115 C 0.80509 0.82382 0.10649 0.0
C116 C 0.75635 0.74137 0.08758 0.0
H117 H 0.91258 0.91795 0.10103 0.0
H118 H 0.78335 0.86697 0.13491 0.0
C119 C 0.78618 0.68678 0.0508 0.0
C120 C 0.92799 0.22293 0.95295 0.0
C121 C 0.88465 0.14606 0.95993 0.0
H122 H 0.90119 0.3496 0.93181 0.0
C123 C 0.78068 0.14163 0.95627 0.0
H124 H 1.00723 0.22808 0.95489 0.0
C125 C 0.71983 0.2116 0.94312 0.0
C126 C 0.76219 0.2865 0.93324 0.0
H127 H 0.74547 0.08323 0.96185 0.0
H128 H 0.63854 0.20547 0.9376 0.0
C129 C 0.86735 0.29245 0.93975 0.0
C130 C 0.85939 0.76382 0.505 0.0
C131 C 0.77138 0.73587 0.51442 0.0
H132 H 0.97674 0.86381 0.52115 0.0
C133 C 0.72107 0.79546 0.53818 0.0
H134 H 0.89996 0.71869 0.48713 0.0
C135 C 0.76595 0.8789 0.55857 0.0
C136 C 0.86111 0.90384 0.55493 0.0
H137 H 0.65391 0.77507 0.54656 0.0
H138 H 0.73058 0.92164 0.58089 0.0
C139 C 0.90354 0.84716 0.52474 0.0
C140 C 0.7355 0.20868 0.42355 0.0
C141 C 0.812 0.26149 0.46614 0.0
H142 H 0.7 0.09029 0.36941 0.0
C143 C 0.91375 0.23516 0.48595 0.0
H144 H 0.65645 0.22725 0.40738 0.0
C145 C 0.93814 0.15728 0.46426 0.0
C146 C 0.86125 0.10362 0.42278 0.0
H147 H 0.97482 0.27449 0.51843 0.0
H148 H 1.01752 0.13947 0.47975 0.0
C149 C 0.76014 0.13037 0.40195 0.0
C150 C 0.37117 0.21801 0.53391 0.0
C151 C 0.41836 0.30138 0.55233 0.0
H152 H 0.26334 0.12325 0.53872 0.0
C153 C 0.39449 0.35248 0.59278 0.0
H154 H 0.38741 0.17717 0.50256 0.0
C155 C 0.32405 0.32121 0.61389 0.0
C156 C 0.27455 0.23906 0.59411 0.0
H157 H 0.42776 0.41762 0.60703 0.0
H158 H 0.30601 0.36223 0.64456 0.0
C159 C 0.29967 0.18723 0.55445 0.0
C160 C 0.29078 0.65001 0.46884 0.0
C161 C 0.39039 0.65403 0.4663 0.0
H162 H 0.14698 0.70969 0.45314 0.0
C163 C 0.42645 0.72835 0.45248 0.0
H164 H 0.26155 0.59371 0.48001 0.0
C165 C 0.36086 0.79456 0.43721 0.0
C166 C 0.25861 0.78767 0.4359 0.0
H167 H 0.50283 0.73323 0.45026 0.0
H168 H 0.38828 0.84937 0.42381 0.0
C169 C 0.2255 0.71654 0.45398 0.0
C170 C 0.10745 0.88679 0.18647 0.0
C171 C 0.13793 0.96986 0.18176 0.0
H172 H 0.07127 0.80536 0.2372 0.0
C173 C 0.14785 0.03725 0.22306 0.0
H174 H 0.10161 0.83387 0.15531 0.0
C175 C 0.12952 0.02127 0.26942 0.0
C176 C 0.10354 0.93742 0.27524 0.0
H177 H 0.17245 0.10157 0.22005 0.0
H178 H 0.14116 0.07334 0.30196 0.0
C179 C 0.09059 0.87054 0.23309 0.0
C180 C 0.15948 0.02956 0.82884 0.0
C181 C 0.07863 0.03002 0.84866 0.0
H182 H 0.20225 0.03908 0.75984 0.0
C183 C 0.97958 0.05005 0.81574 0.0
H184 H 0.23583 0.01253 0.85349 0.0
C185 C 0.95972 0.06379 0.76212 0.0
C186 C 0.03904 0.05838 0.74098 0.0
H187 H 0.91601 0.04934 0.83037 0.0
H188 H 0.88142 0.07451 0.73639 0.0
C189 C 0.14004 0.04451 0.7754 0.0
C190 C 0.69328 0.53933 0.72294 0.0
C191 C 0.66989 0.47123 0.6806 0.0
H192 H 0.69812 0.58051 0.80364 0.0
C193 C 0.63008 0.39195 0.68608 0.0
H194 H 0.72502 0.60072 0.7193 0.0
C195 C 0.61506 0.38024 0.73388 0.0
C196 C 0.63971 0.44786 0.77674 0.0
H197 H 0.61395 0.33828 0.65412 0.0
H198 H 0.58654 0.31785 0.73794 0.0
C199 C 0.67723 0.52797 0.77068 0.0
C200 C 0.64059 0.5438 0.32306 0.0
C201 C 0.55932 0.53914 0.34235 0.0
H202 H 0.68301 0.55701 0.25435 0.0
C203 C 0.45904 0.55587 0.30916 0.0
H204 H 0.71806 0.52949 0.34793 0.0
C205 C 0.43857 0.57106 0.25577 0.0
C206 C 0.51822 0.56954 0.23479 0.0
H207 H 0.39526 0.55156 0.32342 0.0
H208 H 0.35949 0.57926 0.22994 0.0
C209 C 0.62029 0.55942 0.2696 0.0
loop_
_geom_bond_atom_site_label_1
_geom_bond_atom_site_label_2
_geom_bond_distance
_geom_bond_site_symmetry_2
_ccdc_geom_bond_type
Zn0 O6 1.920 1_545 S
Zn0 O12 1.898 . S
Zn0 O15 1.905 1_545 S
Zn1 O9 1.905 . S
Zn1 O10 1.898 1_545 S
Zn1 O18 1.920 1_545 S
Zn2 O5 2.080 1_444 S
Zn2 O8 2.114 . S
Zn2 O11 2.120 1_545 S
Zn2 O13 2.120 1_455 S
Zn2 O14 2.114 1_554 S
Zn2 O17 2.080 . S
C3 O8 1.166 . S
C3 O9 1.182 . S
C4 O10 1.167 . S
C4 O11 1.299 . S
O5 Zn2 2.080 1_666 S
O5 C19 1.305 . S
O6 Zn0 1.920 1_565 S
O6 C19 1.234 . S
C7 O12 1.167 . S
C7 O13 1.299 1_556 S
O8 Zn2 2.114 . S
O8 C3 1.166 . S
O9 Zn1 1.905 . S
O9 C3 1.182 . S
O10 Zn1 1.898 1_565 S
O10 C4 1.167 . S
O11 Zn2 2.120 1_565 S
O11 C4 1.299 . S
O12 Zn0 1.898 . S
O12 C7 1.167 . S
O13 Zn2 2.120 1_655 S
O13 C7 1.299 1_554 S
O14 Zn2 2.114 1_556 S
O14 C16 1.166 1_445 S
O15 Zn0 1.905 1_565 S
O15 C16 1.182 . S
C16 O14 1.166 1_665 S
C16 O15 1.182 . S
O17 Zn2 2.080 . S
O17 C20 1.305 1_545 S
O18 Zn1 1.920 1_565 S
O18 C20 1.234 . S
C19 O5 1.305 . S
C19 O6 1.234 . S
C20 O17 1.305 1_565 S
C20 O18 1.234 . S
Zn21 O27 1.920 . S
Zn21 O33 1.898 . S
Zn21 O36 1.905 . S
Zn22 O30 1.905 . S
Zn22 O31 1.898 . S
Zn22 O39 1.920 . S
Zn23 O26 2.080 . S
Zn23 O29 2.114 . S
Zn23 O32 2.120 . S
Zn23 O34 2.120 . S
Zn23 O35 2.114 . S
Zn23 O38 2.080 . S
C24 O29 1.166 . S
C24 O30 1.182 . S
C25 O31 1.167 . S
C25 O32 1.299 . S
O26 Zn23 2.080 . S
O26 C40 1.305 . S
O27 Zn21 1.920 . S
O27 C40 1.234 . S
C28 O33 1.167 . S
C28 O34 1.299 . S
O29 Zn23 2.114 . S
O29 C24 1.166 . S
O30 Zn22 1.905 . S
O30 C24 1.182 . S
O31 Zn22 1.898 . S
O31 C25 1.167 . S
O32 Zn23 2.120 . S
O32 C25 1.299 . S
O33 Zn21 1.898 . S
O33 C28 1.167 . S
O34 Zn23 2.120 . S
O34 C28 1.299 . S
O35 Zn23 2.114 . S
O35 C37 1.166 . S
O36 Zn21 1.905 . S
O36 C37 1.182 . S
C37 O35 1.166 . S
C37 O36 1.182 . S
O38 Zn23 2.080 . S
O38 C41 1.305 . S
O39 Zn22 1.920 . S
O39 C41 1.234 . S
C40 O26 1.305 . S
C40 O27 1.234 . S
C41 O38 1.305 . S
C41 O39 1.234 . S
H42 C47 0.930 . S
H43 C50 0.930 . S
H44 C52 0.930 . S
H45 C46 1.016 . S
C46 H45 1.016 . S
C46 N53 1.286 1_655 S
C47 H42 0.930 . S
C47 C48 1.397 . S
C47 C49 1.361 1_565 S
C48 C47 1.397 . S
C48 C52 1.390 . S
C49 C47 1.361 1_545 S
C49 C50 1.393 . S
C49 N53 1.413 . S
C50 H43 0.930 . S
C50 C49 1.393 . S
C50 C51 1.399 . S
C51 C50 1.399 . S
C51 C52 1.381 1_545 S
C52 H44 0.930 . S
C52 C48 1.390 . S
C52 C51 1.381 1_565 S
N53 C46 1.286 1_455 S
N53 C49 1.413 . S
H54 C59 0.930 . S
H55 C62 0.930 . S
H56 C64 0.930 . S
H57 C58 1.016 . S
C58 H57 1.016 . S
C58 N65 1.286 . S
C59 H54 0.930 . S
C59 C60 1.397 . S
C59 C61 1.361 1_665 S
C60 C59 1.397 . S
C60 C64 1.390 . S
C61 C59 1.361 1_445 S
C61 C62 1.393 . S
C61 N65 1.413 . S
C62 H55 0.930 . S
C62 C61 1.393 . S
C62 C63 1.399 1_455 S
C63 C62 1.399 1_655 S
C63 C64 1.381 1_545 S
C64 H56 0.930 . S
C64 C60 1.390 . S
C64 C63 1.381 1_565 S
N65 C58 1.286 . S
N65 C61 1.413 . S
H66 C71 0.930 . S
H67 C74 0.930 . S
H68 C76 0.930 . S
H69 C70 1.016 . S
C70 H69 1.016 . S
C70 N77 1.286 . S
C71 H66 0.930 . S
C71 C72 1.397 . S
C71 C73 1.361 . S
C72 C71 1.397 . S
C72 C76 1.390 . S
C73 C71 1.361 . S
C73 C74 1.393 . S
C73 N77 1.413 . S
C74 H67 0.930 . S
C74 C73 1.393 . S
C74 C75 1.399 . S
C75 C74 1.399 . S
C75 C76 1.381 . S
C76 H68 0.930 . S
C76 C72 1.390 . S
C76 C75 1.381 . S
N77 C70 1.286 . S
N77 C73 1.413 . S
H78 C83 0.930 . S
H79 C86 0.930 . S
H80 C88 0.930 . S
H81 C82 1.016 . S
C82 H81 1.016 . S
C82 N89 1.286 . S
C83 H78 0.930 . S
C83 C84 1.397 . S
C83 C85 1.361 . S
C84 C83 1.397 . S
C84 C88 1.390 . S
C85 C83 1.361 . S
C85 C86 1.393 . S
C85 N89 1.413 . S
C86 H79 0.930 . S
C86 C85 1.393 . S
C86 C87 1.399 . S
C87 C86 1.399 . S
C87 C88 1.381 . S
C88 H80 0.930 . S
C88 C84 1.390 . S
C88 C87 1.381 . S
N89 C82 1.286 . S
N89 C85 1.413 . S
C90 C91 1.387 1_556 S
C90 H94 0.950 . S
C90 C99 1.390 1_556 S
C91 C90 1.387 1_554 S
C91 C93 1.387 . S
H92 C99 0.950 1_556 S
C93 C91 1.387 . S
C93 C95 1.390 . S
C93 H97 0.950 . S
H94 C90 0.950 . S
C95 C93 1.390 . S
C95 C96 1.387 . S
C95 H98 0.950 . S
C96 C95 1.387 . S
C96 C99 1.387 . S
H97 C93 0.950 . S
H98 C95 0.950 . S
C99 C90 1.390 1_554 S
C99 H92 0.950 1_554 S
C99 C96 1.387 . S
C100 C101 1.387 1_554 S
C100 H104 0.950 . S
C100 C109 1.390 . S
C101 C100 1.387 1_556 S
C101 C103 1.387 . S
H102 C109 0.950 . S
C103 C101 1.387 . S
C103 C105 1.390 . S
C103 H107 0.950 . S
H104 C100 0.950 . S
C105 C103 1.390 . S
C105 C106 1.387 . S
C105 H108 0.950 . S
C106 C105 1.387 . S
C106 C109 1.387 1_556 S
H107 C103 0.950 . S
H108 C105 0.950 . S
C109 C100 1.390 . S
C109 H102 0.950 . S
C109 C106 1.387 1_554 S
C110 C111 1.387 1_556 S
C110 H114 0.950 . S
C110 C119 1.390 . S
C111 C110 1.387 1_554 S
C111 C113 1.387 . S
H112 C119 0.950 . S
C113 C111 1.387 . S
C113 C115 1.390 . S
C113 H117 0.950 . S
H114 C110 0.950 . S
C115 C113 1.390 . S
C115 C116 1.387 . S
C115 H118 0.950 . S
C116 C115 1.387 . S
C116 C119 1.387 1_554 S
H117 C113 0.950 . S
H118 C115 0.950 . S
C119 C110 1.390 . S
C119 H112 0.950 . S
C119 C116 1.387 1_556 S
C120 C121 1.387 . S
C120 H124 0.950 . S
C120 C129 1.390 . S
C121 C120 1.387 . S
C121 C123 1.387 1_556 S
H122 C129 0.950 . S
C123 C121 1.387 1_554 S
C123 C125 1.390 . S
C123 H127 0.950 . S
H124 C120 0.950 . S
C125 C123 1.390 . S
C125 C126 1.387 1_554 S
C125 H128 0.950 . S
C126 C125 1.387 1_556 S
C126 C129 1.387 . S
H127 C123 0.950 . S
H128 C125 0.950 . S
C129 C120 1.390 . S
C129 H122 0.950 . S
C129 C126 1.387 . S
C130 C131 1.387 . S
C130 H134 0.950 . S
C130 C139 1.390 . S
C131 C130 1.387 . S
C131 C133 1.387 . S
H132 C139 0.950 . S
C133 C131 1.387 . S
C133 C135 1.390 . S
C133 H137 0.950 . S
H134 C130 0.950 . S
C135 C133 1.390 . S
C135 C136 1.387 . S
C135 H138 0.950 . S
C136 C135 1.387 . S
C136 C139 1.387 . S
H137 C133 0.950 . S
H138 C135 0.950 . S
C139 C130 1.390 . S
C139 H132 0.950 . S
C139 C136 1.387 . S
C140 C141 1.387 . S
C140 H144 0.950 . S
C140 C149 1.390 . S
C141 C140 1.387 . S
C141 C143 1.387 . S
H142 C149 0.950 . S
C143 C141 1.387 . S
C143 C145 1.390 . S
C143 H147 0.950 . S
H144 C140 0.950 . S
C145 C143 1.390 . S
C145 C146 1.387 . S
C145 H148 0.950 . S
C146 C145 1.387 . S
C146 C149 1.387 . S
H147 C143 0.950 . S
H148 C145 0.950 . S
C149 C140 1.390 . S
C149 H142 0.950 . S
C149 C146 1.387 . S
C150 C151 1.387 . S
C150 H154 0.950 . S
C150 C159 1.390 . S
C151 C150 1.387 . S
C151 C153 1.387 . S
H152 C159 0.950 . S
C153 C151 1.387 . S
C153 C155 1.390 . S
C153 H157 0.950 . S
H154 C150 0.950 . S
C155 C153 1.390 . S
C155 C156 1.387 . S
C155 H158 0.950 . S
C156 C155 1.387 . S
C156 C159 1.387 . S
H157 C153 0.950 . S
H158 C155 0.950 . S
C159 C150 1.390 . S
C159 H152 0.950 . S
C159 C156 1.387 . S
C160 C161 1.387 . S
C160 H164 0.950 . S
C160 C169 1.390 . S
C161 C160 1.387 . S
C161 C163 1.387 . S
H162 C169 0.950 . S
C163 C161 1.387 . S
C163 C165 1.390 . S
C163 H167 0.950 . S
H164 C160 0.950 . S
C165 C163 1.390 . S
C165 C166 1.387 . S
C165 H168 0.950 . S
C166 C165 1.387 . S
C166 C169 1.387 . S
H167 C163 0.950 . S
H168 C165 0.950 . S
C169 C160 1.390 . S
C169 H162 0.950 . S
C169 C166 1.387 . S
C170 C171 1.387 . S
C170 H174 0.950 . S
C170 C179 1.390 . S
C171 C170 1.387 . S
C171 C173 1.387 1_565 S
H172 C179 0.950 . S
C173 C171 1.387 1_545 S
C173 C175 1.390 . S
C173 H177 0.950 1_455 S
H174 C170 0.950 . S
C175 C173 1.390 . S
C175 C176 1.387 . S
C175 H178 0.950 1_455 S
C176 C175 1.387 . S
C176 C179 1.387 1_545 S
H177 C173 0.950 1_655 S
H178 C175 0.950 1_655 S
C179 C170 1.390 . S
C179 H172 0.950 . S
C179 C176 1.387 1_565 S
C180 C181 1.387 1_655 S
C180 H184 0.950 . S
C180 C189 1.390 . S
C181 C180 1.387 1_455 S
C181 C183 1.387 1_565 S
H182 C189 0.950 . S
C183 C181 1.387 1_545 S
C183 C185 1.390 . S
C183 H187 0.950 . S
H184 C180 0.950 . S
C185 C183 1.390 . S
C185 C186 1.387 1_455 S
C185 H188 0.950 . S
C186 C185 1.387 1_655 S
C186 C189 1.387 1_545 S
H187 C183 0.950 . S
H188 C185 0.950 . S
C189 C180 1.390 . S
C189 H182 0.950 . S
C189 C186 1.387 1_565 S
C190 C191 1.387 . S
C190 H194 0.950 . S
C190 C199 1.390 . S
C191 C190 1.387 . S
C191 C193 1.387 . S
H192 C199 0.950 . S
C193 C191 1.387 . S
C193 C195 1.390 . S
C193 H197 0.950 . S
H194 C190 0.950 . S
C195 C193 1.390 . S
C195 C196 1.387 . S
C195 H198 0.950 . S
C196 C195 1.387 . S
C196 C199 1.387 . S
H197 C193 0.950 . S
H198 C195 0.950 . S
C199 C190 1.390 . S
C199 H192 0.950 . S
C199 C196 1.387 . S
C200 C201 1.387 . S
C200 H204 0.950 . S
C200 C209 1.390 . S
C201 C200 1.387 . S
C201 C203 1.387 . S
H202 C209 0.950 . S
C203 C201 1.387 . S
C203 C205 1.390 . S
C203 H207 0.950 . S
H204 C200 0.950 . S
C205 C203 1.390 . S
C205 C206 1.387 . S
C205 H208 0.950 . S
C206 C205 1.387 . S
C206 C209 1.387 . S
H207 C203 0.950 . S
H208 C205 0.950 . S
C209 C200 1.390 . S
C209 H202 0.950 . S
C209 C206 1.387 . S
C96 C84 1.379 . S
C91 C3 1.270 . S
C101 C4 1.428 1_556 S
C106 C70 1.509 . S
C111 C19 1.447 1_554 S
C116 C82 1.521 . S
C121 C7 1.274 . S
C126 C72 1.382 . S
C131 C37 1.270 . S
C136 C60 1.379 . S
C141 C28 1.429 . S
C146 C46 1.508 . S
C156 C58 1.522 . S
C151 C41 1.449 . S
C166 C48 1.383 . S
C161 C25 1.270 . S
C171 C20 1.377 . S
C176 C51 1.517 . S
C181 C16 1.415 1_455 S
C186 C63 1.551 . S
C196 C75 1.516 . S
C191 C40 1.372 . S
C201 C24 1.411 . S
C206 C87 1.550 . S
