# Generated by pormake.
# Topology scu, (8,4)-cn, num edge types: 1
# Building blocks:
#     Node 0, Type 0, BuildingBlock: VETTIZ_charged_sbu_0, # of connection points: 8
#     Node 1, Type 1, BuildingBlock: IZENUY_clean_linker_0, # of connection points: 4
#     Node 2, Type 1, BuildingBlock: IZENUY_clean_linker_0, # of connection points: 4
#     Edge 3, Type (0, 1), BuildingBlock: CIFDUS_clean_linker_0, # of connection points: 2
#     Edge 4, Type (0, 1), BuildingBlock: CIFDUS_clean_linker_0, # of connection points: 2
#     Edge 5, Type (0, 1), BuildingBlock: CIFDUS_clean_linker_0, # of connection points: 2
#     Edge 6, Type (0, 1), BuildingBlock: CIFDUS_clean_linker_0, # of connection points: 2
#     Edge 7, Type (0, 1), BuildingBlock: CIFDUS_clean_linker_0, # of connection points: 2
#     Edge 8, Type (0, 1), BuildingBlock: CIFDUS_clean_linker_0, # of connection points: 2
#     Edge 9, Type (0, 1), BuildingBlock: CIFDUS_clean_linker_0, # of connection points: 2
#     Edge 10, Type (0, 1), BuildingBlock: CIFDUS_clean_linker_0, # of connection points: 2
# Relax obj value: 0.029
# Max RMSD: 0.128
# Mean RMSD: 0.109
data_MOF--net-scu--node1-VETTIZ_charged_sbu_0--node2-IZENUY_clean_linker_0--edge1-CIFDUS_clean_linker_0
_symmetry_space_group_name_H-M    P1
_symmetry_Int_Tables_number       1
_symmetry_cell_setting            triclinic
loop_
_symmetry_equiv_pos_as_xyz
'x, y, z'
_cell_length_a     25.227179
_cell_length_b     25.09575
_cell_length_c     16.573601
_cell_angle_alpha  94.543401
_cell_angle_beta   89.407735
_cell_angle_gamma 91.283092
loop_
_atom_site_label
_atom_site_type_symbol
_atom_site_fract_x
_atom_site_fract_y
_atom_site_fract_z
_atom_type_partial_charge
Fe0 Fe 0.98091 0.98721 0.15434 0.0
O1 O 0.99473 1.00427 0.04277 0.0
Fe2 Fe 0.07142 0.99028 0.99517 0.0
Fe3 Fe 0.98341 0.07661 0.00429 0.0
O4 O 0.99889 1.00055 0.04268 0.0
O5 O 0.05997 0.0626 0.9563 0.0
O6 O 0.05579 0.06635 0.95638 0.0
Fe7 Fe 0.07265 0.07993 0.84429 0.0
C8 C 0.8822 0.0381 0.09424 0.0
O9 O 0.97735 0.06654 0.19947 0.0
O10 O 1.01635 0.11452 0.10734 0.0
O11 O 0.15028 0.06983 0.87713 0.0
O12 O 0.14657 0.99 0.93789 0.0
O13 O 0.10747 1.02498 0.09815 0.0
O14 O 0.05908 0.98499 0.18986 0.0
O15 O 0.98258 0.15192 0.95553 0.0
O16 O 0.06376 0.15805 0.89078 0.0
C17 C 0.1026 1.00605 0.16691 0.0
O18 O 0.07282 1.00084 0.79746 0.0
O19 O 0.03848 0.9521 0.89312 0.0
O20 O 0.90363 0.99574 0.11888 0.0
O21 O 0.90796 0.07657 0.06102 0.0
C22 C 0.99842 0.11013 0.17857 0.0
C23 C 1.01992 0.17853 0.91968 0.0
C24 C 0.9513 0.06182 0.83323 0.0
O25 O 0.9472 0.04194 0.90133 0.0
O26 O 0.99433 0.08392 0.81071 0.0
C27 C 0.17192 1.02793 0.90287 0.0
O28 O 0.07244 0.91493 0.04352 0.0
O29 O 0.99148 0.90898 0.10919 0.0
C30 C 0.05152 0.95782 0.82002 0.0
C31 C 0.03469 0.88831 0.07829 0.0
H32 H 0.03563 0.44749 0.40228 0.0
H33 H 0.04232 0.48014 0.6616 0.0
H34 H 1.02024 0.31915 0.55961 0.0
H35 H 0.04505 0.62514 0.58158 0.0
H36 H 0.0752 0.59469 0.32552 0.0
H37 H 0.08985 0.75429 0.43718 0.0
N38 N 0.04724 0.52654 0.52501 0.0
N39 N 0.053 0.54671 0.4589 0.0
C40 C 0.03406 0.43357 0.46247 0.0
C41 C 1.0261 0.37849 0.47203 0.0
C42 C 0.03941 0.47061 0.53118 0.0
C43 C 0.03742 0.45206 0.60891 0.0
C44 C 1.02946 0.39761 0.61892 0.0
C45 C 1.02402 0.36143 0.55077 0.0
C46 C 0.05666 0.63945 0.52391 0.0
C47 C 0.06558 0.69471 0.51793 0.0
C48 C 0.06112 0.60284 0.45465 0.0
C49 C 0.07345 0.62221 0.37923 0.0
C50 C 0.08413 0.67686 0.37331 0.0
C51 C 0.0812 0.71222 0.44275 0.0
H52 H 0.59077 0.05853 0.38499 0.0
H53 H 0.62061 1.03123 0.63433 0.0
H54 H 0.74861 0.07529 0.4774 0.0
H55 H 0.46415 1.00624 0.61332 0.0
H56 H 0.43377 1.03343 0.36411 0.0
H57 H 0.30602 0.99007 0.5221 0.0
N58 N 0.54444 1.03152 0.5259 0.0
N59 N 0.51022 1.03307 0.47221 0.0
C60 C 0.61772 0.05746 0.43526 0.0
C61 C 0.67157 0.07011 0.42392 0.0
C62 C 0.59902 0.04365 0.51168 0.0
C63 C 0.63507 0.04176 0.57578 0.0
C64 C 0.6893 0.05402 0.56467 0.0
C65 C 0.70672 0.06785 0.48824 0.0
C66 C 0.43708 1.00732 0.56319 0.0
C67 C 0.38324 0.99491 0.57492 0.0
C68 C 0.45564 1.02099 0.48663 0.0
C69 C 0.41942 1.02296 0.42275 0.0
C70 C 0.36515 1.01098 0.43427 0.0
C71 C 0.3479 0.99726 0.51086 0.0
H72 H 0.05449 0.20548 0.1747 0.0
H73 H 0.93669 0.12366 0.31351 0.0
H74 H 0.93067 0.20152 0.40971 0.0
H75 H 0.96017 0.29123 0.45781 0.0
H76 H 0.08274 0.37246 0.32823 0.0
H77 H 0.08387 0.29764 0.22367 0.0
C78 C 1.02759 0.20472 0.22608 0.0
C79 C 0.99662 0.15823 0.23707 0.0
C80 C 1.02462 0.24986 0.28246 0.0
C81 C 0.96174 0.15825 0.30389 0.0
C82 C 0.95791 0.20302 0.35887 0.0
C83 C 0.98744 0.29268 0.40697 0.0
C84 C 1.02184 0.33732 0.40184 0.0
C85 C 0.98946 0.24875 0.34924 0.0
C86 C 0.05558 0.33891 0.33387 0.0
C87 C 0.05669 0.29576 0.27447 0.0
H88 H 0.84018 0.12667 0.17054 0.0
H89 H 0.80146 0.96491 0.08044 0.0
H90 H 0.72152 0.96551 0.16493 0.0
H91 H 0.67607 1.00413 0.28725 0.0
H92 H 0.72052 0.16233 0.38651 0.0
H93 H 0.78374 0.17181 0.27545 0.0
C94 C 0.81285 0.09256 0.16674 0.0
C95 C 0.82657 0.04577 0.11981 0.0
C96 C 0.76844 0.09227 0.21877 0.0
C97 C 0.79152 1.00134 0.11638 0.0
C98 C 0.7461 1.00151 0.16527 0.0
C99 C 0.69794 0.04146 0.28221 0.0
C100 C 0.69394 0.08244 0.34453 0.0
C101 C 0.73597 0.04555 0.22023 0.0
C102 C 0.72304 0.13041 0.33869 0.0
C103 C 0.75952 0.1356 0.27567 0.0
H104 H 0.12549 0.84955 0.13353 0.0
H105 H 0.96413 0.80483 0.07204 0.0
H106 H 0.97044 0.72444 0.14516 0.0
H107 H 1.01468 0.67933 0.2514 0.0
H108 H 0.17232 0.72994 0.3245 0.0
H109 H 0.17542 0.79461 0.22147 0.0
C110 C 0.09257 0.82097 0.13335 0.0
C111 C 0.04437 0.83302 0.09787 0.0
C112 C 0.09565 0.77625 0.17907 0.0
C113 C 1.00157 0.79628 0.09922 0.0
C114 C 1.00505 0.75054 0.14153 0.0
C115 C 0.05051 0.70285 0.24197 0.0
C116 C 0.09325 0.69998 0.29487 0.0
C117 C 0.05084 0.74175 0.18539 0.0
C118 C 0.13917 0.73138 0.28374 0.0
C119 C 0.14067 0.76873 0.22547 0.0
H120 H 0.1951 0.06709 0.1754 0.0
H121 H 0.11786 0.92914 0.26884 0.0
H122 H 0.19462 0.91517 0.35097 0.0
H123 H 0.2817 0.94309 0.40089 0.0
H124 H 0.35809 0.08516 0.32034 0.0
H125 H 0.28499 0.09524 0.22663 0.0
C126 C 0.19522 0.03411 0.2139 0.0
C127 C 0.1503 0.99979 0.21675 0.0
C128 C 0.23961 1.02662 0.2628 0.0
C129 C 0.15124 0.95695 0.26657 0.0
C130 C 0.19537 0.94857 0.31326 0.0
C131 C 0.28242 0.9766 0.36334 0.0
C132 C 0.32512 1.01374 0.36888 0.0
C133 C 0.2394 0.98345 0.31265 0.0
C134 C 0.32595 0.05576 0.31739 0.0
C135 C 0.28379 0.06189 0.26437 0.0
H136 H 0.07094 0.85291 0.83645 0.0
H137 H 1.01641 0.96082 0.66668 0.0
H138 H 1.00981 0.88708 0.5614 0.0
H139 H 1.02419 0.79387 0.51573 0.0
H140 H 0.08945 0.68717 0.67898 0.0
H141 H 0.08531 0.75783 0.78949 0.0
C142 C 0.05707 0.85994 0.77655 0.0
C143 C 0.04409 0.91211 0.75905 0.0
C144 C 0.05525 0.8176 0.71537 0.0
C145 C 1.02682 0.92104 0.68118 0.0
C146 C 1.023 0.87892 0.62113 0.0
C147 C 0.03823 0.78594 0.57513 0.0
C148 C 0.05815 0.73526 0.58815 0.0
C149 C 0.03809 0.82734 0.63714 0.0
C150 C 0.07387 0.72554 0.66677 0.0
C151 C 0.07196 0.76617 0.72993 0.0
H152 H 0.21495 0.93902 0.82898 0.0
H153 H 0.25203 0.10179 0.9157 0.0
H154 H 0.33221 0.10109 0.83176 0.0
H155 H 0.37817 0.06184 0.71039 0.0
H156 H 0.33525 0.90259 0.61402 0.0
H157 H 0.27206 0.89345 0.72525 0.0
C158 C 0.24196 0.97337 0.83214 0.0
C159 C 0.22769 1.02045 0.87788 0.0
C160 C 0.2865 0.97356 0.78035 0.0
C161 C 0.26238 0.06515 0.88062 0.0
C162 C 0.30793 0.06492 0.83204 0.0
C163 C 0.35664 1.02439 0.71611 0.0
C164 C 0.36106 0.98297 0.65457 0.0
C165 C 0.31856 1.02051 0.77806 0.0
C166 C 0.3324 0.93484 0.66126 0.0
C167 C 0.29593 0.92986 0.72436 0.0
H168 H 0.08874 0.2612 0.8995 0.0
H169 H 0.92409 0.21334 0.87456 0.0
H170 H 0.90988 0.28526 0.78679 0.0
H171 H 0.94898 0.34888 0.69546 0.0
H172 H 0.11362 0.39602 0.71894 0.0
H173 H 0.12319 0.33797 0.82973 0.0
C174 C 0.04935 0.26779 0.87712 0.0
C175 C 1.00772 0.23162 0.8926 0.0
C176 C 0.04174 0.30859 0.82533 0.0
C177 C 0.95676 0.24072 0.86385 0.0
C178 C 0.94876 0.28147 0.81271 0.0
C179 C 0.98635 0.34775 0.72707 0.0
C180 C 1.03065 0.37622 0.6994 0.0
C181 C 0.99159 0.31377 0.78979 0.0
C182 C 0.07904 0.37456 0.73992 0.0
C183 C 0.08457 0.34104 0.80265 0.0
H184 H 0.85944 0.99971 0.82444 0.0
H185 H 0.93489 0.13902 0.73228 0.0
H186 H 0.85808 0.15213 0.64992 0.0
H187 H 0.77158 0.12302 0.59916 0.0
H188 H 0.69696 0.97969 0.67827 0.0
H189 H 0.76997 0.97044 0.77254 0.0
C190 C 0.85888 1.03284 0.78628 0.0
C191 C 0.90333 0.06783 0.78389 0.0
C192 C 0.81446 0.03983 0.73717 0.0
C193 C 0.90186 0.11079 0.73436 0.0
C194 C 0.8577 0.11866 0.68748 0.0
C195 C 0.77122 0.08945 0.63657 0.0
C196 C 0.72909 0.05168 0.63044 0.0
C197 C 0.81418 0.08313 0.68759 0.0
C198 C 0.72869 1.00954 0.68168 0.0
C199 C 0.77079 1.0039 0.73502 0.0
loop_
_geom_bond_atom_site_label_1
_geom_bond_atom_site_label_2
_geom_bond_distance
_geom_bond_site_symmetry_2
_ccdc_geom_bond_type
Fe0 O1 1.886 . S
Fe0 O4 1.715 1_645 S
Fe0 O9 2.077 1_655 S
Fe0 O14 1.935 1_655 S
Fe0 O20 2.077 1_545 S
Fe0 O29 1.935 1_545 S
O1 Fe0 1.886 . S
O1 Fe3 1.718 . S
Fe2 O4 1.885 1_556 S
Fe2 O5 1.716 . S
Fe2 O12 1.936 . S
Fe2 O13 2.077 1_556 S
Fe2 O19 1.936 . S
Fe2 O28 2.077 1_556 S
Fe3 O1 1.718 . S
Fe3 O6 1.883 1_554 S
Fe3 O10 1.937 . S
Fe3 O15 2.074 1_554 S
Fe3 O21 1.937 . S
Fe3 O25 2.074 1_554 S
O4 Fe0 1.715 1_465 S
O4 Fe2 1.885 1_554 S
O5 Fe2 1.716 . S
O5 Fe7 1.886 . S
O6 Fe3 1.883 1_556 S
O6 Fe7 1.715 1_645 S
Fe7 O5 1.886 . S
Fe7 O6 1.715 1_465 S
Fe7 O11 2.077 1_565 S
Fe7 O16 1.935 1_565 S
Fe7 O18 2.077 1_455 S
Fe7 O26 1.935 1_455 S
C8 O20 1.379 1_545 S
C8 O21 1.421 . S
O9 Fe0 2.077 1_455 S
O9 C22 1.376 1_455 S
O10 Fe3 1.937 . S
O10 C22 1.421 . S
O11 Fe7 2.077 1_545 S
O11 C27 1.376 1_545 S
O12 Fe2 1.936 . S
O12 C27 1.421 . S
O13 Fe2 2.077 1_554 S
O13 C17 1.381 . S
O14 Fe0 1.935 1_455 S
O14 C17 1.421 1_545 S
O15 Fe3 2.074 1_556 S
O15 C23 1.381 . S
O16 Fe7 1.935 1_545 S
O16 C23 1.421 1_455 S
C17 O13 1.381 . S
C17 O14 1.421 1_565 S
O18 Fe7 2.077 1_655 S
O18 C30 1.379 1_655 S
O19 Fe2 1.936 . S
O19 C30 1.421 . S
O20 Fe0 2.077 1_565 S
O20 C8 1.379 1_565 S
O21 Fe3 1.937 . S
O21 C8 1.421 . S
C22 O9 1.376 1_655 S
C22 O10 1.421 . S
C23 O15 1.381 . S
C23 O16 1.421 1_655 S
C24 O25 1.381 . S
C24 O26 1.421 1_545 S
O25 Fe3 2.074 1_556 S
O25 C24 1.381 . S
O26 Fe7 1.935 1_655 S
O26 C24 1.421 1_565 S
C27 O11 1.376 1_565 S
C27 O12 1.421 . S
O28 Fe2 2.077 1_554 S
O28 C31 1.381 . S
O29 Fe0 1.935 1_565 S
O29 C31 1.421 1_655 S
C30 O18 1.379 1_455 S
C30 O19 1.421 . S
C31 O28 1.381 . S
C31 O29 1.421 1_455 S
H32 C40 0.940 . S
H33 C43 0.940 . S
H34 C45 0.940 . S
H35 C46 0.940 . S
H36 C49 0.940 . S
H37 C51 0.940 . S
N38 N39 1.190 . S
N38 C42 1.477 . S
N39 N38 1.190 . S
N39 C48 1.477 . S
C40 H32 0.940 . S
C40 C41 1.390 1_455 S
C40 C42 1.322 . S
C41 C40 1.390 1_655 S
C41 C45 1.370 . S
C42 N38 1.477 . S
C42 C40 1.322 . S
C42 C43 1.447 . S
C43 H33 0.940 . S
C43 C42 1.447 . S
C43 C44 1.373 . S
C44 C43 1.373 . S
C44 C45 1.417 1_455 S
C45 H34 0.940 . S
C45 C41 1.370 . S
C45 C44 1.417 1_655 S
C46 H35 0.940 . S
C46 C47 1.390 1_455 S
C46 C48 1.322 . S
C47 C46 1.390 1_655 S
C47 C51 1.370 . S
C48 N39 1.477 . S
C48 C46 1.322 . S
C48 C49 1.447 . S
C49 H36 0.940 . S
C49 C48 1.447 . S
C49 C50 1.373 . S
C50 C49 1.373 . S
C50 C51 1.417 1_455 S
C51 H37 0.940 . S
C51 C47 1.370 . S
C51 C50 1.417 1_655 S
H52 C60 0.940 . S
H53 C63 0.940 . S
H54 C65 0.940 . S
H55 C66 0.940 . S
H56 C69 0.940 . S
H57 C71 0.940 . S
N58 N59 1.190 . S
N58 C62 1.477 . S
N59 N58 1.190 . S
N59 C68 1.477 . S
C60 H52 0.940 . S
C60 C61 1.390 1_545 S
C60 C62 1.322 . S
C61 C60 1.390 1_565 S
C61 C65 1.370 . S
C62 N58 1.477 . S
C62 C60 1.322 . S
C62 C63 1.447 . S
C63 H53 0.940 . S
C63 C62 1.447 . S
C63 C64 1.373 . S
C64 C63 1.373 . S
C64 C65 1.417 1_545 S
C65 H54 0.940 . S
C65 C61 1.370 . S
C65 C64 1.417 1_565 S
C66 H55 0.940 . S
C66 C67 1.390 1_545 S
C66 C68 1.322 . S
C67 C66 1.390 1_565 S
C67 C71 1.370 . S
C68 N59 1.477 . S
C68 C66 1.322 . S
C68 C69 1.447 . S
C69 H56 0.940 . S
C69 C68 1.447 . S
C69 C70 1.373 . S
C70 C69 1.373 . S
C70 C71 1.417 1_545 S
C71 H57 0.940 . S
C71 C67 1.370 . S
C71 C70 1.417 1_565 S
H72 C78 0.930 . S
H73 C81 0.930 . S
H74 C82 0.930 . S
H75 C83 0.930 . S
H76 C86 0.930 . S
H77 C87 0.930 . S
C78 H72 0.930 . S
C78 C79 1.355 1_455 S
C78 C80 1.415 . S
C79 C78 1.355 1_655 S
C79 C81 1.419 . S
C80 C78 1.415 . S
C80 C85 1.425 1_455 S
C80 C87 1.409 . S
C81 H73 0.930 . S
C81 C79 1.419 . S
C81 C82 1.362 . S
C82 H74 0.930 . S
C82 C81 1.362 . S
C82 C85 1.409 . S
C83 H75 0.930 . S
C83 C84 1.352 1_655 S
C83 C85 1.415 . S
C84 C83 1.352 1_455 S
C84 C86 1.423 . S
C85 C80 1.425 1_655 S
C85 C82 1.409 . S
C85 C83 1.415 . S
C86 H76 0.930 . S
C86 C84 1.423 . S
C86 C87 1.362 . S
C87 H77 0.930 . S
C87 C80 1.409 . S
C87 C86 1.362 . S
H88 C94 0.930 . S
H89 C97 0.930 . S
H90 C98 0.930 . S
H91 C99 0.930 . S
H92 C102 0.930 . S
H93 C103 0.930 . S
C94 H88 0.930 . S
C94 C95 1.355 1_545 S
C94 C96 1.415 . S
C95 C94 1.355 1_565 S
C95 C97 1.419 . S
C96 C94 1.415 . S
C96 C101 1.425 1_545 S
C96 C103 1.409 . S
C97 H89 0.930 . S
C97 C95 1.419 . S
C97 C98 1.362 . S
C98 H90 0.930 . S
C98 C97 1.362 . S
C98 C101 1.409 . S
C99 H91 0.930 . S
C99 C100 1.355 . S
C99 C101 1.415 . S
C100 C99 1.355 . S
C100 C102 1.419 1_565 S
C101 C96 1.425 1_565 S
C101 C98 1.409 . S
C101 C99 1.415 . S
C102 H92 0.930 . S
C102 C100 1.419 1_545 S
C102 C103 1.362 . S
C103 H93 0.930 . S
C103 C96 1.409 . S
C103 C102 1.362 . S
H104 C110 0.930 . S
H105 C113 0.930 . S
H106 C114 0.930 . S
H107 C115 0.930 . S
H108 C118 0.930 . S
H109 C119 0.930 . S
C110 H104 0.930 . S
C110 C111 1.355 1_455 S
C110 C112 1.415 . S
C111 C110 1.355 1_655 S
C111 C113 1.419 . S
C112 C110 1.415 . S
C112 C117 1.425 1_455 S
C112 C119 1.409 . S
C113 H105 0.930 . S
C113 C111 1.419 . S
C113 C114 1.362 . S
C114 H106 0.930 . S
C114 C113 1.362 . S
C114 C117 1.409 . S
C115 H107 0.930 . S
C115 C116 1.355 1_655 S
C115 C117 1.415 . S
C116 C115 1.355 1_455 S
C116 C118 1.419 . S
C117 C112 1.425 1_655 S
C117 C114 1.409 . S
C117 C115 1.415 . S
C118 H108 0.930 . S
C118 C116 1.419 . S
C118 C119 1.362 . S
C119 H109 0.930 . S
C119 C112 1.409 . S
C119 C118 1.362 . S
H120 C126 0.930 . S
H121 C129 0.930 . S
H122 C130 0.930 . S
H123 C131 0.930 . S
H124 C134 0.930 . S
H125 C135 0.930 . S
C126 H120 0.930 . S
C126 C127 1.355 1_545 S
C126 C128 1.415 . S
C127 C126 1.355 1_565 S
C127 C129 1.419 . S
C128 C126 1.415 . S
C128 C133 1.425 1_545 S
C128 C135 1.409 . S
C129 H121 0.930 . S
C129 C127 1.419 . S
C129 C130 1.362 . S
C130 H122 0.930 . S
C130 C129 1.362 . S
C130 C133 1.409 . S
C131 H123 0.930 . S
C131 C132 1.355 1_565 S
C131 C133 1.415 . S
C132 C131 1.355 1_545 S
C132 C134 1.419 . S
C133 C128 1.425 1_565 S
C133 C130 1.409 . S
C133 C131 1.415 . S
C134 H124 0.930 . S
C134 C132 1.419 . S
C134 C135 1.362 . S
C135 H125 0.930 . S
C135 C128 1.409 . S
C135 C134 1.362 . S
H136 C142 0.930 . S
H137 C145 0.930 . S
H138 C146 0.930 . S
H139 C147 0.930 . S
H140 C150 0.930 . S
H141 C151 0.930 . S
C142 H136 0.930 . S
C142 C143 1.359 . S
C142 C144 1.415 . S
C143 C142 1.359 . S
C143 C145 1.413 1_455 S
C144 C142 1.415 . S
C144 C149 1.425 1_455 S
C144 C151 1.409 . S
C145 H137 0.930 . S
C145 C143 1.413 1_655 S
C145 C146 1.362 . S
C146 H138 0.930 . S
C146 C145 1.362 . S
C146 C149 1.409 . S
C147 H139 0.930 . S
C147 C148 1.355 . S
C147 C149 1.415 . S
C148 C147 1.355 . S
C148 C150 1.419 1_655 S
C149 C144 1.425 1_655 S
C149 C146 1.409 . S
C149 C147 1.415 . S
C150 H140 0.930 . S
C150 C148 1.419 1_455 S
C150 C151 1.362 . S
C151 H141 0.930 . S
C151 C144 1.409 . S
C151 C150 1.362 . S
H152 C158 0.930 . S
H153 C161 0.930 . S
H154 C162 0.930 . S
H155 C163 0.930 . S
H156 C166 0.930 . S
H157 C167 0.930 . S
C158 H152 0.930 . S
C158 C159 1.355 . S
C158 C160 1.415 . S
C159 C158 1.355 . S
C159 C161 1.419 1_565 S
C160 C158 1.415 . S
C160 C165 1.424 1_565 S
C160 C167 1.409 . S
C161 H153 0.930 . S
C161 C159 1.419 1_545 S
C161 C162 1.362 . S
C162 H154 0.930 . S
C162 C161 1.362 . S
C162 C165 1.410 . S
C163 H155 0.930 . S
C163 C164 1.355 1_545 S
C163 C165 1.415 . S
C164 C163 1.355 1_565 S
C164 C166 1.419 . S
C165 C160 1.424 1_545 S
C165 C162 1.410 . S
C165 C163 1.415 . S
C166 H156 0.930 . S
C166 C164 1.419 . S
C166 C167 1.362 . S
C167 H157 0.930 . S
C167 C160 1.409 . S
C167 C166 1.362 . S
H168 C174 0.930 . S
H169 C177 0.930 . S
H170 C178 0.930 . S
H171 C179 0.930 . S
H172 C182 0.930 . S
H173 C183 0.930 . S
C174 H168 0.930 . S
C174 C175 1.355 1_455 S
C174 C176 1.415 . S
C175 C174 1.355 1_655 S
C175 C177 1.419 . S
C176 C174 1.415 . S
C176 C181 1.425 1_455 S
C176 C183 1.409 . S
C177 H169 0.930 . S
C177 C175 1.419 . S
C177 C178 1.362 . S
C178 H170 0.930 . S
C178 C177 1.362 . S
C178 C181 1.409 . S
C179 H171 0.930 . S
C179 C180 1.355 1_655 S
C179 C181 1.415 . S
C180 C179 1.355 1_455 S
C180 C182 1.419 . S
C181 C176 1.425 1_655 S
C181 C178 1.409 . S
C181 C179 1.415 . S
C182 H172 0.930 . S
C182 C180 1.419 . S
C182 C183 1.362 . S
C183 H173 0.930 . S
C183 C176 1.409 . S
C183 C182 1.362 . S
H184 C190 0.930 . S
H185 C193 0.930 . S
H186 C194 0.930 . S
H187 C195 0.930 . S
H188 C198 0.930 . S
H189 C199 0.930 . S
C190 H184 0.930 . S
C190 C191 1.355 1_565 S
C190 C192 1.415 . S
C191 C190 1.355 1_545 S
C191 C193 1.419 . S
C192 C190 1.415 . S
C192 C197 1.425 1_565 S
C192 C199 1.409 . S
C193 H185 0.930 . S
C193 C191 1.419 . S
C193 C194 1.362 . S
C194 H186 0.930 . S
C194 C193 1.362 . S
C194 C197 1.409 . S
C195 H187 0.930 . S
C195 C196 1.358 . S
C195 C197 1.415 . S
C196 C195 1.358 . S
C196 C198 1.415 1_545 S
C197 C192 1.425 1_545 S
C197 C194 1.409 . S
C197 C195 1.415 . S
C198 H188 0.930 . S
C198 C196 1.415 1_565 S
C198 C199 1.362 . S
C199 H189 0.930 . S
C199 C192 1.409 . S
C199 C198 1.362 . S
C79 C22 1.527 . S
C84 C41 1.520 1_455 S
C95 C8 1.577 1_565 S
C100 C61 1.557 . S
C111 C31 1.524 1_655 S
C116 C50 1.567 . S
C127 C17 1.500 . S
C132 C70 1.564 . S
C143 C30 1.564 . S
C148 C47 1.571 . S
C159 C27 1.560 . S
C164 C67 1.494 . S
C180 C44 1.527 . S
C175 C23 1.530 . S
C191 C24 1.492 . S
C196 C64 1.558 . S
