# Generated by pormake.
# Topology tsx, (6,3)-cn, num edge types: 1
# Building blocks:
#     Node 0, Type 0, BuildingBlock: VOLQOD_clean_sbu_1, # of connection points: 6
#     Node 1, Type 0, BuildingBlock: VOLQOD_clean_sbu_1, # of connection points: 6
#     Node 2, Type 1, BuildingBlock: PAMTOO_clean_linker_0, # of connection points: 3
#     Node 3, Type 1, BuildingBlock: PAMTOO_clean_linker_0, # of connection points: 3
#     Node 4, Type 1, BuildingBlock: PAMTOO_clean_linker_0, # of connection points: 3
#     Node 5, Type 1, BuildingBlock: PAMTOO_clean_linker_0, # of connection points: 3
#     Edge 6, Type (0, 1), BuildingBlock: AJUNOK_clean_linker_0, # of connection points: 2
#     Edge 7, Type (0, 1), BuildingBlock: AJUNOK_clean_linker_0, # of connection points: 2
#     Edge 8, Type (0, 1), BuildingBlock: AJUNOK_clean_linker_0, # of connection points: 2
#     Edge 9, Type (0, 1), BuildingBlock: AJUNOK_clean_linker_0, # of connection points: 2
#     Edge 10, Type (0, 1), BuildingBlock: AJUNOK_clean_linker_0, # of connection points: 2
#     Edge 11, Type (0, 1), BuildingBlock: AJUNOK_clean_linker_0, # of connection points: 2
#     Edge 12, Type (0, 1), BuildingBlock: AJUNOK_clean_linker_0, # of connection points: 2
#     Edge 13, Type (0, 1), BuildingBlock: AJUNOK_clean_linker_0, # of connection points: 2
#     Edge 14, Type (0, 1), BuildingBlock: AJUNOK_clean_linker_0, # of connection points: 2
#     Edge 15, Type (0, 1), BuildingBlock: AJUNOK_clean_linker_0, # of connection points: 2
#     Edge 16, Type (0, 1), BuildingBlock: AJUNOK_clean_linker_0, # of connection points: 2
#     Edge 17, Type (0, 1), BuildingBlock: AJUNOK_clean_linker_0, # of connection points: 2
# Relax obj value: 0.055
# Max RMSD: 0.110
# Mean RMSD: 0.099
data_MOF--net-tsx--node1-VOLQOD_clean_sbu_1--node2-PAMTOO_clean_linker_0--edge1-AJUNOK_clean_linker_0
_symmetry_space_group_name_H-M    P1
_symmetry_Int_Tables_number       1
_symmetry_cell_setting            triclinic
loop_
_symmetry_equiv_pos_as_xyz
'x, y, z'
_cell_length_a     15.532043
_cell_length_b     16.352462
_cell_length_c     28.443106
_cell_angle_alpha  82.752829
_cell_angle_beta   89.462156
_cell_angle_gamma 89.968466
loop_
_atom_site_label
_atom_site_type_symbol
_atom_site_fract_x
_atom_site_fract_y
_atom_site_fract_z
_atom_type_partial_charge
O0 O 0.09404 0.96579 0.10352 0.0
Zn1 Zn 0.13744 0.98891 0.03606 0.0
O2 O 0.04175 0.01563 -0.00663 0.0
Zn3 Zn 0.02347 0.9242 0.95744 0.0
Zn4 Zn 0.93929 0.0348 0.03025 0.0
Zn5 Zn 0.06859 0.11359 0.95015 0.0
O6 O 0.01504 0.96375 0.888 0.0
O7 O 0.07709 0.08726 0.88318 0.0
O8 O 0.21016 0.89495 0.01645 0.0
O9 O 0.12734 0.85126 0.96156 0.0
O10 O 0.91788 0.85841 0.98097 0.0
O11 O 0.85746 0.93884 0.02935 0.0
O12 O 0.87788 0.1409 0.00426 0.0
O13 O 0.21407 0.08825 0.0348 0.0
O14 O 0.97138 0.19462 0.94962 0.0
O15 O 0.17553 0.17006 0.97002 0.0
C16 C 0.03095 0.99887 0.12308 0.0
C17 C 0.04611 0.02786 0.86367 0.0
C18 C 0.85722 0.87344 0.00919 0.0
C19 C 0.19683 0.84728 0.98505 0.0
C20 C 0.90022 0.1983 0.97186 0.0
C21 C 0.22388 0.15381 0.00595 0.0
O22 O 0.97138 0.03736 0.09891 0.0
O23 O 0.58927 0.47566 0.59741 0.0
Zn24 Zn 0.61485 0.49266 0.52743 0.0
O25 O 0.50799 0.51423 0.49283 0.0
Zn26 Zn 0.48448 0.42619 0.45514 0.0
Zn27 Zn 0.41254 0.52542 0.53632 0.0
Zn28 Zn 0.51988 0.61596 0.45087 0.0
O29 O 0.48612 0.46771 0.38585 0.0
O30 O 0.53858 0.59462 0.3839 0.0
O31 O 0.67853 0.39326 0.50727 0.0
O32 O 0.58056 0.34463 0.46155 0.0
O33 O 0.37277 0.36732 0.47442 0.0
O34 O 0.32981 0.43206 0.53448 0.0
O35 O 0.3426 0.62827 0.51703 0.0
O36 O 0.69015 0.59453 0.51987 0.0
O37 O 0.41122 0.68063 0.45106 0.0
O38 O 0.61561 0.685 0.47185 0.0
C39 C 0.52572 0.49566 0.62229 0.0
C40 C 0.51563 0.53388 0.36302 0.0
C41 C 0.31936 0.37613 0.50769 0.0
C42 C 0.65414 0.34004 0.48096 0.0
C43 C 0.34883 0.68096 0.48022 0.0
C44 C 0.6797 0.66739 0.49885 0.0
O45 O 0.45518 0.52146 0.60323 0.0
H46 H 0.14272 0.89713 0.33438 0.0
H47 H 0.94551 0.08195 0.33413 0.0
H48 H 0.05046 0.97194 0.46566 0.0
H49 H 0.8858 0.02467 0.48106 0.0
C50 C 0.87197 0.06183 0.44681 0.0
O51 O 0.94896 0.08672 0.42527 0.0
H52 H 0.83593 0.02128 0.42517 0.0
C53 C 0.09935 0.93327 0.35351 0.0
C54 C 0.10249 0.92511 0.40333 0.0
C55 C 0.04098 0.98711 0.32802 0.0
C56 C 0.99057 0.03915 0.35277 0.0
C57 C 0.99687 0.03547 0.40205 0.0
C58 C 0.05104 0.97742 0.42736 0.0
H59 H 0.12914 0.15062 0.64751 0.0
H60 H 0.96569 0.93778 0.65739 0.0
H61 H 0.01992 0.074 0.52134 0.0
H62 H 0.82597 1.00097 0.55448 0.0
C63 C 0.8537 0.94116 0.57018 0.0
O64 O 0.9424 0.94359 0.56657 0.0
H65 H 0.83366 0.9314 0.60812 0.0
C66 C 0.08824 0.10972 0.63043 0.0
C67 C 0.07977 0.12143 0.58087 0.0
C68 C 0.04475 0.04606 0.6585 0.0
C69 C 0.99846 0.98848 0.63635 0.0
C70 C 0.98957 0.99858 0.58701 0.0
C71 C 0.02899 0.06567 0.55929 0.0
H72 H 0.67278 0.40398 0.82866 0.0
H73 H 0.49645 0.60712 0.82999 0.0
H74 H 0.6377 0.51894 0.95511 0.0
H75 H 0.46854 0.56497 0.98032 0.0
C76 C 0.44656 0.59717 0.94617 0.0
O77 O 0.51812 0.62258 0.91918 0.0
H78 H 0.40811 0.55248 0.92859 0.0
C79 C 0.64253 0.4507 0.84711 0.0
C80 C 0.66229 0.45476 0.89477 0.0
C81 C 0.58292 0.50522 0.82329 0.0
C82 C 0.54239 0.5642 0.84775 0.0
C83 C 0.56146 0.56877 0.89531 0.0
C84 C 0.62219 0.51474 0.9186 0.0
H85 H 0.64627 0.65458 0.15262 0.0
H86 H 0.49135 0.43582 0.15581 0.0
H87 H 0.58989 0.55574 0.02358 0.0
H88 H 0.38901 0.48857 0.03176 0.0
C89 C 0.4064 0.43655 0.05871 0.0
O90 O 0.49449 0.43257 0.06481 0.0
H91 H 0.37378 0.44882 0.09217 0.0
C92 C 0.61428 0.60912 0.13426 0.0
C93 C 0.62247 0.61367 0.08486 0.0
C94 C 0.56621 0.54597 0.16017 0.0
C95 C 0.52925 0.4848 0.13643 0.0
C96 C 0.53632 0.48885 0.08717 0.0
C97 C 0.58373 0.55282 0.06146 0.0
C98 C 0.29484 0.22813 0.06626 0.0
C99 C 0.28389 0.21771 0.01829 0.0
C100 C 0.33832 0.29681 0.07914 0.0
C101 C 0.37279 0.35705 0.04451 0.0
H102 H 0.26534 0.18554 0.09405 0.0
H103 H 0.34154 0.3048 0.11632 0.0
S104 S 0.37833 0.34928 0.91489 0.0
N105 N 0.32165 0.2673 0.93647 0.0
N106 N 0.40622 0.3949 0.96107 0.0
C107 C 0.36954 0.34335 -0.00318 0.0
C108 C 0.32395 0.27421 0.98356 0.0
C109 C 0.32536 0.75782 0.00791 0.0
C110 C 0.26438 0.78826 0.97376 0.0
C111 C 0.38654 0.69864 -0.00171 0.0
C112 C 0.38924 0.66856 0.95405 0.0
H113 H 0.3242 0.77793 0.04278 0.0
H114 H 0.43031 0.67449 0.02608 0.0
S115 S 0.2522 0.73584 0.85051 0.0
N116 N 0.21643 0.78903 0.89231 0.0
N117 N 0.33164 0.67844 0.87462 0.0
C118 C 0.33204 0.70166 0.91886 0.0
C119 C 0.26939 0.76114 0.92865 0.0
C120 C 0.80151 0.72845 0.01289 0.0
C121 C 0.78903 0.81046 0.02209 0.0
C122 C 0.74434 0.66538 0.03087 0.0
C123 C 0.6728 0.6821 0.05868 0.0
H124 H 0.858 0.71191 -0.00642 0.0
H125 H 0.75874 0.60255 0.02509 0.0
S126 S 0.60172 0.88758 0.08581 0.0
N127 N 0.69257 0.90585 0.05571 0.0
N128 N 0.58576 0.7872 0.08926 0.0
C129 C 0.65596 0.76434 0.06517 0.0
C130 C 0.71389 0.82852 0.04695 0.0
C131 C 0.8626 0.32408 0.91639 0.0
C132 C 0.84094 0.26829 0.95673 0.0
C133 C 0.80564 0.38585 0.89779 0.0
C134 C 0.7248 0.39534 0.91888 0.0
H135 H 0.92322 0.31878 0.89788 0.0
H136 H 0.82435 0.42563 0.86594 0.0
S137 S 0.63751 0.27037 0.02657 0.0
N138 N 0.73333 0.23005 0.01857 0.0
N139 N 0.62653 0.34696 0.9833 0.0
C140 C 0.70316 0.34278 0.96027 0.0
C141 C 0.76105 0.27907 0.97921 0.0
C142 C 0.7139 0.8179 0.49478 0.0
C143 C 0.73544 0.73545 0.51122 0.0
C144 C 0.75461 0.88401 0.51242 0.0
C145 C 0.81907 0.87042 0.54682 0.0
H146 H 0.66234 0.83183 0.46967 0.0
H147 H 0.73323 0.94609 0.50027 0.0
S148 S 0.9067 0.66817 0.59806 0.0
N149 N 0.8315 0.64501 0.56127 0.0
N150 N 0.90727 0.76974 0.59433 0.0
C151 C 0.8447 0.78901 0.56171 0.0
C152 C 0.80335 0.72147 0.54383 0.0
C153 C 0.77397 0.24018 0.50441 0.0
C154 C 0.71249 0.27234 0.47104 0.0
C155 C 0.82594 0.17293 0.49623 0.0
C156 C 0.81827 0.13584 0.45441 0.0
H157 H 0.78059 0.2658 0.53751 0.0
H158 H 0.87144 0.14904 0.52311 0.0
S159 S 0.676 0.20364 0.35313 0.0
N160 N 0.6529 0.26644 0.39259 0.0
N161 N 0.75105 0.14088 0.37747 0.0
C162 C 0.76026 0.16988 0.41988 0.0
C163 C 0.70701 0.2377 0.42821 0.0
C164 C 0.18852 0.3288 0.55503 0.0
C165 C 0.24695 0.31715 0.51834 0.0
C166 C 0.12903 0.26787 0.57197 0.0
C167 C 0.12588 0.19211 0.55343 0.0
H168 H 0.19104 0.3839 0.5725 0.0
H169 H 0.08825 0.27853 0.60172 0.0
S170 S 0.24983 0.13899 0.4493 0.0
N171 N 0.28686 0.23037 0.45806 0.0
N172 N 0.17537 0.11527 0.49057 0.0
C173 C 0.17715 0.18326 0.51335 0.0
C174 C 0.23786 0.24576 0.49579 0.0
C175 C 0.22468 0.72387 0.42984 0.0
C176 C 0.27789 0.73805 0.46744 0.0
C177 C 0.16491 0.78296 0.41138 0.0
C178 C 0.15778 0.85961 0.42897 0.0
H179 H 0.23099 0.66752 0.41371 0.0
H180 H 0.12566 0.76915 0.3821 0.0
S181 S 0.27939 0.92207 0.53068 0.0
N182 N 0.31654 0.82932 0.52459 0.0
N183 N 0.2059 0.94239 0.48927 0.0
C184 C 0.20809 0.87221 0.46851 0.0
C185 C 0.26819 0.81108 0.48773 0.0
C186 C 0.02302 0.06687 0.19664 0.0
C187 C 0.02842 0.99437 0.17505 0.0
C188 C 0.02625 0.06412 0.2461 0.0
C189 C 0.03329 0.98855 0.2757 0.0
H190 H 0.019 0.12627 0.17506 0.0
H191 H 0.0253 0.12177 0.26112 0.0
S192 S 0.03704 0.78063 0.23574 0.0
N193 N 0.0352 0.84512 0.18617 0.0
N194 N 0.03581 0.83878 0.27917 0.0
C195 C 0.03449 0.91533 0.2542 0.0
C196 C 0.03344 0.91854 0.20387 0.0
C197 C 0.05808 0.96255 0.78916 0.0
C198 C 0.04564 0.03362 0.81157 0.0
C199 C 0.05824 0.96688 0.73962 0.0
C200 C 0.04495 0.04228 0.71089 0.0
H201 H 0.06909 0.90339 0.81003 0.0
H202 H 0.06969 0.911 0.72373 0.0
S203 S 1.00018 0.24441 0.75279 0.0
N204 N 0.01522 0.18049 0.80174 0.0
N205 N 0.01228 0.1884 0.70879 0.0
C206 C 0.03024 0.11339 0.73308 0.0
C207 C 0.03143 0.10912 0.78338 0.0
C208 C 0.62095 0.4942 0.69253 0.0
C209 C 0.53716 0.49457 0.67404 0.0
C210 C 0.63477 0.49767 0.74072 0.0
C211 C 0.56545 0.50125 0.7725 0.0
H212 H 0.67675 0.49297 0.66948 0.0
H213 H 0.70049 0.49885 0.75308 0.0
S214 S 0.33344 0.49728 0.74327 0.0
N215 N 0.38352 0.49513 0.69195 0.0
N216 N 0.40995 0.50029 0.78292 0.0
C217 C 0.48128 0.50007 0.75489 0.0
C218 C 0.46704 0.49695 0.70561 0.0
C219 C 0.54889 0.46735 0.29105 0.0
C220 C 0.5268 0.53865 0.31135 0.0
C221 C 0.56222 0.47041 0.24218 0.0
C222 C 0.55288 0.54466 0.21184 0.0
H223 H 0.55755 0.40901 0.31319 0.0
H224 H 0.58083 0.41436 0.22811 0.0
S225 S 0.48797 0.74693 0.24722 0.0
N226 N 0.49246 0.68468 0.29757 0.0
N227 N 0.51441 0.69001 0.20532 0.0
C228 C 0.52895 0.61608 0.23166 0.0
C229 C 0.51665 0.61316 0.28152 0.0
loop_
_geom_bond_atom_site_label_1
_geom_bond_atom_site_label_2
_geom_bond_distance
_geom_bond_site_symmetry_2
_ccdc_geom_bond_type
O0 Zn1 1.953 . S
O0 C16 1.225 . S
Zn1 O0 1.953 . S
Zn1 O2 1.949 1_565 S
Zn1 O8 1.919 . S
Zn1 O13 1.924 1_565 S
O2 Zn1 1.949 1_545 S
O2 Zn3 1.923 1_444 S
O2 Zn4 1.950 1_455 S
O2 Zn5 1.945 1_554 S
Zn3 O2 1.923 1_666 S
Zn3 O6 1.933 1_655 S
Zn3 O9 1.940 1_655 S
Zn3 O10 1.967 . S
Zn4 O2 1.950 1_655 S
Zn4 O11 1.938 1_545 S
Zn4 O12 1.906 . S
Zn4 O22 1.953 . S
Zn5 O2 1.945 1_556 S
Zn5 O7 1.932 . S
Zn5 O14 1.977 1_455 S
Zn5 O15 1.910 . S
O6 Zn3 1.933 1_455 S
O6 C17 1.226 1_565 S
O7 Zn5 1.932 . S
O7 C17 1.307 . S
O8 Zn1 1.919 . S
O8 C19 1.253 . S
O9 Zn3 1.940 1_455 S
O9 C19 1.283 1_556 S
O10 Zn3 1.967 . S
O10 C18 1.303 1_556 S
O11 Zn4 1.938 1_565 S
O11 C18 1.247 . S
O12 Zn4 1.906 . S
O12 C20 1.304 1_554 S
O13 Zn1 1.924 1_545 S
O13 C21 1.311 . S
O14 Zn5 1.977 1_655 S
O14 C20 1.272 . S
O15 Zn5 1.910 . S
O15 C21 1.231 1_556 S
C16 O0 1.225 . S
C16 O22 1.298 1_465 S
C17 O6 1.226 1_545 S
C17 O7 1.307 . S
C18 O10 1.303 1_554 S
C18 O11 1.247 . S
C19 O8 1.253 . S
C19 O9 1.283 1_554 S
C20 O12 1.304 1_556 S
C20 O14 1.272 . S
C21 O13 1.311 . S
C21 O15 1.231 1_554 S
O22 Zn4 1.953 . S
O22 C16 1.298 1_645 S
O23 Zn24 1.953 . S
O23 C39 1.225 . S
Zn24 O23 1.953 . S
Zn24 O25 1.949 . S
Zn24 O31 1.919 . S
Zn24 O36 1.924 . S
O25 Zn24 1.949 . S
O25 Zn26 1.923 . S
O25 Zn27 1.950 . S
O25 Zn28 1.945 . S
Zn26 O25 1.923 . S
Zn26 O29 1.933 . S
Zn26 O32 1.941 . S
Zn26 O33 1.965 . S
Zn27 O25 1.950 . S
Zn27 O34 1.938 . S
Zn27 O35 1.906 . S
Zn27 O45 1.953 . S
Zn28 O25 1.945 . S
Zn28 O30 1.932 . S
Zn28 O37 1.977 . S
Zn28 O38 1.910 . S
O29 Zn26 1.933 . S
O29 C40 1.226 . S
O30 Zn28 1.932 . S
O30 C40 1.307 . S
O31 Zn24 1.919 . S
O31 C42 1.253 . S
O32 Zn26 1.941 . S
O32 C42 1.283 . S
O33 Zn26 1.965 . S
O33 C41 1.303 . S
O34 Zn27 1.938 . S
O34 C41 1.247 . S
O35 Zn27 1.906 . S
O35 C43 1.304 . S
O36 Zn24 1.924 . S
O36 C44 1.311 . S
O37 Zn28 1.977 . S
O37 C43 1.272 . S
O38 Zn28 1.910 . S
O38 C44 1.231 . S
C39 O23 1.225 . S
C39 O45 1.298 . S
C40 O29 1.226 . S
C40 O30 1.307 . S
C41 O33 1.303 . S
C41 O34 1.247 . S
C42 O31 1.253 . S
C42 O32 1.283 . S
C43 O35 1.304 . S
C43 O37 1.272 . S
C44 O36 1.311 . S
C44 O38 1.231 . S
O45 Zn27 1.953 . S
O45 C39 1.298 . S
H46 C53 0.929 . S
H47 C56 0.930 . S
H48 C58 0.929 . S
H49 C50 0.969 . S
C50 H49 0.969 . S
C50 O51 1.550 . S
C50 H52 0.973 . S
O51 C50 1.550 . S
O51 C57 1.412 . S
H52 C50 0.973 . S
C53 H46 0.929 . S
C53 C54 1.400 . S
C53 C55 1.364 . S
C54 C53 1.400 . S
C54 C58 1.377 . S
C55 C53 1.364 . S
C55 C56 1.374 1_465 S
C56 H47 0.930 . S
C56 C55 1.374 1_645 S
C56 C57 1.383 . S
C57 O51 1.412 . S
C57 C56 1.383 . S
C57 C58 1.394 1_645 S
C58 H48 0.929 . S
C58 C54 1.377 . S
C58 C57 1.394 1_465 S
H59 C66 0.929 . S
H60 C69 0.930 . S
H61 C71 0.929 . S
H62 C63 0.969 . S
C63 H62 0.969 . S
C63 O64 1.550 . S
C63 H65 0.973 . S
O64 C63 1.550 . S
O64 C70 1.412 1_565 S
H65 C63 0.973 . S
C66 H59 0.929 . S
C66 C67 1.400 . S
C66 C68 1.364 . S
C67 C66 1.400 . S
C67 C71 1.377 . S
C68 C66 1.364 . S
C68 C69 1.374 1_445 S
C69 H60 0.930 . S
C69 C68 1.374 1_665 S
C69 C70 1.383 1_565 S
C70 O64 1.412 1_545 S
C70 C69 1.383 1_545 S
C70 C71 1.394 1_655 S
C71 H61 0.929 . S
C71 C67 1.377 . S
C71 C70 1.394 1_455 S
H72 C79 0.929 . S
H73 C82 0.930 . S
H74 C84 0.929 . S
H75 C76 0.969 . S
C76 H75 0.969 . S
C76 O77 1.550 . S
C76 H78 0.973 . S
O77 C76 1.550 . S
O77 C83 1.412 . S
H78 C76 0.973 . S
C79 H72 0.929 . S
C79 C80 1.400 . S
C79 C81 1.364 . S
C80 C79 1.400 . S
C80 C84 1.377 . S
C81 C79 1.364 . S
C81 C82 1.374 . S
C82 H73 0.930 . S
C82 C81 1.374 . S
C82 C83 1.383 . S
C83 O77 1.412 . S
C83 C82 1.383 . S
C83 C84 1.394 . S
C84 H74 0.929 . S
C84 C80 1.377 . S
C84 C83 1.394 . S
H85 C92 0.929 . S
H86 C95 0.930 . S
H87 C97 0.929 . S
H88 C89 0.969 . S
C89 H88 0.969 . S
C89 O90 1.550 . S
C89 H91 0.973 . S
O90 C89 1.550 . S
O90 C96 1.412 . S
H91 C89 0.973 . S
C92 H85 0.929 . S
C92 C93 1.400 . S
C92 C94 1.364 . S
C93 C92 1.400 . S
C93 C97 1.377 . S
C94 C92 1.364 . S
C94 C95 1.374 . S
C95 H86 0.930 . S
C95 C94 1.374 . S
C95 C96 1.383 . S
C96 O90 1.412 . S
C96 C95 1.383 . S
C96 C97 1.394 . S
C97 H87 0.929 . S
C97 C93 1.377 . S
C97 C96 1.394 . S
C98 C99 1.369 . S
C98 C100 1.419 . S
C98 H102 0.930 . S
C99 C98 1.369 . S
C99 C108 1.429 . S
C100 C98 1.419 . S
C100 C101 1.363 . S
C100 H103 0.929 . S
C101 C100 1.363 . S
C101 C107 1.428 . S
H102 C98 0.930 . S
H103 C100 0.929 . S
S104 N105 1.613 . S
S104 N106 1.619 . S
N105 S104 1.613 . S
N105 C108 1.350 1_556 S
N106 S104 1.619 . S
N106 C107 1.344 1_556 S
C107 C101 1.428 . S
C107 N106 1.344 1_554 S
C107 C108 1.434 . S
C108 C99 1.429 . S
C108 N105 1.350 1_554 S
C108 C107 1.434 . S
C109 C110 1.369 1_554 S
C109 C111 1.419 . S
C109 H113 0.930 . S
C110 C109 1.369 1_556 S
C110 C119 1.429 . S
C111 C109 1.419 . S
C111 C112 1.363 1_554 S
C111 H114 0.929 . S
C112 C111 1.363 1_556 S
C112 C118 1.428 . S
H113 C109 0.930 . S
H114 C111 0.929 . S
S115 N116 1.613 . S
S115 N117 1.610 . S
N116 S115 1.613 . S
N116 C119 1.350 . S
N117 S115 1.610 . S
N117 C118 1.351 . S
C118 C112 1.428 . S
C118 N117 1.351 . S
C118 C119 1.434 . S
C119 C110 1.429 . S
C119 N116 1.350 . S
C119 C118 1.434 . S
C120 C121 1.369 . S
C120 C122 1.419 . S
C120 H124 0.930 . S
C121 C120 1.369 . S
C121 C130 1.429 . S
C122 C120 1.419 . S
C122 C123 1.363 . S
C122 H125 0.929 . S
C123 C122 1.363 . S
C123 C129 1.428 . S
H124 C120 0.930 . S
H125 C122 0.929 . S
S126 N127 1.613 . S
S126 N128 1.610 . S
N127 S126 1.613 . S
N127 C130 1.350 . S
N128 S126 1.610 . S
N128 C129 1.351 . S
C129 C123 1.428 . S
C129 N128 1.351 . S
C129 C130 1.434 . S
C130 C121 1.429 . S
C130 N127 1.350 . S
C130 C129 1.434 . S
C131 C132 1.369 . S
C131 C133 1.419 . S
C131 H135 0.930 . S
C132 C131 1.369 . S
C132 C141 1.429 1_556 S
C133 C131 1.419 . S
C133 C134 1.363 . S
C133 H136 0.929 . S
C134 C133 1.363 . S
C134 C140 1.428 . S
H135 C131 0.930 . S
H136 C133 0.929 . S
S137 N138 1.613 . S
S137 N139 1.610 . S
N138 S137 1.613 . S
N138 C141 1.350 . S
N139 S137 1.610 . S
N139 C140 1.351 1_554 S
C140 C134 1.428 . S
C140 N139 1.351 1_556 S
C140 C141 1.434 1_556 S
C141 C132 1.429 1_554 S
C141 N138 1.350 . S
C141 C140 1.434 1_554 S
C142 C143 1.369 . S
C142 C144 1.419 . S
C142 H146 0.930 . S
C143 C142 1.369 . S
C143 C152 1.429 . S
C144 C142 1.419 . S
C144 C145 1.363 . S
C144 H147 0.929 . S
C145 C144 1.363 . S
C145 C151 1.428 . S
H146 C142 0.930 . S
H147 C144 0.929 . S
S148 N149 1.613 . S
S148 N150 1.610 . S
N149 S148 1.613 . S
N149 C152 1.350 . S
N150 S148 1.610 . S
N150 C151 1.351 . S
C151 C145 1.428 . S
C151 N150 1.351 . S
C151 C152 1.434 . S
C152 C143 1.429 . S
C152 N149 1.350 . S
C152 C151 1.434 . S
C153 C154 1.369 . S
C153 C155 1.419 . S
C153 H157 0.930 . S
C154 C153 1.369 . S
C154 C163 1.429 . S
C155 C153 1.419 . S
C155 C156 1.363 . S
C155 H158 0.929 . S
C156 C155 1.363 . S
C156 C162 1.428 . S
H157 C153 0.930 . S
H158 C155 0.929 . S
S159 N160 1.613 . S
S159 N161 1.610 . S
N160 S159 1.613 . S
N160 C163 1.350 . S
N161 S159 1.610 . S
N161 C162 1.351 . S
C162 C156 1.428 . S
C162 N161 1.351 . S
C162 C163 1.434 . S
C163 C154 1.429 . S
C163 N160 1.350 . S
C163 C162 1.434 . S
C164 C165 1.369 . S
C164 C166 1.419 . S
C164 H168 0.930 . S
C165 C164 1.369 . S
C165 C174 1.429 . S
C166 C164 1.419 . S
C166 C167 1.363 . S
C166 H169 0.929 . S
C167 C166 1.363 . S
C167 C173 1.428 . S
H168 C164 0.930 . S
H169 C166 0.929 . S
S170 N171 1.613 . S
S170 N172 1.610 . S
N171 S170 1.613 . S
N171 C174 1.350 . S
N172 S170 1.610 . S
N172 C173 1.351 . S
C173 C167 1.428 . S
C173 N172 1.351 . S
C173 C174 1.434 . S
C174 C165 1.429 . S
C174 N171 1.350 . S
C174 C173 1.434 . S
C175 C176 1.369 . S
C175 C177 1.419 . S
C175 H179 0.930 . S
C176 C175 1.369 . S
C176 C185 1.429 . S
C177 C175 1.419 . S
C177 C178 1.363 . S
C177 H180 0.929 . S
C178 C177 1.363 . S
C178 C184 1.428 . S
H179 C175 0.930 . S
H180 C177 0.929 . S
S181 N182 1.613 . S
S181 N183 1.610 . S
N182 S181 1.613 . S
N182 C185 1.350 . S
N183 S181 1.610 . S
N183 C184 1.351 . S
C184 C178 1.428 . S
C184 N183 1.351 . S
C184 C185 1.434 . S
C185 C176 1.429 . S
C185 N182 1.350 . S
C185 C184 1.434 . S
C186 C187 1.369 1_645 S
C186 C188 1.419 . S
C186 H190 0.930 . S
C187 C186 1.369 1_465 S
C187 C196 1.429 . S
C188 C186 1.419 . S
C188 C189 1.363 1_645 S
C188 H191 0.929 . S
C189 C188 1.363 1_465 S
C189 C195 1.428 . S
H190 C186 0.930 . S
H191 C188 0.929 . S
S192 N193 1.613 . S
S192 N194 1.610 . S
N193 S192 1.613 . S
N193 C196 1.350 . S
N194 S192 1.610 . S
N194 C195 1.351 . S
C195 C189 1.428 . S
C195 N194 1.351 . S
C195 C196 1.434 . S
C196 C187 1.429 . S
C196 N193 1.350 . S
C196 C195 1.434 . S
C197 C198 1.369 1_565 S
C197 C199 1.419 . S
C197 H201 0.930 . S
C198 C197 1.369 1_545 S
C198 C207 1.429 1_455 S
C199 C197 1.419 . S
C199 C200 1.363 1_565 S
C199 H202 0.929 . S
C200 C199 1.363 1_545 S
C200 C206 1.428 1_455 S
H201 C197 0.930 . S
H202 C199 0.929 . S
S203 N204 1.613 . S
S203 N205 1.610 . S
N204 S203 1.613 . S
N204 C207 1.350 . S
N205 S203 1.610 . S
N205 C206 1.351 . S
C206 C200 1.428 1_655 S
C206 N205 1.351 . S
C206 C207 1.434 . S
C207 C198 1.429 1_655 S
C207 N204 1.350 . S
C207 C206 1.434 . S
C208 C209 1.369 . S
C208 C210 1.419 . S
C208 H212 0.930 . S
C209 C208 1.369 . S
C209 C218 1.429 . S
C210 C208 1.419 . S
C210 C211 1.363 . S
C210 H213 0.929 . S
C211 C210 1.363 . S
C211 C217 1.428 . S
H212 C208 0.930 . S
H213 C210 0.929 . S
S214 N215 1.613 . S
S214 N216 1.610 . S
N215 S214 1.613 . S
N215 C218 1.350 . S
N216 S214 1.610 . S
N216 C217 1.351 . S
C217 C211 1.428 . S
C217 N216 1.351 . S
C217 C218 1.434 . S
C218 C209 1.429 . S
C218 N215 1.350 . S
C218 C217 1.434 . S
C219 C220 1.369 . S
C219 C221 1.419 . S
C219 H223 0.930 . S
C220 C219 1.369 . S
C220 C229 1.429 . S
C221 C219 1.419 . S
C221 C222 1.363 . S
C221 H224 0.929 . S
C222 C221 1.363 . S
C222 C228 1.428 . S
H223 C219 0.930 . S
H224 C221 0.929 . S
S225 N226 1.613 . S
S225 N227 1.610 . S
N226 S225 1.613 . S
N226 C229 1.350 . S
N227 S225 1.610 . S
N227 C228 1.351 . S
C228 C222 1.428 . S
C228 N227 1.351 . S
C228 C229 1.434 . S
C229 C220 1.429 . S
C229 N226 1.350 . S
C229 C228 1.434 . S
C101 C89 1.357 . S
C99 C21 1.444 . S
C110 C19 1.438 1_556 S
C112 C76 1.357 . S
C121 C18 1.477 . S
C123 C93 1.500 . S
C132 C20 1.511 . S
C134 C80 1.511 . S
C143 C44 1.444 . S
C145 C63 1.357 . S
C154 C42 1.439 . S
C156 C50 1.357 . S
C167 C67 1.502 . S
C165 C41 1.480 . S
C178 C54 1.511 . S
C176 C43 1.510 . S
C187 C16 1.528 . S
C189 C55 1.523 . S
C198 C17 1.500 . S
C200 C68 1.497 . S
C211 C81 1.524 . S
C209 C39 1.527 . S
C220 C40 1.500 . S
C222 C94 1.497 . S
