# Generated by pormake.
# Topology sit, (3,6)-cn, num edge types: 1
# Building blocks:
#     Node 0, Type 0, BuildingBlock: INOVEN_clean_linker_0, # of connection points: 3
#     Node 1, Type 0, BuildingBlock: INOVEN_clean_linker_0, # of connection points: 3
#     Node 2, Type 0, BuildingBlock: INOVEN_clean_linker_0, # of connection points: 3
#     Node 3, Type 0, BuildingBlock: INOVEN_clean_linker_0, # of connection points: 3
#     Node 4, Type 1, BuildingBlock: MIDCAF_clean_sbu_0, # of connection points: 6
#     Node 5, Type 1, BuildingBlock: MIDCAF_clean_sbu_0, # of connection points: 6
#     Edge 6, Type (0, 1), BuildingBlock: EYOCIG_clean_linker_4, # of connection points: 2
#     Edge 7, Type (0, 1), BuildingBlock: EYOCIG_clean_linker_4, # of connection points: 2
#     Edge 8, Type (0, 1), BuildingBlock: EYOCIG_clean_linker_4, # of connection points: 2
#     Edge 9, Type (0, 1), BuildingBlock: EYOCIG_clean_linker_4, # of connection points: 2
#     Edge 10, Type (0, 1), BuildingBlock: EYOCIG_clean_linker_4, # of connection points: 2
#     Edge 11, Type (0, 1), BuildingBlock: EYOCIG_clean_linker_4, # of connection points: 2
#     Edge 12, Type (0, 1), BuildingBlock: EYOCIG_clean_linker_4, # of connection points: 2
#     Edge 13, Type (0, 1), BuildingBlock: EYOCIG_clean_linker_4, # of connection points: 2
#     Edge 14, Type (0, 1), BuildingBlock: EYOCIG_clean_linker_4, # of connection points: 2
#     Edge 15, Type (0, 1), BuildingBlock: EYOCIG_clean_linker_4, # of connection points: 2
#     Edge 16, Type (0, 1), BuildingBlock: EYOCIG_clean_linker_4, # of connection points: 2
#     Edge 17, Type (0, 1), BuildingBlock: EYOCIG_clean_linker_4, # of connection points: 2
# Relax obj value: 0.072
# Max RMSD: 0.182
# Mean RMSD: 0.105
data_MOF--net-sit--node1-MIDCAF_clean_sbu_0--node2-INOVEN_clean_linker_0--edge1-EYOCIG_clean_linker_4
_symmetry_space_group_name_H-M    P1
_symmetry_Int_Tables_number       1
_symmetry_cell_setting            triclinic
loop_
_symmetry_equiv_pos_as_xyz
'x, y, z'
_cell_length_a     16.994094
_cell_length_b     26.191437
_cell_length_c     29.361949
_cell_angle_alpha  90.316987
_cell_angle_beta   86.166498
_cell_angle_gamma 83.834755
loop_
_atom_site_label
_atom_site_type_symbol
_atom_site_fract_x
_atom_site_fract_y
_atom_site_fract_z
_atom_type_partial_charge
H0 H 0.94222 0.29637 0.06565 0.0
H1 H 0.05628 0.41551 0.99647 0.0
H2 H 0.19686 0.29441 0.06146 0.0
N3 N 0.07201 0.24382 0.09223 0.0
N4 N 0.13474 0.21546 0.09647 0.0
C5 C -0.00431 0.31391 0.05584 0.0
C6 C -0.00877 0.35895 0.03024 0.0
C7 C 0.06966 0.29006 0.06714 0.0
C8 C 0.13917 0.31246 0.05335 0.0
C9 C 0.13368 0.35803 0.02834 0.0
C10 C 0.05995 0.38109 0.01705 0.0
H11 H 0.86917 0.74075 0.0781 0.0
H12 H -0.00662 0.62189 0.99054 0.0
H13 H 0.12058 0.73905 0.04404 0.0
N14 N -0.0057 0.79059 0.09178 0.0
N15 N 0.05156 0.81673 0.08967 0.0
C16 C 0.9239 0.72294 0.06106 0.0
C17 C 0.92366 0.67853 0.03409 0.0
C18 C -0.00527 0.74551 0.06455 0.0
C19 C 0.06526 0.72244 0.04158 0.0
C20 C 0.06442 0.67767 0.01548 0.0
C21 C -0.00609 0.65595 0.01176 0.0
H22 H 0.44254 0.79571 0.56531 0.0
H23 H 0.55621 0.91507 0.49623 0.0
H24 H 0.6971 0.7942 0.56133 0.0
N25 N 0.57241 0.7434 0.592 0.0
N26 N 0.6352 0.71513 0.59632 0.0
C27 C 0.49594 0.81334 0.55554 0.0
C28 C 0.49135 0.85838 0.52994 0.0
C29 C 0.56995 0.78963 0.5669 0.0
C30 C 0.63938 0.81215 0.55317 0.0
C31 C 0.63376 0.85772 0.52816 0.0
C32 C 0.55998 0.88065 0.51681 0.0
H33 H 0.36923 0.23999 0.57846 0.0
H34 H 0.49379 0.1214 0.49074 0.0
H35 H 0.62054 0.23875 0.5443 0.0
N36 N 0.49417 0.29006 0.59212 0.0
N37 N 0.55131 0.31629 0.58998 0.0
C38 C 0.424 0.22228 0.56139 0.0
C39 C 0.4239 0.17789 0.53438 0.0
C40 C 0.49473 0.24498 0.56487 0.0
C41 C 0.5653 0.22205 0.54185 0.0
C42 C 0.5646 0.17729 0.51571 0.0
C43 C 0.4942 0.15544 0.512 0.0
Zn44 Zn 0.04029 0.1194 0.36206 0.0
Zn45 Zn 0.07318 0.91396 0.36193 0.0
Zn46 Zn 0.05506 0.01654 0.36396 0.0
C47 C 0.07047 0.94455 0.27219 0.0
C48 C 0.93007 0.94748 0.41142 0.0
O49 O 0.14399 0.04241 0.40734 0.0
O50 O 0.11804 0.12727 0.40808 0.0
C51 C 0.08202 0.08535 0.27343 0.0
O52 O 0.06785 0.98897 0.2917 0.0
O53 O 0.07228 0.90417 0.29539 0.0
O54 O -0.02489 0.90729 0.40046 0.0
O55 O 0.94771 0.99198 0.39867 0.0
O56 O 0.07185 0.12636 0.29673 0.0
O57 O 0.07509 0.04159 0.29227 0.0
O58 O 0.9374 0.04564 0.39472 0.0
O59 O 0.92728 0.12984 0.38405 0.0
C60 C 0.89792 0.09036 0.39861 0.0
O61 O 0.15498 0.98853 0.40451 0.0
O62 O 0.17266 0.90411 0.39332 0.0
C63 C 0.15606 0.08708 0.42207 0.0
C64 C 0.19228 0.94416 0.41147 0.0
Zn65 Zn 0.53977 0.61952 0.86185 0.0
Zn66 Zn 0.57357 0.41413 0.86215 0.0
Zn67 Zn 0.55497 0.51669 0.86397 0.0
C68 C 0.57059 0.44444 0.77236 0.0
C69 C 0.43031 0.44752 0.91155 0.0
O70 O 0.64373 0.54286 0.9073 0.0
O71 O 0.61739 0.62769 0.90788 0.0
C72 C 0.58189 0.58528 0.7733 0.0
O73 O 0.56782 0.48893 0.79177 0.0
O74 O 0.57265 0.40412 0.79564 0.0
O75 O 0.47555 0.40738 0.90071 0.0
O76 O 0.44772 0.49202 0.89871 0.0
O77 O 0.57145 0.62635 0.79651 0.0
O78 O 0.57507 0.54155 0.79223 0.0
O79 O 0.4372 0.54568 0.89468 0.0
O80 O 0.42673 0.62984 0.88378 0.0
C81 C 0.39754 0.59035 0.89845 0.0
O82 O 0.65493 0.48898 0.90462 0.0
O83 O 0.67305 0.40454 0.89355 0.0
C84 C 0.65558 0.58761 0.92194 0.0
C85 C 0.69243 0.44469 0.91166 0.0
C86 C 0.12791 0.1378 0.15006 0.0
C87 C 0.13314 0.17215 0.12325 0.0
C88 C 0.11566 0.10602 0.18795 0.0
C89 C 0.10114 0.08943 0.22539 0.0
C90 C 0.05614 0.89151 0.14707 0.0
C91 C 0.0524 0.85843 0.11882 0.0
C92 C 0.06242 0.92249 0.18586 0.0
C93 C 0.06623 0.93938 0.22381 0.0
C94 C 0.62837 0.63749 0.64993 0.0
C95 C 0.63364 0.67182 0.62311 0.0
C96 C 0.61596 0.60576 0.68783 0.0
C97 C 0.60126 0.58923 0.72529 0.0
C98 C 0.55585 0.3911 0.64736 0.0
C99 C 0.55209 0.358 0.61914 0.0
C100 C 0.56224 0.42215 0.6861 0.0
C101 C 0.56616 0.43913 0.724 0.0
C102 C 0.25349 0.40315 0.99249 0.0
C103 C 0.20279 0.37996 0.01039 0.0
C104 C 0.30998 0.42771 0.96613 0.0
C105 C 0.362 0.44219 0.94139 0.0
C106 C 0.80211 0.6336 0.01028 0.0
C107 C 0.85172 0.65767 0.02467 0.0
C108 C 0.75203 0.60827 0.98369 0.0
C109 C 0.71038 0.59348 0.95597 0.0
C110 C 0.86269 0.40284 0.99554 0.0
C111 C 0.91819 0.38046 0.01294 0.0
C112 C 0.8031 0.42576 0.96899 0.0
C113 C 0.75238 0.43906 0.94364 0.0
C114 C 0.19233 0.63312 0.96985 0.0
C115 C 0.135 0.65427 0.99102 0.0
C116 C 0.26053 0.61084 0.94457 0.0
C117 C 0.3228 0.59727 0.92406 0.0
C118 C 0.75339 0.90308 0.4924 0.0
C119 C 0.70278 0.87978 0.51026 0.0
C120 C 0.8098 0.92772 0.46606 0.0
C121 C 0.8618 0.94221 0.44131 0.0
C122 C 0.30254 0.13278 0.51053 0.0
C123 C 0.35206 0.15692 0.52495 0.0
C124 C 0.25253 0.10745 0.48389 0.0
C125 C 0.21086 0.09275 0.45614 0.0
C126 C 0.36272 0.90208 0.49521 0.0
C127 C 0.41827 0.87978 0.51262 0.0
C128 C 0.30307 0.92498 0.4687 0.0
C129 C 0.25231 0.93835 0.44339 0.0
C130 C 0.69261 0.13302 0.46999 0.0
C131 C 0.63523 0.15404 0.4912 0.0
C132 C 0.76086 0.11084 0.44469 0.0
C133 C 0.82315 0.09731 0.42418 0.0
loop_
_geom_bond_atom_site_label_1
_geom_bond_atom_site_label_2
_geom_bond_distance
_geom_bond_site_symmetry_2
_ccdc_geom_bond_type
H0 C5 0.929 . S
H1 C10 0.931 . S
H2 C8 0.930 . S
N3 N4 1.234 . S
N3 C7 1.453 . S
N4 N3 1.234 . S
C5 H0 0.929 . S
C5 C6 1.373 . S
C5 C7 1.368 . S
C6 C5 1.373 . S
C6 C10 1.397 1_554 S
C7 N3 1.453 . S
C7 C5 1.368 . S
C7 C8 1.373 . S
C8 H2 0.930 . S
C8 C7 1.373 . S
C8 C9 1.371 . S
C9 C8 1.371 . S
C9 C10 1.383 1_554 S
C10 H1 0.931 . S
C10 C6 1.397 1_556 S
C10 C9 1.383 1_556 S
H11 C16 0.929 . S
H12 C21 0.931 . S
H13 C19 0.930 . S
N14 N15 1.234 1_655 S
N14 C18 1.453 . S
N15 N14 1.234 1_455 S
C16 H11 0.929 . S
C16 C17 1.373 . S
C16 C18 1.368 . S
C17 C16 1.373 . S
C17 C21 1.397 1_654 S
C18 N14 1.453 . S
C18 C16 1.368 . S
C18 C19 1.373 1_655 S
C19 H13 0.930 . S
C19 C18 1.373 1_455 S
C19 C20 1.371 . S
C20 C19 1.371 . S
C20 C21 1.383 1_554 S
C21 H12 0.931 . S
C21 C17 1.397 1_456 S
C21 C20 1.383 1_556 S
H22 C27 0.929 . S
H23 C32 0.931 . S
H24 C30 0.930 . S
N25 N26 1.234 . S
N25 C29 1.453 . S
N26 N25 1.234 . S
C27 H22 0.929 . S
C27 C28 1.373 . S
C27 C29 1.368 . S
C28 C27 1.373 . S
C28 C32 1.397 . S
C29 N25 1.453 . S
C29 C27 1.368 . S
C29 C30 1.373 . S
C30 H24 0.930 . S
C30 C29 1.373 . S
C30 C31 1.371 . S
C31 C30 1.371 . S
C31 C32 1.383 . S
C32 H23 0.931 . S
C32 C28 1.397 . S
C32 C31 1.383 . S
H33 C38 0.929 . S
H34 C43 0.931 . S
H35 C41 0.930 . S
N36 N37 1.234 . S
N36 C40 1.453 . S
N37 N36 1.234 . S
C38 H33 0.929 . S
C38 C39 1.373 . S
C38 C40 1.368 . S
C39 C38 1.373 . S
C39 C43 1.397 . S
C40 N36 1.453 . S
C40 C38 1.368 . S
C40 C41 1.373 . S
C41 H35 0.930 . S
C41 C40 1.373 . S
C41 C42 1.371 . S
C42 C41 1.371 . S
C42 C43 1.383 . S
C43 H34 0.931 . S
C43 C39 1.397 . S
C43 C42 1.383 . S
Zn44 O50 1.920 . S
Zn44 O56 1.898 . S
Zn44 O59 1.905 1_455 S
Zn45 O53 1.905 . S
Zn45 O54 1.898 . S
Zn45 O62 1.920 . S
Zn46 O49 2.080 . S
Zn46 O52 2.114 1_545 S
Zn46 O55 2.120 1_545 S
Zn46 O57 2.120 . S
Zn46 O58 2.114 1_455 S
Zn46 O61 2.080 1_545 S
C47 O52 1.166 . S
C47 O53 1.182 . S
C48 O54 1.167 1_655 S
C48 O55 1.299 1_655 S
O49 Zn46 2.080 . S
O49 C63 1.305 . S
O50 Zn44 1.920 . S
O50 C63 1.234 . S
C51 O56 1.167 . S
C51 O57 1.299 . S
O52 Zn46 2.114 1_565 S
O52 C47 1.166 . S
O53 Zn45 1.905 . S
O53 C47 1.182 . S
O54 Zn45 1.898 . S
O54 C48 1.167 1_455 S
O55 Zn46 2.120 1_565 S
O55 C48 1.299 1_455 S
O56 Zn44 1.898 . S
O56 C51 1.167 . S
O57 Zn46 2.120 . S
O57 C51 1.299 . S
O58 Zn46 2.114 1_655 S
O58 C60 1.166 . S
O59 Zn44 1.905 1_655 S
O59 C60 1.182 . S
C60 O58 1.166 . S
C60 O59 1.182 . S
O61 Zn46 2.080 1_565 S
O61 C64 1.305 . S
O62 Zn45 1.920 . S
O62 C64 1.234 . S
C63 O49 1.305 . S
C63 O50 1.234 . S
C64 O61 1.305 . S
C64 O62 1.234 . S
Zn65 O71 1.920 . S
Zn65 O77 1.898 . S
Zn65 O80 1.905 . S
Zn66 O74 1.905 . S
Zn66 O75 1.898 . S
Zn66 O83 1.920 . S
Zn67 O70 2.080 . S
Zn67 O73 2.114 . S
Zn67 O76 2.120 . S
Zn67 O78 2.120 . S
Zn67 O79 2.114 . S
Zn67 O82 2.080 . S
C68 O73 1.166 . S
C68 O74 1.182 . S
C69 O75 1.167 . S
C69 O76 1.299 . S
O70 Zn67 2.080 . S
O70 C84 1.305 . S
O71 Zn65 1.920 . S
O71 C84 1.234 . S
C72 O77 1.167 . S
C72 O78 1.299 . S
O73 Zn67 2.114 . S
O73 C68 1.166 . S
O74 Zn66 1.905 . S
O74 C68 1.182 . S
O75 Zn66 1.898 . S
O75 C69 1.167 . S
O76 Zn67 2.120 . S
O76 C69 1.299 . S
O77 Zn65 1.898 . S
O77 C72 1.167 . S
O78 Zn67 2.120 . S
O78 C72 1.299 . S
O79 Zn67 2.114 . S
O79 C81 1.166 . S
O80 Zn65 1.905 . S
O80 C81 1.182 . S
C81 O79 1.166 . S
C81 O80 1.182 . S
O82 Zn67 2.080 . S
O82 C85 1.305 . S
O83 Zn66 1.920 . S
O83 C85 1.234 . S
C84 O70 1.305 . S
C84 O71 1.234 . S
C85 O82 1.305 . S
C85 O83 1.234 . S
C86 C87 1.170 . S
C86 C88 1.380 . S
C87 C86 1.170 . S
C88 C86 1.380 . S
C88 C89 1.170 . S
C89 C88 1.170 . S
C90 C91 1.170 . S
C90 C92 1.380 . S
C91 C90 1.170 . S
C92 C90 1.380 . S
C92 C93 1.170 . S
C93 C92 1.170 . S
C94 C95 1.170 . S
C94 C96 1.380 . S
C95 C94 1.170 . S
C96 C94 1.380 . S
C96 C97 1.170 . S
C97 C96 1.170 . S
C98 C99 1.170 . S
C98 C100 1.380 . S
C99 C98 1.170 . S
C100 C98 1.380 . S
C100 C101 1.170 . S
C101 C100 1.170 . S
C102 C103 1.170 . S
C102 C104 1.380 . S
C103 C102 1.170 . S
C104 C102 1.380 . S
C104 C105 1.170 . S
C105 C104 1.170 . S
C106 C107 1.170 . S
C106 C108 1.380 . S
C107 C106 1.170 . S
C108 C106 1.380 . S
C108 C109 1.170 . S
C109 C108 1.170 . S
C110 C111 1.170 . S
C110 C112 1.380 . S
C111 C110 1.170 . S
C112 C110 1.380 . S
C112 C113 1.170 . S
C113 C112 1.170 . S
C114 C115 1.170 . S
C114 C116 1.380 . S
C115 C114 1.170 . S
C116 C114 1.380 . S
C116 C117 1.170 . S
C117 C116 1.170 . S
C118 C119 1.170 . S
C118 C120 1.380 . S
C119 C118 1.170 . S
C120 C118 1.380 . S
C120 C121 1.170 . S
C121 C120 1.170 . S
C122 C123 1.170 . S
C122 C124 1.380 . S
C123 C122 1.170 . S
C124 C122 1.380 . S
C124 C125 1.170 . S
C125 C124 1.170 . S
C126 C127 1.170 . S
C126 C128 1.380 . S
C127 C126 1.170 . S
C128 C126 1.380 . S
C128 C129 1.170 . S
C129 C128 1.170 . S
C130 C131 1.170 . S
C130 C132 1.380 . S
C131 C130 1.170 . S
C132 C130 1.380 . S
C132 C133 1.170 . S
C133 C132 1.170 . S
C89 C51 1.420 . S
C87 N4 1.540 . S
C93 C47 1.389 . S
C91 N15 1.484 . S
C97 C72 1.408 . S
C95 N26 1.530 . S
C99 N37 1.489 . S
C101 C68 1.399 . S
C103 C9 1.349 1_556 S
C105 C69 1.149 . S
C109 C84 1.145 . S
C107 C17 1.352 1_556 S
C111 C6 1.684 1_656 S
C113 C85 1.563 . S
C117 C81 1.566 . S
C115 C20 1.704 1_556 S
C121 C48 1.134 . S
C119 C31 1.337 . S
C123 C39 1.337 . S
C125 C63 1.222 . S
C129 C64 1.524 . S
C127 C28 1.689 . S
C133 C60 1.553 . S
C131 C42 1.708 . S
