# Generated by pormake.
# Topology anh, (6,3)-cn, num edge types: 1
# Building blocks:
#     Node 0, Type 0, BuildingBlock: NUHQIS_clean_sbu_0, # of connection points: 6
#     Node 1, Type 0, BuildingBlock: NUHQIS_clean_sbu_0, # of connection points: 6
#     Node 2, Type 0, BuildingBlock: NUHQIS_clean_sbu_0, # of connection points: 6
#     Node 3, Type 1, BuildingBlock: INOVEN_clean_linker_0, # of connection points: 3
#     Node 4, Type 1, BuildingBlock: INOVEN_clean_linker_0, # of connection points: 3
#     Node 5, Type 1, BuildingBlock: INOVEN_clean_linker_0, # of connection points: 3
#     Node 6, Type 1, BuildingBlock: INOVEN_clean_linker_0, # of connection points: 3
#     Node 7, Type 1, BuildingBlock: INOVEN_clean_linker_0, # of connection points: 3
#     Node 8, Type 1, BuildingBlock: INOVEN_clean_linker_0, # of connection points: 3
#     Edge 9, Type (0, 1), None
#     Edge 10, Type (0, 1), None
#     Edge 11, Type (0, 1), None
#     Edge 12, Type (0, 1), None
#     Edge 13, Type (0, 1), None
#     Edge 14, Type (0, 1), None
#     Edge 15, Type (0, 1), None
#     Edge 16, Type (0, 1), None
#     Edge 17, Type (0, 1), None
#     Edge 18, Type (0, 1), None
#     Edge 19, Type (0, 1), None
#     Edge 20, Type (0, 1), None
#     Edge 21, Type (0, 1), None
#     Edge 22, Type (0, 1), None
#     Edge 23, Type (0, 1), None
#     Edge 24, Type (0, 1), None
#     Edge 25, Type (0, 1), None
#     Edge 26, Type (0, 1), None
# Relax obj value: 0.738
# Max RMSD: 0.231
# Mean RMSD: 0.149
data_MOF--net-anh--node1-NUHQIS_clean_sbu_0--node2-INOVEN_clean_linker_0--edge1-none
_symmetry_space_group_name_H-M    P1
_symmetry_Int_Tables_number       1
_symmetry_cell_setting            triclinic
loop_
_symmetry_equiv_pos_as_xyz
'x, y, z'
_cell_length_a     12.888854
_cell_length_b     12.642793
_cell_length_c     22.295276
_cell_angle_alpha  92.760219
_cell_angle_beta   96.717554
_cell_angle_gamma 119.92616
loop_
_atom_site_label
_atom_site_type_symbol
_atom_site_fract_x
_atom_site_fract_y
_atom_site_fract_z
_atom_type_partial_charge
Tb0 Tb 0.4982 0.81588 0.16937 0.0
Eu1 Eu 1.33881 0.94146 0.18936 0.0
C2 C 0.49973 0.9045 0.29777 0.0
C3 C 1.2272 0.65575 0.19404 0.0
C4 C 0.5355 0.55201 0.13701 0.0
C5 C 0.51087 0.35919 0.1661 0.0
C6 C 0.53113 0.47664 0.18223 0.0
C7 C 0.49991 0.50093 0.07559 0.0
C8 C 0.47928 0.38306 0.05968 0.0
C9 C 0.4986 0.31825 0.10491 0.0
C10 C 0.58957 0.68512 0.15447 0.0
O11 O 0.37893 0.76908 0.0833 0.0
O12 O 1.34023 0.92669 0.08654 0.0
O13 O 0.52946 1.10071 0.20876 0.0
O14 O 0.63394 1.01442 0.17169 0.0
C15 C 1.34355 0.83702 0.05554 0.0
O16 O 1.21449 1.00695 0.16223 0.0
O17 O 1.28653 1.02876 0.25722 0.0
O18 O 0.39161 0.88802 0.27886 0.0
O19 O 0.57001 0.91043 0.25926 0.0
O20 O 1.34005 0.68202 0.20658 0.0
O21 O 1.20218 0.73731 0.17368 0.0
C22 C 0.63083 1.10971 0.19742 0.0
O23 O 0.57226 0.71583 0.20729 0.0
O24 O 0.57997 0.75123 0.11314 0.0
C25 C 1.07704 0.94442 0.23008 0.0
C26 C 0.87225 0.72918 0.1738 0.0
C27 C 0.88061 0.84379 0.16752 0.0
C28 C 0.98393 0.95195 0.19548 0.0
C29 C 1.05061 0.83154 0.25093 0.0
C30 C 0.94816 0.72323 0.22221 0.0
C31 C 1.20067 1.02437 0.21828 0.0
H32 H 0.52488 0.30979 0.20147 0.0
H33 H 0.55549 0.51258 0.23004 0.0
H34 H 0.49921 0.5555 0.03972 0.0
H35 H 0.46796 0.35126 0.0121 0.0
H36 H 0.81966 0.85195 0.13292 0.0
H37 H 1.00045 1.03859 0.18056 0.0
H38 H 1.11919 0.82376 0.2802 0.0
H39 H 0.94093 0.6368 0.23104 0.0
Tb40 Tb 1.06399 0.53081 0.51383 0.0
Eu41 Eu 0.815 0.41169 0.5259 0.0
C42 C 1.01041 0.41423 0.63238 0.0
C43 C 0.93546 1.24017 0.51953 0.0
C44 C 0.37699 0.65381 0.50276 0.0
C45 C 0.56827 0.67284 0.5451 0.0
C46 C 0.46464 0.67682 0.55335 0.0
C47 C 0.38503 0.60783 0.44588 0.0
C48 C 0.48859 0.60402 0.43794 0.0
C49 C 0.58585 0.65035 0.48616 0.0
C50 C 1.28004 0.68061 0.50922 0.0
O51 O 0.99557 0.46044 0.41849 0.0
O52 O 0.79337 0.36649 0.42265 0.0
O53 O 0.96119 0.61647 0.5423 0.0
O54 O 0.95702 0.61361 0.54281 0.0
C55 C 0.88262 0.39617 0.39124 0.0
O56 O 0.62306 0.34381 0.49474 0.0
O57 O 0.70004 0.42341 0.58818 0.0
O58 O 0.89697 0.38322 0.61376 0.0
O59 O 1.09433 0.47122 0.59921 0.0
O60 O 1.0322 0.34052 0.50761 0.0
O61 O 0.83718 1.24324 0.52861 0.0
C62 C 0.95787 0.71443 0.52766 0.0
O63 O 1.23792 0.65865 0.56031 0.0
O64 O 1.1941 0.64376 0.46236 0.0
C65 C 0.52647 1.22404 0.56877 0.0
C66 C 0.50622 1.00853 0.51785 0.0
C67 C 0.40998 1.03146 0.50316 0.0
C68 C 0.42108 1.14101 0.5282 0.0
C69 C 0.59208 1.17606 0.59982 0.0
C70 C 0.58649 1.07113 0.57266 0.0
C71 C 0.60127 0.34724 0.55037 0.0
H72 H 0.64242 0.70717 0.58278 0.0
H73 H 0.45847 0.70836 0.59813 0.0
H74 H 1.31663 0.58455 0.4064 0.0
H75 H 0.50091 0.58459 0.3923 0.0
H76 H 1.33579 0.97571 0.46644 0.0
H77 H 1.36183 1.17089 0.50677 0.0
H78 H 0.66696 1.23325 0.63601 0.0
H79 H 0.65635 1.052 0.59023 0.0
Tb80 Tb 0.86677 0.85031 0.87543 0.0
Eu81 Eu 0.7474 0.56368 0.81335 0.0
C82 C 0.80166 0.63005 0.95121 0.0
C83 C 1.04 0.7352 0.86621 0.0
C84 C 1.10094 1.16094 0.94073 0.0
C85 C 1.28073 1.21659 0.89587 0.0
C86 C 1.18675 1.13272 0.92367 0.0
C87 C 1.12652 0.28286 0.94293 0.0
C88 C 1.22039 0.36708 0.91437 0.0
C89 C 1.28833 0.3279 0.88512 0.0
C90 C 0.97489 1.06049 0.93713 0.0
O91 O 0.90136 0.86938 0.78036 0.0
O92 O 0.77289 0.67053 0.73282 0.0
O93 O 0.59704 0.59184 0.84316 0.0
O94 O 0.67803 0.8 0.84798 0.0
C95 C 0.84792 0.78826 0.73064 0.0
O96 O 0.71358 0.41183 0.74751 0.0
O97 O 0.61174 0.37412 0.82201 0.0
O98 O 0.82375 0.57434 0.90874 0.0
O99 O 0.78227 0.72031 0.94014 0.0
O100 O 1.0229 0.82578 0.88233 0.0
O101 O 0.95066 0.62857 0.83711 0.0
C102 C 0.58484 0.68947 0.84822 0.0
O103 O 0.90802 1.03371 0.8838 0.0
O104 O 0.96114 0.96146 0.95888 0.0
C105 C 0.68825 1.2457 0.79875 0.0
C106 C 0.85715 1.17121 0.79503 0.0
C107 C 0.87302 1.25517 0.84373 0.0
C108 C 0.78913 0.29362 0.84512 0.0
C109 C 0.65596 1.13788 0.76152 0.0
C110 C 0.73839 1.09585 0.76236 0.0
C111 C 0.64399 0.32779 0.77944 0.0
H112 H 1.33729 1.18852 0.87592 0.0
H113 H 1.17332 1.04151 0.92485 0.0
H114 H 1.06509 0.30801 0.95943 0.0
H115 H 1.22993 0.45592 0.90862 0.0
H116 H 0.96152 0.31383 0.87056 0.0
H117 H 0.81398 0.37424 0.87589 0.0
H118 H 0.57615 1.09646 0.72666 0.0
H119 H 0.72079 1.02547 0.72643 0.0
H120 H 0.82966 0.27485 0.14842 0.0
H121 H 0.68482 1.19816 0.31688 0.0
H122 H 1.03193 0.51836 0.31341 0.0
N123 N 1.0293 0.49214 0.19469 0.0
N124 N 1.13821 0.55454 0.21898 0.0
C125 C 0.83813 0.2978 0.19682 0.0
C126 C 0.74457 1.22183 0.22862 0.0
C127 C 0.94141 0.40588 0.22738 0.0
C128 C 0.95254 0.4346 0.29042 0.0
C129 C 0.86112 0.36127 0.32362 0.0
C130 C 0.75613 1.25585 0.29196 0.0
H131 H 0.96731 0.9324 0.51171 0.0
H132 H 0.89241 0.67052 0.6415 0.0
H133 H 0.86463 0.99049 0.68183 0.0
N134 N 0.90616 1.07938 0.5769 0.0
N135 N 0.94528 1.13438 0.53191 0.0
C136 C 0.94082 0.90249 0.55496 0.0
C137 C 0.93038 0.79007 0.57069 0.0
C138 C 0.9124 0.97349 0.59382 0.0
C139 C 0.8843 0.93603 0.65138 0.0
C140 C 0.87826 0.82792 0.66946 0.0
C141 C 0.89866 0.75451 0.62811 0.0
H142 H 1.20949 0.70246 0.81209 0.0
H143 H 1.14139 0.80919 -0.0161 0.0
H144 H 0.46465 0.79298 0.97644 0.0
N145 N 0.43376 0.74121 0.85686 0.0
N146 N 0.481 0.67818 0.87129 0.0
C147 C 1.2354 0.7291 0.86083 0.0
C148 C 1.15884 0.74978 0.89444 0.0
C149 C 1.34711 0.74567 0.8904 0.0
C150 C 0.37961 0.78092 0.95379 0.0
C151 C 1.3078 0.80713 -0.01219 0.0
C152 C 1.19847 0.79229 0.95759 0.0
H153 H 0.66305 0.9152 0.53054 0.0
H154 H 0.43514 0.97469 0.39419 0.0
H155 H 0.66012 0.83911 0.34184 0.0
N156 N 0.74181 0.81717 0.4501 0.0
N157 N 0.70486 0.71757 0.47251 0.0
C158 C 0.62824 0.9139 0.48395 0.0
C159 C 0.54065 0.94937 0.46993 0.0
C160 C 0.66925 0.87213 0.43745 0.0
C161 C 0.62819 0.87204 0.3771 0.0
C162 C 0.54141 0.90618 0.362 0.0
C163 C 0.49758 0.94351 0.40792 0.0
H164 H 1.08709 1.20159 0.81935 0.0
H165 H 0.84959 1.24654 0.68874 0.0
H166 H 1.23231 0.47427 0.69547 0.0
N167 N 1.30494 0.39854 0.78785 0.0
N168 N 1.35187 0.38974 0.83867 0.0
C169 C 1.07788 1.2528 0.78446 0.0
C170 C 0.95878 1.22058 0.75966 0.0
C171 C 1.17909 0.3494 0.76319 0.0
C172 C 1.15639 0.40192 0.71291 0.0
C173 C 1.03756 0.36316 0.68556 0.0
C174 C 0.94087 0.27188 0.70849 0.0
H175 H 0.7618 0.47499 0.17035 0.0
H176 H 0.86866 0.76645 0.05628 0.0
H177 H 0.71015 0.39407 0.97609 0.0
N178 N 0.65372 0.29095 0.07656 0.0
N179 N 0.54979 1.24497 0.09115 0.0
C180 C 0.77147 0.50644 0.12597 0.0
C181 C 0.81865 0.63238 0.12043 0.0
C182 C 0.72921 0.41968 0.07356 0.0
C183 C 0.7438 0.46069 0.01636 0.0
C184 C 0.79103 0.58575 0.01072 0.0
C185 C 0.82754 0.66991 0.06216 0.0
loop_
_geom_bond_atom_site_label_1
_geom_bond_atom_site_label_2
_geom_bond_distance
_geom_bond_site_symmetry_2
_ccdc_geom_bond_type
Tb0 C10 2.825 . S
Tb0 O11 2.347 . S
Tb0 O14 2.366 . S
Tb0 O19 2.418 . S
Tb0 O20 2.384 1_455 S
Tb0 O23 2.479 . S
Tb0 O24 2.471 . S
Eu1 O12 2.418 . S
Eu1 O13 2.384 1_655 S
Eu1 O16 2.479 . S
Eu1 O17 2.471 . S
Eu1 O18 2.347 1_655 S
Eu1 O21 2.366 . S
Eu1 C31 2.825 . S
C2 O18 1.259 . S
C2 O19 1.265 . S
C3 O20 1.255 . S
C3 O21 1.265 . S
C4 C6 1.380 . S
C4 C7 1.374 . S
C4 C10 1.507 . S
C5 C6 1.384 . S
C5 C9 1.387 . S
C5 H32 0.930 . S
C6 C4 1.380 . S
C6 C5 1.384 . S
C6 H33 0.931 . S
C7 C4 1.374 . S
C7 C8 1.390 . S
C7 H34 0.930 . S
C8 C7 1.390 . S
C8 C9 1.391 . S
C8 H35 0.930 . S
C9 C5 1.387 . S
C9 C8 1.391 . S
C10 Tb0 2.825 . S
C10 C4 1.507 . S
C10 O23 1.238 . S
C10 O24 1.247 . S
O11 Tb0 2.347 . S
O11 C15 1.259 . S
O12 Eu1 2.418 . S
O12 C15 1.265 1_655 S
O13 Eu1 2.384 1_455 S
O13 C22 1.255 . S
O14 Tb0 2.366 . S
O14 C22 1.265 . S
C15 O11 1.259 . S
C15 O12 1.265 1_455 S
O16 Eu1 2.479 . S
O16 C31 1.238 . S
O17 Eu1 2.471 . S
O17 C31 1.247 . S
O18 Eu1 2.347 1_455 S
O18 C2 1.259 . S
O19 Tb0 2.418 . S
O19 C2 1.265 . S
O20 Tb0 2.384 1_655 S
O20 C3 1.255 . S
O21 Eu1 2.366 . S
O21 C3 1.265 . S
C22 O13 1.255 . S
C22 O14 1.265 . S
O23 Tb0 2.479 . S
O23 C10 1.238 . S
O24 Tb0 2.471 . S
O24 C10 1.247 . S
C25 C28 1.380 . S
C25 C29 1.374 . S
C25 C31 1.507 . S
C26 C27 1.387 . S
C26 C30 1.391 . S
C27 C26 1.387 . S
C27 C28 1.384 . S
C27 H36 0.930 . S
C28 C25 1.380 . S
C28 C27 1.384 . S
C28 H37 0.931 . S
C29 C25 1.374 . S
C29 C30 1.390 . S
C29 H38 0.930 . S
C30 C26 1.391 . S
C30 C29 1.390 . S
C30 H39 0.930 . S
C31 Eu1 2.825 . S
C31 O16 1.238 . S
C31 O17 1.247 . S
C31 C25 1.507 . S
H32 C5 0.930 . S
H33 C6 0.931 . S
H34 C7 0.930 . S
H35 C8 0.930 . S
H36 C27 0.930 . S
H37 C28 0.931 . S
H38 C29 0.930 . S
H39 C30 0.930 . S
Tb40 C50 2.825 . S
Tb40 O51 2.347 . S
Tb40 O54 2.366 . S
Tb40 O59 2.418 . S
Tb40 O60 2.384 1_545 S
Tb40 O63 2.479 . S
Tb40 O64 2.471 . S
Eu41 O52 2.418 . S
Eu41 O53 2.384 . S
Eu41 O56 2.479 1_545 S
Eu41 O57 2.471 1_545 S
Eu41 O58 2.347 . S
Eu41 O61 2.366 1_545 S
Eu41 C71 2.825 1_545 S
C42 O58 1.259 . S
C42 O59 1.265 . S
C43 O60 1.255 . S
C43 O61 1.265 . S
C44 C46 1.380 . S
C44 C47 1.374 . S
C44 C50 1.507 . S
C45 C46 1.384 . S
C45 C49 1.387 . S
C45 H72 0.930 1_655 S
C46 C44 1.380 . S
C46 C45 1.384 . S
C46 H73 0.931 . S
C47 C44 1.374 . S
C47 C48 1.390 . S
C47 H74 0.930 . S
C48 C47 1.390 . S
C48 C49 1.391 . S
C48 H75 0.930 . S
C49 C45 1.387 . S
C49 C48 1.391 . S
C50 Tb40 2.825 . S
C50 C44 1.507 . S
C50 O63 1.238 . S
C50 O64 1.247 . S
O51 Tb40 2.347 . S
O51 C55 1.259 . S
O52 Eu41 2.418 . S
O52 C55 1.265 . S
O53 Eu41 2.384 . S
O53 C62 1.255 . S
O54 Tb40 2.366 . S
O54 C62 1.265 . S
C55 O51 1.259 . S
C55 O52 1.265 . S
O56 Eu41 2.479 1_565 S
O56 C71 1.238 . S
O57 Eu41 2.471 1_565 S
O57 C71 1.247 . S
O58 Eu41 2.347 . S
O58 C42 1.259 . S
O59 Tb40 2.418 . S
O59 C42 1.265 . S
O60 Tb40 2.384 1_565 S
O60 C43 1.255 . S
O61 Eu41 2.366 1_565 S
O61 C43 1.265 . S
C62 O53 1.255 . S
C62 O54 1.265 . S
O63 Tb40 2.479 . S
O63 C50 1.238 . S
O64 Tb40 2.471 . S
O64 C50 1.247 . S
C65 C68 1.380 . S
C65 C69 1.374 . S
C65 C71 1.507 . S
C66 C67 1.387 . S
C66 C70 1.391 . S
C67 C66 1.387 . S
C67 C68 1.384 . S
C67 H76 0.930 . S
C68 C65 1.380 . S
C68 C67 1.384 . S
C68 H77 0.931 . S
C69 C65 1.374 . S
C69 C70 1.390 . S
C69 H78 0.930 . S
C70 C66 1.391 . S
C70 C69 1.390 . S
C70 H79 0.930 . S
C71 Eu41 2.825 1_565 S
C71 O56 1.238 . S
C71 O57 1.247 . S
C71 C65 1.507 . S
H72 C45 0.930 1_455 S
H73 C46 0.931 . S
H74 C47 0.930 . S
H75 C48 0.930 . S
H76 C67 0.930 . S
H77 C68 0.931 . S
H78 C69 0.930 . S
H79 C70 0.930 . S
Tb80 C90 2.825 . S
Tb80 O91 2.347 . S
Tb80 O94 2.366 . S
Tb80 O99 2.418 1_556 S
Tb80 O100 2.384 . S
Tb80 O103 2.479 . S
Tb80 O104 2.471 . S
Eu81 O92 2.418 . S
Eu81 O93 2.384 . S
Eu81 O96 2.479 . S
Eu81 O97 2.471 . S
Eu81 O98 2.347 . S
Eu81 O101 2.366 . S
Eu81 C111 2.825 . S
C82 O98 1.259 1_554 S
C82 O99 1.265 . S
C83 O100 1.255 . S
C83 O101 1.265 . S
C84 C86 1.380 . S
C84 C87 1.374 . S
C84 C90 1.507 . S
C85 C86 1.384 . S
C85 C89 1.387 . S
C85 H112 0.930 . S
C86 C84 1.380 . S
C86 C85 1.384 . S
C86 H113 0.931 1_556 S
C87 C84 1.374 . S
C87 C88 1.390 . S
C87 H114 0.930 . S
C88 C87 1.390 . S
C88 C89 1.391 . S
C88 H115 0.930 . S
C89 C85 1.387 . S
C89 C88 1.391 . S
C90 Tb80 2.825 . S
C90 C84 1.507 . S
C90 O103 1.238 . S
C90 O104 1.247 . S
O91 Tb80 2.347 . S
O91 C95 1.259 . S
O92 Eu81 2.418 . S
O92 C95 1.265 . S
O93 Eu81 2.384 . S
O93 C102 1.255 . S
O94 Tb80 2.366 . S
O94 C102 1.265 . S
C95 O91 1.259 . S
C95 O92 1.265 . S
O96 Eu81 2.479 . S
O96 C111 1.238 . S
O97 Eu81 2.471 . S
O97 C111 1.247 . S
O98 Eu81 2.347 . S
O98 C82 1.259 1_556 S
O99 Tb80 2.418 1_554 S
O99 C82 1.265 . S
O100 Tb80 2.384 . S
O100 C83 1.255 . S
O101 Eu81 2.366 . S
O101 C83 1.265 . S
C102 O93 1.255 . S
C102 O94 1.265 . S
O103 Tb80 2.479 . S
O103 C90 1.238 . S
O104 Tb80 2.471 . S
O104 C90 1.247 . S
C105 C108 1.380 . S
C105 C109 1.374 . S
C105 C111 1.507 . S
C106 C107 1.387 . S
C106 C110 1.391 . S
C107 C106 1.387 . S
C107 C108 1.384 . S
C107 H116 0.930 . S
C108 C105 1.380 . S
C108 C107 1.384 . S
C108 H117 0.931 . S
C109 C105 1.374 . S
C109 C110 1.390 . S
C109 H118 0.930 . S
C110 C106 1.391 . S
C110 C109 1.390 . S
C110 H119 0.930 . S
C111 Eu81 2.825 . S
C111 O96 1.238 . S
C111 O97 1.247 . S
C111 C105 1.507 . S
H112 C85 0.930 . S
H113 C86 0.931 1_554 S
H114 C87 0.930 . S
H115 C88 0.930 . S
H116 C107 0.930 . S
H117 C108 0.931 . S
H118 C109 0.930 . S
H119 C110 0.930 . S
H120 C125 0.929 . S
H121 C130 0.931 . S
H122 C128 0.930 . S
N123 N124 1.234 . S
N123 C127 1.453 . S
N124 N123 1.234 . S
C125 H120 0.929 . S
C125 C126 1.373 . S
C125 C127 1.368 1_565 S
C126 C125 1.373 . S
C126 C130 1.397 . S
C127 N123 1.453 . S
C127 C125 1.368 1_545 S
C127 C128 1.373 . S
C128 H122 0.930 . S
C128 C127 1.373 . S
C128 C129 1.371 . S
C129 C128 1.371 . S
C129 C130 1.383 1_545 S
C130 H121 0.931 . S
C130 C126 1.397 . S
C130 C129 1.383 1_565 S
H131 C136 0.929 . S
H132 C141 0.931 . S
H133 C139 0.930 . S
N134 N135 1.234 . S
N134 C138 1.453 . S
N135 N134 1.234 . S
C136 H131 0.929 . S
C136 C137 1.373 . S
C136 C138 1.368 . S
C137 C136 1.373 . S
C137 C141 1.397 . S
C138 N134 1.453 . S
C138 C136 1.368 . S
C138 C139 1.373 . S
C139 H133 0.930 . S
C139 C138 1.373 . S
C139 C140 1.371 . S
C140 C139 1.371 . S
C140 C141 1.383 . S
C141 H132 0.931 . S
C141 C137 1.397 . S
C141 C140 1.383 . S
H142 C147 0.929 . S
H143 C152 0.931 . S
H144 C150 0.930 . S
N145 N146 1.234 . S
N145 C149 1.453 . S
N146 N145 1.234 . S
C147 H142 0.929 . S
C147 C148 1.373 . S
C147 C149 1.368 1_655 S
C148 C147 1.373 . S
C148 C152 1.397 . S
C149 N145 1.453 . S
C149 C147 1.368 1_455 S
C149 C150 1.373 . S
C150 H144 0.930 . S
C150 C149 1.373 . S
C150 C151 1.371 1_556 S
C151 C150 1.371 1_554 S
C151 C152 1.383 1_454 S
C152 H143 0.931 . S
C152 C148 1.397 . S
C152 C151 1.383 1_656 S
H153 C158 0.929 . S
H154 C163 0.931 . S
H155 C161 0.930 . S
N156 N157 1.234 . S
N156 C160 1.453 . S
N157 N156 1.234 . S
C158 H153 0.929 . S
C158 C159 1.373 . S
C158 C160 1.368 1_455 S
C159 C158 1.373 . S
C159 C163 1.397 . S
C160 N156 1.453 . S
C160 C158 1.368 1_655 S
C160 C161 1.373 . S
C161 H155 0.930 . S
C161 C160 1.373 . S
C161 C162 1.371 1_655 S
C162 C161 1.371 1_455 S
C162 C163 1.383 . S
C163 H154 0.931 . S
C163 C159 1.397 . S
C163 C162 1.383 . S
H164 C169 0.929 . S
H165 C174 0.931 . S
H166 C172 0.930 . S
N167 N168 1.234 . S
N167 C171 1.453 . S
N168 N167 1.234 . S
C169 H164 0.929 . S
C169 C170 1.373 . S
C169 C171 1.368 1_545 S
C170 C169 1.373 . S
C170 C174 1.397 . S
C171 N167 1.453 . S
C171 C169 1.368 1_565 S
C171 C172 1.373 . S
C172 H166 0.930 . S
C172 C171 1.373 . S
C172 C173 1.371 1_565 S
C173 C172 1.371 1_545 S
C173 C174 1.383 . S
C174 H165 0.931 . S
C174 C170 1.397 . S
C174 C173 1.383 . S
H175 C180 0.929 . S
H176 C185 0.931 1_556 S
H177 C183 0.930 1_556 S
N178 N179 1.234 . S
N178 C182 1.453 . S
N179 N178 1.234 . S
C180 H175 0.929 . S
C180 C181 1.373 . S
C180 C182 1.368 . S
C181 C180 1.373 . S
C181 C185 1.397 . S
C182 N178 1.453 . S
C182 C180 1.368 . S
C182 C183 1.373 . S
C183 H177 0.930 1_554 S
C183 C182 1.373 . S
C183 C184 1.371 1_554 S
C184 C183 1.371 1_556 S
C184 C185 1.383 1_556 S
C185 H176 0.931 1_554 S
C185 C181 1.397 . S
C185 C184 1.383 1_554 S
C9 N179 3.603 . S
C49 N157 3.698 . S
C89 N168 3.569 . S
C26 C181 3.303 . S
C159 C66 2.972 . S
C170 C106 3.187 . S
C43 N135 4.590 . S
C83 C148 4.667 . S
C22 C126 4.720 . S
C137 C62 4.738 . S
N146 C102 4.654 . S
C3 N124 4.628 . S
C151 C15 1.950 . S
C55 C129 2.002 . S
C95 C140 1.959 . S
C173 C42 1.109 . S
C184 C82 1.278 1_556 S
C2 C162 0.946 . S
