# Generated by pormake.
# Topology pts, (4,4)-cn, num edge types: 1
# Building blocks:
#     Node 0, Type 0, BuildingBlock: AZAVOO_clean_linker_0, # of connection points: 4
#     Node 1, Type 0, BuildingBlock: AZAVOO_clean_linker_0, # of connection points: 4
#     Node 2, Type 1, BuildingBlock: AZAVOO_clean_sbu_0, # of connection points: 4
#     Node 3, Type 1, BuildingBlock: AZAVOO_clean_sbu_0, # of connection points: 4
#     Edge 4, Type (0, 1), BuildingBlock: EYOCIG_clean_linker_4, # of connection points: 2
#     Edge 5, Type (0, 1), BuildingBlock: EYOCIG_clean_linker_4, # of connection points: 2
#     Edge 6, Type (0, 1), BuildingBlock: EYOCIG_clean_linker_4, # of connection points: 2
#     Edge 7, Type (0, 1), BuildingBlock: EYOCIG_clean_linker_4, # of connection points: 2
#     Edge 8, Type (0, 1), BuildingBlock: EYOCIG_clean_linker_4, # of connection points: 2
#     Edge 9, Type (0, 1), BuildingBlock: EYOCIG_clean_linker_4, # of connection points: 2
#     Edge 10, Type (0, 1), BuildingBlock: EYOCIG_clean_linker_4, # of connection points: 2
#     Edge 11, Type (0, 1), BuildingBlock: EYOCIG_clean_linker_4, # of connection points: 2
# Relax obj value: 0.131
# Max RMSD: 0.230
# Mean RMSD: 0.159
data_MOF--net-pts--node1-AZAVOO_clean_sbu_0--node2-AZAVOO_clean_linker_0--edge1-EYOCIG_clean_linker_4
_symmetry_space_group_name_H-M    P1
_symmetry_Int_Tables_number       1
_symmetry_cell_setting            triclinic
loop_
_symmetry_equiv_pos_as_xyz
'x, y, z'
_cell_length_a     21.85321
_cell_length_b     22.479413
_cell_length_c     38.886402
_cell_angle_alpha  90.829739
_cell_angle_beta   98.429043
_cell_angle_gamma 89.539586
loop_
_atom_site_label
_atom_site_type_symbol
_atom_site_fract_x
_atom_site_fract_y
_atom_site_fract_z
_atom_type_partial_charge
H0 H 0.46692 0.0541 0.75103 0.0
H1 H 0.98544 0.9812 0.03427 0.0
H2 H 0.45856 0.13605 0.93841 0.0
H3 H 0.35964 0.13886 0.89953 0.0
H4 H 0.32147 0.9599 0.92844 0.0
H5 H 0.42095 0.95703 0.96734 0.0
H6 H 0.56684 0.11198 0.89543 0.0
H7 H 0.53083 0.10442 0.83292 0.0
H8 H 0.45515 0.93091 0.84735 0.0
H9 H 0.49276 0.93845 0.9097 0.0
H10 H 0.69237 0.11533 0.94078 0.0
H11 H 0.7615 0.1138 0.89649 0.0
H12 H 0.71378 0.93063 0.87183 0.0
H13 H 0.64468 0.93201 0.91658 0.0
H14 H 0.71392 0.12349 0.01918 0.0
H15 H 0.82604 0.12384 0.0368 0.0
H16 H 0.83394 0.93765 0.00809 0.0
H17 H 0.72149 0.93756 0.99139 0.0
H18 H 0.60796 0.137 0.0575 0.0
H19 H 0.68324 0.15235 0.11038 0.0
H20 H 0.72761 0.96502 0.11122 0.0
H21 H 0.65234 0.94972 0.05871 0.0
H22 H 0.46534 0.13813 0.01595 0.0
H23 H 0.39004 0.14876 0.05686 0.0
H24 H 0.43089 0.96967 0.09193 0.0
H25 H 0.50602 0.95891 0.05082 0.0
O26 O 0.48062 0.05625 0.77584 0.0
O27 O 0.43895 0.96901 0.78499 0.0
O28 O 0.93359 0.07582 0.04606 0.0
O29 O 0.94086 0.98188 0.02831 0.0
C30 C 0.51334 0.03827 0.96912 0.0
C31 C 0.55537 0.02996 0.94502 0.0
C32 C 0.61932 0.02679 0.9569 0.0
C33 C 0.64153 0.03084 -0.00733 0.0
C34 C 0.59947 0.03699 0.01693 0.0
C35 C 0.5352 0.04084 0.00518 0.0
C36 C 0.44688 0.04624 0.95551 0.0
C37 C 0.42767 0.09841 0.93753 0.0
C38 C 0.37147 0.09992 0.9153 0.0
C39 C 0.33393 0.04942 0.91106 0.0
C40 C 0.35007 -0.00068 0.93158 0.0
C41 C 0.40651 -0.00226 0.95384 0.0
C42 C 0.53248 0.02573 0.90708 0.0
C43 C 0.54273 0.07227 0.885 0.0
C44 C 0.52196 0.06789 0.84932 0.0
C45 C 0.4901 0.01704 0.83512 0.0
C46 C 0.47954 0.97067 0.85742 0.0
C47 C 0.5008 0.97492 0.89305 0.0
C48 C 0.66355 0.02388 0.93161 0.0
C49 C 0.69749 0.07465 0.92616 0.0
C50 C 0.73674 0.07376 0.90105 0.0
C51 C 0.74211 0.02224 0.88113 0.0
C52 C 0.70984 0.97073 0.88717 0.0
C53 C 0.67049 0.97156 0.91242 0.0
C54 C 0.70951 0.03032 0.00444 0.0
C55 C 0.73983 0.0826 0.01724 0.0
C56 C 0.80392 0.08276 0.02707 0.0
C57 C 0.83898 0.03074 0.02384 0.0
C58 C 0.80836 0.97845 0.01095 0.0
C59 C 0.74416 0.97823 0.00141 0.0
C60 C 0.62489 0.04227 0.0543 0.0
C61 C 0.63163 0.09886 0.07011 0.0
C62 C 0.67497 0.10769 0.09998 0.0
C63 C 0.71128 0.05985 0.11416 0.0
C64 C 0.69992 0.00239 0.10047 0.0
C65 C 0.65663 -0.00645 0.07076 0.0
C66 C 0.49098 0.04775 0.03044 0.0
C67 C 0.45799 0.10119 0.03243 0.0
C68 C 0.41523 0.10724 0.05569 0.0
C69 C 0.40512 0.05997 0.07721 0.0
C70 C 0.43823 0.0066 0.07543 0.0
C71 C 0.48104 0.00052 0.05214 0.0
C72 C 0.46822 0.01245 0.79719 0.0
C73 C 0.90726 0.03105 0.03349 0.0
H74 H 0.06871 0.49891 0.25862 0.0
H75 H 0.1402 0.96153 0.5354 0.0
H76 H 0.97754 0.46379 0.43806 0.0
H77 H 0.98175 0.38021 0.39731 0.0
H78 H 0.17025 0.34424 0.44279 0.0
H79 H 0.16615 0.42835 0.48345 0.0
H80 H 0.00022 0.57345 0.39277 0.0
H81 H 0.01094 0.54688 0.33266 0.0
H82 H 0.1941 0.47692 0.36754 0.0
H83 H 0.1835 0.50539 0.42733 0.0
H84 H -0.00273 0.69438 0.43249 0.0
H85 H -0.00099 0.75954 0.38241 0.0
H86 H 0.18843 0.70832 0.37803 0.0
H87 H 0.18693 0.64368 0.42839 0.0
H88 H 0.9901 0.70316 0.51359 0.0
H89 H 0.99096 0.80909 0.52903 0.0
H90 H 0.18261 0.81875 0.51357 0.0
H91 H 0.18136 0.71254 0.49873 0.0
H92 H 0.98251 0.59577 0.5563 0.0
H93 H 0.9758 0.65611 0.60892 0.0
H94 H 0.17079 0.69378 0.61799 0.0
H95 H 0.17743 0.63363 0.56562 0.0
H96 H 0.98252 0.45533 0.51755 0.0
H97 H 0.98292 0.37409 0.55933 0.0
H98 H 0.16833 0.42094 0.60518 0.0
H99 H 0.16822 0.50168 0.56321 0.0
O100 O 0.06517 0.5086 0.28258 0.0
O101 O 0.15622 0.46747 0.30231 0.0
O102 O 0.0414 0.91131 0.53944 0.0
O103 O 0.13888 0.91937 0.52994 0.0
C104 C 0.07773 0.51477 0.47564 0.0
C105 C 0.08515 0.55862 0.45088 0.0
C106 C 0.08792 0.61911 0.46072 0.0
C107 C 0.08471 0.63597 0.49541 0.0
C108 C 0.08075 0.59181 0.52064 0.0
C109 C 0.07705 0.531 0.51081 0.0
C110 C 0.07172 0.45221 0.46346 0.0
C111 C 0.01863 0.43597 0.44047 0.0
C112 C 0.02131 0.38891 0.41697 0.0
C113 C 0.07677 0.35749 0.41674 0.0
C114 C 0.12731 0.36876 0.44255 0.0
C115 C 0.12473 0.41605 0.46603 0.0
C116 C 0.09094 0.54107 0.4144 0.0
C117 C 0.04263 0.5525 0.38733 0.0
C118 C 0.04887 0.53719 0.35305 0.0
C119 C 0.10336 0.5097 0.3453 0.0
C120 C 0.1515 0.49796 0.3726 0.0
C121 C 0.14547 0.51393 0.40679 0.0
C122 C 0.09198 0.66453 0.43397 0.0
C123 C 0.03945 0.69812 0.42113 0.0
C124 C 0.04026 0.73464 0.39249 0.0
C125 C 0.09352 0.73765 0.37651 0.0
C126 C 0.14678 0.70584 0.39002 0.0
C127 C 0.14608 0.66947 0.41874 0.0
C128 C 0.08573 0.70017 0.50522 0.0
C129 C 0.03235 0.72814 0.51385 0.0
C130 C 0.03292 0.78869 0.52253 0.0
C131 C 0.08687 0.82244 0.52249 0.0
C132 C 0.1403 0.79413 0.51384 0.0
C133 C 0.13972 0.7335 0.50532 0.0
C134 C 0.08039 0.61078 0.55718 0.0
C135 C 0.02425 0.61477 0.57058 0.0
C136 C 0.02045 0.64919 0.60046 0.0
C137 C 0.07286 0.67929 0.61698 0.0
C138 C 0.13008 0.67042 0.60557 0.0
C139 C 0.13389 0.63616 0.5758 0.0
C140 C 0.07537 0.48438 0.53732 0.0
C141 C 0.02307 0.44829 0.53672 0.0
C142 C 0.02325 0.4022 0.56055 0.0
C143 C 0.07564 0.39185 0.58524 0.0
C144 C 0.12742 0.42855 0.58634 0.0
C145 C 0.12731 0.47454 0.5625 0.0
C146 C 0.11004 0.49383 0.30884 0.0
C147 C 0.08745 0.88698 0.53119 0.0
Mg148 Mg 0.12489 0.0489 0.24425 0.0
O149 O 0.02383 0.05654 0.2173 0.0
O150 O 0.96363 0.03674 0.25772 0.0
Mg151 Mg 0.02408 0.01385 0.30889 0.0
C152 C 0.97076 0.05116 0.22698 0.0
C153 C 0.21633 0.06373 0.19665 0.0
O154 O 0.23939 0.02609 0.2207 0.0
O155 O 0.11492 0.13829 0.27191 0.0
O156 O 0.0589 0.10946 0.31275 0.0
O157 O 0.1281 0.95095 0.23278 0.0
O158 O 0.09968 0.99113 0.28029 0.0
C159 C 0.08869 0.14867 0.29871 0.0
C160 C 0.10878 0.9445 0.26235 0.0
O161 O 0.16397 0.08778 0.19835 0.0
Mg162 Mg 0.00707 0.0375 0.71147 0.0
O163 O 0.08566 0.04088 0.75689 0.0
O164 O 0.17435 0.02262 0.73643 0.0
Mg165 Mg 0.15044 0.00611 0.67754 0.0
C166 C 0.1441 0.03446 0.76135 0.0
C167 C 0.89782 0.04418 0.74745 0.0
O168 O 0.88492 0.00281 0.7234 0.0
O169 O 0.03363 0.12767 0.6924 0.0
O170 O 0.11793 0.10378 0.66841 0.0
O171 O -0.00315 0.94125 0.71969 0.0
O172 O 0.05566 0.97833 0.68338 0.0
C173 C 0.07705 0.14125 0.67536 0.0
C174 C 0.03527 0.93273 0.69785 0.0
O175 O 0.94556 0.07587 0.7477 0.0
C176 C 0.32395 0.07141 0.12118 0.0
C177 C 0.36088 0.06643 0.1011 0.0
C178 C 0.28204 0.07479 0.14556 0.0
C179 C 0.24878 0.07281 0.16766 0.0
C180 C 0.07778 0.29975 0.62717 0.0
C181 C 0.07739 0.34185 0.60822 0.0
C182 C 0.07776 0.24708 0.64663 0.0
C183 C 0.07628 0.19916 0.66008 0.0
C184 C 0.8115 0.07178 0.16058 0.0
C185 C 0.76514 0.06983 0.13958 0.0
C186 C 0.86813 0.0681 0.18317 0.0
C187 C 0.91611 0.0608 0.20232 0.0
C188 C 0.06394 0.7684 0.66082 0.0
C189 C 0.06628 0.72744 0.64081 0.0
C190 C 0.05841 0.82365 0.67758 0.0
C191 C 0.04799 0.87357 0.68675 0.0
C192 C 0.24541 0.04541 0.85697 0.0
C193 C 0.28537 0.0458 0.88185 0.0
C194 C 0.20619 0.04306 0.82476 0.0
C195 C 0.17692 0.03933 0.79604 0.0
C196 C 0.089 0.2867 0.36346 0.0
C197 C 0.08385 0.31889 0.38786 0.0
C198 C 0.09383 0.24633 0.336 0.0
C199 C 0.09543 0.20515 0.31608 0.0
C200 C 0.80724 0.03 0.82972 0.0
C201 C 0.77709 0.02441 0.85287 0.0
C202 C 0.83976 0.03862 0.80171 0.0
C203 C 0.86758 0.04286 0.77748 0.0
C204 C 0.09317 0.80382 0.32106 0.0
C205 C 0.09349 0.7736 0.34634 0.0
C206 C 0.09588 0.84525 0.29462 0.0
C207 C 0.10285 0.88732 0.27694 0.0
loop_
_geom_bond_atom_site_label_1
_geom_bond_atom_site_label_2
_geom_bond_distance
_geom_bond_site_symmetry_2
_ccdc_geom_bond_type
H0 O26 0.856 . S
H1 O29 0.854 . S
H2 C37 0.930 . S
H3 C38 0.930 . S
H4 C40 0.930 1_565 S
H5 C41 0.930 1_565 S
H6 C43 0.931 . S
H7 C44 0.930 . S
H8 C46 0.930 . S
H9 C47 0.929 . S
H10 C49 0.930 . S
H11 C50 0.931 . S
H12 C52 0.930 . S
H13 C53 0.929 . S
H14 C55 0.931 . S
H15 C56 0.930 . S
H16 C58 0.930 . S
H17 C59 0.922 1_556 S
H18 C61 0.930 . S
H19 C62 0.929 . S
H20 C64 0.931 1_565 S
H21 C65 0.930 1_565 S
H22 C67 0.929 . S
H23 C68 0.931 . S
H24 C70 0.930 . S
H25 C71 0.929 . S
O26 H0 0.856 . S
O26 C72 1.300 . S
O27 C72 1.209 1_565 S
O28 C73 1.199 . S
O29 H1 0.854 . S
O29 C73 1.297 1_565 S
C30 C31 1.404 . S
C30 C35 1.397 1_556 S
C30 C36 1.492 . S
C31 C30 1.404 . S
C31 C32 1.396 . S
C31 C42 1.492 . S
C32 C31 1.396 . S
C32 C33 1.397 . S
C32 C48 1.509 . S
C33 C32 1.397 . S
C33 C34 1.412 1_556 S
C33 C54 1.485 1_556 S
C34 C33 1.412 1_554 S
C34 C35 1.388 . S
C34 C60 1.490 . S
C35 C30 1.397 1_554 S
C35 C34 1.388 . S
C35 C66 1.519 . S
C36 C30 1.492 . S
C36 C37 1.363 . S
C36 C41 1.390 . S
C37 H2 0.930 . S
C37 C36 1.363 . S
C37 C38 1.372 . S
C38 H3 0.930 . S
C38 C37 1.372 . S
C38 C39 1.383 . S
C39 C38 1.383 . S
C39 C40 1.395 . S
C40 H4 0.930 1_545 S
C40 C39 1.395 . S
C40 C41 1.362 . S
C41 H5 0.930 1_545 S
C41 C36 1.390 . S
C41 C40 1.362 . S
C42 C31 1.492 . S
C42 C43 1.377 . S
C42 C47 1.397 1_545 S
C43 H6 0.931 . S
C43 C42 1.377 . S
C43 C44 1.376 . S
C44 H7 0.930 . S
C44 C43 1.376 . S
C44 C45 1.376 . S
C45 C44 1.376 . S
C45 C46 1.378 1_545 S
C45 C72 1.486 . S
C46 H8 0.930 . S
C46 C45 1.378 1_565 S
C46 C47 1.376 . S
C47 H9 0.929 . S
C47 C42 1.397 1_565 S
C47 C46 1.376 . S
C48 C32 1.509 . S
C48 C49 1.391 . S
C48 C53 1.386 1_545 S
C49 H10 0.930 . S
C49 C48 1.391 . S
C49 C50 1.375 . S
C50 H11 0.931 . S
C50 C49 1.375 . S
C50 C51 1.375 . S
C51 C50 1.375 . S
C51 C52 1.361 1_545 S
C52 H12 0.930 . S
C52 C51 1.361 1_565 S
C52 C53 1.399 . S
C53 H13 0.929 . S
C53 C48 1.386 1_565 S
C53 C52 1.399 . S
C54 C33 1.485 1_554 S
C54 C55 1.394 . S
C54 C59 1.365 1_545 S
C55 H14 0.931 . S
C55 C54 1.394 . S
C55 C56 1.372 . S
C56 H15 0.930 . S
C56 C55 1.372 . S
C56 C57 1.397 . S
C57 C56 1.397 . S
C57 C58 1.390 1_545 S
C57 C73 1.476 . S
C58 H16 0.930 . S
C58 C57 1.390 1_565 S
C58 C59 1.370 . S
C59 H17 0.922 1_554 S
C59 C54 1.365 1_565 S
C59 C58 1.370 . S
C60 C34 1.490 . S
C60 C61 1.380 . S
C60 C65 1.386 . S
C61 H18 0.930 . S
C61 C60 1.380 . S
C61 C62 1.381 . S
C62 H19 0.929 . S
C62 C61 1.381 . S
C62 C63 1.371 . S
C63 C62 1.371 . S
C63 C64 1.380 . S
C64 H20 0.931 1_545 S
C64 C63 1.380 . S
C64 C65 1.387 . S
C65 H21 0.930 1_545 S
C65 C60 1.386 . S
C65 C64 1.387 . S
C66 C35 1.519 . S
C66 C67 1.377 . S
C66 C71 1.361 1_545 S
C67 H22 0.929 . S
C67 C66 1.377 . S
C67 C68 1.386 . S
C68 H23 0.931 . S
C68 C67 1.386 . S
C68 C69 1.363 . S
C69 C68 1.363 . S
C69 C70 1.385 1_545 S
C70 H24 0.930 . S
C70 C69 1.385 1_565 S
C70 C71 1.396 . S
C71 H25 0.929 . S
C71 C66 1.361 1_565 S
C71 C70 1.396 . S
C72 O26 1.300 . S
C72 O27 1.209 1_545 S
C72 C45 1.486 . S
C73 O28 1.199 . S
C73 O29 1.297 1_545 S
C73 C57 1.476 . S
H74 O100 0.856 . S
H75 O103 0.854 . S
H76 C111 0.930 1_655 S
H77 C112 0.930 1_655 S
H78 C114 0.930 . S
H79 C115 0.930 . S
H80 C117 0.931 . S
H81 C118 0.930 . S
H82 C120 0.930 . S
H83 C121 0.929 . S
H84 C123 0.930 . S
H85 C124 0.931 . S
H86 C126 0.930 . S
H87 C127 0.929 . S
H88 C129 0.931 . S
H89 C130 0.930 . S
H90 C132 0.930 . S
H91 C133 0.932 . S
H92 C135 0.930 1_655 S
H93 C136 0.929 1_655 S
H94 C138 0.931 . S
H95 C139 0.930 . S
H96 C141 0.929 1_655 S
H97 C142 0.931 . S
H98 C144 0.930 . S
H99 C145 0.929 . S
O100 H74 0.856 . S
O100 C146 1.300 . S
O101 C146 1.209 . S
O102 C147 1.199 . S
O103 H75 0.854 . S
O103 C147 1.297 . S
C104 C105 1.404 . S
C104 C109 1.397 . S
C104 C110 1.492 . S
C105 C104 1.404 . S
C105 C106 1.396 . S
C105 C116 1.492 . S
C106 C105 1.396 . S
C106 C107 1.397 . S
C106 C122 1.509 . S
C107 C106 1.397 . S
C107 C108 1.412 . S
C107 C128 1.485 . S
C108 C107 1.412 . S
C108 C109 1.388 . S
C108 C134 1.490 . S
C109 C104 1.397 . S
C109 C108 1.388 . S
C109 C140 1.519 . S
C110 C104 1.492 . S
C110 C111 1.363 . S
C110 C115 1.390 . S
C111 H76 0.930 1_455 S
C111 C110 1.363 . S
C111 C112 1.372 . S
C112 H77 0.930 1_455 S
C112 C111 1.372 . S
C112 C113 1.383 . S
C113 C112 1.383 . S
C113 C114 1.395 . S
C114 H78 0.930 . S
C114 C113 1.395 . S
C114 C115 1.362 . S
C115 H79 0.930 . S
C115 C110 1.390 . S
C115 C114 1.362 . S
C116 C105 1.492 . S
C116 C117 1.377 . S
C116 C121 1.397 . S
C117 H80 0.931 . S
C117 C116 1.377 . S
C117 C118 1.376 . S
C118 H81 0.930 . S
C118 C117 1.376 . S
C118 C119 1.376 . S
C119 C118 1.376 . S
C119 C120 1.378 . S
C119 C146 1.486 . S
C120 H82 0.930 . S
C120 C119 1.378 . S
C120 C121 1.376 . S
C121 H83 0.929 . S
C121 C116 1.397 . S
C121 C120 1.376 . S
C122 C106 1.509 . S
C122 C123 1.391 . S
C122 C127 1.386 . S
C123 H84 0.930 . S
C123 C122 1.391 . S
C123 C124 1.375 . S
C124 H85 0.931 . S
C124 C123 1.375 . S
C124 C125 1.375 . S
C125 C124 1.375 . S
C125 C126 1.361 . S
C126 H86 0.930 . S
C126 C125 1.361 . S
C126 C127 1.399 . S
C127 H87 0.929 . S
C127 C122 1.386 . S
C127 C126 1.399 . S
C128 C107 1.485 . S
C128 C129 1.394 . S
C128 C133 1.360 . S
C129 H88 0.931 . S
C129 C128 1.394 . S
C129 C130 1.372 . S
C130 H89 0.930 . S
C130 C129 1.372 . S
C130 C131 1.397 . S
C131 C130 1.397 . S
C131 C132 1.390 . S
C131 C147 1.476 . S
C132 H90 0.930 . S
C132 C131 1.390 . S
C132 C133 1.366 . S
C133 H91 0.932 . S
C133 C128 1.360 . S
C133 C132 1.366 . S
C134 C108 1.490 . S
C134 C135 1.380 . S
C134 C139 1.386 . S
C135 H92 0.930 1_455 S
C135 C134 1.380 . S
C135 C136 1.381 . S
C136 H93 0.929 1_455 S
C136 C135 1.381 . S
C136 C137 1.371 . S
C137 C136 1.371 . S
C137 C138 1.380 . S
C138 H94 0.931 . S
C138 C137 1.380 . S
C138 C139 1.387 . S
C139 H95 0.930 . S
C139 C134 1.386 . S
C139 C138 1.387 . S
C140 C109 1.519 . S
C140 C141 1.377 . S
C140 C145 1.361 . S
C141 H96 0.929 1_455 S
C141 C140 1.377 . S
C141 C142 1.386 . S
C142 H97 0.931 . S
C142 C141 1.386 . S
C142 C143 1.363 . S
C143 C142 1.363 . S
C143 C144 1.385 . S
C144 H98 0.930 . S
C144 C143 1.385 . S
C144 C145 1.396 . S
C145 H99 0.929 . S
C145 C140 1.361 . S
C145 C144 1.396 . S
C146 O100 1.300 . S
C146 O101 1.209 . S
C146 C119 1.486 . S
C147 O102 1.199 . S
C147 O103 1.297 . S
C147 C131 1.476 . S
Mg148 O149 2.028 . S
Mg148 O155 1.986 . S
Mg148 O157 2.114 1_545 S
Mg148 O158 2.251 . S
Mg148 O161 2.010 . S
O149 Mg148 2.028 . S
O149 C152 1.250 1_455 S
O150 Mg151 2.028 . S
O150 C152 1.248 . S
Mg151 O150 2.028 . S
Mg151 O156 2.032 1_655 S
Mg151 O158 2.079 1_655 S
C152 O149 1.250 1_655 S
C152 O150 1.248 . S
C153 O154 1.264 . S
C153 O161 1.249 . S
O154 C153 1.264 . S
O155 Mg148 1.986 . S
O155 C159 1.246 . S
O156 Mg151 2.032 1_455 S
O156 C159 1.259 . S
O157 Mg148 2.114 1_565 S
O157 C160 1.252 . S
O158 Mg148 2.251 . S
O158 Mg151 2.079 1_455 S
O158 C160 1.273 1_545 S
C159 O155 1.246 . S
C159 O156 1.259 . S
C160 O157 1.252 . S
C160 O158 1.273 1_565 S
O161 Mg148 2.010 . S
O161 C153 1.249 . S
Mg162 O163 2.028 . S
Mg162 O169 1.986 . S
Mg162 O171 2.114 1_545 S
Mg162 O172 2.251 1_545 S
Mg162 O175 2.010 1_455 S
O163 Mg162 2.028 . S
O163 C166 1.250 . S
O164 Mg165 2.028 . S
O164 C166 1.248 . S
Mg165 O164 2.028 . S
Mg165 O170 2.032 . S
Mg165 O172 2.079 1_545 S
C166 O163 1.250 . S
C166 O164 1.248 . S
C167 O168 1.264 . S
C167 O175 1.249 . S
O168 C167 1.264 . S
O169 Mg162 1.986 . S
O169 C173 1.246 . S
O170 Mg165 2.032 . S
O170 C173 1.259 . S
O171 Mg162 2.114 1_565 S
O171 C174 1.252 . S
O172 Mg162 2.251 1_565 S
O172 Mg165 2.079 1_565 S
O172 C174 1.273 . S
C173 O169 1.246 . S
C173 O170 1.259 . S
C174 O171 1.252 . S
C174 O172 1.273 . S
O175 Mg162 2.010 1_655 S
O175 C167 1.249 . S
C176 C177 1.170 . S
C176 C178 1.380 . S
C177 C176 1.170 . S
C178 C176 1.380 . S
C178 C179 1.170 . S
C179 C178 1.170 . S
C180 C181 1.170 . S
C180 C182 1.380 . S
C181 C180 1.170 . S
C182 C180 1.380 . S
C182 C183 1.170 . S
C183 C182 1.170 . S
C184 C185 1.170 . S
C184 C186 1.380 . S
C185 C184 1.170 . S
C186 C184 1.380 . S
C186 C187 1.170 . S
C187 C186 1.170 . S
C188 C189 1.170 . S
C188 C190 1.380 . S
C189 C188 1.170 . S
C190 C188 1.380 . S
C190 C191 1.170 . S
C191 C190 1.170 . S
C192 C193 1.170 . S
C192 C194 1.380 . S
C193 C192 1.170 . S
C194 C192 1.380 . S
C194 C195 1.170 . S
C195 C194 1.170 . S
C196 C197 1.170 . S
C196 C198 1.380 . S
C197 C196 1.170 . S
C198 C196 1.380 . S
C198 C199 1.170 . S
C199 C198 1.170 . S
C200 C201 1.170 . S
C200 C202 1.380 . S
C201 C200 1.170 . S
C202 C200 1.380 . S
C202 C203 1.170 . S
C203 C202 1.170 . S
C204 C205 1.170 . S
C204 C206 1.380 . S
C205 C204 1.170 . S
C206 C204 1.380 . S
C206 C207 1.170 . S
C207 C206 1.170 . S
C179 C153 1.803 . S
C177 C69 2.050 . S
C183 C173 2.038 . S
C181 C143 2.089 . S
C187 C152 1.642 . S
C185 C63 1.528 . S
C191 C174 1.704 . S
C189 C137 1.559 . S
C195 C166 1.585 . S
C193 C39 1.448 . S
C199 C159 1.436 . S
C197 C113 1.424 . S
C203 C167 0.897 . S
C201 C51 0.935 . S
C205 C125 0.939 . S
C207 C160 0.985 . S
