# Generated by pormake.
# Topology tsx, (6,3)-cn, num edge types: 1
# Building blocks:
#     Node 0, Type 0, BuildingBlock: FUNLAD_clean_sbu_0, # of connection points: 6
#     Node 1, Type 0, BuildingBlock: FUNLAD_clean_sbu_0, # of connection points: 6
#     Node 2, Type 1, BuildingBlock: KAKCAD_clean_linker_0, # of connection points: 3
#     Node 3, Type 1, BuildingBlock: KAKCAD_clean_linker_0, # of connection points: 3
#     Node 4, Type 1, BuildingBlock: KAKCAD_clean_linker_0, # of connection points: 3
#     Node 5, Type 1, BuildingBlock: KAKCAD_clean_linker_0, # of connection points: 3
#     Edge 6, Type (0, 1), None
#     Edge 7, Type (0, 1), None
#     Edge 8, Type (0, 1), None
#     Edge 9, Type (0, 1), None
#     Edge 10, Type (0, 1), None
#     Edge 11, Type (0, 1), None
#     Edge 12, Type (0, 1), None
#     Edge 13, Type (0, 1), None
#     Edge 14, Type (0, 1), None
#     Edge 15, Type (0, 1), None
#     Edge 16, Type (0, 1), None
#     Edge 17, Type (0, 1), None
# Relax obj value: 0.161
# Max RMSD: 0.152
# Mean RMSD: 0.064
data_MOF--net-tsx--node1-FUNLAD_clean_sbu_0--node2-KAKCAD_clean_linker_0--edge1-none
_symmetry_space_group_name_H-M    P1
_symmetry_Int_Tables_number       1
_symmetry_cell_setting            triclinic
loop_
_symmetry_equiv_pos_as_xyz
'x, y, z'
_cell_length_a     12.14291
_cell_length_b     13.602916
_cell_length_c     31.216547
_cell_angle_alpha  91.154343
_cell_angle_beta   93.1159
_cell_angle_gamma 89.672886
loop_
_atom_site_label
_atom_site_type_symbol
_atom_site_fract_x
_atom_site_fract_y
_atom_site_fract_z
_atom_type_partial_charge
C0 C 0.87661 0.8462 0.00807 0.0
N1 N 0.08893 0.00948 0.08869 0.0
C2 C 1.00975 0.0391 0.11536 0.0
C3 C 0.03566 0.05339 0.159 0.0
C4 C 0.14333 0.03501 0.17537 0.0
C5 C 0.22337 1.00321 0.14753 0.0
C6 C 0.19449 0.9921 0.10381 0.0
Zn7 Zn 0.0484 0.99706 0.02481 0.0
C8 C 0.18269 0.8528 0.97856 0.0
N9 N 0.96012 0.98331 0.8926 0.0
C10 C 0.85569 0.96645 0.876 0.0
C11 C 0.04248 0.00807 0.86708 0.0
C12 C 0.02057 0.02125 0.82341 0.0
C13 C 0.91347 1.00681 0.80566 0.0
C14 C 0.8306 0.97677 0.83203 0.0
Zn15 Zn 0.99742 0.98725 0.95693 0.0
O16 O 0.9272 0.89784 0.03693 0.0
C17 C 0.85943 0.13189 -0.00325 0.0
O18 O 0.89204 0.86242 0.96863 0.0
H19 H 0.12512 0.01993 0.88076 0.0
H20 H 0.92622 0.05145 0.10282 0.0
H21 H 0.7914 0.94741 0.89698 0.0
O22 O 0.93001 0.12158 0.02822 0.0
O23 O 0.86617 0.0777 0.96379 0.0
H24 H 0.2565 0.9698 0.08197 0.0
O25 O 0.10327 0.11677 0.94963 0.0
O26 O 0.1714 0.09338 0.01495 0.0
O27 O 0.12913 0.89364 0.94791 0.0
O28 O 0.16321 0.87603 0.01718 0.0
C29 C 0.17284 0.13898 0.9803 0.0
H30 H 0.97159 0.07605 0.18 0.0
H31 H 0.30692 0.98751 0.15948 0.0
H32 H 0.08677 0.04237 0.80361 0.0
H33 H 0.74732 0.96399 0.81896 0.0
C34 C 0.37663 0.34618 0.50807 0.0
N35 N 0.58895 0.50947 0.5887 0.0
C36 C 0.50977 0.53909 0.61536 0.0
C37 C 0.53567 0.55338 0.659 0.0
C38 C 0.64335 0.53501 0.67537 0.0
C39 C 0.72338 0.5032 0.64754 0.0
C40 C 0.69451 0.49209 0.60381 0.0
Zn41 Zn 0.54842 0.49704 0.52481 0.0
C42 C 0.68272 0.35277 0.47857 0.0
N43 N 0.46015 0.48328 0.3926 0.0
C44 C 0.35571 0.46642 0.376 0.0
C45 C 0.54251 0.50804 0.36708 0.0
C46 C 0.5206 0.52122 0.32342 0.0
C47 C 0.4135 0.50679 0.30566 0.0
C48 C 0.33062 0.47675 0.33203 0.0
Zn49 Zn 0.49744 0.48723 0.45694 0.0
O50 O 0.42722 0.39782 0.53694 0.0
C51 C 0.35945 0.63187 0.49675 0.0
O52 O 0.39207 0.36239 0.46863 0.0
H53 H 0.62515 0.5199 0.38076 0.0
H54 H 0.42624 0.55143 0.60282 0.0
H55 H 0.29143 0.44738 0.39698 0.0
O56 O 0.43003 0.62156 0.52822 0.0
O57 O 0.36619 0.57768 0.46379 0.0
H58 H 0.75652 0.46979 0.58197 0.0
O59 O 0.60329 0.61674 0.44963 0.0
O60 O 0.67142 0.59336 0.51495 0.0
O61 O 0.62916 0.39362 0.44792 0.0
O62 O 0.66323 0.37601 0.51718 0.0
C63 C 0.67287 0.63895 0.4803 0.0
H64 H 0.4716 0.57605 0.68 0.0
H65 H 0.80694 0.48751 0.65948 0.0
H66 H 0.58679 0.54234 0.30361 0.0
H67 H 0.24735 0.46397 0.31897 0.0
C68 C 0.18919 0.95458 0.24451 0.0
C69 C 0.16744 0.041 0.22195 0.0
C70 C 0.18332 0.95454 0.28898 0.0
C71 C 0.15713 0.04146 0.31166 0.0
C72 C 0.14782 0.13008 0.28916 0.0
C73 C 0.15118 0.12952 0.24453 0.0
C74 C 0.12174 0.03549 0.3564 0.0
C75 C 0.16733 0.96435 0.38432 0.0
C76 C 0.11471 0.94093 0.42157 0.0
C77 C 0.01622 0.98884 0.43065 0.0
C78 C 0.98219 0.07244 0.408 0.0
C79 C 0.03265 0.09306 0.36983 0.0
C80 C 0.90355 0.14349 0.42669 0.0
C81 C 0.81299 0.11165 0.44897 0.0
C82 C 0.92555 0.24483 0.42575 0.0
C83 C 0.85735 0.31258 0.44561 0.0
C84 C 0.76691 0.28059 0.46751 0.0
C85 C 0.16362 0.86626 0.45057 0.0
C86 C 0.12019 0.77127 0.4499 0.0
C87 C 0.26084 0.88686 0.47562 0.0
C88 C 0.31882 0.81119 0.49695 0.0
C89 C 0.28046 0.71414 0.49296 0.0
C90 C 0.17785 0.69589 0.47112 0.0
C91 C 0.74531 0.1797 0.46936 0.0
H92 H 0.20144 0.8855 0.22748 0.0
H93 H 0.19029 0.8846 0.30486 0.0
H94 H 0.13143 0.19898 0.30563 0.0
H95 H 0.13535 0.19717 0.22746 0.0
H96 H 0.24085 0.92399 0.37626 0.0
H97 H 0.99878 0.15147 0.35001 0.0
H98 H 0.96918 0.96464 0.45654 0.0
H99 H 0.79288 0.03445 0.44962 0.0
H100 H 0.99621 0.27197 0.40993 0.0
H101 H 0.87352 0.39044 0.44292 0.0
H102 H 0.04543 0.75411 0.43075 0.0
H103 H 0.29526 0.96024 0.47649 0.0
H104 H 0.6732 0.15394 0.48469 0.0
H105 H 0.14735 0.62137 0.46705 0.0
H106 H 0.39879 0.82684 0.51261 0.0
C107 C 0.91321 0.11102 0.74104 0.0
C108 C 0.89177 0.02019 0.75934 0.0
C109 C 0.91561 0.11888 0.69657 0.0
C110 C 0.89931 0.03531 0.66973 0.0
C111 C 0.87036 0.94598 0.68833 0.0
C112 C 0.86575 0.93881 0.7327 0.0
C113 C 0.9263 0.03657 0.62376 0.0
C114 C 0.01607 0.0919 0.61058 0.0
C115 C 0.0574 0.07564 0.56978 0.0
C116 C 0.01217 0.99957 0.54379 0.0
C117 C 0.91435 0.95354 0.55384 0.0
C118 C 0.87103 0.97327 0.59374 0.0
C119 C 0.85961 0.88065 0.5242 0.0
C120 C 0.74916 0.89428 0.50966 0.0
C121 C 0.91331 0.79243 0.51419 0.0
C122 C 0.8549 0.71589 0.49299 0.0
C123 C 0.74219 0.72689 0.48118 0.0
C124 C 0.14508 0.13878 0.55328 0.0
C125 C 0.23214 0.17453 0.58042 0.0
C126 C 0.13913 0.1671 0.51002 0.0
C127 C 0.21638 0.23131 0.49436 0.0
C128 C 0.30076 0.26975 0.52199 0.0
C129 C 0.30878 0.23934 0.565 0.0
C130 C 0.69124 0.81838 0.48771 0.0
H131 H 0.93281 0.17484 0.7613 0.0
H132 H 0.93503 0.1894 0.68347 0.0
H133 H 0.85871 0.87943 0.66906 0.0
H134 H 0.84993 0.86794 0.74633 0.0
H135 H 0.05594 0.14522 0.63232 0.0
H136 H 0.79784 0.93452 0.60227 0.0
H137 H 0.05461 0.9769 0.51602 0.0
H138 H 0.70608 0.96181 0.51733 0.0
H139 H 0.99769 0.77989 0.52593 0.0
H140 H 0.89488 0.64492 0.48963 0.0
H141 H 0.24088 0.1531 0.61365 0.0
H142 H 0.07212 0.14231 0.48863 0.0
H143 H 0.60358 0.82752 0.48032 0.0
H144 H 0.37382 0.26674 0.58713 0.0
H145 H 0.20744 0.25363 0.46123 0.0
C146 C 0.6892 0.45459 0.74452 0.0
C147 C 0.66745 0.54101 0.72195 0.0
C148 C 0.68333 0.45456 0.78899 0.0
C149 C 0.65713 0.54148 0.81166 0.0
C150 C 0.64782 0.6301 0.78916 0.0
C151 C 0.65118 0.62953 0.74453 0.0
C152 C 0.62173 0.53551 0.8564 0.0
C153 C 0.66732 0.46438 0.88432 0.0
C154 C 0.61469 0.44095 0.92157 0.0
C155 C 0.5162 0.48887 0.93065 0.0
C156 C 0.48217 0.57247 0.90799 0.0
C157 C 0.53264 0.59309 0.86983 0.0
C158 C 0.40353 0.64352 0.92668 0.0
C159 C 0.31297 0.61167 0.94897 0.0
C160 C 0.42553 0.74486 0.92574 0.0
C161 C 0.35732 0.8126 0.9456 0.0
C162 C 0.26689 0.78062 0.9675 0.0
C163 C 0.6636 0.36628 0.95058 0.0
C164 C 0.62017 0.2713 0.94991 0.0
C165 C 0.76082 0.38688 0.97562 0.0
C166 C 0.8188 0.31121 -0.00305 0.0
C167 C 0.78044 0.21416 -0.00704 0.0
C168 C 0.67783 0.19592 0.97112 0.0
C169 C 0.24529 0.67972 0.96936 0.0
H170 H 0.70146 0.38551 0.72748 0.0
H171 H 0.6903 0.38462 0.80487 0.0
H172 H 0.63142 0.699 0.80563 0.0
H173 H 0.63535 0.69718 0.72745 0.0
H174 H 0.74084 0.42401 0.87626 0.0
H175 H 0.49877 0.65149 0.85 0.0
H176 H 0.46915 0.46466 0.95654 0.0
H177 H 0.29286 0.53447 0.94961 0.0
H178 H 0.49618 0.77199 0.90992 0.0
H179 H 0.37349 0.89046 0.94291 0.0
H180 H 0.54541 0.25414 0.93075 0.0
H181 H 0.79525 0.46026 0.97649 0.0
H182 H 0.17318 0.65397 0.98469 0.0
H183 H 0.64733 0.12139 0.96705 0.0
H184 H 0.89877 0.32686 0.01261 0.0
C185 C 0.41323 0.611 0.24105 0.0
C186 C 0.39179 0.52017 0.25934 0.0
C187 C 0.41562 0.61887 0.19657 0.0
C188 C 0.39931 0.53531 0.16973 0.0
C189 C 0.37037 0.44598 0.18833 0.0
C190 C 0.36577 0.4388 0.2327 0.0
C191 C 0.42629 0.53658 0.12377 0.0
C192 C 0.51606 0.59191 0.11058 0.0
C193 C 0.55738 0.57566 0.06978 0.0
C194 C 0.51214 0.49959 0.04379 0.0
C195 C 0.41433 0.45356 0.05384 0.0
C196 C 0.37102 0.47328 0.09374 0.0
C197 C 0.35959 0.38067 0.0242 0.0
C198 C 0.24913 0.39431 0.00966 0.0
C199 C 0.41329 0.29245 0.01419 0.0
C200 C 0.35487 0.21591 -0.00701 0.0
C201 C 0.24217 0.22692 0.98118 0.0
C202 C 0.64506 0.6388 0.05328 0.0
C203 C 0.73213 0.67455 0.08042 0.0
C204 C 0.6391 0.66713 0.01002 0.0
C205 C 0.71635 0.73134 -0.00564 0.0
C206 C 0.80073 0.76977 0.02199 0.0
C207 C 0.80876 0.73935 0.06499 0.0
C208 C 0.19122 0.3184 -0.01229 0.0
H209 H 0.43284 0.67482 0.26131 0.0
H210 H 0.43504 0.68939 0.18348 0.0
H211 H 0.35871 0.37943 0.16906 0.0
H212 H 0.34995 0.36793 0.24633 0.0
H213 H 0.55593 0.64523 0.13232 0.0
H214 H 0.29784 0.43453 0.10227 0.0
H215 H 0.55458 0.47693 0.01602 0.0
H216 H 0.20606 0.46183 0.01733 0.0
H217 H 0.49767 0.27991 0.02593 0.0
H218 H 0.39485 0.14494 -0.01037 0.0
H219 H 0.74087 0.65311 0.11365 0.0
H220 H 0.57208 0.64234 -0.01137 0.0
H221 H 0.10355 0.32754 0.98032 0.0
H222 H 0.87381 0.76675 0.08713 0.0
H223 H 0.7074 0.75366 0.96123 0.0
loop_
_geom_bond_atom_site_label_1
_geom_bond_atom_site_label_2
_geom_bond_distance
_geom_bond_site_symmetry_2
_ccdc_geom_bond_type
C0 O16 1.251 . S
C0 O18 1.254 1_554 S
N1 C2 1.333 1_445 S
N1 C6 1.307 . S
N1 Zn7 2.020 . S
C2 N1 1.333 1_665 S
C2 C3 1.379 . S
C2 H20 0.952 . S
C3 C2 1.379 . S
C3 C4 1.390 1_665 S
C3 H30 0.949 . S
C4 C3 1.390 1_445 S
C4 C5 1.357 . S
C5 C4 1.357 . S
C5 C6 1.370 . S
C5 H31 0.950 . S
C6 N1 1.307 . S
C6 C5 1.370 . S
C6 H24 0.948 . S
Zn7 N1 2.020 . S
Zn7 O16 2.039 1_445 S
Zn7 O22 2.034 1_455 S
Zn7 O26 2.025 . S
Zn7 O28 2.024 1_545 S
C8 O27 1.246 1_554 S
C8 O28 1.249 . S
N9 C10 1.307 1_455 S
N9 C11 1.333 1_565 S
N9 Zn15 2.020 1_565 S
C10 N9 1.307 1_655 S
C10 C14 1.370 . S
C10 H21 0.948 . S
C11 N9 1.333 1_545 S
C11 C12 1.379 . S
C11 H19 0.952 . S
C12 C11 1.379 . S
C12 C13 1.390 . S
C12 H32 0.949 . S
C13 C12 1.390 . S
C13 C14 1.357 1_445 S
C14 C10 1.370 . S
C14 C13 1.357 1_665 S
C14 H33 0.950 . S
Zn15 N9 2.020 1_545 S
Zn15 O18 2.025 1_445 S
Zn15 O23 2.024 1_455 S
Zn15 O25 2.039 . S
Zn15 O27 2.034 1_545 S
O16 C0 1.251 . S
O16 Zn7 2.039 1_665 S
C17 O22 1.246 . S
C17 O23 1.249 1_554 S
O18 C0 1.254 1_556 S
O18 Zn15 2.025 1_665 S
H19 C11 0.952 . S
H20 C2 0.952 . S
H21 C10 0.948 . S
O22 Zn7 2.034 1_655 S
O22 C17 1.246 . S
O23 Zn15 2.024 1_655 S
O23 C17 1.249 1_556 S
H24 C6 0.948 . S
O25 Zn15 2.039 . S
O25 C29 1.251 1_556 S
O26 Zn7 2.025 . S
O26 C29 1.254 . S
O27 C8 1.246 1_556 S
O27 Zn15 2.034 1_565 S
O28 Zn7 2.024 1_565 S
O28 C8 1.249 . S
C29 O25 1.251 1_554 S
C29 O26 1.254 . S
H30 C3 0.949 . S
H31 C5 0.950 . S
H32 C12 0.949 . S
H33 C14 0.950 . S
C34 O50 1.251 . S
C34 O52 1.254 . S
N35 C36 1.333 . S
N35 C40 1.307 . S
N35 Zn41 2.020 . S
C36 N35 1.333 . S
C36 C37 1.379 . S
C36 H54 0.952 . S
C37 C36 1.379 . S
C37 C38 1.390 . S
C37 H64 0.949 . S
C38 C37 1.390 . S
C38 C39 1.357 . S
C39 C38 1.357 . S
C39 C40 1.370 . S
C39 H65 0.950 . S
C40 N35 1.307 . S
C40 C39 1.370 . S
C40 H58 0.948 . S
Zn41 N35 2.020 . S
Zn41 O50 2.039 . S
Zn41 O56 2.034 . S
Zn41 O60 2.025 . S
Zn41 O62 2.024 . S
C42 O61 1.246 . S
C42 O62 1.249 . S
N43 C44 1.307 . S
N43 C45 1.333 . S
N43 Zn49 2.020 . S
C44 N43 1.307 . S
C44 C48 1.370 . S
C44 H55 0.948 . S
C45 N43 1.333 . S
C45 C46 1.379 . S
C45 H53 0.952 . S
C46 C45 1.379 . S
C46 C47 1.390 . S
C46 H66 0.949 . S
C47 C46 1.390 . S
C47 C48 1.357 . S
C48 C44 1.370 . S
C48 C47 1.357 . S
C48 H67 0.950 . S
Zn49 N43 2.020 . S
Zn49 O52 2.025 . S
Zn49 O57 2.024 . S
Zn49 O59 2.039 . S
Zn49 O61 2.034 . S
O50 C34 1.251 . S
O50 Zn41 2.039 . S
C51 O56 1.246 . S
C51 O57 1.249 . S
O52 C34 1.254 . S
O52 Zn49 2.025 . S
H53 C45 0.952 . S
H54 C36 0.952 . S
H55 C44 0.948 . S
O56 Zn41 2.034 . S
O56 C51 1.246 . S
O57 Zn49 2.024 . S
O57 C51 1.249 . S
H58 C40 0.948 . S
O59 Zn49 2.039 . S
O59 C63 1.251 . S
O60 Zn41 2.025 . S
O60 C63 1.254 . S
O61 C42 1.246 . S
O61 Zn49 2.034 . S
O62 Zn41 2.024 . S
O62 C42 1.249 . S
C63 O59 1.251 . S
C63 O60 1.254 . S
H64 C37 0.949 . S
H65 C39 0.950 . S
H66 C46 0.949 . S
H67 C48 0.950 . S
C68 C69 1.386 1_565 S
C68 C70 1.397 . S
C68 H92 0.931 . S
C69 C68 1.386 1_545 S
C69 C73 1.397 1_655 S
C70 C68 1.397 . S
C70 C71 1.384 1_655 S
C70 H93 0.930 . S
C71 C70 1.384 1_455 S
C71 C72 1.377 1_565 S
C71 C74 1.481 . S
C72 C71 1.377 1_545 S
C72 C73 1.389 . S
C72 H94 0.929 . S
C73 C69 1.397 1_455 S
C73 C72 1.389 . S
C73 H95 0.931 . S
C74 C71 1.481 . S
C74 C75 1.389 . S
C74 C79 1.389 1_465 S
C75 C74 1.389 . S
C75 C76 1.401 . S
C75 H96 0.930 . S
C76 C75 1.401 . S
C76 C77 1.376 1_455 S
C76 C85 1.511 . S
C77 C76 1.376 1_655 S
C77 C78 1.392 1_565 S
C77 H98 0.931 . S
C78 C77 1.392 1_545 S
C78 C79 1.361 . S
C78 C80 1.500 . S
C79 C74 1.389 1_645 S
C79 C78 1.361 . S
C79 H97 0.931 . S
C80 C78 1.500 . S
C80 C81 1.371 . S
C80 C82 1.365 . S
C81 C80 1.371 . S
C81 C91 1.386 . S
C81 H99 0.931 . S
C82 C80 1.365 . S
C82 C83 1.409 . S
C82 H100 0.929 . S
C83 C82 1.409 . S
C83 C84 1.380 . S
C83 H101 0.930 . S
C84 C83 1.380 . S
C84 C91 1.357 . S
C85 C76 1.511 . S
C85 C86 1.341 . S
C85 C87 1.371 . S
C86 C85 1.341 . S
C86 C90 1.394 . S
C86 H102 0.930 . S
C87 C85 1.371 . S
C87 C88 1.392 . S
C87 H103 0.931 . S
C88 C87 1.392 . S
C88 C89 1.331 . S
C88 H106 0.932 . S
C89 C88 1.331 . S
C89 C90 1.336 . S
C90 C86 1.394 . S
C90 C89 1.336 . S
C90 H105 0.929 . S
C91 C81 1.386 . S
C91 C84 1.357 . S
C91 H104 0.928 . S
H92 C68 0.931 . S
H93 C70 0.930 . S
H94 C72 0.929 . S
H95 C73 0.931 . S
H96 C75 0.930 . S
H97 C79 0.931 . S
H98 C77 0.931 . S
H99 C81 0.931 . S
H100 C82 0.929 . S
H101 C83 0.930 . S
H102 C86 0.930 . S
H103 C87 0.931 . S
H104 C91 0.928 . S
H105 C90 0.929 . S
H106 C88 0.932 . S
C107 C108 1.386 . S
C107 C109 1.397 . S
C107 H131 0.931 . S
C108 C107 1.386 . S
C108 C112 1.397 1_545 S
C109 C107 1.397 . S
C109 C110 1.384 . S
C109 H132 0.930 . S
C110 C109 1.384 . S
C110 C111 1.377 1_545 S
C110 C113 1.481 . S
C111 C110 1.377 1_565 S
C111 C112 1.389 . S
C111 H133 0.929 . S
C112 C108 1.397 1_565 S
C112 C111 1.389 . S
C112 H134 0.931 . S
C113 C110 1.481 . S
C113 C114 1.387 . S
C113 C118 1.390 1_445 S
C114 C113 1.387 . S
C114 C115 1.401 . S
C114 H135 0.930 . S
C115 C114 1.401 . S
C115 C116 1.376 . S
C115 C124 1.511 . S
C116 C115 1.376 . S
C116 C117 1.392 1_445 S
C116 H137 0.931 . S
C117 C116 1.392 1_665 S
C117 C118 1.361 . S
C117 C119 1.500 . S
C118 C113 1.390 1_665 S
C118 C117 1.361 . S
C118 H136 0.931 . S
C119 C117 1.500 . S
C119 C120 1.371 . S
C119 C121 1.365 . S
C120 C119 1.371 . S
C120 C130 1.386 . S
C120 H138 0.931 . S
C121 C119 1.365 . S
C121 C122 1.409 . S
C121 H139 0.929 . S
C122 C121 1.409 . S
C122 C123 1.380 . S
C122 H140 0.930 . S
C123 C122 1.380 . S
C123 C130 1.357 . S
C124 C115 1.511 . S
C124 C125 1.341 . S
C124 C126 1.371 . S
C125 C124 1.341 . S
C125 C129 1.394 . S
C125 H141 0.930 . S
C126 C124 1.371 . S
C126 C127 1.392 . S
C126 H142 0.931 . S
C127 C126 1.392 . S
C127 C128 1.331 . S
C127 H145 0.932 . S
C128 C127 1.331 . S
C128 C129 1.336 . S
C129 C125 1.394 . S
C129 C128 1.336 . S
C129 H144 0.929 . S
C130 C120 1.386 . S
C130 C123 1.357 . S
C130 H143 0.928 . S
H131 C107 0.931 . S
H132 C109 0.930 . S
H133 C111 0.929 . S
H134 C112 0.931 . S
H135 C114 0.930 . S
H136 C118 0.931 . S
H137 C116 0.931 . S
H138 C120 0.931 . S
H139 C121 0.929 . S
H140 C122 0.930 . S
H141 C125 0.930 . S
H142 C126 0.931 . S
H143 C130 0.928 . S
H144 C129 0.929 . S
H145 C127 0.932 . S
C146 C147 1.386 . S
C146 C148 1.397 . S
C146 H170 0.931 . S
C147 C146 1.386 . S
C147 C151 1.397 . S
C148 C146 1.397 . S
C148 C149 1.384 . S
C148 H171 0.930 . S
C149 C148 1.384 . S
C149 C150 1.377 . S
C149 C152 1.481 . S
C150 C149 1.377 . S
C150 C151 1.389 . S
C150 H172 0.929 . S
C151 C147 1.397 . S
C151 C150 1.389 . S
C151 H173 0.931 . S
C152 C149 1.481 . S
C152 C153 1.387 . S
C152 C157 1.390 . S
C153 C152 1.387 . S
C153 C154 1.401 . S
C153 H174 0.930 . S
C154 C153 1.401 . S
C154 C155 1.376 . S
C154 C163 1.511 . S
C155 C154 1.376 . S
C155 C156 1.392 . S
C155 H176 0.931 1_556 S
C156 C155 1.392 . S
C156 C157 1.361 . S
C156 C158 1.500 . S
C157 C152 1.390 . S
C157 C156 1.361 . S
C157 H175 0.931 . S
C158 C156 1.500 . S
C158 C159 1.371 1_556 S
C158 C160 1.365 . S
C159 C158 1.371 1_554 S
C159 C169 1.386 . S
C159 H177 0.931 . S
C160 C158 1.365 . S
C160 C161 1.412 . S
C160 H178 0.929 . S
C161 C160 1.412 . S
C161 C162 1.375 1_556 S
C161 H179 0.933 . S
C162 C161 1.375 1_554 S
C162 C169 1.357 . S
C163 C154 1.511 . S
C163 C164 1.341 . S
C163 C165 1.371 1_556 S
C164 C163 1.341 . S
C164 C168 1.389 1_556 S
C164 H180 0.930 . S
C165 C163 1.371 1_554 S
C165 C166 1.392 . S
C165 H181 0.931 . S
C166 C165 1.392 . S
C166 C167 1.331 . S
C166 H184 0.932 . S
C167 C166 1.331 . S
C167 C168 1.346 . S
C168 C164 1.389 1_554 S
C168 C167 1.346 . S
C168 H183 0.924 1_554 S
C169 C159 1.386 . S
C169 C162 1.357 . S
C169 H182 0.928 . S
H170 C146 0.931 . S
H171 C148 0.930 . S
H172 C150 0.929 . S
H173 C151 0.931 . S
H174 C153 0.930 . S
H175 C157 0.931 . S
H176 C155 0.931 1_554 S
H177 C159 0.931 . S
H178 C160 0.929 . S
H179 C161 0.933 . S
H180 C164 0.930 . S
H181 C165 0.931 . S
H182 C169 0.928 . S
H183 C168 0.924 1_556 S
H184 C166 0.932 . S
C185 C186 1.386 . S
C185 C187 1.397 . S
C185 H209 0.931 . S
C186 C185 1.386 . S
C186 C190 1.397 . S
C187 C185 1.397 . S
C187 C188 1.384 . S
C187 H210 0.930 . S
C188 C187 1.384 . S
C188 C189 1.377 . S
C188 C191 1.481 . S
C189 C188 1.377 . S
C189 C190 1.389 . S
C189 H211 0.929 . S
C190 C186 1.397 . S
C190 C189 1.389 . S
C190 H212 0.931 . S
C191 C188 1.481 . S
C191 C192 1.387 . S
C191 C196 1.390 . S
C192 C191 1.387 . S
C192 C193 1.401 . S
C192 H213 0.930 . S
C193 C192 1.401 . S
C193 C194 1.376 . S
C193 C202 1.511 . S
C194 C193 1.376 . S
C194 C195 1.392 . S
C194 H215 0.931 1_554 S
C195 C194 1.392 . S
C195 C196 1.361 . S
C195 C197 1.500 . S
C196 C191 1.390 . S
C196 C195 1.361 . S
C196 H214 0.931 . S
C197 C195 1.500 . S
C197 C198 1.371 1_554 S
C197 C199 1.365 . S
C198 C197 1.371 1_556 S
C198 C208 1.386 . S
C198 H216 0.931 . S
C199 C197 1.365 . S
C199 C200 1.409 . S
C199 H217 0.929 . S
C200 C199 1.409 . S
C200 C201 1.380 1_554 S
C200 H218 0.930 . S
C201 C200 1.380 1_556 S
C201 C208 1.357 . S
C202 C193 1.511 . S
C202 C203 1.341 . S
C202 C204 1.371 1_554 S
C203 C202 1.341 . S
C203 C207 1.394 . S
C203 H219 0.930 . S
C204 C202 1.371 1_556 S
C204 C205 1.392 . S
C204 H220 0.931 . S
C205 C204 1.392 . S
C205 C206 1.331 . S
C205 H223 0.932 . S
C206 C205 1.331 . S
C206 C207 1.336 1_556 S
C207 C203 1.394 . S
C207 C206 1.336 1_554 S
C207 H222 0.929 . S
C208 C198 1.386 . S
C208 C201 1.357 . S
C208 H221 0.928 . S
H209 C185 0.931 . S
H210 C187 0.930 . S
H211 C189 0.929 . S
H212 C190 0.931 . S
H213 C192 0.930 . S
H214 C196 0.931 . S
H215 C194 0.931 1_556 S
H216 C198 0.931 . S
H217 C199 0.929 . S
H218 C200 0.930 . S
H219 C203 0.930 . S
H220 C204 0.931 . S
H221 C208 0.928 . S
H222 C207 0.929 . S
H223 C205 0.932 . S
C201 C29 2.153 1_556 S
C8 C162 2.055 . S
C0 C206 2.046 1_554 S
C17 C167 2.155 . S
C63 C123 2.153 . S
C42 C84 2.055 . S
C128 C34 2.046 . S
C89 C51 2.154 . S
C4 C69 1.496 1_455 S
C13 C108 1.490 . S
C147 C38 1.496 . S
C47 C186 1.490 . S
