# Generated by pormake.
# Topology hwx, (6,3)-cn, num edge types: 1
# Building blocks:
#     Node 0, Type 0, BuildingBlock: OJICUG_clean_sbu_0, # of connection points: 6
#     Node 1, Type 0, BuildingBlock: OJICUG_clean_sbu_0, # of connection points: 6
#     Node 2, Type 0, BuildingBlock: OJICUG_clean_sbu_0, # of connection points: 6
#     Node 3, Type 0, BuildingBlock: OJICUG_clean_sbu_0, # of connection points: 6
#     Node 4, Type 1, BuildingBlock: PAMTOO_clean_linker_0, # of connection points: 3
#     Node 5, Type 1, BuildingBlock: PAMTOO_clean_linker_0, # of connection points: 3
#     Node 6, Type 1, BuildingBlock: PAMTOO_clean_linker_0, # of connection points: 3
#     Node 7, Type 1, BuildingBlock: PAMTOO_clean_linker_0, # of connection points: 3
#     Node 8, Type 1, BuildingBlock: PAMTOO_clean_linker_0, # of connection points: 3
#     Node 9, Type 1, BuildingBlock: PAMTOO_clean_linker_0, # of connection points: 3
#     Node 10, Type 1, BuildingBlock: PAMTOO_clean_linker_0, # of connection points: 3
#     Node 11, Type 1, BuildingBlock: PAMTOO_clean_linker_0, # of connection points: 3
#     Edge 12, Type (0, 1), None
#     Edge 13, Type (0, 1), None
#     Edge 14, Type (0, 1), None
#     Edge 15, Type (0, 1), None
#     Edge 16, Type (0, 1), None
#     Edge 17, Type (0, 1), None
#     Edge 18, Type (0, 1), None
#     Edge 19, Type (0, 1), None
#     Edge 20, Type (0, 1), None
#     Edge 21, Type (0, 1), None
#     Edge 22, Type (0, 1), None
#     Edge 23, Type (0, 1), None
#     Edge 24, Type (0, 1), None
#     Edge 25, Type (0, 1), None
#     Edge 26, Type (0, 1), None
#     Edge 27, Type (0, 1), None
#     Edge 28, Type (0, 1), None
#     Edge 29, Type (0, 1), None
#     Edge 30, Type (0, 1), None
#     Edge 31, Type (0, 1), None
#     Edge 32, Type (0, 1), None
#     Edge 33, Type (0, 1), None
#     Edge 34, Type (0, 1), None
#     Edge 35, Type (0, 1), None
# Relax obj value: 0.008
# Max RMSD: 0.046
# Mean RMSD: 0.035
data_MOF--net-hwx--node1-OJICUG_clean_sbu_0--node2-PAMTOO_clean_linker_0--edge1-none
_symmetry_space_group_name_H-M    P1
_symmetry_Int_Tables_number       1
_symmetry_cell_setting            triclinic
loop_
_symmetry_equiv_pos_as_xyz
'x, y, z'
_cell_length_a     23.995122
_cell_length_b     23.99926
_cell_length_c     9.7507205
_cell_angle_alpha  88.545842
_cell_angle_beta   91.452088
_cell_angle_gamma 90.224274
loop_
_atom_site_label
_atom_site_type_symbol
_atom_site_fract_x
_atom_site_fract_y
_atom_site_fract_z
_atom_type_partial_charge
Sc0 Sc 0.29676 0.27385 0.13819 0.0
Sc1 Sc 0.19584 0.19571 -0.03717 0.0
Sc2 Sc 0.27365 0.29689 0.78745 0.0
O3 O 0.25569 0.25575 -0.03718 0.0
C4 C 0.28118 0.39469 0.00396 0.0
C5 C 0.16774 0.26106 0.22324 0.0
C6 C 0.1491 0.27749 0.72126 0.0
C7 C 0.2778 0.14926 0.20442 0.0
C8 C 0.39457 0.28234 0.92173 0.0
C9 C 0.26133 0.16784 0.70243 0.0
O10 O 0.28444 0.36227 0.10893 0.0
O11 O 0.14899 0.24132 0.11035 0.0
O12 O 0.18721 0.31347 0.74002 0.0
O13 O 0.31366 0.18749 0.18563 0.0
O14 O 0.36213 0.28495 0.8167 0.0
O15 O 0.24163 0.14904 0.81532 0.0
O16 O 0.37736 0.27961 0.04413 0.0
O17 O 0.23184 0.14872 0.13686 0.0
O18 O 0.26975 0.21973 0.67819 0.0
O19 O 0.21961 0.26965 0.24746 0.0
O20 O 0.27906 0.37748 0.88153 0.0
O21 O 0.14871 0.23152 0.78881 0.0
Sc22 Sc 0.25038 0.78688 0.33248 0.0
Sc23 Sc 0.30815 0.6729 0.51988 0.0
Sc24 Sc 0.23468 0.77795 0.68441 0.0
O25 O 0.26429 0.74577 0.51225 0.0
C26 C 0.27653 0.88772 0.53051 0.0
C27 C 0.36938 0.74066 0.27948 0.0
C28 C 0.35618 0.73198 0.77941 0.0
C29 C 0.23289 0.65762 0.25559 0.0
C30 C 0.13418 0.80332 0.47325 0.0
C31 C 0.21983 0.65164 0.75844 0.0
O32 O 0.2677 0.86825 0.41209 0.0
O33 O 0.36229 0.69698 0.35344 0.0
O34 O 0.31 0.75673 0.79385 0.0
O35 O 0.23306 0.71006 0.23192 0.0
O36 O 0.1553 0.80139 0.59387 0.0
O37 O 0.26092 0.63723 0.68754 0.0
O38 O 0.16222 0.79535 0.36656 0.0
O39 O 0.25253 0.6357 0.36737 0.0
O40 O 0.19799 0.69975 0.74662 0.0
O41 O 0.33687 0.78227 0.28211 0.0
O42 O 0.26934 0.85948 0.64078 0.0
O43 O 0.36717 0.70459 0.67286 0.0
Sc44 Sc 0.7318 0.75003 0.78698 0.0
Sc45 Sc 0.83092 0.83096 -0.03721 0.0
Sc46 Sc 0.75008 0.73179 0.13865 0.0
O47 O 0.77091 0.7709 -0.0372 0.0
C48 C 0.63163 0.74957 -0.00468 0.0
C49 C 0.74813 0.87508 0.72058 0.0
C50 C 0.76507 0.86081 0.2226 0.0
C51 C 0.86082 0.76512 0.70299 0.0
C52 C 0.74964 0.63163 0.93034 0.0
C53 C 0.87512 0.74822 0.205 0.0
O54 O 0.65006 0.74513 0.87501 0.0
O55 O 0.79367 0.87727 0.78984 0.0
O56 O 0.75484 0.80921 0.24501 0.0
O57 O 0.80923 0.75485 0.68059 0.0
O58 O 0.74521 0.65006 0.05064 0.0
O59 O 0.87727 0.79376 0.13573 0.0
O60 O 0.74781 0.66271 0.823 0.0
O61 O 0.87914 0.78609 0.81477 0.0
O62 O 0.83547 0.71365 0.19018 0.0
O63 O 0.7136 0.83539 0.7354 0.0
O64 O 0.66273 0.74776 0.10265 0.0
O65 O 0.786 0.87914 0.1108 0.0
Sc66 Sc 0.78666 0.25034 0.59319 0.0
Sc67 Sc 0.67272 0.30825 0.40581 0.0
Sc68 Sc 0.7777 0.23467 0.24126 0.0
O69 O 0.74555 0.26431 0.41343 0.0
C70 C 0.88754 0.27637 0.39515 0.0
C71 C 0.74056 0.36938 0.64622 0.0
C72 C 0.73186 0.35621 0.14628 0.0
C73 C 0.65735 0.233 0.67009 0.0
C74 C 0.80299 0.13415 0.45239 0.0
C75 C 0.65134 0.21998 0.16723 0.0
O76 O 0.86806 0.26758 0.51358 0.0
O77 O 0.69687 0.36235 0.57224 0.0
O78 O 0.75656 0.31001 0.13184 0.0
O79 O 0.70979 0.2331 0.69376 0.0
O80 O 0.80106 0.15527 0.33177 0.0
O81 O 0.63698 0.26107 0.23815 0.0
O82 O 0.79504 0.16219 0.55909 0.0
O83 O 0.63544 0.25269 0.55832 0.0
O84 O 0.69944 0.19809 0.17904 0.0
O85 O 0.78213 0.33681 0.64361 0.0
O86 O 0.85929 0.26922 0.28489 0.0
O87 O 0.70448 0.36723 0.25282 0.0
H88 H 0.20412 0.69349 0.00134 0.0
H89 H 0.21961 0.53765 0.80084 0.0
H90 H 0.23132 0.54227 0.24073 0.0
H91 H 0.30571 0.46455 0.12467 0.0
C92 C 0.28379 0.45617 0.02535 0.0
O93 O 0.2306 0.47766 0.02768 0.0
H94 H 0.30703 0.47623 0.93972 0.0
C95 C 0.20716 0.64846 0.00839 0.0
C96 C 0.21753 0.62211 0.13718 0.0
C97 C 0.20958 0.61905 0.88629 0.0
C98 C 0.21611 0.56102 0.89387 0.0
C99 C 0.22165 0.53327 0.02204 0.0
C100 C 0.22295 0.56379 0.14342 0.0
H101 H 0.82896 0.74364 0.44447 0.0
H102 H 0.98826 0.75254 0.2575 0.0
H103 H 0.97698 0.7711 0.69423 0.0
H104 H 0.06063 0.84576 0.53149 0.0
C105 C 0.07298 0.81365 0.45784 0.0
O106 O 0.04514 0.7646 0.48725 0.0
H107 H 0.06259 0.82806 0.35086 0.0
C108 C 0.87392 0.74695 0.4561 0.0
C109 C 0.89841 0.75706 0.58576 0.0
C110 C 0.90557 0.74617 0.33767 0.0
C111 C 0.96334 0.75254 0.34866 0.0
C112 C 0.98908 0.76029 0.47767 0.0
C113 C 0.95671 0.76347 0.59594 0.0
H114 H 0.74369 0.32472 0.89022 0.0
H115 H 0.71506 0.47119 0.1242 0.0
H116 H 0.72255 0.4827 0.68231 0.0
H117 H 0.78708 0.56606 0.82079 0.0
C118 C 0.76291 0.5713 0.91556 0.0
O119 O 0.71494 0.53955 0.90877 0.0
H120 H 0.78957 0.55719 0.00487 0.0
C121 C 0.73742 0.36938 0.89563 0.0
C122 C 0.73486 0.40056 0.77308 0.0
C123 C 0.72979 0.39366 0.02309 0.0
C124 C 0.71989 0.45118 0.02689 0.0
C125 C 0.71836 0.48344 0.90392 0.0
C126 C 0.72428 0.45783 0.77659 0.0
H127 H 0.19715 0.28528 0.48325 0.0
H128 H 0.03605 0.26755 0.66067 0.0
H129 H 0.05298 0.25225 0.22517 0.0
H130 H 0.95497 0.31076 0.27938 0.0
C131 C 0.94651 0.29633 0.38623 0.0
O132 O 0.98244 0.25363 0.42445 0.0
H133 H 0.95259 0.33207 0.45567 0.0
C134 C 0.15245 0.2801 0.46961 0.0
C135 C 0.12958 0.26915 0.33873 0.0
C136 C 0.11957 0.27891 0.58643 0.0
C137 C 0.06197 0.2697 0.5713 0.0
C138 C 0.03794 0.26209 0.43989 0.0
C139 C 0.07182 0.26071 0.32466 0.0
H140 H 0.74363 0.82893 0.48112 0.0
H141 H 0.7523 0.9882 0.66807 0.0
H142 H 0.7709 0.97695 0.23134 0.0
H143 H 0.8455 0.06065 0.39419 0.0
C144 C 0.81335 0.07297 0.4678 0.0
O145 O 0.76432 0.04509 0.43832 0.0
H146 H 0.82775 0.06258 0.57479 0.0
C147 C 0.74688 0.87388 0.46949 0.0
C148 C 0.75696 0.89838 0.33982 0.0
C149 C 0.74605 0.90552 0.58791 0.0
C150 C 0.75234 0.96329 0.57691 0.0
C151 C 0.76006 0.98904 0.4479 0.0
C152 C 0.76329 0.95667 0.32964 0.0
H153 H 0.69317 0.20417 0.92433 0.0
H154 H 0.53734 0.21995 0.12483 0.0
H155 H 0.54197 0.23161 0.68494 0.0
H156 H 0.46459 0.30658 0.8015 0.0
C157 C 0.45606 0.28432 0.90029 0.0
O158 O 0.47736 0.23106 0.89799 0.0
H159 H 0.4763 0.30804 -0.01517 0.0
C160 C 0.64814 0.20728 0.91729 0.0
C161 C 0.6218 0.21769 0.78849 0.0
C162 C 0.61873 0.20976 0.03939 0.0
C163 C 0.5607 0.21639 0.0318 0.0
C164 C 0.53295 0.22197 0.90363 0.0
C165 C 0.56348 0.22321 0.78225 0.0
H166 H 0.28569 0.19729 0.44249 0.0
H167 H 0.26791 0.03625 0.26495 0.0
H168 H 0.25257 0.05311 0.70044 0.0
H169 H 0.311 0.9551 0.64629 0.0
C170 C 0.29657 0.94665 0.53943 0.0
O171 O 0.25392 0.98262 0.50112 0.0
H172 H 0.33234 0.95267 0.47003 0.0
C173 C 0.28051 0.15259 0.45609 0.0
C174 C 0.26952 0.12972 0.58695 0.0
C175 C 0.27931 0.11973 0.33924 0.0
C176 C 0.27008 0.06214 0.35435 0.0
C177 C 0.26245 0.0381 0.48573 0.0
C178 C 0.26107 0.07197 0.60098 0.0
H179 H 0.32469 0.74382 0.03548 0.0
H180 H 0.47116 0.71506 0.80148 0.0
H181 H 0.48269 0.72253 0.24336 0.0
H182 H 0.56607 0.78701 0.1049 0.0
C183 C 0.5713 0.76285 0.01011 0.0
O184 O 0.53954 0.7149 0.01689 0.0
H185 H 0.5572 0.78951 0.92082 0.0
C186 C 0.36935 0.73751 0.03006 0.0
C187 C 0.40055 0.73491 0.15261 0.0
C188 C 0.39364 0.72986 0.90259 0.0
C189 C 0.45115 0.7199 0.89879 0.0
C190 C 0.48342 0.71834 0.02175 0.0
C191 C 0.45781 0.72428 0.14908 0.0
loop_
_geom_bond_atom_site_label_1
_geom_bond_atom_site_label_2
_geom_bond_distance
_geom_bond_site_symmetry_2
_ccdc_geom_bond_type
Sc0 O3 2.025 . S
Sc0 O10 2.105 . S
Sc0 O13 2.105 . S
Sc0 O16 2.105 . S
Sc0 O19 2.105 . S
Sc1 O3 2.025 . S
Sc1 O11 2.105 . S
Sc1 O15 2.105 1_554 S
Sc1 O17 2.105 . S
Sc1 O21 2.105 1_554 S
Sc2 O3 2.025 1_556 S
Sc2 O12 2.105 . S
Sc2 O14 2.105 . S
Sc2 O18 2.105 . S
Sc2 O20 2.105 . S
O3 Sc0 2.025 . S
O3 Sc1 2.025 . S
O3 Sc2 2.025 1_554 S
C4 O10 1.273 . S
C4 O20 1.263 1_554 S
C5 O11 1.268 . S
C5 O19 1.268 . S
C6 O12 1.268 . S
C6 O21 1.268 . S
C7 O13 1.268 . S
C7 O17 1.268 . S
C8 O14 1.268 1_554 S
C8 O16 1.268 . S
C9 O15 1.268 . S
C9 O18 1.268 . S
O10 Sc0 2.105 . S
O10 C4 1.273 . S
O11 Sc1 2.105 . S
O11 C5 1.268 . S
O12 Sc2 2.105 . S
O12 C6 1.268 . S
O13 Sc0 2.105 . S
O13 C7 1.268 . S
O14 Sc2 2.105 . S
O14 C8 1.268 1_556 S
O15 Sc1 2.105 1_556 S
O15 C9 1.268 . S
O16 Sc0 2.105 . S
O16 C8 1.268 . S
O17 Sc1 2.105 . S
O17 C7 1.268 . S
O18 Sc2 2.105 . S
O18 C9 1.268 . S
O19 Sc0 2.105 . S
O19 C5 1.268 . S
O20 Sc2 2.105 . S
O20 C4 1.263 1_556 S
O21 Sc1 2.105 1_556 S
O21 C6 1.268 . S
Sc22 O25 2.025 . S
Sc22 O32 2.105 . S
Sc22 O35 2.105 . S
Sc22 O38 2.105 . S
Sc22 O41 2.105 . S
Sc23 O25 2.025 . S
Sc23 O33 2.105 . S
Sc23 O37 2.105 . S
Sc23 O39 2.105 . S
Sc23 O43 2.105 . S
Sc24 O25 2.025 . S
Sc24 O34 2.105 . S
Sc24 O36 2.105 . S
Sc24 O40 2.105 . S
Sc24 O42 2.105 . S
O25 Sc22 2.025 . S
O25 Sc23 2.025 . S
O25 Sc24 2.025 . S
C26 O32 1.268 . S
C26 O42 1.268 . S
C27 O33 1.268 . S
C27 O41 1.268 . S
C28 O34 1.268 . S
C28 O43 1.268 . S
C29 O35 1.268 . S
C29 O39 1.268 . S
C30 O36 1.268 . S
C30 O38 1.268 . S
C31 O37 1.268 . S
C31 O40 1.268 . S
O32 Sc22 2.105 . S
O32 C26 1.268 . S
O33 Sc23 2.105 . S
O33 C27 1.268 . S
O34 Sc24 2.105 . S
O34 C28 1.268 . S
O35 Sc22 2.105 . S
O35 C29 1.268 . S
O36 Sc24 2.105 . S
O36 C30 1.268 . S
O37 Sc23 2.105 . S
O37 C31 1.268 . S
O38 Sc22 2.105 . S
O38 C30 1.268 . S
O39 Sc23 2.105 . S
O39 C29 1.268 . S
O40 Sc24 2.105 . S
O40 C31 1.268 . S
O41 Sc22 2.105 . S
O41 C27 1.268 . S
O42 Sc24 2.105 . S
O42 C26 1.268 . S
O43 Sc23 2.105 . S
O43 C28 1.268 . S
Sc44 O47 2.025 1_556 S
Sc44 O54 2.105 . S
Sc44 O57 2.105 . S
Sc44 O60 2.105 . S
Sc44 O63 2.105 . S
Sc45 O47 2.025 . S
Sc45 O55 2.105 1_554 S
Sc45 O59 2.105 . S
Sc45 O61 2.105 1_554 S
Sc45 O65 2.105 . S
Sc46 O47 2.025 . S
Sc46 O56 2.105 . S
Sc46 O58 2.105 . S
Sc46 O62 2.105 . S
Sc46 O64 2.105 . S
O47 Sc44 2.025 1_554 S
O47 Sc45 2.025 . S
O47 Sc46 2.025 . S
C48 O54 1.263 1_554 S
C48 O64 1.273 . S
C49 O55 1.268 . S
C49 O63 1.268 . S
C50 O56 1.268 . S
C50 O65 1.268 . S
C51 O57 1.268 . S
C51 O61 1.268 . S
C52 O58 1.268 . S
C52 O60 1.268 1_554 S
C53 O59 1.268 . S
C53 O62 1.268 . S
O54 Sc44 2.105 . S
O54 C48 1.263 1_556 S
O55 Sc45 2.105 1_556 S
O55 C49 1.268 . S
O56 Sc46 2.105 . S
O56 C50 1.268 . S
O57 Sc44 2.105 . S
O57 C51 1.268 . S
O58 Sc46 2.105 . S
O58 C52 1.268 . S
O59 Sc45 2.105 . S
O59 C53 1.268 . S
O60 Sc44 2.105 . S
O60 C52 1.268 1_556 S
O61 Sc45 2.105 1_556 S
O61 C51 1.268 . S
O62 Sc46 2.105 . S
O62 C53 1.268 . S
O63 Sc44 2.105 . S
O63 C49 1.268 . S
O64 Sc46 2.105 . S
O64 C48 1.273 . S
O65 Sc45 2.105 . S
O65 C50 1.268 . S
Sc66 O69 2.025 . S
Sc66 O76 2.105 . S
Sc66 O79 2.105 . S
Sc66 O82 2.105 . S
Sc66 O85 2.105 . S
Sc67 O69 2.025 . S
Sc67 O77 2.105 . S
Sc67 O81 2.105 . S
Sc67 O83 2.105 . S
Sc67 O87 2.105 . S
Sc68 O69 2.025 . S
Sc68 O78 2.105 . S
Sc68 O80 2.105 . S
Sc68 O84 2.105 . S
Sc68 O86 2.105 . S
O69 Sc66 2.025 . S
O69 Sc67 2.025 . S
O69 Sc68 2.025 . S
C70 O76 1.268 . S
C70 O86 1.268 . S
C71 O77 1.268 . S
C71 O85 1.268 . S
C72 O78 1.268 . S
C72 O87 1.268 . S
C73 O79 1.268 . S
C73 O83 1.268 . S
C74 O80 1.268 . S
C74 O82 1.268 . S
C75 O81 1.268 . S
C75 O84 1.268 . S
O76 Sc66 2.105 . S
O76 C70 1.268 . S
O77 Sc67 2.105 . S
O77 C71 1.268 . S
O78 Sc68 2.105 . S
O78 C72 1.268 . S
O79 Sc66 2.105 . S
O79 C73 1.268 . S
O80 Sc68 2.105 . S
O80 C74 1.268 . S
O81 Sc67 2.105 . S
O81 C75 1.268 . S
O82 Sc66 2.105 . S
O82 C74 1.268 . S
O83 Sc67 2.105 . S
O83 C73 1.268 . S
O84 Sc68 2.105 . S
O84 C75 1.268 . S
O85 Sc66 2.105 . S
O85 C71 1.268 . S
O86 Sc68 2.105 . S
O86 C70 1.268 . S
O87 Sc67 2.105 . S
O87 C72 1.268 . S
H88 C95 0.929 1_556 S
H89 C98 0.930 . S
H90 C100 0.929 . S
H91 C92 0.969 . S
C92 H91 0.969 . S
C92 O93 1.550 1_556 S
C92 H94 0.973 . S
O93 C92 1.550 1_554 S
O93 C99 1.412 . S
H94 C92 0.973 . S
C95 H88 0.929 1_554 S
C95 C96 1.400 . S
C95 C97 1.364 1_554 S
C96 C95 1.400 . S
C96 C100 1.377 . S
C97 C95 1.364 1_556 S
C97 C98 1.374 . S
C98 H89 0.930 . S
C98 C97 1.374 . S
C98 C99 1.383 1_556 S
C99 O93 1.412 . S
C99 C98 1.383 1_554 S
C99 C100 1.394 . S
C100 H90 0.929 . S
C100 C96 1.377 . S
C100 C99 1.394 . S
H101 C108 0.929 . S
H102 C111 0.929 1_455 S
H103 C113 0.929 . S
H104 C105 0.969 . S
C105 H104 0.969 . S
C105 O106 1.550 . S
C105 H107 0.973 . S
O106 C105 1.550 . S
O106 C112 1.412 . S
H107 C105 0.973 . S
C108 H101 0.929 . S
C108 C109 1.400 . S
C108 C110 1.364 . S
C109 C108 1.400 . S
C109 C113 1.377 . S
C110 C108 1.364 . S
C110 C111 1.374 . S
C111 H102 0.929 1_655 S
C111 C110 1.374 . S
C111 C112 1.383 1_655 S
C112 O106 1.412 . S
C112 C111 1.383 1_455 S
C112 C113 1.394 1_455 S
C113 H103 0.929 . S
C113 C109 1.377 . S
C113 C112 1.394 1_655 S
H114 C121 0.929 . S
H115 C124 0.930 . S
H116 C126 0.929 . S
H117 C118 0.969 . S
C118 H117 0.969 . S
C118 O119 1.550 1_554 S
C118 H120 0.973 . S
O119 C118 1.550 1_556 S
O119 C125 1.412 . S
H120 C118 0.973 . S
C121 H114 0.929 . S
C121 C122 1.400 1_554 S
C121 C123 1.364 . S
C122 C121 1.400 1_556 S
C122 C126 1.377 . S
C123 C121 1.364 . S
C123 C124 1.374 . S
C124 H115 0.930 . S
C124 C123 1.374 . S
C124 C125 1.383 1_554 S
C125 O119 1.412 . S
C125 C124 1.383 1_556 S
C125 C126 1.394 . S
C126 H116 0.929 . S
C126 C122 1.377 . S
C126 C125 1.394 . S
H127 C134 0.929 . S
H128 C137 0.932 1_655 S
H129 C139 0.929 . S
H130 C131 0.969 . S
C131 H130 0.969 . S
C131 O132 1.550 . S
C131 H133 0.973 . S
O132 C131 1.550 . S
O132 C138 1.412 . S
H133 C131 0.973 . S
C134 H127 0.929 . S
C134 C135 1.400 . S
C134 C136 1.364 . S
C135 C134 1.400 . S
C135 C139 1.377 . S
C136 C134 1.364 . S
C136 C137 1.374 . S
C137 H128 0.932 1_455 S
C137 C136 1.374 . S
C137 C138 1.383 1_455 S
C138 O132 1.412 . S
C138 C137 1.383 1_655 S
C138 C139 1.394 1_655 S
C139 H129 0.929 . S
C139 C135 1.377 . S
C139 C138 1.394 1_455 S
H140 C147 0.929 . S
H141 C150 0.937 . S
H142 C152 0.929 . S
H143 C144 0.969 . S
C144 H143 0.969 . S
C144 O145 1.550 . S
C144 H146 0.973 . S
O145 C144 1.550 . S
O145 C151 1.412 . S
H146 C144 0.973 . S
C147 H140 0.929 . S
C147 C148 1.400 . S
C147 C149 1.364 . S
C148 C147 1.400 . S
C148 C152 1.377 . S
C149 C147 1.364 . S
C149 C150 1.374 . S
C150 H141 0.937 . S
C150 C149 1.374 . S
C150 C151 1.383 1_565 S
C151 O145 1.412 . S
C151 C150 1.383 1_545 S
C151 C152 1.394 1_545 S
C152 H142 0.929 . S
C152 C148 1.377 . S
C152 C151 1.394 1_565 S
H153 C160 0.929 . S
H154 C163 0.930 . S
H155 C165 0.929 . S
H156 C157 0.969 . S
C157 H156 0.969 . S
C157 O158 1.550 1_554 S
C157 H159 0.973 . S
O158 C157 1.550 1_556 S
O158 C164 1.412 . S
H159 C157 0.973 . S
C160 H153 0.929 . S
C160 C161 1.400 1_554 S
C160 C162 1.364 . S
C161 C160 1.400 1_556 S
C161 C165 1.377 . S
C162 C160 1.364 . S
C162 C163 1.374 . S
C163 H154 0.930 . S
C163 C162 1.374 . S
C163 C164 1.383 1_554 S
C164 O158 1.412 . S
C164 C163 1.383 1_556 S
C164 C165 1.394 . S
C165 H155 0.929 . S
C165 C161 1.377 . S
C165 C164 1.394 . S
H166 C173 0.929 . S
H167 C176 0.921 1_565 S
H168 C178 0.929 . S
H169 C170 0.969 . S
C170 H169 0.969 . S
C170 O171 1.550 . S
C170 H172 0.973 . S
O171 C170 1.550 . S
O171 C177 1.412 . S
H172 C170 0.973 . S
C173 H166 0.929 . S
C173 C174 1.400 . S
C173 C175 1.364 . S
C174 C173 1.400 . S
C174 C178 1.377 . S
C175 C173 1.364 . S
C175 C176 1.374 . S
C176 H167 0.921 1_545 S
C176 C175 1.374 . S
C176 C177 1.383 1_545 S
C177 O171 1.412 . S
C177 C176 1.383 1_565 S
C177 C178 1.394 1_565 S
C178 H168 0.929 . S
C178 C174 1.377 . S
C178 C177 1.394 1_545 S
H179 C186 0.929 1_556 S
H180 C189 0.930 . S
H181 C191 0.929 . S
H182 C183 0.969 . S
C183 H182 0.969 . S
C183 O184 1.550 1_556 S
C183 H185 0.973 . S
O184 C183 1.550 1_554 S
O184 C190 1.412 . S
H185 C183 0.973 . S
C186 H179 0.929 1_554 S
C186 C187 1.400 . S
C186 C188 1.364 1_554 S
C187 C186 1.400 . S
C187 C191 1.377 . S
C188 C186 1.364 1_556 S
C188 C189 1.374 . S
C189 H180 0.930 . S
C189 C188 1.374 . S
C189 C190 1.383 1_556 S
C190 O184 1.412 . S
C190 C189 1.383 1_554 S
C190 C191 1.394 . S
C191 H181 0.929 . S
C191 C187 1.377 . S
C191 C190 1.394 . S
C5 C135 1.497 . S
C31 C97 1.503 . S
C110 C53 1.436 . S
C71 C122 1.433 . S
C162 C75 1.503 . S
C174 C9 1.497 . S
C187 C27 1.433 . S
C149 C49 1.436 . S
C51 C109 1.480 . S
C72 C123 1.512 . S
C6 C136 1.443 . S
C96 C29 1.419 . S
C28 C188 1.512 . S
C148 C50 1.480 . S
C161 C73 1.419 . S
C7 C175 1.443 . S
C92 C4 1.436 1_556 S
C105 C30 1.452 . S
C52 C118 1.606 . S
C70 C131 1.620 . S
C144 C74 1.452 . S
C8 C157 1.437 . S
C26 C170 1.620 . S
C48 C183 1.605 1_554 S
