# Generated by pormake.
# Topology anh, (6,3)-cn, num edge types: 1
# Building blocks:
#     Node 0, Type 0, BuildingBlock: CUKXOW_clean_sbu_0, # of connection points: 6
#     Node 1, Type 0, BuildingBlock: CUKXOW_clean_sbu_0, # of connection points: 6
#     Node 2, Type 0, BuildingBlock: CUKXOW_clean_sbu_0, # of connection points: 6
#     Node 3, Type 1, BuildingBlock: INOVEN_clean_linker_0, # of connection points: 3
#     Node 4, Type 1, BuildingBlock: INOVEN_clean_linker_0, # of connection points: 3
#     Node 5, Type 1, BuildingBlock: INOVEN_clean_linker_0, # of connection points: 3
#     Node 6, Type 1, BuildingBlock: INOVEN_clean_linker_0, # of connection points: 3
#     Node 7, Type 1, BuildingBlock: INOVEN_clean_linker_0, # of connection points: 3
#     Node 8, Type 1, BuildingBlock: INOVEN_clean_linker_0, # of connection points: 3
#     Edge 9, Type (0, 1), BuildingBlock: EYOCIG_clean_linker_4, # of connection points: 2
#     Edge 10, Type (0, 1), BuildingBlock: EYOCIG_clean_linker_4, # of connection points: 2
#     Edge 11, Type (0, 1), BuildingBlock: EYOCIG_clean_linker_4, # of connection points: 2
#     Edge 12, Type (0, 1), BuildingBlock: EYOCIG_clean_linker_4, # of connection points: 2
#     Edge 13, Type (0, 1), BuildingBlock: EYOCIG_clean_linker_4, # of connection points: 2
#     Edge 14, Type (0, 1), BuildingBlock: EYOCIG_clean_linker_4, # of connection points: 2
#     Edge 15, Type (0, 1), BuildingBlock: EYOCIG_clean_linker_4, # of connection points: 2
#     Edge 16, Type (0, 1), BuildingBlock: EYOCIG_clean_linker_4, # of connection points: 2
#     Edge 17, Type (0, 1), BuildingBlock: EYOCIG_clean_linker_4, # of connection points: 2
#     Edge 18, Type (0, 1), BuildingBlock: EYOCIG_clean_linker_4, # of connection points: 2
#     Edge 19, Type (0, 1), BuildingBlock: EYOCIG_clean_linker_4, # of connection points: 2
#     Edge 20, Type (0, 1), BuildingBlock: EYOCIG_clean_linker_4, # of connection points: 2
#     Edge 21, Type (0, 1), BuildingBlock: EYOCIG_clean_linker_4, # of connection points: 2
#     Edge 22, Type (0, 1), BuildingBlock: EYOCIG_clean_linker_4, # of connection points: 2
#     Edge 23, Type (0, 1), BuildingBlock: EYOCIG_clean_linker_4, # of connection points: 2
#     Edge 24, Type (0, 1), BuildingBlock: EYOCIG_clean_linker_4, # of connection points: 2
#     Edge 25, Type (0, 1), BuildingBlock: EYOCIG_clean_linker_4, # of connection points: 2
#     Edge 26, Type (0, 1), BuildingBlock: EYOCIG_clean_linker_4, # of connection points: 2
# Relax obj value: 0.073
# Max RMSD: 0.143
# Mean RMSD: 0.084
data_MOF--net-anh--node1-CUKXOW_clean_sbu_0--node2-INOVEN_clean_linker_0--edge1-EYOCIG_clean_linker_4
_symmetry_space_group_name_H-M    P1
_symmetry_Int_Tables_number       1
_symmetry_cell_setting            triclinic
loop_
_symmetry_equiv_pos_as_xyz
'x, y, z'
_cell_length_a     23.472739
_cell_length_b     22.267358
_cell_length_c     37.814741
_cell_angle_alpha  97.581008
_cell_angle_beta   92.914303
_cell_angle_gamma 112.25833
loop_
_atom_site_label
_atom_site_type_symbol
_atom_site_fract_x
_atom_site_fract_y
_atom_site_fract_z
_atom_type_partial_charge
Tb0 Tb 0.09484 0.63615 0.1615 0.0
C1 C 0.05688 0.57543 0.23108 0.0
Tb2 Tb 0.02726 0.48193 0.15483 0.0
O3 O 1.00792 0.65747 0.15919 0.0
O4 O 1.00395 0.56447 0.15639 0.0
O5 O 0.08946 0.62885 0.21792 0.0
C6 C 0.92075 0.37797 0.14739 0.0
O7 O 0.02771 0.51619 0.21166 0.0
C8 C 0.15139 0.51546 0.15735 0.0
C9 C 0.0637 0.54525 0.08577 0.0
O10 O 0.96187 0.39775 0.1753 0.0
O11 O 0.94145 0.41364 0.12285 0.0
O12 O 0.10983 0.45533 0.15474 0.0
O13 O 0.12024 0.55233 0.15894 0.0
O14 O 0.03005 0.49213 0.09874 0.0
O15 O 0.09575 0.60358 0.10517 0.0
C16 C 0.19617 0.74626 0.16699 0.0
O17 O 0.15279 0.72378 0.14023 0.0
O18 O 0.18089 0.70915 0.1915 0.0
C19 C 0.96881 0.59613 0.15627 0.0
Tb20 Tb 0.45227 0.02967 0.49398 0.0
C21 C 0.51398 0.06541 0.42274 0.0
Tb22 Tb 0.60071 0.10582 0.49715 0.0
O23 O 0.43101 0.11953 0.49575 0.0
O24 O 0.51982 0.12334 0.49998 0.0
O25 O 0.46347 0.02997 0.43681 0.0
C26 C 0.70024 0.21421 0.50258 0.0
O27 O 0.56861 0.10126 0.44138 0.0
C28 C 0.56432 0.97689 0.49146 0.0
C29 C 0.54168 0.06704 0.56791 0.0
O30 O 0.68184 0.16779 0.47479 0.0
O31 O 0.66454 0.19868 0.52773 0.0
O32 O 0.62268 0.01657 0.49415 0.0
O33 O 0.53322 0.01189 0.49157 0.0
O34 O 0.59144 0.10323 0.55382 0.0
O35 O 0.48628 0.03237 0.5496 0.0
C36 C 0.35012 0.92432 0.49153 0.0
O37 O 0.37113 0.97261 0.51829 0.0
O38 O 0.3847 0.93631 0.46553 0.0
C39 C 0.48946 0.15874 0.49843 0.0
Tb40 Tb 0.54241 0.50705 0.82027 0.0
C41 C 0.60985 0.53647 0.89808 0.0
Tb42 Tb 0.67928 0.57205 0.82908 0.0
O43 O 0.52449 0.40237 0.81524 0.0
O44 O 0.61413 0.47521 0.82208 0.0
O45 O 0.55619 0.51805 0.87831 0.0
C46 C 0.78192 0.564 0.82145 0.0
O47 O 0.66382 0.55608 0.88452 0.0
C48 C 0.6401 0.66545 0.83097 0.0
C49 C 0.60815 0.54587 0.75148 0.0
O50 O 0.77078 0.59074 0.85155 0.0
O51 O 0.7374 0.54432 0.79604 0.0
O52 O 0.69877 0.6767 0.83485 0.0
O53 O 0.60802 0.60447 0.8273 0.0
O54 O 0.66264 0.56669 0.7708 0.0
O55 O 0.55544 0.52206 0.76531 0.0
C56 C 0.43724 0.51249 0.81416 0.0
O57 O 0.45843 0.48637 0.78829 0.0
O58 O 0.47215 0.53045 0.8444 0.0
C59 C 0.58328 0.41419 0.81864 0.0
H60 H 0.50977 0.02204 0.14256 0.0
H61 H 0.43902 0.98189 0.24346 0.0
H62 H 0.61022 0.14505 0.2421 0.0
N63 N 0.61129 0.12839 0.1698 0.0
N64 N 0.65059 0.18308 0.18433 0.0
C65 C 0.51412 0.03422 0.17155 0.0
C66 C 0.46848 0.9957 0.19112 0.0
C67 C 0.56518 0.08931 0.18965 0.0
C68 C 0.57058 0.10402 0.22756 0.0
C69 C 0.52517 0.06499 0.24678 0.0
C70 C 0.47429 0.0117 0.22844 0.0
H71 H 0.53381 0.51482 0.47113 0.0
H72 H 0.55364 0.44642 0.57074 0.0
H73 H 0.55891 0.64097 0.57302 0.0
N74 N 0.53826 0.63393 0.50132 0.0
N75 N 0.53336 0.68313 0.5188 0.0
C76 C 0.54037 0.52335 0.50021 0.0
C77 C 0.54362 0.47351 0.51886 0.0
C78 C 0.54434 0.58398 0.5196 0.0
C79 C 0.55393 0.59438 0.55753 0.0
C80 C 0.5577 0.54505 0.57572 0.0
C81 C 0.55139 0.48475 0.55638 0.0
H82 H 0.06 0.50939 0.80729 0.0
H83 H 0.98721 0.54129 0.90682 0.0
H84 H 0.16189 0.52101 0.90719 0.0
N85 N 0.16497 0.52011 0.83595 0.0
N86 N 0.21741 0.5503 0.8516 0.0
C87 C 0.06377 0.51449 0.83642 0.0
C88 C 1.01859 0.52336 0.8553 0.0
C89 C 0.11517 0.51447 0.85505 0.0
C90 C 0.12126 0.52188 0.89266 0.0
C91 C 0.07541 0.53218 0.91126 0.0
C92 C 0.02392 0.5344 0.89263 0.0
H93 H 0.07036 0.6131 0.51127 0.0
H94 H 0.12759 0.67743 0.41161 0.0
H95 H 0.96188 0.50666 0.4106 0.0
N96 N 0.96662 0.5127 0.48256 0.0
N97 N 0.91419 0.47683 0.46735 0.0
C98 C 0.06294 0.60682 0.48225 0.0
C99 C 0.10497 0.65063 0.46339 0.0
C100 C 1.01034 0.55554 0.46344 0.0
C101 C 1.00138 0.54723 0.42563 0.0
C102 C 0.04369 0.59111 0.40713 0.0
C103 C 0.09493 0.64309 0.42606 0.0
H104 H 0.6256 0.09437 0.84674 0.0
H105 H 0.58907 0.15909 0.74871 0.0
H106 H 0.59201 0.96754 0.74429 0.0
N107 N 0.61241 0.97331 0.81584 0.0
N108 N 0.59775 0.91702 0.7985 0.0
C109 C 0.61544 0.0852 0.81778 0.0
C110 C 0.6088 0.13391 0.79975 0.0
C111 C 0.60827 0.02412 0.79799 0.0
C112 C 0.59617 0.01351 0.76019 0.0
C113 C 0.58917 0.06202 0.74269 0.0
C114 C 0.59472 0.12156 0.7625 0.0
H115 H 0.60616 0.53225 0.17809 0.0
H116 H 0.6852 0.5264 0.07741 0.0
H117 H 0.49964 0.5168 0.07752 0.0
N118 N 0.49081 0.52694 0.14872 0.0
N119 N 0.44328 0.52801 0.13155 0.0
C120 C 0.6018 0.5283 0.14915 0.0
C121 C 0.65433 0.5293 0.12993 0.0
C122 C 0.54406 0.52406 0.13049 0.0
C123 C 0.54118 0.51955 0.09273 0.0
C124 C 0.59186 0.52082 0.07414 0.0
C125 C 0.64672 0.5248 0.09257 0.0
C126 C 0.27461 0.53488 0.155 0.0
C127 C 0.22021 0.53178 0.15633 0.0
C128 C 0.33742 0.53377 0.1519 0.0
C129 C 0.38872 0.53132 0.14594 0.0
C130 C 0.78658 0.3302 0.50194 0.0
C131 C 0.74683 0.27773 0.50319 0.0
C132 C 0.8328 0.38823 0.49554 0.0
C133 C 0.87167 0.43214 0.48454 0.0
C134 C 0.60854 0.76529 0.82617 0.0
C135 C 0.61746 0.716 0.82804 0.0
C136 C 0.60429 0.81608 0.82192 0.0
C137 C 0.60171 0.86547 0.81376 0.0
C138 C 0.84157 0.55837 0.15255 0.0
C139 C 0.89875 0.572 0.15412 0.0
C140 C 0.77437 0.54619 0.1501 0.0
C141 C 0.71861 0.53864 0.14541 0.0
C142 C 0.25749 0.81196 0.49196 0.0
C143 C 0.29975 0.86352 0.49206 0.0
C144 C 0.20545 0.75293 0.4891 0.0
C145 C 0.1586 0.70471 0.48131 0.0
C146 C 0.61708 0.31584 0.82408 0.0
C147 C 0.60719 0.36458 0.82199 0.0
C148 C 0.61973 0.2536 0.82394 0.0
C149 C 0.61667 0.19793 0.81783 0.0
C150 C 0.53092 0.84913 0.49181 0.0
C151 C 0.54163 0.90674 0.49147 0.0
C152 C 0.52694 0.78487 0.4953 0.0
C153 C 0.52872 0.73461 0.50326 0.0
C154 C 0.86611 0.52052 0.81535 0.0
C155 C 0.82767 0.54103 0.81873 0.0
C156 C 0.91796 0.50988 0.82087 0.0
C157 C 0.96493 0.51565 0.83552 0.0
C158 C 0.30682 0.84046 0.16668 0.0
C159 C 0.25635 0.79748 0.16685 0.0
C160 C 0.36556 0.89246 0.16826 0.0
C161 C 0.41417 0.9397 0.17439 0.0
C162 C 0.52621 0.28611 0.49499 0.0
C163 C 0.51314 0.22845 0.4967 0.0
C164 C 0.53474 0.35307 0.49552 0.0
C165 C 0.53819 0.40929 0.50135 0.0
C166 C 0.35758 0.56171 0.80501 0.0
C167 C 0.39373 0.53768 0.80731 0.0
C168 C 0.30697 0.57142 0.81477 0.0
C169 C 0.26515 0.56331 0.83169 0.0
C170 C 0.80451 0.29753 0.14874 0.0
C171 C 0.85712 0.33449 0.14707 0.0
C172 C 0.745 0.25542 0.15549 0.0
C173 C 0.69856 0.22044 0.16654 0.0
C174 C 0.07353 0.53868 0.01716 0.0
C175 C 0.06777 0.53953 0.04837 0.0
C176 C 0.0789 0.53862 0.98071 0.0
C177 C 0.07884 0.53552 0.94901 0.0
C178 C 0.51579 0.07196 0.35352 0.0
C179 C 0.51084 0.06625 0.38469 0.0
C180 C 0.52497 0.07784 0.3172 0.0
C181 C 0.52982 0.07679 0.28549 0.0
C182 C 0.59514 0.5558 0.68279 0.0
C183 C 0.60466 0.55274 0.71412 0.0
C184 C 0.58131 0.55788 0.64614 0.0
C185 C 0.57062 0.55593 0.61431 0.0
C186 C 0.55705 0.05645 0.63616 0.0
C187 C 0.54948 0.06091 0.60499 0.0
C188 C 0.56734 0.05172 0.67259 0.0
C189 C 0.57725 0.05241 0.70425 0.0
C190 C 0.60254 0.52963 0.96745 0.0
C191 C 0.6084 0.53364 0.93606 0.0
C192 C 0.59433 0.52474 0.00416 0.0
C193 C 0.59028 0.52275 0.03587 0.0
C194 C 0.0434 0.58258 0.30002 0.0
C195 C 0.05079 0.5816 0.26872 0.0
C196 C 0.03669 0.58168 0.33676 0.0
C197 C 0.03656 0.58266 0.36864 0.0
loop_
_geom_bond_atom_site_label_1
_geom_bond_atom_site_label_2
_geom_bond_distance
_geom_bond_site_symmetry_2
_ccdc_geom_bond_type
Tb0 O3 2.453 1_455 S
Tb0 O4 2.596 1_455 S
Tb0 O5 2.374 . S
Tb0 O13 2.343 . S
Tb0 O15 2.353 . S
Tb0 O17 2.427 . S
Tb0 O18 2.513 . S
C1 O5 1.251 . S
C1 O7 1.263 . S
Tb2 O4 2.343 1_455 S
Tb2 O7 2.353 . S
Tb2 O10 2.427 1_455 S
Tb2 O11 2.513 1_455 S
Tb2 O12 2.453 . S
Tb2 O13 2.596 . S
Tb2 O14 2.374 . S
O3 Tb0 2.453 1_655 S
O3 C19 1.245 . S
O4 Tb0 2.596 1_655 S
O4 Tb2 2.343 1_655 S
O4 C19 1.259 . S
O5 Tb0 2.374 . S
O5 C1 1.251 . S
C6 O10 1.275 . S
C6 O11 1.246 . S
O7 C1 1.263 . S
O7 Tb2 2.353 . S
C8 O12 1.245 . S
C8 O13 1.259 . S
C9 O14 1.250 . S
C9 O15 1.263 . S
O10 Tb2 2.427 1_655 S
O10 C6 1.275 . S
O11 Tb2 2.513 1_655 S
O11 C6 1.246 . S
O12 Tb2 2.453 . S
O12 C8 1.245 . S
O13 Tb0 2.343 . S
O13 Tb2 2.596 . S
O13 C8 1.259 . S
O14 Tb2 2.374 . S
O14 C9 1.250 . S
O15 Tb0 2.353 . S
O15 C9 1.263 . S
C16 O17 1.275 . S
C16 O18 1.246 . S
O17 Tb0 2.427 . S
O17 C16 1.275 . S
O18 Tb0 2.513 . S
O18 C16 1.246 . S
C19 O3 1.245 . S
C19 O4 1.259 . S
Tb20 O23 2.453 . S
Tb20 O24 2.596 . S
Tb20 O25 2.374 . S
Tb20 O33 2.343 1_545 S
Tb20 O35 2.353 . S
Tb20 O37 2.427 1_545 S
Tb20 O38 2.513 1_545 S
C21 O25 1.251 . S
C21 O27 1.263 . S
Tb22 O24 2.343 . S
Tb22 O27 2.353 . S
Tb22 O30 2.427 . S
Tb22 O31 2.513 . S
Tb22 O32 2.453 1_545 S
Tb22 O33 2.596 1_545 S
Tb22 O34 2.374 . S
O23 Tb20 2.453 . S
O23 C39 1.245 . S
O24 Tb20 2.596 . S
O24 Tb22 2.343 . S
O24 C39 1.259 . S
O25 Tb20 2.374 . S
O25 C21 1.251 . S
C26 O30 1.275 . S
C26 O31 1.246 . S
O27 C21 1.263 . S
O27 Tb22 2.353 . S
C28 O32 1.245 . S
C28 O33 1.259 . S
C29 O34 1.250 . S
C29 O35 1.263 . S
O30 Tb22 2.427 . S
O30 C26 1.275 . S
O31 Tb22 2.513 . S
O31 C26 1.246 . S
O32 Tb22 2.453 1_565 S
O32 C28 1.245 . S
O33 Tb20 2.343 1_565 S
O33 Tb22 2.596 1_565 S
O33 C28 1.259 . S
O34 Tb22 2.374 . S
O34 C29 1.250 . S
O35 Tb20 2.353 . S
O35 C29 1.263 . S
C36 O37 1.275 . S
C36 O38 1.246 . S
O37 Tb20 2.427 1_565 S
O37 C36 1.275 . S
O38 Tb20 2.513 1_565 S
O38 C36 1.246 . S
C39 O23 1.245 . S
C39 O24 1.259 . S
Tb40 O43 2.453 . S
Tb40 O44 2.596 . S
Tb40 O45 2.374 . S
Tb40 O53 2.343 . S
Tb40 O55 2.353 . S
Tb40 O57 2.427 . S
Tb40 O58 2.513 . S
C41 O45 1.251 . S
C41 O47 1.263 . S
Tb42 O44 2.343 . S
Tb42 O47 2.353 . S
Tb42 O50 2.427 . S
Tb42 O51 2.513 . S
Tb42 O52 2.453 . S
Tb42 O53 2.596 . S
Tb42 O54 2.374 . S
O43 Tb40 2.453 . S
O43 C59 1.245 . S
O44 Tb40 2.596 . S
O44 Tb42 2.343 . S
O44 C59 1.259 . S
O45 Tb40 2.374 . S
O45 C41 1.251 . S
C46 O50 1.275 . S
C46 O51 1.246 . S
O47 C41 1.263 . S
O47 Tb42 2.353 . S
C48 O52 1.245 . S
C48 O53 1.259 . S
C49 O54 1.250 . S
C49 O55 1.263 . S
O50 Tb42 2.427 . S
O50 C46 1.275 . S
O51 Tb42 2.513 . S
O51 C46 1.246 . S
O52 Tb42 2.453 . S
O52 C48 1.245 . S
O53 Tb40 2.343 . S
O53 Tb42 2.596 . S
O53 C48 1.259 . S
O54 Tb42 2.374 . S
O54 C49 1.250 . S
O55 Tb40 2.353 . S
O55 C49 1.263 . S
C56 O57 1.275 . S
C56 O58 1.246 . S
O57 Tb40 2.427 . S
O57 C56 1.275 . S
O58 Tb40 2.513 . S
O58 C56 1.246 . S
C59 O43 1.245 . S
C59 O44 1.259 . S
H60 C65 0.929 . S
H61 C70 0.931 1_565 S
H62 C68 0.930 . S
N63 N64 1.234 . S
N63 C67 1.453 . S
N64 N63 1.234 . S
C65 H60 0.929 . S
C65 C66 1.373 1_545 S
C65 C67 1.368 . S
C66 C65 1.373 1_565 S
C66 C70 1.397 1_565 S
C67 N63 1.453 . S
C67 C65 1.368 . S
C67 C68 1.373 . S
C68 H62 0.930 . S
C68 C67 1.373 . S
C68 C69 1.371 . S
C69 C68 1.371 . S
C69 C70 1.383 . S
C70 H61 0.931 1_545 S
C70 C66 1.397 1_545 S
C70 C69 1.383 . S
H71 C76 0.929 . S
H72 C81 0.931 . S
H73 C79 0.930 . S
N74 N75 1.234 . S
N74 C78 1.453 . S
N75 N74 1.234 . S
C76 H71 0.929 . S
C76 C77 1.373 . S
C76 C78 1.368 . S
C77 C76 1.373 . S
C77 C81 1.397 . S
C78 N74 1.453 . S
C78 C76 1.368 . S
C78 C79 1.373 . S
C79 H73 0.930 . S
C79 C78 1.373 . S
C79 C80 1.371 . S
C80 C79 1.371 . S
C80 C81 1.383 . S
C81 H72 0.931 . S
C81 C77 1.397 . S
C81 C80 1.383 . S
H82 C87 0.929 . S
H83 C92 0.931 1_655 S
H84 C90 0.930 . S
N85 N86 1.234 . S
N85 C89 1.453 . S
N86 N85 1.234 . S
C87 H82 0.929 . S
C87 C88 1.377 . S
C87 C89 1.368 . S
C88 C87 1.377 . S
C88 C92 1.397 . S
C89 N85 1.453 . S
C89 C87 1.368 . S
C89 C90 1.373 . S
C90 H84 0.930 . S
C90 C89 1.373 . S
C90 C91 1.371 . S
C91 C90 1.371 . S
C91 C92 1.383 . S
C92 H83 0.931 1_455 S
C92 C88 1.397 . S
C92 C91 1.383 . S
H93 C98 0.929 . S
H94 C103 0.931 . S
H95 C101 0.930 . S
N96 N97 1.234 . S
N96 C100 1.453 . S
N97 N96 1.234 . S
C98 H93 0.929 . S
C98 C99 1.373 . S
C98 C100 1.368 1_455 S
C99 C98 1.373 . S
C99 C103 1.397 . S
C100 N96 1.453 . S
C100 C98 1.368 1_655 S
C100 C101 1.373 . S
C101 H95 0.930 . S
C101 C100 1.373 . S
C101 C102 1.371 1_655 S
C102 C101 1.371 1_455 S
C102 C103 1.383 . S
C103 H94 0.931 . S
C103 C99 1.397 . S
C103 C102 1.383 . S
H104 C109 0.929 . S
H105 C114 0.931 . S
H106 C112 0.930 1_565 S
N107 N108 1.234 . S
N107 C111 1.453 1_565 S
N108 N107 1.234 . S
C109 H104 0.929 . S
C109 C110 1.373 . S
C109 C111 1.368 . S
C110 C109 1.373 . S
C110 C114 1.397 . S
C111 N107 1.453 1_545 S
C111 C109 1.368 . S
C111 C112 1.373 . S
C112 H106 0.930 1_545 S
C112 C111 1.373 . S
C112 C113 1.371 . S
C113 C112 1.371 . S
C113 C114 1.383 . S
C114 H105 0.931 . S
C114 C110 1.397 . S
C114 C113 1.383 . S
H115 C120 0.929 . S
H116 C125 0.931 . S
H117 C123 0.930 . S
N118 N119 1.234 . S
N118 C122 1.453 . S
N119 N118 1.234 . S
C120 H115 0.929 . S
C120 C121 1.373 . S
C120 C122 1.368 . S
C121 C120 1.373 . S
C121 C125 1.397 . S
C122 N118 1.453 . S
C122 C120 1.368 . S
C122 C123 1.373 . S
C123 H117 0.930 . S
C123 C122 1.373 . S
C123 C124 1.371 . S
C124 C123 1.371 . S
C124 C125 1.383 . S
C125 H116 0.931 . S
C125 C121 1.397 . S
C125 C124 1.383 . S
C126 C127 1.170 . S
C126 C128 1.380 . S
C127 C126 1.170 . S
C128 C126 1.380 . S
C128 C129 1.170 . S
C129 C128 1.170 . S
C130 C131 1.170 . S
C130 C132 1.380 . S
C131 C130 1.170 . S
C132 C130 1.380 . S
C132 C133 1.170 . S
C133 C132 1.170 . S
C134 C135 1.170 . S
C134 C136 1.380 . S
C135 C134 1.170 . S
C136 C134 1.380 . S
C136 C137 1.170 . S
C137 C136 1.170 . S
C138 C139 1.170 . S
C138 C140 1.380 . S
C139 C138 1.170 . S
C140 C138 1.380 . S
C140 C141 1.170 . S
C141 C140 1.170 . S
C142 C143 1.170 . S
C142 C144 1.380 . S
C143 C142 1.170 . S
C144 C142 1.380 . S
C144 C145 1.170 . S
C145 C144 1.170 . S
C146 C147 1.170 . S
C146 C148 1.380 . S
C147 C146 1.170 . S
C148 C146 1.380 . S
C148 C149 1.170 . S
C149 C148 1.170 . S
C150 C151 1.170 . S
C150 C152 1.380 . S
C151 C150 1.170 . S
C152 C150 1.380 . S
C152 C153 1.170 . S
C153 C152 1.170 . S
C154 C155 1.170 . S
C154 C156 1.380 . S
C155 C154 1.170 . S
C156 C154 1.380 . S
C156 C157 1.170 . S
C157 C156 1.170 . S
C158 C159 1.170 . S
C158 C160 1.380 . S
C159 C158 1.170 . S
C160 C158 1.380 . S
C160 C161 1.170 . S
C161 C160 1.170 . S
C162 C163 1.170 . S
C162 C164 1.380 . S
C163 C162 1.170 . S
C164 C162 1.380 . S
C164 C165 1.170 . S
C165 C164 1.170 . S
C166 C167 1.170 . S
C166 C168 1.380 . S
C167 C166 1.170 . S
C168 C166 1.380 . S
C168 C169 1.170 . S
C169 C168 1.170 . S
C170 C171 1.170 . S
C170 C172 1.380 . S
C171 C170 1.170 . S
C172 C170 1.380 . S
C172 C173 1.170 . S
C173 C172 1.170 . S
C174 C175 1.170 . S
C174 C176 1.380 1_554 S
C175 C174 1.170 . S
C176 C174 1.380 1_556 S
C176 C177 1.170 . S
C177 C176 1.170 . S
C178 C179 1.170 . S
C178 C180 1.380 . S
C179 C178 1.170 . S
C180 C178 1.380 . S
C180 C181 1.170 . S
C181 C180 1.170 . S
C182 C183 1.170 . S
C182 C184 1.380 . S
C183 C182 1.170 . S
C184 C182 1.380 . S
C184 C185 1.170 . S
C185 C184 1.170 . S
C186 C187 1.170 . S
C186 C188 1.380 . S
C187 C186 1.170 . S
C188 C186 1.380 . S
C188 C189 1.170 . S
C189 C188 1.170 . S
C190 C191 1.170 . S
C190 C192 1.380 1_556 S
C191 C190 1.170 . S
C192 C190 1.380 1_554 S
C192 C193 1.170 . S
C193 C192 1.170 . S
C194 C195 1.170 . S
C194 C196 1.380 . S
C195 C194 1.170 . S
C196 C194 1.380 . S
C196 C197 1.170 . S
C197 C196 1.170 . S
C127 C8 1.985 . S
C129 N119 2.025 . S
C131 C26 1.418 . S
C133 N97 1.385 . S
C135 C48 1.579 . S
C137 N108 1.563 . S
C139 C19 1.776 . S
C141 C121 1.805 . S
C145 C99 1.384 . S
C143 C36 1.356 . S
C149 C110 1.594 . S
C147 C59 1.497 . S
C151 C28 1.566 . S
C153 N75 1.603 . S
C155 C46 1.102 . S
C157 C88 1.122 1_655 S
C159 C16 1.357 . S
C161 C66 1.376 . S
C165 C77 1.571 . S
C163 C39 1.547 . S
C169 N86 1.073 . S
C167 C56 1.082 . S
C171 C6 1.438 . S
C173 N64 1.434 . S
C177 C91 1.452 . S
C175 C9 1.436 . S
C179 C21 1.523 . S
C181 C69 1.537 . S
C183 C49 1.499 . S
C185 C80 1.492 . S
C189 C113 1.493 . S
C187 C29 1.489 . S
C193 C124 1.606 . S
C191 C41 1.555 . S
C195 C1 1.508 . S
C197 C102 1.503 . S
