# Generated by pormake.
# Topology pth, (4,4)-cn, num edge types: 1
# Building blocks:
#     Node 0, Type 0, BuildingBlock: AZAVOO_clean_sbu_0, # of connection points: 4
#     Node 1, Type 0, BuildingBlock: AZAVOO_clean_sbu_0, # of connection points: 4
#     Node 2, Type 0, BuildingBlock: AZAVOO_clean_sbu_0, # of connection points: 4
#     Node 3, Type 1, BuildingBlock: AZAVOO_clean_linker_0, # of connection points: 4
#     Node 4, Type 1, BuildingBlock: AZAVOO_clean_linker_0, # of connection points: 4
#     Node 5, Type 1, BuildingBlock: AZAVOO_clean_linker_0, # of connection points: 4
#     Edge 6, Type (0, 1), None
#     Edge 7, Type (0, 1), None
#     Edge 8, Type (0, 1), None
#     Edge 9, Type (0, 1), None
#     Edge 10, Type (0, 1), None
#     Edge 11, Type (0, 1), None
#     Edge 12, Type (0, 1), None
#     Edge 13, Type (0, 1), None
#     Edge 14, Type (0, 1), None
#     Edge 15, Type (0, 1), None
#     Edge 16, Type (0, 1), None
#     Edge 17, Type (0, 1), None
# Relax obj value: 0.220
# Max RMSD: 0.236
# Mean RMSD: 0.224
data_MOF--net-pth--node1-AZAVOO_clean_sbu_0--node2-AZAVOO_clean_linker_0--edge1-none
_symmetry_space_group_name_H-M    P1
_symmetry_Int_Tables_number       1
_symmetry_cell_setting            triclinic
loop_
_symmetry_equiv_pos_as_xyz
'x, y, z'
_cell_length_a     13.812338
_cell_length_b     14.279496
_cell_length_c     37.771896
_cell_angle_alpha  92.970569
_cell_angle_beta   93.186854
_cell_angle_gamma 122.18545
loop_
_atom_site_label
_atom_site_type_symbol
_atom_site_fract_x
_atom_site_fract_y
_atom_site_fract_z
_atom_type_partial_charge
Mg0 Mg 0.24659 0.09616 0.1108 0.0
O1 O 0.11804 0.01244 0.06066 0.0
O2 O 0.11098 0.14125 0.03124 0.0
Mg3 Mg 0.22979 0.30819 0.06339 0.0
C4 C 0.08198 0.0412 0.03399 0.0
C5 C 0.40632 0.13451 0.18126 0.0
O6 O 0.49382 0.19524 0.20545 0.0
O7 O 0.12647 0.12883 0.14122 0.0
O8 O 0.12489 0.25848 0.11093 0.0
O9 O 0.38816 0.12948 0.0757 0.0
O10 O 0.33065 0.24311 0.08634 0.0
C11 C 0.09427 0.19638 0.1364 0.0
C12 C 0.39375 0.21979 0.06958 0.0
O13 O 0.38228 0.18289 0.1583 0.0
Mg14 Mg 0.93247 0.02623 0.40992 0.0
O15 O 0.11822 0.11934 0.43531 0.0
O16 O 0.16202 0.27814 0.4654 0.0
Mg17 Mg 0.00493 0.29169 0.45746 0.0
C18 C 0.18829 0.20841 0.45528 0.0
C19 C 0.89092 0.80446 0.36932 0.0
O20 O 0.78505 0.76293 0.37732 0.0
O21 O 0.97852 0.14454 0.36553 0.0
O22 O 0.01851 0.2987 0.39816 0.0
O23 O 0.87549 0.95043 0.46155 0.0
O24 O 0.89826 0.10992 0.44853 0.0
C25 C 0.00782 0.24629 0.36839 0.0
C26 C 0.87883 0.0403 0.47153 0.0
O27 O 0.96602 0.90704 0.37793 0.0
Mg28 Mg 0.05531 0.03496 0.74925 0.0
O29 O 0.19687 0.19969 0.78053 0.0
O30 O 0.11537 0.26614 0.81396 0.0
Mg31 Mg 0.92018 0.13537 0.80689 0.0
C32 C 0.20474 0.2747 0.80253 0.0
C33 C 0.28968 0.0839 0.72432 0.0
O34 O 0.32257 0.11024 0.75854 0.0
O35 O 0.99517 0.11926 0.71269 0.0
O36 O 0.90025 0.16642 0.7483 0.0
O37 O 0.05916 0.9363 0.79195 0.0
O38 O 0.94276 -0.00178 0.78842 0.0
C39 C 0.93171 0.15784 0.71774 0.0
C40 C 0.97624 0.94131 0.80439 0.0
O41 O 0.18684 0.04956 0.71274 0.0
H42 H 0.29647 0.55141 0.02011 0.0
H43 H 0.15564 0.25509 0.28891 0.0
H44 H 0.89945 0.35584 0.16922 0.0
H45 H 0.91247 0.22034 0.13107 0.0
H46 H 0.18174 0.25673 0.20537 0.0
H47 H 0.17221 0.39633 0.24271 0.0
H48 H 0.03207 0.57534 0.13245 0.0
H49 H 0.11986 0.56906 0.07856 0.0
H50 H 0.39024 0.57279 0.14339 0.0
H51 H 0.30126 0.57888 0.19703 0.0
H52 H 0.05606 0.79877 0.17056 0.0
H53 H 0.17712 0.9927 0.15991 0.0
H54 H 0.47496 0.00165 0.20632 0.0
H55 H 0.3514 0.80726 0.21821 0.0
H56 H 0.88821 0.71733 0.23078 0.0
H57 H 0.88305 0.885 0.24183 0.0
H58 H 0.24001 0.06625 0.28465 0.0
H59 H 0.24369 0.89779 0.27357 0.0
H60 H 0.80728 0.52629 0.28106 0.0
H61 H 0.74858 0.61581 0.32445 0.0
H62 H 0.10299 0.83581 0.36718 0.0
H63 H 0.16015 0.74379 0.32462 0.0
H64 H 0.86667 0.28753 0.25982 0.0
H65 H 0.86635 0.17166 0.30603 0.0
H66 H 0.17216 0.45814 0.36098 0.0
H67 H 0.17492 0.57166 0.31458 0.0
O68 O 0.26176 0.5519 0.04163 0.0
O69 O 0.41539 0.58955 0.07672 0.0
O70 O 0.97331 0.09156 0.26067 0.0
O71 O 0.15438 0.1869 0.28512 0.0
C72 C 0.05692 0.49569 0.22257 0.0
C73 C 0.10944 0.58581 0.20128 0.0
C74 C 0.11946 0.68646 0.21214 0.0
C75 C 0.06965 0.69466 0.24272 0.0
C76 C 0.02723 0.60919 0.26578 0.0
C77 C 0.02646 0.51128 0.25653 0.0
C78 C 0.03603 0.387 0.20843 0.0
C79 C 0.95726 0.33048 0.17821 0.0
C80 C 0.96393 0.25237 0.15658 0.0
C81 C 0.04794 0.2284 0.16535 0.0
C82 C 0.115 0.27267 0.19835 0.0
C83 C 0.11021 0.35301 0.21962 0.0
C84 C 0.16026 0.57748 0.16856 0.0
C85 C 0.10998 0.57447 0.13491 0.0
C86 C 0.1602 0.57061 0.1042 0.0
C87 C 0.2624 0.57102 0.10672 0.0
C88 C 0.31191 0.57303 0.14055 0.0
C89 C 0.26107 0.57603 0.17119 0.0
C90 C 0.1948 0.7887 0.1949 0.0
C91 C 0.14794 0.84091 0.17683 0.0
C92 C 0.2178 0.95231 0.17068 0.0
C93 C 0.33595 0.01264 0.18192 0.0
C94 C 0.38408 0.95735 0.19744 0.0
C95 C 0.31396 0.84598 0.2038 0.0
C96 C 0.06624 0.79565 0.25134 0.0
C97 C 0.96486 0.79319 0.24279 0.0
C98 C 0.96232 0.8891 0.24903 0.0
C99 C 0.06132 0.98919 0.26402 0.0
C100 C 0.16235 0.9907 0.27304 0.0
C101 C 0.16476 0.8947 0.26675 0.0
C102 C 0.98794 0.62809 0.29971 0.0
C103 C 0.87131 0.58961 0.30106 0.0
C104 C 0.83822 0.64215 0.32551 0.0
C105 C 0.92173 0.7349 0.34848 0.0
C106 C 0.03698 0.76589 0.34936 0.0
C107 C 0.06954 0.71193 0.3255 0.0
C108 C 0.01905 0.43891 0.28437 0.0
C109 C 0.9339 0.32482 0.28173 0.0
C110 C 0.93477 0.25854 0.30774 0.0
C111 C 0.01987 0.30613 0.33677 0.0
C112 C 0.10612 0.41941 0.33871 0.0
C113 C 0.10633 0.48473 0.31263 0.0
C114 C 0.318 0.57117 0.07422 0.0
C115 C 0.05981 0.09195 0.26986 0.0
H116 H 0.71873 0.13598 0.34653 0.0
H117 H 0.04386 0.30855 0.63086 0.0
H118 H 0.61257 0.96136 0.54913 0.0
H119 H 0.70045 0.89945 0.50729 0.0
H120 H 8e-05 0.23278 0.51535 0.0
H121 H 0.90968 0.29562 0.556 0.0
H122 H 0.55726 0.02734 0.48714 0.0
H123 H 0.60954 0.03946 0.42605 0.0
H124 H 0.81634 0.39797 0.44543 0.0
H125 H 0.76415 0.38444 0.50674 0.0
H126 H 0.39196 0.05549 0.49401 0.0
H127 H 0.24688 0.05365 0.45409 0.0
H128 H 0.36734 0.38959 0.49621 0.0
H129 H 0.51649 0.39187 0.53518 0.0
H130 H 0.28058 0.04473 0.56295 0.0
H131 H 0.10914 0.04634 0.57486 0.0
H132 H 0.32514 0.37664 0.62933 0.0
H133 H 0.49614 0.37413 0.61699 0.0
H134 H 0.3915 0.9872 0.62112 0.0
H135 H 0.26813 0.94224 0.66975 0.0
H136 H 0.49647 0.27426 0.72107 0.0
H137 H 0.61601 0.32139 0.67105 0.0
H138 H 0.68253 0.00522 0.61535 0.0
H139 H 0.80835 0.00257 0.66279 0.0
H140 H 0.91311 0.33408 0.70386 0.0
H141 H 0.79556 0.34107 0.65396 0.0
O142 O 0.7031 0.13337 0.37122 0.0
O143 O 0.8056 0.31758 0.38207 0.0
O144 O 0.00369 0.13037 0.6022 0.0
O145 O 0.11044 0.30566 0.62617 0.0
C146 C 0.68157 0.17505 0.5656 0.0
C147 C 0.62449 0.19806 0.5384 0.0
C148 C 0.53616 0.21489 0.54636 0.0
C149 C 0.50432 0.20774 0.58145 0.0
C150 C 0.5648 0.18934 0.60883 0.0
C151 C 0.65743 0.17835 0.60128 0.0
C152 C 0.75416 0.13336 0.55494 0.0
C153 C 0.69987 0.01986 0.54335 0.0
C154 C 0.75009 0.98434 0.51952 0.0
C155 C 0.85443 0.06256 0.50716 0.0
C156 C 0.91698 0.17222 0.52346 0.0
C157 C 0.86644 0.20802 0.54705 0.0
C158 C 0.65743 0.205 0.50139 0.0
C159 C 0.61467 0.10836 0.47826 0.0
C160 C 0.64434 0.11557 0.44331 0.0
C161 C 0.71678 0.21974 0.43079 0.0
C162 C 0.76013 0.31646 0.45419 0.0
C163 C 0.73049 0.30903 0.48919 0.0
C164 C 0.46544 0.22406 0.51733 0.0
C165 C 0.39081 0.13062 0.49343 0.0
C166 C 0.30706 0.12955 0.47076 0.0
C167 C 0.29441 0.22107 0.47222 0.0
C168 C 0.37444 0.31756 0.4945 0.0
C169 C 0.45969 0.31912 0.51679 0.0
C170 C 0.40063 0.20951 0.58897 0.0
C171 C 0.29063 0.11749 0.57733 0.0
C172 C 0.1929 0.1185 0.58427 0.0
C173 C 0.20342 0.21168 0.60306 0.0
C174 C 0.31398 0.30367 0.61475 0.0
C175 C 0.41176 0.30246 0.60781 0.0
C176 C 0.51329 0.15709 0.64284 0.0
C177 C 0.41693 0.04919 0.64342 0.0
C178 C 0.3463 0.02382 0.67093 0.0
C179 C 0.37357 0.10494 0.69885 0.0
C180 C 0.47507 0.21031 0.69984 0.0
C181 C 0.54376 0.23699 0.67157 0.0
C182 C 0.73063 0.17388 0.63071 0.0
C183 C 0.73554 0.07896 0.63364 0.0
C184 C 0.80732 0.07748 0.66081 0.0
C185 C 0.87179 0.16906 0.68643 0.0
C186 C 0.86544 0.2633 0.68404 0.0
C187 C 0.79721 0.26653 0.65591 0.0
C188 C 0.74506 0.22702 0.3933 0.0
C189 C 0.09962 0.21301 0.61041 0.0
H190 H 0.85934 0.7766 0.16271 0.0
H191 H 0.09617 0.85335 0.90139 0.0
H192 H 0.76825 0.86291 0.94879 0.0
H193 H 0.9031 0.02087 -0.00809 0.0
H194 H 0.10611 0.8757 0.00727 0.0
H195 H 0.97471 0.72133 0.96292 0.0
H196 H 0.7018 0.73801 0.0128 0.0
H197 H 0.75976 0.77779 0.07677 0.0
H198 H 0.87591 0.55029 0.07049 0.0
H199 H 0.82022 0.51336 0.00613 0.0
H200 H 0.50435 0.52112 0.00651 0.0
H201 H 0.42758 0.41814 0.05724 0.0
H202 H 0.50217 0.17528 0.01833 0.0
H203 H 0.59498 0.28946 0.96926 0.0
H204 H 0.34056 0.39964 0.93228 0.0
H205 H 0.16652 0.21247 0.92565 0.0
H206 H 0.36285 0.07981 0.887 0.0
H207 H 0.53581 0.26752 0.89343 0.0
H208 H 0.43847 0.58212 0.88363 0.0
H209 H 0.26022 0.46149 0.84529 0.0
H210 H 0.414 0.2983 0.79611 0.0
H211 H 0.59048 0.41731 0.83529 0.0
H212 H 0.67925 0.80021 0.87842 0.0
H213 H 0.79979 0.93373 0.83714 0.0
H214 H 0.99729 0.77997 0.83172 0.0
H215 H 0.87712 0.64824 0.87267 0.0
O216 O 0.8435 0.76432 0.13704 0.0
O217 O 0.87243 0.62521 0.1335 0.0
O218 O 0.05456 0.00131 0.90917 0.0
O219 O 0.16042 0.9287 0.90058 0.0
C220 C 0.75955 0.66824 0.94071 0.0
C221 C 0.7114 0.59149 0.96639 0.0
C222 C 0.61289 0.48552 0.95646 0.0
C223 C 0.55816 0.45737 0.92168 0.0
C224 C 0.60197 0.53578 0.89621 0.0
C225 C 0.70604 0.64002 0.90537 0.0
C226 C 0.86125 0.78021 0.95288 0.0
C227 C 0.84524 0.86834 0.95993 0.0
C228 C 0.92072 0.95706 0.98517 0.0
C229 C 0.01141 0.95712 0.00395 0.0
C230 C 0.03428 0.87524 -0.00602 0.0
C231 C 0.961 0.78858 0.96805 0.0
C232 C 0.75817 0.62392 0.00468 0.0
C233 C 0.74264 0.69911 0.02507 0.0
C234 C 0.77485 0.72091 0.0617 0.0
C235 C 0.8216 0.66656 0.07876 0.0
C236 C 0.83942 0.59299 0.05816 0.0
C237 C 0.8082 0.57211 0.02141 0.0
C238 C 0.55519 0.41263 0.98449 0.0
C239 C 0.50516 0.44625 0.00904 0.0
C240 C 0.45983 0.38632 0.03774 0.0
C241 C 0.45562 0.28693 0.04112 0.0
C242 C 0.50421 0.25163 0.01619 0.0
C243 C 0.55539 0.31542 0.98806 0.0
C244 C 0.45023 0.34681 0.91307 0.0
C245 C 0.34507 0.33022 0.9217 0.0
C246 C 0.24607 0.22333 0.91801 0.0
C247 C 0.25121 0.13122 0.90608 0.0
C248 C 0.35623 0.14889 0.89648 0.0
C249 C 0.45491 0.25594 0.8999 0.0
C250 C 0.52804 0.50887 0.86239 0.0
C251 C 0.436 0.52458 0.86318 0.0
C252 C 0.33297 0.45375 0.84164 0.0
C253 C 0.32086 0.36713 0.8184 0.0
C254 C 0.41894 0.36233 0.81411 0.0
C255 C 0.52142 0.43217 0.83606 0.0
C256 C 0.7684 0.71359 0.87787 0.0
C257 C 0.74789 0.79514 0.86791 0.0
C258 C 0.81774 0.87203 0.84479 0.0
C259 C 0.90921 0.86841 0.83158 0.0
C260 C 0.92867 0.78609 0.84171 0.0
C261 C 0.85909 0.70969 0.86469 0.0
C262 C 0.84804 0.68414 0.11804 0.0
C263 C 0.14902 0.01671 0.90513 0.0
loop_
_geom_bond_atom_site_label_1
_geom_bond_atom_site_label_2
_geom_bond_distance
_geom_bond_site_symmetry_2
_ccdc_geom_bond_type
Mg0 O1 2.028 . S
Mg0 O7 1.986 . S
Mg0 O9 2.114 . S
Mg0 O10 2.251 . S
Mg0 O13 2.010 . S
O1 Mg0 2.028 . S
O1 C4 1.250 1_455 S
O2 Mg3 2.028 1_655 S
O2 C4 1.248 . S
Mg3 O2 2.028 1_455 S
Mg3 O8 2.032 . S
Mg3 O10 2.079 . S
C4 O1 1.250 1_655 S
C4 O2 1.248 . S
C5 O6 1.264 . S
C5 O13 1.249 1_565 S
O6 C5 1.264 . S
O7 Mg0 1.986 . S
O7 C11 1.246 . S
O8 Mg3 2.032 . S
O8 C11 1.259 . S
O9 Mg0 2.114 . S
O9 C12 1.252 . S
O10 Mg0 2.251 . S
O10 Mg3 2.079 . S
O10 C12 1.273 . S
C11 O7 1.246 . S
C11 O8 1.259 . S
C12 O9 1.252 . S
C12 O10 1.273 . S
O13 Mg0 2.010 . S
O13 C5 1.249 1_545 S
Mg14 O15 2.028 1_665 S
Mg14 O21 1.986 1_665 S
Mg14 O23 2.114 . S
Mg14 O24 2.251 1_565 S
Mg14 O27 2.010 . S
O15 Mg14 2.028 1_445 S
O15 C18 1.250 . S
O16 Mg17 2.028 . S
O16 C18 1.248 . S
Mg17 O16 2.028 . S
Mg17 O22 2.032 . S
Mg17 O24 2.079 1_455 S
C18 O15 1.250 . S
C18 O16 1.248 . S
C19 O20 1.264 . S
C19 O27 1.249 . S
O20 C19 1.264 . S
O21 Mg14 1.986 1_445 S
O21 C25 1.246 . S
O22 Mg17 2.032 . S
O22 C25 1.259 . S
O23 Mg14 2.114 . S
O23 C26 1.252 . S
O24 Mg14 2.251 1_545 S
O24 Mg17 2.079 1_655 S
O24 C26 1.273 1_545 S
C25 O21 1.246 . S
C25 O22 1.259 . S
C26 O23 1.252 . S
C26 O24 1.273 1_565 S
O27 Mg14 2.010 . S
O27 C19 1.249 . S
Mg28 O29 2.028 . S
Mg28 O35 1.986 . S
Mg28 O37 2.114 . S
Mg28 O38 2.251 . S
Mg28 O41 2.010 . S
O29 Mg28 2.028 . S
O29 C32 1.250 . S
O30 Mg31 2.028 . S
O30 C32 1.248 . S
Mg31 O30 2.028 . S
Mg31 O36 2.032 . S
Mg31 O38 2.079 . S
C32 O29 1.250 . S
C32 O30 1.248 . S
C33 O34 1.264 1_545 S
C33 O41 1.249 . S
O34 C33 1.264 1_565 S
O35 Mg28 1.986 . S
O35 C39 1.246 . S
O36 Mg31 2.032 . S
O36 C39 1.259 . S
O37 Mg28 2.114 . S
O37 C40 1.252 . S
O38 Mg28 2.251 . S
O38 Mg31 2.079 . S
O38 C40 1.273 . S
C39 O35 1.246 . S
C39 O36 1.259 . S
C40 O37 1.252 . S
C40 O38 1.273 . S
O41 Mg28 2.010 . S
O41 C33 1.249 . S
H42 O68 0.856 . S
H43 O71 0.854 . S
H44 C79 0.930 . S
H45 C80 0.930 . S
H46 C82 0.930 . S
H47 C83 0.930 . S
H48 C85 0.931 1_655 S
H49 C86 0.930 1_655 S
H50 C88 0.930 . S
H51 C89 0.929 . S
H52 C91 0.930 1_655 S
H53 C92 0.931 1_655 S
H54 C94 0.930 . S
H55 C95 0.929 . S
H56 C97 0.931 1_655 S
H57 C98 0.930 1_655 S
H58 C100 0.930 . S
H59 C101 0.932 . S
H60 C103 0.930 . S
H61 C104 0.929 . S
H62 C106 0.931 . S
H63 C107 0.930 . S
H64 C109 0.929 . S
H65 C110 0.931 . S
H66 C112 0.930 . S
H67 C113 0.929 . S
O68 H42 0.856 . S
O68 C114 1.300 . S
O69 C114 1.209 . S
O70 C115 1.199 . S
O71 H43 0.854 . S
O71 C115 1.297 . S
C72 C73 1.404 . S
C72 C77 1.397 . S
C72 C78 1.492 . S
C73 C72 1.404 . S
C73 C74 1.396 . S
C73 C84 1.492 . S
C74 C73 1.396 . S
C74 C75 1.397 . S
C74 C90 1.509 . S
C75 C74 1.397 . S
C75 C76 1.412 . S
C75 C96 1.485 . S
C76 C75 1.412 . S
C76 C77 1.388 . S
C76 C102 1.490 . S
C77 C72 1.397 . S
C77 C76 1.388 . S
C77 C108 1.519 . S
C78 C72 1.492 . S
C78 C79 1.363 1_455 S
C78 C83 1.390 . S
C79 H44 0.930 . S
C79 C78 1.363 1_655 S
C79 C80 1.372 . S
C80 H45 0.930 . S
C80 C79 1.372 . S
C80 C81 1.383 1_655 S
C81 C80 1.383 1_455 S
C81 C82 1.395 . S
C82 H46 0.930 . S
C82 C81 1.395 . S
C82 C83 1.362 . S
C83 H47 0.930 . S
C83 C78 1.390 . S
C83 C82 1.362 . S
C84 C73 1.492 . S
C84 C85 1.377 . S
C84 C89 1.397 . S
C85 H48 0.931 1_455 S
C85 C84 1.377 . S
C85 C86 1.376 . S
C86 H49 0.930 1_455 S
C86 C85 1.376 . S
C86 C87 1.376 . S
C87 C86 1.376 . S
C87 C88 1.378 . S
C87 C114 1.486 . S
C88 H50 0.930 . S
C88 C87 1.378 . S
C88 C89 1.376 . S
C89 H51 0.929 . S
C89 C84 1.397 . S
C89 C88 1.376 . S
C90 C74 1.509 . S
C90 C91 1.391 . S
C90 C95 1.386 . S
C91 H52 0.930 1_455 S
C91 C90 1.391 . S
C91 C92 1.375 . S
C92 H53 0.931 1_455 S
C92 C91 1.375 . S
C92 C93 1.375 . S
C93 C92 1.375 . S
C93 C94 1.361 . S
C94 H54 0.930 . S
C94 C93 1.361 . S
C94 C95 1.399 . S
C95 H55 0.929 . S
C95 C90 1.386 . S
C95 C94 1.399 . S
C96 C75 1.485 . S
C96 C97 1.394 . S
C96 C101 1.360 . S
C97 H56 0.931 1_455 S
C97 C96 1.394 . S
C97 C98 1.372 . S
C98 H57 0.930 1_455 S
C98 C97 1.372 . S
C98 C99 1.397 1_565 S
C99 C98 1.397 1_545 S
C99 C100 1.390 . S
C99 C115 1.476 . S
C100 H58 0.930 . S
C100 C99 1.390 . S
C100 C101 1.366 1_545 S
C101 H59 0.932 . S
C101 C96 1.360 . S
C101 C100 1.366 1_565 S
C102 C76 1.490 . S
C102 C103 1.380 1_455 S
C102 C107 1.386 . S
C103 H60 0.930 . S
C103 C102 1.380 1_655 S
C103 C104 1.381 . S
C104 H61 0.929 . S
C104 C103 1.381 . S
C104 C105 1.371 1_655 S
C105 C104 1.371 1_455 S
C105 C106 1.380 . S
C106 H62 0.931 . S
C106 C105 1.380 . S
C106 C107 1.387 . S
C107 H63 0.930 . S
C107 C102 1.386 . S
C107 C106 1.387 . S
C108 C77 1.519 . S
C108 C109 1.377 1_455 S
C108 C113 1.361 . S
C109 H64 0.929 . S
C109 C108 1.377 1_655 S
C109 C110 1.386 . S
C110 H65 0.931 . S
C110 C109 1.386 . S
C110 C111 1.363 1_655 S
C111 C110 1.363 1_455 S
C111 C112 1.385 . S
C112 H66 0.930 . S
C112 C111 1.385 . S
C112 C113 1.396 . S
C113 H67 0.929 . S
C113 C108 1.361 . S
C113 C112 1.396 . S
C114 O68 1.300 . S
C114 O69 1.209 . S
C114 C87 1.486 . S
C115 O70 1.199 . S
C115 O71 1.297 . S
C115 C99 1.476 . S
H116 O142 0.856 . S
H117 O145 0.854 . S
H118 C153 0.930 1_565 S
H119 C154 0.930 1_565 S
H120 C156 0.930 1_455 S
H121 C157 0.930 . S
H122 C159 0.931 1_565 S
H123 C160 0.930 1_565 S
H124 C162 0.930 . S
H125 C163 0.929 . S
H126 C165 0.930 1_565 S
H127 C166 0.931 1_565 S
H128 C168 0.930 . S
H129 C169 0.929 . S
H130 C171 0.931 . S
H131 C172 0.930 . S
H132 C174 0.930 . S
H133 C175 0.932 . S
H134 C177 0.930 . S
H135 C178 0.929 . S
H136 C180 0.931 . S
H137 C181 0.930 . S
H138 C183 0.929 . S
H139 C184 0.931 . S
H140 C186 0.930 . S
H141 C187 0.929 . S
O142 H116 0.856 . S
O142 C188 1.300 . S
O143 C188 1.209 . S
O144 C189 1.199 . S
O145 H117 0.854 . S
O145 C189 1.297 . S
C146 C147 1.404 . S
C146 C151 1.397 . S
C146 C152 1.492 . S
C147 C146 1.404 . S
C147 C148 1.396 . S
C147 C158 1.492 . S
C148 C147 1.396 . S
C148 C149 1.397 . S
C148 C164 1.509 . S
C149 C148 1.397 . S
C149 C150 1.412 . S
C149 C170 1.485 . S
C150 C149 1.412 . S
C150 C151 1.388 . S
C150 C176 1.490 . S
C151 C146 1.397 . S
C151 C150 1.388 . S
C151 C182 1.519 . S
C152 C146 1.492 . S
C152 C153 1.363 . S
C152 C157 1.390 . S
C153 H118 0.930 1_545 S
C153 C152 1.363 . S
C153 C154 1.372 . S
C154 H119 0.930 1_545 S
C154 C153 1.372 . S
C154 C155 1.383 . S
C155 C154 1.383 . S
C155 C156 1.395 . S
C156 H120 0.930 1_655 S
C156 C155 1.395 . S
C156 C157 1.362 . S
C157 H121 0.930 . S
C157 C152 1.390 . S
C157 C156 1.362 . S
C158 C147 1.492 . S
C158 C159 1.377 . S
C158 C163 1.397 . S
C159 H122 0.931 1_545 S
C159 C158 1.377 . S
C159 C160 1.376 . S
C160 H123 0.930 1_545 S
C160 C159 1.376 . S
C160 C161 1.376 . S
C161 C160 1.376 . S
C161 C162 1.378 . S
C161 C188 1.486 . S
C162 H124 0.930 . S
C162 C161 1.378 . S
C162 C163 1.376 . S
C163 H125 0.929 . S
C163 C158 1.397 . S
C163 C162 1.376 . S
C164 C148 1.509 . S
C164 C165 1.391 . S
C164 C169 1.386 . S
C165 H126 0.930 1_545 S
C165 C164 1.391 . S
C165 C166 1.375 . S
C166 H127 0.931 1_545 S
C166 C165 1.375 . S
C166 C167 1.375 . S
C167 C166 1.375 . S
C167 C168 1.361 . S
C168 H128 0.930 . S
C168 C167 1.361 . S
C168 C169 1.399 . S
C169 H129 0.929 . S
C169 C164 1.386 . S
C169 C168 1.399 . S
C170 C149 1.485 . S
C170 C171 1.394 . S
C170 C175 1.360 . S
C171 H130 0.931 . S
C171 C170 1.394 . S
C171 C172 1.372 . S
C172 H131 0.930 . S
C172 C171 1.372 . S
C172 C173 1.397 . S
C173 C172 1.397 . S
C173 C174 1.390 . S
C173 C189 1.476 . S
C174 H132 0.930 . S
C174 C173 1.390 . S
C174 C175 1.366 . S
C175 H133 0.932 . S
C175 C170 1.360 . S
C175 C174 1.366 . S
C176 C150 1.490 . S
C176 C177 1.380 . S
C176 C181 1.386 . S
C177 H134 0.930 . S
C177 C176 1.380 . S
C177 C178 1.381 . S
C178 H135 0.929 . S
C178 C177 1.381 . S
C178 C179 1.371 . S
C179 C178 1.371 . S
C179 C180 1.380 . S
C180 H136 0.931 . S
C180 C179 1.380 . S
C180 C181 1.387 . S
C181 H137 0.930 . S
C181 C176 1.386 . S
C181 C180 1.387 . S
C182 C151 1.519 . S
C182 C183 1.377 . S
C182 C187 1.361 . S
C183 H138 0.929 . S
C183 C182 1.377 . S
C183 C184 1.386 . S
C184 H139 0.931 . S
C184 C183 1.386 . S
C184 C185 1.363 . S
C185 C184 1.363 . S
C185 C186 1.385 . S
C186 H140 0.930 . S
C186 C185 1.385 . S
C186 C187 1.396 . S
C187 H141 0.929 . S
C187 C182 1.361 . S
C187 C186 1.396 . S
C188 O142 1.300 . S
C188 O143 1.209 . S
C188 C161 1.486 . S
C189 O144 1.199 . S
C189 O145 1.297 . S
C189 C173 1.476 . S
H190 O216 0.856 . S
H191 O219 0.854 . S
H192 C227 0.930 . S
H193 C228 0.913 1_544 S
H194 C230 0.930 . S
H195 C231 0.930 . S
H196 C233 0.931 . S
H197 C234 0.930 . S
H198 C236 0.930 . S
H199 C237 0.929 . S
H200 C239 0.930 1_556 S
H201 C240 0.931 . S
H202 C242 0.930 . S
H203 C243 0.929 . S
H204 C245 0.931 . S
H205 C246 0.930 . S
H206 C248 0.930 . S
H207 C249 0.932 . S
H208 C251 0.930 . S
H209 C252 0.929 . S
H210 C254 0.931 . S
H211 C255 0.930 . S
H212 C257 0.929 . S
H213 C258 0.931 . S
H214 C260 0.930 . S
H215 C261 0.929 . S
O216 H190 0.856 . S
O216 C262 1.300 . S
O217 C262 1.209 . S
O218 C263 1.199 . S
O219 H191 0.854 . S
O219 C263 1.297 1_565 S
C220 C221 1.404 . S
C220 C225 1.397 . S
C220 C226 1.492 . S
C221 C220 1.404 . S
C221 C222 1.396 . S
C221 C232 1.492 1_556 S
C222 C221 1.396 . S
C222 C223 1.397 . S
C222 C238 1.509 1_556 S
C223 C222 1.397 . S
C223 C224 1.412 . S
C223 C244 1.485 . S
C224 C223 1.412 . S
C224 C225 1.388 . S
C224 C250 1.490 . S
C225 C220 1.397 . S
C225 C224 1.388 . S
C225 C256 1.519 . S
C226 C220 1.492 . S
C226 C227 1.363 . S
C226 C231 1.390 . S
C227 H192 0.930 . S
C227 C226 1.363 . S
C227 C228 1.385 . S
C228 H193 0.913 1_566 S
C228 C227 1.385 . S
C228 C229 1.388 1_565 S
C229 C228 1.388 1_545 S
C229 C230 1.395 1_645 S
C230 H194 0.930 . S
C230 C229 1.395 1_465 S
C230 C231 1.362 1_455 S
C231 H195 0.930 . S
C231 C226 1.390 . S
C231 C230 1.362 1_655 S
C232 C221 1.492 1_554 S
C232 C233 1.377 . S
C232 C237 1.397 . S
C233 H196 0.931 . S
C233 C232 1.377 . S
C233 C234 1.376 . S
C234 H197 0.930 . S
C234 C233 1.376 . S
C234 C235 1.376 . S
C235 C234 1.376 . S
C235 C236 1.378 . S
C235 C262 1.486 . S
C236 H198 0.930 . S
C236 C235 1.378 . S
C236 C237 1.376 . S
C237 H199 0.929 . S
C237 C232 1.397 . S
C237 C236 1.376 . S
C238 C222 1.509 1_554 S
C238 C239 1.391 . S
C238 C243 1.386 . S
C239 H200 0.930 1_554 S
C239 C238 1.391 . S
C239 C240 1.375 . S
C240 H201 0.931 . S
C240 C239 1.375 . S
C240 C241 1.375 . S
C241 C240 1.375 . S
C241 C242 1.361 . S
C242 H202 0.930 . S
C242 C241 1.361 . S
C242 C243 1.399 . S
C243 H203 0.929 . S
C243 C238 1.386 . S
C243 C242 1.399 . S
C244 C223 1.485 . S
C244 C245 1.394 . S
C244 C249 1.360 . S
C245 H204 0.931 . S
C245 C244 1.394 . S
C245 C246 1.372 . S
C246 H205 0.930 . S
C246 C245 1.372 . S
C246 C247 1.397 . S
C247 C246 1.397 . S
C247 C248 1.390 . S
C247 C263 1.476 . S
C248 H206 0.930 . S
C248 C247 1.390 . S
C248 C249 1.366 . S
C249 H207 0.932 . S
C249 C244 1.360 . S
C249 C248 1.366 . S
C250 C224 1.490 . S
C250 C251 1.380 . S
C250 C255 1.386 . S
C251 H208 0.930 . S
C251 C250 1.380 . S
C251 C252 1.381 . S
C252 H209 0.929 . S
C252 C251 1.381 . S
C252 C253 1.371 . S
C253 C252 1.371 . S
C253 C254 1.380 . S
C254 H210 0.931 . S
C254 C253 1.380 . S
C254 C255 1.387 . S
C255 H211 0.930 . S
C255 C250 1.386 . S
C255 C254 1.387 . S
C256 C225 1.519 . S
C256 C257 1.377 . S
C256 C261 1.361 . S
C257 H212 0.929 . S
C257 C256 1.377 . S
C257 C258 1.386 . S
C258 H213 0.931 . S
C258 C257 1.386 . S
C258 C259 1.363 . S
C259 C258 1.363 . S
C259 C260 1.385 . S
C260 H214 0.930 . S
C260 C259 1.385 . S
C260 C261 1.396 . S
C261 H215 0.929 . S
C261 C256 1.361 . S
C261 C260 1.396 . S
C262 O216 1.300 . S
C262 O217 1.209 . S
C262 C235 1.486 . S
C263 O218 1.199 . S
C263 O219 1.297 1_545 S
C263 C247 1.476 . S
C81 C11 2.449 . S
C26 C155 2.273 1_565 S
C40 C259 2.376 1_445 S
C5 C93 0.652 . S
C167 C18 1.032 . S
C32 C253 2.584 . S
C185 C39 2.295 1_655 S
C4 C229 1.998 1_554 S
C105 C19 2.413 1_455 S
C179 C33 2.234 . S
C241 C12 0.610 . S
C25 C111 2.452 . S
