# Generated by pormake.
# Topology pyr, (3,6)-cn, num edge types: 1
# Building blocks:
#     Node 0, Type 0, BuildingBlock: CUQRIR_clean_linker_1, # of connection points: 3
#     Node 1, Type 0, BuildingBlock: CUQRIR_clean_linker_1, # of connection points: 3
#     Node 2, Type 0, BuildingBlock: CUQRIR_clean_linker_1, # of connection points: 3
#     Node 3, Type 0, BuildingBlock: CUQRIR_clean_linker_1, # of connection points: 3
#     Node 4, Type 0, BuildingBlock: CUQRIR_clean_linker_1, # of connection points: 3
#     Node 5, Type 0, BuildingBlock: CUQRIR_clean_linker_1, # of connection points: 3
#     Node 6, Type 0, BuildingBlock: CUQRIR_clean_linker_1, # of connection points: 3
#     Node 7, Type 0, BuildingBlock: CUQRIR_clean_linker_1, # of connection points: 3
#     Node 8, Type 1, BuildingBlock: MIDCAF_clean_sbu_0, # of connection points: 6
#     Node 9, Type 1, BuildingBlock: MIDCAF_clean_sbu_0, # of connection points: 6
#     Node 10, Type 1, BuildingBlock: MIDCAF_clean_sbu_0, # of connection points: 6
#     Node 11, Type 1, BuildingBlock: MIDCAF_clean_sbu_0, # of connection points: 6
#     Edge 12, Type (0, 1), None
#     Edge 13, Type (0, 1), None
#     Edge 14, Type (0, 1), None
#     Edge 15, Type (0, 1), None
#     Edge 16, Type (0, 1), None
#     Edge 17, Type (0, 1), None
#     Edge 18, Type (0, 1), None
#     Edge 19, Type (0, 1), None
#     Edge 20, Type (0, 1), None
#     Edge 21, Type (0, 1), None
#     Edge 22, Type (0, 1), None
#     Edge 23, Type (0, 1), None
#     Edge 24, Type (0, 1), None
#     Edge 25, Type (0, 1), None
#     Edge 26, Type (0, 1), None
#     Edge 27, Type (0, 1), None
#     Edge 28, Type (0, 1), None
#     Edge 29, Type (0, 1), None
#     Edge 30, Type (0, 1), None
#     Edge 31, Type (0, 1), None
#     Edge 32, Type (0, 1), None
#     Edge 33, Type (0, 1), None
#     Edge 34, Type (0, 1), None
#     Edge 35, Type (0, 1), None
# Relax obj value: 0.120
# Max RMSD: 0.206
# Mean RMSD: 0.149
data_MOF--net-pry--node1-MIDCAF_clean_sbu_0--node2-CUQRIR_clean_linker_1--edge1-none
_symmetry_space_group_name_H-M    P1
_symmetry_Int_Tables_number       1
_symmetry_cell_setting            triclinic
loop_
_symmetry_equiv_pos_as_xyz
'x, y, z'
_cell_length_a     13.282267
_cell_length_b     13.122749
_cell_length_c     12.810104
_cell_angle_alpha  87.838026
_cell_angle_beta   92.622332
_cell_angle_gamma 95.054679
loop_
_atom_site_label
_atom_site_type_symbol
_atom_site_fract_x
_atom_site_fract_y
_atom_site_fract_z
_atom_type_partial_charge
C0 C 0.12467 0.25463 0.24678 0.0
N1 N 0.19647 0.18741 0.2637 0.0
N2 N 0.151 0.32528 0.17005 0.0
C3 C 0.01764 0.23558 0.28493 0.0
C4 C 0.24293 0.29829 0.14325 0.0
N5 N 0.26917 0.21022 0.19475 0.0
C6 C 0.30377 0.35125 0.0585 0.0
H7 H 0.9638 0.2228 0.21693 0.0
H8 H -0.00213 0.30353 0.32598 0.0
H9 H 0.00355 0.167 0.33603 0.0
H10 H 0.30124 0.43528 0.06151 0.0
H11 H 0.27168 0.32353 0.98227 0.0
H12 H 0.38385 0.33338 0.06734 0.0
C13 C 0.28666 0.74528 0.67043 0.0
N14 N 0.27001 0.83966 0.70659 0.0
N15 N 0.3847 0.722 0.68761 0.0
C16 C 0.21029 0.68504 0.59974 0.0
C17 C 0.42708 0.80376 0.74104 0.0
N18 N 0.35756 0.87079 0.75896 0.0
C19 C 0.53946 0.82866 0.7585 0.0
H20 H 0.19968 0.60399 0.62677 0.0
H21 H 0.23797 0.68757 0.51915 0.0
H22 H 0.135 0.71566 0.59775 0.0
H23 H 0.57641 0.8265 0.68285 0.0
H24 H 0.57058 0.77125 0.81366 0.0
H25 H 0.55915 0.90622 0.78865 0.0
C26 C 0.61329 0.30737 0.78489 0.0
N27 N 0.64245 0.29334 0.8878 0.0
N28 N 0.65219 0.39869 0.74428 0.0
C29 C 0.54527 0.23014 0.72349 0.0
C30 C 0.7138 0.4371 0.82303 0.0
N31 N 0.70879 0.37433 0.91133 0.0
C32 C 0.78043 0.53599 0.81124 0.0
H33 H 0.57989 0.21645 0.64873 0.0
H34 H 0.47066 0.26036 0.70577 0.0
H35 H 0.53386 0.15501 0.76584 0.0
H36 H 0.75342 0.59493 0.86052 0.0
H37 H 0.78528 0.56373 0.72895 0.0
H38 H 0.85885 0.52498 0.83569 0.0
C39 C 0.74989 0.63861 0.32598 0.0
N40 N 0.84743 0.67503 0.30731 0.0
N41 N 0.71637 0.67912 0.41279 0.0
C42 C 0.69485 0.548 0.2685 0.0
C43 C 0.79504 0.7444 0.44536 0.0
N44 N 0.87372 0.74567 0.37998 0.0
C45 C 0.79985 0.79415 0.5502 0.0
H46 H 0.61409 0.55442 0.25023 0.0
H47 H 0.6999 0.47716 0.31779 0.0
H48 H 0.72796 0.53772 0.19202 0.0
H49 H 0.80771 0.73366 0.61193 0.0
H50 H 0.72889 0.83043 0.56127 0.0
H51 H 0.86496 0.85089 0.56292 0.0
C52 C 0.86681 0.89043 0.97372 0.0
N53 N 0.9242 0.88058 0.89079 0.0
N54 N 0.80572 0.96734 0.95655 0.0
C55 C 0.88492 0.83874 0.07934 0.0
C56 C 0.83771 0.01285 0.86634 0.0
N57 N 0.91337 0.96242 0.82696 0.0
C58 C 0.78605 0.09955 0.81294 0.0
H59 H 0.83149 0.76924 0.08604 0.0
H60 H 0.87355 0.89038 0.14357 0.0
H61 H 0.96407 0.81835 0.09005 0.0
H62 H 0.79868 0.16814 0.86142 0.0
H63 H 0.70356 0.07838 0.80439 0.0
H64 H 0.8112 0.11864 0.73427 0.0
C65 C 0.68859 0.19488 0.43257 0.0
N66 N 0.72236 0.10433 0.40414 0.0
N67 N 0.59127 0.20379 0.39927 0.0
C68 C 0.75574 0.28062 0.48006 0.0
C69 C 0.56397 0.11516 0.35102 0.0
N70 N 0.64427 0.05881 0.3483 0.0
C71 C 0.45766 0.06336 0.35738 0.0
H72 H 0.76284 0.26742 0.56588 0.0
H73 H 0.72637 0.35612 0.4636 0.0
H74 H 0.83061 0.28355 0.44575 0.0
H75 H 0.39926 0.11822 0.35635 0.0
H76 H 0.45284 0.01941 0.43302 0.0
H77 H 0.439 0.0073 0.29558 0.0
C78 C 0.26274 0.65187 0.18259 0.0
N79 N 0.35453 0.66352 0.23166 0.0
N80 N 0.26814 0.67668 0.08029 0.0
C81 C 0.16607 0.63981 0.24005 0.0
C82 C 0.36426 0.716 0.06915 0.0
N83 N 0.41432 0.71434 0.16256 0.0
C84 C 0.42063 0.70425 0.97226 0.0
H85 H 0.1301 0.56108 0.23447 0.0
H86 H 0.114 0.69439 0.20518 0.0
H87 H 0.18083 0.65593 0.32407 0.0
H88 H 0.37032 0.70101 0.90197 0.0
H89 H 0.45595 0.63055 0.97926 0.0
H90 H 0.48319 0.7651 0.96582 0.0
C91 C 0.05406 0.33785 0.71277 0.0
N92 N 0.11294 0.31056 0.63554 0.0
N93 N 0.10916 0.39185 0.78712 0.0
C94 C 0.93944 0.32811 0.70992 0.0
C95 C 0.2027 0.40348 0.74813 0.0
N96 N 0.20484 0.35723 0.65496 0.0
C97 C 0.28953 0.46843 0.79834 0.0
H98 H 0.91132 0.38915 0.65682 0.0
H99 H 0.91063 0.3366 0.78883 0.0
H100 H 0.90683 0.25441 0.68112 0.0
H101 H 0.28249 0.46963 0.88348 0.0
H102 H 0.28586 0.54868 0.77151 0.0
H103 H 0.36355 0.44141 0.78057 0.0
Zn104 Zn 0.94859 0.11282 0.58543 0.0
Zn105 Zn 0.16346 0.90805 0.41255 0.0
Zn106 Zn 0.04065 0.00771 0.51331 0.0
C107 C 0.18671 0.10491 0.33283 0.0
C108 C 0.95502 0.81904 0.38309 0.0
O109 O 0.00642 0.94815 0.67735 0.0
O110 O 0.98529 0.09764 0.73537 0.0
C111 C 0.08056 0.2503 0.55242 0.0
O112 O 0.14725 0.11419 0.42256 0.0
O113 O 0.19891 0.0167 0.30182 0.0
O114 O 0.0449 0.79279 0.38333 0.0
O115 O 0.94118 0.91117 0.40907 0.0
O116 O 0.98932 0.24921 0.52366 0.0
O117 O 0.12335 0.16768 0.53702 0.0
O118 O 0.87699 0.02331 0.42334 0.0
O119 O 0.80479 0.07618 0.55781 0.0
C120 C 0.79781 0.05762 0.46255 0.0
O121 O 0.12256 0.91111 0.63948 0.0
O122 O 0.25715 0.91677 0.54694 0.0
C123 C 0.9766 0.00231 0.75006 0.0
C124 C 0.21909 0.90204 0.63593 0.0
Zn125 Zn 0.3716 0.1065 0.95105 0.0
Zn126 Zn 0.7075 0.81123 0.20816 0.0
Zn127 Zn 0.50878 0.02071 0.06528 0.0
C128 C 0.72082 0.97859 0.01003 0.0
C129 C 0.50342 0.76961 0.18237 0.0
O130 O 0.40973 0.12975 0.1463 0.0
O131 O 0.26591 0.10617 0.05894 0.0
C132 C 0.58281 0.22888 0.95286 0.0
O133 O 0.65719 0.04598 0.98596 0.0
O134 O 0.70271 0.92005 0.0876 0.0
O135 O 0.57605 0.72466 0.22267 0.0
O136 O 0.52165 0.86329 0.14606 0.0
O137 O 0.48692 0.22814 0.93636 0.0
O138 O 0.61649 0.14738 0.99663 0.0
O139 O 0.43358 0.93717 0.91581 0.0
O140 O 0.32118 0.02272 0.82591 0.0
C141 C 0.37024 0.94468 0.83492 0.0
O142 O 0.58656 0.9531 0.21293 0.0
O143 O 0.70659 0.90724 0.32521 0.0
C144 C 0.31333 0.13835 0.14014 0.0
C145 C 0.64189 0.96973 0.29835 0.0
Zn146 Zn 0.67437 0.68818 0.71568 0.0
Zn147 Zn 0.35977 0.38306 0.39097 0.0
Zn148 Zn 0.4663 0.48592 0.49247 0.0
C149 C 0.53158 0.28252 0.40898 0.0
C150 C 0.38052 0.58846 0.30291 0.0
O151 O 0.38079 0.57024 0.59714 0.0
O152 O 0.52709 0.63523 0.65731 0.0
C153 C 0.61718 0.44862 0.65538 0.0
O154 O 0.54267 0.34263 0.48674 0.0
O155 O 0.46154 0.29537 0.34071 0.0
O156 O 0.31769 0.51131 0.31768 0.0
O157 O 0.46689 0.5887 0.3512 0.0
O158 O 0.62011 0.54648 0.64694 0.0
O159 O 0.56879 0.39899 0.58214 0.0
O160 O 0.55564 0.60033 0.41125 0.0
O161 O 0.62157 0.64999 0.56137 0.0
C162 C 0.62939 0.64701 0.46225 0.0
O163 O 0.33129 0.46517 0.58119 0.0
O164 O 0.27673 0.32223 0.50504 0.0
C165 C 0.43141 0.64193 0.64787 0.0
C166 C 0.27407 0.38053 0.58059 0.0
Zn167 Zn 0.0959 0.67345 0.79888 0.0
Zn168 Zn 0.8653 0.38132 0.20546 0.0
Zn169 Zn 0.98034 0.56762 0.01729 0.0
C170 C 0.08901 0.39525 0.12389 0.0
C171 C 0.7681 0.39179 0.00182 0.0
O172 O 0.96544 0.71707 0.93692 0.0
O173 O 0.01303 0.78785 0.78692 0.0
C174 C 0.19764 0.64946 0.00535 0.0
O175 O 0.11494 0.46409 0.05303 0.0
O176 O -0.00012 0.396 0.1505 0.0
O177 O 0.75037 0.34264 0.08739 0.0
O178 O 0.84535 0.45832 0.00087 0.0
O179 O 0.19374 0.70198 0.92071 0.0
O180 O 0.13888 0.56687 0.01886 0.0
O181 O 0.08879 0.48103 0.93617 0.0
O182 O 0.02745 0.53343 0.78206 0.0
C183 C 0.07007 0.46702 0.8378 0.0
O184 O 0.93521 0.63291 0.16664 0.0
O185 O 0.89254 0.51622 0.28925 0.0
C186 C 0.97009 0.7944 0.87156 0.0
C187 C 0.90785 0.61079 0.26072 0.0
loop_
_geom_bond_atom_site_label_1
_geom_bond_atom_site_label_2
_geom_bond_distance
_geom_bond_site_symmetry_2
_ccdc_geom_bond_type
C0 N1 1.317 . S
C0 N2 1.348 . S
C0 C3 1.485 . S
N1 C0 1.317 . S
N1 N5 1.370 . S
N2 C0 1.348 . S
N2 C4 1.346 . S
C3 C0 1.485 . S
C3 H7 0.960 1_455 S
C3 H8 0.961 . S
C3 H9 0.960 . S
C4 N2 1.346 . S
C4 N5 1.307 . S
C4 C6 1.486 . S
N5 N1 1.370 . S
N5 C4 1.307 . S
C6 C4 1.486 . S
C6 H10 0.960 . S
C6 H11 0.960 1_554 S
C6 H12 0.959 . S
H7 C3 0.960 1_655 S
H8 C3 0.961 . S
H9 C3 0.960 . S
H10 C6 0.960 . S
H11 C6 0.960 1_556 S
H12 C6 0.959 . S
C13 N14 1.317 . S
C13 N15 1.348 . S
C13 C16 1.485 . S
N14 C13 1.317 . S
N14 N18 1.370 . S
N15 C13 1.348 . S
N15 C17 1.346 . S
C16 C13 1.485 . S
C16 H20 0.960 . S
C16 H21 0.961 . S
C16 H22 0.960 . S
C17 N15 1.346 . S
C17 N18 1.307 . S
C17 C19 1.486 . S
N18 N14 1.370 . S
N18 C17 1.307 . S
C19 C17 1.486 . S
C19 H23 0.960 . S
C19 H24 0.960 . S
C19 H25 0.959 . S
H20 C16 0.960 . S
H21 C16 0.961 . S
H22 C16 0.960 . S
H23 C19 0.960 . S
H24 C19 0.960 . S
H25 C19 0.959 . S
C26 N27 1.317 . S
C26 N28 1.348 . S
C26 C29 1.485 . S
N27 C26 1.317 . S
N27 N31 1.370 . S
N28 C26 1.348 . S
N28 C30 1.346 . S
C29 C26 1.485 . S
C29 H33 0.960 . S
C29 H34 0.961 . S
C29 H35 0.960 . S
C30 N28 1.346 . S
C30 N31 1.307 . S
C30 C32 1.486 . S
N31 N27 1.370 . S
N31 C30 1.307 . S
C32 C30 1.486 . S
C32 H36 0.960 . S
C32 H37 0.960 . S
C32 H38 0.959 . S
H33 C29 0.960 . S
H34 C29 0.961 . S
H35 C29 0.960 . S
H36 C32 0.960 . S
H37 C32 0.960 . S
H38 C32 0.959 . S
C39 N40 1.317 . S
C39 N41 1.348 . S
C39 C42 1.485 . S
N40 C39 1.317 . S
N40 N44 1.370 . S
N41 C39 1.348 . S
N41 C43 1.346 . S
C42 C39 1.485 . S
C42 H46 0.960 . S
C42 H47 0.961 . S
C42 H48 0.960 . S
C43 N41 1.346 . S
C43 N44 1.307 . S
C43 C45 1.486 . S
N44 N40 1.370 . S
N44 C43 1.307 . S
C45 C43 1.486 . S
C45 H49 0.960 . S
C45 H50 0.960 . S
C45 H51 0.959 . S
H46 C42 0.960 . S
H47 C42 0.961 . S
H48 C42 0.960 . S
H49 C45 0.960 . S
H50 C45 0.960 . S
H51 C45 0.959 . S
C52 N53 1.317 1_554 S
C52 N54 1.348 1_554 S
C52 C55 1.485 . S
N53 C52 1.317 1_556 S
N53 N57 1.370 . S
N54 C52 1.348 1_556 S
N54 C56 1.346 1_565 S
C55 C52 1.485 . S
C55 H59 0.960 . S
C55 H60 0.961 . S
C55 H61 0.960 . S
C56 N54 1.346 1_545 S
C56 N57 1.307 1_545 S
C56 C58 1.486 . S
N57 N53 1.370 . S
N57 C56 1.307 1_565 S
C58 C56 1.486 . S
C58 H62 0.960 . S
C58 H63 0.960 . S
C58 H64 0.959 . S
H59 C55 0.960 . S
H60 C55 0.961 . S
H61 C55 0.960 . S
H62 C58 0.960 . S
H63 C58 0.960 . S
H64 C58 0.959 . S
C65 N66 1.317 . S
C65 N67 1.348 . S
C65 C68 1.485 . S
N66 C65 1.317 . S
N66 N70 1.370 . S
N67 C65 1.348 . S
N67 C69 1.346 . S
C68 C65 1.485 . S
C68 H72 0.960 . S
C68 H73 0.961 . S
C68 H74 0.960 . S
C69 N67 1.346 . S
C69 N70 1.307 . S
C69 C71 1.486 . S
N70 N66 1.370 . S
N70 C69 1.307 . S
C71 C69 1.486 . S
C71 H75 0.960 . S
C71 H76 0.960 . S
C71 H77 0.959 . S
H72 C68 0.960 . S
H73 C68 0.961 . S
H74 C68 0.960 . S
H75 C71 0.960 . S
H76 C71 0.960 . S
H77 C71 0.959 . S
C78 N79 1.317 . S
C78 N80 1.348 . S
C78 C81 1.485 . S
N79 C78 1.317 . S
N79 N83 1.370 . S
N80 C78 1.348 . S
N80 C82 1.346 . S
C81 C78 1.485 . S
C81 H85 0.960 . S
C81 H86 0.961 . S
C81 H87 0.960 . S
C82 N80 1.346 . S
C82 N83 1.307 . S
C82 C84 1.486 1_554 S
N83 N79 1.370 . S
N83 C82 1.307 . S
C84 C82 1.486 1_556 S
C84 H88 0.960 . S
C84 H89 0.960 . S
C84 H90 0.959 . S
H85 C81 0.960 . S
H86 C81 0.961 . S
H87 C81 0.960 . S
H88 C84 0.960 . S
H89 C84 0.960 . S
H90 C84 0.959 . S
C91 N92 1.317 . S
C91 N93 1.348 . S
C91 C94 1.485 1_455 S
N92 C91 1.317 . S
N92 N96 1.370 . S
N93 C91 1.348 . S
N93 C95 1.346 . S
C94 C91 1.485 1_655 S
C94 H98 0.960 . S
C94 H99 0.961 . S
C94 H100 0.960 . S
C95 N93 1.346 . S
C95 N96 1.307 . S
C95 C97 1.486 . S
N96 N92 1.370 . S
N96 C95 1.307 . S
C97 C95 1.486 . S
C97 H101 0.960 . S
C97 H102 0.960 . S
C97 H103 0.959 . S
H98 C94 0.960 . S
H99 C94 0.961 . S
H100 C94 0.960 . S
H101 C97 0.960 . S
H102 C97 0.960 . S
H103 C97 0.959 . S
Zn104 O110 1.920 . S
Zn104 O116 1.898 . S
Zn104 O119 1.905 . S
Zn105 O113 1.905 1_565 S
Zn105 O114 1.898 . S
Zn105 O122 1.920 . S
Zn106 O109 2.080 1_445 S
Zn106 O112 2.114 . S
Zn106 O115 2.120 1_445 S
Zn106 O117 2.120 . S
Zn106 O118 2.114 1_455 S
Zn106 O121 2.080 1_545 S
C107 O112 1.166 . S
C107 O113 1.182 . S
C108 O114 1.167 1_655 S
C108 O115 1.299 . S
O109 Zn106 2.080 1_665 S
O109 C123 1.305 1_565 S
O110 Zn104 1.920 . S
O110 C123 1.234 . S
C111 O116 1.167 1_455 S
C111 O117 1.299 . S
O112 Zn106 2.114 . S
O112 C107 1.166 . S
O113 Zn105 1.905 1_545 S
O113 C107 1.182 . S
O114 Zn105 1.898 . S
O114 C108 1.167 1_455 S
O115 Zn106 2.120 1_665 S
O115 C108 1.299 . S
O116 Zn104 1.898 . S
O116 C111 1.167 1_655 S
O117 Zn106 2.120 . S
O117 C111 1.299 . S
O118 Zn106 2.114 1_655 S
O118 C120 1.166 . S
O119 Zn104 1.905 . S
O119 C120 1.182 . S
C120 O118 1.166 . S
C120 O119 1.182 . S
O121 Zn106 2.080 1_565 S
O121 C124 1.305 . S
O122 Zn105 1.920 . S
O122 C124 1.234 . S
C123 O109 1.305 1_545 S
C123 O110 1.234 . S
C124 O121 1.305 . S
C124 O122 1.234 . S
Zn125 O131 1.920 1_556 S
Zn125 O137 1.898 . S
Zn125 O140 1.905 . S
Zn126 O134 1.905 . S
Zn126 O135 1.898 . S
Zn126 O143 1.920 . S
Zn127 O130 2.080 . S
Zn127 O133 2.114 1_545 S
Zn127 O136 2.120 1_545 S
Zn127 O138 2.120 . S
Zn127 O139 2.114 1_544 S
Zn127 O142 2.080 . S
C128 O133 1.166 . S
C128 O134 1.182 . S
C129 O135 1.167 . S
C129 O136 1.299 . S
O130 Zn127 2.080 . S
O130 C144 1.305 . S
O131 Zn125 1.920 1_554 S
O131 C144 1.234 . S
C132 O137 1.167 . S
C132 O138 1.299 1_556 S
O133 Zn127 2.114 1_565 S
O133 C128 1.166 . S
O134 Zn126 1.905 . S
O134 C128 1.182 . S
O135 Zn126 1.898 . S
O135 C129 1.167 . S
O136 Zn127 2.120 1_565 S
O136 C129 1.299 . S
O137 Zn125 1.898 . S
O137 C132 1.167 . S
O138 Zn127 2.120 . S
O138 C132 1.299 1_554 S
O139 Zn127 2.114 1_566 S
O139 C141 1.166 . S
O140 Zn125 1.905 . S
O140 C141 1.182 1_545 S
C141 O139 1.166 . S
C141 O140 1.182 1_565 S
O142 Zn127 2.080 . S
O142 C145 1.305 . S
O143 Zn126 1.920 . S
O143 C145 1.234 1_565 S
C144 O130 1.305 . S
C144 O131 1.234 . S
C145 O142 1.305 . S
C145 O143 1.234 1_545 S
Zn146 O152 1.920 . S
Zn146 O158 1.898 . S
Zn146 O161 1.905 . S
Zn147 O155 1.905 . S
Zn147 O156 1.898 . S
Zn147 O164 1.920 . S
Zn148 O151 2.080 . S
Zn148 O154 2.114 . S
Zn148 O157 2.120 . S
Zn148 O159 2.120 . S
Zn148 O160 2.114 . S
Zn148 O163 2.080 . S
C149 O154 1.166 . S
C149 O155 1.182 . S
C150 O156 1.167 . S
C150 O157 1.299 . S
O151 Zn148 2.080 . S
O151 C165 1.305 . S
O152 Zn146 1.920 . S
O152 C165 1.234 . S
C153 O158 1.167 . S
C153 O159 1.299 . S
O154 Zn148 2.114 . S
O154 C149 1.166 . S
O155 Zn147 1.905 . S
O155 C149 1.182 . S
O156 Zn147 1.898 . S
O156 C150 1.167 . S
O157 Zn148 2.120 . S
O157 C150 1.299 . S
O158 Zn146 1.898 . S
O158 C153 1.167 . S
O159 Zn148 2.120 . S
O159 C153 1.299 . S
O160 Zn148 2.114 . S
O160 C162 1.166 . S
O161 Zn146 1.905 . S
O161 C162 1.182 . S
C162 O160 1.166 . S
C162 O161 1.182 . S
O163 Zn148 2.080 . S
O163 C166 1.305 . S
O164 Zn147 1.920 . S
O164 C166 1.234 . S
C165 O151 1.305 . S
C165 O152 1.234 . S
C166 O163 1.305 . S
C166 O164 1.234 . S
Zn167 O173 1.920 . S
Zn167 O179 1.898 . S
Zn167 O182 1.905 . S
Zn168 O176 1.905 . S
Zn168 O177 1.898 . S
Zn168 O185 1.920 . S
Zn169 O172 2.080 1_454 S
Zn169 O175 2.114 . S
Zn169 O178 2.120 1_454 S
Zn169 O180 2.120 . S
Zn169 O181 2.114 1_554 S
Zn169 O184 2.080 1_455 S
C170 O175 1.166 . S
C170 O176 1.182 1_455 S
C171 O177 1.167 1_556 S
C171 O178 1.299 . S
O172 Zn169 2.080 1_656 S
O172 C186 1.305 1_655 S
O173 Zn167 1.920 . S
O173 C186 1.234 . S
C174 O179 1.167 1_554 S
C174 O180 1.299 . S
O175 Zn169 2.114 . S
O175 C170 1.166 . S
O176 Zn168 1.905 . S
O176 C170 1.182 1_655 S
O177 Zn168 1.898 . S
O177 C171 1.167 1_554 S
O178 Zn169 2.120 1_656 S
O178 C171 1.299 . S
O179 Zn167 1.898 . S
O179 C174 1.167 1_556 S
O180 Zn169 2.120 . S
O180 C174 1.299 . S
O181 Zn169 2.114 1_556 S
O181 C183 1.166 . S
O182 Zn167 1.905 . S
O182 C183 1.182 . S
C183 O181 1.166 . S
C183 O182 1.182 . S
O184 Zn169 2.080 1_655 S
O184 C187 1.305 . S
O185 Zn168 1.920 . S
O185 C187 1.234 . S
C186 O172 1.305 1_455 S
C186 O173 1.234 . S
C187 O184 1.305 . S
C187 O185 1.234 . S
N1 C107 1.548 . S
N18 C141 1.789 . S
C153 N28 1.159 . S
N40 C187 1.626 . S
C144 N5 1.658 . S
C124 N14 1.663 . S
C171 N31 1.377 . S
C162 N41 1.241 . S
N2 C170 1.640 . S
C132 N27 1.440 . S
N44 C108 1.636 . S
N15 C165 1.226 . S
C123 N57 1.560 1_545 S
N70 C145 1.256 . S
N79 C150 1.571 . S
N93 C183 1.453 . S
N54 C128 1.568 1_556 S
C120 N66 1.766 . S
C174 N80 1.254 . S
C166 N96 1.551 . S
N53 C186 1.529 1_655 S
C129 N83 1.570 . S
C111 N92 1.474 . S
N67 C149 1.831 . S
