# Generated by pormake.
# Topology scu, (8,4)-cn, num edge types: 1
# Building blocks:
#     Node 0, Type 0, BuildingBlock: TAGTUT_clean_sbu_3, # of connection points: 8
#     Node 1, Type 1, BuildingBlock: IZENUY_clean_linker_0, # of connection points: 4
#     Node 2, Type 1, BuildingBlock: IZENUY_clean_linker_0, # of connection points: 4
#     Edge 3, Type (0, 1), None
#     Edge 4, Type (0, 1), None
#     Edge 5, Type (0, 1), None
#     Edge 6, Type (0, 1), None
#     Edge 7, Type (0, 1), None
#     Edge 8, Type (0, 1), None
#     Edge 9, Type (0, 1), None
#     Edge 10, Type (0, 1), None
# Relax obj value: 0.043
# Max RMSD: 0.204
# Mean RMSD: 0.137
data_MOF--net-scu--node1-TAGTUT_clean_sbu_3--node2-IZENUY_clean_linker_0--edge1-none
_symmetry_space_group_name_H-M    P1
_symmetry_Int_Tables_number       1
_symmetry_cell_setting            triclinic
loop_
_symmetry_equiv_pos_as_xyz
'x, y, z'
_cell_length_a     18.017103
_cell_length_b     14.447091
_cell_length_c     8.7564065
_cell_angle_alpha  92.357164
_cell_angle_beta   89.134595
_cell_angle_gamma 88.979747
loop_
_atom_site_label
_atom_site_type_symbol
_atom_site_fract_x
_atom_site_fract_y
_atom_site_fract_z
_atom_type_partial_charge
C0 C 0.95674 0.79523 0.25691 0.0
C1 C 0.72016 -0.00057 0.2514 0.0
C2 C 0.76185 0.03492 0.79527 0.0
Mg3 Mg 0.11348 0.82651 0.06769 0.0
Mg4 Mg 0.15718 0.04626 1.02703 0.0
O5 O 0.09162 0.94905 0.98175 0.0
Mg6 Mg -0.0125 -0.02941 1.04597 0.0
O7 O 0.88345 -0.01227 0.11059 0.0
Mg8 Mg 0.83713 0.87538 1.01935 0.0
Mg9 Mg 0.83947 0.10437 0.07701 0.0
C10 C 0.03424 0.14551 0.83415 0.0
O11 O 0.01109 0.08258 0.23672 0.0
O12 O 0.21445 0.83289 0.89354 0.0
O13 O 0.91901 0.18831 0.20821 0.0
O14 O 0.18423 0.88548 0.25777 0.0
O15 O 0.24389 -0.01562 0.89501 0.0
O16 O 0.20009 0.0382 0.25583 0.0
O17 O 0.94748 0.85988 0.86462 0.0
O18 O 0.04431 0.76313 0.88049 0.0
C19 C -0.01707 0.78542 0.82081 0.0
C20 C 0.25376 0.90048 0.84685 0.0
O21 O -0.01353 0.0842 0.8681 0.0
O22 O 0.74269 0.91988 0.19428 0.0
O23 O 0.09734 0.15266 0.90063 0.0
O24 O 0.77592 0.95536 0.84498 0.0
O25 O 0.74717 0.07639 0.21371 0.0
O26 O 0.79014 0.10862 0.85318 0.0
O27 O 0.00403 0.85433 0.21551 0.0
O28 O 0.89227 0.79257 0.20028 0.0
C29 C 0.21038 -0.04019 0.31564 0.0
C30 C 0.97736 0.15939 0.27652 0.0
H31 H 0.97874 0.34427 0.3418 0.0
H32 H 0.02498 0.33257 0.82229 0.0
H33 H 0.01305 0.081 0.5438 0.0
H34 H -0.01983 0.60161 0.76076 0.0
H35 H 0.97187 0.6111 0.27108 0.0
H36 H 0.96242 0.86421 0.54805 0.0
N37 N -0.00432 0.44732 0.60463 0.0
N38 N -0.01663 0.49747 0.49508 0.0
C39 C -0.0081 0.30442 0.44033 0.0
C40 C -0.00279 0.20758 0.42337 0.0
C41 C 0.00233 0.34965 0.58422 0.0
C42 C 0.01752 0.29756 0.71182 0.0
C43 C 0.0206 0.2008 0.6986 0.0
C44 C 0.01126 0.15609 0.55387 0.0
C45 C 0.97467 0.64097 0.65866 0.0
C46 C 0.96826 0.73812 0.67238 0.0
C47 C 0.97617 0.59509 0.51363 0.0
C48 C 0.9718 0.6466 0.38269 0.0
C49 C 0.96817 0.74325 0.3945 0.0
C50 C 0.96525 0.7891 0.5393 0.0
H51 H 0.57666 -0.02861 0.33768 0.0
H52 H 0.61228 0.02268 0.81992 0.0
H53 H 0.79388 0.03716 0.5002 0.0
H54 H 0.39984 0.91455 0.77241 0.0
H55 H 0.35536 0.00223 0.31844 0.0
H56 H 0.18072 0.88973 0.58858 0.0
N57 N 0.50898 -0.01881 0.61652 0.0
N58 N 0.4624 -0.02199 0.51273 0.0
C59 C 0.61253 -0.0103 0.43202 0.0
C60 C 0.68762 0.00376 0.40359 0.0
C61 C 0.58451 -0.00128 0.58301 0.0
C62 C 0.63287 0.02106 0.70284 0.0
C63 C 0.70832 0.03725 0.67217 0.0
C64 C 0.73498 0.0287 0.52297 0.0
C65 C 0.36253 0.91958 0.67708 0.0
C66 C 0.28809 0.89469 0.69504 0.0
C67 C 0.38715 0.95648 0.5393 0.0
C68 C 0.33634 -0.02714 0.4238 0.0
C69 C 0.26186 0.94952 0.44198 0.0
C70 C 0.23899 0.90581 0.57379 0.0
loop_
_geom_bond_atom_site_label_1
_geom_bond_atom_site_label_2
_geom_bond_distance
_geom_bond_site_symmetry_2
_ccdc_geom_bond_type
C0 O27 1.312 1_655 S
C0 O28 1.208 . S
C1 O22 1.331 . S
C1 O25 1.244 1_565 S
C2 O24 1.264 1_545 S
C2 O26 1.273 . S
Mg3 O5 1.936 1_565 S
Mg3 O12 2.081 . S
Mg3 O14 2.023 1_556 S
Mg3 O18 2.031 . S
Mg3 O27 2.291 1_556 S
Mg4 O5 1.963 . S
Mg4 O15 1.942 . S
Mg4 O16 1.955 1_556 S
Mg4 O23 1.986 . S
O5 Mg3 1.936 1_545 S
O5 Mg4 1.963 . S
O5 Mg6 1.915 1_556 S
Mg6 O5 1.915 1_554 S
Mg6 O7 1.915 1_455 S
Mg6 O11 2.013 . S
Mg6 O17 2.114 1_444 S
Mg6 O21 2.013 1_454 S
Mg6 O27 2.114 1_545 S
O7 Mg6 1.915 1_655 S
O7 Mg8 1.936 1_545 S
O7 Mg9 1.963 . S
Mg8 O7 1.936 1_565 S
Mg8 O17 2.291 1_554 S
Mg8 O22 2.081 . S
Mg8 O24 2.023 1_554 S
Mg8 O28 2.031 . S
Mg9 O7 1.963 . S
Mg9 O13 1.986 . S
Mg9 O25 1.942 . S
Mg9 O26 1.955 1_554 S
C10 O21 1.191 1_455 S
C10 O23 1.307 . S
O11 Mg6 2.013 . S
O11 C30 1.191 1_455 S
O12 Mg3 2.081 . S
O12 C20 1.331 . S
O13 Mg9 1.986 . S
O13 C30 1.307 . S
O14 Mg3 2.023 1_554 S
O14 C29 1.264 1_565 S
O15 Mg4 1.942 . S
O15 C20 1.244 1_545 S
O16 Mg4 1.955 1_554 S
O16 C29 1.273 . S
O17 Mg6 2.114 1_666 S
O17 Mg8 2.291 1_556 S
O17 C19 1.312 1_655 S
O18 Mg3 2.031 . S
O18 C19 1.208 . S
C19 O17 1.312 1_455 S
C19 O18 1.208 . S
C20 O12 1.331 . S
C20 O15 1.244 1_565 S
O21 Mg6 2.013 1_656 S
O21 C10 1.191 1_655 S
O22 C1 1.331 . S
O22 Mg8 2.081 . S
O23 Mg4 1.986 . S
O23 C10 1.307 . S
O24 C2 1.264 1_565 S
O24 Mg8 2.023 1_556 S
O25 C1 1.244 1_545 S
O25 Mg9 1.942 . S
O26 C2 1.273 . S
O26 Mg9 1.955 1_556 S
O27 C0 1.312 1_455 S
O27 Mg3 2.291 1_554 S
O27 Mg6 2.114 1_565 S
O28 C0 1.208 . S
O28 Mg8 2.031 . S
C29 O14 1.264 1_545 S
C29 O16 1.273 . S
C30 O11 1.191 1_655 S
C30 O13 1.307 . S
H31 C39 0.940 . S
H32 C42 0.940 . S
H33 C44 0.940 1_655 S
H34 C45 0.940 . S
H35 C48 0.940 . S
H36 C50 0.940 1_655 S
N37 N38 1.190 . S
N37 C41 1.477 . S
N38 N37 1.190 . S
N38 C47 1.477 . S
C39 H31 0.940 . S
C39 C40 1.390 . S
C39 C41 1.322 . S
C40 C39 1.390 . S
C40 C44 1.370 . S
C41 N37 1.477 . S
C41 C39 1.322 . S
C41 C42 1.447 . S
C42 H32 0.940 . S
C42 C41 1.447 . S
C42 C43 1.373 . S
C43 C42 1.373 . S
C43 C44 1.417 . S
C44 H33 0.940 1_455 S
C44 C40 1.370 . S
C44 C43 1.417 . S
C45 H34 0.940 . S
C45 C46 1.390 . S
C45 C47 1.322 . S
C46 C45 1.390 . S
C46 C50 1.370 . S
C47 N38 1.477 . S
C47 C45 1.322 . S
C47 C48 1.447 . S
C48 H35 0.940 . S
C48 C47 1.447 . S
C48 C49 1.373 . S
C49 C48 1.373 . S
C49 C50 1.417 . S
C50 H36 0.940 1_455 S
C50 C46 1.370 . S
C50 C49 1.417 . S
H51 C59 0.940 . S
H52 C62 0.940 . S
H53 C64 0.941 . S
H54 C65 0.940 . S
H55 C68 0.940 . S
H56 C70 0.941 . S
N57 N58 1.190 . S
N57 C61 1.477 . S
N58 N57 1.190 . S
N58 C67 1.477 . S
C59 H51 0.940 . S
C59 C60 1.390 . S
C59 C61 1.322 . S
C60 C59 1.390 . S
C60 C64 1.369 1_545 S
C61 N57 1.477 . S
C61 C59 1.322 . S
C61 C62 1.447 . S
C62 H52 0.940 . S
C62 C61 1.447 . S
C62 C63 1.373 . S
C63 C62 1.373 . S
C63 C64 1.417 1_545 S
C64 H53 0.941 . S
C64 C60 1.369 1_565 S
C64 C63 1.417 1_565 S
C65 H54 0.940 . S
C65 C66 1.390 . S
C65 C67 1.322 . S
C66 C65 1.390 . S
C66 C70 1.370 1_545 S
C67 N58 1.477 . S
C67 C65 1.322 . S
C67 C68 1.447 . S
C68 H55 0.940 . S
C68 C67 1.447 . S
C68 C69 1.373 . S
C69 C68 1.373 . S
C69 C70 1.417 1_545 S
C70 H56 0.941 . S
C70 C66 1.370 1_565 S
C70 C69 1.417 1_565 S
C30 C40 1.760 1_655 S
C1 C60 1.755 1_565 S
C0 C49 1.859 1_655 S
C29 C69 1.801 . S
C19 C46 1.837 . S
C20 C66 1.773 1_565 S
C43 C10 1.757 . S
C2 C63 1.785 . S
