# Generated by pormake.
# Topology cml, (3,6)-cn, num edge types: 1
# Building blocks:
#     Node 0, Type 0, BuildingBlock: CUQRIR_clean_linker_1, # of connection points: 3
#     Node 1, Type 0, BuildingBlock: CUQRIR_clean_linker_1, # of connection points: 3
#     Node 2, Type 0, BuildingBlock: CUQRIR_clean_linker_1, # of connection points: 3
#     Node 3, Type 0, BuildingBlock: CUQRIR_clean_linker_1, # of connection points: 3
#     Node 4, Type 0, BuildingBlock: CUQRIR_clean_linker_1, # of connection points: 3
#     Node 5, Type 0, BuildingBlock: CUQRIR_clean_linker_1, # of connection points: 3
#     Node 6, Type 0, BuildingBlock: CUQRIR_clean_linker_1, # of connection points: 3
#     Node 7, Type 0, BuildingBlock: CUQRIR_clean_linker_1, # of connection points: 3
#     Node 8, Type 1, BuildingBlock: IZENUY_clean_sbu_0, # of connection points: 6
#     Node 9, Type 1, BuildingBlock: IZENUY_clean_sbu_0, # of connection points: 6
#     Node 10, Type 1, BuildingBlock: IZENUY_clean_sbu_0, # of connection points: 6
#     Node 11, Type 1, BuildingBlock: IZENUY_clean_sbu_0, # of connection points: 6
#     Edge 12, Type (0, 1), None
#     Edge 13, Type (0, 1), None
#     Edge 14, Type (0, 1), None
#     Edge 15, Type (0, 1), None
#     Edge 16, Type (0, 1), None
#     Edge 17, Type (0, 1), None
#     Edge 18, Type (0, 1), None
#     Edge 19, Type (0, 1), None
#     Edge 20, Type (0, 1), None
#     Edge 21, Type (0, 1), None
#     Edge 22, Type (0, 1), None
#     Edge 23, Type (0, 1), None
#     Edge 24, Type (0, 1), None
#     Edge 25, Type (0, 1), None
#     Edge 26, Type (0, 1), None
#     Edge 27, Type (0, 1), None
#     Edge 28, Type (0, 1), None
#     Edge 29, Type (0, 1), None
#     Edge 30, Type (0, 1), None
#     Edge 31, Type (0, 1), None
#     Edge 32, Type (0, 1), None
#     Edge 33, Type (0, 1), None
#     Edge 34, Type (0, 1), None
#     Edge 35, Type (0, 1), None
# Relax obj value: 0.001
# Max RMSD: 0.066
# Mean RMSD: 0.052
data_MOF--net-cml--node1-IZENUY_clean_sbu_0--node2-CUQRIR_clean_linker_1--edge1-none
_symmetry_space_group_name_H-M    P1
_symmetry_Int_Tables_number       1
_symmetry_cell_setting            triclinic
loop_
_symmetry_equiv_pos_as_xyz
'x, y, z'
_cell_length_a     14.43776
_cell_length_b     14.452594
_cell_length_c     12.404414
_cell_angle_alpha  90.000001
_cell_angle_beta   90.0
_cell_angle_gamma 90.855789
loop_
_atom_site_label
_atom_site_type_symbol
_atom_site_fract_x
_atom_site_fract_y
_atom_site_fract_z
_atom_type_partial_charge
C0 C 0.24977 0.37075 0.10962 0.0
N1 N 0.32163 0.43256 0.11383 0.0
N2 N 0.19826 0.38364 1.01939 0.0
C3 C 0.21999 0.30808 0.20136 0.0
C4 C 0.23865 0.45855 0.97151 0.0
N5 N 0.31341 0.4884 1.0286 0.0
C6 C 0.20018 0.50838 0.87492 0.0
H7 H 0.23924 0.23613 0.18155 0.0
H8 H 0.14366 0.30962 0.21143 0.0
H9 H 0.25015 0.32887 0.27993 0.0
H10 H 0.12963 0.53285 0.89442 0.0
H11 H 0.19342 0.46058 0.80576 0.0
H12 H 0.24329 0.56916 0.85149 0.0
C13 C 0.76943 0.75137 0.60962 0.0
N14 N 0.69757 0.68956 0.61383 0.0
N15 N 0.82094 0.73848 0.51939 0.0
C16 C 0.79921 0.81405 0.70136 0.0
C17 C 0.78056 0.66358 0.47151 0.0
N18 N 0.70579 0.63373 0.5286 0.0
C19 C 0.81903 0.61374 0.37492 0.0
H20 H 0.77996 0.88599 0.68155 0.0
H21 H 0.87554 0.81251 0.71143 0.0
H22 H 0.76906 0.79325 0.77993 0.0
H23 H 0.88957 0.58927 0.39442 0.0
H24 H 0.82578 0.66154 0.30576 0.0
H25 H 0.77591 0.55296 0.35149 0.0
C26 C 0.77644 0.39248 0.10599 0.0
N27 N 0.70402 0.45093 0.10949 0.0
N28 N 0.81753 0.39424 1.00755 0.0
C29 C 0.8091 0.33597 0.2002 0.0
C30 C 0.76879 0.45831 0.95201 0.0
N31 N 0.69763 0.49038 1.01249 0.0
C32 C 0.8023 0.50455 0.84957 0.0
H33 H 0.88177 0.35572 0.21963 0.0
H34 H 0.80794 0.26201 0.17724 0.0
H35 H 0.76685 0.34659 0.27342 0.0
H36 H 0.7654 0.47479 0.77949 0.0
H37 H 0.87793 0.49686 0.83806 0.0
H38 H 0.78763 0.57973 0.85171 0.0
C39 C 0.24276 0.72964 0.60599 0.0
N40 N 0.31518 0.6712 0.60949 0.0
N41 N 0.20168 0.72788 0.50755 0.0
C42 C 0.21011 0.78615 0.7002 0.0
C43 C 0.25042 0.66382 0.45201 0.0
N44 N 0.32158 0.63174 0.51249 0.0
C45 C 0.21691 0.61758 0.34957 0.0
H46 H 0.13743 0.7664 0.71963 0.0
H47 H 0.21127 0.86011 0.67724 0.0
H48 H 0.25235 0.77553 0.77342 0.0
H49 H 0.2538 0.64734 0.27949 0.0
H50 H 0.14127 0.62526 0.33806 0.0
H51 H 0.23157 0.5424 0.35171 0.0
C52 C 0.74977 0.87075 0.10962 0.0
N53 N 0.82163 0.93256 0.11383 0.0
N54 N 0.69826 0.88364 1.01939 0.0
C55 C 0.71999 0.80808 0.20136 0.0
C56 C 0.73865 0.95855 0.97151 0.0
N57 N 0.81341 0.9884 1.0286 0.0
C58 C 0.70018 1.00838 0.87492 0.0
H59 H 0.73924 0.73613 0.18155 0.0
H60 H 0.64366 0.80962 0.21143 0.0
H61 H 0.75015 0.82887 0.27993 0.0
H62 H 0.62963 1.03285 0.89442 0.0
H63 H 0.69342 0.96058 0.80576 0.0
H64 H 0.74329 0.06916 0.85149 0.0
C65 C 0.26943 0.25137 0.60962 0.0
N66 N 0.19757 0.18956 0.61383 0.0
N67 N 0.32094 0.23848 0.51939 0.0
C68 C 0.29921 0.31405 0.70136 0.0
C69 C 0.28056 0.16358 0.47151 0.0
N70 N 0.20579 0.13373 0.5286 0.0
C71 C 0.31903 0.11374 0.37492 0.0
H72 H 0.27996 0.38599 0.68155 0.0
H73 H 0.37554 0.31251 0.71143 0.0
H74 H 0.26906 0.29325 0.77993 0.0
H75 H 0.38957 0.08927 0.39442 0.0
H76 H 0.32578 0.16154 0.30576 0.0
H77 H 0.27591 1.05296 0.35149 0.0
C78 C 0.27644 0.89248 0.10599 0.0
N79 N 0.20402 0.95093 0.10949 0.0
N80 N 0.31753 0.89424 1.00755 0.0
C81 C 0.3091 0.83597 0.2002 0.0
C82 C 0.26879 0.95831 0.95201 0.0
N83 N 0.19763 0.99038 1.01249 0.0
C84 C 0.3023 1.00455 0.84957 0.0
H85 H 0.38177 0.85572 0.21963 0.0
H86 H 0.30794 0.76201 0.17724 0.0
H87 H 0.26685 0.84659 0.27342 0.0
H88 H 0.2654 0.97479 0.77949 0.0
H89 H 0.37793 0.99686 0.83806 0.0
H90 H 0.28763 0.07973 0.85171 0.0
C91 C 0.74276 0.22964 0.60599 0.0
N92 N 0.81518 0.1712 0.60949 0.0
N93 N 0.70168 0.22788 0.50755 0.0
C94 C 0.71011 0.28615 0.7002 0.0
C95 C 0.75042 0.16382 0.45201 0.0
N96 N 0.82158 0.13174 0.51249 0.0
C97 C 0.71691 0.11758 0.34957 0.0
H98 H 0.63743 0.2664 0.71963 0.0
H99 H 0.71127 0.36011 0.67724 0.0
H100 H 0.75235 0.27553 0.77342 0.0
H101 H 0.7538 0.14734 0.27949 0.0
H102 H 0.64127 0.12526 0.33806 0.0
H103 H 0.73157 1.0424 0.35171 0.0
Fe104 Fe 0.01479 0.83063 0.30787 0.0
Fe105 Fe 0.01605 0.93455 0.52456 0.0
O106 O 0.01696 0.93613 0.38112 0.0
Fe107 Fe 0.01533 1.04369 0.31151 0.0
O108 O 0.94573 1.00248 0.19645 0.0
O109 O 0.90829 0.86054 0.24062 0.0
O110 O 0.9424 0.76646 0.4053 0.0
C111 C 0.89256 0.79307 0.48295 0.0
C112 C 0.13645 0.94889 0.18578 0.0
O113 O 0.90817 0.87021 0.52715 0.0
C114 C 0.13794 0.07684 0.48911 0.0
O115 O 0.12 0.79139 0.3703 0.0
O116 O 0.0842 0.82867 0.53627 0.0
O117 O 0.12158 1.02052 0.24059 0.0
O118 O 0.08764 0.87573 0.19735 0.0
C119 C 0.89275 0.07869 0.47533 0.0
O120 O 0.12379 0.99931 0.53282 0.0
O121 O 0.08642 0.1053 0.4133 0.0
C122 C 0.13318 0.78386 0.47024 0.0
O123 O 0.94762 1.04034 0.54031 0.0
O124 O 0.90717 0.07383 0.37538 0.0
C125 C 0.893 0.93251 0.18677 0.0
Fe126 Fe 1.00316 0.18757 1.02456 0.0
Fe127 Fe 1.00387 0.07844 0.81151 0.0
O128 O 1.00224 0.18599 0.88112 0.0
Fe129 Fe 0.00441 0.29149 0.80787 0.0
O130 O 0.0768 0.35566 0.9053 0.0
O131 O 0.11104 0.25192 1.02715 0.0
O132 O 0.07158 0.08178 1.04031 0.0
C133 C 0.12645 1.04344 0.97533 0.0
C134 C 0.88602 0.33827 0.97024 0.0
O135 O 0.11203 1.04829 0.87538 0.0
C136 C 0.88276 0.17323 0.68578 0.0
O137 O 0.89541 0.12282 1.03282 0.0
O138 O 0.93278 1.01682 0.9133 0.0
O139 O 0.89921 0.33074 0.8703 0.0
O140 O 0.93501 0.29345 1.03627 0.0
C141 C 0.12621 0.18961 0.68677 0.0
O142 O 0.89762 0.1016 0.74059 0.0
O143 O 0.93157 0.24639 0.69735 0.0
C144 C 0.88126 1.04528 0.98911 0.0
O145 O 0.07348 0.11964 0.69645 0.0
O146 O 0.11092 0.26159 0.74062 0.0
C147 C 0.12664 0.32905 0.98295 0.0
Fe148 Fe 0.51479 0.33063 0.30787 0.0
Fe149 Fe 0.51605 0.43455 0.52456 0.0
O150 O 0.51696 0.43613 0.38112 0.0
Fe151 Fe 0.51533 0.54369 0.31151 0.0
O152 O 0.44573 0.50248 0.19645 0.0
O153 O 0.40829 0.36054 0.24062 0.0
O154 O 0.4424 0.26646 0.4053 0.0
C155 C 0.39256 0.29307 0.48295 0.0
C156 C 0.63645 0.44889 0.18578 0.0
O157 O 0.40817 0.37021 0.52715 0.0
C158 C 0.63794 0.57684 0.48911 0.0
O159 O 0.62 0.29139 0.3703 0.0
O160 O 0.5842 0.32867 0.53627 0.0
O161 O 0.62158 0.52052 0.24059 0.0
O162 O 0.58764 0.37573 0.19735 0.0
C163 C 0.39275 0.57869 0.47533 0.0
O164 O 0.62379 0.49931 0.53282 0.0
O165 O 0.58642 0.6053 0.4133 0.0
C166 C 0.63318 0.28386 0.47024 0.0
O167 O 0.44762 0.54034 0.54031 0.0
O168 O 0.40717 0.57383 0.37538 0.0
C169 C 0.393 0.43251 0.18677 0.0
Fe170 Fe 0.50316 0.68757 1.02456 0.0
Fe171 Fe 0.50387 0.57844 0.81151 0.0
O172 O 0.50224 0.68599 0.88112 0.0
Fe173 Fe 0.50441 0.79149 0.80787 0.0
O174 O 0.5768 0.85566 0.9053 0.0
O175 O 0.61104 0.75192 1.02715 0.0
O176 O 0.57158 0.58178 1.04031 0.0
C177 C 0.62645 0.54344 0.97533 0.0
C178 C 0.38602 0.83827 0.97024 0.0
O179 O 0.61203 0.54829 0.87538 0.0
C180 C 0.38276 0.67323 0.68578 0.0
O181 O 0.39541 0.62282 1.03282 0.0
O182 O 0.43278 0.51682 0.9133 0.0
O183 O 0.39921 0.83074 0.8703 0.0
O184 O 0.43501 0.79345 1.03627 0.0
C185 C 0.62621 0.68961 0.68677 0.0
O186 O 0.39762 0.6016 0.74059 0.0
O187 O 0.43157 0.74639 0.69735 0.0
C188 C 0.38126 0.54528 0.98911 0.0
O189 O 0.57348 0.61964 0.69645 0.0
O190 O 0.61092 0.76159 0.74062 0.0
C191 C 0.62664 0.82905 0.98295 0.0
loop_
_geom_bond_atom_site_label_1
_geom_bond_atom_site_label_2
_geom_bond_distance
_geom_bond_site_symmetry_2
_ccdc_geom_bond_type
C0 N1 1.317 . S
C0 N2 1.348 1_554 S
C0 C3 1.485 . S
N1 C0 1.317 . S
N1 N5 1.370 1_554 S
N2 C0 1.348 1_556 S
N2 C4 1.346 . S
C3 C0 1.485 . S
C3 H7 0.960 . S
C3 H8 0.961 . S
C3 H9 0.960 . S
C4 N2 1.346 . S
C4 N5 1.307 . S
C4 C6 1.486 . S
N5 N1 1.370 1_556 S
N5 C4 1.307 . S
C6 C4 1.486 . S
C6 H10 0.960 . S
C6 H11 0.960 . S
C6 H12 0.959 . S
H7 C3 0.960 . S
H8 C3 0.961 . S
H9 C3 0.960 . S
H10 C6 0.960 . S
H11 C6 0.960 . S
H12 C6 0.959 . S
C13 N14 1.317 . S
C13 N15 1.348 . S
C13 C16 1.485 . S
N14 C13 1.317 . S
N14 N18 1.370 . S
N15 C13 1.348 . S
N15 C17 1.346 . S
C16 C13 1.485 . S
C16 H20 0.960 . S
C16 H21 0.961 . S
C16 H22 0.960 . S
C17 N15 1.346 . S
C17 N18 1.307 . S
C17 C19 1.486 . S
N18 N14 1.370 . S
N18 C17 1.307 . S
C19 C17 1.486 . S
C19 H23 0.960 . S
C19 H24 0.960 . S
C19 H25 0.959 . S
H20 C16 0.960 . S
H21 C16 0.961 . S
H22 C16 0.960 . S
H23 C19 0.960 . S
H24 C19 0.960 . S
H25 C19 0.959 . S
C26 N27 1.317 . S
C26 N28 1.348 1_554 S
C26 C29 1.485 . S
N27 C26 1.317 . S
N27 N31 1.370 1_554 S
N28 C26 1.348 1_556 S
N28 C30 1.346 . S
C29 C26 1.485 . S
C29 H33 0.960 . S
C29 H34 0.961 . S
C29 H35 0.960 . S
C30 N28 1.346 . S
C30 N31 1.307 . S
C30 C32 1.486 . S
N31 N27 1.370 1_556 S
N31 C30 1.307 . S
C32 C30 1.486 . S
C32 H36 0.960 . S
C32 H37 0.960 . S
C32 H38 0.959 . S
H33 C29 0.960 . S
H34 C29 0.961 . S
H35 C29 0.960 . S
H36 C32 0.960 . S
H37 C32 0.960 . S
H38 C32 0.959 . S
C39 N40 1.317 . S
C39 N41 1.348 . S
C39 C42 1.485 . S
N40 C39 1.317 . S
N40 N44 1.370 . S
N41 C39 1.348 . S
N41 C43 1.346 . S
C42 C39 1.485 . S
C42 H46 0.960 . S
C42 H47 0.961 . S
C42 H48 0.960 . S
C43 N41 1.346 . S
C43 N44 1.307 . S
C43 C45 1.486 . S
N44 N40 1.370 . S
N44 C43 1.307 . S
C45 C43 1.486 . S
C45 H49 0.960 . S
C45 H50 0.960 . S
C45 H51 0.959 . S
H46 C42 0.960 . S
H47 C42 0.961 . S
H48 C42 0.960 . S
H49 C45 0.960 . S
H50 C45 0.960 . S
H51 C45 0.959 . S
C52 N53 1.317 . S
C52 N54 1.348 1_554 S
C52 C55 1.485 . S
N53 C52 1.317 . S
N53 N57 1.370 1_554 S
N54 C52 1.348 1_556 S
N54 C56 1.346 . S
C55 C52 1.485 . S
C55 H59 0.960 . S
C55 H60 0.961 . S
C55 H61 0.960 . S
C56 N54 1.346 . S
C56 N57 1.307 . S
C56 C58 1.486 . S
N57 N53 1.370 1_556 S
N57 C56 1.307 . S
C58 C56 1.486 . S
C58 H62 0.960 . S
C58 H63 0.960 . S
C58 H64 0.959 . S
H59 C55 0.960 . S
H60 C55 0.961 . S
H61 C55 0.960 . S
H62 C58 0.960 . S
H63 C58 0.960 . S
H64 C58 0.959 . S
C65 N66 1.317 . S
C65 N67 1.348 . S
C65 C68 1.485 . S
N66 C65 1.317 . S
N66 N70 1.370 . S
N67 C65 1.348 . S
N67 C69 1.346 . S
C68 C65 1.485 . S
C68 H72 0.960 . S
C68 H73 0.961 . S
C68 H74 0.960 . S
C69 N67 1.346 . S
C69 N70 1.307 . S
C69 C71 1.486 . S
N70 N66 1.370 . S
N70 C69 1.307 . S
C71 C69 1.486 . S
C71 H75 0.960 . S
C71 H76 0.960 . S
C71 H77 0.959 . S
H72 C68 0.960 . S
H73 C68 0.961 . S
H74 C68 0.960 . S
H75 C71 0.960 . S
H76 C71 0.960 . S
H77 C71 0.959 . S
C78 N79 1.317 . S
C78 N80 1.348 1_554 S
C78 C81 1.485 . S
N79 C78 1.317 . S
N79 N83 1.370 1_554 S
N80 C78 1.348 1_556 S
N80 C82 1.346 . S
C81 C78 1.485 . S
C81 H85 0.960 . S
C81 H86 0.961 . S
C81 H87 0.960 . S
C82 N80 1.346 . S
C82 N83 1.307 . S
C82 C84 1.486 . S
N83 N79 1.370 1_556 S
N83 C82 1.307 . S
C84 C82 1.486 . S
C84 H88 0.960 . S
C84 H89 0.960 . S
C84 H90 0.959 . S
H85 C81 0.960 . S
H86 C81 0.961 . S
H87 C81 0.960 . S
H88 C84 0.960 . S
H89 C84 0.960 . S
H90 C84 0.959 . S
C91 N92 1.317 . S
C91 N93 1.348 . S
C91 C94 1.485 . S
N92 C91 1.317 . S
N92 N96 1.370 . S
N93 C91 1.348 . S
N93 C95 1.346 . S
C94 C91 1.485 . S
C94 H98 0.960 . S
C94 H99 0.961 . S
C94 H100 0.960 . S
C95 N93 1.346 . S
C95 N96 1.307 . S
C95 C97 1.486 . S
N96 N92 1.370 . S
N96 C95 1.307 . S
C97 C95 1.486 . S
C97 H101 0.960 . S
C97 H102 0.960 . S
C97 H103 0.959 . S
H98 C94 0.960 . S
H99 C94 0.961 . S
H100 C94 0.960 . S
H101 C97 0.960 . S
H102 C97 0.960 . S
H103 C97 0.959 . S
Fe104 O106 1.918 . S
Fe104 O109 1.997 1_455 S
Fe104 O110 2.002 1_455 S
Fe104 O115 1.976 . S
Fe104 O118 1.996 . S
Fe105 O106 1.918 . S
Fe105 O113 1.997 1_455 S
Fe105 O116 1.996 . S
Fe105 O120 1.976 . S
Fe105 O123 2.002 1_455 S
O106 Fe104 1.918 . S
O106 Fe105 1.918 . S
O106 Fe107 1.918 . S
Fe107 O106 1.918 . S
Fe107 O108 2.002 1_455 S
Fe107 O117 1.976 . S
Fe107 O121 1.996 1_565 S
Fe107 O124 1.997 1_465 S
O108 Fe107 2.002 1_655 S
O108 C125 1.295 . S
O109 Fe104 1.997 1_655 S
O109 C125 1.235 . S
O110 Fe104 2.002 1_655 S
O110 C111 1.295 . S
C111 O110 1.295 . S
C111 O113 1.235 . S
C112 O117 1.287 . S
C112 O118 1.255 . S
O113 Fe105 1.997 1_655 S
O113 C111 1.235 . S
C114 O120 1.287 1_545 S
C114 O121 1.255 . S
O115 Fe104 1.976 . S
O115 C122 1.287 . S
O116 Fe105 1.996 . S
O116 C122 1.255 . S
O117 Fe107 1.976 . S
O117 C112 1.287 . S
O118 Fe104 1.996 . S
O118 C112 1.255 . S
C119 O123 1.295 1_545 S
C119 O124 1.235 . S
O120 Fe105 1.976 . S
O120 C114 1.287 1_565 S
O121 Fe107 1.996 1_545 S
O121 C114 1.255 . S
C122 O115 1.287 . S
C122 O116 1.255 . S
O123 Fe105 2.002 1_655 S
O123 C119 1.295 1_565 S
O124 Fe107 1.997 1_645 S
O124 C119 1.235 . S
C125 O108 1.295 . S
C125 O109 1.235 . S
Fe126 O128 1.918 1_455 S
Fe126 O131 1.997 . S
Fe126 O132 2.002 . S
Fe126 O137 1.976 1_455 S
Fe126 O140 1.996 1_455 S
Fe127 O128 1.918 1_455 S
Fe127 O135 1.997 1_545 S
Fe127 O138 1.996 1_445 S
Fe127 O142 1.976 1_455 S
Fe127 O145 2.002 . S
O128 Fe126 1.918 1_655 S
O128 Fe127 1.918 1_655 S
O128 Fe129 1.918 1_655 S
Fe129 O128 1.918 1_455 S
Fe129 O130 2.002 . S
Fe129 O139 1.976 1_455 S
Fe129 O143 1.996 1_455 S
Fe129 O146 1.997 . S
O130 Fe129 2.002 . S
O130 C147 1.295 . S
O131 Fe126 1.997 . S
O131 C147 1.235 . S
O132 Fe126 2.002 . S
O132 C133 1.295 1_545 S
C133 O132 1.295 1_565 S
C133 O135 1.235 . S
C134 O139 1.287 . S
C134 O140 1.255 . S
O135 Fe127 1.997 1_565 S
O135 C133 1.235 . S
C136 O142 1.287 . S
C136 O143 1.255 . S
O137 Fe126 1.976 1_655 S
O137 C144 1.287 1_545 S
O138 Fe127 1.996 1_665 S
O138 C144 1.255 . S
O139 Fe129 1.976 1_655 S
O139 C134 1.287 . S
O140 Fe126 1.996 1_655 S
O140 C134 1.255 . S
C141 O145 1.295 . S
C141 O146 1.235 . S
O142 Fe127 1.976 1_655 S
O142 C136 1.287 . S
O143 Fe129 1.996 1_655 S
O143 C136 1.255 . S
C144 O137 1.287 1_565 S
C144 O138 1.255 . S
O145 Fe127 2.002 . S
O145 C141 1.295 . S
O146 Fe129 1.997 . S
O146 C141 1.235 . S
C147 O130 1.295 . S
C147 O131 1.235 . S
Fe148 O150 1.918 . S
Fe148 O153 1.997 . S
Fe148 O154 2.002 . S
Fe148 O159 1.976 . S
Fe148 O162 1.996 . S
Fe149 O150 1.918 . S
Fe149 O157 1.997 . S
Fe149 O160 1.996 . S
Fe149 O164 1.976 . S
Fe149 O167 2.002 . S
O150 Fe148 1.918 . S
O150 Fe149 1.918 . S
O150 Fe151 1.918 . S
Fe151 O150 1.918 . S
Fe151 O152 2.002 . S
Fe151 O161 1.976 . S
Fe151 O165 1.996 . S
Fe151 O168 1.997 . S
O152 Fe151 2.002 . S
O152 C169 1.295 . S
O153 Fe148 1.997 . S
O153 C169 1.235 . S
O154 Fe148 2.002 . S
O154 C155 1.295 . S
C155 O154 1.295 . S
C155 O157 1.235 . S
C156 O161 1.287 . S
C156 O162 1.255 . S
O157 Fe149 1.997 . S
O157 C155 1.235 . S
C158 O164 1.287 . S
C158 O165 1.255 . S
O159 Fe148 1.976 . S
O159 C166 1.287 . S
O160 Fe149 1.996 . S
O160 C166 1.255 . S
O161 Fe151 1.976 . S
O161 C156 1.287 . S
O162 Fe148 1.996 . S
O162 C156 1.255 . S
C163 O167 1.295 . S
C163 O168 1.235 . S
O164 Fe149 1.976 . S
O164 C158 1.287 . S
O165 Fe151 1.996 . S
O165 C158 1.255 . S
C166 O159 1.287 . S
C166 O160 1.255 . S
O167 Fe149 2.002 . S
O167 C163 1.295 . S
O168 Fe151 1.997 . S
O168 C163 1.235 . S
C169 O152 1.295 . S
C169 O153 1.235 . S
Fe170 O172 1.918 . S
Fe170 O175 1.997 . S
Fe170 O176 2.002 . S
Fe170 O181 1.976 . S
Fe170 O184 1.996 . S
Fe171 O172 1.918 . S
Fe171 O179 1.997 . S
Fe171 O182 1.996 . S
Fe171 O186 1.976 . S
Fe171 O189 2.002 . S
O172 Fe170 1.918 . S
O172 Fe171 1.918 . S
O172 Fe173 1.918 . S
Fe173 O172 1.918 . S
Fe173 O174 2.002 . S
Fe173 O183 1.976 . S
Fe173 O187 1.996 . S
Fe173 O190 1.997 . S
O174 Fe173 2.002 . S
O174 C191 1.295 . S
O175 Fe170 1.997 . S
O175 C191 1.235 . S
O176 Fe170 2.002 . S
O176 C177 1.295 . S
C177 O176 1.295 . S
C177 O179 1.235 . S
C178 O183 1.287 . S
C178 O184 1.255 . S
O179 Fe171 1.997 . S
O179 C177 1.235 . S
C180 O186 1.287 . S
C180 O187 1.255 . S
O181 Fe170 1.976 . S
O181 C188 1.287 . S
O182 Fe171 1.996 . S
O182 C188 1.255 . S
O183 Fe173 1.976 . S
O183 C178 1.287 . S
O184 Fe170 1.996 . S
O184 C178 1.255 . S
C185 O189 1.295 . S
C185 O190 1.235 . S
O186 Fe171 1.976 . S
O186 C180 1.287 . S
O187 Fe173 1.996 . S
O187 C180 1.255 . S
C188 O181 1.287 . S
C188 O182 1.255 . S
O189 Fe171 2.002 . S
O189 C185 1.295 . S
O190 Fe173 1.997 . S
O190 C185 1.235 . S
C191 O174 1.295 . S
C191 O175 1.235 . S
N2 C147 1.528 . S
C111 N15 1.528 . S
C134 N28 1.523 . S
C122 N41 1.524 . S
C191 N54 1.528 . S
C155 N67 1.528 . S
N80 C178 1.523 . S
C166 N93 1.524 . S
N5 C188 1.532 . S
C158 N18 1.532 . S
N31 C177 1.540 . S
N44 C163 1.540 . S
C144 N57 1.532 . S
N70 C114 1.532 . S
C133 N83 1.540 . S
C119 N96 1.540 . S
C169 N1 1.563 . S
C185 N14 1.563 . S
N27 C156 1.494 . S
C180 N40 1.494 . S
C125 N53 1.563 . S
N66 C141 1.563 . S
N79 C112 1.494 . S
N92 C136 1.494 . S
