# Generated by pormake.
# Topology tsx, (6,3)-cn, num edge types: 1
# Building blocks:
#     Node 0, Type 0, BuildingBlock: MIDCAF_clean_sbu_0, # of connection points: 6
#     Node 1, Type 0, BuildingBlock: MIDCAF_clean_sbu_0, # of connection points: 6
#     Node 2, Type 1, BuildingBlock: INOVEN_clean_linker_0, # of connection points: 3
#     Node 3, Type 1, BuildingBlock: INOVEN_clean_linker_0, # of connection points: 3
#     Node 4, Type 1, BuildingBlock: INOVEN_clean_linker_0, # of connection points: 3
#     Node 5, Type 1, BuildingBlock: INOVEN_clean_linker_0, # of connection points: 3
#     Edge 6, Type (0, 1), BuildingBlock: OJICUG_clean_linker_0, # of connection points: 2
#     Edge 7, Type (0, 1), BuildingBlock: OJICUG_clean_linker_0, # of connection points: 2
#     Edge 8, Type (0, 1), BuildingBlock: OJICUG_clean_linker_0, # of connection points: 2
#     Edge 9, Type (0, 1), BuildingBlock: OJICUG_clean_linker_0, # of connection points: 2
#     Edge 10, Type (0, 1), BuildingBlock: OJICUG_clean_linker_0, # of connection points: 2
#     Edge 11, Type (0, 1), BuildingBlock: OJICUG_clean_linker_0, # of connection points: 2
#     Edge 12, Type (0, 1), BuildingBlock: OJICUG_clean_linker_0, # of connection points: 2
#     Edge 13, Type (0, 1), BuildingBlock: OJICUG_clean_linker_0, # of connection points: 2
#     Edge 14, Type (0, 1), BuildingBlock: OJICUG_clean_linker_0, # of connection points: 2
#     Edge 15, Type (0, 1), BuildingBlock: OJICUG_clean_linker_0, # of connection points: 2
#     Edge 16, Type (0, 1), BuildingBlock: OJICUG_clean_linker_0, # of connection points: 2
#     Edge 17, Type (0, 1), BuildingBlock: OJICUG_clean_linker_0, # of connection points: 2
# Relax obj value: 0.074
# Max RMSD: 0.146
# Mean RMSD: 0.101
data_MOF--net-tsx--node1-MIDCAF_clean_sbu_0--node2-INOVEN_clean_linker_0--edge1-OJICUG_clean_linker_0
_symmetry_space_group_name_H-M    P1
_symmetry_Int_Tables_number       1
_symmetry_cell_setting            triclinic
loop_
_symmetry_equiv_pos_as_xyz
'x, y, z'
_cell_length_a     14.116459
_cell_length_b     15.141669
_cell_length_c     26.699098
_cell_angle_alpha  90.384331
_cell_angle_beta   111.87465
_cell_angle_gamma 89.793515
loop_
_atom_site_label
_atom_site_type_symbol
_atom_site_fract_x
_atom_site_fract_y
_atom_site_fract_z
_atom_type_partial_charge
Zn0 Zn 0.81254 0.0015 0.91905 0.0
Zn1 Zn 0.11997 0.92899 0.03303 0.0
Zn2 Zn 0.98354 0.9945 0.97675 0.0
C3 C 0.16303 0.11035 0.02829 0.0
C4 C 0.11196 0.85902 0.9446 0.0
O5 O 0.91648 0.88236 -0.0012 0.0
O6 O 0.76643 0.88303 0.93303 0.0
C7 C 0.85778 0.15261 0.98899 0.0
O8 O 0.06802 0.10875 0.02248 0.0
O9 O 0.20632 0.03728 0.02693 0.0
O10 O 0.10898 0.82366 0.98668 0.0
O11 O 0.0808 0.93945 0.93429 0.0
O12 O 0.78518 0.10598 0.95789 0.0
O13 O 0.95056 0.12555 0.00217 0.0
O14 O 1.00231 0.00896 0.90043 0.0
O15 O 0.83896 0.0272 0.85197 0.0
C16 C 0.93068 0.02708 0.85526 0.0
O17 O 1.0193 0.05931 0.05677 0.0
O18 O 0.0707 0.92995 0.09417 0.0
C19 C 0.82915 0.84729 0.97499 0.0
C20 C 0.04046 0.00758 0.0976 0.0
Zn21 Zn 0.8366 0.49523 0.58942 0.0
Zn22 Zn 0.53238 0.41798 0.46447 0.0
Zn23 Zn 0.66669 0.48235 0.52509 0.0
C24 C 0.62533 0.49636 0.4065 0.0
C25 C 0.48917 0.59999 0.46954 0.0
O26 O 0.63725 0.49023 0.5983 0.0
O27 O 0.79572 0.5177 0.65311 0.0
C28 C 0.82884 0.34079 0.531 0.0
O29 O 0.63979 0.54818 0.44707 0.0
O30 O 0.59486 0.41845 0.40817 0.0
O31 O 0.4436 0.52725 0.46762 0.0
O32 O 0.58587 0.59759 0.47912 0.0
O33 O 0.88744 0.37797 0.57388 0.0
O34 O 0.74059 0.3729 0.5056 0.0
O35 O 0.70076 0.61463 0.50244 0.0
O36 O 0.8645 0.60168 0.55337 0.0
C37 C 0.79257 0.64515 0.5195 0.0
O38 O 0.56036 0.42716 0.56144 0.0
O39 O 0.52965 0.31207 0.50734 0.0
C40 C 0.70206 0.51028 0.6452 0.0
C41 C 0.52445 0.34841 0.54898 0.0
H42 H 0.21377 0.93827 0.4714 0.0
H43 H 0.25133 0.90559 0.31933 0.0
H44 H 0.03682 0.09525 0.33486 0.0
N45 N 0.07623 0.06602 0.43943 0.0
N46 N 0.98886 0.09844 0.41956 0.0
C47 C 0.19437 0.95632 0.42952 0.0
C48 C 0.24146 0.91322 0.39809 0.0
C49 C 0.12038 0.02142 0.40679 0.0
C50 C 0.09374 0.04456 0.35252 0.0
C51 C 0.14231 0.00453 0.32126 0.0
C52 C 0.21672 0.93925 0.34423 0.0
H53 H 0.07198 0.99642 0.53316 0.0
H54 H 0.88501 0.96006 0.62656 0.0
H55 H 0.13872 0.13911 0.68216 0.0
N56 N 0.19795 0.11214 0.59793 0.0
N57 N 0.24083 0.1805 0.6221 0.0
C58 C 0.0524 0.01312 0.5676 0.0
C59 C 0.96681 0.97433 0.5734 0.0
C60 C 0.11348 0.0736 0.60611 0.0
C61 C 0.09065 0.0938 0.65183 0.0
C62 C 1.00766 0.05319 0.6592 0.0
C63 C 0.94566 0.99497 0.61945 0.0
H64 H 0.56585 0.50052 0.96898 0.0
H65 H 0.74197 0.446 0.87098 0.0
H66 H 0.48522 0.62061 0.81283 0.0
N67 N 0.43546 0.611 0.9011 0.0
N68 N 0.39257 0.67738 0.8747 0.0
C69 C 0.582 0.51173 0.933 0.0
C70 C 0.6665 0.47033 0.92685 0.0
C71 C 0.51828 0.56839 0.8929 0.0
C72 C 0.53608 0.58004 0.84499 0.0
C73 C 0.61593 0.53466 0.83725 0.0
C74 C 0.68185 0.48204 0.87836 0.0
H75 H 0.45243 0.44098 0.0317 0.0
H76 H 0.41419 0.40596 0.18321 0.0
H77 H 0.63756 0.58829 0.17208 0.0
N78 N 0.59467 0.56419 0.06625 0.0
N79 N 0.68008 0.6 0.08667 0.0
C80 C 0.47306 0.45716 0.07407 0.0
C81 C 0.42394 0.41498 0.10449 0.0
C82 C 0.55003 0.51939 0.09824 0.0
C83 C 0.57815 0.5401 0.15311 0.0
C84 C 0.52784 0.50089 0.1834 0.0
C85 C 0.45022 0.43886 0.159 0.0
C86 C 0.3168 0.19826 0.03555 0.0
C87 C 0.22443 0.19204 0.04381 0.0
H88 H 0.45127 0.27417 0.04763 0.0
C89 C 0.19467 0.26231 0.06938 0.0
H90 H 0.34147 0.14523 0.01578 0.0
C91 C 0.25831 0.3359 0.08822 0.0
C92 C 0.35172 0.34119 0.08083 0.0
H93 H 0.12405 0.25906 0.07649 0.0
H94 H 0.23509 0.38825 0.10906 0.0
C95 C 0.37934 0.27231 0.05346 0.0
C96 C 0.22092 0.85514 0.88841 0.0
C97 C 0.16655 0.81058 0.91513 0.0
H98 H 0.33627 0.84548 0.85395 0.0
C99 C 0.17965 0.71868 0.9224 0.0
H100 H 0.2148 0.92589 0.88356 0.0
C101 C 0.25137 0.67369 0.90741 0.0
C102 C 0.31033 0.71938 0.88384 0.0
H103 H 0.1385 0.68214 0.9426 0.0
H104 H 0.26305 0.60377 0.91585 0.0
C105 C 0.29149 0.80944 0.87227 0.0
C106 C 0.69179 0.74836 0.97876 0.0
C107 C 0.79508 0.77331 -0.00022 0.0
H108 H 0.57309 0.67711 0.99178 0.0
C109 C 0.86109 0.73458 0.04793 0.0
H110 H 0.63844 0.7775 0.94211 0.0
C111 C 0.82324 0.6746 0.07551 0.0
C112 C 0.71946 0.65273 0.05538 0.0
H113 H 0.94092 0.75295 0.06529 0.0
H114 H 0.87417 0.64723 0.11338 0.0
C115 C 0.65418 0.68997 0.0068 0.0
C116 C 0.73379 0.25719 0.00186 0.0
C117 C 0.83147 0.24275 0.00062 0.0
H118 H 0.60371 0.34232 0.97927 0.0
C119 C 0.88523 0.3147 0.9917 0.0
H120 H 0.69121 0.2028 0.00935 0.0
C121 C 0.83497 0.39529 0.97461 0.0
C122 C 0.73055 0.40426 0.96603 0.0
H123 H 0.96066 0.30558 0.99069 0.0
H124 H 0.87426 0.44701 0.96221 0.0
C125 C 0.68343 0.33739 0.98453 0.0
C126 C 0.91592 0.75071 0.50813 0.0
C127 C 0.81723 0.73498 0.50734 0.0
H128 H 0.04157 0.84002 0.52976 0.0
C129 C 0.75847 0.8067 0.51249 0.0
H130 H 0.96243 0.69637 0.5037 0.0
C131 C 0.80379 0.8899 0.5271 0.0
C132 C 0.90847 0.90169 0.53724 0.0
H133 H 0.68232 0.79642 0.51214 0.0
H134 H 0.76004 0.94232 0.5361 0.0
C135 C 0.9614 0.83339 0.52308 0.0
C136 C 0.80293 0.22126 0.46188 0.0
C137 C 0.8684 0.26898 0.50671 0.0
H138 H 0.79212 0.12779 0.399 0.0
C139 C 0.97427 0.25531 0.52413 0.0
H140 H 0.72106 0.23109 0.44728 0.0
C141 C 1.01403 0.19832 0.4958 0.0
C142 C 0.94881 0.15128 0.45087 0.0
H143 H 0.027 0.29219 0.55786 0.0
H144 H 0.09593 0.19369 0.50761 0.0
C145 C 0.84315 0.16269 0.4342 0.0
C146 C 0.4168 0.35062 0.60587 0.0
C147 C 0.4659 0.30314 0.57705 0.0
H148 H 0.3063 0.34648 0.64369 0.0
C149 C 0.44702 0.21205 0.56841 0.0
H150 H 0.42864 0.42106 0.6124 0.0
C151 C 0.37596 0.17043 0.58504 0.0
C152 C 0.32291 0.21883 0.61133 0.0
H153 H 0.48396 0.17342 0.54656 0.0
H154 H 0.36027 0.10099 0.57582 0.0
C155 C 0.34655 0.30831 0.6234 0.0
C156 C 0.33662 0.6911 0.46133 0.0
C157 C 0.43 0.68281 0.45429 0.0
H158 H 0.20488 0.77114 0.4498 0.0
C159 C 0.46379 0.75276 0.43086 0.0
H160 H 0.30891 0.63828 0.47941 0.0
C161 C 0.40356 0.82856 0.41331 0.0
C162 C 0.30955 0.83633 0.41988 0.0
H163 H 0.53513 0.74773 0.42457 0.0
H164 H 0.43002 0.88085 0.39428 0.0
C165 C 0.27747 0.76735 0.44475 0.0
C166 C 0.15614 0.0577 0.18652 0.0
C167 C 0.05569 0.03957 0.15164 0.0
H168 H 0.26297 0.05924 0.26841 0.0
C169 C 0.98099 0.02234 0.17306 0.0
H170 H 0.21523 0.06885 0.17049 0.0
C171 C 1.00811 0.01704 0.22891 0.0
C172 C 0.11065 0.02682 0.26362 0.0
H173 H 0.90389 0.00548 0.14666 0.0
H174 H 0.95062 -0.00155 0.2447 0.0
C175 C 0.18372 0.05068 0.24223 0.0
C176 C 0.05302 0.04952 0.80812 0.0
C177 C 0.95248 0.04491 0.80628 0.0
H178 H 0.14998 0.05503 0.76272 0.0
C179 C 0.87127 0.05663 0.75656 0.0
H180 H 0.11694 0.04511 0.84614 0.0
C181 C 0.88993 0.06618 0.70924 0.0
C182 C 0.9901 0.06287 0.71035 0.0
H183 H 0.79274 0.05593 0.75376 0.0
H184 H 0.82548 0.07251 0.67138 0.0
C185 C 0.07181 0.05747 0.76047 0.0
C186 C 0.6242 0.44963 0.70666 0.0
C187 C 0.66961 0.52057 0.69083 0.0
H188 H 0.57089 0.39947 0.76626 0.0
C189 C 0.69129 0.5989 0.72141 0.0
H190 H 0.61027 0.38788 0.68444 0.0
C191 C 0.66862 0.60579 0.76794 0.0
C192 C 0.62586 0.53375 0.78453 0.0
H193 H 0.72732 0.65395 0.70978 0.0
H194 H 0.68812 0.66565 0.79207 0.0
C195 C 0.6026 0.45608 0.75338 0.0
C196 C 0.68755 0.50216 0.33195 0.0
C197 C 0.61552 0.52883 0.35357 0.0
H198 H 0.71559 0.47363 0.25994 0.0
C199 C 0.51899 0.55812 0.31907 0.0
H200 H 0.76122 0.47678 0.358 0.0
C201 C 0.49148 0.55302 0.26321 0.0
C202 C 0.56113 0.52031 0.24152 0.0
H203 H 0.4616 0.57654 0.33518 0.0
H204 H 0.41438 0.57017 0.23703 0.0
C205 C 0.66092 0.4991 0.27609 0.0
loop_
_geom_bond_atom_site_label_1
_geom_bond_atom_site_label_2
_geom_bond_distance
_geom_bond_site_symmetry_2
_ccdc_geom_bond_type
Zn0 O6 1.920 1_545 S
Zn0 O12 1.898 . S
Zn0 O15 1.905 1_545 S
Zn1 O9 1.905 . S
Zn1 O10 1.898 1_545 S
Zn1 O18 1.920 1_545 S
Zn2 O5 2.080 1_444 S
Zn2 O8 2.114 . S
Zn2 O11 2.120 1_545 S
Zn2 O13 2.120 1_455 S
Zn2 O14 2.114 1_554 S
Zn2 O17 2.080 . S
C3 O8 1.166 . S
C3 O9 1.182 . S
C4 O10 1.167 . S
C4 O11 1.299 . S
O5 Zn2 2.080 1_666 S
O5 C19 1.305 . S
O6 Zn0 1.920 1_565 S
O6 C19 1.234 . S
C7 O12 1.167 . S
C7 O13 1.299 1_556 S
O8 Zn2 2.114 . S
O8 C3 1.166 . S
O9 Zn1 1.905 . S
O9 C3 1.182 . S
O10 Zn1 1.898 1_565 S
O10 C4 1.167 . S
O11 Zn2 2.120 1_565 S
O11 C4 1.299 . S
O12 Zn0 1.898 . S
O12 C7 1.167 . S
O13 Zn2 2.120 1_655 S
O13 C7 1.299 1_554 S
O14 Zn2 2.114 1_556 S
O14 C16 1.166 1_445 S
O15 Zn0 1.905 1_565 S
O15 C16 1.182 . S
C16 O14 1.166 1_665 S
C16 O15 1.182 . S
O17 Zn2 2.080 . S
O17 C20 1.305 1_545 S
O18 Zn1 1.920 1_565 S
O18 C20 1.234 . S
C19 O5 1.305 . S
C19 O6 1.234 . S
C20 O17 1.305 1_565 S
C20 O18 1.234 . S
Zn21 O27 1.920 . S
Zn21 O33 1.898 . S
Zn21 O36 1.905 . S
Zn22 O30 1.905 . S
Zn22 O31 1.898 . S
Zn22 O39 1.920 . S
Zn23 O26 2.080 . S
Zn23 O29 2.114 . S
Zn23 O32 2.120 . S
Zn23 O34 2.120 . S
Zn23 O35 2.114 . S
Zn23 O38 2.080 . S
C24 O29 1.166 . S
C24 O30 1.182 . S
C25 O31 1.167 . S
C25 O32 1.299 . S
O26 Zn23 2.080 . S
O26 C40 1.305 . S
O27 Zn21 1.920 . S
O27 C40 1.234 . S
C28 O33 1.167 . S
C28 O34 1.299 . S
O29 Zn23 2.114 . S
O29 C24 1.166 . S
O30 Zn22 1.905 . S
O30 C24 1.182 . S
O31 Zn22 1.898 . S
O31 C25 1.167 . S
O32 Zn23 2.120 . S
O32 C25 1.299 . S
O33 Zn21 1.898 . S
O33 C28 1.167 . S
O34 Zn23 2.120 . S
O34 C28 1.299 . S
O35 Zn23 2.114 . S
O35 C37 1.166 . S
O36 Zn21 1.905 . S
O36 C37 1.182 . S
C37 O35 1.166 . S
C37 O36 1.182 . S
O38 Zn23 2.080 . S
O38 C41 1.305 . S
O39 Zn22 1.920 . S
O39 C41 1.234 . S
C40 O26 1.305 . S
C40 O27 1.234 . S
C41 O38 1.305 . S
C41 O39 1.234 . S
H42 C47 0.929 . S
H43 C52 0.931 . S
H44 C50 0.930 . S
N45 N46 1.234 1_455 S
N45 C49 1.453 . S
N46 N45 1.234 1_655 S
C47 H42 0.929 . S
C47 C48 1.373 . S
C47 C49 1.368 1_565 S
C48 C47 1.373 . S
C48 C52 1.397 . S
C49 N45 1.453 . S
C49 C47 1.368 1_545 S
C49 C50 1.373 . S
C50 H44 0.930 . S
C50 C49 1.373 . S
C50 C51 1.371 . S
C51 C50 1.371 . S
C51 C52 1.383 1_545 S
C52 H43 0.931 . S
C52 C48 1.397 . S
C52 C51 1.383 1_565 S
H53 C58 0.929 . S
H54 C63 0.931 . S
H55 C61 0.930 . S
N56 N57 1.234 . S
N56 C60 1.453 . S
N57 N56 1.234 . S
C58 H53 0.929 . S
C58 C59 1.373 . S
C58 C60 1.368 1_665 S
C59 C58 1.373 . S
C59 C63 1.397 . S
C60 N56 1.453 . S
C60 C58 1.368 1_445 S
C60 C61 1.373 . S
C61 H55 0.930 . S
C61 C60 1.373 . S
C61 C62 1.371 1_455 S
C62 C61 1.371 1_655 S
C62 C63 1.383 1_545 S
C63 H54 0.931 . S
C63 C59 1.397 . S
C63 C62 1.383 1_565 S
H64 C69 0.929 . S
H65 C74 0.931 . S
H66 C72 0.930 . S
N67 N68 1.234 . S
N67 C71 1.453 . S
N68 N67 1.234 . S
C69 H64 0.929 . S
C69 C70 1.373 . S
C69 C71 1.368 . S
C70 C69 1.373 . S
C70 C74 1.397 . S
C71 N67 1.453 . S
C71 C69 1.368 . S
C71 C72 1.373 . S
C72 H66 0.930 . S
C72 C71 1.373 . S
C72 C73 1.371 . S
C73 C72 1.371 . S
C73 C74 1.383 . S
C74 H65 0.931 . S
C74 C70 1.397 . S
C74 C73 1.383 . S
H75 C80 0.929 . S
H76 C85 0.931 . S
H77 C83 0.930 . S
N78 N79 1.234 . S
N78 C82 1.453 . S
N79 N78 1.234 . S
C80 H75 0.929 . S
C80 C81 1.373 . S
C80 C82 1.368 . S
C81 C80 1.373 . S
C81 C85 1.397 . S
C82 N78 1.453 . S
C82 C80 1.368 . S
C82 C83 1.373 . S
C83 H77 0.930 . S
C83 C82 1.373 . S
C83 C84 1.371 . S
C84 C83 1.371 . S
C84 C85 1.383 . S
C85 H76 0.931 . S
C85 C81 1.397 . S
C85 C84 1.383 . S
C86 C87 1.387 . S
C86 H90 0.950 . S
C86 C95 1.390 . S
C87 C86 1.387 . S
C87 C89 1.387 1_554 S
H88 C95 0.950 . S
C89 C87 1.387 1_556 S
C89 C91 1.390 1_556 S
C89 H93 0.950 . S
H90 C86 0.950 . S
C91 C89 1.390 1_554 S
C91 C92 1.387 . S
C91 H94 0.950 1_554 S
C92 C91 1.387 . S
C92 C95 1.387 . S
H93 C89 0.950 . S
H94 C91 0.950 1_556 S
C95 C86 1.390 . S
C95 H88 0.950 . S
C95 C92 1.387 . S
C96 C97 1.387 . S
C96 H100 0.950 . S
C96 C105 1.390 . S
C97 C96 1.387 . S
C97 C99 1.387 1_556 S
H98 C105 0.950 . S
C99 C97 1.387 1_554 S
C99 C101 1.390 . S
C99 H103 0.950 . S
H100 C96 0.950 . S
C101 C99 1.390 . S
C101 C102 1.387 1_554 S
C101 H104 0.950 . S
C102 C101 1.387 1_556 S
C102 C105 1.387 . S
H103 C99 0.950 . S
H104 C101 0.950 . S
C105 C96 1.390 . S
C105 H98 0.950 . S
C105 C102 1.387 . S
C106 C107 1.387 1_556 S
C106 H110 0.950 . S
C106 C115 1.390 . S
C107 C106 1.387 1_554 S
C107 C109 1.387 . S
H108 C115 0.950 . S
C109 C107 1.387 . S
C109 C111 1.390 . S
C109 H113 0.950 . S
H110 C106 0.950 . S
C111 C109 1.390 . S
C111 C112 1.387 . S
C111 H114 0.950 . S
C112 C111 1.387 . S
C112 C115 1.387 1_554 S
H113 C109 0.950 . S
H114 C111 0.950 . S
C115 C106 1.390 . S
C115 H108 0.950 . S
C115 C112 1.387 1_556 S
C116 C117 1.387 1_554 S
C116 H120 0.950 . S
C116 C125 1.390 . S
C117 C116 1.387 1_556 S
C117 C119 1.387 . S
H118 C125 0.950 . S
C119 C117 1.387 . S
C119 C121 1.390 . S
C119 H123 0.950 . S
H120 C116 0.950 . S
C121 C119 1.390 . S
C121 C122 1.387 . S
C121 H124 0.950 . S
C122 C121 1.387 . S
C122 C125 1.387 1_556 S
H123 C119 0.950 . S
H124 C121 0.950 . S
C125 C116 1.390 . S
C125 H118 0.950 . S
C125 C122 1.387 1_554 S
C126 C127 1.387 . S
C126 H130 0.950 . S
C126 C135 1.390 . S
C127 C126 1.387 . S
C127 C129 1.387 . S
H128 C135 0.950 . S
C129 C127 1.387 . S
C129 C131 1.390 . S
C129 H133 0.950 . S
H130 C126 0.950 . S
C131 C129 1.390 . S
C131 C132 1.387 . S
C131 H134 0.950 . S
C132 C131 1.387 . S
C132 C135 1.387 . S
H133 C129 0.950 . S
H134 C131 0.950 . S
C135 C126 1.390 . S
C135 H128 0.950 . S
C135 C132 1.387 . S
C136 C137 1.387 . S
C136 H140 0.950 . S
C136 C145 1.390 . S
C137 C136 1.387 . S
C137 C139 1.387 . S
H138 C145 0.950 . S
C139 C137 1.387 . S
C139 C141 1.390 . S
C139 H143 0.950 . S
H140 C136 0.950 . S
C141 C139 1.390 . S
C141 C142 1.387 . S
C141 H144 0.950 . S
C142 C141 1.387 . S
C142 C145 1.387 . S
H143 C139 0.950 . S
H144 C141 0.950 . S
C145 C136 1.390 . S
C145 H138 0.950 . S
C145 C142 1.387 . S
C146 C147 1.387 . S
C146 H150 0.950 . S
C146 C155 1.390 . S
C147 C146 1.387 . S
C147 C149 1.387 . S
H148 C155 0.950 . S
C149 C147 1.387 . S
C149 C151 1.390 . S
C149 H153 0.950 . S
H150 C146 0.950 . S
C151 C149 1.390 . S
C151 C152 1.387 . S
C151 H154 0.950 . S
C152 C151 1.387 . S
C152 C155 1.387 . S
H153 C149 0.950 . S
H154 C151 0.950 . S
C155 C146 1.390 . S
C155 H148 0.950 . S
C155 C152 1.387 . S
C156 C157 1.387 . S
C156 H160 0.950 . S
C156 C165 1.390 . S
C157 C156 1.387 . S
C157 C159 1.387 . S
H158 C165 0.950 . S
C159 C157 1.387 . S
C159 C161 1.390 . S
C159 H163 0.950 . S
H160 C156 0.950 . S
C161 C159 1.390 . S
C161 C162 1.387 . S
C161 H164 0.950 . S
C162 C161 1.387 . S
C162 C165 1.387 . S
H163 C159 0.950 . S
H164 C161 0.950 . S
C165 C156 1.390 . S
C165 H158 0.950 . S
C165 C162 1.387 . S
C166 C167 1.387 1_545 S
C166 H170 0.950 . S
C166 C175 1.390 . S
C167 C166 1.387 1_565 S
C167 C169 1.387 . S
H168 C175 0.950 . S
C169 C167 1.387 . S
C169 C171 1.390 . S
C169 H173 0.950 . S
H170 C166 0.950 . S
C171 C169 1.390 . S
C171 C172 1.387 1_565 S
C171 H174 0.950 . S
C172 C171 1.387 1_545 S
C172 C175 1.387 . S
H173 C169 0.950 . S
H174 C171 0.950 . S
C175 C166 1.390 . S
C175 H168 0.950 . S
C175 C172 1.387 . S
C176 C177 1.387 . S
C176 H180 0.950 . S
C176 C185 1.390 1_565 S
C177 C176 1.387 . S
C177 C179 1.387 1_455 S
H178 C185 0.950 . S
C179 C177 1.387 1_655 S
C179 C181 1.390 . S
C179 H183 0.950 . S
H180 C176 0.950 . S
C181 C179 1.390 . S
C181 C182 1.387 1_565 S
C181 H184 0.950 . S
C182 C181 1.387 1_545 S
C182 C185 1.387 1_655 S
H183 C179 0.950 . S
H184 C181 0.950 . S
C185 C176 1.390 1_545 S
C185 H178 0.950 . S
C185 C182 1.387 1_455 S
C186 C187 1.387 . S
C186 H190 0.950 . S
C186 C195 1.390 . S
C187 C186 1.387 . S
C187 C189 1.387 . S
H188 C195 0.950 . S
C189 C187 1.387 . S
C189 C191 1.390 . S
C189 H193 0.950 . S
H190 C186 0.950 . S
C191 C189 1.390 . S
C191 C192 1.387 . S
C191 H194 0.950 . S
C192 C191 1.387 . S
C192 C195 1.387 . S
H193 C189 0.950 . S
H194 C191 0.950 . S
C195 C186 1.390 . S
C195 H188 0.950 . S
C195 C192 1.387 . S
C196 C197 1.387 . S
C196 H200 0.950 . S
C196 C205 1.390 . S
C197 C196 1.387 . S
C197 C199 1.387 . S
H198 C205 0.950 . S
C199 C197 1.387 . S
C199 C201 1.390 . S
C199 H203 0.950 . S
H200 C196 0.950 . S
C201 C199 1.390 . S
C201 C202 1.387 . S
C201 H204 0.950 . S
C202 C201 1.387 . S
C202 C205 1.387 . S
H203 C199 0.950 . S
H204 C201 0.950 . S
C205 C196 1.390 . S
C205 H198 0.950 . S
C205 C202 1.387 . S
C92 C81 1.378 . S
C87 C3 1.268 . S
C97 C4 1.431 1_556 S
C102 N68 1.511 . S
C107 C19 1.450 1_554 S
C112 N79 1.525 . S
C117 C7 1.263 . S
C122 C70 1.382 . S
C127 C37 1.263 . S
C132 C59 1.378 . S
C137 C28 1.432 . S
C142 N46 1.511 . S
C152 N57 1.525 . S
C147 C41 1.453 . S
C162 C48 1.381 . S
C157 C25 1.267 . S
C167 C20 1.368 . S
C172 C51 1.511 . S
C177 C16 1.407 1_455 S
C182 C62 1.544 . S
C192 C73 1.509 . S
C187 C40 1.370 . S
C197 C24 1.409 . S
C202 C84 1.544 . S
