# Generated by pormake.
# Topology anh, (6,3)-cn, num edge types: 1
# Building blocks:
#     Node 0, Type 0, BuildingBlock: BETDEL_clean_sbu_0, # of connection points: 6
#     Node 1, Type 0, BuildingBlock: BETDEL_clean_sbu_0, # of connection points: 6
#     Node 2, Type 0, BuildingBlock: BETDEL_clean_sbu_0, # of connection points: 6
#     Node 3, Type 1, BuildingBlock: CUQRIR_clean_linker_1, # of connection points: 3
#     Node 4, Type 1, BuildingBlock: CUQRIR_clean_linker_1, # of connection points: 3
#     Node 5, Type 1, BuildingBlock: CUQRIR_clean_linker_1, # of connection points: 3
#     Node 6, Type 1, BuildingBlock: CUQRIR_clean_linker_1, # of connection points: 3
#     Node 7, Type 1, BuildingBlock: CUQRIR_clean_linker_1, # of connection points: 3
#     Node 8, Type 1, BuildingBlock: CUQRIR_clean_linker_1, # of connection points: 3
#     Edge 9, Type (0, 1), BuildingBlock: EYOCIG_clean_linker_4, # of connection points: 2
#     Edge 10, Type (0, 1), BuildingBlock: EYOCIG_clean_linker_4, # of connection points: 2
#     Edge 11, Type (0, 1), BuildingBlock: EYOCIG_clean_linker_4, # of connection points: 2
#     Edge 12, Type (0, 1), BuildingBlock: EYOCIG_clean_linker_4, # of connection points: 2
#     Edge 13, Type (0, 1), BuildingBlock: EYOCIG_clean_linker_4, # of connection points: 2
#     Edge 14, Type (0, 1), BuildingBlock: EYOCIG_clean_linker_4, # of connection points: 2
#     Edge 15, Type (0, 1), BuildingBlock: EYOCIG_clean_linker_4, # of connection points: 2
#     Edge 16, Type (0, 1), BuildingBlock: EYOCIG_clean_linker_4, # of connection points: 2
#     Edge 17, Type (0, 1), BuildingBlock: EYOCIG_clean_linker_4, # of connection points: 2
#     Edge 18, Type (0, 1), BuildingBlock: EYOCIG_clean_linker_4, # of connection points: 2
#     Edge 19, Type (0, 1), BuildingBlock: EYOCIG_clean_linker_4, # of connection points: 2
#     Edge 20, Type (0, 1), BuildingBlock: EYOCIG_clean_linker_4, # of connection points: 2
#     Edge 21, Type (0, 1), BuildingBlock: EYOCIG_clean_linker_4, # of connection points: 2
#     Edge 22, Type (0, 1), BuildingBlock: EYOCIG_clean_linker_4, # of connection points: 2
#     Edge 23, Type (0, 1), BuildingBlock: EYOCIG_clean_linker_4, # of connection points: 2
#     Edge 24, Type (0, 1), BuildingBlock: EYOCIG_clean_linker_4, # of connection points: 2
#     Edge 25, Type (0, 1), BuildingBlock: EYOCIG_clean_linker_4, # of connection points: 2
#     Edge 26, Type (0, 1), BuildingBlock: EYOCIG_clean_linker_4, # of connection points: 2
# Relax obj value: 0.142
# Max RMSD: 0.202
# Mean RMSD: 0.139
data_MOF--net-anh--node1-BETDEL_clean_sbu_0--node2-CUQRIR_clean_linker_1--edge1-EYOCIG_clean_linker_4
_symmetry_space_group_name_H-M    P1
_symmetry_Int_Tables_number       1
_symmetry_cell_setting            triclinic
loop_
_symmetry_equiv_pos_as_xyz
'x, y, z'
_cell_length_a     21.499055
_cell_length_b     21.661308
_cell_length_c     34.096806
_cell_angle_alpha  86.068251
_cell_angle_beta   88.067387
_cell_angle_gamma 119.87909
loop_
_atom_site_label
_atom_site_type_symbol
_atom_site_fract_x
_atom_site_fract_y
_atom_site_fract_z
_atom_type_partial_charge
Dy0 Dy 0.07247 0.46688 0.17995 0.0
C1 C 0.8746 0.56375 0.18473 0.0
C2 C 0.17734 0.43865 0.16892 0.0
Dy3 Dy 0.98382 0.54381 0.16676 0.0
O4 O 0.127 0.40737 0.19728 0.0
O5 O 0.16327 0.47611 0.14328 0.0
O6 O 0.0714 0.46177 0.24649 0.0
O7 O 1.0221 0.50871 0.21511 0.0
C8 C 0.03477 0.49419 0.24905 0.0
C9 C 0.02836 0.52389 0.09607 0.0
O10 O 0.09023 0.64241 0.17691 0.0
O11 O 0.15894 0.58612 0.1778 0.0
O12 O 0.92097 0.59705 0.1545 0.0
O13 O 0.89274 0.52579 0.20717 0.0
O14 O 0.99122 0.55576 0.09986 0.0
O15 O 0.03715 0.50439 0.13018 0.0
O16 O 0.96349 0.36705 0.17683 0.0
O17 O 0.8966 0.42484 0.17329 0.0
C18 C 0.15363 0.64509 0.17815 0.0
C19 C 0.90046 0.36508 0.17679 0.0
Dy20 Dy 0.50594 0.02327 0.51388 0.0
C21 C 0.80271 0.21145 0.51718 0.0
C22 C 0.37534 0.91909 0.50648 0.0
Dy23 Dy 0.67368 0.11248 0.49912 0.0
O24 O 0.39136 0.96027 0.53468 0.0
O25 O 0.4283 0.93951 0.48009 0.0
O26 O 0.49883 0.01618 0.58076 0.0
O27 O 0.59565 0.06308 0.54719 0.0
C28 C 0.56805 0.04807 0.58177 0.0
C29 C 0.61684 0.08848 0.42912 0.0
O30 O 0.6634 1.00281 0.51126 0.0
O31 O 0.53781 0.93631 0.51585 0.0
O32 O 0.79072 0.17954 0.4851 0.0
O33 O 0.74558 0.18215 0.54123 0.0
O34 O 0.68556 0.1227 0.43281 0.0
O35 O 0.5835 0.06905 0.46301 0.0
O36 O 0.51522 0.13279 0.50484 0.0
O37 O 0.64076 0.19906 0.50192 0.0
C38 C 0.60183 0.94011 0.51554 0.0
C39 C 0.57657 0.19541 0.50341 0.0
Dy40 Dy 0.63211 0.7043 0.84083 0.0
C41 C 0.53726 0.41679 0.86364 0.0
C42 C 0.66631 0.83741 0.82257 0.0
Dy43 Dy 0.55781 0.54219 0.83508 0.0
O44 O 0.6862 0.81682 0.85379 0.0
O45 O 0.63298 0.78693 0.80006 0.0
O46 O 0.63741 0.70593 0.90708 0.0
O47 O 0.58885 0.61187 0.88017 0.0
C48 C 0.60512 0.63679 0.91276 0.0
C49 C 0.58845 0.60526 0.76126 0.0
O50 O 0.45584 0.54691 0.84806 0.0
O51 O 0.51201 0.67112 0.84673 0.0
O52 O 0.51245 0.42663 0.83095 0.0
O53 O 0.56806 0.47375 0.88171 0.0
O54 O 0.55544 0.53645 0.76981 0.0
O55 O 0.60233 0.63631 0.79273 0.0
O56 O 0.73407 0.69815 0.83193 0.0
O57 O 0.67674 0.57417 0.83331 0.0
C58 C 0.4525 0.60655 0.84993 0.0
C59 C 0.7364 0.63776 0.8323 0.0
C60 C 0.52883 1.00812 0.18239 0.0
N61 N 0.57415 0.05234 0.20835 0.0
N62 N 0.46741 0.95177 0.20173 0.0
C63 C 0.54395 0.02006 0.13846 0.0
C64 C 0.47745 0.96357 0.24 0.0
N65 N 0.54095 0.02346 0.2441 0.0
C66 C 0.42479 0.91454 0.27359 0.0
H67 H 0.51652 0.04794 0.12595 0.0
H68 H 0.52225 0.96804 0.12576 0.0
H69 H 0.60255 0.05368 0.1301 0.0
H70 H 0.42657 0.8641 0.27646 0.0
H71 H 0.36933 0.90057 0.267 0.0
H72 H 0.43669 0.93845 0.30203 0.0
C73 C 0.58346 0.56752 0.5133 0.0
N74 N 0.58734 0.61511 0.53925 0.0
N75 N 0.57932 0.50741 0.53255 0.0
C76 C 0.58327 0.57932 0.4695 0.0
C77 C 0.58041 0.52062 0.57088 0.0
N78 N 0.58586 0.58511 0.57492 0.0
C79 C 0.57683 0.46984 0.60445 0.0
H80 H 0.52685 0.55067 0.46129 0.0
H81 H 0.61311 0.55713 0.45426 0.0
H82 H 0.60721 0.63707 0.45962 0.0
H83 H 0.62904 0.47105 0.6043 0.0
H84 H 0.53462 0.4144 0.60026 0.0
H85 H 0.56531 0.48391 0.63341 0.0
C86 C 0.09026 0.60914 0.84722 0.0
N87 N 0.12782 0.59564 0.87515 0.0
N88 N 0.03029 0.60722 0.864 0.0
C89 C 0.11038 0.62185 0.80369 0.0
C90 C 0.03232 0.59105 0.90273 0.0
N91 N 0.09034 0.58385 0.90959 0.0
C92 C 0.97525 0.58027 0.93375 0.0
H93 H 0.13912 0.68022 0.7947 0.0
H94 H 0.06116 0.59653 0.78738 0.0
H95 H 0.14597 0.6004 0.79576 0.0
H96 H 0.92539 0.52915 0.93035 0.0
H97 H 0.96238 0.6238 0.92928 0.0
H98 H 0.99155 0.57867 0.9641 0.0
C99 C 0.05867 0.5763 0.49081 0.0
N100 N 1.01508 0.54201 0.46298 0.0
N101 N 0.11879 0.63225 0.47355 0.0
C102 C 0.045 0.55327 0.53455 0.0
C103 C 0.11104 0.63202 0.43457 0.0
N104 N 0.04728 0.57574 0.42807 0.0
C105 C 0.16744 0.68408 0.40343 0.0
H106 H 1.01756 0.57916 0.54835 0.0
H107 H 0.09626 0.57036 0.54854 0.0
H108 H 1.01007 0.49451 0.54078 0.0
H109 H 0.21585 0.67832 0.40455 0.0
H110 H 0.18377 0.73948 0.40982 0.0
H111 H 0.14793 0.67551 0.37348 0.0
C112 C 0.5865 0.12042 0.82374 0.0
N113 N 0.58398 0.08085 0.79484 0.0
N114 N 0.58743 0.17902 0.80804 0.0
C115 C 0.59351 0.10507 0.86673 0.0
C116 C 0.58565 0.17436 0.76887 0.0
N117 N 0.58541 0.11451 0.76075 0.0
C118 C 0.58509 0.22821 0.73902 0.0
H119 H 0.53927 0.07751 0.88265 0.0
H120 H 0.62712 0.15557 0.88018 0.0
H121 H 0.61744 0.07022 0.87078 0.0
H122 H 0.63892 0.27723 0.73591 0.0
H123 H 0.54535 0.24313 0.74948 0.0
H124 H 0.57158 0.20698 0.70988 0.0
C125 C 0.54897 0.53832 0.16042 0.0
N126 N 0.58712 0.53509 0.12954 0.0
N127 N 0.49779 0.55044 0.14734 0.0
C128 C 0.55564 0.52088 0.2031 0.0
C129 C 0.50504 0.5535 0.10772 0.0
N130 N 0.56098 0.5454 0.0968 0.0
C131 C 0.45327 0.55741 0.08046 0.0
H132 H 0.52559 0.46188 0.21007 0.0
H133 H 0.5325 0.54425 0.22285 0.0
H134 H 0.6127 0.54086 0.20888 0.0
H135 H 0.45081 0.60661 0.08429 0.0
H136 H 0.39854 0.51105 0.08861 0.0
H137 H 0.46866 0.55724 0.04911 0.0
C138 C 0.30955 0.49885 0.18533 0.0
C139 C 0.24802 0.46906 0.17935 0.0
C140 C 0.38282 0.53018 0.18355 0.0
C141 C 0.43806 0.53956 0.1696 0.0
C142 C 0.8761 0.34715 0.50141 0.0
C143 C 0.84205 0.28592 0.51303 0.0
C144 C 0.91339 0.41504 0.48252 0.0
C145 C 0.95815 0.47306 0.46959 0.0
C146 C 0.62451 0.92803 0.81782 0.0
C147 C 0.6482 0.89006 0.82343 0.0
C148 C 0.59877 0.97229 0.80754 0.0
C149 C 0.59164 0.02176 0.79948 0.0
C150 C 0.74662 0.52211 0.16611 0.0
C151 C 0.80179 0.53682 0.17949 0.0
C152 C 0.69082 0.51552 0.14485 0.0
C153 C 0.64457 0.52397 0.13264 0.0
C154 C 0.28184 0.78555 0.51507 0.0
C155 C 0.32313 0.84735 0.51312 0.0
C156 C 0.22792 0.72032 0.50722 0.0
C157 C 0.17682 0.67886 0.49249 0.0
C158 C 0.57845 0.32474 0.8642 0.0
C159 C 0.56193 0.36852 0.86748 0.0
C160 C 0.59168 0.27627 0.84781 0.0
C161 C 0.58973 0.23199 0.82887 0.0
C162 C 0.60114 0.81339 0.52318 0.0
C163 C 0.60337 0.87183 0.51965 0.0
C164 C 0.59665 0.74335 0.52722 0.0
C165 C 0.59232 0.68398 0.53159 0.0
C166 C 0.86172 0.63576 0.83528 0.0
C167 C 0.80627 0.63948 0.83386 0.0
C168 C 0.92488 0.62792 0.83982 0.0
C169 C 0.97599 0.61946 0.84775 0.0
C170 C 0.27863 0.77203 0.18052 0.0
C171 C 0.22098 0.71533 0.17943 0.0
C172 C 0.34755 0.83787 0.1828 0.0
C173 C 0.40487 0.89213 0.18823 0.0
C174 C 0.57387 0.32028 0.50726 0.0
C175 C 0.574 0.26312 0.50553 0.0
C176 C 0.57508 0.38814 0.51162 0.0
C177 C 0.5771 0.44476 0.51851 0.0
C178 C 0.32201 0.5989 0.85997 0.0
C179 C 0.38083 0.60157 0.85542 0.0
C180 C 0.25295 0.59694 0.86518 0.0
C181 C 0.19517 0.59637 0.86971 0.0
C182 C 0.77326 0.23819 0.18737 0.0
C183 C 0.83187 0.29488 0.18261 0.0
C184 C 0.70304 0.17215 0.19398 0.0
C185 C 0.64348 0.11676 0.20016 0.0
C186 C 0.08559 0.53323 0.02422 0.0
C187 C 0.06345 0.52493 0.05861 0.0
C188 C 0.10288 0.5491 0.98254 0.0
C189 C 0.10474 0.56513 0.94745 0.0
C190 C 0.57879 0.06568 0.35639 0.0
C191 C 0.58768 0.07168 0.39118 0.0
C192 C 0.57483 0.06034 0.31504 0.0
C193 C 0.56525 0.04891 0.28082 0.0
C194 C 0.60207 0.64356 0.68514 0.0
C195 C 0.6008 0.63692 0.72088 0.0
C196 C 0.59788 0.63469 0.64404 0.0
C197 C 0.59263 0.61606 0.61094 0.0
C198 C 0.61535 0.07888 0.65075 0.0
C199 C 0.60384 0.06936 0.61691 0.0
C200 C 0.61068 0.08755 0.69085 0.0
C201 C 0.59899 0.09789 0.72365 0.0
C202 C 0.6044 0.57683 0.98231 0.0
C203 C 0.60211 0.59867 0.94934 0.0
C204 C 0.60197 0.5598 0.02302 0.0
C205 C 0.58861 0.55171 0.05807 0.0
C206 C 1.00587 0.51974 0.3191 0.0
C207 C 1.01495 0.51115 0.28541 0.0
C208 C 1.0098 0.53331 0.35887 0.0
C209 C 1.02434 0.55034 0.39155 0.0
loop_
_geom_bond_atom_site_label_1
_geom_bond_atom_site_label_2
_geom_bond_distance
_geom_bond_site_symmetry_2
_ccdc_geom_bond_type
Dy0 O4 2.398 . S
Dy0 O5 2.491 . S
Dy0 O6 2.403 . S
Dy0 O7 2.664 1_455 S
Dy0 O11 2.326 . S
Dy0 O15 2.310 . S
Dy0 O16 2.351 1_455 S
C1 O12 1.185 . S
C1 O13 1.355 . S
C2 O4 1.185 . S
C2 O5 1.355 . S
Dy3 O7 2.310 . S
Dy3 O10 2.351 1_655 S
Dy3 O12 2.398 . S
Dy3 O13 2.491 . S
Dy3 O14 2.403 . S
Dy3 O15 2.664 1_655 S
Dy3 O17 2.326 . S
O4 Dy0 2.398 . S
O4 C2 1.185 . S
O5 Dy0 2.491 . S
O5 C2 1.355 . S
O6 Dy0 2.403 . S
O6 C8 1.242 1_455 S
O7 Dy0 2.664 1_655 S
O7 Dy3 2.310 . S
O7 C8 1.274 . S
C8 O6 1.242 1_655 S
C8 O7 1.274 . S
C9 O14 1.254 1_455 S
C9 O15 1.268 . S
O10 Dy3 2.351 1_455 S
O10 C18 1.249 . S
O11 Dy0 2.326 . S
O11 C18 1.267 . S
O12 C1 1.185 . S
O12 Dy3 2.398 . S
O13 C1 1.355 . S
O13 Dy3 2.491 . S
O14 Dy3 2.403 . S
O14 C9 1.254 1_655 S
O15 Dy0 2.310 . S
O15 Dy3 2.664 1_455 S
O15 C9 1.268 . S
O16 Dy0 2.351 1_655 S
O16 C19 1.249 . S
O17 Dy3 2.326 . S
O17 C19 1.267 . S
C18 O10 1.249 . S
C18 O11 1.267 . S
C19 O16 1.249 . S
C19 O17 1.267 . S
Dy20 O24 2.398 . S
Dy20 O25 2.491 . S
Dy20 O26 2.403 1_565 S
Dy20 O27 2.664 1_565 S
Dy20 O31 2.326 . S
Dy20 O35 2.310 1_565 S
Dy20 O36 2.351 1_565 S
C21 O32 1.185 . S
C21 O33 1.355 . S
C22 O24 1.185 . S
C22 O25 1.355 . S
Dy23 O27 2.310 . S
Dy23 O30 2.351 1_545 S
Dy23 O32 2.398 . S
Dy23 O33 2.491 . S
Dy23 O34 2.403 . S
Dy23 O35 2.664 . S
Dy23 O37 2.326 . S
O24 Dy20 2.398 . S
O24 C22 1.185 . S
O25 Dy20 2.491 . S
O25 C22 1.355 . S
O26 Dy20 2.403 1_545 S
O26 C28 1.254 . S
O27 Dy20 2.664 1_545 S
O27 Dy23 2.310 . S
O27 C28 1.268 . S
C28 O26 1.254 . S
C28 O27 1.268 . S
C29 O34 1.254 . S
C29 O35 1.268 . S
O30 Dy23 2.351 1_565 S
O30 C38 1.249 . S
O31 Dy20 2.326 . S
O31 C38 1.267 . S
O32 C21 1.185 . S
O32 Dy23 2.398 . S
O33 C21 1.355 . S
O33 Dy23 2.491 . S
O34 Dy23 2.403 . S
O34 C29 1.254 . S
O35 Dy20 2.310 1_545 S
O35 Dy23 2.664 . S
O35 C29 1.268 . S
O36 Dy20 2.351 1_545 S
O36 C39 1.249 . S
O37 Dy23 2.326 . S
O37 C39 1.267 . S
C38 O30 1.249 . S
C38 O31 1.267 . S
C39 O36 1.249 . S
C39 O37 1.267 . S
Dy40 O44 2.398 . S
Dy40 O45 2.491 . S
Dy40 O46 2.403 . S
Dy40 O47 2.664 . S
Dy40 O51 2.326 . S
Dy40 O55 2.310 . S
Dy40 O56 2.351 . S
C41 O52 1.185 . S
C41 O53 1.355 . S
C42 O44 1.185 . S
C42 O45 1.355 . S
Dy43 O47 2.310 . S
Dy43 O50 2.351 . S
Dy43 O52 2.398 . S
Dy43 O53 2.491 . S
Dy43 O54 2.403 . S
Dy43 O55 2.664 . S
Dy43 O57 2.326 . S
O44 Dy40 2.398 . S
O44 C42 1.185 . S
O45 Dy40 2.491 . S
O45 C42 1.355 . S
O46 Dy40 2.403 . S
O46 C48 1.254 . S
O47 Dy40 2.664 . S
O47 Dy43 2.310 . S
O47 C48 1.268 . S
C48 O46 1.254 . S
C48 O47 1.268 . S
C49 O54 1.254 . S
C49 O55 1.268 . S
O50 Dy43 2.351 . S
O50 C58 1.249 . S
O51 Dy40 2.326 . S
O51 C58 1.267 . S
O52 C41 1.185 . S
O52 Dy43 2.398 . S
O53 C41 1.355 . S
O53 Dy43 2.491 . S
O54 Dy43 2.403 . S
O54 C49 1.254 . S
O55 Dy40 2.310 . S
O55 Dy43 2.664 . S
O55 C49 1.268 . S
O56 Dy40 2.351 . S
O56 C59 1.249 . S
O57 Dy43 2.326 . S
O57 C59 1.267 . S
C58 O50 1.249 . S
C58 O51 1.267 . S
C59 O56 1.249 . S
C59 O57 1.267 . S
C60 N61 1.317 1_565 S
C60 N62 1.349 . S
C60 C63 1.485 1_565 S
N61 C60 1.317 1_545 S
N61 N65 1.370 . S
N62 C60 1.349 . S
N62 C64 1.346 . S
C63 C60 1.485 1_545 S
C63 H67 0.960 . S
C63 H68 0.961 1_545 S
C63 H69 0.960 . S
C64 N62 1.346 . S
C64 N65 1.307 1_565 S
C64 C66 1.486 . S
N65 N61 1.370 . S
N65 C64 1.307 1_545 S
C66 C64 1.486 . S
C66 H70 0.960 . S
C66 H71 0.960 . S
C66 H72 0.959 . S
H67 C63 0.960 . S
H68 C63 0.961 1_565 S
H69 C63 0.960 . S
H70 C66 0.960 . S
H71 C66 0.960 . S
H72 C66 0.959 . S
C73 N74 1.317 . S
C73 N75 1.348 . S
C73 C76 1.485 . S
N74 C73 1.317 . S
N74 N78 1.370 . S
N75 C73 1.348 . S
N75 C77 1.346 . S
C76 C73 1.485 . S
C76 H80 0.960 . S
C76 H81 0.961 . S
C76 H82 0.960 . S
C77 N75 1.346 . S
C77 N78 1.307 . S
C77 C79 1.486 . S
N78 N74 1.370 . S
N78 C77 1.307 . S
C79 C77 1.486 . S
C79 H83 0.960 . S
C79 H84 0.960 . S
C79 H85 0.959 . S
H80 C76 0.960 . S
H81 C76 0.961 . S
H82 C76 0.960 . S
H83 C79 0.960 . S
H84 C79 0.960 . S
H85 C79 0.959 . S
C86 N87 1.317 . S
C86 N88 1.348 1_455 S
C86 C89 1.485 . S
N87 C86 1.317 . S
N87 N91 1.370 . S
N88 C86 1.348 1_655 S
N88 C90 1.348 . S
C89 C86 1.485 . S
C89 H93 0.960 . S
C89 H94 0.961 . S
C89 H95 0.960 . S
C90 N88 1.348 . S
C90 N91 1.293 1_655 S
C90 C92 1.496 . S
N91 N87 1.370 . S
N91 C90 1.293 1_455 S
C92 C90 1.496 . S
C92 H96 0.960 . S
C92 H97 0.960 . S
C92 H98 0.959 . S
H93 C89 0.960 . S
H94 C89 0.961 . S
H95 C89 0.960 . S
H96 C92 0.960 . S
H97 C92 0.960 . S
H98 C92 0.959 . S
C99 N100 1.317 1_455 S
C99 N101 1.348 . S
C99 C102 1.485 . S
N100 C99 1.317 1_655 S
N100 N104 1.370 1_655 S
N101 C99 1.348 . S
N101 C103 1.346 . S
C102 C99 1.485 . S
C102 H106 0.960 1_455 S
C102 H107 0.961 . S
C102 H108 0.960 1_455 S
C103 N101 1.346 . S
C103 N104 1.307 . S
C103 C105 1.486 . S
N104 N100 1.370 1_455 S
N104 C103 1.307 . S
C105 C103 1.486 . S
C105 H109 0.960 . S
C105 H110 0.960 . S
C105 H111 0.959 . S
H106 C102 0.960 1_655 S
H107 C102 0.961 . S
H108 C102 0.960 1_655 S
H109 C105 0.960 . S
H110 C105 0.960 . S
H111 C105 0.959 . S
C112 N113 1.317 . S
C112 N114 1.348 . S
C112 C115 1.485 . S
N113 C112 1.317 . S
N113 N117 1.370 . S
N114 C112 1.348 . S
N114 C116 1.346 . S
C115 C112 1.485 . S
C115 H119 0.960 . S
C115 H120 0.961 . S
C115 H121 0.960 . S
C116 N114 1.346 . S
C116 N117 1.307 . S
C116 C118 1.486 . S
N117 N113 1.370 . S
N117 C116 1.307 . S
C118 C116 1.486 . S
C118 H122 0.960 . S
C118 H123 0.960 . S
C118 H124 0.959 . S
H119 C115 0.960 . S
H120 C115 0.961 . S
H121 C115 0.960 . S
H122 C118 0.960 . S
H123 C118 0.960 . S
H124 C118 0.959 . S
C125 N126 1.317 . S
C125 N127 1.348 . S
C125 C128 1.485 . S
N126 C125 1.317 . S
N126 N130 1.370 . S
N127 C125 1.348 . S
N127 C129 1.346 . S
C128 C125 1.485 . S
C128 H132 0.960 . S
C128 H133 0.961 . S
C128 H134 0.960 . S
C129 N127 1.346 . S
C129 N130 1.307 . S
C129 C131 1.486 . S
N130 N126 1.370 . S
N130 C129 1.307 . S
C131 C129 1.486 . S
C131 H135 0.960 . S
C131 H136 0.960 . S
C131 H137 0.959 . S
H132 C128 0.960 . S
H133 C128 0.961 . S
H134 C128 0.960 . S
H135 C131 0.960 . S
H136 C131 0.960 . S
H137 C131 0.959 . S
C138 C139 1.170 . S
C138 C140 1.380 . S
C139 C138 1.170 . S
C140 C138 1.380 . S
C140 C141 1.170 . S
C141 C140 1.170 . S
C142 C143 1.170 . S
C142 C144 1.380 . S
C143 C142 1.170 . S
C144 C142 1.380 . S
C144 C145 1.170 . S
C145 C144 1.170 . S
C146 C147 1.170 . S
C146 C148 1.380 . S
C147 C146 1.170 . S
C148 C146 1.380 . S
C148 C149 1.170 1_565 S
C149 C148 1.170 1_545 S
C150 C151 1.170 . S
C150 C152 1.380 . S
C151 C150 1.170 . S
C152 C150 1.380 . S
C152 C153 1.170 . S
C153 C152 1.170 . S
C154 C155 1.170 . S
C154 C156 1.380 . S
C155 C154 1.170 . S
C156 C154 1.380 . S
C156 C157 1.170 . S
C157 C156 1.170 . S
C158 C159 1.170 . S
C158 C160 1.380 . S
C159 C158 1.170 . S
C160 C158 1.380 . S
C160 C161 1.170 . S
C161 C160 1.170 . S
C162 C163 1.170 . S
C162 C164 1.380 . S
C163 C162 1.170 . S
C164 C162 1.380 . S
C164 C165 1.170 . S
C165 C164 1.170 . S
C166 C167 1.170 . S
C166 C168 1.380 . S
C167 C166 1.170 . S
C168 C166 1.380 . S
C168 C169 1.170 . S
C169 C168 1.170 . S
C170 C171 1.170 . S
C170 C172 1.380 . S
C171 C170 1.170 . S
C172 C170 1.380 . S
C172 C173 1.170 . S
C173 C172 1.170 . S
C174 C175 1.170 . S
C174 C176 1.380 . S
C175 C174 1.170 . S
C176 C174 1.380 . S
C176 C177 1.170 . S
C177 C176 1.170 . S
C178 C179 1.170 . S
C178 C180 1.380 . S
C179 C178 1.170 . S
C180 C178 1.380 . S
C180 C181 1.170 . S
C181 C180 1.170 . S
C182 C183 1.170 . S
C182 C184 1.380 . S
C183 C182 1.170 . S
C184 C182 1.380 . S
C184 C185 1.170 . S
C185 C184 1.170 . S
C186 C187 1.170 . S
C186 C188 1.380 1_554 S
C187 C186 1.170 . S
C188 C186 1.380 1_556 S
C188 C189 1.170 . S
C189 C188 1.170 . S
C190 C191 1.170 . S
C190 C192 1.380 . S
C191 C190 1.170 . S
C192 C190 1.380 . S
C192 C193 1.170 . S
C193 C192 1.170 . S
C194 C195 1.170 . S
C194 C196 1.380 . S
C195 C194 1.170 . S
C196 C194 1.380 . S
C196 C197 1.170 . S
C197 C196 1.170 . S
C198 C199 1.170 . S
C198 C200 1.380 . S
C199 C198 1.170 . S
C200 C198 1.380 . S
C200 C201 1.170 . S
C201 C200 1.170 . S
C202 C203 1.170 . S
C202 C204 1.380 1_556 S
C203 C202 1.170 . S
C204 C202 1.380 1_554 S
C204 C205 1.170 . S
C205 C204 1.170 . S
C206 C207 1.170 . S
C206 C208 1.380 . S
C207 C206 1.170 . S
C208 C206 1.380 . S
C208 C209 1.170 1_655 S
C209 C208 1.170 1_455 S
C139 C2 0.915 . S
C141 N127 0.883 . S
C143 C21 0.956 . S
C145 N100 0.964 . S
C147 C42 0.994 . S
C149 N113 0.998 . S
C151 C1 1.233 . S
C153 N126 1.256 . S
C157 N101 1.179 . S
C155 C22 1.124 . S
C161 N114 1.112 . S
C159 C41 1.059 . S
C163 C38 1.815 . S
C165 N74 1.823 . S
C167 C59 1.752 . S
C169 N88 1.734 . S
C171 C18 1.912 . S
C173 N62 1.927 . S
C177 N75 1.970 . S
C175 C39 1.999 . S
C181 N87 2.111 . S
C179 C58 2.076 . S
C183 C19 1.861 . S
C185 N61 1.868 . S
C189 N91 1.578 . S
C187 C9 1.560 . S
C191 C29 1.564 . S
C193 N65 1.555 . S
C195 C49 1.496 . S
C197 N78 1.601 . S
C201 N117 1.429 . S
C199 C28 1.408 . S
C205 N130 1.460 . S
C203 C48 1.449 . S
C207 C8 1.482 . S
C209 N104 1.485 . S
