# Generated by pormake.
# Topology ssa, (4,4)-cn, num edge types: 1
# Building blocks:
#     Node 0, Type 0, BuildingBlock: IZENUY_clean_linker_0, # of connection points: 4
#     Node 1, Type 0, BuildingBlock: IZENUY_clean_linker_0, # of connection points: 4
#     Node 2, Type 0, BuildingBlock: IZENUY_clean_linker_0, # of connection points: 4
#     Node 3, Type 0, BuildingBlock: IZENUY_clean_linker_0, # of connection points: 4
#     Node 4, Type 0, BuildingBlock: IZENUY_clean_linker_0, # of connection points: 4
#     Node 5, Type 0, BuildingBlock: IZENUY_clean_linker_0, # of connection points: 4
#     Node 6, Type 1, BuildingBlock: ESEHIV_clean_sbu_0, # of connection points: 4
#     Node 7, Type 1, BuildingBlock: ESEHIV_clean_sbu_0, # of connection points: 4
#     Node 8, Type 1, BuildingBlock: ESEHIV_clean_sbu_0, # of connection points: 4
#     Node 9, Type 1, BuildingBlock: ESEHIV_clean_sbu_0, # of connection points: 4
#     Node 10, Type 1, BuildingBlock: ESEHIV_clean_sbu_0, # of connection points: 4
#     Node 11, Type 1, BuildingBlock: ESEHIV_clean_sbu_0, # of connection points: 4
#     Edge 12, Type (0, 1), None
#     Edge 13, Type (0, 1), None
#     Edge 14, Type (0, 1), None
#     Edge 15, Type (0, 1), None
#     Edge 16, Type (0, 1), None
#     Edge 17, Type (0, 1), None
#     Edge 18, Type (0, 1), None
#     Edge 19, Type (0, 1), None
#     Edge 20, Type (0, 1), None
#     Edge 21, Type (0, 1), None
#     Edge 22, Type (0, 1), None
#     Edge 23, Type (0, 1), None
#     Edge 24, Type (0, 1), None
#     Edge 25, Type (0, 1), None
#     Edge 26, Type (0, 1), None
#     Edge 27, Type (0, 1), None
#     Edge 28, Type (0, 1), None
#     Edge 29, Type (0, 1), None
#     Edge 30, Type (0, 1), None
#     Edge 31, Type (0, 1), None
#     Edge 32, Type (0, 1), None
#     Edge 33, Type (0, 1), None
#     Edge 34, Type (0, 1), None
#     Edge 35, Type (0, 1), None
# Relax obj value: 0.032
# Max RMSD: 0.094
# Mean RMSD: 0.063
data_MOF--net-ssa--node1-ESEHIV_clean_sbu_0--node2-IZENUY_clean_linker_0--edge1-none
_symmetry_space_group_name_H-M    P1
_symmetry_Int_Tables_number       1
_symmetry_cell_setting            triclinic
loop_
_symmetry_equiv_pos_as_xyz
'x, y, z'
_cell_length_a     25.869514
_cell_length_b     25.796672
_cell_length_c     19.592048
_cell_angle_alpha  89.716786
_cell_angle_beta   90.118526
_cell_angle_gamma 118.88169
loop_
_atom_site_label
_atom_site_type_symbol
_atom_site_fract_x
_atom_site_fract_y
_atom_site_fract_z
_atom_type_partial_charge
H0 H 1.03015 0.43927 0.99273 0.0
H1 H 0.96324 0.56414 0.98247 0.0
H2 H 0.88266 0.40245 0.86639 0.0
H3 H 0.11754 0.64358 0.08388 0.0
H4 H 0.14519 0.50041 0.15326 0.0
H5 H 0.24126 0.67326 0.24463 0.0
N6 N 0.04666 0.54368 0.03983 0.0
N7 N 0.08075 0.52847 0.06836 0.0
C8 C 0.9992 0.45263 0.97302 0.0
C9 C 0.95728 0.41641 0.92599 0.0
C10 C 1.00194 0.50606 0.99357 0.0
C11 C 0.96098 0.52293 0.96669 0.0
C12 C 0.91706 0.48578 0.91998 0.0
C13 C 0.91637 0.43277 0.90079 0.0
C14 C 0.14079 0.62691 0.11544 0.0
C15 C 0.18085 0.66448 0.16282 0.0
C16 C 0.12681 0.56762 0.11238 0.0
C17 C 0.1569 0.54678 0.15532 0.0
C18 C 0.2002 0.58481 0.20263 0.0
C19 C 0.21143 0.64407 0.20619 0.0
H20 H 0.63396 0.04547 0.61802 0.0
H21 H 0.50441 0.10606 0.61088 0.0
H22 H 0.66384 0.19968 0.72841 0.0
H23 H 0.43284 0.94696 0.51761 0.0
H24 H 0.58302 0.92729 0.46079 0.0
H25 H 0.41538 0.82364 0.36162 0.0
N26 N 0.52963 0.02239 0.56453 0.0
N27 N 0.54783 0.98938 0.53977 0.0
C28 C 0.6189 0.07632 0.63295 0.0
C29 C 0.65377 0.12206 0.67682 0.0
C30 C 0.56478 0.06973 0.60932 0.0
C31 C 0.54564 0.11051 0.63009 0.0
C32 C 0.58164 0.15849 0.67299 0.0
C33 C 0.63524 0.16295 0.69606 0.0
C34 C 0.45201 0.9245 0.48918 0.0
C35 C 0.41785 0.88362 0.44033 0.0
C36 C 0.5117 0.9413 0.49628 0.0
C37 C 0.53628 0.91299 0.45644 0.0
C38 C 0.50138 0.86844 0.4087 0.0
C39 C 0.44184 0.85421 0.40121 0.0
H40 H 0.40331 0.37704 0.89221 0.0
H41 H 0.57624 0.48486 0.97841 0.0
H42 H 0.54892 0.35331 0.83211 0.0
H43 H 0.5472 0.62001 0.06457 0.0
H44 H 0.39955 0.44464 0.09179 0.0
H45 H 0.42236 0.58456 0.22627 0.0
N46 N 0.46349 0.46143 0.98522 0.0
N47 N 0.49597 0.50904 1.01547 0.0
C48 C 0.44962 0.38921 0.89465 0.0
C49 C 0.47192 0.35884 0.85389 0.0
C50 C 0.48708 0.43533 0.93941 0.0
C51 C 0.54688 0.45063 0.94377 0.0
C52 C 0.56859 0.41954 0.90661 0.0
C53 C 0.5313 0.37507 0.86164 0.0
C54 C 0.50728 0.58997 0.09162 0.0
C55 C 0.4886 0.61016 0.14895 0.0
C56 C 0.47447 0.53043 0.06937 0.0
C57 C 0.42414 0.49081 0.10619 0.0
C58 C 0.40698 0.50976 0.16404 0.0
C59 C 0.43791 0.5696 0.18333 0.0
H60 H 0.09985 0.50938 0.52772 0.0
H61 H 0.07617 0.65493 0.45816 0.0
H62 H 0.23272 0.64612 0.40411 0.0
H63 H 0.92243 0.53407 0.56851 0.0
H64 H 0.95956 0.39158 0.60049 0.0
H65 H 0.80215 0.38068 0.68565 0.0
N66 N 1.02245 0.5494 0.52437 0.0
N67 N 1.00074 0.49689 0.54489 0.0
C68 C 0.11558 0.55081 0.50029 0.0
C69 C 0.16973 0.57409 0.46728 0.0
C70 C 0.08048 0.57828 0.49569 0.0
C71 C 0.10305 0.6333 0.46124 0.0
C72 C 0.1594 0.65904 0.42905 0.0
C73 C 0.1916 0.6284 0.43192 0.0
C74 C 0.90854 0.49034 0.58871 0.0
C75 C 0.85799 0.46176 0.6305 0.0
C76 C 0.94494 0.46501 0.57764 0.0
C77 C 0.92958 0.40945 0.60649 0.0
C78 C 0.87847 0.37925 0.64682 0.0
C79 C 0.84157 0.40442 0.65524 0.0
H80 H 0.53158 0.13536 1.01263 0.0
H81 H 0.6802 0.10472 1.00393 0.0
H82 H 0.69132 0.263 0.91545 0.0
H83 H 0.55309 0.9574 0.06147 0.0
H84 H 0.40987 0.98538 0.12513 0.0
H85 H 0.40274 0.81711 0.16051 0.0
N86 N 0.56937 0.05833 0.04562 0.0
N87 N 0.51623 0.03702 0.06271 0.0
C88 C 0.57759 0.15107 1.00063 0.0
C89 C 0.60911 0.2035 0.963 0.0
C90 C 0.60329 0.11566 1.01641 0.0
C91 C 0.66163 0.13386 0.99498 0.0
C92 C 0.69404 0.18711 0.95788 0.0
C93 C 0.66786 0.22258 0.94497 0.0
C94 C 0.50939 0.9405 0.08288 0.0
C95 C 0.48175 0.884 0.11134 0.0
C96 C 0.48412 0.97755 0.08744 0.0
C97 C 0.4285 0.95599 0.11956 0.0
C98 C 0.39858 0.89754 0.147 0.0
C99 C 0.42477 0.86149 0.13946 0.0
H100 H 0.45834 0.53659 0.53382 0.0
H101 H 0.63623 0.67822 0.50545 0.0
H102 H 0.49849 0.66348 0.37157 0.0
H103 H 0.69871 0.66375 0.7082 0.0
H104 H 0.59285 0.49885 0.6076 0.0
H105 H 0.70963 0.50786 0.76591 0.0
N106 N 0.56942 0.58149 0.58053 0.0
N107 N 0.6181 0.61117 0.61 0.0
C108 C 0.48931 0.57622 0.50677 0.0
C109 C 0.46995 0.59691 0.44998 0.0
C110 C 0.54914 0.60611 0.52831 0.0
C111 C 0.5899 0.65603 0.49175 0.0
C112 C 0.57214 0.67524 0.43429 0.0
C113 C 0.5121 0.6469 0.41504 0.0
C114 C 0.68581 0.6173 0.70284 0.0
C115 C 0.71162 0.5909 0.74522 0.0
C116 C 0.64229 0.58395 0.65391 0.0
C117 C 0.62612 0.52437 0.64513 0.0
C118 C 0.65161 0.4972 0.68436 0.0
C119 C 0.69318 0.5304 0.73476 0.0
Cu120 Cu 0.30829 0.53853 0.33476 0.0
N121 N 0.30218 0.47302 0.28844 0.0
N122 N 0.35678 0.46934 0.20322 0.0
C123 C 0.35403 0.47744 0.27063 0.0
C124 C 0.30122 0.44859 0.1803 0.0
C125 C 0.26739 0.45052 0.23323 0.0
O126 O 0.39004 0.58402 0.37281 0.0
C127 C 0.22433 0.55871 0.25465 0.0
O128 O 0.18683 0.50805 0.28264 0.0
H129 H 0.39326 0.50218 0.30115 0.0
H130 H 0.22471 0.44769 0.22691 0.0
N131 N 0.2596 0.51558 0.40857 0.0
N132 N 0.19821 0.53841 0.46192 0.0
C133 C 0.25356 0.55817 0.43964 0.0
C134 C 0.20829 0.46542 0.4163 0.0
C135 C 0.17005 0.47942 0.44986 0.0
C136 C 0.40715 0.56531 0.42478 0.0
O137 O 0.36919 0.51555 0.45434 0.0
H138 H 0.28597 0.6044 0.43422 0.0
H139 H 0.1962 0.42486 0.38886 0.0
O140 O 0.27944 0.58175 0.27096 0.0
H141 H 0.28892 0.44447 0.12692 0.0
H142 H 0.1229 0.45051 0.45414 0.0
Cu143 Cu 0.82683 0.25056 0.80627 0.0
N144 N 0.79175 0.17817 0.76171 0.0
N145 N 0.70918 0.1286 0.7008 0.0
C146 C 0.73247 0.15139 0.76175 0.0
C147 C 0.75524 0.13667 0.66159 0.0
C148 C 0.80632 0.16736 0.69941 0.0
O149 O 0.77161 0.24351 0.87865 0.0
C150 C 0.86783 0.32618 0.6877 0.0
O151 O 0.90151 0.30171 0.6784 0.0
H152 H 0.70746 0.15904 0.80055 0.0
H153 H 0.8506 0.18861 0.67891 0.0
N154 N 0.90077 0.27775 0.84652 0.0
N155 N 0.95346 0.3611 0.90559 0.0
C156 C 0.93386 0.33702 0.84378 0.0
C157 C 0.90688 0.2634 0.91116 0.0
C158 C 0.93889 0.31476 0.94785 0.0
C159 C 0.74997 0.20103 0.92217 0.0
O160 O 0.769 0.16217 0.92295 0.0
H161 H 0.93157 0.36281 0.80154 0.0
H162 H 0.88038 0.22017 0.93364 0.0
O163 O 0.83276 0.31006 0.73895 0.0
H164 H 0.75309 0.12921 0.60708 0.0
H165 H 0.94173 0.31762 1.00298 0.0
Cu166 Cu 0.54867 0.76899 0.26758 0.0
N167 N 0.55596 0.81599 0.19499 0.0
N168 N 0.51639 0.85559 0.12617 0.0
C169 C 0.51008 0.82468 0.18339 0.0
C170 C 0.56908 0.86634 0.09983 0.0
C171 C 0.59336 0.84091 0.14254 0.0
O172 O 0.50833 0.79223 0.34013 0.0
C173 C 0.52175 0.67218 0.17544 0.0
O174 O 0.57126 0.71025 0.14585 0.0
H175 H 0.47369 0.81039 0.21883 0.0
H176 H 0.63468 0.84054 0.1359 0.0
N177 N 0.6191 0.77768 0.30347 0.0
N178 N 0.61486 0.72328 0.39389 0.0
C179 C 0.60953 0.72456 0.32577 0.0
C180 C 0.64403 0.81392 0.35709 0.0
C181 C 0.63989 0.78016 0.41351 0.0
C182 C 0.53017 0.84687 0.35807 0.0
O183 O 0.5781 0.88673 0.32736 0.0
H184 H 0.58301 0.68465 0.29713 0.0
H185 H 0.65311 0.85931 0.35911 0.0
O186 O 0.50399 0.68825 0.22872 0.0
H187 H 0.58936 0.89191 0.05421 0.0
H188 H 0.64447 0.79479 0.46597 0.0
Cu189 Cu 0.79552 0.54044 0.84413 0.0
N190 N 0.80909 0.5302 0.75264 0.0
N191 N 0.83206 0.49522 0.66004 0.0
C192 C 0.80256 0.48177 0.72016 0.0
C193 C 0.85229 0.55404 0.65191 0.0
C194 C 0.83862 0.57533 0.70911 0.0
O195 O 0.86411 0.54348 0.89751 0.0
C196 C 0.75476 0.62745 0.80085 0.0
O197 O 0.76133 0.68046 0.8122 0.0
H198 H 0.78094 0.43841 0.7433 0.0
H199 H 0.85337 0.62133 0.72059 0.0
N200 N 0.72459 0.48071 0.88233 0.0
N201 N 0.62945 0.43457 0.91218 0.0
C202 C 0.67541 0.48564 0.89105 0.0
C203 C 0.7095 0.42524 0.90314 0.0
C204 C 0.6508 0.39678 0.92123 0.0
C205 C 0.87003 0.4973 0.8891 0.0
O206 O 0.83169 0.45616 0.84936 0.0
H207 H 0.67193 0.5244 0.87692 0.0
H208 H 0.73783 0.40544 0.90363 0.0
O209 O 0.78556 0.6113 0.83874 0.0
H210 H 0.88027 0.58152 0.61109 0.0
H211 H 0.62527 0.35147 0.93782 0.0
Cu212 Cu 0.25553 0.80596 0.29012 0.0
N213 N 0.19044 0.79469 0.23761 0.0
N214 N 0.18255 0.72 0.17396 0.0
C215 C 0.16571 0.73554 0.23118 0.0
C216 C 0.20523 0.76838 0.13416 0.0
C217 C 0.20606 0.81357 0.17253 0.0
O218 O 0.22859 0.73363 0.34967 0.0
C219 C 0.34431 0.87668 0.19025 0.0
O220 O 0.32599 0.9147 0.20529 0.0
H221 H 0.1426 0.70426 0.27125 0.0
H222 H 0.22436 0.85913 0.15625 0.0
N223 N 0.28923 0.86724 0.35231 0.0
N224 N 0.36317 0.88105 0.42166 0.0
C225 C 0.34694 0.88362 0.35769 0.0
C226 C 0.27069 0.86166 0.41776 0.0
C227 C 0.31636 0.86981 0.46087 0.0
C228 C 0.18354 0.716 0.38982 0.0
O229 O 0.15434 0.74583 0.39102 0.0
H230 H 0.37492 0.88753 0.31533 0.0
H231 H 0.22536 0.84498 0.43315 0.0
O232 O 0.32016 0.82588 0.22106 0.0
H233 H 0.22251 0.77147 0.08315 0.0
H234 H 0.31384 0.86276 0.51555 0.0
Cu235 Cu 0.52234 0.27142 0.75798 0.0
N236 N 0.57651 0.33962 0.70891 0.0
N237 N 0.63065 0.43451 0.67679 0.0
C238 C 0.61587 0.3951 0.72846 0.0
C239 C 0.60342 0.40182 0.62132 0.0
C240 C 0.57017 0.34382 0.64129 0.0
O241 O 0.44922 0.27855 0.76878 0.0
C242 C 0.56988 0.20844 0.69092 0.0
O243 O 0.61621 0.26067 0.70001 0.0
H244 H 0.62979 0.40775 0.78015 0.0
H245 H 0.53923 0.30781 0.60978 0.0
N246 N 0.54179 0.26036 0.84651 0.0
N247 N 0.57853 0.23105 0.93174 0.0
C248 C 0.58533 0.24965 0.86624 0.0
C249 C 0.50581 0.24717 0.90106 0.0
C250 C 0.52872 0.22974 0.954 0.0
C251 C 0.43318 0.31079 0.80425 0.0
O252 O 0.37862 0.30058 0.79646 0.0
H253 H 0.61829 0.25041 0.83181 0.0
H254 H 0.4637 0.24643 0.90105 0.0
O255 O 0.5192 0.20197 0.70824 0.0
H256 H 0.6032 0.41921 0.57099 0.0
H257 H 0.50833 0.21358 1.00333 0.0
loop_
_geom_bond_atom_site_label_1
_geom_bond_atom_site_label_2
_geom_bond_distance
_geom_bond_site_symmetry_2
_ccdc_geom_bond_type
H0 C8 0.940 . S
H1 C11 0.940 . S
H2 C13 0.940 . S
H3 C14 0.940 . S
H4 C17 0.940 . S
H5 C19 0.940 . S
N6 N7 1.190 1_655 S
N6 C10 1.477 1_554 S
N7 N6 1.190 1_455 S
N7 C16 1.477 . S
C8 H0 0.940 . S
C8 C9 1.390 . S
C8 C10 1.322 . S
C9 C8 1.390 . S
C9 C13 1.370 . S
C10 N6 1.477 1_556 S
C10 C8 1.322 . S
C10 C11 1.447 . S
C11 H1 0.940 . S
C11 C10 1.447 . S
C11 C12 1.373 . S
C12 C11 1.373 . S
C12 C13 1.417 . S
C13 H2 0.940 . S
C13 C9 1.370 . S
C13 C12 1.417 . S
C14 H3 0.940 . S
C14 C15 1.390 . S
C14 C16 1.322 . S
C15 C14 1.390 . S
C15 C19 1.370 . S
C16 N7 1.477 . S
C16 C14 1.322 . S
C16 C17 1.447 . S
C17 H4 0.940 . S
C17 C16 1.447 . S
C17 C18 1.373 . S
C18 C17 1.373 . S
C18 C19 1.417 . S
C19 H5 0.940 . S
C19 C15 1.370 . S
C19 C18 1.417 . S
H20 C28 0.940 . S
H21 C31 0.940 . S
H22 C33 0.940 . S
H23 C34 0.940 . S
H24 C37 0.940 . S
H25 C39 0.940 . S
N26 N27 1.190 . S
N26 C30 1.477 . S
N27 N26 1.190 . S
N27 C36 1.477 1_545 S
C28 H20 0.940 . S
C28 C29 1.390 . S
C28 C30 1.322 . S
C29 C28 1.390 . S
C29 C33 1.370 . S
C30 N26 1.477 . S
C30 C28 1.322 . S
C30 C31 1.447 . S
C31 H21 0.940 . S
C31 C30 1.447 . S
C31 C32 1.373 . S
C32 C31 1.373 . S
C32 C33 1.417 . S
C33 H22 0.940 . S
C33 C29 1.370 . S
C33 C32 1.417 . S
C34 H23 0.940 . S
C34 C35 1.390 . S
C34 C36 1.322 . S
C35 C34 1.390 . S
C35 C39 1.370 . S
C36 N27 1.477 1_565 S
C36 C34 1.322 . S
C36 C37 1.447 . S
C37 H24 0.940 . S
C37 C36 1.447 . S
C37 C38 1.373 . S
C38 C37 1.373 . S
C38 C39 1.417 . S
C39 H25 0.940 . S
C39 C35 1.370 . S
C39 C38 1.417 . S
H40 C48 0.940 . S
H41 C51 0.940 . S
H42 C53 0.940 . S
H43 C54 0.940 . S
H44 C57 0.940 . S
H45 C59 0.940 . S
N46 N47 1.190 1_556 S
N46 C50 1.477 . S
N47 N46 1.190 1_554 S
N47 C56 1.477 . S
C48 H40 0.940 . S
C48 C49 1.390 . S
C48 C50 1.322 . S
C49 C48 1.390 . S
C49 C53 1.370 . S
C50 N46 1.477 . S
C50 C48 1.322 . S
C50 C51 1.447 . S
C51 H41 0.940 . S
C51 C50 1.447 . S
C51 C52 1.373 . S
C52 C51 1.373 . S
C52 C53 1.417 . S
C53 H42 0.940 . S
C53 C49 1.370 . S
C53 C52 1.417 . S
C54 H43 0.940 . S
C54 C55 1.390 . S
C54 C56 1.322 . S
C55 C54 1.390 . S
C55 C59 1.370 . S
C56 N47 1.477 . S
C56 C54 1.322 . S
C56 C57 1.447 . S
C57 H44 0.940 . S
C57 C56 1.447 . S
C57 C58 1.373 . S
C58 C57 1.373 . S
C58 C59 1.417 . S
C59 H45 0.940 . S
C59 C55 1.370 . S
C59 C58 1.417 . S
H60 C68 0.940 . S
H61 C71 0.940 . S
H62 C73 0.940 . S
H63 C74 0.940 . S
H64 C77 0.940 . S
H65 C79 0.940 . S
N66 N67 1.187 . S
N66 C70 1.460 1_655 S
N67 N66 1.187 . S
N67 C76 1.477 . S
C68 H60 0.940 . S
C68 C69 1.390 . S
C68 C70 1.322 . S
C69 C68 1.390 . S
C69 C73 1.370 . S
C70 N66 1.460 1_455 S
C70 C68 1.322 . S
C70 C71 1.447 . S
C71 H61 0.940 . S
C71 C70 1.447 . S
C71 C72 1.373 . S
C72 C71 1.373 . S
C72 C73 1.417 . S
C73 H62 0.940 . S
C73 C69 1.370 . S
C73 C72 1.417 . S
C74 H63 0.940 . S
C74 C75 1.390 . S
C74 C76 1.322 . S
C75 C74 1.390 . S
C75 C79 1.370 . S
C76 N67 1.477 . S
C76 C74 1.322 . S
C76 C77 1.447 . S
C77 H64 0.940 . S
C77 C76 1.447 . S
C77 C78 1.373 . S
C78 C77 1.373 . S
C78 C79 1.417 . S
C79 H65 0.940 . S
C79 C75 1.370 . S
C79 C78 1.417 . S
H80 C88 0.940 . S
H81 C91 0.940 . S
H82 C93 0.940 . S
H83 C94 0.940 . S
H84 C97 0.940 . S
H85 C99 0.940 . S
N86 N87 1.190 . S
N86 C90 1.477 1_554 S
N87 N86 1.190 . S
N87 C96 1.477 1_545 S
C88 H80 0.940 . S
C88 C89 1.390 . S
C88 C90 1.322 . S
C89 C88 1.390 . S
C89 C93 1.370 . S
C90 N86 1.477 1_556 S
C90 C88 1.322 . S
C90 C91 1.447 . S
C91 H81 0.940 . S
C91 C90 1.447 . S
C91 C92 1.373 . S
C92 C91 1.373 . S
C92 C93 1.417 . S
C93 H82 0.940 . S
C93 C89 1.370 . S
C93 C92 1.417 . S
C94 H83 0.940 . S
C94 C95 1.390 . S
C94 C96 1.322 . S
C95 C94 1.390 . S
C95 C99 1.370 . S
C96 N87 1.477 1_565 S
C96 C94 1.322 . S
C96 C97 1.447 . S
C97 H84 0.940 . S
C97 C96 1.447 . S
C97 C98 1.373 . S
C98 C97 1.373 . S
C98 C99 1.417 . S
C99 H85 0.940 . S
C99 C95 1.370 . S
C99 C98 1.417 . S
H100 C108 0.940 . S
H101 C111 0.940 . S
H102 C113 0.940 . S
H103 C114 0.940 . S
H104 C117 0.940 . S
H105 C119 0.940 . S
N106 N107 1.190 . S
N106 C110 1.477 . S
N107 N106 1.190 . S
N107 C116 1.477 . S
C108 H100 0.940 . S
C108 C109 1.390 . S
C108 C110 1.322 . S
C109 C108 1.390 . S
C109 C113 1.370 . S
C110 N106 1.477 . S
C110 C108 1.322 . S
C110 C111 1.447 . S
C111 H101 0.940 . S
C111 C110 1.447 . S
C111 C112 1.373 . S
C112 C111 1.373 . S
C112 C113 1.417 . S
C113 H102 0.940 . S
C113 C109 1.370 . S
C113 C112 1.417 . S
C114 H103 0.940 . S
C114 C115 1.390 . S
C114 C116 1.322 . S
C115 C114 1.390 . S
C115 C119 1.370 . S
C116 N107 1.477 . S
C116 C114 1.322 . S
C116 C117 1.447 . S
C117 H104 0.940 . S
C117 C116 1.447 . S
C117 C118 1.373 . S
C118 C117 1.373 . S
C118 C119 1.417 . S
C119 H105 0.940 . S
C119 C115 1.370 . S
C119 C118 1.417 . S
Cu120 N121 1.999 . S
Cu120 O126 1.974 . S
Cu120 N131 1.985 . S
Cu120 O140 1.959 . S
N121 Cu120 1.999 . S
N121 C123 1.263 . S
N121 C125 1.389 . S
N122 C123 1.358 . S
N122 C124 1.400 . S
C123 N121 1.263 . S
C123 N122 1.358 . S
C123 H129 0.930 . S
C124 N122 1.400 . S
C124 C125 1.351 . S
C124 H141 0.930 . S
C125 N121 1.389 . S
C125 C124 1.351 . S
C125 H130 0.930 . S
O126 Cu120 1.974 . S
O126 C136 1.282 . S
C127 O128 1.261 . S
C127 O140 1.251 . S
O128 C127 1.261 . S
H129 C123 0.930 . S
H130 C125 0.930 . S
N131 Cu120 1.985 . S
N131 C133 1.335 . S
N131 C134 1.390 . S
N132 C133 1.345 . S
N132 C135 1.336 . S
C133 N131 1.335 . S
C133 N132 1.345 . S
C133 H138 0.930 . S
C134 N131 1.390 . S
C134 C135 1.346 . S
C134 H139 0.930 . S
C135 N132 1.336 . S
C135 C134 1.346 . S
C135 H142 0.929 . S
C136 O126 1.282 . S
C136 O137 1.216 . S
O137 C136 1.216 . S
H138 C133 0.930 . S
H139 C134 0.930 . S
O140 Cu120 1.959 . S
O140 C127 1.251 . S
H141 C124 0.930 . S
H142 C135 0.929 . S
Cu143 N144 1.999 . S
Cu143 O149 1.974 . S
Cu143 N154 1.985 . S
Cu143 O163 1.959 . S
N144 Cu143 1.999 . S
N144 C146 1.263 . S
N144 C148 1.389 . S
N145 C146 1.358 . S
N145 C147 1.400 . S
C146 N144 1.263 . S
C146 N145 1.358 . S
C146 H152 0.930 . S
C147 N145 1.400 . S
C147 C148 1.351 . S
C147 H164 0.930 . S
C148 N144 1.389 . S
C148 C147 1.351 . S
C148 H153 0.930 . S
O149 Cu143 1.974 . S
O149 C159 1.282 . S
C150 O151 1.261 . S
C150 O163 1.251 . S
O151 C150 1.261 . S
H152 C146 0.930 . S
H153 C148 0.930 . S
N154 Cu143 1.985 . S
N154 C156 1.335 . S
N154 C157 1.390 . S
N155 C156 1.345 . S
N155 C158 1.336 . S
C156 N154 1.335 . S
C156 N155 1.345 . S
C156 H161 0.930 . S
C157 N154 1.390 . S
C157 C158 1.346 . S
C157 H162 0.930 . S
C158 N155 1.336 . S
C158 C157 1.346 . S
C158 H165 0.929 . S
C159 O149 1.282 . S
C159 O160 1.216 . S
O160 C159 1.216 . S
H161 C156 0.930 . S
H162 C157 0.930 . S
O163 Cu143 1.959 . S
O163 C150 1.251 . S
H164 C147 0.930 . S
H165 C158 0.929 . S
Cu166 N167 1.999 . S
Cu166 O172 1.974 . S
Cu166 N177 1.985 . S
Cu166 O186 1.959 . S
N167 Cu166 1.999 . S
N167 C169 1.263 . S
N167 C171 1.389 . S
N168 C169 1.358 . S
N168 C170 1.400 . S
C169 N167 1.263 . S
C169 N168 1.358 . S
C169 H175 0.930 . S
C170 N168 1.400 . S
C170 C171 1.351 . S
C170 H187 0.930 . S
C171 N167 1.389 . S
C171 C170 1.351 . S
C171 H176 0.930 . S
O172 Cu166 1.974 . S
O172 C182 1.282 . S
C173 O174 1.261 . S
C173 O186 1.251 . S
O174 C173 1.261 . S
H175 C169 0.930 . S
H176 C171 0.930 . S
N177 Cu166 1.985 . S
N177 C179 1.335 . S
N177 C180 1.390 . S
N178 C179 1.345 . S
N178 C181 1.336 . S
C179 N177 1.335 . S
C179 N178 1.345 . S
C179 H184 0.930 . S
C180 N177 1.390 . S
C180 C181 1.346 . S
C180 H185 0.930 . S
C181 N178 1.336 . S
C181 C180 1.346 . S
C181 H188 0.929 . S
C182 O172 1.282 . S
C182 O183 1.216 . S
O183 C182 1.216 . S
H184 C179 0.930 . S
H185 C180 0.930 . S
O186 Cu166 1.959 . S
O186 C173 1.251 . S
H187 C170 0.930 . S
H188 C181 0.929 . S
Cu189 N190 1.999 . S
Cu189 O195 1.974 . S
Cu189 N200 1.985 . S
Cu189 O209 1.959 . S
N190 Cu189 1.999 . S
N190 C192 1.263 . S
N190 C194 1.389 . S
N191 C192 1.358 . S
N191 C193 1.400 . S
C192 N190 1.263 . S
C192 N191 1.358 . S
C192 H198 0.930 . S
C193 N191 1.400 . S
C193 C194 1.351 . S
C193 H210 0.930 . S
C194 N190 1.389 . S
C194 C193 1.351 . S
C194 H199 0.930 . S
O195 Cu189 1.974 . S
O195 C205 1.282 . S
C196 O197 1.261 . S
C196 O209 1.251 . S
O197 C196 1.261 . S
H198 C192 0.930 . S
H199 C194 0.930 . S
N200 Cu189 1.985 . S
N200 C202 1.335 . S
N200 C203 1.390 . S
N201 C202 1.345 . S
N201 C204 1.336 . S
C202 N200 1.335 . S
C202 N201 1.345 . S
C202 H207 0.930 . S
C203 N200 1.390 . S
C203 C204 1.346 . S
C203 H208 0.930 . S
C204 N201 1.336 . S
C204 C203 1.346 . S
C204 H211 0.929 . S
C205 O195 1.282 . S
C205 O206 1.216 . S
O206 C205 1.216 . S
H207 C202 0.930 . S
H208 C203 0.930 . S
O209 Cu189 1.959 . S
O209 C196 1.251 . S
H210 C193 0.930 . S
H211 C204 0.929 . S
Cu212 N213 1.999 . S
Cu212 O218 1.974 . S
Cu212 N223 1.985 . S
Cu212 O232 1.959 . S
N213 Cu212 1.999 . S
N213 C215 1.263 . S
N213 C217 1.389 . S
N214 C215 1.358 . S
N214 C216 1.400 . S
C215 N213 1.263 . S
C215 N214 1.358 . S
C215 H221 0.930 . S
C216 N214 1.400 . S
C216 C217 1.351 . S
C216 H233 0.930 . S
C217 N213 1.389 . S
C217 C216 1.351 . S
C217 H222 0.930 . S
O218 Cu212 1.974 . S
O218 C228 1.282 . S
C219 O220 1.261 . S
C219 O232 1.251 . S
O220 C219 1.261 . S
H221 C215 0.930 . S
H222 C217 0.930 . S
N223 Cu212 1.985 . S
N223 C225 1.335 . S
N223 C226 1.390 . S
N224 C225 1.345 . S
N224 C227 1.336 . S
C225 N223 1.335 . S
C225 N224 1.345 . S
C225 H230 0.930 . S
C226 N223 1.390 . S
C226 C227 1.346 . S
C226 H231 0.930 . S
C227 N224 1.336 . S
C227 C226 1.346 . S
C227 H234 0.929 . S
C228 O218 1.282 . S
C228 O229 1.216 . S
O229 C228 1.216 . S
H230 C225 0.930 . S
H231 C226 0.930 . S
O232 Cu212 1.959 . S
O232 C219 1.251 . S
H233 C216 0.930 . S
H234 C227 0.929 . S
Cu235 N236 1.999 . S
Cu235 O241 1.974 . S
Cu235 N246 1.985 . S
Cu235 O255 1.959 . S
N236 Cu235 1.999 . S
N236 C238 1.263 . S
N236 C240 1.389 . S
N237 C238 1.358 . S
N237 C239 1.400 . S
C238 N236 1.263 . S
C238 N237 1.358 . S
C238 H244 0.930 . S
C239 N237 1.400 . S
C239 C240 1.351 . S
C239 H256 0.930 . S
C240 N236 1.389 . S
C240 C239 1.351 . S
C240 H245 0.930 . S
O241 Cu235 1.974 . S
O241 C251 1.282 . S
C242 O243 1.261 . S
C242 O255 1.251 . S
O243 C242 1.261 . S
H244 C238 0.930 . S
H245 C240 0.930 . S
N246 Cu235 1.985 . S
N246 C248 1.335 . S
N246 C249 1.390 . S
N247 C248 1.345 . S
N247 C250 1.336 . S
C248 N246 1.335 . S
C248 N247 1.345 . S
C248 H253 0.930 . S
C249 N246 1.390 . S
C249 C250 1.346 . S
C249 H254 0.930 . S
C250 N247 1.336 . S
C250 C249 1.346 . S
C250 H257 0.929 . S
C251 O241 1.282 . S
C251 O252 1.216 . S
O252 C251 1.216 . S
H253 C248 0.930 . S
H254 C249 0.930 . S
O255 Cu235 1.959 . S
O255 C242 1.251 . S
H256 C239 0.930 . S
H257 C250 0.929 . S
C18 C127 2.191 . S
C29 N145 1.399 . S
C173 C55 2.274 . S
N191 C75 1.484 . S
C219 C98 2.209 . S
N237 C118 1.368 . S
C38 C182 2.233 . S
C52 N201 1.125 . S
C228 C72 2.247 . S
N247 C89 1.235 . S
C109 C136 2.316 . S
N155 C9 1.142 . S
C205 C12 1.970 . S
C35 N224 0.812 . S
C251 C49 2.019 . S
C69 N132 0.906 . S
C92 C159 2.007 . S
C112 N178 0.755 . S
C32 C242 2.016 . S
N122 C58 0.651 . S
C78 C150 2.045 . S
C95 N168 0.752 . S
C115 C196 2.054 . S
C15 N214 0.674 . S
