# Generated by pormake.
# Topology scu, (8,4)-cn, num edge types: 1
# Building blocks:
#     Node 0, Type 0, BuildingBlock: GIZVER_clean_sbu_0, # of connection points: 8
#     Node 1, Type 1, BuildingBlock: IZENUY_clean_linker_0, # of connection points: 4
#     Node 2, Type 1, BuildingBlock: IZENUY_clean_linker_0, # of connection points: 4
#     Edge 3, Type (0, 1), BuildingBlock: EZIPEK_clean_linker_0, # of connection points: 2
#     Edge 4, Type (0, 1), BuildingBlock: EZIPEK_clean_linker_0, # of connection points: 2
#     Edge 5, Type (0, 1), BuildingBlock: EZIPEK_clean_linker_0, # of connection points: 2
#     Edge 6, Type (0, 1), BuildingBlock: EZIPEK_clean_linker_0, # of connection points: 2
#     Edge 7, Type (0, 1), BuildingBlock: EZIPEK_clean_linker_0, # of connection points: 2
#     Edge 8, Type (0, 1), BuildingBlock: EZIPEK_clean_linker_0, # of connection points: 2
#     Edge 9, Type (0, 1), BuildingBlock: EZIPEK_clean_linker_0, # of connection points: 2
#     Edge 10, Type (0, 1), BuildingBlock: EZIPEK_clean_linker_0, # of connection points: 2
# Relax obj value: 0.118
# Max RMSD: 0.252
# Mean RMSD: 0.210
data_MOF--net-scu--node1-GIZVER_clean_sbu_0--node2-IZENUY_clean_linker_0--edge1-EZIPEK_clean_linker_0
_symmetry_space_group_name_H-M    P1
_symmetry_Int_Tables_number       1
_symmetry_cell_setting            triclinic
loop_
_symmetry_equiv_pos_as_xyz
'x, y, z'
_cell_length_a     20.824439
_cell_length_b     21.369959
_cell_length_c     16.620453
_cell_angle_alpha  104.06643
_cell_angle_beta   78.744337
_cell_angle_gamma 108.25871
loop_
_atom_site_label
_atom_site_type_symbol
_atom_site_fract_x
_atom_site_fract_y
_atom_site_fract_z
_atom_type_partial_charge
Co0 Co 0.03636 0.95698 0.18426 0.0
Co1 Co 0.13967 0.04782 0.13661 0.0
Co2 Co 0.02725 1.03059 0.02613 0.0
O3 O 0.07254 0.9861 0.08125 0.0
H4 H 0.09292 0.95439 0.04134 0.0
O5 O 0.9823 0.0752 0.97028 0.0
Co6 Co 1.01956 0.09882 0.86318 0.0
Co7 Co 0.91408 1.01123 0.91827 0.0
H8 H 0.9623 0.10776 1.00898 0.0
O9 O 0.21078 1.02582 0.1601 0.0
O10 O 0.11105 1.02913 0.24266 0.0
O11 O 0.14918 0.14095 0.14082 0.0
O12 O 0.04518 0.1193 0.10957 0.0
O13 O 0.11633 0.06327 0.9592 0.0
O14 O 0.05186 0.12699 0.76835 0.0
O15 O 0.97699 0.16292 0.87011 0.0
O16 O 0.07266 0.03675 0.8402 0.0
O17 O 1.01004 0.9418 0.94134 0.0
O18 O 0.90522 0.91863 0.91277 0.0
O19 O 0.93952 1.02987 0.81216 0.0
O20 O 0.8415 0.03262 0.90121 0.0
C21 C 0.04633 0.88477 0.23982 0.0
C22 C 0.93029 1.00807 0.17383 0.0
C23 C 0.09892 0.16118 0.13748 0.0
C24 C 0.17548 0.03139 0.23399 0.0
C25 C 1.01207 0.16587 0.79604 0.0
C26 C 0.12355 0.05098 0.87988 0.0
C27 C 0.95705 0.8996 0.91192 0.0
C28 C 0.87628 0.03349 0.82726 0.0
O29 O 1.00581 0.92201 0.27571 0.0
O30 O 0.08278 0.89478 0.16825 0.0
O31 O 0.93785 0.99882 0.0943 0.0
O32 O 0.97954 1.01527 0.21333 0.0
H33 H 0.05444 0.44539 0.39366 0.0
H34 H 1.02337 0.43468 0.65457 0.0
H35 H 1.02119 0.25674 0.46329 0.0
H36 H 1.01231 0.6245 0.65202 0.0
H37 H 0.05292 0.62553 0.38793 0.0
H38 H 1.02185 0.80105 0.56389 0.0
N39 N 0.03262 0.51577 0.55113 0.0
N40 N 0.03837 0.54986 0.49737 0.0
C41 C 0.04341 0.41644 0.44241 0.0
C42 C 0.04061 0.34827 0.41992 0.0
C43 C 0.03384 0.44731 0.52735 0.0
C44 C 1.02585 0.40975 0.58944 0.0
C45 C 1.02118 0.34039 0.56749 0.0
C46 C 1.02493 0.30991 0.48204 0.0
C47 C 1.02114 0.65053 0.60079 0.0
C48 C 1.01649 0.71689 0.61764 0.0
C49 C 0.03541 0.61764 0.51774 0.0
C50 C 0.04396 0.65139 0.452 0.0
C51 C 0.03973 0.71769 0.46815 0.0
C52 C 0.02674 0.75039 0.55118 0.0
H53 H 0.61817 1.02422 0.3987 0.0
H54 H 0.62477 1.0295 0.65842 0.0
H55 H 0.79966 1.01573 0.47657 0.0
H56 H 0.43962 0.04929 0.65914 0.0
H57 H 0.42916 0.03174 0.39725 0.0
H58 H 0.26275 0.0684 0.58222 0.0
N59 N 0.54525 0.03275 0.5546 0.0
N60 N 0.5102 0.03339 0.50206 0.0
C61 C 0.64456 1.0225 0.44785 0.0
C62 C 0.71193 1.01831 0.42838 0.0
C63 C 0.61254 1.02617 0.53134 0.0
C64 C 0.64873 1.02571 0.59405 0.0
C65 C 0.7162 1.0218 0.57414 0.0
C66 C 0.74712 1.01772 0.49153 0.0
C67 C 0.41313 0.05015 0.60962 0.0
C68 C 0.34726 0.05853 0.62947 0.0
C69 C 0.44343 0.04131 0.52533 0.0
C70 C 0.4068 0.04012 0.46215 0.0
C71 C 0.34166 0.05021 0.48266 0.0
C72 C 0.31334 0.06103 0.56636 0.0
C73 C 0.14837 0.26999 0.23541 0.0
C74 C 0.09626 0.22993 0.18611 0.0
C75 C 1.0171 0.291 0.2726 0.0
C76 C 0.06343 0.31809 0.33271 0.0
N77 N 0.17705 0.34272 0.36776 0.0
N78 N 1.00063 0.23418 0.12946 0.0
C79 C 0.13083 0.31144 0.31228 0.0
C80 C 0.03639 0.25051 0.19563 0.0
N81 N 0.21469 0.27159 0.20578 0.0
N82 N 0.95376 0.30092 0.29086 0.0
H83 H 1.01994 0.21221 0.07032 0.0
H84 H 0.9583 0.25042 0.13012 0.0
H85 H 0.93896 0.33163 0.34594 0.0
H86 H 0.91496 0.27597 0.25365 0.0
H87 H 0.25593 0.30284 0.23607 0.0
H88 H 0.22885 0.24805 0.14504 0.0
H89 H 0.22376 0.33278 0.36199 0.0
H90 H 0.16741 0.37711 0.42182 0.0
C91 C 0.862 0.0764 0.2785 0.0
C92 C 0.86447 1.01497 0.22266 0.0
C93 C 0.75078 0.95925 0.28643 0.0
C94 C 0.75049 1.02012 0.3439 0.0
N95 N 0.79264 0.1402 0.37769 0.0
N96 N 0.80529 0.90206 0.15987 0.0
C97 C 0.80153 0.08006 0.33318 0.0
C98 C 0.80635 0.95796 0.22125 0.0
N99 N 0.91865 0.13014 0.2831 0.0
N100 N 0.7003 0.90205 0.29793 0.0
H101 H 0.84627 0.89791 0.1136 0.0
H102 H 0.76208 0.8615 0.15112 0.0
H103 H 0.65793 0.90253 0.34329 0.0
H104 H 0.70149 0.85416 0.26523 0.0
H105 H 0.92274 0.1722 0.33126 0.0
H106 H 0.96339 0.13052 0.2424 0.0
H107 H 0.82554 0.18649 0.36779 0.0
H108 H 0.74839 0.14344 0.41871 0.0
C109 C 0.98428 0.78935 0.31257 0.0
C110 C 0.04776 0.83054 0.28144 0.0
C111 C 0.10678 0.78234 0.35541 0.0
C112 C 0.04286 0.75137 0.39798 0.0
N113 N 0.92009 0.72369 0.41695 0.0
N114 N 0.17096 0.86276 0.26731 0.0
C115 C 0.98141 0.754 0.37598 0.0
C116 C 0.10965 0.82499 0.29963 0.0
N117 N 0.92695 0.78194 0.27857 0.0
N118 N 0.16469 0.7715 0.36928 0.0
H119 H 0.17588 0.89303 0.22485 0.0
H120 H 0.21756 0.86711 0.28518 0.0
H121 H 0.16464 0.74336 0.41252 0.0
H122 H 0.21222 0.78645 0.3347 0.0
H123 H 0.8801 0.74795 0.29263 0.0
H124 H 0.92798 0.80453 0.22908 0.0
H125 H 0.87417 0.73151 0.41224 0.0
H126 H 0.91536 0.69318 0.45936 0.0
C127 C 0.18719 1.01007 0.37268 0.0
C128 C 0.2125 0.04742 0.30809 0.0
C129 C 0.32092 0.0969 0.36746 0.0
C130 C 0.30015 0.04735 0.41795 0.0
N131 N 0.2161 0.94896 0.45813 0.0
N132 N 0.30088 0.13549 0.25142 0.0
C133 C 0.23405 1.00138 0.41712 0.0
C134 C 0.27893 0.09347 0.3075 0.0
N135 N 0.11888 0.9863 0.39545 0.0
N136 N 0.37841 0.14915 0.38 0.0
H137 H 0.26809 0.14216 0.21612 0.0
H138 H 0.35149 0.16305 0.2393 0.0
H139 H 0.40947 0.15437 0.42474 0.0
H140 H 0.39244 0.19049 0.35124 0.0
H141 H 0.0985 0.96161 0.44554 0.0
H142 H 0.08343 1.00133 0.37423 0.0
H143 H 0.16947 0.91215 0.45543 0.0
H144 H 0.25034 0.9385 0.48766 0.0
C145 C 0.91008 0.79492 0.8059 0.0
C146 C 0.96195 0.83346 0.8565 0.0
C147 C 0.04246 0.7768 0.76372 0.0
C148 C 0.99529 0.75008 0.7043 0.0
N149 N 0.88162 0.72803 0.67065 0.0
N150 N 0.05891 0.82748 0.90849 0.0
C151 C 0.92794 0.75673 0.72643 0.0
C152 C 1.02298 0.81436 0.84309 0.0
N153 N 0.84341 0.79057 0.83694 0.0
N154 N 0.10674 0.7692 0.74295 0.0
H155 H 0.04029 0.84773 0.96892 0.0
H156 H 0.10126 0.81052 0.90531 0.0
H157 H 0.12278 0.742 0.68554 0.0
H158 H 0.14533 0.793 0.78065 0.0
H159 H 0.80252 0.75981 0.80567 0.0
H160 H 0.82878 0.81042 0.89923 0.0
H161 H 0.83513 0.73881 0.67813 0.0
H162 H 0.89102 0.6955 0.61464 0.0
C163 C 0.21765 1.00046 0.80759 0.0
C164 C 0.19243 0.05739 0.83312 0.0
C165 C 0.29293 0.12199 0.75493 0.0
C166 C 0.30909 0.06134 0.71472 0.0
N167 N 0.28786 0.9419 0.7023 0.0
N168 N 0.20701 0.17451 0.83748 0.0
C169 C 0.27289 1.00049 0.74238 0.0
C170 C 0.23102 0.11932 0.80984 0.0
N171 N 0.18888 0.94667 0.84586 0.0
N172 N 0.33641 0.18153 0.73838 0.0
H173 H 0.16308 0.17465 0.88027 0.0
H174 H 0.22866 0.21914 0.81543 0.0
H175 H 0.38203 0.18368 0.69817 0.0
H176 H 0.33061 0.22835 0.76952 0.0
H177 H 0.2097 0.90663 0.83613 0.0
H178 H 0.14851 0.94593 0.89414 0.0
H179 H 0.25729 0.89477 0.7123 0.0
H180 H 0.32915 0.94008 0.65575 0.0
C181 C 0.03878 0.20039 0.65582 0.0
C182 C 1.00734 0.21037 0.74031 0.0
C183 C 0.9721 0.30028 0.70706 0.0
C184 C 1.01793 0.29943 0.63123 0.0
N185 N 0.11484 0.26102 0.55491 0.0
N186 N 0.95494 0.28552 0.84981 0.0
C187 C 0.05803 0.25379 0.61269 0.0
C188 C 0.97697 0.2649 0.7676 0.0
N189 N 0.04615 0.13923 0.61353 0.0
N190 N 0.92205 0.33165 0.72047 0.0
H191 H 0.96145 0.26634 0.89838 0.0
H192 H 0.93729 0.32805 0.87061 0.0
H193 H 0.91333 0.35355 0.67553 0.0
H194 H 0.88436 0.32842 0.77206 0.0
H195 H 0.06737 0.13156 0.55082 0.0
H196 H 1.021 0.09498 0.63569 0.0
H197 H 0.14589 0.22891 0.54304 0.0
H198 H 0.13485 0.30332 0.52755 0.0
C199 C 0.81719 0.08861 0.7592 0.0
C200 C 0.84002 0.03241 0.7587 0.0
C201 C 0.77461 0.96683 0.64339 0.0
C202 C 0.75691 1.02489 0.63953 0.0
N203 N 0.77415 0.14475 0.68045 0.0
N204 N 0.84694 0.91988 0.69496 0.0
C205 C 0.78193 0.08692 0.69356 0.0
C206 C 0.82122 0.97223 0.69857 0.0
N207 N 0.82717 0.14293 0.82361 0.0
N208 N 0.74462 0.90602 0.59668 0.0
H209 H 0.8777 0.91985 0.73745 0.0
H210 H 0.84152 0.87798 0.64655 0.0
H211 H 0.70971 0.90013 0.55623 0.0
H212 H 0.74964 0.86055 0.60295 0.0
H213 H 0.80508 0.18189 0.83146 0.0
H214 H 0.85263 0.14671 0.87334 0.0
H215 H 0.79854 0.19239 0.71165 0.0
H216 H 0.74849 0.14575 0.63299 0.0
loop_
_geom_bond_atom_site_label_1
_geom_bond_atom_site_label_2
_geom_bond_distance
_geom_bond_site_symmetry_2
_ccdc_geom_bond_type
Co0 O3 2.046 . S
Co0 O10 2.274 1_565 S
Co0 O29 2.287 1_455 S
Co0 O30 2.080 . S
Co0 O32 2.002 1_455 S
Co1 O3 2.122 1_545 S
Co1 O9 2.073 . S
Co1 O10 2.327 . S
Co1 O11 1.976 . S
Co2 O3 2.106 1_545 S
Co2 O5 2.068 1_454 S
Co2 O12 2.112 . S
Co2 O13 2.151 1_554 S
Co2 O17 2.110 1_444 S
Co2 O31 2.136 1_445 S
O3 Co0 2.046 . S
O3 Co1 2.122 1_565 S
O3 Co2 2.106 1_565 S
O3 H4 0.980 . S
H4 O3 0.980 . S
O5 Co2 2.068 1_656 S
O5 Co6 2.038 1_655 S
O5 Co7 2.122 1_545 S
O5 H8 0.980 . S
Co6 O5 2.038 1_455 S
Co6 O14 2.286 . S
Co6 O15 2.056 1_455 S
Co6 O16 2.032 . S
Co6 O19 2.251 1_445 S
Co7 O5 2.122 1_565 S
Co7 O18 1.976 . S
Co7 O19 2.327 . S
Co7 O20 2.073 . S
H8 O5 0.980 . S
O9 Co1 2.073 . S
O9 C24 1.245 1_545 S
O10 Co0 2.274 1_545 S
O10 Co1 2.327 . S
O10 C24 1.257 1_545 S
O11 Co1 1.976 . S
O11 C23 1.251 . S
O12 Co2 2.112 . S
O12 C23 1.274 . S
O13 Co2 2.151 1_556 S
O13 C26 1.246 . S
O14 Co6 2.286 . S
O14 C25 1.259 1_455 S
O15 Co6 2.056 1_655 S
O15 C25 1.289 . S
O16 Co6 2.032 . S
O16 C26 1.257 . S
O17 Co2 2.110 1_666 S
O17 C27 1.274 . S
O18 Co7 1.976 . S
O18 C27 1.251 . S
O19 Co6 2.251 1_665 S
O19 Co7 2.327 . S
O19 C28 1.257 1_565 S
O20 Co7 2.073 . S
O20 C28 1.245 1_565 S
C21 O29 1.259 1_455 S
C21 O30 1.289 . S
C22 O31 1.246 . S
C22 O32 1.257 . S
C23 O11 1.251 . S
C23 O12 1.274 . S
C24 O9 1.245 1_565 S
C24 O10 1.257 1_565 S
C25 O14 1.259 1_655 S
C25 O15 1.289 . S
C26 O13 1.246 . S
C26 O16 1.257 . S
C27 O17 1.274 . S
C27 O18 1.251 . S
C28 O19 1.257 1_545 S
C28 O20 1.245 1_545 S
O29 Co0 2.287 1_655 S
O29 C21 1.259 1_655 S
O30 Co0 2.080 . S
O30 C21 1.289 . S
O31 Co2 2.136 1_665 S
O31 C22 1.246 . S
O32 Co0 2.002 1_655 S
O32 C22 1.257 . S
H33 C41 0.940 . S
H34 C44 0.940 . S
H35 C46 0.940 . S
H36 C47 0.940 . S
H37 C50 0.940 . S
H38 C52 0.940 . S
N39 N40 1.190 . S
N39 C43 1.477 . S
N40 N39 1.190 . S
N40 C49 1.477 . S
C41 H33 0.940 . S
C41 C42 1.390 1_455 S
C41 C43 1.322 . S
C42 C41 1.390 1_655 S
C42 C46 1.370 . S
C43 N39 1.477 . S
C43 C41 1.322 . S
C43 C44 1.447 . S
C44 H34 0.940 . S
C44 C43 1.447 . S
C44 C45 1.373 . S
C45 C44 1.373 . S
C45 C46 1.417 1_455 S
C46 H35 0.940 . S
C46 C42 1.370 . S
C46 C45 1.417 1_655 S
C47 H36 0.940 . S
C47 C48 1.390 1_455 S
C47 C49 1.322 . S
C48 C47 1.390 1_655 S
C48 C52 1.370 . S
C49 N40 1.477 . S
C49 C47 1.322 . S
C49 C50 1.447 . S
C50 H37 0.940 . S
C50 C49 1.447 . S
C50 C51 1.373 . S
C51 C50 1.373 . S
C51 C52 1.417 1_455 S
C52 H38 0.940 . S
C52 C48 1.370 . S
C52 C51 1.417 1_655 S
H53 C61 0.940 . S
H54 C64 0.940 . S
H55 C66 0.940 . S
H56 C67 0.940 . S
H57 C70 0.940 . S
H58 C72 0.940 . S
N59 N60 1.190 . S
N59 C63 1.477 . S
N60 N59 1.190 . S
N60 C69 1.477 . S
C61 H53 0.940 . S
C61 C62 1.390 1_545 S
C61 C63 1.322 . S
C62 C61 1.390 1_565 S
C62 C66 1.370 . S
C63 N59 1.477 . S
C63 C61 1.322 . S
C63 C64 1.447 . S
C64 H54 0.940 . S
C64 C63 1.447 . S
C64 C65 1.373 . S
C65 C64 1.373 . S
C65 C66 1.417 1_545 S
C66 H55 0.940 . S
C66 C62 1.370 . S
C66 C65 1.417 1_565 S
C67 H56 0.940 . S
C67 C68 1.390 1_545 S
C67 C69 1.322 . S
C68 C67 1.390 1_565 S
C68 C72 1.370 . S
C69 N60 1.477 . S
C69 C67 1.322 . S
C69 C70 1.447 . S
C70 H57 0.940 . S
C70 C69 1.447 . S
C70 C71 1.373 . S
C71 C70 1.373 . S
C71 C72 1.417 1_545 S
C72 H58 0.940 . S
C72 C68 1.370 . S
C72 C71 1.417 1_565 S
C73 C74 1.363 1_455 S
C73 C79 1.379 . S
C73 N81 1.356 . S
C74 C73 1.363 1_655 S
C74 C80 1.363 . S
C75 C76 1.363 . S
C75 C80 1.379 . S
C75 N82 1.356 . S
C76 C75 1.363 . S
C76 C79 1.363 1_655 S
N77 C79 1.356 . S
N77 H89 0.984 . S
N77 H90 0.985 . S
N78 C80 1.356 . S
N78 H83 0.984 . S
N78 H84 0.985 . S
C79 C73 1.379 . S
C79 C76 1.363 1_455 S
C79 N77 1.356 . S
C80 C74 1.363 . S
C80 C75 1.379 . S
C80 N78 1.356 . S
N81 C73 1.356 . S
N81 H87 0.984 . S
N81 H88 0.984 . S
N82 C75 1.356 . S
N82 H85 0.984 . S
N82 H86 0.985 . S
H83 N78 0.984 . S
H84 N78 0.985 . S
H85 N82 0.984 . S
H86 N82 0.985 . S
H87 N81 0.984 . S
H88 N81 0.984 . S
H89 N77 0.984 . S
H90 N77 0.985 . S
C91 C92 1.358 1_545 S
C91 C97 1.379 . S
C91 N99 1.356 . S
C92 C91 1.358 1_565 S
C92 C98 1.368 . S
C93 C94 1.363 . S
C93 C98 1.379 . S
C93 N100 1.356 . S
C94 C93 1.363 . S
C94 C97 1.363 1_565 S
N95 C97 1.356 . S
N95 H107 0.984 . S
N95 H108 0.985 . S
N96 C98 1.356 . S
N96 H101 0.984 . S
N96 H102 0.985 . S
C97 C91 1.379 . S
C97 C94 1.363 1_545 S
C97 N95 1.356 . S
C98 C92 1.368 . S
C98 C93 1.379 . S
C98 N96 1.356 . S
N99 C91 1.356 . S
N99 H105 0.984 . S
N99 H106 0.984 . S
N100 C93 1.356 . S
N100 H103 0.984 . S
N100 H104 0.985 . S
H101 N96 0.984 . S
H102 N96 0.985 . S
H103 N100 0.984 . S
H104 N100 0.985 . S
H105 N99 0.984 . S
H106 N99 0.984 . S
H107 N95 0.984 . S
H108 N95 0.985 . S
C109 C110 1.363 1_655 S
C109 C115 1.379 . S
C109 N117 1.356 . S
C110 C109 1.363 1_455 S
C110 C116 1.363 . S
C111 C112 1.363 . S
C111 C116 1.379 . S
C111 N118 1.356 . S
C112 C111 1.363 . S
C112 C115 1.363 1_455 S
N113 C115 1.356 . S
N113 H125 0.984 . S
N113 H126 0.985 . S
N114 C116 1.356 . S
N114 H119 0.984 . S
N114 H120 0.985 . S
C115 C109 1.379 . S
C115 C112 1.363 1_655 S
C115 N113 1.356 . S
C116 C110 1.363 . S
C116 C111 1.379 . S
C116 N114 1.356 . S
N117 C109 1.356 . S
N117 H123 0.984 . S
N117 H124 0.984 . S
N118 C111 1.356 . S
N118 H121 0.984 . S
N118 H122 0.985 . S
H119 N114 0.984 . S
H120 N114 0.985 . S
H121 N118 0.984 . S
H122 N118 0.985 . S
H123 N117 0.984 . S
H124 N117 0.984 . S
H125 N113 0.984 . S
H126 N113 0.985 . S
C127 C128 1.363 . S
C127 C133 1.379 . S
C127 N135 1.356 . S
C128 C127 1.363 . S
C128 C134 1.363 1_565 S
C129 C130 1.363 . S
C129 C134 1.379 . S
C129 N136 1.356 . S
C130 C129 1.363 . S
C130 C133 1.363 1_545 S
N131 C133 1.356 . S
N131 H143 0.984 . S
N131 H144 0.985 . S
N132 C134 1.356 . S
N132 H137 0.984 . S
N132 H138 0.985 . S
C133 C127 1.379 . S
C133 C130 1.363 1_565 S
C133 N131 1.356 . S
C134 C128 1.363 1_545 S
C134 C129 1.379 . S
C134 N132 1.356 . S
N135 C127 1.356 . S
N135 H141 0.984 . S
N135 H142 0.984 . S
N136 C129 1.356 . S
N136 H139 0.984 . S
N136 H140 0.985 . S
H137 N132 0.984 . S
H138 N132 0.985 . S
H139 N136 0.984 . S
H140 N136 0.985 . S
H141 N135 0.984 . S
H142 N135 0.984 . S
H143 N131 0.984 . S
H144 N131 0.985 . S
C145 C146 1.363 1_655 S
C145 C151 1.379 . S
C145 N153 1.356 . S
C146 C145 1.363 1_455 S
C146 C152 1.363 . S
C147 C148 1.363 1_455 S
C147 C152 1.379 . S
C147 N154 1.356 . S
C148 C147 1.363 1_655 S
C148 C151 1.363 . S
N149 C151 1.356 . S
N149 H161 0.984 . S
N149 H162 0.985 . S
N150 C152 1.356 . S
N150 H155 0.984 . S
N150 H156 0.985 . S
C151 C145 1.379 . S
C151 C148 1.363 . S
C151 N149 1.356 . S
C152 C146 1.363 . S
C152 C147 1.379 . S
C152 N150 1.356 . S
N153 C145 1.356 . S
N153 H159 0.984 . S
N153 H160 0.984 . S
N154 C147 1.356 . S
N154 H157 0.984 . S
N154 H158 0.985 . S
H155 N150 0.984 . S
H156 N150 0.985 . S
H157 N154 0.984 . S
H158 N154 0.985 . S
H159 N153 0.984 . S
H160 N153 0.984 . S
H161 N149 0.984 . S
H162 N149 0.985 . S
C163 C164 1.355 1_565 S
C163 C169 1.379 . S
C163 N171 1.356 . S
C164 C163 1.355 1_545 S
C164 C170 1.370 . S
C165 C166 1.363 1_545 S
C165 C170 1.379 . S
C165 N172 1.356 . S
C166 C165 1.363 1_565 S
C166 C169 1.363 . S
N167 C169 1.356 . S
N167 H179 0.984 . S
N167 H180 0.985 . S
N168 C170 1.356 . S
N168 H173 0.984 . S
N168 H174 0.985 . S
C169 C163 1.379 . S
C169 C166 1.363 . S
C169 N167 1.356 . S
C170 C164 1.370 . S
C170 C165 1.379 . S
C170 N168 1.356 . S
N171 C163 1.356 . S
N171 H177 0.984 . S
N171 H178 0.984 . S
N172 C165 1.356 . S
N172 H175 0.984 . S
N172 H176 0.985 . S
H173 N168 0.984 . S
H174 N168 0.985 . S
H175 N172 0.984 . S
H176 N172 0.985 . S
H177 N171 0.984 . S
H178 N171 0.984 . S
H179 N167 0.984 . S
H180 N167 0.985 . S
C181 C182 1.363 1_455 S
C181 C187 1.379 . S
C181 N189 1.356 . S
C182 C181 1.363 1_655 S
C182 C188 1.363 . S
C183 C184 1.363 1_655 S
C183 C188 1.379 . S
C183 N190 1.356 . S
C184 C183 1.363 1_455 S
C184 C187 1.363 . S
N185 C187 1.356 . S
N185 H197 0.984 . S
N185 H198 0.985 . S
N186 C188 1.356 . S
N186 H191 0.984 . S
N186 H192 0.985 . S
C187 C181 1.379 . S
C187 C184 1.363 . S
C187 N185 1.356 . S
C188 C182 1.363 . S
C188 C183 1.379 . S
C188 N186 1.356 . S
N189 C181 1.356 . S
N189 H195 0.984 . S
N189 H196 0.984 . S
N190 C183 1.356 . S
N190 H193 0.984 . S
N190 H194 0.985 . S
H191 N186 0.984 . S
H192 N186 0.985 . S
H193 N190 0.984 . S
H194 N190 0.985 . S
H195 N189 0.984 . S
H196 N189 0.984 . S
H197 N185 0.984 . S
H198 N185 0.985 . S
C199 C200 1.363 . S
C199 C205 1.379 . S
C199 N207 1.356 . S
C200 C199 1.363 . S
C200 C206 1.363 1_545 S
C201 C202 1.363 1_565 S
C201 C206 1.379 . S
C201 N208 1.356 . S
C202 C201 1.363 1_545 S
C202 C205 1.363 . S
N203 C205 1.356 . S
N203 H215 0.984 . S
N203 H216 0.985 . S
N204 C206 1.356 . S
N204 H209 0.984 . S
N204 H210 0.985 . S
C205 C199 1.379 . S
C205 C202 1.363 . S
C205 N203 1.356 . S
C206 C200 1.363 1_565 S
C206 C201 1.379 . S
C206 N204 1.356 . S
N207 C199 1.356 . S
N207 H213 0.984 . S
N207 H214 0.984 . S
N208 C201 1.356 . S
N208 H211 0.984 . S
N208 H212 0.985 . S
H209 N204 0.984 . S
H210 N204 0.985 . S
H211 N208 0.984 . S
H212 N208 0.985 . S
H213 N207 0.984 . S
H214 N207 0.984 . S
H215 N203 0.984 . S
H216 N203 0.985 . S
C74 C23 1.524 1_655 S
C76 C42 1.596 . S
C92 C22 1.641 . S
C94 C62 1.666 . S
C110 C21 1.828 . S
C112 C51 1.818 . S
C128 C24 1.655 . S
C130 C71 1.731 . S
C146 C27 1.509 1_455 S
C148 C48 1.596 . S
C164 C26 1.650 . S
C166 C68 1.666 . S
C184 C45 1.825 . S
C182 C25 1.830 . S
C200 C28 1.657 . S
C202 C65 1.719 . S
