# Generated by pormake.
# Topology pyr, (3,6)-cn, num edge types: 1
# Building blocks:
#     Node 0, Type 0, BuildingBlock: ESEHIV_clean_linker_0, # of connection points: 3
#     Node 1, Type 0, BuildingBlock: ESEHIV_clean_linker_0, # of connection points: 3
#     Node 2, Type 0, BuildingBlock: ESEHIV_clean_linker_0, # of connection points: 3
#     Node 3, Type 0, BuildingBlock: ESEHIV_clean_linker_0, # of connection points: 3
#     Node 4, Type 0, BuildingBlock: ESEHIV_clean_linker_0, # of connection points: 3
#     Node 5, Type 0, BuildingBlock: ESEHIV_clean_linker_0, # of connection points: 3
#     Node 6, Type 0, BuildingBlock: ESEHIV_clean_linker_0, # of connection points: 3
#     Node 7, Type 0, BuildingBlock: ESEHIV_clean_linker_0, # of connection points: 3
#     Node 8, Type 1, BuildingBlock: VOLQOD_clean_sbu_1, # of connection points: 6
#     Node 9, Type 1, BuildingBlock: VOLQOD_clean_sbu_1, # of connection points: 6
#     Node 10, Type 1, BuildingBlock: VOLQOD_clean_sbu_1, # of connection points: 6
#     Node 11, Type 1, BuildingBlock: VOLQOD_clean_sbu_1, # of connection points: 6
#     Edge 12, Type (0, 1), None
#     Edge 13, Type (0, 1), None
#     Edge 14, Type (0, 1), None
#     Edge 15, Type (0, 1), None
#     Edge 16, Type (0, 1), None
#     Edge 17, Type (0, 1), None
#     Edge 18, Type (0, 1), None
#     Edge 19, Type (0, 1), None
#     Edge 20, Type (0, 1), None
#     Edge 21, Type (0, 1), None
#     Edge 22, Type (0, 1), None
#     Edge 23, Type (0, 1), None
#     Edge 24, Type (0, 1), None
#     Edge 25, Type (0, 1), None
#     Edge 26, Type (0, 1), None
#     Edge 27, Type (0, 1), None
#     Edge 28, Type (0, 1), None
#     Edge 29, Type (0, 1), None
#     Edge 30, Type (0, 1), None
#     Edge 31, Type (0, 1), None
#     Edge 32, Type (0, 1), None
#     Edge 33, Type (0, 1), None
#     Edge 34, Type (0, 1), None
#     Edge 35, Type (0, 1), None
# Relax obj value: 0.036
# Max RMSD: 0.117
# Mean RMSD: 0.043
data_MOF--net-pry--node1-VOLQOD_clean_sbu_1--node2-ESEHIV_clean_linker_0--edge1-none
_symmetry_space_group_name_H-M    P1
_symmetry_Int_Tables_number       1
_symmetry_cell_setting            triclinic
loop_
_symmetry_equiv_pos_as_xyz
'x, y, z'
_cell_length_a     15.701656
_cell_length_b     15.707343
_cell_length_c     15.722996
_cell_angle_alpha  89.983219
_cell_angle_beta   90.01507
_cell_angle_gamma 90.017783
loop_
_atom_site_label
_atom_site_type_symbol
_atom_site_fract_x
_atom_site_fract_y
_atom_site_fract_z
_atom_type_partial_charge
H0 H -0.00718 0.18552 0.1963 0.0
H1 H 0.192 -0.00047 0.19292 0.0
H2 H 0.18268 0.19128 -0.00203 0.0
C3 C 0.04684 0.15721 0.164 0.0
C4 C 0.08155 0.19658 0.09155 0.0
C5 C 0.08705 0.08609 0.19998 0.0
C6 C 0.16023 0.05265 0.1623 0.0
C7 C 0.19499 0.08981 0.08883 0.0
C8 C 0.15435 0.16074 0.05293 0.0
H9 H 0.30269 0.00195 0.68946 0.0
H10 H 0.50089 0.81176 0.69567 0.0
H11 H 0.30631 0.80305 0.50346 0.0
C12 C 0.33504 0.94793 0.66122 0.0
C13 C 0.29916 0.90789 0.59002 0.0
C14 C 0.40739 0.91306 0.70075 0.0
C15 C 0.44602 0.84023 0.66501 0.0
C16 C 0.41023 0.79976 0.59398 0.0
C17 C 0.33687 0.83471 0.55664 0.0
H18 H 0.683 0.30816 0.00714 0.0
H19 H 0.68683 0.50319 0.81546 0.0
H20 H 0.49163 0.3114 0.81174 0.0
C21 C 0.65364 0.33885 0.9528 0.0
C22 C 0.58133 0.30216 0.91463 0.0
C23 C 0.69254 0.41086 0.91728 0.0
C24 C 0.65603 0.44889 0.84486 0.0
C25 C 0.58405 0.41327 0.80596 0.0
C26 C 0.54588 0.3409 0.84254 0.0
H27 H 0.80977 0.69186 0.50597 0.0
H28 H -0.00465 0.68884 0.30662 0.0
H29 H 0.80333 0.49391 0.31581 0.0
C30 C 0.83794 0.65964 0.45188 0.0
C31 C 0.79837 0.58729 0.41708 0.0
C32 C 0.90903 0.69569 0.41167 0.0
C33 C 0.94226 0.65816 0.33839 0.0
C34 C 0.90493 0.58475 0.30355 0.0
C35 C 0.83402 0.5488 0.34419 0.0
H36 H 0.80332 0.00616 0.82234 0.0
H37 H 0.00054 0.81548 0.80842 0.0
H38 H 0.81449 0.80448 0.00678 0.0
C39 C 0.83696 0.95236 0.84954 0.0
C40 C 0.80364 0.91155 0.92171 0.0
C41 C 0.90779 0.91776 0.80739 0.0
C42 C 0.94718 0.84477 0.84101 0.0
C43 C 0.91466 0.80506 0.91331 0.0
C44 C 0.84302 0.8385 0.95389 0.0
H45 H 0.49204 0.18079 0.30798 0.0
H46 H 0.69017 -0.0057 0.31939 0.0
H47 H 0.67602 0.19119 0.51015 0.0
C48 C 0.54483 0.1521 0.3421 0.0
C49 C 0.57686 0.19125 0.41528 0.0
C50 C 0.5854 0.08043 0.30873 0.0
C51 C 0.65757 0.04769 0.34861 0.0
C52 C 0.69108 0.08689 0.4217 0.0
C53 C 0.64889 0.15772 0.45625 0.0
H54 H 0.31663 0.6963 -0.00131 0.0
H55 H 0.29814 0.49478 0.18272 0.0
H56 H 0.50013 0.6786 0.20078 0.0
C57 C 0.34372 0.66139 0.05176 0.0
C58 C 0.41604 0.69286 0.0934 0.0
C59 C 0.30197 0.58918 0.08307 0.0
C60 C 0.33322 0.54773 0.15553 0.0
C61 C 0.40548 0.57905 0.1972 0.0
C62 C 0.44716 0.65136 0.16577 0.0
H63 H -0.0114 0.31833 0.69565 0.0
H64 H 0.17898 0.30489 0.4983 0.0
H65 H 0.19064 0.50268 0.68487 0.0
C66 C 0.04241 0.3456 0.66208 0.0
C67 C 0.0834 0.41766 0.69555 0.0
C68 C 0.07685 0.30362 0.59113 0.0
C69 C 0.14982 0.33735 0.55177 0.0
C70 C 0.18973 0.40951 0.58447 0.0
C71 C 0.15648 0.44989 0.65624 0.0
O72 O 0.9777 0.18767 0.5951 0.0
Zn73 Zn 0.92249 0.07212 0.57612 0.0
O74 O -0.00446 -0.00074 0.50325 0.0
Zn75 Zn 0.93689 0.96864 0.39935 0.0
Zn76 Zn 0.09952 0.05804 0.47271 0.0
Zn77 Zn 0.02615 0.89529 0.5619 0.0
O78 O 0.92487 0.84228 0.38657 0.0
O79 O 0.9757 0.7905 0.50799 0.0
O80 O 0.80695 0.09097 0.52084 0.0
O81 O 0.8203 0.01412 0.40317 0.0
O82 O -0.00923 0.01926 0.29472 0.0
O83 O 0.11226 0.07029 0.34644 0.0
O84 O 0.20434 0.00418 0.52322 0.0
O85 O 0.90358 0.01683 0.69153 0.0
O86 O 0.15255 0.88268 0.57412 0.0
O87 O 0.98052 0.89908 0.6783 0.0
C88 C 0.04676 0.21839 0.56544 0.0
C89 C 0.93917 0.78029 0.43662 0.0
C90 C 0.06214 0.05597 0.28452 0.0
C91 C 0.77632 0.06123 0.45185 0.0
C92 C 0.21455 0.93281 0.55985 0.0
C93 C 0.93334 0.94781 0.72217 0.0
O94 O 0.09557 0.17452 0.51833 0.0
O95 O 0.48359 0.18475 0.91206 0.0
Zn96 Zn 0.42599 0.06992 0.93194 0.0
O97 O 0.49861 -0.0025 0.0046 0.0
Zn98 Zn 0.53126 0.89432 0.94516 0.0
Zn99 Zn 0.60162 0.05783 0.03713 0.0
Zn100 Zn 0.43857 0.96521 0.10756 0.0
O101 O 0.48498 0.78867 0.0004 0.0
O102 O 0.42851 0.83905 0.1198 0.0
O103 O 0.40564 0.0123 0.81698 0.0
O104 O 0.48462 0.89557 0.82814 0.0
O105 O 0.65754 0.88446 0.93415 0.0
O106 O 0.70738 0.00478 -0.01046 0.0
O107 O 0.61266 0.06796 0.16297 0.0
O108 O 0.31119 0.09109 -0.01052 0.0
O109 O 0.49198 0.01314 0.2126 0.0
O110 O 0.32173 0.01147 0.10567 0.0
C111 C 0.55154 0.21727 0.94276 0.0
C112 C 0.44765 0.77739 0.07117 0.0
C113 C 0.71883 0.93424 0.95192 0.0
C114 C 0.43558 0.94361 0.78538 0.0
C115 C 0.56273 0.05043 0.22405 0.0
C116 C 0.27942 0.0612 0.05804 0.0
O117 O 0.59959 0.17519 -0.00777 0.0
O118 O 0.5868 0.51097 0.68867 0.0
Zn119 Zn 0.56702 0.56864 0.57398 0.0
O120 O 0.49419 0.49619 0.50155 0.0
Zn121 Zn 0.55363 0.46356 0.39843 0.0
Zn122 Zn 0.46161 0.39317 0.56172 0.0
Zn123 Zn 0.39115 0.55635 0.46932 0.0
O124 O 0.49842 0.51001 0.29294 0.0
O125 O 0.37892 0.56659 0.34326 0.0
O126 O 0.68213 0.58893 0.51639 0.0
O127 O 0.67083 0.51006 0.39973 0.0
O128 O 0.56447 0.33733 0.38836 0.0
O129 O 0.50914 0.28745 0.50859 0.0
O130 O 0.33564 0.38225 0.57182 0.0
O131 O 0.50956 0.68347 0.59524 0.0
O132 O 0.28594 0.50297 0.51721 0.0
O133 O 0.3932 0.6731 0.51569 0.0
C134 C 0.55601 0.44303 0.72111 0.0
C135 C 0.42764 0.54746 0.28167 0.0
C136 C 0.54668 0.27603 0.43805 0.0
C137 C 0.7137 0.55903 0.44773 0.0
C138 C 0.27448 0.4322 0.5544 0.0
C139 C 0.44094 0.71532 0.56539 0.0
O140 O 0.50651 0.39503 0.679 0.0
O141 O 0.90348 0.4855 0.18735 0.0
Zn142 Zn 0.92469 0.42797 0.07267 0.0
O143 O -0.00272 0.50064 0.00022 0.0
Zn144 Zn 0.93709 0.53323 0.89728 0.0
Zn145 Zn 0.02957 0.60367 0.06025 0.0
Zn146 Zn 0.10047 0.44107 0.96764 0.0
O147 O -0.00985 0.48551 0.79171 0.0
O148 O 0.11047 0.43001 0.8415 0.0
O149 O 0.80987 0.40822 0.01501 0.0
O150 O 0.81962 0.48848 0.89919 0.0
O151 O 0.9272 0.65917 0.88618 0.0
O152 O 0.98179 0.70886 0.00681 0.0
O153 O 0.15577 0.61573 0.0705 0.0
O154 O 0.98223 0.31287 0.09308 0.0
O155 O 0.20615 0.49626 0.01399 0.0
O156 O 0.09906 0.32398 0.01427 0.0
C157 C 0.93341 0.55409 0.21914 0.0
C158 C 0.06069 0.44781 0.78029 0.0
C159 C 0.9447 0.72033 0.93604 0.0
C160 C 0.77743 0.439 0.94713 0.0
C161 C 0.21743 0.56702 0.05141 0.0
C162 C 0.05096 0.28122 0.06325 0.0
O163 O 0.98317 0.60178 0.1769 0.0
loop_
_geom_bond_atom_site_label_1
_geom_bond_atom_site_label_2
_geom_bond_distance
_geom_bond_site_symmetry_2
_ccdc_geom_bond_type
H0 C3 0.931 . S
H1 C6 0.928 . S
H2 C8 0.930 . S
C3 H0 0.931 . S
C3 C4 1.413 . S
C3 C5 1.360 . S
C4 C3 1.413 . S
C4 C8 1.429 . S
C5 C3 1.360 . S
C5 C6 1.372 . S
C6 H1 0.928 . S
C6 C5 1.372 . S
C6 C7 1.404 . S
C7 C6 1.404 . S
C7 C8 1.391 . S
C8 H2 0.930 . S
C8 C4 1.429 . S
C8 C7 1.391 . S
H9 C12 0.931 . S
H10 C15 0.928 . S
H11 C17 0.930 . S
C12 H9 0.931 . S
C12 C13 1.413 . S
C12 C14 1.360 . S
C13 C12 1.413 . S
C13 C17 1.429 . S
C14 C12 1.360 . S
C14 C15 1.372 . S
C15 H10 0.928 . S
C15 C14 1.372 . S
C15 C16 1.404 . S
C16 C15 1.404 . S
C16 C17 1.391 . S
C17 H11 0.930 . S
C17 C13 1.429 . S
C17 C16 1.391 . S
H18 C21 0.931 1_554 S
H19 C24 0.928 . S
H20 C26 0.930 . S
C21 H18 0.931 1_556 S
C21 C22 1.413 . S
C21 C23 1.360 . S
C22 C21 1.413 . S
C22 C26 1.429 . S
C23 C21 1.360 . S
C23 C24 1.372 . S
C24 H19 0.928 . S
C24 C23 1.372 . S
C24 C25 1.404 . S
C25 C24 1.404 . S
C25 C26 1.391 . S
C26 H20 0.930 . S
C26 C22 1.429 . S
C26 C25 1.391 . S
H27 C30 0.931 . S
H28 C33 0.928 1_455 S
H29 C35 0.930 . S
C30 H27 0.931 . S
C30 C31 1.413 . S
C30 C32 1.360 . S
C31 C30 1.413 . S
C31 C35 1.429 . S
C32 C30 1.360 . S
C32 C33 1.372 . S
C33 H28 0.928 1_655 S
C33 C32 1.372 . S
C33 C34 1.404 . S
C34 C33 1.404 . S
C34 C35 1.391 . S
C35 H29 0.930 . S
C35 C31 1.429 . S
C35 C34 1.391 . S
H36 C39 0.931 . S
H37 C42 0.928 1_455 S
H38 C44 0.930 1_554 S
C39 H36 0.931 . S
C39 C40 1.413 1_545 S
C39 C41 1.360 1_545 S
C40 C39 1.413 1_565 S
C40 C44 1.429 . S
C41 C39 1.360 1_565 S
C41 C42 1.372 . S
C42 H37 0.928 1_655 S
C42 C41 1.372 . S
C42 C43 1.404 . S
C43 C42 1.404 . S
C43 C44 1.391 . S
C44 H38 0.930 1_556 S
C44 C40 1.429 . S
C44 C43 1.391 . S
H45 C48 0.931 . S
H46 C51 0.928 1_565 S
H47 C53 0.930 . S
C48 H45 0.931 . S
C48 C49 1.413 . S
C48 C50 1.360 . S
C49 C48 1.413 . S
C49 C53 1.429 . S
C50 C48 1.360 . S
C50 C51 1.372 . S
C51 H46 0.928 1_545 S
C51 C50 1.372 . S
C51 C52 1.404 . S
C52 C51 1.404 . S
C52 C53 1.391 . S
C53 H47 0.930 . S
C53 C49 1.429 . S
C53 C52 1.391 . S
H54 C57 0.931 1_556 S
H55 C60 0.928 . S
H56 C62 0.930 . S
C57 H54 0.931 1_554 S
C57 C58 1.413 . S
C57 C59 1.360 . S
C58 C57 1.413 . S
C58 C62 1.429 . S
C59 C57 1.360 . S
C59 C60 1.372 . S
C60 H55 0.928 . S
C60 C59 1.372 . S
C60 C61 1.404 . S
C61 C60 1.404 . S
C61 C62 1.391 . S
C62 H56 0.930 . S
C62 C58 1.429 . S
C62 C61 1.391 . S
H63 C66 0.931 1_655 S
H64 C69 0.928 . S
H65 C71 0.930 . S
C66 H63 0.931 1_455 S
C66 C67 1.413 . S
C66 C68 1.360 . S
C67 C66 1.413 . S
C67 C71 1.429 . S
C68 C66 1.360 . S
C68 C69 1.372 . S
C69 H64 0.928 . S
C69 C68 1.372 . S
C69 C70 1.404 . S
C70 C69 1.404 . S
C70 C71 1.391 . S
C71 H65 0.930 . S
C71 C67 1.429 . S
C71 C70 1.391 . S
O72 Zn73 1.953 . S
O72 C88 1.225 1_655 S
Zn73 O72 1.953 . S
Zn73 O74 1.949 1_655 S
Zn73 O80 1.919 . S
Zn73 O85 1.924 . S
O74 Zn73 1.949 1_455 S
O74 Zn75 1.923 1_445 S
O74 Zn76 1.950 . S
O74 Zn77 1.945 1_545 S
Zn75 O74 1.923 1_665 S
Zn75 O78 1.933 . S
Zn75 O81 1.941 1_565 S
Zn75 O82 1.965 1_665 S
Zn76 O74 1.950 . S
Zn76 O83 1.938 . S
Zn76 O84 1.906 1_545 S
Zn76 O94 1.953 . S
Zn77 O74 1.945 1_565 S
Zn77 O79 1.932 1_455 S
Zn77 O86 1.977 . S
Zn77 O87 1.910 1_455 S
O78 Zn75 1.933 . S
O78 C89 1.226 . S
O79 Zn77 1.932 1_655 S
O79 C89 1.307 . S
O80 Zn73 1.919 . S
O80 C91 1.253 . S
O81 Zn75 1.941 1_545 S
O81 C91 1.283 . S
O82 Zn75 1.965 1_445 S
O82 C90 1.303 . S
O83 Zn76 1.938 . S
O83 C90 1.247 . S
O84 Zn76 1.906 1_565 S
O84 C92 1.304 . S
O85 Zn73 1.924 . S
O85 C93 1.311 1_545 S
O86 Zn77 1.977 . S
O86 C92 1.272 . S
O87 Zn77 1.910 1_655 S
O87 C93 1.231 . S
C88 O72 1.225 1_455 S
C88 O94 1.298 . S
C89 O78 1.226 . S
C89 O79 1.307 . S
C90 O82 1.303 . S
C90 O83 1.247 . S
C91 O80 1.253 . S
C91 O81 1.283 . S
C92 O84 1.304 . S
C92 O86 1.272 . S
C93 O85 1.311 1_565 S
C93 O87 1.231 . S
O94 Zn76 1.953 . S
O94 C88 1.298 . S
O95 Zn96 1.953 . S
O95 C111 1.225 . S
Zn96 O95 1.953 . S
Zn96 O97 1.949 1_556 S
Zn96 O103 1.919 . S
Zn96 O108 1.924 . S
O97 Zn96 1.949 1_554 S
O97 Zn98 1.923 1_544 S
O97 Zn99 1.950 . S
O97 Zn100 1.945 1_545 S
Zn98 O97 1.923 1_566 S
Zn98 O101 1.933 1_556 S
Zn98 O104 1.941 . S
Zn98 O105 1.965 . S
Zn99 O97 1.950 . S
Zn99 O106 1.938 . S
Zn99 O107 1.906 . S
Zn99 O117 1.953 . S
Zn100 O97 1.945 1_565 S
Zn100 O102 1.932 . S
Zn100 O109 1.977 1_565 S
Zn100 O110 1.910 1_565 S
O101 Zn98 1.933 1_554 S
O101 C112 1.226 . S
O102 Zn100 1.932 . S
O102 C112 1.307 . S
O103 Zn96 1.919 . S
O103 C114 1.253 1_545 S
O104 Zn98 1.941 . S
O104 C114 1.283 . S
O105 Zn98 1.965 . S
O105 C113 1.303 . S
O106 Zn99 1.938 . S
O106 C113 1.247 1_544 S
O107 Zn99 1.906 . S
O107 C115 1.304 . S
O108 Zn96 1.924 . S
O108 C116 1.311 1_556 S
O109 Zn100 1.977 1_545 S
O109 C115 1.272 . S
O110 Zn100 1.910 1_545 S
O110 C116 1.231 . S
C111 O95 1.225 . S
C111 O117 1.298 1_556 S
C112 O101 1.226 . S
C112 O102 1.307 . S
C113 O105 1.303 . S
C113 O106 1.247 1_566 S
C114 O103 1.253 1_565 S
C114 O104 1.283 . S
C115 O107 1.304 . S
C115 O109 1.272 . S
C116 O108 1.311 1_554 S
C116 O110 1.231 . S
O117 Zn99 1.953 . S
O117 C111 1.298 1_554 S
O118 Zn119 1.953 . S
O118 C134 1.225 . S
Zn119 O118 1.953 . S
Zn119 O120 1.949 . S
Zn119 O126 1.919 . S
Zn119 O131 1.924 . S
O120 Zn119 1.949 . S
O120 Zn121 1.923 . S
O120 Zn122 1.950 . S
O120 Zn123 1.945 . S
Zn121 O120 1.923 . S
Zn121 O124 1.933 . S
Zn121 O127 1.941 . S
Zn121 O128 1.965 . S
Zn122 O120 1.950 . S
Zn122 O129 1.938 . S
Zn122 O130 1.906 . S
Zn122 O140 1.953 . S
Zn123 O120 1.945 . S
Zn123 O125 1.932 . S
Zn123 O132 1.977 . S
Zn123 O133 1.910 . S
O124 Zn121 1.933 . S
O124 C135 1.226 . S
O125 Zn123 1.932 . S
O125 C135 1.307 . S
O126 Zn119 1.919 . S
O126 C137 1.253 . S
O127 Zn121 1.941 . S
O127 C137 1.283 . S
O128 Zn121 1.965 . S
O128 C136 1.303 . S
O129 Zn122 1.938 . S
O129 C136 1.247 . S
O130 Zn122 1.906 . S
O130 C138 1.304 . S
O131 Zn119 1.924 . S
O131 C139 1.311 . S
O132 Zn123 1.977 . S
O132 C138 1.272 . S
O133 Zn123 1.910 . S
O133 C139 1.231 . S
C134 O118 1.225 . S
C134 O140 1.298 . S
C135 O124 1.226 . S
C135 O125 1.307 . S
C136 O128 1.303 . S
C136 O129 1.247 . S
C137 O126 1.253 . S
C137 O127 1.283 . S
C138 O130 1.304 . S
C138 O132 1.272 . S
C139 O131 1.311 . S
C139 O133 1.231 . S
O140 Zn122 1.953 . S
O140 C134 1.298 . S
O141 Zn142 1.953 . S
O141 C157 1.225 . S
Zn142 O141 1.953 . S
Zn142 O143 1.949 1_655 S
Zn142 O149 1.919 . S
Zn142 O154 1.924 . S
O143 Zn142 1.949 1_455 S
O143 Zn144 1.923 1_454 S
O143 Zn145 1.950 . S
O143 Zn146 1.945 1_554 S
Zn144 O143 1.923 1_656 S
Zn144 O147 1.933 1_655 S
Zn144 O150 1.941 . S
Zn144 O151 1.965 . S
Zn145 O143 1.950 . S
Zn145 O152 1.938 . S
Zn145 O153 1.906 . S
Zn145 O163 1.953 . S
Zn146 O143 1.945 1_556 S
Zn146 O148 1.932 . S
Zn146 O155 1.977 1_556 S
Zn146 O156 1.910 1_556 S
O147 Zn144 1.933 1_455 S
O147 C158 1.226 . S
O148 Zn146 1.932 . S
O148 C158 1.307 . S
O149 Zn142 1.919 . S
O149 C160 1.253 1_554 S
O150 Zn144 1.941 . S
O150 C160 1.283 . S
O151 Zn144 1.965 . S
O151 C159 1.303 . S
O152 Zn145 1.938 . S
O152 C159 1.247 1_454 S
O153 Zn145 1.906 . S
O153 C161 1.304 . S
O154 Zn142 1.924 . S
O154 C162 1.311 1_655 S
O155 Zn146 1.977 1_554 S
O155 C161 1.272 . S
O156 Zn146 1.910 1_554 S
O156 C162 1.231 . S
C157 O141 1.225 . S
C157 O163 1.298 1_655 S
C158 O147 1.226 . S
C158 O148 1.307 . S
C159 O151 1.303 . S
C159 O152 1.247 1_656 S
C160 O149 1.253 1_556 S
C160 O150 1.283 . S
C161 O153 1.304 . S
C161 O155 1.272 . S
C162 O154 1.311 1_455 S
C162 O156 1.231 . S
O163 Zn145 1.953 . S
O163 C157 1.298 1_455 S
C5 C90 1.601 . S
C14 C114 1.540 . S
C134 C25 1.424 . S
C34 C157 1.421 . S
C116 C7 1.689 . S
C92 C13 1.654 . S
C160 C23 1.540 . S
C137 C31 1.521 . S
C4 C162 1.487 . S
C111 C22 1.575 . S
C32 C89 1.560 . S
C16 C139 1.459 . S
C93 C41 1.619 . S
C50 C115 1.566 . S
C61 C135 1.667 . S
C67 C158 1.684 . S
C40 C113 1.492 . S
C91 C52 1.611 . S
C161 C59 1.504 . S
C138 C70 1.508 . S
C43 C159 1.720 . S
C112 C58 1.585 . S
C88 C68 1.584 . S
C49 C136 1.707 . S
