# Generated by pormake.
# Topology anh, (6,3)-cn, num edge types: 1
# Building blocks:
#     Node 0, Type 0, BuildingBlock: VOLQOD_clean_sbu_1, # of connection points: 6
#     Node 1, Type 0, BuildingBlock: VOLQOD_clean_sbu_1, # of connection points: 6
#     Node 2, Type 0, BuildingBlock: VOLQOD_clean_sbu_1, # of connection points: 6
#     Node 3, Type 1, BuildingBlock: BETDAH_clean_linker_0, # of connection points: 3
#     Node 4, Type 1, BuildingBlock: BETDAH_clean_linker_0, # of connection points: 3
#     Node 5, Type 1, BuildingBlock: BETDAH_clean_linker_0, # of connection points: 3
#     Node 6, Type 1, BuildingBlock: BETDAH_clean_linker_0, # of connection points: 3
#     Node 7, Type 1, BuildingBlock: BETDAH_clean_linker_0, # of connection points: 3
#     Node 8, Type 1, BuildingBlock: BETDAH_clean_linker_0, # of connection points: 3
#     Edge 9, Type (0, 1), None
#     Edge 10, Type (0, 1), None
#     Edge 11, Type (0, 1), None
#     Edge 12, Type (0, 1), None
#     Edge 13, Type (0, 1), None
#     Edge 14, Type (0, 1), None
#     Edge 15, Type (0, 1), None
#     Edge 16, Type (0, 1), None
#     Edge 17, Type (0, 1), None
#     Edge 18, Type (0, 1), None
#     Edge 19, Type (0, 1), None
#     Edge 20, Type (0, 1), None
#     Edge 21, Type (0, 1), None
#     Edge 22, Type (0, 1), None
#     Edge 23, Type (0, 1), None
#     Edge 24, Type (0, 1), None
#     Edge 25, Type (0, 1), None
#     Edge 26, Type (0, 1), None
# Relax obj value: 0.164
# Max RMSD: 0.218
# Mean RMSD: 0.125
data_MOF--net-anh--node1-VOLQOD_clean_sbu_1--node2-BETDAH_clean_linker_0--edge1-none
_symmetry_space_group_name_H-M    P1
_symmetry_Int_Tables_number       1
_symmetry_cell_setting            triclinic
loop_
_symmetry_equiv_pos_as_xyz
'x, y, z'
_cell_length_a     14.386929
_cell_length_b     14.231495
_cell_length_c     24.35625
_cell_angle_alpha  92.623435
_cell_angle_beta   93.73589
_cell_angle_gamma 120.36837
loop_
_atom_site_label
_atom_site_type_symbol
_atom_site_fract_x
_atom_site_fract_y
_atom_site_fract_z
_atom_type_partial_charge
O0 O 0.00778 0.64141 0.30894 0.0
Zn1 Zn 0.01228 0.66456 0.22739 0.0
O2 O 0.02197 0.54779 0.18511 0.0
Zn3 Zn 0.89968 0.46335 0.13088 0.0
Zn4 Zn 0.0304 0.44894 0.23593 0.0
Zn5 Zn 0.14562 0.6111 0.14186 0.0
O6 O 0.93506 0.47866 0.05208 0.0
O7 O 0.10948 0.6049 0.05901 0.0
O8 O 0.87291 0.66442 0.19874 0.0
O9 O 0.80305 0.52127 0.13563 0.0
O10 O 0.81019 0.30742 0.14705 0.0
O11 O 0.89573 0.29749 0.22405 0.0
O12 O 0.16709 0.44338 0.22692 0.0
O13 O 0.15683 0.80992 0.22912 0.0
O14 O 0.23418 0.5417 0.15563 0.0
O15 O 0.24516 0.76457 0.17209 0.0
C16 C 0.02368 0.57722 0.33761 0.0
C17 C 0.02002 0.54224 0.02986 0.0
C18 C 0.81626 0.25493 0.18657 0.0
C19 C 0.79804 0.59743 0.16164 0.0
C20 C 0.23719 0.48229 0.19224 0.0
C21 C 0.24276 0.8331 0.20645 0.0
O22 O 0.0374 0.50318 0.31503 0.0
O23 O 0.43655 0.07082 0.39866 0.0
Zn24 Zn 0.41271 0.06483 0.48024 0.0
O25 O 0.52738 0.05315 0.52336 0.0
Zn26 Zn 0.61248 0.175 0.57771 0.0
Zn27 Zn 0.62422 0.0433 0.47393 0.0
Zn28 Zn 0.46363 0.92855 0.56676 0.0
O29 O 0.59717 0.13874 0.65647 0.0
O30 O 0.46377 0.96563 0.64795 0.0
O31 O 0.41205 0.2038 0.51016 0.0
O32 O 0.55567 0.27253 0.57292 0.0
O33 O 0.76689 0.26415 0.56248 0.0
O34 O 0.77305 0.17981 0.4848 0.0
O35 O 0.63731 0.91083 0.48872 0.0
O36 O 0.26831 0.91964 0.4782 0.0
O37 O 0.53879 0.844 0.55938 0.0
O38 O 0.31363 0.82729 0.5344 0.0
C39 C 0.49706 0.05005 0.37071 0.0
C40 C 0.52806 0.05415 0.67757 0.0
C41 C 0.81712 0.2585 0.52266 0.0
C42 C 0.4791 0.27787 0.54759 0.0
C43 C 0.60165 0.84309 0.52537 0.0
C44 C 0.24551 0.83168 0.50032 0.0
O45 O 0.56794 0.03229 0.39414 0.0
O46 O 0.43527 0.45215 0.72764 0.0
Zn47 Zn 0.40865 0.41157 0.80525 0.0
O48 O 0.52315 0.52432 0.85793 0.0
Zn49 Zn 0.469 0.59697 0.90444 0.0
Zn50 Zn 0.6445 0.62817 0.81751 0.0
Zn51 Zn 0.5673 0.45068 0.90876 0.0
O52 O 0.49843 0.59448 0.98754 0.0
O53 O 0.54423 0.46746 0.98784 0.0
O54 O 0.26307 0.39607 0.81824 0.0
O55 O 0.31118 0.53358 0.88286 0.0
O56 O 0.53979 0.75263 0.88912 0.0
O57 O 0.66756 0.78186 0.83357 0.0
O58 O 0.78317 0.62285 0.84181 0.0
O59 O 0.41775 0.27299 0.80339 0.0
O60 O 0.72357 0.51837 0.91136 0.0
O61 O 0.52019 0.29759 0.88082 0.0
C62 C 0.51678 0.52053 0.70461 0.0
C63 C 0.52464 0.53432 1.01351 0.0
C64 C 0.61621 0.81532 0.86168 0.0
C65 C 0.24044 0.45538 0.84902 0.0
C66 C 0.79914 0.57801 0.88293 0.0
C67 C 0.46804 0.24151 0.8357 0.0
O68 O 0.60523 0.59036 0.73322 0.0
H69 H 0.30278 0.93867 0.31006 0.0
H70 H 0.64613 0.11105 0.2965 0.0
H71 H 0.42379 0.9299 0.15395 0.0
C72 C 0.36938 0.96852 0.28452 0.0
C73 C 0.34905 0.92921 0.22832 0.0
C74 C 0.47657 0.03302 0.30967 0.0
C75 C 0.56351 0.06442 0.27722 0.0
C76 C 0.54385 0.02892 0.22067 0.0
C77 C 0.43731 0.96176 0.19685 0.0
N78 N 0.6293 0.04811 0.18827 0.0
C79 C 0.72529 0.14796 0.19075 0.0
H80 H 0.43416 0.32937 0.64432 0.0
H81 H 0.60081 0.67586 0.62981 0.0
H82 H 0.541 0.45183 0.48898 0.0
C83 C 0.46659 0.39731 0.61871 0.0
C84 C 0.47665 0.37731 0.56306 0.0
C85 C 0.51252 0.50458 0.64362 0.0
C86 C 0.5631 0.59273 0.61095 0.0
C87 C 0.56934 0.573 0.5543 0.0
C88 C 0.52703 0.46563 0.53103 0.0
N89 N 0.62694 0.65974 0.52106 0.0
C90 C 0.62173 0.75439 0.52461 0.0
H91 H 0.90114 0.61613 0.98341 0.0
H92 H 0.09935 0.48157 0.94489 0.0
H93 H 0.90857 0.52198 0.8145 0.0
C94 C 0.93684 0.58989 0.95275 0.0
C95 C 0.90151 0.58016 0.89655 0.0
C96 C 0.00761 0.55439 0.97047 0.0
C97 C 0.04823 0.51327 0.93115 0.0
C98 C 0.01355 0.50299 0.87443 0.0
C99 C 0.94081 0.5371 0.85754 0.0
N100 N 0.04089 0.44789 0.83429 0.0
C101 C 0.13707 0.44695 0.83957 0.0
H102 H 0.13905 0.77319 0.39688 0.0
H103 H 0.96038 0.42674 0.41294 0.0
H104 H 0.14727 0.65016 0.5542 0.0
C105 C 0.10832 0.70599 0.4229 0.0
C106 C 0.14854 0.72586 0.47902 0.0
C107 C 0.04153 0.59798 0.3985 0.0
C108 C 0.0089 0.51014 0.43164 0.0
C109 C 0.04553 0.52977 0.48817 0.0
C110 C 0.11488 0.6369 0.51125 0.0
N111 N 0.0244 0.44324 0.52143 0.0
C112 C 0.92399 0.34842 0.51898 0.0
H113 H 0.44392 0.15924 0.72928 0.0
H114 H 0.60485 0.97835 0.75711 0.0
H115 H 0.55669 0.14252 0.89493 0.0
C116 C 0.47793 0.12587 0.75804 0.0
C117 C 0.48911 0.15453 0.81519 0.0
C118 C 0.51974 0.06268 0.73713 0.0
C119 C 0.56944 0.0239 0.77346 0.0
C120 C 0.58244 0.05269 0.83052 0.0
C121 C 0.54251 0.1177 0.85101 0.0
N122 N 0.64376 0.02548 0.8675 0.0
C123 C 0.63969 0.9259 0.86162 0.0
H124 H 0.72269 0.61137 0.06191 0.0
H125 H 0.39599 0.49529 0.09762 0.0
H126 H 0.64376 0.56408 0.22907 0.0
C127 C 0.665 0.59452 0.09205 0.0
C128 C 0.6979 0.59923 0.1481 0.0
C129 C 0.55667 0.55749 0.0736 0.0
C130 C 0.48038 0.52802 0.11215 0.0
C131 C 0.51222 0.53154 0.16876 0.0
C132 C 0.62105 0.56821 0.18631 0.0
N133 N 0.43543 0.48876 0.20805 0.0
C134 C 0.33313 0.47582 0.19985 0.0
loop_
_geom_bond_atom_site_label_1
_geom_bond_atom_site_label_2
_geom_bond_distance
_geom_bond_site_symmetry_2
_ccdc_geom_bond_type
O0 Zn1 1.953 . S
O0 C16 1.225 . S
Zn1 O0 1.953 . S
Zn1 O2 1.949 . S
Zn1 O8 1.919 1_455 S
Zn1 O13 1.924 . S
O2 Zn1 1.949 . S
O2 Zn3 1.923 1_455 S
O2 Zn4 1.950 . S
O2 Zn5 1.945 . S
Zn3 O2 1.923 1_655 S
Zn3 O6 1.933 . S
Zn3 O9 1.941 . S
Zn3 O10 1.965 . S
Zn4 O2 1.950 . S
Zn4 O11 1.938 1_455 S
Zn4 O12 1.906 . S
Zn4 O22 1.953 . S
Zn5 O2 1.945 . S
Zn5 O7 1.932 . S
Zn5 O14 1.977 . S
Zn5 O15 1.910 . S
O6 Zn3 1.933 . S
O6 C17 1.226 1_655 S
O7 Zn5 1.932 . S
O7 C17 1.307 . S
O8 Zn1 1.919 1_655 S
O8 C19 1.253 . S
O9 Zn3 1.941 . S
O9 C19 1.283 . S
O10 Zn3 1.965 . S
O10 C18 1.303 . S
O11 Zn4 1.938 1_655 S
O11 C18 1.247 . S
O12 Zn4 1.906 . S
O12 C20 1.304 . S
O13 Zn1 1.924 . S
O13 C21 1.311 . S
O14 Zn5 1.977 . S
O14 C20 1.272 . S
O15 Zn5 1.910 . S
O15 C21 1.231 . S
C16 O0 1.225 . S
C16 O22 1.298 . S
C17 O6 1.226 1_455 S
C17 O7 1.307 . S
C18 O10 1.303 . S
C18 O11 1.247 . S
C19 O8 1.253 . S
C19 O9 1.283 . S
C20 O12 1.304 . S
C20 O14 1.272 . S
C21 O13 1.311 . S
C21 O15 1.231 . S
O22 Zn4 1.953 . S
O22 C16 1.298 . S
O23 Zn24 1.953 . S
O23 C39 1.225 . S
Zn24 O23 1.953 . S
Zn24 O25 1.949 . S
Zn24 O31 1.919 . S
Zn24 O36 1.924 1_545 S
O25 Zn24 1.949 . S
O25 Zn26 1.923 . S
O25 Zn27 1.950 . S
O25 Zn28 1.945 1_545 S
Zn26 O25 1.923 . S
Zn26 O29 1.933 . S
Zn26 O32 1.941 . S
Zn26 O33 1.965 . S
Zn27 O25 1.950 . S
Zn27 O34 1.938 . S
Zn27 O35 1.906 1_545 S
Zn27 O45 1.953 . S
Zn28 O25 1.945 1_565 S
Zn28 O30 1.932 . S
Zn28 O37 1.977 . S
Zn28 O38 1.910 . S
O29 Zn26 1.933 . S
O29 C40 1.226 . S
O30 Zn28 1.932 . S
O30 C40 1.307 1_565 S
O31 Zn24 1.919 . S
O31 C42 1.253 . S
O32 Zn26 1.941 . S
O32 C42 1.283 . S
O33 Zn26 1.965 . S
O33 C41 1.303 . S
O34 Zn27 1.938 . S
O34 C41 1.247 . S
O35 Zn27 1.906 1_565 S
O35 C43 1.304 . S
O36 Zn24 1.924 1_565 S
O36 C44 1.311 . S
O37 Zn28 1.977 . S
O37 C43 1.272 . S
O38 Zn28 1.910 . S
O38 C44 1.231 . S
C39 O23 1.225 . S
C39 O45 1.298 . S
C40 O29 1.226 . S
C40 O30 1.307 1_545 S
C41 O33 1.303 . S
C41 O34 1.247 . S
C42 O31 1.253 . S
C42 O32 1.283 . S
C43 O35 1.304 . S
C43 O37 1.272 . S
C44 O36 1.311 . S
C44 O38 1.231 . S
O45 Zn27 1.953 . S
O45 C39 1.298 . S
O46 Zn47 1.953 . S
O46 C62 1.225 . S
Zn47 O46 1.953 . S
Zn47 O48 1.949 . S
Zn47 O54 1.919 . S
Zn47 O59 1.924 . S
O48 Zn47 1.949 . S
O48 Zn49 1.923 . S
O48 Zn50 1.950 . S
O48 Zn51 1.945 . S
Zn49 O48 1.923 . S
Zn49 O52 1.933 . S
Zn49 O55 1.941 . S
Zn49 O56 1.965 . S
Zn50 O48 1.950 . S
Zn50 O57 1.938 . S
Zn50 O58 1.906 . S
Zn50 O68 1.953 . S
Zn51 O48 1.945 . S
Zn51 O53 1.932 . S
Zn51 O60 1.977 . S
Zn51 O61 1.910 . S
O52 Zn49 1.933 . S
O52 C63 1.226 . S
O53 Zn51 1.932 . S
O53 C63 1.307 . S
O54 Zn47 1.919 . S
O54 C65 1.253 . S
O55 Zn49 1.941 . S
O55 C65 1.283 . S
O56 Zn49 1.965 . S
O56 C64 1.303 . S
O57 Zn50 1.938 . S
O57 C64 1.247 . S
O58 Zn50 1.906 . S
O58 C66 1.304 . S
O59 Zn47 1.924 . S
O59 C67 1.311 . S
O60 Zn51 1.977 . S
O60 C66 1.272 . S
O61 Zn51 1.910 . S
O61 C67 1.231 . S
C62 O46 1.225 . S
C62 O68 1.298 . S
C63 O52 1.226 . S
C63 O53 1.307 . S
C64 O56 1.303 . S
C64 O57 1.247 . S
C65 O54 1.253 . S
C65 O55 1.283 . S
C66 O58 1.304 . S
C66 O60 1.272 . S
C67 O59 1.311 . S
C67 O61 1.231 . S
O68 Zn50 1.953 . S
O68 C62 1.298 . S
H69 C72 0.929 . S
H70 C75 0.929 . S
H71 C77 0.930 . S
C72 H69 0.929 . S
C72 C73 1.398 . S
C72 C74 1.396 1_565 S
C73 C72 1.398 . S
C73 C77 1.407 . S
C74 C72 1.396 1_545 S
C74 C75 1.394 . S
C75 H70 0.929 . S
C75 C74 1.394 . S
C75 C76 1.382 . S
C76 C75 1.382 . S
C76 C77 1.392 1_545 S
C76 N78 1.420 . S
C77 H71 0.930 . S
C77 C73 1.407 . S
C77 C76 1.392 1_565 S
N78 C76 1.420 . S
N78 C79 1.244 . S
C79 N78 1.244 . S
H80 C83 0.929 . S
H81 C86 0.929 . S
H82 C88 0.930 . S
C83 H80 0.929 . S
C83 C84 1.398 . S
C83 C85 1.396 . S
C84 C83 1.398 . S
C84 C88 1.407 . S
C85 C83 1.396 . S
C85 C86 1.394 . S
C86 H81 0.929 . S
C86 C85 1.394 . S
C86 C87 1.382 . S
C87 C86 1.382 . S
C87 C88 1.392 . S
C87 N89 1.420 . S
C88 H82 0.930 . S
C88 C84 1.407 . S
C88 C87 1.392 . S
N89 C87 1.420 . S
N89 C90 1.244 . S
C90 N89 1.244 . S
H91 C94 0.929 . S
H92 C97 0.929 . S
H93 C99 0.930 . S
C94 H91 0.929 . S
C94 C95 1.398 . S
C94 C96 1.396 1_655 S
C95 C94 1.398 . S
C95 C99 1.407 . S
C96 C94 1.396 1_455 S
C96 C97 1.394 . S
C97 H92 0.929 . S
C97 C96 1.394 . S
C97 C98 1.382 . S
C98 C97 1.382 . S
C98 C99 1.392 1_455 S
C98 N100 1.420 . S
C99 H93 0.930 . S
C99 C95 1.407 . S
C99 C98 1.392 1_655 S
N100 C98 1.420 . S
N100 C101 1.244 . S
C101 N100 1.244 . S
H102 C105 0.929 . S
H103 C108 0.929 1_655 S
H104 C110 0.930 . S
C105 H102 0.929 . S
C105 C106 1.398 . S
C105 C107 1.396 . S
C106 C105 1.398 . S
C106 C110 1.407 . S
C107 C105 1.396 . S
C107 C108 1.394 . S
C108 H103 0.929 1_455 S
C108 C107 1.394 . S
C108 C109 1.382 . S
C109 C108 1.382 . S
C109 C110 1.392 . S
C109 N111 1.420 1_455 S
C110 H104 0.930 . S
C110 C106 1.407 . S
C110 C109 1.392 . S
N111 C109 1.420 1_655 S
N111 C112 1.244 . S
C112 N111 1.244 . S
H113 C116 0.929 . S
H114 C119 0.929 1_565 S
H115 C121 0.930 . S
C116 H113 0.929 . S
C116 C117 1.398 . S
C116 C118 1.396 . S
C117 C116 1.398 . S
C117 C121 1.407 . S
C118 C116 1.396 . S
C118 C119 1.394 . S
C119 H114 0.929 1_545 S
C119 C118 1.394 . S
C119 C120 1.382 . S
C120 C119 1.382 . S
C120 C121 1.392 . S
C120 N122 1.420 1_545 S
C121 H115 0.930 . S
C121 C117 1.407 . S
C121 C120 1.392 . S
N122 C120 1.420 1_565 S
N122 C123 1.244 . S
C123 N122 1.244 . S
H124 C127 0.929 . S
H125 C130 0.929 . S
H126 C132 0.930 . S
C127 H124 0.929 . S
C127 C128 1.398 . S
C127 C129 1.396 . S
C128 C127 1.398 . S
C128 C132 1.407 . S
C129 C127 1.396 . S
C129 C130 1.394 . S
C130 H125 0.929 . S
C130 C129 1.394 . S
C130 C131 1.382 . S
C131 C130 1.382 . S
C131 C132 1.392 . S
C131 N133 1.420 . S
C132 H126 0.930 . S
C132 C128 1.407 . S
C132 C131 1.392 . S
N133 C131 1.420 . S
N133 C134 1.244 . S
C134 N133 1.244 . S
C20 C134 1.365 . S
C41 C112 1.569 . S
C64 C123 1.717 . S
C19 C128 1.834 . S
C106 C44 1.897 . S
C117 C67 1.704 . S
C43 C90 1.376 . S
C66 C95 1.500 . S
C21 C73 1.895 . S
C84 C42 1.781 . S
C101 C65 1.514 . S
C18 C79 1.576 . S
C96 C17 1.560 1_556 S
C39 C74 1.617 . S
C62 C85 1.557 . S
C118 C40 1.561 . S
C129 C63 1.539 1_554 S
C16 C107 1.611 . S
