# Generated by pormake.
# Topology zzz, (3,6)-cn, num edge types: 1
# Building blocks:
#     Node 0, Type 0, BuildingBlock: ESEHIV_clean_linker_0, # of connection points: 3
#     Node 1, Type 0, BuildingBlock: ESEHIV_clean_linker_0, # of connection points: 3
#     Node 2, Type 0, BuildingBlock: ESEHIV_clean_linker_0, # of connection points: 3
#     Node 3, Type 0, BuildingBlock: ESEHIV_clean_linker_0, # of connection points: 3
#     Node 4, Type 0, BuildingBlock: ESEHIV_clean_linker_0, # of connection points: 3
#     Node 5, Type 0, BuildingBlock: ESEHIV_clean_linker_0, # of connection points: 3
#     Node 6, Type 0, BuildingBlock: ESEHIV_clean_linker_0, # of connection points: 3
#     Node 7, Type 0, BuildingBlock: ESEHIV_clean_linker_0, # of connection points: 3
#     Node 8, Type 1, BuildingBlock: LEVNOQ01_clean_sbu_1, # of connection points: 6
#     Node 9, Type 1, BuildingBlock: LEVNOQ01_clean_sbu_1, # of connection points: 6
#     Node 10, Type 1, BuildingBlock: LEVNOQ01_clean_sbu_1, # of connection points: 6
#     Node 11, Type 1, BuildingBlock: LEVNOQ01_clean_sbu_1, # of connection points: 6
#     Edge 12, Type (0, 1), None
#     Edge 13, Type (0, 1), None
#     Edge 14, Type (0, 1), None
#     Edge 15, Type (0, 1), None
#     Edge 16, Type (0, 1), None
#     Edge 17, Type (0, 1), None
#     Edge 18, Type (0, 1), None
#     Edge 19, Type (0, 1), None
#     Edge 20, Type (0, 1), None
#     Edge 21, Type (0, 1), None
#     Edge 22, Type (0, 1), None
#     Edge 23, Type (0, 1), None
#     Edge 24, Type (0, 1), None
#     Edge 25, Type (0, 1), None
#     Edge 26, Type (0, 1), None
#     Edge 27, Type (0, 1), None
#     Edge 28, Type (0, 1), None
#     Edge 29, Type (0, 1), None
#     Edge 30, Type (0, 1), None
#     Edge 31, Type (0, 1), None
#     Edge 32, Type (0, 1), None
#     Edge 33, Type (0, 1), None
#     Edge 34, Type (0, 1), None
#     Edge 35, Type (0, 1), None
# Relax obj value: 0.316
# Max RMSD: 0.223
# Mean RMSD: 0.205
data_MOF--net-zzz--node1-LEVNOQ01_clean_sbu_1--node2-ESEHIV_clean_linker_0--edge1-none
_symmetry_space_group_name_H-M    P1
_symmetry_Int_Tables_number       1
_symmetry_cell_setting            triclinic
loop_
_symmetry_equiv_pos_as_xyz
'x, y, z'
_cell_length_a     17.960424
_cell_length_b     17.32651
_cell_length_c     7.2320622
_cell_angle_alpha  90.184896
_cell_angle_beta   91.238635
_cell_angle_gamma 89.747336
loop_
_atom_site_label
_atom_site_type_symbol
_atom_site_fract_x
_atom_site_fract_y
_atom_site_fract_z
_atom_type_partial_charge
H0 H 0.86943 0.65184 0.23768 0.0
H1 H 0.72676 0.62027 0.77851 0.0
H2 H 0.67481 0.51228 0.29152 0.0
C3 C 0.81537 0.63401 0.18596 0.0
C4 C 0.77102 0.58912 0.29898 0.0
C5 C 0.80709 0.62154 -0.00269 0.0
C6 C 0.73436 0.61627 0.92727 0.0
C7 C 0.68791 0.56704 0.02421 0.0
C8 C 0.70546 0.55534 0.21637 0.0
H9 H 0.88592 0.91847 0.16411 0.0
H10 H 0.93885 0.77273 0.72272 0.0
H11 H 0.01779 0.71746 0.26872 0.0
C12 C 0.90314 0.86175 0.1199 0.0
C13 C 0.94156 0.81594 0.24816 0.0
C14 C 0.92483 0.85461 0.93811 0.0
C15 C 0.93469 0.78002 0.8709 0.0
C16 C 0.97501 0.73006 -0.01381 0.0
C17 C -0.0207 0.7489 0.1791 0.0
H18 H 0.58808 0.90242 0.21843 0.0
H19 H 0.73223 0.93613 0.77815 0.0
H20 H 0.78264 0.04235 0.30129 0.0
C21 C 0.64227 0.92103 0.17429 0.0
C22 C 0.68594 0.96617 0.29372 0.0
C23 C 0.65133 0.93376 -0.01293 0.0
C24 C 0.72419 0.93962 0.92607 0.0
C25 C 0.77056 0.98817 0.03083 0.0
C26 C 0.75211 0.99963 0.22086 0.0
H27 H 0.58659 0.65374 0.17867 0.0
H28 H 0.41723 0.82623 0.23106 0.0
H29 H 0.54082 0.80064 0.73365 0.0
C30 C 0.56136 0.70678 0.13079 0.0
C31 C 0.54998 0.71465 0.94239 0.0
C32 C 0.50682 0.74077 0.23843 0.0
C33 C 0.4654 0.80402 0.16015 0.0
C34 C 0.48002 0.82938 -0.02407 0.0
C35 C 0.53565 0.78984 0.88051 0.0
H36 H 0.08818 0.39617 0.16266 0.0
H37 H 0.22839 0.39106 0.63094 0.0
H38 H 0.29075 0.52788 0.16783 0.0
C39 C 0.14245 0.40884 0.22234 0.0
C40 C 0.18934 0.45882 0.12951 0.0
C41 C 0.14936 0.41076 0.41295 0.0
C42 C 0.22215 0.40455 0.4849 0.0
C43 C 0.27423 0.45451 0.40779 0.0
C44 C 0.25727 0.48214 0.22432 0.0
H45 H 0.04344 0.14527 0.14451 0.0
H46 H 0.03067 0.28712 0.60659 0.0
H47 H 0.91042 0.35219 0.11181 0.0
C48 C 0.02803 0.20147 0.19816 0.0
C49 C -0.01577 0.25161 0.08928 0.0
C50 C 0.01732 0.20692 0.38639 0.0
C51 C 0.02138 0.28173 0.45836 0.0
C52 C 0.97272 0.33415 0.3714 0.0
C53 C 0.95402 0.31875 0.18 0.0
H54 H 0.36094 0.15861 0.13076 0.0
H55 H 0.21619 0.152 0.57748 0.0
H56 H 0.16966 1.01024 0.1051 0.0
C57 C 0.3073 0.14168 0.18224 0.0
C58 C 0.26469 0.0882 0.08195 0.0
C59 C 0.29861 0.14009 0.37192 0.0
C60 C 0.22456 0.13966 0.43212 0.0
C61 C 0.17817 0.084 0.34826 0.0
C62 C 0.19864 0.05894 0.16684 0.0
H63 H 0.40968 0.40764 0.11742 0.0
H64 H 0.54909 0.20501 0.09844 0.0
H65 H 0.42205 0.26336 0.57492 0.0
C66 C 0.42644 0.35167 0.17095 0.0
C67 C 0.43482 0.34519 0.36074 0.0
C68 C 0.47368 0.30417 0.06865 0.0
C69 C 0.50392 0.23684 0.16044 0.0
C70 C 0.48352 0.21957 0.34743 0.0
C71 C 0.43242 0.26984 0.4285 0.0
O72 O 0.05276 0.88258 0.89386 0.0
Mg73 Mg 0.09347 0.91752 0.63625 0.0
O74 O 0.97741 0.978 0.91506 0.0
Mg75 Mg 0.95474 0.03698 0.65782 0.0
O76 O 0.07628 0.03166 0.54008 0.0
O77 O 0.18254 0.96627 0.51705 0.0
O78 O 0.9358 0.09759 0.39746 0.0
O79 O 0.97679 0.15356 0.85057 0.0
Mg80 Mg 0.8149 0.16366 0.71529 0.0
O81 O 0.83128 0.04132 0.75758 0.0
O82 O 0.90524 0.19954 0.55201 0.0
O83 O 0.88089 0.23504 0.88711 0.0
O84 O 0.79628 0.11824 -0.02125 0.0
C85 C 0.96976 0.85799 0.41459 0.0
C86 C -0.01382 0.90706 0.89339 0.0
C87 C 0.14386 0.02698 0.47699 0.0
C88 C 0.94904 0.16595 0.44397 0.0
C89 C 0.94805 0.21564 0.92286 0.0
C90 C 0.81049 0.04945 0.92789 0.0
O91 O 0.03764 0.84637 0.45476 0.0
O92 O 0.93456 0.91801 0.47799 0.0
O93 O 0.26915 0.98647 0.86578 0.0
Mg94 Mg 0.31645 0.91493 0.66685 0.0
O95 O 0.36802 0.06592 0.8728 0.0
Mg96 Mg 0.47352 0.02665 0.67167 0.0
O97 O 0.43167 0.90232 0.70534 0.0
O98 O 0.35322 0.85503 0.9027 0.0
O99 O 0.57851 0.98759 0.48525 0.0
O100 O 0.53548 0.98897 0.918 0.0
Mg101 Mg 0.6354 0.13944 0.70452 0.0
O102 O 0.52062 0.1491 0.63352 0.0
O103 O 0.68401 0.05313 0.54297 0.0
O104 O 0.62907 0.06611 0.93773 0.0
O105 O 0.60621 0.2012 0.46421 0.0
C106 C 0.34442 0.07789 0.45804 0.0
C107 C 0.30157 0.04671 0.92697 0.0
C108 C 0.4207 0.86862 0.86297 0.0
C109 C 0.6487 1.00028 0.45737 0.0
C110 C 0.60454 0.99768 0.91764 0.0
C111 C 0.53805 0.18203 0.47855 0.0
O112 O 0.31027 0.02556 0.54124 0.0
O113 O 0.41142 0.06643 0.41904 0.0
O114 O 0.57692 0.32011 0.8753 0.0
Mg115 Mg 0.64087 0.38992 0.70273 0.0
O116 O 0.48373 0.40536 0.83952 0.0
Mg117 Mg 0.50528 0.52015 0.6432 0.0
O118 O 0.62895 0.51323 0.74222 0.0
O119 O 0.66448 0.43617 -0.03438 0.0
O120 O 0.51788 0.63861 0.4638 0.0
O121 O 0.50004 0.58797 0.89807 0.0
Mg122 Mg 0.36361 0.63092 0.61775 0.0
O123 O 0.38645 0.52106 0.5146 0.0
O124 O 0.40516 0.68992 0.39559 0.0
O125 O 0.43171 0.68488 0.81457 0.0
O126 O 0.28135 0.54888 0.64419 0.0
C127 C 0.50079 0.38822 0.43271 0.0
C128 C 0.51104 0.34198 0.91063 0.0
C129 C 0.65046 0.50496 0.91392 0.0
C130 C 0.47579 0.69045 0.38256 0.0
C131 C 0.49413 0.65915 0.86928 0.0
C132 C 0.31865 0.50222 0.54391 0.0
O133 O 0.54622 0.35473 0.54115 0.0
O134 O 0.51437 0.45597 0.38423 0.0
O135 O 0.82826 0.48893 0.94803 0.0
Mg136 Mg 0.82107 0.41596 0.712 0.0
O137 O 0.92274 0.56477 0.94264 0.0
Mg138 Mg -0.01723 0.52822 0.69799 0.0
O139 O 0.93583 0.40572 0.65276 0.0
O140 O 0.85003 0.35389 0.4738 0.0
O141 O 0.04171 0.4914 0.44738 0.0
O142 O 0.08862 0.48643 0.90614 0.0
Mg143 Mg 0.14206 0.63627 0.72038 0.0
O144 O 0.02619 0.65168 0.73509 0.0
O145 O 0.1449 0.52686 0.58232 0.0
O146 O 0.18786 0.56472 0.92559 0.0
O147 O 0.10113 0.69469 0.95342 0.0
C148 C 0.8075 0.55524 0.46727 0.0
C149 C 0.85359 0.55709 0.93278 0.0
C150 C 0.91828 0.37265 0.49576 0.0
C151 C 0.10819 0.47696 0.49187 0.0
C152 C 0.15479 0.50358 -0.02688 0.0
C153 C 0.0344 0.68438 0.89599 0.0
O154 O 0.77222 0.50195 0.54655 0.0
O155 O 0.87748 0.56814 0.50444 0.0
loop_
_geom_bond_atom_site_label_1
_geom_bond_atom_site_label_2
_geom_bond_distance
_geom_bond_site_symmetry_2
_ccdc_geom_bond_type
H0 C3 0.931 . S
H1 C6 0.928 . S
H2 C8 0.930 . S
C3 H0 0.931 . S
C3 C4 1.413 . S
C3 C5 1.360 1_554 S
C4 C3 1.413 . S
C4 C8 1.429 . S
C5 C3 1.360 1_556 S
C5 C6 1.372 . S
C6 H1 0.928 . S
C6 C5 1.372 . S
C6 C7 1.404 1_556 S
C7 C6 1.404 1_554 S
C7 C8 1.391 . S
C8 H2 0.930 . S
C8 C4 1.429 . S
C8 C7 1.391 . S
H9 C12 0.931 . S
H10 C15 0.928 . S
H11 C17 0.930 . S
C12 H9 0.931 . S
C12 C13 1.413 . S
C12 C14 1.360 1_554 S
C13 C12 1.413 . S
C13 C17 1.429 1_655 S
C14 C12 1.360 1_556 S
C14 C15 1.373 . S
C15 H10 0.928 . S
C15 C14 1.373 . S
C15 C16 1.404 1_556 S
C16 C15 1.404 1_554 S
C16 C17 1.391 1_655 S
C17 H11 0.930 . S
C17 C13 1.429 1_455 S
C17 C16 1.391 1_455 S
H18 C21 0.931 . S
H19 C24 0.928 . S
H20 C26 0.930 . S
C21 H18 0.931 . S
C21 C22 1.413 . S
C21 C23 1.360 1_554 S
C22 C21 1.413 . S
C22 C26 1.429 . S
C23 C21 1.360 1_556 S
C23 C24 1.372 . S
C24 H19 0.928 . S
C24 C23 1.372 . S
C24 C25 1.404 1_556 S
C25 C24 1.404 1_554 S
C25 C26 1.391 . S
C26 H20 0.930 . S
C26 C22 1.429 . S
C26 C25 1.391 . S
H27 C30 0.931 . S
H28 C33 0.928 . S
H29 C35 0.930 . S
C30 H27 0.931 . S
C30 C31 1.413 1_554 S
C30 C32 1.360 . S
C31 C30 1.413 1_556 S
C31 C35 1.429 . S
C32 C30 1.360 . S
C32 C33 1.372 . S
C33 H28 0.928 . S
C33 C32 1.372 . S
C33 C34 1.404 . S
C34 C33 1.404 . S
C34 C35 1.391 1_554 S
C35 H29 0.930 . S
C35 C31 1.429 . S
C35 C34 1.391 1_556 S
H36 C39 0.931 . S
H37 C42 0.928 . S
H38 C44 0.930 . S
C39 H36 0.931 . S
C39 C40 1.413 . S
C39 C41 1.360 . S
C40 C39 1.413 . S
C40 C44 1.429 . S
C41 C39 1.360 . S
C41 C42 1.372 . S
C42 H37 0.928 . S
C42 C41 1.372 . S
C42 C43 1.404 . S
C43 C42 1.404 . S
C43 C44 1.391 . S
C44 H38 0.930 . S
C44 C40 1.429 . S
C44 C43 1.391 . S
H45 C48 0.931 . S
H46 C51 0.928 . S
H47 C53 0.930 . S
C48 H45 0.931 . S
C48 C49 1.413 . S
C48 C50 1.360 . S
C49 C48 1.413 . S
C49 C53 1.429 1_655 S
C50 C48 1.360 . S
C50 C51 1.372 . S
C51 H46 0.928 . S
C51 C50 1.372 . S
C51 C52 1.404 . S
C52 C51 1.404 . S
C52 C53 1.391 1_655 S
C53 H47 0.930 . S
C53 C49 1.429 1_455 S
C53 C52 1.391 1_455 S
H54 C57 0.931 . S
H55 C60 0.928 . S
H56 C62 0.930 . S
C57 H54 0.931 . S
C57 C58 1.413 . S
C57 C59 1.360 . S
C58 C57 1.413 . S
C58 C62 1.429 . S
C59 C57 1.360 . S
C59 C60 1.372 . S
C60 H55 0.928 . S
C60 C59 1.372 . S
C60 C61 1.404 . S
C61 C60 1.404 . S
C61 C62 1.391 . S
C62 H56 0.930 . S
C62 C58 1.429 . S
C62 C61 1.391 . S
H63 C66 0.931 . S
H64 C69 0.928 . S
H65 C71 0.930 . S
C66 H63 0.931 . S
C66 C67 1.413 . S
C66 C68 1.360 . S
C67 C66 1.413 . S
C67 C71 1.429 . S
C68 C66 1.360 . S
C68 C69 1.372 . S
C69 H64 0.928 . S
C69 C68 1.372 . S
C69 C70 1.404 . S
C70 C69 1.404 . S
C70 C71 1.391 . S
C71 H65 0.930 . S
C71 C67 1.429 . S
C71 C70 1.391 . S
O72 Mg73 1.990 . S
O72 C86 1.253 . S
Mg73 O72 1.990 . S
Mg73 O76 2.180 . S
Mg73 O77 2.117 . S
Mg73 O91 2.030 . S
O74 Mg75 2.072 1_465 S
O74 C86 1.260 . S
Mg75 O74 2.072 1_645 S
Mg75 O76 2.099 1_645 S
Mg75 O78 2.079 . S
Mg75 O79 2.072 1_655 S
Mg75 O81 2.099 . S
Mg75 O92 2.079 1_545 S
O76 Mg73 2.180 . S
O76 Mg75 2.099 1_465 S
O76 C87 1.279 1_565 S
O77 Mg73 2.117 . S
O77 C87 1.250 1_565 S
O78 Mg75 2.079 . S
O78 C88 1.264 . S
O79 Mg75 2.072 1_455 S
O79 C89 1.260 1_556 S
Mg80 O81 2.180 . S
Mg80 O82 2.030 . S
Mg80 O83 1.990 1_556 S
Mg80 O84 2.117 1_556 S
O81 Mg75 2.099 . S
O81 Mg80 2.180 . S
O81 C90 1.279 1_545 S
O82 Mg80 2.030 . S
O82 C88 1.248 . S
O83 Mg80 1.990 1_554 S
O83 C89 1.253 1_655 S
O84 Mg80 2.117 1_554 S
O84 C90 1.250 1_544 S
C85 O91 1.248 1_655 S
C85 O92 1.264 . S
C86 O72 1.253 . S
C86 O74 1.260 . S
C87 O76 1.279 1_545 S
C87 O77 1.250 1_545 S
C88 O78 1.264 . S
C88 O82 1.248 . S
C89 O79 1.260 1_554 S
C89 O83 1.253 1_455 S
C90 O81 1.279 1_565 S
C90 O84 1.250 1_566 S
O91 Mg73 2.030 . S
O91 C85 1.248 1_455 S
O92 Mg75 2.079 1_565 S
O92 C85 1.264 . S
O93 Mg94 1.990 1_544 S
O93 C107 1.253 . S
Mg94 O93 1.990 1_566 S
Mg94 O97 2.180 . S
Mg94 O98 2.117 1_556 S
Mg94 O112 2.030 . S
O95 Mg96 2.072 . S
O95 C107 1.260 1_556 S
Mg96 O95 2.072 . S
Mg96 O97 2.099 1_545 S
Mg96 O99 2.079 1_545 S
Mg96 O100 2.072 1_545 S
Mg96 O102 2.099 . S
Mg96 O113 2.079 . S
O97 Mg94 2.180 . S
O97 Mg96 2.099 1_565 S
O97 C108 1.279 . S
O98 Mg94 2.117 1_554 S
O98 C108 1.250 1_554 S
O99 Mg96 2.079 1_565 S
O99 C109 1.264 . S
O100 Mg96 2.072 1_565 S
O100 C110 1.256 1_565 S
Mg101 O102 2.180 . S
Mg101 O103 2.030 1_545 S
Mg101 O104 1.990 . S
Mg101 O105 2.117 . S
O102 Mg96 2.099 . S
O102 Mg101 2.180 . S
O102 C111 1.279 . S
O103 Mg101 2.030 1_565 S
O103 C109 1.248 . S
O104 Mg101 1.990 . S
O104 C110 1.263 . S
O105 Mg101 2.117 . S
O105 C111 1.250 . S
C106 O112 1.248 1_545 S
C106 O113 1.264 . S
C107 O93 1.253 . S
C107 O95 1.260 1_554 S
C108 O97 1.279 . S
C108 O98 1.250 1_556 S
C109 O99 1.264 . S
C109 O103 1.248 . S
C110 O100 1.256 1_545 S
C110 O104 1.263 . S
C111 O102 1.279 . S
C111 O105 1.250 . S
O112 Mg94 2.030 . S
O112 C106 1.248 1_565 S
O113 Mg96 2.079 . S
O113 C106 1.264 . S
O114 Mg115 1.990 1_554 S
O114 C128 1.253 . S
Mg115 O114 1.990 1_556 S
Mg115 O118 2.180 . S
Mg115 O119 2.117 1_556 S
Mg115 O133 2.030 . S
O116 Mg117 2.072 . S
O116 C128 1.260 1_556 S
Mg117 O116 2.072 . S
Mg117 O118 2.099 . S
Mg117 O120 2.079 . S
Mg117 O121 2.072 . S
Mg117 O123 2.099 . S
Mg117 O134 2.079 . S
O118 Mg115 2.180 . S
O118 Mg117 2.099 . S
O118 C129 1.279 . S
O119 Mg115 2.117 1_554 S
O119 C129 1.250 1_554 S
O120 Mg117 2.079 . S
O120 C130 1.264 . S
O121 Mg117 2.072 . S
O121 C131 1.260 . S
Mg122 O123 2.180 . S
Mg122 O124 2.030 . S
Mg122 O125 1.990 . S
Mg122 O126 2.117 . S
O123 Mg117 2.099 . S
O123 Mg122 2.180 . S
O123 C132 1.279 . S
O124 Mg122 2.030 . S
O124 C130 1.248 . S
O125 Mg122 1.990 . S
O125 C131 1.253 . S
O126 Mg122 2.117 . S
O126 C132 1.250 . S
C127 O133 1.248 . S
C127 O134 1.264 . S
C128 O114 1.253 . S
C128 O116 1.260 1_554 S
C129 O118 1.279 . S
C129 O119 1.250 1_556 S
C130 O120 1.264 . S
C130 O124 1.248 . S
C131 O121 1.260 . S
C131 O125 1.253 . S
C132 O123 1.279 . S
C132 O126 1.250 . S
O133 Mg115 2.030 . S
O133 C127 1.248 . S
O134 Mg117 2.079 . S
O134 C127 1.264 . S
O135 Mg136 1.990 . S
O135 C149 1.253 . S
Mg136 O135 1.990 . S
Mg136 O139 2.180 . S
Mg136 O140 2.117 . S
Mg136 O154 2.030 . S
O137 Mg138 2.072 1_655 S
O137 C149 1.260 . S
Mg138 O137 2.072 1_455 S
Mg138 O139 2.099 1_455 S
Mg138 O141 2.079 . S
Mg138 O142 2.072 . S
Mg138 O144 2.099 . S
Mg138 O155 2.079 1_455 S
O139 Mg136 2.180 . S
O139 Mg138 2.099 1_655 S
O139 C150 1.279 . S
O140 Mg136 2.117 . S
O140 C150 1.250 . S
O141 Mg138 2.079 . S
O141 C151 1.264 . S
O142 Mg138 2.072 . S
O142 C152 1.260 1_556 S
Mg143 O144 2.180 . S
Mg143 O145 2.030 . S
Mg143 O146 1.990 1_556 S
Mg143 O147 2.117 1_556 S
O144 Mg138 2.099 . S
O144 Mg143 2.180 . S
O144 C153 1.279 . S
O145 Mg143 2.030 . S
O145 C151 1.248 . S
O146 Mg143 1.990 1_554 S
O146 C152 1.253 . S
O147 Mg143 2.117 1_554 S
O147 C153 1.250 1_554 S
C148 O154 1.248 . S
C148 O155 1.264 . S
C149 O135 1.253 . S
C149 O137 1.260 . S
C150 O139 1.279 . S
C150 O140 1.250 . S
C151 O141 1.264 . S
C151 O145 1.248 . S
C152 O142 1.260 1_554 S
C152 O146 1.253 . S
C153 O144 1.279 . S
C153 O147 1.250 1_556 S
O154 Mg136 2.030 . S
O154 C148 1.248 . S
O155 Mg138 2.079 1_655 S
O155 C148 1.264 . S
C61 C87 2.315 . S
C111 C70 2.033 . S
C132 C43 2.261 . S
C150 C52 2.043 . S
C90 C25 1.900 1_556 S
C34 C108 1.445 1_554 S
C7 C129 1.840 1_554 S
C16 C153 1.533 1_654 S
C88 C50 1.106 . S
C106 C59 1.492 . S
C127 C67 1.053 . S
C41 C151 1.538 . S
C14 C86 1.219 1_655 S
C110 C23 1.616 1_545 S
C131 C31 1.128 . S
C5 C149 1.665 . S
C49 C89 1.674 1_655 S
C58 C107 1.798 . S
C128 C68 1.657 . S
C152 C40 1.809 . S
C13 C85 1.439 . S
C109 C22 1.581 . S
C130 C32 1.426 . S
C4 C148 1.597 . S
