# Generated by pormake.
# Topology pts, (4,4)-cn, num edge types: 1
# Building blocks:
#     Node 0, Type 0, BuildingBlock: MIFKUJ_clean_linker_1, # of connection points: 4
#     Node 1, Type 0, BuildingBlock: MIFKUJ_clean_linker_1, # of connection points: 4
#     Node 2, Type 1, BuildingBlock: QUQFOY_clean_sbu_1, # of connection points: 4
#     Node 3, Type 1, BuildingBlock: QUQFOY_clean_sbu_1, # of connection points: 4
#     Edge 4, Type (0, 1), BuildingBlock: EZIPEK_clean_linker_0, # of connection points: 2
#     Edge 5, Type (0, 1), BuildingBlock: EZIPEK_clean_linker_0, # of connection points: 2
#     Edge 6, Type (0, 1), BuildingBlock: EZIPEK_clean_linker_0, # of connection points: 2
#     Edge 7, Type (0, 1), BuildingBlock: EZIPEK_clean_linker_0, # of connection points: 2
#     Edge 8, Type (0, 1), BuildingBlock: EZIPEK_clean_linker_0, # of connection points: 2
#     Edge 9, Type (0, 1), BuildingBlock: EZIPEK_clean_linker_0, # of connection points: 2
#     Edge 10, Type (0, 1), BuildingBlock: EZIPEK_clean_linker_0, # of connection points: 2
#     Edge 11, Type (0, 1), BuildingBlock: EZIPEK_clean_linker_0, # of connection points: 2
# Relax obj value: 0.095
# Max RMSD: 0.258
# Mean RMSD: 0.153
data_MOF--net-pts--node1-QUQFOY_clean_sbu_1--node2-MIFKUJ_clean_linker_1--edge1-EZIPEK_clean_linker_0
_symmetry_space_group_name_H-M    P1
_symmetry_Int_Tables_number       1
_symmetry_cell_setting            triclinic
loop_
_symmetry_equiv_pos_as_xyz
'x, y, z'
_cell_length_a     22.485782
_cell_length_b     24.42622
_cell_length_c     33.855029
_cell_angle_alpha  89.956531
_cell_angle_beta   90.16889
_cell_angle_gamma 89.95897
loop_
_atom_site_label
_atom_site_type_symbol
_atom_site_fract_x
_atom_site_fract_y
_atom_site_fract_z
_atom_type_partial_charge
H0 H 0.62088 0.94002 0.03642 0.0
H1 H 0.70519 0.93858 0.08298 0.0
H2 H 0.65429 0.09782 0.12624 0.0
H3 H 0.5697 0.09908 0.08016 0.0
H4 H 0.4796 0.01905 0.0825 0.0
H5 H 0.57476 0.93479 0.9411 0.0
H6 H 0.66051 0.9377 0.89642 0.0
H7 H 0.70514 0.09871 0.93941 0.0
H8 H 0.61955 0.09563 0.98461 0.0
H9 H 0.3906 0.0909 0.93554 0.0
H10 H 0.30383 0.08689 0.89145 0.0
H11 H 0.25543 0.93046 0.94094 0.0
H12 H 0.3421 0.93465 0.98553 0.0
H13 H 0.4824 0.0129 0.93618 0.0
H14 H 0.33186 0.08592 0.02557 0.0
H15 H 0.24383 0.08701 0.06854 0.0
H16 H 0.30914 0.944 0.12955 0.0
H17 H 0.39641 0.94204 0.08633 0.0
C18 C 0.58953 0.01984 0.05477 0.0
C19 C 0.62848 0.97494 0.05549 0.0
C20 C 0.67605 0.97389 0.08214 0.0
C21 C 0.68528 0.01794 0.10803 0.0
C22 C 0.64744 0.06349 0.1065 0.0
C23 C 0.59958 0.06427 0.08021 0.0
C24 C 0.53475 0.01816 0.03071 0.0
C25 C 0.48012 0.01767 0.05045 0.0
C26 C 0.53559 0.01542 0.98912 0.0
C27 C 0.59128 0.01485 0.96622 0.0
C28 C 0.60355 0.97035 0.94134 0.0
C29 C 0.6521 0.97203 0.91587 0.0
C30 C 0.68848 0.01852 0.91463 0.0
C31 C 0.67718 0.06262 0.94008 0.0
C32 C 0.62886 0.06069 0.96593 0.0
C33 C 0.37233 0.01322 0.96384 0.0
C34 C 0.36101 0.05598 0.93714 0.0
C35 C 0.31182 0.05371 0.91206 0.0
C36 C 0.27381 0.00833 0.91304 0.0
C37 C 0.28461 0.9657 0.93993 0.0
C38 C 0.33361 0.96823 0.96537 0.0
C39 C 0.42708 0.01435 0.98795 0.0
C40 C 0.48175 0.01414 0.96823 0.0
C41 C 0.4262 0.01512 0.02964 0.0
C42 C 0.37042 0.01365 0.05263 0.0
C43 C 0.32664 0.05415 0.04762 0.0
C44 C 0.2768 0.05504 0.07219 0.0
C45 C 0.27061 0.0157 0.1021 0.0
C46 C 0.31357 0.97465 0.10659 0.0
C47 C 0.36313 0.9736 0.08201 0.0
H48 H 0.09804 0.40811 0.46205 0.0
H49 H 0.09804 0.32325 0.42303 0.0
H50 H 0.90611 0.32354 0.42276 0.0
H51 H 0.90637 0.40652 0.46385 0.0
H52 H 0.00975 0.5142 0.43671 0.0
H53 H 0.07924 0.38395 0.53461 0.0
H54 H 0.07614 0.29924 0.57333 0.0
H55 H 0.90511 0.34571 0.61986 0.0
H56 H 0.90672 0.42939 0.57948 0.0
H57 H 0.90281 0.6013 0.57542 0.0
H58 H 0.89977 0.68493 0.61582 0.0
H59 H 0.07622 0.72702 0.57664 0.0
H60 H 0.08033 0.64252 0.53772 0.0
H61 H -0.01427 0.51452 0.58242 0.0
H62 H 0.90572 0.61641 0.45816 0.0
H63 H 0.90488 0.69892 0.41648 0.0
H64 H 0.0958 0.70997 0.4269 0.0
H65 H 0.09678 0.62565 0.4666 0.0
C66 C 0.00222 0.41306 0.46593 0.0
C67 C 0.05607 0.38939 0.45401 0.0
C68 C 0.05603 0.34113 0.43185 0.0
C69 C 0.00206 0.31721 0.41991 0.0
C70 C 0.94819 0.34121 0.43178 0.0
C71 C 0.9483 0.38851 0.45499 0.0
C72 C 0.00204 0.46436 0.48899 0.0
C73 C 0.00541 0.51426 0.46863 0.0
C74 C -0.00513 0.46424 0.53044 0.0
C75 C -0.00741 0.41249 0.5534 0.0
C76 C 0.04021 0.37525 0.55212 0.0
C77 C 0.03875 0.32718 0.57447 0.0
C78 C -0.00967 0.31625 0.5993 0.0
C79 C 0.94269 0.35337 0.60069 0.0
C80 C 0.94378 0.40112 0.57786 0.0
C81 C -0.00864 0.61622 0.55296 0.0
C82 C 0.94067 0.6287 0.57536 0.0
C83 C 0.93881 0.67637 0.59819 0.0
C84 C -0.01238 0.71218 0.5989 0.0
C85 C 0.03795 0.70011 0.5761 0.0
C86 C 0.04005 0.65218 0.55367 0.0
C87 C -0.00556 0.56445 0.53023 0.0
C88 C -0.00929 0.5144 0.55056 0.0
C89 C 0.00165 0.56424 0.48881 0.0
C90 C 0.00125 0.61544 0.46558 0.0
C91 C 0.9473 0.63674 0.45147 0.0
C92 C 0.94683 0.68375 0.4279 0.0
C93 C 0.00027 0.71061 0.41871 0.0
C94 C 0.05413 0.6899 0.43371 0.0
C95 C 0.05469 0.64202 0.45634 0.0
O96 O 0.90267 0.96835 0.22859 0.0
Cd97 Cd 0.98188 0.95703 0.25791 0.0
Cd98 Cd 0.98093 0.06891 0.26099 0.0
O99 O 0.90005 0.05857 0.23333 0.0
O100 O 0.98238 0.87781 0.27145 0.0
O101 O -0.01022 0.94312 0.31644 0.0
C102 C -0.01184 0.89156 0.30799 0.0
C103 C -0.0113 0.13459 0.31094 0.0
C104 C 0.87769 0.01385 0.22129 0.0
C105 C 0.07717 0.01536 0.21343 0.0
O106 O 0.05418 0.05995 0.22518 0.0
O107 O 0.0561 0.96939 0.22389 0.0
O108 O 0.98026 0.14809 0.27459 0.0
O109 O -0.00792 0.08309 0.31936 0.0
O110 O 0.9057 0.06194 0.79211 0.0
Cd111 Cd 0.98231 0.06947 0.75941 0.0
Cd112 Cd 0.97576 0.95775 0.75947 0.0
O113 O 0.89711 0.97188 0.7885 0.0
O114 O -0.01433 0.14858 0.74566 0.0
O115 O 0.98242 0.083 0.70059 0.0
C116 C 0.98491 0.13453 0.709 0.0
C117 C 0.97857 0.89302 0.70898 0.0
C118 C 0.87841 0.018 0.80051 0.0
C119 C 0.0781 0.00899 0.80254 0.0
O120 O 0.05087 0.96508 0.79391 0.0
O121 O 0.05976 0.0551 0.79015 0.0
O122 O 0.97324 0.87877 0.74543 0.0
O123 O 0.98158 0.94461 0.70078 0.0
C124 C 0.16514 0.99372 0.11929 0.0
C125 C 0.22003 0.01817 0.12983 0.0
C126 C 0.18231 0.03859 0.19603 0.0
C127 C 0.12631 0.01698 0.18471 0.0
N128 N 0.06022 0.98399 0.13367 0.0
N129 N 0.2789 0.07177 0.17516 0.0
C130 C 0.1165 0.99725 0.14579 0.0
C131 C 0.22801 0.04306 0.16733 0.0
N132 N 0.15999 0.96594 0.08438 0.0
N133 N 0.1925 0.05271 0.23454 0.0
H134 H 0.31372 0.0752 0.15502 0.0
H135 H 0.28479 0.09579 0.20026 0.0
H136 H 0.16002 0.04996 0.25639 0.0
H137 H 0.23425 0.06303 0.24561 0.0
H138 H 0.12345 0.94176 0.07712 0.0
H139 H 0.19421 0.96376 0.06369 0.0
H140 H 0.0492 0.97513 0.10448 0.0
H141 H 0.02319 0.98649 0.15207 0.0
C142 C 0.03228 0.26469 0.65727 0.0
C143 C -0.00898 0.2674 0.62554 0.0
C144 C 0.94512 0.18173 0.64792 0.0
C145 C -0.01082 0.1772 0.67791 0.0
N146 N 0.0839 0.20661 0.70401 0.0
N147 N 0.91669 0.22286 0.5854 0.0
C148 C 0.03558 0.21638 0.68042 0.0
C149 C 0.95003 0.22409 0.61921 0.0
N150 N 0.06662 0.30909 0.66648 0.0
N151 N 0.89695 0.14764 0.64798 0.0
H152 H 0.91946 0.25302 0.56365 0.0
H153 H 0.89053 0.18951 0.57727 0.0
H154 H 0.89097 0.11673 0.66883 0.0
H155 H 0.86036 0.15305 0.62945 0.0
H156 H 0.09271 0.31122 0.69191 0.0
H157 H 0.06484 0.34586 0.65086 0.0
H158 H 0.1217 0.23126 0.70397 0.0
H159 H 0.08904 0.17068 0.72035 0.0
C160 C 0.79227 0.03266 0.12529 0.0
C161 C 0.73453 0.01637 0.13714 0.0
C162 C 0.7709 0.99612 0.20404 0.0
C163 C 0.82784 0.01541 0.19282 0.0
N164 N 0.89365 0.05463 0.14409 0.0
N165 N 0.66616 0.98682 0.18756 0.0
C166 C 0.83875 0.03453 0.1538 0.0
C167 C 0.72307 0.99919 0.17649 0.0
N168 N 0.80278 0.04506 0.08648 0.0
N169 N 0.76298 0.97422 0.24085 0.0
H170 H 0.6305 0.98627 0.16779 0.0
H171 H 0.65324 0.97992 0.21662 0.0
H172 H 0.79636 0.97377 0.26232 0.0
H173 H 0.72466 0.95382 0.24968 0.0
H174 H 0.8449 0.05103 0.07462 0.0
H175 H 0.76935 0.04635 0.06507 0.0
H176 H 0.90277 0.07545 0.11799 0.0
H177 H 0.93034 0.05294 0.16293 0.0
C178 C 0.02492 0.76114 0.65924 0.0
C179 C -0.01253 0.76063 0.62545 0.0
C180 C 0.9437 0.84823 0.64578 0.0
C181 C 0.98412 0.85036 0.67806 0.0
N182 N 0.07352 0.81622 0.7091 0.0
N183 N 0.92022 0.8086 0.5819 0.0
C184 C 0.02787 0.80899 0.68285 0.0
C185 C 0.94958 0.80577 0.61725 0.0
N186 N 0.05586 0.71518 0.66982 0.0
N187 N 0.89789 0.88491 0.64337 0.0
H188 H 0.9237 0.7783 0.56032 0.0
H189 H 0.89683 0.8431 0.57256 0.0
H190 H 0.8915 0.91617 0.66386 0.0
H191 H 0.86336 0.88156 0.62294 0.0
H192 H 0.07865 0.71152 0.69653 0.0
H193 H 0.05428 0.67878 0.65378 0.0
H194 H 0.10986 0.78985 0.71097 0.0
H195 H 0.07847 0.85165 0.72598 0.0
C196 C 0.23214 0.98632 0.84621 0.0
C197 C 0.22293 1.00555 0.8853 0.0
C198 C 0.11906 0.0273 0.86988 0.0
C199 C 0.12793 0.00702 0.83098 0.0
N200 N 0.189 0.96106 0.78292 0.0
N201 N 0.15768 0.03792 0.93655 0.0
C202 C 0.18335 0.98451 0.81941 0.0
C203 C 0.16631 0.02419 0.89778 0.0
N204 N 0.288 0.97115 0.83457 0.0
N205 N 0.06545 0.04987 0.87997 0.0
H206 H 0.19178 0.03795 0.9575 0.0
H207 H 0.11631 0.04611 0.94886 0.0
H208 H 0.02828 0.04931 0.86149 0.0
H209 H 0.05797 0.07144 0.90596 0.0
H210 H 0.29961 0.96283 0.80547 0.0
H211 H 0.32422 0.96954 0.85387 0.0
H212 H 0.22585 0.93844 0.77409 0.0
H213 H 0.15511 0.96147 0.76182 0.0
C214 C 0.97457 0.21893 0.40581 0.0
C215 C 0.00184 0.26848 0.39346 0.0
C216 C 0.03263 0.22391 0.3322 0.0
C217 C -0.00347 0.17798 0.34132 0.0
N218 N 0.92462 0.13613 0.38502 0.0
N219 N 0.04603 0.32116 0.34061 0.0
C220 C 0.9654 0.17632 0.3778 0.0
C221 C 0.02802 0.27186 0.35546 0.0
N222 N 0.9586 0.21202 0.4444 0.0
N223 N 0.07295 0.22127 0.30212 0.0
H224 H 0.04096 0.358 0.35576 0.0
H225 H 0.06006 0.32613 0.3115 0.0
H226 H 0.08047 0.18569 0.28585 0.0
H227 H 0.1038 0.25218 0.29664 0.0
H228 H 0.94377 0.17477 0.4557 0.0
H229 H 0.96596 0.2418 0.46594 0.0
H230 H 0.8966 0.13654 0.40948 0.0
H231 H 0.91437 0.10538 0.36483 0.0
C232 C 0.79565 1.00514 0.89767 0.0
C233 C 0.73772 0.02118 0.88578 0.0
C234 C 0.77305 0.03981 0.81857 0.0
C235 C 0.82982 0.0197 0.82967 0.0
N236 N 0.89629 0.98127 0.87857 0.0
N237 N 0.66875 0.05051 0.83534 0.0
C238 C 0.84145 1.00184 0.86893 0.0
C239 C 0.72574 0.03784 0.84634 0.0
N240 N 0.80691 0.99414 0.93664 0.0
N241 N 0.76477 0.06128 0.78162 0.0
H242 H 0.63348 0.05193 0.85526 0.0
H243 H 0.6554 0.05685 0.80625 0.0
H244 H 0.79784 0.06119 0.76007 0.0
H245 H 0.72658 0.0821 0.77283 0.0
H246 H 0.84924 0.98815 0.94833 0.0
H247 H 0.77397 0.99434 0.95827 0.0
H248 H 0.90583 0.96139 0.90502 0.0
H249 H 0.93238 0.98162 0.8593 0.0
C250 C 0.96892 0.80731 0.40251 0.0
C251 C -3e-05 0.75891 0.39182 0.0
C252 C 0.03394 0.8039 0.33139 0.0
C253 C -0.00503 0.84846 0.33873 0.0
N254 N 0.91723 0.88794 0.379 0.0
N255 N 0.05207 0.70754 0.3416 0.0
C256 C 0.96042 0.84925 0.37383 0.0
C257 C 0.02986 0.75617 0.35502 0.0
N258 N 0.94867 0.8138 0.44023 0.0
N259 N 0.07644 0.80773 0.30274 0.0
H260 H 0.04793 0.67083 0.35709 0.0
H261 H 0.06897 0.70263 0.31319 0.0
H262 H 0.08329 0.84322 0.28622 0.0
H263 H 0.1093 0.77815 0.29873 0.0
H264 H 0.93083 0.85045 0.45059 0.0
H265 H 0.95519 0.78447 0.46225 0.0
H266 H 0.88692 0.88671 0.40221 0.0
H267 H 0.90764 0.91813 0.35819 0.0
loop_
_geom_bond_atom_site_label_1
_geom_bond_atom_site_label_2
_geom_bond_distance
_geom_bond_site_symmetry_2
_ccdc_geom_bond_type
H0 C19 0.949 . S
H1 C20 0.950 . S
H2 C22 0.950 . S
H3 C23 0.950 . S
H4 C25 0.953 . S
H5 C28 0.950 . S
H6 C29 0.950 . S
H7 C31 0.951 . S
H8 C32 0.949 . S
H9 C34 0.949 . S
H10 C35 0.950 . S
H11 C37 0.950 . S
H12 C38 0.950 . S
H13 C40 0.950 . S
H14 C43 0.950 . S
H15 C44 0.950 . S
H16 C46 0.951 . S
H17 C47 0.949 . S
C18 C19 1.376 1_545 S
C18 C23 1.386 . S
C18 C24 1.483 . S
C19 H0 0.949 . S
C19 C18 1.376 1_565 S
C19 C20 1.397 . S
C20 H1 0.950 . S
C20 C19 1.397 . S
C20 C21 1.391 1_565 S
C21 C20 1.391 1_545 S
C21 C22 1.405 . S
C22 H2 0.950 . S
C22 C21 1.405 . S
C22 C23 1.367 . S
C23 H3 0.950 . S
C23 C18 1.386 . S
C23 C22 1.367 . S
C24 C18 1.483 . S
C24 C25 1.380 1_545 S
C24 C26 1.403 1_554 S
C25 H4 0.953 . S
C25 C24 1.380 1_565 S
C25 C41 1.410 1_565 S
C26 C24 1.403 1_556 S
C26 C27 1.489 . S
C26 C40 1.411 . S
C27 C26 1.489 . S
C27 C28 1.383 1_545 S
C27 C32 1.382 . S
C28 H5 0.950 . S
C28 C27 1.383 1_565 S
C28 C29 1.395 . S
C29 H6 0.950 . S
C29 C28 1.395 . S
C29 C30 1.288 1_565 S
C30 C29 1.288 1_545 S
C30 C31 1.392 . S
C31 H7 0.951 . S
C31 C30 1.392 . S
C31 C32 1.392 . S
C32 H8 0.949 . S
C32 C27 1.382 . S
C32 C31 1.392 . S
C33 C34 1.376 . S
C33 C38 1.386 1_545 S
C33 C39 1.483 . S
C34 H9 0.949 . S
C34 C33 1.376 . S
C34 C35 1.397 . S
C35 H10 0.950 . S
C35 C34 1.397 . S
C35 C36 1.391 . S
C36 C35 1.391 . S
C36 C37 1.405 1_545 S
C37 H11 0.950 . S
C37 C36 1.405 1_565 S
C37 C38 1.367 . S
C38 H12 0.950 . S
C38 C33 1.386 1_565 S
C38 C37 1.367 . S
C39 C33 1.483 . S
C39 C40 1.382 . S
C39 C41 1.403 1_556 S
C40 H13 0.950 . S
C40 C26 1.411 . S
C40 C39 1.382 . S
C41 C25 1.410 1_545 S
C41 C39 1.403 1_554 S
C41 C42 1.489 . S
C42 C41 1.489 . S
C42 C43 1.383 . S
C42 C47 1.382 1_545 S
C43 H14 0.950 . S
C43 C42 1.383 . S
C43 C44 1.395 . S
C44 H15 0.950 . S
C44 C43 1.395 . S
C44 C45 1.288 . S
C45 C44 1.288 . S
C45 C46 1.392 1_545 S
C46 H16 0.951 . S
C46 C45 1.392 1_565 S
C46 C47 1.392 . S
C47 H17 0.949 . S
C47 C42 1.382 1_565 S
C47 C46 1.392 . S
H48 C67 0.949 . S
H49 C68 0.950 . S
H50 C70 0.950 . S
H51 C71 0.950 . S
H52 C73 0.950 . S
H53 C76 0.950 . S
H54 C77 0.950 . S
H55 C79 0.951 . S
H56 C80 0.949 . S
H57 C82 0.949 . S
H58 C83 0.950 . S
H59 C85 0.950 . S
H60 C86 0.950 . S
H61 C88 0.950 . S
H62 C91 0.950 . S
H63 C92 0.950 . S
H64 C94 0.951 . S
H65 C95 0.949 . S
C66 C67 1.376 . S
C66 C71 1.386 1_455 S
C66 C72 1.483 . S
C67 H48 0.949 . S
C67 C66 1.376 . S
C67 C68 1.397 . S
C68 H49 0.950 . S
C68 C67 1.397 . S
C68 C69 1.391 . S
C69 C68 1.391 . S
C69 C70 1.405 1_455 S
C70 H50 0.950 . S
C70 C69 1.405 1_655 S
C70 C71 1.367 . S
C71 H51 0.950 . S
C71 C66 1.386 1_655 S
C71 C70 1.367 . S
C72 C66 1.483 . S
C72 C73 1.382 . S
C72 C74 1.403 1_455 S
C73 H52 0.950 . S
C73 C72 1.382 . S
C73 C89 1.411 . S
C74 C72 1.403 1_655 S
C74 C75 1.489 . S
C74 C88 1.411 . S
C75 C74 1.489 . S
C75 C76 1.383 1_655 S
C75 C80 1.382 . S
C76 H53 0.950 . S
C76 C75 1.383 1_455 S
C76 C77 1.395 . S
C77 H54 0.950 . S
C77 C76 1.395 . S
C77 C78 1.288 1_455 S
C78 C77 1.288 1_655 S
C78 C79 1.392 . S
C79 H55 0.951 . S
C79 C78 1.392 . S
C79 C80 1.392 . S
C80 H56 0.949 . S
C80 C75 1.382 . S
C80 C79 1.392 . S
C81 C82 1.376 . S
C81 C86 1.386 1_655 S
C81 C87 1.483 . S
C82 H57 0.949 . S
C82 C81 1.376 . S
C82 C83 1.397 . S
C83 H58 0.950 . S
C83 C82 1.397 . S
C83 C84 1.391 . S
C84 C83 1.391 . S
C84 C85 1.405 1_655 S
C85 H59 0.950 . S
C85 C84 1.405 1_455 S
C85 C86 1.367 . S
C86 H60 0.950 . S
C86 C81 1.386 1_455 S
C86 C85 1.367 . S
C87 C81 1.483 . S
C87 C88 1.382 . S
C87 C89 1.403 1_655 S
C88 H61 0.950 . S
C88 C74 1.411 . S
C88 C87 1.382 . S
C89 C73 1.411 . S
C89 C87 1.403 1_455 S
C89 C90 1.489 . S
C90 C89 1.489 . S
C90 C91 1.383 1_455 S
C90 C95 1.382 . S
C91 H62 0.950 . S
C91 C90 1.383 1_655 S
C91 C92 1.395 . S
C92 H63 0.950 . S
C92 C91 1.395 . S
C92 C93 1.288 1_655 S
C93 C92 1.288 1_455 S
C93 C94 1.392 . S
C94 H64 0.951 . S
C94 C93 1.392 . S
C94 C95 1.392 . S
C95 H65 0.949 . S
C95 C90 1.382 . S
C95 C94 1.392 . S
O96 Cd97 2.223 1_655 S
O96 C104 1.315 . S
Cd97 O96 2.223 1_455 S
Cd97 O100 2.297 1_455 S
Cd97 O101 2.439 1_455 S
Cd97 O107 2.240 1_565 S
Cd98 O99 2.240 . S
Cd98 O106 2.223 1_655 S
Cd98 O108 2.297 1_655 S
Cd98 O109 2.439 1_655 S
O99 Cd98 2.240 . S
O99 C104 1.279 1_545 S
O100 Cd97 2.297 1_655 S
O100 C102 1.247 . S
O101 Cd97 2.439 1_655 S
O101 C102 1.208 . S
C102 O100 1.247 . S
C102 O101 1.208 . S
C103 O108 1.247 . S
C103 O109 1.208 . S
C104 O96 1.315 . S
C104 O99 1.279 1_565 S
C105 O106 1.315 . S
C105 O107 1.279 . S
O106 Cd98 2.223 1_455 S
O106 C105 1.315 . S
O107 Cd97 2.240 1_545 S
O107 C105 1.279 . S
O108 Cd98 2.297 1_455 S
O108 C103 1.247 . S
O109 Cd98 2.439 1_455 S
O109 C103 1.208 . S
O110 Cd111 2.223 1_655 S
O110 C118 1.315 . S
Cd111 O110 2.223 1_455 S
Cd111 O114 2.297 1_455 S
Cd111 O115 2.439 1_455 S
Cd111 O121 2.240 . S
Cd112 O113 2.240 1_565 S
Cd112 O120 2.223 1_655 S
Cd112 O122 2.297 1_655 S
Cd112 O123 2.439 1_655 S
O113 Cd112 2.240 1_545 S
O113 C118 1.279 . S
O114 Cd111 2.297 1_655 S
O114 C116 1.247 . S
O115 Cd111 2.439 1_655 S
O115 C116 1.208 . S
C116 O114 1.247 . S
C116 O115 1.208 . S
C117 O122 1.247 . S
C117 O123 1.208 . S
C118 O110 1.315 . S
C118 O113 1.279 . S
C119 O120 1.315 . S
C119 O121 1.279 1_565 S
O120 Cd112 2.223 1_455 S
O120 C119 1.315 . S
O121 Cd111 2.240 . S
O121 C119 1.279 1_545 S
O122 Cd112 2.297 1_455 S
O122 C117 1.247 . S
O123 Cd112 2.439 1_455 S
O123 C117 1.208 . S
C124 C125 1.363 1_565 S
C124 C130 1.379 . S
C124 N132 1.356 . S
C125 C124 1.363 1_545 S
C125 C131 1.363 . S
C126 C127 1.363 . S
C126 C131 1.379 . S
C126 N133 1.356 . S
C127 C126 1.363 . S
C127 C130 1.363 1_545 S
N128 C130 1.356 . S
N128 H140 0.984 . S
N128 H141 0.985 . S
N129 C131 1.356 . S
N129 H134 0.984 . S
N129 H135 0.985 . S
C130 C124 1.379 . S
C130 C127 1.363 1_565 S
C130 N128 1.356 . S
C131 C125 1.363 . S
C131 C126 1.379 . S
C131 N129 1.356 . S
N132 C124 1.356 . S
N132 H138 0.984 . S
N132 H139 0.984 . S
N133 C126 1.356 . S
N133 H136 0.984 . S
N133 H137 0.985 . S
H134 N129 0.984 . S
H135 N129 0.985 . S
H136 N133 0.984 . S
H137 N133 0.985 . S
H138 N132 0.984 . S
H139 N132 0.984 . S
H140 N128 0.984 . S
H141 N128 0.985 . S
C142 C143 1.363 1_455 S
C142 C148 1.379 . S
C142 N150 1.356 . S
C143 C142 1.363 1_655 S
C143 C149 1.363 . S
C144 C145 1.363 . S
C144 C149 1.379 . S
C144 N151 1.356 . S
C145 C144 1.363 . S
C145 C148 1.363 1_655 S
N146 C148 1.356 . S
N146 H158 0.984 . S
N146 H159 0.990 . S
N147 C149 1.356 . S
N147 H152 0.984 . S
N147 H153 0.985 . S
C148 C142 1.379 . S
C148 C145 1.363 1_455 S
C148 N146 1.356 . S
C149 C143 1.363 . S
C149 C144 1.379 . S
C149 N147 1.356 . S
N150 C142 1.356 . S
N150 H156 0.984 . S
N150 H157 0.984 . S
N151 C144 1.356 . S
N151 H154 0.984 . S
N151 H155 0.985 . S
H152 N147 0.984 . S
H153 N147 0.985 . S
H154 N151 0.984 . S
H155 N151 0.985 . S
H156 N150 0.984 . S
H157 N150 0.984 . S
H158 N146 0.984 . S
H159 N146 0.990 . S
C160 C161 1.363 . S
C160 C166 1.379 . S
C160 N168 1.356 . S
C161 C160 1.363 . S
C161 C167 1.363 1_545 S
C162 C163 1.363 . S
C162 C167 1.379 . S
C162 N169 1.356 . S
C163 C162 1.363 . S
C163 C166 1.363 1_565 S
N164 C166 1.356 . S
N164 H176 0.984 . S
N164 H177 0.985 . S
N165 C167 1.356 . S
N165 H170 0.984 . S
N165 H171 0.985 . S
C166 C160 1.379 . S
C166 C163 1.363 1_545 S
C166 N164 1.356 . S
C167 C161 1.363 1_565 S
C167 C162 1.379 . S
C167 N165 1.356 . S
N168 C160 1.356 . S
N168 H174 0.984 . S
N168 H175 0.984 . S
N169 C162 1.356 . S
N169 H172 0.984 . S
N169 H173 0.985 . S
H170 N165 0.984 . S
H171 N165 0.985 . S
H172 N169 0.984 . S
H173 N169 0.985 . S
H174 N168 0.984 . S
H175 N168 0.984 . S
H176 N164 0.984 . S
H177 N164 0.985 . S
C178 C179 1.363 . S
C178 C184 1.379 . S
C178 N186 1.356 . S
C179 C178 1.363 . S
C179 C185 1.363 1_455 S
C180 C181 1.363 1_655 S
C180 C185 1.379 . S
C180 N187 1.356 . S
C181 C180 1.363 1_455 S
C181 C184 1.363 . S
N182 C184 1.356 . S
N182 H194 0.984 . S
N182 H195 0.985 . S
N183 C185 1.356 . S
N183 H188 0.984 . S
N183 H189 0.985 . S
C184 C178 1.379 . S
C184 C181 1.363 . S
C184 N182 1.356 . S
C185 C179 1.363 1_655 S
C185 C180 1.379 . S
C185 N183 1.356 . S
N186 C178 1.356 . S
N186 H192 0.984 . S
N186 H193 0.984 . S
N187 C180 1.356 . S
N187 H190 0.984 . S
N187 H191 0.985 . S
H188 N183 0.984 . S
H189 N183 0.985 . S
H190 N187 0.984 . S
H191 N187 0.985 . S
H192 N186 0.984 . S
H193 N186 0.984 . S
H194 N182 0.984 . S
H195 N182 0.985 . S
C196 C197 1.363 1_565 S
C196 C202 1.379 . S
C196 N204 1.356 . S
C197 C196 1.363 1_545 S
C197 C203 1.363 . S
C198 C199 1.363 1_545 S
C198 C203 1.379 . S
C198 N205 1.356 . S
C199 C198 1.363 1_565 S
C199 C202 1.363 . S
N200 C202 1.356 . S
N200 H212 0.984 . S
N200 H213 0.985 . S
N201 C203 1.356 . S
N201 H206 0.984 . S
N201 H207 0.985 . S
C202 C196 1.379 . S
C202 C199 1.363 . S
C202 N200 1.356 . S
C203 C197 1.363 . S
C203 C198 1.379 . S
C203 N201 1.356 . S
N204 C196 1.356 . S
N204 H210 0.984 . S
N204 H211 0.984 . S
N205 C198 1.356 . S
N205 H208 0.984 . S
N205 H209 0.985 . S
H206 N201 0.984 . S
H207 N201 0.985 . S
H208 N205 0.984 . S
H209 N205 0.985 . S
H210 N204 0.984 . S
H211 N204 0.984 . S
H212 N200 0.984 . S
H213 N200 0.985 . S
C214 C215 1.363 . S
C214 C220 1.379 . S
C214 N222 1.356 . S
C215 C214 1.363 . S
C215 C221 1.363 . S
C216 C217 1.363 . S
C216 C221 1.379 . S
C216 N223 1.356 . S
C217 C216 1.363 . S
C217 C220 1.363 . S
N218 C220 1.356 . S
N218 H230 0.984 . S
N218 H231 0.985 . S
N219 C221 1.356 . S
N219 H224 0.984 1_455 S
N219 H225 0.985 . S
C220 C214 1.379 . S
C220 C217 1.363 . S
C220 N218 1.356 . S
C221 C215 1.363 . S
C221 C216 1.379 . S
C221 N219 1.356 . S
N222 C214 1.356 . S
N222 H228 0.984 . S
N222 H229 0.987 . S
N223 C216 1.356 . S
N223 H226 0.984 . S
N223 H227 0.985 . S
H224 N219 0.984 1_655 S
H225 N219 0.985 . S
H226 N223 0.984 . S
H227 N223 0.985 . S
H228 N222 0.984 . S
H229 N222 0.987 . S
H230 N218 0.984 . S
H231 N218 0.985 . S
C232 C233 1.363 1_565 S
C232 C238 1.379 . S
C232 N240 1.356 . S
C233 C232 1.363 1_545 S
C233 C239 1.363 . S
C234 C235 1.363 . S
C234 C239 1.379 . S
C234 N241 1.356 . S
C235 C234 1.363 . S
C235 C238 1.363 1_545 S
N236 C238 1.356 . S
N236 H248 0.984 . S
N236 H249 0.985 . S
N237 C239 1.356 . S
N237 H242 0.984 . S
N237 H243 0.985 . S
C238 C232 1.379 . S
C238 C235 1.363 1_565 S
C238 N236 1.356 . S
C239 C233 1.363 . S
C239 C234 1.379 . S
C239 N237 1.356 . S
N240 C232 1.356 . S
N240 H246 0.984 . S
N240 H247 0.984 . S
N241 C234 1.356 . S
N241 H244 0.984 . S
N241 H245 0.985 . S
H242 N237 0.984 . S
H243 N237 0.985 . S
H244 N241 0.984 . S
H245 N241 0.985 . S
H246 N240 0.984 . S
H247 N240 0.984 . S
H248 N236 0.984 . S
H249 N236 0.985 . S
C250 C251 1.363 . S
C250 C256 1.379 . S
C250 N258 1.356 . S
C251 C250 1.363 . S
C251 C257 1.363 1_655 S
C252 C253 1.363 1_455 S
C252 C257 1.379 . S
C252 N259 1.356 . S
C253 C252 1.363 1_655 S
C253 C256 1.363 . S
N254 C256 1.356 . S
N254 H266 0.984 . S
N254 H267 0.985 . S
N255 C257 1.356 . S
N255 H260 0.984 . S
N255 H261 0.985 . S
C256 C250 1.379 . S
C256 C253 1.363 . S
C256 N254 1.356 . S
C257 C251 1.363 1_455 S
C257 C252 1.379 . S
C257 N255 1.356 . S
N258 C250 1.356 . S
N258 H264 0.984 . S
N258 H265 0.984 . S
N259 C252 1.356 . S
N259 H262 0.987 . S
N259 H263 0.985 . S
H260 N255 0.984 . S
H261 N255 0.985 . S
H262 N259 0.987 . S
H263 N259 0.985 . S
H264 N258 0.984 . S
H265 N258 0.984 . S
H266 N254 0.984 . S
H267 N254 0.985 . S
C127 C105 1.639 . S
C125 C45 1.638 . S
C145 C116 1.538 . S
C143 C78 1.605 . S
C163 C104 1.640 . S
C161 C21 1.632 . S
C181 C117 1.538 . S
C179 C84 1.628 1_455 S
C199 C119 1.640 . S
C197 C36 1.639 . S
C217 C103 1.538 . S
C215 C69 1.619 . S
C235 C118 1.639 . S
C233 C30 1.617 . S
C251 C93 1.632 1_655 S
C253 C102 1.538 . S
