# Generated by pormake.
# Topology anh, (6,3)-cn, num edge types: 1
# Building blocks:
#     Node 0, Type 0, BuildingBlock: NUHQIS_clean_sbu_0, # of connection points: 6
#     Node 1, Type 0, BuildingBlock: NUHQIS_clean_sbu_0, # of connection points: 6
#     Node 2, Type 0, BuildingBlock: NUHQIS_clean_sbu_0, # of connection points: 6
#     Node 3, Type 1, BuildingBlock: BETDAH_clean_linker_0, # of connection points: 3
#     Node 4, Type 1, BuildingBlock: BETDAH_clean_linker_0, # of connection points: 3
#     Node 5, Type 1, BuildingBlock: BETDAH_clean_linker_0, # of connection points: 3
#     Node 6, Type 1, BuildingBlock: BETDAH_clean_linker_0, # of connection points: 3
#     Node 7, Type 1, BuildingBlock: BETDAH_clean_linker_0, # of connection points: 3
#     Node 8, Type 1, BuildingBlock: BETDAH_clean_linker_0, # of connection points: 3
#     Edge 9, Type (0, 1), None
#     Edge 10, Type (0, 1), None
#     Edge 11, Type (0, 1), None
#     Edge 12, Type (0, 1), None
#     Edge 13, Type (0, 1), None
#     Edge 14, Type (0, 1), None
#     Edge 15, Type (0, 1), None
#     Edge 16, Type (0, 1), None
#     Edge 17, Type (0, 1), None
#     Edge 18, Type (0, 1), None
#     Edge 19, Type (0, 1), None
#     Edge 20, Type (0, 1), None
#     Edge 21, Type (0, 1), None
#     Edge 22, Type (0, 1), None
#     Edge 23, Type (0, 1), None
#     Edge 24, Type (0, 1), None
#     Edge 25, Type (0, 1), None
#     Edge 26, Type (0, 1), None
# Relax obj value: 0.732
# Max RMSD: 0.231
# Mean RMSD: 0.150
data_MOF--net-anh--node1-NUHQIS_clean_sbu_0--node2-BETDAH_clean_linker_0--edge1-none
_symmetry_space_group_name_H-M    P1
_symmetry_Int_Tables_number       1
_symmetry_cell_setting            triclinic
loop_
_symmetry_equiv_pos_as_xyz
'x, y, z'
_cell_length_a     13.237731
_cell_length_b     13.149159
_cell_length_c     21.451358
_cell_angle_alpha  89.60663
_cell_angle_beta   94.877762
_cell_angle_gamma 120.03877
loop_
_atom_site_label
_atom_site_type_symbol
_atom_site_fract_x
_atom_site_fract_y
_atom_site_fract_z
_atom_type_partial_charge
Tb0 Tb 0.45578 0.78775 0.17892 0.0
Eu1 Eu 1.32241 0.92221 0.22012 0.0
C2 C 0.4491 0.82377 0.31847 0.0
C3 C 1.18638 0.64264 0.21115 0.0
C4 C 0.49302 0.53699 0.15481 0.0
C5 C 0.428 0.34238 0.11096 0.0
C6 C 0.44295 0.45458 0.10424 0.0
C7 C 0.50897 0.4991 0.21445 0.0
C8 C 0.49613 0.38734 0.22027 0.0
C9 C 0.47599 0.31869 0.16597 0.0
C10 C 0.53304 0.66157 0.14379 0.0
O11 O 0.43898 0.87782 0.09745 0.0
O12 O 1.26392 0.85329 0.11718 0.0
O13 O 0.50295 1.06697 0.2052 0.0
O14 O 0.59922 0.96213 0.21595 0.0
C15 C 1.33458 0.85655 0.07625 0.0
O16 O 1.22648 1.01506 0.19701 0.0
O17 O 1.27432 0.99919 0.2938 0.0
O18 O 0.42774 0.90951 0.30572 0.0
O19 O 0.43204 0.74576 0.27546 0.0
O20 O 1.26956 0.65123 0.17802 0.0
O21 O 1.19385 0.73439 0.23931 0.0
C22 C 0.59882 1.06231 0.21924 0.0
O23 O 0.46039 0.68133 0.1083 0.0
O24 O 0.58177 0.7355 0.19201 0.0
C25 C 1.08107 0.95493 0.26591 0.0
C26 C 0.8669 0.76877 0.2168 0.0
C27 C 0.89344 0.88558 0.20677 0.0
C28 C 1.00297 0.97881 0.22959 0.0
C29 C 1.03744 0.84397 0.29199 0.0
C30 C 0.93116 0.75038 0.26682 0.0
C31 C 1.20586 1.01976 0.25515 0.0
H32 H 0.40568 0.28695 0.06902 0.0
H33 H 0.42558 0.48027 0.05842 0.0
H34 H 0.54232 0.55895 0.25515 0.0
H35 H 0.52775 0.36738 0.26431 0.0
H36 H 0.83929 0.90439 0.17354 0.0
H37 H 1.03257 1.06521 0.21119 0.0
H38 H 1.09349 0.82404 0.32317 0.0
H39 H 0.91152 0.66335 0.28001 0.0
Tb40 Tb 1.01312 0.47721 0.49518 0.0
Eu41 Eu 0.75627 0.34144 0.54627 0.0
C42 C 0.99943 0.43639 0.63473 0.0
C43 C 0.90021 1.20644 0.5398 0.0
C44 C 1.28889 0.52093 0.44919 0.0
C45 C 0.42657 0.48452 0.40015 0.0
C46 C 1.32803 0.49797 0.39521 0.0
C47 C 1.33795 0.51198 0.50828 0.0
C48 C 0.43731 0.5 0.51286 0.0
C49 C 0.48987 0.50137 0.45864 0.0
C50 C 1.1984 0.55491 0.44318 0.0
O51 O 0.88202 0.46186 0.42264 0.0
O52 O 0.74484 0.28098 0.4445 0.0
O53 O 0.79452 0.5272 0.53451 0.0
O54 O 0.99552 0.61781 0.5415 0.0
C55 C 0.80129 0.35657 0.40228 0.0
O56 O 0.56495 0.24433 0.53093 0.0
O57 O 0.64891 0.29422 0.62518 0.0
O58 O 0.8959 0.42833 0.62697 0.0
O59 O 1.05728 0.44126 0.58764 0.0
O60 O 0.9709 0.29169 0.50465 0.0
O61 O 0.81545 1.20971 0.56525 0.0
C62 C 0.89817 0.62041 0.54843 0.0
O63 O 1.09687 0.47423 0.4172 0.0
O64 O 1.18914 0.60769 0.49204 0.0
C65 C 0.50157 1.09756 0.60412 0.0
C66 C 0.48621 0.89972 0.54851 0.0
C67 C 0.38806 0.91583 0.54275 0.0
C68 C 0.39705 1.01702 0.56938 0.0
C69 C 0.57932 1.05916 0.62673 0.0
C70 C 0.57405 0.96225 0.59738 0.0
C71 C 0.55349 1.22282 0.59033 0.0
H72 H 0.4649 0.48356 0.35766 0.0
H73 H 1.28833 0.49966 0.34918 0.0
H74 H 1.30576 0.52375 0.55085 0.0
H75 H 0.48408 0.51148 0.55865 0.0
H76 H 1.31271 0.86182 0.50996 0.0
H77 H 1.33235 1.04152 0.55386 0.0
H78 H 0.65747 1.11608 0.65722 0.0
H79 H 0.64845 0.94944 0.60658 0.0
Tb80 Tb 0.86765 0.86938 0.89183 0.0
Eu81 Eu 0.74088 0.59121 0.84901 0.0
C82 C 0.78707 0.6707 0.98797 0.0
C83 C 1.02029 0.74292 0.89678 0.0
C84 C 1.11554 1.15998 0.92908 0.0
C85 C 1.27926 0.35845 0.94385 0.0
C86 C 1.17413 0.26773 0.96319 0.0
C87 C 1.17363 1.13579 0.88476 0.0
C88 C 1.2783 1.22632 0.86577 0.0
C89 C 1.32126 0.341 0.88934 0.0
C90 C 0.99055 1.07866 0.93342 0.0
O91 O 0.89968 0.86646 0.79068 0.0
O92 O 0.76069 0.67742 0.75688 0.0
O93 O 0.59406 0.63024 0.86353 0.0
O94 O 0.68765 0.83218 0.87838 0.0
C95 C 0.8403 0.78484 0.74481 0.0
O96 O 0.69839 0.43681 0.79111 0.0
O97 O 0.619 0.41466 0.87811 0.0
O98 O 0.80833 0.61213 0.94819 0.0
O99 O 0.77897 0.76249 0.97033 0.0
O100 O 1.00408 0.8274 0.91566 0.0
O101 O 0.93762 0.65152 0.86209 0.0
C102 C 0.59216 0.72851 0.87276 0.0
O103 O 0.9244 1.04817 0.88031 0.0
O104 O 0.96781 0.98843 0.96696 0.0
C105 C 0.70074 0.2972 0.8572 0.0
C106 C 0.89263 0.27369 0.83975 0.0
C107 C 0.78041 1.18657 0.81385 0.0
C108 C 0.68471 1.20222 0.82008 0.0
C109 C 0.80241 0.3558 0.89918 0.0
C110 C 0.89947 0.34448 0.89025 0.0
C111 C 0.64464 0.36444 0.83477 0.0
H112 H 1.31143 0.4468 0.96253 0.0
H113 H 1.132 0.28645 0.99897 0.0
H114 H 1.13166 1.05107 0.8598 0.0
H115 H 1.31154 1.21067 0.82457 0.0
H116 H 0.77223 1.12592 0.77716 0.0
H117 H 0.60594 1.15339 0.78849 0.0
H118 H 0.81501 0.42594 0.93055 0.0
H119 H 0.9837 0.40844 0.91367 0.0
H120 H 0.63026 1.15612 0.33656 0.0
H121 H 0.95838 0.47436 0.3162 0.0
H122 H 0.79904 1.20973 0.16685 0.0
C123 C 0.70294 1.21006 0.30937 0.0
C124 C 0.70319 1.17046 0.24825 0.0
C125 C 0.79554 0.31882 0.3354 0.0
C126 C 0.88749 0.38966 0.29795 0.0
C127 C 0.88988 0.34997 0.23743 0.0
C128 C 0.7984 0.23951 0.21374 0.0
N129 N 0.98108 0.41749 0.19819 0.0
C130 C 1.07892 0.52963 0.21099 0.0
H131 H 0.8539 0.63205 0.66794 0.0
H132 H 0.893 0.97937 0.66882 0.0
H133 H 0.94995 0.83454 0.50387 0.0
C134 C 0.87397 0.71261 0.64464 0.0
C135 C 0.90295 0.72256 0.58224 0.0
C136 C 0.87224 0.8049 0.67777 0.0
C137 C 0.89564 0.90832 0.64522 0.0
C138 C 0.92213 0.91827 0.58161 0.0
C139 C 0.9284 0.82629 0.55197 0.0
N140 N 0.95013 1.01978 0.54542 0.0
C141 C 0.9177 1.10586 0.55 0.0
H142 H 1.13281 0.82381 0.01246 0.0
H143 H 0.43803 0.79533 0.98747 0.0
H144 H 1.15691 0.67603 0.83982 0.0
C145 C 1.1812 0.79902 0.98373 0.0
C146 C 1.13224 0.74972 0.92254 0.0
C147 C 1.2907 0.81528 0.00868 0.0
C148 C 0.35381 0.78409 0.96979 0.0
C149 C 1.30541 0.73347 0.90878 0.0
C150 C 1.19384 0.71461 0.88654 0.0
N151 N 0.36215 0.69636 0.86809 0.0
C152 C 0.4789 0.72211 0.87184 0.0
H153 H 0.41162 0.89188 0.42571 0.0
H154 H 0.60397 0.74839 0.34929 0.0
H155 H 0.62504 0.79628 0.54816 0.0
C156 C 0.46935 0.85609 0.43356 0.0
C157 C 0.51309 0.84887 0.49462 0.0
C158 C 0.50032 0.81924 0.38136 0.0
C159 C 0.58112 0.77964 0.38943 0.0
C160 C 0.629 0.77481 0.44955 0.0
C161 C 0.59322 0.80757 0.50194 0.0
N162 N 0.68646 0.70848 0.45787 0.0
C163 C 0.61096 0.58883 0.4603 0.0
H164 H 0.86447 0.3205 0.72189 0.0
H165 H 1.22553 0.50952 0.68392 0.0
H166 H 1.12806 0.36773 0.86491 0.0
C167 C 0.95597 0.35251 0.73714 0.0
C168 C 0.98657 0.32896 0.79698 0.0
C169 C 1.04064 0.41967 0.69713 0.0
C170 C 1.15951 0.46109 0.71578 0.0
C171 C 1.19299 0.43919 0.77579 0.0
C172 C 1.10542 0.37697 0.81704 0.0
N173 N 1.31343 0.47736 0.79328 0.0
C174 C 1.34395 0.42593 0.84248 0.0
H175 H 0.83813 0.80239 0.09191 0.0
H176 H 0.71544 0.4499 0.0257 0.0
H177 H 0.76094 0.5255 0.22252 0.0
C178 C 0.80552 0.71131 0.10262 0.0
C179 C 0.80568 0.6767 0.16506 0.0
C180 C 0.77467 0.63113 0.05254 0.0
C181 C 0.74183 0.51374 0.06418 0.0
C182 C 0.73745 0.47622 0.1253 0.0
C183 C 0.76789 0.55723 0.17553 0.0
N184 N 0.68381 0.35422 0.13575 0.0
C185 C 0.57227 0.30323 0.155 0.0
loop_
_geom_bond_atom_site_label_1
_geom_bond_atom_site_label_2
_geom_bond_distance
_geom_bond_site_symmetry_2
_ccdc_geom_bond_type
Tb0 C10 2.825 . S
Tb0 O11 2.347 . S
Tb0 O14 2.366 . S
Tb0 O19 2.418 . S
Tb0 O20 2.384 1_455 S
Tb0 O23 2.479 . S
Tb0 O24 2.471 . S
Eu1 O12 2.418 . S
Eu1 O13 2.384 1_655 S
Eu1 O16 2.479 . S
Eu1 O17 2.471 . S
Eu1 O18 2.347 1_655 S
Eu1 O21 2.366 . S
Eu1 C31 2.825 . S
C2 O18 1.259 . S
C2 O19 1.265 . S
C3 O20 1.255 . S
C3 O21 1.265 . S
C4 C6 1.380 . S
C4 C7 1.374 . S
C4 C10 1.507 . S
C5 C6 1.384 . S
C5 C9 1.387 . S
C5 H32 0.930 . S
C6 C4 1.380 . S
C6 C5 1.384 . S
C6 H33 0.931 . S
C7 C4 1.374 . S
C7 C8 1.390 . S
C7 H34 0.930 . S
C8 C7 1.390 . S
C8 C9 1.391 . S
C8 H35 0.930 . S
C9 C5 1.387 . S
C9 C8 1.391 . S
C10 Tb0 2.825 . S
C10 C4 1.507 . S
C10 O23 1.238 . S
C10 O24 1.247 . S
O11 Tb0 2.347 . S
O11 C15 1.259 . S
O12 Eu1 2.418 . S
O12 C15 1.265 1_655 S
O13 Eu1 2.384 1_455 S
O13 C22 1.255 . S
O14 Tb0 2.366 . S
O14 C22 1.265 . S
C15 O11 1.259 . S
C15 O12 1.265 1_455 S
O16 Eu1 2.479 . S
O16 C31 1.238 . S
O17 Eu1 2.471 . S
O17 C31 1.247 . S
O18 Eu1 2.347 1_455 S
O18 C2 1.259 . S
O19 Tb0 2.418 . S
O19 C2 1.265 . S
O20 Tb0 2.384 1_655 S
O20 C3 1.255 . S
O21 Eu1 2.366 . S
O21 C3 1.265 . S
C22 O13 1.255 . S
C22 O14 1.265 . S
O23 Tb0 2.479 . S
O23 C10 1.238 . S
O24 Tb0 2.471 . S
O24 C10 1.247 . S
C25 C28 1.380 . S
C25 C29 1.374 . S
C25 C31 1.507 . S
C26 C27 1.387 . S
C26 C30 1.391 . S
C27 C26 1.387 . S
C27 C28 1.384 . S
C27 H36 0.930 . S
C28 C25 1.380 . S
C28 C27 1.384 . S
C28 H37 0.931 . S
C29 C25 1.374 . S
C29 C30 1.390 . S
C29 H38 0.930 . S
C30 C26 1.391 . S
C30 C29 1.390 . S
C30 H39 0.930 . S
C31 Eu1 2.825 . S
C31 O16 1.238 . S
C31 O17 1.247 . S
C31 C25 1.507 . S
H32 C5 0.930 . S
H33 C6 0.931 . S
H34 C7 0.930 . S
H35 C8 0.930 . S
H36 C27 0.930 . S
H37 C28 0.931 . S
H38 C29 0.930 . S
H39 C30 0.930 . S
Tb40 C50 2.825 . S
Tb40 O51 2.347 . S
Tb40 O54 2.366 . S
Tb40 O59 2.418 . S
Tb40 O60 2.384 1_545 S
Tb40 O63 2.479 . S
Tb40 O64 2.471 . S
Eu41 O52 2.418 . S
Eu41 O53 2.384 . S
Eu41 O56 2.479 1_545 S
Eu41 O57 2.471 1_545 S
Eu41 O58 2.347 . S
Eu41 O61 2.366 1_545 S
Eu41 C71 2.825 1_545 S
C42 O58 1.259 . S
C42 O59 1.265 . S
C43 O60 1.255 . S
C43 O61 1.265 . S
C44 C46 1.380 . S
C44 C47 1.374 . S
C44 C50 1.507 . S
C45 C46 1.384 . S
C45 C49 1.387 . S
C45 H72 0.930 1_655 S
C46 C44 1.380 . S
C46 C45 1.384 . S
C46 H73 0.931 . S
C47 C44 1.374 . S
C47 C48 1.390 . S
C47 H74 0.930 . S
C48 C47 1.390 . S
C48 C49 1.391 . S
C48 H75 0.930 . S
C49 C45 1.387 . S
C49 C48 1.391 . S
C50 Tb40 2.825 . S
C50 C44 1.507 . S
C50 O63 1.238 . S
C50 O64 1.247 . S
O51 Tb40 2.347 . S
O51 C55 1.259 . S
O52 Eu41 2.418 . S
O52 C55 1.265 . S
O53 Eu41 2.384 . S
O53 C62 1.255 . S
O54 Tb40 2.366 . S
O54 C62 1.265 . S
C55 O51 1.259 . S
C55 O52 1.265 . S
O56 Eu41 2.479 1_565 S
O56 C71 1.238 . S
O57 Eu41 2.471 1_565 S
O57 C71 1.247 . S
O58 Eu41 2.347 . S
O58 C42 1.259 . S
O59 Tb40 2.418 . S
O59 C42 1.265 . S
O60 Tb40 2.384 1_565 S
O60 C43 1.255 . S
O61 Eu41 2.366 1_565 S
O61 C43 1.265 . S
C62 O53 1.255 . S
C62 O54 1.265 . S
O63 Tb40 2.479 . S
O63 C50 1.238 . S
O64 Tb40 2.471 . S
O64 C50 1.247 . S
C65 C68 1.380 . S
C65 C69 1.374 . S
C65 C71 1.507 . S
C66 C67 1.387 . S
C66 C70 1.391 . S
C67 C66 1.387 . S
C67 C68 1.384 . S
C67 H76 0.930 . S
C68 C65 1.380 . S
C68 C67 1.384 . S
C68 H77 0.931 . S
C69 C65 1.374 . S
C69 C70 1.390 . S
C69 H78 0.930 . S
C70 C66 1.391 . S
C70 C69 1.390 . S
C70 H79 0.930 . S
C71 Eu41 2.825 1_565 S
C71 O56 1.238 . S
C71 O57 1.247 . S
C71 C65 1.507 . S
H72 C45 0.930 1_455 S
H73 C46 0.931 . S
H74 C47 0.930 . S
H75 C48 0.930 . S
H76 C67 0.930 . S
H77 C68 0.931 . S
H78 C69 0.930 . S
H79 C70 0.930 . S
Tb80 C90 2.825 . S
Tb80 O91 2.347 . S
Tb80 O94 2.366 . S
Tb80 O99 2.418 1_556 S
Tb80 O100 2.384 . S
Tb80 O103 2.479 . S
Tb80 O104 2.471 . S
Eu81 O92 2.418 . S
Eu81 O93 2.384 . S
Eu81 O96 2.479 . S
Eu81 O97 2.471 . S
Eu81 O98 2.347 . S
Eu81 O101 2.366 . S
Eu81 C111 2.825 . S
C82 O98 1.259 1_554 S
C82 O99 1.265 . S
C83 O100 1.255 . S
C83 O101 1.265 . S
C84 C86 1.380 . S
C84 C87 1.374 . S
C84 C90 1.507 . S
C85 C86 1.384 . S
C85 C89 1.387 . S
C85 H112 0.930 . S
C86 C84 1.380 . S
C86 C85 1.384 . S
C86 H113 0.931 1_556 S
C87 C84 1.374 . S
C87 C88 1.390 . S
C87 H114 0.930 . S
C88 C87 1.390 . S
C88 C89 1.391 . S
C88 H115 0.930 . S
C89 C85 1.387 . S
C89 C88 1.391 . S
C90 Tb80 2.825 . S
C90 C84 1.507 . S
C90 O103 1.238 . S
C90 O104 1.247 . S
O91 Tb80 2.347 . S
O91 C95 1.259 . S
O92 Eu81 2.418 . S
O92 C95 1.265 . S
O93 Eu81 2.384 . S
O93 C102 1.255 . S
O94 Tb80 2.366 . S
O94 C102 1.265 . S
C95 O91 1.259 . S
C95 O92 1.265 . S
O96 Eu81 2.479 . S
O96 C111 1.238 . S
O97 Eu81 2.471 . S
O97 C111 1.247 . S
O98 Eu81 2.347 . S
O98 C82 1.259 1_556 S
O99 Tb80 2.418 1_554 S
O99 C82 1.265 . S
O100 Tb80 2.384 . S
O100 C83 1.255 . S
O101 Eu81 2.366 . S
O101 C83 1.265 . S
C102 O93 1.255 . S
C102 O94 1.265 . S
O103 Tb80 2.479 . S
O103 C90 1.238 . S
O104 Tb80 2.471 . S
O104 C90 1.247 . S
C105 C108 1.380 . S
C105 C109 1.374 . S
C105 C111 1.507 . S
C106 C107 1.387 . S
C106 C110 1.391 . S
C107 C106 1.387 . S
C107 C108 1.384 . S
C107 H116 0.930 . S
C108 C105 1.380 . S
C108 C107 1.384 . S
C108 H117 0.931 . S
C109 C105 1.374 . S
C109 C110 1.390 . S
C109 H118 0.930 . S
C110 C106 1.391 . S
C110 C109 1.390 . S
C110 H119 0.930 . S
C111 Eu81 2.825 . S
C111 O96 1.238 . S
C111 O97 1.247 . S
C111 C105 1.507 . S
H112 C85 0.930 . S
H113 C86 0.931 1_554 S
H114 C87 0.930 . S
H115 C88 0.930 . S
H116 C107 0.930 . S
H117 C108 0.931 . S
H118 C109 0.930 . S
H119 C110 0.930 . S
H120 C123 0.929 . S
H121 C126 0.929 . S
H122 C128 0.930 . S
C123 H120 0.929 . S
C123 C124 1.398 . S
C123 C125 1.396 1_565 S
C124 C123 1.398 . S
C124 C128 1.407 . S
C125 C123 1.396 1_545 S
C125 C126 1.394 . S
C126 H121 0.929 . S
C126 C125 1.394 . S
C126 C127 1.382 . S
C127 C126 1.382 . S
C127 C128 1.392 1_545 S
C127 N129 1.420 . S
C128 H122 0.930 . S
C128 C124 1.407 . S
C128 C127 1.392 1_565 S
N129 C127 1.420 . S
N129 C130 1.244 . S
C130 N129 1.244 . S
H131 C134 0.929 . S
H132 C137 0.929 . S
H133 C139 0.930 . S
C134 H131 0.929 . S
C134 C135 1.398 . S
C134 C136 1.396 . S
C135 C134 1.398 . S
C135 C139 1.407 . S
C136 C134 1.396 . S
C136 C137 1.394 . S
C137 H132 0.929 . S
C137 C136 1.394 . S
C137 C138 1.382 . S
C138 C137 1.382 . S
C138 C139 1.392 . S
C138 N140 1.420 . S
C139 H133 0.930 . S
C139 C135 1.407 . S
C139 C138 1.392 . S
N140 C138 1.420 . S
N140 C141 1.244 . S
C141 N140 1.244 . S
H142 C145 0.929 . S
H143 C148 0.929 . S
H144 C150 0.930 . S
C145 H142 0.929 . S
C145 C146 1.398 . S
C145 C147 1.396 1_656 S
C146 C145 1.398 . S
C146 C150 1.407 . S
C147 C145 1.396 1_454 S
C147 C148 1.394 1_554 S
C148 H143 0.929 . S
C148 C147 1.394 1_556 S
C148 C149 1.382 . S
C149 C148 1.382 . S
C149 C150 1.392 1_455 S
C149 N151 1.420 . S
C150 H144 0.930 . S
C150 C146 1.407 . S
C150 C149 1.392 1_655 S
N151 C149 1.420 . S
N151 C152 1.244 . S
C152 N151 1.244 . S
H153 C156 0.929 . S
H154 C159 0.929 . S
H155 C161 0.930 . S
C156 H153 0.929 . S
C156 C157 1.398 . S
C156 C158 1.396 . S
C157 C156 1.398 . S
C157 C161 1.407 . S
C158 C156 1.396 . S
C158 C159 1.394 1_455 S
C159 H154 0.929 . S
C159 C158 1.394 1_655 S
C159 C160 1.382 . S
C160 C159 1.382 . S
C160 C161 1.392 1_655 S
C160 N162 1.420 . S
C161 H155 0.930 . S
C161 C157 1.407 . S
C161 C160 1.392 1_455 S
N162 C160 1.420 . S
N162 C163 1.244 . S
C163 N162 1.244 . S
H164 C167 0.929 . S
H165 C170 0.929 . S
H166 C172 0.930 . S
C167 H164 0.929 . S
C167 C168 1.398 . S
C167 C169 1.396 . S
C168 C167 1.398 . S
C168 C172 1.407 . S
C169 C167 1.396 . S
C169 C170 1.394 1_545 S
C170 H165 0.929 . S
C170 C169 1.394 1_565 S
C170 C171 1.382 . S
C171 C170 1.382 . S
C171 C172 1.392 1_565 S
C171 N173 1.420 . S
C172 H166 0.930 . S
C172 C168 1.407 . S
C172 C171 1.392 1_545 S
N173 C171 1.420 . S
N173 C174 1.244 . S
C174 N173 1.244 . S
H175 C178 0.929 1_556 S
H176 C181 0.929 1_556 S
H177 C183 0.930 . S
C178 H175 0.929 1_554 S
C178 C179 1.398 . S
C178 C180 1.396 1_554 S
C179 C178 1.398 . S
C179 C183 1.407 . S
C180 C178 1.396 1_556 S
C180 C181 1.394 1_556 S
C181 H176 0.929 1_554 S
C181 C180 1.394 1_554 S
C181 C182 1.382 . S
C182 C181 1.382 . S
C182 C183 1.392 . S
C182 N184 1.420 . S
C183 H177 0.930 . S
C183 C179 1.407 . S
C183 C182 1.392 . S
N184 C182 1.420 . S
N184 C185 1.244 . S
C185 N184 1.244 . S
C9 C185 3.549 . S
C49 C163 3.626 . S
C89 C174 3.497 . S
C26 C179 3.312 . S
C157 C66 2.974 . S
C168 C106 3.197 . S
C43 C141 4.611 . S
C83 C146 4.660 . S
C22 C124 4.710 . S
C135 C62 4.729 . S
C152 C102 4.674 . S
C3 C130 4.647 . S
C147 C15 1.958 . S
C55 C125 2.014 . S
C95 C136 1.970 . S
C169 C42 1.084 . S
C180 C82 1.268 1_556 S
C2 C158 0.906 . S
