# Generated by pormake.
# Topology rtl, (3,6)-cn, num edge types: 1
# Building blocks:
#     Node 0, Type 0, BuildingBlock: ESEHIV_clean_linker_0, # of connection points: 3
#     Node 1, Type 0, BuildingBlock: ESEHIV_clean_linker_0, # of connection points: 3
#     Node 2, Type 0, BuildingBlock: ESEHIV_clean_linker_0, # of connection points: 3
#     Node 3, Type 0, BuildingBlock: ESEHIV_clean_linker_0, # of connection points: 3
#     Node 4, Type 1, BuildingBlock: VOLQOD_clean_sbu_1, # of connection points: 6
#     Node 5, Type 1, BuildingBlock: VOLQOD_clean_sbu_1, # of connection points: 6
#     Edge 6, Type (0, 1), BuildingBlock: EYOCIG_clean_linker_4, # of connection points: 2
#     Edge 7, Type (0, 1), BuildingBlock: EYOCIG_clean_linker_4, # of connection points: 2
#     Edge 8, Type (0, 1), BuildingBlock: EYOCIG_clean_linker_4, # of connection points: 2
#     Edge 9, Type (0, 1), BuildingBlock: EYOCIG_clean_linker_4, # of connection points: 2
#     Edge 10, Type (0, 1), BuildingBlock: EYOCIG_clean_linker_4, # of connection points: 2
#     Edge 11, Type (0, 1), BuildingBlock: EYOCIG_clean_linker_4, # of connection points: 2
#     Edge 12, Type (0, 1), BuildingBlock: EYOCIG_clean_linker_4, # of connection points: 2
#     Edge 13, Type (0, 1), BuildingBlock: EYOCIG_clean_linker_4, # of connection points: 2
#     Edge 14, Type (0, 1), BuildingBlock: EYOCIG_clean_linker_4, # of connection points: 2
#     Edge 15, Type (0, 1), BuildingBlock: EYOCIG_clean_linker_4, # of connection points: 2
#     Edge 16, Type (0, 1), BuildingBlock: EYOCIG_clean_linker_4, # of connection points: 2
#     Edge 17, Type (0, 1), BuildingBlock: EYOCIG_clean_linker_4, # of connection points: 2
# Relax obj value: 0.079
# Max RMSD: 0.156
# Mean RMSD: 0.088
data_MOF--net-rtl--node1-VOLQOD_clean_sbu_1--node2-ESEHIV_clean_linker_0--edge1-EYOCIG_clean_linker_4
_symmetry_space_group_name_H-M    P1
_symmetry_Int_Tables_number       1
_symmetry_cell_setting            triclinic
loop_
_symmetry_equiv_pos_as_xyz
'x, y, z'
_cell_length_a     27.345104
_cell_length_b     24.124222
_cell_length_c     17.987836
_cell_angle_alpha  89.962351
_cell_angle_beta   90.264505
_cell_angle_gamma 90.016112
loop_
_atom_site_label
_atom_site_type_symbol
_atom_site_fract_x
_atom_site_fract_y
_atom_site_fract_z
_atom_type_partial_charge
H0 H 0.05364 0.79503 0.01895 0.0
H1 H 0.16172 0.69772 0.13383 0.0
H2 H 0.15286 0.69275 0.895 0.0
C3 C 0.08176 0.76328 0.0178 0.0
C4 C 0.09857 0.74325 0.94958 0.0
C5 C 0.10485 0.74721 0.08393 0.0
C6 C 0.14275 0.70838 0.08264 0.0
C7 C 0.16034 0.68896 0.01454 0.0
C8 C 0.13773 0.70563 0.94789 0.0
H9 H 0.5545 0.70639 0.51635 0.0
H10 H 0.66084 0.80315 0.39833 0.0
H11 H 0.65511 0.81007 0.63719 0.0
C12 C 0.58259 0.73819 0.51653 0.0
C13 C 0.60046 0.75868 0.58422 0.0
C14 C 0.60456 0.75396 0.44968 0.0
C15 C 0.64261 0.79273 0.44996 0.0
C16 C 0.66098 0.81292 0.51752 0.0
C17 C 0.63934 0.79668 0.58474 0.0
H18 H 0.94938 0.20541 0.01808 0.0
H19 H 0.84294 0.30408 0.13271 0.0
H20 H 0.85136 0.31016 0.89393 0.0
C21 C 0.92162 0.23757 0.01694 0.0
C22 C 0.90474 0.25802 0.94869 0.0
C23 C 0.89902 0.2537 0.08303 0.0
C24 C 0.86157 0.29323 0.08159 0.0
C25 C 0.84435 0.31379 0.01346 0.0
C26 C 0.86638 0.29672 0.94687 0.0
H27 H 0.45154 0.2935 0.51631 0.0
H28 H 0.35159 0.18986 0.63712 0.0
H29 H 0.34504 0.19611 0.39818 0.0
C30 C 0.42355 0.26158 0.51656 0.0
C31 C 0.40137 0.24553 0.44966 0.0
C32 C 0.40611 0.24109 0.58428 0.0
C33 C 0.36717 0.20315 0.5847 0.0
C34 C 0.34525 0.1868 0.51743 0.0
C35 C 0.36348 0.20662 0.44987 0.0
O36 O 0.88492 0.98488 0.53631 0.0
Zn37 Zn 0.94049 0.03936 0.52608 0.0
O38 O 0.00267 0.00059 0.51599 0.0
Zn39 Zn 0.04403 0.01327 0.60281 0.0
Zn40 Zn 0.98933 0.9216 0.50615 0.0
Zn41 Zn 0.03716 0.02738 0.42843 0.0
O42 O 0.10987 0.04404 0.57314 0.0
O43 O 0.0983 0.06935 0.45528 0.0
O44 O 0.94245 0.08969 0.61622 0.0
O45 O 0.01387 0.07011 0.67028 0.0
O46 O 0.05115 0.94329 0.66335 0.0
O47 O 0.00919 0.88022 0.59908 0.0
O48 O 0.02536 0.89053 0.41864 0.0
O49 O 0.92564 0.08502 0.43348 0.0
O50 O 0.05786 0.96428 0.363 0.0
O51 O 0.99381 0.07586 0.36737 0.0
C52 C 0.88073 0.93487 0.51479 0.0
C53 C 0.12423 0.06808 0.51411 0.0
C54 C 0.03389 0.8946 0.65597 0.0
C55 C 0.97381 0.09682 0.66793 0.0
C56 C 0.05044 0.91236 0.367 0.0
C57 C 0.95091 0.09486 0.37562 0.0
O58 O 0.91729 0.90658 0.49336 0.0
O59 O 0.62015 0.48681 -0.00378 0.0
Zn60 Zn 0.56398 0.54011 0.00711 0.0
O61 O 0.50202 0.50053 0.01614 0.0
Zn62 Zn 0.46118 0.51337 0.9285 0.0
Zn63 Zn 0.51616 0.4216 0.02602 0.0
Zn64 Zn 0.46704 0.52673 0.10369 0.0
O65 O 0.39544 0.54509 0.95733 0.0
O66 O 0.40579 0.5683 0.07619 0.0
O67 O 0.56227 0.59112 0.91812 0.0
O68 O 0.49208 0.57032 0.86127 0.0
O69 O 0.45337 0.44269 0.86897 0.0
O70 O 0.49477 0.37965 0.93429 0.0
O71 O 0.48141 0.39032 0.11469 0.0
O72 O 0.57826 0.58564 0.09965 0.0
O73 O 0.44707 0.46321 0.16964 0.0
O74 O 0.50966 0.57617 0.16461 0.0
C75 C 0.62497 0.43653 0.01618 0.0
C76 C 0.38058 0.5683 0.01663 0.0
C77 C 0.46988 0.39371 0.87741 0.0
C78 C 0.53166 0.5979 0.86537 0.0
C79 C 0.45583 0.4115 0.16619 0.0
C80 C 0.55248 0.59558 0.15689 0.0
O81 O 0.58873 0.40728 0.03676 0.0
C82 C 0.25983 0.13548 0.51571 0.0
C83 C 0.29877 0.1588 0.51777 0.0
C84 C 0.21252 0.1122 0.51355 0.0
C85 C 0.17212 0.09225 0.5129 0.0
C86 C 0.24567 0.63751 0.01471 0.0
C87 C 0.20675 0.66089 0.01313 0.0
C88 C 0.29279 0.61373 0.01658 0.0
C89 C 0.33293 0.59312 0.01726 0.0
C90 C 0.74577 0.86568 0.51686 0.0
C91 C 0.70712 0.84168 0.51811 0.0
C92 C 0.79279 0.88977 0.51543 0.0
C93 C 0.83317 0.90979 0.51483 0.0
C94 C 0.76067 0.36896 0.01254 0.0
C95 C 0.79883 0.34389 0.01165 0.0
C96 C 0.71364 0.39314 0.01417 0.0
C97 C 0.67295 0.4124 0.01537 0.0
C98 C 0.08866 0.8077 0.20307 0.0
C99 C 0.09695 0.77925 0.14983 0.0
C100 C 0.07894 0.84525 0.26077 0.0
C101 C 0.06673 0.87753 0.30797 0.0
C102 C 0.56875 0.70752 0.70465 0.0
C103 C 0.5847 0.73258 0.65206 0.0
C104 C 0.55316 0.67139 0.76163 0.0
C105 C 0.54255 0.63762 0.80833 0.0
C106 C 0.91498 0.19452 0.20427 0.0
C107 C 0.90741 0.22177 0.14934 0.0
C108 C 0.92253 0.16003 0.26651 0.0
C109 C 0.93235 0.13082 0.31877 0.0
C110 C 0.43773 0.28968 0.70745 0.0
C111 C 0.42248 0.26662 0.65251 0.0
C112 C 0.45173 0.32237 0.76923 0.0
C113 C 0.46088 0.35353 0.81992 0.0
C114 C 0.58707 0.69567 0.32824 0.0
C115 C 0.59507 0.72226 0.38356 0.0
C116 C 0.57971 0.66149 0.26572 0.0
C117 C 0.5704 0.63196 0.21363 0.0
C118 C 0.93745 0.20551 0.83001 0.0
C119 C 0.92105 0.23125 0.88165 0.0
C120 C 0.9531 0.16922 0.7733 0.0
C121 C 0.9634 0.13595 0.72586 0.0
C122 C 0.41924 0.30575 0.33047 0.0
C123 C 0.41026 0.2775 0.38378 0.0
C124 C 0.42889 0.34347 0.27271 0.0
C125 C 0.44031 0.37618 0.22541 0.0
C126 C 0.06517 0.79227 0.82789 0.0
C127 C 0.08122 0.76902 0.88214 0.0
C128 C 0.05076 0.82467 0.76612 0.0
C129 C 0.04212 0.85511 0.71448 0.0
loop_
_geom_bond_atom_site_label_1
_geom_bond_atom_site_label_2
_geom_bond_distance
_geom_bond_site_symmetry_2
_ccdc_geom_bond_type
H0 C3 0.931 . S
H1 C6 0.928 . S
H2 C8 0.930 . S
C3 H0 0.931 . S
C3 C4 1.413 1_554 S
C3 C5 1.360 . S
C4 C3 1.413 1_556 S
C4 C8 1.429 . S
C5 C3 1.360 . S
C5 C6 1.372 . S
C6 H1 0.928 . S
C6 C5 1.372 . S
C6 C7 1.404 . S
C7 C6 1.404 . S
C7 C8 1.391 1_554 S
C8 H2 0.930 . S
C8 C4 1.429 . S
C8 C7 1.391 1_556 S
H9 C12 0.931 . S
H10 C15 0.928 . S
H11 C17 0.930 . S
C12 H9 0.931 . S
C12 C13 1.413 . S
C12 C14 1.360 . S
C13 C12 1.413 . S
C13 C17 1.429 . S
C14 C12 1.360 . S
C14 C15 1.372 . S
C15 H10 0.928 . S
C15 C14 1.372 . S
C15 C16 1.404 . S
C16 C15 1.404 . S
C16 C17 1.391 . S
C17 H11 0.930 . S
C17 C13 1.429 . S
C17 C16 1.391 . S
H18 C21 0.931 . S
H19 C24 0.928 . S
H20 C26 0.930 . S
C21 H18 0.931 . S
C21 C22 1.413 1_554 S
C21 C23 1.360 . S
C22 C21 1.413 1_556 S
C22 C26 1.429 . S
C23 C21 1.360 . S
C23 C24 1.372 . S
C24 H19 0.928 . S
C24 C23 1.372 . S
C24 C25 1.404 . S
C25 C24 1.404 . S
C25 C26 1.391 1_554 S
C26 H20 0.930 . S
C26 C22 1.429 . S
C26 C25 1.391 1_556 S
H27 C30 0.931 . S
H28 C33 0.928 . S
H29 C35 0.930 . S
C30 H27 0.931 . S
C30 C31 1.413 . S
C30 C32 1.360 . S
C31 C30 1.413 . S
C31 C35 1.429 . S
C32 C30 1.360 . S
C32 C33 1.372 . S
C33 H28 0.928 . S
C33 C32 1.372 . S
C33 C34 1.404 . S
C34 C33 1.404 . S
C34 C35 1.391 . S
C35 H29 0.930 . S
C35 C31 1.429 . S
C35 C34 1.391 . S
O36 Zn37 1.953 1_565 S
O36 C52 1.225 . S
Zn37 O36 1.953 1_545 S
Zn37 O38 1.949 1_655 S
Zn37 O44 1.919 . S
Zn37 O49 1.924 . S
O38 Zn37 1.949 1_455 S
O38 Zn39 1.923 . S
O38 Zn40 1.950 1_445 S
O38 Zn41 1.945 . S
Zn39 O38 1.923 . S
Zn39 O42 1.933 . S
Zn39 O45 1.941 . S
Zn39 O46 1.965 1_545 S
Zn40 O38 1.950 1_665 S
Zn40 O47 1.938 1_655 S
Zn40 O48 1.906 1_655 S
Zn40 O58 1.953 . S
Zn41 O38 1.945 . S
Zn41 O43 1.932 . S
Zn41 O50 1.977 1_545 S
Zn41 O51 1.910 1_455 S
O42 Zn39 1.933 . S
O42 C53 1.226 . S
O43 Zn41 1.932 . S
O43 C53 1.307 . S
O44 Zn37 1.919 . S
O44 C55 1.253 . S
O45 Zn39 1.941 . S
O45 C55 1.283 1_455 S
O46 Zn39 1.965 1_565 S
O46 C54 1.303 . S
O47 Zn40 1.938 1_455 S
O47 C54 1.247 . S
O48 Zn40 1.906 1_455 S
O48 C56 1.304 . S
O49 Zn37 1.924 . S
O49 C57 1.311 . S
O50 Zn41 1.977 1_565 S
O50 C56 1.272 . S
O51 Zn41 1.910 1_655 S
O51 C57 1.231 . S
C52 O36 1.225 . S
C52 O58 1.298 . S
C53 O42 1.226 . S
C53 O43 1.307 . S
C54 O46 1.303 . S
C54 O47 1.247 . S
C55 O44 1.253 . S
C55 O45 1.283 1_655 S
C56 O48 1.304 . S
C56 O50 1.272 . S
C57 O49 1.311 . S
C57 O51 1.231 . S
O58 Zn40 1.953 . S
O58 C52 1.298 . S
O59 Zn60 1.953 . S
O59 C75 1.225 . S
Zn60 O59 1.953 . S
Zn60 O61 1.949 . S
Zn60 O67 1.919 1_554 S
Zn60 O72 1.924 . S
O61 Zn60 1.949 . S
O61 Zn62 1.923 1_554 S
O61 Zn63 1.950 . S
O61 Zn64 1.945 . S
Zn62 O61 1.923 1_556 S
Zn62 O65 1.933 . S
Zn62 O68 1.941 . S
Zn62 O69 1.965 . S
Zn63 O61 1.950 . S
Zn63 O70 1.938 1_554 S
Zn63 O71 1.906 . S
Zn63 O81 1.953 . S
Zn64 O61 1.945 . S
Zn64 O66 1.932 . S
Zn64 O73 1.977 . S
Zn64 O74 1.910 . S
O65 Zn62 1.933 . S
O65 C76 1.226 1_556 S
O66 Zn64 1.932 . S
O66 C76 1.307 . S
O67 Zn60 1.919 1_556 S
O67 C78 1.253 . S
O68 Zn62 1.941 . S
O68 C78 1.283 . S
O69 Zn62 1.965 . S
O69 C77 1.303 . S
O70 Zn63 1.938 1_556 S
O70 C77 1.247 . S
O71 Zn63 1.906 . S
O71 C79 1.304 . S
O72 Zn60 1.924 . S
O72 C80 1.311 . S
O73 Zn64 1.977 . S
O73 C79 1.272 . S
O74 Zn64 1.910 . S
O74 C80 1.231 . S
C75 O59 1.225 . S
C75 O81 1.298 . S
C76 O65 1.226 1_554 S
C76 O66 1.307 . S
C77 O69 1.303 . S
C77 O70 1.247 . S
C78 O67 1.253 . S
C78 O68 1.283 . S
C79 O71 1.304 . S
C79 O73 1.272 . S
C80 O72 1.311 . S
C80 O74 1.231 . S
O81 Zn63 1.953 . S
O81 C75 1.298 . S
C82 C83 1.170 . S
C82 C84 1.380 . S
C83 C82 1.170 . S
C84 C82 1.380 . S
C84 C85 1.170 . S
C85 C84 1.170 . S
C86 C87 1.170 . S
C86 C88 1.380 . S
C87 C86 1.170 . S
C88 C86 1.380 . S
C88 C89 1.170 . S
C89 C88 1.170 . S
C90 C91 1.170 . S
C90 C92 1.380 . S
C91 C90 1.170 . S
C92 C90 1.380 . S
C92 C93 1.170 . S
C93 C92 1.170 . S
C94 C95 1.170 . S
C94 C96 1.380 . S
C95 C94 1.170 . S
C96 C94 1.380 . S
C96 C97 1.170 . S
C97 C96 1.170 . S
C98 C99 1.170 . S
C98 C100 1.380 . S
C99 C98 1.170 . S
C100 C98 1.380 . S
C100 C101 1.170 . S
C101 C100 1.170 . S
C102 C103 1.170 . S
C102 C104 1.380 . S
C103 C102 1.170 . S
C104 C102 1.380 . S
C104 C105 1.170 . S
C105 C104 1.170 . S
C106 C107 1.170 . S
C106 C108 1.380 . S
C107 C106 1.170 . S
C108 C106 1.380 . S
C108 C109 1.170 . S
C109 C108 1.170 . S
C110 C111 1.170 . S
C110 C112 1.380 . S
C111 C110 1.170 . S
C112 C110 1.380 . S
C112 C113 1.170 . S
C113 C112 1.170 . S
C114 C115 1.170 . S
C114 C116 1.380 . S
C115 C114 1.170 . S
C116 C114 1.380 . S
C116 C117 1.170 . S
C117 C116 1.170 . S
C118 C119 1.170 . S
C118 C120 1.380 . S
C119 C118 1.170 . S
C120 C118 1.380 . S
C120 C121 1.170 . S
C121 C120 1.170 . S
C122 C123 1.170 . S
C122 C124 1.380 . S
C123 C122 1.170 . S
C124 C122 1.380 . S
C124 C125 1.170 . S
C125 C124 1.170 . S
C126 C127 1.170 . S
C126 C128 1.380 . S
C127 C126 1.170 . S
C128 C126 1.380 . S
C128 C129 1.170 . S
C129 C128 1.170 . S
C85 C53 1.537 . S
C83 C34 1.520 . S
C87 C7 1.504 . S
C89 C76 1.540 . S
C91 C16 1.512 . S
C93 C52 1.550 . S
C95 C25 1.532 . S
C97 C75 1.541 . S
C101 C56 1.519 . S
C99 C5 1.525 . S
C105 C78 1.504 . S
C103 C13 1.561 . S
C107 C23 1.553 . S
C109 C57 1.518 . S
C111 C32 1.555 . S
C113 C77 1.497 . S
C117 C80 1.498 . S
C115 C14 1.563 . S
C121 C55 1.512 . S
C119 C22 1.545 . S
C125 C79 1.483 . S
C123 C31 1.555 . S
C127 C4 1.536 . S
C129 C54 1.523 . S
