# Generated by pormake.
# Topology zzz, (3,6)-cn, num edge types: 1
# Building blocks:
#     Node 0, Type 0, BuildingBlock: CUQRIR_clean_linker_1, # of connection points: 3
#     Node 1, Type 0, BuildingBlock: CUQRIR_clean_linker_1, # of connection points: 3
#     Node 2, Type 0, BuildingBlock: CUQRIR_clean_linker_1, # of connection points: 3
#     Node 3, Type 0, BuildingBlock: CUQRIR_clean_linker_1, # of connection points: 3
#     Node 4, Type 0, BuildingBlock: CUQRIR_clean_linker_1, # of connection points: 3
#     Node 5, Type 0, BuildingBlock: CUQRIR_clean_linker_1, # of connection points: 3
#     Node 6, Type 0, BuildingBlock: CUQRIR_clean_linker_1, # of connection points: 3
#     Node 7, Type 0, BuildingBlock: CUQRIR_clean_linker_1, # of connection points: 3
#     Node 8, Type 1, BuildingBlock: CUKXOW_clean_sbu_0, # of connection points: 6
#     Node 9, Type 1, BuildingBlock: CUKXOW_clean_sbu_0, # of connection points: 6
#     Node 10, Type 1, BuildingBlock: CUKXOW_clean_sbu_0, # of connection points: 6
#     Node 11, Type 1, BuildingBlock: CUKXOW_clean_sbu_0, # of connection points: 6
#     Edge 12, Type (0, 1), None
#     Edge 13, Type (0, 1), None
#     Edge 14, Type (0, 1), None
#     Edge 15, Type (0, 1), None
#     Edge 16, Type (0, 1), None
#     Edge 17, Type (0, 1), None
#     Edge 18, Type (0, 1), None
#     Edge 19, Type (0, 1), None
#     Edge 20, Type (0, 1), None
#     Edge 21, Type (0, 1), None
#     Edge 22, Type (0, 1), None
#     Edge 23, Type (0, 1), None
#     Edge 24, Type (0, 1), None
#     Edge 25, Type (0, 1), None
#     Edge 26, Type (0, 1), None
#     Edge 27, Type (0, 1), None
#     Edge 28, Type (0, 1), None
#     Edge 29, Type (0, 1), None
#     Edge 30, Type (0, 1), None
#     Edge 31, Type (0, 1), None
#     Edge 32, Type (0, 1), None
#     Edge 33, Type (0, 1), None
#     Edge 34, Type (0, 1), None
#     Edge 35, Type (0, 1), None
# Relax obj value: 0.051
# Max RMSD: 0.125
# Mean RMSD: 0.076
data_MOF--net-zzz--node1-CUKXOW_clean_sbu_0--node2-CUQRIR_clean_linker_1--edge1-none
_symmetry_space_group_name_H-M    P1
_symmetry_Int_Tables_number       1
_symmetry_cell_setting            triclinic
loop_
_symmetry_equiv_pos_as_xyz
'x, y, z'
_cell_length_a     17.643053
_cell_length_b     19.38347
_cell_length_c     6.7352411
_cell_angle_alpha  94.513997
_cell_angle_beta   84.191199
_cell_angle_gamma 94.06128
loop_
_atom_site_label
_atom_site_type_symbol
_atom_site_fract_x
_atom_site_fract_y
_atom_site_fract_z
_atom_type_partial_charge
C0 C 0.78337 0.57028 0.09304 0.0
N1 N 0.8286 0.53295 0.19058 0.0
N2 N 0.76376 0.53518 0.91943 0.0
C3 C 0.78661 0.64762 0.11734 0.0
C4 C 0.80221 0.47704 0.91748 0.0
N5 N 0.84966 0.48043 0.06452 0.0
C6 C 0.78887 0.41242 0.78325 0.0
H7 H 0.78335 0.66619 0.27781 0.0
H8 H 0.74134 0.66757 0.04068 0.0
H9 H 0.8417 0.66782 0.04278 0.0
H10 H 0.75818 0.42274 0.65379 0.0
H11 H 0.75386 0.37348 0.87113 0.0
H12 H 0.84399 0.38972 0.73026 0.0
C13 C 0.99104 0.77654 0.16361 0.0
N14 N 0.99738 0.84695 0.15296 0.0
N15 N 1.01172 0.74291 -0.01791 0.0
C16 C 0.95992 0.7399 0.34526 0.0
C17 C 1.03651 0.79615 0.86519 0.0
N18 N 1.02567 0.85902 -0.03292 0.0
C19 C 0.09419 0.78688 0.68578 0.0
H20 H 1.00118 0.70277 0.37625 0.0
H21 H 0.90658 0.71015 0.31355 0.0
H22 H 0.94685 0.77468 0.4802 0.0
H23 H 0.08559 0.73567 0.60401 0.0
H24 H 0.15177 0.78913 0.73971 0.0
H25 H 0.09466 0.82888 0.58389 0.0
C26 C 0.77325 0.03853 0.20946 0.0
N27 N 0.70199 0.06519 0.23989 0.0
N28 N 0.81106 0.05482 0.02954 0.0
C29 C 0.80935 0.99876 0.35401 0.0
C30 C 0.7636 0.09562 -0.04405 0.0
N31 N 0.69665 0.09967 0.07475 0.0
C32 C 0.78764 0.14016 0.78257 0.0
H33 H 0.86356 1.02708 0.38765 0.0
H34 H 0.8234 0.9473 0.281 0.0
H35 H 0.77497 0.99151 0.49745 0.0
H36 H 0.85005 0.1431 0.74271 0.0
H37 H 0.77126 0.19411 0.82159 0.0
H38 H 0.75939 0.11918 0.64974 0.0
C39 C 0.62745 0.81586 0.16437 0.0
N40 N 0.60061 0.74989 0.18947 0.0
N41 N 0.64499 0.82588 -0.03241 0.0
C42 C 0.63298 0.87166 0.32768 0.0
C43 C 0.63542 0.76249 0.87597 0.0
N44 N 0.60102 0.71891 0.00843 0.0
C45 C 0.69797 0.74097 0.72044 0.0
H46 H 0.57678 0.89449 0.36169 0.0
H47 H 0.67666 0.91225 0.28002 0.0
H48 H 0.64919 0.85044 0.46226 0.0
H49 H 0.75149 0.73852 0.7919 0.0
H50 H 0.71108 0.77995 0.60903 0.0
H51 H 0.68472 0.69044 0.64622 0.0
C52 C 0.30632 0.59268 0.3576 0.0
N53 N 0.23071 0.57841 0.34287 0.0
N54 N 0.3276 0.57649 0.5395 0.0
C55 C 0.35736 0.62133 0.19285 0.0
C56 C 0.26005 0.55127 0.63144 0.0
N57 N 0.2024 0.56085 0.5199 0.0
C58 C 0.25588 0.49096 0.76025 0.0
H59 H 0.39191 0.57867 0.1294 0.0
H60 H 0.39278 0.66627 0.25239 0.0
H61 H 0.32466 0.63823 0.07482 0.0
H62 H 0.28806 0.50169 0.89243 0.0
H63 H 0.28059 0.44678 0.66822 0.0
H64 H 0.19699 0.47429 0.81053 0.0
C65 C 1.02834 0.28706 0.39239 0.0
N66 N 0.04581 0.2194 0.37736 0.0
N67 N 0.0434 0.3188 0.57531 0.0
C68 C 0.99515 0.32146 0.23364 0.0
C69 C 0.0658 0.26468 0.67107 0.0
N70 N 0.05843 0.20387 0.55675 0.0
C71 C 0.12679 0.27418 0.81317 0.0
H72 H 1.03652 0.36378 0.18545 0.0
H73 H 0.94098 0.34391 0.2966 0.0
H74 H 0.98256 0.28522 0.10421 0.0
H75 H 0.10788 0.30365 -0.04732 0.0
H76 H 0.17671 0.30446 0.74239 0.0
H77 H 0.14617 0.22351 0.84695 0.0
C78 C 0.29738 1.0243 0.29189 0.0
N79 N 0.37565 1.03169 0.27944 0.0
N80 N 0.2649 0.03604 0.48503 0.0
C81 C 0.2539 0.99663 0.12257 0.0
C82 C 0.32657 0.05425 0.58543 0.0
N83 N 0.39271 0.04257 0.46935 0.0
C84 C 0.32327 0.11586 0.73623 0.0
H85 H 0.21275 0.03509 0.10078 0.0
H86 H 0.22246 0.94742 0.16362 0.0
H87 H 0.29171 0.98603 -0.0167 0.0
H88 H 0.30181 0.1005 0.88672 0.0
H89 H 0.2841 0.15343 0.69354 0.0
H90 H 0.37911 0.14373 0.74125 0.0
C91 C 0.49887 0.30805 0.30022 0.0
N92 N 0.51167 0.37678 0.28251 0.0
N93 N 0.47543 0.29629 0.49412 0.0
C94 C 0.54083 0.25712 0.16189 0.0
C95 C 0.47396 0.35936 0.59068 0.0
N96 N 0.50319 0.40679 0.46365 0.0
C97 C 0.41155 0.37323 0.75438 0.0
H98 H 0.5014 0.21221 0.12309 0.0
H99 H 0.58689 0.23795 0.2396 0.0
H100 H 0.56847 0.28223 0.02849 0.0
H101 H 0.41324 0.33908 0.87775 0.0
H102 H 0.35606 0.35923 0.69325 0.0
H103 H 0.41286 0.42771 0.81152 0.0
Tb104 Tb 1.00694 1.00396 0.57909 0.0
C105 C 0.18986 1.03287 0.57414 0.0
Tb106 Tb 0.0652 0.0619 -0.04709 0.0
O107 O 0.97328 0.10693 0.52777 0.0
O108 O 0.0681 0.09758 0.67169 0.0
O109 O 0.1321 1.00427 0.47584 0.0
C110 C 0.06064 0.17231 0.21729 0.0
O111 O 0.17536 0.06103 0.7618 0.0
C112 C 0.05394 0.92295 0.90882 0.0
C113 C 0.88349 0.0412 -0.05529 0.0
O114 O 0.09839 0.11682 0.22824 0.0
O115 O 1.02688 0.16641 0.05486 0.0
O116 O 0.10209 0.96039 0.01397 0.0
O117 O 1.00948 0.96585 0.86055 0.0
O118 O 0.94188 0.0556 0.05281 0.0
O119 O 0.89483 1.02072 0.75031 0.0
C120 C 0.98514 0.89831 0.30355 0.0
O121 O 0.98539 0.96402 0.2762 0.0
O122 O 0.99221 0.89231 0.49023 0.0
C123 C 1.02682 0.14202 0.62245 0.0
Tb124 Tb 0.52553 0.13064 0.75315 0.0
C125 C 0.65166 0.06498 0.41722 0.0
Tb126 Tb 0.55616 0.98824 0.78699 0.0
O127 O 0.63398 0.1663 0.87026 0.0
O128 O 0.57321 0.07969 -0.02257 0.0
O129 O 0.60739 0.11759 0.47306 0.0
C130 C 0.62422 0.88127 0.88242 0.0
O131 O 0.64708 1.01226 0.5367 0.0
C132 C 0.45044 1.01104 0.54241 0.0
C133 C 0.42797 0.0381 0.10868 0.0
O134 O 0.64226 0.94481 0.94086 0.0
O135 O 0.56854 0.87763 0.76805 0.0
O136 O 0.44128 0.96397 0.67291 0.0
O137 O 0.51281 0.04196 0.56857 0.0
O138 O 0.47888 0.99116 0.06411 0.0
O139 O 0.43108 0.09327 -0.0054 0.0
C140 C 0.47693 0.23743 0.5883 0.0
O141 O 0.4884 0.2364 0.77523 0.0
O142 O 0.48718 0.17745 0.49861 0.0
C143 C 0.63253 0.11878 -0.00232 0.0
Tb144 Tb 0.58357 0.59814 0.54566 0.0
C145 C 0.39925 0.57806 0.61035 0.0
Tb146 Tb 0.5128 0.52729 0.92701 0.0
O147 O 0.59286 0.49727 0.37901 0.0
O148 O 0.51475 0.51199 0.62557 0.0
O149 O 0.46056 0.60455 0.50281 0.0
C150 C 0.49564 0.41334 0.13008 0.0
O151 O 0.40777 0.54682 0.77804 0.0
C152 C 0.5604 0.65825 -0.02904 0.0
C153 C 0.69521 0.53801 0.84202 0.0
O154 O 0.45654 0.46887 0.16671 0.0
O155 O 0.54374 0.42211 -0.02592 0.0
O156 O 0.51554 0.62716 0.10609 0.0
O157 O 0.58311 0.61301 0.84597 0.0
O158 O 0.63365 0.51116 -0.05472 0.0
O159 O 0.68991 0.57514 0.68377 0.0
C160 C 0.61032 0.71146 0.3432 0.0
O161 O 0.64202 0.65238 0.30691 0.0
O162 O 0.56038 0.706 0.49753 0.0
C163 C 0.54309 0.46698 0.50834 0.0
Tb164 Tb 0.97875 0.54278 0.60932 0.0
C165 C 0.03835 0.38834 0.64536 0.0
Tb166 Tb 0.07015 0.5188 -0.02822 0.0
O167 O 0.0818 0.59281 0.46778 0.0
O168 O 0.08913 0.51906 0.66731 0.0
O169 O 0.99795 0.42968 0.55014 0.0
C170 C 0.19472 0.55093 0.17969 0.0
O171 O 0.07489 0.41365 0.80485 0.0
C172 C 0.92535 0.48106 0.00795 0.0
C173 C 1.01087 0.67227 0.92678 0.0
O174 O 0.14681 0.49596 0.19114 0.0
O175 O 0.17089 0.58834 0.04983 0.0
O176 O 0.9732 0.4634 0.12777 0.0
O177 O 0.95733 0.53172 0.91731 0.0
O178 O 0.04383 0.63013 0.03546 0.0
O179 O 0.97827 0.64821 0.76228 0.0
C180 C 0.86498 0.5514 0.3602 0.0
O181 O 0.93137 0.58507 0.35395 0.0
O182 O 0.8675 0.50823 0.49761 0.0
C183 C 0.12685 0.56383 0.57372 0.0
loop_
_geom_bond_atom_site_label_1
_geom_bond_atom_site_label_2
_geom_bond_distance
_geom_bond_site_symmetry_2
_ccdc_geom_bond_type
C0 N1 1.317 . S
C0 N2 1.348 . S
C0 C3 1.485 . S
N1 C0 1.317 . S
N1 N5 1.370 1_554 S
N2 C0 1.348 . S
N2 C4 1.346 1_554 S
C3 C0 1.485 . S
C3 H7 0.960 . S
C3 H8 0.961 . S
C3 H9 0.960 . S
C4 N2 1.346 1_556 S
C4 N5 1.307 . S
C4 C6 1.486 . S
N5 N1 1.370 1_556 S
N5 C4 1.307 . S
C6 C4 1.486 . S
C6 H10 0.960 . S
C6 H11 0.960 . S
C6 H12 0.959 . S
H7 C3 0.960 . S
H8 C3 0.961 . S
H9 C3 0.960 . S
H10 C6 0.960 . S
H11 C6 0.960 . S
H12 C6 0.959 . S
C13 N14 1.317 . S
C13 N15 1.348 1_554 S
C13 C16 1.485 . S
N14 C13 1.317 . S
N14 N18 1.370 1_554 S
N15 C13 1.348 1_556 S
N15 C17 1.346 . S
C16 C13 1.485 . S
C16 H20 0.960 . S
C16 H21 0.961 . S
C16 H22 0.960 . S
C17 N15 1.346 . S
C17 N18 1.307 . S
C17 C19 1.486 . S
N18 N14 1.370 1_556 S
N18 C17 1.307 . S
C19 C17 1.486 . S
C19 H23 0.960 . S
C19 H24 0.971 . S
C19 H25 0.959 . S
H20 C16 0.960 . S
H21 C16 0.961 . S
H22 C16 0.960 . S
H23 C19 0.960 . S
H24 C19 0.971 . S
H25 C19 0.959 . S
C26 N27 1.317 . S
C26 N28 1.348 . S
C26 C29 1.485 . S
N27 C26 1.317 . S
N27 N31 1.370 . S
N28 C26 1.348 . S
N28 C30 1.346 1_554 S
C29 C26 1.485 . S
C29 H33 0.960 1_565 S
C29 H34 0.961 . S
C29 H35 0.960 . S
C30 N28 1.346 1_556 S
C30 N31 1.307 1_556 S
C30 C32 1.486 . S
N31 N27 1.370 . S
N31 C30 1.307 1_554 S
C32 C30 1.486 . S
C32 H36 0.960 . S
C32 H37 0.960 1_565 S
C32 H38 0.959 . S
H33 C29 0.960 1_545 S
H34 C29 0.961 . S
H35 C29 0.960 . S
H36 C32 0.960 . S
H37 C32 0.960 1_545 S
H38 C32 0.959 . S
C39 N40 1.317 . S
C39 N41 1.348 . S
C39 C42 1.485 . S
N40 C39 1.317 . S
N40 N44 1.370 1_554 S
N41 C39 1.348 . S
N41 C43 1.346 1_554 S
C42 C39 1.485 . S
C42 H46 0.960 . S
C42 H47 0.961 . S
C42 H48 0.960 . S
C43 N41 1.346 1_556 S
C43 N44 1.307 . S
C43 C45 1.486 . S
N44 N40 1.370 1_556 S
N44 C43 1.307 . S
C45 C43 1.486 . S
C45 H49 0.960 . S
C45 H50 0.960 . S
C45 H51 0.959 . S
H46 C42 0.960 . S
H47 C42 0.961 . S
H48 C42 0.960 . S
H49 C45 0.960 . S
H50 C45 0.960 . S
H51 C45 0.959 . S
C52 N53 1.317 . S
C52 N54 1.348 . S
C52 C55 1.485 . S
N53 C52 1.317 . S
N53 N57 1.370 . S
N54 C52 1.348 . S
N54 C56 1.346 . S
C55 C52 1.485 . S
C55 H59 0.960 . S
C55 H60 0.961 . S
C55 H61 0.960 . S
C56 N54 1.346 . S
C56 N57 1.307 . S
C56 C58 1.486 . S
N57 N53 1.370 . S
N57 C56 1.307 . S
C58 C56 1.486 . S
C58 H62 0.960 1_556 S
C58 H63 0.960 1_556 S
C58 H64 0.959 1_556 S
H59 C55 0.960 . S
H60 C55 0.961 . S
H61 C55 0.960 . S
H62 C58 0.960 1_554 S
H63 C58 0.960 1_554 S
H64 C58 0.959 1_554 S
C65 N66 1.317 . S
C65 N67 1.348 . S
C65 C68 1.485 . S
N66 C65 1.317 . S
N66 N70 1.370 . S
N67 C65 1.348 . S
N67 C69 1.346 . S
C68 C65 1.485 . S
C68 H72 0.960 . S
C68 H73 0.961 . S
C68 H74 0.960 . S
C69 N67 1.346 . S
C69 N70 1.307 . S
C69 C71 1.486 1_556 S
N70 N66 1.370 . S
N70 C69 1.307 . S
C71 C69 1.486 1_554 S
C71 H75 0.960 . S
C71 H76 0.960 . S
C71 H77 0.959 . S
H72 C68 0.960 . S
H73 C68 0.961 . S
H74 C68 0.960 . S
H75 C71 0.960 . S
H76 C71 0.960 . S
H77 C71 0.959 . S
C78 N79 1.317 . S
C78 N80 1.348 . S
C78 C81 1.485 . S
N79 C78 1.317 . S
N79 N83 1.370 . S
N80 C78 1.348 . S
N80 C82 1.346 . S
C81 C78 1.485 . S
C81 H85 0.960 . S
C81 H86 0.961 . S
C81 H87 0.961 . S
C82 N80 1.346 . S
C82 N83 1.307 . S
C82 C84 1.486 . S
N83 N79 1.370 . S
N83 C82 1.307 . S
C84 C82 1.486 . S
C84 H88 0.960 . S
C84 H89 0.960 . S
C84 H90 0.959 . S
H85 C81 0.960 . S
H86 C81 0.961 . S
H87 C81 0.961 . S
H88 C84 0.960 . S
H89 C84 0.960 . S
H90 C84 0.959 . S
C91 N92 1.317 . S
C91 N93 1.348 . S
C91 C94 1.485 . S
N92 C91 1.317 . S
N92 N96 1.370 . S
N93 C91 1.348 . S
N93 C95 1.346 . S
C94 C91 1.485 . S
C94 H98 0.960 . S
C94 H99 0.961 . S
C94 H100 0.960 . S
C95 N93 1.346 . S
C95 N96 1.307 . S
C95 C97 1.486 . S
N96 N92 1.370 . S
N96 C95 1.307 . S
C97 C95 1.486 . S
C97 H101 0.960 1_556 S
C97 H102 0.960 1_556 S
C97 H103 0.959 1_556 S
H98 C94 0.960 . S
H99 C94 0.961 . S
H100 C94 0.960 . S
H101 C97 0.960 1_554 S
H102 C97 0.960 1_554 S
H103 C97 0.959 1_554 S
Tb104 O107 2.453 1_565 S
Tb104 O108 2.596 1_665 S
Tb104 O109 2.374 1_665 S
Tb104 O117 2.343 . S
Tb104 O119 2.353 1_565 S
Tb104 O121 2.427 . S
Tb104 O122 2.513 1_655 S
C105 O109 1.251 . S
C105 O111 1.263 . S
Tb106 O108 2.343 1_554 S
Tb106 O111 2.353 1_554 S
Tb106 O114 2.427 . S
Tb106 O115 2.513 1_455 S
Tb106 O116 2.453 1_545 S
Tb106 O117 2.596 1_444 S
Tb106 O118 2.374 1_455 S
O107 Tb104 2.453 1_545 S
O107 C123 1.245 1_655 S
O108 Tb104 2.596 1_445 S
O108 Tb106 2.343 1_556 S
O108 C123 1.259 . S
O109 Tb104 2.374 1_445 S
O109 C105 1.251 . S
C110 O114 1.275 . S
C110 O115 1.246 1_455 S
O111 C105 1.263 . S
O111 Tb106 2.353 1_556 S
C112 O116 1.245 1_656 S
C112 O117 1.259 . S
C113 O118 1.250 1_556 S
C113 O119 1.263 . S
O114 Tb106 2.427 . S
O114 C110 1.275 . S
O115 Tb106 2.513 1_655 S
O115 C110 1.246 1_655 S
O116 Tb106 2.453 1_565 S
O116 C112 1.245 1_454 S
O117 Tb104 2.343 . S
O117 Tb106 2.596 1_666 S
O117 C112 1.259 . S
O118 Tb106 2.374 1_655 S
O118 C113 1.250 1_554 S
O119 Tb104 2.353 1_545 S
O119 C113 1.263 . S
C120 O121 1.275 . S
C120 O122 1.246 1_655 S
O121 Tb104 2.427 . S
O121 C120 1.275 . S
O122 Tb104 2.513 1_455 S
O122 C120 1.246 1_455 S
C123 O107 1.245 1_455 S
C123 O108 1.259 . S
Tb124 O127 2.453 1_556 S
Tb124 O128 2.596 1_545 S
Tb124 O129 2.374 . S
Tb124 O137 2.343 . S
Tb124 O139 2.353 1_556 S
Tb124 O141 2.427 . S
Tb124 O142 2.513 . S
C125 O129 1.251 1_565 S
C125 O131 1.263 . S
Tb126 O128 2.343 . S
Tb126 O131 2.353 . S
Tb126 O134 2.427 . S
Tb126 O135 2.513 1_556 S
Tb126 O136 2.453 . S
Tb126 O137 2.596 1_565 S
Tb126 O138 2.374 1_556 S
O127 Tb124 2.453 1_554 S
O127 C143 1.245 . S
O128 Tb124 2.596 1_565 S
O128 Tb126 2.343 . S
O128 C143 1.259 1_566 S
O129 Tb124 2.374 . S
O129 C125 1.251 1_545 S
C130 O134 1.275 . S
C130 O135 1.246 1_556 S
O131 C125 1.263 . S
O131 Tb126 2.353 . S
C132 O136 1.245 1_545 S
C132 O137 1.259 . S
C133 O138 1.250 1_545 S
C133 O139 1.263 . S
O134 Tb126 2.427 . S
O134 C130 1.275 . S
O135 Tb126 2.513 1_554 S
O135 C130 1.246 1_554 S
O136 Tb126 2.453 . S
O136 C132 1.245 1_565 S
O137 Tb124 2.343 . S
O137 Tb126 2.596 1_545 S
O137 C132 1.259 . S
O138 Tb126 2.374 1_554 S
O138 C133 1.250 1_565 S
O139 Tb124 2.353 1_554 S
O139 C133 1.263 . S
C140 O141 1.275 . S
C140 O142 1.246 . S
O141 Tb124 2.427 . S
O141 C140 1.275 . S
O142 Tb124 2.513 . S
O142 C140 1.246 . S
C143 O127 1.245 . S
C143 O128 1.259 1_544 S
Tb144 O147 2.453 . S
Tb144 O148 2.596 . S
Tb144 O149 2.374 . S
Tb144 O157 2.343 . S
Tb144 O159 2.353 . S
Tb144 O161 2.427 . S
Tb144 O162 2.513 . S
C145 O149 1.251 . S
C145 O151 1.263 . S
Tb146 O148 2.343 1_554 S
Tb146 O151 2.353 1_554 S
Tb146 O154 2.427 . S
Tb146 O155 2.513 . S
Tb146 O156 2.453 . S
Tb146 O157 2.596 1_554 S
Tb146 O158 2.374 . S
O147 Tb144 2.453 . S
O147 C163 1.245 . S
O148 Tb144 2.596 . S
O148 Tb146 2.343 1_556 S
O148 C163 1.259 . S
O149 Tb144 2.374 . S
O149 C145 1.251 . S
C150 O154 1.275 . S
C150 O155 1.246 . S
O151 C145 1.263 . S
O151 Tb146 2.353 1_556 S
C152 O156 1.245 1_556 S
C152 O157 1.259 . S
C153 O158 1.250 1_556 S
C153 O159 1.263 . S
O154 Tb146 2.427 . S
O154 C150 1.275 . S
O155 Tb146 2.513 . S
O155 C150 1.246 . S
O156 Tb146 2.453 . S
O156 C152 1.245 1_554 S
O157 Tb144 2.343 . S
O157 Tb146 2.596 1_556 S
O157 C152 1.259 . S
O158 Tb146 2.374 . S
O158 C153 1.250 1_554 S
O159 Tb144 2.353 . S
O159 C153 1.263 . S
C160 O161 1.275 . S
C160 O162 1.246 . S
O161 Tb144 2.427 . S
O161 C160 1.275 . S
O162 Tb144 2.513 . S
O162 C160 1.246 . S
C163 O147 1.245 . S
C163 O148 1.259 . S
Tb164 O167 2.453 1_655 S
Tb164 O168 2.596 1_655 S
Tb164 O169 2.374 1_655 S
Tb164 O177 2.343 . S
Tb164 O179 2.353 1_655 S
Tb164 O181 2.427 . S
Tb164 O182 2.513 . S
C165 O169 1.251 . S
C165 O171 1.263 . S
Tb166 O168 2.343 1_554 S
Tb166 O171 2.353 1_554 S
Tb166 O174 2.427 . S
Tb166 O175 2.513 . S
Tb166 O176 2.453 1_455 S
Tb166 O177 2.596 1_454 S
Tb166 O178 2.374 . S
O167 Tb164 2.453 1_455 S
O167 C183 1.245 . S
O168 Tb164 2.596 1_455 S
O168 Tb166 2.343 1_556 S
O168 C183 1.259 . S
O169 Tb164 2.374 1_455 S
O169 C165 1.251 . S
C170 O174 1.275 . S
C170 O175 1.246 . S
O171 C165 1.263 . S
O171 Tb166 2.353 1_556 S
C172 O176 1.245 1_556 S
C172 O177 1.259 . S
C173 O178 1.250 1_656 S
C173 O179 1.263 1_655 S
O174 Tb166 2.427 . S
O174 C170 1.275 . S
O175 Tb166 2.513 . S
O175 C170 1.246 . S
O176 Tb166 2.453 1_655 S
O176 C172 1.245 1_554 S
O177 Tb164 2.343 . S
O177 Tb166 2.596 1_656 S
O177 C172 1.259 . S
O178 Tb166 2.374 . S
O178 C173 1.250 1_454 S
O179 Tb164 2.353 1_455 S
O179 C173 1.263 1_455 S
C180 O181 1.275 . S
C180 O182 1.246 . S
O181 Tb164 2.427 . S
O181 C180 1.275 . S
O182 Tb164 2.513 . S
O182 C180 1.246 . S
C183 O167 1.245 . S
C183 O168 1.259 . S
N80 C105 1.642 . S
C140 N93 1.576 . S
C145 N54 1.450 . S
C165 N67 1.672 . S
C113 N28 1.671 1_546 S
N41 C130 1.629 1_554 S
N2 C153 1.477 1_554 S
N15 C173 1.703 . S
C123 N70 1.670 . S
C132 N83 1.317 . S
C163 N96 1.591 . S
N57 C183 1.088 . S
N18 C112 1.680 . S
C143 N31 1.331 1_545 S
C152 N44 1.612 . S
N5 C172 1.093 . S
N66 C110 1.361 . S
N79 C133 1.675 . S
C150 N92 1.469 . S
C170 N53 1.541 . S
N14 C120 1.378 . S
C125 N27 1.713 . S
C160 N40 1.500 . S
N1 C180 1.558 . S
