# Generated by pormake.
# Topology tsx, (6,3)-cn, num edge types: 1
# Building blocks:
#     Node 0, Type 0, BuildingBlock: VOLQOD_clean_sbu_1, # of connection points: 6
#     Node 1, Type 0, BuildingBlock: VOLQOD_clean_sbu_1, # of connection points: 6
#     Node 2, Type 1, BuildingBlock: CUQRIR_clean_linker_1, # of connection points: 3
#     Node 3, Type 1, BuildingBlock: CUQRIR_clean_linker_1, # of connection points: 3
#     Node 4, Type 1, BuildingBlock: CUQRIR_clean_linker_1, # of connection points: 3
#     Node 5, Type 1, BuildingBlock: CUQRIR_clean_linker_1, # of connection points: 3
#     Edge 6, Type (0, 1), None
#     Edge 7, Type (0, 1), None
#     Edge 8, Type (0, 1), None
#     Edge 9, Type (0, 1), None
#     Edge 10, Type (0, 1), None
#     Edge 11, Type (0, 1), None
#     Edge 12, Type (0, 1), None
#     Edge 13, Type (0, 1), None
#     Edge 14, Type (0, 1), None
#     Edge 15, Type (0, 1), None
#     Edge 16, Type (0, 1), None
#     Edge 17, Type (0, 1), None
# Relax obj value: 0.082
# Max RMSD: 0.133
# Mean RMSD: 0.119
data_MOF--net-tsx--node1-VOLQOD_clean_sbu_1--node2-CUQRIR_clean_linker_1--edge1-none
_symmetry_space_group_name_H-M    P1
_symmetry_Int_Tables_number       1
_symmetry_cell_setting            triclinic
loop_
_symmetry_equiv_pos_as_xyz
'x, y, z'
_cell_length_a     8.4292191
_cell_length_b     7.564412
_cell_length_c     16.181081
_cell_angle_alpha  73.461839
_cell_angle_beta   90.254907
_cell_angle_gamma 90.270396
loop_
_atom_site_label
_atom_site_type_symbol
_atom_site_fract_x
_atom_site_fract_y
_atom_site_fract_z
_atom_type_partial_charge
O0 O 0.1085 0.95376 0.15897 0.0
Zn1 Zn 0.2176 1.03071 0.04318 0.0
O2 O 0.03779 0.10008 -0.02257 0.0
Zn3 Zn 0.96873 0.89591 0.95115 0.0
Zn4 Zn 0.84894 0.15054 0.01751 0.0
Zn5 Zn 0.05983 0.33746 0.89773 0.0
O6 O 0.91111 1.04079 0.83032 0.0
O7 O 0.11531 0.24157 0.79457 0.0
O8 O 0.32165 0.87013 0.95801 0.0
O9 O 0.12792 0.7574 0.90053 0.0
O10 O 0.84446 0.74024 0.07249 0.0
O11 O 0.71515 0.95984 0.10337 0.0
O12 O 0.73004 0.23724 0.88864 0.0
O13 O 0.32563 0.25201 0.07978 0.0
O14 O 0.85282 0.49255 0.84329 0.0
O15 O 0.19238 0.45594 -0.01549 0.0
C16 C 0.03147 0.08784 0.1749 0.0
C17 C 0.00653 0.14135 0.77342 0.0
C18 C 0.73312 0.78817 0.11739 0.0
C19 C 0.27703 0.76894 0.90835 0.0
C20 C 0.72736 0.40116 0.83726 0.0
C21 C 0.29123 0.42285 0.04761 0.0
O22 O 0.96964 0.21712 0.11282 0.0
O23 O 0.60851 0.45377 0.65897 0.0
Zn24 Zn 0.7176 0.53073 0.54318 0.0
O25 O 0.53778 0.6001 0.47742 0.0
Zn26 Zn 0.46873 0.39593 0.45115 0.0
Zn27 Zn 0.34894 0.65056 0.51751 0.0
Zn28 Zn 0.55983 0.83747 0.39773 0.0
O29 O 0.4111 0.5408 0.33032 0.0
O30 O 0.6153 0.74158 0.29457 0.0
O31 O 0.82165 0.37015 0.458 0.0
O32 O 0.62792 0.25742 0.40052 0.0
O33 O 0.34445 0.24025 0.57249 0.0
O34 O 0.21516 0.45985 0.60337 0.0
O35 O 0.23004 0.73726 0.38865 0.0
O36 O 0.82564 0.75204 0.57977 0.0
O37 O 0.35283 0.99256 0.34328 0.0
O38 O 0.69237 0.95596 0.48451 0.0
C39 C 0.53148 0.58785 0.6749 0.0
C40 C 0.50653 0.64135 0.27342 0.0
C41 C 0.23312 0.28819 0.61739 0.0
C42 C 0.77703 0.26897 0.40834 0.0
C43 C 0.22736 0.90117 0.33726 0.0
C44 C 0.79123 0.92288 0.5476 0.0
O45 O 0.46966 0.71714 0.61282 0.0
C46 C 0.00351 1.01698 0.39699 0.0
N47 N 0.08101 0.99156 0.32816 0.0
N48 N 0.87911 0.1543 0.37183 0.0
C49 C 0.07434 0.88817 0.48407 0.0
C50 C 0.88244 0.1802 0.28441 0.0
N51 N 0.00477 0.08957 0.25813 0.0
C52 C 0.75936 0.29062 0.22291 0.0
H53 H 0.04369 0.74455 0.48525 0.0
H54 H 0.07219 0.86951 0.55334 0.0
H55 H 0.20394 0.91002 0.48485 0.0
H56 H 0.8164 0.41506 0.18051 0.0
H57 H 0.65708 0.33442 0.25346 0.0
H58 H 0.71033 0.207 0.18273 0.0
C59 C 0.02116 0.16643 0.55478 0.0
N60 N 0.09227 0.19001 0.62557 0.0
N61 N 0.87292 1.06522 0.57546 0.0
C62 C 0.10752 0.27885 0.46625 0.0
C63 C 0.85971 1.06242 0.6595 0.0
N64 N 0.98773 0.13871 0.6897 0.0
C65 C 0.70859 0.99755 0.70956 0.0
H66 H 0.14327 0.41611 0.4704 0.0
H67 H 0.06195 0.34016 0.40127 0.0
H68 H 0.21684 0.21036 0.45398 0.0
H69 H 0.72912 0.86112 0.75671 0.0
H70 H 0.60933 0.98556 0.6664 0.0
H71 H 0.67055 0.09637 0.74461 0.0
C72 C 0.50351 0.51695 0.89699 0.0
N73 N 0.58101 0.49155 0.82816 0.0
N74 N 0.3791 0.65428 0.87184 0.0
C75 C 0.57433 0.38813 -0.01593 0.0
C76 C 0.38245 0.68019 0.78441 0.0
N77 N 0.50478 0.58957 0.75813 0.0
C78 C 0.25937 0.79063 0.72291 0.0
H79 H 0.54368 0.24452 -0.01475 0.0
H80 H 0.57219 0.36947 0.05334 0.0
H81 H 0.70392 0.40998 -0.01515 0.0
H82 H 0.31643 0.91508 0.68052 0.0
H83 H 0.15709 0.83443 0.75347 0.0
H84 H 0.21034 0.70704 0.68273 0.0
C85 C 0.52116 0.66639 0.05479 0.0
N86 N 0.59227 0.68999 0.12558 0.0
N87 N 0.37293 0.5652 0.07547 0.0
C88 C 0.60753 0.77881 0.96625 0.0
C89 C 0.35971 0.56241 0.15951 0.0
N90 N 0.48772 0.63871 0.18971 0.0
C91 C 0.20859 0.49754 0.20956 0.0
H92 H 0.64328 0.91607 -0.0296 0.0
H93 H 0.56196 0.84013 0.90128 0.0
H94 H 0.71684 0.71032 0.95398 0.0
H95 H 0.22912 0.36112 0.25672 0.0
H96 H 0.10933 0.48555 0.1664 0.0
H97 H 0.17055 0.59638 0.2446 0.0
loop_
_geom_bond_atom_site_label_1
_geom_bond_atom_site_label_2
_geom_bond_distance
_geom_bond_site_symmetry_2
_ccdc_geom_bond_type
O0 Zn1 1.953 . S
O0 C16 1.225 . S
Zn1 O0 1.953 . S
Zn1 O2 1.949 1_565 S
Zn1 O8 1.919 . S
Zn1 O13 1.924 1_565 S
O2 Zn1 1.949 1_545 S
O2 Zn3 1.923 1_444 S
O2 Zn4 1.950 1_455 S
O2 Zn5 1.945 1_554 S
Zn3 O2 1.923 1_666 S
Zn3 O6 1.933 . S
Zn3 O9 1.941 1_655 S
Zn3 O10 1.965 . S
Zn4 O2 1.950 1_655 S
Zn4 O11 1.938 1_545 S
Zn4 O12 1.906 . S
Zn4 O22 1.953 . S
Zn5 O2 1.945 1_556 S
Zn5 O7 1.932 . S
Zn5 O14 1.977 1_455 S
Zn5 O15 1.910 . S
O6 Zn3 1.933 . S
O6 C17 1.226 1_665 S
O7 Zn5 1.932 . S
O7 C17 1.307 . S
O8 Zn1 1.919 . S
O8 C19 1.253 1_554 S
O9 Zn3 1.941 1_455 S
O9 C19 1.283 . S
O10 Zn3 1.965 . S
O10 C18 1.303 1_556 S
O11 Zn4 1.938 1_565 S
O11 C18 1.247 . S
O12 Zn4 1.906 . S
O12 C20 1.304 1_554 S
O13 Zn1 1.924 1_545 S
O13 C21 1.311 . S
O14 Zn5 1.977 1_655 S
O14 C20 1.272 . S
O15 Zn5 1.910 . S
O15 C21 1.231 1_556 S
C16 O0 1.225 . S
C16 O22 1.298 1_465 S
C17 O6 1.226 1_445 S
C17 O7 1.307 . S
C18 O10 1.303 1_554 S
C18 O11 1.247 . S
C19 O8 1.253 1_556 S
C19 O9 1.283 . S
C20 O12 1.304 1_556 S
C20 O14 1.272 . S
C21 O13 1.311 . S
C21 O15 1.231 1_554 S
O22 Zn4 1.953 . S
O22 C16 1.298 1_645 S
O23 Zn24 1.953 . S
O23 C39 1.225 . S
Zn24 O23 1.953 . S
Zn24 O25 1.949 . S
Zn24 O31 1.919 . S
Zn24 O36 1.924 . S
O25 Zn24 1.949 . S
O25 Zn26 1.923 . S
O25 Zn27 1.950 . S
O25 Zn28 1.945 . S
Zn26 O25 1.923 . S
Zn26 O29 1.933 . S
Zn26 O32 1.941 . S
Zn26 O33 1.965 . S
Zn27 O25 1.950 . S
Zn27 O34 1.938 . S
Zn27 O35 1.906 . S
Zn27 O45 1.953 . S
Zn28 O25 1.945 . S
Zn28 O30 1.932 . S
Zn28 O37 1.977 . S
Zn28 O38 1.910 . S
O29 Zn26 1.933 . S
O29 C40 1.226 . S
O30 Zn28 1.932 . S
O30 C40 1.307 . S
O31 Zn24 1.919 . S
O31 C42 1.253 . S
O32 Zn26 1.941 . S
O32 C42 1.283 . S
O33 Zn26 1.965 . S
O33 C41 1.303 . S
O34 Zn27 1.938 . S
O34 C41 1.247 . S
O35 Zn27 1.906 . S
O35 C43 1.304 . S
O36 Zn24 1.924 . S
O36 C44 1.311 . S
O37 Zn28 1.977 . S
O37 C43 1.272 . S
O38 Zn28 1.910 . S
O38 C44 1.231 . S
C39 O23 1.225 . S
C39 O45 1.298 . S
C40 O29 1.226 . S
C40 O30 1.307 . S
C41 O33 1.303 . S
C41 O34 1.247 . S
C42 O31 1.253 . S
C42 O32 1.283 . S
C43 O35 1.304 . S
C43 O37 1.272 . S
C44 O36 1.311 . S
C44 O38 1.231 . S
O45 Zn27 1.953 . S
O45 C39 1.298 . S
C46 N47 1.317 1_545 S
C46 N48 1.348 1_455 S
C46 C49 1.485 1_545 S
N47 C46 1.317 1_565 S
N47 N51 1.370 1_565 S
N48 C46 1.348 1_655 S
N48 C50 1.346 . S
C49 C46 1.485 1_565 S
C49 H53 0.960 1_455 S
C49 H54 0.961 1_565 S
C49 H55 0.960 . S
C50 N48 1.346 . S
C50 N51 1.307 1_655 S
C50 C52 1.486 . S
N51 N47 1.370 1_545 S
N51 C50 1.307 1_455 S
C52 C50 1.486 . S
C52 H56 0.960 . S
C52 H57 0.960 . S
C52 H58 0.959 . S
H53 C49 0.960 1_655 S
H54 C49 0.961 1_545 S
H55 C49 0.960 . S
H56 C52 0.960 . S
H57 C52 0.960 . S
H58 C52 0.959 . S
C59 N60 1.317 . S
C59 N61 1.348 1_445 S
C59 C62 1.485 . S
N60 C59 1.317 . S
N60 N64 1.370 . S
N61 C59 1.348 1_665 S
N61 C63 1.346 . S
C62 C59 1.485 . S
C62 H66 0.960 . S
C62 H67 0.961 1_545 S
C62 H68 0.960 . S
C63 N61 1.346 . S
C63 N64 1.307 1_665 S
C63 C65 1.486 . S
N64 N60 1.370 . S
N64 C63 1.307 1_445 S
C65 C63 1.486 . S
C65 H69 0.960 . S
C65 H70 0.960 . S
C65 H71 0.959 . S
H66 C62 0.960 . S
H67 C62 0.961 1_565 S
H68 C62 0.960 . S
H69 C65 0.960 . S
H70 C65 0.960 . S
H71 C65 0.959 . S
C72 N73 1.317 . S
C72 N74 1.348 . S
C72 C75 1.485 1_556 S
N73 C72 1.317 . S
N73 N77 1.370 . S
N74 C72 1.348 . S
N74 C76 1.346 . S
C75 C72 1.485 1_554 S
C75 H79 0.960 . S
C75 H80 0.961 . S
C75 H81 0.960 . S
C76 N74 1.346 . S
C76 N77 1.307 . S
C76 C78 1.486 . S
N77 N73 1.370 . S
N77 C76 1.307 . S
C78 C76 1.486 . S
C78 H82 0.960 . S
C78 H83 0.960 . S
C78 H84 0.959 . S
H79 C75 0.960 . S
H80 C75 0.961 . S
H81 C75 0.960 . S
H82 C78 0.960 . S
H83 C78 0.960 . S
H84 C78 0.959 . S
C85 N86 1.317 . S
C85 N87 1.348 . S
C85 C88 1.485 1_554 S
N86 C85 1.317 . S
N86 N90 1.370 . S
N87 C85 1.348 . S
N87 C89 1.346 . S
C88 C85 1.485 1_556 S
C88 H92 0.960 . S
C88 H93 0.961 . S
C88 H94 0.960 . S
C89 N87 1.346 . S
C89 N90 1.307 . S
C89 C91 1.486 . S
N90 N86 1.370 . S
N90 C89 1.307 . S
C91 C89 1.486 . S
C91 H95 0.960 . S
C91 H96 0.960 . S
C91 H97 0.959 . S
H92 C88 0.960 . S
H93 C88 0.961 . S
H94 C88 0.960 . S
H95 C91 0.960 . S
H96 C91 0.960 . S
H97 C91 0.959 . S
N87 C21 1.482 . S
C19 N74 1.476 . S
C18 N86 1.465 . S
C20 N73 1.522 . S
C44 N61 1.481 . S
C42 N48 1.476 . S
N60 C41 1.465 . S
N47 C43 1.522 . S
C16 N51 1.541 1_565 S
C17 N64 1.495 . S
N77 C39 1.541 . S
C40 N90 1.495 . S
