# Generated by pormake.
# Topology rtl, (3,6)-cn, num edge types: 1
# Building blocks:
#     Node 0, Type 0, BuildingBlock: QEWDON_clean_linker_0, # of connection points: 3
#     Node 1, Type 0, BuildingBlock: QEWDON_clean_linker_0, # of connection points: 3
#     Node 2, Type 0, BuildingBlock: QEWDON_clean_linker_0, # of connection points: 3
#     Node 3, Type 0, BuildingBlock: QEWDON_clean_linker_0, # of connection points: 3
#     Node 4, Type 1, BuildingBlock: CIFDUS_clean_sbu_1, # of connection points: 6
#     Node 5, Type 1, BuildingBlock: CIFDUS_clean_sbu_1, # of connection points: 6
#     Edge 6, Type (0, 1), None
#     Edge 7, Type (0, 1), None
#     Edge 8, Type (0, 1), None
#     Edge 9, Type (0, 1), None
#     Edge 10, Type (0, 1), None
#     Edge 11, Type (0, 1), None
#     Edge 12, Type (0, 1), None
#     Edge 13, Type (0, 1), None
#     Edge 14, Type (0, 1), None
#     Edge 15, Type (0, 1), None
#     Edge 16, Type (0, 1), None
#     Edge 17, Type (0, 1), None
# Relax obj value: 0.036
# Max RMSD: 0.146
# Mean RMSD: 0.119
data_MOF--net-rtl--node1-CIFDUS_clean_sbu_1--node2-QEWDON_clean_linker_0--edge1-none
_symmetry_space_group_name_H-M    P1
_symmetry_Int_Tables_number       1
_symmetry_cell_setting            triclinic
loop_
_symmetry_equiv_pos_as_xyz
'x, y, z'
_cell_length_a     17.226598
_cell_length_b     18.559066
_cell_length_c     9.2385582
_cell_angle_alpha  90.312991
_cell_angle_beta   104.36086
_cell_angle_gamma 90.122531
loop_
_atom_site_label
_atom_site_type_symbol
_atom_site_fract_x
_atom_site_fract_y
_atom_site_fract_z
_atom_type_partial_charge
H0 H 0.19607 0.78432 0.36498 0.0
C1 C 0.18873 0.80713 0.25476 0.0
C2 C 0.12869 0.85886 0.20364 0.0
C3 C 0.23736 0.7838 0.16075 0.0
H4 H 0.0732 0.92868 1.0226 0.0
C5 C 0.11712 0.88657 0.05909 0.0
C6 C 0.167 0.86683 0.96751 0.0
C7 C 0.22774 0.81662 1.01961 0.0
C8 C 0.29857 0.7258 0.20624 0.0
H9 H 0.26892 0.80469 0.95107 0.0
C10 C 0.31286 0.67801 0.09736 0.0
C11 C 0.37594 0.62778 0.12964 0.0
C12 C 0.34556 0.71939 0.35335 0.0
H13 H 0.33708 0.75554 0.44047 0.0
C14 C 0.40607 0.66728 0.38824 0.0
H15 H 0.27538 0.68143 0.98464 0.0
C16 C 0.4215 0.62173 0.2771 0.0
H17 H 0.4688 0.58244 0.30593 0.0
H18 H 0.4424 0.66356 0.50128 0.0
H19 H 0.76779 0.68258 0.45257 0.0
C20 C 0.72688 0.67037 0.5214 0.0
C21 C 0.66641 0.61959 0.46906 0.0
C22 C 0.73667 0.7034 0.66298 0.0
H23 H 0.57295 0.55696 0.52339 0.0
C24 C 0.61686 0.59939 0.56067 0.0
C25 C 0.62878 0.62713 0.70594 0.0
C26 C 0.68864 0.67954 0.75748 0.0
C27 C 0.79782 0.76184 0.70824 0.0
H28 H 0.69629 0.70247 0.86822 0.0
C29 C 0.81157 0.80937 0.59927 0.0
C30 C 0.87569 0.85891 0.63023 0.0
C31 C 0.84613 0.76819 0.85441 0.0
H32 H 0.83817 0.73212 0.94136 0.0
C33 C 0.90748 0.81991 0.88822 0.0
H34 H 0.77312 0.80595 0.48725 0.0
C35 C 0.92246 0.86507 0.77693 0.0
H36 H 0.97048 0.90399 0.8049 0.0
H37 H 0.94504 0.82334 1.00029 0.0
H38 H 0.86065 0.18091 0.15461 0.0
C39 C 0.90182 0.16898 0.08607 0.0
C40 C 0.96256 0.11877 0.13816 0.0
C41 C 0.89219 0.20181 0.94493 0.0
H42 H 0.05638 0.05695 0.0831 0.0
C43 C 1.01246 0.09906 0.04659 0.0
C44 C 1.00088 0.12677 0.90204 0.0
C45 C 0.94082 0.17848 0.85091 0.0
C46 C 0.83098 0.2598 0.89944 0.0
H47 H 0.93347 0.20129 0.74069 0.0
C48 C 0.81669 0.3076 1.00832 0.0
C49 C 0.75362 0.35782 0.97604 0.0
C50 C 0.78398 0.2662 0.75233 0.0
H51 H 0.79246 0.23005 0.66521 0.0
C52 C 0.72348 0.31831 0.71745 0.0
H53 H 0.85418 0.30418 0.12103 0.0
C54 C 0.70805 0.36387 0.82858 0.0
H55 H 0.66075 0.40316 0.79975 0.0
H56 H 0.68714 0.32203 0.6044 0.0
H57 H 0.36179 0.30303 0.65311 0.0
C58 C 0.4027 0.31524 0.58429 0.0
C59 C 0.46317 0.36603 0.63661 0.0
C60 C 0.39291 0.28221 0.44271 0.0
H61 H 0.55662 0.42867 0.58228 0.0
C62 C 0.51271 0.38623 0.545 0.0
C63 C 0.5008 0.35849 0.39974 0.0
C64 C 0.44094 0.30607 0.34821 0.0
C65 C 0.33176 0.22377 0.39745 0.0
H66 H 0.43329 0.28314 0.23747 0.0
C67 C 0.31801 0.17623 0.50642 0.0
C68 C 0.2539 0.1267 0.47546 0.0
C69 C 0.28347 0.21741 0.25128 0.0
H70 H 0.29143 0.25347 0.16433 0.0
C71 C 0.22211 0.16569 0.21747 0.0
H72 H 0.35646 0.17966 0.61845 0.0
C73 C 0.20713 0.12053 0.32876 0.0
H74 H 0.15911 0.08161 0.30079 0.0
H75 H 0.18456 0.16225 0.1054 0.0
O76 O 1.02723 0.06129 0.36638 0.0
Mn77 Mn 0.06479 -0.00719 0.55284 0.0
O78 O 0.90324 0.02963 0.24776 0.0
Mn79 Mn 0.92561 0.93691 0.31179 0.0
O80 O 0.10234 0.92433 0.7393 0.0
O81 O 0.17073 0.04949 0.59682 0.0
Mn82 Mn 0.20396 0.04872 0.7939 0.0
O83 O 1.01863 0.06395 0.68666 0.0
O84 O 0.22632 0.956 0.85796 0.0
O85 O 0.11095 0.92167 0.41903 0.0
O86 O 1.0028 0.89004 0.23718 0.0
O87 O 0.28039 0.09944 0.73568 0.0
O88 O 0.12677 0.09559 0.86849 0.0
C89 C 0.89434 0.89771 0.50292 0.0
C90 C 0.96172 0.07275 0.2668 0.0
C91 C 0.16785 0.91287 0.8389 0.0
C92 C 0.23523 0.0879 0.60278 0.0
C93 C 0.05162 0.0975 0.80867 0.0
C94 C 0.07795 0.88813 0.29701 0.0
O95 O 0.95885 0.93613 0.50887 0.0
O96 O 0.84919 0.88618 0.37001 0.0
O97 O 0.60186 0.56149 0.24037 0.0
Mn98 Mn 0.56478 0.49281 0.05284 0.0
O99 O 0.726 0.5311 0.35777 0.0
Mn100 Mn 0.70357 0.43812 0.29299 0.0
O101 O 0.52771 0.42412 0.86531 0.0
O102 O 0.459 0.54933 1.0098 0.0
Mn103 Mn 0.426 0.5475 0.81269 0.0
O104 O 0.61114 0.56425 0.92044 0.0
O105 O 0.40358 0.45453 0.7479 0.0
O106 O 0.51843 0.42136 0.18523 0.0
O107 O 0.62653 0.39089 0.36709 0.0
O108 O 0.34939 0.5981 0.87002 0.0
O109 O 0.50305 0.59473 0.73859 0.0
C110 C 0.73509 0.39796 0.10261 0.0
C111 C 0.66738 0.57364 0.33972 0.0
C112 C 0.46219 0.41198 0.76596 0.0
C113 C 0.39448 0.58765 1.00306 0.0
C114 C 0.57816 0.59744 0.79885 0.0
C115 C 0.55142 0.38818 0.30683 0.0
O116 O 0.67057 0.43629 0.09588 0.0
O117 O 0.78018 0.38752 0.23565 0.0
loop_
_geom_bond_atom_site_label_1
_geom_bond_atom_site_label_2
_geom_bond_distance
_geom_bond_site_symmetry_2
_ccdc_geom_bond_type
H0 C1 0.949 . S
C1 H0 0.949 . S
C1 C2 1.395 . S
C1 C3 1.391 . S
C2 C1 1.395 . S
C2 C5 1.390 . S
C3 C1 1.391 . S
C3 C7 1.387 1_554 S
C3 C8 1.491 . S
H4 C5 0.950 . S
C5 C2 1.390 . S
C5 H4 0.950 . S
C5 C6 1.378 1_554 S
C6 C5 1.378 1_556 S
C6 C7 1.409 . S
C7 C3 1.387 1_556 S
C7 C6 1.409 . S
C7 H9 0.951 . S
C8 C3 1.491 . S
C8 C10 1.382 . S
C8 C12 1.404 1_554 S
H9 C7 0.951 . S
C10 C8 1.382 . S
C10 C11 1.390 . S
C10 H15 0.949 . S
C11 C10 1.390 . S
C11 C16 1.399 . S
C12 C8 1.404 1_556 S
C12 H13 0.950 . S
C12 C14 1.375 . S
H13 C12 0.950 . S
C14 C12 1.375 . S
C14 C16 1.382 1_556 S
C14 H18 0.950 . S
H15 C10 0.949 . S
C16 C11 1.399 . S
C16 C14 1.382 1_554 S
C16 H17 0.952 . S
H17 C16 0.952 . S
H18 C14 0.950 . S
H19 C20 0.949 . S
C20 H19 0.949 . S
C20 C21 1.395 . S
C20 C22 1.391 . S
C21 C20 1.395 . S
C21 C24 1.390 . S
C22 C20 1.391 . S
C22 C26 1.387 . S
C22 C27 1.491 . S
H23 C24 0.950 . S
C24 C21 1.390 . S
C24 H23 0.950 . S
C24 C25 1.378 . S
C25 C24 1.378 . S
C25 C26 1.409 . S
C26 C22 1.387 . S
C26 C25 1.409 . S
C26 H28 0.951 . S
C27 C22 1.491 . S
C27 C29 1.382 . S
C27 C31 1.404 . S
H28 C26 0.951 . S
C29 C27 1.382 . S
C29 C30 1.390 . S
C29 H34 0.949 . S
C30 C29 1.390 . S
C30 C35 1.399 . S
C31 C27 1.404 . S
C31 H32 0.950 . S
C31 C33 1.375 . S
H32 C31 0.950 . S
C33 C31 1.375 . S
C33 C35 1.382 . S
C33 H37 0.950 . S
H34 C29 0.949 . S
C35 C30 1.399 . S
C35 C33 1.382 . S
C35 H36 0.952 . S
H36 C35 0.952 . S
H37 C33 0.950 . S
H38 C39 0.949 . S
C39 H38 0.949 . S
C39 C40 1.395 . S
C39 C41 1.391 1_554 S
C40 C39 1.395 . S
C40 C43 1.390 1_554 S
C41 C39 1.391 1_556 S
C41 C45 1.387 . S
C41 C46 1.491 . S
H42 C43 0.950 1_554 S
C43 C40 1.390 1_556 S
C43 H42 0.950 1_556 S
C43 C44 1.378 . S
C44 C43 1.378 . S
C44 C45 1.409 . S
C45 C41 1.387 . S
C45 C44 1.409 . S
C45 H47 0.951 . S
C46 C41 1.491 . S
C46 C48 1.381 1_556 S
C46 C50 1.404 . S
H47 C45 0.951 . S
C48 C46 1.381 1_554 S
C48 C49 1.389 1_554 S
C48 H53 0.950 . S
C49 C48 1.389 1_556 S
C49 C54 1.399 . S
C50 C46 1.404 . S
C50 H51 0.950 . S
C50 C52 1.375 . S
H51 C50 0.950 . S
C52 C50 1.375 . S
C52 C54 1.382 . S
C52 H56 0.950 . S
H53 C48 0.950 . S
C54 C49 1.399 . S
C54 C52 1.382 . S
C54 H55 0.952 . S
H55 C54 0.952 . S
H56 C52 0.950 . S
H57 C58 0.949 . S
C58 H57 0.949 . S
C58 C59 1.395 . S
C58 C60 1.391 . S
C59 C58 1.395 . S
C59 C62 1.390 . S
C60 C58 1.391 . S
C60 C64 1.387 . S
C60 C65 1.491 . S
H61 C62 0.950 . S
C62 C59 1.390 . S
C62 H61 0.950 . S
C62 C63 1.378 . S
C63 C62 1.378 . S
C63 C64 1.409 . S
C64 C60 1.387 . S
C64 C63 1.409 . S
C64 H66 0.951 . S
C65 C60 1.491 . S
C65 C67 1.382 . S
C65 C69 1.404 . S
H66 C64 0.951 . S
C67 C65 1.382 . S
C67 C68 1.390 . S
C67 H72 0.949 . S
C68 C67 1.390 . S
C68 C73 1.399 . S
C69 C65 1.404 . S
C69 H70 0.950 . S
C69 C71 1.375 . S
H70 C69 0.950 . S
C71 C69 1.375 . S
C71 C73 1.382 . S
C71 H75 0.950 . S
H72 C67 0.949 . S
C73 C68 1.399 . S
C73 C71 1.382 . S
C73 H74 0.952 . S
H74 C73 0.952 . S
H75 C71 0.950 . S
O76 Mn77 2.167 1_655 S
O76 C90 1.244 . S
Mn77 O76 2.167 1_455 S
Mn77 O80 2.156 1_545 S
Mn77 O81 2.226 . S
Mn77 O83 2.165 1_455 S
Mn77 O85 2.157 1_545 S
Mn77 O95 2.216 1_445 S
O78 Mn79 2.087 1_545 S
O78 C90 1.256 . S
Mn79 O78 2.087 1_565 S
Mn79 O86 2.089 1_655 S
Mn79 O95 2.290 . S
Mn79 O96 2.251 . S
O80 Mn77 2.156 1_565 S
O80 C91 1.239 . S
O81 Mn77 2.226 . S
O81 Mn82 2.290 . S
O81 C92 1.278 . S
Mn82 O81 2.290 . S
Mn82 O84 2.089 . S
Mn82 O87 2.251 . S
Mn82 O88 2.087 . S
O83 Mn77 2.165 1_655 S
O83 C93 1.244 . S
O84 Mn82 2.089 . S
O84 C91 1.256 1_545 S
O85 Mn77 2.157 1_565 S
O85 C94 1.239 . S
O86 Mn79 2.089 1_455 S
O86 C94 1.256 . S
O87 Mn82 2.251 . S
O87 C92 1.241 . S
O88 Mn82 2.087 . S
O88 C93 1.256 1_455 S
C89 O95 1.278 . S
C89 O96 1.241 . S
C90 O76 1.244 . S
C90 O78 1.256 . S
C91 O80 1.239 . S
C91 O84 1.256 1_565 S
C92 O81 1.278 . S
C92 O87 1.241 . S
C93 O83 1.244 . S
C93 O88 1.256 1_655 S
C94 O85 1.239 . S
C94 O86 1.256 . S
O95 Mn77 2.216 1_665 S
O95 Mn79 2.290 . S
O95 C89 1.278 . S
O96 Mn79 2.251 . S
O96 C89 1.241 . S
O97 Mn98 2.163 . S
O97 C111 1.244 . S
Mn98 O97 2.163 . S
Mn98 O101 2.160 1_554 S
Mn98 O102 2.221 1_554 S
Mn98 O104 2.163 1_554 S
Mn98 O106 2.160 . S
Mn98 O116 2.221 . S
O99 Mn100 2.087 . S
O99 C111 1.256 . S
Mn100 O99 2.087 . S
Mn100 O107 2.089 . S
Mn100 O116 2.290 . S
Mn100 O117 2.251 . S
O101 Mn98 2.160 1_556 S
O101 C112 1.239 . S
O102 Mn98 2.221 1_556 S
O102 Mn103 2.290 . S
O102 C113 1.278 1_556 S
Mn103 O102 2.290 . S
Mn103 O105 2.089 . S
Mn103 O108 2.251 . S
Mn103 O109 2.087 . S
O104 Mn98 2.163 1_556 S
O104 C114 1.244 . S
O105 Mn103 2.089 . S
O105 C112 1.256 . S
O106 Mn98 2.160 . S
O106 C115 1.239 . S
O107 Mn100 2.089 . S
O107 C115 1.256 . S
O108 Mn103 2.251 . S
O108 C113 1.241 1_556 S
O109 Mn103 2.087 . S
O109 C114 1.256 . S
C110 O116 1.278 . S
C110 O117 1.241 . S
C111 O97 1.244 . S
C111 O99 1.256 . S
C112 O101 1.239 . S
C112 O105 1.256 . S
C113 O102 1.278 1_554 S
C113 O108 1.241 1_554 S
C114 O104 1.244 . S
C114 O109 1.256 . S
C115 O106 1.239 . S
C115 O107 1.256 . S
O116 Mn98 2.221 . S
O116 Mn100 2.290 . S
O116 C110 1.278 . S
O117 Mn100 2.251 . S
O117 C110 1.241 . S
C92 C68 1.392 . S
C11 C113 1.189 . S
C30 C89 1.762 . S
C49 C110 1.543 1_556 S
C94 C2 1.574 . S
C114 C25 1.627 . S
C40 C90 1.693 . S
C59 C112 1.458 . S
C111 C21 1.513 . S
C93 C44 1.479 . S
C115 C63 1.425 . S
C6 C91 1.417 . S
