# Generated by pormake.
# Topology pts, (4,4)-cn, num edge types: 1
# Building blocks:
#     Node 0, Type 0, BuildingBlock: NAWXER_clean_linker_0, # of connection points: 4
#     Node 1, Type 0, BuildingBlock: NAWXER_clean_linker_0, # of connection points: 4
#     Node 2, Type 1, BuildingBlock: AZAVOO_clean_sbu_0, # of connection points: 4
#     Node 3, Type 1, BuildingBlock: AZAVOO_clean_sbu_0, # of connection points: 4
#     Edge 4, Type (0, 1), BuildingBlock: AJUNOK_clean_linker_0, # of connection points: 2
#     Edge 5, Type (0, 1), BuildingBlock: AJUNOK_clean_linker_0, # of connection points: 2
#     Edge 6, Type (0, 1), BuildingBlock: AJUNOK_clean_linker_0, # of connection points: 2
#     Edge 7, Type (0, 1), BuildingBlock: AJUNOK_clean_linker_0, # of connection points: 2
#     Edge 8, Type (0, 1), BuildingBlock: AJUNOK_clean_linker_0, # of connection points: 2
#     Edge 9, Type (0, 1), BuildingBlock: AJUNOK_clean_linker_0, # of connection points: 2
#     Edge 10, Type (0, 1), BuildingBlock: AJUNOK_clean_linker_0, # of connection points: 2
#     Edge 11, Type (0, 1), BuildingBlock: AJUNOK_clean_linker_0, # of connection points: 2
# Relax obj value: 0.000
# Max RMSD: 0.033
# Mean RMSD: 0.019
data_MOF--net-pts--node1-AZAVOO_clean_sbu_0--node2-NAWXER_clean_linker_0--edge1-AJUNOK_clean_linker_0
_symmetry_space_group_name_H-M    P1
_symmetry_Int_Tables_number       1
_symmetry_cell_setting            triclinic
loop_
_symmetry_equiv_pos_as_xyz
'x, y, z'
_cell_length_a     22.918999
_cell_length_b     24.203405
_cell_length_c     32.243337
_cell_angle_alpha  90.22671
_cell_angle_beta   96.807328
_cell_angle_gamma 89.815908
loop_
_atom_site_label
_atom_site_type_symbol
_atom_site_fract_x
_atom_site_fract_y
_atom_site_fract_z
_atom_type_partial_charge
C0 C 0.71561 0.04828 0.95765 0.0
C1 C 0.71418 0.01047 0.92435 0.0
C2 C 0.67198 0.04722 0.98462 0.0
C3 C 0.62648 0.00803 0.97891 0.0
C4 C 0.66942 0.97065 0.91931 0.0
C5 C 0.62601 0.96956 0.94619 0.0
C6 C 0.57599 0.01009 1.00374 0.0
C7 C 0.72602 0.96097 0.09916 0.0
C8 C 0.74176 0.00076 0.13019 0.0
C9 C 0.67507 0.96768 0.07121 0.0
C10 C 0.63878 0.01417 0.074 0.0
C11 C 0.70646 0.04797 0.13234 0.0
C12 C 0.65491 0.05429 0.10475 0.0
C13 C 0.58162 0.01804 0.04743 0.0
C14 C 0.34206 0.97148 0.09293 0.0
C15 C 0.33508 0.01431 0.12149 0.0
C16 C 0.38711 0.97343 0.06735 0.0
C17 C 0.42606 0.01833 0.06977 0.0
C18 C 0.3734 0.05968 0.12344 0.0
C19 C 0.41883 0.06144 0.098 0.0
C20 C 0.47693 0.0182 0.0454 0.0
C21 C 0.31731 0.03273 0.94749 0.0
C22 C 0.31184 -0.01133 0.9187 0.0
C23 C 0.36836 0.03853 0.97572 0.0
C24 C 0.41462 0.00028 0.97561 0.0
C25 C 0.35762 0.94982 0.91951 0.0
C26 C 0.40851 0.95574 0.94747 0.0
C27 C 0.47149 0.00816 1.00194 0.0
H28 H 0.749 0.08004 0.96178 0.0
H29 H 0.67253 0.07846 1.0088 0.0
H30 H 0.66745 0.94081 0.89405 0.0
H31 H 0.59136 0.93908 0.94096 0.0
H32 H 0.75252 0.92411 0.09717 0.0
H33 H 0.6629 0.93554 0.04838 0.0
H34 H 0.71761 0.07887 0.15635 0.0
H35 H 0.62725 0.09012 0.10773 0.0
H36 H 0.31337 0.93584 0.09109 0.0
H37 H 0.39262 0.93896 0.04663 0.0
H38 H 0.36966 0.09269 0.14576 0.0
H39 H 0.44884 0.09611 0.10075 0.0
H40 H 0.28328 0.06394 0.94701 0.0
H41 H 0.37255 0.07393 0.9965 0.0
H42 H 0.35452 0.91531 0.89786 0.0
H43 H 0.44362 0.92577 0.94675 0.0
N44 N 0.52118 0.0049 0.98291 0.0
N45 N 0.53186 0.02252 0.06652 0.0
C46 C 0.07182 0.68121 0.59572 0.0
C47 C 0.02717 0.68789 0.62174 0.0
C48 C 0.07298 0.63454 0.5701 0.0
C49 C 0.02925 0.594 0.5699 0.0
C50 C 0.98327 0.64742 0.62113 0.0
C51 C 0.98467 0.60069 0.5958 0.0
C52 C 0.03146 0.54266 0.54519 0.0
C53 C 0.99424 0.6754 0.44744 0.0
C54 C 0.03994 0.68267 0.42246 0.0
C55 C 0.99457 0.63032 0.47434 0.0
C56 C 0.04061 0.59175 0.47672 0.0
C57 C 0.08609 0.64399 0.42508 0.0
C58 C 0.086 0.59856 0.45162 0.0
C59 C 0.039 0.54168 0.50236 0.0
C60 C 0.97862 0.309 0.45391 0.0
C61 C 0.02476 0.29348 0.43117 0.0
C62 C 0.98165 0.35805 0.47683 0.0
C63 C 0.03062 0.39263 0.47707 0.0
C64 C 0.07231 0.32957 0.42968 0.0
C65 C 0.07501 0.37908 0.4523 0.0
C66 C 0.0349 0.44345 0.50253 0.0
C67 C 0.06226 0.30162 0.5913 0.0
C68 C 0.0242 0.29916 0.62241 0.0
C69 C 0.06418 0.34855 0.56656 0.0
C70 C 0.02664 0.39354 0.57131 0.0
C71 C 0.98816 0.34496 0.62822 0.0
C72 C 0.98923 0.39156 0.60281 0.0
C73 C 0.02886 0.44415 0.54569 0.0
H74 H 0.10628 0.71172 0.59563 0.0
H75 H 0.10863 0.62963 0.55114 0.0
H76 H 0.94738 0.65213 0.6399 0.0
H77 H 0.95057 0.56986 0.59618 0.0
H78 H 0.95795 0.70439 0.44593 0.0
H79 H 0.95828 0.625 0.49263 0.0
H80 H 0.12272 0.64923 0.40712 0.0
H81 H 0.12166 0.56888 0.45282 0.0
H82 H 0.94065 0.28263 0.45459 0.0
H83 H 0.94606 0.36872 0.49473 0.0
H84 H 0.10829 0.31859 0.41226 0.0
H85 H 0.11266 0.40586 0.45162 0.0
H86 H 0.09067 0.26711 0.58598 0.0
H87 H 0.09566 0.34969 0.54408 0.0
H88 H 0.95965 0.34514 0.65269 0.0
H89 H 0.96077 0.42617 0.60782 0.0
N90 N 0.02682 0.49387 0.56516 0.0
N91 N 0.04041 0.49211 0.48269 0.0
Mg92 Mg 0.07586 -0.02048 0.29944 0.0
O93 O 0.98691 -0.02041 0.25741 0.0
O94 O 0.91804 0.96034 0.29893 0.0
Mg95 Mg 0.96028 0.94952 0.3662 0.0
C96 C 0.93338 0.97121 0.26307 0.0
C97 C 0.17266 -0.0141 0.24572 0.0
O98 O 0.18619 0.94745 0.27391 0.0
O99 O 0.05519 0.06502 0.32541 0.0
O100 O 0.99046 0.0393 0.36849 0.0
O101 O 0.08534 0.88676 0.29413 0.0
O102 O 0.04284 0.92914 0.34296 0.0
C103 C 0.02228 0.07597 0.35385 0.0
C104 C 0.05862 0.88365 0.32718 0.0
O105 O 0.12495 0.01264 0.24685 0.0
Mg106 Mg 0.97557 -0.01972 0.74876 0.0
O107 O 0.06525 -0.02048 0.78961 0.0
O108 O 0.13394 0.96942 0.74657 0.0
Mg109 Mg 0.09014 0.96393 0.67936 0.0
C110 C 0.11908 0.9753 0.78327 0.0
C111 C 0.87354 0.00815 0.79651 0.0
O112 O 0.85008 -0.002 0.75805 0.0
O113 O 0.99139 0.06866 0.72799 0.0
O114 O 0.05951 0.05371 0.68467 0.0
O115 O 0.97063 0.88805 0.75032 0.0
O116 O 0.00935 0.93514 0.70204 0.0
C117 C 0.02568 0.08597 0.70235 0.0
C118 C 0.99716 0.88801 0.71704 0.0
O119 O 0.9292 0.00746 0.80426 0.0
C120 C 0.29285 0.96083 0.17655 0.0
C121 C 0.29171 0.0086 0.15192 0.0
C122 C 0.25407 0.95429 0.20653 0.0
C123 C 0.21194 -0.005 0.21292 0.0
H124 H 0.32475 0.92848 0.17311 0.0
H125 H 0.25724 0.9167 0.22479 0.0
S126 S 0.18987 0.12741 0.15545 0.0
N127 N 0.24474 0.09716 0.13516 0.0
N128 N 0.17096 0.08471 0.1914 0.0
C129 C 0.20974 0.04283 0.18806 0.0
C130 C 0.24993 0.04974 0.15771 0.0
C131 C 0.07616 0.22214 0.66325 0.0
C132 C 0.02302 0.24868 0.64849 0.0
C133 C 0.07658 0.17074 0.68295 0.0
C134 C 0.02396 0.14438 0.68951 0.0
H135 H 0.11788 0.24043 0.6584 0.0
H136 H 0.11845 0.15062 0.69199 0.0
S137 S 0.87308 0.19702 0.65901 0.0
N138 N 0.9162 0.24506 0.64301 0.0
N139 N 0.91741 0.14923 0.68167 0.0
C140 C 0.97059 0.17167 0.67725 0.0
C141 C 0.97001 0.22368 0.65638 0.0
C142 C 0.84097 0.02644 0.16639 0.0
C143 C 0.79222 -0.00912 0.16242 0.0
C144 C 0.88793 0.01852 0.19805 0.0
C145 C 0.88676 0.97566 0.22734 0.0
H146 H 0.84259 0.06069 0.14502 0.0
H147 H 0.92435 0.04723 0.20051 0.0
S148 S 0.76957 0.8707 0.22945 0.0
N149 N 0.74635 0.91041 0.18929 0.0
N150 N 0.83355 0.89634 0.2494 0.0
C151 C 0.83847 0.93955 0.22326 0.0
C152 C 0.79145 0.94695 0.19062 0.0
C153 C 0.03135 0.79047 0.63091 0.0
C154 C 0.02492 0.73798 0.64825 0.0
C155 C 0.02447 0.83861 0.65405 0.0
C156 C 0.01063 0.83622 0.69542 0.0
H157 H 0.03973 0.79448 0.59869 0.0
H158 H 0.02799 0.87802 0.63874 0.0
S159 S 0.9964 0.70875 0.75694 0.0
N160 N 0.00967 0.68623 0.71056 0.0
N161 N 0.99554 0.77684 0.75387 0.0
C162 C 0.00646 0.78397 0.71373 0.0
C163 C 0.01385 0.73486 0.69019 0.0
C164 C 0.27178 0.97725 0.8438 0.0
C165 C 0.26116 -0.01477 0.88545 0.0
C166 C 0.22563 0.97387 0.81141 0.0
C167 C 0.16651 -0.02172 0.81909 0.0
H168 H 0.31639 0.97424 0.83601 0.0
H169 H 0.23678 0.96797 0.77997 0.0
S170 S 0.11505 -0.00199 0.92327 0.0
N171 N 0.18741 -0.00365 0.93311 0.0
N172 N 0.10011 -0.00957 0.87219 0.0
C173 C 0.15517 -0.0139 0.8608 0.0
C174 C 0.20254 -0.01039 0.89391 0.0
C175 C 0.0362 0.23155 0.36978 0.0
C176 C 0.02486 0.23808 0.4115 0.0
C177 C 0.03579 0.17897 0.35107 0.0
C178 C 0.02371 0.13142 0.37348 0.0
H179 H 0.04469 0.26735 0.35137 0.0
H180 H 0.04407 0.17563 0.31877 0.0
S181 S 0.99865 0.12619 0.48527 0.0
N182 N 0.00675 0.19243 0.47568 0.0
N183 N 0.00494 0.09414 0.44076 0.0
C184 C 0.0139 0.13755 0.4156 0.0
C185 C 0.01474 0.19073 0.43455 0.0
C186 C 0.73528 0.01474 0.8503 0.0
C187 C 0.75655 0.01419 0.89301 0.0
C188 C 0.77361 0.01483 0.81962 0.0
C189 C 0.835 0.01415 0.83026 0.0
H190 H 0.68841 0.01462 0.84044 0.0
H191 H 0.75465 0.01431 0.78721 0.0
S192 S 0.91313 0.01442 0.93803 0.0
N193 N 0.84277 0.01452 0.94469 0.0
N194 N 0.91529 0.01482 0.887 0.0
C195 C 0.85699 0.01528 0.87299 0.0
C196 C 0.81769 0.0153 0.90434 0.0
C197 C 0.02944 0.78433 0.41242 0.0
C198 C 0.04103 0.73233 0.39573 0.0
C199 C 0.03334 0.83249 0.38925 0.0
C200 C 0.04929 0.83085 0.3484 0.0
H201 H 0.01901 0.78815 0.44422 0.0
H202 H 0.02563 0.87149 0.40427 0.0
S203 S 0.07919 0.70452 0.28887 0.0
N204 N 0.065 0.68137 0.33474 0.0
N205 N 0.07365 0.77249 0.29131 0.0
C206 C 0.0595 0.77902 0.33078 0.0
C207 C 0.05514 0.72966 0.35442 0.0
loop_
_geom_bond_atom_site_label_1
_geom_bond_atom_site_label_2
_geom_bond_distance
_geom_bond_site_symmetry_2
_ccdc_geom_bond_type
C0 C1 1.384 . S
C0 C2 1.384 . S
C0 H28 0.931 . S
C1 C0 1.384 . S
C1 C4 1.382 1_545 S
C2 C0 1.384 . S
C2 C3 1.381 . S
C2 H29 0.930 . S
C3 C2 1.381 . S
C3 C5 1.381 1_545 S
C3 C6 1.487 . S
C4 C1 1.382 1_565 S
C4 C5 1.387 . S
C4 H30 0.930 . S
C5 C3 1.381 1_565 S
C5 C4 1.387 . S
C5 H31 0.931 . S
C6 C3 1.487 . S
C6 C13 1.399 1_556 S
C6 N44 1.344 . S
C7 C8 1.384 1_565 S
C7 C9 1.384 . S
C7 H32 0.931 . S
C8 C7 1.384 1_545 S
C8 C11 1.382 . S
C9 C7 1.384 . S
C9 C10 1.381 1_565 S
C9 H33 0.930 . S
C10 C9 1.381 1_545 S
C10 C12 1.381 . S
C10 C13 1.487 . S
C11 C8 1.382 . S
C11 C12 1.387 . S
C11 H34 0.930 . S
C12 C10 1.381 . S
C12 C11 1.387 . S
C12 H35 0.931 . S
C13 C6 1.399 1_554 S
C13 C10 1.487 . S
C13 N45 1.343 . S
C14 C15 1.384 1_565 S
C14 C16 1.384 . S
C14 H36 0.931 . S
C15 C14 1.384 1_545 S
C15 C18 1.382 . S
C16 C14 1.384 . S
C16 C17 1.381 1_565 S
C16 H37 0.930 . S
C17 C16 1.381 1_545 S
C17 C19 1.381 . S
C17 C20 1.487 . S
C18 C15 1.382 . S
C18 C19 1.387 . S
C18 H38 0.930 . S
C19 C17 1.381 . S
C19 C18 1.387 . S
C19 H39 0.931 . S
C20 C17 1.487 . S
C20 C27 1.399 1_554 S
C20 N45 1.343 . S
C21 C22 1.384 . S
C21 C23 1.384 . S
C21 H40 0.931 . S
C22 C21 1.384 . S
C22 C25 1.382 1_545 S
C23 C21 1.384 . S
C23 C24 1.381 . S
C23 H41 0.930 . S
C24 C23 1.381 . S
C24 C26 1.381 1_545 S
C24 C27 1.487 . S
C25 C22 1.382 1_565 S
C25 C26 1.387 . S
C25 H42 0.930 . S
C26 C24 1.381 1_565 S
C26 C25 1.387 . S
C26 H43 0.931 . S
C27 C20 1.399 1_556 S
C27 C24 1.487 . S
C27 N44 1.344 . S
H28 C0 0.931 . S
H29 C2 0.930 . S
H30 C4 0.930 . S
H31 C5 0.931 . S
H32 C7 0.931 . S
H33 C9 0.930 . S
H34 C11 0.930 . S
H35 C12 0.931 . S
H36 C14 0.931 . S
H37 C16 0.930 . S
H38 C18 0.930 . S
H39 C19 0.931 . S
H40 C21 0.931 . S
H41 C23 0.930 . S
H42 C25 0.930 . S
H43 C26 0.931 . S
N44 C6 1.344 . S
N44 C27 1.344 . S
N45 C13 1.343 . S
N45 C20 1.343 . S
C46 C47 1.384 . S
C46 C48 1.384 . S
C46 H74 0.931 . S
C47 C46 1.384 . S
C47 C50 1.382 1_455 S
C48 C46 1.384 . S
C48 C49 1.381 . S
C48 H75 0.930 . S
C49 C48 1.381 . S
C49 C51 1.381 1_455 S
C49 C52 1.487 . S
C50 C47 1.382 1_655 S
C50 C51 1.387 . S
C50 H76 0.930 . S
C51 C49 1.381 1_655 S
C51 C50 1.387 . S
C51 H77 0.931 . S
C52 C49 1.487 . S
C52 C59 1.399 . S
C52 N90 1.343 . S
C53 C54 1.384 1_655 S
C53 C55 1.384 . S
C53 H78 0.931 . S
C54 C53 1.384 1_455 S
C54 C57 1.382 . S
C55 C53 1.384 . S
C55 C56 1.381 1_655 S
C55 H79 0.930 . S
C56 C55 1.381 1_455 S
C56 C58 1.381 . S
C56 C59 1.487 . S
C57 C54 1.382 . S
C57 C58 1.387 . S
C57 H80 0.930 . S
C58 C56 1.381 . S
C58 C57 1.387 . S
C58 H81 0.931 . S
C59 C52 1.399 . S
C59 C56 1.487 . S
C59 N91 1.343 . S
C60 C61 1.384 1_655 S
C60 C62 1.384 . S
C60 H82 0.931 . S
C61 C60 1.384 1_455 S
C61 C64 1.382 . S
C62 C60 1.384 . S
C62 C63 1.381 1_655 S
C62 H83 0.930 . S
C63 C62 1.381 1_455 S
C63 C65 1.381 . S
C63 C66 1.487 . S
C64 C61 1.382 . S
C64 C65 1.387 . S
C64 H84 0.930 . S
C65 C63 1.381 . S
C65 C64 1.387 . S
C65 H85 0.931 . S
C66 C63 1.487 . S
C66 C73 1.399 . S
C66 N91 1.343 . S
C67 C68 1.384 . S
C67 C69 1.384 . S
C67 H86 0.931 . S
C68 C67 1.384 . S
C68 C71 1.382 1_455 S
C69 C67 1.384 . S
C69 C70 1.381 . S
C69 H87 0.930 . S
C70 C69 1.381 . S
C70 C72 1.381 1_455 S
C70 C73 1.487 . S
C71 C68 1.382 1_655 S
C71 C72 1.387 . S
C71 H88 0.930 . S
C72 C70 1.381 1_655 S
C72 C71 1.387 . S
C72 H89 0.931 . S
C73 C66 1.399 . S
C73 C70 1.487 . S
C73 N90 1.343 . S
H74 C46 0.931 . S
H75 C48 0.930 . S
H76 C50 0.930 . S
H77 C51 0.931 . S
H78 C53 0.931 . S
H79 C55 0.930 . S
H80 C57 0.930 . S
H81 C58 0.931 . S
H82 C60 0.931 . S
H83 C62 0.930 . S
H84 C64 0.930 . S
H85 C65 0.931 . S
H86 C67 0.931 . S
H87 C69 0.930 . S
H88 C71 0.930 . S
H89 C72 0.931 . S
N90 C52 1.343 . S
N90 C73 1.343 . S
N91 C59 1.343 . S
N91 C66 1.343 . S
Mg92 O93 2.028 . S
Mg92 O99 1.986 . S
Mg92 O101 2.114 1_545 S
Mg92 O102 2.251 1_545 S
Mg92 O105 2.010 . S
O93 Mg92 2.028 . S
O93 C96 1.250 1_455 S
O94 Mg95 2.028 . S
O94 C96 1.248 . S
Mg95 O94 2.028 . S
Mg95 O100 2.032 . S
Mg95 O102 2.079 1_645 S
C96 O93 1.250 1_655 S
C96 O94 1.248 . S
C97 O98 1.264 . S
C97 O105 1.249 . S
O98 C97 1.264 . S
O99 Mg92 1.986 . S
O99 C103 1.246 . S
O100 Mg95 2.032 . S
O100 C103 1.259 1_655 S
O101 Mg92 2.114 1_565 S
O101 C104 1.252 . S
O102 Mg92 2.251 1_565 S
O102 Mg95 2.079 1_465 S
O102 C104 1.273 . S
C103 O99 1.246 . S
C103 O100 1.259 1_455 S
C104 O101 1.252 . S
C104 O102 1.273 . S
O105 Mg92 2.010 . S
O105 C97 1.249 . S
Mg106 O107 2.028 1_655 S
Mg106 O113 1.986 . S
Mg106 O115 2.114 1_545 S
Mg106 O116 2.251 1_645 S
Mg106 O119 2.010 . S
O107 Mg106 2.028 1_455 S
O107 C110 1.250 . S
O108 Mg109 2.028 . S
O108 C110 1.248 . S
Mg109 O108 2.028 . S
Mg109 O114 2.032 . S
Mg109 O116 2.079 1_545 S
C110 O107 1.250 . S
C110 O108 1.248 . S
C111 O112 1.264 . S
C111 O119 1.249 . S
O112 C111 1.264 . S
O113 Mg106 1.986 . S
O113 C117 1.246 1_655 S
O114 Mg109 2.032 . S
O114 C117 1.259 . S
O115 Mg106 2.114 1_565 S
O115 C118 1.252 1_655 S
O116 Mg106 2.251 1_465 S
O116 Mg109 2.079 1_565 S
O116 C118 1.273 . S
C117 O113 1.246 1_455 S
C117 O114 1.259 . S
C118 O115 1.252 1_455 S
C118 O116 1.273 . S
O119 Mg106 2.010 . S
O119 C111 1.249 . S
C120 C121 1.369 1_565 S
C120 C122 1.419 . S
C120 H124 0.930 . S
C121 C120 1.369 1_545 S
C121 C130 1.429 . S
C122 C120 1.419 . S
C122 C123 1.363 1_565 S
C122 H125 0.929 . S
C123 C122 1.363 1_545 S
C123 C129 1.428 . S
H124 C120 0.930 . S
H125 C122 0.929 . S
S126 N127 1.613 . S
S126 N128 1.610 . S
N127 S126 1.613 . S
N127 C130 1.350 . S
N128 S126 1.610 . S
N128 C129 1.351 . S
C129 C123 1.428 . S
C129 N128 1.351 . S
C129 C130 1.434 . S
C130 C121 1.429 . S
C130 N127 1.350 . S
C130 C129 1.434 . S
C131 C132 1.369 . S
C131 C133 1.419 . S
C131 H135 0.930 . S
C132 C131 1.369 . S
C132 C141 1.429 1_455 S
C133 C131 1.419 . S
C133 C134 1.363 . S
C133 H136 0.929 . S
C134 C133 1.363 . S
C134 C140 1.428 1_455 S
H135 C131 0.930 . S
H136 C133 0.929 . S
S137 N138 1.613 . S
S137 N139 1.610 . S
N138 S137 1.613 . S
N138 C141 1.350 . S
N139 S137 1.610 . S
N139 C140 1.351 . S
C140 C134 1.428 1_655 S
C140 N139 1.351 . S
C140 C141 1.434 . S
C141 C132 1.429 1_655 S
C141 N138 1.350 . S
C141 C140 1.434 . S
C142 C143 1.369 . S
C142 C144 1.419 . S
C142 H146 0.930 . S
C143 C142 1.369 . S
C143 C152 1.429 1_545 S
C144 C142 1.419 . S
C144 C145 1.363 . S
C144 H147 0.929 . S
C145 C144 1.363 . S
C145 C151 1.428 1_545 S
H146 C142 0.930 . S
H147 C144 0.929 . S
S148 N149 1.613 . S
S148 N150 1.610 . S
N149 S148 1.613 . S
N149 C152 1.350 . S
N150 S148 1.610 . S
N150 C151 1.351 . S
C151 C145 1.428 1_565 S
C151 N150 1.351 . S
C151 C152 1.434 . S
C152 C143 1.429 1_565 S
C152 N149 1.350 . S
C152 C151 1.434 . S
C153 C154 1.369 1_655 S
C153 C155 1.419 . S
C153 H157 0.930 . S
C154 C153 1.369 1_455 S
C154 C163 1.429 . S
C155 C153 1.419 . S
C155 C156 1.363 1_655 S
C155 H158 0.929 . S
C156 C155 1.363 1_455 S
C156 C162 1.428 . S
H157 C153 0.930 . S
H158 C155 0.929 . S
S159 N160 1.613 . S
S159 N161 1.610 . S
N160 S159 1.613 . S
N160 C163 1.350 . S
N161 S159 1.610 . S
N161 C162 1.351 . S
C162 C156 1.428 . S
C162 N161 1.351 . S
C162 C163 1.434 . S
C163 C154 1.429 . S
C163 N160 1.350 . S
C163 C162 1.434 . S
C164 C165 1.369 . S
C164 C166 1.419 . S
C164 H168 0.930 . S
C165 C164 1.369 . S
C165 C174 1.429 . S
C166 C164 1.419 . S
C166 C167 1.363 . S
C166 H169 0.929 . S
C167 C166 1.363 . S
C167 C173 1.428 . S
H168 C164 0.930 . S
H169 C166 0.929 . S
S170 N171 1.613 . S
S170 N172 1.610 . S
N171 S170 1.613 . S
N171 C174 1.350 . S
N172 S170 1.610 . S
N172 C173 1.351 . S
C173 C167 1.428 . S
C173 N172 1.351 . S
C173 C174 1.434 . S
C174 C165 1.429 . S
C174 N171 1.350 . S
C174 C173 1.434 . S
C175 C176 1.369 . S
C175 C177 1.419 . S
C175 H179 0.930 . S
C176 C175 1.369 . S
C176 C185 1.429 . S
C177 C175 1.419 . S
C177 C178 1.363 . S
C177 H180 0.929 . S
C178 C177 1.363 . S
C178 C184 1.428 . S
H179 C175 0.930 . S
H180 C177 0.929 . S
S181 N182 1.613 . S
S181 N183 1.610 . S
N182 S181 1.613 . S
N182 C185 1.350 1_655 S
N183 S181 1.610 . S
N183 C184 1.351 1_655 S
C184 C178 1.428 . S
C184 N183 1.351 1_455 S
C184 C185 1.434 . S
C185 C176 1.429 . S
C185 N182 1.350 1_455 S
C185 C184 1.434 . S
C186 C187 1.369 . S
C186 C188 1.419 . S
C186 H190 0.930 . S
C187 C186 1.369 . S
C187 C196 1.429 1_545 S
C188 C186 1.419 . S
C188 C189 1.363 . S
C188 H191 0.929 . S
C189 C188 1.363 . S
C189 C195 1.428 1_545 S
H190 C186 0.930 . S
H191 C188 0.929 . S
S192 N193 1.613 . S
S192 N194 1.610 . S
N193 S192 1.613 . S
N193 C196 1.350 . S
N194 S192 1.610 . S
N194 C195 1.351 . S
C195 C189 1.428 1_565 S
C195 N194 1.351 . S
C195 C196 1.434 . S
C196 C187 1.429 1_565 S
C196 N193 1.350 . S
C196 C195 1.434 . S
C197 C198 1.369 . S
C197 C199 1.419 . S
C197 H201 0.930 . S
C198 C197 1.369 . S
C198 C207 1.429 . S
C199 C197 1.419 . S
C199 C200 1.363 . S
C199 H202 0.929 . S
C200 C199 1.363 . S
C200 C206 1.428 . S
H201 C197 0.930 . S
H202 C199 0.929 . S
S203 N204 1.613 . S
S203 N205 1.610 . S
N204 S203 1.613 . S
N204 C207 1.350 1_655 S
N205 S203 1.610 . S
N205 C206 1.351 1_655 S
C206 C200 1.428 . S
C206 N205 1.351 1_455 S
C206 C207 1.434 . S
C207 C198 1.429 . S
C207 N204 1.350 1_455 S
C207 C206 1.434 . S
C123 C97 1.265 . S
C121 C15 1.501 . S
C134 C117 1.472 . S
C132 C68 1.495 . S
C145 C96 1.460 . S
C143 C8 1.502 . S
C156 C118 1.507 . S
C154 C47 1.507 . S
C167 C110 1.465 . S
C165 C22 1.503 . S
C178 C103 1.467 . S
C176 C61 1.495 . S
C189 C111 1.268 . S
C187 C1 1.504 . S
C198 C54 1.506 . S
C200 C104 1.507 . S
