# Generated by pormake.
# Topology zzz, (3,6)-cn, num edge types: 1
# Building blocks:
#     Node 0, Type 0, BuildingBlock: ESEHIV_clean_linker_0, # of connection points: 3
#     Node 1, Type 0, BuildingBlock: ESEHIV_clean_linker_0, # of connection points: 3
#     Node 2, Type 0, BuildingBlock: ESEHIV_clean_linker_0, # of connection points: 3
#     Node 3, Type 0, BuildingBlock: ESEHIV_clean_linker_0, # of connection points: 3
#     Node 4, Type 0, BuildingBlock: ESEHIV_clean_linker_0, # of connection points: 3
#     Node 5, Type 0, BuildingBlock: ESEHIV_clean_linker_0, # of connection points: 3
#     Node 6, Type 0, BuildingBlock: ESEHIV_clean_linker_0, # of connection points: 3
#     Node 7, Type 0, BuildingBlock: ESEHIV_clean_linker_0, # of connection points: 3
#     Node 8, Type 1, BuildingBlock: CUKXOW_clean_sbu_0, # of connection points: 6
#     Node 9, Type 1, BuildingBlock: CUKXOW_clean_sbu_0, # of connection points: 6
#     Node 10, Type 1, BuildingBlock: CUKXOW_clean_sbu_0, # of connection points: 6
#     Node 11, Type 1, BuildingBlock: CUKXOW_clean_sbu_0, # of connection points: 6
#     Edge 12, Type (0, 1), None
#     Edge 13, Type (0, 1), None
#     Edge 14, Type (0, 1), None
#     Edge 15, Type (0, 1), None
#     Edge 16, Type (0, 1), None
#     Edge 17, Type (0, 1), None
#     Edge 18, Type (0, 1), None
#     Edge 19, Type (0, 1), None
#     Edge 20, Type (0, 1), None
#     Edge 21, Type (0, 1), None
#     Edge 22, Type (0, 1), None
#     Edge 23, Type (0, 1), None
#     Edge 24, Type (0, 1), None
#     Edge 25, Type (0, 1), None
#     Edge 26, Type (0, 1), None
#     Edge 27, Type (0, 1), None
#     Edge 28, Type (0, 1), None
#     Edge 29, Type (0, 1), None
#     Edge 30, Type (0, 1), None
#     Edge 31, Type (0, 1), None
#     Edge 32, Type (0, 1), None
#     Edge 33, Type (0, 1), None
#     Edge 34, Type (0, 1), None
#     Edge 35, Type (0, 1), None
# Relax obj value: 0.192
# Max RMSD: 0.231
# Mean RMSD: 0.176
data_MOF--net-zzz--node1-CUKXOW_clean_sbu_0--node2-ESEHIV_clean_linker_0--edge1-none
_symmetry_space_group_name_H-M    P1
_symmetry_Int_Tables_number       1
_symmetry_cell_setting            triclinic
loop_
_symmetry_equiv_pos_as_xyz
'x, y, z'
_cell_length_a     16.119994
_cell_length_b     18.134776
_cell_length_c     8.018407
_cell_angle_alpha  94.606138
_cell_angle_beta   84.803334
_cell_angle_gamma 97.840428
loop_
_atom_site_label
_atom_site_type_symbol
_atom_site_fract_x
_atom_site_fract_y
_atom_site_fract_z
_atom_type_partial_charge
H0 H 0.96284 0.50009 0.27322 0.0
H1 H 0.84439 0.474 0.81589 0.0
H2 H 0.74207 0.60372 0.23638 0.0
C3 C 0.91245 0.51121 0.20185 0.0
C4 C 0.85123 0.55181 0.27996 0.0
C5 C 0.91492 0.49047 0.03202 0.0
C6 C 0.84744 0.49927 -0.05842 0.0
C7 C 0.78406 0.54023 0.01462 0.0
C8 C 0.78826 0.56969 0.18333 0.0
H9 H 1.05958 0.948 0.18263 0.0
H10 H 0.12717 0.78897 0.7871 0.0
H11 H 0.9959 0.71336 0.25047 0.0
C12 C 1.06054 0.89014 0.13575 0.0
C13 C 1.02203 0.83316 0.23426 0.0
C14 C 0.09927 0.87533 -0.02279 0.0
C15 C 0.10022 0.80071 0.9137 0.0
C16 C 1.06359 0.74119 0.01213 0.0
C17 C 1.02452 0.75797 0.17399 0.0
H18 H 0.636 0.10964 0.22352 0.0
H19 H 0.82212 0.09017 0.81962 0.0
H20 H 0.86307 1.0192 0.30546 0.0
C21 C 0.69895 0.09704 0.18312 0.0
C22 C 0.74658 0.06706 0.29403 0.0
C23 C 0.72663 0.10595 0.0157 0.0
C24 C 0.80326 0.08526 -0.0477 0.0
C25 C 0.85327 0.05371 0.05322 0.0
C26 C 0.82525 0.04414 0.22665 0.0
H27 H 0.57542 0.62562 0.28631 0.0
H28 H 0.71597 0.84354 0.23608 0.0
H29 H 0.56807 0.73321 0.84341 0.0
C30 C 0.59659 0.67296 0.21361 0.0
C31 C 0.57119 0.67135 0.05296 0.0
C32 C 0.64881 0.73385 0.28225 0.0
C33 C 0.67683 0.79529 0.18443 0.0
C34 C 0.65081 0.79357 0.01948 0.0
C35 C 0.59573 0.73246 -0.04014 0.0
H36 H 0.18653 0.56997 0.18571 0.0
H37 H 0.30488 0.59613 0.64318 0.0
H38 H 0.40725 0.46631 0.22289 0.0
C39 C 0.23691 0.55888 0.25709 0.0
C40 C 0.29814 0.51826 0.17911 0.0
C41 C 0.2344 0.57965 0.42692 0.0
C42 C 0.30187 0.57086 0.51742 0.0
C43 C 0.36524 0.52986 0.44453 0.0
C44 C 0.36107 0.50037 0.27584 0.0
H45 H 0.08989 0.12213 0.27613 0.0
H46 H 1.02212 0.28102 0.67177 0.0
H47 H 0.15377 0.35679 0.20888 0.0
C48 C 0.08889 0.17997 0.32306 0.0
C49 C 0.12756 0.23698 0.22481 0.0
C50 C 1.05007 0.19473 0.48154 0.0
C51 C 1.04912 0.26933 0.54518 0.0
C52 C 0.08583 0.32888 0.44694 0.0
C53 C 0.12505 0.31215 0.28518 0.0
H54 H 0.51394 0.96086 0.23591 0.0
H55 H 0.32769 0.98023 0.63959 0.0
H56 H 0.28667 0.05089 0.15347 0.0
C57 C 0.45096 0.97342 0.27623 0.0
C58 C 0.40328 1.00323 0.16517 0.0
C59 C 0.42324 0.96453 0.44363 0.0
C60 C 0.34656 0.98514 0.50692 0.0
C61 C 0.29652 1.01657 0.40587 0.0
C62 C 0.32453 0.02607 0.23241 0.0
H63 H 0.57371 0.44453 0.17279 0.0
H64 H 0.43367 0.2264 0.22295 0.0
H65 H 0.58155 0.33689 0.61549 0.0
C66 C 0.55272 0.39714 0.24541 0.0
C67 C 0.57824 0.39875 0.40597 0.0
C68 C 0.50059 0.33618 0.1768 0.0
C69 C 0.47275 0.2747 0.27457 0.0
C70 C 0.49884 0.27644 0.43946 0.0
C71 C 0.55386 0.3376 0.49903 0.0
Tb72 Tb 1.02046 0.98333 0.61137 0.0
C73 C 0.21662 0.03626 0.49553 0.0
Tb74 Tb 0.12931 0.08687 0.84777 0.0
O75 O 0.96335 0.07874 0.53943 0.0
O76 O 0.08172 0.09377 0.61681 0.0
O77 O 0.14694 0.98908 0.47341 0.0
C78 C 0.16037 0.21164 0.05502 0.0
O79 O 0.22232 0.08536 0.62909 0.0
C80 C 0.12468 0.94059 0.87704 0.0
C81 C 0.93314 0.03399 -0.03646 0.0
O82 O 0.20158 0.15377 0.03846 0.0
O83 O 0.1081 0.20052 -0.06102 0.0
O84 O 0.18628 0.9912 0.91934 0.0
O85 O 0.06807 0.97659 0.84225 0.0
O86 O 1.00282 0.08117 -0.01438 0.0
O87 O 0.92745 0.98486 0.83003 0.0
C88 C 0.98939 0.85855 0.40415 0.0
O89 O 0.94813 0.91638 0.42086 0.0
O90 O 1.04177 0.86971 0.52 0.0
C91 C 1.02487 0.12944 0.58167 0.0
Tb92 Tb 0.54423 0.11183 0.70615 0.0
C93 C 0.70439 0.05961 0.47046 0.0
Tb94 Tb 0.60565 0.95832 0.75305 0.0
O95 O 0.65417 0.17284 0.82654 0.0
O96 O 0.60513 0.06366 0.87633 0.0
O97 O 0.65035 0.10883 0.51511 0.0
C98 C 0.66744 0.8571 0.91229 0.0
O99 O 0.70471 0.99875 0.55518 0.0
C100 C 0.48496 0.95685 0.56003 0.0
C101 C 0.44547 1.0106 -0.01126 0.0
O102 O 0.64681 0.8499 0.75763 0.0
O103 O 0.66095 0.92494 -0.02917 0.0
O104 O 0.49553 0.89744 0.63269 0.0
O105 O 0.54479 1.00649 0.58327 0.0
O106 O 0.49956 0.9614 -0.05579 0.0
O107 O 0.44512 0.07142 0.90391 0.0
C108 C 0.48232 0.21291 0.54666 0.0
O109 O 0.50287 0.22016 0.70138 0.0
O110 O 0.489 0.1451 0.48818 0.0
C111 C 0.66482 0.1135 0.89938 0.0
Tb112 Tb 0.62203 0.60265 0.63063 0.0
C113 C 0.43889 0.52653 0.54036 0.0
Tb114 Tb 0.52724 0.46738 0.82855 0.0
O115 O 0.63565 0.52825 0.40421 0.0
O116 O 0.62254 0.48567 0.63399 0.0
O117 O 0.49404 0.58808 0.54943 0.0
C118 C 0.4828 0.34231 0.00127 0.0
O119 O 0.44233 0.46776 0.62846 0.0
C120 C 0.52554 0.60283 -0.02103 0.0
C121 C 0.71038 0.54355 0.91887 0.0
O122 O 0.43507 0.39196 -0.02533 0.0
O123 O 0.54921 0.35801 0.90008 0.0
O124 O 0.51351 0.54193 0.05493 0.0
O125 O 0.52685 0.58422 0.82516 0.0
O126 O 0.6552 0.48202 0.90994 0.0
O127 O 0.70698 0.60229 0.83064 0.0
C128 C 0.66651 0.72771 0.45784 0.0
O129 O 0.71423 0.67807 0.48457 0.0
O130 O 0.60006 0.712 0.55893 0.0
C131 C 0.62376 0.46732 0.48004 0.0
Tb132 Tb 0.99973 0.55603 0.63044 0.0
C133 C 0.08859 0.40703 0.52248 0.0
Tb134 Tb 0.14968 0.51401 0.82868 0.0
O135 O 0.08835 0.5904 0.42215 0.0
O136 O 0.1294 0.59034 0.65669 0.0
O137 O 1.01963 0.44139 0.52627 0.0
C138 C 0.28499 0.49536 0.00107 0.0
O139 O 0.15372 0.43311 0.61115 0.0
C140 C 0.99493 0.4716 -0.04733 0.0
C141 C 1.06079 0.66302 -0.06331 0.0
O142 O 0.21884 0.44771 -0.0263 0.0
O143 O 0.27768 0.54898 0.90679 0.0
O144 O 1.06091 0.47942 0.03684 0.0
O145 O 1.02018 0.47991 0.8025 0.0
O146 O 0.12973 0.62863 -0.06697 0.0
O147 O 0.99569 0.63697 0.84789 0.0
C148 C 0.86442 0.57467 0.45803 0.0
O149 O 0.93055 0.62233 0.48545 0.0
O150 O 0.87175 0.52104 0.55225 0.0
C151 C 0.15435 0.59839 0.50625 0.0
loop_
_geom_bond_atom_site_label_1
_geom_bond_atom_site_label_2
_geom_bond_distance
_geom_bond_site_symmetry_2
_ccdc_geom_bond_type
H0 C3 0.931 . S
H1 C6 0.928 . S
H2 C8 0.930 . S
C3 H0 0.931 . S
C3 C4 1.413 . S
C3 C5 1.360 1_554 S
C4 C3 1.413 . S
C4 C8 1.429 . S
C5 C3 1.360 1_556 S
C5 C6 1.372 . S
C6 H1 0.928 . S
C6 C5 1.372 . S
C6 C7 1.401 1_556 S
C7 C6 1.401 1_554 S
C7 C8 1.395 . S
C8 H2 0.930 . S
C8 C4 1.429 . S
C8 C7 1.395 . S
H9 C12 0.931 . S
H10 C15 0.928 . S
H11 C17 0.930 . S
C12 H9 0.931 . S
C12 C13 1.413 . S
C12 C14 1.360 1_554 S
C13 C12 1.413 . S
C13 C17 1.429 . S
C14 C12 1.360 1_556 S
C14 C15 1.372 . S
C15 H10 0.928 . S
C15 C14 1.372 . S
C15 C16 1.404 . S
C16 C15 1.404 . S
C16 C17 1.391 1_556 S
C17 H11 0.930 . S
C17 C13 1.429 . S
C17 C16 1.391 1_554 S
H18 C21 0.931 . S
H19 C24 0.928 . S
H20 C26 0.930 . S
C21 H18 0.931 . S
C21 C22 1.411 . S
C21 C23 1.360 . S
C22 C21 1.411 . S
C22 C26 1.430 1_565 S
C23 C21 1.360 . S
C23 C24 1.372 1_554 S
C24 H19 0.928 . S
C24 C23 1.372 1_556 S
C24 C25 1.404 1_556 S
C25 C24 1.404 1_554 S
C25 C26 1.391 1_565 S
C26 H20 0.930 . S
C26 C22 1.430 1_545 S
C26 C25 1.391 1_545 S
H27 C30 0.931 . S
H28 C33 0.928 . S
H29 C35 0.930 . S
C30 H27 0.931 . S
C30 C31 1.413 1_554 S
C30 C32 1.360 . S
C31 C30 1.413 1_556 S
C31 C35 1.429 . S
C32 C30 1.360 . S
C32 C33 1.372 . S
C33 H28 0.928 . S
C33 C32 1.372 . S
C33 C34 1.404 . S
C34 C33 1.404 . S
C34 C35 1.391 1_554 S
C35 H29 0.930 . S
C35 C31 1.429 . S
C35 C34 1.391 1_556 S
H36 C39 0.931 . S
H37 C42 0.928 . S
H38 C44 0.930 . S
C39 H36 0.931 . S
C39 C40 1.413 . S
C39 C41 1.360 . S
C40 C39 1.413 . S
C40 C44 1.429 . S
C41 C39 1.360 . S
C41 C42 1.372 . S
C42 H37 0.928 . S
C42 C41 1.372 . S
C42 C43 1.404 . S
C43 C42 1.404 . S
C43 C44 1.391 . S
C44 H38 0.930 . S
C44 C40 1.429 . S
C44 C43 1.391 . S
H45 C48 0.931 . S
H46 C51 0.928 . S
H47 C53 0.930 . S
C48 H45 0.931 . S
C48 C49 1.413 . S
C48 C50 1.360 . S
C49 C48 1.413 . S
C49 C53 1.429 . S
C50 C48 1.360 . S
C50 C51 1.372 . S
C51 H46 0.928 . S
C51 C50 1.372 . S
C51 C52 1.404 . S
C52 C51 1.404 . S
C52 C53 1.391 . S
C53 H47 0.930 . S
C53 C49 1.429 . S
C53 C52 1.391 . S
H54 C57 0.931 . S
H55 C60 0.928 . S
H56 C62 0.930 . S
C57 H54 0.931 . S
C57 C58 1.413 . S
C57 C59 1.360 . S
C58 C57 1.413 . S
C58 C62 1.429 . S
C59 C57 1.360 . S
C59 C60 1.372 . S
C60 H55 0.928 . S
C60 C59 1.372 . S
C60 C61 1.404 . S
C61 C60 1.404 . S
C61 C62 1.391 . S
C62 H56 0.930 . S
C62 C58 1.429 . S
C62 C61 1.391 . S
H63 C66 0.931 . S
H64 C69 0.928 . S
H65 C71 0.930 . S
C66 H63 0.931 . S
C66 C67 1.413 . S
C66 C68 1.360 . S
C67 C66 1.413 . S
C67 C71 1.429 . S
C68 C66 1.360 . S
C68 C69 1.372 . S
C69 H64 0.928 . S
C69 C68 1.372 . S
C69 C70 1.404 . S
C70 C69 1.404 . S
C70 C71 1.391 . S
C71 H65 0.930 . S
C71 C67 1.429 . S
C71 C70 1.391 . S
Tb72 O75 2.453 1_655 S
Tb72 O76 2.596 1_655 S
Tb72 O77 2.374 1_645 S
Tb72 O85 2.343 1_545 S
Tb72 O87 2.353 . S
Tb72 O89 2.427 1_545 S
Tb72 O90 2.513 1_545 S
C73 O77 1.251 . S
C73 O79 1.263 . S
Tb74 O76 2.343 1_554 S
Tb74 O79 2.353 1_544 S
Tb74 O82 2.427 . S
Tb74 O83 2.513 . S
Tb74 O84 2.453 1_545 S
Tb74 O85 2.596 1_444 S
Tb74 O86 2.374 1_455 S
O75 Tb72 2.453 1_455 S
O75 C91 1.245 . S
O76 Tb72 2.596 1_455 S
O76 Tb74 2.343 1_556 S
O76 C91 1.259 . S
O77 Tb72 2.374 1_465 S
O77 C73 1.251 . S
C78 O82 1.275 . S
C78 O83 1.246 . S
O79 C73 1.263 . S
O79 Tb74 2.353 1_566 S
C80 O84 1.245 1_656 S
C80 O85 1.259 . S
C81 O86 1.250 1_556 S
C81 O87 1.263 . S
O82 Tb74 2.427 . S
O82 C78 1.275 . S
O83 Tb74 2.513 . S
O83 C78 1.246 . S
O84 Tb74 2.453 1_565 S
O84 C80 1.245 1_454 S
O85 Tb72 2.343 1_565 S
O85 Tb74 2.596 1_666 S
O85 C80 1.259 . S
O86 Tb74 2.374 1_655 S
O86 C81 1.250 1_554 S
O87 Tb72 2.353 . S
O87 C81 1.263 . S
C88 O89 1.275 . S
C88 O90 1.246 . S
O89 Tb72 2.427 1_565 S
O89 C88 1.275 . S
O90 Tb72 2.513 1_565 S
O90 C88 1.246 . S
C91 O75 1.245 . S
C91 O76 1.259 . S
Tb92 O95 2.453 1_556 S
Tb92 O96 2.596 1_545 S
Tb92 O97 2.374 . S
Tb92 O105 2.343 . S
Tb92 O107 2.353 1_556 S
Tb92 O109 2.427 . S
Tb92 O110 2.513 . S
C93 O97 1.251 . S
C93 O99 1.263 1_545 S
Tb94 O96 2.343 . S
Tb94 O99 2.353 . S
Tb94 O102 2.427 . S
Tb94 O103 2.513 1_556 S
Tb94 O104 2.453 . S
Tb94 O105 2.596 1_565 S
Tb94 O106 2.374 1_556 S
O95 Tb92 2.453 1_554 S
O95 C111 1.245 1_554 S
O96 Tb92 2.596 1_565 S
O96 Tb94 2.343 . S
O96 C111 1.259 1_565 S
O97 Tb92 2.374 . S
O97 C93 1.251 . S
C98 O102 1.275 . S
C98 O103 1.246 1_556 S
O99 C93 1.263 1_565 S
O99 Tb94 2.353 . S
C100 O104 1.245 . S
C100 O105 1.259 1_565 S
C101 O106 1.250 1_545 S
C101 O107 1.263 . S
O102 Tb94 2.427 . S
O102 C98 1.275 . S
O103 Tb94 2.513 1_554 S
O103 C98 1.246 1_554 S
O104 Tb94 2.453 . S
O104 C100 1.245 . S
O105 Tb92 2.343 . S
O105 Tb94 2.596 1_545 S
O105 C100 1.259 1_545 S
O106 Tb94 2.374 1_554 S
O106 C101 1.250 1_565 S
O107 Tb92 2.353 1_554 S
O107 C101 1.263 . S
C108 O109 1.275 . S
C108 O110 1.246 . S
O109 Tb92 2.427 . S
O109 C108 1.275 . S
O110 Tb92 2.513 . S
O110 C108 1.246 . S
C111 O95 1.245 1_556 S
C111 O96 1.259 1_545 S
Tb112 O115 2.453 . S
Tb112 O116 2.596 . S
Tb112 O117 2.374 . S
Tb112 O125 2.343 . S
Tb112 O127 2.353 . S
Tb112 O129 2.427 . S
Tb112 O130 2.513 . S
C113 O117 1.251 . S
C113 O119 1.263 . S
Tb114 O116 2.343 1_554 S
Tb114 O119 2.353 1_554 S
Tb114 O122 2.427 . S
Tb114 O123 2.513 . S
Tb114 O124 2.453 . S
Tb114 O125 2.596 1_554 S
Tb114 O126 2.374 . S
O115 Tb112 2.453 . S
O115 C131 1.245 . S
O116 Tb112 2.596 . S
O116 Tb114 2.343 1_556 S
O116 C131 1.259 . S
O117 Tb112 2.374 . S
O117 C113 1.251 . S
C118 O122 1.275 . S
C118 O123 1.246 . S
O119 C113 1.263 . S
O119 Tb114 2.353 1_556 S
C120 O124 1.245 1_556 S
C120 O125 1.259 . S
C121 O126 1.250 1_556 S
C121 O127 1.263 . S
O122 Tb114 2.427 . S
O122 C118 1.275 . S
O123 Tb114 2.513 . S
O123 C118 1.246 . S
O124 Tb114 2.453 . S
O124 C120 1.245 1_554 S
O125 Tb112 2.343 . S
O125 Tb114 2.596 1_556 S
O125 C120 1.259 . S
O126 Tb114 2.374 . S
O126 C121 1.250 1_554 S
O127 Tb112 2.353 . S
O127 C121 1.263 . S
C128 O129 1.275 . S
C128 O130 1.246 . S
O129 Tb112 2.427 . S
O129 C128 1.275 . S
O130 Tb112 2.513 . S
O130 C128 1.246 . S
C131 O115 1.245 . S
C131 O116 1.259 . S
Tb132 O135 2.453 1_655 S
Tb132 O136 2.596 1_655 S
Tb132 O137 2.374 1_655 S
Tb132 O145 2.343 . S
Tb132 O147 2.353 . S
Tb132 O149 2.427 . S
Tb132 O150 2.513 . S
C133 O137 1.251 . S
C133 O139 1.263 . S
Tb134 O136 2.343 1_554 S
Tb134 O139 2.353 1_554 S
Tb134 O142 2.427 . S
Tb134 O143 2.513 . S
Tb134 O144 2.453 1_455 S
Tb134 O145 2.596 1_454 S
Tb134 O146 2.374 1_455 S
O135 Tb132 2.453 1_455 S
O135 C151 1.245 . S
O136 Tb132 2.596 1_455 S
O136 Tb134 2.343 1_556 S
O136 C151 1.259 . S
O137 Tb132 2.374 1_455 S
O137 C133 1.251 . S
C138 O142 1.275 . S
C138 O143 1.246 . S
O139 C133 1.263 . S
O139 Tb134 2.353 1_556 S
C140 O144 1.245 1_556 S
C140 O145 1.259 . S
C141 O146 1.250 1_556 S
C141 O147 1.263 . S
O142 Tb134 2.427 . S
O142 C138 1.275 . S
O143 Tb134 2.513 . S
O143 C138 1.246 . S
O144 Tb134 2.453 1_655 S
O144 C140 1.245 1_554 S
O145 Tb132 2.343 . S
O145 Tb134 2.596 1_656 S
O145 C140 1.259 . S
O146 Tb134 2.374 1_655 S
O146 C141 1.250 1_554 S
O147 Tb132 2.353 . S
O147 C141 1.263 . S
C148 O149 1.275 . S
C148 O150 1.246 . S
O149 Tb132 2.427 . S
O149 C148 1.275 . S
O150 Tb132 2.513 . S
O150 C148 1.246 . S
C151 O135 1.245 . S
C151 O136 1.259 . S
C61 C73 1.628 1_545 S
C108 C70 1.934 . S
C113 C43 1.345 . S
C133 C52 1.810 . S
C81 C25 1.637 1_546 S
C34 C98 1.909 1_554 S
C7 C121 1.339 1_554 S
C16 C141 1.831 . S
C91 C50 1.800 . S
C100 C59 1.110 1_565 S
C131 C67 1.830 . S
C41 C151 1.006 . S
C14 C80 1.832 . S
C111 C23 1.131 1_546 S
C120 C31 1.810 . S
C5 C140 0.997 . S
C49 C78 1.542 . S
C58 C101 1.733 . S
C118 C68 1.673 . S
C138 C40 1.625 . S
C13 C88 1.549 . S
C93 C22 1.733 1_545 S
C128 C32 1.658 . S
C4 C148 1.621 . S
