# Generated by pormake.
# Topology scu, (8,4)-cn, num edge types: 1
# Building blocks:
#     Node 0, Type 0, BuildingBlock: VETTIZ_charged_sbu_0, # of connection points: 8
#     Node 1, Type 1, BuildingBlock: IZENUY_clean_linker_0, # of connection points: 4
#     Node 2, Type 1, BuildingBlock: IZENUY_clean_linker_0, # of connection points: 4
#     Edge 3, Type (0, 1), None
#     Edge 4, Type (0, 1), None
#     Edge 5, Type (0, 1), None
#     Edge 6, Type (0, 1), None
#     Edge 7, Type (0, 1), None
#     Edge 8, Type (0, 1), None
#     Edge 9, Type (0, 1), None
#     Edge 10, Type (0, 1), None
# Relax obj value: 0.029
# Max RMSD: 0.128
# Mean RMSD: 0.109
data_MOF--net-scu--node1-VETTIZ_charged_sbu_0--node2-IZENUY_clean_linker_0--edge1-none
_symmetry_space_group_name_H-M    P1
_symmetry_Int_Tables_number       1
_symmetry_cell_setting            triclinic
loop_
_symmetry_equiv_pos_as_xyz
'x, y, z'
_cell_length_a     15.066463
_cell_length_b     15.06646
_cell_length_c     9.5099309
_cell_angle_alpha  93.646137
_cell_angle_beta   86.353813
_cell_angle_gamma 96.842919
loop_
_atom_site_label
_atom_site_type_symbol
_atom_site_fract_x
_atom_site_fract_y
_atom_site_fract_z
_atom_type_partial_charge
Fe0 Fe 0.02354 0.02494 0.17504 0.0
O1 O 0.95496 0.06652 0.02546 0.0
Fe2 Fe 0.16405 0.88431 0.97653 0.0
Fe3 Fe 0.88286 0.16549 0.03344 0.0
O4 O 0.0922 0.98353 1.00325 0.0
O5 O 0.06507 0.95641 0.98451 0.0
O6 O 0.98209 0.09365 0.00672 0.0
Fe7 Fe 0.02349 0.02498 0.83493 0.0
C8 C 0.84861 0.06485 0.31697 0.0
O9 O 0.08037 0.15963 0.19546 0.0
O10 O 0.96292 0.23947 0.17698 0.0
O11 O 0.15819 0.08181 0.81451 0.0
O12 O 0.23803 0.96436 0.83298 0.0
O13 O 0.22847 0.95303 0.15166 0.0
O14 O 0.11554 0.99317 0.30426 0.0
O15 O 0.95159 0.22992 0.85831 0.0
O16 O 0.99173 0.11699 0.7057 0.0
C17 C 0.19844 0.98463 0.27358 0.0
O18 O 0.05507 0.93299 0.68068 0.0
O19 O 0.09509 0.82001 0.80241 0.0
O20 O 0.93154 0.05651 0.32929 0.0
O21 O 0.81856 0.09653 0.20756 0.0
C22 C 0.03732 0.22814 0.22916 0.0
C23 C 0.98319 0.19988 0.73639 0.0
C24 C 0.82028 1.01105 0.81929 0.0
O25 O 0.80889 0.08545 0.88866 0.0
O26 O 0.88881 0.96808 0.83065 0.0
C27 C 0.2267 0.03876 0.78081 0.0
O28 O 0.084 0.81033 0.12131 0.0
O29 O 0.96664 0.89026 0.17931 0.0
C30 C 0.06341 0.85006 0.693 0.0
C31 C 1.00961 0.82173 0.19068 0.0
H32 H 0.05214 0.40693 0.29346 0.0
H33 H 0.99006 0.38529 0.73993 0.0
H34 H 0.0422 0.15326 0.47193 0.0
H35 H 0.0554 0.66476 0.66136 0.0
H36 H 0.99523 0.64203 0.2231 0.0
H37 H 1.00483 0.89681 0.44955 0.0
N38 N 0.02203 0.50216 0.53936 0.0
N39 N 0.02181 0.54797 0.43464 0.0
C40 C 0.04529 0.36776 0.38604 0.0
C41 C 0.05053 0.27564 0.3683 0.0
C42 C 0.0271 0.4084 0.5212 0.0
C43 C 1.00852 0.35467 0.63775 0.0
C44 C 1.01108 0.26151 0.62069 0.0
C45 C 0.03844 0.22448 0.48713 0.0
C46 C 0.03708 0.69515 0.5688 0.0
C47 C 0.03523 0.78842 0.57067 0.0
C48 C 1.01801 0.6417 0.44444 0.0
C49 C 1.00131 0.68221 0.32148 0.0
C50 C 0.99635 0.77435 0.323 0.0
C51 C 1.00831 0.82556 0.44978 0.0
H52 H 0.66332 0.05685 0.34861 0.0
H53 H 0.64058 0.99667 0.78687 0.0
H54 H 0.89537 1.00627 0.56042 0.0
H55 H 0.40549 0.05359 0.71651 0.0
H56 H 0.38385 0.99151 0.27003 0.0
H57 H 0.15182 0.04364 0.53804 0.0
N58 N 0.54652 0.02326 0.57533 0.0
N59 N 0.50072 0.02347 0.47061 0.0
C60 C 0.6937 0.03852 0.44117 0.0
C61 C 0.78698 0.03668 0.4393 0.0
C62 C 0.64026 1.01945 0.56553 0.0
C63 C 0.68077 1.00275 0.68849 0.0
C64 C 0.77291 0.99779 0.68697 0.0
C65 C 0.82411 1.00975 0.56019 0.0
C66 C 0.36631 0.04674 0.62392 0.0
C67 C 0.2742 0.05198 0.64167 0.0
C68 C 0.40696 0.02854 0.48877 0.0
C69 C 0.35323 1.00996 0.37222 0.0
C70 C 0.26007 1.01252 0.38928 0.0
C71 C 0.22304 0.03988 0.52284 0.0
loop_
_geom_bond_atom_site_label_1
_geom_bond_atom_site_label_2
_geom_bond_distance
_geom_bond_site_symmetry_2
_ccdc_geom_bond_type
Fe0 O1 1.886 . S
Fe0 O4 1.715 1_645 S
Fe0 O9 2.077 . S
Fe0 O14 1.935 1_655 S
Fe0 O20 2.077 . S
Fe0 O29 1.935 1_545 S
O1 Fe0 1.886 . S
O1 Fe3 1.715 . S
Fe2 O4 1.886 1_556 S
Fe2 O5 1.715 . S
Fe2 O12 1.935 . S
Fe2 O13 2.077 1_556 S
Fe2 O19 1.935 . S
Fe2 O28 2.077 1_556 S
Fe3 O1 1.715 . S
Fe3 O6 1.886 1_554 S
Fe3 O10 1.935 . S
Fe3 O15 2.077 1_554 S
Fe3 O21 1.935 . S
Fe3 O25 2.077 1_554 S
O4 Fe0 1.715 1_465 S
O4 Fe2 1.886 1_554 S
O5 Fe2 1.715 . S
O5 Fe7 1.886 . S
O6 Fe3 1.886 1_556 S
O6 Fe7 1.715 1_645 S
Fe7 O5 1.886 . S
Fe7 O6 1.715 1_465 S
Fe7 O11 2.077 . S
Fe7 O16 1.935 1_565 S
Fe7 O18 2.077 . S
Fe7 O26 1.935 1_455 S
C8 O20 1.381 . S
C8 O21 1.421 . S
O9 Fe0 2.077 . S
O9 C22 1.382 . S
O10 Fe3 1.935 . S
O10 C22 1.421 . S
O11 Fe7 2.077 . S
O11 C27 1.382 . S
O12 Fe2 1.935 . S
O12 C27 1.421 . S
O13 Fe2 2.077 1_554 S
O13 C17 1.381 . S
O14 Fe0 1.935 1_455 S
O14 C17 1.421 1_545 S
O15 Fe3 2.077 1_556 S
O15 C23 1.381 . S
O16 Fe7 1.935 1_545 S
O16 C23 1.421 1_455 S
C17 O13 1.381 . S
C17 O14 1.421 1_565 S
O18 Fe7 2.077 . S
O18 C30 1.381 . S
O19 Fe2 1.935 . S
O19 C30 1.421 . S
O20 Fe0 2.077 . S
O20 C8 1.381 . S
O21 Fe3 1.935 . S
O21 C8 1.421 . S
C22 O9 1.382 . S
C22 O10 1.421 . S
C23 O15 1.381 . S
C23 O16 1.421 1_655 S
C24 O25 1.381 . S
C24 O26 1.421 1_545 S
O25 Fe3 2.077 1_556 S
O25 C24 1.381 . S
O26 Fe7 1.935 1_655 S
O26 C24 1.421 1_565 S
C27 O11 1.382 . S
C27 O12 1.421 . S
O28 Fe2 2.077 1_554 S
O28 C31 1.381 . S
O29 Fe0 1.935 1_565 S
O29 C31 1.421 1_655 S
C30 O18 1.381 . S
C30 O19 1.421 . S
C31 O28 1.381 . S
C31 O29 1.421 1_455 S
H32 C40 0.940 . S
H33 C43 0.940 . S
H34 C45 0.940 . S
H35 C46 0.940 . S
H36 C49 0.940 . S
H37 C51 0.940 . S
N38 N39 1.190 . S
N38 C42 1.477 . S
N39 N38 1.190 . S
N39 C48 1.477 . S
C40 H32 0.940 . S
C40 C41 1.390 1_455 S
C40 C42 1.322 . S
C41 C40 1.390 1_655 S
C41 C45 1.370 . S
C42 N38 1.477 . S
C42 C40 1.322 . S
C42 C43 1.447 . S
C43 H33 0.940 . S
C43 C42 1.447 . S
C43 C44 1.373 . S
C44 C43 1.373 . S
C44 C45 1.417 1_455 S
C45 H34 0.940 . S
C45 C41 1.370 . S
C45 C44 1.417 1_655 S
C46 H35 0.940 . S
C46 C47 1.390 1_455 S
C46 C48 1.322 . S
C47 C46 1.390 1_655 S
C47 C51 1.370 . S
C48 N39 1.477 . S
C48 C46 1.322 . S
C48 C49 1.447 . S
C49 H36 0.940 . S
C49 C48 1.447 . S
C49 C50 1.373 . S
C50 C49 1.373 . S
C50 C51 1.417 1_455 S
C51 H37 0.940 . S
C51 C47 1.370 . S
C51 C50 1.417 1_655 S
H52 C60 0.940 . S
H53 C63 0.940 . S
H54 C65 0.940 . S
H55 C66 0.940 . S
H56 C69 0.940 . S
H57 C71 0.940 . S
N58 N59 1.190 . S
N58 C62 1.477 . S
N59 N58 1.190 . S
N59 C68 1.477 . S
C60 H52 0.940 . S
C60 C61 1.390 1_545 S
C60 C62 1.322 . S
C61 C60 1.390 1_565 S
C61 C65 1.370 . S
C62 N58 1.477 . S
C62 C60 1.322 . S
C62 C63 1.447 . S
C63 H53 0.940 . S
C63 C62 1.447 . S
C63 C64 1.373 . S
C64 C63 1.373 . S
C64 C65 1.417 1_545 S
C65 H54 0.940 . S
C65 C61 1.370 . S
C65 C64 1.417 1_565 S
C66 H55 0.940 . S
C66 C67 1.390 1_545 S
C66 C68 1.322 . S
C67 C66 1.390 1_565 S
C67 C71 1.370 . S
C68 N59 1.477 . S
C68 C66 1.322 . S
C68 C69 1.447 . S
C69 H56 0.940 . S
C69 C68 1.447 . S
C69 C70 1.373 . S
C70 C69 1.373 . S
C70 C71 1.417 1_545 S
C71 H57 0.940 . S
C71 C67 1.370 . S
C71 C70 1.417 1_565 S
C22 C41 1.578 . S
C8 C61 1.605 1_545 S
C31 C50 1.499 . S
C17 C70 1.544 1_565 S
C30 C47 1.606 1_455 S
C27 C67 1.579 . S
C44 C23 1.545 1_455 S
C24 C64 1.501 . S
