# Generated by pormake.
# Topology rtl, (3,6)-cn, num edge types: 1
# Building blocks:
#     Node 0, Type 0, BuildingBlock: CUQRIR_clean_linker_1, # of connection points: 3
#     Node 1, Type 0, BuildingBlock: CUQRIR_clean_linker_1, # of connection points: 3
#     Node 2, Type 0, BuildingBlock: CUQRIR_clean_linker_1, # of connection points: 3
#     Node 3, Type 0, BuildingBlock: CUQRIR_clean_linker_1, # of connection points: 3
#     Node 4, Type 1, BuildingBlock: KUMJIN_clean_sbu_1, # of connection points: 6
#     Node 5, Type 1, BuildingBlock: KUMJIN_clean_sbu_1, # of connection points: 6
#     Edge 6, Type (0, 1), None
#     Edge 7, Type (0, 1), None
#     Edge 8, Type (0, 1), None
#     Edge 9, Type (0, 1), None
#     Edge 10, Type (0, 1), None
#     Edge 11, Type (0, 1), None
#     Edge 12, Type (0, 1), None
#     Edge 13, Type (0, 1), None
#     Edge 14, Type (0, 1), None
#     Edge 15, Type (0, 1), None
#     Edge 16, Type (0, 1), None
#     Edge 17, Type (0, 1), None
# Relax obj value: 0.072
# Max RMSD: 0.317
# Mean RMSD: 0.233
data_MOF--net-rtl--node1-KUMJIN_clean_sbu_1--node2-CUQRIR_clean_linker_1--edge1-none
_symmetry_space_group_name_H-M    P1
_symmetry_Int_Tables_number       1
_symmetry_cell_setting            triclinic
loop_
_symmetry_equiv_pos_as_xyz
'x, y, z'
_cell_length_a     14.308433
_cell_length_b     15.042195
_cell_length_c     12.14032
_cell_angle_alpha  61.876796
_cell_angle_beta   92.533881
_cell_angle_gamma 91.714081
loop_
_atom_site_label
_atom_site_type_symbol
_atom_site_fract_x
_atom_site_fract_y
_atom_site_fract_z
_atom_type_partial_charge
C0 C 0.26554 0.78948 0.9027 0.0
N1 N 0.18438 0.83146 0.91461 0.0
N2 N 0.30592 0.7256 0.01646 0.0
C3 C 0.33065 0.84936 0.80048 0.0
C4 C 0.25738 0.74643 0.09516 0.0
N5 N 0.18417 0.80899 0.03605 0.0
C6 C 0.27764 0.70095 0.23304 0.0
H7 H 0.37492 0.79847 0.78362 0.0
H8 H 0.3797 0.8915 0.83289 0.0
H9 H 0.29385 0.90612 0.7169 0.0
H10 H 0.23749 0.73552 0.27877 0.0
H11 H 0.35284 0.71044 0.25127 0.0
H12 H 0.25939 0.61993 0.27494 0.0
C13 C 0.69258 0.80233 0.8097 0.0
N14 N 0.64517 0.71673 0.82201 0.0
N15 N 0.75477 0.83628 0.71404 0.0
C16 C 0.64295 0.87962 0.83044 0.0
C17 C 0.72766 0.78406 0.65293 0.0
N18 N 0.66733 0.70869 0.72123 0.0
C19 C 0.73434 0.8265 0.51237 0.0
H20 H 0.60034 0.92659 0.74459 0.0
H21 H 0.69281 0.93185 0.84323 0.0
H22 H 0.59354 0.84563 0.90697 0.0
H23 H 0.75532 0.76748 0.48834 0.0
H24 H 0.78141 0.89248 0.46789 0.0
H25 H 0.66462 0.85453 0.46779 0.0
C26 C 0.71129 0.19815 0.38094 0.0
N27 N 0.79429 0.16515 0.35926 0.0
N28 N 0.6623 0.25383 0.2709 0.0
C29 C 0.65357 0.12736 0.48937 0.0
C30 C 0.70315 0.22755 0.19243 0.0
N31 N 0.78599 0.18149 0.24029 0.0
C32 C 0.66565 0.25129 0.06315 0.0
H33 H 0.61004 0.07973 0.4593 0.0
H34 H 0.60336 0.16922 0.51388 0.0
H35 H 0.69593 0.07443 0.57111 0.0
H36 H 0.67595 0.33253 0.0009 0.0
H37 H 0.59115 0.23202 0.06325 0.0
H38 H 0.70083 0.20819 0.02425 0.0
C39 C 0.25065 0.25699 0.41305 0.0
N40 N 0.33437 0.30182 0.41919 0.0
N41 N 0.22417 0.18625 0.52874 0.0
C42 C 0.17786 0.30804 0.31135 0.0
C43 C 0.29173 0.19601 0.6051 0.0
N44 N 0.35281 0.27248 0.53986 0.0
C45 C 0.31193 0.11862 0.7388 0.0
H46 H 0.19971 0.38398 0.24074 0.0
H47 H 0.1135 0.3183 0.35188 0.0
H48 H 0.15837 0.25733 0.27167 0.0
H49 H 0.26799 0.04995 0.76857 0.0
H50 H 0.30285 0.15118 0.80245 0.0
H51 H 0.38638 0.09638 0.74933 0.0
Eu52 Eu 0.03529 0.96015 0.5102 0.0
C53 C 0.00113 0.30335 0.60322 0.0
N54 N 0.04372 0.21829 0.68883 0.0
C55 C 0.16715 0.31664 0.71933 0.0
C56 C 0.04394 0.39836 0.56527 0.0
C57 C 0.12067 0.22468 0.75581 0.0
C58 C 0.13128 0.403 0.61814 0.0
C59 C 0.85353 0.38377 0.51696 0.0
C60 C 0.90698 0.29658 0.57872 0.0
C61 C 0.89665 0.47857 0.4696 0.0
C62 C 0.99262 0.48592 0.49244 0.0
Eu63 Eu 0.95964 0.06577 0.74427 0.0
N64 N 0.86436 0.2056 0.63983 0.0
C65 C 0.75684 0.37302 0.517 0.0
C66 C 0.77021 0.19794 0.65706 0.0
C67 C 0.71452 0.28098 0.59121 0.0
H68 H 0.14716 0.15788 0.83575 0.0
H69 H 0.63928 0.27353 0.59681 0.0
H70 H 0.89422 0.75135 0.60112 0.0
H71 H 0.41358 0.99833 0.4607 0.0
H72 H 0.73767 0.12593 0.7152 0.0
H73 H 0.71405 0.4356 0.46271 0.0
H74 H 0.25164 0.06171 0.42797 0.0
H75 H 0.22926 0.32109 0.77061 0.0
H76 H 0.8542 0.5456 0.42676 0.0
H77 H 0.02438 0.55891 0.46634 0.0
H78 H 0.91153 0.57056 0.68917 0.0
H79 H 0.16593 0.47472 0.59092 0.0
H80 H 0.44145 0.81493 0.56602 0.0
N81 N 0.03895 0.78443 0.60207 0.0
C82 C 0.12633 0.74792 0.61362 0.0
C83 C 0.97259 0.61912 0.67071 0.0
C84 C 0.13963 0.64378 0.66391 0.0
C85 C 0.96273 0.72241 0.62384 0.0
C86 C 0.06165 0.57933 0.69297 0.0
N87 N 0.1907 0.91513 0.52134 0.0
C88 C 0.26371 0.98171 0.47577 0.0
C89 C 0.2942 0.77589 0.59468 0.0
C90 C 0.20353 0.81415 0.57366 0.0
C91 C 0.37046 0.84264 0.55025 0.0
C92 C 0.35501 0.94622 0.49055 0.0
H93 H 0.06916 0.49858 0.73522 0.0
H94 H 0.23949 0.52631 0.73734 0.0
H95 H 0.3731 0.64642 0.71501 0.0
O96 O 0.10258 0.97826 0.33868 0.0
O97 O 0.12368 0.90031 0.70322 0.0
O98 O 0.04271 0.91985 0.85132 0.0
O99 O 0.95896 0.93491 0.36788 0.0
O100 O 0.09455 0.1137 0.47432 0.0
O101 O 0.11149 0.08879 0.6744 0.0
O102 O 0.85715 0.05682 0.87849 0.0
O103 O 0.86466 0.10441 0.56264 0.0
O104 O 0.94673 0.10079 0.40622 0.0
O105 O 9e-05 0.05946 0.92576 0.0
O106 O 0.85408 0.94349 0.7586 0.0
O107 O 0.89311 0.90237 0.60546 0.0
C108 C 0.1156 0.88504 0.82104 0.0
C109 C 0.04035 0.87427 0.24755 0.0
C110 C 0.10752 0.81486 0.10734 0.0
C111 C 0.05132 0.7291 0.16378 0.0
C112 C 0.97913 0.79094 0.29008 0.0
C113 C 0.98513 0.72007 0.24836 0.0
C114 C 0.10509 0.88638 0.15387 0.0
C115 C 0.1423 0.12858 0.55958 0.0
C116 C 0.02964 0.94853 0.29716 0.0
C117 C 0.23008 0.60658 0.6915 0.0
C118 C 0.30619 0.67293 0.6689 0.0
C119 C 0.86996 0.12204 0.44421 0.0
C120 C 0.89644 0.14062 0.99589 0.0
C121 C 0.85665 0.19371 0.1521 0.0
C122 C 0.87021 0.29417 0.05848 0.0
C123 C 0.89801 0.24168 0.90436 0.0
C124 C 0.87066 0.11631 0.11885 0.0
C125 C 0.88361 0.31778 0.93478 0.0
C126 C 0.83488 0.89718 0.6911 0.0
C127 C 0.91602 0.06306 0.95799 0.0
H128 H 0.05862 0.66853 0.14055 0.0
H129 H 0.92587 0.77957 0.35624 0.0
H130 H 0.9362 0.6586 0.2785 0.0
H131 H 0.15505 0.9478 0.12019 0.0
H132 H 0.8526 0.35541 0.0754 0.0
H133 H 0.91236 0.26237 0.80976 0.0
H134 H 0.85275 0.03927 0.1835 0.0
H135 H 0.88435 0.3956 0.86264 0.0
Eu136 Eu 0.43835 0.45302 0.02201 0.0
C137 C 0.75981 0.63267 0.11849 0.0
N138 N 0.71909 0.54001 0.18189 0.0
C139 C 0.86625 0.46494 0.18511 0.0
C140 C 0.84858 0.64348 0.06808 0.0
C141 C 0.77533 0.45739 0.22532 0.0
C142 C 0.90027 0.55768 0.09829 0.0
C143 C 0.76681 0.80745 0.07484 0.0
C144 C 0.71703 0.71665 0.1136 0.0
C145 C 0.8529 0.81776 0.01936 0.0
C146 C 0.88836 0.73908 0.00385 0.0
Eu147 Eu 0.56033 0.54825 0.2319 0.0
N148 N 0.62739 0.70869 0.1495 0.0
C149 C 0.72624 0.88547 0.0883 0.0
C150 C 0.58467 0.78635 0.15493 0.0
C151 C 0.63436 0.87527 0.12727 0.0
H152 H 0.75567 0.38637 0.29847 0.0
H153 H 0.60185 0.93589 0.13538 0.0
H154 H 0.24315 0.60734 0.93014 0.0
H155 H 0.45394 0.04151 0.2486 0.0
H156 H 0.51376 0.77748 0.18603 0.0
H157 H 0.76337 0.95476 0.06618 0.0
H158 H 0.50802 0.20382 0.22172 0.0
H159 H 0.91065 0.39932 0.22333 0.0
H160 H 0.89485 0.88415 0.9906 0.0
H161 H 0.95382 0.74928 0.95778 0.0
H162 H 0.07733 0.58761 0.9297 0.0
H163 H 0.97081 0.56338 0.06837 0.0
H164 H 0.29154 0.0208 0.18704 0.0
N165 N 0.27386 0.45069 0.01247 0.0
C166 C 0.2369 0.35777 0.04263 0.0
C167 C 0.12084 0.52157 0.9655 0.0
C168 C 0.14052 0.34551 0.0276 0.0
C169 C 0.21701 0.5323 0.97047 0.0
C170 C 0.08225 0.42801 0.99382 0.0
N171 N 0.38509 0.28345 0.12737 0.0
C172 C 0.43951 0.20001 0.18855 0.0
C173 C 0.25827 0.17798 0.11869 0.0
C174 C 0.29471 0.2732 0.09541 0.0
C175 C 0.31683 0.09462 0.17017 0.0
C176 C 0.40795 0.1058 0.20603 0.0
H177 H 0.00786 0.42273 0.98555 0.0
H178 H 0.03373 0.23665 0.04942 0.0
H179 H 0.13429 0.09741 0.10725 0.0
O180 O 0.36828 0.45086 0.86571 0.0
O181 O 0.36538 0.39279 0.20723 0.0
O182 O 0.46941 0.40596 0.34894 0.0
O183 O 0.50191 0.3811 0.91867 0.0
O184 O 0.57905 0.38851 0.11555 0.0
O185 O 0.59286 0.37859 0.30675 0.0
O186 O 0.64875 0.58522 0.35486 0.0
O187 O 0.57246 0.66026 0.01745 0.0
O188 O 0.54691 0.57299 0.90766 0.0
O189 O 0.50101 0.58063 0.37306 0.0
O190 O 0.41287 0.60956 0.16171 0.0
O191 O 0.39806 0.61921 0.96833 0.0
C192 C 0.39017 0.36966 0.32274 0.0
C193 C 0.42867 0.4115 0.72019 0.0
C194 C 0.3714 0.34967 0.57704 0.0
C195 C 0.3329 0.44581 0.50084 0.0
C196 C 0.40933 0.50845 0.62774 0.0
C197 C 0.35307 0.52486 0.52583 0.0
C198 C 0.41583 0.33098 0.69213 0.0
C199 C 0.60336 0.33608 0.23448 0.0
C200 C 0.42702 0.39531 0.8486 0.0
C201 C 0.10568 0.25032 0.05342 0.0
C202 C 0.16416 0.1685 0.09225 0.0
C203 C 0.5878 0.64865 0.91795 0.0
C204 C 0.60051 0.56965 0.54392 0.0
C205 C 0.6464 0.62608 0.69573 0.0
C206 C 0.68381 0.53048 0.77455 0.0
C207 C 0.62683 0.47226 0.62949 0.0
C208 C 0.60428 0.6447 0.58046 0.0
C209 C 0.67181 0.45308 0.74222 0.0
C210 C 0.37612 0.65352 0.04719 0.0
C211 C 0.58145 0.59842 0.41228 0.0
H212 H 0.28739 0.45983 0.4211 0.0
H213 H 0.43406 0.57094 0.63905 0.0
H214 H 0.32737 0.59947 0.46638 0.0
H215 H 0.43538 0.25555 0.76089 0.0
H216 H 0.72192 0.51636 0.86025 0.0
H217 H 0.6103 0.41168 0.60907 0.0
H218 H 0.57719 0.71842 0.51696 0.0
H219 H 0.69847 0.37859 0.8022 0.0
loop_
_geom_bond_atom_site_label_1
_geom_bond_atom_site_label_2
_geom_bond_distance
_geom_bond_site_symmetry_2
_ccdc_geom_bond_type
C0 N1 1.317 . S
C0 N2 1.348 1_556 S
C0 C3 1.485 . S
N1 C0 1.317 . S
N1 N5 1.370 1_556 S
N2 C0 1.348 1_554 S
N2 C4 1.346 . S
C3 C0 1.485 . S
C3 H7 0.960 . S
C3 H8 0.961 . S
C3 H9 0.960 . S
C4 N2 1.346 . S
C4 N5 1.307 . S
C4 C6 1.486 . S
N5 N1 1.370 1_554 S
N5 C4 1.307 . S
C6 C4 1.486 . S
C6 H10 0.960 . S
C6 H11 0.960 . S
C6 H12 0.959 . S
H7 C3 0.960 . S
H8 C3 0.961 . S
H9 C3 0.960 . S
H10 C6 0.960 . S
H11 C6 0.960 . S
H12 C6 0.959 . S
C13 N14 1.317 . S
C13 N15 1.348 . S
C13 C16 1.485 . S
N14 C13 1.317 . S
N14 N18 1.370 . S
N15 C13 1.348 . S
N15 C17 1.346 . S
C16 C13 1.485 . S
C16 H20 0.960 . S
C16 H21 0.961 . S
C16 H22 0.960 1_556 S
C17 N15 1.346 . S
C17 N18 1.307 . S
C17 C19 1.486 . S
N18 N14 1.370 . S
N18 C17 1.307 . S
C19 C17 1.486 . S
C19 H23 0.960 . S
C19 H24 0.960 . S
C19 H25 0.959 . S
H20 C16 0.960 . S
H21 C16 0.961 . S
H22 C16 0.960 1_554 S
H23 C19 0.960 . S
H24 C19 0.960 . S
H25 C19 0.959 . S
C26 N27 1.317 . S
C26 N28 1.348 . S
C26 C29 1.485 . S
N27 C26 1.317 . S
N27 N31 1.370 . S
N28 C26 1.348 . S
N28 C30 1.346 . S
C29 C26 1.485 . S
C29 H33 0.960 . S
C29 H34 0.961 . S
C29 H35 0.960 . S
C30 N28 1.346 . S
C30 N31 1.307 . S
C30 C32 1.486 1_554 S
N31 N27 1.370 . S
N31 C30 1.307 . S
C32 C30 1.486 1_556 S
C32 H36 0.960 . S
C32 H37 0.960 . S
C32 H38 0.959 . S
H33 C29 0.960 . S
H34 C29 0.961 . S
H35 C29 0.960 . S
H36 C32 0.960 . S
H37 C32 0.960 . S
H38 C32 0.959 . S
C39 N40 1.317 . S
C39 N41 1.348 . S
C39 C42 1.485 . S
N40 C39 1.317 . S
N40 N44 1.370 . S
N41 C39 1.348 . S
N41 C43 1.346 . S
C42 C39 1.485 . S
C42 H46 0.960 . S
C42 H47 0.961 . S
C42 H48 0.960 . S
C43 N41 1.346 . S
C43 N44 1.307 . S
C43 C45 1.486 . S
N44 N40 1.370 . S
N44 C43 1.307 . S
C45 C43 1.486 . S
C45 H49 0.960 . S
C45 H50 0.960 . S
C45 H51 0.959 . S
H46 C42 0.960 . S
H47 C42 0.961 . S
H48 C42 0.960 . S
H49 C45 0.960 . S
H50 C45 0.960 . S
H51 C45 0.959 . S
Eu52 N81 2.600 . S
Eu52 N87 2.562 . S
Eu52 O96 2.462 . S
Eu52 O97 2.373 . S
Eu52 O99 2.432 . S
Eu52 O100 2.291 1_565 S
Eu52 O104 2.335 1_465 S
Eu52 O107 2.372 1_455 S
Eu52 C116 2.787 . S
C53 N54 1.365 . S
C53 C56 1.405 . S
C53 C60 1.448 . S
N54 C53 1.365 . S
N54 C57 1.319 1_655 S
N54 Eu63 2.600 . S
C55 C57 1.397 1_655 S
C55 C58 1.367 . S
C55 H75 0.931 1_655 S
C56 C53 1.405 . S
C56 C58 1.403 . S
C56 C62 1.439 . S
C57 N54 1.319 1_455 S
C57 C55 1.397 1_455 S
C57 H68 0.930 . S
C58 C55 1.367 . S
C58 C56 1.403 . S
C58 H79 0.929 . S
C59 C60 1.430 . S
C59 C61 1.387 . S
C59 C65 1.404 . S
C60 C53 1.448 . S
C60 C59 1.430 . S
C60 N64 1.351 . S
C61 C59 1.387 . S
C61 C62 1.374 . S
C61 H76 0.931 . S
C62 C56 1.439 . S
C62 C61 1.374 . S
C62 H77 0.931 . S
Eu63 N54 2.600 . S
Eu63 N64 2.562 . S
Eu63 O98 2.335 1_645 S
Eu63 O101 2.372 1_655 S
Eu63 O102 2.462 . S
Eu63 O103 2.373 . S
Eu63 O105 2.432 . S
Eu63 O106 2.291 1_545 S
Eu63 C127 2.787 . S
N64 C60 1.351 . S
N64 Eu63 2.562 . S
N64 C66 1.325 . S
C65 C59 1.404 . S
C65 C67 1.366 . S
C65 H73 0.930 . S
C66 N64 1.325 . S
C66 C67 1.416 . S
C66 H72 0.929 . S
C67 C65 1.366 . S
C67 C66 1.416 . S
C67 H69 0.930 . S
H68 C57 0.930 . S
H69 C67 0.930 . S
H70 C85 0.930 1_655 S
H71 C92 0.930 . S
H72 C66 0.929 . S
H73 C65 0.930 . S
H74 C88 0.929 . S
H75 C55 0.931 1_455 S
H76 C61 0.931 . S
H77 C62 0.931 . S
H78 C83 0.931 1_655 S
H79 C58 0.929 . S
H80 C91 0.930 . S
N81 Eu52 2.600 . S
N81 C82 1.365 . S
N81 C85 1.319 . S
C82 N81 1.365 . S
C82 C84 1.405 . S
C82 C90 1.448 . S
C83 H78 0.931 1_455 S
C83 C85 1.397 . S
C83 C86 1.367 . S
C84 C82 1.405 . S
C84 C86 1.403 . S
C84 C117 1.439 . S
C85 H70 0.930 1_455 S
C85 N81 1.319 . S
C85 C83 1.397 . S
C86 C83 1.367 . S
C86 C84 1.403 . S
C86 H93 0.929 . S
N87 Eu52 2.562 . S
N87 C88 1.325 . S
N87 C90 1.351 . S
C88 H74 0.929 . S
C88 N87 1.325 . S
C88 C92 1.416 . S
C89 C90 1.430 . S
C89 C91 1.404 . S
C89 C118 1.387 . S
C90 C82 1.448 . S
C90 N87 1.351 . S
C90 C89 1.430 . S
C91 H80 0.930 . S
C91 C89 1.404 . S
C91 C92 1.366 . S
C92 H71 0.930 . S
C92 C88 1.416 . S
C92 C91 1.366 . S
H93 C86 0.929 . S
H94 C117 0.930 1_554 S
H95 C118 0.931 . S
O96 Eu52 2.462 . S
O96 C116 1.252 . S
O97 Eu52 2.373 . S
O97 C108 1.249 . S
O98 Eu63 2.335 1_465 S
O98 C108 1.264 . S
O99 Eu52 2.432 . S
O99 C116 1.268 . S
O100 Eu52 2.291 1_545 S
O100 C115 1.255 . S
O101 Eu63 2.372 1_455 S
O101 C115 1.257 . S
O102 Eu63 2.462 . S
O102 C127 1.252 . S
O103 Eu63 2.373 . S
O103 C119 1.249 . S
O104 Eu52 2.335 1_645 S
O104 C119 1.264 . S
O105 Eu63 2.432 . S
O105 C127 1.268 . S
O106 Eu63 2.291 1_565 S
O106 C126 1.255 . S
O107 Eu52 2.372 1_655 S
O107 C126 1.257 . S
C108 O97 1.249 . S
C108 O98 1.264 . S
C109 C112 1.382 . S
C109 C114 1.390 . S
C109 C116 1.506 . S
C110 C111 1.398 . S
C110 C114 1.392 . S
C111 C110 1.398 . S
C111 C113 1.372 . S
C111 H128 0.931 . S
C112 C109 1.382 . S
C112 C113 1.390 . S
C112 H129 0.931 . S
C113 C111 1.372 . S
C113 C112 1.390 . S
C113 H130 0.929 . S
C114 C109 1.390 . S
C114 C110 1.392 . S
C114 H131 0.930 . S
C115 O100 1.255 . S
C115 O101 1.257 . S
C116 Eu52 2.787 . S
C116 O96 1.252 . S
C116 O99 1.268 . S
C116 C109 1.506 . S
C117 C84 1.439 . S
C117 H94 0.930 1_556 S
C117 C118 1.374 . S
C118 C89 1.387 . S
C118 H95 0.931 . S
C118 C117 1.374 . S
C119 O103 1.249 . S
C119 O104 1.264 . S
C120 C123 1.382 . S
C120 C124 1.390 1_556 S
C120 C127 1.506 . S
C121 C122 1.398 . S
C121 C124 1.392 . S
C122 C121 1.398 . S
C122 C125 1.372 . S
C122 H132 0.931 . S
C123 C120 1.382 . S
C123 C125 1.390 1_556 S
C123 H133 0.931 . S
C124 C120 1.390 1_554 S
C124 C121 1.392 . S
C124 H134 0.930 . S
C125 C122 1.372 . S
C125 C123 1.390 1_554 S
C125 H135 0.929 . S
C126 O106 1.255 . S
C126 O107 1.257 . S
C127 Eu63 2.787 . S
C127 O102 1.252 . S
C127 O105 1.268 . S
C127 C120 1.506 . S
H128 C111 0.931 . S
H129 C112 0.931 . S
H130 C113 0.929 . S
H131 C114 0.930 . S
H132 C122 0.931 . S
H133 C123 0.931 . S
H134 C124 0.930 . S
H135 C125 0.929 . S
Eu136 N165 2.600 1_554 S
Eu136 N171 2.562 . S
Eu136 O180 2.462 1_554 S
Eu136 O181 2.373 . S
Eu136 O183 2.432 1_554 S
Eu136 O184 2.291 . S
Eu136 O188 2.335 1_554 S
Eu136 O191 2.372 1_554 S
Eu136 C200 2.787 1_554 S
C137 N138 1.365 . S
C137 C140 1.405 . S
C137 C144 1.448 . S
N138 C137 1.365 . S
N138 C141 1.319 . S
N138 Eu147 2.600 . S
C139 C141 1.397 . S
C139 C142 1.367 . S
C139 H159 0.931 . S
C140 C137 1.405 . S
C140 C142 1.403 . S
C140 C146 1.439 . S
C141 N138 1.319 . S
C141 C139 1.397 . S
C141 H152 0.930 . S
C142 C139 1.367 . S
C142 C140 1.403 . S
C142 H163 0.929 1_655 S
C143 C144 1.430 . S
C143 C145 1.387 . S
C143 C149 1.404 . S
C144 C137 1.448 . S
C144 C143 1.430 . S
C144 N148 1.351 . S
C145 C143 1.387 . S
C145 C146 1.374 . S
C145 H160 0.931 . S
C146 C140 1.439 . S
C146 C145 1.374 . S
C146 H161 0.931 1_655 S
Eu147 N138 2.600 . S
Eu147 N148 2.562 . S
Eu147 O182 2.335 . S
Eu147 O185 2.372 . S
Eu147 O186 2.462 . S
Eu147 O187 2.373 . S
Eu147 O189 2.432 . S
Eu147 O190 2.291 . S
Eu147 C211 2.787 . S
N148 C144 1.351 . S
N148 Eu147 2.562 . S
N148 C150 1.325 . S
C149 C143 1.404 . S
C149 C151 1.366 . S
C149 H157 0.930 1_554 S
C150 N148 1.325 . S
C150 C151 1.416 . S
C150 H156 0.929 . S
C151 C149 1.366 . S
C151 C150 1.416 . S
C151 H153 0.931 1_554 S
H152 C141 0.930 . S
H153 C151 0.931 1_556 S
H154 C169 0.930 . S
H155 C176 0.930 . S
H156 C150 0.929 . S
H157 C149 0.930 1_556 S
H158 C172 0.929 . S
H159 C139 0.931 . S
H160 C145 0.931 . S
H161 C146 0.931 1_455 S
H162 C167 0.931 . S
H163 C142 0.929 1_455 S
H164 C175 0.930 . S
N165 Eu136 2.600 1_556 S
N165 C166 1.365 1_556 S
N165 C169 1.319 . S
C166 N165 1.365 1_554 S
C166 C168 1.405 . S
C166 C174 1.448 . S
C167 H162 0.931 . S
C167 C169 1.397 . S
C167 C170 1.367 . S
C168 C166 1.405 . S
C168 C170 1.403 1_554 S
C168 C201 1.439 . S
C169 H154 0.930 . S
C169 N165 1.319 . S
C169 C167 1.397 . S
C170 C167 1.367 . S
C170 C168 1.403 1_556 S
C170 H177 0.927 1_456 S
N171 Eu136 2.562 . S
N171 C172 1.325 . S
N171 C174 1.351 . S
C172 H158 0.929 . S
C172 N171 1.325 . S
C172 C176 1.416 . S
C173 C174 1.430 . S
C173 C175 1.404 . S
C173 C202 1.387 . S
C174 C166 1.448 . S
C174 N171 1.351 . S
C174 C173 1.430 . S
C175 H164 0.930 . S
C175 C173 1.404 . S
C175 C176 1.366 . S
C176 H155 0.930 . S
C176 C172 1.416 . S
C176 C175 1.366 . S
H177 C170 0.927 1_654 S
H178 C201 0.931 1_655 S
H179 C202 0.931 . S
O180 Eu136 2.462 1_556 S
O180 C200 1.252 . S
O181 Eu136 2.373 . S
O181 C192 1.249 . S
O182 Eu147 2.335 . S
O182 C192 1.264 . S
O183 Eu136 2.432 1_556 S
O183 C200 1.268 . S
O184 Eu136 2.291 . S
O184 C199 1.255 . S
O185 Eu147 2.372 . S
O185 C199 1.257 . S
O186 Eu147 2.462 . S
O186 C211 1.252 . S
O187 Eu147 2.373 . S
O187 C203 1.249 1_554 S
O188 Eu136 2.335 1_556 S
O188 C203 1.264 . S
O189 Eu147 2.432 . S
O189 C211 1.268 . S
O190 Eu147 2.291 . S
O190 C210 1.255 . S
O191 Eu136 2.372 1_556 S
O191 C210 1.257 1_556 S
C192 O181 1.249 . S
C192 O182 1.264 . S
C193 C196 1.382 . S
C193 C198 1.390 . S
C193 C200 1.506 . S
C194 C195 1.398 . S
C194 C198 1.392 . S
C195 C194 1.398 . S
C195 C197 1.372 . S
C195 H212 0.931 . S
C196 C193 1.382 . S
C196 C197 1.390 . S
C196 H213 0.931 . S
C197 C195 1.372 . S
C197 C196 1.390 . S
C197 H214 0.929 . S
C198 C193 1.390 . S
C198 C194 1.392 . S
C198 H215 0.930 . S
C199 O184 1.255 . S
C199 O185 1.257 . S
C200 Eu136 2.787 1_556 S
C200 O180 1.252 . S
C200 O183 1.268 . S
C200 C193 1.506 . S
C201 C168 1.439 . S
C201 H178 0.931 1_455 S
C201 C202 1.374 . S
C202 C173 1.387 . S
C202 H179 0.931 . S
C202 C201 1.374 . S
C203 O187 1.249 1_556 S
C203 O188 1.264 . S
C204 C207 1.382 . S
C204 C208 1.390 . S
C204 C211 1.506 . S
C205 C206 1.398 . S
C205 C208 1.392 . S
C206 C205 1.398 . S
C206 C209 1.372 . S
C206 H216 0.931 . S
C207 C204 1.382 . S
C207 C209 1.390 . S
C207 H217 0.931 . S
C208 C204 1.390 . S
C208 C205 1.392 . S
C208 H218 0.930 . S
C209 C206 1.372 . S
C209 C207 1.390 . S
C209 H219 0.929 . S
C210 O190 1.255 . S
C210 O191 1.257 1_554 S
C211 Eu147 2.787 . S
C211 O186 1.252 . S
C211 O189 1.268 . S
C211 C204 1.506 . S
H212 C195 0.931 . S
H213 C196 0.931 . S
H214 C197 0.929 . S
H215 C198 0.930 . S
H216 C206 0.931 . S
H217 C207 0.931 . S
H218 C208 0.930 . S
H219 C209 0.929 . S
C115 N41 1.762 . S
N2 C210 1.675 . S
N15 C126 1.746 . S
N28 C199 1.656 . S
C110 N5 1.363 . S
C203 N14 1.795 . S
N27 C119 1.732 . S
N44 C194 1.571 . S
C205 N18 1.563 . S
C121 N31 1.359 . S
C192 N40 1.817 . S
N1 C108 1.805 . S
