# Generated by pormake.
# Topology pyr, (3,6)-cn, num edge types: 1
# Building blocks:
#     Node 0, Type 0, BuildingBlock: ESEHIV_clean_linker_0, # of connection points: 3
#     Node 1, Type 0, BuildingBlock: ESEHIV_clean_linker_0, # of connection points: 3
#     Node 2, Type 0, BuildingBlock: ESEHIV_clean_linker_0, # of connection points: 3
#     Node 3, Type 0, BuildingBlock: ESEHIV_clean_linker_0, # of connection points: 3
#     Node 4, Type 0, BuildingBlock: ESEHIV_clean_linker_0, # of connection points: 3
#     Node 5, Type 0, BuildingBlock: ESEHIV_clean_linker_0, # of connection points: 3
#     Node 6, Type 0, BuildingBlock: ESEHIV_clean_linker_0, # of connection points: 3
#     Node 7, Type 0, BuildingBlock: ESEHIV_clean_linker_0, # of connection points: 3
#     Node 8, Type 1, BuildingBlock: BETFAJ_clean_sbu_0, # of connection points: 6
#     Node 9, Type 1, BuildingBlock: BETFAJ_clean_sbu_0, # of connection points: 6
#     Node 10, Type 1, BuildingBlock: BETFAJ_clean_sbu_0, # of connection points: 6
#     Node 11, Type 1, BuildingBlock: BETFAJ_clean_sbu_0, # of connection points: 6
#     Edge 12, Type (0, 1), None
#     Edge 13, Type (0, 1), None
#     Edge 14, Type (0, 1), None
#     Edge 15, Type (0, 1), None
#     Edge 16, Type (0, 1), None
#     Edge 17, Type (0, 1), None
#     Edge 18, Type (0, 1), None
#     Edge 19, Type (0, 1), None
#     Edge 20, Type (0, 1), None
#     Edge 21, Type (0, 1), None
#     Edge 22, Type (0, 1), None
#     Edge 23, Type (0, 1), None
#     Edge 24, Type (0, 1), None
#     Edge 25, Type (0, 1), None
#     Edge 26, Type (0, 1), None
#     Edge 27, Type (0, 1), None
#     Edge 28, Type (0, 1), None
#     Edge 29, Type (0, 1), None
#     Edge 30, Type (0, 1), None
#     Edge 31, Type (0, 1), None
#     Edge 32, Type (0, 1), None
#     Edge 33, Type (0, 1), None
#     Edge 34, Type (0, 1), None
#     Edge 35, Type (0, 1), None
# Relax obj value: 0.504
# Max RMSD: 0.224
# Mean RMSD: 0.110
data_MOF--net-pyr--node1-BETFAJ_clean_sbu_0--node2-ESEHIV_clean_linker_0--edge1-none
_symmetry_space_group_name_H-M    P1
_symmetry_Int_Tables_number       1
_symmetry_cell_setting            triclinic
loop_
_symmetry_equiv_pos_as_xyz
'x, y, z'
_cell_length_a     14.93104
_cell_length_b     15.947683
_cell_length_c     14.598584
_cell_angle_alpha  88.382408
_cell_angle_beta   86.684105
_cell_angle_gamma 102.89188
loop_
_atom_site_label
_atom_site_type_symbol
_atom_site_fract_x
_atom_site_fract_y
_atom_site_fract_z
_atom_type_partial_charge
H0 H 0.36655 0.31412 0.52353 0.0
H1 H 0.61755 0.2303 0.47074 0.0
H2 H 0.51286 0.36358 0.25839 0.0
C3 C 0.42774 0.316 0.47914 0.0
C4 C 0.43563 0.35435 0.38991 0.0
C5 C 0.49436 0.27277 0.50872 0.0
C6 C 0.56972 0.2684 0.44995 0.0
C7 C 0.57064 0.29311 0.35839 0.0
C8 C 0.50977 0.34375 0.33026 0.0
H9 H 0.97328 1.03574 0.95132 0.0
H10 H 0.21183 0.94278 1.01496 0.0
H11 H 0.07107 0.85875 0.77527 0.0
C12 C 1.01875 0.99255 0.93743 0.0
C13 C 1.01683 0.95186 0.85435 0.0
C14 C 0.08671 0.9861 0.99719 0.0
C15 C 0.15355 0.93915 0.97317 0.0
C16 C 0.1482 0.89146 0.89372 0.0
C17 C 0.07599 0.89471 0.83726 0.0
H18 H 0.76339 0.36868 1.09599 0.0
H19 H 0.78558 0.59842 0.92434 0.0
H20 H 0.57011 0.37263 0.88731 0.0
C21 C 0.73909 0.40218 1.04023 0.0
C22 C 0.66004 0.35998 0.99714 0.0
C23 C 0.78583 0.48748 1.01586 0.0
C24 C 0.75075 0.53259 0.94302 0.0
C25 C 0.67347 0.49265 0.89185 0.0
C26 C 0.62988 0.40506 0.92147 0.0
H27 H 0.82119 0.86777 0.59368 0.0
H28 H 0.04222 0.87168 0.38989 0.0
H29 H 0.81888 0.64446 0.43169 0.0
C30 C 0.85197 0.83687 0.53881 0.0
C31 C 0.80909 0.75136 0.52006 0.0
C32 C 0.93485 0.88263 0.49268 0.0
C33 C 0.97657 0.83864 0.42308 0.0
C34 C 0.93543 0.75274 0.39554 0.0
C35 C 0.85015 0.71037 0.44606 0.0
H36 H 0.47515 1.01223 0.83172 0.0
H37 H 0.72621 0.92849 0.77888 0.0
H38 H 0.57984 0.87887 1.044 0.0
C39 C 0.52301 0.97414 0.85247 0.0
C40 C 0.52202 0.94933 0.94402 0.0
C41 C 0.59839 0.96981 0.79371 0.0
C42 C 0.66503 0.92659 0.82329 0.0
C43 C 0.65711 0.88819 0.91248 0.0
C44 C 0.58294 0.89873 0.97214 0.0
H45 H 0.88083 0.29952 0.28741 0.0
H46 H 0.11937 0.20635 0.35057 0.0
H47 H 1.02181 0.38311 0.52711 0.0
C48 C 0.93914 0.30306 0.32915 0.0
C49 C 0.9446 0.35068 0.40865 0.0
C50 C 1.00593 0.25612 0.30495 0.0
C51 C 0.07395 0.24956 0.3646 0.0
C52 C 0.07594 0.2901 0.44777 0.0
C53 C 1.01683 0.34726 0.46506 0.0
H54 H 0.32925 0.87347 0.20639 0.0
H55 H 0.30696 0.64379 0.37815 0.0
H56 H 0.52255 0.86952 0.41507 0.0
C57 C 0.35354 0.83999 0.26217 0.0
C58 C 0.43262 0.88218 0.30524 0.0
C59 C 0.30676 0.7547 0.28657 0.0
C60 C 0.34181 0.70961 0.35945 0.0
C61 C 0.41912 0.74954 0.4106 0.0
C62 C 0.46277 0.8371 0.38093 0.0
H63 H 0.04988 0.37061 0.9123 0.0
H64 H 0.27093 0.37398 0.70867 0.0
H65 H 0.27367 0.59748 0.87044 0.0
C66 C 0.1156 0.40352 0.87913 0.0
C67 C 0.1569 0.4894 0.90661 0.0
C68 C 0.15725 0.35938 0.8096 0.0
C69 C 0.24019 0.40499 0.76348 0.0
C70 C 0.28323 0.49046 0.78217 0.0
C71 C 0.24226 0.53159 0.85611 0.0
Sm72 Sm 0.11193 1.08934 0.65911 0.0
Sm73 Sm 0.98029 0.15275 0.64296 0.0
C74 C 0.26436 1.04339 0.70292 0.0
C75 C 0.35951 1.09051 0.70362 0.0
C76 C 0.37589 0.17682 0.72864 0.0
C77 C 0.43234 0.23969 0.67042 0.0
C78 C 0.47369 0.21474 0.59029 0.0
C79 C 0.47438 0.12744 0.57961 0.0
C80 C 0.42002 1.06519 0.63934 0.0
C81 C 0.98004 0.98961 0.77565 0.0
C82 C 0.11387 0.26937 0.77511 0.0
C83 C 0.82807 0.19892 0.59886 0.0
C84 C 0.73287 0.15186 0.59839 0.0
C85 C 0.71637 1.06551 0.57348 0.0
C86 C 0.66009 1.00272 0.63191 0.0
C87 C 0.61896 1.02777 0.7121 0.0
C88 C 0.6183 1.11508 0.7227 0.0
C89 C 0.67253 0.17726 0.6628 0.0
C90 C 0.11265 0.25206 0.52635 0.0
C91 C 0.97814 0.97263 0.52723 0.0
O92 O 0.23294 1.03679 0.62111 0.0
O93 O 0.20648 1.06407 0.76332 0.0
O94 O 0.99451 1.07095 0.76969 0.0
O95 O 1.00746 0.9638 0.69947 0.0
O96 O 0.16596 0.22356 0.73067 0.0
O97 O 1.02522 0.24629 0.76239 0.0
O98 O 0.85957 0.20582 0.68062 0.0
O99 O 0.88585 0.17791 0.53858 0.0
O100 O 0.09731 0.17071 0.53233 0.0
O101 O 0.08554 0.27797 0.6026 0.0
O102 O 0.92608 1.01833 0.57187 0.0
O103 O 0.06685 0.99585 0.53968 0.0
H104 H 0.33278 0.19715 0.7819 0.0
H105 H 0.43328 0.30681 0.68117 0.0
H106 H 0.50711 1.10608 0.51922 0.0
H107 H 0.41062 0.99825 0.62204 0.0
H108 H 0.75932 1.04511 0.52012 0.0
H109 H 0.65912 0.93557 0.62122 0.0
H110 H 0.58572 0.13651 0.78314 0.0
H111 H 0.682 0.24423 0.68002 0.0
Sm112 Sm 0.61699 1.09984 0.16264 0.0
Sm113 Sm 0.4754 0.14262 1.13972 0.0
C114 C 0.77134 1.04574 1.13721 0.0
C115 C 0.86889 1.08464 1.13207 0.0
C116 C 0.89739 0.17033 1.09868 0.0
C117 C 0.9586 0.22797 1.14748 0.0
C118 C 0.98998 0.19877 0.22857 0.0
C119 C 0.97828 1.1101 0.24757 0.0
C120 C 0.91917 1.05245 0.19708 0.0
C121 C 0.48416 0.97173 0.26585 0.0
C122 C 0.57965 0.22401 0.2996 0.0
C123 C 0.32107 0.19683 0.16482 0.0
C124 C 0.22352 0.15788 0.16989 0.0
C125 C 0.19504 1.07223 0.20341 0.0
C126 C 0.1339 1.01449 0.15466 0.0
C127 C 0.10255 1.04356 1.07348 0.0
C128 C 0.1142 0.1322 1.05434 0.0
C129 C 0.17328 0.18996 1.10477 0.0
C130 C 0.60855 0.27041 1.03648 0.0
C131 C 0.5129 1.01836 1.00286 0.0
O132 O 0.72434 1.06348 1.06971 0.0
O133 O 0.73025 1.05072 0.21759 0.0
O134 O 0.4743 1.00257 0.1861 0.0
O135 O 0.55971 1.01513 0.29606 0.0
O136 O 0.65036 0.22308 0.24368 0.0
O137 O 0.50415 0.16865 0.28697 0.0
O138 O 0.368 0.17918 0.23241 0.0
O139 O 0.36224 0.19175 1.0845 0.0
O140 O 0.61782 0.23985 1.1165 0.0
O141 O 0.53311 0.22696 1.00609 0.0
O142 O 0.44218 1.01926 1.05878 0.0
O143 O 0.58834 1.07381 1.01543 0.0
H144 H 0.86072 0.19572 1.04647 0.0
H145 H 0.96934 0.29618 1.13044 0.0
H146 H 1.00312 1.0858 0.30897 0.0
H147 H 0.8991 0.9857 0.22168 0.0
H148 H 0.23169 1.04694 0.25571 0.0
H149 H 0.12317 0.9463 0.17181 0.0
H150 H 0.08938 0.1564 0.99288 0.0
H151 H 0.19332 0.25668 1.08007 0.0
Sm152 Sm 0.53631 0.55979 0.60865 0.0
Sm153 Sm 0.55629 0.68245 0.69386 0.0
C154 C 0.60688 0.44946 0.51469 0.0
C155 C 0.70236 0.44186 0.48981 0.0
C156 C 0.7365 0.45068 0.39754 0.0
C157 C 0.81878 0.42695 0.37146 0.0
C158 C 0.86904 0.39435 0.43731 0.0
C159 C 0.83968 0.39529 0.53068 0.0
C160 C 0.75686 0.41762 0.5565 0.0
C161 C 0.36779 0.53355 0.71781 0.0
C162 C 0.6368 0.54105 0.80991 0.0
C163 C 0.48617 0.79298 0.7879 0.0
C164 C 0.3907 0.80062 0.81273 0.0
C165 C 0.35645 0.7917 0.90498 0.0
C166 C 0.27412 0.81536 0.931 0.0
C167 C 0.22388 0.84794 0.86512 0.0
C168 C 0.25337 0.84713 0.77178 0.0
C169 C 0.33625 0.8249 0.746 0.0
C170 C 0.72465 0.70807 0.58447 0.0
C171 C 0.45575 0.70114 0.49258 0.0
O172 O 0.57707 0.51077 0.47447 0.0
O173 O 0.57628 0.4347 0.60036 0.0
O174 O 0.44837 0.56144 0.74356 0.0
O175 O 0.37583 0.51654 0.63118 0.0
O176 O 0.59989 0.50011 0.73824 0.0
O177 O 0.63655 0.6241 0.80829 0.0
O178 O 0.51583 0.73156 0.82808 0.0
O179 O 0.51685 0.80778 0.70226 0.0
O180 O 0.64385 0.68102 0.55896 0.0
O181 O 0.71691 0.72474 0.67123 0.0
O182 O 0.49263 0.74209 0.56428 0.0
O183 O 0.45605 0.6181 0.4942 0.0
H184 H 0.69698 0.47125 0.34479 0.0
H185 H 0.84097 0.43106 0.29921 0.0
H186 H 0.87707 0.37355 0.58431 0.0
H187 H 0.73374 0.41198 0.62858 0.0
H188 H 0.39594 0.7711 0.95775 0.0
H189 H 0.25185 0.81119 1.00323 0.0
H190 H 0.216 0.86887 0.71812 0.0
H191 H 0.35944 0.83061 0.67395 0.0
Sm192 Sm 0.05133 0.57132 0.18509 0.0
Sm193 Sm 0.04126 0.67081 1.11723 0.0
C194 C 0.10225 0.45424 0.28761 0.0
C195 C 0.19415 0.43851 0.30711 0.0
C196 C 0.24793 0.40417 0.24248 0.0
C197 C 0.33023 0.38304 0.26675 0.0
C198 C 0.35883 0.39242 0.35713 0.0
C199 C 0.30772 0.43238 0.4191 0.0
C200 C 0.22753 0.45603 0.39424 0.0
C201 C 0.99386 0.70919 0.32524 0.0
C202 C 0.22245 0.71338 0.23366 0.0
C203 C 0.99034 0.78787 1.01464 0.0
C204 C 0.89847 0.8037 0.99517 0.0
C205 C 0.84477 0.83812 1.05982 0.0
C206 C 0.76252 0.85936 1.03557 0.0
C207 C 0.73388 0.85003 0.94521 0.0
C208 C 0.7849 0.81 0.88321 0.0
C209 C 0.86504 0.78623 0.90805 0.0
C210 C 0.09858 0.53324 0.97674 0.0
C211 C 0.87013 0.52878 1.06875 0.0
O212 O 0.0691 0.43693 0.20758 0.0
O213 O 0.08319 0.52338 0.32043 0.0
O214 O 0.96378 0.65331 0.2638 0.0
O215 O 0.96006 0.65284 0.26399 0.0
O216 O 0.20023 0.63112 0.22381 0.0
O217 O 0.16566 0.75499 0.19544 0.0
O218 O 1.02358 0.80523 1.09463 0.0
O219 O 1.00927 0.71866 0.9819 0.0
O220 O 0.12877 0.58872 1.03853 0.0
O221 O 0.13241 0.58916 1.03836 0.0
O222 O 0.89232 0.61104 1.07865 0.0
O223 O 0.92696 0.48716 1.10688 0.0
H224 H 0.22572 0.39213 0.17383 0.0
H225 H 0.36922 0.35653 0.21524 0.0
H226 H 0.32825 0.44343 0.4881 0.0
H227 H 0.1891 0.48449 0.44517 0.0
H228 H 0.86701 0.85012 1.12846 0.0
H229 H 0.72359 0.88593 1.0871 0.0
H230 H 0.76432 0.79897 0.81421 0.0
H231 H 0.9034 0.75771 0.85711 0.0
loop_
_geom_bond_atom_site_label_1
_geom_bond_atom_site_label_2
_geom_bond_distance
_geom_bond_site_symmetry_2
_ccdc_geom_bond_type
H0 C3 0.931 . S
H1 C6 0.928 . S
H2 C8 0.930 . S
C3 H0 0.931 . S
C3 C4 1.413 . S
C3 C5 1.360 . S
C4 C3 1.413 . S
C4 C8 1.429 . S
C5 C3 1.360 . S
C5 C6 1.372 . S
C6 H1 0.928 . S
C6 C5 1.372 . S
C6 C7 1.404 . S
C7 C6 1.404 . S
C7 C8 1.391 . S
C8 H2 0.930 . S
C8 C4 1.429 . S
C8 C7 1.391 . S
H9 C12 0.931 . S
H10 C15 0.928 . S
H11 C17 0.930 . S
C12 H9 0.931 . S
C12 C13 1.413 . S
C12 C14 1.360 . S
C13 C12 1.413 . S
C13 C17 1.429 . S
C14 C12 1.360 . S
C14 C15 1.372 . S
C15 H10 0.928 . S
C15 C14 1.372 . S
C15 C16 1.404 . S
C16 C15 1.404 . S
C16 C17 1.391 . S
C17 H11 0.930 . S
C17 C13 1.429 . S
C17 C16 1.391 . S
H18 C21 0.931 . S
H19 C24 0.928 . S
H20 C26 0.930 . S
C21 H18 0.931 . S
C21 C22 1.413 . S
C21 C23 1.360 . S
C22 C21 1.413 . S
C22 C26 1.429 . S
C23 C21 1.360 . S
C23 C24 1.372 . S
C24 H19 0.928 . S
C24 C23 1.372 . S
C24 C25 1.404 . S
C25 C24 1.404 . S
C25 C26 1.391 . S
C26 H20 0.930 . S
C26 C22 1.429 . S
C26 C25 1.391 . S
H27 C30 0.931 . S
H28 C33 0.928 . S
H29 C35 0.930 . S
C30 H27 0.931 . S
C30 C31 1.413 . S
C30 C32 1.360 . S
C31 C30 1.413 . S
C31 C35 1.429 . S
C32 C30 1.360 . S
C32 C33 1.372 . S
C33 H28 0.928 . S
C33 C32 1.372 . S
C33 C34 1.404 . S
C34 C33 1.404 . S
C34 C35 1.391 . S
C35 H29 0.930 . S
C35 C31 1.429 . S
C35 C34 1.391 . S
H36 C39 0.931 . S
H37 C42 0.928 . S
H38 C44 0.930 . S
C39 H36 0.931 . S
C39 C40 1.413 . S
C39 C41 1.360 . S
C40 C39 1.413 . S
C40 C44 1.429 . S
C41 C39 1.360 . S
C41 C42 1.372 . S
C42 H37 0.928 . S
C42 C41 1.372 . S
C42 C43 1.404 . S
C43 C42 1.404 . S
C43 C44 1.391 . S
C44 H38 0.930 . S
C44 C40 1.429 . S
C44 C43 1.391 . S
H45 C48 0.931 . S
H46 C51 0.928 . S
H47 C53 0.930 . S
C48 H45 0.931 . S
C48 C49 1.413 . S
C48 C50 1.360 . S
C49 C48 1.413 . S
C49 C53 1.429 . S
C50 C48 1.360 . S
C50 C51 1.372 . S
C51 H46 0.928 . S
C51 C50 1.372 . S
C51 C52 1.404 . S
C52 C51 1.404 . S
C52 C53 1.391 . S
C53 H47 0.930 . S
C53 C49 1.429 . S
C53 C52 1.391 . S
H54 C57 0.931 . S
H55 C60 0.928 . S
H56 C62 0.930 . S
C57 H54 0.931 . S
C57 C58 1.413 . S
C57 C59 1.360 . S
C58 C57 1.413 . S
C58 C62 1.429 . S
C59 C57 1.360 . S
C59 C60 1.372 . S
C60 H55 0.928 . S
C60 C59 1.372 . S
C60 C61 1.404 . S
C61 C60 1.404 . S
C61 C62 1.391 . S
C62 H56 0.930 . S
C62 C58 1.429 . S
C62 C61 1.391 . S
H63 C66 0.931 . S
H64 C69 0.928 . S
H65 C71 0.930 . S
C66 H63 0.931 . S
C66 C67 1.413 . S
C66 C68 1.360 . S
C67 C66 1.413 . S
C67 C71 1.429 . S
C68 C66 1.360 . S
C68 C69 1.372 . S
C69 H64 0.928 . S
C69 C68 1.372 . S
C69 C70 1.404 . S
C70 C69 1.404 . S
C70 C71 1.391 . S
C71 H65 0.930 . S
C71 C67 1.429 . S
C71 C70 1.391 . S
Sm72 C74 2.846 . S
Sm72 O92 2.543 . S
Sm72 O93 2.450 . S
Sm72 O94 2.681 1_545 S
Sm72 O95 2.464 1_545 S
Sm72 O96 2.396 . S
Sm72 O100 2.386 1_455 S
Sm72 O103 2.408 1_445 S
Sm73 C83 2.856 . S
Sm73 O94 2.396 1_655 S
Sm73 O97 2.397 1_665 S
Sm73 O98 2.557 . S
Sm73 O99 2.453 . S
Sm73 O100 2.674 1_565 S
Sm73 O101 2.452 1_565 S
Sm73 O102 2.405 . S
C74 Sm72 2.846 . S
C74 C75 1.506 . S
C74 O92 1.261 . S
C74 O93 1.242 . S
C75 C74 1.506 . S
C75 C76 1.358 . S
C75 C80 1.382 . S
C76 C75 1.358 . S
C76 C77 1.385 . S
C76 H104 0.930 . S
C77 C76 1.385 . S
C77 C78 1.395 . S
C77 H105 0.929 . S
C78 C77 1.395 . S
C78 C79 1.335 . S
C79 C78 1.335 . S
C79 C80 1.398 . S
C79 H106 0.930 . S
C80 C75 1.382 . S
C80 C79 1.398 . S
C80 H107 0.929 . S
C81 O94 1.271 . S
C81 O95 1.251 . S
C82 O96 1.252 . S
C82 O97 1.272 . S
C83 Sm73 2.856 . S
C83 C84 1.506 . S
C83 O98 1.261 . S
C83 O99 1.242 . S
C84 C83 1.506 . S
C84 C85 1.358 . S
C84 C89 1.382 . S
C85 C84 1.358 . S
C85 C86 1.385 . S
C85 H108 0.930 . S
C86 C85 1.385 . S
C86 C87 1.395 . S
C86 H109 0.929 . S
C87 C86 1.395 . S
C87 C88 1.335 . S
C88 C87 1.335 . S
C88 C89 1.398 . S
C88 H110 0.930 . S
C89 C84 1.382 . S
C89 C88 1.398 . S
C89 H111 0.929 . S
C90 O100 1.271 . S
C90 O101 1.251 . S
C91 O102 1.252 . S
C91 O103 1.272 . S
O92 Sm72 2.543 . S
O92 C74 1.261 . S
O93 Sm72 2.450 . S
O93 C74 1.242 . S
O94 Sm72 2.681 1_565 S
O94 Sm73 2.396 1_455 S
O94 C81 1.271 . S
O95 Sm72 2.464 1_565 S
O95 C81 1.251 . S
O96 Sm72 2.396 . S
O96 C82 1.252 . S
O97 Sm73 2.397 1_445 S
O97 C82 1.272 . S
O98 Sm73 2.557 . S
O98 C83 1.261 . S
O99 Sm73 2.453 . S
O99 C83 1.242 . S
O100 Sm72 2.386 1_655 S
O100 Sm73 2.674 1_545 S
O100 C90 1.271 . S
O101 Sm73 2.452 1_545 S
O101 C90 1.251 . S
O102 Sm73 2.405 . S
O102 C91 1.252 . S
O103 Sm72 2.408 1_665 S
O103 C91 1.272 . S
H104 C76 0.930 . S
H105 C77 0.929 . S
H106 C79 0.930 . S
H107 C80 0.929 . S
H108 C85 0.930 . S
H109 C86 0.929 . S
H110 C88 0.930 . S
H111 C89 0.929 . S
Sm112 C114 2.846 1_565 S
Sm112 O132 2.543 1_565 S
Sm112 O133 2.450 1_565 S
Sm112 O134 2.681 . S
Sm112 O135 2.464 . S
Sm112 O136 2.396 1_565 S
Sm112 O140 2.386 1_564 S
Sm112 O143 2.408 1_554 S
Sm113 C123 2.846 1_545 S
Sm113 O134 2.386 1_546 S
Sm113 O137 2.408 1_556 S
Sm113 O138 2.543 1_545 S
Sm113 O139 2.450 . S
Sm113 O140 2.681 . S
Sm113 O141 2.464 . S
Sm113 O142 2.396 1_545 S
C114 Sm112 2.846 1_545 S
C114 C115 1.506 . S
C114 O132 1.261 . S
C114 O133 1.254 . S
C115 C114 1.506 . S
C115 C116 1.358 . S
C115 C120 1.382 . S
C116 C115 1.358 . S
C116 C117 1.385 . S
C116 H144 0.930 . S
C117 C116 1.385 . S
C117 C118 1.395 . S
C117 H145 0.929 . S
C118 C117 1.395 . S
C118 C119 1.335 . S
C119 C118 1.335 . S
C119 C120 1.398 . S
C119 H146 0.930 . S
C120 C115 1.382 . S
C120 C119 1.398 . S
C120 H147 0.929 . S
C121 O134 1.271 . S
C121 O135 1.251 . S
C122 O136 1.252 . S
C122 O137 1.272 . S
C123 Sm113 2.846 1_565 S
C123 C124 1.506 . S
C123 O138 1.261 . S
C123 O139 1.242 1_565 S
C124 C123 1.506 . S
C124 C125 1.358 . S
C124 C129 1.382 . S
C125 C124 1.358 . S
C125 C126 1.385 . S
C125 H148 0.930 . S
C126 C125 1.385 . S
C126 C127 1.395 . S
C126 H149 0.929 . S
C127 C126 1.395 . S
C127 C128 1.335 . S
C128 C127 1.335 . S
C128 C129 1.398 . S
C128 H150 0.930 . S
C129 C124 1.382 . S
C129 C128 1.398 . S
C129 H151 0.929 . S
C130 O140 1.271 . S
C130 O141 1.251 . S
C131 O142 1.252 . S
C131 O143 1.272 . S
O132 Sm112 2.543 1_545 S
O132 C114 1.261 . S
O133 Sm112 2.450 1_545 S
O133 C114 1.254 . S
O134 Sm112 2.681 . S
O134 Sm113 2.386 1_564 S
O134 C121 1.271 . S
O135 Sm112 2.464 . S
O135 C121 1.251 . S
O136 Sm112 2.396 1_545 S
O136 C122 1.252 . S
O137 Sm113 2.408 1_554 S
O137 C122 1.272 . S
O138 Sm113 2.543 1_565 S
O138 C123 1.261 . S
O139 Sm113 2.450 . S
O139 C123 1.242 1_545 S
O140 Sm112 2.386 1_546 S
O140 Sm113 2.681 . S
O140 C130 1.271 . S
O141 Sm113 2.464 . S
O141 C130 1.251 . S
O142 Sm113 2.396 1_565 S
O142 C131 1.252 . S
O143 Sm112 2.408 1_556 S
O143 C131 1.272 . S
H144 C116 0.930 . S
H145 C117 0.929 . S
H146 C119 0.930 . S
H147 C120 0.929 . S
H148 C125 0.930 . S
H149 C126 0.929 . S
H150 C128 0.930 . S
H151 C129 0.929 . S
Sm152 C154 2.846 . S
Sm152 O172 2.543 . S
Sm152 O173 2.450 . S
Sm152 O174 2.681 . S
Sm152 O175 2.464 . S
Sm152 O176 2.396 . S
Sm152 O180 2.386 . S
Sm152 O183 2.408 . S
Sm153 C163 2.846 . S
Sm153 O174 2.386 . S
Sm153 O177 2.408 . S
Sm153 O178 2.543 . S
Sm153 O179 2.450 . S
Sm153 O180 2.681 . S
Sm153 O181 2.464 . S
Sm153 O182 2.396 . S
C154 Sm152 2.846 . S
C154 C155 1.506 . S
C154 O172 1.261 . S
C154 O173 1.242 . S
C155 C154 1.506 . S
C155 C156 1.358 . S
C155 C160 1.382 . S
C156 C155 1.358 . S
C156 C157 1.385 . S
C156 H184 0.930 . S
C157 C156 1.385 . S
C157 C158 1.395 . S
C157 H185 0.929 . S
C158 C157 1.395 . S
C158 C159 1.335 . S
C159 C158 1.335 . S
C159 C160 1.398 . S
C159 H186 0.930 . S
C160 C155 1.382 . S
C160 C159 1.398 . S
C160 H187 0.929 . S
C161 O174 1.271 . S
C161 O175 1.251 . S
C162 O176 1.252 . S
C162 O177 1.272 . S
C163 Sm153 2.846 . S
C163 C164 1.506 . S
C163 O178 1.261 . S
C163 O179 1.242 . S
C164 C163 1.506 . S
C164 C165 1.358 . S
C164 C169 1.382 . S
C165 C164 1.358 . S
C165 C166 1.385 . S
C165 H188 0.930 . S
C166 C165 1.385 . S
C166 C167 1.395 . S
C166 H189 0.929 . S
C167 C166 1.395 . S
C167 C168 1.335 . S
C168 C167 1.335 . S
C168 C169 1.398 . S
C168 H190 0.930 . S
C169 C164 1.382 . S
C169 C168 1.398 . S
C169 H191 0.929 . S
C170 O180 1.271 . S
C170 O181 1.251 . S
C171 O182 1.252 . S
C171 O183 1.272 . S
O172 Sm152 2.543 . S
O172 C154 1.261 . S
O173 Sm152 2.450 . S
O173 C154 1.242 . S
O174 Sm152 2.681 . S
O174 Sm153 2.386 . S
O174 C161 1.271 . S
O175 Sm152 2.464 . S
O175 C161 1.251 . S
O176 Sm152 2.396 . S
O176 C162 1.252 . S
O177 Sm153 2.408 . S
O177 C162 1.272 . S
O178 Sm153 2.543 . S
O178 C163 1.261 . S
O179 Sm153 2.450 . S
O179 C163 1.242 . S
O180 Sm152 2.386 . S
O180 Sm153 2.681 . S
O180 C170 1.271 . S
O181 Sm153 2.464 . S
O181 C170 1.251 . S
O182 Sm153 2.396 . S
O182 C171 1.252 . S
O183 Sm152 2.408 . S
O183 C171 1.272 . S
H184 C156 0.930 . S
H185 C157 0.929 . S
H186 C159 0.930 . S
H187 C160 0.929 . S
H188 C165 0.930 . S
H189 C166 0.929 . S
H190 C168 0.930 . S
H191 C169 0.929 . S
Sm192 C194 2.846 . S
Sm192 O212 2.543 . S
Sm192 O213 2.450 . S
Sm192 O214 2.681 1_455 S
Sm192 O215 2.464 1_455 S
Sm192 O216 2.396 . S
Sm192 O220 2.386 1_554 S
Sm192 O223 2.408 1_454 S
Sm193 C203 2.846 . S
Sm193 O214 2.386 1_556 S
Sm193 O217 2.408 1_656 S
Sm193 O218 2.543 . S
Sm193 O219 2.450 . S
Sm193 O220 2.681 1_655 S
Sm193 O221 2.464 1_655 S
Sm193 O222 2.396 . S
C194 Sm192 2.846 . S
C194 C195 1.506 . S
C194 O212 1.261 . S
C194 O213 1.242 . S
C195 C194 1.506 . S
C195 C196 1.358 . S
C195 C200 1.382 . S
C196 C195 1.358 . S
C196 C197 1.385 . S
C196 H224 0.930 . S
C197 C196 1.385 . S
C197 C198 1.395 . S
C197 H225 0.929 . S
C198 C197 1.395 . S
C198 C199 1.335 . S
C199 C198 1.335 . S
C199 C200 1.398 . S
C199 H226 0.930 . S
C200 C195 1.382 . S
C200 C199 1.398 . S
C200 H227 0.929 . S
C201 O214 1.271 . S
C201 O215 1.251 . S
C202 O216 1.252 . S
C202 O217 1.272 . S
C203 Sm193 2.846 . S
C203 C204 1.506 . S
C203 O218 1.261 . S
C203 O219 1.242 . S
C204 C203 1.506 . S
C204 C205 1.358 . S
C204 C209 1.382 . S
C205 C204 1.358 . S
C205 C206 1.385 . S
C205 H228 0.930 . S
C206 C205 1.385 . S
C206 C207 1.395 . S
C206 H229 0.929 . S
C207 C206 1.395 . S
C207 C208 1.335 . S
C208 C207 1.335 . S
C208 C209 1.398 . S
C208 H230 0.930 . S
C209 C204 1.382 . S
C209 C208 1.398 . S
C209 H231 0.929 . S
C210 O220 1.271 . S
C210 O221 1.251 . S
C211 O222 1.252 . S
C211 O223 1.272 . S
O212 Sm192 2.543 . S
O212 C194 1.261 . S
O213 Sm192 2.450 . S
O213 C194 1.242 . S
O214 Sm192 2.681 1_655 S
O214 Sm193 2.386 1_554 S
O214 C201 1.271 . S
O215 Sm192 2.464 1_655 S
O215 C201 1.251 . S
O216 Sm192 2.396 . S
O216 C202 1.252 . S
O217 Sm193 2.408 1_454 S
O217 C202 1.272 . S
O218 Sm193 2.543 . S
O218 C203 1.261 . S
O219 Sm193 2.450 . S
O219 C203 1.242 . S
O220 Sm192 2.386 1_556 S
O220 Sm193 2.681 1_455 S
O220 C210 1.271 . S
O221 Sm193 2.464 1_455 S
O221 C210 1.251 . S
O222 Sm193 2.396 . S
O222 C211 1.252 . S
O223 Sm192 2.408 1_656 S
O223 C211 1.272 . S
H224 C196 0.930 . S
H225 C197 0.929 . S
H226 C199 0.930 . S
H227 C200 0.929 . S
H228 C205 0.930 . S
H229 C206 0.929 . S
H230 C208 0.930 . S
H231 C209 0.929 . S
C5 C78 1.120 . S
C14 C127 1.434 . S
C162 C25 3.736 . S
C34 C201 3.777 . S
C122 C7 2.774 . S
C81 C13 1.299 . S
C211 C23 2.561 . S
C170 C31 2.511 . S
C4 C198 1.798 . S
C130 C22 3.461 . S
C32 C91 3.565 . S
C16 C167 1.910 . S
C87 C41 1.093 . S
C50 C118 1.445 . S
C61 C171 3.726 . S
C67 C210 3.787 . S
C40 C131 2.787 . S
C90 C52 1.317 . S
C202 C59 2.567 . S
C161 C70 2.511 . S
C43 C207 1.768 . S
C121 C58 3.478 . S
C82 C68 3.535 . S
C49 C158 1.941 . S
