# Generated by pormake.
# Topology tsx, (6,3)-cn, num edge types: 1
# Building blocks:
#     Node 0, Type 0, BuildingBlock: FUNLAD_clean_sbu_0, # of connection points: 6
#     Node 1, Type 0, BuildingBlock: FUNLAD_clean_sbu_0, # of connection points: 6
#     Node 2, Type 1, BuildingBlock: ESEHIV_clean_linker_0, # of connection points: 3
#     Node 3, Type 1, BuildingBlock: ESEHIV_clean_linker_0, # of connection points: 3
#     Node 4, Type 1, BuildingBlock: ESEHIV_clean_linker_0, # of connection points: 3
#     Node 5, Type 1, BuildingBlock: ESEHIV_clean_linker_0, # of connection points: 3
#     Edge 6, Type (0, 1), BuildingBlock: AJUNOK_clean_linker_0, # of connection points: 2
#     Edge 7, Type (0, 1), BuildingBlock: AJUNOK_clean_linker_0, # of connection points: 2
#     Edge 8, Type (0, 1), BuildingBlock: AJUNOK_clean_linker_0, # of connection points: 2
#     Edge 9, Type (0, 1), BuildingBlock: AJUNOK_clean_linker_0, # of connection points: 2
#     Edge 10, Type (0, 1), BuildingBlock: AJUNOK_clean_linker_0, # of connection points: 2
#     Edge 11, Type (0, 1), BuildingBlock: AJUNOK_clean_linker_0, # of connection points: 2
#     Edge 12, Type (0, 1), BuildingBlock: AJUNOK_clean_linker_0, # of connection points: 2
#     Edge 13, Type (0, 1), BuildingBlock: AJUNOK_clean_linker_0, # of connection points: 2
#     Edge 14, Type (0, 1), BuildingBlock: AJUNOK_clean_linker_0, # of connection points: 2
#     Edge 15, Type (0, 1), BuildingBlock: AJUNOK_clean_linker_0, # of connection points: 2
#     Edge 16, Type (0, 1), BuildingBlock: AJUNOK_clean_linker_0, # of connection points: 2
#     Edge 17, Type (0, 1), BuildingBlock: AJUNOK_clean_linker_0, # of connection points: 2
# Relax obj value: 0.162
# Max RMSD: 0.152
# Mean RMSD: 0.064
data_MOF--net-tsx--node1-FUNLAD_clean_sbu_0--node2-ESEHIV_clean_linker_0--edge1-AJUNOK_clean_linker_0
_symmetry_space_group_name_H-M    P1
_symmetry_Int_Tables_number       1
_symmetry_cell_setting            triclinic
loop_
_symmetry_equiv_pos_as_xyz
'x, y, z'
_cell_length_a     12.541326
_cell_length_b     13.476517
_cell_length_c     31.616586
_cell_angle_alpha  91.017391
_cell_angle_beta   92.343669
_cell_angle_gamma 89.288437
loop_
_atom_site_label
_atom_site_type_symbol
_atom_site_fract_x
_atom_site_fract_y
_atom_site_fract_z
_atom_type_partial_charge
C0 C 0.8438 0.93251 -0.00532 0.0
N1 N 0.00168 0.09562 0.08919 0.0
C2 C 0.90786 0.08259 0.10827 0.0
C3 C 0.90592 0.076 0.15202 0.0
C4 C 0.00031 0.08921 0.17687 0.0
C5 C 0.09528 0.10769 0.1564 0.0
C6 C 0.09453 0.1088 0.11228 0.0
Zn7 Zn 0.00104 0.08613 0.02503 0.0
C8 C 0.15616 0.93963 -0.00833 0.0
N9 N 0.98806 0.06587 0.89042 0.0
C10 C 0.89802 0.08453 0.86614 0.0
C11 C 0.08182 0.04264 0.87227 0.0
C12 C 0.08664 0.03319 0.82864 0.0
C13 C 0.99662 0.0561 0.80259 0.0
C14 C 0.9011 0.08213 0.82199 0.0
Zn15 Zn 0.98778 0.07388 0.95525 0.0
O16 O 0.8842 0.97861 0.02637 0.0
C17 C 0.84912 0.23221 0.9825 0.0
O18 O 0.87241 0.95353 0.95763 0.0
H19 H 0.15389 0.03055 0.89138 0.0
H20 H 0.83451 0.07373 0.08953 0.0
H21 H 0.82361 0.1021 0.88079 0.0
O22 O 0.88454 0.20913 0.01951 0.0
O23 O 0.86942 0.17622 0.95143 0.0
H24 H 0.16854 0.11834 0.09654 0.0
O25 O 0.10064 0.19851 0.95569 0.0
O26 O 0.11238 0.19102 0.02498 0.0
O27 O 0.11027 0.97179 0.95843 0.0
O28 O 0.12572 0.97035 0.02765 0.0
C29 C 0.13585 0.23305 -0.00861 0.0
H30 H 0.83147 0.05703 0.16579 0.0
H31 H 0.16992 0.11889 0.17418 0.0
H32 H 0.16066 1.0069 0.81582 0.0
H33 H 0.82935 0.10032 0.8034 0.0
C34 C 0.37643 0.29584 0.49121 0.0
N35 N 0.48707 0.47734 0.58813 0.0
C36 C 0.38791 0.48517 0.60404 0.0
C37 C 0.37609 0.49878 0.64751 0.0
C38 C 0.46722 0.50403 0.67445 0.0
C39 C 0.56828 0.49416 0.65752 0.0
C40 C 0.57652 0.48068 0.61394 0.0
Zn41 Zn 0.50278 0.46408 0.52433 0.0
C42 C 0.67681 0.3216 0.49951 0.0
N43 N 0.53226 0.43545 0.39072 0.0
C44 C 0.44333 0.4127 0.36661 0.0
C45 C 0.62415 0.46193 0.37261 0.0
C46 C 0.62647 0.47346 0.3288 0.0
C47 C 0.53353 0.45696 0.30352 0.0
C48 C 0.44268 0.42178 0.32274 0.0
Zn49 Zn 0.51938 0.44591 0.45499 0.0
O50 O 0.39517 0.3523 0.52287 0.0
C51 C 0.34232 0.58682 0.4746 0.0
O52 O 0.41444 0.31647 0.45561 0.0
H53 H 0.69441 0.47871 0.39226 0.0
H54 H 0.31791 0.48203 0.58294 0.0
H55 H 0.37107 0.39187 0.38154 0.0
O56 O 0.37541 0.57334 0.51278 0.0
O57 O 0.38816 0.54177 0.44485 0.0
H58 H 0.65444 0.47436 0.60063 0.0
O59 O 0.6309 0.5701 0.45897 0.0
O60 O 0.61452 0.57455 0.52787 0.0
O61 O 0.64659 0.35233 0.4634 0.0
O62 O 0.62985 0.35237 0.53241 0.0
C63 C 0.65868 0.60516 0.49548 0.0
H64 H 0.29708 0.50639 0.6599 0.0
H65 H 0.63997 0.49821 0.67777 0.0
H66 H 0.69845 0.49993 0.31517 0.0
H67 H 0.37038 0.40504 0.30422 0.0
H68 H 0.91956 0.13152 0.37776 0.0
H69 H 0.0806 0.85653 0.34754 0.0
H70 H 0.9502 0.90362 0.46943 0.0
C71 C 0.94424 0.05671 0.38583 0.0
C72 C 0.92755 0.02368 0.4266 0.0
C73 C 0.99097 0.99409 0.35566 0.0
C74 C 0.03629 0.90307 0.36907 0.0
C75 C 0.02787 0.87272 0.41098 0.0
C76 C 0.96456 0.9292 0.43827 0.0
H77 H 0.91627 0.85515 0.62179 0.0
H78 H 0.12777 0.09933 0.60599 0.0
H79 H 0.09348 0.87536 0.50943 0.0
C80 C 0.97368 0.89412 0.60378 0.0
C81 C 0.99067 0.86209 0.5621 0.0
C82 C 0.02925 0.97588 0.62159 0.0
C83 C 0.09568 0.02845 0.59554 0.0
C84 C 0.12309 0.99055 0.5559 0.0
C85 C 0.07232 0.90525 0.53972 0.0
H86 H 0.36747 0.69269 0.86102 0.0
H87 H 0.62436 0.47957 0.85786 0.0
H88 H 0.58868 0.66572 0.96743 0.0
C89 C 0.43752 0.65831 0.87606 0.0
C90 C 0.46821 0.68465 0.91783 0.0
C91 C 0.49629 0.5867 0.85387 0.0
C92 C 0.58318 0.53865 0.87443 0.0
C93 C 0.6161 0.56506 0.91611 0.0
C94 C 0.56101 0.64194 0.93653 0.0
H95 H 0.38245 0.45093 0.11375 0.0
H96 H 0.64303 0.65483 0.12588 0.0
H97 H 0.46055 0.62604 0.00835 0.0
C98 C 0.43148 0.50636 0.09978 0.0
C99 C 0.41395 0.53103 0.05708 0.0
C100 C 0.51221 0.55206 0.12483 0.0
C101 C 0.57943 0.62055 0.10674 0.0
C102 C 0.5617 0.6477 0.06436 0.0
C103 C 0.47658 0.60479 0.04036 0.0
C104 C 0.16245 0.38969 0.03124 0.0
C105 C 0.19134 0.3282 -0.00305 0.0
C106 C 0.23097 0.46253 0.04793 0.0
C107 C 0.33087 0.47723 0.03082 0.0
H108 H 0.08977 0.37603 0.04753 0.0
H109 H 0.20887 0.50262 0.07633 0.0
S110 S 0.42899 0.35462 0.93321 0.0
N111 N 0.31517 0.29905 0.94123 0.0
N112 N 0.44328 0.43916 0.97142 0.0
C113 C 0.35333 0.42594 -0.00729 0.0
C114 C 0.28355 0.3504 0.97598 0.0
C115 C 0.23534 0.77149 0.98278 0.0
C116 C 0.2496 0.87462 -0.0143 0.0
C117 C 0.30787 0.7104 0.96136 0.0
C118 C 0.3979 0.75015 0.94284 0.0
H119 H 0.16371 0.73888 -0.00573 0.0
H120 H 0.29204 0.63171 0.95823 0.0
S121 S 0.46714 1.01582 0.93945 0.0
N122 N 0.35785 1.01406 0.96688 0.0
N123 N 0.49524 0.89867 0.92762 0.0
C124 C 0.41416 0.85259 0.94628 0.0
C125 C 0.34001 0.91484 0.9677 0.0
C126 C 0.66187 0.87849 0.01152 0.0
C127 C 0.76826 0.85316 0.00333 0.0
C128 C 0.59496 0.81163 0.03109 0.0
C129 C 0.63372 0.71863 0.04469 0.0
H130 H 0.63168 0.95216 0.00441 0.0
H131 H 0.51327 0.83367 0.03663 0.0
S132 S 0.90801 0.61898 0.03273 0.0
N133 N 0.90955 0.72941 0.01087 0.0
N134 N 0.78588 0.60549 0.04935 0.0
C135 C 0.74034 0.69295 0.03716 0.0
C136 C 0.80714 0.7598 0.01611 0.0
C137 C 0.73068 0.38129 -0.00411 0.0
C138 C 0.80738 0.33224 0.97206 0.0
C139 C 0.67824 0.46651 0.98 0.0
C140 C 0.69773 0.50258 0.93937 0.0
H141 H 0.70677 0.3509 0.02549 0.0
H142 H 0.61751 0.5 -0.00137 0.0
S143 S 0.9217 0.42322 0.87337 0.0
N144 N 0.92362 0.34338 0.91237 0.0
N145 N 0.82184 0.50058 0.88244 0.0
C146 C 0.78584 0.46302 0.91878 0.0
C147 C 0.84067 0.37801 0.93505 0.0
C148 C 0.72733 0.77192 0.51402 0.0
C149 C 0.74881 0.67301 0.50266 0.0
C150 C 0.80733 0.83237 0.53248 0.0
C151 C 0.91162 0.79588 0.54043 0.0
H152 H 0.64654 0.8008 0.51077 0.0
H153 H 0.78691 0.9077 0.54187 0.0
S154 S 0.00268 0.53637 0.52469 0.0
N155 N 0.87804 0.53751 0.50559 0.0
N156 N 0.02904 0.65172 0.54003 0.0
C157 C 0.93403 0.69655 0.52999 0.0
C158 C 0.85228 0.63488 0.5112 0.0
C159 C 0.85743 0.25882 0.48695 0.0
C160 C 0.7541 0.23926 0.49983 0.0
C161 C 0.91662 0.18619 0.46567 0.0
C162 C 0.87484 0.09116 0.45696 0.0
H163 H 0.88803 0.33356 0.48923 0.0
H164 H 0.99212 0.20697 0.45318 0.0
S165 S 0.60847 1.00438 0.48385 0.0
N166 N 0.61402 0.11851 0.50327 0.0
N167 N 0.72487 0.98187 0.46292 0.0
C168 C 0.77471 0.06894 0.472 0.0
C169 C 0.71473 0.14293 0.49381 0.0
C170 C 0.23508 0.16668 0.47736 0.0
C171 C 0.32676 0.20006 0.49995 0.0
C172 C 0.17361 0.09031 0.49356 0.0
C173 C 0.20263 0.04511 0.53217 0.0
H174 H 0.20643 0.20444 0.44907 0.0
H175 H 0.09998 0.07043 0.47728 0.0
S176 S 0.4462 0.09369 0.59893 0.0
N177 N 0.45019 0.17419 0.56033 0.0
N178 N 0.33752 0.02829 0.58878 0.0
C179 C 0.30009 0.07078 0.55231 0.0
C180 C 0.36121 0.14911 0.53669 0.0
C181 C 0.15549 0.62991 0.4495 0.0
C182 C 0.25836 0.66055 0.46331 0.0
C183 C 0.07874 0.69847 0.43343 0.0
C184 C 0.10521 0.79848 0.4285 0.0
H185 H 0.13493 0.55223 0.45059 0.0
H186 H 0.99968 0.67286 0.42394 0.0
S187 S 0.36799 0.91182 0.45323 0.0
N188 N 0.38402 0.79564 0.46818 0.0
N189 N 0.24373 0.9221 0.43459 0.0
C190 C 0.20929 0.82835 0.44016 0.0
C191 C 0.28511 0.76001 0.45828 0.0
C192 C 0.0859 0.02398 0.24391 0.0
C193 C 0.00092 0.07573 0.22345 0.0
C194 C 0.08348 1.00064 0.28677 0.0
C195 C 0.99442 0.02509 0.31073 0.0
H196 H 0.15393 0.99851 0.22652 0.0
H197 H 0.15189 0.96216 0.30094 0.0
S198 S 0.75341 0.16678 0.27266 0.0
N199 N 0.83056 0.16097 0.23168 0.0
N200 N 0.8186 0.10517 0.31038 0.0
C201 C 0.90926 0.07822 0.29072 0.0
C202 C 0.91426 0.10622 0.24761 0.0
C203 C 0.91554 1.00976 0.73106 0.0
C204 C 0.00204 0.04825 0.75566 0.0
C205 C 0.92338 0.99081 0.6876 0.0
C206 C 0.01942 1.00571 0.66707 0.0
H207 H 0.84185 0.99103 0.74554 0.0
H208 H 0.85357 0.96266 0.67031 0.0
S209 S 0.26718 0.11427 0.7168 0.0
N210 N 0.18153 0.1149 0.75495 0.0
N211 N 0.20323 0.06342 0.6755 0.0
C212 C 0.10605 0.04633 0.69133 0.0
C213 C 0.09564 0.0713 0.73496 0.0
C214 C 0.46334 0.62179 0.73569 0.0
C215 C 0.45835 0.52376 0.72006 0.0
C216 C 0.46905 0.64189 0.77935 0.0
C217 C 0.47088 0.56439 0.8086 0.0
H218 H 0.46674 0.68294 0.714 0.0
H219 H 0.47762 0.71817 0.79025 0.0
S220 S 0.44847 0.29555 0.78312 0.0
N221 N 0.44763 0.34911 0.73648 0.0
N222 N 0.45778 0.38649 0.81877 0.0
C223 C 0.46055 0.46627 0.79318 0.0
C224 C 0.45453 0.44601 0.74876 0.0
C225 C 0.61168 0.45413 0.23138 0.0
C226 C 0.52883 0.48299 0.25798 0.0
C227 C 0.60763 0.47845 0.18829 0.0
C228 C 0.52048 0.53193 0.17056 0.0
H229 H 0.67916 0.41121 0.24379 0.0
H230 H 0.67172 0.45368 0.16855 0.0
S231 S 0.28894 0.63335 0.22688 0.0
N232 N 0.36162 0.57525 0.26369 0.0
N233 N 0.35312 0.61773 0.18265 0.0
C234 C 0.43865 0.56296 0.19681 0.0
C235 C 0.44301 0.53926 0.24054 0.0
loop_
_geom_bond_atom_site_label_1
_geom_bond_atom_site_label_2
_geom_bond_distance
_geom_bond_site_symmetry_2
_ccdc_geom_bond_type
C0 O16 1.251 . S
C0 O18 1.254 1_554 S
N1 C2 1.333 1_445 S
N1 C6 1.307 . S
N1 Zn7 2.020 . S
C2 N1 1.333 1_665 S
C2 C3 1.379 . S
C2 H20 0.952 . S
C3 C2 1.379 . S
C3 C4 1.390 1_665 S
C3 H30 0.949 . S
C4 C3 1.390 1_445 S
C4 C5 1.357 . S
C5 C4 1.357 . S
C5 C6 1.370 . S
C5 H31 0.950 . S
C6 N1 1.307 . S
C6 C5 1.370 . S
C6 H24 0.948 . S
Zn7 N1 2.020 . S
Zn7 O16 2.039 1_445 S
Zn7 O22 2.034 1_455 S
Zn7 O26 2.025 . S
Zn7 O28 2.024 1_545 S
C8 O27 1.246 1_554 S
C8 O28 1.249 . S
N9 C10 1.306 1_445 S
N9 C11 1.335 . S
N9 Zn15 2.020 . S
C10 N9 1.306 1_665 S
C10 C14 1.370 . S
C10 H21 0.948 . S
C11 N9 1.335 . S
C11 C12 1.379 . S
C11 H19 0.952 . S
C12 C11 1.379 . S
C12 C13 1.390 . S
C12 H32 0.949 . S
C13 C12 1.390 . S
C13 C14 1.357 1_445 S
C14 C10 1.370 . S
C14 C13 1.357 1_665 S
C14 H33 0.950 . S
Zn15 N9 2.020 . S
Zn15 O18 2.025 1_445 S
Zn15 O23 2.024 1_455 S
Zn15 O25 2.039 . S
Zn15 O27 2.034 1_545 S
O16 C0 1.251 . S
O16 Zn7 2.039 1_665 S
C17 O22 1.246 . S
C17 O23 1.249 1_554 S
O18 C0 1.254 1_556 S
O18 Zn15 2.025 1_665 S
H19 C11 0.952 . S
H20 C2 0.952 . S
H21 C10 0.948 . S
O22 Zn7 2.034 1_655 S
O22 C17 1.246 . S
O23 Zn15 2.024 1_655 S
O23 C17 1.249 1_556 S
H24 C6 0.948 . S
O25 Zn15 2.039 . S
O25 C29 1.251 1_556 S
O26 Zn7 2.025 . S
O26 C29 1.254 . S
O27 C8 1.246 1_556 S
O27 Zn15 2.034 1_565 S
O28 Zn7 2.024 1_565 S
O28 C8 1.249 . S
C29 O25 1.251 1_554 S
C29 O26 1.254 . S
H30 C3 0.949 . S
H31 C5 0.950 . S
H32 C12 0.949 . S
H33 C14 0.950 . S
C34 O50 1.251 . S
C34 O52 1.254 . S
N35 C36 1.333 . S
N35 C40 1.307 . S
N35 Zn41 2.020 . S
C36 N35 1.333 . S
C36 C37 1.379 . S
C36 H54 0.952 . S
C37 C36 1.379 . S
C37 C38 1.390 . S
C37 H64 0.949 . S
C38 C37 1.390 . S
C38 C39 1.357 . S
C39 C38 1.357 . S
C39 C40 1.370 . S
C39 H65 0.950 . S
C40 N35 1.307 . S
C40 C39 1.370 . S
C40 H58 0.948 . S
Zn41 N35 2.020 . S
Zn41 O50 2.039 . S
Zn41 O56 2.034 . S
Zn41 O60 2.025 . S
Zn41 O62 2.024 . S
C42 O61 1.246 . S
C42 O62 1.249 . S
N43 C44 1.307 . S
N43 C45 1.333 . S
N43 Zn49 2.020 . S
C44 N43 1.307 . S
C44 C48 1.370 . S
C44 H55 0.948 . S
C45 N43 1.333 . S
C45 C46 1.379 . S
C45 H53 0.952 . S
C46 C45 1.379 . S
C46 C47 1.390 . S
C46 H66 0.949 . S
C47 C46 1.390 . S
C47 C48 1.357 . S
C48 C44 1.370 . S
C48 C47 1.357 . S
C48 H67 0.950 . S
Zn49 N43 2.020 . S
Zn49 O52 2.025 . S
Zn49 O57 2.024 . S
Zn49 O59 2.039 . S
Zn49 O61 2.034 . S
O50 C34 1.251 . S
O50 Zn41 2.039 . S
C51 O56 1.246 . S
C51 O57 1.249 . S
O52 C34 1.254 . S
O52 Zn49 2.025 . S
H53 C45 0.952 . S
H54 C36 0.952 . S
H55 C44 0.948 . S
O56 Zn41 2.034 . S
O56 C51 1.246 . S
O57 Zn49 2.024 . S
O57 C51 1.249 . S
H58 C40 0.948 . S
O59 Zn49 2.039 . S
O59 C63 1.251 . S
O60 Zn41 2.025 . S
O60 C63 1.254 . S
O61 C42 1.246 . S
O61 Zn49 2.034 . S
O62 Zn41 2.024 . S
O62 C42 1.249 . S
C63 O59 1.251 . S
C63 O60 1.254 . S
H64 C37 0.949 . S
H65 C39 0.950 . S
H66 C46 0.949 . S
H67 C48 0.950 . S
H68 C71 0.931 . S
H69 C74 0.928 . S
H70 C76 0.930 . S
C71 H68 0.931 . S
C71 C72 1.413 . S
C71 C73 1.357 1_545 S
C72 C71 1.413 . S
C72 C76 1.429 1_645 S
C73 C71 1.357 1_565 S
C73 C74 1.375 1_655 S
C74 H69 0.928 . S
C74 C73 1.375 1_455 S
C74 C75 1.404 . S
C75 C74 1.404 . S
C75 C76 1.391 . S
C76 H70 0.930 . S
C76 C72 1.429 1_465 S
C76 C75 1.391 . S
H77 C80 0.931 . S
H78 C83 0.928 . S
H79 C85 0.930 . S
C80 H77 0.931 . S
C80 C81 1.413 . S
C80 C82 1.360 1_665 S
C81 C80 1.413 . S
C81 C85 1.429 1_665 S
C82 C80 1.360 1_445 S
C82 C83 1.372 . S
C83 H78 0.928 . S
C83 C82 1.372 . S
C83 C84 1.404 . S
C84 C83 1.404 . S
C84 C85 1.391 . S
C85 H79 0.930 . S
C85 C81 1.429 1_445 S
C85 C84 1.391 . S
H86 C89 0.931 . S
H87 C92 0.928 . S
H88 C94 0.930 1_554 S
C89 H86 0.931 . S
C89 C90 1.413 . S
C89 C91 1.360 . S
C90 C89 1.413 . S
C90 C94 1.429 . S
C91 C89 1.360 . S
C91 C92 1.372 . S
C92 H87 0.928 . S
C92 C91 1.372 . S
C92 C93 1.404 . S
C93 C92 1.404 . S
C93 C94 1.391 . S
C94 H88 0.930 1_556 S
C94 C90 1.429 . S
C94 C93 1.391 . S
H95 C98 0.931 . S
H96 C101 0.928 . S
H97 C103 0.930 1_556 S
C98 H95 0.931 . S
C98 C99 1.413 . S
C98 C100 1.360 . S
C99 C98 1.413 . S
C99 C103 1.429 . S
C100 C98 1.360 . S
C100 C101 1.372 . S
C101 H96 0.928 . S
C101 C100 1.372 . S
C101 C102 1.404 . S
C102 C101 1.404 . S
C102 C103 1.391 . S
C103 H97 0.930 1_554 S
C103 C99 1.429 . S
C103 C102 1.391 . S
C104 C105 1.369 . S
C104 C106 1.419 . S
C104 H108 0.930 . S
C105 C104 1.369 . S
C105 C114 1.429 1_554 S
C106 C104 1.419 . S
C106 C107 1.363 . S
C106 H109 0.929 . S
C107 C106 1.363 . S
C107 C113 1.428 1_554 S
H108 C104 0.930 . S
H109 C106 0.929 . S
S110 N111 1.613 . S
S110 N112 1.610 . S
N111 S110 1.613 . S
N111 C114 1.350 . S
N112 S110 1.610 . S
N112 C113 1.351 . S
C113 C107 1.428 1_556 S
C113 N112 1.351 . S
C113 C114 1.434 . S
C114 C105 1.429 1_556 S
C114 N111 1.350 . S
C114 C113 1.434 . S
C115 C116 1.369 1_556 S
C115 C117 1.419 . S
C115 H119 0.930 . S
C116 C115 1.369 1_554 S
C116 C125 1.429 . S
C117 C115 1.419 . S
C117 C118 1.363 . S
C117 H120 0.929 . S
C118 C117 1.363 . S
C118 C124 1.428 1_556 S
H119 C115 0.930 . S
H120 C117 0.929 . S
S121 N122 1.613 . S
S121 N123 1.610 . S
N122 S121 1.613 . S
N122 C125 1.350 . S
N123 S121 1.610 . S
N123 C124 1.351 . S
C124 C118 1.428 1_554 S
C124 N123 1.351 . S
C124 C125 1.434 . S
C125 C116 1.429 . S
C125 N122 1.350 . S
C125 C124 1.434 . S
C126 C127 1.369 . S
C126 C128 1.419 . S
C126 H130 0.930 . S
C127 C126 1.369 . S
C127 C136 1.429 1_554 S
C128 C126 1.419 . S
C128 C129 1.363 . S
C128 H131 0.929 . S
C129 C128 1.363 . S
C129 C135 1.428 1_554 S
H130 C126 0.930 . S
H131 C128 0.929 . S
S132 N133 1.613 . S
S132 N134 1.610 . S
N133 S132 1.613 . S
N133 C136 1.350 . S
N134 S132 1.610 . S
N134 C135 1.351 . S
C135 C129 1.428 1_556 S
C135 N134 1.351 . S
C135 C136 1.434 . S
C136 C127 1.429 1_556 S
C136 N133 1.350 . S
C136 C135 1.434 . S
C137 C138 1.369 . S
C137 C139 1.419 . S
C137 H141 0.930 . S
C138 C137 1.369 . S
C138 C147 1.429 1_554 S
C139 C137 1.419 . S
C139 C140 1.363 1_554 S
C139 H142 0.929 . S
C140 C139 1.363 1_556 S
C140 C146 1.428 . S
H141 C137 0.930 . S
H142 C139 0.929 . S
S143 N144 1.613 . S
S143 N145 1.610 . S
N144 S143 1.613 . S
N144 C147 1.350 . S
N145 S143 1.610 . S
N145 C146 1.351 . S
C146 C140 1.428 . S
C146 N145 1.351 . S
C146 C147 1.434 . S
C147 C138 1.429 1_556 S
C147 N144 1.350 . S
C147 C146 1.434 . S
C148 C149 1.369 . S
C148 C150 1.419 . S
C148 H152 0.930 . S
C149 C148 1.369 . S
C149 C158 1.429 . S
C150 C148 1.419 . S
C150 C151 1.363 . S
C150 H153 0.929 . S
C151 C150 1.363 . S
C151 C157 1.428 . S
H152 C148 0.930 . S
H153 C150 0.929 . S
S154 N155 1.613 . S
S154 N156 1.610 . S
N155 S154 1.613 . S
N155 C158 1.350 . S
N156 S154 1.610 . S
N156 C157 1.351 . S
C157 C151 1.428 . S
C157 N156 1.351 . S
C157 C158 1.434 . S
C158 C149 1.429 . S
C158 N155 1.350 . S
C158 C157 1.434 . S
C159 C160 1.369 . S
C159 C161 1.419 . S
C159 H163 0.930 . S
C160 C159 1.369 . S
C160 C169 1.429 . S
C161 C159 1.419 . S
C161 C162 1.363 . S
C161 H164 0.929 . S
C162 C161 1.363 . S
C162 C168 1.428 . S
H163 C159 0.930 . S
H164 C161 0.929 . S
S165 N166 1.613 . S
S165 N167 1.610 . S
N166 S165 1.613 . S
N166 C169 1.350 . S
N167 S165 1.610 . S
N167 C168 1.351 . S
C168 C162 1.428 . S
C168 N167 1.351 . S
C168 C169 1.434 . S
C169 C160 1.429 . S
C169 N166 1.350 . S
C169 C168 1.434 . S
C170 C171 1.369 . S
C170 C172 1.419 . S
C170 H174 0.930 . S
C171 C170 1.369 . S
C171 C180 1.429 . S
C172 C170 1.419 . S
C172 C173 1.363 . S
C172 H175 0.929 . S
C173 C172 1.363 . S
C173 C179 1.428 . S
H174 C170 0.930 . S
H175 C172 0.929 . S
S176 N177 1.613 . S
S176 N178 1.610 . S
N177 S176 1.613 . S
N177 C180 1.350 . S
N178 S176 1.610 . S
N178 C179 1.351 . S
C179 C173 1.428 . S
C179 N178 1.351 . S
C179 C180 1.434 . S
C180 C171 1.429 . S
C180 N177 1.350 . S
C180 C179 1.434 . S
C181 C182 1.369 . S
C181 C183 1.419 . S
C181 H185 0.930 . S
C182 C181 1.369 . S
C182 C191 1.429 . S
C183 C181 1.419 . S
C183 C184 1.363 . S
C183 H186 0.929 . S
C184 C183 1.363 . S
C184 C190 1.428 . S
H185 C181 0.930 . S
H186 C183 0.929 . S
S187 N188 1.613 . S
S187 N189 1.610 . S
N188 S187 1.613 . S
N188 C191 1.350 . S
N189 S187 1.610 . S
N189 C190 1.351 . S
C190 C184 1.428 . S
C190 N189 1.351 . S
C190 C191 1.434 . S
C191 C182 1.429 . S
C191 N188 1.350 . S
C191 C190 1.434 . S
C192 C193 1.369 1_565 S
C192 C194 1.419 . S
C192 H196 0.930 . S
C193 C192 1.369 1_545 S
C193 C202 1.429 1_455 S
C194 C192 1.419 . S
C194 C195 1.363 1_465 S
C194 H197 0.929 . S
C195 C194 1.363 1_645 S
C195 C201 1.428 . S
H196 C192 0.930 . S
H197 C194 0.929 . S
S198 N199 1.613 . S
S198 N200 1.610 . S
N199 S198 1.613 . S
N199 C202 1.350 . S
N200 S198 1.610 . S
N200 C201 1.351 . S
C201 C195 1.428 . S
C201 N200 1.351 . S
C201 C202 1.434 . S
C202 C193 1.429 1_655 S
C202 N199 1.350 . S
C202 C201 1.434 . S
C203 C204 1.369 1_665 S
C203 C205 1.419 . S
C203 H207 0.930 . S
C204 C203 1.369 1_445 S
C204 C213 1.429 . S
C205 C203 1.419 . S
C205 C206 1.363 1_665 S
C205 H208 0.929 . S
C206 C205 1.363 1_445 S
C206 C212 1.428 . S
H207 C203 0.930 . S
H208 C205 0.929 . S
S209 N210 1.613 . S
S209 N211 1.610 . S
N210 S209 1.613 . S
N210 C213 1.350 . S
N211 S209 1.610 . S
N211 C212 1.351 . S
C212 C206 1.428 . S
C212 N211 1.351 . S
C212 C213 1.434 . S
C213 C204 1.429 . S
C213 N210 1.350 . S
C213 C212 1.434 . S
C214 C215 1.369 . S
C214 C216 1.419 . S
C214 H218 0.930 . S
C215 C214 1.369 . S
C215 C224 1.429 . S
C216 C214 1.419 . S
C216 C217 1.363 . S
C216 H219 0.929 . S
C217 C216 1.363 . S
C217 C223 1.428 . S
H218 C214 0.930 . S
H219 C216 0.929 . S
S220 N221 1.613 . S
S220 N222 1.610 . S
N221 S220 1.613 . S
N221 C224 1.350 . S
N222 S220 1.610 . S
N222 C223 1.351 . S
C223 C217 1.428 . S
C223 N222 1.351 . S
C223 C224 1.434 . S
C224 C215 1.429 . S
C224 N221 1.350 . S
C224 C223 1.434 . S
C225 C226 1.369 . S
C225 C227 1.419 . S
C225 H229 0.930 . S
C226 C225 1.369 . S
C226 C235 1.429 . S
C227 C225 1.419 . S
C227 C228 1.363 . S
C227 H230 0.929 . S
C228 C227 1.363 . S
C228 C234 1.428 . S
H229 C225 0.930 . S
H230 C227 0.929 . S
S231 N232 1.613 . S
S231 N233 1.610 . S
N232 S231 1.613 . S
N232 C235 1.350 . S
N233 S231 1.610 . S
N233 C234 1.351 . S
C234 C228 1.428 . S
C234 N233 1.351 . S
C234 C235 1.434 . S
C235 C226 1.429 . S
C235 N232 1.350 . S
C235 C234 1.434 . S
C107 C99 1.418 . S
C105 C29 1.433 . S
C116 C8 1.435 . S
C118 C90 1.420 . S
C127 C0 1.432 . S
C129 C102 1.414 . S
C138 C17 1.428 . S
C140 C93 1.412 . S
C149 C63 1.431 . S
C151 C81 1.414 . S
C160 C42 1.435 . S
C162 C72 1.419 . S
C173 C84 1.411 . S
C171 C34 1.430 . S
C184 C75 1.415 . S
C182 C51 1.429 . S
C193 C4 1.493 . S
C195 C73 1.495 1_545 S
C204 C13 1.493 . S
C206 C82 1.495 . S
C217 C91 1.495 . S
C215 C38 1.495 . S
C226 C47 1.491 . S
C228 C100 1.495 . S
