# Generated by pormake.
# Topology pth, (4,4)-cn, num edge types: 1
# Building blocks:
#     Node 0, Type 0, BuildingBlock: GALJAG_clean_sbu_0, # of connection points: 4
#     Node 1, Type 0, BuildingBlock: GALJAG_clean_sbu_0, # of connection points: 4
#     Node 2, Type 0, BuildingBlock: GALJAG_clean_sbu_0, # of connection points: 4
#     Node 3, Type 1, BuildingBlock: NAWXER_clean_linker_0, # of connection points: 4
#     Node 4, Type 1, BuildingBlock: NAWXER_clean_linker_0, # of connection points: 4
#     Node 5, Type 1, BuildingBlock: NAWXER_clean_linker_0, # of connection points: 4
#     Edge 6, Type (0, 1), None
#     Edge 7, Type (0, 1), None
#     Edge 8, Type (0, 1), None
#     Edge 9, Type (0, 1), None
#     Edge 10, Type (0, 1), None
#     Edge 11, Type (0, 1), None
#     Edge 12, Type (0, 1), None
#     Edge 13, Type (0, 1), None
#     Edge 14, Type (0, 1), None
#     Edge 15, Type (0, 1), None
#     Edge 16, Type (0, 1), None
#     Edge 17, Type (0, 1), None
# Relax obj value: 0.002
# Max RMSD: 0.036
# Mean RMSD: 0.021
data_MOF--net-pth--node1-GALJAG_clean_sbu_0--node2-NAWXER_clean_linker_0--edge1-none
_symmetry_space_group_name_H-M    P1
_symmetry_Int_Tables_number       1
_symmetry_cell_setting            triclinic
loop_
_symmetry_equiv_pos_as_xyz
'x, y, z'
_cell_length_a     15.919629
_cell_length_b     15.920747
_cell_length_c     34.482504
_cell_angle_alpha  90.159001
_cell_angle_beta   90.092648
_cell_angle_gamma 120.0057
loop_
_atom_site_label
_atom_site_type_symbol
_atom_site_fract_x
_atom_site_fract_y
_atom_site_fract_z
_atom_type_partial_charge
In0 In 0.02083 0.00278 0.04519 0.0
O1 O 0.94112 0.07499 0.07157 0.0
O2 O 0.082 0.11612 0.09309 0.0
C3 C 0.88897 0.87281 0.99555 0.0
C4 C 0.15689 0.13007 0.9964 0.0
C5 C 0.02403 0.87549 0.09526 0.0
O6 O 0.87709 0.93707 0.01208 0.0
O7 O 0.96701 0.8747 0.00393 0.0
O8 O 0.09233 0.92308 0.07165 0.0
O9 O 0.95534 0.89356 0.09393 0.0
C10 C 0.00919 0.12754 0.09473 0.0
O11 O 0.17572 0.08336 0.02116 0.0
O12 O 0.07006 0.11123 0.99612 0.0
In13 In 0.98969 0.98911 0.3788 0.0
O14 O 0.06946 0.14098 0.35264 0.0
O15 O 0.92877 0.04102 0.33094 0.0
C16 C 0.12123 0.99091 0.42843 0.0
C17 C 0.85328 0.98019 0.42758 0.0
C18 C 0.9867 0.85835 0.32861 0.0
O19 O 0.1333 0.0671 0.41205 0.0
O20 O 0.04316 0.91483 0.41993 0.0
O21 O 0.91827 0.8378 0.35218 0.0
O22 O 0.0554 0.94511 0.33004 0.0
C23 C 0.00154 0.12528 0.32941 0.0
O24 O 0.83465 0.91478 0.40264 0.0
O25 O 0.94011 0.04821 0.42804 0.0
In26 In 0.00339 0.0174 0.71205 0.0
O27 O 0.94483 0.87615 0.74634 0.0
O28 O 0.87032 0.95568 0.75049 0.0
C29 C 0.13233 0.01123 0.66334 0.0
C30 C 0.88044 0.02712 0.66113 0.0
C31 C 0.12647 0.14988 0.76318 0.0
O32 O 0.06221 0.93514 0.67734 0.0
O33 O 0.13657 0.08923 0.67372 0.0
O34 O 0.08144 0.17026 0.73807 0.0
O35 O 0.1072 0.06279 0.7629 0.0
C36 C 0.87475 0.88195 0.76058 0.0
O37 O 0.92529 0.09227 0.68646 0.0
O38 O 0.89975 0.95932 0.66111 0.0
C39 C 0.93309 0.1755 0.27478 0.0
C40 C 0.00488 0.2003 0.30338 0.0
C41 C 0.9336 0.24699 0.25119 0.0
C42 C 0.0058 0.34439 0.25591 0.0
C43 C 0.07755 0.29775 0.30778 0.0
C44 C 0.07741 0.3693 0.28446 0.0
C45 C 0.00509 0.42145 0.23248 0.0
C46 C 0.07791 0.24698 0.14932 0.0
C47 C 0.00599 0.19959 0.12077 0.0
C48 C 0.07756 0.31835 0.17288 0.0
C49 C 0.00542 0.34359 0.16818 0.0
C50 C 0.93337 0.22438 0.11639 0.0
C51 C 0.93368 0.29647 0.13968 0.0
C52 C 0.00629 0.42176 0.19157 0.0
C53 C 0.09289 0.77341 0.11802 0.0
C54 C 0.02194 0.80084 0.12116 0.0
C55 C 0.08793 0.69917 0.14112 0.0
C56 C 0.01289 0.65209 0.16812 0.0
C57 C 0.9466 0.75342 0.14818 0.0
C58 C 0.94201 0.67949 0.17143 0.0
C59 C 0.00797 0.57229 0.19154 0.0
C60 C 0.91804 0.6872 0.30583 0.0
C61 C 0.98892 0.78557 0.30271 0.0
C62 C 0.92317 0.61769 0.28277 0.0
C63 C 0.99832 0.64542 0.25581 0.0
C64 C 0.06436 0.81326 0.27573 0.0
C65 C 0.06912 0.74369 0.25251 0.0
C66 C 0.0034 0.57029 0.23243 0.0
H67 H 0.876 0.10095 0.27082 0.0
H68 H 0.8767 0.22646 0.22977 0.0
H69 H 0.13343 0.31899 0.32972 0.0
H70 H 0.13342 0.44424 0.28866 0.0
H71 H 0.13496 0.22951 0.15326 0.0
H72 H 0.13454 0.35502 0.19428 0.0
H73 H 0.8774 0.18943 0.09449 0.0
H74 H 0.87771 0.31541 0.1355 0.0
H75 H 0.15142 0.80825 0.09731 0.0
H76 H 0.14301 0.67862 0.13799 0.0
H77 H 0.89057 0.77268 0.15107 0.0
H78 H 0.8824 0.64282 0.19156 0.0
H79 H 0.85944 0.66368 0.32651 0.0
H80 H 0.86815 0.54208 0.28588 0.0
H81 H 0.12034 0.88855 0.27286 0.0
H82 H 0.12878 0.76645 0.2324 0.0
N83 N 0.00287 0.4953 0.25136 0.0
N84 N 0.00851 0.49756 0.17265 0.0
C85 C 0.80561 0.05668 0.47982 0.0
C86 C 0.77934 0.98009 0.45338 0.0
C87 C 0.73581 0.05961 0.50328 0.0
C88 C 0.63854 0.98533 0.50114 0.0
C89 C 0.68189 0.90606 0.45103 0.0
C90 C 0.61196 0.909 0.4746 0.0
C91 C 0.56362 0.98954 0.525 0.0
C92 C 0.75686 0.9493 0.60858 0.0
C93 C 0.80614 0.02598 0.63511 0.0
C94 C 0.68198 0.94388 0.58566 0.0
C95 C 0.65572 0.01573 0.58844 0.0
C96 C 0.77987 0.09788 0.6379 0.0
C97 C 0.70488 0.09245 0.61489 0.0
C98 C 0.57401 0.00865 0.56536 0.0
C99 C 0.18457 0.92655 0.61623 0.0
C100 C 0.20541 0.01019 0.63745 0.0
C101 C 0.25473 0.92629 0.59197 0.0
C102 C 0.34715 0.00901 0.5892 0.0
C103 C 0.29749 0.09341 0.63407 0.0
C104 C 0.36829 0.09232 0.61054 0.0
C105 C 0.42336 0.00644 0.56593 0.0
C106 C 0.26193 0.0746 0.47393 0.0
C107 C 0.19364 0.98971 0.45472 0.0
C108 C 0.33153 0.07318 0.49823 0.0
C109 C 0.3349 0.98741 0.50299 0.0
C110 C 0.19585 0.90339 0.46029 0.0
C111 C 0.26699 0.90265 0.48383 0.0
C112 C 0.4136 0.98847 0.52577 0.0
H113 H 0.88002 0.11528 0.48205 0.0
H114 H 0.75771 0.12077 0.52268 0.0
H115 H 0.65952 0.84649 0.43075 0.0
H116 H 0.53708 0.8515 0.47219 0.0
H117 H 0.77484 0.89227 0.60603 0.0
H118 H 0.64343 0.88252 0.56628 0.0
H119 H 0.81613 0.1574 0.65829 0.0
H120 H 0.68516 0.14819 0.61775 0.0
H121 H 0.11407 0.86162 0.61828 0.0
H122 H 0.23765 0.86088 0.57602 0.0
H123 H 0.31551 0.15873 0.65026 0.0
H124 H 0.43949 0.1565 0.60893 0.0
H125 H 0.26145 0.14189 0.47019 0.0
H126 H 0.38426 0.13953 0.51259 0.0
H127 H 0.14416 0.83705 0.44567 0.0
H128 H 0.26921 0.8361 0.48702 0.0
N129 N 0.48369 0.9802 0.50671 0.0
N130 N 0.50338 0.01648 0.58431 0.0
C131 C 0.25072 0.19554 0.8154 0.0
C132 C 0.20109 0.223 0.78921 0.0
C133 C 0.32603 0.26499 0.83825 0.0
C134 C 0.35236 0.36313 0.83574 0.0
C135 C 0.22742 0.32119 0.78669 0.0
C136 C 0.30283 0.39074 0.80964 0.0
C137 C 0.4345 0.43772 0.85875 0.0
C138 C 0.20411 0.25436 0.94451 0.0
C139 C 0.23061 0.2039 0.97062 0.0
C140 C 0.27367 0.3271 0.92107 0.0
C141 C 0.37092 0.34995 0.9229 0.0
C142 C 0.32805 0.22722 0.97267 0.0
C143 C 0.39774 0.30009 0.94912 0.0
C144 C 0.44556 0.429 0.89902 0.0
C145 C 0.74829 0.81598 0.95011 0.0
C146 C 0.81638 0.79917 0.96923 0.0
C147 C 0.67846 0.74494 0.92578 0.0
C148 C 0.67466 0.65557 0.92092 0.0
C149 C 0.81376 0.71041 0.96354 0.0
C150 C 0.74239 0.63851 0.93999 0.0
C151 C 0.59563 0.57789 0.89817 0.0
C152 C 0.82329 0.74522 0.80743 0.0
C153 C 0.80201 0.80777 0.78645 0.0
C154 C 0.75351 0.67481 0.83173 0.0
C155 C 0.66103 0.66488 0.83477 0.0
C156 C 0.70986 0.79867 0.79011 0.0
C157 C 0.63945 0.7268 0.81367 0.0
C158 C 0.5852 0.58611 0.85809 0.0
H159 H 0.23271 0.12052 0.81772 0.0
H160 H 0.36484 0.24213 0.85735 0.0
H161 H 0.19091 0.34451 0.76657 0.0
H162 H 0.32259 0.46622 0.807 0.0
H163 H 0.12971 0.23865 0.94252 0.0
H164 H 0.2516 0.36645 0.90194 0.0
H165 H 0.35059 0.18993 0.99271 0.0
H166 H 0.47262 0.31737 0.95129 0.0
H167 H 0.74908 0.88393 0.95394 0.0
H168 H 0.62586 0.75872 0.91152 0.0
H169 H 0.8653 0.6956 0.97809 0.0
H170 H 0.73983 0.56956 0.93671 0.0
H171 H 0.89385 0.75098 0.80517 0.0
H172 H 0.77094 0.62667 0.84748 0.0
H173 H 0.69152 0.84579 0.7741 0.0
H174 H 0.56819 0.7196 0.81549 0.0
N175 N 0.50485 0.51615 0.8398 0.0
N176 N 0.52582 0.49956 0.91722 0.0
loop_
_geom_bond_atom_site_label_1
_geom_bond_atom_site_label_2
_geom_bond_distance
_geom_bond_site_symmetry_2
_ccdc_geom_bond_type
In0 O1 2.294 1_455 S
In0 O2 2.326 . S
In0 O6 2.266 1_445 S
In0 O7 2.326 1_445 S
In0 O8 2.266 1_545 S
In0 O9 2.326 1_445 S
In0 O11 2.294 . S
In0 O12 2.326 . S
O1 In0 2.294 1_655 S
O1 C10 1.240 1_655 S
O2 In0 2.326 . S
O2 C10 1.252 . S
C3 O6 1.252 . S
C3 O7 1.260 . S
C4 O11 1.240 . S
C4 O12 1.252 . S
C5 O8 1.252 1_655 S
C5 O9 1.260 . S
O6 In0 2.266 1_665 S
O6 C3 1.252 . S
O7 In0 2.326 1_665 S
O7 C3 1.260 . S
O8 In0 2.266 1_565 S
O8 C5 1.252 1_455 S
O9 In0 2.326 1_665 S
O9 C5 1.260 . S
C10 O1 1.240 1_455 S
C10 O2 1.252 . S
O11 In0 2.294 . S
O11 C4 1.240 . S
O12 In0 2.326 . S
O12 C4 1.252 . S
In13 O14 2.294 . S
In13 O15 2.326 1_455 S
In13 O19 2.266 . S
In13 O20 2.326 1_545 S
In13 O21 2.266 1_445 S
In13 O22 2.326 1_545 S
In13 O24 2.294 1_445 S
In13 O25 2.326 1_455 S
O14 In13 2.294 . S
O14 C23 1.240 1_455 S
O15 In13 2.326 1_655 S
O15 C23 1.252 . S
C16 O19 1.252 1_565 S
C16 O20 1.260 . S
C17 O24 1.240 1_545 S
C17 O25 1.252 . S
C18 O21 1.252 1_455 S
C18 O22 1.260 . S
O19 In13 2.266 . S
O19 C16 1.252 1_545 S
O20 In13 2.326 1_565 S
O20 C16 1.260 . S
O21 In13 2.266 1_665 S
O21 C18 1.252 1_655 S
O22 In13 2.326 1_565 S
O22 C18 1.260 . S
C23 O14 1.240 1_655 S
C23 O15 1.252 . S
O24 In13 2.294 1_665 S
O24 C17 1.240 1_565 S
O25 In13 2.326 1_655 S
O25 C17 1.252 . S
In26 O27 2.294 1_445 S
In26 O28 2.326 1_445 S
In26 O32 2.266 1_545 S
In26 O33 2.326 . S
In26 O34 2.266 . S
In26 O35 2.326 . S
In26 O37 2.294 1_455 S
In26 O38 2.326 1_445 S
O27 In26 2.294 1_665 S
O27 C36 1.240 . S
O28 In26 2.326 1_665 S
O28 C36 1.252 . S
C29 O32 1.252 1_545 S
C29 O33 1.260 . S
C30 O37 1.240 1_565 S
C30 O38 1.252 . S
C31 O34 1.252 . S
C31 O35 1.260 . S
O32 In26 2.266 1_565 S
O32 C29 1.252 1_565 S
O33 In26 2.326 . S
O33 C29 1.260 . S
O34 In26 2.266 . S
O34 C31 1.252 . S
O35 In26 2.326 . S
O35 C31 1.260 . S
C36 O27 1.240 . S
C36 O28 1.252 . S
O37 In26 2.294 1_655 S
O37 C30 1.240 1_545 S
O38 In26 2.326 1_665 S
O38 C30 1.252 . S
C39 C40 1.384 1_655 S
C39 C41 1.384 . S
C39 H67 0.931 . S
C40 C39 1.384 1_455 S
C40 C43 1.382 . S
C41 C39 1.384 . S
C41 C42 1.381 1_655 S
C41 H68 0.930 . S
C42 C41 1.381 1_455 S
C42 C44 1.381 . S
C42 C45 1.487 . S
C43 C40 1.382 . S
C43 C44 1.387 . S
C43 H69 0.930 . S
C44 C42 1.381 . S
C44 C43 1.387 . S
C44 H70 0.931 . S
C45 C42 1.487 . S
C45 C52 1.399 . S
C45 N83 1.343 . S
C46 C47 1.384 . S
C46 C48 1.384 . S
C46 H71 0.931 . S
C47 C46 1.384 . S
C47 C50 1.382 1_455 S
C48 C46 1.384 . S
C48 C49 1.381 . S
C48 H72 0.930 . S
C49 C48 1.381 . S
C49 C51 1.381 1_455 S
C49 C52 1.487 . S
C50 C47 1.382 1_655 S
C50 C51 1.387 . S
C50 H73 0.930 . S
C51 C49 1.381 1_655 S
C51 C50 1.387 . S
C51 H74 0.931 . S
C52 C45 1.399 . S
C52 C49 1.487 . S
C52 N84 1.343 1_455 S
C53 C54 1.384 . S
C53 C55 1.384 . S
C53 H75 0.931 . S
C54 C53 1.384 . S
C54 C57 1.382 1_455 S
C55 C53 1.384 . S
C55 C56 1.381 . S
C55 H76 0.930 . S
C56 C55 1.381 . S
C56 C58 1.381 1_455 S
C56 C59 1.487 . S
C57 C54 1.382 1_655 S
C57 C58 1.387 . S
C57 H77 0.930 . S
C58 C56 1.381 1_655 S
C58 C57 1.387 . S
C58 H78 0.931 . S
C59 C56 1.487 . S
C59 C66 1.399 . S
C59 N84 1.343 1_455 S
C60 C61 1.384 1_655 S
C60 C62 1.384 . S
C60 H79 0.931 . S
C61 C60 1.384 1_455 S
C61 C64 1.382 . S
C62 C60 1.384 . S
C62 C63 1.381 1_655 S
C62 H80 0.930 . S
C63 C62 1.381 1_455 S
C63 C65 1.381 . S
C63 C66 1.487 . S
C64 C61 1.382 . S
C64 C65 1.387 . S
C64 H81 0.930 . S
C65 C63 1.381 . S
C65 C64 1.387 . S
C65 H82 0.931 . S
C66 C59 1.399 . S
C66 C63 1.487 . S
C66 N83 1.343 . S
H67 C39 0.931 . S
H68 C41 0.930 . S
H69 C43 0.930 . S
H70 C44 0.931 . S
H71 C46 0.931 . S
H72 C48 0.930 . S
H73 C50 0.930 . S
H74 C51 0.931 . S
H75 C53 0.931 . S
H76 C55 0.930 . S
H77 C57 0.930 . S
H78 C58 0.931 . S
H79 C60 0.931 . S
H80 C62 0.930 . S
H81 C64 0.930 . S
H82 C65 0.931 . S
N83 C45 1.343 . S
N83 C66 1.343 . S
N84 C52 1.343 1_655 S
N84 C59 1.343 1_655 S
C85 C86 1.384 . S
C85 C87 1.384 . S
C85 H113 0.931 . S
C86 C85 1.384 . S
C86 C89 1.382 1_545 S
C87 C85 1.384 . S
C87 C88 1.381 1_545 S
C87 H114 0.930 . S
C88 C87 1.381 1_565 S
C88 C90 1.381 . S
C88 C91 1.487 . S
C89 C86 1.382 1_565 S
C89 C90 1.387 . S
C89 H115 0.930 . S
C90 C88 1.381 . S
C90 C89 1.387 . S
C90 H116 0.931 . S
C91 C88 1.487 . S
C91 C98 1.399 1_565 S
C91 N129 1.343 . S
C92 C93 1.384 1_565 S
C92 C94 1.384 . S
C92 H117 0.931 . S
C93 C92 1.384 1_545 S
C93 C96 1.382 . S
C94 C92 1.384 . S
C94 C95 1.381 1_565 S
C94 H118 0.930 . S
C95 C94 1.381 1_545 S
C95 C97 1.381 . S
C95 C98 1.487 . S
C96 C93 1.382 . S
C96 C97 1.387 . S
C96 H119 0.930 . S
C97 C95 1.381 . S
C97 C96 1.387 . S
C97 H120 0.931 . S
C98 C91 1.399 1_545 S
C98 C95 1.487 . S
C98 N130 1.343 . S
C99 C100 1.384 1_565 S
C99 C101 1.384 . S
C99 H121 0.931 . S
C100 C99 1.384 1_545 S
C100 C103 1.382 . S
C101 C99 1.384 . S
C101 C102 1.381 1_565 S
C101 H122 0.930 . S
C102 C101 1.381 1_545 S
C102 C104 1.381 . S
C102 C105 1.487 . S
C103 C100 1.382 . S
C103 C104 1.387 . S
C103 H123 0.930 . S
C104 C102 1.381 . S
C104 C103 1.387 . S
C104 H124 0.931 . S
C105 C102 1.487 . S
C105 C112 1.399 1_545 S
C105 N130 1.343 . S
C106 C107 1.384 . S
C106 C108 1.384 . S
C106 H125 0.931 . S
C107 C106 1.384 . S
C107 C110 1.382 1_545 S
C108 C106 1.384 . S
C108 C109 1.381 1_545 S
C108 H126 0.930 . S
C109 C108 1.381 1_565 S
C109 C111 1.381 . S
C109 C112 1.487 . S
C110 C107 1.382 1_565 S
C110 C111 1.387 . S
C110 H127 0.930 . S
C111 C109 1.381 . S
C111 C110 1.387 . S
C111 H128 0.931 . S
C112 C105 1.399 1_565 S
C112 C109 1.487 . S
C112 N129 1.343 . S
H113 C85 0.931 . S
H114 C87 0.930 . S
H115 C89 0.930 . S
H116 C90 0.931 . S
H117 C92 0.931 . S
H118 C94 0.930 . S
H119 C96 0.930 . S
H120 C97 0.931 . S
H121 C99 0.931 . S
H122 C101 0.930 . S
H123 C103 0.930 . S
H124 C104 0.931 . S
H125 C106 0.931 . S
H126 C108 0.930 . S
H127 C110 0.930 . S
H128 C111 0.931 . S
N129 C91 1.343 . S
N129 C112 1.343 . S
N130 C98 1.343 . S
N130 C105 1.343 . S
C131 C132 1.384 . S
C131 C133 1.384 . S
C131 H159 0.931 . S
C132 C131 1.384 . S
C132 C135 1.382 . S
C133 C131 1.384 . S
C133 C134 1.381 . S
C133 H160 0.930 . S
C134 C133 1.381 . S
C134 C136 1.381 . S
C134 C137 1.487 . S
C135 C132 1.382 . S
C135 C136 1.387 . S
C135 H161 0.930 . S
C136 C134 1.381 . S
C136 C135 1.387 . S
C136 H162 0.931 . S
C137 C134 1.487 . S
C137 C144 1.399 . S
C137 N175 1.343 . S
C138 C139 1.384 . S
C138 C140 1.384 . S
C138 H163 0.931 . S
C139 C138 1.384 . S
C139 C142 1.382 . S
C140 C138 1.384 . S
C140 C141 1.381 . S
C140 H164 0.930 . S
C141 C140 1.381 . S
C141 C143 1.381 . S
C141 C144 1.487 . S
C142 C139 1.382 . S
C142 C143 1.387 . S
C142 H165 0.945 . S
C143 C141 1.381 . S
C143 C142 1.387 . S
C143 H166 0.931 . S
C144 C137 1.399 . S
C144 C141 1.487 . S
C144 N176 1.343 . S
C145 C146 1.384 . S
C145 C147 1.384 . S
C145 H167 0.931 . S
C146 C145 1.384 . S
C146 C149 1.382 . S
C147 C145 1.384 . S
C147 C148 1.381 . S
C147 H168 0.930 . S
C148 C147 1.381 . S
C148 C150 1.381 . S
C148 C151 1.487 . S
C149 C146 1.382 . S
C149 C150 1.387 . S
C149 H169 0.941 . S
C150 C148 1.381 . S
C150 C149 1.387 . S
C150 H170 0.931 . S
C151 C148 1.487 . S
C151 C158 1.399 . S
C151 N176 1.343 . S
C152 C153 1.384 . S
C152 C154 1.384 . S
C152 H171 0.931 . S
C153 C152 1.384 . S
C153 C156 1.382 . S
C154 C152 1.384 . S
C154 C155 1.381 . S
C154 H172 0.930 . S
C155 C154 1.381 . S
C155 C157 1.381 . S
C155 C158 1.487 . S
C156 C153 1.382 . S
C156 C157 1.387 . S
C156 H173 0.930 . S
C157 C155 1.381 . S
C157 C156 1.387 . S
C157 H174 0.931 . S
C158 C151 1.399 . S
C158 C155 1.487 . S
C158 N175 1.343 . S
H159 C131 0.931 . S
H160 C133 0.930 . S
H161 C135 0.930 . S
H162 C136 0.931 . S
H163 C138 0.931 . S
H164 C140 0.930 . S
H165 C142 0.945 . S
H166 C143 0.931 . S
H167 C145 0.931 . S
H168 C147 0.930 . S
H169 C149 0.941 . S
H170 C150 0.931 . S
H171 C152 0.931 . S
H172 C154 0.930 . S
H173 C156 0.930 . S
H174 C157 0.931 . S
N175 C137 1.343 . S
N175 C158 1.343 . S
N176 C144 1.343 . S
N176 C151 1.343 . S
C47 C10 1.528 . S
C17 C86 1.528 . S
C36 C153 1.525 . S
C5 C54 1.526 1_655 S
C107 C16 1.526 1_545 S
C31 C132 1.528 . S
C93 C30 1.528 1_545 S
C3 C146 1.523 1_554 S
C61 C18 1.525 . S
C100 C29 1.525 . S
C139 C4 1.533 1_556 S
C23 C40 1.528 1_655 S
