# Generated by pormake.
# Topology pto, (3,4)-cn, num edge types: 1
# Building blocks:
#     Node 0, Type 0, BuildingBlock: BETDIP_clean_linker_0, # of connection points: 3
#     Node 1, Type 0, BuildingBlock: BETDIP_clean_linker_0, # of connection points: 3
#     Node 2, Type 0, BuildingBlock: BETDIP_clean_linker_0, # of connection points: 3
#     Node 3, Type 0, BuildingBlock: BETDIP_clean_linker_0, # of connection points: 3
#     Node 4, Type 0, BuildingBlock: BETDIP_clean_linker_0, # of connection points: 3
#     Node 5, Type 0, BuildingBlock: BETDIP_clean_linker_0, # of connection points: 3
#     Node 6, Type 0, BuildingBlock: BETDIP_clean_linker_0, # of connection points: 3
#     Node 7, Type 0, BuildingBlock: BETDIP_clean_linker_0, # of connection points: 3
#     Node 8, Type 1, BuildingBlock: NAWXER_clean_sbu_0, # of connection points: 4
#     Node 9, Type 1, BuildingBlock: NAWXER_clean_sbu_0, # of connection points: 4
#     Node 10, Type 1, BuildingBlock: NAWXER_clean_sbu_0, # of connection points: 4
#     Node 11, Type 1, BuildingBlock: NAWXER_clean_sbu_0, # of connection points: 4
#     Node 12, Type 1, BuildingBlock: NAWXER_clean_sbu_0, # of connection points: 4
#     Node 13, Type 1, BuildingBlock: NAWXER_clean_sbu_0, # of connection points: 4
#     Edge 14, Type (0, 1), None
#     Edge 15, Type (0, 1), None
#     Edge 16, Type (0, 1), None
#     Edge 17, Type (0, 1), None
#     Edge 18, Type (0, 1), None
#     Edge 19, Type (0, 1), None
#     Edge 20, Type (0, 1), None
#     Edge 21, Type (0, 1), None
#     Edge 22, Type (0, 1), None
#     Edge 23, Type (0, 1), None
#     Edge 24, Type (0, 1), None
#     Edge 25, Type (0, 1), None
#     Edge 26, Type (0, 1), None
#     Edge 27, Type (0, 1), None
#     Edge 28, Type (0, 1), None
#     Edge 29, Type (0, 1), None
#     Edge 30, Type (0, 1), None
#     Edge 31, Type (0, 1), None
#     Edge 32, Type (0, 1), None
#     Edge 33, Type (0, 1), None
#     Edge 34, Type (0, 1), None
#     Edge 35, Type (0, 1), None
#     Edge 36, Type (0, 1), None
#     Edge 37, Type (0, 1), None
# Relax obj value: 0.021
# Max RMSD: 0.136
# Mean RMSD: 0.058
data_MOF--net-pto--node1-NAWXER_clean_sbu_0--node2-BETDIP_clean_linker_0--edge1-none
_symmetry_space_group_name_H-M    P1
_symmetry_Int_Tables_number       1
_symmetry_cell_setting            triclinic
loop_
_symmetry_equiv_pos_as_xyz
'x, y, z'
_cell_length_a     16.348009
_cell_length_b     17.002825
_cell_length_c     16.078047
_cell_angle_alpha  99.940883
_cell_angle_beta   101.46677
_cell_angle_gamma 102.57463
loop_
_atom_site_label
_atom_site_type_symbol
_atom_site_fract_x
_atom_site_fract_y
_atom_site_fract_z
_atom_type_partial_charge
H0 H 0.28683 0.44642 0.45924 0.0
H1 H 0.49848 0.38592 0.36607 0.0
H2 H 0.37873 0.56256 0.26529 0.0
H3 H 0.51529 0.32627 0.48254 0.0
C4 C 0.44773 0.29821 0.47828 0.0
C5 C 0.33397 0.45807 0.42093 0.0
C6 C 0.32817 0.51336 0.36592 0.0
C7 C 0.39453 0.41155 0.42113 0.0
C8 C 0.45379 0.42425 0.36935 0.0
C9 C 0.45007 0.4796 0.31384 0.0
C10 C 0.38637 0.52404 0.31193 0.0
N11 N 0.3856 0.34432 0.46334 0.0
H12 H 0.21061 0.70154 0.59478 0.0
H13 H 0.48286 0.8056 0.7078 0.0
H14 H 0.34666 0.60064 0.78977 0.0
H15 H 0.47429 0.87516 0.6079 0.0
C16 C 0.40898 0.88191 0.5905 0.0
C17 C 0.27113 0.69779 0.63402 0.0
C18 C 0.27062 0.64108 0.68803 0.0
C19 C 0.34757 0.75705 0.63884 0.0
C20 C 0.42462 0.75666 0.69683 0.0
C21 C 0.42516 0.69944 0.75035 0.0
C22 C 0.34831 0.64044 0.74379 0.0
N23 N 0.34123 0.82449 0.59783 0.0
H24 H 0.76164 0.67491 0.19061 0.0
H25 H 0.84886 0.80423 0.45917 0.0
H26 H 0.65757 0.87548 0.28389 0.0
H27 H 0.94493 0.72636 0.47048 0.0
C28 C 0.94275 0.6946 0.40512 0.0
C29 C 0.75641 0.72108 0.24362 0.0
C30 C 0.70282 0.77319 0.22669 0.0
C31 C 0.81005 0.73246 0.32633 0.0
C32 C 0.80659 0.79407 0.39517 0.0
C33 C 0.74941 0.84433 0.38117 0.0
C34 C 0.69809 0.83402 0.29634 0.0
N35 N 0.87157 0.68518 0.33379 0.0
H36 H 0.64444 0.21722 0.76231 0.0
H37 H 0.7949 0.47222 0.83858 0.0
H38 H 0.84696 0.3023 0.63926 0.0
H39 H 0.68671 0.49283 0.89836 0.0
C40 C 0.65621 0.43508 0.91275 0.0
C41 C 0.69254 0.26739 0.75253 0.0
C42 C 0.74368 0.2504 0.69423 0.0
C43 C 0.70779 0.34848 0.80311 0.0
C44 C 0.77688 0.41143 0.79581 0.0
C45 C 0.82627 0.39475 0.73568 0.0
C46 C 0.80678 0.31545 0.68341 0.0
N47 N 0.65989 0.36145 0.86755 0.0
H48 H 0.86474 0.82674 0.97709 0.0
H49 H 0.98285 0.91219 0.78211 0.0
H50 H 0.75063 0.97646 0.82281 0.0
H51 H 0.97012 0.76458 0.75819 0.0
C52 C 0.99844 0.7587 0.82336 0.0
C53 C 0.86735 0.86426 0.92906 0.0
C54 C 0.80177 0.90414 0.90783 0.0
C55 C 0.93203 0.86592 0.88358 0.0
C56 C 0.93352 0.9116 0.8183 0.0
C57 C 0.86838 0.95191 0.79586 0.0
C58 C 0.80291 0.94833 0.84158 0.0
N59 N 0.98699 0.81213 0.89601 0.0
H60 H 0.70037 0.22914 0.28415 0.0
H61 H 0.97809 0.32235 0.35478 0.0
H62 H 0.82251 0.42353 0.17558 0.0
H63 H 0.9739 0.22964 0.4366 0.0
C64 C 0.90793 0.19898 0.43511 0.0
C65 C 0.75848 0.26932 0.2766 0.0
C66 C 0.75154 0.32656 0.22418 0.0
C67 C 0.83946 0.26658 0.32404 0.0
C68 C 0.91512 0.32107 0.31681 0.0
C69 C 0.90925 0.37613 0.26107 0.0
C70 C 0.82736 0.37852 0.21539 0.0
N71 N 0.83963 0.2119 0.382 0.0
H72 H 0.1167 0.30484 0.74849 0.0
H73 H 0.29349 0.19952 0.89634 0.0
H74 H 0.27698 0.44497 -0.00036 0.0
H75 H 0.3397 0.2057 0.77083 0.0
C76 C 0.27858 0.17618 0.723 0.0
C77 C 0.16217 0.30892 0.80916 0.0
C78 C 0.18469 0.3802 0.87753 0.0
C79 C 0.20459 0.2462 0.81454 0.0
C80 C 0.26243 0.24943 0.89234 0.0
C81 C 0.29327 0.32241 0.95657 0.0
C82 C 0.25265 0.38753 0.95057 0.0
N83 N 0.2043 0.1916 0.73683 0.0
H84 H 0.32729 1.00169 0.21121 0.0
H85 H 0.22406 0.7411 0.09363 0.0
H86 H 0.15303 0.8485 0.32072 0.0
H87 H 0.35418 0.7605 0.07661 0.0
C88 C 0.37897 0.82233 0.06781 0.0
C89 C 0.28245 0.94275 0.20619 0.0
C90 C 0.23567 0.93375 0.2693 0.0
C91 C 0.28033 0.8741 0.14317 0.0
C92 C 0.22656 0.79562 0.14106 0.0
C93 C 0.18241 0.78599 0.20656 0.0
C94 C 0.18443 0.85597 0.26803 0.0
N95 N 0.3451 0.88395 0.09551 0.0
C96 C 0.98577 0.44092 0.26049 0.0
C97 C 0.1487 0.70387 0.22341 0.0
O98 O 1.03297 0.48714 0.33328 0.0
Zn99 Zn 0.12779 0.60506 0.37579 0.0
O100 O 0.99481 0.4614 0.18976 0.0
Zn101 Zn 0.07971 0.56681 0.2385 0.0
O102 O 0.20131 0.53945 0.28435 0.0
O103 O 0.23518 0.58295 0.42709 0.0
O104 O 0.10642 0.64166 0.16223 0.0
O105 O 0.16163 0.69664 0.30278 0.0
O106 O 0.07064 0.66414 0.45086 0.0
O107 O 1.00416 0.62883 0.31054 0.0
C108 C 0.25376 0.55015 0.35865 0.0
C109 C 1.00706 0.66213 0.38946 0.0
C110 C 0.90749 0.45376 0.73638 0.0
C111 C 0.18857 0.59868 0.70397 0.0
O112 O 0.95915 0.49397 0.80953 0.0
Zn113 Zn 0.08776 0.57314 0.85517 0.0
O114 O 0.9325 0.4551 0.66644 0.0
Zn115 Zn 0.04742 0.52634 0.71563 0.0
O116 O 0.10964 0.45134 0.78604 0.0
O117 O 0.14821 0.50883 0.92653 0.0
O118 O 0.12472 0.55595 0.64186 0.0
O119 O 0.18141 0.60898 0.7829 0.0
O120 O 0.06446 0.67949 0.90265 0.0
O121 O 1.02292 0.64137 0.75925 0.0
C122 C 0.14554 0.44999 0.86405 0.0
C123 C 1.03047 0.69323 0.82982 0.0
C124 C 0.3985 0.95349 0.56343 0.0
C125 C 0.42471 0.22138 0.49008 0.0
O126 O 0.3234 0.96689 0.54267 0.0
Zn127 Zn 0.27392 0.06636 0.49804 0.0
O128 O 0.46494 1.00727 0.56166 0.0
Zn129 Zn 0.408 0.08574 0.52268 0.0
O130 O 0.35748 0.13067 0.63094 0.0
O131 O 0.21492 0.09992 0.5832 0.0
O132 O 0.4823 0.18362 0.50867 0.0
O133 O 0.34502 0.18546 0.48296 0.0
O134 O 0.20007 0.01238 0.38603 0.0
O135 O 0.33809 0.0211 0.3929 0.0
C136 C 0.28284 0.13266 0.64389 0.0
C137 C 0.25874 0.99697 0.34997 0.0
C138 C 0.65916 0.76852 0.13513 0.0
C139 C 0.49505 0.7197 0.83063 0.0
O140 O 0.63766 0.70079 0.07794 0.0
Zn141 Zn 0.58613 0.73845 0.97772 0.0
O142 O 0.64679 0.83441 0.11232 0.0
Zn143 Zn 0.59063 0.86921 0.99654 0.0
O144 O 0.49522 0.90666 0.03327 0.0
O145 O 0.48305 0.77262 0.02059 0.0
O146 O 0.51959 0.79515 0.87272 0.0
O147 O 0.5189 0.66417 0.8661 0.0
O148 O 0.69336 0.81062 0.94619 0.0
O149 O 0.68671 0.94062 0.96615 0.0
C150 C 0.45377 0.83546 0.03842 0.0
C151 C 0.72476 0.88563 0.94333 0.0
C152 C 0.8646 0.99172 0.72035 0.0
C153 C 0.89232 0.14692 0.49177 0.0
O154 O 0.79104 0.9907 0.67283 0.0
Zn155 Zn 0.74312 0.03534 0.5595 0.0
O156 O 0.93352 0.02596 0.70131 0.0
Zn157 Zn 0.88174 0.06485 0.60203 0.0
O158 O 0.82074 0.1532 0.65701 0.0
O159 O 0.6787 0.11142 0.60661 0.0
O160 O 0.95416 0.13459 0.54561 0.0
O161 O 0.81387 0.11329 0.49116 0.0
O162 O 0.68643 0.9368 0.46406 0.0
O163 O 0.82776 0.95612 0.50092 0.0
C164 C 0.74581 0.16588 0.65409 0.0
C165 C 0.75358 0.91454 0.45249 0.0
C166 C 0.66588 0.33573 0.18203 0.0
C167 C 0.37846 0.33463 0.01651 0.0
O168 O 0.60096 0.27313 0.15177 0.0
Zn169 Zn 0.52159 0.33044 0.09816 0.0
O170 O 0.65787 0.40772 0.17384 0.0
Zn171 Zn 0.55977 0.46281 0.11567 0.0
O172 O 0.53235 0.53125 0.21493 0.0
O173 O 0.49225 0.39694 0.20603 0.0
O174 O 0.43039 0.40694 0.04114 0.0
O175 O 0.40558 0.27279 0.03297 0.0
O176 O 0.58215 0.36992 0.00121 0.0
O177 O 0.61441 0.5062 0.02824 0.0
C178 C 0.49587 0.47069 0.24332 0.0
C179 C 0.61537 0.43766 0.9818 0.0
loop_
_geom_bond_atom_site_label_1
_geom_bond_atom_site_label_2
_geom_bond_distance
_geom_bond_site_symmetry_2
_ccdc_geom_bond_type
H0 C5 0.930 . S
H1 C8 0.930 . S
H2 C10 0.930 . S
H3 C4 1.016 . S
C4 H3 1.016 . S
C4 N11 1.286 . S
C5 H0 0.930 . S
C5 C6 1.397 . S
C5 C7 1.361 . S
C6 C5 1.397 . S
C6 C10 1.390 . S
C7 C5 1.361 . S
C7 C8 1.393 . S
C7 N11 1.413 . S
C8 H1 0.930 . S
C8 C7 1.393 . S
C8 C9 1.399 . S
C9 C8 1.399 . S
C9 C10 1.381 . S
C10 H2 0.930 . S
C10 C6 1.390 . S
C10 C9 1.381 . S
N11 C4 1.286 . S
N11 C7 1.413 . S
H12 C17 0.930 . S
H13 C20 0.930 . S
H14 C22 0.930 . S
H15 C16 1.016 . S
C16 H15 1.016 . S
C16 N23 1.286 . S
C17 H12 0.930 . S
C17 C18 1.397 . S
C17 C19 1.361 . S
C18 C17 1.397 . S
C18 C22 1.390 . S
C19 C17 1.361 . S
C19 C20 1.393 . S
C19 N23 1.413 . S
C20 H13 0.930 . S
C20 C19 1.393 . S
C20 C21 1.399 . S
C21 C20 1.399 . S
C21 C22 1.381 . S
C22 H14 0.930 . S
C22 C18 1.390 . S
C22 C21 1.381 . S
N23 C16 1.286 . S
N23 C19 1.413 . S
H24 C29 0.930 . S
H25 C32 0.930 . S
H26 C34 0.930 . S
H27 C28 1.016 . S
C28 H27 1.016 . S
C28 N35 1.286 . S
C29 H24 0.930 . S
C29 C30 1.397 . S
C29 C31 1.361 . S
C30 C29 1.397 . S
C30 C34 1.390 . S
C31 C29 1.361 . S
C31 C32 1.393 . S
C31 N35 1.413 . S
C32 H25 0.930 . S
C32 C31 1.393 . S
C32 C33 1.399 . S
C33 C32 1.399 . S
C33 C34 1.381 . S
C34 H26 0.930 . S
C34 C30 1.390 . S
C34 C33 1.381 . S
N35 C28 1.286 . S
N35 C31 1.413 . S
H36 C41 0.930 . S
H37 C44 0.930 . S
H38 C46 0.930 . S
H39 C40 1.016 1_554 S
C40 H39 1.016 1_556 S
C40 N47 1.286 . S
C41 H36 0.930 . S
C41 C42 1.397 . S
C41 C43 1.361 . S
C42 C41 1.397 . S
C42 C46 1.390 . S
C43 C41 1.361 . S
C43 C44 1.393 . S
C43 N47 1.413 . S
C44 H37 0.930 . S
C44 C43 1.393 . S
C44 C45 1.399 . S
C45 C44 1.399 . S
C45 C46 1.381 . S
C46 H38 0.930 . S
C46 C42 1.390 . S
C46 C45 1.381 . S
N47 C40 1.286 . S
N47 C43 1.413 . S
H48 C53 0.930 . S
H49 C56 0.930 . S
H50 C58 0.930 . S
H51 C52 1.016 . S
C52 H51 1.016 . S
C52 N59 1.286 . S
C53 H48 0.930 . S
C53 C54 1.397 . S
C53 C55 1.361 . S
C54 C53 1.397 . S
C54 C58 1.390 . S
C55 C53 1.361 . S
C55 C56 1.393 . S
C55 N59 1.413 . S
C56 H49 0.930 . S
C56 C55 1.393 . S
C56 C57 1.399 . S
C57 C56 1.399 . S
C57 C58 1.381 . S
C58 H50 0.930 . S
C58 C54 1.390 . S
C58 C57 1.381 . S
N59 C52 1.286 . S
N59 C55 1.413 . S
H60 C65 0.930 . S
H61 C68 0.930 . S
H62 C70 0.930 . S
H63 C64 1.016 . S
C64 H63 1.016 . S
C64 N71 1.286 . S
C65 H60 0.930 . S
C65 C66 1.397 . S
C65 C67 1.361 . S
C66 C65 1.397 . S
C66 C70 1.390 . S
C67 C65 1.361 . S
C67 C68 1.393 . S
C67 N71 1.413 . S
C68 H61 0.930 . S
C68 C67 1.393 . S
C68 C69 1.399 . S
C69 C68 1.399 . S
C69 C70 1.381 . S
C70 H62 0.930 . S
C70 C66 1.390 . S
C70 C69 1.381 . S
N71 C64 1.286 . S
N71 C67 1.413 . S
H72 C77 0.930 . S
H73 C80 0.930 . S
H74 C82 0.930 . S
H75 C76 1.016 . S
C76 H75 1.016 . S
C76 N83 1.286 . S
C77 H72 0.930 . S
C77 C78 1.397 . S
C77 C79 1.361 . S
C78 C77 1.397 . S
C78 C82 1.390 . S
C79 C77 1.361 . S
C79 C80 1.393 . S
C79 N83 1.413 . S
C80 H73 0.930 . S
C80 C79 1.393 . S
C80 C81 1.399 . S
C81 C80 1.399 . S
C81 C82 1.381 . S
C82 H74 0.930 . S
C82 C78 1.390 . S
C82 C81 1.381 . S
N83 C76 1.286 . S
N83 C79 1.413 . S
H84 C89 0.930 . S
H85 C92 0.930 . S
H86 C94 0.930 . S
H87 C88 1.016 . S
C88 H87 1.016 . S
C88 N95 1.286 . S
C89 H84 0.930 . S
C89 C90 1.397 . S
C89 C91 1.361 . S
C90 C89 1.397 . S
C90 C94 1.390 . S
C91 C89 1.361 . S
C91 C92 1.393 . S
C91 N95 1.413 . S
C92 H85 0.930 . S
C92 C91 1.393 . S
C92 C93 1.399 . S
C93 C92 1.399 . S
C93 C94 1.381 . S
C94 H86 0.930 . S
C94 C90 1.390 . S
C94 C93 1.381 . S
N95 C88 1.286 . S
N95 C91 1.413 . S
C96 O98 1.247 . S
C96 O100 1.258 . S
C97 O104 1.247 . S
C97 O105 1.258 . S
O98 C96 1.247 . S
O98 Zn99 2.028 1_655 S
Zn99 O98 2.028 1_455 S
Zn99 O103 2.035 . S
Zn99 O105 2.035 . S
Zn99 O106 2.028 . S
O100 C96 1.258 . S
O100 Zn101 2.035 . S
Zn101 O100 2.035 . S
Zn101 O102 2.028 1_655 S
Zn101 O104 2.028 1_655 S
Zn101 O107 2.035 . S
O102 Zn101 2.028 1_455 S
O102 C108 1.247 . S
O103 Zn99 2.035 . S
O103 C108 1.258 . S
O104 C97 1.247 . S
O104 Zn101 2.028 1_455 S
O105 C97 1.258 . S
O105 Zn99 2.035 . S
O106 Zn99 2.028 . S
O106 C109 1.247 1_455 S
O107 Zn101 2.035 . S
O107 C109 1.258 . S
C108 O102 1.247 . S
C108 O103 1.258 . S
C109 O106 1.247 1_655 S
C109 O107 1.258 . S
C110 O112 1.247 1_655 S
C110 O114 1.258 . S
C111 O118 1.247 . S
C111 O119 1.258 . S
O112 C110 1.247 1_455 S
O112 Zn113 2.028 . S
Zn113 O112 2.028 . S
Zn113 O117 2.035 . S
Zn113 O119 2.035 . S
Zn113 O120 2.028 . S
O114 C110 1.258 . S
O114 Zn115 2.035 1_655 S
Zn115 O114 2.035 1_455 S
Zn115 O116 2.028 . S
Zn115 O118 2.028 . S
Zn115 O121 2.035 1_455 S
O116 Zn115 2.028 . S
O116 C122 1.247 . S
O117 Zn113 2.035 . S
O117 C122 1.258 . S
O118 C111 1.247 . S
O118 Zn115 2.028 . S
O119 C111 1.258 . S
O119 Zn113 2.035 . S
O120 Zn113 2.028 . S
O120 C123 1.247 1_455 S
O121 Zn115 2.035 1_655 S
O121 C123 1.258 . S
C122 O116 1.247 . S
C122 O117 1.258 . S
C123 O120 1.247 1_655 S
C123 O121 1.258 . S
C124 O126 1.247 . S
C124 O128 1.258 . S
C125 O132 1.247 . S
C125 O133 1.258 . S
O126 C124 1.247 . S
O126 Zn127 2.028 . S
Zn127 O126 2.028 . S
Zn127 O131 2.035 1_565 S
Zn127 O133 2.035 1_565 S
Zn127 O134 2.028 . S
O128 C124 1.258 . S
O128 Zn129 2.035 1_565 S
Zn129 O128 2.035 1_545 S
Zn129 O130 2.028 . S
Zn129 O132 2.028 . S
Zn129 O135 2.035 1_545 S
O130 Zn129 2.028 . S
O130 C136 1.247 . S
O131 Zn127 2.035 1_545 S
O131 C136 1.258 . S
O132 C125 1.247 . S
O132 Zn129 2.028 . S
O133 C125 1.258 . S
O133 Zn127 2.035 1_545 S
O134 Zn127 2.028 . S
O134 C137 1.247 . S
O135 Zn129 2.035 1_565 S
O135 C137 1.258 . S
C136 O130 1.247 . S
C136 O131 1.258 . S
C137 O134 1.247 . S
C137 O135 1.258 . S
C138 O140 1.247 . S
C138 O142 1.258 . S
C139 O146 1.247 . S
C139 O147 1.258 . S
O140 C138 1.247 . S
O140 Zn141 2.028 1_554 S
Zn141 O140 2.028 1_556 S
Zn141 O145 2.035 1_556 S
Zn141 O147 2.035 . S
Zn141 O148 2.028 . S
O142 C138 1.258 . S
O142 Zn143 2.035 . S
Zn143 O142 2.035 . S
Zn143 O144 2.028 . S
Zn143 O146 2.028 1_554 S
Zn143 O149 2.035 1_554 S
O144 Zn143 2.028 . S
O144 C150 1.247 . S
O145 Zn141 2.035 1_554 S
O145 C150 1.258 . S
O146 C139 1.247 . S
O146 Zn143 2.028 1_556 S
O147 C139 1.258 . S
O147 Zn141 2.035 . S
O148 Zn141 2.028 . S
O148 C151 1.247 . S
O149 Zn143 2.035 1_556 S
O149 C151 1.258 . S
C150 O144 1.247 . S
C150 O145 1.258 . S
C151 O148 1.247 . S
C151 O149 1.258 . S
C152 O154 1.247 . S
C152 O156 1.258 1_565 S
C153 O160 1.247 . S
C153 O161 1.258 . S
O154 C152 1.247 . S
O154 Zn155 2.028 1_565 S
Zn155 O154 2.028 1_545 S
Zn155 O159 2.035 . S
Zn155 O161 2.035 . S
Zn155 O162 2.028 1_545 S
O156 C152 1.258 1_545 S
O156 Zn157 2.035 . S
Zn157 O156 2.035 . S
Zn157 O158 2.028 . S
Zn157 O160 2.028 . S
Zn157 O163 2.032 1_545 S
O158 Zn157 2.028 . S
O158 C164 1.247 . S
O159 Zn155 2.035 . S
O159 C164 1.258 . S
O160 C153 1.247 . S
O160 Zn157 2.028 . S
O161 C153 1.258 . S
O161 Zn155 2.035 . S
O162 Zn155 2.028 1_565 S
O162 C165 1.247 . S
O163 Zn157 2.032 1_565 S
O163 C165 1.260 . S
C164 O158 1.247 . S
C164 O159 1.258 . S
C165 O162 1.247 . S
C165 O163 1.260 . S
C166 O168 1.247 . S
C166 O170 1.258 . S
C167 O174 1.247 1_556 S
C167 O175 1.258 . S
O168 C166 1.247 . S
O168 Zn169 2.028 . S
Zn169 O168 2.028 . S
Zn169 O173 2.035 . S
Zn169 O175 2.035 1_554 S
Zn169 O176 2.028 . S
O170 C166 1.258 . S
O170 Zn171 2.035 . S
Zn171 O170 2.035 . S
Zn171 O172 2.028 . S
Zn171 O174 2.028 . S
Zn171 O177 2.035 . S
O172 Zn171 2.028 . S
O172 C178 1.247 . S
O173 Zn169 2.035 . S
O173 C178 1.258 . S
O174 C167 1.247 1_554 S
O174 Zn171 2.028 . S
O175 C167 1.258 . S
O175 Zn169 2.035 1_556 S
O176 Zn169 2.028 . S
O176 C179 1.247 . S
O177 Zn171 2.035 . S
O177 C179 1.258 . S
C178 O172 1.247 . S
C178 O173 1.258 . S
C179 O176 1.247 . S
C179 O177 1.258 . S
C108 C6 1.673 . S
C111 C18 1.902 . S
C109 C28 1.606 . S
C110 C45 1.839 . S
C125 C4 1.576 . S
C139 C21 2.014 . S
C33 C165 1.699 . S
C179 C40 1.756 1_554 S
C124 C16 1.859 . S
C30 C138 1.726 . S
C164 C42 1.664 . S
C178 C9 1.844 . S
C52 C123 1.794 . S
C96 C69 1.794 . S
C78 C122 1.549 . S
C93 C97 1.240 . S
C152 C57 1.771 . S
C166 C66 1.810 . S
C136 C76 1.466 . S
C88 C150 1.686 . S
C153 C64 1.656 . S
C167 C81 1.756 . S
C137 C90 1.367 . S
C54 C151 1.648 . S
