# Generated by pormake.
# Topology sit, (3,6)-cn, num edge types: 1
# Building blocks:
#     Node 0, Type 0, BuildingBlock: CUQRIR_clean_linker_1, # of connection points: 3
#     Node 1, Type 0, BuildingBlock: CUQRIR_clean_linker_1, # of connection points: 3
#     Node 2, Type 0, BuildingBlock: CUQRIR_clean_linker_1, # of connection points: 3
#     Node 3, Type 0, BuildingBlock: CUQRIR_clean_linker_1, # of connection points: 3
#     Node 4, Type 1, BuildingBlock: MIDCAF_clean_sbu_0, # of connection points: 6
#     Node 5, Type 1, BuildingBlock: MIDCAF_clean_sbu_0, # of connection points: 6
#     Edge 6, Type (0, 1), None
#     Edge 7, Type (0, 1), None
#     Edge 8, Type (0, 1), None
#     Edge 9, Type (0, 1), None
#     Edge 10, Type (0, 1), None
#     Edge 11, Type (0, 1), None
#     Edge 12, Type (0, 1), None
#     Edge 13, Type (0, 1), None
#     Edge 14, Type (0, 1), None
#     Edge 15, Type (0, 1), None
#     Edge 16, Type (0, 1), None
#     Edge 17, Type (0, 1), None
# Relax obj value: 0.071
# Max RMSD: 0.183
# Mean RMSD: 0.110
data_MOF--net-sit--node1-MIDCAF_clean_sbu_0--node2-CUQRIR_clean_linker_1--edge1-none
_symmetry_space_group_name_H-M    P1
_symmetry_Int_Tables_number       1
_symmetry_cell_setting            triclinic
loop_
_symmetry_equiv_pos_as_xyz
'x, y, z'
_cell_length_a     7.4124164
_cell_length_b     9.0506794
_cell_length_c     16.917639
_cell_angle_alpha  90.086979
_cell_angle_beta   91.10436
_cell_angle_gamma 81.690371
loop_
_atom_site_label
_atom_site_type_symbol
_atom_site_fract_x
_atom_site_fract_y
_atom_site_fract_z
_atom_type_partial_charge
C0 C 0.93117 0.38528 -0.01646 0.0
N1 N -0.04033 0.44368 -0.08831 0.0
N2 N 0.04291 0.4351 0.03821 0.0
C3 C 0.76542 0.31263 0.00289 0.0
C4 C 0.14105 0.52408 -0.00304 0.0
N5 N 0.09286 0.5274 -0.08103 0.0
C6 C 0.29974 0.59096 0.03227 0.0
H7 H 0.63983 0.39002 -0.01265 0.0
H8 H 0.75752 0.283 0.0659 0.0
H9 H 0.76437 0.21065 -0.03343 0.0
H10 H 0.37825 0.51066 0.07414 0.0
H11 H 0.2467 0.69203 0.06638 0.0
H12 H 0.3932 0.62355 -0.0126 0.0
C13 C 0.929 0.89032 -0.00443 0.0
N14 N -0.01961 0.88308 -0.08111 0.0
N15 N 0.02463 0.98173 0.03792 0.0
C16 C 0.76883 0.82464 0.02795 0.0
C17 C 0.13889 1.02888 -0.01475 0.0
N18 N 0.11357 0.9666 -0.08649 0.0
C19 C 0.30226 1.10425 0.00723 0.0
H20 H 0.69598 0.90143 0.07185 0.0
H21 H 0.82006 0.71858 0.05881 0.0
H22 H 0.66963 0.80051 -0.01822 0.0
H23 H 0.30868 1.13502 0.07033 0.0
H24 H 0.3014 0.20575 -0.02947 0.0
H25 H 0.42907 1.0284 -0.00611 0.0
C26 C 0.43117 0.88528 0.48353 0.0
N27 N 0.45967 0.94367 0.41168 0.0
N28 N 0.54291 0.9351 0.53821 0.0
C29 C 0.26542 0.81262 0.50288 0.0
C30 C 0.64105 1.02407 0.49696 0.0
N31 N 0.59286 1.0274 0.41897 0.0
C32 C 0.79974 1.09095 0.53227 0.0
H33 H 0.13983 0.89002 0.48735 0.0
H34 H 0.25752 0.783 0.5659 0.0
H35 H 0.26437 0.71065 0.46656 0.0
H36 H 0.87825 1.01066 0.57414 0.0
H37 H 0.7467 1.19202 0.56638 0.0
H38 H 0.8932 1.12354 0.4874 0.0
C39 C 0.42901 0.39032 0.49557 0.0
N40 N 0.4804 0.38307 0.41889 0.0
N41 N 0.52463 0.48172 0.53792 0.0
C42 C 0.26883 0.32463 0.52795 0.0
C43 C 0.63889 0.52887 0.48526 0.0
N44 N 0.61357 0.46659 0.41352 0.0
C45 C 0.80227 0.60425 0.50723 0.0
H46 H 0.19598 0.40142 0.57185 0.0
H47 H 0.32007 0.21857 0.55881 0.0
H48 H 0.16963 0.3005 0.48178 0.0
H49 H 0.80868 0.63502 0.57033 0.0
H50 H 0.80141 0.70574 0.47053 0.0
H51 H 0.92907 0.52839 0.49389 0.0
Zn52 Zn 0.06241 0.49227 0.27406 0.0
Zn53 Zn -0.00023 0.92591 0.27286 0.0
Zn54 Zn 0.03244 0.20787 0.2745 0.0
C55 C 0.02215 1.00076 0.11757 0.0
C56 C 0.71506 1.03279 0.35996 0.0
O57 O 0.27446 0.26361 0.34716 0.0
O58 O 0.30079 0.49928 0.32337 0.0
C59 C 0.04139 0.41806 0.118 0.0
O60 O 0.03977 1.12774 0.14962 0.0
O61 O -0.00247 0.89166 0.16005 0.0
O62 O 0.76746 0.91355 0.32337 0.0
O63 O 0.79528 1.14884 0.34828 0.0
O64 O 0.0612 0.52859 0.16089 0.0
O65 O 0.0239 0.29112 0.14985 0.0
O66 O 0.79117 0.30727 0.33334 0.0
O67 O 0.84098 0.54188 0.3422 0.0
C68 C 0.74473 0.44145 0.35811 0.0
O69 O 0.27679 1.10626 0.33298 0.0
O70 O 0.22848 0.87126 0.33833 0.0
C71 C 0.35709 0.37858 0.35861 0.0
C72 C 0.32632 0.97078 0.35541 0.0
Zn73 Zn 0.56241 0.99227 0.77406 0.0
Zn74 Zn 0.49976 0.42591 0.77286 0.0
Zn75 Zn 0.53243 0.70787 0.7745 0.0
C76 C 0.52215 0.50076 0.61757 0.0
C77 C 0.21505 0.5328 0.85996 0.0
O78 O 0.77445 0.76361 0.84716 0.0
O79 O 0.80078 0.99928 0.82337 0.0
C80 C 0.54139 0.91806 0.618 0.0
O81 O 0.53976 0.62774 0.64962 0.0
O82 O 0.49752 0.39166 0.66005 0.0
O83 O 0.26745 0.41356 0.82337 0.0
O84 O 0.29528 0.64884 0.84828 0.0
O85 O 0.5612 1.02859 0.66088 0.0
O86 O 0.52389 0.79112 0.64985 0.0
O87 O 0.29116 0.80728 0.83334 0.0
O88 O 0.34097 1.04189 0.84219 0.0
C89 C 0.24472 0.94145 0.8581 0.0
O90 O 0.77679 0.60627 0.83298 0.0
O91 O 0.72847 0.37127 0.83834 0.0
C92 C 0.85708 0.87859 0.85861 0.0
C93 C 0.82632 0.47079 0.85542 0.0
loop_
_geom_bond_atom_site_label_1
_geom_bond_atom_site_label_2
_geom_bond_distance
_geom_bond_site_symmetry_2
_ccdc_geom_bond_type
C0 N1 1.317 1_554 S
C0 N2 1.348 . S
C0 C3 1.485 1_455 S
N1 C0 1.317 1_556 S
N1 N5 1.370 1_556 S
N2 C0 1.348 . S
N2 C4 1.346 . S
C3 C0 1.485 1_655 S
C3 H7 0.960 . S
C3 H8 0.961 . S
C3 H9 0.960 . S
C4 N2 1.346 . S
C4 N5 1.307 . S
C4 C6 1.486 . S
N5 N1 1.370 1_554 S
N5 C4 1.307 . S
C6 C4 1.486 . S
C6 H10 0.960 . S
C6 H11 0.960 . S
C6 H12 0.959 . S
H7 C3 0.960 . S
H8 C3 0.961 . S
H9 C3 0.960 . S
H10 C6 0.960 . S
H11 C6 0.960 . S
H12 C6 0.959 . S
C13 N14 1.317 . S
C13 N15 1.348 . S
C13 C16 1.485 . S
N14 C13 1.317 . S
N14 N18 1.370 1_655 S
N15 C13 1.348 . S
N15 C17 1.346 1_655 S
C16 C13 1.485 . S
C16 H20 0.960 . S
C16 H21 0.961 . S
C16 H22 0.960 . S
C17 N15 1.346 1_455 S
C17 N18 1.307 . S
C17 C19 1.486 . S
N18 N14 1.370 1_455 S
N18 C17 1.307 . S
C19 C17 1.486 . S
C19 H23 0.960 . S
C19 H24 0.960 . S
C19 H25 0.959 . S
H20 C16 0.960 . S
H21 C16 0.961 . S
H22 C16 0.960 . S
H23 C19 0.960 . S
H24 C19 0.960 . S
H25 C19 0.959 . S
C26 N27 1.317 . S
C26 N28 1.348 . S
C26 C29 1.485 . S
N27 C26 1.317 . S
N27 N31 1.370 . S
N28 C26 1.348 . S
N28 C30 1.346 . S
C29 C26 1.485 . S
C29 H33 0.960 . S
C29 H34 0.961 . S
C29 H35 0.960 . S
C30 N28 1.346 . S
C30 N31 1.307 . S
C30 C32 1.486 . S
N31 N27 1.370 . S
N31 C30 1.307 . S
C32 C30 1.486 . S
C32 H36 0.960 1_655 S
C32 H37 0.960 1_655 S
C32 H38 0.959 1_655 S
H33 C29 0.960 . S
H34 C29 0.961 . S
H35 C29 0.960 . S
H36 C32 0.960 1_455 S
H37 C32 0.960 1_455 S
H38 C32 0.959 1_455 S
C39 N40 1.317 . S
C39 N41 1.348 . S
C39 C42 1.485 . S
N40 C39 1.317 . S
N40 N44 1.370 . S
N41 C39 1.348 . S
N41 C43 1.346 . S
C42 C39 1.485 . S
C42 H46 0.960 . S
C42 H47 0.961 . S
C42 H48 0.960 . S
C43 N41 1.346 . S
C43 N44 1.307 . S
C43 C45 1.486 . S
N44 N40 1.370 . S
N44 C43 1.307 . S
C45 C43 1.486 . S
C45 H49 0.960 . S
C45 H50 0.960 . S
C45 H51 0.959 . S
H46 C42 0.960 . S
H47 C42 0.961 . S
H48 C42 0.960 . S
H49 C45 0.960 . S
H50 C45 0.960 . S
H51 C45 0.959 . S
Zn52 O58 1.920 . S
Zn52 O64 1.898 . S
Zn52 O67 1.905 1_455 S
Zn53 O61 1.905 . S
Zn53 O62 1.898 1_455 S
Zn53 O70 1.920 . S
Zn54 O57 2.080 . S
Zn54 O60 2.114 1_445 S
Zn54 O63 2.120 1_445 S
Zn54 O65 2.120 . S
Zn54 O66 2.114 1_455 S
Zn54 O69 2.080 1_545 S
C55 O60 1.166 1_455 S
C55 O61 1.182 . S
C56 O62 1.167 . S
C56 O63 1.299 . S
O57 Zn54 2.080 . S
O57 C71 1.305 . S
O58 Zn52 1.920 . S
O58 C71 1.234 . S
C59 O64 1.167 . S
C59 O65 1.299 . S
O60 Zn54 2.114 1_665 S
O60 C55 1.166 1_655 S
O61 Zn53 1.905 . S
O61 C55 1.182 . S
O62 Zn53 1.898 1_655 S
O62 C56 1.167 . S
O63 Zn54 2.120 1_665 S
O63 C56 1.299 . S
O64 Zn52 1.898 . S
O64 C59 1.167 . S
O65 Zn54 2.120 . S
O65 C59 1.299 . S
O66 Zn54 2.114 1_655 S
O66 C68 1.166 . S
O67 Zn52 1.905 1_655 S
O67 C68 1.182 . S
C68 O66 1.166 . S
C68 O67 1.182 . S
O69 Zn54 2.080 1_565 S
O69 C72 1.305 . S
O70 Zn53 1.920 . S
O70 C72 1.234 . S
C71 O57 1.305 . S
C71 O58 1.234 . S
C72 O69 1.305 . S
C72 O70 1.234 . S
Zn73 O79 1.920 . S
Zn73 O85 1.898 . S
Zn73 O88 1.905 . S
Zn74 O82 1.905 . S
Zn74 O83 1.898 . S
Zn74 O91 1.920 . S
Zn75 O78 2.080 . S
Zn75 O81 2.114 . S
Zn75 O84 2.120 . S
Zn75 O86 2.120 . S
Zn75 O87 2.114 . S
Zn75 O90 2.080 . S
C76 O81 1.166 . S
C76 O82 1.182 . S
C77 O83 1.167 . S
C77 O84 1.299 . S
O78 Zn75 2.080 . S
O78 C92 1.305 . S
O79 Zn73 1.920 . S
O79 C92 1.234 . S
C80 O85 1.167 . S
C80 O86 1.299 . S
O81 Zn75 2.114 . S
O81 C76 1.166 . S
O82 Zn74 1.905 . S
O82 C76 1.182 . S
O83 Zn74 1.898 . S
O83 C77 1.167 . S
O84 Zn75 2.120 . S
O84 C77 1.299 . S
O85 Zn73 1.898 . S
O85 C80 1.167 . S
O86 Zn75 2.120 . S
O86 C80 1.299 . S
O87 Zn75 2.114 . S
O87 C89 1.166 . S
O88 Zn73 1.905 . S
O88 C89 1.182 . S
C89 O87 1.166 . S
C89 O88 1.182 . S
O90 Zn75 2.080 . S
O90 C93 1.305 . S
O91 Zn74 1.920 . S
O91 C93 1.234 . S
C92 O78 1.305 . S
C92 O79 1.234 . S
C93 O90 1.305 . S
C93 O91 1.234 . S
C59 N2 1.469 . S
C55 N15 1.431 1_455 S
C80 N28 1.469 . S
N41 C76 1.431 . S
N5 C77 1.180 1_554 S
C92 N14 1.208 1_556 S
N1 C93 1.656 1_455 S
C89 N18 1.710 1_556 S
C56 N31 1.180 . S
N40 C71 1.208 . S
C72 N27 1.656 . S
C68 N44 1.710 . S
