# Generated by pormake.
# Topology rtl, (3,6)-cn, num edge types: 1
# Building blocks:
#     Node 0, Type 0, BuildingBlock: BETDAH_clean_linker_0, # of connection points: 3
#     Node 1, Type 0, BuildingBlock: BETDAH_clean_linker_0, # of connection points: 3
#     Node 2, Type 0, BuildingBlock: BETDAH_clean_linker_0, # of connection points: 3
#     Node 3, Type 0, BuildingBlock: BETDAH_clean_linker_0, # of connection points: 3
#     Node 4, Type 1, BuildingBlock: KUMJIN_clean_sbu_1, # of connection points: 6
#     Node 5, Type 1, BuildingBlock: KUMJIN_clean_sbu_1, # of connection points: 6
#     Edge 6, Type (0, 1), None
#     Edge 7, Type (0, 1), None
#     Edge 8, Type (0, 1), None
#     Edge 9, Type (0, 1), None
#     Edge 10, Type (0, 1), None
#     Edge 11, Type (0, 1), None
#     Edge 12, Type (0, 1), None
#     Edge 13, Type (0, 1), None
#     Edge 14, Type (0, 1), None
#     Edge 15, Type (0, 1), None
#     Edge 16, Type (0, 1), None
#     Edge 17, Type (0, 1), None
# Relax obj value: 0.055
# Max RMSD: 0.288
# Mean RMSD: 0.198
data_MOF--net-rtl--node1-KUMJIN_clean_sbu_1--node2-BETDAH_clean_linker_0--edge1-none
_symmetry_space_group_name_H-M    P1
_symmetry_Int_Tables_number       1
_symmetry_cell_setting            triclinic
loop_
_symmetry_equiv_pos_as_xyz
'x, y, z'
_cell_length_a     16.274726
_cell_length_b     16.906263
_cell_length_c     13.76232
_cell_angle_alpha  67.448666
_cell_angle_beta   102.10019
_cell_angle_gamma 94.495863
loop_
_atom_site_label
_atom_site_type_symbol
_atom_site_fract_x
_atom_site_fract_y
_atom_site_fract_z
_atom_type_partial_charge
H0 H 0.03186 0.89289 0.95236 0.0
H1 H 0.25668 0.77847 0.17941 0.0
H2 H 0.25001 0.85686 0.84235 0.0
C3 C 0.09565 0.86991 0.96951 0.0
C4 C 0.13485 0.87647 0.88447 0.0
C5 C 0.13878 0.83286 0.07672 0.0
C6 C 0.22218 0.80544 0.09744 0.0
C7 C 0.26189 0.81318 0.01321 0.0
C8 C 0.21787 0.84779 0.90717 0.0
N9 N 0.34941 0.79864 0.0347 0.0
C10 C 0.3843 0.72644 0.03413 0.0
H11 H 0.5871 0.56116 0.78657 0.0
H12 H 0.76155 0.74945 0.63114 0.0
H13 H 0.63889 0.78592 0.85911 0.0
C14 C 0.61987 0.62172 0.77324 0.0
C15 C 0.60865 0.66918 0.83233 0.0
C16 C 0.67556 0.64906 0.70154 0.0
C17 C 0.71867 0.7277 0.68645 0.0
C18 C 0.70552 0.77764 0.74384 0.0
C19 C 0.64939 0.74807 0.81505 0.0
N20 N 0.74676 0.85717 0.73427 0.0
C21 C 0.81627 0.89129 0.68713 0.0
H22 H 0.01872 0.15181 0.25138 0.0
H23 H 0.80003 0.19166 0.35768 0.0
H24 H 0.79599 0.26811 0.02135 0.0
C25 C 0.95514 0.17561 0.23329 0.0
C26 C 0.91296 0.21282 0.12573 0.0
C27 C 0.91537 0.16996 0.31745 0.0
C28 C 0.83261 0.19982 0.29352 0.0
C29 C 0.7894 0.23435 0.18697 0.0
C30 C 0.82977 0.2411 0.10368 0.0
N31 N 0.70193 0.24968 0.16389 0.0
C32 C 0.66688 0.32111 0.16625 0.0
H33 H 0.462 0.4862 0.4143 0.0
H34 H 0.29093 0.29637 0.57481 0.0
H35 H 0.41322 0.25859 0.34751 0.0
C36 C 0.42986 0.42522 0.42896 0.0
C37 C 0.44146 0.37698 0.37084 0.0
C38 C 0.37521 0.39764 0.50203 0.0
C39 C 0.33295 0.31845 0.5185 0.0
C40 C 0.34636 0.26785 0.46209 0.0
C41 C 0.40207 0.29722 0.3903 0.0
N42 N 0.30652 0.18722 0.47478 0.0
C43 C 0.23273 0.15723 0.51373 0.0
Eu44 Eu 0.04071 0.94094 0.52433 0.0
C45 C 0.96301 0.30304 0.55596 0.0
N46 N 0.0331 0.25375 0.60338 0.0
C47 C 0.12015 0.37869 0.56699 0.0
C48 C 0.96925 0.39301 0.51027 0.0
C49 C 0.11102 0.2897 0.61017 0.0
C50 C 0.04897 0.43061 0.51665 0.0
C51 C 0.81143 0.31271 0.49894 0.0
C52 C 0.88474 0.26321 0.5508 0.0
C53 C 0.81788 0.40176 0.4525 0.0
C54 C 0.89607 0.44226 0.45864 0.0
Eu55 Eu 1.0107 0.10553 0.67786 0.0
N56 N 0.88056 0.17618 0.59362 0.0
C57 C 0.7336 0.27131 0.4944 0.0
C58 C 0.80471 0.13556 0.59333 0.0
C59 C 0.73023 0.18235 0.54296 0.0
H60 H 0.16601 0.24988 0.6515 0.0
H61 H 0.67027 0.14978 0.54188 0.0
H62 H 0.88877 0.79283 0.55393 0.0
H63 H 0.38227 0.90438 0.65585 0.0
H64 H 0.80051 0.06744 0.63272 0.0
H65 H 0.6758 0.30736 0.45473 0.0
H66 H 0.25049 0.98326 0.56253 0.0
H67 H 0.18191 0.40725 0.57315 0.0
H68 H 0.76242 0.43917 0.40912 0.0
H69 H 0.89928 0.51144 0.4216 0.0
H70 H 0.87612 0.63545 0.63756 0.0
H71 H 0.05629 0.49948 0.48325 0.0
H72 H 0.37982 0.74727 0.75073 0.0
N73 N 0.02171 0.79224 0.60154 0.0
C74 C 0.09277 0.74467 0.65053 0.0
C75 C 0.93729 0.66541 0.64247 0.0
C76 C 0.08837 0.65478 0.69979 0.0
C77 C 0.94459 0.75447 0.59614 0.0
C78 C 1.00949 0.61532 0.69479 0.0
N79 N 0.17251 0.87338 0.60809 0.0
C80 C 0.24757 0.91547 0.60547 0.0
C81 C 0.24437 0.73878 0.70802 0.0
C82 C 0.17013 0.78636 0.6542 0.0
C83 C 0.32134 0.78188 0.70998 0.0
C84 C 0.32296 0.87056 0.65709 0.0
H85 H 1.00359 0.54642 0.73105 0.0
H86 H 0.1605 0.5385 0.79411 0.0
H87 H 0.29577 0.61424 0.80479 0.0
O88 O 0.09317 0.95587 0.38261 0.0
O89 O 0.06829 0.8815 0.70835 0.0
O90 O 0.1094 1.00462 0.72944 0.0
O91 O 0.96958 0.90379 0.39528 0.0
O92 O 0.12018 0.06457 0.49043 0.0
O93 O 0.13943 0.10669 0.63682 0.0
O94 O 0.95772 0.09032 0.81936 0.0
O95 O 0.98115 0.16492 0.49394 0.0
O96 O 0.94122 0.04146 0.4722 0.0
O97 O 0.08215 0.14059 0.80833 0.0
O98 O 0.92924 0.98343 0.70975 0.0
O99 O 0.91193 0.93665 0.56678 0.0
C100 C 0.09404 0.92327 0.77209 0.0
C101 C 0.04614 0.85438 0.29987 0.0
C102 C 0.09573 0.81398 0.16829 0.0
C103 C 0.07225 0.72906 0.22115 0.0
C104 C 0.02262 0.76866 0.35003 0.0
C105 C 0.03523 0.70688 0.31057 0.0
C106 C 0.08235 0.87699 0.20767 0.0
C107 C 0.1574 0.11154 0.54543 0.0
C108 C 0.02925 0.92027 0.34062 0.0
C109 C 0.16241 0.60752 0.75403 0.0
C110 C 0.23966 0.64991 0.75899 0.0
C111 C 0.95556 0.12316 0.43009 0.0
C112 C 1.00633 0.1906 0.90371 0.0
C113 C 0.95704 0.23116 0.03527 0.0
C114 C 0.98347 0.31538 0.98483 0.0
C115 C 0.03273 0.27564 0.85584 0.0
C116 C 0.96875 0.16842 0.99471 0.0
C117 C 0.02169 0.33714 0.89647 0.0
C118 C 0.89204 0.93584 0.65555 0.0
C119 C 0.02212 0.12477 0.86233 0.0
H120 H 0.08259 0.67971 0.19286 0.0
H121 H 0.99367 0.74906 0.4194 0.0
H122 H 1.01623 0.64139 0.34959 0.0
H123 H 0.10063 0.94272 0.16755 0.0
H124 H 0.97443 0.36451 0.01411 0.0
H125 H 0.06284 0.29488 0.7875 0.0
H126 H 0.94831 0.10321 0.03314 0.0
H127 H 0.04295 0.40206 0.85925 0.0
Eu128 Eu 0.43488 0.47597 0.01304 0.0
C129 C 0.78208 0.65176 0.1049 0.0
N130 N 0.75255 0.57233 0.15778 0.0
C131 C 0.8829 0.50937 0.16755 0.0
C132 C 0.8635 0.66247 0.08114 0.0
C133 C 0.80208 0.50165 0.18988 0.0
C134 C 0.91369 0.59001 0.11268 0.0
C135 C 0.76082 0.80602 0.02184 0.0
C136 C 0.73042 0.72289 0.07318 0.0
C137 C 0.8418 0.8165 0.99835 0.0
C138 C 0.89247 0.74487 0.02673 0.0
Eu139 Eu 0.6146 0.56943 0.19118 0.0
N140 N 0.65055 0.71102 0.09207 0.0
C141 C 0.70858 0.87628 0.99495 0.0
C142 C 0.60108 0.77933 0.07074 0.0
C143 C 0.62868 0.86285 0.02046 0.0
H144 H 0.78098 0.43877 0.23426 0.0
H145 H 0.58878 0.91686 1.00288 0.0
H146 H 0.26923 0.60418 0.97892 0.0
H147 H 0.46557 0.12869 0.19935 0.0
H148 H 0.54173 0.76982 0.09618 0.0
H149 H 0.7297 0.94107 0.95574 0.0
H150 H 0.51017 0.2765 0.10516 0.0
H151 H 0.92161 0.45298 0.19336 0.0
H152 H 0.86566 0.87975 0.95762 0.0
H153 H 0.95432 0.75374 0.00685 0.0
H154 H 0.12985 0.58776 0.02396 0.0
H155 H 0.97643 0.59565 0.09564 0.0
H156 H 0.32596 0.1022 0.25023 0.0
N157 N 0.29852 0.47077 0.05168 0.0
C158 C 0.27017 0.39079 0.10448 0.0
C159 C 0.16876 0.53186 0.04744 0.0
C160 C 0.18956 0.37881 0.13079 0.0
C161 C 0.2488 0.54084 0.02259 0.0
C162 C 0.13904 0.45059 0.10197 0.0
N163 N 0.4016 0.33358 0.11288 0.0
C164 C 0.45157 0.26605 0.13247 0.0
C165 C 0.29326 0.2368 0.18566 0.0
C166 C 0.32242 0.32045 0.13405 0.0
C167 C 0.34609 0.16735 0.21078 0.0
C168 C 0.42528 0.18207 0.18318 0.0
H169 H 0.07692 0.44396 0.12105 0.0
H170 H 0.10056 0.28602 0.20685 0.0
H171 H 0.19005 0.16133 0.25223 0.0
O172 O 0.45821 0.41758 0.90437 0.0
O173 O 0.42634 0.45089 0.18448 0.0
O174 O 0.55826 0.44408 0.28943 0.0
O175 O 0.33539 0.46847 0.88385 0.0
O176 O 0.57107 0.43166 0.05469 0.0
O177 O 0.63394 0.42982 0.22245 0.0
O178 O 0.58752 0.62549 0.30034 0.0
O179 O 0.62335 0.59888 0.01895 0.0
O180 O 0.49213 0.6 0.91336 0.0
O181 O 0.71266 0.58045 0.3194 0.0
O182 O 0.47885 0.61529 0.14728 0.0
O183 O 0.41572 0.61595 0.98011 0.0
C184 C 0.47942 0.41889 0.27584 0.0
C185 C 0.37786 0.47211 0.72923 0.0
C186 C 0.3655 0.45305 0.56039 0.0
C187 C 0.36273 0.54286 0.50661 0.0
C188 C 0.38227 0.56107 0.67538 0.0
C189 C 0.37209 0.59631 0.5641 0.0
C190 C 0.37018 0.41813 0.67181 0.0
C191 C 0.62103 0.39648 0.14839 0.0
C192 C 0.38307 0.43444 0.84541 0.0
C193 C 0.1618 0.29587 0.18516 0.0
C194 C 0.21295 0.225 0.21134 0.0
C195 C 0.57045 0.62668 0.92694 0.0
C196 C 0.66991 0.57448 0.47443 0.0
C197 C 0.68539 0.59373 0.64334 0.0
C198 C 0.68862 0.50394 0.69735 0.0
C199 C 0.66608 0.48552 0.52847 0.0
C200 C 0.67904 0.62856 0.53177 0.0
C201 C 0.67808 0.45035 0.63992 0.0
C202 C 0.42957 0.65046 0.05307 0.0
C203 C 0.6632 0.6121 0.3582 0.0
H204 H 0.35678 0.57184 0.42028 0.0
H205 H 0.39406 0.60324 0.71909 0.0
H206 H 0.37347 0.66512 0.52253 0.0
H207 H 0.37179 0.34924 0.71454 0.0
H208 H 0.69549 0.47516 0.78382 0.0
H209 H 0.65366 0.44336 0.4847 0.0
H210 H 0.67702 0.69745 0.48897 0.0
H211 H 0.67713 0.38154 0.68169 0.0
loop_
_geom_bond_atom_site_label_1
_geom_bond_atom_site_label_2
_geom_bond_distance
_geom_bond_site_symmetry_2
_ccdc_geom_bond_type
H0 C3 0.929 1_545 S
H1 C6 0.929 . S
H2 C8 0.930 . S
C3 H0 0.929 1_565 S
C3 C4 1.398 . S
C3 C5 1.396 1_556 S
C4 C3 1.398 . S
C4 C8 1.407 . S
C5 C3 1.396 1_554 S
C5 C6 1.394 . S
C6 H1 0.929 . S
C6 C5 1.394 . S
C6 C7 1.382 . S
C7 C6 1.382 . S
C7 C8 1.392 1_554 S
C7 N9 1.420 . S
C8 H2 0.930 . S
C8 C4 1.407 . S
C8 C7 1.392 1_556 S
N9 C7 1.420 . S
N9 C10 1.244 . S
C10 N9 1.244 . S
H11 C14 0.929 . S
H12 C17 0.929 . S
H13 C19 0.930 . S
C14 H11 0.929 . S
C14 C15 1.398 . S
C14 C16 1.396 . S
C15 C14 1.398 . S
C15 C19 1.407 . S
C16 C14 1.396 . S
C16 C17 1.394 . S
C17 H12 0.929 . S
C17 C16 1.394 . S
C17 C18 1.382 . S
C18 C17 1.382 . S
C18 C19 1.392 . S
C18 N20 1.420 . S
C19 H13 0.930 . S
C19 C15 1.407 . S
C19 C18 1.392 . S
N20 C18 1.420 . S
N20 C21 1.244 . S
C21 N20 1.244 . S
H22 C25 0.929 . S
H23 C28 0.929 . S
H24 C30 0.930 1_556 S
C25 H22 0.929 . S
C25 C26 1.398 . S
C25 C27 1.396 . S
C26 C25 1.398 . S
C26 C30 1.407 . S
C27 C25 1.396 . S
C27 C28 1.394 . S
C28 H23 0.929 . S
C28 C27 1.394 . S
C28 C29 1.382 . S
C29 C28 1.382 . S
C29 C30 1.392 . S
C29 N31 1.420 . S
C30 H24 0.930 1_554 S
C30 C26 1.407 . S
C30 C29 1.392 . S
N31 C29 1.420 . S
N31 C32 1.244 . S
C32 N31 1.244 . S
H33 C36 0.929 . S
H34 C39 0.929 . S
H35 C41 0.930 . S
C36 H33 0.929 . S
C36 C37 1.398 . S
C36 C38 1.396 . S
C37 C36 1.398 . S
C37 C41 1.407 . S
C38 C36 1.396 . S
C38 C39 1.394 . S
C39 H34 0.929 . S
C39 C38 1.394 . S
C39 C40 1.382 . S
C40 C39 1.382 . S
C40 C41 1.392 . S
C40 N42 1.420 . S
C41 H35 0.930 . S
C41 C37 1.407 . S
C41 C40 1.392 . S
N42 C40 1.420 . S
N42 C43 1.244 . S
C43 N42 1.244 . S
Eu44 N73 2.600 . S
Eu44 N79 2.562 . S
Eu44 O88 2.462 . S
Eu44 O89 2.373 . S
Eu44 O91 2.432 . S
Eu44 O92 2.291 1_565 S
Eu44 O96 2.335 1_465 S
Eu44 O99 2.372 1_455 S
Eu44 C108 2.787 . S
C45 N46 1.365 . S
C45 C48 1.405 . S
C45 C52 1.448 . S
N46 C45 1.365 . S
N46 C49 1.319 1_655 S
N46 Eu55 2.600 . S
C47 C49 1.397 . S
C47 C50 1.367 1_455 S
C47 H67 0.931 . S
C48 C45 1.405 . S
C48 C50 1.403 . S
C48 C54 1.439 . S
C49 N46 1.319 1_455 S
C49 C47 1.397 . S
C49 H60 0.930 . S
C50 C47 1.367 1_655 S
C50 C48 1.403 . S
C50 H71 0.929 . S
C51 C52 1.430 . S
C51 C53 1.387 . S
C51 C57 1.404 . S
C52 C45 1.448 . S
C52 C51 1.430 . S
C52 N56 1.351 . S
C53 C51 1.387 . S
C53 C54 1.374 . S
C53 H68 0.931 . S
C54 C48 1.439 . S
C54 C53 1.374 . S
C54 H69 0.931 . S
Eu55 N46 2.600 . S
Eu55 N56 2.562 . S
Eu55 O90 2.335 1_655 S
Eu55 O93 2.372 1_655 S
Eu55 O94 2.462 . S
Eu55 O95 2.373 . S
Eu55 O97 2.432 . S
Eu55 O98 2.291 1_545 S
Eu55 C119 2.787 . S
N56 C52 1.351 . S
N56 Eu55 2.562 . S
N56 C58 1.325 . S
C57 C51 1.404 . S
C57 C59 1.366 . S
C57 H65 0.930 . S
C58 N56 1.325 . S
C58 C59 1.416 . S
C58 H64 0.929 . S
C59 C57 1.366 . S
C59 C58 1.416 . S
C59 H61 0.930 . S
H60 C49 0.930 . S
H61 C59 0.930 . S
H62 C77 0.930 1_655 S
H63 C84 0.930 . S
H64 C58 0.929 . S
H65 C57 0.930 . S
H66 C80 0.929 . S
H67 C47 0.931 . S
H68 C53 0.931 . S
H69 C54 0.931 . S
H70 C75 0.931 1_655 S
H71 C50 0.929 . S
H72 C83 0.930 . S
N73 Eu44 2.600 . S
N73 C74 1.365 . S
N73 C77 1.319 . S
C74 N73 1.365 . S
C74 C76 1.405 . S
C74 C82 1.448 . S
C75 H70 0.931 1_455 S
C75 C77 1.397 . S
C75 C78 1.367 . S
C76 C74 1.405 . S
C76 C78 1.403 . S
C76 C109 1.439 . S
C77 H62 0.930 1_455 S
C77 N73 1.319 . S
C77 C75 1.397 . S
C78 C75 1.367 . S
C78 C76 1.403 . S
C78 H85 0.929 . S
N79 Eu44 2.562 . S
N79 C80 1.325 . S
N79 C82 1.351 . S
C80 H66 0.929 . S
C80 N79 1.325 . S
C80 C84 1.416 . S
C81 C82 1.430 . S
C81 C83 1.404 . S
C81 C110 1.387 . S
C82 C74 1.448 . S
C82 N79 1.351 . S
C82 C81 1.430 . S
C83 H72 0.930 . S
C83 C81 1.404 . S
C83 C84 1.366 . S
C84 H63 0.930 . S
C84 C80 1.416 . S
C84 C83 1.366 . S
H85 C78 0.929 . S
H86 C109 0.931 . S
H87 C110 0.931 . S
O88 Eu44 2.462 . S
O88 C108 1.252 . S
O89 Eu44 2.373 . S
O89 C100 1.249 . S
O90 Eu55 2.335 1_455 S
O90 C100 1.264 1_545 S
O91 Eu44 2.432 . S
O91 C108 1.268 . S
O92 Eu44 2.291 1_545 S
O92 C107 1.255 . S
O93 Eu55 2.372 1_455 S
O93 C107 1.257 . S
O94 Eu55 2.462 . S
O94 C119 1.252 . S
O95 Eu55 2.373 . S
O95 C111 1.249 . S
O96 Eu44 2.335 1_645 S
O96 C111 1.264 . S
O97 Eu55 2.432 . S
O97 C119 1.268 . S
O98 Eu55 2.291 1_565 S
O98 C118 1.255 . S
O99 Eu44 2.372 1_655 S
O99 C118 1.257 . S
C100 O89 1.249 . S
C100 O90 1.264 1_565 S
C101 C104 1.382 . S
C101 C106 1.390 . S
C101 C108 1.506 . S
C102 C103 1.398 . S
C102 C106 1.392 . S
C103 C102 1.398 . S
C103 C105 1.372 . S
C103 H120 0.931 . S
C104 C101 1.382 . S
C104 C105 1.390 . S
C104 H121 0.931 . S
C105 C103 1.372 . S
C105 C104 1.390 . S
C105 H122 0.929 . S
C106 C101 1.390 . S
C106 C102 1.392 . S
C106 H123 0.930 . S
C107 O92 1.255 . S
C107 O93 1.257 . S
C108 Eu44 2.787 . S
C108 O88 1.252 . S
C108 O91 1.268 . S
C108 C101 1.506 . S
C109 C76 1.439 . S
C109 H86 0.931 . S
C109 C110 1.374 . S
C110 C81 1.387 . S
C110 H87 0.931 . S
C110 C109 1.374 . S
C111 O95 1.249 . S
C111 O96 1.264 . S
C112 C115 1.382 . S
C112 C116 1.390 . S
C112 C119 1.506 . S
C113 C114 1.398 . S
C113 C116 1.392 1_554 S
C114 C113 1.398 . S
C114 C117 1.372 . S
C114 H124 0.931 . S
C115 C112 1.382 . S
C115 C117 1.390 1_556 S
C115 H125 0.931 . S
C116 C112 1.390 . S
C116 C113 1.392 1_556 S
C116 H126 0.930 . S
C117 C114 1.372 . S
C117 C115 1.390 1_554 S
C117 H127 0.929 . S
C118 O98 1.255 . S
C118 O99 1.257 . S
C119 Eu55 2.787 . S
C119 O94 1.252 . S
C119 O97 1.268 . S
C119 C112 1.506 . S
H120 C103 0.931 . S
H121 C104 0.931 . S
H122 C105 0.929 . S
H123 C106 0.930 . S
H124 C114 0.931 . S
H125 C115 0.931 . S
H126 C116 0.930 . S
H127 C117 0.929 . S
Eu128 N157 2.600 1_554 S
Eu128 N163 2.562 . S
Eu128 O172 2.462 1_554 S
Eu128 O173 2.373 . S
Eu128 O175 2.432 1_554 S
Eu128 O176 2.291 . S
Eu128 O180 2.335 1_554 S
Eu128 O183 2.372 1_554 S
Eu128 C192 2.787 1_554 S
C129 N130 1.365 . S
C129 C132 1.405 . S
C129 C136 1.448 . S
N130 C129 1.365 . S
N130 C133 1.319 . S
N130 Eu139 2.600 . S
C131 C133 1.397 . S
C131 C134 1.367 . S
C131 H151 0.931 . S
C132 C129 1.405 . S
C132 C134 1.403 . S
C132 C138 1.439 . S
C133 N130 1.319 . S
C133 C131 1.397 . S
C133 H144 0.930 . S
C134 C131 1.367 . S
C134 C132 1.403 . S
C134 H155 0.929 . S
C135 C136 1.430 . S
C135 C137 1.387 . S
C135 C141 1.404 . S
C136 C129 1.448 . S
C136 C135 1.430 . S
C136 N140 1.351 . S
C137 C135 1.387 . S
C137 C138 1.374 . S
C137 H152 0.931 . S
C138 C132 1.439 . S
C138 C137 1.374 . S
C138 H153 0.931 . S
Eu139 N130 2.600 . S
Eu139 N140 2.562 . S
Eu139 O174 2.335 . S
Eu139 O177 2.372 . S
Eu139 O178 2.462 . S
Eu139 O179 2.373 . S
Eu139 O181 2.432 . S
Eu139 O182 2.291 . S
Eu139 C203 2.787 . S
N140 C136 1.351 . S
N140 Eu139 2.562 . S
N140 C142 1.325 . S
C141 C135 1.404 . S
C141 C143 1.366 . S
C141 H149 0.930 . S
C142 N140 1.325 . S
C142 C143 1.416 . S
C142 H148 0.929 . S
C143 C141 1.366 . S
C143 C142 1.416 . S
C143 H145 0.930 . S
H144 C133 0.930 . S
H145 C143 0.930 . S
H146 C161 0.930 . S
H147 C168 0.930 . S
H148 C142 0.929 . S
H149 C141 0.930 . S
H150 C164 0.929 . S
H151 C131 0.931 . S
H152 C137 0.931 . S
H153 C138 0.931 . S
H154 C159 0.931 . S
H155 C134 0.929 . S
H156 C167 0.930 . S
N157 Eu128 2.600 1_556 S
N157 C158 1.365 1_556 S
N157 C161 1.319 . S
C158 N157 1.365 1_554 S
C158 C160 1.405 . S
C158 C166 1.448 . S
C159 H154 0.931 . S
C159 C161 1.397 . S
C159 C162 1.367 1_556 S
C160 C158 1.405 . S
C160 C162 1.403 . S
C160 C193 1.439 . S
C161 H146 0.930 . S
C161 N157 1.319 . S
C161 C159 1.397 . S
C162 C159 1.367 1_554 S
C162 C160 1.403 . S
C162 H169 0.929 . S
N163 Eu128 2.562 . S
N163 C164 1.325 . S
N163 C166 1.351 . S
C164 H150 0.929 . S
C164 N163 1.325 . S
C164 C168 1.416 . S
C165 C166 1.430 . S
C165 C167 1.404 . S
C165 C194 1.387 . S
C166 C158 1.448 . S
C166 N163 1.351 . S
C166 C165 1.430 . S
C167 H156 0.930 . S
C167 C165 1.404 . S
C167 C168 1.366 . S
C168 H147 0.930 . S
C168 C164 1.416 . S
C168 C167 1.366 . S
H169 C162 0.929 . S
H170 C193 0.931 . S
H171 C194 0.931 . S
O172 Eu128 2.462 1_556 S
O172 C192 1.252 . S
O173 Eu128 2.373 . S
O173 C184 1.249 . S
O174 Eu139 2.335 . S
O174 C184 1.264 . S
O175 Eu128 2.432 1_556 S
O175 C192 1.268 . S
O176 Eu128 2.291 . S
O176 C191 1.255 . S
O177 Eu139 2.372 . S
O177 C191 1.257 . S
O178 Eu139 2.462 . S
O178 C203 1.252 . S
O179 Eu139 2.373 . S
O179 C195 1.249 1_554 S
O180 Eu128 2.335 1_556 S
O180 C195 1.264 . S
O181 Eu139 2.432 . S
O181 C203 1.268 . S
O182 Eu139 2.291 . S
O182 C202 1.255 . S
O183 Eu128 2.372 1_556 S
O183 C202 1.257 1_556 S
C184 O173 1.249 . S
C184 O174 1.264 . S
C185 C188 1.382 . S
C185 C190 1.390 . S
C185 C192 1.506 . S
C186 C187 1.398 . S
C186 C190 1.392 . S
C187 C186 1.398 . S
C187 C189 1.372 . S
C187 H204 0.931 . S
C188 C185 1.382 . S
C188 C189 1.390 . S
C188 H205 0.931 . S
C189 C187 1.372 . S
C189 C188 1.390 . S
C189 H206 0.929 . S
C190 C185 1.390 . S
C190 C186 1.392 . S
C190 H207 0.930 . S
C191 O176 1.255 . S
C191 O177 1.257 . S
C192 Eu128 2.787 1_556 S
C192 O172 1.252 . S
C192 O175 1.268 . S
C192 C185 1.506 . S
C193 C160 1.439 . S
C193 H170 0.931 . S
C193 C194 1.374 . S
C194 C165 1.387 . S
C194 H171 0.931 . S
C194 C193 1.374 . S
C195 O179 1.249 1_556 S
C195 O180 1.264 . S
C196 C199 1.382 . S
C196 C200 1.390 . S
C196 C203 1.506 . S
C197 C198 1.398 . S
C197 C200 1.392 . S
C198 C197 1.398 . S
C198 C201 1.372 . S
C198 H208 0.931 . S
C199 C196 1.382 . S
C199 C201 1.390 . S
C199 H209 0.931 . S
C200 C196 1.390 . S
C200 C197 1.392 . S
C200 H210 0.930 . S
C201 C198 1.372 . S
C201 C199 1.390 . S
C201 H211 0.929 . S
C202 O182 1.255 . S
C202 O183 1.257 1_554 S
C203 Eu139 2.787 . S
C203 O178 1.252 . S
C203 O181 1.268 . S
C203 C196 1.506 . S
H204 C187 0.931 . S
H205 C188 0.931 . S
H206 C189 0.929 . S
H207 C190 0.930 . S
H208 C198 0.931 . S
H209 C199 0.931 . S
H210 C200 0.930 . S
H211 C201 0.929 . S
C107 C43 1.717 . S
C10 C202 1.865 . S
C21 C118 1.739 . S
C32 C191 1.672 . S
C102 C5 1.349 . S
C195 C15 1.841 . S
C27 C111 1.828 . S
C38 C186 1.455 . S
C197 C16 1.425 . S
C113 C26 1.254 . S
C184 C37 1.697 . S
C4 C100 1.752 . S
