# Generated by pormake.
# Topology pyr, (3,6)-cn, num edge types: 1
# Building blocks:
#     Node 0, Type 0, BuildingBlock: QEWDON_clean_linker_0, # of connection points: 3
#     Node 1, Type 0, BuildingBlock: QEWDON_clean_linker_0, # of connection points: 3
#     Node 2, Type 0, BuildingBlock: QEWDON_clean_linker_0, # of connection points: 3
#     Node 3, Type 0, BuildingBlock: QEWDON_clean_linker_0, # of connection points: 3
#     Node 4, Type 0, BuildingBlock: QEWDON_clean_linker_0, # of connection points: 3
#     Node 5, Type 0, BuildingBlock: QEWDON_clean_linker_0, # of connection points: 3
#     Node 6, Type 0, BuildingBlock: QEWDON_clean_linker_0, # of connection points: 3
#     Node 7, Type 0, BuildingBlock: QEWDON_clean_linker_0, # of connection points: 3
#     Node 8, Type 1, BuildingBlock: VOLQOD_clean_sbu_1, # of connection points: 6
#     Node 9, Type 1, BuildingBlock: VOLQOD_clean_sbu_1, # of connection points: 6
#     Node 10, Type 1, BuildingBlock: VOLQOD_clean_sbu_1, # of connection points: 6
#     Node 11, Type 1, BuildingBlock: VOLQOD_clean_sbu_1, # of connection points: 6
#     Edge 12, Type (0, 1), None
#     Edge 13, Type (0, 1), None
#     Edge 14, Type (0, 1), None
#     Edge 15, Type (0, 1), None
#     Edge 16, Type (0, 1), None
#     Edge 17, Type (0, 1), None
#     Edge 18, Type (0, 1), None
#     Edge 19, Type (0, 1), None
#     Edge 20, Type (0, 1), None
#     Edge 21, Type (0, 1), None
#     Edge 22, Type (0, 1), None
#     Edge 23, Type (0, 1), None
#     Edge 24, Type (0, 1), None
#     Edge 25, Type (0, 1), None
#     Edge 26, Type (0, 1), None
#     Edge 27, Type (0, 1), None
#     Edge 28, Type (0, 1), None
#     Edge 29, Type (0, 1), None
#     Edge 30, Type (0, 1), None
#     Edge 31, Type (0, 1), None
#     Edge 32, Type (0, 1), None
#     Edge 33, Type (0, 1), None
#     Edge 34, Type (0, 1), None
#     Edge 35, Type (0, 1), None
# Relax obj value: 0.193
# Max RMSD: 0.269
# Mean RMSD: 0.196
data_MOF--net-pry--node1-VOLQOD_clean_sbu_1--node2-QEWDON_clean_linker_0--edge1-none
_symmetry_space_group_name_H-M    P1
_symmetry_Int_Tables_number       1
_symmetry_cell_setting            triclinic
loop_
_symmetry_equiv_pos_as_xyz
'x, y, z'
_cell_length_a     18.337305
_cell_length_b     17.226085
_cell_length_c     18.311167
_cell_angle_alpha  91.628656
_cell_angle_beta   90.785506
_cell_angle_gamma 102.5118
loop_
_atom_site_label
_atom_site_type_symbol
_atom_site_fract_x
_atom_site_fract_y
_atom_site_fract_z
_atom_type_partial_charge
H0 H 0.28698 0.25132 0.15727 0.0
C1 C 0.2501 0.21238 0.19296 0.0
C2 C 0.27291 0.14612 0.22188 0.0
C3 C 0.18431 0.23406 0.21716 0.0
H4 H 0.24894 0.05654 0.30458 0.0
C5 C 0.2294 0.10355 0.27747 0.0
C6 C 0.16148 0.1226 0.29939 0.0
C7 C 0.13808 0.18528 0.26578 0.0
C8 C 0.17816 0.31842 0.218 0.0
H9 H 0.08942 0.20444 0.28655 0.0
C10 C 0.13362 0.34946 0.16742 0.0
C11 C 0.11675 0.42474 0.18221 0.0
C12 C 0.20688 0.36386 0.28098 0.0
H13 H 0.2401 0.34058 0.32088 0.0
C14 C 0.18949 0.43711 0.29578 0.0
H15 H 0.10956 0.31413 0.11964 0.0
C16 C 0.14429 0.46691 0.2474 0.0
H17 H 0.13142 0.52408 0.26085 0.0
H18 H 0.21055 0.47061 0.34542 0.0
H19 H 0.34891 0.99857 0.88238 0.0
C20 C 0.38204 0.96489 0.85115 0.0
C21 C 0.44966 0.95249 0.88006 0.0
C22 C 0.35339 0.92879 0.78466 0.0
H23 H 0.53515 0.88225 0.86415 0.0
C24 C 0.48623 0.89816 0.84036 0.0
C25 C 0.45671 0.86228 0.77097 0.0
C26 C 0.39285 0.88342 0.74338 0.0
C27 C 0.27511 0.92032 0.76341 0.0
H28 H 0.36795 0.85694 0.69189 0.0
C29 C 0.2582 0.95155 0.69727 0.0
C30 C 0.1905 0.91976 0.66072 0.0
C31 C 0.22236 0.8601 0.7954 0.0
H32 H 0.23591 0.83368 0.84544 0.0
C33 C 0.15491 0.82792 0.75908 0.0
H34 H 0.29961 0.99727 0.67226 0.0
C35 C 0.13951 0.85634 0.69133 0.0
H36 H 0.08664 0.83034 0.66421 0.0
H37 H 0.11526 0.77968 0.78263 0.0
H38 H 0.69403 0.57957 0.05511 0.0
C39 C 0.67391 0.51713 0.06654 0.0
C40 C 0.72438 0.46777 0.07385 0.0
C41 C 0.5972 0.48631 0.06646 0.0
H42 H 0.73624 0.34874 0.09589 0.0
C43 C 0.69726 0.3873 0.08918 0.0
C44 C 0.61933 0.35573 0.09137 0.0
C45 C 0.56952 0.40559 0.07891 0.0
C46 C 0.5498 0.5342 1.03329 0.0
H47 H 0.50977 0.38137 0.07643 0.0
C48 C 0.56396 0.55503 0.96079 0.0
C49 C 0.51898 0.59672 0.92407 0.0
C50 C 0.49185 0.55819 0.07067 0.0
H51 H 0.48092 0.54264 0.12698 0.0
C52 C 0.44783 0.60269 1.03459 0.0
H53 H 0.60709 0.53365 0.93126 0.0
C54 C 0.46042 0.62076 0.96104 0.0
H55 H 0.42328 0.65121 0.93242 0.0
H56 H 0.40263 0.62112 0.06289 0.0
H57 H 0.85401 0.82457 0.36774 0.0
C58 C 0.81849 0.79397 0.40973 0.0
C59 C 0.83513 0.81417 0.48265 0.0
C60 C 0.7585 0.73353 0.38886 0.0
H61 H 0.80076 0.79213 0.59445 0.0
C62 C 0.78888 0.77506 0.53738 0.0
C63 C 0.72619 0.7149 0.51733 0.0
C64 C 0.71186 0.69399 0.44189 0.0
C65 C 0.75154 0.71314 0.31045 0.0
H66 H 0.66471 0.64751 0.4239 0.0
C67 C 0.81408 0.69239 0.27881 0.0
C68 C 0.83357 0.71337 0.20757 0.0
C69 C 0.70182 0.74392 0.26674 0.0
H70 H 0.65442 0.76251 0.29072 0.0
C71 C 0.71758 0.75837 0.19314 0.0
H72 H 0.85305 0.6696 0.31299 0.0
C73 C 0.78435 0.7454 0.16407 0.0
H74 H 0.79696 0.75924 0.10766 0.0
H75 H 0.67992 0.7834 0.15962 0.0
H76 H 0.85297 0.86179 0.97617 0.0
C77 C 0.88584 0.89252 0.93267 0.0
C78 C 0.94862 0.86605 0.90846 0.0
C79 C 0.86337 0.95596 0.89978 0.0
H80 H 0.0323 0.87848 0.82448 0.0
C81 C -0.01263 0.9024 0.84722 0.0
C82 C 0.96424 0.96685 0.81317 0.0
C83 C 0.90521 0.99528 0.84344 0.0
C84 C 0.79348 0.97903 0.92062 0.0
H85 H 0.88799 0.0455 0.81962 0.0
C86 C 0.77396 0.98219 0.99435 0.0
C87 C 0.71141 1.01133 1.01338 0.0
C88 C 0.74701 1.00082 0.86636 0.0
H89 H 0.75899 0.99576 0.80888 0.0
C90 C 0.68552 0.03129 0.8858 0.0
H91 H 0.80874 0.96553 0.03692 0.0
C92 C 0.66905 0.03865 0.95914 0.0
H93 H 0.62335 0.0662 0.97377 0.0
H94 H 0.65139 0.05041 0.84414 0.0
H95 H 0.76647 0.18135 0.59936 0.0
C96 C 0.73776 0.16607 0.54705 0.0
C97 C 0.77389 0.13472 0.48961 0.0
C98 C 0.66505 0.17883 0.53824 0.0
H99 H 0.76156 0.0918 0.37664 0.0
C100 C 0.73484 0.11603 0.42165 0.0
C101 C 0.6604 0.12625 0.41216 0.0
C102 C 0.62646 0.15812 0.4711 0.0
C103 C 0.62947 0.21177 0.601 0.0
H104 H 0.5702 0.16757 0.46464 0.0
C105 C 0.60541 0.284 0.59648 0.0
C106 C 0.57583 0.31693 0.65818 0.0
C107 C 0.6231 0.17235 0.66745 0.0
H108 H 0.64144 0.11696 0.67234 0.0
C109 C 0.593 0.20384 0.72812 0.0
H110 H 0.61088 0.31484 0.54542 0.0
C111 C 0.56961 0.2755 0.72374 0.0
H112 H 0.54693 0.29859 0.77197 0.0
H113 H 0.58813 0.17273 0.77898 0.0
H114 H 0.42403 0.75469 0.27881 0.0
C115 C 0.3738 0.74445 0.24464 0.0
C116 C 0.35975 0.80564 0.20285 0.0
C117 C 0.32692 0.66897 0.23883 0.0
H118 H 0.28587 0.84159 0.12357 0.0
C119 C 0.29638 0.7934 0.15613 0.0
C120 C 0.24885 0.71779 0.1488 0.0
C121 C 0.26561 0.65515 0.18918 0.0
C122 C 0.34705 0.60488 0.28147 0.0
H123 H 0.23018 0.59635 0.18291 0.0
C124 C 0.37107 0.61961 0.35523 0.0
C125 C 0.40081 0.56346 0.39302 0.0
C126 C 0.35129 0.53262 0.2464 0.0
H127 H 0.33475 0.52081 0.18944 0.0
C128 C 0.37919 0.47585 0.28404 0.0
H129 H 0.36866 0.67575 0.3823 0.0
C130 C 0.40368 0.49087 0.35657 0.0
H131 H 0.42565 0.44553 0.38373 0.0
H132 H 0.38256 0.42023 0.25667 0.0
H133 H 0.19172 0.56611 0.66091 0.0
C134 C 0.1769 0.50321 0.64574 0.0
C135 C 0.2322 0.4592 0.63973 0.0
C136 C 0.10189 0.46541 0.63973 0.0
H137 H 0.25443 0.34183 0.6208 0.0
C138 C 0.21179 0.37649 0.62498 0.0
C139 C 0.13581 0.33868 0.61734 0.0
C140 C 0.08137 0.3841 0.62397 0.0
C141 C 0.04661 0.50479 0.67088 0.0
H142 H 0.02244 0.35568 0.62136 0.0
C143 C 0.05037 0.51941 0.74643 0.0
C144 C -0.00627 0.54704 0.78119 0.0
C145 C -0.01322 0.51908 0.62898 0.0
H146 H 0.98322 0.50629 0.57061 0.0
C147 C 0.93082 0.54921 0.66307 0.0
H148 H 0.0961 0.50593 0.77839 0.0
C149 C 0.93388 0.56282 0.73875 0.0
H150 H 0.88919 0.58547 0.76383 0.0
H151 H 0.88448 0.56087 0.63111 0.0
O152 O 0.04473 0.21946 0.62362 0.0
Zn153 Zn 0.97773 0.11132 0.61375 0.0
O154 O 0.02748 0.05672 0.54616 0.0
Zn155 Zn 0.97616 0.04314 0.45303 0.0
Zn156 Zn 0.13305 0.09956 0.53356 0.0
Zn157 Zn 0.02475 0.95638 0.59031 0.0
O158 O 0.92045 0.92989 0.44921 0.0
O159 O 0.93232 0.88307 0.55996 0.0
O160 O 0.87609 0.12113 0.56892 0.0
O161 O 0.88787 0.09922 0.44986 0.0
O162 O 0.05133 0.07483 0.36901 0.0
O163 O 0.16226 0.09889 0.42644 0.0
O164 O 0.1872 0.0333 0.59459 0.0
O165 O 0.96601 0.05495 0.71297 0.0
O166 O 0.11362 0.92055 0.5578 0.0
O167 O 0.02382 0.95572 0.69977 0.0
C168 C 0.11099 0.25213 0.605 0.0
C169 C 0.89948 0.87898 0.49842 0.0
C170 C 0.12305 0.09192 0.36751 0.0
C171 C 0.85039 0.11858 0.50315 0.0
C172 C 0.16989 0.95751 0.59496 0.0
C173 C -0.01011 0.9968 0.73986 0.0
O174 O 0.1533 0.21346 0.57175 0.0
O175 O 0.5306 0.23166 0.0737 0.0
Zn176 Zn 0.46668 0.11748 0.08367 0.0
O177 O 0.52245 0.06704 0.15268 0.0
Zn178 Zn 0.53634 0.96845 0.10468 0.0
Zn179 Zn 0.62252 0.12755 0.17675 0.0
Zn180 Zn 0.4733 0.05004 0.24664 0.0
O181 O 0.46275 0.88158 0.14668 0.0
O182 O 0.41838 0.93529 0.24455 0.0
O183 O 0.45035 0.04926 0.98149 0.0
O184 O 0.51123 0.9527 0.99648 0.0
O185 O 0.64352 0.96197 0.11484 0.0
O186 O 0.69063 0.09019 0.10925 0.0
O187 O 0.65708 0.1243 0.28188 0.0
O188 O 0.36678 0.13003 0.13387 0.0
O189 O 0.54859 0.08261 0.33608 0.0
O190 O 0.3858 0.10493 0.25082 0.0
C191 C 0.59084 0.27078 0.10553 0.0
C192 C 0.41766 0.8777 0.19913 0.0
C193 C 0.69121 0.0193 0.08942 0.0
C194 C 0.47341 0.98821 0.95573 0.0
C195 C 0.61983 0.10853 0.33978 0.0
C196 C 0.34595 0.12672 0.20081 0.0
O197 O 0.62858 0.23867 0.14973 0.0
O198 O 0.58273 0.62559 0.81137 0.0
Zn199 Zn 0.57812 0.67342 0.71032 0.0
O200 O 0.50303 0.59496 0.65604 0.0
Zn201 Zn 0.53753 0.54075 0.57745 0.0
Zn202 Zn 0.46112 0.50735 0.71232 0.0
Zn203 Zn 0.42803 0.64642 0.62017 0.0
O204 O 0.46497 0.52885 0.49518 0.0
O205 O 0.42603 0.64228 0.50646 0.0
O206 O 0.66732 0.70352 0.6366 0.0
O207 O 0.62626 0.61335 0.54679 0.0
O208 O 0.56221 0.43435 0.59759 0.0
O209 O 0.51559 0.41645 0.70777 0.0
O210 O 0.35663 0.46338 0.67823 0.0
O211 O 0.54175 0.77415 0.74513 0.0
O212 O 0.32909 0.57406 0.63707 0.0
O213 O 0.43547 0.75293 0.68114 0.0
C214 C 0.5218 0.59677 0.84454 0.0
C215 C 0.43153 0.57957 0.46895 0.0
C216 C 0.55049 0.39331 0.65453 0.0
C217 C 0.6726 0.67432 0.5716 0.0
C218 C 0.31021 0.50069 0.65201 0.0
C219 C 0.48072 0.79433 0.72943 0.0
O220 O 0.46505 0.55425 0.81132 0.0
O221 O 0.91641 0.62854 0.19237 0.0
Zn222 Zn 0.9514 0.55537 0.12282 0.0
O223 O -0.00462 0.617 0.04386 0.0
Zn224 Zn 0.91571 0.62236 0.97996 0.0
Zn225 Zn 0.0261 0.72688 0.06859 0.0
Zn226 Zn 0.07518 0.57227 1.01153 0.0
O227 O 0.93732 0.57391 0.88901 0.0
O228 O 0.05577 0.55957 0.89935 0.0
O229 O 0.85497 0.47844 0.0953 0.0
O230 O 0.81931 0.56231 1.01978 0.0
O231 O 0.91123 0.73441 0.95028 0.0
O232 O 0.02559 0.79929 0.98058 0.0
O233 O 0.12855 0.7399 0.11771 0.0
O234 O 0.02436 0.49888 0.16611 0.0
O235 O 0.17053 0.6464 0.05356 0.0
O236 O 0.08165 0.46956 0.06618 0.0
C237 C 0.90228 0.69565 0.17782 0.0
C238 C -0.00395 0.55937 0.86113 0.0
C239 C 0.96489 0.79482 0.94418 0.0
C240 C 0.80381 0.50254 0.06087 0.0
C241 C 0.18045 0.70346 0.10172 0.0
C242 C 0.06848 0.46148 0.13441 0.0
O243 O 0.93946 0.74128 0.13126 0.0
loop_
_geom_bond_atom_site_label_1
_geom_bond_atom_site_label_2
_geom_bond_distance
_geom_bond_site_symmetry_2
_ccdc_geom_bond_type
H0 C1 0.949 . S
C1 H0 0.949 . S
C1 C2 1.395 . S
C1 C3 1.391 . S
C2 C1 1.395 . S
C2 C5 1.390 . S
C3 C1 1.391 . S
C3 C7 1.387 . S
C3 C8 1.491 . S
H4 C5 0.950 . S
C5 C2 1.390 . S
C5 H4 0.950 . S
C5 C6 1.378 . S
C6 C5 1.378 . S
C6 C7 1.409 . S
C7 C3 1.387 . S
C7 C6 1.409 . S
C7 H9 0.951 . S
C8 C3 1.491 . S
C8 C10 1.382 . S
C8 C12 1.404 . S
H9 C7 0.951 . S
C10 C8 1.382 . S
C10 C11 1.390 . S
C10 H15 0.949 . S
C11 C10 1.390 . S
C11 C16 1.399 . S
C12 C8 1.404 . S
C12 H13 0.950 . S
C12 C14 1.375 . S
H13 C12 0.950 . S
C14 C12 1.375 . S
C14 C16 1.382 . S
C14 H18 0.950 . S
H15 C10 0.949 . S
C16 C11 1.399 . S
C16 C14 1.382 . S
C16 H17 0.952 . S
H17 C16 0.952 . S
H18 C14 0.950 . S
H19 C20 0.949 . S
C20 H19 0.949 . S
C20 C21 1.395 . S
C20 C22 1.391 . S
C21 C20 1.395 . S
C21 C24 1.390 . S
C22 C20 1.391 . S
C22 C26 1.387 . S
C22 C27 1.491 . S
H23 C24 0.950 . S
C24 C21 1.390 . S
C24 H23 0.950 . S
C24 C25 1.378 . S
C25 C24 1.378 . S
C25 C26 1.409 . S
C26 C22 1.387 . S
C26 C25 1.409 . S
C26 H28 0.951 . S
C27 C22 1.491 . S
C27 C29 1.382 . S
C27 C31 1.404 . S
H28 C26 0.951 . S
C29 C27 1.382 . S
C29 C30 1.390 . S
C29 H34 0.949 1_565 S
C30 C29 1.390 . S
C30 C35 1.399 . S
C31 C27 1.404 . S
C31 H32 0.950 . S
C31 C33 1.375 . S
H32 C31 0.950 . S
C33 C31 1.375 . S
C33 C35 1.382 . S
C33 H37 0.950 . S
H34 C29 0.949 1_545 S
C35 C30 1.399 . S
C35 C33 1.382 . S
C35 H36 0.952 . S
H36 C35 0.952 . S
H37 C33 0.950 . S
H38 C39 0.949 . S
C39 H38 0.949 . S
C39 C40 1.395 1_556 S
C39 C41 1.391 . S
C40 C39 1.395 1_554 S
C40 C43 1.390 . S
C41 C39 1.391 . S
C41 C45 1.387 . S
C41 C46 1.491 . S
H42 C43 0.950 . S
C43 C40 1.390 . S
C43 H42 0.950 . S
C43 C44 1.378 . S
C44 C43 1.378 . S
C44 C45 1.409 1_554 S
C45 C41 1.387 . S
C45 C44 1.409 1_556 S
C45 H47 0.951 . S
C46 C41 1.491 . S
C46 C48 1.382 . S
C46 C50 1.404 . S
H47 C45 0.951 . S
C48 C46 1.382 . S
C48 C49 1.390 . S
C48 H53 0.949 . S
C49 C48 1.390 . S
C49 C54 1.399 . S
C50 C46 1.404 . S
C50 H51 0.950 . S
C50 C52 1.375 . S
H51 C50 0.950 . S
C52 C50 1.375 . S
C52 C54 1.382 . S
C52 H56 0.950 . S
H53 C48 0.949 . S
C54 C49 1.399 . S
C54 C52 1.382 . S
C54 H55 0.952 . S
H55 C54 0.952 . S
H56 C52 0.950 . S
H57 C58 0.949 . S
C58 H57 0.949 . S
C58 C59 1.395 . S
C58 C60 1.391 . S
C59 C58 1.395 . S
C59 C62 1.390 . S
C60 C58 1.391 . S
C60 C64 1.387 . S
C60 C65 1.491 . S
H61 C62 0.950 . S
C62 C59 1.390 . S
C62 H61 0.950 . S
C62 C63 1.378 . S
C63 C62 1.378 . S
C63 C64 1.409 . S
C64 C60 1.387 . S
C64 C63 1.409 . S
C64 H66 0.951 . S
C65 C60 1.491 . S
C65 C67 1.382 . S
C65 C69 1.404 . S
H66 C64 0.951 . S
C67 C65 1.382 . S
C67 C68 1.390 . S
C67 H72 0.949 . S
C68 C67 1.390 . S
C68 C73 1.399 . S
C69 C65 1.404 . S
C69 H70 0.950 . S
C69 C71 1.375 . S
H70 C69 0.950 . S
C71 C69 1.375 . S
C71 C73 1.382 . S
C71 H75 0.950 . S
H72 C67 0.949 . S
C73 C68 1.399 . S
C73 C71 1.382 . S
C73 H74 0.952 . S
H74 C73 0.952 . S
H75 C71 0.950 . S
H76 C77 0.935 1_554 S
C77 H76 0.935 1_556 S
C77 C78 1.395 1_655 S
C77 C79 1.391 1_565 S
C78 C77 1.395 1_455 S
C78 C81 1.390 . S
C79 C77 1.391 1_545 S
C79 C83 1.387 . S
C79 C84 1.491 . S
H80 C81 0.950 . S
C81 C78 1.390 . S
C81 H80 0.950 . S
C81 C82 1.378 1_565 S
C82 C81 1.378 1_545 S
C82 C83 1.409 1_455 S
C83 C79 1.387 . S
C83 C82 1.409 1_655 S
C83 H85 0.951 . S
C84 C79 1.491 . S
C84 C86 1.382 1_556 S
C84 C88 1.404 . S
H85 C83 0.951 . S
C86 C84 1.382 1_554 S
C86 C87 1.390 . S
C86 H91 0.949 . S
C87 C86 1.390 . S
C87 C92 1.399 1_554 S
C88 C84 1.404 . S
C88 H89 0.950 . S
C88 C90 1.375 . S
H89 C88 0.950 . S
C90 C88 1.375 . S
C90 C92 1.382 . S
C90 H94 0.950 . S
H91 C86 0.949 . S
C92 C87 1.399 1_556 S
C92 C90 1.382 . S
C92 H93 0.952 . S
H93 C92 0.952 . S
H94 C90 0.950 . S
H95 C96 0.949 . S
C96 H95 0.949 . S
C96 C97 1.395 . S
C96 C98 1.391 . S
C97 C96 1.395 . S
C97 C100 1.390 . S
C98 C96 1.391 . S
C98 C102 1.387 . S
C98 C103 1.491 . S
H99 C100 0.950 1_565 S
C100 C97 1.390 . S
C100 H99 0.950 1_545 S
C100 C101 1.378 . S
C101 C100 1.378 . S
C101 C102 1.409 . S
C102 C98 1.387 . S
C102 C101 1.409 . S
C102 H104 0.951 . S
C103 C98 1.491 . S
C103 C105 1.382 . S
C103 C107 1.404 . S
H104 C102 0.951 . S
C105 C103 1.382 . S
C105 C106 1.390 . S
C105 H110 0.949 . S
C106 C105 1.390 . S
C106 C111 1.399 . S
C107 C103 1.404 . S
C107 H108 0.950 . S
C107 C109 1.375 . S
H108 C107 0.950 . S
C109 C107 1.375 . S
C109 C111 1.382 . S
C109 H113 0.950 . S
H110 C105 0.949 . S
C111 C106 1.399 . S
C111 C109 1.382 . S
C111 H112 0.952 . S
H112 C111 0.952 . S
H113 C109 0.950 . S
H114 C115 0.949 . S
C115 H114 0.949 . S
C115 C116 1.395 . S
C115 C117 1.391 . S
C116 C115 1.395 . S
C116 C119 1.390 . S
C117 C115 1.391 . S
C117 C121 1.387 . S
C117 C122 1.491 . S
H118 C119 0.950 . S
C119 C116 1.390 . S
C119 H118 0.950 . S
C119 C120 1.378 . S
C120 C119 1.378 . S
C120 C121 1.409 . S
C121 C117 1.387 . S
C121 C120 1.409 . S
C121 H123 0.951 . S
C122 C117 1.491 . S
C122 C124 1.382 . S
C122 C126 1.404 . S
H123 C121 0.951 . S
C124 C122 1.382 . S
C124 C125 1.390 . S
C124 H129 0.949 . S
C125 C124 1.390 . S
C125 C130 1.399 . S
C126 C122 1.404 . S
C126 H127 0.950 . S
C126 C128 1.375 . S
H127 C126 0.950 . S
C128 C126 1.375 . S
C128 C130 1.382 . S
C128 H132 0.950 . S
H129 C124 0.949 . S
C130 C125 1.399 . S
C130 C128 1.382 . S
C130 H131 0.952 . S
H131 C130 0.952 . S
H132 C128 0.950 . S
H133 C134 0.949 . S
C134 H133 0.949 . S
C134 C135 1.395 . S
C134 C136 1.391 . S
C135 C134 1.395 . S
C135 C138 1.390 . S
C136 C134 1.391 . S
C136 C140 1.387 . S
C136 C141 1.491 . S
H137 C138 0.950 . S
C138 C135 1.390 . S
C138 H137 0.950 . S
C138 C139 1.378 . S
C139 C138 1.378 . S
C139 C140 1.409 . S
C140 C136 1.387 . S
C140 C139 1.409 . S
C140 H142 0.951 . S
C141 C136 1.491 . S
C141 C143 1.382 . S
C141 C145 1.404 . S
H142 C140 0.951 . S
C143 C141 1.382 . S
C143 C144 1.390 . S
C143 H148 0.949 . S
C144 C143 1.390 . S
C144 C149 1.399 . S
C145 C141 1.404 . S
C145 H146 0.950 . S
C145 C147 1.375 . S
H146 C145 0.950 . S
C147 C145 1.375 . S
C147 C149 1.382 . S
C147 H151 0.950 . S
H148 C143 0.949 . S
C149 C144 1.399 . S
C149 C147 1.382 . S
C149 H150 0.952 . S
H150 C149 0.952 . S
H151 C147 0.950 . S
O152 Zn153 1.953 1_455 S
O152 C168 1.225 . S
Zn153 O152 1.953 1_655 S
Zn153 O154 1.949 1_655 S
Zn153 O160 1.919 . S
Zn153 O165 1.924 . S
O154 Zn153 1.949 1_455 S
O154 Zn155 1.923 1_455 S
O154 Zn156 1.950 . S
O154 Zn157 1.945 1_545 S
Zn155 O154 1.923 1_655 S
Zn155 O158 1.933 1_545 S
Zn155 O161 1.941 . S
Zn155 O162 1.965 1_655 S
Zn156 O154 1.950 . S
Zn156 O163 1.938 . S
Zn156 O164 1.906 . S
Zn156 O174 1.953 . S
Zn157 O154 1.945 1_565 S
Zn157 O159 1.932 1_455 S
Zn157 O166 1.977 . S
Zn157 O167 1.910 1_455 S
O158 Zn155 1.933 1_565 S
O158 C169 1.226 . S
O159 Zn157 1.932 1_655 S
O159 C169 1.307 . S
O160 Zn153 1.919 . S
O160 C171 1.253 . S
O161 Zn155 1.941 . S
O161 C171 1.283 . S
O162 Zn155 1.965 1_455 S
O162 C170 1.303 . S
O163 Zn156 1.938 . S
O163 C170 1.247 . S
O164 Zn156 1.906 . S
O164 C172 1.304 1_545 S
O165 Zn153 1.924 . S
O165 C173 1.311 . S
O166 Zn157 1.977 . S
O166 C172 1.272 . S
O167 Zn157 1.910 1_655 S
O167 C173 1.231 1_565 S
C168 O152 1.225 . S
C168 O174 1.298 . S
C169 O158 1.226 . S
C169 O159 1.307 . S
C170 O162 1.303 . S
C170 O163 1.247 . S
C171 O160 1.253 . S
C171 O161 1.283 . S
C172 O164 1.304 1_565 S
C172 O166 1.272 . S
C173 O165 1.311 . S
C173 O167 1.231 1_545 S
O174 Zn156 1.953 . S
O174 C168 1.298 . S
O175 Zn176 1.953 . S
O175 C191 1.225 . S
Zn176 O175 1.953 . S
Zn176 O177 1.949 . S
Zn176 O183 1.919 1_554 S
Zn176 O188 1.924 . S
O177 Zn176 1.949 . S
O177 Zn178 1.923 1_545 S
O177 Zn179 1.950 . S
O177 Zn180 1.945 . S
Zn178 O177 1.923 1_565 S
Zn178 O181 1.933 . S
Zn178 O184 1.941 1_554 S
Zn178 O185 1.965 . S
Zn179 O177 1.950 . S
Zn179 O186 1.938 . S
Zn179 O187 1.906 . S
Zn179 O197 1.953 . S
Zn180 O177 1.945 . S
Zn180 O182 1.932 1_545 S
Zn180 O189 1.977 . S
Zn180 O190 1.910 . S
O181 Zn178 1.933 . S
O181 C192 1.226 . S
O182 Zn180 1.932 1_565 S
O182 C192 1.307 . S
O183 Zn176 1.919 1_556 S
O183 C194 1.253 1_545 S
O184 Zn178 1.941 1_556 S
O184 C194 1.283 . S
O185 Zn178 1.965 . S
O185 C193 1.303 1_565 S
O186 Zn179 1.938 . S
O186 C193 1.247 . S
O187 Zn179 1.906 . S
O187 C195 1.304 . S
O188 Zn176 1.924 . S
O188 C196 1.311 . S
O189 Zn180 1.977 . S
O189 C195 1.272 . S
O190 Zn180 1.910 . S
O190 C196 1.231 . S
C191 O175 1.225 . S
C191 O197 1.298 . S
C192 O181 1.226 . S
C192 O182 1.307 . S
C193 O185 1.303 1_545 S
C193 O186 1.247 . S
C194 O183 1.253 1_565 S
C194 O184 1.283 . S
C195 O187 1.304 . S
C195 O189 1.272 . S
C196 O188 1.311 . S
C196 O190 1.231 . S
O197 Zn179 1.953 . S
O197 C191 1.298 . S
O198 Zn199 1.953 . S
O198 C214 1.225 . S
Zn199 O198 1.953 . S
Zn199 O200 1.949 . S
Zn199 O206 1.919 . S
Zn199 O211 1.924 . S
O200 Zn199 1.949 . S
O200 Zn201 1.923 . S
O200 Zn202 1.950 . S
O200 Zn203 1.945 . S
Zn201 O200 1.923 . S
Zn201 O204 1.933 . S
Zn201 O207 1.941 . S
Zn201 O208 1.965 . S
Zn202 O200 1.950 . S
Zn202 O209 1.938 . S
Zn202 O210 1.906 . S
Zn202 O220 1.953 . S
Zn203 O200 1.945 . S
Zn203 O205 1.932 . S
Zn203 O212 1.977 . S
Zn203 O213 1.910 . S
O204 Zn201 1.933 . S
O204 C215 1.226 . S
O205 Zn203 1.932 . S
O205 C215 1.307 . S
O206 Zn199 1.919 . S
O206 C217 1.253 . S
O207 Zn201 1.941 . S
O207 C217 1.283 . S
O208 Zn201 1.965 . S
O208 C216 1.303 . S
O209 Zn202 1.938 . S
O209 C216 1.247 . S
O210 Zn202 1.906 . S
O210 C218 1.304 . S
O211 Zn199 1.924 . S
O211 C219 1.311 . S
O212 Zn203 1.977 . S
O212 C218 1.272 . S
O213 Zn203 1.910 . S
O213 C219 1.231 . S
C214 O198 1.225 . S
C214 O220 1.298 . S
C215 O204 1.226 . S
C215 O205 1.307 . S
C216 O208 1.303 . S
C216 O209 1.247 . S
C217 O206 1.253 . S
C217 O207 1.283 . S
C218 O210 1.304 . S
C218 O212 1.272 . S
C219 O211 1.311 . S
C219 O213 1.231 . S
O220 Zn202 1.953 . S
O220 C214 1.298 . S
O221 Zn222 1.953 . S
O221 C237 1.225 . S
Zn222 O221 1.953 . S
Zn222 O223 1.949 1_655 S
Zn222 O229 1.919 . S
Zn222 O234 1.924 . S
O223 Zn222 1.949 1_455 S
O223 Zn224 1.923 1_454 S
O223 Zn225 1.950 . S
O223 Zn226 1.945 . S
Zn224 O223 1.923 1_656 S
Zn224 O227 1.933 1_655 S
Zn224 O230 1.941 . S
Zn224 O231 1.965 . S
Zn225 O223 1.950 . S
Zn225 O232 1.938 . S
Zn225 O233 1.906 . S
Zn225 O243 1.953 . S
Zn226 O223 1.945 . S
Zn226 O228 1.932 1_554 S
Zn226 O235 1.977 . S
Zn226 O236 1.910 . S
O227 Zn224 1.933 1_455 S
O227 C238 1.226 . S
O228 Zn226 1.932 1_556 S
O228 C238 1.307 . S
O229 Zn222 1.919 . S
O229 C240 1.253 1_554 S
O230 Zn224 1.941 . S
O230 C240 1.283 . S
O231 Zn224 1.965 . S
O231 C239 1.303 1_655 S
O232 Zn225 1.938 . S
O232 C239 1.247 1_554 S
O233 Zn225 1.906 . S
O233 C241 1.304 . S
O234 Zn222 1.924 . S
O234 C242 1.311 1_655 S
O235 Zn226 1.977 . S
O235 C241 1.272 . S
O236 Zn226 1.910 . S
O236 C242 1.231 . S
C237 O221 1.225 . S
C237 O243 1.298 1_655 S
C238 O227 1.226 . S
C238 O228 1.307 . S
C239 O231 1.303 1_455 S
C239 O232 1.247 1_556 S
C240 O229 1.253 1_556 S
C240 O230 1.283 . S
C241 O233 1.304 . S
C241 O235 1.272 . S
C242 O234 1.311 1_455 S
C242 O236 1.231 . S
O243 Zn225 1.953 . S
O243 C237 1.298 1_455 S
C6 C170 2.081 . S
C21 C194 2.566 . S
C214 C49 1.232 . S
C68 C237 1.191 . S
C196 C2 2.681 . S
C172 C30 1.192 . S
C240 C40 2.297 1_556 S
C217 C63 1.392 . S
C11 C242 1.406 . S
C191 C44 2.110 . S
C59 C169 1.323 . S
C25 C219 2.039 . S
C173 C82 2.694 1_655 S
C101 C195 2.301 . S
C125 C215 1.923 . S
C144 C238 1.248 . S
C87 C193 1.113 . S
C171 C97 2.445 . S
C241 C120 1.440 . S
C218 C135 1.758 . S
C78 C239 2.468 . S
C192 C116 1.486 . S
C168 C139 2.183 . S
C106 C216 1.780 . S
