# Generated by pormake.
# Topology pts, (4,4)-cn, num edge types: 1
# Building blocks:
#     Node 0, Type 0, BuildingBlock: MUDLON_clean_linker_0, # of connection points: 4
#     Node 1, Type 0, BuildingBlock: MUDLON_clean_linker_0, # of connection points: 4
#     Node 2, Type 1, BuildingBlock: AZAVOO_clean_sbu_0, # of connection points: 4
#     Node 3, Type 1, BuildingBlock: AZAVOO_clean_sbu_0, # of connection points: 4
#     Edge 4, Type (0, 1), None
#     Edge 5, Type (0, 1), None
#     Edge 6, Type (0, 1), None
#     Edge 7, Type (0, 1), None
#     Edge 8, Type (0, 1), None
#     Edge 9, Type (0, 1), None
#     Edge 10, Type (0, 1), None
#     Edge 11, Type (0, 1), None
# Relax obj value: 0.024
# Max RMSD: 0.067
# Mean RMSD: 0.065
data_MOF--net-pts--node1-AZAVOO_clean_sbu_0--node2-MUDLON_clean_linker_0--edge1-none
_symmetry_space_group_name_H-M    P1
_symmetry_Int_Tables_number       1
_symmetry_cell_setting            triclinic
loop_
_symmetry_equiv_pos_as_xyz
'x, y, z'
_cell_length_a     20.242864
_cell_length_b     22.532004
_cell_length_c     23.638324
_cell_angle_alpha  87.998226
_cell_angle_beta   97.082799
_cell_angle_gamma 90.999533
loop_
_atom_site_label
_atom_site_type_symbol
_atom_site_fract_x
_atom_site_fract_y
_atom_site_fract_z
_atom_type_partial_charge
H0 H 0.88738 0.06108 0.09598 0.0
N1 N 0.76555 0.02527 0.05463 0.0
H2 H 0.95142 0.03253 0.18728 0.0
H3 H 0.72559 0.94632 0.13726 0.0
H4 H 0.78799 0.92067 0.2292 0.0
H5 H 0.8056 0.91345 1.03529 0.0
H6 H 0.86091 0.88332 0.95514 0.0
H7 H 0.79126 0.0923 0.96459 0.0
H8 H 0.84685 0.06255 0.88356 0.0
H9 H 0.68516 0.1106 0.078 0.0
H10 H 0.68398 0.93042 1.02223 0.0
H11 H 0.56405 0.1055 0.07682 0.0
H12 H 0.56331 0.92549 1.01928 0.0
H13 H 0.24336 0.07377 0.12965 0.0
H14 H 0.19111 0.04661 0.2153 0.0
H15 H 0.18749 0.86242 0.16923 0.0
H16 H 0.23953 0.89024 0.084 0.0
H17 H 0.14855 0.03782 1.00636 0.0
H18 H 0.08137 0.00751 0.91896 0.0
H19 H 0.23737 0.88994 0.8856 0.0
H20 H 0.30297 0.91807 0.97457 0.0
H21 H 0.34095 0.09409 1.01367 0.0
H22 H 0.46166 0.1002 1.01221 0.0
H23 H 0.47986 0.92145 0.0844 0.0
N24 N 0.26975 0.00273 1.04804 0.0
H25 H 0.35933 0.91533 0.08412 0.0
C26 C 0.80126 0.00685 0.10926 0.0
C27 C 0.86555 0.03002 0.12461 0.0
C28 C 0.90215 0.01346 0.17659 0.0
C29 C 0.87444 -0.02549 0.21522 0.0
C30 C 0.81027 -0.04897 0.2002 0.0
C31 C 0.77442 -0.03391 0.14738 0.0
C32 C 0.79451 0.00532 1.0059 0.0
C33 C 0.81393 0.94614 1.00216 0.0
C34 C 0.84574 0.92908 0.95628 0.0
C35 C 0.85868 -0.02933 0.91305 0.0
C36 C 0.83774 0.02949 0.91616 0.0
C37 C 0.80597 0.04655 0.96226 0.0
C38 C 0.69374 0.02144 1.04974 0.0
C39 C 0.65861 0.07031 0.06472 0.0
C40 C 0.58947 0.0673 0.06383 0.0
C41 C 0.55392 0.01505 1.04794 0.0
C42 C 0.58918 -0.03384 1.03235 0.0
C43 C 0.65833 -0.03079 1.03331 0.0
C44 C 0.24502 -0.01579 0.10058 0.0
C45 C 0.23198 0.02752 0.13869 0.0
C46 C 0.20212 0.01189 0.18746 0.0
C47 C 0.18467 -0.0476 0.1989 0.0
C48 C 0.20002 0.90869 0.16161 0.0
C49 C 0.22995 0.92441 0.11291 0.0
C50 C 0.2313 -0.01852 0.99687 0.0
C51 C 0.16791 0.00498 0.98057 0.0
C52 C 0.12948 -0.01273 0.93079 0.0
C53 C 0.15428 0.94645 0.89528 0.0
C54 C 0.21717 0.92168 0.91204 0.0
C55 C 0.25493 0.93819 0.9629 0.0
C56 C 0.34119 0.00472 1.04936 0.0
C57 C 0.37123 0.05641 1.02927 0.0
C58 C 0.44014 0.05984 1.02872 0.0
C59 C 0.48051 0.01135 1.0483 0.0
C60 C 0.45021 -0.04062 0.06842 0.0
C61 C 0.38123 -0.04398 0.06889 0.0
H62 H 0.87498 0.69016 0.63284 0.0
N63 N 0.95293 0.67933 0.55098 0.0
H64 H 0.88884 0.76123 0.70965 0.0
H65 H 0.06776 0.7412 0.58626 0.0
H66 H 0.08093 0.81345 0.66133 0.0
H67 H 0.06065 0.67771 0.49057 0.0
H68 H 0.08557 0.751 0.41721 0.0
H69 H 0.87125 0.75992 0.49794 0.0
H70 H 0.89667 0.83405 0.4254 0.0
H71 H 0.88177 0.59194 0.50088 0.0
H72 H 0.06844 0.62851 0.60319 0.0
H73 H 0.91053 0.48734 0.49969 0.0
H74 H 0.09589 0.52366 0.60547 0.0
H75 H 0.96851 0.22456 0.61942 0.0
H76 H 0.96461 0.13994 0.68515 0.0
H77 H 0.17018 0.10331 0.66941 0.0
H78 H 0.17376 0.18873 0.60337 0.0
H79 H 0.14691 0.21301 0.47832 0.0
H80 H 0.12046 0.13323 0.41116 0.0
H81 H 0.91721 0.13054 0.4498 0.0
H82 H 0.94426 0.20828 0.51694 0.0
H83 H 0.94559 0.29699 0.55463 0.0
H84 H 0.9201 0.40098 0.5569 0.0
H85 H 0.12779 0.44615 0.55122 0.0
N86 N 0.07019 0.24891 0.55366 0.0
H87 H 0.15364 0.34043 0.55294 0.0
C88 C 0.96926 0.71135 0.60292 0.0
C89 C 0.92099 0.71552 0.6402 0.0
C90 C 0.92919 0.75599 0.68418 0.0
C91 C 0.98557 0.79361 0.6909 0.0
C92 C 0.03667 0.78553 0.65684 0.0
C93 C 0.02898 0.74433 0.61362 0.0
C94 C 0.96385 0.71352 0.50003 0.0
C95 C 0.02345 0.71026 0.47519 0.0
C96 C 0.03762 0.75209 0.43303 0.0
C97 C 0.99327 0.79846 0.41609 0.0
C98 C 0.93197 0.79913 0.43805 0.0
C99 C 0.91728 0.75676 0.47931 0.0
C100 C 0.97209 0.61791 0.55268 0.0
C101 C 0.92857 0.5771 0.52372 0.0
C102 C 0.94499 0.51725 0.52354 0.0
C103 C 0.00528 0.49662 0.5531 0.0
C104 C 0.04933 0.53785 0.58178 0.0
C105 C 0.03326 0.59798 0.58113 0.0
C106 C 0.07159 0.21296 0.60553 0.0
C107 C 0.01369 0.20022 0.63146 0.0
C108 C 0.01141 0.15137 0.66943 0.0
C109 C 0.06661 0.11407 0.68151 0.0
C110 C 0.12645 0.1307 0.66037 0.0
C111 C 0.12881 0.17977 0.62293 0.0
C112 C 0.04802 0.21676 0.50298 0.0
C113 C 0.09606 0.19677 0.47037 0.0
C114 C 0.08081 0.1511 0.43206 0.0
C115 C 0.01703 0.1246 0.42603 0.0
C116 C 0.9671 0.14941 0.45393 0.0
C117 C 0.98246 0.19473 0.49228 0.0
C118 C 0.05219 0.31039 0.55456 0.0
C119 C 0.98617 0.32854 0.55487 0.0
C120 C 0.97131 0.38876 0.55528 0.0
C121 C 0.02175 0.4324 0.55405 0.0
C122 C 0.0877 0.41401 0.55324 0.0
C123 C 0.10259 0.35365 0.55378 0.0
Mg124 Mg 0.06242 0.94815 0.34689 0.0
O125 O 0.97476 -0.04122 0.27652 0.0
O126 O 0.87928 -0.04456 0.31494 0.0
Mg127 Mg 0.90594 0.94235 0.41148 0.0
C128 C 0.91141 -0.03909 0.27186 0.0
C129 C 0.14732 0.93618 0.24742 0.0
O130 O 0.1252 0.88152 0.25386 0.0
O131 O 0.04939 0.04395 0.37275 0.0
O132 O 0.95725 0.03395 0.41595 0.0
O133 O 0.05729 0.8479 0.3477 0.0
O134 O 0.00194 0.90331 0.40012 0.0
C135 C 0.00579 0.06535 0.40095 0.0
C136 C 0.01611 0.85132 0.38512 0.0
O137 O 0.13191 -0.02462 0.28082 0.0
Mg138 Mg 0.96795 -0.04953 0.76062 0.0
O139 O 0.05424 0.94356 0.83203 0.0
O140 O 0.14847 0.92284 0.79749 0.0
Mg141 Mg 0.12073 0.91364 0.70112 0.0
C142 C 0.11669 0.93456 0.83899 0.0
C143 C 0.89546 -0.04753 0.86621 0.0
O144 O 0.91963 0.89867 0.8673 0.0
O145 O 0.00878 0.04112 0.73332 0.0
O146 O 0.09766 0.01345 0.69325 0.0
O147 O 0.94425 0.85271 0.7622 0.0
O148 O 0.01476 0.89524 0.70898 0.0
C149 C 0.05869 0.0535 0.70639 0.0
C150 C 0.98465 0.84777 0.72432 0.0
O151 O 0.90609 -0.01165 0.82539 0.0
loop_
_geom_bond_atom_site_label_1
_geom_bond_atom_site_label_2
_geom_bond_distance
_geom_bond_site_symmetry_2
_ccdc_geom_bond_type
H0 C27 0.929 . S
N1 C26 1.433 . S
N1 C32 1.435 1_554 S
N1 C38 1.423 1_554 S
H2 C28 0.930 . S
H3 C31 0.931 . S
H4 C30 0.929 . S
H5 C33 0.930 . S
H6 C34 0.932 . S
H7 C37 0.929 . S
H8 C36 0.931 . S
H9 C39 0.929 . S
H10 C43 0.932 1_565 S
H11 C40 0.931 . S
H12 C42 0.929 1_565 S
H13 C45 0.929 . S
H14 C46 0.930 . S
H15 C48 0.929 . S
H16 C49 0.931 . S
H17 C51 0.930 . S
H18 C52 0.932 . S
H19 C54 0.931 . S
H20 C55 0.929 . S
H21 C57 0.929 . S
H22 C58 0.931 . S
H23 C60 0.929 1_565 S
N24 C44 1.433 1_556 S
N24 C50 1.435 . S
N24 C56 1.423 . S
H25 C61 0.932 1_565 S
C26 N1 1.433 . S
C26 C27 1.363 . S
C26 C31 1.370 1_545 S
C27 H0 0.929 . S
C27 C26 1.363 . S
C27 C28 1.385 . S
C28 H2 0.930 . S
C28 C27 1.385 . S
C28 C29 1.357 . S
C29 C28 1.357 . S
C29 C30 1.406 1_545 S
C30 H4 0.929 . S
C30 C29 1.406 1_565 S
C30 C31 1.391 . S
C31 H3 0.931 . S
C31 C26 1.370 1_565 S
C31 C30 1.391 . S
C32 N1 1.435 1_556 S
C32 C33 1.358 1_545 S
C32 C37 1.371 . S
C33 H5 0.930 . S
C33 C32 1.358 1_565 S
C33 C34 1.405 . S
C34 H6 0.932 . S
C34 C33 1.405 . S
C34 C35 1.383 1_565 S
C35 C34 1.383 1_545 S
C35 C36 1.393 . S
C36 H8 0.931 . S
C36 C35 1.393 . S
C36 C37 1.382 . S
C37 H7 0.929 . S
C37 C32 1.371 . S
C37 C36 1.382 . S
C38 N1 1.423 1_556 S
C38 C39 1.362 1_556 S
C38 C43 1.388 . S
C39 H9 0.929 . S
C39 C38 1.362 1_554 S
C39 C40 1.376 . S
C40 H11 0.931 . S
C40 C39 1.376 . S
C40 C41 1.396 1_554 S
C41 C40 1.396 1_556 S
C41 C42 1.348 . S
C41 C59 1.472 . S
C42 H12 0.929 1_545 S
C42 C41 1.348 . S
C42 C43 1.443 . S
C43 H10 0.932 1_545 S
C43 C38 1.388 . S
C43 C42 1.443 . S
C44 N24 1.433 1_554 S
C44 C45 1.363 . S
C44 C49 1.370 1_545 S
C45 H13 0.929 . S
C45 C44 1.363 . S
C45 C46 1.385 . S
C46 H14 0.930 . S
C46 C45 1.385 . S
C46 C47 1.357 . S
C47 C46 1.357 . S
C47 C48 1.406 1_545 S
C48 H15 0.929 . S
C48 C47 1.406 1_565 S
C48 C49 1.391 . S
C49 H16 0.931 . S
C49 C44 1.370 1_565 S
C49 C48 1.391 . S
C50 N24 1.435 . S
C50 C51 1.358 1_545 S
C50 C55 1.371 . S
C51 H17 0.930 . S
C51 C50 1.358 1_565 S
C51 C52 1.405 . S
C52 H18 0.932 . S
C52 C51 1.405 . S
C52 C53 1.383 1_565 S
C53 C52 1.383 1_545 S
C53 C54 1.393 . S
C54 H19 0.931 . S
C54 C53 1.393 . S
C54 C55 1.382 . S
C55 H20 0.929 . S
C55 C50 1.371 . S
C55 C54 1.382 . S
C56 N24 1.423 . S
C56 C57 1.362 1_556 S
C56 C61 1.388 . S
C57 H21 0.929 . S
C57 C56 1.362 1_554 S
C57 C58 1.376 . S
C58 H22 0.931 . S
C58 C57 1.376 . S
C58 C59 1.396 1_554 S
C59 C41 1.472 . S
C59 C58 1.396 1_556 S
C59 C60 1.348 . S
C60 H23 0.929 1_545 S
C60 C59 1.348 . S
C60 C61 1.443 . S
C61 H25 0.932 1_545 S
C61 C56 1.388 . S
C61 C60 1.443 . S
H62 C89 0.929 . S
N63 C88 1.433 1_655 S
N63 C94 1.435 1_655 S
N63 C100 1.423 . S
H64 C90 0.930 . S
H65 C93 0.931 . S
H66 C92 0.929 . S
H67 C95 0.930 . S
H68 C96 0.932 . S
H69 C99 0.929 . S
H70 C98 0.931 . S
H71 C101 0.929 . S
H72 C105 0.932 . S
H73 C102 0.931 . S
H74 C104 0.929 . S
H75 C107 0.929 . S
H76 C108 0.930 . S
H77 C110 0.929 . S
H78 C111 0.931 . S
H79 C113 0.930 . S
H80 C114 0.932 . S
H81 C116 0.931 . S
H82 C117 0.929 . S
H83 C119 0.929 . S
H84 C120 0.931 . S
H85 C122 0.929 . S
N86 C106 1.433 1_655 S
N86 C112 1.435 1_655 S
N86 C118 1.423 . S
H87 C123 0.932 . S
C88 N63 1.433 1_455 S
C88 C89 1.363 1_455 S
C88 C93 1.370 . S
C89 H62 0.929 . S
C89 C88 1.363 1_655 S
C89 C90 1.385 . S
C90 H64 0.930 . S
C90 C89 1.385 . S
C90 C91 1.357 1_655 S
C91 C90 1.357 1_455 S
C91 C92 1.406 . S
C92 H66 0.929 . S
C92 C91 1.406 . S
C92 C93 1.391 . S
C93 H65 0.931 . S
C93 C88 1.370 . S
C93 C92 1.391 . S
C94 N63 1.435 1_455 S
C94 C95 1.358 . S
C94 C99 1.371 1_455 S
C95 H67 0.930 . S
C95 C94 1.358 . S
C95 C96 1.405 . S
C96 H68 0.932 . S
C96 C95 1.405 . S
C96 C97 1.383 . S
C97 C96 1.383 . S
C97 C98 1.393 1_455 S
C98 H70 0.931 . S
C98 C97 1.393 1_655 S
C98 C99 1.382 . S
C99 H69 0.929 . S
C99 C94 1.371 1_655 S
C99 C98 1.382 . S
C100 N63 1.423 . S
C100 C101 1.362 . S
C100 C105 1.388 1_655 S
C101 H71 0.929 . S
C101 C100 1.362 . S
C101 C102 1.376 . S
C102 H73 0.931 . S
C102 C101 1.376 . S
C102 C103 1.396 . S
C103 C102 1.396 . S
C103 C104 1.348 1_655 S
C103 C121 1.472 . S
C104 H74 0.929 . S
C104 C103 1.348 1_455 S
C104 C105 1.443 . S
C105 H72 0.932 . S
C105 C100 1.388 1_455 S
C105 C104 1.443 . S
C106 N86 1.433 1_455 S
C106 C107 1.363 1_455 S
C106 C111 1.370 . S
C107 H75 0.929 . S
C107 C106 1.363 1_655 S
C107 C108 1.385 . S
C108 H76 0.930 . S
C108 C107 1.385 . S
C108 C109 1.357 1_655 S
C109 C108 1.357 1_455 S
C109 C110 1.406 . S
C110 H77 0.929 . S
C110 C109 1.406 . S
C110 C111 1.391 . S
C111 H78 0.931 . S
C111 C106 1.370 . S
C111 C110 1.391 . S
C112 N86 1.435 1_455 S
C112 C113 1.358 . S
C112 C117 1.371 1_455 S
C113 H79 0.930 . S
C113 C112 1.358 . S
C113 C114 1.405 . S
C114 H80 0.932 . S
C114 C113 1.405 . S
C114 C115 1.383 . S
C115 C114 1.383 . S
C115 C116 1.393 1_455 S
C116 H81 0.931 . S
C116 C115 1.393 1_655 S
C116 C117 1.382 . S
C117 H82 0.929 . S
C117 C112 1.371 1_655 S
C117 C116 1.382 . S
C118 N86 1.423 . S
C118 C119 1.362 . S
C118 C123 1.388 1_655 S
C119 H83 0.929 . S
C119 C118 1.362 . S
C119 C120 1.376 . S
C120 H84 0.931 . S
C120 C119 1.376 . S
C120 C121 1.396 . S
C121 C103 1.472 . S
C121 C120 1.396 . S
C121 C122 1.348 1_655 S
C122 H85 0.929 . S
C122 C121 1.348 1_455 S
C122 C123 1.443 . S
C123 H87 0.932 . S
C123 C118 1.388 1_455 S
C123 C122 1.443 . S
Mg124 O125 2.026 1_455 S
Mg124 O131 1.986 . S
Mg124 O133 2.114 1_545 S
Mg124 O134 2.251 1_545 S
Mg124 O137 2.010 . S
O125 Mg124 2.026 1_655 S
O125 C128 1.254 . S
O126 Mg127 2.028 . S
O126 C128 1.248 . S
Mg127 O126 2.028 . S
Mg127 O132 2.032 . S
Mg127 O134 2.079 1_645 S
C128 O125 1.254 . S
C128 O126 1.248 . S
C129 O130 1.264 . S
C129 O137 1.249 . S
O130 C129 1.264 . S
O131 Mg124 1.986 . S
O131 C135 1.246 . S
O132 Mg127 2.032 . S
O132 C135 1.259 1_655 S
O133 Mg124 2.114 1_565 S
O133 C136 1.252 . S
O134 Mg124 2.251 1_565 S
O134 Mg127 2.079 1_465 S
O134 C136 1.273 . S
C135 O131 1.246 . S
C135 O132 1.259 1_455 S
C136 O133 1.252 . S
C136 O134 1.273 . S
O137 Mg124 2.010 . S
O137 C129 1.249 . S
Mg138 O139 2.028 1_655 S
Mg138 O145 1.986 . S
Mg138 O147 2.114 1_545 S
Mg138 O148 2.251 1_645 S
Mg138 O151 2.010 . S
O139 Mg138 2.028 1_455 S
O139 C142 1.250 . S
O140 Mg141 2.028 . S
O140 C142 1.248 . S
Mg141 O140 2.028 . S
Mg141 O146 2.032 . S
Mg141 O148 2.079 1_545 S
C142 O139 1.250 . S
C142 O140 1.248 . S
C143 O144 1.264 . S
C143 O151 1.249 . S
O144 C143 1.264 . S
O145 Mg138 1.986 . S
O145 C149 1.246 1_655 S
O146 Mg141 2.032 . S
O146 C149 1.259 . S
O147 Mg138 2.114 1_565 S
O147 C150 1.252 1_655 S
O148 Mg138 2.251 1_465 S
O148 Mg141 2.079 1_565 S
O148 C150 1.273 . S
C149 O145 1.246 1_455 S
C149 O146 1.259 . S
C150 O147 1.252 1_455 S
C150 O148 1.273 . S
O151 Mg138 2.010 . S
O151 C143 1.249 . S
C129 C47 1.401 . S
C149 C109 1.700 . S
C128 C29 1.664 . S
C150 C91 1.729 . S
C142 C53 1.981 . S
C135 C115 1.568 . S
C143 C35 2.038 . S
C97 C136 1.749 . S
