# Generated by pormake.
# Topology llj, (12,3)-cn, num edge types: 1
# Building blocks:
#     Node 0, Type 0, BuildingBlock: QEWDON_clean_sbu_0, # of connection points: 12
#     Node 1, Type 0, BuildingBlock: QEWDON_clean_sbu_0, # of connection points: 12
#     Node 2, Type 1, BuildingBlock: INOVEN_clean_linker_0, # of connection points: 3
#     Node 3, Type 1, BuildingBlock: INOVEN_clean_linker_0, # of connection points: 3
#     Node 4, Type 1, BuildingBlock: INOVEN_clean_linker_0, # of connection points: 3
#     Node 5, Type 1, BuildingBlock: INOVEN_clean_linker_0, # of connection points: 3
#     Node 6, Type 1, BuildingBlock: INOVEN_clean_linker_0, # of connection points: 3
#     Node 7, Type 1, BuildingBlock: INOVEN_clean_linker_0, # of connection points: 3
#     Node 8, Type 1, BuildingBlock: INOVEN_clean_linker_0, # of connection points: 3
#     Node 9, Type 1, BuildingBlock: INOVEN_clean_linker_0, # of connection points: 3
#     Edge 10, Type (0, 1), None
#     Edge 11, Type (0, 1), None
#     Edge 12, Type (0, 1), None
#     Edge 13, Type (0, 1), None
#     Edge 14, Type (0, 1), None
#     Edge 15, Type (0, 1), None
#     Edge 16, Type (0, 1), None
#     Edge 17, Type (0, 1), None
#     Edge 18, Type (0, 1), None
#     Edge 19, Type (0, 1), None
#     Edge 20, Type (0, 1), None
#     Edge 21, Type (0, 1), None
#     Edge 22, Type (0, 1), None
#     Edge 23, Type (0, 1), None
#     Edge 24, Type (0, 1), None
#     Edge 25, Type (0, 1), None
#     Edge 26, Type (0, 1), None
#     Edge 27, Type (0, 1), None
#     Edge 28, Type (0, 1), None
#     Edge 29, Type (0, 1), None
#     Edge 30, Type (0, 1), None
#     Edge 31, Type (0, 1), None
#     Edge 32, Type (0, 1), None
#     Edge 33, Type (0, 1), None
# Relax obj value: 0.010
# Max RMSD: 0.070
# Mean RMSD: 0.061
data_MOF--net-llj--node1-QEWDON_clean_sbu_0--node2-INOVEN_clean_linker_0--edge1-none
_symmetry_space_group_name_H-M    P1
_symmetry_Int_Tables_number       1
_symmetry_cell_setting            triclinic
loop_
_symmetry_equiv_pos_as_xyz
'x, y, z'
_cell_length_a     20.477883
_cell_length_b     20.513538
_cell_length_c     11.515497
_cell_angle_alpha  92.393167
_cell_angle_beta   92.433532
_cell_angle_gamma 90.060763
loop_
_atom_site_label
_atom_site_type_symbol
_atom_site_fract_x
_atom_site_fract_y
_atom_site_fract_z
_atom_type_partial_charge
Zn0 Zn 0.89085 0.12025 0.87705 0.0
Zn1 Zn 0.88832 0.13028 0.15063 0.0
O2 O 0.94894 0.11523 0.02174 0.0
H3 H 0.98564 0.08588 0.02245 0.0
C4 C 0.82591 0.00686 0.70251 0.0
O5 O 0.80265 0.0318 0.79917 0.0
Zn6 Zn 0.09749 0.85853 0.14497 0.0
Zn7 Zn 0.09519 0.86825 0.87094 0.0
O8 O 0.03768 0.87471 0.00832 0.0
H9 H 0.00071 0.90371 0.00878 0.0
Zn10 Zn 0.85881 0.90107 0.85716 0.0
O11 O 0.8859 0.9533 1.00351 0.0
Zn12 Zn 0.86898 0.89465 0.13343 0.0
H13 H 0.91802 0.98782 1.00551 0.0
Zn14 Zn 0.13078 0.08798 0.89693 0.0
O15 O 0.10022 0.03596 0.02907 0.0
H16 H 0.06843 0.00122 0.01899 0.0
Zn17 Zn 0.11573 0.09366 0.17186 0.0
C18 C 0.16199 0.98248 0.7298 0.0
O19 O 0.18427 0.95683 0.82628 0.0
O20 O 0.81724 0.18612 0.90085 0.0
O21 O 0.81707 0.19522 0.0948 0.0
O22 O 0.16858 0.80231 0.89747 0.0
O23 O 0.16917 0.79384 0.09035 0.0
O24 O 0.79318 0.82809 0.88731 0.0
O25 O 0.80092 0.82646 0.08116 0.0
C26 C 0.00197 0.15463 0.30215 0.0
O27 O 0.1964 0.16015 0.95333 0.0
O28 O 0.18334 0.1624 0.14496 0.0
O29 O 0.04662 0.8638 0.7098 0.0
C30 C 0.7954 0.21171 0.99382 0.0
O31 O 0.93949 0.1249 0.72436 0.0
C32 C 0.983 0.8338 0.27343 0.0
O33 O 0.85174 0.95052 0.70311 0.0
C34 C 0.1907 0.77712 0.99015 0.0
O35 O 0.13766 0.03949 0.73517 0.0
C36 C 0.8415 0.00991 0.27252 0.0
O37 O 0.94043 0.1639 0.29561 0.0
O38 O 0.02905 0.13218 0.21173 0.0
C39 C 0.77605 0.80555 0.98287 0.0
O40 O 0.04451 0.82433 0.27491 0.0
O41 O 0.95576 0.85579 0.18187 0.0
C42 C 0.14328 0.97823 0.29684 0.0
O43 O 0.83799 0.94802 0.26889 0.0
O44 O 0.85784 0.03856 0.18207 0.0
C45 C 0.21062 0.1831 0.05614 0.0
O46 O 0.14623 0.0401 0.30354 0.0
O47 O 0.12746 0.94981 0.19912 0.0
C48 C 0.98868 0.84153 0.70639 0.0
O49 O 0.96374 0.82376 0.80347 0.0
C50 C -0.00249 0.14695 0.73297 0.0
O51 O 0.0228 0.16419 0.83646 0.0
Zn52 Zn 0.403 0.63393 0.42782 0.0
Zn53 Zn 0.39554 0.61841 0.70096 0.0
O54 O 0.45436 0.60359 0.56828 0.0
H55 H 0.48798 0.57078 0.56363 0.0
C56 C 0.34301 0.50065 0.25059 0.0
O57 O 0.32623 0.52615 0.3515 0.0
Zn58 Zn 0.5945 0.37338 0.69232 0.0
Zn59 Zn 0.58732 0.35794 0.41502 0.0
O60 O 0.53644 0.38948 0.55232 0.0
H61 H 0.50215 0.42163 0.5482 0.0
Zn62 Zn 0.36906 0.39392 0.39857 0.0
O63 O 0.37394 0.45153 0.54438 0.0
Zn64 Zn 0.35823 0.39071 0.67058 0.0
H65 H 0.40339 0.48829 0.54987 0.0
Zn66 Zn 0.62609 0.59829 0.4346 0.0
O67 O 0.61509 0.54175 0.57092 0.0
H68 H 0.58585 0.50483 0.56441 0.0
Zn69 Zn 0.6303 0.60112 0.71079 0.0
C70 C 0.64943 0.49094 0.27374 0.0
O71 O 0.66441 0.4645 0.37332 0.0
O72 O 0.33016 0.69868 0.47112 0.0
O73 O 0.3269 0.68592 0.66236 0.0
O74 O 0.65898 0.29207 0.46057 0.0
O75 O 0.66293 0.30557 0.65413 0.0
O76 O 0.30277 0.32025 0.41127 0.0
O77 O 0.29306 0.31925 0.60366 0.0
C78 C 0.51065 0.64564 0.84479 0.0
O79 O 0.69315 0.67064 0.4741 0.0
O80 O 0.69477 0.67361 0.66841 0.0
O81 O 0.53846 0.35135 0.25248 0.0
C82 C 0.30659 0.71289 0.56989 0.0
O83 O 0.45231 0.64132 0.2746 0.0
C84 C 0.47865 0.34542 0.81264 0.0
O85 O 0.36465 0.44268 0.24546 0.0
C86 C 0.68263 0.27796 0.5608 0.0
O87 O 0.63046 0.54985 0.27436 0.0
C88 C 0.33399 0.50396 0.81844 0.0
O89 O 0.44865 0.64835 0.84255 0.0
O90 O 0.53881 0.63001 0.75109 0.0
C91 C 0.27677 0.29798 0.49979 0.0
O92 O 0.54062 0.34257 0.819 0.0
O93 O 0.45013 0.36113 0.71735 0.0
C94 C 0.65537 0.48687 0.8419 0.0
O95 O 0.32433 0.44254 0.81026 0.0
O96 O 0.35663 0.53125 0.73167 0.0
C97 C 0.715 0.69406 0.57241 0.0
O98 O 0.66475 0.54833 0.84556 0.0
O99 O 0.63323 0.46004 0.74677 0.0
C100 C 0.48138 0.32671 0.24274 0.0
O101 O 0.45546 0.30396 0.33535 0.0
C102 C 0.50981 0.66502 0.27727 0.0
O103 O 0.53643 0.68659 0.37739 0.0
H104 H 0.35619 0.29708 0.82345 0.0
H105 H 0.52375 0.36245 0.03478 0.0
H106 H 0.35984 0.27686 0.1934 0.0
N107 N 0.29236 0.24793 0.99085 0.0
N108 N 0.26324 0.22713 0.07454 0.0
C109 C 0.38009 0.30639 0.9083 0.0
C110 C 0.44276 0.33354 0.9176 0.0
C111 C 0.3502 0.28561 1.00703 0.0
C112 C 0.38247 0.29424 0.11718 0.0
C113 C 0.4453 0.32198 0.12817 0.0
C114 C 0.47481 0.342 0.02778 0.0
H115 H 0.69508 0.36768 0.24513 0.0
H116 H 0.62967 0.53329 0.05526 0.0
H117 H 0.70085 0.3625 0.87211 0.0
N118 N 0.73531 0.29815 0.06946 0.0
N119 N 0.75299 0.26575 0.98262 0.0
C120 C 0.68434 0.39065 0.16342 0.0
C121 C 0.65932 0.45418 0.1628 0.0
C122 C 0.69969 0.35726 0.06005 0.0
C123 C 0.68751 0.38709 0.95266 0.0
C124 C 0.6625 0.451 0.95074 0.0
C125 C 0.64829 0.48384 0.05621 0.0
H126 H 0.63165 0.7157 0.25181 0.0
H127 H 0.46665 0.62916 0.05845 0.0
H128 H 0.63274 0.69374 0.87906 0.0
N129 N 0.69787 0.74488 0.07041 0.0
N130 N 0.72286 0.76174 0.97945 0.0
C131 C 0.60831 0.69788 0.17038 0.0
C132 C 0.54552 0.66993 0.16858 0.0
C133 C 0.64001 0.70666 0.06664 0.0
C134 C 0.60964 0.68526 0.95994 0.0
C135 C 0.54702 0.65798 0.95661 0.0
C136 C 0.51553 0.64974 0.06118 0.0
H137 H 0.29491 0.62301 0.23369 0.0
H138 H 0.36176 0.4581 0.02852 0.0
H139 H 0.28608 0.62715 0.86046 0.0
N140 N 0.25208 0.69149 0.06235 0.0
N141 N 0.23359 0.72344 0.97754 0.0
C142 C 0.30534 0.60003 0.15004 0.0
C143 C 0.33161 0.53699 0.14361 0.0
C144 C 0.28851 0.63287 0.04936 0.0
C145 C 0.30042 0.60299 0.93932 0.0
C146 C 0.32662 0.53955 0.93161 0.0
C147 C 0.34227 0.50722 0.0342 0.0
H148 H 0.85852 0.78735 0.29898 0.0
H149 H 0.03028 0.86086 0.49001 0.0
H150 H 0.86587 0.79531 0.67324 0.0
N151 N 0.7949 0.7527 0.48402 0.0
N152 N 0.76908 0.73725 0.57553 0.0
C153 C 0.88369 0.80138 0.38088 0.0
C154 C 0.94757 0.82695 0.38177 0.0
C155 C 0.85418 0.78914 0.48613 0.0
C156 C 0.88801 0.80536 0.59211 0.0
C157 C 0.95153 0.83099 0.59429 0.0
C158 C 0.9808 0.84189 0.4889 0.0
H159 H 0.19182 0.85609 0.31646 0.0
H160 H 0.12586 0.02357 0.51585 0.0
H161 H 0.21231 0.86158 0.68962 0.0
N162 N 0.2415 0.79354 0.49279 0.0
N163 N 0.26223 0.76507 0.58031 0.0
C164 C 0.18246 0.8802 0.39963 0.0
C165 C 0.15506 0.94258 0.40394 0.0
C166 C 0.20348 0.85099 0.50207 0.0
C167 C 0.19476 0.88363 0.61042 0.0
C168 C 0.16676 0.94609 0.61634 0.0
C169 C 0.14651 0.9749 0.51252 0.0
H170 H 0.12027 0.19498 0.72425 0.0
H171 H 0.95559 0.12732 0.50779 0.0
H172 H 0.12599 0.20254 0.35232 0.0
N173 N 0.1899 0.23698 0.56043 0.0
N174 N 0.22271 0.25529 0.47924 0.0
C175 C 0.09753 0.18427 0.63884 0.0
C176 C 0.03429 0.15799 0.62795 0.0
C177 C 0.13096 0.20068 0.54102 0.0
C178 C 0.10139 0.18842 0.42882 0.0
C179 C 0.03768 0.16215 0.41661 0.0
C180 C 0.00487 0.14685 0.5167 0.0
H181 H 0.79325 0.13204 0.30301 0.0
H182 H 0.85973 0.96482 0.48731 0.0
H183 H 0.77596 0.12812 0.67315 0.0
N184 N 0.7459 0.19584 0.48165 0.0
N185 N 0.72627 0.22516 0.57033 0.0
C186 C 0.80304 0.10812 0.38405 0.0
C187 C 0.83007 0.04558 0.38316 0.0
C188 C 0.7832 0.13792 0.48794 0.0
C189 C 0.79257 0.10562 0.59297 0.0
C190 C 0.82024 0.04298 0.59365 0.0
C191 C 0.83933 0.0136 0.48827 0.0
loop_
_geom_bond_atom_site_label_1
_geom_bond_atom_site_label_2
_geom_bond_distance
_geom_bond_site_symmetry_2
_ccdc_geom_bond_type
Zn0 O2 1.933 1_556 S
Zn0 O20 1.985 . S
Zn0 O31 1.955 . S
Zn1 O2 1.911 . S
Zn1 O21 1.970 . S
Zn1 O37 1.945 . S
Zn1 O44 1.981 . S
O2 Zn0 1.933 1_554 S
O2 Zn1 1.911 . S
O2 H3 0.841 1_655 S
H3 O2 0.841 1_455 S
C4 O5 1.246 . S
C4 O33 1.276 1_545 S
O5 C4 1.246 . S
Zn6 O8 1.911 . S
Zn6 O23 1.970 . S
Zn6 O40 1.945 . S
Zn6 O47 1.981 . S
Zn7 O8 1.933 1_556 S
Zn7 O22 1.985 . S
Zn7 O29 1.955 . S
O8 Zn6 1.911 . S
O8 Zn7 1.933 1_554 S
O8 H9 0.841 1_455 S
H9 O8 0.841 1_655 S
Zn10 O11 1.933 1_556 S
Zn10 O24 1.985 . S
Zn10 O33 1.955 . S
O11 Zn10 1.933 1_554 S
O11 Zn12 1.911 . S
O11 H13 0.841 1_565 S
Zn12 O11 1.911 . S
Zn12 O25 1.970 . S
Zn12 O41 1.981 . S
Zn12 O43 1.945 . S
H13 O11 0.841 1_545 S
Zn14 O15 1.933 1_556 S
Zn14 O27 1.985 . S
Zn14 O35 1.955 . S
O15 Zn14 1.933 1_554 S
O15 H16 0.841 1_545 S
O15 Zn17 1.911 . S
H16 O15 0.841 1_565 S
Zn17 O15 1.911 . S
Zn17 O28 1.970 . S
Zn17 O38 1.981 . S
Zn17 O46 1.945 . S
C18 O19 1.246 . S
C18 O35 1.276 1_565 S
O19 C18 1.246 . S
O20 Zn0 1.985 . S
O20 C30 1.245 1_556 S
O21 Zn1 1.970 . S
O21 C30 1.263 . S
O22 Zn7 1.985 . S
O22 C34 1.245 1_556 S
O23 Zn6 1.970 . S
O23 C34 1.263 . S
O24 Zn10 1.985 . S
O24 C39 1.245 1_556 S
O25 Zn12 1.970 . S
O25 C39 1.263 . S
C26 O37 1.262 1_455 S
C26 O38 1.245 . S
O27 Zn14 1.985 . S
O27 C45 1.245 1_556 S
O28 Zn17 1.970 . S
O28 C45 1.263 . S
O29 Zn7 1.955 . S
O29 C48 1.276 1_455 S
C30 O20 1.245 1_554 S
C30 O21 1.263 . S
O31 Zn0 1.955 . S
O31 C50 1.276 1_655 S
C32 O40 1.262 1_655 S
C32 O41 1.245 . S
O33 C4 1.276 1_565 S
O33 Zn10 1.955 . S
C34 O22 1.245 1_554 S
C34 O23 1.263 . S
O35 Zn14 1.955 . S
O35 C18 1.276 1_545 S
C36 O43 1.262 1_545 S
C36 O44 1.245 . S
O37 Zn1 1.945 . S
O37 C26 1.262 1_655 S
O38 Zn17 1.981 . S
O38 C26 1.245 . S
C39 O24 1.245 1_554 S
C39 O25 1.263 . S
O40 Zn6 1.945 . S
O40 C32 1.262 1_455 S
O41 Zn12 1.981 . S
O41 C32 1.245 . S
C42 O46 1.262 1_565 S
C42 O47 1.245 . S
O43 Zn12 1.945 . S
O43 C36 1.262 1_565 S
O44 Zn1 1.981 . S
O44 C36 1.245 . S
C45 O27 1.245 1_554 S
C45 O28 1.263 . S
O46 Zn17 1.945 . S
O46 C42 1.262 1_545 S
O47 Zn6 1.981 . S
O47 C42 1.245 . S
C48 O29 1.276 1_655 S
C48 O49 1.246 . S
O49 C48 1.246 . S
C50 O31 1.276 1_455 S
C50 O51 1.246 . S
O51 C50 1.246 . S
Zn52 O54 1.933 . S
Zn52 O72 1.985 . S
Zn52 O83 1.955 . S
Zn53 O54 1.911 . S
Zn53 O73 1.970 . S
Zn53 O89 1.945 . S
Zn53 O96 1.981 . S
O54 Zn52 1.933 . S
O54 Zn53 1.911 . S
O54 H55 0.841 . S
H55 O54 0.841 . S
C56 O57 1.246 . S
C56 O85 1.276 . S
O57 C56 1.246 . S
Zn58 O60 1.911 . S
Zn58 O75 1.970 . S
Zn58 O92 1.945 . S
Zn58 O99 1.981 . S
Zn59 O60 1.933 . S
Zn59 O74 1.985 . S
Zn59 O81 1.955 . S
O60 Zn58 1.911 . S
O60 Zn59 1.933 . S
O60 H61 0.841 . S
H61 O60 0.841 . S
Zn62 O63 1.933 . S
Zn62 O76 1.985 . S
Zn62 O85 1.955 . S
O63 Zn62 1.933 . S
O63 Zn64 1.911 . S
O63 H65 0.841 . S
Zn64 O63 1.911 . S
Zn64 O77 1.970 . S
Zn64 O93 1.981 . S
Zn64 O95 1.945 . S
H65 O63 0.841 . S
Zn66 O67 1.933 . S
Zn66 O79 1.985 . S
Zn66 O87 1.955 . S
O67 Zn66 1.933 . S
O67 H68 0.841 . S
O67 Zn69 1.911 . S
H68 O67 0.841 . S
Zn69 O67 1.911 . S
Zn69 O80 1.970 . S
Zn69 O90 1.981 . S
Zn69 O98 1.945 . S
C70 O71 1.246 . S
C70 O87 1.276 . S
O71 C70 1.246 . S
O72 Zn52 1.985 . S
O72 C82 1.245 . S
O73 Zn53 1.970 . S
O73 C82 1.263 . S
O74 Zn59 1.985 . S
O74 C86 1.245 . S
O75 Zn58 1.970 . S
O75 C86 1.263 . S
O76 Zn62 1.985 . S
O76 C91 1.245 . S
O77 Zn64 1.970 . S
O77 C91 1.263 . S
C78 O89 1.262 . S
C78 O90 1.245 . S
O79 Zn66 1.985 . S
O79 C97 1.245 . S
O80 Zn69 1.970 . S
O80 C97 1.263 . S
O81 Zn59 1.955 . S
O81 C100 1.276 . S
C82 O72 1.245 . S
C82 O73 1.263 . S
O83 Zn52 1.955 . S
O83 C102 1.276 . S
C84 O92 1.262 . S
C84 O93 1.245 . S
O85 C56 1.276 . S
O85 Zn62 1.955 . S
C86 O74 1.245 . S
C86 O75 1.263 . S
O87 Zn66 1.955 . S
O87 C70 1.276 . S
C88 O95 1.262 . S
C88 O96 1.245 . S
O89 Zn53 1.945 . S
O89 C78 1.262 . S
O90 Zn69 1.981 . S
O90 C78 1.245 . S
C91 O76 1.245 . S
C91 O77 1.263 . S
O92 Zn58 1.945 . S
O92 C84 1.262 . S
O93 Zn64 1.981 . S
O93 C84 1.245 . S
C94 O98 1.262 . S
C94 O99 1.245 . S
O95 Zn64 1.945 . S
O95 C88 1.262 . S
O96 Zn53 1.981 . S
O96 C88 1.245 . S
C97 O79 1.245 . S
C97 O80 1.263 . S
O98 Zn69 1.945 . S
O98 C94 1.262 . S
O99 Zn58 1.981 . S
O99 C94 1.245 . S
C100 O81 1.276 . S
C100 O101 1.246 . S
O101 C100 1.246 . S
C102 O83 1.276 . S
C102 O103 1.246 . S
O103 C102 1.246 . S
H104 C109 0.929 . S
H105 C114 0.931 . S
H106 C112 0.930 . S
N107 N108 1.234 1_556 S
N107 C111 1.453 . S
N108 N107 1.234 1_554 S
C109 H104 0.929 . S
C109 C110 1.373 . S
C109 C111 1.368 . S
C110 C109 1.373 . S
C110 C114 1.397 1_556 S
C111 N107 1.453 . S
C111 C109 1.368 . S
C111 C112 1.373 1_556 S
C112 H106 0.930 . S
C112 C111 1.373 1_554 S
C112 C113 1.371 . S
C113 C112 1.371 . S
C113 C114 1.383 . S
C114 H105 0.931 . S
C114 C110 1.397 1_554 S
C114 C113 1.383 . S
H115 C120 0.929 . S
H116 C125 0.931 . S
H117 C123 0.930 . S
N118 N119 1.234 1_554 S
N118 C122 1.453 . S
N119 N118 1.234 1_556 S
C120 H115 0.929 . S
C120 C121 1.373 . S
C120 C122 1.368 . S
C121 C120 1.373 . S
C121 C125 1.397 . S
C122 N118 1.453 . S
C122 C120 1.368 . S
C122 C123 1.373 1_554 S
C123 H117 0.930 . S
C123 C122 1.373 1_556 S
C123 C124 1.371 . S
C124 C123 1.371 . S
C124 C125 1.383 1_556 S
C125 H116 0.931 . S
C125 C121 1.397 . S
C125 C124 1.383 1_554 S
H126 C131 0.929 . S
H127 C136 0.931 . S
H128 C134 0.930 . S
N129 N130 1.234 1_554 S
N129 C133 1.453 . S
N130 N129 1.234 1_556 S
C131 H126 0.929 . S
C131 C132 1.373 . S
C131 C133 1.368 . S
C132 C131 1.373 . S
C132 C136 1.397 . S
C133 N129 1.453 . S
C133 C131 1.368 . S
C133 C134 1.373 1_554 S
C134 H128 0.930 . S
C134 C133 1.373 1_556 S
C134 C135 1.371 . S
C135 C134 1.371 . S
C135 C136 1.383 1_556 S
C136 H127 0.931 . S
C136 C132 1.397 . S
C136 C135 1.383 1_554 S
H137 C142 0.929 . S
H138 C147 0.931 . S
H139 C145 0.930 . S
N140 N141 1.234 1_554 S
N140 C144 1.453 . S
N141 N140 1.234 1_556 S
C142 H137 0.929 . S
C142 C143 1.373 . S
C142 C144 1.368 . S
C143 C142 1.373 . S
C143 C147 1.397 . S
C144 N140 1.453 . S
C144 C142 1.368 . S
C144 C145 1.373 1_554 S
C145 H139 0.930 . S
C145 C144 1.373 1_556 S
C145 C146 1.371 . S
C146 C145 1.371 . S
C146 C147 1.383 1_556 S
C147 H138 0.931 . S
C147 C143 1.397 . S
C147 C146 1.383 1_554 S
H148 C153 0.929 . S
H149 C158 0.931 1_455 S
H150 C156 0.930 . S
N151 N152 1.234 . S
N151 C155 1.453 . S
N152 N151 1.234 . S
C153 H148 0.929 . S
C153 C154 1.373 . S
C153 C155 1.368 . S
C154 C153 1.373 . S
C154 C158 1.397 . S
C155 N151 1.453 . S
C155 C153 1.368 . S
C155 C156 1.373 . S
C156 H150 0.930 . S
C156 C155 1.373 . S
C156 C157 1.371 . S
C157 C156 1.371 . S
C157 C158 1.383 . S
C158 H149 0.931 1_655 S
C158 C154 1.397 . S
C158 C157 1.383 . S
H159 C164 0.929 . S
H160 C169 0.931 1_545 S
H161 C167 0.930 . S
N162 N163 1.234 . S
N162 C166 1.453 . S
N163 N162 1.234 . S
C164 H159 0.929 . S
C164 C165 1.373 . S
C164 C166 1.368 . S
C165 C164 1.373 . S
C165 C169 1.397 . S
C166 N162 1.453 . S
C166 C164 1.368 . S
C166 C167 1.373 . S
C167 H161 0.930 . S
C167 C166 1.373 . S
C167 C168 1.371 . S
C168 C167 1.371 . S
C168 C169 1.383 . S
C169 H160 0.931 1_565 S
C169 C165 1.397 . S
C169 C168 1.383 . S
H170 C175 0.929 . S
H171 C180 0.931 . S
H172 C178 0.930 . S
N173 N174 1.234 . S
N173 C177 1.453 . S
N174 N173 1.234 . S
C175 H170 0.929 . S
C175 C176 1.373 . S
C175 C177 1.368 . S
C176 C175 1.373 . S
C176 C180 1.397 . S
C177 N173 1.453 . S
C177 C175 1.368 . S
C177 C178 1.373 . S
C178 H172 0.930 . S
C178 C177 1.373 . S
C178 C179 1.371 . S
C179 C178 1.371 . S
C179 C180 1.383 . S
C180 H171 0.931 . S
C180 C176 1.397 . S
C180 C179 1.383 . S
H181 C186 0.929 . S
H182 C191 0.931 1_565 S
H183 C189 0.930 . S
N184 N185 1.234 . S
N184 C188 1.453 . S
N185 N184 1.234 . S
C186 H181 0.929 . S
C186 C187 1.373 . S
C186 C188 1.368 . S
C187 C186 1.373 . S
C187 C191 1.397 . S
C188 N184 1.453 . S
C188 C186 1.368 . S
C188 C189 1.373 . S
C189 H183 0.930 . S
C189 C188 1.373 . S
C189 C190 1.371 . S
C190 C189 1.371 . S
C190 C191 1.383 . S
C191 H182 0.931 1_545 S
C191 C187 1.397 . S
C191 C190 1.383 . S
C45 N108 1.603 . S
C30 N119 1.583 1_554 S
C39 N130 1.554 1_554 S
N141 C34 1.582 1_556 S
C97 N152 1.571 . S
N163 C82 1.596 . S
N174 C91 1.589 . S
N185 C86 1.597 . S
C179 C26 1.555 . S
C187 C36 1.446 . S
C154 C32 1.540 . S
C165 C42 1.464 . S
C18 C168 1.611 . S
C176 C50 1.530 . S
C4 C190 1.610 . S
C48 C157 1.506 . S
C135 C78 1.459 . S
C88 C146 1.551 . S
C110 C84 1.448 . S
C124 C94 1.565 . S
C121 C70 1.530 . S
C132 C102 1.616 . S
C56 C143 1.521 . S
C100 C113 1.597 . S
