# Generated by pormake.
# Topology tsx, (6,3)-cn, num edge types: 1
# Building blocks:
#     Node 0, Type 0, BuildingBlock: FUNLAD_clean_sbu_0, # of connection points: 6
#     Node 1, Type 0, BuildingBlock: FUNLAD_clean_sbu_0, # of connection points: 6
#     Node 2, Type 1, BuildingBlock: INOVEN_clean_linker_0, # of connection points: 3
#     Node 3, Type 1, BuildingBlock: INOVEN_clean_linker_0, # of connection points: 3
#     Node 4, Type 1, BuildingBlock: INOVEN_clean_linker_0, # of connection points: 3
#     Node 5, Type 1, BuildingBlock: INOVEN_clean_linker_0, # of connection points: 3
#     Edge 6, Type (0, 1), None
#     Edge 7, Type (0, 1), None
#     Edge 8, Type (0, 1), None
#     Edge 9, Type (0, 1), None
#     Edge 10, Type (0, 1), None
#     Edge 11, Type (0, 1), None
#     Edge 12, Type (0, 1), None
#     Edge 13, Type (0, 1), None
#     Edge 14, Type (0, 1), None
#     Edge 15, Type (0, 1), None
#     Edge 16, Type (0, 1), None
#     Edge 17, Type (0, 1), None
# Relax obj value: 0.114
# Max RMSD: 0.139
# Mean RMSD: 0.129
data_MOF--net-tsx--node1-FUNLAD_clean_sbu_0--node2-INOVEN_clean_linker_0--edge1-none
_symmetry_space_group_name_H-M    P1
_symmetry_Int_Tables_number       1
_symmetry_cell_setting            triclinic
loop_
_symmetry_equiv_pos_as_xyz
'x, y, z'
_cell_length_a     7.564744
_cell_length_b     9.0670824
_cell_length_c     22.486106
_cell_angle_alpha  89.96528
_cell_angle_beta   113.51692
_cell_angle_gamma 89.986256
loop_
_atom_site_label
_atom_site_type_symbol
_atom_site_fract_x
_atom_site_fract_y
_atom_site_fract_z
_atom_type_partial_charge
C0 C 0.83355 0.78503 0.97513 0.0
N1 N 0.12533 0.01819 0.1223 0.0
C2 C 0.96827 0.06594 0.13188 0.0
C3 C 0.97189 0.07397 0.19412 0.0
C4 C 0.1402 0.03508 0.24782 0.0
C5 C 0.3045 0.99469 0.23668 0.0
C6 C 0.29305 0.98519 0.17316 0.0
Zn7 Zn 0.09779 1.00753 0.02845 0.0
C8 C 0.31257 0.78508 -0.01194 0.0
N9 N 1.02056 0.01841 0.84086 0.0
C10 C 0.85295 0.98516 0.79003 0.0
C11 C 0.17753 0.06612 0.83123 0.0
C12 C 0.17394 0.07388 0.76898 0.0
C13 C 1.00574 0.03476 0.71532 0.0
C14 C 0.84152 0.9944 0.72651 0.0
Zn15 Zn 0.04818 1.00767 0.93472 0.0
O16 O 0.85178 0.89911 0.00859 0.0
C17 C 0.79119 0.22061 0.94171 0.0
O18 O 0.89427 0.78834 0.92914 0.0
H19 H 0.30854 0.09451 0.87219 0.0
H20 H 0.83719 0.09418 0.09088 0.0
H21 H 0.72863 0.95023 0.79877 0.0
O22 O 0.92292 0.2218 -7e-05 0.0
O23 O 0.79028 0.1141 0.90615 0.0
H24 H 0.41747 0.95028 0.16447 0.0
O25 O 0.22291 0.22193 0.96321 0.0
O26 O 0.35557 0.11396 0.057 0.0
O27 O 0.29431 0.8993 0.95462 0.0
O28 O 0.25189 0.78823 0.03406 0.0
C29 C 0.3546 0.22058 0.02144 0.0
H30 H 0.84019 0.10358 0.19937 0.0
H31 H 0.43959 0.96737 0.27624 0.0
H32 H 0.3056 0.10347 0.76371 0.0
H33 H 0.70651 0.9669 0.68699 0.0
C34 C 0.33355 0.28503 0.47513 0.0
N35 N 0.62533 0.51819 0.6223 0.0
C36 C 0.46827 0.56593 0.63188 0.0
C37 C 0.47188 0.57397 0.69412 0.0
C38 C 0.6402 0.53508 0.74782 0.0
C39 C 0.8045 0.49468 0.73667 0.0
C40 C 0.79305 0.48519 0.67316 0.0
Zn41 Zn 0.59778 0.50753 0.52845 0.0
C42 C 0.81256 0.28508 0.48806 0.0
N43 N 0.52056 0.51841 0.34086 0.0
C44 C 0.35295 0.48517 0.29003 0.0
C45 C 0.67752 0.56612 0.33123 0.0
C46 C 0.67394 0.57388 0.26898 0.0
C47 C 0.50574 0.53477 0.21532 0.0
C48 C 0.34152 0.4944 0.22651 0.0
Zn49 Zn 0.54817 0.50767 0.43472 0.0
O50 O 0.35178 0.39911 0.50859 0.0
C51 C 0.29118 0.72061 0.44171 0.0
O52 O 0.39426 0.28834 0.42914 0.0
H53 H 0.80853 0.59451 0.37219 0.0
H54 H 0.33718 0.59418 0.59088 0.0
H55 H 0.22862 0.45023 0.29877 0.0
O56 O 0.42291 0.7218 0.49993 0.0
O57 O 0.29027 0.6141 0.40615 0.0
H58 H 0.91746 0.45028 0.66447 0.0
O59 O 0.7229 0.72193 0.46321 0.0
O60 O 0.85556 0.61396 0.557 0.0
O61 O 0.79431 0.3993 0.45462 0.0
O62 O 0.75188 0.28822 0.53405 0.0
C63 C 0.85459 0.72058 0.52144 0.0
H64 H 0.34019 0.60358 0.69937 0.0
H65 H 0.93959 0.46737 0.77623 0.0
H66 H 0.8056 0.60347 0.26371 0.0
H67 H 0.20651 0.46691 0.18699 0.0
H68 H 0.95304 0.86301 0.43574 0.0
H69 H 0.3451 0.84188 0.34418 0.0
H70 H 0.93966 0.1999 0.30442 0.0
N71 N 0.8675 0.15853 0.40872 0.0
N72 N 0.87095 0.15488 0.46513 0.0
C73 C 1.02699 0.91794 0.41076 0.0
C74 C 0.19027 0.85478 0.40568 0.0
C75 C 0.95603 0.05385 0.38172 0.0
C76 C 1.00302 0.09941 0.33027 0.0
C77 C 0.13241 0.01655 0.31266 0.0
C78 C 0.23757 0.90296 0.35449 0.0
H79 H 0.19272 0.86279 0.52737 0.0
H80 H 0.8009 0.84163 0.61903 0.0
H81 H 0.20623 0.19942 0.65865 0.0
N82 N 0.27849 0.15818 0.55442 0.0
N83 N 0.27504 0.15476 0.49801 0.0
C84 C 0.11881 0.91771 0.55236 0.0
C85 C 0.95555 0.85461 0.55747 0.0
C86 C 0.18986 0.05349 0.5814 0.0
C87 C 0.14289 0.09898 0.63284 0.0
C88 C 1.01356 0.01616 0.65049 0.0
C89 C 0.90838 0.90268 0.60869 0.0
H90 H 0.45304 0.36301 0.93574 0.0
H91 H 0.8451 0.34188 0.84418 0.0
H92 H 0.43966 0.6999 0.80442 0.0
N93 N 0.36751 0.65853 0.90872 0.0
N94 N 0.37096 0.65488 0.96513 0.0
C95 C 0.52699 0.41794 0.91077 0.0
C96 C 0.69028 0.35478 0.90568 0.0
C97 C 0.45603 0.55385 0.88172 0.0
C98 C 0.50303 0.59941 0.83027 0.0
C99 C 0.63241 0.51655 0.81266 0.0
C100 C 0.73757 0.40296 0.85449 0.0
H101 H 0.69272 0.36279 0.02738 0.0
H102 H 0.3009 0.34163 0.11903 0.0
H103 H 0.70623 0.69942 0.15865 0.0
N104 N 0.7785 0.65818 0.05442 0.0
N105 N 0.77505 0.65476 -0.00199 0.0
C106 C 0.61882 0.41771 0.05236 0.0
C107 C 0.45556 0.35462 0.05747 0.0
C108 C 0.68987 0.55349 0.0814 0.0
C109 C 0.64289 0.59898 0.13284 0.0
C110 C 0.51356 0.51616 0.15049 0.0
C111 C 0.40839 0.40269 0.10869 0.0
loop_
_geom_bond_atom_site_label_1
_geom_bond_atom_site_label_2
_geom_bond_distance
_geom_bond_site_symmetry_2
_ccdc_geom_bond_type
C0 O16 1.251 1_556 S
C0 O18 1.254 . S
N1 C2 1.333 1_445 S
N1 C6 1.307 . S
N1 Zn7 2.020 . S
C2 N1 1.333 1_665 S
C2 C3 1.379 . S
C2 H20 0.952 . S
C3 C2 1.379 . S
C3 C4 1.390 1_665 S
C3 H30 0.949 . S
C4 C3 1.390 1_445 S
C4 C5 1.357 . S
C5 C4 1.357 . S
C5 C6 1.370 . S
C5 H31 0.950 . S
C6 N1 1.307 . S
C6 C5 1.370 . S
C6 H24 0.948 . S
Zn7 N1 2.020 . S
Zn7 O16 2.039 1_445 S
Zn7 O22 2.034 1_455 S
Zn7 O26 2.025 . S
Zn7 O28 2.024 1_545 S
C8 O27 1.246 1_554 S
C8 O28 1.249 . S
N9 C10 1.307 . S
N9 C11 1.333 1_665 S
N9 Zn15 2.020 1_665 S
C10 N9 1.307 . S
C10 C14 1.370 . S
C10 H21 0.948 . S
C11 N9 1.333 1_445 S
C11 C12 1.379 . S
C11 H19 0.952 . S
C12 C11 1.379 . S
C12 C13 1.390 1_455 S
C12 H32 0.949 . S
C13 C12 1.390 1_655 S
C13 C14 1.357 1_545 S
C14 C10 1.370 . S
C14 C13 1.357 1_565 S
C14 H33 0.950 . S
Zn15 N9 2.020 1_445 S
Zn15 O18 2.025 1_445 S
Zn15 O23 2.024 1_455 S
Zn15 O25 2.039 . S
Zn15 O27 2.034 1_545 S
O16 C0 1.251 1_554 S
O16 Zn7 2.039 1_665 S
C17 O22 1.246 1_556 S
C17 O23 1.249 . S
O18 C0 1.254 . S
O18 Zn15 2.025 1_665 S
H19 C11 0.952 . S
H20 C2 0.952 . S
H21 C10 0.948 . S
O22 Zn7 2.034 1_655 S
O22 C17 1.246 1_554 S
O23 Zn15 2.024 1_655 S
O23 C17 1.249 . S
H24 C6 0.948 . S
O25 Zn15 2.039 . S
O25 C29 1.251 1_556 S
O26 Zn7 2.025 . S
O26 C29 1.254 . S
O27 C8 1.246 1_556 S
O27 Zn15 2.034 1_565 S
O28 Zn7 2.024 1_565 S
O28 C8 1.249 . S
C29 O25 1.251 1_554 S
C29 O26 1.254 . S
H30 C3 0.949 . S
H31 C5 0.950 . S
H32 C12 0.949 . S
H33 C14 0.950 . S
C34 O50 1.251 . S
C34 O52 1.254 . S
N35 C36 1.333 . S
N35 C40 1.307 . S
N35 Zn41 2.020 . S
C36 N35 1.333 . S
C36 C37 1.379 . S
C36 H54 0.952 . S
C37 C36 1.379 . S
C37 C38 1.390 . S
C37 H64 0.949 . S
C38 C37 1.390 . S
C38 C39 1.357 . S
C39 C38 1.357 . S
C39 C40 1.370 . S
C39 H65 0.950 . S
C40 N35 1.307 . S
C40 C39 1.370 . S
C40 H58 0.948 . S
Zn41 N35 2.020 . S
Zn41 O50 2.039 . S
Zn41 O56 2.034 . S
Zn41 O60 2.025 . S
Zn41 O62 2.024 . S
C42 O61 1.246 . S
C42 O62 1.249 . S
N43 C44 1.307 . S
N43 C45 1.333 . S
N43 Zn49 2.020 . S
C44 N43 1.307 . S
C44 C48 1.370 . S
C44 H55 0.948 . S
C45 N43 1.333 . S
C45 C46 1.379 . S
C45 H53 0.952 . S
C46 C45 1.379 . S
C46 C47 1.390 . S
C46 H66 0.949 . S
C47 C46 1.390 . S
C47 C48 1.357 . S
C48 C44 1.370 . S
C48 C47 1.357 . S
C48 H67 0.950 . S
Zn49 N43 2.020 . S
Zn49 O52 2.025 . S
Zn49 O57 2.024 . S
Zn49 O59 2.039 . S
Zn49 O61 2.034 . S
O50 C34 1.251 . S
O50 Zn41 2.039 . S
C51 O56 1.246 . S
C51 O57 1.249 . S
O52 C34 1.254 . S
O52 Zn49 2.025 . S
H53 C45 0.952 . S
H54 C36 0.952 . S
H55 C44 0.948 . S
O56 Zn41 2.034 . S
O56 C51 1.246 . S
O57 Zn49 2.024 . S
O57 C51 1.249 . S
H58 C40 0.948 . S
O59 Zn49 2.039 . S
O59 C63 1.251 . S
O60 Zn41 2.025 . S
O60 C63 1.254 . S
O61 C42 1.246 . S
O61 Zn49 2.034 . S
O62 Zn41 2.024 . S
O62 C42 1.249 . S
C63 O59 1.251 . S
C63 O60 1.254 . S
H64 C37 0.949 . S
H65 C39 0.950 . S
H66 C46 0.949 . S
H67 C48 0.950 . S
H68 C73 0.929 . S
H69 C78 0.931 . S
H70 C76 0.930 1_655 S
N71 N72 1.234 . S
N71 C75 1.453 1_655 S
N72 N71 1.234 . S
C73 H68 0.929 . S
C73 C74 1.373 . S
C73 C75 1.368 1_565 S
C74 C73 1.373 . S
C74 C78 1.397 . S
C75 N71 1.453 1_455 S
C75 C73 1.368 1_545 S
C75 C76 1.373 . S
C76 H70 0.930 1_455 S
C76 C75 1.373 . S
C76 C77 1.371 1_545 S
C77 C76 1.371 1_565 S
C77 C78 1.383 . S
C78 H69 0.931 . S
C78 C74 1.397 . S
C78 C77 1.383 . S
H79 C84 0.929 . S
H80 C89 0.931 . S
H81 C87 0.930 . S
N82 N83 1.234 . S
N82 C86 1.453 . S
N83 N82 1.234 . S
C84 H79 0.929 . S
C84 C85 1.373 . S
C84 C86 1.368 1_665 S
C85 C84 1.373 . S
C85 C89 1.397 . S
C86 N82 1.453 . S
C86 C84 1.368 1_445 S
C86 C87 1.373 . S
C87 H81 0.930 . S
C87 C86 1.373 . S
C87 C88 1.371 1_445 S
C88 C87 1.371 1_665 S
C88 C89 1.383 . S
C89 H80 0.931 . S
C89 C85 1.397 . S
C89 C88 1.383 . S
H90 C95 0.929 . S
H91 C100 0.931 . S
H92 C98 0.930 . S
N93 N94 1.234 . S
N93 C97 1.453 1_554 S
N94 N93 1.234 . S
C95 H90 0.929 . S
C95 C96 1.373 1_554 S
C95 C97 1.368 1_554 S
C96 C95 1.373 1_556 S
C96 C100 1.397 . S
C97 N93 1.453 1_556 S
C97 C95 1.368 1_556 S
C97 C98 1.373 . S
C98 H92 0.930 . S
C98 C97 1.373 . S
C98 C99 1.371 . S
C99 C98 1.371 . S
C99 C100 1.383 . S
C100 H91 0.931 . S
C100 C96 1.397 . S
C100 C99 1.383 . S
H101 C106 0.929 . S
H102 C111 0.931 . S
H103 C109 0.930 . S
N104 N105 1.234 . S
N104 C108 1.453 1_556 S
N105 N104 1.234 . S
C106 H101 0.929 . S
C106 C107 1.373 1_556 S
C106 C108 1.368 1_556 S
C107 C106 1.373 1_554 S
C107 C111 1.397 . S
C108 N104 1.453 1_554 S
C108 C106 1.368 1_554 S
C108 C109 1.373 . S
C109 H103 0.930 . S
C109 C108 1.373 . S
C109 C110 1.371 . S
C110 C109 1.371 . S
C110 C111 1.383 . S
C111 H102 0.931 . S
C111 C107 1.397 . S
C111 C110 1.383 . S
C107 C29 1.520 . S
C8 N94 1.411 . S
C0 N105 1.432 . S
C17 C96 1.521 . S
C63 C85 1.520 . S
C42 N72 1.411 . S
N83 C34 1.432 . S
C74 C51 1.521 . S
C4 C77 1.568 1_545 S
C13 C88 1.535 1_545 S
C99 C38 1.568 . S
C47 C110 1.535 . S
