# Generated by pormake.
# Topology rtl, (3,6)-cn, num edge types: 1
# Building blocks:
#     Node 0, Type 0, BuildingBlock: BETDIP_clean_linker_0, # of connection points: 3
#     Node 1, Type 0, BuildingBlock: BETDIP_clean_linker_0, # of connection points: 3
#     Node 2, Type 0, BuildingBlock: BETDIP_clean_linker_0, # of connection points: 3
#     Node 3, Type 0, BuildingBlock: BETDIP_clean_linker_0, # of connection points: 3
#     Node 4, Type 1, BuildingBlock: VOLQOD_clean_sbu_1, # of connection points: 6
#     Node 5, Type 1, BuildingBlock: VOLQOD_clean_sbu_1, # of connection points: 6
#     Edge 6, Type (0, 1), BuildingBlock: AJUNOK_clean_linker_0, # of connection points: 2
#     Edge 7, Type (0, 1), BuildingBlock: AJUNOK_clean_linker_0, # of connection points: 2
#     Edge 8, Type (0, 1), BuildingBlock: AJUNOK_clean_linker_0, # of connection points: 2
#     Edge 9, Type (0, 1), BuildingBlock: AJUNOK_clean_linker_0, # of connection points: 2
#     Edge 10, Type (0, 1), BuildingBlock: AJUNOK_clean_linker_0, # of connection points: 2
#     Edge 11, Type (0, 1), BuildingBlock: AJUNOK_clean_linker_0, # of connection points: 2
#     Edge 12, Type (0, 1), BuildingBlock: AJUNOK_clean_linker_0, # of connection points: 2
#     Edge 13, Type (0, 1), BuildingBlock: AJUNOK_clean_linker_0, # of connection points: 2
#     Edge 14, Type (0, 1), BuildingBlock: AJUNOK_clean_linker_0, # of connection points: 2
#     Edge 15, Type (0, 1), BuildingBlock: AJUNOK_clean_linker_0, # of connection points: 2
#     Edge 16, Type (0, 1), BuildingBlock: AJUNOK_clean_linker_0, # of connection points: 2
#     Edge 17, Type (0, 1), BuildingBlock: AJUNOK_clean_linker_0, # of connection points: 2
# Relax obj value: 0.041
# Max RMSD: 0.143
# Mean RMSD: 0.092
data_MOF--net-rtl--node1-VOLQOD_clean_sbu_1--node2-BETDIP_clean_linker_0--edge1-AJUNOK_clean_linker_0
_symmetry_space_group_name_H-M    P1
_symmetry_Int_Tables_number       1
_symmetry_cell_setting            triclinic
loop_
_symmetry_equiv_pos_as_xyz
'x, y, z'
_cell_length_a     28.362755
_cell_length_b     28.672186
_cell_length_c     16.612993
_cell_angle_alpha  91.478297
_cell_angle_beta   91.633305
_cell_angle_gamma 89.923777
loop_
_atom_site_label
_atom_site_type_symbol
_atom_site_fract_x
_atom_site_fract_y
_atom_site_fract_z
_atom_type_partial_charge
H0 H 0.21386 0.7991 0.85126 0.0
H1 H 0.21602 0.80616 0.11126 0.0
H2 H 0.12872 0.89984 0.97651 0.0
H3 H 0.24406 0.73435 0.10038 0.0
C4 C 0.26399 0.7319 0.04569 0.0
C5 C 0.20146 0.81441 0.90713 0.0
C6 C 0.16952 0.85173 0.90536 0.0
C7 C 0.21801 0.79697 0.98082 0.0
C8 C 0.20271 0.81781 0.05355 0.0
C9 C 0.17101 0.85541 0.05188 0.0
C10 C 0.15428 0.87165 0.9778 0.0
N11 N 0.25123 0.7598 0.9791 0.0
H12 H 0.72082 0.70132 0.66235 0.0
H13 H 0.72329 0.69799 0.40269 0.0
H14 H 0.62528 0.61248 0.5235 0.0
H15 H 0.80242 0.71712 0.4328 0.0
C16 C 0.7962 0.74481 0.47715 0.0
C17 C 0.70786 0.6873 0.60471 0.0
C18 C 0.67096 0.65456 0.60153 0.0
C19 C 0.72768 0.70259 0.53341 0.0
C20 C 0.70987 0.68525 0.45838 0.0
C21 C 0.67256 0.65325 0.45505 0.0
C22 C 0.65379 0.63773 0.5265 0.0
N23 N 0.7633 0.73748 0.53853 0.0
H24 H 0.79761 0.20055 0.84775 0.0
H25 H 0.79516 0.19854 0.1072 0.0
H26 H 0.89079 0.10974 0.97851 0.0
H27 H 0.71752 0.22347 0.08028 0.0
C28 C 0.724 0.24905 0.03476 0.0
C29 C 0.81012 0.18641 0.90436 0.0
C30 C 0.8462 0.15303 0.905 0.0
C31 C 0.79086 0.20257 0.97679 0.0
C32 C 0.8082 0.18503 0.0506 0.0
C33 C 0.8446 0.15172 0.05134 0.0
C34 C 0.86286 0.13566 0.97831 0.0
N35 N 0.75658 0.2387 0.97348 0.0
H36 H 0.30618 0.30177 0.36599 0.0
H37 H 0.30364 0.30314 0.62606 0.0
H38 H 0.38889 0.40128 0.50601 0.0
H39 H 0.25594 0.24431 0.61156 0.0
C40 C 0.24587 0.23671 0.5492 0.0
C41 C 0.31802 0.31611 0.42411 0.0
C42 C 0.34895 0.35415 0.428 0.0
C43 C 0.3011 0.29719 0.49475 0.0
C44 C 0.3162 0.31646 0.57038 0.0
C45 C 0.34737 0.35452 0.57423 0.0
C46 C 0.36392 0.37259 0.50302 0.0
N47 N 0.26796 0.26009 0.48607 0.0
O48 O 0.90578 0.94764 0.4787 0.0
Zn49 Zn 0.93874 0.01056 0.47841 0.0
O50 O 0.00775 0.00251 0.47956 0.0
Zn51 Zn 0.03469 0.02937 0.57878 0.0
Zn52 Zn 0.02351 0.93595 0.47289 0.0
Zn53 Zn 0.03535 0.03463 0.39004 0.0
O54 O 0.08288 0.07813 0.55938 0.0
O55 O 0.08254 0.08431 0.42702 0.0
O56 O 0.91784 0.04853 0.57585 0.0
O57 O 0.98521 0.06015 0.64433 0.0
O58 O 0.06737 0.98113 0.64422 0.0
O59 O 0.06201 0.91594 0.5699 0.0
O60 O 0.0616 0.92048 0.3755 0.0
O61 O 0.91697 0.04562 0.37963 0.0
O62 O 0.07029 0.98911 0.31918 0.0
O63 O 0.9841 0.06469 0.32327 0.0
C64 C 0.92088 0.90578 0.47305 0.0
C65 C 0.0982 0.09688 0.4968 0.0
C66 C 0.0764 0.93801 0.63329 0.0
C67 C 0.9409 0.06596 0.63631 0.0
C68 C 0.07813 0.94538 0.3206 0.0
C69 C 0.9392 0.06594 0.32486 0.0
O70 O 0.96471 0.89687 0.46798 0.0
O71 O 0.61118 0.4493 0.01686 0.0
Zn72 Zn 0.5782 0.51223 0.01783 0.0
O73 O 0.50924 0.50418 0.01508 0.0
Zn74 Zn 0.48058 0.53557 0.92265 0.0
Zn75 Zn 0.49319 0.43755 0.01091 0.0
Zn76 Zn 0.48367 0.53212 0.11166 0.0
O77 O 0.43192 0.58417 0.95491 0.0
O78 O 0.43474 0.57983 0.08762 0.0
O79 O 0.59839 0.54823 0.92165 0.0
O80 O 0.53088 0.56665 0.85933 0.0
O81 O 0.44647 0.48862 0.85019 0.0
O82 O 0.4556 0.42059 0.90958 0.0
O83 O 0.45393 0.41937 0.10448 0.0
O84 O 0.60072 0.54928 0.11782 0.0
O85 O 0.45137 0.48528 0.17681 0.0
O86 O 0.53369 0.56324 0.17955 0.0
C87 C 0.59601 0.40743 0.01676 0.0
C88 C 0.41728 0.59704 0.02379 0.0
C89 C 0.43897 0.44486 0.85222 0.0
C90 C 0.5758 0.56843 0.86502 0.0
C91 C 0.4406 0.44254 0.1661 0.0
C92 C 0.57811 0.56783 0.17567 0.0
O93 O 0.55203 0.3984 0.01526 0.0
C94 C 0.18746 0.18007 0.59702 0.0
C95 C 0.20832 0.20153 0.53194 0.0
C96 C 0.15185 0.14671 0.58478 0.0
C97 C 0.13545 0.13325 0.5067 0.0
H98 H 0.1988 0.18911 0.65828 0.0
H99 H 0.13722 0.13131 0.63743 0.0
S100 S 0.17839 0.17931 0.31506 0.0
N101 N 0.20995 0.20726 0.38596 0.0
N102 N 0.14301 0.14447 0.36286 0.0
C103 C 0.15594 0.15462 0.44075 0.0
C104 C 0.19235 0.18874 0.45334 0.0
C105 C 0.32799 0.69112 0.96899 0.0
C106 C 0.30297 0.69759 0.04042 0.0
C107 C 0.36487 0.65858 0.96399 0.0
C108 C 0.37836 0.63156 0.03039 0.0
H109 H 0.31908 0.71117 0.91633 0.0
H110 H 0.38307 0.65482 0.90775 0.0
S111 S 0.323 0.63494 0.23083 0.0
N112 N 0.29361 0.67414 0.17837 0.0
N113 N 0.36273 0.61316 0.16968 0.0
C114 C 0.35341 0.6378 0.10219 0.0
C115 C 0.3158 0.67074 0.10697 0.0
C116 C 0.86909 0.78485 0.43644 0.0
C117 C 0.82653 0.78686 0.47757 0.0
C118 C 0.89916 0.82353 0.43518 0.0
C119 C 0.88732 0.86616 0.47346 0.0
H120 H 0.87958 0.75285 0.40575 0.0
H121 H 0.93188 0.82003 0.40344 0.0
S122 S 0.77875 0.8902 0.58705 0.0
N123 N 0.77339 0.83516 0.55643 0.0
N124 N 0.82949 0.90825 0.55275 0.0
C125 C 0.84433 0.86895 0.51357 0.0
C126 C 0.81404 0.8292 0.51607 0.0
C127 C 0.64823 0.28897 0.06409 0.0
C128 C 0.69276 0.29034 0.02942 0.0
C129 C 0.61712 0.32687 0.05898 0.0
C130 C 0.62986 0.36808 0.02075 0.0
H131 H 0.63703 0.25804 0.09443 0.0
H132 H 0.58298 0.32402 0.08609 0.0
S133 S 0.74342 0.39001 0.92297 0.0
N134 N 0.74859 0.33649 0.9566 0.0
N135 N 0.69055 0.40822 0.94873 0.0
C136 C 0.67473 0.37025 -0.01289 0.0
C137 C 0.70607 0.33124 -0.00907 0.0
C138 C 0.12974 0.85178 0.18248 0.0
C139 C 0.15388 0.878 0.12658 0.0
C140 C 0.10635 0.87378 0.24633 0.0
C141 C 0.10626 0.9228 0.25638 0.0
H142 H 0.12711 0.81423 0.17468 0.0
H143 H 0.0869 0.85221 0.28641 0.0
S144 S 0.17024 0.00629 0.13147 0.0
N145 N 0.18053 0.95468 0.08923 0.0
N146 N 0.13674 0.9963 0.20881 0.0
C147 C 0.13256 0.94909 0.20299 0.0
C148 C 0.15634 0.92662 0.13826 0.0
C149 C 0.59939 0.63922 0.68032 0.0
C150 C 0.64875 0.63786 0.67518 0.0
C151 C 0.57645 0.61777 0.74295 0.0
C152 C 0.60189 0.59383 0.80315 0.0
H153 H 0.57817 0.65609 0.63421 0.0
H154 H 0.53829 0.61922 0.74288 0.0
S155 S 0.73244 0.58221 0.81864 0.0
N156 N 0.72274 0.61242 0.7365 0.0
N157 N 0.67996 0.5721 0.8551 0.0
C158 C 0.65161 0.59375 0.80029 0.0
C159 C 0.67494 0.61581 0.73622 0.0
C160 C 0.91554 0.13699 0.13846 0.0
C161 C 0.86631 0.13476 0.1273 0.0
C162 C 0.93834 0.11569 0.20351 0.0
C163 C 0.91291 0.09104 0.26032 0.0
H164 H 0.93681 0.15447 0.09523 0.0
H165 H 0.97645 0.11788 0.20804 0.0
S166 S 0.78257 0.07729 0.26006 0.0
N167 N 0.79232 0.10797 0.17942 0.0
N168 N 0.83492 0.06782 0.3027 0.0
C169 C 0.86326 0.09012 0.25151 0.0
C170 C 0.84003 0.11205 0.18488 0.0
C171 C 0.38966 0.35056 0.70809 0.0
C172 C 0.36361 0.37644 0.65165 0.0
C173 C 0.41284 0.37279 0.77427 0.0
C174 C 0.41087 0.42166 0.78593 0.0
H175 H 0.39402 0.31327 0.69889 0.0
H176 H 0.43389 0.35165 0.81476 0.0
S177 S 0.34136 0.50385 0.66018 0.0
N178 N 0.3329 0.45235 0.61548 0.0
N179 N 0.37629 0.49435 0.73926 0.0
C180 C 0.38257 0.44743 0.732 0.0
C181 C 0.35896 0.42475 0.66507 0.0
C182 C 0.67535 0.60897 0.32331 0.0
C183 C 0.65049 0.6374 0.37763 0.0
C184 C 0.65218 0.58781 0.25598 0.0
C185 C 0.60345 0.59443 0.24127 0.0
H186 H 0.71233 0.60143 0.33491 0.0
H187 H 0.67215 0.56468 0.2172 0.0
S188 S 0.5247 0.6715 0.36078 0.0
N189 N 0.57636 0.67498 0.40882 0.0
N190 N 0.53265 0.63589 0.28268 0.0
C191 C 0.5791 0.62515 0.29312 0.0
C192 C 0.60268 0.64646 0.36124 0.0
C193 C 0.84359 0.11035 0.77164 0.0
C194 C 0.86882 0.13708 0.83027 0.0
C195 C 0.86683 0.08859 0.70722 0.0
C196 C 0.91603 0.09287 0.69973 0.0
H197 H 0.80613 0.10455 0.77763 0.0
H198 H 0.84638 0.06689 0.6649 0.0
S199 S 0.99634 0.1648 0.8329 0.0
N200 N 0.94413 0.17053 0.8734 0.0
N201 N 0.98803 0.13028 0.75271 0.0
C202 C 0.94096 0.12185 0.756 0.0
C203 C 0.91729 0.14379 0.82119 0.0
C204 C 0.3917 0.34923 0.29856 0.0
C205 C 0.36602 0.37567 0.35459 0.0
C206 C 0.41454 0.37088 0.2357 0.0
C207 C 0.41249 0.41961 0.22735 0.0
H208 H 0.39593 0.31198 0.30554 0.0
H209 H 0.43546 0.34952 0.19549 0.0
S210 S 0.34343 0.50297 0.35207 0.0
N211 N 0.33528 0.45186 0.393 0.0
N212 N 0.37808 0.49276 0.2754 0.0
C213 C 0.3845 0.4459 0.28052 0.0
C214 C 0.36127 0.42385 0.34401 0.0
C215 C 0.15363 0.91961 0.8189 0.0
C216 C 0.15156 0.87118 0.82892 0.0
C217 C 0.13036 0.94049 0.75405 0.0
C218 C 0.10414 0.91377 0.6964 0.0
H219 H 0.17222 0.94174 0.86311 0.0
H220 H 0.13221 0.97811 0.75019 0.0
S221 S 0.09017 0.78497 0.6932 0.0
N222 N 0.12325 0.79657 0.77467 0.0
N223 N 0.07965 0.83573 0.65138 0.0
C224 C 0.10369 0.86491 0.70355 0.0
C225 C 0.12742 0.84363 0.77014 0.0
loop_
_geom_bond_atom_site_label_1
_geom_bond_atom_site_label_2
_geom_bond_distance
_geom_bond_site_symmetry_2
_ccdc_geom_bond_type
H0 C5 0.930 . S
H1 C8 0.930 . S
H2 C10 0.930 . S
H3 C4 1.016 . S
C4 H3 1.016 . S
C4 N11 1.286 1_554 S
C5 H0 0.930 . S
C5 C6 1.397 . S
C5 C7 1.361 1_556 S
C6 C5 1.397 . S
C6 C10 1.390 1_556 S
C7 C5 1.361 1_554 S
C7 C8 1.393 . S
C7 N11 1.413 1_554 S
C8 H1 0.930 . S
C8 C7 1.393 . S
C8 C9 1.399 . S
C9 C8 1.399 . S
C9 C10 1.381 . S
C10 H2 0.930 . S
C10 C6 1.390 1_554 S
C10 C9 1.381 . S
N11 C4 1.286 1_556 S
N11 C7 1.413 1_556 S
H12 C17 0.930 . S
H13 C20 0.930 . S
H14 C22 0.930 . S
H15 C16 1.016 . S
C16 H15 1.016 . S
C16 N23 1.286 . S
C17 H12 0.930 . S
C17 C18 1.397 . S
C17 C19 1.361 . S
C18 C17 1.397 . S
C18 C22 1.390 . S
C19 C17 1.361 . S
C19 C20 1.393 . S
C19 N23 1.413 . S
C20 H13 0.930 . S
C20 C19 1.393 . S
C20 C21 1.399 . S
C21 C20 1.399 . S
C21 C22 1.381 . S
C22 H14 0.930 . S
C22 C18 1.390 . S
C22 C21 1.381 . S
N23 C16 1.286 . S
N23 C19 1.413 . S
H24 C29 0.930 . S
H25 C32 0.930 . S
H26 C34 0.930 . S
H27 C28 1.016 . S
C28 H27 1.016 . S
C28 N35 1.286 1_554 S
C29 H24 0.930 . S
C29 C30 1.397 . S
C29 C31 1.350 1_556 S
C30 C29 1.397 . S
C30 C34 1.390 1_556 S
C31 C29 1.350 1_554 S
C31 C32 1.405 . S
C31 N35 1.411 1_554 S
C32 H25 0.930 . S
C32 C31 1.405 . S
C32 C33 1.399 . S
C33 C32 1.399 . S
C33 C34 1.381 . S
C34 H26 0.930 . S
C34 C30 1.390 1_554 S
C34 C33 1.381 . S
N35 C28 1.286 1_556 S
N35 C31 1.411 1_556 S
H36 C41 0.930 . S
H37 C44 0.930 . S
H38 C46 0.930 . S
H39 C40 1.016 . S
C40 H39 1.016 . S
C40 N47 1.286 . S
C41 H36 0.930 . S
C41 C42 1.397 . S
C41 C43 1.361 . S
C42 C41 1.397 . S
C42 C46 1.390 . S
C43 C41 1.361 . S
C43 C44 1.393 . S
C43 N47 1.413 . S
C44 H37 0.930 . S
C44 C43 1.393 . S
C44 C45 1.399 . S
C45 C44 1.399 . S
C45 C46 1.381 . S
C46 H38 0.930 . S
C46 C42 1.390 . S
C46 C45 1.381 . S
N47 C40 1.286 . S
N47 C43 1.413 . S
O48 Zn49 1.953 1_565 S
O48 C64 1.225 . S
Zn49 O48 1.953 1_545 S
Zn49 O50 1.949 1_655 S
Zn49 O56 1.919 . S
Zn49 O61 1.924 . S
O50 Zn49 1.949 1_455 S
O50 Zn51 1.923 . S
O50 Zn52 1.950 1_545 S
O50 Zn53 1.945 . S
Zn51 O50 1.923 . S
Zn51 O54 1.933 . S
Zn51 O57 1.941 . S
Zn51 O58 1.965 1_545 S
Zn52 O50 1.950 1_565 S
Zn52 O59 1.938 . S
Zn52 O60 1.906 . S
Zn52 O70 1.953 1_455 S
Zn53 O50 1.945 . S
Zn53 O55 1.932 . S
Zn53 O62 1.977 1_545 S
Zn53 O63 1.910 1_455 S
O54 Zn51 1.933 . S
O54 C65 1.226 . S
O55 Zn53 1.932 . S
O55 C65 1.307 . S
O56 Zn49 1.919 . S
O56 C67 1.253 . S
O57 Zn51 1.941 . S
O57 C67 1.283 1_455 S
O58 Zn51 1.965 1_565 S
O58 C66 1.303 . S
O59 Zn52 1.938 . S
O59 C66 1.247 . S
O60 Zn52 1.906 . S
O60 C68 1.304 . S
O61 Zn49 1.924 . S
O61 C69 1.311 . S
O62 Zn53 1.977 1_565 S
O62 C68 1.272 . S
O63 Zn53 1.910 1_655 S
O63 C69 1.231 . S
C64 O48 1.225 . S
C64 O70 1.298 . S
C65 O54 1.226 . S
C65 O55 1.307 . S
C66 O58 1.303 . S
C66 O59 1.247 . S
C67 O56 1.253 . S
C67 O57 1.283 1_655 S
C68 O60 1.304 . S
C68 O62 1.272 . S
C69 O61 1.311 . S
C69 O63 1.231 . S
O70 Zn52 1.953 1_655 S
O70 C64 1.298 . S
O71 Zn72 1.953 . S
O71 C87 1.225 . S
Zn72 O71 1.953 . S
Zn72 O73 1.949 . S
Zn72 O79 1.919 1_554 S
Zn72 O84 1.924 . S
O73 Zn72 1.949 . S
O73 Zn74 1.923 1_554 S
O73 Zn75 1.950 . S
O73 Zn76 1.945 . S
Zn74 O73 1.923 1_556 S
Zn74 O77 1.933 . S
Zn74 O80 1.941 . S
Zn74 O81 1.965 . S
Zn75 O73 1.950 . S
Zn75 O82 1.938 1_554 S
Zn75 O83 1.906 . S
Zn75 O93 1.953 . S
Zn76 O73 1.945 . S
Zn76 O78 1.932 . S
Zn76 O85 1.977 . S
Zn76 O86 1.910 . S
O77 Zn74 1.933 . S
O77 C88 1.226 1_556 S
O78 Zn76 1.932 . S
O78 C88 1.307 . S
O79 Zn72 1.919 1_556 S
O79 C90 1.253 . S
O80 Zn74 1.941 . S
O80 C90 1.283 . S
O81 Zn74 1.965 . S
O81 C89 1.303 . S
O82 Zn75 1.938 1_556 S
O82 C89 1.247 . S
O83 Zn75 1.906 . S
O83 C91 1.304 . S
O84 Zn72 1.924 . S
O84 C92 1.311 . S
O85 Zn76 1.977 . S
O85 C91 1.272 . S
O86 Zn76 1.910 . S
O86 C92 1.231 . S
C87 O71 1.225 . S
C87 O93 1.298 . S
C88 O77 1.226 1_554 S
C88 O78 1.307 . S
C89 O81 1.303 . S
C89 O82 1.247 . S
C90 O79 1.253 . S
C90 O80 1.283 . S
C91 O83 1.304 . S
C91 O85 1.272 . S
C92 O84 1.311 . S
C92 O86 1.231 . S
O93 Zn75 1.953 . S
O93 C87 1.298 . S
C94 C95 1.369 . S
C94 C96 1.419 . S
C94 H98 0.930 . S
C95 C94 1.369 . S
C95 C104 1.429 . S
C96 C94 1.419 . S
C96 C97 1.363 . S
C96 H99 0.929 . S
C97 C96 1.363 . S
C97 C103 1.428 . S
H98 C94 0.930 . S
H99 C96 0.929 . S
S100 N101 1.613 . S
S100 N102 1.610 . S
N101 S100 1.613 . S
N101 C104 1.350 . S
N102 S100 1.610 . S
N102 C103 1.351 . S
C103 C97 1.428 . S
C103 N102 1.351 . S
C103 C104 1.434 . S
C104 C95 1.429 . S
C104 N101 1.350 . S
C104 C103 1.434 . S
C105 C106 1.369 1_556 S
C105 C107 1.419 . S
C105 H109 0.930 . S
C106 C105 1.369 1_554 S
C106 C115 1.429 . S
C107 C105 1.419 . S
C107 C108 1.363 1_556 S
C107 H110 0.929 . S
C108 C107 1.363 1_554 S
C108 C114 1.428 . S
H109 C105 0.930 . S
H110 C107 0.929 . S
S111 N112 1.613 . S
S111 N113 1.610 . S
N112 S111 1.613 . S
N112 C115 1.350 . S
N113 S111 1.610 . S
N113 C114 1.351 . S
C114 C108 1.428 . S
C114 N113 1.351 . S
C114 C115 1.434 . S
C115 C106 1.429 . S
C115 N112 1.350 . S
C115 C114 1.434 . S
C116 C117 1.369 . S
C116 C118 1.419 . S
C116 H120 0.930 . S
C117 C116 1.369 . S
C117 C126 1.429 . S
C118 C116 1.419 . S
C118 C119 1.363 . S
C118 H121 0.929 . S
C119 C118 1.363 . S
C119 C125 1.428 . S
H120 C116 0.930 . S
H121 C118 0.929 . S
S122 N123 1.613 . S
S122 N124 1.610 . S
N123 S122 1.613 . S
N123 C126 1.350 . S
N124 S122 1.610 . S
N124 C125 1.351 . S
C125 C119 1.428 . S
C125 N124 1.351 . S
C125 C126 1.434 . S
C126 C117 1.429 . S
C126 N123 1.350 . S
C126 C125 1.434 . S
C127 C128 1.369 . S
C127 C129 1.419 . S
C127 H131 0.930 . S
C128 C127 1.369 . S
C128 C137 1.429 1_554 S
C129 C127 1.419 . S
C129 C130 1.363 . S
C129 H132 0.929 . S
C130 C129 1.363 . S
C130 C136 1.428 1_554 S
H131 C127 0.930 . S
H132 C129 0.929 . S
S133 N134 1.613 . S
S133 N135 1.610 . S
N134 S133 1.613 . S
N134 C137 1.350 . S
N135 S133 1.610 . S
N135 C136 1.351 . S
C136 C130 1.428 1_556 S
C136 N135 1.351 . S
C136 C137 1.434 . S
C137 C128 1.429 1_556 S
C137 N134 1.350 . S
C137 C136 1.434 . S
C138 C139 1.369 . S
C138 C140 1.419 . S
C138 H142 0.930 . S
C139 C138 1.369 . S
C139 C148 1.429 . S
C140 C138 1.419 . S
C140 C141 1.363 . S
C140 H143 0.929 . S
C141 C140 1.363 . S
C141 C147 1.428 . S
H142 C138 0.930 . S
H143 C140 0.929 . S
S144 N145 1.613 . S
S144 N146 1.610 . S
N145 S144 1.613 . S
N145 C148 1.350 . S
N146 S144 1.610 . S
N146 C147 1.351 . S
C147 C141 1.428 . S
C147 N146 1.351 . S
C147 C148 1.434 . S
C148 C139 1.429 . S
C148 N145 1.350 . S
C148 C147 1.434 . S
C149 C150 1.369 . S
C149 C151 1.419 . S
C149 H153 0.930 . S
C150 C149 1.369 . S
C150 C159 1.429 . S
C151 C149 1.419 . S
C151 C152 1.363 . S
C151 H154 0.929 . S
C152 C151 1.363 . S
C152 C158 1.428 . S
H153 C149 0.930 . S
H154 C151 0.929 . S
S155 N156 1.613 . S
S155 N157 1.610 . S
N156 S155 1.613 . S
N156 C159 1.350 . S
N157 S155 1.610 . S
N157 C158 1.351 . S
C158 C152 1.428 . S
C158 N157 1.351 . S
C158 C159 1.434 . S
C159 C150 1.429 . S
C159 N156 1.350 . S
C159 C158 1.434 . S
C160 C161 1.369 . S
C160 C162 1.419 . S
C160 H164 0.930 . S
C161 C160 1.369 . S
C161 C170 1.429 . S
C162 C160 1.419 . S
C162 C163 1.363 . S
C162 H165 0.929 . S
C163 C162 1.363 . S
C163 C169 1.428 . S
H164 C160 0.930 . S
H165 C162 0.929 . S
S166 N167 1.613 . S
S166 N168 1.610 . S
N167 S166 1.613 . S
N167 C170 1.350 . S
N168 S166 1.610 . S
N168 C169 1.351 . S
C169 C163 1.428 . S
C169 N168 1.351 . S
C169 C170 1.434 . S
C170 C161 1.429 . S
C170 N167 1.350 . S
C170 C169 1.434 . S
C171 C172 1.369 . S
C171 C173 1.419 . S
C171 H175 0.930 . S
C172 C171 1.369 . S
C172 C181 1.429 . S
C173 C171 1.419 . S
C173 C174 1.363 . S
C173 H176 0.929 . S
C174 C173 1.363 . S
C174 C180 1.428 . S
H175 C171 0.930 . S
H176 C173 0.929 . S
S177 N178 1.613 . S
S177 N179 1.610 . S
N178 S177 1.613 . S
N178 C181 1.350 . S
N179 S177 1.610 . S
N179 C180 1.351 . S
C180 C174 1.428 . S
C180 N179 1.351 . S
C180 C181 1.434 . S
C181 C172 1.429 . S
C181 N178 1.350 . S
C181 C180 1.434 . S
C182 C183 1.369 . S
C182 C184 1.419 . S
C182 H186 0.930 . S
C183 C182 1.369 . S
C183 C192 1.429 . S
C184 C182 1.419 . S
C184 C185 1.363 . S
C184 H187 0.929 . S
C185 C184 1.363 . S
C185 C191 1.428 . S
H186 C182 0.930 . S
H187 C184 0.929 . S
S188 N189 1.613 . S
S188 N190 1.610 . S
N189 S188 1.613 . S
N189 C192 1.350 . S
N190 S188 1.610 . S
N190 C191 1.351 . S
C191 C185 1.428 . S
C191 N190 1.351 . S
C191 C192 1.434 . S
C192 C183 1.429 . S
C192 N189 1.350 . S
C192 C191 1.434 . S
C193 C194 1.369 . S
C193 C195 1.419 . S
C193 H197 0.930 . S
C194 C193 1.369 . S
C194 C203 1.429 . S
C195 C193 1.419 . S
C195 C196 1.363 . S
C195 H198 0.929 . S
C196 C195 1.363 . S
C196 C202 1.428 . S
H197 C193 0.930 . S
H198 C195 0.929 . S
S199 N200 1.613 . S
S199 N201 1.610 . S
N200 S199 1.613 . S
N200 C203 1.350 . S
N201 S199 1.610 . S
N201 C202 1.351 . S
C202 C196 1.428 . S
C202 N201 1.351 . S
C202 C203 1.434 . S
C203 C194 1.429 . S
C203 N200 1.350 . S
C203 C202 1.434 . S
C204 C205 1.369 . S
C204 C206 1.419 . S
C204 H208 0.930 . S
C205 C204 1.369 . S
C205 C214 1.429 . S
C206 C204 1.419 . S
C206 C207 1.363 . S
C206 H209 0.929 . S
C207 C206 1.363 . S
C207 C213 1.428 . S
H208 C204 0.930 . S
H209 C206 0.929 . S
S210 N211 1.613 . S
S210 N212 1.610 . S
N211 S210 1.613 . S
N211 C214 1.350 . S
N212 S210 1.610 . S
N212 C213 1.351 . S
C213 C207 1.428 . S
C213 N212 1.351 . S
C213 C214 1.434 . S
C214 C205 1.429 . S
C214 N211 1.350 . S
C214 C213 1.434 . S
C215 C216 1.369 . S
C215 C217 1.419 . S
C215 H219 0.930 . S
C216 C215 1.369 . S
C216 C225 1.429 . S
C217 C215 1.419 . S
C217 C218 1.363 . S
C217 H220 0.929 . S
C218 C217 1.363 . S
C218 C224 1.428 . S
H219 C215 0.930 . S
H220 C217 0.929 . S
S221 N222 1.613 . S
S221 N223 1.610 . S
N222 S221 1.613 . S
N222 C225 1.350 . S
N223 S221 1.610 . S
N223 C224 1.351 . S
C224 C218 1.428 . S
C224 N223 1.351 . S
C224 C225 1.434 . S
C225 C216 1.429 . S
C225 N222 1.350 . S
C225 C224 1.434 . S
C97 C65 1.492 . S
C95 C40 1.489 . S
C106 C4 1.488 . S
C108 C88 1.492 . S
C117 C16 1.508 . S
C119 C64 1.517 . S
C128 C28 1.512 . S
C130 C87 1.516 . S
C141 C68 1.484 . S
C139 C9 1.520 . S
C152 C90 1.490 . S
C150 C18 1.554 . S
C161 C33 1.540 . S
C163 C69 1.492 . S
C172 C45 1.540 . S
C174 C89 1.490 . S
C185 C92 1.425 . S
C183 C21 1.480 . S
C196 C67 1.440 . S
C194 C30 1.500 . S
C207 C91 1.425 . S
C205 C42 1.470 . S
C216 C6 1.484 . S
C218 C66 1.434 . S
