# Generated by pormake.
# Topology anh, (6,3)-cn, num edge types: 1
# Building blocks:
#     Node 0, Type 0, BuildingBlock: MIFKUJ_clean_sbu_0, # of connection points: 6
#     Node 1, Type 0, BuildingBlock: MIFKUJ_clean_sbu_0, # of connection points: 6
#     Node 2, Type 0, BuildingBlock: MIFKUJ_clean_sbu_0, # of connection points: 6
#     Node 3, Type 1, BuildingBlock: ESEHIV_clean_linker_0, # of connection points: 3
#     Node 4, Type 1, BuildingBlock: ESEHIV_clean_linker_0, # of connection points: 3
#     Node 5, Type 1, BuildingBlock: ESEHIV_clean_linker_0, # of connection points: 3
#     Node 6, Type 1, BuildingBlock: ESEHIV_clean_linker_0, # of connection points: 3
#     Node 7, Type 1, BuildingBlock: ESEHIV_clean_linker_0, # of connection points: 3
#     Node 8, Type 1, BuildingBlock: ESEHIV_clean_linker_0, # of connection points: 3
#     Edge 9, Type (0, 1), None
#     Edge 10, Type (0, 1), None
#     Edge 11, Type (0, 1), None
#     Edge 12, Type (0, 1), None
#     Edge 13, Type (0, 1), None
#     Edge 14, Type (0, 1), None
#     Edge 15, Type (0, 1), None
#     Edge 16, Type (0, 1), None
#     Edge 17, Type (0, 1), None
#     Edge 18, Type (0, 1), None
#     Edge 19, Type (0, 1), None
#     Edge 20, Type (0, 1), None
#     Edge 21, Type (0, 1), None
#     Edge 22, Type (0, 1), None
#     Edge 23, Type (0, 1), None
#     Edge 24, Type (0, 1), None
#     Edge 25, Type (0, 1), None
#     Edge 26, Type (0, 1), None
# Relax obj value: 0.137
# Max RMSD: 0.199
# Mean RMSD: 0.180
data_MOF--net-anh--node1-MIFKUJ_clean_sbu_0--node2-ESEHIV_clean_linker_0--edge1-none
_symmetry_space_group_name_H-M    P1
_symmetry_Int_Tables_number       1
_symmetry_cell_setting            triclinic
loop_
_symmetry_equiv_pos_as_xyz
'x, y, z'
_cell_length_a     13.477763
_cell_length_b     13.126218
_cell_length_c     19.579249
_cell_angle_alpha  93.063736
_cell_angle_beta   89.526059
_cell_angle_gamma 116.50086
loop_
_atom_site_label
_atom_site_type_symbol
_atom_site_fract_x
_atom_site_fract_y
_atom_site_fract_z
_atom_type_partial_charge
Zn0 Zn 0.13387 0.55236 0.1395 0.0
Zn1 Zn 0.81879 0.36423 0.14125 0.0
C2 C 0.35222 0.55776 0.13824 0.0
O3 O 0.35229 0.58233 0.20417 0.0
C4 C 0.68928 0.4895 0.14702 0.0
O5 O 0.65394 0.43678 0.20393 0.0
O6 O 0.19154 0.71749 0.16754 0.0
O7 O 0.01469 0.50552 0.06785 0.0
O8 O 0.89129 0.3273 0.06048 0.0
C9 C 0.2619 0.79549 0.13269 0.0
O10 O 0.28611 0.76881 0.07124 0.0
O11 O 0.26653 0.53646 0.10194 0.0
C12 C 0.58753 0.1783 0.12875 0.0
O13 O 0.57761 0.20611 0.06662 0.0
O14 O 0.67899 0.22911 0.16159 0.0
O15 O 0.90216 0.39469 0.23069 0.0
O16 O 0.08665 0.47659 0.2279 0.0
O17 O 0.76914 0.48146 0.11605 0.0
C18 C 0.977 0.40759 0.03728 0.0
C19 C -0.00373 0.42767 0.25978 0.0
Zn20 Zn 0.56715 0.17641 0.46898 0.0
Zn21 Zn 0.39455 0.84232 0.45889 0.0
C22 C 0.80367 0.29503 0.47913 0.0
O23 O 0.78347 0.33541 0.53764 0.0
C24 C 0.18019 0.62916 0.47625 0.0
O25 O 0.18049 0.65168 0.54245 0.0
O26 O 0.57475 0.32719 0.49997 0.0
O27 O 0.48181 0.12154 0.38032 0.0
O28 O 0.4037 0.93244 0.37732 0.0
C29 C 0.60425 0.42089 0.47151 0.0
O30 O 0.62779 0.42827 0.4062 0.0
O31 O 0.72428 0.2136 0.4464 0.0
C32 C 0.49527 0.73088 0.5157 0.0
O33 O 0.4089 0.71495 0.55302 0.0
O34 O 0.51432 0.79005 0.46351 0.0
O35 O 0.38631 0.90606 0.55304 0.0
O36 O 0.50958 0.08797 0.55296 0.0
O37 O 0.25665 0.69756 0.4395 0.0
C38 C 0.42835 0.02507 0.34869 0.0
C39 C 0.44698 0.00059 0.58449 0.0
Zn40 Zn 0.6644 0.47677 0.80796 0.0
Zn41 Zn 0.4525 0.59124 0.79619 0.0
C42 C 0.54922 0.23543 0.80381 0.0
O43 O 0.59553 0.25225 0.86483 0.0
C44 C 0.47441 0.82579 0.79832 0.0
O45 O 0.48543 0.82858 0.86508 0.0
O46 O 0.79823 0.46281 0.8358 0.0
O47 O 0.69854 0.58399 0.73303 0.0
O48 O 0.51939 0.52239 0.72725 0.0
C49 C 0.85613 0.42008 0.80608 0.0
O50 O 0.8387 0.38505 0.74124 0.0
O51 O 0.5594 0.32096 0.77165 0.0
C52 C 0.24875 0.52215 0.85389 0.0
O53 O 0.31372 0.6117 0.89258 0.0
O54 O 0.28851 0.49131 0.80228 0.0
O55 O 0.50916 0.60886 0.89353 0.0
O56 O 0.61682 0.52161 0.89689 0.0
O57 O 0.46523 0.73846 0.76226 0.0
C58 C 0.61464 0.58259 0.70352 0.0
C59 C 0.56532 0.57141 0.92682 0.0
H60 H 0.27517 0.85242 0.26847 0.0
H61 H 0.55266 0.18229 0.26252 0.0
H62 H 0.41644 0.98457 0.07486 0.0
C63 C 0.33252 0.92148 0.23901 0.0
C64 C 0.33262 0.90788 0.16703 0.0
C65 C 0.41177 0.0203 0.27377 0.0
C66 C 0.4891 0.10715 0.23588 0.0
C67 C 0.49205 0.09413 0.16442 0.0
C68 C 0.41209 -0.00426 0.12988 0.0
H69 H 0.56555 0.73102 0.64148 0.0
H70 H 0.65818 0.4615 0.6047 0.0
H71 H 0.55536 0.59229 0.43604 0.0
C72 C 0.58479 0.67688 0.60548 0.0
C73 C 0.56327 0.67576 0.53538 0.0
C74 C 0.62071 0.60125 0.63024 0.0
C75 C 0.63647 0.52453 0.58458 0.0
C76 C 0.61277 0.52026 0.51438 0.0
C77 C 0.57997 0.59919 0.48933 0.0
H78 H 0.83143 0.36022 0.93496 0.0
H79 H 0.17421 0.46302 0.97889 0.0
H80 H 0.06766 0.46387 0.77247 0.0
C81 C 0.91465 0.38322 0.91679 0.0
C82 C 0.93911 0.40713 0.84789 0.0
C83 C -0.00103 0.40267 0.96406 0.0
C84 C 0.10777 0.4417 0.94174 0.0
C85 C 0.13241 0.46017 0.87238 0.0
C86 C 0.04748 0.44068 0.82491 0.0
H87 H 0.83907 0.28542 0.34313 0.0
H88 H 0.16079 0.56998 0.3425 0.0
H89 H -0.00517 0.46549 0.53323 0.0
C90 C 0.91032 0.34983 0.37129 0.0
C91 C 0.90767 0.36262 0.44313 0.0
C92 C 0.00125 0.42512 0.33494 0.0
C93 C 0.09161 0.51067 0.37093 0.0
C94 C 0.08959 0.5273 0.4422 0.0
C95 C -0.00208 0.45196 0.47832 0.0
H96 H 0.49014 0.18392 0.66996 0.0
H97 H 0.42731 0.83352 0.66553 0.0
H98 H 0.52013 0.03601 0.85522 0.0
C99 C 0.48203 0.11065 0.69695 0.0
C100 C 0.50529 0.12183 0.76759 0.0
C101 C 0.45378 0.0069 0.65992 0.0
C102 C 0.4469 0.91302 0.69428 0.0
C103 C 0.472 0.92295 0.76457 0.0
C104 C 0.49935 0.02724 0.80117 0.0
H105 H 0.40828 0.59051 0.00617 0.0
H106 H 0.70363 0.54399 0.01489 0.0
H107 H 0.51531 0.52198 0.19706 0.0
C108 C 0.46871 0.57698 0.03551 0.0
C109 C 0.45234 0.55932 0.10565 0.0
C110 C 0.55933 0.57199 0.00242 0.0
C111 C 0.6356 0.55151 0.04076 0.0
C112 C 0.62039 0.53258 0.11095 0.0
C113 C 0.52932 0.53869 0.14333 0.0
loop_
_geom_bond_atom_site_label_1
_geom_bond_atom_site_label_2
_geom_bond_distance
_geom_bond_site_symmetry_2
_ccdc_geom_bond_type
Zn0 O6 1.969 . S
Zn0 O7 1.965 . S
Zn0 O11 2.024 . S
Zn0 O16 1.969 . S
Zn1 O8 1.969 . S
Zn1 O14 1.969 . S
Zn1 O15 1.965 . S
Zn1 O17 2.024 . S
C2 O3 1.229 . S
C2 O11 1.058 . S
O3 C2 1.229 . S
C4 O5 1.229 . S
C4 O17 1.058 . S
O5 C4 1.229 . S
O6 Zn0 1.969 . S
O6 C9 1.267 . S
O7 Zn0 1.965 . S
O7 C18 1.260 1_455 S
O8 Zn1 1.969 . S
O8 C18 1.258 . S
C9 O6 1.267 . S
C9 O10 1.228 . S
O10 C9 1.228 . S
O11 Zn0 2.024 . S
O11 C2 1.058 . S
C12 O13 1.228 . S
C12 O14 1.267 . S
O13 C12 1.228 . S
O14 Zn1 1.969 . S
O14 C12 1.267 . S
O15 Zn1 1.965 . S
O15 C19 1.260 1_655 S
O16 Zn0 1.969 . S
O16 C19 1.258 . S
O17 Zn1 2.024 . S
O17 C4 1.058 . S
C18 O7 1.260 1_655 S
C18 O8 1.258 . S
C19 O15 1.260 1_455 S
C19 O16 1.258 . S
Zn20 O26 1.969 . S
Zn20 O27 1.965 . S
Zn20 O31 2.024 . S
Zn20 O36 1.969 . S
Zn21 O28 1.969 . S
Zn21 O34 1.969 . S
Zn21 O35 1.965 . S
Zn21 O37 2.024 . S
C22 O23 1.229 . S
C22 O31 1.058 . S
O23 C22 1.229 . S
C24 O25 1.229 . S
C24 O37 1.058 . S
O25 C24 1.229 . S
O26 Zn20 1.969 . S
O26 C29 1.267 . S
O27 Zn20 1.965 . S
O27 C38 1.260 1_545 S
O28 Zn21 1.969 . S
O28 C38 1.258 . S
C29 O26 1.267 . S
C29 O30 1.228 . S
O30 C29 1.228 . S
O31 Zn20 2.024 . S
O31 C22 1.058 . S
C32 O33 1.228 . S
C32 O34 1.267 . S
O33 C32 1.228 . S
O34 Zn21 1.969 . S
O34 C32 1.267 . S
O35 Zn21 1.965 . S
O35 C39 1.260 1_565 S
O36 Zn20 1.969 . S
O36 C39 1.258 . S
O37 Zn21 2.024 . S
O37 C24 1.058 . S
C38 O27 1.260 1_565 S
C38 O28 1.258 . S
C39 O35 1.260 1_545 S
C39 O36 1.258 . S
Zn40 O46 1.969 . S
Zn40 O47 1.965 . S
Zn40 O51 2.024 . S
Zn40 O56 1.969 . S
Zn41 O48 1.969 . S
Zn41 O54 1.969 . S
Zn41 O55 1.965 . S
Zn41 O57 2.024 . S
C42 O43 1.229 . S
C42 O51 1.058 . S
O43 C42 1.229 . S
C44 O45 1.229 . S
C44 O57 1.058 . S
O45 C44 1.229 . S
O46 Zn40 1.969 . S
O46 C49 1.267 . S
O47 Zn40 1.965 . S
O47 C58 1.260 . S
O48 Zn41 1.969 . S
O48 C58 1.258 . S
C49 O46 1.267 . S
C49 O50 1.228 . S
O50 C49 1.228 . S
O51 Zn40 2.024 . S
O51 C42 1.058 . S
C52 O53 1.228 . S
C52 O54 1.267 . S
O53 C52 1.228 . S
O54 Zn41 1.969 . S
O54 C52 1.267 . S
O55 Zn41 1.965 . S
O55 C59 1.260 . S
O56 Zn40 1.969 . S
O56 C59 1.258 . S
O57 Zn41 2.024 . S
O57 C44 1.058 . S
C58 O47 1.260 . S
C58 O48 1.258 . S
C59 O55 1.260 . S
C59 O56 1.258 . S
H60 C63 0.931 . S
H61 C66 0.928 . S
H62 C68 0.930 . S
C63 H60 0.931 . S
C63 C64 1.413 . S
C63 C65 1.360 1_565 S
C64 C63 1.413 . S
C64 C68 1.429 1_565 S
C65 C63 1.360 1_545 S
C65 C66 1.372 . S
C66 H61 0.928 . S
C66 C65 1.372 . S
C66 C67 1.404 . S
C67 C66 1.404 . S
C67 C68 1.391 . S
C68 H62 0.930 . S
C68 C64 1.429 1_545 S
C68 C67 1.391 . S
H69 C72 0.931 . S
H70 C75 0.928 . S
H71 C77 0.930 . S
C72 H69 0.931 . S
C72 C73 1.413 . S
C72 C74 1.360 . S
C73 C72 1.413 . S
C73 C77 1.429 . S
C74 C72 1.360 . S
C74 C75 1.372 . S
C75 H70 0.928 . S
C75 C74 1.372 . S
C75 C76 1.404 . S
C76 C75 1.404 . S
C76 C77 1.391 . S
C77 H71 0.930 . S
C77 C73 1.429 . S
C77 C76 1.391 . S
H78 C81 0.931 . S
H79 C84 0.928 . S
H80 C86 0.930 . S
C81 H78 0.931 . S
C81 C82 1.413 . S
C81 C83 1.360 1_655 S
C82 C81 1.413 . S
C82 C86 1.429 1_655 S
C83 C81 1.360 1_455 S
C83 C84 1.372 . S
C84 H79 0.928 . S
C84 C83 1.372 . S
C84 C85 1.404 . S
C85 C84 1.404 . S
C85 C86 1.391 . S
C86 H80 0.930 . S
C86 C82 1.429 1_455 S
C86 C85 1.391 . S
H87 C90 0.931 . S
H88 C93 0.928 . S
H89 C95 0.930 . S
C90 H87 0.931 . S
C90 C91 1.413 . S
C90 C92 1.360 1_655 S
C91 C90 1.413 . S
C91 C95 1.429 1_655 S
C92 C90 1.360 1_455 S
C92 C93 1.372 . S
C93 H88 0.928 . S
C93 C92 1.372 . S
C93 C94 1.404 . S
C94 C93 1.404 . S
C94 C95 1.391 . S
C95 H89 0.930 . S
C95 C91 1.429 1_455 S
C95 C94 1.391 . S
H96 C99 0.931 . S
H97 C102 0.928 . S
H98 C104 0.930 . S
C99 H96 0.931 . S
C99 C100 1.413 . S
C99 C101 1.360 . S
C100 C99 1.413 . S
C100 C104 1.429 . S
C101 C99 1.360 . S
C101 C102 1.372 1_545 S
C102 H97 0.928 . S
C102 C101 1.372 1_565 S
C102 C103 1.404 . S
C103 C102 1.404 . S
C103 C104 1.391 1_565 S
C104 H98 0.930 . S
C104 C100 1.429 . S
C104 C103 1.391 1_545 S
H105 C108 0.931 . S
H106 C111 0.928 . S
H107 C113 0.930 . S
C108 H105 0.931 . S
C108 C109 1.413 . S
C108 C110 1.360 . S
C109 C108 1.413 . S
C109 C113 1.429 . S
C110 C108 1.360 . S
C110 C111 1.372 . S
C111 H106 0.928 . S
C111 C110 1.372 . S
C111 C112 1.404 . S
C112 C111 1.404 . S
C112 C113 1.391 . S
C113 H107 0.930 . S
C113 C109 1.429 . S
C113 C112 1.391 . S
C2 C109 1.650 . S
C22 C91 1.726 . S
C44 C103 1.555 . S
C4 C112 1.598 . S
C94 C24 1.574 . S
C100 C42 1.667 . S
C32 C73 1.277 . S
C49 C82 1.612 . S
C9 C64 1.578 . S
C76 C29 1.588 . S
C85 C52 1.195 . S
C12 C67 1.195 . S
C83 C18 1.372 1_456 S
C38 C65 1.350 1_565 S
C58 C74 1.325 . S
C101 C39 1.573 . S
C110 C59 1.491 1_554 S
C19 C92 1.489 . S
