# Generated by pormake.
# Topology dag, (6,3)-cn, num edge types: 1
# Building blocks:
#     Node 0, Type 0, BuildingBlock: OJICUG_clean_sbu_0, # of connection points: 6
#     Node 1, Type 0, BuildingBlock: OJICUG_clean_sbu_0, # of connection points: 6
#     Node 2, Type 0, BuildingBlock: OJICUG_clean_sbu_0, # of connection points: 6
#     Node 3, Type 0, BuildingBlock: OJICUG_clean_sbu_0, # of connection points: 6
#     Node 4, Type 1, BuildingBlock: PAMTOO_clean_linker_0, # of connection points: 3
#     Node 5, Type 1, BuildingBlock: PAMTOO_clean_linker_0, # of connection points: 3
#     Node 6, Type 1, BuildingBlock: PAMTOO_clean_linker_0, # of connection points: 3
#     Node 7, Type 1, BuildingBlock: PAMTOO_clean_linker_0, # of connection points: 3
#     Node 8, Type 1, BuildingBlock: PAMTOO_clean_linker_0, # of connection points: 3
#     Node 9, Type 1, BuildingBlock: PAMTOO_clean_linker_0, # of connection points: 3
#     Node 10, Type 1, BuildingBlock: PAMTOO_clean_linker_0, # of connection points: 3
#     Node 11, Type 1, BuildingBlock: PAMTOO_clean_linker_0, # of connection points: 3
#     Edge 12, Type (0, 1), None
#     Edge 13, Type (0, 1), None
#     Edge 14, Type (0, 1), None
#     Edge 15, Type (0, 1), None
#     Edge 16, Type (0, 1), None
#     Edge 17, Type (0, 1), None
#     Edge 18, Type (0, 1), None
#     Edge 19, Type (0, 1), None
#     Edge 20, Type (0, 1), None
#     Edge 21, Type (0, 1), None
#     Edge 22, Type (0, 1), None
#     Edge 23, Type (0, 1), None
#     Edge 24, Type (0, 1), None
#     Edge 25, Type (0, 1), None
#     Edge 26, Type (0, 1), None
#     Edge 27, Type (0, 1), None
#     Edge 28, Type (0, 1), None
#     Edge 29, Type (0, 1), None
#     Edge 30, Type (0, 1), None
#     Edge 31, Type (0, 1), None
#     Edge 32, Type (0, 1), None
#     Edge 33, Type (0, 1), None
#     Edge 34, Type (0, 1), None
#     Edge 35, Type (0, 1), None
# Relax obj value: 0.090
# Max RMSD: 0.137
# Mean RMSD: 0.113
data_MOF--net-dag--node1-OJICUG_clean_sbu_0--node2-PAMTOO_clean_linker_0--edge1-none
_symmetry_space_group_name_H-M    P1
_symmetry_Int_Tables_number       1
_symmetry_cell_setting            triclinic
loop_
_symmetry_equiv_pos_as_xyz
'x, y, z'
_cell_length_a     17.138737
_cell_length_b     17.634235
_cell_length_c     17.482569
_cell_angle_alpha  90.545027
_cell_angle_beta   94.633469
_cell_angle_gamma 88.719263
loop_
_atom_site_label
_atom_site_type_symbol
_atom_site_fract_x
_atom_site_fract_y
_atom_site_fract_z
_atom_type_partial_charge
Sc0 Sc 0.05187 0.92883 0.02066 0.0
Sc1 Sc 0.07772 0.75041 0.95812 0.0
Sc2 Sc 0.23509 0.85597 0.04701 0.0
O3 O 0.12349 0.84257 1.0093 0.0
C4 C 0.18306 0.00789 0.95241 0.0
C5 C 0.97834 0.86959 0.86966 0.0
C6 C 0.24705 0.76227 0.89301 0.0
C7 C 0.95773 0.80597 0.08258 0.0
C8 C 0.1591 0.95336 0.16698 0.0
C9 C 0.19588 0.6848 0.09065 0.0
O10 O 0.11392 0.9839 0.9368 0.0
O11 O 0.02645 0.81585 0.85828 0.0
O12 O 0.2725 0.81396 0.93949 0.0
O13 O -0.00206 0.86389 0.10227 0.0
O14 O 0.20361 0.89556 0.16039 0.0
O15 O 0.13057 0.68187 0.05022 0.0
O16 O 0.12488 0.98354 0.10799 0.0
O17 O 0.97106 0.7653 0.02308 0.0
O18 O 0.24188 0.74108 0.09163 0.0
O19 O 0.96575 0.88684 0.93753 0.0
O20 O 0.23162 0.97405 1.0016 0.0
O21 O 0.18069 0.7311 0.89546 0.0
Sc22 Sc 0.73582 0.63995 0.55739 0.0
Sc23 Sc 0.58056 0.74728 0.45937 0.0
Sc24 Sc 0.55445 0.57194 0.52739 0.0
O25 O 0.62532 0.65483 0.51338 0.0
C26 C 0.68923 0.48275 0.46914 0.0
C27 C 0.74869 0.71974 0.39526 0.0
C28 C 0.4817 0.62687 0.37141 0.0
C29 C 0.69197 0.81154 0.59971 0.0
C30 C 0.65267 0.55564 0.67804 0.0
C31 C 0.4556 0.70384 0.57819 0.0
O32 O 0.73574 0.51931 0.51717 0.0
O33 O 0.6838 0.75665 0.39626 0.0
O34 O 0.47048 0.60673 0.43841 0.0
O35 O 0.74047 0.75547 0.60093 0.0
O36 O 0.62706 0.52165 0.61806 0.0
O37 O 0.47198 0.74063 0.51878 0.0
O38 O 0.69905 0.61001 0.67212 0.0
O39 O 0.62992 0.81595 0.55409 0.0
O40 O 0.49694 0.6467 0.60295 0.0
O41 O 0.77415 0.67251 0.44712 0.0
O42 O 0.61983 0.50716 0.44999 0.0
O43 O 0.52815 0.68053 0.36117 0.0
Sc44 Sc 0.89745 0.24897 0.1089 0.0
Sc45 Sc 0.73872 0.14399 0.02154 0.0
Sc46 Sc 0.92043 0.06862 0.0481 0.0
O47 O 0.8504 0.15581 0.06102 0.0
C48 C 0.01565 0.19163 0.98615 0.0
C49 C 0.78266 0.31025 0.96956 0.0
C50 C 0.81636 0.04913 0.90098 0.0
C51 C 0.72851 0.23904 0.17615 0.0
C52 C -0.00072 0.13067 0.19908 0.0
C53 C 0.78966 0.99015 0.11636 0.0
O54 O 0.00336 0.23234 0.04549 0.0
O55 O 0.73354 0.25708 0.97264 0.0
O56 O 0.84447 0.0163 0.96103 0.0
O57 O 0.79496 0.26983 0.17235 0.0
O58 O 0.00786 0.10624 0.1322 0.0
O59 O 0.74089 0.02525 0.06797 0.0
O60 O 0.95227 0.18615 0.20893 0.0
O61 O 0.70169 0.18779 0.12948 0.0
O62 O 0.85894 0.01353 0.13186 0.0
O63 O 0.8463 0.31381 1.01257 0.0
O64 O 0.9749 0.13396 0.96682 0.0
O65 O 0.77168 0.10656 0.90741 0.0
Sc66 Sc 0.4311 0.42534 0.55071 0.0
Sc67 Sc 0.24783 0.36001 0.52113 0.0
Sc68 Sc 0.40214 0.25188 0.61965 0.0
O69 O 0.35859 0.34339 0.56301 0.0
C70 C 0.52883 0.29382 0.49954 0.0
C71 C 0.32912 0.44708 0.40032 0.0
C72 C 0.28682 0.18511 0.48479 0.0
C73 C 0.29555 0.51534 0.60849 0.0
C74 C 0.49831 0.37336 0.70662 0.0
C75 C 0.23449 0.28146 0.68298 0.0
O76 O 0.48798 0.35115 0.47477 0.0
O77 O 0.28242 0.39282 0.40706 0.0
O78 O 0.35036 0.18036 0.52843 0.0
O79 O 0.36487 0.49046 0.62783 0.0
O80 O 0.45104 0.3211 0.7179 0.0
O81 O 0.2097 0.32867 0.63115 0.0
O82 O 0.51391 0.38646 0.63918 0.0
O83 O 0.24908 0.47956 0.56024 0.0
O84 O 0.29894 0.24391 0.68243 0.0
O85 O 0.36233 0.47756 0.45921 0.0
O86 O 0.51174 0.25707 0.55909 0.0
O87 O 0.24146 0.24367 0.48069 0.0
H88 H 0.0212 0.9846 0.21356 0.0
H89 H 0.10037 0.1929 0.31845 0.0
H90 H 0.2644 0.01226 0.28202 0.0
H91 H 0.30902 0.07265 0.44105 0.0
C92 C 0.26145 0.11669 0.43882 0.0
O93 O 0.2412 0.13634 0.36328 0.0
H94 H 0.21013 0.09322 0.4651 0.0
C95 C 0.06682 0.01621 0.24584 0.0
C96 C 0.14452 0.99115 0.24066 0.0
C97 C 0.05189 0.09358 0.26016 0.0
C98 C 0.11015 0.1339 0.30353 0.0
C99 C 0.18502 0.09964 0.31959 0.0
C100 C 0.20381 0.03094 0.2826 0.0
H101 H 0.35495 0.60912 0.51812 0.0
H102 H 0.22433 0.60441 0.71655 0.0
H103 H 0.3778 0.78822 0.68481 0.0
H104 H 0.35531 0.7655 0.83875 0.0
C105 C 0.29961 0.73394 0.8345 0.0
O106 O 0.2622 0.74261 0.76231 0.0
H107 H 0.31265 0.67271 0.84562 0.0
C108 C 0.33386 0.63799 0.56753 0.0
C109 C 0.3737 0.70154 0.5966 0.0
C110 C 0.28689 0.59817 0.61412 0.0
C111 C 0.26091 0.63412 0.67951 0.0
C112 C 0.28801 0.70683 0.70035 0.0
C113 C 0.34798 0.73861 0.66141 0.0
H114 H 0.83676 0.88406 0.02504 0.0
H115 H 0.74093 0.91542 0.24282 0.0
H116 H 0.91555 0.74282 0.21459 0.0
H117 H 0.84267 0.68378 0.32774 0.0
C118 C 0.78987 0.72179 0.32277 0.0
O119 O 0.81208 0.79437 0.30602 0.0
H120 H 0.74865 0.69988 0.27554 0.0
C121 C 0.82723 0.86254 0.08139 0.0
C122 C 0.88017 0.80723 0.11298 0.0
C123 C 0.78338 0.9078 0.12963 0.0
C124 C 0.77394 0.8815 0.20416 0.0
C125 C 0.81702 0.81732 0.23267 0.0
C126 C 0.87364 0.78369 0.18845 0.0
H127 H 0.50901 0.52008 0.69789 0.0
H128 H 0.58113 0.33676 0.84834 0.0
H129 H 0.73506 0.52146 0.82152 0.0
H130 H 0.82018 0.40475 0.90576 0.0
C131 C 0.76955 0.36639 0.90575 0.0
O132 O 0.70262 0.40953 0.91378 0.0
H133 H 0.76547 0.33444 0.85032 0.0
C134 C 0.54989 0.49669 0.74273 0.0
C135 C 0.62559 0.52602 0.75068 0.0
C136 C 0.53824 0.42231 0.76661 0.0
C137 C 0.58937 0.39296 0.82629 0.0
C138 C 0.65579 0.43467 0.85287 0.0
C139 C 0.67712 0.49838 0.81102 0.0
H140 H 0.63204 0.38689 0.55953 0.0
H141 H 0.60319 0.21167 0.38882 0.0
H142 H 0.75652 0.39566 0.35707 0.0
H143 H 0.66339 0.32859 0.22582 0.0
C144 C 0.6777 0.26757 0.23671 0.0
O145 O 0.71652 0.25856 0.30847 0.0
H146 H 0.6222 0.23574 0.2337 0.0
C147 C 0.65178 0.3588 0.509 0.0
C148 C 0.69801 0.39963 0.46212 0.0
C149 C 0.61073 0.29573 0.47968 0.0
C150 C 0.63396 0.26059 0.4126 0.0
C151 C 0.69238 0.29332 0.37207 0.0
C152 C 0.72098 0.36519 0.3945 0.0
H153 H 0.13593 0.11332 0.04391 0.0
H154 H 0.05862 0.25616 0.85518 0.0
H155 H 0.23285 0.08315 0.82654 0.0
H156 H 0.23395 0.29556 0.8032 0.0
C157 C 0.19204 0.27876 0.75419 0.0
O158 O 0.16464 0.20703 0.76571 0.0
H159 H 0.14182 0.31998 0.75055 0.0
C160 C 0.1455 0.13493 0.98762 0.0
C161 C 0.18911 0.08992 0.93923 0.0
C162 C 0.09285 0.19018 0.95597 0.0
C163 C 0.09985 0.21451 0.88105 0.0
C164 C 0.15687 0.18128 0.83731 0.0
C165 C 0.19924 0.11656 0.86511 0.0
H166 H 0.46634 0.48017 0.35656 0.0
H167 H 0.37824 0.68824 0.25459 0.0
H168 H 0.22195 0.5074 0.28693 0.0
H169 H 0.17734 0.57137 0.12889 0.0
C170 C 0.22293 0.61544 0.13413 0.0
O171 O 0.23998 0.63308 0.21057 0.0
H172 H 0.27615 0.59278 0.10827 0.0
C173 C 0.41946 0.51139 0.32414 0.0
C174 C 0.34264 0.48554 0.32766 0.0
C175 C 0.4312 0.58873 0.31033 0.0
C176 C 0.37101 0.62921 0.26851 0.0
C177 C 0.29748 0.59562 0.2529 0.0
C178 C 0.28175 0.52608 0.28709 0.0
H179 H 0.96145 0.01581 0.87716 0.0
H180 H 0.89559 0.83028 0.72735 0.0
H181 H 0.73423 0.016 0.75669 0.0
H182 H 0.65393 0.91252 0.65805 0.0
C183 C 0.70261 0.86966 0.66279 0.0
O184 O 0.77281 0.90595 0.66003 0.0
H185 H 0.70121 0.83967 0.71846 0.0
C186 C 0.92084 0.99149 0.83327 0.0
C187 C 0.84373 0.01972 0.82745 0.0
C188 C 0.93522 0.9167 0.80958 0.0
C189 C 0.8848 0.88653 0.75012 0.0
C190 C 0.81693 0.92879 0.72356 0.0
C191 C 0.793 0.9924 0.7668 0.0
loop_
_geom_bond_atom_site_label_1
_geom_bond_atom_site_label_2
_geom_bond_distance
_geom_bond_site_symmetry_2
_ccdc_geom_bond_type
Sc0 O3 2.025 . S
Sc0 O10 2.105 1_564 S
Sc0 O13 2.105 1_455 S
Sc0 O16 2.105 . S
Sc0 O19 2.105 1_454 S
Sc1 O3 2.025 1_556 S
Sc1 O11 2.105 . S
Sc1 O15 2.105 1_556 S
Sc1 O17 2.105 1_456 S
Sc1 O21 2.105 . S
Sc2 O3 2.025 . S
Sc2 O12 2.105 1_554 S
Sc2 O14 2.105 . S
Sc2 O18 2.105 . S
Sc2 O20 2.105 1_554 S
O3 Sc0 2.025 . S
O3 Sc1 2.025 1_554 S
O3 Sc2 2.025 . S
C4 O10 1.268 . S
C4 O20 1.268 1_545 S
C5 O11 1.268 1_655 S
C5 O19 1.268 . S
C6 O12 1.268 . S
C6 O21 1.268 . S
C7 O13 1.268 . S
C7 O17 1.268 . S
C8 O14 1.268 . S
C8 O16 1.268 . S
C9 O15 1.268 . S
C9 O18 1.268 . S
O10 Sc0 2.105 1_546 S
O10 C4 1.268 . S
O11 Sc1 2.105 . S
O11 C5 1.268 1_455 S
O12 Sc2 2.105 1_556 S
O12 C6 1.268 . S
O13 Sc0 2.105 1_655 S
O13 C7 1.268 . S
O14 Sc2 2.105 . S
O14 C8 1.268 . S
O15 Sc1 2.105 1_554 S
O15 C9 1.268 . S
O16 Sc0 2.105 . S
O16 C8 1.268 . S
O17 Sc1 2.105 1_654 S
O17 C7 1.268 . S
O18 Sc2 2.105 . S
O18 C9 1.268 . S
O19 Sc0 2.105 1_656 S
O19 C5 1.268 . S
O20 Sc2 2.105 1_556 S
O20 C4 1.268 1_565 S
O21 Sc1 2.105 . S
O21 C6 1.268 . S
Sc22 O25 2.025 . S
Sc22 O32 2.105 . S
Sc22 O35 2.105 . S
Sc22 O38 2.105 . S
Sc22 O41 2.105 . S
Sc23 O25 2.025 . S
Sc23 O33 2.105 . S
Sc23 O37 2.105 . S
Sc23 O39 2.105 . S
Sc23 O43 2.105 . S
Sc24 O25 2.025 . S
Sc24 O34 2.105 . S
Sc24 O36 2.105 . S
Sc24 O40 2.105 . S
Sc24 O42 2.105 . S
O25 Sc22 2.025 . S
O25 Sc23 2.025 . S
O25 Sc24 2.025 . S
C26 O32 1.268 . S
C26 O42 1.268 . S
C27 O33 1.268 . S
C27 O41 1.268 . S
C28 O34 1.268 . S
C28 O43 1.268 . S
C29 O35 1.268 . S
C29 O39 1.268 . S
C30 O36 1.268 . S
C30 O38 1.268 . S
C31 O37 1.268 . S
C31 O40 1.268 . S
O32 Sc22 2.105 . S
O32 C26 1.268 . S
O33 Sc23 2.105 . S
O33 C27 1.268 . S
O34 Sc24 2.105 . S
O34 C28 1.268 . S
O35 Sc22 2.105 . S
O35 C29 1.268 . S
O36 Sc24 2.105 . S
O36 C30 1.268 . S
O37 Sc23 2.105 . S
O37 C31 1.268 . S
O38 Sc22 2.105 . S
O38 C30 1.268 . S
O39 Sc23 2.105 . S
O39 C29 1.268 . S
O40 Sc24 2.105 . S
O40 C31 1.268 . S
O41 Sc22 2.105 . S
O41 C27 1.268 . S
O42 Sc24 2.105 . S
O42 C26 1.268 . S
O43 Sc23 2.105 . S
O43 C28 1.268 . S
Sc44 O47 2.025 . S
Sc44 O54 2.105 1_554 S
Sc44 O57 2.105 . S
Sc44 O60 2.105 . S
Sc44 O63 2.105 1_554 S
Sc45 O47 2.025 . S
Sc45 O55 2.105 1_554 S
Sc45 O59 2.105 . S
Sc45 O61 2.105 . S
Sc45 O65 2.105 1_554 S
Sc46 O47 2.025 . S
Sc46 O56 2.105 1_554 S
Sc46 O58 2.105 1_655 S
Sc46 O62 2.105 1_545 S
Sc46 O64 2.105 1_654 S
O47 Sc44 2.025 . S
O47 Sc45 2.025 . S
O47 Sc46 2.025 . S
C48 O54 1.268 1_455 S
C48 O64 1.268 . S
C49 O55 1.268 . S
C49 O63 1.268 . S
C50 O56 1.268 . S
C50 O65 1.268 . S
C51 O57 1.268 . S
C51 O61 1.268 . S
C52 O58 1.268 . S
C52 O60 1.268 1_455 S
C53 O59 1.268 1_565 S
C53 O62 1.268 . S
O54 Sc44 2.105 1_556 S
O54 C48 1.268 1_655 S
O55 Sc45 2.105 1_556 S
O55 C49 1.268 . S
O56 Sc46 2.105 1_556 S
O56 C50 1.268 . S
O57 Sc44 2.105 . S
O57 C51 1.268 . S
O58 Sc46 2.105 1_455 S
O58 C52 1.268 . S
O59 Sc45 2.105 . S
O59 C53 1.268 1_545 S
O60 Sc44 2.105 . S
O60 C52 1.268 1_655 S
O61 Sc45 2.105 . S
O61 C51 1.268 . S
O62 Sc46 2.105 1_565 S
O62 C53 1.268 . S
O63 Sc44 2.105 1_556 S
O63 C49 1.268 . S
O64 Sc46 2.105 1_456 S
O64 C48 1.268 . S
O65 Sc45 2.105 1_556 S
O65 C50 1.268 . S
Sc66 O69 2.025 . S
Sc66 O76 2.105 . S
Sc66 O79 2.105 . S
Sc66 O82 2.105 . S
Sc66 O85 2.105 . S
Sc67 O69 2.025 . S
Sc67 O77 2.105 . S
Sc67 O81 2.105 . S
Sc67 O83 2.105 . S
Sc67 O87 2.105 . S
Sc68 O69 2.025 . S
Sc68 O78 2.105 . S
Sc68 O80 2.105 . S
Sc68 O84 2.105 . S
Sc68 O86 2.105 . S
O69 Sc66 2.025 . S
O69 Sc67 2.025 . S
O69 Sc68 2.025 . S
C70 O76 1.268 . S
C70 O86 1.268 . S
C71 O77 1.268 . S
C71 O85 1.268 . S
C72 O78 1.268 . S
C72 O87 1.268 . S
C73 O79 1.268 . S
C73 O83 1.268 . S
C74 O80 1.268 . S
C74 O82 1.268 . S
C75 O81 1.268 . S
C75 O84 1.268 . S
O76 Sc66 2.105 . S
O76 C70 1.268 . S
O77 Sc67 2.105 . S
O77 C71 1.268 . S
O78 Sc68 2.105 . S
O78 C72 1.268 . S
O79 Sc66 2.105 . S
O79 C73 1.268 . S
O80 Sc68 2.105 . S
O80 C74 1.268 . S
O81 Sc67 2.105 . S
O81 C75 1.268 . S
O82 Sc66 2.105 . S
O82 C74 1.268 . S
O83 Sc67 2.105 . S
O83 C73 1.268 . S
O84 Sc68 2.105 . S
O84 C75 1.268 . S
O85 Sc66 2.105 . S
O85 C71 1.268 . S
O86 Sc68 2.105 . S
O86 C70 1.268 . S
O87 Sc67 2.105 . S
O87 C72 1.268 . S
H88 C95 0.929 . S
H89 C98 0.930 . S
H90 C100 0.929 . S
H91 C92 0.969 . S
C92 H91 0.969 . S
C92 O93 1.550 . S
C92 H94 0.973 . S
O93 C92 1.550 . S
O93 C99 1.412 . S
H94 C92 0.973 . S
C95 H88 0.929 . S
C95 C96 1.400 1_545 S
C95 C97 1.364 . S
C96 C95 1.400 1_565 S
C96 C100 1.377 1_565 S
C97 C95 1.364 . S
C97 C98 1.374 . S
C98 H89 0.930 . S
C98 C97 1.374 . S
C98 C99 1.383 . S
C99 O93 1.412 . S
C99 C98 1.383 . S
C99 C100 1.394 . S
C100 H90 0.929 . S
C100 C96 1.377 1_545 S
C100 C99 1.394 . S
H101 C108 0.929 . S
H102 C111 0.930 . S
H103 C113 0.929 . S
H104 C105 0.969 . S
C105 H104 0.969 . S
C105 O106 1.550 . S
C105 H107 0.973 . S
O106 C105 1.550 . S
O106 C112 1.412 . S
H107 C105 0.973 . S
C108 H101 0.929 . S
C108 C109 1.400 . S
C108 C110 1.364 . S
C109 C108 1.400 . S
C109 C113 1.377 . S
C110 C108 1.364 . S
C110 C111 1.374 . S
C111 H102 0.930 . S
C111 C110 1.374 . S
C111 C112 1.383 . S
C112 O106 1.412 . S
C112 C111 1.383 . S
C112 C113 1.394 . S
C113 H103 0.929 . S
C113 C109 1.377 . S
C113 C112 1.394 . S
H114 C121 0.929 . S
H115 C124 0.930 . S
H116 C126 0.929 . S
H117 C118 0.969 . S
C118 H117 0.969 . S
C118 O119 1.550 . S
C118 H120 0.973 . S
O119 C118 1.550 . S
O119 C125 1.412 . S
H120 C118 0.973 . S
C121 H114 0.929 . S
C121 C122 1.400 . S
C121 C123 1.364 . S
C122 C121 1.400 . S
C122 C126 1.377 . S
C123 C121 1.364 . S
C123 C124 1.374 . S
C124 H115 0.930 . S
C124 C123 1.374 . S
C124 C125 1.383 . S
C125 O119 1.412 . S
C125 C124 1.383 . S
C125 C126 1.394 . S
C126 H116 0.929 . S
C126 C122 1.377 . S
C126 C125 1.394 . S
H127 C134 0.929 . S
H128 C137 0.930 . S
H129 C139 0.929 . S
H130 C131 0.969 . S
C131 H130 0.969 . S
C131 O132 1.550 . S
C131 H133 0.973 . S
O132 C131 1.550 . S
O132 C138 1.412 . S
H133 C131 0.973 . S
C134 H127 0.929 . S
C134 C135 1.400 . S
C134 C136 1.364 . S
C135 C134 1.400 . S
C135 C139 1.377 . S
C136 C134 1.364 . S
C136 C137 1.374 . S
C137 H128 0.930 . S
C137 C136 1.374 . S
C137 C138 1.383 . S
C138 O132 1.412 . S
C138 C137 1.383 . S
C138 C139 1.394 . S
C139 H129 0.929 . S
C139 C135 1.377 . S
C139 C138 1.394 . S
H140 C147 0.929 . S
H141 C150 0.930 . S
H142 C152 0.929 . S
H143 C144 0.969 . S
C144 H143 0.969 . S
C144 O145 1.550 . S
C144 H146 0.973 . S
O145 C144 1.550 . S
O145 C151 1.412 . S
H146 C144 0.973 . S
C147 H140 0.929 . S
C147 C148 1.400 . S
C147 C149 1.364 . S
C148 C147 1.400 . S
C148 C152 1.377 . S
C149 C147 1.364 . S
C149 C150 1.374 . S
C150 H141 0.930 . S
C150 C149 1.374 . S
C150 C151 1.383 . S
C151 O145 1.412 . S
C151 C150 1.383 . S
C151 C152 1.394 . S
C152 H142 0.929 . S
C152 C148 1.377 . S
C152 C151 1.394 . S
H153 C160 0.929 . S
H154 C163 0.930 . S
H155 C165 0.929 . S
H156 C157 0.969 . S
C157 H156 0.969 . S
C157 O158 1.550 . S
C157 H159 0.973 . S
O158 C157 1.550 . S
O158 C164 1.412 . S
H159 C157 0.973 . S
C160 H153 0.929 . S
C160 C161 1.400 . S
C160 C162 1.364 . S
C161 C160 1.400 . S
C161 C165 1.377 . S
C162 C160 1.364 . S
C162 C163 1.374 . S
C163 H154 0.930 . S
C163 C162 1.374 . S
C163 C164 1.383 . S
C164 O158 1.412 . S
C164 C163 1.383 . S
C164 C165 1.394 . S
C165 H155 0.929 . S
C165 C161 1.377 . S
C165 C164 1.394 . S
H166 C173 0.929 . S
H167 C176 0.930 . S
H168 C178 0.929 . S
H169 C170 0.969 . S
C170 H169 0.969 . S
C170 O171 1.550 . S
C170 H172 0.973 . S
O171 C170 1.550 . S
O171 C177 1.412 . S
H172 C170 0.973 . S
C173 H166 0.929 . S
C173 C174 1.400 . S
C173 C175 1.364 . S
C174 C173 1.400 . S
C174 C178 1.377 . S
C175 C173 1.364 . S
C175 C176 1.374 . S
C176 H167 0.930 . S
C176 C175 1.374 . S
C176 C177 1.383 . S
C177 O171 1.412 . S
C177 C176 1.383 . S
C177 C178 1.394 . S
C178 H168 0.929 . S
C178 C174 1.377 . S
C178 C177 1.394 . S
H179 C186 0.929 . S
H180 C189 0.930 . S
H181 C191 0.934 . S
H182 C183 0.969 . S
C183 H182 0.969 . S
C183 O184 1.550 . S
C183 H185 0.973 . S
O184 C183 1.550 . S
O184 C190 1.412 . S
H185 C183 0.973 . S
C186 H179 0.929 . S
C186 C187 1.400 1_565 S
C186 C188 1.364 . S
C187 C186 1.400 1_545 S
C187 C191 1.377 1_545 S
C188 C186 1.364 . S
C188 C189 1.374 . S
C189 H180 0.930 . S
C189 C188 1.374 . S
C189 C190 1.383 . S
C190 O184 1.412 . S
C190 C189 1.383 . S
C190 C191 1.394 . S
C191 H181 0.934 . S
C191 C187 1.377 1_565 S
C191 C190 1.394 . S
C8 C96 1.449 . S
C31 C109 1.118 . S
C53 C123 1.444 . S
C136 C74 1.488 . S
C148 C26 1.206 . S
C48 C162 1.423 . S
C71 C174 1.401 . S
C5 C188 1.508 . S
C50 C187 1.375 . S
C149 C70 1.421 . S
C161 C4 1.213 . S
C28 C175 1.520 . S
C110 C73 1.441 . S
C7 C122 1.123 . S
C135 C30 1.423 . S
C97 C52 1.500 . S
C170 C9 1.307 . S
C183 C29 1.229 . S
C51 C144 1.594 . S
C157 C75 1.802 . S
C118 C27 1.625 . S
C49 C131 1.273 . S
C92 C72 1.360 . S
C105 C6 1.374 . S
