# Generated by pormake.
# Topology apo, (3,6)-cn, num edge types: 1
# Building blocks:
#     Node 0, Type 0, BuildingBlock: BETDIP_clean_linker_0, # of connection points: 3
#     Node 1, Type 0, BuildingBlock: BETDIP_clean_linker_0, # of connection points: 3
#     Node 2, Type 0, BuildingBlock: BETDIP_clean_linker_0, # of connection points: 3
#     Node 3, Type 0, BuildingBlock: BETDIP_clean_linker_0, # of connection points: 3
#     Node 4, Type 0, BuildingBlock: BETDIP_clean_linker_0, # of connection points: 3
#     Node 5, Type 0, BuildingBlock: BETDIP_clean_linker_0, # of connection points: 3
#     Node 6, Type 0, BuildingBlock: BETDIP_clean_linker_0, # of connection points: 3
#     Node 7, Type 0, BuildingBlock: BETDIP_clean_linker_0, # of connection points: 3
#     Node 8, Type 1, BuildingBlock: MIDCAF_clean_sbu_0, # of connection points: 6
#     Node 9, Type 1, BuildingBlock: MIDCAF_clean_sbu_0, # of connection points: 6
#     Node 10, Type 1, BuildingBlock: MIDCAF_clean_sbu_0, # of connection points: 6
#     Node 11, Type 1, BuildingBlock: MIDCAF_clean_sbu_0, # of connection points: 6
#     Edge 12, Type (0, 1), None
#     Edge 13, Type (0, 1), None
#     Edge 14, Type (0, 1), None
#     Edge 15, Type (0, 1), None
#     Edge 16, Type (0, 1), None
#     Edge 17, Type (0, 1), None
#     Edge 18, Type (0, 1), None
#     Edge 19, Type (0, 1), None
#     Edge 20, Type (0, 1), None
#     Edge 21, Type (0, 1), None
#     Edge 22, Type (0, 1), None
#     Edge 23, Type (0, 1), None
#     Edge 24, Type (0, 1), None
#     Edge 25, Type (0, 1), None
#     Edge 26, Type (0, 1), None
#     Edge 27, Type (0, 1), None
#     Edge 28, Type (0, 1), None
#     Edge 29, Type (0, 1), None
#     Edge 30, Type (0, 1), None
#     Edge 31, Type (0, 1), None
#     Edge 32, Type (0, 1), None
#     Edge 33, Type (0, 1), None
#     Edge 34, Type (0, 1), None
#     Edge 35, Type (0, 1), None
# Relax obj value: 0.010
# Max RMSD: 0.060
# Mean RMSD: 0.042
data_MOF--net-apo--node1-MIDCAF_clean_sbu_0--node2-BETDIP_clean_linker_0--edge1-none
_symmetry_space_group_name_H-M    P1
_symmetry_Int_Tables_number       1
_symmetry_cell_setting            triclinic
loop_
_symmetry_equiv_pos_as_xyz
'x, y, z'
_cell_length_a     15.585017
_cell_length_b     20.144651
_cell_length_c     14.239541
_cell_angle_alpha  89.999828
_cell_angle_beta   89.999847
_cell_angle_gamma 87.371744
loop_
_atom_site_label
_atom_site_type_symbol
_atom_site_fract_x
_atom_site_fract_y
_atom_site_fract_z
_atom_type_partial_charge
H0 H 0.40661 0.22606 0.51615 0.0
H1 H 0.37809 0.32252 0.24852 0.0
H2 H 0.56728 0.38589 0.44448 0.0
H3 H 0.29097 0.22556 0.21576 0.0
C4 C 0.27199 0.21167 0.28617 0.0
C5 C 0.42976 0.26095 0.4651 0.0
C6 C 0.49353 0.30404 0.49082 0.0
C7 C 0.39079 0.2652 0.37609 0.0
C8 C 0.41455 0.31431 0.31258 0.0
C9 C 0.47808 0.35856 0.33808 0.0
C10 C 0.52092 0.35 0.42415 0.0
N11 N 0.3179 0.22686 0.36307 0.0
H12 H 0.17183 0.16737 1.01617 0.0
H13 H 0.20027 0.07094 0.7485 0.0
H14 H 1.01108 0.00759 0.94447 0.0
H15 H 0.28743 0.16789 0.71576 0.0
C16 C 0.30641 0.18177 0.78617 0.0
C17 C 0.14866 0.13249 0.96511 0.0
C18 C 0.08487 0.08941 0.99083 0.0
C19 C 0.18762 0.12825 0.87609 0.0
C20 C 0.16382 0.07915 0.81257 0.0
C21 C 0.10027 0.03491 0.83807 0.0
C22 C 0.05745 0.04347 0.92414 0.0
N23 N 0.26051 0.16658 0.86307 0.0
H24 H 0.92553 0.18552 0.6034 0.0
H25 H 0.81684 0.0521 0.80417 0.0
H26 H 0.9519 -0.02494 0.56244 0.0
H27 H 0.73052 0.14349 0.8392 0.0
C28 C 0.7576 0.18696 0.80787 0.0
C29 C 0.91149 0.13558 0.62506 0.0
C30 C 0.94244 0.08129 0.57224 0.0
C31 C 0.86326 0.1256 0.70704 0.0
C32 C 0.84926 0.06081 0.7384 0.0
C33 C 0.88092 0.00698 0.68499 0.0
C34 C 0.92479 0.01745 0.60134 0.0
N35 N 0.82663 0.18278 0.75119 0.0
H36 H 0.65289 0.20799 0.10332 0.0
H37 H 0.76154 0.34139 0.30415 0.0
H38 H 0.62636 0.41846 0.06251 0.0
H39 H 0.84787 0.25 0.33917 0.0
C40 C 0.8208 0.20653 0.30782 0.0
C41 C 0.6669 0.25793 0.12501 0.0
C42 C 0.6359 0.31222 0.07224 0.0
C43 C 0.71514 0.2679 0.20699 0.0
C44 C 0.72911 0.33269 0.23839 0.0
C45 C 0.6974 0.38653 0.18502 0.0
C46 C 0.65351 0.37606 0.10138 0.0
N47 N 0.75179 0.21072 0.2511 0.0
H48 H 0.67172 0.66742 0.55425 0.0
H49 H 0.70024 0.57096 0.82188 0.0
H50 H 0.51106 0.50759 0.62592 0.0
H51 H 0.78737 0.66792 0.85464 0.0
C52 C 0.80634 0.68181 0.78423 0.0
C53 C 0.64858 0.63253 0.6053 0.0
C54 C 0.5848 0.58944 0.57958 0.0
C55 C 0.68755 0.62828 0.69431 0.0
C56 C 0.66378 0.57917 0.75782 0.0
C57 C 0.60025 0.53492 0.73232 0.0
C58 C 0.55741 0.54348 0.64625 0.0
N59 N 0.76043 0.66663 0.70734 0.0
H60 H 0.90651 0.72612 0.05423 0.0
H61 H 0.87807 0.82254 0.3219 0.0
H62 H 0.06725 0.88589 0.12593 0.0
H63 H 0.79091 0.7256 0.35464 0.0
C64 C 0.77192 0.71171 0.28423 0.0
C65 C 0.92968 0.76099 0.10529 0.0
C66 C 0.99346 0.80407 0.07957 0.0
C67 C 0.89072 0.76524 0.19431 0.0
C68 C 0.91451 0.81433 0.25783 0.0
C69 C 0.97806 0.85857 0.23233 0.0
C70 C 1.02088 0.85002 0.14626 0.0
N71 N 0.81782 0.7269 0.20733 0.0
H72 H 0.1528 0.70796 0.467 0.0
H73 H 0.26149 0.84138 0.26623 0.0
H74 H 0.12643 0.91842 0.50796 0.0
H75 H 0.34782 0.74999 0.2312 0.0
C76 C 0.32073 0.70652 0.26253 0.0
C77 C 0.16684 0.7579 0.44534 0.0
C78 C 0.13589 0.81219 0.49816 0.0
C79 C 0.21508 0.76788 0.36336 0.0
C80 C 0.22908 0.83267 0.332 0.0
C81 C 0.19742 0.8865 0.38541 0.0
C82 C 0.15355 0.87603 0.46906 0.0
N83 N 0.2517 0.7107 0.31921 0.0
H84 H 0.42544 0.68549 0.96708 0.0
H85 H 0.3168 0.55209 0.76625 0.0
H86 H 0.45197 0.47503 1.00789 0.0
H87 H 0.23046 0.64348 0.73124 0.0
C88 C 0.25753 0.68695 0.76259 0.0
C89 C 0.41144 0.63555 0.94539 0.0
C90 C 0.44244 0.58126 0.99816 0.0
C91 C 0.3632 0.62558 0.86341 0.0
C92 C 0.34923 0.56079 0.83201 0.0
C93 C 0.38093 0.50696 0.88538 0.0
C94 C 0.42482 0.51742 0.96902 0.0
N95 N 0.32655 0.68276 0.8193 0.0
Zn96 Zn 0.16021 0.06895 0.41186 0.0
Zn97 Zn 0.9333 0.03973 0.23246 0.0
Zn98 Zn 0.06047 0.07356 0.29273 0.0
C99 C 0.0543 0.08452 0.08945 0.0
C100 C 0.97697 0.9255 0.27374 0.0
O101 O 0.99055 0.11072 0.41776 0.0
O102 O 0.07872 0.05543 0.51356 0.0
C103 C 0.20443 0.17002 0.30403 0.0
O104 O 0.09127 0.11298 0.1582 0.0
O105 O 0.99396 0.0459 0.10626 0.0
O106 O 0.90445 -0.0465 0.28779 0.0
O107 O 0.0433 -0.03805 0.26768 0.0
O108 O 0.1901 0.15888 0.38955 0.0
O109 O 0.16503 0.13673 0.24143 0.0
O110 O 0.1178 -0.02441 0.32222 0.0
O111 O 0.24446 -0.00568 0.38225 0.0
C112 C 0.19245 -0.04602 0.35006 0.0
O113 O 0.94541 0.13983 0.33868 0.0
O114 O 0.84396 0.10461 0.24557 0.0
C115 C 1.00807 0.08685 0.49966 0.0
C116 C 0.86979 0.14756 0.30153 0.0
Zn117 Zn 0.64509 0.35375 0.73246 0.0
Zn118 Zn 0.41814 0.32453 0.91182 0.0
Zn119 Zn 0.51791 0.31991 0.79272 0.0
C120 C 0.3859 0.43948 0.85 0.0
C121 C 0.37396 0.22344 0.80403 0.0
O122 O 0.63298 0.25365 0.83869 0.0
O123 O 0.73445 0.28888 0.74562 0.0
C124 C 0.60138 0.46798 0.7737 0.0
O125 O 0.46056 0.41788 0.82219 0.0
O126 O 0.33388 0.39914 0.88217 0.0
O127 O 0.38829 0.23458 0.88954 0.0
O128 O 0.41336 0.25672 0.74142 0.0
O129 O 0.67391 0.44 0.78774 0.0
O130 O 0.53507 0.43152 0.76765 0.0
O131 O 0.48712 0.28048 0.65819 0.0
O132 O 0.58445 0.34754 0.60625 0.0
C133 C 0.5241 0.30893 0.58944 0.0
O134 O 0.58781 0.28277 0.91776 0.0
O135 O 0.49963 0.33808 1.01352 0.0
C136 C 0.70861 0.24593 0.80158 0.0
C137 C 0.57028 0.30666 0.99965 0.0
Zn138 Zn 0.14503 0.85375 0.83794 0.0
Zn139 Zn 0.91812 0.82453 0.65854 0.0
Zn140 Zn 1.01786 0.81992 0.77767 0.0
C141 C 0.88588 0.9395 0.72034 0.0
C142 C 0.8739 0.72347 0.76637 0.0
O143 O 0.13293 0.75365 0.73172 0.0
O144 O 0.23437 0.78887 0.82483 0.0
C145 C 0.10136 -0.03202 0.79666 0.0
O146 O 0.96053 0.91789 0.74818 0.0
O147 O 0.83387 0.89916 0.68815 0.0
O148 O 0.88823 0.7346 0.68085 0.0
O149 O 0.9133 0.75675 0.82897 0.0
O150 O 0.17388 0.93999 0.78261 0.0
O151 O 1.03504 0.93153 0.80272 0.0
O152 O 0.98706 0.7805 0.9122 0.0
O153 O 0.08437 0.84758 0.96414 0.0
C154 C 1.02403 0.80897 0.98095 0.0
O155 O 0.08778 0.78277 0.65264 0.0
O156 O 0.99962 0.83805 0.55684 0.0
C157 C 0.20854 0.74592 0.76887 0.0
C158 C 0.07026 0.80663 0.57074 0.0
Zn159 Zn 0.66019 0.56895 0.15858 0.0
Zn160 Zn 0.43324 0.53973 0.33794 0.0
Zn161 Zn 0.56042 0.57358 0.27768 0.0
C162 C 0.55423 0.58455 0.48096 0.0
C163 C 0.47695 0.4255 0.2967 0.0
O164 O 0.49052 0.61072 0.15264 0.0
O165 O 0.5787 0.5554 0.05688 0.0
C166 C 0.70437 0.67004 0.26638 0.0
O167 O 0.59121 0.61301 0.41221 0.0
O168 O 0.49389 0.54594 0.46415 0.0
O169 O 0.40442 0.45348 0.28266 0.0
O170 O 0.54327 0.46196 0.30275 0.0
O171 O 0.69004 0.6589 0.18086 0.0
O172 O 0.66498 0.63676 0.32898 0.0
O173 O 0.61777 0.4756 0.24821 0.0
O174 O 0.74445 0.49434 0.18823 0.0
C175 C 0.69243 0.454 0.2204 0.0
O176 O 0.44536 0.63983 0.23171 0.0
O177 O 0.34388 0.6046 0.32478 0.0
C178 C 0.50805 0.58682 0.07075 0.0
C179 C 0.36973 0.64755 0.26882 0.0
loop_
_geom_bond_atom_site_label_1
_geom_bond_atom_site_label_2
_geom_bond_distance
_geom_bond_site_symmetry_2
_ccdc_geom_bond_type
H0 C5 0.930 . S
H1 C8 0.930 . S
H2 C10 0.930 . S
H3 C4 1.016 . S
C4 H3 1.016 . S
C4 N11 1.286 . S
C5 H0 0.930 . S
C5 C6 1.397 . S
C5 C7 1.361 . S
C6 C5 1.397 . S
C6 C10 1.390 . S
C7 C5 1.361 . S
C7 C8 1.393 . S
C7 N11 1.413 . S
C8 H1 0.930 . S
C8 C7 1.393 . S
C8 C9 1.399 . S
C9 C8 1.399 . S
C9 C10 1.381 . S
C10 H2 0.930 . S
C10 C6 1.390 . S
C10 C9 1.381 . S
N11 C4 1.286 . S
N11 C7 1.413 . S
H12 C17 0.930 1_554 S
H13 C20 0.930 . S
H14 C22 0.930 . S
H15 C16 1.016 . S
C16 H15 1.016 . S
C16 N23 1.286 . S
C17 H12 0.930 1_556 S
C17 C18 1.397 . S
C17 C19 1.361 . S
C18 C17 1.397 . S
C18 C22 1.390 . S
C19 C17 1.361 . S
C19 C20 1.393 . S
C19 N23 1.413 . S
C20 H13 0.930 . S
C20 C19 1.393 . S
C20 C21 1.399 . S
C21 C20 1.399 . S
C21 C22 1.381 . S
C22 H14 0.930 . S
C22 C18 1.390 . S
C22 C21 1.381 . S
N23 C16 1.286 . S
N23 C19 1.413 . S
H24 C29 0.930 . S
H25 C32 0.930 . S
H26 C34 0.930 . S
H27 C28 1.016 . S
C28 H27 1.016 . S
C28 N35 1.286 . S
C29 H24 0.930 . S
C29 C30 1.397 . S
C29 C31 1.361 . S
C30 C29 1.397 . S
C30 C34 1.390 . S
C31 C29 1.361 . S
C31 C32 1.393 . S
C31 N35 1.413 . S
C32 H25 0.930 . S
C32 C31 1.393 . S
C32 C33 1.399 . S
C33 C32 1.399 . S
C33 C34 1.381 . S
C34 H26 0.930 . S
C34 C30 1.390 . S
C34 C33 1.381 . S
N35 C28 1.286 . S
N35 C31 1.413 . S
H36 C41 0.930 1_556 S
H37 C44 0.930 . S
H38 C46 0.930 . S
H39 C40 1.016 . S
C40 H39 1.016 . S
C40 N47 1.286 . S
C41 H36 0.930 1_554 S
C41 C42 1.397 . S
C41 C43 1.361 . S
C42 C41 1.397 . S
C42 C46 1.390 . S
C43 C41 1.361 . S
C43 C44 1.393 . S
C43 N47 1.413 . S
C44 H37 0.930 . S
C44 C43 1.393 . S
C44 C45 1.399 . S
C45 C44 1.399 . S
C45 C46 1.381 . S
C46 H38 0.930 . S
C46 C42 1.390 . S
C46 C45 1.381 . S
N47 C40 1.286 . S
N47 C43 1.413 . S
H48 C53 0.930 . S
H49 C56 0.930 . S
H50 C58 0.930 . S
H51 C52 1.016 . S
C52 H51 1.016 . S
C52 N59 1.286 . S
C53 H48 0.930 . S
C53 C54 1.397 . S
C53 C55 1.361 . S
C54 C53 1.397 . S
C54 C58 1.390 . S
C55 C53 1.361 . S
C55 C56 1.393 . S
C55 N59 1.413 . S
C56 H49 0.930 . S
C56 C55 1.393 . S
C56 C57 1.399 . S
C57 C56 1.399 . S
C57 C58 1.381 . S
C58 H50 0.930 . S
C58 C54 1.390 . S
C58 C57 1.381 . S
N59 C52 1.286 . S
N59 C55 1.413 . S
H60 C65 0.930 1_556 S
H61 C68 0.930 . S
H62 C70 0.930 . S
H63 C64 1.016 . S
C64 H63 1.016 . S
C64 N71 1.286 . S
C65 H60 0.930 1_554 S
C65 C66 1.397 1_554 S
C65 C67 1.361 . S
C66 C65 1.397 1_556 S
C66 C70 1.390 1_556 S
C67 C65 1.361 . S
C67 C68 1.393 . S
C67 N71 1.413 . S
C68 H61 0.930 . S
C68 C67 1.393 . S
C68 C69 1.399 . S
C69 C68 1.399 . S
C69 C70 1.381 . S
C70 H62 0.930 . S
C70 C66 1.390 1_554 S
C70 C69 1.381 . S
N71 C64 1.286 . S
N71 C67 1.413 . S
H72 C77 0.930 . S
H73 C80 0.930 . S
H74 C82 0.930 . S
H75 C76 1.016 . S
C76 H75 1.016 . S
C76 N83 1.286 . S
C77 H72 0.930 . S
C77 C78 1.397 . S
C77 C79 1.361 . S
C78 C77 1.397 . S
C78 C82 1.390 . S
C79 C77 1.361 . S
C79 C80 1.393 . S
C79 N83 1.413 . S
C80 H73 0.930 . S
C80 C79 1.393 . S
C80 C81 1.399 . S
C81 C80 1.399 . S
C81 C82 1.381 . S
C82 H74 0.930 . S
C82 C78 1.390 . S
C82 C81 1.381 . S
N83 C76 1.286 . S
N83 C79 1.413 . S
H84 C89 0.930 1_554 S
H85 C92 0.930 . S
H86 C94 0.930 . S
H87 C88 1.016 . S
C88 H87 1.016 . S
C88 N95 1.286 . S
C89 H84 0.930 1_556 S
C89 C90 1.397 . S
C89 C91 1.361 . S
C90 C89 1.397 . S
C90 C94 1.390 . S
C91 C89 1.361 . S
C91 C92 1.393 . S
C91 N95 1.413 . S
C92 H85 0.930 . S
C92 C91 1.393 . S
C92 C93 1.399 . S
C93 C92 1.399 . S
C93 C94 1.381 . S
C94 H86 0.930 . S
C94 C90 1.390 . S
C94 C93 1.381 . S
N95 C88 1.286 . S
N95 C91 1.413 . S
Zn96 O102 1.920 1_455 S
Zn96 O108 1.898 . S
Zn96 O111 1.905 1_545 S
Zn97 O105 1.905 1_655 S
Zn97 O106 1.898 1_545 S
Zn97 O114 1.920 . S
Zn98 O101 2.080 1_455 S
Zn98 O104 2.114 . S
Zn98 O107 2.120 1_455 S
Zn98 O109 2.120 . S
Zn98 O110 2.114 . S
Zn98 O113 2.080 1_455 S
C99 O104 1.166 . S
C99 O105 1.182 . S
C100 O106 1.167 . S
C100 O107 1.299 1_565 S
O101 Zn98 2.080 1_655 S
O101 C115 1.305 . S
O102 Zn96 1.920 1_655 S
O102 C115 1.234 . S
C103 O108 1.167 . S
C103 O109 1.299 . S
O104 Zn98 2.114 . S
O104 C99 1.166 . S
O105 Zn97 1.905 1_455 S
O105 C99 1.182 . S
O106 Zn97 1.898 1_565 S
O106 C100 1.167 . S
O107 Zn98 2.120 1_655 S
O107 C100 1.299 1_545 S
O108 Zn96 1.898 . S
O108 C103 1.167 . S
O109 Zn98 2.120 . S
O109 C103 1.299 . S
O110 Zn98 2.114 . S
O110 C112 1.166 1_545 S
O111 Zn96 1.905 1_565 S
O111 C112 1.182 . S
C112 O110 1.166 1_565 S
C112 O111 1.182 . S
O113 Zn98 2.080 1_655 S
O113 C116 1.305 . S
O114 Zn97 1.920 . S
O114 C116 1.234 . S
C115 O101 1.305 . S
C115 O102 1.234 . S
C116 O113 1.305 . S
C116 O114 1.234 . S
Zn117 O123 1.920 . S
Zn117 O129 1.898 . S
Zn117 O132 1.905 . S
Zn118 O126 1.905 . S
Zn118 O127 1.898 . S
Zn118 O135 1.920 . S
Zn119 O122 2.080 . S
Zn119 O125 2.114 . S
Zn119 O128 2.120 . S
Zn119 O130 2.120 . S
Zn119 O131 2.114 . S
Zn119 O134 2.080 . S
C120 O125 1.166 . S
C120 O126 1.182 . S
C121 O127 1.167 . S
C121 O128 1.299 . S
O122 Zn119 2.080 . S
O122 C136 1.305 . S
O123 Zn117 1.920 . S
O123 C136 1.234 . S
C124 O129 1.167 . S
C124 O130 1.299 . S
O125 Zn119 2.114 . S
O125 C120 1.166 . S
O126 Zn118 1.905 . S
O126 C120 1.182 . S
O127 Zn118 1.898 . S
O127 C121 1.167 . S
O128 Zn119 2.120 . S
O128 C121 1.299 . S
O129 Zn117 1.898 . S
O129 C124 1.167 . S
O130 Zn119 2.120 . S
O130 C124 1.299 . S
O131 Zn119 2.114 . S
O131 C133 1.166 . S
O132 Zn117 1.905 . S
O132 C133 1.182 . S
C133 O131 1.166 . S
C133 O132 1.182 . S
O134 Zn119 2.080 . S
O134 C137 1.305 . S
O135 Zn118 1.920 . S
O135 C137 1.234 . S
C136 O122 1.305 . S
C136 O123 1.234 . S
C137 O134 1.305 . S
C137 O135 1.234 . S
Zn138 O144 1.920 . S
Zn138 O150 1.898 1_565 S
Zn138 O153 1.905 1_455 S
Zn139 O147 1.905 1_565 S
Zn139 O148 1.898 . S
Zn139 O156 1.920 1_655 S
Zn140 O143 2.080 . S
Zn140 O146 2.114 1_455 S
Zn140 O149 2.120 1_455 S
Zn140 O151 2.120 . S
Zn140 O152 2.114 1_455 S
Zn140 O155 2.080 . S
C141 O146 1.166 1_545 S
C141 O147 1.182 . S
C142 O148 1.167 . S
C142 O149 1.299 . S
O143 Zn140 2.080 . S
O143 C157 1.305 . S
O144 Zn138 1.920 . S
O144 C157 1.234 . S
C145 O150 1.167 . S
C145 O151 1.299 1_545 S
O146 Zn140 2.114 1_655 S
O146 C141 1.166 1_565 S
O147 Zn139 1.905 1_545 S
O147 C141 1.182 . S
O148 Zn139 1.898 . S
O148 C142 1.167 . S
O149 Zn140 2.120 1_655 S
O149 C142 1.299 . S
O150 Zn138 1.898 1_545 S
O150 C145 1.167 . S
O151 Zn140 2.120 . S
O151 C145 1.299 1_565 S
O152 Zn140 2.114 1_655 S
O152 C154 1.166 . S
O153 Zn138 1.905 1_655 S
O153 C154 1.182 . S
C154 O152 1.166 . S
C154 O153 1.182 . S
O155 Zn140 2.080 . S
O155 C158 1.305 . S
O156 Zn139 1.920 1_455 S
O156 C158 1.234 . S
C157 O143 1.305 . S
C157 O144 1.234 . S
C158 O155 1.305 . S
C158 O156 1.234 . S
Zn159 O165 1.920 . S
Zn159 O171 1.898 . S
Zn159 O174 1.905 . S
Zn160 O168 1.905 . S
Zn160 O169 1.898 . S
Zn160 O177 1.920 . S
Zn161 O164 2.080 . S
Zn161 O167 2.114 . S
Zn161 O170 2.120 . S
Zn161 O172 2.120 . S
Zn161 O173 2.114 . S
Zn161 O176 2.080 . S
C162 O167 1.166 . S
C162 O168 1.182 . S
C163 O169 1.167 . S
C163 O170 1.299 . S
O164 Zn161 2.080 . S
O164 C178 1.305 . S
O165 Zn159 1.920 . S
O165 C178 1.234 . S
C166 O171 1.167 . S
C166 O172 1.299 . S
O167 Zn161 2.114 . S
O167 C162 1.166 . S
O168 Zn160 1.905 . S
O168 C162 1.182 . S
O169 Zn160 1.898 . S
O169 C163 1.167 . S
O170 Zn161 2.120 . S
O170 C163 1.299 . S
O171 Zn159 1.898 . S
O171 C166 1.167 . S
O172 Zn161 2.120 . S
O172 C166 1.299 . S
O173 Zn161 2.114 . S
O173 C175 1.166 . S
O174 Zn159 1.905 . S
O174 C175 1.182 . S
C175 O173 1.166 . S
C175 O174 1.182 . S
O176 Zn161 2.080 . S
O176 C179 1.305 . S
O177 Zn160 1.920 . S
O177 C179 1.234 . S
C178 O164 1.305 . S
C178 O165 1.234 . S
C179 O176 1.305 . S
C179 O177 1.234 . S
C81 C112 1.332 . S
C120 C93 1.332 . S
C124 C57 1.328 . S
C69 C100 1.328 . S
C141 C33 1.362 . S
C175 C45 1.362 . S
C9 C163 1.359 . S
C21 C145 1.359 . S
C99 C18 1.258 1_554 S
C133 C6 1.258 . S
C137 C42 1.250 1_556 S
C115 C30 1.250 . S
C154 C66 1.261 . S
C54 C162 1.261 . S
C178 C90 1.260 1_554 S
C78 C158 1.260 . S
C103 C4 1.383 . S
C121 C16 1.383 . S
C28 C136 1.402 . S
C116 C40 1.402 . S
C142 C52 1.397 . S
C64 C166 1.397 . S
C76 C179 1.414 . S
C88 C157 1.414 . S
