# Generated by pormake.
# Topology tsx, (6,3)-cn, num edge types: 1
# Building blocks:
#     Node 0, Type 0, BuildingBlock: MIDCAF_clean_sbu_0, # of connection points: 6
#     Node 1, Type 0, BuildingBlock: MIDCAF_clean_sbu_0, # of connection points: 6
#     Node 2, Type 1, BuildingBlock: BETDAH_clean_linker_0, # of connection points: 3
#     Node 3, Type 1, BuildingBlock: BETDAH_clean_linker_0, # of connection points: 3
#     Node 4, Type 1, BuildingBlock: BETDAH_clean_linker_0, # of connection points: 3
#     Node 5, Type 1, BuildingBlock: BETDAH_clean_linker_0, # of connection points: 3
#     Edge 6, Type (0, 1), BuildingBlock: AJUNOK_clean_linker_0, # of connection points: 2
#     Edge 7, Type (0, 1), BuildingBlock: AJUNOK_clean_linker_0, # of connection points: 2
#     Edge 8, Type (0, 1), BuildingBlock: AJUNOK_clean_linker_0, # of connection points: 2
#     Edge 9, Type (0, 1), BuildingBlock: AJUNOK_clean_linker_0, # of connection points: 2
#     Edge 10, Type (0, 1), BuildingBlock: AJUNOK_clean_linker_0, # of connection points: 2
#     Edge 11, Type (0, 1), BuildingBlock: AJUNOK_clean_linker_0, # of connection points: 2
#     Edge 12, Type (0, 1), BuildingBlock: AJUNOK_clean_linker_0, # of connection points: 2
#     Edge 13, Type (0, 1), BuildingBlock: AJUNOK_clean_linker_0, # of connection points: 2
#     Edge 14, Type (0, 1), BuildingBlock: AJUNOK_clean_linker_0, # of connection points: 2
#     Edge 15, Type (0, 1), BuildingBlock: AJUNOK_clean_linker_0, # of connection points: 2
#     Edge 16, Type (0, 1), BuildingBlock: AJUNOK_clean_linker_0, # of connection points: 2
#     Edge 17, Type (0, 1), BuildingBlock: AJUNOK_clean_linker_0, # of connection points: 2
# Relax obj value: 0.077
# Max RMSD: 0.147
# Mean RMSD: 0.105
data_MOF--net-tsx--node1-MIDCAF_clean_sbu_0--node2-BETDAH_clean_linker_0--edge1-AJUNOK_clean_linker_0
_symmetry_space_group_name_H-M    P1
_symmetry_Int_Tables_number       1
_symmetry_cell_setting            triclinic
loop_
_symmetry_equiv_pos_as_xyz
'x, y, z'
_cell_length_a     14.716644
_cell_length_b     15.418063
_cell_length_c     25.681565
_cell_angle_alpha  89.71567
_cell_angle_beta   104.44351
_cell_angle_gamma 90.341336
loop_
_atom_site_label
_atom_site_type_symbol
_atom_site_fract_x
_atom_site_fract_y
_atom_site_fract_z
_atom_type_partial_charge
Zn0 Zn 0.92443 0.09536 0.93586 0.0
Zn1 Zn 0.22994 0.07515 0.06908 0.0
Zn2 Zn 0.08977 0.08826 0.00167 0.0
C3 C 0.23306 0.23816 0.02762 0.0
C4 C 0.2551 0.95952 0.99751 0.0
O5 O 0.99133 0.00923 0.03394 0.0
O6 O 0.8605 0.00402 0.96872 0.0
C7 C 0.96899 0.26332 0.97143 0.0
O8 O 0.14454 0.22153 0.01494 0.0
O9 O 0.29034 0.17825 0.04578 0.0
O10 O 0.27248 0.9613 0.0482 0.0
O11 O 0.19214 0.0109 0.96981 0.0
O12 O 0.89875 0.21755 0.94941 0.0
O13 O 0.0501 0.22818 0.98954 0.0
O14 O 0.10761 0.02621 0.92852 0.0
O15 O 0.97437 0.06596 0.87237 0.0
C16 C 0.05448 0.03152 0.88061 0.0
O17 O 0.06329 0.03298 0.07714 0.0
O18 O 0.18638 0.08497 0.13623 0.0
C19 C 0.90783 0.97943 0.0143 0.0
C20 C 0.10653 0.04963 0.12624 0.0
Zn21 Zn 0.61504 0.34655 0.57415 0.0
Zn22 Zn 0.36446 0.41417 0.44358 0.0
Zn23 Zn 0.50461 0.44623 0.5083 0.0
C24 C 0.48931 0.48636 0.38843 0.0
C25 C 0.31745 0.55207 0.48066 0.0
O26 O 0.54964 0.51052 0.5836 0.0
O27 O 0.53444 0.38863 0.62477 0.0
C28 C 0.5972 0.29388 0.46898 0.0
O29 O 0.54715 0.46287 0.43246 0.0
O30 O 0.40235 0.47571 0.38325 0.0
O31 O 0.27499 0.48007 0.47591 0.0
O32 O 0.40596 0.55235 0.48587 0.0
O33 O 0.5904 0.25993 0.51294 0.0
O34 O 0.58152 0.37515 0.46051 0.0
O35 O 0.63124 0.51886 0.55318 0.0
O36 O 0.7358 0.41651 0.58046 0.0
C37 C 0.71755 0.4959 0.57068 0.0
O38 O 0.43505 0.32551 0.53078 0.0
O39 O 0.36234 0.28772 0.449 0.0
C40 C 0.53712 0.47105 0.6253 0.0
C41 C 0.38708 0.26912 0.49838 0.0
H42 H 0.12569 0.84439 0.32653 0.0
H43 H 0.89755 0.01779 0.32604 0.0
H44 H 1.00272 0.85014 0.46179 0.0
C45 C 0.07508 0.87071 0.34642 0.0
C46 C 0.07337 0.8406 0.39781 0.0
C47 C 1.0127 0.93522 0.32051 0.0
C48 C 0.94644 0.9687 0.34608 0.0
C49 C 0.94225 0.93683 0.39688 0.0
C50 C 1.00567 0.87329 0.42231 0.0
N51 N 0.87458 0.96553 0.4236 0.0
C52 C 0.81744 0.03754 0.40927 0.0
H53 H 0.9894 0.77531 0.70184 0.0
H54 H 0.20073 0.94131 0.66437 0.0
H55 H 0.0645 0.7467 0.55145 0.0
C56 C 0.03251 0.79392 0.67493 0.0
C57 C 0.01877 0.75294 0.62494 0.0
C58 C 0.09736 0.8623 0.6891 0.0
C59 C 0.15062 0.88864 0.65335 0.0
C60 C 0.13988 0.84622 0.60387 0.0
C61 C 0.07381 0.7786 0.58992 0.0
N62 N 0.19486 0.86908 0.56754 0.0
C63 C 0.23821 0.94937 0.56575 0.0
H64 H 0.75528 0.50566 0.84283 0.0
H65 H 0.5716 0.72039 0.84481 0.0
H66 H 0.79829 0.66575 0.98335 0.0
C67 C 0.73625 0.56135 0.86346 0.0
C68 C 0.78689 0.57996 0.91605 0.0
C69 C 0.65901 0.61158 0.83767 0.0
C70 C 0.63159 0.6817 0.86468 0.0
C71 C 0.68213 0.70147 0.91744 0.0
C72 C 0.76027 0.65118 0.94257 0.0
N73 N 0.65608 0.77125 0.94628 0.0
C74 C 0.56386 0.79742 0.94083 0.0
H75 H 0.40561 0.51663 0.16248 0.0
H76 H 0.68132 0.62811 0.19027 0.0
H77 H 0.53411 0.55311 0.03077 0.0
C78 C 0.461 0.54379 0.14631 0.0
C79 C 0.45708 0.53415 0.09146 0.0
C80 C 0.54108 0.57804 0.18213 0.0
C81 C 0.61754 0.60527 0.16266 0.0
C82 C 0.61389 0.5968 0.10783 0.0
C83 C 0.53387 0.56243 0.07255 0.0
N84 N 0.69513 0.60888 0.08898 0.0
C85 C 0.74007 0.68817 0.09088 0.0
C86 C 0.3597 0.33428 0.0147 0.0
C87 C 0.27143 0.32613 0.02595 0.0
C88 C 0.4156 0.40748 0.03057 0.0
C89 C 0.38508 0.47556 0.05824 0.0
H90 H 0.38948 0.28021 0.9979 0.0
H91 H 0.48676 0.40595 0.026 0.0
S92 S 0.14903 0.49503 0.08428 0.0
N93 N 0.14866 0.39793 0.05731 0.0
N94 N 0.25262 0.53821 0.08552 0.0
C95 C 0.29162 0.47332 0.06291 0.0
C96 C 0.2348 0.39788 0.04704 0.0
C97 C 0.3613 0.83339 0.00113 0.0
C98 C 0.31708 0.90658 0.97288 0.0
C99 C 0.43819 0.79442 0.9878 0.0
C100 C 0.47338 0.82703 0.94567 0.0
H101 H 0.33977 0.80901 0.03588 0.0
H102 H 0.47354 0.74153 0.0126 0.0
S103 S 0.37796 0.01036 0.8553 0.0
N104 N 0.31033 0.00537 0.89784 0.0
N105 N 0.45468 0.93093 0.87257 0.0
C106 C 0.42638 0.89583 0.91457 0.0
C107 C 0.34781 0.93578 0.9281 0.0
C108 C 0.77846 0.91422 0.04839 0.0
C109 C 0.87064 0.90986 0.04232 0.0
C110 C 0.73782 0.84308 0.06843 0.0
C111 C 0.78828 0.76598 0.08236 0.0
H112 H 0.73669 0.9718 0.03593 0.0
H113 H 0.66516 0.84682 0.07027 0.0
S114 S 0.02962 0.72072 0.07192 0.0
N115 N 1.00995 0.82179 0.05062 0.0
N116 N 0.93369 0.68854 0.08899 0.0
C117 C 0.88096 0.76157 0.07791 0.0
C118 C 0.92217 0.83357 0.05743 0.0
C119 C 0.97554 0.41032 0.93334 0.0
C120 C 0.9543 0.35733 0.97334 0.0
C121 C 0.92835 0.48908 0.91877 0.0
C122 C 0.85893 0.51708 0.94398 0.0
H123 H 0.02133 0.3867 0.90946 0.0
H124 H 0.94004 0.52434 0.8844 0.0
S125 S 0.79022 0.40759 0.05723 0.0
N126 N 0.86939 0.34289 0.04262 0.0
N127 N 0.78112 0.49096 0.01564 0.0
C128 C 0.8454 0.46925 0.98814 0.0
C129 C 0.89293 0.38902 0.00264 0.0
C130 C 0.87324 0.54832 0.62647 0.0
C131 C 0.79387 0.56188 0.58347 0.0
C132 C 0.94607 0.61002 0.6394 0.0
C133 C 0.94355 0.68637 0.60887 0.0
H134 H 0.87838 0.4903 0.65097 0.0
H135 H 1.00493 0.59791 0.67349 0.0
S136 S 0.75345 0.75182 0.49137 0.0
N137 N 0.71785 0.65753 0.51016 0.0
N138 N 0.85605 0.77189 0.53352 0.0
C139 C 0.86556 0.70009 0.56529 0.0
C140 C 0.79038 0.63834 0.55287 0.0
C141 C 0.60479 0.15921 0.41847 0.0
C142 C 0.64228 0.24153 0.43501 0.0
C143 C 0.66064 0.09454 0.40426 0.0
C144 C 0.75557 0.11035 0.40668 0.0
H145 H 0.53429 0.14254 0.42089 0.0
H146 H 0.6315 0.0299 0.39581 0.0
S147 S 0.88555 0.31606 0.44414 0.0
N148 N 0.7785 0.33658 0.45005 0.0
N149 N 0.88324 0.21487 0.4229 0.0
C150 C 0.79199 0.19397 0.41912 0.0
C151 C 0.73515 0.25991 0.43342 0.0
C152 C 0.3717 0.16227 0.57158 0.0
C153 C 0.35405 0.18493 0.51662 0.0
C154 C 0.33423 0.08526 0.58825 0.0
C155 C 0.2775 0.02924 0.55046 0.0
H156 H 0.41371 0.20456 0.60187 0.0
H157 H 0.34914 0.06988 0.63073 0.0
S158 S 0.20994 0.05642 0.40274 0.0
N159 N 0.27654 0.14142 0.42482 0.0
N160 N 0.20516 0.00056 0.45689 0.0
C161 C 0.25968 0.05064 0.496 0.0
C162 C 0.29825 0.12742 0.47886 0.0
C163 C 0.16618 0.63112 0.46892 0.0
C164 C 0.26174 0.63266 0.46865 0.0
C165 C 0.10667 0.70002 0.44771 0.0
C166 C 0.14023 0.77299 0.42513 0.0
H167 H 0.13605 0.5747 0.4837 0.0
H168 H 0.03291 0.69425 0.44688 0.0
S169 S 0.38685 0.81365 0.42003 0.0
N170 N 0.38895 0.71695 0.44815 0.0
N171 N 0.27693 0.84619 0.40808 0.0
C172 C 0.23666 0.77756 0.42722 0.0
C173 C 0.29753 0.70764 0.44926 0.0
C174 C 0.04561 0.93716 0.17883 0.0
C175 C 0.06691 0.02441 0.17142 0.0
C176 C 0.0228 0.90944 0.22607 0.0
C177 C 0.02033 0.96828 0.26746 0.0
H178 H 0.05273 0.88917 0.14966 0.0
H179 H 1.0107 0.84089 0.23122 0.0
S180 S 0.06553 0.20497 0.2659 0.0
N181 N 0.08049 0.17025 0.20786 0.0
N182 N 0.0364 0.1186 0.29657 0.0
C183 C 0.03715 0.0565 0.25932 0.0
C184 C 0.06131 0.08441 0.21144 0.0
C185 C 0.11416 0.90818 0.83619 0.0
C186 C 0.08277 0.9943 0.83439 0.0
C187 C 0.12308 0.86648 0.78923 0.0
C188 C 0.10271 0.91034 0.73948 0.0
H189 H 0.12662 0.87143 0.87335 0.0
H190 H 0.14288 0.79874 0.79142 0.0
S191 S 0.02699 0.13884 0.71499 0.0
N192 N 0.03746 0.12364 0.77993 0.0
N193 N 0.05609 0.04587 0.69203 0.0
C194 C 0.07691 -0.00208 0.738 0.0
C195 C 0.06635 0.03977 0.78543 0.0
C196 C 0.53443 0.4716 0.72205 0.0
C197 C 0.5491 0.51714 0.67715 0.0
C198 C 0.56368 0.50601 0.77388 0.0
C199 C 0.6077 0.58752 0.78265 0.0
H200 H 0.50482 0.40676 0.71761 0.0
H201 H 0.55658 0.46658 0.80771 0.0
S202 S 0.65418 0.7373 0.67912 0.0
N203 N 0.60356 0.65208 0.64489 0.0
N204 N 0.65849 0.71604 0.74279 0.0
C205 C 0.61669 0.63665 0.73815 0.0
C206 C 0.58716 0.60167 0.68519 0.0
C207 C 0.46221 0.58553 0.31014 0.0
C208 C 0.5199 0.52321 0.34242 0.0
C209 C 0.47541 0.60957 0.26001 0.0
C210 C 0.5469 0.57227 0.24034 0.0
H211 H 0.4031 0.61264 0.32249 0.0
H212 H 0.42558 0.65337 0.23492 0.0
S213 S 0.72243 0.41245 0.31123 0.0
N214 N 0.65596 0.43033 0.35326 0.0
N215 N 0.6807 0.47511 0.2584 0.0
C216 C 0.60965 0.51498 0.27386 0.0
C217 C 0.59622 0.49055 0.3252 0.0
loop_
_geom_bond_atom_site_label_1
_geom_bond_atom_site_label_2
_geom_bond_distance
_geom_bond_site_symmetry_2
_ccdc_geom_bond_type
Zn0 O6 1.920 1_545 S
Zn0 O12 1.898 . S
Zn0 O15 1.905 1_545 S
Zn1 O9 1.905 . S
Zn1 O10 1.898 1_545 S
Zn1 O18 1.920 1_545 S
Zn2 O5 2.080 1_444 S
Zn2 O8 2.114 . S
Zn2 O11 2.120 1_545 S
Zn2 O13 2.120 1_455 S
Zn2 O14 2.114 1_554 S
Zn2 O17 2.080 . S
C3 O8 1.166 . S
C3 O9 1.182 . S
C4 O10 1.167 . S
C4 O11 1.299 . S
O5 Zn2 2.080 1_666 S
O5 C19 1.305 . S
O6 Zn0 1.920 1_565 S
O6 C19 1.234 . S
C7 O12 1.167 . S
C7 O13 1.299 1_556 S
O8 Zn2 2.114 . S
O8 C3 1.166 . S
O9 Zn1 1.905 . S
O9 C3 1.182 . S
O10 Zn1 1.898 1_565 S
O10 C4 1.167 . S
O11 Zn2 2.120 1_565 S
O11 C4 1.299 . S
O12 Zn0 1.898 . S
O12 C7 1.167 . S
O13 Zn2 2.120 1_655 S
O13 C7 1.299 1_554 S
O14 Zn2 2.114 1_556 S
O14 C16 1.166 1_445 S
O15 Zn0 1.905 1_565 S
O15 C16 1.182 . S
C16 O14 1.166 1_665 S
C16 O15 1.182 . S
O17 Zn2 2.080 . S
O17 C20 1.305 1_545 S
O18 Zn1 1.920 1_565 S
O18 C20 1.234 . S
C19 O5 1.305 . S
C19 O6 1.234 . S
C20 O17 1.305 1_565 S
C20 O18 1.234 . S
Zn21 O27 1.920 . S
Zn21 O33 1.898 . S
Zn21 O36 1.905 . S
Zn22 O30 1.905 . S
Zn22 O31 1.898 . S
Zn22 O39 1.920 . S
Zn23 O26 2.080 . S
Zn23 O29 2.114 . S
Zn23 O32 2.120 . S
Zn23 O34 2.120 . S
Zn23 O35 2.114 . S
Zn23 O38 2.080 . S
C24 O29 1.166 . S
C24 O30 1.182 . S
C25 O31 1.167 . S
C25 O32 1.299 . S
O26 Zn23 2.080 . S
O26 C40 1.305 . S
O27 Zn21 1.920 . S
O27 C40 1.234 . S
C28 O33 1.167 . S
C28 O34 1.299 . S
O29 Zn23 2.114 . S
O29 C24 1.166 . S
O30 Zn22 1.905 . S
O30 C24 1.182 . S
O31 Zn22 1.898 . S
O31 C25 1.167 . S
O32 Zn23 2.120 . S
O32 C25 1.299 . S
O33 Zn21 1.898 . S
O33 C28 1.167 . S
O34 Zn23 2.120 . S
O34 C28 1.299 . S
O35 Zn23 2.114 . S
O35 C37 1.166 . S
O36 Zn21 1.905 . S
O36 C37 1.182 . S
C37 O35 1.166 . S
C37 O36 1.182 . S
O38 Zn23 2.080 . S
O38 C41 1.305 . S
O39 Zn22 1.920 . S
O39 C41 1.234 . S
C40 O26 1.305 . S
C40 O27 1.234 . S
C41 O38 1.305 . S
C41 O39 1.234 . S
H42 C45 0.929 . S
H43 C48 0.929 . S
H44 C50 0.930 . S
C45 H42 0.929 . S
C45 C46 1.398 . S
C45 C47 1.396 1_565 S
C46 C45 1.398 . S
C46 C50 1.407 . S
C47 C45 1.396 1_545 S
C47 C48 1.394 . S
C48 H43 0.929 . S
C48 C47 1.394 . S
C48 C49 1.382 . S
C49 C48 1.382 . S
C49 C50 1.392 1_545 S
C49 N51 1.420 . S
C50 H44 0.930 . S
C50 C46 1.407 . S
C50 C49 1.392 1_565 S
N51 C49 1.420 . S
N51 C52 1.244 1_455 S
C52 N51 1.244 1_655 S
H53 C56 0.929 . S
H54 C59 0.929 . S
H55 C61 0.930 . S
C56 H53 0.929 . S
C56 C57 1.398 . S
C56 C58 1.396 1_565 S
C57 C56 1.398 . S
C57 C61 1.407 . S
C58 C56 1.396 1_545 S
C58 C59 1.394 1_655 S
C59 H54 0.929 . S
C59 C58 1.394 1_455 S
C59 C60 1.382 . S
C60 C59 1.382 . S
C60 C61 1.392 1_445 S
C60 N62 1.420 . S
C61 H55 0.930 . S
C61 C57 1.407 . S
C61 C60 1.392 1_665 S
N62 C60 1.420 . S
N62 C63 1.244 . S
C63 N62 1.244 . S
H64 C67 0.929 . S
H65 C70 0.929 . S
H66 C72 0.930 . S
C67 H64 0.929 . S
C67 C68 1.398 . S
C67 C69 1.396 . S
C68 C67 1.398 . S
C68 C72 1.407 . S
C69 C67 1.396 . S
C69 C70 1.394 . S
C70 H65 0.929 . S
C70 C69 1.394 . S
C70 C71 1.382 . S
C71 C70 1.382 . S
C71 C72 1.392 . S
C71 N73 1.420 . S
C72 H66 0.930 . S
C72 C68 1.407 . S
C72 C71 1.392 . S
N73 C71 1.420 . S
N73 C74 1.244 . S
C74 N73 1.244 . S
H75 C78 0.929 . S
H76 C81 0.929 . S
H77 C83 0.930 . S
C78 H75 0.929 . S
C78 C79 1.398 . S
C78 C80 1.396 . S
C79 C78 1.398 . S
C79 C83 1.407 . S
C80 C78 1.396 . S
C80 C81 1.394 . S
C81 H76 0.929 . S
C81 C80 1.394 . S
C81 C82 1.382 . S
C82 C81 1.382 . S
C82 C83 1.392 . S
C82 N84 1.420 . S
C83 H77 0.930 . S
C83 C79 1.407 . S
C83 C82 1.392 . S
N84 C82 1.420 . S
N84 C85 1.244 . S
C85 N84 1.244 . S
C86 C87 1.369 . S
C86 C88 1.419 . S
C86 H90 0.930 . S
C87 C86 1.369 . S
C87 C96 1.429 . S
C88 C86 1.419 . S
C88 C89 1.363 . S
C88 H91 0.929 . S
C89 C88 1.363 . S
C89 C95 1.428 . S
H90 C86 0.930 . S
H91 C88 0.929 . S
S92 N93 1.613 . S
S92 N94 1.610 1_556 S
N93 S92 1.613 . S
N93 C96 1.350 1_556 S
N94 S92 1.610 1_554 S
N94 C95 1.351 . S
C95 C89 1.428 . S
C95 N94 1.351 . S
C95 C96 1.434 . S
C96 C87 1.429 . S
C96 N93 1.350 1_554 S
C96 C95 1.434 . S
C97 C98 1.369 1_554 S
C97 C99 1.421 . S
C97 H101 0.930 . S
C98 C97 1.369 1_556 S
C98 C107 1.429 . S
C99 C97 1.421 . S
C99 C100 1.358 1_554 S
C99 H102 0.932 . S
C100 C99 1.358 1_556 S
C100 C106 1.428 . S
H101 C97 0.930 . S
H102 C99 0.932 . S
S103 N104 1.613 . S
S103 N105 1.610 . S
N104 S103 1.613 . S
N104 C107 1.350 . S
N105 S103 1.610 . S
N105 C106 1.351 . S
C106 C100 1.428 . S
C106 N105 1.351 . S
C106 C107 1.434 . S
C107 C98 1.429 . S
C107 N104 1.350 . S
C107 C106 1.434 . S
C108 C109 1.369 . S
C108 C110 1.419 . S
C108 H112 0.930 . S
C109 C108 1.369 . S
C109 C118 1.429 1_554 S
C110 C108 1.419 . S
C110 C111 1.363 . S
C110 H113 0.929 . S
C111 C110 1.363 . S
C111 C117 1.428 . S
H112 C108 0.930 . S
H113 C110 0.929 . S
S114 N115 1.613 . S
S114 N116 1.610 . S
N115 S114 1.613 . S
N115 C118 1.350 . S
N116 S114 1.610 . S
N116 C117 1.351 1_556 S
C117 C111 1.428 . S
C117 N116 1.351 1_554 S
C117 C118 1.434 1_554 S
C118 C109 1.429 1_556 S
C118 N115 1.350 . S
C118 C117 1.434 1_556 S
C119 C120 1.369 . S
C119 C121 1.419 . S
C119 H123 0.930 . S
C120 C119 1.369 . S
C120 C129 1.429 . S
C121 C119 1.419 . S
C121 C122 1.363 . S
C121 H124 0.929 . S
C122 C121 1.363 . S
C122 C128 1.428 . S
H123 C119 0.930 . S
H124 C121 0.929 . S
S125 N126 1.613 . S
S125 N127 1.610 1_554 S
N126 S125 1.613 . S
N126 C129 1.350 1_554 S
N127 S125 1.610 1_556 S
N127 C128 1.351 . S
C128 C122 1.428 . S
C128 N127 1.351 . S
C128 C129 1.434 . S
C129 C120 1.429 . S
C129 N126 1.350 1_556 S
C129 C128 1.434 . S
C130 C131 1.369 . S
C130 C132 1.419 . S
C130 H134 0.930 . S
C131 C130 1.369 . S
C131 C140 1.429 . S
C132 C130 1.419 . S
C132 C133 1.363 . S
C132 H135 0.929 . S
C133 C132 1.363 . S
C133 C139 1.428 . S
H134 C130 0.930 . S
H135 C132 0.929 . S
S136 N137 1.613 . S
S136 N138 1.610 . S
N137 S136 1.613 . S
N137 C140 1.350 . S
N138 S136 1.610 . S
N138 C139 1.351 . S
C139 C133 1.428 . S
C139 N138 1.351 . S
C139 C140 1.434 . S
C140 C131 1.429 . S
C140 N137 1.350 . S
C140 C139 1.434 . S
C141 C142 1.369 . S
C141 C143 1.419 . S
C141 H145 0.930 . S
C142 C141 1.369 . S
C142 C151 1.429 . S
C143 C141 1.419 . S
C143 C144 1.363 . S
C143 H146 0.929 . S
C144 C143 1.363 . S
C144 C150 1.428 . S
H145 C141 0.930 . S
H146 C143 0.929 . S
S147 N148 1.613 . S
S147 N149 1.610 1_655 S
N148 S147 1.613 . S
N148 C151 1.350 . S
N149 S147 1.610 1_455 S
N149 C150 1.351 1_455 S
C150 C144 1.428 . S
C150 N149 1.351 1_655 S
C150 C151 1.434 . S
C151 C142 1.429 . S
C151 N148 1.350 . S
C151 C150 1.434 . S
C152 C153 1.369 . S
C152 C154 1.419 . S
C152 H156 0.930 . S
C153 C152 1.369 . S
C153 C162 1.429 . S
C154 C152 1.419 . S
C154 C155 1.363 . S
C154 H157 0.929 . S
C155 C154 1.363 . S
C155 C161 1.428 . S
H156 C152 0.930 . S
H157 C154 0.929 . S
S158 N159 1.613 . S
S158 N160 1.610 . S
N159 S158 1.613 . S
N159 C162 1.350 . S
N160 S158 1.610 . S
N160 C161 1.351 . S
C161 C155 1.428 . S
C161 N160 1.351 . S
C161 C162 1.434 . S
C162 C153 1.429 . S
C162 N159 1.350 . S
C162 C161 1.434 . S
C163 C164 1.369 . S
C163 C165 1.419 . S
C163 H167 0.930 . S
C164 C163 1.369 . S
C164 C173 1.429 . S
C165 C163 1.419 . S
C165 C166 1.363 . S
C165 H168 0.929 . S
C166 C165 1.363 . S
C166 C172 1.428 . S
H167 C163 0.930 . S
H168 C165 0.929 . S
S169 N170 1.613 . S
S169 N171 1.610 . S
N170 S169 1.613 . S
N170 C173 1.350 . S
N171 S169 1.610 . S
N171 C172 1.351 . S
C172 C166 1.428 . S
C172 N171 1.351 . S
C172 C173 1.434 . S
C173 C164 1.429 . S
C173 N170 1.350 . S
C173 C172 1.434 . S
C174 C175 1.369 . S
C174 C176 1.419 . S
C174 H178 0.930 1_455 S
C175 C174 1.369 . S
C175 C184 1.429 1_565 S
C176 C174 1.419 . S
C176 C177 1.363 1_565 S
C176 H179 0.929 . S
C177 C176 1.363 1_545 S
C177 C183 1.428 . S
H178 C174 0.930 1_655 S
H179 C176 0.929 . S
S180 N181 1.613 . S
S180 N182 1.610 . S
N181 S180 1.613 . S
N181 C184 1.350 . S
N182 S180 1.610 . S
N182 C183 1.351 . S
C183 C177 1.428 . S
C183 N182 1.351 . S
C183 C184 1.434 . S
C184 C175 1.429 1_545 S
C184 N181 1.350 . S
C184 C183 1.434 . S
C185 C186 1.369 1_545 S
C185 C187 1.419 . S
C185 H189 0.930 . S
C186 C185 1.369 1_565 S
C186 C195 1.429 1_455 S
C187 C185 1.419 . S
C187 C188 1.363 1_455 S
C187 H190 0.929 . S
C188 C187 1.363 1_655 S
C188 C194 1.428 1_545 S
H189 C185 0.930 . S
H190 C187 0.929 . S
S191 N192 1.613 . S
S191 N193 1.610 . S
N192 S191 1.613 . S
N192 C195 1.350 . S
N193 S191 1.610 . S
N193 C194 1.351 . S
C194 C188 1.428 1_565 S
C194 N193 1.351 . S
C194 C195 1.434 . S
C195 C186 1.429 1_655 S
C195 N192 1.350 . S
C195 C194 1.434 . S
C196 C197 1.369 . S
C196 C198 1.419 . S
C196 H200 0.930 . S
C197 C196 1.369 . S
C197 C206 1.429 . S
C198 C196 1.419 . S
C198 C199 1.363 . S
C198 H201 0.929 . S
C199 C198 1.363 . S
C199 C205 1.428 . S
H200 C196 0.930 . S
H201 C198 0.929 . S
S202 N203 1.613 . S
S202 N204 1.610 . S
N203 S202 1.613 . S
N203 C206 1.350 . S
N204 S202 1.610 . S
N204 C205 1.351 . S
C205 C199 1.428 . S
C205 N204 1.351 . S
C205 C206 1.434 . S
C206 C197 1.429 . S
C206 N203 1.350 . S
C206 C205 1.434 . S
C207 C208 1.369 . S
C207 C209 1.419 . S
C207 H211 0.930 . S
C208 C207 1.369 . S
C208 C217 1.429 . S
C209 C207 1.419 . S
C209 C210 1.363 . S
C209 H212 0.929 . S
C210 C209 1.363 . S
C210 C216 1.428 . S
H211 C207 0.930 . S
H212 C209 0.929 . S
S213 N214 1.613 . S
S213 N215 1.610 . S
N214 S213 1.613 . S
N214 C217 1.350 . S
N215 S213 1.610 . S
N215 C216 1.351 . S
C216 C210 1.428 . S
C216 N215 1.351 . S
C216 C217 1.434 . S
C217 C208 1.429 . S
C217 N214 1.350 . S
C217 C216 1.434 . S
C89 C79 1.377 . S
C87 C3 1.275 . S
C98 C4 1.433 1_556 S
C100 C74 1.516 . S
C109 C19 1.448 1_554 S
C111 C85 1.534 . S
C120 C7 1.261 . S
C122 C68 1.379 . S
C131 C37 1.266 . S
C133 C57 1.377 . S
C142 C28 1.424 . S
C144 C52 1.520 . S
C155 C63 1.535 . S
C153 C41 1.447 . S
C166 C46 1.380 . S
C164 C25 1.274 . S
C175 C20 1.364 . S
C177 C47 1.513 . S
C186 C16 1.408 1_455 S
C188 C58 1.545 . S
C199 C69 1.515 . S
C197 C40 1.368 . S
C208 C24 1.413 . S
C210 C80 1.548 . S
