# Generated by pormake.
# Topology hwx, (6,3)-cn, num edge types: 1
# Building blocks:
#     Node 0, Type 0, BuildingBlock: IZENUY_clean_sbu_0, # of connection points: 6
#     Node 1, Type 0, BuildingBlock: IZENUY_clean_sbu_0, # of connection points: 6
#     Node 2, Type 0, BuildingBlock: IZENUY_clean_sbu_0, # of connection points: 6
#     Node 3, Type 0, BuildingBlock: IZENUY_clean_sbu_0, # of connection points: 6
#     Node 4, Type 1, BuildingBlock: QEWDON_clean_linker_0, # of connection points: 3
#     Node 5, Type 1, BuildingBlock: QEWDON_clean_linker_0, # of connection points: 3
#     Node 6, Type 1, BuildingBlock: QEWDON_clean_linker_0, # of connection points: 3
#     Node 7, Type 1, BuildingBlock: QEWDON_clean_linker_0, # of connection points: 3
#     Node 8, Type 1, BuildingBlock: QEWDON_clean_linker_0, # of connection points: 3
#     Node 9, Type 1, BuildingBlock: QEWDON_clean_linker_0, # of connection points: 3
#     Node 10, Type 1, BuildingBlock: QEWDON_clean_linker_0, # of connection points: 3
#     Node 11, Type 1, BuildingBlock: QEWDON_clean_linker_0, # of connection points: 3
#     Edge 12, Type (0, 1), None
#     Edge 13, Type (0, 1), None
#     Edge 14, Type (0, 1), None
#     Edge 15, Type (0, 1), None
#     Edge 16, Type (0, 1), None
#     Edge 17, Type (0, 1), None
#     Edge 18, Type (0, 1), None
#     Edge 19, Type (0, 1), None
#     Edge 20, Type (0, 1), None
#     Edge 21, Type (0, 1), None
#     Edge 22, Type (0, 1), None
#     Edge 23, Type (0, 1), None
#     Edge 24, Type (0, 1), None
#     Edge 25, Type (0, 1), None
#     Edge 26, Type (0, 1), None
#     Edge 27, Type (0, 1), None
#     Edge 28, Type (0, 1), None
#     Edge 29, Type (0, 1), None
#     Edge 30, Type (0, 1), None
#     Edge 31, Type (0, 1), None
#     Edge 32, Type (0, 1), None
#     Edge 33, Type (0, 1), None
#     Edge 34, Type (0, 1), None
#     Edge 35, Type (0, 1), None
# Relax obj value: 0.006
# Max RMSD: 0.090
# Mean RMSD: 0.080
data_MOF--net-hwx--node1-IZENUY_clean_sbu_0--node2-QEWDON_clean_linker_0--edge1-none
_symmetry_space_group_name_H-M    P1
_symmetry_Int_Tables_number       1
_symmetry_cell_setting            triclinic
loop_
_symmetry_equiv_pos_as_xyz
'x, y, z'
_cell_length_a     25.600688
_cell_length_b     25.601051
_cell_length_c     9.0227054
_cell_angle_alpha  92.286392
_cell_angle_beta   92.301041
_cell_angle_gamma 90.363134
loop_
_atom_site_label
_atom_site_type_symbol
_atom_site_fract_x
_atom_site_fract_y
_atom_site_fract_z
_atom_type_partial_charge
Fe0 Fe 0.27991 0.28592 0.16491 0.0
Fe1 Fe 0.28573 0.27652 0.82734 0.0
O2 O 0.25222 0.26396 0.99039 0.0
Fe3 Fe 0.19199 0.2285 0.97879 0.0
O4 O 0.16496 0.26326 0.13914 0.0
O5 O 0.22239 0.32479 0.20793 0.0
O6 O 0.31051 0.34474 0.09656 0.0
C7 C 0.3011 0.36988 0.98096 0.0
C8 C 0.23836 0.18675 0.22628 0.0
O9 O 0.28339 0.34688 0.8632 0.0
C10 C 0.25097 0.1764 0.75758 0.0
O11 O 0.33832 0.24687 0.13553 0.0
O12 O 0.35173 0.27314 0.91179 0.0
O13 O 0.21836 0.17699 0.09728 0.0
O14 O 0.25491 0.23195 0.26457 0.0
C15 C 0.17954 0.29152 0.74024 0.0
O16 O 0.29008 0.20667 0.77911 0.0
O17 O 0.20808 0.18773 0.81522 0.0
C18 C 0.36728 0.2504 0.02637 0.0
O19 O 0.22667 0.28271 0.7127 0.0
O20 O 0.16088 0.27697 0.86008 0.0
C21 C 0.17692 0.30504 0.21318 0.0
Fe22 Fe 0.27781 0.7938 0.6957 0.0
Fe23 Fe 0.33965 0.70963 0.52723 0.0
O24 O 0.29057 0.75871 0.52721 0.0
Fe25 Fe 0.25547 0.77147 0.35871 0.0
O26 O 0.27259 0.8397 0.37195 0.0
O27 O 0.26796 0.85772 0.61162 0.0
O28 O 0.34594 0.81332 0.72781 0.0
C29 C 0.38136 0.78061 0.75301 0.0
C30 C 0.17741 0.77473 0.57364 0.0
O31 O 0.37767 0.73582 0.6904 0.0
C32 C 0.26865 0.66792 0.30146 0.0
O33 O 0.28526 0.73524 0.80584 0.0
O34 O 0.30099 0.66986 0.64587 0.0
O35 O 0.19155 0.78131 0.44278 0.0
O36 O 0.20958 0.77668 0.68246 0.0
C37 C 0.3627 0.76432 0.28391 0.0
O38 O 0.31345 0.67162 0.36405 0.0
O39 O 0.23595 0.70334 0.32662 0.0
C40 C 0.28496 0.68657 0.77053 0.0
O41 O 0.37941 0.74829 0.40858 0.0
O42 O 0.31403 0.76404 0.24859 0.0
C43 C 0.27453 0.87186 0.48076 0.0
Fe44 Fe 0.76335 0.76945 0.88944 0.0
Fe45 Fe 0.77278 0.76363 0.22702 0.0
O46 O 0.78532 0.79713 0.06396 0.0
Fe47 Fe 0.82077 0.85737 0.07554 0.0
O48 O 0.78601 0.88439 0.91514 0.0
O49 O 0.72447 0.82696 0.84639 0.0
O50 O 0.70454 0.73884 0.9578 0.0
C51 C 0.67941 0.74824 0.07341 0.0
C52 C 0.86252 0.811 0.82809 0.0
O53 O 0.70242 0.76595 0.19115 0.0
C54 C 0.87289 0.79839 0.29681 0.0
O55 O 0.80241 0.71105 0.91886 0.0
O56 O 0.77617 0.69762 0.1426 0.0
O57 O 0.87229 0.83101 0.95709 0.0
O58 O 0.81731 0.79446 0.78978 0.0
C59 C 0.75777 0.86981 0.31405 0.0
O60 O 0.84263 0.75929 0.27527 0.0
O61 O 0.86156 0.84129 0.23913 0.0
C62 C 0.79889 0.68209 0.02803 0.0
O63 O 0.76659 0.82268 0.34163 0.0
O64 O 0.77231 0.88847 0.1942 0.0
C65 C 0.74422 0.87244 0.84111 0.0
Fe66 Fe 0.70572 0.34368 0.5272 0.0
Fe67 Fe 0.78715 0.27819 0.69448 0.0
O68 O 0.75492 0.29444 0.52721 0.0
Fe69 Fe 0.77114 0.26222 0.35994 0.0
O70 O 0.76134 0.32067 0.25382 0.0
O71 O 0.74525 0.38566 0.41178 0.0
O72 O 0.7327 0.38007 0.69344 0.0
C73 C 0.77845 0.38243 0.75195 0.0
C74 C 0.6669 0.27099 0.30246 0.0
O75 O 0.8095 0.34533 0.72784 0.0
C76 C 0.7764 0.18025 0.56447 0.0
O77 O 0.66372 0.30417 0.64261 0.0
O78 O 0.7287 0.28802 0.8006 0.0
O79 O 0.70398 0.23991 0.32658 0.0
O80 O 0.66929 0.31673 0.36096 0.0
C81 C 0.86909 0.27289 0.48994 0.0
O82 O 0.7673 0.21019 0.67422 0.0
O83 O 0.78555 0.19866 0.44005 0.0
C84 C 0.68012 0.28708 0.76623 0.0
O85 O 0.85069 0.26375 0.61436 0.0
O86 O 0.83915 0.28203 0.38019 0.0
C87 C 0.76233 0.36924 0.28819 0.0
H88 H 0.2922 0.56542 0.23872 0.0
C89 C 0.28418 0.58759 0.14056 0.0
C90 C 0.2658 0.63917 0.15565 0.0
C91 C 0.29692 0.56645 1.00018 0.0
H92 H 0.24836 0.70941 0.04136 0.0
C93 C 0.2599 0.66885 0.02853 0.0
C94 C 0.27634 0.64959 0.88993 0.0
C95 C 0.29285 0.59761 0.87574 0.0
C96 C 0.32488 0.51633 0.98639 0.0
H97 H 0.30655 0.58242 0.77041 0.0
C98 C 0.29872 0.468 0.99325 0.0
C99 C 0.32636 0.42116 0.97115 0.0
C100 C 0.37848 0.51729 0.95859 0.0
H101 H 0.39913 0.55418 0.95228 0.0
C102 C 0.40583 0.47081 0.93829 0.0
H103 H 0.25734 0.46687 0.01414 0.0
C104 C 0.37995 0.42293 0.94455 0.0
H105 H 0.40179 0.38712 0.92885 0.0
H106 H 0.44715 0.4719 0.91732 0.0
H107 H 0.97575 0.76939 0.35579 0.0
C108 C 0.95572 0.78354 0.45291 0.0
C109 C 0.90423 0.80153 0.43763 0.0
C110 C 0.98 0.78078 0.59573 0.0
H111 H 0.8385 0.83196 0.55069 0.0
C112 C 0.87834 0.81828 0.5638 0.0
C113 C 0.89991 0.81174 0.70706 0.0
C114 C 0.95147 0.79411 0.72299 0.0
C115 C 0.03083 0.7543 0.61417 0.0
H116 H 0.968 0.78707 0.83284 0.0
C117 C 0.07805 0.7769 0.57028 0.0
C118 C 0.12581 0.75136 0.59939 0.0
C119 C 0.03172 0.7057 0.681 0.0
H120 H 0.99582 0.68771 0.71433 0.0
C121 C 0.07873 0.67993 0.70584 0.0
H122 H 0.07781 0.81473 0.52053 0.0
C123 C 0.12544 0.70271 0.66662 0.0
H124 H 0.16167 0.68236 0.68998 0.0
H125 H 0.07907 0.64251 0.75764 0.0
H126 H 0.80621 0.48494 0.81922 0.0
C127 C 0.79719 0.46305 0.91559 0.0
C128 C 0.78434 0.41023 0.89759 0.0
C129 C 0.80194 0.48681 0.0591 0.0
H130 H 0.76818 0.34054 1.0048 0.0
C131 C 0.7752 0.38178 0.02207 0.0
C132 C 0.77497 0.40475 0.166 0.0
C133 C 0.78943 0.45808 0.18491 0.0
C134 C 0.82812 0.53844 0.07297 0.0
H135 H 0.79328 0.47626 0.29532 0.0
C136 C 0.79998 0.58488 0.05312 0.0
C137 C 0.82681 0.63218 0.033 0.0
C138 C 0.88299 0.54006 0.07657 0.0
H139 H 0.90528 0.50452 0.08847 0.0
C140 C 0.9095 0.58697 0.05745 0.0
H141 H 0.7576 0.58399 0.04934 0.0
C142 C 0.8816 0.63275 0.03418 0.0
H143 H 0.90281 0.66897 0.02138 0.0
H144 H 0.9518 0.58773 0.05914 0.0
H145 H 0.0735 0.2784 0.69804 0.0
C146 C 0.09214 0.2933 0.60236 0.0
C147 C 0.14545 0.30698 0.61237 0.0
C148 C 0.06499 0.29117 0.46366 0.0
H149 H 0.21157 0.33135 0.48929 0.0
C150 C 0.16998 0.32279 0.48368 0.0
C151 C 0.14466 0.31686 0.34349 0.0
C152 C 0.09138 0.30316 0.33536 0.0
C153 C 1.01558 0.26118 0.44528 0.0
H154 H 0.07199 0.2957 0.22735 0.0
C155 C 0.96716 0.28252 0.48417 0.0
C156 C 0.92114 0.2526 0.45786 0.0
C157 C 1.01756 0.20994 0.38399 0.0
H158 H 0.05456 0.19292 0.35425 0.0
C159 C 0.97204 0.18029 0.36002 0.0
H160 H 0.96523 0.32206 0.53108 0.0
C161 C 0.92406 0.20155 0.39586 0.0
H162 H 0.889 0.17804 0.37489 0.0
H163 H 0.97391 0.14088 0.31254 0.0
H164 H 0.7709 0.97585 0.35624 0.0
C165 C 0.75598 0.9572 0.4519 0.0
C166 C 0.74231 0.9039 0.44189 0.0
C167 C 0.7581 0.98436 0.59059 0.0
H168 H 0.71794 0.83777 0.56499 0.0
C169 C 0.72649 0.87936 0.57058 0.0
C170 C 0.7324 0.90469 0.71076 0.0
C171 C 0.74608 0.95796 0.71887 0.0
C172 C 0.78809 0.03376 0.60902 0.0
H173 H 0.75352 0.97735 0.82688 0.0
C174 C 0.76677 0.08219 0.57015 0.0
C175 C 0.79668 0.12821 0.59661 0.0
C176 C 0.83933 0.03176 0.67043 0.0
H177 H 0.85633 0.99475 0.70017 0.0
C178 C 0.86897 0.07728 0.69455 0.0
H179 H 0.72723 0.08412 0.52314 0.0
C180 C 0.84772 0.12527 0.65874 0.0
H181 H 0.87123 0.16032 0.67982 0.0
H182 H 0.90837 0.0754 0.74213 0.0
H183 H 0.56441 0.24316 0.23508 0.0
C184 C 0.5863 0.25219 0.13873 0.0
C185 C 0.63911 0.26508 0.15679 0.0
C186 C 0.56255 0.24742 0.9952 0.0
H187 H 0.70878 0.28134 0.04965 0.0
C188 C 0.66756 0.27426 0.03234 0.0
C189 C 0.6446 0.27444 0.88838 0.0
C190 C 0.59129 0.25994 0.86941 0.0
C191 C 0.51093 0.22123 0.98131 0.0
H192 H 0.57312 0.25607 0.75898 0.0
C193 C 0.46448 0.24935 1.00124 0.0
C194 C 0.4172 0.22251 0.02139 0.0
C195 C 0.50932 0.16635 0.97765 0.0
H196 H 0.54487 0.14408 0.96569 0.0
C197 C 0.46242 0.13983 0.9968 0.0
H198 H 0.46537 0.29173 1.00507 0.0
C199 C 0.41664 0.16771 0.02015 0.0
H200 H 0.38043 0.14649 0.03296 0.0
H201 H 0.46167 0.09753 0.99506 0.0
H202 H 0.27997 0.07353 0.6987 0.0
C203 C 0.26583 0.09357 0.60156 0.0
C204 C 0.24784 0.14506 0.61678 0.0
C205 C 0.26857 0.06928 0.45876 0.0
H206 H 0.21741 0.21078 0.50365 0.0
C207 C 0.23108 0.17095 0.49058 0.0
C208 C 0.23762 0.14937 0.34734 0.0
C209 C 0.25523 0.0978 0.33147 0.0
C210 C 0.29503 1.01844 0.44035 0.0
H211 H 0.26226 0.08127 0.22163 0.0
C212 C 0.27241 0.97122 0.48416 0.0
C213 C 0.29792 0.92346 0.45502 0.0
C214 C 0.34364 1.01754 0.37357 0.0
H215 H 0.36165 0.05344 0.3403 0.0
C216 C 0.36938 0.97052 0.3487 0.0
H217 H 0.23457 0.97148 0.53388 0.0
C218 C 0.34657 0.92382 0.38783 0.0
H219 H 0.36691 0.88758 0.36447 0.0
H220 H 0.40681 0.97018 0.29694 0.0
H221 H 0.48387 0.75712 0.81584 0.0
C222 C 0.4617 0.76513 0.91398 0.0
C223 C 0.41011 0.7835 0.89883 0.0
C224 C 0.48284 0.75239 0.05437 0.0
H225 H 0.33986 0.80091 0.01304 0.0
C226 C 0.38042 0.78938 0.02591 0.0
C227 C 0.39969 0.77295 0.16454 0.0
C228 C 0.45167 0.75644 0.17879 0.0
C229 C 0.53297 0.72444 0.0682 0.0
H230 H 0.46685 0.74275 0.28413 0.0
C231 C 0.58129 0.7506 0.06119 0.0
C232 C 0.62813 0.72297 0.08326 0.0
C233 C 0.53202 0.67084 0.09611 0.0
H234 H 0.49513 0.6502 0.10252 0.0
C235 C 0.57851 0.64351 0.11637 0.0
H236 H 0.5824 0.79198 0.04023 0.0
C237 C 0.62639 0.66938 0.10997 0.0
H238 H 0.6622 0.64755 0.12566 0.0
H239 H 0.57743 0.60219 0.13742 0.0
loop_
_geom_bond_atom_site_label_1
_geom_bond_atom_site_label_2
_geom_bond_distance
_geom_bond_site_symmetry_2
_ccdc_geom_bond_type
Fe0 O2 1.918 . S
Fe0 O5 1.997 . S
Fe0 O6 2.002 . S
Fe0 O11 1.976 . S
Fe0 O14 1.996 . S
Fe1 O2 1.918 1_556 S
Fe1 O9 1.997 . S
Fe1 O12 1.996 . S
Fe1 O16 1.976 . S
Fe1 O19 2.002 . S
O2 Fe0 1.918 . S
O2 Fe1 1.918 1_554 S
O2 Fe3 1.918 1_554 S
Fe3 O2 1.918 1_556 S
Fe3 O4 2.002 1_556 S
Fe3 O13 1.976 1_556 S
Fe3 O17 1.996 . S
Fe3 O20 1.997 . S
O4 Fe3 2.002 1_554 S
O4 C21 1.295 . S
O5 Fe0 1.997 . S
O5 C21 1.235 . S
O6 Fe0 2.002 . S
O6 C7 1.295 . S
C7 O6 1.295 . S
C7 O9 1.235 1_554 S
C8 O13 1.287 . S
C8 O14 1.255 . S
O9 Fe1 1.997 . S
O9 C7 1.235 1_556 S
C10 O16 1.287 . S
C10 O17 1.255 . S
O11 Fe0 1.976 . S
O11 C18 1.287 . S
O12 Fe1 1.996 . S
O12 C18 1.255 1_556 S
O13 Fe3 1.976 1_554 S
O13 C8 1.287 . S
O14 Fe0 1.996 . S
O14 C8 1.255 . S
C15 O19 1.295 . S
C15 O20 1.235 . S
O16 Fe1 1.976 . S
O16 C10 1.287 . S
O17 Fe3 1.996 . S
O17 C10 1.255 . S
C18 O11 1.287 . S
C18 O12 1.255 1_554 S
O19 Fe1 2.002 . S
O19 C15 1.295 . S
O20 Fe3 1.997 . S
O20 C15 1.235 . S
C21 O4 1.295 . S
C21 O5 1.235 . S
Fe22 O24 1.918 . S
Fe22 O27 1.997 . S
Fe22 O28 2.002 . S
Fe22 O33 1.976 . S
Fe22 O36 1.996 . S
Fe23 O24 1.918 . S
Fe23 O31 1.997 . S
Fe23 O34 1.996 . S
Fe23 O38 1.976 . S
Fe23 O41 2.002 . S
O24 Fe22 1.918 . S
O24 Fe23 1.918 . S
O24 Fe25 1.918 . S
Fe25 O24 1.918 . S
Fe25 O26 2.002 . S
Fe25 O35 1.976 . S
Fe25 O39 1.996 . S
Fe25 O42 1.997 . S
O26 Fe25 2.002 . S
O26 C43 1.295 . S
O27 Fe22 1.997 . S
O27 C43 1.235 . S
O28 Fe22 2.002 . S
O28 C29 1.295 . S
C29 O28 1.295 . S
C29 O31 1.235 . S
C30 O35 1.287 . S
C30 O36 1.255 . S
O31 Fe23 1.997 . S
O31 C29 1.235 . S
C32 O38 1.287 . S
C32 O39 1.255 . S
O33 Fe22 1.976 . S
O33 C40 1.287 . S
O34 Fe23 1.996 . S
O34 C40 1.255 . S
O35 Fe25 1.976 . S
O35 C30 1.287 . S
O36 Fe22 1.996 . S
O36 C30 1.255 . S
C37 O41 1.295 . S
C37 O42 1.235 . S
O38 Fe23 1.976 . S
O38 C32 1.287 . S
O39 Fe25 1.996 . S
O39 C32 1.255 . S
C40 O33 1.287 . S
C40 O34 1.255 . S
O41 Fe23 2.002 . S
O41 C37 1.295 . S
O42 Fe25 1.997 . S
O42 C37 1.235 . S
C43 O26 1.295 . S
C43 O27 1.235 . S
Fe44 O46 1.918 1_556 S
Fe44 O49 1.997 . S
Fe44 O50 2.002 . S
Fe44 O55 1.976 . S
Fe44 O58 1.996 . S
Fe45 O46 1.918 . S
Fe45 O53 1.997 . S
Fe45 O56 1.996 . S
Fe45 O60 1.976 . S
Fe45 O63 2.002 . S
O46 Fe44 1.918 1_554 S
O46 Fe45 1.918 . S
O46 Fe47 1.918 . S
Fe47 O46 1.918 . S
Fe47 O48 2.002 1_554 S
Fe47 O57 1.976 1_554 S
Fe47 O61 1.996 . S
Fe47 O64 1.997 . S
O48 Fe47 2.002 1_556 S
O48 C65 1.295 . S
O49 Fe44 1.997 . S
O49 C65 1.235 . S
O50 Fe44 2.002 . S
O50 C51 1.295 1_556 S
C51 O50 1.295 1_554 S
C51 O53 1.235 . S
C52 O57 1.287 . S
C52 O58 1.255 . S
O53 Fe45 1.997 . S
O53 C51 1.235 . S
C54 O60 1.287 . S
C54 O61 1.255 . S
O55 Fe44 1.976 . S
O55 C62 1.287 1_556 S
O56 Fe45 1.996 . S
O56 C62 1.255 . S
O57 Fe47 1.976 1_556 S
O57 C52 1.287 . S
O58 Fe44 1.996 . S
O58 C52 1.255 . S
C59 O63 1.295 . S
C59 O64 1.235 . S
O60 Fe45 1.976 . S
O60 C54 1.287 . S
O61 Fe47 1.996 . S
O61 C54 1.255 . S
C62 O55 1.287 1_554 S
C62 O56 1.255 . S
O63 Fe45 2.002 . S
O63 C59 1.295 . S
O64 Fe47 1.997 . S
O64 C59 1.235 . S
C65 O48 1.295 . S
C65 O49 1.235 . S
Fe66 O68 1.918 . S
Fe66 O71 1.997 . S
Fe66 O72 2.002 . S
Fe66 O77 1.976 . S
Fe66 O80 1.996 . S
Fe67 O68 1.918 . S
Fe67 O75 1.997 . S
Fe67 O78 1.996 . S
Fe67 O82 1.976 . S
Fe67 O85 2.002 . S
O68 Fe66 1.918 . S
O68 Fe67 1.918 . S
O68 Fe69 1.918 . S
Fe69 O68 1.918 . S
Fe69 O70 2.002 . S
Fe69 O79 1.976 . S
Fe69 O83 1.996 . S
Fe69 O86 1.997 . S
O70 Fe69 2.002 . S
O70 C87 1.295 . S
O71 Fe66 1.997 . S
O71 C87 1.235 . S
O72 Fe66 2.002 . S
O72 C73 1.295 . S
C73 O72 1.295 . S
C73 O75 1.235 . S
C74 O79 1.287 . S
C74 O80 1.255 . S
O75 Fe67 1.997 . S
O75 C73 1.235 . S
C76 O82 1.287 . S
C76 O83 1.255 . S
O77 Fe66 1.976 . S
O77 C84 1.287 . S
O78 Fe67 1.996 . S
O78 C84 1.255 . S
O79 Fe69 1.976 . S
O79 C74 1.287 . S
O80 Fe66 1.996 . S
O80 C74 1.255 . S
C81 O85 1.295 . S
C81 O86 1.235 . S
O82 Fe67 1.976 . S
O82 C76 1.287 . S
O83 Fe69 1.996 . S
O83 C76 1.255 . S
C84 O77 1.287 . S
C84 O78 1.255 . S
O85 Fe67 2.002 . S
O85 C81 1.295 . S
O86 Fe69 1.997 . S
O86 C81 1.235 . S
C87 O70 1.295 . S
C87 O71 1.235 . S
H88 C89 0.949 . S
C89 H88 0.949 . S
C89 C90 1.395 . S
C89 C91 1.391 1_554 S
C90 C89 1.395 . S
C90 C93 1.390 . S
C91 C89 1.391 1_556 S
C91 C95 1.387 . S
C91 C96 1.491 . S
H92 C93 0.950 . S
C93 C90 1.390 . S
C93 H92 0.950 . S
C93 C94 1.378 1_554 S
C94 C93 1.378 1_556 S
C94 C95 1.409 . S
C95 C91 1.387 . S
C95 C94 1.409 . S
C95 H97 0.951 . S
C96 C91 1.491 . S
C96 C98 1.382 1_556 S
C96 C100 1.404 . S
H97 C95 0.951 . S
C98 C96 1.382 1_554 S
C98 C99 1.390 1_554 S
C98 H103 0.949 . S
C99 C98 1.390 1_556 S
C99 C104 1.399 . S
C100 C96 1.404 . S
C100 H101 0.950 . S
C100 C102 1.375 . S
H101 C100 0.950 . S
C102 C100 1.375 . S
C102 C104 1.382 . S
C102 H106 0.950 . S
H103 C98 0.949 . S
C104 C99 1.399 . S
C104 C102 1.382 . S
C104 H105 0.952 . S
H105 C104 0.952 . S
H106 C102 0.950 . S
H107 C108 0.949 . S
C108 H107 0.949 . S
C108 C109 1.395 . S
C108 C110 1.391 . S
C109 C108 1.395 . S
C109 C112 1.390 . S
C110 C108 1.391 . S
C110 C114 1.387 . S
C110 C115 1.491 1_655 S
H111 C112 0.950 . S
C112 C109 1.390 . S
C112 H111 0.950 . S
C112 C113 1.378 . S
C113 C112 1.378 . S
C113 C114 1.409 . S
C114 C110 1.387 . S
C114 C113 1.409 . S
C114 H116 0.951 . S
C115 C110 1.491 1_455 S
C115 C117 1.382 . S
C115 C119 1.404 . S
H116 C114 0.951 . S
C117 C115 1.382 . S
C117 C118 1.390 . S
C117 H122 0.949 . S
C118 C117 1.390 . S
C118 C123 1.399 . S
C119 C115 1.404 . S
C119 H120 0.950 . S
C119 C121 1.375 . S
H120 C119 0.950 . S
C121 C119 1.375 . S
C121 C123 1.382 . S
C121 H125 0.950 . S
H122 C117 0.949 . S
C123 C118 1.399 . S
C123 C121 1.382 . S
C123 H124 0.952 . S
H124 C123 0.952 . S
H125 C121 0.950 . S
H126 C127 0.949 . S
C127 H126 0.949 . S
C127 C128 1.395 . S
C127 C129 1.391 1_556 S
C128 C127 1.395 . S
C128 C131 1.390 1_556 S
C129 C127 1.391 1_554 S
C129 C133 1.387 . S
C129 C134 1.491 . S
H130 C131 0.950 1_556 S
C131 C128 1.390 1_554 S
C131 H130 0.950 1_554 S
C131 C132 1.378 . S
C132 C131 1.378 . S
C132 C133 1.409 . S
C133 C129 1.387 . S
C133 C132 1.409 . S
C133 H135 0.951 . S
C134 C129 1.491 . S
C134 C136 1.382 . S
C134 C138 1.404 . S
H135 C133 0.951 . S
C136 C134 1.382 . S
C136 C137 1.390 . S
C136 H141 0.949 1_554 S
C137 C136 1.390 . S
C137 C142 1.399 . S
C138 C134 1.404 . S
C138 H139 0.950 . S
C138 C140 1.375 . S
H139 C138 0.950 . S
C140 C138 1.375 . S
C140 C142 1.382 . S
C140 H144 0.950 . S
H141 C136 0.949 1_556 S
C142 C137 1.399 . S
C142 C140 1.382 . S
C142 H143 0.952 . S
H143 C142 0.952 . S
H144 C140 0.950 . S
H145 C146 0.949 . S
C146 H145 0.949 . S
C146 C147 1.395 . S
C146 C148 1.391 . S
C147 C146 1.395 . S
C147 C150 1.390 . S
C148 C146 1.391 . S
C148 C152 1.387 . S
C148 C153 1.491 1_455 S
H149 C150 0.950 . S
C150 C147 1.390 . S
C150 H149 0.950 . S
C150 C151 1.378 . S
C151 C150 1.378 . S
C151 C152 1.409 . S
C152 C148 1.387 . S
C152 C151 1.409 . S
C152 H154 0.951 . S
C153 C148 1.491 1_655 S
C153 C155 1.382 . S
C153 C157 1.404 . S
H154 C152 0.951 . S
C155 C153 1.382 . S
C155 C156 1.390 . S
C155 H160 0.949 . S
C156 C155 1.390 . S
C156 C161 1.399 . S
C157 C153 1.404 . S
C157 H158 0.950 . S
C157 C159 1.375 . S
H158 C157 0.950 . S
C159 C157 1.375 . S
C159 C161 1.382 . S
C159 H163 0.950 . S
H160 C155 0.949 . S
C161 C156 1.399 . S
C161 C159 1.382 . S
C161 H162 0.952 . S
H162 C161 0.952 . S
H163 C159 0.950 . S
H164 C165 0.949 . S
C165 H164 0.949 . S
C165 C166 1.395 . S
C165 C167 1.391 . S
C166 C165 1.395 . S
C166 C169 1.390 . S
C167 C165 1.391 . S
C167 C171 1.387 . S
C167 C172 1.491 1_565 S
H168 C169 0.950 . S
C169 C166 1.390 . S
C169 H168 0.950 . S
C169 C170 1.378 . S
C170 C169 1.378 . S
C170 C171 1.409 . S
C171 C167 1.387 . S
C171 C170 1.409 . S
C171 H173 0.951 . S
C172 C167 1.491 1_545 S
C172 C174 1.382 . S
C172 C176 1.404 . S
H173 C171 0.951 . S
C174 C172 1.382 . S
C174 C175 1.390 . S
C174 H179 0.949 . S
C175 C174 1.390 . S
C175 C180 1.399 . S
C176 C172 1.404 . S
C176 H177 0.950 . S
C176 C178 1.375 . S
H177 C176 0.950 . S
C178 C176 1.375 . S
C178 C180 1.382 . S
C178 H182 0.950 . S
H179 C174 0.949 . S
C180 C175 1.399 . S
C180 C178 1.382 . S
C180 H181 0.952 . S
H181 C180 0.952 . S
H182 C178 0.950 . S
H183 C184 0.949 . S
C184 H183 0.949 . S
C184 C185 1.395 . S
C184 C186 1.391 1_554 S
C185 C184 1.395 . S
C185 C188 1.390 . S
C186 C184 1.391 1_556 S
C186 C190 1.387 . S
C186 C191 1.491 . S
H187 C188 0.950 . S
C188 C185 1.390 . S
C188 H187 0.950 . S
C188 C189 1.378 1_554 S
C189 C188 1.378 1_556 S
C189 C190 1.409 . S
C190 C186 1.387 . S
C190 C189 1.409 . S
C190 H192 0.951 . S
C191 C186 1.491 . S
C191 C193 1.382 1_556 S
C191 C195 1.404 . S
H192 C190 0.951 . S
C193 C191 1.382 1_554 S
C193 C194 1.390 1_554 S
C193 H198 0.949 . S
C194 C193 1.390 1_556 S
C194 C199 1.399 . S
C195 C191 1.404 . S
C195 H196 0.950 . S
C195 C197 1.375 . S
H196 C195 0.950 . S
C197 C195 1.375 . S
C197 C199 1.382 . S
C197 H201 0.950 . S
H198 C193 0.949 . S
C199 C194 1.399 . S
C199 C197 1.382 . S
C199 H200 0.952 . S
H200 C199 0.952 . S
H201 C197 0.950 . S
H202 C203 0.949 . S
C203 H202 0.949 . S
C203 C204 1.395 . S
C203 C205 1.391 . S
C204 C203 1.395 . S
C204 C207 1.390 . S
C205 C203 1.391 . S
C205 C209 1.387 . S
C205 C210 1.491 1_545 S
H206 C207 0.950 . S
C207 C204 1.390 . S
C207 H206 0.950 . S
C207 C208 1.378 . S
C208 C207 1.378 . S
C208 C209 1.409 . S
C209 C205 1.387 . S
C209 C208 1.409 . S
C209 H211 0.951 . S
C210 C205 1.491 1_565 S
C210 C212 1.382 . S
C210 C214 1.404 . S
H211 C209 0.951 . S
C212 C210 1.382 . S
C212 C213 1.390 . S
C212 H217 0.949 . S
C213 C212 1.390 . S
C213 C218 1.399 . S
C214 C210 1.404 . S
C214 H215 0.950 . S
C214 C216 1.375 . S
H215 C214 0.950 . S
C216 C214 1.375 . S
C216 C218 1.382 . S
C216 H220 0.950 . S
H217 C212 0.949 . S
C218 C213 1.399 . S
C218 C216 1.382 . S
C218 H219 0.952 . S
H219 C218 0.952 . S
H220 C216 0.950 . S
H221 C222 0.949 . S
C222 H221 0.949 . S
C222 C223 1.395 . S
C222 C224 1.391 1_556 S
C223 C222 1.395 . S
C223 C226 1.390 1_556 S
C224 C222 1.391 1_554 S
C224 C228 1.387 . S
C224 C229 1.491 . S
H225 C226 0.951 . S
C226 C223 1.390 1_554 S
C226 H225 0.951 . S
C226 C227 1.378 . S
C227 C226 1.378 . S
C227 C228 1.409 . S
C228 C224 1.387 . S
C228 C227 1.409 . S
C228 H230 0.951 . S
C229 C224 1.491 . S
C229 C231 1.382 . S
C229 C233 1.404 . S
H230 C228 0.951 . S
C231 C229 1.382 . S
C231 C232 1.390 . S
C231 H236 0.949 1_554 S
C232 C231 1.390 . S
C232 C237 1.399 . S
C233 C229 1.404 . S
C233 H234 0.950 . S
C233 C235 1.375 . S
H234 C233 0.950 . S
C235 C233 1.375 . S
C235 C237 1.382 . S
C235 H239 0.950 . S
H236 C231 0.949 1_556 S
C237 C232 1.399 . S
C237 C235 1.382 . S
C237 H238 0.952 . S
H238 C237 0.952 . S
H239 C235 0.950 . S
C21 C151 1.517 . S
C40 C94 1.513 . S
C109 C54 1.482 . S
C73 C128 1.487 . S
C185 C74 1.434 . S
C204 C10 1.515 . S
C227 C37 1.568 . S
C170 C65 1.498 . S
C52 C113 1.442 . S
C87 C132 1.535 . S
C15 C147 1.553 . S
C90 C32 1.448 . S
C29 C223 1.496 . S
C166 C59 1.527 . S
C189 C84 1.476 . S
C8 C208 1.462 . S
C99 C7 1.305 1_556 S
C118 C30 1.380 . S
C62 C137 1.432 . S
C81 C156 1.325 . S
C175 C76 1.311 . S
C18 C194 1.372 1_554 S
C43 C213 1.431 . S
C51 C232 1.310 . S
