# Generated by pormake.
# Topology scu, (8,4)-cn, num edge types: 1
# Building blocks:
#     Node 0, Type 0, BuildingBlock: TAGTUT_clean_sbu_3, # of connection points: 8
#     Node 1, Type 1, BuildingBlock: IZENUY_clean_linker_0, # of connection points: 4
#     Node 2, Type 1, BuildingBlock: IZENUY_clean_linker_0, # of connection points: 4
#     Edge 3, Type (0, 1), BuildingBlock: FUNLAD_clean_linker_0, # of connection points: 2
#     Edge 4, Type (0, 1), BuildingBlock: FUNLAD_clean_linker_0, # of connection points: 2
#     Edge 5, Type (0, 1), BuildingBlock: FUNLAD_clean_linker_0, # of connection points: 2
#     Edge 6, Type (0, 1), BuildingBlock: FUNLAD_clean_linker_0, # of connection points: 2
#     Edge 7, Type (0, 1), BuildingBlock: FUNLAD_clean_linker_0, # of connection points: 2
#     Edge 8, Type (0, 1), BuildingBlock: FUNLAD_clean_linker_0, # of connection points: 2
#     Edge 9, Type (0, 1), BuildingBlock: FUNLAD_clean_linker_0, # of connection points: 2
#     Edge 10, Type (0, 1), BuildingBlock: FUNLAD_clean_linker_0, # of connection points: 2
# Relax obj value: 0.054
# Max RMSD: 0.180
# Mean RMSD: 0.142
data_MOF--net-scu--node1-TAGTUT_clean_sbu_3--node2-IZENUY_clean_linker_0--edge1-FUNLAD_clean_linker_0
_symmetry_space_group_name_H-M    P1
_symmetry_Int_Tables_number       1
_symmetry_cell_setting            triclinic
loop_
_symmetry_equiv_pos_as_xyz
'x, y, z'
_cell_length_a     33.153531
_cell_length_b     29.327039
_cell_length_c     23.812624
_cell_angle_alpha  91.34964
_cell_angle_beta   89.642482
_cell_angle_gamma 89.920703
loop_
_atom_site_label
_atom_site_type_symbol
_atom_site_fract_x
_atom_site_fract_y
_atom_site_fract_z
_atom_type_partial_charge
C0 C 1.03659 0.94983 0.0214 0.0
C1 C 0.89005 1.02441 0.00779 0.0
C2 C 0.93293 0.065 0.84573 0.0
Mg3 Mg 0.12056 0.98238 -0.03614 0.0
Mg4 Mg 0.13564 0.09099 0.93959 0.0
O5 O 0.10313 0.03951 0.92545 0.0
Mg6 Mg 1.04521 0.04198 -0.05019 0.0
O7 O 0.98744 0.04001 -0.02571 0.0
Mg8 Mg 0.9695 0.98381 0.93151 0.0
Mg9 Mg 0.95548 0.09239 -0.03448 0.0
C10 C 0.05898 0.13738 0.8837 0.0
O11 O 0.05413 0.09941 0.01569 0.0
O12 O 0.18119 0.9894 0.91247 0.0
O13 O 0.99627 0.13982 0.00895 0.0
O14 O 0.1498 1.02086 0.0384 0.0
O15 O 0.18753 0.06438 0.89541 0.0
O16 O 0.15272 0.09583 0.02665 0.0
O17 O 1.03158 0.98524 0.88568 0.0
O18 O 0.08833 0.94434 0.89217 0.0
C19 C 0.05316 0.95049 0.8715 0.0
C20 C 0.2003 1.02312 0.89085 0.0
O21 O 1.03681 0.10177 0.88974 0.0
O22 O 0.909 0.99082 -0.01645 0.0
O23 O 0.09492 0.14084 0.90347 0.0
O24 O 0.94093 1.02439 0.86043 0.0
O25 O 0.90308 0.06555 0.0066 0.0
O26 O 0.93934 0.09928 0.87841 0.0
O27 O 0.05829 0.98424 0.00878 0.0
O28 O 1.00127 0.94423 0.00065 0.0
C29 C 0.15864 0.06093 0.05642 0.0
C30 C 1.03228 0.13463 0.02781 0.0
H31 H 0.07545 0.47925 0.37776 0.0
H32 H 0.0541 0.46622 0.55525 0.0
H33 H 0.06604 0.34662 0.44755 0.0
H34 H 0.05318 0.60534 0.52687 0.0
H35 H 0.07866 0.60533 0.34986 0.0
H36 H 0.0565 0.73197 0.4385 0.0
N37 N 0.06237 0.52663 0.47486 0.0
N38 N 0.06763 0.55184 0.43401 0.0
C39 C 0.07107 0.45819 0.41406 0.0
C40 C 0.07243 0.41074 0.407 0.0
C41 C 0.06427 0.47842 0.46756 0.0
C42 C 0.05892 0.45053 0.51411 0.0
C43 C 0.06024 0.40269 0.50757 0.0
C44 C 0.06668 0.38335 0.45369 0.0
C45 C 0.05713 0.62396 0.48851 0.0
C46 C 0.05447 0.67195 0.48949 0.0
C47 C 0.06551 0.60005 0.43779 0.0
C48 C 0.07171 0.62407 0.38851 0.0
C49 C 0.06927 0.67171 0.38871 0.0
C50 C 0.06014 0.69527 0.43907 0.0
H51 H 0.59612 0.99096 0.37001 0.0
H52 H 0.61592 0.0308 0.54293 0.0
H53 H 0.71682 1.00872 0.43111 0.0
H54 H 0.49633 0.99029 0.52923 0.0
H55 H 0.4761 0.02922 0.35834 0.0
H56 H 0.37542 1.00529 0.46848 0.0
N57 N 0.55891 1.01208 0.46932 0.0
N58 N 0.5333 1.01179 0.43111 0.0
C59 C 0.61649 0.99972 0.40396 0.0
C60 C 0.65837 0.99747 0.39461 0.0
C61 C 0.60106 1.0117 0.45771 0.0
C62 C 0.62787 1.02211 0.50158 0.0
C63 C 0.6698 1.02092 0.49246 0.0
C64 C 0.68456 1.00863 0.43887 0.0
C65 C 0.47586 0.99849 0.49565 0.0
C66 C 0.434 0.99541 0.50468 0.0
C67 C 0.49116 1.01062 0.44259 0.0
C68 C 0.46424 1.02037 0.39917 0.0
C69 C 0.42234 1.01832 0.40805 0.0
C70 C 0.4077 1.00586 0.46088 0.0
C71 C 1.03047 0.21343 0.07017 0.0
C72 C 0.0486 0.17014 0.06637 0.0
C73 C 1.04371 0.24588 0.10969 0.0
C74 C 0.07555 0.23573 0.14622 0.0
C75 C 0.09429 0.19285 0.1414 0.0
C76 C 0.08109 0.16044 0.10176 0.0
C77 C 0.08678 0.26669 0.19377 0.0
C78 C 0.07904 0.31184 0.19533 0.0
C79 C 0.08234 0.34034 0.24748 0.0
C80 C 0.05752 0.379 0.25367 0.0
C81 C 0.05549 0.4032 0.30485 0.0
C82 C 0.0784 0.38918 0.35073 0.0
H83 H 0.12837 0.30014 0.28853 0.0
C84 C 0.10524 0.3524 0.34349 0.0
C85 C 0.10745 0.32838 0.29228 0.0
H86 H 0.12399 0.34167 0.37788 0.0
H87 H 1.00537 0.22198 0.04346 0.0
H88 H 1.02757 0.2779 0.11294 0.0
H89 H 0.11855 0.18392 0.16941 0.0
H90 H 0.09533 0.12721 0.10046 0.0
H91 H 0.09964 0.25058 0.23009 0.0
H92 H 0.06631 0.32785 0.15882 0.0
H93 H 1.03819 0.38927 0.21967 0.0
H94 H 1.03458 0.43149 0.3093 0.0
C95 C 0.84108 0.97219 0.05625 0.0
C96 C 0.85219 1.01614 0.03958 0.0
C97 C 0.8071 0.96593 0.09066 0.0
C98 C 0.78355 1.00362 0.10891 0.0
C99 C 0.79358 0.04699 0.08962 0.0
C100 C 0.82748 0.05325 0.05576 0.0
C101 C 0.7496 1.00027 0.14995 0.0
C102 C 0.74589 0.96652 0.1871 0.0
C103 C 0.71853 0.96974 0.23697 0.0
C104 C 0.72942 0.94633 0.28531 0.0
C105 C 0.70845 0.95358 0.33574 0.0
C106 C 0.67577 0.98414 0.33895 0.0
H107 H 0.67347 1.01499 0.2022 0.0
C108 C 0.6627 1.00482 0.28966 0.0
C109 C 0.68385 0.99768 0.23904 0.0
H110 H 0.63741 0.02826 0.29083 0.0
H111 H 0.85923 0.94281 0.04405 0.0
H112 H 0.79974 0.93169 0.10311 0.0
H113 H 0.77589 0.07661 0.10238 0.0
H114 H 0.83466 0.08755 0.04308 0.0
H115 H 0.73006 0.02989 0.15423 0.0
H116 H 0.76733 0.93852 0.18573 0.0
H117 H 0.75554 0.92407 0.28489 0.0
H118 H 0.71871 0.93643 0.37286 0.0
C119 C 1.03183 0.87409 0.06642 0.0
C120 C 0.05203 0.91579 0.06067 0.0
C121 C 1.04413 0.8431 0.10635 0.0
C122 C 0.07711 0.85303 0.14145 0.0
C123 C 0.09779 0.89435 0.13504 0.0
C124 C 0.08561 0.92531 0.09468 0.0
C125 C 0.08761 0.82326 0.18871 0.0
C126 C 0.07976 0.77816 0.18813 0.0
C127 C 0.08144 0.74946 0.23869 0.0
C128 C 0.05983 0.70829 0.23799 0.0
C129 C 0.0567 0.68238 0.28624 0.0
C130 C 0.07528 0.69707 0.33626 0.0
H131 H 0.12005 0.79341 0.29014 0.0
C132 C 0.09855 0.73707 0.33638 0.0
C133 C 0.10182 0.76292 0.28807 0.0
H134 H 0.11401 0.74856 0.37407 0.0
H135 H 1.00581 0.8657 0.04091 0.0
H136 H 1.02648 0.81242 0.11112 0.0
H137 H 0.12297 0.90307 0.16202 0.0
H138 H 0.10163 0.95727 0.09144 0.0
H139 H 0.09996 0.84004 0.22581 0.0
H140 H 0.06836 0.76203 0.1499 0.0
H141 H 1.04402 0.69689 0.20052 0.0
H142 H 1.0385 0.65173 0.28492 0.0
C143 C 0.2097 0.09958 0.11837 0.0
C144 C 0.18053 0.06535 0.11016 0.0
C145 C 0.23627 0.09783 0.16382 0.0
C146 C 0.23364 0.06212 0.20216 0.0
C147 C 0.20239 0.03019 0.19627 0.0
C148 C 0.17641 0.03144 0.15046 0.0
C149 C 0.2636 0.05554 0.24739 0.0
C150 C 0.30288 0.06696 0.24267 0.0
C151 C 0.33376 0.05353 0.28434 0.0
C152 C 0.36911 0.07952 0.29039 0.0
C153 C 0.39854 0.06762 0.32947 0.0
C154 C 0.39326 0.0292 0.36295 0.0
H155 H 0.30363 0.99176 0.31106 0.0
C156 C 0.35867 1.00218 0.35515 0.0
C157 C 0.32936 1.01406 0.31631 0.0
H158 H 0.35422 0.97168 0.37921 0.0
H159 H 0.21352 0.12618 0.08801 0.0
H160 H 0.25922 0.12386 0.16814 0.0
H161 H 0.19933 1.00271 0.22563 0.0
H162 H 0.15402 1.00482 0.1455 0.0
H163 H 0.25339 0.03713 0.28384 0.0
H164 H 0.31319 0.08576 0.20656 0.0
H165 H 0.37364 0.10961 0.26559 0.0
H166 H 0.42483 0.08916 0.33457 0.0
C167 C 0.05237 0.87135 0.83172 0.0
C168 C 1.03801 0.91638 0.8304 0.0
C169 C 1.04305 0.84015 0.78871 0.0
C170 C 1.01943 0.8535 0.7431 0.0
C171 C 1.00353 0.89795 0.74309 0.0
C172 C 1.01229 0.92904 0.78682 0.0
C173 C 1.01645 0.82424 0.69171 0.0
C174 C 1.01949 0.77845 0.69195 0.0
C175 C 1.0275 0.75143 0.63979 0.0
C176 C 1.01046 0.70801 0.63203 0.0
C177 C 1.01916 0.68187 0.58343 0.0
C178 C 1.04591 0.69834 0.54246 0.0
H179 H 0.06959 0.80014 0.60541 0.0
C180 C 0.06403 0.7412 0.55173 0.0
C181 C 0.05468 0.76755 0.59946 0.0
H182 H 0.08586 0.75443 0.52231 0.0
H183 H 0.07206 0.86062 0.86509 0.0
H184 H 0.0566 0.80658 0.78967 0.0
H185 H 0.98555 0.90916 0.70815 0.0
H186 H 1.00093 0.96361 0.78482 0.0
H187 H 1.01437 0.84131 0.65177 0.0
H188 H 1.01774 0.76043 0.73123 0.0
H189 H 0.98996 0.69462 0.66315 0.0
H190 H 1.00443 0.64919 0.57764 0.0
C191 C 0.24953 0.97094 0.83949 0.0
C192 C 0.23813 1.01491 0.85843 0.0
C193 C 0.28369 0.96468 0.80501 0.0
C194 C 0.3071 1.00238 0.78891 0.0
C195 C 0.29669 0.04581 0.8103 0.0
C196 C 0.26265 0.05207 0.84427 0.0
C197 C 0.34133 0.99902 0.74812 0.0
C198 C 0.34587 0.96482 0.70977 0.0
C199 C 0.37357 0.96788 0.66043 0.0
C200 C 0.36339 0.94376 0.61096 0.0
C201 C 0.38456 0.95088 0.56109 0.0
C202 C 0.4167 0.98205 0.55958 0.0
H203 H 0.41767 1.01424 0.69771 0.0
C204 C 0.42914 1.00342 0.60993 0.0
C205 C 0.40782 0.99638 0.65999 0.0
H206 H 0.45402 0.02732 0.61007 0.0
H207 H 0.23155 0.94153 0.8501 0.0
H208 H 0.29129 0.93041 0.79089 0.0
H209 H 0.31425 0.07546 0.79922 0.0
H210 H 0.25526 0.08639 0.8587 0.0
H211 H 0.36046 0.02889 0.74525 0.0
H212 H 0.3249 0.93645 0.70974 0.0
H213 H 0.33763 0.92105 0.61009 0.0
H214 H 0.37479 0.93322 0.52308 0.0
C215 C 1.01795 0.16797 0.80517 0.0
C216 C 1.04353 0.17573 0.85117 0.0
C217 C 1.00892 0.20352 0.76915 0.0
C218 C 1.02472 0.24742 0.77939 0.0
C219 C 0.04725 0.25593 0.82807 0.0
C220 C 0.05703 0.22027 0.86331 0.0
C221 C 1.02221 0.28334 0.73696 0.0
C222 C 1.03108 0.27353 0.68289 0.0
C223 C 1.03897 0.30879 0.64081 0.0
C224 C 0.06854 0.29982 0.59979 0.0
C225 C 0.07661 0.33131 0.55839 0.0
C226 C 0.05442 0.37212 0.55592 0.0
H227 H 0.99433 0.35782 0.67095 0.0
C228 C 1.02521 0.38162 0.59776 0.0
C229 C 1.01765 0.35026 0.64007 0.0
H230 H 1.00728 0.41247 0.59675 0.0
H231 H 1.00688 0.13402 0.79518 0.0
H232 H 0.99086 0.19635 0.73223 0.0
H233 H 0.05949 0.28957 0.8369 0.0
H234 H 0.07625 0.22727 0.89913 0.0
H235 H 1.01989 0.31867 0.75141 0.0
H236 H 1.03781 0.23838 0.67044 0.0
H237 H 0.08567 0.26831 0.59989 0.0
H238 H 0.10003 0.32332 0.52779 0.0
C239 C 0.88113 0.10416 0.78766 0.0
C240 C 0.91125 0.0707 0.79233 0.0
C241 C 0.85452 0.10283 0.74214 0.0
C242 C 0.85807 0.06836 0.70023 0.0
C243 C 0.89027 0.03739 0.70277 0.0
C244 C 0.91628 0.03818 0.74862 0.0
C245 C 0.82809 0.06186 0.65463 0.0
C246 C 0.78853 0.0719 0.66059 0.0
C247 C 0.75788 0.05797 0.61808 0.0
C248 C 0.72192 0.08306 0.61384 0.0
C249 C 0.6927 0.07057 0.57407 0.0
C250 C 0.69877 0.03244 0.53809 0.0
H251 H 0.78938 0.99717 0.58726 0.0
C252 C 0.734 1.00631 0.54405 0.0
C253 C 0.76312 1.0188 0.58353 0.0
H254 H 0.7391 0.97601 0.51805 0.0
H255 H 0.87656 0.12961 0.8208 0.0
H256 H 0.83078 0.12813 0.74057 0.0
H257 H 0.89404 1.01087 0.6707 0.0
H258 H 0.93938 1.01213 0.75095 0.0
H259 H 0.8386 0.04445 0.61652 0.0
H260 H 0.77783 0.08974 0.69828 0.0
H261 H 0.71676 0.1129 0.64064 0.0
H262 H 0.66591 0.09145 0.57047 0.0
loop_
_geom_bond_atom_site_label_1
_geom_bond_atom_site_label_2
_geom_bond_distance
_geom_bond_site_symmetry_2
_ccdc_geom_bond_type
C0 O27 1.307 1_655 S
C0 O28 1.215 . S
C1 O22 1.338 . S
C1 O25 1.235 1_565 S
C2 O24 1.264 1_545 S
C2 O26 1.273 . S
Mg3 O5 1.936 1_565 S
Mg3 O12 2.081 . S
Mg3 O14 2.023 1_556 S
Mg3 O18 2.031 . S
Mg3 O27 2.291 1_556 S
Mg4 O5 1.963 . S
Mg4 O15 1.942 . S
Mg4 O16 1.955 1_556 S
Mg4 O23 1.986 . S
O5 Mg3 1.936 1_545 S
O5 Mg4 1.963 . S
O5 Mg6 1.913 1_556 S
Mg6 O5 1.913 1_554 S
Mg6 O7 1.918 1_455 S
Mg6 O11 2.019 . S
Mg6 O17 2.109 1_444 S
Mg6 O21 2.006 1_454 S
Mg6 O27 2.119 1_545 S
O7 Mg6 1.918 1_655 S
O7 Mg8 1.936 1_545 S
O7 Mg9 1.963 . S
Mg8 O7 1.936 1_565 S
Mg8 O17 2.291 1_554 S
Mg8 O22 2.081 . S
Mg8 O24 2.023 1_554 S
Mg8 O28 2.031 . S
Mg9 O7 1.963 . S
Mg9 O13 1.986 . S
Mg9 O25 1.942 . S
Mg9 O26 1.955 1_554 S
C10 O21 1.191 1_455 S
C10 O23 1.307 . S
O11 Mg6 2.019 . S
O11 C30 1.191 1_455 S
O12 Mg3 2.081 . S
O12 C20 1.331 . S
O13 Mg9 1.986 . S
O13 C30 1.307 . S
O14 Mg3 2.023 1_554 S
O14 C29 1.264 1_565 S
O15 Mg4 1.942 . S
O15 C20 1.244 1_545 S
O16 Mg4 1.955 1_554 S
O16 C29 1.273 . S
O17 Mg6 2.109 1_666 S
O17 Mg8 2.291 1_556 S
O17 C19 1.312 1_655 S
O18 Mg3 2.031 . S
O18 C19 1.208 . S
C19 O17 1.312 1_455 S
C19 O18 1.208 . S
C20 O12 1.331 . S
C20 O15 1.244 1_565 S
O21 Mg6 2.006 1_656 S
O21 C10 1.191 1_655 S
O22 C1 1.338 . S
O22 Mg8 2.081 . S
O23 Mg4 1.986 . S
O23 C10 1.307 . S
O24 C2 1.264 1_565 S
O24 Mg8 2.023 1_556 S
O25 C1 1.235 1_545 S
O25 Mg9 1.942 . S
O26 C2 1.273 . S
O26 Mg9 1.955 1_556 S
O27 C0 1.307 1_455 S
O27 Mg3 2.291 1_554 S
O27 Mg6 2.119 1_565 S
O28 C0 1.215 . S
O28 Mg8 2.031 . S
C29 O14 1.264 1_545 S
C29 O16 1.273 . S
C30 O11 1.191 1_655 S
C30 O13 1.307 . S
H31 C39 0.940 . S
H32 C42 0.940 . S
H33 C44 0.940 1_655 S
H34 C45 0.940 . S
H35 C48 0.940 . S
H36 C50 0.940 1_655 S
N37 N38 1.190 . S
N37 C41 1.477 . S
N38 N37 1.190 . S
N38 C47 1.477 . S
C39 H31 0.940 . S
C39 C40 1.390 . S
C39 C41 1.322 . S
C40 C39 1.390 . S
C40 C44 1.370 . S
C41 N37 1.477 . S
C41 C39 1.322 . S
C41 C42 1.447 . S
C42 H32 0.940 . S
C42 C41 1.447 . S
C42 C43 1.373 . S
C43 C42 1.373 . S
C43 C44 1.417 . S
C44 H33 0.940 1_455 S
C44 C40 1.370 . S
C44 C43 1.417 . S
C45 H34 0.940 . S
C45 C46 1.390 . S
C45 C47 1.322 . S
C46 C45 1.390 . S
C46 C50 1.370 . S
C47 N38 1.477 . S
C47 C45 1.322 . S
C47 C48 1.447 . S
C48 H35 0.940 . S
C48 C47 1.447 . S
C48 C49 1.373 . S
C49 C48 1.373 . S
C49 C50 1.417 . S
C50 H36 0.940 1_455 S
C50 C46 1.370 . S
C50 C49 1.417 . S
H51 C59 0.940 . S
H52 C62 0.940 . S
H53 C64 0.935 1_565 S
H54 C65 0.940 . S
H55 C68 0.940 . S
H56 C70 0.935 1_565 S
N57 N58 1.190 . S
N57 C61 1.477 . S
N58 N57 1.190 . S
N58 C67 1.477 . S
C59 H51 0.940 . S
C59 C60 1.390 . S
C59 C61 1.322 . S
C60 C59 1.390 . S
C60 C64 1.371 . S
C61 N57 1.477 . S
C61 C59 1.322 . S
C61 C62 1.447 . S
C62 H52 0.940 . S
C62 C61 1.447 . S
C62 C63 1.373 . S
C63 C62 1.373 . S
C63 C64 1.421 . S
C64 H53 0.935 1_545 S
C64 C60 1.371 . S
C64 C63 1.421 . S
C65 H54 0.940 . S
C65 C66 1.390 . S
C65 C67 1.322 . S
C66 C65 1.390 . S
C66 C70 1.370 . S
C67 N58 1.477 . S
C67 C65 1.322 . S
C67 C68 1.447 . S
C68 H55 0.940 . S
C68 C67 1.447 . S
C68 C69 1.373 . S
C69 C68 1.373 . S
C69 C70 1.422 . S
C70 H56 0.935 1_545 S
C70 C66 1.370 . S
C70 C69 1.422 . S
C71 C72 1.386 1_655 S
C71 C73 1.383 . S
C71 H87 0.951 . S
C72 C71 1.386 1_455 S
C72 C76 1.383 . S
C73 C71 1.383 . S
C73 C74 1.402 . S
C73 H88 0.951 . S
C74 C73 1.402 . S
C74 C75 1.375 1_655 S
C74 C77 1.481 . S
C75 C74 1.375 1_455 S
C75 C76 1.367 . S
C75 H89 0.951 . S
C76 C72 1.383 . S
C76 C75 1.367 . S
C76 H90 0.950 . S
C77 C74 1.481 . S
C77 C78 1.297 . S
C77 H91 0.950 . S
C78 C77 1.297 . S
C78 C79 1.479 . S
C78 H92 0.950 . S
C79 C78 1.479 . S
C79 C80 1.375 . S
C79 C85 1.404 . S
C80 C79 1.375 . S
C80 C81 1.369 . S
C80 H93 0.950 . S
C81 C80 1.369 . S
C81 C82 1.392 . S
C81 H94 0.951 . S
C82 C81 1.392 . S
C82 C84 1.384 . S
H83 C85 0.949 . S
C84 C82 1.384 . S
C84 C85 1.385 . S
C84 H86 0.950 . S
C85 C79 1.404 . S
C85 H83 0.949 . S
C85 C84 1.385 . S
H86 C84 0.950 . S
H87 C71 0.951 . S
H88 C73 0.951 . S
H89 C75 0.951 . S
H90 C76 0.950 . S
H91 C77 0.950 . S
H92 C78 0.950 . S
H93 C80 0.950 . S
H94 C81 0.951 . S
C95 C96 1.387 . S
C95 C97 1.383 . S
C95 H111 0.951 . S
C96 C95 1.387 . S
C96 C100 1.381 1_565 S
C97 C95 1.383 . S
C97 C98 1.402 1_565 S
C97 H112 0.951 . S
C98 C97 1.402 1_545 S
C98 C99 1.375 . S
C98 C101 1.481 . S
C99 C98 1.375 . S
C99 C100 1.367 . S
C99 H113 0.951 . S
C100 C96 1.381 1_545 S
C100 C99 1.367 . S
C100 H114 0.950 . S
C101 C98 1.481 . S
C101 C102 1.297 1_545 S
C101 H115 0.950 . S
C102 C101 1.297 1_565 S
C102 C103 1.479 . S
C102 H116 0.950 . S
C103 C102 1.479 . S
C103 C104 1.375 . S
C103 C109 1.404 1_565 S
C104 C103 1.375 . S
C104 C105 1.369 . S
C104 H117 0.950 . S
C105 C104 1.369 . S
C105 C106 1.402 . S
C105 H118 0.951 . S
C106 C105 1.402 . S
C106 C108 1.374 1_565 S
H107 C109 0.949 . S
C108 C106 1.374 1_545 S
C108 C109 1.385 . S
C108 H110 0.950 . S
C109 C103 1.404 1_545 S
C109 H107 0.949 . S
C109 C108 1.385 . S
H110 C108 0.950 . S
H111 C95 0.951 . S
H112 C97 0.951 . S
H113 C99 0.951 . S
H114 C100 0.950 . S
H115 C101 0.950 . S
H116 C102 0.950 . S
H117 C104 0.950 . S
H118 C105 0.951 . S
C119 C120 1.386 1_655 S
C119 C121 1.383 1_655 S
C119 H135 0.951 . S
C120 C119 1.386 1_455 S
C120 C124 1.383 . S
C121 C119 1.383 1_455 S
C121 C122 1.402 . S
C121 H136 0.951 1_455 S
C122 C121 1.402 . S
C122 C123 1.375 . S
C122 C125 1.481 . S
C123 C122 1.375 . S
C123 C124 1.367 . S
C123 H137 0.951 . S
C124 C120 1.383 . S
C124 C123 1.367 . S
C124 H138 0.950 . S
C125 C122 1.481 . S
C125 C126 1.297 . S
C125 H139 0.950 . S
C126 C125 1.297 . S
C126 C127 1.479 . S
C126 H140 0.950 . S
C127 C126 1.479 . S
C127 C128 1.386 . S
C127 C133 1.404 . S
C128 C127 1.386 . S
C128 C129 1.367 1_455 S
C128 H141 0.942 1_455 S
C129 C128 1.367 1_655 S
C129 C130 1.392 1_655 S
C129 H142 0.951 . S
C130 C129 1.392 1_455 S
C130 C132 1.384 . S
H131 C133 0.949 . S
C132 C130 1.384 . S
C132 C133 1.385 . S
C132 H134 0.950 . S
C133 C127 1.404 . S
C133 H131 0.949 . S
C133 C132 1.385 . S
H134 C132 0.950 . S
H135 C119 0.951 . S
H136 C121 0.951 1_655 S
H137 C123 0.951 . S
H138 C124 0.950 . S
H139 C125 0.950 . S
H140 C126 0.950 . S
H141 C128 0.942 1_655 S
H142 C129 0.951 . S
C143 C144 1.386 . S
C143 C145 1.383 . S
C143 H159 0.951 . S
C144 C143 1.386 . S
C144 C148 1.383 1_545 S
C145 C143 1.383 . S
C145 C146 1.402 1_545 S
C145 H160 0.951 . S
C146 C145 1.402 1_565 S
C146 C147 1.375 . S
C146 C149 1.481 . S
C147 C146 1.375 . S
C147 C148 1.367 . S
C147 H161 0.951 . S
C148 C144 1.383 1_565 S
C148 C147 1.367 . S
C148 H162 0.950 . S
C149 C146 1.481 . S
C149 C150 1.293 1_565 S
C149 H163 0.950 . S
C150 C149 1.293 1_545 S
C150 C151 1.478 1_545 S
C150 H164 0.957 . S
C151 C150 1.478 1_565 S
C151 C152 1.375 1_565 S
C151 C157 1.404 . S
C152 C151 1.375 1_545 S
C152 C153 1.369 . S
C152 H165 0.950 . S
C153 C152 1.369 . S
C153 C154 1.392 . S
C153 H166 0.951 . S
C154 C153 1.392 . S
C154 C156 1.384 1_545 S
H155 C157 0.949 . S
C156 C154 1.384 1_565 S
C156 C157 1.385 . S
C156 H158 0.950 . S
C157 C151 1.404 . S
C157 H155 0.949 . S
C157 C156 1.385 . S
H158 C156 0.950 . S
H159 C143 0.951 . S
H160 C145 0.951 . S
H161 C147 0.951 . S
H162 C148 0.950 . S
H163 C149 0.950 . S
H164 C150 0.957 . S
H165 C152 0.950 . S
H166 C153 0.951 . S
C167 C168 1.386 1_655 S
C167 C169 1.383 . S
C167 H183 0.951 . S
C168 C167 1.386 1_455 S
C168 C172 1.383 . S
C169 C167 1.383 . S
C169 C170 1.402 1_655 S
C169 H184 0.951 . S
C170 C169 1.402 1_455 S
C170 C171 1.375 . S
C170 C173 1.481 . S
C171 C170 1.375 . S
C171 C172 1.367 . S
C171 H185 0.951 . S
C172 C168 1.383 . S
C172 C171 1.367 . S
C172 H186 0.950 . S
C173 C170 1.481 . S
C173 C174 1.297 1_455 S
C173 H187 0.950 . S
C174 C173 1.297 1_655 S
C174 C175 1.479 . S
C174 H188 0.950 . S
C175 C174 1.479 . S
C175 C176 1.375 . S
C175 C181 1.404 1_655 S
C176 C175 1.375 . S
C176 C177 1.369 . S
C176 H189 0.950 . S
C177 C176 1.369 . S
C177 C178 1.392 . S
C177 H190 0.951 . S
C178 C177 1.392 . S
C178 C180 1.384 1_655 S
H179 C181 0.949 . S
C180 C178 1.384 1_455 S
C180 C181 1.385 . S
C180 H182 0.950 . S
C181 C175 1.404 1_455 S
C181 H179 0.949 . S
C181 C180 1.385 . S
H182 C180 0.950 . S
H183 C167 0.951 . S
H184 C169 0.951 . S
H185 C171 0.951 . S
H186 C172 0.950 . S
H187 C173 0.950 . S
H188 C174 0.950 . S
H189 C176 0.950 . S
H190 C177 0.951 . S
C191 C192 1.386 . S
C191 C193 1.383 . S
C191 H207 0.951 . S
C192 C191 1.386 . S
C192 C196 1.383 1_565 S
C193 C191 1.383 . S
C193 C194 1.402 1_565 S
C193 H208 0.951 . S
C194 C193 1.402 1_545 S
C194 C195 1.375 . S
C194 C197 1.481 . S
C195 C194 1.375 . S
C195 C196 1.367 . S
C195 H209 0.951 . S
C196 C192 1.383 1_545 S
C196 C195 1.367 . S
C196 H210 0.950 . S
C197 C194 1.481 . S
C197 C198 1.297 . S
C197 H211 0.950 . S
C198 C197 1.297 . S
C198 C199 1.479 . S
C198 H212 0.950 1_545 S
C199 C198 1.479 . S
C199 C200 1.375 1_545 S
C199 C205 1.404 . S
C200 C199 1.375 1_565 S
C200 C201 1.369 . S
C200 H213 0.950 . S
C201 C200 1.369 . S
C201 C202 1.392 1_565 S
C201 H214 0.951 . S
C202 C201 1.392 1_545 S
C202 C204 1.384 . S
H203 C205 0.949 . S
C204 C202 1.384 . S
C204 C205 1.385 . S
C204 H206 0.950 . S
C205 C199 1.404 . S
C205 H203 0.949 . S
C205 C204 1.385 . S
H206 C204 0.950 . S
H207 C191 0.951 . S
H208 C193 0.951 . S
H209 C195 0.951 . S
H210 C196 0.950 . S
H211 C197 0.950 . S
H212 C198 0.950 1_565 S
H213 C200 0.950 . S
H214 C201 0.951 . S
C215 C216 1.386 1_655 S
C215 C217 1.383 . S
C215 H231 0.951 . S
C216 C215 1.386 1_455 S
C216 C220 1.383 . S
C217 C215 1.383 . S
C217 C218 1.403 . S
C217 H232 0.951 . S
C218 C217 1.403 . S
C218 C219 1.373 1_655 S
C218 C221 1.481 . S
C219 C218 1.373 1_455 S
C219 C220 1.367 . S
C219 H233 0.951 . S
C220 C216 1.383 . S
C220 C219 1.367 . S
C220 H234 0.950 . S
C221 C218 1.481 . S
C221 C222 1.297 . S
C221 H235 0.950 1_655 S
C222 C221 1.297 . S
C222 C223 1.479 . S
C222 H236 0.950 . S
C223 C222 1.479 . S
C223 C224 1.375 . S
C223 C229 1.404 . S
C224 C223 1.375 . S
C224 C225 1.369 . S
C224 H237 0.950 . S
C225 C224 1.369 . S
C225 C226 1.392 1_655 S
C225 H238 0.951 . S
C226 C225 1.392 1_455 S
C226 C228 1.384 . S
H227 C229 0.949 . S
C228 C226 1.384 . S
C228 C229 1.385 1_455 S
C228 H230 0.950 . S
C229 C223 1.404 . S
C229 H227 0.949 . S
C229 C228 1.385 1_655 S
H230 C228 0.950 . S
H231 C215 0.951 . S
H232 C217 0.951 . S
H233 C219 0.951 . S
H234 C220 0.950 . S
H235 C221 0.950 1_455 S
H236 C222 0.950 . S
H237 C224 0.950 . S
H238 C225 0.951 . S
C239 C240 1.386 . S
C239 C241 1.383 . S
C239 H255 0.951 . S
C240 C239 1.386 . S
C240 C244 1.383 1_545 S
C241 C239 1.383 . S
C241 C242 1.402 1_545 S
C241 H256 0.951 . S
C242 C241 1.402 1_565 S
C242 C243 1.375 . S
C242 C245 1.481 . S
C243 C242 1.375 . S
C243 C244 1.367 . S
C243 H257 0.951 . S
C244 C240 1.383 1_565 S
C244 C243 1.367 . S
C244 H258 0.950 . S
C245 C242 1.481 . S
C245 C246 1.297 . S
C245 H259 0.950 . S
C246 C245 1.297 . S
C246 C247 1.479 . S
C246 H260 0.953 . S
C247 C246 1.479 . S
C247 C248 1.375 1_565 S
C247 C253 1.404 . S
C248 C247 1.375 1_545 S
C248 C249 1.369 . S
C248 H261 0.950 . S
C249 C248 1.369 . S
C249 C250 1.392 . S
C249 H262 0.951 . S
C250 C249 1.392 . S
C250 C252 1.384 1_545 S
H251 C253 0.949 . S
C252 C250 1.384 1_565 S
C252 C253 1.385 . S
C252 H254 0.950 . S
C253 C247 1.404 . S
C253 H251 0.949 . S
C253 C252 1.385 . S
H254 C252 0.950 . S
H255 C239 0.951 . S
H256 C241 0.951 . S
H257 C243 0.951 . S
H258 C244 0.950 . S
H259 C245 0.950 . S
H260 C246 0.953 . S
H261 C248 0.950 . S
H262 C249 0.951 . S
C72 C30 1.464 1_455 S
C82 C40 1.444 1_655 S
C96 C1 1.705 . S
C106 C60 1.605 1_565 S
C120 C0 1.443 1_455 S
C130 C49 1.476 . S
C144 C29 1.707 . S
C154 C69 1.696 . S
C168 C19 1.465 . S
C178 C46 1.417 1_655 S
C192 C20 1.695 . S
C202 C66 1.611 . S
C226 C43 1.445 . S
C216 C10 1.424 . S
C240 C2 1.702 . S
C250 C63 1.701 . S
