# Generated by pormake.
# Topology tsx, (6,3)-cn, num edge types: 1
# Building blocks:
#     Node 0, Type 0, BuildingBlock: LEVNOQ01_clean_sbu_1, # of connection points: 6
#     Node 1, Type 0, BuildingBlock: LEVNOQ01_clean_sbu_1, # of connection points: 6
#     Node 2, Type 1, BuildingBlock: KAKCAD_clean_linker_0, # of connection points: 3
#     Node 3, Type 1, BuildingBlock: KAKCAD_clean_linker_0, # of connection points: 3
#     Node 4, Type 1, BuildingBlock: KAKCAD_clean_linker_0, # of connection points: 3
#     Node 5, Type 1, BuildingBlock: KAKCAD_clean_linker_0, # of connection points: 3
#     Edge 6, Type (0, 1), None
#     Edge 7, Type (0, 1), None
#     Edge 8, Type (0, 1), None
#     Edge 9, Type (0, 1), None
#     Edge 10, Type (0, 1), None
#     Edge 11, Type (0, 1), None
#     Edge 12, Type (0, 1), None
#     Edge 13, Type (0, 1), None
#     Edge 14, Type (0, 1), None
#     Edge 15, Type (0, 1), None
#     Edge 16, Type (0, 1), None
#     Edge 17, Type (0, 1), None
# Relax obj value: 0.130
# Max RMSD: 0.158
# Mean RMSD: 0.119
data_MOF--net-tsx--node1-LEVNOQ01_clean_sbu_1--node2-KAKCAD_clean_linker_0--edge1-none
_symmetry_space_group_name_H-M    P1
_symmetry_Int_Tables_number       1
_symmetry_cell_setting            triclinic
loop_
_symmetry_equiv_pos_as_xyz
'x, y, z'
_cell_length_a     10.994296
_cell_length_b     14.978644
_cell_length_c     26.58087
_cell_angle_alpha  93.170565
_cell_angle_beta   92.641598
_cell_angle_gamma 90.853273
loop_
_atom_site_label
_atom_site_type_symbol
_atom_site_fract_x
_atom_site_fract_y
_atom_site_fract_z
_atom_type_partial_charge
O0 O 0.23388 0.91936 0.05511 0.0
Mg1 Mg 0.2975 -0.00451 -0.00471 0.0
O2 O 0.05714 0.9852 0.04829 0.0
Mg3 Mg 0.08385 0.02476 -0.03279 0.0
O4 O 0.24768 0.12554 -0.00473 0.0
O5 O 0.42893 0.07927 0.02556 0.0
O6 O 0.11201 0.06455 0.88613 0.0
O7 O 0.98268 0.16104 -0.0199 0.0
Mg8 Mg 0.82617 0.04586 0.91665 0.0
O9 O 0.91223 0.93956 0.94426 0.0
O10 O 0.92683 0.10272 0.85912 0.0
O11 O 0.7901 0.12534 -0.01817 0.0
O12 O 0.73071 0.92687 0.90389 0.0
C13 C 0.27343 0.87347 0.92221 0.0
C14 C 0.13096 0.93682 0.07261 0.0
C15 C 0.35497 0.14306 0.01665 0.0
C16 C 1.04077 0.0984 0.85336 0.0
C17 C 0.87331 0.18442 -0.01297 0.0
C18 C 0.81543 0.8918 0.93122 0.0
O19 O 0.35122 0.93606 0.92643 0.0
O20 O 0.17519 0.88336 0.94546 0.0
O21 O 0.73681 0.42087 0.5554 0.0
Mg22 Mg 0.80086 0.49678 0.49556 0.0
O23 O 0.56013 0.48676 0.5484 0.0
Mg24 Mg 0.58702 0.52608 0.46733 0.0
O25 O 0.75093 0.6268 0.49531 0.0
O26 O 0.93218 0.58072 0.52572 0.0
O27 O 0.61522 0.56544 0.38619 0.0
O28 O 0.48596 0.66244 0.48005 0.0
Mg29 Mg 0.32927 0.54708 0.41672 0.0
O30 O 0.41537 0.44094 0.44449 0.0
O31 O 0.43006 0.60353 0.35909 0.0
O32 O 0.29337 0.6268 0.48183 0.0
O33 O 0.23386 0.42802 0.40415 0.0
C34 C 0.77653 0.37463 0.42252 0.0
C35 C 0.63376 0.43834 0.57277 0.0
C36 C 0.8582 0.64444 0.51668 0.0
C37 C 0.54399 0.59908 0.35334 0.0
C38 C 0.37661 0.68585 0.48699 0.0
C39 C 0.31859 0.39312 0.43155 0.0
O40 O 0.85445 0.43713 0.42674 0.0
O41 O 0.67827 0.38463 0.44574 0.0
C42 C 0.20432 0.89658 0.15845 0.0
C43 C 0.10665 0.91446 0.12469 0.0
C44 C 0.18839 0.89952 0.2103 0.0
C45 C 0.07393 0.91893 0.22937 0.0
C46 C 0.97334 0.92531 0.19504 0.0
C47 C 0.98976 0.92401 0.14317 0.0
C48 C 0.06327 0.94441 0.28394 0.0
C49 C 0.13601 0.90441 0.32111 0.0
C50 C 0.13519 0.93558 0.37196 0.0
C51 C 0.05826 0.00575 0.38568 0.0
C52 C 0.98557 0.04672 0.34926 0.0
C53 C 0.98865 0.01595 0.2986 0.0
C54 C 0.91622 0.12745 0.36361 0.0
C55 C 0.83793 0.12798 0.40399 0.0
C56 C 0.93601 0.20685 0.3393 0.0
C57 C 0.88467 0.28655 0.35699 0.0
C58 C 0.81063 0.28802 0.39866 0.0
C59 C 0.21179 0.89244 0.41075 0.0
C60 C 0.15872 0.86151 0.45358 0.0
C61 C 0.33437 0.87336 0.40275 0.0
C62 C 0.39814 0.81615 0.43398 0.0
C63 C 0.33902 0.77572 0.47295 0.0
C64 C 0.22198 0.80403 0.48459 0.0
C65 C 0.78427 0.20764 0.42104 0.0
H66 H 0.29545 0.8878 0.14534 0.0
H67 H 0.26809 0.89367 0.2353 0.0
H68 H 0.88292 0.93659 0.20834 0.0
H69 H 0.91221 0.93552 0.11785 0.0
H70 H 0.19287 0.84854 0.31065 0.0
H71 H 0.93575 0.05028 0.27045 0.0
H72 H 0.05865 0.03117 0.42438 0.0
H73 H 0.82142 0.06741 0.42328 0.0
H74 H 0.99673 0.20832 0.30838 0.0
H75 H 0.90661 0.34782 0.33926 0.0
H76 H 0.06444 0.87482 0.46015 0.0
H77 H 0.37817 0.89779 0.37038 0.0
H78 H 0.72845 0.20737 0.45358 0.0
H79 H 0.17431 0.77314 0.51393 0.0
H80 H 0.48815 0.79553 0.42372 0.0
C81 C 1.01963 0.18096 0.77473 0.0
C82 C 0.08683 0.123 0.80477 0.0
C83 C 1.04069 0.18425 0.7235 0.0
C84 C 0.12882 0.12953 0.70199 0.0
C85 C 0.20554 0.07996 0.73306 0.0
C86 C 0.18546 0.07735 0.78443 0.0
C87 C 0.11672 0.10413 0.64793 0.0
C88 C 0.16816 0.15568 0.61185 0.0
C89 C 0.15359 0.12872 0.56033 0.0
C90 C 0.0859 0.05031 0.54574 0.0
C91 C 1.03542 -0.00199 0.58188 0.0
C92 C 1.05063 0.02589 0.63287 0.0
C93 C 0.97901 0.90946 0.56726 0.0
C94 C 0.88976 0.89786 0.52766 0.0
C95 C 1.02051 0.83447 0.59183 0.0
C96 C 0.97903 0.74909 0.57555 0.0
C97 C 0.89421 0.73652 0.53454 0.0
C98 C 0.20623 0.18377 0.52187 0.0
C99 C 0.13454 0.20552 0.47943 0.0
C100 C 0.32493 0.22 0.52896 0.0
C101 C 0.3674 0.28239 0.49636 0.0
C102 C 0.29136 0.30981 0.45639 0.0
C103 C 0.17692 0.26748 0.44686 0.0
C104 C 0.84688 0.81173 0.51158 0.0
H105 H 0.9445 0.2182 0.78986 0.0
H106 H 0.98026 0.22243 0.6999 0.0
H107 H 0.27322 0.03671 0.71675 0.0
H108 H 0.23905 0.03264 0.80683 0.0
H109 H 0.21807 0.21672 0.62384 0.0
H110 H 1.01168 0.98605 0.66119 0.0
H111 H 0.077 0.02781 0.50657 0.0
H112 H 0.85564 0.955 0.50847 0.0
H113 H 0.08924 0.84141 0.6224 0.0
H114 H 1.01536 0.69257 0.59468 0.0
H115 H 1.0426 0.17911 0.47325 0.0
H116 H 0.38304 0.20281 0.56087 0.0
H117 H 0.78022 0.80381 0.48029 0.0
H118 H 0.11618 0.28697 0.41636 0.0
H119 H 0.45637 0.31324 0.50447 0.0
C120 C 0.70608 0.39781 0.65869 0.0
C121 C 0.60882 0.41564 0.62473 0.0
C122 C 0.68927 0.40023 0.71047 0.0
C123 C 0.57433 0.41907 0.72924 0.0
C124 C 0.47424 0.4254 0.69466 0.0
C125 C 0.49152 0.42461 0.64288 0.0
C126 C 0.56265 0.44411 0.7838 0.0
C127 C 0.6349 0.40397 0.82106 0.0
C128 C 0.63321 0.4348 0.87194 0.0
C129 C 0.55592 0.5048 0.88557 0.0
C130 C 0.48367 0.54591 0.84906 0.0
C131 C 0.48758 0.51542 0.79838 0.0
C132 C 0.41395 0.62651 0.86336 0.0
C133 C 0.33552 0.62691 0.90369 0.0
C134 C 0.4335 0.70595 0.83905 0.0
C135 C 0.38183 0.78555 0.85669 0.0
C136 C 0.30772 0.78691 0.89834 0.0
C137 C 0.70927 0.39147 0.91082 0.0
C138 C 0.65553 0.36008 0.95339 0.0
C139 C 0.83206 0.37259 0.90312 0.0
C140 C 0.89541 0.31517 0.93437 0.0
C141 C 0.8357 0.27433 -0.02695 0.0
C142 C 0.71838 0.30241 -0.01559 0.0
C143 C 0.28156 0.70648 0.92071 0.0
H144 H 0.7975 0.38947 0.64582 0.0
H145 H 0.76861 0.39444 0.73567 0.0
H146 H 0.3835 0.43626 0.70773 0.0
H147 H 0.41428 0.43603 0.61738 0.0
H148 H 0.69208 0.34825 0.81064 0.0
H149 H 0.43501 0.54983 0.77016 0.0
H150 H 0.55569 0.53001 0.92429 0.0
H151 H 0.31915 0.56632 0.92298 0.0
H152 H 0.49431 0.70755 0.80816 0.0
H153 H 0.40362 0.84686 0.83896 0.0
H154 H 0.56106 0.37321 -0.04028 0.0
H155 H 0.87637 0.39734 0.87096 0.0
H156 H 0.22569 0.70611 0.95323 0.0
H157 H 0.67026 0.2712 0.01351 0.0
H158 H 0.98566 0.29475 0.92431 0.0
C159 C 0.52328 0.68121 0.27457 0.0
C160 C 0.58989 0.62291 0.30461 0.0
C161 C 0.54347 0.68366 0.22324 0.0
C162 C 0.63007 0.62771 0.20161 0.0
C163 C 0.70634 0.57768 0.2326 0.0
C164 C 0.6872 0.57595 0.28408 0.0
C165 C 0.61692 0.60214 0.14759 0.0
C166 C 0.66765 0.65362 0.11132 0.0
C167 C 0.6519 0.62675 0.05985 0.0
C168 C 0.5836 0.54854 0.04546 0.0
C169 C 0.53382 0.49624 0.08178 0.0
C170 C 0.55031 0.52403 0.13275 0.0
C171 C 0.47673 0.40784 0.0673 0.0
C172 C 0.3873 0.39642 0.02775 0.0
C173 C 0.51791 0.33273 0.09186 0.0
C174 C 0.47601 0.24745 0.07559 0.0
C175 C 0.39113 0.23507 0.0346 0.0
C176 C 0.70397 0.68176 0.02124 0.0
C177 C 0.63137 0.70428 -0.02077 0.0
C178 C 0.82305 0.71741 0.02791 0.0
C179 C 0.86509 0.78005 -0.00463 0.0
C180 C 0.78824 0.80829 0.95587 0.0
C181 C 0.67332 0.76649 0.9467 0.0
C182 C 0.34403 0.31039 0.01168 0.0
H183 H 0.44913 0.71938 0.28984 0.0
H184 H 0.48344 0.72225 0.19969 0.0
H185 H 0.77287 0.53353 0.2162 0.0
H186 H 0.74026 0.5309 0.30648 0.0
H187 H 0.71797 0.71458 0.12315 0.0
H188 H 0.51184 0.48427 0.16122 0.0
H189 H 0.57367 0.52617 0.0063 0.0
H190 H 0.35338 0.45363 0.00856 0.0
H191 H 0.58678 0.33949 0.12238 0.0
H192 H 0.51216 0.19084 0.09469 0.0
H193 H 0.53913 0.67831 -0.02661 0.0
H194 H 0.88182 0.69961 0.05949 0.0
H195 H 0.27732 0.30262 -0.0196 0.0
H196 H 0.61193 0.78664 0.91659 0.0
H197 H 0.95443 0.81045 0.00318 0.0
loop_
_geom_bond_atom_site_label_1
_geom_bond_atom_site_label_2
_geom_bond_distance
_geom_bond_site_symmetry_2
_ccdc_geom_bond_type
O0 Mg1 1.990 . S
O0 C14 1.253 . S
Mg1 O0 1.990 . S
Mg1 O4 2.180 . S
Mg1 O5 2.117 . S
Mg1 O19 2.030 1_545 S
O2 Mg3 2.060 1_554 S
O2 C14 1.260 . S
Mg3 O2 2.060 1_556 S
Mg3 O4 2.097 1_556 S
Mg3 O6 2.091 . S
Mg3 O7 2.072 1_456 S
Mg3 O9 2.101 1_445 S
Mg3 O20 2.079 1_545 S
O4 Mg1 2.180 . S
O4 Mg3 2.097 1_554 S
O4 C15 1.279 . S
O5 Mg1 2.117 . S
O5 C15 1.250 . S
O6 Mg3 2.091 . S
O6 C16 1.264 . S
O7 Mg3 2.072 1_654 S
O7 C17 1.260 1_554 S
Mg8 O9 2.180 . S
Mg8 O10 2.030 1_565 S
Mg8 O11 1.990 1_565 S
Mg8 O12 2.117 . S
O9 Mg3 2.101 1_665 S
O9 Mg8 2.180 . S
O9 C18 1.279 1_556 S
O10 Mg8 2.030 1_545 S
O10 C16 1.248 1_655 S
O11 Mg8 1.990 1_545 S
O11 C17 1.253 . S
O12 Mg8 2.117 . S
O12 C18 1.250 1_556 S
C13 O19 1.248 . S
C13 O20 1.264 1_554 S
C14 O0 1.253 . S
C14 O2 1.260 . S
C15 O4 1.279 . S
C15 O5 1.250 . S
C16 O6 1.264 . S
C16 O10 1.248 1_455 S
C17 O7 1.260 1_556 S
C17 O11 1.253 . S
C18 O9 1.279 1_554 S
C18 O12 1.250 1_554 S
O19 Mg1 2.030 1_565 S
O19 C13 1.248 . S
O20 Mg3 2.079 1_565 S
O20 C13 1.264 1_556 S
O21 Mg22 1.990 . S
O21 C35 1.253 . S
Mg22 O21 1.990 . S
Mg22 O25 2.180 . S
Mg22 O26 2.117 . S
Mg22 O40 2.030 . S
O23 Mg24 2.072 . S
O23 C35 1.260 . S
Mg24 O23 2.072 . S
Mg24 O25 2.099 . S
Mg24 O27 2.079 . S
Mg24 O28 2.072 . S
Mg24 O30 2.099 . S
Mg24 O41 2.079 . S
O25 Mg22 2.180 . S
O25 Mg24 2.099 . S
O25 C36 1.279 . S
O26 Mg22 2.117 . S
O26 C36 1.250 . S
O27 Mg24 2.079 . S
O27 C37 1.264 . S
O28 Mg24 2.072 . S
O28 C38 1.260 . S
Mg29 O30 2.180 . S
Mg29 O31 2.030 . S
Mg29 O32 1.990 . S
Mg29 O33 2.117 . S
O30 Mg24 2.099 . S
O30 Mg29 2.180 . S
O30 C39 1.279 . S
O31 Mg29 2.030 . S
O31 C37 1.248 . S
O32 Mg29 1.990 . S
O32 C38 1.253 . S
O33 Mg29 2.117 . S
O33 C39 1.250 . S
C34 O40 1.248 . S
C34 O41 1.264 . S
C35 O21 1.253 . S
C35 O23 1.260 . S
C36 O25 1.279 . S
C36 O26 1.250 . S
C37 O27 1.264 . S
C37 O31 1.248 . S
C38 O28 1.260 . S
C38 O32 1.253 . S
C39 O30 1.279 . S
C39 O33 1.250 . S
O40 Mg22 2.030 . S
O40 C34 1.248 . S
O41 Mg24 2.079 . S
O41 C34 1.264 . S
C42 C43 1.386 . S
C42 C44 1.397 . S
C42 H66 0.931 . S
C43 C42 1.386 . S
C43 C47 1.397 1_565 S
C44 C42 1.397 . S
C44 C45 1.384 . S
C44 H67 0.930 . S
C45 C44 1.384 . S
C45 C46 1.377 1_565 S
C45 C48 1.481 . S
C46 C45 1.377 1_545 S
C46 C47 1.389 . S
C46 H68 0.929 . S
C47 C43 1.397 1_545 S
C47 C46 1.389 . S
C47 H69 0.931 . S
C48 C45 1.481 . S
C48 C49 1.387 . S
C48 C53 1.390 1_465 S
C49 C48 1.387 . S
C49 C50 1.401 . S
C49 H70 0.930 . S
C50 C49 1.401 . S
C50 C51 1.376 1_565 S
C50 C59 1.511 . S
C51 C50 1.376 1_545 S
C51 C52 1.392 1_455 S
C51 H72 0.931 . S
C52 C51 1.392 1_655 S
C52 C53 1.361 . S
C52 C54 1.500 . S
C53 C48 1.390 1_645 S
C53 C52 1.361 . S
C53 H71 0.931 . S
C54 C52 1.500 . S
C54 C55 1.371 . S
C54 C56 1.365 . S
C55 C54 1.371 . S
C55 C65 1.386 . S
C55 H73 0.931 . S
C56 C54 1.365 . S
C56 C57 1.409 . S
C56 H74 0.929 . S
C57 C56 1.409 . S
C57 C58 1.380 . S
C57 H75 0.930 . S
C58 C57 1.380 . S
C58 C65 1.357 . S
C59 C50 1.511 . S
C59 C60 1.341 . S
C59 C61 1.371 . S
C60 C59 1.341 . S
C60 C64 1.394 . S
C60 H76 0.930 . S
C61 C59 1.371 . S
C61 C62 1.392 . S
C61 H77 0.931 . S
C62 C61 1.392 . S
C62 C63 1.331 . S
C62 H80 0.932 . S
C63 C62 1.331 . S
C63 C64 1.336 . S
C64 C60 1.394 . S
C64 C63 1.336 . S
C64 H79 0.929 . S
C65 C55 1.386 . S
C65 C58 1.357 . S
C65 H78 0.928 . S
H66 C42 0.931 . S
H67 C44 0.930 . S
H68 C46 0.929 . S
H69 C47 0.931 . S
H70 C49 0.930 . S
H71 C53 0.931 . S
H72 C51 0.931 . S
H73 C55 0.931 . S
H74 C56 0.929 . S
H75 C57 0.930 . S
H76 C60 0.930 . S
H77 C61 0.931 . S
H78 C65 0.928 . S
H79 C64 0.929 . S
H80 C62 0.932 . S
C81 C82 1.386 . S
C81 C83 1.397 . S
C81 H105 0.931 . S
C82 C81 1.386 . S
C82 C86 1.397 . S
C83 C81 1.397 . S
C83 C84 1.384 . S
C83 H106 0.930 . S
C84 C83 1.384 . S
C84 C85 1.377 . S
C84 C87 1.481 . S
C85 C84 1.377 . S
C85 C86 1.389 . S
C85 H107 0.929 1_545 S
C86 C82 1.397 . S
C86 C85 1.389 . S
C86 H108 0.931 1_545 S
C87 C84 1.481 . S
C87 C88 1.387 . S
C87 C92 1.390 1_455 S
C88 C87 1.387 . S
C88 C89 1.401 . S
C88 H109 0.930 . S
C89 C88 1.401 . S
C89 C90 1.376 1_455 S
C89 C98 1.511 . S
C90 C89 1.376 1_655 S
C90 C91 1.392 . S
C90 H111 0.931 . S
C91 C90 1.392 . S
C91 C92 1.361 . S
C91 C93 1.500 1_545 S
C92 C87 1.390 1_655 S
C92 C91 1.361 . S
C92 H110 0.931 1_545 S
C93 C91 1.500 1_565 S
C93 C94 1.371 . S
C93 C95 1.365 . S
C94 C93 1.371 . S
C94 C104 1.386 . S
C94 H112 0.931 1_565 S
C95 C93 1.365 . S
C95 C96 1.409 . S
C95 H113 0.929 . S
C96 C95 1.409 . S
C96 C97 1.380 . S
C96 H114 0.930 . S
C97 C96 1.380 . S
C97 C104 1.357 . S
C98 C89 1.511 . S
C98 C99 1.341 . S
C98 C100 1.371 . S
C99 C98 1.341 . S
C99 C103 1.394 . S
C99 H115 0.930 . S
C100 C98 1.371 . S
C100 C101 1.392 . S
C100 H116 0.931 . S
C101 C100 1.392 . S
C101 C102 1.331 . S
C101 H119 0.932 . S
C102 C101 1.331 . S
C102 C103 1.336 . S
C103 C99 1.394 . S
C103 C102 1.336 . S
C103 H118 0.929 . S
C104 C94 1.386 . S
C104 C97 1.357 . S
C104 H117 0.928 . S
H105 C81 0.931 . S
H106 C83 0.930 . S
H107 C85 0.929 1_565 S
H108 C86 0.931 1_565 S
H109 C88 0.930 . S
H110 C92 0.931 1_565 S
H111 C90 0.931 . S
H112 C94 0.931 1_545 S
H113 C95 0.929 . S
H114 C96 0.930 . S
H115 C99 0.930 . S
H116 C100 0.931 . S
H117 C104 0.928 . S
H118 C103 0.929 . S
H119 C101 0.932 . S
C120 C121 1.386 . S
C120 C122 1.397 . S
C120 H144 0.931 . S
C121 C120 1.386 . S
C121 C125 1.397 . S
C122 C120 1.397 . S
C122 C123 1.384 . S
C122 H145 0.930 . S
C123 C122 1.384 . S
C123 C124 1.377 . S
C123 C126 1.481 . S
C124 C123 1.377 . S
C124 C125 1.389 . S
C124 H146 0.929 . S
C125 C121 1.397 . S
C125 C124 1.389 . S
C125 H147 0.931 . S
C126 C123 1.481 . S
C126 C127 1.387 . S
C126 C131 1.390 . S
C127 C126 1.387 . S
C127 C128 1.401 . S
C127 H148 0.930 . S
C128 C127 1.401 . S
C128 C129 1.376 . S
C128 C137 1.511 . S
C129 C128 1.376 . S
C129 C130 1.392 . S
C129 H150 0.931 1_556 S
C130 C129 1.392 . S
C130 C131 1.361 . S
C130 C132 1.500 . S
C131 C126 1.390 . S
C131 C130 1.361 . S
C131 H149 0.931 . S
C132 C130 1.500 . S
C132 C133 1.371 1_556 S
C132 C134 1.365 . S
C133 C132 1.371 1_554 S
C133 C143 1.386 . S
C133 H151 0.931 . S
C134 C132 1.365 . S
C134 C135 1.409 . S
C134 H152 0.929 . S
C135 C134 1.409 . S
C135 C136 1.380 1_556 S
C135 H153 0.930 . S
C136 C135 1.380 1_554 S
C136 C143 1.357 . S
C137 C128 1.511 . S
C137 C138 1.341 . S
C137 C139 1.371 1_556 S
C138 C137 1.341 . S
C138 C142 1.394 . S
C138 H154 0.930 . S
C139 C137 1.371 1_554 S
C139 C140 1.392 . S
C139 H155 0.931 . S
C140 C139 1.392 . S
C140 C141 1.331 . S
C140 H158 0.932 . S
C141 C140 1.331 . S
C141 C142 1.336 1_554 S
C142 C138 1.394 . S
C142 C141 1.336 1_556 S
C142 H157 0.929 . S
C143 C133 1.386 . S
C143 C136 1.357 . S
C143 H156 0.928 . S
H144 C120 0.931 . S
H145 C122 0.930 . S
H146 C124 0.929 . S
H147 C125 0.931 . S
H148 C127 0.930 . S
H149 C131 0.931 . S
H150 C129 0.931 1_554 S
H151 C133 0.931 . S
H152 C134 0.929 . S
H153 C135 0.930 . S
H154 C138 0.930 . S
H155 C139 0.931 . S
H156 C143 0.928 . S
H157 C142 0.929 . S
H158 C140 0.932 . S
C159 C160 1.386 . S
C159 C161 1.397 . S
C159 H183 0.931 . S
C160 C159 1.386 . S
C160 C164 1.397 . S
C161 C159 1.397 . S
C161 C162 1.384 . S
C161 H184 0.930 . S
C162 C161 1.384 . S
C162 C163 1.377 . S
C162 C165 1.481 . S
C163 C162 1.377 . S
C163 C164 1.389 . S
C163 H185 0.929 . S
C164 C160 1.397 . S
C164 C163 1.389 . S
C164 H186 0.931 . S
C165 C162 1.481 . S
C165 C166 1.387 . S
C165 C170 1.390 . S
C166 C165 1.387 . S
C166 C167 1.401 . S
C166 H187 0.930 . S
C167 C166 1.401 . S
C167 C168 1.376 . S
C167 C176 1.511 . S
C168 C167 1.376 . S
C168 C169 1.392 . S
C168 H189 0.931 . S
C169 C168 1.392 . S
C169 C170 1.361 . S
C169 C171 1.500 . S
C170 C165 1.390 . S
C170 C169 1.361 . S
C170 H188 0.931 . S
C171 C169 1.500 . S
C171 C172 1.371 1_554 S
C171 C173 1.365 . S
C172 C171 1.371 1_556 S
C172 C182 1.386 . S
C172 H190 0.931 . S
C173 C171 1.365 . S
C173 C174 1.409 . S
C173 H191 0.929 . S
C174 C173 1.409 . S
C174 C175 1.380 1_554 S
C174 H192 0.930 . S
C175 C174 1.380 1_556 S
C175 C182 1.357 . S
C176 C167 1.511 . S
C176 C177 1.341 . S
C176 C178 1.371 1_554 S
C177 C176 1.341 . S
C177 C181 1.394 . S
C177 H193 0.930 . S
C178 C176 1.371 1_556 S
C178 C179 1.392 . S
C178 H194 0.931 . S
C179 C178 1.392 . S
C179 C180 1.331 . S
C179 H197 0.932 . S
C180 C179 1.331 . S
C180 C181 1.336 1_556 S
C181 C177 1.394 . S
C181 C180 1.336 1_554 S
C181 H196 0.929 . S
C182 C172 1.386 . S
C182 C175 1.357 . S
C182 H195 0.928 . S
H183 C159 0.931 . S
H184 C161 0.930 . S
H185 C163 0.929 . S
H186 C164 0.931 . S
H187 C166 0.930 . S
H188 C170 0.931 . S
H189 C168 0.931 . S
H190 C172 0.931 . S
H191 C173 0.929 . S
H192 C174 0.930 . S
H193 C177 0.930 . S
H194 C178 0.931 . S
H195 C182 0.928 . S
H196 C181 0.929 . S
H197 C179 0.932 . S
C175 C15 2.356 1_556 S
C13 C136 1.986 . S
C18 C180 1.402 1_554 S
C17 C141 1.667 1_556 S
C36 C97 2.356 . S
C34 C58 1.986 . S
C102 C39 1.401 . S
C63 C38 1.667 . S
C14 C43 1.606 1_545 S
C16 C82 1.465 . S
C121 C35 1.606 . S
C37 C160 1.466 . S
