# Generated by pormake.
# Topology tsx, (6,3)-cn, num edge types: 1
# Building blocks:
#     Node 0, Type 0, BuildingBlock: MIDCAF_clean_sbu_0, # of connection points: 6
#     Node 1, Type 0, BuildingBlock: MIDCAF_clean_sbu_0, # of connection points: 6
#     Node 2, Type 1, BuildingBlock: INOVEN_clean_linker_0, # of connection points: 3
#     Node 3, Type 1, BuildingBlock: INOVEN_clean_linker_0, # of connection points: 3
#     Node 4, Type 1, BuildingBlock: INOVEN_clean_linker_0, # of connection points: 3
#     Node 5, Type 1, BuildingBlock: INOVEN_clean_linker_0, # of connection points: 3
#     Edge 6, Type (0, 1), None
#     Edge 7, Type (0, 1), None
#     Edge 8, Type (0, 1), None
#     Edge 9, Type (0, 1), None
#     Edge 10, Type (0, 1), None
#     Edge 11, Type (0, 1), None
#     Edge 12, Type (0, 1), None
#     Edge 13, Type (0, 1), None
#     Edge 14, Type (0, 1), None
#     Edge 15, Type (0, 1), None
#     Edge 16, Type (0, 1), None
#     Edge 17, Type (0, 1), None
# Relax obj value: 0.071
# Max RMSD: 0.143
# Mean RMSD: 0.094
data_MOF--net-tsx--node1-MIDCAF_clean_sbu_0--node2-INOVEN_clean_linker_0--edge1-none
_symmetry_space_group_name_H-M    P1
_symmetry_Int_Tables_number       1
_symmetry_cell_setting            triclinic
loop_
_symmetry_equiv_pos_as_xyz
'x, y, z'
_cell_length_a     7.8460188
_cell_length_b     9.9611604
_cell_length_c     16.595107
_cell_angle_alpha  90.004627
_cell_angle_beta   104.58189
_cell_angle_gamma 89.99874
loop_
_atom_site_label
_atom_site_type_symbol
_atom_site_fract_x
_atom_site_fract_y
_atom_site_fract_z
_atom_type_partial_charge
Zn0 Zn 0.67451 0.91678 0.84334 0.0
Zn1 Zn 0.2953 -0.0237 -0.04231 0.0
Zn2 Zn 0.97665 -0.03744 -0.04783 0.0
C3 C 0.18169 0.21363 0.00607 0.0
C4 C 0.23212 0.76413 0.86436 0.0
O5 O 0.83447 0.84192 0.01405 0.0
O6 O 0.65287 0.7502 0.90689 0.0
C7 C 0.6829 0.18028 0.86566 0.0
O8 O 0.08756 0.12725 0.03149 0.0
O9 O 0.25714 0.17918 -0.04997 0.0
O10 O 0.33847 0.86028 0.86707 0.0
O11 O 0.09722 0.7833 0.89442 0.0
O12 O 0.56022 0.09618 0.86111 0.0
O13 O 0.84276 0.13894 0.88776 0.0
O14 O 1.02677 -0.02136 0.83152 0.0
O15 O 0.78186 0.90917 0.74537 0.0
C16 C 0.93864 0.95105 0.75782 0.0
O17 O 0.12033 -0.01492 0.08022 0.0
O18 O 0.37172 0.89391 0.07582 0.0
C19 C 0.71934 0.75502 -0.01578 0.0
C20 C 0.26595 0.93002 0.11793 0.0
Zn21 Zn 0.05483 0.41682 0.55247 0.0
Zn22 Zn 0.43404 0.47636 0.43811 0.0
Zn23 Zn 0.75272 0.4626 0.44365 0.0
C24 C 0.46343 0.43004 0.27787 0.0
C25 C 0.54772 0.71368 0.38975 0.0
O26 O 0.70256 0.47858 0.56429 0.0
O27 O 0.94752 0.40924 0.65045 0.0
C28 C 1.00993 0.25501 0.41158 0.0
O29 O 0.60906 0.48509 0.31559 0.0
O30 O 0.35764 0.39396 0.31999 0.0
O31 O 0.47222 0.67924 0.44577 0.0
O32 O 0.64184 0.62728 0.36433 0.0
O33 O 0.0764 0.25022 0.48891 0.0
O34 O 0.89481 0.34192 0.38174 0.0
O35 O 0.88665 0.63899 0.50803 0.0
O36 O 0.16918 0.59618 0.53469 0.0
C37 C 1.04652 0.6803 0.53014 0.0
O38 O 0.63209 0.28338 0.5014 0.0
O39 O 0.39078 0.36034 0.52871 0.0
C40 C 0.79071 0.45104 0.638 0.0
C41 C 0.49714 0.26419 0.53143 0.0
H42 H 0.47118 0.94534 0.45034 0.0
H43 H 0.4942 0.75936 0.22108 0.0
H44 H 0.12664 0.07781 0.22179 0.0
N45 N 0.21345 0.10733 0.38864 0.0
N46 N 0.07803 0.17318 0.35836 0.0
C47 C 0.42686 0.93945 0.38333 0.0
C48 C 0.48635 0.83568 0.34177 0.0
C49 C 0.29357 0.02335 0.34091 0.0
C50 C 0.23537 0.01562 0.2542 0.0
C51 C 0.31851 0.92824 0.20974 0.0
C52 C 0.44316 0.83606 0.25419 0.0
H53 H 0.28736 0.88418 0.52217 0.0
H54 H 0.89163 0.76021 0.64399 0.0
H55 H 0.18597 0.11964 0.72338 0.0
N56 N 0.34358 0.13224 0.60286 0.0
N57 N 0.45416 0.13599 0.56009 0.0
C58 C 0.219 0.90007 0.56986 0.0
C59 C 0.0858 0.80798 0.57736 0.0
C60 C 0.25301 0.0161 0.62145 0.0
C61 C 0.1611 0.0319 0.68342 0.0
C62 C 1.02978 0.94078 0.69077 0.0
C63 C 0.99071 0.83198 0.63656 0.0
H64 H 0.44197 0.38411 0.87362 0.0
H65 H 0.83779 0.26021 0.75182 0.0
H66 H 0.54332 0.61957 0.67242 0.0
N67 N 0.3857 0.63216 0.79294 0.0
N68 N 0.27513 0.63591 0.83572 0.0
C69 C 0.51034 0.4 0.82593 0.0
C70 C 0.64358 0.30794 0.81844 0.0
C71 C 0.4763 0.51603 0.77435 0.0
C72 C 0.56821 0.53184 0.71238 0.0
C73 C 0.69957 0.44075 0.70503 0.0
C74 C 0.73867 0.33196 0.75924 0.0
H75 H 0.25816 0.44528 0.94547 0.0
H76 H 0.23519 0.25936 0.17473 0.0
H77 H 0.60272 0.57781 0.17401 0.0
N78 N 0.51586 0.60731 0.00716 0.0
N79 N 0.65126 0.6732 0.03743 0.0
C80 C 0.30249 0.43942 0.01247 0.0
C81 C 0.24301 0.33565 0.05405 0.0
C82 C 0.43577 0.52333 0.0549 0.0
C83 C 0.49399 0.51562 0.1416 0.0
C84 C 0.41086 0.42824 0.18607 0.0
C85 C 0.28622 0.33605 0.14163 0.0
loop_
_geom_bond_atom_site_label_1
_geom_bond_atom_site_label_2
_geom_bond_distance
_geom_bond_site_symmetry_2
_ccdc_geom_bond_type
Zn0 O6 1.915 1_545 S
Zn0 O12 1.906 . S
Zn0 O15 1.902 1_545 S
Zn1 O9 1.905 . S
Zn1 O10 1.898 1_545 S
Zn1 O18 1.920 1_545 S
Zn2 O5 2.081 1_444 S
Zn2 O8 2.112 . S
Zn2 O11 2.119 1_545 S
Zn2 O13 2.122 1_454 S
Zn2 O14 2.103 1_554 S
Zn2 O17 2.091 . S
C3 O8 1.166 . S
C3 O9 1.182 . S
C4 O10 1.167 . S
C4 O11 1.299 . S
O5 Zn2 2.081 1_666 S
O5 C19 1.305 . S
O6 Zn0 1.915 1_565 S
O6 C19 1.234 . S
C7 O12 1.167 . S
C7 O13 1.300 . S
O8 Zn2 2.112 . S
O8 C3 1.166 . S
O9 Zn1 1.905 . S
O9 C3 1.182 . S
O10 Zn1 1.898 1_565 S
O10 C4 1.167 . S
O11 Zn2 2.119 1_565 S
O11 C4 1.299 . S
O12 Zn0 1.906 . S
O12 C7 1.167 . S
O13 Zn2 2.122 1_656 S
O13 C7 1.300 . S
O14 Zn2 2.103 1_556 S
O14 C16 1.166 1_445 S
O15 Zn0 1.902 1_565 S
O15 C16 1.182 . S
C16 O14 1.166 1_665 S
C16 O15 1.182 . S
O17 Zn2 2.091 . S
O17 C20 1.305 1_545 S
O18 Zn1 1.920 1_565 S
O18 C20 1.234 . S
C19 O5 1.305 . S
C19 O6 1.234 . S
C20 O17 1.305 1_565 S
C20 O18 1.234 . S
Zn21 O27 1.920 . S
Zn21 O33 1.898 . S
Zn21 O36 1.905 . S
Zn22 O30 1.905 . S
Zn22 O31 1.898 . S
Zn22 O39 1.920 . S
Zn23 O26 2.080 . S
Zn23 O29 2.114 . S
Zn23 O32 2.120 . S
Zn23 O34 2.120 . S
Zn23 O35 2.114 . S
Zn23 O38 2.080 . S
C24 O29 1.166 . S
C24 O30 1.182 . S
C25 O31 1.167 . S
C25 O32 1.299 . S
O26 Zn23 2.080 . S
O26 C40 1.305 . S
O27 Zn21 1.920 . S
O27 C40 1.234 . S
C28 O33 1.167 . S
C28 O34 1.299 . S
O29 Zn23 2.114 . S
O29 C24 1.166 . S
O30 Zn22 1.905 . S
O30 C24 1.182 . S
O31 Zn22 1.898 . S
O31 C25 1.167 . S
O32 Zn23 2.120 . S
O32 C25 1.299 . S
O33 Zn21 1.898 . S
O33 C28 1.167 . S
O34 Zn23 2.120 . S
O34 C28 1.299 . S
O35 Zn23 2.114 . S
O35 C37 1.166 . S
O36 Zn21 1.905 . S
O36 C37 1.182 . S
C37 O35 1.166 . S
C37 O36 1.182 . S
O38 Zn23 2.080 . S
O38 C41 1.305 . S
O39 Zn22 1.920 . S
O39 C41 1.234 . S
C40 O26 1.305 . S
C40 O27 1.234 . S
C41 O38 1.305 . S
C41 O39 1.234 . S
H42 C47 0.929 . S
H43 C52 0.931 . S
H44 C50 0.930 1_655 S
N45 N46 1.234 . S
N45 C49 1.453 1_655 S
N46 N45 1.234 . S
C47 H42 0.929 . S
C47 C48 1.373 . S
C47 C49 1.368 1_565 S
C48 C47 1.373 . S
C48 C52 1.397 . S
C49 N45 1.453 1_455 S
C49 C47 1.368 1_545 S
C49 C50 1.373 . S
C50 H44 0.930 1_455 S
C50 C49 1.373 . S
C50 C51 1.371 1_545 S
C51 C50 1.371 1_565 S
C51 C52 1.383 . S
C52 H43 0.931 . S
C52 C48 1.397 . S
C52 C51 1.383 . S
H53 C58 0.929 . S
H54 C63 0.931 . S
H55 C61 0.930 . S
N56 N57 1.234 . S
N56 C60 1.453 . S
N57 N56 1.234 . S
C58 H53 0.929 . S
C58 C59 1.373 . S
C58 C60 1.368 1_665 S
C59 C58 1.373 . S
C59 C63 1.397 . S
C60 N56 1.453 . S
C60 C58 1.368 1_445 S
C60 C61 1.373 . S
C61 H55 0.930 . S
C61 C60 1.373 . S
C61 C62 1.371 1_445 S
C62 C61 1.371 1_665 S
C62 C63 1.383 . S
C63 H54 0.931 . S
C63 C59 1.397 . S
C63 C62 1.383 . S
H64 C69 0.929 1_554 S
H65 C74 0.931 . S
H66 C72 0.930 . S
N67 N68 1.231 1_554 S
N67 C71 1.446 1_554 S
N68 N67 1.231 1_556 S
C69 H64 0.929 1_556 S
C69 C70 1.373 . S
C69 C71 1.368 . S
C70 C69 1.373 . S
C70 C74 1.397 . S
C71 N67 1.446 1_556 S
C71 C69 1.368 . S
C71 C72 1.373 . S
C72 H66 0.930 . S
C72 C71 1.373 . S
C72 C73 1.371 . S
C73 C72 1.371 . S
C73 C74 1.383 . S
C74 H65 0.931 . S
C74 C70 1.397 . S
C74 C73 1.383 . S
H75 C80 0.929 1_556 S
H76 C85 0.931 . S
H77 C83 0.930 . S
N78 N79 1.234 . S
N78 C82 1.453 . S
N79 N78 1.234 . S
C80 H75 0.929 1_554 S
C80 C81 1.373 . S
C80 C82 1.368 . S
C81 C80 1.373 . S
C81 C85 1.397 . S
C82 N78 1.453 . S
C82 C80 1.368 . S
C82 C83 1.373 . S
C83 H77 0.930 . S
C83 C82 1.373 . S
C83 C84 1.371 . S
C84 C83 1.371 . S
C84 C85 1.383 . S
C85 H76 0.931 . S
C85 C81 1.397 . S
C85 C84 1.383 . S
C81 C3 1.198 . S
C4 N68 1.409 1_554 S
C19 N79 1.453 1_556 S
C7 C70 1.206 . S
C37 C59 1.198 . S
C28 N46 1.409 . S
N57 C41 1.453 . S
C48 C25 1.206 . S
C20 C51 1.373 . S
C16 C62 1.432 . S
C73 C40 1.373 . S
C24 C84 1.432 . S
