# Generated by pormake.
# Topology anh, (6,3)-cn, num edge types: 1
# Building blocks:
#     Node 0, Type 0, BuildingBlock: BETFEN_clean_sbu_0, # of connection points: 6
#     Node 1, Type 0, BuildingBlock: BETFEN_clean_sbu_0, # of connection points: 6
#     Node 2, Type 0, BuildingBlock: BETFEN_clean_sbu_0, # of connection points: 6
#     Node 3, Type 1, BuildingBlock: ESEHIV_clean_linker_0, # of connection points: 3
#     Node 4, Type 1, BuildingBlock: ESEHIV_clean_linker_0, # of connection points: 3
#     Node 5, Type 1, BuildingBlock: ESEHIV_clean_linker_0, # of connection points: 3
#     Node 6, Type 1, BuildingBlock: ESEHIV_clean_linker_0, # of connection points: 3
#     Node 7, Type 1, BuildingBlock: ESEHIV_clean_linker_0, # of connection points: 3
#     Node 8, Type 1, BuildingBlock: ESEHIV_clean_linker_0, # of connection points: 3
#     Edge 9, Type (0, 1), None
#     Edge 10, Type (0, 1), None
#     Edge 11, Type (0, 1), None
#     Edge 12, Type (0, 1), None
#     Edge 13, Type (0, 1), None
#     Edge 14, Type (0, 1), None
#     Edge 15, Type (0, 1), None
#     Edge 16, Type (0, 1), None
#     Edge 17, Type (0, 1), None
#     Edge 18, Type (0, 1), None
#     Edge 19, Type (0, 1), None
#     Edge 20, Type (0, 1), None
#     Edge 21, Type (0, 1), None
#     Edge 22, Type (0, 1), None
#     Edge 23, Type (0, 1), None
#     Edge 24, Type (0, 1), None
#     Edge 25, Type (0, 1), None
#     Edge 26, Type (0, 1), None
# Relax obj value: 0.508
# Max RMSD: 0.353
# Mean RMSD: 0.227
data_MOF--net-anh--node1-BETFEN_clean_sbu_0--node2-ESEHIV_clean_linker_0--edge1-none
_symmetry_space_group_name_H-M    P1
_symmetry_Int_Tables_number       1
_symmetry_cell_setting            triclinic
loop_
_symmetry_equiv_pos_as_xyz
'x, y, z'
_cell_length_a     11.445342
_cell_length_b     13.297692
_cell_length_c     22.632449
_cell_angle_alpha  88.747265
_cell_angle_beta   92.781918
_cell_angle_gamma 88.703715
loop_
_atom_site_label
_atom_site_type_symbol
_atom_site_fract_x
_atom_site_fract_y
_atom_site_fract_z
_atom_type_partial_charge
Pr0 Pr 0.12083 0.55041 0.12514 0.0
Pr1 Pr 0.10923 0.75422 0.11264 0.0
C2 C 0.09168 0.356 0.15462 0.0
C3 C 0.99824 0.30842 0.18652 0.0
C4 C 0.93202 0.23326 0.15967 0.0
C5 C 0.8297 0.20153 0.18469 0.0
C6 C 0.78959 0.24749 0.23574 0.0
C7 C 0.85899 0.3201 0.26352 0.0
C8 C 0.96302 0.34872 0.23964 0.0
C9 C 0.12729 0.60708 0.00542 0.0
C10 C 0.85036 0.65484 0.10696 0.0
C11 C 0.13882 0.95237 0.09489 0.0
C12 C 0.22063 1.02047 0.12584 0.0
C13 C 0.18381 1.07749 0.17341 0.0
C14 C 0.26467 1.12875 0.20913 0.0
C15 C 0.38484 1.12206 0.19891 0.0
C16 C 0.42063 1.06758 0.1499 0.0
C17 C 0.33956 1.01883 0.11341 0.0
C18 C 0.08659 0.70044 0.23218 0.0
C19 C 0.38292 0.64145 0.11053 0.0
O20 O 0.16049 0.41465 0.18528 0.0
O21 O 0.05864 0.39481 0.10294 0.0
O22 O 0.05598 0.64311 0.04062 0.0
O23 O 0.20151 0.54446 0.03217 0.0
O24 O 0.91056 0.72698 0.08219 0.0
O25 O 0.91253 0.58154 0.1353 0.0
O26 O 0.18517 0.88405 0.06195 0.0
O27 O 0.05611 0.91675 0.1264 0.0
O28 O 0.16262 0.66239 0.19974 0.0
O29 O 1.02184 0.7669 0.20315 0.0
O30 O 0.32855 0.55936 0.12627 0.0
O31 O 0.31707 0.72382 0.09862 0.0
H32 H 0.95763 0.20126 0.11848 0.0
H33 H 0.78076 1.14285 0.16307 0.0
H34 H 0.83106 0.35843 0.30228 0.0
H35 H 1.01311 0.40612 0.26117 0.0
H36 H 0.09306 1.07876 0.18471 0.0
H37 H 0.23296 0.17136 0.24553 0.0
H38 H 0.51216 1.05811 0.14088 0.0
H39 H 0.37145 0.97535 0.07735 0.0
Pr40 Pr 0.59868 0.20505 0.53208 0.0
Pr41 Pr 0.49467 0.20048 0.52531 0.0
C42 C 0.81457 0.27335 0.5054 0.0
C43 C 0.86893 0.36148 0.47633 0.0
C44 C 0.84812 0.46064 0.49444 0.0
C45 C 0.90097 0.54235 0.46675 0.0
C46 C 0.9775 0.52734 0.42057 0.0
C47 C 0.9997 0.42766 0.40336 0.0
C48 C 0.94586 0.34613 0.43065 0.0
C49 C 0.60992 0.15492 0.65099 0.0
C50 C 0.54347 0.47872 0.52143 0.0
C51 C 0.26872 1.14204 0.51757 0.0
C52 C 0.21915 1.05222 0.48729 0.0
C53 C 0.1626 1.06125 0.43076 0.0
C54 C 0.12681 0.97544 0.40009 0.0
C55 C 0.14669 0.87787 0.42499 0.0
C56 C 0.20102 0.86932 0.4821 0.0
C57 C 0.23611 0.95492 0.51279 0.0
C58 C 0.53084 0.20611 0.40422 0.0
C59 C 0.54087 0.92677 0.51713 0.0
O60 O 0.75421 0.21327 0.47208 0.0
O61 O 0.76696 0.2867 0.5556 0.0
O62 O 0.5327 0.21234 0.62579 0.0
O63 O 0.68537 1.12074 0.61493 0.0
O64 O 0.52038 0.38907 0.55034 0.0
O65 O 0.52187 0.3878 0.54863 0.0
O66 O 0.33871 1.12385 0.56352 0.0
O67 O 0.3073 0.21408 0.48462 0.0
O68 O 0.55952 1.13669 0.44048 0.0
O69 O 0.50171 0.28671 0.43197 0.0
O70 O 0.5691 1.01317 0.54695 0.0
O71 O 0.56704 1.01492 0.54481 0.0
H72 H 0.7909 0.47542 0.53008 0.0
H73 H 0.88022 0.61752 0.48109 0.0
H74 H 0.05984 0.41227 0.36905 0.0
H75 H 0.96496 0.27065 0.41616 0.0
H76 H 0.14778 1.13468 0.4097 0.0
H77 H 0.08342 0.98581 0.35674 0.0
H78 H 0.21959 0.79608 0.50271 0.0
H79 H 0.27957 0.94419 0.55613 0.0
Pr80 Pr 0.59731 0.53582 0.80975 0.0
Pr81 Pr 0.58322 0.73262 0.83191 0.0
C82 C 0.69074 0.36537 0.77514 0.0
C83 C 0.79888 0.315 0.79993 0.0
C84 C 0.80672 0.28389 0.86031 0.0
C85 C 0.85136 0.18612 0.87382 0.0
C86 C 0.85787 1.12287 0.82481 0.0
C87 C 0.92036 0.17086 0.78017 0.0
C88 C 0.87493 0.26654 0.76185 0.0
C89 C 0.60334 0.56639 0.93145 0.0
C90 C 0.85769 0.65391 0.82808 0.0
C91 C 0.51243 0.88322 0.89983 0.0
C92 C 0.41792 0.95867 0.90123 0.0
C93 C 0.44272 1.04405 0.93462 0.0
C94 C 0.4371 1.13787 0.90516 0.0
C95 C 0.42045 1.13699 0.84319 0.0
C96 C 0.34064 1.06602 0.82153 0.0
C97 C 0.34534 0.97133 0.84966 0.0
C98 C 0.57762 0.70927 0.70761 0.0
C99 C 0.32248 0.61617 0.81738 0.0
O100 O 0.70327 0.44886 0.74496 0.0
O101 O 0.60132 0.36698 0.80928 0.0
O102 O 0.66394 0.61049 0.89434 0.0
O103 O 0.53303 0.50382 0.906 0.0
O104 O 0.79139 0.72877 0.84624 0.0
O105 O 0.80313 0.57392 0.80843 0.0
O106 O 0.4839 0.78993 0.90888 0.0
O107 O 0.58509 0.89487 0.85699 0.0
O108 O 0.52257 0.65533 0.74326 0.0
O109 O 0.62896 0.78272 0.73533 0.0
O110 O 0.3861 0.53488 0.80533 0.0
O111 O 0.37902 0.6994 0.82884 0.0
H112 H 0.76137 0.32479 0.89354 0.0
H113 H 0.84041 0.15442 0.91763 0.0
H114 H 0.96642 1.12634 0.74882 0.0
H115 H 0.88275 0.29263 0.71658 0.0
H116 H 0.49088 1.03686 0.97697 0.0
H117 H 0.48195 0.19969 0.92597 0.0
H118 H 0.30675 1.07076 0.776 0.0
H119 H 0.3162 0.90686 0.825 0.0
H120 H 0.37621 0.14539 0.31976 0.0
H121 H 0.72655 0.24329 0.35074 0.0
H122 H 0.59238 0.20146 0.17243 0.0
C123 C 0.45728 0.16961 0.30183 0.0
C124 C 0.47407 0.16565 0.24062 0.0
C125 C 0.54734 0.20149 0.34075 0.0
C126 C 0.65605 0.22474 0.31949 0.0
C127 C 0.67424 0.22255 0.25869 0.0
C128 C 0.58117 0.19709 0.21961 0.0
H129 H 0.57105 0.86674 0.6331 0.0
H130 H 0.55219 0.54153 0.64002 0.0
H131 H 0.53263 0.7023 0.47003 0.0
C132 C 0.56301 0.79801 0.60852 0.0
C133 C 0.54968 0.80738 0.5465 0.0
C134 C 0.56231 0.70471 0.64104 0.0
C135 C 0.55001 0.60917 0.61241 0.0
C136 C 0.5413 0.59772 0.54988 0.0
C137 C 0.54042 0.70247 0.51784 0.0
H138 H 0.93018 0.65474 0.93954 0.0
H139 H 0.29322 0.58062 0.92795 0.0
H140 H 0.0789 0.63663 0.76792 0.0
C141 C 1.00384 0.64127 0.91242 0.0
C142 C 0.986 0.64329 0.85054 0.0
C143 C 0.11298 0.61639 0.94016 0.0
C144 C 0.2092 0.59798 0.90588 0.0
C145 C 0.20255 0.60876 0.8441 0.0
C146 C 0.08804 0.62941 0.81564 0.0
H147 H 1.01163 0.55263 0.30261 0.0
H148 H 0.15779 0.84563 0.30604 0.0
H149 H 0.05709 0.70288 0.46822 0.0
C150 C 1.04469 0.61432 0.32797 0.0
C151 C 1.03195 0.61489 0.38968 0.0
C152 C 0.09126 0.69636 0.29784 0.0
C153 C 0.12392 0.78176 0.32974 0.0
C154 C 0.11247 0.78552 0.39151 0.0
C155 C 0.06699 0.70101 0.42093 0.0
H156 H 0.78655 1.06317 0.71248 0.0
H157 H 0.43979 0.18572 0.7273 0.0
H158 H 0.65046 1.09856 0.8835 0.0
C159 C 0.71568 1.08351 0.74028 0.0
C160 C 0.73755 1.08969 0.80176 0.0
C161 C 0.61423 1.12904 0.7139 0.0
C162 C 0.52071 0.15549 0.74824 0.0
C163 C 0.52909 1.13818 0.80934 0.0
C164 C 0.63881 1.10573 0.8359 0.0
H165 H 0.42229 0.58359 0.0031 0.0
H166 H 0.79395 0.59952 -0.00013 0.0
H167 H 0.62135 0.67261 0.15977 0.0
C168 C 0.50458 0.59864 0.02599 0.0
C169 C 0.5046 0.63054 0.08487 0.0
C170 C 0.60766 0.58957 -0.00474 0.0
C171 C 0.71537 0.60868 0.02406 0.0
C172 C 0.7249 0.63696 0.08338 0.0
C173 C 0.6174 0.64891 0.11429 0.0
loop_
_geom_bond_atom_site_label_1
_geom_bond_atom_site_label_2
_geom_bond_distance
_geom_bond_site_symmetry_2
_ccdc_geom_bond_type
Pr0 C2 2.880 1_455 S
Pr0 O20 2.562 1_455 S
Pr0 O21 2.490 1_455 S
Pr0 O22 2.695 . S
Pr0 O23 2.512 . S
Pr0 O25 2.437 1_455 S
Pr0 O28 2.436 . S
Pr0 O30 2.438 . S
Pr1 C11 2.880 . S
Pr1 O22 2.436 . S
Pr1 O24 2.438 1_455 S
Pr1 O26 2.562 . S
Pr1 O27 2.490 . S
Pr1 O28 2.695 . S
Pr1 O29 2.512 . S
Pr1 O31 2.437 . S
C2 Pr0 2.880 1_655 S
C2 C3 1.491 . S
C2 O20 1.254 . S
C2 O21 1.225 . S
C3 C2 1.491 . S
C3 C4 1.392 . S
C3 C8 1.356 . S
C4 C3 1.392 . S
C4 C5 1.368 . S
C4 H32 0.929 . S
C5 C4 1.368 . S
C5 C6 1.386 . S
C5 H33 0.929 . S
C6 C5 1.386 . S
C6 C7 1.373 . S
C7 C6 1.373 . S
C7 C8 1.409 . S
C7 H34 0.931 . S
C8 C3 1.356 . S
C8 C7 1.409 . S
C8 H35 0.930 . S
C9 O22 1.270 . S
C9 O23 1.248 . S
C10 O24 1.267 . S
C10 O25 1.278 . S
C11 Pr1 2.880 . S
C11 C12 1.491 . S
C11 O26 1.254 . S
C11 O27 1.225 . S
C12 C11 1.491 . S
C12 C13 1.392 . S
C12 C17 1.356 . S
C13 C12 1.392 . S
C13 C14 1.368 . S
C13 H36 0.929 . S
C14 C13 1.368 . S
C14 C15 1.386 . S
C14 H37 0.929 . S
C15 C14 1.386 . S
C15 C16 1.373 . S
C16 C15 1.373 . S
C16 C17 1.409 . S
C16 H38 0.931 . S
C17 C12 1.356 . S
C17 C16 1.409 . S
C17 H39 0.930 . S
C18 O28 1.270 . S
C18 O29 1.248 . S
C19 O30 1.267 . S
C19 O31 1.278 . S
O20 Pr0 2.562 1_655 S
O20 C2 1.254 . S
O21 Pr0 2.490 1_655 S
O21 C2 1.225 . S
O22 Pr0 2.695 . S
O22 Pr1 2.436 . S
O22 C9 1.270 . S
O23 Pr0 2.512 . S
O23 C9 1.248 . S
O24 Pr1 2.438 1_655 S
O24 C10 1.267 . S
O25 Pr0 2.437 1_655 S
O25 C10 1.278 . S
O26 Pr1 2.562 . S
O26 C11 1.254 . S
O27 Pr1 2.490 . S
O27 C11 1.225 . S
O28 Pr0 2.436 . S
O28 Pr1 2.695 . S
O28 C18 1.270 . S
O29 Pr1 2.512 . S
O29 C18 1.248 . S
O30 Pr0 2.438 . S
O30 C19 1.267 . S
O31 Pr1 2.437 . S
O31 C19 1.278 . S
H32 C4 0.929 . S
H33 C5 0.929 . S
H34 C7 0.931 . S
H35 C8 0.930 . S
H36 C13 0.929 . S
H37 C14 0.929 . S
H38 C16 0.931 . S
H39 C17 0.930 . S
Pr40 C42 2.880 . S
Pr40 O60 2.562 . S
Pr40 O61 2.490 . S
Pr40 O62 2.695 1_545 S
Pr40 O63 2.512 . S
Pr40 O65 2.437 . S
Pr40 O68 2.436 . S
Pr40 O70 2.438 1_545 S
Pr41 C51 2.880 . S
Pr41 O62 2.436 . S
Pr41 O64 2.438 1_565 S
Pr41 O66 2.562 . S
Pr41 O67 2.490 . S
Pr41 O68 2.695 1_565 S
Pr41 O69 2.512 . S
Pr41 O71 2.437 . S
C42 Pr40 2.880 . S
C42 C43 1.491 . S
C42 O60 1.254 . S
C42 O61 1.225 . S
C43 C42 1.491 . S
C43 C44 1.392 . S
C43 C48 1.356 . S
C44 C43 1.392 . S
C44 C45 1.368 1_655 S
C44 H72 0.929 . S
C45 C44 1.368 1_455 S
C45 C46 1.386 . S
C45 H73 0.929 . S
C46 C45 1.386 . S
C46 C47 1.373 . S
C47 C46 1.373 . S
C47 C48 1.409 1_455 S
C47 H74 0.931 . S
C48 C43 1.356 . S
C48 C47 1.409 1_655 S
C48 H75 0.930 . S
C49 O62 1.270 1_545 S
C49 O63 1.248 . S
C50 O64 1.267 . S
C50 O65 1.278 . S
C51 Pr41 2.880 . S
C51 C52 1.491 . S
C51 O66 1.254 . S
C51 O67 1.225 . S
C52 C51 1.491 . S
C52 C53 1.392 . S
C52 C57 1.356 . S
C53 C52 1.392 . S
C53 C54 1.368 . S
C53 H76 0.929 . S
C54 C53 1.368 . S
C54 C55 1.386 . S
C54 H77 0.929 . S
C55 C54 1.386 . S
C55 C56 1.373 . S
C56 C55 1.373 . S
C56 C57 1.409 . S
C56 H78 0.931 . S
C57 C52 1.356 . S
C57 C56 1.409 . S
C57 H79 0.930 . S
C58 O68 1.270 . S
C58 O69 1.248 1_545 S
C59 O70 1.267 . S
C59 O71 1.278 . S
O60 Pr40 2.562 . S
O60 C42 1.254 . S
O61 Pr40 2.490 . S
O61 C42 1.225 . S
O62 Pr40 2.695 1_565 S
O62 Pr41 2.436 . S
O62 C49 1.270 1_565 S
O63 Pr40 2.512 . S
O63 C49 1.248 . S
O64 Pr41 2.438 1_545 S
O64 C50 1.267 . S
O65 Pr40 2.437 . S
O65 C50 1.278 . S
O66 Pr41 2.562 . S
O66 C51 1.254 . S
O67 Pr41 2.490 . S
O67 C51 1.225 . S
O68 Pr40 2.436 . S
O68 Pr41 2.695 1_545 S
O68 C58 1.270 . S
O69 Pr41 2.512 . S
O69 C58 1.248 1_565 S
O70 Pr40 2.438 1_565 S
O70 C59 1.267 . S
O71 Pr41 2.437 . S
O71 C59 1.278 . S
H72 C44 0.929 . S
H73 C45 0.929 . S
H74 C47 0.931 . S
H75 C48 0.930 . S
H76 C53 0.929 . S
H77 C54 0.929 . S
H78 C56 0.931 . S
H79 C57 0.930 . S
Pr80 C82 2.880 . S
Pr80 O100 2.562 . S
Pr80 O101 2.490 . S
Pr80 O102 2.695 . S
Pr80 O103 2.512 1_556 S
Pr80 O105 2.437 . S
Pr80 O108 2.436 . S
Pr80 O110 2.438 . S
Pr81 C91 2.880 . S
Pr81 O102 2.436 . S
Pr81 O104 2.438 . S
Pr81 O106 2.562 . S
Pr81 O107 2.490 . S
Pr81 O108 2.695 . S
Pr81 O109 2.512 . S
Pr81 O111 2.437 . S
C82 Pr80 2.880 . S
C82 C83 1.491 . S
C82 O100 1.254 . S
C82 O101 1.225 . S
C83 C82 1.491 . S
C83 C84 1.392 . S
C83 C88 1.356 . S
C84 C83 1.392 . S
C84 C85 1.368 . S
C84 H112 0.929 . S
C85 C84 1.368 . S
C85 C86 1.386 . S
C85 H113 0.929 . S
C86 C85 1.386 . S
C86 C87 1.373 . S
C87 C86 1.373 . S
C87 C88 1.409 . S
C87 H114 0.931 . S
C88 C83 1.356 . S
C88 C87 1.409 . S
C88 H115 0.930 . S
C89 O102 1.270 1_554 S
C89 O103 1.248 . S
C90 O104 1.267 . S
C90 O105 1.278 . S
C91 Pr81 2.880 . S
C91 C92 1.491 . S
C91 O106 1.254 . S
C91 O107 1.225 . S
C92 C91 1.491 . S
C92 C93 1.392 . S
C92 C97 1.356 . S
C93 C92 1.392 . S
C93 C94 1.368 . S
C93 H116 0.929 . S
C94 C93 1.368 . S
C94 C95 1.386 . S
C94 H117 0.929 1_565 S
C95 C94 1.386 . S
C95 C96 1.373 . S
C96 C95 1.373 . S
C96 C97 1.409 . S
C96 H118 0.931 . S
C97 C92 1.356 . S
C97 C96 1.409 . S
C97 H119 0.930 . S
C98 O108 1.270 . S
C98 O109 1.248 . S
C99 O110 1.267 . S
C99 O111 1.278 . S
O100 Pr80 2.562 . S
O100 C82 1.254 . S
O101 Pr80 2.490 . S
O101 C82 1.225 . S
O102 Pr80 2.695 . S
O102 Pr81 2.436 . S
O102 C89 1.270 1_556 S
O103 Pr80 2.512 1_554 S
O103 C89 1.248 . S
O104 Pr81 2.438 . S
O104 C90 1.267 . S
O105 Pr80 2.437 . S
O105 C90 1.278 . S
O106 Pr81 2.562 . S
O106 C91 1.254 . S
O107 Pr81 2.490 . S
O107 C91 1.225 . S
O108 Pr80 2.436 . S
O108 Pr81 2.695 . S
O108 C98 1.270 . S
O109 Pr81 2.512 . S
O109 C98 1.248 . S
O110 Pr80 2.438 . S
O110 C99 1.267 . S
O111 Pr81 2.437 . S
O111 C99 1.278 . S
H112 C84 0.929 . S
H113 C85 0.929 . S
H114 C87 0.931 . S
H115 C88 0.930 . S
H116 C93 0.929 . S
H117 C94 0.929 1_545 S
H118 C96 0.931 . S
H119 C97 0.930 . S
H120 C123 0.931 . S
H121 C126 0.928 . S
H122 C128 0.930 . S
C123 H120 0.931 . S
C123 C124 1.413 . S
C123 C125 1.360 1_565 S
C124 C123 1.413 . S
C124 C128 1.429 1_565 S
C125 C123 1.360 1_545 S
C125 C126 1.372 . S
C126 H121 0.928 . S
C126 C125 1.372 . S
C126 C127 1.404 . S
C127 C126 1.404 . S
C127 C128 1.391 . S
C128 H122 0.930 . S
C128 C124 1.429 1_545 S
C128 C127 1.391 . S
H129 C132 0.931 . S
H130 C135 0.928 . S
H131 C137 0.930 . S
C132 H129 0.931 . S
C132 C133 1.413 . S
C132 C134 1.360 . S
C133 C132 1.413 . S
C133 C137 1.429 . S
C134 C132 1.360 . S
C134 C135 1.372 . S
C135 H130 0.928 . S
C135 C134 1.372 . S
C135 C136 1.404 . S
C136 C135 1.404 . S
C136 C137 1.391 . S
C137 H131 0.930 . S
C137 C133 1.429 . S
C137 C136 1.391 . S
H138 C141 0.931 . S
H139 C144 0.928 . S
H140 C146 0.930 . S
C141 H138 0.931 . S
C141 C142 1.413 . S
C141 C143 1.360 1_655 S
C142 C141 1.413 . S
C142 C146 1.429 1_655 S
C143 C141 1.360 1_455 S
C143 C144 1.372 . S
C144 H139 0.928 . S
C144 C143 1.372 . S
C144 C145 1.404 . S
C145 C144 1.404 . S
C145 C146 1.391 . S
C146 H140 0.930 . S
C146 C142 1.429 1_455 S
C146 C145 1.391 . S
H147 C150 0.931 . S
H148 C153 0.928 . S
H149 C155 0.930 . S
C150 H147 0.931 . S
C150 C151 1.413 . S
C150 C152 1.360 . S
C151 C150 1.413 . S
C151 C155 1.429 1_655 S
C152 C150 1.360 . S
C152 C153 1.372 1_655 S
C153 H148 0.928 . S
C153 C152 1.372 1_455 S
C153 C154 1.404 . S
C154 C153 1.404 . S
C154 C155 1.391 . S
C155 H149 0.930 . S
C155 C151 1.429 1_455 S
C155 C154 1.391 . S
H156 C159 0.931 . S
H157 C162 0.928 . S
H158 C164 0.930 . S
C159 H156 0.931 . S
C159 C160 1.413 . S
C159 C161 1.360 . S
C160 C159 1.413 . S
C160 C164 1.429 . S
C161 C159 1.360 . S
C161 C162 1.372 1_545 S
C162 H157 0.928 . S
C162 C161 1.372 1_565 S
C162 C163 1.404 . S
C163 C162 1.404 . S
C163 C164 1.391 1_565 S
C164 H158 0.930 . S
C164 C160 1.429 . S
C164 C163 1.391 1_545 S
H165 C168 0.931 . S
H166 C171 0.928 . S
H167 C173 0.930 . S
C168 H165 0.931 . S
C168 C169 1.413 . S
C168 C170 1.360 . S
C169 C168 1.413 . S
C169 C173 1.429 . S
C170 C168 1.360 . S
C170 C171 1.372 . S
C171 H166 0.928 . S
C171 C170 1.372 . S
C171 C172 1.404 . S
C172 C171 1.404 . S
C172 C173 1.391 . S
C173 H167 0.930 . S
C173 C169 1.429 . S
C173 C172 1.391 . S
C19 C169 2.358 . S
C46 C151 4.621 1_455 S
C95 C163 3.781 . S
C10 C172 2.368 . S
C154 C55 2.436 . S
C160 C86 5.191 . S
C59 C133 4.657 . S
C90 C142 2.634 . S
C15 C124 3.454 . S
C136 C50 4.711 . S
C145 C99 2.473 . S
C6 C127 3.009 . S
C143 C9 0.908 1_556 S
C58 C125 1.247 . S
C98 C134 1.983 . S
C161 C49 1.926 . S
C170 C89 0.863 . S
C18 C152 1.239 1_455 S
