# Generated by pormake.
# Topology pth, (4,4)-cn, num edge types: 1
# Building blocks:
#     Node 0, Type 0, BuildingBlock: TATPOV_clean_sbu_0, # of connection points: 4
#     Node 1, Type 0, BuildingBlock: TATPOV_clean_sbu_0, # of connection points: 4
#     Node 2, Type 0, BuildingBlock: TATPOV_clean_sbu_0, # of connection points: 4
#     Node 3, Type 1, BuildingBlock: MIFKUJ_clean_linker_1, # of connection points: 4
#     Node 4, Type 1, BuildingBlock: MIFKUJ_clean_linker_1, # of connection points: 4
#     Node 5, Type 1, BuildingBlock: MIFKUJ_clean_linker_1, # of connection points: 4
#     Edge 6, Type (0, 1), None
#     Edge 7, Type (0, 1), None
#     Edge 8, Type (0, 1), None
#     Edge 9, Type (0, 1), None
#     Edge 10, Type (0, 1), None
#     Edge 11, Type (0, 1), None
#     Edge 12, Type (0, 1), None
#     Edge 13, Type (0, 1), None
#     Edge 14, Type (0, 1), None
#     Edge 15, Type (0, 1), None
#     Edge 16, Type (0, 1), None
#     Edge 17, Type (0, 1), None
# Relax obj value: 0.039
# Max RMSD: 0.164
# Mean RMSD: 0.089
data_MOF--net-pth--node1-TATPOV_clean_sbu_0--node2-MIFKUJ_clean_linker_1--edge1-none
_symmetry_space_group_name_H-M    P1
_symmetry_Int_Tables_number       1
_symmetry_cell_setting            triclinic
loop_
_symmetry_equiv_pos_as_xyz
'x, y, z'
_cell_length_a     16.068791
_cell_length_b     16.190077
_cell_length_c     33.957027
_cell_angle_alpha  93.157551
_cell_angle_beta   91.606267
_cell_angle_gamma 119.3245
loop_
_atom_site_label
_atom_site_type_symbol
_atom_site_fract_x
_atom_site_fract_y
_atom_site_fract_z
_atom_type_partial_charge
Zn0 Zn 0.14277 0.95072 -0.00171 0.0
Zn1 Zn 0.04949 0.0267 0.03278 0.0
O2 O 0.06015 0.94188 0.07409 0.0
O3 O 0.1468 0.88653 0.04626 0.0
O4 O 0.01003 0.11163 0.06271 0.0
O5 O 0.25455 0.07201 0.9843 0.0
O6 O 0.16491 0.12996 0.00631 0.0
C7 C 0.09965 0.89013 0.07488 0.0
C8 C 0.94804 0.88703 0.96412 0.0
O9 O 0.94365 0.94174 0.99144 0.0
O10 O 0.02393 0.88194 0.96086 0.0
C11 C 0.96655 0.09938 0.0944 0.0
O12 O 0.9336 0.018 0.11046 0.0
C13 C 0.23912 0.14108 0.98947 0.0
Zn14 Zn 0.21087 0.13995 0.33317 0.0
Zn15 Zn 0.04725 0.06157 0.36674 0.0
O16 O 0.14873 0.0796 0.41031 0.0
O17 O 0.28686 0.1657 0.38469 0.0
O18 O 0.93126 0.03715 0.3961 0.0
O19 O 0.19322 0.23902 0.30751 0.0
O20 O 0.0558 0.17 0.33502 0.0
C21 C 0.23988 0.123 0.41338 0.0
C22 C 0.07553 0.93934 0.30663 0.0
O23 O 0.01761 0.94534 0.33 0.0
O24 O 0.15794 0.01023 0.30387 0.0
C25 C 0.89872 -0.01145 0.42563 0.0
O26 O 0.93817 0.93994 0.43859 0.0
C27 C 0.11273 0.23211 0.31314 0.0
Zn28 Zn 0.09939 0.87664 0.73847 0.0
Zn29 Zn 0.01694 0.96474 0.70428 0.0
O30 O 0.10104 0.95391 0.66168 0.0
O31 O 0.15917 0.86986 0.68783 0.0
O32 O 0.92775 -0.00295 0.67526 0.0
O33 O 0.97659 0.7668 0.7543 0.0
O34 O 0.9159 0.85112 0.73112 0.0
C35 C 0.1528 0.91448 0.65946 0.0
C36 C 0.15778 0.07279 0.77145 0.0
O37 O 0.10028 0.07272 0.74482 0.0
O38 O 0.16722 -0.00011 0.77447 0.0
C39 C 0.94209 0.04593 0.64569 0.0
O40 O 0.028 0.09034 0.63236 0.0
C41 C 0.90591 0.77985 0.74873 0.0
H42 H 0.07134 0.4216 0.11463 0.0
H43 H 0.06679 0.28535 0.07888 0.0
H44 H 0.86077 0.09849 0.15681 0.0
H45 H 0.86215 0.23576 0.19171 0.0
H46 H 0.97013 0.49005 0.12445 0.0
H47 H 0.14047 0.4239 0.21234 0.0
H48 H 0.19921 0.34122 0.25271 0.0
H49 H 0.95201 0.24808 0.32244 0.0
H50 H 0.8939 0.33229 0.28173 0.0
H51 H 0.86908 0.62117 0.26488 0.0
H52 H 0.90629 0.76988 0.30307 0.0
H53 H 0.18787 0.90557 0.25741 0.0
H54 H 0.15067 0.75768 0.2204 0.0
H55 H 0.98838 0.52589 0.27086 0.0
H56 H 0.90651 0.69742 0.16875 0.0
H57 H 0.95829 0.83247 0.12765 0.0
H58 H 0.19029 0.78996 0.08993 0.0
H59 H 0.13871 0.65666 0.13074 0.0
C60 C 0.96709 0.33966 0.15604 0.0
C61 C 0.02362 0.35142 0.12374 0.0
C62 C 0.02122 0.27308 0.10331 0.0
C63 C 0.96326 0.18083 0.11495 0.0
C64 C 0.90629 0.16863 0.14716 0.0
C65 C 0.90758 0.24724 0.16729 0.0
C66 C 0.97133 0.42428 0.1779 0.0
C67 C 0.97342 0.49703 0.15649 0.0
C68 C 0.98059 0.43705 0.21971 0.0
C69 C 0.0117 0.38214 0.2435 0.0
C70 C 0.09849 0.38496 0.23612 0.0
C71 C 0.13263 0.33871 0.25958 0.0
C72 C 0.08045 0.28831 0.29088 0.0
C73 C -0.00607 0.28648 0.29857 0.0
C74 C 0.96026 0.33386 0.27524 0.0
C75 C 0.00665 0.67938 0.2394 0.0
C76 C 0.93851 0.68348 0.26315 0.0
C77 C 0.9598 0.76827 0.28484 0.0
C78 C 0.04977 0.84966 0.28313 0.0
C79 C 0.1176 0.84457 0.25928 0.0
C80 C 0.09647 0.76015 0.2379 0.0
C81 C 0.98621 0.58981 0.2173 0.0
C82 C 0.98078 0.51614 0.23882 0.0
C83 C 0.98742 0.58225 0.17571 0.0
C84 C 0.01758 0.66577 0.15214 0.0
C85 C 0.96896 0.71803 0.15186 0.0
C86 C -0.00072 0.79574 0.12871 0.0
C87 C 0.07837 0.82186 0.10545 0.0
C88 C 0.12894 0.77167 0.10731 0.0
C89 C 0.0988 0.69459 0.13029 0.0
H90 H 0.72195 0.13684 0.45775 0.0
H91 H 0.83867 0.1188 0.4192 0.0
H92 H 0.78864 0.87418 0.4813 0.0
H93 H 0.66865 0.8899 0.5186 0.0
H94 H 0.54812 0.05059 0.46531 0.0
H95 H 0.8051 0.15267 0.55325 0.0
H96 H 0.94324 0.163 0.59015 0.0
H97 H 0.75337 0.92075 0.65221 0.0
H98 H 0.6164 0.90787 0.61409 0.0
H99 H 0.35439 0.84537 0.5882 0.0
H100 H 0.22302 0.8022 0.63144 0.0
H101 H 0.2324 0.06951 0.61583 0.0
H102 H 0.36696 0.11421 0.57344 0.0
H103 H 0.53246 -0.00194 0.60783 0.0
H104 H 0.27363 0.93054 0.50095 0.0
H105 H 0.17505 0.97085 0.45837 0.0
H106 H 0.42281 0.24132 0.44193 0.0
H107 H 0.5199 0.20236 0.4854 0.0
C108 C 0.68718 0.01575 0.49162 0.0
C109 C 0.735 0.07856 0.46278 0.0
C110 C 0.80197 0.06815 0.44077 0.0
C111 C 0.82325 -0.00483 0.44734 0.0
C112 C 0.77439 0.93147 0.47575 0.0
C113 C 0.70625 0.94096 0.4973 0.0
C114 C 0.61658 0.02706 0.5156 0.0
C115 C 0.54549 0.04001 0.49661 0.0
C116 C 0.61624 0.02037 0.55696 0.0
C117 C 0.70001 0.0285 0.58038 0.0
C118 C 0.79324 0.10102 0.57448 0.0
C119 C 0.87223 0.10744 0.59578 0.0
C120 C 0.8593 0.0429 0.6241 0.0
C121 C 0.76585 0.9721 0.63076 0.0
C122 C 0.68719 0.96466 0.60899 0.0
C123 C 0.37107 -0.01671 0.57773 0.0
C124 C 0.32744 0.89434 0.5936 0.0
C125 C 0.25193 0.86937 0.61812 0.0
C126 C 0.21742 0.93235 0.62697 0.0
C127 C 0.25683 0.01903 0.60909 0.0
C128 C 0.33392 0.04483 0.58496 0.0
C129 C 0.45964 0.01185 0.5566 0.0
C130 C 0.53576 0.00867 0.57653 0.0
C131 C 0.46901 0.03664 0.51705 0.0
C132 C 0.40427 0.06327 0.49624 0.0
C133 C 0.3059 -0.00024 0.4893 0.0
C134 C 0.2496 0.02312 0.46508 0.0
C135 C 0.29146 0.10928 0.44682 0.0
C136 C 0.38866 0.17455 0.45561 0.0
C137 C 0.44427 0.15196 0.48021 0.0
H138 H 0.41209 0.24734 0.86327 0.0
H139 H 0.29169 0.09797 0.82909 0.0
H140 H 0.16766 0.24646 0.77039 0.0
H141 H 0.28783 0.39585 0.80566 0.0
H142 H 0.48856 0.46278 0.7957 0.0
H143 H 0.523 0.35315 0.9381 0.0
H144 H 0.4294 0.22121 0.9785 0.0
H145 H 0.18363 0.25797 0.9572 0.0
H146 H 0.27684 0.38769 0.91547 0.0
H147 H 0.6238 0.74645 0.92734 0.0
H148 H 0.77039 0.87237 0.96256 0.0
H149 H 0.93061 0.7499 0.90907 0.0
H150 H 0.78439 0.62354 0.87561 0.0
H151 H 0.55643 0.55217 0.93988 0.0
H152 H 0.64544 0.74346 0.8166 0.0
H153 H 0.78112 0.83355 0.77647 0.0
H154 H 0.82927 0.59348 0.76379 0.0
H155 H 0.69102 0.50253 0.80258 0.0
C156 C 0.35791 0.33227 0.83739 0.0
C157 C 0.35706 0.24724 0.84409 0.0
C158 C 0.28852 0.16194 0.8242 0.0
C159 C 0.22046 0.16041 0.79674 0.0
C160 C 0.21912 0.24523 0.7913 0.0
C161 C 0.28763 0.33058 0.81139 0.0
C162 C 0.43868 0.42397 0.8537 0.0
C163 C 0.50186 0.48373 0.82716 0.0
C164 C 0.45967 0.44809 0.89477 0.0
C165 C 0.40633 0.37939 0.92377 0.0
C166 C 0.44945 0.33387 0.94281 0.0
C167 C 0.39609 0.25863 0.96578 0.0
C168 C 0.29961 0.22977 0.97096 0.0
C169 C 0.25828 0.27959 0.95396 0.0
C170 C 0.31104 0.35324 0.93004 0.0
C171 C 0.69358 0.67666 0.89838 0.0
C172 C 0.69106 0.7481 0.9228 0.0
C173 C 0.77477 0.81997 0.94281 0.0
C174 C 0.8621 0.82106 0.93869 0.0
C175 C 0.86472 0.75159 0.91281 0.0
C176 C 0.78112 0.6795 0.89326 0.0
C177 C 0.60377 0.59351 0.8818 0.0
C178 C 0.54003 0.53422 0.90831 0.0
C179 C 0.58589 0.56633 0.84083 0.0
C180 C 0.6587 0.61677 0.81246 0.0
C181 C 0.68376 0.70965 0.80426 0.0
C182 C 0.76103 0.7607 0.78132 0.0
C183 C 0.8157 0.72031 0.76719 0.0
C184 C 0.78832 0.62612 0.77435 0.0
C185 C 0.70937 0.5742 0.79631 0.0
loop_
_geom_bond_atom_site_label_1
_geom_bond_atom_site_label_2
_geom_bond_distance
_geom_bond_site_symmetry_2
_ccdc_geom_bond_type
Zn0 O3 2.031 1_556 S
Zn0 O5 2.049 1_565 S
Zn0 O10 2.067 . S
Zn1 O2 1.962 . S
Zn1 O4 1.986 . S
Zn1 O6 1.996 . S
Zn1 O9 1.943 1_445 S
O2 Zn1 1.962 . S
O2 C7 1.254 1_545 S
O3 Zn0 2.031 1_554 S
O3 C7 1.269 . S
O4 Zn1 1.986 . S
O4 C11 1.262 . S
O5 Zn0 2.049 1_545 S
O5 C13 1.260 . S
O6 Zn1 1.996 . S
O6 C13 1.257 1_554 S
C7 O2 1.254 1_565 S
C7 O3 1.269 . S
C8 O9 1.249 1_556 S
C8 O10 1.270 1_655 S
O9 Zn1 1.943 1_665 S
O9 C8 1.249 1_554 S
O10 Zn0 2.067 . S
O10 C8 1.270 1_455 S
C11 O4 1.262 . S
C11 O12 1.232 1_455 S
O12 C11 1.232 1_655 S
C13 O5 1.260 . S
C13 O6 1.257 1_556 S
Zn14 O17 2.031 . S
Zn14 O19 2.049 . S
Zn14 O24 2.067 . S
Zn15 O16 1.962 . S
Zn15 O18 1.986 1_455 S
Zn15 O20 1.996 . S
Zn15 O23 1.943 1_445 S
O16 Zn15 1.962 . S
O16 C21 1.254 . S
O17 Zn14 2.031 . S
O17 C21 1.269 . S
O18 Zn15 1.986 1_655 S
O18 C25 1.262 . S
O19 Zn14 2.049 . S
O19 C27 1.260 . S
O20 Zn15 1.996 . S
O20 C27 1.257 . S
C21 O16 1.254 . S
C21 O17 1.269 . S
C22 O23 1.249 1_455 S
C22 O24 1.270 1_565 S
O23 Zn15 1.943 1_665 S
O23 C22 1.249 1_655 S
O24 Zn14 2.067 . S
O24 C22 1.270 1_545 S
C25 O18 1.262 . S
C25 O26 1.232 1_545 S
O26 C25 1.232 1_565 S
C27 O19 1.260 . S
C27 O20 1.257 . S
Zn28 O31 2.031 1_565 S
Zn28 O33 2.049 . S
Zn28 O38 2.067 1_565 S
Zn29 O30 1.962 . S
Zn29 O32 1.986 1_455 S
Zn29 O34 1.996 1_455 S
Zn29 O37 1.943 1_565 S
O30 Zn29 1.962 . S
O30 C35 1.254 . S
O31 Zn28 2.031 1_545 S
O31 C35 1.269 1_545 S
O32 Zn29 1.986 1_655 S
O32 C39 1.262 1_565 S
O33 Zn28 2.049 . S
O33 C41 1.260 1_455 S
O34 Zn29 1.996 1_655 S
O34 C41 1.257 . S
C35 O30 1.254 . S
C35 O31 1.269 1_565 S
C36 O37 1.249 . S
C36 O38 1.270 . S
O37 Zn29 1.943 1_545 S
O37 C36 1.249 . S
O38 Zn28 2.067 1_545 S
O38 C36 1.270 . S
C39 O32 1.262 1_545 S
C39 O40 1.232 . S
O40 C39 1.232 . S
C41 O33 1.260 1_655 S
C41 O34 1.257 . S
H42 C61 0.949 . S
H43 C62 0.950 . S
H44 C64 0.950 . S
H45 C65 0.950 . S
H46 C67 0.950 . S
H47 C70 0.950 . S
H48 C71 0.950 . S
H49 C73 0.951 . S
H50 C74 0.949 . S
H51 C76 0.949 . S
H52 C77 0.950 . S
H53 C79 0.950 . S
H54 C80 0.950 . S
H55 C82 0.950 . S
H56 C85 0.950 . S
H57 C86 0.950 . S
H58 C88 0.951 . S
H59 C89 0.949 . S
C60 C61 1.376 . S
C60 C65 1.386 1_455 S
C60 C66 1.483 . S
C61 H42 0.949 . S
C61 C60 1.376 . S
C61 C62 1.397 . S
C62 H43 0.950 . S
C62 C61 1.397 . S
C62 C63 1.391 . S
C63 C62 1.391 . S
C63 C64 1.405 1_455 S
C64 H44 0.950 . S
C64 C63 1.405 1_655 S
C64 C65 1.367 . S
C65 H45 0.950 . S
C65 C60 1.386 1_655 S
C65 C64 1.367 . S
C66 C60 1.483 . S
C66 C67 1.382 . S
C66 C68 1.403 . S
C67 H46 0.950 . S
C67 C66 1.382 . S
C67 C83 1.411 . S
C68 C66 1.403 . S
C68 C69 1.489 . S
C68 C82 1.411 . S
C69 C68 1.489 . S
C69 C70 1.383 . S
C69 C74 1.382 1_455 S
C70 H47 0.950 . S
C70 C69 1.383 . S
C70 C71 1.395 . S
C71 H48 0.950 . S
C71 C70 1.395 . S
C71 C72 1.288 . S
C72 C71 1.288 . S
C72 C73 1.392 1_455 S
C73 H49 0.951 . S
C73 C72 1.392 1_655 S
C73 C74 1.392 . S
C74 H50 0.949 . S
C74 C69 1.382 1_655 S
C74 C73 1.392 . S
C75 C76 1.376 1_455 S
C75 C80 1.386 . S
C75 C81 1.483 . S
C76 H51 0.949 . S
C76 C75 1.376 1_655 S
C76 C77 1.397 . S
C77 H52 0.950 . S
C77 C76 1.397 . S
C77 C78 1.391 1_655 S
C78 C77 1.391 1_455 S
C78 C79 1.405 . S
C79 H53 0.950 . S
C79 C78 1.405 . S
C79 C80 1.367 . S
C80 H54 0.950 . S
C80 C75 1.386 . S
C80 C79 1.367 . S
C81 C75 1.483 . S
C81 C82 1.382 . S
C81 C83 1.403 . S
C82 H55 0.950 . S
C82 C68 1.411 . S
C82 C81 1.382 . S
C83 C67 1.411 . S
C83 C81 1.403 . S
C83 C84 1.489 . S
C84 C83 1.489 . S
C84 C85 1.383 1_455 S
C84 C89 1.382 . S
C85 H56 0.950 . S
C85 C84 1.383 1_655 S
C85 C86 1.395 . S
C86 H57 0.950 . S
C86 C85 1.395 . S
C86 C87 1.288 1_655 S
C87 C86 1.288 1_455 S
C87 C88 1.392 . S
C88 H58 0.951 . S
C88 C87 1.392 . S
C88 C89 1.392 . S
C89 H59 0.949 . S
C89 C84 1.382 . S
C89 C88 1.392 . S
H90 C109 0.949 . S
H91 C110 0.950 . S
H92 C112 0.950 . S
H93 C113 0.950 . S
H94 C115 0.950 . S
H95 C118 0.950 . S
H96 C119 0.950 . S
H97 C121 0.951 . S
H98 C122 0.949 . S
H99 C124 0.949 . S
H100 C125 0.950 . S
H101 C127 0.950 . S
H102 C128 0.950 . S
H103 C130 0.950 1_565 S
H104 C133 0.950 . S
H105 C134 0.950 . S
H106 C136 0.951 . S
H107 C137 0.949 . S
C108 C109 1.376 . S
C108 C113 1.386 1_545 S
C108 C114 1.483 . S
C109 H90 0.949 . S
C109 C108 1.376 . S
C109 C110 1.397 . S
C110 H91 0.950 . S
C110 C109 1.397 . S
C110 C111 1.391 . S
C111 C110 1.391 . S
C111 C112 1.405 1_545 S
C112 H92 0.950 . S
C112 C111 1.405 1_565 S
C112 C113 1.367 . S
C113 H93 0.950 . S
C113 C108 1.386 1_565 S
C113 C112 1.367 . S
C114 C108 1.483 . S
C114 C115 1.382 . S
C114 C116 1.403 . S
C115 H94 0.950 . S
C115 C114 1.382 . S
C115 C131 1.411 . S
C116 C114 1.403 . S
C116 C117 1.489 . S
C116 C130 1.411 . S
C117 C116 1.489 . S
C117 C118 1.383 . S
C117 C122 1.382 1_545 S
C118 H95 0.950 . S
C118 C117 1.383 . S
C118 C119 1.395 . S
C119 H96 0.950 . S
C119 C118 1.395 . S
C119 C120 1.288 . S
C120 C119 1.288 . S
C120 C121 1.392 1_545 S
C121 H97 0.951 . S
C121 C120 1.392 1_565 S
C121 C122 1.392 . S
C122 H98 0.949 . S
C122 C117 1.382 1_565 S
C122 C121 1.392 . S
C123 C124 1.376 1_545 S
C123 C128 1.386 . S
C123 C129 1.483 . S
C124 H99 0.949 . S
C124 C123 1.376 1_565 S
C124 C125 1.397 . S
C125 H100 0.950 . S
C125 C124 1.397 . S
C125 C126 1.391 1_565 S
C126 C125 1.391 1_545 S
C126 C127 1.405 . S
C127 H101 0.950 . S
C127 C126 1.405 . S
C127 C128 1.367 . S
C128 H102 0.950 . S
C128 C123 1.386 . S
C128 C127 1.367 . S
C129 C123 1.483 . S
C129 C130 1.382 . S
C129 C131 1.403 . S
C130 H103 0.950 1_545 S
C130 C116 1.411 . S
C130 C129 1.382 . S
C131 C115 1.411 . S
C131 C129 1.403 . S
C131 C132 1.489 . S
C132 C131 1.489 . S
C132 C133 1.383 1_545 S
C132 C137 1.382 . S
C133 H104 0.950 . S
C133 C132 1.383 1_565 S
C133 C134 1.395 . S
C134 H105 0.950 . S
C134 C133 1.395 . S
C134 C135 1.288 1_565 S
C135 C134 1.288 1_545 S
C135 C136 1.392 . S
C136 H106 0.951 . S
C136 C135 1.392 . S
C136 C137 1.392 . S
C137 H107 0.949 . S
C137 C132 1.382 . S
C137 C136 1.392 . S
H138 C157 0.949 . S
H139 C158 0.950 . S
H140 C160 0.950 . S
H141 C161 0.950 . S
H142 C163 0.950 . S
H143 C166 0.950 . S
H144 C167 0.950 . S
H145 C169 0.951 . S
H146 C170 0.949 . S
H147 C172 0.949 . S
H148 C173 0.950 . S
H149 C175 0.950 . S
H150 C176 0.950 . S
H151 C178 0.950 . S
H152 C181 0.950 . S
H153 C182 0.950 . S
H154 C184 0.951 . S
H155 C185 0.949 . S
C156 C157 1.376 . S
C156 C161 1.386 . S
C156 C162 1.483 . S
C157 H138 0.949 . S
C157 C156 1.376 . S
C157 C158 1.397 . S
C158 H139 0.950 . S
C158 C157 1.397 . S
C158 C159 1.391 . S
C159 C158 1.391 . S
C159 C160 1.405 . S
C160 H140 0.950 . S
C160 C159 1.405 . S
C160 C161 1.367 . S
C161 H141 0.950 . S
C161 C156 1.386 . S
C161 C160 1.367 . S
C162 C156 1.483 . S
C162 C163 1.382 . S
C162 C164 1.403 . S
C163 H142 0.950 . S
C163 C162 1.382 . S
C163 C179 1.411 . S
C164 C162 1.403 . S
C164 C165 1.489 . S
C164 C178 1.411 . S
C165 C164 1.489 . S
C165 C166 1.383 . S
C165 C170 1.382 . S
C166 H143 0.950 . S
C166 C165 1.383 . S
C166 C167 1.395 . S
C167 H144 0.950 . S
C167 C166 1.395 . S
C167 C168 1.288 . S
C168 C167 1.288 . S
C168 C169 1.392 . S
C169 H145 0.951 . S
C169 C168 1.392 . S
C169 C170 1.392 . S
C170 H146 0.949 . S
C170 C165 1.382 . S
C170 C169 1.392 . S
C171 C172 1.376 . S
C171 C176 1.386 . S
C171 C177 1.483 . S
C172 H147 0.949 . S
C172 C171 1.376 . S
C172 C173 1.397 . S
C173 H148 0.950 . S
C173 C172 1.397 . S
C173 C174 1.391 . S
C174 C173 1.391 . S
C174 C175 1.405 . S
C175 H149 0.950 . S
C175 C174 1.405 . S
C175 C176 1.367 . S
C176 H150 0.950 . S
C176 C171 1.386 . S
C176 C175 1.367 . S
C177 C171 1.483 . S
C177 C178 1.382 . S
C177 C179 1.403 . S
C178 H151 0.950 . S
C178 C164 1.411 . S
C178 C177 1.382 . S
C179 C163 1.411 . S
C179 C177 1.403 . S
C179 C180 1.489 . S
C180 C179 1.489 . S
C180 C181 1.383 . S
C180 C185 1.382 . S
C181 H152 0.950 . S
C181 C180 1.383 . S
C181 C182 1.395 . S
C182 H153 0.950 . S
C182 C181 1.395 . S
C182 C183 1.288 . S
C183 C182 1.288 . S
C183 C184 1.392 . S
C184 H154 0.951 . S
C184 C183 1.392 . S
C184 C185 1.392 . S
C185 H155 0.949 . S
C185 C180 1.382 . S
C185 C184 1.392 . S
C63 C11 1.363 . S
C25 C111 1.476 . S
C41 C183 1.397 . S
C7 C87 1.431 . S
C135 C21 1.514 . S
C36 C159 1.584 . S
C120 C39 1.478 . S
C8 C174 1.523 . S
C78 C22 1.497 . S
C126 C35 1.539 1_545 S
C168 C13 1.419 . S
C27 C72 1.753 . S
