# Generated by pormake.
# Topology tsx, (6,3)-cn, num edge types: 1
# Building blocks:
#     Node 0, Type 0, BuildingBlock: FUNLAD_clean_sbu_0, # of connection points: 6
#     Node 1, Type 0, BuildingBlock: FUNLAD_clean_sbu_0, # of connection points: 6
#     Node 2, Type 1, BuildingBlock: PAMTOO_clean_linker_0, # of connection points: 3
#     Node 3, Type 1, BuildingBlock: PAMTOO_clean_linker_0, # of connection points: 3
#     Node 4, Type 1, BuildingBlock: PAMTOO_clean_linker_0, # of connection points: 3
#     Node 5, Type 1, BuildingBlock: PAMTOO_clean_linker_0, # of connection points: 3
#     Edge 6, Type (0, 1), BuildingBlock: AJUNOK_clean_linker_0, # of connection points: 2
#     Edge 7, Type (0, 1), BuildingBlock: AJUNOK_clean_linker_0, # of connection points: 2
#     Edge 8, Type (0, 1), BuildingBlock: AJUNOK_clean_linker_0, # of connection points: 2
#     Edge 9, Type (0, 1), BuildingBlock: AJUNOK_clean_linker_0, # of connection points: 2
#     Edge 10, Type (0, 1), BuildingBlock: AJUNOK_clean_linker_0, # of connection points: 2
#     Edge 11, Type (0, 1), BuildingBlock: AJUNOK_clean_linker_0, # of connection points: 2
#     Edge 12, Type (0, 1), BuildingBlock: AJUNOK_clean_linker_0, # of connection points: 2
#     Edge 13, Type (0, 1), BuildingBlock: AJUNOK_clean_linker_0, # of connection points: 2
#     Edge 14, Type (0, 1), BuildingBlock: AJUNOK_clean_linker_0, # of connection points: 2
#     Edge 15, Type (0, 1), BuildingBlock: AJUNOK_clean_linker_0, # of connection points: 2
#     Edge 16, Type (0, 1), BuildingBlock: AJUNOK_clean_linker_0, # of connection points: 2
#     Edge 17, Type (0, 1), BuildingBlock: AJUNOK_clean_linker_0, # of connection points: 2
# Relax obj value: 0.130
# Max RMSD: 0.136
# Mean RMSD: 0.124
data_MOF--net-tsx--node1-FUNLAD_clean_sbu_0--node2-PAMTOO_clean_linker_0--edge1-AJUNOK_clean_linker_0
_symmetry_space_group_name_H-M    P1
_symmetry_Int_Tables_number       1
_symmetry_cell_setting            triclinic
loop_
_symmetry_equiv_pos_as_xyz
'x, y, z'
_cell_length_a     13.649408
_cell_length_b     15.405131
_cell_length_c     31.620195
_cell_angle_alpha  80.901428
_cell_angle_beta   92.287445
_cell_angle_gamma 89.31958
loop_
_atom_site_label
_atom_site_type_symbol
_atom_site_fract_x
_atom_site_fract_y
_atom_site_fract_z
_atom_type_partial_charge
C0 C 0.91862 0.89197 -0.01622 0.0
N1 N 0.07638 0.96954 0.08524 0.0
C2 C 0.994 0.95926 0.10816 0.0
C3 C 1.001 0.94968 0.15269 0.0
C4 C 0.0935 0.95148 0.17335 0.0
C5 C 0.17763 0.95674 0.1492 0.0
C6 C 0.16731 0.96573 0.10476 0.0
Zn7 Zn 0.06332 1.00294 0.02105 0.0
C8 C 0.20318 0.90511 0.97577 0.0
N9 N 0.03577 0.07636 0.88587 0.0
C10 C 0.94828 0.07596 0.86372 0.0
C11 C 0.11977 0.099 0.86547 0.0
C12 C 0.1182 0.12134 0.82105 0.0
C13 C 0.02962 0.11919 0.79719 0.0
C14 C 0.94361 0.09672 0.81903 0.0
Zn15 Zn 0.04596 0.04085 0.95069 0.0
O16 O 0.9616 0.90549 0.01828 0.0
C17 C 0.90406 0.13799 -0.00656 0.0
O18 O 0.93893 0.93861 0.94836 0.0
H19 H 0.18869 0.09839 0.88359 0.0
H20 H 0.9226 0.96251 0.09183 0.0
H21 H 0.88239 0.05787 0.88064 0.0
O22 O 0.94635 0.09608 0.02728 0.0
O23 O 0.93251 0.12711 0.957 0.0
H24 H 0.23167 0.97365 0.08575 0.0
O25 O 0.14952 0.14355 0.9554 0.0
O26 O 0.16534 0.10151 0.02471 0.0
O27 O 0.16055 0.95303 0.94394 0.0
O28 O 0.17715 0.91012 0.01348 0.0
C29 C 0.18797 0.15352 -0.00841 0.0
H30 H 0.93471 0.94594 0.17058 0.0
H31 H 0.2501 0.9573 0.16444 0.0
H32 H 0.18608 0.13868 0.80546 0.0
H33 H 0.87416 0.09234 0.80178 0.0
C34 C 0.41094 0.43247 0.48151 0.0
N35 N 0.57432 0.50573 0.58195 0.0
C36 C 0.4945 0.4906 0.60624 0.0
C37 C 0.50616 0.47152 0.6507 0.0
C38 C 0.6007 0.46873 0.66996 0.0
C39 C 0.68184 0.48268 0.6442 0.0
C40 C 0.66692 0.50055 0.59989 0.0
Zn41 Zn 0.55669 0.5409 0.51793 0.0
C42 C 0.69171 0.44156 0.4712 0.0
N43 N 0.52603 0.61625 0.38297 0.0
C44 C 0.43758 0.61692 0.36141 0.0
C45 C 0.61064 0.63006 0.36178 0.0
C46 C 0.60915 0.64009 0.31725 0.0
C47 C 0.51979 0.63587 0.29438 0.0
C48 C 0.43272 0.62712 0.31663 0.0
Zn49 Zn 0.53869 0.58226 0.44783 0.0
O50 O 0.4551 0.44445 0.51596 0.0
C51 C 0.39935 0.67918 0.49218 0.0
O52 O 0.4299 0.48071 0.44631 0.0
H53 H 0.68011 0.62929 0.37951 0.0
H54 H 0.42169 0.49543 0.59117 0.0
H55 H 0.3713 0.60584 0.37898 0.0
O56 O 0.44078 0.63442 0.52556 0.0
O57 O 0.42728 0.67012 0.45536 0.0
H58 H 0.72924 0.51244 0.57984 0.0
O59 O 0.64423 0.68444 0.45183 0.0
O60 O 0.65903 0.63831 0.52078 0.0
O61 O 0.65051 0.49198 0.43988 0.0
O62 O 0.6678 0.44702 0.5091 0.0
C63 C 0.68204 0.69232 0.48848 0.0
H64 H 0.44193 0.46268 0.66987 0.0
H65 H 0.75564 0.48144 0.65826 0.0
H66 H 0.67753 0.6476 0.3009 0.0
H67 H 0.36259 0.62354 0.29977 0.0
H68 H 0.16186 0.86475 0.37627 0.0
H69 H 1.01346 0.11343 0.33695 0.0
H70 H 0.05776 1.00968 0.47088 0.0
H71 H 0.83974 0.09957 0.40671 0.0
C72 C 0.88267 0.16076 0.40218 0.0
O73 O 0.98034 0.14248 0.41419 0.0
H74 H 0.87664 0.18759 0.36739 0.0
C75 C 0.12321 0.92134 0.3845 0.0
C76 C 0.11506 0.93056 0.42756 0.0
C77 C 0.08685 0.98691 0.35187 0.0
C78 C 0.04141 0.06225 0.36221 0.0
C79 C 0.0275 0.07017 0.40502 0.0
C80 C 0.06478 1.00394 0.43776 0.0
H81 H 0.13425 0.26096 0.6022 0.0
H82 H 0.94139 0.04033 0.61349 0.0
H83 H 0.06524 0.1375 0.49267 0.0
H84 H 0.87799 0.06094 0.48138 0.0
C85 C 0.86901 0.01953 0.51271 0.0
O86 O 0.95809 1.01291 0.53492 0.0
H87 H 0.81343 0.05141 0.53035 0.0
C88 C 0.09279 0.21325 0.58741 0.0
C89 C 0.10409 0.20726 0.54405 0.0
C90 C 0.03245 0.1543 0.61229 0.0
C91 C 0.9845 0.08863 0.59395 0.0
C92 C 0.99676 0.08166 0.551 0.0
C93 C 0.05485 0.14231 0.52584 0.0
H94 H 0.68343 0.34168 0.87415 0.0
H95 H 0.54564 0.5967 0.84001 0.0
H96 H 0.57935 0.47643 0.97232 0.0
H97 H 0.36822 0.57733 0.90998 0.0
C98 C 0.41285 0.63764 0.90623 0.0
O99 O 0.51012 0.61748 0.91812 0.0
H100 H 0.40708 0.66618 0.87164 0.0
C101 C 0.64691 0.39819 0.88353 0.0
C102 C 0.63705 0.40289 0.92702 0.0
C103 C 0.61312 0.46734 0.85211 0.0
C104 C 0.57122 0.54254 0.86425 0.0
C105 C 0.55625 0.54617 0.90741 0.0
C106 C 0.58944 0.47578 0.93886 0.0
H107 H 0.62525 0.73388 0.10206 0.0
H108 H 0.44055 0.50723 0.11443 0.0
H109 H 0.57464 0.5989 -0.00456 0.0
H110 H 0.3941 0.51937 -0.01954 0.0
C111 C 0.37992 0.4803 0.01182 0.0
O112 O 0.46528 0.47478 0.03686 0.0
H113 H 0.32154 0.51488 0.02673 0.0
C114 C 0.58719 0.68367 0.08769 0.0
C115 C 0.60455 0.67368 0.04532 0.0
C116 C 0.52722 0.62429 0.1126 0.0
C117 C 0.484 0.55525 0.09491 0.0
C118 C 0.50088 0.54531 0.05264 0.0
C119 C 0.55989 0.60567 0.02783 0.0
C120 C 0.25948 0.25774 0.03683 0.0
C121 C 0.24963 0.23007 -0.00354 0.0
C122 C 0.3057 0.33643 0.0417 0.0
C123 C 0.34443 0.39015 0.00653 0.0
H124 H 0.2274 0.22045 0.06468 0.0
H125 H 0.30784 0.35721 0.0729 0.0
S126 S 0.3516 0.34088 0.89539 0.0
N127 N 0.29216 0.25787 0.92167 0.0
N128 N 0.37942 0.40558 0.93086 0.0
C129 C 0.34088 0.36052 0.96657 0.0
C130 C 0.29328 0.28054 0.96152 0.0
C131 C 0.24227 0.74831 0.97527 0.0
C132 C 0.27158 0.83616 0.96745 0.0
C133 C 0.29066 0.68365 0.95692 0.0
C134 C 0.37202 0.70417 0.93139 0.0
H135 H 0.17677 0.73081 -0.00727 0.0
H136 H 0.26039 0.61843 0.96072 0.0
S137 S 0.48147 0.92381 0.90431 0.0
N138 N 0.38824 0.9404 0.93403 0.0
N139 N 0.48301 0.81759 0.90152 0.0
C140 C 0.40559 0.79088 0.9257 0.0
C141 C 0.35448 0.85723 0.9433 0.0
C142 C 0.74157 0.85685 -0.02079 0.0
C143 C 0.83961 0.82766 -0.0126 0.0
C144 C 0.66413 0.80541 -0.00328 0.0
C145 C 0.68317 0.72327 0.02227 0.0
H146 H 0.72524 0.92228 0.96208 0.0
H147 H 0.58977 0.8315 -0.00803 0.0
S148 S 0.92543 0.61288 0.048 0.0
N149 N 0.95031 0.70867 0.0193 0.0
N150 N 0.8049 0.61112 0.05101 0.0
C151 C 0.77993 0.69077 0.02774 0.0
C152 C 0.85829 0.74323 0.0105 0.0
C153 C 0.84087 0.28735 -0.00258 0.0
C154 C 0.82145 0.19911 -0.00547 0.0
C155 C 0.77338 0.35432 -0.01992 0.0
C156 C 0.68559 0.33439 0.95912 0.0
H157 H 0.91248 0.30543 0.00889 0.0
H158 H 0.79466 0.42217 -0.02103 0.0
S159 S 0.59374 0.11268 0.95057 0.0
N160 N 0.70289 0.09454 0.97515 0.0
N161 N 0.57631 0.22042 0.94238 0.0
C162 C 0.66091 0.24601 0.9605 0.0
C163 C 0.72912 0.17815 -0.02174 0.0
C164 C 0.76887 0.83049 0.45964 0.0
C165 C 0.74279 0.76889 0.49495 0.0
C166 C 0.81396 0.90934 0.46547 0.0
C167 C 0.83366 0.92988 0.50676 0.0
H168 H 0.75175 0.81909 0.42725 0.0
H169 H 0.83075 0.95546 0.43739 0.0
S170 S 0.78886 0.78858 0.60991 0.0
N171 N 0.74812 0.73151 0.57306 0.0
N172 N 0.83036 0.88074 0.58332 0.0
C173 C 0.81243 0.86747 0.54224 0.0
C174 C 0.76769 0.78676 0.53652 0.0
C175 C 0.8356 0.38182 0.43846 0.0
C176 C 0.75085 0.36698 0.4621 0.0
C177 C 0.88096 0.31341 0.4215 0.0
C178 C 0.84075 0.22888 0.42625 0.0
H179 H 0.86483 0.4474 0.43181 0.0
H180 H 0.94521 0.32767 0.40275 0.0
S181 S 0.61414 0.15948 0.48261 0.0
N182 N 0.62768 0.26292 0.48921 0.0
N183 N 0.70747 0.13616 0.45445 0.0
C184 C 0.75538 0.21372 0.44972 0.0
C185 C 0.71181 0.2824 0.46839 0.0
C186 C 0.35333 0.28462 0.50985 0.0
C187 C 0.33284 0.3674 0.48507 0.0
C188 C 0.27786 0.23107 0.52683 0.0
C189 C 0.17958 0.25917 0.52005 0.0
H190 H 0.42848 0.26372 0.51858 0.0
H191 H 0.29666 0.16938 0.54732 0.0
S192 S 0.08681 0.46755 0.45554 0.0
N193 N 0.20723 0.47252 0.45238 0.0
N194 N 0.06464 0.37183 0.48505 0.0
C195 C 0.15746 0.33923 0.49334 0.0
C196 C 0.23452 0.39344 0.47554 0.0
C197 C 0.22335 0.71387 0.47944 0.0
C198 C 0.31565 0.73889 0.49416 0.0
C199 C 0.15148 0.77711 0.46279 0.0
C200 C 0.16998 0.86729 0.46033 0.0
H201 H 0.21032 0.64572 0.47669 0.0
H202 H 0.0851 0.75581 0.44782 0.0
S203 S 0.39475 0.96558 0.50051 0.0
N204 N 0.4177 0.85851 0.50996 0.0
N205 N 0.2821 0.9779 0.479 0.0
C206 C 0.2577 0.89251 0.4794 0.0
C207 C 0.33107 0.82798 0.49617 0.0
C208 C 0.05605 0.89355 0.24889 0.0
C209 C 0.10069 0.95703 0.21934 0.0
C210 C 0.05426 0.90255 0.29217 0.0
C211 C 0.09557 0.97601 0.30685 0.0
H212 H 0.02124 0.8374 0.23833 0.0
H213 H 1.01792 0.85315 0.31407 0.0
S214 S 0.2228 0.15916 0.24239 0.0
N215 N 0.1887 0.09458 0.20766 0.0
N216 N 0.18503 0.1114 0.28925 0.0
C217 C 0.1419 0.039 0.27781 0.0
C218 C 0.14464 0.02945 0.23391 0.0
C219 C 0.10238 0.09121 0.72944 0.0
C220 C 0.02958 0.13324 0.7497 0.0
C221 C 0.10358 0.10032 0.68482 0.0
C222 C 0.03198 0.15151 0.65889 0.0
H223 H 0.15781 0.04927 0.74822 0.0
H224 H 0.15991 0.06584 0.67043 0.0
S225 S 0.82787 0.27793 0.69511 0.0
N226 N 0.88597 0.23093 0.73991 0.0
N227 N 0.88767 0.24619 0.65558 0.0
C228 C 0.95935 0.19471 0.67825 0.0
C229 C 0.95817 0.18588 0.72384 0.0
C230 C 0.66103 0.52755 0.7346 0.0
C231 C 0.61352 0.46051 0.7168 0.0
C232 C 0.66324 0.52794 0.77876 0.0
C233 C 0.61907 0.46073 0.80641 0.0
H234 H 0.69303 0.58199 0.71407 0.0
H235 H 0.69784 0.58205 0.7913 0.0
S236 S 0.4919 0.26716 0.77585 0.0
N237 N 0.52629 0.32294 0.73001 0.0
N238 N 0.53069 0.32339 0.81343 0.0
C239 C 0.57509 0.39133 0.78922 0.0
C240 C 0.57208 0.39137 0.74421 0.0
C241 C 0.46663 0.69462 0.21832 0.0
C242 C 0.51933 0.63186 0.24807 0.0
C243 C 0.46907 0.69226 0.17415 0.0
C244 C 0.52253 0.62601 0.15885 0.0
H245 H 0.42495 0.7465 0.22925 0.0
H246 H 0.42903 0.74217 0.15187 0.0
S247 S 0.66947 0.44527 0.22363 0.0
N248 N 0.62447 0.50105 0.25918 0.0
N249 N 0.62786 0.49625 0.17632 0.0
C250 C 0.57397 0.56238 0.18827 0.0
C251 C 0.5726 0.56536 0.23292 0.0
loop_
_geom_bond_atom_site_label_1
_geom_bond_atom_site_label_2
_geom_bond_distance
_geom_bond_site_symmetry_2
_ccdc_geom_bond_type
C0 O16 1.251 . S
C0 O18 1.254 1_554 S
N1 C2 1.333 1_445 S
N1 C6 1.307 . S
N1 Zn7 2.020 . S
C2 N1 1.333 1_665 S
C2 C3 1.379 . S
C2 H20 0.952 . S
C3 C2 1.379 . S
C3 C4 1.390 1_655 S
C3 H30 0.949 . S
C4 C3 1.390 1_455 S
C4 C5 1.357 1_565 S
C5 C4 1.357 1_545 S
C5 C6 1.370 . S
C5 H31 0.950 . S
C6 N1 1.307 . S
C6 C5 1.370 . S
C6 H24 0.948 . S
Zn7 N1 2.020 . S
Zn7 O16 2.039 1_445 S
Zn7 O22 2.034 1_455 S
Zn7 O26 2.025 . S
Zn7 O28 2.024 1_545 S
C8 O27 1.246 1_554 S
C8 O28 1.249 . S
N9 C10 1.307 1_455 S
N9 C11 1.333 . S
N9 Zn15 2.020 . S
C10 N9 1.307 1_655 S
C10 C14 1.370 . S
C10 H21 0.948 . S
C11 N9 1.333 . S
C11 C12 1.379 . S
C11 H19 0.952 . S
C12 C11 1.379 . S
C12 C13 1.390 . S
C12 H32 0.949 . S
C13 C12 1.390 . S
C13 C14 1.357 1_455 S
C14 C10 1.370 . S
C14 C13 1.357 1_655 S
C14 H33 0.950 . S
Zn15 N9 2.020 . S
Zn15 O18 2.025 1_445 S
Zn15 O23 2.024 1_455 S
Zn15 O25 2.039 . S
Zn15 O27 2.034 1_545 S
O16 C0 1.251 . S
O16 Zn7 2.039 1_665 S
C17 O22 1.246 1_556 S
C17 O23 1.249 . S
O18 C0 1.254 1_556 S
O18 Zn15 2.025 1_665 S
H19 C11 0.952 . S
H20 C2 0.952 . S
H21 C10 0.948 . S
O22 Zn7 2.034 1_655 S
O22 C17 1.246 1_554 S
O23 Zn15 2.024 1_655 S
O23 C17 1.249 . S
H24 C6 0.948 . S
O25 Zn15 2.039 . S
O25 C29 1.270 . S
O26 Zn7 2.025 . S
O26 C29 1.235 1_554 S
O27 C8 1.246 1_556 S
O27 Zn15 2.034 1_565 S
O28 Zn7 2.024 1_565 S
O28 C8 1.249 . S
C29 O25 1.270 . S
C29 O26 1.235 1_556 S
H30 C3 0.949 . S
H31 C5 0.950 . S
H32 C12 0.949 . S
H33 C14 0.950 . S
C34 O50 1.251 . S
C34 O52 1.254 . S
N35 C36 1.333 . S
N35 C40 1.307 . S
N35 Zn41 2.020 . S
C36 N35 1.333 . S
C36 C37 1.379 . S
C36 H54 0.952 . S
C37 C36 1.379 . S
C37 C38 1.390 . S
C37 H64 0.949 . S
C38 C37 1.390 . S
C38 C39 1.357 . S
C39 C38 1.357 . S
C39 C40 1.370 . S
C39 H65 0.950 . S
C40 N35 1.307 . S
C40 C39 1.370 . S
C40 H58 0.948 . S
Zn41 N35 2.020 . S
Zn41 O50 2.039 . S
Zn41 O56 2.034 . S
Zn41 O60 2.025 . S
Zn41 O62 2.024 . S
C42 O61 1.246 . S
C42 O62 1.249 . S
N43 C44 1.307 . S
N43 C45 1.333 . S
N43 Zn49 2.020 . S
C44 N43 1.307 . S
C44 C48 1.370 . S
C44 H55 0.948 . S
C45 N43 1.333 . S
C45 C46 1.379 . S
C45 H53 0.952 . S
C46 C45 1.379 . S
C46 C47 1.390 . S
C46 H66 0.949 . S
C47 C46 1.390 . S
C47 C48 1.357 . S
C48 C44 1.370 . S
C48 C47 1.357 . S
C48 H67 0.950 . S
Zn49 N43 2.020 . S
Zn49 O52 2.025 . S
Zn49 O57 2.024 . S
Zn49 O59 2.039 . S
Zn49 O61 2.034 . S
O50 C34 1.251 . S
O50 Zn41 2.039 . S
C51 O56 1.246 . S
C51 O57 1.249 . S
O52 C34 1.254 . S
O52 Zn49 2.025 . S
H53 C45 0.952 . S
H54 C36 0.952 . S
H55 C44 0.948 . S
O56 Zn41 2.034 . S
O56 C51 1.246 . S
O57 Zn49 2.024 . S
O57 C51 1.249 . S
H58 C40 0.948 . S
O59 Zn49 2.039 . S
O59 C63 1.251 . S
O60 Zn41 2.025 . S
O60 C63 1.254 . S
O61 C42 1.246 . S
O61 Zn49 2.034 . S
O62 Zn41 2.024 . S
O62 C42 1.249 . S
C63 O59 1.251 . S
C63 O60 1.254 . S
H64 C37 0.949 . S
H65 C39 0.950 . S
H66 C46 0.949 . S
H67 C48 0.950 . S
H68 C75 0.929 . S
H69 C78 0.930 . S
H70 C80 0.929 . S
H71 C72 0.969 . S
C72 H71 0.969 . S
C72 O73 1.550 . S
C72 H74 0.973 . S
O73 C72 1.550 . S
O73 C79 1.412 . S
H74 C72 0.973 . S
C75 H68 0.929 . S
C75 C76 1.400 . S
C75 C77 1.364 . S
C76 C75 1.400 . S
C76 C80 1.377 . S
C77 C75 1.364 . S
C77 C78 1.374 1_465 S
C78 H69 0.930 . S
C78 C77 1.374 1_645 S
C78 C79 1.383 . S
C79 O73 1.412 . S
C79 C78 1.383 . S
C79 C80 1.394 1_645 S
C80 H70 0.929 . S
C80 C76 1.377 . S
C80 C79 1.394 1_465 S
H81 C88 0.929 . S
H82 C91 0.930 1_565 S
H83 C93 0.929 . S
H84 C85 0.969 . S
C85 H84 0.969 . S
C85 O86 1.550 . S
C85 H87 0.973 . S
O86 C85 1.550 . S
O86 C92 1.412 1_565 S
H87 C85 0.973 . S
C88 H81 0.929 . S
C88 C89 1.400 . S
C88 C90 1.364 . S
C89 C88 1.400 . S
C89 C93 1.377 . S
C90 C88 1.364 . S
C90 C91 1.374 1_455 S
C91 H82 0.930 1_545 S
C91 C90 1.374 1_655 S
C91 C92 1.383 . S
C92 O86 1.412 1_545 S
C92 C91 1.383 . S
C92 C93 1.394 1_655 S
C93 H83 0.929 . S
C93 C89 1.377 . S
C93 C92 1.394 1_455 S
H94 C101 0.929 . S
H95 C104 0.930 . S
H96 C106 0.929 . S
H97 C98 0.969 . S
C98 H97 0.969 . S
C98 O99 1.550 1_556 S
C98 H100 0.973 . S
O99 C98 1.550 1_554 S
O99 C105 1.412 1_554 S
H100 C98 0.973 . S
C101 H94 0.929 . S
C101 C102 1.400 . S
C101 C103 1.364 . S
C102 C101 1.400 . S
C102 C106 1.377 1_556 S
C103 C101 1.364 . S
C103 C104 1.374 . S
C104 H95 0.930 . S
C104 C103 1.374 . S
C104 C105 1.383 . S
C105 O99 1.412 1_556 S
C105 C104 1.383 . S
C105 C106 1.394 1_556 S
C106 H96 0.929 . S
C106 C102 1.377 1_554 S
C106 C105 1.394 1_554 S
H107 C114 0.929 . S
H108 C117 0.930 . S
H109 C119 0.929 1_556 S
H110 C111 0.969 . S
C111 H110 0.969 . S
C111 O112 1.550 1_554 S
C111 H113 0.973 . S
O112 C111 1.550 1_556 S
O112 C118 1.412 1_556 S
H113 C111 0.973 . S
C114 H107 0.929 . S
C114 C115 1.400 . S
C114 C116 1.364 . S
C115 C114 1.400 . S
C115 C119 1.377 . S
C116 C114 1.364 . S
C116 C117 1.374 . S
C117 H108 0.930 . S
C117 C116 1.374 . S
C117 C118 1.383 . S
C118 O112 1.412 1_554 S
C118 C117 1.383 . S
C118 C119 1.394 . S
C119 H109 0.929 1_554 S
C119 C115 1.377 . S
C119 C118 1.394 . S
C120 C121 1.369 1_554 S
C120 C122 1.419 . S
C120 H124 0.930 . S
C121 C120 1.369 1_556 S
C121 C130 1.429 . S
C122 C120 1.419 . S
C122 C123 1.363 1_554 S
C122 H125 0.929 . S
C123 C122 1.363 1_556 S
C123 C129 1.428 . S
H124 C120 0.930 . S
H125 C122 0.929 . S
S126 N127 1.613 . S
S126 N128 1.610 . S
N127 S126 1.613 . S
N127 C130 1.350 . S
N128 S126 1.610 . S
N128 C129 1.351 . S
C129 C123 1.428 . S
C129 N128 1.351 . S
C129 C130 1.434 . S
C130 C121 1.429 . S
C130 N127 1.350 . S
C130 C129 1.434 . S
C131 C132 1.372 . S
C131 C133 1.418 1_554 S
C131 H135 0.929 1_554 S
C132 C131 1.372 . S
C132 C141 1.429 . S
C133 C131 1.418 1_556 S
C133 C134 1.363 1_556 S
C133 H136 0.929 . S
C134 C133 1.363 1_554 S
C134 C140 1.428 . S
H135 C131 0.929 1_556 S
H136 C133 0.929 . S
S137 N138 1.613 . S
S137 N139 1.610 . S
N138 S137 1.613 . S
N138 C141 1.350 . S
N139 S137 1.610 . S
N139 C140 1.351 . S
C140 C134 1.428 . S
C140 N139 1.351 . S
C140 C141 1.434 . S
C141 C132 1.429 . S
C141 N138 1.350 . S
C141 C140 1.434 . S
C142 C143 1.369 1_556 S
C142 C144 1.419 . S
C142 H146 0.930 . S
C143 C142 1.369 1_554 S
C143 C152 1.429 . S
C144 C142 1.419 . S
C144 C145 1.363 1_556 S
C144 H147 0.929 . S
C145 C144 1.363 1_554 S
C145 C151 1.428 . S
H146 C142 0.930 . S
H147 C144 0.929 . S
S148 N149 1.613 . S
S148 N150 1.610 . S
N149 S148 1.613 . S
N149 C152 1.350 . S
N150 S148 1.610 . S
N150 C151 1.351 . S
C151 C145 1.428 . S
C151 N150 1.351 . S
C151 C152 1.434 . S
C152 C143 1.429 . S
C152 N149 1.350 . S
C152 C151 1.434 . S
C153 C154 1.369 1_554 S
C153 C155 1.419 . S
C153 H157 0.930 . S
C154 C153 1.369 1_556 S
C154 C163 1.429 . S
C155 C153 1.419 . S
C155 C156 1.363 1_554 S
C155 H158 0.929 . S
C156 C155 1.363 1_556 S
C156 C162 1.428 . S
H157 C153 0.930 . S
H158 C155 0.929 . S
S159 N160 1.613 . S
S159 N161 1.610 . S
N160 S159 1.613 . S
N160 C163 1.350 . S
N161 S159 1.610 . S
N161 C162 1.351 . S
C162 C156 1.428 . S
C162 N161 1.351 . S
C162 C163 1.434 . S
C163 C154 1.429 . S
C163 N160 1.350 . S
C163 C162 1.434 . S
C164 C165 1.369 . S
C164 C166 1.419 . S
C164 H168 0.930 . S
C165 C164 1.369 . S
C165 C174 1.429 . S
C166 C164 1.419 . S
C166 C167 1.363 . S
C166 H169 0.929 . S
C167 C166 1.363 . S
C167 C173 1.428 . S
H168 C164 0.930 . S
H169 C166 0.929 . S
S170 N171 1.613 . S
S170 N172 1.610 . S
N171 S170 1.613 . S
N171 C174 1.350 . S
N172 S170 1.610 . S
N172 C173 1.351 . S
C173 C167 1.428 . S
C173 N172 1.351 . S
C173 C174 1.434 . S
C174 C165 1.429 . S
C174 N171 1.350 . S
C174 C173 1.434 . S
C175 C176 1.369 . S
C175 C177 1.419 . S
C175 H179 0.930 . S
C176 C175 1.369 . S
C176 C185 1.429 . S
C177 C175 1.419 . S
C177 C178 1.363 . S
C177 H180 0.929 . S
C178 C177 1.363 . S
C178 C184 1.428 . S
H179 C175 0.930 . S
H180 C177 0.929 . S
S181 N182 1.613 . S
S181 N183 1.610 . S
N182 S181 1.613 . S
N182 C185 1.350 . S
N183 S181 1.610 . S
N183 C184 1.351 . S
C184 C178 1.428 . S
C184 N183 1.351 . S
C184 C185 1.434 . S
C185 C176 1.429 . S
C185 N182 1.350 . S
C185 C184 1.434 . S
C186 C187 1.369 . S
C186 C188 1.419 . S
C186 H190 0.930 . S
C187 C186 1.369 . S
C187 C196 1.429 . S
C188 C186 1.419 . S
C188 C189 1.363 . S
C188 H191 0.929 . S
C189 C188 1.363 . S
C189 C195 1.428 . S
H190 C186 0.930 . S
H191 C188 0.929 . S
S192 N193 1.613 . S
S192 N194 1.610 . S
N193 S192 1.613 . S
N193 C196 1.350 . S
N194 S192 1.610 . S
N194 C195 1.351 . S
C195 C189 1.428 . S
C195 N194 1.351 . S
C195 C196 1.434 . S
C196 C187 1.429 . S
C196 N193 1.350 . S
C196 C195 1.434 . S
C197 C198 1.369 . S
C197 C199 1.419 . S
C197 H201 0.930 . S
C198 C197 1.369 . S
C198 C207 1.429 . S
C199 C197 1.419 . S
C199 C200 1.363 . S
C199 H202 0.929 . S
C200 C199 1.363 . S
C200 C206 1.428 . S
H201 C197 0.930 . S
H202 C199 0.929 . S
S203 N204 1.613 . S
S203 N205 1.610 . S
N204 S203 1.613 . S
N204 C207 1.350 . S
N205 S203 1.610 . S
N205 C206 1.351 . S
C206 C200 1.428 . S
C206 N205 1.351 . S
C206 C207 1.434 . S
C207 C198 1.429 . S
C207 N204 1.350 . S
C207 C206 1.434 . S
C208 C209 1.369 . S
C208 C210 1.419 . S
C208 H212 0.930 . S
C209 C208 1.369 . S
C209 C218 1.429 1_565 S
C210 C208 1.419 . S
C210 C211 1.363 . S
C210 H213 0.929 . S
C211 C210 1.363 . S
C211 C217 1.428 1_565 S
H212 C208 0.930 . S
H213 C210 0.929 . S
S214 N215 1.613 . S
S214 N216 1.610 . S
N215 S214 1.613 . S
N215 C218 1.350 . S
N216 S214 1.610 . S
N216 C217 1.351 . S
C217 C211 1.428 1_545 S
C217 N216 1.351 . S
C217 C218 1.434 . S
C218 C209 1.429 1_545 S
C218 N215 1.350 . S
C218 C217 1.434 . S
C219 C220 1.369 . S
C219 C221 1.419 . S
C219 H223 0.930 . S
C220 C219 1.369 . S
C220 C229 1.429 1_455 S
C221 C219 1.419 . S
C221 C222 1.363 . S
C221 H224 0.929 . S
C222 C221 1.363 . S
C222 C228 1.428 1_455 S
H223 C219 0.930 . S
H224 C221 0.929 . S
S225 N226 1.613 . S
S225 N227 1.610 . S
N226 S225 1.613 . S
N226 C229 1.350 . S
N227 S225 1.610 . S
N227 C228 1.351 . S
C228 C222 1.428 1_655 S
C228 N227 1.351 . S
C228 C229 1.434 . S
C229 C220 1.429 1_655 S
C229 N226 1.350 . S
C229 C228 1.434 . S
C230 C231 1.369 . S
C230 C232 1.419 . S
C230 H234 0.930 . S
C231 C230 1.369 . S
C231 C240 1.429 . S
C232 C230 1.419 . S
C232 C233 1.363 . S
C232 H235 0.929 . S
C233 C232 1.363 . S
C233 C239 1.428 . S
H234 C230 0.930 . S
H235 C232 0.929 . S
S236 N237 1.613 . S
S236 N238 1.610 . S
N237 S236 1.613 . S
N237 C240 1.350 . S
N238 S236 1.610 . S
N238 C239 1.351 . S
C239 C233 1.428 . S
C239 N238 1.351 . S
C239 C240 1.434 . S
C240 C231 1.429 . S
C240 N237 1.350 . S
C240 C239 1.434 . S
C241 C242 1.369 . S
C241 C243 1.419 . S
C241 H245 0.930 . S
C242 C241 1.369 . S
C242 C251 1.429 . S
C243 C241 1.419 . S
C243 C244 1.363 . S
C243 H246 0.929 . S
C244 C243 1.363 . S
C244 C250 1.428 . S
H245 C241 0.930 . S
H246 C243 0.929 . S
S247 N248 1.613 . S
S247 N249 1.610 . S
N248 S247 1.613 . S
N248 C251 1.350 . S
N249 S247 1.610 . S
N249 C250 1.351 . S
C250 C244 1.428 . S
C250 N249 1.351 . S
C250 C251 1.434 . S
C251 C242 1.429 . S
C251 N248 1.350 . S
C251 C250 1.434 . S
C123 C111 1.327 1_556 S
C121 C29 1.472 . S
C132 C8 1.481 . S
C134 C98 1.345 1_554 S
C143 C0 1.520 . S
C145 C115 1.490 . S
C154 C17 1.512 . S
C156 C102 1.489 . S
C165 C63 1.471 . S
C167 C85 1.317 . S
C176 C42 1.481 . S
C178 C72 1.348 . S
C189 C89 1.491 . S
C187 C34 1.518 . S
C200 C76 1.490 . S
C198 C51 1.515 . S
C209 C4 1.512 . S
C211 C77 1.516 . S
C220 C13 1.524 . S
C222 C90 1.530 . S
C233 C103 1.514 . S
C231 C38 1.515 . S
C242 C47 1.527 . S
C244 C116 1.528 . S
