# Generated by pormake.
# Topology anh, (6,3)-cn, num edge types: 1
# Building blocks:
#     Node 0, Type 0, BuildingBlock: PAMTUU_clean_sbu_0, # of connection points: 6
#     Node 1, Type 0, BuildingBlock: PAMTUU_clean_sbu_0, # of connection points: 6
#     Node 2, Type 0, BuildingBlock: PAMTUU_clean_sbu_0, # of connection points: 6
#     Node 3, Type 1, BuildingBlock: QEWDON_clean_linker_0, # of connection points: 3
#     Node 4, Type 1, BuildingBlock: QEWDON_clean_linker_0, # of connection points: 3
#     Node 5, Type 1, BuildingBlock: QEWDON_clean_linker_0, # of connection points: 3
#     Node 6, Type 1, BuildingBlock: QEWDON_clean_linker_0, # of connection points: 3
#     Node 7, Type 1, BuildingBlock: QEWDON_clean_linker_0, # of connection points: 3
#     Node 8, Type 1, BuildingBlock: QEWDON_clean_linker_0, # of connection points: 3
#     Edge 9, Type (0, 1), None
#     Edge 10, Type (0, 1), None
#     Edge 11, Type (0, 1), None
#     Edge 12, Type (0, 1), None
#     Edge 13, Type (0, 1), None
#     Edge 14, Type (0, 1), None
#     Edge 15, Type (0, 1), None
#     Edge 16, Type (0, 1), None
#     Edge 17, Type (0, 1), None
#     Edge 18, Type (0, 1), None
#     Edge 19, Type (0, 1), None
#     Edge 20, Type (0, 1), None
#     Edge 21, Type (0, 1), None
#     Edge 22, Type (0, 1), None
#     Edge 23, Type (0, 1), None
#     Edge 24, Type (0, 1), None
#     Edge 25, Type (0, 1), None
#     Edge 26, Type (0, 1), None
# Relax obj value: 0.668
# Max RMSD: 0.223
# Mean RMSD: 0.142
data_MOF--net-anh--node1-PAMTUU_clean_sbu_0--node2-QEWDON_clean_linker_0--edge1-none
_symmetry_space_group_name_H-M    P1
_symmetry_Int_Tables_number       1
_symmetry_cell_setting            triclinic
loop_
_symmetry_equiv_pos_as_xyz
'x, y, z'
_cell_length_a     14.40522
_cell_length_b     14.427125
_cell_length_c     22.208889
_cell_angle_alpha  95.393658
_cell_angle_beta   95.110537
_cell_angle_gamma 118.63421
loop_
_atom_site_label
_atom_site_type_symbol
_atom_site_fract_x
_atom_site_fract_y
_atom_site_fract_z
_atom_type_partial_charge
Tb0 Tb 1.28109 0.84504 0.18387 0.0
Tb1 Tb 0.35651 0.67321 0.20101 0.0
C2 C 0.32364 0.7409 0.06645 0.0
C3 C 1.29366 1.09031 0.15329 0.0
C4 C 1.27994 0.21208 0.07025 0.0
C5 C 0.32697 1.14868 0.05511 0.0
C6 C 0.32244 1.07789 0.09528 0.0
C7 C 1.30081 1.18854 0.17499 0.0
C8 C 1.30849 0.25782 0.13275 0.0
C9 C 1.24451 0.99831 0.18583 0.0
O10 O 1.12899 0.68824 0.18911 0.0
O11 O 1.18196 0.56041 0.19215 0.0
O12 O 1.27317 0.68466 0.2781 0.0
O13 O 0.35153 0.85465 0.27414 0.0
O14 O 0.38433 0.54717 0.17077 0.0
O15 O 0.44035 0.62924 0.26361 0.0
O16 O 0.50036 0.83707 0.23021 0.0
O17 O 0.45269 0.93669 0.17506 0.0
O18 O 1.29023 0.80381 0.09033 0.0
O19 O 0.35488 0.68666 0.10053 0.0
C20 C 1.10482 0.58568 0.19122 0.0
O21 O 1.18346 0.90588 0.15117 0.0
O22 O 1.30845 0.99305 0.22865 0.0
C23 C 1.29136 0.77914 0.30178 0.0
C24 C 0.56363 0.60387 0.21329 0.0
C25 C 0.7657 0.77454 0.20627 0.0
C26 C 0.74312 0.73653 0.26218 0.0
C27 C 0.64248 0.65101 0.26558 0.0
C28 C 0.59494 0.62612 0.15591 0.0
C29 C 0.6949 0.71166 0.15243 0.0
C30 C 0.4511 0.56849 0.22067 0.0
C31 C 0.52669 0.92976 0.21063 0.0
H32 H 0.3359 1.13099 0.0082 0.0
H33 H 0.32989 1.00894 0.07905 0.0
H34 H 1.28953 0.20619 0.22139 0.0
H35 H 1.30009 0.32669 0.14763 0.0
H36 H 0.79826 0.77959 0.30419 0.0
H37 H 0.62164 0.63267 0.31023 0.0
H38 H 0.53747 0.58863 0.11426 0.0
H39 H 0.70959 0.73606 0.10805 0.0
Tb40 Tb 0.65474 1.07683 0.5379 0.0
Tb41 Tb 0.90269 1.16864 0.53966 0.0
C42 C 0.75331 1.13106 0.4136 0.0
C43 C 0.38208 1.0468 0.5275 0.0
C44 C 1.21185 1.00508 0.44101 0.0
C45 C 1.31233 1.09468 0.43997 0.0
C46 C 0.39965 1.11139 0.48162 0.0
C47 C 1.27807 0.98482 0.53974 0.0
C48 C 1.19184 0.96774 0.49746 0.0
C49 C 0.46534 1.025 0.55285 0.0
O50 O 0.67139 0.93287 0.54049 0.0
O51 O 0.84273 0.99437 0.51856 0.0
O52 O 0.8776 1.09758 0.62209 0.0
O53 O 0.7344 1.11967 0.63291 0.0
O54 O 1.03758 1.19734 0.49781 0.0
O55 O 1.05599 0.26697 0.59111 0.0
O56 O 0.87177 0.29626 0.58238 0.0
O57 O 0.71356 0.24277 0.52443 0.0
O58 O 0.6688 1.07154 0.4393 0.0
O59 O 0.84837 1.18834 0.44745 0.0
C60 C 0.75046 0.91548 0.52823 0.0
O61 O 0.49032 0.9686 0.51489 0.0
O62 O 0.54961 1.10606 0.58533 0.0
C63 C 0.81276 1.10589 0.65674 0.0
C64 C 1.13374 0.38481 0.52153 0.0
C65 C 1.02423 0.48 0.46978 0.0
C66 C 1.05817 0.50304 0.53295 0.0
C67 C 1.11653 0.45845 0.55878 0.0
C68 C 1.12482 0.3865 0.45813 0.0
C69 C 1.06686 0.43113 0.43217 0.0
C70 C 1.09808 0.27894 0.54078 0.0
C71 C 0.79707 0.31833 0.56126 0.0
H72 H 0.32831 1.13167 0.39905 0.0
H73 H 0.48011 1.16357 0.47317 0.0
H74 H 1.26327 0.93861 0.57704 0.0
H75 H 1.11319 0.90566 0.50292 0.0
H76 H 1.03329 0.5486 0.56236 0.0
H77 H 1.12979 0.4657 0.60821 0.0
H78 H 1.14381 0.3364 0.42805 0.0
H79 H 1.05006 0.42208 0.3828 0.0
Tb80 Tb 0.84858 0.64681 0.88296 0.0
Tb81 Tb 0.97711 0.81871 0.79859 0.0
C82 C 0.85229 0.58649 0.74434 0.0
C83 C 0.70727 0.37795 0.91603 0.0
C84 C 0.74512 0.22305 0.85647 0.0
C85 C 0.76722 0.24801 0.92084 0.0
C86 C 0.75006 0.32696 0.9505 0.0
C87 C 0.66136 0.33369 0.85464 0.0
C88 C 0.68133 0.2576 0.82477 0.0
C89 C 0.74117 0.49098 0.93647 0.0
O90 O 1.006 0.6516 0.88649 0.0
O91 O 1.10813 0.81268 0.85476 0.0
O92 O 1.02677 0.92252 0.88458 0.0
O93 O 0.9216 0.80037 0.94398 0.0
O94 O 1.00968 0.95405 0.75702 0.0
O95 O 1.06371 0.84623 0.72454 0.0
O96 O 0.80588 0.78757 0.79256 0.0
O97 O 0.76229 0.73497 0.88462 0.0
O98 O 0.78829 0.57744 0.78466 0.0
O99 O 0.94888 0.66515 0.75677 0.0
C100 C 1.10089 0.72995 0.87938 0.0
O101 O 0.84445 0.5533 0.95103 0.0
O102 O 0.69909 0.53292 0.90148 0.0
C103 C 0.98824 0.89904 0.93566 0.0
C104 C 1.18052 1.02983 0.72931 0.0
C105 C 0.32385 0.23945 0.77854 0.0
C106 C 0.32948 1.15744 0.80559 0.0
C107 C 1.25214 1.0517 0.78275 0.0
C108 C 1.2049 1.10905 0.69188 0.0
C109 C 1.28474 0.21429 0.7152 0.0
C110 C 1.07133 0.93916 0.72242 0.0
C111 C 0.74354 0.77195 0.83643 0.0
H112 H 0.81084 0.21773 0.94718 0.0
H113 H 0.78299 0.35759 -0.00155 0.0
H114 H 0.62391 0.36845 0.82713 0.0
H115 H 0.65948 0.2388 0.77553 0.0
H116 H 0.37138 1.17372 0.85161 0.0
H117 H 1.23914 0.99054 0.81094 0.0
H118 H 1.15414 1.0931 0.64883 0.0
H119 H 1.29073 0.27704 0.68984 0.0
H120 H 0.87176 0.2895 0.34267 0.0
C121 C 0.80577 0.21925 0.31519 0.0
C122 C 0.73967 1.13052 0.34437 0.0
C123 C 0.78326 0.22052 0.25125 0.0
H124 H 0.60547 0.9708 0.32914 0.0
C125 C 0.65464 1.03846 0.30736 0.0
C126 C 0.62803 1.03198 0.24381 0.0
C127 C 0.69163 1.12497 0.21675 0.0
C128 C 0.83671 0.3268 0.22327 0.0
H129 H 0.6689 1.12371 0.16875 0.0
C130 C 0.95082 0.40024 0.22236 0.0
C131 C 0.98744 0.49924 0.19537 0.0
C132 C 0.76481 0.35718 0.19733 0.0
H133 H 0.6796 0.30795 0.1972 0.0
C134 C 0.79922 0.4516 0.17264 0.0
H135 H 1.00957 0.38103 0.24232 0.0
C136 C 0.90736 0.52083 0.17179 0.0
H137 H 0.92821 0.59255 0.15165 0.0
H138 H 0.74048 0.47185 0.15384 0.0
H139 H 0.78232 0.66967 0.66137 0.0
C140 C 0.78503 0.60025 0.64041 0.0
C141 C 0.81232 0.54124 0.6785 0.0
C142 C 0.76175 0.57127 0.57628 0.0
H143 H 0.84622 0.41099 0.68139 0.0
C144 C 0.82094 0.45326 0.65201 0.0
C145 C 0.79574 0.41863 0.5881 0.0
C146 C 0.76433 0.47735 0.55112 0.0
C147 C 0.72853 0.63478 0.53641 0.0
H148 H 0.74342 0.45016 0.50249 0.0
C149 C 0.76456 0.74759 0.55158 0.0
C150 C 0.72502 0.80043 0.51373 0.0
C151 C 0.6537 0.57924 0.48286 0.0
H152 H 0.62041 0.49398 0.46987 0.0
C153 C 0.61605 0.63088 0.44599 0.0
H154 H 0.82134 0.7936 0.59256 0.0
C155 C 0.65087 0.73956 0.46113 0.0
H156 H 0.61834 0.77625 0.43169 0.0
H157 H 0.55711 0.58531 0.40575 0.0
H158 H 0.47258 0.75912 -0.01327 0.0
C159 C 0.39714 0.7459 0.96318 0.0
C160 C 1.31165 0.72661 -0.0027 0.0
C161 C 0.3879 0.75754 0.89993 0.0
H162 H 1.15085 0.70279 -0.00711 0.0
C163 C 1.2152 0.71541 0.96693 0.0
C164 C 1.20237 0.72928 0.90573 0.0
C165 C 1.28832 0.74837 0.87263 0.0
C166 C 0.48288 0.79069 0.86291 0.0
H167 H 1.27617 0.75541 0.82489 0.0
C168 C 0.56773 0.76357 0.87058 0.0
C169 C 0.65014 0.79533 0.83118 0.0
C170 C 0.48806 0.85372 0.81705 0.0
H171 H 0.43225 0.88328 0.8105 0.0
C172 C 0.56541 0.88211 0.77852 0.0
H173 H 0.56877 0.71708 0.90588 0.0
C174 C 0.64468 0.85334 0.78515 0.0
H175 H 0.70354 0.87883 0.75434 0.0
H176 H 0.5639 0.92779 0.74288 0.0
H177 H 1.08489 0.63252 0.31064 0.0
C178 C 1.10513 0.71409 0.32686 0.0
C179 C 1.2098 0.79581 0.32939 0.0
C180 C 1.03054 0.73387 0.35411 0.0
H181 H 0.32129 0.9601 0.36144 0.0
C182 C 1.23814 0.89884 0.35713 0.0
C183 C 1.16572 0.91961 0.38659 0.0
C184 C 1.05898 0.83773 0.3805 0.0
C185 C 0.95415 0.64545 0.38123 0.0
H186 H 1.00421 0.84956 0.40652 0.0
C187 C 1.00014 0.61936 0.4302 0.0
C188 C 0.95309 0.51509 0.44145 0.0
C189 C 0.85143 0.57205 0.35043 0.0
H190 H 0.81656 0.59055 0.31133 0.0
C191 C 0.7969 0.471 0.368 0.0
H192 H 1.08194 0.67499 0.45178 0.0
C193 C 0.84913 0.44123 0.41204 0.0
H194 H 0.8104 0.36001 0.4215 0.0
H195 H 0.71783 0.41312 0.34425 0.0
H196 H 1.00008 1.14874 0.72206 0.0
C197 C 0.94949 1.16238 0.75053 0.0
C198 C 0.84383 1.12885 0.72431 0.0
C199 C 0.99073 0.21872 0.81103 0.0
H200 H 0.69193 1.10926 0.74159 0.0
C201 C 0.77384 1.13698 0.76155 0.0
C202 C 0.81099 1.18927 0.82234 0.0
C203 C 0.91991 0.23147 0.84594 0.0
C204 C 1.10794 0.26884 0.83636 0.0
H205 H 0.9512 0.28157 0.89016 0.0
C206 C 1.18326 0.28698 0.79649 0.0
C207 C 1.28482 0.30017 0.81741 0.0
C208 C 1.14583 0.2931 0.89986 0.0
H209 H 1.09288 0.28126 0.93343 0.0
C210 C 1.25388 0.32992 0.92136 0.0
H211 H 1.15857 0.27751 0.74803 0.0
C212 C 0.32276 0.33102 0.88056 0.0
H213 H 0.4017 0.34545 0.89863 0.0
H214 H 1.28199 0.34882 0.97012 0.0
H215 H 0.88124 0.90199 0.02777 0.0
C216 C 0.95752 0.97461 0.03221 0.0
C217 C 1.02099 0.98793 -0.01391 0.0
C218 C 0.99367 1.0516 0.08494 0.0
H219 H 1.17174 1.08854 0.95747 0.0
C220 C 1.12042 1.08159 -0.00841 0.0
C221 C 1.1613 1.15678 0.04589 0.0
C222 C 1.08961 1.14746 0.08749 0.0
C223 C 0.94418 1.02371 0.14169 0.0
H224 H 1.1169 0.20646 0.128 0.0
C225 C 0.89343 0.91661 0.15207 0.0
C226 C 0.84623 0.88777 0.2048 0.0
C227 C 0.95477 1.10313 0.18822 0.0
H228 H 0.99173 1.18643 0.18267 0.0
C229 C 0.91829 1.07614 0.24348 0.0
H230 H 0.88908 0.85419 0.11894 0.0
C231 C 0.86214 0.96935 0.2514 0.0
H232 H 0.82712 0.95118 0.29284 0.0
H233 H 0.93107 1.13827 0.27974 0.0
loop_
_geom_bond_atom_site_label_1
_geom_bond_atom_site_label_2
_geom_bond_distance
_geom_bond_site_symmetry_2
_ccdc_geom_bond_type
Tb0 C9 2.764 . S
Tb0 O10 2.325 . S
Tb0 O13 2.303 1_655 S
Tb0 O17 2.322 1_655 S
Tb0 O18 2.349 . S
Tb0 O21 2.415 . S
Tb0 O22 2.399 . S
Tb1 O11 2.322 1_455 S
Tb1 O12 2.349 . S
Tb1 O14 2.415 . S
Tb1 O15 2.399 . S
Tb1 O16 2.325 . S
Tb1 O19 2.303 . S
Tb1 C30 2.764 . S
C2 O18 1.261 1_455 S
C2 O19 1.257 . S
C3 C6 1.358 . S
C3 C7 1.332 . S
C3 C9 1.504 . S
C4 C5 1.373 . S
C4 C8 1.308 . S
C5 C4 1.373 . S
C5 C6 1.429 . S
C5 H32 0.932 . S
C6 C3 1.358 . S
C6 C5 1.429 . S
C6 H33 0.930 . S
C7 C3 1.332 . S
C7 C8 1.394 . S
C7 H34 0.932 . S
C8 C4 1.308 . S
C8 C7 1.394 . S
C8 H35 0.929 . S
C9 Tb0 2.764 . S
C9 C3 1.504 . S
C9 O21 1.239 . S
C9 O22 1.263 . S
O10 Tb0 2.325 . S
O10 C20 1.236 . S
O11 Tb1 2.322 1_655 S
O11 C20 1.257 . S
O12 Tb1 2.349 . S
O12 C23 1.261 . S
O13 Tb0 2.303 1_455 S
O13 C23 1.257 . S
O14 Tb1 2.415 . S
O14 C30 1.239 . S
O15 Tb1 2.399 . S
O15 C30 1.263 . S
O16 Tb1 2.325 . S
O16 C31 1.236 . S
O17 Tb0 2.322 1_455 S
O17 C31 1.257 . S
O18 Tb0 2.349 . S
O18 C2 1.261 1_655 S
O19 Tb1 2.303 . S
O19 C2 1.257 . S
C20 O10 1.236 . S
C20 O11 1.257 . S
O21 Tb0 2.415 . S
O21 C9 1.239 . S
O22 Tb0 2.399 . S
O22 C9 1.263 . S
C23 O12 1.261 . S
C23 O13 1.257 . S
C24 C27 1.358 . S
C24 C28 1.332 . S
C24 C30 1.504 . S
C25 C26 1.373 . S
C25 C29 1.308 . S
C26 C25 1.373 . S
C26 C27 1.429 . S
C26 H36 0.932 . S
C27 C24 1.358 . S
C27 C26 1.429 . S
C27 H37 0.930 . S
C28 C24 1.332 . S
C28 C29 1.394 . S
C28 H38 0.932 . S
C29 C25 1.308 . S
C29 C28 1.394 . S
C29 H39 0.929 . S
C30 Tb1 2.764 . S
C30 O14 1.239 . S
C30 O15 1.263 . S
C30 C24 1.504 . S
C31 O16 1.236 . S
C31 O17 1.257 . S
H32 C5 0.932 . S
H33 C6 0.930 . S
H34 C7 0.932 . S
H35 C8 0.929 . S
H36 C26 0.932 . S
H37 C27 0.930 . S
H38 C28 0.932 . S
H39 C29 0.929 . S
Tb40 C49 2.764 1_545 S
Tb40 O50 2.325 1_545 S
Tb40 O53 2.303 . S
Tb40 O57 2.322 . S
Tb40 O58 2.349 . S
Tb40 O61 2.415 1_545 S
Tb40 O62 2.399 1_545 S
Tb41 O51 2.322 . S
Tb41 O52 2.349 . S
Tb41 O54 2.415 . S
Tb41 O55 2.399 . S
Tb41 O56 2.325 . S
Tb41 O59 2.303 . S
Tb41 C70 2.764 . S
C42 O58 1.261 . S
C42 O59 1.257 . S
C43 C46 1.358 . S
C43 C47 1.332 . S
C43 C49 1.504 . S
C44 C45 1.373 . S
C44 C48 1.308 . S
C45 C44 1.373 . S
C45 C46 1.429 . S
C45 H72 0.932 . S
C46 C43 1.358 . S
C46 C45 1.429 . S
C46 H73 0.930 . S
C47 C43 1.332 . S
C47 C48 1.394 . S
C47 H74 0.932 . S
C48 C44 1.308 . S
C48 C47 1.394 . S
C48 H75 0.929 . S
C49 Tb40 2.764 1_565 S
C49 C43 1.504 . S
C49 O61 1.239 . S
C49 O62 1.263 . S
O50 Tb40 2.325 1_565 S
O50 C60 1.236 . S
O51 Tb41 2.322 . S
O51 C60 1.257 1_545 S
O52 Tb41 2.349 . S
O52 C63 1.261 . S
O53 Tb40 2.303 . S
O53 C63 1.257 . S
O54 Tb41 2.415 . S
O54 C70 1.239 . S
O55 Tb41 2.399 . S
O55 C70 1.263 . S
O56 Tb41 2.325 . S
O56 C71 1.236 . S
O57 Tb40 2.322 . S
O57 C71 1.257 . S
O58 Tb40 2.349 . S
O58 C42 1.261 . S
O59 Tb41 2.303 . S
O59 C42 1.257 . S
C60 O50 1.236 . S
C60 O51 1.257 1_565 S
O61 Tb40 2.415 1_565 S
O61 C49 1.239 . S
O62 Tb40 2.399 1_565 S
O62 C49 1.263 . S
C63 O52 1.261 . S
C63 O53 1.257 . S
C64 C67 1.358 . S
C64 C68 1.332 . S
C64 C70 1.504 . S
C65 C66 1.373 . S
C65 C69 1.308 . S
C66 C65 1.373 . S
C66 C67 1.429 . S
C66 H76 0.932 . S
C67 C64 1.358 . S
C67 C66 1.429 . S
C67 H77 0.930 . S
C68 C64 1.332 . S
C68 C69 1.394 . S
C68 H78 0.932 . S
C69 C65 1.308 . S
C69 C68 1.394 . S
C69 H79 0.929 . S
C70 Tb41 2.764 . S
C70 O54 1.239 . S
C70 O55 1.263 . S
C70 C64 1.504 . S
C71 O56 1.236 . S
C71 O57 1.257 . S
H72 C45 0.932 . S
H73 C46 0.930 . S
H74 C47 0.932 . S
H75 C48 0.929 . S
H76 C66 0.932 . S
H77 C67 0.930 . S
H78 C68 0.932 . S
H79 C69 0.929 . S
Tb80 C89 2.764 . S
Tb80 O90 2.325 . S
Tb80 O93 2.303 . S
Tb80 O97 2.322 . S
Tb80 O98 2.349 . S
Tb80 O101 2.415 . S
Tb80 O102 2.399 . S
Tb81 O91 2.322 . S
Tb81 O92 2.349 1_556 S
Tb81 O94 2.415 . S
Tb81 O95 2.399 . S
Tb81 O96 2.325 . S
Tb81 O99 2.303 . S
Tb81 C110 2.764 . S
C82 O98 1.261 . S
C82 O99 1.257 . S
C83 C86 1.358 . S
C83 C87 1.332 . S
C83 C89 1.504 . S
C84 C85 1.373 . S
C84 C88 1.308 . S
C85 C84 1.373 . S
C85 C86 1.429 . S
C85 H112 0.932 . S
C86 C83 1.358 . S
C86 C85 1.429 . S
C86 H113 0.930 . S
C87 C83 1.332 . S
C87 C88 1.394 . S
C87 H114 0.932 . S
C88 C84 1.308 . S
C88 C87 1.394 . S
C88 H115 0.929 . S
C89 Tb80 2.764 . S
C89 C83 1.504 . S
C89 O101 1.239 . S
C89 O102 1.263 . S
O90 Tb80 2.325 . S
O90 C100 1.236 . S
O91 Tb81 2.322 . S
O91 C100 1.257 . S
O92 Tb81 2.349 1_554 S
O92 C103 1.261 . S
O93 Tb80 2.303 . S
O93 C103 1.257 1_556 S
O94 Tb81 2.415 . S
O94 C110 1.239 . S
O95 Tb81 2.399 . S
O95 C110 1.263 . S
O96 Tb81 2.325 . S
O96 C111 1.236 . S
O97 Tb80 2.322 . S
O97 C111 1.257 . S
O98 Tb80 2.349 . S
O98 C82 1.261 . S
O99 Tb81 2.303 . S
O99 C82 1.257 . S
C100 O90 1.236 . S
C100 O91 1.257 . S
O101 Tb80 2.415 . S
O101 C89 1.239 . S
O102 Tb80 2.399 . S
O102 C89 1.263 . S
C103 O92 1.261 . S
C103 O93 1.257 1_554 S
C104 C107 1.358 . S
C104 C108 1.332 . S
C104 C110 1.504 . S
C105 C106 1.373 . S
C105 C109 1.308 . S
C106 C105 1.373 . S
C106 C107 1.429 . S
C106 H116 0.932 1_556 S
C107 C104 1.358 . S
C107 C106 1.429 . S
C107 H117 0.930 1_556 S
C108 C104 1.332 . S
C108 C109 1.394 . S
C108 H118 0.932 . S
C109 C105 1.308 . S
C109 C108 1.394 . S
C109 H119 0.929 . S
C110 Tb81 2.764 . S
C110 O94 1.239 . S
C110 O95 1.263 . S
C110 C104 1.504 . S
C111 O96 1.236 . S
C111 O97 1.257 . S
H112 C85 0.932 . S
H113 C86 0.930 . S
H114 C87 0.932 . S
H115 C88 0.929 . S
H116 C106 0.932 1_554 S
H117 C107 0.930 1_554 S
H118 C108 0.932 . S
H119 C109 0.929 . S
H120 C121 0.949 . S
C121 H120 0.949 . S
C121 C122 1.395 . S
C121 C123 1.391 . S
C122 C121 1.395 . S
C122 C125 1.390 1_545 S
C123 C121 1.391 . S
C123 C127 1.387 1_545 S
C123 C128 1.491 . S
H124 C125 0.950 . S
C125 C122 1.390 1_565 S
C125 H124 0.950 . S
C125 C126 1.378 . S
C126 C125 1.378 . S
C126 C127 1.409 . S
C127 C123 1.387 1_565 S
C127 C126 1.409 . S
C127 H129 0.951 . S
C128 C123 1.491 . S
C128 C130 1.382 . S
C128 C132 1.404 . S
H129 C127 0.951 . S
C130 C128 1.382 . S
C130 C131 1.390 . S
C130 H135 0.949 . S
C131 C130 1.390 . S
C131 C136 1.399 . S
C132 C128 1.404 . S
C132 H133 0.950 . S
C132 C134 1.375 . S
H133 C132 0.950 . S
C134 C132 1.375 . S
C134 C136 1.382 . S
C134 H138 0.950 . S
H135 C130 0.949 . S
C136 C131 1.399 . S
C136 C134 1.382 . S
C136 H137 0.952 . S
H137 C136 0.952 . S
H138 C134 0.950 . S
H139 C140 0.949 . S
C140 H139 0.949 . S
C140 C141 1.395 . S
C140 C142 1.391 . S
C141 C140 1.395 . S
C141 C144 1.390 . S
C142 C140 1.391 . S
C142 C146 1.387 . S
C142 C147 1.491 . S
H143 C144 0.950 . S
C144 C141 1.390 . S
C144 H143 0.950 . S
C144 C145 1.378 . S
C145 C144 1.378 . S
C145 C146 1.409 . S
C146 C142 1.387 . S
C146 C145 1.409 . S
C146 H148 0.951 . S
C147 C142 1.491 . S
C147 C149 1.382 . S
C147 C151 1.404 . S
H148 C146 0.951 . S
C149 C147 1.382 . S
C149 C150 1.390 . S
C149 H154 0.949 . S
C150 C149 1.390 . S
C150 C155 1.399 . S
C151 C147 1.404 . S
C151 H152 0.950 . S
C151 C153 1.375 . S
H152 C151 0.950 . S
C153 C151 1.375 . S
C153 C155 1.382 . S
C153 H157 0.950 . S
H154 C149 0.949 . S
C155 C150 1.399 . S
C155 C153 1.382 . S
C155 H156 0.952 . S
H156 C155 0.952 . S
H157 C153 0.950 . S
H158 C159 0.949 . S
C159 H158 0.949 . S
C159 C160 1.395 1_556 S
C159 C161 1.391 . S
C160 C159 1.395 1_554 S
C160 C163 1.390 1_454 S
C161 C159 1.391 . S
C161 C165 1.387 1_455 S
C161 C166 1.491 . S
H162 C163 0.950 1_554 S
C163 C160 1.390 1_656 S
C163 H162 0.950 1_556 S
C163 C164 1.378 . S
C164 C163 1.378 . S
C164 C165 1.409 . S
C165 C161 1.387 1_655 S
C165 C164 1.409 . S
C165 H167 0.951 . S
C166 C161 1.491 . S
C166 C168 1.382 . S
C166 C170 1.404 . S
H167 C165 0.951 . S
C168 C166 1.382 . S
C168 C169 1.390 . S
C168 H173 0.949 . S
C169 C168 1.390 . S
C169 C174 1.399 . S
C170 C166 1.404 . S
C170 H171 0.950 . S
C170 C172 1.375 . S
H171 C170 0.950 . S
C172 C170 1.375 . S
C172 C174 1.382 . S
C172 H176 0.950 . S
H173 C168 0.949 . S
C174 C169 1.399 . S
C174 C172 1.382 . S
C174 H175 0.952 . S
H175 C174 0.952 . S
H176 C172 0.950 . S
H177 C178 0.949 . S
C178 H177 0.949 . S
C178 C179 1.395 1_655 S
C178 C180 1.391 . S
C179 C178 1.395 1_455 S
C179 C182 1.390 . S
C180 C178 1.391 . S
C180 C184 1.387 1_655 S
C180 C185 1.491 . S
H181 C182 0.950 . S
C182 C179 1.390 . S
C182 H181 0.950 . S
C182 C183 1.378 . S
C183 C182 1.378 . S
C183 C184 1.409 . S
C184 C180 1.387 1_455 S
C184 C183 1.409 . S
C184 H186 0.951 . S
C185 C180 1.491 . S
C185 C187 1.382 . S
C185 C189 1.404 . S
H186 C184 0.951 . S
C187 C185 1.382 . S
C187 C188 1.390 . S
C187 H192 0.949 . S
C188 C187 1.390 . S
C188 C193 1.399 . S
C189 C185 1.404 . S
C189 H190 0.950 . S
C189 C191 1.375 . S
H190 C189 0.950 . S
C191 C189 1.375 . S
C191 C193 1.382 . S
C191 H195 0.950 . S
H192 C187 0.949 . S
C193 C188 1.399 . S
C193 C191 1.382 . S
C193 H194 0.952 . S
H194 C193 0.952 . S
H195 C191 0.950 . S
H196 C197 0.949 . S
C197 H196 0.949 . S
C197 C198 1.395 1_565 S
C197 C199 1.391 1_565 S
C198 C197 1.395 1_545 S
C198 C201 1.390 . S
C199 C197 1.391 1_545 S
C199 C203 1.387 . S
C199 C204 1.491 1_545 S
H200 C201 0.950 . S
C201 C198 1.390 . S
C201 H200 0.950 . S
C201 C202 1.378 . S
C202 C201 1.378 . S
C202 C203 1.409 . S
C203 C199 1.387 . S
C203 C202 1.409 . S
C203 H205 0.951 . S
C204 C199 1.491 1_565 S
C204 C206 1.382 . S
C204 C208 1.404 . S
H205 C203 0.951 . S
C206 C204 1.382 . S
C206 C207 1.390 . S
C206 H211 0.949 . S
C207 C206 1.390 . S
C207 C212 1.399 . S
C208 C204 1.404 . S
C208 H209 0.950 . S
C208 C210 1.375 . S
H209 C208 0.950 . S
C210 C208 1.375 . S
C210 C212 1.382 . S
C210 H214 0.950 . S
H211 C206 0.949 . S
C212 C207 1.399 . S
C212 C210 1.382 . S
C212 H213 0.952 . S
H213 C212 0.952 . S
H214 C210 0.950 . S
H215 C216 0.949 1_556 S
C216 H215 0.949 1_554 S
C216 C217 1.395 1_554 S
C216 C218 1.391 . S
C217 C216 1.395 1_556 S
C217 C220 1.396 . S
C218 C216 1.391 . S
C218 C222 1.387 . S
C218 C223 1.491 . S
H219 C220 0.962 . S
C220 C217 1.396 . S
C220 H219 0.962 . S
C220 C221 1.360 1_556 S
C221 C220 1.360 1_554 S
C221 C222 1.409 . S
C222 C218 1.387 . S
C222 C221 1.409 . S
C222 H224 0.951 . S
C223 C218 1.491 . S
C223 C225 1.382 . S
C223 C227 1.404 . S
H224 C222 0.951 . S
C225 C223 1.382 . S
C225 C226 1.390 . S
C225 H230 0.949 . S
C226 C225 1.390 . S
C226 C231 1.399 . S
C227 C223 1.404 . S
C227 H228 0.950 . S
C227 C229 1.375 . S
H228 C227 0.950 . S
C229 C227 1.375 . S
C229 C231 1.382 . S
C229 H233 0.950 . S
H230 C225 0.949 . S
C231 C226 1.399 . S
C231 C229 1.382 . S
C231 H232 0.952 . S
H232 C231 0.952 . S
H233 C229 0.950 . S
C25 C226 2.789 . S
C65 C188 3.210 . S
C105 C207 3.439 . S
C4 C221 3.589 . S
C183 C44 2.836 . S
C202 C84 2.763 . S
C60 C150 4.679 . S
C100 C164 4.748 . S
C31 C126 4.748 . S
C145 C71 4.760 . S
C169 C111 4.731 . S
C20 C131 4.692 . S
C160 C2 1.959 . S
C42 C122 2.046 . S
C82 C141 1.956 . S
C198 C63 1.048 . S
C217 C103 1.644 1_556 S
C23 C179 0.851 . S
