# Generated by pormake.
# Topology rtl, (3,6)-cn, num edge types: 1
# Building blocks:
#     Node 0, Type 0, BuildingBlock: BETDAH_clean_linker_0, # of connection points: 3
#     Node 1, Type 0, BuildingBlock: BETDAH_clean_linker_0, # of connection points: 3
#     Node 2, Type 0, BuildingBlock: BETDAH_clean_linker_0, # of connection points: 3
#     Node 3, Type 0, BuildingBlock: BETDAH_clean_linker_0, # of connection points: 3
#     Node 4, Type 1, BuildingBlock: VOLQOD_clean_sbu_1, # of connection points: 6
#     Node 5, Type 1, BuildingBlock: VOLQOD_clean_sbu_1, # of connection points: 6
#     Edge 6, Type (0, 1), BuildingBlock: OJICUG_clean_linker_0, # of connection points: 2
#     Edge 7, Type (0, 1), BuildingBlock: OJICUG_clean_linker_0, # of connection points: 2
#     Edge 8, Type (0, 1), BuildingBlock: OJICUG_clean_linker_0, # of connection points: 2
#     Edge 9, Type (0, 1), BuildingBlock: OJICUG_clean_linker_0, # of connection points: 2
#     Edge 10, Type (0, 1), BuildingBlock: OJICUG_clean_linker_0, # of connection points: 2
#     Edge 11, Type (0, 1), BuildingBlock: OJICUG_clean_linker_0, # of connection points: 2
#     Edge 12, Type (0, 1), BuildingBlock: OJICUG_clean_linker_0, # of connection points: 2
#     Edge 13, Type (0, 1), BuildingBlock: OJICUG_clean_linker_0, # of connection points: 2
#     Edge 14, Type (0, 1), BuildingBlock: OJICUG_clean_linker_0, # of connection points: 2
#     Edge 15, Type (0, 1), BuildingBlock: OJICUG_clean_linker_0, # of connection points: 2
#     Edge 16, Type (0, 1), BuildingBlock: OJICUG_clean_linker_0, # of connection points: 2
#     Edge 17, Type (0, 1), BuildingBlock: OJICUG_clean_linker_0, # of connection points: 2
# Relax obj value: 0.042
# Max RMSD: 0.143
# Mean RMSD: 0.090
data_MOF--net-rtl--node1-VOLQOD_clean_sbu_1--node2-BETDAH_clean_linker_0--edge1-OJICUG_clean_linker_0
_symmetry_space_group_name_H-M    P1
_symmetry_Int_Tables_number       1
_symmetry_cell_setting            triclinic
loop_
_symmetry_equiv_pos_as_xyz
'x, y, z'
_cell_length_a     27.789088
_cell_length_b     27.603833
_cell_length_c     16.621197
_cell_angle_alpha  91.48783
_cell_angle_beta   90.451081
_cell_angle_gamma 89.150988
loop_
_atom_site_label
_atom_site_type_symbol
_atom_site_fract_x
_atom_site_fract_y
_atom_site_fract_z
_atom_type_partial_charge
H0 H 0.1296 0.87788 0.03496 0.0
H1 H 0.1654 0.74029 0.13618 0.0
H2 H 0.14329 0.7501 0.88164 0.0
C3 C 0.13717 0.83952 0.02658 0.0
C4 C 0.13487 0.81807 0.94902 0.0
C5 C 0.14676 0.81177 0.09459 0.0
C6 C 0.15785 0.76226 0.08434 0.0
C7 C 0.15814 0.74077 0.00698 0.0
C8 C 0.14551 0.76821 0.94008 0.0
N9 N 0.16827 0.69073 -0.00363 0.0
C10 C 0.21523 0.67308 -0.00075 0.0
H11 H 0.61287 0.6398 0.5128 0.0
H12 H 0.66464 0.75404 0.367 0.0
H13 H 0.67117 0.76839 0.62506 0.0
C14 C 0.63008 0.6746 0.5076 0.0
C15 C 0.64147 0.70149 0.57755 0.0
C16 C 0.63838 0.69298 0.43135 0.0
C17 C 0.65983 0.73837 0.42547 0.0
C18 C 0.67277 0.76507 0.49497 0.0
C19 C 0.66382 0.74654 0.57139 0.0
N20 N 0.68714 0.81354 0.48675 0.0
C21 C 0.73257 0.82972 0.50821 0.0
H22 H 0.92062 0.13295 -0.00835 0.0
H23 H 0.87215 0.24523 0.15714 0.0
H24 H 0.86072 0.26578 0.90204 0.0
C25 C 0.9038 0.16816 0.0031 0.0
C26 C 0.89122 0.19708 0.93799 0.0
C27 C 0.89686 0.18489 0.08241 0.0
C28 C 0.87617 0.23094 0.09615 0.0
C29 C 0.86199 0.25969 0.03169 0.0
C30 C 0.86924 0.24266 0.95204 0.0
N31 N 0.84566 0.30755 0.04919 0.0
C32 C 0.80554 0.32858 0.01337 0.0
H33 H 0.44183 0.35916 0.47049 0.0
H34 H 0.31868 0.31332 0.60213 0.0
H35 H 0.31554 0.30907 0.34425 0.0
C36 C 0.40698 0.34199 0.47107 0.0
C37 C 0.38248 0.33266 0.39821 0.0
C38 C 0.3841 0.33517 0.5448 0.0
C39 C 0.33747 0.31636 0.54561 0.0
C40 C 0.31332 0.30579 0.47316 0.0
C41 C 0.33563 0.31443 0.39988 0.0
N42 N 0.26386 0.29494 0.47343 0.0
C43 C 0.24731 0.24946 0.49176 0.0
O44 O 0.90761 0.97778 0.51879 0.0
Zn45 Zn 0.95492 0.03157 0.51259 0.0
O46 O 0.02082 1.00524 0.51738 0.0
Zn47 Zn 0.05303 0.03232 0.6129 0.0
Zn48 Zn 0.01985 0.93397 0.51928 0.0
Zn49 Zn 0.05618 0.02393 0.42312 0.0
O50 O 0.11023 0.07315 0.58507 0.0
O51 O 0.10923 0.06949 0.45171 0.0
O52 O 0.94018 0.07868 0.60461 0.0
O53 O 0.0086 0.07748 0.67417 0.0
O54 O 0.0733 0.97879 0.68653 0.0
O55 O 0.05308 0.91096 0.61962 0.0
O56 O 0.05543 0.90276 0.42476 0.0
O57 O 0.94281 0.06621 0.4089 0.0
O58 O 0.08549 0.9665 0.36521 0.0
O59 O 0.01272 0.05826 0.34585 0.0
C60 C 0.91047 0.93174 0.52095 0.0
C61 C 0.12712 0.08545 0.51769 0.0
C62 C 0.07169 0.93272 0.68047 0.0
C63 C 0.96569 0.09308 0.66423 0.0
C64 C 0.08142 0.92087 0.37068 0.0
C65 C 0.96924 0.07336 0.34821 0.0
O66 O 0.9511 0.90959 0.51991 0.0
O67 O 0.63272 0.48366 -0.0171 0.0
Zn68 Zn 0.58285 0.53737 -0.0097 0.0
O69 O 0.5176 0.51083 -0.01469 0.0
Zn70 Zn 0.48313 0.53691 0.89324 0.0
Zn71 Zn 0.52135 0.43934 -0.02254 0.0
Zn72 Zn 0.48205 0.53108 0.08107 0.0
O73 O 0.42227 0.57337 0.92426 0.0
O74 O 0.4225 0.57051 0.05715 0.0
O75 O 0.59468 0.58278 0.89938 0.0
O76 O 0.52487 0.58248 0.8335 0.0
O77 O 0.46311 0.48269 0.81852 0.0
O78 O 0.48865 0.41467 0.87491 0.0
O79 O 0.48917 0.40874 0.07319 0.0
O80 O 0.5939 0.57486 0.09467 0.0
O81 O 0.45966 0.47357 0.13922 0.0
O82 O 0.52359 0.56999 0.15623 0.0
C83 C 0.63075 0.4376 -0.02288 0.0
C84 C 0.40297 0.58386 -0.00821 0.0
C85 C 0.46706 0.43665 0.8182 0.0
C86 C 0.56783 0.59739 0.84224 0.0
C87 C 0.46519 0.42792 0.13113 0.0
C88 C 0.56676 0.58467 0.1545 0.0
O89 O 0.59055 0.41596 0.97488 0.0
C90 C 0.2157 0.17364 0.435 0.0
C91 C 0.22417 0.20384 0.50231 0.0
H92 H 0.17883 0.11177 0.38732 0.0
C93 C 0.20506 0.19225 0.57699 0.0
H94 H 0.23009 0.18236 0.37678 0.0
C95 C 0.17569 0.15178 0.58345 0.0
C96 C 0.16473 0.12283 0.51493 0.0
H97 H 0.21111 0.21557 0.62944 0.0
H98 H 0.15962 0.14472 0.64106 0.0
C99 C 0.18626 0.13341 0.44117 0.0
C100 C 0.28652 0.64063 0.06985 0.0
C101 C 0.26349 0.65334 -0.0019 0.0
H102 H 0.34905 0.60888 0.12437 0.0
C103 C 0.2869 0.64527 0.9246 0.0
H104 H 0.26878 0.6467 0.12715 0.0
C105 C 0.33274 0.62369 0.92258 0.0
C106 C 0.35583 0.6098 -0.00576 0.0
H107 H 0.26946 0.65496 0.8686 0.0
H108 H 0.34966 0.61718 0.86475 0.0
C109 C 0.33239 0.61906 0.06803 0.0
C110 C 0.77797 0.90352 0.53556 0.0
C111 C 0.7779 0.85347 0.52037 0.0
H112 H 0.81988 0.96748 0.54791 0.0
C113 C 0.82157 0.82828 0.50897 0.0
H114 H 0.74443 0.92353 0.5438 0.0
C115 C 0.86509 0.85336 0.51117 0.0
C116 C 0.86525 0.904 0.5239 0.0
H117 H 0.82194 0.78957 0.49629 0.0
H118 H 0.89836 0.83333 0.50065 0.0
C119 C 0.82118 0.9286 0.53732 0.0
C120 C 0.71824 0.33098 -0.01236 0.0
C121 C 0.76243 0.35466 -0.00872 0.0
H122 H 0.64159 0.33866 -0.02035 0.0
C123 C 0.7637 0.40504 -0.01545 0.0
H124 H 0.71673 0.29204 -0.00621 0.0
C125 C 0.72094 0.43189 -0.02286 0.0
C126 C 0.67617 0.40867 -0.02332 0.0
H127 H 0.79763 0.42388 -0.01179 0.0
H128 H 0.72299 0.47096 0.97427 0.0
C129 C 0.67536 0.35775 -0.01998 0.0
C130 C 0.10783 0.81372 0.22997 0.0
C131 C 0.13942 0.83449 0.17542 0.0
H132 H 0.06446 0.82486 0.33512 0.0
C133 C 0.157 0.88108 0.19249 0.0
H134 H 0.09348 0.77796 0.21795 0.0
C135 C 0.14 0.9081 0.25864 0.0
C136 C 0.10523 0.889 0.3095 0.0
H137 H 0.18186 0.8977 0.15197 0.0
H138 H 0.15257 0.94481 0.26778 0.0
C139 C 0.09092 0.84075 0.29665 0.0
C140 C 0.57377 0.67866 0.66364 0.0
C141 C 0.62354 0.68399 0.65465 0.0
H142 H 0.5172 0.64747 0.73008 0.0
C143 C 0.65505 0.66525 0.71274 0.0
H144 H 0.5489 0.69284 0.61922 0.0
C145 C 0.63693 0.63883 0.77649 0.0
C146 C 0.58714 0.63069 0.78236 0.0
H147 H 0.6936 0.66862 0.70623 0.0
H148 H 0.66204 0.62282 0.81866 0.0
C149 C 0.55574 0.65234 0.72676 0.0
C150 C 0.96023 0.13323 0.14648 0.0
C151 C 0.91458 0.15567 0.15032 0.0
H152 H 0.01312 0.08968 0.20544 0.0
C153 C 0.88654 0.15035 0.21938 0.0
H154 H 0.98298 0.13728 0.09452 0.0
C155 C 0.90387 0.12302 0.2834 0.0
C156 C 0.94974 0.10084 0.27969 0.0
H157 H 0.85109 0.16703 0.22363 0.0
H158 H 0.88151 0.11968 0.33598 0.0
C159 C 0.97761 0.10615 0.21036 0.0
C160 C 0.44161 0.33709 0.66206 0.0
C161 C 0.40397 0.35849 0.61819 0.0
H162 H 0.49098 0.34497 0.76155 0.0
C163 C 0.38653 0.40457 0.64142 0.0
H164 H 0.45566 0.30162 0.64434 0.0
C165 C 0.40699 0.42956 0.70671 0.0
C166 C 0.44495 0.40868 0.75083 0.0
H167 H 0.35767 0.4217 0.60778 0.0
H168 H 0.39303 0.46538 0.72255 0.0
C169 C 0.46167 0.36185 0.72872 0.0
C170 C 0.5738 0.64734 0.3589 0.0
C171 C 0.62033 0.66649 0.35895 0.0
H172 H 0.52057 0.60673 0.29488 0.0
C173 C 0.64907 0.65963 0.29037 0.0
H174 H 0.55051 0.65282 0.41042 0.0
C175 C 0.63184 0.63308 0.22354 0.0
C176 C 0.58543 0.61336 0.22407 0.0
H177 H 0.68511 0.674 0.28906 0.0
H178 H 0.65492 0.62789 0.17173 0.0
C179 C 0.55656 0.62112 0.29237 0.0
C180 C 0.95749 0.17925 0.84345 0.0
C181 C 0.90783 0.18088 0.85765 0.0
H182 H 0.01464 0.15038 0.77085 0.0
C183 C 0.87645 0.15821 0.80248 0.0
H184 H 0.98226 0.19619 0.8859 0.0
C185 C 0.89497 0.1317 0.73625 0.0
C186 C 0.94506 0.12709 0.72546 0.0
H187 H 0.83806 0.15848 0.81332 0.0
H188 H 0.87029 0.1125 0.69649 0.0
C189 C 0.97595 0.1526 0.77812 0.0
C190 C 0.44862 0.3384 0.29656 0.0
C191 C 0.40194 0.351 0.32246 0.0
H192 H 0.5051 0.35213 0.21269 0.0
C193 C 0.37507 0.38552 0.28001 0.0
H194 H 0.47 0.31202 0.32882 0.0
C195 C 0.39531 0.40894 0.21551 0.0
C196 C 0.44239 0.39754 0.19097 0.0
H197 H 0.33926 0.3963 0.29941 0.0
H198 H 0.37458 0.43705 0.18609 0.0
C199 C 0.46852 0.36108 0.23027 0.0
C200 C 0.13583 0.83665 0.80063 0.0
C201 C 0.11914 0.8475 0.87903 0.0
H202 H 0.1331 0.85486 0.67572 0.0
C203 C 0.08669 0.88686 0.89016 0.0
H204 H 0.16128 0.80727 0.78927 0.0
C205 C 0.0726 0.91526 0.82577 0.0
C206 C 0.08891 0.90389 0.7481 0.0
H207 H 0.07124 0.8956 0.94837 0.0
H208 H 0.0477 0.94531 0.83631 0.0
C209 C 0.12016 0.86412 0.73557 0.0
loop_
_geom_bond_atom_site_label_1
_geom_bond_atom_site_label_2
_geom_bond_distance
_geom_bond_site_symmetry_2
_ccdc_geom_bond_type
H0 C3 0.929 . S
H1 C6 0.929 . S
H2 C8 0.930 . S
C3 H0 0.929 . S
C3 C4 1.398 1_554 S
C3 C5 1.396 . S
C4 C3 1.398 1_556 S
C4 C8 1.407 . S
C5 C3 1.396 . S
C5 C6 1.394 . S
C6 H1 0.929 . S
C6 C5 1.394 . S
C6 C7 1.382 . S
C7 C6 1.382 . S
C7 C8 1.392 1_554 S
C7 N9 1.420 1_554 S
C8 H2 0.930 . S
C8 C4 1.407 . S
C8 C7 1.392 1_556 S
N9 C7 1.420 1_556 S
N9 C10 1.244 1_556 S
C10 N9 1.244 1_554 S
H11 C14 0.929 . S
H12 C17 0.929 . S
H13 C19 0.930 . S
C14 H11 0.929 . S
C14 C15 1.398 . S
C14 C16 1.396 . S
C15 C14 1.398 . S
C15 C19 1.407 . S
C16 C14 1.396 . S
C16 C17 1.394 . S
C17 H12 0.929 . S
C17 C16 1.394 . S
C17 C18 1.382 . S
C18 C17 1.382 . S
C18 C19 1.392 . S
C18 N20 1.420 . S
C19 H13 0.930 . S
C19 C15 1.407 . S
C19 C18 1.392 . S
N20 C18 1.420 . S
N20 C21 1.244 . S
C21 N20 1.244 . S
H22 C25 0.929 . S
H23 C28 0.929 . S
H24 C30 0.930 . S
C25 H22 0.929 . S
C25 C26 1.398 1_554 S
C25 C27 1.396 . S
C26 C25 1.398 1_556 S
C26 C30 1.407 . S
C27 C25 1.396 . S
C27 C28 1.394 . S
C28 H23 0.929 . S
C28 C27 1.394 . S
C28 C29 1.382 . S
C29 C28 1.382 . S
C29 C30 1.392 1_554 S
C29 N31 1.420 1_554 S
C30 H24 0.930 . S
C30 C26 1.407 . S
C30 C29 1.392 1_556 S
N31 C29 1.420 1_556 S
N31 C32 1.244 1_556 S
C32 N31 1.244 1_554 S
H33 C36 0.929 . S
H34 C39 0.929 . S
H35 C41 0.930 . S
C36 H33 0.929 . S
C36 C37 1.398 . S
C36 C38 1.396 . S
C37 C36 1.398 . S
C37 C41 1.407 . S
C38 C36 1.396 . S
C38 C39 1.394 . S
C39 H34 0.929 . S
C39 C38 1.394 . S
C39 C40 1.382 . S
C40 C39 1.382 . S
C40 C41 1.392 . S
C40 N42 1.420 . S
C41 H35 0.930 . S
C41 C37 1.407 . S
C41 C40 1.392 . S
N42 C40 1.420 . S
N42 C43 1.244 . S
C43 N42 1.244 . S
O44 Zn45 1.953 1_565 S
O44 C60 1.225 . S
Zn45 O44 1.953 1_545 S
Zn45 O46 1.949 1_655 S
Zn45 O52 1.919 . S
Zn45 O57 1.924 . S
O46 Zn45 1.949 1_455 S
O46 Zn47 1.923 . S
O46 Zn48 1.950 1_545 S
O46 Zn49 1.945 . S
Zn47 O46 1.923 . S
Zn47 O50 1.933 . S
Zn47 O53 1.941 . S
Zn47 O54 1.965 1_545 S
Zn48 O46 1.950 1_565 S
Zn48 O55 1.938 . S
Zn48 O56 1.906 . S
Zn48 O66 1.953 1_455 S
Zn49 O46 1.945 . S
Zn49 O51 1.932 . S
Zn49 O58 1.977 1_545 S
Zn49 O59 1.910 1_455 S
O50 Zn47 1.933 . S
O50 C61 1.226 . S
O51 Zn49 1.932 . S
O51 C61 1.307 . S
O52 Zn45 1.919 . S
O52 C63 1.253 . S
O53 Zn47 1.941 . S
O53 C63 1.283 1_455 S
O54 Zn47 1.965 1_565 S
O54 C62 1.303 . S
O55 Zn48 1.938 . S
O55 C62 1.247 . S
O56 Zn48 1.906 . S
O56 C64 1.304 . S
O57 Zn45 1.924 . S
O57 C65 1.311 . S
O58 Zn49 1.977 1_565 S
O58 C64 1.272 . S
O59 Zn49 1.910 1_655 S
O59 C65 1.231 . S
C60 O44 1.225 . S
C60 O66 1.298 . S
C61 O50 1.226 . S
C61 O51 1.307 . S
C62 O54 1.303 . S
C62 O55 1.247 . S
C63 O52 1.253 . S
C63 O53 1.283 1_655 S
C64 O56 1.304 . S
C64 O58 1.272 . S
C65 O57 1.311 . S
C65 O59 1.231 . S
O66 Zn48 1.953 1_655 S
O66 C60 1.298 . S
O67 Zn68 1.953 . S
O67 C83 1.225 . S
Zn68 O67 1.953 . S
Zn68 O69 1.949 . S
Zn68 O75 1.919 1_554 S
Zn68 O80 1.924 . S
O69 Zn68 1.949 . S
O69 Zn70 1.923 1_554 S
O69 Zn71 1.950 . S
O69 Zn72 1.945 . S
Zn70 O69 1.923 1_556 S
Zn70 O73 1.933 . S
Zn70 O76 1.941 . S
Zn70 O77 1.965 . S
Zn71 O69 1.950 . S
Zn71 O78 1.938 1_554 S
Zn71 O79 1.906 . S
Zn71 O89 1.953 . S
Zn72 O69 1.945 . S
Zn72 O74 1.932 . S
Zn72 O81 1.977 . S
Zn72 O82 1.910 . S
O73 Zn70 1.933 . S
O73 C84 1.226 1_556 S
O74 Zn72 1.932 . S
O74 C84 1.307 . S
O75 Zn68 1.919 1_556 S
O75 C86 1.253 . S
O76 Zn70 1.941 . S
O76 C86 1.283 . S
O77 Zn70 1.965 . S
O77 C85 1.303 . S
O78 Zn71 1.938 1_556 S
O78 C85 1.247 . S
O79 Zn71 1.906 . S
O79 C87 1.304 . S
O80 Zn68 1.924 . S
O80 C88 1.311 . S
O81 Zn72 1.977 . S
O81 C87 1.272 . S
O82 Zn72 1.910 . S
O82 C88 1.231 . S
C83 O67 1.225 . S
C83 O89 1.298 . S
C84 O73 1.226 1_554 S
C84 O74 1.307 . S
C85 O77 1.303 . S
C85 O78 1.247 . S
C86 O75 1.253 . S
C86 O76 1.283 . S
C87 O79 1.304 . S
C87 O81 1.272 . S
C88 O80 1.311 . S
C88 O82 1.231 . S
O89 Zn71 1.953 . S
O89 C83 1.298 . S
C90 C91 1.387 . S
C90 H94 0.950 . S
C90 C99 1.390 . S
C91 C90 1.387 . S
C91 C93 1.387 . S
H92 C99 0.950 . S
C93 C91 1.387 . S
C93 C95 1.390 . S
C93 H97 0.950 . S
H94 C90 0.950 . S
C95 C93 1.390 . S
C95 C96 1.387 . S
C95 H98 0.950 . S
C96 C95 1.387 . S
C96 C99 1.387 . S
H97 C93 0.950 . S
H98 C95 0.950 . S
C99 C90 1.390 . S
C99 H92 0.950 . S
C99 C96 1.387 . S
C100 C101 1.387 . S
C100 H104 0.950 . S
C100 C109 1.390 . S
C101 C100 1.387 . S
C101 C103 1.387 1_554 S
H102 C109 0.950 . S
C103 C101 1.387 1_556 S
C103 C105 1.390 . S
C103 H107 0.950 . S
H104 C100 0.950 . S
C105 C103 1.390 . S
C105 C106 1.387 1_556 S
C105 H108 0.950 . S
C106 C105 1.387 1_554 S
C106 C109 1.387 . S
H107 C103 0.950 . S
H108 C105 0.950 . S
C109 C100 1.390 . S
C109 H102 0.950 . S
C109 C106 1.387 . S
C110 C111 1.387 . S
C110 H114 0.950 . S
C110 C119 1.390 . S
C111 C110 1.387 . S
C111 C113 1.387 . S
H112 C119 0.950 . S
C113 C111 1.387 . S
C113 C115 1.390 . S
C113 H117 0.950 . S
H114 C110 0.950 . S
C115 C113 1.390 . S
C115 C116 1.387 . S
C115 H118 0.950 . S
C116 C115 1.387 . S
C116 C119 1.387 . S
H117 C113 0.950 . S
H118 C115 0.950 . S
C119 C110 1.390 . S
C119 H112 0.950 . S
C119 C116 1.387 . S
C120 C121 1.387 . S
C120 H124 0.950 . S
C120 C129 1.390 . S
C121 C120 1.387 . S
C121 C123 1.387 1_554 S
H122 C129 0.950 . S
C123 C121 1.387 1_556 S
C123 C125 1.390 . S
C123 H127 0.950 . S
H124 C120 0.950 . S
C125 C123 1.390 . S
C125 C126 1.387 1_556 S
C125 H128 0.950 . S
C126 C125 1.387 1_554 S
C126 C129 1.387 . S
H127 C123 0.950 . S
H128 C125 0.950 . S
C129 C120 1.390 . S
C129 H122 0.950 . S
C129 C126 1.387 . S
C130 C131 1.387 . S
C130 H134 0.950 . S
C130 C139 1.390 . S
C131 C130 1.387 . S
C131 C133 1.387 . S
H132 C139 0.950 . S
C133 C131 1.387 . S
C133 C135 1.390 . S
C133 H137 0.950 . S
H134 C130 0.950 . S
C135 C133 1.390 . S
C135 C136 1.387 . S
C135 H138 0.950 . S
C136 C135 1.387 . S
C136 C139 1.387 . S
H137 C133 0.950 . S
H138 C135 0.950 . S
C139 C130 1.390 . S
C139 H132 0.950 . S
C139 C136 1.387 . S
C140 C141 1.387 . S
C140 H144 0.950 . S
C140 C149 1.390 . S
C141 C140 1.387 . S
C141 C143 1.387 . S
H142 C149 0.950 . S
C143 C141 1.387 . S
C143 C145 1.390 . S
C143 H147 0.950 . S
H144 C140 0.950 . S
C145 C143 1.390 . S
C145 C146 1.387 . S
C145 H148 0.950 . S
C146 C145 1.387 . S
C146 C149 1.387 . S
H147 C143 0.950 . S
H148 C145 0.950 . S
C149 C140 1.390 . S
C149 H142 0.950 . S
C149 C146 1.387 . S
C150 C151 1.387 . S
C150 H154 0.950 . S
C150 C159 1.390 . S
C151 C150 1.387 . S
C151 C153 1.387 . S
H152 C159 0.950 . S
C153 C151 1.387 . S
C153 C155 1.390 . S
C153 H157 0.950 . S
H154 C150 0.950 . S
C155 C153 1.390 . S
C155 C156 1.387 . S
C155 H158 0.950 . S
C156 C155 1.387 . S
C156 C159 1.387 . S
H157 C153 0.950 . S
H158 C155 0.950 . S
C159 C150 1.390 . S
C159 H152 0.950 . S
C159 C156 1.387 . S
C160 C161 1.387 . S
C160 H164 0.950 . S
C160 C169 1.390 . S
C161 C160 1.387 . S
C161 C163 1.387 . S
H162 C169 0.950 . S
C163 C161 1.387 . S
C163 C165 1.390 . S
C163 H167 0.950 . S
H164 C160 0.950 . S
C165 C163 1.390 . S
C165 C166 1.387 . S
C165 H168 0.950 . S
C166 C165 1.387 . S
C166 C169 1.387 . S
H167 C163 0.950 . S
H168 C165 0.950 . S
C169 C160 1.390 . S
C169 H162 0.950 . S
C169 C166 1.387 . S
C170 C171 1.387 . S
C170 H174 0.950 . S
C170 C179 1.390 . S
C171 C170 1.387 . S
C171 C173 1.387 . S
H172 C179 0.950 . S
C173 C171 1.387 . S
C173 C175 1.390 . S
C173 H177 0.950 . S
H174 C170 0.950 . S
C175 C173 1.390 . S
C175 C176 1.387 . S
C175 H178 0.950 . S
C176 C175 1.387 . S
C176 C179 1.387 . S
H177 C173 0.950 . S
H178 C175 0.950 . S
C179 C170 1.390 . S
C179 H172 0.950 . S
C179 C176 1.387 . S
C180 C181 1.387 . S
C180 H184 0.950 . S
C180 C189 1.390 . S
C181 C180 1.387 . S
C181 C183 1.387 . S
H182 C189 0.950 . S
C183 C181 1.387 . S
C183 C185 1.390 . S
C183 H187 0.950 . S
H184 C180 0.950 . S
C185 C183 1.390 . S
C185 C186 1.387 . S
C185 H188 0.950 . S
C186 C185 1.387 . S
C186 C189 1.387 . S
H187 C183 0.950 . S
H188 C185 0.950 . S
C189 C180 1.390 . S
C189 H182 0.950 . S
C189 C186 1.387 . S
C190 C191 1.387 . S
C190 H194 0.950 . S
C190 C199 1.390 . S
C191 C190 1.387 . S
C191 C193 1.387 . S
H192 C199 0.950 . S
C193 C191 1.387 . S
C193 C195 1.390 . S
C193 H197 0.950 . S
H194 C190 0.950 . S
C195 C193 1.390 . S
C195 C196 1.387 . S
C195 H198 0.950 . S
C196 C195 1.387 . S
C196 C199 1.387 . S
H197 C193 0.950 . S
H198 C195 0.950 . S
C199 C190 1.390 . S
C199 H192 0.950 . S
C199 C196 1.387 . S
C200 C201 1.387 . S
C200 H204 0.950 . S
C200 C209 1.390 . S
C201 C200 1.387 . S
C201 C203 1.387 . S
H202 C209 0.950 . S
C203 C201 1.387 . S
C203 C205 1.390 . S
C203 H207 0.950 . S
H204 C200 0.950 . S
C205 C203 1.390 . S
C205 C206 1.387 . S
C205 H208 0.950 . S
C206 C205 1.387 . S
C206 C209 1.387 . S
H207 C203 0.950 . S
H208 C205 0.950 . S
C209 C200 1.390 . S
C209 H202 0.950 . S
C209 C206 1.387 . S
C96 C61 1.490 . S
C91 C43 1.492 . S
C101 C10 1.492 . S
C106 C84 1.493 . S
C111 C21 1.511 . S
C116 C60 1.515 . S
C121 C32 1.512 . S
C126 C83 1.514 . S
C136 C64 1.493 . S
C131 C5 1.520 . S
C146 C86 1.492 . S
C141 C15 1.554 . S
C151 C27 1.549 . S
C156 C65 1.497 . S
C161 C38 1.540 . S
C166 C85 1.492 . S
C176 C88 1.426 . S
C171 C16 1.475 . S
C186 C63 1.429 . S
C181 C26 1.495 . S
C196 C87 1.422 . S
C191 C37 1.471 . S
C201 C4 1.478 . S
C206 C62 1.426 . S
