# Generated by pormake.
# Topology sit, (3,6)-cn, num edge types: 1
# Building blocks:
#     Node 0, Type 0, BuildingBlock: BETDIP_clean_linker_0, # of connection points: 3
#     Node 1, Type 0, BuildingBlock: BETDIP_clean_linker_0, # of connection points: 3
#     Node 2, Type 0, BuildingBlock: BETDIP_clean_linker_0, # of connection points: 3
#     Node 3, Type 0, BuildingBlock: BETDIP_clean_linker_0, # of connection points: 3
#     Node 4, Type 1, BuildingBlock: MIDCAF_clean_sbu_0, # of connection points: 6
#     Node 5, Type 1, BuildingBlock: MIDCAF_clean_sbu_0, # of connection points: 6
#     Edge 6, Type (0, 1), BuildingBlock: EYOCIG_clean_linker_4, # of connection points: 2
#     Edge 7, Type (0, 1), BuildingBlock: EYOCIG_clean_linker_4, # of connection points: 2
#     Edge 8, Type (0, 1), BuildingBlock: EYOCIG_clean_linker_4, # of connection points: 2
#     Edge 9, Type (0, 1), BuildingBlock: EYOCIG_clean_linker_4, # of connection points: 2
#     Edge 10, Type (0, 1), BuildingBlock: EYOCIG_clean_linker_4, # of connection points: 2
#     Edge 11, Type (0, 1), BuildingBlock: EYOCIG_clean_linker_4, # of connection points: 2
#     Edge 12, Type (0, 1), BuildingBlock: EYOCIG_clean_linker_4, # of connection points: 2
#     Edge 13, Type (0, 1), BuildingBlock: EYOCIG_clean_linker_4, # of connection points: 2
#     Edge 14, Type (0, 1), BuildingBlock: EYOCIG_clean_linker_4, # of connection points: 2
#     Edge 15, Type (0, 1), BuildingBlock: EYOCIG_clean_linker_4, # of connection points: 2
#     Edge 16, Type (0, 1), BuildingBlock: EYOCIG_clean_linker_4, # of connection points: 2
#     Edge 17, Type (0, 1), BuildingBlock: EYOCIG_clean_linker_4, # of connection points: 2
# Relax obj value: 0.072
# Max RMSD: 0.181
# Mean RMSD: 0.108
data_MOF--net-sit--node1-MIDCAF_clean_sbu_0--node2-BETDIP_clean_linker_0--edge1-EYOCIG_clean_linker_4
_symmetry_space_group_name_H-M    P1
_symmetry_Int_Tables_number       1
_symmetry_cell_setting            triclinic
loop_
_symmetry_equiv_pos_as_xyz
'x, y, z'
_cell_length_a     16.874751
_cell_length_b     26.295181
_cell_length_c     29.480257
_cell_angle_alpha  90.499006
_cell_angle_beta   86.65014
_cell_angle_gamma 84.139826
loop_
_atom_site_label
_atom_site_type_symbol
_atom_site_fract_x
_atom_site_fract_y
_atom_site_fract_z
_atom_type_partial_charge
H0 H 0.92975 0.31641 0.07133 0.0
H1 H 0.18552 0.28071 0.05713 0.0
H2 H 0.07543 0.41719 0.99867 0.0
H3 H 0.15066 0.19811 0.06284 0.0
C4 C 0.10161 0.20242 0.0885 0.0
C5 C -0.01176 0.32632 0.05962 0.0
C6 C -0.00463 0.37096 0.03472 0.0
C7 C 0.05628 0.29282 0.06729 0.0
C8 C 0.13201 0.30549 0.05109 0.0
C9 C 0.13841 0.35061 0.02678 0.0
C10 C 0.07031 0.38311 0.01876 0.0
N11 N 0.04641 0.24703 0.09132 0.0
H12 H 0.8824 0.75481 0.06887 0.0
H13 H 0.13883 0.72185 0.05938 0.0
H14 H -0.00779 0.61945 0.99841 0.0
H15 H 0.13188 0.81029 0.06337 0.0
C16 C 0.08333 0.81903 0.0889 0.0
C17 C 0.93557 0.73 0.05807 0.0
C18 C 0.9291 0.68514 0.03312 0.0
C19 C 0.01112 0.74422 0.06718 0.0
C20 C 0.07996 0.71199 0.05238 0.0
C21 C 0.07257 0.66687 0.02799 0.0
C22 C -0.00258 0.65362 0.01855 0.0
N23 N 0.01581 0.79083 0.09123 0.0
H24 H 0.43084 0.81692 0.57131 0.0
H25 H 0.68664 0.78119 0.55774 0.0
H26 H 0.57705 0.91752 0.49881 0.0
H27 H 0.65171 0.69861 0.56345 0.0
C28 C 0.60247 0.70296 0.589 0.0
C29 C 0.48941 0.82681 0.55972 0.0
C30 C 0.49673 0.87139 0.53476 0.0
C31 C 0.55737 0.79332 0.5676 0.0
C32 C 0.6332 0.80596 0.55155 0.0
C33 C 0.63978 0.85102 0.52718 0.0
C34 C 0.57177 0.88349 0.51895 0.0
N35 N 0.54731 0.74758 0.59166 0.0
H36 H 0.38352 0.2552 0.56822 0.0
H37 H 0.63997 0.22233 0.5594 0.0
H38 H 0.49395 0.11977 0.49812 0.0
H39 H 0.63293 0.31077 0.56334 0.0
C40 C 0.58418 0.31952 0.58875 0.0
C41 C 0.43677 0.23039 0.55756 0.0
C42 C 0.43055 0.1855 0.53263 0.0
C43 C 0.51222 0.24466 0.56686 0.0
C44 C 0.58118 0.21243 0.55226 0.0
C45 C 0.57402 0.16727 0.52787 0.0
C46 C 0.49898 0.15398 0.51824 0.0
N47 N 0.51668 0.2913 0.5909 0.0
Zn48 Zn 0.01193 0.11759 0.36604 0.0
Zn49 Zn 0.10454 0.91436 0.36841 0.0
Zn50 Zn 0.05692 0.01587 0.36896 0.0
C51 C 0.09742 0.94331 0.27842 0.0
C52 C 0.95398 0.93041 0.41376 0.0
O53 O 0.13878 0.0562 0.40822 0.0
O54 O 0.09533 0.13857 0.40467 0.0
C55 C 0.04908 0.0841 0.2771 0.0
O56 O 0.0767 0.98732 0.29756 0.0
O57 O 0.11456 0.90425 0.3018 0.0
O58 O 0.00758 0.89499 0.40221 0.0
O59 O 0.96156 0.97719 0.40345 0.0
O60 O 0.02566 0.12443 0.2995 0.0
O61 O 0.06214 0.0409 0.29709 0.0
O62 O 0.93795 0.03008 0.40353 0.0
O63 O 0.90571 0.11349 0.3967 0.0
C64 C 0.88944 0.07059 0.41122 0.0
O65 O 0.16244 1.00347 0.40935 0.0
O66 O 0.19848 0.91999 0.4043 0.0
C67 C 0.14323 0.1033 0.41909 0.0
C68 C 0.20831 0.96368 0.4196 0.0
Zn69 Zn 0.51071 0.61762 0.86635 0.0
Zn70 Zn 0.60338 0.41438 0.86842 0.0
Zn71 Zn 0.55575 0.51589 0.86911 0.0
C72 C 0.59679 0.44357 0.77847 0.0
C73 C 0.45261 0.4303 0.91351 0.0
O74 O 0.63735 0.55613 0.90863 0.0
O75 O 0.59386 0.63851 0.9052 0.0
C76 C 0.54842 0.58437 0.77738 0.0
O77 O 0.57595 0.48753 0.79766 0.0
O78 O 0.61379 0.40445 0.8018 0.0
O79 O 0.50628 0.39491 0.90199 0.0
O80 O 0.46023 0.47711 0.90333 0.0
O81 O 0.52484 0.62463 0.79984 0.0
O82 O 0.56137 0.54112 0.7973 0.0
O83 O 0.4366 0.53 0.90348 0.0
O84 O 0.40434 0.61342 0.89678 0.0
C85 C 0.38803 0.57048 0.91117 0.0
O86 O 0.66105 0.50341 0.90966 0.0
O87 O 0.69712 0.41994 0.90451 0.0
C88 C 0.6417 0.60321 0.91962 0.0
C89 C 0.70686 0.46359 0.91992 0.0
C90 C 0.08477 0.13233 0.15096 0.0
C91 C 0.09281 0.16233 0.12075 0.0
C92 C 0.07456 0.10399 0.19095 0.0
C93 C 0.06541 0.0887 0.22912 0.0
C94 C 0.0924 0.88968 0.1521 0.0
C95 C 0.08859 0.85923 0.12169 0.0
C96 C 0.09491 0.91919 0.19214 0.0
C97 C 0.0941 0.93607 0.23032 0.0
C98 C 0.58504 0.63287 0.65138 0.0
C99 C 0.59335 0.66288 0.62122 0.0
C100 C 0.5745 0.60447 0.69131 0.0
C101 C 0.56508 0.5891 0.72944 0.0
C102 C 0.59272 0.39016 0.65203 0.0
C103 C 0.58916 0.35972 0.62157 0.0
C104 C 0.5949 0.41963 0.69212 0.0
C105 C 0.59381 0.43645 0.73034 0.0
C106 C 0.26997 0.38009 0.98824 0.0
C107 C 0.21343 0.36335 0.00718 0.0
C108 C 0.33128 0.40139 0.96299 0.0
C109 C 0.38472 0.41745 0.94053 0.0
C110 C 0.79975 0.65481 0.00125 0.0
C111 C 0.85416 0.67257 0.01808 0.0
C112 C 0.74458 0.63285 0.97522 0.0
C113 C 0.6993 0.61657 0.95007 0.0
C114 C 0.87442 0.42992 0.00501 0.0
C115 C 0.92649 0.40145 0.02 0.0
C116 C 0.81587 0.45552 0.97906 0.0
C117 C 0.76494 0.46639 0.95296 0.0
C118 C 0.1955 0.60802 0.99102 0.0
C119 C 0.14132 0.63595 0.00857 0.0
C120 C 0.25984 0.5818 0.96522 0.0
C121 C 0.31888 0.56959 0.9413 0.0
C122 C 0.77152 0.88038 0.48877 0.0
C123 C 0.71492 0.86368 0.50767 0.0
C124 C 0.83283 0.90163 0.46347 0.0
C125 C 0.8862 0.91763 0.4409 0.0
C126 C 0.30143 0.15507 0.50054 0.0
C127 C 0.35575 0.17285 0.51743 0.0
C128 C 0.24628 0.13306 0.47452 0.0
C129 C 0.20093 0.11672 0.44945 0.0
C130 C 0.37597 0.93023 0.50469 0.0
C131 C 0.42798 0.90183 0.51983 0.0
C132 C 0.31746 0.95574 0.47867 0.0
C133 C 0.26648 0.96654 0.45258 0.0
C134 C 0.69714 0.10837 0.49119 0.0
C135 C 0.64291 0.13634 0.50864 0.0
C136 C 0.76145 0.08207 0.46543 0.0
C137 C 0.82041 0.06979 0.44146 0.0
loop_
_geom_bond_atom_site_label_1
_geom_bond_atom_site_label_2
_geom_bond_distance
_geom_bond_site_symmetry_2
_ccdc_geom_bond_type
H0 C5 0.930 . S
H1 C8 0.930 . S
H2 C10 0.930 . S
H3 C4 1.016 . S
C4 H3 1.016 . S
C4 N11 1.286 . S
C5 H0 0.930 . S
C5 C6 1.397 . S
C5 C7 1.361 . S
C6 C5 1.397 . S
C6 C10 1.390 1_554 S
C7 C5 1.361 . S
C7 C8 1.393 . S
C7 N11 1.413 . S
C8 H1 0.930 . S
C8 C7 1.393 . S
C8 C9 1.399 . S
C9 C8 1.399 . S
C9 C10 1.381 1_554 S
C10 H2 0.930 . S
C10 C6 1.390 1_556 S
C10 C9 1.381 1_556 S
N11 C4 1.286 . S
N11 C7 1.413 . S
H12 C17 0.930 . S
H13 C20 0.930 . S
H14 C22 0.930 . S
H15 C16 1.016 . S
C16 H15 1.016 . S
C16 N23 1.286 1_455 S
C17 H12 0.930 . S
C17 C18 1.397 . S
C17 C19 1.361 . S
C18 C17 1.397 . S
C18 C22 1.390 1_654 S
C19 C17 1.361 . S
C19 C20 1.393 1_655 S
C19 N23 1.413 . S
C20 H13 0.930 . S
C20 C19 1.393 1_455 S
C20 C21 1.399 . S
C21 C20 1.399 . S
C21 C22 1.381 1_554 S
C22 H14 0.930 . S
C22 C18 1.390 1_456 S
C22 C21 1.381 1_556 S
N23 C16 1.286 1_655 S
N23 C19 1.413 . S
H24 C29 0.930 . S
H25 C32 0.930 . S
H26 C34 0.930 . S
H27 C28 1.016 . S
C28 H27 1.016 . S
C28 N35 1.286 . S
C29 H24 0.930 . S
C29 C30 1.397 . S
C29 C31 1.361 . S
C30 C29 1.397 . S
C30 C34 1.390 . S
C31 C29 1.361 . S
C31 C32 1.393 . S
C31 N35 1.413 . S
C32 H25 0.930 . S
C32 C31 1.393 . S
C32 C33 1.399 . S
C33 C32 1.399 . S
C33 C34 1.381 . S
C34 H26 0.930 . S
C34 C30 1.390 . S
C34 C33 1.381 . S
N35 C28 1.286 . S
N35 C31 1.413 . S
H36 C41 0.930 . S
H37 C44 0.930 . S
H38 C46 0.930 . S
H39 C40 1.016 . S
C40 H39 1.016 . S
C40 N47 1.286 . S
C41 H36 0.930 . S
C41 C42 1.397 . S
C41 C43 1.361 . S
C42 C41 1.397 . S
C42 C46 1.390 . S
C43 C41 1.361 . S
C43 C44 1.393 . S
C43 N47 1.413 . S
C44 H37 0.930 . S
C44 C43 1.393 . S
C44 C45 1.399 . S
C45 C44 1.399 . S
C45 C46 1.381 . S
C46 H38 0.930 . S
C46 C42 1.390 . S
C46 C45 1.381 . S
N47 C40 1.286 . S
N47 C43 1.413 . S
Zn48 O54 1.920 . S
Zn48 O60 1.898 . S
Zn48 O63 1.905 1_455 S
Zn49 O57 1.905 . S
Zn49 O58 1.898 . S
Zn49 O66 1.920 . S
Zn50 O53 2.080 . S
Zn50 O56 2.114 1_545 S
Zn50 O59 2.120 1_545 S
Zn50 O61 2.120 . S
Zn50 O62 2.114 1_455 S
Zn50 O65 2.080 1_545 S
C51 O56 1.166 . S
C51 O57 1.182 . S
C52 O58 1.167 1_655 S
C52 O59 1.299 1_655 S
O53 Zn50 2.080 . S
O53 C67 1.305 . S
O54 Zn48 1.920 . S
O54 C67 1.234 . S
C55 O60 1.167 . S
C55 O61 1.299 . S
O56 Zn50 2.114 1_565 S
O56 C51 1.166 . S
O57 Zn49 1.905 . S
O57 C51 1.182 . S
O58 Zn49 1.898 . S
O58 C52 1.167 1_455 S
O59 Zn50 2.120 1_565 S
O59 C52 1.299 1_455 S
O60 Zn48 1.898 . S
O60 C55 1.167 . S
O61 Zn50 2.120 . S
O61 C55 1.299 . S
O62 Zn50 2.114 1_655 S
O62 C64 1.166 . S
O63 Zn48 1.905 1_655 S
O63 C64 1.182 . S
C64 O62 1.166 . S
C64 O63 1.182 . S
O65 Zn50 2.080 1_565 S
O65 C68 1.305 . S
O66 Zn49 1.920 . S
O66 C68 1.234 . S
C67 O53 1.305 . S
C67 O54 1.234 . S
C68 O65 1.305 . S
C68 O66 1.234 . S
Zn69 O75 1.920 . S
Zn69 O81 1.898 . S
Zn69 O84 1.905 . S
Zn70 O78 1.905 . S
Zn70 O79 1.898 . S
Zn70 O87 1.920 . S
Zn71 O74 2.080 . S
Zn71 O77 2.114 . S
Zn71 O80 2.120 . S
Zn71 O82 2.120 . S
Zn71 O83 2.114 . S
Zn71 O86 2.080 . S
C72 O77 1.166 . S
C72 O78 1.182 . S
C73 O79 1.167 . S
C73 O80 1.299 . S
O74 Zn71 2.080 . S
O74 C88 1.305 . S
O75 Zn69 1.920 . S
O75 C88 1.234 . S
C76 O81 1.167 . S
C76 O82 1.299 . S
O77 Zn71 2.114 . S
O77 C72 1.166 . S
O78 Zn70 1.905 . S
O78 C72 1.182 . S
O79 Zn70 1.898 . S
O79 C73 1.167 . S
O80 Zn71 2.120 . S
O80 C73 1.299 . S
O81 Zn69 1.898 . S
O81 C76 1.167 . S
O82 Zn71 2.120 . S
O82 C76 1.299 . S
O83 Zn71 2.114 . S
O83 C85 1.166 . S
O84 Zn69 1.905 . S
O84 C85 1.182 . S
C85 O83 1.166 . S
C85 O84 1.182 . S
O86 Zn71 2.080 . S
O86 C89 1.305 . S
O87 Zn70 1.920 . S
O87 C89 1.234 . S
C88 O74 1.305 . S
C88 O75 1.234 . S
C89 O86 1.305 . S
C89 O87 1.234 . S
C90 C91 1.170 . S
C90 C92 1.380 . S
C91 C90 1.170 . S
C92 C90 1.380 . S
C92 C93 1.170 . S
C93 C92 1.170 . S
C94 C95 1.170 . S
C94 C96 1.380 . S
C95 C94 1.170 . S
C96 C94 1.380 . S
C96 C97 1.170 . S
C97 C96 1.170 . S
C98 C99 1.170 . S
C98 C100 1.380 . S
C99 C98 1.170 . S
C100 C98 1.380 . S
C100 C101 1.170 . S
C101 C100 1.170 . S
C102 C103 1.170 . S
C102 C104 1.380 . S
C103 C102 1.170 . S
C104 C102 1.380 . S
C104 C105 1.170 . S
C105 C104 1.170 . S
C106 C107 1.170 . S
C106 C108 1.380 . S
C107 C106 1.170 . S
C108 C106 1.380 . S
C108 C109 1.170 . S
C109 C108 1.170 . S
C110 C111 1.170 . S
C110 C112 1.380 . S
C111 C110 1.170 . S
C112 C110 1.380 . S
C112 C113 1.170 . S
C113 C112 1.170 . S
C114 C115 1.170 . S
C114 C116 1.380 . S
C115 C114 1.170 . S
C116 C114 1.380 . S
C116 C117 1.170 . S
C117 C116 1.170 . S
C118 C119 1.170 . S
C118 C120 1.380 . S
C119 C118 1.170 . S
C120 C118 1.380 . S
C120 C121 1.170 . S
C121 C120 1.170 . S
C122 C123 1.170 . S
C122 C124 1.380 . S
C123 C122 1.170 . S
C124 C122 1.380 . S
C124 C125 1.170 . S
C125 C124 1.170 . S
C126 C127 1.170 . S
C126 C128 1.380 . S
C127 C126 1.170 . S
C128 C126 1.380 . S
C128 C129 1.170 . S
C129 C128 1.170 . S
C130 C131 1.170 . S
C130 C132 1.380 . S
C131 C130 1.170 . S
C132 C130 1.380 . S
C132 C133 1.170 . S
C133 C132 1.170 . S
C134 C135 1.170 . S
C134 C136 1.380 . S
C135 C134 1.170 . S
C136 C134 1.380 . S
C136 C137 1.170 . S
C137 C136 1.170 . S
C93 C55 1.440 . S
C91 C4 1.541 . S
C97 C51 1.415 . S
C95 C16 1.495 . S
C101 C76 1.395 . S
C99 C28 1.532 . S
C103 C40 1.497 . S
C105 C72 1.418 . S
C107 C9 1.335 1_556 S
C109 C73 1.134 . S
C113 C88 1.151 . S
C111 C18 1.358 1_556 S
C115 C6 1.696 1_656 S
C117 C89 1.552 . S
C121 C85 1.572 . S
C119 C21 1.712 1_556 S
C125 C52 1.175 . S
C123 C33 1.348 . S
C127 C42 1.337 . S
C129 C67 1.219 . S
C133 C68 1.550 . S
C131 C30 1.684 . S
C137 C64 1.564 . S
C135 C45 1.715 . S
