# Generated by pormake.
# Topology tsx, (6,3)-cn, num edge types: 1
# Building blocks:
#     Node 0, Type 0, BuildingBlock: MIDCAF_clean_sbu_0, # of connection points: 6
#     Node 1, Type 0, BuildingBlock: MIDCAF_clean_sbu_0, # of connection points: 6
#     Node 2, Type 1, BuildingBlock: PAMTOO_clean_linker_0, # of connection points: 3
#     Node 3, Type 1, BuildingBlock: PAMTOO_clean_linker_0, # of connection points: 3
#     Node 4, Type 1, BuildingBlock: PAMTOO_clean_linker_0, # of connection points: 3
#     Node 5, Type 1, BuildingBlock: PAMTOO_clean_linker_0, # of connection points: 3
#     Edge 6, Type (0, 1), None
#     Edge 7, Type (0, 1), None
#     Edge 8, Type (0, 1), None
#     Edge 9, Type (0, 1), None
#     Edge 10, Type (0, 1), None
#     Edge 11, Type (0, 1), None
#     Edge 12, Type (0, 1), None
#     Edge 13, Type (0, 1), None
#     Edge 14, Type (0, 1), None
#     Edge 15, Type (0, 1), None
#     Edge 16, Type (0, 1), None
#     Edge 17, Type (0, 1), None
# Relax obj value: 0.098
# Max RMSD: 0.166
# Mean RMSD: 0.121
data_MOF--net-tsx--node1-MIDCAF_clean_sbu_0--node2-PAMTOO_clean_linker_0--edge1-none
_symmetry_space_group_name_H-M    P1
_symmetry_Int_Tables_number       1
_symmetry_cell_setting            triclinic
loop_
_symmetry_equiv_pos_as_xyz
'x, y, z'
_cell_length_a     7.8497798
_cell_length_b     9.5564751
_cell_length_c     17.937093
_cell_angle_alpha  76.289961
_cell_angle_beta   87.30282
_cell_angle_gamma 89.752517
loop_
_atom_site_label
_atom_site_type_symbol
_atom_site_fract_x
_atom_site_fract_y
_atom_site_fract_z
_atom_type_partial_charge
Zn0 Zn 0.88351 0.07721 -0.07514 0.0
Zn1 Zn 0.47427 0.96974 -0.03104 0.0
Zn2 Zn 0.17626 0.05336 -0.07382 0.0
C3 C 0.45857 0.25717 -0.03542 0.0
C4 C 0.42754 0.8315 0.86115 0.0
O5 O 1.0359 0.85866 -0.00466 0.0
O6 O 0.79144 0.94727 0.02393 0.0
C7 C 0.97647 0.33464 0.85616 0.0
O8 O 0.30165 0.2173 -0.02724 0.0
O9 O 0.56943 0.17428 -0.05451 0.0
O10 O 0.54419 0.82949 0.90739 0.0
O11 O 0.29655 0.90919 0.86426 0.0
O12 O 0.88385 0.29284 0.9165 0.0
O13 O 0.09391 0.24996 0.84261 0.0
O14 O 0.1474 0.11052 0.8038 0.0
O15 O 0.89558 1.00824 0.81911 0.0
C16 C 1.02636 0.05356 0.7753 0.0
O17 O 0.20104 0.08842 0.04071 0.0
O18 O 0.36619 0.90025 0.07559 0.0
C19 C 0.89343 0.84325 0.03448 0.0
C20 C 0.26505 0.99152 0.09401 0.0
Zn21 Zn 0.88444 0.54993 0.43654 0.0
Zn22 Zn 0.31328 0.44904 0.37214 0.0
Zn23 Zn 0.54893 0.49409 0.44421 0.0
C24 C 0.56339 0.52586 0.26015 0.0
C25 C 0.3111 0.72956 0.36384 0.0
O26 O 0.6497 0.51792 0.55052 0.0
O27 O 0.9195 0.45587 0.55004 0.0
C28 C 0.85161 0.33987 0.35867 0.0
O29 O 0.62798 0.55695 0.31876 0.0
O30 O 0.42247 0.45937 0.26897 0.0
O31 O 0.19685 0.63405 0.3843 0.0
O32 O 0.46642 0.69115 0.36951 0.0
O33 O 0.95973 0.4379 0.35793 0.0
O34 O 0.70215 0.34835 0.38921 0.0
O35 O 0.60386 0.67698 0.49117 0.0
O36 O 0.83181 0.76789 0.42058 0.0
C37 C 0.70743 0.78267 0.46608 0.0
O38 O 0.35845 0.34505 0.5167 0.0
O39 O 0.22814 0.26212 0.43147 0.0
C40 C 0.78647 0.48306 0.58651 0.0
C41 C 0.25346 0.25579 0.50088 0.0
H42 H 0.349 0.77998 0.21333 0.0
H43 H 0.11393 0.19855 0.15906 0.0
H44 H 0.17065 0.97119 0.39417 0.0
H45 H 0.82789 0.12447 0.34408 0.0
C46 C 0.88806 0.22834 0.31337 0.0
O47 O 1.06194 0.21151 0.30302 0.0
H48 H 0.8316 0.26391 0.25643 0.0
C49 C 0.29021 0.87037 0.23119 0.0
C50 C 0.26651 0.86351 0.30949 0.0
C51 C 0.23466 0.98961 0.17609 0.0
C52 C 0.15543 0.10436 0.20062 0.0
C53 C 0.13159 0.09846 0.27947 0.0
C54 C 0.18708 0.97731 0.33365 0.0
H55 H 0.23681 0.21581 0.65987 0.0
H56 H 0.8314 0.90017 0.70251 0.0
H57 H 1.0306 0.06405 0.47513 0.0
H58 H 0.73555 1.00541 0.46576 0.0
C59 C 0.71066 0.90121 0.50775 0.0
O60 O 0.83669 0.87007 0.56045 0.0
H61 H 0.58548 0.90787 0.53831 0.0
C62 C 0.14964 0.14708 0.63952 0.0
C63 C 0.14874 0.15263 0.5603 0.0
C64 C 1.0317 0.05738 0.69179 0.0
C65 C 0.91865 0.97082 0.66361 0.0
C66 C 0.92468 0.96961 0.58584 0.0
C67 C 1.03652 0.0616 0.53519 0.0
H68 H 0.98682 0.34613 0.70197 0.0
H69 H 0.60223 0.67157 0.64657 0.0
H70 H 0.8014 0.57321 0.869 0.0
H71 H 0.40079 0.62972 0.83097 0.0
C72 C 0.44229 0.74177 0.80354 0.0
O73 O 0.60871 0.74772 0.77521 0.0
H74 H 0.35834 0.78522 0.75532 0.0
C75 C 0.90774 0.4275 0.71794 0.0
C76 C 0.90581 0.44634 0.79357 0.0
C77 C 0.79536 0.50546 0.66482 0.0
C78 C 0.68816 0.60826 0.68657 0.0
C79 C 0.69509 0.63537 0.75909 0.0
C80 C 0.8025 0.55433 0.81237 0.0
H81 H 0.76239 0.76026 0.18379 0.0
H82 H 0.55307 0.35566 0.16208 0.0
H83 H 0.86019 0.61221 -0.0226 0.0
H84 H 0.53453 0.47653 -0.074 0.0
C85 C 0.51092 0.39736 -0.01876 0.0
O86 O 0.65942 0.38198 0.02128 0.0
H87 H 0.4047 0.4376 0.01375 0.0
C88 C 0.75237 0.67744 0.15205 0.0
C89 C 0.82735 0.69974 0.07677 0.0
C90 C 0.65576 0.55137 0.18413 0.0
C91 C 0.63151 0.45086 0.13968 0.0
C92 C 0.70131 0.4734 0.06501 0.0
C93 C 0.80531 0.59447 0.03502 0.0
loop_
_geom_bond_atom_site_label_1
_geom_bond_atom_site_label_2
_geom_bond_distance
_geom_bond_site_symmetry_2
_ccdc_geom_bond_type
Zn0 O6 1.920 1_545 S
Zn0 O12 1.898 . S
Zn0 O15 1.905 1_545 S
Zn1 O9 1.905 1_565 S
Zn1 O10 1.898 . S
Zn1 O18 1.920 . S
Zn2 O5 2.080 1_445 S
Zn2 O8 2.114 1_554 S
Zn2 O11 2.120 1_545 S
Zn2 O13 2.120 1_455 S
Zn2 O14 2.114 1_554 S
Zn2 O17 2.080 1_545 S
C3 O8 1.166 1_554 S
C3 O9 1.182 . S
C4 O10 1.167 . S
C4 O11 1.299 . S
O5 Zn2 2.080 1_665 S
O5 C19 1.305 . S
O6 Zn0 1.920 1_565 S
O6 C19 1.234 1_556 S
C7 O12 1.167 . S
C7 O13 1.299 1_556 S
O8 Zn2 2.114 1_556 S
O8 C3 1.166 1_556 S
O9 Zn1 1.905 1_545 S
O9 C3 1.182 . S
O10 Zn1 1.898 . S
O10 C4 1.167 . S
O11 Zn2 2.120 1_565 S
O11 C4 1.299 . S
O12 Zn0 1.898 . S
O12 C7 1.167 . S
O13 Zn2 2.120 1_655 S
O13 C7 1.299 1_554 S
O14 Zn2 2.114 1_556 S
O14 C16 1.166 1_445 S
O15 Zn0 1.905 1_565 S
O15 C16 1.182 . S
C16 O14 1.166 1_665 S
C16 O15 1.182 . S
O17 Zn2 2.080 1_565 S
O17 C20 1.305 . S
O18 Zn1 1.920 . S
O18 C20 1.234 . S
C19 O5 1.305 . S
C19 O6 1.234 1_554 S
C20 O17 1.305 . S
C20 O18 1.234 . S
Zn21 O27 1.920 . S
Zn21 O33 1.898 . S
Zn21 O36 1.905 . S
Zn22 O30 1.905 . S
Zn22 O31 1.898 . S
Zn22 O39 1.920 . S
Zn23 O26 2.080 . S
Zn23 O29 2.114 . S
Zn23 O32 2.120 . S
Zn23 O34 2.120 . S
Zn23 O35 2.114 . S
Zn23 O38 2.080 . S
C24 O29 1.166 . S
C24 O30 1.182 . S
C25 O31 1.167 . S
C25 O32 1.299 . S
O26 Zn23 2.080 . S
O26 C40 1.305 . S
O27 Zn21 1.920 . S
O27 C40 1.234 . S
C28 O33 1.167 . S
C28 O34 1.299 . S
O29 Zn23 2.114 . S
O29 C24 1.166 . S
O30 Zn22 1.905 . S
O30 C24 1.182 . S
O31 Zn22 1.898 . S
O31 C25 1.167 . S
O32 Zn23 2.120 . S
O32 C25 1.299 . S
O33 Zn21 1.898 . S
O33 C28 1.167 . S
O34 Zn23 2.120 . S
O34 C28 1.299 . S
O35 Zn23 2.114 . S
O35 C37 1.166 . S
O36 Zn21 1.905 . S
O36 C37 1.182 . S
C37 O35 1.166 . S
C37 O36 1.182 . S
O38 Zn23 2.080 . S
O38 C41 1.305 . S
O39 Zn22 1.920 . S
O39 C41 1.234 . S
C40 O26 1.305 . S
C40 O27 1.234 . S
C41 O38 1.305 . S
C41 O39 1.234 . S
H42 C49 0.929 . S
H43 C52 0.930 1_655 S
H44 C54 0.929 . S
H45 C46 0.969 . S
C46 H45 0.969 . S
C46 O47 1.550 1_655 S
C46 H48 0.973 . S
O47 C46 1.550 1_455 S
O47 C53 1.412 . S
H48 C46 0.973 . S
C49 H42 0.929 . S
C49 C50 1.400 . S
C49 C51 1.364 . S
C50 C49 1.400 . S
C50 C54 1.377 . S
C51 C49 1.364 . S
C51 C52 1.374 1_565 S
C52 H43 0.930 1_455 S
C52 C51 1.374 1_545 S
C52 C53 1.383 . S
C53 O47 1.412 . S
C53 C52 1.383 . S
C53 C54 1.394 1_545 S
C54 H44 0.929 . S
C54 C50 1.377 . S
C54 C53 1.394 1_565 S
H55 C62 0.929 . S
H56 C65 0.930 . S
H57 C67 0.929 . S
H58 C59 0.969 . S
C59 H58 0.969 . S
C59 O60 1.550 . S
C59 H61 0.973 . S
O60 C59 1.550 . S
O60 C66 1.412 1_565 S
H61 C59 0.973 . S
C62 H55 0.929 . S
C62 C63 1.400 . S
C62 C64 1.364 . S
C63 C62 1.400 . S
C63 C67 1.377 . S
C64 C62 1.364 . S
C64 C65 1.374 1_445 S
C65 H56 0.930 . S
C65 C64 1.374 1_665 S
C65 C66 1.383 1_565 S
C66 O60 1.412 1_545 S
C66 C65 1.383 1_545 S
C66 C67 1.394 1_655 S
C67 H57 0.929 . S
C67 C63 1.377 . S
C67 C66 1.394 1_455 S
H68 C75 0.929 . S
H69 C78 0.930 . S
H70 C80 0.929 1_554 S
H71 C72 0.969 . S
C72 H71 0.969 . S
C72 O73 1.550 . S
C72 H74 0.973 . S
O73 C72 1.550 . S
O73 C79 1.412 . S
H74 C72 0.973 . S
C75 H68 0.929 . S
C75 C76 1.400 . S
C75 C77 1.364 . S
C76 C75 1.400 . S
C76 C80 1.377 . S
C77 C75 1.364 . S
C77 C78 1.374 . S
C78 H69 0.930 . S
C78 C77 1.374 . S
C78 C79 1.383 . S
C79 O73 1.412 . S
C79 C78 1.383 . S
C79 C80 1.394 . S
C80 H70 0.929 1_556 S
C80 C76 1.377 . S
C80 C79 1.394 . S
H81 C88 0.929 . S
H82 C91 0.930 . S
H83 C93 0.929 1_556 S
H84 C85 0.969 . S
C85 H84 0.969 . S
C85 O86 1.550 . S
C85 H87 0.973 . S
O86 C85 1.550 . S
O86 C92 1.412 . S
H87 C85 0.973 . S
C88 H81 0.929 . S
C88 C89 1.400 . S
C88 C90 1.364 . S
C89 C88 1.400 . S
C89 C93 1.377 . S
C90 C88 1.364 . S
C90 C91 1.374 . S
C91 H82 0.930 . S
C91 C90 1.374 . S
C91 C92 1.383 . S
C92 O86 1.412 . S
C92 C91 1.383 . S
C92 C93 1.394 . S
C93 H83 0.929 1_554 S
C93 C89 1.377 . S
C93 C92 1.394 . S
C85 C3 1.139 . S
C4 C72 1.538 1_554 S
C19 C89 1.521 . S
C7 C76 1.091 . S
C37 C59 1.139 . S
C28 C46 1.538 . S
C63 C41 1.521 . S
C50 C25 1.091 . S
C20 C51 1.405 . S
C16 C64 1.743 1_665 S
C77 C40 1.405 . S
C24 C90 1.743 . S
