# Generated by pormake.
# Topology rtl, (3,6)-cn, num edge types: 1
# Building blocks:
#     Node 0, Type 0, BuildingBlock: BETDAH_clean_linker_0, # of connection points: 3
#     Node 1, Type 0, BuildingBlock: BETDAH_clean_linker_0, # of connection points: 3
#     Node 2, Type 0, BuildingBlock: BETDAH_clean_linker_0, # of connection points: 3
#     Node 3, Type 0, BuildingBlock: BETDAH_clean_linker_0, # of connection points: 3
#     Node 4, Type 1, BuildingBlock: FUNLAD_clean_sbu_0, # of connection points: 6
#     Node 5, Type 1, BuildingBlock: FUNLAD_clean_sbu_0, # of connection points: 6
#     Edge 6, Type (0, 1), None
#     Edge 7, Type (0, 1), None
#     Edge 8, Type (0, 1), None
#     Edge 9, Type (0, 1), None
#     Edge 10, Type (0, 1), None
#     Edge 11, Type (0, 1), None
#     Edge 12, Type (0, 1), None
#     Edge 13, Type (0, 1), None
#     Edge 14, Type (0, 1), None
#     Edge 15, Type (0, 1), None
#     Edge 16, Type (0, 1), None
#     Edge 17, Type (0, 1), None
# Relax obj value: 0.004
# Max RMSD: 0.076
# Mean RMSD: 0.053
data_MOF--net-rtl--node1-FUNLAD_clean_sbu_0--node2-BETDAH_clean_linker_0--edge1-none
_symmetry_space_group_name_H-M    P1
_symmetry_Int_Tables_number       1
_symmetry_cell_setting            triclinic
loop_
_symmetry_equiv_pos_as_xyz
'x, y, z'
_cell_length_a     20.004857
_cell_length_b     20.412463
_cell_length_c     8.8131617
_cell_angle_alpha  92.615163
_cell_angle_beta   94.730068
_cell_angle_gamma 89.32176
loop_
_atom_site_label
_atom_site_type_symbol
_atom_site_fract_x
_atom_site_fract_y
_atom_site_fract_z
_atom_type_partial_charge
H0 H 0.08443 0.98467 0.03967 0.0
H1 H 0.12901 0.80727 0.27378 0.0
H2 H 0.13673 0.80841 0.78827 0.0
C3 C 0.10287 0.93442 0.03841 0.0
C4 C 0.11195 0.90128 0.89868 0.0
C5 C 0.10836 0.90076 0.17394 0.0
C6 C 0.12725 0.83431 0.17046 0.0
C7 C 0.14147 0.80183 0.03273 0.0
C8 C 0.13204 0.83503 0.89618 0.0
N9 N 0.15312 0.73321 0.02928 0.0
C10 C 0.21574 0.70485 0.01137 0.0
H11 H 0.57353 0.53325 0.48838 0.0
H12 H 0.63576 0.70738 0.2847 0.0
H13 H 0.62566 0.70483 0.77049 0.0
C14 C 0.59274 0.58264 0.50041 0.0
C15 C 0.59976 0.61435 0.64458 0.0
C16 C 0.6045 0.61597 0.37011 0.0
C17 C 0.62786 0.68068 0.38514 0.0
C18 C 0.63785 0.71193 0.53073 0.0
C19 C 0.62171 0.67934 0.65952 0.0
N20 N 0.65539 0.77881 0.54721 0.0
C21 C 0.71952 0.80096 0.52937 0.0
H22 H 0.95112 0.02367 0.02359 0.0
H23 H 0.91632 0.20385 0.2783 0.0
H24 H 0.91823 0.2035 0.79186 0.0
C25 C 0.9363 0.07502 0.02587 0.0
C26 C 0.93258 0.10894 0.89065 0.0
C27 C 0.9314 0.1091 0.16636 0.0
C28 C 0.91764 0.17668 0.16997 0.0
C29 C 0.90936 0.21006 0.03408 0.0
C30 C 0.91869 0.17648 0.89504 0.0
N31 N 0.90213 0.27902 0.03962 0.0
C32 C 0.83948 0.30909 0.02787 0.0
H33 H 0.52539 0.43444 0.49162 0.0
H34 H 0.35768 0.34512 0.67618 0.0
H35 H 0.36449 0.35456 0.19121 0.0
C36 C 0.47925 0.40701 0.47486 0.0
C37 C 0.44951 0.39528 0.32704 0.0
C38 C 0.44558 0.3912 0.60164 0.0
C39 C 0.38469 0.35661 0.57927 0.0
C40 C 0.35719 0.34053 0.42972 0.0
C41 C 0.38848 0.36242 0.30543 0.0
N42 N 0.29458 0.30905 0.39815 0.0
C43 C 0.26884 0.26124 0.48352 0.0
C44 C 0.08214 0.9324 0.31036 0.0
N45 N 0.13736 0.11032 0.5602 0.0
C46 C 0.20238 0.09456 0.53874 0.0
C47 C 0.24911 0.14421 0.52465 0.0
C48 C 0.22839 0.21002 0.53481 0.0
C49 C 0.16239 0.22491 0.5649 0.0
C50 C 0.11738 0.17417 0.57644 0.0
Zn51 Zn 0.0622 0.04147 0.54503 0.0
C52 C 0.95635 0.07701 0.30577 0.0
N53 N 0.89743 0.90679 0.50455 0.0
C54 C 0.90182 0.84041 0.51471 0.0
C55 C 0.83671 0.93786 0.49292 0.0
C56 C 0.77764 0.90276 0.49524 0.0
C57 C 0.78076 0.83501 0.50993 0.0
C58 C 0.84337 0.80313 0.51757 0.0
Zn59 Zn 0.97881 0.96829 0.52071 0.0
O60 O 0.10788 0.98554 0.36871 0.0
C61 C 0.08587 0.93251 0.75859 0.0
O62 O 0.02755 0.91189 0.35504 0.0
H63 H 0.8339 0.99057 0.48672 0.0
H64 H 0.2172 0.04366 0.52462 0.0
H65 H 0.95052 0.81666 0.52481 0.0
O66 O 0.11268 0.98461 0.71818 0.0
O67 O 0.02933 0.91409 0.695 0.0
H68 H 0.06539 0.18624 0.58961 0.0
O69 O 0.93149 0.02557 0.69255 0.0
O70 O 1.01474 0.09506 0.71545 0.0
O71 O 0.93113 0.02358 0.341 0.0
O72 O 1.01059 0.09702 0.37611 0.0
C73 C 0.95874 0.07686 0.75528 0.0
H74 H 0.29961 0.13129 0.49777 0.0
H75 H 0.14452 0.27525 0.5694 0.0
H76 H 0.72998 0.92873 0.49024 0.0
H77 H 0.84714 0.75064 0.5302 0.0
C78 C 0.46888 0.42279 0.75001 0.0
N79 N 0.65859 0.41726 -0.0012 0.0
C80 C 0.65617 0.35055 -0.00272 0.0
C81 C 0.71552 0.31336 0.00598 0.0
C82 C 0.77726 0.34549 0.01625 0.0
C83 C 0.77857 0.41396 0.01675 0.0
C84 C 0.71827 0.44917 0.00788 0.0
Zn85 Zn 0.57227 0.47254 -0.00861 0.0
C86 C 0.57696 0.58082 0.77422 0.0
N87 N 0.3931 0.59243 0.97666 0.0
C88 C 0.33272 0.56195 0.97167 0.0
C89 C 0.39698 0.65918 0.98605 0.0
C90 C 0.3388 0.69778 -0.00612 0.0
C91 C 0.27645 0.66718 -0.00784 0.0
C92 C 0.27351 0.59863 0.97947 0.0
Zn93 Zn 0.47952 0.53565 0.98073 0.0
O94 O 0.52771 0.41077 0.80904 0.0
C95 C 0.47536 0.4284 0.20008 0.0
O96 O 0.43664 0.47233 0.79964 0.0
H97 H 0.44538 0.68256 0.99039 0.0
H98 H 0.60822 0.3262 0.9902 0.0
H99 H 0.33052 0.50898 0.9646 0.0
O100 O 0.53327 0.41465 0.15779 0.0
O101 O 0.44168 0.47561 0.14239 0.0
H102 H 0.71915 0.50215 0.00919 0.0
O103 O 0.52425 0.59687 0.16176 0.0
O104 O 0.61493 0.53497 0.1727 0.0
O105 O 0.5196 0.59469 0.81964 0.0
O106 O 0.60989 0.53191 0.82588 0.0
C107 C 0.58274 0.58448 0.22163 0.0
H108 H 0.71321 0.26034 0.00547 0.0
H109 H 0.82572 0.44 0.02469 0.0
H110 H 0.34265 0.75071 0.0043 0.0
H111 H 0.226 0.57358 0.97844 0.0
loop_
_geom_bond_atom_site_label_1
_geom_bond_atom_site_label_2
_geom_bond_distance
_geom_bond_site_symmetry_2
_ccdc_geom_bond_type
H0 C3 0.929 . S
H1 C6 0.929 . S
H2 C8 0.930 . S
C3 H0 0.929 . S
C3 C4 1.398 1_554 S
C3 C5 1.396 . S
C4 C3 1.398 1_556 S
C4 C8 1.407 . S
C5 C3 1.396 . S
C5 C6 1.394 . S
C6 H1 0.929 . S
C6 C5 1.394 . S
C6 C7 1.382 1_554 S
C7 C6 1.382 1_556 S
C7 C8 1.392 . S
C7 N9 1.420 . S
C8 H2 0.930 . S
C8 C4 1.407 . S
C8 C7 1.392 . S
N9 C7 1.420 . S
N9 C10 1.244 1_556 S
C10 N9 1.244 1_554 S
H11 C14 0.929 . S
H12 C17 0.929 . S
H13 C19 0.930 . S
C14 H11 0.929 . S
C14 C15 1.398 . S
C14 C16 1.396 . S
C15 C14 1.398 . S
C15 C19 1.407 . S
C16 C14 1.396 . S
C16 C17 1.394 . S
C17 H12 0.929 . S
C17 C16 1.394 . S
C17 C18 1.382 . S
C18 C17 1.382 . S
C18 C19 1.392 . S
C18 N20 1.420 . S
C19 H13 0.930 . S
C19 C15 1.407 . S
C19 C18 1.392 . S
N20 C18 1.420 . S
N20 C21 1.244 . S
C21 N20 1.244 . S
H22 C25 0.929 . S
H23 C28 0.929 . S
H24 C30 0.930 . S
C25 H22 0.929 . S
C25 C26 1.398 1_554 S
C25 C27 1.396 . S
C26 C25 1.398 1_556 S
C26 C30 1.407 . S
C27 C25 1.396 . S
C27 C28 1.394 . S
C28 H23 0.929 . S
C28 C27 1.394 . S
C28 C29 1.382 1_554 S
C29 C28 1.382 1_556 S
C29 C30 1.392 . S
C29 N31 1.420 . S
C30 H24 0.930 . S
C30 C26 1.407 . S
C30 C29 1.392 . S
N31 C29 1.420 . S
N31 C32 1.244 1_556 S
C32 N31 1.244 1_554 S
H33 C36 0.929 . S
H34 C39 0.929 . S
H35 C41 0.930 . S
C36 H33 0.929 . S
C36 C37 1.398 . S
C36 C38 1.396 . S
C37 C36 1.398 . S
C37 C41 1.407 . S
C38 C36 1.396 . S
C38 C39 1.394 . S
C39 H34 0.929 . S
C39 C38 1.394 . S
C39 C40 1.382 . S
C40 C39 1.382 . S
C40 C41 1.392 . S
C40 N42 1.420 . S
C41 H35 0.930 . S
C41 C37 1.407 . S
C41 C40 1.392 . S
N42 C40 1.420 . S
N42 C43 1.244 . S
C43 N42 1.244 . S
C44 O60 1.251 . S
C44 O62 1.254 . S
N45 C46 1.333 . S
N45 C50 1.307 . S
N45 Zn51 2.020 . S
C46 N45 1.333 . S
C46 C47 1.379 . S
C46 H64 0.952 . S
C47 C46 1.379 . S
C47 C48 1.390 . S
C47 H74 0.949 . S
C48 C47 1.390 . S
C48 C49 1.357 . S
C49 C48 1.357 . S
C49 C50 1.370 . S
C49 H75 0.950 . S
C50 N45 1.307 . S
C50 C49 1.370 . S
C50 H68 0.948 . S
Zn51 N45 2.020 . S
Zn51 O60 2.039 1_545 S
Zn51 O66 2.034 1_545 S
Zn51 O70 2.025 1_455 S
Zn51 O72 2.024 1_455 S
C52 O71 1.246 . S
C52 O72 1.249 . S
N53 C54 1.307 . S
N53 C55 1.333 . S
N53 Zn59 2.020 . S
C54 N53 1.307 . S
C54 C58 1.370 . S
C54 H65 0.948 . S
C55 N53 1.333 . S
C55 C56 1.379 . S
C55 H63 0.952 . S
C56 C55 1.379 . S
C56 C57 1.390 . S
C56 H76 0.949 . S
C57 C56 1.390 . S
C57 C58 1.357 . S
C58 C54 1.370 . S
C58 C57 1.357 . S
C58 H77 0.950 . S
Zn59 N53 2.020 . S
Zn59 O62 2.025 1_655 S
Zn59 O67 2.024 1_655 S
Zn59 O69 2.039 1_565 S
Zn59 O71 2.034 1_565 S
O60 C44 1.251 . S
O60 Zn51 2.039 1_565 S
C61 O66 1.246 . S
C61 O67 1.249 . S
O62 C44 1.254 . S
O62 Zn59 2.025 1_455 S
H63 C55 0.952 . S
H64 C46 0.952 . S
H65 C54 0.948 . S
O66 Zn51 2.034 1_565 S
O66 C61 1.246 . S
O67 Zn59 2.024 1_455 S
O67 C61 1.249 . S
H68 C50 0.948 . S
O69 Zn59 2.039 1_545 S
O69 C73 1.251 . S
O70 Zn51 2.025 1_655 S
O70 C73 1.254 . S
O71 C52 1.246 . S
O71 Zn59 2.034 1_545 S
O72 Zn51 2.024 1_655 S
O72 C52 1.249 . S
C73 O69 1.251 . S
C73 O70 1.254 . S
H74 C47 0.949 . S
H75 C49 0.950 . S
H76 C56 0.949 . S
H77 C58 0.950 . S
C78 O94 1.251 . S
C78 O96 1.254 . S
N79 C80 1.333 1_554 S
N79 C84 1.307 . S
N79 Zn85 2.020 . S
C80 N79 1.333 1_556 S
C80 C81 1.379 . S
C80 H98 0.952 . S
C81 C80 1.379 . S
C81 C82 1.390 1_556 S
C81 H108 0.949 . S
C82 C81 1.390 1_554 S
C82 C83 1.357 . S
C83 C82 1.357 . S
C83 C84 1.370 . S
C83 H109 0.950 . S
C84 N79 1.307 . S
C84 C83 1.370 . S
C84 H102 0.948 . S
Zn85 N79 2.020 . S
Zn85 O94 2.039 1_554 S
Zn85 O100 2.034 . S
Zn85 O104 2.025 . S
Zn85 O106 2.024 1_554 S
C86 O105 1.246 . S
C86 O106 1.249 . S
N87 C88 1.307 1_554 S
N87 C89 1.333 . S
N87 Zn93 2.020 . S
C88 N87 1.307 1_556 S
C88 C92 1.370 . S
C88 H99 0.948 . S
C89 N87 1.333 . S
C89 C90 1.379 . S
C89 H97 0.952 . S
C90 C89 1.379 . S
C90 C91 1.390 . S
C90 H110 0.949 . S
C91 C90 1.390 . S
C91 C92 1.357 1_554 S
C92 C88 1.370 . S
C92 C91 1.357 1_556 S
C92 H111 0.950 . S
Zn93 N87 2.020 . S
Zn93 O96 2.025 1_554 S
Zn93 O101 2.024 . S
Zn93 O103 2.039 . S
Zn93 O105 2.034 1_554 S
O94 C78 1.251 . S
O94 Zn85 2.039 1_556 S
C95 O100 1.246 . S
C95 O101 1.249 . S
O96 C78 1.254 . S
O96 Zn93 2.025 1_556 S
H97 C89 0.952 . S
H98 C80 0.952 . S
H99 C88 0.948 . S
O100 Zn85 2.034 . S
O100 C95 1.246 . S
O101 Zn93 2.024 . S
O101 C95 1.249 . S
H102 C84 0.948 . S
O103 Zn93 2.039 . S
O103 C107 1.251 . S
O104 Zn85 2.025 . S
O104 C107 1.254 . S
O105 C86 1.246 . S
O105 Zn93 2.034 1_556 S
O106 Zn85 2.024 1_556 S
O106 C86 1.249 . S
C107 O103 1.251 . S
C107 O104 1.254 . S
H108 C81 0.949 . S
H109 C83 0.950 . S
H110 C90 0.949 . S
H111 C92 0.950 . S
C48 C43 1.522 . S
C10 C91 1.526 . S
C21 C57 1.505 . S
C32 C82 1.510 . S
C44 C5 1.563 . S
C86 C15 1.574 . S
C27 C52 1.570 . S
C38 C78 1.541 . S
C107 C16 1.441 . S
C73 C26 1.440 . S
C95 C37 1.468 . S
C4 C61 1.459 . S
