# Generated by pormake.
# Topology rtl, (3,6)-cn, num edge types: 1
# Building blocks:
#     Node 0, Type 0, BuildingBlock: BETDIP_clean_linker_0, # of connection points: 3
#     Node 1, Type 0, BuildingBlock: BETDIP_clean_linker_0, # of connection points: 3
#     Node 2, Type 0, BuildingBlock: BETDIP_clean_linker_0, # of connection points: 3
#     Node 3, Type 0, BuildingBlock: BETDIP_clean_linker_0, # of connection points: 3
#     Node 4, Type 1, BuildingBlock: FUNLAD_clean_sbu_0, # of connection points: 6
#     Node 5, Type 1, BuildingBlock: FUNLAD_clean_sbu_0, # of connection points: 6
#     Edge 6, Type (0, 1), BuildingBlock: OJICUG_clean_linker_0, # of connection points: 2
#     Edge 7, Type (0, 1), BuildingBlock: OJICUG_clean_linker_0, # of connection points: 2
#     Edge 8, Type (0, 1), BuildingBlock: OJICUG_clean_linker_0, # of connection points: 2
#     Edge 9, Type (0, 1), BuildingBlock: OJICUG_clean_linker_0, # of connection points: 2
#     Edge 10, Type (0, 1), BuildingBlock: OJICUG_clean_linker_0, # of connection points: 2
#     Edge 11, Type (0, 1), BuildingBlock: OJICUG_clean_linker_0, # of connection points: 2
#     Edge 12, Type (0, 1), BuildingBlock: OJICUG_clean_linker_0, # of connection points: 2
#     Edge 13, Type (0, 1), BuildingBlock: OJICUG_clean_linker_0, # of connection points: 2
#     Edge 14, Type (0, 1), BuildingBlock: OJICUG_clean_linker_0, # of connection points: 2
#     Edge 15, Type (0, 1), BuildingBlock: OJICUG_clean_linker_0, # of connection points: 2
#     Edge 16, Type (0, 1), BuildingBlock: OJICUG_clean_linker_0, # of connection points: 2
#     Edge 17, Type (0, 1), BuildingBlock: OJICUG_clean_linker_0, # of connection points: 2
# Relax obj value: 0.002
# Max RMSD: 0.032
# Mean RMSD: 0.021
data_MOF--net-rtl--node1-FUNLAD_clean_sbu_0--node2-BETDIP_clean_linker_0--edge1-OJICUG_clean_linker_0
_symmetry_space_group_name_H-M    P1
_symmetry_Int_Tables_number       1
_symmetry_cell_setting            triclinic
loop_
_symmetry_equiv_pos_as_xyz
'x, y, z'
_cell_length_a     30.111664
_cell_length_b     30.875905
_cell_length_c     15.3223
_cell_angle_alpha  91.199732
_cell_angle_beta   92.254064
_cell_angle_gamma 90.058295
loop_
_atom_site_label
_atom_site_type_symbol
_atom_site_fract_x
_atom_site_fract_y
_atom_site_fract_z
_atom_type_partial_charge
H0 H 0.18724 0.82803 0.85065 0.0
H1 H 0.18945 0.82908 0.13224 0.0
H2 H 0.11508 0.92531 -0.00892 0.0
H3 H 0.25974 0.80284 0.11211 0.0
C4 C 0.2555 0.7807 0.05635 0.0
C5 C 0.17725 0.84241 0.91196 0.0
C6 C 0.14959 0.87895 0.91178 0.0
C7 C 0.1934 0.82525 -0.00892 0.0
C8 C 0.17918 0.8432 0.07062 0.0
C9 C 0.15112 0.87947 0.0706 0.0
C10 C 0.13724 0.89761 -0.0088 0.0
N11 N 0.22367 0.78998 -0.01165 0.0
H12 H 0.69462 0.67098 0.67287 0.0
H13 H 0.69043 0.66811 0.39097 0.0
H14 H 0.61693 0.57445 0.52948 0.0
H15 H 0.70774 0.73948 0.41287 0.0
C16 C 0.73254 0.73813 0.46617 0.0
C17 C 0.68283 0.65656 0.61113 0.0
C18 C 0.65437 0.62053 0.61017 0.0
C19 C 0.69613 0.67412 0.53251 0.0
C20 C 0.68021 0.65552 0.45245 0.0
C21 C 0.6519 0.61942 0.45138 0.0
C22 C 0.63957 0.60184 0.53027 0.0
N23 N 0.72663 0.70936 0.536 0.0
H24 H 0.83721 0.16818 0.83753 0.0
H25 H 0.83921 0.1683 0.1193 0.0
H26 H 0.91468 0.07401 0.97903 0.0
H27 H 0.81852 0.23838 0.10097 0.0
C28 C 0.79546 0.2366 0.0447 0.0
C29 C 0.8487 0.15455 0.899 0.0
C30 C 0.87751 0.1189 0.89927 0.0
C31 C 0.83454 0.17274 0.97782 0.0
C32 C 0.85004 0.15521 0.05765 0.0
C33 C 0.87868 0.11939 0.05799 0.0
C34 C 0.89184 0.10118 0.97875 0.0
N35 N 0.80356 0.20742 0.97421 0.0
H36 H 0.34162 0.32768 0.35085 0.0
H37 H 0.34285 0.33052 0.63242 0.0
H38 H 0.41601 0.42572 0.49677 0.0
H39 H 0.27173 0.30513 0.60485 0.0
C40 C 0.27547 0.28217 0.55096 0.0
C41 C 0.35243 0.34243 0.41293 0.0
C42 C 0.38028 0.37892 0.41484 0.0
C43 C 0.33714 0.32581 0.49085 0.0
C44 C 0.35246 0.34423 0.57149 0.0
C45 C 0.38072 0.38043 0.57361 0.0
C46 C 0.39372 0.39805 0.49519 0.0
N47 N 0.30661 0.29061 0.48599 0.0
C48 C 0.06351 0.95757 0.36076 0.0
N49 N 0.08445 0.07667 0.49541 0.0
C50 C 0.12849 0.06679 0.49461 0.0
C51 C 0.1605 0.09961 0.50148 0.0
C52 C 0.14708 0.14296 0.51029 0.0
C53 C 0.10144 0.15224 0.5105 0.0
C54 C 0.07055 0.11848 0.50251 0.0
Zn55 Zn 0.03836 0.02771 0.48832 0.0
C56 C 0.96707 0.0421 0.35527 0.0
N57 N 0.94398 0.9239 0.4757 0.0
C58 C 0.9552 0.88134 0.48189 0.0
C59 C 0.9007 0.93633 0.4672 0.0
C60 C 0.86675 0.90558 0.464 0.0
C61 C 0.87722 0.8615 0.47056 0.0
C62 C 0.92211 0.84941 0.47996 0.0
Zn63 Zn 0.99107 0.97192 0.48174 0.0
O64 O 0.07482 0.99478 0.39132 0.0
C65 C 0.06246 0.95754 0.61455 0.0
O66 O 0.02877 0.93943 0.38741 0.0
H67 H 0.89234 0.9703 0.46355 0.0
H68 H 0.13886 0.03335 0.48945 0.0
H69 H 0.9898 0.87216 0.48868 0.0
O70 O 0.07448 0.99437 0.58806 0.0
O71 O 0.02749 0.93981 0.58122 0.0
H72 H 0.03541 0.12569 0.5025 0.0
O73 O 0.95417 0.00497 0.57747 0.0
O74 O 1.00088 0.0596 0.58399 0.0
O75 O 0.95572 0.00495 0.38084 0.0
O76 O 1.0015 0.06034 0.38972 0.0
C77 C 0.96577 0.04176 0.60935 0.0
H78 H 0.19539 0.09109 0.50184 0.0
H79 H 0.08973 0.1853 0.51621 0.0
H80 H 0.83254 0.91629 0.45797 0.0
H81 H 0.93151 0.81567 0.48476 0.0
C82 C 0.46914 0.45921 0.87652 0.0
N83 N 0.58688 0.4245 0.0147 0.0
C84 C 0.57535 0.38192 0.00668 0.0
C85 C 0.60811 0.3498 0.0102 0.0
C86 C 0.65297 0.36174 0.02315 0.0
C87 C 0.66382 0.40588 0.03048 0.0
C88 C 0.6302 0.4368 0.02559 0.0
Zn89 Zn 0.54 0.47253 0.01288 0.0
C90 C 0.56609 0.54368 0.89397 0.0
N91 N 0.44683 0.57713 0.01095 0.0
C92 C 0.40279 0.56717 0.00282 0.0
C93 C 0.46075 0.61889 0.02224 0.0
C94 C 0.42987 0.65247 0.02765 0.0
C95 C 0.38421 0.64307 0.02053 0.0
C96 C 0.37078 0.59981 0.00694 0.0
Zn97 Zn 0.49281 0.52823 0.01109 0.0
O98 O 0.50372 0.44115 0.9091 0.0
C99 C 0.46692 0.45697 0.13005 0.0
O100 O 0.45727 0.496 0.90628 0.0
H101 H 0.49589 0.62617 0.02814 0.0
H102 H 0.54072 0.37284 -0.00179 0.0
H103 H 0.39239 0.53376 -0.00552 0.0
O104 O 0.50199 0.43927 0.10273 0.0
O105 O 0.45561 0.49415 0.10277 0.0
H106 H 0.63879 0.47079 0.03095 0.0
O107 O 0.52919 0.55958 0.11477 0.0
O108 O 0.57519 0.50459 0.11815 0.0
O109 O 0.53092 0.56142 0.9207 0.0
O110 O 0.57726 0.50657 0.92168 0.0
C111 C 0.56349 0.54137 0.14781 0.0
H112 H 0.59844 0.31603 0.00465 0.0
H113 H 0.69806 0.41643 0.03924 0.0
H114 H 0.44159 0.68547 0.03717 0.0
H115 H 0.33589 0.59118 0.00189 0.0
C116 C 0.20714 0.24428 0.59491 0.0
C117 C 0.24339 0.24596 0.54029 0.0
H118 H 0.14822 0.21045 0.62811 0.0
C119 C 0.24819 0.21333 0.47606 0.0
H120 H 0.20279 0.26901 0.64507 0.0
C121 C 0.21711 0.17965 0.46666 0.0
C122 C 0.18045 0.17829 0.52063 0.0
H123 H 0.27592 0.21372 0.43316 0.0
H124 H 0.22137 0.15504 0.41629 0.0
C125 C 0.17583 0.21094 0.58489 0.0
C126 C 0.28243 0.71345 0.97956 0.0
C127 C 0.28768 0.74491 0.0468 0.0
H128 H 0.30899 0.65649 0.91853 0.0
C129 C 0.32451 0.74248 0.10548 0.0
H130 H 0.25427 0.71444 0.93347 0.0
C131 C 0.35592 0.70957 0.09658 0.0
C132 C 0.35084 0.67809 0.02934 0.0
H133 H 0.32922 0.7663 0.15799 0.0
H134 H 0.38394 0.70845 0.14302 0.0
C135 C 0.31363 0.6802 0.97122 0.0
C136 C 0.7709 0.80142 0.40515 0.0
C137 C 0.77022 0.76889 0.46762 0.0
H138 H 0.80541 0.85606 0.35685 0.0
C139 C 0.80564 0.76604 0.52977 0.0
H140 H 0.74411 0.80409 0.35625 0.0
C141 C 0.84095 0.79556 0.5297 0.0
C142 C 0.84118 0.82866 0.46812 0.0
H143 H 0.80614 0.74109 0.57842 0.0
H144 H 0.86757 0.79309 0.57899 0.0
C145 C 0.80588 0.83115 0.40564 0.0
C146 C 0.75637 0.30178 0.101 0.0
C147 C 0.75832 0.26782 0.03908 0.0
H148 H 0.72142 0.35809 0.14453 0.0
C149 C 0.72474 0.26409 0.97296 0.0
H150 H 0.78174 0.30518 0.15284 0.0
C151 C 0.68998 0.29412 0.96861 0.0
C152 C 0.68852 0.32864 0.02965 0.0
H153 H 0.72523 0.23803 0.92459 0.0
H154 H 0.66477 0.29088 0.91648 0.0
C155 C 0.72198 0.33206 0.09606 0.0
C156 C 0.14009 0.94192 0.17313 0.0
C157 C 0.13398 0.89779 0.15234 0.0
H158 H 0.12304 0.99533 0.25641 0.0
C159 C 0.10697 0.87264 0.20406 0.0
H160 H 0.16067 0.96188 0.13364 0.0
C161 C 0.08465 0.89187 0.27316 0.0
C162 C 0.08963 0.93639 0.29238 0.0
H163 H 0.10148 0.83862 0.18843 0.0
H164 H 0.06286 0.87208 0.31045 0.0
C165 C 0.11849 0.96098 0.24313 0.0
C166 C 0.60967 0.62815 0.74315 0.0
C167 C 0.63763 0.60302 0.69141 0.0
H168 H 0.56447 0.62883 0.84782 0.0
C169 C 0.64454 0.55929 0.71074 0.0
H170 H 0.60354 0.66184 0.72847 0.0
C171 C 0.62266 0.5405 0.77913 0.0
C172 C 0.59273 0.56492 0.82815 0.0
H173 H 0.66578 0.53935 0.67104 0.0
H174 H 0.62776 0.50637 0.79107 0.0
C175 C 0.58709 0.60915 0.81068 0.0
C176 C 0.92364 0.12656 0.1979 0.0
C177 C 0.89657 0.10121 0.14035 0.0
H178 H 0.96788 0.12748 0.31101 0.0
C179 C 0.89068 0.0571 0.15677 0.0
H180 H 0.9289 0.16058 0.18573 0.0
C181 C 0.91244 0.03826 0.2285 0.0
C182 C 0.94124 0.06306 0.28403 0.0
H183 H 0.87002 0.037 0.1128 0.0
H184 H 0.90794 0.00393 0.23856 0.0
C185 C 0.94614 0.10754 0.26888 0.0
C186 C 0.42566 0.37417 0.71309 0.0
C187 C 0.39881 0.39923 0.65692 0.0
H188 H 0.46964 0.37375 0.82647 0.0
C189 C 0.39327 0.44351 0.6759 0.0
H190 H 0.4307 0.34004 0.69898 0.0
C191 C 0.41504 0.46271 0.74899 0.0
C192 C 0.4435 0.43813 0.80327 0.0
H193 H 0.3728 0.4634 0.63303 0.0
H194 H 0.41076 0.49712 0.76121 0.0
C195 C 0.44816 0.39354 0.78534 0.0
C196 C 0.60702 0.62593 0.31195 0.0
C197 C 0.63335 0.60059 0.36852 0.0
H198 H 0.56356 0.62679 0.19786 0.0
C199 C 0.63845 0.55625 0.34975 0.0
H200 H 0.60238 0.66015 0.32585 0.0
C201 C 0.6168 0.53727 0.27633 0.0
C202 C 0.58891 0.56218 0.22154 0.0
H203 H 0.65858 0.53617 0.39284 0.0
H204 H 0.62076 0.50283 0.26415 0.0
C205 C 0.58461 0.60679 0.23939 0.0
C206 C 0.88873 0.0568 0.79623 0.0
C207 C 0.89488 0.10084 0.81766 0.0
H208 H 0.9059 0.00368 0.71233 0.0
C209 C 0.92214 0.12615 0.76676 0.0
H210 H 0.86799 0.03674 0.8352 0.0
C211 C 0.94464 0.10715 0.6977 0.0
C212 C 0.93956 0.06272 0.67774 0.0
H213 H 0.92764 0.16011 0.783 0.0
H214 H 0.96662 0.12703 0.661 0.0
C215 C 0.91049 0.03798 0.72622 0.0
C216 C 0.39003 0.44075 0.31556 0.0
C217 C 0.39708 0.39692 0.33405 0.0
H218 H 0.40611 0.49397 0.23539 0.0
C219 C 0.42456 0.37198 0.281 0.0
H220 H 0.36902 0.46053 0.35607 0.0
C221 C 0.44654 0.39123 0.213 0.0
C222 C 0.44073 0.43553 0.1963 0.0
H223 H 0.43072 0.3382 0.29484 0.0
H224 H 0.46881 0.37167 0.1748 0.0
C225 C 0.4113 0.4598 0.24671 0.0
C226 C 0.10454 0.87252 0.77186 0.0
C227 C 0.13195 0.89744 0.82951 0.0
H228 H 0.06042 0.87225 0.65865 0.0
C229 C 0.13861 0.94146 0.81307 0.0
H230 H 0.09869 0.83858 0.78397 0.0
C231 C 0.11724 0.96063 0.74124 0.0
C232 C 0.0881 0.93627 0.68565 0.0
H233 H 0.15957 0.96124 0.85707 0.0
H234 H 0.12228 0.99488 0.73118 0.0
C235 C 0.08245 0.89187 0.70082 0.0
loop_
_geom_bond_atom_site_label_1
_geom_bond_atom_site_label_2
_geom_bond_distance
_geom_bond_site_symmetry_2
_ccdc_geom_bond_type
H0 C5 0.930 . S
H1 C8 0.930 . S
H2 C10 0.930 . S
H3 C4 1.016 . S
C4 H3 1.016 . S
C4 N11 1.286 1_554 S
C5 H0 0.930 . S
C5 C6 1.397 . S
C5 C7 1.361 1_556 S
C6 C5 1.397 . S
C6 C10 1.390 1_556 S
C7 C5 1.361 1_554 S
C7 C8 1.393 . S
C7 N11 1.413 1_554 S
C8 H1 0.930 . S
C8 C7 1.393 . S
C8 C9 1.399 . S
C9 C8 1.399 . S
C9 C10 1.381 . S
C10 H2 0.930 . S
C10 C6 1.390 1_554 S
C10 C9 1.381 . S
N11 C4 1.286 1_556 S
N11 C7 1.413 1_556 S
H12 C17 0.930 . S
H13 C20 0.930 . S
H14 C22 0.930 . S
H15 C16 1.016 . S
C16 H15 1.016 . S
C16 N23 1.286 . S
C17 H12 0.930 . S
C17 C18 1.397 . S
C17 C19 1.361 . S
C18 C17 1.397 . S
C18 C22 1.390 . S
C19 C17 1.361 . S
C19 C20 1.393 . S
C19 N23 1.413 . S
C20 H13 0.930 . S
C20 C19 1.393 . S
C20 C21 1.399 . S
C21 C20 1.399 . S
C21 C22 1.381 . S
C22 H14 0.930 . S
C22 C18 1.390 . S
C22 C21 1.381 . S
N23 C16 1.286 . S
N23 C19 1.413 . S
H24 C29 0.930 . S
H25 C32 0.930 . S
H26 C34 0.930 . S
H27 C28 1.016 . S
C28 H27 1.016 . S
C28 N35 1.286 1_554 S
C29 H24 0.930 . S
C29 C30 1.397 . S
C29 C31 1.361 . S
C30 C29 1.397 . S
C30 C34 1.390 1_556 S
C31 C29 1.361 . S
C31 C32 1.393 1_556 S
C31 N35 1.413 . S
C32 H25 0.930 . S
C32 C31 1.393 1_554 S
C32 C33 1.399 . S
C33 C32 1.399 . S
C33 C34 1.381 . S
C34 H26 0.930 . S
C34 C30 1.390 1_554 S
C34 C33 1.381 . S
N35 C28 1.286 1_556 S
N35 C31 1.413 . S
H36 C41 0.930 . S
H37 C44 0.930 . S
H38 C46 0.930 . S
H39 C40 1.016 . S
C40 H39 1.016 . S
C40 N47 1.286 . S
C41 H36 0.930 . S
C41 C42 1.397 . S
C41 C43 1.361 . S
C42 C41 1.397 . S
C42 C46 1.390 . S
C43 C41 1.361 . S
C43 C44 1.393 . S
C43 N47 1.413 . S
C44 H37 0.930 . S
C44 C43 1.393 . S
C44 C45 1.399 . S
C45 C44 1.399 . S
C45 C46 1.381 . S
C46 H38 0.930 . S
C46 C42 1.390 . S
C46 C45 1.381 . S
N47 C40 1.286 . S
N47 C43 1.413 . S
C48 O64 1.251 . S
C48 O66 1.254 . S
N49 C50 1.333 . S
N49 C54 1.307 . S
N49 Zn55 2.020 . S
C50 N49 1.333 . S
C50 C51 1.379 . S
C50 H68 0.952 . S
C51 C50 1.379 . S
C51 C52 1.390 . S
C51 H78 0.949 . S
C52 C51 1.390 . S
C52 C53 1.357 . S
C53 C52 1.357 . S
C53 C54 1.370 . S
C53 H79 0.950 . S
C54 N49 1.307 . S
C54 C53 1.370 . S
C54 H72 0.948 . S
Zn55 N49 2.020 . S
Zn55 O64 2.039 1_545 S
Zn55 O70 2.034 1_545 S
Zn55 O74 2.025 1_455 S
Zn55 O76 2.024 1_455 S
C56 O75 1.246 . S
C56 O76 1.249 . S
N57 C58 1.307 . S
N57 C59 1.333 . S
N57 Zn63 2.020 . S
C58 N57 1.307 . S
C58 C62 1.370 . S
C58 H69 0.948 . S
C59 N57 1.333 . S
C59 C60 1.379 . S
C59 H67 0.952 . S
C60 C59 1.379 . S
C60 C61 1.390 . S
C60 H80 0.949 . S
C61 C60 1.390 . S
C61 C62 1.357 . S
C62 C58 1.370 . S
C62 C61 1.357 . S
C62 H81 0.950 . S
Zn63 N57 2.020 . S
Zn63 O66 2.025 1_655 S
Zn63 O71 2.024 1_655 S
Zn63 O73 2.039 1_565 S
Zn63 O75 2.034 1_565 S
O64 C48 1.251 . S
O64 Zn55 2.039 1_565 S
C65 O70 1.246 . S
C65 O71 1.249 . S
O66 C48 1.254 . S
O66 Zn63 2.025 1_455 S
H67 C59 0.952 . S
H68 C50 0.952 . S
H69 C58 0.948 . S
O70 Zn55 2.034 1_565 S
O70 C65 1.246 . S
O71 Zn63 2.024 1_455 S
O71 C65 1.249 . S
H72 C54 0.948 . S
O73 Zn63 2.039 1_545 S
O73 C77 1.251 . S
O74 Zn55 2.025 1_655 S
O74 C77 1.254 . S
O75 C56 1.246 . S
O75 Zn63 2.034 1_545 S
O76 Zn55 2.024 1_655 S
O76 C56 1.249 . S
C77 O73 1.251 . S
C77 O74 1.254 . S
H78 C51 0.949 . S
H79 C53 0.950 . S
H80 C60 0.949 . S
H81 C62 0.950 . S
C82 O98 1.251 . S
C82 O100 1.254 . S
N83 C84 1.333 . S
N83 C88 1.307 . S
N83 Zn89 2.020 . S
C84 N83 1.333 . S
C84 C85 1.379 1_554 S
C84 H102 0.952 1_554 S
C85 C84 1.379 1_556 S
C85 C86 1.390 1_556 S
C85 H112 0.949 . S
C86 C85 1.390 1_554 S
C86 C87 1.357 . S
C87 C86 1.357 . S
C87 C88 1.370 . S
C87 H113 0.950 . S
C88 N83 1.307 . S
C88 C87 1.370 . S
C88 H106 0.948 . S
Zn89 N83 2.020 . S
Zn89 O98 2.039 1_554 S
Zn89 O104 2.034 . S
Zn89 O108 2.025 . S
Zn89 O110 2.024 1_554 S
C90 O109 1.246 . S
C90 O110 1.249 . S
N91 C92 1.307 . S
N91 C93 1.333 . S
N91 Zn97 2.020 . S
C92 N91 1.307 . S
C92 C96 1.370 . S
C92 H103 0.948 1_554 S
C93 N91 1.333 . S
C93 C94 1.379 . S
C93 H101 0.952 . S
C94 C93 1.379 . S
C94 C95 1.390 . S
C94 H114 0.949 . S
C95 C94 1.390 . S
C95 C96 1.357 . S
C96 C92 1.370 . S
C96 C95 1.357 . S
C96 H115 0.950 1_554 S
Zn97 N91 2.020 . S
Zn97 O100 2.025 1_554 S
Zn97 O105 2.024 . S
Zn97 O107 2.039 . S
Zn97 O109 2.034 1_554 S
O98 C82 1.251 . S
O98 Zn89 2.039 1_556 S
C99 O104 1.246 . S
C99 O105 1.249 . S
O100 C82 1.254 . S
O100 Zn97 2.025 1_556 S
H101 C93 0.952 . S
H102 C84 0.952 1_556 S
H103 C92 0.948 1_556 S
O104 Zn89 2.034 . S
O104 C99 1.246 . S
O105 Zn97 2.024 . S
O105 C99 1.249 . S
H106 C88 0.948 . S
O107 Zn97 2.039 . S
O107 C111 1.251 . S
O108 Zn89 2.025 . S
O108 C111 1.254 . S
O109 C90 1.246 . S
O109 Zn97 2.034 1_556 S
O110 Zn89 2.024 1_556 S
O110 C90 1.249 . S
C111 O107 1.251 . S
C111 O108 1.254 . S
H112 C85 0.949 . S
H113 C87 0.950 . S
H114 C94 0.949 . S
H115 C96 0.950 1_556 S
C116 C117 1.387 . S
C116 H120 0.950 . S
C116 C125 1.390 . S
C117 C116 1.387 . S
C117 C119 1.387 . S
H118 C125 0.950 . S
C119 C117 1.387 . S
C119 C121 1.390 . S
C119 H123 0.950 . S
H120 C116 0.950 . S
C121 C119 1.390 . S
C121 C122 1.387 . S
C121 H124 0.950 . S
C122 C121 1.387 . S
C122 C125 1.387 . S
H123 C119 0.950 . S
H124 C121 0.950 . S
C125 C116 1.390 . S
C125 H118 0.950 . S
C125 C122 1.387 . S
C126 C127 1.387 1_556 S
C126 H130 0.950 . S
C126 C135 1.390 . S
C127 C126 1.387 1_554 S
C127 C129 1.387 . S
H128 C135 0.950 . S
C129 C127 1.387 . S
C129 C131 1.390 . S
C129 H133 0.950 . S
H130 C126 0.950 . S
C131 C129 1.390 . S
C131 C132 1.387 . S
C131 H134 0.950 . S
C132 C131 1.387 . S
C132 C135 1.387 1_554 S
H133 C129 0.950 . S
H134 C131 0.950 . S
C135 C126 1.390 . S
C135 H128 0.950 . S
C135 C132 1.387 1_556 S
C136 C137 1.387 . S
C136 H140 0.950 . S
C136 C145 1.390 . S
C137 C136 1.387 . S
C137 C139 1.387 . S
H138 C145 0.950 . S
C139 C137 1.387 . S
C139 C141 1.390 . S
C139 H143 0.950 . S
H140 C136 0.950 . S
C141 C139 1.390 . S
C141 C142 1.387 . S
C141 H144 0.950 . S
C142 C141 1.387 . S
C142 C145 1.387 . S
H143 C139 0.950 . S
H144 C141 0.950 . S
C145 C136 1.390 . S
C145 H138 0.950 . S
C145 C142 1.387 . S
C146 C147 1.387 . S
C146 H150 0.950 . S
C146 C155 1.390 . S
C147 C146 1.387 . S
C147 C149 1.387 1_554 S
H148 C155 0.950 . S
C149 C147 1.387 1_556 S
C149 C151 1.390 . S
C149 H153 0.950 . S
H150 C146 0.950 . S
C151 C149 1.390 . S
C151 C152 1.387 1_556 S
C151 H154 0.950 . S
C152 C151 1.387 1_554 S
C152 C155 1.387 . S
H153 C149 0.950 . S
H154 C151 0.950 . S
C155 C146 1.390 . S
C155 H148 0.950 . S
C155 C152 1.387 . S
C156 C157 1.387 . S
C156 H160 0.950 . S
C156 C165 1.390 . S
C157 C156 1.387 . S
C157 C159 1.387 . S
H158 C165 0.950 . S
C159 C157 1.387 . S
C159 C161 1.390 . S
C159 H163 0.950 . S
H160 C156 0.950 . S
C161 C159 1.390 . S
C161 C162 1.387 . S
C161 H164 0.950 . S
C162 C161 1.387 . S
C162 C165 1.387 . S
H163 C159 0.950 . S
H164 C161 0.950 . S
C165 C156 1.390 . S
C165 H158 0.950 . S
C165 C162 1.387 . S
C166 C167 1.387 . S
C166 H170 0.950 . S
C166 C175 1.390 . S
C167 C166 1.387 . S
C167 C169 1.387 . S
H168 C175 0.950 . S
C169 C167 1.387 . S
C169 C171 1.390 . S
C169 H173 0.950 . S
H170 C166 0.950 . S
C171 C169 1.390 . S
C171 C172 1.387 . S
C171 H174 0.950 . S
C172 C171 1.387 . S
C172 C175 1.387 . S
H173 C169 0.950 . S
H174 C171 0.950 . S
C175 C166 1.390 . S
C175 H168 0.950 . S
C175 C172 1.387 . S
C176 C177 1.387 . S
C176 H180 0.950 . S
C176 C185 1.390 . S
C177 C176 1.387 . S
C177 C179 1.387 . S
H178 C185 0.950 . S
C179 C177 1.387 . S
C179 C181 1.390 . S
C179 H183 0.950 . S
H180 C176 0.950 . S
C181 C179 1.390 . S
C181 C182 1.387 . S
C181 H184 0.950 . S
C182 C181 1.387 . S
C182 C185 1.387 . S
H183 C179 0.950 . S
H184 C181 0.950 . S
C185 C176 1.390 . S
C185 H178 0.950 . S
C185 C182 1.387 . S
C186 C187 1.387 . S
C186 H190 0.950 . S
C186 C195 1.390 . S
C187 C186 1.387 . S
C187 C189 1.387 . S
H188 C195 0.950 . S
C189 C187 1.387 . S
C189 C191 1.390 . S
C189 H193 0.950 . S
H190 C186 0.950 . S
C191 C189 1.390 . S
C191 C192 1.387 . S
C191 H194 0.950 . S
C192 C191 1.387 . S
C192 C195 1.387 . S
H193 C189 0.950 . S
H194 C191 0.950 . S
C195 C186 1.390 . S
C195 H188 0.950 . S
C195 C192 1.387 . S
C196 C197 1.387 . S
C196 H200 0.950 . S
C196 C205 1.390 . S
C197 C196 1.387 . S
C197 C199 1.387 . S
H198 C205 0.950 . S
C199 C197 1.387 . S
C199 C201 1.390 . S
C199 H203 0.950 . S
H200 C196 0.950 . S
C201 C199 1.390 . S
C201 C202 1.387 . S
C201 H204 0.950 . S
C202 C201 1.387 . S
C202 C205 1.387 . S
H203 C199 0.950 . S
H204 C201 0.950 . S
C205 C196 1.390 . S
C205 H198 0.950 . S
C205 C202 1.387 . S
C206 C207 1.387 . S
C206 H210 0.950 . S
C206 C215 1.390 . S
C207 C206 1.387 . S
C207 C209 1.387 . S
H208 C215 0.950 . S
C209 C207 1.387 . S
C209 C211 1.390 . S
C209 H213 0.950 . S
H210 C206 0.950 . S
C211 C209 1.390 . S
C211 C212 1.387 . S
C211 H214 0.950 . S
C212 C211 1.387 . S
C212 C215 1.387 . S
H213 C209 0.950 . S
H214 C211 0.950 . S
C215 C206 1.390 . S
C215 H208 0.950 . S
C215 C212 1.387 . S
C216 C217 1.387 . S
C216 H220 0.950 . S
C216 C225 1.390 . S
C217 C216 1.387 . S
C217 C219 1.387 . S
H218 C225 0.950 . S
C219 C217 1.387 . S
C219 C221 1.390 . S
C219 H223 0.950 . S
H220 C216 0.950 . S
C221 C219 1.390 . S
C221 C222 1.387 . S
C221 H224 0.950 . S
C222 C221 1.387 . S
C222 C225 1.387 . S
H223 C219 0.950 . S
H224 C221 0.950 . S
C225 C216 1.390 . S
C225 H218 0.950 . S
C225 C222 1.387 . S
C226 C227 1.387 . S
C226 H230 0.950 . S
C226 C235 1.390 . S
C227 C226 1.387 . S
C227 C229 1.387 . S
H228 C235 0.950 . S
C229 C227 1.387 . S
C229 C231 1.390 . S
C229 H233 0.950 . S
H230 C226 0.950 . S
C231 C229 1.390 . S
C231 C232 1.387 . S
C231 H234 0.950 . S
C232 C231 1.387 . S
C232 C235 1.387 . S
H233 C229 0.950 . S
H234 C231 0.950 . S
C235 C226 1.390 . S
C235 H228 0.950 . S
C235 C232 1.387 . S
C122 C52 1.506 . S
C117 C40 1.505 . S
C127 C4 1.506 . S
C132 C95 1.508 . S
C137 C16 1.498 . S
C142 C61 1.508 . S
C147 C28 1.503 . S
C152 C86 1.506 . S
C162 C48 1.551 . S
C157 C9 1.529 . S
C172 C90 1.534 . S
C167 C18 1.532 . S
C177 C33 1.530 . S
C182 C56 1.546 . S
C187 C45 1.516 . S
C192 C82 1.535 . S
C202 C111 1.484 . S
C197 C21 1.468 . S
C212 C77 1.472 . S
C207 C30 1.466 . S
C222 C99 1.484 . S
C217 C42 1.480 . S
C227 C6 1.469 . S
C232 C65 1.472 . S
