# Generated by pormake.
# Topology tsx, (6,3)-cn, num edge types: 1
# Building blocks:
#     Node 0, Type 0, BuildingBlock: FUNLAD_clean_sbu_0, # of connection points: 6
#     Node 1, Type 0, BuildingBlock: FUNLAD_clean_sbu_0, # of connection points: 6
#     Node 2, Type 1, BuildingBlock: BETDAH_clean_linker_0, # of connection points: 3
#     Node 3, Type 1, BuildingBlock: BETDAH_clean_linker_0, # of connection points: 3
#     Node 4, Type 1, BuildingBlock: BETDAH_clean_linker_0, # of connection points: 3
#     Node 5, Type 1, BuildingBlock: BETDAH_clean_linker_0, # of connection points: 3
#     Edge 6, Type (0, 1), None
#     Edge 7, Type (0, 1), None
#     Edge 8, Type (0, 1), None
#     Edge 9, Type (0, 1), None
#     Edge 10, Type (0, 1), None
#     Edge 11, Type (0, 1), None
#     Edge 12, Type (0, 1), None
#     Edge 13, Type (0, 1), None
#     Edge 14, Type (0, 1), None
#     Edge 15, Type (0, 1), None
#     Edge 16, Type (0, 1), None
#     Edge 17, Type (0, 1), None
# Relax obj value: 0.119
# Max RMSD: 0.142
# Mean RMSD: 0.131
data_MOF--net-tsx--node1-FUNLAD_clean_sbu_0--node2-BETDAH_clean_linker_0--edge1-none
_symmetry_space_group_name_H-M    P1
_symmetry_Int_Tables_number       1
_symmetry_cell_setting            triclinic
loop_
_symmetry_equiv_pos_as_xyz
'x, y, z'
_cell_length_a     7.8915789
_cell_length_b     9.183363
_cell_length_c     21.713975
_cell_angle_alpha  88.403603
_cell_angle_beta   108.63862
_cell_angle_gamma 90.394327
loop_
_atom_site_label
_atom_site_type_symbol
_atom_site_fract_x
_atom_site_fract_y
_atom_site_fract_z
_atom_type_partial_charge
C0 C 0.93024 0.84523 -0.00817 0.0
N1 N 0.12573 0.08484 0.13486 0.0
C2 C 0.96539 0.10413 0.14478 0.0
C3 C 0.95244 0.0969 0.20752 0.0
C4 C 0.10641 0.07151 0.26122 0.0
C5 C 0.27253 0.0656 0.24985 0.0
C6 C 0.27883 0.07005 0.18613 0.0
Zn7 Zn 0.12922 0.08398 0.03985 0.0
C8 C 0.4035 0.86176 0.01188 0.0
N9 N 0.13459 0.05888 0.85095 0.0
C10 C 0.96402 0.0365 0.81135 0.0
C11 C 0.27152 0.06662 0.82568 0.0
C12 C 0.2388 0.05217 0.75855 0.0
C13 C 0.06274 0.03046 0.71659 0.0
C14 C 0.92455 0.02737 0.74428 0.0
Zn15 Zn 0.16566 0.07512 0.94979 0.0
O16 O 0.90515 0.95789 0.01869 0.0
C17 C 0.86906 0.27781 0.95015 0.0
O18 O 0.02269 0.85755 0.95277 0.0
H19 H 0.40671 0.07869 0.85784 0.0
H20 H 0.84521 0.11935 0.10374 0.0
H21 H 0.85648 0.02224 0.8316 0.0
O22 O 0.95127 0.28043 0.01136 0.0
O23 O 0.92672 0.18883 0.9187 0.0
H24 H 0.40579 0.05806 0.17766 0.0
O25 O 0.32059 0.28284 0.96808 0.0
O26 O 0.34584 0.2107 0.0679 0.0
O27 O 0.40573 0.96801 0.97457 0.0
O28 O 0.30908 0.87574 0.0505 0.0
C29 C 0.38914 0.29787 0.03003 0.0
H30 H 0.82109 0.10113 0.21315 0.0
H31 H 0.39614 0.05022 0.28956 0.0
H32 H 0.35174 0.05136 0.74049 0.0
H33 H 0.78637 0.01311 0.71497 0.0
C34 C 0.28146 0.25094 0.45414 0.0
N35 N 0.45442 0.44176 0.60953 0.0
C36 C 0.30092 0.46692 0.62355 0.0
C37 C 0.29759 0.44692 0.68739 0.0
C38 C 0.45419 0.40145 0.7365 0.0
C39 C 0.60809 0.37321 0.71904 0.0
C40 C 0.60438 0.39234 0.65544 0.0
Zn41 Zn 0.48606 0.47518 0.52199 0.0
C42 C 0.75474 0.25816 0.49423 0.0
N43 N 0.55084 0.51301 0.3433 0.0
C44 C 0.39578 0.52517 0.29263 0.0
C45 C 0.71124 0.54027 0.33452 0.0
C46 C 0.71989 0.57879 0.27299 0.0
C47 C 0.56129 0.59259 0.21979 0.0
C48 C 0.39753 0.57188 0.23146 0.0
Zn49 Zn 0.53619 0.48465 0.43543 0.0
O50 O 0.25464 0.35761 0.48449 0.0
C51 C 0.25388 0.68777 0.43584 0.0
O52 O 0.38225 0.27143 0.41834 0.0
H53 H 0.83336 0.53033 0.37505 0.0
H54 H 0.18234 0.50444 0.58558 0.0
H55 H 0.26868 0.50003 0.29923 0.0
O56 O 0.32549 0.67375 0.49765 0.0
O57 O 0.30374 0.60334 0.40096 0.0
H58 H 0.72449 0.373 0.64313 0.0
O59 O 0.69375 0.68328 0.47112 0.0
O60 O 0.71347 0.60082 0.56834 0.0
O61 O 0.77111 0.36992 0.4622 0.0
O62 O 0.65102 0.26647 0.52926 0.0
C63 C 0.76096 0.69311 0.53313 0.0
H64 H 0.17571 0.46944 0.69814 0.0
H65 H 0.73534 0.34367 0.7544 0.0
H66 H 0.85047 0.59008 0.26706 0.0
H67 H 0.27086 0.58439 0.19309 0.0
H68 H 0.31251 0.8682 0.346 0.0
H69 H 0.87125 0.16378 0.32702 0.0
H70 H 0.90693 0.75437 0.42479 0.0
C71 C 0.19515 0.90069 0.35781 0.0
C72 C 0.14133 0.81311 0.40191 0.0
C73 C 0.08796 0.01913 0.3246 0.0
C74 C 0.94622 0.0655 0.34687 0.0
C75 C 0.89397 0.97558 0.3914 0.0
C76 C 0.97217 0.83831 0.40626 0.0
N77 N 0.75696 0.01317 0.41804 0.0
C78 C 0.77244 0.12382 0.46284 0.0
H79 H 0.79445 0.85076 0.64234 0.0
H80 H 0.23679 0.12115 0.62847 0.0
H81 H 0.07674 0.73944 0.51982 0.0
C82 C 0.89273 0.88251 0.61944 0.0
C83 C 0.89575 0.80647 0.56467 0.0
C84 C 0.0275 0.98753 0.64742 0.0
C85 C 0.14239 0.03333 0.61169 0.0
C86 C 0.14781 0.95286 0.55816 0.0
C87 C 0.04406 0.82651 0.54484 0.0
N88 N 0.27103 0.9824 0.52319 0.0
C89 C 0.27868 0.11156 0.4879 0.0
H90 H 0.65418 0.22042 0.83089 0.0
H91 H 0.26682 0.56028 0.80317 0.0
H92 H 0.71299 0.546 0.97035 0.0
C93 C 0.60811 0.31502 0.84962 0.0
C94 C 0.70079 0.3614 0.91229 0.0
C95 C 0.47168 0.40016 0.80681 0.0
C96 C 0.3853 0.5034 0.83329 0.0
C97 C 0.46277 0.54356 0.89814 0.0
C98 C 0.63405 0.4883 0.93159 0.0
N99 N 0.3605 0.63079 0.92763 0.0
C100 C 0.4145 0.7237 0.98108 0.0
H101 H 0.3189 0.47076 0.11342 0.0
H102 H 0.81287 0.71618 0.16668 0.0
H103 H 0.72801 0.35259 0.04339 0.0
C104 C 0.44601 0.49958 0.1075 0.0
C105 C 0.49979 0.4217 0.06254 0.0
C106 C 0.56919 0.58945 0.15226 0.0
C107 C 0.72494 0.63439 0.13812 0.0
C108 C 0.778 0.55769 0.09248 0.0
C109 C 0.67753 0.43397 0.06607 0.0
N110 N 0.93297 0.59815 0.07529 0.0
C111 C 0.93093 0.71256 0.0304 0.0
loop_
_geom_bond_atom_site_label_1
_geom_bond_atom_site_label_2
_geom_bond_distance
_geom_bond_site_symmetry_2
_ccdc_geom_bond_type
C0 O16 1.251 1_556 S
C0 O18 1.254 . S
N1 C2 1.333 1_445 S
N1 C6 1.307 . S
N1 Zn7 2.020 . S
C2 N1 1.333 1_665 S
C2 C3 1.379 . S
C2 H20 0.952 . S
C3 C2 1.379 . S
C3 C4 1.390 1_665 S
C3 H30 0.949 . S
C4 C3 1.390 1_445 S
C4 C5 1.357 . S
C5 C4 1.357 . S
C5 C6 1.370 . S
C5 H31 0.950 . S
C6 N1 1.307 . S
C6 C5 1.370 . S
C6 H24 0.948 . S
Zn7 N1 2.020 . S
Zn7 O16 2.039 1_445 S
Zn7 O22 2.034 1_455 S
Zn7 O26 2.025 . S
Zn7 O28 2.024 1_545 S
C8 O27 1.246 1_554 S
C8 O28 1.249 . S
N9 C10 1.307 . S
N9 C11 1.333 1_665 S
N9 Zn15 2.020 1_665 S
C10 N9 1.307 . S
C10 C14 1.370 . S
C10 H21 0.948 . S
C11 N9 1.333 1_445 S
C11 C12 1.379 . S
C11 H19 0.952 . S
C12 C11 1.379 . S
C12 C13 1.390 1_455 S
C12 H32 0.949 . S
C13 C12 1.390 1_655 S
C13 C14 1.357 1_545 S
C14 C10 1.370 . S
C14 C13 1.357 1_565 S
C14 H33 0.950 . S
Zn15 N9 2.020 1_445 S
Zn15 O18 2.025 1_445 S
Zn15 O23 2.024 1_455 S
Zn15 O25 2.039 . S
Zn15 O27 2.034 1_545 S
O16 C0 1.251 1_554 S
O16 Zn7 2.039 1_665 S
C17 O22 1.246 1_556 S
C17 O23 1.249 . S
O18 C0 1.254 . S
O18 Zn15 2.025 1_665 S
H19 C11 0.952 . S
H20 C2 0.952 . S
H21 C10 0.948 . S
O22 Zn7 2.034 1_655 S
O22 C17 1.246 1_554 S
O23 Zn15 2.024 1_655 S
O23 C17 1.249 . S
H24 C6 0.948 . S
O25 Zn15 2.039 . S
O25 C29 1.251 1_556 S
O26 Zn7 2.025 . S
O26 C29 1.254 . S
O27 C8 1.246 1_556 S
O27 Zn15 2.034 1_565 S
O28 Zn7 2.024 1_565 S
O28 C8 1.249 . S
C29 O25 1.251 1_554 S
C29 O26 1.254 . S
H30 C3 0.949 . S
H31 C5 0.950 . S
H32 C12 0.949 . S
H33 C14 0.950 . S
C34 O50 1.251 . S
C34 O52 1.254 . S
N35 C36 1.333 . S
N35 C40 1.307 . S
N35 Zn41 2.020 . S
C36 N35 1.333 . S
C36 C37 1.379 . S
C36 H54 0.952 . S
C37 C36 1.379 . S
C37 C38 1.390 . S
C37 H64 0.949 . S
C38 C37 1.390 . S
C38 C39 1.357 . S
C39 C38 1.357 . S
C39 C40 1.370 . S
C39 H65 0.950 . S
C40 N35 1.307 . S
C40 C39 1.370 . S
C40 H58 0.948 . S
Zn41 N35 2.020 . S
Zn41 O50 2.039 . S
Zn41 O56 2.034 . S
Zn41 O60 2.025 . S
Zn41 O62 2.024 . S
C42 O61 1.246 . S
C42 O62 1.249 . S
N43 C44 1.307 . S
N43 C45 1.333 . S
N43 Zn49 2.020 . S
C44 N43 1.307 . S
C44 C48 1.370 . S
C44 H55 0.948 . S
C45 N43 1.333 . S
C45 C46 1.379 . S
C45 H53 0.952 . S
C46 C45 1.379 . S
C46 C47 1.390 . S
C46 H66 0.949 . S
C47 C46 1.390 . S
C47 C48 1.357 . S
C48 C44 1.370 . S
C48 C47 1.357 . S
C48 H67 0.950 . S
Zn49 N43 2.020 . S
Zn49 O52 2.025 . S
Zn49 O57 2.024 . S
Zn49 O59 2.039 . S
Zn49 O61 2.034 . S
O50 C34 1.251 . S
O50 Zn41 2.039 . S
C51 O56 1.246 . S
C51 O57 1.249 . S
O52 C34 1.254 . S
O52 Zn49 2.025 . S
H53 C45 0.952 . S
H54 C36 0.952 . S
H55 C44 0.948 . S
O56 Zn41 2.034 . S
O56 C51 1.246 . S
O57 Zn49 2.024 . S
O57 C51 1.249 . S
H58 C40 0.948 . S
O59 Zn49 2.039 . S
O59 C63 1.251 . S
O60 Zn41 2.025 . S
O60 C63 1.254 . S
O61 C42 1.246 . S
O61 Zn49 2.034 . S
O62 Zn41 2.024 . S
O62 C42 1.249 . S
C63 O59 1.251 . S
C63 O60 1.254 . S
H64 C37 0.949 . S
H65 C39 0.950 . S
H66 C46 0.949 . S
H67 C48 0.950 . S
H68 C71 0.929 . S
H69 C74 0.929 1_655 S
H70 C76 0.930 . S
C71 H68 0.929 . S
C71 C72 1.398 . S
C71 C73 1.396 . S
C72 C71 1.398 . S
C72 C76 1.407 . S
C73 C71 1.396 . S
C73 C74 1.394 1_565 S
C74 H69 0.929 1_455 S
C74 C73 1.394 1_545 S
C74 C75 1.382 . S
C75 C74 1.382 . S
C75 C76 1.392 1_545 S
C75 N77 1.420 1_455 S
C76 H70 0.930 . S
C76 C72 1.407 . S
C76 C75 1.392 1_565 S
N77 C75 1.420 1_655 S
N77 C78 1.244 . S
C78 N77 1.244 . S
H79 C82 0.929 . S
H80 C85 0.929 . S
H81 C87 0.930 . S
C82 H79 0.929 . S
C82 C83 1.398 . S
C82 C84 1.396 . S
C83 C82 1.398 . S
C83 C87 1.407 . S
C84 C82 1.396 . S
C84 C85 1.394 1_665 S
C85 H80 0.929 . S
C85 C84 1.394 1_445 S
C85 C86 1.382 . S
C86 C85 1.382 . S
C86 C87 1.392 1_445 S
C86 N88 1.420 . S
C87 H81 0.930 . S
C87 C83 1.407 . S
C87 C86 1.392 1_665 S
N88 C86 1.420 . S
N88 C89 1.244 . S
C89 N88 1.244 . S
H90 C93 0.929 . S
H91 C96 0.929 . S
H92 C98 0.930 . S
C93 H90 0.929 . S
C93 C94 1.398 . S
C93 C95 1.396 . S
C94 C93 1.398 . S
C94 C98 1.407 1_556 S
C95 C93 1.396 . S
C95 C96 1.394 . S
C96 H91 0.929 . S
C96 C95 1.394 . S
C96 C97 1.382 . S
C97 C96 1.382 . S
C97 C98 1.392 1_556 S
C97 N99 1.420 1_556 S
C98 H92 0.930 . S
C98 C94 1.407 1_554 S
C98 C97 1.392 1_554 S
N99 C97 1.420 1_554 S
N99 C100 1.244 . S
C100 N99 1.244 . S
H101 C104 0.929 . S
H102 C107 0.929 . S
H103 C109 0.930 . S
C104 H101 0.929 . S
C104 C105 1.398 . S
C104 C106 1.396 . S
C105 C104 1.398 . S
C105 C109 1.407 1_554 S
C106 C104 1.396 . S
C106 C107 1.394 . S
C107 H102 0.929 . S
C107 C106 1.394 . S
C107 C108 1.382 . S
C108 C107 1.382 . S
C108 C109 1.392 1_554 S
C108 N110 1.420 1_554 S
C109 H103 0.930 . S
C109 C105 1.407 1_556 S
C109 C108 1.392 1_556 S
N110 C108 1.420 1_556 S
N110 C111 1.244 . S
C111 N110 1.244 . S
C105 C29 1.521 . S
C8 C100 1.437 . S
C0 C111 1.458 . S
C17 C94 1.522 . S
C63 C83 1.521 . S
C42 C78 1.437 . S
C89 C34 1.458 . S
C72 C51 1.522 . S
C4 C73 1.576 1_545 S
C13 C84 1.543 1_545 S
C95 C38 1.577 . S
C47 C106 1.543 . S
