# Generated by pormake.
# Topology tsx, (6,3)-cn, num edge types: 1
# Building blocks:
#     Node 0, Type 0, BuildingBlock: CIFDUS_clean_sbu_1, # of connection points: 6
#     Node 1, Type 0, BuildingBlock: CIFDUS_clean_sbu_1, # of connection points: 6
#     Node 2, Type 1, BuildingBlock: CUQRIR_clean_linker_1, # of connection points: 3
#     Node 3, Type 1, BuildingBlock: CUQRIR_clean_linker_1, # of connection points: 3
#     Node 4, Type 1, BuildingBlock: CUQRIR_clean_linker_1, # of connection points: 3
#     Node 5, Type 1, BuildingBlock: CUQRIR_clean_linker_1, # of connection points: 3
#     Edge 6, Type (0, 1), BuildingBlock: AJUNOK_clean_linker_0, # of connection points: 2
#     Edge 7, Type (0, 1), BuildingBlock: AJUNOK_clean_linker_0, # of connection points: 2
#     Edge 8, Type (0, 1), BuildingBlock: AJUNOK_clean_linker_0, # of connection points: 2
#     Edge 9, Type (0, 1), BuildingBlock: AJUNOK_clean_linker_0, # of connection points: 2
#     Edge 10, Type (0, 1), BuildingBlock: AJUNOK_clean_linker_0, # of connection points: 2
#     Edge 11, Type (0, 1), BuildingBlock: AJUNOK_clean_linker_0, # of connection points: 2
#     Edge 12, Type (0, 1), BuildingBlock: AJUNOK_clean_linker_0, # of connection points: 2
#     Edge 13, Type (0, 1), BuildingBlock: AJUNOK_clean_linker_0, # of connection points: 2
#     Edge 14, Type (0, 1), BuildingBlock: AJUNOK_clean_linker_0, # of connection points: 2
#     Edge 15, Type (0, 1), BuildingBlock: AJUNOK_clean_linker_0, # of connection points: 2
#     Edge 16, Type (0, 1), BuildingBlock: AJUNOK_clean_linker_0, # of connection points: 2
#     Edge 17, Type (0, 1), BuildingBlock: AJUNOK_clean_linker_0, # of connection points: 2
# Relax obj value: 0.160
# Max RMSD: 0.171
# Mean RMSD: 0.158
data_MOF--net-tsx--node1-CIFDUS_clean_sbu_1--node2-CUQRIR_clean_linker_1--edge1-AJUNOK_clean_linker_0
_symmetry_space_group_name_H-M    P1
_symmetry_Int_Tables_number       1
_symmetry_cell_setting            triclinic
loop_
_symmetry_equiv_pos_as_xyz
'x, y, z'
_cell_length_a     10.774767
_cell_length_b     14.111978
_cell_length_c     25.462905
_cell_angle_alpha  84.868847
_cell_angle_beta   91.901813
_cell_angle_gamma 92.946245
loop_
_atom_site_label
_atom_site_type_symbol
_atom_site_fract_x
_atom_site_fract_y
_atom_site_fract_z
_atom_type_partial_charge
O0 O 1.01649 0.19099 -0.04597 0.0
Mn1 Mn 0.14824 0.08601 -0.03825 0.0
O2 O 0.89488 0.13422 0.88774 0.0
Mn3 Mn 0.95087 1.01137 0.88601 0.0
O4 O 0.26517 0.97236 -0.04228 0.0
O5 O 0.28322 0.18923 -0.02259 0.0
Mn6 Mn 0.39952 0.10962 0.00168 0.0
O7 O 0.13361 0.05425 0.04306 0.0
O8 O 0.44931 0.04144 0.94851 0.0
O9 O 0.17915 0.1204 0.88187 0.0
O10 O 0.08288 1.00282 0.84244 0.0
O11 O 0.47632 0.22479 0.00539 0.0
O12 O 0.33802 0.04523 0.06354 0.0
C13 C 0.926 0.92053 -0.04317 0.0
C14 C 0.9283 0.19955 0.91809 0.0
C15 C 0.37166 0.97657 0.93692 0.0
C16 C 0.36976 0.25414 -0.01254 0.0
C17 C 0.22383 1.0355 0.07647 0.0
C18 C 0.16461 0.07078 0.84241 0.0
O19 O 1.01086 0.98801 -0.04978 0.0
O20 O 0.8591 0.9067 0.91502 0.0
O21 O 0.51739 0.68226 0.45026 0.0
Mn22 Mn 0.64942 0.57812 0.46126 0.0
O23 O 0.40184 0.62422 0.38259 0.0
Mn24 Mn 0.45857 0.50133 0.38233 0.0
O25 O 0.76277 0.46108 0.45948 0.0
O26 O 0.78138 0.68821 0.47872 0.0
Mn27 Mn 0.87549 0.58983 0.50225 0.0
O28 O 0.61972 0.54837 0.54236 0.0
O29 O 0.94276 0.53115 0.44941 0.0
O30 O 0.6895 0.60992 0.38121 0.0
O31 O 0.59493 0.49149 0.34142 0.0
O32 O 0.97195 0.6855 0.51938 0.0
O33 O 0.81669 0.51891 0.56226 0.0
C34 C 0.43025 0.41296 0.4542 0.0
C35 C 0.43107 0.68943 0.41355 0.0
C36 C 0.86869 0.46454 0.43853 0.0
C37 C 0.88223 0.73327 0.49714 0.0
C38 C 0.70462 0.52019 0.57607 0.0
C39 C 0.6775 0.55882 0.34203 0.0
O40 O 0.5149 0.48014 0.44713 0.0
O41 O 0.36515 0.39768 0.41204 0.0
C42 C 0.15571 0.09977 0.36767 0.0
N43 N 0.18707 1.03082 0.33757 0.0
N44 N 1.06693 0.15305 0.34295 0.0
C45 C 0.20898 0.11525 0.42156 0.0
C46 C 1.04691 0.11591 0.29627 0.0
N47 N 0.11917 0.04085 0.29292 0.0
C48 C 0.96731 0.15991 0.25185 0.0
H49 H 0.13263 0.10529 0.44955 0.0
H50 H 0.24749 0.18947 0.42236 0.0
H51 H 0.28324 0.06667 0.43449 0.0
H52 H 1.01986 0.17002 0.21485 0.0
H53 H 0.93488 0.2294 0.26106 0.0
H54 H 0.88466 0.11191 0.24524 0.0
C55 C 1.02234 0.17717 0.55551 0.0
N56 N 0.10818 0.20932 0.59052 0.0
N57 N 0.96399 0.09409 0.57397 0.0
C58 C 0.99708 0.22587 0.50213 0.0
C59 C 1.0139 0.07964 0.62324 0.0
N60 N 0.1038 0.14704 0.63249 0.0
C61 C 0.98119 0.99376 0.66049 0.0
H62 H 0.94497 0.28989 0.50735 0.0
H63 H 0.94009 0.17849 0.47751 0.0
H64 H 0.08489 0.25021 0.48266 0.0
H65 H 1.05089 0.93935 0.65769 0.0
H66 H 0.88812 0.96224 0.65004 0.0
H67 H 0.98185 1.01331 0.70176 0.0
C68 C 0.658 0.61016 0.86732 0.0
N69 N 0.68806 0.54069 0.83721 0.0
N70 N 0.56656 0.66191 0.84348 0.0
C71 C 0.72429 0.63225 0.91799 0.0
C72 C 0.54316 0.62323 0.79742 0.0
N73 N 0.61575 0.54831 0.79359 0.0
C74 C 0.45861 0.66552 0.75412 0.0
H75 H 0.74925 0.5661 0.94196 0.0
H76 H 0.66754 0.67514 0.94127 0.0
H77 H 0.81139 0.67478 0.90855 0.0
H78 H 0.50371 0.66902 0.71541 0.0
H79 H 0.43292 0.73819 0.76143 0.0
H80 H 0.37196 0.61993 0.75203 0.0
C81 C 0.51966 0.67509 0.06194 0.0
N82 N 0.61795 0.69825 0.09356 0.0
N83 N 0.46781 0.58777 0.07681 0.0
C84 C 0.47145 0.7389 0.01678 0.0
C85 C 0.53714 0.55954 0.12026 0.0
N86 N 0.62888 0.62586 0.13001 0.0
C87 C 0.51826 0.46473 0.15199 0.0
H88 H 0.38938 0.70388 -0.00199 0.0
H89 H 0.54526 0.75827 -0.01196 0.0
H90 H 0.44311 0.80593 0.03158 0.0
H91 H 0.42422 0.43208 0.1456 0.0
H92 H 0.5321 0.4725 0.19476 0.0
H93 H 0.5867 0.41521 0.14007 0.0
C94 C 0.44529 0.42003 -0.02788 0.0
C95 C 0.34851 0.35587 -0.01007 0.0
C96 C 0.47606 0.50181 -0.00218 0.0
C97 C 0.40949 0.52379 0.04116 0.0
H98 H 0.50853 0.40019 0.94325 0.0
H99 H 0.56073 0.54226 -0.01218 0.0
S100 S 0.12491 0.3951 0.09243 0.0
N101 N 0.1701 0.32997 0.04633 0.0
N102 N 0.22488 0.488 0.09262 0.0
C103 C 0.30021 0.46917 0.05354 0.0
C104 C 0.26984 0.38424 0.02803 0.0
C105 C 0.34731 0.80994 0.90872 0.0
C106 C 0.41188 0.89951 0.90623 0.0
C107 C 0.3977 0.73211 0.88752 0.0
C108 C 0.51111 0.74295 0.86158 0.0
H109 H 0.26204 0.79809 0.93025 0.0
H110 H 0.35032 0.66251 0.89292 0.0
S111 S 0.68552 0.96975 0.82408 0.0
N112 N 0.57619 0.9992 0.86274 0.0
N113 N 0.66745 0.85317 0.82177 0.0
C114 C 0.56726 0.83411 0.85263 0.0
C115 C 0.51786 0.91272 0.87492 0.0
C116 C 0.7846 0.91515 0.03075 0.0
C117 C 0.88473 0.87555 0.0078 0.0
C118 C 0.70366 0.85861 0.06401 0.0
C119 C 0.7205 0.76082 0.07531 0.0
H120 H 0.76164 0.98799 0.01889 0.0
H121 H 0.62198 0.88961 0.07759 0.0
S122 S 0.97292 0.62478 0.02748 0.0
N123 N 1.00044 0.73471 0.00095 0.0
N124 N 0.84917 0.62836 0.06375 0.0
C125 C 0.82615 0.72239 0.05604 0.0
C126 C 0.908 0.77983 0.02202 0.0
C127 C 0.74184 0.28767 0.88687 0.0
C128 C 0.86681 0.2909 0.90532 0.0
C129 C 0.68633 0.36886 0.86292 0.0
C130 C 0.75298 0.45686 0.85643 0.0
H131 H 0.68706 0.2209 0.88983 0.0
H132 H 0.58968 0.36328 0.84994 0.0
S133 S 0.08343 0.50425 0.8956 0.0
N134 N 1.05634 0.39 0.91418 0.0
N135 N 0.95128 0.54288 0.86898 0.0
C136 C 0.87773 0.4618 0.87466 0.0
C137 C 0.93454 0.37893 0.8994 0.0
C138 C 0.79505 0.89071 0.51161 0.0
C139 C 0.89559 0.8378 0.49879 0.0
C140 C 0.81637 0.97932 0.53294 0.0
C141 C 0.93828 1.01597 0.54204 0.0
H142 H 0.70095 0.86001 0.50964 0.0
H143 H 0.73841 1.01596 0.54572 0.0
S144 S 0.23103 0.90777 0.51261 0.0
N145 N 0.12001 0.83455 0.49157 0.0
N146 N 0.15859 0.9947 0.53572 0.0
C147 C 1.03792 0.96656 0.52621 0.0
C148 C 1.01674 0.87939 0.50309 0.0
C149 C 1.03592 0.39179 0.3925 0.0
C150 C 0.91178 0.38722 0.40891 0.0
C151 C 0.08445 0.31636 0.36906 0.0
C152 C 1.01131 0.23373 0.36138 0.0
H153 H 0.09764 0.45286 0.39917 0.0
H154 H 0.18066 0.32126 0.35784 0.0
S155 S 0.67864 0.18871 0.3912 0.0
N156 N 0.7136 0.29567 0.41077 0.0
N157 N 0.80743 0.1533 0.36717 0.0
C158 C 0.8855 0.2301 0.3741 0.0
C159 C 0.83512 0.30708 0.39787 0.0
C160 C 0.40095 0.27648 0.52132 0.0
C161 C 0.38508 0.3731 0.50562 0.0
C162 C 0.31829 0.22513 0.55607 0.0
C163 C 0.21555 0.26836 0.57473 0.0
H164 H 0.47004 0.23835 0.50285 0.0
H165 H 0.3263 0.14894 0.56363 0.0
S166 S 0.14419 0.52175 0.55101 0.0
N167 N 0.26935 0.51261 0.51644 0.0
N168 N 0.11077 0.41446 0.57992 0.0
C169 C 0.20514 0.36628 0.56276 0.0
C170 C 0.29075 0.41907 0.5285 0.0
C171 C 0.43263 0.86737 0.39555 0.0
C172 C 0.36572 0.77888 0.40157 0.0
C173 C 0.37527 0.94953 0.37303 0.0
C174 C 0.24922 0.94576 0.35648 0.0
H175 H 0.53082 0.87229 0.40617 0.0
H176 H 0.42929 1.01646 0.36847 0.0
S177 S 1.03217 0.73339 0.36619 0.0
N178 N 0.16577 0.69373 0.39043 0.0
N179 N 1.05886 0.84822 0.3494 0.0
C180 C 0.18144 0.85843 0.36312 0.0
C181 C 0.23931 0.77512 0.38556 0.0
C182 C 0.29464 1.0386 0.17063 0.0
C183 C 0.20026 1.01408 0.1337 0.0
C184 C 0.27143 1.0363 0.22447 0.0
C185 C 0.15357 1.00855 0.24364 0.0
H186 H 0.38509 0.06657 0.15765 0.0
H187 H 0.34268 0.06462 0.25058 0.0
S188 S 0.8849 0.914 0.16715 0.0
N189 N 0.99047 0.94524 0.12233 0.0
N190 N 0.94938 0.9383 0.22441 0.0
C191 C 1.06319 0.97305 0.20863 0.0
C192 C 0.08559 0.97701 0.15339 0.0
C193 C 0.25237 0.05172 0.75585 0.0
C194 C 0.20552 0.11184 0.79066 0.0
C195 C 0.23942 0.07314 0.70129 0.0
C196 C 0.17468 0.15275 0.68073 0.0
H197 H 0.2865 0.9832 0.77069 0.0
H198 H 0.2636 1.02053 0.67539 0.0
S199 S 1.0606 0.34221 0.75521 0.0
N200 N 0.11677 0.26397 0.80087 0.0
N201 N 0.08548 0.30043 0.69809 0.0
C202 C 0.14493 0.22012 0.71477 0.0
C203 C 0.16136 0.20006 0.77022 0.0
C204 C 0.78068 0.53005 0.66927 0.0
C205 C 0.6825 0.50597 0.63388 0.0
C206 C 0.76137 0.53373 0.7232 0.0
C207 C 0.6437 0.5122 0.74423 0.0
H208 H 0.8718 0.55285 0.65479 0.0
H209 H 0.83638 0.56121 0.74778 0.0
S210 S 0.36464 0.42144 0.67257 0.0
N211 N 0.46838 0.44513 0.6262 0.0
N212 N 0.43449 0.44776 0.72845 0.0
C213 C 0.54881 0.47725 0.7109 0.0
C214 C 0.56728 0.4758 0.65549 0.0
C215 C 0.6761 0.68272 0.26764 0.0
C216 C 0.7231 0.59682 0.29029 0.0
C217 C 0.66197 0.69965 0.21274 0.0
C218 C 0.69574 0.63161 0.17951 0.0
H219 H 0.63446 0.73063 0.2922 0.0
H220 H 0.60981 0.75973 0.1967 0.0
S221 S 0.86222 0.41324 0.219 0.0
N222 N 0.82962 0.45464 0.2754 0.0
N223 N 0.80979 0.49027 0.17185 0.0
C224 C 0.7641 0.55523 0.20136 0.0
C225 C 0.77538 0.53639 0.25716 0.0
loop_
_geom_bond_atom_site_label_1
_geom_bond_atom_site_label_2
_geom_bond_distance
_geom_bond_site_symmetry_2
_ccdc_geom_bond_type
O0 Mn1 2.163 1_654 S
O0 C14 1.243 1_554 S
Mn1 O0 2.163 1_456 S
Mn1 O4 2.160 1_545 S
Mn1 O5 2.221 1_556 S
Mn1 O7 2.163 1_556 S
Mn1 O9 2.160 . S
Mn1 O19 2.221 1_445 S
O2 Mn3 2.087 . S
O2 C14 1.256 . S
Mn3 O2 2.087 . S
Mn3 O10 2.089 . S
Mn3 O19 2.290 1_545 S
Mn3 O20 2.251 1_545 S
O4 Mn1 2.160 1_565 S
O4 C15 1.239 1_556 S
O5 Mn1 2.221 1_554 S
O5 Mn6 2.290 . S
O5 C16 1.278 . S
Mn6 O5 2.290 . S
Mn6 O8 2.089 1_545 S
Mn6 O11 2.251 . S
Mn6 O12 2.087 . S
O7 Mn1 2.163 1_554 S
O7 C17 1.244 . S
O8 Mn6 2.089 1_565 S
O8 C15 1.256 . S
O9 Mn1 2.160 . S
O9 C18 1.239 . S
O10 Mn3 2.089 . S
O10 C18 1.256 1_655 S
O11 Mn6 2.251 . S
O11 C16 1.241 . S
O12 Mn6 2.087 . S
O12 C17 1.256 . S
C13 O19 1.278 1_554 S
C13 O20 1.241 1_554 S
C14 O0 1.243 1_556 S
C14 O2 1.256 . S
C15 O4 1.239 1_554 S
C15 O8 1.256 . S
C16 O5 1.278 . S
C16 O11 1.241 . S
C17 O7 1.244 . S
C17 O12 1.256 . S
C18 O9 1.239 . S
C18 O10 1.256 1_455 S
O19 Mn1 2.221 1_665 S
O19 Mn3 2.290 1_565 S
O19 C13 1.278 1_556 S
O20 Mn3 2.251 1_565 S
O20 C13 1.241 1_556 S
O21 Mn22 2.163 . S
O21 C35 1.244 . S
Mn22 O21 2.163 . S
Mn22 O25 2.160 . S
Mn22 O26 2.221 . S
Mn22 O28 2.163 . S
Mn22 O30 2.160 . S
Mn22 O40 2.221 . S
O23 Mn24 2.087 . S
O23 C35 1.256 . S
Mn24 O23 2.087 . S
Mn24 O31 2.089 . S
Mn24 O40 2.290 . S
Mn24 O41 2.251 . S
O25 Mn22 2.160 . S
O25 C36 1.239 . S
O26 Mn22 2.221 . S
O26 Mn27 2.290 . S
O26 C37 1.278 . S
Mn27 O26 2.290 . S
Mn27 O29 2.089 . S
Mn27 O32 2.251 . S
Mn27 O33 2.087 . S
O28 Mn22 2.163 . S
O28 C38 1.244 . S
O29 Mn27 2.089 . S
O29 C36 1.256 . S
O30 Mn22 2.160 . S
O30 C39 1.239 . S
O31 Mn24 2.089 . S
O31 C39 1.256 . S
O32 Mn27 2.251 . S
O32 C37 1.241 . S
O33 Mn27 2.087 . S
O33 C38 1.256 . S
C34 O40 1.278 . S
C34 O41 1.241 . S
C35 O21 1.244 . S
C35 O23 1.256 . S
C36 O25 1.239 . S
C36 O29 1.256 . S
C37 O26 1.278 . S
C37 O32 1.241 . S
C38 O28 1.244 . S
C38 O33 1.256 . S
C39 O30 1.239 . S
C39 O31 1.256 . S
O40 Mn22 2.221 . S
O40 Mn24 2.290 . S
O40 C34 1.278 . S
O41 Mn24 2.251 . S
O41 C34 1.241 . S
C42 N43 1.317 1_545 S
C42 N44 1.348 1_455 S
C42 C45 1.485 1_545 S
N43 C42 1.317 1_565 S
N43 N47 1.370 1_565 S
N44 C42 1.348 1_655 S
N44 C46 1.346 . S
C45 C42 1.485 1_565 S
C45 H49 0.960 . S
C45 H50 0.961 1_565 S
C45 H51 0.960 . S
C46 N44 1.346 . S
C46 N47 1.307 1_655 S
C46 C48 1.486 . S
N47 N43 1.370 1_545 S
N47 C46 1.307 1_455 S
C48 C46 1.486 . S
C48 H52 0.960 . S
C48 H53 0.960 . S
C48 H54 0.959 . S
H49 C45 0.960 . S
H50 C45 0.961 1_545 S
H51 C45 0.960 . S
H52 C48 0.960 . S
H53 C48 0.960 . S
H54 C48 0.959 . S
C55 N56 1.317 . S
C55 N57 1.348 1_455 S
C55 C58 1.485 . S
N56 C55 1.317 . S
N56 N60 1.370 . S
N57 C55 1.348 1_655 S
N57 C59 1.346 . S
C58 C55 1.485 . S
C58 H62 0.960 1_455 S
C58 H63 0.961 . S
C58 H64 0.960 . S
C59 N57 1.346 . S
C59 N60 1.307 1_655 S
C59 C61 1.486 1_545 S
N60 N56 1.370 . S
N60 C59 1.307 1_455 S
C61 C59 1.486 1_565 S
C61 H65 0.960 . S
C61 H66 0.960 . S
C61 H67 0.959 1_565 S
H62 C58 0.960 1_655 S
H63 C58 0.961 . S
H64 C58 0.960 . S
H65 C61 0.960 . S
H66 C61 0.960 . S
H67 C61 0.959 1_545 S
C68 N69 1.317 . S
C68 N70 1.348 . S
C68 C71 1.485 1_556 S
N69 C68 1.317 . S
N69 N73 1.370 . S
N70 C68 1.348 . S
N70 C72 1.346 . S
C71 C68 1.485 1_554 S
C71 H75 0.960 . S
C71 H76 0.961 . S
C71 H77 0.960 . S
C72 N70 1.346 . S
C72 N73 1.307 . S
C72 C74 1.486 . S
N73 N69 1.370 . S
N73 C72 1.307 . S
C74 C72 1.486 . S
C74 H78 0.960 . S
C74 H79 0.960 . S
C74 H80 0.959 . S
H75 C71 0.960 . S
H76 C71 0.961 . S
H77 C71 0.960 . S
H78 C74 0.960 . S
H79 C74 0.960 . S
H80 C74 0.959 . S
C81 N82 1.317 . S
C81 N83 1.348 . S
C81 C84 1.485 1_554 S
N82 C81 1.317 . S
N82 N86 1.370 . S
N83 C81 1.348 . S
N83 C85 1.346 . S
C84 C81 1.485 1_556 S
C84 H88 0.960 . S
C84 H89 0.961 . S
C84 H90 0.960 . S
C85 N83 1.346 . S
C85 N86 1.307 . S
C85 C87 1.486 . S
N86 N82 1.370 . S
N86 C85 1.307 . S
C87 C85 1.486 . S
C87 H91 0.960 . S
C87 H92 0.960 . S
C87 H93 0.959 . S
H88 C84 0.960 . S
H89 C84 0.961 . S
H90 C84 0.960 . S
H91 C87 0.960 . S
H92 C87 0.960 . S
H93 C87 0.959 . S
C94 C95 1.371 . S
C94 C96 1.421 . S
C94 H98 0.926 1_554 S
C95 C94 1.371 . S
C95 C104 1.429 . S
C96 C94 1.421 . S
C96 C97 1.363 . S
C96 H99 0.929 . S
C97 C96 1.363 . S
C97 C103 1.428 . S
H98 C94 0.926 1_556 S
H99 C96 0.929 . S
S100 N101 1.613 . S
S100 N102 1.610 . S
N101 S100 1.613 . S
N101 C104 1.350 . S
N102 S100 1.610 . S
N102 C103 1.351 . S
C103 C97 1.428 . S
C103 N102 1.351 . S
C103 C104 1.434 . S
C104 C95 1.429 . S
C104 N101 1.350 . S
C104 C103 1.434 . S
C105 C106 1.369 . S
C105 C107 1.419 . S
C105 H109 0.930 . S
C106 C105 1.369 . S
C106 C115 1.429 1_554 S
C107 C105 1.419 . S
C107 C108 1.363 1_554 S
C107 H110 0.929 . S
C108 C107 1.363 1_556 S
C108 C114 1.428 . S
H109 C105 0.930 . S
H110 C107 0.929 . S
S111 N112 1.613 . S
S111 N113 1.610 . S
N112 S111 1.613 . S
N112 C115 1.350 . S
N113 S111 1.610 . S
N113 C114 1.351 . S
C114 C108 1.428 . S
C114 N113 1.351 . S
C114 C115 1.434 . S
C115 C106 1.429 1_556 S
C115 N112 1.350 . S
C115 C114 1.434 . S
C116 C117 1.369 . S
C116 C118 1.419 . S
C116 H120 0.930 . S
C117 C116 1.369 . S
C117 C126 1.429 . S
C118 C116 1.419 . S
C118 C119 1.363 . S
C118 H121 0.929 . S
C119 C118 1.363 . S
C119 C125 1.428 . S
H120 C116 0.930 . S
H121 C118 0.929 . S
S122 N123 1.613 . S
S122 N124 1.610 . S
N123 S122 1.613 . S
N123 C126 1.350 . S
N124 S122 1.610 . S
N124 C125 1.351 . S
C125 C119 1.428 . S
C125 N124 1.351 . S
C125 C126 1.434 . S
C126 C117 1.429 . S
C126 N123 1.350 . S
C126 C125 1.434 . S
C127 C128 1.369 . S
C127 C129 1.419 . S
C127 H131 0.930 . S
C128 C127 1.369 . S
C128 C137 1.429 1_556 S
C129 C127 1.419 . S
C129 C130 1.363 . S
C129 H132 0.929 . S
C130 C129 1.363 . S
C130 C136 1.428 1_556 S
H131 C127 0.930 . S
H132 C129 0.929 . S
S133 N134 1.613 . S
S133 N135 1.610 . S
N134 S133 1.613 . S
N134 C137 1.350 . S
N135 S133 1.610 . S
N135 C136 1.351 . S
C136 C130 1.428 1_554 S
C136 N135 1.351 . S
C136 C137 1.434 . S
C137 C128 1.429 1_554 S
C137 N134 1.350 . S
C137 C136 1.434 . S
C138 C139 1.369 . S
C138 C140 1.419 . S
C138 H142 0.930 . S
C139 C138 1.369 . S
C139 C148 1.429 . S
C140 C138 1.419 . S
C140 C141 1.363 . S
C140 H143 0.929 . S
C141 C140 1.363 . S
C141 C147 1.428 . S
H142 C138 0.930 . S
H143 C140 0.929 . S
S144 N145 1.613 . S
S144 N146 1.610 . S
N145 S144 1.613 . S
N145 C148 1.350 . S
N146 S144 1.610 . S
N146 C147 1.351 . S
C147 C141 1.428 . S
C147 N146 1.351 . S
C147 C148 1.434 . S
C148 C139 1.429 . S
C148 N145 1.350 . S
C148 C147 1.434 . S
C149 C150 1.369 . S
C149 C151 1.419 . S
C149 H153 0.930 . S
C150 C149 1.369 . S
C150 C159 1.429 . S
C151 C149 1.419 . S
C151 C152 1.363 . S
C151 H154 0.929 . S
C152 C151 1.363 . S
C152 C158 1.428 . S
H153 C149 0.930 . S
H154 C151 0.929 . S
S155 N156 1.613 . S
S155 N157 1.610 . S
N156 S155 1.613 . S
N156 C159 1.350 . S
N157 S155 1.610 . S
N157 C158 1.351 . S
C158 C152 1.428 . S
C158 N157 1.351 . S
C158 C159 1.434 . S
C159 C150 1.429 . S
C159 N156 1.350 . S
C159 C158 1.434 . S
C160 C161 1.369 . S
C160 C162 1.419 . S
C160 H164 0.930 . S
C161 C160 1.369 . S
C161 C170 1.429 . S
C162 C160 1.419 . S
C162 C163 1.363 . S
C162 H165 0.929 . S
C163 C162 1.363 . S
C163 C169 1.428 . S
H164 C160 0.930 . S
H165 C162 0.929 . S
S166 N167 1.613 . S
S166 N168 1.610 . S
N167 S166 1.613 . S
N167 C170 1.350 . S
N168 S166 1.610 . S
N168 C169 1.351 . S
C169 C163 1.428 . S
C169 N168 1.351 . S
C169 C170 1.434 . S
C170 C161 1.429 . S
C170 N167 1.350 . S
C170 C169 1.434 . S
C171 C172 1.369 . S
C171 C173 1.419 . S
C171 H175 0.930 . S
C172 C171 1.369 . S
C172 C181 1.429 . S
C173 C171 1.419 . S
C173 C174 1.363 . S
C173 H176 0.929 . S
C174 C173 1.363 . S
C174 C180 1.428 . S
H175 C171 0.930 . S
H176 C173 0.929 . S
S177 N178 1.613 . S
S177 N179 1.610 . S
N178 S177 1.613 . S
N178 C181 1.350 . S
N179 S177 1.610 . S
N179 C180 1.351 . S
C180 C174 1.428 . S
C180 N179 1.351 . S
C180 C181 1.434 . S
C181 C172 1.429 . S
C181 N178 1.350 . S
C181 C180 1.434 . S
C182 C183 1.369 1_545 S
C182 C184 1.419 . S
C182 H186 0.930 1_455 S
C183 C182 1.369 1_565 S
C183 C192 1.429 . S
C184 C182 1.419 . S
C184 C185 1.363 1_545 S
C184 H187 0.929 1_455 S
C185 C184 1.363 1_565 S
C185 C191 1.428 . S
H186 C182 0.930 1_655 S
H187 C184 0.929 1_655 S
S188 N189 1.613 . S
S188 N190 1.610 . S
N189 S188 1.613 . S
N189 C192 1.350 . S
N190 S188 1.610 . S
N190 C191 1.351 . S
C191 C185 1.428 . S
C191 N190 1.351 . S
C191 C192 1.434 . S
C192 C183 1.429 . S
C192 N189 1.350 . S
C192 C191 1.434 . S
C193 C194 1.369 . S
C193 C195 1.419 . S
C193 H197 0.930 1_545 S
C194 C193 1.369 . S
C194 C203 1.429 . S
C195 C193 1.419 . S
C195 C196 1.363 . S
C195 H198 0.929 1_445 S
C196 C195 1.363 . S
C196 C202 1.428 . S
H197 C193 0.930 1_565 S
H198 C195 0.929 1_665 S
S199 N200 1.613 . S
S199 N201 1.610 . S
N200 S199 1.613 . S
N200 C203 1.350 . S
N201 S199 1.610 . S
N201 C202 1.351 . S
C202 C196 1.428 . S
C202 N201 1.351 . S
C202 C203 1.434 . S
C203 C194 1.429 . S
C203 N200 1.350 . S
C203 C202 1.434 . S
C204 C205 1.369 . S
C204 C206 1.419 . S
C204 H208 0.930 . S
C205 C204 1.369 . S
C205 C214 1.429 . S
C206 C204 1.419 . S
C206 C207 1.363 . S
C206 H209 0.929 . S
C207 C206 1.363 . S
C207 C213 1.428 . S
H208 C204 0.930 . S
H209 C206 0.929 . S
S210 N211 1.613 . S
S210 N212 1.610 . S
N211 S210 1.613 . S
N211 C214 1.350 . S
N212 S210 1.610 . S
N212 C213 1.351 . S
C213 C207 1.428 . S
C213 N212 1.351 . S
C213 C214 1.434 . S
C214 C205 1.429 . S
C214 N211 1.350 . S
C214 C213 1.434 . S
C215 C216 1.369 . S
C215 C217 1.419 . S
C215 H219 0.930 . S
C216 C215 1.369 . S
C216 C225 1.429 . S
C217 C215 1.419 . S
C217 C218 1.363 . S
C217 H220 0.929 . S
C218 C217 1.363 . S
C218 C224 1.428 . S
H219 C215 0.930 . S
H220 C217 0.929 . S
S221 N222 1.613 . S
S221 N223 1.610 . S
N222 S221 1.613 . S
N222 C225 1.350 . S
N223 S221 1.610 . S
N223 C224 1.351 . S
C224 C218 1.428 . S
C224 N223 1.351 . S
C224 C225 1.434 . S
C225 C216 1.429 . S
C225 N222 1.350 . S
C225 C224 1.434 . S
C97 N83 1.437 . S
C95 C16 1.286 . S
C106 C15 1.497 . S
C108 N70 1.480 . S
C117 C13 1.306 . S
C119 N82 1.529 . S
C128 C14 1.422 . S
C130 N69 1.488 . S
C139 C37 1.271 . S
C141 N57 1.432 1_565 S
C150 C36 1.495 . S
C152 N44 1.483 . S
C163 N56 1.533 . S
C161 C34 1.292 . S
C174 N43 1.491 . S
C172 C35 1.412 . S
C183 C17 1.549 1_565 S
C185 N47 1.582 1_565 S
C194 C18 1.421 . S
C196 N60 1.456 . S
C207 N73 1.582 . S
C205 C38 1.550 . S
C216 C39 1.425 . S
C218 N86 1.456 . S
