# Generated by pormake.
# Topology anh, (6,3)-cn, num edge types: 1
# Building blocks:
#     Node 0, Type 0, BuildingBlock: VOLQOD_clean_sbu_1, # of connection points: 6
#     Node 1, Type 0, BuildingBlock: VOLQOD_clean_sbu_1, # of connection points: 6
#     Node 2, Type 0, BuildingBlock: VOLQOD_clean_sbu_1, # of connection points: 6
#     Node 3, Type 1, BuildingBlock: ESEHIV_clean_linker_0, # of connection points: 3
#     Node 4, Type 1, BuildingBlock: ESEHIV_clean_linker_0, # of connection points: 3
#     Node 5, Type 1, BuildingBlock: ESEHIV_clean_linker_0, # of connection points: 3
#     Node 6, Type 1, BuildingBlock: ESEHIV_clean_linker_0, # of connection points: 3
#     Node 7, Type 1, BuildingBlock: ESEHIV_clean_linker_0, # of connection points: 3
#     Node 8, Type 1, BuildingBlock: ESEHIV_clean_linker_0, # of connection points: 3
#     Edge 9, Type (0, 1), None
#     Edge 10, Type (0, 1), None
#     Edge 11, Type (0, 1), None
#     Edge 12, Type (0, 1), None
#     Edge 13, Type (0, 1), None
#     Edge 14, Type (0, 1), None
#     Edge 15, Type (0, 1), None
#     Edge 16, Type (0, 1), None
#     Edge 17, Type (0, 1), None
#     Edge 18, Type (0, 1), None
#     Edge 19, Type (0, 1), None
#     Edge 20, Type (0, 1), None
#     Edge 21, Type (0, 1), None
#     Edge 22, Type (0, 1), None
#     Edge 23, Type (0, 1), None
#     Edge 24, Type (0, 1), None
#     Edge 25, Type (0, 1), None
#     Edge 26, Type (0, 1), None
# Relax obj value: 0.166
# Max RMSD: 0.230
# Mean RMSD: 0.113
data_MOF--net-anh--node1-VOLQOD_clean_sbu_1--node2-ESEHIV_clean_linker_0--edge1-none
_symmetry_space_group_name_H-M    P1
_symmetry_Int_Tables_number       1
_symmetry_cell_setting            triclinic
loop_
_symmetry_equiv_pos_as_xyz
'x, y, z'
_cell_length_a     11.852227
_cell_length_b     11.626202
_cell_length_c     25.680934
_cell_angle_alpha  89.994501
_cell_angle_beta   89.849873
_cell_angle_gamma 121.71828
loop_
_atom_site_label
_atom_site_type_symbol
_atom_site_fract_x
_atom_site_fract_y
_atom_site_fract_z
_atom_type_partial_charge
O0 O 0.9301 0.5525 0.26968 0.0
Zn1 Zn 0.96032 0.62363 0.19608 0.0
O2 O -0.00265 0.51138 0.15375 0.0
Zn3 Zn 0.86378 0.39525 0.1065 0.0
Zn4 Zn 0.03377 0.39886 0.19608 0.0
Zn5 Zn 0.13163 0.6277 0.10643 0.0
O6 O 0.92791 0.4008 0.033 0.0
O7 O 0.06829 0.62304 0.03297 0.0
O8 O 0.79673 0.62215 0.16452 0.0
O9 O 0.75142 0.46836 0.10283 0.0
O10 O 0.74017 0.21322 0.13589 0.0
O11 O 0.85572 0.21928 0.20463 0.0
O12 O 0.19763 0.4004 0.16452 0.0
O13 O 0.13832 0.80312 0.20455 0.0
O14 O 0.24386 0.55428 0.10263 0.0
O15 O 0.25499 0.80934 0.13588 0.0
C16 C -0.00338 0.5111 0.29365 0.0
C17 C -0.00187 0.51203 0.00857 0.0
C18 C 0.74695 0.16424 0.1791 0.0
C19 C 0.7272 0.54944 0.12588 0.0
C20 C 0.26765 0.47307 0.12579 0.0
C21 C 0.24756 0.85809 0.17906 0.0
O22 O 0.06323 0.46969 0.2696 0.0
O23 O 0.45922 0.08078 0.36954 0.0
Zn24 Zn 0.38907 0.05045 0.44316 0.0
O25 O 0.49579 0.00898 0.48456 0.0
Zn26 Zn 0.61123 0.13896 0.53273 0.0
Zn27 Zn 0.60301 0.9685 0.44278 0.0
Zn28 Zn 0.38028 0.87831 0.53284 0.0
O29 O 0.6056 0.0664 0.60468 0.0
O30 O 0.38593 0.95024 0.60504 0.0
O31 O 0.39291 0.21427 0.47749 0.0
O32 O 0.53822 0.25082 0.54045 0.0
O33 O 0.78902 0.26566 0.50278 0.0
O34 O 0.78107 0.14591 0.43427 0.0
O35 O 0.6002 0.80516 0.47701 0.0
O36 O 0.21066 0.87348 0.43491 0.0
O37 O 0.45376 0.76666 0.54012 0.0
O38 O 0.20268 0.75213 0.50293 0.0
C39 C 0.49604 0.00965 0.34542 0.0
C40 C 0.49585 0.00837 0.62943 0.0
C41 C 0.83689 0.25682 0.45975 0.0
C42 C 0.45949 0.27757 0.51815 0.0
C43 C 0.53328 0.74098 0.51765 0.0
C44 C 0.15485 0.76198 0.46016 0.0
O45 O 0.5329 0.93839 0.36935 0.0
O46 O 0.38875 0.46316 0.70487 0.0
Zn47 Zn 0.34658 0.392 0.77847 0.0
O48 O 0.49897 0.51113 0.81999 0.0
Zn49 Zn 0.47849 0.6251 0.86682 0.0
Zn50 Zn 0.65141 0.63039 0.77814 0.0
Zn51 Zn 0.51931 0.39713 0.86679 0.0
O52 O 0.53568 0.62085 0.94008 0.0
O53 O 0.46135 0.40097 0.94014 0.0
O54 O 0.18035 0.39025 0.80961 0.0
O55 O 0.29038 0.5477 0.8703 0.0
O56 O 0.53591 0.80717 0.83834 0.0
O57 O 0.64969 0.80731 0.76984 0.0
O58 O 0.81775 0.63279 0.80929 0.0
O59 O 0.34744 0.21454 0.77025 0.0
O60 O 0.70746 0.47501 0.87013 0.0
O61 O 0.46226 0.21532 0.83823 0.0
C62 C 0.49914 0.51129 0.68078 0.0
C63 C 0.4984 0.51087 0.96433 0.0
C64 C 0.59346 0.85864 0.79536 0.0
C65 C 0.18345 0.46425 0.8475 0.0
C66 C 0.81454 0.55886 0.84726 0.0
C67 C 0.40394 0.16336 0.79556 0.0
O68 O 0.60959 0.55929 0.70456 0.0
H69 H 0.28441 0.90815 0.28299 0.0
H70 H 0.70847 0.11221 0.28295 0.0
H71 H 0.49756 0.01156 0.1372 0.0
C72 C 0.37662 0.95503 0.26116 0.0
C73 C 0.37482 0.95015 0.20645 0.0
C74 C 0.49641 0.01012 0.28834 0.0
C75 C 0.6166 0.06575 0.26113 0.0
C76 C 0.61925 0.07169 0.20644 0.0
C77 C 0.49724 0.01117 0.1794 0.0
H78 H 0.57592 0.72316 0.61758 0.0
H79 H 0.42105 0.29829 0.61841 0.0
H80 H 0.49574 0.50887 0.47188 0.0
C81 C 0.54498 0.63061 0.59623 0.0
C82 C 0.53839 0.62985 0.5415 0.0
C83 C 0.49883 0.51083 0.62378 0.0
C84 C 0.45153 0.39037 0.59671 0.0
C85 C 0.45596 0.38969 0.54194 0.0
C86 C 0.49663 0.50942 0.51409 0.0
H87 H 0.88783 0.60918 0.94559 0.0
H88 H 0.10926 0.41494 0.9459 0.0
H89 H -0.00061 0.51162 0.79948 0.0
C90 C 0.93985 0.57056 0.92396 0.0
C91 C 0.9314 0.56309 0.86923 0.0
C92 C -0.00139 0.51217 0.95138 0.0
C93 C 0.0576 0.45358 0.92415 0.0
C94 C 0.06663 0.46067 0.86942 0.0
C95 C -0.00082 0.5118 0.84167 0.0
H96 H 0.8873 0.2941 0.35591 0.0
H97 H 0.10513 0.72699 0.35632 0.0
H98 H -0.00436 0.50896 0.50192 0.0
C99 C 0.93673 0.38776 0.37781 0.0
C100 C 0.93134 0.38533 0.43252 0.0
C101 C -0.00383 0.5106 0.35073 0.0
C102 C 0.05542 0.63287 0.37805 0.0
C103 C 0.06044 0.63411 0.43276 0.0
C104 C -0.00422 0.50942 0.45971 0.0
H105 H 0.38809 0.10936 0.69215 0.0
H106 H 0.60495 0.90872 0.69173 0.0
H107 H 0.49943 0.01167 0.83779 0.0
C108 C 0.43303 0.06377 0.71393 0.0
C109 C 0.43772 0.07092 0.76859 0.0
C110 C 0.49625 0.00876 0.68661 0.0
C111 C 0.56068 0.95491 0.71368 0.0
C112 C 0.55834 0.94992 0.76838 0.0
C113 C 0.49854 0.01088 0.7956 0.0
H114 H 0.28931 0.42915 0.02674 0.0
H115 H 0.70667 0.59277 0.0267 0.0
H116 H 0.4971 0.51137 0.17307 0.0
C117 C 0.37977 0.46172 0.04845 0.0
C118 C 0.37893 0.4682 0.10314 0.0
C119 C 0.49801 0.51082 0.02124 0.0
C120 C 0.61594 0.56024 0.04842 0.0
C121 C 0.61615 0.55414 0.10313 0.0
C122 C 0.49737 0.51124 0.13088 0.0
loop_
_geom_bond_atom_site_label_1
_geom_bond_atom_site_label_2
_geom_bond_distance
_geom_bond_site_symmetry_2
_ccdc_geom_bond_type
O0 Zn1 1.953 . S
O0 C16 1.225 1_655 S
Zn1 O0 1.953 . S
Zn1 O2 1.949 1_655 S
Zn1 O8 1.919 . S
Zn1 O13 1.924 1_655 S
O2 Zn1 1.949 1_455 S
O2 Zn3 1.923 1_455 S
O2 Zn4 1.950 . S
O2 Zn5 1.945 . S
Zn3 O2 1.923 1_655 S
Zn3 O6 1.933 . S
Zn3 O9 1.941 . S
Zn3 O10 1.965 . S
Zn4 O2 1.950 . S
Zn4 O11 1.938 1_455 S
Zn4 O12 1.906 . S
Zn4 O22 1.953 . S
Zn5 O2 1.945 . S
Zn5 O7 1.932 . S
Zn5 O14 1.977 . S
Zn5 O15 1.910 . S
O6 Zn3 1.933 . S
O6 C17 1.226 1_655 S
O7 Zn5 1.932 . S
O7 C17 1.307 . S
O8 Zn1 1.919 . S
O8 C19 1.253 . S
O9 Zn3 1.941 . S
O9 C19 1.283 . S
O10 Zn3 1.965 . S
O10 C18 1.303 . S
O11 Zn4 1.938 1_655 S
O11 C18 1.247 . S
O12 Zn4 1.906 . S
O12 C20 1.304 . S
O13 Zn1 1.924 1_455 S
O13 C21 1.311 . S
O14 Zn5 1.977 . S
O14 C20 1.272 . S
O15 Zn5 1.910 . S
O15 C21 1.231 . S
C16 O0 1.225 1_455 S
C16 O22 1.298 . S
C17 O6 1.226 1_455 S
C17 O7 1.307 . S
C18 O10 1.303 . S
C18 O11 1.247 . S
C19 O8 1.253 . S
C19 O9 1.283 . S
C20 O12 1.304 . S
C20 O14 1.272 . S
C21 O13 1.311 . S
C21 O15 1.231 . S
O22 Zn4 1.953 . S
O22 C16 1.298 . S
O23 Zn24 1.953 . S
O23 C39 1.225 . S
Zn24 O23 1.953 . S
Zn24 O25 1.949 . S
Zn24 O31 1.919 . S
Zn24 O36 1.924 1_545 S
O25 Zn24 1.949 . S
O25 Zn26 1.923 . S
O25 Zn27 1.950 1_545 S
O25 Zn28 1.945 1_545 S
Zn26 O25 1.923 . S
Zn26 O29 1.933 . S
Zn26 O32 1.941 . S
Zn26 O33 1.965 . S
Zn27 O25 1.950 1_565 S
Zn27 O34 1.938 1_565 S
Zn27 O35 1.906 . S
Zn27 O45 1.953 . S
Zn28 O25 1.945 1_565 S
Zn28 O30 1.932 . S
Zn28 O37 1.977 . S
Zn28 O38 1.910 . S
O29 Zn26 1.933 . S
O29 C40 1.226 . S
O30 Zn28 1.932 . S
O30 C40 1.307 1_565 S
O31 Zn24 1.919 . S
O31 C42 1.253 . S
O32 Zn26 1.941 . S
O32 C42 1.283 . S
O33 Zn26 1.965 . S
O33 C41 1.303 . S
O34 Zn27 1.938 1_545 S
O34 C41 1.247 . S
O35 Zn27 1.906 . S
O35 C43 1.304 . S
O36 Zn24 1.924 1_565 S
O36 C44 1.311 . S
O37 Zn28 1.977 . S
O37 C43 1.272 . S
O38 Zn28 1.910 . S
O38 C44 1.231 . S
C39 O23 1.225 . S
C39 O45 1.298 1_545 S
C40 O29 1.226 . S
C40 O30 1.307 1_545 S
C41 O33 1.303 . S
C41 O34 1.247 . S
C42 O31 1.253 . S
C42 O32 1.283 . S
C43 O35 1.304 . S
C43 O37 1.272 . S
C44 O36 1.311 . S
C44 O38 1.231 . S
O45 Zn27 1.953 . S
O45 C39 1.298 1_565 S
O46 Zn47 1.953 . S
O46 C62 1.225 . S
Zn47 O46 1.953 . S
Zn47 O48 1.949 . S
Zn47 O54 1.919 . S
Zn47 O59 1.924 . S
O48 Zn47 1.949 . S
O48 Zn49 1.923 . S
O48 Zn50 1.950 . S
O48 Zn51 1.945 . S
Zn49 O48 1.923 . S
Zn49 O52 1.933 . S
Zn49 O55 1.941 . S
Zn49 O56 1.965 . S
Zn50 O48 1.950 . S
Zn50 O57 1.938 . S
Zn50 O58 1.906 . S
Zn50 O68 1.953 . S
Zn51 O48 1.945 . S
Zn51 O53 1.932 . S
Zn51 O60 1.977 . S
Zn51 O61 1.910 . S
O52 Zn49 1.933 . S
O52 C63 1.226 . S
O53 Zn51 1.932 . S
O53 C63 1.307 . S
O54 Zn47 1.919 . S
O54 C65 1.253 . S
O55 Zn49 1.941 . S
O55 C65 1.283 . S
O56 Zn49 1.965 . S
O56 C64 1.303 . S
O57 Zn50 1.938 . S
O57 C64 1.247 . S
O58 Zn50 1.906 . S
O58 C66 1.304 . S
O59 Zn47 1.924 . S
O59 C67 1.311 . S
O60 Zn51 1.977 . S
O60 C66 1.272 . S
O61 Zn51 1.910 . S
O61 C67 1.231 . S
C62 O46 1.225 . S
C62 O68 1.298 . S
C63 O52 1.226 . S
C63 O53 1.307 . S
C64 O56 1.303 . S
C64 O57 1.247 . S
C65 O54 1.253 . S
C65 O55 1.283 . S
C66 O58 1.304 . S
C66 O60 1.272 . S
C67 O59 1.311 . S
C67 O61 1.231 . S
O68 Zn50 1.953 . S
O68 C62 1.298 . S
H69 C72 0.931 . S
H70 C75 0.928 . S
H71 C77 0.930 . S
C72 H69 0.931 . S
C72 C73 1.413 . S
C72 C74 1.360 1_565 S
C73 C72 1.413 . S
C73 C77 1.429 1_565 S
C74 C72 1.360 1_545 S
C74 C75 1.372 . S
C75 H70 0.928 . S
C75 C74 1.372 . S
C75 C76 1.404 . S
C76 C75 1.404 . S
C76 C77 1.391 . S
C77 H71 0.930 . S
C77 C73 1.429 1_545 S
C77 C76 1.391 . S
H78 C81 0.931 . S
H79 C84 0.928 . S
H80 C86 0.930 . S
C81 H78 0.931 . S
C81 C82 1.413 . S
C81 C83 1.360 . S
C82 C81 1.413 . S
C82 C86 1.429 . S
C83 C81 1.360 . S
C83 C84 1.372 . S
C84 H79 0.928 . S
C84 C83 1.372 . S
C84 C85 1.404 . S
C85 C84 1.404 . S
C85 C86 1.391 . S
C86 H80 0.930 . S
C86 C82 1.429 . S
C86 C85 1.391 . S
H87 C90 0.931 . S
H88 C93 0.928 . S
H89 C95 0.930 . S
C90 H87 0.931 . S
C90 C91 1.413 . S
C90 C92 1.360 1_655 S
C91 C90 1.413 . S
C91 C95 1.429 1_655 S
C92 C90 1.360 1_455 S
C92 C93 1.372 . S
C93 H88 0.928 . S
C93 C92 1.372 . S
C93 C94 1.404 . S
C94 C93 1.404 . S
C94 C95 1.391 . S
C95 H89 0.930 . S
C95 C91 1.429 1_455 S
C95 C94 1.391 . S
H96 C99 0.931 . S
H97 C102 0.928 . S
H98 C104 0.930 . S
C99 H96 0.931 . S
C99 C100 1.413 . S
C99 C101 1.360 1_655 S
C100 C99 1.413 . S
C100 C104 1.429 1_655 S
C101 C99 1.360 1_455 S
C101 C102 1.372 . S
C102 H97 0.928 . S
C102 C101 1.372 . S
C102 C103 1.404 . S
C103 C102 1.404 . S
C103 C104 1.391 . S
C104 H98 0.930 . S
C104 C100 1.429 1_455 S
C104 C103 1.391 . S
H105 C108 0.931 . S
H106 C111 0.928 . S
H107 C113 0.930 . S
C108 H105 0.931 . S
C108 C109 1.413 . S
C108 C110 1.356 1_545 S
C109 C108 1.413 . S
C109 C113 1.429 1_545 S
C110 C108 1.356 1_565 S
C110 C111 1.376 . S
C111 H106 0.928 . S
C111 C110 1.376 . S
C111 C112 1.404 . S
C112 C111 1.404 . S
C112 C113 1.391 . S
C113 H107 0.930 . S
C113 C109 1.429 1_565 S
C113 C112 1.391 . S
H114 C117 0.931 . S
H115 C120 0.928 . S
H116 C122 0.930 . S
C117 H114 0.931 . S
C117 C118 1.413 . S
C117 C119 1.360 . S
C118 C117 1.413 . S
C118 C122 1.429 . S
C119 C117 1.360 . S
C119 C120 1.372 . S
C120 H115 0.928 . S
C120 C119 1.372 . S
C120 C121 1.404 . S
C121 C120 1.404 . S
C121 C122 1.391 . S
C122 H116 0.930 . S
C122 C118 1.429 . S
C122 C121 1.391 . S
C20 C118 1.509 . S
C41 C100 1.777 . S
C64 C112 1.851 . S
C19 C121 1.642 . S
C103 C44 1.727 . S
C109 C67 1.676 . S
C43 C82 1.540 . S
C66 C91 1.510 . S
C21 C73 1.726 . S
C85 C42 1.602 . S
C94 C65 1.647 . S
C18 C76 1.787 . S
C92 C17 1.477 1_556 S
C39 C74 1.472 . S
C62 C83 1.497 . S
C110 C40 1.455 1_565 S
C119 C63 1.477 1_554 S
C16 C101 1.472 . S
