# Generated by pormake.
# Topology pts, (4,4)-cn, num edge types: 1
# Building blocks:
#     Node 0, Type 0, BuildingBlock: GIZVER_clean_linker_0, # of connection points: 4
#     Node 1, Type 0, BuildingBlock: GIZVER_clean_linker_0, # of connection points: 4
#     Node 2, Type 1, BuildingBlock: AZAVOO_clean_sbu_0, # of connection points: 4
#     Node 3, Type 1, BuildingBlock: AZAVOO_clean_sbu_0, # of connection points: 4
#     Edge 4, Type (0, 1), BuildingBlock: EYOCIG_clean_linker_4, # of connection points: 2
#     Edge 5, Type (0, 1), BuildingBlock: EYOCIG_clean_linker_4, # of connection points: 2
#     Edge 6, Type (0, 1), BuildingBlock: EYOCIG_clean_linker_4, # of connection points: 2
#     Edge 7, Type (0, 1), BuildingBlock: EYOCIG_clean_linker_4, # of connection points: 2
#     Edge 8, Type (0, 1), BuildingBlock: EYOCIG_clean_linker_4, # of connection points: 2
#     Edge 9, Type (0, 1), BuildingBlock: EYOCIG_clean_linker_4, # of connection points: 2
#     Edge 10, Type (0, 1), BuildingBlock: EYOCIG_clean_linker_4, # of connection points: 2
#     Edge 11, Type (0, 1), BuildingBlock: EYOCIG_clean_linker_4, # of connection points: 2
# Relax obj value: 0.014
# Max RMSD: 0.076
# Mean RMSD: 0.070
data_MOF--net-pts--node1-AZAVOO_clean_sbu_0--node2-GIZVER_clean_linker_0--edge1-EYOCIG_clean_linker_4
_symmetry_space_group_name_H-M    P1
_symmetry_Int_Tables_number       1
_symmetry_cell_setting            triclinic
loop_
_symmetry_equiv_pos_as_xyz
'x, y, z'
_cell_length_a     20.900703
_cell_length_b     21.303945
_cell_length_c     27.34676
_cell_angle_alpha  90.236807
_cell_angle_beta   97.157951
_cell_angle_gamma 89.929029
loop_
_atom_site_label
_atom_site_type_symbol
_atom_site_fract_x
_atom_site_fract_y
_atom_site_fract_z
_atom_type_partial_charge
H0 H 0.59591 0.06612 0.07526 0.0
H1 H 0.57344 0.06737 0.91634 0.0
H2 H 0.74637 0.99369 -0.00283 0.0
H3 H 0.52019 0.13886 0.02772 0.0
H4 H 0.51146 0.1392 0.96216 0.0
H5 H 0.45978 0.06509 0.07269 0.0
H6 H 0.28643 0.99257 -0.0087 0.0
H7 H 0.43555 0.06781 0.91375 0.0
C8 C 0.61306 0.05318 0.04078 0.0
C9 C 0.67429 0.02598 0.04116 0.0
C10 C 0.57599 0.06799 -0.00436 0.0
C11 C 0.60033 0.05383 0.95121 0.0
C12 C 0.6617 0.02728 0.95199 0.0
C13 C 0.69793 0.01238 -0.00321 0.0
C14 C 0.51612 0.10764 -0.00526 0.0
C15 C 0.45598 0.06834 -0.00663 0.0
C16 C 0.43252 0.0524 0.03768 0.0
C17 C 0.37136 0.02545 0.03673 0.0
C18 C 0.33472 0.01152 -0.00822 0.0
C19 C 0.35775 0.02641 0.94748 0.0
C20 C 0.41878 0.05403 0.94809 0.0
H21 H 0.08086 0.58283 0.42175 0.0
H22 H 0.09003 0.58673 0.58021 0.0
H23 H 0.00409 0.74015 0.49415 0.0
H24 H 0.16048 0.51868 0.47487 0.0
H25 H 0.16076 0.51761 0.5401 0.0
H26 H 0.08686 0.45237 0.421 0.0
H27 H 0.00313 0.29747 0.49039 0.0
H28 H 0.08301 0.45265 0.57842 0.0
C29 C 0.06851 0.60481 0.45516 0.0
C30 C 0.0382 0.66357 0.45277 0.0
C31 C 0.08739 0.57667 0.5012 0.0
C32 C 0.07399 0.60714 0.54451 0.0
C33 C 0.0438 0.66587 0.54177 0.0
C34 C 0.02533 0.69353 0.49598 0.0
C35 C 0.12849 0.51849 0.50451 0.0
C36 C 0.08758 0.4602 0.5 0.0
C37 C 0.07181 0.43125 0.45373 0.0
C38 C 0.04134 0.37267 0.45038 0.0
C39 C 0.02447 0.34401 0.49285 0.0
C40 C 0.03903 0.3728 0.53892 0.0
C41 C 0.06968 0.43136 0.54252 0.0
Mg42 Mg 0.06785 0.99871 0.26554 0.0
O43 O 0.96866 -0.00064 0.21778 0.0
O44 O 0.89512 0.99375 0.27093 0.0
Mg45 Mg 0.94561 0.98778 0.34961 0.0
C46 C 0.91031 0.9975 0.2273 0.0
C47 C 0.18126 0.00572 0.21304 0.0
O48 O 0.19893 0.97783 0.25526 0.0
O49 O 0.05227 0.1004 0.28705 0.0
O50 O 0.98205 0.08919 0.34204 0.0
O51 O 0.07222 0.89488 0.26225 0.0
O52 O 0.02957 0.94868 0.31972 0.0
C53 C 0.01784 0.12305 0.31821 0.0
C54 C 0.04216 0.89534 0.30075 0.0
O55 O 0.12366 0.02534 0.20308 0.0
Mg56 Mg 0.96389 0.00291 0.72208 0.0
O57 O 0.06358 0.00405 0.76953 0.0
O58 O 0.13694 0.99636 0.71638 0.0
Mg59 Mg 0.08552 0.98923 0.63783 0.0
C60 C 0.12193 0.0013 0.76002 0.0
C61 C 0.85266 0.00884 0.77613 0.0
O62 O 0.83568 0.97786 0.735 0.0
O63 O 0.97875 0.10418 0.69939 0.0
O64 O 0.04897 0.09095 0.64457 0.0
O65 O 0.95947 0.89909 0.72629 0.0
O66 O 0.00139 0.95139 0.66802 0.0
C67 C 0.01292 0.12569 0.66778 0.0
C68 C 0.98897 0.89857 0.68751 0.0
O69 O 0.90931 0.03114 0.78484 0.0
C70 C 0.30951 0.01515 0.11442 0.0
C71 C 0.34115 0.02105 0.08091 0.0
C72 C 0.26572 0.01224 0.14945 0.0
C73 C 0.22618 0.0099 0.17779 0.0
C74 C 0.01965 0.29868 0.61239 0.0
C75 C 0.03033 0.33711 0.58221 0.0
C76 C 0.01188 0.24366 0.6396 0.0
C77 C 0.00887 0.1911 0.65532 0.0
C78 C 0.7592 0.01087 0.11996 0.0
C79 C 0.71734 0.01912 0.08614 0.0
C80 C 0.81272 0.00449 0.15647 0.0
C81 C 0.85869 0.0014 0.18767 0.0
C82 C 0.02925 0.74027 0.61636 0.0
C83 C 0.03805 0.70216 0.58534 0.0
C84 C 0.01755 0.79249 0.6456 0.0
C85 C 0.0041 0.84043 0.66532 0.0
C86 C 0.27256 0.01321 0.86834 0.0
C87 C 0.31428 0.02057 0.9025 0.0
C88 C 0.21939 0.00769 0.83127 0.0
C89 C 0.17366 0.0049 0.79974 0.0
C90 C 0.02766 0.29783 0.37316 0.0
C91 C 0.03584 0.33668 0.40544 0.0
C92 C 0.02348 0.24183 0.34532 0.0
C93 C 0.02347 0.18841 0.33069 0.0
C94 C 0.72449 0.01879 0.87469 0.0
C95 C 0.69239 0.02392 0.908 0.0
C96 C 0.76856 0.01617 0.83988 0.0
C97 C 0.8081 0.01367 0.81157 0.0
C98 C 0.01962 0.73617 0.37487 0.0
C99 C 0.02953 0.6987 0.40773 0.0
C100 C 0.01928 0.78919 0.34432 0.0
C101 C 0.02964 0.83779 0.32453 0.0
loop_
_geom_bond_atom_site_label_1
_geom_bond_atom_site_label_2
_geom_bond_distance
_geom_bond_site_symmetry_2
_ccdc_geom_bond_type
H0 C8 0.930 . S
H1 C11 0.930 . S
H2 C13 0.930 . S
H3 C14 0.970 . S
H4 C14 0.970 1_556 S
H5 C16 0.930 . S
H6 C18 0.929 . S
H7 C20 0.930 . S
C8 H0 0.930 . S
C8 C9 1.382 . S
C8 C10 1.426 . S
C9 C8 1.382 . S
C9 C13 1.389 1_545 S
C10 C8 1.426 . S
C10 C11 1.375 1_554 S
C10 C14 1.532 . S
C11 H1 0.930 . S
C11 C10 1.375 1_556 S
C11 C12 1.416 . S
C12 C11 1.416 . S
C12 C13 1.371 1_546 S
C13 H2 0.930 . S
C13 C9 1.389 1_565 S
C13 C12 1.371 1_564 S
C14 H3 0.970 . S
C14 H4 0.970 1_554 S
C14 C10 1.532 . S
C14 C15 1.499 . S
C15 C14 1.499 . S
C15 C16 1.370 . S
C15 C20 1.415 1_554 S
C16 H5 0.930 . S
C16 C15 1.370 . S
C16 C17 1.407 . S
C17 C16 1.407 . S
C17 C18 1.351 1_544 S
C18 H6 0.929 . S
C18 C17 1.351 1_566 S
C18 C19 1.408 1_565 S
C19 C18 1.408 1_545 S
C19 C20 1.387 . S
C20 H7 0.930 . S
C20 C15 1.415 1_556 S
C20 C19 1.387 . S
H21 C29 0.930 . S
H22 C32 0.930 . S
H23 C34 0.930 1_655 S
H24 C35 0.970 . S
H25 C35 0.970 . S
H26 C37 0.930 . S
H27 C39 0.930 1_655 S
H28 C41 0.930 . S
C29 H21 0.930 . S
C29 C30 1.382 . S
C29 C31 1.426 . S
C30 C29 1.382 . S
C30 C34 1.389 . S
C31 C29 1.426 . S
C31 C32 1.375 . S
C31 C35 1.532 . S
C32 H22 0.930 . S
C32 C31 1.375 . S
C32 C33 1.416 . S
C33 C32 1.416 . S
C33 C34 1.371 . S
C34 H23 0.930 1_455 S
C34 C30 1.389 . S
C34 C33 1.371 . S
C35 H24 0.970 . S
C35 H25 0.970 . S
C35 C31 1.532 . S
C35 C36 1.499 . S
C36 C35 1.499 . S
C36 C37 1.370 . S
C36 C41 1.415 . S
C37 H26 0.930 . S
C37 C36 1.370 . S
C37 C38 1.407 . S
C38 C37 1.407 . S
C38 C39 1.365 . S
C39 H27 0.930 1_455 S
C39 C38 1.365 . S
C39 C40 1.393 . S
C40 C39 1.393 . S
C40 C41 1.387 . S
C41 H28 0.930 . S
C41 C36 1.415 . S
C41 C40 1.387 . S
Mg42 O43 2.028 1_455 S
Mg42 O49 1.986 . S
Mg42 O51 2.114 1_545 S
Mg42 O52 2.251 1_545 S
Mg42 O55 2.010 . S
O43 Mg42 2.028 1_655 S
O43 C46 1.250 . S
O44 Mg45 2.028 . S
O44 C46 1.248 . S
Mg45 O44 2.028 . S
Mg45 O50 2.032 . S
Mg45 O52 2.079 1_645 S
C46 O43 1.250 . S
C46 O44 1.248 . S
C47 O48 1.264 . S
C47 O55 1.249 . S
O48 C47 1.264 . S
O49 Mg42 1.986 . S
O49 C53 1.246 . S
O50 Mg45 2.032 . S
O50 C53 1.259 1_655 S
O51 Mg42 2.114 1_565 S
O51 C54 1.252 . S
O52 Mg42 2.251 1_565 S
O52 Mg45 2.079 1_465 S
O52 C54 1.273 . S
C53 O49 1.246 . S
C53 O50 1.259 1_455 S
C54 O51 1.252 . S
C54 O52 1.273 . S
O55 Mg42 2.010 . S
O55 C47 1.249 . S
Mg56 O57 2.028 1_655 S
Mg56 O63 1.986 . S
Mg56 O65 2.114 1_545 S
Mg56 O66 2.251 1_645 S
Mg56 O69 2.010 . S
O57 Mg56 2.028 1_455 S
O57 C60 1.250 . S
O58 Mg59 2.028 . S
O58 C60 1.248 . S
Mg59 O58 2.028 . S
Mg59 O64 2.032 . S
Mg59 O66 2.079 1_545 S
C60 O57 1.250 . S
C60 O58 1.248 . S
C61 O62 1.264 . S
C61 O69 1.249 . S
O62 C61 1.264 . S
O63 Mg56 1.986 . S
O63 C67 1.246 1_655 S
O64 Mg59 2.032 . S
O64 C67 1.259 . S
O65 Mg56 2.114 1_565 S
O65 C68 1.252 1_655 S
O66 Mg56 2.251 1_465 S
O66 Mg59 2.079 1_565 S
O66 C68 1.273 . S
C67 O63 1.246 1_455 S
C67 O64 1.259 . S
C68 O65 1.252 1_455 S
C68 O66 1.273 . S
O69 Mg56 2.010 . S
O69 C61 1.249 . S
C70 C71 1.170 1_545 S
C70 C72 1.380 . S
C71 C70 1.170 1_565 S
C72 C70 1.380 . S
C72 C73 1.170 . S
C73 C72 1.170 . S
C74 C75 1.170 . S
C74 C76 1.380 . S
C75 C74 1.170 . S
C76 C74 1.380 . S
C76 C77 1.170 . S
C77 C76 1.170 . S
C78 C79 1.170 . S
C78 C80 1.380 . S
C79 C78 1.170 . S
C80 C78 1.380 . S
C80 C81 1.170 . S
C81 C80 1.170 . S
C82 C83 1.170 . S
C82 C84 1.380 . S
C83 C82 1.170 . S
C84 C82 1.380 . S
C84 C85 1.170 . S
C85 C84 1.170 . S
C86 C87 1.170 . S
C86 C88 1.380 . S
C87 C86 1.170 . S
C88 C86 1.380 . S
C88 C89 1.170 . S
C89 C88 1.170 . S
C90 C91 1.170 . S
C90 C92 1.380 . S
C91 C90 1.170 . S
C92 C90 1.380 . S
C92 C93 1.170 . S
C93 C92 1.170 . S
C94 C95 1.170 . S
C94 C96 1.380 . S
C95 C94 1.170 . S
C96 C94 1.380 . S
C96 C97 1.170 . S
C97 C96 1.170 . S
C98 C99 1.170 . S
C98 C100 1.380 . S
C99 C98 1.170 . S
C100 C98 1.380 . S
C100 C101 1.170 . S
C101 C100 1.170 . S
C73 C47 1.246 . S
C71 C17 1.481 1_565 S
C77 C67 1.507 . S
C75 C40 1.449 . S
C81 C46 1.470 . S
C79 C9 1.488 . S
C85 C68 1.541 . S
C83 C33 1.421 . S
C89 C60 1.498 . S
C87 C19 1.448 . S
C93 C53 1.530 . S
C91 C38 1.425 . S
C97 C61 1.284 . S
C95 C12 1.415 . S
C99 C30 1.492 . S
C101 C54 1.544 . S
