# Generated by pormake.
# Topology rtl, (3,6)-cn, num edge types: 1
# Building blocks:
#     Node 0, Type 0, BuildingBlock: CUQRIR_clean_linker_1, # of connection points: 3
#     Node 1, Type 0, BuildingBlock: CUQRIR_clean_linker_1, # of connection points: 3
#     Node 2, Type 0, BuildingBlock: CUQRIR_clean_linker_1, # of connection points: 3
#     Node 3, Type 0, BuildingBlock: CUQRIR_clean_linker_1, # of connection points: 3
#     Node 4, Type 1, BuildingBlock: VOLQOD_clean_sbu_1, # of connection points: 6
#     Node 5, Type 1, BuildingBlock: VOLQOD_clean_sbu_1, # of connection points: 6
#     Edge 6, Type (0, 1), BuildingBlock: OJICUG_clean_linker_0, # of connection points: 2
#     Edge 7, Type (0, 1), BuildingBlock: OJICUG_clean_linker_0, # of connection points: 2
#     Edge 8, Type (0, 1), BuildingBlock: OJICUG_clean_linker_0, # of connection points: 2
#     Edge 9, Type (0, 1), BuildingBlock: OJICUG_clean_linker_0, # of connection points: 2
#     Edge 10, Type (0, 1), BuildingBlock: OJICUG_clean_linker_0, # of connection points: 2
#     Edge 11, Type (0, 1), BuildingBlock: OJICUG_clean_linker_0, # of connection points: 2
#     Edge 12, Type (0, 1), BuildingBlock: OJICUG_clean_linker_0, # of connection points: 2
#     Edge 13, Type (0, 1), BuildingBlock: OJICUG_clean_linker_0, # of connection points: 2
#     Edge 14, Type (0, 1), BuildingBlock: OJICUG_clean_linker_0, # of connection points: 2
#     Edge 15, Type (0, 1), BuildingBlock: OJICUG_clean_linker_0, # of connection points: 2
#     Edge 16, Type (0, 1), BuildingBlock: OJICUG_clean_linker_0, # of connection points: 2
#     Edge 17, Type (0, 1), BuildingBlock: OJICUG_clean_linker_0, # of connection points: 2
# Relax obj value: 0.040
# Max RMSD: 0.143
# Mean RMSD: 0.100
data_MOF--net-rtl--node1-VOLQOD_clean_sbu_1--node2-CUQRIR_clean_linker_1--edge1-OJICUG_clean_linker_0
_symmetry_space_group_name_H-M    P1
_symmetry_Int_Tables_number       1
_symmetry_cell_setting            triclinic
loop_
_symmetry_equiv_pos_as_xyz
'x, y, z'
_cell_length_a     26.049757
_cell_length_b     26.300057
_cell_length_c     14.070127
_cell_angle_alpha  90.130119
_cell_angle_beta   90.37229
_cell_angle_gamma 89.994499
loop_
_atom_site_label
_atom_site_type_symbol
_atom_site_fract_x
_atom_site_fract_y
_atom_site_fract_z
_atom_type_partial_charge
C0 C 0.22398 0.77734 0.93891 0.0
N1 N 0.18841 0.81167 0.96662 0.0
N2 N 0.24427 0.75284 0.01514 0.0
C3 C 0.24096 0.77014 0.83775 0.0
C4 C 0.2195 0.77368 0.09033 0.0
N5 N 0.18579 0.80957 0.06074 0.0
C6 C 0.22719 0.75805 0.19231 0.0
H7 H 0.21688 0.74036 0.80368 0.0
H8 H 0.28173 0.75806 0.83481 0.0
H9 H 0.23612 0.80583 0.79674 0.0
H10 H 0.25883 0.78094 0.22365 0.0
H11 H 0.23764 0.71724 0.19714 0.0
H12 H 0.19231 0.7649 0.23511 0.0
C13 C 0.70797 0.72445 0.59221 0.0
N14 N 0.67444 0.68858 0.56203 0.0
N15 N 0.73462 0.74339 0.51806 0.0
C16 C 0.71683 0.73817 0.69477 0.0
C17 C 0.71634 0.71758 0.44179 0.0
N18 N 0.67984 0.68399 0.46855 0.0
C19 C 0.73293 0.72665 0.34108 0.0
H20 H 0.67941 0.74423 0.73032 0.0
H21 H 0.741 0.7726 0.70288 0.0
H22 H 0.73621 0.70593 0.73095 0.0
H23 H 0.7646 0.70005 0.32379 0.0
H24 H 0.74719 0.76608 0.332 0.0
H25 H 0.70076 0.71966 0.29065 0.0
C26 C 0.77241 0.21584 0.08383 0.0
N27 N 0.80896 0.18234 0.05657 0.0
N28 N 0.75493 0.24255 1.00823 0.0
C29 C 0.75574 0.22462 0.18469 0.0
C30 C 0.78208 0.22427 0.93403 0.0
N31 N 0.81527 0.18795 0.96353 0.0
C32 C 0.77494 0.24095 0.83264 0.0
H33 H 0.72406 0.19799 0.20146 0.0
H34 H 0.74153 0.26404 0.19455 0.0
H35 H 0.78787 0.21751 0.23508 0.0
H36 H 0.79816 0.27568 0.82071 0.0
H37 H 0.73411 0.25049 0.81846 0.0
H38 H 0.78772 0.21129 0.78187 0.0
C39 C 0.27046 0.27381 0.43215 0.0
N40 N 0.30425 0.30969 0.46179 0.0
N41 N 0.24593 0.2529 0.50738 0.0
C42 C 0.26248 0.25824 0.33009 0.0
C43 C 0.26644 0.27735 0.58366 0.0
N44 N 0.30194 0.31169 0.55596 0.0
C45 C 0.24973 0.27012 0.68491 0.0
H46 H 0.2307 0.2811 0.29934 0.0
H47 H 0.25209 0.21742 0.32494 0.0
H48 H 0.29721 0.26519 0.28699 0.0
H49 H 0.27391 0.24034 0.7185 0.0
H50 H 0.20897 0.25804 0.68811 0.0
H51 H 0.25467 0.30581 0.72621 0.0
O52 O 0.88049 0.94115 0.51851 0.0
Zn53 Zn 0.92076 0.00624 0.51409 0.0
O54 O -0.00519 -0.00641 0.51169 0.0
Zn55 Zn 0.02755 0.02416 0.62407 0.0
Zn56 Zn 0.00643 0.92 0.51074 0.0
Zn57 Zn 0.02438 0.02409 0.39752 0.0
O58 O 0.08196 0.07486 0.58757 0.0
O59 O 0.07501 0.07944 0.43034 0.0
O60 O 0.90139 0.04689 0.62985 0.0
O61 O 0.9755 0.06151 0.70435 0.0
O62 O 0.06163 0.97072 0.70519 0.0
O63 O 0.04732 0.89865 0.62667 0.0
O64 O 0.04506 0.89865 0.39331 0.0
O65 O 0.89761 0.04436 0.39683 0.0
O66 O 0.06118 0.9713 0.31866 0.0
O67 O 0.9696 0.05606 0.31603 0.0
C68 C 0.89305 0.89441 0.51617 0.0
C69 C 0.09511 0.09407 0.50842 0.0
C70 C 0.06638 0.92269 0.69736 0.0
C71 C 0.92693 0.06645 0.69823 0.0
C72 C 0.06493 0.92311 0.32468 0.0
C73 C 0.92127 0.06136 0.32455 0.0
O74 O 0.9399 0.88086 0.5119 0.0
O75 O 0.6099 0.44105 1.00578 0.0
Zn76 Zn 0.5696 0.50621 0.0104 0.0
O77 O 0.4955 0.49358 0.01232 0.0
Zn78 Zn 0.46303 0.52395 0.89981 0.0
Zn79 Zn 0.48379 0.42002 0.01288 0.0
Zn80 Zn 0.46561 0.52423 0.12636 0.0
O81 O 0.40859 0.57476 0.9359 0.0
O82 O 0.41492 0.57942 0.09323 0.0
O83 O 0.58919 0.54687 0.89509 0.0
O84 O 0.51523 0.56105 0.81999 0.0
O85 O 0.42906 0.47049 0.81834 0.0
O86 O 0.44318 0.39848 0.89653 0.0
O87 O 0.44492 0.39883 0.12989 0.0
O88 O 0.59246 0.54456 0.12798 0.0
O89 O 0.42879 0.47151 0.20506 0.0
O90 O 0.52021 0.55659 0.20797 0.0
C91 C 0.59719 0.39436 1.00822 0.0
C92 C 0.39512 0.594 0.01498 0.0
C93 C 0.42427 0.42248 0.82586 0.0
C94 C 0.56376 0.5662 0.82651 0.0
C95 C 0.42502 0.42331 0.19866 0.0
C96 C 0.56857 0.56187 0.1999 0.0
O97 O 0.55031 0.38093 0.0124 0.0
C98 C 0.21318 0.17135 0.56909 0.0
C99 C 0.20817 0.21281 0.50695 0.0
H100 H 0.18063 0.10163 0.61951 0.0
C101 C 0.16584 0.21466 0.44472 0.0
H102 H 0.24598 0.1685 0.61634 0.0
C103 C 0.12958 0.17548 0.44381 0.0
C104 C 0.13415 0.1346 0.50732 0.0
H105 H 0.16057 0.24666 0.39747 0.0
H106 H 0.09728 0.17775 0.39509 0.0
C107 C 0.17606 0.13301 0.57041 0.0
C108 C 0.32419 0.71468 0.07838 0.0
C109 C 0.28209 0.7128 0.01561 0.0
H110 H 0.39254 0.67778 0.12873 0.0
C111 C 0.27733 0.67132 0.95311 0.0
H112 H 0.32929 0.74671 0.12591 0.0
C113 C 0.31443 0.63296 0.95208 0.0
C114 C 0.35608 0.63455 0.01578 0.0
H115 H 0.24471 0.66845 0.90541 0.0
H116 H 0.31006 0.60155 0.90273 0.0
C117 C 0.36044 0.67548 0.07956 0.0
C118 C 0.76304 0.83149 0.54251 0.0
C119 C 0.77449 0.78094 0.51966 0.0
H120 H 0.79159 0.90727 0.55909 0.0
C121 C 0.82483 0.76748 0.49596 0.0
H122 H 0.72414 0.84227 0.5603 0.0
C123 C 0.86358 0.80422 0.49573 0.0
C124 C 0.85232 0.85519 0.51802 0.0
H125 H 0.83397 0.72849 0.47785 0.0
H126 H 0.90217 0.79278 0.47706 0.0
C127 C 0.80157 0.86842 0.54139 0.0
C128 C 0.7263 0.33011 0.97779 0.0
C129 C 0.71529 0.28041 1.00673 0.0
H130 H 0.69756 0.40549 0.95629 0.0
C131 C 0.66543 0.26795 0.03519 0.0
H132 H 0.76476 0.34018 0.95601 0.0
C133 C 0.62682 0.30482 0.03465 0.0
C134 C 0.63775 0.35499 1.00685 0.0
H135 H 0.65649 0.22958 0.05741 0.0
H136 H 0.58863 0.29417 0.05716 0.0
C137 C 0.68794 0.36726 0.97844 0.0
C138 C 0.16561 0.8898 0.14217 0.0
C139 C 0.15262 0.83948 0.11981 0.0
H140 H 0.14717 0.95633 0.22335 0.0
C141 C 0.10975 0.81715 0.16247 0.0
H142 H 0.19955 0.90695 0.11202 0.0
C143 C 0.08089 0.84446 0.22873 0.0
C144 C 0.0939 0.89494 0.25159 0.0
H145 H 0.09973 0.77808 0.14648 0.0
H146 H 0.04855 0.82607 0.26234 0.0
C147 C 0.13597 0.91768 0.20633 0.0
C148 C 0.66975 0.61495 0.66821 0.0
C149 C 0.6453 0.65544 0.62197 0.0
H150 H 0.66308 0.55499 0.77017 0.0
C151 C 0.59376 0.66607 0.64157 0.0
H152 H 0.70983 0.60698 0.65464 0.0
C153 C 0.5666 0.63599 0.70585 0.0
C154 C 0.59128 0.59594 0.7539 0.0
H155 H 0.57497 0.69833 0.60877 0.0
H156 H 0.52689 0.64518 0.72048 0.0
C157 C 0.64311 0.58563 0.73428 0.0
C158 C 0.8114 0.11477 0.17766 0.0
C159 C 0.83732 0.14828 0.11716 0.0
H160 H 0.81757 0.06102 0.29134 0.0
C161 C 0.89096 0.15129 0.12207 0.0
H162 H 0.76997 0.11188 0.17457 0.0
C163 C 0.91835 0.12183 0.18745 0.0
C164 C 0.89242 0.08949 0.25052 0.0
H165 H 0.91151 0.178 0.07817 0.0
H166 H 0.95971 0.12584 0.19089 0.0
C167 C 0.83864 0.08585 0.24426 0.0
C168 C 0.33307 0.39315 0.62164 0.0
C169 C 0.33569 0.34001 0.6176 0.0
H170 H 0.35941 0.46113 0.69021 0.0
C171 C 0.3686 0.31411 0.68014 0.0
H172 H 0.30664 0.41366 0.5763 0.0
C173 C 0.39791 0.34087 0.74703 0.0
C174 C 0.39508 0.3942 0.75208 0.0
H175 H 0.37074 0.273 0.67817 0.0
H176 H 0.42244 0.31973 0.79521 0.0
C177 C 0.36287 0.42011 0.68768 0.0
C178 C 0.59814 0.65322 0.40122 0.0
C179 C 0.6517 0.64986 0.40754 0.0
H180 H 0.52969 0.62766 0.33133 0.0
C181 C 0.67784 0.61588 0.34801 0.0
H182 H 0.57747 0.68045 0.44404 0.0
C183 C 0.65087 0.58661 0.2813 0.0
C184 C 0.59715 0.59043 0.27392 0.0
H185 H 0.71925 0.61285 0.35202 0.0
H186 H 0.67211 0.56136 0.23505 0.0
C187 C 0.571 0.62342 0.33579 0.0
C188 C 0.82161 0.11298 0.86051 0.0
C189 C 0.84492 0.15524 0.90337 0.0
H190 H 0.82931 0.05185 0.76068 0.0
C191 C 0.89564 0.16771 0.88057 0.0
H192 H 0.78217 0.10353 0.87671 0.0
C193 C 0.92309 0.13777 0.81618 0.0
C194 C 0.89941 0.09606 0.7712 0.0
H195 H 0.91355 0.20108 0.91143 0.0
H196 H 0.96214 0.14831 0.79901 0.0
C197 C 0.84844 0.08385 0.79417 0.0
C198 C 0.38015 0.31726 0.35973 0.0
C199 C 0.33732 0.33959 0.40274 0.0
H200 H 0.44131 0.32621 0.2599 0.0
C201 C 0.32435 0.38994 0.38095 0.0
H202 H 0.39016 0.27817 0.37528 0.0
C203 C 0.35398 0.41785 0.31706 0.0
C204 C 0.39602 0.39512 0.27149 0.0
H205 H 0.29045 0.4071 0.4114 0.0
H206 H 0.3428 0.45652 0.3005 0.0
C207 C 0.409 0.3446 0.29375 0.0
C208 C 0.12197 0.81422 0.84206 0.0
C209 C 0.15483 0.84006 0.90498 0.0
H210 H 0.06821 0.81993 0.72694 0.0
C211 C 0.1575 0.8932 0.90143 0.0
H212 H 0.11978 0.77311 0.84364 0.0
C213 C 0.12779 0.92022 0.83557 0.0
C214 C 0.09558 0.89437 0.77086 0.0
H215 H 0.1839 0.91366 0.94709 0.0
H216 H 0.13126 0.96124 0.83347 0.0
C217 C 0.09273 0.84103 0.77538 0.0
loop_
_geom_bond_atom_site_label_1
_geom_bond_atom_site_label_2
_geom_bond_distance
_geom_bond_site_symmetry_2
_ccdc_geom_bond_type
C0 N1 1.317 . S
C0 N2 1.348 1_556 S
C0 C3 1.485 . S
N1 C0 1.317 . S
N1 N5 1.370 1_556 S
N2 C0 1.348 1_554 S
N2 C4 1.346 . S
C3 C0 1.485 . S
C3 H7 0.960 . S
C3 H8 0.961 . S
C3 H9 0.960 . S
C4 N2 1.346 . S
C4 N5 1.307 . S
C4 C6 1.486 . S
N5 N1 1.370 1_554 S
N5 C4 1.307 . S
C6 C4 1.486 . S
C6 H10 0.960 . S
C6 H11 0.960 . S
C6 H12 0.959 . S
H7 C3 0.960 . S
H8 C3 0.961 . S
H9 C3 0.960 . S
H10 C6 0.960 . S
H11 C6 0.960 . S
H12 C6 0.959 . S
C13 N14 1.317 . S
C13 N15 1.348 . S
C13 C16 1.485 . S
N14 C13 1.317 . S
N14 N18 1.370 . S
N15 C13 1.348 . S
N15 C17 1.346 . S
C16 C13 1.485 . S
C16 H20 0.960 . S
C16 H21 0.961 . S
C16 H22 0.960 . S
C17 N15 1.346 . S
C17 N18 1.307 . S
C17 C19 1.486 . S
N18 N14 1.370 . S
N18 C17 1.307 . S
C19 C17 1.486 . S
C19 H23 0.960 . S
C19 H24 0.960 . S
C19 H25 0.959 . S
H20 C16 0.960 . S
H21 C16 0.961 . S
H22 C16 0.960 . S
H23 C19 0.960 . S
H24 C19 0.960 . S
H25 C19 0.959 . S
C26 N27 1.317 . S
C26 N28 1.348 . S
C26 C29 1.485 . S
N27 C26 1.317 . S
N27 N31 1.370 1_554 S
N28 C26 1.348 . S
N28 C30 1.346 1_554 S
C29 C26 1.485 . S
C29 H33 0.960 . S
C29 H34 0.961 . S
C29 H35 0.960 . S
C30 N28 1.346 1_556 S
C30 N31 1.307 . S
C30 C32 1.486 . S
N31 N27 1.370 1_556 S
N31 C30 1.307 . S
C32 C30 1.486 . S
C32 H36 0.960 . S
C32 H37 0.960 . S
C32 H38 0.959 . S
H33 C29 0.960 . S
H34 C29 0.961 . S
H35 C29 0.960 . S
H36 C32 0.960 . S
H37 C32 0.960 . S
H38 C32 0.959 . S
C39 N40 1.317 . S
C39 N41 1.348 . S
C39 C42 1.485 . S
N40 C39 1.317 . S
N40 N44 1.370 . S
N41 C39 1.348 . S
N41 C43 1.346 . S
C42 C39 1.485 . S
C42 H46 0.960 . S
C42 H47 0.961 . S
C42 H48 0.960 . S
C43 N41 1.346 . S
C43 N44 1.307 . S
C43 C45 1.486 . S
N44 N40 1.370 . S
N44 C43 1.307 . S
C45 C43 1.486 . S
C45 H49 0.960 . S
C45 H50 0.960 . S
C45 H51 0.959 . S
H46 C42 0.960 . S
H47 C42 0.961 . S
H48 C42 0.960 . S
H49 C45 0.960 . S
H50 C45 0.960 . S
H51 C45 0.959 . S
O52 Zn53 1.953 1_565 S
O52 C68 1.225 . S
Zn53 O52 1.953 1_545 S
Zn53 O54 1.949 1_655 S
Zn53 O60 1.919 . S
Zn53 O65 1.924 . S
O54 Zn53 1.949 1_455 S
O54 Zn55 1.923 . S
O54 Zn56 1.950 1_545 S
O54 Zn57 1.945 . S
Zn55 O54 1.923 . S
Zn55 O58 1.933 . S
Zn55 O61 1.941 . S
Zn55 O62 1.965 1_545 S
Zn56 O54 1.950 1_565 S
Zn56 O63 1.938 . S
Zn56 O64 1.906 . S
Zn56 O74 1.953 1_455 S
Zn57 O54 1.945 . S
Zn57 O59 1.932 . S
Zn57 O66 1.988 . S
Zn57 O67 1.910 1_455 S
O58 Zn55 1.933 . S
O58 C69 1.226 . S
O59 Zn57 1.932 . S
O59 C69 1.307 . S
O60 Zn53 1.919 . S
O60 C71 1.253 . S
O61 Zn55 1.941 . S
O61 C71 1.283 1_455 S
O62 Zn55 1.965 1_565 S
O62 C70 1.303 . S
O63 Zn56 1.938 . S
O63 C70 1.247 . S
O64 Zn56 1.906 . S
O64 C72 1.304 . S
O65 Zn53 1.924 . S
O65 C73 1.311 . S
O66 Zn57 1.988 . S
O66 C72 1.255 1_545 S
O67 Zn57 1.910 1_655 S
O67 C73 1.231 . S
C68 O52 1.225 . S
C68 O74 1.298 . S
C69 O58 1.226 . S
C69 O59 1.307 . S
C70 O62 1.303 . S
C70 O63 1.247 . S
C71 O60 1.253 . S
C71 O61 1.283 1_655 S
C72 O64 1.304 . S
C72 O66 1.255 1_565 S
C73 O65 1.311 . S
C73 O67 1.231 . S
O74 Zn56 1.953 1_655 S
O74 C68 1.298 . S
O75 Zn76 1.953 . S
O75 C91 1.224 1_556 S
Zn76 O75 1.953 . S
Zn76 O77 1.949 1_556 S
Zn76 O83 1.919 . S
Zn76 O88 1.924 1_556 S
O77 Zn76 1.949 1_554 S
O77 Zn78 1.923 1_554 S
O77 Zn79 1.950 . S
O77 Zn80 1.945 . S
Zn78 O77 1.923 1_556 S
Zn78 O81 1.933 . S
Zn78 O84 1.941 . S
Zn78 O85 1.965 . S
Zn79 O77 1.950 . S
Zn79 O86 1.938 1_554 S
Zn79 O87 1.906 . S
Zn79 O97 1.953 . S
Zn80 O77 1.945 . S
Zn80 O82 1.932 . S
Zn80 O89 1.977 . S
Zn80 O90 1.910 . S
O81 Zn78 1.933 . S
O81 C92 1.226 1_556 S
O82 Zn80 1.932 . S
O82 C92 1.307 . S
O83 Zn76 1.919 . S
O83 C94 1.253 . S
O84 Zn78 1.941 . S
O84 C94 1.283 . S
O85 Zn78 1.965 . S
O85 C93 1.303 . S
O86 Zn79 1.938 1_556 S
O86 C93 1.247 . S
O87 Zn79 1.906 . S
O87 C95 1.304 . S
O88 Zn76 1.924 1_554 S
O88 C96 1.311 . S
O89 Zn80 1.977 . S
O89 C95 1.272 . S
O90 Zn80 1.910 . S
O90 C96 1.231 . S
C91 O75 1.224 1_554 S
C91 O97 1.300 . S
C92 O81 1.226 1_554 S
C92 O82 1.307 . S
C93 O85 1.303 . S
C93 O86 1.247 . S
C94 O83 1.253 . S
C94 O84 1.283 . S
C95 O87 1.304 . S
C95 O89 1.272 . S
C96 O88 1.311 . S
C96 O90 1.231 . S
O97 Zn79 1.953 . S
O97 C91 1.300 . S
C98 C99 1.387 . S
C98 H102 0.950 . S
C98 C107 1.390 . S
C99 C98 1.387 . S
C99 C101 1.387 . S
H100 C107 0.950 . S
C101 C99 1.387 . S
C101 C103 1.390 . S
C101 H105 0.950 . S
H102 C98 0.950 . S
C103 C101 1.390 . S
C103 C104 1.387 . S
C103 H106 0.950 . S
C104 C103 1.387 . S
C104 C107 1.387 . S
H105 C101 0.950 . S
H106 C103 0.950 . S
C107 C98 1.390 . S
C107 H100 0.950 . S
C107 C104 1.387 . S
C108 C109 1.387 . S
C108 H112 0.950 . S
C108 C117 1.390 . S
C109 C108 1.387 . S
C109 C111 1.387 1_554 S
H110 C117 0.950 . S
C111 C109 1.387 1_556 S
C111 C113 1.390 . S
C111 H115 0.950 . S
H112 C108 0.950 . S
C113 C111 1.390 . S
C113 C114 1.387 1_556 S
C113 H116 0.950 . S
C114 C113 1.387 1_554 S
C114 C117 1.387 . S
H115 C111 0.950 . S
H116 C113 0.950 . S
C117 C108 1.390 . S
C117 H110 0.950 . S
C117 C114 1.387 . S
C118 C119 1.387 . S
C118 H122 0.950 . S
C118 C127 1.390 . S
C119 C118 1.387 . S
C119 C121 1.387 . S
H120 C127 0.950 . S
C121 C119 1.387 . S
C121 C123 1.390 . S
C121 H125 0.950 . S
H122 C118 0.950 . S
C123 C121 1.390 . S
C123 C124 1.387 . S
C123 H126 0.950 . S
C124 C123 1.387 . S
C124 C127 1.387 . S
H125 C121 0.950 . S
H126 C123 0.950 . S
C127 C118 1.390 . S
C127 H120 0.950 . S
C127 C124 1.387 . S
C128 C129 1.387 1_556 S
C128 H132 0.950 . S
C128 C137 1.390 . S
C129 C128 1.387 1_554 S
C129 C131 1.387 . S
H130 C137 0.950 . S
C131 C129 1.387 . S
C131 C133 1.390 . S
C131 H135 0.950 . S
H132 C128 0.950 . S
C133 C131 1.390 . S
C133 C134 1.387 . S
C133 H136 0.950 . S
C134 C133 1.387 . S
C134 C137 1.387 1_554 S
H135 C131 0.950 . S
H136 C133 0.950 . S
C137 C128 1.390 . S
C137 H130 0.950 . S
C137 C134 1.387 1_556 S
C138 C139 1.387 . S
C138 H142 0.950 . S
C138 C147 1.390 . S
C139 C138 1.387 . S
C139 C141 1.387 . S
H140 C147 0.950 . S
C141 C139 1.387 . S
C141 C143 1.390 . S
C141 H145 0.950 . S
H142 C138 0.950 . S
C143 C141 1.390 . S
C143 C144 1.387 . S
C143 H146 0.950 . S
C144 C143 1.387 . S
C144 C147 1.387 . S
H145 C141 0.950 . S
H146 C143 0.950 . S
C147 C138 1.390 . S
C147 H140 0.950 . S
C147 C144 1.387 . S
C148 C149 1.387 . S
C148 H152 0.950 . S
C148 C157 1.390 . S
C149 C148 1.387 . S
C149 C151 1.387 . S
H150 C157 0.950 . S
C151 C149 1.387 . S
C151 C153 1.390 . S
C151 H155 0.950 . S
H152 C148 0.950 . S
C153 C151 1.390 . S
C153 C154 1.387 . S
C153 H156 0.950 . S
C154 C153 1.387 . S
C154 C157 1.387 . S
H155 C151 0.950 . S
H156 C153 0.950 . S
C157 C148 1.390 . S
C157 H150 0.950 . S
C157 C154 1.387 . S
C158 C159 1.387 . S
C158 H162 0.950 . S
C158 C167 1.390 . S
C159 C158 1.387 . S
C159 C161 1.387 . S
H160 C167 0.950 . S
C161 C159 1.387 . S
C161 C163 1.390 . S
C161 H165 0.950 . S
H162 C158 0.950 . S
C163 C161 1.390 . S
C163 C164 1.387 . S
C163 H166 0.950 . S
C164 C163 1.387 . S
C164 C167 1.387 . S
H165 C161 0.950 . S
H166 C163 0.950 . S
C167 C158 1.390 . S
C167 H160 0.950 . S
C167 C164 1.387 . S
C168 C169 1.387 . S
C168 H172 0.950 . S
C168 C177 1.390 . S
C169 C168 1.387 . S
C169 C171 1.387 . S
H170 C177 0.950 . S
C171 C169 1.387 . S
C171 C173 1.390 . S
C171 H175 0.950 . S
H172 C168 0.950 . S
C173 C171 1.390 . S
C173 C174 1.387 . S
C173 H176 0.950 . S
C174 C173 1.387 . S
C174 C177 1.387 . S
H175 C171 0.950 . S
H176 C173 0.950 . S
C177 C168 1.390 . S
C177 H170 0.950 . S
C177 C174 1.387 . S
C178 C179 1.387 . S
C178 H182 0.950 . S
C178 C187 1.390 . S
C179 C178 1.387 . S
C179 C181 1.387 . S
H180 C187 0.950 . S
C181 C179 1.387 . S
C181 C183 1.390 . S
C181 H185 0.950 . S
H182 C178 0.950 . S
C183 C181 1.390 . S
C183 C184 1.387 . S
C183 H186 0.950 . S
C184 C183 1.387 . S
C184 C187 1.387 . S
H185 C181 0.950 . S
H186 C183 0.950 . S
C187 C178 1.390 . S
C187 H180 0.950 . S
C187 C184 1.387 . S
C188 C189 1.387 . S
C188 H192 0.950 . S
C188 C197 1.390 . S
C189 C188 1.387 . S
C189 C191 1.387 . S
H190 C197 0.950 . S
C191 C189 1.387 . S
C191 C193 1.390 . S
C191 H195 0.950 . S
H192 C188 0.950 . S
C193 C191 1.390 . S
C193 C194 1.387 . S
C193 H196 0.950 . S
C194 C193 1.387 . S
C194 C197 1.387 . S
H195 C191 0.950 . S
H196 C193 0.950 . S
C197 C188 1.390 . S
C197 H190 0.950 . S
C197 C194 1.387 . S
C198 C199 1.387 . S
C198 H202 0.950 . S
C198 C207 1.390 . S
C199 C198 1.387 . S
C199 C201 1.387 . S
H200 C207 0.950 . S
C201 C199 1.387 . S
C201 C203 1.390 . S
C201 H205 0.950 . S
H202 C198 0.950 . S
C203 C201 1.390 . S
C203 C204 1.387 . S
C203 H206 0.950 . S
C204 C203 1.387 . S
C204 C207 1.387 . S
H205 C201 0.950 . S
H206 C203 0.950 . S
C207 C198 1.390 . S
C207 H200 0.950 . S
C207 C204 1.387 . S
C208 C209 1.387 . S
C208 H212 0.950 . S
C208 C217 1.390 . S
C209 C208 1.387 . S
C209 C211 1.387 . S
H210 C217 0.950 . S
C211 C209 1.387 . S
C211 C213 1.390 . S
C211 H215 0.950 . S
H212 C208 0.950 . S
C213 C211 1.390 . S
C213 C214 1.387 . S
C213 H216 0.950 . S
C214 C213 1.387 . S
C214 C217 1.387 . S
H215 C211 0.950 . S
H216 C213 0.950 . S
C217 C208 1.390 . S
C217 H210 0.950 . S
C217 C214 1.387 . S
C104 C69 1.495 . S
C99 N41 1.496 . S
C109 N2 1.495 . S
C114 C92 1.495 . S
C119 N15 1.520 . S
C124 C68 1.520 . S
C129 N28 1.519 . S
C134 C91 1.520 . S
C144 C72 1.455 . S
C139 N5 1.505 . S
C154 C94 1.481 . S
C149 N14 1.551 . S
C159 N27 1.524 . S
C164 C73 1.458 . S
C169 N44 1.540 . S
C174 C93 1.470 . S
C184 C96 1.455 . S
C179 N18 1.517 . S
C194 C71 1.479 . S
C189 N31 1.546 . S
C204 C95 1.457 . S
C199 N40 1.512 . S
C209 N1 1.546 . S
C214 C70 1.473 . S
