# Generated by pormake.
# Topology rtl, (3,6)-cn, num edge types: 1
# Building blocks:
#     Node 0, Type 0, BuildingBlock: INOVEN_clean_linker_0, # of connection points: 3
#     Node 1, Type 0, BuildingBlock: INOVEN_clean_linker_0, # of connection points: 3
#     Node 2, Type 0, BuildingBlock: INOVEN_clean_linker_0, # of connection points: 3
#     Node 3, Type 0, BuildingBlock: INOVEN_clean_linker_0, # of connection points: 3
#     Node 4, Type 1, BuildingBlock: VOLQOD_clean_sbu_1, # of connection points: 6
#     Node 5, Type 1, BuildingBlock: VOLQOD_clean_sbu_1, # of connection points: 6
#     Edge 6, Type (0, 1), None
#     Edge 7, Type (0, 1), None
#     Edge 8, Type (0, 1), None
#     Edge 9, Type (0, 1), None
#     Edge 10, Type (0, 1), None
#     Edge 11, Type (0, 1), None
#     Edge 12, Type (0, 1), None
#     Edge 13, Type (0, 1), None
#     Edge 14, Type (0, 1), None
#     Edge 15, Type (0, 1), None
#     Edge 16, Type (0, 1), None
#     Edge 17, Type (0, 1), None
# Relax obj value: 0.044
# Max RMSD: 0.144
# Mean RMSD: 0.082
data_MOF--net-rtl--node1-VOLQOD_clean_sbu_1--node2-INOVEN_clean_linker_0--edge1-none
_symmetry_space_group_name_H-M    P1
_symmetry_Int_Tables_number       1
_symmetry_cell_setting            triclinic
loop_
_symmetry_equiv_pos_as_xyz
'x, y, z'
_cell_length_a     18.912869
_cell_length_b     16.618079
_cell_length_c     10.25497
_cell_angle_alpha  95.042758
_cell_angle_beta   90.166076
_cell_angle_gamma 89.773054
loop_
_atom_site_label
_atom_site_type_symbol
_atom_site_fract_x
_atom_site_fract_y
_atom_site_fract_z
_atom_type_partial_charge
H0 H 0.15005 0.78969 0.72859 0.0
H1 H 0.00867 0.94291 0.96541 0.0
H2 H 0.15537 0.79136 0.14998 0.0
N3 N 0.21997 0.73346 0.92294 0.0
N4 N 0.2559 0.71781 0.01945 0.0
C5 C 0.12788 0.80915 0.8236 0.0
C6 C 0.07435 0.86756 0.83382 0.0
C7 C 0.15813 0.78201 0.93691 0.0
C8 C 0.13131 0.81018 0.06158 0.0
C9 C 0.07679 0.86782 0.07171 0.0
C10 C 0.04884 0.89585 0.95756 0.0
H11 H 0.68966 0.74167 0.71698 0.0
H12 H 0.51824 0.63111 0.49193 0.0
H13 H 0.6844 0.74897 0.29768 0.0
N14 N 0.75446 0.80106 0.51634 0.0
N15 N 0.75778 0.86305 0.4564 0.0
C16 C 0.66355 0.72679 0.62382 0.0
C17 C 0.59916 0.68476 0.61877 0.0
C18 C 0.69274 0.75288 0.50866 0.0
C19 C 0.66033 0.73153 0.3867 0.0
C20 C 0.59747 0.68709 0.38014 0.0
C21 C 0.56646 0.66639 0.4968 0.0
H22 H 0.78426 0.26885 0.80027 0.0
H23 H 0.94236 0.13345 -0.01044 0.0
H24 H 0.79391 0.27966 0.22192 0.0
N25 N 0.72704 0.33797 0.02318 0.0
N26 N 0.67557 0.33107 0.94704 0.0
C27 C 0.80876 0.25066 0.88874 0.0
C28 C 0.86739 0.19866 0.88011 0.0
C29 C 0.7835 0.28166 0.01248 0.0
C30 C 0.81483 0.25737 0.12723 0.0
C31 C 0.87199 0.20324 0.11928 0.0
C32 C 0.89875 0.1762 -0.00418 0.0
H33 H 0.30155 0.29021 0.22688 0.0
H34 H 0.43133 0.45672 0.46424 0.0
H35 H 0.29498 0.29587 0.64883 0.0
N36 N 0.23475 0.231 0.42203 0.0
N37 N 0.20223 0.21057 0.51916 0.0
C38 C 0.32142 0.31306 0.32222 0.0
C39 C 0.37077 0.37579 0.33258 0.0
C40 C 0.29294 0.2846 0.43572 0.0
C41 C 0.31714 0.31644 0.56036 0.0
C42 C 0.3667 0.37909 0.57031 0.0
C43 C 0.39322 0.40781 0.45639 0.0
O44 O 0.81266 0.98705 0.461 0.0
Zn45 Zn 0.88 0.08149 0.47988 0.0
O46 O -0.02232 0.03759 0.47612 0.0
Zn47 Zn 0.02501 0.07712 0.63536 0.0
Zn48 Zn -0.01915 0.91748 0.45998 0.0
Zn49 Zn 0.02925 0.07822 0.33319 0.0
O50 O 0.11162 0.14144 0.60767 0.0
O51 O 0.11585 0.14218 0.39168 0.0
O52 O 0.85675 0.14615 0.6549 0.0
O53 O 0.96107 0.14232 0.75331 0.0
O54 O 0.05196 0.98706 0.73752 0.0
O55 O 0.03023 0.8726 0.61582 0.0
O56 O 0.02795 0.8727 0.28782 0.0
O57 O 0.86119 0.14973 0.32704 0.0
O58 O 0.05879 0.98716 0.20635 0.0
O59 O 0.96617 0.1454 0.23004 0.0
C60 C 0.81955 0.91069 0.45996 0.0
C61 C 0.14141 0.16174 0.50502 0.0
C62 C 0.05252 0.91056 0.7212 0.0
C63 C 0.89662 0.16377 0.7538 0.0
C64 C 0.0558 0.91049 0.19788 0.0
C65 C 0.90186 0.16822 0.23535 0.0
O66 O 0.88006 0.87655 0.46198 0.0
O67 O 0.63569 0.46379 -0.02394 0.0
Zn68 Zn 0.57749 0.5669 -0.01625 0.0
O69 O 0.47635 0.53663 -0.024 0.0
Zn70 Zn 0.42945 0.58387 0.83343 0.0
Zn71 Zn 0.46199 0.41781 0.95545 0.0
Zn72 Zn 0.43201 0.58081 0.13518 0.0
O73 O 0.34417 0.65222 0.89161 0.0
O74 O 0.34774 0.64935 0.10741 0.0
O75 O 0.60437 0.62798 0.82564 0.0
O76 O 0.4992 0.64459 0.73362 0.0
O77 O 0.39562 0.49662 0.70313 0.0
O78 O 0.4088 0.37961 0.78957 0.0
O79 O 0.41314 0.37646 0.11317 0.0
O80 O 0.6035 0.63245 0.15621 0.0
O81 O 0.40005 0.49264 0.23512 0.0
O82 O 0.49914 0.64137 0.2545 0.0
C83 C 0.62067 0.38894 0.95507 0.0
C84 C 0.31854 0.67144 0.00503 0.0
C85 C 0.38889 0.42029 0.69658 0.0
C86 C 0.56601 0.65447 0.73588 0.0
C87 C 0.39414 0.41644 0.21895 0.0
C88 C 0.56497 0.65591 0.25435 0.0
O89 O 0.55734 0.36422 0.94053 0.0
loop_
_geom_bond_atom_site_label_1
_geom_bond_atom_site_label_2
_geom_bond_distance
_geom_bond_site_symmetry_2
_ccdc_geom_bond_type
H0 C5 0.929 . S
H1 C10 0.931 1_554 S
H2 C8 0.930 . S
N3 N4 1.234 1_556 S
N3 C7 1.453 . S
N4 N3 1.234 1_554 S
C5 H0 0.929 . S
C5 C6 1.373 . S
C5 C7 1.368 . S
C6 C5 1.373 . S
C6 C10 1.397 . S
C7 N3 1.453 . S
C7 C5 1.368 . S
C7 C8 1.373 1_556 S
C8 H2 0.930 . S
C8 C7 1.373 1_554 S
C8 C9 1.371 . S
C9 C8 1.371 . S
C9 C10 1.383 1_554 S
C10 H1 0.931 1_556 S
C10 C6 1.397 . S
C10 C9 1.383 1_556 S
H11 C16 0.929 . S
H12 C21 0.931 . S
H13 C19 0.930 . S
N14 N15 1.234 . S
N14 C18 1.453 . S
N15 N14 1.234 . S
C16 H11 0.929 . S
C16 C17 1.373 . S
C16 C18 1.368 . S
C17 C16 1.373 . S
C17 C21 1.397 . S
C18 N14 1.453 . S
C18 C16 1.368 . S
C18 C19 1.373 . S
C19 H13 0.930 . S
C19 C18 1.373 . S
C19 C20 1.371 . S
C20 C19 1.371 . S
C20 C21 1.383 . S
C21 H12 0.931 . S
C21 C17 1.397 . S
C21 C20 1.383 . S
H22 C27 0.929 . S
H23 C32 0.930 1_554 S
H24 C30 0.930 . S
N25 N26 1.234 1_556 S
N25 C29 1.453 . S
N26 N25 1.234 1_554 S
C27 H22 0.929 . S
C27 C28 1.373 . S
C27 C29 1.368 . S
C28 C27 1.373 . S
C28 C32 1.404 . S
C29 N25 1.453 . S
C29 C27 1.368 . S
C29 C30 1.373 1_556 S
C30 H24 0.930 . S
C30 C29 1.373 1_554 S
C30 C31 1.371 . S
C31 C30 1.371 . S
C31 C32 1.377 1_554 S
C32 H23 0.930 1_556 S
C32 C28 1.404 . S
C32 C31 1.377 1_556 S
H33 C38 0.929 . S
H34 C43 0.931 . S
H35 C41 0.930 . S
N36 N37 1.234 . S
N36 C40 1.453 . S
N37 N36 1.234 . S
C38 H33 0.929 . S
C38 C39 1.373 . S
C38 C40 1.368 . S
C39 C38 1.373 . S
C39 C43 1.397 . S
C40 N36 1.453 . S
C40 C38 1.368 . S
C40 C41 1.373 . S
C41 H35 0.930 . S
C41 C40 1.373 . S
C41 C42 1.371 . S
C42 C41 1.371 . S
C42 C43 1.383 . S
C43 H34 0.931 . S
C43 C39 1.397 . S
C43 C42 1.383 . S
O44 Zn45 1.953 1_565 S
O44 C60 1.225 . S
Zn45 O44 1.953 1_545 S
Zn45 O46 1.949 1_655 S
Zn45 O52 1.919 . S
Zn45 O57 1.924 . S
O46 Zn45 1.949 1_455 S
O46 Zn47 1.923 . S
O46 Zn48 1.950 1_545 S
O46 Zn49 1.945 . S
Zn47 O46 1.923 . S
Zn47 O50 1.933 . S
Zn47 O53 1.941 . S
Zn47 O54 1.965 1_545 S
Zn48 O46 1.950 1_565 S
Zn48 O55 1.938 . S
Zn48 O56 1.906 . S
Zn48 O66 1.953 1_455 S
Zn49 O46 1.945 . S
Zn49 O51 1.932 . S
Zn49 O58 1.977 1_545 S
Zn49 O59 1.910 1_455 S
O50 Zn47 1.933 . S
O50 C61 1.226 . S
O51 Zn49 1.932 . S
O51 C61 1.307 . S
O52 Zn45 1.919 . S
O52 C63 1.253 . S
O53 Zn47 1.941 . S
O53 C63 1.283 1_455 S
O54 Zn47 1.965 1_565 S
O54 C62 1.303 . S
O55 Zn48 1.938 . S
O55 C62 1.247 . S
O56 Zn48 1.906 . S
O56 C64 1.304 . S
O57 Zn45 1.924 . S
O57 C65 1.311 . S
O58 Zn49 1.977 1_565 S
O58 C64 1.272 . S
O59 Zn49 1.910 1_655 S
O59 C65 1.231 . S
C60 O44 1.225 . S
C60 O66 1.298 . S
C61 O50 1.226 . S
C61 O51 1.307 . S
C62 O54 1.303 . S
C62 O55 1.247 . S
C63 O52 1.253 . S
C63 O53 1.283 1_655 S
C64 O56 1.304 . S
C64 O58 1.272 . S
C65 O57 1.311 . S
C65 O59 1.231 . S
O66 Zn48 1.953 1_655 S
O66 C60 1.298 . S
O67 Zn68 1.953 . S
O67 C83 1.225 1_556 S
Zn68 O67 1.953 . S
Zn68 O69 1.949 1_556 S
Zn68 O75 1.919 . S
Zn68 O80 1.924 1_556 S
O69 Zn68 1.949 1_554 S
O69 Zn70 1.923 1_554 S
O69 Zn71 1.950 . S
O69 Zn72 1.945 . S
Zn70 O69 1.923 1_556 S
Zn70 O73 1.933 . S
Zn70 O76 1.941 . S
Zn70 O77 1.965 . S
Zn71 O69 1.950 . S
Zn71 O78 1.938 1_554 S
Zn71 O79 1.906 . S
Zn71 O89 1.953 . S
Zn72 O69 1.945 . S
Zn72 O74 1.932 . S
Zn72 O81 1.977 . S
Zn72 O82 1.910 . S
O73 Zn70 1.933 . S
O73 C84 1.226 1_556 S
O74 Zn72 1.932 . S
O74 C84 1.307 . S
O75 Zn68 1.919 . S
O75 C86 1.253 . S
O76 Zn70 1.941 . S
O76 C86 1.283 . S
O77 Zn70 1.965 . S
O77 C85 1.303 . S
O78 Zn71 1.938 1_556 S
O78 C85 1.247 . S
O79 Zn71 1.906 . S
O79 C87 1.304 . S
O80 Zn68 1.924 1_554 S
O80 C88 1.311 . S
O81 Zn72 1.977 . S
O81 C87 1.272 . S
O82 Zn72 1.910 . S
O82 C88 1.231 . S
C83 O67 1.225 1_554 S
C83 O89 1.298 . S
C84 O73 1.226 1_554 S
C84 O74 1.307 . S
C85 O77 1.303 . S
C85 O78 1.247 . S
C86 O75 1.253 . S
C86 O76 1.283 . S
C87 O79 1.304 . S
C87 O81 1.272 . S
C88 O80 1.311 . S
C88 O82 1.231 . S
O89 Zn71 1.953 . S
O89 C83 1.298 . S
C61 N37 1.523 . S
N4 C84 1.516 . S
N15 C60 1.513 . S
N26 C83 1.537 . S
C64 C9 1.556 . S
C86 C17 1.520 . S
C31 C65 1.632 . S
C42 C85 1.573 . S
C88 C20 1.500 . S
C63 C28 1.405 . S
C87 C39 1.448 . S
C6 C62 1.448 . S
