# Generated by pormake.
# Topology cml, (3,6)-cn, num edge types: 1
# Building blocks:
#     Node 0, Type 0, BuildingBlock: BETDAH_clean_linker_0, # of connection points: 3
#     Node 1, Type 0, BuildingBlock: BETDAH_clean_linker_0, # of connection points: 3
#     Node 2, Type 0, BuildingBlock: BETDAH_clean_linker_0, # of connection points: 3
#     Node 3, Type 0, BuildingBlock: BETDAH_clean_linker_0, # of connection points: 3
#     Node 4, Type 0, BuildingBlock: BETDAH_clean_linker_0, # of connection points: 3
#     Node 5, Type 0, BuildingBlock: BETDAH_clean_linker_0, # of connection points: 3
#     Node 6, Type 0, BuildingBlock: BETDAH_clean_linker_0, # of connection points: 3
#     Node 7, Type 0, BuildingBlock: BETDAH_clean_linker_0, # of connection points: 3
#     Node 8, Type 1, BuildingBlock: OJICUG_clean_sbu_0, # of connection points: 6
#     Node 9, Type 1, BuildingBlock: OJICUG_clean_sbu_0, # of connection points: 6
#     Node 10, Type 1, BuildingBlock: OJICUG_clean_sbu_0, # of connection points: 6
#     Node 11, Type 1, BuildingBlock: OJICUG_clean_sbu_0, # of connection points: 6
#     Edge 12, Type (0, 1), None
#     Edge 13, Type (0, 1), None
#     Edge 14, Type (0, 1), None
#     Edge 15, Type (0, 1), None
#     Edge 16, Type (0, 1), None
#     Edge 17, Type (0, 1), None
#     Edge 18, Type (0, 1), None
#     Edge 19, Type (0, 1), None
#     Edge 20, Type (0, 1), None
#     Edge 21, Type (0, 1), None
#     Edge 22, Type (0, 1), None
#     Edge 23, Type (0, 1), None
#     Edge 24, Type (0, 1), None
#     Edge 25, Type (0, 1), None
#     Edge 26, Type (0, 1), None
#     Edge 27, Type (0, 1), None
#     Edge 28, Type (0, 1), None
#     Edge 29, Type (0, 1), None
#     Edge 30, Type (0, 1), None
#     Edge 31, Type (0, 1), None
#     Edge 32, Type (0, 1), None
#     Edge 33, Type (0, 1), None
#     Edge 34, Type (0, 1), None
#     Edge 35, Type (0, 1), None
# Relax obj value: 0.007
# Max RMSD: 0.042
# Mean RMSD: 0.038
data_MOF--net-cml--node1-OJICUG_clean_sbu_0--node2-BETDAH_clean_linker_0--edge1-none
_symmetry_space_group_name_H-M    P1
_symmetry_Int_Tables_number       1
_symmetry_cell_setting            triclinic
loop_
_symmetry_equiv_pos_as_xyz
'x, y, z'
_cell_length_a     18.344726
_cell_length_b     18.800885
_cell_length_c     16.452838
_cell_angle_alpha  90.497386
_cell_angle_beta   90.598974
_cell_angle_gamma 91.202623
loop_
_atom_site_label
_atom_site_type_symbol
_atom_site_fract_x
_atom_site_fract_y
_atom_site_fract_z
_atom_type_partial_charge
H0 H 0.40706 0.48605 0.08402 0.0
H1 H 0.28929 0.40627 0.87479 0.0
H2 H 0.3333 0.26731 0.07272 0.0
C3 C 0.37423 0.4441 0.05529 0.0
C4 C 0.37235 0.37573 0.08972 0.0
C5 C 0.34681 0.45524 0.97668 0.0
C6 C 0.30714 0.39999 0.93732 0.0
C7 C 0.29984 0.33314 0.97377 0.0
C8 C 0.33322 0.32097 0.0492 0.0
N9 N 0.27617 0.27388 0.92671 0.0
C10 C 0.2038 0.26009 0.90622 0.0
H11 H 0.61896 0.47813 0.57751 0.0
H12 H 0.75374 0.55491 0.38421 0.0
H13 H 0.69375 0.69646 0.57671 0.0
C14 C 0.65331 0.51998 0.55248 0.0
C15 C 0.65265 0.58843 0.58747 0.0
C16 C 0.68702 0.50775 0.47775 0.0
C17 C 0.72993 0.56238 0.44361 0.0
C18 C 0.73478 0.62954 0.48167 0.0
C19 C 0.69445 0.64288 0.55192 0.0
N20 N 0.76883 0.68775 0.44262 0.0
C21 C 0.84133 0.68932 0.41933 0.0
H22 H 0.55873 0.40876 0.03824 0.0
H23 H 0.7326 0.45622 0.87368 0.0
H24 H 0.77168 0.32466 0.08214 0.0
C25 C 0.61429 0.40065 0.01861 0.0
C26 C 0.66112 0.3606 0.06682 0.0
C27 C 0.63953 0.43585 0.94966 0.0
C28 C 0.71185 0.42734 0.92558 0.0
C29 C 0.75908 0.38513 0.97142 0.0
C30 C 0.73401 0.35257 0.04323 0.0
N31 N 0.8339 0.38527 0.95115 0.0
C32 C 0.86951 0.32481 0.92508 0.0
H33 H 0.43632 0.50067 0.57513 0.0
H34 H 0.30383 0.68511 0.54363 0.0
H35 H 0.35054 0.55072 0.33925 0.0
C36 C 0.40137 0.53258 0.53712 0.0
C37 C 0.39671 0.5177 0.45365 0.0
C38 C 0.36901 0.5933 0.57045 0.0
C39 C 0.32715 0.63685 0.51977 0.0
C40 C 0.3185 0.61899 0.43677 0.0
C41 C 0.35436 0.56089 0.40417 0.0
N42 N 0.28206 0.66366 0.38223 0.0
C43 C 0.20795 0.67524 0.38568 0.0
H44 H 0.90784 -0.01462 0.08384 0.0
H45 H 0.79128 0.90738 0.87312 0.0
H46 H 0.832 0.76713 0.07094 0.0
C47 C 0.87511 0.94367 0.05451 0.0
C48 C 0.87238 0.87514 0.08858 0.0
C49 C 0.84871 0.95529 0.97566 0.0
C50 C 0.80893 0.90058 0.93563 0.0
C51 C 0.80034 0.8338 0.97183 0.0
C52 C 0.83306 0.8208 0.04744 0.0
N53 N 0.7732 0.77573 0.9251 0.0
C54 C 0.6993 0.76377 0.91184 0.0
H55 H 0.12105 0.97844 0.57754 0.0
H56 H 0.25208 0.05526 0.3812 0.0
H57 H 0.19531 0.19695 0.57486 0.0
C58 C 0.15481 0.02035 0.55171 0.0
C59 C 0.15453 0.08887 0.58657 0.0
C60 C 0.18702 0.00813 0.47619 0.0
C61 C 0.22932 0.06274 0.44112 0.0
C62 C 0.23496 0.12987 0.47913 0.0
C63 C 0.19571 0.14333 0.55015 0.0
N64 N 0.26854 0.18788 0.43927 0.0
C65 C 0.34148 0.19009 0.41769 0.0
H66 H 0.05913 0.90767 0.03694 0.0
H67 H 0.23551 0.95623 0.87612 0.0
H68 H 0.2718 0.82464 0.08502 0.0
C69 C 0.11496 0.89958 0.01823 0.0
C70 C 0.16117 0.85952 0.06721 0.0
C71 C 0.14124 0.93517 0.94998 0.0
C72 C 0.21391 0.92679 0.9272 0.0
C73 C 0.26059 0.88472 0.97388 0.0
C74 C 0.23451 0.852 0.04513 0.0
N75 N 0.33602 0.88717 0.95673 0.0
C76 C 0.37401 0.82938 0.92721 0.0
H77 H 0.93537 -0.0008 0.57476 0.0
H78 H 0.80653 0.18619 0.54459 0.0
H79 H 0.84944 0.05127 0.33953 0.0
C80 C 0.90074 0.03173 0.53707 0.0
C81 C 0.89554 0.01717 0.45356 0.0
C82 C 0.86987 0.09303 0.57073 0.0
C83 C 0.82865 0.13746 0.52048 0.0
C84 C 0.81907 0.11986 0.43754 0.0
C85 C 0.85365 0.06115 0.40447 0.0
N86 N 0.78326 0.16555 0.3836 0.0
C87 C 0.7089 0.17612 0.38576 0.0
Sc88 Sc 0.01598 0.74901 0.24817 0.0
Sc89 Sc 0.0477 0.93033 0.27135 0.0
Sc90 Sc 0.03898 0.82556 0.44436 0.0
O91 O 0.03343 0.83482 0.32206 0.0
C92 C 0.91347 0.71329 0.39865 0.0
C93 C 0.92296 0.85892 0.15668 0.0
C94 C 0.94282 0.96364 0.4164 0.0
C95 C 0.13351 0.84138 0.14813 0.0
C96 C 0.1357 0.70089 0.37647 0.0
C97 C 0.15344 0.95105 0.42544 0.0
O98 O 0.93769 0.69858 0.3286 0.0
O99 O 0.96982 0.90696 0.17612 0.0
O100 O 0.96957 0.91582 0.46176 0.0
O101 O 0.0872 0.79012 0.15304 0.0
O102 O 0.11107 0.73702 0.43537 0.0
O103 O 0.12502 0.97094 0.35925 0.0
O104 O 0.10862 0.70031 0.30486 0.0
O105 O 0.13616 0.89188 0.19986 0.0
O106 O 0.13444 0.89338 0.4597 0.0
O107 O 0.92453 0.79664 0.18647 0.0
O108 O 0.94258 0.7597 0.44546 0.0
O109 O 0.96095 0.97238 0.34252 0.0
Sc110 Sc 0.01143 0.21095 0.75381 0.0
Sc111 Sc 0.98866 0.02712 0.77151 0.0
Sc112 Sc 1.00431 0.13042 0.94615 0.0
O113 O 1.00106 0.12321 0.82398 0.0
C114 C 0.12943 0.2373 0.8945 0.0
C115 C 0.10291 0.10352 0.65327 0.0
C116 C 0.09467 -0.01141 0.91186 0.0
C117 C 0.89407 0.1135 0.65376 0.0
C118 C 0.91381 0.26789 0.89583 0.0
C119 C 0.88662 0.01016 0.92745 0.0
O120 O 0.09497 0.25932 0.83239 0.0
O121 O 0.06033 0.0528 0.67371 0.0
O122 O 0.06518 0.03361 0.95884 0.0
O123 O 0.93407 0.16962 0.66169 0.0
O124 O 0.94343 0.22807 0.9483 0.0
O125 O 0.91678 -0.01233 0.86335 0.0
O126 O 0.92598 0.2636 0.81982 0.0
O127 O 0.89577 0.06331 0.70488 0.0
O128 O 0.90423 0.06957 0.96081 0.0
O129 O 0.09875 0.16574 0.68376 0.0
O130 O 0.10635 0.18735 0.93936 0.0
O131 O 0.0811 -0.01513 0.83603 0.0
Sc132 Sc 0.51697 0.24963 0.24811 0.0
Sc133 Sc 0.54895 0.43075 0.2716 0.0
Sc134 Sc 0.53956 0.32565 0.44442 0.0
O135 O 0.5344 0.33525 0.32217 0.0
C136 C 0.4139 0.21397 0.398 0.0
C137 C 0.42364 0.35981 0.15733 0.0
C138 C 0.44434 0.46433 0.4168 0.0
C139 C 0.6343 0.34201 0.14795 0.0
C140 C 0.63641 0.20115 0.37618 0.0
C141 C 0.6544 0.45066 0.42628 0.0
O142 O 0.43902 0.19869 0.32851 0.0
O143 O 0.47082 0.40781 0.17614 0.0
O144 O 0.47094 0.41647 0.4622 0.0
O145 O 0.58772 0.29101 0.15279 0.0
O146 O 0.61097 0.23647 0.4353 0.0
O147 O 0.62617 0.47081 0.36006 0.0
O148 O 0.60991 0.20113 0.30431 0.0
O149 O 0.63741 0.39219 0.20006 0.0
O150 O 0.63549 0.39275 0.46007 0.0
O151 O 0.42531 0.29758 0.18729 0.0
O152 O 0.44249 0.26069 0.44478 0.0
O153 O 0.46235 0.47286 0.34284 0.0
Sc154 Sc 0.50958 0.71096 0.75437 0.0
Sc155 Sc 0.4859 0.52726 0.77165 0.0
Sc156 Sc 0.50163 0.6303 0.94662 0.0
O157 O 0.49864 0.62328 0.82438 0.0
C158 C 0.62664 0.73758 0.8966 0.0
C159 C 0.60047 0.60311 0.6536 0.0
C160 C 0.59216 0.48873 0.91177 0.0
C161 C 0.39193 0.61407 0.65386 0.0
C162 C 0.4134 0.76944 0.89682 0.0
C163 C 0.38392 0.5102 0.92775 0.0
O164 O 0.59345 0.75827 0.83304 0.0
O165 O 0.55749 0.55259 0.67358 0.0
O166 O 0.56236 0.53339 0.95895 0.0
O167 O 0.43199 0.67015 0.6621 0.0
O168 O 0.44179 0.72844 0.94889 0.0
O169 O 0.41414 0.48765 0.8637 0.0
O170 O 0.42493 0.76487 0.82065 0.0
O171 O 0.39309 0.56398 0.70515 0.0
O172 O 0.40127 0.56981 0.96072 0.0
O173 O 0.59658 0.66522 0.6844 0.0
O174 O 0.60352 0.68757 0.94136 0.0
O175 O 0.57846 0.48502 0.83596 0.0
loop_
_geom_bond_atom_site_label_1
_geom_bond_atom_site_label_2
_geom_bond_distance
_geom_bond_site_symmetry_2
_ccdc_geom_bond_type
H0 C3 0.929 . S
H1 C6 0.929 . S
H2 C8 0.930 . S
C3 H0 0.929 . S
C3 C4 1.398 . S
C3 C5 1.396 1_554 S
C4 C3 1.398 . S
C4 C8 1.407 . S
C5 C3 1.396 1_556 S
C5 C6 1.394 . S
C6 H1 0.929 . S
C6 C5 1.394 . S
C6 C7 1.382 1_556 S
C7 C6 1.382 1_554 S
C7 C8 1.392 . S
C7 N9 1.420 1_554 S
C8 H2 0.930 . S
C8 C4 1.407 . S
C8 C7 1.392 . S
N9 C7 1.420 1_556 S
N9 C10 1.244 . S
C10 N9 1.244 . S
H11 C14 0.929 . S
H12 C17 0.929 . S
H13 C19 0.930 . S
C14 H11 0.929 . S
C14 C15 1.398 . S
C14 C16 1.396 . S
C15 C14 1.398 . S
C15 C19 1.407 . S
C16 C14 1.396 . S
C16 C17 1.394 . S
C17 H12 0.929 . S
C17 C16 1.394 . S
C17 C18 1.382 . S
C18 C17 1.382 . S
C18 C19 1.392 . S
C18 N20 1.420 . S
C19 H13 0.930 . S
C19 C15 1.407 . S
C19 C18 1.392 . S
N20 C18 1.420 . S
N20 C21 1.244 . S
C21 N20 1.244 . S
H22 C25 0.929 . S
H23 C28 0.929 . S
H24 C30 0.930 . S
C25 H22 0.929 . S
C25 C26 1.398 . S
C25 C27 1.396 1_554 S
C26 C25 1.398 . S
C26 C30 1.407 . S
C27 C25 1.396 1_556 S
C27 C28 1.394 . S
C28 H23 0.929 . S
C28 C27 1.394 . S
C28 C29 1.382 1_556 S
C29 C28 1.382 1_554 S
C29 C30 1.392 . S
C29 N31 1.420 . S
C30 H24 0.930 . S
C30 C26 1.407 . S
C30 C29 1.392 . S
N31 C29 1.420 . S
N31 C32 1.244 1_554 S
C32 N31 1.244 1_556 S
H33 C36 0.929 . S
H34 C39 0.929 . S
H35 C41 0.930 . S
C36 H33 0.929 . S
C36 C37 1.398 . S
C36 C38 1.396 . S
C37 C36 1.398 . S
C37 C41 1.407 . S
C38 C36 1.396 . S
C38 C39 1.394 . S
C39 H34 0.929 . S
C39 C38 1.394 . S
C39 C40 1.382 . S
C40 C39 1.382 . S
C40 C41 1.392 . S
C40 N42 1.420 . S
C41 H35 0.930 . S
C41 C37 1.407 . S
C41 C40 1.392 . S
N42 C40 1.420 . S
N42 C43 1.244 . S
C43 N42 1.244 . S
H44 C47 0.929 1_545 S
H45 C50 0.929 . S
H46 C52 0.930 . S
C47 H44 0.929 1_565 S
C47 C48 1.398 . S
C47 C49 1.396 1_554 S
C48 C47 1.398 . S
C48 C52 1.407 . S
C49 C47 1.396 1_556 S
C49 C50 1.394 . S
C50 H45 0.929 . S
C50 C49 1.394 . S
C50 C51 1.382 1_556 S
C51 C50 1.382 1_554 S
C51 C52 1.392 . S
C51 N53 1.420 1_554 S
C52 H46 0.930 . S
C52 C48 1.407 . S
C52 C51 1.392 . S
N53 C51 1.420 1_556 S
N53 C54 1.244 . S
C54 N53 1.244 . S
H55 C58 0.929 . S
H56 C61 0.929 . S
H57 C63 0.930 . S
C58 H55 0.929 . S
C58 C59 1.398 . S
C58 C60 1.396 . S
C59 C58 1.398 . S
C59 C63 1.407 . S
C60 C58 1.396 . S
C60 C61 1.394 . S
C61 H56 0.929 . S
C61 C60 1.394 . S
C61 C62 1.382 . S
C62 C61 1.382 . S
C62 C63 1.392 . S
C62 N64 1.420 . S
C63 H57 0.930 . S
C63 C59 1.407 . S
C63 C62 1.392 . S
N64 C62 1.420 . S
N64 C65 1.244 . S
C65 N64 1.244 . S
H66 C69 0.929 . S
H67 C72 0.929 . S
H68 C74 0.930 . S
C69 H66 0.929 . S
C69 C70 1.398 . S
C69 C71 1.396 1_554 S
C70 C69 1.398 . S
C70 C74 1.407 . S
C71 C69 1.396 1_556 S
C71 C72 1.394 . S
C72 H67 0.929 . S
C72 C71 1.394 . S
C72 C73 1.382 1_556 S
C73 C72 1.382 1_554 S
C73 C74 1.392 . S
C73 N75 1.420 . S
C74 H68 0.930 . S
C74 C70 1.407 . S
C74 C73 1.392 . S
N75 C73 1.420 . S
N75 C76 1.244 1_554 S
C76 N75 1.244 1_556 S
H77 C80 0.929 . S
H78 C83 0.929 . S
H79 C85 0.930 . S
C80 H77 0.929 . S
C80 C81 1.398 . S
C80 C82 1.396 . S
C81 C80 1.398 . S
C81 C85 1.407 . S
C82 C80 1.396 . S
C82 C83 1.394 . S
C83 H78 0.929 . S
C83 C82 1.394 . S
C83 C84 1.382 . S
C84 C83 1.382 . S
C84 C85 1.392 . S
C84 N86 1.420 . S
C85 H79 0.930 . S
C85 C81 1.407 . S
C85 C84 1.392 . S
N86 C84 1.420 . S
N86 C87 1.244 . S
C87 N86 1.244 . S
Sc88 O91 2.025 . S
Sc88 O98 2.105 1_455 S
Sc88 O101 2.105 . S
Sc88 O104 2.105 . S
Sc88 O107 2.105 1_455 S
Sc89 O91 2.025 . S
Sc89 O99 2.105 1_455 S
Sc89 O103 2.105 1_565 S
Sc89 O105 2.105 . S
Sc89 O109 2.105 1_465 S
Sc90 O91 2.025 . S
Sc90 O100 2.105 1_455 S
Sc90 O102 2.105 . S
Sc90 O106 2.105 . S
Sc90 O108 2.105 1_455 S
O91 Sc88 2.025 . S
O91 Sc89 2.025 . S
O91 Sc90 2.025 . S
C92 O98 1.268 . S
C92 O108 1.268 . S
C93 O99 1.268 . S
C93 O107 1.268 . S
C94 O100 1.268 1_545 S
C94 O109 1.268 . S
C95 O101 1.268 . S
C95 O105 1.268 . S
C96 O102 1.268 . S
C96 O104 1.268 . S
C97 O103 1.268 . S
C97 O106 1.268 1_545 S
O98 Sc88 2.105 1_655 S
O98 C92 1.268 . S
O99 Sc89 2.105 1_655 S
O99 C93 1.268 . S
O100 Sc90 2.105 1_655 S
O100 C94 1.268 1_565 S
O101 Sc88 2.105 . S
O101 C95 1.268 . S
O102 Sc90 2.105 . S
O102 C96 1.268 . S
O103 Sc89 2.105 1_545 S
O103 C97 1.268 . S
O104 Sc88 2.105 . S
O104 C96 1.268 . S
O105 Sc89 2.105 . S
O105 C95 1.268 . S
O106 Sc90 2.105 . S
O106 C97 1.268 1_565 S
O107 Sc88 2.105 1_655 S
O107 C93 1.268 . S
O108 Sc90 2.105 1_655 S
O108 C92 1.268 . S
O109 Sc89 2.105 1_645 S
O109 C94 1.268 . S
Sc110 O113 2.025 . S
Sc110 O120 2.105 . S
Sc110 O123 2.105 1_455 S
Sc110 O126 2.105 1_455 S
Sc110 O129 2.105 . S
Sc111 O113 2.025 . S
Sc111 O121 2.105 . S
Sc111 O125 2.105 1_445 S
Sc111 O127 2.105 1_455 S
Sc111 O131 2.105 1_545 S
Sc112 O113 2.025 . S
Sc112 O122 2.105 . S
Sc112 O124 2.105 1_455 S
Sc112 O128 2.105 1_455 S
Sc112 O130 2.105 . S
O113 Sc110 2.025 . S
O113 Sc111 2.025 . S
O113 Sc112 2.025 . S
C114 O120 1.268 . S
C114 O130 1.268 . S
C115 O121 1.268 . S
C115 O129 1.268 . S
C116 O122 1.268 . S
C116 O131 1.268 1_545 S
C117 O123 1.268 . S
C117 O127 1.268 . S
C118 O124 1.268 . S
C118 O126 1.268 . S
C119 O125 1.268 . S
C119 O128 1.268 1_565 S
O120 Sc110 2.105 . S
O120 C114 1.268 . S
O121 Sc111 2.105 . S
O121 C115 1.268 . S
O122 Sc112 2.105 . S
O122 C116 1.268 . S
O123 Sc110 2.105 1_655 S
O123 C117 1.268 . S
O124 Sc112 2.105 1_655 S
O124 C118 1.268 . S
O125 Sc111 2.105 1_665 S
O125 C119 1.268 . S
O126 Sc110 2.105 1_655 S
O126 C118 1.268 . S
O127 Sc111 2.105 1_655 S
O127 C117 1.268 . S
O128 Sc112 2.105 1_655 S
O128 C119 1.268 1_545 S
O129 Sc110 2.105 . S
O129 C115 1.268 . S
O130 Sc112 2.105 . S
O130 C114 1.268 . S
O131 Sc111 2.105 1_565 S
O131 C116 1.268 1_565 S
Sc132 O135 2.025 . S
Sc132 O142 2.105 . S
Sc132 O145 2.105 . S
Sc132 O148 2.105 . S
Sc132 O151 2.105 . S
Sc133 O135 2.025 . S
Sc133 O143 2.105 . S
Sc133 O147 2.105 . S
Sc133 O149 2.105 . S
Sc133 O153 2.105 . S
Sc134 O135 2.025 . S
Sc134 O144 2.105 . S
Sc134 O146 2.105 . S
Sc134 O150 2.105 . S
Sc134 O152 2.105 . S
O135 Sc132 2.025 . S
O135 Sc133 2.025 . S
O135 Sc134 2.025 . S
C136 O142 1.268 . S
C136 O152 1.268 . S
C137 O143 1.268 . S
C137 O151 1.268 . S
C138 O144 1.268 . S
C138 O153 1.268 . S
C139 O145 1.268 . S
C139 O149 1.268 . S
C140 O146 1.268 . S
C140 O148 1.268 . S
C141 O147 1.268 . S
C141 O150 1.268 . S
O142 Sc132 2.105 . S
O142 C136 1.268 . S
O143 Sc133 2.105 . S
O143 C137 1.268 . S
O144 Sc134 2.105 . S
O144 C138 1.268 . S
O145 Sc132 2.105 . S
O145 C139 1.268 . S
O146 Sc134 2.105 . S
O146 C140 1.268 . S
O147 Sc133 2.105 . S
O147 C141 1.268 . S
O148 Sc132 2.105 . S
O148 C140 1.268 . S
O149 Sc133 2.105 . S
O149 C139 1.268 . S
O150 Sc134 2.105 . S
O150 C141 1.268 . S
O151 Sc132 2.105 . S
O151 C137 1.268 . S
O152 Sc134 2.105 . S
O152 C136 1.268 . S
O153 Sc133 2.105 . S
O153 C138 1.268 . S
Sc154 O157 2.025 . S
Sc154 O164 2.105 . S
Sc154 O167 2.105 . S
Sc154 O170 2.105 . S
Sc154 O173 2.105 . S
Sc155 O157 2.025 . S
Sc155 O165 2.105 . S
Sc155 O169 2.105 . S
Sc155 O171 2.105 . S
Sc155 O175 2.105 . S
Sc156 O157 2.025 . S
Sc156 O166 2.105 . S
Sc156 O168 2.105 . S
Sc156 O172 2.105 . S
Sc156 O174 2.105 . S
O157 Sc154 2.025 . S
O157 Sc155 2.025 . S
O157 Sc156 2.025 . S
C158 O164 1.268 . S
C158 O174 1.268 . S
C159 O165 1.268 . S
C159 O173 1.268 . S
C160 O166 1.268 . S
C160 O175 1.268 . S
C161 O167 1.268 . S
C161 O171 1.268 . S
C162 O168 1.268 . S
C162 O170 1.268 . S
C163 O169 1.268 . S
C163 O172 1.268 . S
O164 Sc154 2.105 . S
O164 C158 1.268 . S
O165 Sc155 2.105 . S
O165 C159 1.268 . S
O166 Sc156 2.105 . S
O166 C160 1.268 . S
O167 Sc154 2.105 . S
O167 C161 1.268 . S
O168 Sc156 2.105 . S
O168 C162 1.268 . S
O169 Sc155 2.105 . S
O169 C163 1.268 . S
O170 Sc154 2.105 . S
O170 C162 1.268 . S
O171 Sc155 2.105 . S
O171 C161 1.268 . S
O172 Sc156 2.105 . S
O172 C163 1.268 . S
O173 Sc154 2.105 . S
O173 C159 1.268 . S
O174 Sc156 2.105 . S
O174 C158 1.268 . S
O175 Sc155 2.105 . S
O175 C160 1.268 . S
C10 C114 1.525 . S
C92 C21 1.527 . S
C118 C32 1.601 . S
C96 C43 1.471 . S
C158 C54 1.525 . S
C136 C65 1.527 . S
C76 C162 1.601 . S
C140 C87 1.471 . S
C5 C163 1.549 . S
C141 C16 1.483 . S
C27 C160 1.644 . S
C37 C138 1.453 . S
C119 C49 1.548 . S
C60 C97 1.483 . S
C116 C71 1.645 1_545 S
C94 C81 1.453 . S
C137 C4 1.484 . S
C159 C15 1.514 . S
C26 C139 1.502 . S
C161 C38 1.466 . S
C93 C48 1.484 . S
C59 C115 1.513 . S
C70 C95 1.503 . S
C82 C117 1.466 . S
