# Generated by pormake.
# Topology tsx, (6,3)-cn, num edge types: 1
# Building blocks:
#     Node 0, Type 0, BuildingBlock: MIDCAF_clean_sbu_0, # of connection points: 6
#     Node 1, Type 0, BuildingBlock: MIDCAF_clean_sbu_0, # of connection points: 6
#     Node 2, Type 1, BuildingBlock: QEWDON_clean_linker_0, # of connection points: 3
#     Node 3, Type 1, BuildingBlock: QEWDON_clean_linker_0, # of connection points: 3
#     Node 4, Type 1, BuildingBlock: QEWDON_clean_linker_0, # of connection points: 3
#     Node 5, Type 1, BuildingBlock: QEWDON_clean_linker_0, # of connection points: 3
#     Edge 6, Type (0, 1), BuildingBlock: AJUNOK_clean_linker_0, # of connection points: 2
#     Edge 7, Type (0, 1), BuildingBlock: AJUNOK_clean_linker_0, # of connection points: 2
#     Edge 8, Type (0, 1), BuildingBlock: AJUNOK_clean_linker_0, # of connection points: 2
#     Edge 9, Type (0, 1), BuildingBlock: AJUNOK_clean_linker_0, # of connection points: 2
#     Edge 10, Type (0, 1), BuildingBlock: AJUNOK_clean_linker_0, # of connection points: 2
#     Edge 11, Type (0, 1), BuildingBlock: AJUNOK_clean_linker_0, # of connection points: 2
#     Edge 12, Type (0, 1), BuildingBlock: AJUNOK_clean_linker_0, # of connection points: 2
#     Edge 13, Type (0, 1), BuildingBlock: AJUNOK_clean_linker_0, # of connection points: 2
#     Edge 14, Type (0, 1), BuildingBlock: AJUNOK_clean_linker_0, # of connection points: 2
#     Edge 15, Type (0, 1), BuildingBlock: AJUNOK_clean_linker_0, # of connection points: 2
#     Edge 16, Type (0, 1), BuildingBlock: AJUNOK_clean_linker_0, # of connection points: 2
#     Edge 17, Type (0, 1), BuildingBlock: AJUNOK_clean_linker_0, # of connection points: 2
# Relax obj value: 0.088
# Max RMSD: 0.147
# Mean RMSD: 0.144
data_MOF--net-tsx--node1-MIDCAF_clean_sbu_0--node2-QEWDON_clean_linker_0--edge1-AJUNOK_clean_linker_0
_symmetry_space_group_name_H-M    P1
_symmetry_Int_Tables_number       1
_symmetry_cell_setting            triclinic
loop_
_symmetry_equiv_pos_as_xyz
'x, y, z'
_cell_length_a     16.400345
_cell_length_b     16.865047
_cell_length_c     25.593675
_cell_angle_alpha  90.573603
_cell_angle_beta   109.92085
_cell_angle_gamma 90.145735
loop_
_atom_site_label
_atom_site_type_symbol
_atom_site_fract_x
_atom_site_fract_y
_atom_site_fract_z
_atom_type_partial_charge
Zn0 Zn 0.0066 0.91632 0.94149 0.0
Zn1 Zn 0.20645 0.01257 0.07822 0.0
Zn2 Zn 0.08108 0.96677 0.0216 0.0
C3 C 0.12325 0.1438 0.02657 0.0
C4 C 0.2597 0.89538 0.03171 0.0
O5 O 0.97058 0.88465 0.02106 0.0
O6 O 0.97279 0.80741 0.9524 0.0
C7 C 0.91665 0.0284 0.99796 0.0
O8 O 0.08916 0.08746 0.99175 0.0
O9 O 0.1749 0.12655 0.07407 0.0
O10 O 0.28423 0.96685 0.04009 0.0
O11 O 0.18344 0.87717 0.03136 0.0
O12 O 0.92203 0.00863 0.95091 0.0
O13 O 0.96963 -0.00322 0.04211 0.0
O14 O 0.07917 0.03855 0.94774 0.0
O15 O 0.08766 0.9338 0.89908 0.0
C16 C 0.09001 0.00821 0.9043 0.0
O17 O 0.06221 -0.00303 0.09993 0.0
O18 O 0.19535 0.95864 0.14392 0.0
C19 C 0.94376 0.82183 0.99123 0.0
C20 C 0.12204 0.97891 0.14536 0.0
Zn21 Zn 0.69027 0.49482 0.57838 0.0
Zn22 Zn 0.42043 0.51348 0.44001 0.0
Zn23 Zn 0.55851 0.49817 0.513 0.0
C24 C 0.5055 0.43578 0.38362 0.0
C25 C 0.47001 0.66243 0.47052 0.0
O26 O 0.55224 0.43686 0.58993 0.0
O27 O 0.68549 0.39414 0.61595 0.0
C28 C 0.72804 0.44976 0.49362 0.0
O29 O 0.56501 0.45028 0.43098 0.0
O30 O 0.42767 0.45063 0.3774 0.0
O31 O 0.41391 0.62823 0.4302 0.0
O32 O 0.52871 0.62245 0.50641 0.0
O33 O 0.76188 0.50169 0.53017 0.0
O34 O 0.64608 0.43673 0.47931 0.0
O35 O 0.61517 0.61943 0.54399 0.0
O36 O 0.706 0.58892 0.62618 0.0
C37 C 0.67209 0.64122 0.59077 0.0
O38 O 0.46723 0.42787 0.54015 0.0
O39 O 0.34604 0.46964 0.47756 0.0
C40 C 0.61574 0.4008 0.62599 0.0
C41 C 0.38396 0.42785 0.51915 0.0
H42 H 0.08452 0.07337 0.39166 0.0
C43 C 0.13515 0.03094 0.41049 0.0
C44 C 0.16913 -0.01146 0.37575 0.0
C45 C 0.17128 0.02332 0.4689 0.0
H46 H 0.26511 0.90549 0.37175 0.0
C47 C 0.2394 0.93886 0.39907 0.0
C48 C 0.27762 0.93283 0.45689 0.0
C49 C 0.2433 0.97492 0.49185 0.0
C50 C 0.13843 0.0728 0.50482 0.0
H51 H 0.2727 0.97004 0.53653 0.0
C52 C 0.03307 0.09928 0.47785 0.0
C53 C -0.00234 0.21477 0.53602 0.0
C54 C 0.20711 0.11704 0.5637 0.0
H55 H 0.27406 0.09844 0.5771 0.0
C56 C 0.18492 0.19135 0.60292 0.0
H57 H 0.99362 0.06863 0.43961 0.0
C58 C 0.08889 0.23884 0.59151 0.0
H59 H 0.08608 0.28685 0.61918 0.0
H60 H 0.23868 0.21161 0.63853 0.0
H61 H -0.0008 0.12962 0.64556 0.0
C62 C 0.95351 0.08054 0.63591 0.0
C63 C 0.92907 0.05064 0.67867 0.0
C64 C 0.92203 0.04713 0.58208 0.0
H65 H 0.84886 0.96659 0.70077 0.0
C66 C 0.8679 -0.01051 0.66716 0.0
C67 C 0.83958 0.95125 0.61485 0.0
C68 C 0.86451 0.98225 0.57134 0.0
C69 C 0.95667 0.08063 0.54073 0.0
H70 H 0.84408 0.95335 0.5309 0.0
C71 C 0.06353 0.10441 0.56671 0.0
C72 C 0.10465 0.20946 0.50443 0.0
C73 C 0.89026 0.12036 0.48032 0.0
H74 H 0.82246 0.10395 0.46806 0.0
C75 C 0.91591 0.18774 0.43837 0.0
H76 H 0.10097 0.07766 0.60651 0.0
C77 C 0.01435 0.23109 0.44803 0.0
H78 H 0.01945 0.27463 0.41853 0.0
H79 H 0.86302 0.2062 0.4021 0.0
H80 H 0.59804 0.4986 0.86953 0.0
C81 C 0.62755 0.44521 0.89086 0.0
C82 C 0.64224 0.38109 0.85976 0.0
C83 C 0.65662 0.44284 0.94957 0.0
H84 H 0.69491 0.26417 0.86343 0.0
C85 C 0.68167 0.31267 0.8875 0.0
C86 C 0.709 0.30748 0.94571 0.0
C87 C 0.69848 0.37394 0.97677 0.0
C88 C 0.64135 0.51201 0.98174 0.0
H89 H 0.72057 0.37117 0.02172 0.0
C90 C 0.54072 0.55264 0.96039 0.0
C91 C 0.53107 0.66941 0.02754 0.0
C92 C 0.72099 0.54675 0.03952 0.0
H93 H 0.78291 0.51729 0.05001 0.0
C94 C 0.71577 0.62203 0.08379 0.0
H95 H 0.493 0.5265 0.92316 0.0
C96 C 0.62939 0.68063 0.07988 0.0
H97 H 0.6368 0.72606 0.11132 0.0
H98 H 0.77465 0.63403 0.11835 0.0
H99 H 0.53786 0.50874 0.13901 0.0
C100 C 0.47582 0.48069 0.11839 0.0
C101 C 0.43689 0.43723 0.15039 0.0
C102 C 0.43361 0.49048 0.06063 0.0
H103 H 0.32588 0.36513 0.1461 0.0
C104 C 0.35638 0.40043 0.12271 0.0
C105 C 0.31523 0.40757 0.06483 0.0
C106 C 0.35316 0.45437 0.03462 0.0
C107 C 0.47198 0.54049 0.02775 0.0
H108 H 0.32073 0.46039 0.99032 0.0
C109 C 0.58143 0.55107 0.05008 0.0
C110 C 0.62869 0.65264 0.98862 0.0
C111 C 0.40723 0.59118 0.97166 0.0
H112 H 0.33802 0.58327 0.96078 0.0
C113 C 0.43726 0.65685 0.93108 0.0
H114 H 0.61899 0.51641 0.08602 0.0
C115 C 0.53886 0.68755 0.9375 0.0
H116 H 0.54685 0.7311 0.90885 0.0
H117 H 0.38502 0.68293 0.89765 0.0
C118 C 0.11667 0.28467 0.04596 0.0
C119 C 0.12606 0.22563 0.00937 0.0
C120 C 0.17203 0.35058 0.05909 0.0
C121 C 0.23756 0.35886 0.03566 0.0
H122 H 0.0761 0.27389 0.07091 0.0
H123 H 0.16985 0.39025 0.09216 0.0
S124 S 0.26764 0.23253 0.92396 0.0
N125 N 0.18799 0.18968 0.93906 0.0
N126 N 0.29431 0.31222 0.96429 0.0
C127 C 0.23624 0.30771 0.99147 0.0
C128 C 0.17871 0.24147 0.97765 0.0
C129 C 0.38174 0.85246 1.00049 0.0
C130 C 0.32396 0.83514 0.02888 0.0
C131 C 0.44959 0.80081 1.00189 0.0
C132 C 0.4619 0.72873 0.03101 0.0
H133 H 0.37477 0.90684 0.97722 0.0
H134 H 0.49217 0.81746 0.97951 0.0
S135 S 0.34394 0.66841 0.12531 0.0
N136 N 0.29258 0.74848 0.09465 0.0
N137 N 0.42285 0.65422 0.09993 0.0
C138 C 0.40954 0.71506 0.06387 0.0
C139 C 0.33916 0.76677 0.06146 0.0
C140 C 0.81523 0.80497 0.02212 0.0
C141 C 0.86872 0.77449 0.99401 0.0
C142 C 0.73763 0.76661 0.01897 0.0
C143 C 0.71211 0.69412 0.98979 0.0
H144 H 0.83156 0.86051 0.04503 0.0
H145 H 0.69723 0.79462 0.03941 0.0
S146 S 0.82089 0.59656 0.90106 0.0
N147 N 0.88524 0.67167 0.93071 0.0
N148 N 0.73928 0.6013 0.92475 0.0
C149 C 0.76239 0.66556 0.95904 0.0
C150 C 0.84125 0.70453 0.96189 0.0
C151 C 0.88856 0.16605 0.02465 0.0
C152 C 0.85585 0.0924 0.99973 0.0
C153 C 0.83811 0.23548 0.01093 0.0
C154 C 0.75305 0.23315 0.97218 0.0
H155 H 0.95583 0.17128 0.05108 0.0
H156 H 0.86817 0.2919 0.02734 0.0
S157 S 0.63248 0.05209 0.90426 0.0
N158 N 0.73023 0.01973 0.94044 0.0
N159 N 0.63442 0.14858 0.91637 0.0
C160 C 0.71722 0.15832 0.95169 0.0
C161 C 0.76887 0.08839 0.96493 0.0
C162 C 0.6806 0.78015 0.55789 0.0
C163 C 0.70905 0.72289 0.59985 0.0
C164 C 0.72203 0.85427 0.56281 0.0
C165 C 0.79507 0.87309 0.60938 0.0
H166 H 0.6279 0.76676 0.52007 0.0
H167 H 0.69728 0.89672 0.52973 0.0
S168 S 0.90324 0.74068 0.72801 0.0
N169 N 0.81796 0.68985 0.68888 0.0
N170 N 0.8997 0.82529 0.69569 0.0
C171 C 0.8261 0.8154 0.65085 0.0
C172 C 0.78224 0.74142 0.64677 0.0
C173 C 0.86524 0.40242 0.48624 0.0
C174 C 0.78539 0.38471 0.49201 0.0
C175 C 0.93367 0.34881 0.5033 0.0
C176 C 0.92508 0.27522 0.52667 0.0
H177 H 0.87596 0.45957 0.47061 0.0
H178 H 0.99331 0.36516 0.49714 0.0
S179 S 0.73341 0.20987 0.56173 0.0
N180 N 0.70286 0.29298 0.52741 0.0
N181 N 0.83427 0.19637 0.56453 0.0
C182 C 0.847 0.2599 0.53623 0.0
C183 C 0.77597 0.31282 0.5166 0.0
C184 C 0.2594 0.38903 0.54565 0.0
C185 C 0.33031 0.36581 0.53062 0.0
C186 C 0.18712 0.33938 0.53557 0.0
C187 C 0.18276 0.26369 0.51059 0.0
H188 H 0.25749 0.44815 0.56219 0.0
H189 H 0.13426 0.36153 0.54739 0.0
S190 S 0.34741 0.1819 0.45502 0.0
N191 N 0.39016 0.26632 0.48531 0.0
N192 N 0.25263 0.17442 0.46386 0.0
C193 C 0.2525 0.24151 0.49337 0.0
C194 C 0.32713 0.29152 0.50486 0.0
C195 C 0.46244 0.80653 0.45652 0.0
C196 C 0.44918 0.74068 0.48537 0.0
C197 C 0.41493 0.8754 0.4548 0.0
C198 C 0.34968 0.8776 0.47904 0.0
H199 H 0.50425 0.80255 0.4317 0.0
H200 H 0.4221 0.92368 0.42902 0.0
S201 S 0.29885 0.72157 0.56434 0.0
N202 N 0.37718 0.6841 0.54502 0.0
N203 N 0.28185 0.81148 0.53798 0.0
C204 C 0.34242 0.8147 0.51265 0.0
C205 C 0.39344 0.74603 0.51626 0.0
C206 C 0.05912 0.95772 0.22086 0.0
C207 C 0.11683 -0.00212 0.20032 0.0
C208 C 0.07138 0.95993 0.2781 0.0
C209 C 0.14102 0.00286 0.31553 0.0
H210 H 0.00883 0.91983 0.19351 0.0
H211 H 0.03008 0.92381 0.29361 0.0
S212 S 0.30318 0.12483 0.28108 0.0
N213 N 0.24045 0.08757 0.22084 0.0
N214 N 0.26301 0.09121 0.32768 0.0
C215 C 0.19456 0.04778 0.29463 0.0
C216 C 0.18245 0.04549 0.23704 0.0
C217 C 0.98517 0.08707 0.83228 0.0
C218 C 0.06842 0.05345 0.85285 0.0
C219 C 0.94172 0.09347 0.77492 0.0
C220 C 0.98173 0.06899 0.737 0.0
H221 H 0.94913 0.09873 0.85999 0.0
H222 H 0.87434 0.11132 0.76012 0.0
S223 S 0.2061 -0.00592 0.77114 0.0
N224 N 0.19387 0.00742 0.83206 0.0
N225 N 0.1141 0.02244 0.72424 0.0
C226 C 0.0692 0.04582 0.75757 0.0
C227 C 0.11241 0.03768 0.81574 0.0
C228 C 0.54525 0.3876 0.70036 0.0
C229 C 0.62024 0.39115 0.68514 0.0
C230 C 0.55133 0.38588 0.75693 0.0
C231 C 0.6325 0.38902 0.80001 0.0
H232 H 0.48169 0.38614 0.66845 0.0
H233 H 0.49251 0.38141 0.76701 0.0
S234 S 0.84777 0.40666 0.78408 0.0
N235 N 0.77857 0.40237 0.71989 0.0
N236 N 0.78802 0.40036 0.82424 0.0
C237 C 0.70719 0.39442 0.78551 0.0
C238 C 0.70162 0.39513 0.7287 0.0
C239 C 0.49243 0.3584 0.29803 0.0
C240 C 0.52433 0.42589 0.33147 0.0
C241 C 0.47103 0.36081 0.23992 0.0
C242 C 0.47763 0.4317 0.21259 0.0
H243 H 0.47738 0.30517 0.3164 0.0
H244 H 0.44415 0.30774 0.21603 0.0
S245 S 0.56172 0.62422 0.28267 0.0
N246 N 0.56789 0.56358 0.33407 0.0
N247 N 0.52325 0.57029 0.22525 0.0
C248 C 0.51488 0.49825 0.24626 0.0
C249 C 0.53918 0.49475 0.30551 0.0
loop_
_geom_bond_atom_site_label_1
_geom_bond_atom_site_label_2
_geom_bond_distance
_geom_bond_site_symmetry_2
_ccdc_geom_bond_type
Zn0 O6 1.920 1_545 S
Zn0 O12 1.898 . S
Zn0 O15 1.905 1_545 S
Zn1 O9 1.905 . S
Zn1 O10 1.898 1_545 S
Zn1 O18 1.920 1_545 S
Zn2 O5 2.080 1_444 S
Zn2 O8 2.114 . S
Zn2 O11 2.120 1_545 S
Zn2 O13 2.120 1_455 S
Zn2 O14 2.114 1_554 S
Zn2 O17 2.080 . S
C3 O8 1.166 . S
C3 O9 1.182 . S
C4 O10 1.167 . S
C4 O11 1.299 . S
O5 Zn2 2.080 1_666 S
O5 C19 1.305 . S
O6 Zn0 1.920 1_565 S
O6 C19 1.234 . S
C7 O12 1.167 . S
C7 O13 1.299 1_556 S
O8 Zn2 2.114 . S
O8 C3 1.166 . S
O9 Zn1 1.905 . S
O9 C3 1.182 . S
O10 Zn1 1.898 1_565 S
O10 C4 1.167 . S
O11 Zn2 2.120 1_565 S
O11 C4 1.299 . S
O12 Zn0 1.898 . S
O12 C7 1.167 . S
O13 Zn2 2.120 1_655 S
O13 C7 1.299 1_554 S
O14 Zn2 2.114 1_556 S
O14 C16 1.166 1_445 S
O15 Zn0 1.905 1_565 S
O15 C16 1.182 . S
C16 O14 1.166 1_665 S
C16 O15 1.182 . S
O17 Zn2 2.080 . S
O17 C20 1.305 1_545 S
O18 Zn1 1.920 1_565 S
O18 C20 1.234 . S
C19 O5 1.305 . S
C19 O6 1.234 . S
C20 O17 1.305 1_565 S
C20 O18 1.234 . S
Zn21 O27 1.920 . S
Zn21 O33 1.898 . S
Zn21 O36 1.905 . S
Zn22 O30 1.905 . S
Zn22 O31 1.898 . S
Zn22 O39 1.920 . S
Zn23 O26 2.080 . S
Zn23 O29 2.114 . S
Zn23 O32 2.120 . S
Zn23 O34 2.120 . S
Zn23 O35 2.114 . S
Zn23 O38 2.080 . S
C24 O29 1.166 . S
C24 O30 1.182 . S
C25 O31 1.167 . S
C25 O32 1.299 . S
O26 Zn23 2.080 . S
O26 C40 1.305 . S
O27 Zn21 1.920 . S
O27 C40 1.234 . S
C28 O33 1.167 . S
C28 O34 1.299 . S
O29 Zn23 2.114 . S
O29 C24 1.166 . S
O30 Zn22 1.905 . S
O30 C24 1.182 . S
O31 Zn22 1.898 . S
O31 C25 1.167 . S
O32 Zn23 2.120 . S
O32 C25 1.299 . S
O33 Zn21 1.898 . S
O33 C28 1.167 . S
O34 Zn23 2.120 . S
O34 C28 1.299 . S
O35 Zn23 2.114 . S
O35 C37 1.166 . S
O36 Zn21 1.905 . S
O36 C37 1.182 . S
C37 O35 1.166 . S
C37 O36 1.182 . S
O38 Zn23 2.080 . S
O38 C41 1.305 . S
O39 Zn22 1.920 . S
O39 C41 1.234 . S
C40 O26 1.305 . S
C40 O27 1.234 . S
C41 O38 1.305 . S
C41 O39 1.234 . S
H42 C43 0.949 . S
C43 H42 0.949 . S
C43 C44 1.395 . S
C43 C45 1.391 . S
C44 C43 1.395 . S
C44 C47 1.390 1_545 S
C45 C43 1.391 . S
C45 C49 1.387 1_545 S
C45 C50 1.491 . S
H46 C47 0.950 . S
C47 C44 1.390 1_565 S
C47 H46 0.950 . S
C47 C48 1.378 . S
C48 C47 1.378 . S
C48 C49 1.409 . S
C49 C45 1.387 1_565 S
C49 C48 1.409 . S
C49 H51 0.951 . S
C50 C45 1.491 . S
C50 C52 1.382 . S
C50 C54 1.404 . S
H51 C49 0.951 . S
C52 C50 1.382 . S
C52 C53 1.390 1_455 S
C52 H57 0.949 1_455 S
C53 C52 1.390 1_655 S
C53 C58 1.399 1_655 S
C54 C50 1.404 . S
C54 H55 0.950 . S
C54 C56 1.375 . S
H55 C54 0.950 . S
C56 C54 1.375 . S
C56 C58 1.382 . S
C56 H60 0.950 . S
H57 C52 0.949 1_655 S
C58 C53 1.399 1_455 S
C58 C56 1.382 . S
C58 H59 0.952 . S
H59 C58 0.952 . S
H60 C56 0.950 . S
H61 C62 0.949 . S
C62 H61 0.949 . S
C62 C63 1.395 1_455 S
C62 C64 1.391 1_455 S
C63 C62 1.395 1_655 S
C63 C66 1.390 1_545 S
C64 C62 1.391 1_655 S
C64 C68 1.387 1_545 S
C64 C69 1.491 1_655 S
H65 C66 0.950 . S
C66 C63 1.390 1_565 S
C66 H65 0.950 . S
C66 C67 1.378 . S
C67 C66 1.378 . S
C67 C68 1.409 . S
C68 C64 1.387 1_565 S
C68 C67 1.409 . S
C68 H70 0.951 . S
C69 C64 1.491 1_455 S
C69 C71 1.382 . S
C69 C73 1.404 1_455 S
H70 C68 0.951 . S
C71 C69 1.382 . S
C71 C72 1.390 . S
C71 H76 0.949 . S
C72 C71 1.390 . S
C72 C77 1.399 . S
C73 C69 1.404 1_655 S
C73 H74 0.950 . S
C73 C75 1.375 . S
H74 C73 0.950 . S
C75 C73 1.375 . S
C75 C77 1.382 1_655 S
C75 H79 0.950 . S
H76 C71 0.949 . S
C77 C72 1.399 . S
C77 C75 1.382 1_455 S
C77 H78 0.952 . S
H78 C77 0.952 . S
H79 C75 0.950 . S
H80 C81 0.949 . S
C81 H80 0.949 . S
C81 C82 1.395 . S
C81 C83 1.391 . S
C82 C81 1.395 . S
C82 C85 1.390 . S
C83 C81 1.391 . S
C83 C87 1.387 . S
C83 C88 1.491 . S
H84 C85 0.950 . S
C85 C82 1.390 . S
C85 H84 0.950 . S
C85 C86 1.378 . S
C86 C85 1.378 . S
C86 C87 1.409 . S
C87 C83 1.387 . S
C87 C86 1.409 . S
C87 H89 0.951 1_556 S
C88 C83 1.491 . S
C88 C90 1.382 . S
C88 C92 1.404 1_556 S
H89 C87 0.951 1_554 S
C90 C88 1.382 . S
C90 C91 1.400 . S
C90 H95 0.949 . S
C91 C90 1.400 . S
C91 C96 1.388 1_556 S
C92 C88 1.404 1_554 S
C92 H93 0.950 . S
C92 C94 1.375 . S
H93 C92 0.950 . S
C94 C92 1.375 . S
C94 C96 1.382 . S
C94 H98 0.950 . S
H95 C90 0.949 . S
C96 C91 1.388 1_554 S
C96 C94 1.382 . S
C96 H97 0.952 . S
H97 C96 0.952 . S
H98 C94 0.950 . S
H99 C100 0.949 . S
C100 H99 0.949 . S
C100 C101 1.395 . S
C100 C102 1.391 . S
C101 C100 1.395 . S
C101 C104 1.390 . S
C102 C100 1.391 . S
C102 C106 1.387 . S
C102 C107 1.491 . S
H103 C104 0.950 . S
C104 C101 1.390 . S
C104 H103 0.950 . S
C104 C105 1.378 . S
C105 C104 1.378 . S
C105 C106 1.409 . S
C106 C102 1.387 . S
C106 C105 1.409 . S
C106 H108 0.951 . S
C107 C102 1.491 . S
C107 C109 1.382 . S
C107 C111 1.404 1_554 S
H108 C106 0.951 . S
C109 C107 1.382 . S
C109 C110 1.390 . S
C109 H114 0.949 . S
C110 C109 1.390 . S
C110 C115 1.399 1_554 S
C111 C107 1.404 1_556 S
C111 H112 0.950 . S
C111 C113 1.375 . S
H112 C111 0.950 . S
C113 C111 1.375 . S
C113 C115 1.382 . S
C113 H117 0.950 . S
H114 C109 0.949 . S
C115 C110 1.399 1_556 S
C115 C113 1.382 . S
C115 H116 0.952 . S
H116 C115 0.952 . S
H117 C113 0.950 . S
C118 C119 1.369 . S
C118 C120 1.419 . S
C118 H122 0.930 . S
C119 C118 1.369 . S
C119 C128 1.429 . S
C120 C118 1.419 . S
C120 C121 1.363 . S
C120 H123 0.929 . S
C121 C120 1.363 . S
C121 C127 1.428 . S
H122 C118 0.930 . S
H123 C120 0.929 . S
S124 N125 1.613 . S
S124 N126 1.610 . S
N125 S124 1.613 . S
N125 C128 1.350 1_556 S
N126 S124 1.610 . S
N126 C127 1.351 1_556 S
C127 C121 1.428 . S
C127 N126 1.351 1_554 S
C127 C128 1.434 . S
C128 C119 1.429 . S
C128 N125 1.350 1_554 S
C128 C127 1.434 . S
C129 C130 1.369 . S
C129 C131 1.419 . S
C129 H133 0.930 . S
C130 C129 1.369 . S
C130 C139 1.429 1_556 S
C131 C129 1.419 . S
C131 C132 1.363 . S
C131 H134 0.929 . S
C132 C131 1.363 . S
C132 C138 1.428 1_556 S
H133 C129 0.930 . S
H134 C131 0.929 . S
S135 N136 1.613 . S
S135 N137 1.610 . S
N136 S135 1.613 . S
N136 C139 1.350 . S
N137 S135 1.610 . S
N137 C138 1.351 . S
C138 C132 1.428 1_554 S
C138 N137 1.351 . S
C138 C139 1.434 . S
C139 C130 1.429 1_554 S
C139 N136 1.350 . S
C139 C138 1.434 . S
C140 C141 1.369 . S
C140 C142 1.419 . S
C140 H144 0.930 1_554 S
C141 C140 1.369 . S
C141 C150 1.429 . S
C142 C140 1.419 . S
C142 C143 1.363 . S
C142 H145 0.930 1_554 S
C143 C142 1.363 . S
C143 C149 1.428 . S
H144 C140 0.930 1_556 S
H145 C142 0.930 1_556 S
S146 N147 1.613 . S
S146 N148 1.610 . S
N147 S146 1.613 . S
N147 C150 1.350 . S
N148 S146 1.610 . S
N148 C149 1.351 . S
C149 C143 1.428 . S
C149 N148 1.351 . S
C149 C150 1.434 . S
C150 C141 1.429 . S
C150 N147 1.350 . S
C150 C149 1.434 . S
C151 C152 1.369 . S
C151 C153 1.419 . S
C151 H155 0.930 1_556 S
C152 C151 1.369 . S
C152 C161 1.429 . S
C153 C151 1.419 . S
C153 C154 1.363 . S
C153 H156 0.929 . S
C154 C153 1.363 . S
C154 C160 1.428 . S
H155 C151 0.930 1_554 S
H156 C153 0.929 . S
S157 N158 1.613 . S
S157 N159 1.610 . S
N158 S157 1.613 . S
N158 C161 1.350 . S
N159 S157 1.610 . S
N159 C160 1.351 . S
C160 C154 1.428 . S
C160 N159 1.351 . S
C160 C161 1.434 . S
C161 C152 1.429 . S
C161 N158 1.350 . S
C161 C160 1.434 . S
C162 C163 1.369 . S
C162 C164 1.419 . S
C162 H166 0.930 . S
C163 C162 1.369 . S
C163 C172 1.429 . S
C164 C162 1.419 . S
C164 C165 1.363 . S
C164 H167 0.929 . S
C165 C164 1.363 . S
C165 C171 1.428 . S
H166 C162 0.930 . S
H167 C164 0.929 . S
S168 N169 1.613 . S
S168 N170 1.610 . S
N169 S168 1.613 . S
N169 C172 1.350 . S
N170 S168 1.610 . S
N170 C171 1.351 . S
C171 C165 1.428 . S
C171 N170 1.351 . S
C171 C172 1.434 . S
C172 C163 1.429 . S
C172 N169 1.350 . S
C172 C171 1.434 . S
C173 C174 1.369 . S
C173 C175 1.419 . S
C173 H177 0.930 . S
C174 C173 1.369 . S
C174 C183 1.429 . S
C175 C173 1.419 . S
C175 C176 1.363 . S
C175 H178 0.929 . S
C176 C175 1.363 . S
C176 C182 1.428 . S
H177 C173 0.930 . S
H178 C175 0.929 . S
S179 N180 1.613 . S
S179 N181 1.610 . S
N180 S179 1.613 . S
N180 C183 1.350 . S
N181 S179 1.610 . S
N181 C182 1.351 . S
C182 C176 1.428 . S
C182 N181 1.351 . S
C182 C183 1.434 . S
C183 C174 1.429 . S
C183 N180 1.350 . S
C183 C182 1.434 . S
C184 C185 1.369 . S
C184 C186 1.419 . S
C184 H188 0.930 . S
C185 C184 1.369 . S
C185 C194 1.429 . S
C186 C184 1.419 . S
C186 C187 1.363 . S
C186 H189 0.929 . S
C187 C186 1.363 . S
C187 C193 1.428 . S
H188 C184 0.930 . S
H189 C186 0.929 . S
S190 N191 1.613 . S
S190 N192 1.610 . S
N191 S190 1.613 . S
N191 C194 1.350 . S
N192 S190 1.610 . S
N192 C193 1.351 . S
C193 C187 1.428 . S
C193 N192 1.351 . S
C193 C194 1.434 . S
C194 C185 1.429 . S
C194 N191 1.350 . S
C194 C193 1.434 . S
C195 C196 1.369 . S
C195 C197 1.419 . S
C195 H199 0.930 . S
C196 C195 1.369 . S
C196 C205 1.429 . S
C197 C195 1.419 . S
C197 C198 1.363 . S
C197 H200 0.929 . S
C198 C197 1.363 . S
C198 C204 1.428 . S
H199 C195 0.930 . S
H200 C197 0.929 . S
S201 N202 1.613 . S
S201 N203 1.610 . S
N202 S201 1.613 . S
N202 C205 1.350 . S
N203 S201 1.610 . S
N203 C204 1.351 . S
C204 C198 1.428 . S
C204 N203 1.351 . S
C204 C205 1.434 . S
C205 C196 1.429 . S
C205 N202 1.350 . S
C205 C204 1.434 . S
C206 C207 1.369 1_545 S
C206 C208 1.419 . S
C206 H210 0.934 . S
C207 C206 1.369 1_565 S
C207 C216 1.429 . S
C208 C206 1.419 . S
C208 C209 1.363 . S
C208 H211 0.929 . S
C209 C208 1.363 . S
C209 C215 1.428 1_545 S
H210 C206 0.934 . S
H211 C208 0.929 . S
S212 N213 1.613 . S
S212 N214 1.610 . S
N213 S212 1.613 . S
N213 C216 1.350 . S
N214 S212 1.610 . S
N214 C215 1.351 . S
C215 C209 1.428 1_565 S
C215 N214 1.351 . S
C215 C216 1.434 . S
C216 C207 1.429 . S
C216 N213 1.350 . S
C216 C215 1.434 . S
C217 C218 1.369 1_655 S
C217 C219 1.419 . S
C217 H221 0.930 . S
C218 C217 1.369 1_455 S
C218 C227 1.429 1_565 S
C219 C217 1.419 . S
C219 C220 1.363 1_565 S
C219 H222 0.929 . S
C220 C219 1.363 1_545 S
C220 C226 1.428 1_655 S
H221 C217 0.930 . S
H222 C219 0.929 . S
S223 N224 1.613 . S
S223 N225 1.610 . S
N224 S223 1.613 . S
N224 C227 1.350 . S
N225 S223 1.610 . S
N225 C226 1.351 . S
C226 C220 1.428 1_455 S
C226 N225 1.351 . S
C226 C227 1.434 . S
C227 C218 1.429 1_545 S
C227 N224 1.350 . S
C227 C226 1.434 . S
C228 C229 1.369 . S
C228 C230 1.419 . S
C228 H232 0.930 . S
C229 C228 1.369 . S
C229 C238 1.429 . S
C230 C228 1.419 . S
C230 C231 1.363 . S
C230 H233 0.929 . S
C231 C230 1.363 . S
C231 C237 1.428 . S
H232 C228 0.930 . S
H233 C230 0.929 . S
S234 N235 1.613 . S
S234 N236 1.610 . S
N235 S234 1.613 . S
N235 C238 1.350 . S
N236 S234 1.610 . S
N236 C237 1.351 . S
C237 C231 1.428 . S
C237 N236 1.351 . S
C237 C238 1.434 . S
C238 C229 1.429 . S
C238 N235 1.350 . S
C238 C237 1.434 . S
C239 C240 1.369 . S
C239 C241 1.419 . S
C239 H243 0.930 . S
C240 C239 1.369 . S
C240 C249 1.429 . S
C241 C239 1.419 . S
C241 C242 1.363 . S
C241 H244 0.929 . S
C242 C241 1.363 . S
C242 C248 1.428 . S
H243 C239 0.930 . S
H244 C241 0.929 . S
S245 N246 1.613 . S
S245 N247 1.610 . S
N246 S245 1.613 . S
N246 C249 1.350 . S
N247 S245 1.610 . S
N247 C248 1.351 . S
C248 C242 1.428 . S
C248 N247 1.351 . S
C248 C249 1.434 . S
C249 C240 1.429 . S
C249 N246 1.350 . S
C249 C248 1.434 . S
C121 C105 1.425 . S
C119 C3 1.330 . S
C130 C4 1.411 1_556 S
C132 C91 1.512 . S
C141 C19 1.441 1_554 S
C143 C110 1.524 . S
C152 C7 1.331 . S
C154 C86 1.430 . S
C163 C37 1.328 . S
C165 C67 1.422 . S
C174 C28 1.412 . S
C176 C53 1.514 . S
C187 C72 1.524 . S
C185 C41 1.442 . S
C198 C48 1.430 . S
C196 C25 1.331 . S
C207 C20 1.402 . S
C209 C44 1.532 . S
C218 C16 1.442 1_455 S
C220 C63 1.569 . S
C231 C82 1.532 . S
C229 C40 1.399 . S
C240 C24 1.435 . S
C242 C101 1.569 . S
