# Generated by pormake.
# Topology tsx, (6,3)-cn, num edge types: 1
# Building blocks:
#     Node 0, Type 0, BuildingBlock: VOLQOD_clean_sbu_1, # of connection points: 6
#     Node 1, Type 0, BuildingBlock: VOLQOD_clean_sbu_1, # of connection points: 6
#     Node 2, Type 1, BuildingBlock: BETDAH_clean_linker_0, # of connection points: 3
#     Node 3, Type 1, BuildingBlock: BETDAH_clean_linker_0, # of connection points: 3
#     Node 4, Type 1, BuildingBlock: BETDAH_clean_linker_0, # of connection points: 3
#     Node 5, Type 1, BuildingBlock: BETDAH_clean_linker_0, # of connection points: 3
#     Edge 6, Type (0, 1), None
#     Edge 7, Type (0, 1), None
#     Edge 8, Type (0, 1), None
#     Edge 9, Type (0, 1), None
#     Edge 10, Type (0, 1), None
#     Edge 11, Type (0, 1), None
#     Edge 12, Type (0, 1), None
#     Edge 13, Type (0, 1), None
#     Edge 14, Type (0, 1), None
#     Edge 15, Type (0, 1), None
#     Edge 16, Type (0, 1), None
#     Edge 17, Type (0, 1), None
# Relax obj value: 0.057
# Max RMSD: 0.102
# Mean RMSD: 0.095
data_MOF--net-tsx--node1-VOLQOD_clean_sbu_1--node2-BETDAH_clean_linker_0--edge1-none
_symmetry_space_group_name_H-M    P1
_symmetry_Int_Tables_number       1
_symmetry_cell_setting            triclinic
loop_
_symmetry_equiv_pos_as_xyz
'x, y, z'
_cell_length_a     10.061763
_cell_length_b     9.5690483
_cell_length_c     18.390827
_cell_angle_alpha  93.655762
_cell_angle_beta   102.31653
_cell_angle_gamma 89.341898
loop_
_atom_site_label
_atom_site_type_symbol
_atom_site_fract_x
_atom_site_fract_y
_atom_site_fract_z
_atom_type_partial_charge
O0 O 0.1232 0.95528 0.14034 0.0
Zn1 Zn 0.16585 0.97869 0.03941 0.0
O2 O 0.00115 0.03742 -0.022 0.0
Zn3 Zn 0.91607 0.88727 0.91176 0.0
Zn4 Zn 0.87679 0.112 0.03367 0.0
Zn5 Zn 0.04618 0.1803 0.92075 0.0
O6 O 0.88553 0.95398 0.80918 0.0
O7 O 0.07337 0.08557 0.82575 0.0
O8 O 0.23648 0.80698 -0.01642 0.0
O9 O 0.04826 0.73687 0.90247 0.0
O10 O 0.75481 0.80458 0.94664 0.0
O11 O 0.74465 0.96194 0.03967 0.0
O12 O 0.76282 0.26843 -0.02528 0.0
O13 O 0.29784 0.14053 0.06414 0.0
O14 O 0.88155 0.29969 0.88818 0.0
O15 O 0.20586 0.2947 -0.01739 0.0
C16 C 0.06137 0.04545 0.1758 0.0
C17 C -0.0197 1.00963 0.78399 0.0
C18 C 0.70614 0.84773 0.00269 0.0
C19 C 0.17378 0.72358 0.93025 0.0
C20 C 0.77553 0.32261 0.91436 0.0
C21 C 0.29572 0.26192 0.03931 0.0
O22 O -0.01882 0.13751 0.14181 0.0
O23 O 0.61861 0.45463 0.6395 0.0
Zn24 Zn 0.65995 0.48214 0.53903 0.0
O25 O 0.49449 0.54102 0.47848 0.0
Zn26 Zn 0.41002 0.39052 0.41202 0.0
Zn27 Zn 0.37001 0.61578 0.53422 0.0
Zn28 Zn 0.54128 0.68325 0.42148 0.0
O29 O 0.37766 0.45817 0.30954 0.0
O30 O 0.56631 0.58854 0.32624 0.0
O31 O 0.7318 0.31417 0.48181 0.0
O32 O 0.54345 0.24155 0.40163 0.0
O33 O 0.24892 0.3069 0.44676 0.0
O34 O 0.23346 0.46775 0.53739 0.0
O35 O 0.2599 0.7767 0.47656 0.0
O36 O 0.79198 0.64328 0.56461 0.0
O37 O 0.37911 0.80481 0.38988 0.0
O38 O 0.70211 0.79671 0.48241 0.0
C39 C 0.55605 0.54234 0.67589 0.0
C40 C 0.47255 0.51361 0.28438 0.0
C41 C 0.19648 0.35247 0.50105 0.0
C42 C 0.66965 0.23073 0.42846 0.0
C43 C 0.27392 0.8306 0.41632 0.0
C44 C 0.7913 0.76407 0.53937 0.0
O45 O 0.47429 0.63449 0.643 0.0
H46 H 0.26601 0.94184 0.28129 0.0
H47 H 0.85696 0.10127 0.24627 0.0
H48 H 0.01775 0.87096 0.43749 0.0
C49 C 0.17339 0.96103 0.30144 0.0
C50 C 0.16124 0.91241 0.37089 0.0
C51 C 0.06293 1.0263 0.25526 0.0
C52 C 0.94351 0.05303 0.28131 0.0
C53 C 0.92717 1.00087 0.34784 0.0
C54 C 0.0342 0.92561 0.39071 0.0
N55 N 0.79572 1.00279 0.36421 0.0
C56 C 0.74106 0.1214 0.39499 0.0
H57 H 0.88008 0.79102 0.68967 0.0
H58 H 0.05532 0.20336 0.70007 0.0
H59 H 0.8849 0.99448 0.49269 0.0
C60 C 0.913 0.87665 0.66177 0.0
C61 C 0.88176 0.87444 0.58387 0.0
C62 C 0.97473 0.99552 0.70391 0.0
C63 C 0.01397 0.10868 0.66811 0.0
C64 C -0.01497 0.10657 0.59055 0.0
C65 C 0.91758 0.9906 0.55022 0.0
N66 N -0.01431 0.23333 0.55497 0.0
C67 C 0.0894 0.27725 0.52248 0.0
H68 H 0.76376 0.43753 0.77955 0.0
H69 H 0.35364 0.59409 0.74848 0.0
H70 H 0.51845 0.35412 0.93537 0.0
C71 C 0.6713 0.45424 0.80019 0.0
C72 C 0.66084 0.4024 0.86918 0.0
C73 C 0.55947 0.52003 0.75521 0.0
C74 C 0.44077 0.54449 0.78229 0.0
C75 C 0.42609 0.48874 0.84824 0.0
C76 C 0.53388 0.41177 0.88931 0.0
N77 N 0.2962 0.49172 0.86669 0.0
C78 C 0.24358 0.61162 0.89758 0.0
H79 H 0.37246 0.29428 0.1901 0.0
H80 H 0.55025 0.70558 0.20049 0.0
H81 H 0.40003 0.48812 -0.00683 0.0
C82 C 0.40842 0.3785 0.16244 0.0
C83 C 0.38419 0.37303 0.08453 0.0
C84 C 0.46847 0.49825 0.2045 0.0
C85 C 0.51066 0.61001 0.1688 0.0
C86 C 0.48851 0.60453 0.09136 0.0
C87 C 0.42518 0.4868 0.05097 0.0
N88 N 0.49292 0.72911 0.05441 0.0
C89 C 0.60189 0.7708 0.02559 0.0
loop_
_geom_bond_atom_site_label_1
_geom_bond_atom_site_label_2
_geom_bond_distance
_geom_bond_site_symmetry_2
_ccdc_geom_bond_type
O0 Zn1 1.953 . S
O0 C16 1.225 1_565 S
Zn1 O0 1.953 . S
Zn1 O2 1.949 1_565 S
Zn1 O8 1.919 . S
Zn1 O13 1.924 1_565 S
O2 Zn1 1.949 1_545 S
O2 Zn3 1.923 1_444 S
O2 Zn4 1.950 1_455 S
O2 Zn5 1.945 1_554 S
Zn3 O2 1.923 1_666 S
Zn3 O6 1.933 . S
Zn3 O9 1.941 1_655 S
Zn3 O10 1.965 . S
Zn4 O2 1.950 1_655 S
Zn4 O11 1.938 1_545 S
Zn4 O12 1.906 . S
Zn4 O22 1.953 . S
Zn5 O2 1.945 1_556 S
Zn5 O7 1.932 . S
Zn5 O14 1.977 1_455 S
Zn5 O15 1.910 . S
O6 Zn3 1.933 . S
O6 C17 1.226 1_565 S
O7 Zn5 1.932 . S
O7 C17 1.307 1_455 S
O8 Zn1 1.919 . S
O8 C19 1.248 1_554 S
O9 Zn3 1.941 1_455 S
O9 C19 1.285 . S
O10 Zn3 1.965 . S
O10 C18 1.303 1_556 S
O11 Zn4 1.938 1_565 S
O11 C18 1.247 . S
O12 Zn4 1.906 . S
O12 C20 1.304 1_554 S
O13 Zn1 1.924 1_545 S
O13 C21 1.311 . S
O14 Zn5 1.977 1_655 S
O14 C20 1.272 . S
O15 Zn5 1.910 . S
O15 C21 1.231 1_556 S
C16 O0 1.225 1_545 S
C16 O22 1.298 1_455 S
C17 O6 1.226 1_545 S
C17 O7 1.307 1_655 S
C18 O10 1.303 1_554 S
C18 O11 1.247 . S
C19 O8 1.248 1_556 S
C19 O9 1.285 . S
C20 O12 1.304 1_556 S
C20 O14 1.272 . S
C21 O13 1.311 . S
C21 O15 1.231 1_554 S
O22 Zn4 1.953 . S
O22 C16 1.298 1_655 S
O23 Zn24 1.953 . S
O23 C39 1.225 . S
Zn24 O23 1.953 . S
Zn24 O25 1.949 . S
Zn24 O31 1.919 . S
Zn24 O36 1.924 . S
O25 Zn24 1.949 . S
O25 Zn26 1.923 . S
O25 Zn27 1.950 . S
O25 Zn28 1.945 . S
Zn26 O25 1.923 . S
Zn26 O29 1.933 . S
Zn26 O32 1.941 . S
Zn26 O33 1.965 . S
Zn27 O25 1.950 . S
Zn27 O34 1.938 . S
Zn27 O35 1.906 . S
Zn27 O45 1.953 . S
Zn28 O25 1.945 . S
Zn28 O30 1.932 . S
Zn28 O37 1.977 . S
Zn28 O38 1.910 . S
O29 Zn26 1.933 . S
O29 C40 1.226 . S
O30 Zn28 1.932 . S
O30 C40 1.307 . S
O31 Zn24 1.919 . S
O31 C42 1.253 . S
O32 Zn26 1.941 . S
O32 C42 1.283 . S
O33 Zn26 1.965 . S
O33 C41 1.303 . S
O34 Zn27 1.938 . S
O34 C41 1.247 . S
O35 Zn27 1.906 . S
O35 C43 1.304 . S
O36 Zn24 1.924 . S
O36 C44 1.311 . S
O37 Zn28 1.977 . S
O37 C43 1.272 . S
O38 Zn28 1.910 . S
O38 C44 1.231 . S
C39 O23 1.225 . S
C39 O45 1.298 . S
C40 O29 1.226 . S
C40 O30 1.307 . S
C41 O33 1.303 . S
C41 O34 1.247 . S
C42 O31 1.253 . S
C42 O32 1.283 . S
C43 O35 1.304 . S
C43 O37 1.272 . S
C44 O36 1.311 . S
C44 O38 1.231 . S
O45 Zn27 1.953 . S
O45 C39 1.298 . S
H46 C49 0.929 . S
H47 C52 0.929 . S
H48 C54 0.930 . S
C49 H46 0.929 . S
C49 C50 1.398 . S
C49 C51 1.396 . S
C50 C49 1.398 . S
C50 C54 1.407 . S
C51 C49 1.396 . S
C51 C52 1.394 1_465 S
C52 H47 0.929 . S
C52 C51 1.394 1_645 S
C52 C53 1.382 . S
C53 C52 1.382 . S
C53 C54 1.392 1_645 S
C53 N55 1.420 . S
C54 H48 0.930 . S
C54 C50 1.407 . S
C54 C53 1.392 1_465 S
N55 C53 1.420 . S
N55 C56 1.244 . S
C56 N55 1.244 . S
H57 C60 0.929 . S
H58 C63 0.929 . S
H59 C65 0.930 . S
C60 H57 0.929 . S
C60 C61 1.398 . S
C60 C62 1.396 . S
C61 C60 1.398 . S
C61 C65 1.407 . S
C62 C60 1.396 . S
C62 C63 1.394 1_665 S
C63 H58 0.929 . S
C63 C62 1.394 1_445 S
C63 C64 1.382 . S
C64 C63 1.382 . S
C64 C65 1.392 1_445 S
C64 N66 1.420 . S
C65 H59 0.930 . S
C65 C61 1.407 . S
C65 C64 1.392 1_665 S
N66 C64 1.420 . S
N66 C67 1.244 . S
C67 N66 1.244 . S
H68 C71 0.929 . S
H69 C74 0.929 . S
H70 C76 0.930 1_554 S
C71 H68 0.929 . S
C71 C72 1.398 . S
C71 C73 1.396 . S
C72 C71 1.398 . S
C72 C76 1.407 . S
C73 C71 1.396 . S
C73 C74 1.394 . S
C74 H69 0.929 . S
C74 C73 1.394 . S
C74 C75 1.382 . S
C75 C74 1.382 . S
C75 C76 1.392 . S
C75 N77 1.420 . S
C76 H70 0.930 1_556 S
C76 C72 1.407 . S
C76 C75 1.392 . S
N77 C75 1.420 . S
N77 C78 1.244 . S
C78 N77 1.244 . S
H79 C82 0.929 . S
H80 C85 0.929 . S
H81 C87 0.930 1_556 S
C82 H79 0.929 . S
C82 C83 1.398 . S
C82 C84 1.396 . S
C83 C82 1.398 . S
C83 C87 1.407 . S
C84 C82 1.396 . S
C84 C85 1.394 . S
C85 H80 0.929 . S
C85 C84 1.394 . S
C85 C86 1.382 . S
C86 C85 1.382 . S
C86 C87 1.392 . S
C86 N88 1.420 . S
C87 H81 0.930 1_554 S
C87 C83 1.407 . S
C87 C86 1.392 . S
N88 C86 1.420 . S
N88 C89 1.244 . S
C89 N88 1.244 . S
C83 C21 1.518 . S
C19 C78 1.454 . S
C18 C89 1.374 . S
C20 C72 1.493 . S
C44 C61 1.518 . S
C42 C56 1.451 . S
C67 C41 1.374 . S
C50 C43 1.493 . S
C16 C51 1.584 1_545 S
C17 C62 1.534 1_545 S
C73 C39 1.584 . S
C40 C84 1.535 . S
