# Generated by pormake.
# Topology pth, (4,4)-cn, num edge types: 1
# Building blocks:
#     Node 0, Type 0, BuildingBlock: QUQFOY_clean_sbu_3, # of connection points: 4
#     Node 1, Type 0, BuildingBlock: QUQFOY_clean_sbu_3, # of connection points: 4
#     Node 2, Type 0, BuildingBlock: QUQFOY_clean_sbu_3, # of connection points: 4
#     Node 3, Type 1, BuildingBlock: MIFKUJ_clean_linker_1, # of connection points: 4
#     Node 4, Type 1, BuildingBlock: MIFKUJ_clean_linker_1, # of connection points: 4
#     Node 5, Type 1, BuildingBlock: MIFKUJ_clean_linker_1, # of connection points: 4
#     Edge 6, Type (0, 1), None
#     Edge 7, Type (0, 1), None
#     Edge 8, Type (0, 1), None
#     Edge 9, Type (0, 1), None
#     Edge 10, Type (0, 1), None
#     Edge 11, Type (0, 1), None
#     Edge 12, Type (0, 1), None
#     Edge 13, Type (0, 1), None
#     Edge 14, Type (0, 1), None
#     Edge 15, Type (0, 1), None
#     Edge 16, Type (0, 1), None
#     Edge 17, Type (0, 1), None
# Relax obj value: 0.016
# Max RMSD: 0.074
# Mean RMSD: 0.058
data_MOF--net-pth--node1-QUQFOY_clean_sbu_3--node2-MIFKUJ_clean_linker_1--edge1-none
_symmetry_space_group_name_H-M    P1
_symmetry_Int_Tables_number       1
_symmetry_cell_setting            triclinic
loop_
_symmetry_equiv_pos_as_xyz
'x, y, z'
_cell_length_a     16.73082
_cell_length_b     16.641203
_cell_length_c     35.033077
_cell_angle_alpha  90.295458
_cell_angle_beta   90.335212
_cell_angle_gamma 120.71901
loop_
_atom_site_label
_atom_site_type_symbol
_atom_site_fract_x
_atom_site_fract_y
_atom_site_fract_z
_atom_type_partial_charge
C0 C 0.92456 0.18214 0.08603 0.0
O1 O 0.873 0.17235 0.05755 0.0
Cd2 Cd 0.86354 0.08495 1.00137 0.0
O3 O 0.96851 0.13841 0.08721 0.0
Cd4 Cd -0.02347 0.01903 0.04758 0.0
C5 C 0.095 0.17912 0.98075 0.0
O6 O 0.82051 0.92978 0.01925 0.0
O7 O 0.92784 0.9124 0.9934 0.0
O8 O 0.94033 0.9258 0.1044 0.0
C9 C 0.84233 0.88601 0.99572 0.0
O10 O 0.01618 0.16796 0.97153 0.0
C11 C 0.00829 0.91241 0.10214 0.0
O12 O 0.10321 0.13703 0.00944 0.0
O13 O 0.06507 0.95261 0.07506 0.0
C14 C 0.20823 0.10718 0.41979 0.0
O15 O 0.25465 0.16807 0.39475 0.0
Cd16 Cd 0.184 0.18507 0.33817 0.0
O17 O 0.11976 0.06224 0.41863 0.0
Cd18 Cd -0.00735 0.059 0.38092 0.0
C19 C 0.05292 0.94921 0.31672 0.0
O20 O 0.06388 0.21542 0.3545 0.0
O21 O 0.93901 0.10863 0.326 0.0
O22 O 0.93326 0.09064 0.43852 0.0
C23 C 0.00147 0.19423 0.32912 0.0
O24 O 0.12082 0.03048 0.30934 0.0
C25 C 0.85181 0.01997 0.43538 0.0
O26 O -0.00515 0.93731 0.34268 0.0
O27 O 0.83631 0.96486 0.4073 0.0
C28 C 0.84007 0.06663 0.67251 0.0
O29 O 0.8542 0.12284 0.69988 0.0
Cd30 Cd 0.94773 0.14081 0.75469 0.0
O31 O 0.88427 0.02314 0.67099 0.0
Cd32 Cd 0.00964 0.01988 0.70771 0.0
C33 C 0.85163 0.90699 0.77592 0.0
O34 O 0.09795 0.17735 0.73449 0.0
O35 O 0.11821 0.07237 0.76143 0.0
O36 O 0.10094 0.05855 0.65027 0.0
C37 C 0.14243 0.15778 0.75852 0.0
O38 O 0.86464 -0.0125 0.78415 0.0
C39 C 0.11322 -0.01058 0.6512 0.0
O40 O 0.8929 0.89562 0.74774 0.0
O41 O 0.07325 0.93072 0.67782 0.0
H42 H 0.09161 0.38342 0.18672 0.0
H43 H 0.06197 0.25902 0.14091 0.0
H44 H 0.81511 0.25537 0.10103 0.0
H45 H 0.84374 0.37725 0.14726 0.0
H46 H -0.00851 0.54786 0.14368 0.0
H47 H 0.14149 0.49527 0.28161 0.0
H48 H 0.13939 0.37622 0.32266 0.0
H49 H 0.86857 0.17294 0.27744 0.0
H50 H 0.87011 0.29329 0.23702 0.0
H51 H 0.90793 0.63074 0.28967 0.0
H52 H 0.91871 0.76448 0.32397 0.0
H53 H 0.17068 0.94949 0.26301 0.0
H54 H 0.15992 0.81555 0.22948 0.0
H55 H 0.02719 0.56131 0.28454 0.0
H56 H 0.89687 0.69716 0.20012 0.0
H57 H 0.89615 0.81898 0.1619 0.0
H58 H 0.13525 0.85531 0.10009 0.0
H59 H 0.1361 0.73379 0.13894 0.0
C60 C 0.96996 0.38967 0.17036 0.0
C61 C 0.02993 0.35404 0.16878 0.0
C62 C 0.01308 0.28329 0.14245 0.0
C63 C 0.93682 0.24831 0.11702 0.0
C64 C 0.87501 0.28155 0.11988 0.0
C65 C 0.89124 0.35114 0.14636 0.0
C66 C -0.00709 0.47345 0.19365 0.0
C67 C -0.0003 0.55053 0.1745 0.0
C68 C 0.00617 0.47845 0.23375 0.0
C69 C 0.0063 0.40308 0.25601 0.0
C70 C 0.08175 0.42495 0.28043 0.0
C71 C 0.08045 0.35688 0.30391 0.0
C72 C 0.00371 0.26534 0.30336 0.0
C73 C 0.92881 0.24291 0.27841 0.0
C74 C 0.92984 0.31141 0.25509 0.0
C75 C 0.03289 0.71349 0.25696 0.0
C76 C 0.96587 0.70019 0.28407 0.0
C77 C -0.02828 0.77671 0.30339 0.0
C78 C 0.04496 0.86779 0.29595 0.0
C79 C 0.11281 0.88045 0.2692 0.0
C80 C 0.10702 0.80399 0.25004 0.0
C81 C 0.02247 0.63313 0.23454 0.0
C82 C 0.01955 0.558 0.25369 0.0
C83 C 0.01453 0.63014 0.19437 0.0
C84 C 0.01672 0.70687 0.17241 0.0
C85 C 0.94995 0.7324 0.17875 0.0
C86 C 0.94968 0.802 0.15685 0.0
C87 C 0.01574 0.84675 0.12799 0.0
C88 C 0.08374 0.82235 0.1222 0.0
C89 C 0.08397 0.75265 0.14418 0.0
H90 H 0.73522 0.12431 0.53115 0.0
H91 H 0.86278 0.13618 0.49315 0.0
H92 H 0.67154 0.87544 0.43625 0.0
H93 H 0.54463 0.86327 0.47495 0.0
H94 H 0.49299 0.00119 0.47284 0.0
H95 H 0.6257 0.12864 0.61719 0.0
H96 H 0.75113 0.16337 0.66189 0.0
H97 H 0.76526 0.9278 0.61771 0.0
H98 H 0.63737 0.89226 0.57312 0.0
H99 H 0.26704 0.8442 0.60385 0.0
H100 H 0.14682 0.84571 0.64284 0.0
H101 H 0.22797 0.12008 0.60014 0.0
H102 H 0.34947 0.11924 0.56231 0.0
H103 H 0.4557 0.97528 0.61317 0.0
H104 H 0.22021 0.90451 0.50763 0.0
H105 H 0.13481 0.95387 0.46622 0.0
H106 H 0.39347 0.20218 0.43665 0.0
H107 H 0.4775 0.15356 0.47844 0.0
C108 C 0.63068 -0.00761 0.50617 0.0
C109 C 0.72126 0.06859 0.5112 0.0
C110 C 0.794 0.07541 0.4893 0.0
C111 C 0.77713 0.00679 0.46159 0.0
C112 C 0.68679 0.92936 0.45734 0.0
C113 C 0.61424 0.92237 0.4794 0.0
C114 C 0.55121 -0.01071 0.52595 0.0
C115 C 0.48407 -0.00592 0.50354 0.0
C116 C 0.54347 -0.01213 0.5661 0.0
C117 C 0.62173 0.00748 0.59201 0.0
C118 C 0.65551 0.08414 0.61717 0.0
C119 C 0.72766 0.10425 0.64262 0.0
C120 C 0.76812 0.0483 0.64344 0.0
C121 C 0.7357 0.97248 0.61765 0.0
C122 C 0.66264 0.95194 0.5922 0.0
C123 C 0.31646 -0.0189 0.57982 0.0
C124 C 0.25798 0.90412 0.60258 0.0
C125 C 0.18927 0.90496 0.62478 0.0
C126 C 0.17782 -0.01712 0.62452 0.0
C127 C 0.23453 0.05863 0.60075 0.0
C128 C 0.30385 0.05816 0.57892 0.0
C129 C 0.39561 -0.0164 0.55996 0.0
C130 C 0.46301 -0.02071 0.58236 0.0
C131 C 0.4095 -0.00294 0.5202 0.0
C132 C 0.35521 0.02504 0.49591 0.0
C133 C 0.25812 0.96999 0.49253 0.0
C134 C 0.20952 -0.00143 0.46897 0.0
C135 C 0.25749 0.08204 0.44812 0.0
C136 C 0.35444 0.13751 0.45219 0.0
C137 C 0.40264 0.10938 0.47587 0.0
H138 H 0.35884 0.25407 0.85757 0.0
H139 H 0.238 0.13342 0.8164 0.0
H140 H 0.21091 0.34565 0.75709 0.0
H141 H 0.33123 0.46559 0.79846 0.0
H142 H 0.50931 0.51819 0.80755 0.0
H143 H 0.41062 0.32675 0.95359 0.0
H144 H 0.27387 0.21707 0.98998 0.0
H145 H 0.10335 0.28597 0.92023 0.0
H146 H 0.24033 0.39633 0.88464 0.0
H147 H 0.53926 0.69042 0.95314 0.0
H148 H 0.65524 0.8171 0.99356 0.0
H149 H 0.87084 0.78194 0.9431 0.0
H150 H 0.75423 0.65449 0.90313 0.0
H151 H 0.48493 0.51144 0.94869 0.0
H152 H 0.62026 0.7714 0.86671 0.0
H153 H 0.73828 0.90521 0.83191 0.0
H154 H 0.8107 0.72497 0.77087 0.0
H155 H 0.69325 0.59097 0.80686 0.0
C156 C 0.3536 0.36857 0.83113 0.0
C157 C 0.32643 0.27435 0.83581 0.0
C158 C 0.25767 0.20565 0.8122 0.0
C159 C 0.21501 0.23017 0.78353 0.0
C160 C 0.24247 0.32461 0.77892 0.0
C161 C 0.31138 0.39321 0.80243 0.0
C162 C 0.42671 0.44198 0.85582 0.0
C163 C 0.50452 0.51625 0.83844 0.0
C164 C 0.41938 0.44028 0.89604 0.0
C165 C 0.33546 0.36878 0.9161 0.0
C166 C 0.34355 0.31763 0.94607 0.0
C167 C 0.26535 0.25507 0.96685 0.0
C168 C 0.17765 0.24283 0.95808 0.0
C169 C 0.16973 0.29345 0.92772 0.0
C170 C 0.24793 0.35614 0.9071 0.0
C171 C 0.63829 0.66341 0.92506 0.0
C172 C 0.61149 0.70973 0.95098 0.0
C173 C 0.67783 0.78232 0.97392 0.0
C174 C 0.7721 0.8096 0.97139 0.0
C175 C 0.79871 0.7627 0.94558 0.0
C176 C 0.73229 0.69003 0.92267 0.0
C177 C 0.56756 0.58751 0.90044 0.0
C178 C 0.49067 0.51236 0.91784 0.0
C179 C 0.57437 0.58984 0.86018 0.0
C180 C 0.64893 0.67142 0.83985 0.0
C181 C 0.66276 0.76086 0.84642 0.0
C182 C 0.7301 0.83734 0.82627 0.0
C183 C 0.78416 0.82587 0.79857 0.0
C184 C 0.77033 0.73619 0.79201 0.0
C185 C 0.7032 0.65959 0.81249 0.0
loop_
_geom_bond_atom_site_label_1
_geom_bond_atom_site_label_2
_geom_bond_distance
_geom_bond_site_symmetry_2
_ccdc_geom_bond_type
C0 O1 1.306 1_455 S
C0 O3 1.160 . S
O1 C0 1.306 1_655 S
O1 Cd2 2.228 1_554 S
Cd2 O1 2.228 1_556 S
Cd2 O6 2.273 1_546 S
Cd2 O10 2.277 1_655 S
O3 C0 1.160 . S
O3 Cd4 2.203 . S
Cd4 O3 2.203 . S
Cd4 O6 2.411 1_445 S
Cd4 O7 2.333 1_444 S
Cd4 O8 2.352 1_445 S
Cd4 O12 2.277 . S
Cd4 O13 2.356 1_545 S
C5 O10 1.209 . S
C5 O12 1.226 1_556 S
O6 Cd2 2.273 1_564 S
O6 Cd4 2.411 1_665 S
O6 C9 1.320 1_554 S
O7 Cd4 2.333 1_666 S
O7 C9 1.214 . S
O8 Cd4 2.352 1_665 S
O8 C11 1.258 1_655 S
C9 O6 1.320 1_556 S
C9 O7 1.214 . S
O10 Cd2 2.277 1_455 S
O10 C5 1.209 . S
C11 O8 1.258 1_455 S
C11 O13 1.282 . S
O12 Cd4 2.277 . S
O12 C5 1.226 1_554 S
O13 Cd4 2.356 1_565 S
O13 C11 1.282 . S
C14 O15 1.306 . S
C14 O17 1.160 . S
O15 C14 1.306 . S
O15 Cd16 2.228 . S
Cd16 O15 2.228 . S
Cd16 O20 2.273 . S
Cd16 O24 2.277 1_545 S
O17 C14 1.160 . S
O17 Cd18 2.203 1_455 S
Cd18 O17 2.203 1_655 S
Cd18 O20 2.411 1_655 S
Cd18 O21 2.333 . S
Cd18 O22 2.352 . S
Cd18 O26 2.277 1_545 S
Cd18 O27 2.356 1_545 S
C19 O24 1.209 . S
C19 O26 1.226 1_455 S
O20 Cd16 2.273 . S
O20 Cd18 2.411 1_455 S
O20 C23 1.320 . S
O21 Cd18 2.333 . S
O21 C23 1.214 1_655 S
O22 Cd18 2.352 . S
O22 C25 1.258 . S
C23 O20 1.320 . S
C23 O21 1.214 1_455 S
O24 Cd16 2.277 1_565 S
O24 C19 1.209 . S
C25 O22 1.258 . S
C25 O27 1.282 1_545 S
O26 Cd18 2.277 1_565 S
O26 C19 1.226 1_655 S
O27 Cd18 2.356 1_565 S
O27 C25 1.282 1_565 S
C28 O29 1.306 . S
C28 O31 1.160 . S
O29 C28 1.306 . S
O29 Cd30 2.228 . S
Cd30 O29 2.228 . S
Cd30 O34 2.273 1_655 S
Cd30 O38 2.277 . S
O31 C28 1.160 . S
O31 Cd32 2.203 1_655 S
Cd32 O31 2.203 1_455 S
Cd32 O34 2.411 . S
Cd32 O35 2.333 . S
Cd32 O36 2.352 . S
Cd32 O40 2.277 1_445 S
Cd32 O41 2.356 1_545 S
C33 O38 1.209 1_565 S
C33 O40 1.226 . S
O34 Cd30 2.273 1_455 S
O34 Cd32 2.411 . S
O34 C37 1.320 . S
O35 Cd32 2.333 . S
O35 C37 1.214 . S
O36 Cd32 2.352 . S
O36 C39 1.258 . S
C37 O34 1.320 . S
C37 O35 1.214 . S
O38 Cd30 2.277 . S
O38 C33 1.209 1_545 S
C39 O36 1.258 . S
C39 O41 1.282 1_545 S
O40 Cd32 2.277 1_665 S
O40 C33 1.226 . S
O41 Cd32 2.356 1_565 S
O41 C39 1.282 1_565 S
H42 C61 0.949 . S
H43 C62 0.950 . S
H44 C64 0.950 . S
H45 C65 0.950 . S
H46 C67 0.950 . S
H47 C70 0.950 . S
H48 C71 0.950 . S
H49 C73 0.951 . S
H50 C74 0.949 . S
H51 C76 0.949 . S
H52 C77 0.950 . S
H53 C79 0.950 . S
H54 C80 0.950 . S
H55 C82 0.950 . S
H56 C85 0.950 . S
H57 C86 0.950 . S
H58 C88 0.951 . S
H59 C89 0.949 . S
C60 C61 1.376 . S
C60 C65 1.386 1_455 S
C60 C66 1.483 . S
C61 H42 0.949 . S
C61 C60 1.376 . S
C61 C62 1.397 . S
C62 H43 0.950 . S
C62 C61 1.397 . S
C62 C63 1.391 . S
C63 C62 1.391 . S
C63 C64 1.405 1_455 S
C64 H44 0.950 . S
C64 C63 1.405 1_655 S
C64 C65 1.367 . S
C65 H45 0.950 . S
C65 C60 1.386 1_655 S
C65 C64 1.367 . S
C66 C60 1.483 . S
C66 C67 1.382 . S
C66 C68 1.403 . S
C67 H46 0.950 . S
C67 C66 1.382 . S
C67 C83 1.411 . S
C68 C66 1.403 . S
C68 C69 1.489 . S
C68 C82 1.411 . S
C69 C68 1.489 . S
C69 C70 1.383 . S
C69 C74 1.382 1_455 S
C70 H47 0.950 . S
C70 C69 1.383 . S
C70 C71 1.395 . S
C71 H48 0.950 . S
C71 C70 1.395 . S
C71 C72 1.288 . S
C72 C71 1.288 . S
C72 C73 1.392 1_455 S
C73 H49 0.951 . S
C73 C72 1.392 1_655 S
C73 C74 1.392 . S
C74 H50 0.949 . S
C74 C69 1.382 1_655 S
C74 C73 1.392 . S
C75 C76 1.376 1_455 S
C75 C80 1.386 . S
C75 C81 1.483 . S
C76 H51 0.949 . S
C76 C75 1.376 1_655 S
C76 C77 1.397 . S
C77 H52 0.950 . S
C77 C76 1.397 . S
C77 C78 1.391 1_655 S
C78 C77 1.391 1_455 S
C78 C79 1.405 . S
C79 H53 0.950 . S
C79 C78 1.405 . S
C79 C80 1.367 . S
C80 H54 0.950 . S
C80 C75 1.386 . S
C80 C79 1.367 . S
C81 C75 1.483 . S
C81 C82 1.382 . S
C81 C83 1.403 . S
C82 H55 0.950 . S
C82 C68 1.411 . S
C82 C81 1.382 . S
C83 C67 1.411 . S
C83 C81 1.403 . S
C83 C84 1.489 . S
C84 C83 1.489 . S
C84 C85 1.383 1_455 S
C84 C89 1.382 . S
C85 H56 0.950 . S
C85 C84 1.383 1_655 S
C85 C86 1.395 . S
C86 H57 0.950 . S
C86 C85 1.395 . S
C86 C87 1.288 1_655 S
C87 C86 1.288 1_455 S
C87 C88 1.392 . S
C88 H58 0.951 . S
C88 C87 1.392 . S
C88 C89 1.392 . S
C89 H59 0.949 . S
C89 C84 1.382 . S
C89 C88 1.392 . S
H90 C109 0.949 . S
H91 C110 0.950 . S
H92 C112 0.950 . S
H93 C113 0.950 . S
H94 C115 0.950 . S
H95 C118 0.950 . S
H96 C119 0.950 . S
H97 C121 0.951 . S
H98 C122 0.949 . S
H99 C124 0.949 . S
H100 C125 0.950 . S
H101 C127 0.950 . S
H102 C128 0.950 . S
H103 C130 0.950 . S
H104 C133 0.950 . S
H105 C134 0.950 . S
H106 C136 0.951 . S
H107 C137 0.949 . S
C108 C109 1.376 . S
C108 C113 1.386 1_545 S
C108 C114 1.483 . S
C109 H90 0.949 . S
C109 C108 1.376 . S
C109 C110 1.397 . S
C110 H91 0.950 . S
C110 C109 1.397 . S
C110 C111 1.391 . S
C111 C110 1.391 . S
C111 C112 1.405 1_545 S
C112 H92 0.950 . S
C112 C111 1.405 1_565 S
C112 C113 1.367 . S
C113 H93 0.950 . S
C113 C108 1.386 1_565 S
C113 C112 1.367 . S
C114 C108 1.483 . S
C114 C115 1.382 . S
C114 C116 1.403 . S
C115 H94 0.950 . S
C115 C114 1.382 . S
C115 C131 1.411 . S
C116 C114 1.403 . S
C116 C117 1.489 . S
C116 C130 1.411 . S
C117 C116 1.489 . S
C117 C118 1.383 . S
C117 C122 1.382 1_545 S
C118 H95 0.950 . S
C118 C117 1.383 . S
C118 C119 1.395 . S
C119 H96 0.950 . S
C119 C118 1.395 . S
C119 C120 1.288 . S
C120 C119 1.288 . S
C120 C121 1.392 1_545 S
C121 H97 0.951 . S
C121 C120 1.392 1_565 S
C121 C122 1.392 . S
C122 H98 0.949 . S
C122 C117 1.382 1_565 S
C122 C121 1.392 . S
C123 C124 1.376 1_545 S
C123 C128 1.386 . S
C123 C129 1.483 . S
C124 H99 0.949 . S
C124 C123 1.376 1_565 S
C124 C125 1.397 . S
C125 H100 0.950 . S
C125 C124 1.397 . S
C125 C126 1.391 1_565 S
C126 C125 1.391 1_545 S
C126 C127 1.405 . S
C127 H101 0.950 . S
C127 C126 1.405 . S
C127 C128 1.367 . S
C128 H102 0.950 . S
C128 C123 1.386 . S
C128 C127 1.367 . S
C129 C123 1.483 . S
C129 C130 1.382 . S
C129 C131 1.403 . S
C130 H103 0.950 . S
C130 C116 1.411 . S
C130 C129 1.382 . S
C131 C115 1.411 . S
C131 C129 1.403 . S
C131 C132 1.489 . S
C132 C131 1.489 . S
C132 C133 1.383 1_545 S
C132 C137 1.382 . S
C133 H104 0.950 . S
C133 C132 1.383 1_565 S
C133 C134 1.395 . S
C134 H105 0.950 . S
C134 C133 1.395 . S
C134 C135 1.288 1_565 S
C135 C134 1.288 1_545 S
C135 C136 1.392 . S
C136 H106 0.951 . S
C136 C135 1.392 . S
C136 C137 1.392 . S
C137 H107 0.949 . S
C137 C132 1.382 . S
C137 C136 1.392 . S
H138 C157 0.949 . S
H139 C158 0.950 . S
H140 C160 0.950 . S
H141 C161 0.950 . S
H142 C163 0.950 . S
H143 C166 0.950 . S
H144 C167 0.950 . S
H145 C169 0.951 . S
H146 C170 0.949 . S
H147 C172 0.949 . S
H148 C173 0.950 . S
H149 C175 0.950 . S
H150 C176 0.950 . S
H151 C178 0.950 . S
H152 C181 0.950 . S
H153 C182 0.950 . S
H154 C184 0.951 . S
H155 C185 0.949 . S
C156 C157 1.376 . S
C156 C161 1.386 . S
C156 C162 1.483 . S
C157 H138 0.949 . S
C157 C156 1.376 . S
C157 C158 1.397 . S
C158 H139 0.950 . S
C158 C157 1.397 . S
C158 C159 1.391 . S
C159 C158 1.391 . S
C159 C160 1.405 . S
C160 H140 0.950 . S
C160 C159 1.405 . S
C160 C161 1.367 . S
C161 H141 0.950 . S
C161 C156 1.386 . S
C161 C160 1.367 . S
C162 C156 1.483 . S
C162 C163 1.382 . S
C162 C164 1.403 . S
C163 H142 0.950 . S
C163 C162 1.382 . S
C163 C179 1.411 . S
C164 C162 1.403 . S
C164 C165 1.489 . S
C164 C178 1.411 . S
C165 C164 1.489 . S
C165 C166 1.383 . S
C165 C170 1.382 . S
C166 H143 0.950 . S
C166 C165 1.383 . S
C166 C167 1.395 . S
C167 H144 0.950 . S
C167 C166 1.395 . S
C167 C168 1.288 . S
C168 C167 1.288 . S
C168 C169 1.392 . S
C169 H145 0.951 . S
C169 C168 1.392 . S
C169 C170 1.392 . S
C170 H146 0.949 . S
C170 C165 1.382 . S
C170 C169 1.392 . S
C171 C172 1.376 . S
C171 C176 1.386 . S
C171 C177 1.483 . S
C172 H147 0.949 . S
C172 C171 1.376 . S
C172 C173 1.397 . S
C173 H148 0.950 . S
C173 C172 1.397 . S
C173 C174 1.391 . S
C174 C173 1.391 . S
C174 C175 1.405 . S
C175 H149 0.950 . S
C175 C174 1.405 . S
C175 C176 1.367 . S
C176 H150 0.950 . S
C176 C171 1.386 . S
C176 C175 1.367 . S
C177 C171 1.483 . S
C177 C178 1.382 . S
C177 C179 1.403 . S
C178 H151 0.950 . S
C178 C164 1.411 . S
C178 C177 1.382 . S
C179 C163 1.411 . S
C179 C177 1.403 . S
C179 C180 1.489 . S
C180 C179 1.489 . S
C180 C181 1.383 . S
C180 C185 1.382 . S
C181 H152 0.950 . S
C181 C180 1.383 . S
C181 C182 1.395 . S
C182 H153 0.950 . S
C182 C181 1.395 . S
C182 C183 1.288 . S
C183 C182 1.288 . S
C183 C184 1.392 . S
C184 H154 0.951 . S
C184 C183 1.392 . S
C184 C185 1.392 . S
C185 H155 0.949 . S
C185 C180 1.382 . S
C185 C184 1.392 . S
C63 C0 1.535 . S
C25 C111 1.543 . S
C33 C183 1.545 . S
C11 C87 1.451 . S
C135 C14 1.497 . S
C37 C159 1.570 . S
C120 C28 1.516 . S
C9 C174 1.592 . S
C78 C19 1.592 . S
C126 C39 1.530 . S
C168 C5 1.603 . S
C23 C72 1.587 . S
