# Generated by pormake.
# Topology zzz, (3,6)-cn, num edge types: 1
# Building blocks:
#     Node 0, Type 0, BuildingBlock: BETDIP_clean_linker_0, # of connection points: 3
#     Node 1, Type 0, BuildingBlock: BETDIP_clean_linker_0, # of connection points: 3
#     Node 2, Type 0, BuildingBlock: BETDIP_clean_linker_0, # of connection points: 3
#     Node 3, Type 0, BuildingBlock: BETDIP_clean_linker_0, # of connection points: 3
#     Node 4, Type 0, BuildingBlock: BETDIP_clean_linker_0, # of connection points: 3
#     Node 5, Type 0, BuildingBlock: BETDIP_clean_linker_0, # of connection points: 3
#     Node 6, Type 0, BuildingBlock: BETDIP_clean_linker_0, # of connection points: 3
#     Node 7, Type 0, BuildingBlock: BETDIP_clean_linker_0, # of connection points: 3
#     Node 8, Type 1, BuildingBlock: JUFBIX_clean_sbu_0, # of connection points: 6
#     Node 9, Type 1, BuildingBlock: JUFBIX_clean_sbu_0, # of connection points: 6
#     Node 10, Type 1, BuildingBlock: JUFBIX_clean_sbu_0, # of connection points: 6
#     Node 11, Type 1, BuildingBlock: JUFBIX_clean_sbu_0, # of connection points: 6
#     Edge 12, Type (0, 1), None
#     Edge 13, Type (0, 1), None
#     Edge 14, Type (0, 1), None
#     Edge 15, Type (0, 1), None
#     Edge 16, Type (0, 1), None
#     Edge 17, Type (0, 1), None
#     Edge 18, Type (0, 1), None
#     Edge 19, Type (0, 1), None
#     Edge 20, Type (0, 1), None
#     Edge 21, Type (0, 1), None
#     Edge 22, Type (0, 1), None
#     Edge 23, Type (0, 1), None
#     Edge 24, Type (0, 1), None
#     Edge 25, Type (0, 1), None
#     Edge 26, Type (0, 1), None
#     Edge 27, Type (0, 1), None
#     Edge 28, Type (0, 1), None
#     Edge 29, Type (0, 1), None
#     Edge 30, Type (0, 1), None
#     Edge 31, Type (0, 1), None
#     Edge 32, Type (0, 1), None
#     Edge 33, Type (0, 1), None
#     Edge 34, Type (0, 1), None
#     Edge 35, Type (0, 1), None
# Relax obj value: 0.124
# Max RMSD: 0.188
# Mean RMSD: 0.088
data_MOF--net-zzz--node1-JUFBIX_clean_sbu_0--node2-BETDIP_clean_linker_0--edge1-none
_symmetry_space_group_name_H-M    P1
_symmetry_Int_Tables_number       1
_symmetry_cell_setting            triclinic
loop_
_symmetry_equiv_pos_as_xyz
'x, y, z'
_cell_length_a     22.826605
_cell_length_b     23.126855
_cell_length_c     8.5734445
_cell_angle_alpha  70.633111
_cell_angle_beta   87.275874
_cell_angle_gamma 89.749305
loop_
_atom_site_label
_atom_site_type_symbol
_atom_site_fract_x
_atom_site_fract_y
_atom_site_fract_z
_atom_type_partial_charge
H0 H 0.87621 0.56861 0.60825 0.0
H1 H 0.89668 0.53512 0.14324 0.0
H2 H 1.04667 0.57949 0.36382 0.0
H3 H 0.79606 0.64062 0.1465 0.0
C4 C 0.79512 0.59084 0.18978 0.0
C5 C 0.9042 0.56583 0.50541 0.0
C6 C 0.96574 0.5731 0.50671 0.0
C7 C 0.87914 0.55659 0.36704 0.0
C8 C 0.91555 0.5458 0.24428 0.0
C9 C 0.97585 0.5514 0.24592 0.0
C10 C 1.00031 0.57002 0.3695 0.0
N11 N 0.81771 0.55887 0.34742 0.0
H12 H 0.09714 0.7761 0.50822 0.0
H13 H 1.00277 0.85456 0.06842 0.0
H14 H 1.00363 0.94474 0.42062 0.0
H15 H 0.99596 0.75276 0.07485 0.0
C16 C 1.04334 0.75058 0.08364 0.0
C17 C 0.06482 0.80792 0.44153 0.0
C18 C 1.04707 0.85777 0.49392 0.0
C19 C 1.0449 0.80384 0.29176 0.0
C20 C 1.01195 0.85227 0.19305 0.0
C21 C 1.0092 0.90639 0.23002 0.0
C22 C 1.0116 0.90291 0.39256 0.0
N23 N 0.06877 0.7604 0.22179 0.0
H24 H 0.84296 0.10294 0.22861 0.0
H25 H 0.78691 1.03514 0.8524 0.0
H26 H 0.69509 0.98041 0.32503 0.0
H27 H 0.88659 1.03365 0.76691 0.0
C28 C 0.91139 0.06006 0.82546 0.0
C29 C 0.81573 0.07163 0.19301 0.0
C30 C 0.76521 1.0442 0.29315 0.0
C31 C 0.82908 0.05977 0.04264 0.0
C32 C 0.78446 1.03271 0.98083 0.0
C33 C 0.73276 1.01092 0.08051 0.0
C34 C 0.73323 1.00204 0.24768 0.0
N35 N 0.88359 0.08114 0.95114 0.0
H36 H 0.58117 0.75689 0.425 0.0
H37 H 0.55505 0.74944 0.93596 0.0
H38 H 0.60341 0.5878 0.32587 0.0
H39 H 0.59799 0.84974 0.85399 0.0
C40 C 0.57794 0.86807 0.94497 0.0
C41 C 0.5817 0.73129 0.33957 0.0
C42 C 0.59315 0.66756 0.39844 0.0
C43 C 0.57147 0.7623 0.16963 0.0
C44 C 0.56606 0.72741 0.06341 0.0
C45 C 0.57511 0.66383 0.12176 0.0
C46 C 0.59245 0.63569 0.28486 0.0
N47 N 0.56441 0.82766 0.11102 0.0
H48 H 0.28461 0.52292 0.12466 0.0
H49 H 0.26422 0.55653 0.58966 0.0
H50 H 0.11384 0.51552 0.36476 0.0
H51 H 0.36504 0.44973 0.5871 0.0
C52 C 0.36503 0.49949 0.5452 0.0
C53 C 0.25659 0.52632 0.22674 0.0
C54 C 0.19496 0.5203 0.22393 0.0
C55 C 0.28166 0.53505 0.36577 0.0
C56 C 0.24532 0.54643 0.48782 0.0
C57 C 0.18496 0.54208 0.48458 0.0
C58 C 0.16032 0.52412 0.36017 0.0
N59 N 0.34301 0.53147 0.38678 0.0
H60 H 0.0629 0.31678 0.22232 0.0
H61 H 0.15489 0.23744 0.66604 0.0
H62 H 0.15451 0.14681 0.31444 0.0
H63 H 0.16415 0.34022 0.65482 0.0
C64 C 0.11677 0.3428 0.64618 0.0
C65 C 0.09462 0.28451 0.29046 0.0
C66 C 0.11191 0.23423 0.2394 0.0
C67 C 0.11424 0.28856 0.44056 0.0
C68 C 0.14618 0.23966 0.54116 0.0
C69 C 0.14888 0.18547 0.50446 0.0
C70 C 0.14677 0.18878 0.34199 0.0
N71 N 0.09103 0.33275 0.50874 0.0
H72 H 0.31557 0.98811 0.50732 0.0
H73 H 0.37178 0.05562 0.88395 0.0
H74 H 0.46386 0.11005 0.4117 0.0
H75 H 0.27198 0.05773 0.96849 0.0
C76 C 0.24713 1.03141 0.90982 0.0
C77 C 0.3429 1.01929 0.5431 0.0
C78 C 0.39355 0.04652 0.44323 0.0
C79 C 0.32956 1.03122 0.69339 0.0
C80 C 0.37427 0.05804 0.75551 0.0
C81 C 0.42606 0.07963 0.65608 0.0
C82 C 0.42565 0.08855 0.48889 0.0
N83 N 0.27493 1.01014 0.78448 0.0
H84 H 0.57791 0.3334 0.31177 0.0
H85 H 0.60405 0.34082 0.80083 0.0
H86 H 0.55617 0.50258 0.41059 0.0
H87 H 0.56089 0.2406 0.88269 0.0
C88 C 0.58091 0.22225 0.79188 0.0
C89 C 0.57746 0.359 0.39714 0.0
C90 C 0.56619 0.42277 0.33818 0.0
C91 C 0.58762 0.32799 0.56713 0.0
C92 C 0.59312 0.36288 0.67331 0.0
C93 C 0.58425 0.42649 0.61486 0.0
C94 C 0.567 0.45466 0.45169 0.0
N95 N 0.59453 0.26261 0.6258 0.0
Co96 Co 0.07718 0.07392 0.94844 0.0
C97 C 0.97059 0.06271 0.80509 0.0
Co98 Co 0.08133 1.01783 0.78634 0.0
C99 C 0.1012 0.17914 0.04535 0.0
C100 C 1.01672 0.13996 0.13538 0.0
N101 N 0.06606 0.13149 0.05342 0.0
N102 N 0.07788 0.21469 0.12973 0.0
C103 C 1.02363 0.19107 0.18053 0.0
H104 H 0.14624 0.18324 -0.00326 0.0
H105 H 0.97882 0.10965 0.16566 0.0
C106 C 0.18792 1.02895 0.92982 0.0
N107 N 0.09256 0.96037 0.68102 0.0
C108 C 0.0576 0.91265 0.68865 0.0
C109 C 0.14191 0.95229 0.59843 0.0
N110 N 0.08104 0.87742 0.60348 0.0
C111 C 0.13518 0.90134 0.55251 0.0
C112 C 0.12281 0.13097 0.62994 0.0
O113 O 0.15915 0.05912 0.00866 0.0
O114 O 0.1599 1.00328 0.84678 0.0
O115 O 0.11063 0.08231 0.59903 0.0
O116 O 0.10531 0.13602 0.76658 0.0
O117 O 0.99938 1.03259 0.72618 0.0
H118 H 0.17967 0.98279 0.56818 0.0
H119 H 1.01259 0.90828 0.73759 0.0
O120 O 0.99859 0.08847 0.888 0.0
O121 O 1.04781 1.00945 0.13578 0.0
O122 O 0.05319 0.95571 0.96823 0.0
C123 C 1.03559 0.96081 0.10478 0.0
H124 H 0.99441 0.20407 0.26627 0.0
H125 H 0.16442 0.88865 0.46626 0.0
Co126 Co 0.55596 1.0366 0.99033 0.0
C127 C 0.57431 0.92962 0.90698 0.0
Co128 Co 0.6028 0.05373 0.74653 0.0
C129 C 0.46018 0.04871 0.20712 0.0
C130 C 0.50556 0.96516 0.31379 0.0
N131 N 0.50918 1.01834 0.18621 0.0
N132 N 0.42616 1.0174 0.34271 0.0
C133 C 0.45521 0.96469 0.40977 0.0
H134 H 0.45067 0.09469 0.1277 0.0
H135 H 0.53718 0.9287 0.33506 0.0
C136 C 0.58449 0.1607 0.82987 0.0
N137 N 0.64954 0.07203 0.55059 0.0
C138 C 0.69862 1.04181 0.52952 0.0
C139 C 0.65298 0.1252 0.42294 0.0
N140 N 0.73253 0.07322 0.39378 0.0
C141 C 0.70332 0.12583 0.32679 0.0
C142 C 0.48402 0.07026 0.7277 0.0
O143 O 0.56178 0.12379 0.9657 0.0
O144 O 0.60734 0.13861 0.72456 0.0
O145 O 0.53084 0.07067 0.6387 0.0
O146 O 0.48638 0.05278 0.88252 0.0
O147 O 0.59698 0.96654 0.77112 0.0
H148 H 0.62125 0.16156 0.40176 0.0
H149 H 0.70828 0.99587 0.60893 0.0
O150 O 0.55146 0.95169 0.01236 0.0
O151 O 0.62795 1.01969 0.09817 0.0
O152 O 0.67237 1.03754 0.8543 0.0
C153 C 0.67477 1.02012 0.00911 0.0
H154 H 0.44377 0.93064 0.5288 0.0
H155 H 0.71464 0.15989 0.20768 0.0
Co156 Co 0.62838 0.54233 0.86981 0.0
C157 C 0.56606 0.45996 0.15714 0.0
Co158 Co 0.53099 0.54798 0.8668 0.0
C159 C 0.73504 0.58357 0.96368 0.0
C160 C 0.73599 0.48777 -0.00083 0.0
N161 N 0.70875 0.54021 0.91532 0.0
N162 N 0.77241 0.55945 0.0851 0.0
C163 C 0.77436 0.49933 0.10557 0.0
H164 H 0.7208 0.63067 0.92904 0.0
H165 H 0.72197 0.44258 0.00378 0.0
C166 C 0.5933 0.63035 0.57946 0.0
N167 N 0.4506 0.55008 0.82124 0.0
C168 C 0.42442 0.50673 0.77264 0.0
C169 C 0.42345 0.60253 0.737 0.0
N170 N 0.38728 0.53085 0.65059 0.0
C171 C 0.38533 0.59098 0.63002 0.0
C172 C 0.57142 0.62603 0.01253 0.0
O173 O 0.63993 0.60667 0.65117 0.0
O174 O 0.54407 0.61126 0.65376 0.0
O175 O 0.52263 0.60939 0.97348 0.0
O176 O 0.61823 0.60271 0.97667 0.0
O177 O 0.51944 0.48364 0.08541 0.0
H178 H 0.43746 0.64772 0.7324 0.0
H179 H 0.43865 0.45962 0.80749 0.0
O180 O 0.6153 0.47905 0.08286 0.0
O181 O 0.63674 0.48092 0.76312 0.0
O182 O 0.54116 0.4876 0.75996 0.0
C183 C 0.58795 0.46428 0.72409 0.0
H184 H 0.79753 0.46545 0.20067 0.0
H185 H 0.3624 0.62489 0.53437 0.0
Co186 Co 0.09082 0.59657 0.8229 0.0
C187 C 0.16389 0.52383 0.07159 0.0
Co188 Co 0.07003 0.49696 0.90748 0.0
C189 C 0.05767 0.70775 0.85881 0.0
C190 C 0.15086 0.70208 0.83765 0.0
N191 N 0.10091 0.67969 0.79898 0.0
N192 N 0.07812 0.73778 0.9553 0.0
C193 C 0.13684 0.73657 0.93801 0.0
H194 H 1.01175 0.69565 0.86134 0.0
H195 H 0.19419 0.68498 0.82243 0.0
C196 C 0.99697 0.56966 0.65876 0.0
N197 N 0.05989 0.41385 0.93135 0.0
C198 C 0.10297 0.38577 0.87092 0.0
C199 C 1.00981 0.39147 0.89338 0.0
N200 N 0.08226 0.35574 0.77477 0.0
C201 C 1.02357 0.35697 0.79287 0.0
C202 C 1.01217 0.54316 0.10943 0.0
O203 O 1.02744 0.61469 0.66728 0.0
O204 O 1.00758 0.51645 0.75648 0.0
O205 O 1.01672 0.49157 0.0876 0.0
O206 O 1.03788 0.58958 0.00789 0.0
O207 O 0.13343 0.47882 0.0629 0.0
H208 H 0.96653 0.40858 0.90919 0.0
H209 H 0.14893 0.39784 0.86781 0.0
O210 O 0.15324 0.57706 0.97406 0.0
O211 O 0.14416 0.60198 0.64281 0.0
O212 O 0.12293 0.50399 0.7225 0.0
C213 C 0.14867 0.55039 0.62098 0.0
H214 H 0.16708 0.75282 0.00822 0.0
H215 H 0.99314 0.3407 0.72315 0.0
loop_
_geom_bond_atom_site_label_1
_geom_bond_atom_site_label_2
_geom_bond_distance
_geom_bond_site_symmetry_2
_ccdc_geom_bond_type
H0 C5 0.930 . S
H1 C8 0.930 . S
H2 C10 0.930 1_455 S
H3 C4 1.016 1_556 S
C4 H3 1.016 1_554 S
C4 N11 1.286 . S
C5 H0 0.930 . S
C5 C6 1.397 . S
C5 C7 1.361 . S
C6 C5 1.397 . S
C6 C10 1.390 . S
C7 C5 1.361 . S
C7 C8 1.393 . S
C7 N11 1.413 . S
C8 H1 0.930 . S
C8 C7 1.393 . S
C8 C9 1.399 . S
C9 C8 1.399 . S
C9 C10 1.381 . S
C10 H2 0.930 1_655 S
C10 C6 1.390 . S
C10 C9 1.381 . S
N11 C4 1.286 . S
N11 C7 1.413 . S
H12 C17 0.930 . S
H13 C20 0.930 . S
H14 C22 0.930 . S
H15 C16 1.016 . S
C16 H15 1.016 . S
C16 N23 1.286 1_556 S
C17 H12 0.930 . S
C17 C18 1.397 . S
C17 C19 1.361 . S
C18 C17 1.397 . S
C18 C22 1.390 . S
C19 C17 1.361 . S
C19 C20 1.393 1_554 S
C19 N23 1.413 . S
C20 H13 0.930 . S
C20 C19 1.393 1_556 S
C20 C21 1.399 . S
C21 C20 1.399 . S
C21 C22 1.381 1_556 S
C22 H14 0.930 . S
C22 C18 1.390 . S
C22 C21 1.381 1_554 S
N23 C16 1.286 1_554 S
N23 C19 1.413 . S
H24 C29 0.930 . S
H25 C32 0.930 . S
H26 C34 0.930 . S
H27 C28 1.016 . S
C28 H27 1.016 . S
C28 N35 1.286 1_566 S
C29 H24 0.930 . S
C29 C30 1.397 . S
C29 C31 1.361 . S
C30 C29 1.397 . S
C30 C34 1.390 1_545 S
C31 C29 1.361 . S
C31 C32 1.393 1_554 S
C31 N35 1.413 . S
C32 H25 0.930 . S
C32 C31 1.393 1_556 S
C32 C33 1.399 . S
C33 C32 1.399 . S
C33 C34 1.381 1_546 S
C34 H26 0.930 . S
C34 C30 1.390 1_565 S
C34 C33 1.381 1_564 S
N35 C28 1.286 1_544 S
N35 C31 1.413 . S
H36 C41 0.930 . S
H37 C44 0.930 1_556 S
H38 C46 0.930 . S
H39 C40 1.016 1_556 S
C40 H39 1.016 1_554 S
C40 N47 1.286 . S
C41 H36 0.930 . S
C41 C42 1.397 . S
C41 C43 1.361 . S
C42 C41 1.397 . S
C42 C46 1.390 . S
C43 C41 1.361 . S
C43 C44 1.393 . S
C43 N47 1.413 . S
C44 H37 0.930 1_554 S
C44 C43 1.393 . S
C44 C45 1.399 . S
C45 C44 1.399 . S
C45 C46 1.381 . S
C46 H38 0.930 . S
C46 C42 1.390 . S
C46 C45 1.381 . S
N47 C40 1.286 . S
N47 C43 1.413 . S
H48 C53 0.930 . S
H49 C56 0.930 . S
H50 C58 0.930 . S
H51 C52 1.016 . S
C52 H51 1.016 . S
C52 N59 1.286 . S
C53 H48 0.930 . S
C53 C54 1.397 . S
C53 C55 1.361 . S
C54 C53 1.397 . S
C54 C58 1.390 . S
C55 C53 1.361 . S
C55 C56 1.393 . S
C55 N59 1.413 . S
C56 H49 0.930 . S
C56 C55 1.393 . S
C56 C57 1.399 . S
C57 C56 1.399 . S
C57 C58 1.381 . S
C58 H50 0.930 . S
C58 C54 1.390 . S
C58 C57 1.381 . S
N59 C52 1.286 . S
N59 C55 1.413 . S
H60 C65 0.930 . S
H61 C68 0.930 . S
H62 C70 0.930 . S
H63 C64 1.016 . S
C64 H63 1.016 . S
C64 N71 1.286 . S
C65 H60 0.930 . S
C65 C66 1.397 . S
C65 C67 1.361 . S
C66 C65 1.397 . S
C66 C70 1.390 . S
C67 C65 1.361 . S
C67 C68 1.393 . S
C67 N71 1.413 . S
C68 H61 0.930 . S
C68 C67 1.393 . S
C68 C69 1.399 . S
C69 C68 1.399 . S
C69 C70 1.381 . S
C70 H62 0.930 . S
C70 C66 1.390 . S
C70 C69 1.381 . S
N71 C64 1.286 . S
N71 C67 1.413 . S
H72 C77 0.930 . S
H73 C80 0.930 . S
H74 C82 0.930 . S
H75 C76 1.016 . S
C76 H75 1.016 . S
C76 N83 1.286 1_565 S
C77 H72 0.930 . S
C77 C78 1.397 . S
C77 C79 1.361 . S
C78 C77 1.397 . S
C78 C82 1.390 1_545 S
C79 C77 1.361 . S
C79 C80 1.393 . S
C79 N83 1.413 . S
C80 H73 0.930 . S
C80 C79 1.393 . S
C80 C81 1.399 . S
C81 C80 1.399 . S
C81 C82 1.381 1_545 S
C82 H74 0.930 . S
C82 C78 1.390 1_565 S
C82 C81 1.381 1_565 S
N83 C76 1.286 1_545 S
N83 C79 1.413 . S
H84 C89 0.930 . S
H85 C92 0.930 . S
H86 C94 0.930 . S
H87 C88 1.016 . S
C88 H87 1.016 . S
C88 N95 1.286 . S
C89 H84 0.930 . S
C89 C90 1.397 . S
C89 C91 1.361 . S
C90 C89 1.397 . S
C90 C94 1.390 . S
C91 C89 1.361 . S
C91 C92 1.393 . S
C91 N95 1.413 . S
C92 H85 0.930 . S
C92 C91 1.393 . S
C92 C93 1.399 . S
C93 C92 1.399 . S
C93 C94 1.381 . S
C94 H86 0.930 . S
C94 C90 1.390 . S
C94 C93 1.381 . S
N95 C88 1.286 . S
N95 C91 1.413 . S
Co96 N101 2.057 . S
Co96 O113 2.021 1_545 S
Co96 O116 2.062 1_554 S
Co96 O120 2.117 1_454 S
Co96 O121 2.020 1_545 S
C97 O117 1.259 . S
C97 O120 1.258 . S
Co98 N107 2.057 . S
Co98 O114 2.117 . S
Co98 O115 2.020 1_565 S
Co98 O117 2.021 1_465 S
Co98 O122 2.062 . S
C99 N101 1.316 . S
C99 N102 1.347 . S
C99 H104 0.931 . S
C100 N101 1.375 1_655 S
C100 C103 1.350 1_655 S
C100 H105 0.930 . S
N101 Co96 2.057 . S
N101 C99 1.316 . S
N101 C100 1.375 1_455 S
N102 C99 1.347 . S
N102 C103 1.373 . S
C103 C100 1.350 1_455 S
C103 N102 1.373 . S
C103 H124 0.931 1_455 S
H104 C99 0.931 . S
H105 C100 0.930 . S
C106 O113 1.259 1_556 S
C106 O114 1.258 . S
N107 Co98 2.057 . S
N107 C108 1.316 1_455 S
N107 C109 1.375 . S
C108 N107 1.316 1_655 S
C108 N110 1.347 . S
C108 H119 0.931 . S
C109 N107 1.375 . S
C109 C111 1.350 . S
C109 H118 0.930 . S
N110 C108 1.347 . S
N110 C111 1.373 1_655 S
C111 C109 1.350 . S
C111 N110 1.373 1_455 S
C111 H125 0.931 . S
C112 O115 1.256 . S
C112 O116 1.255 . S
O113 Co96 2.021 1_565 S
O113 C106 1.259 1_554 S
O114 Co98 2.117 . S
O114 C106 1.258 . S
O115 Co98 2.020 1_545 S
O115 C112 1.256 . S
O116 Co96 2.062 1_556 S
O116 C112 1.255 . S
O117 C97 1.259 . S
O117 Co98 2.021 1_645 S
H118 C109 0.930 . S
H119 C108 0.931 . S
O120 Co96 2.117 1_656 S
O120 C97 1.258 . S
O121 Co96 2.020 1_565 S
O121 C123 1.256 . S
O122 Co98 2.062 . S
O122 C123 1.255 1_556 S
C123 O121 1.256 . S
C123 O122 1.255 1_554 S
H124 C103 0.931 1_655 S
H125 C111 0.931 . S
Co126 N131 2.057 1_545 S
Co126 O143 2.021 1_554 S
Co126 O146 2.062 1_554 S
Co126 O150 2.117 1_545 S
Co126 O151 2.020 . S
C127 O147 1.259 . S
C127 O150 1.258 1_556 S
Co128 N137 2.057 1_565 S
Co128 O144 2.117 1_565 S
Co128 O145 2.020 . S
Co128 O147 2.021 . S
Co128 O152 2.062 . S
C129 N131 1.316 1_545 S
C129 N132 1.347 1_545 S
C129 H134 0.931 . S
C130 N131 1.375 . S
C130 C133 1.350 . S
C130 H135 0.930 . S
N131 Co126 2.057 1_565 S
N131 C129 1.316 1_565 S
N131 C130 1.375 . S
N132 C129 1.347 1_565 S
N132 C133 1.373 . S
C133 C130 1.350 . S
C133 N132 1.373 . S
C133 H154 0.931 . S
H134 C129 0.931 . S
H135 C130 0.930 . S
C136 O143 1.259 . S
C136 O144 1.258 . S
N137 Co128 2.057 1_545 S
N137 C138 1.316 1_545 S
N137 C139 1.375 . S
C138 N137 1.316 1_565 S
C138 N140 1.347 1_565 S
C138 H149 0.931 . S
C139 N137 1.375 . S
C139 C141 1.350 . S
C139 H148 0.930 . S
N140 C138 1.347 1_545 S
N140 C141 1.373 . S
C141 C139 1.350 . S
C141 N140 1.373 . S
C141 H155 0.931 . S
C142 O145 1.256 . S
C142 O146 1.255 1_565 S
O143 Co126 2.021 1_556 S
O143 C136 1.259 . S
O144 Co128 2.117 1_545 S
O144 C136 1.258 . S
O145 Co128 2.020 . S
O145 C142 1.256 . S
O146 Co126 2.062 1_556 S
O146 C142 1.255 1_545 S
O147 C127 1.259 . S
O147 Co128 2.021 . S
H148 C139 0.930 . S
H149 C138 0.931 . S
O150 Co126 2.117 1_565 S
O150 C127 1.258 1_554 S
O151 Co126 2.020 . S
O151 C153 1.256 1_554 S
O152 Co128 2.062 . S
O152 C153 1.255 1_565 S
C153 O151 1.256 1_556 S
C153 O152 1.255 1_545 S
H154 C133 0.931 . S
H155 C141 0.931 . S
Co156 N161 2.057 . S
Co156 O173 2.021 . S
Co156 O176 2.062 . S
Co156 O180 2.117 1_556 S
Co156 O181 2.020 . S
C157 O177 1.259 . S
C157 O180 1.258 . S
Co158 N167 2.057 . S
Co158 O174 2.117 . S
Co158 O175 2.020 . S
Co158 O177 2.021 1_556 S
Co158 O182 2.062 . S
C159 N161 1.316 . S
C159 N162 1.347 1_556 S
C159 H164 0.931 . S
C160 N161 1.375 1_554 S
C160 C163 1.350 . S
C160 H165 0.930 . S
N161 Co156 2.057 . S
N161 C159 1.316 . S
N161 C160 1.375 1_556 S
N162 C159 1.347 1_554 S
N162 C163 1.373 . S
C163 C160 1.350 . S
C163 N162 1.373 . S
C163 H184 0.931 . S
H164 C159 0.931 . S
H165 C160 0.930 . S
C166 O173 1.259 . S
C166 O174 1.258 . S
N167 Co158 2.057 . S
N167 C168 1.316 . S
N167 C169 1.375 . S
C168 N167 1.316 . S
C168 N170 1.347 . S
C168 H179 0.931 . S
C169 N167 1.375 . S
C169 C171 1.350 . S
C169 H178 0.930 . S
N170 C168 1.347 . S
N170 C171 1.373 . S
C171 C169 1.350 . S
C171 N170 1.373 . S
C171 H185 0.931 . S
C172 O175 1.256 1_554 S
C172 O176 1.255 1_554 S
O173 Co156 2.021 . S
O173 C166 1.259 . S
O174 Co158 2.117 . S
O174 C166 1.258 . S
O175 Co158 2.020 . S
O175 C172 1.256 1_556 S
O176 Co156 2.062 . S
O176 C172 1.255 1_556 S
O177 C157 1.259 . S
O177 Co158 2.021 1_554 S
H178 C169 0.930 . S
H179 C168 0.931 . S
O180 Co156 2.117 1_554 S
O180 C157 1.258 . S
O181 Co156 2.020 . S
O181 C183 1.256 . S
O182 Co158 2.062 . S
O182 C183 1.255 . S
C183 O181 1.256 . S
C183 O182 1.255 . S
H184 C163 0.931 . S
H185 C171 0.931 . S
Co186 N191 2.057 . S
Co186 O203 2.021 1_455 S
Co186 O206 2.062 1_455 S
Co186 O210 2.117 1_556 S
Co186 O211 2.020 . S
C187 O207 1.259 . S
C187 O210 1.258 . S
Co188 N197 2.057 . S
Co188 O204 2.117 1_455 S
Co188 O205 2.020 1_456 S
Co188 O207 2.021 1_556 S
Co188 O212 2.062 . S
C189 N191 1.316 . S
C189 N192 1.347 . S
C189 H194 0.931 1_455 S
C190 N191 1.375 . S
C190 C193 1.350 . S
C190 H195 0.930 1_556 S
N191 Co186 2.057 . S
N191 C189 1.316 . S
N191 C190 1.375 . S
N192 C189 1.347 . S
N192 C193 1.373 . S
C193 C190 1.350 . S
C193 N192 1.373 . S
C193 H214 0.931 1_556 S
H194 C189 0.931 1_655 S
H195 C190 0.930 1_554 S
C196 O203 1.259 . S
C196 O204 1.258 . S
N197 Co188 2.057 . S
N197 C198 1.316 . S
N197 C199 1.375 1_455 S
C198 N197 1.316 . S
C198 N200 1.347 . S
C198 H209 0.931 1_556 S
C199 N197 1.375 1_655 S
C199 C201 1.350 . S
C199 H208 0.930 . S
N200 C198 1.347 . S
N200 C201 1.373 1_455 S
C201 C199 1.350 . S
C201 N200 1.373 1_655 S
C201 H215 0.931 . S
C202 O205 1.256 . S
C202 O206 1.255 1_554 S
O203 Co186 2.021 1_655 S
O203 C196 1.259 . S
O204 Co188 2.117 1_655 S
O204 C196 1.258 . S
O205 Co188 2.020 1_654 S
O205 C202 1.256 . S
O206 Co186 2.062 1_655 S
O206 C202 1.255 1_556 S
O207 C187 1.259 . S
O207 Co188 2.021 1_554 S
H208 C199 0.930 . S
H209 C198 0.931 1_554 S
O210 Co186 2.117 1_554 S
O210 C187 1.258 . S
O211 Co186 2.020 . S
O211 C213 1.256 . S
O212 Co188 2.062 . S
O212 C213 1.255 . S
C213 O211 1.256 . S
C213 O212 1.255 . S
H214 C193 0.931 1_554 S
H215 C201 0.931 . S
C76 C106 2.064 . S
C136 C88 2.037 . S
N170 C52 1.359 . S
N200 C64 1.898 . S
C97 C28 2.082 1_545 S
C40 C127 2.053 1_554 S
C4 N162 1.392 . S
C16 N192 1.960 1_655 S
C112 C69 1.306 . S
C142 C81 1.400 1_565 S
C183 C93 1.816 . S
C57 C213 1.205 . S
C21 C123 1.259 1_656 S
C153 C33 1.399 . S
C172 C45 1.800 . S
C9 C202 1.163 . S
C66 N102 1.613 . S
C78 N132 1.530 1_545 S
C157 C90 1.826 . S
C187 C54 1.731 . S
C18 N110 1.568 . S
N140 C30 1.521 . S
C166 C42 1.832 . S
C6 C196 1.727 . S
