# Generated by pormake.
# Topology scu, (8,4)-cn, num edge types: 1
# Building blocks:
#     Node 0, Type 0, BuildingBlock: VETTIZ_charged_sbu_0, # of connection points: 8
#     Node 1, Type 1, BuildingBlock: IZENUY_clean_linker_0, # of connection points: 4
#     Node 2, Type 1, BuildingBlock: IZENUY_clean_linker_0, # of connection points: 4
#     Edge 3, Type (0, 1), BuildingBlock: KIFKEQ_clean_linker_1, # of connection points: 2
#     Edge 4, Type (0, 1), BuildingBlock: KIFKEQ_clean_linker_1, # of connection points: 2
#     Edge 5, Type (0, 1), BuildingBlock: KIFKEQ_clean_linker_1, # of connection points: 2
#     Edge 6, Type (0, 1), BuildingBlock: KIFKEQ_clean_linker_1, # of connection points: 2
#     Edge 7, Type (0, 1), BuildingBlock: KIFKEQ_clean_linker_1, # of connection points: 2
#     Edge 8, Type (0, 1), BuildingBlock: KIFKEQ_clean_linker_1, # of connection points: 2
#     Edge 9, Type (0, 1), BuildingBlock: KIFKEQ_clean_linker_1, # of connection points: 2
#     Edge 10, Type (0, 1), BuildingBlock: KIFKEQ_clean_linker_1, # of connection points: 2
# Relax obj value: 0.029
# Max RMSD: 0.128
# Mean RMSD: 0.109
data_MOF--net-scu--node1-VETTIZ_charged_sbu_0--node2-IZENUY_clean_linker_0--edge1-KIFKEQ_clean_linker_1
_symmetry_space_group_name_H-M    P1
_symmetry_Int_Tables_number       1
_symmetry_cell_setting            triclinic
loop_
_symmetry_equiv_pos_as_xyz
'x, y, z'
_cell_length_a     29.101765
_cell_length_b     29.106124
_cell_length_c     18.709525
_cell_angle_alpha  90.196399
_cell_angle_beta   86.612397
_cell_angle_gamma 91.384605
loop_
_atom_site_label
_atom_site_type_symbol
_atom_site_fract_x
_atom_site_fract_y
_atom_site_fract_z
_atom_type_partial_charge
Fe0 Fe 0.05082 0.05529 0.15281 0.0
O1 O 0.04528 0.04978 0.04917 0.0
Fe2 Fe 0.06242 0.9869 1.00029 0.0
Fe3 Fe 0.98657 0.06047 0.00223 0.0
O4 O 0.04855 0.04649 0.0492 0.0
O5 O 1.00397 0.99786 0.95285 0.0
O6 O 1.00061 1.00102 0.95301 0.0
Fe7 Fe 0.99837 0.99258 0.84923 0.0
C8 C 0.94605 0.03693 0.14747 0.0
O9 O 0.04456 0.12398 0.12874 0.0
O10 O 0.98085 0.12259 0.06019 0.0
O11 O 0.06891 0.99445 0.82442 0.0
O12 O 0.10107 1.02158 0.92167 0.0
O13 O 0.12281 0.98423 0.05668 0.0
O14 O 0.12059 0.04925 0.12783 0.0
O15 O 1.02234 0.09771 0.92304 0.0
O16 O 0.9968 0.06222 0.82717 0.0
C17 C 0.14194 1.01515 0.09676 0.0
O18 O 1.00558 0.92384 0.87222 0.0
O19 O 0.06845 0.92491 0.94237 0.0
O20 O 0.98039 0.0553 0.17699 0.0
O21 O 0.94829 0.02569 0.08165 0.0
C22 C 1.01094 0.14355 0.0987 0.0
C23 C 1.01317 0.09782 0.85746 0.0
C24 C 0.90695 0.03086 0.90701 0.0
O25 O 0.92575 0.06254 0.94619 0.0
O26 O 0.92866 0.99723 0.87527 0.0
C27 C 0.103 1.0125 0.8551 0.0
O28 O 0.02622 0.94985 0.07921 0.0
O29 O 0.05093 0.98562 0.17553 0.0
C30 C 0.03886 0.90417 0.90286 0.0
C31 C 0.03477 0.94995 0.14506 0.0
H32 H 1.01837 0.46854 0.394 0.0
H33 H 1.01715 0.44187 0.62122 0.0
H34 H 1.00565 0.33016 0.47167 0.0
H35 H 0.02959 0.57904 0.60836 0.0
H36 H 0.03013 0.60594 0.38126 0.0
H37 H 0.04205 0.71749 0.531 0.0
N38 N 1.02267 0.50892 0.52519 0.0
N39 N 0.02489 0.53878 0.47717 0.0
C40 C 1.01586 0.44486 0.43869 0.0
C41 C 1.01158 0.39759 0.4254 0.0
C42 C 1.0179 0.46117 0.50967 0.0
C43 C 1.0155 0.4295 0.56671 0.0
C44 C 1.01024 0.38211 0.55346 0.0
C45 C 1.00851 0.36673 0.48265 0.0
C46 C 0.03193 0.60276 0.56372 0.0
C47 C 0.03626 0.65001 0.57711 0.0
C48 C 0.02967 0.58652 0.49273 0.0
C49 C 0.03193 0.61825 0.43578 0.0
C50 C 0.03723 0.66563 0.44912 0.0
C51 C 0.03915 0.68093 0.51994 0.0
H52 H 0.59628 0.0292 0.41456 0.0
H53 H 0.57986 0.02599 0.64569 0.0
H54 H 0.71498 0.03509 0.54054 0.0
H55 H 0.44852 0.03073 0.5826 0.0
H56 H 0.46831 1.00153 0.35643 0.0
H57 H 0.3318 1.00675 0.4559 0.0
N58 N 0.53305 0.02414 0.52884 0.0
N59 N 0.51325 1.01906 0.47186 0.0
C60 C 0.61088 0.02955 0.46649 0.0
C61 C 0.65897 0.03316 0.47039 0.0
C62 C 0.58193 0.02741 0.5301 0.0
C63 C 0.60177 0.02822 0.59687 0.0
C64 C 0.64975 0.03033 0.60055 0.0
C65 C 0.67784 0.0332 0.53743 0.0
C66 C 0.43462 1.0225 0.53153 0.0
C67 C 0.38654 1.02009 0.52616 0.0
C68 C 0.46444 1.01579 0.46989 0.0
C69 C 0.44563 1.0062 0.40383 0.0
C70 C 0.39783 1.00202 0.39896 0.0
C71 C 0.36883 1.00904 0.46011 0.0
H72 H 0.07468 0.21198 0.07741 0.0
H73 H 0.93559 0.18433 0.16077 0.0
H74 H 0.07337 0.28792 0.13295 0.0
H75 H 0.93476 0.25906 0.22031 0.0
H76 H 0.94134 0.39135 0.33531 0.0
H77 H 0.93796 0.34039 0.2309 0.0
H78 H 0.08021 0.30601 0.25355 0.0
H79 H 0.08331 0.35769 0.35519 0.0
C80 C 0.04342 0.22282 0.10633 0.0
C81 C 1.00533 0.19254 0.11539 0.0
C82 C 0.04273 0.26609 0.13875 0.0
C83 C 1.00445 0.27933 0.1829 0.0
C84 C 0.9648 0.25039 0.18653 0.0
C85 C 0.96518 0.20743 0.15258 0.0
C86 C 0.97222 0.37425 0.3155 0.0
C87 C 1.01271 0.3785 0.35231 0.0
C88 C 0.97022 0.34463 0.25645 0.0
C89 C 1.00863 0.31856 0.23388 0.0
C90 C 0.05006 0.32584 0.26808 0.0
C91 C 0.052 0.35543 0.32662 0.0
H92 H 0.92746 0.06177 0.28677 0.0
H93 H 0.86239 1.00412 0.10378 0.0
H94 H 0.85351 0.06201 0.35372 0.0
H95 H 0.78771 1.00462 0.17168 0.0
H96 H 0.67707 0.96874 0.36606 0.0
H97 H 0.74472 0.96843 0.28082 0.0
H98 H 0.78218 0.10555 0.3488 0.0
H99 H 0.71538 0.10532 0.43394 0.0
C100 C 0.89745 0.04893 0.26073 0.0
C101 C 0.90109 0.03313 0.18956 0.0
C102 C 0.85485 0.04945 0.29908 0.0
C103 C 0.81453 0.0341 0.26765 0.0
C104 C 0.81813 1.01679 0.19731 0.0
C105 C 0.86094 1.01651 0.1585 0.0
C106 C 0.69904 0.99926 0.36073 0.0
C107 C 0.69115 0.0371 0.40623 0.0
C108 C 0.73785 0.99904 0.31234 0.0
C109 C 0.76934 0.0366 0.30918 0.0
C110 C 0.7592 0.07568 0.35105 0.0
C111 C 0.72069 0.07583 0.39916 0.0
H112 H 1.01219 0.86325 0.09632 0.0
H113 H 0.04855 0.93708 0.28661 0.0
H114 H 1.01381 0.79067 0.16188 0.0
H115 H 0.04971 0.86507 0.35147 0.0
H116 H 0.10278 0.73252 0.42625 0.0
H117 H 0.10051 0.79901 0.34803 0.0
H118 H 0.9748 0.74547 0.26428 0.0
H119 H 0.97749 0.67818 0.34285 0.0
C120 C 1.01997 0.86415 0.15223 0.0
C121 C 0.03061 0.90614 0.18595 0.0
C122 C 1.02087 0.82251 0.18972 0.0
C123 C 0.03269 0.822 0.26151 0.0
C124 C 0.04158 0.86411 0.29571 0.0
C125 C 0.04056 0.90554 0.25855 0.0
C126 C 0.07508 0.73456 0.39024 0.0
C127 C 0.0401 0.70043 0.39103 0.0
C128 C 0.07353 0.77283 0.34585 0.0
C129 C 0.03687 0.77811 0.30116 0.0
C130 C 1.00343 0.74245 0.29825 0.0
C131 C 1.00504 0.70387 0.34291 0.0
H132 H 0.20207 0.08197 0.13718 0.0
H133 H 0.19166 0.93612 0.09566 0.0
H134 H 0.27594 0.07194 0.18796 0.0
H135 H 0.26646 0.92604 0.14616 0.0
H136 H 0.33712 0.93341 0.36946 0.0
H137 H 0.28494 0.93195 0.27246 0.0
H138 H 0.35688 0.05031 0.1773 0.0
H139 H 0.40887 0.0519 0.2757 0.0
C140 C 0.21609 0.04783 0.13743 0.0
C141 C 0.19059 1.00972 0.11367 0.0
C142 C 0.25882 0.04213 0.16585 0.0
C143 C 0.27702 0.99811 0.17165 0.0
C144 C 0.25313 0.96035 0.14299 0.0
C145 C 0.21038 0.96614 0.11384 0.0
C146 C 0.34273 0.95806 0.32637 0.0
C147 C 0.37656 0.99305 0.33023 0.0
C148 C 0.31298 0.95715 0.27051 0.0
C149 C 0.3163 0.99146 0.21764 0.0
C150 C 0.35311 0.02378 0.21782 0.0
C151 C 0.38311 0.0245 0.27368 0.0
H152 H 0.11389 0.86319 0.84016 0.0
H153 H 0.97515 0.83587 0.92536 0.0
H154 H 0.11431 0.78834 0.78098 0.0
H155 H 0.97606 0.75981 0.87019 0.0
H156 H 0.96488 0.68998 0.64814 0.0
H157 H 0.96856 0.74164 0.74971 0.0
H158 H 0.1109 0.70697 0.77074 0.0
H159 H 0.10693 0.65601 0.66642 0.0
C160 C 0.0843 0.84014 0.84882 0.0
C161 C 0.04435 0.85514 0.88642 0.0
C162 C 0.08445 0.79711 0.81509 0.0
C163 C 0.04476 0.76822 0.81935 0.0
C164 C 1.00672 0.78159 0.86392 0.0
C165 C 1.00626 0.82493 0.89613 0.0
C166 C 0.99634 0.69216 0.67636 0.0
C167 C 0.03548 0.66902 0.65023 0.0
C168 C 0.99861 0.72174 0.73487 0.0
C169 C 0.04023 0.72895 0.76856 0.0
C170 C 0.07849 0.70279 0.74558 0.0
C171 C 0.07616 0.67317 0.68658 0.0
H172 H 0.11666 1.01839 0.70975 0.0
H173 H 0.18969 0.02357 0.90421 0.0
H174 H 0.18945 0.02676 0.63924 0.0
H175 H 0.26287 0.03178 0.83306 0.0
H176 H 0.37786 0.97826 0.65793 0.0
H177 H 0.31107 0.98183 0.74449 0.0
H178 H 0.2525 0.08592 0.61608 0.0
H179 H 0.3188 0.08232 0.53044 0.0
C180 C 0.14821 1.0216 0.7375 0.0
C181 C 0.14724 1.02038 0.81262 0.0
C182 C 0.18997 0.02666 0.69708 0.0
C183 C 0.23195 0.03013 0.7306 0.0
C184 C 0.23112 0.02907 0.80575 0.0
C185 C 0.18916 0.02467 0.84639 0.0
C186 C 0.35136 1.00287 0.64971 0.0
C187 C 0.35323 0.02971 0.58731 0.0
C188 C 0.31307 1.00482 0.69896 0.0
C189 C 0.27611 0.03352 0.68625 0.0
C190 C 0.27992 0.0628 0.6266 0.0
C191 C 0.31802 0.06097 0.57786 0.0
H192 H 0.03558 0.18456 0.90632 0.0
H193 H 0.99877 0.11082 0.71619 0.0
H194 H 0.03368 0.25719 0.84091 0.0
H195 H 0.99735 0.18284 0.65148 0.0
H196 H 0.9446 0.31532 0.5764 0.0
H197 H 0.94675 0.2489 0.65482 0.0
H198 H 0.07248 0.30241 0.73857 0.0
H199 H 0.06988 0.36963 0.65985 0.0
C200 C 0.02762 0.18369 0.85049 0.0
C201 C 1.01696 0.14171 0.81676 0.0
C202 C 0.02656 0.22535 0.81308 0.0
C203 C 1.01456 0.22589 0.74137 0.0
C204 C 1.0056 0.18379 0.70718 0.0
C205 C 1.00677 0.14235 0.74427 0.0
C206 C 0.97227 0.31329 0.61247 0.0
C207 C 1.00728 0.34738 0.61164 0.0
C208 C 0.97374 0.27507 0.65697 0.0
C209 C 1.01039 0.26979 0.70171 0.0
C210 C 0.04385 0.30542 0.70458 0.0
C211 C 0.0423 0.34396 0.65982 0.0
H212 H 0.86203 0.10614 0.8636 0.0
H213 H 0.84247 0.96236 0.91439 0.0
H214 H 0.78801 0.10551 0.80808 0.0
H215 H 0.76756 0.96192 0.86256 0.0
H216 H 0.69995 0.96067 0.64457 0.0
H217 H 0.75294 0.96224 0.73991 0.0
H218 H 0.70532 0.09655 0.80492 0.0
H219 H 0.65251 0.09484 0.70707 0.0
C220 C 0.84092 0.07493 0.86547 0.0
C221 C 0.85799 0.03415 0.89218 0.0
C222 C 0.79842 0.07449 0.83384 0.0
C223 C 0.77217 0.03334 0.82935 0.0
C224 C 0.7874 0.99387 0.86319 0.0
C225 C 0.83012 0.99413 0.89335 0.0
C226 C 0.69983 0.98982 0.68078 0.0
C227 C 0.67221 0.02749 0.66903 0.0
C228 C 0.7301 0.99079 0.73576 0.0
C229 C 0.73364 0.02964 0.78035 0.0
C230 C 0.70378 0.0663 0.77122 0.0
C231 C 0.67322 0.06519 0.71591 0.0
loop_
_geom_bond_atom_site_label_1
_geom_bond_atom_site_label_2
_geom_bond_distance
_geom_bond_site_symmetry_2
_ccdc_geom_bond_type
Fe0 O1 1.886 . S
Fe0 O4 1.715 1_645 S
Fe0 O9 2.077 1_655 S
Fe0 O14 1.935 1_655 S
Fe0 O20 2.077 1_545 S
Fe0 O29 1.935 1_545 S
O1 Fe0 1.886 . S
O1 Fe3 1.715 . S
Fe2 O4 1.886 . S
Fe2 O5 1.715 1_554 S
Fe2 O12 1.935 1_554 S
Fe2 O13 2.077 . S
Fe2 O19 1.935 1_554 S
Fe2 O28 2.077 . S
Fe3 O1 1.715 . S
Fe3 O6 1.886 1_554 S
Fe3 O10 1.935 . S
Fe3 O15 2.077 1_554 S
Fe3 O21 1.935 . S
Fe3 O25 2.077 1_554 S
O4 Fe0 1.715 1_465 S
O4 Fe2 1.886 . S
O5 Fe2 1.715 1_556 S
O5 Fe7 1.886 . S
O6 Fe3 1.886 1_556 S
O6 Fe7 1.715 1_645 S
Fe7 O5 1.886 . S
Fe7 O6 1.715 1_465 S
Fe7 O11 2.077 1_565 S
Fe7 O16 1.935 1_565 S
Fe7 O18 2.077 1_455 S
Fe7 O26 1.935 1_455 S
C8 O20 1.377 1_545 S
C8 O21 1.421 . S
O9 Fe0 2.077 1_455 S
O9 C22 1.375 1_455 S
O10 Fe3 1.935 . S
O10 C22 1.421 . S
O11 Fe7 2.077 1_545 S
O11 C27 1.375 1_545 S
O12 Fe2 1.935 1_556 S
O12 C27 1.421 . S
O13 Fe2 2.077 . S
O13 C17 1.381 . S
O14 Fe0 1.935 1_455 S
O14 C17 1.421 1_545 S
O15 Fe3 2.077 1_556 S
O15 C23 1.381 . S
O16 Fe7 1.935 1_545 S
O16 C23 1.421 1_455 S
C17 O13 1.381 . S
C17 O14 1.421 1_565 S
O18 Fe7 2.077 1_655 S
O18 C30 1.377 1_655 S
O19 Fe2 1.935 1_556 S
O19 C30 1.421 . S
O20 Fe0 2.077 1_565 S
O20 C8 1.377 1_565 S
O21 Fe3 1.935 . S
O21 C8 1.421 . S
C22 O9 1.375 1_655 S
C22 O10 1.421 . S
C23 O15 1.381 . S
C23 O16 1.421 1_655 S
C24 O25 1.381 . S
C24 O26 1.421 1_545 S
O25 Fe3 2.077 1_556 S
O25 C24 1.381 . S
O26 Fe7 1.935 1_655 S
O26 C24 1.421 1_565 S
C27 O11 1.375 1_565 S
C27 O12 1.421 . S
O28 Fe2 2.077 . S
O28 C31 1.381 . S
O29 Fe0 1.935 1_565 S
O29 C31 1.421 1_655 S
C30 O18 1.377 1_455 S
C30 O19 1.421 . S
C31 O28 1.381 . S
C31 O29 1.421 1_455 S
H32 C40 0.940 . S
H33 C43 0.940 . S
H34 C45 0.940 . S
H35 C46 0.940 . S
H36 C49 0.940 . S
H37 C51 0.940 . S
N38 N39 1.190 . S
N38 C42 1.477 . S
N39 N38 1.190 . S
N39 C48 1.477 . S
C40 H32 0.940 . S
C40 C41 1.390 1_455 S
C40 C42 1.322 . S
C41 C40 1.390 1_655 S
C41 C45 1.370 . S
C42 N38 1.477 . S
C42 C40 1.322 . S
C42 C43 1.447 . S
C43 H33 0.940 . S
C43 C42 1.447 . S
C43 C44 1.373 . S
C44 C43 1.373 . S
C44 C45 1.417 1_455 S
C45 H34 0.940 . S
C45 C41 1.370 . S
C45 C44 1.417 1_655 S
C46 H35 0.940 . S
C46 C47 1.390 1_455 S
C46 C48 1.322 . S
C47 C46 1.390 1_655 S
C47 C51 1.370 . S
C48 N39 1.477 . S
C48 C46 1.322 . S
C48 C49 1.447 . S
C49 H36 0.940 . S
C49 C48 1.447 . S
C49 C50 1.373 . S
C50 C49 1.373 . S
C50 C51 1.417 1_455 S
C51 H37 0.940 . S
C51 C47 1.370 . S
C51 C50 1.417 1_655 S
H52 C60 0.940 . S
H53 C63 0.940 . S
H54 C65 0.940 . S
H55 C66 0.940 . S
H56 C69 0.940 . S
H57 C71 0.940 . S
N58 N59 1.190 . S
N58 C62 1.477 . S
N59 N58 1.190 . S
N59 C68 1.477 . S
C60 H52 0.940 . S
C60 C61 1.390 1_545 S
C60 C62 1.322 . S
C61 C60 1.390 1_565 S
C61 C65 1.370 . S
C62 N58 1.477 . S
C62 C60 1.322 . S
C62 C63 1.447 . S
C63 H53 0.940 . S
C63 C62 1.447 . S
C63 C64 1.373 . S
C64 C63 1.373 . S
C64 C65 1.417 1_545 S
C65 H54 0.940 . S
C65 C61 1.370 . S
C65 C64 1.417 1_565 S
C66 H55 0.940 . S
C66 C67 1.390 1_545 S
C66 C68 1.322 . S
C67 C66 1.390 1_565 S
C67 C71 1.370 . S
C68 N59 1.477 . S
C68 C66 1.322 . S
C68 C69 1.447 . S
C69 H56 0.940 . S
C69 C68 1.447 . S
C69 C70 1.373 . S
C70 C69 1.373 . S
C70 C71 1.417 1_545 S
C71 H57 0.940 . S
C71 C67 1.370 . S
C71 C70 1.417 1_565 S
H72 C80 0.950 . S
H73 C85 0.950 . S
H74 C82 0.950 . S
H75 C84 0.950 . S
H76 C86 0.950 . S
H77 C88 0.950 . S
H78 C90 0.950 . S
H79 C91 0.950 . S
C80 H72 0.950 . S
C80 C81 1.386 1_455 S
C80 C82 1.391 . S
C81 C80 1.386 1_655 S
C81 C85 1.393 . S
C82 H74 0.950 . S
C82 C80 1.391 . S
C82 C83 1.400 1_455 S
C83 C82 1.400 1_655 S
C83 C84 1.398 . S
C83 C89 1.491 . S
C84 H75 0.950 . S
C84 C83 1.398 . S
C84 C85 1.391 . S
C85 H73 0.950 . S
C85 C81 1.393 . S
C85 C84 1.391 . S
C86 H76 0.950 . S
C86 C87 1.386 . S
C86 C88 1.391 . S
C87 C86 1.386 . S
C87 C91 1.393 1_655 S
C88 H77 0.950 . S
C88 C86 1.391 . S
C88 C89 1.400 . S
C89 C83 1.491 . S
C89 C88 1.400 . S
C89 C90 1.398 1_655 S
C90 H78 0.950 . S
C90 C89 1.398 1_455 S
C90 C91 1.391 . S
C91 H79 0.950 . S
C91 C87 1.393 1_455 S
C91 C90 1.391 . S
H92 C100 0.950 . S
H93 C105 0.950 . S
H94 C102 0.950 . S
H95 C104 0.950 . S
H96 C106 0.950 . S
H97 C108 0.950 . S
H98 C110 0.950 . S
H99 C111 0.950 . S
C100 H92 0.950 . S
C100 C101 1.386 . S
C100 C102 1.391 . S
C101 C100 1.386 . S
C101 C105 1.393 1_545 S
C102 H94 0.950 . S
C102 C100 1.391 . S
C102 C103 1.392 1_545 S
C103 C102 1.392 1_565 S
C103 C104 1.406 . S
C103 C109 1.491 . S
C104 H95 0.950 . S
C104 C103 1.406 . S
C104 C105 1.391 . S
C105 H93 0.950 . S
C105 C101 1.393 1_565 S
C105 C104 1.391 . S
C106 H96 0.950 . S
C106 C107 1.386 . S
C106 C108 1.391 . S
C107 C106 1.386 . S
C107 C111 1.393 1_565 S
C108 H97 0.950 . S
C108 C106 1.391 . S
C108 C109 1.400 . S
C109 C103 1.491 . S
C109 C108 1.400 . S
C109 C110 1.398 1_565 S
C110 H98 0.950 . S
C110 C109 1.398 1_545 S
C110 C111 1.391 . S
C111 H99 0.950 . S
C111 C107 1.393 1_545 S
C111 C110 1.391 . S
H112 C120 0.950 . S
H113 C125 0.950 . S
H114 C122 0.950 . S
H115 C124 0.950 . S
H116 C126 0.950 . S
H117 C128 0.950 . S
H118 C130 0.950 . S
H119 C131 0.950 . S
C120 H112 0.950 . S
C120 C121 1.379 1_655 S
C120 C122 1.391 . S
C121 C120 1.379 1_455 S
C121 C125 1.400 . S
C122 H114 0.950 . S
C122 C120 1.391 . S
C122 C123 1.400 1_655 S
C123 C122 1.400 1_455 S
C123 C124 1.398 . S
C123 C129 1.491 . S
C124 H115 0.950 . S
C124 C123 1.398 . S
C124 C125 1.391 . S
C125 H113 0.950 . S
C125 C121 1.400 . S
C125 C124 1.391 . S
C126 H116 0.950 . S
C126 C127 1.386 . S
C126 C128 1.391 . S
C127 C126 1.386 . S
C127 C131 1.393 1_455 S
C128 H117 0.950 . S
C128 C126 1.391 . S
C128 C129 1.400 . S
C129 C123 1.491 . S
C129 C128 1.400 . S
C129 C130 1.398 1_455 S
C130 H118 0.950 . S
C130 C129 1.398 1_655 S
C130 C131 1.391 . S
C131 H119 0.950 . S
C131 C127 1.393 1_655 S
C131 C130 1.391 . S
H132 C140 0.950 . S
H133 C145 0.950 . S
H134 C142 0.950 . S
H135 C144 0.950 . S
H136 C146 0.950 . S
H137 C148 0.950 . S
H138 C150 0.950 . S
H139 C151 0.950 . S
C140 H132 0.950 . S
C140 C141 1.387 . S
C140 C142 1.391 . S
C141 C140 1.387 . S
C141 C145 1.392 1_545 S
C142 H134 0.950 . S
C142 C140 1.391 . S
C142 C143 1.400 . S
C143 C142 1.400 . S
C143 C144 1.398 1_545 S
C143 C149 1.491 . S
C144 H135 0.950 . S
C144 C143 1.398 1_565 S
C144 C145 1.391 . S
C145 H133 0.950 . S
C145 C141 1.392 1_565 S
C145 C144 1.391 . S
C146 H136 0.950 . S
C146 C147 1.386 1_565 S
C146 C148 1.391 . S
C147 C146 1.386 1_545 S
C147 C151 1.393 . S
C148 H137 0.950 . S
C148 C146 1.391 . S
C148 C149 1.400 1_565 S
C149 C143 1.491 . S
C149 C148 1.400 1_545 S
C149 C150 1.398 . S
C150 H138 0.950 . S
C150 C149 1.398 . S
C150 C151 1.391 . S
C151 H139 0.950 . S
C151 C147 1.393 . S
C151 C150 1.391 . S
H152 C160 0.950 . S
H153 C165 0.950 . S
H154 C162 0.950 . S
H155 C164 0.950 . S
H156 C166 0.950 . S
H157 C168 0.950 . S
H158 C170 0.952 . S
H159 C171 0.950 . S
C160 H152 0.950 . S
C160 C161 1.386 . S
C160 C162 1.391 . S
C161 C160 1.386 . S
C161 C165 1.393 1_455 S
C162 H154 0.950 . S
C162 C160 1.391 . S
C162 C163 1.399 1_455 S
C163 C162 1.399 1_655 S
C163 C164 1.399 . S
C163 C169 1.491 . S
C164 H155 0.950 . S
C164 C163 1.399 . S
C164 C165 1.391 . S
C165 H153 0.950 . S
C165 C161 1.393 1_655 S
C165 C164 1.391 . S
C166 H156 0.950 . S
C166 C167 1.386 . S
C166 C168 1.391 . S
C167 C166 1.386 . S
C167 C171 1.393 1_655 S
C168 H157 0.950 . S
C168 C166 1.391 . S
C168 C169 1.400 . S
C169 C163 1.491 . S
C169 C168 1.400 . S
C169 C170 1.397 1_655 S
C170 H158 0.952 . S
C170 C169 1.397 1_455 S
C170 C171 1.391 . S
C171 H159 0.950 . S
C171 C167 1.393 1_455 S
C171 C170 1.391 . S
H172 C180 0.950 . S
H173 C185 0.950 . S
H174 C182 0.950 . S
H175 C184 0.950 . S
H176 C186 0.950 . S
H177 C188 0.950 . S
H178 C190 0.950 . S
H179 C191 0.950 . S
C180 H172 0.950 . S
C180 C181 1.386 . S
C180 C182 1.391 . S
C181 C180 1.386 . S
C181 C185 1.393 1_545 S
C182 H174 0.950 . S
C182 C180 1.391 . S
C182 C183 1.400 1_545 S
C183 C182 1.400 1_565 S
C183 C184 1.398 . S
C183 C189 1.491 . S
C184 H175 0.950 . S
C184 C183 1.398 . S
C184 C185 1.391 . S
C185 H173 0.950 . S
C185 C181 1.393 1_565 S
C185 C184 1.391 . S
C186 H176 0.950 . S
C186 C187 1.386 . S
C186 C188 1.391 . S
C187 C186 1.386 . S
C187 C191 1.393 1_565 S
C188 H177 0.950 . S
C188 C186 1.391 . S
C188 C189 1.400 . S
C189 C183 1.491 . S
C189 C188 1.400 . S
C189 C190 1.398 1_565 S
C190 H178 0.950 . S
C190 C189 1.398 1_545 S
C190 C191 1.391 . S
C191 H179 0.950 . S
C191 C187 1.393 1_545 S
C191 C190 1.391 . S
H192 C200 0.950 . S
H193 C205 0.950 . S
H194 C202 0.950 . S
H195 C204 0.950 . S
H196 C206 0.950 . S
H197 C208 0.950 . S
H198 C210 0.950 . S
H199 C211 0.950 . S
C200 H192 0.950 . S
C200 C201 1.386 . S
C200 C202 1.391 . S
C201 C200 1.386 . S
C201 C205 1.393 1_455 S
C202 H194 0.950 . S
C202 C200 1.391 . S
C202 C203 1.400 . S
C203 C202 1.400 . S
C203 C204 1.398 1_455 S
C203 C209 1.491 . S
C204 H195 0.950 . S
C204 C203 1.398 1_655 S
C204 C205 1.391 . S
C205 H193 0.950 . S
C205 C201 1.393 1_655 S
C205 C204 1.391 . S
C206 H196 0.950 . S
C206 C207 1.386 1_655 S
C206 C208 1.391 . S
C207 C206 1.386 1_455 S
C207 C211 1.393 . S
C208 H197 0.950 . S
C208 C206 1.391 . S
C208 C209 1.400 1_655 S
C209 C203 1.491 . S
C209 C208 1.400 1_455 S
C209 C210 1.398 . S
C210 H198 0.950 . S
C210 C209 1.398 . S
C210 C211 1.391 . S
C211 H199 0.950 . S
C211 C207 1.393 . S
C211 C210 1.391 . S
H212 C220 0.950 . S
H213 C225 0.950 . S
H214 C222 0.950 . S
H215 C224 0.950 . S
H216 C226 0.950 . S
H217 C228 0.950 . S
H218 C230 0.950 . S
H219 C231 0.950 . S
C220 H212 0.950 . S
C220 C221 1.386 1_545 S
C220 C222 1.391 . S
C221 C220 1.386 1_565 S
C221 C225 1.393 . S
C222 H214 0.950 . S
C222 C220 1.391 . S
C222 C223 1.400 . S
C223 C222 1.400 . S
C223 C224 1.398 1_545 S
C223 C229 1.491 . S
C224 H215 0.950 . S
C224 C223 1.398 1_565 S
C224 C225 1.391 . S
C225 H213 0.950 . S
C225 C221 1.393 . S
C225 C224 1.391 . S
C226 H216 0.950 . S
C226 C227 1.386 1_565 S
C226 C228 1.391 . S
C227 C226 1.386 1_545 S
C227 C231 1.393 . S
C228 H217 0.950 . S
C228 C226 1.391 . S
C228 C229 1.400 1_565 S
C229 C223 1.491 . S
C229 C228 1.400 1_545 S
C229 C230 1.398 . S
C230 H218 0.950 . S
C230 C229 1.398 . S
C230 C231 1.391 . S
C231 H219 0.950 . S
C231 C227 1.393 . S
C231 C230 1.391 . S
C81 C22 1.564 . S
C87 C41 1.537 . S
C101 C8 1.575 . S
C107 C61 1.537 . S
C121 C31 1.547 . S
C127 C50 1.548 . S
C141 C17 1.536 1_545 S
C147 C70 1.564 . S
C161 C30 1.572 . S
C167 C47 1.546 . S
C181 C27 1.585 1_545 S
C187 C67 1.545 . S
C207 C44 1.564 . S
C201 C23 1.550 1_455 S
C221 C24 1.542 1_565 S
C227 C64 1.568 . S
