# Generated by pormake.
# Topology hwx, (6,3)-cn, num edge types: 1
# Building blocks:
#     Node 0, Type 0, BuildingBlock: IZENUY_clean_sbu_0, # of connection points: 6
#     Node 1, Type 0, BuildingBlock: IZENUY_clean_sbu_0, # of connection points: 6
#     Node 2, Type 0, BuildingBlock: IZENUY_clean_sbu_0, # of connection points: 6
#     Node 3, Type 0, BuildingBlock: IZENUY_clean_sbu_0, # of connection points: 6
#     Node 4, Type 1, BuildingBlock: ESEHIV_clean_linker_0, # of connection points: 3
#     Node 5, Type 1, BuildingBlock: ESEHIV_clean_linker_0, # of connection points: 3
#     Node 6, Type 1, BuildingBlock: ESEHIV_clean_linker_0, # of connection points: 3
#     Node 7, Type 1, BuildingBlock: ESEHIV_clean_linker_0, # of connection points: 3
#     Node 8, Type 1, BuildingBlock: ESEHIV_clean_linker_0, # of connection points: 3
#     Node 9, Type 1, BuildingBlock: ESEHIV_clean_linker_0, # of connection points: 3
#     Node 10, Type 1, BuildingBlock: ESEHIV_clean_linker_0, # of connection points: 3
#     Node 11, Type 1, BuildingBlock: ESEHIV_clean_linker_0, # of connection points: 3
#     Edge 12, Type (0, 1), None
#     Edge 13, Type (0, 1), None
#     Edge 14, Type (0, 1), None
#     Edge 15, Type (0, 1), None
#     Edge 16, Type (0, 1), None
#     Edge 17, Type (0, 1), None
#     Edge 18, Type (0, 1), None
#     Edge 19, Type (0, 1), None
#     Edge 20, Type (0, 1), None
#     Edge 21, Type (0, 1), None
#     Edge 22, Type (0, 1), None
#     Edge 23, Type (0, 1), None
#     Edge 24, Type (0, 1), None
#     Edge 25, Type (0, 1), None
#     Edge 26, Type (0, 1), None
#     Edge 27, Type (0, 1), None
#     Edge 28, Type (0, 1), None
#     Edge 29, Type (0, 1), None
#     Edge 30, Type (0, 1), None
#     Edge 31, Type (0, 1), None
#     Edge 32, Type (0, 1), None
#     Edge 33, Type (0, 1), None
#     Edge 34, Type (0, 1), None
#     Edge 35, Type (0, 1), None
# Relax obj value: 0.052
# Max RMSD: 0.077
# Mean RMSD: 0.068
data_MOF--net-hwx--node1-IZENUY_clean_sbu_0--node2-ESEHIV_clean_linker_0--edge1-none
_symmetry_space_group_name_H-M    P1
_symmetry_Int_Tables_number       1
_symmetry_cell_setting            triclinic
loop_
_symmetry_equiv_pos_as_xyz
'x, y, z'
_cell_length_a     18.73484
_cell_length_b     18.743457
_cell_length_c     9.0954904
_cell_angle_alpha  89.99281
_cell_angle_beta   90.008136
_cell_angle_gamma 89.999928
loop_
_atom_site_label
_atom_site_type_symbol
_atom_site_fract_x
_atom_site_fract_y
_atom_site_fract_z
_atom_type_partial_charge
Fe0 Fe 0.27675 0.28811 0.16938 0.0
Fe1 Fe 0.28585 0.27896 0.83639 0.0
O2 O 0.24695 0.24936 0.00288 0.0
Fe3 Fe 0.17937 0.18209 0.00289 0.0
O4 O 0.13034 0.22082 0.1576 0.0
O5 O 0.18766 0.32013 0.2125 0.0
O6 O 0.29604 0.37617 0.09349 0.0
C7 C 0.26852 0.40581 0.98298 0.0
C8 C 0.25525 0.14374 0.252 0.0
O9 O 0.25486 0.36974 0.86898 0.0
C10 C 0.27734 0.13572 0.78191 0.0
O11 O 0.36741 0.25671 0.13675 0.0
O12 O 0.37402 0.29786 0.91228 0.0
O13 O 0.23037 0.12347 0.12911 0.0
O14 O 0.26278 0.20917 0.27833 0.0
C15 C 0.14132 0.2581 0.75379 0.0
O16 O 0.31749 0.18977 0.79335 0.0
O17 O 0.2179 0.1329 0.84818 0.0
C18 C 0.40354 0.27015 0.0227 0.0
O19 O 0.20681 0.26535 0.72741 0.0
O20 O 0.12095 0.2333 0.87667 0.0
C21 C 0.13342 0.28021 0.22393 0.0
Fe22 Fe 0.2183 0.77894 0.66918 0.0
Fe23 Fe 0.32476 0.68208 0.50269 0.0
O24 O 0.25719 0.74936 0.50268 0.0
Fe25 Fe 0.22741 0.78812 0.33618 0.0
O26 O 0.20814 0.87618 0.41207 0.0
O27 O 0.24929 0.86972 0.6366 0.0
O28 O 0.29733 0.7653 0.77817 0.0
C29 C 0.36282 0.75808 0.75178 0.0
C30 C 0.10061 0.77018 0.48286 0.0
O31 O 0.38319 0.73328 0.6289 0.0
C32 C 0.24889 0.64374 0.25359 0.0
O33 O 0.18663 0.68976 0.7122 0.0
O34 O 0.28623 0.63289 0.65742 0.0
O35 O 0.13673 0.75674 0.36882 0.0
O36 O 0.13013 0.79787 0.59328 0.0
C37 C 0.37073 0.7802 0.28162 0.0
O38 O 0.27377 0.62346 0.37649 0.0
O39 O 0.24135 0.70917 0.22725 0.0
C40 C 0.22678 0.63571 0.72367 0.0
O41 O 0.3738 0.72081 0.34797 0.0
O42 O 0.31649 0.82012 0.29304 0.0
C43 C 0.23564 0.90581 0.5226 0.0
Fe44 Fe 0.71828 0.72897 0.83637 0.0
Fe45 Fe 0.72743 0.71981 0.16937 0.0
O46 O 0.7572 0.75856 0.00286 0.0
Fe47 Fe 0.82476 0.82585 0.00286 0.0
O48 O 0.78621 0.87503 0.84811 0.0
O49 O 0.68662 0.81816 0.79332 0.0
O50 O 0.63012 0.71007 0.91228 0.0
C51 C 0.60061 0.73775 0.02272 0.0
C52 C 0.8628 0.74987 0.75376 0.0
O53 O 0.63676 0.75119 0.13675 0.0
C54 C 0.87074 0.72773 0.22394 0.0
O55 O 0.74928 0.6382 0.86898 0.0
O56 O 0.70814 0.63174 0.09349 0.0
O57 O 0.88318 0.77465 0.87667 0.0
O58 O 0.79731 0.7426 0.72739 0.0
C59 C 0.74889 0.86419 0.25193 0.0
O60 O 0.81652 0.68779 0.2125 0.0
O61 O 0.87381 0.78712 0.15759 0.0
C62 C 0.73562 0.60211 0.98297 0.0
O63 O 0.7414 0.79875 0.2783 0.0
O64 O 0.77377 0.88446 0.12904 0.0
C65 C 0.72676 0.87221 0.78186 0.0
Fe66 Fe 0.67938 0.32584 0.50268 0.0
Fe67 Fe 0.78586 0.22896 0.66919 0.0
O68 O 0.74695 0.25856 0.5027 0.0
Fe69 Fe 0.77672 0.21981 0.3362 0.0
O70 O 0.76273 0.29875 0.22725 0.0
O71 O 0.73037 0.38445 0.37649 0.0
O72 O 0.71792 0.37502 0.65741 0.0
C73 C 0.77736 0.3722 0.72369 0.0
C74 C 0.63341 0.22771 0.28163 0.0
O75 O 0.81751 0.31814 0.71226 0.0
C76 C 0.76854 0.10211 0.52257 0.0
O77 O 0.62096 0.27463 0.62889 0.0
O78 O 0.70683 0.24255 0.77816 0.0
O79 O 0.68764 0.18779 0.29309 0.0
O80 O 0.63034 0.2871 0.34796 0.0
C81 C 0.90353 0.23777 0.48284 0.0
O82 O 0.75488 0.13818 0.63657 0.0
O83 O 0.79604 0.13175 0.41207 0.0
C84 C 0.64134 0.24984 0.7518 0.0
O85 O 0.87403 0.21008 0.59329 0.0
O86 O 0.86739 0.25121 0.3688 0.0
C87 C 0.75525 0.36418 0.25361 0.0
H88 H 0.2032 0.68385 0.98857 0.0
H89 H 0.24309 0.49225 0.75085 0.0
H90 H 0.2711 0.49606 0.22327 0.0
C91 C 0.21627 0.62752 0.99136 0.0
C92 C 0.23801 0.59533 0.12423 0.0
C93 C 0.22078 0.59182 0.85717 0.0
C94 C 0.23867 0.51956 0.85555 0.0
C95 C 0.25378 0.48344 0.98744 0.0
C96 C 0.25553 0.52221 0.12202 0.0
H97 H 0.82271 0.70373 0.48902 0.0
H98 H 0.0142 0.7442 0.25094 0.0
H99 H 0.01042 0.77238 0.72325 0.0
C100 C 0.87903 0.71695 0.49167 0.0
C101 C 0.91121 0.73886 0.62444 0.0
C102 C 0.91468 0.72158 0.35739 0.0
C103 C 0.98692 0.73967 0.35568 0.0
C104 C 0.02303 0.75499 0.48747 0.0
C105 C 0.98429 0.75662 0.62208 0.0
H106 H 0.80094 0.32408 0.98862 0.0
H107 H 0.73305 0.51185 0.22324 0.0
H108 H 0.76101 0.51568 0.75082 0.0
C109 C 0.78787 0.38041 0.99138 0.0
C110 C 0.78333 0.4161 0.85717 0.0
C111 C 0.76612 0.41259 0.12423 0.0
C112 C 0.74861 0.4857 0.122 0.0
C113 C 0.75035 0.52448 0.98741 0.0
C114 C 0.76544 0.48836 0.85553 0.0
H115 H 0.18143 0.30422 0.48901 0.0
H116 H 0.99372 0.2356 0.72322 0.0
H117 H 0.98994 0.2637 0.25088 0.0
C118 C 0.12511 0.291 0.49165 0.0
C119 C 0.08946 0.28633 0.35735 0.0
C120 C 0.09293 0.26909 0.62442 0.0
C121 C 0.01985 0.25134 0.62205 0.0
C122 C 0.98111 0.25295 0.48742 0.0
C123 C 0.01722 0.26824 0.35562 0.0
H124 H 0.7032 0.82408 0.51693 0.0
H125 H 0.7431 0.01567 0.75468 0.0
H126 H 0.77112 0.01186 0.28228 0.0
C127 C 0.71628 0.8804 0.51416 0.0
C128 C 0.73803 0.91259 0.3813 0.0
C129 C 0.72079 0.9161 0.64835 0.0
C130 C 0.73868 0.98835 0.64998 0.0
C131 C 0.7538 0.02447 0.51811 0.0
C132 C 0.75555 0.98571 0.38352 0.0
H133 H 0.68144 0.20371 0.01656 0.0
H134 H 0.48995 0.24418 0.25463 0.0
H135 H 0.49372 0.27235 0.78231 0.0
C136 C 0.62512 0.21693 0.01392 0.0
C137 C 0.59293 0.23884 0.88113 0.0
C138 C 0.58946 0.22156 0.14819 0.0
C139 C 0.51722 0.23965 0.14989 0.0
C140 C 0.48111 0.25496 0.0181 0.0
C141 C 0.51985 0.25659 0.88348 0.0
H142 H 0.30094 0.18384 0.51701 0.0
H143 H 0.23306 0.99607 0.28233 0.0
H144 H 0.26102 0.99224 0.75477 0.0
C145 C 0.28788 0.12751 0.51423 0.0
C146 C 0.28334 0.09182 0.64844 0.0
C147 C 0.26613 0.09534 0.38137 0.0
C148 C 0.24863 0.02222 0.38359 0.0
C149 C 0.25036 0.98344 0.51817 0.0
C150 C 0.26545 0.01956 0.65006 0.0
H151 H 0.32272 0.80421 0.01652 0.0
H152 H 0.51042 0.73556 0.78235 0.0
H153 H 0.51421 0.76368 0.25467 0.0
C154 C 0.37904 0.79098 0.01389 0.0
C155 C 0.41469 0.78632 0.14819 0.0
C156 C 0.41121 0.76907 0.88113 0.0
C157 C 0.48429 0.75131 0.88351 0.0
C158 C 0.52303 0.75292 0.01814 0.0
C159 C 0.48693 0.76822 0.14993 0.0
loop_
_geom_bond_atom_site_label_1
_geom_bond_atom_site_label_2
_geom_bond_distance
_geom_bond_site_symmetry_2
_ccdc_geom_bond_type
Fe0 O2 1.921 . S
Fe0 O5 1.997 . S
Fe0 O6 2.002 . S
Fe0 O11 1.976 . S
Fe0 O14 1.996 . S
Fe1 O2 1.916 1_556 S
Fe1 O9 1.997 . S
Fe1 O12 1.996 . S
Fe1 O16 1.976 . S
Fe1 O19 2.002 . S
O2 Fe0 1.921 . S
O2 Fe1 1.916 1_554 S
O2 Fe3 1.918 1_554 S
Fe3 O2 1.918 1_556 S
Fe3 O4 2.002 1_556 S
Fe3 O13 1.976 1_556 S
Fe3 O17 1.996 . S
Fe3 O20 1.997 . S
O4 Fe3 2.002 1_554 S
O4 C21 1.295 . S
O5 Fe0 1.997 . S
O5 C21 1.235 . S
O6 Fe0 2.002 . S
O6 C7 1.295 . S
C7 O6 1.295 . S
C7 O9 1.235 1_554 S
C8 O13 1.287 . S
C8 O14 1.255 . S
O9 Fe1 1.997 . S
O9 C7 1.235 1_556 S
C10 O16 1.287 . S
C10 O17 1.255 . S
O11 Fe0 1.976 . S
O11 C18 1.287 1_554 S
O12 Fe1 1.996 . S
O12 C18 1.255 . S
O13 Fe3 1.976 1_554 S
O13 C8 1.287 . S
O14 Fe0 1.996 . S
O14 C8 1.255 . S
C15 O19 1.295 . S
C15 O20 1.235 . S
O16 Fe1 1.976 . S
O16 C10 1.287 . S
O17 Fe3 1.996 . S
O17 C10 1.255 . S
C18 O11 1.287 1_556 S
C18 O12 1.255 . S
O19 Fe1 2.002 . S
O19 C15 1.295 . S
O20 Fe3 1.997 . S
O20 C15 1.235 . S
C21 O4 1.295 . S
C21 O5 1.235 . S
Fe22 O24 1.918 . S
Fe22 O27 1.997 . S
Fe22 O28 2.002 . S
Fe22 O33 1.976 . S
Fe22 O36 1.996 . S
Fe23 O24 1.918 . S
Fe23 O31 1.997 . S
Fe23 O34 1.996 . S
Fe23 O38 1.976 . S
Fe23 O41 2.002 . S
O24 Fe22 1.918 . S
O24 Fe23 1.918 . S
O24 Fe25 1.918 . S
Fe25 O24 1.918 . S
Fe25 O26 2.002 . S
Fe25 O35 1.976 . S
Fe25 O39 1.996 . S
Fe25 O42 1.997 . S
O26 Fe25 2.002 . S
O26 C43 1.295 . S
O27 Fe22 1.997 . S
O27 C43 1.235 . S
O28 Fe22 2.002 . S
O28 C29 1.295 . S
C29 O28 1.295 . S
C29 O31 1.235 . S
C30 O35 1.287 . S
C30 O36 1.255 . S
O31 Fe23 1.997 . S
O31 C29 1.235 . S
C32 O38 1.287 . S
C32 O39 1.255 . S
O33 Fe22 1.976 . S
O33 C40 1.287 . S
O34 Fe23 1.996 . S
O34 C40 1.255 . S
O35 Fe25 1.976 . S
O35 C30 1.287 . S
O36 Fe22 1.996 . S
O36 C30 1.255 . S
C37 O41 1.295 . S
C37 O42 1.235 . S
O38 Fe23 1.976 . S
O38 C32 1.287 . S
O39 Fe25 1.996 . S
O39 C32 1.255 . S
C40 O33 1.287 . S
C40 O34 1.255 . S
O41 Fe23 2.002 . S
O41 C37 1.295 . S
O42 Fe25 1.997 . S
O42 C37 1.235 . S
C43 O26 1.295 . S
C43 O27 1.235 . S
Fe44 O46 1.914 1_556 S
Fe44 O49 1.997 . S
Fe44 O50 2.002 . S
Fe44 O55 1.976 . S
Fe44 O58 1.996 . S
Fe45 O46 1.922 . S
Fe45 O53 1.997 . S
Fe45 O56 1.996 . S
Fe45 O60 1.976 . S
Fe45 O63 2.002 . S
O46 Fe44 1.914 1_554 S
O46 Fe45 1.922 . S
O46 Fe47 1.918 . S
Fe47 O46 1.918 . S
Fe47 O48 2.002 1_554 S
Fe47 O57 1.976 1_554 S
Fe47 O61 1.996 . S
Fe47 O64 1.997 . S
O48 Fe47 2.002 1_556 S
O48 C65 1.295 . S
O49 Fe44 1.997 . S
O49 C65 1.235 . S
O50 Fe44 2.002 . S
O50 C51 1.295 . S
C51 O50 1.295 . S
C51 O53 1.235 1_556 S
C52 O57 1.287 . S
C52 O58 1.255 . S
O53 Fe45 1.997 . S
O53 C51 1.235 1_554 S
C54 O60 1.287 . S
C54 O61 1.255 . S
O55 Fe44 1.976 . S
O55 C62 1.287 1_556 S
O56 Fe45 1.996 . S
O56 C62 1.255 . S
O57 Fe47 1.976 1_556 S
O57 C52 1.287 . S
O58 Fe44 1.996 . S
O58 C52 1.255 . S
C59 O63 1.295 . S
C59 O64 1.235 . S
O60 Fe45 1.976 . S
O60 C54 1.287 . S
O61 Fe47 1.996 . S
O61 C54 1.255 . S
C62 O55 1.287 1_554 S
C62 O56 1.255 . S
O63 Fe45 2.002 . S
O63 C59 1.295 . S
O64 Fe47 1.997 . S
O64 C59 1.235 . S
C65 O48 1.295 . S
C65 O49 1.235 . S
Fe66 O68 1.918 . S
Fe66 O71 1.997 . S
Fe66 O72 2.002 . S
Fe66 O77 1.976 . S
Fe66 O80 1.996 . S
Fe67 O68 1.918 . S
Fe67 O75 1.997 . S
Fe67 O78 1.996 . S
Fe67 O82 1.976 . S
Fe67 O85 2.002 . S
O68 Fe66 1.918 . S
O68 Fe67 1.918 . S
O68 Fe69 1.918 . S
Fe69 O68 1.918 . S
Fe69 O70 2.002 . S
Fe69 O79 1.976 . S
Fe69 O83 1.996 . S
Fe69 O86 1.997 . S
O70 Fe69 2.002 . S
O70 C87 1.295 . S
O71 Fe66 1.997 . S
O71 C87 1.235 . S
O72 Fe66 2.002 . S
O72 C73 1.295 . S
C73 O72 1.295 . S
C73 O75 1.235 . S
C74 O79 1.287 . S
C74 O80 1.255 . S
O75 Fe67 1.997 . S
O75 C73 1.235 . S
C76 O82 1.287 . S
C76 O83 1.255 . S
O77 Fe66 1.976 . S
O77 C84 1.287 . S
O78 Fe67 1.996 . S
O78 C84 1.255 . S
O79 Fe69 1.976 . S
O79 C74 1.287 . S
O80 Fe66 1.996 . S
O80 C74 1.255 . S
C81 O85 1.295 . S
C81 O86 1.235 . S
O82 Fe67 1.976 . S
O82 C76 1.287 . S
O83 Fe69 1.996 . S
O83 C76 1.255 . S
C84 O77 1.287 . S
C84 O78 1.255 . S
O85 Fe67 2.002 . S
O85 C81 1.295 . S
O86 Fe69 1.997 . S
O86 C81 1.235 . S
C87 O70 1.295 . S
C87 O71 1.235 . S
H88 C91 0.931 . S
H89 C94 0.928 . S
H90 C96 0.930 . S
C91 H88 0.931 . S
C91 C92 1.413 1_556 S
C91 C93 1.360 . S
C92 C91 1.413 1_554 S
C92 C96 1.429 . S
C93 C91 1.360 . S
C93 C94 1.372 . S
C94 H89 0.928 . S
C94 C93 1.372 . S
C94 C95 1.410 . S
C95 C94 1.410 . S
C95 C96 1.384 1_556 S
C96 H90 0.930 . S
C96 C92 1.429 . S
C96 C95 1.384 1_554 S
H97 C100 0.931 . S
H98 C103 0.928 . S
H99 C105 0.930 . S
C100 H97 0.931 . S
C100 C101 1.413 . S
C100 C102 1.360 . S
C101 C100 1.413 . S
C101 C105 1.429 1_655 S
C102 C100 1.360 . S
C102 C103 1.372 1_655 S
C103 H98 0.928 . S
C103 C102 1.372 1_455 S
C103 C104 1.404 . S
C104 C103 1.404 . S
C104 C105 1.391 . S
C105 H99 0.930 . S
C105 C101 1.429 1_455 S
C105 C104 1.391 . S
H106 C109 0.931 . S
H107 C112 0.928 . S
H108 C114 0.930 . S
C109 H106 0.931 . S
C109 C110 1.413 1_554 S
C109 C111 1.360 . S
C110 C109 1.413 1_556 S
C110 C114 1.429 . S
C111 C109 1.360 . S
C111 C112 1.372 . S
C112 H107 0.928 . S
C112 C111 1.372 . S
C112 C113 1.404 . S
C113 C112 1.404 . S
C113 C114 1.391 1_554 S
C114 H108 0.930 . S
C114 C110 1.429 . S
C114 C113 1.391 1_556 S
H115 C118 0.931 . S
H116 C121 0.928 . S
H117 C123 0.930 . S
C118 H115 0.931 . S
C118 C119 1.413 . S
C118 C120 1.360 . S
C119 C118 1.413 . S
C119 C123 1.429 1_455 S
C120 C118 1.360 . S
C120 C121 1.372 1_455 S
C121 H116 0.928 . S
C121 C120 1.372 1_655 S
C121 C122 1.404 . S
C122 C121 1.404 . S
C122 C123 1.391 . S
C123 H117 0.930 . S
C123 C119 1.429 1_655 S
C123 C122 1.391 . S
H124 C127 0.931 . S
H125 C130 0.928 . S
H126 C132 0.930 . S
C127 H124 0.931 . S
C127 C128 1.413 . S
C127 C129 1.360 . S
C128 C127 1.413 . S
C128 C132 1.429 1_565 S
C129 C127 1.360 . S
C129 C130 1.372 1_565 S
C130 H125 0.928 . S
C130 C129 1.372 1_545 S
C130 C131 1.404 . S
C131 C130 1.404 . S
C131 C132 1.391 . S
C132 H126 0.930 . S
C132 C128 1.429 1_545 S
C132 C131 1.391 . S
H133 C136 0.931 . S
H134 C139 0.928 . S
H135 C141 0.930 . S
C136 H133 0.931 . S
C136 C137 1.413 1_554 S
C136 C138 1.360 . S
C137 C136 1.413 1_556 S
C137 C141 1.429 . S
C138 C136 1.360 . S
C138 C139 1.372 . S
C139 H134 0.928 . S
C139 C138 1.372 . S
C139 C140 1.404 . S
C140 C139 1.404 . S
C140 C141 1.391 1_554 S
C141 H135 0.930 . S
C141 C137 1.429 . S
C141 C140 1.391 1_556 S
H142 C145 0.931 . S
H143 C148 0.928 . S
H144 C150 0.930 . S
C145 H142 0.931 . S
C145 C146 1.413 . S
C145 C147 1.360 . S
C146 C145 1.413 . S
C146 C150 1.429 1_545 S
C147 C145 1.360 . S
C147 C148 1.372 1_545 S
C148 H143 0.928 . S
C148 C147 1.372 1_565 S
C148 C149 1.404 . S
C149 C148 1.404 . S
C149 C150 1.391 . S
C150 H144 0.930 . S
C150 C146 1.429 1_565 S
C150 C149 1.391 . S
H151 C154 0.931 . S
H152 C157 0.928 . S
H153 C159 0.930 . S
C154 H151 0.931 . S
C154 C155 1.413 1_556 S
C154 C156 1.360 . S
C155 C154 1.413 1_554 S
C155 C159 1.429 . S
C156 C154 1.360 . S
C156 C157 1.372 . S
C157 H152 0.928 . S
C157 C156 1.372 . S
C157 C158 1.404 . S
C158 C157 1.404 . S
C158 C159 1.391 1_556 S
C159 H153 0.930 . S
C159 C155 1.429 . S
C159 C158 1.391 1_554 S
C21 C119 1.661 . S
C40 C93 1.488 . S
C102 C54 1.593 . S
C73 C110 1.532 . S
C138 C74 1.594 . S
C146 C10 1.497 . S
C155 C37 1.660 . S
C129 C65 1.524 . S
C52 C101 1.572 . S
C87 C111 1.538 . S
C15 C120 1.640 . S
C92 C32 1.492 . S
C29 C156 1.641 . S
C128 C59 1.527 . S
C137 C84 1.571 . S
C8 C147 1.502 . S
C95 C7 1.587 1_556 S
C104 C30 1.687 . S
C62 C113 1.549 . S
C81 C122 1.741 . S
C131 C76 1.540 . S
C18 C140 1.687 1_556 S
C43 C149 1.597 . S
C51 C158 1.742 . S
