# Generated by pormake.
# Topology zzz, (3,6)-cn, num edge types: 1
# Building blocks:
#     Node 0, Type 0, BuildingBlock: ESEHIV_clean_linker_0, # of connection points: 3
#     Node 1, Type 0, BuildingBlock: ESEHIV_clean_linker_0, # of connection points: 3
#     Node 2, Type 0, BuildingBlock: ESEHIV_clean_linker_0, # of connection points: 3
#     Node 3, Type 0, BuildingBlock: ESEHIV_clean_linker_0, # of connection points: 3
#     Node 4, Type 0, BuildingBlock: ESEHIV_clean_linker_0, # of connection points: 3
#     Node 5, Type 0, BuildingBlock: ESEHIV_clean_linker_0, # of connection points: 3
#     Node 6, Type 0, BuildingBlock: ESEHIV_clean_linker_0, # of connection points: 3
#     Node 7, Type 0, BuildingBlock: ESEHIV_clean_linker_0, # of connection points: 3
#     Node 8, Type 1, BuildingBlock: CIFDUS_clean_sbu_1, # of connection points: 6
#     Node 9, Type 1, BuildingBlock: CIFDUS_clean_sbu_1, # of connection points: 6
#     Node 10, Type 1, BuildingBlock: CIFDUS_clean_sbu_1, # of connection points: 6
#     Node 11, Type 1, BuildingBlock: CIFDUS_clean_sbu_1, # of connection points: 6
#     Edge 12, Type (0, 1), None
#     Edge 13, Type (0, 1), None
#     Edge 14, Type (0, 1), None
#     Edge 15, Type (0, 1), None
#     Edge 16, Type (0, 1), None
#     Edge 17, Type (0, 1), None
#     Edge 18, Type (0, 1), None
#     Edge 19, Type (0, 1), None
#     Edge 20, Type (0, 1), None
#     Edge 21, Type (0, 1), None
#     Edge 22, Type (0, 1), None
#     Edge 23, Type (0, 1), None
#     Edge 24, Type (0, 1), None
#     Edge 25, Type (0, 1), None
#     Edge 26, Type (0, 1), None
#     Edge 27, Type (0, 1), None
#     Edge 28, Type (0, 1), None
#     Edge 29, Type (0, 1), None
#     Edge 30, Type (0, 1), None
#     Edge 31, Type (0, 1), None
#     Edge 32, Type (0, 1), None
#     Edge 33, Type (0, 1), None
#     Edge 34, Type (0, 1), None
#     Edge 35, Type (0, 1), None
# Relax obj value: 0.319
# Max RMSD: 0.221
# Mean RMSD: 0.208
data_MOF--net-zzz--node1-CIFDUS_clean_sbu_1--node2-ESEHIV_clean_linker_0--edge1-none
_symmetry_space_group_name_H-M    P1
_symmetry_Int_Tables_number       1
_symmetry_cell_setting            triclinic
loop_
_symmetry_equiv_pos_as_xyz
'x, y, z'
_cell_length_a     17.875983
_cell_length_b     17.875972
_cell_length_c     6.7398377
_cell_angle_alpha  89.967275
_cell_angle_beta   90.008318
_cell_angle_gamma 90.009277
loop_
_atom_site_label
_atom_site_type_symbol
_atom_site_fract_x
_atom_site_fract_y
_atom_site_fract_z
_atom_type_partial_charge
H0 H 0.90431 0.61429 0.24735 0.0
H1 H 0.77049 0.57514 0.76031 0.0
H2 H 0.70711 0.47831 0.31599 0.0
C3 C 0.85069 0.59467 0.1936 0.0
C4 C 0.80538 0.55329 0.32155 0.0
C5 C 0.84851 0.56921 1.00019 0.0
C6 C 0.77674 0.56947 0.91857 0.0
C7 C 0.72229 0.53059 0.02443 0.0
C8 C 0.73869 0.5196 0.23335 0.0
H9 H 0.90447 0.90588 0.24802 0.0
H10 H 0.94359 0.77211 0.76107 0.0
H11 H 0.04053 0.70878 0.31664 0.0
C12 C 0.9241 0.85228 0.19431 0.0
C13 C 0.96554 0.80701 0.32222 0.0
C14 C 0.94949 0.85011 1.00082 0.0
C15 C 0.94926 0.77835 0.91932 0.0
C16 C 0.98818 0.72393 0.0252 0.0
C17 C 0.99922 0.74034 0.23406 0.0
H18 H 0.61325 0.90591 0.24842 0.0
H19 H 0.74695 0.94519 0.76113 0.0
H20 H 0.81013 0.0424 0.31627 0.0
C21 C 0.66682 0.92565 0.1946 0.0
C22 C 0.712 0.96725 0.32226 0.0
C23 C 0.66897 0.95094 1.00098 0.0
C24 C 0.74074 0.95083 0.9194 0.0
C25 C 0.79508 0.9899 0.0251 0.0
C26 C 0.77864 1.001 0.2339 0.0
H27 H 0.61297 0.61488 0.24772 0.0
H28 H 0.47647 0.81179 0.31576 0.0
H29 H 0.57368 0.74863 0.76064 0.0
C30 C 0.59324 0.66852 0.19427 0.0
C31 C 0.56795 0.67064 1.00066 0.0
C32 C 0.55164 0.71369 0.32185 0.0
C33 C 0.51787 0.7803 0.23339 0.0
C34 C 0.52893 0.7967 0.02451 0.0
C35 C 0.56805 0.7424 0.91892 0.0
H36 H 0.11296 0.4063 0.20483 0.0
H37 H 0.24678 0.44544 0.69187 0.0
H38 H 0.31016 0.54227 0.13619 0.0
C39 C 0.16658 0.42592 0.25858 0.0
C40 C 0.21189 0.46729 0.13063 0.0
C41 C 0.16876 0.45137 0.45199 0.0
C42 C 0.24053 0.45112 0.53361 0.0
C43 C 0.29498 0.48999 0.42775 0.0
C44 C 0.27858 0.50098 0.21883 0.0
H45 H 0.1128 0.1147 0.20416 0.0
H46 H 0.07368 0.24847 0.69111 0.0
H47 H 0.97673 0.31181 0.13554 0.0
C48 C 0.09317 0.16831 0.25787 0.0
C49 C 0.05173 0.21358 0.12996 0.0
C50 C 0.06778 0.17047 0.45136 0.0
C51 C 0.06801 0.24224 0.53286 0.0
C52 C 0.02909 0.29666 0.42698 0.0
C53 C 0.01805 0.28025 0.21812 0.0
H54 H 0.40402 0.11467 0.20376 0.0
H55 H 0.27032 0.07539 0.69105 0.0
H56 H 0.20714 0.97818 0.13591 0.0
C57 C 0.35045 0.09493 0.25758 0.0
C58 C 0.30527 0.05333 0.12992 0.0
C59 C 0.3483 0.06964 0.4512 0.0
C60 C 0.27653 0.06975 0.53278 0.0
C61 C 0.22219 0.03068 0.42708 0.0
C62 C 0.23863 0.01958 0.21828 0.0
H63 H 0.4043 0.4057 0.20446 0.0
H64 H 0.5408 0.2088 0.13642 0.0
H65 H 0.44359 0.27196 0.69154 0.0
C66 C 0.42403 0.35207 0.25791 0.0
C67 C 0.44932 0.34994 0.45152 0.0
C68 C 0.46563 0.30689 0.13033 0.0
C69 C 0.4994 0.24028 0.21879 0.0
C70 C 0.48834 0.22388 0.42767 0.0
C71 C 0.44922 0.27818 0.53326 0.0
O72 O 0.04619 0.11169 0.88236 0.0
Mn73 Mn 0.00864 0.01029 0.72609 0.0
O74 O 0.94707 0.18745 0.93697 0.0
Mn75 Mn 0.89214 0.13707 0.75509 0.0
O76 O 0.97108 0.90889 0.56982 0.0
O77 O 0.11459 0.98109 0.63129 0.0
Mn78 Mn 0.12513 0.88352 0.69709 0.0
O79 O 0.02065 0.96091 0.98632 0.0
O80 O 0.0702 0.83313 0.51521 0.0
O81 O 0.99662 0.05968 0.46586 0.0
O82 O 0.93382 0.16136 0.5091 0.0
O83 O 0.21552 0.91258 0.59871 0.0
O84 O 0.08345 0.85922 0.94308 0.0
C85 C 0.8359 0.04637 0.89957 0.0
C86 C 0.015 0.17101 0.96446 0.0
C87 C 1.00227 0.84958 0.48772 0.0
C88 C 0.18137 0.97421 0.55261 0.0
C89 C 0.02217 0.89135 0.98714 0.0
C90 C 0.9951 0.12923 0.46504 0.0
O91 O 0.90268 0.0395 0.82089 0.0
O92 O 0.80175 0.108 0.85347 0.0
O93 O 0.55807 0.02192 0.9863 0.0
Mn94 Mn 0.50864 0.01029 0.72609 0.0
O95 O 0.65972 0.08492 0.94326 0.0
Mn96 Mn 0.63559 0.12677 0.69735 0.0
O97 O 0.4592 0.99866 0.46588 0.0
O98 O 0.47924 0.90433 0.82044 0.0
Mn99 Mn 0.38168 0.89381 0.75483 0.0
O100 O 0.40727 0.04782 0.88254 0.0
O101 O 0.35755 0.93567 0.50892 0.0
O102 O 0.61 0.97276 0.56964 0.0
O103 O 0.68591 0.07185 0.51537 0.0
O104 O 0.41079 0.80339 0.8532 0.0
O105 O 0.33136 0.94874 0.93681 0.0
C106 C 0.54485 0.18305 0.55301 0.0
C107 C 0.62763 0.02353 0.98685 0.0
C108 C 0.38964 0.99706 0.46533 0.0
C109 C 0.47242 0.83753 0.89917 0.0
C110 C 0.34788 0.01664 0.96448 0.0
C111 C 0.66939 0.00395 0.4877 0.0
O112 O 0.53803 0.11626 0.63174 0.0
O113 O 0.60648 0.2172 0.59898 0.0
O114 O 0.49696 0.55972 0.98622 0.0
Mn115 Mn 0.50863 0.51029 0.72609 0.0
O116 O 0.43398 0.66134 0.94304 0.0
Mn117 Mn 0.39217 0.63716 0.69721 0.0
O118 O 0.52031 0.46087 0.46596 0.0
O119 O 0.61461 0.48098 0.82054 0.0
Mn120 Mn 0.6251 0.38342 0.75497 0.0
O121 O 0.47111 0.4089 0.88276 0.0
O122 O 0.58329 0.35924 0.50914 0.0
O123 O 0.54616 0.61168 0.56942 0.0
O124 O 0.44706 0.68754 0.51512 0.0
O125 O 0.71553 0.41249 0.85315 0.0
O126 O 0.57021 0.33304 0.93706 0.0
C127 C 0.33586 0.54646 0.55302 0.0
C128 C 0.49536 0.62927 0.98671 0.0
C129 C 0.52191 0.39131 0.46547 0.0
C130 C 0.68141 0.47412 0.89916 0.0
C131 C 0.50231 0.34953 0.96477 0.0
C132 C 0.51496 0.67105 0.48741 0.0
O133 O 0.40266 0.5396 0.63164 0.0
O134 O 0.30174 0.60809 0.59903 0.0
O135 O 0.11005 0.47278 0.88262 0.0
Mn136 Mn 0.00863 0.51029 0.72609 0.0
O137 O 0.1857 0.57197 0.93769 0.0
Mn138 Mn 0.13526 0.62684 0.7557 0.0
O139 O 0.90722 0.5478 0.56956 0.0
O140 O 0.97959 0.40432 0.63083 0.0
Mn141 Mn 0.88201 0.39374 0.69648 0.0
O142 O 0.95925 0.49799 0.98615 0.0
O143 O 0.83157 0.44861 0.51449 0.0
O144 O 0.05802 0.52259 0.46603 0.0
O145 O 0.15972 0.58532 0.50977 0.0
O146 O 0.911 0.30337 0.59831 0.0
O147 O 0.85754 0.43527 0.94241 0.0
C148 C 0.04463 0.68306 0.89992 0.0
C149 C 0.16932 0.50401 0.965 0.0
C150 C 0.84795 0.51657 0.48718 0.0
C151 C 0.97264 0.33752 0.55226 0.0
C152 C 0.88969 0.4965 0.9869 0.0
C153 C 0.12758 0.52409 0.46528 0.0
O154 O 0.03768 0.61626 0.82135 0.0
O155 O 0.10627 0.71721 0.85387 0.0
loop_
_geom_bond_atom_site_label_1
_geom_bond_atom_site_label_2
_geom_bond_distance
_geom_bond_site_symmetry_2
_ccdc_geom_bond_type
H0 C3 0.931 . S
H1 C6 0.928 . S
H2 C8 0.930 . S
C3 H0 0.931 . S
C3 C4 1.413 . S
C3 C5 1.360 1_554 S
C4 C3 1.413 . S
C4 C8 1.429 . S
C5 C3 1.360 1_556 S
C5 C6 1.372 . S
C6 H1 0.928 . S
C6 C5 1.372 . S
C6 C7 1.404 1_556 S
C7 C6 1.404 1_554 S
C7 C8 1.391 . S
C8 H2 0.930 . S
C8 C4 1.429 . S
C8 C7 1.391 . S
H9 C12 0.931 . S
H10 C15 0.928 . S
H11 C17 0.930 . S
C12 H9 0.931 . S
C12 C13 1.413 . S
C12 C14 1.360 1_554 S
C13 C12 1.413 . S
C13 C17 1.429 . S
C14 C12 1.360 1_556 S
C14 C15 1.372 . S
C15 H10 0.928 . S
C15 C14 1.372 . S
C15 C16 1.404 1_556 S
C16 C15 1.404 1_554 S
C16 C17 1.391 . S
C17 H11 0.930 . S
C17 C13 1.429 . S
C17 C16 1.391 . S
H18 C21 0.931 . S
H19 C24 0.928 . S
H20 C26 0.930 . S
C21 H18 0.931 . S
C21 C22 1.413 . S
C21 C23 1.360 1_554 S
C22 C21 1.413 . S
C22 C26 1.429 . S
C23 C21 1.360 1_556 S
C23 C24 1.372 . S
C24 H19 0.928 . S
C24 C23 1.372 . S
C24 C25 1.404 1_556 S
C25 C24 1.404 1_554 S
C25 C26 1.391 . S
C26 H20 0.930 . S
C26 C22 1.429 . S
C26 C25 1.391 . S
H27 C30 0.931 . S
H28 C33 0.928 . S
H29 C35 0.930 . S
C30 H27 0.931 . S
C30 C31 1.413 1_554 S
C30 C32 1.360 . S
C31 C30 1.413 1_556 S
C31 C35 1.429 . S
C32 C30 1.360 . S
C32 C33 1.372 . S
C33 H28 0.928 . S
C33 C32 1.372 . S
C33 C34 1.404 . S
C34 C33 1.404 . S
C34 C35 1.391 1_554 S
C35 H29 0.930 . S
C35 C31 1.429 . S
C35 C34 1.391 1_556 S
H36 C39 0.931 . S
H37 C42 0.928 . S
H38 C44 0.930 . S
C39 H36 0.931 . S
C39 C40 1.413 . S
C39 C41 1.360 . S
C40 C39 1.413 . S
C40 C44 1.429 . S
C41 C39 1.360 . S
C41 C42 1.372 . S
C42 H37 0.928 . S
C42 C41 1.372 . S
C42 C43 1.404 . S
C43 C42 1.404 . S
C43 C44 1.391 . S
C44 H38 0.930 . S
C44 C40 1.429 . S
C44 C43 1.391 . S
H45 C48 0.931 . S
H46 C51 0.928 . S
H47 C53 0.930 . S
C48 H45 0.931 . S
C48 C49 1.413 . S
C48 C50 1.360 . S
C49 C48 1.413 . S
C49 C53 1.429 . S
C50 C48 1.360 . S
C50 C51 1.372 . S
C51 H46 0.928 . S
C51 C50 1.372 . S
C51 C52 1.404 . S
C52 C51 1.404 . S
C52 C53 1.391 . S
C53 H47 0.930 . S
C53 C49 1.429 . S
C53 C52 1.391 . S
H54 C57 0.931 . S
H55 C60 0.928 . S
H56 C62 0.930 . S
C57 H54 0.931 . S
C57 C58 1.413 . S
C57 C59 1.360 . S
C58 C57 1.413 . S
C58 C62 1.429 . S
C59 C57 1.360 . S
C59 C60 1.372 . S
C60 H55 0.928 . S
C60 C59 1.372 . S
C60 C61 1.404 . S
C61 C60 1.404 . S
C61 C62 1.391 . S
C62 H56 0.930 . S
C62 C58 1.429 . S
C62 C61 1.391 . S
H63 C66 0.931 . S
H64 C69 0.928 . S
H65 C71 0.930 . S
C66 H63 0.931 . S
C66 C67 1.413 . S
C66 C68 1.360 . S
C67 C66 1.413 . S
C67 C71 1.429 . S
C68 C66 1.360 . S
C68 C69 1.372 . S
C69 H64 0.928 . S
C69 C68 1.372 . S
C69 C70 1.404 . S
C70 C69 1.404 . S
C70 C71 1.391 . S
C71 H65 0.930 . S
C71 C67 1.429 . S
C71 C70 1.391 . S
O72 Mn73 2.163 . S
O72 C86 1.244 1_556 S
Mn73 O72 2.163 . S
Mn73 O76 2.160 1_445 S
Mn73 O77 2.221 1_545 S
Mn73 O79 2.163 1_445 S
Mn73 O81 2.160 . S
Mn73 O91 2.221 1_455 S
O74 Mn75 2.087 1_554 S
O74 C86 1.256 1_655 S
Mn75 O74 2.087 1_556 S
Mn75 O82 2.089 . S
Mn75 O91 2.290 . S
Mn75 O92 2.251 1_556 S
O76 Mn73 2.160 1_665 S
O76 C87 1.239 . S
O77 Mn73 2.221 1_565 S
O77 Mn78 2.290 . S
O77 C88 1.278 . S
Mn78 O77 2.290 . S
Mn78 O80 2.089 . S
Mn78 O83 2.251 . S
Mn78 O84 2.087 . S
O79 Mn73 2.163 1_665 S
O79 C89 1.244 1_655 S
O80 Mn78 2.089 . S
O80 C87 1.256 1_455 S
O81 Mn73 2.160 . S
O81 C90 1.236 1_455 S
O82 Mn75 2.089 . S
O82 C90 1.256 . S
O83 Mn78 2.251 . S
O83 C88 1.241 . S
O84 Mn78 2.087 . S
O84 C89 1.256 . S
C85 O91 1.278 . S
C85 O92 1.241 1_556 S
C86 O72 1.244 1_554 S
C86 O74 1.256 1_455 S
C87 O76 1.239 . S
C87 O80 1.256 1_655 S
C88 O77 1.278 . S
C88 O83 1.241 . S
C89 O79 1.244 1_455 S
C89 O84 1.256 . S
C90 O81 1.236 1_655 S
C90 O82 1.256 . S
O91 Mn73 2.221 1_655 S
O91 Mn75 2.290 . S
O91 C85 1.278 . S
O92 Mn75 2.251 1_554 S
O92 C85 1.241 1_554 S
O93 Mn94 2.163 1_565 S
O93 C107 1.244 1_565 S
Mn94 O93 2.163 1_545 S
Mn94 O97 2.160 . S
Mn94 O98 2.221 1_545 S
Mn94 O100 2.163 . S
Mn94 O102 2.160 1_545 S
Mn94 O112 2.221 . S
O95 Mn96 2.087 . S
O95 C107 1.256 . S
Mn96 O95 2.087 . S
Mn96 O103 2.089 . S
Mn96 O112 2.290 . S
Mn96 O113 2.251 . S
O97 Mn94 2.160 . S
O97 C108 1.239 1_545 S
O98 Mn94 2.221 1_565 S
O98 Mn99 2.290 . S
O98 C109 1.278 . S
Mn99 O98 2.290 . S
Mn99 O101 2.089 . S
Mn99 O104 2.251 1_556 S
Mn99 O105 2.087 1_556 S
O100 Mn94 2.163 . S
O100 C110 1.244 1_556 S
O101 Mn99 2.089 . S
O101 C108 1.256 . S
O102 Mn94 2.160 1_565 S
O102 C111 1.239 . S
O103 Mn96 2.089 . S
O103 C111 1.256 1_545 S
O104 Mn99 2.251 1_554 S
O104 C109 1.241 1_554 S
O105 Mn99 2.087 1_554 S
O105 C110 1.256 1_565 S
C106 O112 1.278 . S
C106 O113 1.241 . S
C107 O93 1.244 1_545 S
C107 O95 1.256 . S
C108 O97 1.239 1_565 S
C108 O101 1.256 . S
C109 O98 1.278 . S
C109 O104 1.241 1_556 S
C110 O100 1.244 1_554 S
C110 O105 1.256 1_545 S
C111 O102 1.239 . S
C111 O103 1.256 1_565 S
O112 Mn94 2.221 . S
O112 Mn96 2.290 . S
O112 C106 1.278 . S
O113 Mn96 2.251 . S
O113 C106 1.241 . S
O114 Mn115 2.163 . S
O114 C128 1.244 . S
Mn115 O114 2.163 . S
Mn115 O118 2.160 . S
Mn115 O119 2.221 . S
Mn115 O121 2.163 . S
Mn115 O123 2.160 . S
Mn115 O133 2.221 . S
O116 Mn117 2.087 . S
O116 C128 1.256 . S
Mn117 O116 2.087 . S
Mn117 O124 2.089 . S
Mn117 O133 2.290 . S
Mn117 O134 2.251 . S
O118 Mn115 2.160 . S
O118 C129 1.239 . S
O119 Mn115 2.221 . S
O119 Mn120 2.290 . S
O119 C130 1.278 . S
Mn120 O119 2.290 . S
Mn120 O122 2.089 . S
Mn120 O125 2.251 1_556 S
Mn120 O126 2.087 1_556 S
O121 Mn115 2.163 . S
O121 C131 1.244 1_556 S
O122 Mn120 2.089 . S
O122 C129 1.256 . S
O123 Mn115 2.160 . S
O123 C132 1.239 . S
O124 Mn117 2.089 . S
O124 C132 1.256 . S
O125 Mn120 2.251 1_554 S
O125 C130 1.241 1_554 S
O126 Mn120 2.087 1_554 S
O126 C131 1.256 . S
C127 O133 1.278 . S
C127 O134 1.241 . S
C128 O114 1.244 . S
C128 O116 1.256 . S
C129 O118 1.239 . S
C129 O122 1.256 . S
C130 O119 1.278 . S
C130 O125 1.241 1_556 S
C131 O121 1.244 1_554 S
C131 O126 1.256 . S
C132 O123 1.239 . S
C132 O124 1.256 . S
O133 Mn115 2.221 . S
O133 Mn117 2.290 . S
O133 C127 1.278 . S
O134 Mn117 2.251 . S
O134 C127 1.241 . S
O135 Mn136 2.163 . S
O135 C149 1.244 1_556 S
Mn136 O135 2.163 . S
Mn136 O139 2.160 1_455 S
Mn136 O140 2.221 1_455 S
Mn136 O142 2.163 1_455 S
Mn136 O144 2.160 . S
Mn136 O154 2.221 . S
O137 Mn138 2.087 1_554 S
O137 C149 1.256 . S
Mn138 O137 2.087 1_556 S
Mn138 O145 2.089 . S
Mn138 O154 2.290 . S
Mn138 O155 2.251 1_556 S
O139 Mn136 2.160 1_655 S
O139 C150 1.239 . S
O140 Mn136 2.221 1_655 S
O140 Mn141 2.290 . S
O140 C151 1.278 . S
Mn141 O140 2.290 . S
Mn141 O143 2.089 . S
Mn141 O146 2.251 . S
Mn141 O147 2.087 . S
O142 Mn136 2.163 1_655 S
O142 C152 1.244 . S
O143 Mn141 2.089 . S
O143 C150 1.256 . S
O144 Mn136 2.160 . S
O144 C153 1.239 . S
O145 Mn138 2.089 . S
O145 C153 1.256 . S
O146 Mn141 2.251 . S
O146 C151 1.241 . S
O147 Mn141 2.087 . S
O147 C152 1.256 . S
C148 O154 1.278 . S
C148 O155 1.241 1_556 S
C149 O135 1.244 1_554 S
C149 O137 1.256 . S
C150 O139 1.239 . S
C150 O143 1.256 . S
C151 O140 1.278 . S
C151 O146 1.241 . S
C152 O142 1.244 . S
C152 O147 1.256 . S
C153 O144 1.239 . S
C153 O145 1.256 . S
O154 Mn136 2.221 . S
O154 Mn138 2.290 . S
O154 C148 1.278 . S
O155 Mn138 2.251 1_554 S
O155 C148 1.241 1_554 S
C61 C88 2.247 1_545 S
C106 C70 2.291 . S
C127 C43 2.247 . S
C151 C52 2.251 1_655 S
C85 C25 1.712 1_546 S
C34 C109 1.708 1_554 S
C7 C130 1.712 1_554 S
C16 C148 1.717 1_654 S
C90 C50 1.356 1_655 S
C108 C59 1.353 1_565 S
C129 C67 1.384 . S
C41 C153 1.353 . S
C14 C89 1.458 1_655 S
C107 C23 1.455 1_545 S
C128 C31 1.429 . S
C5 C152 1.456 . S
C49 C86 1.707 . S
C58 C110 1.703 . S
C131 C68 1.711 . S
C149 C40 1.703 . S
C13 C87 1.506 . S
C111 C22 1.502 . S
C132 C32 1.498 . S
C4 C150 1.502 . S
