# Generated by pormake.
# Topology pyr, (3,6)-cn, num edge types: 1
# Building blocks:
#     Node 0, Type 0, BuildingBlock: PAMTOO_clean_linker_0, # of connection points: 3
#     Node 1, Type 0, BuildingBlock: PAMTOO_clean_linker_0, # of connection points: 3
#     Node 2, Type 0, BuildingBlock: PAMTOO_clean_linker_0, # of connection points: 3
#     Node 3, Type 0, BuildingBlock: PAMTOO_clean_linker_0, # of connection points: 3
#     Node 4, Type 0, BuildingBlock: PAMTOO_clean_linker_0, # of connection points: 3
#     Node 5, Type 0, BuildingBlock: PAMTOO_clean_linker_0, # of connection points: 3
#     Node 6, Type 0, BuildingBlock: PAMTOO_clean_linker_0, # of connection points: 3
#     Node 7, Type 0, BuildingBlock: PAMTOO_clean_linker_0, # of connection points: 3
#     Node 8, Type 1, BuildingBlock: JUFBIX_clean_sbu_0, # of connection points: 6
#     Node 9, Type 1, BuildingBlock: JUFBIX_clean_sbu_0, # of connection points: 6
#     Node 10, Type 1, BuildingBlock: JUFBIX_clean_sbu_0, # of connection points: 6
#     Node 11, Type 1, BuildingBlock: JUFBIX_clean_sbu_0, # of connection points: 6
#     Edge 12, Type (0, 1), None
#     Edge 13, Type (0, 1), None
#     Edge 14, Type (0, 1), None
#     Edge 15, Type (0, 1), None
#     Edge 16, Type (0, 1), None
#     Edge 17, Type (0, 1), None
#     Edge 18, Type (0, 1), None
#     Edge 19, Type (0, 1), None
#     Edge 20, Type (0, 1), None
#     Edge 21, Type (0, 1), None
#     Edge 22, Type (0, 1), None
#     Edge 23, Type (0, 1), None
#     Edge 24, Type (0, 1), None
#     Edge 25, Type (0, 1), None
#     Edge 26, Type (0, 1), None
#     Edge 27, Type (0, 1), None
#     Edge 28, Type (0, 1), None
#     Edge 29, Type (0, 1), None
#     Edge 30, Type (0, 1), None
#     Edge 31, Type (0, 1), None
#     Edge 32, Type (0, 1), None
#     Edge 33, Type (0, 1), None
#     Edge 34, Type (0, 1), None
#     Edge 35, Type (0, 1), None
# Relax obj value: 0.284
# Max RMSD: 0.222
# Mean RMSD: 0.149
data_MOF--net-pyr--node1-JUFBIX_clean_sbu_0--node2-PAMTOO_clean_linker_0--edge1-none
_symmetry_space_group_name_H-M    P1
_symmetry_Int_Tables_number       1
_symmetry_cell_setting            triclinic
loop_
_symmetry_equiv_pos_as_xyz
'x, y, z'
_cell_length_a     15.563108
_cell_length_b     15.032634
_cell_length_c     16.055506
_cell_angle_alpha  78.03591
_cell_angle_beta   86.029384
_cell_angle_gamma 98.540847
loop_
_atom_site_label
_atom_site_type_symbol
_atom_site_fract_x
_atom_site_fract_y
_atom_site_fract_z
_atom_type_partial_charge
H0 H 0.09598 0.23723 0.33935 0.0
H1 H 0.2943 0.06412 0.36433 0.0
H2 H 0.2836 0.25257 0.12457 0.0
H3 H 0.33131 0.07482 0.10508 0.0
C4 C 0.36964 0.05913 0.16072 0.0
O5 O 0.37041 0.12874 0.206 0.0
H6 H 0.33694 0.99253 0.20266 0.0
C7 C 0.15103 0.21302 0.31141 0.0
C8 C 0.18341 0.2529 0.22515 0.0
C9 C 0.18967 0.14484 0.36315 0.0
C10 C 0.26262 0.11537 0.32602 0.0
C11 C 0.29606 0.15303 0.23944 0.0
C12 C 0.25592 0.2215 0.18972 0.0
H13 H 0.43666 0.04964 0.67838 0.0
H14 H 0.46724 0.78972 0.62319 0.0
H15 H 0.68127 0.95389 0.70398 0.0
H16 H 0.73969 0.80288 0.5761 0.0
C17 C 0.66768 0.78079 0.58375 0.0
O18 O 0.63122 0.80142 0.65643 0.0
H19 H 0.63916 0.81481 0.5267 0.0
C20 C 0.47997 1.0027 0.66644 0.0
C21 C 0.56144 1.01034 0.6968 0.0
C22 C 0.44435 0.92221 0.64283 0.0
C23 C 0.4957 0.8544 0.63744 0.0
C24 C 0.58326 0.86918 0.65433 0.0
C25 C 0.61683 0.94829 0.68195 0.0
H26 H 0.8219 0.24825 0.14854 0.0
H27 H 0.66989 0.29798 0.93354 0.0
H28 H 0.86267 0.51496 0.97264 0.0
H29 H 0.65738 0.55836 0.86477 0.0
C30 C 0.65762 0.48717 0.8557 0.0
O31 O 0.74021 0.46383 0.87101 0.0
H32 H 0.60566 0.4408 0.9026 0.0
C33 C 0.80338 0.29564 0.09489 0.0
C34 C 0.85056 0.38717 1.06996 0.0
C35 C 0.73731 0.26317 1.0459 0.0
C36 C 0.71812 0.32251 0.97279 0.0
C37 C 0.7594 0.41343 0.94727 0.0
C38 C 0.82628 0.4459 0.99563 0.0
H39 H 0.89336 0.74124 0.59339 0.0
H40 H 0.07784 0.61338 0.47052 0.0
H41 H 0.11895 0.90631 0.43358 0.0
H42 H 0.24206 0.75968 0.27768 0.0
C43 C 0.17421 0.74561 0.30946 0.0
O44 O 0.17735 0.76499 0.38974 0.0
H45 H 0.13509 0.79147 0.27028 0.0
C46 C 0.95116 0.74665 0.54998 0.0
C47 C 1.00393 0.83357 0.51863 0.0
C48 C 0.97611 0.66731 0.52663 0.0
C49 C 1.05609 0.67535 0.48035 0.0
C50 C 0.10401 0.76087 0.44152 0.0
C51 C 0.07708 0.84043 0.45881 0.0
H52 H 0.8437 0.02275 0.85499 0.0
H53 H 0.86493 0.84285 0.09836 0.0
H54 H 1.07237 0.89483 0.89714 0.0
H55 H 1.02084 0.72843 0.93761 0.0
C56 C 0.99995 0.71155 1.00764 0.0
O57 O 1.00833 0.7904 1.04016 0.0
H58 H 0.93006 0.6784 1.01813 0.0
C59 C 0.88034 0.97977 0.89663 0.0
C60 C 0.96357 0.96343 0.8632 0.0
C61 C 0.84535 0.94091 0.98472 0.0
C62 C 0.89214 0.87983 1.03448 0.0
C63 C 0.97225 0.86238 1.00083 0.0
C64 C 1.00983 0.90971 0.91947 0.0
H65 H 0.7912 0.06916 0.43163 0.0
H66 H 0.52018 0.09189 0.44308 0.0
H67 H 0.7086 0.30881 0.49174 0.0
H68 H 0.56652 0.19749 0.62363 0.0
C69 C 0.52812 0.24585 0.5874 0.0
O70 O 0.54397 0.24865 0.50061 0.0
H71 H 0.45723 0.22211 0.60738 0.0
C72 C 0.74025 0.1082 0.44202 0.0
C73 C 0.75947 0.19214 0.4663 0.0
C74 C 0.65574 0.07225 0.43124 0.0
C75 C 0.58718 0.1201 0.44868 0.0
C76 C 0.60687 0.20617 0.47115 0.0
C77 C 0.69361 0.24401 0.47346 0.0
H78 H 0.38003 0.73512 1.04053 0.0
H79 H 0.33742 0.50015 0.25621 0.0
H80 H 0.55299 0.71517 0.24121 0.0
H81 H 0.60442 0.57226 0.30607 0.0
C82 C 0.54889 0.53217 0.35255 0.0
O83 O 0.47117 0.56564 0.33567 0.0
H84 H 0.54177 0.45993 0.34443 0.0
C85 C 0.40113 0.69648 0.09797 0.0
C86 C 0.47565 0.73613 0.13347 0.0
C87 C 0.34993 0.60969 0.1414 0.0
C88 C 0.37668 0.56388 0.2201 0.0
C89 C 0.45069 0.60235 0.25521 0.0
C90 C 0.49824 0.68666 0.21126 0.0
H91 H 0.16775 0.24403 0.79908 0.0
H92 H 0.12881 0.51482 0.67846 0.0
H93 H 0.21925 0.3426 0.52437 0.0
H94 H 0.19875 0.64004 0.5606 0.0
C95 C 0.24224 0.59592 0.53789 0.0
O96 O 0.19258 0.5136 0.52966 0.0
H97 H 0.27712 0.63442 0.47549 0.0
C98 C 0.17622 0.29932 0.74232 0.0
C99 C 0.19457 0.28185 0.66085 0.0
C100 C 0.15316 0.38412 0.74833 0.0
C101 C 0.14821 0.44946 0.67418 0.0
C102 C 0.17789 0.4382 0.59487 0.0
C103 C 0.20284 0.35436 0.58749 0.0
Co104 Co 1.02439 0.07832 0.59614 0.0
C105 C 1.00847 0.90608 0.56841 0.0
Co106 Co 0.13751 1.01907 0.62998 0.0
C107 C 0.90513 0.165 0.49808 0.0
C108 C 0.90218 0.19301 0.62319 0.0
N109 N 0.94104 0.14749 0.57139 0.0
N110 N 0.83825 0.21142 0.50433 0.0
C111 C 0.83874 0.23248 0.58203 0.0
H112 H 0.92189 0.13552 0.44434 0.0
H113 H 0.91543 0.19262 0.68851 0.0
C114 C 0.1602 0.19065 0.64943 0.0
N115 N 0.22369 0.95152 0.65696 0.0
C116 C 0.30384 0.96749 0.61471 0.0
C117 C 0.22008 0.87238 0.71574 0.0
N118 N 0.35175 0.90308 0.64548 0.0
C119 C 0.29963 0.84343 0.70982 0.0
C120 C 0.15275 0.1076 0.4555 0.0
O121 O 0.0822 0.17844 0.63197 0.0
O122 O 0.20454 0.12623 0.65291 0.0
O123 O 0.18993 0.05544 0.50931 0.0
O124 O 0.0817 0.12881 0.48233 0.0
O125 O 0.07593 0.91327 0.60721 0.0
H126 H 0.16443 0.83968 0.76165 0.0
H127 H 0.32987 0.02981 0.56711 0.0
O128 O 0.9668 0.97387 0.55444 0.0
O129 O 0.96245 0.0301 0.71093 0.0
O130 O 0.08283 0.98467 0.74961 0.0
C131 C 1.00456 0.99542 0.77074 0.0
H132 H 0.78905 0.26248 0.6119 0.0
H133 H 0.32053 0.78878 0.75501 0.0
Co134 Co 0.58951 1.01259 1.01644 0.0
C135 C 0.52626 0.83316 0.10243 0.0
Co136 Co 0.62871 0.9889 0.14362 0.0
C137 C 0.59505 1.0104 0.84221 0.0
C138 C 0.52989 0.11689 0.87296 0.0
N139 N 0.56936 0.04649 0.9073 0.0
N140 N 0.57178 0.05394 0.76753 0.0
C141 C 0.52876 0.11981 0.7878 0.0
H142 H 0.62362 0.9481 0.85084 0.0
H143 H 0.50019 0.16047 0.90817 0.0
C144 C 0.69037 0.16614 1.06381 0.0
N145 N 0.6463 0.96463 0.25665 0.0
C146 C 0.61635 1.01605 0.30811 0.0
C147 C 0.69526 0.91176 0.30403 0.0
N148 N 0.64463 0.99991 0.3853 0.0
C149 C 0.69602 0.935 0.38273 0.0
C150 C 0.75894 0.95885 1.02424 0.0
O151 O 0.64918 0.13657 1.00656 0.0
O152 O 0.6897 0.11125 0.13477 0.0
O153 O 0.74181 0.95327 0.10494 0.0
O154 O 0.70017 0.9804 0.97672 0.0
O155 O 0.56967 0.8671 0.1561 0.0
H156 H 0.73459 0.86699 0.28024 0.0
H157 H 0.58611 0.0757 0.28543 0.0
O158 O 0.52645 0.88449 1.02813 0.0
O159 O 0.4794 0.04689 1.0505 0.0
O160 O 0.51606 0.02359 0.17902 0.0
C161 C 0.46091 0.04723 0.1282 0.0
H162 H 0.48954 0.1603 0.74802 0.0
H163 H 0.7405 0.91503 0.42933 0.0
Co164 Co 0.66876 0.50282 0.58476 0.0
C165 C 0.57364 0.53308 0.44309 0.0
Co166 Co 0.53572 0.51417 0.62359 0.0
C167 C 0.84346 0.55652 0.59052 0.0
C168 C 0.82519 0.48063 0.49199 0.0
N169 N 0.7837 0.5 0.56045 0.0
N170 N 0.91798 0.58091 0.53909 0.0
C171 C 0.90826 0.52964 0.47934 0.0
H172 H 0.82779 0.59133 0.64075 0.0
H173 H 0.79393 0.44716 0.44606 0.0
C174 C 0.63292 0.48376 0.7651 0.0
N175 N 0.42316 0.52754 0.64964 0.0
C176 C 0.365 0.5224 0.59239 0.0
C177 C 0.39503 0.58303 0.69829 0.0
N178 N 0.30639 0.57767 0.59834 0.0
C179 C 0.32239 0.61422 0.66633 0.0
C180 C 0.55718 0.33896 0.60639 0.0
O181 O 0.69107 0.48708 0.70485 0.0
O182 O 0.55539 0.48946 0.7455 0.0
O183 O 0.50087 0.38639 0.62611 0.0
O184 O 0.63792 0.37381 0.5964 0.0
O185 O 0.51798 0.54016 0.5016 0.0
H186 H 0.43109 0.6086 0.74612 0.0
H187 H 0.36913 0.48486 0.54196 0.0
O188 O 0.64828 0.51766 0.46421 0.0
O189 O 0.69879 0.63364 0.56889 0.0
O190 O 0.56721 0.64045 0.61819 0.0
C191 C 0.64377 0.68032 0.59042 0.0
H192 H 0.9522 0.53792 0.42254 0.0
H193 H 0.28684 0.66303 0.6879 0.0
Co194 Co 0.12883 0.48551 1.05075 0.0
C195 C 0.9371 0.41497 0.10541 0.0
Co196 Co 1.06999 0.49542 0.17566 0.0
C197 C 0.16876 0.41477 0.89393 0.0
C198 C 1.06591 0.49411 0.89544 0.0
N199 N 0.13348 0.46944 0.93911 0.0
N200 N 0.12277 0.40326 0.82717 0.0
C201 C 1.05636 0.44997 0.83135 0.0
H202 H 0.22587 0.38396 0.90948 0.0
H203 H 1.01934 0.53517 0.91323 0.0
C204 C 0.26164 0.57164 0.11524 0.0
N205 N 1.0589 0.52279 0.28565 0.0
C206 C 1.06461 0.61404 0.28608 0.0
C207 C 0.12237 0.49723 0.33487 0.0
N208 N 0.13775 0.64804 0.3168 0.0
C209 C 0.17487 0.57456 0.34677 0.0
C210 C 0.14693 0.33439 0.17799 0.0
O211 O 0.25169 0.54421 1.04569 0.0
O212 O 0.19427 0.55742 0.16926 0.0
O213 O 0.1048 0.3789 0.22134 0.0
O214 O 0.16237 0.3655 0.09698 0.0
O215 O 0.94579 0.43503 0.17857 0.0
H216 H 0.14266 0.43053 0.34489 0.0
H217 H 1.02175 0.65804 0.25515 0.0
O218 O 1.00604 0.42781 1.0549 0.0
O219 O 0.09903 0.60502 1.00675 0.0
O220 O 1.03226 0.6069 0.12858 0.0
C221 C 1.05187 0.64327 1.05082 0.0
H222 H 1.00797 0.45771 0.78608 0.0
H223 H 0.23971 0.57714 0.3667 0.0
loop_
_geom_bond_atom_site_label_1
_geom_bond_atom_site_label_2
_geom_bond_distance
_geom_bond_site_symmetry_2
_ccdc_geom_bond_type
H0 C7 0.929 . S
H1 C10 0.930 . S
H2 C12 0.929 . S
H3 C4 0.969 1_565 S
C4 H3 0.969 1_545 S
C4 O5 1.550 . S
C4 H6 0.975 . S
O5 C4 1.550 . S
O5 C11 1.412 . S
H6 C4 0.975 . S
C7 H0 0.929 . S
C7 C8 1.400 . S
C7 C9 1.364 . S
C8 C7 1.400 . S
C8 C12 1.377 . S
C9 C7 1.364 . S
C9 C10 1.374 . S
C10 H1 0.930 . S
C10 C9 1.374 . S
C10 C11 1.383 . S
C11 O5 1.412 . S
C11 C10 1.383 . S
C11 C12 1.394 . S
C12 H2 0.929 . S
C12 C8 1.377 . S
C12 C11 1.394 . S
H13 C20 0.929 . S
H14 C23 0.930 . S
H15 C25 0.929 . S
H16 C17 0.969 . S
C17 H16 0.969 . S
C17 O18 1.550 . S
C17 H19 0.973 . S
O18 C17 1.550 . S
O18 C24 1.412 . S
H19 C17 0.973 . S
C20 H13 0.929 . S
C20 C21 1.400 . S
C20 C22 1.364 . S
C21 C20 1.400 . S
C21 C25 1.377 . S
C22 C20 1.364 . S
C22 C23 1.374 . S
C23 H14 0.930 . S
C23 C22 1.374 . S
C23 C24 1.383 . S
C24 O18 1.412 . S
C24 C23 1.383 . S
C24 C25 1.394 . S
C25 H15 0.929 . S
C25 C21 1.377 . S
C25 C24 1.394 . S
H26 C33 0.929 1_554 S
H27 C36 0.930 . S
H28 C38 0.929 . S
H29 C30 0.969 . S
C30 H29 0.969 . S
C30 O31 1.550 . S
C30 H32 0.973 . S
O31 C30 1.550 . S
O31 C37 1.412 . S
H32 C30 0.973 . S
C33 H26 0.929 1_556 S
C33 C34 1.400 . S
C33 C35 1.364 . S
C34 C33 1.400 . S
C34 C38 1.377 . S
C35 C33 1.364 . S
C35 C36 1.374 . S
C36 H27 0.930 . S
C36 C35 1.374 . S
C36 C37 1.383 . S
C37 O31 1.412 . S
C37 C36 1.383 . S
C37 C38 1.394 . S
C38 H28 0.929 . S
C38 C34 1.377 . S
C38 C37 1.394 . S
H39 C46 0.929 . S
H40 C49 0.930 . S
H41 C51 0.929 . S
H42 C43 0.969 . S
C43 H42 0.969 . S
C43 O44 1.550 1_655 S
C43 H45 0.973 . S
O44 C43 1.550 1_455 S
O44 C50 1.412 1_455 S
H45 C43 0.973 . S
C46 H39 0.929 . S
C46 C47 1.400 . S
C46 C48 1.364 . S
C47 C46 1.400 . S
C47 C51 1.377 1_655 S
C48 C46 1.364 . S
C48 C49 1.374 . S
C49 H40 0.930 . S
C49 C48 1.374 . S
C49 C50 1.383 . S
C50 O44 1.412 1_655 S
C50 C49 1.383 . S
C50 C51 1.394 1_655 S
C51 H41 0.929 . S
C51 C47 1.377 1_455 S
C51 C50 1.394 1_455 S
H52 C59 0.929 1_545 S
H53 C62 0.930 . S
H54 C64 0.929 . S
H55 C56 0.969 . S
C56 H55 0.969 . S
C56 O57 1.550 . S
C56 H58 0.973 1_556 S
O57 C56 1.550 . S
O57 C63 1.412 . S
H58 C56 0.973 1_554 S
C59 H52 0.929 1_565 S
C59 C60 1.400 . S
C59 C61 1.364 . S
C60 C59 1.400 . S
C60 C64 1.377 . S
C61 C59 1.364 . S
C61 C62 1.374 . S
C62 H53 0.930 . S
C62 C61 1.374 . S
C62 C63 1.383 . S
C63 O57 1.412 . S
C63 C62 1.383 . S
C63 C64 1.394 . S
C64 H54 0.929 . S
C64 C60 1.377 . S
C64 C63 1.394 . S
H65 C72 0.929 . S
H66 C75 0.930 . S
H67 C77 0.929 . S
H68 C69 0.969 . S
C69 H68 0.969 . S
C69 O70 1.550 . S
C69 H71 0.973 . S
O70 C69 1.550 . S
O70 C76 1.412 . S
H71 C69 0.973 . S
C72 H65 0.929 . S
C72 C73 1.400 . S
C72 C74 1.364 . S
C73 C72 1.400 . S
C73 C77 1.377 . S
C74 C72 1.364 . S
C74 C75 1.374 . S
C75 H66 0.930 . S
C75 C74 1.374 . S
C75 C76 1.383 . S
C76 O70 1.412 . S
C76 C75 1.383 . S
C76 C77 1.394 . S
C77 H67 0.929 . S
C77 C73 1.377 . S
C77 C76 1.394 . S
H78 C85 0.929 1_556 S
H79 C88 0.930 . S
H80 C90 0.929 . S
H81 C82 0.969 . S
C82 H81 0.969 . S
C82 O83 1.550 . S
C82 H84 0.973 . S
O83 C82 1.550 . S
O83 C89 1.412 . S
H84 C82 0.973 . S
C85 H78 0.929 1_554 S
C85 C86 1.400 . S
C85 C87 1.364 . S
C86 C85 1.400 . S
C86 C90 1.377 . S
C87 C85 1.364 . S
C87 C88 1.374 . S
C88 H79 0.930 . S
C88 C87 1.374 . S
C88 C89 1.383 . S
C89 O83 1.412 . S
C89 C88 1.383 . S
C89 C90 1.394 . S
C90 H80 0.929 . S
C90 C86 1.377 . S
C90 C89 1.394 . S
H91 C98 0.929 . S
H92 C101 0.930 . S
H93 C103 0.929 . S
H94 C95 0.969 . S
C95 H94 0.969 . S
C95 O96 1.550 . S
C95 H97 0.973 . S
O96 C95 1.550 . S
O96 C102 1.412 . S
H97 C95 0.973 . S
C98 H91 0.929 . S
C98 C99 1.400 1_655 S
C98 C100 1.364 1_655 S
C99 C98 1.400 1_455 S
C99 C103 1.376 . S
C100 C98 1.364 1_455 S
C100 C101 1.374 . S
C101 H92 0.930 . S
C101 C100 1.374 . S
C101 C102 1.383 . S
C102 O96 1.412 . S
C102 C101 1.383 . S
C102 C103 1.394 . S
C103 H93 0.929 . S
C103 C99 1.376 . S
C103 C102 1.394 . S
Co104 N109 2.057 . S
Co104 O121 2.021 . S
Co104 O124 2.062 . S
Co104 O128 2.117 1_545 S
Co104 O129 2.020 1_545 S
C105 O125 1.259 1_655 S
C105 O128 1.258 . S
Co106 N115 2.057 . S
Co106 O122 2.117 1_565 S
Co106 O123 2.020 1_565 S
Co106 O125 2.021 . S
Co106 O130 2.062 . S
C107 N109 1.316 . S
C107 N110 1.347 . S
C107 H112 0.931 . S
C108 N109 1.375 1_565 S
C108 C111 1.350 . S
C108 H113 0.930 . S
N109 Co104 2.057 . S
N109 C107 1.316 . S
N109 C108 1.375 1_545 S
N110 C107 1.347 . S
N110 C111 1.373 1_545 S
C111 C108 1.350 . S
C111 N110 1.373 1_565 S
C111 H132 0.931 . S
H112 C107 0.931 . S
H113 C108 0.930 . S
C114 O121 1.259 1_455 S
C114 O122 1.258 . S
N115 Co106 2.057 . S
N115 C116 1.316 . S
N115 C117 1.375 1_565 S
C116 N115 1.316 . S
C116 N118 1.347 . S
C116 H127 0.931 . S
C117 N115 1.375 1_545 S
C117 C119 1.350 . S
C117 H126 0.930 . S
N118 C116 1.347 . S
N118 C119 1.373 1_565 S
C119 C117 1.350 . S
C119 N118 1.373 1_545 S
C119 H133 0.931 . S
C120 O123 1.256 . S
C120 O124 1.255 1_455 S
O121 Co104 2.021 . S
O121 C114 1.259 1_655 S
O122 Co106 2.117 1_545 S
O122 C114 1.258 . S
O123 Co106 2.020 1_545 S
O123 C120 1.256 . S
O124 Co104 2.062 . S
O124 C120 1.255 1_655 S
O125 C105 1.259 1_455 S
O125 Co106 2.021 . S
H126 C117 0.930 . S
H127 C116 0.931 . S
O128 Co104 2.117 1_565 S
O128 C105 1.258 . S
O129 Co104 2.020 1_565 S
O129 C131 1.256 . S
O130 Co106 2.062 . S
O130 C131 1.255 1_455 S
C131 O129 1.256 . S
C131 O130 1.255 1_655 S
H132 C111 0.931 . S
H133 C119 0.931 . S
Co134 N139 2.057 1_545 S
Co134 O151 2.021 . S
Co134 O154 2.061 1_545 S
Co134 O158 2.116 1_546 S
Co134 O159 2.020 . S
C135 O155 1.259 . S
C135 O158 1.258 . S
Co136 N145 2.057 . S
Co136 O152 2.117 . S
Co136 O153 2.020 1_545 S
Co136 O155 2.021 1_545 S
Co136 O160 2.062 . S
C137 N139 1.316 . S
C137 N140 1.347 . S
C137 H142 0.931 1_565 S
C138 N139 1.375 . S
C138 C141 1.350 . S
C138 H143 0.930 . S
N139 Co134 2.057 1_565 S
N139 C137 1.316 . S
N139 C138 1.375 . S
N140 C137 1.347 . S
N140 C141 1.373 . S
C141 C138 1.350 . S
C141 N140 1.373 . S
C141 H162 0.931 . S
H142 C137 0.931 1_545 S
H143 C138 0.930 . S
C144 O151 1.259 . S
C144 O152 1.258 1_556 S
N145 Co136 2.057 . S
N145 C146 1.316 . S
N145 C147 1.375 . S
C146 N145 1.316 . S
C146 N148 1.347 . S
C146 H157 0.931 1_545 S
C147 N145 1.375 . S
C147 C149 1.350 . S
C147 H156 0.930 . S
N148 C146 1.347 . S
N148 C149 1.373 . S
C149 C147 1.350 . S
C149 N148 1.373 . S
C149 H163 0.931 . S
C150 O153 1.256 1_556 S
C150 O154 1.255 . S
O151 Co134 2.021 . S
O151 C144 1.259 . S
O152 Co136 2.117 . S
O152 C144 1.258 1_554 S
O153 Co136 2.020 1_565 S
O153 C150 1.256 1_554 S
O154 Co134 2.061 1_565 S
O154 C150 1.255 . S
O155 C135 1.259 . S
O155 Co136 2.021 1_565 S
H156 C147 0.930 . S
H157 C146 0.931 1_565 S
O158 Co134 2.116 1_564 S
O158 C135 1.258 . S
O159 Co134 2.020 . S
O159 C161 1.256 1_556 S
O160 Co136 2.062 . S
O160 C161 1.255 . S
C161 O159 1.256 1_554 S
C161 O160 1.255 . S
H162 C141 0.931 . S
H163 C149 0.931 . S
Co164 N169 2.057 . S
Co164 O181 2.021 . S
Co164 O184 2.062 . S
Co164 O188 2.117 . S
Co164 O189 2.020 . S
C165 O185 1.259 . S
C165 O188 1.258 . S
Co166 N175 2.057 . S
Co166 O182 2.117 . S
Co166 O183 2.020 . S
Co166 O185 2.021 . S
Co166 O190 2.062 . S
C167 N169 1.316 . S
C167 N170 1.347 . S
C167 H172 0.931 . S
C168 N169 1.375 . S
C168 C171 1.350 . S
C168 H173 0.930 . S
N169 Co164 2.057 . S
N169 C167 1.316 . S
N169 C168 1.375 . S
N170 C167 1.347 . S
N170 C171 1.373 . S
C171 C168 1.350 . S
C171 N170 1.373 . S
C171 H192 0.931 . S
H172 C167 0.931 . S
H173 C168 0.930 . S
C174 O181 1.259 . S
C174 O182 1.258 . S
N175 Co166 2.057 . S
N175 C176 1.316 . S
N175 C177 1.375 . S
C176 N175 1.316 . S
C176 N178 1.347 . S
C176 H187 0.931 . S
C177 N175 1.375 . S
C177 C179 1.350 . S
C177 H186 0.930 . S
N178 C176 1.347 . S
N178 C179 1.373 . S
C179 C177 1.350 . S
C179 N178 1.373 . S
C179 H193 0.931 . S
C180 O183 1.256 . S
C180 O184 1.255 . S
O181 Co164 2.021 . S
O181 C174 1.259 . S
O182 Co166 2.117 . S
O182 C174 1.258 . S
O183 Co166 2.020 . S
O183 C180 1.256 . S
O184 Co164 2.062 . S
O184 C180 1.255 . S
O185 C165 1.259 . S
O185 Co166 2.021 . S
H186 C177 0.930 . S
H187 C176 0.931 . S
O188 Co164 2.117 . S
O188 C165 1.258 . S
O189 Co164 2.020 . S
O189 C191 1.256 . S
O190 Co166 2.062 . S
O190 C191 1.255 . S
C191 O189 1.256 . S
C191 O190 1.255 . S
H192 C171 0.931 . S
H193 C179 0.931 . S
Co194 N199 2.057 . S
Co194 O211 2.021 . S
Co194 O214 2.062 1_556 S
Co194 O218 2.117 1_455 S
Co194 O219 2.020 . S
C195 O215 1.259 . S
C195 O218 1.258 1_554 S
Co196 N205 2.057 . S
Co196 O212 2.117 . S
Co196 O213 2.020 . S
Co196 O215 2.021 1_455 S
Co196 O220 2.062 1_455 S
C197 N199 1.316 . S
C197 N200 1.347 . S
C197 H202 0.931 . S
C198 N199 1.375 1_655 S
C198 C201 1.350 1_655 S
C198 H203 0.930 . S
N199 Co194 2.057 . S
N199 C197 1.316 . S
N199 C198 1.375 1_455 S
N200 C197 1.347 . S
N200 C201 1.373 . S
C201 C198 1.350 1_455 S
C201 N200 1.373 . S
C201 H222 0.931 1_455 S
H202 C197 0.931 . S
H203 C198 0.930 . S
C204 O211 1.259 1_554 S
C204 O212 1.258 . S
N205 Co196 2.057 . S
N205 C206 1.316 1_455 S
N205 C207 1.375 . S
C206 N205 1.316 1_655 S
C206 N208 1.347 . S
C206 H217 0.931 . S
C207 N205 1.375 . S
C207 C209 1.350 . S
C207 H216 0.930 . S
N208 C206 1.347 . S
N208 C209 1.373 1_655 S
C209 C207 1.350 . S
C209 N208 1.373 1_455 S
C209 H223 0.931 . S
C210 O213 1.256 . S
C210 O214 1.255 . S
O211 Co194 2.021 . S
O211 C204 1.259 1_556 S
O212 Co196 2.117 . S
O212 C204 1.258 . S
O213 Co196 2.020 . S
O213 C210 1.256 . S
O214 Co194 2.062 1_554 S
O214 C210 1.255 . S
O215 C195 1.259 . S
O215 Co196 2.021 1_655 S
H216 C207 0.930 . S
H217 C206 0.931 . S
O218 Co194 2.117 1_655 S
O218 C195 1.258 1_556 S
O219 Co194 2.020 . S
O219 C221 1.256 1_455 S
O220 Co196 2.062 1_655 S
O220 C221 1.255 1_554 S
C221 O219 1.256 1_655 S
C221 O220 1.255 1_556 S
H222 C201 0.931 1_655 S
H223 C209 0.931 . S
C9 C120 3.229 . S
C21 N140 0.902 . S
C174 C30 2.214 . S
C43 N208 0.911 . S
C161 C4 2.926 . S
N118 C22 1.616 . S
C195 C34 2.268 1_554 S
N170 C48 1.457 . S
C8 C210 2.176 . S
C144 C35 2.268 . S
C47 C105 1.444 . S
C17 C191 1.478 . S
C131 C60 2.938 . S
C74 N148 1.325 . S
C82 C165 2.185 . S
C100 N200 1.862 . S
C61 C150 3.414 . S
N110 C73 0.915 . S
C204 C87 2.807 . S
N178 C95 0.635 . S
C56 C221 2.266 . S
C135 C86 2.449 . S
C114 C99 1.723 . S
C69 C180 1.663 . S
