# Generated by pormake.
# Topology rtl, (3,6)-cn, num edge types: 1
# Building blocks:
#     Node 0, Type 0, BuildingBlock: CUQRIR_clean_linker_1, # of connection points: 3
#     Node 1, Type 0, BuildingBlock: CUQRIR_clean_linker_1, # of connection points: 3
#     Node 2, Type 0, BuildingBlock: CUQRIR_clean_linker_1, # of connection points: 3
#     Node 3, Type 0, BuildingBlock: CUQRIR_clean_linker_1, # of connection points: 3
#     Node 4, Type 1, BuildingBlock: KUMBUR_clean_sbu_1, # of connection points: 6
#     Node 5, Type 1, BuildingBlock: KUMBUR_clean_sbu_1, # of connection points: 6
#     Edge 6, Type (0, 1), None
#     Edge 7, Type (0, 1), None
#     Edge 8, Type (0, 1), None
#     Edge 9, Type (0, 1), None
#     Edge 10, Type (0, 1), None
#     Edge 11, Type (0, 1), None
#     Edge 12, Type (0, 1), None
#     Edge 13, Type (0, 1), None
#     Edge 14, Type (0, 1), None
#     Edge 15, Type (0, 1), None
#     Edge 16, Type (0, 1), None
#     Edge 17, Type (0, 1), None
# Relax obj value: 0.072
# Max RMSD: 0.317
# Mean RMSD: 0.233
data_MOF--net-rtl--node1-KUMBUR_clean_sbu_1--node2-CUQRIR_clean_linker_1--edge1-none
_symmetry_space_group_name_H-M    P1
_symmetry_Int_Tables_number       1
_symmetry_cell_setting            triclinic
loop_
_symmetry_equiv_pos_as_xyz
'x, y, z'
_cell_length_a     14.328414
_cell_length_b     14.717922
_cell_length_c     12.008156
_cell_angle_alpha  61.854638
_cell_angle_beta   94.197357
_cell_angle_gamma 92.081995
loop_
_atom_site_label
_atom_site_type_symbol
_atom_site_fract_x
_atom_site_fract_y
_atom_site_fract_z
_atom_type_partial_charge
C0 C 0.29044 0.82371 0.87484 0.0
N1 N 0.20736 0.86067 0.89011 0.0
N2 N 0.33591 0.76134 0.98984 0.0
C3 C 0.35217 0.89609 0.77377 0.0
C4 C 0.29071 0.78394 0.06916 0.0
N5 N 0.21201 0.84028 0.01177 0.0
C6 C 0.3119 0.73615 0.21021 0.0
H7 H 0.40612 0.85329 0.75601 0.0
H8 H 0.39185 0.94368 0.81038 0.0
H9 H 0.31236 0.95097 0.68679 0.0
H10 H 0.3857 0.73314 0.2405 0.0
H11 H 0.28539 0.65637 0.25031 0.0
H12 H 0.27862 0.77869 0.25214 0.0
C13 C 0.7203 0.80748 0.82574 0.0
N14 N 0.65743 0.73319 0.82774 0.0
N15 N 0.77146 0.84696 0.72009 0.0
C16 C 0.69413 0.88023 0.87176 0.0
C17 C 0.72313 0.8112 0.64726 0.0
N18 N 0.66097 0.73729 0.71505 0.0
C19 C 0.70154 0.8791 0.5072 0.0
H20 H 0.6703 0.95302 0.78869 0.0
H21 H 0.75566 0.89934 0.9171 0.0
H22 H 0.63406 0.85194 0.93051 0.0
H23 H 0.70365 0.83464 0.45443 0.0
H24 H 0.74768 0.94749 0.46587 0.0
H25 H 0.62866 0.90751 0.49263 0.0
C26 C 0.72172 0.21465 0.37217 0.0
N27 N 0.8048 0.17769 0.3569 0.0
N28 N 0.67625 0.27703 0.25717 0.0
C29 C 0.65999 0.14228 0.47324 0.0
C30 C 0.72145 0.25442 0.17784 0.0
N31 N 0.80015 0.19808 0.23523 0.0
C32 C 0.70025 0.3022 0.03679 0.0
H33 H 0.62031 0.09469 0.43663 0.0
H34 H 0.60605 0.18509 0.491 0.0
H35 H 0.6998 0.0874 0.56022 0.0
H36 H 0.72676 0.38199 0.9967 0.0
H37 H 0.62645 0.30521 1.00651 0.0
H38 H 0.73353 0.25967 0.99486 0.0
C39 C 0.29186 0.23089 0.42127 0.0
N40 N 0.35472 0.30518 0.41926 0.0
N41 N 0.2407 0.1914 0.52691 0.0
C42 C 0.31802 0.15814 0.37523 0.0
C43 C 0.28903 0.22717 0.59975 0.0
N44 N 0.35119 0.30108 0.53195 0.0
C45 C 0.31061 0.15928 0.7398 0.0
H46 H 0.37809 0.18644 0.31647 0.0
H47 H 0.25649 0.13903 0.3299 0.0
H48 H 0.34186 0.08535 0.4583 0.0
H49 H 0.26447 0.09088 0.78114 0.0
H50 H 0.30851 0.20374 0.79257 0.0
H51 H 0.3835 0.13086 0.75438 0.0
Tb52 Tb 0.03864 0.96124 0.50502 0.0
C53 C 0.98187 0.31737 0.59074 0.0
N54 N 0.03917 0.23849 0.66893 0.0
C55 C 0.15202 0.35959 0.67974 0.0
C56 C 0.01113 0.42072 0.54556 0.0
C57 C 0.11789 0.25941 0.72504 0.0
C58 C 0.10028 0.44057 0.5847 0.0
C59 C 0.82204 0.37425 0.52491 0.0
C60 C 0.88779 0.29518 0.58483 0.0
C61 C 0.85204 0.47663 0.46936 0.0
C62 C 0.94556 0.49977 0.48148 0.0
Tb63 Tb 0.97352 0.07712 0.74198 0.0
N64 N 0.8594 0.19684 0.65646 0.0
C65 C 0.72787 0.34792 0.53802 0.0
C66 C 0.76886 0.17625 0.69057 0.0
C67 C 0.70134 0.252 0.63114 0.0
H68 H 0.15381 0.19828 0.80611 0.0
H69 H 0.62852 0.23477 0.65158 0.0
H70 H 0.85835 0.8401 0.4409 0.0
H71 H 0.38364 0.8036 0.59543 0.0
H72 H 0.7475 0.09968 0.75627 0.0
H73 H 0.67462 0.40196 0.48371 0.0
H74 H 0.26465 0.93869 0.49074 0.0
H75 H 0.2158 0.37456 0.72241 0.0
H76 H 0.80374 0.5394 0.43068 0.0
H77 H 0.96213 0.57865 0.45604 0.0
H78 H 0.79636 0.66381 0.52459 0.0
H79 H 0.12485 0.51841 0.55531 0.0
H80 H 0.33755 0.63641 0.76329 0.0
N81 N 0.973 0.79986 0.57807 0.0
C82 C 0.03029 0.72099 0.65628 0.0
C83 C 0.86014 0.67878 0.56725 0.0
C84 C 0.00103 0.61764 0.70145 0.0
C85 C 0.89426 0.77897 0.52197 0.0
C86 C 0.91188 0.5978 0.6623 0.0
N87 N 0.15275 0.8415 0.59053 0.0
C88 C 0.2433 0.86212 0.55644 0.0
C89 C 0.19012 0.66411 0.72211 0.0
C90 C 0.12437 0.74317 0.6622 0.0
C91 C 0.28429 0.69045 0.70899 0.0
C92 C 0.31082 0.78637 0.61587 0.0
H93 H 0.88731 0.51996 0.69168 0.0
H94 H 0.05002 0.45971 0.79096 0.0
H95 H 0.20843 0.49896 0.81633 0.0
O96 O 0.12573 0.98579 0.35558 0.0
O97 O 0.13685 0.92326 0.68078 0.0
O98 O 0.05644 0.93311 0.83514 0.0
O99 O 0.98484 0.95203 0.34135 0.0
O100 O 0.11961 0.10289 0.47267 0.0
O101 O 0.11576 0.11438 0.65908 0.0
O102 O 0.88643 0.05257 0.89142 0.0
O103 O 0.87531 0.11511 0.56622 0.0
O104 O 0.95572 0.10524 0.41187 0.0
O105 O 0.02732 0.08634 0.90565 0.0
O106 O 0.89256 0.93547 0.77435 0.0
O107 O 0.8964 0.92399 0.58793 0.0
C108 C 0.13223 0.90726 0.79998 0.0
C109 C 0.08644 0.88475 0.24769 0.0
C110 C 0.13689 0.83417 0.08969 0.0
C111 C 0.10875 0.73397 0.16981 0.0
C112 C 0.07022 0.78019 0.32847 0.0
C113 C 0.0837 0.70638 0.29009 0.0
C114 C 0.12556 0.91017 0.12933 0.0
C115 C 0.1577 0.13306 0.55411 0.0
C116 C 0.06321 0.96279 0.29039 0.0
C117 C 0.0666 0.53859 0.76553 0.0
C118 C 0.16013 0.56173 0.77765 0.0
C119 C 0.87993 0.13111 0.44702 0.0
C120 C 0.92572 0.15362 0.99931 0.0
C121 C 0.87526 0.20419 0.15731 0.0
C122 C 0.9034 0.30439 0.07719 0.0
C123 C 0.94193 0.25817 0.91854 0.0
C124 C 0.8866 0.1282 0.11767 0.0
C125 C 0.92846 0.33199 0.95691 0.0
C126 C 0.85446 0.9053 0.6929 0.0
C127 C 0.94895 0.07557 0.95661 0.0
H128 H 0.12522 0.67314 0.14888 0.0
H129 H 0.04931 0.75447 0.4224 0.0
H130 H 0.08142 0.62595 0.35419 0.0
H131 H 0.15297 0.98509 0.07022 0.0
H132 H 0.88693 0.36522 0.09813 0.0
H133 H 0.96285 0.2839 0.8246 0.0
H134 H 0.85918 0.05327 0.17678 0.0
H135 H 0.93073 0.41241 0.89281 0.0
Tb136 Tb 0.44581 0.47253 0.01194 0.0
C137 C 0.75969 0.6758 0.17649 0.0
N138 N 0.72364 0.58205 0.19766 0.0
C139 C 0.87291 0.53697 0.15868 0.0
C140 C 0.85219 0.70315 0.14271 0.0
C141 C 0.782 0.51075 0.19692 0.0
C142 C 0.9062 0.63515 0.12513 0.0
C143 C 0.73616 0.84499 0.15822 0.0
C144 C 0.70028 0.75011 0.17265 0.0
C145 C 0.8315 0.86404 0.14465 0.0
C146 C 0.88643 0.79896 0.12332 0.0
Tb147 Tb 0.56635 0.56584 0.23506 0.0
N148 N 0.60669 0.7342 0.16584 0.0
C149 C 0.67415 0.92355 0.13657 0.0
C150 C 0.54676 0.81452 0.12975 0.0
C151 C 0.57915 0.90956 0.11589 0.0
H152 H 0.7633 0.43283 0.22938 0.0
H153 H 0.53133 0.97326 0.08205 0.0
H154 H 0.24887 0.60552 0.01767 0.0
H155 H 0.48084 0.0651 0.16501 0.0
H156 H 0.47609 0.80977 0.10085 0.0
H157 H 0.6994 0.99861 0.12126 0.0
H158 H 0.53606 0.2286 0.14618 0.0
H159 H 0.91848 0.48121 0.15752 0.0
H160 H 0.86113 0.93449 0.13324 0.0
H161 H 0.95329 0.82642 0.08636 0.0
H162 H 0.09369 0.55714 0.08952 0.0
H163 H 0.97383 0.65683 0.08735 0.0
H164 H 0.31277 0.03974 0.12578 0.0
N165 N 0.28852 0.45631 0.04935 0.0
C166 C 0.25247 0.36256 0.07051 0.0
C167 C 0.13925 0.50138 0.08834 0.0
C168 C 0.15997 0.33521 0.10429 0.0
C169 C 0.23017 0.5276 0.05011 0.0
C170 C 0.10596 0.4032 0.12187 0.0
N171 N 0.40547 0.30418 0.08111 0.0
C172 C 0.4654 0.22385 0.11725 0.0
C173 C 0.276 0.19337 0.08879 0.0
C174 C 0.31188 0.28826 0.07433 0.0
C175 C 0.33802 0.11481 0.11046 0.0
C176 C 0.43301 0.12879 0.13114 0.0
H177 H 0.03833 0.38152 0.15966 0.0
H178 H 0.05887 0.21194 0.16064 0.0
H179 H 0.15104 0.10386 0.11378 0.0
O180 O 0.36579 0.46578 0.86665 0.0
O181 O 0.39984 0.38136 0.20911 0.0
O182 O 0.47415 0.43218 0.34746 0.0
O183 O 0.51103 0.43235 0.88613 0.0
O184 O 0.58524 0.41274 0.10157 0.0
O185 O 0.60376 0.40052 0.29647 0.0
O186 O 0.64638 0.57259 0.38035 0.0
O187 O 0.61232 0.657 0.0379 0.0
O188 O 0.53801 0.6062 0.89953 0.0
O189 O 0.50114 0.60602 0.36087 0.0
O190 O 0.42692 0.62563 0.14544 0.0
O191 O 0.4084 0.63784 0.95053 0.0
C192 C 0.41113 0.37416 0.32296 0.0
C193 C 0.4209 0.4574 0.69504 0.0
C194 C 0.36844 0.38766 0.55435 0.0
C195 C 0.31964 0.4794 0.47691 0.0
C196 C 0.3847 0.55289 0.60637 0.0
C197 C 0.32769 0.56157 0.50402 0.0
C198 C 0.41785 0.37608 0.6654 0.0
C199 C 0.61254 0.35786 0.22203 0.0
C200 C 0.43128 0.4326 0.82789 0.0
C201 C 0.12572 0.2394 0.12368 0.0
C202 C 0.18066 0.17431 0.10237 0.0
C203 C 0.60103 0.66421 0.92404 0.0
C204 C 0.59127 0.58098 0.55196 0.0
C205 C 0.64372 0.65071 0.69265 0.0
C206 C 0.69252 0.55897 0.7701 0.0
C207 C 0.62747 0.48548 0.64063 0.0
C208 C 0.59431 0.66229 0.5816 0.0
C209 C 0.68447 0.4768 0.74298 0.0
C210 C 0.39962 0.6805 0.02497 0.0
C211 C 0.58089 0.60578 0.41911 0.0
H212 H 0.27322 0.4853 0.39849 0.0
H213 H 0.39827 0.61953 0.6187 0.0
H214 H 0.28757 0.63094 0.45004 0.0
H215 H 0.4477 0.30218 0.73264 0.0
H216 H 0.73894 0.55307 0.84851 0.0
H217 H 0.61389 0.41884 0.62829 0.0
H218 H 0.56446 0.73619 0.51435 0.0
H219 H 0.72459 0.40743 0.79697 0.0
loop_
_geom_bond_atom_site_label_1
_geom_bond_atom_site_label_2
_geom_bond_distance
_geom_bond_site_symmetry_2
_ccdc_geom_bond_type
C0 N1 1.317 . S
C0 N2 1.348 1_556 S
C0 C3 1.485 . S
N1 C0 1.317 . S
N1 N5 1.370 1_556 S
N2 C0 1.348 1_554 S
N2 C4 1.346 . S
C3 C0 1.485 . S
C3 H7 0.960 . S
C3 H8 0.961 . S
C3 H9 0.960 . S
C4 N2 1.346 . S
C4 N5 1.307 . S
C4 C6 1.486 . S
N5 N1 1.370 1_554 S
N5 C4 1.307 . S
C6 C4 1.486 . S
C6 H10 0.960 . S
C6 H11 0.960 . S
C6 H12 0.959 . S
H7 C3 0.960 . S
H8 C3 0.961 . S
H9 C3 0.960 . S
H10 C6 0.960 . S
H11 C6 0.960 . S
H12 C6 0.959 . S
C13 N14 1.317 . S
C13 N15 1.348 . S
C13 C16 1.485 . S
N14 C13 1.317 . S
N14 N18 1.370 . S
N15 C13 1.348 . S
N15 C17 1.346 . S
C16 C13 1.485 . S
C16 H20 0.960 . S
C16 H21 0.961 . S
C16 H22 0.960 1_556 S
C17 N15 1.346 . S
C17 N18 1.307 . S
C17 C19 1.486 . S
N18 N14 1.370 . S
N18 C17 1.307 . S
C19 C17 1.486 . S
C19 H23 0.960 . S
C19 H24 0.960 . S
C19 H25 0.959 . S
H20 C16 0.960 . S
H21 C16 0.961 . S
H22 C16 0.960 1_554 S
H23 C19 0.960 . S
H24 C19 0.960 . S
H25 C19 0.959 . S
C26 N27 1.317 . S
C26 N28 1.348 . S
C26 C29 1.485 . S
N27 C26 1.317 . S
N27 N31 1.370 . S
N28 C26 1.348 . S
N28 C30 1.346 . S
C29 C26 1.485 . S
C29 H33 0.960 . S
C29 H34 0.961 . S
C29 H35 0.960 . S
C30 N28 1.346 . S
C30 N31 1.307 . S
C30 C32 1.486 1_554 S
N31 N27 1.370 . S
N31 C30 1.307 . S
C32 C30 1.486 1_556 S
C32 H36 0.960 . S
C32 H37 0.960 . S
C32 H38 0.959 . S
H33 C29 0.960 . S
H34 C29 0.961 . S
H35 C29 0.960 . S
H36 C32 0.960 . S
H37 C32 0.960 . S
H38 C32 0.959 . S
C39 N40 1.317 . S
C39 N41 1.348 . S
C39 C42 1.485 . S
N40 C39 1.317 . S
N40 N44 1.370 . S
N41 C39 1.348 . S
N41 C43 1.346 . S
C42 C39 1.485 . S
C42 H46 0.960 . S
C42 H47 0.961 . S
C42 H48 0.960 . S
C43 N41 1.346 . S
C43 N44 1.307 . S
C43 C45 1.486 . S
N44 N40 1.370 . S
N44 C43 1.307 . S
C45 C43 1.486 . S
C45 H49 0.960 . S
C45 H50 0.960 . S
C45 H51 0.959 . S
H46 C42 0.960 . S
H47 C42 0.961 . S
H48 C42 0.960 . S
H49 C45 0.960 . S
H50 C45 0.960 . S
H51 C45 0.959 . S
Tb52 N81 2.617 . S
Tb52 N87 2.572 . S
Tb52 O96 2.465 . S
Tb52 O97 2.387 . S
Tb52 O99 2.428 . S
Tb52 O100 2.308 1_565 S
Tb52 O104 2.349 1_465 S
Tb52 O107 2.393 1_455 S
Tb52 C116 2.802 . S
C53 N54 1.379 . S
C53 C56 1.416 . S
C53 C60 1.424 . S
N54 C53 1.379 . S
N54 C57 1.334 1_655 S
N54 Tb63 2.617 . S
C55 C57 1.390 1_655 S
C55 C58 1.339 . S
C55 H75 0.930 1_655 S
C56 C53 1.416 . S
C56 C58 1.416 . S
C56 C62 1.448 . S
C57 N54 1.334 1_455 S
C57 C55 1.390 1_455 S
C57 H68 0.930 . S
C58 C55 1.339 . S
C58 C56 1.416 . S
C58 H79 0.930 . S
C59 C60 1.413 . S
C59 C61 1.427 . S
C59 C65 1.416 . S
C60 C53 1.424 . S
C60 C59 1.413 . S
C60 N64 1.361 . S
C61 C59 1.427 . S
C61 C62 1.328 . S
C61 H76 0.929 . S
C62 C56 1.448 . S
C62 C61 1.328 . S
C62 H77 0.930 . S
Tb63 N54 2.617 . S
Tb63 N64 2.572 . S
Tb63 O98 2.349 1_645 S
Tb63 O101 2.393 1_655 S
Tb63 O102 2.465 . S
Tb63 O103 2.387 . S
Tb63 O105 2.428 . S
Tb63 O106 2.308 1_545 S
Tb63 C127 2.802 . S
N64 C60 1.361 . S
N64 Tb63 2.572 . S
N64 C66 1.340 . S
C65 C59 1.416 . S
C65 C67 1.332 . S
C65 H73 0.931 . S
C66 N64 1.340 . S
C66 C67 1.407 . S
C66 H72 0.930 . S
C67 C65 1.332 . S
C67 C66 1.407 . S
C67 H69 0.929 . S
H68 C57 0.930 . S
H69 C67 0.929 . S
H70 C85 0.930 1_655 S
H71 C92 0.929 . S
H72 C66 0.930 . S
H73 C65 0.931 . S
H74 C88 0.930 . S
H75 C55 0.930 1_455 S
H76 C61 0.929 . S
H77 C62 0.930 . S
H78 C83 0.930 1_655 S
H79 C58 0.930 . S
H80 C91 0.931 . S
N81 Tb52 2.617 . S
N81 C82 1.379 . S
N81 C85 1.334 . S
C82 N81 1.379 . S
C82 C84 1.416 . S
C82 C90 1.424 . S
C83 H78 0.930 1_455 S
C83 C85 1.390 . S
C83 C86 1.339 . S
C84 C82 1.416 . S
C84 C86 1.416 . S
C84 C117 1.448 . S
C85 H70 0.930 1_455 S
C85 N81 1.334 . S
C85 C83 1.390 . S
C86 C83 1.339 . S
C86 C84 1.416 . S
C86 H93 0.930 . S
N87 Tb52 2.572 . S
N87 C88 1.340 . S
N87 C90 1.361 . S
C88 H74 0.930 . S
C88 N87 1.340 . S
C88 C92 1.407 . S
C89 C90 1.413 . S
C89 C91 1.416 . S
C89 C118 1.427 . S
C90 C82 1.424 . S
C90 N87 1.361 . S
C90 C89 1.413 . S
C91 H80 0.931 . S
C91 C89 1.416 . S
C91 C92 1.332 . S
C92 H71 0.929 . S
C92 C88 1.407 . S
C92 C91 1.332 . S
H93 C86 0.930 . S
H94 C117 0.930 . S
H95 C118 0.929 . S
O96 Tb52 2.465 . S
O96 C116 1.264 . S
O97 Tb52 2.387 . S
O97 C108 1.264 . S
O98 Tb63 2.349 1_465 S
O98 C108 1.243 . S
O99 Tb52 2.428 . S
O99 C116 1.256 . S
O100 Tb52 2.308 1_545 S
O100 C115 1.266 . S
O101 Tb63 2.393 1_455 S
O101 C115 1.248 . S
O102 Tb63 2.465 . S
O102 C127 1.264 . S
O103 Tb63 2.387 . S
O103 C119 1.264 . S
O104 Tb52 2.349 1_645 S
O104 C119 1.243 . S
O105 Tb63 2.428 . S
O105 C127 1.256 . S
O106 Tb63 2.308 1_565 S
O106 C126 1.266 . S
O107 Tb52 2.393 1_655 S
O107 C126 1.248 . S
C108 O97 1.264 . S
C108 O98 1.243 . S
C109 C112 1.399 . S
C109 C114 1.383 . S
C109 C116 1.496 . S
C110 C111 1.399 . S
C110 C114 1.389 . S
C111 C110 1.399 . S
C111 C113 1.380 . S
C111 H128 0.929 . S
C112 C109 1.399 . S
C112 C113 1.392 . S
C112 H129 0.929 . S
C113 C111 1.380 . S
C113 C112 1.392 . S
C113 H130 0.929 . S
C114 C109 1.383 . S
C114 C110 1.389 . S
C114 H131 0.931 . S
C115 O100 1.266 . S
C115 O101 1.248 . S
C116 Tb52 2.802 . S
C116 O96 1.264 . S
C116 O99 1.256 . S
C116 C109 1.496 . S
C117 C84 1.448 . S
C117 H94 0.930 . S
C117 C118 1.328 . S
C118 C89 1.427 . S
C118 H95 0.929 . S
C118 C117 1.328 . S
C119 O103 1.264 . S
C119 O104 1.243 . S
C120 C123 1.399 . S
C120 C124 1.383 1_556 S
C120 C127 1.496 . S
C121 C122 1.399 . S
C121 C124 1.389 . S
C122 C121 1.399 . S
C122 C125 1.380 . S
C122 H132 0.929 . S
C123 C120 1.399 . S
C123 C125 1.392 1_556 S
C123 H133 0.929 . S
C124 C120 1.383 1_554 S
C124 C121 1.389 . S
C124 H134 0.931 . S
C125 C122 1.380 . S
C125 C123 1.392 1_554 S
C125 H135 0.929 . S
C126 O106 1.266 . S
C126 O107 1.248 . S
C127 Tb63 2.802 . S
C127 O102 1.264 . S
C127 O105 1.256 . S
C127 C120 1.496 . S
H128 C111 0.929 . S
H129 C112 0.929 . S
H130 C113 0.929 . S
H131 C114 0.931 . S
H132 C122 0.929 . S
H133 C123 0.929 . S
H134 C124 0.931 . S
H135 C125 0.929 . S
Tb136 N165 2.617 1_554 S
Tb136 N171 2.572 . S
Tb136 O180 2.465 1_554 S
Tb136 O181 2.387 . S
Tb136 O183 2.428 1_554 S
Tb136 O184 2.308 . S
Tb136 O188 2.349 1_554 S
Tb136 O191 2.393 1_554 S
Tb136 C200 2.802 1_554 S
C137 N138 1.379 . S
C137 C140 1.416 . S
C137 C144 1.424 . S
N138 C137 1.379 . S
N138 C141 1.334 . S
N138 Tb147 2.617 . S
C139 C141 1.390 . S
C139 C142 1.339 . S
C139 H159 0.930 . S
C140 C137 1.416 . S
C140 C142 1.416 . S
C140 C146 1.448 . S
C141 N138 1.334 . S
C141 C139 1.390 . S
C141 H152 0.930 . S
C142 C139 1.339 . S
C142 C140 1.416 . S
C142 H163 0.930 1_655 S
C143 C144 1.413 . S
C143 C145 1.427 . S
C143 C149 1.416 . S
C144 C137 1.424 . S
C144 C143 1.413 . S
C144 N148 1.361 . S
C145 C143 1.427 . S
C145 C146 1.328 . S
C145 H160 0.929 . S
C146 C140 1.448 . S
C146 C145 1.328 . S
C146 H161 0.930 1_655 S
Tb147 N138 2.617 . S
Tb147 N148 2.572 . S
Tb147 O182 2.349 . S
Tb147 O185 2.393 . S
Tb147 O186 2.465 . S
Tb147 O187 2.387 . S
Tb147 O189 2.428 . S
Tb147 O190 2.308 . S
Tb147 C211 2.802 . S
N148 C144 1.361 . S
N148 Tb147 2.572 . S
N148 C150 1.340 . S
C149 C143 1.416 . S
C149 C151 1.332 . S
C149 H157 0.931 1_554 S
C150 N148 1.340 . S
C150 C151 1.407 . S
C150 H156 0.930 . S
C151 C149 1.332 . S
C151 C150 1.407 . S
C151 H153 0.929 . S
H152 C141 0.930 . S
H153 C151 0.929 . S
H154 C169 0.930 . S
H155 C176 0.929 . S
H156 C150 0.930 . S
H157 C149 0.931 1_556 S
H158 C172 0.930 . S
H159 C139 0.930 . S
H160 C145 0.929 . S
H161 C146 0.930 1_455 S
H162 C167 0.930 . S
H163 C142 0.930 1_455 S
H164 C175 0.931 . S
N165 Tb136 2.617 1_556 S
N165 C166 1.379 1_556 S
N165 C169 1.334 . S
C166 N165 1.379 1_554 S
C166 C168 1.416 . S
C166 C174 1.424 . S
C167 H162 0.930 . S
C167 C169 1.390 . S
C167 C170 1.339 1_556 S
C168 C166 1.416 . S
C168 C170 1.416 . S
C168 C201 1.448 . S
C169 H154 0.930 . S
C169 N165 1.334 . S
C169 C167 1.390 . S
C170 C167 1.339 1_554 S
C170 C168 1.416 . S
C170 H177 0.930 1_455 S
N171 Tb136 2.572 . S
N171 C172 1.340 . S
N171 C174 1.361 . S
C172 H158 0.930 . S
C172 N171 1.340 . S
C172 C176 1.407 . S
C173 C174 1.413 . S
C173 C175 1.416 . S
C173 C202 1.427 . S
C174 C166 1.424 . S
C174 N171 1.361 . S
C174 C173 1.413 . S
C175 H164 0.931 . S
C175 C173 1.416 . S
C175 C176 1.332 . S
C176 H155 0.929 . S
C176 C172 1.407 . S
C176 C175 1.332 . S
H177 C170 0.930 1_655 S
H178 C201 0.930 1_655 S
H179 C202 0.929 . S
O180 Tb136 2.465 1_556 S
O180 C200 1.264 . S
O181 Tb136 2.387 . S
O181 C192 1.264 . S
O182 Tb147 2.349 . S
O182 C192 1.243 . S
O183 Tb136 2.428 1_556 S
O183 C200 1.256 . S
O184 Tb136 2.308 . S
O184 C199 1.266 . S
O185 Tb147 2.393 . S
O185 C199 1.248 . S
O186 Tb147 2.465 . S
O186 C211 1.264 . S
O187 Tb147 2.387 . S
O187 C203 1.264 1_554 S
O188 Tb136 2.349 1_556 S
O188 C203 1.243 . S
O189 Tb147 2.428 . S
O189 C211 1.256 . S
O190 Tb147 2.308 . S
O190 C210 1.266 . S
O191 Tb136 2.393 1_556 S
O191 C210 1.248 1_556 S
C192 O181 1.264 . S
C192 O182 1.243 . S
C193 C196 1.399 . S
C193 C198 1.383 . S
C193 C200 1.496 . S
C194 C195 1.399 . S
C194 C198 1.389 . S
C195 C194 1.399 . S
C195 C197 1.380 . S
C195 H212 0.929 . S
C196 C193 1.399 . S
C196 C197 1.392 . S
C196 H213 0.929 . S
C197 C195 1.380 . S
C197 C196 1.392 . S
C197 H214 0.929 . S
C198 C193 1.383 . S
C198 C194 1.389 . S
C198 H215 0.931 . S
C199 O184 1.266 . S
C199 O185 1.248 . S
C200 Tb136 2.802 1_556 S
C200 O180 1.264 . S
C200 O183 1.256 . S
C200 C193 1.496 . S
C201 C168 1.448 . S
C201 H178 0.930 1_455 S
C201 C202 1.328 . S
C202 C173 1.427 . S
C202 H179 0.929 . S
C202 C201 1.328 . S
C203 O187 1.264 1_556 S
C203 O188 1.243 . S
C204 C207 1.399 . S
C204 C208 1.383 . S
C204 C211 1.496 . S
C205 C206 1.399 . S
C205 C208 1.389 . S
C206 C205 1.399 . S
C206 C209 1.380 . S
C206 H216 0.929 . S
C207 C204 1.399 . S
C207 C209 1.392 . S
C207 H217 0.929 . S
C208 C204 1.383 . S
C208 C205 1.389 . S
C208 H218 0.931 . S
C209 C206 1.380 . S
C209 C207 1.392 . S
C209 H219 0.929 . S
C210 O190 1.266 . S
C210 O191 1.248 1_554 S
C211 Tb147 2.802 . S
C211 O186 1.264 . S
C211 O189 1.256 . S
C211 C204 1.496 . S
H212 C195 0.929 . S
H213 C196 0.929 . S
H214 C197 0.929 . S
H215 C198 0.931 . S
H216 C206 0.929 . S
H217 C207 0.929 . S
H218 C208 0.931 . S
H219 C209 0.929 . S
C115 N41 1.761 . S
N2 C210 1.674 . S
N15 C126 1.744 . S
N28 C199 1.655 . S
C110 N5 1.364 . S
C203 N14 1.799 . S
N27 C119 1.733 . S
N44 C194 1.574 . S
C205 N18 1.566 . S
C121 N31 1.360 . S
C192 N40 1.820 . S
N1 C108 1.804 . S
