# Generated by pormake.
# Topology rtl, (3,6)-cn, num edge types: 1
# Building blocks:
#     Node 0, Type 0, BuildingBlock: KAKCAD_clean_linker_0, # of connection points: 3
#     Node 1, Type 0, BuildingBlock: KAKCAD_clean_linker_0, # of connection points: 3
#     Node 2, Type 0, BuildingBlock: KAKCAD_clean_linker_0, # of connection points: 3
#     Node 3, Type 0, BuildingBlock: KAKCAD_clean_linker_0, # of connection points: 3
#     Node 4, Type 1, BuildingBlock: CIFDUS_clean_sbu_1, # of connection points: 6
#     Node 5, Type 1, BuildingBlock: CIFDUS_clean_sbu_1, # of connection points: 6
#     Edge 6, Type (0, 1), BuildingBlock: EYOCIG_clean_linker_4, # of connection points: 2
#     Edge 7, Type (0, 1), BuildingBlock: EYOCIG_clean_linker_4, # of connection points: 2
#     Edge 8, Type (0, 1), BuildingBlock: EYOCIG_clean_linker_4, # of connection points: 2
#     Edge 9, Type (0, 1), BuildingBlock: EYOCIG_clean_linker_4, # of connection points: 2
#     Edge 10, Type (0, 1), BuildingBlock: EYOCIG_clean_linker_4, # of connection points: 2
#     Edge 11, Type (0, 1), BuildingBlock: EYOCIG_clean_linker_4, # of connection points: 2
#     Edge 12, Type (0, 1), BuildingBlock: EYOCIG_clean_linker_4, # of connection points: 2
#     Edge 13, Type (0, 1), BuildingBlock: EYOCIG_clean_linker_4, # of connection points: 2
#     Edge 14, Type (0, 1), BuildingBlock: EYOCIG_clean_linker_4, # of connection points: 2
#     Edge 15, Type (0, 1), BuildingBlock: EYOCIG_clean_linker_4, # of connection points: 2
#     Edge 16, Type (0, 1), BuildingBlock: EYOCIG_clean_linker_4, # of connection points: 2
#     Edge 17, Type (0, 1), BuildingBlock: EYOCIG_clean_linker_4, # of connection points: 2
# Relax obj value: 0.028
# Max RMSD: 0.063
# Mean RMSD: 0.048
data_MOF--net-rtl--node1-CIFDUS_clean_sbu_1--node2-KAKCAD_clean_linker_0--edge1-EYOCIG_clean_linker_4
_symmetry_space_group_name_H-M    P1
_symmetry_Int_Tables_number       1
_symmetry_cell_setting            triclinic
loop_
_symmetry_equiv_pos_as_xyz
'x, y, z'
_cell_length_a     30.653354
_cell_length_b     34.836016
_cell_length_c     24.375919
_cell_angle_alpha  89.766897
_cell_angle_beta   97.581196
_cell_angle_gamma 89.980546
loop_
_atom_site_label
_atom_site_type_symbol
_atom_site_fract_x
_atom_site_fract_y
_atom_site_fract_z
_atom_type_partial_charge
C0 C 0.22667 0.92091 0.89612 0.0
C1 C 0.21856 0.96 0.88691 0.0
C2 C 0.24708 0.90788 0.94724 0.0
C3 C 0.25998 0.93379 0.9904 0.0
C4 C 0.25285 0.97335 0.98068 0.0
C5 C 0.23232 0.98644 0.92904 0.0
C6 C 0.27941 0.91882 0.0455 0.0
C7 C 0.31037 0.88895 0.04886 0.0
C8 C 0.32539 0.87084 0.09955 0.0
C9 C 0.31025 0.88484 0.14799 0.0
C10 C 0.28064 0.916 0.14605 0.0
C11 C 0.26495 0.9323 0.09418 0.0
C12 C 0.26448 0.93063 0.19752 0.0
C13 C 0.2575 0.90552 0.24106 0.0
C14 C 0.2539 0.96978 0.20252 0.0
C15 C 0.23429 0.98285 0.24773 0.0
C16 C 0.22545 0.9572 0.28922 0.0
C17 C 0.35553 0.83668 0.10132 0.0
C18 C 0.35495 0.81227 0.05503 0.0
C19 C 0.38422 0.82722 0.14968 0.0
C20 C 0.40948 0.79361 0.15258 0.0
C21 C 0.40725 0.76912 0.10701 0.0
C22 C 0.38093 0.77917 0.05774 0.0
C23 C 0.23835 0.91876 0.28651 0.0
H24 H 0.21612 0.90018 0.86406 0.0
H25 H 0.25151 0.87726 0.95346 0.0
H26 H 0.26286 0.994 0.01302 0.0
H27 H 0.22635 0.01688 0.92254 0.0
H28 H 0.32268 0.88002 0.01132 0.0
H29 H 0.24004 0.95454 0.09121 0.0
H30 H 0.3212 0.87139 0.18739 0.0
H31 H 0.2648 0.87521 0.23908 0.0
H32 H 0.25994 0.99032 0.17094 0.0
H33 H 0.22479 0.01275 0.24931 0.0
H34 H 0.33318 0.81752 0.01711 0.0
H35 H 0.38712 0.84545 0.18576 0.0
H36 H 0.23187 0.89857 0.31838 0.0
H37 H 0.37899 0.76056 0.02196 0.0
H38 H 0.42993 0.7863 0.1909 0.0
C39 C 0.70323 0.63975 0.77448 0.0
C40 C 0.69748 0.60015 0.78078 0.0
C41 C 0.72126 0.65394 0.72866 0.0
C42 C 0.73353 0.62861 0.68855 0.0
C43 C 0.72855 0.58887 0.69599 0.0
C44 C 0.71062 0.57477 0.74178 0.0
C45 C 0.74954 0.64346 0.63773 0.0
C46 C 0.7808 0.67305 0.64046 0.0
C47 C 0.79499 0.68823 0.59205 0.0
C48 C 0.77809 0.67186 0.54084 0.0
C49 C 0.74729 0.64169 0.53745 0.0
C50 C 0.73282 0.62818 0.58617 0.0
C51 C 0.72845 0.62567 0.48288 0.0
C52 C 0.72103 0.64984 0.43622 0.0
C53 C 0.716 0.58669 0.47718 0.0
C54 C 0.69497 0.57292 0.42661 0.0
C55 C 0.68685 0.59789 0.38125 0.0
C56 C 0.82599 0.72183 0.59475 0.0
C57 C 0.82803 0.74822 0.6388 0.0
C58 C 0.85265 0.72896 0.55264 0.0
C59 C 0.87871 0.76208 0.55357 0.0
C60 C 0.87953 0.78821 0.59724 0.0
C61 C 0.85488 0.78065 0.64026 0.0
C62 C 0.70085 0.63592 0.38588 0.0
H63 H 0.69288 0.65969 0.80424 0.0
H64 H 0.7243 0.6847 0.7237 0.0
H65 H 0.73817 0.5687 0.66607 0.0
H66 H 0.70625 0.54409 0.74616 0.0
H67 H 0.79443 0.68356 0.68078 0.0
H68 H 0.7074 0.60642 0.58403 0.0
H69 H 0.78839 0.68285 0.50314 0.0
H70 H 0.72912 0.68005 0.43872 0.0
H71 H 0.72197 0.56696 0.51181 0.0
H72 H 0.68435 0.54324 0.42333 0.0
H73 H 0.80781 0.74497 0.67162 0.0
H74 H 0.85361 0.70924 0.51868 0.0
H75 H 0.69467 0.65538 0.35089 0.0
H76 H 0.8552 0.8006 0.6743 0.0
H77 H 0.89775 0.76744 0.51989 0.0
C78 C 0.79796 0.1037 0.20631 0.0
C79 C 0.84367 0.09912 0.21676 0.0
C80 C 0.77842 0.11646 0.15436 0.0
C81 C 0.80449 0.12441 0.11238 0.0
C82 C 0.85014 0.1177 0.12254 0.0
C83 C 0.86954 0.10503 0.17436 0.0
C84 C 0.78465 0.14024 0.05828 0.0
C85 C 0.75441 0.17076 0.05514 0.0
C86 C 0.73688 0.18684 1.0036 0.0
C87 C 0.7515 0.17192 0.95526 0.0
C88 C 0.783 0.14229 0.95814 0.0
C89 C 0.79809 0.12598 0.00973 0.0
C90 C 0.8014 0.12868 0.90798 0.0
C91 C 0.77507 0.12651 0.85617 0.0
C92 C 0.84584 0.11716 0.91192 0.0
C93 C 0.863 0.10283 0.8659 0.0
C94 C 0.83639 0.10032 0.81488 0.0
C95 C 0.70553 0.22037 1.00062 0.0
C96 C 0.67931 0.22749 0.04312 0.0
C97 C 0.70268 0.24671 0.95607 0.0
C98 C 0.67602 0.2793 0.9549 0.0
C99 C 0.65222 0.28708 0.99859 0.0
C100 C 0.65337 0.26075 0.04242 0.0
C101 C 0.79255 0.11256 0.80991 0.0
H102 H 0.77762 0.09878 0.23879 0.0
H103 H 0.74311 0.12063 0.14723 0.0
H104 H 0.87113 0.12363 0.09107 0.0
H105 H 0.90495 0.10135 0.18195 0.0
H106 H 0.74613 0.18274 0.09332 0.0
H107 H 0.82057 0.10182 0.01235 0.0
H108 H 0.73903 0.18355 0.91515 0.0
H109 H 0.74075 0.13478 0.85145 0.0
H110 H 0.86764 0.11937 0.95053 0.0
H111 H 0.89715 0.09382 0.87018 0.0
H112 H 0.67891 0.20775 0.07741 0.0
H113 H 0.72232 0.24351 0.92272 0.0
H114 H 0.77175 0.11101 0.77044 0.0
H115 H 0.63488 0.26617 0.07654 0.0
H116 H 0.67537 0.2993 0.92063 0.0
C117 C 0.2623 0.44839 0.30247 0.0
C118 C 0.30778 0.45509 0.30619 0.0
C119 C 0.24377 0.43566 0.34911 0.0
C120 C 0.27051 0.42983 0.40005 0.0
C121 C 0.31598 0.43675 0.40313 0.0
C122 C 0.33433 0.44927 0.35677 0.0
C123 C 0.25175 0.41724 0.45059 0.0
C124 C 0.22201 0.38641 0.44919 0.0
C125 C 0.20647 0.37308 0.498 0.0
C126 C 0.22222 0.3912 0.54854 0.0
C127 C 0.25278 0.42156 0.55092 0.0
C128 C 0.26614 0.4349 0.50136 0.0
C129 C 0.27315 0.43757 0.60528 0.0
C130 C 0.24949 0.4394 0.65105 0.0
C131 C 0.31767 0.44912 0.61278 0.0
C132 C 0.33835 0.46021 0.66483 0.0
C133 C 0.31531 0.4594 0.71068 0.0
C134 C 0.17608 0.339 0.4966 0.0
C135 C 0.14791 0.32939 0.44794 0.0
C136 C 0.17618 0.31459 0.5431 0.0
C137 C 0.15095 0.28103 0.54002 0.0
C138 C 0.12574 0.27057 0.49026 0.0
C139 C 0.12338 0.29535 0.4447 0.0
C140 C 0.27048 0.45008 0.70334 0.0
H141 H 0.24124 0.45272 0.26362 0.0
H142 H 0.2086 0.43083 0.34555 0.0
H143 H 0.33761 0.43204 0.44144 0.0
H144 H 0.36953 0.45409 0.36038 0.0
H145 H 0.21272 0.37191 0.41023 0.0
H146 H 0.28825 0.45919 0.50213 0.0
H147 H 0.21141 0.38129 0.58654 0.0
H148 H 0.21498 0.43184 0.64692 0.0
H149 H 0.33743 0.44783 0.57918 0.0
H150 H 0.37298 0.46762 0.66973 0.0
H151 H 0.14518 0.34771 0.41173 0.0
H152 H 0.19725 0.31997 0.58143 0.0
H153 H 0.25205 0.44972 0.73834 0.0
H154 H 0.10361 0.28787 0.40606 0.0
H155 H 0.15281 0.26231 0.57589 0.0
O156 O 0.98368 0.04982 0.48621 0.0
Mn157 Mn 0.02471 0.02314 0.55095 0.0
O158 O 0.96091 1.0043 0.42381 0.0
Mn159 Mn 0.99469 0.96582 0.45901 0.0
O160 O 0.06696 0.99749 0.61756 0.0
O161 O 0.05094 0.07608 0.56929 0.0
Mn162 Mn 0.05444 0.08233 0.6415 0.0
O163 O 0.97584 0.03215 0.60223 0.0
O164 O 0.09228 0.046 0.67422 0.0
O165 O 0.0737 0.0136 0.49872 0.0
O166 O 0.05163 0.96386 0.44336 0.0
O167 O 0.07577 0.12695 0.61685 0.0
O168 O 0.99823 0.0805 0.66006 0.0
C169 C 0.97576 0.93781 0.52816 0.0
C170 C 0.96128 0.03859 0.44092 0.0
C171 C 0.09159 0.01098 0.66039 0.0
C172 C 0.06656 0.11082 0.56899 0.0
C173 C 0.96982 0.05594 0.64062 0.0
C174 C 0.08007 0.98874 0.46149 0.0
O175 O 0.99541 0.97113 0.53147 0.0
O176 O 0.96796 0.92274 0.47939 0.0
O177 O 0.54802 0.54991 0.11067 0.0
Mn178 Mn 0.50812 0.52293 0.04568 0.0
O179 O 0.57109 0.50422 0.17327 0.0
Mn180 Mn 0.53782 0.46566 0.13834 0.0
O181 O 0.46678 0.49684 0.97925 0.0
O182 O 0.48166 0.57564 0.02612 0.0
Mn183 Mn 0.47728 0.58164 0.95375 0.0
O184 O 0.55724 0.53245 0.99484 0.0
O185 O 0.43948 0.54489 0.92239 0.0
O186 O 0.45856 0.51307 0.09715 0.0
O187 O 0.48072 0.46362 0.15363 0.0
O188 O 0.45634 0.62643 0.97841 0.0
O189 O 0.53343 0.57966 0.93485 0.0
C190 C 0.55754 0.43764 0.06993 0.0
C191 C 0.57012 0.53863 0.15625 0.0
C192 C 0.44137 0.50983 0.93662 0.0
C193 C 0.4664 0.61045 0.02643 0.0
C194 C 0.56251 0.55582 0.95534 0.0
C195 C 0.45209 0.48825 0.13466 0.0
O196 O 0.53772 0.47095 0.06593 0.0
O197 O 0.56496 0.42261 0.11893 0.0
C198 C 0.09091 0.20089 0.4863 0.0
C199 C 0.10575 0.23297 0.48507 0.0
C200 C 0.07793 0.16294 0.49731 0.0
C201 C 0.07006 0.13371 0.52084 0.0
C202 C 0.44447 0.70048 0.10995 0.0
C203 C 0.42864 0.73212 0.11177 0.0
C204 C 0.45756 0.66277 0.09832 0.0
C205 C 0.46448 0.63357 0.07449 0.0
C206 C 0.92288 0.85412 0.59806 0.0
C207 C 0.90333 0.82396 0.59704 0.0
C208 C 0.94411 0.8897 0.59221 0.0
C209 C 0.96117 0.91702 0.57314 0.0
C210 C 0.61026 0.35376 0.99938 0.0
C211 C 0.62923 0.3233 0.99951 0.0
C212 C 0.58943 0.38946 1.00618 0.0
C213 C 0.57241 0.41669 0.02538 0.0
C214 C 0.178 0.97804 0.36777 0.0
C215 C 0.19957 0.96923 0.33162 0.0
C216 C 0.14842 0.98586 0.40644 0.0
C217 C 0.1192 0.99007 0.43472 0.0
C218 C 0.65738 0.57326 0.86237 0.0
C219 C 0.67565 0.58558 0.82521 0.0
C220 C 0.63069 0.56121 0.902 0.0
C221 C 0.60227 0.55517 0.93058 0.0
C222 C 0.88516 0.08615 0.31674 0.0
C223 C 0.86478 0.092 0.27191 0.0
C224 C 0.91165 0.07811 0.36702 0.0
C225 C 0.9355 0.06508 0.40564 0.0
C226 C 0.36078 0.46893 0.81004 0.0
C227 C 0.33889 0.46444 0.76553 0.0
C228 C 0.38895 0.47461 0.8603 0.0
C229 C 0.41431 0.48495 0.89965 0.0
C230 C 0.64128 0.58179 0.28541 0.0
C231 C 0.6617 0.58638 0.33038 0.0
C232 C 0.61629 0.57666 0.2335 0.0
C233 C 0.59397 0.56519 0.19279 0.0
C234 C 0.87347 0.07295 0.73146 0.0
C235 C 0.85467 0.08562 0.76781 0.0
C236 C 0.90096 0.06094 0.69283 0.0
C237 C 0.92989 0.05507 0.66503 0.0
C238 C 0.35078 0.47582 0.22331 0.0
C239 C 0.32839 0.4665 0.25851 0.0
C240 C 0.38186 0.48424 0.18659 0.0
C241 C 0.41208 0.48882 0.15986 0.0
C242 C 0.1721 0.97542 0.79014 0.0
C243 C 0.19342 0.97141 0.83516 0.0
C244 C 0.14453 0.97863 0.73889 0.0
C245 C 0.11919 0.98692 0.69829 0.0
loop_
_geom_bond_atom_site_label_1
_geom_bond_atom_site_label_2
_geom_bond_distance
_geom_bond_site_symmetry_2
_ccdc_geom_bond_type
C0 C1 1.386 . S
C0 C2 1.397 . S
C0 H24 0.931 . S
C1 C0 1.386 . S
C1 C5 1.397 . S
C2 C0 1.397 . S
C2 C3 1.384 . S
C2 H25 0.930 . S
C3 C2 1.384 . S
C3 C4 1.377 . S
C3 C6 1.481 1_556 S
C4 C3 1.377 . S
C4 C5 1.389 . S
C4 H26 0.929 1_556 S
C5 C1 1.397 . S
C5 C4 1.389 . S
C5 H27 0.931 1_565 S
C6 C3 1.481 1_554 S
C6 C7 1.387 . S
C6 C11 1.390 . S
C7 C6 1.387 . S
C7 C8 1.401 . S
C7 H28 0.930 . S
C8 C7 1.401 . S
C8 C9 1.376 . S
C8 C17 1.511 . S
C9 C8 1.376 . S
C9 C10 1.392 . S
C9 H30 0.931 . S
C10 C9 1.392 . S
C10 C11 1.361 . S
C10 C12 1.500 . S
C11 C6 1.390 . S
C11 C10 1.361 . S
C11 H29 0.931 . S
C12 C10 1.500 . S
C12 C13 1.371 . S
C12 C14 1.365 . S
C13 C12 1.371 . S
C13 C23 1.386 . S
C13 H31 0.931 . S
C14 C12 1.365 . S
C14 C15 1.409 . S
C14 H32 0.929 . S
C15 C14 1.409 . S
C15 C16 1.380 . S
C15 H33 0.930 . S
C16 C15 1.380 . S
C16 C23 1.357 . S
C17 C8 1.511 . S
C17 C18 1.341 . S
C17 C19 1.371 . S
C18 C17 1.341 . S
C18 C22 1.394 . S
C18 H34 0.930 . S
C19 C17 1.371 . S
C19 C20 1.392 . S
C19 H35 0.931 . S
C20 C19 1.392 . S
C20 C21 1.331 . S
C20 H38 0.932 . S
C21 C20 1.331 . S
C21 C22 1.336 . S
C22 C18 1.394 . S
C22 C21 1.336 . S
C22 H37 0.929 . S
C23 C13 1.386 . S
C23 C16 1.357 . S
C23 H36 0.928 . S
H24 C0 0.931 . S
H25 C2 0.930 . S
H26 C4 0.929 1_554 S
H27 C5 0.931 1_545 S
H28 C7 0.930 . S
H29 C11 0.931 . S
H30 C9 0.931 . S
H31 C13 0.931 . S
H32 C14 0.929 . S
H33 C15 0.930 . S
H34 C18 0.930 . S
H35 C19 0.931 . S
H36 C23 0.928 . S
H37 C22 0.929 . S
H38 C20 0.932 . S
C39 C40 1.386 . S
C39 C41 1.397 . S
C39 H63 0.931 . S
C40 C39 1.386 . S
C40 C44 1.397 . S
C41 C39 1.397 . S
C41 C42 1.384 . S
C41 H64 0.930 . S
C42 C41 1.384 . S
C42 C43 1.377 . S
C42 C45 1.481 . S
C43 C42 1.377 . S
C43 C44 1.389 . S
C43 H65 0.929 . S
C44 C40 1.397 . S
C44 C43 1.389 . S
C44 H66 0.931 . S
C45 C42 1.481 . S
C45 C46 1.387 . S
C45 C50 1.390 . S
C46 C45 1.387 . S
C46 C47 1.401 . S
C46 H67 0.930 . S
C47 C46 1.401 . S
C47 C48 1.376 . S
C47 C56 1.511 . S
C48 C47 1.376 . S
C48 C49 1.392 . S
C48 H69 0.931 . S
C49 C48 1.392 . S
C49 C50 1.361 . S
C49 C51 1.500 . S
C50 C45 1.390 . S
C50 C49 1.361 . S
C50 H68 0.931 . S
C51 C49 1.500 . S
C51 C52 1.371 . S
C51 C53 1.365 . S
C52 C51 1.371 . S
C52 C62 1.386 . S
C52 H70 0.931 . S
C53 C51 1.365 . S
C53 C54 1.409 . S
C53 H71 0.929 . S
C54 C53 1.409 . S
C54 C55 1.380 . S
C54 H72 0.930 . S
C55 C54 1.380 . S
C55 C62 1.357 . S
C56 C47 1.511 . S
C56 C57 1.341 . S
C56 C58 1.371 . S
C57 C56 1.341 . S
C57 C61 1.394 . S
C57 H73 0.930 . S
C58 C56 1.371 . S
C58 C59 1.392 . S
C58 H74 0.931 . S
C59 C58 1.392 . S
C59 C60 1.331 . S
C59 H77 0.932 . S
C60 C59 1.331 . S
C60 C61 1.336 . S
C61 C57 1.394 . S
C61 C60 1.336 . S
C61 H76 0.929 . S
C62 C52 1.386 . S
C62 C55 1.357 . S
C62 H75 0.928 . S
H63 C39 0.931 . S
H64 C41 0.930 . S
H65 C43 0.929 . S
H66 C44 0.931 . S
H67 C46 0.930 . S
H68 C50 0.931 . S
H69 C48 0.931 . S
H70 C52 0.931 . S
H71 C53 0.929 . S
H72 C54 0.930 . S
H73 C57 0.930 . S
H74 C58 0.931 . S
H75 C62 0.928 . S
H76 C61 0.929 . S
H77 C59 0.932 . S
C78 C79 1.386 . S
C78 C80 1.397 . S
C78 H102 0.931 . S
C79 C78 1.386 . S
C79 C83 1.397 . S
C80 C78 1.397 . S
C80 C81 1.384 . S
C80 H103 0.930 . S
C81 C80 1.384 . S
C81 C82 1.377 . S
C81 C84 1.481 . S
C82 C81 1.377 . S
C82 C83 1.389 . S
C82 H104 0.929 . S
C83 C79 1.397 . S
C83 C82 1.389 . S
C83 H105 0.931 . S
C84 C81 1.481 . S
C84 C85 1.387 . S
C84 C89 1.390 . S
C85 C84 1.387 . S
C85 C86 1.401 1_554 S
C85 H106 0.930 . S
C86 C85 1.401 1_556 S
C86 C87 1.376 . S
C86 C95 1.511 . S
C87 C86 1.376 . S
C87 C88 1.392 . S
C87 H108 0.931 . S
C88 C87 1.392 . S
C88 C89 1.361 1_556 S
C88 C90 1.500 . S
C89 C84 1.390 . S
C89 C88 1.361 1_554 S
C89 H107 0.931 . S
C90 C88 1.500 . S
C90 C91 1.371 . S
C90 C92 1.365 . S
C91 C90 1.371 . S
C91 C101 1.386 . S
C91 H109 0.931 . S
C92 C90 1.365 . S
C92 C93 1.409 . S
C92 H110 0.929 . S
C93 C92 1.409 . S
C93 C94 1.380 . S
C93 H111 0.930 . S
C94 C93 1.380 . S
C94 C101 1.357 . S
C95 C86 1.511 . S
C95 C96 1.341 1_556 S
C95 C97 1.371 . S
C96 C95 1.341 1_554 S
C96 C100 1.394 . S
C96 H112 0.930 . S
C97 C95 1.371 . S
C97 C98 1.392 . S
C97 H113 0.931 . S
C98 C97 1.392 . S
C98 C99 1.331 . S
C98 H116 0.932 . S
C99 C98 1.331 . S
C99 C100 1.336 1_556 S
C100 C96 1.394 . S
C100 C99 1.336 1_554 S
C100 H115 0.929 . S
C101 C91 1.386 . S
C101 C94 1.357 . S
C101 H114 0.928 . S
H102 C78 0.931 . S
H103 C80 0.930 . S
H104 C82 0.929 . S
H105 C83 0.931 . S
H106 C85 0.930 . S
H107 C89 0.931 . S
H108 C87 0.931 . S
H109 C91 0.931 . S
H110 C92 0.929 . S
H111 C93 0.930 . S
H112 C96 0.930 . S
H113 C97 0.931 . S
H114 C101 0.928 . S
H115 C100 0.929 . S
H116 C98 0.932 . S
C117 C118 1.386 . S
C117 C119 1.397 . S
C117 H141 0.931 . S
C118 C117 1.386 . S
C118 C122 1.397 . S
C119 C117 1.397 . S
C119 C120 1.384 . S
C119 H142 0.930 . S
C120 C119 1.384 . S
C120 C121 1.377 . S
C120 C123 1.481 . S
C121 C120 1.377 . S
C121 C122 1.389 . S
C121 H143 0.929 . S
C122 C118 1.397 . S
C122 C121 1.389 . S
C122 H144 0.931 . S
C123 C120 1.481 . S
C123 C124 1.387 . S
C123 C128 1.390 . S
C124 C123 1.387 . S
C124 C125 1.401 . S
C124 H145 0.930 . S
C125 C124 1.401 . S
C125 C126 1.376 . S
C125 C134 1.511 . S
C126 C125 1.376 . S
C126 C127 1.392 . S
C126 H147 0.931 . S
C127 C126 1.392 . S
C127 C128 1.361 . S
C127 C129 1.500 . S
C128 C123 1.390 . S
C128 C127 1.361 . S
C128 H146 0.931 . S
C129 C127 1.500 . S
C129 C130 1.371 . S
C129 C131 1.365 . S
C130 C129 1.371 . S
C130 C140 1.386 . S
C130 H148 0.931 . S
C131 C129 1.365 . S
C131 C132 1.409 . S
C131 H149 0.929 . S
C132 C131 1.409 . S
C132 C133 1.380 . S
C132 H150 0.930 . S
C133 C132 1.380 . S
C133 C140 1.357 . S
C134 C125 1.511 . S
C134 C135 1.341 . S
C134 C136 1.371 . S
C135 C134 1.341 . S
C135 C139 1.394 . S
C135 H151 0.930 . S
C136 C134 1.371 . S
C136 C137 1.392 . S
C136 H152 0.931 . S
C137 C136 1.392 . S
C137 C138 1.331 . S
C137 H155 0.932 . S
C138 C137 1.331 . S
C138 C139 1.336 . S
C139 C135 1.394 . S
C139 C138 1.336 . S
C139 H154 0.929 . S
C140 C130 1.386 . S
C140 C133 1.357 . S
C140 H153 0.928 . S
H141 C117 0.931 . S
H142 C119 0.930 . S
H143 C121 0.929 . S
H144 C122 0.931 . S
H145 C124 0.930 . S
H146 C128 0.931 . S
H147 C126 0.931 . S
H148 C130 0.931 . S
H149 C131 0.929 . S
H150 C132 0.930 . S
H151 C135 0.930 . S
H152 C136 0.931 . S
H153 C140 0.928 . S
H154 C139 0.929 . S
H155 C137 0.932 . S
O156 Mn157 2.163 1_655 S
O156 C170 1.244 . S
Mn157 O156 2.163 1_455 S
Mn157 O160 2.160 1_545 S
Mn157 O161 2.221 . S
Mn157 O163 2.163 1_455 S
Mn157 O165 2.160 1_545 S
Mn157 O175 2.221 1_445 S
O158 Mn159 2.087 1_545 S
O158 C170 1.256 . S
Mn159 O158 2.087 1_565 S
Mn159 O166 2.089 1_655 S
Mn159 O175 2.290 . S
Mn159 O176 2.251 . S
O160 Mn157 2.160 1_565 S
O160 C171 1.239 . S
O161 Mn157 2.221 . S
O161 Mn162 2.290 . S
O161 C172 1.278 . S
Mn162 O161 2.290 . S
Mn162 O164 2.089 . S
Mn162 O167 2.251 . S
Mn162 O168 2.087 1_455 S
O163 Mn157 2.163 1_655 S
O163 C173 1.244 . S
O164 Mn162 2.089 . S
O164 C171 1.256 1_545 S
O165 Mn157 2.160 1_565 S
O165 C174 1.239 . S
O166 Mn159 2.089 1_455 S
O166 C174 1.256 . S
O167 Mn162 2.251 . S
O167 C172 1.241 . S
O168 Mn162 2.087 1_655 S
O168 C173 1.256 . S
C169 O175 1.278 . S
C169 O176 1.241 . S
C170 O156 1.244 . S
C170 O158 1.256 . S
C171 O160 1.239 . S
C171 O164 1.256 1_565 S
C172 O161 1.278 . S
C172 O167 1.241 . S
C173 O163 1.244 . S
C173 O168 1.256 . S
C174 O165 1.239 . S
C174 O166 1.256 . S
O175 Mn157 2.221 1_665 S
O175 Mn159 2.290 . S
O175 C169 1.278 . S
O176 Mn159 2.251 . S
O176 C169 1.241 . S
O177 Mn178 2.163 . S
O177 C191 1.244 . S
Mn178 O177 2.163 . S
Mn178 O181 2.160 1_554 S
Mn178 O182 2.221 . S
Mn178 O184 2.163 1_554 S
Mn178 O186 2.160 . S
Mn178 O196 2.221 . S
O179 Mn180 2.087 . S
O179 C191 1.256 . S
Mn180 O179 2.087 . S
Mn180 O187 2.089 . S
Mn180 O196 2.290 . S
Mn180 O197 2.251 . S
O181 Mn178 2.160 1_556 S
O181 C192 1.239 . S
O182 Mn178 2.221 . S
O182 Mn183 2.290 1_554 S
O182 C193 1.278 . S
Mn183 O182 2.290 1_556 S
Mn183 O185 2.089 . S
Mn183 O188 2.251 . S
Mn183 O189 2.087 . S
O184 Mn178 2.163 1_556 S
O184 C194 1.244 . S
O185 Mn183 2.089 . S
O185 C192 1.256 . S
O186 Mn178 2.160 . S
O186 C195 1.239 . S
O187 Mn180 2.089 . S
O187 C195 1.256 . S
O188 Mn183 2.251 . S
O188 C193 1.241 1_556 S
O189 Mn183 2.087 . S
O189 C194 1.256 . S
C190 O196 1.278 . S
C190 O197 1.241 . S
C191 O177 1.244 . S
C191 O179 1.256 . S
C192 O181 1.239 . S
C192 O185 1.256 . S
C193 O182 1.278 . S
C193 O188 1.241 1_554 S
C194 O184 1.244 . S
C194 O189 1.256 . S
C195 O186 1.239 . S
C195 O187 1.256 . S
O196 Mn178 2.221 . S
O196 Mn180 2.290 . S
O196 C190 1.278 . S
O197 Mn180 2.251 . S
O197 C190 1.241 . S
C198 C199 1.170 . S
C198 C200 1.380 . S
C199 C198 1.170 . S
C200 C198 1.380 . S
C200 C201 1.170 . S
C201 C200 1.170 . S
C202 C203 1.170 . S
C202 C204 1.380 . S
C203 C202 1.170 . S
C204 C202 1.380 . S
C204 C205 1.170 . S
C205 C204 1.170 . S
C206 C207 1.170 . S
C206 C208 1.380 . S
C207 C206 1.170 . S
C208 C206 1.380 . S
C208 C209 1.170 . S
C209 C208 1.170 . S
C210 C211 1.170 1_554 S
C210 C212 1.380 . S
C211 C210 1.170 1_556 S
C212 C210 1.380 . S
C212 C213 1.170 . S
C213 C212 1.170 . S
C214 C215 1.170 . S
C214 C216 1.380 . S
C215 C214 1.170 . S
C216 C214 1.380 . S
C216 C217 1.170 . S
C217 C216 1.170 . S
C218 C219 1.170 . S
C218 C220 1.380 . S
C219 C218 1.170 . S
C220 C218 1.380 . S
C220 C221 1.170 . S
C221 C220 1.170 . S
C222 C223 1.170 . S
C222 C224 1.380 . S
C223 C222 1.170 . S
C224 C222 1.380 . S
C224 C225 1.170 . S
C225 C224 1.170 . S
C226 C227 1.170 . S
C226 C228 1.380 . S
C227 C226 1.170 . S
C228 C226 1.380 . S
C228 C229 1.170 . S
C229 C228 1.170 . S
C230 C231 1.170 . S
C230 C232 1.380 . S
C231 C230 1.170 . S
C232 C230 1.380 . S
C232 C233 1.170 . S
C233 C232 1.170 . S
C234 C235 1.170 . S
C234 C236 1.380 . S
C235 C234 1.170 . S
C236 C234 1.380 . S
C236 C237 1.170 . S
C237 C236 1.170 . S
C238 C239 1.170 . S
C238 C240 1.380 . S
C239 C238 1.170 . S
C240 C238 1.380 . S
C240 C241 1.170 . S
C241 C240 1.170 . S
C242 C243 1.170 . S
C242 C244 1.380 . S
C243 C242 1.170 . S
C244 C242 1.380 . S
C244 C245 1.170 . S
C245 C244 1.170 . S
C201 C172 1.443 . S
C199 C138 1.548 . S
C203 C21 1.561 . S
C205 C193 1.414 . S
C207 C60 1.655 . S
C209 C169 1.473 . S
C211 C99 1.674 . S
C213 C190 1.492 . S
C217 C174 1.692 . S
C215 C16 1.650 . S
C221 C194 1.611 . S
C219 C40 1.610 . S
C223 C79 1.607 . S
C225 C170 1.508 . S
C227 C133 1.617 . S
C229 C192 1.578 . S
C233 C191 1.536 . S
C231 C55 1.581 . S
C237 C173 1.606 . S
C235 C94 1.605 . S
C241 C195 1.694 . S
C239 C118 1.655 . S
C243 C1 1.636 . S
C245 C171 1.549 . S
