# Generated by pormake.
# Topology tsx, (6,3)-cn, num edge types: 1
# Building blocks:
#     Node 0, Type 0, BuildingBlock: FUNLAD_clean_sbu_0, # of connection points: 6
#     Node 1, Type 0, BuildingBlock: FUNLAD_clean_sbu_0, # of connection points: 6
#     Node 2, Type 1, BuildingBlock: BETDIP_clean_linker_0, # of connection points: 3
#     Node 3, Type 1, BuildingBlock: BETDIP_clean_linker_0, # of connection points: 3
#     Node 4, Type 1, BuildingBlock: BETDIP_clean_linker_0, # of connection points: 3
#     Node 5, Type 1, BuildingBlock: BETDIP_clean_linker_0, # of connection points: 3
#     Edge 6, Type (0, 1), BuildingBlock: EYOCIG_clean_linker_4, # of connection points: 2
#     Edge 7, Type (0, 1), BuildingBlock: EYOCIG_clean_linker_4, # of connection points: 2
#     Edge 8, Type (0, 1), BuildingBlock: EYOCIG_clean_linker_4, # of connection points: 2
#     Edge 9, Type (0, 1), BuildingBlock: EYOCIG_clean_linker_4, # of connection points: 2
#     Edge 10, Type (0, 1), BuildingBlock: EYOCIG_clean_linker_4, # of connection points: 2
#     Edge 11, Type (0, 1), BuildingBlock: EYOCIG_clean_linker_4, # of connection points: 2
#     Edge 12, Type (0, 1), BuildingBlock: EYOCIG_clean_linker_4, # of connection points: 2
#     Edge 13, Type (0, 1), BuildingBlock: EYOCIG_clean_linker_4, # of connection points: 2
#     Edge 14, Type (0, 1), BuildingBlock: EYOCIG_clean_linker_4, # of connection points: 2
#     Edge 15, Type (0, 1), BuildingBlock: EYOCIG_clean_linker_4, # of connection points: 2
#     Edge 16, Type (0, 1), BuildingBlock: EYOCIG_clean_linker_4, # of connection points: 2
#     Edge 17, Type (0, 1), BuildingBlock: EYOCIG_clean_linker_4, # of connection points: 2
# Relax obj value: 0.116
# Max RMSD: 0.121
# Mean RMSD: 0.115
data_MOF--net-tsx--node1-FUNLAD_clean_sbu_0--node2-BETDIP_clean_linker_0--edge1-EYOCIG_clean_linker_4
_symmetry_space_group_name_H-M    P1
_symmetry_Int_Tables_number       1
_symmetry_cell_setting            triclinic
loop_
_symmetry_equiv_pos_as_xyz
'x, y, z'
_cell_length_a     15.80224
_cell_length_b     16.684038
_cell_length_c     33.684774
_cell_angle_alpha  89.978406
_cell_angle_beta   104.0926
_cell_angle_gamma 90.022565
loop_
_atom_site_label
_atom_site_type_symbol
_atom_site_fract_x
_atom_site_fract_y
_atom_site_fract_z
_atom_type_partial_charge
C0 C 0.8722 0.89071 -0.01995 0.0
N1 N 0.03427 0.00812 0.07937 0.0
C2 C 0.96266 0.00958 0.09509 0.0
C3 C 0.97201 0.01461 0.13719 0.0
C4 C 0.05564 0.01828 0.16308 0.0
C5 C 0.12869 0.01592 0.14653 0.0
C6 C 0.11641 0.01076 0.10409 0.0
Zn7 Zn 0.01394 0.00722 0.0174 0.0
C8 C 0.12509 0.89094 -0.01364 0.0
N9 N 0.96289 0.00949 0.88744 0.0
C10 C 0.88067 0.01214 0.8628 0.0
C11 C 0.03438 0.01148 0.87164 0.0
C12 C 0.02482 0.01702 0.82954 0.0
C13 C 0.94109 0.02062 0.80374 0.0
C14 C 0.86818 0.01778 0.82037 0.0
Zn15 Zn -0.01668 0.00766 0.9494 0.0
O16 O 0.91758 0.9177 0.01371 0.0
C17 C 0.87475 0.12604 -0.02099 0.0
O18 O 0.8851 0.9165 0.94644 0.0
H19 H 0.0991 0.00965 0.89176 0.0
H20 H 0.898 0.00777 0.07491 0.0
H21 H 0.8249 0.01073 0.87609 0.0
O22 O 0.91698 0.09914 0.01341 0.0
O23 O 0.88839 0.09756 0.94626 0.0
H24 H 0.17227 0.00979 0.09086 0.0
O25 O 0.0802 0.09978 0.95369 0.0
O26 O 0.10882 0.09733 0.02084 0.0
O27 O 0.07973 0.91832 0.95278 0.0
O28 O 0.11219 0.91624 0.02005 0.0
C29 C 0.1224 0.12632 -0.01182 0.0
H30 H 0.91452 0.01613 0.14935 0.0
H31 H 0.19415 0.01846 0.16609 0.0
H32 H 0.08221 0.0189 0.81731 0.0
H33 H 0.80265 0.02024 0.80087 0.0
C34 C 0.37066 0.39101 0.47973 0.0
N35 N 0.53282 0.50812 0.57914 0.0
C36 C 0.46127 0.50949 0.5949 0.0
C37 C 0.47072 0.51433 0.63701 0.0
C38 C 0.5544 0.51789 0.66287 0.0
C39 C 0.62738 0.51562 0.64627 0.0
C40 C 0.615 0.51066 0.60382 0.0
Zn41 Zn 0.51241 0.50745 0.51716 0.0
C42 C 0.62354 0.39132 0.48601 0.0
N43 N 0.4613 0.51014 0.3872 0.0
C44 C 0.37909 0.51284 0.36254 0.0
C45 C 0.53281 0.5122 0.37142 0.0
C46 C 0.5233 0.51783 0.32932 0.0
C47 C 0.43958 0.52148 0.3035 0.0
C48 C 0.36664 0.51858 0.32011 0.0
Zn49 Zn 0.48174 0.5081 0.44916 0.0
O50 O 0.41606 0.41791 0.51341 0.0
C51 C 0.37319 0.62631 0.47889 0.0
O52 O 0.38354 0.41691 0.44614 0.0
H53 H 0.59752 0.51033 0.39155 0.0
H54 H 0.39658 0.50776 0.57475 0.0
H55 H 0.3233 0.51138 0.37582 0.0
O56 O 0.41545 0.59933 0.51327 0.0
O57 O 0.38681 0.59795 0.44612 0.0
H58 H 0.67082 0.50975 0.59056 0.0
O59 O 0.5786 0.60026 0.45352 0.0
O60 O 0.60727 0.5976 0.52067 0.0
O61 O 0.57815 0.41879 0.45245 0.0
O62 O 0.61066 0.41651 0.51972 0.0
C63 C 0.62082 0.62671 0.48802 0.0
H64 H 0.41329 0.51579 0.64921 0.0
H65 H 0.69287 0.51807 0.6658 0.0
H66 H 0.5807 0.51974 0.31711 0.0
H67 H 0.30113 0.52107 0.30061 0.0
H68 H 0.06139 0.97359 0.47448 0.0
H69 H 0.97002 0.10659 0.36218 0.0
H70 H 0.15284 0.91412 0.36835 0.0
H71 H 0.93654 0.20128 0.40389 0.0
C72 C 0.91755 0.16797 0.42798 0.0
C73 C 0.06107 0.98502 0.44287 0.0
C74 C 0.11237 0.93699 0.42389 0.0
C75 C 0.0097 0.04726 0.42119 0.0
C76 C 0.01089 0.06092 0.38007 0.0
C77 C 0.06298 0.01321 0.36133 0.0
C78 C 0.11353 0.95156 0.38321 0.0
N79 N 0.95484 0.092 0.4409 0.0
H80 H 0.93125 0.97442 0.49205 0.0
H81 H 0.02409 0.10844 0.60387 0.0
H82 H 0.8412 0.91623 0.59876 0.0
H83 H 0.05726 0.20255 0.56175 0.0
C84 C 0.07594 0.16886 0.53772 0.0
C85 C 0.93195 0.9862 0.52366 0.0
C86 C 0.88092 0.93846 0.54296 0.0
C87 C -0.01639 0.04857 0.54505 0.0
C88 C -0.01705 0.06268 0.5862 0.0
C89 C 0.93112 0.01527 0.60524 0.0
C90 C 0.88028 0.95347 0.58365 0.0
N91 N 0.0383 0.0929 0.52506 0.0
H92 H 0.56344 0.47354 0.97472 0.0
H93 H 0.47066 0.60596 0.86235 0.0
H94 H 0.65339 0.41351 0.86824 0.0
H95 H 0.43752 0.70079 0.90405 0.0
C96 C 0.4189 0.66757 0.92827 0.0
C97 C 0.5627 0.48479 0.94305 0.0
C98 C 0.61368 0.43665 0.92395 0.0
C99 C 0.51107 0.54692 0.9214 0.0
C100 C 0.51172 0.56038 0.8802 0.0
C101 C 0.56353 0.51258 0.86135 0.0
C102 C 0.61431 0.45103 0.88319 0.0
N103 N 0.45648 0.59173 0.94123 0.0
H104 H 0.43339 0.4737 -0.00764 0.0
H105 H 0.52457 0.60866 0.10399 0.0
H106 H 0.34154 0.4165 0.09868 0.0
H107 H 0.55804 0.70251 0.06178 0.0
C108 C 0.57722 0.66864 0.03794 0.0
C109 C 0.43358 0.48577 0.02388 0.0
C110 C 0.38217 0.43824 0.04307 0.0
C111 C 0.48495 0.54831 0.04527 0.0
C112 C 0.48365 0.56277 0.08631 0.0
C113 C 0.43148 0.51554 0.10525 0.0
C114 C 0.3809 0.4536 0.08366 0.0
N115 N 0.53998 0.59248 0.02539 0.0
C116 C 0.23151 0.24844 -0.00334 0.0
C117 C 0.18107 0.19292 -0.00938 0.0
C118 C 0.28697 0.31531 0.00818 0.0
C119 C 0.33186 0.3721 0.02195 0.0
C120 C 0.24764 0.7891 0.9781 0.0
C121 C 0.19379 0.83479 -0.01474 0.0
C122 C 0.30915 0.74128 0.9644 0.0
C123 C 0.35999 0.70516 0.94938 0.0
C124 C 0.74934 0.78898 -0.01191 0.0
C125 C 0.8033 0.83464 -0.01902 0.0
C126 C 0.6876 0.74141 0.00178 0.0
C127 C 0.6365 0.70565 0.01682 0.0
C128 C 0.76524 0.24775 0.97077 0.0
C129 C 0.81587 0.19239 0.97675 0.0
C130 C 0.70948 0.31439 0.95922 0.0
C131 C 0.66432 0.37095 0.94534 0.0
C132 C 0.7299 0.74887 0.49654 0.0
C133 C 0.67947 0.69333 0.4905 0.0
C134 C 0.78539 0.81571 0.50807 0.0
C135 C 0.83039 0.87244 0.52184 0.0
C136 C 0.74607 0.28951 0.47768 0.0
C137 C 0.69223 0.33518 0.48485 0.0
C138 C 0.8076 0.2417 0.46399 0.0
C139 C 0.85851 0.20557 0.44901 0.0
C140 C 0.24779 0.28926 0.48774 0.0
C141 C 0.30175 0.33493 0.48064 0.0
C142 C 0.18608 0.24168 0.50145 0.0
C143 C 0.13505 0.20591 0.51653 0.0
C144 C 0.26363 0.74797 0.47074 0.0
C145 C 0.31429 0.69263 0.47669 0.0
C146 C 0.20789 0.81462 0.4592 0.0
C147 C 0.16282 0.87122 0.44531 0.0
C148 C 0.06765 0.02869 0.24231 0.0
C149 C 0.06542 0.024 0.20646 0.0
C150 C 0.06554 0.02949 0.28381 0.0
C151 C 0.06225 0.02442 0.31901 0.0
C152 C 0.92836 0.03144 0.72445 0.0
C153 C 0.93104 0.02656 0.76034 0.0
C154 C 0.92982 0.03217 0.68287 0.0
C155 C 0.93256 0.02684 0.64761 0.0
C156 C 0.56681 0.52795 0.74215 0.0
C157 C 0.56431 0.52342 0.70626 0.0
C158 C 0.56515 0.52868 0.7837 0.0
C159 C 0.56231 0.52366 0.81896 0.0
C160 C 0.42717 0.53232 0.22424 0.0
C161 C 0.42961 0.52743 0.26012 0.0
C162 C 0.42908 0.53294 0.18272 0.0
C163 C 0.43233 0.5274 0.14754 0.0
loop_
_geom_bond_atom_site_label_1
_geom_bond_atom_site_label_2
_geom_bond_distance
_geom_bond_site_symmetry_2
_ccdc_geom_bond_type
C0 O16 1.255 . S
C0 O18 1.249 1_554 S
N1 C2 1.333 1_445 S
N1 C6 1.307 . S
N1 Zn7 2.020 . S
C2 N1 1.333 1_665 S
C2 C3 1.379 . S
C2 H20 0.952 . S
C3 C2 1.379 . S
C3 C4 1.390 1_665 S
C3 H30 0.949 . S
C4 C3 1.390 1_445 S
C4 C5 1.357 . S
C5 C4 1.357 . S
C5 C6 1.370 . S
C5 H31 0.950 . S
C6 N1 1.307 . S
C6 C5 1.370 . S
C6 H24 0.948 . S
Zn7 N1 2.020 . S
Zn7 O16 2.039 1_445 S
Zn7 O22 2.034 1_455 S
Zn7 O26 2.025 . S
Zn7 O28 2.024 1_545 S
C8 O27 1.246 1_554 S
C8 O28 1.249 . S
N9 C10 1.307 1_545 S
N9 C11 1.333 1_655 S
N9 Zn15 2.020 1_655 S
C10 N9 1.307 1_565 S
C10 C14 1.370 . S
C10 H21 0.948 . S
C11 N9 1.333 1_455 S
C11 C12 1.379 . S
C11 H19 0.952 . S
C12 C11 1.379 . S
C12 C13 1.390 1_455 S
C12 H32 0.949 . S
C13 C12 1.390 1_655 S
C13 C14 1.357 1_545 S
C14 C10 1.370 . S
C14 C13 1.357 1_565 S
C14 H33 0.950 . S
Zn15 N9 2.020 1_455 S
Zn15 O18 2.025 1_445 S
Zn15 O23 2.024 1_455 S
Zn15 O25 2.039 . S
Zn15 O27 2.034 1_545 S
O16 C0 1.255 . S
O16 Zn7 2.039 1_665 S
C17 O22 1.246 1_556 S
C17 O23 1.249 . S
O18 C0 1.249 1_556 S
O18 Zn15 2.025 1_665 S
H19 C11 0.952 . S
H20 C2 0.952 . S
H21 C10 0.948 . S
O22 Zn7 2.034 1_655 S
O22 C17 1.246 1_554 S
O23 Zn15 2.024 1_655 S
O23 C17 1.249 . S
H24 C6 0.948 . S
O25 Zn15 2.039 . S
O25 C29 1.251 1_556 S
O26 Zn7 2.025 . S
O26 C29 1.254 . S
O27 C8 1.246 1_556 S
O27 Zn15 2.034 1_565 S
O28 Zn7 2.024 1_565 S
O28 C8 1.249 . S
C29 O25 1.251 1_554 S
C29 O26 1.254 . S
H30 C3 0.949 . S
H31 C5 0.950 . S
H32 C12 0.949 . S
H33 C14 0.950 . S
C34 O50 1.251 . S
C34 O52 1.254 . S
N35 C36 1.333 . S
N35 C40 1.307 . S
N35 Zn41 2.020 . S
C36 N35 1.333 . S
C36 C37 1.379 . S
C36 H54 0.952 . S
C37 C36 1.379 . S
C37 C38 1.390 . S
C37 H64 0.949 . S
C38 C37 1.390 . S
C38 C39 1.357 . S
C39 C38 1.357 . S
C39 C40 1.370 . S
C39 H65 0.950 . S
C40 N35 1.307 . S
C40 C39 1.370 . S
C40 H58 0.948 . S
Zn41 N35 2.020 . S
Zn41 O50 2.039 . S
Zn41 O56 2.034 . S
Zn41 O60 2.025 . S
Zn41 O62 2.024 . S
C42 O61 1.246 . S
C42 O62 1.249 . S
N43 C44 1.307 . S
N43 C45 1.333 . S
N43 Zn49 2.020 . S
C44 N43 1.307 . S
C44 C48 1.370 . S
C44 H55 0.948 . S
C45 N43 1.333 . S
C45 C46 1.379 . S
C45 H53 0.952 . S
C46 C45 1.379 . S
C46 C47 1.390 . S
C46 H66 0.949 . S
C47 C46 1.390 . S
C47 C48 1.357 . S
C48 C44 1.370 . S
C48 C47 1.357 . S
C48 H67 0.950 . S
Zn49 N43 2.020 . S
Zn49 O52 2.025 . S
Zn49 O57 2.024 . S
Zn49 O59 2.039 . S
Zn49 O61 2.034 . S
O50 C34 1.251 . S
O50 Zn41 2.039 . S
C51 O56 1.246 . S
C51 O57 1.249 . S
O52 C34 1.254 . S
O52 Zn49 2.025 . S
H53 C45 0.952 . S
H54 C36 0.952 . S
H55 C44 0.948 . S
O56 Zn41 2.034 . S
O56 C51 1.246 . S
O57 Zn49 2.024 . S
O57 C51 1.249 . S
H58 C40 0.948 . S
O59 Zn49 2.039 . S
O59 C63 1.251 . S
O60 Zn41 2.025 . S
O60 C63 1.254 . S
O61 C42 1.246 . S
O61 Zn49 2.034 . S
O62 Zn41 2.024 . S
O62 C42 1.249 . S
C63 O59 1.251 . S
C63 O60 1.254 . S
H64 C37 0.949 . S
H65 C39 0.950 . S
H66 C46 0.949 . S
H67 C48 0.950 . S
H68 C73 0.930 . S
H69 C76 0.930 1_655 S
H70 C78 0.930 . S
H71 C72 1.016 . S
C72 H71 1.016 . S
C72 N79 1.286 . S
C73 H68 0.930 . S
C73 C74 1.397 . S
C73 C75 1.361 1_565 S
C74 C73 1.397 . S
C74 C78 1.390 . S
C75 C73 1.361 1_545 S
C75 C76 1.393 . S
C75 N79 1.413 1_455 S
C76 H69 0.930 1_455 S
C76 C75 1.393 . S
C76 C77 1.399 1_545 S
C77 C76 1.399 1_565 S
C77 C78 1.381 . S
C78 H70 0.930 . S
C78 C74 1.390 . S
C78 C77 1.381 . S
N79 C72 1.286 . S
N79 C75 1.413 1_655 S
H80 C85 0.930 . S
H81 C88 0.930 . S
H82 C90 0.930 . S
H83 C84 1.016 . S
C84 H83 1.016 . S
C84 N91 1.286 . S
C85 H80 0.930 . S
C85 C86 1.397 . S
C85 C87 1.361 1_665 S
C86 C85 1.397 . S
C86 C90 1.390 . S
C87 C85 1.361 1_445 S
C87 C88 1.393 . S
C87 N91 1.413 . S
C88 H81 0.930 . S
C88 C87 1.393 . S
C88 C89 1.399 1_455 S
C89 C88 1.399 1_655 S
C89 C90 1.381 1_545 S
C90 H82 0.930 . S
C90 C86 1.390 . S
C90 C89 1.381 1_565 S
N91 C84 1.286 . S
N91 C87 1.413 . S
H92 C97 0.930 1_554 S
H93 C100 0.930 . S
H94 C102 0.930 . S
H95 C96 1.016 . S
C96 H95 1.016 . S
C96 N103 1.286 1_556 S
C97 H92 0.930 1_556 S
C97 C98 1.397 . S
C97 C99 1.361 . S
C98 C97 1.397 . S
C98 C102 1.390 . S
C99 C97 1.361 . S
C99 C100 1.393 . S
C99 N103 1.413 1_556 S
C100 H93 0.930 . S
C100 C99 1.393 . S
C100 C101 1.399 . S
C101 C100 1.399 . S
C101 C102 1.381 . S
C102 H94 0.930 . S
C102 C98 1.390 . S
C102 C101 1.381 . S
N103 C96 1.286 1_554 S
N103 C99 1.413 1_554 S
H104 C109 0.930 1_556 S
H105 C112 0.930 . S
H106 C114 0.930 . S
H107 C108 1.016 . S
C108 H107 1.016 . S
C108 N115 1.286 . S
C109 H104 0.930 1_554 S
C109 C110 1.397 . S
C109 C111 1.361 . S
C110 C109 1.397 . S
C110 C114 1.390 . S
C111 C109 1.361 . S
C111 C112 1.393 . S
C111 N115 1.413 . S
C112 H105 0.930 . S
C112 C111 1.393 . S
C112 C113 1.399 . S
C113 C112 1.399 . S
C113 C114 1.381 . S
C114 H106 0.930 . S
C114 C110 1.390 . S
C114 C113 1.381 . S
N115 C108 1.286 . S
N115 C111 1.413 . S
C116 C117 1.170 . S
C116 C118 1.380 . S
C117 C116 1.170 . S
C118 C116 1.380 . S
C118 C119 1.170 . S
C119 C118 1.170 . S
C120 C121 1.170 . S
C120 C122 1.380 . S
C121 C120 1.170 . S
C122 C120 1.380 . S
C122 C123 1.170 . S
C123 C122 1.170 . S
C124 C125 1.170 . S
C124 C126 1.380 . S
C125 C124 1.170 . S
C126 C124 1.380 . S
C126 C127 1.170 . S
C127 C126 1.170 . S
C128 C129 1.170 . S
C128 C130 1.380 . S
C129 C128 1.170 . S
C130 C128 1.380 . S
C130 C131 1.170 . S
C131 C130 1.170 . S
C132 C133 1.170 . S
C132 C134 1.380 . S
C133 C132 1.170 . S
C134 C132 1.380 . S
C134 C135 1.170 . S
C135 C134 1.170 . S
C136 C137 1.170 . S
C136 C138 1.380 . S
C137 C136 1.170 . S
C138 C136 1.380 . S
C138 C139 1.170 . S
C139 C138 1.170 . S
C140 C141 1.170 . S
C140 C142 1.380 . S
C141 C140 1.170 . S
C142 C140 1.380 . S
C142 C143 1.170 . S
C143 C142 1.170 . S
C144 C145 1.170 . S
C144 C146 1.380 . S
C145 C144 1.170 . S
C146 C144 1.380 . S
C146 C147 1.170 . S
C147 C146 1.170 . S
C148 C149 1.170 . S
C148 C150 1.380 . S
C149 C148 1.170 . S
C150 C148 1.380 . S
C150 C151 1.170 . S
C151 C150 1.170 . S
C152 C153 1.170 . S
C152 C154 1.380 . S
C153 C152 1.170 . S
C154 C152 1.380 . S
C154 C155 1.170 . S
C155 C154 1.170 . S
C156 C157 1.170 . S
C156 C158 1.380 . S
C157 C156 1.170 . S
C158 C156 1.380 . S
C158 C159 1.170 . S
C159 C158 1.170 . S
C160 C161 1.170 . S
C160 C162 1.380 . S
C161 C160 1.170 . S
C162 C160 1.380 . S
C162 C163 1.170 . S
C163 C162 1.170 . S
C119 C110 1.479 . S
C117 C29 1.509 . S
C121 C8 1.444 . S
C123 C96 1.395 1_554 S
C125 C0 1.453 . S
C127 C108 1.392 . S
C129 C17 1.509 . S
C131 C98 1.483 . S
C133 C63 1.505 . S
C135 C86 1.464 . S
C137 C42 1.441 . S
C139 C72 1.387 . S
C143 C84 1.369 . S
C141 C34 1.446 . S
C147 C74 1.473 . S
C145 C51 1.509 . S
C149 C4 1.523 . S
C151 C77 1.521 1_545 S
C153 C13 1.515 . S
C155 C89 1.505 . S
C159 C101 1.520 . S
C157 C38 1.523 . S
C161 C47 1.518 . S
C163 C113 1.513 . S
