# Generated by pormake.
# Topology tsx, (6,3)-cn, num edge types: 1
# Building blocks:
#     Node 0, Type 0, BuildingBlock: CIFDUS_clean_sbu_1, # of connection points: 6
#     Node 1, Type 0, BuildingBlock: CIFDUS_clean_sbu_1, # of connection points: 6
#     Node 2, Type 1, BuildingBlock: INOVEN_clean_linker_0, # of connection points: 3
#     Node 3, Type 1, BuildingBlock: INOVEN_clean_linker_0, # of connection points: 3
#     Node 4, Type 1, BuildingBlock: INOVEN_clean_linker_0, # of connection points: 3
#     Node 5, Type 1, BuildingBlock: INOVEN_clean_linker_0, # of connection points: 3
#     Edge 6, Type (0, 1), None
#     Edge 7, Type (0, 1), None
#     Edge 8, Type (0, 1), None
#     Edge 9, Type (0, 1), None
#     Edge 10, Type (0, 1), None
#     Edge 11, Type (0, 1), None
#     Edge 12, Type (0, 1), None
#     Edge 13, Type (0, 1), None
#     Edge 14, Type (0, 1), None
#     Edge 15, Type (0, 1), None
#     Edge 16, Type (0, 1), None
#     Edge 17, Type (0, 1), None
# Relax obj value: 0.093
# Max RMSD: 0.124
# Mean RMSD: 0.097
data_MOF--net-tsx--node1-CIFDUS_clean_sbu_1--node2-INOVEN_clean_linker_0--edge1-none
_symmetry_space_group_name_H-M    P1
_symmetry_Int_Tables_number       1
_symmetry_cell_setting            triclinic
loop_
_symmetry_equiv_pos_as_xyz
'x, y, z'
_cell_length_a     8.3033319
_cell_length_b     9.5690666
_cell_length_c     16.18144
_cell_angle_alpha  91.338096
_cell_angle_beta   99.323533
_cell_angle_gamma 90.503675
loop_
_atom_site_label
_atom_site_type_symbol
_atom_site_fract_x
_atom_site_fract_y
_atom_site_fract_z
_atom_type_partial_charge
O0 O 0.91686 0.24203 -0.04548 0.0
Mn1 Mn 0.04933 0.05368 -0.04792 0.0
O2 O 0.70427 0.18858 0.85802 0.0
Mn3 Mn 0.70109 1.00131 0.87962 0.0
O4 O 0.186 0.86685 0.93466 0.0
O5 O 0.24069 0.19349 -0.02887 0.0
Mn6 Mn 0.39792 0.07496 -0.00843 0.0
O7 O 0.09482 0.04211 0.07874 0.0
O8 O 0.3859 0.97414 0.89215 0.0
O9 O 0.00734 0.06117 0.82259 0.0
O10 O 0.78192 0.92701 0.78823 0.0
O11 O 0.50281 0.24168 -0.00775 0.0
O12 O 0.36447 1.00306 0.09711 0.0
C13 C 0.7635 0.90991 0.00613 0.0
C14 C 0.80077 0.27854 0.89675 0.0
C15 C 0.30397 0.86493 0.89188 0.0
C16 C 0.35602 0.2884 -0.01504 0.0
C17 C 0.22899 1.01445 0.12587 0.0
C18 C 0.90742 0.98863 0.76875 0.0
O19 O 0.86025 0.9165 -0.04837 0.0
O20 O 0.64293 0.98698 -0.01507 0.0
O21 O 0.4169 0.74203 0.45451 0.0
Mn22 Mn 0.54936 0.55368 0.45209 0.0
O23 O 0.20431 0.68857 0.35802 0.0
Mn24 Mn 0.20113 0.50131 0.37963 0.0
O25 O 0.68604 0.36685 0.43467 0.0
O26 O 0.74073 0.69349 0.47113 0.0
Mn27 Mn 0.89797 0.57496 0.49159 0.0
O28 O 0.59485 0.54212 0.57875 0.0
O29 O 0.88596 0.47414 0.39217 0.0
O30 O 0.50737 0.56116 0.32259 0.0
O31 O 0.28195 0.427 0.28824 0.0
O32 O 0.00285 0.74168 0.49225 0.0
O33 O 0.86451 0.50307 0.59713 0.0
C34 C 0.26355 0.40991 0.50614 0.0
C35 C 0.3008 0.77854 0.39675 0.0
C36 C 0.80402 0.36493 0.39189 0.0
C37 C 0.85606 0.7884 0.48496 0.0
C38 C 0.72902 0.51446 0.62588 0.0
C39 C 0.40745 0.48862 0.26875 0.0
O40 O 0.36029 0.41649 0.45163 0.0
O41 O 0.14299 0.48699 0.48495 0.0
H42 H 0.1972 0.0294 0.45436 0.0
H43 H 0.37287 0.83609 0.24545 0.0
H44 H 0.05745 0.19037 0.20761 0.0
N45 N 0.02424 0.23592 0.36368 0.0
N46 N 0.87242 0.23983 0.36302 0.0
C47 C 0.20021 1.02567 0.38821 0.0
C48 C 0.2893 0.91772 0.35687 0.0
C49 C 0.10878 0.12068 0.3334 0.0
C50 C 0.12303 0.11467 0.24874 0.0
C51 C 0.22519 1.01727 0.2172 0.0
C52 C 0.30806 0.91964 0.27148 0.0
H53 H 0.92163 0.0414 0.44526 0.0
H54 H 0.78088 0.81047 0.64125 0.0
H55 H 0.07711 0.18425 0.69846 0.0
N56 N 0.07733 0.25293 0.54116 0.0
N57 N 0.22564 0.28013 0.54103 0.0
C58 C 0.92135 0.03441 0.51067 0.0
C59 C 0.84482 0.91638 0.53527 0.0
C60 C 0.01373 0.12739 0.5689 0.0
C61 C 0.0131 0.10862 0.65374 0.0
C62 C 0.92103 0.99868 0.67994 0.0
C63 C 0.83785 0.90252 0.62052 0.0
H64 H 0.69714 0.52939 -0.04564 0.0
H65 H 0.87288 0.3361 0.74546 0.0
H66 H 0.55746 0.69038 0.70761 0.0
N67 N 0.5242 0.73592 0.86367 0.0
N68 N 0.37237 0.73983 0.86301 0.0
C69 C 0.70016 0.52567 0.88821 0.0
C70 C 0.78927 0.41773 0.85688 0.0
C71 C 0.60874 0.62068 0.83339 0.0
C72 C 0.62303 0.61468 0.74874 0.0
C73 C 0.72519 0.51729 0.7172 0.0
C74 C 0.80805 0.41965 0.77149 0.0
H75 H 0.42156 0.54141 -0.05474 0.0
H76 H 0.28089 0.31045 0.14126 0.0
H77 H 0.57712 0.68424 0.19845 0.0
N78 N 0.57729 0.75292 0.04115 0.0
N79 N 0.7256 0.78014 0.04103 0.0
C80 C 0.42131 0.53441 0.01067 0.0
C81 C 0.34479 0.41638 0.03527 0.0
C82 C 0.5137 0.62739 0.0689 0.0
C83 C 0.5131 0.60861 0.15373 0.0
C84 C 0.42105 0.49866 0.17995 0.0
C85 C 0.33785 0.40251 0.12052 0.0
loop_
_geom_bond_atom_site_label_1
_geom_bond_atom_site_label_2
_geom_bond_distance
_geom_bond_site_symmetry_2
_ccdc_geom_bond_type
O0 Mn1 2.163 1_654 S
O0 C14 1.244 1_554 S
Mn1 O0 2.163 1_456 S
Mn1 O4 2.160 1_545 S
Mn1 O5 2.221 1_556 S
Mn1 O7 2.164 1_556 S
Mn1 O9 2.160 . S
Mn1 O19 2.221 1_445 S
O2 Mn3 2.087 1_545 S
O2 C14 1.256 . S
Mn3 O2 2.087 1_565 S
Mn3 O10 2.089 1_565 S
Mn3 O19 2.290 . S
Mn3 O20 2.251 . S
O4 Mn1 2.160 1_565 S
O4 C15 1.239 1_556 S
O5 Mn1 2.221 1_554 S
O5 Mn6 2.290 . S
O5 C16 1.278 . S
Mn6 O5 2.290 . S
Mn6 O8 2.089 1_545 S
Mn6 O11 2.251 . S
Mn6 O12 2.087 . S
O7 Mn1 2.164 1_554 S
O7 C17 1.244 . S
O8 Mn6 2.089 1_565 S
O8 C15 1.256 . S
O9 Mn1 2.160 . S
O9 C18 1.239 1_455 S
O10 Mn3 2.089 1_545 S
O10 C18 1.256 . S
O11 Mn6 2.251 . S
O11 C16 1.241 . S
O12 Mn6 2.087 . S
O12 C17 1.256 . S
C13 O19 1.278 . S
C13 O20 1.241 . S
C14 O0 1.244 1_556 S
C14 O2 1.256 . S
C15 O4 1.239 1_554 S
C15 O8 1.256 . S
C16 O5 1.278 . S
C16 O11 1.241 . S
C17 O7 1.244 . S
C17 O12 1.256 . S
C18 O9 1.239 1_655 S
C18 O10 1.256 . S
O19 Mn1 2.221 1_665 S
O19 Mn3 2.290 . S
O19 C13 1.278 . S
O20 Mn3 2.251 . S
O20 C13 1.241 . S
O21 Mn22 2.163 . S
O21 C35 1.244 . S
Mn22 O21 2.163 . S
Mn22 O25 2.160 . S
Mn22 O26 2.221 . S
Mn22 O28 2.163 . S
Mn22 O30 2.160 . S
Mn22 O40 2.221 . S
O23 Mn24 2.087 . S
O23 C35 1.256 . S
Mn24 O23 2.087 . S
Mn24 O31 2.089 . S
Mn24 O40 2.290 . S
Mn24 O41 2.251 . S
O25 Mn22 2.160 . S
O25 C36 1.239 . S
O26 Mn22 2.221 . S
O26 Mn27 2.290 . S
O26 C37 1.278 . S
Mn27 O26 2.290 . S
Mn27 O29 2.089 . S
Mn27 O32 2.251 . S
Mn27 O33 2.087 . S
O28 Mn22 2.163 . S
O28 C38 1.244 . S
O29 Mn27 2.089 . S
O29 C36 1.256 . S
O30 Mn22 2.160 . S
O30 C39 1.239 . S
O31 Mn24 2.089 . S
O31 C39 1.256 . S
O32 Mn27 2.251 . S
O32 C37 1.241 . S
O33 Mn27 2.087 . S
O33 C38 1.256 . S
C34 O40 1.278 . S
C34 O41 1.241 . S
C35 O21 1.244 . S
C35 O23 1.256 . S
C36 O25 1.239 . S
C36 O29 1.256 . S
C37 O26 1.278 . S
C37 O32 1.241 . S
C38 O28 1.244 . S
C38 O33 1.256 . S
C39 O30 1.239 . S
C39 O31 1.256 . S
O40 Mn22 2.221 . S
O40 Mn24 2.290 . S
O40 C34 1.278 . S
O41 Mn24 2.251 . S
O41 C34 1.241 . S
H42 C47 0.929 . S
H43 C52 0.931 . S
H44 C50 0.930 1_655 S
N45 N46 1.234 . S
N45 C49 1.453 1_655 S
N46 N45 1.234 . S
C47 H42 0.929 . S
C47 C48 1.373 . S
C47 C49 1.368 1_565 S
C48 C47 1.373 . S
C48 C52 1.397 . S
C49 N45 1.453 1_455 S
C49 C47 1.368 1_545 S
C49 C50 1.373 . S
C50 H44 0.930 1_455 S
C50 C49 1.373 . S
C50 C51 1.371 1_545 S
C51 C50 1.371 1_565 S
C51 C52 1.383 . S
C52 H43 0.931 . S
C52 C48 1.397 . S
C52 C51 1.383 . S
H53 C58 0.929 . S
H54 C63 0.931 . S
H55 C61 0.930 . S
N56 N57 1.234 . S
N56 C60 1.453 . S
N57 N56 1.234 . S
C58 H53 0.929 . S
C58 C59 1.373 . S
C58 C60 1.368 1_665 S
C59 C58 1.373 . S
C59 C63 1.397 . S
C60 N56 1.453 . S
C60 C58 1.368 1_445 S
C60 C61 1.373 . S
C61 H55 0.930 . S
C61 C60 1.373 . S
C61 C62 1.371 1_455 S
C62 C61 1.371 1_655 S
C62 C63 1.383 1_545 S
C63 H54 0.931 . S
C63 C59 1.397 . S
C63 C62 1.383 1_565 S
H64 C69 0.929 . S
H65 C74 0.931 . S
H66 C72 0.930 . S
N67 N68 1.234 . S
N67 C71 1.453 1_554 S
N68 N67 1.234 . S
C69 H64 0.929 . S
C69 C70 1.373 1_554 S
C69 C71 1.368 1_554 S
C70 C69 1.373 1_556 S
C70 C74 1.397 . S
C71 N67 1.453 1_556 S
C71 C69 1.368 1_556 S
C71 C72 1.373 . S
C72 H66 0.930 . S
C72 C71 1.373 . S
C72 C73 1.371 . S
C73 C72 1.371 . S
C73 C74 1.383 . S
C74 H65 0.931 . S
C74 C70 1.397 . S
C74 C73 1.383 . S
H75 C80 0.929 . S
H76 C85 0.931 . S
H77 C83 0.930 . S
N78 N79 1.234 1_556 S
N78 C82 1.453 1_556 S
N79 N78 1.234 1_554 S
C80 H75 0.929 . S
C80 C81 1.373 1_556 S
C80 C82 1.368 1_556 S
C81 C80 1.373 1_554 S
C81 C85 1.397 . S
C82 N78 1.453 1_554 S
C82 C80 1.368 1_554 S
C82 C83 1.373 . S
C83 H77 0.930 . S
C83 C82 1.373 . S
C83 C84 1.371 . S
C84 C83 1.371 . S
C84 C85 1.383 . S
C85 H76 0.931 . S
C85 C81 1.397 . S
C85 C84 1.383 . S
C81 C16 1.500 . S
C15 N68 1.476 . S
C13 N79 1.163 1_556 S
C14 C70 1.414 . S
C37 C59 1.500 . S
C36 N46 1.476 . S
N57 C34 1.163 . S
C48 C35 1.414 . S
C17 C51 1.705 1_545 S
C18 C62 1.313 . S
C73 C38 1.705 . S
C39 C84 1.313 . S
