# Generated by pormake.
# Topology tsx, (6,3)-cn, num edge types: 1
# Building blocks:
#     Node 0, Type 0, BuildingBlock: VOLQOD_clean_sbu_1, # of connection points: 6
#     Node 1, Type 0, BuildingBlock: VOLQOD_clean_sbu_1, # of connection points: 6
#     Node 2, Type 1, BuildingBlock: BELTOD_clean_linker_0, # of connection points: 3
#     Node 3, Type 1, BuildingBlock: BELTOD_clean_linker_0, # of connection points: 3
#     Node 4, Type 1, BuildingBlock: BELTOD_clean_linker_0, # of connection points: 3
#     Node 5, Type 1, BuildingBlock: BELTOD_clean_linker_0, # of connection points: 3
#     Edge 6, Type (0, 1), None
#     Edge 7, Type (0, 1), None
#     Edge 8, Type (0, 1), None
#     Edge 9, Type (0, 1), None
#     Edge 10, Type (0, 1), None
#     Edge 11, Type (0, 1), None
#     Edge 12, Type (0, 1), None
#     Edge 13, Type (0, 1), None
#     Edge 14, Type (0, 1), None
#     Edge 15, Type (0, 1), None
#     Edge 16, Type (0, 1), None
#     Edge 17, Type (0, 1), None
# Relax obj value: 0.067
# Max RMSD: 0.102
# Mean RMSD: 0.075
data_MOF--net-tsx--node1-VOLQOD_clean_sbu_1--node2-BELTOD_clean_linker_0--edge1-none
_symmetry_space_group_name_H-M    P1
_symmetry_Int_Tables_number       1
_symmetry_cell_setting            triclinic
loop_
_symmetry_equiv_pos_as_xyz
'x, y, z'
_cell_length_a     12.448364
_cell_length_b     12.724361
_cell_length_c     24.823828
_cell_angle_alpha  90.287622
_cell_angle_beta   91.256171
_cell_angle_gamma 90.382191
loop_
_atom_site_label
_atom_site_type_symbol
_atom_site_fract_x
_atom_site_fract_y
_atom_site_fract_z
_atom_type_partial_charge
O0 O 0.05858 0.95607 0.10995 0.0
Zn1 Zn 0.11732 0.96652 0.03628 0.0
O2 O 0.00656 0.00345 -0.01424 0.0
Zn3 Zn 0.98183 0.88719 0.93816 0.0
Zn4 Zn 0.87687 0.03308 0.0246 0.0
Zn5 Zn 0.05098 0.12021 0.94297 0.0
O6 O 0.96364 0.93405 0.8621 0.0
O7 O 0.073 0.07284 0.8663 0.0
O8 O 0.19531 0.83665 0.01479 0.0
O9 O 0.10867 0.79154 0.93913 0.0
O10 O 0.86031 0.80212 0.96363 0.0
O11 O 0.78444 0.90155 0.02579 0.0
O12 O 0.79937 0.15742 -0.00975 0.0
O13 O 0.22822 0.08011 0.03896 0.0
O14 O 0.93004 0.22091 0.93957 0.0
O15 O 0.18436 0.19262 0.97412 0.0
C16 C 0.98466 0.00949 0.13154 0.0
C17 C 0.02098 0.00312 0.83913 0.0
C18 C 0.79095 0.81519 -0.00016 0.0
C19 C 0.18501 0.77833 0.97322 0.0
C20 C 0.83528 0.22605 0.95767 0.0
C21 C 0.24622 0.16392 0.01283 0.0
O22 O 0.91581 0.0601 0.10316 0.0
O23 O 0.5586 0.45606 0.60995 0.0
Zn24 Zn 0.61734 0.46651 0.53628 0.0
O25 O 0.50658 0.50344 0.48576 0.0
Zn26 Zn 0.48186 0.38717 0.43817 0.0
Zn27 Zn 0.37689 0.53306 0.5246 0.0
Zn28 Zn 0.551 0.62019 0.44297 0.0
O29 O 0.46367 0.43402 0.3621 0.0
O30 O 0.57302 0.57282 0.3663 0.0
O31 O 0.69534 0.33664 0.51479 0.0
O32 O 0.6087 0.29152 0.43914 0.0
O33 O 0.36034 0.30209 0.46363 0.0
O34 O 0.28446 0.40153 0.52579 0.0
O35 O 0.29939 0.6574 0.49025 0.0
O36 O 0.72824 0.58009 0.53896 0.0
O37 O 0.43007 0.7209 0.43957 0.0
O38 O 0.68439 0.69261 0.47412 0.0
C39 C 0.48468 0.50948 0.63154 0.0
C40 C 0.52101 0.5031 0.33913 0.0
C41 C 0.29098 0.31517 0.49984 0.0
C42 C 0.68504 0.27831 0.47323 0.0
C43 C 0.3353 0.72603 0.45767 0.0
C44 C 0.74624 0.66391 0.51283 0.0
O45 O 0.41582 0.56009 0.60316 0.0
P46 P 0.0632 0.08321 0.3693 0.0
H47 H 0.04585 0.22125 0.46024 0.0
H48 H 0.89365 0.29766 0.5053 0.0
H49 H 0.6784 0.10584 0.40662 0.0
H50 H 0.83377 0.02372 0.36469 0.0
H51 H 0.28978 0.0398 0.36741 0.0
H52 H 0.3991 0.89779 0.40223 0.0
H53 H 0.11653 0.75068 0.46795 0.0
H54 H 0.0066 0.89564 0.43216 0.0
H55 H 0.93121 0.19392 0.29015 0.0
H56 H 0.10682 0.90286 0.29899 0.0
O57 O 0.14218 0.18936 0.36558 0.0
H58 H 0.89899 0.16547 0.19339 0.0
H59 H 0.07623 0.87486 0.20314 0.0
C60 C 0.95096 0.11792 0.40932 0.0
C61 C 0.96646 0.1915 0.45065 0.0
C62 C 0.87892 0.23555 0.47599 0.0
C63 C 0.77404 0.20883 0.45879 0.0
C64 C 0.75858 0.12841 0.42025 0.0
C65 C 0.84704 0.08198 0.39611 0.0
C66 C 0.14101 0.97965 0.39883 0.0
C67 C 0.25135 0.97784 0.38989 0.0
C68 C 0.31369 0.89589 0.40965 0.0
C69 C 0.26672 0.81311 0.43845 0.0
C70 C 0.15525 0.81415 0.44674 0.0
C71 C 0.09255 0.89685 0.4266 0.0
C72 C 0.02166 0.05085 0.30162 0.0
C73 C 0.96076 0.12292 0.2715 0.0
C74 C 0.94231 0.10657 0.21635 0.0
C75 C 0.98634 0.01868 0.19071 0.0
C76 C 0.04239 0.944 0.22174 0.0
C77 C 0.05985 0.95993 0.27675 0.0
P78 P 0.11699 0.92418 0.60455 0.0
H79 H 0.07542 0.70102 0.6002 0.0
H80 H 0.92651 0.59611 0.56415 0.0
H81 H 0.77907 0.87625 0.49909 0.0
H82 H 0.92952 0.982 0.53635 0.0
H83 H 0.27102 0.95719 0.52188 0.0
H84 H 0.33866 0.11252 0.4779 0.0
H85 H 0.11858 0.30447 0.56755 0.0
H86 H 0.04484 0.14477 0.60838 0.0
H87 H 0.93855 0.85646 0.67229 0.0
H88 H 0.21366 0.06417 0.68477 0.0
O89 O 0.22612 0.84924 0.61062 0.0
H90 H 0.90088 0.88797 0.76669 0.0
H91 H 0.17542 0.09756 0.77932 0.0
C92 C 0.01387 0.84882 0.57041 0.0
C93 C 0.01208 0.73988 0.57748 0.0
C94 C 0.92648 0.68007 0.55707 0.0
C95 C 0.84079 0.72808 0.52909 0.0
C96 C 0.84425 0.83721 0.52037 0.0
C97 C 0.9299 0.89756 0.54162 0.0
C98 C 0.15325 0.03947 0.56798 0.0
C99 C 0.23409 0.0319 0.53027 0.0
C100 C 0.27297 0.12142 0.50541 0.0
C101 C 0.23375 0.22122 0.51908 0.0
C102 C 0.15027 0.22868 0.55616 0.0
C103 C 0.10841 0.13771 0.57954 0.0
C104 C 0.07851 0.95873 0.67144 0.0
C105 C -0.01019 0.91041 0.69497 0.0
C106 C 0.96832 0.92847 0.7491 0.0
C107 C 0.03534 -0.00491 0.78048 0.0
C108 C 0.12187 0.04637 0.75615 0.0
C109 C 0.14386 0.02735 0.70214 0.0
P110 P 0.56317 0.58322 0.8693 0.0
H111 H 0.54581 0.72124 0.96024 0.0
H112 H 0.39362 0.79765 0.0053 0.0
H113 H 0.17837 0.60587 0.9066 0.0
H114 H 0.33374 0.52375 0.86467 0.0
H115 H 0.78976 0.53982 0.86741 0.0
H116 H 0.89908 0.39781 0.90224 0.0
H117 H 0.6165 0.2507 0.96795 0.0
H118 H 0.50657 0.39565 0.93216 0.0
H119 H 0.4312 0.69393 0.79014 0.0
H120 H 0.60681 0.40287 0.799 0.0
O121 O 0.64215 0.68938 0.86558 0.0
H122 H 0.39899 0.66547 0.69338 0.0
H123 H 0.57624 0.37486 0.70314 0.0
C124 C 0.45093 0.61793 0.90932 0.0
C125 C 0.46643 0.6915 0.95065 0.0
C126 C 0.37888 0.73555 0.97599 0.0
C127 C 0.27401 0.70885 0.95879 0.0
C128 C 0.25855 0.62843 0.92024 0.0
C129 C 0.34701 0.582 0.8961 0.0
C130 C 0.64099 0.47967 0.89884 0.0
C131 C 0.75133 0.47786 0.8899 0.0
C132 C 0.81367 0.39591 0.90965 0.0
C133 C 0.76669 0.31312 0.93845 0.0
C134 C 0.65522 0.31417 0.94674 0.0
C135 C 0.59253 0.39687 0.9266 0.0
C136 C 0.52165 0.55086 0.80162 0.0
C137 C 0.46075 0.62293 0.77149 0.0
C138 C 0.44231 0.60657 0.71634 0.0
C139 C 0.48634 0.51867 0.69071 0.0
C140 C 0.54239 0.444 0.72174 0.0
C141 C 0.55984 0.45994 0.77675 0.0
P142 P 0.61698 0.42418 0.10455 0.0
H143 H 0.57541 0.20103 0.10019 0.0
H144 H 0.42649 0.09612 0.06414 0.0
H145 H 0.27904 0.37626 -0.0009 0.0
H146 H 0.4295 0.48201 0.03635 0.0
H147 H 0.77102 0.45721 0.02187 0.0
H148 H 0.83865 0.61254 -0.0221 0.0
H149 H 0.61855 0.80448 0.06755 0.0
H150 H 0.54482 0.64477 0.10838 0.0
H151 H 0.43856 0.35645 0.17229 0.0
H152 H 0.71366 0.56417 0.18476 0.0
O153 O 0.72611 0.34924 0.11061 0.0
H154 H 0.4009 0.38795 0.2667 0.0
H155 H 0.67543 0.59755 0.27932 0.0
C156 C 0.51386 0.34882 0.07041 0.0
C157 C 0.51206 0.23989 0.07748 0.0
C158 C 0.42646 0.18008 0.05707 0.0
C159 C 0.34077 0.2281 0.02909 0.0
C160 C 0.34423 0.33722 0.02037 0.0
C161 C 0.42988 0.39757 0.04162 0.0
C162 C 0.65324 0.53948 0.06798 0.0
C163 C 0.73407 0.53191 0.03027 0.0
C164 C 0.77295 0.62144 0.00541 0.0
C165 C 0.73373 0.72123 0.01908 0.0
C166 C 0.65025 0.72869 0.05616 0.0
C167 C 0.60839 0.63771 0.07954 0.0
C168 C 0.57851 0.45873 0.17144 0.0
C169 C 0.48981 0.4104 0.19497 0.0
C170 C 0.46833 0.42845 0.2491 0.0
C171 C 0.53536 0.49507 0.28048 0.0
C172 C 0.62188 0.54636 0.25614 0.0
C173 C 0.64386 0.52735 0.20214 0.0
loop_
_geom_bond_atom_site_label_1
_geom_bond_atom_site_label_2
_geom_bond_distance
_geom_bond_site_symmetry_2
_ccdc_geom_bond_type
O0 Zn1 1.953 . S
O0 C16 1.225 1_565 S
Zn1 O0 1.953 . S
Zn1 O2 1.949 1_565 S
Zn1 O8 1.919 . S
Zn1 O13 1.924 1_565 S
O2 Zn1 1.949 1_545 S
O2 Zn3 1.923 1_444 S
O2 Zn4 1.950 1_455 S
O2 Zn5 1.945 1_554 S
Zn3 O2 1.923 1_666 S
Zn3 O6 1.933 . S
Zn3 O9 1.941 1_655 S
Zn3 O10 1.965 . S
Zn4 O2 1.950 1_655 S
Zn4 O11 1.938 1_545 S
Zn4 O12 1.906 . S
Zn4 O22 1.953 . S
Zn5 O2 1.945 1_556 S
Zn5 O7 1.932 . S
Zn5 O14 1.977 1_455 S
Zn5 O15 1.910 . S
O6 Zn3 1.933 . S
O6 C17 1.226 1_665 S
O7 Zn5 1.932 . S
O7 C17 1.307 . S
O8 Zn1 1.919 . S
O8 C19 1.253 1_554 S
O9 Zn3 1.941 1_455 S
O9 C19 1.283 . S
O10 Zn3 1.965 . S
O10 C18 1.303 1_556 S
O11 Zn4 1.938 1_565 S
O11 C18 1.247 . S
O12 Zn4 1.906 . S
O12 C20 1.304 1_554 S
O13 Zn1 1.924 1_545 S
O13 C21 1.311 . S
O14 Zn5 1.977 1_655 S
O14 C20 1.272 . S
O15 Zn5 1.910 . S
O15 C21 1.231 1_556 S
C16 O0 1.225 1_545 S
C16 O22 1.298 1_455 S
C17 O6 1.226 1_445 S
C17 O7 1.307 . S
C18 O10 1.303 1_554 S
C18 O11 1.247 . S
C19 O8 1.253 1_556 S
C19 O9 1.283 . S
C20 O12 1.304 1_556 S
C20 O14 1.272 . S
C21 O13 1.311 . S
C21 O15 1.231 1_554 S
O22 Zn4 1.953 . S
O22 C16 1.298 1_655 S
O23 Zn24 1.953 . S
O23 C39 1.225 . S
Zn24 O23 1.953 . S
Zn24 O25 1.949 . S
Zn24 O31 1.919 . S
Zn24 O36 1.924 . S
O25 Zn24 1.949 . S
O25 Zn26 1.923 . S
O25 Zn27 1.950 . S
O25 Zn28 1.945 . S
Zn26 O25 1.923 . S
Zn26 O29 1.933 . S
Zn26 O32 1.941 . S
Zn26 O33 1.965 . S
Zn27 O25 1.950 . S
Zn27 O34 1.938 . S
Zn27 O35 1.906 . S
Zn27 O45 1.953 . S
Zn28 O25 1.945 . S
Zn28 O30 1.932 . S
Zn28 O37 1.977 . S
Zn28 O38 1.910 . S
O29 Zn26 1.933 . S
O29 C40 1.226 . S
O30 Zn28 1.932 . S
O30 C40 1.307 . S
O31 Zn24 1.919 . S
O31 C42 1.253 . S
O32 Zn26 1.941 . S
O32 C42 1.283 . S
O33 Zn26 1.965 . S
O33 C41 1.303 . S
O34 Zn27 1.938 . S
O34 C41 1.247 . S
O35 Zn27 1.906 . S
O35 C43 1.304 . S
O36 Zn24 1.924 . S
O36 C44 1.311 . S
O37 Zn28 1.977 . S
O37 C43 1.272 . S
O38 Zn28 1.910 . S
O38 C44 1.231 . S
C39 O23 1.225 . S
C39 O45 1.298 . S
C40 O29 1.226 . S
C40 O30 1.307 . S
C41 O33 1.303 . S
C41 O34 1.247 . S
C42 O31 1.253 . S
C42 O32 1.283 . S
C43 O35 1.304 . S
C43 O37 1.272 . S
C44 O36 1.311 . S
C44 O38 1.231 . S
O45 Zn27 1.953 . S
O45 C39 1.298 . S
P46 O57 1.490 . S
P46 C60 1.812 1_455 S
P46 C66 1.803 1_545 S
P46 C72 1.819 . S
H47 C61 0.941 1_455 S
H48 C62 0.939 . S
H49 C64 0.940 . S
H50 C65 0.940 . S
H51 C67 0.939 1_545 S
H52 C68 0.942 . S
H53 C70 0.940 . S
H54 C71 0.939 . S
H55 C73 0.941 . S
H56 C77 0.939 . S
O57 P46 1.490 . S
H58 C74 0.939 . S
H59 C76 0.940 . S
C60 P46 1.812 1_655 S
C60 C61 1.389 . S
C60 C65 1.391 . S
C61 H47 0.941 1_655 S
C61 C60 1.389 . S
C61 C62 1.397 . S
C62 H48 0.939 . S
C62 C61 1.397 . S
C62 C63 1.378 . S
C63 C62 1.378 . S
C63 C64 1.378 . S
C64 H49 0.940 . S
C64 C63 1.378 . S
C64 C65 1.396 . S
C65 H50 0.940 . S
C65 C60 1.391 . S
C65 C64 1.396 . S
C66 P46 1.803 1_565 S
C66 C67 1.378 . S
C66 C71 1.400 . S
C67 H51 0.939 1_565 S
C67 C66 1.378 . S
C67 C68 1.361 . S
C68 H52 0.942 . S
C68 C67 1.361 . S
C68 C69 1.369 . S
C69 C68 1.369 . S
C69 C70 1.404 . S
C70 H53 0.940 . S
C70 C69 1.404 . S
C70 C71 1.389 . S
C71 H54 0.939 . S
C71 C66 1.400 . S
C71 C70 1.389 . S
C72 P46 1.819 . S
C72 C73 1.391 . S
C72 C77 1.391 1_545 S
C73 H55 0.941 . S
C73 C72 1.391 . S
C73 C74 1.396 . S
C74 H58 0.939 . S
C74 C73 1.396 . S
C74 C75 1.397 . S
C75 C74 1.397 . S
C75 C76 1.385 1_545 S
C76 H59 0.940 . S
C76 C75 1.385 1_565 S
C76 C77 1.388 . S
C77 H56 0.939 . S
C77 C72 1.391 1_565 S
C77 C76 1.388 . S
P78 O89 1.490 . S
P78 C92 1.812 . S
P78 C98 1.803 1_565 S
P78 C104 1.819 . S
H79 C93 0.941 . S
H80 C94 0.939 . S
H81 C96 0.940 . S
H82 C97 0.940 . S
H83 C99 0.944 . S
H84 C100 0.942 . S
H85 C102 0.940 . S
H86 C103 0.939 . S
H87 C105 0.941 . S
H88 C109 0.939 . S
O89 P78 1.490 . S
H90 C106 0.939 . S
H91 C108 0.940 . S
C92 P78 1.812 . S
C92 C93 1.389 . S
C92 C97 1.391 1_455 S
C93 H79 0.941 . S
C93 C92 1.389 . S
C93 C94 1.397 1_455 S
C94 H80 0.939 . S
C94 C93 1.397 1_655 S
C94 C95 1.378 . S
C95 C94 1.378 . S
C95 C96 1.378 . S
C96 H81 0.940 . S
C96 C95 1.378 . S
C96 C97 1.396 . S
C97 H82 0.940 . S
C97 C92 1.391 1_655 S
C97 C96 1.396 . S
C98 P78 1.803 1_545 S
C98 C99 1.378 . S
C98 C103 1.400 . S
C99 H83 0.944 . S
C99 C98 1.378 . S
C99 C100 1.361 . S
C100 H84 0.942 . S
C100 C99 1.361 . S
C100 C101 1.369 . S
C101 C100 1.369 . S
C101 C102 1.404 . S
C102 H85 0.940 . S
C102 C101 1.404 . S
C102 C103 1.389 . S
C103 H86 0.939 . S
C103 C98 1.400 . S
C103 C102 1.389 . S
C104 P78 1.819 . S
C104 C105 1.391 . S
C104 C109 1.391 1_565 S
C105 H87 0.941 . S
C105 C104 1.391 . S
C105 C106 1.396 . S
C106 H90 0.939 . S
C106 C105 1.396 . S
C106 C107 1.397 . S
C107 C106 1.397 . S
C107 C108 1.385 1_565 S
C108 H91 0.940 . S
C108 C107 1.385 1_545 S
C108 C109 1.388 . S
C109 H88 0.939 . S
C109 C104 1.391 1_545 S
C109 C108 1.388 . S
P110 O121 1.490 . S
P110 C124 1.812 . S
P110 C130 1.803 . S
P110 C136 1.819 . S
H111 C125 0.941 . S
H112 C126 0.939 . S
H113 C128 0.940 . S
H114 C129 0.940 . S
H115 C131 0.939 . S
H116 C132 0.942 . S
H117 C134 0.940 . S
H118 C135 0.939 . S
H119 C137 0.941 . S
H120 C141 0.939 . S
O121 P110 1.490 . S
H122 C138 0.939 . S
H123 C140 0.940 . S
C124 P110 1.812 . S
C124 C125 1.389 . S
C124 C129 1.391 . S
C125 H111 0.941 . S
C125 C124 1.389 . S
C125 C126 1.397 1_556 S
C126 H112 0.939 . S
C126 C125 1.397 1_554 S
C126 C127 1.378 1_554 S
C127 C126 1.378 1_556 S
C127 C128 1.378 . S
C128 H113 0.940 . S
C128 C127 1.378 . S
C128 C129 1.396 . S
C129 H114 0.940 . S
C129 C124 1.391 . S
C129 C128 1.396 . S
C130 P110 1.803 . S
C130 C131 1.378 . S
C130 C135 1.400 . S
C131 H115 0.939 . S
C131 C130 1.378 . S
C131 C132 1.361 . S
C132 H116 0.942 . S
C132 C131 1.361 . S
C132 C133 1.369 . S
C133 C132 1.369 . S
C133 C134 1.404 . S
C134 H117 0.940 . S
C134 C133 1.404 . S
C134 C135 1.389 . S
C135 H118 0.939 . S
C135 C130 1.400 . S
C135 C134 1.389 . S
C136 P110 1.819 . S
C136 C137 1.391 . S
C136 C141 1.391 . S
C137 H119 0.941 . S
C137 C136 1.391 . S
C137 C138 1.396 . S
C138 H122 0.939 . S
C138 C137 1.396 . S
C138 C139 1.397 . S
C139 C138 1.397 . S
C139 C140 1.385 . S
C140 H123 0.940 . S
C140 C139 1.385 . S
C140 C141 1.388 . S
C141 H120 0.939 . S
C141 C136 1.391 . S
C141 C140 1.388 . S
P142 O153 1.490 . S
P142 C156 1.812 . S
P142 C162 1.803 . S
P142 C168 1.819 . S
H143 C157 0.941 . S
H144 C158 0.939 1_556 S
H145 C160 0.940 . S
H146 C161 0.940 . S
H147 C163 0.939 . S
H148 C164 0.942 . S
H149 C166 0.940 . S
H150 C167 0.939 . S
H151 C169 0.941 . S
H152 C173 0.939 . S
O153 P142 1.490 . S
H154 C170 0.939 . S
H155 C172 0.940 . S
C156 P142 1.812 . S
C156 C157 1.389 . S
C156 C161 1.391 . S
C157 H143 0.941 . S
C157 C156 1.389 . S
C157 C158 1.397 . S
C158 H144 0.939 1_554 S
C158 C157 1.397 . S
C158 C159 1.378 . S
C159 C158 1.378 . S
C159 C160 1.378 . S
C160 H145 0.940 . S
C160 C159 1.378 . S
C160 C161 1.396 . S
C161 H146 0.940 . S
C161 C156 1.391 . S
C161 C160 1.396 . S
C162 P142 1.803 . S
C162 C163 1.378 . S
C162 C167 1.400 . S
C163 H147 0.939 . S
C163 C162 1.378 . S
C163 C164 1.361 . S
C164 H148 0.942 . S
C164 C163 1.361 . S
C164 C165 1.369 . S
C165 C164 1.369 . S
C165 C166 1.404 . S
C166 H149 0.940 . S
C166 C165 1.404 . S
C166 C167 1.389 . S
C167 H150 0.939 . S
C167 C162 1.400 . S
C167 C166 1.389 . S
C168 P142 1.819 . S
C168 C169 1.391 . S
C168 C173 1.391 . S
C169 H151 0.941 . S
C169 C168 1.391 . S
C169 C170 1.396 . S
C170 H154 0.939 . S
C170 C169 1.396 . S
C170 C171 1.397 . S
C171 C170 1.397 . S
C171 C172 1.385 . S
C172 H155 0.940 . S
C172 C171 1.385 . S
C172 C173 1.388 . S
C173 H152 0.939 . S
C173 C168 1.391 . S
C173 C172 1.388 . S
C159 C21 1.492 . S
C19 C127 1.495 . S
C18 C165 1.536 . S
C20 C133 1.454 . S
C44 C95 1.492 . S
C42 C63 1.495 . S
C101 C41 1.536 . S
C69 C43 1.454 . S
C16 C75 1.445 . S
C17 C107 1.431 1_545 S
C139 C39 1.445 . S
C40 C171 1.431 . S
