# Generated by pormake.
# Topology pts, (4,4)-cn, num edge types: 1
# Building blocks:
#     Node 0, Type 0, BuildingBlock: KUFVIS_clean_linker_0, # of connection points: 4
#     Node 1, Type 0, BuildingBlock: KUFVIS_clean_linker_0, # of connection points: 4
#     Node 2, Type 1, BuildingBlock: QUQFOY_clean_sbu_1, # of connection points: 4
#     Node 3, Type 1, BuildingBlock: QUQFOY_clean_sbu_1, # of connection points: 4
#     Edge 4, Type (0, 1), BuildingBlock: XIVTED_clean_linker_0, # of connection points: 2
#     Edge 5, Type (0, 1), BuildingBlock: XIVTED_clean_linker_0, # of connection points: 2
#     Edge 6, Type (0, 1), BuildingBlock: XIVTED_clean_linker_0, # of connection points: 2
#     Edge 7, Type (0, 1), BuildingBlock: XIVTED_clean_linker_0, # of connection points: 2
#     Edge 8, Type (0, 1), BuildingBlock: XIVTED_clean_linker_0, # of connection points: 2
#     Edge 9, Type (0, 1), BuildingBlock: XIVTED_clean_linker_0, # of connection points: 2
#     Edge 10, Type (0, 1), BuildingBlock: XIVTED_clean_linker_0, # of connection points: 2
#     Edge 11, Type (0, 1), BuildingBlock: XIVTED_clean_linker_0, # of connection points: 2
# Relax obj value: 0.103
# Max RMSD: 0.273
# Mean RMSD: 0.186
data_MOF--net-pts--node1-QUQFOY_clean_sbu_1--node2-KUFVIS_clean_linker_0--edge1-XIVTED_clean_linker_0
_symmetry_space_group_name_H-M    P1
_symmetry_Int_Tables_number       1
_symmetry_cell_setting            triclinic
loop_
_symmetry_equiv_pos_as_xyz
'x, y, z'
_cell_length_a     23.567698
_cell_length_b     25.395932
_cell_length_c     39.867055
_cell_angle_alpha  89.835395
_cell_angle_beta   89.494856
_cell_angle_gamma 89.647781
loop_
_atom_site_label
_atom_site_type_symbol
_atom_site_fract_x
_atom_site_fract_y
_atom_site_fract_z
_atom_type_partial_charge
H0 H 0.33618 1.0329 -0.04453 0.0
H1 H 0.49236 1.02154 0.90014 0.0
H2 H 0.49223 0.06438 0.0052 0.0
H3 H 0.57903 1.0323 0.00341 0.0
H4 H 0.72694 0.07865 0.94814 0.0
H5 H 0.56754 0.07159 0.89787 0.0
C6 C 0.38213 1.03506 -0.04533 0.0
C7 C 0.41169 1.04731 -0.01614 0.0
C8 C 0.41124 1.02677 0.92437 0.0
C9 C 0.47063 1.0299 0.92355 0.0
C10 C 0.5013 1.04354 -0.04751 0.0
C11 C 0.47083 0.05208 -0.01734 0.0
C12 C 0.56429 0.05111 -0.04907 0.0
C13 C 0.59772 1.04522 -0.02007 0.0
C14 C 0.65571 0.05705 -0.02081 0.0
C15 C 0.68159 0.07162 0.9489 0.0
C16 C 0.65009 0.07486 0.91938 0.0
C17 C 0.59147 0.0659 0.92063 0.0
H18 H 0.99313 0.73228 0.45513 0.0
H19 H 0.99647 0.58622 0.50877 0.0
H20 H 1.02246 0.58961 0.40094 0.0
H21 H 0.98659 0.50937 0.40425 0.0
H22 H 0.03416 0.36778 0.45528 0.0
H23 H 0.05159 0.51533 0.50556 0.0
C24 C 0.99652 0.68967 0.45502 0.0
C25 C 1.00476 0.66368 0.42451 0.0
C26 C 0.994 0.66217 0.48539 0.0
C27 C 1.0007 0.60718 0.48523 0.0
C28 C 1.01117 0.57964 0.45489 0.0
C29 C 1.0138 0.60893 0.42459 0.0
C30 C 1.01834 0.52072 0.45485 0.0
C31 C 1.00401 0.49064 0.42631 0.0
C32 C 1.01019 0.43559 0.42632 0.0
C33 C 0.03001 0.41031 0.45515 0.0
C34 C 0.0441 0.43865 0.48388 0.0
C35 C 0.03882 0.4938 0.48353 0.0
O36 O 0.96309 1.00457 0.16964 0.0
Cd37 Cd 0.03497 0.99369 0.1982 0.0
Cd38 Cd 0.02915 0.1046 0.20216 0.0
O39 O 0.95849 0.0912 0.17375 0.0
O40 O 0.03915 0.91679 0.2083 0.0
O41 O 0.0265 0.97774 0.24731 0.0
C42 C 0.03179 0.92859 0.23946 0.0
C43 C 1.01896 0.16825 0.24404 0.0
C44 C 0.93883 0.04811 0.16284 0.0
C45 C 0.13345 0.05598 0.17034 0.0
O46 O 0.10692 0.09775 0.17857 0.0
O47 O 0.11257 1.01097 0.17667 0.0
O48 O 1.02365 0.18114 0.21289 0.0
O49 O 1.02068 0.11877 0.25164 0.0
O50 O 0.96726 0.10417 0.73115 0.0
Cd51 Cd 0.04453 0.10613 0.70638 0.0
Cd52 Cd 0.02555 0.99459 0.70715 0.0
O53 O 0.95168 1.01846 0.73059 0.0
O54 O 0.05563 0.18266 0.69713 0.0
O55 O 0.05031 0.12283 0.6571 0.0
C56 C 0.05625 0.17153 0.66564 0.0
C57 C 1.01715 0.92782 0.66744 0.0
C58 C 0.93624 0.0649 0.73837 0.0
C59 C 0.13023 1.03694 0.74127 0.0
O60 O 0.09997 0.99746 0.7339 0.0
O61 O 0.11588 0.0831 0.73215 0.0
O62 O 1.01548 0.9177 0.6991 0.0
O63 O 1.02395 0.97617 0.65814 0.0
H64 H 0.32853 0.11965 -0.00401 0.0
H65 H 0.21256 0.97882 0.1576 0.0
H66 H 0.42273 0.99392 0.04289 0.0
H67 H 0.17261 0.14133 0.13547 0.0
H68 H 0.2897 0.98219 0.11613 0.0
H69 H 0.26967 0.12755 0.0467 0.0
C70 C 0.33702 0.09413 0.01721 0.0
C71 C 0.38008 0.05598 0.01547 0.0
C72 C 0.26462 1.01732 0.12082 0.0
C73 C 0.31279 0.06408 0.07309 0.0
C74 C 0.22054 1.01541 0.1444 0.0
C75 C 0.18572 0.0597 0.14974 0.0
C76 C 0.27307 0.06346 0.10201 0.0
C77 C 0.19821 0.10618 0.13208 0.0
C78 C 0.30373 0.09874 0.04613 0.0
C79 C 0.3898 1.02383 0.04349 0.0
N80 N 0.24021 0.10656 0.10855 0.0
N81 N 0.35571 1.02799 0.07107 0.0
H82 H 1.00714 0.45325 0.54874 0.0
H83 H 0.08596 0.16148 0.59944 0.0
H84 H 0.11784 0.35528 0.48845 0.0
H85 H 0.04156 0.27751 0.67422 0.0
H86 H 0.09428 0.23196 0.55772 0.0
H87 H 1.01826 0.39111 0.59548 0.0
C88 C 0.03486 0.41942 0.54559 0.0
C89 C 0.06075 0.40892 0.51447 0.0
C90 C 0.08319 0.24204 0.58334 0.0
C91 C 0.07227 0.33714 0.56732 0.0
C92 C 0.07807 0.20179 0.60707 0.0
C93 C 0.06285 0.21366 0.64027 0.0
C94 C 0.07195 0.29441 0.59272 0.0
C95 C 0.05342 0.26665 0.64886 0.0
C96 C 0.04082 0.38376 0.57216 0.0
C97 C 0.09594 0.36422 0.51176 0.0
N98 N 0.05746 0.30506 0.62514 0.0
N99 N 0.0998 0.3295 0.53758 0.0
H100 H 0.66818 0.97537 0.02372 0.0
H101 H 0.8842 0.13482 0.13814 0.0
H102 H 0.7205 0.13506 0.0044 0.0
H103 H 0.88045 0.96479 0.13618 0.0
H104 H 0.80847 0.13715 0.09703 0.0
H105 H 0.73116 0.9727 0.07265 0.0
C106 C 0.69249 1.00994 0.03007 0.0
C107 C 0.68976 0.05537 0.01007 0.0
C108 C 0.82399 0.09932 0.10574 0.0
C109 C 0.76089 0.05281 0.0656 0.0
C110 C 0.86717 0.09789 0.12931 0.0
C111 C 0.88926 0.04948 0.14036 0.0
C112 C 0.80236 0.05206 0.09319 0.0
C113 C 0.86508 1.00298 0.12811 0.0
C114 C 0.72844 1.00835 0.05777 0.0
C115 C 0.72203 0.09915 0.01909 0.0
N116 N 0.82302 1.0054 0.10499 0.0
N117 N 0.75628 0.09679 0.04619 0.0
H118 H 0.9196 0.74303 0.49714 0.0
H119 H 0.03693 0.82255 0.67645 0.0
H120 H 0.05105 0.65164 0.54505 0.0
H121 H 0.98184 0.93585 0.60254 0.0
H122 H 1.02461 0.75201 0.63515 0.0
H123 H 0.92173 0.80546 0.54354 0.0
C124 C 0.94843 0.73572 0.51768 0.0
C125 C 0.98616 0.69268 0.51687 0.0
C126 C 1.01517 0.79233 0.62813 0.0
C127 C 0.98823 0.76377 0.57017 0.0
C128 C 1.02208 0.83253 0.65157 0.0
C129 C 1.0106 0.8851 0.64277 0.0
C130 C 0.99532 0.80478 0.59601 0.0
C131 C 0.99158 0.89592 0.61025 0.0
C132 C 0.94967 0.77144 0.54405 0.0
C133 C 1.02146 0.68439 0.54461 0.0
N134 N 0.98416 0.85603 0.58811 0.0
N135 N 1.02206 0.72 0.5701 0.0
H136 H 0.32577 0.95676 0.91333 0.0
H137 H 0.21643 0.10638 0.75244 0.0
H138 H 0.42229 0.07976 0.86516 0.0
H139 H 0.15783 0.9511 0.77955 0.0
H140 H 0.29291 0.09721 0.7931 0.0
H141 H 0.26417 0.95308 0.86425 0.0
C142 C 0.33432 0.98248 0.89218 0.0
C143 C 0.37885 1.01876 0.89323 0.0
C144 C 0.26376 0.06487 0.78981 0.0
C145 C 0.30839 1.01539 0.83739 0.0
C146 C 0.21998 0.07015 0.7667 0.0
C147 C 0.18038 1.02964 0.76282 0.0
C148 C 0.26734 1.01916 0.80959 0.0
C149 C 0.18729 0.98341 0.78179 0.0
C150 C 0.29937 0.9803 0.86418 0.0
C151 C 0.38848 0.05109 0.86519 0.0
N152 N 0.22942 0.97973 0.80473 0.0
N153 N 0.35295 0.04923 0.83858 0.0
H154 H 0.04267 0.45321 0.36096 0.0
H155 H 0.98844 0.15535 0.30999 0.0
H156 H 0.95105 0.34347 0.42362 0.0
H157 H 0.03207 0.27464 0.23703 0.0
H158 H 0.97654 0.22414 0.35232 0.0
H159 H 0.03847 0.38996 0.31463 0.0
C160 C 1.02062 0.41634 0.36473 0.0
C161 C 0.99797 0.40321 0.3963 0.0
C162 C 0.98838 0.23531 0.32699 0.0
C163 C 0.99424 0.33036 0.34389 0.0
C164 C 0.99553 0.196 0.30289 0.0
C165 C 1.01148 0.20925 0.27 0.0
C166 C 0.99798 0.28823 0.31826 0.0
C167 C 1.01978 0.26265 0.26213 0.0
C168 C 1.01863 0.38009 0.33841 0.0
C169 C 0.97018 0.3547 0.39989 0.0
N170 N 1.01338 0.30016 0.28615 0.0
N171 N 0.96984 0.31977 0.37421 0.0
H172 H 0.72655 0.15202 0.90402 0.0
H173 H 0.85023 0.99478 0.74939 0.0
H174 H 0.64215 1.01768 0.8619 0.0
H175 H 0.90272 0.1529 0.77299 0.0
H176 H 0.77007 1.00479 0.78811 0.0
H177 H 0.78755 0.15647 0.85412 0.0
C178 C 0.72035 0.12403 0.88394 0.0
C179 C 0.67976 0.08416 0.88709 0.0
C180 C 0.79863 1.03758 0.78445 0.0
C181 C 0.74973 0.08837 0.83031 0.0
C182 C 0.84455 1.03182 0.76244 0.0
C183 C 0.88368 0.07281 0.75829 0.0
C184 C 0.7923 0.08434 0.80287 0.0
C185 C 0.87384 0.12012 0.77559 0.0
C186 C 0.75502 0.1266 0.85547 0.0
C187 C 0.67298 0.04905 0.86035 0.0
N188 N 0.82963 0.12429 0.79754 0.0
N189 N 0.70834 0.05138 0.8333 0.0
H190 H 0.92838 0.73985 0.4079 0.0
H191 H 0.07046 0.82693 0.23507 0.0
H192 H 0.07771 0.66015 0.36982 0.0
H193 H 0.9846 0.9348 0.30212 0.0
H194 H 0.06155 0.75736 0.27772 0.0
H195 H 0.93442 0.80233 0.36154 0.0
C196 C 0.9623 0.73528 0.3896 0.0
C197 C 1.00337 0.69538 0.39313 0.0
C198 C 0.04481 0.79632 0.28298 0.0
C199 C 1.01 0.76662 0.33972 0.0
C200 C 0.04973 0.83595 0.25874 0.0
C201 C 0.02828 0.88672 0.26516 0.0
C202 C 1.01711 0.80735 0.31344 0.0
C203 C 1.00197 0.89634 0.29621 0.0
C204 C 0.96571 0.77103 0.36321 0.0
C205 C 0.04536 0.69045 0.36811 0.0
N206 N 0.99673 0.8569 0.31909 0.0
N207 N 0.04789 0.72602 0.34246 0.0
loop_
_geom_bond_atom_site_label_1
_geom_bond_atom_site_label_2
_geom_bond_distance
_geom_bond_site_symmetry_2
_ccdc_geom_bond_type
H0 C6 0.929 1_565 S
H1 C9 0.931 . S
H2 C11 0.929 1_565 S
H3 C13 0.930 . S
H4 C15 0.930 . S
H5 C17 0.931 1_565 S
C6 H0 0.929 1_545 S
C6 C7 1.379 1_545 S
C6 C8 1.394 1_554 S
C7 C6 1.379 1_565 S
C7 C11 1.381 1_565 S
C8 C6 1.394 1_556 S
C8 C9 1.400 . S
C9 H1 0.931 . S
C9 C8 1.400 . S
C9 C10 1.375 1_556 S
C10 C9 1.375 1_554 S
C10 C11 1.417 . S
C10 C12 1.501 . S
C11 H2 0.929 1_545 S
C11 C7 1.381 1_545 S
C11 C10 1.417 . S
C12 C10 1.501 . S
C12 C13 1.384 . S
C12 C17 1.408 1_554 S
C13 H3 0.930 . S
C13 C12 1.384 . S
C13 C14 1.389 . S
C14 C13 1.389 . S
C14 C15 1.405 . S
C15 H4 0.930 . S
C15 C14 1.405 . S
C15 C16 1.366 1_554 S
C16 C15 1.366 1_556 S
C16 C17 1.401 . S
C17 H5 0.931 1_545 S
C17 C12 1.408 1_556 S
C17 C16 1.401 . S
H18 C24 0.930 . S
H19 C27 0.931 . S
H20 C29 0.931 . S
H21 C31 0.930 . S
H22 C33 0.930 . S
H23 C35 0.931 . S
C24 H18 0.930 . S
C24 C25 1.380 . S
C24 C26 1.394 1_455 S
C25 C24 1.380 . S
C25 C29 1.382 . S
C26 C24 1.394 1_655 S
C26 C27 1.400 . S
C27 H19 0.931 . S
C27 C26 1.400 . S
C27 C28 1.375 . S
C28 C27 1.375 . S
C28 C29 1.415 1_655 S
C28 C30 1.501 . S
C29 H20 0.931 . S
C29 C25 1.382 . S
C29 C28 1.415 1_455 S
C30 C28 1.501 . S
C30 C31 1.384 . S
C30 C35 1.408 1_655 S
C31 H21 0.930 . S
C31 C30 1.384 . S
C31 C32 1.389 . S
C32 C31 1.389 . S
C32 C33 1.405 . S
C33 H22 0.930 . S
C33 C32 1.405 . S
C33 C34 1.364 1_655 S
C34 C33 1.364 1_455 S
C34 C35 1.400 . S
C35 H23 0.931 . S
C35 C30 1.408 1_455 S
C35 C34 1.400 . S
O36 Cd37 2.223 1_655 S
O36 C44 1.315 . S
Cd37 O36 2.223 1_455 S
Cd37 O40 2.297 1_455 S
Cd37 O41 2.439 1_455 S
Cd37 O47 2.240 1_565 S
Cd38 O39 2.240 1_545 S
Cd38 O46 2.223 1_655 S
Cd38 O48 2.297 1_655 S
Cd38 O49 2.439 1_655 S
O39 Cd38 2.240 1_565 S
O39 C44 1.279 . S
O40 Cd37 2.297 1_655 S
O40 C42 1.247 . S
O41 Cd37 2.439 1_655 S
O41 C42 1.208 . S
C42 O40 1.247 . S
C42 O41 1.208 . S
C43 O48 1.247 . S
C43 O49 1.208 . S
C44 O36 1.315 . S
C44 O39 1.279 . S
C45 O46 1.315 . S
C45 O47 1.279 . S
O46 Cd38 2.223 1_455 S
O46 C45 1.315 . S
O47 Cd37 2.240 1_545 S
O47 C45 1.279 . S
O48 Cd38 2.297 1_455 S
O48 C43 1.247 . S
O49 Cd38 2.439 1_455 S
O49 C43 1.208 . S
O50 Cd51 2.223 1_655 S
O50 C58 1.315 . S
Cd51 O50 2.223 1_455 S
Cd51 O54 2.297 1_455 S
Cd51 O55 2.439 1_455 S
Cd51 O61 2.240 1_545 S
Cd52 O53 2.240 1_565 S
Cd52 O60 2.223 1_655 S
Cd52 O62 2.297 1_655 S
Cd52 O63 2.439 1_655 S
O53 Cd52 2.240 1_545 S
O53 C58 1.279 . S
O54 Cd51 2.297 1_655 S
O54 C56 1.247 . S
O55 Cd51 2.439 1_655 S
O55 C56 1.208 . S
C56 O54 1.247 . S
C56 O55 1.208 . S
C57 O62 1.247 . S
C57 O63 1.208 . S
C58 O50 1.315 . S
C58 O53 1.279 . S
C59 O60 1.315 . S
C59 O61 1.279 . S
O60 Cd52 2.223 1_455 S
O60 C59 1.315 . S
O61 Cd51 2.240 1_565 S
O61 C59 1.279 . S
O62 Cd52 2.297 1_455 S
O62 C57 1.247 . S
O63 Cd52 2.439 1_455 S
O63 C57 1.208 . S
H64 C70 0.930 . S
H65 C74 0.930 . S
H66 C79 0.929 . S
H67 C77 0.929 . S
H68 C72 0.929 . S
H69 C78 0.929 . S
C70 H64 0.930 . S
C70 C71 1.367 . S
C70 C78 1.378 . S
C71 C70 1.367 . S
C71 C79 1.433 1_545 S
C72 H68 0.929 . S
C72 C74 1.378 . S
C72 C76 1.350 1_565 S
C73 C76 1.463 . S
C73 C78 1.350 . S
C73 N81 1.427 1_545 S
C74 H65 0.930 . S
C74 C72 1.378 . S
C74 C75 1.367 1_565 S
C75 C74 1.367 1_545 S
C75 C77 1.433 . S
C76 C72 1.350 1_545 S
C76 C73 1.463 . S
C76 N80 1.427 . S
C77 H67 0.929 . S
C77 C75 1.433 . S
C77 N80 1.384 . S
C78 H69 0.929 . S
C78 C70 1.378 . S
C78 C73 1.350 . S
C79 H66 0.929 . S
C79 C71 1.433 1_565 S
C79 N81 1.384 . S
N80 C76 1.427 . S
N80 C77 1.384 . S
N81 C73 1.427 1_565 S
N81 C79 1.384 . S
H82 C88 0.930 . S
H83 C92 0.930 . S
H84 C97 0.929 . S
H85 C95 0.929 . S
H86 C90 0.929 . S
H87 C96 0.929 . S
C88 H82 0.930 . S
C88 C89 1.367 1_655 S
C88 C96 1.378 . S
C89 C88 1.367 1_455 S
C89 C97 1.433 . S
C90 H86 0.929 . S
C90 C92 1.378 . S
C90 C94 1.350 1_455 S
C91 C94 1.463 . S
C91 C96 1.350 . S
C91 N99 1.427 1_655 S
C92 H83 0.930 . S
C92 C90 1.378 . S
C92 C93 1.367 1_455 S
C93 C92 1.367 1_655 S
C93 C95 1.433 . S
C94 C90 1.350 1_655 S
C94 C91 1.463 . S
C94 N98 1.427 . S
C95 H85 0.929 . S
C95 C93 1.433 . S
C95 N98 1.384 . S
C96 H87 0.929 . S
C96 C88 1.378 . S
C96 C91 1.350 . S
C97 H84 0.929 . S
C97 C89 1.433 . S
C97 N99 1.384 . S
N98 C94 1.427 . S
N98 C95 1.384 . S
N99 C91 1.427 1_455 S
N99 C97 1.384 . S
H100 C106 0.930 . S
H101 C110 0.930 . S
H102 C115 0.929 . S
H103 C113 0.929 . S
H104 C108 0.929 . S
H105 C114 0.929 . S
C106 H100 0.930 . S
C106 C107 1.367 1_565 S
C106 C114 1.378 . S
C107 C106 1.367 1_545 S
C107 C115 1.433 . S
C108 H104 0.929 . S
C108 C110 1.378 . S
C108 C112 1.350 1_545 S
C109 C112 1.463 . S
C109 C114 1.350 . S
C109 N117 1.427 1_565 S
C110 H101 0.930 . S
C110 C108 1.378 . S
C110 C111 1.367 1_545 S
C111 C110 1.367 1_565 S
C111 C113 1.433 . S
C112 C108 1.350 1_565 S
C112 C109 1.463 . S
C112 N116 1.427 . S
C113 H103 0.929 . S
C113 C111 1.433 . S
C113 N116 1.384 . S
C114 H105 0.929 . S
C114 C106 1.378 . S
C114 C109 1.350 . S
C115 H102 0.929 . S
C115 C107 1.433 . S
C115 N117 1.384 . S
N116 C112 1.427 . S
N116 C113 1.384 . S
N117 C109 1.427 1_545 S
N117 C115 1.384 . S
H118 C124 0.930 . S
H119 C128 0.930 . S
H120 C133 0.929 . S
H121 C131 0.929 1_655 S
H122 C126 0.929 . S
H123 C132 0.929 . S
C124 H118 0.930 . S
C124 C125 1.367 . S
C124 C132 1.378 . S
C125 C124 1.367 . S
C125 C133 1.433 1_655 S
C126 H122 0.929 . S
C126 C128 1.378 . S
C126 C130 1.350 . S
C127 C130 1.463 . S
C127 C132 1.350 1_455 S
C127 N135 1.427 . S
C128 H119 0.930 . S
C128 C126 1.378 . S
C128 C129 1.367 . S
C129 C128 1.367 . S
C129 C131 1.433 . S
C130 C126 1.350 . S
C130 C127 1.463 . S
C130 N134 1.427 . S
C131 H121 0.929 1_455 S
C131 C129 1.433 . S
C131 N134 1.384 . S
C132 H123 0.929 . S
C132 C124 1.378 . S
C132 C127 1.350 1_655 S
C133 H120 0.929 . S
C133 C125 1.433 1_455 S
C133 N135 1.384 . S
N134 C130 1.427 . S
N134 C131 1.384 . S
N135 C127 1.427 . S
N135 C133 1.384 . S
H136 C142 0.930 . S
H137 C146 0.930 . S
H138 C151 0.929 . S
H139 C149 0.929 . S
H140 C144 0.929 . S
H141 C150 0.929 . S
C142 H136 0.930 . S
C142 C143 1.367 1_565 S
C142 C150 1.378 . S
C143 C142 1.367 1_545 S
C143 C151 1.433 . S
C144 H140 0.929 . S
C144 C146 1.378 . S
C144 C148 1.350 1_545 S
C145 C148 1.463 . S
C145 C150 1.350 . S
C145 N153 1.427 1_565 S
C146 H137 0.930 . S
C146 C144 1.378 . S
C146 C147 1.367 1_545 S
C147 C146 1.367 1_565 S
C147 C149 1.433 . S
C148 C144 1.350 1_565 S
C148 C145 1.463 . S
C148 N152 1.427 . S
C149 H139 0.929 . S
C149 C147 1.433 . S
C149 N152 1.384 . S
C150 H141 0.929 . S
C150 C142 1.378 . S
C150 C145 1.350 . S
C151 H138 0.929 . S
C151 C143 1.433 . S
C151 N153 1.384 . S
N152 C148 1.427 . S
N152 C149 1.384 . S
N153 C145 1.427 1_545 S
N153 C151 1.384 . S
H154 C160 0.930 . S
H155 C164 0.930 . S
H156 C169 0.929 . S
H157 C167 0.929 . S
H158 C162 0.929 . S
H159 C168 0.929 . S
C160 H154 0.930 . S
C160 C161 1.354 1_455 S
C160 C168 1.378 . S
C161 C160 1.354 1_655 S
C161 C169 1.444 . S
C162 H158 0.929 . S
C162 C164 1.378 . S
C162 C166 1.350 1_655 S
C163 C166 1.463 . S
C163 C168 1.350 . S
C163 N171 1.427 1_455 S
C164 H155 0.930 . S
C164 C162 1.378 . S
C164 C165 1.367 1_655 S
C165 C164 1.367 1_455 S
C165 C167 1.433 . S
C166 C162 1.350 1_455 S
C166 C163 1.463 . S
C166 N170 1.427 . S
C167 H157 0.929 . S
C167 C165 1.433 . S
C167 N170 1.384 . S
C168 H159 0.929 . S
C168 C160 1.378 . S
C168 C163 1.350 . S
C169 H156 0.929 . S
C169 C161 1.444 . S
C169 N171 1.384 . S
N170 C166 1.427 . S
N170 C167 1.384 . S
N171 C163 1.427 1_655 S
N171 C169 1.384 . S
H172 C178 0.930 . S
H173 C182 0.932 . S
H174 C187 0.929 . S
H175 C185 0.929 . S
H176 C180 0.929 . S
H177 C186 0.929 . S
C178 H172 0.930 . S
C178 C179 1.374 . S
C178 C186 1.378 . S
C179 C178 1.374 . S
C179 C187 1.428 1_545 S
C180 H176 0.929 . S
C180 C182 1.378 . S
C180 C184 1.350 1_565 S
C181 C184 1.463 . S
C181 C186 1.350 . S
C181 N189 1.427 1_545 S
C182 H173 0.932 . S
C182 C180 1.378 . S
C182 C183 1.365 1_565 S
C183 C182 1.365 1_545 S
C183 C185 1.433 . S
C184 C180 1.350 1_545 S
C184 C181 1.463 . S
C184 N188 1.427 . S
C185 H175 0.929 . S
C185 C183 1.433 . S
C185 N188 1.384 . S
C186 H177 0.929 . S
C186 C178 1.378 . S
C186 C181 1.350 . S
C187 H174 0.929 . S
C187 C179 1.428 1_565 S
C187 N189 1.384 . S
N188 C184 1.427 . S
N188 C185 1.384 . S
N189 C181 1.427 1_565 S
N189 C187 1.384 . S
H190 C196 0.930 . S
H191 C200 0.930 . S
H192 C205 0.929 . S
H193 C203 0.929 . S
H194 C198 0.929 . S
H195 C204 0.929 . S
C196 H190 0.930 . S
C196 C197 1.367 1_655 S
C196 C204 1.378 . S
C197 C196 1.367 1_455 S
C197 C205 1.433 . S
C198 H194 0.929 . S
C198 C200 1.378 . S
C198 C202 1.350 . S
C199 C202 1.463 . S
C199 C204 1.350 . S
C199 N207 1.427 1_655 S
C200 H191 0.930 . S
C200 C198 1.378 . S
C200 C201 1.367 . S
C201 C200 1.367 . S
C201 C203 1.433 . S
C202 C198 1.350 . S
C202 C199 1.463 . S
C202 N206 1.427 . S
C203 H193 0.929 . S
C203 C201 1.433 . S
C203 N206 1.384 . S
C204 H195 0.929 . S
C204 C196 1.378 . S
C204 C199 1.350 . S
C205 H192 0.929 . S
C205 C197 1.433 . S
C205 N207 1.384 . S
N206 C202 1.427 . S
N206 C203 1.384 . S
N207 C199 1.427 1_455 S
N207 C205 1.384 . S
C75 C45 1.672 . S
C71 C7 1.623 1_545 S
C93 C56 1.564 . S
C89 C34 1.589 . S
C111 C44 1.675 . S
C107 C14 1.637 . S
C129 C57 1.562 . S
C125 C26 1.592 . S
C147 C59 1.666 . S
C143 C8 1.625 . S
C165 C43 1.570 . S
C161 C32 1.609 . S
C183 C58 1.668 . S
C179 C16 1.615 . S
C197 C25 1.587 . S
C201 C42 1.564 . S
