# Generated by pormake.
# Topology pts, (4,4)-cn, num edge types: 1
# Building blocks:
#     Node 0, Type 0, BuildingBlock: KUFVIS_clean_linker_0, # of connection points: 4
#     Node 1, Type 0, BuildingBlock: KUFVIS_clean_linker_0, # of connection points: 4
#     Node 2, Type 1, BuildingBlock: AZAVOO_clean_sbu_0, # of connection points: 4
#     Node 3, Type 1, BuildingBlock: AZAVOO_clean_sbu_0, # of connection points: 4
#     Edge 4, Type (0, 1), BuildingBlock: AJUNOK_clean_linker_0, # of connection points: 2
#     Edge 5, Type (0, 1), BuildingBlock: AJUNOK_clean_linker_0, # of connection points: 2
#     Edge 6, Type (0, 1), BuildingBlock: AJUNOK_clean_linker_0, # of connection points: 2
#     Edge 7, Type (0, 1), BuildingBlock: AJUNOK_clean_linker_0, # of connection points: 2
#     Edge 8, Type (0, 1), BuildingBlock: AJUNOK_clean_linker_0, # of connection points: 2
#     Edge 9, Type (0, 1), BuildingBlock: AJUNOK_clean_linker_0, # of connection points: 2
#     Edge 10, Type (0, 1), BuildingBlock: AJUNOK_clean_linker_0, # of connection points: 2
#     Edge 11, Type (0, 1), BuildingBlock: AJUNOK_clean_linker_0, # of connection points: 2
# Relax obj value: 0.013
# Max RMSD: 0.077
# Mean RMSD: 0.072
data_MOF--net-pts--node1-AZAVOO_clean_sbu_0--node2-KUFVIS_clean_linker_0--edge1-AJUNOK_clean_linker_0
_symmetry_space_group_name_H-M    P1
_symmetry_Int_Tables_number       1
_symmetry_cell_setting            triclinic
loop_
_symmetry_equiv_pos_as_xyz
'x, y, z'
_cell_length_a     17.767628
_cell_length_b     19.138885
_cell_length_c     27.111817
_cell_angle_alpha  89.889837
_cell_angle_beta   96.847208
_cell_angle_gamma 90.251067
loop_
_atom_site_label
_atom_site_type_symbol
_atom_site_fract_x
_atom_site_fract_y
_atom_site_fract_z
_atom_type_partial_charge
H0 H 0.2965 0.03694 -0.02789 0.0
H1 H 0.48564 0.03433 0.88838 0.0
H2 H 0.51807 0.08045 0.04567 0.0
H3 H 0.62613 0.03021 0.04481 0.0
H4 H 0.81725 0.03499 0.96286 0.0
H5 H 0.59713 0.08094 0.88816 0.0
C6 C 0.35657 0.0449 -0.02962 0.0
C7 C 0.40447 0.05818 0.01418 0.0
C8 C 0.38524 0.0399 0.92462 0.0
C9 C 0.46418 0.04268 0.92352 0.0
C10 C 0.5144 0.05542 -0.03283 0.0
C11 C 0.48265 0.06613 0.01199 0.0
C12 C 0.59921 0.05437 -0.03358 0.0
C13 C 0.64844 0.03878 0.00999 0.0
C14 C 0.72726 0.0337 0.0093 0.0
C15 C 0.75711 0.04264 -0.0358 0.0
C16 C 0.71034 0.0595 0.9206 0.0
C17 C 0.63187 0.06618 0.92201 0.0
H18 H 0.05759 0.77343 0.47273 0.0
H19 H 0.04042 0.57836 0.54679 0.0
H20 H 0.07146 0.58517 0.3901 0.0
H21 H 1.02494 0.48131 0.3864 0.0
H22 H 0.05589 0.28684 0.46314 0.0
H23 H 0.08783 0.47547 0.54658 0.0
C24 C 0.05707 0.71674 0.47135 0.0
C25 C 0.06145 0.68283 0.42626 0.0
C26 C 0.05198 0.67877 0.51474 0.0
C27 C 0.04878 0.60573 0.51298 0.0
C28 C 0.05643 0.56951 0.46825 0.0
C29 C 0.06404 0.60964 0.42504 0.0
C30 C 0.05633 0.49081 0.46673 0.0
C31 C 0.03998 0.45424 0.42115 0.0
C32 C 0.04174 0.38113 0.41998 0.0
C33 C 0.05607 0.34357 0.46413 0.0
C34 C 0.07054 0.37788 0.50952 0.0
C35 C 0.07261 0.45096 0.51092 0.0
Mg36 Mg 0.111 0.01888 0.2474 0.0
O37 O 1.00415 1.01024 0.19075 0.0
O38 O 0.90438 0.99002 0.23196 0.0
Mg39 Mg 0.94677 0.98745 0.31476 0.0
C40 C 0.93325 0.99944 0.19157 0.0
C41 C 0.24814 0.03678 0.19021 0.0
O42 O 0.27395 0.998 0.2285 0.0
O43 O 0.07524 0.12888 0.26792 0.0
O44 O 0.97915 0.1035 0.31126 0.0
O45 O 0.12998 0.9028 0.24815 0.0
O46 O 0.06006 0.95767 0.29764 0.0
C47 C 1.0231 0.14772 0.29371 0.0
C48 C 0.08671 0.89975 0.28325 0.0
O49 O 0.18009 0.0583 0.18722 0.0
Mg50 Mg 1.00093 1.01445 0.68618 0.0
O51 O 0.10774 1.0112 0.74268 0.0
O52 O 0.20854 0.99013 0.70289 0.0
Mg53 Mg 0.16565 0.98046 0.62024 0.0
C54 C 0.17895 1.00233 0.74262 0.0
C55 C 0.86457 0.0385 0.74438 0.0
O56 O 0.83556 0.99749 0.70811 0.0
O57 O 1.03582 0.12307 0.66155 0.0
O58 O 0.13237 0.09634 0.61927 0.0
O59 O 0.98274 0.89852 0.6904 0.0
O60 O 0.05282 0.9499 0.63877 0.0
C61 C 0.08784 0.141 0.63524 0.0
C62 C 1.02701 0.89308 0.65603 0.0
O63 O 0.93313 0.05823 0.74523 0.0
C64 C 0.30422 0.09662 0.0659 0.0
C65 C 0.37188 0.06 0.06225 0.0
C66 C 0.26624 0.09099 0.10819 0.0
C67 C 0.29439 0.04859 0.14866 0.0
H68 H 0.27929 0.12849 0.0352 0.0
H69 H 0.21324 0.11867 0.10846 0.0
S70 S 0.47221 0.94501 0.15874 0.0
N71 N 0.46712 0.98198 0.10342 0.0
N72 N 0.39702 0.97243 0.18336 0.0
C73 C 0.36405 1.0143 0.14644 0.0
C74 C 0.40248 0.01981 0.10319 0.0
C75 C 1.01911 0.31201 0.57698 0.0
C76 C 0.08243 0.33457 0.55472 0.0
C77 C 1.02317 0.25266 0.60766 0.0
C78 C 0.09045 0.21356 0.61624 0.0
H79 H 0.96463 0.33678 0.56723 0.0
H80 H 0.97155 0.23397 0.62091 0.0
S81 S 0.27518 0.25945 0.57327 0.0
N82 N 0.21626 0.31987 0.54837 0.0
N83 N 0.2247 0.2085 0.60615 0.0
C84 C 0.15595 0.24007 0.59807 0.0
C85 C 0.15169 0.30054 0.56713 0.0
C86 C 0.84744 0.06027 0.06432 0.0
C87 C 0.77969 0.02124 0.05565 0.0
C88 C 0.89781 0.05111 0.10761 0.0
C89 C 0.88192 1.00352 0.14452 0.0
H90 H 0.86116 0.09936 0.03782 0.0
H91 H 0.94848 0.08327 0.11287 0.0
S92 S 0.7159 0.88434 0.13881 0.0
N93 N 0.70264 0.92898 0.08633 0.0
N94 N 0.79576 0.91435 0.1689 0.0
C95 C 0.81508 0.96343 0.13631 0.0
C96 C 0.76435 0.97172 0.09167 0.0
C97 C 0.98132 0.73115 0.57961 0.0
C98 C 0.05062 0.71786 0.56144 0.0
C99 C 0.97562 0.78416 0.61472 0.0
C100 C 0.0389 0.82564 0.63201 0.0
H101 H 0.93033 0.7042 0.56385 0.0
H102 H 0.92017 0.79662 0.62506 0.0
S103 S 0.23552 0.8017 0.60278 0.0
N104 N 0.18537 0.74313 0.56811 0.0
N105 N 0.17487 0.84206 0.63451 0.0
C106 C 0.10964 0.80816 0.61755 0.0
C107 C 0.11544 0.75433 0.58204 0.0
C108 C 0.34714 0.98174 0.84207 0.0
C109 C 0.33206 0.03085 0.87821 0.0
C110 C 0.29714 0.97239 0.79841 0.0
C111 C 0.22959 1.01094 0.78966 0.0
H112 H 0.39757 0.94974 0.84772 0.0
H113 H 0.31112 0.93421 0.77153 0.0
S114 S 0.16619 0.14973 0.87048 0.0
N115 N 0.2469 0.12192 0.90037 0.0
N116 N 0.15175 0.10211 0.81952 0.0
C117 C 0.21387 0.06029 0.82531 0.0
C118 C 0.26534 0.0708 0.86923 0.0
C119 C 0.09272 0.31866 0.35129 0.0
C120 C 1.02938 0.34093 0.37341 0.0
C121 C 0.08829 0.2598 0.32025 0.0
C122 C 1.02058 0.22092 0.3112 0.0
H123 H 0.14756 0.34281 0.36175 0.0
H124 H 0.13998 0.24091 0.30749 0.0
S125 S 0.83557 0.2669 0.35294 0.0
N126 N 0.895 0.32677 0.37855 0.0
N127 N 0.8859 0.21632 0.32012 0.0
C128 C 0.955 0.24765 0.32876 0.0
C129 C 0.95964 0.30763 0.36006 0.0
C130 C 0.71356 0.02461 0.832 0.0
C131 C 0.74392 0.06468 0.87306 0.0
C132 C 0.75131 0.01915 0.78963 0.0
C133 C 0.82104 0.05342 0.78669 0.0
H134 H 0.6622 0.99436 0.83359 0.0
H135 H 0.72699 0.98535 0.75987 0.0
S136 S 0.91844 0.17333 0.88152 0.0
N137 N 0.84296 0.1457 0.90606 0.0
N138 N 0.91459 0.13495 0.82678 0.0
C139 C 0.84955 0.09717 0.82634 0.0
C140 C 0.81089 0.10286 0.86941 0.0
C141 C 1.00286 0.77429 0.36926 0.0
C142 C 0.06169 0.72606 0.38097 0.0
C143 C 1.00875 0.82716 0.33429 0.0
C144 C 0.07371 0.83391 0.30972 0.0
H145 H 0.95363 0.7734 0.38932 0.0
H146 H 0.96341 0.86477 0.32824 0.0
S147 S 0.23961 0.7153 0.3229 0.0
N148 N 0.18361 0.68377 0.36213 0.0
N149 N 0.19486 0.7833 0.29583 0.0
C150 C 0.1302 0.78238 0.318 0.0
C151 C 0.12419 0.7284 0.35388 0.0
loop_
_geom_bond_atom_site_label_1
_geom_bond_atom_site_label_2
_geom_bond_distance
_geom_bond_site_symmetry_2
_ccdc_geom_bond_type
H0 C6 0.928 1_565 S
H1 C9 0.931 . S
H2 C11 0.932 . S
H3 C13 0.930 . S
H4 C15 0.930 . S
H5 C17 0.931 . S
C6 H0 0.928 1_545 S
C6 C7 1.366 1_546 S
C6 C8 1.410 . S
C7 C6 1.366 1_564 S
C7 C11 1.383 . S
C8 C6 1.410 . S
C8 C9 1.400 . S
C9 H1 0.931 . S
C9 C8 1.400 . S
C9 C10 1.360 1_556 S
C10 C9 1.360 1_554 S
C10 C11 1.431 1_545 S
C10 C12 1.499 . S
C11 H2 0.932 . S
C11 C7 1.383 . S
C11 C10 1.431 1_565 S
C12 C10 1.499 . S
C12 C13 1.384 . S
C12 C17 1.408 1_544 S
C13 H3 0.930 . S
C13 C12 1.384 . S
C13 C14 1.389 . S
C14 C13 1.389 . S
C14 C15 1.405 . S
C15 H4 0.930 . S
C15 C14 1.405 . S
C15 C16 1.363 1_544 S
C16 C15 1.363 1_566 S
C16 C17 1.400 . S
C17 H5 0.931 . S
C17 C12 1.408 1_566 S
C17 C16 1.400 . S
H18 C24 0.930 . S
H19 C27 0.931 1_655 S
H20 C29 0.931 . S
H21 C31 0.930 . S
H22 C33 0.930 . S
H23 C35 0.931 . S
C24 H18 0.930 . S
C24 C25 1.380 . S
C24 C26 1.394 . S
C25 C24 1.380 . S
C25 C29 1.382 . S
C26 C24 1.394 . S
C26 C27 1.400 . S
C27 H19 0.931 1_455 S
C27 C26 1.400 . S
C27 C28 1.375 . S
C28 C27 1.375 . S
C28 C29 1.415 . S
C28 C30 1.501 . S
C29 H20 0.931 . S
C29 C25 1.382 . S
C29 C28 1.415 . S
C30 C28 1.501 . S
C30 C31 1.384 . S
C30 C35 1.408 . S
C31 H21 0.930 . S
C31 C30 1.384 . S
C31 C32 1.389 . S
C32 C31 1.389 . S
C32 C33 1.405 . S
C33 H22 0.930 . S
C33 C32 1.405 . S
C33 C34 1.364 . S
C34 C33 1.364 . S
C34 C35 1.400 . S
C35 H23 0.931 . S
C35 C30 1.408 . S
C35 C34 1.400 . S
Mg36 O37 2.028 1_455 S
Mg36 O43 1.986 . S
Mg36 O45 2.114 1_545 S
Mg36 O46 2.251 1_545 S
Mg36 O49 2.010 . S
O37 Mg36 2.028 1_655 S
O37 C40 1.250 . S
O38 Mg39 2.028 . S
O38 C40 1.248 . S
Mg39 O38 2.028 . S
Mg39 O44 2.032 . S
Mg39 O46 2.079 1_645 S
C40 O37 1.250 . S
C40 O38 1.248 . S
C41 O42 1.264 . S
C41 O49 1.249 . S
O42 C41 1.264 . S
O43 Mg36 1.986 . S
O43 C47 1.246 . S
O44 Mg39 2.032 . S
O44 C47 1.259 1_655 S
O45 Mg36 2.114 1_565 S
O45 C48 1.252 . S
O46 Mg36 2.251 1_565 S
O46 Mg39 2.079 1_465 S
O46 C48 1.273 . S
C47 O43 1.246 . S
C47 O44 1.259 1_455 S
C48 O45 1.252 . S
C48 O46 1.273 . S
O49 Mg36 2.010 . S
O49 C41 1.249 . S
Mg50 O51 2.028 1_655 S
Mg50 O57 1.986 . S
Mg50 O59 2.114 1_545 S
Mg50 O60 2.251 1_645 S
Mg50 O63 2.010 . S
O51 Mg50 2.028 1_455 S
O51 C54 1.250 . S
O52 Mg53 2.028 . S
O52 C54 1.248 . S
Mg53 O52 2.028 . S
Mg53 O58 2.032 . S
Mg53 O60 2.079 1_545 S
C54 O51 1.250 . S
C54 O52 1.248 . S
C55 O56 1.264 . S
C55 O63 1.249 . S
O56 C55 1.264 . S
O57 Mg50 1.986 . S
O57 C61 1.246 1_655 S
O58 Mg53 2.032 . S
O58 C61 1.259 . S
O59 Mg50 2.114 1_565 S
O59 C62 1.252 1_655 S
O60 Mg50 2.251 1_465 S
O60 Mg53 2.079 1_565 S
O60 C62 1.273 . S
C61 O57 1.246 1_455 S
C61 O58 1.259 . S
C62 O59 1.252 1_455 S
C62 O60 1.273 . S
O63 Mg50 2.010 . S
O63 C55 1.249 . S
C64 C65 1.369 1_545 S
C64 C66 1.419 . S
C64 H68 0.930 . S
C65 C64 1.369 1_565 S
C65 C74 1.429 . S
C66 C64 1.419 . S
C66 C67 1.363 . S
C66 H69 0.929 . S
C67 C66 1.363 . S
C67 C73 1.428 1_545 S
H68 C64 0.930 . S
H69 C66 0.929 . S
S70 N71 1.613 . S
S70 N72 1.610 . S
N71 S70 1.613 . S
N71 C74 1.350 . S
N72 S70 1.610 . S
N72 C73 1.351 . S
C73 C67 1.428 1_565 S
C73 N72 1.351 . S
C73 C74 1.434 . S
C74 C65 1.429 . S
C74 N71 1.350 . S
C74 C73 1.434 . S
C75 C76 1.369 1_655 S
C75 C77 1.419 . S
C75 H79 0.930 . S
C76 C75 1.369 1_455 S
C76 C85 1.429 . S
C77 C75 1.419 . S
C77 C78 1.363 1_655 S
C77 H80 0.929 . S
C78 C77 1.363 1_455 S
C78 C84 1.428 . S
H79 C75 0.930 . S
H80 C77 0.929 . S
S81 N82 1.613 . S
S81 N83 1.610 . S
N82 S81 1.613 . S
N82 C85 1.350 . S
N83 S81 1.610 . S
N83 C84 1.351 . S
C84 C78 1.428 . S
C84 N83 1.351 . S
C84 C85 1.434 . S
C85 C76 1.429 . S
C85 N82 1.350 . S
C85 C84 1.434 . S
C86 C87 1.369 . S
C86 C88 1.419 . S
C86 H90 0.930 . S
C87 C86 1.369 . S
C87 C96 1.429 . S
C88 C86 1.419 . S
C88 C89 1.363 . S
C88 H91 0.929 . S
C89 C88 1.363 . S
C89 C95 1.428 1_545 S
H90 C86 0.930 . S
H91 C88 0.929 . S
S92 N93 1.613 . S
S92 N94 1.610 . S
N93 S92 1.613 . S
N93 C96 1.350 1_565 S
N94 S92 1.610 . S
N94 C95 1.352 . S
C95 C89 1.428 1_565 S
C95 N94 1.352 . S
C95 C96 1.434 1_565 S
C96 C87 1.429 . S
C96 N93 1.350 1_545 S
C96 C95 1.434 1_545 S
C97 C98 1.369 1_655 S
C97 C99 1.419 . S
C97 H101 0.930 . S
C98 C97 1.369 1_455 S
C98 C107 1.429 . S
C99 C97 1.419 . S
C99 C100 1.363 1_655 S
C99 H102 0.929 . S
C100 C99 1.363 1_455 S
C100 C106 1.428 . S
H101 C97 0.930 . S
H102 C99 0.929 . S
S103 N104 1.613 . S
S103 N105 1.610 . S
N104 S103 1.613 . S
N104 C107 1.350 . S
N105 S103 1.610 . S
N105 C106 1.351 . S
C106 C100 1.428 . S
C106 N105 1.351 . S
C106 C107 1.434 . S
C107 C98 1.429 . S
C107 N104 1.350 . S
C107 C106 1.434 . S
C108 C109 1.369 1_565 S
C108 C110 1.419 . S
C108 H112 0.930 . S
C109 C108 1.369 1_545 S
C109 C118 1.429 . S
C110 C108 1.419 . S
C110 C111 1.363 1_565 S
C110 H113 0.929 . S
C111 C110 1.363 1_545 S
C111 C117 1.428 . S
H112 C108 0.930 . S
H113 C110 0.929 . S
S114 N115 1.613 . S
S114 N116 1.610 . S
N115 S114 1.613 . S
N115 C118 1.350 . S
N116 S114 1.610 . S
N116 C117 1.351 . S
C117 C111 1.428 . S
C117 N116 1.351 . S
C117 C118 1.434 . S
C118 C109 1.429 . S
C118 N115 1.350 . S
C118 C117 1.434 . S
C119 C120 1.369 . S
C119 C121 1.419 . S
C119 H123 0.930 . S
C120 C119 1.369 . S
C120 C129 1.429 1_455 S
C121 C119 1.419 . S
C121 C122 1.363 . S
C121 H124 0.929 . S
C122 C121 1.363 . S
C122 C128 1.428 1_455 S
H123 C119 0.930 . S
H124 C121 0.929 . S
S125 N126 1.613 . S
S125 N127 1.610 . S
N126 S125 1.613 . S
N126 C129 1.350 . S
N127 S125 1.610 . S
N127 C128 1.351 . S
C128 C122 1.428 1_655 S
C128 N127 1.351 . S
C128 C129 1.434 . S
C129 C120 1.429 1_655 S
C129 N126 1.350 . S
C129 C128 1.434 . S
C130 C131 1.369 . S
C130 C132 1.419 . S
C130 H134 0.930 . S
C131 C130 1.369 . S
C131 C140 1.429 1_565 S
C132 C130 1.419 . S
C132 C133 1.363 1_565 S
C132 H135 0.929 . S
C133 C132 1.363 1_545 S
C133 C139 1.428 . S
H134 C130 0.930 . S
H135 C132 0.929 . S
S136 N137 1.613 . S
S136 N138 1.610 . S
N137 S136 1.613 . S
N137 C140 1.350 . S
N138 S136 1.610 . S
N138 C139 1.351 . S
C139 C133 1.428 . S
C139 N138 1.351 . S
C139 C140 1.434 . S
C140 C131 1.429 1_545 S
C140 N137 1.350 . S
C140 C139 1.434 . S
C141 C142 1.369 1_655 S
C141 C143 1.419 . S
C141 H145 0.930 . S
C142 C141 1.369 1_455 S
C142 C151 1.429 . S
C143 C141 1.419 . S
C143 C144 1.363 1_655 S
C143 H146 0.929 . S
C144 C143 1.363 1_455 S
C144 C150 1.428 . S
H145 C141 0.930 . S
H146 C143 0.929 . S
S147 N148 1.613 . S
S147 N149 1.610 . S
N148 S147 1.613 . S
N148 C151 1.350 . S
N149 S147 1.610 . S
N149 C150 1.351 . S
C150 C144 1.428 . S
C150 N149 1.351 . S
C150 C151 1.434 . S
C151 C142 1.429 . S
C151 N148 1.350 . S
C151 C150 1.434 . S
C67 C41 1.270 . S
C65 C7 1.498 . S
C78 C61 1.504 . S
C76 C34 1.479 . S
C89 C40 1.481 . S
C87 C14 1.499 . S
C100 C62 1.536 . S
C98 C26 1.496 . S
C111 C54 1.481 . S
C109 C8 1.487 . S
C122 C47 1.511 . S
C120 C32 1.489 . S
C133 C55 1.262 . S
C131 C16 1.495 . S
C142 C25 1.489 . S
C144 C48 1.542 . S
