# Generated by pormake.
# Topology anh, (6,3)-cn, num edge types: 1
# Building blocks:
#     Node 0, Type 0, BuildingBlock: NUHQIS_clean_sbu_0, # of connection points: 6
#     Node 1, Type 0, BuildingBlock: NUHQIS_clean_sbu_0, # of connection points: 6
#     Node 2, Type 0, BuildingBlock: NUHQIS_clean_sbu_0, # of connection points: 6
#     Node 3, Type 1, BuildingBlock: PAMTOO_clean_linker_0, # of connection points: 3
#     Node 4, Type 1, BuildingBlock: PAMTOO_clean_linker_0, # of connection points: 3
#     Node 5, Type 1, BuildingBlock: PAMTOO_clean_linker_0, # of connection points: 3
#     Node 6, Type 1, BuildingBlock: PAMTOO_clean_linker_0, # of connection points: 3
#     Node 7, Type 1, BuildingBlock: PAMTOO_clean_linker_0, # of connection points: 3
#     Node 8, Type 1, BuildingBlock: PAMTOO_clean_linker_0, # of connection points: 3
#     Edge 9, Type (0, 1), None
#     Edge 10, Type (0, 1), None
#     Edge 11, Type (0, 1), None
#     Edge 12, Type (0, 1), None
#     Edge 13, Type (0, 1), None
#     Edge 14, Type (0, 1), None
#     Edge 15, Type (0, 1), None
#     Edge 16, Type (0, 1), None
#     Edge 17, Type (0, 1), None
#     Edge 18, Type (0, 1), None
#     Edge 19, Type (0, 1), None
#     Edge 20, Type (0, 1), None
#     Edge 21, Type (0, 1), None
#     Edge 22, Type (0, 1), None
#     Edge 23, Type (0, 1), None
#     Edge 24, Type (0, 1), None
#     Edge 25, Type (0, 1), None
#     Edge 26, Type (0, 1), None
# Relax obj value: 0.746
# Max RMSD: 0.224
# Mean RMSD: 0.157
data_MOF--net-anh--node1-NUHQIS_clean_sbu_0--node2-PAMTOO_clean_linker_0--edge1-none
_symmetry_space_group_name_H-M    P1
_symmetry_Int_Tables_number       1
_symmetry_cell_setting            triclinic
loop_
_symmetry_equiv_pos_as_xyz
'x, y, z'
_cell_length_a     13.390968
_cell_length_b     13.549624
_cell_length_c     22.217301
_cell_angle_alpha  85.177716
_cell_angle_beta   94.28467
_cell_angle_gamma 119.82682
loop_
_atom_site_label
_atom_site_type_symbol
_atom_site_fract_x
_atom_site_fract_y
_atom_site_fract_z
_atom_type_partial_charge
Tb0 Tb 0.50864 0.77578 0.19965 0.0
Eu1 Eu 0.34734 0.88767 0.17756 0.0
C2 C 0.41748 0.83098 0.30753 0.0
C3 C 1.22649 0.61015 0.21419 0.0
C4 C 0.58399 0.55784 0.18311 0.0
C5 C 0.55971 0.36747 0.19025 0.0
C6 C 0.57635 0.46348 0.21822 0.0
C7 C 0.56318 0.55049 0.12024 0.0
C8 C 0.54738 0.45517 0.09235 0.0
C9 C 0.55213 0.3659 0.12688 0.0
C10 C 0.61065 0.66216 0.21228 0.0
O11 O 0.46927 0.76593 0.10056 0.0
O12 O 0.36601 0.85962 0.08151 0.0
O13 O 0.53352 1.03995 0.1861 0.0
O14 O 0.64704 0.95838 0.20825 0.0
C15 C 0.41499 0.80531 0.06244 0.0
O16 O 1.22626 0.93562 0.1326 0.0
O17 O 1.3028 0.99993 0.22007 0.0
O18 O 1.33089 0.81638 0.2717 0.0
O19 O 0.51115 0.8427 0.28578 0.0
O20 O 0.33385 0.6291 0.22271 0.0
O21 O 1.2095 0.69485 0.19138 0.0
C22 C 0.63701 1.05123 0.19921 0.0
O23 O 0.64596 0.75477 0.17722 0.0
O24 O 0.53407 0.65052 0.24918 0.0
C25 C 1.10277 0.92161 0.20474 0.0
C26 C 0.90751 0.7259 0.17107 0.0
C27 C 0.91577 0.83247 0.15448 0.0
C28 C 1.01637 0.93161 0.17007 0.0
C29 C 1.07243 0.81876 0.23871 0.0
C30 C 0.97557 0.71903 0.22042 0.0
C31 C 1.21866 0.98056 0.18073 0.0
H32 H 0.56425 0.29969 0.21763 0.0
H33 H 0.58901 0.46636 0.26691 0.0
H34 H 0.56486 0.62058 0.09216 0.0
H35 H 0.54247 0.45605 0.04342 0.0
H36 H 0.85899 0.83935 0.11906 0.0
H37 H 1.03543 1.01117 0.14545 0.0
H38 H 1.13508 0.81044 0.26904 0.0
H39 H 0.96794 0.63802 0.23674 0.0
Tb40 Tb 1.07472 0.32324 0.54139 0.0
Eu41 Eu 0.87695 1.21377 0.48916 0.0
C42 C 0.86633 0.23773 0.62585 0.0
C43 C 0.98954 1.05378 0.52728 0.0
C44 C 0.38846 0.47596 0.56518 0.0
C45 C 0.4709 0.67893 0.57299 0.0
C46 C 0.42385 0.56973 0.60085 0.0
C47 C 0.43476 0.49567 0.50803 0.0
C48 C 0.48136 0.60445 0.4802 0.0
C49 C 0.4806 0.69207 0.50994 0.0
C50 C 1.27725 0.37206 0.57692 0.0
O51 O 1.09447 0.40173 0.44585 0.0
O52 O 0.99384 0.22767 0.41878 0.0
O53 O 0.88742 0.3898 0.49354 0.0
O54 O 1.05212 0.47428 0.55014 0.0
C55 C 1.06053 0.33244 0.40128 0.0
O56 O 0.7269 1.04859 0.47376 0.0
O57 O 0.75657 1.1968 0.41414 0.0
O58 O 0.80163 1.19927 0.57735 0.0
O59 O 0.97908 0.29108 0.62287 0.0
O60 O 0.96401 1.12748 0.54937 0.0
O61 O 0.964 1.12559 0.54957 0.0
C62 C 0.96282 0.47927 0.52375 0.0
O63 O 1.20731 0.38705 0.60782 0.0
O64 O 1.22289 0.31096 0.53042 0.0
C65 C 0.57228 1.08247 0.44975 0.0
C66 C 0.35221 1.03085 0.47754 0.0
C67 C 0.43041 1.03574 0.52424 0.0
C68 C 0.53965 1.05977 0.51021 0.0
C69 C 0.50128 1.09785 0.4049 0.0
C70 C 0.39125 1.07343 0.41898 0.0
C71 C 0.68197 1.0945 0.43432 0.0
H72 H 0.47877 0.74752 0.59834 0.0
H73 H 0.39639 0.5573 0.64687 0.0
H74 H 0.4161 0.4253 0.48081 0.0
H75 H 0.49555 0.61214 0.43232 0.0
H76 H 0.40194 1.00451 0.56982 0.0
H77 H 0.59458 1.05155 0.54607 0.0
H78 H 0.52744 1.12027 0.35846 0.0
H79 H 1.3318 1.07145 0.38261 0.0
Tb80 Tb 1.03054 0.88314 0.86924 0.0
Eu81 Eu 0.90155 0.6388 0.81997 0.0
C82 C 0.90554 0.6587 0.95635 0.0
C83 C 1.17587 0.75099 0.8696 0.0
C84 C 1.0908 1.1652 0.9034 0.0
C85 C 0.9158 1.17688 0.90056 0.0
C86 C 0.98834 1.14044 0.93015 0.0
C87 C 1.13355 0.25107 0.85738 0.0
C88 C 1.06056 0.28609 0.82739 0.0
C89 C 0.94373 0.23392 0.84311 0.0
C90 C 1.13018 1.08066 0.9085 0.0
O91 O 0.99032 0.89818 0.76979 0.0
O92 O 1.02908 0.76156 0.75448 0.0
O93 O 0.75758 0.69042 0.82273 0.0
O94 O 0.85173 0.84884 0.87767 0.0
C95 C 1.01411 0.84444 0.73128 0.0
O96 O 0.857 0.46289 0.81338 0.0
O97 O 0.79523 0.54432 0.7431 0.0
O98 O 0.83994 0.59965 0.91217 0.0
O99 O 0.9968 0.75987 0.9467 0.0
O100 O 1.17658 0.84943 0.86535 0.0
O101 O 1.07569 0.65554 0.86157 0.0
C102 C 0.75428 0.769 0.85366 0.0
O103 O 1.06813 0.98826 0.94139 0.0
O104 O 1.15348 1.05663 0.8574 0.0
C105 C 0.67371 0.34766 0.76718 0.0
C106 C 0.49765 1.12134 0.76518 0.0
C107 C 0.54133 1.17177 0.82076 0.0
C108 C 0.62972 0.28485 0.82178 0.0
C109 C 0.61537 0.30332 0.71245 0.0
C110 C 0.52591 1.19068 0.71151 0.0
C111 C 0.78873 0.44923 0.76572 0.0
H112 H 0.83227 1.14652 0.91889 0.0
H113 H 0.95655 1.08054 0.96887 0.0
H114 H 1.21584 0.2773 0.83828 0.0
H115 H 1.09323 0.34032 0.78708 0.0
H116 H 0.5196 1.11983 0.86268 0.0
H117 H 0.67135 0.31858 0.8648 0.0
H118 H 0.64667 0.35138 0.66997 0.0
H119 H 0.49216 1.15337 0.66822 0.0
H120 H 1.20897 0.53205 0.33252 0.0
H121 H 0.90642 1.2009 0.3185 0.0
H122 H 1.01512 0.4311 0.16145 0.0
H123 H 0.70872 0.23574 0.20249 0.0
C124 C 0.73389 1.17213 0.22041 0.0
O125 O 0.8513 1.21613 0.20685 0.0
H126 H 0.72721 1.16808 0.2702 0.0
C127 C 1.13718 0.47073 0.30562 0.0
C128 C 1.12702 0.49739 0.24245 0.0
C129 C 1.05698 0.36516 0.33421 0.0
C130 C 0.96606 0.28351 0.29826 0.0
C131 C 0.9449 0.3047 0.23716 0.0
C132 C 1.02661 0.41376 0.20914 0.0
H133 H 0.9962 1.01233 0.65362 0.0
H134 H 1.01882 0.70425 0.6544 0.0
H135 H 0.97316 0.85707 0.48611 0.0
H136 H 0.85281 0.55715 0.50711 0.0
C137 C 0.92477 0.56734 0.5391 0.0
O138 O 1.00694 0.68488 0.53993 0.0
H139 H 0.88726 0.5386 0.58448 0.0
C140 C 0.99404 0.94513 0.62942 0.0
C141 C 0.98549 0.94991 0.56479 0.0
C142 C 1.00458 0.85591 0.66276 0.0
C143 C 1.00682 0.77079 0.63043 0.0
C144 C 0.99335 0.76668 0.5675 0.0
C145 C 0.98048 0.85645 0.53497 0.0
H146 H 1.24496 0.7908 0.98383 0.0
H147 H 0.5556 0.76792 -0.00728 0.0
H148 H 0.35323 0.71204 0.82482 0.0
H149 H 0.67893 0.87837 0.86249 0.0
C150 C 0.64763 0.79064 0.84841 0.0
O151 O 0.547 0.71507 0.88056 0.0
H152 H 0.62118 0.78913 0.79978 0.0
C153 C 1.30593 0.77667 0.96169 0.0
C154 C 1.2836 0.7501 0.9003 0.0
C155 C 0.40213 0.78254 -0.00415 0.0
C156 C 0.48233 0.76464 0.96677 0.0
C157 C 0.46915 0.74112 0.90472 0.0
C158 C 0.36706 0.73218 0.87189 0.0
H159 H 0.54233 0.79071 0.39705 0.0
H160 H 1.25279 0.84589 0.36272 0.0
H161 H 1.32653 0.75663 0.54184 0.0
H162 H 1.20592 0.94426 0.53207 0.0
C163 C 1.22801 0.94329 0.48511 0.0
O164 O 1.20723 0.83389 0.47533 0.0
H165 H 1.1726 0.96374 0.45281 0.0
C166 C 0.47126 0.79626 0.41356 0.0
C167 C 0.44155 0.76525 0.47424 0.0
C168 C 0.40098 0.82053 0.37266 0.0
C169 C 1.30662 0.8245 0.39352 0.0
C170 C 1.28556 0.8096 0.45491 0.0
C171 C 0.35077 0.77702 0.49513 0.0
H172 H 0.96151 0.3362 0.72864 0.0
H173 H 0.64982 1.06668 0.65409 0.0
H174 H 0.70846 1.07028 0.84487 0.0
H175 H 0.41212 0.9481 0.80251 0.0
C176 C 0.46001 0.99666 0.7617 0.0
O177 O 0.5544 0.98001 0.75839 0.0
H178 H 0.40243 0.96199 0.72112 0.0
C179 C 0.88106 0.25853 0.736 0.0
C180 C 0.85103 1.20699 0.79437 0.0
C181 C 0.81378 1.2046 0.68525 0.0
C182 C 0.70462 1.10824 0.69281 0.0
C183 C 0.66517 1.06475 0.75083 0.0
C184 C 0.73932 1.11146 0.80118 0.0
H185 H 0.95488 0.77514 0.05415 0.0
H186 H 0.78102 0.43405 -0.00537 0.0
H187 H 0.79437 0.49074 0.18313 0.0
H188 H 0.54351 1.20494 0.11894 0.0
C189 C 0.58549 0.29151 0.09665 0.0
O190 O 0.70435 0.33669 0.10067 0.0
H191 H 0.55547 0.28242 0.04834 0.0
C192 C 0.90529 0.68414 0.06463 0.0
C193 C 0.87161 0.64243 0.12392 0.0
C194 C 0.8755 0.61052 0.01822 0.0
C195 C 0.81008 0.49247 0.03071 0.0
C196 C 0.77933 0.44921 0.08996 0.0
C197 C 0.81568 0.52435 0.13711 0.0
loop_
_geom_bond_atom_site_label_1
_geom_bond_atom_site_label_2
_geom_bond_distance
_geom_bond_site_symmetry_2
_ccdc_geom_bond_type
Tb0 C10 2.825 . S
Tb0 O11 2.347 . S
Tb0 O14 2.366 . S
Tb0 O19 2.418 . S
Tb0 O20 2.384 1_455 S
Tb0 O23 2.479 . S
Tb0 O24 2.471 . S
Eu1 O12 2.418 . S
Eu1 O13 2.384 1_655 S
Eu1 O16 2.479 . S
Eu1 O17 2.471 . S
Eu1 O18 2.347 1_655 S
Eu1 O21 2.366 . S
Eu1 C31 2.825 . S
C2 O18 1.259 . S
C2 O19 1.265 . S
C3 O20 1.255 . S
C3 O21 1.265 . S
C4 C6 1.380 . S
C4 C7 1.374 . S
C4 C10 1.507 . S
C5 C6 1.384 . S
C5 C9 1.387 . S
C5 H32 0.930 . S
C6 C4 1.380 . S
C6 C5 1.384 . S
C6 H33 0.931 . S
C7 C4 1.374 . S
C7 C8 1.390 . S
C7 H34 0.930 . S
C8 C7 1.390 . S
C8 C9 1.391 . S
C8 H35 0.930 . S
C9 C5 1.387 . S
C9 C8 1.391 . S
C10 Tb0 2.825 . S
C10 C4 1.507 . S
C10 O23 1.238 . S
C10 O24 1.247 . S
O11 Tb0 2.347 . S
O11 C15 1.259 . S
O12 Eu1 2.418 . S
O12 C15 1.265 1_655 S
O13 Eu1 2.384 1_455 S
O13 C22 1.255 . S
O14 Tb0 2.366 . S
O14 C22 1.265 . S
C15 O11 1.259 . S
C15 O12 1.265 1_455 S
O16 Eu1 2.479 . S
O16 C31 1.238 . S
O17 Eu1 2.471 . S
O17 C31 1.247 . S
O18 Eu1 2.347 1_455 S
O18 C2 1.259 . S
O19 Tb0 2.418 . S
O19 C2 1.265 . S
O20 Tb0 2.384 1_655 S
O20 C3 1.255 . S
O21 Eu1 2.366 . S
O21 C3 1.265 . S
C22 O13 1.255 . S
C22 O14 1.265 . S
O23 Tb0 2.479 . S
O23 C10 1.238 . S
O24 Tb0 2.471 . S
O24 C10 1.247 . S
C25 C28 1.380 . S
C25 C29 1.374 . S
C25 C31 1.507 . S
C26 C27 1.387 . S
C26 C30 1.391 . S
C27 C26 1.387 . S
C27 C28 1.384 . S
C27 H36 0.930 . S
C28 C25 1.380 . S
C28 C27 1.384 . S
C28 H37 0.931 . S
C29 C25 1.374 . S
C29 C30 1.390 . S
C29 H38 0.930 . S
C30 C26 1.391 . S
C30 C29 1.390 . S
C30 H39 0.930 . S
C31 Eu1 2.825 . S
C31 O16 1.238 . S
C31 O17 1.247 . S
C31 C25 1.507 . S
H32 C5 0.930 . S
H33 C6 0.931 . S
H34 C7 0.930 . S
H35 C8 0.930 . S
H36 C27 0.930 . S
H37 C28 0.931 . S
H38 C29 0.930 . S
H39 C30 0.930 . S
Tb40 C50 2.825 . S
Tb40 O51 2.347 . S
Tb40 O54 2.366 . S
Tb40 O59 2.418 . S
Tb40 O60 2.384 1_545 S
Tb40 O63 2.479 . S
Tb40 O64 2.471 . S
Eu41 O52 2.416 . S
Eu41 O53 2.384 1_565 S
Eu41 O56 2.479 . S
Eu41 O57 2.471 . S
Eu41 O58 2.347 1_565 S
Eu41 O61 2.366 . S
Eu41 C71 2.825 . S
C42 O58 1.259 . S
C42 O59 1.265 . S
C43 O60 1.255 . S
C43 O61 1.265 . S
C44 C46 1.380 . S
C44 C47 1.374 . S
C44 C50 1.507 . S
C45 C46 1.384 1_455 S
C45 C49 1.387 . S
C45 H72 0.930 . S
C46 C44 1.380 . S
C46 C45 1.384 1_655 S
C46 H73 0.931 . S
C47 C44 1.374 . S
C47 C48 1.390 . S
C47 H74 0.930 . S
C48 C47 1.390 . S
C48 C49 1.391 1_655 S
C48 H75 0.930 . S
C49 C45 1.387 . S
C49 C48 1.391 1_455 S
C50 Tb40 2.825 . S
C50 C44 1.507 . S
C50 O63 1.238 . S
C50 O64 1.247 . S
O51 Tb40 2.347 . S
O51 C55 1.259 . S
O52 Eu41 2.416 . S
O52 C55 1.264 1_565 S
O53 Eu41 2.384 1_545 S
O53 C62 1.255 . S
O54 Tb40 2.366 . S
O54 C62 1.265 . S
C55 O51 1.259 . S
C55 O52 1.264 1_545 S
O56 Eu41 2.479 . S
O56 C71 1.238 . S
O57 Eu41 2.471 . S
O57 C71 1.247 . S
O58 Eu41 2.347 1_545 S
O58 C42 1.259 . S
O59 Tb40 2.418 . S
O59 C42 1.265 . S
O60 Tb40 2.384 1_565 S
O60 C43 1.255 . S
O61 Eu41 2.366 . S
O61 C43 1.265 . S
C62 O53 1.255 . S
C62 O54 1.265 . S
O63 Tb40 2.479 . S
O63 C50 1.238 . S
O64 Tb40 2.471 . S
O64 C50 1.247 . S
C65 C68 1.380 . S
C65 C69 1.374 . S
C65 C71 1.507 . S
C66 C67 1.387 . S
C66 C70 1.391 . S
C67 C66 1.387 . S
C67 C68 1.384 . S
C67 H76 0.930 . S
C68 C65 1.380 . S
C68 C67 1.384 . S
C68 H77 0.931 . S
C69 C65 1.374 . S
C69 C70 1.390 . S
C69 H78 0.930 . S
C70 C66 1.391 . S
C70 C69 1.390 . S
C70 H79 0.930 . S
C71 Eu41 2.825 . S
C71 O56 1.238 . S
C71 O57 1.247 . S
C71 C65 1.507 . S
H72 C45 0.930 . S
H73 C46 0.931 . S
H74 C47 0.930 . S
H75 C48 0.930 . S
H76 C67 0.930 . S
H77 C68 0.931 . S
H78 C69 0.930 . S
H79 C70 0.930 . S
Tb80 C90 2.825 . S
Tb80 O91 2.347 . S
Tb80 O94 2.366 . S
Tb80 O99 2.418 1_556 S
Tb80 O100 2.384 . S
Tb80 O103 2.479 . S
Tb80 O104 2.471 . S
Eu81 O92 2.418 . S
Eu81 O93 2.384 . S
Eu81 O96 2.479 . S
Eu81 O97 2.471 . S
Eu81 O98 2.347 . S
Eu81 O101 2.366 . S
Eu81 C111 2.825 . S
C82 O98 1.259 1_554 S
C82 O99 1.265 . S
C83 O100 1.255 . S
C83 O101 1.265 . S
C84 C86 1.380 . S
C84 C87 1.374 . S
C84 C90 1.507 . S
C85 C86 1.384 . S
C85 C89 1.387 . S
C85 H112 0.930 1_565 S
C86 C84 1.380 . S
C86 C85 1.384 . S
C86 H113 0.931 . S
C87 C84 1.374 . S
C87 C88 1.390 . S
C87 H114 0.930 . S
C88 C87 1.390 . S
C88 C89 1.391 . S
C88 H115 0.930 . S
C89 C85 1.387 . S
C89 C88 1.391 . S
C90 Tb80 2.825 . S
C90 C84 1.507 . S
C90 O103 1.238 . S
C90 O104 1.247 . S
O91 Tb80 2.347 . S
O91 C95 1.259 . S
O92 Eu81 2.418 . S
O92 C95 1.265 . S
O93 Eu81 2.384 . S
O93 C102 1.255 . S
O94 Tb80 2.366 . S
O94 C102 1.265 . S
C95 O91 1.259 . S
C95 O92 1.265 . S
O96 Eu81 2.479 . S
O96 C111 1.238 . S
O97 Eu81 2.471 . S
O97 C111 1.247 . S
O98 Eu81 2.347 . S
O98 C82 1.259 1_556 S
O99 Tb80 2.418 1_554 S
O99 C82 1.265 . S
O100 Tb80 2.384 . S
O100 C83 1.255 . S
O101 Eu81 2.366 . S
O101 C83 1.265 . S
C102 O93 1.255 . S
C102 O94 1.265 . S
O103 Tb80 2.479 . S
O103 C90 1.238 . S
O104 Tb80 2.471 . S
O104 C90 1.247 . S
C105 C108 1.380 . S
C105 C109 1.374 . S
C105 C111 1.507 . S
C106 C107 1.387 . S
C106 C110 1.391 . S
C107 C106 1.387 . S
C107 C108 1.384 . S
C107 H116 0.930 . S
C108 C105 1.380 . S
C108 C107 1.384 . S
C108 H117 0.931 . S
C109 C105 1.374 . S
C109 C110 1.390 . S
C109 H118 0.930 . S
C110 C106 1.391 . S
C110 C109 1.390 . S
C110 H119 0.930 . S
C111 Eu81 2.825 . S
C111 O96 1.238 . S
C111 O97 1.247 . S
C111 C105 1.507 . S
H112 C85 0.930 1_545 S
H113 C86 0.931 . S
H114 C87 0.930 . S
H115 C88 0.930 . S
H116 C107 0.930 . S
H117 C108 0.931 . S
H118 C109 0.930 . S
H119 C110 0.930 . S
H120 C127 0.929 . S
H121 C130 0.930 . S
H122 C132 0.929 . S
H123 C124 0.969 . S
C124 H123 0.969 . S
C124 O125 1.550 . S
C124 H126 0.973 . S
O125 C124 1.550 . S
O125 C131 1.412 . S
H126 C124 0.973 . S
C127 H120 0.929 . S
C127 C128 1.400 . S
C127 C129 1.364 . S
C128 C127 1.400 . S
C128 C132 1.377 . S
C129 C127 1.364 . S
C129 C130 1.374 1_545 S
C130 H121 0.930 . S
C130 C129 1.374 1_565 S
C130 C131 1.383 . S
C131 O125 1.412 . S
C131 C130 1.383 . S
C131 C132 1.394 1_565 S
C132 H122 0.929 . S
C132 C128 1.377 . S
C132 C131 1.394 1_545 S
H133 C140 0.929 . S
H134 C143 0.930 . S
H135 C145 0.929 . S
H136 C137 0.969 . S
C137 H136 0.969 . S
C137 O138 1.550 . S
C137 H139 0.973 . S
O138 C137 1.550 . S
O138 C144 1.412 . S
H139 C137 0.973 . S
C140 H133 0.929 . S
C140 C141 1.400 . S
C140 C142 1.364 . S
C141 C140 1.400 . S
C141 C145 1.377 . S
C142 C140 1.364 . S
C142 C143 1.374 . S
C143 H134 0.930 . S
C143 C142 1.374 . S
C143 C144 1.383 . S
C144 O138 1.412 . S
C144 C143 1.383 . S
C144 C145 1.394 . S
C145 H135 0.929 . S
C145 C141 1.377 . S
C145 C144 1.394 . S
H146 C153 0.929 . S
H147 C156 0.930 . S
H148 C158 0.929 . S
H149 C150 0.969 . S
C150 H149 0.969 . S
C150 O151 1.550 . S
C150 H152 0.973 . S
O151 C150 1.550 . S
O151 C157 1.412 . S
H152 C150 0.973 . S
C153 H146 0.929 . S
C153 C154 1.400 . S
C153 C155 1.364 1_656 S
C154 C153 1.400 . S
C154 C158 1.377 1_655 S
C155 C153 1.364 1_454 S
C155 C156 1.374 1_554 S
C156 H147 0.930 . S
C156 C155 1.374 1_556 S
C156 C157 1.383 . S
C157 O151 1.412 . S
C157 C156 1.383 . S
C157 C158 1.394 . S
C158 H148 0.929 . S
C158 C154 1.377 1_455 S
C158 C157 1.394 . S
H159 C166 0.929 . S
H160 C169 0.930 . S
H161 C171 0.929 . S
H162 C163 0.969 . S
C163 H162 0.969 . S
C163 O164 1.550 . S
C163 H165 0.973 . S
O164 C163 1.550 . S
O164 C170 1.412 . S
H165 C163 0.973 . S
C166 H159 0.929 . S
C166 C167 1.400 . S
C166 C168 1.364 . S
C167 C166 1.400 . S
C167 C171 1.377 . S
C168 C166 1.364 . S
C168 C169 1.374 1_655 S
C169 H160 0.930 . S
C169 C168 1.374 1_455 S
C169 C170 1.383 . S
C170 O164 1.412 . S
C170 C169 1.383 . S
C170 C171 1.394 1_455 S
C171 H161 0.929 . S
C171 C167 1.377 . S
C171 C170 1.394 1_655 S
H172 C179 0.929 . S
H173 C182 0.930 . S
H174 C184 0.929 . S
H175 C176 0.969 . S
C176 H175 0.969 . S
C176 O177 1.550 . S
C176 H178 0.973 . S
O177 C176 1.550 . S
O177 C183 1.412 . S
H178 C176 0.973 . S
C179 H172 0.929 . S
C179 C180 1.400 . S
C179 C181 1.364 . S
C180 C179 1.400 . S
C180 C184 1.377 . S
C181 C179 1.364 . S
C181 C182 1.374 1_565 S
C182 H173 0.930 . S
C182 C181 1.374 1_545 S
C182 C183 1.383 . S
C183 O177 1.412 . S
C183 C182 1.383 . S
C183 C184 1.394 1_545 S
C184 H174 0.929 . S
C184 C180 1.377 . S
C184 C183 1.394 1_565 S
H185 C192 0.929 1_556 S
H186 C195 0.930 1_556 S
H187 C197 0.929 . S
H188 C189 0.969 . S
C189 H188 0.969 . S
C189 O190 1.550 . S
C189 H191 0.973 . S
O190 C189 1.550 . S
O190 C196 1.412 . S
H191 C189 0.973 . S
C192 H185 0.929 1_554 S
C192 C193 1.400 . S
C192 C194 1.364 1_554 S
C193 C192 1.400 . S
C193 C197 1.377 . S
C194 C192 1.364 1_556 S
C194 C195 1.374 1_556 S
C195 H186 0.930 1_554 S
C195 C194 1.374 1_554 S
C195 C196 1.383 . S
C196 O190 1.412 . S
C196 C195 1.383 . S
C196 C197 1.394 . S
C197 H187 0.929 . S
C197 C193 1.377 . S
C197 C196 1.394 . S
C9 C189 3.739 . S
C49 C167 3.418 1_455 S
C89 C180 3.277 . S
C26 C193 3.194 . S
C163 C66 3.608 . S
C176 C106 3.758 . S
C43 C141 4.581 . S
C83 C154 4.662 . S
C22 C124 4.574 . S
C137 C62 4.619 . S
C150 C102 4.540 . S
C3 C128 4.617 . S
C155 C15 2.034 . S
C55 C129 2.008 . S
C95 C142 2.025 . S
C181 C42 1.541 1_565 S
C194 C82 1.353 1_556 S
C2 C168 1.273 1_455 S
