# Generated by pormake.
# Topology anh, (6,3)-cn, num edge types: 1
# Building blocks:
#     Node 0, Type 0, BuildingBlock: BETFEN_clean_sbu_0, # of connection points: 6
#     Node 1, Type 0, BuildingBlock: BETFEN_clean_sbu_0, # of connection points: 6
#     Node 2, Type 0, BuildingBlock: BETFEN_clean_sbu_0, # of connection points: 6
#     Node 3, Type 1, BuildingBlock: CUQRIR_clean_linker_1, # of connection points: 3
#     Node 4, Type 1, BuildingBlock: CUQRIR_clean_linker_1, # of connection points: 3
#     Node 5, Type 1, BuildingBlock: CUQRIR_clean_linker_1, # of connection points: 3
#     Node 6, Type 1, BuildingBlock: CUQRIR_clean_linker_1, # of connection points: 3
#     Node 7, Type 1, BuildingBlock: CUQRIR_clean_linker_1, # of connection points: 3
#     Node 8, Type 1, BuildingBlock: CUQRIR_clean_linker_1, # of connection points: 3
#     Edge 9, Type (0, 1), None
#     Edge 10, Type (0, 1), None
#     Edge 11, Type (0, 1), None
#     Edge 12, Type (0, 1), None
#     Edge 13, Type (0, 1), None
#     Edge 14, Type (0, 1), None
#     Edge 15, Type (0, 1), None
#     Edge 16, Type (0, 1), None
#     Edge 17, Type (0, 1), None
#     Edge 18, Type (0, 1), None
#     Edge 19, Type (0, 1), None
#     Edge 20, Type (0, 1), None
#     Edge 21, Type (0, 1), None
#     Edge 22, Type (0, 1), None
#     Edge 23, Type (0, 1), None
#     Edge 24, Type (0, 1), None
#     Edge 25, Type (0, 1), None
#     Edge 26, Type (0, 1), None
# Relax obj value: 0.517
# Max RMSD: 0.341
# Mean RMSD: 0.208
data_MOF--net-anh--node1-BETFEN_clean_sbu_0--node2-CUQRIR_clean_linker_1--edge1-none
_symmetry_space_group_name_H-M    P1
_symmetry_Int_Tables_number       1
_symmetry_cell_setting            triclinic
loop_
_symmetry_equiv_pos_as_xyz
'x, y, z'
_cell_length_a     11.01327
_cell_length_b     12.633177
_cell_length_c     19.09576
_cell_angle_alpha  83.323098
_cell_angle_beta   89.30741
_cell_angle_gamma 84.581581
loop_
_atom_site_label
_atom_site_type_symbol
_atom_site_fract_x
_atom_site_fract_y
_atom_site_fract_z
_atom_type_partial_charge
Pr0 Pr 0.09766 0.5919 0.12372 0.0
Pr1 Pr 1.04711 0.80192 0.13699 0.0
C2 C 0.07323 0.38317 0.1486 0.0
C3 C 0.96624 0.33995 0.18382 0.0
C4 C 0.91567 0.2539 0.15956 0.0
C5 C 0.81043 0.21669 0.19094 0.0
C6 C 0.74856 0.27109 0.24308 0.0
C7 C 0.79456 0.36119 0.26411 0.0
C8 C 0.90431 0.39414 0.2361 0.0
C9 C 0.11466 0.71414 -0.00986 0.0
C10 C 0.79955 0.69979 0.10537 0.0
C11 C 1.05052 1.01398 0.13521 0.0
C12 C 0.14605 1.07511 0.15913 0.0
C13 C 0.15099 1.09585 0.22956 0.0
C14 C 0.2583 1.12571 0.25614 0.0
C15 C 0.36227 1.13146 0.21334 0.0
C16 C 0.35372 1.11927 0.14178 0.0
C17 C 0.24425 1.09726 0.11411 0.0
C18 C 0.0586 0.68107 0.27343 0.0
C19 C 0.3488 0.70508 0.13058 0.0
O20 O 0.14076 0.43138 0.18824 0.0
O21 O 0.05271 0.43604 0.08632 0.0
O22 O 1.03153 0.72445 0.03604 0.0
O23 O 0.19283 0.63291 0.01109 0.0
O24 O 0.85287 0.78815 0.09109 0.0
O25 O 0.87085 0.61383 0.13286 0.0
O26 O 0.08142 0.9624 0.08155 0.0
O27 O 0.99199 0.95702 0.1837 0.0
O28 O 0.1333 0.67382 0.22297 0.0
O29 O 0.96392 0.74254 0.24827 0.0
O30 O 0.3106 0.60844 0.13909 0.0
O31 O 0.26431 0.78782 0.12239 0.0
H32 H 0.95539 0.21809 0.11492 0.0
H33 H 0.77304 1.14914 0.17183 0.0
H34 H 0.74182 0.40876 0.29912 0.0
H35 H 0.93736 0.46542 0.25251 0.0
H36 H 0.07445 1.0837 0.26469 0.0
H37 H 0.2619 1.14032 0.3107 0.0
H38 H 0.4326 1.12084 0.10773 0.0
H39 H 0.24084 1.08696 0.05863 0.0
Pr40 Pr 0.68934 1.17896 0.54292 0.0
Pr41 Pr 0.58631 0.18553 0.53443 0.0
C42 C 0.91467 0.23853 0.50217 0.0
C43 C 0.95365 0.34527 0.47438 0.0
C44 C 0.06328 0.37899 0.49617 0.0
C45 C 0.09832 0.48007 0.46974 0.0
C46 C 1.02513 0.54933 0.42044 0.0
C47 C 0.91716 0.5147 0.3976 0.0
C48 C 0.88067 0.41489 0.42555 0.0
C49 C 0.68274 1.18438 0.68632 0.0
C50 C 0.64386 0.47539 0.52062 0.0
C51 C 0.34786 1.14787 0.53669 0.0
C52 C 0.28776 1.05892 0.51083 0.0
C53 C 0.19821 1.07999 0.45795 0.0
C54 C 0.15129 0.99554 0.42848 0.0
C55 C 0.1935 0.88862 0.45089 0.0
C56 C 0.27942 0.86717 0.50542 0.0
C57 C 0.32563 0.95118 0.53528 0.0
C58 C 0.64027 1.18223 0.38923 0.0
C59 C 0.64896 0.89264 0.53456 0.0
O60 O 0.8431 0.19722 0.4622 0.0
O61 O 0.88048 0.22413 0.56741 0.0
O62 O 0.62174 0.24709 0.64156 0.0
O63 O 0.74587 1.1072 0.65785 0.0
O64 O 0.60181 0.38253 0.55262 0.0
O65 O 0.60497 0.37936 0.55052 0.0
O66 O 0.42148 1.12115 0.58975 0.0
O67 O 0.39236 0.21676 0.48953 0.0
O68 O 0.65294 1.10775 0.43857 0.0
O69 O 0.61078 0.27151 0.41574 0.0
O70 O 0.64192 0.97916 0.57284 0.0
O71 O 0.64193 0.97989 0.57256 0.0
H72 H 0.12094 0.32788 0.53425 0.0
H73 H 0.182 0.50532 0.48869 0.0
H74 H 0.85929 0.56633 0.36003 0.0
H75 H 0.79351 0.39275 0.41042 0.0
H76 H 0.16688 1.16171 0.43813 0.0
H77 H 0.083 1.01331 0.38751 0.0
H78 H 0.31251 0.78533 0.52388 0.0
H79 H 0.39299 0.93128 0.57665 0.0
Pr80 Pr 0.57981 0.65883 0.85828 0.0
Pr81 Pr 0.51886 0.84241 0.81097 0.0
C82 C 0.62828 0.45248 0.90482 0.0
C83 C 0.74378 0.39454 0.93052 0.0
C84 C 0.74256 0.30848 0.98405 0.0
C85 C 0.82212 0.21644 0.97709 0.0
C86 C 0.87347 0.21034 0.90944 0.0
C87 C 0.92532 0.30578 0.88524 0.0
C88 C 0.84954 0.40038 0.88855 0.0
C89 C 0.63215 0.77011 0.97076 0.0
C90 C 0.82339 0.77949 0.82122 0.0
C91 C 0.37599 1.02601 0.80259 0.0
C92 C 0.29702 1.12751 0.79792 0.0
C93 C 0.3145 0.19028 0.73419 0.0
C94 C 0.41648 0.2492 0.73107 0.0
C95 C 0.48187 0.25142 0.79427 0.0
C96 C 0.40649 0.24725 0.85498 0.0
C97 C 0.3103 1.18128 0.85719 0.0
C98 C 0.57697 0.7596 0.68529 0.0
C99 C 0.27696 0.71693 0.84951 0.0
O100 O 0.6234 0.48753 0.8377 0.0
O101 O 0.57604 0.5198 0.94468 0.0
O102 O 0.5394 0.78969 0.93046 0.0
O103 O 0.71068 0.701 0.94615 0.0
O104 O 0.73658 0.85685 0.83392 0.0
O105 O 0.7811 0.68755 0.81336 0.0
O106 O 0.35515 0.94481 0.84808 0.0
O107 O 0.47831 1.01494 0.76697 0.0
O108 O 0.52412 0.70898 0.73808 0.0
O109 O 0.60631 0.85223 0.69856 0.0
O110 O 0.36241 0.66829 0.89316 0.0
O111 O 0.32164 0.7761 0.79581 0.0
H112 H 0.67026 0.30559 0.02244 0.0
H113 H 0.80972 1.14418 0.01174 0.0
H114 H 1.00094 0.30642 0.84874 0.0
H115 H 0.86407 0.47082 0.85253 0.0
H116 H 0.26924 1.17623 0.68662 0.0
H117 H 0.43734 0.294 0.68209 0.0
H118 H 0.43496 0.27467 0.90316 0.0
H119 H 0.27141 1.15333 0.90758 0.0
C120 C 0.54241 0.23435 0.21993 0.0
N121 N 0.63092 0.24214 0.26687 0.0
N122 N 0.47495 1.15361 0.2424 0.0
C123 C 0.52488 0.30406 0.15069 0.0
C124 C 0.52658 1.11103 0.3044 0.0
N125 N 0.61792 1.1679 0.32115 0.0
C126 C 0.4935 1.00928 0.34588 0.0
H127 H 0.58916 0.36669 0.14413 0.0
H128 H 0.42951 0.34132 0.14623 0.0
H129 H 0.5419 0.25437 0.10715 0.0
H130 H 0.46239 0.95499 0.30969 0.0
H131 H 0.4198 1.0279 0.38357 0.0
H132 H 0.57314 0.96735 0.37564 0.0
C133 C 0.65292 0.68824 0.51694 0.0
N134 N 0.63473 0.7757 0.55946 0.0
N135 N 0.62431 0.58343 0.54731 0.0
C136 C 0.69475 0.70713 0.44202 0.0
C137 C 0.57999 0.61454 0.61023 0.0
N138 N 0.59333 0.72213 0.61994 0.0
C139 C 0.51577 0.539 0.66209 0.0
H140 H 0.64472 0.78069 0.41518 0.0
H141 H 0.67932 0.63857 0.41299 0.0
H142 H 0.79305 0.71977 0.44116 0.0
H143 H 0.57912 0.50532 0.70533 0.0
H144 H 0.4822 0.47287 0.63746 0.0
H145 H 0.43288 0.58025 0.68374 0.0
C146 C 0.055 0.73143 0.81502 0.0
N147 N 0.14964 0.72048 0.86381 0.0
N148 N 0.94738 0.78279 0.83831 0.0
C149 C 0.06943 0.69535 0.74308 0.0
C150 C 0.9843 0.80742 0.90109 0.0
N151 N 0.09643 0.75767 0.92087 0.0
C152 C 0.91836 0.89434 0.93838 0.0
H153 H 0.10383 0.76069 0.70648 0.0
H154 H 0.98076 0.67706 0.72273 0.0
H155 H 0.137 0.62413 0.74442 0.0
H156 H 0.83695 0.86562 0.96549 0.0
H157 H 0.88707 0.96302 0.89926 0.0
H158 H 0.97857 0.92261 0.97658 0.0
C159 C 0.08425 0.72337 0.44868 0.0
N160 N 0.05489 0.65809 0.40088 0.0
N161 N 0.14894 0.80212 0.41834 0.0
C162 C 1.0468 0.71212 0.52508 0.0
C163 C 0.15931 0.78213 0.35026 0.0
N164 N 0.10065 0.69564 0.33872 0.0
C165 C 0.23695 0.84052 0.29647 0.0
H166 H 1.02277 0.7922 0.54267 0.0
H167 H 0.12461 0.67244 0.55763 0.0
H168 H 0.96792 0.66361 0.53398 0.0
H169 H 0.26775 0.91233 0.31578 0.0
H170 H 0.18633 0.86374 0.24667 0.0
H171 H 0.31806 0.78625 0.28486 0.0
C172 C 0.66998 1.18105 0.8651 0.0
N173 N 0.61258 0.21458 0.80244 0.0
N174 N 0.79361 1.17393 0.85822 0.0
C175 C 0.61218 1.11303 0.92454 0.0
C176 C 0.80825 1.18458 0.78723 0.0
N177 N 0.69947 0.20565 0.75344 0.0
C178 C 0.9301 0.19109 0.75068 0.0
H179 H 0.53943 1.07016 0.90436 0.0
H180 H 0.57363 1.16233 0.96525 0.0
H181 H 0.6805 1.05109 0.95036 0.0
H182 H 1.00574 1.15699 0.7867 0.0
H183 H 0.9416 0.27637 0.73256 0.0
H184 H 0.93656 1.148 0.70348 0.0
C185 C 0.58078 0.66333 0.13241 0.0
N186 N 0.67467 0.70106 0.09021 0.0
N187 N 0.47038 0.72163 0.11528 0.0
C188 C 0.59838 0.59027 0.19987 0.0
C189 C 0.50439 0.7984 0.06563 0.0
N190 N 0.61911 0.77518 0.04226 0.0
C191 C 0.42228 0.8935 0.03396 0.0
H192 H 0.55492 0.51605 0.19553 0.0
H193 H 0.55085 0.62859 0.24334 0.0
H194 H 0.69582 0.57101 0.21345 0.0
H195 H 0.38164 0.93462 0.07737 0.0
H196 H 0.34831 0.86733 0.00288 0.0
H197 H 0.47416 0.95063 0.00012 0.0
loop_
_geom_bond_atom_site_label_1
_geom_bond_atom_site_label_2
_geom_bond_distance
_geom_bond_site_symmetry_2
_ccdc_geom_bond_type
Pr0 C2 2.880 1_455 S
Pr0 O20 2.562 1_455 S
Pr0 O21 2.490 1_455 S
Pr0 O22 2.695 . S
Pr0 O23 2.512 . S
Pr0 O25 2.437 1_455 S
Pr0 O28 2.436 1_455 S
Pr0 O30 2.438 . S
Pr1 C11 2.880 . S
Pr1 O22 2.436 . S
Pr1 O24 2.438 1_455 S
Pr1 O26 2.562 . S
Pr1 O27 2.490 . S
Pr1 O28 2.695 1_455 S
Pr1 O29 2.512 . S
Pr1 O31 2.437 . S
C2 Pr0 2.880 1_655 S
C2 C3 1.491 . S
C2 O20 1.254 . S
C2 O21 1.225 . S
C3 C2 1.491 . S
C3 C4 1.392 . S
C3 C8 1.356 . S
C4 C3 1.392 . S
C4 C5 1.368 . S
C4 H32 0.929 . S
C5 C4 1.368 . S
C5 C6 1.386 . S
C5 H33 0.929 . S
C6 C5 1.386 . S
C6 C7 1.373 . S
C7 C6 1.373 . S
C7 C8 1.409 . S
C7 H34 0.931 . S
C8 C3 1.356 . S
C8 C7 1.409 . S
C8 H35 0.930 . S
C9 O22 1.270 . S
C9 O23 1.250 . S
C10 O24 1.267 . S
C10 O25 1.278 . S
C11 Pr1 2.880 . S
C11 C12 1.491 . S
C11 O26 1.254 . S
C11 O27 1.225 . S
C12 C11 1.491 . S
C12 C13 1.392 . S
C12 C17 1.356 . S
C13 C12 1.392 . S
C13 C14 1.368 . S
C13 H36 0.929 . S
C14 C13 1.368 . S
C14 C15 1.386 . S
C14 H37 0.929 . S
C15 C14 1.386 . S
C15 C16 1.373 . S
C16 C15 1.373 . S
C16 C17 1.409 . S
C16 H38 0.931 . S
C17 C12 1.356 . S
C17 C16 1.409 . S
C17 H39 0.930 . S
C18 O28 1.270 1_455 S
C18 O29 1.248 . S
C19 O30 1.267 . S
C19 O31 1.278 . S
O20 Pr0 2.562 1_655 S
O20 C2 1.254 . S
O21 Pr0 2.490 1_655 S
O21 C2 1.225 . S
O22 Pr0 2.695 . S
O22 Pr1 2.436 . S
O22 C9 1.270 . S
O23 Pr0 2.512 . S
O23 C9 1.250 . S
O24 Pr1 2.438 1_655 S
O24 C10 1.267 . S
O25 Pr0 2.437 1_655 S
O25 C10 1.278 . S
O26 Pr1 2.562 . S
O26 C11 1.254 . S
O27 Pr1 2.490 . S
O27 C11 1.225 . S
O28 Pr0 2.436 1_655 S
O28 Pr1 2.695 1_655 S
O28 C18 1.270 1_655 S
O29 Pr1 2.512 . S
O29 C18 1.248 . S
O30 Pr0 2.438 . S
O30 C19 1.267 . S
O31 Pr1 2.437 . S
O31 C19 1.278 . S
H32 C4 0.929 . S
H33 C5 0.929 . S
H34 C7 0.931 . S
H35 C8 0.930 . S
H36 C13 0.929 . S
H37 C14 0.929 . S
H38 C16 0.931 . S
H39 C17 0.930 . S
Pr40 C42 2.880 . S
Pr40 O60 2.562 . S
Pr40 O61 2.490 . S
Pr40 O62 2.695 1_545 S
Pr40 O63 2.512 . S
Pr40 O65 2.437 . S
Pr40 O68 2.436 . S
Pr40 O70 2.438 1_545 S
Pr41 C51 2.880 . S
Pr41 O62 2.436 . S
Pr41 O64 2.438 1_565 S
Pr41 O66 2.562 . S
Pr41 O67 2.490 . S
Pr41 O68 2.695 1_565 S
Pr41 O69 2.512 . S
Pr41 O71 2.437 . S
C42 Pr40 2.880 . S
C42 C43 1.491 . S
C42 O60 1.254 . S
C42 O61 1.225 . S
C43 C42 1.491 . S
C43 C44 1.392 1_655 S
C43 C48 1.356 . S
C44 C43 1.392 1_455 S
C44 C45 1.368 . S
C44 H72 0.929 . S
C45 C44 1.368 . S
C45 C46 1.386 . S
C45 H73 0.929 . S
C46 C45 1.386 . S
C46 C47 1.373 . S
C47 C46 1.373 . S
C47 C48 1.409 1_455 S
C47 H74 0.931 . S
C48 C43 1.356 . S
C48 C47 1.409 1_655 S
C48 H75 0.930 . S
C49 O62 1.270 1_545 S
C49 O63 1.248 . S
C50 O64 1.267 . S
C50 O65 1.278 . S
C51 Pr41 2.880 . S
C51 C52 1.491 . S
C51 O66 1.254 . S
C51 O67 1.225 . S
C52 C51 1.491 . S
C52 C53 1.392 . S
C52 C57 1.356 . S
C53 C52 1.392 . S
C53 C54 1.368 . S
C53 H76 0.929 . S
C54 C53 1.368 . S
C54 C55 1.386 . S
C54 H77 0.929 . S
C55 C54 1.386 . S
C55 C56 1.373 . S
C56 C55 1.373 . S
C56 C57 1.409 . S
C56 H78 0.931 . S
C57 C52 1.356 . S
C57 C56 1.409 . S
C57 H79 0.930 . S
C58 O68 1.270 . S
C58 O69 1.248 1_545 S
C59 O70 1.267 . S
C59 O71 1.278 . S
O60 Pr40 2.562 . S
O60 C42 1.254 . S
O61 Pr40 2.490 . S
O61 C42 1.225 . S
O62 Pr40 2.695 1_565 S
O62 Pr41 2.436 . S
O62 C49 1.270 1_565 S
O63 Pr40 2.512 . S
O63 C49 1.248 . S
O64 Pr41 2.438 1_545 S
O64 C50 1.267 . S
O65 Pr40 2.437 . S
O65 C50 1.278 . S
O66 Pr41 2.562 . S
O66 C51 1.254 . S
O67 Pr41 2.490 . S
O67 C51 1.225 . S
O68 Pr40 2.436 . S
O68 Pr41 2.695 1_545 S
O68 C58 1.270 . S
O69 Pr41 2.512 . S
O69 C58 1.248 1_565 S
O70 Pr40 2.438 1_565 S
O70 C59 1.267 . S
O71 Pr41 2.437 . S
O71 C59 1.278 . S
H72 C44 0.929 . S
H73 C45 0.929 . S
H74 C47 0.931 . S
H75 C48 0.930 . S
H76 C53 0.929 . S
H77 C54 0.929 . S
H78 C56 0.931 . S
H79 C57 0.930 . S
Pr80 C82 2.880 . S
Pr80 O100 2.562 . S
Pr80 O101 2.490 . S
Pr80 O102 2.695 . S
Pr80 O103 2.512 1_556 S
Pr80 O105 2.437 . S
Pr80 O108 2.436 . S
Pr80 O110 2.438 . S
Pr81 C91 2.880 . S
Pr81 O102 2.436 . S
Pr81 O104 2.438 . S
Pr81 O106 2.562 . S
Pr81 O107 2.490 . S
Pr81 O108 2.695 . S
Pr81 O109 2.512 . S
Pr81 O111 2.437 . S
C82 Pr80 2.880 . S
C82 C83 1.491 . S
C82 O100 1.254 . S
C82 O101 1.225 . S
C83 C82 1.491 . S
C83 C84 1.392 . S
C83 C88 1.356 . S
C84 C83 1.392 . S
C84 C85 1.368 . S
C84 H112 0.929 . S
C85 C84 1.368 . S
C85 C86 1.386 . S
C85 H113 0.929 . S
C86 C85 1.386 . S
C86 C87 1.373 . S
C87 C86 1.373 . S
C87 C88 1.409 . S
C87 H114 0.931 . S
C88 C83 1.356 . S
C88 C87 1.409 . S
C88 H115 0.930 . S
C89 O102 1.270 1_554 S
C89 O103 1.248 . S
C90 O104 1.267 . S
C90 O105 1.278 . S
C91 Pr81 2.880 . S
C91 C92 1.491 . S
C91 O106 1.254 . S
C91 O107 1.225 . S
C92 C91 1.491 . S
C92 C93 1.392 . S
C92 C97 1.356 . S
C93 C92 1.392 . S
C93 C94 1.368 1_565 S
C93 H116 0.929 . S
C94 C93 1.368 1_545 S
C94 C95 1.386 . S
C94 H117 0.929 . S
C95 C94 1.386 . S
C95 C96 1.373 1_545 S
C96 C95 1.373 1_565 S
C96 C97 1.409 . S
C96 H118 0.931 . S
C97 C92 1.356 . S
C97 C96 1.409 . S
C97 H119 0.930 . S
C98 O108 1.270 . S
C98 O109 1.248 . S
C99 O110 1.267 . S
C99 O111 1.278 . S
O100 Pr80 2.562 . S
O100 C82 1.254 . S
O101 Pr80 2.490 . S
O101 C82 1.225 . S
O102 Pr80 2.695 . S
O102 Pr81 2.436 . S
O102 C89 1.270 1_556 S
O103 Pr80 2.512 1_554 S
O103 C89 1.248 . S
O104 Pr81 2.438 . S
O104 C90 1.267 . S
O105 Pr80 2.437 . S
O105 C90 1.278 . S
O106 Pr81 2.562 . S
O106 C91 1.254 . S
O107 Pr81 2.490 . S
O107 C91 1.225 . S
O108 Pr80 2.436 . S
O108 Pr81 2.695 . S
O108 C98 1.270 . S
O109 Pr81 2.512 . S
O109 C98 1.248 . S
O110 Pr80 2.438 . S
O110 C99 1.267 . S
O111 Pr81 2.437 . S
O111 C99 1.278 . S
H112 C84 0.929 . S
H113 C85 0.929 . S
H114 C87 0.931 . S
H115 C88 0.930 . S
H116 C93 0.929 . S
H117 C94 0.929 . S
H118 C96 0.931 . S
H119 C97 0.930 . S
C120 N121 1.317 . S
C120 N122 1.348 1_545 S
C120 C123 1.485 . S
N121 C120 1.317 . S
N121 N125 1.370 . S
N122 C120 1.348 1_565 S
N122 C124 1.346 . S
C123 C120 1.485 . S
C123 H127 0.960 . S
C123 H128 0.961 1_545 S
C123 H129 0.960 . S
C124 N122 1.346 . S
C124 N125 1.307 1_565 S
C124 C126 1.486 . S
N125 N121 1.370 . S
N125 C124 1.307 1_545 S
C126 C124 1.486 . S
C126 H130 0.960 . S
C126 H131 0.960 . S
C126 H132 0.959 . S
H127 C123 0.960 . S
H128 C123 0.961 1_565 S
H129 C123 0.960 . S
H130 C126 0.960 . S
H131 C126 0.960 . S
H132 C126 0.959 . S
C133 N134 1.317 . S
C133 N135 1.348 . S
C133 C136 1.485 . S
N134 C133 1.317 . S
N134 N138 1.370 . S
N135 C133 1.348 . S
N135 C137 1.346 . S
C136 C133 1.485 . S
C136 H140 0.960 . S
C136 H141 0.961 . S
C136 H142 0.960 . S
C137 N135 1.346 . S
C137 N138 1.307 . S
C137 C139 1.486 . S
N138 N134 1.370 . S
N138 C137 1.307 . S
C139 C137 1.486 . S
C139 H143 0.960 . S
C139 H144 0.960 . S
C139 H145 0.959 . S
H140 C136 0.960 . S
H141 C136 0.961 . S
H142 C136 0.960 . S
H143 C139 0.960 . S
H144 C139 0.960 . S
H145 C139 0.959 . S
C146 N147 1.317 . S
C146 N148 1.348 1_455 S
C146 C149 1.485 . S
N147 C146 1.317 . S
N147 N151 1.370 . S
N148 C146 1.348 1_655 S
N148 C150 1.346 . S
C149 C146 1.485 . S
C149 H153 0.960 . S
C149 H154 0.957 1_455 S
C149 H155 0.960 . S
C150 N148 1.346 . S
C150 N151 1.307 1_655 S
C150 C152 1.486 . S
N151 N147 1.370 . S
N151 C150 1.307 1_455 S
C152 C150 1.486 . S
C152 H156 0.960 . S
C152 H157 0.960 . S
C152 H158 0.959 1_556 S
H153 C149 0.960 . S
H154 C149 0.957 1_655 S
H155 C149 0.960 . S
H156 C152 0.960 . S
H157 C152 0.960 . S
H158 C152 0.959 1_554 S
C159 N160 1.317 1_455 S
C159 N161 1.348 . S
C159 C162 1.485 . S
N160 C159 1.317 1_655 S
N160 N164 1.370 1_655 S
N161 C159 1.348 . S
N161 C163 1.346 . S
C162 C159 1.485 . S
C162 H166 0.960 1_455 S
C162 H167 0.961 . S
C162 H168 0.960 . S
C163 N161 1.346 . S
C163 N164 1.307 . S
C163 C165 1.486 . S
N164 N160 1.370 1_455 S
N164 C163 1.307 . S
C165 C163 1.486 . S
C165 H169 0.960 . S
C165 H170 0.960 . S
C165 H171 0.959 . S
H166 C162 0.960 1_655 S
H167 C162 0.961 . S
H168 C162 0.960 . S
H169 C165 0.960 . S
H170 C165 0.960 . S
H171 C165 0.959 . S
C172 N173 1.317 . S
C172 N174 1.348 . S
C172 C175 1.485 . S
N173 C172 1.317 . S
N173 N177 1.370 . S
N174 C172 1.348 . S
N174 C176 1.346 . S
C175 C172 1.485 . S
C175 H179 0.960 . S
C175 H180 0.961 . S
C175 H181 0.960 1_545 S
C176 N174 1.346 . S
C176 N177 1.307 . S
C176 C178 1.486 . S
N177 N173 1.370 . S
N177 C176 1.307 . S
C178 C176 1.486 . S
C178 H182 0.960 . S
C178 H183 0.960 . S
C178 H184 0.959 . S
H179 C175 0.960 . S
H180 C175 0.961 . S
H181 C175 0.960 1_565 S
H182 C178 0.960 . S
H183 C178 0.960 . S
H184 C178 0.959 . S
C185 N186 1.317 . S
C185 N187 1.348 . S
C185 C188 1.485 . S
N186 C185 1.317 . S
N186 N190 1.370 . S
N187 C185 1.348 . S
N187 C189 1.346 . S
C188 C185 1.485 . S
C188 H192 0.960 . S
C188 H193 0.961 . S
C188 H194 0.960 . S
C189 N187 1.346 . S
C189 N190 1.307 . S
C189 C191 1.486 . S
N190 N186 1.370 . S
N190 C189 1.307 . S
C191 C189 1.486 . S
C191 H195 0.960 . S
C191 H196 0.960 . S
C191 H197 0.959 1_554 S
H192 C188 0.960 . S
H193 C188 0.961 . S
H194 C188 0.960 . S
H195 C191 0.960 . S
H196 C191 0.960 . S
H197 C191 0.959 1_556 S
C19 N187 2.233 . S
C46 N160 3.751 1_455 S
C95 N173 3.372 . S
C10 N186 2.667 . S
N161 C55 2.195 . S
N174 C86 4.960 . S
C59 N134 4.799 . S
C90 N148 2.556 . S
C15 N122 2.891 . S
N135 C50 4.824 . S
N147 C99 2.890 . S
C6 N121 1.955 . S
N151 C9 1.162 1_556 S
C58 N125 1.380 . S
C98 N138 2.055 . S
N177 C49 2.227 . S
N190 C89 0.912 . S
C18 N164 1.181 . S
