# Generated by pormake.
# Topology anh, (6,3)-cn, num edge types: 1
# Building blocks:
#     Node 0, Type 0, BuildingBlock: INOVEN_clean_sbu_0, # of connection points: 6
#     Node 1, Type 0, BuildingBlock: INOVEN_clean_sbu_0, # of connection points: 6
#     Node 2, Type 0, BuildingBlock: INOVEN_clean_sbu_0, # of connection points: 6
#     Node 3, Type 1, BuildingBlock: BETDIP_clean_linker_0, # of connection points: 3
#     Node 4, Type 1, BuildingBlock: BETDIP_clean_linker_0, # of connection points: 3
#     Node 5, Type 1, BuildingBlock: BETDIP_clean_linker_0, # of connection points: 3
#     Node 6, Type 1, BuildingBlock: BETDIP_clean_linker_0, # of connection points: 3
#     Node 7, Type 1, BuildingBlock: BETDIP_clean_linker_0, # of connection points: 3
#     Node 8, Type 1, BuildingBlock: BETDIP_clean_linker_0, # of connection points: 3
#     Edge 9, Type (0, 1), None
#     Edge 10, Type (0, 1), None
#     Edge 11, Type (0, 1), None
#     Edge 12, Type (0, 1), None
#     Edge 13, Type (0, 1), None
#     Edge 14, Type (0, 1), None
#     Edge 15, Type (0, 1), None
#     Edge 16, Type (0, 1), None
#     Edge 17, Type (0, 1), None
#     Edge 18, Type (0, 1), None
#     Edge 19, Type (0, 1), None
#     Edge 20, Type (0, 1), None
#     Edge 21, Type (0, 1), None
#     Edge 22, Type (0, 1), None
#     Edge 23, Type (0, 1), None
#     Edge 24, Type (0, 1), None
#     Edge 25, Type (0, 1), None
#     Edge 26, Type (0, 1), None
# Relax obj value: 0.394
# Max RMSD: 0.297
# Mean RMSD: 0.166
data_MOF--net-anh--node1-INOVEN_clean_sbu_0--node2-BETDIP_clean_linker_0--edge1-none
_symmetry_space_group_name_H-M    P1
_symmetry_Int_Tables_number       1
_symmetry_cell_setting            triclinic
loop_
_symmetry_equiv_pos_as_xyz
'x, y, z'
_cell_length_a     13.289485
_cell_length_b     20.031066
_cell_length_c     22.703369
_cell_angle_alpha  93.460713
_cell_angle_beta   88.674736
_cell_angle_gamma 140.14418
loop_
_atom_site_label
_atom_site_type_symbol
_atom_site_fract_x
_atom_site_fract_y
_atom_site_fract_z
_atom_type_partial_charge
Gd0 Gd 0.56594 0.74264 0.15716 0.0
Gd1 Gd 1.29205 0.67271 0.15111 0.0
C2 C 0.59947 0.91559 0.15654 0.0
C3 C 0.84079 0.83166 0.17487 0.0
C4 C 0.87383 0.78474 0.2013 0.0
C5 C 0.74784 0.68953 0.22726 0.0
C6 C 0.99246 0.80479 0.17774 0.0
C7 C 0.80472 0.61844 0.16828 0.0
C8 C 0.96096 0.72099 0.16475 0.0
C9 C 0.70916 0.60408 0.20891 0.0
C10 C 0.42461 0.69168 0.26214 0.0
C11 C 1.27595 0.50019 0.14075 0.0
C12 C 1.01051 0.56558 0.1739 0.0
C13 C 0.85782 0.45693 0.15762 0.0
C14 C 0.82542 0.41367 0.09989 0.0
C15 C 0.741 0.39636 0.19957 0.0
C16 C 0.5504 0.26572 0.12186 0.0
C17 C 0.5873 0.29975 0.18184 0.0
C18 C 0.67194 0.31794 0.08213 0.0
C19 C 0.3896 0.70202 0.03953 0.0
O20 O 0.651 0.88644 0.12994 0.0
O21 O 0.4593 0.84262 0.17932 0.0
O22 O 0.76369 0.78632 0.12378 0.0
O23 O 0.78248 0.84843 0.2102 0.0
O24 O 0.45917 0.65107 0.23943 0.0
O25 O 0.45384 0.74954 0.22625 0.0
O26 O 1.1988 0.5177 0.14856 0.0
O27 O 0.42956 0.57874 0.13756 0.0
O28 O 1.08883 0.62946 0.1312 0.0
O29 O 1.09816 0.577 0.21015 0.0
O30 O 0.3396 0.73294 0.06306 0.0
O31 O 0.39911 0.66344 0.0783 0.0
H32 H 0.66328 0.67564 0.25168 0.0
H33 H 1.09574 0.87944 0.1602 0.0
H34 H 1.0446 0.73535 0.13857 0.0
H35 H 0.59286 0.52697 0.21764 0.0
H36 H 0.91556 0.45733 0.06735 0.0
H37 H 0.76566 0.42735 0.24481 0.0
H38 H 0.49473 0.26014 0.21305 0.0
H39 H 0.64524 0.29205 0.0357 0.0
Gd40 Gd 0.9772 0.14358 0.43843 0.0
Gd41 Gd 0.76162 0.14319 0.44154 0.0
C42 C 0.60952 0.92431 0.43433 0.0
C43 C 1.11923 0.10427 0.45229 0.0
C44 C 1.0789 1.0287 0.48818 0.0
C45 C 1.14107 0.99668 0.47635 0.0
C46 C 0.9762 0.98757 0.53464 0.0
C47 C 1.01121 0.89137 0.56136 0.0
C48 C 0.94383 0.92021 0.57143 0.0
C49 C 1.10894 0.92912 0.51318 0.0
C50 C 0.91866 0.16248 0.33076 0.0
C51 C 1.13951 0.36817 0.44966 0.0
C52 C 0.61374 0.17766 0.42739 0.0
C53 C 0.64393 0.25915 0.45755 0.0
C54 C 0.54438 0.23203 0.50198 0.0
C55 C 0.78413 0.36525 0.4493 0.0
C56 C 0.7305 0.4146 0.53318 0.0
C57 C 0.8278 0.44216 0.48717 0.0
C58 C 0.58544 0.30875 0.53866 0.0
C59 C 0.81684 0.12589 0.55032 0.0
O60 O 0.74419 0.97753 0.46057 0.0
O61 O 0.59719 0.9763 0.4107 0.0
O62 O 1.02212 1.06398 0.4077 0.0
O63 O 1.15838 0.17982 0.48232 0.0
O64 O 1.05652 0.21573 0.35029 0.0
O65 O 0.81829 0.10044 0.3684 0.0
O66 O 0.99538 0.31858 0.44364 0.0
O67 O 1.16536 0.31686 0.45208 0.0
O68 O 0.5642 0.1069 0.46131 0.0
O69 O 0.72065 0.20947 0.39127 0.0
O70 O 0.68254 0.07877 0.53082 0.0
O71 O 0.91981 0.18539 0.51254 0.0
H72 H 1.21665 1.02543 0.43942 0.0
H73 H 0.92034 1.00712 0.54221 0.0
H74 H 0.86455 0.88959 0.60721 0.0
H75 H 1.16061 0.90671 0.50385 0.0
H76 H 0.43949 0.15144 0.51091 0.0
H77 H 0.86492 0.38918 0.4159 0.0
H78 H 0.94133 0.52278 0.48196 0.0
H79 H 0.50571 0.28461 0.57265 0.0
Gd80 Gd 0.92458 0.67337 0.85304 0.0
Gd81 Gd 0.69579 0.44028 0.84227 0.0
C82 C 0.55626 0.52001 0.85743 0.0
C83 C 1.12672 0.86705 0.83084 0.0
C84 C 1.11699 0.93345 0.8165 0.0
C85 C 1.13961 0.9969 0.86053 0.0
C86 C 1.0873 0.93516 0.75784 0.0
C87 C 1.09693 1.05864 0.78776 0.0
C88 C 1.07782 0.9971 0.74362 0.0
C89 C 1.12885 1.05847 0.8463 0.0
C90 C 0.78236 0.57606 0.95253 0.0
C91 C 1.06981 0.5972 0.86267 0.0
C92 C 0.55543 0.25497 0.84566 0.0
C93 C 0.60434 0.2129 0.8221 0.0
C94 C 0.51498 0.13558 0.77554 0.0
C95 C 0.75034 0.25964 0.83854 0.0
C96 C 0.72374 0.16135 0.75714 0.0
C97 C 0.80963 0.23418 0.80624 0.0
C98 C 0.57272 0.10901 0.74392 0.0
C99 C 0.75462 0.5253 0.7399 0.0
O100 O 0.69124 0.60822 0.8362 0.0
O101 O 0.53639 0.44657 0.87101 0.0
O102 O 1.0957 0.83652 0.88464 0.0
O103 O 1.06703 0.7932 0.79087 0.0
O104 O 0.82681 0.65829 0.94051 0.0
O105 O 0.83043 0.55735 0.91529 0.0
O106 O 0.9306 0.503 0.84252 0.0
O107 O 1.09253 0.67415 0.87372 0.0
O108 O 0.52303 0.28079 0.80546 0.0
O109 O 0.63666 0.32372 0.89083 0.0
O110 O 0.61856 0.43411 0.75335 0.0
O111 O 0.8545 0.56494 0.78035 0.0
H112 H 1.16483 0.99861 0.906 0.0
H113 H 1.07342 0.88957 0.72258 0.0
H114 H 1.05445 0.996 0.69802 0.0
H115 H 1.14473 0.10562 0.88115 0.0
H116 H 0.40494 0.10076 0.76091 0.0
H117 H 0.82311 0.3203 0.87399 0.0
H118 H 0.92669 0.27634 0.81743 0.0
H119 H 0.50211 1.05116 0.70706 0.0
H120 H 0.78588 0.09848 0.09783 0.0
H121 H 1.07194 0.31015 0.25133 0.0
H122 H 0.6844 0.98065 0.26868 0.0
H123 H 1.26125 0.38413 0.15247 0.0
C124 C 1.19285 0.39306 0.14184 0.0
C125 C 0.81053 0.11175 0.14501 0.0
C126 C 0.71755 1.02595 0.18067 0.0
C127 C 0.93809 0.21512 0.17054 0.0
C128 C 0.97372 0.23142 0.23147 0.0
C129 C 0.87944 0.1468 0.26723 0.0
C130 C 0.75134 1.04542 0.24159 0.0
N131 N 1.02598 0.30254 0.13581 0.0
H132 H 0.90118 0.61261 0.51396 0.0
H133 H 0.92096 0.70713 0.69199 0.0
H134 H 0.68051 0.39868 0.65129 0.0
H135 H 0.89122 0.78709 0.63484 0.0
C136 C 0.97058 0.81682 0.59906 0.0
C137 C 0.87369 0.59468 0.55985 0.0
C138 C 0.78346 0.49531 0.57704 0.0
C139 C 0.92218 0.67042 0.60083 0.0
C140 C 0.88427 0.64866 0.66027 0.0
C141 C 0.79606 0.55027 0.6782 0.0
C142 C 0.74573 0.47392 0.63663 0.0
N143 N 1.00238 0.76612 0.57996 0.0
H144 H 1.20506 0.54635 0.8124 0.0
H145 H 0.47643 0.63564 -0.03112 0.0
H146 H 1.20728 0.68048 -0.03184 0.0
H147 H 0.35741 0.45632 0.91095 0.0
C148 C 0.43579 0.50995 0.87695 0.0
C149 C 1.24449 0.5787 0.85764 0.0
C150 C 1.19082 0.61136 0.88735 0.0
C151 C 0.35066 0.58875 0.88648 0.0
C152 C 0.39761 0.62864 0.94615 0.0
C153 C 0.34848 0.66356 -0.02425 0.0
C154 C 1.24842 0.65603 0.9453 0.0
N155 N 0.41909 0.56687 0.85443 0.0
H156 H 0.44292 0.74691 0.49687 0.0
H157 H 1.29038 0.54748 0.34184 0.0
H158 H 0.52982 0.85399 0.32364 0.0
H159 H 0.38849 0.51778 0.4358 0.0
C160 C 1.27746 0.48323 0.44886 0.0
C161 C 0.43203 0.73339 0.44929 0.0
C162 C 0.50081 0.81419 0.41273 0.0
C163 C 0.3503 0.63497 0.42357 0.0
C164 C 0.34721 0.62104 0.3619 0.0
C165 C 0.41266 0.70043 0.32593 0.0
C166 C 0.48068 0.79358 0.35158 0.0
N167 N 1.26796 0.54916 0.45884 0.0
H168 H 0.90072 0.14287 0.78317 0.0
H169 H 1.01116 0.13676 0.60449 0.0
H170 H 0.70497 0.14754 0.63799 0.0
H171 H 1.08305 0.16119 0.80904 0.0
C172 C 1.07786 0.11982 0.77346 0.0
C173 C 0.89121 0.14439 0.73623 0.0
C174 C 0.79774 0.14903 0.71568 0.0
C175 C 0.96685 0.13827 0.69601 0.0
C176 C 0.951 0.13951 0.63524 0.0
C177 C 0.85176 0.13867 0.6141 0.0
C178 C 0.77692 0.14426 0.65451 0.0
N179 N 1.04717 0.12107 0.71412 0.0
H180 H 0.53395 0.40223 0.15791 0.0
H181 H 0.52283 0.36671 -0.03133 0.0
H182 H 0.88785 0.67107 0.05603 0.0
H183 H 1.28971 0.12877 0.11043 0.0
C184 C 0.39595 0.20758 0.09811 0.0
C185 C 0.58625 0.43667 0.11617 0.0
C186 C 0.72778 0.54499 0.11476 0.0
C187 C 0.51343 0.37153 0.06351 0.0
C188 C 0.57748 0.41627 0.00918 0.0
C189 C 0.71277 0.52477 0.00763 0.0
C190 C 0.78591 0.58748 0.05958 0.0
N191 N 0.38528 0.26069 0.06531 0.0
loop_
_geom_bond_atom_site_label_1
_geom_bond_atom_site_label_2
_geom_bond_distance
_geom_bond_site_symmetry_2
_ccdc_geom_bond_type
Gd0 C3 2.818 . S
Gd0 O20 2.377 . S
Gd0 O22 2.448 . S
Gd0 O23 2.506 . S
Gd0 O24 2.435 . S
Gd0 O25 2.717 . S
Gd0 O27 2.395 1_455 S
Gd0 O31 2.327 . S
Gd1 C12 2.818 1_455 S
Gd1 O21 2.395 . S
Gd1 O25 2.327 . S
Gd1 O26 2.377 1_455 S
Gd1 O28 2.448 1_455 S
Gd1 O29 2.506 1_455 S
Gd1 O30 2.435 . S
Gd1 O31 2.717 . S
C2 O20 1.240 . S
C2 O21 1.240 . S
C3 Gd0 2.818 . S
C3 C4 1.510 . S
C3 O22 1.249 . S
C3 O23 1.252 . S
C4 C3 1.510 . S
C4 C5 1.404 . S
C4 C6 1.352 . S
C5 C4 1.404 . S
C5 C9 1.389 . S
C5 H32 0.930 . S
C6 C4 1.352 . S
C6 C8 1.374 . S
C6 H33 0.931 . S
C7 C8 1.359 . S
C7 C9 1.364 . S
C8 C6 1.374 . S
C8 C7 1.359 . S
C8 H34 0.931 . S
C9 C5 1.389 . S
C9 C7 1.364 . S
C9 H35 0.931 . S
C10 O24 1.256 . S
C10 O25 1.257 . S
C11 O26 1.240 . S
C11 O27 1.240 . S
C12 Gd1 2.818 1_655 S
C12 C13 1.510 . S
C12 O28 1.249 . S
C12 O29 1.252 . S
C13 C12 1.510 . S
C13 C14 1.404 . S
C13 C15 1.352 . S
C14 C13 1.404 . S
C14 C18 1.389 . S
C14 H36 0.930 . S
C15 C13 1.352 . S
C15 C17 1.374 . S
C15 H37 0.931 . S
C16 C17 1.359 . S
C16 C18 1.364 . S
C17 C15 1.374 . S
C17 C16 1.359 . S
C17 H38 0.931 . S
C18 C14 1.389 . S
C18 C16 1.364 . S
C18 H39 0.931 . S
C19 O30 1.256 . S
C19 O31 1.257 . S
O20 Gd0 2.377 . S
O20 C2 1.240 . S
O21 Gd1 2.395 . S
O21 C2 1.240 . S
O22 Gd0 2.448 . S
O22 C3 1.249 . S
O23 Gd0 2.506 . S
O23 C3 1.252 . S
O24 Gd0 2.435 . S
O24 C10 1.256 . S
O25 Gd0 2.717 . S
O25 Gd1 2.327 . S
O25 C10 1.257 . S
O26 Gd1 2.377 1_655 S
O26 C11 1.240 . S
O27 Gd0 2.395 1_655 S
O27 C11 1.240 . S
O28 Gd1 2.448 1_655 S
O28 C12 1.249 . S
O29 Gd1 2.506 1_655 S
O29 C12 1.252 . S
O30 Gd1 2.435 . S
O30 C19 1.256 . S
O31 Gd0 2.327 . S
O31 Gd1 2.717 . S
O31 C19 1.257 . S
H32 C5 0.930 . S
H33 C6 0.931 . S
H34 C8 0.931 . S
H35 C9 0.931 . S
H36 C14 0.930 . S
H37 C15 0.931 . S
H38 C17 0.931 . S
H39 C18 0.931 . S
Gd40 C43 2.818 1_545 S
Gd40 O60 2.377 1_545 S
Gd40 O62 2.448 1_545 S
Gd40 O63 2.506 1_545 S
Gd40 O64 2.435 1_545 S
Gd40 O65 2.717 . S
Gd40 O67 2.395 . S
Gd40 O71 2.327 . S
Gd41 C52 2.818 . S
Gd41 O61 2.395 1_545 S
Gd41 O65 2.327 . S
Gd41 O66 2.377 . S
Gd41 O68 2.448 . S
Gd41 O69 2.506 . S
Gd41 O70 2.435 . S
Gd41 O71 2.717 . S
C42 O60 1.240 . S
C42 O61 1.240 . S
C43 Gd40 2.818 1_565 S
C43 C44 1.510 . S
C43 O62 1.249 . S
C43 O63 1.252 . S
C44 C43 1.510 . S
C44 C45 1.404 . S
C44 C46 1.352 . S
C45 C44 1.404 . S
C45 C49 1.389 . S
C45 H72 0.930 . S
C46 C44 1.352 . S
C46 C48 1.374 . S
C46 H73 0.931 . S
C47 C48 1.359 . S
C47 C49 1.364 . S
C48 C46 1.374 . S
C48 C47 1.359 . S
C48 H74 0.931 . S
C49 C45 1.389 . S
C49 C47 1.364 . S
C49 H75 0.931 . S
C50 O64 1.256 1_545 S
C50 O65 1.257 . S
C51 O66 1.240 . S
C51 O67 1.240 . S
C52 Gd41 2.818 . S
C52 C53 1.510 . S
C52 O68 1.249 . S
C52 O69 1.252 . S
C53 C52 1.510 . S
C53 C54 1.404 . S
C53 C55 1.352 . S
C54 C53 1.404 . S
C54 C58 1.389 . S
C54 H76 0.930 . S
C55 C53 1.352 . S
C55 C57 1.374 . S
C55 H77 0.931 . S
C56 C57 1.359 . S
C56 C58 1.364 . S
C57 C55 1.374 . S
C57 C56 1.359 . S
C57 H78 0.931 . S
C58 C54 1.389 . S
C58 C56 1.364 . S
C58 H79 0.931 . S
C59 O70 1.256 . S
C59 O71 1.257 . S
O60 Gd40 2.377 1_565 S
O60 C42 1.240 . S
O61 Gd41 2.395 1_565 S
O61 C42 1.240 . S
O62 Gd40 2.448 1_565 S
O62 C43 1.249 . S
O63 Gd40 2.506 1_565 S
O63 C43 1.252 . S
O64 Gd40 2.435 1_565 S
O64 C50 1.256 1_565 S
O65 Gd40 2.717 . S
O65 Gd41 2.327 . S
O65 C50 1.257 . S
O66 Gd41 2.377 . S
O66 C51 1.240 . S
O67 Gd40 2.395 . S
O67 C51 1.240 . S
O68 Gd41 2.448 . S
O68 C52 1.249 . S
O69 Gd41 2.506 . S
O69 C52 1.252 . S
O70 Gd41 2.435 . S
O70 C59 1.256 . S
O71 Gd40 2.327 . S
O71 Gd41 2.717 . S
O71 C59 1.257 . S
H72 C45 0.930 . S
H73 C46 0.931 . S
H74 C48 0.931 . S
H75 C49 0.931 . S
H76 C54 0.930 . S
H77 C55 0.931 . S
H78 C57 0.931 . S
H79 C58 0.931 . S
Gd80 C83 2.818 . S
Gd80 O100 2.377 . S
Gd80 O102 2.448 . S
Gd80 O103 2.506 . S
Gd80 O104 2.435 1_556 S
Gd80 O105 2.717 . S
Gd80 O107 2.395 . S
Gd80 O111 2.327 . S
Gd81 C92 2.818 . S
Gd81 O101 2.395 . S
Gd81 O105 2.327 . S
Gd81 O106 2.377 . S
Gd81 O108 2.448 . S
Gd81 O109 2.506 . S
Gd81 O110 2.435 . S
Gd81 O111 2.717 . S
C82 O100 1.240 . S
C82 O101 1.240 . S
C83 Gd80 2.818 . S
C83 C84 1.510 . S
C83 O102 1.249 . S
C83 O103 1.252 . S
C84 C83 1.510 . S
C84 C85 1.404 . S
C84 C86 1.352 . S
C85 C84 1.404 . S
C85 C89 1.389 . S
C85 H112 0.930 1_556 S
C86 C84 1.352 . S
C86 C88 1.374 . S
C86 H113 0.931 . S
C87 C88 1.359 . S
C87 C89 1.364 . S
C88 C86 1.374 . S
C88 C87 1.359 . S
C88 H114 0.931 . S
C89 C85 1.389 . S
C89 C87 1.364 . S
C89 H115 0.931 1_556 S
C90 O104 1.256 1_556 S
C90 O105 1.257 . S
C91 O106 1.240 . S
C91 O107 1.240 . S
C92 Gd81 2.818 . S
C92 C93 1.510 . S
C92 O108 1.249 . S
C92 O109 1.252 . S
C93 C92 1.510 . S
C93 C94 1.404 . S
C93 C95 1.352 . S
C94 C93 1.404 . S
C94 C98 1.389 . S
C94 H116 0.930 . S
C95 C93 1.352 . S
C95 C97 1.374 . S
C95 H117 0.931 . S
C96 C97 1.359 . S
C96 C98 1.364 . S
C97 C95 1.374 . S
C97 C96 1.359 . S
C97 H118 0.931 . S
C98 C94 1.389 . S
C98 C96 1.364 . S
C98 H119 0.931 . S
C99 O110 1.256 . S
C99 O111 1.257 . S
O100 Gd80 2.377 . S
O100 C82 1.240 . S
O101 Gd81 2.395 . S
O101 C82 1.240 . S
O102 Gd80 2.448 . S
O102 C83 1.249 . S
O103 Gd80 2.506 . S
O103 C83 1.252 . S
O104 Gd80 2.435 1_554 S
O104 C90 1.256 1_554 S
O105 Gd80 2.717 . S
O105 Gd81 2.327 . S
O105 C90 1.257 . S
O106 Gd81 2.377 . S
O106 C91 1.240 . S
O107 Gd80 2.395 . S
O107 C91 1.240 . S
O108 Gd81 2.448 . S
O108 C92 1.249 . S
O109 Gd81 2.506 . S
O109 C92 1.252 . S
O110 Gd81 2.435 . S
O110 C99 1.256 . S
O111 Gd80 2.327 . S
O111 Gd81 2.717 . S
O111 C99 1.257 . S
H112 C85 0.930 1_554 S
H113 C86 0.931 . S
H114 C88 0.931 . S
H115 C89 0.931 1_554 S
H116 C94 0.930 . S
H117 C95 0.931 . S
H118 C97 0.931 . S
H119 C98 0.931 . S
H120 C125 0.930 . S
H121 C128 0.930 . S
H122 C130 0.930 . S
H123 C124 1.016 . S
C124 H123 1.016 . S
C124 N131 1.286 . S
C125 H120 0.930 . S
C125 C126 1.397 . S
C125 C127 1.361 1_565 S
C126 C125 1.397 . S
C126 C130 1.390 . S
C127 C125 1.361 1_545 S
C127 C128 1.393 . S
C127 N131 1.413 . S
C128 H121 0.930 . S
C128 C127 1.393 . S
C128 C129 1.399 . S
C129 C128 1.399 . S
C129 C130 1.381 1_545 S
C130 H122 0.930 . S
C130 C126 1.390 . S
C130 C129 1.381 1_565 S
N131 C124 1.286 . S
N131 C127 1.413 . S
H132 C137 0.930 . S
H133 C140 0.930 . S
H134 C142 0.930 . S
H135 C136 1.016 . S
C136 H135 1.016 . S
C136 N143 1.286 . S
C137 H132 0.930 . S
C137 C138 1.397 . S
C137 C139 1.361 . S
C138 C137 1.397 . S
C138 C142 1.390 . S
C139 C137 1.361 . S
C139 C140 1.393 . S
C139 N143 1.413 . S
C140 H133 0.930 . S
C140 C139 1.393 . S
C140 C141 1.399 . S
C141 C140 1.399 . S
C141 C142 1.381 . S
C142 H134 0.930 . S
C142 C138 1.390 . S
C142 C141 1.381 . S
N143 C136 1.286 . S
N143 C139 1.413 . S
H144 C149 0.930 1_655 S
H145 C152 0.930 . S
H146 C154 0.930 1_554 S
H147 C148 1.016 . S
C148 H147 1.016 . S
C148 N155 1.286 . S
C149 H144 0.930 1_455 S
C149 C150 1.397 1_455 S
C149 C151 1.361 . S
C150 C149 1.397 1_655 S
C150 C154 1.390 . S
C151 C149 1.361 . S
C151 C152 1.393 . S
C151 N155 1.413 . S
C152 H145 0.930 . S
C152 C151 1.393 . S
C152 C153 1.399 1_556 S
C153 C152 1.399 1_554 S
C153 C154 1.381 1_454 S
C154 H146 0.930 1_556 S
C154 C150 1.390 . S
C154 C153 1.381 1_656 S
N155 C148 1.286 . S
N155 C151 1.413 . S
H156 C161 0.930 . S
H157 C164 0.930 . S
H158 C166 0.930 . S
H159 C160 1.016 . S
C160 H159 1.016 . S
C160 N167 1.286 . S
C161 H156 0.930 . S
C161 C162 1.397 . S
C161 C163 1.361 1_455 S
C162 C161 1.397 . S
C162 C166 1.390 . S
C163 C161 1.361 1_655 S
C163 C164 1.393 . S
C163 N167 1.413 . S
C164 H157 0.930 . S
C164 C163 1.393 . S
C164 C165 1.399 1_655 S
C165 C164 1.399 1_455 S
C165 C166 1.381 . S
C166 H158 0.930 . S
C166 C162 1.390 . S
C166 C165 1.381 . S
N167 C160 1.286 . S
N167 C163 1.413 . S
H168 C173 0.930 . S
H169 C176 0.930 1_565 S
H170 C178 0.930 . S
H171 C172 1.016 . S
C172 H171 1.016 . S
C172 N179 1.286 . S
C173 H168 0.930 . S
C173 C174 1.397 . S
C173 C175 1.361 . S
C174 C173 1.397 . S
C174 C178 1.390 . S
C175 C173 1.361 . S
C175 C176 1.393 . S
C175 N179 1.413 1_545 S
C176 H169 0.930 1_545 S
C176 C175 1.393 . S
C176 C177 1.399 . S
C177 C176 1.399 . S
C177 C178 1.381 . S
C178 H170 0.930 . S
C178 C174 1.390 . S
C178 C177 1.381 . S
N179 C172 1.286 . S
N179 C175 1.413 1_565 S
H180 C185 0.930 . S
H181 C188 0.930 1_556 S
H182 C190 0.930 1_556 S
H183 C184 1.016 . S
C184 H183 1.016 . S
C184 N191 1.286 . S
C185 H180 0.930 . S
C185 C186 1.397 . S
C185 C187 1.361 . S
C186 C185 1.397 . S
C186 C190 1.390 . S
C187 C185 1.361 . S
C187 C188 1.393 . S
C187 N191 1.413 . S
C188 H181 0.930 1_554 S
C188 C187 1.393 . S
C188 C189 1.399 1_554 S
C189 C188 1.399 1_556 S
C189 C190 1.381 1_556 S
C190 H182 0.930 1_554 S
C190 C186 1.390 . S
C190 C189 1.381 1_554 S
N191 C184 1.286 . S
N191 C187 1.413 . S
C7 C186 4.716 . S
C51 C160 2.359 . S
C87 C172 3.218 . S
C16 C184 2.802 . S
C162 C42 2.410 . S
C174 C96 1.961 . S
C47 C136 2.254 . S
C91 C150 5.051 . S
C2 C126 2.642 . S
C138 C56 2.367 . S
C148 C82 4.468 . S
C11 C124 2.468 . S
C153 C19 2.053 . S
C50 C129 1.115 . S
C99 C141 1.426 . S
C177 C59 1.352 . S
C189 C90 1.640 . S
C10 C165 1.191 . S
