# Generated by pormake.
# Topology tsx, (6,3)-cn, num edge types: 1
# Building blocks:
#     Node 0, Type 0, BuildingBlock: CIFDUS_clean_sbu_1, # of connection points: 6
#     Node 1, Type 0, BuildingBlock: CIFDUS_clean_sbu_1, # of connection points: 6
#     Node 2, Type 1, BuildingBlock: BETDAH_clean_linker_0, # of connection points: 3
#     Node 3, Type 1, BuildingBlock: BETDAH_clean_linker_0, # of connection points: 3
#     Node 4, Type 1, BuildingBlock: BETDAH_clean_linker_0, # of connection points: 3
#     Node 5, Type 1, BuildingBlock: BETDAH_clean_linker_0, # of connection points: 3
#     Edge 6, Type (0, 1), None
#     Edge 7, Type (0, 1), None
#     Edge 8, Type (0, 1), None
#     Edge 9, Type (0, 1), None
#     Edge 10, Type (0, 1), None
#     Edge 11, Type (0, 1), None
#     Edge 12, Type (0, 1), None
#     Edge 13, Type (0, 1), None
#     Edge 14, Type (0, 1), None
#     Edge 15, Type (0, 1), None
#     Edge 16, Type (0, 1), None
#     Edge 17, Type (0, 1), None
# Relax obj value: 0.098
# Max RMSD: 0.129
# Mean RMSD: 0.100
data_MOF--net-tsx--node1-CIFDUS_clean_sbu_1--node2-BETDAH_clean_linker_0--edge1-none
_symmetry_space_group_name_H-M    P1
_symmetry_Int_Tables_number       1
_symmetry_cell_setting            triclinic
loop_
_symmetry_equiv_pos_as_xyz
'x, y, z'
_cell_length_a     8.1006895
_cell_length_b     9.5258926
_cell_length_c     16.421291
_cell_angle_alpha  92.060821
_cell_angle_beta   110.27939
_cell_angle_gamma 92.452237
loop_
_atom_site_label
_atom_site_type_symbol
_atom_site_fract_x
_atom_site_fract_y
_atom_site_fract_z
_atom_type_partial_charge
O0 O 0.92661 0.2666 0.94795 0.0
Mn1 Mn 0.07098 0.08345 -0.03188 0.0
O2 O 0.64039 0.18344 0.88515 0.0
Mn3 Mn 0.67919 1.00892 0.84585 0.0
O4 O 0.17001 0.88334 -0.03436 0.0
O5 O 0.31285 0.20033 0.0132 0.0
Mn6 Mn 0.44346 0.06361 0.07184 0.0
O7 O 0.08491 0.07881 0.09541 0.0
O8 O 0.45418 0.9142 -0.00111 0.0
O9 O 0.05264 0.09596 0.83924 0.0
O10 O 0.77412 1.01819 0.75815 0.0
O11 O 0.6032 0.20615 0.08167 0.0
O12 O 0.36754 0.0361 0.16658 0.0
C13 C 0.7654 0.85931 0.94866 0.0
C14 C 0.75848 0.2841 0.91267 0.0
C15 C 0.31281 0.84312 -0.04061 0.0
C16 C 0.46563 0.2737 0.04165 0.0
C17 C 0.212 0.05908 0.16566 0.0
C18 C 0.92813 0.06845 0.76568 0.0
O19 O 0.85334 0.9652 0.93605 0.0
O20 O 0.61407 0.84346 0.88822 0.0
O21 O 0.42637 0.76679 0.4484 0.0
Mn22 Mn 0.57009 0.5834 0.46832 0.0
O23 O 0.14019 0.68418 0.38349 0.0
Mn24 Mn 0.17868 0.50827 0.34588 0.0
O25 O 0.66772 0.38284 0.46512 0.0
O26 O 0.81219 0.69967 0.51347 0.0
Mn27 Mn 0.94184 0.56243 0.57202 0.0
O28 O 0.58426 0.57846 0.59563 0.0
O29 O 0.9521 0.41266 0.49943 0.0
O30 O 0.55131 0.59626 0.33942 0.0
O31 O 0.27415 0.51501 0.25845 0.0
O32 O 0.10268 0.70387 0.58191 0.0
O33 O 0.86663 0.53529 0.66686 0.0
C34 C 0.26327 0.36248 0.45079 0.0
C35 C 0.25851 0.78453 0.41214 0.0
C36 C 0.81075 0.34198 0.45953 0.0
C37 C 0.9656 0.77209 0.54204 0.0
C38 C 0.71121 0.55851 0.66588 0.0
C39 C 0.42733 0.56702 0.26591 0.0
O40 O 0.3526 0.46577 0.43645 0.0
O41 O 0.11251 0.34506 0.39003 0.0
H42 H 0.38427 0.91882 0.30651 0.0
H43 H 0.94712 0.18354 0.20628 0.0
H44 H 0.96153 0.91316 0.40597 0.0
C45 C 0.2688 0.96623 0.31197 0.0
C46 C 0.19866 0.91845 0.37346 0.0
C47 C 0.17079 0.0512 0.24654 0.0
C48 C 0.01905 0.11152 0.25364 0.0
C49 C 0.95665 0.07473 0.32042 0.0
C50 C 0.03513 0.96609 0.37185 0.0
N51 N 0.80308 0.13328 0.3285 0.0
C52 C 0.80758 0.22544 0.39826 0.0
H53 H 0.7867 0.89845 0.62506 0.0
H54 H 0.16588 0.24995 0.72817 0.0
H55 H 0.22005 0.96744 0.53648 0.0
C56 C 0.89384 0.967 0.621 0.0
C57 C 0.98315 0.92389 0.56674 0.0
C58 C 0.97158 0.07333 0.68601 0.0
C59 C 0.11045 0.16296 0.68069 0.0
C60 C 0.18306 0.13486 0.61606 0.0
C61 C 0.13281 1.00669 0.56745 0.0
N62 N 0.32243 0.22395 0.60853 0.0
C63 C 0.30208 0.2954 0.53296 0.0
H64 H 0.88376 0.4184 0.80674 0.0
H65 H 0.44648 0.68301 0.70645 0.0
H66 H 0.45993 0.41147 0.90541 0.0
C67 C 0.76798 0.46547 0.81205 0.0
C68 C 0.69759 0.41738 0.87336 0.0
C69 C 0.66994 0.55047 0.74664 0.0
C70 C 0.51814 0.61068 0.75366 0.0
C71 C 0.4556 0.57357 0.82029 0.0
C72 C 0.53364 0.46452 0.87142 0.0
N73 N 0.30283 0.63276 0.82883 0.0
C74 C 0.30907 0.72613 0.89834 0.0
H75 H 0.2863 0.39798 0.12486 0.0
H76 H 0.66317 0.75051 0.22876 0.0
H77 H 0.71773 0.47206 0.0354 0.0
C78 C 0.39282 0.46731 0.12085 0.0
C79 C 0.48185 0.42562 0.06621 0.0
C80 C 0.47046 0.57298 0.18625 0.0
C81 C 0.60823 0.66383 0.181 0.0
C82 C 0.67982 0.63797 0.11578 0.0
C83 C 0.63028 0.51005 0.0666 0.0
N84 N 0.81697 0.7298 0.1082 0.0
C85 C 0.80575 0.78745 0.02931 0.0
loop_
_geom_bond_atom_site_label_1
_geom_bond_atom_site_label_2
_geom_bond_distance
_geom_bond_site_symmetry_2
_ccdc_geom_bond_type
O0 Mn1 2.163 1_654 S
O0 C14 1.244 1_554 S
Mn1 O0 2.163 1_456 S
Mn1 O4 2.160 1_545 S
Mn1 O5 2.221 1_556 S
Mn1 O7 2.163 1_556 S
Mn1 O9 2.160 . S
Mn1 O19 2.221 1_445 S
O2 Mn3 2.087 1_545 S
O2 C14 1.256 . S
Mn3 O2 2.087 1_565 S
Mn3 O10 2.089 1_565 S
Mn3 O19 2.290 . S
Mn3 O20 2.251 . S
O4 Mn1 2.160 1_565 S
O4 C15 1.239 1_556 S
O5 Mn1 2.221 1_554 S
O5 Mn6 2.290 . S
O5 C16 1.278 . S
Mn6 O5 2.290 . S
Mn6 O8 2.089 1_545 S
Mn6 O11 2.251 . S
Mn6 O12 2.087 . S
O7 Mn1 2.163 1_554 S
O7 C17 1.244 . S
O8 Mn6 2.089 1_565 S
O8 C15 1.256 . S
O9 Mn1 2.160 . S
O9 C18 1.239 1_455 S
O10 Mn3 2.089 1_545 S
O10 C18 1.256 . S
O11 Mn6 2.251 . S
O11 C16 1.241 . S
O12 Mn6 2.087 . S
O12 C17 1.256 . S
C13 O19 1.278 . S
C13 O20 1.241 . S
C14 O0 1.244 1_556 S
C14 O2 1.256 . S
C15 O4 1.239 1_554 S
C15 O8 1.256 . S
C16 O5 1.278 . S
C16 O11 1.241 . S
C17 O7 1.244 . S
C17 O12 1.256 . S
C18 O9 1.239 1_655 S
C18 O10 1.256 . S
O19 Mn1 2.221 1_665 S
O19 Mn3 2.290 . S
O19 C13 1.278 . S
O20 Mn3 2.251 . S
O20 C13 1.241 . S
O21 Mn22 2.163 . S
O21 C35 1.244 . S
Mn22 O21 2.163 . S
Mn22 O25 2.160 . S
Mn22 O26 2.221 . S
Mn22 O28 2.163 . S
Mn22 O30 2.160 . S
Mn22 O40 2.221 . S
O23 Mn24 2.087 . S
O23 C35 1.256 . S
Mn24 O23 2.087 . S
Mn24 O31 2.089 . S
Mn24 O40 2.290 . S
Mn24 O41 2.251 . S
O25 Mn22 2.160 . S
O25 C36 1.239 . S
O26 Mn22 2.221 . S
O26 Mn27 2.290 . S
O26 C37 1.278 . S
Mn27 O26 2.290 . S
Mn27 O29 2.089 . S
Mn27 O32 2.251 . S
Mn27 O33 2.087 . S
O28 Mn22 2.163 . S
O28 C38 1.244 . S
O29 Mn27 2.089 . S
O29 C36 1.256 . S
O30 Mn22 2.160 . S
O30 C39 1.239 . S
O31 Mn24 2.089 . S
O31 C39 1.256 . S
O32 Mn27 2.251 . S
O32 C37 1.241 . S
O33 Mn27 2.087 . S
O33 C38 1.256 . S
C34 O40 1.278 . S
C34 O41 1.241 . S
C35 O21 1.244 . S
C35 O23 1.256 . S
C36 O25 1.239 . S
C36 O29 1.256 . S
C37 O26 1.278 . S
C37 O32 1.241 . S
C38 O28 1.244 . S
C38 O33 1.256 . S
C39 O30 1.239 . S
C39 O31 1.256 . S
O40 Mn22 2.221 . S
O40 Mn24 2.290 . S
O40 C34 1.278 . S
O41 Mn24 2.251 . S
O41 C34 1.241 . S
H42 C45 0.929 . S
H43 C48 0.929 1_655 S
H44 C50 0.930 . S
C45 H42 0.929 . S
C45 C46 1.398 . S
C45 C47 1.396 . S
C46 C45 1.398 . S
C46 C50 1.407 . S
C47 C45 1.396 . S
C47 C48 1.394 1_565 S
C48 H43 0.929 1_455 S
C48 C47 1.394 1_545 S
C48 C49 1.382 . S
C49 C48 1.382 . S
C49 C50 1.392 1_545 S
C49 N51 1.420 1_455 S
C50 H44 0.930 . S
C50 C46 1.407 . S
C50 C49 1.392 1_565 S
N51 C49 1.420 1_655 S
N51 C52 1.244 . S
C52 N51 1.244 . S
H53 C56 0.929 . S
H54 C59 0.929 . S
H55 C61 0.930 . S
C56 H53 0.929 . S
C56 C57 1.398 . S
C56 C58 1.396 1_565 S
C57 C56 1.398 . S
C57 C61 1.407 . S
C58 C56 1.396 1_545 S
C58 C59 1.394 1_655 S
C59 H54 0.929 . S
C59 C58 1.394 1_455 S
C59 C60 1.382 . S
C60 C59 1.382 . S
C60 C61 1.392 1_445 S
C60 N62 1.420 . S
C61 H55 0.930 . S
C61 C57 1.407 . S
C61 C60 1.392 1_665 S
N62 C60 1.420 . S
N62 C63 1.244 . S
C63 N62 1.244 . S
H64 C67 0.929 . S
H65 C70 0.929 . S
H66 C72 0.930 . S
C67 H64 0.929 . S
C67 C68 1.398 . S
C67 C69 1.396 . S
C68 C67 1.398 . S
C68 C72 1.407 1_556 S
C69 C67 1.396 . S
C69 C70 1.394 . S
C70 H65 0.929 . S
C70 C69 1.394 . S
C70 C71 1.382 . S
C71 C70 1.382 . S
C71 C72 1.392 1_556 S
C71 N73 1.420 1_556 S
C72 H66 0.930 . S
C72 C68 1.407 1_554 S
C72 C71 1.392 1_554 S
N73 C71 1.420 1_554 S
N73 C74 1.244 . S
C74 N73 1.244 . S
H75 C78 0.929 . S
H76 C81 0.929 . S
H77 C83 0.930 . S
C78 H75 0.929 . S
C78 C79 1.398 . S
C78 C80 1.396 . S
C79 C78 1.398 . S
C79 C83 1.407 1_554 S
C80 C78 1.396 . S
C80 C81 1.394 . S
C81 H76 0.929 . S
C81 C80 1.394 . S
C81 C82 1.382 . S
C82 C81 1.382 . S
C82 C83 1.392 1_554 S
C82 N84 1.420 1_554 S
C83 H77 0.930 . S
C83 C79 1.407 1_556 S
C83 C82 1.392 1_556 S
N84 C82 1.420 1_556 S
N84 C85 1.244 1_556 S
C85 N84 1.244 1_554 S
C79 C16 1.514 . S
C15 C74 1.488 . S
C13 C85 1.165 1_556 S
C14 C68 1.417 . S
C37 C57 1.514 . S
C36 C52 1.488 . S
C63 C34 1.165 . S
C46 C35 1.417 . S
C17 C47 1.718 1_545 S
C18 C58 1.318 . S
C69 C38 1.718 . S
C39 C80 1.318 . S
