# Generated by pormake.
# Topology pyr, (3,6)-cn, num edge types: 1
# Building blocks:
#     Node 0, Type 0, BuildingBlock: QEWDON_clean_linker_0, # of connection points: 3
#     Node 1, Type 0, BuildingBlock: QEWDON_clean_linker_0, # of connection points: 3
#     Node 2, Type 0, BuildingBlock: QEWDON_clean_linker_0, # of connection points: 3
#     Node 3, Type 0, BuildingBlock: QEWDON_clean_linker_0, # of connection points: 3
#     Node 4, Type 0, BuildingBlock: QEWDON_clean_linker_0, # of connection points: 3
#     Node 5, Type 0, BuildingBlock: QEWDON_clean_linker_0, # of connection points: 3
#     Node 6, Type 0, BuildingBlock: QEWDON_clean_linker_0, # of connection points: 3
#     Node 7, Type 0, BuildingBlock: QEWDON_clean_linker_0, # of connection points: 3
#     Node 8, Type 1, BuildingBlock: BETDEL_clean_sbu_0, # of connection points: 6
#     Node 9, Type 1, BuildingBlock: BETDEL_clean_sbu_0, # of connection points: 6
#     Node 10, Type 1, BuildingBlock: BETDEL_clean_sbu_0, # of connection points: 6
#     Node 11, Type 1, BuildingBlock: BETDEL_clean_sbu_0, # of connection points: 6
#     Edge 12, Type (0, 1), None
#     Edge 13, Type (0, 1), None
#     Edge 14, Type (0, 1), None
#     Edge 15, Type (0, 1), None
#     Edge 16, Type (0, 1), None
#     Edge 17, Type (0, 1), None
#     Edge 18, Type (0, 1), None
#     Edge 19, Type (0, 1), None
#     Edge 20, Type (0, 1), None
#     Edge 21, Type (0, 1), None
#     Edge 22, Type (0, 1), None
#     Edge 23, Type (0, 1), None
#     Edge 24, Type (0, 1), None
#     Edge 25, Type (0, 1), None
#     Edge 26, Type (0, 1), None
#     Edge 27, Type (0, 1), None
#     Edge 28, Type (0, 1), None
#     Edge 29, Type (0, 1), None
#     Edge 30, Type (0, 1), None
#     Edge 31, Type (0, 1), None
#     Edge 32, Type (0, 1), None
#     Edge 33, Type (0, 1), None
#     Edge 34, Type (0, 1), None
#     Edge 35, Type (0, 1), None
# Relax obj value: 0.156
# Max RMSD: 0.256
# Mean RMSD: 0.183
data_MOF--net-pyr--node1-BETDEL_clean_sbu_0--node2-QEWDON_clean_linker_0--edge1-none
_symmetry_space_group_name_H-M    P1
_symmetry_Int_Tables_number       1
_symmetry_cell_setting            triclinic
loop_
_symmetry_equiv_pos_as_xyz
'x, y, z'
_cell_length_a     16.641149
_cell_length_b     18.100697
_cell_length_c     17.208286
_cell_angle_alpha  90.966666
_cell_angle_beta   89.413645
_cell_angle_gamma 112.30324
loop_
_atom_site_label
_atom_site_type_symbol
_atom_site_fract_x
_atom_site_fract_y
_atom_site_fract_z
_atom_type_partial_charge
H0 H 0.36844 0.26064 0.12861 0.0
C1 C 0.32354 0.23473 0.17587 0.0
C2 C 0.32229 0.16461 0.20948 0.0
C3 C 0.27082 0.27344 0.20589 0.0
H4 H 0.26651 0.07777 0.29915 0.0
C5 C 0.26576 0.13094 0.27156 0.0
C6 C 0.20895 0.16668 0.29828 0.0
C7 C 0.21207 0.2376 0.26583 0.0
C8 C 0.2816 0.35402 0.1799 0.0
H9 H 0.17271 0.2675 0.29162 0.0
C10 C 0.21038 0.37782 0.18038 0.0
C11 C 0.22169 0.45517 0.15983 0.0
C12 C 0.36399 0.40917 0.15818 0.0
H13 H 0.42109 0.3944 0.16084 0.0
C14 C 0.37378 0.48462 0.13276 0.0
H15 H 0.14584 0.33623 0.19529 0.0
C16 C 0.30323 0.50785 0.13376 0.0
H17 H 0.31274 0.56727 0.1145 0.0
H18 H 0.43627 0.52522 0.11206 0.0
H19 H 0.25175 0.95335 0.84669 0.0
C20 C 0.28112 0.91359 0.82304 0.0
C21 C 0.35768 0.91266 0.85555 0.0
C22 C 0.24119 0.8622 0.76082 0.0
H23 H 0.45514 0.8601 0.84714 0.0
C24 C 0.39548 0.86069 0.82306 0.0
C25 C 0.35578 0.80871 0.76016 0.0
C26 C 0.27809 0.80961 0.73042 0.0
C27 C 0.16066 0.86272 0.72618 0.0
H28 H 0.24693 0.77053 0.68192 0.0
C29 C 0.15956 0.93167 0.69009 0.0
C30 C 0.08807 0.92713 0.64473 0.0
C31 C 0.08768 0.79099 0.72099 0.0
H32 H 0.08733 0.73758 0.74877 0.0
C33 C 0.01621 0.78676 0.67712 0.0
H34 H 0.21664 0.98664 0.69218 0.0
C35 C 0.01757 0.85355 0.63719 0.0
H36 H 0.96387 0.84694 0.59943 0.0
H37 H 0.96107 0.73073 0.67153 0.0
H38 H 0.71601 0.5128 0.98569 0.0
C39 C 0.69593 0.45013 0.99951 0.0
C40 C 0.75462 0.42252 0.03552 0.0
C41 C 0.61018 0.39836 0.98391 0.0
H42 H 0.77071 0.31797 0.08229 0.0
C43 C 0.72639 0.34072 0.05526 0.0
C44 C 0.64091 0.28779 0.03932 0.0
C45 C 0.58351 0.31736 1.00394 0.0
C46 C 0.54721 0.42991 0.9507 0.0
H47 H 0.51778 0.27661 0.99113 0.0
C48 C 0.56993 0.48354 0.88797 0.0
C49 C 0.51012 0.51465 0.85905 0.0
C50 C 0.46321 0.40627 0.9823 0.0
H51 H 0.44295 0.3635 1.02868 0.0
C52 C 0.40494 0.43851 0.95539 0.0
H53 H 0.63283 0.4989 0.86021 0.0
C54 C 0.42892 0.49393 0.89586 0.0
H55 H 0.38172 0.51699 0.87605 0.0
H56 H 0.34035 0.41983 0.9802 0.0
H57 H 0.89567 0.83961 0.38711 0.0
C58 C 0.84151 0.81116 0.42614 0.0
C59 C 0.82814 0.85365 0.49048 0.0
C60 C 0.78337 0.73251 0.41102 0.0
H61 H 0.74506 0.85145 0.5883 0.0
C62 C 0.75709 0.81771 0.53985 0.0
C63 C 0.70011 0.73963 0.52846 0.0
C64 C 0.71265 0.69649 0.46298 0.0
C65 C 0.78818 0.69537 0.33394 0.0
H66 H 0.66638 0.63716 0.44996 0.0
C67 C 0.85889 0.674 0.31148 0.0
C68 C 0.86491 0.64713 0.23445 0.0
C69 C 0.72419 0.68885 0.27898 0.0
H70 H 0.67092 0.70685 0.29415 0.0
C71 C 0.7297 0.66171 0.20355 0.0
H72 H 0.90841 0.67795 0.35354 0.0
C73 C 0.79964 0.64163 0.18127 0.0
H74 H 0.80066 0.61901 0.12301 0.0
H75 H 0.67939 0.65596 0.16189 0.0
H76 H 0.88956 0.84022 0.07108 0.0
C77 C 0.89228 0.8648 1.01356 0.0
C78 C 0.9353 0.84185 0.95428 0.0
C79 C 0.84261 0.90936 0.998 0.0
H80 H 0.98188 0.86329 0.83599 0.0
C81 C 0.94612 0.87924 0.88188 0.0
C82 C 0.90802 0.93605 0.8691 0.0
C83 C 0.85356 0.9485 0.92646 0.0
C84 C 0.77082 0.90235 0.05228 0.0
H85 H 0.81669 0.98483 0.91348 0.0
C86 C 0.74092 0.9644 0.062 0.0
C87 C 0.66774 0.95237 0.10788 0.0
C88 C 0.72726 0.82941 0.09106 0.0
H89 H 0.74509 0.77835 0.08184 0.0
C90 C 0.65754 0.81996 0.14019 0.0
H91 H 0.77128 0.02005 1.03133 0.0
C92 C 0.62724 0.88107 0.14804 0.0
H93 H 0.57007 0.87166 0.18289 0.0
H94 H 0.6248 0.7642 0.16962 0.0
H95 H 0.89812 0.27021 0.58358 0.0
C96 C 0.85924 0.24773 0.53183 0.0
C97 C 0.84346 0.1697 0.50498 0.0
C98 C 0.82176 0.29554 0.49513 0.0
H99 H 0.77191 0.07843 0.42026 0.0
C100 C 0.78789 0.13958 0.43966 0.0
C101 C 0.74986 0.18815 0.40221 0.0
C102 C 0.76929 0.26585 0.42996 0.0
C103 C 0.83237 0.37537 0.52645 0.0
H104 H 0.74178 0.30371 0.40131 0.0
C105 C 0.75975 0.39731 0.53192 0.0
C106 C 0.76896 0.4737 0.55806 0.0
C107 C 0.91437 0.43059 0.54874 0.0
H108 H 0.9712 0.41525 0.54463 0.0
C109 C 0.92385 0.50693 0.57476 0.0
H110 H 0.69575 0.35443 0.51684 0.0
C111 C 0.85177 0.52859 0.57922 0.0
H112 H 0.86077 0.58803 0.6 0.0
H113 H 0.98728 0.54952 0.59144 0.0
H114 H 0.47806 0.85246 0.29224 0.0
C115 C 0.41656 0.8265 0.26196 0.0
C116 C 0.38315 0.87525 0.22144 0.0
C117 C 0.37484 0.74404 0.25945 0.0
H118 H 0.27471 0.87769 0.15303 0.0
C119 C 0.30237 0.84036 0.18223 0.0
C120 C 0.25629 0.75659 0.18533 0.0
C121 C 0.29588 0.70984 0.22162 0.0
C122 C 0.41798 0.69224 0.28744 0.0
H123 H 0.26538 0.64523 0.22075 0.0
C124 C 0.41524 0.67191 0.3662 0.0
C125 C 0.45417 0.61925 0.39021 0.0
C126 C 0.4599 0.66066 0.23311 0.0
H127 H 0.46262 0.67616 0.17231 0.0
C128 C 0.4981 0.6085 0.25658 0.0
H129 H 0.38406 0.69774 0.40816 0.0
C130 C 0.49448 0.58708 0.33406 0.0
H131 H 0.52582 0.54692 0.34995 0.0
H132 H 0.53143 0.58491 0.2148 0.0
H133 H 0.30142 0.51086 0.76733 0.0
C134 C 0.26179 0.45639 0.73738 0.0
C135 C 0.29635 0.42766 0.67402 0.0
C136 C 0.17948 0.41001 0.76707 0.0
H137 H 0.27427 0.33085 0.59109 0.0
C138 C 0.2463 0.35437 0.63782 0.0
C139 C 0.16238 0.30932 0.66494 0.0
C140 C 0.12927 0.33868 0.72835 0.0
C141 C 0.15259 0.42233 0.84724 0.0
H142 H 0.06566 0.30304 0.75154 0.0
C143 C 0.13327 0.48922 0.87062 0.0
C144 C 0.09203 0.48852 0.94321 0.0
C145 C 0.13724 0.35925 0.89929 0.0
H146 H 0.15375 0.30847 0.88359 0.0
C147 C 0.09561 0.35812 0.96967 0.0
H148 H 0.14584 0.53867 0.83151 0.0
C149 C 0.07009 0.42048 0.98988 0.0
H150 H 0.03318 0.4153 0.04295 0.0
H151 H 0.08072 0.30756 1.00771 0.0
Dy152 Dy 0.05759 0.09066 0.49693 0.0
C153 C 0.92077 0.97838 0.79466 0.0
C154 C 0.15266 0.13597 0.3655 0.0
Dy155 Dy 0.95692 0.05811 0.65732 0.0
O156 O 0.17416 0.10404 0.42434 0.0
O157 O 0.07967 0.14513 0.37865 0.0
O158 O 0.09115 0.98476 0.5188 0.0
O159 O 0.07893 0.05531 0.61303 0.0
C160 C 0.09299 0.99327 0.59362 0.0
C161 C 0.8748 0.11895 0.55466 0.0
O162 O 0.05867 0.17671 0.68425 0.0
O163 O 0.12024 0.20945 0.56037 0.0
O164 O 0.90861 0.04437 0.78194 0.0
O165 O 0.95029 0.95632 0.73257 0.0
O166 O 0.85025 0.10229 0.62689 0.0
O167 O 0.94182 0.10273 0.54402 0.0
O168 O 0.94048 0.98388 0.46239 0.0
O169 O 0.89206 0.94778 0.58927 0.0
C170 C 0.11166 0.22782 0.6345 0.0
C171 C 0.88989 0.93292 0.51372 0.0
Dy172 Dy 0.56614 0.10882 0.21838 0.0
C173 C 0.39738 0.96481 0.92388 0.0
C174 C 0.68625 0.16028 0.33685 0.0
Dy175 Dy 0.47276 0.05511 0.05298 0.0
O176 O 0.66369 0.09215 0.30065 0.0
O177 O 0.64299 0.20072 0.30795 0.0
O178 O 0.48345 0.9973 0.28333 0.0
O179 O 0.46219 1.008 0.16783 0.0
C180 C 0.4362 0.96163 0.22406 0.0
C181 C 0.61048 0.20059 0.05431 0.0
O182 O 0.37638 0.09314 0.11787 0.0
O183 O 0.45776 0.15243 0.23081 0.0
O184 O 0.36605 1.01122 0.96209 0.0
O185 O 0.46881 0.96882 0.95619 0.0
O186 O 0.58392 0.15247 0.9949 0.0
O187 O 0.55757 0.16912 0.10876 0.0
O188 O 0.65555 0.07558 0.14185 0.0
O189 O 0.54317 0.97773 0.08013 0.0
C190 C 0.3878 0.13328 0.18557 0.0
C191 C 0.62375 1.00704 0.10424 0.0
Dy192 Dy 0.55327 0.53344 0.604 0.0
C193 C 0.39474 0.75427 0.72393 0.0
C194 C 0.69237 0.49529 0.56777 0.0
Dy195 Dy 0.46861 0.65756 0.65279 0.0
O196 O 0.61185 0.44974 0.55178 0.0
O197 O 0.6958 0.56112 0.60105 0.0
O198 O 0.44234 0.42927 0.65233 0.0
O199 O 0.42174 0.53197 0.61812 0.0
C200 C 0.38888 0.4667 0.65369 0.0
C201 C 0.62096 0.7137 0.57797 0.0
O202 O 0.47534 0.59615 0.76481 0.0
O203 O 0.57326 0.53733 0.73175 0.0
O204 O 0.47297 0.7573 0.73623 0.0
O205 O 0.3568 0.69808 0.6725 0.0
O206 O 0.56767 0.75056 0.57987 0.0
O207 O 0.59798 0.65933 0.62805 0.0
O208 O 0.51482 0.56589 0.48957 0.0
O209 O 0.4258 0.63467 0.52779 0.0
C210 C 0.52476 0.55611 0.78339 0.0
C211 C 0.46261 0.60399 0.47337 0.0
Dy212 Dy 0.01952 0.53432 0.14847 0.0
C213 C 0.95605 0.77185 0.97106 0.0
C214 C 0.14856 0.48092 0.16 0.0
Dy215 Dy 1.00435 0.65893 0.03542 0.0
O216 O 0.07377 0.44778 0.19656 0.0
O217 O 0.15056 0.5405 0.1185 0.0
O218 O 0.92652 0.54392 0.23822 0.0
O219 O 0.99163 0.64167 0.16205 0.0
C220 C 0.93007 0.61287 0.2119 0.0
C221 C 0.06561 0.55399 0.97162 0.0
O222 O 0.13369 0.73329 0.09379 0.0
O223 O 0.12493 0.64383 0.19109 0.0
O224 O 0.02565 0.76013 0.95098 0.0
O225 O 0.91332 0.72071 1.02324 0.0
O226 O 0.08438 0.62435 0.94228 0.0
O227 O 0.01109 0.54487 1.02486 0.0
O228 O 0.895 0.45376 0.09536 0.0
O229 O 0.87118 0.55515 1.02831 0.0
C230 C 0.16677 0.71177 0.15548 0.0
C231 C 0.8441 0.47981 0.05425 0.0
loop_
_geom_bond_atom_site_label_1
_geom_bond_atom_site_label_2
_geom_bond_distance
_geom_bond_site_symmetry_2
_ccdc_geom_bond_type
H0 C1 0.949 . S
C1 H0 0.949 . S
C1 C2 1.395 . S
C1 C3 1.391 . S
C2 C1 1.395 . S
C2 C5 1.390 . S
C3 C1 1.391 . S
C3 C7 1.387 . S
C3 C8 1.491 . S
H4 C5 0.950 . S
C5 C2 1.390 . S
C5 H4 0.950 . S
C5 C6 1.378 . S
C6 C5 1.378 . S
C6 C7 1.409 . S
C7 C3 1.387 . S
C7 C6 1.409 . S
C7 H9 0.951 . S
C8 C3 1.491 . S
C8 C10 1.382 . S
C8 C12 1.404 . S
H9 C7 0.951 . S
C10 C8 1.382 . S
C10 C11 1.390 . S
C10 H15 0.949 . S
C11 C10 1.390 . S
C11 C16 1.399 . S
C12 C8 1.404 . S
C12 H13 0.950 . S
C12 C14 1.375 . S
H13 C12 0.950 . S
C14 C12 1.375 . S
C14 C16 1.382 . S
C14 H18 0.950 . S
H15 C10 0.949 . S
C16 C11 1.399 . S
C16 C14 1.382 . S
C16 H17 0.952 . S
H17 C16 0.952 . S
H18 C14 0.950 . S
H19 C20 0.949 . S
C20 H19 0.949 . S
C20 C21 1.395 . S
C20 C22 1.391 . S
C21 C20 1.395 . S
C21 C24 1.390 . S
C22 C20 1.391 . S
C22 C26 1.387 . S
C22 C27 1.491 . S
H23 C24 0.950 . S
C24 C21 1.390 . S
C24 H23 0.950 . S
C24 C25 1.378 . S
C25 C24 1.378 . S
C25 C26 1.409 . S
C26 C22 1.387 . S
C26 C25 1.409 . S
C26 H28 0.951 . S
C27 C22 1.491 . S
C27 C29 1.382 . S
C27 C31 1.404 . S
H28 C26 0.951 . S
C29 C27 1.382 . S
C29 C30 1.390 . S
C29 H34 0.949 1_565 S
C30 C29 1.390 . S
C30 C35 1.399 . S
C31 C27 1.404 . S
C31 H32 0.950 . S
C31 C33 1.375 . S
H32 C31 0.950 . S
C33 C31 1.375 . S
C33 C35 1.382 . S
C33 H37 0.950 . S
H34 C29 0.949 1_545 S
C35 C30 1.399 . S
C35 C33 1.382 . S
C35 H36 0.952 . S
H36 C35 0.952 . S
H37 C33 0.950 . S
H38 C39 0.949 . S
C39 H38 0.949 . S
C39 C40 1.395 . S
C39 C41 1.391 . S
C40 C39 1.395 . S
C40 C43 1.390 1_556 S
C41 C39 1.391 . S
C41 C45 1.387 . S
C41 C46 1.491 . S
H42 C43 0.950 . S
C43 C40 1.390 1_554 S
C43 H42 0.950 . S
C43 C44 1.378 . S
C44 C43 1.378 . S
C44 C45 1.409 1_554 S
C45 C41 1.387 . S
C45 C44 1.409 1_556 S
C45 H47 0.951 . S
C46 C41 1.491 . S
C46 C48 1.382 . S
C46 C50 1.404 . S
H47 C45 0.951 . S
C48 C46 1.382 . S
C48 C49 1.390 . S
C48 H53 0.949 . S
C49 C48 1.390 . S
C49 C54 1.399 . S
C50 C46 1.404 . S
C50 H51 0.950 . S
C50 C52 1.375 . S
H51 C50 0.950 . S
C52 C50 1.375 . S
C52 C54 1.382 . S
C52 H56 0.950 . S
H53 C48 0.949 . S
C54 C49 1.399 . S
C54 C52 1.382 . S
C54 H55 0.952 . S
H55 C54 0.952 . S
H56 C52 0.950 . S
H57 C58 0.949 . S
C58 H57 0.949 . S
C58 C59 1.395 . S
C58 C60 1.391 . S
C59 C58 1.395 . S
C59 C62 1.390 . S
C60 C58 1.391 . S
C60 C64 1.387 . S
C60 C65 1.491 . S
H61 C62 0.950 . S
C62 C59 1.390 . S
C62 H61 0.950 . S
C62 C63 1.378 . S
C63 C62 1.378 . S
C63 C64 1.409 . S
C64 C60 1.387 . S
C64 C63 1.409 . S
C64 H66 0.951 . S
C65 C60 1.491 . S
C65 C67 1.382 . S
C65 C69 1.404 . S
H66 C64 0.951 . S
C67 C65 1.382 . S
C67 C68 1.390 . S
C67 H72 0.949 . S
C68 C67 1.390 . S
C68 C73 1.399 . S
C69 C65 1.404 . S
C69 H70 0.950 . S
C69 C71 1.375 . S
H70 C69 0.950 . S
C71 C69 1.375 . S
C71 C73 1.382 . S
C71 H75 0.950 . S
H72 C67 0.949 . S
C73 C68 1.399 . S
C73 C71 1.382 . S
C73 H74 0.952 . S
H74 C73 0.952 . S
H75 C71 0.950 . S
H76 C77 0.949 . S
C77 H76 0.949 . S
C77 C78 1.395 . S
C77 C79 1.391 . S
C78 C77 1.395 . S
C78 C81 1.390 . S
C79 C77 1.391 . S
C79 C83 1.387 . S
C79 C84 1.491 . S
H80 C81 0.950 . S
C81 C78 1.390 . S
C81 H80 0.950 . S
C81 C82 1.378 . S
C82 C81 1.378 . S
C82 C83 1.409 . S
C83 C79 1.387 . S
C83 C82 1.409 . S
C83 H85 0.951 . S
C84 C79 1.491 . S
C84 C86 1.382 . S
C84 C88 1.404 . S
H85 C83 0.951 . S
C86 C84 1.382 . S
C86 C87 1.390 . S
C86 H91 0.949 . S
C87 C86 1.390 . S
C87 C92 1.399 . S
C88 C84 1.404 . S
C88 H89 0.950 . S
C88 C90 1.375 . S
H89 C88 0.950 . S
C90 C88 1.375 . S
C90 C92 1.382 . S
C90 H94 0.950 . S
H91 C86 0.949 . S
C92 C87 1.399 . S
C92 C90 1.382 . S
C92 H93 0.952 . S
H93 C92 0.952 . S
H94 C90 0.950 . S
H95 C96 0.949 . S
C96 H95 0.949 . S
C96 C97 1.395 . S
C96 C98 1.391 . S
C97 C96 1.395 . S
C97 C100 1.390 . S
C98 C96 1.391 . S
C98 C102 1.387 . S
C98 C103 1.491 . S
H99 C100 0.950 . S
C100 C97 1.390 . S
C100 H99 0.950 . S
C100 C101 1.378 . S
C101 C100 1.378 . S
C101 C102 1.409 . S
C102 C98 1.387 . S
C102 C101 1.409 . S
C102 H104 0.951 . S
C103 C98 1.491 . S
C103 C105 1.382 . S
C103 C107 1.404 . S
H104 C102 0.951 . S
C105 C103 1.382 . S
C105 C106 1.390 . S
C105 H110 0.949 . S
C106 C105 1.390 . S
C106 C111 1.399 . S
C107 C103 1.404 . S
C107 H108 0.950 . S
C107 C109 1.375 . S
H108 C107 0.950 . S
C109 C107 1.375 . S
C109 C111 1.382 . S
C109 H113 0.950 . S
H110 C105 0.949 . S
C111 C106 1.399 . S
C111 C109 1.382 . S
C111 H112 0.952 . S
H112 C111 0.952 . S
H113 C109 0.950 . S
H114 C115 0.949 . S
C115 H114 0.949 . S
C115 C116 1.395 . S
C115 C117 1.391 . S
C116 C115 1.395 . S
C116 C119 1.390 . S
C117 C115 1.391 . S
C117 C121 1.387 . S
C117 C122 1.491 . S
H118 C119 0.950 . S
C119 C116 1.390 . S
C119 H118 0.950 . S
C119 C120 1.378 . S
C120 C119 1.378 . S
C120 C121 1.409 . S
C121 C117 1.387 . S
C121 C120 1.409 . S
C121 H123 0.951 . S
C122 C117 1.491 . S
C122 C124 1.382 . S
C122 C126 1.404 . S
H123 C121 0.951 . S
C124 C122 1.382 . S
C124 C125 1.390 . S
C124 H129 0.949 . S
C125 C124 1.390 . S
C125 C130 1.399 . S
C126 C122 1.404 . S
C126 H127 0.950 . S
C126 C128 1.375 . S
H127 C126 0.950 . S
C128 C126 1.375 . S
C128 C130 1.382 . S
C128 H132 0.950 . S
H129 C124 0.949 . S
C130 C125 1.399 . S
C130 C128 1.382 . S
C130 H131 0.952 . S
H131 C130 0.952 . S
H132 C128 0.950 . S
H133 C134 0.949 . S
C134 H133 0.949 . S
C134 C135 1.395 . S
C134 C136 1.391 . S
C135 C134 1.395 . S
C135 C138 1.390 . S
C136 C134 1.391 . S
C136 C140 1.387 . S
C136 C141 1.491 . S
H137 C138 0.950 . S
C138 C135 1.390 . S
C138 H137 0.950 . S
C138 C139 1.378 . S
C139 C138 1.378 . S
C139 C140 1.409 . S
C140 C136 1.387 . S
C140 C139 1.409 . S
C140 H142 0.951 . S
C141 C136 1.491 . S
C141 C143 1.382 . S
C141 C145 1.404 . S
H142 C140 0.951 . S
C143 C141 1.382 . S
C143 C144 1.390 . S
C143 H148 0.949 . S
C144 C143 1.390 . S
C144 C149 1.399 . S
C145 C141 1.404 . S
C145 H146 0.950 . S
C145 C147 1.375 . S
H146 C145 0.950 . S
C147 C145 1.375 . S
C147 C149 1.382 . S
C147 H151 0.950 . S
H148 C143 0.949 . S
C149 C144 1.399 . S
C149 C147 1.382 . S
C149 H150 0.952 . S
H150 C149 0.952 . S
H151 C147 0.950 . S
Dy152 O156 2.398 . S
Dy152 O157 2.491 . S
Dy152 O158 2.403 . S
Dy152 O159 2.664 . S
Dy152 O163 2.326 . S
Dy152 O167 2.310 1_455 S
Dy152 O168 2.351 1_445 S
C153 O164 1.185 . S
C153 O165 1.355 . S
C154 O156 1.185 . S
C154 O157 1.355 . S
Dy155 O159 2.310 1_655 S
Dy155 O162 2.351 1_655 S
Dy155 O164 2.398 1_545 S
Dy155 O165 2.491 1_545 S
Dy155 O166 2.403 . S
Dy155 O167 2.664 . S
Dy155 O169 2.326 1_545 S
O156 Dy152 2.398 . S
O156 C154 1.185 . S
O157 Dy152 2.491 . S
O157 C154 1.355 . S
O158 Dy152 2.403 . S
O158 C160 1.258 . S
O159 Dy152 2.664 . S
O159 Dy155 2.310 1_455 S
O159 C160 1.273 . S
C160 O158 1.258 . S
C160 O159 1.273 . S
C161 O166 1.254 . S
C161 O167 1.268 . S
O162 Dy155 2.351 1_455 S
O162 C170 1.249 . S
O163 Dy152 2.326 . S
O163 C170 1.267 . S
O164 C153 1.185 . S
O164 Dy155 2.398 1_565 S
O165 C153 1.355 . S
O165 Dy155 2.491 1_565 S
O166 Dy155 2.403 . S
O166 C161 1.254 . S
O167 Dy152 2.310 1_655 S
O167 Dy155 2.664 . S
O167 C161 1.268 . S
O168 Dy152 2.351 1_665 S
O168 C171 1.249 . S
O169 Dy155 2.326 1_565 S
O169 C171 1.267 . S
C170 O162 1.249 . S
C170 O163 1.267 . S
C171 O168 1.249 . S
C171 O169 1.267 . S
Dy172 O176 2.398 . S
Dy172 O177 2.491 . S
Dy172 O178 2.403 1_545 S
Dy172 O179 2.664 1_545 S
Dy172 O183 2.326 . S
Dy172 O187 2.310 . S
Dy172 O188 2.351 1_545 S
C173 O184 1.185 1_565 S
C173 O185 1.355 . S
C174 O176 1.185 . S
C174 O177 1.355 . S
Dy175 O179 2.310 1_545 S
Dy175 O182 2.351 . S
Dy175 O184 2.398 1_554 S
Dy175 O185 2.491 1_544 S
Dy175 O186 2.403 1_554 S
Dy175 O187 2.664 . S
Dy175 O189 2.326 1_544 S
O176 Dy172 2.398 . S
O176 C174 1.185 . S
O177 Dy172 2.491 . S
O177 C174 1.355 . S
O178 Dy172 2.403 1_565 S
O178 C180 1.254 . S
O179 Dy172 2.664 1_565 S
O179 Dy175 2.310 1_565 S
O179 C180 1.268 . S
C180 O178 1.254 . S
C180 O179 1.268 . S
C181 O186 1.254 1_554 S
C181 O187 1.268 . S
O182 Dy175 2.351 . S
O182 C190 1.249 . S
O183 Dy172 2.326 . S
O183 C190 1.267 . S
O184 C173 1.185 1_545 S
O184 Dy175 2.398 1_556 S
O185 C173 1.355 . S
O185 Dy175 2.491 1_566 S
O186 Dy175 2.403 1_556 S
O186 C181 1.254 1_556 S
O187 Dy172 2.310 . S
O187 Dy175 2.664 . S
O187 C181 1.268 . S
O188 Dy172 2.351 1_565 S
O188 C191 1.249 . S
O189 Dy175 2.326 1_566 S
O189 C191 1.267 1_556 S
C190 O182 1.249 . S
C190 O183 1.267 . S
C191 O188 1.249 . S
C191 O189 1.267 1_554 S
Dy192 O196 2.398 . S
Dy192 O197 2.491 . S
Dy192 O198 2.403 . S
Dy192 O199 2.664 . S
Dy192 O203 2.326 . S
Dy192 O207 2.310 . S
Dy192 O208 2.351 . S
C193 O204 1.185 . S
C193 O205 1.355 . S
C194 O196 1.185 . S
C194 O197 1.355 . S
Dy195 O199 2.310 . S
Dy195 O202 2.351 . S
Dy195 O204 2.398 . S
Dy195 O205 2.491 . S
Dy195 O206 2.403 . S
Dy195 O207 2.664 . S
Dy195 O209 2.326 . S
O196 Dy192 2.398 . S
O196 C194 1.185 . S
O197 Dy192 2.491 . S
O197 C194 1.355 . S
O198 Dy192 2.403 . S
O198 C200 1.254 . S
O199 Dy192 2.664 . S
O199 Dy195 2.310 . S
O199 C200 1.268 . S
C200 O198 1.254 . S
C200 O199 1.268 . S
C201 O206 1.254 . S
C201 O207 1.268 . S
O202 Dy195 2.351 . S
O202 C210 1.249 . S
O203 Dy192 2.326 . S
O203 C210 1.267 . S
O204 C193 1.185 . S
O204 Dy195 2.398 . S
O205 C193 1.355 . S
O205 Dy195 2.491 . S
O206 Dy195 2.403 . S
O206 C201 1.254 . S
O207 Dy192 2.310 . S
O207 Dy195 2.664 . S
O207 C201 1.268 . S
O208 Dy192 2.351 . S
O208 C211 1.249 . S
O209 Dy195 2.326 . S
O209 C211 1.267 . S
C210 O202 1.249 . S
C210 O203 1.267 . S
C211 O208 1.249 . S
C211 O209 1.267 . S
Dy212 O216 2.398 . S
Dy212 O217 2.491 . S
Dy212 O218 2.403 1_455 S
Dy212 O219 2.664 1_455 S
Dy212 O223 2.326 . S
Dy212 O227 2.310 1_554 S
Dy212 O228 2.351 1_455 S
C213 O224 1.185 . S
C213 O225 1.355 . S
C214 O216 1.185 . S
C214 O217 1.355 . S
Dy215 O219 2.310 1_456 S
Dy215 O222 2.351 1_556 S
Dy215 O224 2.398 1_455 S
Dy215 O225 2.491 1_455 S
Dy215 O226 2.403 . S
Dy215 O227 2.664 . S
Dy215 O229 2.326 1_455 S
O216 Dy212 2.398 . S
O216 C214 1.185 . S
O217 Dy212 2.491 . S
O217 C214 1.355 . S
O218 Dy212 2.403 1_655 S
O218 C220 1.254 . S
O219 Dy212 2.664 1_655 S
O219 Dy215 2.310 1_654 S
O219 C220 1.268 . S
C220 O218 1.254 . S
C220 O219 1.268 . S
C221 O226 1.254 . S
C221 O227 1.268 . S
O222 Dy215 2.351 1_554 S
O222 C230 1.249 . S
O223 Dy212 2.326 . S
O223 C230 1.267 . S
O224 C213 1.185 . S
O224 Dy215 2.398 1_655 S
O225 C213 1.355 . S
O225 Dy215 2.491 1_655 S
O226 Dy215 2.403 . S
O226 C221 1.254 . S
O227 Dy212 2.310 1_556 S
O227 Dy215 2.664 . S
O227 C221 1.268 . S
O228 Dy212 2.351 1_655 S
O228 C231 1.249 1_554 S
O229 Dy215 2.326 1_655 S
O229 C231 1.267 . S
C230 O222 1.249 . S
C230 O223 1.267 . S
C231 O228 1.249 1_556 S
C231 O229 1.267 . S
C6 C154 1.989 . S
C21 C173 1.884 . S
C210 C49 1.680 . S
C68 C220 1.603 . S
C190 C2 2.877 . S
C160 C30 0.639 1_545 S
C231 C40 2.234 . S
C201 C63 1.644 . S
C11 C214 1.834 . S
C181 C44 2.422 . S
C59 C171 1.790 . S
C25 C193 1.490 . S
C153 C82 1.789 . S
C101 C174 2.047 . S
C125 C211 1.814 . S
C144 C221 1.769 . S
C87 C191 2.364 1_556 S
C161 C97 2.121 . S
C230 C120 1.523 . S
C200 C135 1.831 . S
C78 C213 2.304 . S
C180 C116 1.570 . S
C170 C139 2.474 . S
C106 C194 1.236 . S
