# Generated by pormake.
# Topology anh, (6,3)-cn, num edge types: 1
# Building blocks:
#     Node 0, Type 0, BuildingBlock: NUHQIS_clean_sbu_0, # of connection points: 6
#     Node 1, Type 0, BuildingBlock: NUHQIS_clean_sbu_0, # of connection points: 6
#     Node 2, Type 0, BuildingBlock: NUHQIS_clean_sbu_0, # of connection points: 6
#     Node 3, Type 1, BuildingBlock: QEWDON_clean_linker_0, # of connection points: 3
#     Node 4, Type 1, BuildingBlock: QEWDON_clean_linker_0, # of connection points: 3
#     Node 5, Type 1, BuildingBlock: QEWDON_clean_linker_0, # of connection points: 3
#     Node 6, Type 1, BuildingBlock: QEWDON_clean_linker_0, # of connection points: 3
#     Node 7, Type 1, BuildingBlock: QEWDON_clean_linker_0, # of connection points: 3
#     Node 8, Type 1, BuildingBlock: QEWDON_clean_linker_0, # of connection points: 3
#     Edge 9, Type (0, 1), None
#     Edge 10, Type (0, 1), None
#     Edge 11, Type (0, 1), None
#     Edge 12, Type (0, 1), None
#     Edge 13, Type (0, 1), None
#     Edge 14, Type (0, 1), None
#     Edge 15, Type (0, 1), None
#     Edge 16, Type (0, 1), None
#     Edge 17, Type (0, 1), None
#     Edge 18, Type (0, 1), None
#     Edge 19, Type (0, 1), None
#     Edge 20, Type (0, 1), None
#     Edge 21, Type (0, 1), None
#     Edge 22, Type (0, 1), None
#     Edge 23, Type (0, 1), None
#     Edge 24, Type (0, 1), None
#     Edge 25, Type (0, 1), None
#     Edge 26, Type (0, 1), None
# Relax obj value: 0.634
# Max RMSD: 0.214
# Mean RMSD: 0.144
data_MOF--net-anh--node1-NUHQIS_clean_sbu_0--node2-QEWDON_clean_linker_0--edge1-none
_symmetry_space_group_name_H-M    P1
_symmetry_Int_Tables_number       1
_symmetry_cell_setting            triclinic
loop_
_symmetry_equiv_pos_as_xyz
'x, y, z'
_cell_length_a     14.794229
_cell_length_b     14.914642
_cell_length_c     22.351262
_cell_angle_alpha  91.537184
_cell_angle_beta   95.501676
_cell_angle_gamma 120.08488
loop_
_atom_site_label
_atom_site_type_symbol
_atom_site_fract_x
_atom_site_fract_y
_atom_site_fract_z
_atom_type_partial_charge
Tb0 Tb 0.41777 0.65248 0.17099 0.0
Eu1 Eu 1.29278 0.76172 0.19708 0.0
C2 C 0.31371 0.61712 0.29229 0.0
C3 C 1.15819 0.51 0.17854 0.0
C4 C 0.64012 0.64804 0.13503 0.0
C5 C 0.81546 0.78533 0.17653 0.0
C6 C 0.72957 0.68538 0.1781 0.0
C7 C 0.64626 0.70424 0.08455 0.0
C8 C 0.73148 0.80406 0.08313 0.0
C9 C 0.81362 0.8481 0.13122 0.0
C10 C 0.53602 0.58189 0.15477 0.0
O11 O 0.41044 0.70411 0.08036 0.0
O12 O 1.3015 0.76719 0.09407 0.0
O13 O 0.45904 0.8775 0.24413 0.0
O14 O 0.54891 0.82233 0.19319 0.0
C15 C 0.35443 0.74398 0.05822 0.0
O16 O 1.29389 0.88323 0.25366 0.0
O17 O 1.17685 0.80871 0.17498 0.0
O18 O 1.25949 0.66053 0.27354 0.0
O19 O 0.39005 0.62361 0.26399 0.0
O20 O 1.24665 0.51885 0.16099 0.0
O21 O 1.15654 0.59472 0.19496 0.0
C22 C 0.55001 0.89512 0.22976 0.0
O23 O 0.52835 0.61405 0.20775 0.0
O24 O 0.45391 0.56 0.11633 0.0
C25 C 1.27218 0.98893 0.18734 0.0
C26 C 1.29385 1.13181 0.10533 0.0
C27 C 0.34884 1.07848 0.10083 0.0
C28 C 0.3373 1.00611 0.14194 0.0
C29 C 1.24142 1.06045 0.20068 0.0
C30 C 1.25819 1.13637 0.16126 0.0
C31 C 1.22791 0.89027 0.21413 0.0
H32 H 0.88 0.81577 0.21283 0.0
H33 H 0.72741 0.64319 0.21718 0.0
H34 H 0.57967 0.67725 0.04985 0.0
H35 H 0.72814 0.84956 0.04692 0.0
H36 H 0.38425 1.07885 0.06052 0.0
H37 H 0.36851 0.95559 0.13399 0.0
H38 H 1.19696 1.05232 0.23802 0.0
H39 H 1.22656 1.1857 0.17038 0.0
Tb40 Tb 0.80459 0.21704 0.55632 0.0
Eu41 Eu 0.58161 1.13848 0.49157 0.0
C42 C 0.60908 1.1376 0.62632 0.0
C43 C 0.67685 0.97826 0.52147 0.0
C44 C 1.03695 0.37831 0.66183 0.0
C45 C 1.03213 0.53741 0.66707 0.0
C46 C 0.98292 0.43079 0.6736 0.0
C47 C 1.14719 0.43631 0.66709 0.0
C48 C 1.19593 0.54406 0.66358 0.0
C49 C 1.13038 0.58472 0.64606 0.0
C50 C 0.98134 0.28639 0.61822 0.0
O51 O 0.80399 1.173 0.45688 0.0
O52 O 0.67363 1.19718 0.41383 0.0
O53 O 0.62595 0.30412 0.52912 0.0
O54 O 0.8012 0.3656 0.5584 0.0
C55 C 0.74899 1.17809 0.40709 0.0
O56 O 0.46386 1.08829 0.41163 0.0
O57 O 0.41362 1.07302 0.5004 0.0
O58 O 0.56183 1.07111 0.57977 0.0
O59 O 0.70281 0.21733 0.62278 0.0
O60 O 0.74457 1.04965 0.56335 0.0
O61 O 0.61954 1.00352 0.48341 0.0
C62 C 0.72007 0.38145 0.55232 0.0
O63 O 0.89391 0.2111 0.63316 0.0
O64 O 0.96925 0.30751 0.56247 0.0
C65 C 0.3711 0.9202 0.4425 0.0
C66 C 0.41846 0.75777 0.45228 0.0
C67 C 0.43294 0.81232 0.4 0.0
C68 C 0.40374 0.88699 0.39403 0.0
C69 C 0.36252 0.87098 0.49634 0.0
C70 C 0.38843 0.79325 0.50171 0.0
C71 C 0.39375 1.02867 0.44575 0.0
H72 H 0.98466 0.57354 0.66245 0.0
H73 H 0.89869 0.38769 0.6748 0.0
H74 H 1.19219 0.39818 0.66158 0.0
H75 H 1.27733 0.58489 0.65489 0.0
H76 H 0.46315 0.79505 0.36191 0.0
H77 H 0.41689 0.92622 0.35303 0.0
H78 H 0.34146 0.89651 0.5358 0.0
H79 H 0.37965 0.75745 0.54388 0.0
Tb80 Tb 1.01616 0.87368 0.7963 0.0
Eu81 Eu 0.89717 0.69675 0.87752 0.0
C82 C 1.03275 0.93348 0.92751 0.0
C83 C 1.14709 0.77974 0.87407 0.0
C84 C 1.04638 1.10008 0.74374 0.0
C85 C 0.97599 1.15731 0.82062 0.0
C86 C 1.06159 1.15795 0.79847 0.0
C87 C 0.95255 1.06598 0.7053 0.0
C88 C 0.86597 1.0602 0.72828 0.0
C89 C 0.8748 1.10003 0.78792 0.0
C90 C 1.09445 1.03385 0.74183 0.0
O91 O 0.96262 0.74451 0.72964 0.0
O92 O 0.82272 0.63952 0.77691 0.0
O93 O 0.79746 0.77112 0.88197 0.0
O94 O 0.84556 0.83852 0.7926 0.0
C95 C 0.86747 0.66508 0.72674 0.0
O96 O 0.78318 0.61978 0.94084 0.0
O97 O 0.86073 0.54413 0.9033 0.0
O98 O 1.01586 0.84103 0.93957 0.0
O99 O 0.99844 0.94566 0.87477 0.0
O100 O 1.14706 0.84641 0.83538 0.0
O101 O 1.05872 0.71279 0.89394 0.0
C102 C 0.77807 0.81007 0.83433 0.0
O103 O 1.13945 1.02795 0.79359 0.0
O104 O 1.0329 0.94133 0.71387 0.0
C105 C 0.68128 0.44482 0.90248 0.0
C106 C 0.55364 0.27082 0.82024 0.0
C107 C 0.58785 0.25955 0.87941 0.0
C108 C 0.65177 0.34601 0.91999 0.0
C109 C 0.63494 0.4557 0.84724 0.0
C110 C 0.57219 0.36913 0.80597 0.0
C111 C 0.78135 0.53237 0.93022 0.0
H112 H 0.98797 1.19466 0.86518 0.0
H113 H 1.13492 1.18995 0.82829 0.0
H114 H 0.93942 1.02504 0.66163 0.0
H115 H 0.79096 1.01555 0.70038 0.0
H116 H 0.57574 1.18585 0.89293 0.0
H117 H 0.68738 0.33639 0.96219 0.0
H118 H 0.65645 0.53217 0.83334 0.0
H119 H 0.54552 0.38033 0.76145 0.0
H120 H 0.88368 0.28148 0.32246 0.0
C121 C 0.82338 0.20372 0.3045 0.0
C122 C 0.75052 1.13799 0.34323 0.0
C123 C 0.81459 1.17275 0.24211 0.0
H124 H 0.60519 0.99232 0.34551 0.0
C125 C 0.66449 1.03912 0.31738 0.0
C126 C 0.65196 0.99994 0.25621 0.0
C127 C 0.73039 1.06764 0.22037 0.0
C128 C 0.88647 0.25058 0.19803 0.0
H129 H 0.72262 1.03805 0.17439 0.0
C130 C 0.99008 0.34414 0.21399 0.0
C131 C 1.05238 0.40666 0.16813 0.0
C132 C 0.84794 0.22969 0.13592 0.0
H133 H 0.76956 1.16701 0.11967 0.0
C134 C 0.90767 0.28915 0.09224 0.0
H135 H 1.02297 0.36694 0.26092 0.0
C136 C 1.00815 0.37479 0.10785 0.0
H137 H 1.05069 0.41882 0.07212 0.0
H138 H 0.87488 0.26865 0.04515 0.0
H139 H 0.80199 0.76183 0.64789 0.0
C140 C 0.77954 0.68483 0.62893 0.0
C141 C 0.80496 0.62123 0.66494 0.0
C142 C 0.72918 0.65204 0.56868 0.0
H143 H 0.80073 0.47463 0.667 0.0
C144 C 0.78121 0.52257 0.63948 0.0
C145 C 0.73469 0.48565 0.57887 0.0
C146 C 0.70528 0.54958 0.54525 0.0
C147 C 0.71 0.72669 0.52845 0.0
H148 H 0.66501 0.51877 0.50018 0.0
C149 C 0.70175 0.81611 0.54912 0.0
C150 C 0.68331 0.87992 0.50683 0.0
C151 C 0.70432 0.70948 0.46551 0.0
H152 H 0.71612 0.64971 0.446 0.0
C153 C 0.6873 0.77065 0.42525 0.0
H154 H 0.70801 0.83507 0.59696 0.0
C155 C 0.67625 0.85317 0.4453 0.0
H156 H 0.66514 0.89879 0.41169 0.0
H157 H 0.68371 0.75435 0.3773 0.0
H158 H 0.48592 0.75253 0.9732 0.0
C159 C 0.42201 0.76192 0.95308 0.0
C160 C 0.34729 0.75952 -0.00938 0.0
C161 C 0.4143 0.7756 0.88994 0.0
H162 H 1.20257 0.76231 -0.00953 0.0
C163 C 1.26138 0.76765 0.96303 0.0
C164 C 1.24837 0.78144 0.9009 0.0
C165 C 0.3275 0.78925 0.86606 0.0
C166 C 0.49311 0.77465 0.84763 0.0
H167 H 0.31909 0.80521 0.8197 0.0
C168 C 0.59898 0.79236 0.86563 0.0
C169 C 0.66905 0.8006 0.82136 0.0
C170 C 0.46031 0.75686 0.78479 0.0
H171 H 0.38083 0.73393 0.76653 0.0
C172 C 0.52787 0.76742 0.74265 0.0
H173 H 0.62766 0.80207 0.91309 0.0
C174 C 0.63053 0.79092 0.7604 0.0
H175 H 0.67854 0.79648 0.7254 0.0
H176 H 0.4994 0.75586 0.69499 0.0
H177 H 1.14178 0.5439 0.35416 0.0
C178 C 1.21197 0.55359 0.38053 0.0
C179 C 1.30378 0.58027 0.35281 0.0
C180 C 1.21861 0.55521 0.44425 0.0
H181 H 0.47119 0.64022 0.37052 0.0
C182 C 0.39837 0.60971 0.39029 0.0
C183 C 0.40367 0.64932 0.44863 0.0
C184 C 0.31712 0.58002 0.47594 0.0
C185 C 1.14953 0.57743 0.47853 0.0
H186 H 0.32818 0.5851 0.52476 0.0
C187 C 1.14277 0.55216 0.53815 0.0
C188 C 1.12764 0.61074 0.58238 0.0
C189 C 1.12087 0.65036 0.46031 0.0
H190 H 1.12711 0.67414 0.41483 0.0
C191 C 1.09345 0.70097 0.50258 0.0
H192 H 1.15911 0.49159 0.55058 0.0
C193 C 1.09928 0.68331 0.56374 0.0
H194 H 1.08186 0.72595 0.59622 0.0
H195 H 1.07296 0.75802 0.48839 0.0
H196 H 0.51379 0.9609 0.67857 0.0
C197 C 0.50838 1.02204 0.70244 0.0
C198 C 0.55565 1.12146 0.68095 0.0
C199 C 0.49982 1.01727 0.76439 0.0
H200 H 0.60941 0.28361 0.70468 0.0
C201 C 0.5637 0.20484 0.71726 0.0
C202 C 0.51857 1.18516 0.77221 0.0
C203 C 0.46741 1.08227 0.78826 0.0
C204 C 0.5902 1.0207 0.80341 0.0
H205 H 0.4348 1.06569 0.83066 0.0
C206 C 0.68606 1.05262 0.77997 0.0
C207 C 0.77812 1.07433 0.81639 0.0
C208 C 0.58972 1.01373 0.86606 0.0
H209 H 0.51941 0.9935 0.88664 0.0
C210 C 0.68124 1.03639 0.90328 0.0
H211 H 0.69167 1.0668 0.73317 0.0
C212 C 0.77464 1.06618 0.87875 0.0
H213 H 0.84311 1.08148 0.90872 0.0
H214 H 0.67972 1.03069 0.9514 0.0
H215 H 0.96344 1.05791 0.96045 0.0
C216 C 1.04235 1.08525 -0.01801 0.0
C217 C 1.08864 1.02514 0.97145 0.0
C218 C 1.07885 1.15158 0.03524 0.0
H219 H 1.21265 0.99649 0.00254 0.0
C220 C 1.18326 1.04964 0.00636 0.0
C221 C 1.23252 1.13663 0.05002 0.0
C222 C 1.18742 0.19978 0.05344 0.0
C223 C 1.01196 1.11352 0.0857 0.0
H224 H 1.22391 0.26568 0.087 0.0
C225 C 0.933 1.00755 0.08336 0.0
C226 C 0.89308 0.96049 0.13544 0.0
C227 C 1.04356 1.17292 0.14168 0.0
H228 H 1.10439 0.25398 0.14614 0.0
C229 C 1.00412 1.1264 0.19387 0.0
H230 H 0.90768 0.95771 0.04191 0.0
C231 C 0.92942 1.02087 0.19096 0.0
H232 H 0.89924 0.987 0.23199 0.0
H233 H 1.03247 1.17229 0.23696 0.0
loop_
_geom_bond_atom_site_label_1
_geom_bond_atom_site_label_2
_geom_bond_distance
_geom_bond_site_symmetry_2
_ccdc_geom_bond_type
Tb0 C10 2.825 . S
Tb0 O11 2.347 . S
Tb0 O14 2.366 . S
Tb0 O19 2.418 . S
Tb0 O20 2.384 1_455 S
Tb0 O23 2.479 . S
Tb0 O24 2.471 . S
Eu1 O12 2.418 . S
Eu1 O13 2.384 1_655 S
Eu1 O16 2.479 . S
Eu1 O17 2.471 . S
Eu1 O18 2.347 1_655 S
Eu1 O21 2.366 . S
Eu1 C31 2.825 . S
C2 O18 1.259 . S
C2 O19 1.265 . S
C3 O20 1.255 . S
C3 O21 1.265 . S
C4 C6 1.380 . S
C4 C7 1.374 . S
C4 C10 1.507 . S
C5 C6 1.384 . S
C5 C9 1.387 . S
C5 H32 0.930 . S
C6 C4 1.380 . S
C6 C5 1.384 . S
C6 H33 0.931 . S
C7 C4 1.374 . S
C7 C8 1.390 . S
C7 H34 0.930 . S
C8 C7 1.390 . S
C8 C9 1.391 . S
C8 H35 0.930 . S
C9 C5 1.387 . S
C9 C8 1.391 . S
C10 Tb0 2.825 . S
C10 C4 1.507 . S
C10 O23 1.238 . S
C10 O24 1.247 . S
O11 Tb0 2.347 . S
O11 C15 1.259 . S
O12 Eu1 2.418 . S
O12 C15 1.265 1_655 S
O13 Eu1 2.384 1_455 S
O13 C22 1.255 . S
O14 Tb0 2.366 . S
O14 C22 1.265 . S
C15 O11 1.259 . S
C15 O12 1.265 1_455 S
O16 Eu1 2.479 . S
O16 C31 1.238 . S
O17 Eu1 2.471 . S
O17 C31 1.247 . S
O18 Eu1 2.347 1_455 S
O18 C2 1.259 . S
O19 Tb0 2.418 . S
O19 C2 1.265 . S
O20 Tb0 2.384 1_655 S
O20 C3 1.255 . S
O21 Eu1 2.366 . S
O21 C3 1.265 . S
C22 O13 1.255 . S
C22 O14 1.265 . S
O23 Tb0 2.479 . S
O23 C10 1.238 . S
O24 Tb0 2.471 . S
O24 C10 1.247 . S
C25 C28 1.380 . S
C25 C29 1.374 . S
C25 C31 1.507 . S
C26 C27 1.387 . S
C26 C30 1.391 . S
C27 C26 1.387 . S
C27 C28 1.384 . S
C27 H36 0.930 . S
C28 C25 1.380 . S
C28 C27 1.384 . S
C28 H37 0.931 . S
C29 C25 1.374 . S
C29 C30 1.390 . S
C29 H38 0.930 . S
C30 C26 1.391 . S
C30 C29 1.390 . S
C30 H39 0.930 . S
C31 Eu1 2.825 . S
C31 O16 1.238 . S
C31 O17 1.247 . S
C31 C25 1.507 . S
H32 C5 0.930 . S
H33 C6 0.931 . S
H34 C7 0.930 . S
H35 C8 0.930 . S
H36 C27 0.930 . S
H37 C28 0.931 . S
H38 C29 0.930 . S
H39 C30 0.930 . S
Tb40 C50 2.825 . S
Tb40 O51 2.347 . S
Tb40 O54 2.366 . S
Tb40 O59 2.418 . S
Tb40 O60 2.384 1_545 S
Tb40 O63 2.479 . S
Tb40 O64 2.471 . S
Eu41 O52 2.418 . S
Eu41 O53 2.384 . S
Eu41 O56 2.479 1_545 S
Eu41 O57 2.471 1_545 S
Eu41 O58 2.347 . S
Eu41 O61 2.366 1_545 S
Eu41 C71 2.825 1_545 S
C42 O58 1.259 . S
C42 O59 1.265 . S
C43 O60 1.255 . S
C43 O61 1.265 . S
C44 C46 1.380 . S
C44 C47 1.374 . S
C44 C50 1.507 . S
C45 C46 1.384 . S
C45 C49 1.387 . S
C45 H72 0.930 . S
C46 C44 1.380 . S
C46 C45 1.384 . S
C46 H73 0.931 . S
C47 C44 1.374 . S
C47 C48 1.390 . S
C47 H74 0.930 . S
C48 C47 1.390 . S
C48 C49 1.391 . S
C48 H75 0.930 . S
C49 C45 1.387 . S
C49 C48 1.391 . S
C50 Tb40 2.825 . S
C50 C44 1.507 . S
C50 O63 1.238 . S
C50 O64 1.247 . S
O51 Tb40 2.347 . S
O51 C55 1.259 . S
O52 Eu41 2.418 . S
O52 C55 1.265 . S
O53 Eu41 2.384 . S
O53 C62 1.255 . S
O54 Tb40 2.366 . S
O54 C62 1.265 . S
C55 O51 1.259 . S
C55 O52 1.265 . S
O56 Eu41 2.479 1_565 S
O56 C71 1.238 . S
O57 Eu41 2.471 1_565 S
O57 C71 1.247 . S
O58 Eu41 2.347 . S
O58 C42 1.259 . S
O59 Tb40 2.418 . S
O59 C42 1.265 . S
O60 Tb40 2.384 1_565 S
O60 C43 1.255 . S
O61 Eu41 2.366 1_565 S
O61 C43 1.265 . S
C62 O53 1.255 . S
C62 O54 1.265 . S
O63 Tb40 2.479 . S
O63 C50 1.238 . S
O64 Tb40 2.471 . S
O64 C50 1.247 . S
C65 C68 1.380 . S
C65 C69 1.374 . S
C65 C71 1.507 . S
C66 C67 1.387 . S
C66 C70 1.391 . S
C67 C66 1.387 . S
C67 C68 1.384 . S
C67 H76 0.930 . S
C68 C65 1.380 . S
C68 C67 1.384 . S
C68 H77 0.931 . S
C69 C65 1.374 . S
C69 C70 1.390 . S
C69 H78 0.930 . S
C70 C66 1.391 . S
C70 C69 1.390 . S
C70 H79 0.930 . S
C71 Eu41 2.825 1_565 S
C71 O56 1.238 . S
C71 O57 1.247 . S
C71 C65 1.507 . S
H72 C45 0.930 . S
H73 C46 0.931 . S
H74 C47 0.930 . S
H75 C48 0.930 . S
H76 C67 0.930 . S
H77 C68 0.931 . S
H78 C69 0.930 . S
H79 C70 0.930 . S
Tb80 C90 2.825 . S
Tb80 O91 2.347 . S
Tb80 O94 2.366 . S
Tb80 O99 2.418 1_556 S
Tb80 O100 2.384 . S
Tb80 O103 2.479 . S
Tb80 O104 2.471 . S
Eu81 O92 2.418 . S
Eu81 O93 2.384 . S
Eu81 O96 2.479 . S
Eu81 O97 2.471 . S
Eu81 O98 2.347 . S
Eu81 O101 2.366 . S
Eu81 C111 2.825 . S
C82 O98 1.259 1_554 S
C82 O99 1.265 . S
C83 O100 1.255 . S
C83 O101 1.265 . S
C84 C86 1.380 . S
C84 C87 1.374 . S
C84 C90 1.507 . S
C85 C86 1.384 . S
C85 C89 1.387 . S
C85 H112 0.930 1_556 S
C86 C84 1.380 . S
C86 C85 1.384 . S
C86 H113 0.931 1_556 S
C87 C84 1.374 . S
C87 C88 1.390 . S
C87 H114 0.930 . S
C88 C87 1.390 . S
C88 C89 1.391 . S
C88 H115 0.930 . S
C89 C85 1.387 . S
C89 C88 1.391 . S
C90 Tb80 2.825 . S
C90 C84 1.507 . S
C90 O103 1.238 . S
C90 O104 1.247 . S
O91 Tb80 2.347 . S
O91 C95 1.259 . S
O92 Eu81 2.418 . S
O92 C95 1.265 . S
O93 Eu81 2.384 . S
O93 C102 1.255 . S
O94 Tb80 2.366 . S
O94 C102 1.265 . S
C95 O91 1.259 . S
C95 O92 1.265 . S
O96 Eu81 2.479 . S
O96 C111 1.238 . S
O97 Eu81 2.471 . S
O97 C111 1.247 . S
O98 Eu81 2.347 . S
O98 C82 1.259 1_556 S
O99 Tb80 2.418 1_554 S
O99 C82 1.265 . S
O100 Tb80 2.384 . S
O100 C83 1.255 . S
O101 Eu81 2.366 . S
O101 C83 1.265 . S
C102 O93 1.255 . S
C102 O94 1.265 . S
O103 Tb80 2.479 . S
O103 C90 1.238 . S
O104 Tb80 2.471 . S
O104 C90 1.247 . S
C105 C108 1.380 . S
C105 C109 1.374 . S
C105 C111 1.507 . S
C106 C107 1.387 . S
C106 C110 1.391 . S
C107 C106 1.387 . S
C107 C108 1.384 . S
C107 H116 0.930 . S
C108 C105 1.380 . S
C108 C107 1.384 . S
C108 H117 0.931 . S
C109 C105 1.374 . S
C109 C110 1.390 . S
C109 H118 0.930 . S
C110 C106 1.391 . S
C110 C109 1.390 . S
C110 H119 0.930 . S
C111 Eu81 2.825 . S
C111 O96 1.238 . S
C111 O97 1.247 . S
C111 C105 1.507 . S
H112 C85 0.930 1_554 S
H113 C86 0.931 1_554 S
H114 C87 0.930 . S
H115 C88 0.930 . S
H116 C107 0.930 . S
H117 C108 0.931 . S
H118 C109 0.930 . S
H119 C110 0.930 . S
H120 C121 0.949 . S
C121 H120 0.949 . S
C121 C122 1.395 . S
C121 C123 1.391 . S
C122 C121 1.395 . S
C122 C125 1.390 1_545 S
C123 C121 1.391 . S
C123 C127 1.387 1_545 S
C123 C128 1.491 . S
H124 C125 0.950 . S
C125 C122 1.390 1_565 S
C125 H124 0.950 . S
C125 C126 1.378 . S
C126 C125 1.378 . S
C126 C127 1.409 . S
C127 C123 1.387 1_565 S
C127 C126 1.409 . S
C127 H129 0.951 . S
C128 C123 1.491 . S
C128 C130 1.382 . S
C128 C132 1.404 . S
H129 C127 0.951 . S
C130 C128 1.382 . S
C130 C131 1.390 . S
C130 H135 0.949 . S
C131 C130 1.390 . S
C131 C136 1.399 . S
C132 C128 1.404 . S
C132 H133 0.950 . S
C132 C134 1.375 . S
H133 C132 0.950 . S
C134 C132 1.375 . S
C134 C136 1.382 . S
C134 H138 0.950 . S
H135 C130 0.949 . S
C136 C131 1.399 . S
C136 C134 1.382 . S
C136 H137 0.952 . S
H137 C136 0.952 . S
H138 C134 0.950 . S
H139 C140 0.949 . S
C140 H139 0.949 . S
C140 C141 1.395 . S
C140 C142 1.391 . S
C141 C140 1.395 . S
C141 C144 1.390 . S
C142 C140 1.391 . S
C142 C146 1.387 . S
C142 C147 1.491 . S
H143 C144 0.950 . S
C144 C141 1.390 . S
C144 H143 0.950 . S
C144 C145 1.378 . S
C145 C144 1.378 . S
C145 C146 1.409 . S
C146 C142 1.387 . S
C146 C145 1.409 . S
C146 H148 0.951 . S
C147 C142 1.491 . S
C147 C149 1.382 . S
C147 C151 1.404 . S
H148 C146 0.951 . S
C149 C147 1.382 . S
C149 C150 1.390 . S
C149 H154 0.949 . S
C150 C149 1.390 . S
C150 C155 1.399 . S
C151 C147 1.404 . S
C151 H152 0.950 . S
C151 C153 1.375 . S
H152 C151 0.950 . S
C153 C151 1.375 . S
C153 C155 1.382 . S
C153 H157 0.950 . S
H154 C149 0.949 . S
C155 C150 1.399 . S
C155 C153 1.382 . S
C155 H156 0.952 . S
H156 C155 0.952 . S
H157 C153 0.950 . S
H158 C159 0.949 . S
C159 H158 0.949 . S
C159 C160 1.395 1_556 S
C159 C161 1.391 . S
C160 C159 1.395 1_554 S
C160 C163 1.390 1_454 S
C161 C159 1.391 . S
C161 C165 1.387 1_455 S
C161 C166 1.491 . S
H162 C163 0.950 . S
C163 C160 1.390 1_656 S
C163 H162 0.950 . S
C163 C164 1.378 . S
C164 C163 1.378 . S
C164 C165 1.409 . S
C165 C161 1.387 1_655 S
C165 C164 1.409 . S
C165 H167 0.951 . S
C166 C161 1.491 . S
C166 C168 1.382 . S
C166 C170 1.404 . S
H167 C165 0.951 . S
C168 C166 1.382 . S
C168 C169 1.390 . S
C168 H173 0.949 . S
C169 C168 1.390 . S
C169 C174 1.399 . S
C170 C166 1.404 . S
C170 H171 0.950 . S
C170 C172 1.375 . S
H171 C170 0.950 . S
C172 C170 1.375 . S
C172 C174 1.382 . S
C172 H176 0.950 . S
H173 C168 0.949 . S
C174 C169 1.399 . S
C174 C172 1.382 . S
C174 H175 0.952 . S
H175 C174 0.952 . S
H176 C172 0.950 . S
H177 C178 0.949 . S
C178 H177 0.949 . S
C178 C179 1.395 1_655 S
C178 C180 1.391 1_655 S
C179 C178 1.395 1_455 S
C179 C182 1.390 . S
C180 C178 1.391 1_455 S
C180 C184 1.387 . S
C180 C185 1.491 1_455 S
H181 C182 0.950 . S
C182 C179 1.390 . S
C182 H181 0.950 . S
C182 C183 1.378 . S
C183 C182 1.378 . S
C183 C184 1.409 . S
C184 C180 1.387 . S
C184 C183 1.409 . S
C184 H186 0.951 . S
C185 C180 1.491 1_655 S
C185 C187 1.382 . S
C185 C189 1.404 . S
H186 C184 0.951 . S
C187 C185 1.382 . S
C187 C188 1.390 . S
C187 H192 0.949 . S
C188 C187 1.390 . S
C188 C193 1.399 . S
C189 C185 1.404 . S
C189 H190 0.950 . S
C189 C191 1.375 . S
H190 C189 0.950 . S
C191 C189 1.375 . S
C191 C193 1.382 . S
C191 H195 0.950 . S
H192 C187 0.949 . S
C193 C188 1.399 . S
C193 C191 1.382 . S
C193 H194 0.952 . S
H194 C193 0.952 . S
H195 C191 0.950 . S
H196 C197 0.949 . S
C197 H196 0.949 . S
C197 C198 1.395 1_565 S
C197 C199 1.391 1_565 S
C198 C197 1.395 1_545 S
C198 C201 1.390 . S
C199 C197 1.391 1_545 S
C199 C203 1.387 . S
C199 C204 1.491 1_545 S
H200 C201 0.950 . S
C201 C198 1.390 . S
C201 H200 0.950 . S
C201 C202 1.378 . S
C202 C201 1.378 . S
C202 C203 1.409 . S
C203 C199 1.387 . S
C203 C202 1.409 . S
C203 H205 0.951 . S
C204 C199 1.491 1_565 S
C204 C206 1.382 . S
C204 C208 1.404 . S
H205 C203 0.951 . S
C206 C204 1.382 . S
C206 C207 1.390 . S
C206 H211 0.949 . S
C207 C206 1.390 . S
C207 C212 1.399 . S
C208 C204 1.404 . S
C208 H209 0.950 . S
C208 C210 1.375 . S
H209 C208 0.950 . S
C210 C208 1.375 . S
C210 C212 1.382 . S
C210 H214 0.950 . S
H211 C206 0.949 . S
C212 C207 1.399 . S
C212 C210 1.382 . S
C212 H213 0.952 . S
H213 C212 0.952 . S
H214 C210 0.950 . S
H215 C216 0.949 1_556 S
C216 H215 0.949 1_554 S
C216 C217 1.395 1_554 S
C216 C218 1.391 . S
C217 C216 1.395 1_556 S
C217 C220 1.390 1_556 S
C218 C216 1.391 . S
C218 C222 1.387 . S
C218 C223 1.491 . S
H219 C220 0.950 1_556 S
C220 C217 1.390 1_554 S
C220 H219 0.950 1_554 S
C220 C221 1.378 . S
C221 C220 1.378 . S
C221 C222 1.409 . S
C222 C218 1.387 . S
C222 C221 1.409 . S
C222 H224 0.951 . S
C223 C218 1.491 . S
C223 C225 1.382 . S
C223 C227 1.404 . S
H224 C222 0.951 . S
C225 C223 1.382 . S
C225 C226 1.390 . S
C225 H230 0.949 . S
C226 C225 1.390 . S
C226 C231 1.399 . S
C227 C223 1.404 . S
C227 H228 0.950 . S
C227 C229 1.375 . S
H228 C227 0.950 . S
C229 C227 1.375 . S
C229 C231 1.382 . S
C229 H233 0.950 . S
H230 C225 0.949 . S
C231 C226 1.399 . S
C231 C229 1.382 . S
C231 H232 0.952 . S
H232 C231 0.952 . S
H233 C229 0.950 . S
C9 C226 2.676 . S
C49 C188 2.723 . S
C89 C207 2.646 . S
C26 C221 3.058 . S
C183 C66 2.681 . S
C202 C106 2.931 . S
C43 C150 4.687 . S
C83 C164 4.714 . S
C22 C126 4.766 . S
C145 C62 4.771 . S
C169 C102 4.748 . S
C3 C131 4.693 . S
C160 C15 1.998 . S
C55 C122 2.082 . S
C95 C141 2.028 . S
C198 C42 0.779 . S
C217 C82 1.127 1_556 S
C2 C179 0.571 . S
