# Generated by pormake.
# Topology tsx, (6,3)-cn, num edge types: 1
# Building blocks:
#     Node 0, Type 0, BuildingBlock: CIFDUS_clean_sbu_1, # of connection points: 6
#     Node 1, Type 0, BuildingBlock: CIFDUS_clean_sbu_1, # of connection points: 6
#     Node 2, Type 1, BuildingBlock: BELTOD_clean_linker_0, # of connection points: 3
#     Node 3, Type 1, BuildingBlock: BELTOD_clean_linker_0, # of connection points: 3
#     Node 4, Type 1, BuildingBlock: BELTOD_clean_linker_0, # of connection points: 3
#     Node 5, Type 1, BuildingBlock: BELTOD_clean_linker_0, # of connection points: 3
#     Edge 6, Type (0, 1), BuildingBlock: EYOCIG_clean_linker_4, # of connection points: 2
#     Edge 7, Type (0, 1), BuildingBlock: EYOCIG_clean_linker_4, # of connection points: 2
#     Edge 8, Type (0, 1), BuildingBlock: EYOCIG_clean_linker_4, # of connection points: 2
#     Edge 9, Type (0, 1), BuildingBlock: EYOCIG_clean_linker_4, # of connection points: 2
#     Edge 10, Type (0, 1), BuildingBlock: EYOCIG_clean_linker_4, # of connection points: 2
#     Edge 11, Type (0, 1), BuildingBlock: EYOCIG_clean_linker_4, # of connection points: 2
#     Edge 12, Type (0, 1), BuildingBlock: EYOCIG_clean_linker_4, # of connection points: 2
#     Edge 13, Type (0, 1), BuildingBlock: EYOCIG_clean_linker_4, # of connection points: 2
#     Edge 14, Type (0, 1), BuildingBlock: EYOCIG_clean_linker_4, # of connection points: 2
#     Edge 15, Type (0, 1), BuildingBlock: EYOCIG_clean_linker_4, # of connection points: 2
#     Edge 16, Type (0, 1), BuildingBlock: EYOCIG_clean_linker_4, # of connection points: 2
#     Edge 17, Type (0, 1), BuildingBlock: EYOCIG_clean_linker_4, # of connection points: 2
# Relax obj value: 0.115
# Max RMSD: 0.149
# Mean RMSD: 0.109
data_MOF--net-tsx--node1-CIFDUS_clean_sbu_1--node2-BELTOD_clean_linker_0--edge1-EYOCIG_clean_linker_4
_symmetry_space_group_name_H-M    P1
_symmetry_Int_Tables_number       1
_symmetry_cell_setting            triclinic
loop_
_symmetry_equiv_pos_as_xyz
'x, y, z'
_cell_length_a     16.946804
_cell_length_b     20.442181
_cell_length_c     33.756006
_cell_angle_alpha  97.408569
_cell_angle_beta   92.00417
_cell_angle_gamma 91.447113
loop_
_atom_site_label
_atom_site_type_symbol
_atom_site_fract_x
_atom_site_fract_y
_atom_site_fract_z
_atom_type_partial_charge
O0 O 0.97395 0.12116 0.01125 0.0
Mn1 Mn 0.0337 0.03222 0.00255 0.0
O2 O 0.85938 0.10528 0.97454 0.0
Mn3 Mn 0.87947 0.02198 0.94907 0.0
O4 O 0.09327 0.94278 0.99302 0.0
O5 O 0.13439 0.08265 0.02072 0.0
Mn6 Mn 0.19347 0.03909 0.0517 0.0
O7 O 0.01295 0.01704 0.06157 0.0
O8 O 0.21629 0.96122 0.02055 0.0
O9 O 0.05664 0.04696 0.94351 0.0
O10 O 0.9445 0.02112 0.90624 0.0
O11 O 0.24682 0.11847 0.0486 0.0
O12 O 0.13171 0.0288 0.09488 0.0
C13 C 0.87434 0.93966 0.98225 0.0
C14 C 0.90702 0.14078 -0.00114 0.0
C15 C 0.16412 0.92463 -0.0002 0.0
C16 C 0.18621 0.13045 0.02667 0.0
C17 C 0.05712 0.01822 0.09348 0.0
C18 C 0.01762 0.03732 0.90979 0.0
O19 O 0.93192 0.98266 0.9848 0.0
O20 O 0.81805 0.94916 0.95699 0.0
O21 O 0.47403 0.6214 0.51122 0.0
Mn22 Mn 0.5335 0.53231 0.50247 0.0
O23 O 0.35922 0.60567 0.47469 0.0
Mn24 Mn 0.37902 0.52234 0.4492 0.0
O25 O 0.5928 0.44273 0.4929 0.0
O26 O 0.63438 0.58256 0.52049 0.0
Mn27 Mn 0.69351 0.53891 0.5514 0.0
O28 O 0.513 0.51728 0.56155 0.0
O29 O 0.71599 0.46097 0.52023 0.0
O30 O 0.55621 0.5469 0.44339 0.0
O31 O 0.44383 0.52133 0.40627 0.0
O32 O 0.74701 0.61819 0.54823 0.0
O33 O 0.63196 0.52878 0.59468 0.0
C34 C 0.37387 0.44 0.48236 0.0
C35 C 0.40708 0.64112 0.49891 0.0
C36 C 0.66363 0.42445 0.49957 0.0
C37 C 0.68632 0.63028 0.52638 0.0
C38 C 0.55733 0.51841 0.5934 0.0
C39 C 0.517 0.53734 0.40972 0.0
O40 O 0.43153 0.48292 0.48487 0.0
O41 O 0.31748 0.44962 0.45718 0.0
P42 P 0.12189 0.08049 0.41714 0.0
H43 H 0.09178 0.20405 0.46686 0.0
H44 H 0.96941 0.25974 0.48404 0.0
H45 H 0.83396 0.08715 0.43095 0.0
H46 H 0.95725 0.03073 0.41392 0.0
H47 H 0.28033 0.06686 0.45112 0.0
H48 H 0.34342 0.979 0.48205 0.0
H49 H 0.12492 0.86461 0.46846 0.0
H50 H 0.0595 0.95476 0.43965 0.0
H51 H 0.09121 0.15563 0.35201 0.0
H52 H 0.09518 0.9494 0.36757 0.0
O53 O 0.18851 0.14251 0.41892 0.0
H54 H 0.05308 0.12544 0.28131 0.0
H55 H 0.05604 0.91933 0.29664 0.0
C56 C 0.03364 0.11332 0.43904 0.0
C57 C 0.0361 0.17725 0.45989 0.0
C58 C 0.96621 0.2092 0.46954 0.0
C59 C 0.89302 0.1777 0.4583 0.0
C60 C 0.89016 0.11218 0.43977 0.0
C61 C 0.9604 0.07999 0.43024 0.0
C62 C 0.16502 0.01743 0.44296 0.0
C63 C 0.24508 0.02366 0.45542 0.0
C64 C 0.28129 0.97355 0.47314 0.0
C65 C 0.23824 0.91618 0.47816 0.0
C66 C 0.15818 0.90972 0.46596 0.0
C67 C 0.12125 0.96069 0.44909 0.0
C68 C 0.09747 0.05491 0.36498 0.0
C69 C 0.08428 0.10387 0.34022 0.0
C70 C 0.06191 0.08673 0.3 0.0
C71 C 0.0515 0.02033 0.28403 0.0
C72 C 0.06353 0.97095 0.30868 0.0
C73 C 0.08629 0.98818 0.3491 0.0
P74 P 0.08742 0.99766 0.58254 0.0
H75 H 0.05002 0.88225 0.52502 0.0
H76 H 0.92644 0.82581 0.50072 0.0
H77 H 0.79645 0.98409 0.5623 0.0
H78 H 0.9222 0.04202 0.58635 0.0
H79 H 0.24985 0.0211 0.562 0.0
H80 H 0.32127 0.11798 0.54495 0.0
H81 H 0.10458 0.22413 0.54614 0.0
H82 H 0.03161 0.1255 0.56213 0.0
H83 H 0.03403 0.91818 0.64201 0.0
H84 H 0.11504 0.11969 0.64 0.0
O85 O 0.14983 0.93543 0.57816 0.0
H86 H 0.03338 0.93786 0.71527 0.0
H87 H 0.11368 0.13915 0.71306 0.0
C88 C 0.99573 0.96658 0.55731 0.0
C89 C 0.99551 0.90658 0.53201 0.0
C90 C 0.92465 0.87401 0.51829 0.0
C91 C 0.85247 0.90071 0.52972 0.0
C92 C 0.8518 0.96297 0.55287 0.0
C93 C 0.92341 0.99591 0.56661 0.0
C94 C 0.13499 0.06556 0.56266 0.0
C95 C 0.21683 0.06441 0.55769 0.0
C96 C 0.25798 0.11996 0.54833 0.0
C97 C 0.2182 0.17797 0.54451 0.0
C98 C 0.13613 0.17939 0.54887 0.0
C99 C 0.09448 0.12315 0.55766 0.0
C100 C 0.07452 0.01725 0.63543 0.0
C101 C 0.05039 0.96684 0.6572 0.0
C102 C 0.05039 0.97793 0.69891 0.0
C103 C 0.07438 0.03965 0.7193 0.0
C104 C 0.09561 0.091 0.69766 0.0
C105 C 0.09591 0.07984 0.65588 0.0
P106 P 0.62256 0.58064 0.9172 0.0
H107 H 0.59267 0.70442 0.96676 0.0
H108 H 0.47037 0.76017 0.98402 0.0
H109 H 0.33473 0.58742 0.93136 0.0
H110 H 0.45793 0.53095 0.91423 0.0
H111 H 0.78083 0.56668 0.9513 0.0
H112 H 0.84357 0.47861 0.98219 0.0
H113 H 0.62486 0.36451 0.96824 0.0
H114 H 0.5598 0.45484 0.93946 0.0
H115 H 0.59117 0.65604 0.85228 0.0
H116 H 0.59637 0.44968 0.86742 0.0
O117 O 0.68938 0.64252 0.91903 0.0
H118 H 0.55302 0.62609 0.78155 0.0
H119 H 0.5572 0.41984 0.79648 0.0
C120 C 0.53442 0.6136 0.93915 0.0
C121 C 0.53696 0.6776 0.9599 0.0
C122 C 0.46712 0.70958 0.96959 0.0
C123 C 0.39389 0.67805 0.9585 0.0
C124 C 0.39096 0.61248 0.94006 0.0
C125 C 0.46115 0.58025 0.93049 0.0
C126 C 0.66544 0.51739 0.94296 0.0
C127 C 0.74545 0.52349 0.95551 0.0
C128 C 0.78147 0.47327 0.97321 0.0
C129 C 0.73825 0.41592 0.97812 0.0
C130 C 0.65824 0.40959 0.96582 0.0
C131 C 0.62151 0.46067 0.94897 0.0
C132 C 0.59801 0.55524 0.86504 0.0
C133 C 0.58448 0.6043 0.84039 0.0
C134 C 0.56211 0.5873 0.80016 0.0
C135 C 0.55204 0.52092 0.78407 0.0
C136 C 0.56441 0.47145 0.80861 0.0
C137 C 0.58718 0.48854 0.84905 0.0
P138 P 0.58733 0.4976 0.08241 0.0
H139 H 0.54981 0.38241 0.02474 0.0
H140 H 0.42617 0.32601 0.0005 0.0
H141 H 0.29636 0.48415 0.06235 0.0
H142 H 0.42216 0.54204 0.08633 0.0
H143 H 0.74983 0.52098 0.06197 0.0
H144 H 0.82139 0.61783 0.04497 0.0
H145 H 0.60482 0.72415 0.04614 0.0
H146 H 0.5317 0.62554 0.06206 0.0
H147 H 0.5342 0.41791 0.14182 0.0
H148 H 0.61455 0.61962 0.13992 0.0
O149 O 0.64965 0.43531 0.07797 0.0
H150 H 0.53333 0.43751 0.21507 0.0
H151 H 0.61298 0.63899 0.21298 0.0
C152 C 0.4956 0.46666 0.05716 0.0
C153 C 0.49532 0.40673 0.0318 0.0
C154 C 0.42442 0.37418 0.01811 0.0
C155 C 0.35228 0.40084 0.02964 0.0
C156 C 0.35167 0.46306 0.05284 0.0
C157 C 0.42332 0.49598 0.06655 0.0
C158 C 0.63502 0.56552 0.0626 0.0
C159 C 0.71687 0.56432 0.05766 0.0
C160 C 0.7581 0.61985 0.04834 0.0
C161 C 0.71839 0.6779 0.04453 0.0
C162 C 0.63631 0.67938 0.04886 0.0
C163 C 0.59458 0.62316 0.05761 0.0
C164 C 0.57439 0.51708 0.1353 0.0
C165 C 0.55039 0.46658 0.15704 0.0
C166 C 0.55026 0.47763 0.19875 0.0
C167 C 0.57399 0.53939 0.21917 0.0
C168 C 0.59511 0.59081 0.19756 0.0
C169 C 0.59554 0.5797 0.15578 0.0
C170 C 0.19427 0.25147 0.0105 0.0
C171 C 0.17821 0.19465 0.01408 0.0
C172 C 0.23386 0.31399 0.01427 0.0
C173 C 0.28203 0.35872 0.02269 0.0
C174 C 0.21987 0.80792 0.97598 0.0
C175 C 0.187 0.85912 0.98488 0.0
C176 C 0.27093 0.75446 0.96855 0.0
C177 C 0.32328 0.71582 0.96289 0.0
C178 C 0.84361 0.8385 0.01961 0.0
C179 C 0.86794 0.88622 0.00569 0.0
C180 C 0.80201 0.78305 0.03038 0.0
C181 C 0.76286 0.7357 0.03683 0.0
C182 C 0.85437 0.26054 0.01167 0.0
C183 C 0.88597 0.20811 0.00917 0.0
C184 C 0.81278 0.31723 0.00485 0.0
C185 C 0.77805 0.36179 0.99263 0.0
C186 C 0.69441 0.75139 0.51036 0.0
C187 C 0.67832 0.69455 0.51388 0.0
C188 C 0.73404 0.8139 0.51421 0.0
C189 C 0.7822 0.85862 0.52268 0.0
C190 C 0.71905 0.30763 0.47573 0.0
C191 C 0.68629 0.35888 0.48464 0.0
C192 C 0.77006 0.25413 0.46829 0.0
C193 C 0.8224 0.21547 0.46265 0.0
C194 C 0.34323 0.33869 0.51962 0.0
C195 C 0.36752 0.38646 0.50574 0.0
C196 C 0.3017 0.28319 0.53036 0.0
C197 C 0.26261 0.2358 0.53681 0.0
C198 C 0.3547 0.76098 0.51172 0.0
C199 C 0.38623 0.70851 0.50923 0.0
C200 C 0.31308 0.81765 0.50491 0.0
C201 C 0.27823 0.86215 0.49268 0.0
C202 C 0.01209 0.00057 0.16479 0.0
C203 C 0.0229 0.00736 0.13043 0.0
C204 C 0.01706 0.9988 0.20648 0.0
C205 C 0.03244 0.00412 0.24192 0.0
C206 C 0.07334 0.05119 0.83977 0.0
C207 C 0.0559 0.04665 0.87364 0.0
C208 C 0.07998 0.0524 0.7983 0.0
C209 C 0.0785 0.04924 0.76237 0.0
C210 C 0.51256 0.50115 0.66481 0.0
C211 C 0.52327 0.50778 0.63042 0.0
C212 C 0.5176 0.4995 0.70651 0.0
C213 C 0.53302 0.50485 0.74195 0.0
C214 C 0.57259 0.55097 0.33963 0.0
C215 C 0.55516 0.54651 0.37351 0.0
C216 C 0.57931 0.55213 0.29816 0.0
C217 C 0.57795 0.54896 0.26223 0.0
loop_
_geom_bond_atom_site_label_1
_geom_bond_atom_site_label_2
_geom_bond_distance
_geom_bond_site_symmetry_2
_ccdc_geom_bond_type
O0 Mn1 2.163 1_654 S
O0 C14 1.244 1_554 S
Mn1 O0 2.163 1_456 S
Mn1 O4 2.160 1_545 S
Mn1 O5 2.221 1_556 S
Mn1 O7 2.163 1_556 S
Mn1 O9 2.160 . S
Mn1 O19 2.221 1_445 S
O2 Mn3 2.087 . S
O2 C14 1.256 . S
Mn3 O2 2.087 . S
Mn3 O10 2.089 . S
Mn3 O19 2.290 1_545 S
Mn3 O20 2.251 1_545 S
O4 Mn1 2.160 1_565 S
O4 C15 1.239 1_556 S
O5 Mn1 2.221 1_554 S
O5 Mn6 2.290 . S
O5 C16 1.278 . S
Mn6 O5 2.290 . S
Mn6 O8 2.089 1_545 S
Mn6 O11 2.251 . S
Mn6 O12 2.087 . S
O7 Mn1 2.163 1_554 S
O7 C17 1.244 . S
O8 Mn6 2.089 1_565 S
O8 C15 1.256 . S
O9 Mn1 2.160 . S
O9 C18 1.239 . S
O10 Mn3 2.089 . S
O10 C18 1.256 1_655 S
O11 Mn6 2.251 . S
O11 C16 1.241 . S
O12 Mn6 2.087 . S
O12 C17 1.256 . S
C13 O19 1.274 1_554 S
C13 O20 1.239 1_554 S
C14 O0 1.244 1_556 S
C14 O2 1.256 . S
C15 O4 1.239 1_554 S
C15 O8 1.256 . S
C16 O5 1.278 . S
C16 O11 1.241 . S
C17 O7 1.244 . S
C17 O12 1.256 . S
C18 O9 1.239 . S
C18 O10 1.256 1_455 S
O19 Mn1 2.221 1_665 S
O19 Mn3 2.290 1_565 S
O19 C13 1.274 1_556 S
O20 Mn3 2.251 1_565 S
O20 C13 1.239 1_556 S
O21 Mn22 2.163 . S
O21 C35 1.244 . S
Mn22 O21 2.163 . S
Mn22 O25 2.160 . S
Mn22 O26 2.221 . S
Mn22 O28 2.163 . S
Mn22 O30 2.160 . S
Mn22 O40 2.221 . S
O23 Mn24 2.087 . S
O23 C35 1.256 . S
Mn24 O23 2.087 . S
Mn24 O31 2.089 . S
Mn24 O40 2.290 . S
Mn24 O41 2.251 . S
O25 Mn22 2.160 . S
O25 C36 1.239 . S
O26 Mn22 2.221 . S
O26 Mn27 2.290 . S
O26 C37 1.278 . S
Mn27 O26 2.290 . S
Mn27 O29 2.089 . S
Mn27 O32 2.251 . S
Mn27 O33 2.087 . S
O28 Mn22 2.163 . S
O28 C38 1.244 . S
O29 Mn27 2.089 . S
O29 C36 1.256 . S
O30 Mn22 2.160 . S
O30 C39 1.239 . S
O31 Mn24 2.089 . S
O31 C39 1.256 . S
O32 Mn27 2.251 . S
O32 C37 1.241 . S
O33 Mn27 2.087 . S
O33 C38 1.256 . S
C34 O40 1.278 . S
C34 O41 1.241 . S
C35 O21 1.244 . S
C35 O23 1.256 . S
C36 O25 1.239 . S
C36 O29 1.256 . S
C37 O26 1.278 . S
C37 O32 1.241 . S
C38 O28 1.244 . S
C38 O33 1.256 . S
C39 O30 1.239 . S
C39 O31 1.256 . S
O40 Mn22 2.221 . S
O40 Mn24 2.290 . S
O40 C34 1.278 . S
O41 Mn24 2.251 . S
O41 C34 1.241 . S
P42 O53 1.490 . S
P42 C56 1.812 . S
P42 C62 1.803 1_545 S
P42 C68 1.819 . S
H43 C57 0.941 . S
H44 C58 0.939 . S
H45 C60 0.940 . S
H46 C61 0.940 . S
H47 C63 0.939 . S
H48 C64 0.942 . S
H49 C66 0.940 . S
H50 C67 0.939 . S
H51 C69 0.941 . S
H52 C73 0.939 . S
O53 P42 1.490 . S
H54 C70 0.939 . S
H55 C72 0.940 . S
C56 P42 1.812 . S
C56 C57 1.389 . S
C56 C61 1.391 1_455 S
C57 H43 0.941 . S
C57 C56 1.389 . S
C57 C58 1.397 1_455 S
C58 H44 0.939 . S
C58 C57 1.397 1_655 S
C58 C59 1.378 . S
C59 C58 1.378 . S
C59 C60 1.378 . S
C60 H45 0.940 . S
C60 C59 1.378 . S
C60 C61 1.396 . S
C61 H46 0.940 . S
C61 C56 1.391 1_655 S
C61 C60 1.396 . S
C62 P42 1.803 1_565 S
C62 C63 1.378 . S
C62 C67 1.400 . S
C63 H47 0.939 . S
C63 C62 1.378 . S
C63 C64 1.361 . S
C64 H48 0.942 . S
C64 C63 1.361 . S
C64 C65 1.369 . S
C65 C64 1.369 . S
C65 C66 1.404 . S
C66 H49 0.940 . S
C66 C65 1.404 . S
C66 C67 1.389 . S
C67 H50 0.939 . S
C67 C62 1.400 . S
C67 C66 1.389 . S
C68 P42 1.819 . S
C68 C69 1.391 . S
C68 C73 1.391 1_545 S
C69 H51 0.941 . S
C69 C68 1.391 . S
C69 C70 1.396 . S
C70 H54 0.939 . S
C70 C69 1.396 . S
C70 C71 1.397 . S
C71 C70 1.397 . S
C71 C72 1.385 1_545 S
C72 H55 0.940 . S
C72 C71 1.385 1_565 S
C72 C73 1.388 . S
C73 H52 0.939 . S
C73 C68 1.391 1_565 S
C73 C72 1.388 . S
P74 O85 1.490 1_545 S
P74 C88 1.803 1_445 S
P74 C94 1.803 . S
P74 C100 1.819 . S
H75 C89 0.941 . S
H76 C90 0.939 . S
H77 C92 0.940 . S
H78 C93 0.940 . S
H79 C95 0.939 . S
H80 C96 0.942 . S
H81 C98 0.940 . S
H82 C99 0.939 . S
H83 C101 0.941 . S
H84 C105 0.939 . S
O85 P74 1.490 1_565 S
H86 C102 0.939 1_565 S
H87 C104 0.940 . S
C88 P74 1.803 1_665 S
C88 C89 1.388 1_655 S
C88 C93 1.401 1_565 S
C89 H75 0.941 . S
C89 C88 1.388 1_455 S
C89 C90 1.397 1_455 S
C90 H76 0.939 . S
C90 C89 1.397 1_655 S
C90 C91 1.378 . S
C91 C90 1.378 . S
C91 C92 1.378 . S
C92 H77 0.940 . S
C92 C91 1.378 . S
C92 C93 1.396 1_565 S
C93 H78 0.940 . S
C93 C88 1.401 1_545 S
C93 C92 1.396 1_545 S
C94 P74 1.803 . S
C94 C95 1.378 . S
C94 C99 1.400 . S
C95 H79 0.939 . S
C95 C94 1.378 . S
C95 C96 1.361 . S
C96 H80 0.942 . S
C96 C95 1.361 . S
C96 C97 1.369 . S
C97 C96 1.369 . S
C97 C98 1.404 . S
C98 H81 0.940 . S
C98 C97 1.404 . S
C98 C99 1.389 . S
C99 H82 0.939 . S
C99 C94 1.400 . S
C99 C98 1.389 . S
C100 P74 1.819 . S
C100 C101 1.391 1_545 S
C100 C105 1.391 . S
C101 H83 0.941 . S
C101 C100 1.391 1_565 S
C101 C102 1.396 1_565 S
C102 H86 0.939 1_545 S
C102 C101 1.396 1_545 S
C102 C103 1.397 . S
C103 C102 1.397 . S
C103 C104 1.385 . S
C104 H87 0.940 . S
C104 C103 1.385 . S
C104 C105 1.388 . S
C105 H84 0.939 . S
C105 C100 1.391 . S
C105 C104 1.388 . S
P106 O117 1.490 . S
P106 C120 1.812 . S
P106 C126 1.803 . S
P106 C132 1.819 . S
H107 C121 0.941 . S
H108 C122 0.939 1_554 S
H109 C124 0.940 . S
H110 C125 0.940 . S
H111 C127 0.939 . S
H112 C128 0.942 . S
H113 C130 0.940 . S
H114 C131 0.939 . S
H115 C133 0.941 . S
H116 C137 0.939 . S
O117 P106 1.490 . S
H118 C134 0.939 . S
H119 C136 0.940 . S
C120 P106 1.812 . S
C120 C121 1.389 . S
C120 C125 1.391 . S
C121 H107 0.941 . S
C121 C120 1.389 . S
C121 C122 1.397 . S
C122 H108 0.939 1_556 S
C122 C121 1.397 . S
C122 C123 1.378 . S
C123 C122 1.378 . S
C123 C124 1.378 . S
C124 H109 0.940 . S
C124 C123 1.378 . S
C124 C125 1.396 . S
C125 H110 0.940 . S
C125 C120 1.391 . S
C125 C124 1.396 . S
C126 P106 1.803 . S
C126 C127 1.378 . S
C126 C131 1.400 . S
C127 H111 0.939 . S
C127 C126 1.378 . S
C127 C128 1.361 . S
C128 H112 0.942 . S
C128 C127 1.361 . S
C128 C129 1.369 . S
C129 C128 1.369 . S
C129 C130 1.404 . S
C130 H113 0.940 . S
C130 C129 1.404 . S
C130 C131 1.389 . S
C131 H114 0.939 . S
C131 C126 1.400 . S
C131 C130 1.389 . S
C132 P106 1.819 . S
C132 C133 1.391 . S
C132 C137 1.391 . S
C133 H115 0.941 . S
C133 C132 1.391 . S
C133 C134 1.396 . S
C134 H118 0.939 . S
C134 C133 1.396 . S
C134 C135 1.397 . S
C135 C134 1.397 . S
C135 C136 1.385 . S
C136 H119 0.940 . S
C136 C135 1.385 . S
C136 C137 1.388 . S
C137 H116 0.939 . S
C137 C132 1.391 . S
C137 C136 1.388 . S
P138 O149 1.490 . S
P138 C152 1.812 . S
P138 C158 1.803 . S
P138 C164 1.819 . S
H139 C153 0.941 . S
H140 C154 0.939 1_556 S
H141 C156 0.940 . S
H142 C157 0.940 . S
H143 C159 0.939 . S
H144 C160 0.942 . S
H145 C162 0.940 . S
H146 C163 0.939 . S
H147 C165 0.941 . S
H148 C169 0.939 . S
O149 P138 1.490 . S
H150 C166 0.939 . S
H151 C168 0.940 . S
C152 P138 1.812 . S
C152 C153 1.389 . S
C152 C157 1.391 . S
C153 H139 0.941 . S
C153 C152 1.389 . S
C153 C154 1.397 . S
C154 H140 0.939 1_554 S
C154 C153 1.397 . S
C154 C155 1.378 . S
C155 C154 1.378 . S
C155 C156 1.378 . S
C156 H141 0.940 . S
C156 C155 1.378 . S
C156 C157 1.396 . S
C157 H142 0.940 . S
C157 C152 1.391 . S
C157 C156 1.396 . S
C158 P138 1.803 . S
C158 C159 1.378 . S
C158 C163 1.400 . S
C159 H143 0.939 . S
C159 C158 1.378 . S
C159 C160 1.361 . S
C160 H144 0.942 . S
C160 C159 1.361 . S
C160 C161 1.369 . S
C161 C160 1.369 . S
C161 C162 1.404 . S
C162 H145 0.940 . S
C162 C161 1.404 . S
C162 C163 1.389 . S
C163 H146 0.939 . S
C163 C158 1.400 . S
C163 C162 1.389 . S
C164 P138 1.819 . S
C164 C165 1.391 . S
C164 C169 1.391 . S
C165 H147 0.941 . S
C165 C164 1.391 . S
C165 C166 1.396 . S
C166 H150 0.939 . S
C166 C165 1.396 . S
C166 C167 1.397 . S
C167 C166 1.397 . S
C167 C168 1.385 . S
C168 H151 0.940 . S
C168 C167 1.385 . S
C168 C169 1.388 . S
C169 H148 0.939 . S
C169 C164 1.391 . S
C169 C168 1.388 . S
C170 C171 1.170 . S
C170 C172 1.380 . S
C171 C170 1.170 . S
C172 C170 1.380 . S
C172 C173 1.170 . S
C173 C172 1.170 . S
C174 C175 1.170 . S
C174 C176 1.380 1_554 S
C175 C174 1.170 . S
C176 C174 1.380 1_556 S
C176 C177 1.170 . S
C177 C176 1.170 . S
C178 C179 1.170 . S
C178 C180 1.380 . S
C179 C178 1.170 . S
C180 C178 1.380 . S
C180 C181 1.170 . S
C181 C180 1.170 . S
C182 C183 1.170 . S
C182 C184 1.380 . S
C183 C182 1.170 . S
C184 C182 1.380 . S
C184 C185 1.170 . S
C185 C184 1.170 . S
C186 C187 1.170 . S
C186 C188 1.380 . S
C187 C186 1.170 . S
C188 C186 1.380 . S
C188 C189 1.170 . S
C189 C188 1.170 . S
C190 C191 1.170 . S
C190 C192 1.380 . S
C191 C190 1.170 . S
C192 C190 1.380 . S
C192 C193 1.170 . S
C193 C192 1.170 . S
C194 C195 1.170 . S
C194 C196 1.380 . S
C195 C194 1.170 . S
C196 C194 1.380 . S
C196 C197 1.170 . S
C197 C196 1.170 . S
C198 C199 1.170 . S
C198 C200 1.380 . S
C199 C198 1.170 . S
C200 C198 1.380 . S
C200 C201 1.170 . S
C201 C200 1.170 . S
C202 C203 1.170 . S
C202 C204 1.380 1_545 S
C203 C202 1.170 . S
C204 C202 1.380 1_565 S
C204 C205 1.170 . S
C205 C204 1.170 . S
C206 C207 1.170 . S
C206 C208 1.380 . S
C207 C206 1.170 . S
C208 C206 1.380 . S
C208 C209 1.170 . S
C209 C208 1.170 . S
C210 C211 1.170 . S
C210 C212 1.380 . S
C211 C210 1.170 . S
C212 C210 1.380 . S
C212 C213 1.170 . S
C213 C212 1.170 . S
C214 C215 1.170 . S
C214 C216 1.380 . S
C215 C214 1.170 . S
C216 C214 1.380 . S
C216 C217 1.170 . S
C217 C216 1.170 . S
C173 C155 1.449 . S
C171 C16 1.343 . S
C175 C15 1.526 . S
C177 C123 1.499 . S
C179 C13 1.275 . S
C181 C161 1.446 . S
C183 C14 1.364 . S
C185 C129 1.406 . S
C187 C37 1.353 . S
C189 C91 1.457 . S
C191 C36 1.542 . S
C193 C59 1.507 . S
C197 C97 1.457 . S
C195 C34 1.256 . S
C201 C65 1.399 . S
C199 C35 1.355 . S
C203 C17 1.507 . S
C205 C71 1.521 1_565 S
C207 C18 1.401 . S
C209 C103 1.363 . S
C213 C135 1.497 . S
C211 C38 1.496 . S
C215 C39 1.397 . S
C217 C167 1.362 . S
