# Generated by pormake.
# Topology tsx, (6,3)-cn, num edge types: 1
# Building blocks:
#     Node 0, Type 0, BuildingBlock: CIFDUS_clean_sbu_1, # of connection points: 6
#     Node 1, Type 0, BuildingBlock: CIFDUS_clean_sbu_1, # of connection points: 6
#     Node 2, Type 1, BuildingBlock: BETDAH_clean_linker_0, # of connection points: 3
#     Node 3, Type 1, BuildingBlock: BETDAH_clean_linker_0, # of connection points: 3
#     Node 4, Type 1, BuildingBlock: BETDAH_clean_linker_0, # of connection points: 3
#     Node 5, Type 1, BuildingBlock: BETDAH_clean_linker_0, # of connection points: 3
#     Edge 6, Type (0, 1), BuildingBlock: EYOCIG_clean_linker_4, # of connection points: 2
#     Edge 7, Type (0, 1), BuildingBlock: EYOCIG_clean_linker_4, # of connection points: 2
#     Edge 8, Type (0, 1), BuildingBlock: EYOCIG_clean_linker_4, # of connection points: 2
#     Edge 9, Type (0, 1), BuildingBlock: EYOCIG_clean_linker_4, # of connection points: 2
#     Edge 10, Type (0, 1), BuildingBlock: EYOCIG_clean_linker_4, # of connection points: 2
#     Edge 11, Type (0, 1), BuildingBlock: EYOCIG_clean_linker_4, # of connection points: 2
#     Edge 12, Type (0, 1), BuildingBlock: EYOCIG_clean_linker_4, # of connection points: 2
#     Edge 13, Type (0, 1), BuildingBlock: EYOCIG_clean_linker_4, # of connection points: 2
#     Edge 14, Type (0, 1), BuildingBlock: EYOCIG_clean_linker_4, # of connection points: 2
#     Edge 15, Type (0, 1), BuildingBlock: EYOCIG_clean_linker_4, # of connection points: 2
#     Edge 16, Type (0, 1), BuildingBlock: EYOCIG_clean_linker_4, # of connection points: 2
#     Edge 17, Type (0, 1), BuildingBlock: EYOCIG_clean_linker_4, # of connection points: 2
# Relax obj value: 0.093
# Max RMSD: 0.139
# Mean RMSD: 0.105
data_MOF--net-tsx--node1-CIFDUS_clean_sbu_1--node2-BETDAH_clean_linker_0--edge1-EYOCIG_clean_linker_4
_symmetry_space_group_name_H-M    P1
_symmetry_Int_Tables_number       1
_symmetry_cell_setting            triclinic
loop_
_symmetry_equiv_pos_as_xyz
'x, y, z'
_cell_length_a     14.588331
_cell_length_b     17.790573
_cell_length_c     27.717827
_cell_angle_alpha  95.8696
_cell_angle_beta   102.39819
_cell_angle_gamma 91.719229
loop_
_atom_site_label
_atom_site_type_symbol
_atom_site_fract_x
_atom_site_fract_y
_atom_site_fract_z
_atom_type_partial_charge
O0 O 0.99064 0.12198 -0.01105 0.0
Mn1 Mn 0.06677 0.02468 -0.01641 0.0
O2 O 0.8508 0.09585 0.93504 0.0
Mn3 Mn 0.87401 0.99911 0.91034 0.0
O4 O 0.14412 0.92725 0.976 0.0
O5 O 0.18626 0.09028 0.00867 0.0
Mn6 Mn 0.26721 0.04442 0.05134 0.0
O7 O 0.0612 0.00785 0.05647 0.0
O8 O 0.29421 0.95711 0.01649 0.0
O9 O 0.07428 0.04305 0.91055 0.0
O10 O 0.93821 0.99716 0.85985 0.0
O11 O 0.32469 0.13678 0.04846 0.0
O12 O 0.20856 0.03134 0.10297 0.0
C13 C 0.87558 0.91014 0.95643 0.0
C14 C 0.90869 0.14032 0.96715 0.0
C15 C 0.23152 0.91223 -0.01201 0.0
C16 C 0.24674 0.14737 0.0181 0.0
C17 C 0.12144 0.01448 0.09816 0.0
C18 C 0.02136 0.02593 0.86703 0.0
O19 O 0.94503 0.95954 0.96037 0.0
O20 O 0.80461 0.91651 0.92029 0.0
O21 O 0.49308 0.62338 0.48895 0.0
Mn22 Mn 0.56852 0.5256 0.48406 0.0
O23 O 0.35233 0.59702 0.43597 0.0
Mn24 Mn 0.37512 0.5 0.41165 0.0
O25 O 0.64538 0.42771 0.47705 0.0
O26 O 0.6883 0.59098 0.50805 0.0
Mn27 Mn 0.76987 0.5461 0.55096 0.0
O28 O 0.56419 0.51062 0.55741 0.0
O29 O 0.79591 0.45785 0.51675 0.0
O30 O 0.57515 0.54233 0.41068 0.0
O31 O 0.43814 0.49723 0.36063 0.0
O32 O 0.82697 0.63812 0.54678 0.0
O33 O 0.71211 0.53474 0.60314 0.0
C34 C 0.37662 0.41143 0.45796 0.0
C35 C 0.41094 0.64176 0.46748 0.0
C36 C 0.73278 0.4126 0.48889 0.0
C37 C 0.74852 0.64814 0.51666 0.0
C38 C 0.62506 0.51819 0.5989 0.0
C39 C 0.52156 0.52525 0.36736 0.0
O40 O 0.44637 0.46057 0.46175 0.0
O41 O 0.30543 0.41793 0.42197 0.0
H42 H 0.22868 0.91289 0.34114 0.0
H43 H 0.9984 0.06051 0.334 0.0
H44 H 0.10671 0.95993 0.46779 0.0
C45 C 0.18008 0.94375 0.3593 0.0
C46 C 0.17873 0.93505 0.4088 0.0
C47 C 0.1147 0.98876 0.33238 0.0
C48 C 0.05074 0.02773 0.35533 0.0
C49 C 0.04762 0.0178 0.40428 0.0
C50 C 0.11143 0.97094 0.43072 0.0
N51 N 0.9703 0.04149 0.42409 0.0
C52 C 0.93556 0.11332 0.42514 0.0
H53 H 0.89244 0.97272 0.63385 0.0
H54 H 0.11534 0.13026 0.62193 0.0
H55 H 0.96928 0.98062 0.49516 0.0
C56 C 0.9332 0.99958 0.61127 0.0
C57 C 0.91832 0.9754 0.56052 0.0
C58 C 1.00603 0.05377 0.63365 0.0
C59 C 0.0594 0.08843 0.60451 0.0
C60 C 0.04472 0.06411 0.55345 0.0
C61 C 0.97611 0.0058 0.53266 0.0
N62 N 0.10059 0.09226 0.52225 0.0
C63 C 0.16695 0.15321 0.53348 0.0
H64 H 0.73023 0.41438 0.8422 0.0
H65 H 0.50037 0.56248 0.83447 0.0
H66 H 0.60257 0.45755 0.96721 0.0
C67 C 0.68083 0.44468 0.86008 0.0
C68 C 0.67727 0.43438 0.9091 0.0
C69 C 0.61664 0.49062 0.83321 0.0
C70 C 0.5517 0.5289 0.85579 0.0
C71 C 0.54632 0.51731 0.90419 0.0
C72 C 0.60891 0.46955 0.93055 0.0
N73 N 0.46848 0.54106 0.9235 0.0
C74 C 0.43381 0.61292 0.92414 0.0
H75 H 0.39418 0.47209 0.13484 0.0
H76 H 0.6157 0.62997 0.12161 0.0
H77 H 0.46603 0.48159 -0.00496 0.0
C78 C 0.43411 0.49915 0.11196 0.0
C79 C 0.41788 0.47527 0.06113 0.0
C80 C 0.50708 0.55338 0.13398 0.0
C81 C 0.55954 0.58819 0.10446 0.0
C82 C 0.54341 0.56423 0.05327 0.0
C83 C 0.47431 0.50617 0.03277 0.0
N84 N 0.59818 0.59254 0.02161 0.0
C85 C 0.66517 0.65304 0.03263 0.0
C86 C 0.24896 0.28836 0.00481 0.0
C87 C 0.22952 0.22174 0.00379 0.0
C88 C 0.29727 0.3599 0.01991 0.0
C89 C 0.35206 0.41238 0.03886 0.0
C90 C 0.30243 0.7879 0.95448 0.0
C91 C 0.26328 0.84261 0.96777 0.0
C92 C 0.35403 0.72623 0.94064 0.0
C93 C 0.39631 0.67148 0.93075 0.0
C94 C 0.83315 0.80866 0.01134 0.0
C95 C 0.86693 0.85696 -0.00853 0.0
C96 C 0.7872 0.76072 0.02537 0.0
C97 C 0.72332 0.70377 0.03375 0.0
C98 C 0.8432 0.27572 0.9709 0.0
C99 C 0.88252 0.21715 0.97397 0.0
C100 C 0.78842 0.33665 0.95536 0.0
C101 C 0.73678 0.38153 0.93541 0.0
C102 C 0.74951 0.78889 0.50307 0.0
C103 C 0.73038 0.72225 0.50212 0.0
C104 C 0.79773 0.86041 0.51849 0.0
C105 C 0.85246 0.91271 0.53787 0.0
C106 C 0.80336 0.28763 0.45614 0.0
C107 C 0.76417 0.34253 0.46909 0.0
C108 C 0.85524 0.2261 0.44233 0.0
C109 C 0.89782 0.17165 0.43217 0.0
C110 C 0.33443 0.30959 0.51269 0.0
C111 C 0.36818 0.35803 0.49291 0.0
C112 C 0.28851 0.26148 0.5266 0.0
C113 C 0.22478 0.20426 0.53479 0.0
C114 C 0.34632 0.7775 0.47073 0.0
C115 C 0.38532 0.7188 0.47394 0.0
C116 C 0.29137 0.83831 0.45514 0.0
C117 C 0.2391 0.88278 0.43519 0.0
C118 C 0.08656 0.99545 0.18472 0.0
C119 C 0.09187 1.0023 0.14272 0.0
C120 C 0.09536 0.9911 0.23584 0.0
C121 C 0.1058 0.98899 0.27987 0.0
C122 C 0.05686 0.05916 0.78263 0.0
C123 C 0.05081 0.04707 0.82389 0.0
C124 C 0.04773 0.0673 0.73169 0.0
C125 C 0.03343 0.0648 0.68706 0.0
C126 C 0.59167 0.50071 0.68604 0.0
C127 C 0.59649 0.50694 0.64389 0.0
C128 C 0.60025 0.49581 0.7371 0.0
C129 C 0.60952 0.49229 0.78094 0.0
C130 C 0.55735 0.55785 0.2828 0.0
C131 C 0.5507 0.54582 0.32398 0.0
C132 C 0.54914 0.56649 0.23198 0.0
C133 C 0.53506 0.56452 0.18738 0.0
loop_
_geom_bond_atom_site_label_1
_geom_bond_atom_site_label_2
_geom_bond_distance
_geom_bond_site_symmetry_2
_ccdc_geom_bond_type
O0 Mn1 2.164 1_655 S
O0 C14 1.247 . S
Mn1 O0 2.164 1_455 S
Mn1 O4 2.160 1_545 S
Mn1 O5 2.221 1_556 S
Mn1 O7 2.163 1_556 S
Mn1 O9 2.160 . S
Mn1 O19 2.221 1_445 S
O2 Mn3 2.087 1_545 S
O2 C14 1.256 . S
Mn3 O2 2.087 1_565 S
Mn3 O10 2.089 1_565 S
Mn3 O19 2.290 . S
Mn3 O20 2.251 . S
O4 Mn1 2.160 1_565 S
O4 C15 1.239 1_556 S
O5 Mn1 2.221 1_554 S
O5 Mn6 2.290 . S
O5 C16 1.278 . S
Mn6 O5 2.290 . S
Mn6 O8 2.089 1_545 S
Mn6 O11 2.251 . S
Mn6 O12 2.087 . S
O7 Mn1 2.163 1_554 S
O7 C17 1.244 . S
O8 Mn6 2.089 1_565 S
O8 C15 1.256 . S
O9 Mn1 2.160 . S
O9 C18 1.239 . S
O10 Mn3 2.089 1_545 S
O10 C18 1.256 1_655 S
O11 Mn6 2.251 . S
O11 C16 1.241 . S
O12 Mn6 2.087 . S
O12 C17 1.256 . S
C13 O19 1.278 . S
C13 O20 1.241 . S
C14 O0 1.247 . S
C14 O2 1.256 . S
C15 O4 1.239 1_554 S
C15 O8 1.256 . S
C16 O5 1.278 . S
C16 O11 1.241 . S
C17 O7 1.244 . S
C17 O12 1.256 . S
C18 O9 1.239 . S
C18 O10 1.256 1_455 S
O19 Mn1 2.221 1_665 S
O19 Mn3 2.290 . S
O19 C13 1.278 . S
O20 Mn3 2.251 . S
O20 C13 1.241 . S
O21 Mn22 2.163 . S
O21 C35 1.244 . S
Mn22 O21 2.163 . S
Mn22 O25 2.160 . S
Mn22 O26 2.221 . S
Mn22 O28 2.163 . S
Mn22 O30 2.160 . S
Mn22 O40 2.221 . S
O23 Mn24 2.087 . S
O23 C35 1.256 . S
Mn24 O23 2.087 . S
Mn24 O31 2.089 . S
Mn24 O40 2.290 . S
Mn24 O41 2.251 . S
O25 Mn22 2.160 . S
O25 C36 1.239 . S
O26 Mn22 2.221 . S
O26 Mn27 2.290 . S
O26 C37 1.278 . S
Mn27 O26 2.290 . S
Mn27 O29 2.089 . S
Mn27 O32 2.251 . S
Mn27 O33 2.087 . S
O28 Mn22 2.163 . S
O28 C38 1.244 . S
O29 Mn27 2.089 . S
O29 C36 1.256 . S
O30 Mn22 2.160 . S
O30 C39 1.239 . S
O31 Mn24 2.089 . S
O31 C39 1.256 . S
O32 Mn27 2.251 . S
O32 C37 1.241 . S
O33 Mn27 2.087 . S
O33 C38 1.256 . S
C34 O40 1.278 . S
C34 O41 1.241 . S
C35 O21 1.244 . S
C35 O23 1.256 . S
C36 O25 1.239 . S
C36 O29 1.256 . S
C37 O26 1.278 . S
C37 O32 1.241 . S
C38 O28 1.244 . S
C38 O33 1.256 . S
C39 O30 1.239 . S
C39 O31 1.256 . S
O40 Mn22 2.221 . S
O40 Mn24 2.290 . S
O40 C34 1.278 . S
O41 Mn24 2.251 . S
O41 C34 1.241 . S
H42 C45 0.929 . S
H43 C48 0.929 1_655 S
H44 C50 0.930 . S
C45 H42 0.929 . S
C45 C46 1.398 . S
C45 C47 1.396 . S
C46 C45 1.398 . S
C46 C50 1.407 . S
C47 C45 1.396 . S
C47 C48 1.394 1_565 S
C48 H43 0.929 1_455 S
C48 C47 1.394 1_545 S
C48 C49 1.382 . S
C49 C48 1.382 . S
C49 C50 1.392 1_545 S
C49 N51 1.420 1_455 S
C50 H44 0.930 . S
C50 C46 1.407 . S
C50 C49 1.392 1_565 S
N51 C49 1.420 1_655 S
N51 C52 1.244 . S
C52 N51 1.244 . S
H53 C56 0.929 . S
H54 C59 0.929 . S
H55 C61 0.930 1_565 S
C56 H53 0.929 . S
C56 C57 1.398 . S
C56 C58 1.396 1_565 S
C57 C56 1.398 . S
C57 C61 1.407 1_565 S
C58 C56 1.396 1_545 S
C58 C59 1.394 1_655 S
C59 H54 0.929 . S
C59 C58 1.394 1_455 S
C59 C60 1.382 . S
C60 C59 1.382 . S
C60 C61 1.392 1_455 S
C60 N62 1.420 . S
C61 H55 0.930 1_545 S
C61 C57 1.407 1_545 S
C61 C60 1.392 1_655 S
N62 C60 1.420 . S
N62 C63 1.244 . S
C63 N62 1.244 . S
H64 C67 0.929 . S
H65 C70 0.929 . S
H66 C72 0.930 1_554 S
C67 H64 0.929 . S
C67 C68 1.398 . S
C67 C69 1.396 . S
C68 C67 1.398 . S
C68 C72 1.407 . S
C69 C67 1.396 . S
C69 C70 1.394 . S
C70 H65 0.929 . S
C70 C69 1.394 . S
C70 C71 1.382 . S
C71 C70 1.382 . S
C71 C72 1.392 . S
C71 N73 1.420 . S
C72 H66 0.930 1_556 S
C72 C68 1.407 . S
C72 C71 1.392 . S
N73 C71 1.420 . S
N73 C74 1.244 . S
C74 N73 1.244 . S
H75 C78 0.929 . S
H76 C81 0.929 . S
H77 C83 0.930 1_556 S
C78 H75 0.929 . S
C78 C79 1.398 . S
C78 C80 1.396 . S
C79 C78 1.398 . S
C79 C83 1.407 . S
C80 C78 1.396 . S
C80 C81 1.394 . S
C81 H76 0.929 . S
C81 C80 1.394 . S
C81 C82 1.382 . S
C82 C81 1.382 . S
C82 C83 1.392 . S
C82 N84 1.420 . S
C83 H77 0.930 1_554 S
C83 C79 1.407 . S
C83 C82 1.392 . S
N84 C82 1.420 . S
N84 C85 1.244 . S
C85 N84 1.244 . S
C86 C87 1.170 . S
C86 C88 1.380 . S
C87 C86 1.170 . S
C88 C86 1.380 . S
C88 C89 1.170 . S
C89 C88 1.170 . S
C90 C91 1.170 . S
C90 C92 1.380 1_554 S
C91 C90 1.170 . S
C92 C90 1.380 1_556 S
C92 C93 1.170 . S
C93 C92 1.170 . S
C94 C95 1.170 . S
C94 C96 1.380 . S
C95 C94 1.170 . S
C96 C94 1.380 . S
C96 C97 1.170 . S
C97 C96 1.170 . S
C98 C99 1.170 . S
C98 C100 1.380 . S
C99 C98 1.170 . S
C100 C98 1.380 . S
C100 C101 1.170 . S
C101 C100 1.170 . S
C102 C103 1.170 . S
C102 C104 1.380 . S
C103 C102 1.170 . S
C104 C102 1.380 . S
C104 C105 1.170 . S
C105 C104 1.170 . S
C106 C107 1.170 . S
C106 C108 1.380 . S
C107 C106 1.170 . S
C108 C106 1.380 . S
C108 C109 1.170 . S
C109 C108 1.170 . S
C110 C111 1.170 . S
C110 C112 1.380 . S
C111 C110 1.170 . S
C112 C110 1.380 . S
C112 C113 1.170 . S
C113 C112 1.170 . S
C114 C115 1.170 . S
C114 C116 1.380 . S
C115 C114 1.170 . S
C116 C114 1.380 . S
C116 C117 1.170 . S
C117 C116 1.170 . S
C118 C119 1.170 . S
C118 C120 1.380 . S
C119 C118 1.170 . S
C120 C118 1.380 . S
C120 C121 1.170 . S
C121 C120 1.170 . S
C122 C123 1.170 . S
C122 C124 1.381 1_455 S
C123 C122 1.170 . S
C124 C122 1.381 1_655 S
C124 C125 1.170 . S
C125 C124 1.170 . S
C126 C127 1.170 . S
C126 C128 1.380 . S
C127 C126 1.170 . S
C128 C126 1.380 . S
C128 C129 1.170 . S
C129 C128 1.170 . S
C130 C131 1.170 . S
C130 C132 1.380 . S
C131 C130 1.170 . S
C132 C130 1.380 . S
C132 C133 1.170 . S
C133 C132 1.170 . S
C89 C79 1.457 . S
C87 C16 1.326 . S
C91 C15 1.449 . S
C93 C74 1.424 . S
C95 C13 1.279 1_554 S
C97 C85 1.464 . S
C99 C14 1.421 . S
C101 C68 1.460 . S
C103 C37 1.376 . S
C105 C57 1.481 . S
C107 C36 1.450 . S
C109 C52 1.445 . S
C113 C63 1.448 . S
C111 C34 1.313 . S
C117 C46 1.466 . S
C115 C35 1.447 . S
C119 C17 1.582 1_565 S
C121 C47 1.607 . S
C123 C18 1.378 . S
C125 C58 1.417 . S
C129 C69 1.608 . S
C127 C38 1.558 . S
C131 C39 1.380 . S
C133 C80 1.415 . S
