# Generated by pormake.
# Topology pyr, (3,6)-cn, num edge types: 1
# Building blocks:
#     Node 0, Type 0, BuildingBlock: INOVEN_clean_linker_0, # of connection points: 3
#     Node 1, Type 0, BuildingBlock: INOVEN_clean_linker_0, # of connection points: 3
#     Node 2, Type 0, BuildingBlock: INOVEN_clean_linker_0, # of connection points: 3
#     Node 3, Type 0, BuildingBlock: INOVEN_clean_linker_0, # of connection points: 3
#     Node 4, Type 0, BuildingBlock: INOVEN_clean_linker_0, # of connection points: 3
#     Node 5, Type 0, BuildingBlock: INOVEN_clean_linker_0, # of connection points: 3
#     Node 6, Type 0, BuildingBlock: INOVEN_clean_linker_0, # of connection points: 3
#     Node 7, Type 0, BuildingBlock: INOVEN_clean_linker_0, # of connection points: 3
#     Node 8, Type 1, BuildingBlock: MIFKUJ_clean_sbu_0, # of connection points: 6
#     Node 9, Type 1, BuildingBlock: MIFKUJ_clean_sbu_0, # of connection points: 6
#     Node 10, Type 1, BuildingBlock: MIFKUJ_clean_sbu_0, # of connection points: 6
#     Node 11, Type 1, BuildingBlock: MIFKUJ_clean_sbu_0, # of connection points: 6
#     Edge 12, Type (0, 1), None
#     Edge 13, Type (0, 1), None
#     Edge 14, Type (0, 1), None
#     Edge 15, Type (0, 1), None
#     Edge 16, Type (0, 1), None
#     Edge 17, Type (0, 1), None
#     Edge 18, Type (0, 1), None
#     Edge 19, Type (0, 1), None
#     Edge 20, Type (0, 1), None
#     Edge 21, Type (0, 1), None
#     Edge 22, Type (0, 1), None
#     Edge 23, Type (0, 1), None
#     Edge 24, Type (0, 1), None
#     Edge 25, Type (0, 1), None
#     Edge 26, Type (0, 1), None
#     Edge 27, Type (0, 1), None
#     Edge 28, Type (0, 1), None
#     Edge 29, Type (0, 1), None
#     Edge 30, Type (0, 1), None
#     Edge 31, Type (0, 1), None
#     Edge 32, Type (0, 1), None
#     Edge 33, Type (0, 1), None
#     Edge 34, Type (0, 1), None
#     Edge 35, Type (0, 1), None
# Relax obj value: 0.075
# Max RMSD: 0.198
# Mean RMSD: 0.123
data_MOF--net-pyr--node1-MIFKUJ_clean_sbu_0--node2-INOVEN_clean_linker_0--edge1-none
_symmetry_space_group_name_H-M    P1
_symmetry_Int_Tables_number       1
_symmetry_cell_setting            triclinic
loop_
_symmetry_equiv_pos_as_xyz
'x, y, z'
_cell_length_a     17.93917
_cell_length_b     16.231764
_cell_length_c     17.099158
_cell_angle_alpha  83.068129
_cell_angle_beta   86.84823
_cell_angle_gamma 107.76348
loop_
_atom_site_label
_atom_site_type_symbol
_atom_site_fract_x
_atom_site_fract_y
_atom_site_fract_z
_atom_type_partial_charge
H0 H 0.06278 0.19815 0.32218 0.0
H1 H 0.22028 0.04826 0.36437 0.0
H2 H 0.24221 0.21009 0.13976 0.0
N3 N 0.12849 0.27978 0.18294 0.0
N4 N 0.16894 0.32532 0.12236 0.0
C5 C 0.10963 0.17496 0.30057 0.0
C6 C 0.13643 0.11833 0.35118 0.0
C7 C 0.14871 0.21021 0.22538 0.0
C8 C 0.21193 0.18296 0.1981 0.0
C9 C 0.23716 0.12235 0.24706 0.0
C10 C 0.19951 0.09156 0.32423 0.0
H11 H 0.31795 0.81926 0.63837 0.0
H12 H 0.47994 0.77322 0.80172 0.0
H13 H 0.33246 0.92861 0.85553 0.0
N14 N 0.26215 0.91701 0.71865 0.0
N15 N 0.23313 0.95936 0.76053 0.0
C16 C 0.34345 0.82723 0.6941 0.0
C17 C 0.40215 0.79003 0.71365 0.0
C18 C 0.31806 0.87682 0.74462 0.0
C19 C 0.35115 0.88913 0.81668 0.0
C20 C 0.40922 0.85131 0.83809 0.0
C21 C 0.43442 0.80169 0.7862 0.0
H22 H 0.50165 0.25672 0.85901 0.0
H23 H 0.70355 0.25961 0.98612 0.0
H24 H 0.71978 0.46474 0.7964 0.0
N25 N 0.57411 0.40013 0.756 0.0
N26 N 0.6064 0.47679 0.72311 0.0
C27 C 0.56233 0.28774 0.86905 0.0
C28 C 0.59696 0.2496 0.92917 0.0
C29 C 0.60688 0.36484 0.82036 0.0
C30 C 0.68517 0.40495 0.8338 0.0
C31 C 0.72024 0.36776 0.89339 0.0
C32 C 0.67661 0.28879 0.93981 0.0
H33 H 0.7798 0.55874 0.25973 0.0
H34 H 0.73218 0.72766 0.41638 0.0
H35 H 0.94539 0.81518 0.25857 0.0
N36 N 0.92059 0.66681 0.19571 0.0
N37 N 0.89706 0.6249 0.14023 0.0
C38 C 0.79616 0.62134 0.28124 0.0
C39 C 0.74832 0.63592 0.34256 0.0
C40 C 0.86772 0.68564 0.25083 0.0
C41 C 0.89001 0.76591 0.28112 0.0
C42 C 0.83981 0.78253 0.33939 0.0
C43 C 0.77027 0.71646 0.37017 0.0
H44 H 0.79874 0.97272 0.67453 0.0
H45 H 0.94638 0.8081 0.70471 0.0
H46 H 0.76668 0.79433 0.88867 0.0
N47 N 0.72298 0.92573 0.81548 0.0
N48 N 0.70096 0.91274 0.88743 0.0
C49 C 0.8148 0.92135 0.70929 0.0
C50 C 0.87655 0.89427 0.68067 0.0
C51 C 0.7775 0.88795 0.78493 0.0
C52 C 0.79753 0.82151 0.83053 0.0
C53 C 0.85743 0.79075 0.80204 0.0
C54 C 0.8987 0.82934 0.72723 0.0
H55 H 0.56445 0.19247 0.31135 0.0
H56 H 0.71472 0.05238 0.23118 0.0
H57 H 0.76694 0.18788 0.43339 0.0
N58 N 0.64946 0.25532 0.42794 0.0
N59 N 0.5916 0.28237 0.42185 0.0
C60 C 0.6153 0.17045 0.31808 0.0
C61 C 0.63352 0.1193 0.26438 0.0
C62 C 0.66376 0.19629 0.37844 0.0
C63 C 0.73009 0.16805 0.3865 0.0
C64 C 0.74933 0.11564 0.33374 0.0
C65 C 0.70084 0.09259 0.27232 0.0
H66 H 0.46223 0.80652 0.26299 0.0
H67 H 0.28404 0.79092 0.10152 0.0
H68 H 0.27354 0.56688 0.27001 0.0
N69 N 0.40005 0.63916 0.33669 0.0
N70 N 0.45239 0.68043 0.37502 0.0
C71 C 0.40845 0.76941 0.24101 0.0
C72 C 0.37692 0.80927 0.17929 0.0
C73 C 0.37064 0.68182 0.27407 0.0
C74 C 0.3021 0.63459 0.24454 0.0
C75 C 0.27078 0.67331 0.18226 0.0
C76 C 0.30805 0.76089 0.14985 0.0
H77 H 0.07971 0.29224 0.73175 0.0
H78 H 0.32004 0.35856 0.63017 0.0
H79 H 0.25508 0.52274 0.78122 0.0
N80 N 0.10159 0.43476 0.80228 0.0
N81 N 0.11594 0.48037 0.85687 0.0
C82 C 0.14033 0.33411 0.72499 0.0
C83 C 0.19795 0.31351 0.67869 0.0
C84 C 0.16094 0.4091 0.76293 0.0
C85 C 0.23935 0.46351 0.75411 0.0
C86 C 0.29608 0.44616 0.70499 0.0
C87 C 0.27528 0.37156 0.66748 0.0
Zn88 Zn 0.10439 0.06812 0.60066 0.0
Zn89 Zn 0.92643 0.01271 0.435 0.0
C90 C 0.1795 0.2322 0.642 0.0
O91 O 0.23552 0.21508 0.60062 0.0
C92 C 0.8573 0.86631 0.37169 0.0
O93 O 0.80245 0.88055 0.41734 0.0
O94 O 0.16762 0.00086 0.65686 0.0
O95 O 0.99051 0.98903 0.60321 0.0
O96 O 0.88197 0.94229 0.54348 0.0
C97 C 0.18067 0.00133 0.72919 0.0
O98 O 0.14997 0.04594 0.77311 0.0
O99 O 0.11135 0.17594 0.65231 0.0
C100 C 0.81738 0.08147 0.34347 0.0
O101 O 0.83518 0.03601 0.29096 0.0
O102 O 0.85363 0.08745 0.40583 0.0
O103 O 0.03526 0.06956 0.45951 0.0
O104 O 0.15563 0.10866 0.48767 0.0
O105 O 0.92494 0.92303 0.36157 0.0
C106 C 0.91973 0.93997 0.60453 0.0
C107 C 0.10756 0.09971 0.43546 0.0
Zn108 Zn 0.53456 0.97909 0.01764 0.0
Zn109 Zn 0.43403 0.08248 0.1166 0.0
C110 C 0.44755 0.86808 0.91158 0.0
O111 O 0.4847 0.81551 0.94228 0.0
C112 C 0.58352 0.09584 0.19891 0.0
O113 O 0.6104 0.06606 0.13922 0.0
O114 O 0.62041 0.93194 0.98885 0.0
O115 O 0.58456 0.10868 0.99236 0.0
O116 O 0.48321 0.15725 0.01084 0.0
C117 C 0.64729 0.95162 0.9167 0.0
O118 O 0.62071 0.0034 0.86869 0.0
O119 O 0.45443 0.93945 0.93892 0.0
C120 C 0.30412 0.09326 0.21978 0.0
O121 O 0.32243 0.03173 0.26422 0.0
O122 O 0.34439 0.12662 0.15349 0.0
O123 O 0.38204 0.95152 0.11868 0.0
O124 O 0.49276 0.92194 0.12823 0.0
O125 O 0.51553 0.10604 0.19937 0.0
C126 C 0.55191 0.16736 0.97933 0.0
C127 C 0.41898 0.89941 0.14271 0.0
Zn128 Zn 0.53759 0.49365 0.49416 0.0
Zn129 Zn 0.51007 0.63166 0.59775 0.0
C130 C 0.67465 0.56878 0.37828 0.0
O131 O 0.63686 0.50821 0.33751 0.0
C132 C 0.3757 0.5091 0.68953 0.0
O133 O 0.40779 0.55201 0.74591 0.0
O134 O 0.52814 0.38182 0.44988 0.0
O135 O 0.53557 0.46143 0.61315 0.0
O136 O 0.59804 0.59389 0.6373 0.0
C137 C 0.58098 0.3467 0.46602 0.0
O138 O 0.63323 0.38068 0.5138 0.0
O139 O 0.6447 0.57331 0.44657 0.0
C140 C 0.4278 0.73806 0.65848 0.0
O141 O 0.38243 0.70619 0.60438 0.0
O142 O 0.49129 0.71941 0.66504 0.0
O143 O 0.52321 0.68213 0.48359 0.0
O144 O 0.46134 0.55353 0.44901 0.0
O145 O 0.41 0.52938 0.61961 0.0
C146 C 0.57875 0.51178 0.65562 0.0
C147 C 0.48072 0.6369 0.43739 0.0
Zn148 Zn 0.93097 0.58008 0.8994 0.0
Zn149 Zn 0.08741 0.53817 0.06604 0.0
C150 C 0.80115 0.41512 0.90772 0.0
O151 O 0.84854 0.37351 0.93573 0.0
C152 C 0.19859 0.62118 0.15304 0.0
O153 O 0.14494 0.56219 0.20318 0.0
O154 O 0.93289 0.69353 0.83398 0.0
O155 O 0.93989 0.59239 0.01912 0.0
O156 O 0.00457 0.57492 0.12361 0.0
C157 C 0.87338 0.71713 0.85076 0.0
O158 O 0.8227 0.67147 0.91067 0.0
O159 O 0.82506 0.49784 0.89091 0.0
C160 C 0.151 0.3986 0.08507 0.0
O161 O 0.19889 0.4498 0.02581 0.0
O162 O 0.09406 0.42083 0.11344 0.0
O163 O 0.05721 0.53307 0.95719 0.0
O164 O 0.00854 0.53164 0.84471 0.0
O165 O 0.18887 0.62764 0.0797 0.0
C166 C 0.94982 0.59788 0.09215 0.0
C167 C 0.05925 0.51569 0.88725 0.0
loop_
_geom_bond_atom_site_label_1
_geom_bond_atom_site_label_2
_geom_bond_distance
_geom_bond_site_symmetry_2
_ccdc_geom_bond_type
H0 C5 0.929 . S
H1 C10 0.931 . S
H2 C8 0.930 . S
N3 N4 1.234 . S
N3 C7 1.453 . S
N4 N3 1.234 . S
C5 H0 0.929 . S
C5 C6 1.373 . S
C5 C7 1.368 . S
C6 C5 1.373 . S
C6 C10 1.397 . S
C7 N3 1.453 . S
C7 C5 1.368 . S
C7 C8 1.373 . S
C8 H2 0.930 . S
C8 C7 1.373 . S
C8 C9 1.371 . S
C9 C8 1.371 . S
C9 C10 1.383 . S
C10 H1 0.931 . S
C10 C6 1.397 . S
C10 C9 1.383 . S
H11 C16 0.929 . S
H12 C21 0.931 . S
H13 C19 0.930 . S
N14 N15 1.234 . S
N14 C18 1.453 . S
N15 N14 1.234 . S
C16 H11 0.929 . S
C16 C17 1.373 . S
C16 C18 1.368 . S
C17 C16 1.373 . S
C17 C21 1.397 . S
C18 N14 1.453 . S
C18 C16 1.368 . S
C18 C19 1.373 . S
C19 H13 0.930 . S
C19 C18 1.373 . S
C19 C20 1.371 . S
C20 C19 1.371 . S
C20 C21 1.383 . S
C21 H12 0.931 . S
C21 C17 1.397 . S
C21 C20 1.383 . S
H22 C27 0.929 . S
H23 C32 0.931 . S
H24 C30 0.930 . S
N25 N26 1.234 . S
N25 C29 1.453 . S
N26 N25 1.234 . S
C27 H22 0.929 . S
C27 C28 1.373 . S
C27 C29 1.368 . S
C28 C27 1.373 . S
C28 C32 1.397 . S
C29 N25 1.453 . S
C29 C27 1.368 . S
C29 C30 1.373 . S
C30 H24 0.930 . S
C30 C29 1.373 . S
C30 C31 1.371 . S
C31 C30 1.371 . S
C31 C32 1.383 . S
C32 H23 0.931 . S
C32 C28 1.397 . S
C32 C31 1.383 . S
H33 C38 0.929 . S
H34 C43 0.931 . S
H35 C41 0.930 . S
N36 N37 1.234 . S
N36 C40 1.453 . S
N37 N36 1.234 . S
C38 H33 0.929 . S
C38 C39 1.373 . S
C38 C40 1.368 . S
C39 C38 1.373 . S
C39 C43 1.397 . S
C40 N36 1.453 . S
C40 C38 1.368 . S
C40 C41 1.373 . S
C41 H35 0.930 . S
C41 C40 1.373 . S
C41 C42 1.371 . S
C42 C41 1.371 . S
C42 C43 1.383 . S
C43 H34 0.931 . S
C43 C39 1.397 . S
C43 C42 1.383 . S
H44 C49 0.929 . S
H45 C54 0.931 . S
H46 C52 0.930 . S
N47 N48 1.234 . S
N47 C51 1.453 . S
N48 N47 1.234 . S
C49 H44 0.929 . S
C49 C50 1.373 . S
C49 C51 1.368 . S
C50 C49 1.373 . S
C50 C54 1.397 . S
C51 N47 1.453 . S
C51 C49 1.368 . S
C51 C52 1.373 . S
C52 H46 0.930 . S
C52 C51 1.373 . S
C52 C53 1.371 . S
C53 C52 1.371 . S
C53 C54 1.383 . S
C54 H45 0.931 . S
C54 C50 1.397 . S
C54 C53 1.383 . S
H55 C60 0.929 . S
H56 C65 0.931 . S
H57 C63 0.930 . S
N58 N59 1.234 . S
N58 C62 1.453 . S
N59 N58 1.234 . S
C60 H55 0.929 . S
C60 C61 1.373 . S
C60 C62 1.368 . S
C61 C60 1.373 . S
C61 C65 1.397 . S
C62 N58 1.453 . S
C62 C60 1.368 . S
C62 C63 1.373 . S
C63 H57 0.930 . S
C63 C62 1.373 . S
C63 C64 1.371 . S
C64 C63 1.371 . S
C64 C65 1.383 . S
C65 H56 0.931 . S
C65 C61 1.397 . S
C65 C64 1.383 . S
H66 C71 0.929 . S
H67 C76 0.931 . S
H68 C74 0.930 . S
N69 N70 1.234 . S
N69 C73 1.453 . S
N70 N69 1.234 . S
C71 H66 0.929 . S
C71 C72 1.373 . S
C71 C73 1.368 . S
C72 C71 1.373 . S
C72 C76 1.397 . S
C73 N69 1.453 . S
C73 C71 1.368 . S
C73 C74 1.373 . S
C74 H68 0.930 . S
C74 C73 1.373 . S
C74 C75 1.371 . S
C75 C74 1.371 . S
C75 C76 1.383 . S
C76 H67 0.931 . S
C76 C72 1.397 . S
C76 C75 1.383 . S
H77 C82 0.929 . S
H78 C87 0.931 . S
H79 C85 0.930 . S
N80 N81 1.234 . S
N80 C84 1.453 . S
N81 N80 1.234 . S
C82 H77 0.929 . S
C82 C83 1.373 . S
C82 C84 1.368 . S
C83 C82 1.373 . S
C83 C87 1.397 . S
C84 N80 1.453 . S
C84 C82 1.368 . S
C84 C85 1.373 . S
C85 H79 0.930 . S
C85 C84 1.373 . S
C85 C86 1.371 . S
C86 C85 1.371 . S
C86 C87 1.383 . S
C87 H78 0.931 . S
C87 C83 1.397 . S
C87 C86 1.383 . S
Zn88 O94 1.969 1_545 S
Zn88 O95 1.965 1_445 S
Zn88 O99 2.024 . S
Zn88 O104 1.969 . S
Zn89 O96 1.969 . S
Zn89 O102 1.969 1_565 S
Zn89 O103 1.965 1_665 S
Zn89 O105 2.024 . S
C90 O91 1.229 . S
C90 O99 1.058 . S
O91 C90 1.229 . S
C92 O93 1.229 . S
C92 O105 1.058 . S
O93 C92 1.229 . S
O94 Zn88 1.969 1_565 S
O94 C97 1.267 . S
O95 Zn88 1.965 1_665 S
O95 C106 1.260 . S
O96 Zn89 1.969 . S
O96 C106 1.258 . S
C97 O94 1.267 . S
C97 O98 1.228 . S
O98 C97 1.228 . S
O99 Zn88 2.024 . S
O99 C90 1.058 . S
C100 O101 1.228 . S
C100 O102 1.267 . S
O101 C100 1.228 . S
O102 Zn89 1.969 1_545 S
O102 C100 1.267 . S
O103 Zn89 1.965 1_445 S
O103 C107 1.260 . S
O104 Zn88 1.969 . S
O104 C107 1.258 . S
O105 Zn89 2.024 . S
O105 C92 1.058 . S
C106 O95 1.260 . S
C106 O96 1.258 . S
C107 O103 1.260 . S
C107 O104 1.258 . S
Zn108 O114 1.969 . S
Zn108 O115 1.965 1_565 S
Zn108 O119 2.024 . S
Zn108 O124 1.969 1_556 S
Zn109 O116 1.969 . S
Zn109 O122 1.969 . S
Zn109 O123 1.965 1_545 S
Zn109 O125 2.024 . S
C110 O111 1.229 . S
C110 O119 1.058 . S
O111 C110 1.229 . S
C112 O113 1.229 . S
C112 O125 1.058 . S
O113 C112 1.229 . S
O114 Zn108 1.969 . S
O114 C117 1.267 . S
O115 Zn108 1.965 1_545 S
O115 C126 1.260 . S
O116 Zn109 1.969 . S
O116 C126 1.258 1_554 S
C117 O114 1.267 . S
C117 O118 1.228 . S
O118 C117 1.228 . S
O119 Zn108 2.024 . S
O119 C110 1.058 . S
C120 O121 1.228 . S
C120 O122 1.267 . S
O121 C120 1.228 . S
O122 Zn109 1.969 . S
O122 C120 1.267 . S
O123 Zn109 1.965 1_565 S
O123 C127 1.260 . S
O124 Zn108 1.969 1_554 S
O124 C127 1.258 . S
O125 Zn109 2.024 . S
O125 C112 1.058 . S
C126 O115 1.260 . S
C126 O116 1.258 1_556 S
C127 O123 1.260 . S
C127 O124 1.258 . S
Zn128 O134 1.969 . S
Zn128 O135 1.965 . S
Zn128 O139 2.024 . S
Zn128 O144 1.969 . S
Zn129 O136 1.969 . S
Zn129 O142 1.969 . S
Zn129 O143 1.965 . S
Zn129 O145 2.024 . S
C130 O131 1.229 . S
C130 O139 1.058 . S
O131 C130 1.229 . S
C132 O133 1.229 . S
C132 O145 1.058 . S
O133 C132 1.229 . S
O134 Zn128 1.969 . S
O134 C137 1.267 . S
O135 Zn128 1.965 . S
O135 C146 1.260 . S
O136 Zn129 1.969 . S
O136 C146 1.258 . S
C137 O134 1.267 . S
C137 O138 1.228 . S
O138 C137 1.228 . S
O139 Zn128 2.024 . S
O139 C130 1.058 . S
C140 O141 1.228 . S
C140 O142 1.267 . S
O141 C140 1.228 . S
O142 Zn129 1.969 . S
O142 C140 1.267 . S
O143 Zn129 1.965 . S
O143 C147 1.260 . S
O144 Zn128 1.969 . S
O144 C147 1.258 . S
O145 Zn129 2.024 . S
O145 C132 1.058 . S
C146 O135 1.260 . S
C146 O136 1.258 . S
C147 O143 1.260 . S
C147 O144 1.258 . S
Zn148 O154 1.969 . S
Zn148 O155 1.965 1_556 S
Zn148 O159 2.024 . S
Zn148 O164 1.969 1_655 S
Zn149 O156 1.969 . S
Zn149 O162 1.969 . S
Zn149 O163 1.965 1_554 S
Zn149 O165 2.024 . S
C150 O151 1.229 . S
C150 O159 1.058 . S
O151 C150 1.229 . S
C152 O153 1.229 . S
C152 O165 1.058 . S
O153 C152 1.229 . S
O154 Zn148 1.969 . S
O154 C157 1.267 . S
O155 Zn148 1.965 1_554 S
O155 C166 1.260 . S
O156 Zn149 1.969 . S
O156 C166 1.258 1_455 S
C157 O154 1.267 . S
C157 O158 1.228 . S
O158 C157 1.228 . S
O159 Zn148 2.024 . S
O159 C150 1.058 . S
C160 O161 1.228 . S
C160 O162 1.267 . S
O161 C160 1.228 . S
O162 Zn149 1.969 . S
O162 C160 1.267 . S
O163 Zn149 1.965 1_556 S
O163 C167 1.260 . S
O164 Zn148 1.969 1_455 S
O164 C167 1.258 . S
O165 Zn149 2.024 . S
O165 C152 1.058 . S
C166 O155 1.260 . S
C166 O156 1.258 1_655 S
C167 O163 1.260 . S
C167 O164 1.258 . S
C6 C107 1.818 . S
C20 C110 1.137 . S
C146 N26 1.730 . S
N37 C166 1.854 . S
C120 C9 2.102 . S
C97 N15 1.061 . S
C150 C31 1.830 . S
C130 C39 1.340 . S
N4 C160 1.328 . S
C126 C28 2.091 . S
C42 C92 1.561 . S
C17 C140 1.304 . S
C106 C50 1.639 . S
C61 C112 1.477 . S
N70 C147 2.284 . S
N81 C167 1.779 . S
N48 C117 1.479 . S
C100 C64 2.004 . S
C152 C75 1.660 . S
C132 C86 1.462 . S
C53 C157 1.527 . S
C127 C72 1.596 . S
C90 C83 1.892 . S
N59 C137 1.108 . S
