# Generated by pormake.
# Topology pts, (4,4)-cn, num edge types: 1
# Building blocks:
#     Node 0, Type 0, BuildingBlock: KUFVIS_clean_linker_0, # of connection points: 4
#     Node 1, Type 0, BuildingBlock: KUFVIS_clean_linker_0, # of connection points: 4
#     Node 2, Type 1, BuildingBlock: QUQFOY_clean_sbu_1, # of connection points: 4
#     Node 3, Type 1, BuildingBlock: QUQFOY_clean_sbu_1, # of connection points: 4
#     Edge 4, Type (0, 1), BuildingBlock: CIFDUS_clean_linker_0, # of connection points: 2
#     Edge 5, Type (0, 1), BuildingBlock: CIFDUS_clean_linker_0, # of connection points: 2
#     Edge 6, Type (0, 1), BuildingBlock: CIFDUS_clean_linker_0, # of connection points: 2
#     Edge 7, Type (0, 1), BuildingBlock: CIFDUS_clean_linker_0, # of connection points: 2
#     Edge 8, Type (0, 1), BuildingBlock: CIFDUS_clean_linker_0, # of connection points: 2
#     Edge 9, Type (0, 1), BuildingBlock: CIFDUS_clean_linker_0, # of connection points: 2
#     Edge 10, Type (0, 1), BuildingBlock: CIFDUS_clean_linker_0, # of connection points: 2
#     Edge 11, Type (0, 1), BuildingBlock: CIFDUS_clean_linker_0, # of connection points: 2
# Relax obj value: 0.103
# Max RMSD: 0.273
# Mean RMSD: 0.186
data_MOF--net-pts--node1-QUQFOY_clean_sbu_1--node2-KUFVIS_clean_linker_0--edge1-CIFDUS_clean_linker_0
_symmetry_space_group_name_H-M    P1
_symmetry_Int_Tables_number       1
_symmetry_cell_setting            triclinic
loop_
_symmetry_equiv_pos_as_xyz
'x, y, z'
_cell_length_a     20.568267
_cell_length_b     21.260961
_cell_length_c     35.422411
_cell_angle_alpha  90.25301
_cell_angle_beta   88.703699
_cell_angle_gamma 84.961709
loop_
_atom_site_label
_atom_site_type_symbol
_atom_site_fract_x
_atom_site_fract_y
_atom_site_fract_z
_atom_type_partial_charge
H0 H 0.29924 1.07581 -0.04408 0.0
H1 H 0.4664 0.12498 0.89269 0.0
H2 H 0.47868 0.09118 0.01291 0.0
H3 H 0.56169 0.14829 0.00877 0.0
H4 H 0.73889 0.14863 0.94282 0.0
H5 H 0.56859 0.08913 0.89149 0.0
C6 C 0.35062 0.08377 -0.04505 0.0
C7 C 0.38553 0.08382 -0.01156 0.0
C8 C 0.38027 0.09761 0.92043 0.0
C9 C 0.44552 0.11164 0.91946 0.0
C10 C 0.48318 0.10821 -0.04765 0.0
C11 C 0.45198 0.09446 -0.01305 0.0
C12 C 0.55434 0.11905 -0.04982 0.0
C13 C 0.58719 0.13948 -0.01802 0.0
C14 C 0.65392 0.14891 -0.02029 0.0
C15 C 0.68729 0.14177 0.94481 0.0
C16 C 0.65593 0.12126 0.91298 0.0
C17 C 0.59053 0.10811 0.91605 0.0
H18 H 0.02619 0.80034 0.45007 0.0
H19 H 1.01735 0.62522 0.5078 0.0
H20 H 0.05662 0.62788 0.38712 0.0
H21 H 1.01237 0.53749 0.38765 0.0
H22 H 0.03851 0.36154 0.44607 0.0
H23 H 0.06811 0.53253 0.50442 0.0
C24 C 0.03082 0.74916 0.44958 0.0
C25 C 0.0422 0.7177 0.41502 0.0
C26 C 0.02466 0.71608 0.48332 0.0
C27 C 0.0252 0.64995 0.48178 0.0
C28 C 0.03634 0.61627 0.44724 0.0
C29 C 0.04548 0.65139 0.41392 0.0
C30 C 0.03886 0.54509 0.44633 0.0
C31 C 0.02566 0.51197 0.41305 0.0
C32 C 0.02812 0.4455 0.41227 0.0
C33 C 0.03896 0.41231 0.44609 0.0
C34 C 0.05035 0.44377 0.4799 0.0
C35 C 0.05358 0.50953 0.47912 0.0
O36 O 0.90403 1.0445 0.16493 0.0
Cd37 Cd 0.99284 1.01117 0.18639 0.0
Cd38 Cd 1.01042 0.13606 0.18822 0.0
O39 O 0.92783 0.14252 0.15581 0.0
O40 O 0.98296 0.92118 0.19954 0.0
O41 O 1.00721 0.99288 0.24125 0.0
C42 C 0.99683 0.93514 0.23369 0.0
C43 C 1.00766 0.19779 0.24296 0.0
C44 C 0.88958 0.09929 0.15166 0.0
C45 C 0.11145 1.05278 0.14574 0.0
O46 O 0.09798 0.10669 0.16108 0.0
O47 O 0.07351 1.00927 0.15061 0.0
O48 O 1.01878 0.22156 0.21023 0.0
O49 O 0.99929 0.13828 0.24466 0.0
O50 O 0.94928 0.15145 0.73311 0.0
Cd51 Cd 0.03945 0.14143 0.70579 0.0
Cd52 Cd 1.02027 1.01759 0.71205 0.0
O53 O 0.93169 1.05072 0.73592 0.0
O54 O 0.05231 0.22659 0.68438 0.0
O55 O 0.0504 0.14052 0.64929 0.0
C56 C 0.05595 0.20041 0.65141 0.0
C57 C 0.02706 0.9555 0.65785 0.0
C58 C 0.9136 0.10827 0.74319 0.0
C59 C 0.13216 1.06227 0.75425 0.0
O60 O 0.09904 1.01605 0.74701 0.0
O61 O 0.11783 0.11599 0.73947 0.0
O62 O 1.01285 0.93168 0.69016 0.0
O63 O 0.03658 1.0147 0.65648 0.0
H64 H 0.30698 0.99308 0.00869 0.0
H65 H 0.3839 0.16224 0.04938 0.0
H66 H 0.30922 0.16476 0.10426 0.0
H67 H 0.21313 0.12587 0.13624 0.0
H68 H 0.13684 0.95612 0.09523 0.0
H69 H 0.22036 0.94662 0.04516 0.0
C70 C 0.30803 1.02979 0.02999 0.0
C71 C 0.35025 1.0777 0.02497 0.0
C72 C 0.26456 1.03127 0.06115 0.0
C73 C 0.3519 0.12472 0.05282 0.0
C74 C 0.30883 0.12648 0.08399 0.0
C75 C 0.2153 0.08636 0.11665 0.0
C76 C 0.16807 1.04241 0.11916 0.0
C77 C 0.26352 0.08113 0.08778 0.0
C78 C 0.17224 0.99093 0.09387 0.0
C79 C 0.21991 0.98549 0.06509 0.0
H80 H 0.10246 0.32185 0.49213 0.0
H81 H 1.00784 0.48536 0.55044 0.0
H82 H 1.00696 0.42618 0.60893 0.0
H83 H 0.02499 0.32596 0.64283 0.0
H84 H 0.10634 0.15923 0.58292 0.0
H85 H 0.11829 0.22124 0.52554 0.0
C86 C 0.0808 0.34468 0.51737 0.0
C87 C 0.05514 0.40841 0.51634 0.0
C88 C 0.07725 0.30943 0.55071 0.0
C89 C 0.02925 0.43699 0.55006 0.0
C90 C 0.02788 0.40288 0.58363 0.0
C91 C 0.04575 0.30333 0.61726 0.0
C92 C 0.06486 0.2382 0.61707 0.0
C93 C 0.0507 0.33885 0.58414 0.0
C94 C 0.09102 0.2093 0.58368 0.0
C95 C 0.09799 0.24475 0.55092 0.0
H96 H 0.65351 0.08124 0.04401 0.0
H97 H 0.73952 0.23788 -0.00819 0.0
H98 H 0.81534 0.24169 0.04389 0.0
H99 H 0.86552 0.19191 0.09986 0.0
H100 H 0.78411 1.03012 0.14927 0.0
H101 H 0.69747 1.0375 0.10311 0.0
C102 C 0.68772 0.11726 0.04461 0.0
C103 C 0.69109 0.1592 0.01421 0.0
C104 C 0.73241 0.11775 0.07395 0.0
C105 C 0.73634 0.20497 0.01491 0.0
C106 C 0.77973 0.20701 0.04459 0.0
C107 C 0.82807 0.15906 0.10102 0.0
C108 C 0.83158 0.11025 0.12779 0.0
C109 C 0.77956 0.16234 0.07363 0.0
C110 C 0.78286 1.06782 0.12875 0.0
C111 C 0.73334 1.07193 0.10232 0.0
H112 H 0.08744 0.81864 0.50184 0.0
H113 H 0.95156 0.69344 0.54756 0.0
H114 H 0.94313 0.75447 0.60642 0.0
H115 H 0.97129 0.84633 0.64398 0.0
H116 H 0.09807 0.97643 0.59448 0.0
H117 H 0.11138 0.91149 0.53743 0.0
C118 C 0.05489 0.80504 0.52429 0.0
C119 C 1.01975 0.7516 0.51988 0.0
C120 C 0.04826 0.84162 0.55732 0.0
C121 C 0.97979 0.73383 0.55008 0.0
C122 C 0.97447 0.76909 0.58368 0.0
C123 C 1.00186 0.86026 0.62067 0.0
C124 C 0.03378 0.91597 0.6234 0.0
C125 C 1.0081 0.8234 0.58749 0.0
C126 C 0.07277 0.93392 0.59295 0.0
C127 C 0.08058 0.89672 0.56038 0.0
H128 H 0.30998 1.00559 0.89462 0.0
H129 H 0.36611 0.19124 0.8681 0.0
H130 H 0.29792 0.19478 0.81223 0.0
H131 H 0.2171 0.14766 0.77352 0.0
H132 H 0.16171 0.9613 0.8001 0.0
H133 H 0.2355 0.95518 0.85311 0.0
C134 C 0.30725 1.04668 0.87647 0.0
C135 C 0.34227 0.09831 0.88547 0.0
C136 C 0.26825 1.04822 0.84448 0.0
C137 C 0.33947 0.15095 0.86157 0.0
C138 C 0.30042 0.15303 0.82977 0.0
C139 C 0.22164 0.10541 0.79063 0.0
C140 C 0.18339 1.0553 0.783 0.0
C141 C 0.26388 0.10228 0.82126 0.0
C142 C 0.1904 1.00068 0.80532 0.0
C143 C 0.23236 0.9972 0.8358 0.0
H144 H 0.96993 0.33552 0.40108 0.0
H145 H 0.07274 0.47501 0.34148 0.0
H146 H 0.07219 0.41255 0.28368 0.0
H147 H 0.04929 0.31497 0.25089 0.0
H148 H 0.95651 0.17103 0.31221 0.0
H149 H 0.94875 0.23762 0.36882 0.0
C150 C 0.99307 0.35221 0.37569 0.0
C151 C 1.02182 0.41008 0.3761 0.0
C152 C 0.9953 0.31468 0.34286 0.0
C153 C 0.04937 0.43134 0.34223 0.0
C154 C 0.04984 0.39518 0.30914 0.0
C155 C 0.02726 0.2982 0.27663 0.0
C156 C 1.00365 0.23802 0.27733 0.0
C157 C 0.02396 0.3363 0.30928 0.0
C158 C 0.97548 0.21693 0.31095 0.0
C159 C 0.97078 0.25511 0.3433 0.0
H160 H 0.72004 0.20673 0.87423 0.0
H161 H 0.67394 1.01301 0.87128 0.0
H162 H 0.74423 0.99332 0.81492 0.0
H163 H 0.82689 1.02896 0.77065 0.0
H164 H 0.87201 0.22355 0.77359 0.0
H165 H 0.79282 0.2455 0.82519 0.0
C166 C 0.7251 0.16045 0.86091 0.0
C167 C 0.69284 0.11114 0.87688 0.0
C168 C 0.76522 0.1497 0.82857 0.0
C169 C 0.69864 1.05152 0.85933 0.0
C170 C 0.73885 1.04029 0.82724 0.0
C171 C 0.81862 1.07645 0.78208 0.0
C172 C 0.85619 0.12422 0.76857 0.0
C173 C 0.77352 0.0887 0.81214 0.0
C174 C 0.84419 0.18567 0.78353 0.0
C175 C 0.79917 0.19828 0.81325 0.0
H176 H 0.98105 0.70913 0.34786 0.0
H177 H 0.11999 0.81348 0.40555 0.0
H178 H 0.11801 0.89032 0.35458 0.0
H179 H 0.07069 0.93239 0.29599 0.0
H180 H 0.93522 0.8268 0.2364 0.0
H181 H 0.94168 0.74613 0.28561 0.0
C182 C 1.01192 0.74791 0.34876 0.0
C183 C 0.04995 0.7561 0.38059 0.0
C184 C 1.01027 0.79233 0.31936 0.0
C185 C 0.08962 0.80672 0.38152 0.0
C186 C 0.08837 0.85079 0.35248 0.0
C187 C 0.04259 0.89171 0.29384 0.0
C188 C 1.00179 0.88595 0.26303 0.0
C189 C 0.04757 0.84502 0.32178 0.0
C190 C 0.96668 0.83239 0.26008 0.0
C191 C 0.97043 0.78623 0.28816 0.0
loop_
_geom_bond_atom_site_label_1
_geom_bond_atom_site_label_2
_geom_bond_distance
_geom_bond_site_symmetry_2
_ccdc_geom_bond_type
H0 C6 0.930 . S
H1 C9 0.931 . S
H2 C11 0.931 . S
H3 C13 0.930 . S
H4 C15 0.930 . S
H5 C17 0.930 1_565 S
C6 H0 0.930 . S
C6 C7 1.380 . S
C6 C8 1.394 1_554 S
C7 C6 1.380 . S
C7 C11 1.382 . S
C8 C6 1.394 1_556 S
C8 C9 1.400 . S
C9 H1 0.931 . S
C9 C8 1.400 . S
C9 C10 1.352 1_556 S
C10 C9 1.352 1_554 S
C10 C11 1.438 . S
C10 C12 1.501 . S
C11 H2 0.931 . S
C11 C7 1.382 . S
C11 C10 1.438 . S
C12 C10 1.501 . S
C12 C13 1.384 . S
C12 C17 1.408 1_554 S
C13 H3 0.930 . S
C13 C12 1.384 . S
C13 C14 1.389 . S
C14 C13 1.389 . S
C14 C15 1.426 . S
C15 H4 0.930 . S
C15 C14 1.426 . S
C15 C16 1.344 1_554 S
C16 C15 1.344 1_556 S
C16 C17 1.400 . S
C17 H5 0.930 1_545 S
C17 C12 1.408 1_556 S
C17 C16 1.400 . S
H18 C24 0.930 . S
H19 C27 0.931 . S
H20 C29 0.931 . S
H21 C31 0.930 . S
H22 C33 0.930 . S
H23 C35 0.931 . S
C24 H18 0.930 . S
C24 C25 1.380 . S
C24 C26 1.394 1_455 S
C25 C24 1.380 . S
C25 C29 1.382 . S
C26 C24 1.394 1_655 S
C26 C27 1.400 . S
C27 H19 0.931 . S
C27 C26 1.400 . S
C27 C28 1.375 . S
C28 C27 1.375 . S
C28 C29 1.415 1_655 S
C28 C30 1.501 . S
C29 H20 0.931 . S
C29 C25 1.382 . S
C29 C28 1.415 1_455 S
C30 C28 1.501 . S
C30 C31 1.384 . S
C30 C35 1.408 1_655 S
C31 H21 0.930 . S
C31 C30 1.384 . S
C31 C32 1.389 . S
C32 C31 1.389 . S
C32 C33 1.405 . S
C33 H22 0.930 . S
C33 C32 1.405 . S
C33 C34 1.364 1_655 S
C34 C33 1.364 1_455 S
C34 C35 1.400 . S
C35 H23 0.931 . S
C35 C30 1.408 1_455 S
C35 C34 1.400 . S
O36 Cd37 2.223 1_655 S
O36 C44 1.315 . S
Cd37 O36 2.223 1_455 S
Cd37 O40 2.297 1_455 S
Cd37 O41 2.439 1_455 S
Cd37 O47 2.240 1_565 S
Cd38 O39 2.238 . S
Cd38 O46 2.223 1_655 S
Cd38 O48 2.297 1_655 S
Cd38 O49 2.439 1_655 S
O39 Cd38 2.238 . S
O39 C44 1.280 1_545 S
O40 Cd37 2.297 1_655 S
O40 C42 1.247 . S
O41 Cd37 2.439 1_655 S
O41 C42 1.208 . S
C42 O40 1.247 . S
C42 O41 1.208 . S
C43 O48 1.247 . S
C43 O49 1.208 . S
C44 O36 1.315 . S
C44 O39 1.280 1_565 S
C45 O46 1.315 . S
C45 O47 1.279 . S
O46 Cd38 2.223 1_455 S
O46 C45 1.315 . S
O47 Cd37 2.240 1_545 S
O47 C45 1.279 . S
O48 Cd38 2.297 1_455 S
O48 C43 1.247 . S
O49 Cd38 2.439 1_455 S
O49 C43 1.208 . S
O50 Cd51 2.223 1_655 S
O50 C58 1.315 . S
Cd51 O50 2.223 1_455 S
Cd51 O54 2.297 1_455 S
Cd51 O55 2.439 1_455 S
Cd51 O61 2.244 . S
Cd52 O53 2.240 1_565 S
Cd52 O60 2.223 1_655 S
Cd52 O62 2.297 1_655 S
Cd52 O63 2.439 1_655 S
O53 Cd52 2.240 1_545 S
O53 C58 1.279 . S
O54 Cd51 2.297 1_655 S
O54 C56 1.247 . S
O55 Cd51 2.439 1_655 S
O55 C56 1.208 . S
C56 O54 1.247 . S
C56 O55 1.208 . S
C57 O62 1.247 . S
C57 O63 1.208 . S
C58 O50 1.315 . S
C58 O53 1.279 . S
C59 O60 1.315 . S
C59 O61 1.277 1_565 S
O60 Cd52 2.223 1_455 S
O60 C59 1.315 . S
O61 Cd51 2.244 . S
O61 C59 1.277 1_545 S
O62 Cd52 2.297 1_455 S
O62 C57 1.247 . S
O63 Cd52 2.439 1_455 S
O63 C57 1.208 . S
H64 C70 0.930 . S
H65 C73 0.930 . S
H66 C74 0.930 . S
H67 C75 0.930 . S
H68 C78 0.930 . S
H69 C79 0.930 1_565 S
C70 H64 0.930 . S
C70 C71 1.355 1_565 S
C70 C72 1.415 1_565 S
C71 C70 1.355 1_545 S
C71 C73 1.419 . S
C72 C70 1.415 1_545 S
C72 C77 1.425 . S
C72 C79 1.409 . S
C73 H65 0.930 . S
C73 C71 1.419 . S
C73 C74 1.362 . S
C74 H66 0.930 . S
C74 C73 1.362 . S
C74 C77 1.409 . S
C75 H67 0.930 . S
C75 C76 1.355 . S
C75 C77 1.415 . S
C76 C75 1.355 . S
C76 C78 1.419 . S
C77 C72 1.425 . S
C77 C74 1.409 . S
C77 C75 1.415 . S
C78 H68 0.930 . S
C78 C76 1.419 . S
C78 C79 1.362 . S
C79 H69 0.930 1_545 S
C79 C72 1.409 . S
C79 C78 1.362 . S
H80 C86 0.930 . S
H81 C89 0.930 . S
H82 C90 0.930 . S
H83 C91 0.930 . S
H84 C94 0.930 . S
H85 C95 0.930 . S
C86 H80 0.930 . S
C86 C87 1.355 1_455 S
C86 C88 1.415 . S
C87 C86 1.355 1_655 S
C87 C89 1.419 . S
C88 C86 1.415 . S
C88 C93 1.425 1_455 S
C88 C95 1.409 . S
C89 H81 0.930 . S
C89 C87 1.419 . S
C89 C90 1.362 . S
C90 H82 0.930 . S
C90 C89 1.362 . S
C90 C93 1.409 . S
C91 H83 0.930 . S
C91 C92 1.355 . S
C91 C93 1.415 . S
C92 C91 1.355 . S
C92 C94 1.419 1_655 S
C93 C88 1.425 1_655 S
C93 C90 1.409 . S
C93 C91 1.415 . S
C94 H84 0.930 . S
C94 C92 1.419 1_455 S
C94 C95 1.362 . S
C95 H85 0.930 . S
C95 C88 1.409 . S
C95 C94 1.362 . S
H96 C102 0.930 . S
H97 C105 0.930 . S
H98 C106 0.930 . S
H99 C107 0.930 1_545 S
H100 C110 0.930 . S
H101 C111 0.930 . S
C102 H96 0.930 . S
C102 C103 1.355 1_565 S
C102 C104 1.415 . S
C103 C102 1.355 1_545 S
C103 C105 1.419 . S
C104 C102 1.415 . S
C104 C109 1.425 1_565 S
C104 C111 1.409 . S
C105 H97 0.930 . S
C105 C103 1.419 . S
C105 C106 1.362 . S
C106 H98 0.930 . S
C106 C105 1.362 . S
C106 C109 1.409 . S
C107 H99 0.930 1_565 S
C107 C108 1.355 . S
C107 C109 1.415 1_565 S
C108 C107 1.355 . S
C108 C110 1.419 . S
C109 C104 1.425 1_545 S
C109 C106 1.409 . S
C109 C107 1.415 1_545 S
C110 H100 0.930 . S
C110 C108 1.419 . S
C110 C111 1.362 . S
C111 H101 0.930 . S
C111 C104 1.409 . S
C111 C110 1.362 . S
H112 C118 0.930 . S
H113 C121 0.930 . S
H114 C122 0.930 . S
H115 C123 0.930 . S
H116 C126 0.930 . S
H117 C127 0.930 . S
C118 H112 0.930 . S
C118 C119 1.355 . S
C118 C120 1.415 . S
C119 C118 1.355 . S
C119 C121 1.419 1_455 S
C120 C118 1.415 . S
C120 C125 1.425 . S
C120 C127 1.409 . S
C121 H113 0.930 . S
C121 C119 1.419 1_655 S
C121 C122 1.362 1_655 S
C122 H114 0.930 . S
C122 C121 1.362 1_455 S
C122 C125 1.409 . S
C123 H115 0.930 . S
C123 C124 1.355 . S
C123 C125 1.415 . S
C124 C123 1.355 . S
C124 C126 1.419 . S
C125 C120 1.425 . S
C125 C122 1.409 . S
C125 C123 1.415 . S
C126 H116 0.930 . S
C126 C124 1.419 . S
C126 C127 1.362 . S
C127 H117 0.930 . S
C127 C120 1.409 . S
C127 C126 1.362 . S
H128 C134 0.930 . S
H129 C137 0.930 . S
H130 C138 0.930 . S
H131 C139 0.930 . S
H132 C142 0.930 . S
H133 C143 0.930 . S
C134 H128 0.930 . S
C134 C135 1.355 1_565 S
C134 C136 1.415 . S
C135 C134 1.355 1_545 S
C135 C137 1.419 . S
C136 C134 1.415 . S
C136 C141 1.425 1_565 S
C136 C143 1.409 . S
C137 H129 0.930 . S
C137 C135 1.419 . S
C137 C138 1.362 . S
C138 H130 0.930 . S
C138 C137 1.362 . S
C138 C141 1.409 . S
C139 H131 0.930 . S
C139 C140 1.355 1_545 S
C139 C141 1.415 . S
C140 C139 1.355 1_565 S
C140 C142 1.419 . S
C141 C136 1.425 1_545 S
C141 C138 1.409 . S
C141 C139 1.415 . S
C142 H132 0.930 . S
C142 C140 1.419 . S
C142 C143 1.362 . S
C143 H133 0.930 . S
C143 C136 1.409 . S
C143 C142 1.362 . S
H144 C150 0.930 . S
H145 C153 0.930 . S
H146 C154 0.930 . S
H147 C155 0.930 . S
H148 C158 0.930 . S
H149 C159 0.930 . S
C150 H144 0.930 . S
C150 C151 1.355 1_655 S
C150 C152 1.415 . S
C151 C150 1.355 1_455 S
C151 C153 1.419 . S
C152 C150 1.415 . S
C152 C157 1.425 1_655 S
C152 C159 1.409 . S
C153 H145 0.930 . S
C153 C151 1.419 . S
C153 C154 1.362 . S
C154 H146 0.930 . S
C154 C153 1.362 . S
C154 C157 1.409 . S
C155 H147 0.930 . S
C155 C156 1.355 . S
C155 C157 1.415 . S
C156 C155 1.355 . S
C156 C158 1.419 1_455 S
C157 C152 1.425 1_455 S
C157 C154 1.409 . S
C157 C155 1.415 . S
C158 H148 0.930 . S
C158 C156 1.419 1_655 S
C158 C159 1.362 . S
C159 H149 0.930 . S
C159 C152 1.409 . S
C159 C158 1.362 . S
H160 C166 0.930 . S
H161 C169 0.930 . S
H162 C170 0.930 . S
H163 C171 0.930 1_565 S
H164 C174 0.930 . S
H165 C175 0.930 . S
C166 H160 0.930 . S
C166 C167 1.355 . S
C166 C168 1.415 . S
C167 C166 1.355 . S
C167 C169 1.419 1_545 S
C168 C166 1.415 . S
C168 C173 1.425 . S
C168 C175 1.409 . S
C169 H161 0.930 . S
C169 C167 1.419 1_565 S
C169 C170 1.362 . S
C170 H162 0.930 . S
C170 C169 1.362 . S
C170 C173 1.409 1_565 S
C171 H163 0.930 1_545 S
C171 C172 1.355 . S
C171 C173 1.415 . S
C172 C171 1.355 . S
C172 C174 1.419 . S
C173 C168 1.425 . S
C173 C170 1.409 1_545 S
C173 C171 1.415 . S
C174 H164 0.930 . S
C174 C172 1.419 . S
C174 C175 1.362 . S
C175 H165 0.930 . S
C175 C168 1.409 . S
C175 C174 1.362 . S
H176 C182 0.930 . S
H177 C185 0.930 . S
H178 C186 0.930 . S
H179 C187 0.930 . S
H180 C190 0.930 . S
H181 C191 0.930 . S
C182 H176 0.930 . S
C182 C183 1.355 1_655 S
C182 C184 1.415 . S
C183 C182 1.355 1_455 S
C183 C185 1.419 . S
C184 C182 1.415 . S
C184 C189 1.425 . S
C184 C191 1.409 . S
C185 H177 0.930 . S
C185 C183 1.419 . S
C185 C186 1.362 . S
C186 H178 0.930 . S
C186 C185 1.362 . S
C186 C189 1.409 1_455 S
C187 H179 0.930 . S
C187 C188 1.355 . S
C187 C189 1.415 . S
C188 C187 1.355 . S
C188 C190 1.419 . S
C189 C184 1.425 . S
C189 C186 1.409 1_655 S
C189 C187 1.415 . S
C190 H180 0.930 . S
C190 C188 1.419 . S
C190 C191 1.362 . S
C191 H181 0.930 . S
C191 C184 1.409 . S
C191 C190 1.362 . S
C76 C45 1.657 . S
C71 C7 1.592 . S
C92 C56 1.513 . S
C87 C34 1.547 1_655 S
C108 C44 1.661 . S
C103 C14 1.611 . S
C124 C57 1.569 . S
C119 C26 1.616 1_455 S
C140 C59 1.655 . S
C135 C8 1.613 . S
C156 C43 1.518 . S
C151 C32 1.575 1_455 S
C172 C58 1.672 . S
C167 C16 1.642 . S
C183 C25 1.570 . S
C188 C42 1.558 . S
