# Generated by pormake.
# Topology tsx, (6,3)-cn, num edge types: 1
# Building blocks:
#     Node 0, Type 0, BuildingBlock: JUFBIX_clean_sbu_0, # of connection points: 6
#     Node 1, Type 0, BuildingBlock: JUFBIX_clean_sbu_0, # of connection points: 6
#     Node 2, Type 1, BuildingBlock: INOVEN_clean_linker_0, # of connection points: 3
#     Node 3, Type 1, BuildingBlock: INOVEN_clean_linker_0, # of connection points: 3
#     Node 4, Type 1, BuildingBlock: INOVEN_clean_linker_0, # of connection points: 3
#     Node 5, Type 1, BuildingBlock: INOVEN_clean_linker_0, # of connection points: 3
#     Edge 6, Type (0, 1), BuildingBlock: AJUNOK_clean_linker_0, # of connection points: 2
#     Edge 7, Type (0, 1), BuildingBlock: AJUNOK_clean_linker_0, # of connection points: 2
#     Edge 8, Type (0, 1), BuildingBlock: AJUNOK_clean_linker_0, # of connection points: 2
#     Edge 9, Type (0, 1), BuildingBlock: AJUNOK_clean_linker_0, # of connection points: 2
#     Edge 10, Type (0, 1), BuildingBlock: AJUNOK_clean_linker_0, # of connection points: 2
#     Edge 11, Type (0, 1), BuildingBlock: AJUNOK_clean_linker_0, # of connection points: 2
#     Edge 12, Type (0, 1), BuildingBlock: AJUNOK_clean_linker_0, # of connection points: 2
#     Edge 13, Type (0, 1), BuildingBlock: AJUNOK_clean_linker_0, # of connection points: 2
#     Edge 14, Type (0, 1), BuildingBlock: AJUNOK_clean_linker_0, # of connection points: 2
#     Edge 15, Type (0, 1), BuildingBlock: AJUNOK_clean_linker_0, # of connection points: 2
#     Edge 16, Type (0, 1), BuildingBlock: AJUNOK_clean_linker_0, # of connection points: 2
#     Edge 17, Type (0, 1), BuildingBlock: AJUNOK_clean_linker_0, # of connection points: 2
# Relax obj value: 0.097
# Max RMSD: 0.126
# Mean RMSD: 0.111
data_MOF--net-tsx--node1-JUFBIX_clean_sbu_0--node2-INOVEN_clean_linker_0--edge1-AJUNOK_clean_linker_0
_symmetry_space_group_name_H-M    P1
_symmetry_Int_Tables_number       1
_symmetry_cell_setting            triclinic
loop_
_symmetry_equiv_pos_as_xyz
'x, y, z'
_cell_length_a     14.818019
_cell_length_b     17.621539
_cell_length_c     24.627689
_cell_angle_alpha  91.924775
_cell_angle_beta   98.011501
_cell_angle_gamma 102.57485
loop_
_atom_site_label
_atom_site_type_symbol
_atom_site_fract_x
_atom_site_fract_y
_atom_site_fract_z
_atom_type_partial_charge
Co0 Co 0.07989 0.97248 0.9668 0.0
C1 C 0.97938 1.01565 0.87121 0.0
Co2 Co 0.98705 0.0526 -0.02148 0.0
C3 C 0.17338 0.84019 0.95693 0.0
C4 C 0.21713 0.93674 0.90878 0.0
N5 N 0.16073 0.91254 0.94641 0.0
N6 N 0.23485 0.81941 0.9267 0.0
C7 C 0.26226 0.88 0.89666 0.0
H8 H 0.13593 0.80265 -0.01576 0.0
H9 H 0.22259 0.99147 0.88949 0.0
C10 C 0.08852 1.00875 0.07383 0.0
N11 N 0.90928 0.11564 -0.00377 0.0
C12 C 0.89591 0.18062 -0.02798 0.0
C13 C 0.85637 0.10868 0.03691 0.0
N14 N 0.83743 0.21503 -0.00381 0.0
C15 C 0.81161 0.16951 0.03676 0.0
C16 C 0.90405 0.89385 -0.02051 0.0
O17 O 0.1196 0.96625 0.04165 0.0
O18 O 0.03337 0.05072 0.05446 0.0
O19 O 0.89311 0.96325 -0.01608 0.0
O20 O 0.98195 0.88233 0.96877 0.0
O21 O 0.94255 0.05426 0.90271 0.0
H22 H 0.85095 0.06247 0.06494 0.0
H23 H 0.92729 0.20133 0.93659 0.0
O24 O 0.0386 0.97846 0.89172 0.0
O25 O 0.17738 0.06469 0.96725 0.0
O26 O 0.0806 0.14118 -0.02635 0.0
C27 C 0.16207 0.13279 0.96972 0.0
H28 H 0.31041 0.88221 0.86715 0.0
H29 H 0.76414 0.1797 0.06443 0.0
Co30 Co 0.61327 0.48644 0.47462 0.0
C31 C 0.50677 0.51751 0.37873 0.0
Co32 Co 0.51822 0.56496 0.48542 0.0
C33 C 0.71354 0.3581 0.47359 0.0
C34 C 0.76111 0.45223 0.42427 0.0
N35 N 0.6981 0.42793 0.45834 0.0
N36 N 0.78495 0.33991 0.45105 0.0
C37 C 0.81466 0.3988 0.42011 0.0
H38 H 0.6733 0.3214 0.50018 0.0
H39 H 0.76691 0.50511 0.40271 0.0
C40 C 0.62428 0.53172 0.58127 0.0
N41 N 0.43761 0.62698 0.50031 0.0
C42 C 0.41991 0.68834 0.47284 0.0
C43 C 0.38773 0.62361 0.54233 0.0
N44 N 0.3617 0.72398 0.49627 0.0
C45 C 0.34054 0.68294 0.53976 0.0
C46 C 0.44211 0.40622 0.49334 0.0
O47 O 0.65436 0.48755 0.54984 0.0
O48 O 0.56816 0.57236 0.5612 0.0
O49 O 0.4291 0.47505 0.49678 0.0
O50 O 0.51868 0.39481 0.48037 0.0
O51 O 0.46967 0.55675 0.40972 0.0
H52 H 0.38653 0.58124 0.57314 0.0
H53 H 0.44843 0.70576 0.43587 0.0
O54 O 0.57054 0.48478 0.39934 0.0
O55 O 0.70692 0.58005 0.47104 0.0
O56 O 0.60713 0.65426 0.47479 0.0
C57 C 0.68893 0.64724 0.47038 0.0
H58 H 0.8695 0.40157 0.39492 0.0
H59 H 0.29496 0.69542 0.56795 0.0
H60 H 0.15461 1.01228 0.46945 0.0
H61 H 0.23361 0.9284 0.32173 0.0
H62 H 0.04026 0.07968 0.31321 0.0
N63 N 0.04136 0.09758 0.421 0.0
N64 N 0.95986 0.10028 0.40149 0.0
C65 C 0.14872 1.00982 0.42515 0.0
C66 C 0.19714 0.96314 0.39888 0.0
C67 C 0.09113 0.05116 0.39427 0.0
C68 C 0.08501 0.04775 0.33696 0.0
C69 C 0.13745 1.00475 0.31037 0.0
C70 C 0.19361 0.96263 0.34171 0.0
H71 H 1.0034 0.98637 0.48585 0.0
H72 H 0.85995 0.90265 0.6183 0.0
H73 H 0.0635 0.11994 0.64177 0.0
N74 N 0.1115 0.11581 0.53975 0.0
N75 N 0.15899 0.17439 0.56841 0.0
C76 C 0.99052 0.99548 0.52724 0.0
C77 C 0.92668 0.93786 0.5483 0.0
C78 C 0.04028 0.06185 0.56043 0.0
C79 C 1.02292 0.07083 0.61487 0.0
C80 C 0.95779 1.01351 0.63587 0.0
C81 C 0.90914 0.9479 0.60202 0.0
H82 H 0.61825 0.49511 0.96869 0.0
H83 H 0.74361 0.44296 0.8302 0.0
H84 H 0.53988 0.58369 0.81249 0.0
N85 N 0.50418 0.57957 0.91623 0.0
N86 N 0.43779 0.59561 0.88508 0.0
C87 C 0.62391 0.50121 0.92604 0.0
C88 C 0.68515 0.46331 0.90319 0.0
C89 C 0.57001 0.54428 0.8937 0.0
C90 C 0.58131 0.55127 0.83826 0.0
C91 C 0.64427 0.51549 0.81537 0.0
C92 C 0.69649 0.47216 0.84813 0.0
H93 H 0.47779 0.46478 -0.01142 0.0
H94 H 0.35971 0.38237 0.13019 0.0
H95 H 0.56474 0.59865 0.14399 0.0
N96 N 0.59623 0.59234 0.039 0.0
N97 N 0.62995 0.65961 0.06006 0.0
C98 C 0.47453 0.47283 0.03177 0.0
C99 C 0.41458 0.41588 0.05595 0.0
C100 C 0.53006 0.53859 0.06334 0.0
C101 C 0.52075 0.54905 0.11889 0.0
C102 C 0.45869 0.49315 0.14294 0.0
C103 C 0.40628 0.42658 0.11136 0.0
C104 C 0.31405 0.20142 0.02185 0.0
C105 C 0.2397 0.20159 -0.02022 0.0
C106 C 0.37412 0.27131 0.04431 0.0
C107 C 0.36261 0.34309 0.02463 0.0
H108 H 0.32112 0.14784 0.0406 0.0
H109 H 0.42703 0.26964 0.07911 0.0
S110 S 0.19009 0.3726 0.90793 0.0
N111 N 0.16479 0.27762 0.91459 0.0
N112 N 0.28026 0.40937 0.95585 0.0
C113 C 0.29432 0.34328 -0.02088 0.0
C114 C 0.23194 0.27223 0.95694 0.0
C115 C 0.25385 0.70885 0.87034 0.0
C116 C 0.26447 0.74745 0.92243 0.0
C117 C 0.30667 0.6544 0.86038 0.0
C118 C 0.3729 0.63726 0.90177 0.0
H119 H 0.2092 0.72523 0.83618 0.0
H120 H 0.30063 0.6295 0.81885 0.0
S121 S 0.41668 0.71464 0.04749 0.0
N122 N 0.33746 0.75891 0.01748 0.0
N123 N 0.43757 0.65653 -0.00103 0.0
C124 C 0.37865 0.67069 0.95532 0.0
C125 C 0.32391 0.72584 0.96554 0.0
C126 C 0.75555 0.84875 0.01749 0.0
C127 C 0.83017 0.82968 -0.00587 0.0
C128 C 0.69058 0.79202 0.03861 0.0
C129 C 0.69575 0.71383 0.03601 0.0
H130 H 0.74859 0.90855 0.02132 0.0
H131 H 0.63567 0.80939 0.05739 0.0
S132 S 0.8761 0.63181 -0.02032 0.0
N133 N 0.9049 0.72576 0.97 0.0
N134 N 0.78084 0.61887 0.00916 0.0
C135 C 0.76817 0.69283 0.01189 0.0
C136 C 0.83573 0.75092 -0.009 0.0
C137 C 0.71004 0.28525 -0.01938 0.0
C138 C 0.80392 0.28266 -0.02076 0.0
C139 C 0.67336 0.34647 0.95866 0.0
C140 C 0.72933 0.40712 0.93447 0.0
H141 H 0.6635 0.23784 -0.00354 0.0
H142 H 0.59956 0.3442 0.95813 0.0
S143 S 0.98291 0.43457 0.92923 0.0
N144 N 0.95488 0.35139 0.95845 0.0
N145 N 0.88522 0.46547 0.91595 0.0
C146 C 0.82445 0.40756 0.93574 0.0
C147 C 0.86194 0.34557 0.9584 0.0
C148 C 0.84172 0.72185 0.5179 0.0
C149 C 0.76464 0.71757 0.47678 0.0
C150 C 0.89928 0.79394 0.53799 0.0
C151 C 0.88241 0.86345 0.51677 0.0
H152 H 0.85244 0.67021 0.53821 0.0
H153 H 0.95342 0.79585 0.57281 0.0
S154 S 0.70374 0.88103 0.40002 0.0
N155 N 0.68329 0.7868 0.40957 0.0
N156 N 0.79411 0.92276 0.44647 0.0
C157 C 0.81244 0.85913 0.47151 0.0
C158 C 0.7526 0.78582 0.45172 0.0
C159 C 0.91406 0.275 0.47362 0.0
C160 C 0.81956 0.27007 0.45277 0.0
C161 C 0.9593 0.21634 0.46025 0.0
C162 C 0.91136 0.15144 0.42471 0.0
H163 H 0.95467 0.32731 0.49716 0.0
H164 H 0.03349 0.22485 0.47446 0.0
S165 S 0.66212 0.10891 0.36271 0.0
N166 N 0.67834 0.19315 0.39843 0.0
N167 N 0.76367 0.08311 0.37237 0.0
C168 C 0.81574 0.14372 0.40652 0.0
C169 C 0.76953 0.20294 0.42079 0.0
C170 C 0.3337 0.27341 0.48108 0.0
C171 C 0.37384 0.34333 0.51299 0.0
C172 C 0.26273 0.21709 0.49882 0.0
C173 C 0.23132 0.22904 0.54933 0.0
H174 H 0.35537 0.26323 0.44175 0.0
H175 H 0.23246 0.16451 0.47293 0.0
S176 S 0.32093 0.39851 0.64978 0.0
N177 N 0.3814 0.41889 0.59859 0.0
N178 N 0.24952 0.3127 0.6318 0.0
C179 C 0.27352 0.29721 0.58201 0.0
C180 C 0.34442 0.35454 0.56391 0.0
C181 C 0.23172 0.79134 0.48056 0.0
C182 C 0.32505 0.78909 0.47688 0.0
C183 C 0.19208 0.85044 0.45757 0.0
C184 C 0.24445 0.90909 0.43004 0.0
H185 H 0.1879 0.74538 0.49936 0.0
H186 H 0.11886 0.84831 0.45922 0.0
S187 S 0.49495 0.93728 0.41698 0.0
N188 N 0.47172 0.85652 0.44959 0.0
N189 N 0.39598 0.96661 0.40532 0.0
C190 C 0.33882 0.90998 0.42853 0.0
C191 C 0.37947 0.85019 0.4522 0.0
C192 C 0.12475 0.07589 0.16681 0.0
C193 C 0.11121 1.00697 0.13355 0.0
C194 C 0.13636 0.07475 0.22402 0.0
C195 C 0.13271 1.00436 0.2499 0.0
H196 H 0.1254 0.131 0.14843 0.0
H197 H 0.14688 0.12935 0.24815 0.0
S198 S 0.09572 0.80751 0.18018 0.0
N199 N 0.0954 0.86672 0.12964 0.0
N200 N 0.11296 0.86365 0.23743 0.0
C201 C 0.12034 0.93501 0.21688 0.0
C202 C 0.1105 0.93654 0.15856 0.0
C203 C 0.96707 0.94861 0.78021 0.0
C204 C 0.95856 1.01446 0.81109 0.0
C205 C 0.96359 0.94859 0.72346 0.0
C206 C 0.9517 1.01454 0.69524 0.0
H207 H 0.97958 0.89726 0.8003 0.0
H208 H 0.97412 0.8974 0.70181 0.0
S209 S 0.91992 0.20019 0.75661 0.0
N210 N 0.93312 0.14619 0.80947 0.0
N211 N 0.92612 0.14607 0.7017 0.0
C212 C 0.93958 0.07999 0.7252 0.0
C213 C 0.94256 0.07981 0.78341 0.0
C214 C 0.65336 0.5957 0.67526 0.0
C215 C 0.64337 0.52829 0.64093 0.0
C216 C 0.65772 0.59152 0.73211 0.0
C217 C 0.65038 0.51958 0.75617 0.0
H218 H 0.6558 0.65169 0.65791 0.0
H219 H 0.66453 0.64466 0.75729 0.0
S220 S 0.6189 0.32581 0.68309 0.0
N221 N 0.62591 0.3878 0.63426 0.0
N222 N 0.63039 0.37927 0.74103 0.0
C223 C 0.6417 0.45187 0.72216 0.0
C224 C 0.63903 0.45641 0.66445 0.0
C225 C 0.48633 0.44175 0.29025 0.0
C226 C 0.47958 0.51002 0.31896 0.0
C227 C 0.47537 0.43599 0.2331 0.0
C228 C 0.45807 0.49857 0.20265 0.0
H229 H 0.50304 0.3931 0.31221 0.0
H230 H 0.48468 0.38334 0.21274 0.0
S231 S 0.42746 0.68801 0.25809 0.0
N232 N 0.44911 0.63988 0.31309 0.0
N233 N 0.42869 0.62909 0.20468 0.0
C234 C 0.44729 0.56612 0.2306 0.0
C235 C 0.45759 0.57172 0.2891 0.0
loop_
_geom_bond_atom_site_label_1
_geom_bond_atom_site_label_2
_geom_bond_distance
_geom_bond_site_symmetry_2
_ccdc_geom_bond_type
Co0 N5 2.052 1_554 S
Co0 O17 2.021 . S
Co0 O20 2.062 1_455 S
Co0 O24 2.117 1_554 S
Co0 O25 2.020 1_565 S
C1 O21 1.267 . S
C1 O24 1.253 1_645 S
Co2 N11 2.057 1_556 S
Co2 O18 2.117 1_556 S
Co2 O19 2.020 1_545 S
Co2 O21 2.021 . S
Co2 O26 2.062 1_656 S
C3 N5 1.306 1_554 S
C3 N6 1.347 . S
C3 H8 0.931 . S
C4 N5 1.390 . S
C4 C7 1.350 . S
C4 H9 0.930 . S
N5 Co0 2.052 1_556 S
N5 C3 1.306 1_556 S
N5 C4 1.390 . S
N6 C3 1.347 . S
N6 C7 1.373 1_554 S
C7 C4 1.350 . S
C7 N6 1.373 1_556 S
C7 H28 0.931 . S
H8 C3 0.931 . S
H9 C4 0.930 . S
C10 O17 1.259 1_545 S
C10 O18 1.258 1_455 S
N11 Co2 2.057 1_554 S
N11 C12 1.316 1_554 S
N11 C13 1.375 . S
C12 N11 1.316 1_556 S
C12 N14 1.347 1_556 S
C12 H23 0.931 . S
C13 N11 1.375 . S
C13 C15 1.350 . S
C13 H22 0.930 . S
N14 C12 1.347 1_554 S
N14 C15 1.373 . S
C15 C13 1.350 . S
C15 N14 1.373 . S
C15 H29 0.931 . S
C16 O19 1.256 1_554 S
C16 O20 1.255 . S
O17 Co0 2.021 . S
O17 C10 1.259 1_565 S
O18 Co2 2.117 1_554 S
O18 C10 1.258 1_655 S
O19 Co2 2.020 1_565 S
O19 C16 1.256 1_556 S
O20 Co0 2.062 1_655 S
O20 C16 1.255 . S
O21 C1 1.267 . S
O21 Co2 2.021 . S
H22 C13 0.930 . S
H23 C12 0.931 . S
O24 Co0 2.117 1_556 S
O24 C1 1.253 1_465 S
O25 Co0 2.020 1_545 S
O25 C27 1.256 . S
O26 Co2 2.062 1_454 S
O26 C27 1.255 . S
C27 O25 1.256 . S
C27 O26 1.255 . S
H28 C7 0.931 . S
H29 C15 0.931 . S
Co30 N35 2.057 . S
Co30 O47 2.021 . S
Co30 O50 2.062 . S
Co30 O54 2.117 . S
Co30 O55 2.020 . S
C31 O51 1.259 . S
C31 O54 1.258 . S
Co32 N41 2.057 . S
Co32 O48 2.117 . S
Co32 O49 2.020 . S
Co32 O51 2.021 . S
Co32 O56 2.062 . S
C33 N35 1.316 . S
C33 N36 1.347 . S
C33 H38 0.931 . S
C34 N35 1.375 . S
C34 C37 1.350 . S
C34 H39 0.930 . S
N35 Co30 2.057 . S
N35 C33 1.316 . S
N35 C34 1.375 . S
N36 C33 1.347 . S
N36 C37 1.373 . S
C37 C34 1.350 . S
C37 N36 1.373 . S
C37 H58 0.931 . S
H38 C33 0.931 . S
H39 C34 0.930 . S
C40 O47 1.259 . S
C40 O48 1.258 . S
N41 Co32 2.057 . S
N41 C42 1.316 . S
N41 C43 1.375 . S
C42 N41 1.316 . S
C42 N44 1.347 . S
C42 H53 0.931 . S
C43 N41 1.375 . S
C43 C45 1.350 . S
C43 H52 0.930 . S
N44 C42 1.347 . S
N44 C45 1.373 . S
C45 C43 1.350 . S
C45 N44 1.373 . S
C45 H59 0.931 . S
C46 O49 1.256 . S
C46 O50 1.255 . S
O47 Co30 2.021 . S
O47 C40 1.259 . S
O48 Co32 2.117 . S
O48 C40 1.258 . S
O49 Co32 2.020 . S
O49 C46 1.256 . S
O50 Co30 2.062 . S
O50 C46 1.255 . S
O51 C31 1.259 . S
O51 Co32 2.021 . S
H52 C43 0.930 . S
H53 C42 0.931 . S
O54 Co30 2.117 . S
O54 C31 1.258 . S
O55 Co30 2.020 . S
O55 C57 1.256 . S
O56 Co32 2.062 . S
O56 C57 1.255 . S
C57 O55 1.256 . S
C57 O56 1.255 . S
H58 C37 0.931 . S
H59 C45 0.931 . S
H60 C65 0.929 . S
H61 C70 0.931 . S
H62 C68 0.930 1_655 S
N63 N64 1.234 . S
N63 C67 1.453 1_655 S
N64 N63 1.234 . S
C65 H60 0.929 . S
C65 C66 1.373 . S
C65 C67 1.368 1_565 S
C66 C65 1.373 . S
C66 C70 1.397 . S
C67 N63 1.453 1_455 S
C67 C65 1.368 1_545 S
C67 C68 1.373 . S
C68 H62 0.930 1_455 S
C68 C67 1.373 . S
C68 C69 1.371 1_545 S
C69 C68 1.371 1_565 S
C69 C70 1.383 . S
C70 H61 0.931 . S
C70 C66 1.397 . S
C70 C69 1.383 . S
H71 C76 0.929 . S
H72 C81 0.931 . S
H73 C79 0.930 . S
N74 N75 1.234 . S
N74 C78 1.453 . S
N75 N74 1.234 . S
C76 H71 0.929 . S
C76 C77 1.373 . S
C76 C78 1.368 1_665 S
C77 C76 1.373 . S
C77 C81 1.397 . S
C78 N74 1.453 . S
C78 C76 1.368 1_445 S
C78 C79 1.373 . S
C79 H73 0.930 . S
C79 C78 1.373 . S
C79 C80 1.371 1_445 S
C80 C79 1.371 1_665 S
C80 C81 1.383 . S
C81 H72 0.931 . S
C81 C77 1.397 . S
C81 C80 1.383 . S
H82 C87 0.929 1_554 S
H83 C92 0.931 . S
H84 C90 0.930 . S
N85 N86 1.240 . S
N85 C89 1.466 . S
N86 N85 1.240 . S
C87 H82 0.929 1_556 S
C87 C88 1.373 . S
C87 C89 1.368 . S
C88 C87 1.373 . S
C88 C92 1.397 . S
C89 N85 1.466 . S
C89 C87 1.368 . S
C89 C90 1.373 . S
C90 H84 0.930 . S
C90 C89 1.373 . S
C90 C91 1.371 . S
C91 C90 1.371 . S
C91 C92 1.383 . S
C92 H83 0.931 . S
C92 C88 1.397 . S
C92 C91 1.383 . S
H93 C98 0.929 1_556 S
H94 C103 0.931 . S
H95 C101 0.930 . S
N96 N97 1.234 . S
N96 C100 1.453 . S
N97 N96 1.234 . S
C98 H93 0.929 1_554 S
C98 C99 1.373 . S
C98 C100 1.368 . S
C99 C98 1.373 . S
C99 C103 1.397 . S
C100 N96 1.453 . S
C100 C98 1.368 . S
C100 C101 1.373 . S
C101 H95 0.930 . S
C101 C100 1.373 . S
C101 C102 1.371 . S
C102 C101 1.371 . S
C102 C103 1.383 . S
C103 H94 0.931 . S
C103 C99 1.397 . S
C103 C102 1.383 . S
C104 C105 1.369 . S
C104 C106 1.419 . S
C104 H108 0.930 . S
C105 C104 1.369 . S
C105 C114 1.429 1_554 S
C106 C104 1.419 . S
C106 C107 1.363 . S
C106 H109 0.929 . S
C107 C106 1.363 . S
C107 C113 1.428 1_554 S
H108 C104 0.930 . S
H109 C106 0.929 . S
S110 N111 1.613 . S
S110 N112 1.610 . S
N111 S110 1.613 . S
N111 C114 1.350 . S
N112 S110 1.610 . S
N112 C113 1.351 . S
C113 C107 1.428 1_556 S
C113 N112 1.351 . S
C113 C114 1.434 . S
C114 C105 1.429 1_556 S
C114 N111 1.350 . S
C114 C113 1.434 . S
C115 C116 1.369 . S
C115 C117 1.419 1_554 S
C115 H119 0.929 . S
C116 C115 1.369 . S
C116 C125 1.429 . S
C117 C115 1.419 1_556 S
C117 C118 1.363 1_556 S
C117 H120 0.929 . S
C118 C117 1.363 1_554 S
C118 C124 1.428 . S
H119 C115 0.929 . S
H120 C117 0.929 . S
S121 N122 1.613 . S
S121 N123 1.610 . S
N122 S121 1.613 . S
N122 C125 1.350 . S
N123 S121 1.610 . S
N123 C124 1.351 . S
C124 C118 1.428 . S
C124 N123 1.351 . S
C124 C125 1.434 . S
C125 C116 1.429 . S
C125 N122 1.350 . S
C125 C124 1.434 . S
C126 C127 1.369 1_556 S
C126 C128 1.419 . S
C126 H130 0.930 . S
C127 C126 1.369 1_554 S
C127 C136 1.429 . S
C128 C126 1.419 . S
C128 C129 1.363 1_556 S
C128 H131 0.929 . S
C129 C128 1.363 1_554 S
C129 C135 1.428 . S
H130 C126 0.930 . S
H131 C128 0.929 . S
S132 N133 1.613 . S
S132 N134 1.610 . S
N133 S132 1.613 . S
N133 C136 1.350 . S
N134 S132 1.610 . S
N134 C135 1.351 . S
C135 C129 1.428 . S
C135 N134 1.351 . S
C135 C136 1.434 . S
C136 C127 1.429 . S
C136 N133 1.350 . S
C136 C135 1.434 . S
C137 C138 1.369 . S
C137 C139 1.419 . S
C137 H141 0.930 . S
C138 C137 1.369 . S
C138 C147 1.429 . S
C139 C137 1.419 . S
C139 C140 1.363 . S
C139 H142 0.929 . S
C140 C139 1.363 . S
C140 C146 1.428 . S
H141 C137 0.930 . S
H142 C139 0.929 . S
S143 N144 1.613 . S
S143 N145 1.610 . S
N144 S143 1.613 . S
N144 C147 1.350 . S
N145 S143 1.610 . S
N145 C146 1.351 . S
C146 C140 1.428 . S
C146 N145 1.351 . S
C146 C147 1.434 . S
C147 C138 1.429 . S
C147 N144 1.350 . S
C147 C146 1.434 . S
C148 C149 1.369 . S
C148 C150 1.419 . S
C148 H152 0.930 . S
C149 C148 1.369 . S
C149 C158 1.429 . S
C150 C148 1.419 . S
C150 C151 1.363 . S
C150 H153 0.929 . S
C151 C150 1.363 . S
C151 C157 1.428 . S
H152 C148 0.930 . S
H153 C150 0.929 . S
S154 N155 1.613 . S
S154 N156 1.610 . S
N155 S154 1.613 . S
N155 C158 1.350 . S
N156 S154 1.610 . S
N156 C157 1.351 . S
C157 C151 1.428 . S
C157 N156 1.351 . S
C157 C158 1.434 . S
C158 C149 1.429 . S
C158 N155 1.350 . S
C158 C157 1.434 . S
C159 C160 1.369 . S
C159 C161 1.419 . S
C159 H163 0.930 . S
C160 C159 1.369 . S
C160 C169 1.429 . S
C161 C159 1.419 . S
C161 C162 1.363 . S
C161 H164 0.929 . S
C162 C161 1.363 . S
C162 C168 1.428 . S
H163 C159 0.930 . S
H164 C161 0.929 . S
S165 N166 1.613 . S
S165 N167 1.610 . S
N166 S165 1.613 . S
N166 C169 1.350 . S
N167 S165 1.610 . S
N167 C168 1.351 . S
C168 C162 1.428 . S
C168 N167 1.351 . S
C168 C169 1.434 . S
C169 C160 1.429 . S
C169 N166 1.350 . S
C169 C168 1.434 . S
C170 C171 1.369 . S
C170 C172 1.419 . S
C170 H174 0.930 . S
C171 C170 1.369 . S
C171 C180 1.429 . S
C172 C170 1.419 . S
C172 C173 1.363 . S
C172 H175 0.929 . S
C173 C172 1.363 . S
C173 C179 1.428 . S
H174 C170 0.930 . S
H175 C172 0.929 . S
S176 N177 1.613 . S
S176 N178 1.610 . S
N177 S176 1.613 . S
N177 C180 1.350 . S
N178 S176 1.610 . S
N178 C179 1.351 . S
C179 C173 1.428 . S
C179 N178 1.351 . S
C179 C180 1.434 . S
C180 C171 1.429 . S
C180 N177 1.350 . S
C180 C179 1.434 . S
C181 C182 1.369 . S
C181 C183 1.419 . S
C181 H185 0.930 . S
C182 C181 1.369 . S
C182 C191 1.429 . S
C183 C181 1.419 . S
C183 C184 1.363 . S
C183 H186 0.929 . S
C184 C183 1.363 . S
C184 C190 1.428 . S
H185 C181 0.930 . S
H186 C183 0.929 . S
S187 N188 1.613 . S
S187 N189 1.610 . S
N188 S187 1.613 . S
N188 C191 1.350 . S
N189 S187 1.610 . S
N189 C190 1.351 . S
C190 C184 1.428 . S
C190 N189 1.351 . S
C190 C191 1.434 . S
C191 C182 1.429 . S
C191 N188 1.350 . S
C191 C190 1.434 . S
C192 C193 1.365 1_545 S
C192 C194 1.419 . S
C192 H196 0.930 1_455 S
C193 C192 1.365 1_565 S
C193 C202 1.434 . S
C194 C192 1.419 . S
C194 C195 1.363 1_545 S
C194 H197 0.929 1_455 S
C195 C194 1.363 1_565 S
C195 C201 1.428 . S
H196 C192 0.930 1_655 S
H197 C194 0.929 1_655 S
S198 N199 1.613 . S
S198 N200 1.610 . S
N199 S198 1.613 . S
N199 C202 1.350 . S
N200 S198 1.610 . S
N200 C201 1.351 . S
C201 C195 1.428 . S
C201 N200 1.351 . S
C201 C202 1.434 . S
C202 C193 1.434 . S
C202 N199 1.350 . S
C202 C201 1.434 . S
C203 C204 1.369 1_565 S
C203 C205 1.419 . S
C203 H207 0.930 . S
C204 C203 1.369 1_545 S
C204 C213 1.429 . S
C205 C203 1.419 . S
C205 C206 1.372 . S
C205 H208 0.929 . S
C206 C205 1.372 . S
C206 C212 1.419 1_565 S
H207 C203 0.930 . S
H208 C205 0.929 . S
S209 N210 1.613 . S
S209 N211 1.610 . S
N210 S209 1.613 . S
N210 C213 1.350 . S
N211 S209 1.610 . S
N211 C212 1.351 . S
C212 C206 1.419 1_545 S
C212 N211 1.351 . S
C212 C213 1.434 . S
C213 C204 1.429 . S
C213 N210 1.350 . S
C213 C212 1.434 . S
C214 C215 1.369 . S
C214 C216 1.419 . S
C214 H218 0.930 . S
C215 C214 1.369 . S
C215 C224 1.429 . S
C216 C214 1.419 . S
C216 C217 1.363 . S
C216 H219 0.929 . S
C217 C216 1.363 . S
C217 C223 1.428 . S
H218 C214 0.930 . S
H219 C216 0.929 . S
S220 N221 1.613 . S
S220 N222 1.610 . S
N221 S220 1.613 . S
N221 C224 1.350 . S
N222 S220 1.610 . S
N222 C223 1.351 . S
C223 C217 1.428 . S
C223 N222 1.351 . S
C223 C224 1.434 . S
C224 C215 1.429 . S
C224 N221 1.350 . S
C224 C223 1.434 . S
C225 C226 1.369 . S
C225 C227 1.419 . S
C225 H229 0.930 . S
C226 C225 1.369 . S
C226 C235 1.429 . S
C227 C225 1.419 . S
C227 C228 1.363 . S
C227 H230 0.929 . S
C228 C227 1.363 . S
C228 C234 1.428 . S
H229 C225 0.930 . S
H230 C227 0.929 . S
S231 N232 1.613 . S
S231 N233 1.610 . S
N232 S231 1.613 . S
N232 C235 1.350 . S
N233 S231 1.610 . S
N233 C234 1.351 . S
C234 C228 1.428 . S
C234 N233 1.351 . S
C234 C235 1.434 . S
C235 C226 1.429 . S
C235 N232 1.350 . S
C235 C234 1.434 . S
C107 C99 1.474 . S
C105 C27 1.501 . S
C116 N6 1.395 . S
C118 N86 1.419 1_554 S
C127 C16 1.475 . S
C129 N97 1.423 . S
C138 N14 1.450 1_556 S
C140 C88 1.452 . S
C149 C57 1.500 . S
C151 C77 1.475 . S
C160 N36 1.394 . S
C162 N64 1.417 . S
C173 N75 1.419 . S
C171 C46 1.473 . S
C184 C66 1.449 . S
C182 N44 1.453 . S
C193 C10 1.471 1_565 S
C195 C69 1.470 . S
C204 C1 1.543 . S
C206 C80 1.543 . S
C217 C91 1.470 . S
C215 C40 1.471 . S
C226 C31 1.545 . S
C228 C102 1.542 . S
