# Generated by pormake.
# Topology tsx, (6,3)-cn, num edge types: 1
# Building blocks:
#     Node 0, Type 0, BuildingBlock: LEVNOQ01_clean_sbu_1, # of connection points: 6
#     Node 1, Type 0, BuildingBlock: LEVNOQ01_clean_sbu_1, # of connection points: 6
#     Node 2, Type 1, BuildingBlock: INOVEN_clean_linker_0, # of connection points: 3
#     Node 3, Type 1, BuildingBlock: INOVEN_clean_linker_0, # of connection points: 3
#     Node 4, Type 1, BuildingBlock: INOVEN_clean_linker_0, # of connection points: 3
#     Node 5, Type 1, BuildingBlock: INOVEN_clean_linker_0, # of connection points: 3
#     Edge 6, Type (0, 1), BuildingBlock: OJICUG_clean_linker_0, # of connection points: 2
#     Edge 7, Type (0, 1), BuildingBlock: OJICUG_clean_linker_0, # of connection points: 2
#     Edge 8, Type (0, 1), BuildingBlock: OJICUG_clean_linker_0, # of connection points: 2
#     Edge 9, Type (0, 1), BuildingBlock: OJICUG_clean_linker_0, # of connection points: 2
#     Edge 10, Type (0, 1), BuildingBlock: OJICUG_clean_linker_0, # of connection points: 2
#     Edge 11, Type (0, 1), BuildingBlock: OJICUG_clean_linker_0, # of connection points: 2
#     Edge 12, Type (0, 1), BuildingBlock: OJICUG_clean_linker_0, # of connection points: 2
#     Edge 13, Type (0, 1), BuildingBlock: OJICUG_clean_linker_0, # of connection points: 2
#     Edge 14, Type (0, 1), BuildingBlock: OJICUG_clean_linker_0, # of connection points: 2
#     Edge 15, Type (0, 1), BuildingBlock: OJICUG_clean_linker_0, # of connection points: 2
#     Edge 16, Type (0, 1), BuildingBlock: OJICUG_clean_linker_0, # of connection points: 2
#     Edge 17, Type (0, 1), BuildingBlock: OJICUG_clean_linker_0, # of connection points: 2
# Relax obj value: 0.093
# Max RMSD: 0.136
# Mean RMSD: 0.103
data_MOF--net-tsx--node1-LEVNOQ01_clean_sbu_1--node2-INOVEN_clean_linker_0--edge1-OJICUG_clean_linker_0
_symmetry_space_group_name_H-M    P1
_symmetry_Int_Tables_number       1
_symmetry_cell_setting            triclinic
loop_
_symmetry_equiv_pos_as_xyz
'x, y, z'
_cell_length_a     13.123748
_cell_length_b     17.130136
_cell_length_c     26.595171
_cell_angle_alpha  96.98277
_cell_angle_beta   103.48535
_cell_angle_gamma 91.699105
loop_
_atom_site_label
_atom_site_type_symbol
_atom_site_fract_x
_atom_site_fract_y
_atom_site_fract_z
_atom_type_partial_charge
O0 O 0.25979 0.01297 0.08844 0.0
Mg1 Mg 0.30507 0.01184 0.01789 0.0
O2 O 0.08769 0.00116 0.054 0.0
Mg3 Mg 0.06297 0.00056 -0.03648 0.0
O4 O 0.21022 0.08228 -0.02611 0.0
O5 O 0.38334 0.10727 0.00257 0.0
O6 O 0.0448 -0.00015 0.87506 0.0
O7 O 0.97586 0.12203 -0.03362 0.0
Mg8 Mg 0.83456 -0.00698 0.91184 0.0
O9 O 0.91642 0.91472 0.95497 0.0
O10 O 0.87544 0.0085 0.84124 0.0
O11 O 0.80758 0.09398 -0.04218 0.0
O12 O 0.74625 0.89493 0.91319 0.0
C13 C 0.24068 0.85621 -0.04088 0.0
C14 C 0.16628 0.00614 0.0935 0.0
C15 C 0.29282 0.129 -0.02043 0.0
C16 C 0.96912 0.00699 0.83643 0.0
C17 C 0.88365 0.14454 -0.03331 0.0
C18 C 0.82756 0.87325 0.9449 0.0
O19 O 0.32069 0.90164 -0.01982 0.0
O20 O 0.14802 0.88084 0.95325 0.0
O21 O 0.73511 0.51003 0.59659 0.0
Mg22 Mg 0.79001 0.50937 0.52881 0.0
O23 O 0.56904 0.48685 0.55194 0.0
Mg24 Mg 0.56041 0.49201 0.46352 0.0
O25 O 0.70518 0.58064 0.48005 0.0
O26 O 0.87566 0.6045 0.51962 0.0
O27 O 0.55288 0.49513 0.37635 0.0
O28 O 0.46188 0.60802 0.46336 0.0
Mg29 Mg 0.32748 0.4731 0.40252 0.0
O30 O 0.41764 0.40265 0.44847 0.0
O31 O 0.38406 0.49345 0.33641 0.0
O32 O 0.29529 0.57069 0.45078 0.0
O33 O 0.25266 0.36759 0.40426 0.0
C34 C 0.74861 0.3544 0.46677 0.0
C35 C 0.63911 0.49573 0.59486 0.0
C36 C 0.79044 0.62636 0.49103 0.0
C37 C 0.48025 0.49837 0.33565 0.0
C38 C 0.36658 0.62537 0.46088 0.0
C39 C 0.33542 0.3541 0.43847 0.0
O40 O 0.82266 0.40029 0.49483 0.0
O41 O 0.65508 0.37714 0.45472 0.0
H42 H 0.10822 0.93679 0.44079 0.0
H43 H 0.23264 0.87523 0.30632 0.0
H44 H 0.00684 0.0509 0.30341 0.0
N45 N 0.98735 0.04902 0.40122 0.0
N46 N 0.91566 0.08599 0.37664 0.0
C47 C 0.111 0.94393 0.40137 0.0
C48 C 0.17524 0.89651 0.37631 0.0
C49 C 0.04832 -0.00118 0.37493 0.0
C50 C 0.05231 0.00737 0.32358 0.0
C51 C 0.11954 0.96366 0.29915 0.0
C52 C 0.18087 0.90895 0.32568 0.0
H53 H 0.98062 -0.0242 0.47861 0.0
H54 H 0.88762 0.91289 0.61312 0.0
H55 H 0.1279 0.0967 0.63093 0.0
N56 N 0.12744 0.08391 0.52751 0.0
N57 N 0.19695 0.13502 0.55187 0.0
C58 C 0.98867 -0.0158 0.52013 0.0
C59 C 0.92558 0.93688 0.5415 0.0
C60 C 0.06344 0.04048 0.55181 0.0
C61 C 0.07151 0.05276 0.60584 0.0
C62 C 1.00593 0.00763 0.62736 0.0
C63 C 0.9339 0.94988 0.59538 0.0
H64 H 0.61902 0.45894 0.94738 0.0
H65 H 0.71642 0.36643 0.80877 0.0
H66 H 0.47917 0.53417 0.80025 0.0
N67 N 0.47644 0.55079 0.90092 0.0
N68 N 0.39923 0.58155 0.87544 0.0
C69 C 0.61125 0.45414 0.90579 0.0
C70 C 0.67512 0.40383 0.88217 0.0
C71 C 0.53798 0.49909 0.87615 0.0
C72 C 0.5326 0.49739 0.823 0.0
C73 C 0.59921 0.452 0.7992 0.0
C74 C 0.66798 0.40342 0.82826 0.0
H75 H 0.47016 0.48297 -0.02259 0.0
H76 H 0.40004 0.40433 0.11304 0.0
H77 H 0.63067 0.59502 0.13 0.0
N78 N 0.61722 0.59099 0.02577 0.0
N79 N 0.69183 0.6382 0.04983 0.0
C80 C 0.48331 0.48778 0.01911 0.0
C81 C 0.42563 0.43667 0.04073 0.0
C82 C 0.55927 0.54334 0.05062 0.0
C83 C 0.57395 0.55116 0.10506 0.0
C84 C 0.51494 0.50149 0.12719 0.0
C85 C 0.44201 0.44423 0.09515 0.0
C86 C 0.23289 0.26009 0.00233 0.0
C87 C 0.28596 0.21186 -0.02832 0.0
H88 H 0.23619 0.37177 0.04889 0.0
C89 C 0.36374 0.24596 0.95163 0.0
H90 H 0.17251 0.23482 0.01824 0.0
C91 C 0.40023 0.324 -0.03091 0.0
C92 C 0.36075 0.36829 0.00764 0.0
H93 H 0.40562 0.20962 0.92787 0.0
H94 H 0.46753 0.34592 -0.04298 0.0
C95 C 0.27077 0.33802 0.02066 0.0
C96 C 0.33727 0.73621 -0.02708 0.0
C97 C 0.25947 0.7746 0.9409 0.0
H98 H 0.44227 0.64358 -0.02249 0.0
C99 C 0.21775 0.74115 0.88903 0.0
H100 H 0.37075 0.76111 0.01308 0.0
C101 C 0.26029 0.67384 0.86842 0.0
C102 C 0.34379 0.63918 0.89949 0.0
H103 H 0.15871 0.77042 0.86348 0.0
H104 H 0.23253 0.65162 0.8274 0.0
C105 C 0.37863 0.66896 0.95253 0.0
C106 C 0.74543 0.74071 0.94216 0.0
C107 C 0.81468 0.80325 -0.02965 0.0
H108 H 0.65361 0.6377 0.94502 0.0
C109 C 0.85459 0.80401 0.02425 0.0
H110 H 0.71406 0.73862 0.9005 0.0
C111 C 0.81788 0.74645 0.05016 0.0
C112 C 0.74218 0.68749 0.02238 0.0
H113 H 0.90757 0.85213 0.04681 0.0
H114 H 0.84394 0.75047 0.09219 0.0
C115 C 0.71023 0.6831 -0.03223 0.0
C116 C 0.76845 0.25523 -0.02393 0.0
C117 C 0.85555 0.22617 -0.04067 0.0
H118 H 0.64403 0.33283 -0.03461 0.0
C119 C 0.89339 0.26456 0.92293 0.0
H120 H 0.7369 0.22636 0.00371 0.0
C121 C 0.83873 0.32554 0.89997 0.0
C122 C 0.74516 0.34965 0.91304 0.0
H123 H 0.95947 0.2428 0.90862 0.0
H124 H 0.8675 0.35116 0.8703 0.0
C125 C 0.7144 0.31626 0.95349 0.0
C126 C 0.87669 0.73694 0.46319 0.0
C127 C 0.79078 0.70795 0.47979 0.0
H128 H 0.98684 0.83365 0.4696 0.0
C129 C 0.73186 0.76096 0.50395 0.0
H130 H 0.9234 0.69678 0.44467 0.0
C131 C 0.76915 0.83969 0.51921 0.0
C132 C 0.86484 0.86588 0.5098 0.0
H133 H 0.6656 0.73963 0.51737 0.0
H134 H 0.72885 0.87782 0.54275 0.0
C135 C 0.91331 0.81553 0.47785 0.0
C136 C 0.73325 0.24376 0.39396 0.0
C137 C 0.77531 0.2758 0.44612 0.0
H138 H 0.74805 0.15696 0.33084 0.0
C139 C 0.85602 0.23792 0.47678 0.0
H140 H 0.67192 0.27247 0.36936 0.0
C141 C 0.89822 0.17202 0.455 0.0
C142 C 0.86146 0.14312 0.40192 0.0
H143 H 0.88983 0.26147 0.51715 0.0
H144 H 0.96345 0.14681 0.47897 0.0
C145 C 0.77689 0.17816 0.37195 0.0
C146 C 0.35471 0.30055 0.52306 0.0
C147 C 0.32902 0.28806 0.46826 0.0
H148 H 0.32986 0.25994 0.593 0.0
C149 C 0.27401 0.2178 0.44215 0.0
H150 H 0.39595 0.35497 0.54395 0.0
C151 C 0.23738 0.16387 0.46997 0.0
C152 C 0.25321 0.17998 0.52448 0.0
H153 H 0.25335 0.20698 0.3999 0.0
H154 H 0.19117 0.11204 0.44845 0.0
C155 C 0.31638 0.24675 0.55102 0.0
C156 C 0.28527 0.69596 0.38854 0.0
C157 C 0.33135 0.69991 0.44199 0.0
H158 H 0.19696 0.75187 0.32697 0.0
C159 C 0.32847 0.77002 0.47493 0.0
H160 H 0.28459 0.64199 0.36247 0.0
C161 C 0.27882 0.83502 0.45413 0.0
C162 C 0.23115 0.8302 0.40029 0.0
H163 H 0.36193 0.77385 0.51648 0.0
H164 H 0.2774 0.8886 0.48009 0.0
C165 C 0.23523 0.75946 0.36813 0.0
C166 C 0.05089 -0.00941 0.15573 0.0
C167 C 0.15133 -0.00067 0.14626 0.0
H168 H 0.9619 -0.02774 0.21204 0.0
C169 C 0.24009 -0.00187 0.18776 0.0
H170 H 0.98107 -0.00897 0.1246 0.0
C171 C 0.2291 -0.01304 0.23715 0.0
C172 C 0.1292 -0.02292 0.24654 0.0
H173 H 0.31885 0.00473 0.18212 0.0
H174 H 0.29912 -0.01374 0.26816 0.0
C175 C 0.03993 -0.02007 0.20565 0.0
C176 C 0.93133 0.06522 0.75356 0.0
C177 C 0.98976 0.01456 0.78534 0.0
H178 H 0.89404 0.10433 0.67817 0.0
C179 C 0.06328 0.96857 0.76675 0.0
H180 H 0.8751 0.10186 0.7675 0.0
C181 C 0.07339 0.96971 0.7157 0.0
C182 C 0.01192 0.01822 0.68345 0.0
H183 H 0.10858 0.9288 0.79065 0.0
H184 H 0.1255 0.9303 0.70061 0.0
C185 C 0.94275 0.0673 0.70294 0.0
C186 C 0.59527 0.40856 0.65558 0.0
C187 C 0.61163 0.48489 0.64372 0.0
H188 H 0.58033 0.33776 0.71522 0.0
C189 C 0.62105 0.54963 0.68228 0.0
H190 H 0.59044 0.35785 0.62629 0.0
C191 C 0.61519 0.53836 0.7325 0.0
C192 C 0.60194 0.46197 0.74518 0.0
H193 H 0.63615 0.60867 0.67392 0.0
H194 H 0.62438 0.58932 0.76199 0.0
C195 C 0.59113 0.39704 0.70629 0.0
C196 C 0.55612 0.44557 0.26239 0.0
C197 C 0.50707 0.50621 0.28614 0.0
H198 H 0.59635 0.39658 0.1919 0.0
C199 C 0.47309 0.57021 0.25966 0.0
H200 H 0.5817 0.39543 0.28227 0.0
C201 C 0.48403 0.57193 0.20886 0.0
C202 C 0.52657 0.5087 0.18381 0.0
H203 H 0.43486 0.61735 0.27765 0.0
H204 H 0.45325 0.61999 0.18801 0.0
C205 C 0.5646 0.44629 0.2111 0.0
loop_
_geom_bond_atom_site_label_1
_geom_bond_atom_site_label_2
_geom_bond_distance
_geom_bond_site_symmetry_2
_ccdc_geom_bond_type
O0 Mg1 1.990 . S
O0 C14 1.253 . S
Mg1 O0 1.990 . S
Mg1 O4 2.180 . S
Mg1 O5 2.117 . S
Mg1 O19 2.030 1_545 S
O2 Mg3 2.072 1_554 S
O2 C14 1.260 . S
Mg3 O2 2.072 1_556 S
Mg3 O4 2.099 1_556 S
Mg3 O6 2.079 . S
Mg3 O7 2.072 1_456 S
Mg3 O9 2.099 1_445 S
Mg3 O20 2.079 1_545 S
O4 Mg1 2.180 . S
O4 Mg3 2.099 1_554 S
O4 C15 1.279 . S
O5 Mg1 2.117 . S
O5 C15 1.250 . S
O6 Mg3 2.079 . S
O6 C16 1.264 . S
O7 Mg3 2.072 1_654 S
O7 C17 1.260 1_554 S
Mg8 O9 2.180 . S
Mg8 O10 2.030 1_565 S
Mg8 O11 1.990 1_565 S
Mg8 O12 2.117 . S
O9 Mg3 2.099 1_665 S
O9 Mg8 2.180 . S
O9 C18 1.279 . S
O10 Mg8 2.030 1_545 S
O10 C16 1.248 1_655 S
O11 Mg8 1.990 1_545 S
O11 C17 1.253 . S
O12 Mg8 2.117 . S
O12 C18 1.250 . S
C13 O19 1.248 . S
C13 O20 1.264 1_554 S
C14 O0 1.253 . S
C14 O2 1.260 . S
C15 O4 1.279 . S
C15 O5 1.250 . S
C16 O6 1.264 . S
C16 O10 1.248 1_455 S
C17 O7 1.260 1_556 S
C17 O11 1.253 . S
C18 O9 1.279 . S
C18 O12 1.250 . S
O19 Mg1 2.030 1_565 S
O19 C13 1.248 . S
O20 Mg3 2.079 1_565 S
O20 C13 1.264 1_556 S
O21 Mg22 1.990 . S
O21 C35 1.253 . S
Mg22 O21 1.990 . S
Mg22 O25 2.180 . S
Mg22 O26 2.117 . S
Mg22 O40 2.030 . S
O23 Mg24 2.072 . S
O23 C35 1.260 . S
Mg24 O23 2.072 . S
Mg24 O25 2.099 . S
Mg24 O27 2.079 . S
Mg24 O28 2.072 . S
Mg24 O30 2.099 . S
Mg24 O41 2.079 . S
O25 Mg22 2.180 . S
O25 Mg24 2.099 . S
O25 C36 1.279 . S
O26 Mg22 2.117 . S
O26 C36 1.250 . S
O27 Mg24 2.079 . S
O27 C37 1.264 . S
O28 Mg24 2.072 . S
O28 C38 1.260 . S
Mg29 O30 2.180 . S
Mg29 O31 2.030 . S
Mg29 O32 1.990 . S
Mg29 O33 2.117 . S
O30 Mg24 2.099 . S
O30 Mg29 2.180 . S
O30 C39 1.279 . S
O31 Mg29 2.030 . S
O31 C37 1.248 . S
O32 Mg29 1.990 . S
O32 C38 1.253 . S
O33 Mg29 2.117 . S
O33 C39 1.250 . S
C34 O40 1.248 . S
C34 O41 1.264 . S
C35 O21 1.253 . S
C35 O23 1.260 . S
C36 O25 1.279 . S
C36 O26 1.250 . S
C37 O27 1.264 . S
C37 O31 1.248 . S
C38 O28 1.260 . S
C38 O32 1.253 . S
C39 O30 1.279 . S
C39 O33 1.250 . S
O40 Mg22 2.030 . S
O40 C34 1.248 . S
O41 Mg24 2.079 . S
O41 C34 1.264 . S
H42 C47 0.929 . S
H43 C52 0.931 . S
H44 C50 0.933 . S
N45 N46 1.234 . S
N45 C49 1.453 1_655 S
N46 N45 1.234 . S
C47 H42 0.929 . S
C47 C48 1.373 . S
C47 C49 1.368 1_565 S
C48 C47 1.373 . S
C48 C52 1.397 . S
C49 N45 1.453 1_455 S
C49 C47 1.368 1_545 S
C49 C50 1.373 . S
C50 H44 0.933 . S
C50 C49 1.373 . S
C50 C51 1.371 1_545 S
C51 C50 1.371 1_565 S
C51 C52 1.383 . S
C52 H43 0.931 . S
C52 C48 1.397 . S
C52 C51 1.383 . S
H53 C58 0.929 1_565 S
H54 C63 0.931 . S
H55 C61 0.930 . S
N56 N57 1.234 . S
N56 C60 1.453 . S
N57 N56 1.234 . S
C58 H53 0.929 1_545 S
C58 C59 1.373 1_545 S
C58 C60 1.368 1_655 S
C59 C58 1.373 1_565 S
C59 C63 1.397 . S
C60 N56 1.453 . S
C60 C58 1.368 1_455 S
C60 C61 1.373 . S
C61 H55 0.930 . S
C61 C60 1.373 . S
C61 C62 1.371 1_455 S
C62 C61 1.371 1_655 S
C62 C63 1.383 1_545 S
C63 H54 0.931 . S
C63 C59 1.397 . S
C63 C62 1.383 1_565 S
H64 C69 0.929 1_554 S
H65 C74 0.931 . S
H66 C72 0.930 . S
N67 N68 1.234 . S
N67 C71 1.453 . S
N68 N67 1.234 . S
C69 H64 0.929 1_556 S
C69 C70 1.373 . S
C69 C71 1.368 . S
C70 C69 1.373 . S
C70 C74 1.397 . S
C71 N67 1.453 . S
C71 C69 1.368 . S
C71 C72 1.373 . S
C72 H66 0.930 . S
C72 C71 1.373 . S
C72 C73 1.371 . S
C73 C72 1.371 . S
C73 C74 1.383 . S
C74 H65 0.931 . S
C74 C70 1.397 . S
C74 C73 1.383 . S
H75 C80 0.929 1_556 S
H76 C85 0.931 . S
H77 C83 0.930 . S
N78 N79 1.234 . S
N78 C82 1.453 . S
N79 N78 1.234 . S
C80 H75 0.929 1_554 S
C80 C81 1.373 . S
C80 C82 1.368 . S
C81 C80 1.373 . S
C81 C85 1.397 . S
C82 N78 1.453 . S
C82 C80 1.368 . S
C82 C83 1.373 . S
C83 H77 0.930 . S
C83 C82 1.373 . S
C83 C84 1.371 . S
C84 C83 1.371 . S
C84 C85 1.383 . S
C85 H76 0.931 . S
C85 C81 1.397 . S
C85 C84 1.383 . S
C86 C87 1.387 . S
C86 H90 0.950 . S
C86 C95 1.390 . S
C87 C86 1.387 . S
C87 C89 1.387 1_554 S
H88 C95 0.950 . S
C89 C87 1.387 1_556 S
C89 C91 1.390 . S
C89 H93 0.950 . S
H90 C86 0.950 . S
C91 C89 1.390 . S
C91 C92 1.387 1_556 S
C91 H94 0.950 . S
C92 C91 1.387 1_554 S
C92 C95 1.387 . S
H93 C89 0.950 . S
H94 C91 0.950 . S
C95 C86 1.390 . S
C95 H88 0.950 . S
C95 C92 1.387 . S
C96 C97 1.387 . S
C96 H100 0.950 . S
C96 C105 1.390 . S
C97 C96 1.387 . S
C97 C99 1.387 1_554 S
H98 C105 0.950 . S
C99 C97 1.387 1_556 S
C99 C101 1.390 . S
C99 H103 0.950 . S
H100 C96 0.950 . S
C101 C99 1.390 . S
C101 C102 1.387 1_556 S
C101 H104 0.950 . S
C102 C101 1.387 1_554 S
C102 C105 1.387 . S
H103 C99 0.950 . S
H104 C101 0.950 . S
C105 C96 1.390 . S
C105 H98 0.950 . S
C105 C102 1.387 . S
C106 C107 1.387 1_556 S
C106 H110 0.950 . S
C106 C115 1.390 . S
C107 C106 1.387 1_554 S
C107 C109 1.387 . S
H108 C115 0.950 . S
C109 C107 1.387 . S
C109 C111 1.390 . S
C109 H113 0.950 . S
H110 C106 0.950 . S
C111 C109 1.390 . S
C111 C112 1.387 . S
C111 H114 0.950 . S
C112 C111 1.387 . S
C112 C115 1.387 1_554 S
H113 C109 0.950 . S
H114 C111 0.950 . S
C115 C106 1.390 . S
C115 H108 0.950 . S
C115 C112 1.387 1_556 S
C116 C117 1.387 1_554 S
C116 H120 0.950 . S
C116 C125 1.390 . S
C117 C116 1.387 1_556 S
C117 C119 1.387 . S
H118 C125 0.950 . S
C119 C117 1.387 . S
C119 C121 1.390 . S
C119 H123 0.950 . S
H120 C116 0.950 . S
C121 C119 1.390 . S
C121 C122 1.387 . S
C121 H124 0.950 . S
C122 C121 1.387 . S
C122 C125 1.387 1_556 S
H123 C119 0.950 . S
H124 C121 0.950 . S
C125 C116 1.390 . S
C125 H118 0.950 . S
C125 C122 1.387 1_554 S
C126 C127 1.387 . S
C126 H130 0.950 . S
C126 C135 1.390 . S
C127 C126 1.387 . S
C127 C129 1.387 . S
H128 C135 0.950 . S
C129 C127 1.387 . S
C129 C131 1.390 . S
C129 H133 0.950 . S
H130 C126 0.950 . S
C131 C129 1.390 . S
C131 C132 1.387 . S
C131 H134 0.950 . S
C132 C131 1.387 . S
C132 C135 1.387 . S
H133 C129 0.950 . S
H134 C131 0.950 . S
C135 C126 1.390 . S
C135 H128 0.950 . S
C135 C132 1.387 . S
C136 C137 1.387 . S
C136 H140 0.950 . S
C136 C145 1.390 . S
C137 C136 1.387 . S
C137 C139 1.387 . S
H138 C145 0.950 . S
C139 C137 1.387 . S
C139 C141 1.390 . S
C139 H143 0.950 . S
H140 C136 0.950 . S
C141 C139 1.390 . S
C141 C142 1.387 . S
C141 H144 0.950 . S
C142 C141 1.387 . S
C142 C145 1.387 . S
H143 C139 0.950 . S
H144 C141 0.950 . S
C145 C136 1.390 . S
C145 H138 0.950 . S
C145 C142 1.387 . S
C146 C147 1.387 . S
C146 H150 0.950 . S
C146 C155 1.390 . S
C147 C146 1.387 . S
C147 C149 1.387 . S
H148 C155 0.950 . S
C149 C147 1.387 . S
C149 C151 1.390 . S
C149 H153 0.950 . S
H150 C146 0.950 . S
C151 C149 1.390 . S
C151 C152 1.387 . S
C151 H154 0.950 . S
C152 C151 1.387 . S
C152 C155 1.387 . S
H153 C149 0.950 . S
H154 C151 0.950 . S
C155 C146 1.390 . S
C155 H148 0.950 . S
C155 C152 1.387 . S
C156 C157 1.387 . S
C156 H160 0.950 . S
C156 C165 1.390 . S
C157 C156 1.387 . S
C157 C159 1.387 . S
H158 C165 0.950 . S
C159 C157 1.387 . S
C159 C161 1.390 . S
C159 H163 0.950 . S
H160 C156 0.950 . S
C161 C159 1.390 . S
C161 C162 1.387 . S
C161 H164 0.950 . S
C162 C161 1.387 . S
C162 C165 1.387 . S
H163 C159 0.950 . S
H164 C161 0.950 . S
C165 C156 1.390 . S
C165 H158 0.950 . S
C165 C162 1.387 . S
C166 C167 1.386 1_545 S
C166 H170 0.950 1_455 S
C166 C175 1.390 . S
C167 C166 1.386 1_565 S
C167 C169 1.389 . S
H168 C175 0.950 1_655 S
C169 C167 1.389 . S
C169 C171 1.390 . S
C169 H173 0.950 . S
H170 C166 0.950 1_655 S
C171 C169 1.390 . S
C171 C172 1.387 . S
C171 H174 0.950 . S
C172 C171 1.387 . S
C172 C175 1.387 1_565 S
H173 C169 0.950 . S
H174 C171 0.950 . S
C175 C166 1.390 . S
C175 H168 0.950 1_455 S
C175 C172 1.387 1_545 S
C176 C177 1.387 . S
C176 H180 0.950 1_455 S
C176 C185 1.390 1_455 S
C177 C176 1.387 . S
C177 C179 1.387 1_545 S
H178 C185 0.950 . S
C179 C177 1.387 1_565 S
C179 C181 1.390 . S
C179 H183 0.950 . S
H180 C176 0.950 1_655 S
C181 C179 1.390 . S
C181 C182 1.386 1_465 S
C181 H184 0.950 . S
C182 C181 1.386 1_645 S
C182 C185 1.390 . S
H183 C179 0.950 . S
H184 C181 0.950 . S
C185 C176 1.390 1_655 S
C185 H178 0.950 . S
C185 C182 1.390 . S
C186 C187 1.387 . S
C186 H190 0.950 . S
C186 C195 1.390 . S
C187 C186 1.387 . S
C187 C189 1.387 . S
H188 C195 0.950 . S
C189 C187 1.387 . S
C189 C191 1.390 . S
C189 H193 0.950 . S
H190 C186 0.950 . S
C191 C189 1.390 . S
C191 C192 1.387 . S
C191 H194 0.950 . S
C192 C191 1.387 . S
C192 C195 1.387 . S
H193 C189 0.950 . S
H194 C191 0.950 . S
C195 C186 1.390 . S
C195 H188 0.950 . S
C195 C192 1.387 . S
C196 C197 1.387 . S
C196 H200 0.950 . S
C196 C205 1.390 . S
C197 C196 1.387 . S
C197 C199 1.387 . S
H198 C205 0.950 . S
C199 C197 1.387 . S
C199 C201 1.390 . S
C199 H203 0.950 . S
H200 C196 0.950 . S
C201 C199 1.390 . S
C201 C202 1.387 . S
C201 H204 0.950 . S
C202 C201 1.387 . S
C202 C205 1.387 . S
H203 C199 0.950 . S
H204 C201 0.950 . S
C205 C196 1.390 . S
C205 H198 0.950 . S
C205 C202 1.387 . S
C92 C81 1.469 . S
C87 C15 1.367 . S
C97 C13 1.467 . S
C102 N68 1.436 1_554 S
C107 C18 1.274 1_554 S
C112 N79 1.450 . S
C117 C17 1.435 . S
C122 C70 1.474 . S
C127 C36 1.363 . S
C132 C59 1.471 . S
C137 C34 1.470 . S
C142 N46 1.436 . S
C152 N57 1.452 . S
C147 C39 1.279 . S
C162 C48 1.474 . S
C157 C38 1.438 . S
C167 C14 1.562 1_565 S
C172 C51 1.607 . S
C177 C16 1.397 . S
C182 C62 1.427 . S
C192 C73 1.607 . S
C187 C35 1.565 . S
C197 C37 1.400 . S
C202 C84 1.428 . S
