# Generated by pormake.
# Topology zzz, (3,6)-cn, num edge types: 1
# Building blocks:
#     Node 0, Type 0, BuildingBlock: PAMTOO_clean_linker_0, # of connection points: 3
#     Node 1, Type 0, BuildingBlock: PAMTOO_clean_linker_0, # of connection points: 3
#     Node 2, Type 0, BuildingBlock: PAMTOO_clean_linker_0, # of connection points: 3
#     Node 3, Type 0, BuildingBlock: PAMTOO_clean_linker_0, # of connection points: 3
#     Node 4, Type 0, BuildingBlock: PAMTOO_clean_linker_0, # of connection points: 3
#     Node 5, Type 0, BuildingBlock: PAMTOO_clean_linker_0, # of connection points: 3
#     Node 6, Type 0, BuildingBlock: PAMTOO_clean_linker_0, # of connection points: 3
#     Node 7, Type 0, BuildingBlock: PAMTOO_clean_linker_0, # of connection points: 3
#     Node 8, Type 1, BuildingBlock: LEVNOQ01_clean_sbu_1, # of connection points: 6
#     Node 9, Type 1, BuildingBlock: LEVNOQ01_clean_sbu_1, # of connection points: 6
#     Node 10, Type 1, BuildingBlock: LEVNOQ01_clean_sbu_1, # of connection points: 6
#     Node 11, Type 1, BuildingBlock: LEVNOQ01_clean_sbu_1, # of connection points: 6
#     Edge 12, Type (0, 1), None
#     Edge 13, Type (0, 1), None
#     Edge 14, Type (0, 1), None
#     Edge 15, Type (0, 1), None
#     Edge 16, Type (0, 1), None
#     Edge 17, Type (0, 1), None
#     Edge 18, Type (0, 1), None
#     Edge 19, Type (0, 1), None
#     Edge 20, Type (0, 1), None
#     Edge 21, Type (0, 1), None
#     Edge 22, Type (0, 1), None
#     Edge 23, Type (0, 1), None
#     Edge 24, Type (0, 1), None
#     Edge 25, Type (0, 1), None
#     Edge 26, Type (0, 1), None
#     Edge 27, Type (0, 1), None
#     Edge 28, Type (0, 1), None
#     Edge 29, Type (0, 1), None
#     Edge 30, Type (0, 1), None
#     Edge 31, Type (0, 1), None
#     Edge 32, Type (0, 1), None
#     Edge 33, Type (0, 1), None
#     Edge 34, Type (0, 1), None
#     Edge 35, Type (0, 1), None
# Relax obj value: 0.113
# Max RMSD: 0.167
# Mean RMSD: 0.105
data_MOF--net-zzz--node1-LEVNOQ01_clean_sbu_1--node2-PAMTOO_clean_linker_0--edge1-none
_symmetry_space_group_name_H-M    P1
_symmetry_Int_Tables_number       1
_symmetry_cell_setting            triclinic
loop_
_symmetry_equiv_pos_as_xyz
'x, y, z'
_cell_length_a     21.235439
_cell_length_b     21.235757
_cell_length_c     8.6785314
_cell_angle_alpha  89.990562
_cell_angle_beta   90.018597
_cell_angle_gamma 90.006181
loop_
_atom_site_label
_atom_site_type_symbol
_atom_site_fract_x
_atom_site_fract_y
_atom_site_fract_z
_atom_type_partial_charge
H0 H 0.96627 0.53116 0.21063 0.0
H1 H 0.81845 0.50428 0.88924 0.0
H2 H 0.77354 0.56787 0.34624 0.0
H3 H 0.7343 0.6044 0.88976 0.0
C4 C 0.70062 0.56935 -0.06237 0.0
O5 O 0.72585 0.53976 0.06739 0.0
H6 H 0.65726 0.59522 -0.02909 0.0
C7 C 0.91656 0.53596 0.18343 0.0
C8 C 0.87314 0.55382 0.29692 0.0
C9 C 0.89541 0.51432 0.04232 0.0
C10 C 0.83221 0.51827 0.00348 0.0
C11 C 0.78789 0.54127 0.10753 0.0
C12 C 0.80811 0.55728 0.25825 0.0
H13 H 0.04077 0.96909 0.21053 0.0
H14 H 0.0677 0.82119 0.8895 0.0
H15 H 1.00313 0.77646 0.34581 0.0
H16 H 0.96703 0.73787 0.88879 0.0
C17 C 1.00163 0.70382 -0.06293 0.0
O18 O 0.03131 0.72875 0.06705 0.0
H19 H 0.97526 0.66073 -0.02979 0.0
C20 C 0.03588 0.91939 0.18332 0.0
C21 C 1.01772 0.87601 0.29669 0.0
C22 C 0.05763 0.8982 0.04237 0.0
C23 C 0.05358 0.83501 0.00358 0.0
C24 C 0.03018 0.79077 0.10737 0.0
C25 C 1.01404 0.81101 0.25795 0.0
H26 H 0.60243 0.04269 0.21003 0.0
H27 H 0.75025 0.0696 0.8888 0.0
H28 H 0.7951 1.00523 0.34531 0.0
H29 H 0.83322 0.96927 0.88619 0.0
C30 C 0.86721 1.00375 -0.06475 0.0
O31 O 0.84273 0.03306 0.06615 0.0
H32 H 0.91032 0.97742 -0.03157 0.0
C33 C 0.65213 0.03782 0.18281 0.0
C34 C 0.69554 1.0198 0.29623 0.0
C35 C 0.67328 0.05951 0.04177 0.0
C36 C 0.73646 0.05551 0.00295 0.0
C37 C 0.78074 0.03213 0.10674 0.0
C38 C 0.76054 1.01609 0.25745 0.0
H39 H 0.52905 0.60491 0.21011 0.0
H40 H 0.5022 0.75271 0.8887 0.0
H41 H 0.56552 0.79767 0.34601 0.0
H42 H 0.60218 0.83698 0.88953 0.0
C43 C 0.5671 0.87062 -0.06259 0.0
O44 O 0.53752 0.84534 0.06706 0.0
H45 H 0.59294 0.91399 -0.02919 0.0
C46 C 0.53385 0.65462 0.18295 0.0
C47 C 0.5516 0.69806 0.29655 0.0
C48 C 0.51226 0.67575 0.04178 0.0
C49 C 0.51618 0.73895 0.00297 0.0
C50 C 0.53909 0.7833 0.10714 0.0
C51 C 0.55502 0.76309 0.25793 0.0
H52 H 0.10294 0.54435 0.0895 0.0
H53 H 0.25093 0.5706 0.41081 0.0
H54 H 0.29536 0.50544 -0.04515 0.0
H55 H 0.41023 0.47676 0.33158 0.0
C56 C 0.36737 0.50347 0.36479 0.0
O57 O 0.34315 0.53311 0.23397 0.0
H58 H 0.33305 0.46929 0.41371 0.0
C59 C 0.15261 0.53921 0.11684 0.0
C60 C 0.19591 0.5208 0.00361 0.0
C61 C 0.17389 0.56087 0.25783 0.0
C62 C 0.23705 0.55651 0.29673 0.0
C63 C 0.28117 0.5327 0.1932 0.0
C64 C 0.26087 0.51666 0.04256 0.0
H65 H 1.02734 0.10574 0.08924 0.0
H66 H 1.00102 0.25358 0.41063 0.0
H67 H 0.06555 0.29829 -0.04575 0.0
H68 H 0.09391 0.41347 0.33058 0.0
C69 C 0.06759 0.37039 0.36402 0.0
O70 O 0.03792 0.34599 0.23345 0.0
H71 H 0.10213 0.33632 0.41253 0.0
C72 C 0.03238 0.15542 0.11653 0.0
C73 C 0.05059 0.19878 0.0032 0.0
C74 C 1.01077 0.17662 0.25758 0.0
C75 C 1.01503 0.23979 0.29647 0.0
C76 C 0.03858 0.284 0.19278 0.0
C77 C 0.05454 0.26376 0.04205 0.0
H78 H 0.46573 0.02937 0.08872 0.0
H79 H 0.31781 1.00328 0.41 0.0
H80 H 0.27325 0.06769 -0.04664 0.0
H81 H 0.1575 0.0962 0.32832 0.0
C82 C 0.20057 0.06988 0.36181 0.0
O83 O 0.22544 0.03987 0.23228 0.0
H84 H 0.23468 0.10459 0.40945 0.0
C85 C 0.41606 0.03447 0.11594 0.0
C86 C 0.37274 0.05276 0.00254 0.0
C87 C 0.3948 1.01288 0.257 0.0
C88 C 0.33164 1.01725 0.29582 0.0
C89 C 0.28746 0.04075 0.19195 0.0
C90 C 0.30775 0.05671 0.04127 0.0
H91 H 0.54197 0.46818 0.0889 0.0
H92 H 0.56789 0.32021 0.41032 0.0
H93 H 0.50287 0.27579 -0.04587 0.0
H94 H 0.47422 0.16087 0.331 0.0
C95 C 0.5009 0.20376 0.36415 0.0
O96 O 0.53048 0.22798 0.23328 0.0
H97 H 0.4667 0.23806 0.41305 0.0
C98 C 0.53676 0.41852 0.11622 0.0
C99 C 0.5183 0.37523 0.00296 0.0
C100 C 0.55836 0.39723 0.25727 0.0
C101 C 0.55389 0.33407 0.29616 0.0
C102 C 0.53008 0.28997 0.19255 0.0
C103 C 0.5141 0.31028 0.04188 0.0
O104 O 0.1374 0.93201 0.87823 0.0
Mg105 Mg 0.14702 0.93263 0.63675 0.0
O106 O 0.0417 0.97133 0.85089 0.0
Mg107 Mg 0.03421 0.03742 0.64995 0.0
O108 O 0.13185 1.02155 0.55767 0.0
O109 O 0.22062 0.97393 0.50783 0.0
O110 O 1.02672 0.10353 0.44908 0.0
O111 O 0.06271 0.12131 0.81122 0.0
Mg112 Mg 0.92107 0.14194 0.66307 0.0
O113 O 0.93664 0.05318 0.74251 0.0
O114 O 0.93098 0.14275 0.42164 0.0
O115 O 0.99009 0.19661 0.78348 0.0
O116 O 0.84729 0.10012 0.79062 0.0
C117 C 1.02761 0.89878 0.45503 0.0
C118 C 0.08215 0.9413 -0.07148 0.0
C119 C 0.18491 1.022 0.48576 0.0
C120 C 0.98625 0.13353 0.37144 0.0
C121 C 0.04053 0.17603 0.84493 0.0
C122 C 0.88345 0.05246 0.81379 0.0
O123 O 0.07784 0.87799 0.51698 0.0
O124 O 1.00565 0.95362 0.48852 0.0
O125 O 0.3747 0.9924 0.78278 0.0
Mg126 Mg 0.42911 0.92307 0.663 0.0
O127 O 0.45029 0.06471 0.81056 0.0
Mg128 Mg 0.53413 0.03619 0.64918 0.0
O129 O 0.51809 0.9386 0.74093 0.0
O130 O 0.47096 0.8498 0.79265 0.0
O131 O 0.61799 1.00768 0.48802 0.0
O132 O 0.60023 0.04354 0.85016 0.0
Mg133 Mg 0.63863 0.14908 0.63656 0.0
O134 O 0.54989 0.13382 0.5565 0.0
O135 O 0.69338 0.08017 0.51616 0.0
O136 O 0.63929 0.13931 0.87793 0.0
O137 O 0.5972 0.22311 0.50946 0.0
C138 C 0.43781 0.98827 0.37097 0.0
C139 C 0.39548 0.04273 0.84426 0.0
C140 C 0.51893 0.88576 0.81374 0.0
C141 C 0.67275 0.02981 0.45448 0.0
C142 C 0.63014 0.08401 -0.07201 0.0
C143 C 0.54944 0.18715 0.48575 0.0
O144 O 0.42834 0.93307 0.42149 0.0
O145 O 0.46803 0.02868 0.4483 0.0
O146 O 0.57863 0.37704 0.78317 0.0
Mg147 Mg 0.64809 0.43135 0.66343 0.0
O148 O 0.50647 0.45276 0.81085 0.0
Mg149 Mg 0.5351 0.53654 0.6494 0.0
O150 O 0.63266 0.52036 0.74108 0.0
O151 O 0.72137 0.47315 0.79317 0.0
O152 O 0.56364 0.6204 0.48825 0.0
O153 O 0.52799 0.60264 0.85026 0.0
Mg154 Mg 0.42226 0.64111 0.63707 0.0
O155 O 0.43743 0.55238 0.55699 0.0
O156 O 0.49113 0.69578 0.51631 0.0
O157 O 0.43228 0.64178 0.87839 0.0
O158 O 0.34811 0.59971 0.51026 0.0
C159 C 0.58296 0.44022 0.37127 0.0
C160 C 0.52834 0.39791 0.84462 0.0
C161 C 0.68547 0.52117 0.81402 0.0
C162 C 0.54149 0.67517 0.45469 0.0
C163 C 0.48763 0.63262 -0.07182 0.0
C164 C 0.38406 0.55196 0.48638 0.0
O165 O 0.63814 0.43068 0.42192 0.0
O166 O 0.54254 0.47044 0.44851 0.0
O167 O 0.92933 0.43443 0.87871 0.0
Mg168 Mg 0.93001 0.42448 0.63733 0.0
O169 O 0.96853 0.53015 0.85084 0.0
Mg170 Mg 0.03464 0.53746 0.65004 0.0
O171 O 1.01878 0.4398 0.55779 0.0
O172 O 0.97153 0.35059 0.50979 0.0
O173 O 0.10075 0.54496 0.44917 0.0
O174 O 0.11842 0.50886 0.81153 0.0
Mg175 Mg 0.13948 0.65037 0.66372 0.0
O176 O 0.05057 0.63503 0.74243 0.0
O177 O 0.14024 0.64063 0.42224 0.0
O178 O 0.19402 0.58113 0.78366 0.0
O179 O 0.09791 0.72394 0.79243 0.0
C180 C 0.896 0.54382 0.45514 0.0
C181 C 0.93853 0.48975 -0.07136 0.0
C182 C 1.01921 0.38667 0.48619 0.0
C183 C 0.13086 0.58542 0.37176 0.0
C184 C 0.17323 0.53083 0.84526 0.0
C185 C 0.04985 0.68815 0.81399 0.0
O186 O 0.87537 0.49346 0.51679 0.0
O187 O 0.95077 0.56596 0.48874 0.0
loop_
_geom_bond_atom_site_label_1
_geom_bond_atom_site_label_2
_geom_bond_distance
_geom_bond_site_symmetry_2
_ccdc_geom_bond_type
H0 C7 0.929 . S
H1 C10 0.930 . S
H2 C12 0.929 . S
H3 C4 0.969 . S
C4 H3 0.969 . S
C4 O5 1.550 1_556 S
C4 H6 0.973 . S
O5 C4 1.550 1_554 S
O5 C11 1.412 . S
H6 C4 0.973 . S
C7 H0 0.929 . S
C7 C8 1.400 . S
C7 C9 1.364 1_554 S
C8 C7 1.400 . S
C8 C12 1.377 . S
C9 C7 1.364 1_556 S
C9 C10 1.374 . S
C10 H1 0.930 . S
C10 C9 1.374 . S
C10 C11 1.383 1_556 S
C11 O5 1.412 . S
C11 C10 1.383 1_554 S
C11 C12 1.394 . S
C12 H2 0.929 . S
C12 C8 1.377 . S
C12 C11 1.394 . S
H13 C20 0.929 . S
H14 C23 0.930 . S
H15 C25 0.929 . S
H16 C17 0.969 1_455 S
C17 H16 0.969 1_655 S
C17 O18 1.550 1_556 S
C17 H19 0.973 . S
O18 C17 1.550 1_554 S
O18 C24 1.412 . S
H19 C17 0.973 . S
C20 H13 0.929 . S
C20 C21 1.400 . S
C20 C22 1.364 1_554 S
C21 C20 1.400 . S
C21 C25 1.377 . S
C22 C20 1.364 1_556 S
C22 C23 1.374 . S
C23 H14 0.930 . S
C23 C22 1.374 . S
C23 C24 1.383 1_556 S
C24 O18 1.412 . S
C24 C23 1.383 1_554 S
C24 C25 1.394 . S
C25 H15 0.929 . S
C25 C21 1.377 . S
C25 C24 1.394 . S
H26 C33 0.929 . S
H27 C36 0.930 . S
H28 C38 0.929 . S
H29 C30 0.969 1_545 S
C30 H29 0.969 1_565 S
C30 O31 1.550 1_556 S
C30 H32 0.973 . S
O31 C30 1.550 1_554 S
O31 C37 1.412 . S
H32 C30 0.973 . S
C33 H26 0.929 . S
C33 C34 1.400 . S
C33 C35 1.364 1_554 S
C34 C33 1.400 . S
C34 C38 1.377 . S
C35 C33 1.364 1_556 S
C35 C36 1.374 . S
C36 H27 0.930 . S
C36 C35 1.374 . S
C36 C37 1.383 1_556 S
C37 O31 1.412 . S
C37 C36 1.383 1_554 S
C37 C38 1.394 . S
C38 H28 0.929 . S
C38 C34 1.377 . S
C38 C37 1.394 . S
H39 C46 0.929 . S
H40 C49 0.930 . S
H41 C51 0.929 . S
H42 C43 0.969 . S
C43 H42 0.969 . S
C43 O44 1.550 1_556 S
C43 H45 0.973 . S
O44 C43 1.550 1_554 S
O44 C50 1.412 . S
H45 C43 0.973 . S
C46 H39 0.929 . S
C46 C47 1.400 . S
C46 C48 1.364 1_554 S
C47 C46 1.400 . S
C47 C51 1.377 . S
C48 C46 1.364 1_556 S
C48 C49 1.374 . S
C49 H40 0.930 . S
C49 C48 1.374 . S
C49 C50 1.383 1_556 S
C50 O44 1.412 . S
C50 C49 1.383 1_554 S
C50 C51 1.394 . S
C51 H41 0.929 . S
C51 C47 1.377 . S
C51 C50 1.394 . S
H52 C59 0.929 . S
H53 C62 0.930 . S
H54 C64 0.929 . S
H55 C56 0.969 . S
C56 H55 0.969 . S
C56 O57 1.550 . S
C56 H58 0.973 . S
O57 C56 1.550 . S
O57 C63 1.412 . S
H58 C56 0.973 . S
C59 H52 0.929 . S
C59 C60 1.400 . S
C59 C61 1.364 . S
C60 C59 1.400 . S
C60 C64 1.377 . S
C61 C59 1.364 . S
C61 C62 1.374 . S
C62 H53 0.930 . S
C62 C61 1.374 . S
C62 C63 1.383 . S
C63 O57 1.412 . S
C63 C62 1.383 . S
C63 C64 1.394 . S
C64 H54 0.929 . S
C64 C60 1.377 . S
C64 C63 1.394 . S
H65 C72 0.929 . S
H66 C75 0.930 . S
H67 C77 0.929 . S
H68 C69 0.969 . S
C69 H68 0.969 . S
C69 O70 1.550 . S
C69 H71 0.973 . S
O70 C69 1.550 . S
O70 C76 1.412 . S
H71 C69 0.973 . S
C72 H65 0.929 . S
C72 C73 1.400 . S
C72 C74 1.364 . S
C73 C72 1.400 . S
C73 C77 1.377 . S
C74 C72 1.364 . S
C74 C75 1.374 . S
C75 H66 0.930 . S
C75 C74 1.374 . S
C75 C76 1.383 . S
C76 O70 1.412 . S
C76 C75 1.383 . S
C76 C77 1.394 . S
C77 H67 0.929 . S
C77 C73 1.377 . S
C77 C76 1.394 . S
H78 C85 0.929 . S
H79 C88 0.930 . S
H80 C90 0.929 . S
H81 C82 0.969 . S
C82 H81 0.969 . S
C82 O83 1.550 . S
C82 H84 0.973 . S
O83 C82 1.550 . S
O83 C89 1.412 . S
H84 C82 0.973 . S
C85 H78 0.929 . S
C85 C86 1.400 . S
C85 C87 1.364 . S
C86 C85 1.400 . S
C86 C90 1.377 . S
C87 C85 1.364 . S
C87 C88 1.374 . S
C88 H79 0.930 . S
C88 C87 1.374 . S
C88 C89 1.383 . S
C89 O83 1.412 . S
C89 C88 1.383 . S
C89 C90 1.394 . S
C90 H80 0.929 . S
C90 C86 1.377 . S
C90 C89 1.394 . S
H91 C98 0.929 . S
H92 C101 0.930 . S
H93 C103 0.929 . S
H94 C95 0.969 . S
C95 H94 0.969 . S
C95 O96 1.550 . S
C95 H97 0.973 . S
O96 C95 1.550 . S
O96 C102 1.412 . S
H97 C95 0.973 . S
C98 H91 0.929 . S
C98 C99 1.400 . S
C98 C100 1.364 . S
C99 C98 1.400 . S
C99 C103 1.377 . S
C100 C98 1.364 . S
C100 C101 1.374 . S
C101 H92 0.930 . S
C101 C100 1.374 . S
C101 C102 1.383 . S
C102 O96 1.412 . S
C102 C101 1.383 . S
C102 C103 1.394 . S
C103 H93 0.929 . S
C103 C99 1.377 . S
C103 C102 1.394 . S
O104 Mg105 1.990 . S
O104 C118 1.253 . S
Mg105 O104 1.990 . S
Mg105 O108 2.180 . S
Mg105 O109 2.117 . S
Mg105 O123 2.030 . S
O106 Mg107 2.072 1_665 S
O106 C118 1.260 1_655 S
Mg107 O106 2.072 1_445 S
Mg107 O108 2.099 1_545 S
Mg107 O110 2.079 . S
Mg107 O111 2.072 . S
Mg107 O113 2.099 1_455 S
Mg107 O124 2.079 1_445 S
O108 Mg105 2.180 . S
O108 Mg107 2.099 1_565 S
O108 C119 1.279 . S
O109 Mg105 2.117 . S
O109 C119 1.250 . S
O110 Mg107 2.079 . S
O110 C120 1.264 1_455 S
O111 Mg107 2.072 . S
O111 C121 1.260 1_556 S
Mg112 O113 2.180 . S
Mg112 O114 2.030 . S
Mg112 O115 1.990 1_556 S
Mg112 O116 2.117 1_556 S
O113 Mg107 2.099 1_655 S
O113 Mg112 2.180 . S
O113 C122 1.279 . S
O114 Mg112 2.030 . S
O114 C120 1.248 . S
O115 Mg112 1.990 1_554 S
O115 C121 1.253 1_655 S
O116 Mg112 2.117 1_554 S
O116 C122 1.250 1_554 S
C117 O123 1.248 1_655 S
C117 O124 1.264 . S
C118 O104 1.253 . S
C118 O106 1.260 1_455 S
C119 O108 1.279 . S
C119 O109 1.250 . S
C120 O110 1.264 1_655 S
C120 O114 1.248 . S
C121 O111 1.260 1_554 S
C121 O115 1.253 1_455 S
C122 O113 1.279 . S
C122 O116 1.250 1_556 S
O123 Mg105 2.030 . S
O123 C117 1.248 1_455 S
O124 Mg107 2.079 1_665 S
O124 C117 1.264 . S
O125 Mg126 1.990 1_554 S
O125 C139 1.253 1_565 S
Mg126 O125 1.990 1_556 S
Mg126 O129 2.180 . S
Mg126 O130 2.117 1_556 S
Mg126 O144 2.030 . S
O127 Mg128 2.072 . S
O127 C139 1.260 1_556 S
Mg128 O127 2.072 . S
Mg128 O129 2.099 1_545 S
Mg128 O131 2.079 1_545 S
Mg128 O132 2.072 1_545 S
Mg128 O134 2.099 . S
Mg128 O145 2.079 . S
O129 Mg126 2.180 . S
O129 Mg128 2.099 1_565 S
O129 C140 1.279 . S
O130 Mg126 2.117 1_554 S
O130 C140 1.250 1_554 S
O131 Mg128 2.079 1_565 S
O131 C141 1.264 . S
O132 Mg128 2.072 1_565 S
O132 C142 1.260 1_565 S
Mg133 O134 2.180 . S
Mg133 O135 2.030 . S
Mg133 O136 1.990 . S
Mg133 O137 2.117 . S
O134 Mg128 2.099 . S
O134 Mg133 2.180 . S
O134 C143 1.279 . S
O135 Mg133 2.030 . S
O135 C141 1.248 1_545 S
O136 Mg133 1.990 . S
O136 C142 1.253 . S
O137 Mg133 2.117 . S
O137 C143 1.250 . S
C138 O144 1.248 . S
C138 O145 1.264 1_565 S
C139 O125 1.253 1_545 S
C139 O127 1.260 1_554 S
C140 O129 1.279 . S
C140 O130 1.250 1_556 S
C141 O131 1.264 . S
C141 O135 1.248 1_565 S
C142 O132 1.260 1_545 S
C142 O136 1.253 . S
C143 O134 1.279 . S
C143 O137 1.250 . S
O144 Mg126 2.030 . S
O144 C138 1.248 . S
O145 Mg128 2.079 . S
O145 C138 1.264 1_545 S
O146 Mg147 1.990 1_554 S
O146 C160 1.253 . S
Mg147 O146 1.990 1_556 S
Mg147 O150 2.180 . S
Mg147 O151 2.117 1_556 S
Mg147 O165 2.030 . S
O148 Mg149 2.072 . S
O148 C160 1.260 1_556 S
Mg149 O148 2.072 . S
Mg149 O150 2.099 . S
Mg149 O152 2.079 . S
Mg149 O153 2.072 . S
Mg149 O155 2.099 . S
Mg149 O166 2.079 . S
O150 Mg147 2.180 . S
O150 Mg149 2.099 . S
O150 C161 1.279 . S
O151 Mg147 2.117 1_554 S
O151 C161 1.250 1_554 S
O152 Mg149 2.079 . S
O152 C162 1.264 . S
O153 Mg149 2.072 . S
O153 C163 1.260 . S
Mg154 O155 2.180 . S
Mg154 O156 2.030 . S
Mg154 O157 1.990 . S
Mg154 O158 2.117 . S
O155 Mg149 2.099 . S
O155 Mg154 2.180 . S
O155 C164 1.279 . S
O156 Mg154 2.030 . S
O156 C162 1.248 . S
O157 Mg154 1.990 . S
O157 C163 1.253 . S
O158 Mg154 2.117 . S
O158 C164 1.250 . S
C159 O165 1.248 . S
C159 O166 1.264 . S
C160 O146 1.253 . S
C160 O148 1.260 1_554 S
C161 O150 1.279 . S
C161 O151 1.250 1_556 S
C162 O152 1.264 . S
C162 O156 1.248 . S
C163 O153 1.260 . S
C163 O157 1.253 . S
C164 O155 1.279 . S
C164 O158 1.250 . S
O165 Mg147 2.030 . S
O165 C159 1.248 . S
O166 Mg149 2.079 . S
O166 C159 1.264 . S
O167 Mg168 1.990 . S
O167 C181 1.253 . S
Mg168 O167 1.990 . S
Mg168 O171 2.180 . S
Mg168 O172 2.117 . S
Mg168 O186 2.030 . S
O169 Mg170 2.072 1_655 S
O169 C181 1.260 . S
Mg170 O169 2.072 1_455 S
Mg170 O171 2.099 1_455 S
Mg170 O173 2.079 . S
Mg170 O174 2.072 . S
Mg170 O176 2.099 . S
Mg170 O187 2.079 1_455 S
O171 Mg168 2.180 . S
O171 Mg170 2.099 1_655 S
O171 C182 1.279 . S
O172 Mg168 2.117 . S
O172 C182 1.250 . S
O173 Mg170 2.079 . S
O173 C183 1.264 . S
O174 Mg170 2.072 . S
O174 C184 1.260 1_556 S
Mg175 O176 2.180 . S
Mg175 O177 2.030 . S
Mg175 O178 1.990 1_556 S
Mg175 O179 2.117 1_556 S
O176 Mg170 2.099 . S
O176 Mg175 2.180 . S
O176 C185 1.279 . S
O177 Mg175 2.030 . S
O177 C183 1.248 . S
O178 Mg175 1.990 1_554 S
O178 C184 1.253 . S
O179 Mg175 2.117 1_554 S
O179 C185 1.250 1_554 S
C180 O186 1.248 . S
C180 O187 1.264 . S
C181 O167 1.253 . S
C181 O169 1.260 . S
C182 O171 1.279 . S
C182 O172 1.250 . S
C183 O173 1.264 . S
C183 O177 1.248 . S
C184 O174 1.260 1_554 S
C184 O178 1.253 . S
C185 O176 1.279 . S
C185 O179 1.250 1_556 S
O186 Mg168 2.030 . S
O186 C180 1.248 . S
O187 Mg170 2.079 1_655 S
O187 C180 1.264 . S
C82 C119 1.934 1_545 S
C143 C95 1.936 . S
C164 C56 1.934 . S
C182 C69 1.935 1_655 S
C122 C30 1.328 1_545 S
C43 C140 1.329 . S
C4 C161 1.328 . S
C17 C185 1.329 1_655 S
C120 C74 1.254 1_655 S
C138 C87 1.253 1_565 S
C159 C100 1.254 . S
C61 C183 1.253 . S
C22 C118 1.312 1_655 S
C142 C35 1.311 1_545 S
C163 C48 1.312 . S
C9 C181 1.311 . S
C73 C121 1.582 . S
C86 C139 1.582 . S
C160 C99 1.582 . S
C184 C60 1.582 . S
C21 C117 1.350 . S
C141 C34 1.350 . S
C162 C47 1.350 . S
C8 C180 1.350 . S
