# Generated by pormake.
# Topology pts, (4,4)-cn, num edge types: 1
# Building blocks:
#     Node 0, Type 0, BuildingBlock: GIZVER_clean_linker_0, # of connection points: 4
#     Node 1, Type 0, BuildingBlock: GIZVER_clean_linker_0, # of connection points: 4
#     Node 2, Type 1, BuildingBlock: AZAVOO_clean_sbu_0, # of connection points: 4
#     Node 3, Type 1, BuildingBlock: AZAVOO_clean_sbu_0, # of connection points: 4
#     Edge 4, Type (0, 1), BuildingBlock: XIVTED_clean_linker_0, # of connection points: 2
#     Edge 5, Type (0, 1), BuildingBlock: XIVTED_clean_linker_0, # of connection points: 2
#     Edge 6, Type (0, 1), BuildingBlock: XIVTED_clean_linker_0, # of connection points: 2
#     Edge 7, Type (0, 1), BuildingBlock: XIVTED_clean_linker_0, # of connection points: 2
#     Edge 8, Type (0, 1), BuildingBlock: XIVTED_clean_linker_0, # of connection points: 2
#     Edge 9, Type (0, 1), BuildingBlock: XIVTED_clean_linker_0, # of connection points: 2
#     Edge 10, Type (0, 1), BuildingBlock: XIVTED_clean_linker_0, # of connection points: 2
#     Edge 11, Type (0, 1), BuildingBlock: XIVTED_clean_linker_0, # of connection points: 2
# Relax obj value: 0.014
# Max RMSD: 0.077
# Mean RMSD: 0.070
data_MOF--net-pts--node1-AZAVOO_clean_sbu_0--node2-GIZVER_clean_linker_0--edge1-XIVTED_clean_linker_0
_symmetry_space_group_name_H-M    P1
_symmetry_Int_Tables_number       1
_symmetry_cell_setting            triclinic
loop_
_symmetry_equiv_pos_as_xyz
'x, y, z'
_cell_length_a     24.97677
_cell_length_b     26.477512
_cell_length_c     35.466583
_cell_angle_alpha  90.420469
_cell_angle_beta   95.914845
_cell_angle_gamma 89.796527
loop_
_atom_site_label
_atom_site_type_symbol
_atom_site_fract_x
_atom_site_fract_y
_atom_site_fract_z
_atom_type_partial_charge
H0 H 0.59042 0.07769 0.03242 0.0
H1 H 0.59459 0.11766 0.91516 0.0
H2 H 0.72753 0.03839 0.97393 0.0
H3 H 0.54151 0.15597 0.00072 0.0
H4 H 0.52907 0.15622 0.9504 0.0
H5 H 0.4779 0.1169 0.03614 0.0
H6 H 0.34513 0.03688 -0.02242 0.0
H7 H 0.47992 0.07807 0.91802 0.0
C8 C 0.61039 0.07632 0.00671 0.0
C9 C 0.66146 0.05358 0.00702 0.0
C10 C 0.58579 0.09931 0.97361 0.0
C11 C 0.61242 0.09873 0.94043 0.0
C12 C 0.66378 0.07701 0.94068 0.0
C13 C 0.68737 0.05411 0.97377 0.0
C14 C 0.53555 0.13086 -0.02465 0.0
C15 C 0.48547 0.09942 -0.02285 0.0
C16 C 0.45978 0.09813 0.01073 0.0
C17 C 0.40885 0.07592 0.01073 0.0
C18 C 0.38492 0.05305 -0.02248 0.0
C19 C 0.40998 0.05314 0.94392 0.0
C20 C 0.4606 0.07634 0.94397 0.0
H21 H 0.11572 0.55086 0.41948 0.0
H22 H 0.13723 0.55423 0.54157 0.0
H23 H 0.04684 0.67133 0.48111 0.0
H24 H 0.18521 0.49805 0.45511 0.0
H25 H 0.19207 0.49775 0.50588 0.0
H26 H 0.11705 0.44649 0.41881 0.0
H27 H 0.03266 0.33692 0.47888 0.0
H28 H 0.12794 0.45043 0.54089 0.0
C29 C 0.10801 0.56859 0.44603 0.0
C30 C 0.07789 0.61355 0.44583 0.0
C31 C 0.1292 0.54681 0.48046 0.0
C32 C 0.12009 0.57019 0.51494 0.0
C33 C 0.0893 0.61443 0.515 0.0
C34 C 0.06809 0.63559 0.4806 0.0
C35 C 0.1622 0.49919 0.48036 0.0
C36 C 0.12562 0.45409 0.47985 0.0
C37 C 0.10534 0.4318 0.44519 0.0
C38 C 0.07123 0.38975 0.44462 0.0
C39 C 0.05657 0.37104 0.47898 0.0
C40 C 0.07706 0.39234 0.51375 0.0
C41 C 0.11138 0.43415 0.51408 0.0
Mg42 Mg 0.0705 0.98655 0.25112 0.0
O43 O 0.98779 0.98614 0.21498 0.0
O44 O 0.92595 0.97607 0.25588 0.0
Mg45 Mg 0.96739 0.9663 0.3156 0.0
C46 C 0.93877 0.9826 0.22233 0.0
C47 C 0.16587 0.01977 0.21225 0.0
O48 O 0.1858 1.00327 0.24566 0.0
O49 O 0.05266 0.06519 0.27279 0.0
O50 O 0.99238 0.04981 0.31365 0.0
O51 O 0.0792 0.90334 0.24458 0.0
O52 O 0.03931 0.94022 0.29029 0.0
C53 C 0.02179 0.08026 0.2971 0.0
C54 C 0.05291 0.89913 0.274 0.0
O55 O 0.11507 0.01906 0.20396 0.0
Mg56 Mg 1.00109 0.99091 0.69808 0.0
O57 O 0.08407 0.99131 0.73436 0.0
O58 O 0.14577 0.98085 0.69313 0.0
Mg59 Mg 0.10472 0.97113 0.63335 0.0
C60 C 0.13308 0.98771 0.72678 0.0
C61 C 0.90454 0.02355 0.73653 0.0
O62 O 0.88542 0.00747 0.70267 0.0
O63 O 1.01825 0.06999 0.67749 0.0
O64 O 0.07971 0.05439 0.63729 0.0
O65 O 0.99378 0.90739 0.70399 0.0
O66 O 0.03411 0.94477 0.65916 0.0
C67 C 0.05 0.08495 0.65393 0.0
C68 C 0.02176 0.90364 0.67535 0.0
O69 O 0.95526 0.02295 0.74527 0.0
H70 H 0.44108 0.05041 0.08468 0.0
H71 H 0.13951 0.06025 0.14173 0.0
H72 H 0.30551 0.10783 0.01232 0.0
H73 H 0.27593 0.01681 0.21959 0.0
H74 H 0.20109 0.08275 0.09534 0.0
H75 H 0.38326 0.04384 0.13648 0.0
C76 C 0.39943 0.06238 0.07995 0.0
C77 C 0.37774 0.07888 0.04411 0.0
C78 C 0.21763 0.06861 0.12268 0.0
C79 C 0.3114 0.07101 0.10271 0.0
C80 C 0.18241 0.05567 0.14915 0.0
C81 C 0.20251 0.03627 0.18449 0.0
C82 C 0.2734 0.06178 0.13147 0.0
C83 C 0.25858 0.03141 0.19261 0.0
C84 C 0.36636 0.05838 0.10936 0.0
C85 C 0.32351 0.09392 0.03936 0.0
N86 N 0.29202 0.04368 0.16621 0.0
N87 N 0.29213 0.08913 0.06813 0.0
H88 H 0.98226 0.36076 0.53781 0.0
H89 H 0.97351 0.15866 0.66046 0.0
H90 H 0.15393 0.35878 0.56771 0.0
H91 H 0.13347 0.13496 0.62776 0.0
H92 H 0.97684 0.24642 0.63891 0.0
H93 H 0.97265 0.29381 0.58364 0.0
C94 C 1.01768 0.34747 0.55517 0.0
C95 C 0.06897 0.36492 0.54889 0.0
C96 C 1.01116 0.22196 0.63656 0.0
C97 C 0.05857 0.28812 0.60104 0.0
C98 C 1.00943 0.17204 0.64905 0.0
C99 C 0.05279 0.13923 0.64502 0.0
C100 C 0.05679 0.23897 0.62032 0.0
C101 C 0.09862 0.15861 0.63053 0.0
C102 C 1.01222 0.30933 0.58144 0.0
C103 C 0.11368 0.3464 0.57181 0.0
N104 N 0.09929 0.20709 0.61856 0.0
N105 N 0.10759 0.30799 0.59616 0.0
H106 H 0.66576 0.09359 0.07914 0.0
H107 H 0.94099 0.96201 0.14656 0.0
H108 H 0.72711 0.97018 0.0157 0.0
H109 H 0.83627 0.01541 0.2279 0.0
H110 H 0.86677 0.97224 0.09616 0.0
H111 H 0.72964 0.07099 0.13346 0.0
C112 C 0.69169 0.0611 0.07681 0.0
C113 C 0.69155 0.03431 0.04247 0.0
C114 C 0.86009 0.98132 0.12514 0.0
C115 C 0.76592 0.0096 0.10402 0.0
C116 C 0.90245 0.97585 0.15378 0.0
C117 C 0.89473 0.98785 0.19141 0.0
C118 C 0.81021 1.00006 0.13412 0.0
C119 C 0.84385 0.00546 0.19927 0.0
C120 C 0.72848 0.04855 0.10774 0.0
C121 C 0.72676 0.99286 0.04119 0.0
N122 N 0.80367 0.01162 0.1708 0.0
N123 N 0.76324 0.98242 0.07121 0.0
H124 H 0.99717 0.63321 0.54743 0.0
H125 H 0.11352 0.88011 0.64308 0.0
H126 H 0.16768 0.66216 0.5604 0.0
H127 H 0.96808 0.8144 0.6765 0.0
H128 H 0.13492 0.79986 0.61358 0.0
H129 H 0.98525 0.69702 0.59637 0.0
C130 C 0.03219 0.65209 0.56151 0.0
C131 C 0.08343 0.64261 0.55028 0.0
C132 C 0.09871 0.80275 0.62785 0.0
C133 C 0.07012 0.71649 0.60488 0.0
C134 C 0.08622 0.84871 0.64431 0.0
C135 C 0.03851 0.85403 0.66157 0.0
C136 C 0.06255 0.76228 0.62788 0.0
C137 C 1.00515 0.81178 0.66323 0.0
C138 C 0.02546 0.68848 0.58927 0.0
C139 C 0.12764 0.66835 0.56871 0.0
N140 N 1.01723 0.76784 0.64587 0.0
N141 N 0.11986 0.70499 0.59462 0.0
H142 H 0.34589 0.969 0.93456 0.0
H143 H 0.23407 0.02287 0.72066 0.0
H144 H 0.40284 0.09429 0.87253 0.0
H145 H 0.13335 0.96547 0.80237 0.0
H146 H 0.30772 0.03281 0.77124 0.0
H147 H 0.2802 0.94966 0.88049 0.0
C148 C 0.3451 0.99211 0.90943 0.0
C149 C 0.37929 0.03409 0.90849 0.0
C150 C 0.26955 0.01787 0.77798 0.0
C151 C 0.3049 0.01131 0.84637 0.0
C152 C 0.22755 0.01204 0.74923 0.0
C153 C 0.17746 0.99342 0.75741 0.0
C154 C 0.26183 0.00393 0.81504 0.0
C155 C 0.17119 0.98029 0.79493 0.0
C156 C 0.30755 0.981 0.87869 0.0
C157 C 0.37746 0.06161 0.87466 0.0
N158 N 0.21308 0.98551 0.8224 0.0
N159 N 0.34053 0.04994 0.84499 0.0
H160 H 0.13691 0.36012 0.39132 0.0
H161 H 0.94496 0.13127 0.33168 0.0
H162 H 0.97305 0.3503 0.41882 0.0
H163 H 0.09763 0.15241 0.28703 0.0
H164 H 0.94973 0.2175 0.35613 0.0
H165 H 0.11857 0.29252 0.34451 0.0
C166 C 0.09657 0.34487 0.38664 0.0
C167 C 0.05667 0.36014 0.40945 0.0
C168 C 0.98193 0.20365 0.34056 0.0
C169 C 0.03584 0.28193 0.35677 0.0
C170 C 0.97934 0.15424 0.32675 0.0
C171 C 0.02143 0.1343 0.30788 0.0
C172 C 0.02741 0.23322 0.33611 0.0
C173 C 0.06451 0.16612 0.30174 0.0
C174 C 0.08623 0.30592 0.36013 0.0
C175 C 1.00524 0.33883 0.40234 0.0
N176 N 0.06687 0.21376 0.31641 0.0
N177 N 0.99659 0.30014 0.37717 0.0
H178 H 0.76653 0.11056 0.94059 0.0
H179 H 0.79447 0.02128 0.72766 0.0
H180 H 0.6338 0.05127 0.8662 0.0
H181 H 0.92897 0.0616 0.80848 0.0
H182 H 0.7331 0.04266 0.77475 0.0
H183 H 0.82384 0.1046 0.88907 0.0
C184 C 0.74938 0.09663 0.91319 0.0
C185 C 0.69561 0.0806 0.90774 0.0
C186 C 0.776 0.04711 0.7821 0.0
C187 C 0.76112 0.07351 0.84855 0.0
C188 C 0.81116 0.03494 0.75523 0.0
C189 C 0.86709 0.03928 0.76422 0.0
C190 C 0.79682 0.06395 0.81824 0.0
C191 C 0.88624 0.05735 0.80037 0.0
C192 C 0.78213 0.0932 0.8838 0.0
C193 C 0.67511 0.06383 0.87154 0.0
N194 N 0.85117 0.06881 0.82607 0.0
N195 N 0.70811 0.06015 0.84335 0.0
H196 H 0.13582 0.62567 0.38486 0.0
H197 H 0.98313 0.87542 0.32599 0.0
H198 H 0.98421 0.66581 0.42565 0.0
H199 H 0.09945 0.80891 0.25845 0.0
H200 H 0.97763 0.7955 0.359 0.0
H201 H 0.11817 0.68679 0.33395 0.0
C202 C 0.09811 0.64628 0.38257 0.0
C203 C 0.06198 0.64131 0.41013 0.0
C204 C 1.00366 0.79804 0.33649 0.0
C205 C 0.0423 0.71245 0.35248 0.0
C206 C 1.00695 0.84383 0.3177 0.0
C207 C 0.04237 0.8491 0.2898 0.0
C208 C 0.0369 0.75755 0.32787 0.0
C209 C 0.07188 0.8066 0.28 0.0
C210 C 0.08822 0.6815 0.35357 0.0
C211 C 1.01397 0.66947 0.40571 0.0
N212 N 0.0693 0.76286 0.29954 0.0
N213 N 1.00606 0.70458 0.37797 0.0
loop_
_geom_bond_atom_site_label_1
_geom_bond_atom_site_label_2
_geom_bond_distance
_geom_bond_site_symmetry_2
_ccdc_geom_bond_type
H0 C8 0.930 . S
H1 C11 0.930 . S
H2 C13 0.930 . S
H3 C14 0.970 . S
H4 C14 0.970 1_556 S
H5 C16 0.930 . S
H6 C18 0.928 . S
H7 C20 0.930 . S
C8 H0 0.930 . S
C8 C9 1.382 . S
C8 C10 1.426 . S
C9 C8 1.382 . S
C9 C13 1.389 1_545 S
C10 C8 1.426 . S
C10 C11 1.375 1_554 S
C10 C14 1.532 . S
C11 H1 0.930 . S
C11 C10 1.375 1_556 S
C11 C12 1.416 . S
C12 C11 1.416 . S
C12 C13 1.371 1_546 S
C13 H2 0.930 . S
C13 C9 1.389 1_565 S
C13 C12 1.371 1_564 S
C14 H3 0.970 . S
C14 H4 0.970 1_554 S
C14 C10 1.532 . S
C14 C15 1.499 . S
C15 C14 1.499 . S
C15 C16 1.376 . S
C15 C20 1.411 1_554 S
C16 H5 0.930 . S
C16 C15 1.376 . S
C16 C17 1.407 . S
C17 C16 1.407 . S
C17 C18 1.341 1_544 S
C18 H6 0.928 . S
C18 C17 1.341 1_566 S
C18 C19 1.419 1_565 S
C19 C18 1.419 1_545 S
C19 C20 1.387 . S
C20 H7 0.930 . S
C20 C15 1.411 1_556 S
C20 C19 1.387 . S
H21 C29 0.930 . S
H22 C32 0.930 . S
H23 C34 0.930 1_655 S
H24 C35 0.970 . S
H25 C35 0.970 . S
H26 C37 0.930 . S
H27 C39 0.930 1_655 S
H28 C41 0.930 . S
C29 H21 0.930 . S
C29 C30 1.382 . S
C29 C31 1.426 . S
C30 C29 1.382 . S
C30 C34 1.389 . S
C31 C29 1.426 . S
C31 C32 1.375 . S
C31 C35 1.532 . S
C32 H22 0.930 . S
C32 C31 1.375 . S
C32 C33 1.416 . S
C33 C32 1.416 . S
C33 C34 1.371 . S
C34 H23 0.930 1_455 S
C34 C30 1.389 . S
C34 C33 1.371 . S
C35 H24 0.970 . S
C35 H25 0.970 . S
C35 C31 1.532 . S
C35 C36 1.499 . S
C36 C35 1.499 . S
C36 C37 1.370 . S
C36 C41 1.415 . S
C37 H26 0.930 . S
C37 C36 1.370 . S
C37 C38 1.407 . S
C38 C37 1.407 . S
C38 C39 1.365 . S
C39 H27 0.930 1_455 S
C39 C38 1.365 . S
C39 C40 1.393 . S
C40 C39 1.393 . S
C40 C41 1.387 . S
C41 H28 0.930 . S
C41 C36 1.415 . S
C41 C40 1.387 . S
Mg42 O43 2.028 . S
Mg42 O49 1.986 . S
Mg42 O51 2.114 1_545 S
Mg42 O52 2.251 1_545 S
Mg42 O55 2.010 . S
O43 Mg42 2.028 . S
O43 C46 1.250 1_455 S
O44 Mg45 2.028 . S
O44 C46 1.248 . S
Mg45 O44 2.028 . S
Mg45 O50 2.032 . S
Mg45 O52 2.079 1_645 S
C46 O43 1.250 1_655 S
C46 O44 1.248 . S
C47 O48 1.264 . S
C47 O55 1.249 . S
O48 C47 1.264 . S
O49 Mg42 1.986 . S
O49 C53 1.246 . S
O50 Mg45 2.032 . S
O50 C53 1.259 1_655 S
O51 Mg42 2.114 1_565 S
O51 C54 1.252 . S
O52 Mg42 2.251 1_565 S
O52 Mg45 2.079 1_465 S
O52 C54 1.273 . S
C53 O49 1.246 . S
C53 O50 1.259 1_455 S
C54 O51 1.252 . S
C54 O52 1.273 . S
O55 Mg42 2.010 . S
O55 C47 1.249 . S
Mg56 O57 2.028 1_655 S
Mg56 O63 1.986 . S
Mg56 O65 2.114 1_545 S
Mg56 O66 2.251 1_645 S
Mg56 O69 2.010 . S
O57 Mg56 2.028 1_455 S
O57 C60 1.250 . S
O58 Mg59 2.028 . S
O58 C60 1.248 . S
Mg59 O58 2.028 . S
Mg59 O64 2.032 . S
Mg59 O66 2.079 1_545 S
C60 O57 1.250 . S
C60 O58 1.248 . S
C61 O62 1.264 . S
C61 O69 1.249 . S
O62 C61 1.264 . S
O63 Mg56 1.986 . S
O63 C67 1.246 1_655 S
O64 Mg59 2.032 . S
O64 C67 1.259 . S
O65 Mg56 2.114 1_565 S
O65 C68 1.252 1_655 S
O66 Mg56 2.251 1_465 S
O66 Mg59 2.079 1_565 S
O66 C68 1.273 . S
C67 O63 1.246 1_455 S
C67 O64 1.259 . S
C68 O65 1.252 1_455 S
C68 O66 1.273 . S
O69 Mg56 2.010 . S
O69 C61 1.249 . S
H70 C76 0.930 . S
H71 C80 0.930 . S
H72 C85 0.929 . S
H73 C83 0.929 . S
H74 C78 0.929 . S
H75 C84 0.929 . S
C76 H70 0.930 . S
C76 C77 1.383 . S
C76 C84 1.378 . S
C77 C76 1.383 . S
C77 C85 1.416 1_565 S
C78 H74 0.929 . S
C78 C80 1.378 . S
C78 C82 1.350 . S
C79 C82 1.463 . S
C79 C84 1.350 1_545 S
C79 N87 1.427 . S
C80 H71 0.930 . S
C80 C78 1.378 . S
C80 C81 1.367 . S
C81 C80 1.367 . S
C81 C83 1.433 1_545 S
C82 C78 1.350 . S
C82 C79 1.463 . S
C82 N86 1.427 1_545 S
C83 H73 0.929 . S
C83 C81 1.433 1_565 S
C83 N86 1.384 . S
C84 H75 0.929 . S
C84 C76 1.378 . S
C84 C79 1.350 1_565 S
C85 H72 0.929 . S
C85 C77 1.416 1_545 S
C85 N87 1.384 . S
N86 C82 1.427 1_565 S
N86 C83 1.384 . S
N87 C79 1.427 . S
N87 C85 1.384 . S
H88 C94 0.930 . S
H89 C98 0.930 . S
H90 C103 0.929 1_655 S
H91 C101 0.929 . S
H92 C96 0.929 . S
H93 C102 0.929 . S
C94 H88 0.930 . S
C94 C95 1.367 . S
C94 C102 1.378 . S
C95 C94 1.367 . S
C95 C103 1.433 . S
C96 H92 0.929 . S
C96 C98 1.378 . S
C96 C100 1.350 1_655 S
C97 C100 1.463 . S
C97 C102 1.350 . S
C97 N105 1.427 . S
C98 H89 0.930 . S
C98 C96 1.378 . S
C98 C99 1.367 1_655 S
C99 C98 1.367 1_455 S
C99 C101 1.433 . S
C100 C96 1.350 1_455 S
C100 C97 1.463 . S
C100 N104 1.427 . S
C101 H91 0.929 . S
C101 C99 1.433 . S
C101 N104 1.384 . S
C102 H93 0.929 . S
C102 C94 1.378 . S
C102 C97 1.350 . S
C103 H90 0.929 1_455 S
C103 C95 1.433 . S
C103 N105 1.384 . S
N104 C100 1.427 . S
N104 C101 1.384 . S
N105 C97 1.427 . S
N105 C103 1.384 . S
H106 C112 0.930 . S
H107 C116 0.930 . S
H108 C121 0.929 . S
H109 C119 0.929 . S
H110 C114 0.929 . S
H111 C120 0.929 . S
C112 H106 0.930 . S
C112 C113 1.367 . S
C112 C120 1.378 . S
C113 C112 1.367 . S
C113 C121 1.433 1_545 S
C114 H110 0.929 . S
C114 C116 1.378 . S
C114 C118 1.350 1_565 S
C115 C118 1.463 . S
C115 C120 1.350 . S
C115 N123 1.427 1_545 S
C116 H107 0.930 . S
C116 C114 1.378 . S
C116 C117 1.367 1_565 S
C117 C116 1.367 1_545 S
C117 C119 1.433 . S
C118 C114 1.350 1_545 S
C118 C115 1.463 . S
C118 N122 1.427 . S
C119 H109 0.929 . S
C119 C117 1.433 . S
C119 N122 1.384 . S
C120 H111 0.929 . S
C120 C112 1.378 . S
C120 C115 1.350 . S
C121 H108 0.929 . S
C121 C113 1.433 1_565 S
C121 N123 1.384 . S
N122 C118 1.427 . S
N122 C119 1.384 . S
N123 C115 1.427 1_565 S
N123 C121 1.384 . S
H124 C130 0.930 . S
H125 C134 0.929 1_655 S
H126 C139 0.929 . S
H127 C137 0.929 . S
H128 C132 0.929 . S
H129 C138 0.929 . S
C130 H124 0.930 . S
C130 C131 1.367 . S
C130 C138 1.378 . S
C131 C130 1.367 . S
C131 C139 1.433 . S
C132 H128 0.929 . S
C132 C134 1.378 . S
C132 C136 1.350 . S
C133 C136 1.463 . S
C133 C138 1.350 . S
C133 N141 1.427 . S
C134 H125 0.929 1_455 S
C134 C132 1.378 . S
C134 C135 1.367 . S
C135 C134 1.367 . S
C135 C137 1.433 . S
C136 C132 1.350 . S
C136 C133 1.463 . S
C136 N140 1.427 . S
C137 H127 0.929 . S
C137 C135 1.433 . S
C137 N140 1.384 . S
C138 H129 0.929 . S
C138 C130 1.378 . S
C138 C133 1.350 . S
C139 H126 0.929 . S
C139 C131 1.433 . S
C139 N141 1.384 . S
N140 C136 1.427 . S
N140 C137 1.384 . S
N141 C133 1.427 . S
N141 C139 1.384 . S
H142 C148 0.930 . S
H143 C152 0.930 . S
H144 C157 0.929 . S
H145 C155 0.929 . S
H146 C150 0.929 . S
H147 C156 0.929 . S
C148 H142 0.930 . S
C148 C149 1.367 1_565 S
C148 C156 1.378 . S
C149 C148 1.367 1_545 S
C149 C157 1.433 . S
C150 H146 0.929 . S
C150 C152 1.378 . S
C150 C154 1.350 . S
C151 C154 1.463 . S
C151 C156 1.350 1_545 S
C151 N159 1.427 . S
C152 H143 0.930 . S
C152 C150 1.378 . S
C152 C153 1.367 . S
C153 C152 1.367 . S
C153 C155 1.433 1_545 S
C154 C150 1.350 . S
C154 C151 1.463 . S
C154 N158 1.427 1_545 S
C155 H145 0.929 . S
C155 C153 1.433 1_565 S
C155 N158 1.384 . S
C156 H147 0.929 . S
C156 C148 1.378 . S
C156 C151 1.350 1_565 S
C157 H144 0.929 . S
C157 C149 1.433 . S
C157 N159 1.384 . S
N158 C154 1.427 1_565 S
N158 C155 1.384 . S
N159 C151 1.427 . S
N159 C157 1.384 . S
H160 C166 0.930 . S
H161 C170 0.930 . S
H162 C175 0.929 . S
H163 C173 0.929 . S
H164 C168 0.929 . S
H165 C174 0.929 . S
C166 H160 0.930 . S
C166 C167 1.367 . S
C166 C174 1.378 . S
C167 C166 1.367 . S
C167 C175 1.433 . S
C168 H164 0.929 . S
C168 C170 1.378 . S
C168 C172 1.350 . S
C169 C172 1.463 . S
C169 C174 1.350 . S
C169 N177 1.427 . S
C170 H161 0.930 . S
C170 C168 1.378 . S
C170 C171 1.367 . S
C171 C170 1.367 . S
C171 C173 1.433 . S
C172 C168 1.350 . S
C172 C169 1.463 . S
C172 N176 1.427 . S
C173 H163 0.929 . S
C173 C171 1.433 . S
C173 N176 1.384 . S
C174 H165 0.929 . S
C174 C166 1.378 . S
C174 C169 1.350 . S
C175 H162 0.929 . S
C175 C167 1.433 . S
C175 N177 1.384 . S
N176 C172 1.427 . S
N176 C173 1.384 . S
N177 C169 1.427 . S
N177 C175 1.384 . S
H178 C184 0.930 . S
H179 C188 0.930 . S
H180 C193 0.929 . S
H181 C191 0.929 . S
H182 C186 0.929 . S
H183 C192 0.929 . S
C184 H178 0.930 . S
C184 C185 1.381 . S
C184 C192 1.378 . S
C185 C184 1.381 . S
C185 C193 1.420 1_545 S
C186 H182 0.929 . S
C186 C188 1.378 . S
C186 C190 1.350 1_565 S
C187 C190 1.463 . S
C187 C192 1.350 . S
C187 N195 1.427 1_545 S
C188 H179 0.930 . S
C188 C186 1.378 . S
C188 C189 1.367 1_565 S
C189 C188 1.367 1_545 S
C189 C191 1.433 . S
C190 C186 1.350 1_545 S
C190 C187 1.463 . S
C190 N194 1.427 . S
C191 H181 0.929 . S
C191 C189 1.433 . S
C191 N194 1.384 . S
C192 H183 0.929 . S
C192 C184 1.378 . S
C192 C187 1.350 . S
C193 H180 0.929 . S
C193 C185 1.420 1_565 S
C193 N195 1.384 . S
N194 C190 1.427 . S
N194 C191 1.384 . S
N195 C187 1.427 1_565 S
N195 C193 1.384 . S
H196 C202 0.930 . S
H197 C206 0.930 . S
H198 C211 0.929 . S
H199 C209 0.929 . S
H200 C204 0.929 . S
H201 C210 0.929 . S
C202 H196 0.930 . S
C202 C203 1.367 . S
C202 C210 1.378 . S
C203 C202 1.367 . S
C203 C211 1.433 1_455 S
C204 H200 0.929 . S
C204 C206 1.378 . S
C204 C208 1.350 1_655 S
C205 C208 1.463 . S
C205 C210 1.350 . S
C205 N213 1.427 1_455 S
C206 H197 0.930 . S
C206 C204 1.378 . S
C206 C207 1.367 1_655 S
C207 C206 1.367 1_455 S
C207 C209 1.433 . S
C208 C204 1.350 1_455 S
C208 C205 1.463 . S
C208 N212 1.427 . S
C209 H199 0.929 . S
C209 C207 1.433 . S
C209 N212 1.384 . S
C210 H201 0.929 . S
C210 C202 1.378 . S
C210 C205 1.350 . S
C211 H198 0.929 . S
C211 C203 1.433 1_655 S
C211 N213 1.384 . S
N212 C208 1.427 . S
N212 C209 1.384 . S
N213 C205 1.427 1_655 S
N213 C211 1.384 . S
C81 C47 1.283 . S
C77 C17 1.473 1_565 S
C99 C67 1.520 . S
C95 C40 1.485 . S
C117 C46 1.500 . S
C113 C9 1.473 . S
C135 C68 1.551 . S
C131 C33 1.458 . S
C153 C60 1.482 . S
C149 C19 1.473 . S
C171 C53 1.527 . S
C167 C38 1.467 . S
C189 C61 1.272 . S
C185 C12 1.450 . S
C203 C30 1.476 . S
C207 C54 1.558 . S
