# Generated by pormake.
# Topology tsx, (6,3)-cn, num edge types: 1
# Building blocks:
#     Node 0, Type 0, BuildingBlock: LEVNOQ01_clean_sbu_1, # of connection points: 6
#     Node 1, Type 0, BuildingBlock: LEVNOQ01_clean_sbu_1, # of connection points: 6
#     Node 2, Type 1, BuildingBlock: INOVEN_clean_linker_0, # of connection points: 3
#     Node 3, Type 1, BuildingBlock: INOVEN_clean_linker_0, # of connection points: 3
#     Node 4, Type 1, BuildingBlock: INOVEN_clean_linker_0, # of connection points: 3
#     Node 5, Type 1, BuildingBlock: INOVEN_clean_linker_0, # of connection points: 3
#     Edge 6, Type (0, 1), None
#     Edge 7, Type (0, 1), None
#     Edge 8, Type (0, 1), None
#     Edge 9, Type (0, 1), None
#     Edge 10, Type (0, 1), None
#     Edge 11, Type (0, 1), None
#     Edge 12, Type (0, 1), None
#     Edge 13, Type (0, 1), None
#     Edge 14, Type (0, 1), None
#     Edge 15, Type (0, 1), None
#     Edge 16, Type (0, 1), None
#     Edge 17, Type (0, 1), None
# Relax obj value: 0.098
# Max RMSD: 0.128
# Mean RMSD: 0.099
data_MOF--net-tsx--node1-LEVNOQ01_clean_sbu_1--node2-INOVEN_clean_linker_0--edge1-none
_symmetry_space_group_name_H-M    P1
_symmetry_Int_Tables_number       1
_symmetry_cell_setting            triclinic
loop_
_symmetry_equiv_pos_as_xyz
'x, y, z'
_cell_length_a     8.4399273
_cell_length_b     9.9782285
_cell_length_c     15.547215
_cell_angle_alpha  92.828277
_cell_angle_beta   104.09904
_cell_angle_gamma 94.083708
loop_
_atom_site_label
_atom_site_type_symbol
_atom_site_fract_x
_atom_site_fract_y
_atom_site_fract_z
_atom_type_partial_charge
O0 O 0.3693 0.94817 0.12252 0.0
Mg1 Mg 0.37783 0.02444 -0.00539 0.0
O2 O 0.13439 0.03576 0.09865 0.0
Mg3 Mg 0.05117 0.99633 0.95364 0.0
O4 O 0.23663 0.16992 0.94231 0.0
O5 O 0.49318 0.21006 0.02764 0.0
O6 O 0.94797 0.9539 0.80798 0.0
O7 O 0.96896 0.21391 0.92028 0.0
Mg8 Mg 0.79751 0.03644 0.95468 0.0
O9 O 0.85225 0.84127 -0.00693 0.0
O10 O 0.7038 0.01515 0.81135 0.0
O11 O 0.80019 0.24571 0.00031 0.0
O12 O 0.66023 0.95295 0.03244 0.0
C13 C 0.31533 0.79716 0.89244 0.0
C14 C 0.25375 0.99083 0.15184 0.0
C15 C 0.3491 0.24918 -0.00241 0.0
C16 C 0.80232 0.97362 0.76783 0.0
C17 C 0.87868 0.29268 0.94781 0.0
C18 C 0.73231 0.84481 0.03195 0.0
O19 O 0.39716 0.90551 0.88705 0.0
O20 O 0.20209 0.79945 0.93532 0.0
O21 O 0.86932 0.44817 0.62253 0.0
Mg22 Mg 0.87785 0.52445 0.49462 0.0
O23 O 0.63441 0.53577 0.59865 0.0
Mg24 Mg 0.55119 0.49633 0.45365 0.0
O25 O 0.73664 0.66992 0.44231 0.0
O26 O -0.00681 0.71007 0.52764 0.0
O27 O 0.44798 0.4539 0.30798 0.0
O28 O 0.46897 0.71391 0.42028 0.0
Mg29 Mg 0.29752 0.53644 0.45468 0.0
O30 O 0.35226 0.34127 0.49308 0.0
O31 O 0.20381 0.51514 0.31135 0.0
O32 O 0.3002 0.74572 0.50031 0.0
O33 O 0.16025 0.45296 0.53244 0.0
C34 C 0.81534 0.29717 0.39245 0.0
C35 C 0.75377 0.49084 0.65184 0.0
C36 C 0.84911 0.74918 0.49759 0.0
C37 C 0.30233 0.47362 0.26784 0.0
C38 C 0.37869 0.79268 0.44781 0.0
C39 C 0.23232 0.34482 0.53196 0.0
O40 O 0.89718 0.40551 0.38705 0.0
O41 O 0.70211 0.29945 0.43532 0.0
H42 H 0.20937 1.00001 0.48879 0.0
H43 H 0.44406 0.86308 0.29082 0.0
H44 H 0.05812 0.12893 0.22508 0.0
N45 N 0.03142 0.17854 0.38205 0.0
N46 N 0.87898 0.17621 0.36968 0.0
C47 C 0.21551 0.99556 0.42025 0.0
C48 C 0.32231 0.90889 0.3946 0.0
C49 C 0.11674 0.07217 0.35714 0.0
C50 C 0.13274 0.06657 0.27118 0.0
C51 C 0.25025 0.99229 0.246 0.0
C52 C 0.35042 0.91815 0.30907 0.0
H53 H 0.94613 0.99036 0.46641 0.0
H54 H 0.71445 0.77738 0.63657 0.0
H55 H 0.86619 0.19532 0.6966 0.0
N56 N 0.01823 0.22675 0.57132 0.0
N57 N 0.15612 0.22473 0.55503 0.0
C58 C 0.89693 0.99364 0.52274 0.0
C59 C 0.81387 0.87552 0.53839 0.0
C60 C 0.92099 0.10892 0.58122 0.0
C61 C 0.84549 0.10806 0.65099 0.0
C62 C 0.77436 0.98792 0.67286 0.0
C63 C 0.75458 0.8723 0.6152 0.0
H64 H 0.70935 0.5 -0.01121 0.0
H65 H 0.94406 0.36309 0.79083 0.0
H66 H 0.55812 0.62893 0.72508 0.0
N67 N 0.53141 0.67854 0.88204 0.0
N68 N 0.37897 0.6762 0.86967 0.0
C69 C 0.71549 0.49556 0.92025 0.0
C70 C 0.8223 0.40889 0.8946 0.0
C71 C 0.61673 0.57217 0.85714 0.0
C72 C 0.63274 0.56658 0.77118 0.0
C73 C 0.75025 0.49229 0.746 0.0
C74 C 0.85042 0.41816 0.80908 0.0
H75 H 0.44611 0.49036 -0.0336 0.0
H76 H 0.21447 0.27737 0.13657 0.0
H77 H 0.36619 0.69531 0.1966 0.0
N78 N 0.51822 0.72675 0.07132 0.0
N79 N 0.6561 0.72472 0.05503 0.0
C80 C 0.39692 0.49363 0.02274 0.0
C81 C 0.31386 0.37552 0.03839 0.0
C82 C 0.42098 0.60891 0.08122 0.0
C83 C 0.34549 0.60805 0.15099 0.0
C84 C 0.27437 0.48791 0.17287 0.0
C85 C 0.25459 0.37229 0.1152 0.0
loop_
_geom_bond_atom_site_label_1
_geom_bond_atom_site_label_2
_geom_bond_distance
_geom_bond_site_symmetry_2
_ccdc_geom_bond_type
O0 Mg1 1.990 . S
O0 C14 1.253 . S
Mg1 O0 1.990 . S
Mg1 O4 2.180 . S
Mg1 O5 2.117 . S
Mg1 O19 2.030 1_545 S
O2 Mg3 2.072 1_554 S
O2 C14 1.260 . S
Mg3 O2 2.072 1_556 S
Mg3 O4 2.099 1_556 S
Mg3 O6 2.079 . S
Mg3 O7 2.072 1_456 S
Mg3 O9 2.099 1_445 S
Mg3 O20 2.079 1_545 S
O4 Mg1 2.180 . S
O4 Mg3 2.099 1_554 S
O4 C15 1.279 . S
O5 Mg1 2.117 . S
O5 C15 1.250 . S
O6 Mg3 2.079 . S
O6 C16 1.264 1_455 S
O7 Mg3 2.072 1_654 S
O7 C17 1.260 1_554 S
Mg8 O9 2.180 . S
Mg8 O10 2.030 1_565 S
Mg8 O11 1.990 1_565 S
Mg8 O12 2.117 . S
O9 Mg3 2.099 1_665 S
O9 Mg8 2.180 . S
O9 C18 1.279 . S
O10 Mg8 2.030 1_545 S
O10 C16 1.248 . S
O11 Mg8 1.990 1_545 S
O11 C17 1.253 . S
O12 Mg8 2.117 . S
O12 C18 1.250 . S
C13 O19 1.248 . S
C13 O20 1.264 1_554 S
C14 O0 1.253 . S
C14 O2 1.260 . S
C15 O4 1.279 . S
C15 O5 1.250 . S
C16 O6 1.264 1_655 S
C16 O10 1.248 . S
C17 O7 1.260 1_556 S
C17 O11 1.253 . S
C18 O9 1.279 . S
C18 O12 1.250 . S
O19 Mg1 2.030 1_565 S
O19 C13 1.248 . S
O20 Mg3 2.079 1_565 S
O20 C13 1.264 1_556 S
O21 Mg22 1.990 . S
O21 C35 1.253 . S
Mg22 O21 1.990 . S
Mg22 O25 2.180 . S
Mg22 O26 2.117 . S
Mg22 O40 2.030 . S
O23 Mg24 2.072 . S
O23 C35 1.260 . S
Mg24 O23 2.072 . S
Mg24 O25 2.099 . S
Mg24 O27 2.079 . S
Mg24 O28 2.072 . S
Mg24 O30 2.099 . S
Mg24 O41 2.079 . S
O25 Mg22 2.180 . S
O25 Mg24 2.099 . S
O25 C36 1.279 . S
O26 Mg22 2.117 . S
O26 C36 1.250 . S
O27 Mg24 2.079 . S
O27 C37 1.264 . S
O28 Mg24 2.072 . S
O28 C38 1.260 . S
Mg29 O30 2.180 . S
Mg29 O31 2.030 . S
Mg29 O32 1.990 . S
Mg29 O33 2.117 . S
O30 Mg24 2.099 . S
O30 Mg29 2.180 . S
O30 C39 1.279 . S
O31 Mg29 2.030 . S
O31 C37 1.248 . S
O32 Mg29 1.990 . S
O32 C38 1.253 . S
O33 Mg29 2.117 . S
O33 C39 1.250 . S
C34 O40 1.248 . S
C34 O41 1.264 . S
C35 O21 1.253 . S
C35 O23 1.260 . S
C36 O25 1.279 . S
C36 O26 1.250 . S
C37 O27 1.264 . S
C37 O31 1.248 . S
C38 O28 1.260 . S
C38 O32 1.253 . S
C39 O30 1.279 . S
C39 O33 1.250 . S
O40 Mg22 2.030 . S
O40 C34 1.248 . S
O41 Mg24 2.079 . S
O41 C34 1.264 . S
H42 C47 0.929 . S
H43 C52 0.931 . S
H44 C50 0.930 1_655 S
N45 N46 1.234 . S
N45 C49 1.453 1_655 S
N46 N45 1.234 . S
C47 H42 0.929 . S
C47 C48 1.373 . S
C47 C49 1.368 1_565 S
C48 C47 1.373 . S
C48 C52 1.397 . S
C49 N45 1.453 1_455 S
C49 C47 1.368 1_545 S
C49 C50 1.373 . S
C50 H44 0.930 1_455 S
C50 C49 1.373 . S
C50 C51 1.371 1_545 S
C51 C50 1.371 1_565 S
C51 C52 1.383 . S
C52 H43 0.931 . S
C52 C48 1.397 . S
C52 C51 1.383 . S
H53 C58 0.929 . S
H54 C63 0.931 . S
H55 C61 0.930 . S
N56 N57 1.234 . S
N56 C60 1.453 . S
N57 N56 1.234 . S
C58 H53 0.929 . S
C58 C59 1.373 . S
C58 C60 1.368 1_665 S
C59 C58 1.373 . S
C59 C63 1.397 . S
C60 N56 1.453 . S
C60 C58 1.368 1_445 S
C60 C61 1.373 . S
C61 H55 0.930 . S
C61 C60 1.373 . S
C61 C62 1.371 1_455 S
C62 C61 1.371 1_655 S
C62 C63 1.383 1_545 S
C63 H54 0.931 . S
C63 C59 1.397 . S
C63 C62 1.383 1_565 S
H64 C69 0.929 . S
H65 C74 0.931 . S
H66 C72 0.930 . S
N67 N68 1.234 . S
N67 C71 1.453 1_554 S
N68 N67 1.234 . S
C69 H64 0.929 . S
C69 C70 1.373 1_554 S
C69 C71 1.368 1_554 S
C70 C69 1.373 1_556 S
C70 C74 1.397 . S
C71 N67 1.453 1_556 S
C71 C69 1.368 1_556 S
C71 C72 1.373 . S
C72 H66 0.930 . S
C72 C71 1.373 . S
C72 C73 1.371 . S
C73 C72 1.371 . S
C73 C74 1.383 . S
C74 H65 0.931 . S
C74 C70 1.397 . S
C74 C73 1.383 . S
H75 C80 0.929 . S
H76 C85 0.931 . S
H77 C83 0.930 . S
N78 N79 1.234 1_556 S
N78 C82 1.453 1_556 S
N79 N78 1.234 1_554 S
C80 H75 0.929 . S
C80 C81 1.373 1_556 S
C80 C82 1.368 1_556 S
C81 C80 1.373 1_554 S
C81 C85 1.397 . S
C82 N78 1.453 1_554 S
C82 C80 1.368 1_554 S
C82 C83 1.373 . S
C83 H77 0.930 . S
C83 C82 1.373 . S
C83 C84 1.371 . S
C84 C83 1.371 . S
C84 C85 1.383 . S
C85 H76 0.931 . S
C85 C81 1.397 . S
C85 C84 1.383 . S
C81 C15 1.518 . S
C13 N68 1.473 . S
C18 N79 1.158 1_556 S
C17 C70 1.416 . S
C36 C59 1.518 . S
C34 N46 1.473 . S
N57 C39 1.158 . S
C48 C38 1.416 . S
C14 C51 1.703 1_545 S
C16 C62 1.318 . S
C73 C35 1.703 . S
C37 C84 1.318 . S
