# Generated by pormake.
# Topology zzz, (3,6)-cn, num edge types: 1
# Building blocks:
#     Node 0, Type 0, BuildingBlock: BETDIP_clean_linker_0, # of connection points: 3
#     Node 1, Type 0, BuildingBlock: BETDIP_clean_linker_0, # of connection points: 3
#     Node 2, Type 0, BuildingBlock: BETDIP_clean_linker_0, # of connection points: 3
#     Node 3, Type 0, BuildingBlock: BETDIP_clean_linker_0, # of connection points: 3
#     Node 4, Type 0, BuildingBlock: BETDIP_clean_linker_0, # of connection points: 3
#     Node 5, Type 0, BuildingBlock: BETDIP_clean_linker_0, # of connection points: 3
#     Node 6, Type 0, BuildingBlock: BETDIP_clean_linker_0, # of connection points: 3
#     Node 7, Type 0, BuildingBlock: BETDIP_clean_linker_0, # of connection points: 3
#     Node 8, Type 1, BuildingBlock: LEVNOQ01_clean_sbu_1, # of connection points: 6
#     Node 9, Type 1, BuildingBlock: LEVNOQ01_clean_sbu_1, # of connection points: 6
#     Node 10, Type 1, BuildingBlock: LEVNOQ01_clean_sbu_1, # of connection points: 6
#     Node 11, Type 1, BuildingBlock: LEVNOQ01_clean_sbu_1, # of connection points: 6
#     Edge 12, Type (0, 1), None
#     Edge 13, Type (0, 1), None
#     Edge 14, Type (0, 1), None
#     Edge 15, Type (0, 1), None
#     Edge 16, Type (0, 1), None
#     Edge 17, Type (0, 1), None
#     Edge 18, Type (0, 1), None
#     Edge 19, Type (0, 1), None
#     Edge 20, Type (0, 1), None
#     Edge 21, Type (0, 1), None
#     Edge 22, Type (0, 1), None
#     Edge 23, Type (0, 1), None
#     Edge 24, Type (0, 1), None
#     Edge 25, Type (0, 1), None
#     Edge 26, Type (0, 1), None
#     Edge 27, Type (0, 1), None
#     Edge 28, Type (0, 1), None
#     Edge 29, Type (0, 1), None
#     Edge 30, Type (0, 1), None
#     Edge 31, Type (0, 1), None
#     Edge 32, Type (0, 1), None
#     Edge 33, Type (0, 1), None
#     Edge 34, Type (0, 1), None
#     Edge 35, Type (0, 1), None
# Relax obj value: 0.116
# Max RMSD: 0.168
# Mean RMSD: 0.107
data_MOF--net-zzz--node1-LEVNOQ01_clean_sbu_1--node2-BETDIP_clean_linker_0--edge1-none
_symmetry_space_group_name_H-M    P1
_symmetry_Int_Tables_number       1
_symmetry_cell_setting            triclinic
loop_
_symmetry_equiv_pos_as_xyz
'x, y, z'
_cell_length_a     19.997621
_cell_length_b     20.038117
_cell_length_c     8.843052
_cell_angle_alpha  90.120141
_cell_angle_beta   90.013082
_cell_angle_gamma 89.675556
loop_
_atom_site_label
_atom_site_type_symbol
_atom_site_fract_x
_atom_site_fract_y
_atom_site_fract_z
_atom_type_partial_charge
H0 H 0.80509 0.61789 0.31718 0.0
H1 H 0.85538 0.58686 0.84893 0.0
H2 H 0.98823 0.51734 0.19027 0.0
H3 H 0.68077 0.65995 -0.11464 0.0
C4 C 0.71938 0.62297 -0.09496 0.0
C5 C 0.8381 0.5981 0.23074 0.0
C6 C 0.90159 0.57168 0.27128 0.0
C7 C 0.81828 0.59962 0.07636 0.0
C8 C 0.86386 0.57713 -0.03218 0.0
C9 C 0.92126 0.54241 0.0107 0.0
C10 C 0.94131 0.54153 0.16028 0.0
N11 N 0.75722 0.63169 0.03199 0.0
H12 H 1.02124 0.80655 0.31461 0.0
H13 H 1.05096 0.85437 0.84504 0.0
H14 H 0.12073 0.98806 0.18355 0.0
H15 H 0.98111 0.67889 -0.11193 0.0
C16 C 1.01717 0.71816 -0.0939 0.0
C17 C 1.04048 0.83906 0.22732 0.0
C18 C 0.06675 0.90241 0.26641 0.0
C19 C 1.03873 0.81856 0.07341 0.0
C20 C 1.06081 0.8634 -0.03626 0.0
C21 C 0.09563 0.92055 0.0054 0.0
C22 C 0.09652 0.94133 0.15451 0.0
N23 N 1.00735 0.75727 0.0308 0.0
H24 H 0.8371 1.02315 0.32011 0.0
H25 H 0.78597 1.05468 0.85301 0.0
H26 H 0.65413 0.12467 0.19626 0.0
H27 H 0.96101 0.9824 -0.11331 0.0
C28 C 0.92225 1.01916 -0.09289 0.0
C29 C 0.80404 1.04326 0.23432 0.0
C30 C 0.74063 0.06969 0.27583 0.0
C31 C 0.82364 1.042 0.07979 0.0
C32 C 0.77787 0.06459 -0.02795 0.0
C33 C 0.72082 0.09969 0.01577 0.0
C34 C 0.70093 0.10038 0.1656 0.0
N35 N 0.88469 1.01015 0.03429 0.0
H36 H 0.62022 0.83634 0.31526 0.0
H37 H 0.58978 0.78935 0.84494 0.0
H38 H 0.52098 0.65483 0.1815 0.0
H39 H 0.66098 0.96369 -0.11045 0.0
C40 C 0.62447 0.92491 -0.09204 0.0
C41 C 0.60095 0.80393 0.2275 0.0
C42 C 0.57475 0.74053 0.26563 0.0
C43 C 0.60258 0.82462 0.07396 0.0
C44 C 0.58028 0.78001 -0.03644 0.0
C45 C 0.54576 0.72266 0.00438 0.0
C46 C 0.54507 0.70165 0.15314 0.0
N47 N 0.63419 0.8858 0.03225 0.0
H48 H 0.33664 0.52266 -0.04925 0.0
H49 H 0.28759 0.55261 0.42017 0.0
H50 H 0.1527 0.62072 0.08123 0.0
H51 H 0.46372 0.483 0.37879 0.0
C52 C 0.42423 0.51912 0.35995 0.0
C53 C 0.30358 0.54174 0.0379 0.0
C54 C 0.23971 0.56748 -0.00143 0.0
C55 C 0.32387 0.54022 0.19189 0.0
C56 C 0.27842 0.56209 0.30142 0.0
C57 C 0.22049 0.59618 0.25959 0.0
C58 C 0.19991 0.5969 0.11039 0.0
N59 N 0.38557 0.50908 0.23488 0.0
H60 H 0.11712 0.33464 -0.04995 0.0
H61 H 0.08682 0.28589 0.41878 0.0
H62 H 1.01487 0.15427 0.07842 0.0
H63 H 0.15973 0.45988 0.37933 0.0
C64 C 0.12282 0.42148 0.36029 0.0
C65 C 0.09722 0.30226 0.03682 0.0
C66 C 0.07004 0.23943 -0.00315 0.0
C67 C 0.09926 0.32229 0.19097 0.0
C68 C 0.07666 0.27739 0.30002 0.0
C69 C 1.04107 0.2208 0.25772 0.0
C70 C 1.03961 0.20063 0.10815 0.0
N71 N 0.13167 0.38291 0.23443 0.0
H72 H 0.30517 0.1212 -0.04575 0.0
H73 H 0.35284 0.09123 0.42428 0.0
H74 H 0.48959 1.02489 0.0869 0.0
H75 H 0.1768 0.16041 0.38101 0.0
C76 C 0.21643 0.12439 0.36219 0.0
C77 C 0.33814 0.10245 0.04179 0.0
C78 C 0.40239 0.07733 0.00329 0.0
C79 C 0.31733 0.10376 0.19543 0.0
C80 C 0.36253 0.08208 0.30553 0.0
C81 C 0.42092 1.0486 0.26424 0.0
C82 C 0.4421 1.04832 0.1155 0.0
N83 N 0.25528 0.13448 0.23759 0.0
H84 H 0.52959 0.3053 -0.05804 0.0
H85 H 0.56091 0.35106 0.41352 0.0
H86 H 0.61797 0.49182 0.07903 0.0
H87 H 0.48247 0.18729 0.39463 0.0
C88 C 0.52408 0.21943 0.36693 0.0
C89 C 0.5465 0.33866 0.03043 0.0
C90 C 0.56882 0.40364 -0.00658 0.0
C91 C 0.54601 0.31735 0.18349 0.0
C92 C 0.56758 0.36198 0.29476 0.0
C93 C 0.59841 0.42148 0.25451 0.0
C94 C 0.59643 0.44369 0.10659 0.0
N95 N 0.5212 0.2528 0.22271 0.0
O96 O 0.18155 0.95291 0.84038 0.0
Mg97 Mg 0.20105 0.96424 0.60456 0.0
O98 O 0.07972 0.9974 0.8172 0.0
Mg99 Mg 0.06853 0.07088 0.63221 0.0
O100 O 0.17747 0.06305 0.5728 0.0
O101 O 0.25861 1.01954 0.44271 0.0
O102 O 1.05734 0.14432 0.44665 0.0
O103 O 0.08562 0.15732 0.80901 0.0
Mg104 Mg 0.93659 0.178 0.65911 0.0
O105 O 0.95967 0.07904 0.69249 0.0
O106 O 0.9552 0.1879 0.42245 0.0
O107 O 1.00891 0.23717 0.77609 0.0
O108 O 0.88061 0.12416 0.82603 0.0
C109 C 0.07642 0.92684 0.42165 0.0
C110 C 0.12221 0.9626 -0.11181 0.0
C111 C 0.21884 0.06926 0.46206 0.0
C112 C 1.0146 0.17849 0.37477 0.0
C113 C 1.06115 0.21515 0.84124 0.0
C114 C 0.91953 0.07387 0.80588 0.0
O115 O 0.12952 0.9055 0.48438 0.0
O116 O 1.05134 0.98427 0.45531 0.0
O117 O 0.40534 1.01536 0.78394 0.0
Mg118 Mg 0.46431 0.94322 0.66437 0.0
O119 O 0.48476 0.09181 0.81576 0.0
Mg120 Mg 0.5714 0.07383 0.63922 0.0
O121 O 0.56342 0.96506 0.6971 0.0
O122 O 0.51906 0.885 0.82672 0.0
O123 O 0.65741 1.05546 0.46144 0.0
O124 O 0.64465 0.08361 0.82616 0.0
Mg125 Mg 0.68037 0.20127 0.61248 0.0
O126 O 0.57961 0.18282 0.58124 0.0
O127 O 0.74041 0.12652 0.50337 0.0
O128 O 0.68791 0.18517 0.85034 0.0
O129 O 0.62998 0.25353 0.43443 0.0
C130 C 0.46326 1.02204 0.38156 0.0
C131 C 0.42702 0.06769 0.84821 0.0
C132 C 0.56919 0.92371 0.80786 0.0
C133 C 0.71644 0.07706 0.43228 0.0
C134 C 0.67801 0.12633 -0.10079 0.0
C135 C 0.57749 0.21903 0.46094 0.0
O136 O 0.45396 0.96282 0.42871 0.0
O137 O 0.49759 0.06437 0.45338 0.0
O138 O 0.63074 0.40577 0.77403 0.0
Mg139 Mg 0.70318 0.4642 0.65686 0.0
O140 O 0.55442 0.48609 0.80608 0.0
Mg141 Mg 0.57229 0.57217 0.62972 0.0
O142 O 0.68133 0.56363 0.6898 0.0
O143 O 0.76001 0.5176 0.82319 0.0
O144 O 0.58983 0.65866 0.45373 0.0
O145 O 0.56159 0.64586 0.81528 0.0
Mg146 Mg 0.43979 0.67962 0.6031 0.0
O147 O 0.46363 0.58113 0.56992 0.0
O148 O 0.51178 0.7377 0.48323 0.0
O149 O 0.4598 0.69052 0.83895 0.0
O150 O 0.38188 0.62391 0.44154 0.0
C151 C 0.62506 0.46342 0.37243 0.0
C152 C 0.57851 0.42819 0.83853 0.0
C153 C 0.72155 0.56825 0.80335 0.0
C154 C 0.56486 0.71614 0.42052 0.0
C155 C 0.51914 0.68071 -0.11341 0.0
C156 C 0.42186 0.57435 0.46011 0.0
O157 O 0.68422 0.45321 0.42079 0.0
O158 O 0.58276 0.49853 0.4435 0.0
O159 O 0.95511 0.45685 0.84576 0.0
Mg160 Mg 0.96409 0.43909 0.60887 0.0
O161 O 0.99758 0.55878 0.82159 0.0
Mg162 Mg 0.07071 0.56947 0.63484 0.0
O163 O 1.06334 0.46067 0.57472 0.0
O164 O 1.01748 0.38201 0.44239 0.0
O165 O 0.14399 0.58007 0.44856 0.0
O166 O 0.15786 0.55211 0.8103 0.0
Mg167 Mg 0.1771 0.70127 0.66078 0.0
O168 O 0.07861 0.67804 0.69521 0.0
O169 O 0.18692 0.68188 0.42458 0.0
O170 O 0.23656 0.62941 0.77966 0.0
O171 O 0.12175 0.75935 0.82316 0.0
C172 C 0.92586 0.56318 0.42711 0.0
C173 C 0.96417 0.51602 -0.10604 0.0
C174 C 0.06803 0.42017 0.46166 0.0
C175 C 0.17785 0.62264 0.37675 0.0
C176 C 0.21534 0.57682 0.84324 0.0
C177 C 0.07215 0.71985 0.80525 0.0
O178 O 0.904 0.51143 0.49286 0.0
O179 O 0.98377 0.58711 0.45889 0.0
loop_
_geom_bond_atom_site_label_1
_geom_bond_atom_site_label_2
_geom_bond_distance
_geom_bond_site_symmetry_2
_ccdc_geom_bond_type
H0 C5 0.930 . S
H1 C8 0.930 . S
H2 C10 0.930 . S
H3 C4 1.016 . S
C4 H3 1.016 . S
C4 N11 1.286 1_556 S
C5 H0 0.930 . S
C5 C6 1.397 . S
C5 C7 1.361 . S
C6 C5 1.397 . S
C6 C10 1.390 . S
C7 C5 1.361 . S
C7 C8 1.393 1_554 S
C7 N11 1.413 . S
C8 H1 0.930 . S
C8 C7 1.393 1_556 S
C8 C9 1.399 . S
C9 C8 1.399 . S
C9 C10 1.381 1_556 S
C10 H2 0.930 . S
C10 C6 1.390 . S
C10 C9 1.381 1_554 S
N11 C4 1.286 1_554 S
N11 C7 1.413 . S
H12 C17 0.930 . S
H13 C20 0.930 . S
H14 C22 0.930 . S
H15 C16 1.016 . S
C16 H15 1.016 . S
C16 N23 1.286 1_556 S
C17 H12 0.930 . S
C17 C18 1.397 . S
C17 C19 1.361 . S
C18 C17 1.397 . S
C18 C22 1.390 . S
C19 C17 1.361 . S
C19 C20 1.393 1_554 S
C19 N23 1.413 . S
C20 H13 0.930 . S
C20 C19 1.393 1_556 S
C20 C21 1.399 . S
C21 C20 1.399 . S
C21 C22 1.381 1_556 S
C22 H14 0.930 . S
C22 C18 1.390 . S
C22 C21 1.381 1_554 S
N23 C16 1.286 1_554 S
N23 C19 1.413 . S
H24 C29 0.930 . S
H25 C32 0.930 . S
H26 C34 0.930 . S
H27 C28 1.016 . S
C28 H27 1.016 . S
C28 N35 1.286 1_556 S
C29 H24 0.930 . S
C29 C30 1.397 . S
C29 C31 1.361 . S
C30 C29 1.397 . S
C30 C34 1.390 . S
C31 C29 1.361 . S
C31 C32 1.393 1_554 S
C31 N35 1.413 . S
C32 H25 0.930 . S
C32 C31 1.393 1_556 S
C32 C33 1.399 . S
C33 C32 1.399 . S
C33 C34 1.381 1_556 S
C34 H26 0.930 . S
C34 C30 1.390 . S
C34 C33 1.381 1_554 S
N35 C28 1.286 1_554 S
N35 C31 1.413 . S
H36 C41 0.930 . S
H37 C44 0.930 . S
H38 C46 0.930 . S
H39 C40 1.016 . S
C40 H39 1.016 . S
C40 N47 1.286 1_556 S
C41 H36 0.930 . S
C41 C42 1.397 . S
C41 C43 1.361 . S
C42 C41 1.397 . S
C42 C46 1.390 . S
C43 C41 1.361 . S
C43 C44 1.393 1_554 S
C43 N47 1.413 . S
C44 H37 0.930 . S
C44 C43 1.393 1_556 S
C44 C45 1.399 . S
C45 C44 1.399 . S
C45 C46 1.381 1_556 S
C46 H38 0.930 . S
C46 C42 1.390 . S
C46 C45 1.381 1_554 S
N47 C40 1.286 1_554 S
N47 C43 1.413 . S
H48 C53 0.930 . S
H49 C56 0.930 . S
H50 C58 0.930 . S
H51 C52 1.016 . S
C52 H51 1.016 . S
C52 N59 1.286 . S
C53 H48 0.930 . S
C53 C54 1.397 . S
C53 C55 1.361 . S
C54 C53 1.397 . S
C54 C58 1.390 . S
C55 C53 1.361 . S
C55 C56 1.393 . S
C55 N59 1.413 . S
C56 H49 0.930 . S
C56 C55 1.393 . S
C56 C57 1.399 . S
C57 C56 1.399 . S
C57 C58 1.381 . S
C58 H50 0.930 . S
C58 C54 1.390 . S
C58 C57 1.381 . S
N59 C52 1.286 . S
N59 C55 1.413 . S
H60 C65 0.930 . S
H61 C68 0.930 . S
H62 C70 0.930 . S
H63 C64 1.016 . S
C64 H63 1.016 . S
C64 N71 1.286 . S
C65 H60 0.930 . S
C65 C66 1.397 . S
C65 C67 1.361 . S
C66 C65 1.397 . S
C66 C70 1.390 . S
C67 C65 1.361 . S
C67 C68 1.393 . S
C67 N71 1.413 . S
C68 H61 0.930 . S
C68 C67 1.393 . S
C68 C69 1.399 . S
C69 C68 1.399 . S
C69 C70 1.381 . S
C70 H62 0.930 . S
C70 C66 1.390 . S
C70 C69 1.381 . S
N71 C64 1.286 . S
N71 C67 1.413 . S
H72 C77 0.930 . S
H73 C80 0.930 . S
H74 C82 0.930 . S
H75 C76 1.016 . S
C76 H75 1.016 . S
C76 N83 1.286 . S
C77 H72 0.930 . S
C77 C78 1.397 . S
C77 C79 1.361 . S
C78 C77 1.397 . S
C78 C82 1.390 . S
C79 C77 1.361 . S
C79 C80 1.393 . S
C79 N83 1.413 . S
C80 H73 0.930 . S
C80 C79 1.393 . S
C80 C81 1.399 . S
C81 C80 1.399 . S
C81 C82 1.381 . S
C82 H74 0.930 . S
C82 C78 1.390 . S
C82 C81 1.381 . S
N83 C76 1.286 . S
N83 C79 1.413 . S
H84 C89 0.930 . S
H85 C92 0.930 . S
H86 C94 0.930 . S
H87 C88 1.016 . S
C88 H87 1.016 . S
C88 N95 1.286 . S
C89 H84 0.930 . S
C89 C90 1.397 . S
C89 C91 1.361 . S
C90 C89 1.397 . S
C90 C94 1.390 . S
C91 C89 1.361 . S
C91 C92 1.393 . S
C91 N95 1.413 . S
C92 H85 0.930 . S
C92 C91 1.393 . S
C92 C93 1.399 . S
C93 C92 1.399 . S
C93 C94 1.381 . S
C94 H86 0.930 . S
C94 C90 1.390 . S
C94 C93 1.381 . S
N95 C88 1.286 . S
N95 C91 1.413 . S
O96 Mg97 1.990 . S
O96 C110 1.253 . S
Mg97 O96 1.990 . S
Mg97 O100 2.180 . S
Mg97 O101 2.117 . S
Mg97 O115 2.030 . S
O98 Mg99 2.072 1_665 S
O98 C110 1.260 1_655 S
Mg99 O98 2.072 1_445 S
Mg99 O100 2.099 1_545 S
Mg99 O102 2.079 . S
Mg99 O103 2.072 . S
Mg99 O105 2.099 1_455 S
Mg99 O116 2.079 1_445 S
O100 Mg97 2.180 . S
O100 Mg99 2.099 1_565 S
O100 C111 1.279 . S
O101 Mg97 2.117 . S
O101 C111 1.250 . S
O102 Mg99 2.079 . S
O102 C112 1.264 1_455 S
O103 Mg99 2.072 . S
O103 C113 1.260 1_556 S
Mg104 O105 2.180 . S
Mg104 O106 2.030 . S
Mg104 O107 1.990 1_556 S
Mg104 O108 2.117 1_556 S
O105 Mg99 2.099 1_655 S
O105 Mg104 2.180 . S
O105 C114 1.279 . S
O106 Mg104 2.030 . S
O106 C112 1.248 . S
O107 Mg104 1.990 1_554 S
O107 C113 1.253 1_655 S
O108 Mg104 2.117 1_554 S
O108 C114 1.250 1_554 S
C109 O115 1.248 1_655 S
C109 O116 1.264 . S
C110 O96 1.253 . S
C110 O98 1.260 1_455 S
C111 O100 1.279 . S
C111 O101 1.250 . S
C112 O102 1.264 1_655 S
C112 O106 1.248 . S
C113 O103 1.260 1_554 S
C113 O107 1.253 1_455 S
C114 O105 1.279 . S
C114 O108 1.250 1_556 S
O115 Mg97 2.030 . S
O115 C109 1.248 1_455 S
O116 Mg99 2.079 1_665 S
O116 C109 1.264 . S
O117 Mg118 1.990 1_554 S
O117 C131 1.253 1_565 S
Mg118 O117 1.990 1_556 S
Mg118 O121 2.180 . S
Mg118 O122 2.117 1_556 S
Mg118 O136 2.030 . S
O119 Mg120 2.072 . S
O119 C131 1.260 1_556 S
Mg120 O119 2.072 . S
Mg120 O121 2.099 1_545 S
Mg120 O123 2.079 1_545 S
Mg120 O124 2.072 1_545 S
Mg120 O126 2.099 . S
Mg120 O137 2.079 . S
O121 Mg118 2.180 . S
O121 Mg120 2.099 1_565 S
O121 C132 1.279 . S
O122 Mg118 2.117 1_554 S
O122 C132 1.250 1_554 S
O123 Mg120 2.079 1_565 S
O123 C133 1.264 . S
O124 Mg120 2.072 1_565 S
O124 C134 1.260 1_565 S
Mg125 O126 2.180 . S
Mg125 O127 2.030 . S
Mg125 O128 1.990 . S
Mg125 O129 2.117 . S
O126 Mg120 2.099 . S
O126 Mg125 2.180 . S
O126 C135 1.279 . S
O127 Mg125 2.030 . S
O127 C133 1.248 1_545 S
O128 Mg125 1.990 . S
O128 C134 1.253 . S
O129 Mg125 2.117 . S
O129 C135 1.250 . S
C130 O136 1.248 . S
C130 O137 1.264 1_565 S
C131 O117 1.253 1_545 S
C131 O119 1.260 1_554 S
C132 O121 1.279 . S
C132 O122 1.250 1_556 S
C133 O123 1.264 . S
C133 O127 1.248 1_565 S
C134 O124 1.260 1_545 S
C134 O128 1.253 . S
C135 O126 1.279 . S
C135 O129 1.250 . S
O136 Mg118 2.030 . S
O136 C130 1.248 . S
O137 Mg120 2.079 . S
O137 C130 1.264 1_545 S
O138 Mg139 1.990 1_554 S
O138 C152 1.253 . S
Mg139 O138 1.990 1_556 S
Mg139 O142 2.180 . S
Mg139 O143 2.117 1_556 S
Mg139 O157 2.030 . S
O140 Mg141 2.072 . S
O140 C152 1.260 1_556 S
Mg141 O140 2.072 . S
Mg141 O142 2.099 . S
Mg141 O144 2.079 . S
Mg141 O145 2.072 . S
Mg141 O147 2.099 . S
Mg141 O158 2.079 . S
O142 Mg139 2.180 . S
O142 Mg141 2.099 . S
O142 C153 1.279 . S
O143 Mg139 2.117 1_554 S
O143 C153 1.250 1_554 S
O144 Mg141 2.079 . S
O144 C154 1.264 . S
O145 Mg141 2.072 . S
O145 C155 1.260 . S
Mg146 O147 2.180 . S
Mg146 O148 2.030 . S
Mg146 O149 1.990 . S
Mg146 O150 2.117 . S
O147 Mg141 2.099 . S
O147 Mg146 2.180 . S
O147 C156 1.279 . S
O148 Mg146 2.030 . S
O148 C154 1.248 . S
O149 Mg146 1.990 . S
O149 C155 1.253 . S
O150 Mg146 2.117 . S
O150 C156 1.250 . S
C151 O157 1.248 . S
C151 O158 1.264 . S
C152 O138 1.253 . S
C152 O140 1.260 1_554 S
C153 O142 1.279 . S
C153 O143 1.250 1_556 S
C154 O144 1.264 . S
C154 O148 1.248 . S
C155 O145 1.260 . S
C155 O149 1.253 . S
C156 O147 1.279 . S
C156 O150 1.250 . S
O157 Mg139 2.030 . S
O157 C151 1.248 . S
O158 Mg141 2.079 . S
O158 C151 1.264 . S
O159 Mg160 1.990 . S
O159 C173 1.253 . S
Mg160 O159 1.990 . S
Mg160 O163 2.180 . S
Mg160 O164 2.117 . S
Mg160 O178 2.030 . S
O161 Mg162 2.072 1_655 S
O161 C173 1.260 . S
Mg162 O161 2.072 1_455 S
Mg162 O163 2.099 1_455 S
Mg162 O165 2.079 . S
Mg162 O166 2.072 . S
Mg162 O168 2.099 . S
Mg162 O179 2.079 1_455 S
O163 Mg160 2.180 . S
O163 Mg162 2.099 1_655 S
O163 C174 1.279 . S
O164 Mg160 2.117 . S
O164 C174 1.250 . S
O165 Mg162 2.079 . S
O165 C175 1.264 . S
O166 Mg162 2.072 . S
O166 C176 1.260 1_556 S
Mg167 O168 2.180 . S
Mg167 O169 2.030 . S
Mg167 O170 1.990 1_556 S
Mg167 O171 2.117 1_556 S
O168 Mg162 2.099 . S
O168 Mg167 2.180 . S
O168 C177 1.279 . S
O169 Mg167 2.030 . S
O169 C175 1.248 . S
O170 Mg167 1.990 1_554 S
O170 C176 1.253 . S
O171 Mg167 2.117 1_554 S
O171 C177 1.250 1_554 S
C172 O178 1.248 . S
C172 O179 1.264 . S
C173 O159 1.253 . S
C173 O161 1.260 . S
C174 O163 1.279 . S
C174 O164 1.250 . S
C175 O165 1.264 . S
C175 O169 1.248 . S
C176 O166 1.260 1_554 S
C176 O170 1.253 . S
C177 O168 1.279 . S
C177 O171 1.250 1_556 S
O178 Mg160 2.030 . S
O178 C172 1.248 . S
O179 Mg162 2.079 1_655 S
O179 C172 1.264 . S
C76 C111 1.892 1_545 S
C135 C88 1.893 . S
C156 C52 1.892 . S
C174 C64 1.893 1_655 S
C114 C28 1.597 1_545 S
C40 C132 1.598 . S
C4 C153 1.598 . S
C16 C177 1.598 1_655 S
C112 C69 1.266 1_655 S
C130 C81 1.265 1_565 S
C151 C93 1.266 . S
C57 C175 1.265 . S
C21 C110 1.285 1_655 S
C134 C33 1.285 1_545 S
C155 C45 1.285 . S
C9 C173 1.285 . S
C66 C113 1.605 . S
C78 C131 1.605 . S
C152 C90 1.605 . S
C176 C54 1.605 . S
C18 C109 1.347 . S
C133 C30 1.347 . S
C154 C42 1.347 . S
C6 C172 1.347 . S
