# Generated by pormake.
# Topology csq, (4,8)-cn, num edge types: 1
# Building blocks:
#     Node 0, Type 0, BuildingBlock: KUFVIS_clean_linker_0, # of connection points: 4
#     Node 1, Type 0, BuildingBlock: KUFVIS_clean_linker_0, # of connection points: 4
#     Node 2, Type 0, BuildingBlock: KUFVIS_clean_linker_0, # of connection points: 4
#     Node 3, Type 0, BuildingBlock: KUFVIS_clean_linker_0, # of connection points: 4
#     Node 4, Type 0, BuildingBlock: KUFVIS_clean_linker_0, # of connection points: 4
#     Node 5, Type 0, BuildingBlock: KUFVIS_clean_linker_0, # of connection points: 4
#     Node 6, Type 1, BuildingBlock: TAGTUT_clean_sbu_3, # of connection points: 8
#     Node 7, Type 1, BuildingBlock: TAGTUT_clean_sbu_3, # of connection points: 8
#     Node 8, Type 1, BuildingBlock: TAGTUT_clean_sbu_3, # of connection points: 8
#     Edge 9, Type (0, 1), None
#     Edge 10, Type (0, 1), None
#     Edge 11, Type (0, 1), None
#     Edge 12, Type (0, 1), None
#     Edge 13, Type (0, 1), None
#     Edge 14, Type (0, 1), None
#     Edge 15, Type (0, 1), None
#     Edge 16, Type (0, 1), None
#     Edge 17, Type (0, 1), None
#     Edge 18, Type (0, 1), None
#     Edge 19, Type (0, 1), None
#     Edge 20, Type (0, 1), None
#     Edge 21, Type (0, 1), None
#     Edge 22, Type (0, 1), None
#     Edge 23, Type (0, 1), None
#     Edge 24, Type (0, 1), None
#     Edge 25, Type (0, 1), None
#     Edge 26, Type (0, 1), None
#     Edge 27, Type (0, 1), None
#     Edge 28, Type (0, 1), None
#     Edge 29, Type (0, 1), None
#     Edge 30, Type (0, 1), None
#     Edge 31, Type (0, 1), None
#     Edge 32, Type (0, 1), None
# Relax obj value: 0.049
# Max RMSD: 0.099
# Mean RMSD: 0.084
data_MOF--net-csq--node1-TAGTUT_clean_sbu_3--node2-KUFVIS_clean_linker_0--edge1-none
_symmetry_space_group_name_H-M    P1
_symmetry_Int_Tables_number       1
_symmetry_cell_setting            triclinic
loop_
_symmetry_equiv_pos_as_xyz
'x, y, z'
_cell_length_a     27.043922
_cell_length_b     25.005192
_cell_length_c     9.859966
_cell_angle_alpha  96.491542
_cell_angle_beta   93.073888
_cell_angle_gamma 119.48088
loop_
_atom_site_label
_atom_site_type_symbol
_atom_site_fract_x
_atom_site_fract_y
_atom_site_fract_z
_atom_type_partial_charge
H0 H 0.45708 0.56205 0.28735 0.0
H1 H 0.30157 0.49687 0.46801 0.0
H2 H 0.30343 0.50724 0.03276 0.0
H3 H 0.21378 0.45095 0.02721 0.0
H4 H 0.07822 0.46308 0.20141 0.0
H5 H 0.2326 0.52021 0.46247 0.0
C6 C 0.41187 0.54613 0.27675 0.0
C7 C 0.38272 0.53014 0.14693 0.0
C8 C 0.38197 0.53002 0.38934 0.0
C9 C 0.32374 0.51032 0.37878 0.0
C10 C 0.29435 0.50565 0.25282 0.0
C11 C 0.32441 0.51399 0.1345 0.0
C12 C 0.23244 0.48857 0.24534 0.0
C13 C 0.19786 0.46199 0.11806 0.0
C14 C 0.14389 0.45519 0.10131 0.0
C15 C 0.12014 0.46777 0.21644 0.0
C16 C 0.15106 0.49003 0.34819 0.0
C17 C 0.20785 0.50093 0.3618 0.0
H18 H 0.60116 0.1726 0.00129 0.0
H19 H 0.75249 0.27172 0.28995 0.0
H20 H 0.76206 0.21464 0.86755 0.0
H21 H 0.84631 0.29467 0.90007 0.0
H22 H 0.99606 0.35207 0.17333 0.0
H23 H 0.84286 0.3204 0.33676 0.0
C24 C 0.64752 0.19637 0.02108 0.0
C25 C 0.67825 0.19112 0.91748 0.0
C26 C 0.67401 0.21731 0.15671 0.0
C27 C 0.73371 0.25305 0.18425 0.0
C28 C 0.76784 0.25562 0.08047 0.0
C29 C 0.73871 0.22099 0.94724 0.0
C30 C 0.83241 0.28767 0.11371 0.0
C31 C 0.865 0.29866 0.0031 0.0
C32 C 0.92381 0.32473 0.02646 0.0
C33 C 0.94983 0.33175 0.15946 0.0
C34 C 0.92397 0.34059 0.27316 0.0
C35 C 0.8635 0.3145 0.25038 0.0
H36 H 0.63403 0.03572 -0.01069 0.0
H37 H 0.62963 0.90287 0.22704 0.0
H38 H 0.56378 0.84581 0.79494 0.0
H39 H 0.60279 0.77802 0.80647 0.0
H40 H 0.65716 0.69665 0.0982 0.0
H41 H 0.57802 0.80089 0.23322 0.0
C42 C 0.62853 0.98963 -0.00992 0.0
C43 C 0.59806 0.94398 0.87335 0.0
C44 C 0.63083 0.97172 0.11883 0.0
C45 C 0.62304 0.91315 0.12618 0.0
C46 C 0.60374 0.86776 0.00772 0.0
C47 C 0.58768 0.88249 0.88174 0.0
C48 C 0.60147 0.80701 0.02283 0.0
C49 C 0.60961 0.77213 0.91163 0.0
C50 C 0.62495 0.7278 0.93859 0.0
C51 C 0.64129 0.72765 0.07737 0.0
C52 C 0.61556 0.74397 0.18088 0.0
C53 C 0.5962 0.78533 0.1535 0.0
H54 H 0.93647 0.5104 -0.04019 0.0
H55 H 0.82944 0.55033 0.19884 0.0
H56 H 0.8357 0.57797 0.77343 0.0
H57 H 0.74317 0.54284 0.77468 0.0
H58 H 0.63473 0.58375 0.00077 0.0
H59 H 0.78042 0.59584 0.2219 0.0
C60 C 0.90478 0.52488 -0.03516 0.0
C61 C 0.8888 0.54348 0.8517 0.0
C62 C 0.88958 0.53663 0.09137 0.0
C63 C 0.84454 0.54857 0.10027 0.0
C64 C 0.82143 0.56056 -0.01491 0.0
C65 C 0.84722 0.56224 0.86122 0.0
C66 C 0.77079 0.57002 -0.0044 0.0
C67 C 0.73428 0.55694 0.87391 0.0
C68 C 0.68465 0.56035 0.87876 0.0
C69 C 0.67168 0.57824 0.00231 0.0
C70 C 0.70381 0.58865 0.12754 0.0
C71 C 0.75491 0.58632 0.12482 0.0
H72 H 0.41553 0.94638 0.10565 0.0
H73 H 0.28477 0.84193 0.34804 0.0
H74 H 0.24069 0.83688 0.91783 0.0
H75 H 0.18385 0.73398 0.91582 0.0
H76 H 0.03198 0.66301 0.1145 0.0
H77 H 0.19157 0.79811 0.3468 0.0
C78 C 0.37091 0.91643 0.11445 0.0
C79 C 0.32841 0.89332 -0.00273 0.0
C80 C 0.35525 0.90247 0.24537 0.0
C81 C 0.29713 0.85625 0.25007 0.0
C82 C 0.25559 0.82936 0.13023 0.0
C83 C 0.27188 0.85247 0.00829 0.0
C84 C 0.19429 0.77946 0.12737 0.0
C85 C 0.16234 0.7368 0.00355 0.0
C86 C 0.10339 0.69408 -0.00316 0.0
C87 C 0.07693 0.69665 0.11519 0.0
C88 C 0.10963 0.72866 0.24318 0.0
C89 C 0.16755 0.7722 0.24783 0.0
H90 H 0.39739 0.40046 0.12686 0.0
H91 H 0.44895 0.31593 0.41625 0.0
H92 H 0.4502 0.27268 -0.01862 0.0
H93 H 0.41535 0.17919 0.00268 0.0
H94 H 0.4065 0.04776 0.24835 0.0
H95 H 0.46214 0.23423 0.44355 0.0
C96 C 0.40858 0.36569 0.1473 0.0
C97 C 0.42211 0.33713 0.03755 0.0
C98 C 0.42978 0.36778 0.28261 0.0
C99 C 0.43808 0.31841 0.31091 0.0
C100 C 0.4362 0.2755 0.20038 0.0
C101 C 0.43706 0.29245 0.06515 0.0
C102 C 0.43323 0.21444 0.22231 0.0
C103 C 0.4206 0.17009 0.10504 0.0
C104 C 0.41683 0.11344 0.11545 0.0
C105 C 0.41205 0.09352 0.24377 0.0
C106 C 0.43377 0.13752 0.36508 0.0
C107 C 0.44332 0.19865 0.35332 0.0
C108 C 0.12071 0.49276 0.47037 0.0
C109 C 0.12367 0.46169 -0.03228 0.0
C110 C 0.9586 0.36956 0.93934 0.0
Mg111 Mg 0.04546 0.54808 0.33101 0.0
Mg112 Mg 0.98014 0.61436 0.49319 0.0
O113 O 1.00151 0.55367 0.47746 0.0
Mg114 Mg 0.02531 0.52188 0.61827 0.0
O115 O 0.04918 0.48711 0.74945 0.0
Mg116 Mg 0.03056 0.40275 0.67178 0.0
Mg117 Mg 0.04728 0.50525 0.92983 0.0
C118 C 0.92391 0.55157 0.73753 0.0
O119 O 0.08171 0.62418 0.77155 0.0
O120 O 0.97702 0.55264 0.19598 0.0
O121 O 0.04411 0.58724 -0.04087 0.0
O122 O 0.10262 0.65465 0.37294 0.0
O123 O 0.91768 0.5668 0.32734 0.0
O124 O 0.04374 0.69227 0.40504 0.0
O125 O 0.96911 0.41399 0.49754 0.0
O126 O 0.98673 0.44648 0.29552 0.0
C127 C 0.96203 0.40237 0.36419 0.0
C128 C 0.92886 0.54958 0.21253 0.0
O129 O 0.9482 0.51804 0.72289 0.0
O130 O 0.09247 0.41427 0.87225 0.0
O131 O 0.93714 0.59816 0.67484 0.0
O132 O 0.9589 0.35348 0.8114 0.0
O133 O 0.12524 0.51328 -0.02916 0.0
O134 O 0.98864 0.42533 0.00013 0.0
O135 O 0.10044 0.53006 0.48945 0.0
O136 O 0.10398 0.44667 0.53597 0.0
C137 C 0.08911 0.69647 0.36181 0.0
C138 C 0.07339 0.63323 0.89898 0.0
C139 C 0.47586 0.12886 0.45176 0.0
C140 C 0.64248 0.17984 0.25837 0.0
C141 C 0.61663 1.00242 0.23314 0.0
Mg142 Mg 0.39333 1.02168 0.66937 0.0
Mg143 Mg 0.4544 0.97613 0.88055 0.0
O144 O 0.45699 1.00593 0.72006 0.0
Mg145 Mg 0.51603 0.03948 0.59941 0.0
O146 O 0.57227 0.07352 0.47005 0.0
Mg147 Mg 0.52543 0.05132 0.29499 0.0
Mg148 Mg 0.65102 0.1114 0.47566 0.0
C149 C 0.55383 0.95503 0.80361 0.0
O150 O 0.59031 0.12022 0.76717 0.0
O151 O 0.33655 0.94833 0.81059 0.0
O152 O 0.67559 0.14247 0.69383 0.0
O153 O 0.41671 0.08817 0.87354 0.0
O154 O 0.38009 0.89374 0.82027 0.0
O155 O 0.44065 0.03951 0.01918 0.0
O156 O 0.44952 0.96996 0.39914 0.0
O157 O 0.36636 0.95069 0.47352 0.0
C158 C 0.39348 0.94184 0.37934 0.0
C159 C 0.34271 0.90587 0.8585 0.0
O160 O 0.55781 0.9776 0.68849 0.0
O161 O 0.59579 0.12952 0.21253 0.0
O162 O 0.52061 0.95695 0.88822 0.0
O163 O 0.56519 0.99299 0.21978 0.0
O164 O 0.66902 0.18834 0.37622 0.0
O165 O 0.65676 0.04447 0.32435 0.0
O166 O 0.46431 0.09331 0.54456 0.0
O167 O 0.51431 0.13228 0.38125 0.0
C168 C 0.4247 0.0783 -0.00425 0.0
C169 C 0.6461 0.14915 0.78501 0.0
C170 C 0.59842 0.66522 0.85262 0.0
C171 C 0.41116 0.51972 0.03005 0.0
C172 C 0.4373 0.37072 0.91589 0.0
Mg173 Mg 0.65297 0.65374 0.54718 0.0
Mg174 Mg 0.55209 0.56501 0.30701 0.0
O175 O 0.58526 0.57072 0.47805 0.0
Mg176 Mg 0.53353 0.54401 0.62302 0.0
O177 O 0.48328 0.51816 0.77206 0.0
Mg178 Mg 0.53344 0.52149 0.92227 0.0
Mg179 Mg 0.40623 0.45498 0.75597 0.0
C180 C 0.46267 0.43144 0.36524 0.0
O181 O 0.46531 0.55657 0.52544 0.0
O182 O 0.69972 0.6329 0.36131 0.0
O183 O 0.38207 0.47413 0.56428 0.0
O184 O 0.63401 0.71229 0.39215 0.0
O185 O 0.61998 0.56187 0.22258 0.0
O186 O 0.55469 0.64814 0.25165 0.0
O187 O 0.5954 0.5267 0.74961 0.0
O188 O 0.67676 0.60023 0.68541 0.0
C189 C 0.65037 0.55661 0.75569 0.0
C190 C 0.67455 0.59292 0.24963 0.0
O191 O 0.48312 0.44233 0.49297 0.0
O192 O 0.46188 0.52612 0.05223 0.0
O193 O 0.47803 0.47518 0.29267 0.0
O194 O 0.48943 0.41464 0.92672 0.0
O195 O 0.38126 0.4966 0.91282 0.0
O196 O 0.39773 0.37437 0.84715 0.0
O197 O 0.58999 0.65237 0.72023 0.0
O198 O 0.57593 0.62191 0.92425 0.0
C199 C 0.59708 0.70286 0.29094 0.0
C200 C 0.41059 0.52227 0.50657 0.0
loop_
_geom_bond_atom_site_label_1
_geom_bond_atom_site_label_2
_geom_bond_distance
_geom_bond_site_symmetry_2
_ccdc_geom_bond_type
H0 C6 0.930 . S
H1 C9 0.931 . S
H2 C11 0.931 . S
H3 C13 0.930 . S
H4 C15 0.930 . S
H5 C17 0.931 . S
C6 H0 0.930 . S
C6 C7 1.380 . S
C6 C8 1.394 . S
C7 C6 1.380 . S
C7 C11 1.382 . S
C8 C6 1.394 . S
C8 C9 1.400 . S
C9 H1 0.931 . S
C9 C8 1.400 . S
C9 C10 1.375 . S
C10 C9 1.375 . S
C10 C11 1.415 . S
C10 C12 1.501 . S
C11 H2 0.931 . S
C11 C7 1.382 . S
C11 C10 1.415 . S
C12 C10 1.501 . S
C12 C13 1.384 . S
C12 C17 1.408 . S
C13 H3 0.930 . S
C13 C12 1.384 . S
C13 C14 1.389 . S
C14 C13 1.389 . S
C14 C15 1.405 . S
C15 H4 0.930 . S
C15 C14 1.405 . S
C15 C16 1.364 . S
C16 C15 1.364 . S
C16 C17 1.400 . S
C17 H5 0.931 . S
C17 C12 1.408 . S
C17 C16 1.400 . S
H18 C24 0.930 . S
H19 C27 0.931 . S
H20 C29 0.933 . S
H21 C31 0.930 1_556 S
H22 C33 0.930 . S
H23 C35 0.931 . S
C24 H18 0.930 . S
C24 C25 1.380 1_554 S
C24 C26 1.394 . S
C25 C24 1.380 1_556 S
C25 C29 1.382 . S
C26 C24 1.394 . S
C26 C27 1.400 . S
C27 H19 0.931 . S
C27 C26 1.400 . S
C27 C28 1.375 . S
C28 C27 1.375 . S
C28 C29 1.413 1_554 S
C28 C30 1.501 . S
C29 H20 0.933 . S
C29 C25 1.382 . S
C29 C28 1.413 1_556 S
C30 C28 1.501 . S
C30 C31 1.384 . S
C30 C35 1.408 . S
C31 H21 0.930 1_554 S
C31 C30 1.384 . S
C31 C32 1.389 . S
C32 C31 1.389 . S
C32 C33 1.405 . S
C33 H22 0.930 . S
C33 C32 1.405 . S
C33 C34 1.364 . S
C34 C33 1.364 . S
C34 C35 1.400 . S
C35 H23 0.931 . S
C35 C30 1.408 . S
C35 C34 1.400 . S
H36 C42 0.930 . S
H37 C45 0.931 . S
H38 C47 0.931 . S
H39 C49 0.930 . S
H40 C51 0.930 . S
H41 C53 0.931 . S
C42 H36 0.930 . S
C42 C43 1.380 1_554 S
C42 C44 1.394 . S
C43 C42 1.380 1_556 S
C43 C47 1.382 . S
C44 C42 1.394 . S
C44 C45 1.400 . S
C45 H37 0.931 . S
C45 C44 1.400 . S
C45 C46 1.375 . S
C46 C45 1.375 . S
C46 C47 1.415 1_554 S
C46 C48 1.501 . S
C47 H38 0.931 . S
C47 C43 1.382 . S
C47 C46 1.415 1_556 S
C48 C46 1.501 . S
C48 C49 1.384 1_554 S
C48 C53 1.408 . S
C49 H39 0.930 . S
C49 C48 1.384 1_556 S
C49 C50 1.389 . S
C50 C49 1.389 . S
C50 C51 1.405 1_556 S
C51 H40 0.930 . S
C51 C50 1.405 1_554 S
C51 C52 1.364 . S
C52 C51 1.364 . S
C52 C53 1.400 . S
C53 H41 0.931 . S
C53 C48 1.408 . S
C53 C52 1.400 . S
H54 C60 0.930 . S
H55 C63 0.931 . S
H56 C65 0.931 . S
H57 C67 0.930 . S
H58 C69 0.930 . S
H59 C71 0.931 . S
C60 H54 0.930 . S
C60 C61 1.380 1_554 S
C60 C62 1.394 . S
C61 C60 1.380 1_556 S
C61 C65 1.382 . S
C62 C60 1.394 . S
C62 C63 1.400 . S
C63 H55 0.931 . S
C63 C62 1.400 . S
C63 C64 1.375 . S
C64 C63 1.375 . S
C64 C65 1.415 1_554 S
C64 C66 1.501 . S
C65 H56 0.931 . S
C65 C61 1.382 . S
C65 C64 1.415 1_556 S
C66 C64 1.501 . S
C66 C67 1.384 1_554 S
C66 C71 1.408 . S
C67 H57 0.930 . S
C67 C66 1.384 1_556 S
C67 C68 1.389 . S
C68 C67 1.389 . S
C68 C69 1.405 1_556 S
C69 H58 0.930 . S
C69 C68 1.405 1_554 S
C69 C70 1.364 . S
C70 C69 1.364 . S
C70 C71 1.400 . S
C71 H59 0.931 . S
C71 C66 1.408 . S
C71 C70 1.400 . S
H72 C78 0.930 . S
H73 C81 0.931 . S
H74 C83 0.931 1_556 S
H75 C85 0.930 1_556 S
H76 C87 0.930 . S
H77 C89 0.931 . S
C78 H72 0.930 . S
C78 C79 1.380 . S
C78 C80 1.394 . S
C79 C78 1.380 . S
C79 C83 1.382 . S
C80 C78 1.394 . S
C80 C81 1.400 . S
C81 H73 0.931 . S
C81 C80 1.400 . S
C81 C82 1.375 . S
C82 C81 1.375 . S
C82 C83 1.415 . S
C82 C84 1.501 . S
C83 H74 0.931 1_554 S
C83 C79 1.382 . S
C83 C82 1.415 . S
C84 C82 1.501 . S
C84 C85 1.384 . S
C84 C89 1.408 . S
C85 H75 0.930 1_554 S
C85 C84 1.384 . S
C85 C86 1.389 . S
C86 C85 1.389 . S
C86 C87 1.405 . S
C87 H76 0.930 . S
C87 C86 1.405 . S
C87 C88 1.364 . S
C88 C87 1.364 . S
C88 C89 1.400 . S
C89 H77 0.931 . S
C89 C84 1.408 . S
C89 C88 1.400 . S
H90 C96 0.930 . S
H91 C99 0.931 . S
H92 C101 0.931 . S
H93 C103 0.930 . S
H94 C105 0.930 . S
H95 C107 0.931 . S
C96 H90 0.930 . S
C96 C97 1.380 . S
C96 C98 1.394 . S
C97 C96 1.380 . S
C97 C101 1.382 . S
C98 C96 1.394 . S
C98 C99 1.400 . S
C99 H91 0.931 . S
C99 C98 1.400 . S
C99 C100 1.375 . S
C100 C99 1.375 . S
C100 C101 1.415 . S
C100 C102 1.501 . S
C101 H92 0.931 . S
C101 C97 1.382 . S
C101 C100 1.415 . S
C102 C100 1.501 . S
C102 C103 1.384 . S
C102 C107 1.408 . S
C103 H93 0.930 . S
C103 C102 1.384 . S
C103 C104 1.389 . S
C104 C103 1.389 . S
C104 C105 1.405 . S
C105 H94 0.930 . S
C105 C104 1.405 . S
C105 C106 1.364 . S
C106 C105 1.364 . S
C106 C107 1.400 . S
C107 H95 0.931 . S
C107 C102 1.408 . S
C107 C106 1.400 . S
C108 O135 1.312 . S
C108 O136 1.208 . S
C109 O130 1.331 1_554 S
C109 O133 1.244 . S
C110 O132 1.264 . S
C110 O134 1.273 1_556 S
Mg111 O113 1.936 1_455 S
Mg111 O120 2.081 1_455 S
Mg111 O122 2.023 . S
Mg111 O126 2.031 1_455 S
Mg111 O135 2.291 . S
Mg112 O113 1.963 . S
Mg112 O123 1.942 . S
Mg112 O124 1.955 1_655 S
Mg112 O131 1.986 . S
O113 Mg111 1.936 1_655 S
O113 Mg112 1.963 . S
O113 Mg114 1.915 1_655 S
Mg114 O113 1.915 1_455 S
Mg114 O115 1.915 . S
Mg114 O119 2.013 . S
Mg114 O125 2.114 1_455 S
Mg114 O129 2.013 1_455 S
Mg114 O135 2.114 . S
O115 Mg114 1.915 . S
O115 Mg116 1.936 . S
O115 Mg117 1.963 1_556 S
Mg116 O115 1.936 . S
Mg116 O125 2.291 1_455 S
Mg116 O130 2.081 . S
Mg116 O132 2.023 1_455 S
Mg116 O136 2.031 . S
Mg117 O115 1.963 1_554 S
Mg117 O121 1.986 . S
Mg117 O133 1.942 . S
Mg117 O134 1.955 1_455 S
C118 O129 1.191 . S
C118 O131 1.307 . S
O119 Mg114 2.013 . S
O119 C138 1.191 . S
O120 Mg111 2.081 1_655 S
O120 C128 1.331 . S
O121 Mg117 1.986 . S
O121 C138 1.307 1_554 S
O122 Mg111 2.023 . S
O122 C137 1.264 . S
O123 Mg112 1.942 . S
O123 C128 1.244 . S
O124 Mg112 1.955 1_455 S
O124 C137 1.273 . S
O125 Mg114 2.114 1_655 S
O125 Mg116 2.291 1_655 S
O125 C127 1.312 . S
O126 Mg111 2.031 1_655 S
O126 C127 1.208 . S
C127 O125 1.312 . S
C127 O126 1.208 . S
C128 O120 1.331 . S
C128 O123 1.244 . S
O129 Mg114 2.013 1_655 S
O129 C118 1.191 . S
O130 C109 1.331 1_556 S
O130 Mg116 2.081 . S
O131 Mg112 1.986 . S
O131 C118 1.307 . S
O132 C110 1.264 . S
O132 Mg116 2.023 1_655 S
O133 C109 1.244 . S
O133 Mg117 1.942 . S
O134 C110 1.273 1_554 S
O134 Mg117 1.955 1_655 S
O135 C108 1.312 . S
O135 Mg111 2.291 . S
O135 Mg114 2.114 . S
O136 C108 1.208 . S
O136 Mg116 2.031 . S
C137 O122 1.264 . S
C137 O124 1.273 . S
C138 O119 1.191 . S
C138 O121 1.307 1_556 S
C139 O166 1.312 . S
C139 O167 1.208 . S
C140 O161 1.331 . S
C140 O164 1.244 . S
C141 O163 1.264 . S
C141 O165 1.273 . S
Mg142 O144 1.936 1_545 S
Mg142 O151 2.081 1_545 S
Mg142 O153 2.023 . S
Mg142 O157 2.031 1_545 S
Mg142 O166 2.291 . S
Mg143 O144 1.963 1_554 S
Mg143 O154 1.942 . S
Mg143 O155 1.955 1_565 S
Mg143 O162 1.986 1_554 S
O144 Mg142 1.936 1_565 S
O144 Mg143 1.963 1_556 S
O144 Mg145 1.915 1_565 S
Mg145 O144 1.915 1_545 S
Mg145 O146 1.915 . S
Mg145 O150 2.013 . S
Mg145 O156 2.114 1_545 S
Mg145 O160 2.013 1_545 S
Mg145 O166 2.114 . S
O146 Mg145 1.915 . S
O146 Mg147 1.936 . S
O146 Mg148 1.963 . S
Mg147 O146 1.936 . S
Mg147 O156 2.291 1_545 S
Mg147 O161 2.081 . S
Mg147 O163 2.023 1_545 S
Mg147 O167 2.031 . S
Mg148 O146 1.963 . S
Mg148 O152 1.986 . S
Mg148 O164 1.942 . S
Mg148 O165 1.955 1_545 S
C149 O160 1.191 . S
C149 O162 1.307 . S
O150 Mg145 2.013 . S
O150 C169 1.191 . S
O151 Mg142 2.081 1_565 S
O151 C159 1.331 . S
O152 Mg148 1.986 . S
O152 C169 1.307 . S
O153 Mg142 2.023 . S
O153 C168 1.264 1_556 S
O154 Mg143 1.942 . S
O154 C159 1.244 1_554 S
O155 Mg143 1.955 1_545 S
O155 C168 1.273 . S
O156 Mg145 2.114 1_565 S
O156 Mg147 2.291 1_565 S
O156 C158 1.312 . S
O157 Mg142 2.031 1_565 S
O157 C158 1.208 . S
C158 O156 1.312 . S
C158 O157 1.208 . S
C159 O151 1.331 . S
C159 O154 1.244 1_556 S
O160 Mg145 2.013 1_565 S
O160 C149 1.191 . S
O161 C140 1.331 . S
O161 Mg147 2.081 . S
O162 Mg143 1.986 1_556 S
O162 C149 1.307 . S
O163 C141 1.264 . S
O163 Mg147 2.023 1_565 S
O164 C140 1.244 . S
O164 Mg148 1.942 . S
O165 C141 1.273 . S
O165 Mg148 1.955 1_565 S
O166 C139 1.312 . S
O166 Mg142 2.291 . S
O166 Mg145 2.114 . S
O167 C139 1.208 . S
O167 Mg147 2.031 . S
C168 O153 1.264 1_554 S
C168 O155 1.273 . S
C169 O150 1.191 . S
C169 O152 1.307 . S
C170 O197 1.312 . S
C170 O198 1.208 . S
C171 O192 1.331 . S
C171 O195 1.244 1_554 S
C172 O194 1.264 1_556 S
C172 O196 1.273 . S
Mg173 O175 1.936 . S
Mg173 O182 2.081 . S
Mg173 O184 2.023 . S
Mg173 O188 2.031 . S
Mg173 O197 2.291 . S
Mg174 O175 1.963 . S
Mg174 O185 1.942 . S
Mg174 O186 1.955 . S
Mg174 O193 1.986 . S
O175 Mg173 1.936 . S
O175 Mg174 1.963 . S
O175 Mg176 1.915 . S
Mg176 O175 1.915 . S
Mg176 O177 1.915 . S
Mg176 O181 2.013 . S
Mg176 O187 2.114 . S
Mg176 O191 2.013 . S
Mg176 O197 2.114 . S
O177 Mg176 1.915 . S
O177 Mg178 1.936 1_556 S
O177 Mg179 1.963 . S
Mg178 O177 1.936 1_554 S
Mg178 O187 2.291 1_554 S
Mg178 O192 2.081 . S
Mg178 O194 2.023 . S
Mg178 O198 2.031 1_554 S
Mg179 O177 1.963 . S
Mg179 O183 1.986 . S
Mg179 O195 1.942 . S
Mg179 O196 1.955 . S
C180 O191 1.191 . S
C180 O193 1.307 . S
O181 Mg176 2.013 . S
O181 C200 1.191 . S
O182 Mg173 2.081 . S
O182 C190 1.331 . S
O183 Mg179 1.986 . S
O183 C200 1.307 . S
O184 Mg173 2.023 . S
O184 C199 1.264 . S
O185 Mg174 1.942 . S
O185 C190 1.244 . S
O186 Mg174 1.955 . S
O186 C199 1.273 . S
O187 Mg176 2.114 . S
O187 Mg178 2.291 1_556 S
O187 C189 1.312 . S
O188 Mg173 2.031 . S
O188 C189 1.208 . S
C189 O187 1.312 . S
C189 O188 1.208 . S
C190 O182 1.331 . S
C190 O185 1.244 . S
O191 Mg176 2.013 . S
O191 C180 1.191 . S
O192 C171 1.331 . S
O192 Mg178 2.081 . S
O193 Mg174 1.986 . S
O193 C180 1.307 . S
O194 C172 1.264 1_554 S
O194 Mg178 2.023 . S
O195 C171 1.244 1_556 S
O195 Mg179 1.942 . S
O196 C172 1.273 . S
O196 Mg179 1.955 . S
O197 C170 1.312 . S
O197 Mg173 2.291 . S
O197 Mg176 2.114 . S
O198 C170 1.208 . S
O198 Mg178 2.031 1_556 S
C199 O184 1.264 . S
C199 O186 1.273 . S
C200 O181 1.191 . S
C200 O183 1.307 . S
C16 C108 2.013 . S
C26 C140 1.339 . S
C199 C52 1.896 . S
C128 C62 1.193 . S
C80 C158 2.028 . S
C180 C98 1.413 . S
C149 C43 2.054 . S
C68 C189 1.416 . S
C138 C86 2.116 1_556 S
C104 C168 1.359 . S
C7 C171 1.752 . S
C110 C32 1.487 1_556 S
C118 C61 1.909 . S
C159 C79 1.253 1_556 S
C172 C97 1.936 1_556 S
C109 C14 1.296 . S
C169 C25 1.847 . S
C50 C170 1.200 . S
C139 C106 1.888 . S
C200 C8 1.237 . S
C127 C34 1.847 . S
C141 C44 1.402 . S
C70 C190 1.772 . S
C88 C137 1.420 . S
