# Generated by pormake.
# Topology pth, (4,4)-cn, num edge types: 1
# Building blocks:
#     Node 0, Type 0, BuildingBlock: QUQFOY_clean_sbu_1, # of connection points: 4
#     Node 1, Type 0, BuildingBlock: QUQFOY_clean_sbu_1, # of connection points: 4
#     Node 2, Type 0, BuildingBlock: QUQFOY_clean_sbu_1, # of connection points: 4
#     Node 3, Type 1, BuildingBlock: MUDLON_clean_linker_0, # of connection points: 4
#     Node 4, Type 1, BuildingBlock: MUDLON_clean_linker_0, # of connection points: 4
#     Node 5, Type 1, BuildingBlock: MUDLON_clean_linker_0, # of connection points: 4
#     Edge 6, Type (0, 1), None
#     Edge 7, Type (0, 1), None
#     Edge 8, Type (0, 1), None
#     Edge 9, Type (0, 1), None
#     Edge 10, Type (0, 1), None
#     Edge 11, Type (0, 1), None
#     Edge 12, Type (0, 1), None
#     Edge 13, Type (0, 1), None
#     Edge 14, Type (0, 1), None
#     Edge 15, Type (0, 1), None
#     Edge 16, Type (0, 1), None
#     Edge 17, Type (0, 1), None
# Relax obj value: 0.062
# Max RMSD: 0.156
# Mean RMSD: 0.116
data_MOF--net-pth--node1-QUQFOY_clean_sbu_1--node2-MUDLON_clean_linker_0--edge1-none
_symmetry_space_group_name_H-M    P1
_symmetry_Int_Tables_number       1
_symmetry_cell_setting            triclinic
loop_
_symmetry_equiv_pos_as_xyz
'x, y, z'
_cell_length_a     21.238326
_cell_length_b     21.192068
_cell_length_c     37.282602
_cell_angle_alpha  89.954679
_cell_angle_beta   90.057806
_cell_angle_gamma 120.16983
loop_
_atom_site_label
_atom_site_type_symbol
_atom_site_fract_x
_atom_site_fract_y
_atom_site_fract_z
_atom_type_partial_charge
O0 O -0.00888 0.11292 1.04609 0.0
Cd1 Cd 0.90817 0.04686 0.08026 0.0
Cd2 Cd -0.02414 0.97056 0.08053 0.0
O3 O 0.0596 0.06419 1.05727 0.0
O4 O 0.8679 0.106 0.10167 0.0
O5 O 0.92955 0.06557 0.13269 0.0
C6 C 0.89694 0.10309 0.13161 0.0
C7 C -0.01366 0.91406 0.13201 0.0
C8 C 0.05036 0.11266 1.0419 0.0
C9 C 0.83421 0.90481 1.0416 0.0
O10 O 0.89341 0.90458 1.04608 0.0
O11 O 0.82476 0.95324 1.0568 0.0
O12 O 0.0158 0.91129 0.10222 0.0
O13 O -0.04623 0.95162 0.13289 0.0
O14 O 0.8865 0.05241 0.4694 0.0
Cd15 Cd -0.03142 0.08014 0.4332 0.0
Cd16 Cd 0.91357 0.93664 0.43347 0.0
O17 O 0.82267 0.93581 0.45485 0.0
O18 O -0.00871 0.17405 0.40861 0.0
O19 O 0.9349 0.06553 0.38248 0.0
C20 C -0.04232 0.13448 0.381 0.0
C21 C 0.92391 0.88195 0.38134 0.0
C22 C 0.82888 0.9905 0.47221 0.0
C23 C 0.05388 0.02685 0.47198 0.0
O24 O -0.00378 0.9649 0.46946 0.0
O25 O 0.0598 0.08127 0.45443 0.0
O26 O 0.89064 0.84255 0.40906 0.0
O27 O 0.94661 0.95089 0.38269 0.0
O28 O 0.84741 0.94018 0.70909 0.0
Cd29 Cd 0.91604 0.93632 0.74561 0.0
Cd30 Cd -0.03034 0.08203 0.7458 0.0
O31 O 0.86522 0.04834 0.72541 0.0
O32 O 0.86419 0.84207 0.77437 0.0
O33 O 0.88644 0.94974 0.79401 0.0
C34 C 0.85602 0.88047 0.79896 0.0
C35 C 0.02984 0.13741 0.79922 0.0
C36 C 0.82955 0.98905 0.7076 0.0
C37 C 0.05591 0.02969 0.70737 0.0
O38 O 0.03808 0.07856 0.7091 0.0
O39 O 0.02036 0.97024 0.72508 0.0
O40 O 0.02154 0.176 0.77474 0.0
O41 O -0.00048 0.06821 0.79412 0.0
H42 H 0.07318 0.90237 0.28632 0.0
N43 N 0.00018 0.76894 0.25916 0.0
H44 H 0.03976 0.95238 0.33707 0.0
H45 H 0.88015 0.69281 0.30341 0.0
H46 H 0.84871 0.7419 0.35533 0.0
H47 H 0.0939 0.81597 0.20462 0.0
H48 H 0.08951 0.8789 0.15012 0.0
H49 H 0.88824 0.79011 0.23863 0.0
H50 H 0.88551 0.85619 0.18534 0.0
H51 H 0.87283 0.65118 0.23637 0.0
H52 H 0.08555 0.71693 0.27902 0.0
H53 H 0.84454 0.52382 0.2348 0.0
H54 H 0.05784 0.58984 0.27783 0.0
H55 H 0.8082 0.11365 0.28583 0.0
H56 H 0.84176 0.06381 0.33668 0.0
H57 H 0.03263 0.27447 0.3549 0.0
H58 H 0.00103 0.32338 0.3029 0.0
H59 H -0.00641 0.22664 0.23846 0.0
H60 H -0.00282 0.16106 0.18523 0.0
H61 H 0.79319 0.13763 0.14928 0.0
H62 H 0.7879 0.20006 0.20373 0.0
H63 H 0.79538 0.29865 0.27849 0.0
H64 H 0.82291 0.42571 0.27762 0.0
H65 H 0.03627 0.49247 0.23464 0.0
N66 N 0.88103 0.24708 0.25859 0.0
H67 H 0.00817 0.36517 0.23588 0.0
C68 C -0.01975 0.79381 0.29106 0.0
C69 C 0.02414 0.86695 0.30127 0.0
C70 C 0.0046 0.89552 0.33005 0.0
C71 C 0.94142 0.85099 0.34999 0.0
C72 C 0.89771 0.77732 0.34036 0.0
C73 C 0.91614 0.74916 0.31073 0.0
C74 C -0.00788 0.79914 0.22587 0.0
C75 C 0.04778 0.82364 0.20022 0.0
C76 C 0.04537 0.85982 0.1693 0.0
C77 C -0.01209 0.8736 0.16395 0.0
C78 C 0.93115 0.84747 0.18918 0.0
C79 C 0.93249 0.80939 0.21955 0.0
C80 C -0.01856 0.69339 0.2579 0.0
C81 C 0.9134 0.63808 0.24537 0.0
C82 C 0.89727 0.56535 0.24467 0.0
C83 C 0.94902 0.54665 0.25616 0.0
C84 C 0.01713 0.6024 0.26838 0.0
C85 C 0.03293 0.67488 0.26931 0.0
C86 C 0.901 0.22229 0.29055 0.0
C87 C 0.85721 0.14914 0.30079 0.0
C88 C 0.87684 0.12067 0.32964 0.0
C89 C 0.94002 0.1653 0.3496 0.0
C90 C -0.01637 0.23897 0.33992 0.0
C91 C -0.0349 0.26704 0.31024 0.0
C92 C 0.88961 0.2172 0.22534 0.0
C93 C 0.94951 0.20732 0.21923 0.0
C94 C -0.04864 0.16951 0.1889 0.0
C95 C 0.89486 0.14332 0.16349 0.0
C96 C 0.83714 0.15677 0.16861 0.0
C97 C 0.83422 0.19265 0.1995 0.0
C98 C 0.89954 0.32257 0.25736 0.0
C99 C 0.84796 0.34086 0.26884 0.0
C100 C 0.86367 0.41332 0.2681 0.0
C101 C 0.93177 0.46927 0.25601 0.0
C102 C -0.01644 0.45078 0.24441 0.0
C103 C -0.03247 0.37808 0.24493 0.0
H104 H 0.71724 0.07312 0.62921 0.0
N105 N 0.63942 0.94624 0.59049 0.0
H106 H 0.79857 0.09105 0.67977 0.0
H107 H 0.65064 0.84472 0.62608 0.0
H108 H 0.72986 0.86135 0.67684 0.0
H109 H 0.61904 0.84969 0.53959 0.0
H110 H 0.69882 0.86684 0.48837 0.0
H111 H 0.75824 0.07495 0.56942 0.0
H112 H 0.83589 0.09314 0.51848 0.0
H113 H 0.65249 0.07851 0.57282 0.0
H114 H 0.50202 0.86037 0.60937 0.0
H115 H 0.55551 0.10735 0.57255 0.0
H116 H 0.40462 0.88994 0.61097 0.0
H117 H 0.23331 0.17418 0.6253 0.0
H118 H 0.15455 0.15742 0.67621 0.0
H119 H 0.08737 0.92809 0.67959 0.0
H120 H 0.16826 0.94618 0.62889 0.0
H121 H 0.12621 0.94374 0.56923 0.0
H122 H 0.04782 0.92482 0.51845 0.0
H123 H 0.18404 0.15086 0.48765 0.0
H124 H 0.26456 0.16876 0.53871 0.0
H125 H 0.38233 0.15887 0.60901 0.0
H126 H 0.47983 0.12945 0.61096 0.0
H127 H 0.32951 0.91221 0.57215 0.0
N128 N 0.24504 0.07287 0.58989 0.0
H129 H 0.23244 0.94088 0.57207 0.0
C130 C 0.67894 0.95746 0.6235 0.0
C131 C 0.71917 0.02658 0.63977 0.0
C132 C 0.76523 0.03672 0.66887 0.0
C133 C 0.77146 0.9779 0.68202 0.0
C134 C 0.72714 0.90812 0.66714 0.0
C135 C 0.68169 0.89826 0.63816 0.0
C136 C 0.68219 0.96076 0.55831 0.0
C137 C 0.66576 0.90315 0.53459 0.0
C138 C 0.71128 0.91308 0.50538 0.0
C139 C 0.77391 0.98128 0.49933 0.0
C140 C 0.7881 0.03982 0.52218 0.0
C141 C 0.74329 0.02956 0.5515 0.0
C142 C 0.58417 0.9665 0.59062 0.0
C143 C 0.59871 0.03666 0.58088 0.0
C144 C 0.54305 0.05345 0.58112 0.0
C145 C 0.47207 1.00093 0.59163 0.0
C146 C 0.45822 0.93129 0.60203 0.0
C147 C 0.51376 0.91437 0.60138 0.0
C148 C 0.20575 0.06163 0.62294 0.0
C149 C 0.20269 0.1207 0.63751 0.0
C150 C 0.15751 0.11076 0.66657 0.0
C151 C 0.11375 0.04103 0.68164 0.0
C152 C 0.12026 0.98238 0.66855 0.0
C153 C 0.16608 0.9926 0.63937 0.0
C154 C 0.20189 0.05788 0.55777 0.0
C155 C 0.14082 0.98892 0.55119 0.0
C156 C 0.09557 0.97824 0.52197 0.0
C157 C 0.10931 0.03649 0.49897 0.0
C158 C 0.17193 0.10483 0.50478 0.0
C159 C 0.21787 0.11519 0.5339 0.0
C160 C 0.30045 0.05281 0.59005 0.0
C161 C 0.37075 0.10496 0.60099 0.0
C162 C 0.42635 0.08812 0.60184 0.0
C163 C 0.41267 0.01855 0.59148 0.0
C164 C 0.34184 0.96605 0.58073 0.0
C165 C 0.28611 0.98275 0.58028 0.0
H166 H 0.63468 0.83406 0.96699 0.0
N167 N 0.66252 0.75846 0.91915 0.0
H168 H 0.70689 0.89684 1.02017 0.0
H169 H 0.77101 0.74101 0.94757 0.0
H170 H 0.84307 0.80246 1.00067 0.0
H171 H 0.71576 0.89 0.89133 0.0
H172 H 0.8001 0.94366 0.8414 0.0
H173 H 0.71906 0.68954 0.87872 0.0
H174 H 0.80207 0.74221 0.82738 0.0
H175 H 0.52994 0.72267 0.89732 0.0
H176 H 0.65649 0.63047 0.93754 0.0
H177 H 0.42134 0.60091 0.89564 0.0
H178 H 0.54826 0.50896 0.93686 0.0
H179 H 0.11467 0.27653 0.94777 0.0
H180 H 0.04221 0.21528 1.00076 0.0
H181 H 0.17769 0.12027 1.02091 0.0
H182 H 0.2503 0.18283 0.96783 0.0
H183 H 0.16966 0.12709 0.89179 0.0
H184 H 0.08548 0.07381 0.84171 0.0
H185 H 0.08388 0.27551 0.82778 0.0
H186 H 0.16673 0.32779 0.87923 0.0
H187 H 0.22955 0.38674 0.93805 0.0
H188 H 0.33785 0.50815 0.93703 0.0
H189 H 0.46411 0.41563 0.89584 0.0
N190 N 0.22302 0.25853 0.91971 0.0
H191 H 0.35542 0.29395 0.89784 0.0
C192 C 0.69778 0.78348 0.95337 0.0
C193 C 0.67909 0.82574 0.97486 0.0
C194 C 0.72041 0.86148 1.00519 0.0
C195 C 0.78134 0.85542 1.01448 0.0
C196 C 0.79669 0.80861 0.99426 0.0
C197 C 0.75544 0.77315 0.96389 0.0
C198 C 0.71005 0.78571 0.88843 0.0
C199 C 0.73437 0.85743 0.8775 0.0
C200 C 0.78305 0.88804 0.8491 0.0
C201 C 0.80798 0.84715 0.83043 0.0
C202 C 0.78375 0.77495 0.84126 0.0
C203 C 0.73586 0.74468 0.87043 0.0
C204 C 0.60091 0.68561 0.9176 0.0
C205 C 0.53407 0.67598 0.90577 0.0
C206 C 0.47216 0.60657 0.9051 0.0
C207 C 0.47603 0.54523 0.91628 0.0
C208 C 0.54355 0.55494 0.92771 0.0
C209 C 0.60548 0.6245 0.92835 0.0
C210 C 0.18758 0.23371 0.95389 0.0
C211 C 0.13001 0.24429 0.9642 0.0
C212 C 0.08853 0.20895 0.99452 0.0
C213 C 0.10355 0.16201 1.01489 0.0
C214 C 0.16442 0.15573 1.00582 0.0
C215 C 0.20597 0.19134 0.97554 0.0
C216 C 0.17555 0.23147 0.88893 0.0
C217 C 0.15117 0.15979 0.87794 0.0
C218 C 0.10258 0.1294 0.84946 0.0
C219 C 0.0778 0.17047 0.83077 0.0
C220 C 0.10208 0.24263 0.84166 0.0
C221 C 0.14988 0.27268 0.87091 0.0
C222 C 0.28477 0.3313 0.91814 0.0
C223 C 0.28042 0.39255 0.9288 0.0
C224 C 0.3424 0.46206 0.92797 0.0
C225 C 0.40975 0.4716 0.91643 0.0
C226 C 0.41343 0.41012 0.90538 0.0
C227 C 0.35146 0.34075 0.90624 0.0
loop_
_geom_bond_atom_site_label_1
_geom_bond_atom_site_label_2
_geom_bond_distance
_geom_bond_site_symmetry_2
_ccdc_geom_bond_type
O0 Cd1 2.223 1_456 S
O0 C8 1.315 . S
Cd1 O0 2.223 1_654 S
Cd1 O4 2.297 . S
Cd1 O5 2.439 . S
Cd1 O11 2.240 1_545 S
Cd2 O3 2.240 1_565 S
Cd2 O10 2.223 1_454 S
Cd2 O12 2.297 . S
Cd2 O13 2.439 . S
O3 Cd2 2.240 1_545 S
O3 C8 1.279 1_554 S
O4 Cd1 2.297 . S
O4 C6 1.247 . S
O5 Cd1 2.439 . S
O5 C6 1.208 . S
C6 O4 1.247 . S
C6 O5 1.208 . S
C7 O12 1.247 . S
C7 O13 1.208 . S
C8 O0 1.315 . S
C8 O3 1.279 1_556 S
C9 O10 1.315 . S
C9 O11 1.279 1_556 S
O10 Cd2 2.223 1_656 S
O10 C9 1.315 . S
O11 Cd1 2.240 1_565 S
O11 C9 1.279 1_554 S
O12 Cd2 2.297 . S
O12 C7 1.247 . S
O13 Cd2 2.439 . S
O13 C7 1.208 . S
O14 Cd15 2.223 1_655 S
O14 C22 1.315 . S
Cd15 O14 2.223 1_455 S
Cd15 O18 2.297 . S
Cd15 O19 2.439 . S
Cd15 O25 2.240 . S
Cd16 O17 2.240 . S
Cd16 O24 2.223 1_655 S
Cd16 O26 2.297 . S
Cd16 O27 2.439 . S
O17 Cd16 2.240 . S
O17 C22 1.279 1_565 S
O18 Cd15 2.297 . S
O18 C20 1.247 . S
O19 Cd15 2.439 . S
O19 C20 1.208 . S
C20 O18 1.247 . S
C20 O19 1.208 . S
C21 O26 1.247 . S
C21 O27 1.208 . S
C22 O14 1.315 . S
C22 O17 1.279 1_545 S
C23 O24 1.315 . S
C23 O25 1.279 1_565 S
O24 Cd16 2.223 1_455 S
O24 C23 1.315 . S
O25 Cd15 2.240 . S
O25 C23 1.279 1_545 S
O26 Cd16 2.297 . S
O26 C21 1.247 . S
O27 Cd16 2.439 . S
O27 C21 1.208 . S
O28 Cd29 2.223 . S
O28 C36 1.315 . S
Cd29 O28 2.223 . S
Cd29 O32 2.297 . S
Cd29 O33 2.439 . S
Cd29 O39 2.240 1_655 S
Cd30 O31 2.240 1_455 S
Cd30 O38 2.223 . S
Cd30 O40 2.297 . S
Cd30 O41 2.439 . S
O31 Cd30 2.240 1_655 S
O31 C36 1.279 1_545 S
O32 Cd29 2.297 . S
O32 C34 1.247 . S
O33 Cd29 2.439 . S
O33 C34 1.208 . S
C34 O32 1.247 . S
C34 O33 1.208 . S
C35 O40 1.247 . S
C35 O41 1.208 . S
C36 O28 1.315 . S
C36 O31 1.279 1_565 S
C37 O38 1.315 . S
C37 O39 1.279 1_545 S
O38 Cd30 2.223 . S
O38 C37 1.315 . S
O39 Cd29 2.240 1_455 S
O39 C37 1.279 1_565 S
O40 Cd30 2.297 . S
O40 C35 1.247 . S
O41 Cd30 2.439 . S
O41 C35 1.208 . S
H42 C69 0.929 . S
N43 C68 1.433 . S
N43 C74 1.435 . S
N43 C80 1.423 . S
H44 C70 0.930 . S
H45 C73 0.931 . S
H46 C72 0.929 . S
H47 C75 0.930 . S
H48 C76 0.932 . S
H49 C79 0.929 . S
H50 C78 0.931 . S
H51 C81 0.929 . S
H52 C85 0.932 1_455 S
H53 C82 0.931 . S
H54 C84 0.929 1_455 S
H55 C87 0.929 . S
H56 C88 0.930 . S
H57 C90 0.929 . S
H58 C91 0.931 . S
H59 C93 0.930 . S
H60 C94 0.932 . S
H61 C96 0.931 . S
H62 C97 0.929 . S
H63 C99 0.929 . S
H64 C100 0.931 . S
H65 C102 0.929 1_455 S
N66 C86 1.433 . S
N66 C92 1.435 . S
N66 C98 1.423 . S
H67 C103 0.932 1_455 S
C68 N43 1.433 . S
C68 C69 1.363 . S
C68 C73 1.370 1_655 S
C69 H42 0.929 . S
C69 C68 1.363 . S
C69 C70 1.385 . S
C70 H44 0.930 . S
C70 C69 1.385 . S
C70 C71 1.357 . S
C71 C70 1.357 . S
C71 C72 1.406 1_655 S
C72 H46 0.929 . S
C72 C71 1.406 1_455 S
C72 C73 1.391 . S
C73 H45 0.931 . S
C73 C68 1.370 1_455 S
C73 C72 1.391 . S
C74 N43 1.435 . S
C74 C75 1.358 1_655 S
C74 C79 1.371 . S
C75 H47 0.930 . S
C75 C74 1.358 1_455 S
C75 C76 1.405 . S
C76 H48 0.932 . S
C76 C75 1.405 . S
C76 C77 1.383 1_455 S
C77 C76 1.383 1_655 S
C77 C78 1.393 . S
C78 H50 0.931 . S
C78 C77 1.393 . S
C78 C79 1.382 . S
C79 H49 0.929 . S
C79 C74 1.371 . S
C79 C78 1.382 . S
C80 N43 1.423 . S
C80 C81 1.362 . S
C80 C85 1.388 . S
C81 H51 0.929 . S
C81 C80 1.362 . S
C81 C82 1.376 . S
C82 H53 0.931 . S
C82 C81 1.376 . S
C82 C83 1.396 . S
C83 C82 1.396 . S
C83 C84 1.348 . S
C83 C101 1.472 . S
C84 H54 0.929 1_655 S
C84 C83 1.348 . S
C84 C85 1.443 . S
C85 H52 0.932 1_655 S
C85 C80 1.388 . S
C85 C84 1.443 . S
C86 N66 1.433 . S
C86 C87 1.363 . S
C86 C91 1.370 1_655 S
C87 H55 0.929 . S
C87 C86 1.363 . S
C87 C88 1.385 . S
C88 H56 0.930 . S
C88 C87 1.385 . S
C88 C89 1.357 . S
C89 C88 1.357 . S
C89 C90 1.406 1_655 S
C90 H57 0.929 . S
C90 C89 1.406 1_455 S
C90 C91 1.391 . S
C91 H58 0.931 . S
C91 C86 1.370 1_455 S
C91 C90 1.391 . S
C92 N66 1.435 . S
C92 C93 1.358 1_655 S
C92 C97 1.371 . S
C93 H59 0.930 . S
C93 C92 1.358 1_455 S
C93 C94 1.405 . S
C94 H60 0.932 . S
C94 C93 1.405 . S
C94 C95 1.383 1_455 S
C95 C94 1.383 1_655 S
C95 C96 1.393 . S
C96 H61 0.931 . S
C96 C95 1.393 . S
C96 C97 1.382 . S
C97 H62 0.929 . S
C97 C92 1.371 . S
C97 C96 1.382 . S
C98 N66 1.423 . S
C98 C99 1.362 . S
C98 C103 1.388 . S
C99 H63 0.929 . S
C99 C98 1.362 . S
C99 C100 1.376 . S
C100 H64 0.931 . S
C100 C99 1.376 . S
C100 C101 1.396 . S
C101 C83 1.472 . S
C101 C100 1.396 . S
C101 C102 1.348 . S
C102 H65 0.929 1_655 S
C102 C101 1.348 . S
C102 C103 1.443 . S
C103 H67 0.932 1_655 S
C103 C98 1.388 . S
C103 C102 1.443 . S
H104 C131 0.929 . S
N105 C130 1.433 . S
N105 C136 1.435 . S
N105 C142 1.423 . S
H106 C132 0.930 . S
H107 C135 0.931 . S
H108 C134 0.929 . S
H109 C137 0.930 . S
H110 C138 0.932 . S
H111 C141 0.929 . S
H112 C140 0.931 . S
H113 C143 0.929 . S
H114 C147 0.932 1_565 S
H115 C144 0.931 . S
H116 C146 0.929 1_565 S
H117 C149 0.929 . S
H118 C150 0.930 . S
H119 C152 0.929 . S
H120 C153 0.931 . S
H121 C155 0.930 . S
H122 C156 0.932 . S
H123 C158 0.931 . S
H124 C159 0.929 . S
H125 C161 0.929 . S
H126 C162 0.931 . S
H127 C164 0.929 1_565 S
N128 C148 1.433 . S
N128 C154 1.435 . S
N128 C160 1.423 . S
H129 C165 0.932 1_565 S
C130 N105 1.433 . S
C130 C131 1.363 . S
C130 C135 1.370 1_545 S
C131 H104 0.929 . S
C131 C130 1.363 . S
C131 C132 1.385 . S
C132 H106 0.930 . S
C132 C131 1.385 . S
C132 C133 1.357 . S
C133 C132 1.357 . S
C133 C134 1.406 1_545 S
C134 H108 0.929 . S
C134 C133 1.406 1_565 S
C134 C135 1.391 . S
C135 H107 0.931 . S
C135 C130 1.370 1_565 S
C135 C134 1.391 . S
C136 N105 1.435 . S
C136 C137 1.358 1_545 S
C136 C141 1.371 . S
C137 H109 0.930 . S
C137 C136 1.358 1_565 S
C137 C138 1.405 . S
C138 H110 0.932 . S
C138 C137 1.405 . S
C138 C139 1.383 1_565 S
C139 C138 1.383 1_545 S
C139 C140 1.393 . S
C140 H112 0.931 . S
C140 C139 1.393 . S
C140 C141 1.382 . S
C141 H111 0.929 . S
C141 C136 1.371 . S
C141 C140 1.382 . S
C142 N105 1.423 . S
C142 C143 1.362 . S
C142 C147 1.388 . S
C143 H113 0.929 . S
C143 C142 1.362 . S
C143 C144 1.376 . S
C144 H115 0.931 . S
C144 C143 1.376 . S
C144 C145 1.396 . S
C145 C144 1.396 . S
C145 C146 1.348 . S
C145 C163 1.472 . S
C146 H116 0.929 1_545 S
C146 C145 1.348 . S
C146 C147 1.443 . S
C147 H114 0.932 1_545 S
C147 C142 1.388 . S
C147 C146 1.443 . S
C148 N128 1.433 . S
C148 C149 1.363 . S
C148 C153 1.370 1_545 S
C149 H117 0.929 . S
C149 C148 1.363 . S
C149 C150 1.385 . S
C150 H118 0.930 . S
C150 C149 1.385 . S
C150 C151 1.357 . S
C151 C150 1.357 . S
C151 C152 1.406 1_545 S
C152 H119 0.929 . S
C152 C151 1.406 1_565 S
C152 C153 1.391 . S
C153 H120 0.931 . S
C153 C148 1.370 1_565 S
C153 C152 1.391 . S
C154 N128 1.435 . S
C154 C155 1.358 1_545 S
C154 C159 1.371 . S
C155 H121 0.930 . S
C155 C154 1.358 1_565 S
C155 C156 1.405 . S
C156 H122 0.932 . S
C156 C155 1.405 . S
C156 C157 1.383 1_565 S
C157 C156 1.383 1_545 S
C157 C158 1.393 . S
C158 H123 0.931 . S
C158 C157 1.393 . S
C158 C159 1.382 . S
C159 H124 0.929 . S
C159 C154 1.371 . S
C159 C158 1.382 . S
C160 N128 1.423 . S
C160 C161 1.362 . S
C160 C165 1.388 . S
C161 H125 0.929 . S
C161 C160 1.362 . S
C161 C162 1.376 . S
C162 H126 0.931 . S
C162 C161 1.376 . S
C162 C163 1.396 . S
C163 C145 1.472 . S
C163 C162 1.396 . S
C163 C164 1.348 . S
C164 H127 0.929 1_545 S
C164 C163 1.348 . S
C164 C165 1.443 . S
C165 H129 0.932 1_545 S
C165 C160 1.388 . S
C165 C164 1.443 . S
H166 C193 0.929 . S
N167 C192 1.433 . S
N167 C198 1.435 . S
N167 C204 1.423 . S
H168 C194 0.930 . S
H169 C197 0.931 . S
H170 C196 0.929 . S
H171 C199 0.930 . S
H172 C200 0.932 . S
H173 C203 0.929 . S
H174 C202 0.931 . S
H175 C205 0.929 . S
H176 C209 0.932 . S
H177 C206 0.931 . S
H178 C208 0.929 . S
H179 C211 0.929 . S
H180 C212 0.930 . S
H181 C214 0.929 . S
H182 C215 0.931 . S
H183 C217 0.930 . S
H184 C218 0.932 . S
H185 C220 0.931 . S
H186 C221 0.929 . S
H187 C223 0.929 . S
H188 C224 0.931 . S
H189 C226 0.929 . S
N190 C210 1.433 . S
N190 C216 1.435 . S
N190 C222 1.423 . S
H191 C227 0.932 . S
C192 N167 1.433 . S
C192 C193 1.363 . S
C192 C197 1.370 . S
C193 H166 0.929 . S
C193 C192 1.363 . S
C193 C194 1.385 . S
C194 H168 0.930 . S
C194 C193 1.385 . S
C194 C195 1.357 . S
C195 C194 1.357 . S
C195 C196 1.406 . S
C196 H170 0.929 . S
C196 C195 1.406 . S
C196 C197 1.391 . S
C197 H169 0.931 . S
C197 C192 1.370 . S
C197 C196 1.391 . S
C198 N167 1.435 . S
C198 C199 1.358 . S
C198 C203 1.371 . S
C199 H171 0.930 . S
C199 C198 1.358 . S
C199 C200 1.405 . S
C200 H172 0.932 . S
C200 C199 1.405 . S
C200 C201 1.383 . S
C201 C200 1.383 . S
C201 C202 1.393 . S
C202 H174 0.931 . S
C202 C201 1.393 . S
C202 C203 1.382 . S
C203 H173 0.929 . S
C203 C198 1.371 . S
C203 C202 1.382 . S
C204 N167 1.423 . S
C204 C205 1.362 . S
C204 C209 1.388 . S
C205 H175 0.929 . S
C205 C204 1.362 . S
C205 C206 1.376 . S
C206 H177 0.931 . S
C206 C205 1.376 . S
C206 C207 1.396 . S
C207 C206 1.396 . S
C207 C208 1.348 . S
C207 C225 1.472 . S
C208 H178 0.929 . S
C208 C207 1.348 . S
C208 C209 1.443 . S
C209 H176 0.932 . S
C209 C204 1.388 . S
C209 C208 1.443 . S
C210 N190 1.433 . S
C210 C211 1.363 . S
C210 C215 1.370 . S
C211 H179 0.929 . S
C211 C210 1.363 . S
C211 C212 1.385 . S
C212 H180 0.930 . S
C212 C211 1.385 . S
C212 C213 1.357 . S
C213 C212 1.357 . S
C213 C214 1.406 . S
C214 H181 0.929 . S
C214 C213 1.406 . S
C214 C215 1.391 . S
C215 H182 0.931 . S
C215 C210 1.370 . S
C215 C214 1.391 . S
C216 N190 1.435 . S
C216 C217 1.358 . S
C216 C221 1.371 . S
C217 H183 0.930 . S
C217 C216 1.358 . S
C217 C218 1.405 . S
C218 H184 0.932 . S
C218 C217 1.405 . S
C218 C219 1.383 . S
C219 C218 1.383 . S
C219 C220 1.393 . S
C220 H185 0.931 . S
C220 C219 1.393 . S
C220 C221 1.382 . S
C221 H186 0.929 . S
C221 C216 1.371 . S
C221 C220 1.382 . S
C222 N190 1.423 . S
C222 C223 1.362 . S
C222 C227 1.388 . S
C223 H187 0.929 . S
C223 C222 1.362 . S
C223 C224 1.376 . S
C224 H188 0.931 . S
C224 C223 1.376 . S
C224 C225 1.396 . S
C225 C207 1.472 . S
C225 C224 1.396 . S
C225 C226 1.348 . S
C226 H189 0.929 . S
C226 C225 1.348 . S
C226 C227 1.443 . S
C227 H191 0.932 . S
C227 C222 1.388 . S
C227 C226 1.443 . S
C95 C6 1.903 . S
C22 C139 2.073 . S
C34 C201 2.080 . S
C7 C77 1.916 1_455 S
C157 C23 2.094 1_545 S
C35 C219 2.086 . S
C133 C36 1.934 1_545 S
C9 C195 2.262 . S
C71 C21 1.649 . S
C151 C37 1.872 . S
C213 C8 2.228 . S
C20 C89 1.655 1_455 S
