# Generated by pormake.
# Topology tsx, (6,3)-cn, num edge types: 1
# Building blocks:
#     Node 0, Type 0, BuildingBlock: JUFBIX_clean_sbu_0, # of connection points: 6
#     Node 1, Type 0, BuildingBlock: JUFBIX_clean_sbu_0, # of connection points: 6
#     Node 2, Type 1, BuildingBlock: KAKCAD_clean_linker_0, # of connection points: 3
#     Node 3, Type 1, BuildingBlock: KAKCAD_clean_linker_0, # of connection points: 3
#     Node 4, Type 1, BuildingBlock: KAKCAD_clean_linker_0, # of connection points: 3
#     Node 5, Type 1, BuildingBlock: KAKCAD_clean_linker_0, # of connection points: 3
#     Edge 6, Type (0, 1), None
#     Edge 7, Type (0, 1), None
#     Edge 8, Type (0, 1), None
#     Edge 9, Type (0, 1), None
#     Edge 10, Type (0, 1), None
#     Edge 11, Type (0, 1), None
#     Edge 12, Type (0, 1), None
#     Edge 13, Type (0, 1), None
#     Edge 14, Type (0, 1), None
#     Edge 15, Type (0, 1), None
#     Edge 16, Type (0, 1), None
#     Edge 17, Type (0, 1), None
# Relax obj value: 0.162
# Max RMSD: 0.173
# Mean RMSD: 0.143
data_MOF--net-tsx--node1-JUFBIX_clean_sbu_0--node2-KAKCAD_clean_linker_0--edge1-none
_symmetry_space_group_name_H-M    P1
_symmetry_Int_Tables_number       1
_symmetry_cell_setting            triclinic
loop_
_symmetry_equiv_pos_as_xyz
'x, y, z'
_cell_length_a     13.039159
_cell_length_b     15.949609
_cell_length_c     25.855226
_cell_angle_alpha  92.282268
_cell_angle_beta   89.990384
_cell_angle_gamma 104.2048
loop_
_atom_site_label
_atom_site_type_symbol
_atom_site_fract_x
_atom_site_fract_y
_atom_site_fract_z
_atom_type_partial_charge
Co0 Co 0.10748 0.98789 -0.02222 0.0
C1 C 0.04166 0.02679 0.88181 0.0
Co2 Co 0.99263 0.06936 -0.01771 0.0
C3 C 0.20869 0.84788 0.95369 0.0
C4 C 0.30412 0.94974 0.00168 0.0
N5 N 0.21103 0.92645 -0.02417 0.0
N6 N 0.29668 0.82112 -0.03509 0.0
C7 C 0.35699 0.88577 -0.00517 0.0
H8 H 0.1424 0.81036 0.93092 0.0
H9 H 0.33105 1.00874 0.02509 0.0
C10 C 0.06132 0.03116 0.07704 0.0
N11 N 0.88729 0.12907 -0.01204 0.0
C12 C 0.86538 0.19086 0.95867 0.0
C13 C 0.8097 0.11356 0.02346 0.0
N14 N 0.77671 0.2138 -0.02556 0.0
C15 C 0.74188 0.16532 0.01529 0.0
C16 C 0.9057 0.88892 -0.01562 0.0
O17 O 0.11187 0.98729 0.05005 0.0
O18 O 1.00466 0.07363 0.05509 0.0
O19 O 0.88602 0.96317 -0.0147 0.0
O20 O 1.00025 0.88329 -0.02239 0.0
O21 O 0.98371 0.0655 0.90853 0.0
H22 H 0.80178 0.0663 0.05301 0.0
H23 H 0.9116 0.21641 0.9255 0.0
O24 O 0.1023 0.98817 0.90464 0.0
O25 O 0.21407 0.09407 -0.01999 0.0
O26 O 0.09931 0.17435 -0.0186 0.0
C27 C 0.1948 0.1685 -0.01691 0.0
H28 H 0.43443 0.88756 0.01052 0.0
H29 H 0.67212 0.16692 0.03764 0.0
Co30 Co 0.6076 0.48794 0.47779 0.0
C31 C 0.54176 0.52681 0.38181 0.0
Co32 Co 0.49275 0.5694 0.4823 0.0
C33 C 0.70881 0.34792 0.4537 0.0
C34 C 0.80425 0.4498 0.50168 0.0
N35 N 0.71115 0.4265 0.47583 0.0
N36 N 0.7968 0.32117 0.46492 0.0
C37 C 0.85712 0.38583 0.49483 0.0
H38 H 0.64252 0.3104 0.43094 0.0
H39 H 0.83118 0.5088 0.52509 0.0
C40 C 0.56145 0.53123 0.57705 0.0
N41 N 0.38741 0.62912 0.48796 0.0
C42 C 0.36549 0.6909 0.45867 0.0
C43 C 0.30982 0.61362 0.52346 0.0
N44 N 0.27682 0.71384 0.47444 0.0
C45 C 0.24201 0.66538 0.51529 0.0
C46 C 0.40582 0.38897 0.4844 0.0
O47 O 0.612 0.48736 0.55006 0.0
O48 O 0.50479 0.57369 0.5551 0.0
O49 O 0.38614 0.46322 0.48531 0.0
O50 O 0.50037 0.38333 0.47763 0.0
O51 O 0.48382 0.56553 0.40853 0.0
H52 H 0.30191 0.56636 0.55301 0.0
H53 H 0.41171 0.71644 0.4255 0.0
O54 O 0.60241 0.48821 0.40465 0.0
O55 O 0.71419 0.59412 0.48 0.0
O56 O 0.59943 0.6744 0.48139 0.0
C57 C 0.69492 0.66855 0.48309 0.0
H58 H 0.93456 0.38763 0.51052 0.0
H59 H 0.17225 0.66698 0.53764 0.0
C60 C 0.06975 0.95268 0.15665 0.0
C61 C 0.06433 0.02914 0.13324 0.0
C62 C 0.06415 0.94793 0.21015 0.0
C63 C 0.05598 0.0204 0.24115 0.0
C64 C 0.05572 0.09826 0.21746 0.0
C65 C 0.05813 0.10213 0.16378 0.0
C66 C 0.04135 0.01272 0.29757 0.0
C67 C 0.09286 0.96089 0.32518 0.0
C68 C 0.07134 0.94663 0.37749 0.0
C69 C 0.99904 0.98632 0.40259 0.0
C70 C 0.95387 0.04439 0.37667 0.0
C71 C 0.9731 0.05509 0.32377 0.0
C72 C 0.89792 0.10221 0.40518 0.0
C73 C 0.81057 0.12473 0.38284 0.0
C74 C 0.94235 0.14601 0.45109 0.0
C75 C 0.90517 0.21459 0.47226 0.0
C76 C 0.82373 0.24216 0.44751 0.0
C77 C 0.1249 0.88982 0.40515 0.0
C78 C 0.0655 0.81907 0.43122 0.0
C79 C 0.23535 0.90281 0.40266 0.0
C80 C 0.28545 0.84538 0.42554 0.0
C81 C 0.22596 0.77394 0.45132 0.0
C82 C 0.11548 0.76161 0.45407 0.0
C83 C 0.77416 0.19422 0.40362 0.0
H84 H 0.07383 0.89547 0.13347 0.0
H85 H 0.06254 0.8865 0.22693 0.0
H86 H 0.05241 0.15597 0.24023 0.0
H87 H 0.05531 0.16205 0.14615 0.0
H88 H 0.14857 0.93012 0.30579 0.0
H89 H 0.93581 0.09759 0.30312 0.0
H90 H 0.97943 0.97354 0.44234 0.0
H91 H 0.77373 0.09137 0.34775 0.0
H92 H 1.01071 0.13146 0.46877 0.0
H93 H 0.94348 0.24792 0.50695 0.0
H94 H 0.98013 0.80678 0.4324 0.0
H95 H 0.28282 0.95727 0.38276 0.0
H96 H 0.71088 0.21278 0.38359 0.0
H97 H 0.06726 0.70617 0.47269 0.0
H98 H 0.37065 0.85708 0.42329 0.0
C99 C 1.01296 0.09582 0.79928 0.0
C100 C 0.04148 0.02842 0.82471 0.0
C101 C 1.01803 0.099 0.74524 0.0
C102 C 0.04924 0.03375 0.71585 0.0
C103 C 0.07635 0.96592 0.74123 0.0
C104 C 0.07364 0.96376 0.79515 0.0
C105 C 0.05156 0.03439 0.65869 0.0
C106 C 0.11381 0.10498 0.63298 0.0
C107 C 0.12255 0.10106 0.57874 0.0
C108 C 0.06616 0.02735 0.55056 0.0
C109 C 0.99805 0.95952 0.57552 0.0
C110 C 0.99315 0.9623 0.62963 0.0
C111 C 0.92855 0.88691 0.54561 0.0
C112 C 0.84178 0.8999 0.51765 0.0
C113 C 0.94266 0.80308 0.54888 0.0
C114 C 0.87009 0.73283 0.52526 0.0
C115 C 0.78061 0.74487 0.49889 0.0
C116 C 0.19044 0.17356 0.55115 0.0
C117 C 0.17403 0.25704 0.55695 0.0
C118 C 0.27139 0.15953 0.51855 0.0
C119 C 0.33876 0.22893 0.49449 0.0
C120 C 0.32452 0.31319 0.50155 0.0
C121 C 0.2396 0.32601 0.53193 0.0
C122 C 0.76798 0.82934 0.49465 0.0
H123 H 0.98862 0.14684 0.82118 0.0
H124 H 0.99624 0.15163 0.72635 0.0
H125 H 0.10078 0.91497 0.71928 0.0
H126 H 0.09603 0.91106 0.81368 0.0
H127 H 0.15861 0.16114 0.65518 0.0
H128 H 0.94226 0.90891 0.64915 0.0
H129 H 0.07552 0.02345 0.50927 0.0
H130 H 0.82915 0.96431 0.51523 0.0
H131 H 1.00876 0.79182 0.57058 0.0
H132 H 0.88166 0.66862 0.52986 0.0
H133 H 0.11092 0.26901 0.5812 0.0
H134 H 0.28479 0.09535 0.51315 0.0
H135 H 0.69943 0.84055 0.47505 0.0
H136 H 0.22683 0.39016 0.53855 0.0
H137 H 0.40367 0.21706 0.47154 0.0
C138 C 0.56985 0.45273 0.65665 0.0
C139 C 0.56444 0.52919 0.63325 0.0
C140 C 0.56421 0.44796 0.71015 0.0
C141 C 0.55599 0.52042 0.74115 0.0
C142 C 0.55575 0.59829 0.71747 0.0
C143 C 0.5582 0.60218 0.66379 0.0
C144 C 0.54131 0.51271 0.79757 0.0
C145 C 0.5928 0.46087 0.82518 0.0
C146 C 0.57125 0.4466 0.87749 0.0
C147 C 0.49893 0.48627 0.90259 0.0
C148 C 0.45378 0.54435 0.87666 0.0
C149 C 0.47304 0.55508 0.82376 0.0
C150 C 0.39781 0.60217 0.90517 0.0
C151 C 0.31048 0.6247 0.88281 0.0
C152 C 0.4422 0.64595 0.95108 0.0
C153 C 0.40503 0.71453 -0.02775 0.0
C154 C 0.3236 0.74211 0.9475 0.0
C155 C 0.62479 0.38978 0.90516 0.0
C156 C 0.56539 0.31904 0.93123 0.0
C157 C 0.73525 0.40278 0.90267 0.0
C158 C 0.78535 0.34535 0.92555 0.0
C159 C 0.72585 0.27391 0.95133 0.0
C160 C 0.61537 0.26157 0.95407 0.0
C161 C 0.27406 0.69419 0.90359 0.0
H162 H 0.57396 0.39553 0.63347 0.0
H163 H 0.56259 0.38652 0.72692 0.0
H164 H 0.55241 0.65599 0.74025 0.0
H165 H 0.55539 0.6621 0.64616 0.0
H166 H 0.64853 0.43011 0.80581 0.0
H167 H 0.43577 0.59758 0.8031 0.0
H168 H 0.47929 0.47348 0.94232 0.0
H169 H 0.27367 0.59136 0.84771 0.0
H170 H 0.51055 0.63139 -0.03123 0.0
H171 H 0.44331 0.74784 0.00696 0.0
H172 H 0.48002 0.30675 0.9324 0.0
H173 H 0.78272 0.45724 0.88277 0.0
H174 H 0.2108 0.71277 0.88356 0.0
H175 H 0.56715 0.20613 -0.0273 0.0
H176 H 0.87054 0.35705 0.92331 0.0
C177 C 0.51301 0.59581 0.29927 0.0
C178 C 0.54155 0.52842 0.32471 0.0
C179 C 0.51804 0.59897 0.24524 0.0
C180 C 0.54924 0.53372 0.21585 0.0
C181 C 0.57637 0.4659 0.24123 0.0
C182 C 0.5737 0.46376 0.29515 0.0
C183 C 0.55153 0.53434 0.15869 0.0
C184 C 0.61376 0.60493 0.13297 0.0
C185 C 0.62246 0.601 0.07872 0.0
C186 C 0.56605 0.52729 0.05055 0.0
C187 C 0.49797 0.45946 0.07553 0.0
C188 C 0.49311 0.46224 0.12964 0.0
C189 C 0.42845 0.38685 0.04562 0.0
C190 C 0.34169 0.39985 0.01766 0.0
C191 C 0.44255 0.30302 0.04889 0.0
C192 C 0.36997 0.23277 0.02527 0.0
C193 C 0.2805 0.24481 -0.0011 0.0
C194 C 0.69033 0.6735 0.05113 0.0
C195 C 0.67391 0.75699 0.05693 0.0
C196 C 0.77128 0.65948 0.01852 0.0
C197 C 0.83863 0.72888 -0.00554 0.0
C198 C 0.8244 0.81313 0.00152 0.0
C199 C 0.73948 0.82596 0.03191 0.0
C200 C 0.26787 0.32929 -0.00533 0.0
H201 H 0.48868 0.64684 0.32117 0.0
H202 H 0.49624 0.6516 0.22635 0.0
H203 H 0.60079 0.41494 0.21928 0.0
H204 H 0.5961 0.41106 0.31369 0.0
H205 H 0.65856 0.6611 0.15516 0.0
H206 H 0.44223 0.40885 0.14916 0.0
H207 H 0.57538 0.52339 0.00926 0.0
H208 H 0.32907 0.46425 0.01524 0.0
H209 H 0.50865 0.29175 0.0706 0.0
H210 H 0.38154 0.16856 0.02988 0.0
H211 H 0.61081 0.76895 0.08118 0.0
H212 H 0.78467 0.5953 0.01312 0.0
H213 H 0.19933 0.34051 -0.02494 0.0
H214 H 0.72671 0.8901 0.03853 0.0
H215 H 0.90354 0.71701 -0.02849 0.0
loop_
_geom_bond_atom_site_label_1
_geom_bond_atom_site_label_2
_geom_bond_distance
_geom_bond_site_symmetry_2
_ccdc_geom_bond_type
Co0 N5 2.057 . S
Co0 O17 2.021 . S
Co0 O20 2.062 1_455 S
Co0 O24 2.117 1_554 S
Co0 O25 2.020 1_565 S
C1 O21 1.253 1_455 S
C1 O24 1.264 1_545 S
Co2 N11 2.057 . S
Co2 O18 2.117 . S
Co2 O19 2.020 1_545 S
Co2 O21 2.021 1_554 S
Co2 O26 2.062 1_655 S
C3 N5 1.316 . S
C3 N6 1.347 . S
C3 H8 0.931 . S
C4 N5 1.375 1_556 S
C4 C7 1.350 . S
C4 H9 0.930 . S
N5 Co0 2.057 . S
N5 C3 1.316 . S
N5 C4 1.375 1_554 S
N6 C3 1.347 . S
N6 C7 1.373 1_554 S
C7 C4 1.350 . S
C7 N6 1.373 1_556 S
C7 H28 0.931 . S
H8 C3 0.931 . S
H9 C4 0.930 . S
C10 O17 1.259 1_545 S
C10 O18 1.258 1_455 S
N11 Co2 2.057 . S
N11 C12 1.316 . S
N11 C13 1.375 . S
C12 N11 1.316 . S
C12 N14 1.347 . S
C12 H23 0.931 1_554 S
C13 N11 1.375 . S
C13 C15 1.350 . S
C13 H22 0.930 . S
N14 C12 1.347 . S
N14 C15 1.373 . S
C15 C13 1.350 . S
C15 N14 1.373 . S
C15 H29 0.931 . S
C16 O19 1.256 . S
C16 O20 1.255 . S
O17 Co0 2.021 . S
O17 C10 1.259 1_565 S
O18 Co2 2.117 . S
O18 C10 1.258 1_655 S
O19 Co2 2.020 1_565 S
O19 C16 1.256 . S
O20 Co0 2.062 1_655 S
O20 C16 1.255 . S
O21 C1 1.253 1_655 S
O21 Co2 2.021 1_556 S
H22 C13 0.930 . S
H23 C12 0.931 1_556 S
O24 Co0 2.117 1_556 S
O24 C1 1.264 1_565 S
O25 Co0 2.020 1_545 S
O25 C27 1.256 . S
O26 Co2 2.062 1_455 S
O26 C27 1.255 . S
C27 O25 1.256 . S
C27 O26 1.255 . S
H28 C7 0.931 . S
H29 C15 0.931 . S
Co30 N35 2.057 . S
Co30 O47 2.021 . S
Co30 O50 2.062 . S
Co30 O54 2.117 . S
Co30 O55 2.020 . S
C31 O51 1.259 . S
C31 O54 1.258 . S
Co32 N41 2.057 . S
Co32 O48 2.117 . S
Co32 O49 2.020 . S
Co32 O51 2.021 . S
Co32 O56 2.062 . S
C33 N35 1.316 . S
C33 N36 1.347 . S
C33 H38 0.931 . S
C34 N35 1.375 . S
C34 C37 1.350 . S
C34 H39 0.930 . S
N35 Co30 2.057 . S
N35 C33 1.316 . S
N35 C34 1.375 . S
N36 C33 1.347 . S
N36 C37 1.373 . S
C37 C34 1.350 . S
C37 N36 1.373 . S
C37 H58 0.931 . S
H38 C33 0.931 . S
H39 C34 0.930 . S
C40 O47 1.259 . S
C40 O48 1.258 . S
N41 Co32 2.057 . S
N41 C42 1.316 . S
N41 C43 1.375 . S
C42 N41 1.316 . S
C42 N44 1.347 . S
C42 H53 0.931 . S
C43 N41 1.375 . S
C43 C45 1.350 . S
C43 H52 0.930 . S
N44 C42 1.347 . S
N44 C45 1.373 . S
C45 C43 1.350 . S
C45 N44 1.373 . S
C45 H59 0.931 . S
C46 O49 1.256 . S
C46 O50 1.255 . S
O47 Co30 2.021 . S
O47 C40 1.259 . S
O48 Co32 2.117 . S
O48 C40 1.258 . S
O49 Co32 2.020 . S
O49 C46 1.256 . S
O50 Co30 2.062 . S
O50 C46 1.255 . S
O51 C31 1.259 . S
O51 Co32 2.021 . S
H52 C43 0.930 . S
H53 C42 0.931 . S
O54 Co30 2.117 . S
O54 C31 1.258 . S
O55 Co30 2.020 . S
O55 C57 1.256 . S
O56 Co32 2.062 . S
O56 C57 1.255 . S
C57 O55 1.256 . S
C57 O56 1.255 . S
H58 C37 0.931 . S
H59 C45 0.931 . S
C60 C61 1.386 1_655 S
C60 C62 1.397 . S
C60 H84 0.931 . S
C61 C60 1.386 1_455 S
C61 C65 1.397 1_565 S
C62 C60 1.397 . S
C62 C63 1.384 1_655 S
C62 H85 0.930 . S
C63 C62 1.384 1_455 S
C63 C64 1.377 1_565 S
C63 C66 1.481 . S
C64 C63 1.377 1_545 S
C64 C65 1.389 . S
C64 H86 0.929 . S
C65 C61 1.397 1_545 S
C65 C64 1.389 . S
C65 H87 0.931 . S
C66 C63 1.481 . S
C66 C67 1.387 . S
C66 C71 1.390 1_465 S
C67 C66 1.387 . S
C67 C68 1.401 . S
C67 H88 0.930 . S
C68 C67 1.401 . S
C68 C69 1.366 1_465 S
C68 C77 1.511 . S
C69 C68 1.366 1_645 S
C69 C70 1.403 . S
C69 H90 0.931 . S
C70 C69 1.403 . S
C70 C71 1.361 . S
C70 C72 1.500 . S
C71 C66 1.390 1_645 S
C71 C70 1.361 . S
C71 H89 0.931 . S
C72 C70 1.500 . S
C72 C73 1.371 . S
C72 C74 1.365 . S
C73 C72 1.371 . S
C73 C83 1.386 . S
C73 H91 0.931 . S
C74 C72 1.365 . S
C74 C75 1.409 . S
C74 H92 0.929 . S
C75 C74 1.409 . S
C75 C76 1.380 . S
C75 H93 0.930 . S
C76 C75 1.380 . S
C76 C83 1.357 . S
C77 C68 1.511 . S
C77 C78 1.341 . S
C77 C79 1.371 . S
C78 C77 1.341 . S
C78 C82 1.394 . S
C78 H94 0.930 . S
C79 C77 1.371 . S
C79 C80 1.392 . S
C79 H95 0.931 . S
C80 C79 1.392 . S
C80 C81 1.331 . S
C80 H98 0.932 . S
C81 C80 1.331 . S
C81 C82 1.336 . S
C82 C78 1.394 . S
C82 C81 1.336 . S
C82 H97 0.929 . S
C83 C73 1.386 . S
C83 C76 1.357 . S
C83 H96 0.928 . S
H84 C60 0.931 . S
H85 C62 0.930 . S
H86 C64 0.929 . S
H87 C65 0.931 . S
H88 C67 0.930 . S
H89 C71 0.931 . S
H90 C69 0.931 . S
H91 C73 0.931 . S
H92 C74 0.929 . S
H93 C75 0.930 . S
H94 C78 0.930 . S
H95 C79 0.931 . S
H96 C83 0.928 . S
H97 C82 0.929 . S
H98 C80 0.932 . S
C99 C100 1.386 . S
C99 C101 1.397 . S
C99 H123 0.931 . S
C100 C99 1.386 . S
C100 C104 1.397 1_545 S
C101 C99 1.397 . S
C101 C102 1.384 . S
C101 H124 0.930 . S
C102 C101 1.384 . S
C102 C103 1.377 1_545 S
C102 C105 1.481 . S
C103 C102 1.377 1_565 S
C103 C104 1.389 . S
C103 H125 0.929 . S
C104 C100 1.397 1_565 S
C104 C103 1.389 . S
C104 H126 0.931 . S
C105 C102 1.481 . S
C105 C106 1.387 . S
C105 C110 1.390 1_445 S
C106 C105 1.387 . S
C106 C107 1.401 . S
C106 H127 0.930 . S
C107 C106 1.401 . S
C107 C108 1.376 . S
C107 C116 1.511 . S
C108 C107 1.376 . S
C108 C109 1.392 1_445 S
C108 H129 0.931 1_455 S
C109 C108 1.392 1_665 S
C109 C110 1.361 . S
C109 C111 1.500 . S
C110 C105 1.390 1_665 S
C110 C109 1.361 . S
C110 H128 0.931 . S
C111 C109 1.500 . S
C111 C112 1.371 . S
C111 C113 1.365 . S
C112 C111 1.371 . S
C112 C122 1.386 . S
C112 H130 0.931 . S
C113 C111 1.365 . S
C113 C114 1.409 . S
C113 H131 0.929 . S
C114 C113 1.409 . S
C114 C115 1.380 . S
C114 H132 0.930 . S
C115 C114 1.380 . S
C115 C122 1.357 . S
C116 C107 1.511 . S
C116 C117 1.341 . S
C116 C118 1.371 . S
C117 C116 1.341 . S
C117 C121 1.394 . S
C117 H133 0.930 . S
C118 C116 1.371 . S
C118 C119 1.392 . S
C118 H134 0.931 . S
C119 C118 1.392 . S
C119 C120 1.331 . S
C119 H137 0.932 . S
C120 C119 1.331 . S
C120 C121 1.336 . S
C121 C117 1.394 . S
C121 C120 1.336 . S
C121 H136 0.929 . S
C122 C112 1.386 . S
C122 C115 1.357 . S
C122 H135 0.928 . S
H123 C99 0.931 . S
H124 C101 0.930 . S
H125 C103 0.929 . S
H126 C104 0.931 . S
H127 C106 0.930 . S
H128 C110 0.931 . S
H129 C108 0.931 1_655 S
H130 C112 0.931 . S
H131 C113 0.929 . S
H132 C114 0.930 . S
H133 C117 0.930 . S
H134 C118 0.931 . S
H135 C122 0.928 . S
H136 C121 0.929 . S
H137 C119 0.932 . S
C138 C139 1.386 . S
C138 C140 1.397 . S
C138 H162 0.931 . S
C139 C138 1.386 . S
C139 C143 1.397 . S
C140 C138 1.397 . S
C140 C141 1.384 . S
C140 H163 0.930 . S
C141 C140 1.384 . S
C141 C142 1.377 . S
C141 C144 1.481 . S
C142 C141 1.377 . S
C142 C143 1.389 . S
C142 H164 0.929 . S
C143 C139 1.397 . S
C143 C142 1.389 . S
C143 H165 0.931 . S
C144 C141 1.481 . S
C144 C145 1.387 . S
C144 C149 1.390 . S
C145 C144 1.387 . S
C145 C146 1.401 . S
C145 H166 0.930 . S
C146 C145 1.401 . S
C146 C147 1.376 . S
C146 C155 1.511 . S
C147 C146 1.376 . S
C147 C148 1.392 . S
C147 H168 0.931 1_556 S
C148 C147 1.392 . S
C148 C149 1.361 . S
C148 C150 1.500 . S
C149 C144 1.390 . S
C149 C148 1.361 . S
C149 H167 0.931 . S
C150 C148 1.500 . S
C150 C151 1.371 1_556 S
C150 C152 1.365 . S
C151 C150 1.371 1_554 S
C151 C161 1.386 . S
C151 H169 0.931 . S
C152 C150 1.365 . S
C152 C153 1.409 . S
C152 H170 0.929 . S
C153 C152 1.409 . S
C153 C154 1.380 1_556 S
C153 H171 0.930 . S
C154 C153 1.380 1_554 S
C154 C161 1.357 . S
C155 C146 1.511 . S
C155 C156 1.341 . S
C155 C157 1.371 1_556 S
C156 C155 1.341 . S
C156 C160 1.394 . S
C156 H172 0.930 . S
C157 C155 1.371 1_554 S
C157 C158 1.392 . S
C157 H173 0.931 . S
C158 C157 1.392 . S
C158 C159 1.331 . S
C158 H176 0.932 . S
C159 C158 1.331 . S
C159 C160 1.336 1_554 S
C160 C156 1.394 . S
C160 C159 1.336 1_556 S
C160 H175 0.929 . S
C161 C151 1.386 . S
C161 C154 1.357 . S
C161 H174 0.928 . S
H162 C138 0.931 . S
H163 C140 0.930 . S
H164 C142 0.929 . S
H165 C143 0.931 . S
H166 C145 0.930 . S
H167 C149 0.931 . S
H168 C147 0.931 1_554 S
H169 C151 0.931 . S
H170 C152 0.929 . S
H171 C153 0.930 . S
H172 C156 0.930 . S
H173 C157 0.931 . S
H174 C161 0.928 . S
H175 C160 0.929 . S
H176 C158 0.932 . S
C177 C178 1.386 . S
C177 C179 1.397 . S
C177 H201 0.931 . S
C178 C177 1.386 . S
C178 C182 1.397 . S
C179 C177 1.397 . S
C179 C180 1.384 . S
C179 H202 0.930 . S
C180 C179 1.384 . S
C180 C181 1.377 . S
C180 C183 1.481 . S
C181 C180 1.377 . S
C181 C182 1.389 . S
C181 H203 0.929 . S
C182 C178 1.397 . S
C182 C181 1.389 . S
C182 H204 0.931 . S
C183 C180 1.481 . S
C183 C184 1.387 . S
C183 C188 1.390 . S
C184 C183 1.387 . S
C184 C185 1.401 . S
C184 H205 0.930 . S
C185 C184 1.401 . S
C185 C186 1.376 . S
C185 C194 1.511 . S
C186 C185 1.376 . S
C186 C187 1.392 . S
C186 H207 0.931 . S
C187 C186 1.392 . S
C187 C188 1.361 . S
C187 C189 1.500 . S
C188 C183 1.390 . S
C188 C187 1.361 . S
C188 H206 0.931 . S
C189 C187 1.500 . S
C189 C190 1.371 1_554 S
C189 C191 1.365 . S
C190 C189 1.371 1_556 S
C190 C200 1.386 . S
C190 H208 0.931 . S
C191 C189 1.365 . S
C191 C192 1.409 . S
C191 H209 0.929 . S
C192 C191 1.409 . S
C192 C193 1.380 1_554 S
C192 H210 0.930 . S
C193 C192 1.380 1_556 S
C193 C200 1.357 . S
C194 C185 1.511 . S
C194 C195 1.341 . S
C194 C196 1.371 1_554 S
C195 C194 1.341 . S
C195 C199 1.394 . S
C195 H211 0.930 . S
C196 C194 1.371 1_556 S
C196 C197 1.392 . S
C196 H212 0.931 . S
C197 C196 1.392 . S
C197 C198 1.331 . S
C197 H215 0.932 . S
C198 C197 1.331 . S
C198 C199 1.336 1_556 S
C199 C195 1.394 . S
C199 C198 1.336 1_554 S
C199 H214 0.929 . S
C200 C190 1.386 . S
C200 C193 1.357 . S
C200 H213 0.928 . S
H201 C177 0.931 . S
H202 C179 0.930 . S
H203 C181 0.929 . S
H204 C182 0.931 . S
H205 C184 0.930 . S
H206 C188 0.931 . S
H207 C186 0.931 . S
H208 C190 0.931 . S
H209 C191 0.929 . S
H210 C192 0.930 . S
H211 C195 0.930 . S
H212 C196 0.931 . S
H213 C200 0.928 . S
H214 C199 0.929 . S
H215 C197 0.932 . S
C193 C27 1.933 1_556 S
N6 C154 1.766 . S
C16 C198 1.898 1_554 S
N14 C159 1.573 . S
C57 C115 1.933 . S
N36 C76 1.767 . S
C120 C46 1.898 . S
C81 N44 1.572 . S
C10 C61 1.300 1_545 S
C1 C100 1.591 . S
C139 C40 1.300 . S
C31 C178 1.591 . S
