# Generated by pormake.
# Topology tsx, (6,3)-cn, num edge types: 1
# Building blocks:
#     Node 0, Type 0, BuildingBlock: FUNLAD_clean_sbu_0, # of connection points: 6
#     Node 1, Type 0, BuildingBlock: FUNLAD_clean_sbu_0, # of connection points: 6
#     Node 2, Type 1, BuildingBlock: PAMTOO_clean_linker_0, # of connection points: 3
#     Node 3, Type 1, BuildingBlock: PAMTOO_clean_linker_0, # of connection points: 3
#     Node 4, Type 1, BuildingBlock: PAMTOO_clean_linker_0, # of connection points: 3
#     Node 5, Type 1, BuildingBlock: PAMTOO_clean_linker_0, # of connection points: 3
#     Edge 6, Type (0, 1), BuildingBlock: OJICUG_clean_linker_0, # of connection points: 2
#     Edge 7, Type (0, 1), BuildingBlock: OJICUG_clean_linker_0, # of connection points: 2
#     Edge 8, Type (0, 1), BuildingBlock: OJICUG_clean_linker_0, # of connection points: 2
#     Edge 9, Type (0, 1), BuildingBlock: OJICUG_clean_linker_0, # of connection points: 2
#     Edge 10, Type (0, 1), BuildingBlock: OJICUG_clean_linker_0, # of connection points: 2
#     Edge 11, Type (0, 1), BuildingBlock: OJICUG_clean_linker_0, # of connection points: 2
#     Edge 12, Type (0, 1), BuildingBlock: OJICUG_clean_linker_0, # of connection points: 2
#     Edge 13, Type (0, 1), BuildingBlock: OJICUG_clean_linker_0, # of connection points: 2
#     Edge 14, Type (0, 1), BuildingBlock: OJICUG_clean_linker_0, # of connection points: 2
#     Edge 15, Type (0, 1), BuildingBlock: OJICUG_clean_linker_0, # of connection points: 2
#     Edge 16, Type (0, 1), BuildingBlock: OJICUG_clean_linker_0, # of connection points: 2
#     Edge 17, Type (0, 1), BuildingBlock: OJICUG_clean_linker_0, # of connection points: 2
# Relax obj value: 0.131
# Max RMSD: 0.137
# Mean RMSD: 0.124
data_MOF--net-tsx--node1-FUNLAD_clean_sbu_0--node2-PAMTOO_clean_linker_0--edge1-OJICUG_clean_linker_0
_symmetry_space_group_name_H-M    P1
_symmetry_Int_Tables_number       1
_symmetry_cell_setting            triclinic
loop_
_symmetry_equiv_pos_as_xyz
'x, y, z'
_cell_length_a     13.406624
_cell_length_b     15.470713
_cell_length_c     31.167805
_cell_angle_alpha  81.487043
_cell_angle_beta   91.742273
_cell_angle_gamma 89.706193
loop_
_atom_site_label
_atom_site_type_symbol
_atom_site_fract_x
_atom_site_fract_y
_atom_site_fract_z
_atom_type_partial_charge
C0 C 0.9138 0.9364 0.97318 0.0
N1 N 0.07268 0.99938 0.0798 0.0
C2 C 0.99061 0.97675 0.10336 0.0
C3 C 0.99964 0.95441 0.14832 0.0
C4 C 0.0938 0.9566 0.16901 0.0
C5 C 0.17762 0.97725 0.14383 0.0
C6 C 0.16538 0.99802 0.09893 0.0
Zn7 Zn 0.05672 0.04313 0.01533 0.0
C8 C 0.20053 0.9601 0.9626 0.0
N9 N 1.02445 0.13668 0.88015 0.0
C10 C 0.93917 0.12352 0.85732 0.0
C11 C 0.10667 0.17094 0.85973 0.0
C12 C 0.10687 0.18918 0.81468 0.0
C13 C 1.02334 0.16825 0.79001 0.0
C14 C 0.93731 0.13787 0.81202 0.0
Zn15 Zn 0.03688 0.09333 0.94518 0.0
O16 O 0.95959 0.94271 0.00863 0.0
C17 C 0.88951 0.17537 -0.00586 0.0
O18 O 0.92965 0.99149 0.93961 0.0
H19 H 0.17424 0.18049 0.87811 0.0
H20 H 0.91767 0.97858 0.08743 0.0
H21 H 0.87394 0.09756 0.87407 0.0
O22 O 0.93104 0.12679 0.02644 0.0
O23 O 0.92136 0.17476 0.95635 0.0
H24 H 0.22963 0.01567 0.07948 0.0
O25 O 0.14118 0.19469 0.95372 0.0
O26 O 0.15428 0.14363 0.02297 0.0
O27 O 0.15281 0.01021 0.93305 0.0
O28 O 0.17842 0.96052 0.00204 0.0
C29 C 0.17805 0.19981 -0.00868 0.0
H30 H 0.93323 0.9396 0.16687 0.0
H31 H 0.25142 0.97902 0.15881 0.0
H32 H 0.1739 0.21557 0.79946 0.0
H33 H 0.871 0.12027 0.79475 0.0
C34 C 0.4274 0.36979 0.47617 0.0
N35 N 0.56867 0.43856 0.58616 0.0
C36 C 0.48261 0.42216 0.6078 0.0
C37 C 0.48414 0.41126 0.65301 0.0
C38 C 0.57493 0.41834 0.6757 0.0
C39 C 0.66336 0.42903 0.65271 0.0
C40 C 0.65853 0.43869 0.60759 0.0
Zn41 Zn 0.56224 0.47967 0.52148 0.0
C42 C 0.71481 0.39602 0.47347 0.0
N43 N 0.54811 0.5704 0.3864 0.0
C44 C 0.46242 0.56729 0.36226 0.0
C45 C 0.63363 0.60268 0.36815 0.0
C46 C 0.63548 0.63289 0.3239 0.0
C47 C 0.54937 0.62726 0.29769 0.0
C48 C 0.4616 0.59468 0.31756 0.0
Zn49 Zn 0.55175 0.52629 0.45098 0.0
O50 O 0.46619 0.37896 0.51274 0.0
C51 C 0.39503 0.60847 0.49478 0.0
O52 O 0.44847 0.423 0.44256 0.0
H53 H 0.70124 0.60414 0.38779 0.0
H54 H 0.41209 0.42253 0.58997 0.0
H55 H 0.39506 0.54204 0.37752 0.0
O56 O 0.43448 0.56395 0.52877 0.0
O57 O 0.4322 0.60551 0.45823 0.0
H58 H 0.72596 0.45145 0.58964 0.0
O59 O 0.65242 0.62888 0.46156 0.0
O60 O 0.65938 0.58048 0.53111 0.0
O61 O 0.67102 0.44558 0.44256 0.0
O62 O 0.68614 0.39614 0.51206 0.0
C63 C 0.68633 0.63525 0.49947 0.0
H64 H 0.41446 0.40354 0.66982 0.0
H65 H 0.73474 0.43399 0.66938 0.0
H66 H 0.70436 0.65916 0.31041 0.0
H67 H 0.39369 0.5876 0.29878 0.0
H68 H 0.15693 0.80448 0.37186 0.0
H69 H 0.0366 0.06564 0.34773 0.0
H70 H 0.05542 0.92652 0.47767 0.0
H71 H 0.85173 0.0468 0.43508 0.0
C72 C 0.90143 0.09883 0.41997 0.0
O73 O 1.00049 0.07584 0.42844 0.0
H74 H 0.88489 0.10544 0.3844 0.0
C75 C 0.12265 0.85947 0.38388 0.0
C76 C 0.11255 0.85819 0.4287 0.0
C77 C 0.09461 0.93371 0.35454 0.0
C78 C 0.05715 1.0074 0.37014 0.0
C79 C 0.04062 1.00498 0.41436 0.0
C80 C 0.06737 0.92969 0.44351 0.0
H81 H 0.14147 0.23268 0.58834 0.0
H82 H 0.96095 1.00593 0.62465 0.0
H83 H 0.10868 0.04161 0.5029 0.0
H84 H 0.89407 0.99053 0.5013 0.0
C85 C 0.89026 0.94643 0.53228 0.0
O86 O 0.98332 0.94178 0.55258 0.0
H87 H 0.83502 0.9741 0.55263 0.0
C88 C 0.10765 0.17316 0.5805 0.0
C89 C 0.12823 0.14408 0.5412 0.0
C90 C 0.04838 0.12314 0.61083 0.0
C91 C 1.0068 0.04506 0.60129 0.0
C92 C 0.02701 0.01553 0.56215 0.0
C93 C 0.08968 0.06439 0.53258 0.0
H94 H 0.62333 0.3388 0.87962 0.0
H95 H 0.50429 0.59723 0.83946 0.0
H96 H 0.55575 0.501 0.97496 0.0
H97 H 0.33823 0.61031 0.92709 0.0
C98 C 0.38755 0.66015 0.90995 0.0
O99 O 0.48678 0.63605 0.91763 0.0
H100 H 0.36882 0.66277 0.87475 0.0
C101 C 0.59269 0.39893 0.88801 0.0
C102 C 0.59415 0.41292 0.93143 0.0
C103 C 0.56035 0.46494 0.85485 0.0
C104 C 0.52781 0.54539 0.86512 0.0
C105 C 0.52207 0.55851 0.90846 0.0
C106 C 0.55583 0.49182 0.94157 0.0
H107 H 0.65265 0.77219 0.09573 0.0
H108 H 0.45896 0.5503 0.11947 0.0
H109 H 0.57258 0.6296 -0.00754 0.0
H110 H 0.35396 0.5661 -0.00222 0.0
C111 C 0.36365 0.5171 0.02706 0.0
O112 O 0.46225 0.5129 0.0409 0.0
H113 H 0.31624 0.53764 0.05255 0.0
C114 C 0.61022 0.7207 0.08377 0.0
C115 C 0.61677 0.70788 0.04039 0.0
C116 C 0.55246 0.66452 0.11221 0.0
C117 C 0.50147 0.59549 0.09731 0.0
C118 C 0.50839 0.58208 0.05423 0.0
C119 C 0.56609 0.63862 0.02579 0.0
C120 C 0.26852 0.33796 0.9654 0.0
C121 C 0.23977 0.27456 -0.00038 0.0
H122 H 0.33276 0.46351 0.94725 0.0
C123 C 0.2633 0.28678 0.04265 0.0
H124 H 0.25285 0.32973 0.93194 0.0
C125 C 0.30776 0.36384 0.05134 0.0
C126 C 0.32981 0.42974 0.01723 0.0
H127 H 0.24322 0.23864 0.06982 0.0
H128 H 0.32102 0.37365 0.08474 0.0
C129 C 0.31391 0.41471 0.97417 0.0
C130 C 0.28348 0.88978 0.90568 0.0
C131 C 0.27036 0.89433 0.94995 0.0
H132 H 0.33196 0.8127 0.85847 0.0
C133 C 0.31383 0.82897 -0.01896 0.0
H134 H 0.25239 0.93968 0.88073 0.0
C135 C 0.36071 0.75649 0.96801 0.0
C136 C 0.36411 0.74747 0.92385 0.0
H137 H 0.30648 0.83104 0.01539 0.0
H138 H 0.3884 0.70546 -0.00728 0.0
C139 C 0.32948 0.81703 0.8928 0.0
C140 C 0.85613 0.7847 -0.01047 0.0
C141 C 0.83335 0.87276 0.97454 0.0
H142 H 0.80275 0.66235 0.02168 0.0
C143 C 0.73435 0.90262 0.97488 0.0
H144 H 0.93257 0.76116 -0.00954 0.0
C145 C 0.66091 0.84695 -0.00604 0.0
C146 C 0.68592 0.76084 0.01199 0.0
H147 H 0.71605 0.97098 0.96455 0.0
H148 H 0.58653 0.87251 -0.00286 0.0
C149 C 0.78247 0.72872 0.00776 0.0
C150 C 0.70875 0.20005 -0.01693 0.0
C151 C 0.80065 0.22918 -0.00204 0.0
H152 H 0.56814 0.23682 0.95079 0.0
C153 C 0.81238 0.31825 0.00074 0.0
H154 H 0.69896 0.1318 -0.02017 0.0
C155 C 0.73733 0.37851 -0.01579 0.0
C156 C 0.65073 0.35027 0.964 0.0
H157 H 0.88358 0.3423 0.0111 0.0
H158 H 0.75231 0.44767 -0.01743 0.0
C159 C 0.63421 0.26016 0.9662 0.0
C160 C 0.78335 0.76912 0.47279 0.0
C161 C 0.75162 0.70817 0.50746 0.0
H162 H 0.85409 0.8914 0.45349 0.0
C163 C 0.77784 0.72038 0.55024 0.0
H164 H 0.76541 0.76103 0.4395 0.0
C165 C 0.82883 0.79516 0.55823 0.0
C166 C 0.8549 0.85858 0.52363 0.0
H167 H 0.75524 0.67411 0.57771 0.0
H168 H 0.84354 0.80562 0.59144 0.0
C169 C 0.83461 0.84361 0.48082 0.0
C170 C 0.81703 0.25899 0.49357 0.0
C171 C 0.78674 0.3304 0.4627 0.0
H172 H 0.88005 0.13067 0.50448 0.0
C173 C 0.81295 0.33172 0.41921 0.0
H174 H 0.79957 0.25665 0.52743 0.0
C175 C 0.85749 0.25885 0.406 0.0
C176 C 0.87709 0.18345 0.43601 0.0
H177 H 0.7927 0.38665 0.39465 0.0
H178 H 0.87036 0.25942 0.37181 0.0
C179 C 0.86245 0.18621 0.48029 0.0
C180 C 0.37033 0.21747 0.49183 0.0
C181 C 0.34806 0.30527 0.47583 0.0
H182 H 0.31541 0.09596 0.52433 0.0
C183 C 0.24858 0.33457 0.47387 0.0
H184 H 0.44704 0.19436 0.49453 0.0
C185 C 0.17398 0.27925 0.49214 0.0
C186 C 0.19813 0.19374 0.51162 0.0
H187 H 0.2304 0.40267 0.46269 0.0
H188 H 0.09916 0.30504 0.49394 0.0
C189 C 0.29543 0.16161 0.50915 0.0
C190 C 0.30791 0.74468 0.50619 0.0
C191 C 0.3032 0.66019 0.49512 0.0
H192 H 0.24761 0.87499 0.49393 0.0
C193 C 0.2207 0.63702 0.47057 0.0
H194 H 0.37208 0.7643 0.52428 0.0
C195 C 0.15044 0.70009 0.45278 0.0
C196 C 0.16184 0.78731 0.4593 0.0
H197 H 0.21657 0.57238 0.46118 0.0
H198 H 0.09282 0.6825 0.43059 0.0
C199 C 0.23698 0.80798 0.48856 0.0
C200 C 0.15212 1.00841 0.23731 0.0
C201 C 0.10288 0.94508 0.21678 0.0
H202 H 0.18764 0.05437 0.29744 0.0
C203 C 0.05666 0.87477 0.24205 0.0
H204 H 0.18749 0.06366 0.21843 0.0
C205 C 0.05764 0.86909 0.28719 0.0
C206 C 0.10327 0.93449 0.30749 0.0
H207 H 1.0185 0.82512 0.22683 0.0
H208 H 1.01947 0.81552 0.3061 0.0
C209 C 0.15167 1.0035 0.28232 0.0
C210 C 0.12185 0.14656 0.72531 0.0
C211 C 0.03041 0.16799 0.74245 0.0
H212 H 0.19836 0.11738 0.66989 0.0
C213 C 0.94543 0.18112 0.7144 0.0
H214 H 0.18856 0.13332 0.74569 0.0
C215 C 0.95102 0.1687 0.67097 0.0
C216 C 0.0421 0.14542 0.65479 0.0
H217 H 0.87418 0.19918 0.72607 0.0
H218 H 0.88428 0.17603 0.65022 0.0
C219 C 0.1277 0.13642 0.68188 0.0
C220 C 0.52488 0.36609 0.75176 0.0
C221 C 0.5757 0.42619 0.7222 0.0
H222 H 0.48106 0.33125 0.81765 0.0
C223 C 0.62225 0.49826 0.7366 0.0
H224 H 0.48824 0.31027 0.74121 0.0
C225 C 0.61677 0.51094 0.77975 0.0
C226 C 0.56574 0.45117 0.80928 0.0
H227 H 0.66062 0.54614 0.71418 0.0
H228 H 0.65263 0.56731 0.79011 0.0
C229 C 0.52082 0.37805 0.79521 0.0
C230 C 0.46854 0.68154 0.22461 0.0
C231 C 0.55331 0.64878 0.24975 0.0
H232 H 0.4019 0.71194 0.16058 0.0
C233 C 0.64049 0.63069 0.22845 0.0
H234 H 0.40085 0.69803 0.2398 0.0
C235 C 0.64168 0.6418 0.18335 0.0
C236 C 0.5554 0.66955 0.15873 0.0
H237 H 0.70663 0.60365 0.24641 0.0
H238 H 0.70828 0.62393 0.16771 0.0
C239 C 0.46922 0.69067 0.17939 0.0
loop_
_geom_bond_atom_site_label_1
_geom_bond_atom_site_label_2
_geom_bond_distance
_geom_bond_site_symmetry_2
_ccdc_geom_bond_type
C0 O16 1.251 . S
C0 O18 1.254 1_554 S
N1 C2 1.333 1_445 S
N1 C6 1.307 . S
N1 Zn7 2.020 . S
C2 N1 1.333 1_665 S
C2 C3 1.379 . S
C2 H20 0.952 . S
C3 C2 1.379 . S
C3 C4 1.390 1_655 S
C3 H30 0.949 . S
C4 C3 1.390 1_455 S
C4 C5 1.357 1_565 S
C5 C4 1.357 1_545 S
C5 C6 1.370 . S
C5 H31 0.950 . S
C6 N1 1.307 . S
C6 C5 1.370 . S
C6 H24 0.948 . S
Zn7 N1 2.020 . S
Zn7 O16 2.039 1_445 S
Zn7 O22 2.034 1_455 S
Zn7 O26 2.025 . S
Zn7 O28 2.024 1_545 S
C8 O27 1.246 1_554 S
C8 O28 1.249 . S
N9 C10 1.307 1_455 S
N9 C11 1.333 . S
N9 Zn15 2.020 . S
C10 N9 1.307 1_655 S
C10 C14 1.370 . S
C10 H21 0.948 . S
C11 N9 1.333 . S
C11 C12 1.379 . S
C11 H19 0.952 . S
C12 C11 1.379 . S
C12 C13 1.390 . S
C12 H32 0.949 . S
C13 C12 1.390 . S
C13 C14 1.357 1_455 S
C14 C10 1.370 . S
C14 C13 1.357 1_655 S
C14 H33 0.950 . S
Zn15 N9 2.020 . S
Zn15 O18 2.025 1_445 S
Zn15 O23 2.024 1_455 S
Zn15 O25 2.039 . S
Zn15 O27 2.034 1_545 S
O16 C0 1.251 . S
O16 Zn7 2.039 1_665 S
C17 O22 1.224 1_556 S
C17 O23 1.274 . S
O18 C0 1.254 1_556 S
O18 Zn15 2.025 1_665 S
H19 C11 0.952 . S
H20 C2 0.952 . S
H21 C10 0.948 . S
O22 Zn7 2.034 1_655 S
O22 C17 1.224 1_554 S
O23 Zn15 2.024 1_655 S
O23 C17 1.274 . S
H24 C6 0.948 . S
O25 Zn15 2.039 . S
O25 C29 1.268 . S
O26 Zn7 2.025 . S
O26 C29 1.237 1_554 S
O27 C8 1.246 1_556 S
O27 Zn15 2.034 1_565 S
O28 Zn7 2.024 1_565 S
O28 C8 1.249 . S
C29 O25 1.268 . S
C29 O26 1.237 1_556 S
H30 C3 0.949 . S
H31 C5 0.950 . S
H32 C12 0.949 . S
H33 C14 0.950 . S
C34 O50 1.251 . S
C34 O52 1.254 . S
N35 C36 1.333 . S
N35 C40 1.307 . S
N35 Zn41 2.020 . S
C36 N35 1.333 . S
C36 C37 1.379 . S
C36 H54 0.952 . S
C37 C36 1.379 . S
C37 C38 1.390 . S
C37 H64 0.949 . S
C38 C37 1.390 . S
C38 C39 1.357 . S
C39 C38 1.357 . S
C39 C40 1.370 . S
C39 H65 0.950 . S
C40 N35 1.307 . S
C40 C39 1.370 . S
C40 H58 0.948 . S
Zn41 N35 2.020 . S
Zn41 O50 2.039 . S
Zn41 O56 2.034 . S
Zn41 O60 2.025 . S
Zn41 O62 2.024 . S
C42 O61 1.246 . S
C42 O62 1.249 . S
N43 C44 1.307 . S
N43 C45 1.333 . S
N43 Zn49 2.020 . S
C44 N43 1.307 . S
C44 C48 1.370 . S
C44 H55 0.948 . S
C45 N43 1.333 . S
C45 C46 1.379 . S
C45 H53 0.952 . S
C46 C45 1.379 . S
C46 C47 1.390 . S
C46 H66 0.949 . S
C47 C46 1.390 . S
C47 C48 1.357 . S
C48 C44 1.370 . S
C48 C47 1.357 . S
C48 H67 0.950 . S
Zn49 N43 2.020 . S
Zn49 O52 2.025 . S
Zn49 O57 2.024 . S
Zn49 O59 2.039 . S
Zn49 O61 2.034 . S
O50 C34 1.251 . S
O50 Zn41 2.039 . S
C51 O56 1.246 . S
C51 O57 1.249 . S
O52 C34 1.254 . S
O52 Zn49 2.025 . S
H53 C45 0.952 . S
H54 C36 0.952 . S
H55 C44 0.948 . S
O56 Zn41 2.034 . S
O56 C51 1.246 . S
O57 Zn49 2.024 . S
O57 C51 1.249 . S
H58 C40 0.948 . S
O59 Zn49 2.039 . S
O59 C63 1.251 . S
O60 Zn41 2.025 . S
O60 C63 1.254 . S
O61 C42 1.246 . S
O61 Zn49 2.034 . S
O62 Zn41 2.024 . S
O62 C42 1.249 . S
C63 O59 1.251 . S
C63 O60 1.254 . S
H64 C37 0.949 . S
H65 C39 0.950 . S
H66 C46 0.949 . S
H67 C48 0.950 . S
H68 C75 0.929 . S
H69 C78 0.930 . S
H70 C80 0.929 . S
H71 C72 0.969 . S
C72 H71 0.969 . S
C72 O73 1.550 . S
C72 H74 0.973 . S
O73 C72 1.550 . S
O73 C79 1.412 . S
H74 C72 0.973 . S
C75 H68 0.929 . S
C75 C76 1.400 . S
C75 C77 1.364 . S
C76 C75 1.400 . S
C76 C80 1.377 . S
C77 C75 1.364 . S
C77 C78 1.374 1_465 S
C78 H69 0.930 . S
C78 C77 1.374 1_645 S
C78 C79 1.383 . S
C79 O73 1.412 . S
C79 C78 1.383 . S
C79 C80 1.394 1_645 S
C80 H70 0.929 . S
C80 C76 1.377 . S
C80 C79 1.394 1_465 S
H81 C88 0.929 . S
H82 C91 0.930 1_565 S
H83 C93 0.929 . S
H84 C85 0.969 . S
C85 H84 0.969 . S
C85 O86 1.550 . S
C85 H87 0.973 . S
O86 C85 1.550 . S
O86 C92 1.412 1_565 S
H87 C85 0.973 . S
C88 H81 0.929 . S
C88 C89 1.400 . S
C88 C90 1.364 . S
C89 C88 1.400 . S
C89 C93 1.377 . S
C90 C88 1.364 . S
C90 C91 1.374 1_455 S
C91 H82 0.930 1_545 S
C91 C90 1.374 1_655 S
C91 C92 1.383 . S
C92 O86 1.412 1_545 S
C92 C91 1.383 . S
C92 C93 1.394 1_655 S
C93 H83 0.929 . S
C93 C89 1.377 . S
C93 C92 1.394 1_455 S
H94 C101 0.929 . S
H95 C104 0.930 . S
H96 C106 0.929 . S
H97 C98 0.969 . S
C98 H97 0.969 . S
C98 O99 1.550 1_556 S
C98 H100 0.973 . S
O99 C98 1.550 1_554 S
O99 C105 1.412 1_554 S
H100 C98 0.973 . S
C101 H94 0.929 . S
C101 C102 1.400 . S
C101 C103 1.364 . S
C102 C101 1.400 . S
C102 C106 1.377 1_556 S
C103 C101 1.364 . S
C103 C104 1.374 . S
C104 H95 0.930 . S
C104 C103 1.374 . S
C104 C105 1.383 . S
C105 O99 1.412 1_556 S
C105 C104 1.383 . S
C105 C106 1.394 1_556 S
C106 H96 0.929 . S
C106 C102 1.377 1_554 S
C106 C105 1.394 1_554 S
H107 C114 0.929 . S
H108 C117 0.930 . S
H109 C119 0.929 1_556 S
H110 C111 0.969 . S
C111 H110 0.969 . S
C111 O112 1.550 1_554 S
C111 H113 0.973 . S
O112 C111 1.550 1_556 S
O112 C118 1.412 1_556 S
H113 C111 0.973 . S
C114 H107 0.929 . S
C114 C115 1.400 . S
C114 C116 1.364 . S
C115 C114 1.400 . S
C115 C119 1.377 . S
C116 C114 1.364 . S
C116 C117 1.374 . S
C117 H108 0.930 . S
C117 C116 1.374 . S
C117 C118 1.383 . S
C118 O112 1.412 1_554 S
C118 C117 1.383 . S
C118 C119 1.394 . S
C119 H109 0.929 1_554 S
C119 C115 1.377 . S
C119 C118 1.394 . S
C120 C121 1.387 . S
C120 H124 0.950 . S
C120 C129 1.390 . S
C121 C120 1.387 . S
C121 C123 1.387 1_556 S
H122 C129 0.950 . S
C123 C121 1.387 1_554 S
C123 C125 1.390 . S
C123 H127 0.950 . S
H124 C120 0.950 . S
C125 C123 1.390 . S
C125 C126 1.387 1_554 S
C125 H128 0.950 . S
C126 C125 1.387 1_556 S
C126 C129 1.387 . S
H127 C123 0.950 . S
H128 C125 0.950 . S
C129 C120 1.390 . S
C129 H122 0.950 . S
C129 C126 1.387 . S
C130 C131 1.387 1_556 S
C130 H134 0.950 . S
C130 C139 1.390 . S
C131 C130 1.387 1_554 S
C131 C133 1.387 . S
H132 C139 0.950 . S
C133 C131 1.387 . S
C133 C135 1.390 . S
C133 H137 0.950 . S
H134 C130 0.950 . S
C135 C133 1.390 . S
C135 C136 1.387 . S
C135 H138 0.950 . S
C136 C135 1.387 . S
C136 C139 1.387 1_554 S
H137 C133 0.950 . S
H138 C135 0.950 . S
C139 C130 1.390 . S
C139 H132 0.950 . S
C139 C136 1.387 1_556 S
C140 C141 1.387 . S
C140 H144 0.950 . S
C140 C149 1.390 . S
C141 C140 1.387 . S
C141 C143 1.387 1_554 S
H142 C149 0.950 . S
C143 C141 1.387 1_556 S
C143 C145 1.390 . S
C143 H147 0.950 . S
H144 C140 0.950 . S
C145 C143 1.390 . S
C145 C146 1.387 1_556 S
C145 H148 0.950 . S
C146 C145 1.387 1_554 S
C146 C149 1.387 . S
H147 C143 0.950 . S
H148 C145 0.950 . S
C149 C140 1.390 . S
C149 H142 0.950 . S
C149 C146 1.387 . S
C150 C151 1.387 1_554 S
C150 H154 0.950 . S
C150 C159 1.390 . S
C151 C150 1.387 1_556 S
C151 C153 1.387 . S
H152 C159 0.950 . S
C153 C151 1.387 . S
C153 C155 1.390 . S
C153 H157 0.950 . S
H154 C150 0.950 . S
C155 C153 1.390 . S
C155 C156 1.387 . S
C155 H158 0.950 . S
C156 C155 1.387 . S
C156 C159 1.387 1_556 S
H157 C153 0.950 . S
H158 C155 0.950 . S
C159 C150 1.390 . S
C159 H152 0.950 . S
C159 C156 1.387 1_554 S
C160 C161 1.387 . S
C160 H164 0.950 . S
C160 C169 1.390 . S
C161 C160 1.387 . S
C161 C163 1.387 . S
H162 C169 0.950 . S
C163 C161 1.387 . S
C163 C165 1.390 . S
C163 H167 0.950 . S
H164 C160 0.950 . S
C165 C163 1.390 . S
C165 C166 1.387 . S
C165 H168 0.950 . S
C166 C165 1.387 . S
C166 C169 1.387 . S
H167 C163 0.950 . S
H168 C165 0.950 . S
C169 C160 1.390 . S
C169 H162 0.950 . S
C169 C166 1.387 . S
C170 C171 1.387 . S
C170 H174 0.950 . S
C170 C179 1.390 . S
C171 C170 1.387 . S
C171 C173 1.387 . S
H172 C179 0.950 . S
C173 C171 1.387 . S
C173 C175 1.390 . S
C173 H177 0.950 . S
H174 C170 0.950 . S
C175 C173 1.390 . S
C175 C176 1.387 . S
C175 H178 0.950 . S
C176 C175 1.387 . S
C176 C179 1.387 . S
H177 C173 0.950 . S
H178 C175 0.950 . S
C179 C170 1.390 . S
C179 H172 0.950 . S
C179 C176 1.387 . S
C180 C181 1.387 . S
C180 H184 0.950 . S
C180 C189 1.390 . S
C181 C180 1.387 . S
C181 C183 1.387 . S
H182 C189 0.950 . S
C183 C181 1.387 . S
C183 C185 1.390 . S
C183 H187 0.950 . S
H184 C180 0.950 . S
C185 C183 1.390 . S
C185 C186 1.387 . S
C185 H188 0.950 . S
C186 C185 1.387 . S
C186 C189 1.387 . S
H187 C183 0.950 . S
H188 C185 0.950 . S
C189 C180 1.390 . S
C189 H182 0.950 . S
C189 C186 1.387 . S
C190 C191 1.387 . S
C190 H194 0.950 . S
C190 C199 1.390 . S
C191 C190 1.387 . S
C191 C193 1.387 . S
H192 C199 0.950 . S
C193 C191 1.387 . S
C193 C195 1.390 . S
C193 H197 0.950 . S
H194 C190 0.950 . S
C195 C193 1.390 . S
C195 C196 1.387 . S
C195 H198 0.950 . S
C196 C195 1.387 . S
C196 C199 1.387 . S
H197 C193 0.950 . S
H198 C195 0.950 . S
C199 C190 1.390 . S
C199 H192 0.950 . S
C199 C196 1.387 . S
C200 C201 1.387 1_545 S
C200 H204 0.950 . S
C200 C209 1.390 . S
C201 C200 1.387 1_565 S
C201 C203 1.387 1_455 S
H202 C209 0.950 . S
C203 C201 1.387 1_655 S
C203 C205 1.390 . S
C203 H207 0.950 . S
H204 C200 0.950 . S
C205 C203 1.390 . S
C205 C206 1.387 1_655 S
C205 H208 0.950 . S
C206 C205 1.387 1_455 S
C206 C209 1.387 1_565 S
H207 C203 0.950 . S
H208 C205 0.950 . S
C209 C200 1.390 . S
C209 H202 0.950 . S
C209 C206 1.387 1_545 S
C210 C211 1.387 . S
C210 H214 0.950 . S
C210 C219 1.390 . S
C211 C210 1.387 . S
C211 C213 1.387 1_455 S
H212 C219 0.950 . S
C213 C211 1.387 1_655 S
C213 C215 1.390 . S
C213 H217 0.950 . S
H214 C210 0.950 . S
C215 C213 1.390 . S
C215 C216 1.387 1_655 S
C215 H218 0.950 . S
C216 C215 1.387 1_455 S
C216 C219 1.387 . S
H217 C213 0.950 . S
H218 C215 0.950 . S
C219 C210 1.390 . S
C219 H212 0.950 . S
C219 C216 1.387 . S
C220 C221 1.387 . S
C220 H224 0.950 . S
C220 C229 1.390 . S
C221 C220 1.387 . S
C221 C223 1.387 . S
H222 C229 0.950 . S
C223 C221 1.387 . S
C223 C225 1.390 . S
C223 H227 0.950 . S
H224 C220 0.950 . S
C225 C223 1.390 . S
C225 C226 1.387 . S
C225 H228 0.950 . S
C226 C225 1.387 . S
C226 C229 1.387 . S
H227 C223 0.950 . S
H228 C225 0.950 . S
C229 C220 1.390 . S
C229 H222 0.950 . S
C229 C226 1.387 . S
C230 C231 1.387 . S
C230 H234 0.950 . S
C230 C239 1.390 . S
C231 C230 1.387 . S
C231 C233 1.387 . S
H232 C239 0.950 . S
C233 C231 1.387 . S
C233 C235 1.390 . S
C233 H237 0.950 . S
H234 C230 0.950 . S
C235 C233 1.390 . S
C235 C236 1.387 . S
C235 H238 0.950 . S
C236 C235 1.387 . S
C236 C239 1.387 . S
H237 C233 0.950 . S
H238 C235 0.950 . S
C239 C230 1.390 . S
C239 H232 0.950 . S
C239 C236 1.387 . S
C126 C111 1.323 1_556 S
C121 C29 1.474 . S
C131 C8 1.483 . S
C136 C98 1.345 1_554 S
C141 C0 1.520 . S
C146 C115 1.492 . S
C151 C17 1.511 . S
C156 C102 1.491 . S
C161 C63 1.474 . S
C166 C85 1.323 . S
C171 C42 1.483 . S
C176 C72 1.344 . S
C186 C89 1.492 . S
C181 C34 1.520 . S
C196 C76 1.491 . S
C191 C51 1.514 . S
C201 C4 1.514 . S
C206 C77 1.516 . S
C211 C13 1.526 . S
C216 C90 1.530 . S
C226 C103 1.515 . S
C221 C38 1.514 . S
C231 C47 1.525 . S
C236 C116 1.529 . S
