# Generated by pormake.
# Topology zzz, (3,6)-cn, num edge types: 1
# Building blocks:
#     Node 0, Type 0, BuildingBlock: ESEHIV_clean_linker_0, # of connection points: 3
#     Node 1, Type 0, BuildingBlock: ESEHIV_clean_linker_0, # of connection points: 3
#     Node 2, Type 0, BuildingBlock: ESEHIV_clean_linker_0, # of connection points: 3
#     Node 3, Type 0, BuildingBlock: ESEHIV_clean_linker_0, # of connection points: 3
#     Node 4, Type 0, BuildingBlock: ESEHIV_clean_linker_0, # of connection points: 3
#     Node 5, Type 0, BuildingBlock: ESEHIV_clean_linker_0, # of connection points: 3
#     Node 6, Type 0, BuildingBlock: ESEHIV_clean_linker_0, # of connection points: 3
#     Node 7, Type 0, BuildingBlock: ESEHIV_clean_linker_0, # of connection points: 3
#     Node 8, Type 1, BuildingBlock: MIFKUJ_clean_sbu_0, # of connection points: 6
#     Node 9, Type 1, BuildingBlock: MIFKUJ_clean_sbu_0, # of connection points: 6
#     Node 10, Type 1, BuildingBlock: MIFKUJ_clean_sbu_0, # of connection points: 6
#     Node 11, Type 1, BuildingBlock: MIFKUJ_clean_sbu_0, # of connection points: 6
#     Edge 12, Type (0, 1), None
#     Edge 13, Type (0, 1), None
#     Edge 14, Type (0, 1), None
#     Edge 15, Type (0, 1), None
#     Edge 16, Type (0, 1), None
#     Edge 17, Type (0, 1), None
#     Edge 18, Type (0, 1), None
#     Edge 19, Type (0, 1), None
#     Edge 20, Type (0, 1), None
#     Edge 21, Type (0, 1), None
#     Edge 22, Type (0, 1), None
#     Edge 23, Type (0, 1), None
#     Edge 24, Type (0, 1), None
#     Edge 25, Type (0, 1), None
#     Edge 26, Type (0, 1), None
#     Edge 27, Type (0, 1), None
#     Edge 28, Type (0, 1), None
#     Edge 29, Type (0, 1), None
#     Edge 30, Type (0, 1), None
#     Edge 31, Type (0, 1), None
#     Edge 32, Type (0, 1), None
#     Edge 33, Type (0, 1), None
#     Edge 34, Type (0, 1), None
#     Edge 35, Type (0, 1), None
# Relax obj value: 0.411
# Max RMSD: 0.224
# Mean RMSD: 0.193
data_MOF--net-zzz--node1-MIFKUJ_clean_sbu_0--node2-ESEHIV_clean_linker_0--edge1-none
_symmetry_space_group_name_H-M    P1
_symmetry_Int_Tables_number       1
_symmetry_cell_setting            triclinic
loop_
_symmetry_equiv_pos_as_xyz
'x, y, z'
_cell_length_a     19.48493
_cell_length_b     19.511509
_cell_length_c     7.6167317
_cell_angle_alpha  89.992771
_cell_angle_beta   90.001052
_cell_angle_gamma 90.046047
loop_
_atom_site_label
_atom_site_type_symbol
_atom_site_fract_x
_atom_site_fract_y
_atom_site_fract_z
_atom_type_partial_charge
H0 H 0.78872 0.56992 0.9157 0.0
H1 H 0.63588 0.5224 0.53531 0.0
H2 H 0.62207 0.43404 0.04812 0.0
C3 C 0.73868 0.54804 0.88795 0.0
C4 C 0.7091 0.50276 0.00724 0.0
C5 C 0.71395 0.55128 0.71684 0.0
C6 C 0.65113 0.52314 0.6724 0.0
C7 C 0.61623 0.48196 0.7901 0.0
C8 C 0.64606 0.47005 0.95898 0.0
H9 H 0.84047 0.78383 0.91604 0.0
H10 H 0.88957 0.63207 0.53483 0.0
H11 H -0.02309 0.6179 0.04877 0.0
C12 C 0.86266 0.73401 0.88817 0.0
C13 C 0.90792 0.70457 0.00768 0.0
C14 C 0.85983 0.70952 0.71686 0.0
C15 C 0.88848 0.64709 0.67207 0.0
C16 C 0.92944 0.61217 0.79008 0.0
C17 C 0.94094 0.6418 0.95937 0.0
H18 H 0.62352 0.8371 0.91576 0.0
H19 H 0.77636 0.88462 0.53534 0.0
H20 H 0.79018 -0.02702 0.04809 0.0
C21 C 0.67357 0.85898 0.88799 0.0
C22 C 0.70315 0.90426 0.00725 0.0
C23 C 0.6983 0.85574 0.71689 0.0
C24 C 0.76111 0.88388 0.67244 0.0
C25 C 0.79602 0.92506 0.79011 0.0
C26 C 0.76619 0.93697 0.95898 0.0
H27 H 0.5718 0.6232 0.91596 0.0
H28 H 0.43535 0.7891 0.04871 0.0
H29 H 0.52267 0.77496 0.53476 0.0
C30 C 0.54961 0.67302 0.88814 0.0
C31 C 0.55243 0.69751 0.71682 0.0
C32 C 0.50434 0.70245 0.00764 0.0
C33 C 0.47131 0.76522 0.95931 0.0
C34 C 0.48279 0.79484 0.78999 0.0
C35 C 0.52376 0.75994 0.672 0.0
H36 H 0.1254 0.33625 0.24779 0.0
H37 H 0.2774 0.38564 0.62894 0.0
H38 H 0.2911 0.47332 0.11548 0.0
C39 C 0.17525 0.35856 0.2757 0.0
C40 C 0.20457 0.40399 0.15635 0.0
C41 C 0.19984 0.35571 0.44699 0.0
C42 C 0.26233 0.38453 0.49172 0.0
C43 C 0.29708 0.42574 0.37387 0.0
C44 C 0.26733 0.4372 0.20471 0.0
H45 H 0.07169 0.12134 0.24804 0.0
H46 H 0.02388 0.27373 0.6286 0.0
H47 H 0.93567 0.2876 0.11546 0.0
C48 C 0.04972 0.17126 0.27581 0.0
C49 C 0.00443 0.20074 0.15645 0.0
C50 C 0.05289 0.19591 0.44694 0.0
C51 C 0.02463 0.25853 0.49149 0.0
C52 C -0.01647 0.29342 0.37369 0.0
C53 C -0.02833 0.26366 0.2047 0.0
H54 H 0.28687 0.07079 0.24773 0.0
H55 H 0.13487 0.02141 0.6289 0.0
H56 H 0.12116 0.93372 0.11551 0.0
C57 C 0.23701 0.04848 0.27565 0.0
C58 C 0.2077 0.00305 0.15634 0.0
C59 C 0.21242 0.05134 0.44694 0.0
C60 C 0.14994 0.02252 0.49169 0.0
C61 C 0.11518 -0.01869 0.37386 0.0
C62 C 0.14493 -0.03016 0.20472 0.0
H63 H 0.34055 0.2857 0.24811 0.0
H64 H 0.47658 0.11946 0.11552 0.0
H65 H 0.38839 0.13329 0.62866 0.0
C66 C 0.36252 0.23578 0.27583 0.0
C67 C 0.35936 0.21112 0.44697 0.0
C68 C 0.40782 0.2063 0.15648 0.0
C69 C 0.44059 0.14339 0.20475 0.0
C70 C 0.42875 0.11363 0.37377 0.0
C71 C 0.38763 0.1485 0.49155 0.0
Zn72 Zn -0.02132 0.04348 0.7478 0.0
Zn73 Zn 0.9335 0.86193 0.41606 0.0
C74 C -0.01445 0.15977 -0.00305 0.0
O75 O 0.93957 0.1843 0.88773 0.0
C76 C 0.92664 0.74553 0.16731 0.0
O77 O -0.02722 0.72115 0.2763 0.0
O78 O -0.01351 0.11551 0.58476 0.0
O79 O 0.01667 -0.03017 0.56691 0.0
O80 O 0.03222 0.89107 0.3659 0.0
C81 C 0.04462 0.14491 0.57867 0.0
O82 O 0.09105 0.13601 0.70122 0.0
O83 O 0.01029 0.0991 0.9695 0.0
C84 C 0.86802 0.76071 0.58561 0.0
O85 O 0.82115 0.77032 0.46455 0.0
O86 O 0.92631 0.78977 0.57868 0.0
O87 O 0.89495 0.93491 0.59829 0.0
O88 O 0.87979 0.01464 0.79734 0.0
O89 O 0.90176 0.80613 0.19479 0.0
C90 C 0.05389 0.94466 0.44318 0.0
C91 C 0.85778 -0.03904 0.72094 0.0
Zn92 Zn 0.3649 -0.0228 0.74789 0.0
Zn93 Zn 0.54609 0.9307 0.41596 0.0
C94 C 0.24875 -0.01566 -0.00316 0.0
O95 O 0.22432 0.93822 0.88792 0.0
C96 C 0.66216 0.92325 0.16665 0.0
O97 O 0.68688 -0.03082 0.27571 0.0
O98 O 0.29272 -0.01498 0.58512 0.0
O99 O 0.43857 0.01498 0.56612 0.0
O100 O 0.51809 0.02971 0.36612 0.0
C101 C 0.26366 0.04321 0.5783 0.0
O102 O 0.27315 0.0899 0.69976 0.0
O103 O 0.30946 0.00921 0.96932 0.0
C104 C 0.64729 0.86421 0.58508 0.0
O105 O 0.63803 0.81783 0.46273 0.0
O106 O 0.61822 0.92241 0.57889 0.0
O107 O 0.47204 0.89326 0.59694 0.0
O108 O 0.3931 0.87832 0.79814 0.0
O109 O 0.60134 0.89868 0.19421 0.0
C110 C 0.46458 0.05194 0.44296 0.0
C111 C 0.44654 0.85627 0.72074 0.0
Zn112 Zn 0.43357 0.36355 0.74779 0.0
Zn113 Zn 0.47876 0.5451 0.41606 0.0
C114 C 0.42669 0.24729 -0.00302 0.0
O115 O 0.47268 0.22276 0.88778 0.0
C116 C 0.48564 0.66148 0.16728 0.0
O117 O 0.43948 0.68585 0.27624 0.0
O118 O 0.42575 0.29153 0.58477 0.0
O119 O 0.39559 0.43722 0.56692 0.0
O120 O 0.38004 0.51598 0.36587 0.0
C121 C 0.36762 0.26212 0.57869 0.0
O122 O 0.32119 0.271 0.70123 0.0
O123 O 0.40194 0.30795 0.9695 0.0
C124 C 0.54425 0.64633 0.58559 0.0
O125 O 0.59112 0.63672 0.46453 0.0
O126 O 0.48596 0.61725 0.57866 0.0
O127 O 0.5173 0.4721 0.59828 0.0
O128 O 0.53247 0.39237 0.79736 0.0
O129 O 0.51052 0.60088 0.19478 0.0
C130 C 0.35837 0.46239 0.44317 0.0
C131 C 0.55447 0.44605 0.72095 0.0
Zn132 Zn 0.04736 0.42983 0.74787 0.0
Zn133 Zn 0.86616 0.47632 0.41597 0.0
C134 C 0.16351 0.42269 -0.00317 0.0
O135 O 0.18794 0.46883 0.8879 0.0
C136 C 0.75008 0.48378 0.16666 0.0
O137 O 0.72538 0.43784 0.27573 0.0
O138 O 0.11956 0.42203 0.58514 0.0
O139 O -0.02629 0.39205 0.56606 0.0
O140 O 0.89418 0.37733 0.36609 0.0
C141 C 0.1486 0.36384 0.57833 0.0
O142 O 0.13909 0.31714 0.69978 0.0
O143 O 0.10281 0.39781 0.96931 0.0
C144 C 0.76496 0.5428 0.58505 0.0
O145 O 0.77425 0.58919 0.46271 0.0
O146 O 0.79402 0.4846 0.57888 0.0
O147 O 0.94019 0.51377 0.59701 0.0
O148 O 0.01914 0.5287 0.79817 0.0
O149 O 0.81091 0.50836 0.19421 0.0
C150 C 0.94769 0.3551 0.44291 0.0
C151 C -0.03431 0.55075 0.72081 0.0
loop_
_geom_bond_atom_site_label_1
_geom_bond_atom_site_label_2
_geom_bond_distance
_geom_bond_site_symmetry_2
_ccdc_geom_bond_type
H0 C3 0.931 . S
H1 C6 0.928 . S
H2 C8 0.930 . S
C3 H0 0.931 . S
C3 C4 1.413 . S
C3 C5 1.360 1_554 S
C4 C3 1.413 . S
C4 C8 1.429 . S
C5 C3 1.360 1_556 S
C5 C6 1.372 . S
C6 H1 0.928 . S
C6 C5 1.372 . S
C6 C7 1.404 1_556 S
C7 C6 1.404 1_554 S
C7 C8 1.391 . S
C8 H2 0.930 . S
C8 C4 1.429 . S
C8 C7 1.391 . S
H9 C12 0.931 . S
H10 C15 0.928 . S
H11 C17 0.930 . S
C12 H9 0.931 . S
C12 C13 1.413 . S
C12 C14 1.360 1_554 S
C13 C12 1.413 . S
C13 C17 1.429 . S
C14 C12 1.360 1_556 S
C14 C15 1.372 . S
C15 H10 0.928 . S
C15 C14 1.372 . S
C15 C16 1.404 1_556 S
C16 C15 1.404 1_554 S
C16 C17 1.391 . S
C17 H11 0.930 . S
C17 C13 1.429 . S
C17 C16 1.391 . S
H18 C21 0.931 . S
H19 C24 0.928 . S
H20 C26 0.930 . S
C21 H18 0.931 . S
C21 C22 1.413 . S
C21 C23 1.360 1_554 S
C22 C21 1.413 . S
C22 C26 1.429 . S
C23 C21 1.360 1_556 S
C23 C24 1.372 . S
C24 H19 0.928 . S
C24 C23 1.372 . S
C24 C25 1.404 1_556 S
C25 C24 1.404 1_554 S
C25 C26 1.391 . S
C26 H20 0.930 . S
C26 C22 1.429 . S
C26 C25 1.391 . S
H27 C30 0.931 . S
H28 C33 0.928 . S
H29 C35 0.930 . S
C30 H27 0.931 . S
C30 C31 1.413 1_554 S
C30 C32 1.360 . S
C31 C30 1.413 1_556 S
C31 C35 1.429 . S
C32 C30 1.360 . S
C32 C33 1.372 . S
C33 H28 0.928 . S
C33 C32 1.372 . S
C33 C34 1.404 . S
C34 C33 1.404 . S
C34 C35 1.391 1_554 S
C35 H29 0.930 . S
C35 C31 1.429 . S
C35 C34 1.391 1_556 S
H36 C39 0.931 . S
H37 C42 0.928 . S
H38 C44 0.930 1_556 S
C39 H36 0.931 . S
C39 C40 1.413 1_554 S
C39 C41 1.360 . S
C40 C39 1.413 1_556 S
C40 C44 1.429 1_556 S
C41 C39 1.360 . S
C41 C42 1.372 . S
C42 H37 0.928 . S
C42 C41 1.372 . S
C42 C43 1.404 . S
C43 C42 1.404 . S
C43 C44 1.391 . S
C44 H38 0.930 1_554 S
C44 C40 1.429 1_554 S
C44 C43 1.391 . S
H45 C48 0.931 . S
H46 C51 0.928 . S
H47 C53 0.930 1_556 S
C48 H45 0.931 . S
C48 C49 1.413 1_554 S
C48 C50 1.360 . S
C49 C48 1.413 1_556 S
C49 C53 1.429 1_556 S
C50 C48 1.360 . S
C50 C51 1.372 . S
C51 H46 0.928 . S
C51 C50 1.372 . S
C51 C52 1.404 . S
C52 C51 1.404 . S
C52 C53 1.391 . S
C53 H47 0.930 1_554 S
C53 C49 1.429 1_554 S
C53 C52 1.391 . S
H54 C57 0.931 . S
H55 C60 0.928 . S
H56 C62 0.930 1_556 S
C57 H54 0.931 . S
C57 C58 1.413 1_554 S
C57 C59 1.360 . S
C58 C57 1.413 1_556 S
C58 C62 1.429 1_556 S
C59 C57 1.360 . S
C59 C60 1.372 . S
C60 H55 0.928 . S
C60 C59 1.372 . S
C60 C61 1.404 . S
C61 C60 1.404 . S
C61 C62 1.391 . S
C62 H56 0.930 1_554 S
C62 C58 1.429 1_554 S
C62 C61 1.391 . S
H63 C66 0.931 . S
H64 C69 0.928 . S
H65 C71 0.930 . S
C66 H63 0.931 . S
C66 C67 1.413 . S
C66 C68 1.360 1_554 S
C67 C66 1.413 . S
C67 C71 1.429 . S
C68 C66 1.360 1_556 S
C68 C69 1.372 . S
C69 H64 0.928 . S
C69 C68 1.372 . S
C69 C70 1.404 1_556 S
C70 C69 1.404 1_554 S
C70 C71 1.391 . S
C71 H65 0.930 . S
C71 C67 1.429 . S
C71 C70 1.391 . S
Zn72 O78 1.969 1_455 S
Zn72 O79 1.965 . S
Zn72 O83 2.024 . S
Zn72 O88 1.969 1_455 S
Zn73 O80 1.969 . S
Zn73 O86 1.969 . S
Zn73 O87 1.965 1_455 S
Zn73 O89 2.024 1_455 S
C74 O75 1.229 1_455 S
C74 O83 1.058 . S
O75 C74 1.229 1_655 S
C76 O77 1.229 1_655 S
C76 O89 1.058 . S
O77 C76 1.229 1_455 S
O78 Zn72 1.969 1_655 S
O78 C81 1.267 . S
O79 Zn72 1.965 . S
O79 C90 1.267 . S
O80 Zn73 1.969 . S
O80 C90 1.247 1_565 S
C81 O78 1.267 . S
C81 O82 1.228 1_655 S
O82 C81 1.228 1_455 S
O83 Zn72 2.024 . S
O83 C74 1.058 . S
C84 O85 1.228 1_455 S
C84 O86 1.267 . S
O85 C84 1.228 1_655 S
O86 Zn73 1.969 . S
O86 C84 1.267 . S
O87 Zn73 1.965 1_655 S
O87 C91 1.260 1_565 S
O88 Zn72 1.969 1_655 S
O88 C91 1.258 . S
O89 Zn73 2.024 1_655 S
O89 C76 1.058 . S
C90 O79 1.267 . S
C90 O80 1.247 1_545 S
C91 O87 1.260 1_545 S
C91 O88 1.258 . S
Zn92 O98 1.969 . S
Zn92 O99 1.964 1_565 S
Zn92 O103 2.023 1_565 S
Zn92 O108 1.970 . S
Zn93 O100 1.969 . S
Zn93 O106 1.969 . S
Zn93 O107 1.965 1_545 S
Zn93 O109 2.024 1_545 S
C94 O95 1.229 1_545 S
C94 O103 1.058 . S
O95 C94 1.229 1_565 S
C96 O97 1.229 1_565 S
C96 O109 1.058 . S
O97 C96 1.229 1_545 S
O98 Zn92 1.969 . S
O98 C101 1.267 . S
O99 Zn92 1.964 1_545 S
O99 C110 1.260 . S
O100 Zn93 1.969 . S
O100 C110 1.258 . S
C101 O98 1.267 . S
C101 O102 1.228 1_565 S
O102 C101 1.228 1_545 S
O103 Zn92 2.023 1_545 S
O103 C94 1.058 . S
C104 O105 1.228 1_545 S
C104 O106 1.267 . S
O105 C104 1.228 1_565 S
O106 Zn93 1.969 . S
O106 C104 1.267 . S
O107 Zn93 1.965 1_565 S
O107 C111 1.260 . S
O108 Zn92 1.970 . S
O108 C111 1.258 . S
O109 Zn93 2.024 1_565 S
O109 C96 1.058 . S
C110 O99 1.260 . S
C110 O100 1.258 . S
C111 O107 1.260 . S
C111 O108 1.258 . S
Zn112 O118 1.969 . S
Zn112 O119 1.965 . S
Zn112 O123 2.024 . S
Zn112 O128 1.969 . S
Zn113 O120 1.969 . S
Zn113 O126 1.969 . S
Zn113 O127 1.965 . S
Zn113 O129 2.024 . S
C114 O115 1.229 . S
C114 O123 1.058 . S
O115 C114 1.229 . S
C116 O117 1.229 . S
C116 O129 1.058 . S
O117 C116 1.229 . S
O118 Zn112 1.969 . S
O118 C121 1.267 . S
O119 Zn112 1.965 . S
O119 C130 1.260 . S
O120 Zn113 1.969 . S
O120 C130 1.258 . S
C121 O118 1.267 . S
C121 O122 1.228 . S
O122 C121 1.228 . S
O123 Zn112 2.024 . S
O123 C114 1.058 . S
C124 O125 1.228 . S
C124 O126 1.267 . S
O125 C124 1.228 . S
O126 Zn113 1.969 . S
O126 C124 1.267 . S
O127 Zn113 1.965 . S
O127 C131 1.260 . S
O128 Zn112 1.969 . S
O128 C131 1.258 . S
O129 Zn113 2.024 . S
O129 C116 1.058 . S
C130 O119 1.260 . S
C130 O120 1.258 . S
C131 O127 1.260 . S
C131 O128 1.258 . S
Zn132 O138 1.969 . S
Zn132 O139 1.965 . S
Zn132 O143 2.024 . S
Zn132 O148 1.969 . S
Zn133 O140 1.969 . S
Zn133 O146 1.969 . S
Zn133 O147 1.965 . S
Zn133 O149 2.024 . S
C134 O135 1.229 . S
C134 O143 1.058 . S
O135 C134 1.229 . S
C136 O137 1.229 . S
C136 O149 1.058 . S
O137 C136 1.229 . S
O138 Zn132 1.969 . S
O138 C141 1.267 . S
O139 Zn132 1.965 . S
O139 C150 1.260 . S
O140 Zn133 1.969 . S
O140 C150 1.258 1_655 S
C141 O138 1.267 . S
C141 O142 1.228 . S
O142 C141 1.228 . S
O143 Zn132 2.024 . S
O143 C134 1.058 . S
C144 O145 1.228 . S
C144 O146 1.267 . S
O145 C144 1.228 . S
O146 Zn133 1.969 . S
O146 C144 1.267 . S
O147 Zn133 1.965 . S
O147 C151 1.260 1_655 S
O148 Zn132 1.969 . S
O148 C151 1.258 . S
O149 Zn133 2.024 . S
O149 C136 1.058 . S
C150 O139 1.260 . S
C150 O140 1.258 1_455 S
C151 O147 1.260 1_455 S
C151 O148 1.258 . S
C61 C90 1.936 . S
C110 C70 1.969 . S
C130 C43 1.933 . S
C150 C52 1.936 . S
C91 C25 1.942 1_546 S
C34 C111 1.961 1_554 S
C7 C131 1.942 1_554 S
C16 C151 1.944 1_654 S
C81 C50 1.091 1_655 S
C101 C59 1.093 1_565 S
C121 C67 1.114 . S
C41 C141 1.093 . S
C14 C84 1.123 1_655 S
C104 C23 1.125 1_545 S
C124 C31 1.098 . S
C5 C144 1.125 . S
C49 C74 1.711 . S
C58 C94 1.709 . S
C114 C68 1.706 . S
C134 C40 1.710 . S
C13 C76 1.708 . S
C96 C22 1.706 . S
C116 C32 1.712 . S
C4 C136 1.706 . S
