# Generated by pormake.
# Topology pts, (4,4)-cn, num edge types: 1
# Building blocks:
#     Node 0, Type 0, BuildingBlock: AZAVOO_clean_linker_0, # of connection points: 4
#     Node 1, Type 0, BuildingBlock: AZAVOO_clean_linker_0, # of connection points: 4
#     Node 2, Type 1, BuildingBlock: AZAVOO_clean_sbu_0, # of connection points: 4
#     Node 3, Type 1, BuildingBlock: AZAVOO_clean_sbu_0, # of connection points: 4
#     Edge 4, Type (0, 1), None
#     Edge 5, Type (0, 1), None
#     Edge 6, Type (0, 1), None
#     Edge 7, Type (0, 1), None
#     Edge 8, Type (0, 1), None
#     Edge 9, Type (0, 1), None
#     Edge 10, Type (0, 1), None
#     Edge 11, Type (0, 1), None
# Relax obj value: 0.171
# Max RMSD: 0.230
# Mean RMSD: 0.160
data_MOF--net-pts--node1-AZAVOO_clean_sbu_0--node2-AZAVOO_clean_linker_0--edge1-none
_symmetry_space_group_name_H-M    P1
_symmetry_Int_Tables_number       1
_symmetry_cell_setting            triclinic
loop_
_symmetry_equiv_pos_as_xyz
'x, y, z'
_cell_length_a     14.151766
_cell_length_b     14.828864
_cell_length_c     24.817293
_cell_angle_alpha  93.006769
_cell_angle_beta   101.93941
_cell_angle_gamma 89.896522
loop_
_atom_site_label
_atom_site_type_symbol
_atom_site_fract_x
_atom_site_fract_y
_atom_site_fract_z
_atom_type_partial_charge
H0 H 0.43086 0.18253 0.63796 0.0
H1 H 0.25696 0.07157 0.0419 0.0
H2 H 0.3752 0.23199 0.94942 0.0
H3 H 0.24912 0.19488 0.86743 0.0
H4 H 0.33987 0.91722 0.86989 0.0
H5 H 0.46241 0.95349 0.9532 0.0
H6 H 0.51833 0.2697 0.8762 0.0
H7 H 0.46804 0.25916 0.77537 0.0
H8 H 0.53079 0.97361 0.77499 0.0
H9 H 0.58053 0.98518 0.87549 0.0
H10 H 0.74061 0.25783 0.88854 0.0
H11 H 0.83741 0.21852 0.81892 0.0
H12 H 0.87684 0.94996 0.87972 0.0
H13 H 0.77946 -0.01106 0.94718 0.0
H14 H 0.84571 0.29381 0.01954 0.0
H15 H 0.0217 0.29677 0.03069 0.0
H16 H 0.03129 0.01457 0.06693 0.0
H17 H 0.85548 0.01241 0.05565 0.0
H18 H 0.76887 0.26221 0.1323 0.0
H19 H 0.8968 0.22985 0.21212 0.0
H20 H 0.81465 0.9486 0.19253 0.0
H21 H 0.68985 0.97981 0.11186 0.0
H22 H 0.47446 0.2397 0.09708 0.0
H23 H 0.36711 0.20211 0.15936 0.0
H24 H 0.41424 0.91831 0.12654 0.0
H25 H 0.51859 0.95639 0.06391 0.0
O26 O 0.44764 0.18498 0.67785 0.0
O27 O 0.46906 0.03663 0.68055 0.0
O28 O 0.19057 0.22458 0.05145 0.0
O29 O 0.19016 0.07434 0.04536 0.0
C30 C 0.52983 0.12294 0.98118 0.0
C31 C 0.59086 0.1359 0.94366 0.0
C32 C 0.69098 0.14452 0.96288 0.0
C33 C 0.73076 0.14747 0.01978 0.0
C34 C 0.67052 0.13551 0.05801 0.0
C35 C 0.56931 0.12221 0.03852 0.0
C36 C 0.42849 0.09561 0.95713 0.0
C37 C 0.36314 0.16197 0.93487 0.0
C38 C 0.29222 0.14096 0.88749 0.0
C39 C 0.28715 0.0538 0.86204 0.0
C40 C 0.3433 0.985 0.88879 0.0
C41 C 0.41213 0.00546 0.93698 0.0
C42 C 0.55233 0.12815 0.88302 0.0
C43 C 0.52006 0.20487 0.8542 0.0
C44 C 0.49189 0.19867 0.79667 0.0
C45 C 0.49603 0.11563 0.76711 0.0
C46 C 0.52694 0.03862 0.79641 0.0
C47 C 0.55507 0.04495 0.8538 0.0
C48 C 0.75495 0.12661 0.92336 0.0
C49 C 0.77114 0.19099 0.88677 0.0
C50 C 0.82568 0.16827 0.84704 0.0
C51 C 0.86469 0.08125 0.84404 0.0
C52 C 0.8484 0.01771 0.88115 0.0
C53 C 0.79346 0.03999 0.92006 0.0
C54 C 0.83788 0.15326 0.03743 0.0
C55 C 0.88621 0.23337 0.03134 0.0
C56 C 0.9866 0.23472 0.0374 0.0
C57 C 0.04022 0.15559 0.04911 0.0
C58 C 0.99195 0.07645 0.05756 0.0
C59 C 0.89164 0.07535 0.05185 0.0
C60 C 0.71859 0.12365 0.11639 0.0
C61 C 0.77585 0.1942 0.14651 0.0
C62 C 0.85021 0.17555 0.19116 0.0
C63 C 0.86661 0.0866 0.20697 0.0
C64 C 0.80334 0.01767 0.18058 0.0
C65 C 0.73044 0.03586 0.13525 0.0
C66 C 0.50575 0.10073 0.07685 0.0
C67 C 0.46147 0.16953 0.10357 0.0
C68 C 0.39989 0.14798 0.13882 0.0
C69 C 0.3826 0.05724 0.14811 0.0
C70 C 0.42655 -0.01114 0.12067 0.0
C71 C 0.48657 0.0104 0.085 0.0
C72 C 0.46983 0.10964 0.70595 0.0
C73 C 0.14505 0.15403 0.04934 0.0
H74 H 0.04852 0.27269 0.15587 0.0
H75 H 0.19055 0.15638 0.53441 0.0
H76 H 0.00418 0.33185 0.45765 0.0
H77 H 0.02222 0.1955 0.40066 0.0
H78 H 0.32881 0.24722 0.42675 0.0
H79 H 0.31114 0.38061 0.4861 0.0
H80 H 0.97547 0.46118 0.35662 0.0
H81 H 0.97614 0.38041 0.2679 0.0
H82 H 0.28838 0.38984 0.30423 0.0
H83 H 0.28656 0.47064 0.39238 0.0
H84 H 0.96829 0.71045 0.39163 0.0
H85 H 0.97335 0.82546 0.32458 0.0
H86 H 0.26214 0.74423 0.31437 0.0
H87 H 0.26036 0.63566 0.38445 0.0
H88 H 0.96896 0.75501 0.51328 0.0
H89 H 0.96481 0.91936 0.52841 0.0
H90 H 0.25676 0.93838 0.50235 0.0
H91 H 0.26042 0.77395 0.48815 0.0
H92 H 0.98335 0.6108 0.59736 0.0
H93 H 0.96089 0.73705 0.66055 0.0
H94 H 0.25098 0.83029 0.66412 0.0
H95 H 0.27476 0.70106 0.60325 0.0
H96 H 0.99055 0.4438 0.57825 0.0
H97 H 0.99424 0.31481 0.63599 0.0
H98 H 0.30328 0.29862 0.65118 0.0
H99 H 0.29907 0.42905 0.59437 0.0
O100 O 0.04957 0.30668 0.19031 0.0
O101 O 0.20982 0.30497 0.214 0.0
O102 O 0.03706 0.07889 0.53643 0.0
O103 O 0.18933 0.09163 0.52711 0.0
C104 C 0.14075 0.46404 0.48296 0.0
C105 C 0.13053 0.51617 0.4361 0.0
C106 C 0.11978 0.61 0.44159 0.0
C107 C 0.11991 0.65224 0.49397 0.0
C108 C 0.12891 0.59964 0.54103 0.0
C109 C 0.13824 0.50493 0.53532 0.0
C110 C 0.15622 0.36627 0.47518 0.0
C111 C 0.07593 0.31044 0.45401 0.0
C112 C 0.08612 0.23381 0.42072 0.0
C113 C 0.17626 0.21417 0.40795 0.0
C114 C 0.25838 0.26303 0.43524 0.0
C115 C 0.24861 0.33787 0.46994 0.0
C116 C 0.13089 0.4717 0.38087 0.0
C117 C 0.0438 0.44635 0.34504 0.0
C118 C 0.04447 0.40002 0.29452 0.0
C119 C 0.13238 0.37847 0.27902 0.0
C120 C 0.21943 0.40524 0.31485 0.0
C121 C 0.21858 0.45162 0.36516 0.0
C122 C 0.11404 0.66489 0.39294 0.0
C123 C 0.03156 0.71591 0.37375 0.0
C124 C 0.03384 0.78024 0.33499 0.0
C125 C 0.1174 0.79166 0.3139 0.0
C126 C 0.19595 0.73425 0.32889 0.0
C127 C 0.19513 0.67257 0.36914 0.0
C128 C 0.11515 0.75255 0.49997 0.0
C129 C 0.03185 0.79483 0.51083 0.0
C130 C 0.02967 0.88871 0.51935 0.0
C131 C 0.11068 0.94205 0.51684 0.0
C132 C 0.19331 0.8994 0.50482 0.0
C133 C 0.19547 0.80553 0.49647 0.0
C134 C 0.13048 0.6469 0.59539 0.0
C135 C 0.04428 0.65475 0.61469 0.0
C136 C 0.0312 0.72779 0.65033 0.0
C137 C 0.1034 0.79463 0.6659 0.0
C138 C 0.19368 0.7805 0.652 0.0
C139 C 0.20773 0.706 0.61779 0.0
C140 C 0.14463 0.4465 0.58258 0.0
C141 C 0.05962 0.41519 0.59627 0.0
C142 C 0.06189 0.3409 0.62901 0.0
C143 C 0.14905 0.29554 0.64756 0.0
C144 C 0.23502 0.3314 0.63711 0.0
C145 C 0.23287 0.40648 0.60508 0.0
C146 C 0.1333 0.32788 0.2259 0.0
C147 C 0.10969 0.04158 0.52727 0.0
Mg148 Mg 0.19793 0.0317 0.27289 0.0
O149 O 0.03615 0.07159 0.23752 0.0
O150 O 0.93646 0.03131 0.29322 0.0
Mg151 Mg 0.02611 -0.01369 0.37511 0.0
C152 C 0.95167 0.06393 0.2489 0.0
C153 C 0.32276 0.03237 0.18766 0.0
O154 O 0.33353 0.95261 0.20871 0.0
O155 O 0.2311 0.16398 0.32672 0.0
O156 O 0.13319 0.07722 0.35498 0.0
O157 O 0.16668 0.88547 0.24811 0.0
O158 O 0.1388 0.94872 0.32607 0.0
C159 C 0.18277 0.14865 0.36288 0.0
C160 C 0.13651 0.87848 0.29346 0.0
O161 O 0.26388 0.08729 0.20392 0.0
Mg162 Mg 0.02961 0.04336 0.71183 0.0
O163 O 0.14685 0.05118 0.79097 0.0
O164 O 0.28837 0.02009 0.76825 0.0
Mg165 Mg 0.2623 0.0005 0.6741 0.0
C166 C 0.23747 0.03901 0.80409 0.0
C167 C 0.92324 0.0552 0.80327 0.0
O168 O 0.97224 0.97975 0.80821 0.0
O169 O 0.07515 0.18117 0.68918 0.0
O170 O 0.2141 0.14914 0.66309 0.0
O171 O 0.0116 0.89369 0.71544 0.0
O172 O 0.11285 0.95669 0.6716 0.0
C173 C 0.14791 0.20488 0.67001 0.0
C174 C 0.07817 0.88439 0.68698 0.0
O175 O 0.92824 0.10399 0.76339 0.0
loop_
_geom_bond_atom_site_label_1
_geom_bond_atom_site_label_2
_geom_bond_distance
_geom_bond_site_symmetry_2
_ccdc_geom_bond_type
H0 O26 0.856 . S
H1 O29 0.854 . S
H2 C37 0.930 . S
H3 C38 0.930 . S
H4 C40 0.930 1_565 S
H5 C41 0.930 1_565 S
H6 C43 0.931 . S
H7 C44 0.930 . S
H8 C46 0.930 . S
H9 C47 0.929 . S
H10 C49 0.930 . S
H11 C50 0.931 . S
H12 C52 0.930 . S
H13 C53 0.929 . S
H14 C55 0.931 . S
H15 C56 0.930 1_455 S
H16 C58 0.930 . S
H17 C59 0.932 1_556 S
H18 C61 0.930 . S
H19 C62 0.929 . S
H20 C64 0.931 1_565 S
H21 C65 0.930 1_565 S
H22 C67 0.929 . S
H23 C68 0.931 . S
H24 C70 0.930 . S
H25 C71 0.927 1_565 S
O26 H0 0.856 . S
O26 C72 1.300 . S
O27 C72 1.209 1_565 S
O28 C73 1.199 . S
O29 H1 0.854 . S
O29 C73 1.297 1_565 S
C30 C31 1.404 . S
C30 C35 1.397 1_556 S
C30 C36 1.492 . S
C31 C30 1.404 . S
C31 C32 1.396 . S
C31 C42 1.492 . S
C32 C31 1.396 . S
C32 C33 1.397 . S
C32 C48 1.509 . S
C33 C32 1.397 . S
C33 C34 1.412 1_556 S
C33 C54 1.485 1_556 S
C34 C33 1.412 1_554 S
C34 C35 1.388 . S
C34 C60 1.490 . S
C35 C30 1.397 1_554 S
C35 C34 1.388 . S
C35 C66 1.519 . S
C36 C30 1.492 . S
C36 C37 1.363 . S
C36 C41 1.390 . S
C37 H2 0.930 . S
C37 C36 1.363 . S
C37 C38 1.372 . S
C38 H3 0.930 . S
C38 C37 1.372 . S
C38 C39 1.383 . S
C39 C38 1.383 . S
C39 C40 1.395 . S
C40 H4 0.930 1_545 S
C40 C39 1.395 . S
C40 C41 1.362 . S
C41 H5 0.930 1_545 S
C41 C36 1.390 . S
C41 C40 1.362 . S
C42 C31 1.492 . S
C42 C43 1.377 . S
C42 C47 1.397 1_545 S
C43 H6 0.931 . S
C43 C42 1.377 . S
C43 C44 1.376 . S
C44 H7 0.930 . S
C44 C43 1.376 . S
C44 C45 1.376 . S
C45 C44 1.376 . S
C45 C46 1.378 1_545 S
C45 C72 1.486 . S
C46 H8 0.930 . S
C46 C45 1.378 1_565 S
C46 C47 1.376 . S
C47 H9 0.929 . S
C47 C42 1.397 1_565 S
C47 C46 1.376 . S
C48 C32 1.509 . S
C48 C49 1.391 . S
C48 C53 1.386 1_545 S
C49 H10 0.930 . S
C49 C48 1.391 . S
C49 C50 1.375 . S
C50 H11 0.931 . S
C50 C49 1.375 . S
C50 C51 1.375 . S
C51 C50 1.375 . S
C51 C52 1.361 1_545 S
C52 H12 0.930 . S
C52 C51 1.361 1_565 S
C52 C53 1.399 . S
C53 H13 0.929 . S
C53 C48 1.386 1_565 S
C53 C52 1.399 . S
C54 C33 1.485 1_554 S
C54 C55 1.394 . S
C54 C59 1.360 1_545 S
C55 H14 0.931 . S
C55 C54 1.394 . S
C55 C56 1.372 . S
C56 H15 0.930 1_655 S
C56 C55 1.372 . S
C56 C57 1.397 1_655 S
C57 C56 1.397 1_455 S
C57 C58 1.390 1_545 S
C57 C73 1.476 . S
C58 H16 0.930 . S
C58 C57 1.390 1_565 S
C58 C59 1.366 1_455 S
C59 H17 0.932 1_554 S
C59 C54 1.360 1_565 S
C59 C58 1.366 1_655 S
C60 C34 1.490 . S
C60 C61 1.380 . S
C60 C65 1.386 . S
C61 H18 0.930 . S
C61 C60 1.380 . S
C61 C62 1.381 . S
C62 H19 0.929 . S
C62 C61 1.381 . S
C62 C63 1.371 . S
C63 C62 1.371 . S
C63 C64 1.380 . S
C64 H20 0.931 1_545 S
C64 C63 1.380 . S
C64 C65 1.387 . S
C65 H21 0.930 1_545 S
C65 C60 1.386 . S
C65 C64 1.387 . S
C66 C35 1.519 . S
C66 C67 1.377 . S
C66 C71 1.364 . S
C67 H22 0.929 . S
C67 C66 1.377 . S
C67 C68 1.386 . S
C68 H23 0.931 . S
C68 C67 1.386 . S
C68 C69 1.363 . S
C69 C68 1.363 . S
C69 C70 1.385 1_545 S
C70 H24 0.930 . S
C70 C69 1.385 1_565 S
C70 C71 1.395 1_565 S
C71 H25 0.927 1_545 S
C71 C66 1.364 . S
C71 C70 1.395 1_545 S
C72 O26 1.300 . S
C72 O27 1.209 1_545 S
C72 C45 1.486 . S
C73 O28 1.199 . S
C73 O29 1.297 1_545 S
C73 C57 1.476 . S
H74 O100 0.856 . S
H75 O103 0.854 . S
H76 C111 0.930 1_655 S
H77 C112 0.930 1_655 S
H78 C114 0.930 . S
H79 C115 0.930 . S
H80 C117 0.931 . S
H81 C118 0.930 . S
H82 C120 0.930 . S
H83 C121 0.929 . S
H84 C123 0.930 . S
H85 C124 0.931 . S
H86 C126 0.930 . S
H87 C127 0.929 . S
H88 C129 0.931 . S
H89 C130 0.930 . S
H90 C132 0.930 . S
H91 C133 0.932 . S
H92 C135 0.930 1_655 S
H93 C136 0.929 1_655 S
H94 C138 0.931 . S
H95 C139 0.930 . S
H96 C141 0.929 . S
H97 C142 0.931 . S
H98 C144 0.930 . S
H99 C145 0.929 . S
O100 H74 0.856 . S
O100 C146 1.300 . S
O101 C146 1.209 . S
O102 C147 1.199 . S
O103 H75 0.854 . S
O103 C147 1.297 . S
C104 C105 1.404 . S
C104 C109 1.397 . S
C104 C110 1.492 . S
C105 C104 1.404 . S
C105 C106 1.396 . S
C105 C116 1.492 . S
C106 C105 1.396 . S
C106 C107 1.397 . S
C106 C122 1.509 . S
C107 C106 1.397 . S
C107 C108 1.412 . S
C107 C128 1.485 . S
C108 C107 1.412 . S
C108 C109 1.388 . S
C108 C134 1.490 . S
C109 C104 1.397 . S
C109 C108 1.388 . S
C109 C140 1.519 . S
C110 C104 1.492 . S
C110 C111 1.363 . S
C110 C115 1.390 . S
C111 H76 0.930 1_455 S
C111 C110 1.363 . S
C111 C112 1.372 . S
C112 H77 0.930 1_455 S
C112 C111 1.372 . S
C112 C113 1.383 . S
C113 C112 1.383 . S
C113 C114 1.395 . S
C114 H78 0.930 . S
C114 C113 1.395 . S
C114 C115 1.362 . S
C115 H79 0.930 . S
C115 C110 1.390 . S
C115 C114 1.362 . S
C116 C105 1.492 . S
C116 C117 1.377 . S
C116 C121 1.397 . S
C117 H80 0.931 . S
C117 C116 1.377 . S
C117 C118 1.376 . S
C118 H81 0.930 . S
C118 C117 1.376 . S
C118 C119 1.376 . S
C119 C118 1.376 . S
C119 C120 1.378 . S
C119 C146 1.486 . S
C120 H82 0.930 . S
C120 C119 1.378 . S
C120 C121 1.376 . S
C121 H83 0.929 . S
C121 C116 1.397 . S
C121 C120 1.376 . S
C122 C106 1.509 . S
C122 C123 1.391 . S
C122 C127 1.386 . S
C123 H84 0.930 . S
C123 C122 1.391 . S
C123 C124 1.375 . S
C124 H85 0.931 . S
C124 C123 1.375 . S
C124 C125 1.375 . S
C125 C124 1.375 . S
C125 C126 1.361 . S
C126 H86 0.930 . S
C126 C125 1.361 . S
C126 C127 1.399 . S
C127 H87 0.929 . S
C127 C122 1.386 . S
C127 C126 1.399 . S
C128 C107 1.485 . S
C128 C129 1.394 . S
C128 C133 1.360 . S
C129 H88 0.931 . S
C129 C128 1.394 . S
C129 C130 1.372 . S
C130 H89 0.930 . S
C130 C129 1.372 . S
C130 C131 1.397 1_565 S
C131 C130 1.397 1_545 S
C131 C132 1.390 1_545 S
C131 C147 1.476 . S
C132 H90 0.930 . S
C132 C131 1.390 1_565 S
C132 C133 1.366 . S
C133 H91 0.932 . S
C133 C128 1.360 . S
C133 C132 1.366 . S
C134 C108 1.490 . S
C134 C135 1.380 . S
C134 C139 1.386 . S
C135 H92 0.930 1_455 S
C135 C134 1.380 . S
C135 C136 1.381 . S
C136 H93 0.929 1_455 S
C136 C135 1.381 . S
C136 C137 1.371 . S
C137 C136 1.371 . S
C137 C138 1.380 . S
C138 H94 0.931 . S
C138 C137 1.380 . S
C138 C139 1.387 . S
C139 H95 0.930 . S
C139 C134 1.386 . S
C139 C138 1.387 . S
C140 C109 1.519 . S
C140 C141 1.377 . S
C140 C145 1.361 . S
C141 H96 0.929 . S
C141 C140 1.377 . S
C141 C142 1.386 . S
C142 H97 0.931 . S
C142 C141 1.386 . S
C142 C143 1.363 . S
C143 C142 1.363 . S
C143 C144 1.385 . S
C144 H98 0.930 . S
C144 C143 1.385 . S
C144 C145 1.396 . S
C145 H99 0.929 . S
C145 C140 1.361 . S
C145 C144 1.396 . S
C146 O100 1.300 . S
C146 O101 1.209 . S
C146 C119 1.486 . S
C147 O102 1.199 . S
C147 O103 1.297 . S
C147 C131 1.476 . S
Mg148 O149 2.028 . S
Mg148 O155 1.986 . S
Mg148 O157 2.114 1_545 S
Mg148 O158 2.251 . S
Mg148 O161 2.010 . S
O149 Mg148 2.028 . S
O149 C152 1.250 1_455 S
O150 Mg151 2.028 . S
O150 C152 1.248 . S
Mg151 O150 2.028 . S
Mg151 O156 2.032 1_655 S
Mg151 O158 2.079 1_655 S
C152 O149 1.250 1_655 S
C152 O150 1.248 . S
C153 O154 1.264 . S
C153 O161 1.249 . S
O154 C153 1.264 . S
O155 Mg148 1.986 . S
O155 C159 1.246 . S
O156 Mg151 2.032 1_455 S
O156 C159 1.259 . S
O157 Mg148 2.114 1_565 S
O157 C160 1.252 . S
O158 Mg148 2.251 . S
O158 Mg151 2.079 1_455 S
O158 C160 1.273 1_545 S
C159 O155 1.246 . S
C159 O156 1.259 . S
C160 O157 1.252 . S
C160 O158 1.273 1_565 S
O161 Mg148 2.010 . S
O161 C153 1.249 . S
Mg162 O163 2.028 . S
Mg162 O169 1.986 . S
Mg162 O171 2.114 1_545 S
Mg162 O172 2.251 1_545 S
Mg162 O175 2.010 1_455 S
O163 Mg162 2.028 . S
O163 C166 1.250 . S
O164 Mg165 2.028 . S
O164 C166 1.248 . S
Mg165 O164 2.028 . S
Mg165 O170 2.032 . S
Mg165 O172 2.079 1_545 S
C166 O163 1.250 . S
C166 O164 1.248 . S
C167 O168 1.264 . S
C167 O175 1.249 . S
O168 C167 1.264 . S
O169 Mg162 1.986 . S
O169 C173 1.246 . S
O170 Mg165 2.032 . S
O170 C173 1.259 . S
O171 Mg162 2.114 1_565 S
O171 C174 1.252 . S
O172 Mg162 2.251 1_565 S
O172 Mg165 2.079 1_565 S
O172 C174 1.273 . S
C173 O169 1.246 . S
C173 O170 1.259 . S
C174 O171 1.252 . S
C174 O172 1.273 . S
O175 Mg162 2.010 1_655 S
O175 C167 1.249 . S
C153 C69 2.093 . S
C173 C143 2.446 . S
C152 C63 2.346 . S
C174 C137 2.472 . S
C166 C39 2.480 . S
C159 C113 1.944 . S
C167 C51 0.804 . S
C125 C160 1.190 . S
