# Generated by pormake.
# Topology ftw, (4,12)-cn, num edge types: 1
# Building blocks:
#     Node 0, Type 0, BuildingBlock: MIFKUJ_clean_linker_1, # of connection points: 4
#     Node 1, Type 0, BuildingBlock: MIFKUJ_clean_linker_1, # of connection points: 4
#     Node 2, Type 0, BuildingBlock: MIFKUJ_clean_linker_1, # of connection points: 4
#     Node 3, Type 1, BuildingBlock: EZIPEK_clean_sbu_0, # of connection points: 12
#     Edge 4, Type (0, 1), None
#     Edge 5, Type (0, 1), None
#     Edge 6, Type (0, 1), None
#     Edge 7, Type (0, 1), None
#     Edge 8, Type (0, 1), None
#     Edge 9, Type (0, 1), None
#     Edge 10, Type (0, 1), None
#     Edge 11, Type (0, 1), None
#     Edge 12, Type (0, 1), None
#     Edge 13, Type (0, 1), None
#     Edge 14, Type (0, 1), None
#     Edge 15, Type (0, 1), None
# Relax obj value: 0.048
# Max RMSD: 0.168
# Mean RMSD: 0.128
data_MOF--net-ftw--node1-EZIPEK_clean_sbu_0--node2-MIFKUJ_clean_linker_1--edge1-none
_symmetry_space_group_name_H-M    P1
_symmetry_Int_Tables_number       1
_symmetry_cell_setting            triclinic
loop_
_symmetry_equiv_pos_as_xyz
'x, y, z'
_cell_length_a     15.982924
_cell_length_b     17.083761
_cell_length_c     16.38519
_cell_angle_alpha  90.046554
_cell_angle_beta   90.689419
_cell_angle_gamma 90.13116
loop_
_atom_site_label
_atom_site_type_symbol
_atom_site_fract_x
_atom_site_fract_y
_atom_site_fract_z
_atom_type_partial_charge
H0 H 0.11181 0.62148 0.68352 0.0
H1 H 0.10081 0.71487 0.79566 0.0
H2 H 0.89084 0.82393 0.67409 0.0
H3 H 0.89795 0.72635 0.56365 0.0
H4 H 0.00295 0.52128 0.66536 0.0
H5 H 0.09512 0.72757 0.46897 0.0
H6 H 0.10189 0.82609 0.35945 0.0
H7 H 0.89061 0.71771 0.23828 0.0
H8 H 0.88014 0.6234 0.34941 0.0
H9 H 0.88108 0.42319 0.34691 0.0
H10 H 0.8921 0.32982 0.23474 0.0
H11 H 0.10208 0.22076 0.35629 0.0
H12 H 0.09496 0.31831 0.46676 0.0
H13 H 0.98994 0.52339 0.36508 0.0
H14 H 0.89778 0.31709 0.56149 0.0
H15 H 0.89098 0.2186 0.67103 0.0
H16 H 0.10225 0.32698 0.79221 0.0
H17 H 0.11275 0.42127 0.68106 0.0
C18 C 0.00542 0.66575 0.61414 0.0
C19 C 0.06323 0.66554 0.68021 0.0
C20 C 0.05643 0.71837 0.74529 0.0
C21 C 0.99357 0.77534 0.74513 0.0
C22 C 0.93924 0.77968 0.67661 0.0
C23 C 0.94424 0.72479 0.61241 0.0
C24 C 0.00045 0.59505 0.55922 0.0
C25 C 0.00208 0.52174 0.59914 0.0
C26 C 0.99245 0.59568 0.47235 0.0
C27 C 0.98717 0.66715 0.41852 0.0
C28 C 0.04846 0.7264 0.42053 0.0
C29 C 0.05319 0.78193 0.35686 0.0
C30 C -0.00156 0.77808 0.28857 0.0
C31 C 0.9353 0.72103 0.28842 0.0
C32 C 0.92882 0.66757 0.35294 0.0
C33 C 0.98748 0.37892 0.41628 0.0
C34 C 0.92967 0.37913 0.35021 0.0
C35 C 0.93648 0.32632 0.28511 0.0
C36 C -0.00065 0.26935 0.28526 0.0
C37 C 0.05367 0.26501 0.35378 0.0
C38 C 0.04866 0.31988 0.418 0.0
C39 C 0.99245 0.44961 0.47122 0.0
C40 C 0.99082 0.52292 0.4313 0.0
C41 C 0.00045 0.44898 0.55809 0.0
C42 C 0.00573 0.37751 0.61194 0.0
C43 C 0.94443 0.31827 0.60994 0.0
C44 C 0.93968 0.26275 0.67362 0.0
C45 C 0.99443 0.26661 0.74192 0.0
C46 C 0.05756 0.32366 0.74206 0.0
C47 C 0.06407 0.3771 0.67753 0.0
H48 H 0.37281 0.16063 0.38464 0.0
H49 H 0.25769 0.15188 0.28534 0.0
H50 H 0.34517 0.92466 0.20978 0.0
H51 H 0.45772 0.93108 0.31288 0.0
H52 H 0.34663 0.05281 0.49551 0.0
H53 H 0.58032 0.13282 0.33983 0.0
H54 H 0.70097 0.14104 0.24939 0.0
H55 H 0.78021 0.91075 0.3254 0.0
H56 H 0.6576 0.90059 0.41296 0.0
H57 H 0.62007 0.88411 0.64577 0.0
H58 H 0.73519 0.89284 0.74508 0.0
H59 H 0.64772 0.12005 0.8207 0.0
H60 H 0.53517 0.11365 0.7176 0.0
H61 H 0.64626 0.99196 0.53494 0.0
H62 H 0.41261 0.91193 0.6906 0.0
H63 H 0.29197 0.90366 0.78104 0.0
H64 H 0.21262 0.13393 0.70505 0.0
H65 H 0.33523 0.14414 0.6175 0.0
C66 C 0.42307 0.04611 0.35648 0.0
C67 C 0.36885 0.10996 0.34492 0.0
C68 C 0.30237 0.10438 0.2898 0.0
C69 C 0.29186 0.03636 0.24344 0.0
C70 C 0.35193 0.97673 0.24713 0.0
C71 C 0.4171 0.98118 0.30434 0.0
C72 C 0.46447 0.03725 0.43644 0.0
C73 C 0.41301 0.04165 0.50432 0.0
C74 C 0.54889 1.0166 0.44757 0.0
C75 C 0.60978 1.01572 0.38181 0.0
C76 C 0.62243 0.08342 0.33552 0.0
C77 C 0.69222 0.08904 0.28621 0.0
C78 C 0.75043 0.02783 0.28446 0.0
C79 C 0.73727 0.95961 0.32927 0.0
C80 C 0.66659 0.95319 0.37715 0.0
C81 C 0.56982 0.99863 0.67396 0.0
C82 C 0.62403 0.93478 0.68551 0.0
C83 C 0.69051 0.94034 0.74062 0.0
C84 C 0.70102 1.00835 0.78701 0.0
C85 C 0.64096 0.06798 0.78333 0.0
C86 C 0.57579 0.06356 0.72612 0.0
C87 C 0.52841 1.00752 0.594 0.0
C88 C 0.57988 1.00312 0.52613 0.0
C89 C 0.444 0.02818 0.58288 0.0
C90 C 0.3831 0.02902 0.64863 0.0
C91 C 0.37048 0.96132 0.69491 0.0
C92 C 0.30069 0.95567 0.74422 0.0
C93 C 0.24245 1.01686 0.74599 0.0
C94 C 0.25559 0.08508 0.70117 0.0
C95 C 0.32627 0.09153 0.6533 0.0
H96 H 0.65504 0.62966 0.89679 0.0
H97 H 0.76645 0.72713 0.90641 0.0
H98 H 0.65409 0.82297 0.12255 0.0
H99 H 0.54464 0.72144 0.11616 0.0
H100 H 0.65007 0.52488 1.00364 0.0
H101 H 0.44545 0.72172 0.91846 0.0
H102 H 0.3352 0.82164 0.91301 0.0
H103 H 0.21902 0.71856 0.12363 0.0
H104 H 0.33161 0.6226 0.13278 0.0
H105 H 0.33782 0.41501 0.13361 0.0
H106 H 0.22638 0.31757 0.12398 0.0
H107 H 0.33875 0.22168 0.90787 0.0
H108 H 0.44824 0.32319 0.91427 0.0
H109 H 0.34281 0.51977 0.02678 0.0
H110 H 0.54745 0.32293 0.11196 0.0
H111 H 0.65772 0.22304 0.11744 0.0
H112 H 0.77392 0.32612 0.90683 0.0
H113 H 0.66131 0.42205 0.89764 0.0
C114 C 0.59134 0.6675 1.0061 0.0
C115 C 0.65355 0.67196 0.94608 0.0
C116 C 0.71785 0.72702 0.95198 0.0
C117 C 0.71987 0.78084 0.01638 0.0
C118 C 0.65423 0.78105 0.0729 0.0
C119 C 0.59095 0.72396 0.06853 0.0
C120 C 0.53928 0.59525 1.01076 0.0
C121 C 0.5823 0.52374 1.00695 0.0
C122 C 0.45142 0.59379 0.02086 0.0
C123 C 0.39726 0.66434 0.02603 0.0
C124 C 0.3981 0.72218 0.96518 0.0
C125 C 0.33427 0.77829 0.96122 0.0
C126 C 0.2675 0.77579 0.01642 0.0
C127 C 0.26852 0.72019 0.07903 0.0
C128 C 0.33346 0.66604 0.08467 0.0
C129 C 0.40154 0.37715 0.02432 0.0
C130 C 0.3393 0.37271 0.08433 0.0
C131 C 0.27499 0.31767 0.07842 0.0
C132 C 0.27296 0.26384 1.01402 0.0
C133 C 0.33861 0.26361 0.95752 0.0
C134 C 0.40192 0.32069 0.9619 0.0
C135 C 0.4536 0.44939 0.01966 0.0
C136 C 0.41059 0.52091 0.02346 0.0
C137 C 0.54147 0.45086 1.00954 0.0
C138 C 0.59564 0.38031 1.00439 0.0
C139 C 0.5948 0.32248 0.06525 0.0
C140 C 0.65866 0.26639 0.06923 0.0
C141 C 0.72544 0.2689 1.01404 0.0
C142 C 0.72442 0.32449 0.95143 0.0
C143 C 0.65946 0.37862 0.94577 0.0
C144 C 0.98894 0.20906 0.81048 0.0
C145 C 0.0043 0.21133 0.21728 0.0
C146 C 0.98861 0.83335 0.81312 0.0
C147 C 0.00393 0.83561 0.22 0.0
C148 C 0.19897 0.83313 1.01128 0.0
C149 C 0.20342 0.2072 1.00785 0.0
C150 C 0.78943 0.83746 0.02257 0.0
C151 C 0.79395 0.21153 0.01918 0.0
C152 C 0.8138 0.02848 0.22274 0.0
C153 C 0.2191 0.02851 0.19017 0.0
C154 C 0.77379 1.01618 0.84027 0.0
C155 C 0.17909 1.01618 0.80771 0.0
Eu156 Eu -0.00182 0.17379 1.01387 0.0
O157 O 0.07643 0.09284 0.08109 0.0
O158 O 0.91709 0.09441 0.94704 0.0
Eu159 Eu 0.15006 1.02033 1.00327 0.0
Eu160 Eu 0.84282 0.02436 0.02717 0.0
O161 O 0.06252 0.09164 0.93659 0.0
O162 O 0.9327 0.09401 0.09265 0.0
Eu163 Eu 0.98073 1.02149 0.86066 0.0
Eu164 Eu 0.01216 0.02322 0.16978 0.0
O165 O 0.06011 0.95057 0.93786 0.0
O166 O 0.07572 0.95015 0.08335 0.0
O167 O 0.93044 0.95293 0.09378 0.0
O168 O 0.91653 0.95172 0.9494 0.0
Eu169 Eu 0.9947 0.87071 0.01656 0.0
O170 O 0.00272 0.23447 0.88747 0.0
O171 O 0.99459 0.23634 0.13961 0.0
O172 O -0.00171 0.80828 0.89077 0.0
O173 O 0.99017 0.81015 0.14302 0.0
O174 O 0.22195 0.90715 1.00011 0.0
O175 O 0.22449 0.13276 0.99586 0.0
O176 O 0.76838 0.91192 0.03454 0.0
O177 O 0.77095 0.13753 0.03038 0.0
O178 O 0.89397 1.02184 0.245 0.0
O179 O 0.14353 0.03191 0.22386 0.0
O180 O 0.84936 1.01278 0.80658 0.0
O181 O 0.09892 0.02288 0.78545 0.0
O182 O 0.86716 0.81048 1.01169 0.0
O183 O 0.12047 0.80747 0.02126 0.0
O184 O 0.87247 0.23714 1.00917 0.0
O185 O 0.12567 0.23413 0.01876 0.0
O186 O 0.01496 0.13711 0.24021 0.0
O187 O 0.01899 0.90977 0.24145 0.0
O188 O 0.97386 0.13492 0.789 0.0
O189 O 0.97796 0.90758 0.79022 0.0
O190 O 0.20974 1.01268 0.88275 0.0
O191 O 0.23529 1.02103 0.11165 0.0
O192 O 0.75759 0.02367 0.91879 0.0
O193 O 0.78314 0.03194 0.1477 0.0
loop_
_geom_bond_atom_site_label_1
_geom_bond_atom_site_label_2
_geom_bond_distance
_geom_bond_site_symmetry_2
_ccdc_geom_bond_type
H0 C19 0.949 . S
H1 C20 0.950 . S
H2 C22 0.950 . S
H3 C23 0.950 . S
H4 C25 0.950 . S
H5 C28 0.950 . S
H6 C29 0.950 . S
H7 C31 0.951 . S
H8 C32 0.949 . S
H9 C34 0.949 . S
H10 C35 0.950 . S
H11 C37 0.950 . S
H12 C38 0.950 . S
H13 C40 0.950 . S
H14 C43 0.950 . S
H15 C44 0.950 . S
H16 C46 0.951 . S
H17 C47 0.949 . S
C18 C19 1.376 . S
C18 C23 1.386 1_455 S
C18 C24 1.483 . S
C19 H0 0.949 . S
C19 C18 1.376 . S
C19 C20 1.397 . S
C20 H1 0.950 . S
C20 C19 1.397 . S
C20 C21 1.391 . S
C21 C20 1.391 . S
C21 C22 1.405 1_455 S
C22 H2 0.950 . S
C22 C21 1.405 1_655 S
C22 C23 1.367 . S
C23 H3 0.950 . S
C23 C18 1.386 1_655 S
C23 C22 1.367 . S
C24 C18 1.483 . S
C24 C25 1.382 . S
C24 C26 1.403 1_455 S
C25 H4 0.950 . S
C25 C24 1.382 . S
C25 C41 1.411 . S
C26 C24 1.403 1_655 S
C26 C27 1.489 . S
C26 C40 1.411 . S
C27 C26 1.489 . S
C27 C28 1.383 1_655 S
C27 C32 1.382 . S
C28 H5 0.950 . S
C28 C27 1.383 1_455 S
C28 C29 1.395 . S
C29 H6 0.950 . S
C29 C28 1.395 . S
C29 C30 1.288 1_455 S
C30 C29 1.288 1_655 S
C30 C31 1.392 . S
C31 H7 0.951 . S
C31 C30 1.392 . S
C31 C32 1.392 . S
C32 H8 0.949 . S
C32 C27 1.382 . S
C32 C31 1.392 . S
C33 C34 1.376 . S
C33 C38 1.386 1_655 S
C33 C39 1.483 . S
C34 H9 0.949 . S
C34 C33 1.376 . S
C34 C35 1.397 . S
C35 H10 0.950 . S
C35 C34 1.397 . S
C35 C36 1.391 . S
C36 C35 1.391 . S
C36 C37 1.405 1_655 S
C37 H11 0.950 . S
C37 C36 1.405 1_455 S
C37 C38 1.367 . S
C38 H12 0.950 . S
C38 C33 1.386 1_455 S
C38 C37 1.367 . S
C39 C33 1.483 . S
C39 C40 1.382 . S
C39 C41 1.403 1_655 S
C40 H13 0.950 . S
C40 C26 1.411 . S
C40 C39 1.382 . S
C41 C25 1.411 . S
C41 C39 1.403 1_455 S
C41 C42 1.489 . S
C42 C41 1.489 . S
C42 C43 1.383 1_455 S
C42 C47 1.382 . S
C43 H14 0.950 . S
C43 C42 1.383 1_655 S
C43 C44 1.395 . S
C44 H15 0.950 . S
C44 C43 1.395 . S
C44 C45 1.288 1_655 S
C45 C44 1.288 1_455 S
C45 C46 1.392 . S
C46 H16 0.951 . S
C46 C45 1.392 . S
C46 C47 1.392 . S
C47 H17 0.949 . S
C47 C42 1.382 . S
C47 C46 1.392 . S
H48 C67 0.949 . S
H49 C68 0.950 . S
H50 C70 0.950 . S
H51 C71 0.950 . S
H52 C73 0.950 . S
H53 C76 0.950 . S
H54 C77 0.950 . S
H55 C79 0.951 . S
H56 C80 0.949 . S
H57 C82 0.949 . S
H58 C83 0.950 . S
H59 C85 0.950 . S
H60 C86 0.950 . S
H61 C88 0.950 . S
H62 C91 0.950 . S
H63 C92 0.950 . S
H64 C94 0.951 . S
H65 C95 0.949 . S
C66 C67 1.376 . S
C66 C71 1.386 1_545 S
C66 C72 1.483 . S
C67 H48 0.949 . S
C67 C66 1.376 . S
C67 C68 1.397 . S
C68 H49 0.950 . S
C68 C67 1.397 . S
C68 C69 1.391 . S
C69 C68 1.391 . S
C69 C70 1.405 1_545 S
C70 H50 0.950 . S
C70 C69 1.405 1_565 S
C70 C71 1.367 . S
C71 H51 0.950 . S
C71 C66 1.386 1_565 S
C71 C70 1.367 . S
C72 C66 1.483 . S
C72 C73 1.382 . S
C72 C74 1.403 1_545 S
C73 H52 0.950 . S
C73 C72 1.382 . S
C73 C89 1.411 . S
C74 C72 1.403 1_565 S
C74 C75 1.489 . S
C74 C88 1.411 . S
C75 C74 1.489 . S
C75 C76 1.383 1_565 S
C75 C80 1.382 . S
C76 H53 0.950 . S
C76 C75 1.383 1_545 S
C76 C77 1.395 . S
C77 H54 0.950 . S
C77 C76 1.395 . S
C77 C78 1.288 1_545 S
C78 C77 1.288 1_565 S
C78 C79 1.392 . S
C79 H55 0.951 . S
C79 C78 1.392 . S
C79 C80 1.392 . S
C80 H56 0.949 . S
C80 C75 1.382 . S
C80 C79 1.392 . S
C81 C82 1.376 . S
C81 C86 1.386 1_565 S
C81 C87 1.483 . S
C82 H57 0.949 . S
C82 C81 1.376 . S
C82 C83 1.397 . S
C83 H58 0.950 . S
C83 C82 1.397 . S
C83 C84 1.391 . S
C84 C83 1.391 . S
C84 C85 1.405 1_565 S
C85 H59 0.950 . S
C85 C84 1.405 1_545 S
C85 C86 1.367 . S
C86 H60 0.950 . S
C86 C81 1.386 1_545 S
C86 C85 1.367 . S
C87 C81 1.483 . S
C87 C88 1.382 . S
C87 C89 1.403 1_565 S
C88 H61 0.950 . S
C88 C74 1.411 . S
C88 C87 1.382 . S
C89 C73 1.411 . S
C89 C87 1.403 1_545 S
C89 C90 1.489 . S
C90 C89 1.489 . S
C90 C91 1.383 1_545 S
C90 C95 1.382 . S
C91 H62 0.950 . S
C91 C90 1.383 1_565 S
C91 C92 1.395 . S
C92 H63 0.950 . S
C92 C91 1.395 . S
C92 C93 1.288 1_565 S
C93 C92 1.288 1_545 S
C93 C94 1.392 . S
C94 H64 0.951 . S
C94 C93 1.392 . S
C94 C95 1.392 . S
C95 H65 0.949 . S
C95 C90 1.382 . S
C95 C94 1.392 . S
H96 C115 0.949 . S
H97 C116 0.950 . S
H98 C118 0.950 . S
H99 C119 0.950 . S
H100 C121 0.950 . S
H101 C124 0.950 . S
H102 C125 0.950 . S
H103 C127 0.951 . S
H104 C128 0.949 . S
H105 C130 0.949 . S
H106 C131 0.950 . S
H107 C133 0.950 . S
H108 C134 0.950 . S
H109 C136 0.950 . S
H110 C139 0.950 . S
H111 C140 0.950 . S
H112 C142 0.951 . S
H113 C143 0.949 . S
C114 C115 1.376 . S
C114 C119 1.386 1_556 S
C114 C120 1.483 . S
C115 H96 0.949 . S
C115 C114 1.376 . S
C115 C116 1.397 . S
C116 H97 0.950 . S
C116 C115 1.397 . S
C116 C117 1.391 . S
C117 C116 1.391 . S
C117 C118 1.405 1_556 S
C118 H98 0.950 . S
C118 C117 1.405 1_554 S
C118 C119 1.367 . S
C119 H99 0.950 . S
C119 C114 1.386 1_554 S
C119 C118 1.367 . S
C120 C114 1.483 . S
C120 C121 1.382 . S
C120 C122 1.403 1_556 S
C121 H100 0.950 . S
C121 C120 1.382 . S
C121 C137 1.411 . S
C122 C120 1.403 1_554 S
C122 C123 1.489 . S
C122 C136 1.411 . S
C123 C122 1.489 . S
C123 C124 1.383 1_554 S
C123 C128 1.382 . S
C124 H101 0.950 . S
C124 C123 1.383 1_556 S
C124 C125 1.395 . S
C125 H102 0.950 . S
C125 C124 1.395 . S
C125 C126 1.288 1_556 S
C126 C125 1.288 1_554 S
C126 C127 1.392 . S
C127 H103 0.951 . S
C127 C126 1.392 . S
C127 C128 1.392 . S
C128 H104 0.949 . S
C128 C123 1.382 . S
C128 C127 1.392 . S
C129 C130 1.376 . S
C129 C134 1.386 1_554 S
C129 C135 1.483 . S
C130 H105 0.949 . S
C130 C129 1.376 . S
C130 C131 1.397 . S
C131 H106 0.950 . S
C131 C130 1.397 . S
C131 C132 1.391 . S
C132 C131 1.391 . S
C132 C133 1.405 1_554 S
C133 H107 0.950 . S
C133 C132 1.405 1_556 S
C133 C134 1.367 . S
C134 H108 0.950 . S
C134 C129 1.386 1_556 S
C134 C133 1.367 . S
C135 C129 1.483 . S
C135 C136 1.382 . S
C135 C137 1.403 1_554 S
C136 H109 0.950 . S
C136 C122 1.411 . S
C136 C135 1.382 . S
C137 C121 1.411 . S
C137 C135 1.403 1_556 S
C137 C138 1.489 . S
C138 C137 1.489 . S
C138 C139 1.383 1_556 S
C138 C143 1.382 . S
C139 H110 0.950 . S
C139 C138 1.383 1_554 S
C139 C140 1.395 . S
C140 H111 0.950 . S
C140 C139 1.395 . S
C140 C141 1.288 1_554 S
C141 C140 1.288 1_556 S
C141 C142 1.392 . S
C142 H112 0.951 . S
C142 C141 1.392 . S
C142 C143 1.392 . S
C143 H113 0.949 . S
C143 C138 1.382 . S
C143 C142 1.392 . S
C144 O170 1.283 . S
C144 O188 1.283 . S
C145 O171 1.283 . S
C145 O186 1.283 . S
C146 O172 1.283 . S
C146 O189 1.283 . S
C147 O173 1.283 . S
C147 O187 1.283 . S
C148 O174 1.283 . S
C148 O183 1.283 . S
C149 O175 1.283 . S
C149 O185 1.283 . S
C150 O176 1.283 . S
C150 O182 1.283 . S
C151 O177 1.283 . S
C151 O184 1.283 . S
C152 O178 1.283 . S
C152 O193 1.283 . S
C153 O179 1.283 . S
C153 O191 1.283 . S
C154 O180 1.283 . S
C154 O192 1.283 . S
C155 O181 1.283 . S
C155 O190 1.283 . S
Eu156 O157 2.371 . S
Eu156 O158 2.369 1_454 S
Eu156 O161 2.370 1_554 S
Eu156 O162 2.370 1_455 S
Eu156 O170 2.362 1_554 S
Eu156 O171 2.364 . S
Eu156 O184 2.362 1_455 S
Eu156 O185 2.364 . S
O157 Eu156 2.371 . S
O157 Eu159 2.371 . S
O157 Eu164 2.371 . S
O158 Eu156 2.369 1_656 S
O158 Eu160 2.370 1_556 S
O158 Eu163 2.370 1_655 S
Eu159 O157 2.371 . S
Eu159 O161 2.370 1_554 S
Eu159 O165 2.369 1_544 S
Eu159 O166 2.370 1_545 S
Eu159 O174 2.362 1_545 S
Eu159 O175 2.364 . S
Eu159 O190 2.362 1_554 S
Eu159 O191 2.364 . S
Eu160 O158 2.370 1_554 S
Eu160 O162 2.369 . S
Eu160 O167 2.370 1_545 S
Eu160 O168 2.371 1_544 S
Eu160 O176 2.364 1_544 S
Eu160 O177 2.362 . S
Eu160 O192 2.364 1_544 S
Eu160 O193 2.362 . S
O161 Eu156 2.370 1_556 S
O161 Eu159 2.370 1_556 S
O161 Eu163 2.369 . S
O162 Eu156 2.370 1_655 S
O162 Eu160 2.369 . S
O162 Eu164 2.370 1_655 S
Eu163 O158 2.370 1_455 S
Eu163 O161 2.369 . S
Eu163 O165 2.370 1_545 S
Eu163 O168 2.371 1_445 S
Eu163 O180 2.364 1_445 S
Eu163 O181 2.362 . S
Eu163 O188 2.362 . S
Eu163 O189 2.364 1_445 S
Eu164 O157 2.371 . S
Eu164 O162 2.370 1_455 S
Eu164 O166 2.370 1_545 S
Eu164 O167 2.369 1_445 S
Eu164 O178 2.362 1_455 S
Eu164 O179 2.364 . S
Eu164 O186 2.364 . S
Eu164 O187 2.362 1_545 S
O165 Eu159 2.369 1_566 S
O165 Eu163 2.370 1_565 S
O165 Eu169 2.370 1_556 S
O166 Eu159 2.370 1_565 S
O166 Eu164 2.370 1_565 S
O166 Eu169 2.369 . S
O167 Eu160 2.370 1_565 S
O167 Eu164 2.369 1_665 S
O167 Eu169 2.370 1_655 S
O168 Eu160 2.371 1_566 S
O168 Eu163 2.371 1_665 S
O168 Eu169 2.371 1_656 S
Eu169 O165 2.370 1_554 S
Eu169 O166 2.369 . S
Eu169 O167 2.370 1_455 S
Eu169 O168 2.371 1_454 S
Eu169 O172 2.364 1_454 S
Eu169 O173 2.362 . S
Eu169 O182 2.364 1_454 S
Eu169 O183 2.362 . S
O170 C144 1.283 . S
O170 Eu156 2.362 1_556 S
O171 C145 1.283 . S
O171 Eu156 2.364 . S
O172 C146 1.283 . S
O172 Eu169 2.364 1_656 S
O173 C147 1.283 . S
O173 Eu169 2.362 . S
O174 C148 1.283 . S
O174 Eu159 2.362 1_565 S
O175 C149 1.283 . S
O175 Eu159 2.364 . S
O176 C150 1.283 . S
O176 Eu160 2.364 1_566 S
O177 C151 1.283 . S
O177 Eu160 2.362 . S
O178 C152 1.283 . S
O178 Eu164 2.362 1_655 S
O179 C153 1.283 . S
O179 Eu164 2.364 . S
O180 C154 1.283 . S
O180 Eu163 2.364 1_665 S
O181 C155 1.283 . S
O181 Eu163 2.362 . S
O182 C150 1.283 . S
O182 Eu169 2.364 1_656 S
O183 C148 1.283 . S
O183 Eu169 2.362 . S
O184 C151 1.283 . S
O184 Eu156 2.362 1_655 S
O185 C149 1.283 . S
O185 Eu156 2.364 . S
O186 C145 1.283 . S
O186 Eu164 2.364 . S
O187 C147 1.283 . S
O187 Eu164 2.362 1_565 S
O188 C144 1.283 . S
O188 Eu163 2.362 . S
O189 C146 1.283 . S
O189 Eu163 2.364 1_665 S
O190 C155 1.283 . S
O190 Eu159 2.362 1_556 S
O191 C153 1.283 . S
O191 Eu159 2.364 . S
O192 C154 1.283 . S
O192 Eu160 2.364 1_566 S
O193 C152 1.283 . S
O193 Eu160 2.362 . S
C145 C36 2.121 1_455 S
C152 C78 1.436 1_545 S
C147 C30 2.075 1_455 S
C153 C69 1.487 . S
C21 C146 2.125 1_455 S
C155 C93 1.433 . S
C45 C144 2.077 . S
C84 C154 1.491 . S
C132 C149 1.660 . S
C126 C148 1.622 . S
C151 C141 1.624 1_554 S
C150 C117 1.663 . S
