# Generated by pormake.
# Topology zzz, (3,6)-cn, num edge types: 1
# Building blocks:
#     Node 0, Type 0, BuildingBlock: PAMTOO_clean_linker_0, # of connection points: 3
#     Node 1, Type 0, BuildingBlock: PAMTOO_clean_linker_0, # of connection points: 3
#     Node 2, Type 0, BuildingBlock: PAMTOO_clean_linker_0, # of connection points: 3
#     Node 3, Type 0, BuildingBlock: PAMTOO_clean_linker_0, # of connection points: 3
#     Node 4, Type 0, BuildingBlock: PAMTOO_clean_linker_0, # of connection points: 3
#     Node 5, Type 0, BuildingBlock: PAMTOO_clean_linker_0, # of connection points: 3
#     Node 6, Type 0, BuildingBlock: PAMTOO_clean_linker_0, # of connection points: 3
#     Node 7, Type 0, BuildingBlock: PAMTOO_clean_linker_0, # of connection points: 3
#     Node 8, Type 1, BuildingBlock: CIFDUS_clean_sbu_1, # of connection points: 6
#     Node 9, Type 1, BuildingBlock: CIFDUS_clean_sbu_1, # of connection points: 6
#     Node 10, Type 1, BuildingBlock: CIFDUS_clean_sbu_1, # of connection points: 6
#     Node 11, Type 1, BuildingBlock: CIFDUS_clean_sbu_1, # of connection points: 6
#     Edge 12, Type (0, 1), None
#     Edge 13, Type (0, 1), None
#     Edge 14, Type (0, 1), None
#     Edge 15, Type (0, 1), None
#     Edge 16, Type (0, 1), None
#     Edge 17, Type (0, 1), None
#     Edge 18, Type (0, 1), None
#     Edge 19, Type (0, 1), None
#     Edge 20, Type (0, 1), None
#     Edge 21, Type (0, 1), None
#     Edge 22, Type (0, 1), None
#     Edge 23, Type (0, 1), None
#     Edge 24, Type (0, 1), None
#     Edge 25, Type (0, 1), None
#     Edge 26, Type (0, 1), None
#     Edge 27, Type (0, 1), None
#     Edge 28, Type (0, 1), None
#     Edge 29, Type (0, 1), None
#     Edge 30, Type (0, 1), None
#     Edge 31, Type (0, 1), None
#     Edge 32, Type (0, 1), None
#     Edge 33, Type (0, 1), None
#     Edge 34, Type (0, 1), None
#     Edge 35, Type (0, 1), None
# Relax obj value: 0.116
# Max RMSD: 0.172
# Mean RMSD: 0.106
data_MOF--net-zzz--node1-CIFDUS_clean_sbu_1--node2-PAMTOO_clean_linker_0--edge1-none
_symmetry_space_group_name_H-M    P1
_symmetry_Int_Tables_number       1
_symmetry_cell_setting            triclinic
loop_
_symmetry_equiv_pos_as_xyz
'x, y, z'
_cell_length_a     20.252024
_cell_length_b     20.251703
_cell_length_c     8.396145
_cell_angle_alpha  89.998999
_cell_angle_beta   90.0023
_cell_angle_gamma 90.004462
loop_
_atom_site_label
_atom_site_type_symbol
_atom_site_fract_x
_atom_site_fract_y
_atom_site_fract_z
_atom_type_partial_charge
H0 H 1.00206 0.56214 0.21951 0.0
H1 H 0.84292 0.5362 0.89748 0.0
H2 H 0.80145 0.59499 0.37917 0.0
H3 H 0.74742 0.63668 -0.0845 0.0
C4 C 0.71716 0.59511 -0.03792 0.0
O5 O 0.74757 0.56577 0.09387 0.0
H6 H 0.66943 0.61637 -4e-05 0.0
C7 C 0.94948 0.56655 0.19634 0.0
C8 C 0.90556 0.58362 0.31843 0.0
C9 C 0.92548 0.54543 0.05068 0.0
C10 C 0.85871 0.5491 0.01588 0.0
C11 C 0.81323 0.57019 0.1292 0.0
C12 C 0.83655 0.58581 0.2844 0.0
H13 H 0.07073 1.00419 0.21811 0.0
H14 H 0.09734 0.84488 0.89683 0.0
H15 H 1.03923 0.80355 0.37902 0.0
H16 H 0.99731 0.74882 -0.08421 0.0
C17 C 1.03912 0.71888 -0.03766 0.0
O18 O 0.06836 0.74958 0.09385 0.0
H19 H 1.0182 0.67105 0.00057 0.0
C20 C 0.0665 0.95157 0.19517 0.0
C21 C 1.04989 0.90767 0.3176 0.0
C22 C 0.08767 0.92755 0.0496 0.0
C23 C 0.08433 0.86073 0.01513 0.0
C24 C 0.06358 0.81524 0.12878 0.0
C25 C 1.04802 0.83861 0.28395 0.0
H26 H 0.63022 0.07392 0.21937 0.0
H27 H 0.78978 0.1009 0.89872 0.0
H28 H 0.83072 1.0414 0.38012 0.0
H29 H 0.88488 1.00069 -0.08494 0.0
C30 C 0.91523 1.04191 -0.03686 0.0
O31 O 0.88485 0.07086 0.09543 0.0
H32 H 0.96296 1.02107 0.00231 0.0
C33 C 0.68284 0.06968 0.19649 0.0
C34 C 0.72667 1.0527 0.31883 0.0
C35 C 0.70694 0.09104 0.05109 0.0
C36 C 0.7738 0.0877 0.01683 0.0
C37 C 0.81916 0.06647 0.13029 0.0
C38 C 0.79571 1.05062 0.28519 0.0
H39 H 0.56028 0.6322 0.21948 0.0
H40 H 0.53423 0.79143 0.89774 0.0
H41 H 0.59288 0.83279 0.37957 0.0
H42 H 0.6347 0.88714 -0.08369 0.0
C43 C 0.59302 0.91728 -0.03721 0.0
O44 O 0.56367 0.88674 0.09439 0.0
H45 H 0.61414 0.96506 0.00084 0.0
C46 C 0.56466 0.68479 0.1964 0.0
C47 C 0.58164 0.72869 0.3186 0.0
C48 C 0.54352 0.70882 0.05078 0.0
C49 C 0.54715 0.77561 0.01611 0.0
C50 C 0.56817 0.82107 0.12954 0.0
C51 C 0.58377 0.79772 0.28471 0.0
H52 H 0.13054 0.57328 0.11516 0.0
H53 H 0.29027 0.60011 0.43544 0.0
H54 H 0.33097 0.54132 -0.04656 0.0
H55 H 0.46357 0.52081 0.33053 0.0
C56 C 0.41581 0.54148 0.37002 0.0
O57 O 0.38524 0.57045 0.23804 0.0
H58 H 0.38562 0.50014 0.41807 0.0
C59 C 0.18317 0.56901 0.1379 0.0
C60 C 0.22695 0.5523 0.0153 0.0
C61 C 0.20735 0.59028 0.28329 0.0
C62 C 0.27423 0.58696 0.31734 0.0
C63 C 0.31954 0.56593 0.20354 0.0
C64 C 0.296 0.55027 0.04863 0.0
H65 H 0.05979 0.13272 0.11398 0.0
H66 H 1.03331 0.29239 0.43453 0.0
H67 H 0.09276 0.3331 -0.04704 0.0
H68 H 0.11337 0.46552 0.33016 0.0
C69 C 0.09253 0.41781 0.36951 0.0
O70 O 0.06347 0.38737 0.23745 0.0
H71 H 0.13376 0.38746 0.41752 0.0
C72 C 0.06417 0.18533 0.13682 0.0
C73 C 0.08124 0.2291 0.01443 0.0
C74 C 1.0429 0.2095 0.28223 0.0
C75 C 1.04643 0.27637 0.31641 0.0
C76 C 0.06773 0.32166 0.20282 0.0
C77 C 0.08348 0.29813 0.04796 0.0
H78 H 0.5017 0.06279 0.11528 0.0
H79 H 0.34229 1.03692 0.43658 0.0
H80 H 0.30121 0.09492 -0.04585 0.0
H81 H 0.16856 0.11632 0.33208 0.0
C82 C 0.21636 0.09539 0.37047 0.0
O83 O 0.24708 0.06602 0.23917 0.0
H84 H 0.24634 0.1372 0.41692 0.0
C85 C 0.44909 0.06721 0.1382 0.0
C86 C 0.40527 0.08395 0.01573 0.0
C87 C 0.42499 1.04617 0.2838 0.0
C88 C 0.35817 1.04978 0.31822 0.0
C89 C 0.31277 0.07063 0.20444 0.0
C90 C 0.33622 0.08605 0.04928 0.0
H91 H 0.57114 0.50365 0.1154 0.0
H92 H 0.59779 0.34391 0.4357 0.0
H93 H 0.53918 0.30324 -0.04647 0.0
H94 H 0.51873 0.17056 0.33069 0.0
C95 C 0.53936 0.21834 0.37015 0.0
O96 O 0.56824 0.24894 0.2381 0.0
H97 H 0.498 0.24848 0.41827 0.0
C98 C 0.56683 0.45102 0.13812 0.0
C99 C 0.55014 0.40726 0.01547 0.0
C100 C 0.58805 0.42683 0.28352 0.0
C101 C 0.58468 0.35996 0.31756 0.0
C102 C 0.56369 0.31465 0.20369 0.0
C103 C 0.54809 0.3382 0.04876 0.0
O104 O 0.0937 0.14339 0.82423 0.0
Mn105 Mn 0.06539 0.06846 0.66604 0.0
O106 O 1.02123 0.22558 0.78123 0.0
Mn107 Mn 0.9558 0.1751 0.68253 0.0
O108 O 1.03731 0.99327 0.50817 0.0
O109 O 0.15921 1.04637 0.60891 0.0
Mn110 Mn 0.17558 0.96209 0.65035 0.0
O111 O 0.06625 1.00297 0.85173 0.0
O112 O 0.11077 0.91159 0.54936 0.0
O113 O 0.06441 0.134 0.48011 0.0
O114 O 0.96268 0.17699 0.46404 0.0
O115 O 0.24067 0.99212 0.51216 0.0
O116 O 0.16804 0.96028 0.86872 0.0
C117 C 0.92672 0.09291 0.83289 0.0
C118 C 0.07143 0.20203 0.85275 0.0
C119 C 0.06008 0.93481 0.47903 0.0
C120 C 0.20577 1.04537 0.50339 0.0
C121 C 0.11096 0.97143 -0.07331 0.0
C122 C 1.01966 0.1657 0.40552 0.0
O123 O 0.97139 0.09043 0.72268 0.0
O124 O 0.89183 0.14619 0.82482 0.0
O125 O 0.63153 0.06935 0.85317 0.0
Mn126 Mn 0.56601 0.06832 0.66726 0.0
O127 O 0.67431 0.17117 0.86929 0.0
Mn128 Mn 0.67258 0.178 0.65079 0.0
O129 O 0.5005 0.06745 0.4816 0.0
O130 O 0.54393 0.97447 0.72442 0.0
Mn131 Mn 0.45962 0.95812 0.68314 0.0
O132 O 0.49084 0.0964 0.82513 0.0
O133 O 0.45759 0.96572 0.46477 0.0
O134 O 0.64096 1.04007 0.50904 0.0
O135 O 0.72311 0.11257 0.55225 0.0
O136 O 0.4897 0.89301 0.82123 0.0
O137 O 0.40917 1.02289 0.78431 0.0
C138 C 0.59036 0.20696 0.50039 0.0
C139 C 0.66309 0.11419 -0.07215 0.0
C140 C 0.4688 1.0228 0.40679 0.0
C141 C 0.54295 0.92791 0.82995 0.0
C142 C 0.43239 0.07364 0.85437 0.0
C143 C 0.6996 0.06239 0.48057 0.0
O144 O 0.58794 0.16231 0.61061 0.0
O145 O 0.64361 0.2419 0.50838 0.0
O146 O 0.56507 0.63345 0.85282 0.0
Mn147 Mn 0.56601 0.56799 0.6669 0.0
O148 O 0.46327 0.67622 0.86928 0.0
Mn149 Mn 0.45636 0.67462 0.65077 0.0
O150 O 0.56683 0.50248 0.48119 0.0
O151 O 0.65983 0.54587 0.72405 0.0
Mn152 Mn 0.67615 0.46155 0.68298 0.0
O153 O 0.53786 0.49284 0.82478 0.0
O154 O 0.66848 0.45937 0.46465 0.0
O155 O 0.59427 0.643 0.50882 0.0
O156 O 0.52177 0.72515 0.55206 0.0
O157 O 0.74135 0.49171 0.82075 0.0
O158 O 0.61141 0.41118 0.78442 0.0
C159 C 0.42726 0.59242 0.50037 0.0
C160 C 0.52027 0.66495 -0.07229 0.0
C161 C 0.61143 0.47061 0.40661 0.0
C162 C 0.70646 0.54497 0.82941 0.0
C163 C 0.56061 0.43441 0.85421 0.0
C164 C 0.57195 0.70164 0.48038 0.0
O165 O 0.47204 0.59001 0.61029 0.0
O166 O 0.39233 0.64566 0.50864 0.0
O167 O 0.14138 0.53991 0.82459 0.0
Mn168 Mn 0.06623 0.56804 0.66669 0.0
O169 O 0.22303 0.61347 0.78409 0.0
Mn170 Mn 0.17262 0.67825 0.68287 0.0
O171 O 0.99125 0.59632 0.50859 0.0
O172 O 1.04422 0.47404 0.61004 0.0
Mn173 Mn 0.95957 0.45848 0.65062 0.0
O174 O 1.00077 0.56704 0.85262 0.0
O175 O 0.90902 0.52396 0.55226 0.0
O176 O 0.13174 0.56892 0.48097 0.0
O177 O 0.17475 0.67064 0.46451 0.0
O178 O 0.98831 0.39453 0.50813 0.0
O179 O 0.95809 0.46522 0.86914 0.0
C180 C 0.08922 0.70838 0.82953 0.0
C181 C 0.1998 0.56269 0.85399 0.0
C182 C 0.93258 0.57405 0.4803 0.0
C183 C 1.04162 0.42937 0.49986 0.0
C184 C 0.96936 0.52221 -0.07238 0.0
C185 C 0.16355 0.61358 0.40641 0.0
O186 O 0.08831 0.66187 0.72388 0.0
O187 O 0.14246 0.74333 0.821 0.0
loop_
_geom_bond_atom_site_label_1
_geom_bond_atom_site_label_2
_geom_bond_distance
_geom_bond_site_symmetry_2
_ccdc_geom_bond_type
H0 C7 0.929 . S
H1 C10 0.930 . S
H2 C12 0.929 . S
H3 C4 0.969 . S
C4 H3 0.969 . S
C4 O5 1.550 1_556 S
C4 H6 0.973 . S
O5 C4 1.550 1_554 S
O5 C11 1.412 . S
H6 C4 0.973 . S
C7 H0 0.929 . S
C7 C8 1.400 . S
C7 C9 1.364 1_554 S
C8 C7 1.400 . S
C8 C12 1.377 . S
C9 C7 1.364 1_556 S
C9 C10 1.374 . S
C10 H1 0.930 . S
C10 C9 1.374 . S
C10 C11 1.383 1_556 S
C11 O5 1.412 . S
C11 C10 1.383 1_554 S
C11 C12 1.394 . S
C12 H2 0.929 . S
C12 C8 1.377 . S
C12 C11 1.394 . S
H13 C20 0.929 . S
H14 C23 0.930 . S
H15 C25 0.929 . S
H16 C17 0.969 1_455 S
C17 H16 0.969 1_655 S
C17 O18 1.550 1_556 S
C17 H19 0.973 . S
O18 C17 1.550 1_554 S
O18 C24 1.412 . S
H19 C17 0.973 . S
C20 H13 0.929 . S
C20 C21 1.400 . S
C20 C22 1.364 1_554 S
C21 C20 1.400 . S
C21 C25 1.377 . S
C22 C20 1.364 1_556 S
C22 C23 1.374 . S
C23 H14 0.930 . S
C23 C22 1.374 . S
C23 C24 1.383 1_556 S
C24 O18 1.412 . S
C24 C23 1.383 1_554 S
C24 C25 1.394 . S
C25 H15 0.929 . S
C25 C21 1.377 . S
C25 C24 1.394 . S
H26 C33 0.929 . S
H27 C36 0.930 . S
H28 C38 0.929 . S
H29 C30 0.969 1_545 S
C30 H29 0.969 1_565 S
C30 O31 1.550 1_556 S
C30 H32 0.973 . S
O31 C30 1.550 1_554 S
O31 C37 1.412 . S
H32 C30 0.973 . S
C33 H26 0.929 . S
C33 C34 1.400 . S
C33 C35 1.364 1_554 S
C34 C33 1.400 . S
C34 C38 1.377 . S
C35 C33 1.364 1_556 S
C35 C36 1.374 . S
C36 H27 0.930 . S
C36 C35 1.374 . S
C36 C37 1.383 1_556 S
C37 O31 1.412 . S
C37 C36 1.383 1_554 S
C37 C38 1.394 . S
C38 H28 0.929 . S
C38 C34 1.377 . S
C38 C37 1.394 . S
H39 C46 0.929 . S
H40 C49 0.930 . S
H41 C51 0.929 . S
H42 C43 0.969 . S
C43 H42 0.969 . S
C43 O44 1.550 1_556 S
C43 H45 0.973 . S
O44 C43 1.550 1_554 S
O44 C50 1.412 . S
H45 C43 0.973 . S
C46 H39 0.929 . S
C46 C47 1.400 . S
C46 C48 1.364 1_554 S
C47 C46 1.400 . S
C47 C51 1.377 . S
C48 C46 1.364 1_556 S
C48 C49 1.374 . S
C49 H40 0.930 . S
C49 C48 1.374 . S
C49 C50 1.383 1_556 S
C50 O44 1.412 . S
C50 C49 1.383 1_554 S
C50 C51 1.394 . S
C51 H41 0.929 . S
C51 C47 1.377 . S
C51 C50 1.394 . S
H52 C59 0.929 . S
H53 C62 0.930 . S
H54 C64 0.929 . S
H55 C56 0.969 . S
C56 H55 0.969 . S
C56 O57 1.550 . S
C56 H58 0.973 . S
O57 C56 1.550 . S
O57 C63 1.412 . S
H58 C56 0.973 . S
C59 H52 0.929 . S
C59 C60 1.400 . S
C59 C61 1.364 . S
C60 C59 1.400 . S
C60 C64 1.377 . S
C61 C59 1.364 . S
C61 C62 1.374 . S
C62 H53 0.930 . S
C62 C61 1.374 . S
C62 C63 1.383 . S
C63 O57 1.412 . S
C63 C62 1.383 . S
C63 C64 1.394 . S
C64 H54 0.929 . S
C64 C60 1.377 . S
C64 C63 1.394 . S
H65 C72 0.929 . S
H66 C75 0.930 . S
H67 C77 0.929 . S
H68 C69 0.969 . S
C69 H68 0.969 . S
C69 O70 1.550 . S
C69 H71 0.973 . S
O70 C69 1.550 . S
O70 C76 1.412 . S
H71 C69 0.973 . S
C72 H65 0.929 . S
C72 C73 1.400 . S
C72 C74 1.364 . S
C73 C72 1.400 . S
C73 C77 1.377 . S
C74 C72 1.364 . S
C74 C75 1.374 . S
C75 H66 0.930 . S
C75 C74 1.374 . S
C75 C76 1.383 . S
C76 O70 1.412 . S
C76 C75 1.383 . S
C76 C77 1.394 . S
C77 H67 0.929 . S
C77 C73 1.377 . S
C77 C76 1.394 . S
H78 C85 0.929 . S
H79 C88 0.930 . S
H80 C90 0.929 . S
H81 C82 0.969 . S
C82 H81 0.969 . S
C82 O83 1.550 . S
C82 H84 0.973 . S
O83 C82 1.550 . S
O83 C89 1.412 . S
H84 C82 0.973 . S
C85 H78 0.929 . S
C85 C86 1.400 . S
C85 C87 1.364 . S
C86 C85 1.400 . S
C86 C90 1.377 . S
C87 C85 1.364 . S
C87 C88 1.374 . S
C88 H79 0.930 . S
C88 C87 1.374 . S
C88 C89 1.383 . S
C89 O83 1.412 . S
C89 C88 1.383 . S
C89 C90 1.394 . S
C90 H80 0.929 . S
C90 C86 1.377 . S
C90 C89 1.394 . S
H91 C98 0.929 . S
H92 C101 0.930 . S
H93 C103 0.929 . S
H94 C95 0.969 . S
C95 H94 0.969 . S
C95 O96 1.550 . S
C95 H97 0.973 . S
O96 C95 1.550 . S
O96 C102 1.412 . S
H97 C95 0.973 . S
C98 H91 0.929 . S
C98 C99 1.400 . S
C98 C100 1.364 . S
C99 C98 1.400 . S
C99 C103 1.377 . S
C100 C98 1.364 . S
C100 C101 1.374 . S
C101 H92 0.930 . S
C101 C100 1.374 . S
C101 C102 1.383 . S
C102 O96 1.412 . S
C102 C101 1.383 . S
C102 C103 1.394 . S
C103 H93 0.929 . S
C103 C99 1.377 . S
C103 C102 1.394 . S
O104 Mn105 2.163 . S
O104 C118 1.244 1_556 S
Mn105 O104 2.163 . S
Mn105 O108 2.160 1_445 S
Mn105 O109 2.221 1_545 S
Mn105 O111 2.163 1_445 S
Mn105 O113 2.160 . S
Mn105 O123 2.221 1_455 S
O106 Mn107 2.087 1_554 S
O106 C118 1.256 1_655 S
Mn107 O106 2.087 1_556 S
Mn107 O114 2.089 . S
Mn107 O123 2.290 . S
Mn107 O124 2.251 1_556 S
O108 Mn105 2.160 1_665 S
O108 C119 1.239 . S
O109 Mn105 2.221 1_565 S
O109 Mn110 2.290 . S
O109 C120 1.278 . S
Mn110 O109 2.290 . S
Mn110 O112 2.089 . S
Mn110 O115 2.251 . S
Mn110 O116 2.087 . S
O111 Mn105 2.163 1_665 S
O111 C121 1.244 1_655 S
O112 Mn110 2.089 . S
O112 C119 1.256 1_455 S
O113 Mn105 2.160 . S
O113 C122 1.239 1_455 S
O114 Mn107 2.089 . S
O114 C122 1.256 . S
O115 Mn110 2.251 . S
O115 C120 1.241 . S
O116 Mn110 2.087 . S
O116 C121 1.256 . S
C117 O123 1.278 . S
C117 O124 1.241 1_556 S
C118 O104 1.244 1_554 S
C118 O106 1.256 1_455 S
C119 O108 1.239 . S
C119 O112 1.256 1_655 S
C120 O109 1.278 . S
C120 O115 1.241 . S
C121 O111 1.244 1_455 S
C121 O116 1.256 . S
C122 O113 1.239 1_655 S
C122 O114 1.256 . S
O123 Mn105 2.221 1_655 S
O123 Mn107 2.290 . S
O123 C117 1.278 . S
O124 Mn107 2.251 1_554 S
O124 C117 1.241 1_554 S
O125 Mn126 2.163 1_565 S
O125 C139 1.244 1_565 S
Mn126 O125 2.163 1_545 S
Mn126 O129 2.160 . S
Mn126 O130 2.221 1_545 S
Mn126 O132 2.163 . S
Mn126 O134 2.160 1_545 S
Mn126 O144 2.221 . S
O127 Mn128 2.087 . S
O127 C139 1.256 . S
Mn128 O127 2.087 . S
Mn128 O135 2.089 . S
Mn128 O144 2.290 . S
Mn128 O145 2.251 . S
O129 Mn126 2.160 . S
O129 C140 1.239 1_545 S
O130 Mn126 2.221 1_565 S
O130 Mn131 2.290 . S
O130 C141 1.278 . S
Mn131 O130 2.290 . S
Mn131 O133 2.089 . S
Mn131 O136 2.251 1_556 S
Mn131 O137 2.087 1_556 S
O132 Mn126 2.163 . S
O132 C142 1.244 1_556 S
O133 Mn131 2.089 . S
O133 C140 1.256 . S
O134 Mn126 2.160 1_565 S
O134 C143 1.239 . S
O135 Mn128 2.089 . S
O135 C143 1.256 1_545 S
O136 Mn131 2.251 1_554 S
O136 C141 1.241 1_554 S
O137 Mn131 2.087 1_554 S
O137 C142 1.256 1_565 S
C138 O144 1.278 . S
C138 O145 1.241 . S
C139 O125 1.244 1_545 S
C139 O127 1.256 . S
C140 O129 1.239 1_565 S
C140 O133 1.256 . S
C141 O130 1.278 . S
C141 O136 1.241 1_556 S
C142 O132 1.244 1_554 S
C142 O137 1.256 1_545 S
C143 O134 1.239 . S
C143 O135 1.256 1_565 S
O144 Mn126 2.221 . S
O144 Mn128 2.290 . S
O144 C138 1.278 . S
O145 Mn128 2.251 . S
O145 C138 1.241 . S
O146 Mn147 2.163 . S
O146 C160 1.244 . S
Mn147 O146 2.163 . S
Mn147 O150 2.160 . S
Mn147 O151 2.221 . S
Mn147 O153 2.163 . S
Mn147 O155 2.160 . S
Mn147 O165 2.221 . S
O148 Mn149 2.087 . S
O148 C160 1.256 . S
Mn149 O148 2.087 . S
Mn149 O156 2.089 . S
Mn149 O165 2.290 . S
Mn149 O166 2.251 . S
O150 Mn147 2.160 . S
O150 C161 1.239 . S
O151 Mn147 2.221 . S
O151 Mn152 2.290 . S
O151 C162 1.278 . S
Mn152 O151 2.290 . S
Mn152 O154 2.089 . S
Mn152 O157 2.251 1_556 S
Mn152 O158 2.087 1_556 S
O153 Mn147 2.163 . S
O153 C163 1.244 1_556 S
O154 Mn152 2.089 . S
O154 C161 1.256 . S
O155 Mn147 2.160 . S
O155 C164 1.239 . S
O156 Mn149 2.089 . S
O156 C164 1.256 . S
O157 Mn152 2.251 1_554 S
O157 C162 1.241 1_554 S
O158 Mn152 2.087 1_554 S
O158 C163 1.256 . S
C159 O165 1.278 . S
C159 O166 1.241 . S
C160 O146 1.244 . S
C160 O148 1.256 . S
C161 O150 1.239 . S
C161 O154 1.256 . S
C162 O151 1.278 . S
C162 O157 1.241 1_556 S
C163 O153 1.244 1_554 S
C163 O158 1.256 . S
C164 O155 1.239 . S
C164 O156 1.256 . S
O165 Mn147 2.221 . S
O165 Mn149 2.290 . S
O165 C159 1.278 . S
O166 Mn149 2.251 . S
O166 C159 1.241 . S
O167 Mn168 2.163 . S
O167 C181 1.244 1_556 S
Mn168 O167 2.163 . S
Mn168 O171 2.160 1_455 S
Mn168 O172 2.221 1_455 S
Mn168 O174 2.163 1_455 S
Mn168 O176 2.160 . S
Mn168 O186 2.221 . S
O169 Mn170 2.087 1_554 S
O169 C181 1.256 . S
Mn170 O169 2.087 1_556 S
Mn170 O177 2.089 . S
Mn170 O186 2.290 . S
Mn170 O187 2.251 1_556 S
O171 Mn168 2.160 1_655 S
O171 C182 1.239 . S
O172 Mn168 2.221 1_655 S
O172 Mn173 2.290 . S
O172 C183 1.278 . S
Mn173 O172 2.290 . S
Mn173 O175 2.089 . S
Mn173 O178 2.251 . S
Mn173 O179 2.087 . S
O174 Mn168 2.163 1_655 S
O174 C184 1.244 . S
O175 Mn173 2.089 . S
O175 C182 1.256 . S
O176 Mn168 2.160 . S
O176 C185 1.239 . S
O177 Mn170 2.089 . S
O177 C185 1.256 . S
O178 Mn173 2.251 . S
O178 C183 1.241 . S
O179 Mn173 2.087 . S
O179 C184 1.256 . S
C180 O186 1.278 . S
C180 O187 1.241 1_556 S
C181 O167 1.244 1_554 S
C181 O169 1.256 . S
C182 O171 1.239 . S
C182 O175 1.256 . S
C183 O172 1.278 . S
C183 O178 1.241 . S
C184 O174 1.244 . S
C184 O179 1.256 . S
C185 O176 1.239 . S
C185 O177 1.256 . S
O186 Mn168 2.221 . S
O186 Mn170 2.290 . S
O186 C180 1.278 . S
O187 Mn170 2.251 1_554 S
O187 C180 1.241 1_554 S
C82 C120 1.973 1_545 S
C138 C95 1.975 . S
C159 C56 1.974 . S
C183 C69 1.975 1_655 S
C117 C30 1.328 1_545 S
C43 C141 1.330 . S
C4 C162 1.328 . S
C17 C180 1.330 1_655 S
C122 C74 1.266 1_655 S
C140 C87 1.266 1_565 S
C161 C100 1.267 . S
C61 C185 1.266 . S
C22 C121 1.306 1_655 S
C139 C35 1.305 1_545 S
C160 C48 1.306 . S
C9 C184 1.305 . S
C73 C118 1.584 . S
C86 C142 1.584 . S
C163 C99 1.584 . S
C181 C60 1.584 . S
C21 C119 1.372 . S
C143 C34 1.371 . S
C164 C47 1.372 . S
C8 C182 1.371 . S
