# Generated by pormake.
# Topology cml, (3,6)-cn, num edge types: 1
# Building blocks:
#     Node 0, Type 0, BuildingBlock: INOVEN_clean_linker_0, # of connection points: 3
#     Node 1, Type 0, BuildingBlock: INOVEN_clean_linker_0, # of connection points: 3
#     Node 2, Type 0, BuildingBlock: INOVEN_clean_linker_0, # of connection points: 3
#     Node 3, Type 0, BuildingBlock: INOVEN_clean_linker_0, # of connection points: 3
#     Node 4, Type 0, BuildingBlock: INOVEN_clean_linker_0, # of connection points: 3
#     Node 5, Type 0, BuildingBlock: INOVEN_clean_linker_0, # of connection points: 3
#     Node 6, Type 0, BuildingBlock: INOVEN_clean_linker_0, # of connection points: 3
#     Node 7, Type 0, BuildingBlock: INOVEN_clean_linker_0, # of connection points: 3
#     Node 8, Type 1, BuildingBlock: IZENUY_clean_sbu_0, # of connection points: 6
#     Node 9, Type 1, BuildingBlock: IZENUY_clean_sbu_0, # of connection points: 6
#     Node 10, Type 1, BuildingBlock: IZENUY_clean_sbu_0, # of connection points: 6
#     Node 11, Type 1, BuildingBlock: IZENUY_clean_sbu_0, # of connection points: 6
#     Edge 12, Type (0, 1), None
#     Edge 13, Type (0, 1), None
#     Edge 14, Type (0, 1), None
#     Edge 15, Type (0, 1), None
#     Edge 16, Type (0, 1), None
#     Edge 17, Type (0, 1), None
#     Edge 18, Type (0, 1), None
#     Edge 19, Type (0, 1), None
#     Edge 20, Type (0, 1), None
#     Edge 21, Type (0, 1), None
#     Edge 22, Type (0, 1), None
#     Edge 23, Type (0, 1), None
#     Edge 24, Type (0, 1), None
#     Edge 25, Type (0, 1), None
#     Edge 26, Type (0, 1), None
#     Edge 27, Type (0, 1), None
#     Edge 28, Type (0, 1), None
#     Edge 29, Type (0, 1), None
#     Edge 30, Type (0, 1), None
#     Edge 31, Type (0, 1), None
#     Edge 32, Type (0, 1), None
#     Edge 33, Type (0, 1), None
#     Edge 34, Type (0, 1), None
#     Edge 35, Type (0, 1), None
# Relax obj value: 0.006
# Max RMSD: 0.053
# Mean RMSD: 0.046
data_MOF--net-cml--node1-IZENUY_clean_sbu_0--node2-INOVEN_clean_linker_0--edge1-none
_symmetry_space_group_name_H-M    P1
_symmetry_Int_Tables_number       1
_symmetry_cell_setting            triclinic
loop_
_symmetry_equiv_pos_as_xyz
'x, y, z'
_cell_length_a     16.052323
_cell_length_b     18.235042
_cell_length_c     16.275034
_cell_angle_alpha  88.202372
_cell_angle_beta   91.935025
_cell_angle_gamma 91.720236
loop_
_atom_site_label
_atom_site_type_symbol
_atom_site_fract_x
_atom_site_fract_y
_atom_site_fract_z
_atom_type_partial_charge
H0 H 0.3241 0.31735 0.12551 0.0
H1 H 0.46742 0.51805 0.0917 0.0
H2 H 0.30124 0.44304 0.89744 0.0
N3 N 0.24013 0.32323 0.98378 0.0
N4 N 0.19801 0.33077 0.91835 0.0
C5 C 0.33978 0.36586 0.08834 0.0
C6 C 0.39848 0.41761 0.11834 0.0
C7 C 0.30134 0.37616 0.01025 0.0
C8 C 0.32605 0.43702 0.95995 0.0
C9 C 0.38534 0.48888 0.98981 0.0
C10 C 0.41893 0.47995 0.06991 0.0
H11 H 0.77566 0.72331 0.62586 0.0
H12 H 0.59293 0.55378 0.57405 0.0
H13 H 0.78254 0.60232 0.40105 0.0
N14 N 0.85735 0.71293 0.48733 0.0
N15 N 0.8855 0.71216 0.41682 0.0
C16 C 0.75007 0.68112 0.5861 0.0
C17 C 0.68068 0.63805 0.61022 0.0
C18 C 0.78699 0.6689 0.51017 0.0
C19 C 0.75411 0.61305 0.45871 0.0
C20 C 0.6854 0.56991 0.48346 0.0
C21 C 0.64882 0.5846 0.55739 0.0
H22 H 0.77523 0.32699 0.12187 0.0
H23 H 0.63894 0.52493 0.09303 0.0
H24 H 0.75766 0.44011 0.88465 0.0
N25 N 0.83663 0.32911 0.9742 0.0
N26 N 0.85422 0.32108 0.90077 0.0
C27 C 0.75371 0.37289 0.08378 0.0
C28 C 0.70168 0.42414 0.11687 0.0
C29 C 0.77759 0.37977 0.00107 0.0
C30 C 0.74369 0.43665 0.9493 0.0
C31 C 0.69178 0.48914 0.9825 0.0
C32 C 0.67704 0.48419 0.06695 0.0
H33 H 0.30813 0.55731 0.38189 0.0
H34 H 0.45611 0.50004 0.5978 0.0
H35 H 0.30743 0.69216 0.59397 0.0
N36 N 0.2422 0.67293 0.4389 0.0
N37 N 0.23208 0.73672 0.46004 0.0
C38 C 0.3262 0.56622 0.44573 0.0
C39 C 0.38408 0.5212 0.4859 0.0
C40 C 0.2973 0.6269 0.48434 0.0
C41 C 0.32665 0.64304 0.5649 0.0
C42 C 0.38224 0.59617 0.60742 0.0
C43 C 0.40873 0.53379 0.56805 0.0
H44 H 0.8241 0.81735 0.12551 0.0
H45 H 0.96742 0.01805 0.0917 0.0
H46 H 0.80124 0.94304 0.89744 0.0
N47 N 0.74013 0.82323 0.98378 0.0
N48 N 0.69801 0.83077 0.91835 0.0
C49 C 0.83978 0.86586 0.08834 0.0
C50 C 0.89848 0.91761 0.11834 0.0
C51 C 0.80134 0.87616 0.01025 0.0
C52 C 0.82605 0.93702 0.95995 0.0
C53 C 0.88534 0.98888 0.98981 0.0
C54 C 0.91893 0.97995 0.06991 0.0
H55 H 0.27566 0.22331 0.62586 0.0
H56 H 0.09293 0.05378 0.57405 0.0
H57 H 0.28254 0.10232 0.40105 0.0
N58 N 0.35735 0.21293 0.48733 0.0
N59 N 0.3855 0.21216 0.41682 0.0
C60 C 0.25007 0.18112 0.5861 0.0
C61 C 0.18068 0.13805 0.61022 0.0
C62 C 0.28699 0.1689 0.51017 0.0
C63 C 0.25411 0.11305 0.45871 0.0
C64 C 0.1854 0.06991 0.48346 0.0
C65 C 0.14882 0.0846 0.55739 0.0
H66 H 0.27523 0.82699 0.12187 0.0
H67 H 0.13894 0.02493 0.09303 0.0
H68 H 0.25766 0.94011 0.88465 0.0
N69 N 0.33663 0.82911 0.9742 0.0
N70 N 0.35422 0.82108 0.90077 0.0
C71 C 0.25371 0.87289 0.08378 0.0
C72 C 0.20168 0.92414 0.11687 0.0
C73 C 0.27759 0.87977 0.00107 0.0
C74 C 0.24369 0.93665 0.9493 0.0
C75 C 0.19178 0.98914 0.9825 0.0
C76 C 0.17704 0.98419 0.06695 0.0
H77 H 0.80813 0.05731 0.38189 0.0
H78 H 0.95611 1.00004 0.5978 0.0
H79 H 0.80743 0.19216 0.59397 0.0
N80 N 0.7422 0.17293 0.4389 0.0
N81 N 0.73208 0.23672 0.46004 0.0
C82 C 0.8262 0.06622 0.44573 0.0
C83 C 0.88408 0.0212 0.4859 0.0
C84 C 0.7973 0.1269 0.48434 0.0
C85 C 0.82665 0.14304 0.5649 0.0
C86 C 0.88224 0.09617 0.60742 0.0
C87 C 0.90873 0.03379 0.56805 0.0
Fe88 Fe 0.06425 0.81282 0.28169 0.0
Fe89 Fe 0.05351 0.87485 0.45436 0.0
O90 O 0.05538 0.88893 0.34635 0.0
Fe91 Fe 0.04761 0.97902 0.30409 0.0
O92 O 0.95347 0.95431 0.24593 0.0
O93 O 0.9983 0.85175 0.19726 0.0
O94 O 0.96959 0.76989 0.32099 0.0
C95 C 0.95504 0.75727 0.39563 0.0
C96 C 0.16116 0.91318 0.19788 0.0
O97 O 1.00181 0.78414 0.45162 0.0
C98 C 0.14795 1.0084 0.43663 0.0
O99 O 0.13144 0.76104 0.35665 0.0
O100 O 0.15545 0.83831 0.45636 0.0
O101 O 0.11187 0.96235 0.21705 0.0
O102 O 0.15883 0.85089 0.23449 0.0
C103 C 0.93564 0.97674 0.43607 0.0
O104 O 0.10408 0.96231 0.47704 0.0
O105 O 0.1418 1.01168 0.35924 0.0
C106 C 0.17383 0.78232 0.4195 0.0
O107 O 0.95127 0.91238 0.46032 0.0
O108 O 0.98057 1.0107 0.38395 0.0
C109 C 0.94734 0.90369 0.19489 0.0
Fe110 Fe 1.03075 0.1643 0.94384 0.0
Fe111 Fe 0.03566 0.05991 0.80004 0.0
O112 O 1.03116 0.15083 0.83641 0.0
Fe113 Fe 1.02682 0.2281 0.76596 0.0
O114 O 0.08921 0.28998 0.83295 0.0
O115 O 0.12577 0.22033 0.94046 0.0
O116 O 0.09578 0.08567 0.97102 0.0
C117 C 0.14276 0.04474 0.93264 0.0
C118 C 0.91711 0.27133 0.88075 0.0
O119 O 0.13389 0.04058 0.85576 0.0
C120 C 0.92538 0.11811 0.68512 0.0
O121 O 0.93581 0.10833 0.95562 0.0
O122 O 0.97437 0.01678 0.88228 0.0
O123 O 0.92886 0.25811 0.80637 0.0
O124 O 0.96506 0.24562 0.93733 0.0
C125 C 0.1372 0.14409 0.6886 0.0
O126 O 0.93893 0.06926 0.74017 0.0
O127 O 0.96477 0.17946 0.68602 0.0
C128 C 0.92716 0.04241 0.93427 0.0
O129 O 0.09669 0.08722 0.71229 0.0
O130 O 0.12417 0.20576 0.71806 0.0
C131 C 0.13654 0.27713 0.89529 0.0
Fe132 Fe 0.56425 0.31282 0.28169 0.0
Fe133 Fe 0.55351 0.37485 0.45436 0.0
O134 O 0.55538 0.38893 0.34635 0.0
Fe135 Fe 0.54761 0.47902 0.30409 0.0
O136 O 0.45347 0.45431 0.24593 0.0
O137 O 0.4983 0.35175 0.19726 0.0
O138 O 0.46959 0.26989 0.32099 0.0
C139 C 0.45504 0.25727 0.39563 0.0
C140 C 0.66116 0.41318 0.19788 0.0
O141 O 0.50181 0.28414 0.45162 0.0
C142 C 0.64795 0.5084 0.43663 0.0
O143 O 0.63144 0.26104 0.35665 0.0
O144 O 0.65545 0.33831 0.45636 0.0
O145 O 0.61187 0.46235 0.21705 0.0
O146 O 0.65883 0.35089 0.23449 0.0
C147 C 0.43564 0.47674 0.43607 0.0
O148 O 0.60408 0.46231 0.47704 0.0
O149 O 0.6418 0.51168 0.35924 0.0
C150 C 0.67383 0.28232 0.4195 0.0
O151 O 0.45127 0.41238 0.46032 0.0
O152 O 0.48057 0.5107 0.38395 0.0
C153 C 0.44734 0.40369 0.19489 0.0
Fe154 Fe 0.53075 0.6643 0.94384 0.0
Fe155 Fe 0.53566 0.55991 0.80004 0.0
O156 O 0.53116 0.65083 0.83641 0.0
Fe157 Fe 0.52682 0.7281 0.76596 0.0
O158 O 0.58921 0.78998 0.83295 0.0
O159 O 0.62577 0.72033 0.94046 0.0
O160 O 0.59578 0.58567 0.97102 0.0
C161 C 0.64276 0.54474 0.93264 0.0
C162 C 0.41711 0.77133 0.88075 0.0
O163 O 0.63389 0.54058 0.85576 0.0
C164 C 0.42538 0.61811 0.68512 0.0
O165 O 0.43581 0.60833 0.95562 0.0
O166 O 0.47437 0.51678 0.88228 0.0
O167 O 0.42886 0.75811 0.80637 0.0
O168 O 0.46506 0.74562 0.93733 0.0
C169 C 0.6372 0.64409 0.6886 0.0
O170 O 0.43893 0.56926 0.74017 0.0
O171 O 0.46477 0.67946 0.68602 0.0
C172 C 0.42716 0.54241 0.93427 0.0
O173 O 0.59669 0.58722 0.71229 0.0
O174 O 0.62417 0.70576 0.71806 0.0
C175 C 0.63654 0.77713 0.89529 0.0
loop_
_geom_bond_atom_site_label_1
_geom_bond_atom_site_label_2
_geom_bond_distance
_geom_bond_site_symmetry_2
_ccdc_geom_bond_type
H0 C5 0.929 . S
H1 C10 0.931 . S
H2 C8 0.930 . S
N3 N4 1.234 . S
N3 C7 1.453 1_556 S
N4 N3 1.234 . S
C5 H0 0.929 . S
C5 C6 1.373 . S
C5 C7 1.368 . S
C6 C5 1.373 . S
C6 C10 1.397 . S
C7 N3 1.453 1_554 S
C7 C5 1.368 . S
C7 C8 1.373 1_554 S
C8 H2 0.930 . S
C8 C7 1.373 1_556 S
C8 C9 1.371 . S
C9 C8 1.371 . S
C9 C10 1.383 1_556 S
C10 H1 0.931 . S
C10 C6 1.397 . S
C10 C9 1.383 1_554 S
H11 C16 0.929 . S
H12 C21 0.931 . S
H13 C19 0.930 . S
N14 N15 1.234 . S
N14 C18 1.453 . S
N15 N14 1.234 . S
C16 H11 0.929 . S
C16 C17 1.373 . S
C16 C18 1.368 . S
C17 C16 1.373 . S
C17 C21 1.397 . S
C18 N14 1.453 . S
C18 C16 1.368 . S
C18 C19 1.373 . S
C19 H13 0.930 . S
C19 C18 1.373 . S
C19 C20 1.371 . S
C20 C19 1.371 . S
C20 C21 1.383 . S
C21 H12 0.931 . S
C21 C17 1.397 . S
C21 C20 1.383 . S
H22 C27 0.929 . S
H23 C32 0.931 . S
H24 C30 0.930 . S
N25 N26 1.234 1_554 S
N25 C29 1.453 . S
N26 N25 1.234 1_556 S
C27 H22 0.929 . S
C27 C28 1.373 . S
C27 C29 1.368 . S
C28 C27 1.373 . S
C28 C32 1.397 . S
C29 N25 1.453 . S
C29 C27 1.368 . S
C29 C30 1.373 1_554 S
C30 H24 0.930 . S
C30 C29 1.373 1_556 S
C30 C31 1.371 . S
C31 C30 1.371 . S
C31 C32 1.383 1_556 S
C32 H23 0.931 . S
C32 C28 1.397 . S
C32 C31 1.383 1_554 S
H33 C38 0.929 . S
H34 C43 0.931 . S
H35 C41 0.930 . S
N36 N37 1.234 . S
N36 C40 1.453 . S
N37 N36 1.234 . S
C38 H33 0.929 . S
C38 C39 1.373 . S
C38 C40 1.368 . S
C39 C38 1.373 . S
C39 C43 1.397 . S
C40 N36 1.453 . S
C40 C38 1.368 . S
C40 C41 1.373 . S
C41 H35 0.930 . S
C41 C40 1.373 . S
C41 C42 1.371 . S
C42 C41 1.371 . S
C42 C43 1.383 . S
C43 H34 0.931 . S
C43 C39 1.397 . S
C43 C42 1.383 . S
H44 C49 0.929 . S
H45 C54 0.931 . S
H46 C52 0.930 . S
N47 N48 1.234 . S
N47 C51 1.453 1_556 S
N48 N47 1.234 . S
C49 H44 0.929 . S
C49 C50 1.373 . S
C49 C51 1.368 . S
C50 C49 1.373 . S
C50 C54 1.397 . S
C51 N47 1.453 1_554 S
C51 C49 1.368 . S
C51 C52 1.373 1_554 S
C52 H46 0.930 . S
C52 C51 1.373 1_556 S
C52 C53 1.371 . S
C53 C52 1.371 . S
C53 C54 1.383 1_556 S
C54 H45 0.931 . S
C54 C50 1.397 . S
C54 C53 1.383 1_554 S
H55 C60 0.929 . S
H56 C65 0.931 . S
H57 C63 0.930 . S
N58 N59 1.234 . S
N58 C62 1.453 . S
N59 N58 1.234 . S
C60 H55 0.929 . S
C60 C61 1.373 . S
C60 C62 1.368 . S
C61 C60 1.373 . S
C61 C65 1.397 . S
C62 N58 1.453 . S
C62 C60 1.368 . S
C62 C63 1.373 . S
C63 H57 0.930 . S
C63 C62 1.373 . S
C63 C64 1.371 . S
C64 C63 1.371 . S
C64 C65 1.383 . S
C65 H56 0.931 . S
C65 C61 1.397 . S
C65 C64 1.383 . S
H66 C71 0.929 . S
H67 C76 0.931 . S
H68 C74 0.930 . S
N69 N70 1.234 1_554 S
N69 C73 1.453 . S
N70 N69 1.234 1_556 S
C71 H66 0.929 . S
C71 C72 1.373 . S
C71 C73 1.368 . S
C72 C71 1.373 . S
C72 C76 1.397 . S
C73 N69 1.453 . S
C73 C71 1.368 . S
C73 C74 1.373 1_554 S
C74 H68 0.930 . S
C74 C73 1.373 1_556 S
C74 C75 1.371 . S
C75 C74 1.371 . S
C75 C76 1.383 1_556 S
C76 H67 0.931 . S
C76 C72 1.397 . S
C76 C75 1.383 1_554 S
H77 C82 0.929 . S
H78 C87 0.931 . S
H79 C85 0.930 . S
N80 N81 1.234 . S
N80 C84 1.453 . S
N81 N80 1.234 . S
C82 H77 0.929 . S
C82 C83 1.373 . S
C82 C84 1.368 . S
C83 C82 1.373 . S
C83 C87 1.397 . S
C84 N80 1.453 . S
C84 C82 1.368 . S
C84 C85 1.373 . S
C85 H79 0.930 . S
C85 C84 1.373 . S
C85 C86 1.371 . S
C86 C85 1.371 . S
C86 C87 1.383 . S
C87 H78 0.931 . S
C87 C83 1.397 . S
C87 C86 1.383 . S
Fe88 O90 1.918 . S
Fe88 O93 1.997 1_455 S
Fe88 O94 2.002 1_455 S
Fe88 O99 1.976 . S
Fe88 O102 1.996 . S
Fe89 O90 1.918 . S
Fe89 O97 1.997 1_455 S
Fe89 O100 1.996 . S
Fe89 O104 1.976 . S
Fe89 O107 2.002 1_455 S
O90 Fe88 1.918 . S
O90 Fe89 1.918 . S
O90 Fe91 1.918 . S
Fe91 O90 1.918 . S
Fe91 O92 2.002 1_455 S
Fe91 O101 1.976 . S
Fe91 O105 1.996 1_565 S
Fe91 O108 1.997 1_465 S
O92 Fe91 2.002 1_655 S
O92 C109 1.295 . S
O93 Fe88 1.997 1_655 S
O93 C109 1.235 . S
O94 Fe88 2.002 1_655 S
O94 C95 1.295 . S
C95 O94 1.295 . S
C95 O97 1.235 . S
C96 O101 1.287 . S
C96 O102 1.255 . S
O97 Fe89 1.997 1_655 S
O97 C95 1.235 . S
C98 O104 1.287 1_545 S
C98 O105 1.255 . S
O99 Fe88 1.976 . S
O99 C106 1.287 . S
O100 Fe89 1.996 . S
O100 C106 1.255 . S
O101 Fe91 1.976 . S
O101 C96 1.287 . S
O102 Fe88 1.996 . S
O102 C96 1.255 . S
C103 O107 1.294 1_545 S
C103 O108 1.236 . S
O104 Fe89 1.976 . S
O104 C98 1.287 1_565 S
O105 Fe91 1.996 1_545 S
O105 C98 1.255 . S
C106 O99 1.287 . S
C106 O100 1.255 . S
O107 Fe89 2.002 1_655 S
O107 C103 1.294 1_565 S
O108 Fe91 1.997 1_645 S
O108 C103 1.236 . S
C109 O92 1.295 . S
C109 O93 1.235 . S
Fe110 O112 1.918 . S
Fe110 O115 1.990 1_655 S
Fe110 O116 1.995 1_655 S
Fe110 O121 1.983 . S
Fe110 O124 2.003 . S
Fe111 O112 1.918 . S
Fe111 O119 1.997 1_645 S
Fe111 O122 1.996 1_545 S
Fe111 O126 1.976 . S
Fe111 O129 2.002 1_655 S
O112 Fe110 1.918 . S
O112 Fe111 1.918 . S
O112 Fe113 1.918 . S
Fe113 O112 1.918 . S
Fe113 O114 2.002 1_655 S
Fe113 O123 1.976 . S
Fe113 O127 1.996 . S
Fe113 O130 1.997 1_655 S
O114 Fe113 2.002 1_455 S
O114 C131 1.295 . S
O115 Fe110 1.990 1_455 S
O115 C131 1.235 . S
O116 Fe110 1.995 1_455 S
O116 C117 1.295 . S
C117 O116 1.295 . S
C117 O119 1.235 1_545 S
C118 O123 1.287 . S
C118 O124 1.255 . S
O119 Fe111 1.997 1_465 S
O119 C117 1.235 1_565 S
C120 O126 1.287 . S
C120 O127 1.255 . S
O121 Fe110 1.983 . S
O121 C128 1.287 1_545 S
O122 Fe111 1.996 1_565 S
O122 C128 1.255 . S
O123 Fe113 1.976 . S
O123 C118 1.287 . S
O124 Fe110 2.003 . S
O124 C118 1.255 . S
C125 O129 1.295 . S
C125 O130 1.235 . S
O126 Fe111 1.976 . S
O126 C120 1.287 . S
O127 Fe113 1.996 . S
O127 C120 1.255 . S
C128 O121 1.287 1_565 S
C128 O122 1.255 . S
O129 Fe111 2.002 1_455 S
O129 C125 1.295 . S
O130 Fe113 1.997 1_455 S
O130 C125 1.235 . S
C131 O114 1.295 . S
C131 O115 1.235 . S
Fe132 O134 1.918 . S
Fe132 O137 1.997 . S
Fe132 O138 2.002 . S
Fe132 O143 1.976 . S
Fe132 O146 1.996 . S
Fe133 O134 1.918 . S
Fe133 O141 1.997 . S
Fe133 O144 1.996 . S
Fe133 O148 1.976 . S
Fe133 O151 2.002 . S
O134 Fe132 1.918 . S
O134 Fe133 1.918 . S
O134 Fe135 1.918 . S
Fe135 O134 1.918 . S
Fe135 O136 2.002 . S
Fe135 O145 1.976 . S
Fe135 O149 1.996 . S
Fe135 O152 1.997 . S
O136 Fe135 2.002 . S
O136 C153 1.295 . S
O137 Fe132 1.997 . S
O137 C153 1.235 . S
O138 Fe132 2.002 . S
O138 C139 1.295 . S
C139 O138 1.295 . S
C139 O141 1.235 . S
C140 O145 1.287 . S
C140 O146 1.255 . S
O141 Fe133 1.997 . S
O141 C139 1.235 . S
C142 O148 1.287 . S
C142 O149 1.255 . S
O143 Fe132 1.976 . S
O143 C150 1.287 . S
O144 Fe133 1.996 . S
O144 C150 1.255 . S
O145 Fe135 1.976 . S
O145 C140 1.287 . S
O146 Fe132 1.996 . S
O146 C140 1.255 . S
C147 O151 1.295 . S
C147 O152 1.235 . S
O148 Fe133 1.976 . S
O148 C142 1.287 . S
O149 Fe135 1.996 . S
O149 C142 1.255 . S
C150 O143 1.287 . S
C150 O144 1.255 . S
O151 Fe133 2.002 . S
O151 C147 1.295 . S
O152 Fe135 1.997 . S
O152 C147 1.235 . S
C153 O136 1.295 . S
C153 O137 1.235 . S
Fe154 O156 1.918 . S
Fe154 O159 1.997 . S
Fe154 O160 2.002 . S
Fe154 O165 1.976 . S
Fe154 O168 1.996 . S
Fe155 O156 1.918 . S
Fe155 O163 1.997 . S
Fe155 O166 1.996 . S
Fe155 O170 1.976 . S
Fe155 O173 2.002 . S
O156 Fe154 1.918 . S
O156 Fe155 1.918 . S
O156 Fe157 1.918 . S
Fe157 O156 1.918 . S
Fe157 O158 2.002 . S
Fe157 O167 1.976 . S
Fe157 O171 1.996 . S
Fe157 O174 1.997 . S
O158 Fe157 2.002 . S
O158 C175 1.295 . S
O159 Fe154 1.997 . S
O159 C175 1.235 . S
O160 Fe154 2.002 . S
O160 C161 1.295 . S
C161 O160 1.295 . S
C161 O163 1.235 . S
C162 O167 1.287 . S
C162 O168 1.255 . S
O163 Fe155 1.997 . S
O163 C161 1.235 . S
C164 O170 1.287 . S
C164 O171 1.255 . S
O165 Fe154 1.976 . S
O165 C172 1.287 . S
O166 Fe155 1.996 . S
O166 C172 1.255 . S
O167 Fe157 1.976 . S
O167 C162 1.287 . S
O168 Fe154 1.996 . S
O168 C162 1.255 . S
C169 O173 1.295 . S
C169 O174 1.235 . S
O170 Fe155 1.976 . S
O170 C164 1.287 . S
O171 Fe157 1.996 . S
O171 C164 1.255 . S
C172 O165 1.287 . S
C172 O166 1.255 . S
O173 Fe155 2.002 . S
O173 C169 1.295 . S
O174 Fe157 1.997 . S
O174 C169 1.235 . S
C175 O158 1.295 . S
C175 O159 1.235 . S
N4 C131 1.557 . S
C95 N15 1.554 . S
C118 N26 1.679 . S
C106 N37 1.502 . S
C175 N48 1.557 . S
C139 N59 1.554 . S
N70 C162 1.679 . S
C150 N81 1.502 . S
C9 C172 1.580 . S
C142 C20 1.517 . S
C31 C161 1.678 . S
C39 C147 1.468 . S
C128 C53 1.580 . S
C64 C98 1.517 . S
C117 C75 1.678 1_545 S
C103 C83 1.468 . S
C153 C6 1.513 . S
C169 C17 1.526 . S
C28 C140 1.541 . S
C164 C42 1.495 . S
C109 C50 1.513 . S
C61 C125 1.526 . S
C72 C96 1.541 . S
C86 C120 1.495 . S
