# Generated by pormake.
# Topology tsx, (6,3)-cn, num edge types: 1
# Building blocks:
#     Node 0, Type 0, BuildingBlock: LEVNOQ01_clean_sbu_1, # of connection points: 6
#     Node 1, Type 0, BuildingBlock: LEVNOQ01_clean_sbu_1, # of connection points: 6
#     Node 2, Type 1, BuildingBlock: BETDIP_clean_linker_0, # of connection points: 3
#     Node 3, Type 1, BuildingBlock: BETDIP_clean_linker_0, # of connection points: 3
#     Node 4, Type 1, BuildingBlock: BETDIP_clean_linker_0, # of connection points: 3
#     Node 5, Type 1, BuildingBlock: BETDIP_clean_linker_0, # of connection points: 3
#     Edge 6, Type (0, 1), BuildingBlock: EYOCIG_clean_linker_4, # of connection points: 2
#     Edge 7, Type (0, 1), BuildingBlock: EYOCIG_clean_linker_4, # of connection points: 2
#     Edge 8, Type (0, 1), BuildingBlock: EYOCIG_clean_linker_4, # of connection points: 2
#     Edge 9, Type (0, 1), BuildingBlock: EYOCIG_clean_linker_4, # of connection points: 2
#     Edge 10, Type (0, 1), BuildingBlock: EYOCIG_clean_linker_4, # of connection points: 2
#     Edge 11, Type (0, 1), BuildingBlock: EYOCIG_clean_linker_4, # of connection points: 2
#     Edge 12, Type (0, 1), BuildingBlock: EYOCIG_clean_linker_4, # of connection points: 2
#     Edge 13, Type (0, 1), BuildingBlock: EYOCIG_clean_linker_4, # of connection points: 2
#     Edge 14, Type (0, 1), BuildingBlock: EYOCIG_clean_linker_4, # of connection points: 2
#     Edge 15, Type (0, 1), BuildingBlock: EYOCIG_clean_linker_4, # of connection points: 2
#     Edge 16, Type (0, 1), BuildingBlock: EYOCIG_clean_linker_4, # of connection points: 2
#     Edge 17, Type (0, 1), BuildingBlock: EYOCIG_clean_linker_4, # of connection points: 2
# Relax obj value: 0.101
# Max RMSD: 0.149
# Mean RMSD: 0.112
data_MOF--net-tsx--node1-LEVNOQ01_clean_sbu_1--node2-BETDIP_clean_linker_0--edge1-EYOCIG_clean_linker_4
_symmetry_space_group_name_H-M    P1
_symmetry_Int_Tables_number       1
_symmetry_cell_setting            triclinic
loop_
_symmetry_equiv_pos_as_xyz
'x, y, z'
_cell_length_a     14.673449
_cell_length_b     18.295906
_cell_length_c     28.405944
_cell_angle_alpha  96.591416
_cell_angle_beta   105.59373
_cell_angle_gamma 91.933152
loop_
_atom_site_label
_atom_site_type_symbol
_atom_site_fract_x
_atom_site_fract_y
_atom_site_fract_z
_atom_type_partial_charge
O0 O 0.18945 0.00174 0.10745 0.0
Mg1 Mg 0.26307 0.0173 0.05444 0.0
O2 O 0.04216 -0.01051 0.05721 0.0
Mg3 Mg 0.04776 0.00738 -0.02204 0.0
O4 O 0.18357 0.08154 0.00753 0.0
O5 O 0.32991 0.11838 0.0516 0.0
O6 O 0.05753 0.02204 0.89898 0.0
O7 O 0.96504 0.11427 -0.01742 0.0
Mg8 Mg 0.83831 -0.01202 0.89345 0.0
O9 O 0.91035 0.93557 0.94956 0.0
O10 O 0.92026 -0.01464 0.84297 0.0
O11 O 0.82387 0.09528 0.92646 0.0
O12 O 0.76627 0.89397 0.90497 0.0
C13 C 0.21362 0.87991 -0.01809 0.0
C14 C 0.10066 -0.01035 0.09967 0.0
C15 C 0.25308 0.13137 0.01996 0.0
C16 C 0.00719 0.00725 0.85437 0.0
C17 C 0.88419 0.13585 0.96084 0.0
C18 C 0.83926 0.88791 0.9411 0.0
O19 O 0.2815 0.92015 0.01169 0.0
O20 O 0.12901 0.90052 0.96965 0.0
O21 O 0.69137 0.50323 0.60754 0.0
Mg22 Mg 0.7645 0.51878 0.55433 0.0
O23 O 0.54391 0.49065 0.5575 0.0
Mg24 Mg 0.54893 0.50828 0.47812 0.0
O25 O 0.68452 0.58277 0.50741 0.0
O26 O 0.8309 0.61992 0.55128 0.0
O27 O 0.55821 0.5227 0.39902 0.0
O28 O 0.46584 0.61499 0.48268 0.0
Mg29 Mg 0.3393 0.48827 0.39385 0.0
O30 O 0.41173 0.43614 0.45001 0.0
O31 O 0.42088 0.48558 0.34319 0.0
O32 O 0.32455 0.59558 0.42669 0.0
O33 O 0.26765 0.39424 0.40556 0.0
C34 C 0.7152 0.38118 0.48203 0.0
C35 C 0.60264 0.49101 0.59991 0.0
C36 C 0.75387 0.63273 0.51971 0.0
C37 C 0.50772 0.50766 0.35446 0.0
C38 C 0.38484 0.63635 0.46097 0.0
C39 C 0.34079 0.38837 0.44167 0.0
O40 O 0.78308 0.42161 0.51166 0.0
O41 O 0.6305 0.40161 0.46987 0.0
H42 H 0.11311 0.976 0.46491 0.0
H43 H 0.98295 0.03643 0.32083 0.0
H44 H 0.18428 0.8706 0.3373 0.0
H45 H 0.96217 0.14166 0.36255 0.0
C46 C 0.94489 0.12362 0.39435 0.0
C47 C 0.10455 0.96999 0.42559 0.0
C48 C 0.15508 0.91803 0.40458 0.0
C49 C 0.043 0.01402 0.39591 0.0
C50 C 0.03185 0.00477 0.34483 0.0
C51 C 0.08316 0.95389 0.32395 0.0
C52 C 0.14464 0.91026 0.35367 0.0
N53 N 0.99094 0.06524 0.41785 0.0
H54 H 0.96512 -0.00755 0.48713 0.0
H55 H 0.13128 0.09254 0.63121 0.0
H56 H 0.92145 0.9177 0.6178 0.0
H57 H 0.1597 0.1847 0.59337 0.0
C58 C 0.16268 0.15928 0.55748 0.0
C59 C 0.98228 -0.00264 0.52685 0.0
C60 C 0.93548 0.9492 0.54905 0.0
C61 C 0.05281 0.05028 0.55594 0.0
C62 C 0.07546 0.05426 0.60762 0.0
C63 C 0.02723 0.00742 0.62959 0.0
C64 C 0.95752 0.95489 0.60046 0.0
N65 N 0.10278 0.09607 0.53259 0.0
H66 H 0.61235 0.47522 0.96491 0.0
H67 H 0.48374 0.53673 0.82096 0.0
H68 H 0.68587 0.37151 0.83755 0.0
H69 H 0.46178 0.6414 0.86283 0.0
C70 C 0.44416 0.62297 0.89444 0.0
C71 C 0.6044 0.46965 0.92566 0.0
C72 C 0.65553 0.41812 0.90471 0.0
C73 C 0.54297 0.51377 0.89598 0.0
C74 C 0.53256 0.50503 0.84497 0.0
C75 C 0.58445 0.45457 0.82415 0.0
C76 C 0.64582 0.41087 0.85388 0.0
N77 N 0.49024 0.56452 0.91784 0.0
H78 H 0.46407 0.49123 -0.01307 0.0
H79 H 0.63026 0.59217 0.13079 0.0
H80 H 0.4214 0.41682 0.1179 0.0
H81 H 0.65747 0.68443 0.09266 0.0
C82 C 0.66073 0.65885 0.05686 0.0
C83 C 0.48138 0.4963 0.02666 0.0
C84 C 0.43496 0.44811 0.04902 0.0
C85 C 0.55172 0.54948 0.05562 0.0
C86 C 0.57457 0.55367 0.1073 0.0
C87 C 0.52672 0.50679 0.12943 0.0
C88 C 0.45719 0.45401 0.10044 0.0
N89 N 0.60131 0.59533 0.03212 0.0
C90 C 0.26786 0.26433 -0.00255 0.0
C91 C 0.24684 0.20202 0.00249 0.0
C92 C 0.31556 0.33471 0.00452 0.0
C93 C 0.36986 0.38839 0.02029 0.0
C94 C 0.27068 0.75752 0.9451 0.0
C95 C 0.23604 0.81136 0.95944 0.0
C96 C 0.32528 0.70314 0.92915 0.0
C97 C 0.37843 0.66351 0.9146 0.0
C98 C 0.81153 0.7851 -0.00648 0.0
C99 C 0.8346 0.83363 -0.02702 0.0
C100 C 0.76622 0.73388 0.01472 0.0
C101 C 0.71931 0.69624 0.03275 0.0
C102 C 0.82404 0.26819 0.9692 0.0
C103 C 0.86197 0.21077 0.97072 0.0
C104 C 0.76855 0.32755 0.95478 0.0
C105 C 0.71601 0.37077 0.93466 0.0
C106 C 0.76812 0.76568 0.49716 0.0
C107 C 0.74726 0.70335 0.5022 0.0
C108 C 0.81584 0.83607 0.5043 0.0
C109 C 0.87027 0.88965 0.52018 0.0
C110 C 0.77225 0.25876 0.44524 0.0
C111 C 0.73768 0.31262 0.4596 0.0
C112 C 0.82664 0.20429 0.42922 0.0
C113 C 0.87954 0.1645 0.41459 0.0
C114 C 0.31349 0.28561 0.49421 0.0
C115 C 0.33643 0.33414 0.47363 0.0
C116 C 0.26823 0.23437 0.51541 0.0
C117 C 0.22131 0.1967 0.53342 0.0
C118 C 0.32423 0.76855 0.46918 0.0
C119 C 0.36237 0.71122 0.47076 0.0
C120 C 0.26851 0.82776 0.45472 0.0
C121 C 0.21583 0.87087 0.43458 0.0
C122 C 0.05804 0.96069 0.17962 0.0
C123 C 0.06774 0.973 0.1405 0.0
C124 C 0.063 0.95104 0.22867 0.0
C125 C 0.07486 0.94991 0.27216 0.0
C126 C 0.0643 0.0174 0.7758 0.0
C127 C 0.04815 0.0153 0.81489 0.0
C128 C 0.06278 0.01626 0.72609 0.0
C129 C 0.04854 0.01384 0.68226 0.0
C130 C 0.56043 0.46211 0.67999 0.0
C131 C 0.57005 0.47438 0.64085 0.0
C132 C 0.56521 0.45234 0.729 0.0
C133 C 0.57666 0.45095 0.77243 0.0
C134 C 0.56439 0.51751 0.27572 0.0
C135 C 0.54845 0.51558 0.31488 0.0
C136 C 0.56262 0.51611 0.22597 0.0
C137 C 0.54819 0.51346 0.18212 0.0
loop_
_geom_bond_atom_site_label_1
_geom_bond_atom_site_label_2
_geom_bond_distance
_geom_bond_site_symmetry_2
_ccdc_geom_bond_type
O0 Mg1 1.990 . S
O0 C14 1.253 . S
Mg1 O0 1.990 . S
Mg1 O4 2.180 . S
Mg1 O5 2.117 . S
Mg1 O19 2.030 1_545 S
O2 Mg3 2.072 1_554 S
O2 C14 1.260 . S
Mg3 O2 2.072 1_556 S
Mg3 O4 2.099 1_556 S
Mg3 O6 2.079 . S
Mg3 O7 2.072 1_456 S
Mg3 O9 2.099 1_445 S
Mg3 O20 2.079 1_545 S
O4 Mg1 2.180 . S
O4 Mg3 2.099 1_554 S
O4 C15 1.279 . S
O5 Mg1 2.117 . S
O5 C15 1.250 . S
O6 Mg3 2.079 . S
O6 C16 1.264 . S
O7 Mg3 2.072 1_654 S
O7 C17 1.260 1_554 S
Mg8 O9 2.180 . S
Mg8 O10 2.030 1_565 S
Mg8 O11 1.990 1_565 S
Mg8 O12 2.117 . S
O9 Mg3 2.099 1_665 S
O9 Mg8 2.180 . S
O9 C18 1.279 . S
O10 Mg8 2.030 1_545 S
O10 C16 1.248 1_655 S
O11 Mg8 1.990 1_545 S
O11 C17 1.253 . S
O12 Mg8 2.117 . S
O12 C18 1.250 . S
C13 O19 1.248 . S
C13 O20 1.264 1_554 S
C14 O0 1.253 . S
C14 O2 1.260 . S
C15 O4 1.279 . S
C15 O5 1.250 . S
C16 O6 1.264 . S
C16 O10 1.248 1_455 S
C17 O7 1.260 1_556 S
C17 O11 1.253 . S
C18 O9 1.279 . S
C18 O12 1.250 . S
O19 Mg1 2.030 1_565 S
O19 C13 1.248 . S
O20 Mg3 2.079 1_565 S
O20 C13 1.264 1_556 S
O21 Mg22 1.990 . S
O21 C35 1.253 . S
Mg22 O21 1.990 . S
Mg22 O25 2.180 . S
Mg22 O26 2.117 . S
Mg22 O40 2.030 . S
O23 Mg24 2.072 . S
O23 C35 1.260 . S
Mg24 O23 2.072 . S
Mg24 O25 2.099 . S
Mg24 O27 2.079 . S
Mg24 O28 2.072 . S
Mg24 O30 2.099 . S
Mg24 O41 2.079 . S
O25 Mg22 2.180 . S
O25 Mg24 2.099 . S
O25 C36 1.279 . S
O26 Mg22 2.117 . S
O26 C36 1.250 . S
O27 Mg24 2.079 . S
O27 C37 1.264 . S
O28 Mg24 2.072 . S
O28 C38 1.260 . S
Mg29 O30 2.180 . S
Mg29 O31 2.030 . S
Mg29 O32 1.990 . S
Mg29 O33 2.117 . S
O30 Mg24 2.099 . S
O30 Mg29 2.180 . S
O30 C39 1.279 . S
O31 Mg29 2.030 . S
O31 C37 1.248 . S
O32 Mg29 1.990 . S
O32 C38 1.253 . S
O33 Mg29 2.117 . S
O33 C39 1.250 . S
C34 O40 1.248 . S
C34 O41 1.264 . S
C35 O21 1.253 . S
C35 O23 1.260 . S
C36 O25 1.279 . S
C36 O26 1.250 . S
C37 O27 1.264 . S
C37 O31 1.248 . S
C38 O28 1.260 . S
C38 O32 1.253 . S
C39 O30 1.279 . S
C39 O33 1.250 . S
O40 Mg22 2.030 . S
O40 C34 1.248 . S
O41 Mg24 2.079 . S
O41 C34 1.264 . S
H42 C47 0.930 . S
H43 C50 0.930 . S
H44 C52 0.930 . S
H45 C46 1.016 . S
C46 H45 1.016 . S
C46 N53 1.286 . S
C47 H42 0.930 . S
C47 C48 1.397 . S
C47 C49 1.361 1_565 S
C48 C47 1.397 . S
C48 C52 1.390 . S
C49 C47 1.361 1_545 S
C49 C50 1.393 . S
C49 N53 1.413 1_455 S
C50 H43 0.930 . S
C50 C49 1.393 . S
C50 C51 1.399 1_545 S
C51 C50 1.399 1_565 S
C51 C52 1.381 . S
C52 H44 0.930 . S
C52 C48 1.390 . S
C52 C51 1.381 . S
N53 C46 1.286 . S
N53 C49 1.413 1_655 S
H54 C59 0.930 1_565 S
H55 C62 0.930 . S
H56 C64 0.930 . S
H57 C58 1.016 . S
C58 H57 1.016 . S
C58 N65 1.286 . S
C59 H54 0.930 1_545 S
C59 C60 1.397 1_545 S
C59 C61 1.361 1_655 S
C60 C59 1.397 1_565 S
C60 C64 1.390 . S
C61 C59 1.361 1_455 S
C61 C62 1.393 . S
C61 N65 1.413 . S
C62 H55 0.930 . S
C62 C61 1.393 . S
C62 C63 1.399 1_455 S
C63 C62 1.399 1_655 S
C63 C64 1.381 1_545 S
C64 H56 0.930 . S
C64 C60 1.390 . S
C64 C63 1.381 1_565 S
N65 C58 1.286 . S
N65 C61 1.413 . S
H66 C71 0.930 1_554 S
H67 C74 0.930 . S
H68 C76 0.930 . S
H69 C70 1.016 . S
C70 H69 1.016 . S
C70 N77 1.286 . S
C71 H66 0.930 1_556 S
C71 C72 1.397 . S
C71 C73 1.361 . S
C72 C71 1.397 . S
C72 C76 1.390 . S
C73 C71 1.361 . S
C73 C74 1.393 . S
C73 N77 1.413 . S
C74 H67 0.930 . S
C74 C73 1.393 . S
C74 C75 1.399 . S
C75 C74 1.399 . S
C75 C76 1.381 . S
C76 H68 0.930 . S
C76 C72 1.390 . S
C76 C75 1.381 . S
N77 C70 1.286 . S
N77 C73 1.413 . S
H78 C83 0.930 1_556 S
H79 C86 0.930 . S
H80 C88 0.930 . S
H81 C82 1.016 . S
C82 H81 1.016 . S
C82 N89 1.286 . S
C83 H78 0.930 1_554 S
C83 C84 1.397 . S
C83 C85 1.361 . S
C84 C83 1.397 . S
C84 C88 1.390 . S
C85 C83 1.361 . S
C85 C86 1.393 . S
C85 N89 1.413 . S
C86 H79 0.930 . S
C86 C85 1.393 . S
C86 C87 1.399 . S
C87 C86 1.399 . S
C87 C88 1.381 . S
C88 H80 0.930 . S
C88 C84 1.390 . S
C88 C87 1.381 . S
N89 C82 1.286 . S
N89 C85 1.413 . S
C90 C91 1.170 . S
C90 C92 1.380 . S
C91 C90 1.170 . S
C92 C90 1.380 . S
C92 C93 1.170 . S
C93 C92 1.170 . S
C94 C95 1.170 . S
C94 C96 1.380 . S
C95 C94 1.170 . S
C96 C94 1.380 . S
C96 C97 1.170 . S
C97 C96 1.170 . S
C98 C99 1.170 . S
C98 C100 1.380 . S
C99 C98 1.170 . S
C100 C98 1.380 . S
C100 C101 1.170 . S
C101 C100 1.170 . S
C102 C103 1.170 . S
C102 C104 1.380 . S
C103 C102 1.170 . S
C104 C102 1.380 . S
C104 C105 1.170 . S
C105 C104 1.170 . S
C106 C107 1.170 . S
C106 C108 1.380 . S
C107 C106 1.170 . S
C108 C106 1.380 . S
C108 C109 1.170 . S
C109 C108 1.170 . S
C110 C111 1.170 . S
C110 C112 1.380 . S
C111 C110 1.170 . S
C112 C110 1.380 . S
C112 C113 1.170 . S
C113 C112 1.170 . S
C114 C115 1.170 . S
C114 C116 1.380 . S
C115 C114 1.170 . S
C116 C114 1.380 . S
C116 C117 1.170 . S
C117 C116 1.170 . S
C118 C119 1.170 . S
C118 C120 1.380 . S
C119 C118 1.170 . S
C120 C118 1.380 . S
C120 C121 1.170 . S
C121 C120 1.170 . S
C122 C123 1.170 . S
C122 C124 1.380 . S
C123 C122 1.170 . S
C124 C122 1.380 . S
C124 C125 1.170 . S
C125 C124 1.170 . S
C126 C127 1.170 . S
C126 C128 1.380 . S
C127 C126 1.170 . S
C128 C126 1.380 . S
C128 C129 1.170 . S
C129 C128 1.170 . S
C130 C131 1.170 . S
C130 C132 1.380 . S
C131 C130 1.170 . S
C132 C130 1.380 . S
C132 C133 1.170 . S
C133 C132 1.170 . S
C134 C135 1.170 . S
C134 C136 1.380 . S
C135 C134 1.170 . S
C136 C134 1.380 . S
C136 C137 1.170 . S
C137 C136 1.170 . S
C93 C84 1.453 . S
C91 C15 1.346 . S
C95 C13 1.462 . S
C97 C70 1.446 1_554 S
C99 C18 1.278 1_554 S
C101 C82 1.462 . S
C103 C17 1.452 . S
C105 C72 1.475 . S
C107 C36 1.339 . S
C109 C60 1.451 . S
C111 C34 1.443 . S
C113 C46 1.424 . S
C117 C58 1.462 . S
C115 C39 1.259 . S
C121 C48 1.458 . S
C119 C38 1.420 . S
C123 C14 1.589 1_565 S
C125 C51 1.616 . S
C127 C16 1.413 . S
C129 C63 1.429 1_455 S
C133 C75 1.617 . S
C131 C35 1.558 . S
C135 C37 1.400 . S
C137 C87 1.421 . S
