# Generated by pormake.
# Topology tsx, (6,3)-cn, num edge types: 1
# Building blocks:
#     Node 0, Type 0, BuildingBlock: VOLQOD_clean_sbu_1, # of connection points: 6
#     Node 1, Type 0, BuildingBlock: VOLQOD_clean_sbu_1, # of connection points: 6
#     Node 2, Type 1, BuildingBlock: INOVEN_clean_linker_0, # of connection points: 3
#     Node 3, Type 1, BuildingBlock: INOVEN_clean_linker_0, # of connection points: 3
#     Node 4, Type 1, BuildingBlock: INOVEN_clean_linker_0, # of connection points: 3
#     Node 5, Type 1, BuildingBlock: INOVEN_clean_linker_0, # of connection points: 3
#     Edge 6, Type (0, 1), None
#     Edge 7, Type (0, 1), None
#     Edge 8, Type (0, 1), None
#     Edge 9, Type (0, 1), None
#     Edge 10, Type (0, 1), None
#     Edge 11, Type (0, 1), None
#     Edge 12, Type (0, 1), None
#     Edge 13, Type (0, 1), None
#     Edge 14, Type (0, 1), None
#     Edge 15, Type (0, 1), None
#     Edge 16, Type (0, 1), None
#     Edge 17, Type (0, 1), None
# Relax obj value: 0.053
# Max RMSD: 0.097
# Mean RMSD: 0.091
data_MOF--net-tsx--node1-VOLQOD_clean_sbu_1--node2-INOVEN_clean_linker_0--edge1-none
_symmetry_space_group_name_H-M    P1
_symmetry_Int_Tables_number       1
_symmetry_cell_setting            triclinic
loop_
_symmetry_equiv_pos_as_xyz
'x, y, z'
_cell_length_a     9.2755018
_cell_length_b     9.8799849
_cell_length_c     18.962522
_cell_angle_alpha  88.558471
_cell_angle_beta   103.30556
_cell_angle_gamma 88.904077
loop_
_atom_site_label
_atom_site_type_symbol
_atom_site_fract_x
_atom_site_fract_y
_atom_site_fract_z
_atom_type_partial_charge
O0 O 0.09287 0.91753 0.10974 0.0
Zn1 Zn 0.17232 0.9686 0.02583 0.0
O2 O 0.01013 0.02092 -0.05064 0.0
Zn3 Zn 0.9507 0.86188 0.89873 0.0
Zn4 Zn 0.86417 0.09224 -0.00499 0.0
Zn5 Zn 0.07075 0.15595 0.89147 0.0
O6 O 0.90231 0.91622 0.79064 0.0
O7 O 0.08348 0.06594 0.79637 0.0
O8 O 0.30174 0.82589 -0.00609 0.0
O9 O 0.13241 0.74455 0.90356 0.0
O10 O 0.80013 0.76917 -0.04904 0.0
O11 O 0.7215 0.9473 0.00324 0.0
O12 O 0.759 0.2603 0.93755 0.0
O13 O 0.28529 0.13219 0.05919 0.0
O14 O 0.9016 0.28826 0.85888 0.0
O15 O 0.24286 0.25964 -0.04226 0.0
C16 C 0.03053 1.01026 0.13861 0.0
C17 C 0.9892 0.98468 0.76007 0.0
C18 C 0.71988 0.82143 -0.00912 0.0
C19 C 0.26492 0.74606 0.94141 0.0
C20 C 0.78751 0.32054 0.88186 0.0
C21 C 0.3037 0.24068 0.02557 0.0
O22 O 0.96156 0.11112 0.10088 0.0
O23 O 0.59288 0.41754 0.60974 0.0
Zn24 Zn 0.67233 0.46861 0.52584 0.0
O25 O 0.51015 0.52092 0.44936 0.0
Zn26 Zn 0.45071 0.36188 0.39873 0.0
Zn27 Zn 0.36418 0.59224 0.49501 0.0
Zn28 Zn 0.57076 0.65595 0.39147 0.0
O29 O 0.40232 0.41621 0.29065 0.0
O30 O 0.58349 0.56594 0.29637 0.0
O31 O 0.80176 0.3259 0.49391 0.0
O32 O 0.63242 0.24455 0.40356 0.0
O33 O 0.30015 0.26917 0.45096 0.0
O34 O 0.22151 0.4473 0.50324 0.0
O35 O 0.25902 0.76031 0.43754 0.0
O36 O 0.7853 0.6322 0.55919 0.0
O37 O 0.40161 0.78826 0.35888 0.0
O38 O 0.74288 0.75964 0.45774 0.0
C39 C 0.53053 0.51027 0.63862 0.0
C40 C 0.48921 0.48468 0.26008 0.0
C41 C 0.2199 0.32143 0.49088 0.0
C42 C 0.76493 0.24606 0.44142 0.0
C43 C 0.28752 0.82054 0.38186 0.0
C44 C 0.80371 0.74068 0.52557 0.0
O45 O 0.46156 0.61113 0.60088 0.0
H46 H 0.11371 1.00697 0.42423 0.0
H47 H 0.22967 0.85851 0.23673 0.0
H48 H 0.85923 0.1385 0.21529 0.0
N49 N 0.86193 0.14974 0.35254 0.0
N50 N 0.87667 0.17149 0.41828 0.0
C51 C 0.08752 1.00121 0.36731 0.0
C52 C 0.17778 0.91721 0.33671 0.0
C53 C 0.96819 0.07705 0.32392 0.0
C54 C 0.94964 0.07856 0.24891 0.0
C55 C 0.04642 1.00367 0.2173 0.0
C56 C 0.15825 0.9209 0.26125 0.0
H57 H 0.97047 0.91606 0.47755 0.0
H58 H 0.835 0.79809 0.66909 0.0
H59 H 0.13116 0.1321 0.67303 0.0
N60 N 0.15127 0.1142 0.53478 0.0
N61 N 0.13455 0.23974 0.52807 0.0
C62 C 0.97623 0.93224 0.53374 0.0
C63 C 0.89369 0.84743 0.56779 0.0
C64 C 0.06241 0.03471 0.57106 0.0
C65 C 0.06408 0.05312 0.64449 0.0
C66 C 0.9828 0.96779 0.68116 0.0
C67 C 0.8982 0.86459 0.64204 0.0
H68 H 0.61369 0.50696 0.92423 0.0
H69 H 0.72967 0.35851 0.73674 0.0
H70 H 0.35923 0.6385 0.71529 0.0
N71 N 0.36191 0.64973 0.85254 0.0
N72 N 0.37665 0.67149 0.91827 0.0
C73 C 0.5875 0.5012 0.86731 0.0
C74 C 0.67777 0.4172 0.83671 0.0
C75 C 0.46817 0.57705 0.82392 0.0
C76 C 0.44964 0.57856 0.74891 0.0
C77 C 0.54642 0.50367 0.71729 0.0
C78 C 0.65825 0.42091 0.76126 0.0
H79 H 0.47044 0.41606 -0.02245 0.0
H80 H 0.335 0.29808 0.1691 0.0
H81 H 0.63116 0.6321 0.17303 0.0
N82 N 0.65125 0.6142 0.03477 0.0
N83 N 0.63454 0.73974 0.02807 0.0
C84 C 0.47621 0.43225 0.03373 0.0
C85 C 0.39368 0.34743 0.06779 0.0
C86 C 0.56239 0.53471 0.07105 0.0
C87 C 0.56407 0.55312 0.14449 0.0
C88 C 0.4828 0.46779 0.18116 0.0
C89 C 0.3982 0.36458 0.14204 0.0
loop_
_geom_bond_atom_site_label_1
_geom_bond_atom_site_label_2
_geom_bond_distance
_geom_bond_site_symmetry_2
_ccdc_geom_bond_type
O0 Zn1 1.953 . S
O0 C16 1.225 1_565 S
Zn1 O0 1.953 . S
Zn1 O2 1.949 1_565 S
Zn1 O8 1.919 . S
Zn1 O13 1.924 1_565 S
O2 Zn1 1.949 1_545 S
O2 Zn3 1.923 1_444 S
O2 Zn4 1.950 1_455 S
O2 Zn5 1.945 1_554 S
Zn3 O2 1.923 1_666 S
Zn3 O6 1.933 . S
Zn3 O9 1.941 1_655 S
Zn3 O10 1.965 . S
Zn4 O2 1.950 1_655 S
Zn4 O11 1.938 1_545 S
Zn4 O12 1.906 . S
Zn4 O22 1.953 . S
Zn5 O2 1.945 1_556 S
Zn5 O7 1.932 . S
Zn5 O14 1.977 1_455 S
Zn5 O15 1.910 . S
O6 Zn3 1.933 . S
O6 C17 1.226 1_565 S
O7 Zn5 1.932 . S
O7 C17 1.307 1_455 S
O8 Zn1 1.919 . S
O8 C19 1.253 1_554 S
O9 Zn3 1.941 1_455 S
O9 C19 1.283 . S
O10 Zn3 1.965 . S
O10 C18 1.303 1_556 S
O11 Zn4 1.938 1_565 S
O11 C18 1.247 . S
O12 Zn4 1.906 . S
O12 C20 1.304 1_554 S
O13 Zn1 1.924 1_545 S
O13 C21 1.311 . S
O14 Zn5 1.977 1_655 S
O14 C20 1.272 . S
O15 Zn5 1.910 . S
O15 C21 1.231 1_556 S
C16 O0 1.225 1_545 S
C16 O22 1.298 1_455 S
C17 O6 1.226 1_545 S
C17 O7 1.307 1_655 S
C18 O10 1.303 1_554 S
C18 O11 1.247 . S
C19 O8 1.253 1_556 S
C19 O9 1.283 . S
C20 O12 1.304 1_556 S
C20 O14 1.272 . S
C21 O13 1.311 . S
C21 O15 1.231 1_554 S
O22 Zn4 1.953 . S
O22 C16 1.298 1_655 S
O23 Zn24 1.953 . S
O23 C39 1.225 . S
Zn24 O23 1.953 . S
Zn24 O25 1.949 . S
Zn24 O31 1.919 . S
Zn24 O36 1.924 . S
O25 Zn24 1.949 . S
O25 Zn26 1.923 . S
O25 Zn27 1.950 . S
O25 Zn28 1.945 . S
Zn26 O25 1.923 . S
Zn26 O29 1.933 . S
Zn26 O32 1.941 . S
Zn26 O33 1.965 . S
Zn27 O25 1.950 . S
Zn27 O34 1.938 . S
Zn27 O35 1.906 . S
Zn27 O45 1.953 . S
Zn28 O25 1.945 . S
Zn28 O30 1.932 . S
Zn28 O37 1.977 . S
Zn28 O38 1.910 . S
O29 Zn26 1.933 . S
O29 C40 1.226 . S
O30 Zn28 1.932 . S
O30 C40 1.307 . S
O31 Zn24 1.919 . S
O31 C42 1.253 . S
O32 Zn26 1.941 . S
O32 C42 1.283 . S
O33 Zn26 1.965 . S
O33 C41 1.303 . S
O34 Zn27 1.938 . S
O34 C41 1.247 . S
O35 Zn27 1.906 . S
O35 C43 1.304 . S
O36 Zn24 1.924 . S
O36 C44 1.311 . S
O37 Zn28 1.977 . S
O37 C43 1.272 . S
O38 Zn28 1.910 . S
O38 C44 1.231 . S
C39 O23 1.225 . S
C39 O45 1.298 . S
C40 O29 1.226 . S
C40 O30 1.307 . S
C41 O33 1.303 . S
C41 O34 1.247 . S
C42 O31 1.253 . S
C42 O32 1.283 . S
C43 O35 1.304 . S
C43 O37 1.272 . S
C44 O36 1.311 . S
C44 O38 1.231 . S
O45 Zn27 1.953 . S
O45 C39 1.298 . S
H46 C51 0.929 . S
H47 C56 0.931 . S
H48 C54 0.930 . S
N49 N50 1.234 . S
N49 C53 1.453 . S
N50 N49 1.234 . S
C51 H46 0.929 . S
C51 C52 1.373 . S
C51 C53 1.368 1_465 S
C52 C51 1.373 . S
C52 C56 1.397 . S
C53 N49 1.453 . S
C53 C51 1.368 1_645 S
C53 C54 1.373 . S
C54 H48 0.930 . S
C54 C53 1.373 . S
C54 C55 1.371 1_645 S
C55 C54 1.371 1_465 S
C55 C56 1.383 . S
C56 H47 0.931 . S
C56 C52 1.397 . S
C56 C55 1.383 . S
H57 C62 0.929 . S
H58 C67 0.931 . S
H59 C65 0.930 . S
N60 N61 1.234 . S
N60 C64 1.453 . S
N61 N60 1.234 . S
C62 H57 0.929 . S
C62 C63 1.373 . S
C62 C64 1.368 1_665 S
C63 C62 1.373 . S
C63 C67 1.397 . S
C64 N60 1.453 . S
C64 C62 1.368 1_445 S
C64 C65 1.373 . S
C65 H59 0.930 . S
C65 C64 1.373 . S
C65 C66 1.371 1_445 S
C66 C65 1.371 1_665 S
C66 C67 1.383 . S
C67 H58 0.931 . S
C67 C63 1.397 . S
C67 C66 1.383 . S
H68 C73 0.929 1_554 S
H69 C78 0.931 . S
H70 C76 0.930 . S
N71 N72 1.234 . S
N71 C75 1.453 . S
N72 N71 1.234 . S
C73 H68 0.929 1_556 S
C73 C74 1.373 . S
C73 C75 1.368 . S
C74 C73 1.373 . S
C74 C78 1.397 . S
C75 N71 1.453 . S
C75 C73 1.368 . S
C75 C76 1.373 . S
C76 H70 0.930 . S
C76 C75 1.373 . S
C76 C77 1.371 . S
C77 C76 1.371 . S
C77 C78 1.383 . S
C78 H69 0.931 . S
C78 C74 1.397 . S
C78 C77 1.383 . S
H79 C84 0.929 1_556 S
H80 C89 0.931 . S
H81 C87 0.930 . S
N82 N83 1.234 . S
N82 C86 1.453 . S
N83 N82 1.234 . S
C84 H79 0.929 1_554 S
C84 C85 1.373 . S
C84 C86 1.368 . S
C85 C84 1.373 . S
C85 C89 1.397 . S
C86 N82 1.453 . S
C86 C84 1.368 . S
C86 C87 1.373 . S
C87 H81 0.930 . S
C87 C86 1.373 . S
C87 C88 1.371 . S
C88 C87 1.371 . S
C88 C89 1.383 . S
C89 H80 0.931 . S
C89 C85 1.397 . S
C89 C88 1.383 . S
C85 C21 1.513 . S
C19 N72 1.447 . S
C18 N83 1.368 . S
C20 C74 1.493 . S
C44 C63 1.513 . S
C42 N50 1.447 . S
N61 C41 1.368 . S
C52 C43 1.493 . S
C16 C55 1.576 1_545 S
C17 C66 1.527 1_545 S
C77 C39 1.576 . S
C40 C88 1.526 . S
