# Generated by pormake.
# Topology pts, (4,4)-cn, num edge types: 1
# Building blocks:
#     Node 0, Type 0, BuildingBlock: MIFKUJ_clean_linker_1, # of connection points: 4
#     Node 1, Type 0, BuildingBlock: MIFKUJ_clean_linker_1, # of connection points: 4
#     Node 2, Type 1, BuildingBlock: AZAVOO_clean_sbu_0, # of connection points: 4
#     Node 3, Type 1, BuildingBlock: AZAVOO_clean_sbu_0, # of connection points: 4
#     Edge 4, Type (0, 1), BuildingBlock: CIFDUS_clean_linker_0, # of connection points: 2
#     Edge 5, Type (0, 1), BuildingBlock: CIFDUS_clean_linker_0, # of connection points: 2
#     Edge 6, Type (0, 1), BuildingBlock: CIFDUS_clean_linker_0, # of connection points: 2
#     Edge 7, Type (0, 1), BuildingBlock: CIFDUS_clean_linker_0, # of connection points: 2
#     Edge 8, Type (0, 1), BuildingBlock: CIFDUS_clean_linker_0, # of connection points: 2
#     Edge 9, Type (0, 1), BuildingBlock: CIFDUS_clean_linker_0, # of connection points: 2
#     Edge 10, Type (0, 1), BuildingBlock: CIFDUS_clean_linker_0, # of connection points: 2
#     Edge 11, Type (0, 1), BuildingBlock: CIFDUS_clean_linker_0, # of connection points: 2
# Relax obj value: 0.003
# Max RMSD: 0.042
# Mean RMSD: 0.032
data_MOF--net-pts--node1-AZAVOO_clean_sbu_0--node2-MIFKUJ_clean_linker_1--edge1-CIFDUS_clean_linker_0
_symmetry_space_group_name_H-M    P1
_symmetry_Int_Tables_number       1
_symmetry_cell_setting            triclinic
loop_
_symmetry_equiv_pos_as_xyz
'x, y, z'
_cell_length_a     26.789056
_cell_length_b     27.83915
_cell_length_c     36.334368
_cell_angle_alpha  90.362317
_cell_angle_beta   96.41247
_cell_angle_gamma 89.549359
loop_
_atom_site_label
_atom_site_type_symbol
_atom_site_fract_x
_atom_site_fract_y
_atom_site_fract_z
_atom_type_partial_charge
H0 H 0.60716 0.94243 0.0807 0.0
H1 H 0.68901 0.93315 0.11693 0.0
H2 H 0.73083 0.07452 0.0831 0.0
H3 H 0.64904 0.08294 0.0461 0.0
H4 H 0.53395 0.01324 0.08875 0.0
H5 H 0.62193 0.94618 0.9886 0.0
H6 H 0.69724 0.94218 0.95664 0.0
H7 H 0.68454 0.09478 0.9353 0.0
H8 H 0.6076 0.09767 0.96596 0.0
H9 H 0.42182 0.08797 0.95519 0.0
H10 H 0.3433 0.07399 0.91467 0.0
H11 H 0.33829 0.92951 0.95633 0.0
H12 H 0.41588 0.94388 0.9973 0.0
H13 H 0.51228 0.02935 0.95197 0.0
H14 H 0.4015 0.08206 0.04072 0.0
H15 H 0.33637 0.08266 0.08315 0.0
H16 H 0.39696 0.95022 0.13145 0.0
H17 H 0.46189 0.95001 0.0894 0.0
C18 C 0.62197 0.0134 0.06084 0.0
C19 C 0.63404 0.97136 0.08104 0.0
C20 C 0.68084 0.9662 0.10181 0.0
C21 C 0.71646 0.00328 0.10325 0.0
C22 C 0.70459 0.04505 0.08234 0.0
C23 C 0.65776 0.05004 0.06132 0.0
C24 C 0.57159 0.01881 0.0397 0.0
C25 C 0.52902 0.0167 0.05883 0.0
C26 C 0.56546 0.02439 1.00087 0.0
C27 C 0.60931 0.02217 0.9795 0.0
C28 C 0.6352 0.97861 0.97665 0.0
C29 C 0.67864 0.97659 0.95873 0.0
C30 C 0.69758 0.01828 0.94365 0.0
C31 C 0.67092 0.06183 0.94615 0.0
C32 C 0.62698 0.06365 0.96372 0.0
C33 C 0.42445 0.01702 0.97929 0.0
C34 C 0.40324 0.05364 0.95604 0.0
C35 C 0.35842 0.04573 0.93312 0.0
C36 C 0.33495 0.00072 0.93255 0.0
C37 C 0.35571 0.96451 0.9564 0.0
C38 C 0.39987 0.97273 0.97978 0.0
C39 C 0.47415 0.02318 1.00104 0.0
C40 C 0.51685 0.02716 0.98196 0.0
C41 C 0.48028 0.01873 0.04003 0.0
C42 C 0.43686 0.01617 0.06207 0.0
C43 C 0.40011 0.05268 0.05998 0.0
C44 C 0.36288 0.05299 0.08421 0.0
C45 C 0.36199 0.01688 0.11102 0.0
C46 C 0.39728 0.97912 0.11165 0.0
C47 C 0.43435 0.97886 0.08755 0.0
H48 H 0.10464 0.41709 0.4764 0.0
H49 H 0.1078 0.34409 0.43878 0.0
H50 H 0.94603 0.33322 0.43304 0.0
H51 H 0.94392 0.40477 0.47211 0.0
H52 H 0.02753 0.50333 0.44994 0.0
H53 H 0.09533 0.40825 0.56606 0.0
H54 H 0.09351 0.33723 0.60499 0.0
H55 H 0.93103 0.34364 0.59264 0.0
H56 H 0.9337 0.41612 0.55502 0.0
H57 H 0.94989 0.58259 0.57976 0.0
H58 H 0.95252 0.65679 0.61619 0.0
H59 H 0.09783 0.68897 0.58157 0.0
H60 H 0.09417 0.61534 0.54441 0.0
H61 H 0.01215 0.50553 0.58469 0.0
H62 H 0.96296 0.62881 0.49934 0.0
H63 H 0.96429 0.70076 0.46243 0.0
H64 H 0.08165 0.63758 0.40441 0.0
H65 H 0.08495 0.56896 0.44517 0.0
C66 C 0.02413 0.4157 0.47723 0.0
C67 C 0.07006 0.39847 0.46726 0.0
C68 C 0.07165 0.3571 0.44539 0.0
C69 C 0.02716 0.33262 0.43271 0.0
C70 C 0.98117 0.35045 0.44278 0.0
C71 C 0.97975 0.39144 0.46502 0.0
C72 C 0.02212 0.46096 0.49832 0.0
C73 C 0.02503 0.50435 0.47953 0.0
C74 C 0.01647 0.46154 0.53635 0.0
C75 C 0.01467 0.41689 0.55763 0.0
C76 C 0.05942 0.39409 0.57172 0.0
C77 C 0.0582 0.35342 0.59383 0.0
C78 C 0.01207 0.33449 0.60194 0.0
C79 C 0.96721 0.35755 0.58747 0.0
C80 C 0.96857 0.39861 0.56565 0.0
C81 C 0.02151 0.59386 0.55902 0.0
C82 C 0.98233 0.60566 0.58013 0.0
C83 C 0.98408 0.6479 0.60117 0.0
C84 C 0.02537 0.67892 0.6018 0.0
C85 C 0.06509 0.66634 0.58122 0.0
C86 C 0.06312 0.62426 0.55999 0.0
C87 C 0.01934 0.5491 0.53668 0.0
C88 C 0.01509 0.50545 0.55514 0.0
C89 C 0.02356 0.54875 0.49806 0.0
C90 C 0.02464 0.5935 0.47587 0.0
C91 C 0.99034 0.63114 0.47967 0.0
C92 C 0.99022 0.67203 0.45759 0.0
C93 C 0.02282 0.67552 0.42984 0.0
C94 C 0.05665 0.63735 0.42581 0.0
C95 C 0.05806 0.59736 0.44888 0.0
Mg96 Mg 0.06503 -0.00597 0.28853 0.0
O97 O 0.98589 0.98457 0.25595 0.0
O98 O 0.93676 0.96153 0.2985 0.0
Mg99 Mg 0.98072 0.95486 0.35557 0.0
C100 C 0.94298 0.97241 0.26522 0.0
C101 C 0.14589 0.02381 0.24591 0.0
O102 O 0.16486 0.00655 0.27811 0.0
O103 O 0.03942 0.06524 0.31335 0.0
O104 O 0.99286 0.03601 0.3554 0.0
O105 O 0.08559 0.9163 0.28137 0.0
O106 O 0.04739 0.94487 0.32763 0.0
C107 C 0.01251 0.07128 0.34004 0.0
C108 C 0.06478 0.90852 0.31117 0.0
O109 O 0.09839 0.02846 0.23985 0.0
Mg110 Mg 0.97557 -0.00114 0.74384 0.0
O111 O 0.04808 -0.00262 0.78482 0.0
O112 O 0.11016 0.97344 0.75238 0.0
Mg113 Mg 0.07947 0.96158 0.6919 0.0
C114 C 0.09422 0.98677 0.78269 0.0
C115 C 0.92072 0.01362 0.81547 0.0
O116 O 0.92924 0.03946 0.78688 0.0
O117 O 0.0006 0.06945 0.71958 0.0
O118 O 0.06056 0.04175 0.68662 0.0
O119 O 0.9618 0.91977 0.75163 0.0
O120 O 0.00543 0.94949 0.70934 0.0
C121 C 0.03355 0.07612 0.69721 0.0
C122 C 0.98822 0.91245 0.72436 0.0
O123 O 0.92991 0.03754 0.78718 0.0
H124 H 0.26127 0.03966 0.10335 0.0
H125 H 0.38529 0.00214 0.18462 0.0
H126 H 0.32992 0.0042 0.23328 0.0
H127 H 0.24664 0.01347 0.2527 0.0
H128 H 0.12055 0.0493 0.17286 0.0
H129 H 0.17654 0.05219 0.12388 0.0
C130 C 0.2761 0.03231 0.13177 0.0
C131 C 0.32727 0.02004 0.1402 0.0
C132 C 0.24381 0.03347 0.15989 0.0
C133 C 0.34593 0.01058 0.17718 0.0
C134 C 0.31436 0.0121 0.20512 0.0
C135 C 0.23119 0.0223 0.22467 0.0
C136 C 0.17936 0.03098 0.21651 0.0
C137 C 0.26325 0.02297 0.19675 0.0
C138 C 0.16031 0.0425 0.17997 0.0
C139 C 0.1923 0.04393 0.15192 0.0
H140 H 0.07255 0.2559 0.60097 0.0
H141 H 0.94878 0.3136 0.65424 0.0
H142 H 0.94555 0.23967 0.68979 0.0
H143 H 0.97656 0.15734 0.7043 0.0
H144 H 0.10269 0.10258 0.65187 0.0
H145 H 0.10709 0.17731 0.61849 0.0
C146 C 0.04541 0.25288 0.62083 0.0
C147 C 0.01091 0.29036 0.62473 0.0
C148 C 0.04425 0.21074 0.64156 0.0
C149 C 0.9753 0.28506 0.65011 0.0
C150 C 0.97367 0.2429 0.67071 0.0
C151 C 0.00535 0.16195 0.68591 0.0
C152 C 0.03889 0.12401 0.6805 0.0
C153 C 0.00775 0.20528 0.66644 0.0
C154 C 0.07603 0.13082 0.65653 0.0
C155 C 0.07863 0.17361 0.63725 0.0
H156 H 0.72993 0.96625 0.17248 0.0
H157 H 0.81106 0.03189 0.09009 0.0
H158 H 0.8889 0.02717 0.13228 0.0
H159 H 0.93357 0.00553 0.19348 0.0
H160 H 0.85025 0.9386 0.27436 0.0
H161 H 0.7742 0.94182 0.23147 0.0
C162 C 0.76472 0.9788 0.16336 0.0
C163 C 0.7645 -0.00078 0.12806 0.0
C164 C 0.80919 0.97571 0.18756 0.0
C165 C 0.80993 0.01641 0.11725 0.0
C166 C 0.85455 0.01349 0.1413 0.0
C167 C 0.89888 -0.00869 0.2016 0.0
C168 C 0.89794 0.97208 0.23732 0.0
C169 C 0.85461 -0.0066 0.17668 0.0
C170 C 0.85241 0.95392 0.24726 0.0
C171 C 0.80865 0.95571 0.22272 0.0
H172 H 0.99396 0.69667 0.66987 0.0
H173 H 0.05752 0.7657 0.57984 0.0
H174 H 0.05551 0.84268 0.61166 0.0
H175 H 0.03087 0.89118 0.66241 0.0
H176 H 0.96346 0.8249 0.75167 0.0
H177 H 0.97127 0.74593 0.72246 0.0
C178 C 0.00722 0.72859 0.65717 0.0
C179 C 0.02595 0.72523 0.62247 0.0
C180 C 0.00506 0.77318 0.67534 0.0
C181 C 0.04367 0.76691 0.60672 0.0
C182 C 0.04218 0.81111 0.62477 0.0
C183 C 0.01859 0.85951 0.67596 0.0
C184 C 0.99685 0.86395 0.70931 0.0
C185 C 0.02247 0.8147 0.6588 0.0
C186 C 0.98045 0.82245 0.72603 0.0
C187 C 0.98478 0.77735 0.70928 0.0
H188 H 0.24423 0.04676 0.92195 0.0
H189 H 0.32986 0.93047 0.8807 0.0
H190 H 0.26198 0.9145 0.83154 0.0
H191 H 0.18029 0.93607 0.7985 0.0
H192 H 0.09172 0.04942 0.84086 0.0
H193 H 0.15825 0.06376 0.89166 0.0
C194 C 0.24764 0.01783 0.90224 0.0
C195 C 0.29188 -0.01005 0.90465 0.0
C196 C 0.20803 0.00835 0.87435 0.0
C197 C 0.29598 0.95222 0.87932 0.0
C198 C 0.2573 0.94319 0.8512 0.0
C199 C 0.17541 0.96371 0.81901 0.0
C200 C 0.13144 -0.00803 0.81575 0.0
C201 C 0.21345 0.97136 0.8482 0.0
C202 C 0.12524 0.02714 0.84282 0.0
C203 C 0.16338 0.03553 0.87173 0.0
H204 H 0.97017 0.25273 0.43558 0.0
H205 H 0.08784 0.31219 0.37812 0.0
H206 H 0.09226 0.23764 0.3427 0.0
H207 H 0.06451 0.15396 0.32974 0.0
H208 H 0.94448 0.09754 0.38658 0.0
H209 H 0.93824 0.17308 0.41943 0.0
C210 C 0.99615 0.25 0.41482 0.0
C211 C 0.02869 0.28817 0.40977 0.0
C212 C 0.998 0.20746 0.39418 0.0
C213 C 0.06288 0.28316 0.38319 0.0
C214 C 0.06518 0.24062 0.36265 0.0
C215 C 0.03654 0.15847 0.34891 0.0
C216 C 0.00542 0.11978 0.35585 0.0
C217 C 0.03319 0.20228 0.36815 0.0
C218 C 0.96939 0.12635 0.38087 0.0
C219 C 0.96574 0.16962 0.39981 0.0
H220 H 0.72052 0.06746 0.88269 0.0
H221 H 0.78202 0.96425 0.96409 0.0
H222 H 0.85694 0.95568 0.93227 0.0
H223 H 0.90357 0.97444 0.87959 0.0
H224 H 0.84406 0.08023 0.79991 0.0
H225 H 0.77067 0.09177 0.83338 0.0
C226 C 0.75059 0.04372 0.89395 0.0
C227 C 0.74491 0.01599 0.92552 0.0
C228 C 0.7942 0.0395 0.87586 0.0
C229 C 0.78442 0.98509 0.9393 0.0
C230 C 0.82763 0.98042 0.9213 0.0
C231 C 0.87482 0.00053 0.86994 0.0
C232 C 0.87928 0.02633 0.83746 0.0
C233 C 0.83263 0.00693 0.88928 0.0
C234 C 0.84176 0.06001 0.82502 0.0
C235 C 0.79957 0.06645 0.84404 0.0
H236 H 0.10004 0.71454 0.39621 0.0
H237 H 0.94178 0.73385 0.40671 0.0
H238 H 0.94067 0.80682 0.37041 0.0
H239 H 0.98512 0.867 0.33732 0.0
H240 H 0.14 0.84276 0.32055 0.0
H241 H 0.1411 0.76816 0.35607 0.0
C242 C 0.06478 0.73365 0.38999 0.0
C243 C 0.02135 0.71853 0.40522 0.0
C244 C 0.06361 0.77458 0.36754 0.0
C245 C 0.9765 0.74505 0.39688 0.0
C246 C 0.9755 0.78666 0.37557 0.0
C247 C 0.01888 0.84505 0.34124 0.0
C248 C 0.06258 0.86026 0.32691 0.0
C249 C 0.01897 0.80207 0.36118 0.0
C250 C 0.10591 0.83136 0.33134 0.0
C251 C 0.10663 0.78904 0.35187 0.0
loop_
_geom_bond_atom_site_label_1
_geom_bond_atom_site_label_2
_geom_bond_distance
_geom_bond_site_symmetry_2
_ccdc_geom_bond_type
H0 C19 0.949 . S
H1 C20 0.950 . S
H2 C22 0.950 . S
H3 C23 0.950 . S
H4 C25 0.953 . S
H5 C28 0.950 . S
H6 C29 0.950 . S
H7 C31 0.951 . S
H8 C32 0.949 . S
H9 C34 0.949 . S
H10 C35 0.950 . S
H11 C37 0.950 . S
H12 C38 0.950 . S
H13 C40 0.950 . S
H14 C43 0.950 . S
H15 C44 0.950 . S
H16 C46 0.951 . S
H17 C47 0.949 . S
C18 C19 1.376 1_545 S
C18 C23 1.386 . S
C18 C24 1.483 . S
C19 H0 0.949 . S
C19 C18 1.376 1_565 S
C19 C20 1.397 . S
C20 H1 0.950 . S
C20 C19 1.397 . S
C20 C21 1.391 1_565 S
C21 C20 1.391 1_545 S
C21 C22 1.405 . S
C22 H2 0.950 . S
C22 C21 1.405 . S
C22 C23 1.367 . S
C23 H3 0.950 . S
C23 C18 1.386 . S
C23 C22 1.367 . S
C24 C18 1.483 . S
C24 C25 1.380 1_545 S
C24 C26 1.403 1_554 S
C25 H4 0.953 . S
C25 C24 1.380 1_565 S
C25 C41 1.410 1_565 S
C26 C24 1.403 1_556 S
C26 C27 1.489 . S
C26 C40 1.411 . S
C27 C26 1.489 . S
C27 C28 1.383 1_545 S
C27 C32 1.382 . S
C28 H5 0.950 . S
C28 C27 1.383 1_565 S
C28 C29 1.395 . S
C29 H6 0.950 . S
C29 C28 1.395 . S
C29 C30 1.288 1_565 S
C30 C29 1.288 1_545 S
C30 C31 1.392 . S
C31 H7 0.951 . S
C31 C30 1.392 . S
C31 C32 1.392 . S
C32 H8 0.949 . S
C32 C27 1.382 . S
C32 C31 1.392 . S
C33 C34 1.376 . S
C33 C38 1.386 1_545 S
C33 C39 1.483 . S
C34 H9 0.949 . S
C34 C33 1.376 . S
C34 C35 1.397 . S
C35 H10 0.950 . S
C35 C34 1.397 . S
C35 C36 1.391 . S
C36 C35 1.391 . S
C36 C37 1.405 1_545 S
C37 H11 0.950 . S
C37 C36 1.405 1_565 S
C37 C38 1.367 . S
C38 H12 0.950 . S
C38 C33 1.386 1_565 S
C38 C37 1.367 . S
C39 C33 1.483 . S
C39 C40 1.382 . S
C39 C41 1.403 1_556 S
C40 H13 0.950 . S
C40 C26 1.411 . S
C40 C39 1.382 . S
C41 C25 1.410 1_545 S
C41 C39 1.403 1_554 S
C41 C42 1.489 . S
C42 C41 1.489 . S
C42 C43 1.383 . S
C42 C47 1.382 1_545 S
C43 H14 0.950 . S
C43 C42 1.383 . S
C43 C44 1.395 . S
C44 H15 0.950 . S
C44 C43 1.395 . S
C44 C45 1.288 . S
C45 C44 1.288 . S
C45 C46 1.392 1_545 S
C46 H16 0.951 . S
C46 C45 1.392 1_565 S
C46 C47 1.392 . S
C47 H17 0.949 . S
C47 C42 1.382 1_565 S
C47 C46 1.392 . S
H48 C67 0.949 . S
H49 C68 0.950 . S
H50 C70 0.950 . S
H51 C71 0.950 . S
H52 C73 0.950 . S
H53 C76 0.950 . S
H54 C77 0.950 . S
H55 C79 0.951 . S
H56 C80 0.949 . S
H57 C82 0.949 . S
H58 C83 0.950 . S
H59 C85 0.950 . S
H60 C86 0.950 . S
H61 C88 0.950 . S
H62 C91 0.950 . S
H63 C92 0.939 1_655 S
H64 C94 0.951 . S
H65 C95 0.949 . S
C66 C67 1.376 . S
C66 C71 1.386 1_455 S
C66 C72 1.483 . S
C67 H48 0.949 . S
C67 C66 1.376 . S
C67 C68 1.397 . S
C68 H49 0.950 . S
C68 C67 1.397 . S
C68 C69 1.391 . S
C69 C68 1.391 . S
C69 C70 1.405 1_455 S
C70 H50 0.950 . S
C70 C69 1.405 1_655 S
C70 C71 1.367 . S
C71 H51 0.950 . S
C71 C66 1.386 1_655 S
C71 C70 1.367 . S
C72 C66 1.483 . S
C72 C73 1.382 . S
C72 C74 1.403 . S
C73 H52 0.950 . S
C73 C72 1.382 . S
C73 C89 1.411 . S
C74 C72 1.403 . S
C74 C75 1.489 . S
C74 C88 1.411 . S
C75 C74 1.489 . S
C75 C76 1.383 . S
C75 C80 1.382 1_455 S
C76 H53 0.950 . S
C76 C75 1.383 . S
C76 C77 1.395 . S
C77 H54 0.950 . S
C77 C76 1.395 . S
C77 C78 1.288 . S
C78 C77 1.288 . S
C78 C79 1.392 1_455 S
C79 H55 0.951 . S
C79 C78 1.392 1_655 S
C79 C80 1.392 . S
C80 H56 0.949 . S
C80 C75 1.382 1_655 S
C80 C79 1.392 . S
C81 C82 1.376 1_455 S
C81 C86 1.386 . S
C81 C87 1.483 . S
C82 H57 0.949 . S
C82 C81 1.376 1_655 S
C82 C83 1.397 . S
C83 H58 0.950 . S
C83 C82 1.397 . S
C83 C84 1.391 1_655 S
C84 C83 1.391 1_455 S
C84 C85 1.405 . S
C85 H59 0.950 . S
C85 C84 1.405 . S
C85 C86 1.367 . S
C86 H60 0.950 . S
C86 C81 1.386 . S
C86 C85 1.367 . S
C87 C81 1.483 . S
C87 C88 1.382 . S
C87 C89 1.403 . S
C88 H61 0.950 . S
C88 C74 1.411 . S
C88 C87 1.382 . S
C89 C73 1.411 . S
C89 C87 1.403 . S
C89 C90 1.489 . S
C90 C89 1.489 . S
C90 C91 1.383 1_455 S
C90 C95 1.382 . S
C91 H62 0.950 . S
C91 C90 1.383 1_655 S
C91 C92 1.393 1_655 S
C92 H63 0.939 1_455 S
C92 C91 1.393 1_455 S
C92 C93 1.300 . S
C93 C92 1.300 . S
C93 C94 1.392 . S
C94 H64 0.951 . S
C94 C93 1.392 . S
C94 C95 1.392 . S
C95 H65 0.949 . S
C95 C90 1.382 . S
C95 C94 1.392 . S
Mg96 O97 2.028 . S
Mg96 O103 1.986 . S
Mg96 O105 2.114 1_545 S
Mg96 O106 2.251 1_545 S
Mg96 O109 2.010 . S
O97 Mg96 2.028 . S
O97 C100 1.250 1_455 S
O98 Mg99 2.028 . S
O98 C100 1.248 . S
Mg99 O98 2.028 . S
Mg99 O104 2.032 . S
Mg99 O106 2.079 1_645 S
C100 O97 1.250 1_655 S
C100 O98 1.248 . S
C101 O102 1.264 . S
C101 O109 1.249 . S
O102 C101 1.264 . S
O103 Mg96 1.986 . S
O103 C107 1.246 . S
O104 Mg99 2.032 . S
O104 C107 1.259 1_655 S
O105 Mg96 2.114 1_565 S
O105 C108 1.252 . S
O106 Mg96 2.251 1_565 S
O106 Mg99 2.079 1_465 S
O106 C108 1.273 . S
C107 O103 1.246 . S
C107 O104 1.259 1_455 S
C108 O105 1.252 . S
C108 O106 1.273 . S
O109 Mg96 2.010 . S
O109 C101 1.249 . S
Mg110 O111 2.028 1_655 S
Mg110 O117 1.986 . S
Mg110 O119 2.114 1_545 S
Mg110 O120 2.251 1_645 S
Mg110 O123 2.010 . S
O111 Mg110 2.028 1_455 S
O111 C114 1.250 . S
O112 Mg113 2.028 . S
O112 C114 1.248 . S
Mg113 O112 2.028 . S
Mg113 O118 2.032 . S
Mg113 O120 2.079 1_545 S
C114 O111 1.250 . S
C114 O112 1.248 . S
C115 O116 1.264 . S
C115 O123 1.249 . S
O116 C115 1.264 . S
O117 Mg110 1.986 . S
O117 C121 1.246 1_655 S
O118 Mg113 2.032 . S
O118 C121 1.259 . S
O119 Mg110 2.114 1_565 S
O119 C122 1.252 1_655 S
O120 Mg110 2.251 1_465 S
O120 Mg113 2.079 1_565 S
O120 C122 1.273 . S
C121 O117 1.246 1_455 S
C121 O118 1.259 . S
C122 O119 1.252 1_455 S
C122 O120 1.273 . S
O123 Mg110 2.010 . S
O123 C115 1.249 . S
H124 C130 0.930 . S
H125 C133 0.930 . S
H126 C134 0.930 . S
H127 C135 0.930 1_565 S
H128 C138 0.930 . S
H129 C139 0.930 . S
C130 H124 0.930 . S
C130 C131 1.355 . S
C130 C132 1.415 . S
C131 C130 1.355 . S
C131 C133 1.419 1_545 S
C132 C130 1.415 . S
C132 C137 1.425 . S
C132 C139 1.409 . S
C133 H125 0.930 . S
C133 C131 1.419 1_565 S
C133 C134 1.362 . S
C134 H126 0.930 . S
C134 C133 1.362 . S
C134 C137 1.409 1_565 S
C135 H127 0.930 1_545 S
C135 C136 1.355 . S
C135 C137 1.415 . S
C136 C135 1.355 . S
C136 C138 1.419 . S
C137 C132 1.425 . S
C137 C134 1.409 1_545 S
C137 C135 1.415 . S
C138 H128 0.930 . S
C138 C136 1.419 . S
C138 C139 1.362 . S
C139 H129 0.930 . S
C139 C132 1.409 . S
C139 C138 1.362 . S
H140 C146 0.930 . S
H141 C149 0.930 . S
H142 C150 0.930 . S
H143 C151 0.930 . S
H144 C154 0.930 . S
H145 C155 0.930 . S
C146 H140 0.930 . S
C146 C147 1.355 . S
C146 C148 1.415 . S
C147 C146 1.355 . S
C147 C149 1.419 . S
C148 C146 1.415 . S
C148 C153 1.425 . S
C148 C155 1.409 . S
C149 H141 0.930 . S
C149 C147 1.419 . S
C149 C150 1.362 . S
C150 H142 0.930 . S
C150 C149 1.362 . S
C150 C153 1.409 . S
C151 H143 0.930 . S
C151 C152 1.355 . S
C151 C153 1.415 . S
C152 C151 1.355 . S
C152 C154 1.419 . S
C153 C148 1.425 . S
C153 C150 1.409 . S
C153 C151 1.415 . S
C154 H144 0.930 . S
C154 C152 1.419 . S
C154 C155 1.362 . S
C155 H145 0.930 . S
C155 C148 1.409 . S
C155 C154 1.362 . S
H156 C162 0.930 . S
H157 C165 0.930 . S
H158 C166 0.930 . S
H159 C167 0.930 1_565 S
H160 C170 0.930 . S
H161 C171 0.930 . S
C162 H156 0.930 . S
C162 C163 1.355 . S
C162 C164 1.415 . S
C163 C162 1.355 . S
C163 C165 1.419 1_545 S
C164 C162 1.415 . S
C164 C169 1.425 . S
C164 C171 1.409 . S
C165 H157 0.930 . S
C165 C163 1.419 1_565 S
C165 C166 1.362 . S
C166 H158 0.930 . S
C166 C165 1.362 . S
C166 C169 1.409 1_565 S
C167 H159 0.930 1_545 S
C167 C168 1.355 . S
C167 C169 1.415 . S
C168 C167 1.355 . S
C168 C170 1.419 . S
C169 C164 1.425 . S
C169 C166 1.409 1_545 S
C169 C167 1.415 . S
C170 H160 0.930 . S
C170 C168 1.419 . S
C170 C171 1.362 . S
C171 H161 0.930 . S
C171 C164 1.409 . S
C171 C170 1.362 . S
H172 C178 0.930 . S
H173 C181 0.930 . S
H174 C182 0.930 . S
H175 C183 0.930 . S
H176 C186 0.930 . S
H177 C187 0.930 . S
C178 H172 0.930 . S
C178 C179 1.355 1_655 S
C178 C180 1.415 . S
C179 C178 1.355 1_455 S
C179 C181 1.419 . S
C180 C178 1.415 . S
C180 C185 1.425 1_655 S
C180 C187 1.409 . S
C181 H173 0.930 . S
C181 C179 1.419 . S
C181 C182 1.362 . S
C182 H174 0.930 . S
C182 C181 1.362 . S
C182 C185 1.409 . S
C183 H175 0.930 . S
C183 C184 1.355 . S
C183 C185 1.415 . S
C184 C183 1.355 . S
C184 C186 1.419 1_455 S
C185 C180 1.425 1_455 S
C185 C182 1.409 . S
C185 C183 1.415 . S
C186 H176 0.930 . S
C186 C184 1.419 1_655 S
C186 C187 1.362 . S
C187 H177 0.930 . S
C187 C180 1.409 . S
C187 C186 1.362 . S
H188 C194 0.930 . S
H189 C197 0.930 . S
H190 C198 0.930 . S
H191 C199 0.935 . S
H192 C202 0.930 . S
H193 C203 0.930 . S
C194 H188 0.930 . S
C194 C195 1.355 . S
C194 C196 1.415 . S
C195 C194 1.355 . S
C195 C197 1.419 1_545 S
C196 C194 1.415 . S
C196 C201 1.425 . S
C196 C203 1.409 . S
C197 H189 0.930 . S
C197 C195 1.419 1_565 S
C197 C198 1.362 . S
C198 H190 0.930 . S
C198 C197 1.362 . S
C198 C201 1.409 1_565 S
C199 H191 0.935 . S
C199 C200 1.349 1_565 S
C199 C201 1.415 1_565 S
C200 C199 1.349 1_545 S
C200 C202 1.419 . S
C201 C196 1.425 . S
C201 C198 1.409 1_545 S
C201 C199 1.415 1_545 S
C202 H192 0.930 . S
C202 C200 1.419 . S
C202 C203 1.362 . S
C203 H193 0.930 . S
C203 C196 1.409 . S
C203 C202 1.362 . S
H204 C210 0.930 . S
H205 C213 0.930 . S
H206 C214 0.930 . S
H207 C215 0.930 . S
H208 C218 0.930 . S
H209 C219 0.930 . S
C210 H204 0.930 . S
C210 C211 1.355 . S
C210 C212 1.415 . S
C211 C210 1.355 . S
C211 C213 1.419 . S
C212 C210 1.415 . S
C212 C217 1.425 . S
C212 C219 1.409 . S
C213 H205 0.930 . S
C213 C211 1.419 . S
C213 C214 1.362 . S
C214 H206 0.930 . S
C214 C213 1.362 . S
C214 C217 1.409 . S
C215 H207 0.930 . S
C215 C216 1.355 . S
C215 C217 1.415 . S
C216 C215 1.355 . S
C216 C218 1.419 . S
C217 C212 1.425 . S
C217 C214 1.409 . S
C217 C215 1.415 . S
C218 H208 0.930 . S
C218 C216 1.419 . S
C218 C219 1.362 . S
C219 H209 0.930 . S
C219 C212 1.409 . S
C219 C218 1.362 . S
H220 C226 0.930 1_565 S
H221 C229 0.930 . S
H222 C230 0.930 . S
H223 C231 0.930 . S
H224 C234 0.930 . S
H225 C235 0.930 . S
C226 H220 0.930 1_545 S
C226 C227 1.355 . S
C226 C228 1.415 . S
C227 C226 1.355 . S
C227 C229 1.419 . S
C228 C226 1.415 . S
C228 C233 1.425 . S
C228 C235 1.409 . S
C229 H221 0.930 . S
C229 C227 1.419 . S
C229 C230 1.362 . S
C230 H222 0.930 . S
C230 C229 1.362 . S
C230 C233 1.409 . S
C231 H223 0.930 . S
C231 C232 1.355 . S
C231 C233 1.415 . S
C232 C231 1.355 . S
C232 C234 1.419 . S
C233 C228 1.425 . S
C233 C230 1.409 . S
C233 C231 1.415 . S
C234 H224 0.930 . S
C234 C232 1.419 . S
C234 C235 1.362 . S
C235 H225 0.930 . S
C235 C228 1.409 . S
C235 C234 1.362 . S
H236 C242 0.930 . S
H237 C245 0.930 . S
H238 C246 0.930 . S
H239 C247 0.930 1_655 S
H240 C250 0.930 . S
H241 C251 0.930 . S
C242 H236 0.930 . S
C242 C243 1.355 . S
C242 C244 1.415 . S
C243 C242 1.355 . S
C243 C245 1.419 1_455 S
C244 C242 1.415 . S
C244 C249 1.425 . S
C244 C251 1.409 . S
C245 H237 0.930 . S
C245 C243 1.419 1_655 S
C245 C246 1.362 . S
C246 H238 0.930 . S
C246 C245 1.362 . S
C246 C249 1.409 1_655 S
C247 H239 0.930 1_455 S
C247 C248 1.355 . S
C247 C249 1.415 . S
C248 C247 1.355 . S
C248 C250 1.419 . S
C249 C244 1.425 . S
C249 C246 1.409 1_455 S
C249 C247 1.415 . S
C250 H240 0.930 . S
C250 C248 1.419 . S
C250 C251 1.362 . S
C251 H241 0.930 . S
C251 C244 1.409 . S
C251 C250 1.362 . S
C136 C101 1.340 . S
C131 C45 1.513 . S
C152 C121 1.464 . S
C147 C78 1.497 . S
C168 C100 1.437 . S
C163 C21 1.511 . S
C184 C122 1.515 . S
C179 C84 1.516 . S
C200 C114 1.492 . S
C195 C36 1.519 . S
C216 C107 1.462 . S
C211 C69 1.510 . S
C232 C115 1.194 . S
C227 C30 1.517 . S
C243 C93 1.523 . S
C248 C108 1.514 . S
