# Generated by pormake.
# Topology anh, (6,3)-cn, num edge types: 1
# Building blocks:
#     Node 0, Type 0, BuildingBlock: CUKXOW_clean_sbu_0, # of connection points: 6
#     Node 1, Type 0, BuildingBlock: CUKXOW_clean_sbu_0, # of connection points: 6
#     Node 2, Type 0, BuildingBlock: CUKXOW_clean_sbu_0, # of connection points: 6
#     Node 3, Type 1, BuildingBlock: BELTOD_clean_linker_0, # of connection points: 3
#     Node 4, Type 1, BuildingBlock: BELTOD_clean_linker_0, # of connection points: 3
#     Node 5, Type 1, BuildingBlock: BELTOD_clean_linker_0, # of connection points: 3
#     Node 6, Type 1, BuildingBlock: BELTOD_clean_linker_0, # of connection points: 3
#     Node 7, Type 1, BuildingBlock: BELTOD_clean_linker_0, # of connection points: 3
#     Node 8, Type 1, BuildingBlock: BELTOD_clean_linker_0, # of connection points: 3
#     Edge 9, Type (0, 1), None
#     Edge 10, Type (0, 1), None
#     Edge 11, Type (0, 1), None
#     Edge 12, Type (0, 1), None
#     Edge 13, Type (0, 1), None
#     Edge 14, Type (0, 1), None
#     Edge 15, Type (0, 1), None
#     Edge 16, Type (0, 1), None
#     Edge 17, Type (0, 1), None
#     Edge 18, Type (0, 1), None
#     Edge 19, Type (0, 1), None
#     Edge 20, Type (0, 1), None
#     Edge 21, Type (0, 1), None
#     Edge 22, Type (0, 1), None
#     Edge 23, Type (0, 1), None
#     Edge 24, Type (0, 1), None
#     Edge 25, Type (0, 1), None
#     Edge 26, Type (0, 1), None
# Relax obj value: 0.137
# Max RMSD: 0.190
# Mean RMSD: 0.138
data_MOF--net-anh--node1-CUKXOW_clean_sbu_0--node2-BELTOD_clean_linker_0--edge1-none
_symmetry_space_group_name_H-M    P1
_symmetry_Int_Tables_number       1
_symmetry_cell_setting            triclinic
loop_
_symmetry_equiv_pos_as_xyz
'x, y, z'
_cell_length_a     16.542787
_cell_length_b     15.806829
_cell_length_c     30.338373
_cell_angle_alpha  92.621355
_cell_angle_beta   91.223098
_cell_angle_gamma 109.44697
loop_
_atom_site_label
_atom_site_type_symbol
_atom_site_fract_x
_atom_site_fract_y
_atom_site_fract_z
_atom_type_partial_charge
Tb0 Tb 0.08293 0.68606 0.16523 0.0
C1 C 0.0592 0.54996 0.23884 0.0
Tb2 Tb 0.98859 0.48678 0.14094 0.0
O3 O 0.96021 0.70198 0.18655 0.0
O4 O 0.95901 0.60756 0.13785 0.0
O5 O 0.1084 0.62715 0.22452 0.0
C6 C 0.84652 0.34302 0.14117 0.0
O7 O 0.99839 0.49142 0.21324 0.0
C8 C 0.15642 0.5122 0.14797 0.0
C9 C 0.06619 0.61423 0.06551 0.0
O10 O 0.85945 0.41924 0.16287 0.0
O11 O 0.91342 0.34814 0.11799 0.0
O12 O 0.09666 0.43506 0.13821 0.0
O13 O 0.11834 0.5697 0.15388 0.0
O14 O 1.0059 0.53747 0.07467 0.0
O15 O 0.10918 0.67603 0.09617 0.0
C16 C 0.20388 0.84951 0.17271 0.0
O17 O 0.16814 0.80626 0.13622 0.0
O18 O 0.16772 0.80217 0.20521 0.0
C19 C 0.91028 0.63518 0.16159 0.0
Tb20 Tb 0.52113 0.94236 0.4924 0.0
C21 C 0.61341 0.99497 0.40233 0.0
Tb22 Tb 0.71423 0.05009 0.49295 0.0
O23 O 0.48262 0.0529 0.46792 0.0
O24 O 0.59913 0.07782 0.50175 0.0
O25 O 0.55092 0.93546 0.42254 0.0
C26 C 0.86426 0.1822 0.49767 0.0
O27 O 0.67868 0.05532 0.42426 0.0
C28 C 0.6705 0.87278 0.48454 0.0
C29 C 0.62208 0.00956 0.58458 0.0
O30 O 0.79014 0.19098 0.49093 0.0
O31 O 0.85403 0.09821 0.50306 0.0
O32 O 0.73809 0.92716 0.46718 0.0
O33 O 0.63677 0.92014 0.5067 0.0
O34 O 0.69442 0.0489 0.56394 0.0
O35 O 0.54725 0.96453 0.56359 0.0
C36 C 0.39577 0.78666 0.49147 0.0
O37 O 0.47232 0.79973 0.47798 0.0
O38 O 0.38716 0.86298 0.50473 0.0
C39 C 0.55664 0.11407 0.47872 0.0
Tb40 Tb 0.43209 0.42766 0.81357 0.0
C41 C 0.50487 0.44662 0.91298 0.0
Tb42 Tb 0.6184 0.50765 0.83682 0.0
O43 O 0.41013 0.28319 0.80928 0.0
O44 O 0.53099 0.3768 0.82607 0.0
O45 O 0.44469 0.45818 0.88626 0.0
C46 C 0.78584 0.58731 0.84183 0.0
O47 O 0.57748 0.44297 0.89717 0.0
C48 C 0.53148 0.62151 0.83994 0.0
C49 C 0.55875 0.46728 0.73526 0.0
O50 O 0.74727 0.51006 0.82115 0.0
O51 O 0.7312 0.61532 0.86211 0.0
O52 O 0.5889 0.6197 0.86895 0.0
O53 O 0.52384 0.55804 0.81182 0.0
O54 O 0.62296 0.49841 0.76507 0.0
O55 O 0.47729 0.43554 0.74625 0.0
C56 C 0.27936 0.44401 0.79955 0.0
O57 O 0.34253 0.46715 0.77322 0.0
O58 O 0.30053 0.40333 0.83179 0.0
C59 C 0.48966 0.29402 0.82032 0.0
P60 P 0.58178 1.0035 0.20178 0.0
H61 H 0.47595 0.95297 0.12051 0.0
H62 H 0.32039 0.88937 0.10832 0.0
H63 H 0.28649 0.95359 0.24503 0.0
H64 H 0.44173 0.02172 0.25647 0.0
H65 H 0.72874 0.03341 0.1449 0.0
H66 H 0.83441 0.16958 0.11956 0.0
H67 H 0.69977 0.32981 0.18359 0.0
H68 H 0.59308 0.19285 0.20832 0.0
H69 H 0.50656 0.86566 0.26307 0.0
H70 H 0.69177 0.13344 0.27032 0.0
O71 O 0.60018 0.9142 0.17855 0.0
H72 H 0.516 0.8618 0.34347 0.0
H73 H 0.70257 0.12966 0.35052 0.0
C74 C 0.47056 0.98892 0.18971 0.0
C75 C 0.43502 0.95685 0.14738 0.0
C76 C 0.34597 0.92073 0.14046 0.0
C77 C 0.29164 0.91505 0.17605 0.0
C78 C 0.32707 0.95647 0.21718 0.0
C79 C 0.41605 0.99455 0.22378 0.0
C80 C 0.65318 0.10309 0.17872 0.0
C81 C 0.72084 0.09758 0.15283 0.0
C82 C 0.78113 0.17543 0.13812 0.0
C83 C 0.77532 0.26013 0.14961 0.0
C84 C 0.70569 0.26524 0.17417 0.0
C85 C 0.64483 0.18721 0.18841 0.0
C86 C 0.59795 0.99998 0.26065 0.0
C87 C 0.54994 0.92332 0.28197 0.0
C88 C 0.55502 0.92136 0.32796 0.0
C89 C 0.60959 0.99559 0.35348 0.0
C90 C 0.65981 0.07128 0.33185 0.0
C91 C 0.65367 0.07364 0.28585 0.0
P92 P 0.65824 0.50392 0.54155 0.0
H93 H 0.73144 0.41105 0.47581 0.0
H94 H 0.69116 0.25242 0.45095 0.0
H95 H 0.45179 0.19634 0.51612 0.0
H96 H 0.4895 0.35518 0.53911 0.0
H97 H 0.72653 0.60284 0.46349 0.0
H98 H 0.73746 0.75436 0.44188 0.0
H99 H 0.57234 0.77427 0.54714 0.0
H100 H 0.5627 0.62608 0.56872 0.0
H101 H 0.75419 0.50707 0.62425 0.0
H102 H 0.49222 0.47323 0.58547 0.0
O103 O 0.76457 0.52808 0.54308 0.0
H104 H 0.71514 0.49155 0.70077 0.0
H105 H 0.45217 0.45546 0.66256 0.0
C106 C 0.61511 0.39563 0.51091 0.0
C107 C 0.6693 0.36545 0.48403 0.0
C108 C 0.64702 0.27434 0.47038 0.0
C109 C 0.57032 0.21168 0.48338 0.0
C110 C 0.51199 0.24316 0.50614 0.0
C111 C 0.53403 0.33446 0.5196 0.0
C112 C 0.64309 0.60144 0.51763 0.0
C113 C 0.69055 0.63879 0.48107 0.0
C114 C 0.69747 0.72581 0.46892 0.0
C115 C 0.65617 0.77672 0.49286 0.0
C116 C 0.60481 0.73701 0.52775 0.0
C117 C 0.59869 0.65092 0.54008 0.0
C118 C 0.62647 0.49171 0.59859 0.0
C119 C 0.68803 0.49608 0.63193 0.0
C120 C 0.66547 0.48692 0.676 0.0
C121 C 0.58037 0.47213 0.68794 0.0
C122 C 0.51816 0.46604 0.65451 0.0
C123 C 0.54112 0.47611 0.6103 0.0
P124 P 0.14992 0.72358 0.87809 0.0
H125 H 0.26252 0.72671 0.80533 0.0
H126 H 0.30514 0.6088 0.76807 0.0
H127 H 0.147 0.41428 0.85358 0.0
H128 H 0.10364 0.53074 0.88975 0.0
H129 H 1.02593 0.81154 0.89776 0.0
H130 H 0.87054 0.7434 0.88818 0.0
H131 H 0.90263 0.55261 0.78941 0.0
H132 H 0.05685 0.62288 0.79738 0.0
H133 H 0.24904 0.77292 0.9617 0.0
H134 H 0.99602 0.60097 0.9164 0.0
O135 O 0.22369 0.82545 0.87682 0.0
H136 H 0.21649 0.72572 0.03669 0.0
H137 H 0.96313 0.5536 -0.00881 0.0
C138 C 0.18465 0.63876 0.85215 0.0
C139 C 0.23725 0.65868 0.81596 0.0
C140 C 0.2592 0.59072 0.79389 0.0
C141 C 0.22922 0.50262 0.80832 0.0
C142 C 0.17057 0.48165 0.84191 0.0
C143 C 0.14816 0.54925 0.86358 0.0
C144 C 0.05252 0.71897 0.85025 0.0
C145 C 0.99956 0.75831 0.87235 0.0
C146 C 0.91104 0.71788 0.86766 0.0
C147 C 0.87628 0.63941 0.84027 0.0
C148 C 0.929 0.61037 0.81241 0.0
C149 C 1.01726 0.65141 0.81679 0.0
C150 C 0.12426 0.69307 0.9338 0.0
C151 C 0.18629 0.72594 0.96795 0.0
C152 C 0.1676 0.69827 0.01065 0.0
C153 C 0.08691 0.63612 0.01964 0.0
C154 C 1.02568 0.60126 0.98515 0.0
C155 C 0.04413 0.62985 0.94258 0.0
P156 P 0.16782 0.43642 0.41324 0.0
H157 H 0.32815 0.48483 0.46479 0.0
H158 H 0.42091 0.62884 0.49742 0.0
H159 H 0.22421 0.74591 0.47188 0.0
H160 H 0.13046 0.6003 0.43916 0.0
H161 H 0.14283 0.26481 0.45267 0.0
H162 H 1.02055 0.16238 0.4888 0.0
H163 H 0.8866 0.35392 0.47897 0.0
H164 H 1.0084 0.45527 0.44246 0.0
H165 H 0.24137 0.59223 0.36171 0.0
H166 H 1.01513 0.35568 0.35385 0.0
O167 O 0.23438 0.38143 0.39869 0.0
H168 H 0.19749 0.63932 0.29293 0.0
H169 H 0.971 0.40163 0.28372 0.0
C170 C 0.22415 0.53334 0.44821 0.0
C171 C 0.30389 0.54055 0.46723 0.0
C172 C 0.35652 0.62267 0.48611 0.0
C173 C 0.32967 0.69813 0.48633 0.0
C174 C 0.24581 0.68832 0.47211 0.0
C175 C 0.19284 0.60558 0.45312 0.0
C176 C 0.08293 0.36597 0.44381 0.0
C177 C 0.08741 0.28497 0.4587 0.0
C178 C 1.01819 0.22709 0.47982 0.0
C179 C 0.94441 0.25032 0.48631 0.0
C180 C 0.94294 0.33456 0.47425 0.0
C181 C 1.01198 0.39211 0.45309 0.0
C182 C 0.13027 0.47188 0.36361 0.0
C183 C 0.18118 0.55117 0.34556 0.0
C184 C 0.15591 0.57796 0.306 0.0
C185 C 0.08013 0.52469 0.28292 0.0
C186 C 1.02925 0.44464 0.3009 0.0
C187 C 0.05435 0.41833 0.34099 0.0
P188 P 0.63709 0.99879 0.78465 0.0
H189 H 0.71826 0.18831 0.81071 0.0
H190 H 0.65875 0.30945 0.8238 0.0
H191 H 0.40289 0.11488 0.81426 0.0
H192 H 0.46277 0.99397 0.80194 0.0
H193 H 0.55188 0.82542 0.73466 0.0
H194 H 0.50622 0.67213 0.75755 0.0
H195 H 0.55573 0.77055 0.894 0.0
H196 H 0.59894 0.92532 0.87089 0.0
H197 H 0.77097 0.04615 0.71944 0.0
H198 H 0.49505 0.96656 0.72041 0.0
O199 O 0.73876 0.02501 0.80301 0.0
H200 H 0.76508 0.05208 0.63925 0.0
H201 H 0.48829 0.97133 0.64013 0.0
C202 C 0.59482 0.08222 0.80609 0.0
C203 C 0.6495 0.17147 0.81298 0.0
C204 C 0.61556 0.24065 0.82017 0.0
C205 C 0.52642 0.22125 0.81965 0.0
C206 C 0.47195 0.13143 0.81469 0.0
C207 C 0.506 0.0623 0.80794 0.0
C208 C 0.57933 0.88734 0.80113 0.0
C209 C 0.54953 0.8149 0.76961 0.0
C210 C 0.52309 0.7266 0.78275 0.0
C211 C 0.52861 0.70957 0.82752 0.0
C212 C 0.55103 0.782 0.85924 0.0
C213 C 0.57609 0.87037 0.84608 0.0
C214 C 0.63337 0.0048 0.7257 0.0
C215 C 0.7091 0.03002 0.70239 0.0
C216 C 0.70559 0.03382 0.65652 0.0
C217 C 0.62612 0.01178 0.6333 0.0
C218 C 0.55046 0.98817 0.65699 0.0
C219 C 0.5542 0.98551 0.70287 0.0
P220 P 0.52108 0.50263 0.11468 0.0
H221 H 0.62148 0.56934 0.19999 0.0
H222 H 0.77677 0.61564 0.21869 0.0
H223 H 0.82871 0.61471 0.08033 0.0
H224 H 0.67652 0.57631 0.06177 0.0
H225 H 0.36982 0.38487 0.1561 0.0
H226 H 0.2268 0.38729 0.16723 0.0
H227 H 0.30138 0.66036 0.12809 0.0
H228 H 0.44885 0.65797 0.11636 0.0
H229 H 0.58119 0.39026 0.05387 0.0
H230 H 0.43301 0.56769 0.04307 0.0
O231 O 0.51621 0.40357 0.13361 0.0
H232 H 0.57496 0.36706 0.97357 0.0
H233 H 0.42407 0.54185 0.96265 0.0
C234 C 0.63464 0.56993 0.12924 0.0
C235 C 0.6662 0.58317 0.17355 0.0
C236 C 0.75549 0.60833 0.18429 0.0
C237 C 0.81592 0.61761 0.15105 0.0
C238 C 0.78465 0.60721 0.10694 0.0
C239 C 0.69631 0.58544 0.09631 0.0
C240 C 0.42301 0.52138 0.13549 0.0
C241 C 0.35808 0.44707 0.15092 0.0
C242 C 0.27461 0.44815 0.15719 0.0
C243 C 0.25115 0.52367 0.14857 0.0
C244 C 0.3167 0.60097 0.13558 0.0
C245 C 0.40157 0.59964 0.12892 0.0
C246 C 0.50754 0.48068 0.05501 0.0
C247 C 0.54577 0.42292 0.03441 0.0
C248 C 0.54213 0.40954 0.98839 0.0
C249 C 0.49836 0.45193 0.96174 0.0
C250 C 0.45715 0.50711 0.98233 0.0
C251 C 0.46267 0.52229 0.02851 0.0
loop_
_geom_bond_atom_site_label_1
_geom_bond_atom_site_label_2
_geom_bond_distance
_geom_bond_site_symmetry_2
_ccdc_geom_bond_type
Tb0 O3 2.453 1_455 S
Tb0 O4 2.596 1_455 S
Tb0 O5 2.374 . S
Tb0 O13 2.343 . S
Tb0 O15 2.353 . S
Tb0 O17 2.427 . S
Tb0 O18 2.513 . S
C1 O5 1.251 . S
C1 O7 1.263 . S
Tb2 O4 2.343 . S
Tb2 O7 2.353 1_655 S
Tb2 O10 2.427 . S
Tb2 O11 2.513 . S
Tb2 O12 2.453 1_655 S
Tb2 O13 2.596 1_655 S
Tb2 O14 2.374 1_655 S
O3 Tb0 2.453 1_655 S
O3 C19 1.245 . S
O4 Tb0 2.596 1_655 S
O4 Tb2 2.343 . S
O4 C19 1.259 . S
O5 Tb0 2.374 . S
O5 C1 1.251 . S
C6 O10 1.275 . S
C6 O11 1.246 . S
O7 C1 1.263 . S
O7 Tb2 2.353 1_455 S
C8 O12 1.245 . S
C8 O13 1.259 . S
C9 O14 1.250 . S
C9 O15 1.263 . S
O10 Tb2 2.427 . S
O10 C6 1.275 . S
O11 Tb2 2.513 . S
O11 C6 1.246 . S
O12 Tb2 2.453 1_455 S
O12 C8 1.245 . S
O13 Tb0 2.343 . S
O13 Tb2 2.596 1_455 S
O13 C8 1.259 . S
O14 Tb2 2.374 1_455 S
O14 C9 1.250 . S
O15 Tb0 2.353 . S
O15 C9 1.263 . S
C16 O17 1.275 . S
C16 O18 1.246 . S
O17 Tb0 2.427 . S
O17 C16 1.275 . S
O18 Tb0 2.513 . S
O18 C16 1.246 . S
C19 O3 1.245 . S
C19 O4 1.259 . S
Tb20 O23 2.460 . S
Tb20 O24 2.599 . S
Tb20 O25 2.374 . S
Tb20 O33 2.338 1_545 S
Tb20 O35 2.353 . S
Tb20 O37 2.422 1_545 S
Tb20 O38 2.508 1_545 S
C21 O25 1.251 . S
C21 O27 1.263 . S
Tb22 O24 2.343 . S
Tb22 O27 2.353 . S
Tb22 O30 2.427 . S
Tb22 O31 2.513 . S
Tb22 O32 2.453 1_545 S
Tb22 O33 2.596 1_545 S
Tb22 O34 2.374 . S
O23 Tb20 2.460 . S
O23 C39 1.245 . S
O24 Tb20 2.599 . S
O24 Tb22 2.343 . S
O24 C39 1.259 . S
O25 Tb20 2.374 . S
O25 C21 1.251 . S
C26 O30 1.275 . S
C26 O31 1.246 . S
O27 C21 1.263 . S
O27 Tb22 2.353 . S
C28 O32 1.245 . S
C28 O33 1.259 . S
C29 O34 1.250 . S
C29 O35 1.263 . S
O30 Tb22 2.427 . S
O30 C26 1.275 . S
O31 Tb22 2.513 . S
O31 C26 1.246 . S
O32 Tb22 2.453 1_565 S
O32 C28 1.245 . S
O33 Tb20 2.338 1_565 S
O33 Tb22 2.596 1_565 S
O33 C28 1.259 . S
O34 Tb22 2.374 . S
O34 C29 1.250 . S
O35 Tb20 2.353 . S
O35 C29 1.263 . S
C36 O37 1.275 . S
C36 O38 1.246 . S
O37 Tb20 2.422 1_565 S
O37 C36 1.275 . S
O38 Tb20 2.508 1_565 S
O38 C36 1.246 . S
C39 O23 1.245 . S
C39 O24 1.259 . S
Tb40 O43 2.453 . S
Tb40 O44 2.596 . S
Tb40 O45 2.374 . S
Tb40 O53 2.343 . S
Tb40 O55 2.353 . S
Tb40 O57 2.427 . S
Tb40 O58 2.513 . S
C41 O45 1.251 . S
C41 O47 1.263 . S
Tb42 O44 2.343 . S
Tb42 O47 2.353 . S
Tb42 O50 2.427 . S
Tb42 O51 2.513 . S
Tb42 O52 2.453 . S
Tb42 O53 2.596 . S
Tb42 O54 2.374 . S
O43 Tb40 2.453 . S
O43 C59 1.245 . S
O44 Tb40 2.596 . S
O44 Tb42 2.343 . S
O44 C59 1.259 . S
O45 Tb40 2.374 . S
O45 C41 1.251 . S
C46 O50 1.275 . S
C46 O51 1.246 . S
O47 C41 1.263 . S
O47 Tb42 2.353 . S
C48 O52 1.245 . S
C48 O53 1.259 . S
C49 O54 1.250 . S
C49 O55 1.263 . S
O50 Tb42 2.427 . S
O50 C46 1.275 . S
O51 Tb42 2.513 . S
O51 C46 1.246 . S
O52 Tb42 2.453 . S
O52 C48 1.245 . S
O53 Tb40 2.343 . S
O53 Tb42 2.596 . S
O53 C48 1.259 . S
O54 Tb42 2.374 . S
O54 C49 1.250 . S
O55 Tb40 2.353 . S
O55 C49 1.263 . S
C56 O57 1.275 . S
C56 O58 1.246 . S
O57 Tb40 2.427 . S
O57 C56 1.275 . S
O58 Tb40 2.513 . S
O58 C56 1.246 . S
C59 O43 1.245 . S
C59 O44 1.259 . S
P60 O71 1.490 . S
P60 C74 1.812 . S
P60 C80 1.803 1_565 S
P60 C86 1.819 1_565 S
H61 C75 0.941 . S
H62 C76 0.939 . S
H63 C78 0.940 . S
H64 C79 0.940 . S
H65 C81 0.939 . S
H66 C82 0.942 . S
H67 C84 0.940 . S
H68 C85 0.939 . S
H69 C87 0.941 . S
H70 C91 0.939 . S
O71 P60 1.490 . S
H72 C88 0.939 . S
H73 C90 0.940 . S
C74 P60 1.812 . S
C74 C75 1.389 . S
C74 C79 1.391 . S
C75 H61 0.941 . S
C75 C74 1.389 . S
C75 C76 1.397 . S
C76 H62 0.939 . S
C76 C75 1.397 . S
C76 C77 1.378 . S
C77 C76 1.378 . S
C77 C78 1.378 . S
C78 H63 0.940 . S
C78 C77 1.378 . S
C78 C79 1.396 . S
C79 H64 0.940 . S
C79 C74 1.391 . S
C79 C78 1.396 . S
C80 P60 1.803 1_545 S
C80 C81 1.378 . S
C80 C85 1.400 . S
C81 H65 0.939 . S
C81 C80 1.378 . S
C81 C82 1.361 . S
C82 H66 0.942 . S
C82 C81 1.361 . S
C82 C83 1.369 . S
C83 C82 1.369 . S
C83 C84 1.404 . S
C84 H67 0.940 . S
C84 C83 1.404 . S
C84 C85 1.389 . S
C85 H68 0.939 . S
C85 C80 1.400 . S
C85 C84 1.389 . S
C86 P60 1.819 1_545 S
C86 C87 1.391 1_545 S
C86 C91 1.391 . S
C87 H69 0.941 . S
C87 C86 1.391 1_565 S
C87 C88 1.396 . S
C88 H72 0.939 . S
C88 C87 1.396 . S
C88 C89 1.397 1_565 S
C89 C88 1.397 1_545 S
C89 C90 1.385 . S
C90 H73 0.940 . S
C90 C89 1.385 . S
C90 C91 1.388 . S
C91 H70 0.939 . S
C91 C86 1.391 . S
C91 C90 1.388 . S
P92 O103 1.490 . S
P92 C106 1.812 . S
P92 C112 1.803 . S
P92 C118 1.819 . S
H93 C107 0.941 . S
H94 C108 0.939 . S
H95 C110 0.940 . S
H96 C111 0.940 . S
H97 C113 0.939 . S
H98 C114 0.942 . S
H99 C116 0.940 . S
H100 C117 0.939 . S
H101 C119 0.941 . S
H102 C123 0.939 . S
O103 P92 1.490 . S
H104 C120 0.939 . S
H105 C122 0.940 . S
C106 P92 1.812 . S
C106 C107 1.389 . S
C106 C111 1.391 . S
C107 H93 0.941 . S
C107 C106 1.389 . S
C107 C108 1.397 . S
C108 H94 0.939 . S
C108 C107 1.397 . S
C108 C109 1.378 . S
C109 C108 1.378 . S
C109 C110 1.378 . S
C110 H95 0.940 . S
C110 C109 1.378 . S
C110 C111 1.396 . S
C111 H96 0.940 . S
C111 C106 1.391 . S
C111 C110 1.396 . S
C112 P92 1.803 . S
C112 C113 1.378 . S
C112 C117 1.400 . S
C113 H97 0.939 . S
C113 C112 1.378 . S
C113 C114 1.361 . S
C114 H98 0.942 . S
C114 C113 1.361 . S
C114 C115 1.369 . S
C115 C114 1.369 . S
C115 C116 1.404 . S
C116 H99 0.940 . S
C116 C115 1.404 . S
C116 C117 1.389 . S
C117 H100 0.939 . S
C117 C112 1.400 . S
C117 C116 1.389 . S
C118 P92 1.819 . S
C118 C119 1.391 . S
C118 C123 1.391 . S
C119 H101 0.941 . S
C119 C118 1.391 . S
C119 C120 1.396 . S
C120 H104 0.939 . S
C120 C119 1.396 . S
C120 C121 1.397 . S
C121 C120 1.397 . S
C121 C122 1.385 . S
C122 H105 0.940 . S
C122 C121 1.385 . S
C122 C123 1.388 . S
C123 H102 0.939 . S
C123 C118 1.391 . S
C123 C122 1.388 . S
P124 O135 1.490 . S
P124 C138 1.812 . S
P124 C144 1.803 . S
P124 C150 1.819 . S
H125 C139 0.941 . S
H126 C140 0.939 . S
H127 C142 0.940 . S
H128 C143 0.940 . S
H129 C145 0.939 . S
H130 C146 0.942 . S
H131 C148 0.940 . S
H132 C149 0.939 1_455 S
H133 C151 0.941 . S
H134 C155 0.939 1_655 S
O135 P124 1.490 . S
H136 C152 0.939 . S
H137 C154 0.931 1_654 S
C138 P124 1.812 . S
C138 C139 1.389 . S
C138 C143 1.391 . S
C139 H125 0.941 . S
C139 C138 1.389 . S
C139 C140 1.397 . S
C140 H126 0.939 . S
C140 C139 1.397 . S
C140 C141 1.378 . S
C141 C140 1.378 . S
C141 C142 1.378 . S
C142 H127 0.940 . S
C142 C141 1.378 . S
C142 C143 1.396 . S
C143 H128 0.940 . S
C143 C138 1.391 . S
C143 C142 1.396 . S
C144 P124 1.803 . S
C144 C145 1.378 1_455 S
C144 C149 1.400 1_455 S
C145 H129 0.939 . S
C145 C144 1.378 1_655 S
C145 C146 1.361 . S
C146 H130 0.942 . S
C146 C145 1.361 . S
C146 C147 1.369 . S
C147 C146 1.369 . S
C147 C148 1.404 . S
C148 H131 0.940 . S
C148 C147 1.404 . S
C148 C149 1.389 . S
C149 H132 0.939 1_655 S
C149 C144 1.400 1_655 S
C149 C148 1.389 . S
C150 P124 1.819 . S
C150 C151 1.391 . S
C150 C155 1.391 . S
C151 H133 0.941 . S
C151 C150 1.391 . S
C151 C152 1.396 1_556 S
C152 H136 0.939 . S
C152 C151 1.396 1_554 S
C152 C153 1.397 . S
C153 C152 1.397 . S
C153 C154 1.378 1_554 S
C154 H137 0.931 1_456 S
C154 C153 1.378 1_556 S
C154 C155 1.404 . S
C155 H134 0.939 1_455 S
C155 C150 1.391 . S
C155 C154 1.404 . S
P156 O167 1.490 . S
P156 C170 1.812 . S
P156 C176 1.803 1_455 S
P156 C182 1.819 . S
H157 C171 0.941 . S
H158 C172 0.939 . S
H159 C174 0.940 . S
H160 C175 0.940 . S
H161 C177 0.939 . S
H162 C178 0.942 . S
H163 C180 0.940 . S
H164 C181 0.939 . S
H165 C183 0.941 . S
H166 C187 0.939 . S
O167 P156 1.490 . S
H168 C184 0.939 . S
H169 C186 0.940 . S
C170 P156 1.812 . S
C170 C171 1.389 . S
C170 C175 1.391 . S
C171 H157 0.941 . S
C171 C170 1.389 . S
C171 C172 1.397 . S
C172 H158 0.939 . S
C172 C171 1.397 . S
C172 C173 1.378 . S
C173 C172 1.378 . S
C173 C174 1.378 . S
C174 H159 0.940 . S
C174 C173 1.378 . S
C174 C175 1.396 . S
C175 H160 0.940 . S
C175 C170 1.391 . S
C175 C174 1.396 . S
C176 P156 1.803 1_655 S
C176 C177 1.378 . S
C176 C181 1.400 . S
C177 H161 0.939 . S
C177 C176 1.378 . S
C177 C178 1.361 . S
C178 H162 0.942 . S
C178 C177 1.361 . S
C178 C179 1.369 . S
C179 C178 1.369 . S
C179 C180 1.404 . S
C180 H163 0.940 . S
C180 C179 1.404 . S
C180 C181 1.389 . S
C181 H164 0.939 . S
C181 C176 1.400 . S
C181 C180 1.389 . S
C182 P156 1.819 . S
C182 C183 1.391 . S
C182 C187 1.391 1_455 S
C183 H165 0.941 . S
C183 C182 1.391 . S
C183 C184 1.396 . S
C184 H168 0.939 . S
C184 C183 1.396 . S
C184 C185 1.397 . S
C185 C184 1.397 . S
C185 C186 1.385 1_455 S
C186 H169 0.940 . S
C186 C185 1.385 1_655 S
C186 C187 1.388 . S
C187 H166 0.939 . S
C187 C182 1.391 1_655 S
C187 C186 1.388 . S
P188 O199 1.490 . S
P188 C202 1.812 . S
P188 C208 1.803 1_545 S
P188 C214 1.819 . S
H189 C203 0.941 . S
H190 C204 0.939 . S
H191 C206 0.940 . S
H192 C207 0.940 . S
H193 C209 0.939 . S
H194 C210 0.942 . S
H195 C212 0.940 . S
H196 C213 0.939 . S
H197 C215 0.941 . S
H198 C219 0.939 . S
O199 P188 1.490 . S
H200 C216 0.939 . S
H201 C218 0.940 . S
C202 P188 1.812 . S
C202 C203 1.389 . S
C202 C207 1.391 . S
C203 H189 0.941 . S
C203 C202 1.389 . S
C203 C204 1.397 . S
C204 H190 0.939 . S
C204 C203 1.397 . S
C204 C205 1.378 . S
C205 C204 1.378 . S
C205 C206 1.378 . S
C206 H191 0.940 . S
C206 C205 1.378 . S
C206 C207 1.396 . S
C207 H192 0.940 . S
C207 C202 1.391 . S
C207 C206 1.396 . S
C208 P188 1.803 1_565 S
C208 C209 1.378 . S
C208 C213 1.400 . S
C209 H193 0.939 . S
C209 C208 1.378 . S
C209 C210 1.361 . S
C210 H194 0.942 . S
C210 C209 1.361 . S
C210 C211 1.369 . S
C211 C210 1.369 . S
C211 C212 1.404 . S
C212 H195 0.940 . S
C212 C211 1.404 . S
C212 C213 1.389 . S
C213 H196 0.939 . S
C213 C208 1.400 . S
C213 C212 1.389 . S
C214 P188 1.819 . S
C214 C215 1.391 . S
C214 C219 1.391 1_545 S
C215 H197 0.941 . S
C215 C214 1.391 . S
C215 C216 1.396 . S
C216 H200 0.939 . S
C216 C215 1.396 . S
C216 C217 1.397 . S
C217 C216 1.397 . S
C217 C218 1.385 1_545 S
C218 H201 0.940 . S
C218 C217 1.385 1_565 S
C218 C219 1.388 . S
C219 H198 0.939 . S
C219 C214 1.391 1_565 S
C219 C218 1.388 . S
P220 O231 1.490 . S
P220 C234 1.812 . S
P220 C240 1.803 . S
P220 C246 1.819 . S
H221 C235 0.941 . S
H222 C236 0.939 . S
H223 C238 0.940 . S
H224 C239 0.940 . S
H225 C241 0.939 . S
H226 C242 0.942 . S
H227 C244 0.940 . S
H228 C245 0.939 . S
H229 C247 0.941 . S
H230 C251 0.939 . S
O231 P220 1.490 . S
H232 C248 0.939 . S
H233 C250 0.938 1_556 S
C234 P220 1.812 . S
C234 C235 1.389 . S
C234 C239 1.391 . S
C235 H221 0.941 . S
C235 C234 1.389 . S
C235 C236 1.397 . S
C236 H222 0.939 . S
C236 C235 1.397 . S
C236 C237 1.378 . S
C237 C236 1.378 . S
C237 C238 1.378 . S
C238 H223 0.940 . S
C238 C237 1.378 . S
C238 C239 1.396 . S
C239 H224 0.940 . S
C239 C234 1.391 . S
C239 C238 1.396 . S
C240 P220 1.803 . S
C240 C241 1.378 . S
C240 C245 1.400 . S
C241 H225 0.939 . S
C241 C240 1.378 . S
C241 C242 1.361 . S
C242 H226 0.942 . S
C242 C241 1.361 . S
C242 C243 1.369 . S
C243 C242 1.369 . S
C243 C244 1.404 . S
C244 H227 0.940 . S
C244 C243 1.404 . S
C244 C245 1.389 . S
C245 H228 0.939 . S
C245 C240 1.400 . S
C245 C244 1.389 . S
C246 P220 1.819 . S
C246 C247 1.391 . S
C246 C251 1.391 . S
C247 H229 0.941 . S
C247 C246 1.391 . S
C247 C248 1.396 1_554 S
C248 H232 0.939 . S
C248 C247 1.396 1_556 S
C248 C249 1.397 . S
C249 C248 1.397 . S
C249 C250 1.378 1_556 S
C250 H233 0.938 1_554 S
C250 C249 1.378 1_554 S
C250 C251 1.397 . S
C251 H230 0.939 . S
C251 C246 1.391 . S
C251 C250 1.397 . S
C8 C243 2.646 . S
C26 C179 1.298 . S
C48 C211 1.742 . S
C19 C237 2.623 . S
C173 C36 1.515 . S
C205 C59 2.158 . S
C28 C115 1.808 . S
C46 C147 1.161 . S
C16 C77 1.620 . S
C109 C39 2.145 . S
C141 C56 0.765 . S
C6 C83 1.512 . S
C153 C9 1.451 . S
C21 C89 1.459 . S
C49 C121 1.418 . S
C217 C29 1.452 . S
C249 C41 1.693 . S
C1 C185 1.435 . S
