# Generated by pormake.
# Topology zzz, (3,6)-cn, num edge types: 1
# Building blocks:
#     Node 0, Type 0, BuildingBlock: PAMTOO_clean_linker_0, # of connection points: 3
#     Node 1, Type 0, BuildingBlock: PAMTOO_clean_linker_0, # of connection points: 3
#     Node 2, Type 0, BuildingBlock: PAMTOO_clean_linker_0, # of connection points: 3
#     Node 3, Type 0, BuildingBlock: PAMTOO_clean_linker_0, # of connection points: 3
#     Node 4, Type 0, BuildingBlock: PAMTOO_clean_linker_0, # of connection points: 3
#     Node 5, Type 0, BuildingBlock: PAMTOO_clean_linker_0, # of connection points: 3
#     Node 6, Type 0, BuildingBlock: PAMTOO_clean_linker_0, # of connection points: 3
#     Node 7, Type 0, BuildingBlock: PAMTOO_clean_linker_0, # of connection points: 3
#     Node 8, Type 1, BuildingBlock: VOLQOD_clean_sbu_1, # of connection points: 6
#     Node 9, Type 1, BuildingBlock: VOLQOD_clean_sbu_1, # of connection points: 6
#     Node 10, Type 1, BuildingBlock: VOLQOD_clean_sbu_1, # of connection points: 6
#     Node 11, Type 1, BuildingBlock: VOLQOD_clean_sbu_1, # of connection points: 6
#     Edge 12, Type (0, 1), None
#     Edge 13, Type (0, 1), None
#     Edge 14, Type (0, 1), None
#     Edge 15, Type (0, 1), None
#     Edge 16, Type (0, 1), None
#     Edge 17, Type (0, 1), None
#     Edge 18, Type (0, 1), None
#     Edge 19, Type (0, 1), None
#     Edge 20, Type (0, 1), None
#     Edge 21, Type (0, 1), None
#     Edge 22, Type (0, 1), None
#     Edge 23, Type (0, 1), None
#     Edge 24, Type (0, 1), None
#     Edge 25, Type (0, 1), None
#     Edge 26, Type (0, 1), None
#     Edge 27, Type (0, 1), None
#     Edge 28, Type (0, 1), None
#     Edge 29, Type (0, 1), None
#     Edge 30, Type (0, 1), None
#     Edge 31, Type (0, 1), None
#     Edge 32, Type (0, 1), None
#     Edge 33, Type (0, 1), None
#     Edge 34, Type (0, 1), None
#     Edge 35, Type (0, 1), None
# Relax obj value: 0.162
# Max RMSD: 0.223
# Mean RMSD: 0.109
data_MOF--net-zzz--node1-VOLQOD_clean_sbu_1--node2-PAMTOO_clean_linker_0--edge1-none
_symmetry_space_group_name_H-M    P1
_symmetry_Int_Tables_number       1
_symmetry_cell_setting            triclinic
loop_
_symmetry_equiv_pos_as_xyz
'x, y, z'
_cell_length_a     22.171302
_cell_length_b     22.000787
_cell_length_c     9.0649113
_cell_angle_alpha  89.759223
_cell_angle_beta   90.427634
_cell_angle_gamma 92.359004
loop_
_atom_site_label
_atom_site_type_symbol
_atom_site_fract_x
_atom_site_fract_y
_atom_site_fract_z
_atom_type_partial_charge
H0 H 0.97563 0.46002 0.13933 0.0
H1 H 0.86761 0.52701 0.78489 0.0
H2 H 0.88607 0.62869 0.18862 0.0
H3 H 0.76924 0.67997 -0.01819 0.0
C4 C 0.77365 0.63134 -0.04708 0.0
O5 O 0.83366 0.62275 0.92001 0.0
H6 H 0.76028 0.60411 0.05221 0.0
C7 C 0.94458 0.49317 0.09824 0.0
C8 C 0.93322 0.54412 0.18417 0.0
C9 C 0.92474 0.48823 -0.04774 0.0
C10 C 0.88335 0.5297 0.89822 0.0
C11 C 0.86797 0.57971 -0.01634 0.0
C12 C 0.89499 0.5884 0.12554 0.0
H13 H 0.11091 0.94877 0.11819 0.0
H14 H 0.09491 0.79159 0.84711 0.0
H15 H 1.0037 0.7914 0.26423 0.0
H16 H 0.98411 0.74886 0.84076 0.0
C17 C 0.99091 0.70961 0.91629 0.0
O18 O 1.03156 0.7248 0.02909 0.0
H19 H 0.94694 0.69609 -0.03313 0.0
C20 C 0.0953 0.90167 0.10603 0.0
C21 C 0.05586 0.8743 0.21074 0.0
C22 C 0.10423 0.87479 -0.02993 0.0
C23 C 0.08766 0.81324 -0.04763 0.0
C24 C 0.05169 0.78268 0.05787 0.0
C25 C 1.03419 0.81375 0.18646 0.0
H26 H 0.63267 0.14528 0.12971 0.0
H27 H 0.76215 0.09777 0.80923 0.0
H28 H 0.75558 1.00283 0.22577 0.0
H29 H 0.78555 0.98541 0.78306 0.0
C30 C 0.82418 0.98234 0.86146 0.0
O31 O 0.81939 1.02281 -0.02191 0.0
H32 H 0.82405 0.93525 0.90625 0.0
C33 C 0.66983 0.11747 0.09903 0.0
C34 C 0.68867 0.07126 0.19358 0.0
C35 C 0.69068 0.12237 -0.04411 0.0
C36 C 0.74311 0.09231 0.91847 0.0
C37 C 0.76781 0.05012 0.01623 0.0
C38 C 0.73898 1.03764 0.15302 0.0
H39 H 0.50387 0.65369 0.13882 0.0
H40 H 0.51334 0.8112 0.86534 0.0
H41 H 0.60719 0.81409 0.28223 0.0
H42 H 0.63175 0.8501 0.87281 0.0
C43 C 0.62062 0.89184 -0.06563 0.0
O44 O 0.57786 0.87878 0.04266 0.0
H45 H 0.66295 0.90991 -0.01248 0.0
C46 C 0.51778 0.70126 0.12614 0.0
C47 C 0.55684 0.7299 0.23097 0.0
C48 C 0.50679 0.72801 -0.01014 0.0
C49 C 0.52157 0.7899 -0.02875 0.0
C50 C 0.55766 0.82128 0.07567 0.0
C51 C 0.57661 0.79095 0.20533 0.0
H52 H 0.15937 0.60918 0.15586 0.0
H53 H 0.31517 0.60033 0.43271 0.0
H54 H 0.31018 0.50492 0.0197 0.0
H55 H 0.40038 0.44953 0.30354 0.0
C56 C 0.39127 0.49276 0.36057 0.0
O57 O 0.37833 0.53674 0.25531 0.0
H58 H 0.35231 0.48375 0.43553 0.0
C59 C 0.20542 0.59528 0.17077 0.0
C60 C 0.23044 0.55525 0.06932 0.0
C61 C 0.23285 0.60683 0.30679 0.0
C62 C 0.29321 0.59158 0.3272 0.0
C63 C 0.32164 0.55505 0.22452 0.0
C64 C 0.28968 0.53566 0.09571 0.0
H65 H 0.99338 0.10769 0.11719 0.0
H66 H 1.01581 0.25382 0.42725 0.0
H67 H 0.12354 0.25369 0.03302 0.0
H68 H 0.18162 0.3256 0.37804 0.0
C69 C 0.13321 0.32129 0.40877 0.0
O70 O 0.0987 0.31393 0.28092 0.0
H71 H 0.12721 0.28151 0.48429 0.0
C72 C 1.01567 0.15039 0.15069 0.0
C73 C 0.05976 0.17693 0.05933 0.0
C74 C 1.00066 0.17624 0.28486 0.0
C75 C 1.02751 0.23255 0.32431 0.0
C76 C 0.07321 0.25976 0.23715 0.0
C77 C 0.08999 0.2317 0.10367 0.0
H78 H 0.44417 0.97408 0.09526 0.0
H79 H 0.306 0.99848 0.41372 0.0
H80 H 0.30101 0.09491 -3e-05 0.0
H81 H 0.22122 0.15142 0.29196 0.0
C82 C 0.22809 0.10742 0.34897 0.0
O83 O 0.23822 0.06369 0.24276 0.0
H84 H 0.26735 0.11269 0.42589 0.0
C85 C 0.40059 0.99173 0.12295 0.0
C86 C 0.37628 1.03591 0.03071 0.0
C87 C 0.38051 0.9846 0.2679 0.0
C88 C 0.32344 1.00533 0.30323 0.0
C89 C 0.29358 1.04418 0.20592 0.0
C90 C 0.32182 0.06226 0.07186 0.0
H91 H 0.62474 0.49868 0.15029 0.0
H92 H 0.5981 0.35468 0.46689 0.0
H93 H 0.49167 0.35517 0.06657 0.0
H94 H 0.43333 0.2838 0.41022 0.0
C95 C 0.48198 0.28339 0.4399 0.0
O96 O 0.51627 0.29421 0.31402 0.0
H97 H 0.49177 0.31881 0.52508 0.0
C98 C 0.6013 0.45675 0.18496 0.0
C99 C 0.55679 0.43072 0.09247 0.0
C100 C 0.61538 0.4313 0.32161 0.0
C101 C 0.5868 0.37598 0.36286 0.0
C102 C 0.54093 0.34922 0.27402 0.0
C103 C 0.52516 0.37703 0.13839 0.0
O104 O 0.17683 0.06779 0.56613 0.0
Zn105 Zn 0.11244 1.04557 0.72422 0.0
O106 O 1.0343 1.03207 0.62592 0.0
Zn107 Zn 0.97698 0.09297 0.68487 0.0
Zn108 Zn 1.04297 1.04624 0.42286 0.0
Zn109 Zn 0.99719 0.94934 0.63291 0.0
O110 O 0.9001 0.05184 0.76319 0.0
O111 O 0.91253 0.95255 0.72802 0.0
O112 O 0.10768 0.11448 0.88181 0.0
O113 O 1.01328 0.14136 0.84657 0.0
O114 O 0.96627 0.15518 0.52399 0.0
O115 O 0.96528 0.08155 0.36703 0.0
O116 O 0.05088 0.97026 0.31979 0.0
O117 O 0.12831 0.96605 0.83587 0.0
O118 O 1.00586 0.89571 0.44421 0.0
O119 O 1.04755 0.9073 0.77464 0.0
C120 C 0.17199 0.08923 0.43493 0.0
C121 C 0.88213 0.99626 0.77838 0.0
C122 C 0.96607 0.13808 0.39082 0.0
C123 C 0.0637 0.14799 0.91319 0.0
C124 C 1.03562 0.91446 0.33185 0.0
C125 C 0.09727 0.91566 0.84357 0.0
O126 O 0.12059 0.09328 0.37189 0.0
O127 O 0.4966 0.21194 0.64121 0.0
Zn128 Zn 0.5149 0.13332 0.75782 0.0
O129 O 0.53601 0.06647 0.62679 0.0
Zn130 Zn 0.48883 0.99167 0.66843 0.0
Zn131 Zn 0.5253 0.09288 0.43396 0.0
Zn132 Zn 0.62257 0.05011 0.63699 0.0
O133 O 0.54335 0.93138 0.77505 0.0
O134 O 0.63306 0.98167 0.78485 0.0
O135 O 0.44236 0.10429 0.89293 0.0
O136 O 0.42734 1.00869 0.81921 0.0
O137 O 0.43709 0.96345 0.49008 0.0
O138 O 0.45914 1.04545 0.353 0.0
O139 O 0.59733 0.08059 0.31714 0.0
O140 O 0.5922 0.14558 0.87987 0.0
O141 O 0.66862 1.03678 0.44412 0.0
O142 O 0.65956 0.12765 0.7104 0.0
C143 C 0.49595 0.22183 0.50199 0.0
C144 C 0.5976 0.9374 0.82457 0.0
C145 C 0.42869 0.99643 0.37609 0.0
C146 C 0.41266 0.05298 0.8989 0.0
C147 C 0.6497 0.0595 0.32421 0.0
C148 C 0.64755 0.1418 0.84153 0.0
O149 O 0.50575 0.17971 0.4113 0.0
O150 O 0.43969 0.53418 0.58139 0.0
Zn151 Zn 0.50267 0.55805 0.74485 0.0
O152 O 0.58149 0.57341 0.65226 0.0
Zn153 Zn 0.64073 0.51458 0.71874 0.0
Zn154 Zn 0.57438 0.55903 0.44855 0.0
Zn155 Zn 0.6163 0.65695 0.65927 0.0
O156 O 0.71489 0.55816 0.81132 0.0
O157 O 0.69851 0.65642 0.77115 0.0
O158 O 0.50814 0.49016 0.90635 0.0
O159 O 0.60383 0.46646 0.88062 0.0
O160 O 0.65356 0.45173 0.55977 0.0
O161 O 0.65323 0.52532 0.40158 0.0
O162 O 0.56524 0.63444 0.34255 0.0
O163 O 0.48424 0.63666 0.85529 0.0
O164 O 0.6074 0.71037 0.46775 0.0
O165 O 0.56335 0.69745 0.79524 0.0
C166 C 0.44615 0.51281 0.45111 0.0
C167 C 0.73004 0.61442 0.82806 0.0
C168 C 0.6521 0.46877 0.42606 0.0
C169 C 0.55322 0.4589 -0.05569 0.0
C170 C 0.5787 0.6906 0.35387 0.0
C171 C 0.51401 0.68775 0.86321 0.0
O172 O 0.49815 0.51041 0.39239 0.0
O173 O 0.99455 0.59558 0.37333 0.0
Zn174 Zn 0.06127 0.60431 0.54022 0.0
O175 O 0.07454 0.52638 0.63979 0.0
Zn176 Zn 0.05893 0.53053 0.84438 0.0
Zn177 Zn 1.01573 0.46413 0.5667 0.0
Zn178 Zn 0.15688 0.49693 0.64053 0.0
O179 O 0.13383 0.54136 -0.03879 0.0
O180 O 0.20887 0.50846 0.8305 0.0
O181 O 1.035 0.66531 0.69976 0.0
O182 O 1.01314 0.60488 0.89273 0.0
O183 O 1.0169 0.45087 0.8862 0.0
O184 O 0.94819 0.45192 0.71605 0.0
O185 O 0.05942 0.38942 0.4976 0.0
O186 O 0.14196 0.62699 0.43559 0.0
O187 O 0.1568 0.41286 0.54513 0.0
O188 O 0.19933 0.55068 0.50398 0.0
C189 C 0.96558 0.54735 0.32929 0.0
C190 C 0.18966 0.53233 -0.05214 0.0
C191 C 0.96148 0.45207 0.8523 0.0
C192 C 1.01378 0.6569 0.83011 0.0
C193 C 0.11535 0.37753 0.48975 0.0
C194 C 0.19194 0.59949 0.43262 0.0
O195 O 0.97323 0.49658 0.39284 0.0
loop_
_geom_bond_atom_site_label_1
_geom_bond_atom_site_label_2
_geom_bond_distance
_geom_bond_site_symmetry_2
_ccdc_geom_bond_type
H0 C7 0.929 . S
H1 C10 0.930 . S
H2 C12 0.929 . S
H3 C4 0.969 . S
C4 H3 0.969 . S
C4 O5 1.550 1_556 S
C4 H6 0.973 . S
O5 C4 1.550 1_554 S
O5 C11 1.412 . S
H6 C4 0.973 . S
C7 H0 0.929 . S
C7 C8 1.400 . S
C7 C9 1.364 1_554 S
C8 C7 1.400 . S
C8 C12 1.377 . S
C9 C7 1.364 1_556 S
C9 C10 1.374 . S
C10 H1 0.930 . S
C10 C9 1.374 . S
C10 C11 1.383 1_556 S
C11 O5 1.412 . S
C11 C10 1.383 1_554 S
C11 C12 1.394 . S
C12 H2 0.929 . S
C12 C8 1.377 . S
C12 C11 1.394 . S
H13 C20 0.929 . S
H14 C23 0.931 1_556 S
H15 C25 0.929 . S
H16 C17 0.969 . S
C17 H16 0.969 . S
C17 O18 1.550 1_456 S
C17 H19 0.973 1_455 S
O18 C17 1.550 1_654 S
O18 C24 1.410 1_655 S
H19 C17 0.973 1_655 S
C20 H13 0.929 . S
C20 C21 1.400 . S
C20 C22 1.364 . S
C21 C20 1.400 . S
C21 C25 1.377 1_455 S
C22 C20 1.364 . S
C22 C23 1.374 1_455 S
C23 H14 0.931 1_554 S
C23 C22 1.374 1_655 S
C23 C24 1.383 1_655 S
C24 O18 1.410 1_455 S
C24 C23 1.383 1_455 S
C24 C25 1.394 1_455 S
C25 H15 0.929 . S
C25 C21 1.377 1_655 S
C25 C24 1.394 1_655 S
H26 C33 0.929 . S
H27 C36 0.931 . S
H28 C38 0.929 1_565 S
H29 C30 0.969 . S
C30 H29 0.969 . S
C30 O31 1.550 1_546 S
C30 H32 0.973 1_545 S
O31 C30 1.550 1_564 S
O31 C37 1.412 1_565 S
H32 C30 0.973 1_565 S
C33 H26 0.929 . S
C33 C34 1.400 . S
C33 C35 1.364 1_554 S
C34 C33 1.400 . S
C34 C38 1.377 . S
C35 C33 1.364 1_556 S
C35 C36 1.374 1_545 S
C36 H27 0.931 . S
C36 C35 1.374 1_565 S
C36 C37 1.383 1_566 S
C37 O31 1.412 1_545 S
C37 C36 1.383 1_544 S
C37 C38 1.394 . S
C38 H28 0.929 1_545 S
C38 C34 1.377 . S
C38 C37 1.394 . S
H39 C46 0.929 . S
H40 C49 0.930 . S
H41 C51 0.929 . S
H42 C43 0.969 . S
C43 H42 0.969 . S
C43 O44 1.550 1_556 S
C43 H45 0.973 . S
O44 C43 1.550 1_554 S
O44 C50 1.412 . S
H45 C43 0.973 . S
C46 H39 0.929 . S
C46 C47 1.400 . S
C46 C48 1.364 1_554 S
C47 C46 1.400 . S
C47 C51 1.377 . S
C48 C46 1.364 1_556 S
C48 C49 1.374 . S
C49 H40 0.930 . S
C49 C48 1.374 . S
C49 C50 1.383 1_556 S
C50 O44 1.412 . S
C50 C49 1.383 1_554 S
C50 C51 1.394 . S
C51 H41 0.929 . S
C51 C47 1.377 . S
C51 C50 1.394 . S
H52 C59 0.929 . S
H53 C62 0.930 . S
H54 C64 0.929 . S
H55 C56 0.969 . S
C56 H55 0.969 . S
C56 O57 1.550 . S
C56 H58 0.973 . S
O57 C56 1.550 . S
O57 C63 1.412 . S
H58 C56 0.973 . S
C59 H52 0.929 . S
C59 C60 1.400 . S
C59 C61 1.364 . S
C60 C59 1.400 . S
C60 C64 1.377 . S
C61 C59 1.364 . S
C61 C62 1.374 . S
C62 H53 0.930 . S
C62 C61 1.374 . S
C62 C63 1.383 . S
C63 O57 1.412 . S
C63 C62 1.383 . S
C63 C64 1.394 . S
C64 H54 0.929 . S
C64 C60 1.377 . S
C64 C63 1.394 . S
H65 C72 0.929 . S
H66 C75 0.930 . S
H67 C77 0.929 . S
H68 C69 0.969 . S
C69 H68 0.969 . S
C69 O70 1.550 . S
C69 H71 0.973 . S
O70 C69 1.550 . S
O70 C76 1.412 . S
H71 C69 0.973 . S
C72 H65 0.929 . S
C72 C73 1.400 . S
C72 C74 1.364 . S
C73 C72 1.400 . S
C73 C77 1.377 . S
C74 C72 1.364 . S
C74 C75 1.374 . S
C75 H66 0.930 . S
C75 C74 1.374 . S
C75 C76 1.383 . S
C76 O70 1.412 . S
C76 C75 1.383 . S
C76 C77 1.394 . S
C77 H67 0.929 . S
C77 C73 1.377 . S
C77 C76 1.394 . S
H78 C85 0.929 . S
H79 C88 0.930 . S
H80 C90 0.929 . S
H81 C82 0.969 . S
C82 H81 0.969 . S
C82 O83 1.550 1_545 S
C82 H84 0.973 1_545 S
O83 C82 1.550 1_565 S
O83 C89 1.412 1_565 S
H84 C82 0.973 1_565 S
C85 H78 0.929 . S
C85 C86 1.400 . S
C85 C87 1.364 . S
C86 C85 1.400 . S
C86 C90 1.377 . S
C87 C85 1.364 . S
C87 C88 1.374 . S
C88 H79 0.930 . S
C88 C87 1.374 . S
C88 C89 1.383 . S
C89 O83 1.412 1_545 S
C89 C88 1.383 . S
C89 C90 1.394 . S
C90 H80 0.929 . S
C90 C86 1.377 . S
C90 C89 1.394 . S
H91 C98 0.929 . S
H92 C101 0.930 . S
H93 C103 0.929 . S
H94 C95 0.969 . S
C95 H94 0.969 . S
C95 O96 1.550 . S
C95 H97 0.973 . S
O96 C95 1.550 . S
O96 C102 1.412 . S
H97 C95 0.973 . S
C98 H91 0.929 . S
C98 C99 1.400 . S
C98 C100 1.364 . S
C99 C98 1.400 . S
C99 C103 1.377 . S
C100 C98 1.364 . S
C100 C101 1.374 . S
C101 H92 0.930 . S
C101 C100 1.374 . S
C101 C102 1.383 . S
C102 O96 1.412 . S
C102 C101 1.383 . S
C102 C103 1.394 . S
C103 H93 0.929 . S
C103 C99 1.377 . S
C103 C102 1.394 . S
O104 Zn105 1.954 . S
O104 C120 1.225 1_545 S
Zn105 O104 1.954 . S
Zn105 O106 1.949 1_545 S
Zn105 O112 1.928 1_556 S
Zn105 O117 1.913 1_546 S
O106 Zn105 1.949 1_565 S
O106 Zn107 1.923 1_465 S
O106 Zn108 1.950 . S
O106 Zn109 1.945 1_455 S
Zn107 O106 1.923 1_645 S
Zn107 O110 1.933 . S
Zn107 O113 1.941 . S
Zn107 O114 1.965 . S
Zn108 O106 1.950 . S
Zn108 O115 1.938 1_565 S
Zn108 O116 1.906 . S
Zn108 O126 1.953 . S
Zn109 O106 1.945 1_655 S
Zn109 O111 1.932 . S
Zn109 O118 1.977 . S
Zn109 O119 1.910 . S
O110 Zn107 1.933 . S
O110 C121 1.226 . S
O111 Zn109 1.932 . S
O111 C121 1.307 1_565 S
O112 Zn105 1.928 1_554 S
O112 C123 1.253 . S
O113 Zn107 1.941 . S
O113 C123 1.284 1_656 S
O114 Zn107 1.965 . S
O114 C122 1.303 1_655 S
O115 Zn108 1.938 1_545 S
O115 C122 1.247 . S
O116 Zn108 1.906 . S
O116 C124 1.304 1_455 S
O117 Zn105 1.913 1_564 S
O117 C125 1.311 . S
O118 Zn109 1.977 . S
O118 C124 1.272 . S
O119 Zn109 1.910 . S
O119 C125 1.231 1_656 S
C120 O104 1.225 1_565 S
C120 O126 1.298 . S
C121 O110 1.226 . S
C121 O111 1.307 1_545 S
C122 O114 1.303 1_455 S
C122 O115 1.247 . S
C123 O112 1.253 . S
C123 O113 1.284 1_454 S
C124 O116 1.304 1_655 S
C124 O118 1.272 . S
C125 O117 1.311 . S
C125 O119 1.231 1_454 S
O126 Zn108 1.953 . S
O126 C120 1.298 . S
O127 Zn128 1.953 . S
O127 C143 1.225 . S
Zn128 O127 1.953 . S
Zn128 O129 1.949 . S
Zn128 O135 1.919 1_556 S
Zn128 O140 1.924 . S
O129 Zn128 1.949 . S
O129 Zn130 1.923 1_545 S
O129 Zn131 1.950 . S
O129 Zn132 1.945 1_545 S
Zn130 O129 1.923 1_565 S
Zn130 O133 1.933 . S
Zn130 O136 1.941 . S
Zn130 O137 1.965 . S
Zn131 O129 1.950 . S
Zn131 O138 1.938 . S
Zn131 O139 1.906 . S
Zn131 O149 1.953 . S
Zn132 O129 1.945 1_565 S
Zn132 O134 1.932 . S
Zn132 O141 1.977 . S
Zn132 O142 1.905 1_565 S
O133 Zn130 1.933 . S
O133 C144 1.226 . S
O134 Zn132 1.932 . S
O134 C144 1.307 . S
O135 Zn128 1.919 1_554 S
O135 C146 1.253 . S
O136 Zn130 1.941 . S
O136 C146 1.283 1_566 S
O137 Zn130 1.965 . S
O137 C145 1.303 1_565 S
O138 Zn131 1.938 . S
O138 C145 1.247 . S
O139 Zn131 1.906 . S
O139 C147 1.304 1_545 S
O140 Zn128 1.924 . S
O140 C148 1.311 . S
O141 Zn132 1.977 . S
O141 C147 1.272 . S
O142 Zn132 1.905 1_545 S
O142 C148 1.241 . S
C143 O127 1.225 . S
C143 O149 1.298 . S
C144 O133 1.226 . S
C144 O134 1.307 . S
C145 O137 1.303 1_545 S
C145 O138 1.247 . S
C146 O135 1.253 . S
C146 O136 1.283 1_544 S
C147 O139 1.304 1_565 S
C147 O141 1.272 . S
C148 O140 1.311 . S
C148 O142 1.241 . S
O149 Zn131 1.953 . S
O149 C143 1.298 . S
O150 Zn151 1.953 . S
O150 C166 1.225 . S
Zn151 O150 1.953 . S
Zn151 O152 1.949 . S
Zn151 O158 1.919 1_556 S
Zn151 O163 1.924 . S
O152 Zn151 1.949 . S
O152 Zn153 1.923 . S
O152 Zn154 1.950 . S
O152 Zn155 1.945 . S
Zn153 O152 1.923 . S
Zn153 O156 1.933 . S
Zn153 O159 1.941 . S
Zn153 O160 1.965 . S
Zn154 O152 1.950 . S
Zn154 O161 1.938 . S
Zn154 O162 1.906 . S
Zn154 O172 1.953 . S
Zn155 O152 1.945 . S
Zn155 O157 1.932 . S
Zn155 O164 1.977 . S
Zn155 O165 1.910 . S
O156 Zn153 1.933 . S
O156 C167 1.226 . S
O157 Zn155 1.932 . S
O157 C167 1.307 . S
O158 Zn151 1.919 1_554 S
O158 C169 1.253 . S
O159 Zn153 1.941 . S
O159 C169 1.283 1_556 S
O160 Zn153 1.965 . S
O160 C168 1.303 . S
O161 Zn154 1.938 . S
O161 C168 1.247 . S
O162 Zn154 1.906 . S
O162 C170 1.304 . S
O163 Zn151 1.924 . S
O163 C171 1.311 . S
O164 Zn155 1.977 . S
O164 C170 1.272 . S
O165 Zn155 1.910 . S
O165 C171 1.231 . S
C166 O150 1.225 . S
C166 O172 1.298 . S
C167 O156 1.226 . S
C167 O157 1.307 . S
C168 O160 1.303 . S
C168 O161 1.247 . S
C169 O158 1.253 . S
C169 O159 1.283 1_554 S
C170 O162 1.304 . S
C170 O164 1.272 . S
C171 O163 1.311 . S
C171 O165 1.231 . S
O172 Zn154 1.953 . S
O172 C166 1.298 . S
O173 Zn174 1.953 1_655 S
O173 C189 1.225 . S
Zn174 O173 1.953 1_455 S
Zn174 O175 1.949 . S
Zn174 O181 1.919 . S
Zn174 O186 1.924 . S
O175 Zn174 1.949 . S
O175 Zn176 1.923 1_455 S
O175 Zn177 1.950 1_455 S
O175 Zn178 1.945 . S
Zn176 O175 1.923 1_655 S
Zn176 O179 1.933 1_656 S
Zn176 O182 1.941 . S
Zn176 O183 1.965 . S
Zn177 O175 1.950 1_655 S
Zn177 O184 1.938 . S
Zn177 O185 1.906 . S
Zn177 O195 1.953 . S
Zn178 O175 1.945 . S
Zn178 O180 1.932 . S
Zn178 O187 1.977 . S
Zn178 O188 1.910 . S
O179 Zn176 1.933 1_454 S
O179 C190 1.226 . S
O180 Zn178 1.932 . S
O180 C190 1.307 1_556 S
O181 Zn174 1.919 . S
O181 C192 1.253 . S
O182 Zn176 1.941 . S
O182 C192 1.281 1_655 S
O183 Zn176 1.965 . S
O183 C191 1.303 . S
O184 Zn177 1.938 . S
O184 C191 1.247 . S
O185 Zn177 1.906 . S
O185 C193 1.304 1_655 S
O186 Zn174 1.924 . S
O186 C194 1.311 . S
O187 Zn178 1.977 . S
O187 C193 1.272 . S
O188 Zn178 1.910 . S
O188 C194 1.231 . S
C189 O173 1.225 . S
C189 O195 1.298 . S
C190 O179 1.226 . S
C190 O180 1.307 1_554 S
C191 O183 1.303 . S
C191 O184 1.247 . S
C192 O181 1.253 . S
C192 O182 1.281 1_455 S
C193 O185 1.304 1_455 S
C193 O187 1.272 . S
C194 O186 1.311 . S
C194 O188 1.231 . S
O195 Zn177 1.953 . S
O195 C189 1.298 . S
C82 C120 1.683 1_545 S
C143 C95 1.761 . S
C166 C56 1.639 . S
C193 C69 1.551 . S
C121 C30 1.434 . S
C43 C144 1.393 . S
C4 C167 1.400 . S
C17 C192 1.470 . S
C122 C74 0.851 . S
C145 C87 0.663 . S
C168 C100 0.695 . S
C61 C194 1.064 . S
C22 C125 1.227 . S
C148 C35 1.280 . S
C171 C48 1.301 . S
C9 C191 0.864 . S
C73 C123 1.570 . S
C86 C146 1.528 . S
C169 C99 1.558 . S
C190 C60 1.557 . S
C21 C124 1.850 1_455 S
C147 C34 1.748 1_565 S
C170 C47 1.685 . S
C8 C189 1.809 . S
