# Generated by pormake.
# Topology sit, (3,6)-cn, num edge types: 1
# Building blocks:
#     Node 0, Type 0, BuildingBlock: MIDCAF_clean_linker_0, # of connection points: 3
#     Node 1, Type 0, BuildingBlock: MIDCAF_clean_linker_0, # of connection points: 3
#     Node 2, Type 0, BuildingBlock: MIDCAF_clean_linker_0, # of connection points: 3
#     Node 3, Type 0, BuildingBlock: MIDCAF_clean_linker_0, # of connection points: 3
#     Node 4, Type 1, BuildingBlock: MIDCAF_clean_sbu_0, # of connection points: 6
#     Node 5, Type 1, BuildingBlock: MIDCAF_clean_sbu_0, # of connection points: 6
#     Edge 6, Type (0, 1), None
#     Edge 7, Type (0, 1), None
#     Edge 8, Type (0, 1), None
#     Edge 9, Type (0, 1), None
#     Edge 10, Type (0, 1), None
#     Edge 11, Type (0, 1), None
#     Edge 12, Type (0, 1), None
#     Edge 13, Type (0, 1), None
#     Edge 14, Type (0, 1), None
#     Edge 15, Type (0, 1), None
#     Edge 16, Type (0, 1), None
#     Edge 17, Type (0, 1), None
# Relax obj value: 0.112
# Max RMSD: 0.194
# Mean RMSD: 0.108
data_MOF--net-sit--node1-MIDCAF_clean_sbu_0--node2-MIDCAF_clean_linker_0--edge1-none
_symmetry_space_group_name_H-M    P1
_symmetry_Int_Tables_number       1
_symmetry_cell_setting            triclinic
loop_
_symmetry_equiv_pos_as_xyz
'x, y, z'
_cell_length_a     16.951577
_cell_length_b     13.622438
_cell_length_c     28.144327
_cell_angle_alpha  90.026208
_cell_angle_beta   89.963422
_cell_angle_gamma 80.45901
loop_
_atom_site_label
_atom_site_type_symbol
_atom_site_fract_x
_atom_site_fract_y
_atom_site_fract_z
_atom_type_partial_charge
C0 C 0.76443 0.66292 0.81698 0.0
C1 C 0.70117 0.61984 0.83497 0.0
C2 C 0.71228 0.56222 0.87636 0.0
C3 C 0.78501 0.55084 0.90057 0.0
H4 H 0.90338 0.4167 0.01943 0.0
H5 H 0.89785 0.36847 0.10309 0.0
H6 H 0.09159 0.52705 0.13479 0.0
H7 H 0.09813 0.57461 0.05148 0.0
H8 H 0.20303 0.62576 -0.04273 0.0
H9 H 0.32553 0.65451 -0.08263 0.0
H10 H 0.20054 0.68965 0.7837 0.0
H11 H 0.07751 0.66297 0.82295 0.0
H12 H 0.88512 0.68631 0.82651 0.0
H13 H 0.75728 0.70526 0.78427 0.0
H14 H 0.6641 0.52771 0.89053 0.0
H15 H 0.79126 0.50704 -0.06714 0.0
N16 N -0.0704 0.54652 -0.04565 0.0
N17 N 0.06253 0.57252 -0.03953 0.0
N18 N -0.01085 0.61849 0.89102 0.0
C19 C -0.00181 0.53943 -0.02019 0.0
C20 C 0.05858 0.6116 -0.08415 0.0
C21 C -0.07562 0.58635 -0.08992 0.0
C22 C 0.00084 0.50028 0.02893 0.0
C23 C -0.05442 0.4401 0.04415 0.0
C24 C -0.05732 0.41175 0.09183 0.0
C25 C -0.00564 0.44398 0.12504 0.0
C26 C 0.05118 0.50124 0.10964 0.0
C27 C 0.05503 0.52821 0.06197 0.0
C28 C 0.13031 0.64126 0.89334 0.0
C29 C 0.20093 0.64179 -0.08044 0.0
C30 C 0.27092 0.65891 0.89693 0.0
C31 C 0.27131 0.67662 0.84789 0.0
C32 C 0.20069 0.67901 0.82185 0.0
C33 C 0.13054 0.66281 0.84441 0.0
C34 C 0.84833 0.59586 0.88337 0.0
C35 C 0.83757 0.65111 0.84095 0.0
C36 C 0.74874 0.90206 0.82177 0.0
C37 C 0.67809 0.90436 0.84782 0.0
C38 C 0.6784 0.92198 0.89688 0.0
C39 C 0.74835 0.93909 -0.08048 0.0
H40 H 0.85159 1.00543 0.05165 0.0
H41 H 0.85835 1.05278 0.135 0.0
H42 H 0.05133 1.2125 0.10301 0.0
H43 H 0.04555 1.16452 0.01932 0.0
H44 H 0.15788 1.07414 -0.06724 0.0
H45 H 0.28515 1.05341 0.89045 0.0
H46 H 0.19228 0.87568 0.78414 0.0
H47 H 0.06431 0.89469 0.82636 0.0
H48 H 0.87189 0.91816 0.82286 0.0
H49 H 0.74895 0.89148 0.78361 0.0
H50 H 0.62376 0.9263 -0.08267 0.0
H51 H 0.7462 0.95505 -0.04276 0.0
N52 N 0.88673 1.00828 -0.03953 0.0
N53 N 0.01964 1.03438 -0.04571 0.0
N54 N -0.03986 0.96254 0.89092 0.0
C55 C -0.04894 1.04136 -0.0202 0.0
C56 C 0.02488 0.99466 -0.09002 0.0
C57 C 0.8907 0.96933 -0.0842 0.0
C58 C -0.05154 1.08038 0.02896 0.0
C59 C 0.89455 1.05204 0.06208 0.0
C60 C 0.89855 1.07887 0.10978 0.0
C61 C -0.04478 1.1364 0.1251 0.0
C62 C 0.00662 1.16901 0.09181 0.0
C63 C 0.00357 1.1408 0.04411 0.0
C64 C 0.10095 0.98522 0.88324 0.0
C65 C 0.16422 1.03029 0.90045 0.0
C66 C 0.23701 1.01888 0.87626 0.0
C67 C 0.24823 0.96117 0.83487 0.0
C68 C 0.18502 0.91808 0.81686 0.0
C69 C 0.11182 0.92993 0.84081 0.0
C70 C 0.819 0.9397 0.89328 0.0
C71 C 0.81884 0.91826 0.84433 0.0
C72 C 0.26449 1.16289 0.31697 0.0
C73 C 0.20123 1.11979 0.33495 0.0
C74 C 0.21235 1.06214 0.37633 0.0
C75 C 0.28507 1.05076 0.40054 0.0
H76 H 0.40341 0.91665 0.51941 0.0
H77 H 0.39785 0.86845 0.60308 0.0
H78 H 0.59159 1.02703 0.63479 0.0
H79 H 0.59815 1.07457 0.55148 0.0
H80 H 0.70309 1.12562 0.45726 0.0
H81 H 0.8256 1.15437 0.41737 0.0
H82 H 0.70059 1.18966 0.2837 0.0
H83 H 0.57756 1.16297 0.32295 0.0
H84 H 0.38517 1.1863 0.32651 0.0
H85 H 0.25733 1.20525 0.28426 0.0
H86 H 0.16417 1.02761 0.3905 0.0
H87 H 0.29133 1.00693 0.43282 0.0
N88 N 0.42965 1.04646 0.45434 0.0
N89 N 0.56257 1.07246 0.46046 0.0
N90 N 0.48921 1.11842 0.391 0.0
C91 C 0.49823 1.03937 0.4798 0.0
C92 C 0.55864 1.11153 0.41584 0.0
C93 C 0.42444 1.08629 0.41006 0.0
C94 C 0.50086 1.00023 0.52892 0.0
C95 C 0.4456 0.94006 0.54413 0.0
C96 C 0.44268 0.91172 0.59182 0.0
C97 C 0.49436 0.94396 0.62503 0.0
C98 C 0.55118 1.00121 0.60963 0.0
C99 C 0.55505 1.02816 0.56196 0.0
C100 C 0.63036 1.14119 0.39334 0.0
C101 C 0.701 1.14168 0.41956 0.0
C102 C 0.77098 1.1588 0.39692 0.0
C103 C 0.77137 1.17656 0.34789 0.0
C104 C 0.70074 1.17899 0.32186 0.0
C105 C 0.63059 1.16278 0.34441 0.0
C106 C 0.34839 1.0958 0.38335 0.0
C107 C 0.33762 1.15107 0.34094 0.0
C108 C 0.24879 0.40204 0.32177 0.0
C109 C 0.17815 0.4043 0.34782 0.0
C110 C 0.17846 0.42189 0.39688 0.0
C111 C 0.24841 0.439 0.41952 0.0
H112 H 0.35161 0.50538 0.55165 0.0
H113 H 0.35835 0.55276 0.635 0.0
H114 H 0.55134 0.71248 0.60302 0.0
H115 H 0.54558 0.66446 0.51933 0.0
H116 H 0.65795 0.57402 0.4328 0.0
H117 H 0.78522 0.5533 0.39049 0.0
H118 H 0.69232 0.37568 0.28414 0.0
H119 H 0.56435 0.39467 0.32637 0.0
H120 H 0.37194 0.41816 0.32286 0.0
H121 H 0.249 0.39149 0.2836 0.0
H122 H 0.12383 0.42618 0.41734 0.0
H123 H 0.24626 0.45492 0.45725 0.0
N124 N 0.38678 0.50822 0.46048 0.0
N125 N 0.51969 0.53432 0.45431 0.0
N126 N 0.4602 0.46247 0.39093 0.0
C127 C 0.4511 0.5413 0.47982 0.0
C128 C 0.52493 0.4946 0.40999 0.0
C129 C 0.39075 0.46927 0.41581 0.0
C130 C 0.44849 0.58034 0.52897 0.0
C131 C 0.39457 0.552 0.56209 0.0
C132 C 0.39856 0.57885 0.60978 0.0
C133 C 0.45522 0.63638 0.62511 0.0
C134 C 0.50663 0.66898 0.59182 0.0
C135 C 0.50359 0.64076 0.54412 0.0
C136 C 0.60101 0.48515 0.38326 0.0
C137 C 0.66429 0.5302 0.40049 0.0
C138 C 0.73707 0.51879 0.37629 0.0
C139 C 0.74829 0.46112 0.33489 0.0
C140 C 0.68507 0.41805 0.31687 0.0
C141 C 0.61187 0.42989 0.34083 0.0
C142 C 0.31906 0.43964 0.39329 0.0
C143 C 0.31889 0.41823 0.34433 0.0
Zn144 Zn -0.03288 0.48988 0.27358 0.0
Zn145 Zn -0.01743 1.09081 0.27363 0.0
Zn146 Zn -0.02518 0.29034 0.26671 0.0
C147 C -0.03495 1.15248 0.17631 0.0
C148 C 0.84749 1.17371 0.3227 0.0
O149 O 0.08135 0.32741 0.3053 0.0
O150 O 0.05917 0.49091 0.31633 0.0
C151 C -0.01537 0.42797 0.17626 0.0
O152 O -0.02695 1.23844 0.19285 0.0
O153 O -0.03552 1.07929 0.20385 0.0
O154 O 0.89046 1.08993 0.31644 0.0
O155 O 0.86821 1.25337 0.30532 0.0
O156 O -0.01478 0.50122 0.20378 0.0
O157 O -0.02335 0.34204 0.19282 0.0
O158 O 0.86202 0.35756 0.30118 0.0
O159 O 0.85829 0.52115 0.30149 0.0
C160 C 0.82603 0.44631 0.31081 0.0
O161 O 0.08758 1.22321 0.30119 0.0
O162 O 0.09136 1.05961 0.30151 0.0
C163 C 0.10209 0.40712 0.32263 0.0
C164 C 0.12357 1.1345 0.31083 0.0
Zn165 Zn 0.46707 0.98991 0.77357 0.0
Zn166 Zn 0.48252 0.59084 0.77365 0.0
Zn167 Zn 0.47477 0.79037 0.76671 0.0
C168 C 0.46503 0.65248 0.67631 0.0
C169 C 0.34743 0.67376 0.82269 0.0
O170 O 0.58129 0.82746 0.8053 0.0
O171 O 0.55911 0.99095 0.81633 0.0
C172 C 0.48461 0.92796 0.67625 0.0
O173 O 0.47302 0.73844 0.69285 0.0
O174 O 0.46445 0.57929 0.70386 0.0
O175 O 0.3904 0.58997 0.81644 0.0
O176 O 0.36816 0.75342 0.80532 0.0
O177 O 0.4852 1.00123 0.70377 0.0
O178 O 0.47662 0.84205 0.69282 0.0
O179 O 0.36196 0.8576 0.80117 0.0
O180 O 0.35824 1.0212 0.80146 0.0
C181 C 0.32597 0.94636 0.81079 0.0
O182 O 0.58753 0.72326 0.8012 0.0
O183 O 0.5913 0.55966 0.80153 0.0
C184 C 0.60203 0.90717 0.82263 0.0
C185 C 0.62352 0.63455 0.81085 0.0
loop_
_geom_bond_atom_site_label_1
_geom_bond_atom_site_label_2
_geom_bond_distance
_geom_bond_site_symmetry_2
_ccdc_geom_bond_type
C0 C1 1.384 . S
C0 H13 0.947 . S
C0 C35 1.382 . S
C1 C0 1.384 . S
C1 C2 1.378 . S
C2 C1 1.378 . S
C2 C3 1.378 1_556 S
C2 H14 0.952 . S
C3 C2 1.378 1_554 S
C3 H15 0.950 . S
C3 C34 1.383 1_554 S
H4 C23 0.948 1_655 S
H5 C24 0.946 . S
H6 C26 0.953 . S
H7 C27 0.945 . S
H8 C29 0.952 . S
H9 C30 0.949 . S
H10 C32 0.950 . S
H11 C33 0.948 . S
H12 C35 0.951 1_455 S
H13 C0 0.947 . S
H14 C2 0.952 . S
H15 C3 0.950 . S
N16 C19 1.382 . S
N16 C21 1.363 . S
N17 C19 1.371 . S
N17 C20 1.372 . S
N18 C20 1.361 1_556 S
N18 C21 1.377 1_556 S
C19 N16 1.382 . S
C19 N17 1.371 . S
C19 C22 1.480 . S
C20 N17 1.372 . S
C20 N18 1.361 1_554 S
C20 C28 1.457 1_554 S
C21 N16 1.363 . S
C21 N18 1.377 1_554 S
C21 C34 1.479 1_454 S
C22 C19 1.480 . S
C22 C23 1.383 . S
C22 C27 1.385 . S
C23 H4 0.948 1_455 S
C23 C22 1.383 . S
C23 C24 1.388 . S
C24 H5 0.946 . S
C24 C23 1.388 . S
C24 C25 1.384 . S
C25 C24 1.384 . S
C25 C26 1.377 . S
C26 H6 0.953 . S
C26 C25 1.377 . S
C26 C27 1.369 . S
C27 H7 0.945 . S
C27 C22 1.385 . S
C27 C26 1.369 . S
C28 C20 1.457 1_556 S
C28 C29 1.372 1_556 S
C28 C33 1.364 . S
C29 H8 0.952 . S
C29 C28 1.372 1_554 S
C29 C30 1.389 1_554 S
C30 H9 0.949 . S
C30 C29 1.389 1_556 S
C30 C31 1.387 . S
C31 C30 1.387 . S
C31 C32 1.372 . S
C32 H10 0.950 . S
C32 C31 1.372 . S
C32 C33 1.379 . S
C33 H11 0.948 . S
C33 C28 1.364 . S
C33 C32 1.379 . S
C34 C3 1.383 1_556 S
C34 C21 1.479 1_656 S
C34 C35 1.398 . S
C35 C0 1.382 . S
C35 H12 0.951 1_655 S
C35 C34 1.398 . S
C36 C37 1.384 . S
C36 H49 0.947 . S
C36 C71 1.382 . S
C37 C36 1.384 . S
C37 C38 1.378 . S
C38 C37 1.378 . S
C38 C39 1.378 . S
C38 H50 0.952 . S
C39 C38 1.378 . S
C39 H51 0.950 1_556 S
C39 C70 1.383 . S
H40 C59 0.947 . S
H41 C60 0.946 . S
H42 C62 0.953 . S
H43 C63 0.945 . S
H44 C65 0.952 1_554 S
H45 C66 0.949 . S
H46 C68 0.950 . S
H47 C69 0.948 . S
H48 C71 0.951 . S
H49 C36 0.947 . S
H50 C38 0.952 . S
H51 C39 0.950 1_554 S
N52 C55 1.382 1_655 S
N52 C57 1.363 1_554 S
N53 C55 1.371 . S
N53 C56 1.372 1_554 S
N54 C56 1.361 . S
N54 C57 1.377 1_455 S
C55 N52 1.382 1_455 S
C55 N53 1.371 . S
C55 C58 1.480 . S
C56 N53 1.372 1_556 S
C56 N54 1.361 . S
C56 C64 1.457 . S
C57 N52 1.363 1_556 S
C57 N54 1.377 1_655 S
C57 C70 1.479 . S
C58 C55 1.480 . S
C58 C59 1.383 1_455 S
C58 C63 1.385 . S
C59 H40 0.947 . S
C59 C58 1.383 1_655 S
C59 C60 1.388 . S
C60 H41 0.946 . S
C60 C59 1.388 . S
C60 C61 1.384 . S
C61 C60 1.384 . S
C61 C62 1.377 1_655 S
C62 H42 0.953 . S
C62 C61 1.377 1_455 S
C62 C63 1.369 . S
C63 H43 0.945 . S
C63 C58 1.385 . S
C63 C62 1.369 . S
C64 C56 1.457 . S
C64 C65 1.372 . S
C64 C69 1.364 . S
C65 H44 0.952 1_556 S
C65 C64 1.372 . S
C65 C66 1.389 . S
C66 H45 0.949 . S
C66 C65 1.389 . S
C66 C67 1.387 . S
C67 C66 1.387 . S
C67 C68 1.372 . S
C68 H46 0.950 . S
C68 C67 1.372 . S
C68 C69 1.379 . S
C69 H47 0.948 . S
C69 C64 1.364 . S
C69 C68 1.379 . S
C70 C39 1.383 . S
C70 C57 1.479 . S
C70 C71 1.398 . S
C71 C36 1.382 . S
C71 H48 0.951 . S
C71 C70 1.398 . S
C72 C73 1.384 . S
C72 H85 0.947 . S
C72 C107 1.382 . S
C73 C72 1.384 . S
C73 C74 1.378 . S
C74 C73 1.378 . S
C74 C75 1.378 . S
C74 H86 0.952 . S
C75 C74 1.378 . S
C75 H87 0.950 . S
C75 C106 1.383 . S
H76 C95 0.947 . S
H77 C96 0.946 . S
H78 C98 0.953 . S
H79 C99 0.945 . S
H80 C101 0.952 . S
H81 C102 0.949 . S
H82 C104 0.950 . S
H83 C105 0.948 . S
H84 C107 0.951 . S
H85 C72 0.947 . S
H86 C74 0.952 . S
H87 C75 0.950 . S
N88 C91 1.382 . S
N88 C93 1.363 . S
N89 C91 1.371 . S
N89 C92 1.372 . S
N90 C92 1.361 . S
N90 C93 1.377 . S
C91 N88 1.382 . S
C91 N89 1.371 . S
C91 C94 1.480 . S
C92 N89 1.372 . S
C92 N90 1.361 . S
C92 C100 1.457 . S
C93 N88 1.363 . S
C93 N90 1.377 . S
C93 C106 1.479 . S
C94 C91 1.480 . S
C94 C95 1.383 . S
C94 C99 1.385 . S
C95 H76 0.947 . S
C95 C94 1.383 . S
C95 C96 1.388 . S
C96 H77 0.946 . S
C96 C95 1.388 . S
C96 C97 1.384 . S
C97 C96 1.384 . S
C97 C98 1.377 . S
C98 H78 0.953 . S
C98 C97 1.377 . S
C98 C99 1.369 . S
C99 H79 0.945 . S
C99 C94 1.385 . S
C99 C98 1.369 . S
C100 C92 1.457 . S
C100 C101 1.372 . S
C100 C105 1.364 . S
C101 H80 0.952 . S
C101 C100 1.372 . S
C101 C102 1.389 . S
C102 H81 0.949 . S
C102 C101 1.389 . S
C102 C103 1.387 . S
C103 C102 1.387 . S
C103 C104 1.372 . S
C104 H82 0.950 . S
C104 C103 1.372 . S
C104 C105 1.379 . S
C105 H83 0.948 . S
C105 C100 1.364 . S
C105 C104 1.379 . S
C106 C75 1.383 . S
C106 C93 1.479 . S
C106 C107 1.398 . S
C107 C72 1.382 . S
C107 H84 0.951 . S
C107 C106 1.398 . S
C108 C109 1.384 . S
C108 H121 0.947 . S
C108 C143 1.382 . S
C109 C108 1.384 . S
C109 C110 1.378 . S
C110 C109 1.378 . S
C110 C111 1.378 . S
C110 H122 0.952 . S
C111 C110 1.378 . S
C111 H123 0.950 . S
C111 C142 1.383 . S
H112 C131 0.947 . S
H113 C132 0.946 . S
H114 C134 0.953 . S
H115 C135 0.945 . S
H116 C137 0.952 . S
H117 C138 0.949 . S
H118 C140 0.950 . S
H119 C141 0.948 . S
H120 C143 0.951 . S
H121 C108 0.947 . S
H122 C110 0.952 . S
H123 C111 0.950 . S
N124 C127 1.382 . S
N124 C129 1.363 . S
N125 C127 1.371 . S
N125 C128 1.372 . S
N126 C128 1.361 . S
N126 C129 1.377 . S
C127 N124 1.382 . S
C127 N125 1.371 . S
C127 C130 1.480 . S
C128 N125 1.372 . S
C128 N126 1.361 . S
C128 C136 1.457 . S
C129 N124 1.363 . S
C129 N126 1.377 . S
C129 C142 1.479 . S
C130 C127 1.480 . S
C130 C131 1.383 . S
C130 C135 1.385 . S
C131 H112 0.947 . S
C131 C130 1.383 . S
C131 C132 1.388 . S
C132 H113 0.946 . S
C132 C131 1.388 . S
C132 C133 1.384 . S
C133 C132 1.384 . S
C133 C134 1.377 . S
C134 H114 0.953 . S
C134 C133 1.377 . S
C134 C135 1.369 . S
C135 H115 0.945 . S
C135 C130 1.385 . S
C135 C134 1.369 . S
C136 C128 1.457 . S
C136 C137 1.372 . S
C136 C141 1.364 . S
C137 H116 0.952 . S
C137 C136 1.372 . S
C137 C138 1.389 . S
C138 H117 0.949 . S
C138 C137 1.389 . S
C138 C139 1.387 . S
C139 C138 1.387 . S
C139 C140 1.372 . S
C140 H118 0.950 . S
C140 C139 1.372 . S
C140 C141 1.379 . S
C141 H119 0.948 . S
C141 C136 1.364 . S
C141 C140 1.379 . S
C142 C111 1.383 . S
C142 C129 1.479 . S
C142 C143 1.398 . S
C143 C108 1.382 . S
C143 H120 0.951 . S
C143 C142 1.398 . S
Zn144 O150 1.920 . S
Zn144 O156 1.898 . S
Zn144 O159 1.905 1_455 S
Zn145 O153 1.905 . S
Zn145 O154 1.898 1_455 S
Zn145 O162 1.920 . S
Zn146 O149 2.080 . S
Zn146 O152 2.114 1_545 S
Zn146 O155 2.120 1_545 S
Zn146 O157 2.120 . S
Zn146 O158 2.114 1_455 S
Zn146 O161 2.080 1_545 S
C147 O152 1.166 . S
C147 O153 1.182 . S
C148 O154 1.167 . S
C148 O155 1.299 1_655 S
O149 Zn146 2.080 . S
O149 C163 1.305 . S
O150 Zn144 1.920 . S
O150 C163 1.234 . S
C151 O156 1.167 . S
C151 O157 1.299 . S
O152 Zn146 2.114 1_565 S
O152 C147 1.166 . S
O153 Zn145 1.905 . S
O153 C147 1.182 . S
O154 Zn145 1.898 1_655 S
O154 C148 1.167 . S
O155 Zn146 2.120 1_565 S
O155 C148 1.299 1_455 S
O156 Zn144 1.898 . S
O156 C151 1.167 . S
O157 Zn146 2.120 . S
O157 C151 1.299 . S
O158 Zn146 2.114 1_655 S
O158 C160 1.166 . S
O159 Zn144 1.905 1_655 S
O159 C160 1.182 . S
C160 O158 1.166 . S
C160 O159 1.182 . S
O161 Zn146 2.080 1_565 S
O161 C164 1.305 . S
O162 Zn145 1.920 . S
O162 C164 1.234 . S
C163 O149 1.305 . S
C163 O150 1.234 . S
C164 O161 1.305 . S
C164 O162 1.234 . S
Zn165 O171 1.920 . S
Zn165 O177 1.898 . S
Zn165 O180 1.905 . S
Zn166 O174 1.905 . S
Zn166 O175 1.898 . S
Zn166 O183 1.920 . S
Zn167 O170 2.080 . S
Zn167 O173 2.114 . S
Zn167 O176 2.120 . S
Zn167 O178 2.120 . S
Zn167 O179 2.114 . S
Zn167 O182 2.080 . S
C168 O173 1.166 . S
C168 O174 1.182 . S
C169 O175 1.167 . S
C169 O176 1.299 . S
O170 Zn167 2.080 . S
O170 C184 1.305 . S
O171 Zn165 1.920 . S
O171 C184 1.234 . S
C172 O177 1.167 . S
C172 O178 1.299 . S
O173 Zn167 2.114 . S
O173 C168 1.166 . S
O174 Zn166 1.905 . S
O174 C168 1.182 . S
O175 Zn166 1.898 . S
O175 C169 1.167 . S
O176 Zn167 2.120 . S
O176 C169 1.299 . S
O177 Zn165 1.898 . S
O177 C172 1.167 . S
O178 Zn167 2.120 . S
O178 C172 1.299 . S
O179 Zn167 2.114 . S
O179 C181 1.166 . S
O180 Zn165 1.905 . S
O180 C181 1.182 . S
C181 O179 1.166 . S
C181 O180 1.182 . S
O182 Zn167 2.080 . S
O182 C185 1.305 . S
O183 Zn166 1.920 . S
O183 C185 1.234 . S
C184 O170 1.305 . S
C184 O171 1.234 . S
C185 O182 1.305 . S
C185 O183 1.234 . S
C151 C25 1.846 . S
C147 C61 1.970 1_455 S
C172 C97 1.846 . S
C133 C168 1.969 . S
C31 C169 1.186 . S
C184 C37 1.349 . S
C1 C185 1.572 . S
C181 C67 1.594 . S
C148 C103 1.187 . S
C109 C163 1.348 . S
C164 C73 1.572 . S
C160 C139 1.594 . S
