# Generated by pormake.
# Topology tsx, (6,3)-cn, num edge types: 1
# Building blocks:
#     Node 0, Type 0, BuildingBlock: JUFBIX_clean_sbu_0, # of connection points: 6
#     Node 1, Type 0, BuildingBlock: JUFBIX_clean_sbu_0, # of connection points: 6
#     Node 2, Type 1, BuildingBlock: BELTOD_clean_linker_0, # of connection points: 3
#     Node 3, Type 1, BuildingBlock: BELTOD_clean_linker_0, # of connection points: 3
#     Node 4, Type 1, BuildingBlock: BELTOD_clean_linker_0, # of connection points: 3
#     Node 5, Type 1, BuildingBlock: BELTOD_clean_linker_0, # of connection points: 3
#     Edge 6, Type (0, 1), None
#     Edge 7, Type (0, 1), None
#     Edge 8, Type (0, 1), None
#     Edge 9, Type (0, 1), None
#     Edge 10, Type (0, 1), None
#     Edge 11, Type (0, 1), None
#     Edge 12, Type (0, 1), None
#     Edge 13, Type (0, 1), None
#     Edge 14, Type (0, 1), None
#     Edge 15, Type (0, 1), None
#     Edge 16, Type (0, 1), None
#     Edge 17, Type (0, 1), None
# Relax obj value: 0.148
# Max RMSD: 0.169
# Mean RMSD: 0.138
data_MOF--net-tsx--node1-JUFBIX_clean_sbu_0--node2-BELTOD_clean_linker_0--edge1-none
_symmetry_space_group_name_H-M    P1
_symmetry_Int_Tables_number       1
_symmetry_cell_setting            triclinic
loop_
_symmetry_equiv_pos_as_xyz
'x, y, z'
_cell_length_a     12.210848
_cell_length_b     13.763619
_cell_length_c     21.42818
_cell_angle_alpha  93.322224
_cell_angle_beta   90.966865
_cell_angle_gamma 105.48466
loop_
_atom_site_label
_atom_site_type_symbol
_atom_site_fract_x
_atom_site_fract_y
_atom_site_fract_z
_atom_type_partial_charge
Co0 Co 0.07721 0.96596 -0.01922 0.0
C1 C 0.95373 0.98364 0.87192 0.0
Co2 Co 0.95664 0.06012 -0.00843 0.0
C3 C 0.27265 0.87158 -0.0288 0.0
C4 C 0.10989 0.77854 0.93905 0.0
N5 N 0.16162 0.87129 0.96541 0.0
N6 N 0.28976 0.78165 0.95046 0.0
C7 C 0.18695 0.72372 0.93038 0.0
H8 H 0.33941 0.93645 -0.01077 0.0
H9 H 0.02162 0.75321 0.92441 0.0
C10 C 0.0819 0.04563 0.09992 0.0
N11 N 0.8691 0.14906 0.00288 0.0
C12 C 0.86177 0.22218 0.96489 0.0
C13 C 0.80168 0.15789 0.05075 0.0
N14 N 0.79196 0.27582 -0.01301 0.0
C15 C 0.75467 0.2364 0.04126 0.0
C16 C 0.85659 0.86696 0.01864 0.0
O17 O 0.12837 0.99027 0.06562 0.0
O18 O 1.00485 0.0805 0.07651 0.0
O19 O 0.83143 0.9497 0.01222 0.0
O20 O 0.95513 0.86072 0.00479 0.0
O21 O 0.91062 0.04061 0.90623 0.0
H22 H 0.78924 0.11144 0.09043 0.0
H23 H 0.90808 0.23688 0.92227 0.0
O24 O 0.02524 0.94315 0.89564 0.0
O25 O 0.19921 0.07516 0.96009 0.0
O26 O 0.0816 0.16986 -0.02603 0.0
C27 C 0.18148 0.16251 0.96415 0.0
H28 H 0.16934 0.6484 0.90792 0.0
H29 H 0.69985 0.26309 0.07273 0.0
Co30 Co 0.57721 0.46596 0.48078 0.0
C31 C 0.45373 0.48364 0.37192 0.0
Co32 Co 0.45664 0.56012 0.49157 0.0
C33 C 0.77265 0.37158 0.4712 0.0
C34 C 0.60989 0.27853 0.43905 0.0
N35 N 0.66162 0.37129 0.46541 0.0
N36 N 0.78976 0.28165 0.45046 0.0
C37 C 0.68695 0.22372 0.43038 0.0
H38 H 0.83941 0.43645 0.48923 0.0
H39 H 0.52162 0.25321 0.42441 0.0
C40 C 0.58189 0.54563 0.59992 0.0
N41 N 0.3691 0.64906 0.50288 0.0
C42 C 0.36177 0.72218 0.46489 0.0
C43 C 0.30168 0.65789 0.55075 0.0
N44 N 0.29196 0.77582 0.48699 0.0
C45 C 0.25467 0.7364 0.54126 0.0
C46 C 0.35659 0.36696 0.51864 0.0
O47 O 0.62837 0.49027 0.56562 0.0
O48 O 0.50484 0.5805 0.57651 0.0
O49 O 0.33143 0.4497 0.51222 0.0
O50 O 0.45513 0.36072 0.50479 0.0
O51 O 0.41062 0.54061 0.40623 0.0
H52 H 0.28924 0.61144 0.59043 0.0
H53 H 0.40808 0.73688 0.42227 0.0
O54 O 0.52524 0.44315 0.39564 0.0
O55 O 0.6992 0.57516 0.46009 0.0
O56 O 0.5816 0.66986 0.47397 0.0
C57 C 0.68148 0.66251 0.46415 0.0
H58 H 0.66934 0.1484 0.40792 0.0
H59 H 0.19985 0.76308 0.57273 0.0
P60 P 0.20231 0.144 0.37697 0.0
H61 H 0.1651 0.34468 0.39614 0.0
H62 H 0.99779 0.40158 0.42516 0.0
H63 H 0.81701 0.09412 0.45654 0.0
H64 H 0.98264 0.03758 0.4266 0.0
H65 H 0.38638 0.1149 0.45685 0.0
H66 H 0.4217 0.96645 0.50243 0.0
H67 H 0.1179 0.77824 0.40902 0.0
H68 H 0.0777 0.92821 0.36656 0.0
H69 H 0.0598 0.21554 0.28884 0.0
H70 H 0.28247 1.01871 0.28197 0.0
O71 O 0.32011 0.23867 0.38666 0.0
H72 H 1.0107 0.17496 0.17929 0.0
H73 H 0.23291 0.97719 0.17042 0.0
C74 C 0.08727 0.18684 0.41034 0.0
C75 C 0.09018 0.28982 0.41072 0.0
C76 C 0.99473 0.32256 0.42749 0.0
C77 C 0.89422 0.25252 0.44326 0.0
C78 C 0.89303 0.14991 0.44432 0.0
C79 C 0.98806 0.11732 0.42748 0.0
C80 C 0.22687 0.03376 0.41054 0.0
C81 C 0.32543 0.04256 0.44743 0.0
C82 C 0.34633 0.95784 0.47299 0.0
C83 C 0.27046 0.86242 0.46049 0.0
C84 C 0.17528 0.85218 0.42061 0.0
C85 C 0.15238 0.93758 0.39667 0.0
C86 C 0.17188 0.11745 0.29446 0.0
C87 C 0.09782 0.16284 0.26411 0.0
C88 C 0.0697 0.13954 0.20092 0.0
C89 C 0.11622 0.07124 0.16639 0.0
C90 C 0.19447 0.02899 0.19609 0.0
C91 C 0.22258 0.05248 0.25978 0.0
P92 P 0.04906 0.97483 0.60326 0.0
H93 H 0.05306 0.79877 0.52341 0.0
H94 H 0.90705 0.67284 0.46447 0.0
H95 H 0.67452 0.8575 0.49593 0.0
H96 H 0.8256 0.98591 0.55416 0.0
H97 H 0.29269 0.05417 0.59661 0.0
H98 H 0.41406 0.20851 0.56392 0.0
H99 H 0.12503 0.32929 0.54107 0.0
H100 H 0.99894 0.1677 0.57178 0.0
H101 H 0.94896 0.81414 0.6809 0.0
H102 H 0.99921 0.13711 0.68657 0.0
O103 O 0.14082 0.90778 0.618 0.0
H104 H 0.91927 0.81643 0.7927 0.0
H105 H 0.96031 0.13818 0.79811 0.0
C106 C 0.95109 0.90203 0.54325 0.0
C107 C 0.97308 0.81512 0.51515 0.0
C108 C 0.88852 0.74237 0.48121 0.0
C109 C 0.77815 0.75367 0.47631 0.0
C110 C 0.75876 0.84597 0.49894 0.0
C111 C 0.84484 0.91957 0.53252 0.0
C112 C 0.13538 0.09667 0.5836 0.0
C113 C 0.25332 0.1121 0.58371 0.0
C114 C 0.32359 0.20152 0.56485 0.0
C115 C 0.27828 0.27874 0.54537 0.0
C116 C 0.16133 0.2684 0.5519 0.0
C117 C 0.08957 0.17661 0.5697 0.0
C118 C 0.97872 0.97567 0.67581 0.0
C119 C 0.94782 0.88483 0.7056 0.0
C120 C 0.93014 0.88591 0.76955 0.0
C121 C 0.9375 0.97738 0.80379 0.0
C122 C 0.95345 0.0666 0.77231 0.0
C123 C 0.97589 0.06608 0.70853 0.0
P124 P 0.70231 0.644 0.87697 0.0
H125 H 0.6651 0.84468 0.89614 0.0
H126 H 0.49779 0.90158 0.92516 0.0
H127 H 0.31701 0.59412 0.95654 0.0
H128 H 0.48264 0.53758 0.9266 0.0
H129 H 0.88639 0.6149 0.95685 0.0
H130 H 0.92171 0.46645 0.00243 0.0
H131 H 0.6179 0.27824 0.90902 0.0
H132 H 0.5777 0.42821 0.86656 0.0
H133 H 0.55979 0.71554 0.78884 0.0
H134 H 0.78247 0.51871 0.78196 0.0
O135 O 0.82011 0.73867 0.88666 0.0
H136 H 0.5107 0.67496 0.67929 0.0
H137 H 0.73291 0.47719 0.67042 0.0
C138 C 0.58727 0.68684 0.91034 0.0
C139 C 0.59018 0.78982 0.91072 0.0
C140 C 0.49473 0.82256 0.92749 0.0
C141 C 0.39422 0.75252 0.94326 0.0
C142 C 0.39303 0.64991 0.94432 0.0
C143 C 0.48806 0.61732 0.92748 0.0
C144 C 0.72687 0.53376 0.91054 0.0
C145 C 0.82543 0.54256 0.94743 0.0
C146 C 0.84633 0.45783 -0.02701 0.0
C147 C 0.77046 0.36242 0.96049 0.0
C148 C 0.67528 0.35218 0.92061 0.0
C149 C 0.65238 0.43758 0.89667 0.0
C150 C 0.67188 0.61745 0.79446 0.0
C151 C 0.59782 0.66284 0.76411 0.0
C152 C 0.5697 0.63954 0.70092 0.0
C153 C 0.61622 0.57123 0.66639 0.0
C154 C 0.69447 0.52899 0.69609 0.0
C155 C 0.72258 0.55248 0.75978 0.0
P156 P 0.54906 0.47483 0.10326 0.0
H157 H 0.55307 0.29877 0.02341 0.0
H158 H 0.40705 0.17284 0.96447 0.0
H159 H 0.17453 0.3575 -0.00407 0.0
H160 H 0.3256 0.48591 0.05416 0.0
H161 H 0.79269 0.55417 0.09661 0.0
H162 H 0.91406 0.70851 0.06392 0.0
H163 H 0.62504 0.82929 0.04107 0.0
H164 H 0.49894 0.6677 0.07178 0.0
H165 H 0.44896 0.31414 0.1809 0.0
H166 H 0.49921 0.63712 0.18657 0.0
O167 O 0.64082 0.40778 0.118 0.0
H168 H 0.41926 0.31643 0.2927 0.0
H169 H 0.46032 0.63819 0.29811 0.0
C170 C 0.45109 0.40203 0.04325 0.0
C171 C 0.47308 0.31512 0.01515 0.0
C172 C 0.38852 0.24237 -0.01879 0.0
C173 C 0.27815 0.25367 -0.02369 0.0
C174 C 0.25876 0.34597 -0.00106 0.0
C175 C 0.34484 0.41957 0.03252 0.0
C176 C 0.63538 0.59667 0.0836 0.0
C177 C 0.75332 0.6121 0.08371 0.0
C178 C 0.82359 0.70152 0.06485 0.0
C179 C 0.77828 0.77874 0.04537 0.0
C180 C 0.66133 0.7684 0.0519 0.0
C181 C 0.58957 0.67661 0.0697 0.0
C182 C 0.47872 0.47567 0.17581 0.0
C183 C 0.44782 0.38483 0.2056 0.0
C184 C 0.43013 0.38592 0.26955 0.0
C185 C 0.4375 0.47738 0.30379 0.0
C186 C 0.45346 0.56661 0.27231 0.0
C187 C 0.47589 0.56609 0.20853 0.0
loop_
_geom_bond_atom_site_label_1
_geom_bond_atom_site_label_2
_geom_bond_distance
_geom_bond_site_symmetry_2
_ccdc_geom_bond_type
Co0 N5 2.055 1_554 S
Co0 O17 2.021 . S
Co0 O20 2.062 1_455 S
Co0 O24 2.117 1_554 S
Co0 O25 2.020 1_565 S
C1 O21 1.263 . S
C1 O24 1.255 1_645 S
Co2 N11 2.057 . S
Co2 O18 2.117 . S
Co2 O19 2.020 1_545 S
Co2 O21 2.021 1_554 S
Co2 O26 2.062 1_655 S
C3 N5 1.309 1_554 S
C3 N6 1.347 . S
C3 H8 0.931 . S
C4 N5 1.384 . S
C4 C7 1.350 . S
C4 H9 0.930 . S
N5 Co0 2.055 1_556 S
N5 C3 1.309 1_556 S
N5 C4 1.384 . S
N6 C3 1.347 . S
N6 C7 1.373 1_554 S
C7 C4 1.350 . S
C7 N6 1.373 1_556 S
C7 H28 0.931 . S
H8 C3 0.931 . S
H9 C4 0.930 . S
C10 O17 1.259 1_545 S
C10 O18 1.258 1_455 S
N11 Co2 2.057 . S
N11 C12 1.316 1_554 S
N11 C13 1.375 . S
C12 N11 1.316 1_556 S
C12 N14 1.347 1_556 S
C12 H23 0.931 . S
C13 N11 1.375 . S
C13 C15 1.350 . S
C13 H22 0.930 . S
N14 C12 1.347 1_554 S
N14 C15 1.373 . S
C15 C13 1.350 . S
C15 N14 1.373 . S
C15 H29 0.931 . S
C16 O19 1.256 . S
C16 O20 1.255 . S
O17 Co0 2.021 . S
O17 C10 1.259 1_565 S
O18 Co2 2.117 . S
O18 C10 1.258 1_655 S
O19 Co2 2.020 1_565 S
O19 C16 1.256 . S
O20 Co0 2.062 1_655 S
O20 C16 1.255 . S
O21 C1 1.263 . S
O21 Co2 2.021 1_556 S
H22 C13 0.930 . S
H23 C12 0.931 . S
O24 Co0 2.117 1_556 S
O24 C1 1.255 1_465 S
O25 Co0 2.020 1_545 S
O25 C27 1.256 . S
O26 Co2 2.062 1_455 S
O26 C27 1.255 . S
C27 O25 1.256 . S
C27 O26 1.255 . S
H28 C7 0.931 . S
H29 C15 0.931 . S
Co30 N35 2.057 . S
Co30 O47 2.021 . S
Co30 O50 2.062 . S
Co30 O54 2.117 . S
Co30 O55 2.020 . S
C31 O51 1.259 . S
C31 O54 1.258 . S
Co32 N41 2.057 . S
Co32 O48 2.117 . S
Co32 O49 2.020 . S
Co32 O51 2.021 . S
Co32 O56 2.062 . S
C33 N35 1.316 . S
C33 N36 1.347 . S
C33 H38 0.931 . S
C34 N35 1.375 . S
C34 C37 1.350 . S
C34 H39 0.930 . S
N35 Co30 2.057 . S
N35 C33 1.316 . S
N35 C34 1.375 . S
N36 C33 1.347 . S
N36 C37 1.373 . S
C37 C34 1.350 . S
C37 N36 1.373 . S
C37 H58 0.931 . S
H38 C33 0.931 . S
H39 C34 0.930 . S
C40 O47 1.259 . S
C40 O48 1.258 . S
N41 Co32 2.057 . S
N41 C42 1.316 . S
N41 C43 1.375 . S
C42 N41 1.316 . S
C42 N44 1.347 . S
C42 H53 0.931 . S
C43 N41 1.375 . S
C43 C45 1.350 . S
C43 H52 0.930 . S
N44 C42 1.347 . S
N44 C45 1.373 . S
C45 C43 1.350 . S
C45 N44 1.373 . S
C45 H59 0.931 . S
C46 O49 1.256 . S
C46 O50 1.255 . S
O47 Co30 2.021 . S
O47 C40 1.259 . S
O48 Co32 2.117 . S
O48 C40 1.258 . S
O49 Co32 2.020 . S
O49 C46 1.256 . S
O50 Co30 2.062 . S
O50 C46 1.255 . S
O51 C31 1.259 . S
O51 Co32 2.021 . S
H52 C43 0.930 . S
H53 C42 0.931 . S
O54 Co30 2.117 . S
O54 C31 1.258 . S
O55 Co30 2.020 . S
O55 C57 1.256 . S
O56 Co32 2.062 . S
O56 C57 1.255 . S
C57 O55 1.256 . S
C57 O56 1.255 . S
H58 C37 0.931 . S
H59 C45 0.931 . S
P60 O71 1.490 . S
P60 C74 1.812 . S
P60 C80 1.803 . S
P60 C86 1.819 . S
H61 C75 0.941 . S
H62 C76 0.939 . S
H63 C78 0.940 . S
H64 C79 0.940 . S
H65 C81 0.939 1_545 S
H66 C82 0.942 . S
H67 C84 0.940 . S
H68 C85 0.939 1_655 S
H69 C87 0.941 . S
H70 C91 0.939 . S
O71 P60 1.490 . S
H72 C88 0.939 . S
H73 C90 0.940 . S
C74 P60 1.812 . S
C74 C75 1.389 . S
C74 C79 1.391 1_455 S
C75 H61 0.941 . S
C75 C74 1.389 . S
C75 C76 1.397 1_455 S
C76 H62 0.939 . S
C76 C75 1.397 1_655 S
C76 C77 1.378 . S
C77 C76 1.378 . S
C77 C78 1.378 . S
C78 H63 0.940 . S
C78 C77 1.378 . S
C78 C79 1.396 . S
C79 H64 0.940 . S
C79 C74 1.391 1_655 S
C79 C78 1.396 . S
C80 P60 1.803 . S
C80 C81 1.378 1_545 S
C80 C85 1.400 1_545 S
C81 H65 0.939 1_565 S
C81 C80 1.378 1_565 S
C81 C82 1.361 . S
C82 H66 0.942 . S
C82 C81 1.361 . S
C82 C83 1.369 . S
C83 C82 1.369 . S
C83 C84 1.404 . S
C84 H67 0.940 . S
C84 C83 1.404 . S
C84 C85 1.389 . S
C85 H68 0.939 1_455 S
C85 C80 1.400 1_565 S
C85 C84 1.389 . S
C86 P60 1.819 . S
C86 C87 1.391 . S
C86 C91 1.391 1_545 S
C87 H69 0.941 . S
C87 C86 1.391 . S
C87 C88 1.396 . S
C88 H72 0.939 . S
C88 C87 1.396 . S
C88 C89 1.397 . S
C89 C88 1.397 . S
C89 C90 1.385 1_545 S
C90 H73 0.940 . S
C90 C89 1.385 1_565 S
C90 C91 1.388 . S
C91 H70 0.939 . S
C91 C86 1.391 1_565 S
C91 C90 1.388 . S
P92 O103 1.490 . S
P92 C106 1.812 1_455 S
P92 C112 1.803 1_565 S
P92 C118 1.819 . S
H93 C107 0.941 1_455 S
H94 C108 0.939 . S
H95 C110 0.940 . S
H96 C111 0.940 . S
H97 C113 0.939 . S
H98 C114 0.942 . S
H99 C116 0.940 . S
H100 C117 0.939 . S
H101 C119 0.941 . S
H102 C123 0.939 . S
O103 P92 1.490 . S
H104 C120 0.939 . S
H105 C122 0.940 . S
C106 P92 1.812 1_655 S
C106 C107 1.389 . S
C106 C111 1.391 . S
C107 H93 0.941 1_655 S
C107 C106 1.389 . S
C107 C108 1.397 . S
C108 H94 0.939 . S
C108 C107 1.397 . S
C108 C109 1.378 . S
C109 C108 1.378 . S
C109 C110 1.378 . S
C110 H95 0.940 . S
C110 C109 1.378 . S
C110 C111 1.396 . S
C111 H96 0.940 . S
C111 C106 1.391 . S
C111 C110 1.396 . S
C112 P92 1.803 1_545 S
C112 C113 1.378 . S
C112 C117 1.400 . S
C113 H97 0.939 . S
C113 C112 1.378 . S
C113 C114 1.361 . S
C114 H98 0.942 . S
C114 C113 1.361 . S
C114 C115 1.369 . S
C115 C114 1.369 . S
C115 C116 1.404 . S
C116 H99 0.940 . S
C116 C115 1.404 . S
C116 C117 1.389 . S
C117 H100 0.939 . S
C117 C112 1.400 . S
C117 C116 1.389 . S
C118 P92 1.819 . S
C118 C119 1.391 . S
C118 C123 1.391 1_565 S
C119 H101 0.941 . S
C119 C118 1.391 . S
C119 C120 1.396 . S
C120 H104 0.939 . S
C120 C119 1.396 . S
C120 C121 1.397 1_565 S
C121 C120 1.397 1_545 S
C121 C122 1.385 . S
C122 H105 0.940 . S
C122 C121 1.385 . S
C122 C123 1.388 . S
C123 H102 0.939 . S
C123 C118 1.391 1_545 S
C123 C122 1.388 . S
P124 O135 1.490 . S
P124 C138 1.812 . S
P124 C144 1.803 . S
P124 C150 1.819 . S
H125 C139 0.941 . S
H126 C140 0.939 . S
H127 C142 0.940 . S
H128 C143 0.940 . S
H129 C145 0.939 . S
H130 C146 0.942 . S
H131 C148 0.940 . S
H132 C149 0.939 . S
H133 C151 0.941 . S
H134 C155 0.939 . S
O135 P124 1.490 . S
H136 C152 0.939 . S
H137 C154 0.940 . S
C138 P124 1.812 . S
C138 C139 1.389 1_556 S
C138 C143 1.391 . S
C139 H125 0.941 . S
C139 C138 1.389 1_554 S
C139 C140 1.397 . S
C140 H126 0.939 . S
C140 C139 1.397 . S
C140 C141 1.378 . S
C141 C140 1.378 . S
C141 C142 1.378 1_554 S
C142 H127 0.940 . S
C142 C141 1.378 1_556 S
C142 C143 1.396 . S
C143 H128 0.940 . S
C143 C138 1.391 . S
C143 C142 1.396 . S
C144 P124 1.803 . S
C144 C145 1.378 . S
C144 C149 1.400 . S
C145 H129 0.939 . S
C145 C144 1.378 . S
C145 C146 1.361 . S
C146 H130 0.942 . S
C146 C145 1.361 . S
C146 C147 1.369 1_556 S
C147 C146 1.369 1_554 S
C147 C148 1.404 . S
C148 H131 0.940 . S
C148 C147 1.404 . S
C148 C149 1.389 1_554 S
C149 H132 0.939 . S
C149 C144 1.400 . S
C149 C148 1.389 1_556 S
C150 P124 1.819 . S
C150 C151 1.391 . S
C150 C155 1.391 . S
C151 H133 0.941 . S
C151 C150 1.391 . S
C151 C152 1.396 . S
C152 H136 0.939 . S
C152 C151 1.396 . S
C152 C153 1.397 . S
C153 C152 1.397 . S
C153 C154 1.385 . S
C154 H137 0.940 . S
C154 C153 1.385 . S
C154 C155 1.388 . S
C155 H134 0.939 . S
C155 C150 1.391 . S
C155 C154 1.388 . S
P156 O167 1.490 . S
P156 C170 1.812 . S
P156 C176 1.803 . S
P156 C182 1.819 . S
H157 C171 0.941 1_556 S
H158 C172 0.939 . S
H159 C174 0.940 . S
H160 C175 0.940 . S
H161 C177 0.939 . S
H162 C178 0.942 . S
H163 C180 0.940 1_556 S
H164 C181 0.939 . S
H165 C183 0.941 . S
H166 C187 0.939 . S
O167 P156 1.490 . S
H168 C184 0.939 . S
H169 C186 0.940 . S
C170 P156 1.812 . S
C170 C171 1.389 . S
C170 C175 1.391 . S
C171 H157 0.941 1_554 S
C171 C170 1.389 . S
C171 C172 1.397 1_554 S
C172 H158 0.939 . S
C172 C171 1.397 1_556 S
C172 C173 1.377 1_556 S
C173 C172 1.377 1_554 S
C173 C174 1.380 . S
C174 H159 0.940 . S
C174 C173 1.380 . S
C174 C175 1.396 . S
C175 H160 0.940 . S
C175 C170 1.391 . S
C175 C174 1.396 . S
C176 P156 1.803 . S
C176 C177 1.378 . S
C176 C181 1.400 . S
C177 H161 0.939 . S
C177 C176 1.378 . S
C177 C178 1.361 . S
C178 H162 0.942 . S
C178 C177 1.361 . S
C178 C179 1.369 . S
C179 C178 1.369 . S
C179 C180 1.404 . S
C180 H163 0.940 1_554 S
C180 C179 1.404 . S
C180 C181 1.389 . S
C181 H164 0.939 . S
C181 C176 1.400 . S
C181 C180 1.389 . S
C182 P156 1.819 . S
C182 C183 1.391 . S
C182 C187 1.391 . S
C183 H165 0.941 . S
C183 C182 1.391 . S
C183 C184 1.396 . S
C184 H168 0.939 . S
C184 C183 1.396 . S
C184 C185 1.397 . S
C185 C184 1.397 . S
C185 C186 1.385 . S
C186 H169 0.940 . S
C186 C185 1.385 . S
C186 C187 1.388 . S
C187 H166 0.939 . S
C187 C182 1.391 . S
C187 C186 1.388 . S
C173 C27 1.678 . S
N6 C141 1.482 . S
C16 C179 1.656 . S
N14 C147 1.481 . S
C57 C109 1.677 . S
N36 C77 1.482 . S
C115 C46 1.656 . S
C83 N44 1.481 . S
C10 C89 1.243 . S
C1 C121 1.567 1_655 S
C153 C40 1.243 . S
C31 C185 1.568 . S
