# Generated by pormake.
# Topology zzz, (3,6)-cn, num edge types: 1
# Building blocks:
#     Node 0, Type 0, BuildingBlock: QEWDON_clean_linker_0, # of connection points: 3
#     Node 1, Type 0, BuildingBlock: QEWDON_clean_linker_0, # of connection points: 3
#     Node 2, Type 0, BuildingBlock: QEWDON_clean_linker_0, # of connection points: 3
#     Node 3, Type 0, BuildingBlock: QEWDON_clean_linker_0, # of connection points: 3
#     Node 4, Type 0, BuildingBlock: QEWDON_clean_linker_0, # of connection points: 3
#     Node 5, Type 0, BuildingBlock: QEWDON_clean_linker_0, # of connection points: 3
#     Node 6, Type 0, BuildingBlock: QEWDON_clean_linker_0, # of connection points: 3
#     Node 7, Type 0, BuildingBlock: QEWDON_clean_linker_0, # of connection points: 3
#     Node 8, Type 1, BuildingBlock: LEVNOQ01_clean_sbu_1, # of connection points: 6
#     Node 9, Type 1, BuildingBlock: LEVNOQ01_clean_sbu_1, # of connection points: 6
#     Node 10, Type 1, BuildingBlock: LEVNOQ01_clean_sbu_1, # of connection points: 6
#     Node 11, Type 1, BuildingBlock: LEVNOQ01_clean_sbu_1, # of connection points: 6
#     Edge 12, Type (0, 1), None
#     Edge 13, Type (0, 1), None
#     Edge 14, Type (0, 1), None
#     Edge 15, Type (0, 1), None
#     Edge 16, Type (0, 1), None
#     Edge 17, Type (0, 1), None
#     Edge 18, Type (0, 1), None
#     Edge 19, Type (0, 1), None
#     Edge 20, Type (0, 1), None
#     Edge 21, Type (0, 1), None
#     Edge 22, Type (0, 1), None
#     Edge 23, Type (0, 1), None
#     Edge 24, Type (0, 1), None
#     Edge 25, Type (0, 1), None
#     Edge 26, Type (0, 1), None
#     Edge 27, Type (0, 1), None
#     Edge 28, Type (0, 1), None
#     Edge 29, Type (0, 1), None
#     Edge 30, Type (0, 1), None
#     Edge 31, Type (0, 1), None
#     Edge 32, Type (0, 1), None
#     Edge 33, Type (0, 1), None
#     Edge 34, Type (0, 1), None
#     Edge 35, Type (0, 1), None
# Relax obj value: 0.064
# Max RMSD: 0.158
# Mean RMSD: 0.063
data_MOF--net-zzz--node1-LEVNOQ01_clean_sbu_1--node2-QEWDON_clean_linker_0--edge1-none
_symmetry_space_group_name_H-M    P1
_symmetry_Int_Tables_number       1
_symmetry_cell_setting            triclinic
loop_
_symmetry_equiv_pos_as_xyz
'x, y, z'
_cell_length_a     24.649658
_cell_length_b     24.664997
_cell_length_c     8.2827718
_cell_angle_alpha  89.994343
_cell_angle_beta   90.007155
_cell_angle_gamma 89.976788
loop_
_atom_site_label
_atom_site_type_symbol
_atom_site_fract_x
_atom_site_fract_y
_atom_site_fract_z
_atom_type_partial_charge
H0 H 0.83065 0.52717 0.90928 0.0
C1 C 0.845 0.53945 0.02766 0.0
C2 C 0.89935 0.53204 0.06563 0.0
C3 C 0.80939 0.56241 0.14038 0.0
H4 H 0.96328 0.54624 0.22919 0.0
C5 C 0.92029 0.55237 0.20643 0.0
C6 C 0.88492 0.56732 0.33027 0.0
C7 C 0.82897 0.57413 0.29682 0.0
C8 C 0.7523 0.57022 0.08954 0.0
H9 H 0.80098 0.58476 0.39254 0.0
C10 C 0.72669 0.5284 0.00309 0.0
C11 C 0.68109 0.53854 0.90625 0.0
C12 C 0.72837 0.62177 0.09252 0.0
H13 H 0.74772 0.65489 0.15619 0.0
C14 C 0.68167 0.63192 0.00095 0.0
H15 H 0.74488 0.48836 0.00341 0.0
C16 C 0.65907 0.59102 0.90454 0.0
H17 H 0.62572 0.60097 0.82547 0.0
H18 H 0.6645 0.6723 -0.00141 0.0
H19 H 0.01634 0.82982 0.90856 0.0
C20 C 1.00403 0.84418 0.0269 0.0
C21 C 1.01133 0.89851 0.0647 0.0
C22 C 0.98115 0.80858 0.13975 0.0
H23 H 0.99701 0.96243 0.2281 0.0
C24 C 0.99096 0.91945 0.20547 0.0
C25 C 0.97613 0.88412 0.32947 0.0
C26 C 0.96943 0.82819 0.29616 0.0
C27 C 0.97346 0.75149 0.08913 0.0
H28 H 0.95888 0.80022 0.392 0.0
C29 C 0.0153 0.72591 0.00257 0.0
C30 C 1.00525 0.68012 0.90659 0.0
C31 C 0.92197 0.72743 0.09288 0.0
H32 H 0.88882 0.74675 0.15665 0.0
C33 C 0.91189 0.6806 0.00204 0.0
H34 H 0.05531 0.74419 0.00232 0.0
C35 C 0.95281 0.65796 0.90567 0.0
H36 H 0.94291 0.62444 0.82731 0.0
H37 H 0.87155 0.66332 0.00029 0.0
H38 H 0.7136 0.01584 0.90816 0.0
C39 C 0.6993 1.00357 0.02659 0.0
C40 C 0.64496 1.01097 0.0647 0.0
C41 C 0.73496 0.98063 0.13926 0.0
H42 H 0.5811 0.99682 0.22849 0.0
C43 C 0.62409 0.99068 0.20561 0.0
C44 C 0.65951 0.9757 0.32935 0.0
C45 C 0.71543 0.9689 0.29575 0.0
C46 C 0.79204 0.97284 0.08834 0.0
H47 H 0.74347 0.95827 0.3914 0.0
C48 C 0.81762 0.01465 0.00177 0.0
C49 C 0.86335 1.00455 0.90544 0.0
C50 C 0.81606 0.92134 0.09178 0.0
H51 H 0.79673 0.88822 0.15557 0.0
C52 C 0.86284 0.91122 0.00061 0.0
H53 H 0.79938 0.05466 0.00176 0.0
C54 C 0.88547 0.95211 0.90421 0.0
H55 H 0.91894 0.94219 0.82558 0.0
H56 H 0.8801 0.87087 -0.00136 0.0
H57 H 0.52819 0.71327 0.90846 0.0
C58 C 0.54052 0.69894 0.02682 0.0
C59 C 0.53325 0.64461 0.06474 0.0
C60 C 0.56339 0.73457 0.13961 0.0
H61 H 0.54757 0.58073 0.22832 0.0
C62 C 0.55362 0.62371 0.20558 0.0
C63 C 0.56848 0.65908 0.32948 0.0
C64 C 0.57516 0.715 0.29605 0.0
C65 C 0.57105 0.79165 0.08888 0.0
H66 H 0.58571 0.74299 0.3918 0.0
C67 C 0.52917 0.8172 0.00235 0.0
C68 C 0.53919 0.86293 0.90604 0.0
C69 C 0.62254 0.81571 0.09235 0.0
H70 H 0.65571 0.79641 0.1561 0.0
C71 C 0.63258 0.86248 0.00121 0.0
H72 H 0.48916 0.79891 0.00229 0.0
C73 C 0.59163 0.88507 0.90481 0.0
H74 H 0.60152 0.91851 0.82614 0.0
H75 H 0.67294 0.87975 -0.00078 0.0
H76 H 0.22592 0.54662 0.39069 0.0
C77 C 0.20984 0.52533 0.28728 0.0
C78 C 0.1536 0.52515 0.26755 0.0
C79 C 0.24421 0.50053 0.17289 0.0
H80 H 0.08697 0.50469 0.1195 0.0
C81 C 0.13044 0.50033 0.13575 0.0
C82 C 0.16327 0.48567 0.0063 0.0
C83 C 0.21986 0.4818 0.02818 0.0
C84 C 0.30471 0.50116 0.19867 0.0
H85 H 0.24402 0.46887 -0.07349 0.0
C86 C 0.32651 0.51046 0.35454 0.0
C87 C 0.38163 0.52198 0.37669 0.0
C88 C 0.34137 0.49783 0.06814 0.0
H89 H 0.32787 0.49186 -0.0545 0.0
C90 C 0.3969 0.50549 0.09231 0.0
H91 H 0.30082 0.51204 0.46013 0.0
C92 C 0.41694 0.51829 0.24511 0.0
H93 H 0.45922 0.52932 0.25803 0.0
H94 H 0.42404 0.50492 -0.01006 0.0
H95 H 0.99704 0.22495 0.39016 0.0
C96 C 0.01829 0.2089 0.28661 0.0
C97 C 0.01843 0.1527 0.26672 0.0
C98 C 0.04306 0.24326 0.1722 0.0
H99 H 0.03883 0.08613 0.1185 0.0
C100 C 0.0432 0.12957 0.13479 0.0
C101 C 0.0578 0.16241 0.00532 0.0
C102 C 0.06166 0.21896 0.02727 0.0
C103 C 0.04251 0.30372 0.19831 0.0
H104 H 0.07451 0.24313 -0.07443 0.0
C105 C 0.03334 0.32542 0.35436 0.0
C106 C 0.02193 0.38053 0.3769 0.0
C107 C 0.04583 0.34044 0.06798 0.0
H108 H 0.05172 0.32701 -0.05476 0.0
C109 C 0.03828 0.39594 0.09251 0.0
H110 H 0.03178 0.29968 0.45981 0.0
C111 C 0.0256 0.4159 0.2455 0.0
H112 H 0.01465 0.45817 0.25873 0.0
H113 H 0.03885 0.42314 -0.0097 0.0
H114 H 0.31851 0.99614 0.38948 0.0
C115 C 0.33458 0.01742 0.28601 0.0
C116 C 0.39082 0.01757 0.26619 0.0
C117 C 0.3002 0.04226 0.1717 0.0
H118 H 0.45742 0.03802 0.11804 0.0
C119 C 0.41395 0.04238 0.13435 0.0
C120 C 0.38109 0.05709 0.00496 0.0
C121 C 0.32451 0.06096 0.02691 0.0
C122 C 0.23972 0.04169 0.19773 0.0
H123 H 0.3003 0.0739 -0.07469 0.0
C124 C 0.21801 0.03257 0.35379 0.0
C125 C 0.16291 0.02106 0.37631 0.0
C126 C 0.20299 0.04488 0.06732 0.0
H127 H 0.21644 0.05072 -0.05542 0.0
C128 C 0.14747 0.03727 0.09183 0.0
H129 H 0.24378 0.03109 0.45925 0.0
C130 C 0.12752 0.02462 0.24485 0.0
H131 H 0.08524 1.01361 0.25808 0.0
H132 H 0.12026 0.03774 -0.01042 0.0
H133 H 0.54743 0.31815 0.39008 0.0
C134 C 0.52621 0.33426 0.28654 0.0
C135 C 0.52619 0.39047 0.26672 0.0
C136 C 0.50133 0.29998 0.17213 0.0
H137 H 0.50593 0.45711 0.11852 0.0
C138 C 0.50146 0.41368 0.13481 0.0
C139 C 0.48673 0.3809 0.00537 0.0
C140 C 0.48273 0.32436 0.02728 0.0
C141 C 0.50174 0.23951 0.1981 0.0
H142 H 0.46977 0.30025 -0.07443 0.0
C143 C 0.51103 0.21771 0.354 0.0
C144 C 0.52228 0.16257 0.37628 0.0
C145 C 0.49814 0.20284 0.06771 0.0
H146 H 0.49214 0.21631 -0.05494 0.0
C147 C 0.50553 0.1473 0.09202 0.0
H148 H 0.51279 0.24341 0.45952 0.0
C149 C 0.51833 0.12726 0.24482 0.0
H150 H 0.52918 0.08494 0.25782 0.0
H151 H 0.50475 0.12014 -0.01025 0.0
O152 O 0.08869 0.91872 0.91737 0.0
Mg153 Mg 0.10177 0.91905 0.6705 0.0
O154 O 1.01382 0.96629 0.87444 0.0
Mg155 Mg 0.01632 0.02317 0.66435 0.0
O156 O 0.09964 0.99635 0.58704 0.0
O157 O 0.17243 0.94612 0.55275 0.0
O158 O 0.01876 0.08239 0.45408 0.0
O159 O 0.05114 0.09178 0.81863 0.0
Mg160 Mg 0.92837 0.12694 0.67619 0.0
O161 O 0.93285 0.04786 0.74028 0.0
O162 O 0.94412 0.13276 0.43037 0.0
O163 O 0.99364 0.16173 0.80643 0.0
O164 O 0.85896 0.09395 0.79018 0.0
C165 C 0.99305 0.90441 0.4865 0.0
C166 C 0.04125 0.93301 -0.04307 0.0
C167 C 0.14622 0.9899 0.51925 0.0
C168 C 0.99075 0.11834 0.38216 0.0
C169 C 0.0381 0.14065 0.85324 0.0
C170 C 0.88542 0.04916 0.80481 0.0
O171 O 0.03584 0.88213 0.54217 0.0
O172 O 0.98151 0.95414 0.51518 0.0
O173 O 0.38182 0.99301 0.80617 0.0
Mg174 Mg 0.41669 0.92774 0.67621 0.0
O175 O 0.45173 0.05052 0.81807 0.0
Mg176 Mg 0.5204 0.01567 0.66397 0.0
O177 O 0.49584 0.93223 0.74007 0.0
O178 O 0.44975 0.85846 0.79072 0.0
O179 O 0.58953 0.98087 0.51518 0.0
O180 O 0.57725 1.01332 0.8742 0.0
Mg181 Mg 0.62437 0.10109 0.67039 0.0
O182 O 0.54714 0.09893 0.58584 0.0
O183 O 0.66152 0.03519 0.54249 0.0
O184 O 0.62452 0.08827 0.91739 0.0
O185 O 0.59735 0.17174 0.55263 0.0
C186 C 0.42522 0.98994 0.38177 0.0
C187 C 0.40284 0.03747 0.85279 0.0
C188 C 0.49454 0.88492 0.80521 0.0
C189 C 0.63928 0.99245 0.4866 0.0
C190 C 0.61037 0.04082 -0.04306 0.0
C191 C 0.55354 0.14561 0.51884 0.0
O192 O 0.4108 0.94338 0.43029 0.0
O193 O 0.46118 0.01796 0.45359 0.0
O194 O 0.55091 0.38149 0.80672 0.0
Mg195 Mg 0.61624 0.41616 0.67657 0.0
O196 O 0.49345 0.45149 0.8185 0.0
Mg197 Mg 0.52837 0.52004 0.66424 0.0
O198 O 0.61181 0.49529 0.74008 0.0
O199 O 0.6856 0.44916 0.79097 0.0
O200 O 0.56319 0.58908 0.51521 0.0
O201 O 0.53085 0.57689 0.87437 0.0
Mg202 Mg 0.44289 0.62415 0.67056 0.0
O203 O 0.44512 0.54694 0.58649 0.0
O204 O 0.50887 0.66109 0.54245 0.0
O205 O 0.45589 0.62427 0.91749 0.0
O206 O 0.37223 0.59705 0.5527 0.0
C207 C 0.55389 0.42477 0.38229 0.0
C208 C 0.50644 0.40261 0.85327 0.0
C209 C 0.65913 0.49395 0.80533 0.0
C210 C 0.55162 0.63881 0.48661 0.0
C211 C 0.50337 0.61007 -0.04299 0.0
C212 C 0.39844 0.55327 0.51923 0.0
O213 O 0.60046 0.41024 0.43075 0.0
O214 O 0.52594 0.46081 0.45399 0.0
O215 O 0.91961 0.45474 0.91819 0.0
Mg216 Mg 0.91995 0.44181 0.67125 0.0
O217 O 0.96711 0.52958 0.87527 0.0
Mg218 Mg 0.024 0.52717 0.66521 0.0
O219 O 0.99727 0.44387 0.5875 0.0
O220 O 0.94697 0.37117 0.55347 0.0
O221 O 0.08326 0.5248 0.45495 0.0
O222 O 0.09263 0.49232 0.81949 0.0
Mg223 Mg 0.12771 0.61505 0.67732 0.0
O224 O 0.04858 0.6106 0.74148 0.0
O225 O 0.13362 0.59938 0.43145 0.0
O226 O 0.16256 0.54981 0.8075 0.0
O227 O 0.0947 0.68442 0.79136 0.0
C228 C 0.90519 0.55047 0.48741 0.0
C229 C 0.93388 0.50215 -0.04218 0.0
C230 C 0.99078 0.39731 0.51983 0.0
C231 C 0.11921 0.5528 0.3831 0.0
C232 C 0.14151 0.50536 0.85421 0.0
C233 C 0.04988 0.658 0.806 0.0
O234 O 0.88292 0.50772 0.54309 0.0
O235 O 0.95494 0.562 0.51612 0.0
loop_
_geom_bond_atom_site_label_1
_geom_bond_atom_site_label_2
_geom_bond_distance
_geom_bond_site_symmetry_2
_ccdc_geom_bond_type
H0 C1 0.949 . S
C1 H0 0.949 . S
C1 C2 1.395 . S
C1 C3 1.391 1_556 S
C2 C1 1.395 . S
C2 C5 1.390 1_556 S
C3 C1 1.391 1_554 S
C3 C7 1.387 . S
C3 C8 1.491 . S
H4 C5 0.950 . S
C5 C2 1.390 1_554 S
C5 H4 0.950 . S
C5 C6 1.378 . S
C6 C5 1.378 . S
C6 C7 1.409 . S
C7 C3 1.387 . S
C7 C6 1.409 . S
C7 H9 0.951 . S
C8 C3 1.491 . S
C8 C10 1.382 1_554 S
C8 C12 1.404 . S
H9 C7 0.951 . S
C10 C8 1.382 1_556 S
C10 C11 1.390 . S
C10 H15 0.949 . S
C11 C10 1.390 . S
C11 C16 1.399 1_556 S
C12 C8 1.404 . S
C12 H13 0.950 . S
C12 C14 1.375 . S
H13 C12 0.950 . S
C14 C12 1.375 . S
C14 C16 1.382 . S
C14 H18 0.950 . S
H15 C10 0.949 . S
C16 C11 1.399 1_554 S
C16 C14 1.382 . S
C16 H17 0.952 . S
H17 C16 0.952 . S
H18 C14 0.950 . S
H19 C20 0.949 . S
C20 H19 0.949 . S
C20 C21 1.395 . S
C20 C22 1.391 1_556 S
C21 C20 1.395 . S
C21 C24 1.390 1_556 S
C22 C20 1.391 1_554 S
C22 C26 1.387 . S
C22 C27 1.491 . S
H23 C24 0.950 . S
C24 C21 1.390 1_554 S
C24 H23 0.950 . S
C24 C25 1.378 . S
C25 C24 1.378 . S
C25 C26 1.409 . S
C26 C22 1.387 . S
C26 C25 1.409 . S
C26 H28 0.951 . S
C27 C22 1.491 . S
C27 C29 1.382 1_554 S
C27 C31 1.404 . S
H28 C26 0.951 . S
C29 C27 1.382 1_556 S
C29 C30 1.390 . S
C29 H34 0.949 . S
C30 C29 1.390 . S
C30 C35 1.399 1_556 S
C31 C27 1.404 . S
C31 H32 0.950 . S
C31 C33 1.375 . S
H32 C31 0.950 . S
C33 C31 1.375 . S
C33 C35 1.382 . S
C33 H37 0.950 . S
H34 C29 0.949 . S
C35 C30 1.399 1_554 S
C35 C33 1.382 . S
C35 H36 0.952 . S
H36 C35 0.952 . S
H37 C33 0.950 . S
H38 C39 0.949 . S
C39 H38 0.949 . S
C39 C40 1.395 . S
C39 C41 1.391 1_556 S
C40 C39 1.395 . S
C40 C43 1.390 1_556 S
C41 C39 1.391 1_554 S
C41 C45 1.387 . S
C41 C46 1.491 . S
H42 C43 0.950 . S
C43 C40 1.390 1_554 S
C43 H42 0.950 . S
C43 C44 1.378 . S
C44 C43 1.378 . S
C44 C45 1.409 . S
C45 C41 1.387 . S
C45 C44 1.409 . S
C45 H47 0.951 . S
C46 C41 1.491 . S
C46 C48 1.382 1_554 S
C46 C50 1.404 . S
H47 C45 0.951 . S
C48 C46 1.382 1_556 S
C48 C49 1.390 . S
C48 H53 0.949 . S
C49 C48 1.390 . S
C49 C54 1.399 1_556 S
C50 C46 1.404 . S
C50 H51 0.950 . S
C50 C52 1.375 . S
H51 C50 0.950 . S
C52 C50 1.375 . S
C52 C54 1.382 . S
C52 H56 0.950 . S
H53 C48 0.949 . S
C54 C49 1.399 1_554 S
C54 C52 1.382 . S
C54 H55 0.952 . S
H55 C54 0.952 . S
H56 C52 0.950 . S
H57 C58 0.949 . S
C58 H57 0.949 . S
C58 C59 1.395 . S
C58 C60 1.391 1_556 S
C59 C58 1.395 . S
C59 C62 1.390 1_556 S
C60 C58 1.391 1_554 S
C60 C64 1.387 . S
C60 C65 1.491 . S
H61 C62 0.950 . S
C62 C59 1.390 1_554 S
C62 H61 0.950 . S
C62 C63 1.378 . S
C63 C62 1.378 . S
C63 C64 1.409 . S
C64 C60 1.387 . S
C64 C63 1.409 . S
C64 H66 0.951 . S
C65 C60 1.491 . S
C65 C67 1.382 1_554 S
C65 C69 1.404 . S
H66 C64 0.951 . S
C67 C65 1.382 1_556 S
C67 C68 1.390 . S
C67 H72 0.949 . S
C68 C67 1.390 . S
C68 C73 1.399 1_556 S
C69 C65 1.404 . S
C69 H70 0.950 . S
C69 C71 1.375 . S
H70 C69 0.950 . S
C71 C69 1.375 . S
C71 C73 1.382 . S
C71 H75 0.950 . S
H72 C67 0.949 . S
C73 C68 1.399 1_554 S
C73 C71 1.382 . S
C73 H74 0.952 . S
H74 C73 0.952 . S
H75 C71 0.950 . S
H76 C77 0.949 . S
C77 H76 0.949 . S
C77 C78 1.395 . S
C77 C79 1.391 . S
C78 C77 1.395 . S
C78 C81 1.390 . S
C79 C77 1.391 . S
C79 C83 1.387 . S
C79 C84 1.491 . S
H80 C81 0.950 . S
C81 C78 1.390 . S
C81 H80 0.950 . S
C81 C82 1.378 . S
C82 C81 1.378 . S
C82 C83 1.409 . S
C83 C79 1.387 . S
C83 C82 1.409 . S
C83 H85 0.951 . S
C84 C79 1.491 . S
C84 C86 1.382 . S
C84 C88 1.404 . S
H85 C83 0.951 . S
C86 C84 1.382 . S
C86 C87 1.390 . S
C86 H91 0.949 . S
C87 C86 1.390 . S
C87 C92 1.399 . S
C88 C84 1.404 . S
C88 H89 0.950 . S
C88 C90 1.375 . S
H89 C88 0.950 . S
C90 C88 1.375 . S
C90 C92 1.382 . S
C90 H94 0.950 . S
H91 C86 0.949 . S
C92 C87 1.399 . S
C92 C90 1.382 . S
C92 H93 0.952 . S
H93 C92 0.952 . S
H94 C90 0.950 . S
H95 C96 0.949 . S
C96 H95 0.949 . S
C96 C97 1.395 . S
C96 C98 1.391 . S
C97 C96 1.395 . S
C97 C100 1.390 . S
C98 C96 1.391 . S
C98 C102 1.387 . S
C98 C103 1.491 . S
H99 C100 0.950 . S
C100 C97 1.390 . S
C100 H99 0.950 . S
C100 C101 1.378 . S
C101 C100 1.378 . S
C101 C102 1.409 . S
C102 C98 1.387 . S
C102 C101 1.409 . S
C102 H104 0.951 . S
C103 C98 1.491 . S
C103 C105 1.382 . S
C103 C107 1.404 1_455 S
H104 C102 0.951 . S
C105 C103 1.382 . S
C105 C106 1.390 . S
C105 H110 0.949 . S
C106 C105 1.390 . S
C106 C111 1.399 1_455 S
C107 C103 1.404 1_655 S
C107 H108 0.950 . S
C107 C109 1.375 . S
H108 C107 0.950 . S
C109 C107 1.375 . S
C109 C111 1.382 . S
C109 H113 0.950 . S
H110 C105 0.949 . S
C111 C106 1.399 1_655 S
C111 C109 1.382 . S
C111 H112 0.952 . S
H112 C111 0.952 . S
H113 C109 0.950 . S
H114 C115 0.949 . S
C115 H114 0.949 . S
C115 C116 1.395 . S
C115 C117 1.391 . S
C116 C115 1.395 . S
C116 C119 1.390 . S
C117 C115 1.391 . S
C117 C121 1.387 . S
C117 C122 1.491 . S
H118 C119 0.950 . S
C119 C116 1.390 . S
C119 H118 0.950 . S
C119 C120 1.378 . S
C120 C119 1.378 . S
C120 C121 1.409 . S
C121 C117 1.387 . S
C121 C120 1.409 . S
C121 H123 0.951 . S
C122 C117 1.491 . S
C122 C124 1.382 . S
C122 C126 1.404 1_545 S
H123 C121 0.951 . S
C124 C122 1.382 . S
C124 C125 1.390 . S
C124 H129 0.949 . S
C125 C124 1.390 . S
C125 C130 1.399 1_545 S
C126 C122 1.404 1_565 S
C126 H127 0.950 . S
C126 C128 1.375 . S
H127 C126 0.950 . S
C128 C126 1.375 . S
C128 C130 1.382 . S
C128 H132 0.950 . S
H129 C124 0.949 . S
C130 C125 1.399 1_565 S
C130 C128 1.382 . S
C130 H131 0.952 . S
H131 C130 0.952 . S
H132 C128 0.950 . S
H133 C134 0.949 . S
C134 H133 0.949 . S
C134 C135 1.395 . S
C134 C136 1.391 . S
C135 C134 1.395 . S
C135 C138 1.390 . S
C136 C134 1.391 . S
C136 C140 1.387 . S
C136 C141 1.491 . S
H137 C138 0.950 . S
C138 C135 1.390 . S
C138 H137 0.950 . S
C138 C139 1.378 . S
C139 C138 1.378 . S
C139 C140 1.409 . S
C140 C136 1.387 . S
C140 C139 1.409 . S
C140 H142 0.951 . S
C141 C136 1.491 . S
C141 C143 1.382 . S
C141 C145 1.404 . S
H142 C140 0.951 . S
C143 C141 1.382 . S
C143 C144 1.390 . S
C143 H148 0.949 . S
C144 C143 1.390 . S
C144 C149 1.399 . S
C145 C141 1.404 . S
C145 H146 0.950 . S
C145 C147 1.375 . S
H146 C145 0.950 . S
C147 C145 1.375 . S
C147 C149 1.382 . S
C147 H151 0.950 . S
H148 C143 0.949 . S
C149 C144 1.399 . S
C149 C147 1.382 . S
C149 H150 0.952 . S
H150 C149 0.952 . S
H151 C147 0.950 . S
O152 Mg153 1.990 . S
O152 C166 1.253 . S
Mg153 O152 1.990 . S
Mg153 O156 2.180 . S
Mg153 O157 2.117 . S
Mg153 O171 2.030 . S
O154 Mg155 2.072 1_665 S
O154 C166 1.260 1_655 S
Mg155 O154 2.072 1_445 S
Mg155 O156 2.099 1_545 S
Mg155 O158 2.079 . S
Mg155 O159 2.072 . S
Mg155 O161 2.099 1_455 S
Mg155 O172 2.079 1_445 S
O156 Mg153 2.180 . S
O156 Mg155 2.099 1_565 S
O156 C167 1.279 . S
O157 Mg153 2.117 . S
O157 C167 1.250 . S
O158 Mg155 2.079 . S
O158 C168 1.264 1_455 S
O159 Mg155 2.072 . S
O159 C169 1.260 1_556 S
Mg160 O161 2.180 . S
Mg160 O162 2.030 . S
Mg160 O163 1.990 1_556 S
Mg160 O164 2.117 . S
O161 Mg155 2.099 1_655 S
O161 Mg160 2.180 . S
O161 C170 1.279 . S
O162 Mg160 2.030 . S
O162 C168 1.248 . S
O163 Mg160 1.990 1_554 S
O163 C169 1.253 1_655 S
O164 Mg160 2.117 . S
O164 C170 1.250 . S
C165 O171 1.248 1_655 S
C165 O172 1.264 . S
C166 O152 1.253 . S
C166 O154 1.260 1_455 S
C167 O156 1.279 . S
C167 O157 1.250 . S
C168 O158 1.264 1_655 S
C168 O162 1.248 . S
C169 O159 1.260 1_554 S
C169 O163 1.253 1_455 S
C170 O161 1.279 . S
C170 O164 1.250 . S
O171 Mg153 2.030 . S
O171 C165 1.248 1_455 S
O172 Mg155 2.079 1_665 S
O172 C165 1.264 . S
O173 Mg174 1.990 1_554 S
O173 C187 1.253 1_565 S
Mg174 O173 1.990 1_556 S
Mg174 O177 2.180 . S
Mg174 O178 2.117 . S
Mg174 O192 2.030 . S
O175 Mg176 2.072 . S
O175 C187 1.260 1_556 S
Mg176 O175 2.072 . S
Mg176 O177 2.099 1_545 S
Mg176 O179 2.079 1_545 S
Mg176 O180 2.072 1_545 S
Mg176 O182 2.099 . S
Mg176 O193 2.079 . S
O177 Mg174 2.180 . S
O177 Mg176 2.099 1_565 S
O177 C188 1.279 . S
O178 Mg174 2.117 . S
O178 C188 1.250 . S
O179 Mg176 2.079 1_565 S
O179 C189 1.264 . S
O180 Mg176 2.072 1_565 S
O180 C190 1.260 1_565 S
Mg181 O182 2.180 . S
Mg181 O183 2.030 . S
Mg181 O184 1.990 . S
Mg181 O185 2.117 . S
O182 Mg176 2.099 . S
O182 Mg181 2.180 . S
O182 C191 1.279 . S
O183 Mg181 2.030 . S
O183 C189 1.248 1_545 S
O184 Mg181 1.990 . S
O184 C190 1.253 . S
O185 Mg181 2.117 . S
O185 C191 1.250 . S
C186 O192 1.248 . S
C186 O193 1.264 1_565 S
C187 O173 1.253 1_545 S
C187 O175 1.260 1_554 S
C188 O177 1.279 . S
C188 O178 1.250 . S
C189 O179 1.264 . S
C189 O183 1.248 1_565 S
C190 O180 1.260 1_545 S
C190 O184 1.253 . S
C191 O182 1.279 . S
C191 O185 1.250 . S
O192 Mg174 2.030 . S
O192 C186 1.248 . S
O193 Mg176 2.079 . S
O193 C186 1.264 1_545 S
O194 Mg195 1.990 1_554 S
O194 C208 1.253 . S
Mg195 O194 1.990 1_556 S
Mg195 O198 2.180 . S
Mg195 O199 2.117 . S
Mg195 O213 2.030 . S
O196 Mg197 2.072 . S
O196 C208 1.260 1_556 S
Mg197 O196 2.072 . S
Mg197 O198 2.099 . S
Mg197 O200 2.079 . S
Mg197 O201 2.072 . S
Mg197 O203 2.099 . S
Mg197 O214 2.079 . S
O198 Mg195 2.180 . S
O198 Mg197 2.099 . S
O198 C209 1.279 . S
O199 Mg195 2.117 . S
O199 C209 1.250 . S
O200 Mg197 2.079 . S
O200 C210 1.264 . S
O201 Mg197 2.072 . S
O201 C211 1.260 . S
Mg202 O203 2.180 . S
Mg202 O204 2.030 . S
Mg202 O205 1.990 . S
Mg202 O206 2.117 . S
O203 Mg197 2.099 . S
O203 Mg202 2.180 . S
O203 C212 1.279 . S
O204 Mg202 2.030 . S
O204 C210 1.248 . S
O205 Mg202 1.990 . S
O205 C211 1.253 . S
O206 Mg202 2.117 . S
O206 C212 1.250 . S
C207 O213 1.248 . S
C207 O214 1.264 . S
C208 O194 1.253 . S
C208 O196 1.260 1_554 S
C209 O198 1.279 . S
C209 O199 1.250 . S
C210 O200 1.264 . S
C210 O204 1.248 . S
C211 O201 1.260 . S
C211 O205 1.253 . S
C212 O203 1.279 . S
C212 O206 1.250 . S
O213 Mg195 2.030 . S
O213 C207 1.248 . S
O214 Mg197 2.079 . S
O214 C207 1.264 . S
O215 Mg216 1.990 . S
O215 C229 1.253 . S
Mg216 O215 1.990 . S
Mg216 O219 2.180 . S
Mg216 O220 2.117 . S
Mg216 O234 2.030 . S
O217 Mg218 2.072 1_655 S
O217 C229 1.260 . S
Mg218 O217 2.072 1_455 S
Mg218 O219 2.099 1_455 S
Mg218 O221 2.079 . S
Mg218 O222 2.072 . S
Mg218 O224 2.099 . S
Mg218 O235 2.079 1_455 S
O219 Mg216 2.180 . S
O219 Mg218 2.099 1_655 S
O219 C230 1.279 . S
O220 Mg216 2.117 . S
O220 C230 1.250 . S
O221 Mg218 2.079 . S
O221 C231 1.264 . S
O222 Mg218 2.072 . S
O222 C232 1.260 1_556 S
Mg223 O224 2.180 . S
Mg223 O225 2.030 . S
Mg223 O226 1.990 1_556 S
Mg223 O227 2.117 . S
O224 Mg218 2.099 . S
O224 Mg223 2.180 . S
O224 C233 1.279 . S
O225 Mg223 2.030 . S
O225 C231 1.248 . S
O226 Mg223 1.990 1_554 S
O226 C232 1.253 . S
O227 Mg223 2.117 . S
O227 C233 1.250 . S
C228 O234 1.248 . S
C228 O235 1.264 . S
C229 O215 1.253 . S
C229 O217 1.260 . S
C230 O219 1.279 . S
C230 O220 1.250 . S
C231 O221 1.264 . S
C231 O225 1.248 . S
C232 O222 1.260 1_554 S
C232 O226 1.253 . S
C233 O224 1.279 . S
C233 O227 1.250 . S
O234 Mg216 2.030 . S
O234 C228 1.248 . S
O235 Mg218 2.079 1_655 S
O235 C228 1.264 . S
C125 C167 1.796 1_545 S
C191 C144 1.795 . S
C212 C87 1.796 . S
C230 C106 1.795 1_655 S
C170 C49 1.839 1_545 S
C68 C188 1.838 . S
C11 C209 1.839 . S
C30 C233 1.839 1_655 S
C168 C97 1.221 1_655 S
C186 C116 1.221 1_565 S
C207 C135 1.221 . S
C78 C231 1.221 . S
C21 C166 1.308 1_655 S
C190 C40 1.308 1_545 S
C211 C59 1.308 . S
C2 C229 1.308 . S
C101 C169 1.551 . S
C120 C187 1.552 . S
C208 C139 1.552 . S
C232 C82 1.551 . S
C25 C165 1.345 . S
C189 C44 1.345 . S
C210 C63 1.345 . S
C6 C228 1.345 . S
