# Generated by pormake.
# Topology zzz, (3,6)-cn, num edge types: 1
# Building blocks:
#     Node 0, Type 0, BuildingBlock: PAMTOO_clean_linker_0, # of connection points: 3
#     Node 1, Type 0, BuildingBlock: PAMTOO_clean_linker_0, # of connection points: 3
#     Node 2, Type 0, BuildingBlock: PAMTOO_clean_linker_0, # of connection points: 3
#     Node 3, Type 0, BuildingBlock: PAMTOO_clean_linker_0, # of connection points: 3
#     Node 4, Type 0, BuildingBlock: PAMTOO_clean_linker_0, # of connection points: 3
#     Node 5, Type 0, BuildingBlock: PAMTOO_clean_linker_0, # of connection points: 3
#     Node 6, Type 0, BuildingBlock: PAMTOO_clean_linker_0, # of connection points: 3
#     Node 7, Type 0, BuildingBlock: PAMTOO_clean_linker_0, # of connection points: 3
#     Node 8, Type 1, BuildingBlock: JUFBIX_clean_sbu_0, # of connection points: 6
#     Node 9, Type 1, BuildingBlock: JUFBIX_clean_sbu_0, # of connection points: 6
#     Node 10, Type 1, BuildingBlock: JUFBIX_clean_sbu_0, # of connection points: 6
#     Node 11, Type 1, BuildingBlock: JUFBIX_clean_sbu_0, # of connection points: 6
#     Edge 12, Type (0, 1), None
#     Edge 13, Type (0, 1), None
#     Edge 14, Type (0, 1), None
#     Edge 15, Type (0, 1), None
#     Edge 16, Type (0, 1), None
#     Edge 17, Type (0, 1), None
#     Edge 18, Type (0, 1), None
#     Edge 19, Type (0, 1), None
#     Edge 20, Type (0, 1), None
#     Edge 21, Type (0, 1), None
#     Edge 22, Type (0, 1), None
#     Edge 23, Type (0, 1), None
#     Edge 24, Type (0, 1), None
#     Edge 25, Type (0, 1), None
#     Edge 26, Type (0, 1), None
#     Edge 27, Type (0, 1), None
#     Edge 28, Type (0, 1), None
#     Edge 29, Type (0, 1), None
#     Edge 30, Type (0, 1), None
#     Edge 31, Type (0, 1), None
#     Edge 32, Type (0, 1), None
#     Edge 33, Type (0, 1), None
#     Edge 34, Type (0, 1), None
#     Edge 35, Type (0, 1), None
# Relax obj value: 0.124
# Max RMSD: 0.192
# Mean RMSD: 0.087
data_MOF--net-zzz--node1-JUFBIX_clean_sbu_0--node2-PAMTOO_clean_linker_0--edge1-none
_symmetry_space_group_name_H-M    P1
_symmetry_Int_Tables_number       1
_symmetry_cell_setting            triclinic
loop_
_symmetry_equiv_pos_as_xyz
'x, y, z'
_cell_length_a     22.630275
_cell_length_b     22.771666
_cell_length_c     8.4514513
_cell_angle_alpha  71.218308
_cell_angle_beta   88.196949
_cell_angle_gamma 91.075712
loop_
_atom_site_label
_atom_site_type_symbol
_atom_site_fract_x
_atom_site_fract_y
_atom_site_fract_z
_atom_type_partial_charge
H0 H 0.05473 0.5944 0.37013 0.0
H1 H 0.89832 0.5573 0.14041 0.0
H2 H 0.88312 0.60522 0.59243 0.0
H3 H 0.83454 0.6758 0.14676 0.0
C4 C 0.80121 0.6374 0.20257 0.0
O5 O 0.82488 0.59019 0.33186 0.0
H6 H 0.76398 0.6568 0.2568 0.0
C7 C 1.00702 0.59099 0.36947 0.0
C8 C 0.97327 0.59944 0.50212 0.0
C9 C 0.9801 0.5727 0.24467 0.0
C10 C 0.91894 0.56924 0.24054 0.0
C11 C 0.88391 0.58621 0.35603 0.0
C12 C 0.91064 0.59839 0.49305 0.0
H13 H 0.99542 0.91976 0.38314 0.0
H14 H 1.04563 0.8304 0.03622 0.0
H15 H 0.16302 0.8315 0.42277 0.0
H16 H 0.21865 0.77566 0.08853 0.0
C17 C 0.17345 0.79146 0.05193 0.0
O18 O 0.13709 0.77542 0.19569 0.0
H19 H 0.17581 0.84275 0.98978 0.0
C20 C 1.02484 0.88827 0.3494 0.0
C21 C 0.08005 0.87899 0.42126 0.0
C22 C 1.0252 0.88915 0.18462 0.0
C23 C 0.05331 0.83985 0.15153 0.0
C24 C 0.10341 0.81636 0.24167 0.0
C25 C 0.11997 0.84062 0.36926 0.0
H26 H 0.69032 0.98018 0.36303 0.0
H27 H 0.78469 1.01302 0.89799 0.0
H28 H 0.85339 0.08812 0.26242 0.0
H29 H 0.89068 0.13049 0.82086 0.0
C30 C 0.90361 0.08168 0.84365 0.0
O31 O 0.88553 1.04533 0.00568 0.0
H32 H 0.88272 0.06339 0.75109 0.0
C33 C 0.73022 0.99725 0.28616 0.0
C34 C 0.76811 1.03813 0.32798 0.0
C35 C 0.72895 1.0026 0.11981 0.0
C36 C 0.78225 1.0168 0.02255 0.0
C37 C 0.83064 1.04218 0.0811 0.0
C38 C 0.82093 0.05951 0.22736 0.0
H39 H 0.5447 0.58291 0.36782 0.0
H40 H 0.56296 0.74226 0.92957 0.0
H41 H 0.59584 0.76049 0.41169 0.0
H42 H 0.5117 0.84945 0.96418 0.0
C43 C 0.56002 0.86058 0.94458 0.0
O44 O 0.58959 0.82284 0.08229 0.0
H45 H 0.57612 0.85124 0.82965 0.0
C46 C 0.55189 0.63262 0.31261 0.0
C47 C 0.57131 0.66743 0.41319 0.0
C48 C 0.5484 0.65935 0.13886 0.0
C49 C 0.56155 0.72285 0.06476 0.0
C50 C 0.57555 0.761 0.16118 0.0
C51 C 0.5817 0.73254 0.33679 0.0
H52 H 0.11527 0.51743 0.38862 0.0
H53 H 0.2724 0.54494 0.62967 0.0
H54 H 0.28621 0.49792 0.17578 0.0
H55 H 0.40068 0.43759 0.50896 0.0
C56 C 0.36647 0.45999 0.56537 0.0
O57 O 0.34467 0.5097 0.43932 0.0
H58 H 0.33123 0.42375 0.62199 0.0
C59 C 0.16298 0.5185 0.39192 0.0
C60 C 0.19648 0.50828 0.26135 0.0
C61 C 0.19033 0.5348 0.51918 0.0
C62 C 0.2515 0.53471 0.52743 0.0
C63 C 0.28593 0.51654 0.41272 0.0
C64 C 0.25894 0.5061 0.27374 0.0
H65 H 0.16518 0.1909 0.37147 0.0
H66 H 0.11924 0.28176 0.71615 0.0
H67 H 0.9982 0.28041 0.3369 0.0
H68 H 0.98822 0.26706 0.77275 0.0
C69 C 0.99092 0.31844 0.71278 0.0
O70 O 1.0257 0.33537 0.56584 0.0
H71 H 0.94517 0.33389 0.68234 0.0
C72 C 0.13624 0.22268 0.40561 0.0
C73 C 0.08079 0.23245 0.33514 0.0
C74 C 0.13655 0.22174 0.57033 0.0
C75 C 0.10983 0.27171 0.60289 0.0
C76 C 0.05904 0.29505 0.51618 0.0
C77 C 1.04149 0.27104 0.38873 0.0
H78 H 0.46229 0.115 0.41285 0.0
H79 H 0.37735 1.04998 0.89793 0.0
H80 H 0.30444 0.9992 0.50151 0.0
H81 H 0.27295 0.07717 0.91889 0.0
C82 C 0.25539 1.02984 0.93164 0.0
O83 O 0.2794 1.00853 0.80555 0.0
H84 H 0.26873 0.999 0.05538 0.0
C85 C 0.42365 0.09371 0.4908 0.0
C86 C 0.38673 0.05456 0.43904 0.0
C87 C 0.42708 0.08116 0.6607 0.0
C88 C 0.37649 0.05715 0.76493 0.0
C89 C 0.32705 1.03553 0.70107 0.0
C90 C 0.33484 1.02884 0.53993 0.0
H91 H 0.61846 0.50954 0.39987 0.0
H92 H 0.63753 0.347 0.82363 0.0
H93 H 0.58881 0.32851 0.35133 0.0
H94 H 0.53349 0.24228 0.78324 0.0
C95 C 0.58074 0.23197 0.80861 0.0
O96 O 0.61603 0.2662 0.66938 0.0
H97 H 0.59259 0.24526 0.91929 0.0
C98 C 0.61815 0.4594 0.45251 0.0
C99 C 0.60271 0.42325 0.35207 0.0
C100 C 0.62947 0.43244 0.62229 0.0
C101 C 0.62922 0.36771 0.69201 0.0
C102 C 0.61403 0.32937 0.59717 0.0
C103 C 0.59968 0.35749 0.42642 0.0
Co104 Co 0.07854 0.07664 0.9792 0.0
C105 C 0.97032 0.07982 0.82576 0.0
Co106 Co 0.08066 1.03514 0.77613 0.0
C107 C 0.09258 0.16228 0.16433 0.0
C108 C 1.01776 0.10062 0.25237 0.0
N109 N 0.06715 0.10991 0.15208 0.0
N110 N 0.06006 0.18734 0.2621 0.0
C111 C 1.01342 0.14793 0.32007 0.0
H112 H 0.13358 0.18298 0.09883 0.0
H113 H 0.98499 0.06382 0.2675 0.0
C114 C 0.18866 1.03231 0.93271 0.0
N115 N 0.09182 1.00194 0.60311 0.0
C116 C 0.06735 0.94886 0.5925 0.0
C117 C 0.14079 1.01225 0.50097 0.0
N118 N 0.1001 0.92449 0.49364 0.0
C119 C 0.14587 0.96491 0.4337 0.0
C120 C 0.11917 0.16004 0.68952 0.0
O121 O 0.16013 0.05602 0.02937 0.0
O122 O 0.1611 1.01722 0.82319 0.0
O123 O 0.1068 0.11502 0.63565 0.0
O124 O 0.10641 0.15429 0.84023 0.0
O125 O 0.99699 0.05318 0.73244 0.0
H126 H 0.17286 1.04979 0.48433 0.0
H127 H 1.027 0.92714 0.65999 0.0
O128 O 0.99985 0.09733 0.92744 0.0
O129 O 1.04999 0.99713 0.11832 0.0
O130 O 0.05566 0.95689 0.91605 0.0
C131 C 1.04065 0.95131 0.06518 0.0
H132 H 0.97974 0.15193 0.40959 0.0
H133 H 0.17948 0.96148 0.34331 0.0
Co134 Co 0.55403 1.03641 0.00688 0.0
C135 C 0.56906 0.92919 0.91885 0.0
Co136 Co 0.60394 0.05478 0.76485 0.0
C137 C 0.45462 0.0526 0.20822 0.0
C138 C 0.4944 0.96586 0.32268 0.0
N139 N 0.50273 1.01956 0.19586 0.0
N140 N 0.41704 1.02291 0.33925 0.0
C141 C 0.44244 0.96793 0.41039 0.0
H142 H 0.44872 0.09969 0.12744 0.0
H143 H 0.52399 0.92741 0.34948 0.0
C144 C 0.58757 0.16227 0.85205 0.0
N145 N 0.65495 0.07254 0.57525 0.0
C146 C 0.70477 1.04192 0.5636 0.0
C147 C 0.66024 0.12517 0.44387 0.0
N148 N 0.7401 0.07139 0.42707 0.0
C149 C 0.7119 0.12445 0.35335 0.0
C150 C 0.48589 0.07267 0.73098 0.0
O151 O 0.56239 0.12443 0.9845 0.0
O152 O 0.61126 0.14064 0.74559 0.0
O153 O 0.53318 0.07368 0.64252 0.0
O154 O 0.48775 0.05467 0.8873 0.0
O155 O 0.59526 0.96647 0.78692 0.0
H156 H 0.62851 0.16172 0.41515 0.0
H157 H 0.71281 0.99572 0.64692 0.0
O158 O 0.5457 0.95124 0.02468 0.0
O159 O 0.62391 1.0165 0.12876 0.0
O160 O 0.67104 1.0362 0.88591 0.0
C161 C 0.67146 1.01604 0.04274 0.0
H162 H 0.42779 0.93413 0.52847 0.0
H163 H 0.72408 0.1571 0.2313 0.0
Co164 Co 0.63515 0.55924 0.8754 0.0
C165 C 0.59425 0.45777 0.17017 0.0
Co166 Co 0.53993 0.5306 0.88996 0.0
C167 C 0.72466 0.58905 0.06918 0.0
C168 C 0.76109 0.60523 0.82179 0.0
N169 N 0.71172 0.58367 0.91819 0.0
N170 N 0.77912 0.6136 0.07136 0.0
C171 C 0.80242 0.62399 0.91538 0.0
H172 H 0.69314 0.57865 0.17424 0.0
H173 H 0.76573 0.60998 0.6904 0.0
C174 C 0.58025 0.63208 0.59478 0.0
N175 N 0.46294 0.50698 0.84855 0.0
C176 C 0.44925 0.49955 0.70045 0.0
C177 C 0.41194 0.49278 0.94153 0.0
N178 N 0.3927 0.4805 0.69737 0.0
C179 C 0.36875 0.47632 0.84898 0.0
C180 C 0.55444 0.619 0.03414 0.0
O181 O 0.6314 0.62561 0.65818 0.0
O182 O 0.53789 0.59652 0.67672 0.0
O183 O 0.51224 0.5861 0.00621 0.0
O184 O 0.60646 0.61353 0.98332 0.0
O185 O 0.54329 0.46421 0.10616 0.0
H186 H 0.40675 0.49304 0.06901 0.0
H187 H 0.48089 0.50609 0.59707 0.0
O188 O 0.63674 0.49336 0.08896 0.0
O189 O 0.66338 0.50381 0.7616 0.0
O190 O 0.56911 0.4762 0.77972 0.0
C191 C 0.62175 0.47072 0.73199 0.0
H192 H 0.845 0.64656 0.8697 0.0
H193 H 0.32386 0.4605 0.8918 0.0
Co194 Co 0.10223 0.60289 0.84673 0.0
C195 C 0.16529 0.51719 0.10238 0.0
Co196 Co 0.06786 0.50511 0.91632 0.0
C197 C 0.15739 0.701 0.94579 0.0
C198 C 0.09939 0.73774 0.74548 0.0
N199 N 0.12577 0.68483 0.83082 0.0
N200 N 0.15143 0.76083 0.9356 0.0
C201 C 0.1151 0.7842 0.80965 0.0
H202 H 0.18053 0.66888 0.04573 0.0
H203 H 0.06644 0.74131 0.65331 0.0
C204 C 1.00479 0.59071 0.66058 0.0
N205 N 1.04385 0.42321 0.93291 0.0
C206 C 1.00843 0.40694 0.82537 0.0
C207 C 0.0729 0.37092 0.00814 0.0
N208 N 1.01464 0.34767 0.83026 0.0
C209 C 0.05521 0.32491 0.94482 0.0
C210 C 1.01584 0.56154 0.11141 0.0
O211 O 1.04171 0.6313 0.67725 0.0
O212 O 1.00905 0.53525 0.75488 0.0
O213 O 1.01411 0.50924 0.08672 0.0
O214 O 1.04887 0.60561 0.01934 0.0
O215 O 0.12817 0.47673 0.0859 0.0
H216 H 0.10883 0.36768 0.09146 0.0
H217 H 0.98204 0.43871 0.73355 0.0
O218 O 0.16129 0.57273 0.00788 0.0
O219 O 0.15602 0.59881 0.67576 0.0
O220 O 0.12144 0.50228 0.7442 0.0
C221 C 0.15459 0.54629 0.65214 0.0
H222 H 0.09771 0.83011 0.77578 0.0
H223 H 0.07404 0.2799 0.97079 0.0
loop_
_geom_bond_atom_site_label_1
_geom_bond_atom_site_label_2
_geom_bond_distance
_geom_bond_site_symmetry_2
_ccdc_geom_bond_type
H0 C7 0.929 1_455 S
H1 C10 0.930 . S
H2 C12 0.929 . S
H3 C4 0.969 . S
C4 H3 0.969 . S
C4 O5 1.550 . S
C4 H6 0.973 1_554 S
O5 C4 1.550 . S
O5 C11 1.412 . S
H6 C4 0.973 1_556 S
C7 H0 0.929 1_655 S
C7 C8 1.400 . S
C7 C9 1.364 . S
C8 C7 1.400 . S
C8 C12 1.377 . S
C9 C7 1.364 . S
C9 C10 1.374 . S
C10 H1 0.930 . S
C10 C9 1.374 . S
C10 C11 1.383 . S
C11 O5 1.412 . S
C11 C10 1.383 . S
C11 C12 1.394 . S
C12 H2 0.929 . S
C12 C8 1.377 . S
C12 C11 1.394 . S
H13 C20 0.929 . S
H14 C23 0.930 . S
H15 C25 0.929 . S
H16 C17 0.969 1_455 S
C17 H16 0.969 1_655 S
C17 O18 1.550 1_556 S
C17 H19 0.973 . S
O18 C17 1.550 1_554 S
O18 C24 1.412 . S
H19 C17 0.973 . S
C20 H13 0.929 . S
C20 C21 1.400 . S
C20 C22 1.364 1_554 S
C21 C20 1.400 . S
C21 C25 1.377 . S
C22 C20 1.364 1_556 S
C22 C23 1.374 . S
C23 H14 0.930 . S
C23 C22 1.374 . S
C23 C24 1.383 1_556 S
C24 O18 1.412 . S
C24 C23 1.383 1_554 S
C24 C25 1.394 . S
C25 H15 0.929 . S
C25 C21 1.377 . S
C25 C24 1.394 . S
H26 C33 0.929 1_565 S
H27 C36 0.933 . S
H28 C38 0.934 1_565 S
H29 C30 0.969 . S
C30 H29 0.969 . S
C30 O31 1.550 1_546 S
C30 H32 0.973 1_545 S
O31 C30 1.550 1_564 S
O31 C37 1.412 1_565 S
H32 C30 0.973 1_565 S
C33 H26 0.929 1_545 S
C33 C34 1.396 . S
C33 C35 1.365 1_554 S
C34 C33 1.396 . S
C34 C38 1.376 . S
C35 C33 1.365 1_556 S
C35 C36 1.373 1_545 S
C36 H27 0.933 . S
C36 C35 1.373 1_565 S
C36 C37 1.381 1_566 S
C37 O31 1.412 1_545 S
C37 C36 1.381 1_544 S
C37 C38 1.393 . S
C38 H28 0.934 1_545 S
C38 C34 1.376 . S
C38 C37 1.393 . S
H39 C46 0.929 . S
H40 C49 0.930 1_556 S
H41 C51 0.929 . S
H42 C43 0.969 1_556 S
C43 H42 0.969 1_554 S
C43 O44 1.550 . S
C43 H45 0.973 1_554 S
O44 C43 1.550 . S
O44 C50 1.412 . S
H45 C43 0.973 1_556 S
C46 H39 0.929 . S
C46 C47 1.400 . S
C46 C48 1.364 . S
C47 C46 1.400 . S
C47 C51 1.377 . S
C48 C46 1.364 . S
C48 C49 1.374 . S
C49 H40 0.930 1_554 S
C49 C48 1.374 . S
C49 C50 1.383 . S
C50 O44 1.412 . S
C50 C49 1.383 . S
C50 C51 1.394 . S
C51 H41 0.929 . S
C51 C47 1.377 . S
C51 C50 1.394 . S
H52 C59 0.929 . S
H53 C62 0.930 . S
H54 C64 0.929 . S
H55 C56 0.969 . S
C56 H55 0.969 . S
C56 O57 1.550 . S
C56 H58 0.973 . S
O57 C56 1.550 . S
O57 C63 1.412 . S
H58 C56 0.973 . S
C59 H52 0.929 . S
C59 C60 1.400 . S
C59 C61 1.364 . S
C60 C59 1.400 . S
C60 C64 1.377 . S
C61 C59 1.364 . S
C61 C62 1.374 . S
C62 H53 0.930 . S
C62 C61 1.374 . S
C62 C63 1.383 . S
C63 O57 1.412 . S
C63 C62 1.383 . S
C63 C64 1.394 . S
C64 H54 0.929 . S
C64 C60 1.377 . S
C64 C63 1.394 . S
H65 C72 0.929 . S
H66 C75 0.930 . S
H67 C77 0.929 . S
H68 C69 0.969 . S
C69 H68 0.969 . S
C69 O70 1.550 . S
C69 H71 0.973 . S
O70 C69 1.550 . S
O70 C76 1.412 . S
H71 C69 0.973 . S
C72 H65 0.929 . S
C72 C73 1.400 . S
C72 C74 1.364 . S
C73 C72 1.400 . S
C73 C77 1.377 . S
C74 C72 1.364 . S
C74 C75 1.374 . S
C75 H66 0.930 . S
C75 C74 1.374 . S
C75 C76 1.383 . S
C76 O70 1.412 . S
C76 C75 1.383 . S
C76 C77 1.394 . S
C77 H67 0.929 . S
C77 C73 1.377 . S
C77 C76 1.394 . S
H78 C85 0.928 1_565 S
H79 C88 0.930 . S
H80 C90 0.923 1_565 S
H81 C82 0.969 . S
C82 H81 0.969 . S
C82 O83 1.550 1_545 S
C82 H84 0.973 1_545 S
O83 C82 1.550 1_565 S
O83 C89 1.412 1_565 S
H84 C82 0.973 1_565 S
C85 H78 0.928 1_545 S
C85 C86 1.398 . S
C85 C87 1.363 . S
C86 C85 1.398 . S
C86 C90 1.377 . S
C87 C85 1.363 . S
C87 C88 1.375 1_545 S
C88 H79 0.930 . S
C88 C87 1.375 1_565 S
C88 C89 1.384 1_565 S
C89 O83 1.412 1_545 S
C89 C88 1.384 1_545 S
C89 C90 1.397 . S
C90 H80 0.923 1_545 S
C90 C86 1.377 . S
C90 C89 1.397 . S
H91 C98 0.929 . S
H92 C101 0.930 . S
H93 C103 0.929 . S
H94 C95 0.969 . S
C95 H94 0.969 . S
C95 O96 1.550 . S
C95 H97 0.973 . S
O96 C95 1.550 . S
O96 C102 1.412 . S
H97 C95 0.973 . S
C98 H91 0.929 . S
C98 C99 1.400 . S
C98 C100 1.364 . S
C99 C98 1.400 . S
C99 C103 1.377 . S
C100 C98 1.364 . S
C100 C101 1.374 . S
C101 H92 0.930 . S
C101 C100 1.374 . S
C101 C102 1.383 . S
C102 O96 1.412 . S
C102 C101 1.383 . S
C102 C103 1.394 . S
C103 H93 0.929 . S
C103 C99 1.377 . S
C103 C102 1.394 . S
Co104 N109 2.057 . S
Co104 O121 2.021 1_545 S
Co104 O124 2.062 1_554 S
Co104 O128 2.117 1_454 S
Co104 O129 2.020 1_545 S
C105 O125 1.259 . S
C105 O128 1.258 . S
Co106 N115 2.057 . S
Co106 O122 2.117 . S
Co106 O123 2.020 1_565 S
Co106 O125 2.021 1_465 S
Co106 O130 2.062 . S
C107 N109 1.316 . S
C107 N110 1.347 . S
C107 H112 0.931 . S
C108 N109 1.375 1_655 S
C108 C111 1.350 1_655 S
C108 H113 0.930 . S
N109 Co104 2.057 . S
N109 C107 1.316 . S
N109 C108 1.375 1_455 S
N110 C107 1.347 . S
N110 C111 1.373 . S
C111 C108 1.350 1_455 S
C111 N110 1.373 . S
C111 H132 0.931 1_455 S
H112 C107 0.931 . S
H113 C108 0.930 . S
C114 O121 1.259 1_556 S
C114 O122 1.258 . S
N115 Co106 2.057 . S
N115 C116 1.316 1_455 S
N115 C117 1.375 . S
C116 N115 1.316 1_655 S
C116 N118 1.347 . S
C116 H127 0.931 . S
C117 N115 1.375 . S
C117 C119 1.350 . S
C117 H126 0.930 . S
N118 C116 1.347 . S
N118 C119 1.373 1_655 S
C119 C117 1.350 . S
C119 N118 1.373 1_455 S
C119 H133 0.931 . S
C120 O123 1.256 . S
C120 O124 1.255 . S
O121 Co104 2.021 1_565 S
O121 C114 1.259 1_554 S
O122 Co106 2.117 . S
O122 C114 1.258 . S
O123 Co106 2.020 1_545 S
O123 C120 1.256 . S
O124 Co104 2.062 1_556 S
O124 C120 1.255 . S
O125 C105 1.259 . S
O125 Co106 2.021 1_645 S
H126 C117 0.930 . S
H127 C116 0.931 . S
O128 Co104 2.117 1_656 S
O128 C105 1.258 . S
O129 Co104 2.020 1_565 S
O129 C131 1.256 . S
O130 Co106 2.062 . S
O130 C131 1.255 1_556 S
C131 O129 1.256 . S
C131 O130 1.255 1_554 S
H132 C111 0.931 1_655 S
H133 C119 0.931 . S
Co134 N139 2.057 1_545 S
Co134 O151 2.021 1_554 S
Co134 O154 2.062 1_554 S
Co134 O158 2.117 1_545 S
Co134 O159 2.020 . S
C135 O155 1.259 . S
C135 O158 1.258 1_556 S
Co136 N145 2.057 1_565 S
Co136 O152 2.117 1_565 S
Co136 O153 2.020 . S
Co136 O155 2.021 . S
Co136 O160 2.062 . S
C137 N139 1.316 1_545 S
C137 N140 1.347 1_545 S
C137 H142 0.931 . S
C138 N139 1.375 . S
C138 C141 1.350 . S
C138 H143 0.930 . S
N139 Co134 2.057 1_565 S
N139 C137 1.316 1_565 S
N139 C138 1.375 . S
N140 C137 1.347 1_565 S
N140 C141 1.373 . S
C141 C138 1.350 . S
C141 N140 1.373 . S
C141 H162 0.931 . S
H142 C137 0.931 . S
H143 C138 0.930 . S
C144 O151 1.259 . S
C144 O152 1.258 . S
N145 Co136 2.057 1_545 S
N145 C146 1.316 1_545 S
N145 C147 1.375 . S
C146 N145 1.316 1_565 S
C146 N148 1.347 1_565 S
C146 H157 0.931 . S
C147 N145 1.375 . S
C147 C149 1.350 . S
C147 H156 0.930 . S
N148 C146 1.347 1_545 S
N148 C149 1.373 . S
C149 C147 1.350 . S
C149 N148 1.373 . S
C149 H163 0.931 . S
C150 O153 1.256 . S
C150 O154 1.255 1_565 S
O151 Co134 2.021 1_556 S
O151 C144 1.259 . S
O152 Co136 2.117 1_545 S
O152 C144 1.258 . S
O153 Co136 2.020 . S
O153 C150 1.256 . S
O154 Co134 2.062 1_556 S
O154 C150 1.255 1_545 S
O155 C135 1.259 . S
O155 Co136 2.021 . S
H156 C147 0.930 . S
H157 C146 0.931 . S
O158 Co134 2.117 1_565 S
O158 C135 1.258 1_554 S
O159 Co134 2.020 . S
O159 C161 1.256 1_554 S
O160 Co136 2.062 . S
O160 C161 1.255 1_565 S
C161 O159 1.256 1_556 S
C161 O160 1.255 1_545 S
H162 C141 0.931 . S
H163 C149 0.931 . S
Co164 N169 2.057 . S
Co164 O181 2.021 . S
Co164 O184 2.062 . S
Co164 O188 2.117 1_556 S
Co164 O189 2.020 . S
C165 O185 1.259 . S
C165 O188 1.258 . S
Co166 N175 2.057 . S
Co166 O182 2.117 . S
Co166 O183 2.020 . S
Co166 O185 2.021 1_556 S
Co166 O190 2.062 . S
C167 N169 1.316 . S
C167 N170 1.347 1_556 S
C167 H172 0.931 . S
C168 N169 1.375 1_554 S
C168 C171 1.350 . S
C168 H173 0.930 . S
N169 Co164 2.057 . S
N169 C167 1.316 . S
N169 C168 1.375 1_556 S
N170 C167 1.347 1_554 S
N170 C171 1.373 . S
C171 C168 1.350 . S
C171 N170 1.373 . S
C171 H192 0.931 . S
H172 C167 0.931 . S
H173 C168 0.930 . S
C174 O181 1.259 . S
C174 O182 1.258 . S
N175 Co166 2.057 . S
N175 C176 1.316 . S
N175 C177 1.375 . S
C176 N175 1.316 . S
C176 N178 1.347 . S
C176 H187 0.931 . S
C177 N175 1.375 . S
C177 C179 1.350 . S
C177 H186 0.930 . S
N178 C176 1.347 . S
N178 C179 1.373 . S
C179 C177 1.350 . S
C179 N178 1.373 . S
C179 H193 0.931 . S
C180 O183 1.256 1_554 S
C180 O184 1.255 1_554 S
O181 Co164 2.021 . S
O181 C174 1.259 . S
O182 Co166 2.117 . S
O182 C174 1.258 . S
O183 Co166 2.020 . S
O183 C180 1.256 1_556 S
O184 Co164 2.062 . S
O184 C180 1.255 1_556 S
O185 C165 1.259 . S
O185 Co166 2.021 1_554 S
H186 C177 0.930 . S
H187 C176 0.931 . S
O188 Co164 2.117 1_554 S
O188 C165 1.258 . S
O189 Co164 2.020 . S
O189 C191 1.256 . S
O190 Co166 2.062 . S
O190 C191 1.255 . S
C191 O189 1.256 . S
C191 O190 1.255 . S
H192 C171 0.931 . S
H193 C179 0.931 . S
Co194 N199 2.057 . S
Co194 O211 2.021 1_455 S
Co194 O214 2.062 1_455 S
Co194 O218 2.117 1_556 S
Co194 O219 2.020 . S
C195 O215 1.259 . S
C195 O218 1.258 . S
Co196 N205 2.057 . S
Co196 O212 2.117 1_455 S
Co196 O213 2.020 1_456 S
Co196 O215 2.021 1_556 S
Co196 O220 2.062 . S
C197 N199 1.316 . S
C197 N200 1.347 . S
C197 H202 0.931 1_455 S
C198 N199 1.375 . S
C198 C201 1.350 . S
C198 H203 0.930 1_556 S
N199 Co194 2.057 . S
N199 C197 1.316 . S
N199 C198 1.375 . S
N200 C197 1.347 . S
N200 C201 1.373 . S
C201 C198 1.350 . S
C201 N200 1.373 . S
C201 H222 0.931 1_556 S
H202 C197 0.931 1_655 S
H203 C198 0.930 1_554 S
C204 O211 1.259 . S
C204 O212 1.258 . S
N205 Co196 2.057 . S
N205 C206 1.316 . S
N205 C207 1.375 1_455 S
C206 N205 1.316 . S
C206 N208 1.347 . S
C206 H217 0.931 1_556 S
C207 N205 1.375 1_655 S
C207 C209 1.350 . S
C207 H216 0.930 . S
N208 C206 1.347 . S
N208 C209 1.373 1_455 S
C209 C207 1.350 . S
C209 N208 1.373 1_655 S
C209 H223 0.931 . S
C210 O213 1.256 . S
C210 O214 1.255 1_554 S
O211 Co194 2.021 1_655 S
O211 C204 1.259 . S
O212 Co196 2.117 1_655 S
O212 C204 1.258 . S
O213 Co196 2.020 1_654 S
O213 C210 1.256 . S
O214 Co194 2.062 1_655 S
O214 C210 1.255 1_556 S
O215 C195 1.259 . S
O215 Co196 2.021 1_554 S
H216 C207 0.930 . S
H217 C206 0.931 1_554 S
O218 Co194 2.117 1_554 S
O218 C195 1.258 . S
O219 Co194 2.020 . S
O219 C221 1.256 . S
O220 Co196 2.062 . S
O220 C221 1.255 . S
C221 O219 1.256 . S
C221 O220 1.255 . S
H222 C201 0.931 1_554 S
H223 C209 0.931 . S
C82 C114 2.071 1_545 S
C144 C95 2.019 . S
N178 C56 1.322 . S
N208 C69 2.005 . S
C105 C30 1.984 . S
C43 C135 1.967 1_554 S
C4 N170 1.129 . S
C17 N200 1.671 1_655 S
C120 C74 1.269 . S
C150 C87 1.405 1_565 S
C191 C100 1.833 . S
C61 C221 1.208 . S
C22 C131 1.251 1_656 S
C161 C35 1.407 . S
C180 C48 1.827 . S
C9 C210 1.194 . S
C73 N110 1.578 . S
C86 N140 1.505 1_545 S
C165 C99 1.827 . S
C195 C60 1.746 . S
C21 N118 1.565 . S
N148 C34 1.506 . S
C174 C47 1.829 . S
C8 C204 1.745 . S
