# Generated by pormake.
# Topology tsx, (6,3)-cn, num edge types: 1
# Building blocks:
#     Node 0, Type 0, BuildingBlock: FUNLAD_clean_sbu_0, # of connection points: 6
#     Node 1, Type 0, BuildingBlock: FUNLAD_clean_sbu_0, # of connection points: 6
#     Node 2, Type 1, BuildingBlock: BETDAH_clean_linker_0, # of connection points: 3
#     Node 3, Type 1, BuildingBlock: BETDAH_clean_linker_0, # of connection points: 3
#     Node 4, Type 1, BuildingBlock: BETDAH_clean_linker_0, # of connection points: 3
#     Node 5, Type 1, BuildingBlock: BETDAH_clean_linker_0, # of connection points: 3
#     Edge 6, Type (0, 1), BuildingBlock: AJUNOK_clean_linker_0, # of connection points: 2
#     Edge 7, Type (0, 1), BuildingBlock: AJUNOK_clean_linker_0, # of connection points: 2
#     Edge 8, Type (0, 1), BuildingBlock: AJUNOK_clean_linker_0, # of connection points: 2
#     Edge 9, Type (0, 1), BuildingBlock: AJUNOK_clean_linker_0, # of connection points: 2
#     Edge 10, Type (0, 1), BuildingBlock: AJUNOK_clean_linker_0, # of connection points: 2
#     Edge 11, Type (0, 1), BuildingBlock: AJUNOK_clean_linker_0, # of connection points: 2
#     Edge 12, Type (0, 1), BuildingBlock: AJUNOK_clean_linker_0, # of connection points: 2
#     Edge 13, Type (0, 1), BuildingBlock: AJUNOK_clean_linker_0, # of connection points: 2
#     Edge 14, Type (0, 1), BuildingBlock: AJUNOK_clean_linker_0, # of connection points: 2
#     Edge 15, Type (0, 1), BuildingBlock: AJUNOK_clean_linker_0, # of connection points: 2
#     Edge 16, Type (0, 1), BuildingBlock: AJUNOK_clean_linker_0, # of connection points: 2
#     Edge 17, Type (0, 1), BuildingBlock: AJUNOK_clean_linker_0, # of connection points: 2
# Relax obj value: 0.111
# Max RMSD: 0.118
# Mean RMSD: 0.113
data_MOF--net-tsx--node1-FUNLAD_clean_sbu_0--node2-BETDAH_clean_linker_0--edge1-AJUNOK_clean_linker_0
_symmetry_space_group_name_H-M    P1
_symmetry_Int_Tables_number       1
_symmetry_cell_setting            triclinic
loop_
_symmetry_equiv_pos_as_xyz
'x, y, z'
_cell_length_a     14.03329
_cell_length_b     15.60551
_cell_length_c     30.320988
_cell_angle_alpha  90.854107
_cell_angle_beta   100.84674
_cell_angle_gamma 89.888388
loop_
_atom_site_label
_atom_site_type_symbol
_atom_site_fract_x
_atom_site_fract_y
_atom_site_fract_z
_atom_type_partial_charge
C0 C 0.98181 0.88966 0.01999 0.0
N1 N 0.15052 0.04808 0.11533 0.0
C2 C 0.06843 0.06543 0.13164 0.0
C3 C 0.07198 0.07579 0.17756 0.0
C4 C 0.16043 0.06648 0.20729 0.0
C5 C 0.24482 0.05047 0.1899 0.0
C6 C 0.23828 0.04208 0.14334 0.0
Zn7 Zn 0.13251 0.02685 0.04739 0.0
C8 C 0.25766 0.89104 0.01928 0.0
N9 N 0.07706 0.98607 0.90554 0.0
C10 C 0.98526 0.98455 0.88103 0.0
C11 C 0.15574 0.98535 0.8852 0.0
C12 C 0.14371 0.98584 0.83842 0.0
C13 C 0.04992 0.98855 0.81255 0.0
C14 C 0.96999 0.98619 0.83421 0.0
Zn15 Zn 0.09842 1.00286 0.97369 0.0
O16 O 0.02415 0.93595 0.05253 0.0
C17 C 0.97125 0.1362 -0.00149 0.0
O18 O 1.0003 0.90074 0.98088 0.0
H19 H 0.22808 0.98734 0.90528 0.0
H20 H 0.999 0.06838 0.10915 0.0
H21 H 0.92375 0.98492 0.89782 0.0
O22 O 0.02587 0.1274 0.03665 0.0
O23 O 0.98425 0.0896 0.96572 0.0
H24 H 0.30264 0.0283 0.1297 0.0
O25 O 0.19895 0.10726 0.96898 0.0
O26 O 0.23965 0.11599 0.04256 0.0
O27 O 0.21053 0.91416 0.98152 0.0
O28 O 0.24094 0.92664 0.0552 0.0
C29 C 0.25058 0.14042 0.00414 0.0
H30 H 1.00518 0.08626 0.18988 0.0
H31 H 0.31418 0.04213 0.2121 0.0
H32 H 0.20687 0.98739 0.82268 0.0
H33 H 0.89653 0.98689 0.8151 0.0
C34 C 0.30933 0.38922 0.48092 0.0
N35 N 0.49299 0.4876 0.59338 0.0
C36 C 0.41406 0.48636 0.61353 0.0
C37 C 0.42561 0.48427 0.66021 0.0
C38 C 0.51922 0.48447 0.68631 0.0
C39 C 0.59948 0.48435 0.66481 0.0
C40 C 0.58464 0.48534 0.61797 0.0
Zn41 Zn 0.47051 0.5032 0.52548 0.0
C42 C 0.58369 0.38769 0.47694 0.0
N43 N 0.41097 0.54295 0.38437 0.0
C44 C 0.32253 0.53821 0.35673 0.0
C45 C 0.49259 0.56031 0.36793 0.0
C46 C 0.48773 0.57286 0.32226 0.0
C47 C 0.3984 0.5658 0.29286 0.0
C48 C 0.31465 0.54882 0.31036 0.0
Zn49 Zn 0.43105 0.52289 0.45208 0.0
O50 O 0.35911 0.41525 0.51787 0.0
C51 C 0.31545 0.63791 0.49692 0.0
O52 O 0.32361 0.42179 0.44435 0.0
H53 H 0.56253 0.56228 0.39009 0.0
H54 H 0.34184 0.4893 0.59343 0.0
H55 H 0.25859 0.52435 0.37049 0.0
O56 O 0.36985 0.60773 0.53165 0.0
O57 O 0.32417 0.61108 0.45826 0.0
H58 H 0.64632 0.48648 0.6013 0.0
O59 O 0.53733 0.62483 0.46299 0.0
O60 O 0.58387 0.58972 0.53352 0.0
O61 O 0.53822 0.43252 0.44528 0.0
O62 O 0.56868 0.40041 0.51673 0.0
C63 C 0.59384 0.63549 0.50068 0.0
H64 H 0.36217 0.48527 0.67578 0.0
H65 H 0.67278 0.48418 0.68409 0.0
H66 H 0.55406 0.58376 0.30975 0.0
H67 H 0.2447 0.54185 0.28833 0.0
H68 H 0.19961 0.95235 0.41747 0.0
H69 H 0.93477 0.08068 0.35925 0.0
H70 H 0.93831 0.90775 0.46776 0.0
C71 C 0.12424 0.96747 0.4176 0.0
C72 C 0.07613 0.92557 0.44772 0.0
C73 C 0.07297 0.01937 0.38373 0.0
C74 C 0.97611 0.04113 0.38511 0.0
C75 C 0.92841 1.00358 0.41666 0.0
C76 C 0.97751 0.9431 0.44648 0.0
N77 N 0.82728 0.0154 0.41376 0.0
C78 C 0.78729 0.09361 0.4233 0.0
H79 H 0.89439 0.86971 0.6238 0.0
H80 H 0.0097 0.11853 0.60252 0.0
H81 H 0.81501 0.99022 0.49641 0.0
C82 C 0.90294 0.92176 0.60157 0.0
C83 C 0.85259 0.91927 0.55703 0.0
C84 C 0.95801 0.99414 0.61861 0.0
C85 C 0.96739 0.0624 0.58981 0.0
C86 C 0.9164 0.06004 0.54529 0.0
C87 C 0.85684 0.99027 0.53006 0.0
N88 N 0.91647 0.12973 0.51605 0.0
C89 C 0.99977 0.17026 0.5089 0.0
H90 H 0.67042 0.36383 0.87572 0.0
H91 H 0.56014 0.61675 0.89528 0.0
H92 H 0.74523 0.49091 0.00355 0.0
C93 C 0.66151 0.41726 0.89784 0.0
C94 C 0.71017 0.41678 0.94266 0.0
C95 C 0.60777 0.48923 0.88038 0.0
C96 C 0.60002 0.56034 0.90859 0.0
C97 C 0.64918 0.56027 0.95336 0.0
C98 C 0.70567 0.48973 0.96947 0.0
N99 N 0.65118 0.63329 0.98169 0.0
C100 C 0.56853 0.67415 0.99013 0.0
H101 H 0.35763 0.46358 0.07949 0.0
H102 H 0.62008 0.59477 0.14063 0.0
H103 H 0.62212 0.41806 0.03175 0.0
C104 C 0.43295 0.47952 0.0799 0.0
C105 C 0.48287 0.43645 0.05028 0.0
C106 C 0.48298 0.53177 0.11473 0.0
C107 C 0.57969 0.55491 0.11401 0.0
C108 C 0.62886 0.51762 0.08234 0.0
C109 C 0.58146 0.45507 0.05223 0.0
N110 N 0.73038 0.5296 0.08654 0.0
C111 C 0.77138 0.6055 0.0752 0.0
C112 C 0.28315 0.29264 0.98871 0.0
C113 C 0.31894 0.21101 0.00196 0.0
C114 C 0.34065 0.36615 0.00042 0.0
C115 C 0.43586 0.36006 0.02539 0.0
H116 H 0.20777 0.30046 0.97288 0.0
H117 H 0.30805 0.42853 0.99292 0.0
S118 S 0.56665 0.15875 0.06186 0.0
N119 N 0.4576 0.12688 0.03656 0.0
N120 N 0.5663 0.26423 0.05816 0.0
C121 C 0.47508 0.27778 0.0348 0.0
C122 C 0.41621 0.20338 0.02331 0.0
C123 C 0.4293 0.84213 0.04131 0.0
C124 C 0.33345 0.82557 0.01953 0.0
C125 C 0.50595 0.79036 0.03262 0.0
C126 C 0.48833 0.72063 0.0023 0.0
H127 H 0.44578 0.89828 0.06283 0.0
H128 H 0.57961 0.80689 0.04836 0.0
S129 S 0.24961 0.64352 0.94192 0.0
N130 N 0.22451 0.72984 0.96982 0.0
N131 N 0.36869 0.63208 0.95435 0.0
C132 C 0.3927 0.70005 0.98278 0.0
C133 C 0.315 0.75285 0.99122 0.0
C134 C 0.85827 0.83032 0.06107 0.0
C135 C 0.91965 0.81856 0.0296 0.0
C136 C 0.80849 0.76093 0.07539 0.0
C137 C 0.82083 0.67743 0.05962 0.0
H138 H 0.84964 0.89349 0.07511 0.0
H139 H 0.7617 0.77245 0.0995 0.0
S140 S 0.97696 0.61185 0.97901 0.0
N141 N 0.98992 0.71694 0.9835 0.0
N142 N 0.90104 0.58643 0.01225 0.0
C143 C 0.88219 0.66488 0.02846 0.0
C144 C 0.93041 0.73558 0.01289 0.0
C145 C 0.928 0.28979 0.00077 0.0
C146 C 0.89904 0.20488 0.99044 0.0
C147 C 0.86573 0.35777 0.98581 0.0
C148 C 0.77178 0.34312 0.96074 0.0
H149 H 1.00108 0.30394 0.01829 0.0
H150 H 0.89309 0.4222 0.99243 0.0
S151 S 0.65758 0.13065 0.93109 0.0
N152 N 0.76904 0.10835 0.95705 0.0
N153 N 0.64955 0.23628 0.93091 0.0
C154 C 0.74028 0.25789 0.95259 0.0
C155 C 0.80453 0.18872 0.96701 0.0
C156 C 0.63433 0.78978 0.49946 0.0
C157 C 0.66501 0.70522 0.50839 0.0
C158 C 0.69601 0.85871 0.51481 0.0
C159 C 0.79075 0.84508 0.53905 0.0
H160 H 0.56056 0.80284 0.48275 0.0
H161 H 0.668 0.92312 0.50903 0.0
S162 S 0.90921 0.63432 0.56465 0.0
N163 N 0.79748 0.61048 0.53924 0.0
N164 N 0.91546 0.74004 0.56636 0.0
C165 C 0.82382 0.76035 0.54573 0.0
C166 C 0.7604 0.69036 0.53078 0.0
C167 C 0.65418 0.24067 0.49049 0.0
C168 C 0.64568 0.3166 0.46567 0.0
C169 C 0.70013 0.16812 0.47622 0.0
C170 C 0.7412 0.16972 0.43737 0.0
H171 H 0.62152 0.23598 0.52002 0.0
H172 H 0.70222 0.1101 0.49549 0.0
S173 S 0.74238 0.35285 0.36145 0.0
N174 N 0.68472 0.38908 0.40067 0.0
N175 N 0.77228 0.25278 0.37472 0.0
C176 C 0.73543 0.24531 0.41284 0.0
C177 C 0.68766 0.31889 0.42689 0.0
C178 C 0.24345 0.27285 0.52151 0.0
C179 C 0.23429 0.32368 0.48277 0.0
C180 C 0.16774 0.22029 0.52904 0.0
C181 C 0.08053 0.21661 0.49806 0.0
H182 H 0.30864 0.27581 0.54714 0.0
H183 H 0.1764 0.18461 0.55994 0.0
S184 S 0.02097 0.33013 0.38998 0.0
N185 N 0.13225 0.36213 0.41184 0.0
N186 N 0.98967 0.26225 0.4261 0.0
C187 C 0.07147 0.26297 0.45819 0.0
C188 C 0.14873 0.31671 0.4504 0.0
C189 C 0.28087 0.79112 0.51041 0.0
C190 C 0.24608 0.70768 0.49958 0.0
C191 C 0.22166 0.86259 0.49751 0.0
C192 C 0.12584 0.85266 0.4736 0.0
H193 H 0.35664 0.80142 0.52506 0.0
H194 H 0.25333 0.926 0.50318 0.0
S195 S 0.99754 0.6461 0.44357 0.0
N196 N 0.1079 0.61829 0.46859 0.0
N197 N 0.99608 0.75193 0.44463 0.0
C198 C 0.08774 0.76912 0.46675 0.0
C199 C 0.14825 0.69669 0.47955 0.0
C200 C 0.11953 0.12776 0.2782 0.0
C201 C 0.15969 0.06106 0.25588 0.0
C202 C 0.09752 0.11594 0.321 0.0
C203 C 0.11354 0.03658 0.34266 0.0
H204 H 0.10105 0.18816 0.26157 0.0
H205 H 0.06386 0.16804 0.33638 0.0
S206 S 0.21743 0.8416 0.29749 0.0
N207 N 0.21738 0.91439 0.25858 0.0
N208 N 0.17286 0.89018 0.33784 0.0
C209 C 0.15715 0.97039 0.32106 0.0
C210 C 0.18097 0.98316 0.27796 0.0
C211 C 0.07202 0.93297 0.73732 0.0
C212 C 0.03513 0.99594 0.76317 0.0
C213 C 0.05107 0.93504 0.69024 0.0
C214 C 0.99431 1.00113 0.66761 0.0
H215 H 0.11397 0.88 0.75357 0.0
H216 H 0.0769 0.88331 0.67136 0.0
S217 S 0.88715 0.1845 0.72024 0.0
N218 N 0.94414 0.12854 0.76305 0.0
N219 N 0.90529 0.13283 0.6746 0.0
C220 C 0.96096 0.06652 0.69319 0.0
C221 C 0.98114 0.06376 0.741 0.0
C222 C 0.58941 0.55438 0.75969 0.0
C223 C 0.53348 0.48808 0.73585 0.0
C224 C 0.6079 0.55726 0.80671 0.0
C225 C 0.5721 0.49329 0.83141 0.0
H226 H 0.62012 0.60373 0.74182 0.0
H227 H 0.65418 0.60768 0.82387 0.0
S228 S 0.41877 0.30808 0.78491 0.0
N229 N 0.4393 0.359 0.74022 0.0
N230 N 0.47528 0.36381 0.82883 0.0
C231 C 0.51389 0.42801 0.80799 0.0
C232 C 0.49415 0.42561 0.76011 0.0
C233 C 0.43567 0.6328 0.22356 0.0
C234 C 0.3975 0.56381 0.24405 0.0
C235 C 0.45699 0.62421 0.18026 0.0
C236 C 0.44238 0.54584 0.15632 0.0
H237 H 0.45327 0.69248 0.24199 0.0
H238 H 0.48916 0.67804 0.16628 0.0
S239 S 0.34397 0.34573 0.19625 0.0
N240 N 0.34304 0.41617 0.23727 0.0
N241 N 0.38661 0.39775 0.15713 0.0
C242 C 0.40071 0.47732 0.17617 0.0
C243 C 0.37744 0.4869 0.21974 0.0
loop_
_geom_bond_atom_site_label_1
_geom_bond_atom_site_label_2
_geom_bond_distance
_geom_bond_site_symmetry_2
_ccdc_geom_bond_type
C0 O16 1.261 . S
C0 O18 1.242 1_554 S
N1 C2 1.333 1_445 S
N1 C6 1.307 . S
N1 Zn7 2.020 . S
C2 N1 1.333 1_665 S
C2 C3 1.379 . S
C2 H20 0.952 . S
C3 C2 1.379 . S
C3 C4 1.390 1_665 S
C3 H30 0.949 . S
C4 C3 1.390 1_445 S
C4 C5 1.357 . S
C5 C4 1.357 . S
C5 C6 1.370 . S
C5 H31 0.950 . S
C6 N1 1.307 . S
C6 C5 1.370 . S
C6 H24 0.948 . S
Zn7 N1 2.020 . S
Zn7 O16 2.039 1_445 S
Zn7 O22 2.034 1_455 S
Zn7 O26 2.025 . S
Zn7 O28 2.024 1_545 S
C8 O27 1.246 1_554 S
C8 O28 1.249 . S
N9 C10 1.307 1_545 S
N9 C11 1.333 1_655 S
N9 Zn15 2.020 1_655 S
C10 N9 1.307 1_565 S
C10 C14 1.370 . S
C10 H21 0.948 . S
C11 N9 1.333 1_455 S
C11 C12 1.379 . S
C11 H19 0.952 . S
C12 C11 1.379 . S
C12 C13 1.390 1_455 S
C12 H32 0.949 . S
C13 C12 1.390 1_655 S
C13 C14 1.357 1_545 S
C14 C10 1.370 . S
C14 C13 1.357 1_565 S
C14 H33 0.950 . S
Zn15 N9 2.020 1_455 S
Zn15 O18 2.025 1_445 S
Zn15 O23 2.024 1_455 S
Zn15 O25 2.039 . S
Zn15 O27 2.034 1_545 S
O16 C0 1.261 . S
O16 Zn7 2.039 1_665 S
C17 O22 1.225 1_556 S
C17 O23 1.273 . S
O18 C0 1.242 1_556 S
O18 Zn15 2.025 1_665 S
H19 C11 0.952 . S
H20 C2 0.952 . S
H21 C10 0.948 . S
O22 Zn7 2.034 1_655 S
O22 C17 1.225 1_554 S
O23 Zn15 2.024 1_655 S
O23 C17 1.273 . S
H24 C6 0.948 . S
O25 Zn15 2.039 . S
O25 C29 1.251 1_556 S
O26 Zn7 2.025 . S
O26 C29 1.254 . S
O27 C8 1.246 1_556 S
O27 Zn15 2.034 1_565 S
O28 Zn7 2.024 1_565 S
O28 C8 1.249 . S
C29 O25 1.251 1_554 S
C29 O26 1.254 . S
H30 C3 0.949 . S
H31 C5 0.950 . S
H32 C12 0.949 . S
H33 C14 0.950 . S
C34 O50 1.251 . S
C34 O52 1.254 . S
N35 C36 1.333 . S
N35 C40 1.307 . S
N35 Zn41 2.020 . S
C36 N35 1.333 . S
C36 C37 1.379 . S
C36 H54 0.952 . S
C37 C36 1.379 . S
C37 C38 1.390 . S
C37 H64 0.949 . S
C38 C37 1.390 . S
C38 C39 1.357 . S
C39 C38 1.357 . S
C39 C40 1.370 . S
C39 H65 0.950 . S
C40 N35 1.307 . S
C40 C39 1.370 . S
C40 H58 0.948 . S
Zn41 N35 2.020 . S
Zn41 O50 2.039 . S
Zn41 O56 2.034 . S
Zn41 O60 2.025 . S
Zn41 O62 2.024 . S
C42 O61 1.246 . S
C42 O62 1.249 . S
N43 C44 1.307 . S
N43 C45 1.333 . S
N43 Zn49 2.020 . S
C44 N43 1.307 . S
C44 C48 1.370 . S
C44 H55 0.948 . S
C45 N43 1.333 . S
C45 C46 1.379 . S
C45 H53 0.952 . S
C46 C45 1.379 . S
C46 C47 1.390 . S
C46 H66 0.949 . S
C47 C46 1.390 . S
C47 C48 1.357 . S
C48 C44 1.370 . S
C48 C47 1.357 . S
C48 H67 0.950 . S
Zn49 N43 2.020 . S
Zn49 O52 2.025 . S
Zn49 O57 2.024 . S
Zn49 O59 2.039 . S
Zn49 O61 2.034 . S
O50 C34 1.251 . S
O50 Zn41 2.039 . S
C51 O56 1.246 . S
C51 O57 1.249 . S
O52 C34 1.254 . S
O52 Zn49 2.025 . S
H53 C45 0.952 . S
H54 C36 0.952 . S
H55 C44 0.948 . S
O56 Zn41 2.034 . S
O56 C51 1.246 . S
O57 Zn49 2.024 . S
O57 C51 1.249 . S
H58 C40 0.948 . S
O59 Zn49 2.039 . S
O59 C63 1.251 . S
O60 Zn41 2.025 . S
O60 C63 1.254 . S
O61 C42 1.246 . S
O61 Zn49 2.034 . S
O62 Zn41 2.024 . S
O62 C42 1.249 . S
C63 O59 1.251 . S
C63 O60 1.254 . S
H64 C37 0.949 . S
H65 C39 0.950 . S
H66 C46 0.949 . S
H67 C48 0.950 . S
H68 C71 0.929 . S
H69 C74 0.929 1_655 S
H70 C76 0.930 . S
C71 H68 0.929 . S
C71 C72 1.398 . S
C71 C73 1.396 . S
C72 C71 1.398 . S
C72 C76 1.407 . S
C73 C71 1.396 . S
C73 C74 1.394 1_565 S
C74 H69 0.929 1_455 S
C74 C73 1.394 1_545 S
C74 C75 1.382 . S
C75 C74 1.382 . S
C75 C76 1.392 1_545 S
C75 N77 1.420 1_455 S
C76 H70 0.930 . S
C76 C72 1.407 . S
C76 C75 1.392 1_565 S
N77 C75 1.420 1_655 S
N77 C78 1.244 . S
C78 N77 1.244 . S
H79 C82 0.929 . S
H80 C85 0.929 . S
H81 C87 0.930 . S
C82 H79 0.929 . S
C82 C83 1.398 . S
C82 C84 1.396 1_565 S
C83 C82 1.398 . S
C83 C87 1.407 . S
C84 C82 1.396 1_545 S
C84 C85 1.394 1_655 S
C85 H80 0.929 . S
C85 C84 1.394 1_455 S
C85 C86 1.382 . S
C86 C85 1.382 . S
C86 C87 1.392 1_445 S
C86 N88 1.420 . S
C87 H81 0.930 . S
C87 C83 1.407 . S
C87 C86 1.392 1_665 S
N88 C86 1.420 . S
N88 C89 1.244 . S
C89 N88 1.244 . S
H90 C93 0.929 . S
H91 C96 0.929 . S
H92 C98 0.930 . S
C93 H90 0.929 . S
C93 C94 1.398 . S
C93 C95 1.396 . S
C94 C93 1.398 . S
C94 C98 1.407 1_556 S
C95 C93 1.396 . S
C95 C96 1.394 . S
C96 H91 0.929 . S
C96 C95 1.394 . S
C96 C97 1.382 . S
C97 C96 1.382 . S
C97 C98 1.392 1_556 S
C97 N99 1.420 1_556 S
C98 H92 0.930 . S
C98 C94 1.407 1_554 S
C98 C97 1.392 1_554 S
N99 C97 1.420 1_554 S
N99 C100 1.244 1_554 S
C100 N99 1.244 1_556 S
H101 C104 0.929 . S
H102 C107 0.929 . S
H103 C109 0.930 1_556 S
C104 H101 0.929 . S
C104 C105 1.398 . S
C104 C106 1.396 . S
C105 C104 1.398 . S
C105 C109 1.407 . S
C106 C104 1.396 . S
C106 C107 1.394 . S
C107 H102 0.929 . S
C107 C106 1.394 . S
C107 C108 1.382 . S
C108 C107 1.382 . S
C108 C109 1.392 . S
C108 N110 1.420 . S
C109 H103 0.930 1_554 S
C109 C105 1.407 . S
C109 C108 1.392 . S
N110 C108 1.420 . S
N110 C111 1.244 . S
C111 N110 1.244 . S
C112 C113 1.372 . S
C112 C114 1.417 . S
C112 H116 0.929 1_554 S
C113 C112 1.372 . S
C113 C122 1.429 . S
C114 C112 1.417 . S
C114 C115 1.363 . S
C114 H117 0.929 1_554 S
C115 C114 1.363 . S
C115 C121 1.428 . S
H116 C112 0.929 1_556 S
H117 C114 0.929 1_556 S
S118 N119 1.613 . S
S118 N120 1.610 . S
N119 S118 1.613 . S
N119 C122 1.350 . S
N120 S118 1.610 . S
N120 C121 1.351 . S
C121 C115 1.428 . S
C121 N120 1.351 . S
C121 C122 1.434 . S
C122 C113 1.429 . S
C122 N119 1.350 . S
C122 C121 1.434 . S
C123 C124 1.369 . S
C123 C125 1.419 . S
C123 H127 0.930 . S
C124 C123 1.369 . S
C124 C133 1.429 . S
C125 C123 1.419 . S
C125 C126 1.363 . S
C125 H128 0.929 . S
C126 C125 1.363 . S
C126 C132 1.428 . S
H127 C123 0.930 . S
H128 C125 0.929 . S
S129 N130 1.615 . S
S129 N131 1.606 . S
N130 S129 1.615 . S
N130 C133 1.350 . S
N131 S129 1.606 . S
N131 C132 1.351 . S
C132 C126 1.428 . S
C132 N131 1.351 . S
C132 C133 1.434 . S
C133 C124 1.429 . S
C133 N130 1.350 . S
C133 C132 1.434 . S
C134 C135 1.354 1_554 S
C134 C136 1.419 . S
C134 H138 0.930 . S
C135 C134 1.354 1_556 S
C135 C144 1.441 . S
C136 C134 1.419 . S
C136 C137 1.364 . S
C136 H139 0.929 . S
C137 C136 1.364 . S
C137 C143 1.427 1_554 S
H138 C134 0.930 . S
H139 C136 0.929 . S
S140 N141 1.613 . S
S140 N142 1.610 . S
N141 S140 1.613 . S
N141 C144 1.350 . S
N142 S140 1.610 . S
N142 C143 1.351 . S
C143 C137 1.427 1_556 S
C143 N142 1.351 . S
C143 C144 1.434 . S
C144 C135 1.441 . S
C144 N141 1.350 . S
C144 C143 1.434 . S
C145 C146 1.369 1_554 S
C145 C147 1.419 . S
C145 H149 0.930 . S
C146 C145 1.369 1_556 S
C146 C155 1.429 . S
C147 C145 1.419 . S
C147 C148 1.363 1_554 S
C147 H150 0.929 . S
C148 C147 1.363 1_556 S
C148 C154 1.428 . S
H149 C145 0.930 . S
H150 C147 0.929 . S
S151 N152 1.613 . S
S151 N153 1.610 . S
N152 S151 1.613 . S
N152 C155 1.350 . S
N153 S151 1.610 . S
N153 C154 1.351 . S
C154 C148 1.428 . S
C154 N153 1.351 . S
C154 C155 1.434 . S
C155 C146 1.429 . S
C155 N152 1.350 . S
C155 C154 1.434 . S
C156 C157 1.369 . S
C156 C158 1.419 . S
C156 H160 0.930 . S
C157 C156 1.369 . S
C157 C166 1.429 . S
C158 C156 1.419 . S
C158 C159 1.363 . S
C158 H161 0.929 . S
C159 C158 1.363 . S
C159 C165 1.428 . S
H160 C156 0.930 . S
H161 C158 0.929 . S
S162 N163 1.613 . S
S162 N164 1.610 . S
N163 S162 1.613 . S
N163 C166 1.350 . S
N164 S162 1.610 . S
N164 C165 1.351 . S
C165 C159 1.428 . S
C165 N164 1.351 . S
C165 C166 1.434 . S
C166 C157 1.429 . S
C166 N163 1.350 . S
C166 C165 1.434 . S
C167 C168 1.369 . S
C167 C169 1.419 . S
C167 H171 0.930 . S
C168 C167 1.369 . S
C168 C177 1.429 . S
C169 C167 1.419 . S
C169 C170 1.363 . S
C169 H172 0.929 . S
C170 C169 1.363 . S
C170 C176 1.428 . S
H171 C167 0.930 . S
H172 C169 0.929 . S
S173 N174 1.613 . S
S173 N175 1.610 . S
N174 S173 1.613 . S
N174 C177 1.350 . S
N175 S173 1.610 . S
N175 C176 1.351 . S
C176 C170 1.428 . S
C176 N175 1.351 . S
C176 C177 1.434 . S
C177 C168 1.429 . S
C177 N174 1.350 . S
C177 C176 1.434 . S
C178 C179 1.369 . S
C178 C180 1.419 . S
C178 H182 0.930 . S
C179 C178 1.369 . S
C179 C188 1.429 . S
C180 C178 1.419 . S
C180 C181 1.363 . S
C180 H183 0.929 . S
C181 C180 1.363 . S
C181 C187 1.428 . S
H182 C178 0.930 . S
H183 C180 0.929 . S
S184 N185 1.613 . S
S184 N186 1.610 . S
N185 S184 1.613 . S
N185 C188 1.350 . S
N186 S184 1.610 . S
N186 C187 1.351 . S
C187 C181 1.428 . S
C187 N186 1.351 . S
C187 C188 1.434 . S
C188 C179 1.429 . S
C188 N185 1.350 . S
C188 C187 1.434 . S
C189 C190 1.369 . S
C189 C191 1.419 . S
C189 H193 0.930 . S
C190 C189 1.369 . S
C190 C199 1.429 . S
C191 C189 1.419 . S
C191 C192 1.363 . S
C191 H194 0.929 . S
C192 C191 1.363 . S
C192 C198 1.428 . S
H193 C189 0.930 . S
H194 C191 0.929 . S
S195 N196 1.613 . S
S195 N197 1.610 . S
N196 S195 1.613 . S
N196 C199 1.350 . S
N197 S195 1.610 . S
N197 C198 1.351 . S
C198 C192 1.428 . S
C198 N197 1.351 . S
C198 C199 1.434 . S
C199 C190 1.429 . S
C199 N196 1.350 . S
C199 C198 1.434 . S
C200 C201 1.369 . S
C200 C202 1.419 . S
C200 H204 0.930 1_455 S
C201 C200 1.369 . S
C201 C210 1.429 1_545 S
C202 C200 1.419 . S
C202 C203 1.363 . S
C202 H205 0.929 1_455 S
C203 C202 1.363 . S
C203 C209 1.428 1_545 S
H204 C200 0.930 1_655 S
H205 C202 0.929 1_655 S
S206 N207 1.613 . S
S206 N208 1.610 . S
N207 S206 1.613 . S
N207 C210 1.350 . S
N208 S206 1.610 . S
N208 C209 1.351 . S
C209 C203 1.428 1_565 S
C209 N208 1.351 . S
C209 C210 1.434 . S
C210 C201 1.429 1_565 S
C210 N207 1.350 . S
C210 C209 1.434 . S
C211 C212 1.369 1_565 S
C211 C213 1.419 . S
C211 H215 0.930 . S
C212 C211 1.369 1_545 S
C212 C221 1.429 1_655 S
C213 C211 1.419 . S
C213 C214 1.363 1_565 S
C213 H216 0.929 . S
C214 C213 1.363 1_545 S
C214 C220 1.428 1_655 S
H215 C211 0.930 . S
H216 C213 0.929 . S
S217 N218 1.613 . S
S217 N219 1.610 . S
N218 S217 1.613 . S
N218 C221 1.350 . S
N219 S217 1.610 . S
N219 C220 1.351 . S
C220 C214 1.428 1_455 S
C220 N219 1.351 . S
C220 C221 1.434 . S
C221 C212 1.429 1_455 S
C221 N218 1.350 . S
C221 C220 1.434 . S
C222 C223 1.369 . S
C222 C224 1.419 . S
C222 H226 0.930 . S
C223 C222 1.369 . S
C223 C232 1.429 . S
C224 C222 1.419 . S
C224 C225 1.363 . S
C224 H227 0.929 . S
C225 C224 1.363 . S
C225 C231 1.428 . S
H226 C222 0.930 . S
H227 C224 0.929 . S
S228 N229 1.613 . S
S228 N230 1.610 . S
N229 S228 1.613 . S
N229 C232 1.350 . S
N230 S228 1.610 . S
N230 C231 1.351 . S
C231 C225 1.428 . S
C231 N230 1.351 . S
C231 C232 1.434 . S
C232 C223 1.429 . S
C232 N229 1.350 . S
C232 C231 1.434 . S
C233 C234 1.369 . S
C233 C235 1.419 . S
C233 H237 0.930 . S
C234 C233 1.369 . S
C234 C243 1.429 . S
C235 C233 1.419 . S
C235 C236 1.363 . S
C235 H238 0.929 . S
C236 C235 1.363 . S
C236 C242 1.428 . S
H237 C233 0.930 . S
H238 C235 0.929 . S
S239 N240 1.613 . S
S239 N241 1.610 . S
N240 S239 1.613 . S
N240 C243 1.350 . S
N241 S239 1.610 . S
N241 C242 1.351 . S
C242 C236 1.428 . S
C242 N241 1.351 . S
C242 C243 1.434 . S
C243 C234 1.429 . S
C243 N240 1.350 . S
C243 C242 1.434 . S
C115 C105 1.468 . S
C113 C29 1.513 . S
C124 C8 1.460 . S
C126 C100 1.408 1_554 S
C135 C0 1.468 1_556 S
C137 C111 1.416 . S
C146 C17 1.510 . S
C148 C94 1.470 . S
C157 C63 1.513 . S
C159 C83 1.469 . S
C168 C42 1.458 . S
C170 C78 1.403 . S
C181 C89 1.415 . S
C179 C34 1.462 . S
C192 C72 1.470 . S
C190 C51 1.512 . S
C201 C4 1.522 . S
C203 C73 1.516 1_545 S
C212 C13 1.515 . S
C214 C84 1.511 . S
C225 C95 1.517 . S
C223 C38 1.521 . S
C234 C47 1.513 . S
C236 C106 1.508 . S
