# Generated by pormake.
# Topology pts, (4,4)-cn, num edge types: 1
# Building blocks:
#     Node 0, Type 0, BuildingBlock: MIFKUJ_clean_linker_1, # of connection points: 4
#     Node 1, Type 0, BuildingBlock: MIFKUJ_clean_linker_1, # of connection points: 4
#     Node 2, Type 1, BuildingBlock: QUQFOY_clean_sbu_1, # of connection points: 4
#     Node 3, Type 1, BuildingBlock: QUQFOY_clean_sbu_1, # of connection points: 4
#     Edge 4, Type (0, 1), BuildingBlock: CIFDUS_clean_linker_0, # of connection points: 2
#     Edge 5, Type (0, 1), BuildingBlock: CIFDUS_clean_linker_0, # of connection points: 2
#     Edge 6, Type (0, 1), BuildingBlock: CIFDUS_clean_linker_0, # of connection points: 2
#     Edge 7, Type (0, 1), BuildingBlock: CIFDUS_clean_linker_0, # of connection points: 2
#     Edge 8, Type (0, 1), BuildingBlock: CIFDUS_clean_linker_0, # of connection points: 2
#     Edge 9, Type (0, 1), BuildingBlock: CIFDUS_clean_linker_0, # of connection points: 2
#     Edge 10, Type (0, 1), BuildingBlock: CIFDUS_clean_linker_0, # of connection points: 2
#     Edge 11, Type (0, 1), BuildingBlock: CIFDUS_clean_linker_0, # of connection points: 2
# Relax obj value: 0.096
# Max RMSD: 0.259
# Mean RMSD: 0.154
data_MOF--net-pts--node1-QUQFOY_clean_sbu_1--node2-MIFKUJ_clean_linker_1--edge1-CIFDUS_clean_linker_0
_symmetry_space_group_name_H-M    P1
_symmetry_Int_Tables_number       1
_symmetry_cell_setting            triclinic
loop_
_symmetry_equiv_pos_as_xyz
'x, y, z'
_cell_length_a     25.681568
_cell_length_b     28.237894
_cell_length_c     39.108775
_cell_angle_alpha  90.210841
_cell_angle_beta   89.96109
_cell_angle_gamma 90.180357
loop_
_atom_site_label
_atom_site_type_symbol
_atom_site_fract_x
_atom_site_fract_y
_atom_site_fract_z
_atom_type_partial_charge
H0 H 0.57368 0.96715 0.06443 0.0
H1 H 0.64666 0.96555 0.10397 0.0
H2 H 0.6963 0.10307 0.06763 0.0
H3 H 0.62041 0.10586 0.03025 0.0
H4 H 0.49776 0.03613 0.07082 0.0
H5 H 0.57948 0.96592 0.95574 0.0
H6 H 0.65031 0.96365 0.91428 0.0
H7 H 0.67874 0.11303 0.93164 0.0
H8 H 0.60482 0.11536 0.97091 0.0
H9 H 0.39136 0.10329 0.95485 0.0
H10 H 0.31458 0.08989 0.91923 0.0
H11 H 0.31842 0.94094 0.94506 0.0
H12 H 0.39279 0.95576 0.9824 0.0
H13 H 0.4909 0.04226 0.94428 0.0
H14 H 0.36106 0.09221 0.02532 0.0
H15 H 0.28652 0.08991 0.06401 0.0
H16 H 0.35573 0.97193 0.11737 0.0
H17 H 0.42818 0.97245 0.07724 0.0
C18 C 0.59214 0.03619 0.04383 0.0
C19 C 0.60076 0.99666 0.06466 0.0
C20 C 0.64285 0.99572 0.08716 0.0
C21 C 0.67772 0.03418 0.08911 0.0
C22 C 0.66997 0.07306 0.06723 0.0
C23 C 0.62721 0.07429 0.04514 0.0
C24 C 0.54278 0.0396 0.02451 0.0
C25 C 0.49615 0.03734 0.04311 0.0
C26 C 0.5408 0.04228 0.98851 0.0
C27 C 0.58797 0.0405 0.967 0.0
C28 C 0.60151 0.99797 0.95082 0.0
C29 C 0.64229 0.99678 0.92722 0.0
C30 C 0.67082 0.03812 0.91957 0.0
C31 C 0.65744 0.08059 0.93642 0.0
C32 C 0.61585 0.08188 0.95948 0.0
C33 C 0.39714 0.03059 0.97139 0.0
C34 C 0.37488 0.06799 0.95316 0.0
C35 C 0.33138 0.06003 0.93247 0.0
C36 C 0.31027 0.01414 0.92882 0.0
C37 C 0.33272 0.97688 0.94755 0.0
C38 C 0.37547 0.98515 0.96883 0.0
C39 C 0.44588 0.03782 0.99063 0.0
C40 C 0.49234 0.04181 0.97201 0.0
C41 C 0.44764 0.03586 0.02668 0.0
C42 C 0.40006 0.03219 0.04808 0.0
C43 C 0.35943 0.06497 0.0447 0.0
C44 C 0.31723 0.06414 0.06729 0.0
C45 C 0.31518 0.03095 0.09404 0.0
C46 C 0.35549 0.99759 0.09687 0.0
C47 C 0.39728 0.9981 0.07407 0.0
H48 H 0.07322 0.42677 0.44796 0.0
H49 H 0.07729 0.35852 0.4095 0.0
H50 H 0.92836 0.31003 0.44711 0.0
H51 H 0.92388 0.379 0.48525 0.0
H52 H 0.00699 0.49609 0.4462 0.0
H53 H 0.05222 0.37805 0.52964 0.0
H54 H 0.04661 0.30842 0.5667 0.0
H55 H 0.89827 0.35714 0.60486 0.0
H56 H 0.90353 0.42615 0.5675 0.0
H57 H 0.90731 0.56481 0.57029 0.0
H58 H 0.90582 0.63268 0.60922 0.0
H59 H 0.05363 0.68003 0.56908 0.0
H60 H 0.05568 0.6114 0.53059 0.0
H61 H 0.97157 0.49484 0.57066 0.0
H62 H 0.92589 0.61269 0.48748 0.0
H63 H 0.93023 0.68171 0.44972 0.0
H64 H 0.07834 0.63337 0.41092 0.0
H65 H 0.0743 0.56497 0.44889 0.0
C66 C -0.0017 0.4081 0.46958 0.0
C67 C 0.04153 0.40135 0.44813 0.0
C68 C 0.04383 0.36236 0.42616 0.0
C69 C 0.00302 0.32913 0.42523 0.0
C70 C 0.96057 0.33488 0.44755 0.0
C71 C 0.95804 0.37425 0.46936 0.0
C72 C -0.00582 0.45217 0.49031 0.0
C73 C 2e-05 0.49582 0.47356 0.0
C74 C 0.9832 0.45184 0.52575 0.0
C75 C 0.97821 0.40736 0.54569 0.0
C76 C 0.01794 0.37321 0.5454 0.0
C77 C 0.01474 0.33345 0.56658 0.0
C78 C 0.97214 0.32756 0.58877 0.0
C79 C 0.93181 0.36107 0.58829 0.0
C80 C 0.9348 0.40048 0.56696 0.0
C81 C 0.98153 0.58291 0.5474 0.0
C82 C 0.93929 0.58992 0.56965 0.0
C83 C 0.93844 0.62869 0.59188 0.0
C84 C 0.97971 0.66146 0.59224 0.0
C85 C 0.02108 0.65554 0.56909 0.0
C86 C 0.0222 0.61637 0.54705 0.0
C87 C 0.98455 0.53882 0.52657 0.0
C88 C 0.97849 0.49516 0.54329 0.0
C89 C -0.00477 0.53914 0.49109 0.0
C90 C -0.0002 0.58358 0.47106 0.0
C91 C 0.95986 0.61751 0.47142 0.0
C92 C 0.96233 0.65692 0.44984 0.0
C93 C 0.00443 0.66265 0.42723 0.0
C94 C 0.04511 0.62951 0.42777 0.0
C95 C 0.04284 0.59045 0.44947 0.0
O96 O 0.92696 0.95459 0.23381 0.0
Cd97 Cd -0.0067 0.94616 0.26274 0.0
Cd98 Cd -0.00658 0.04255 0.26177 0.0
O99 O 0.92627 0.0327 0.23372 0.0
O100 O -0.00648 0.87798 0.27515 0.0
O101 O 0.99016 0.93522 0.31375 0.0
C102 C 0.99165 0.89047 0.30683 0.0
C103 C -0.00754 0.09915 0.30555 0.0
C104 C 0.90647 0.99337 0.22449 0.0
C105 C 0.0837 0.99354 0.2281 0.0
O106 O 0.06257 0.03276 0.23585 0.0
O107 O 0.06279 0.95477 0.23722 0.0
O108 O -0.00591 0.11104 0.2738 0.0
O109 O 0.99104 0.05453 0.3127 0.0
O110 O 0.92688 0.03146 0.78002 0.0
Cd111 Cd -0.00664 0.04191 0.75086 0.0
Cd112 Cd -0.00096 0.94561 0.75726 0.0
O113 O 0.93192 0.95388 0.78507 0.0
O114 O 0.98832 0.11003 0.73859 0.0
O115 O 0.99027 0.05306 0.6998 0.0
C116 C 0.98779 0.09771 0.70688 0.0
C117 C -0.00099 0.88954 0.7133 0.0
C118 C 0.90916 0.99266 0.79173 0.0
C119 C 0.08684 1.00119 0.78718 0.0
O120 O 0.06699 0.96033 0.78302 0.0
O121 O 0.06454 0.03776 0.77537 0.0
O122 O 0.00083 0.87727 0.745 0.0
O123 O -0.00212 0.93425 0.70635 0.0
H124 H 0.26654 0.95577 0.12409 0.0
H125 H 0.26748 0.10868 0.12196 0.0
H126 H 0.19744 0.1106 0.16403 0.0
H127 H 0.13531 0.06901 0.201 0.0
H128 H 0.13643 0.91613 0.20443 0.0
H129 H 0.20756 0.91432 0.16314 0.0
C130 C 0.25198 0.98959 0.1331 0.0
C131 C 0.27222 0.03198 0.11959 0.0
C132 C 0.21236 0.99053 0.15781 0.0
C133 C 0.25204 0.07541 0.13127 0.0
C134 C 0.21229 0.0766 0.15564 0.0
C135 C 0.15138 0.03526 0.19299 0.0
C136 C 0.13033 0.99279 0.20579 0.0
C137 C 0.19207 0.03438 0.16901 0.0
C138 C 0.15176 0.94942 0.19505 0.0
C139 C 0.19234 0.9483 0.17129 0.0
H140 H -0.00801 0.23348 0.57833 0.0
H141 H 0.9511 0.335 0.65651 0.0
H142 H 0.95143 0.27274 0.69951 0.0
H143 H 0.96488 0.19027 0.71526 0.0
H144 H 0.00427 0.08715 0.63788 0.0
H145 H 0.00293 0.14915 0.59417 0.0
C146 C 0.98322 0.24181 0.6048 0.0
C147 C 0.97138 0.28873 0.61422 0.0
C148 C 0.98323 0.20565 0.62949 0.0
C149 C 0.95968 0.29907 0.64855 0.0
C150 C 0.96012 0.26355 0.67319 0.0
C151 C 0.97314 0.18123 0.68883 0.0
C152 C 0.98495 0.13422 0.67987 0.0
C153 C 0.972 0.21683 0.66398 0.0
C154 C -0.00495 0.1231 0.64545 0.0
C155 C -0.00559 0.15855 0.62048 0.0
H156 H 0.73566 0.95936 0.11142 0.0
H157 H 0.71512 0.10993 0.12592 0.0
H158 H 0.78326 0.11043 0.16918 0.0
H159 H 0.8484 0.06823 0.20324 0.0
H160 H 0.86504 0.91694 0.19112 0.0
H161 H 0.79718 0.91656 0.14756 0.0
C162 C 0.74543 0.99227 0.12429 0.0
C163 C 0.72022 0.03456 0.11505 0.0
C164 C 0.7836 0.99217 0.14995 0.0
C165 C 0.73447 0.07693 0.13174 0.0
C166 C 0.7731 0.07722 0.15686 0.0
C167 C 0.83698 0.03509 0.19126 0.0
C168 C 0.86196 0.99273 0.20044 0.0
C169 C 0.79788 0.03505 0.16619 0.0
C170 C 0.84644 0.9501 0.18469 0.0
C171 C 0.8078 0.94985 0.1596 0.0
H172 H 8e-05 0.75562 0.58297 0.0
H173 H 0.96297 0.65235 0.66034 0.0
H174 H 0.96615 0.71366 0.70438 0.0
H175 H 0.97974 0.79608 0.72109 0.0
H176 H 0.01415 0.90101 0.64436 0.0
H177 H 0.01191 0.83966 0.59989 0.0
C178 C -0.00717 0.74671 0.60951 0.0
C179 C 0.98115 0.6996 0.61841 0.0
C180 C -0.00571 0.78234 0.63477 0.0
C181 C 0.97141 0.68845 0.65282 0.0
C182 C 0.97348 0.72343 0.67803 0.0
C183 C 0.98691 0.80562 0.69465 0.0
C184 C -0.00259 0.85299 0.68608 0.0
C185 C 0.98489 0.77041 0.66931 0.0
C186 C 0.006 0.86476 0.65164 0.0
C187 C 0.00478 0.82969 0.62622 0.0
H188 H 0.29015 0.05715 0.86766 0.0
H189 H 0.23013 0.95019 0.93611 0.0
H190 H 0.15925 0.93365 0.89652 0.0
H191 H 0.11199 0.95154 0.84358 0.0
H192 H 0.16574 0.06474 0.77872 0.0
H193 H 0.24101 0.07741 0.81613 0.0
C194 C 0.26123 0.03074 0.87436 0.0
C195 C 0.266 0.00495 0.905 0.0
C196 C 0.21936 0.02248 0.85205 0.0
C197 C 0.22842 0.97008 0.91253 0.0
C198 C 0.18748 0.96077 0.88999 0.0
C199 C 0.14058 0.9786 0.83749 0.0
C200 C 0.13389 0.00684 0.80834 0.0
C201 C 0.18249 0.98682 0.85975 0.0
C202 C 0.17039 0.0425 0.80102 0.0
C203 C 0.21326 0.04978 0.82241 0.0
H204 H 0.98268 0.23496 0.43471 0.0
H205 H 0.02379 0.33727 0.35752 0.0
H206 H 0.02407 0.27524 0.314 0.0
H207 H 0.01228 0.1925 0.29765 0.0
H208 H 0.97323 0.0886 0.37417 0.0
H209 H 0.9724 0.15062 0.41818 0.0
C210 C 0.99153 0.24352 0.40833 0.0
C211 C 0.00338 0.29058 0.39935 0.0
C212 C -0.00802 0.20748 0.38335 0.0
C213 C 0.0152 0.30123 0.36514 0.0
C214 C 0.01512 0.26584 0.3402 0.0
C215 C 0.00349 0.18331 0.32394 0.0
C216 C -0.00741 0.13602 0.33258 0.0
C217 C 0.00358 0.21892 0.34901 0.0
C218 C 0.98177 0.12475 0.36684 0.0
C219 C 0.98122 0.16021 0.39199 0.0
H220 H 0.73898 0.96626 0.90611 0.0
H221 H 0.69832 0.10755 0.87378 0.0
H222 H 0.76809 0.10601 0.83159 0.0
H223 H 0.84083 0.06459 0.80368 0.0
H224 H 0.87676 0.92124 0.8334 0.0
H225 H 0.80731 0.92313 0.87585 0.0
C226 C 0.74458 0.99653 0.88954 0.0
C227 C 0.71331 0.03706 0.89353 0.0
C228 C 0.78374 0.99495 0.86453 0.0
C229 C 0.72232 0.0762 0.87206 0.0
C230 C 0.76195 0.07521 0.84757 0.0
C231 C 0.83327 0.03367 0.81931 0.0
C232 C 0.86413 0.99293 0.81539 0.0
C233 C 0.79296 0.03481 0.84361 0.0
C234 C 0.85355 0.95305 0.83573 0.0
C235 C 0.81398 0.95414 0.86018 0.0
H236 H 0.98377 0.75684 0.43657 0.0
H237 H 0.02432 0.65364 0.35946 0.0
H238 H 0.02373 0.71492 0.31575 0.0
H239 H 0.01144 0.79719 0.29921 0.0
H240 H 0.9728 0.9021 0.37551 0.0
H241 H 0.97274 0.84082 0.41976 0.0
C242 C -0.00768 0.74793 0.41016 0.0
C243 C 0.00433 0.70084 0.40127 0.0
C244 C -0.00778 0.78354 0.38506 0.0
C245 C 0.01569 0.68973 0.36702 0.0
C246 C 0.0151 0.72468 0.34198 0.0
C247 C 0.00288 0.80677 0.3255 0.0
C248 C 0.99189 0.8541 0.33401 0.0
C249 C 0.00343 0.77162 0.35069 0.0
C250 C 0.98137 0.86589 0.36828 0.0
C251 C 0.98129 0.83086 0.39357 0.0
loop_
_geom_bond_atom_site_label_1
_geom_bond_atom_site_label_2
_geom_bond_distance
_geom_bond_site_symmetry_2
_ccdc_geom_bond_type
H0 C19 0.949 . S
H1 C20 0.950 . S
H2 C22 0.950 . S
H3 C23 0.950 . S
H4 C25 0.950 . S
H5 C28 0.950 . S
H6 C29 0.950 . S
H7 C31 0.951 . S
H8 C32 0.949 . S
H9 C34 0.949 . S
H10 C35 0.950 . S
H11 C37 0.950 . S
H12 C38 0.950 . S
H13 C40 0.950 . S
H14 C43 0.950 . S
H15 C44 0.950 . S
H16 C46 0.951 . S
H17 C47 0.949 . S
C18 C19 1.376 1_545 S
C18 C23 1.386 . S
C18 C24 1.483 . S
C19 H0 0.949 . S
C19 C18 1.376 1_565 S
C19 C20 1.397 . S
C20 H1 0.950 . S
C20 C19 1.397 . S
C20 C21 1.391 1_565 S
C21 C20 1.391 1_545 S
C21 C22 1.405 . S
C22 H2 0.950 . S
C22 C21 1.405 . S
C22 C23 1.367 . S
C23 H3 0.950 . S
C23 C18 1.386 . S
C23 C22 1.367 . S
C24 C18 1.483 . S
C24 C25 1.381 1_545 S
C24 C26 1.403 1_554 S
C25 H4 0.950 . S
C25 C24 1.381 1_565 S
C25 C41 1.411 . S
C26 C24 1.403 1_556 S
C26 C27 1.489 . S
C26 C40 1.411 . S
C27 C26 1.489 . S
C27 C28 1.383 1_545 S
C27 C32 1.382 . S
C28 H5 0.950 . S
C28 C27 1.383 1_565 S
C28 C29 1.395 . S
C29 H6 0.950 . S
C29 C28 1.395 . S
C29 C30 1.288 1_565 S
C30 C29 1.288 1_545 S
C30 C31 1.392 . S
C31 H7 0.951 . S
C31 C30 1.392 . S
C31 C32 1.392 . S
C32 H8 0.949 . S
C32 C27 1.382 . S
C32 C31 1.392 . S
C33 C34 1.376 . S
C33 C38 1.386 1_545 S
C33 C39 1.483 . S
C34 H9 0.949 . S
C34 C33 1.376 . S
C34 C35 1.397 . S
C35 H10 0.950 . S
C35 C34 1.397 . S
C35 C36 1.391 . S
C36 C35 1.391 . S
C36 C37 1.405 1_545 S
C37 H11 0.950 . S
C37 C36 1.405 1_565 S
C37 C38 1.367 . S
C38 H12 0.950 . S
C38 C33 1.386 1_565 S
C38 C37 1.367 . S
C39 C33 1.483 . S
C39 C40 1.382 . S
C39 C41 1.403 1_546 S
C40 H13 0.950 . S
C40 C26 1.411 . S
C40 C39 1.382 . S
C41 C25 1.411 . S
C41 C39 1.403 1_564 S
C41 C42 1.489 . S
C42 C41 1.489 . S
C42 C43 1.383 1_565 S
C42 C47 1.382 . S
C43 H14 0.950 . S
C43 C42 1.383 1_545 S
C43 C44 1.395 . S
C44 H15 0.950 . S
C44 C43 1.395 . S
C44 C45 1.277 1_545 S
C45 C44 1.277 1_565 S
C45 C46 1.403 . S
C46 H16 0.951 . S
C46 C45 1.403 . S
C46 C47 1.392 . S
C47 H17 0.949 . S
C47 C42 1.382 . S
C47 C46 1.392 . S
H48 C67 0.949 . S
H49 C68 0.950 . S
H50 C70 0.950 . S
H51 C71 0.950 . S
H52 C73 0.950 . S
H53 C76 0.950 . S
H54 C77 0.950 . S
H55 C79 0.951 . S
H56 C80 0.949 . S
H57 C82 0.949 . S
H58 C83 0.950 . S
H59 C85 0.950 . S
H60 C86 0.950 . S
H61 C88 0.950 . S
H62 C91 0.950 . S
H63 C92 0.950 . S
H64 C94 0.951 . S
H65 C95 0.949 . S
C66 C67 1.376 . S
C66 C71 1.386 1_455 S
C66 C72 1.483 . S
C67 H48 0.949 . S
C67 C66 1.376 . S
C67 C68 1.397 . S
C68 H49 0.950 . S
C68 C67 1.397 . S
C68 C69 1.391 . S
C69 C68 1.391 . S
C69 C70 1.405 1_455 S
C70 H50 0.950 . S
C70 C69 1.405 1_655 S
C70 C71 1.367 . S
C71 H51 0.950 . S
C71 C66 1.386 1_655 S
C71 C70 1.367 . S
C72 C66 1.483 . S
C72 C73 1.382 . S
C72 C74 1.403 1_455 S
C73 H52 0.950 . S
C73 C72 1.382 . S
C73 C89 1.411 . S
C74 C72 1.403 1_655 S
C74 C75 1.489 . S
C74 C88 1.411 . S
C75 C74 1.489 . S
C75 C76 1.383 1_655 S
C75 C80 1.382 . S
C76 H53 0.950 . S
C76 C75 1.383 1_455 S
C76 C77 1.395 . S
C77 H54 0.950 . S
C77 C76 1.395 . S
C77 C78 1.288 1_455 S
C78 C77 1.288 1_655 S
C78 C79 1.392 . S
C79 H55 0.951 . S
C79 C78 1.392 . S
C79 C80 1.392 . S
C80 H56 0.949 . S
C80 C75 1.382 . S
C80 C79 1.392 . S
C81 C82 1.376 . S
C81 C86 1.386 1_655 S
C81 C87 1.483 . S
C82 H57 0.949 . S
C82 C81 1.376 . S
C82 C83 1.397 . S
C83 H58 0.950 . S
C83 C82 1.397 . S
C83 C84 1.391 . S
C84 C83 1.391 . S
C84 C85 1.405 1_655 S
C85 H59 0.950 . S
C85 C84 1.405 1_455 S
C85 C86 1.367 . S
C86 H60 0.950 . S
C86 C81 1.386 1_455 S
C86 C85 1.367 . S
C87 C81 1.483 . S
C87 C88 1.382 . S
C87 C89 1.403 1_655 S
C88 H61 0.950 . S
C88 C74 1.411 . S
C88 C87 1.382 . S
C89 C73 1.411 . S
C89 C87 1.403 1_455 S
C89 C90 1.489 . S
C90 C89 1.489 . S
C90 C91 1.383 1_455 S
C90 C95 1.382 . S
C91 H62 0.950 . S
C91 C90 1.383 1_655 S
C91 C92 1.395 . S
C92 H63 0.950 . S
C92 C91 1.395 . S
C92 C93 1.288 1_655 S
C93 C92 1.288 1_455 S
C93 C94 1.392 . S
C94 H64 0.951 . S
C94 C93 1.392 . S
C94 C95 1.392 . S
C95 H65 0.949 . S
C95 C90 1.382 . S
C95 C94 1.392 . S
O96 Cd97 2.223 1_655 S
O96 C104 1.315 . S
Cd97 O96 2.223 1_455 S
Cd97 O100 2.297 1_455 S
Cd97 O101 2.439 1_455 S
Cd97 O107 2.240 1_565 S
Cd98 O99 2.240 1_545 S
Cd98 O106 2.223 1_655 S
Cd98 O108 2.297 1_655 S
Cd98 O109 2.439 1_655 S
O99 Cd98 2.240 1_565 S
O99 C104 1.279 . S
O100 Cd97 2.297 1_655 S
O100 C102 1.247 . S
O101 Cd97 2.439 1_655 S
O101 C102 1.208 . S
C102 O100 1.247 . S
C102 O101 1.208 . S
C103 O108 1.247 . S
C103 O109 1.208 . S
C104 O96 1.315 . S
C104 O99 1.279 . S
C105 O106 1.315 . S
C105 O107 1.279 . S
O106 Cd98 2.223 1_455 S
O106 C105 1.315 . S
O107 Cd97 2.240 1_545 S
O107 C105 1.279 . S
O108 Cd98 2.297 1_455 S
O108 C103 1.247 . S
O109 Cd98 2.439 1_455 S
O109 C103 1.208 . S
O110 Cd111 2.223 1_655 S
O110 C118 1.315 . S
Cd111 O110 2.223 1_455 S
Cd111 O114 2.297 1_455 S
Cd111 O115 2.439 1_455 S
Cd111 O121 2.240 1_545 S
Cd112 O113 2.240 1_565 S
Cd112 O120 2.223 1_655 S
Cd112 O122 2.297 1_655 S
Cd112 O123 2.439 1_655 S
O113 Cd112 2.240 1_545 S
O113 C118 1.279 . S
O114 Cd111 2.297 1_655 S
O114 C116 1.247 . S
O115 Cd111 2.439 1_655 S
O115 C116 1.208 . S
C116 O114 1.247 . S
C116 O115 1.208 . S
C117 O122 1.247 . S
C117 O123 1.208 . S
C118 O110 1.315 . S
C118 O113 1.279 . S
C119 O120 1.315 . S
C119 O121 1.279 . S
O120 Cd112 2.223 1_455 S
O120 C119 1.315 . S
O121 Cd111 2.240 1_565 S
O121 C119 1.279 . S
O122 Cd112 2.297 1_455 S
O122 C117 1.247 . S
O123 Cd112 2.439 1_455 S
O123 C117 1.208 . S
H124 C130 0.930 . S
H125 C133 0.930 . S
H126 C134 0.930 . S
H127 C135 0.930 . S
H128 C138 0.930 . S
H129 C139 0.930 . S
C130 H124 0.930 . S
C130 C131 1.355 1_565 S
C130 C132 1.415 . S
C131 C130 1.355 1_545 S
C131 C133 1.419 . S
C132 C130 1.415 . S
C132 C137 1.425 1_565 S
C132 C139 1.409 . S
C133 H125 0.930 . S
C133 C131 1.419 . S
C133 C134 1.362 . S
C134 H126 0.930 . S
C134 C133 1.362 . S
C134 C137 1.409 . S
C135 H127 0.930 . S
C135 C136 1.355 . S
C135 C137 1.415 . S
C136 C135 1.355 . S
C136 C138 1.419 1_545 S
C137 C132 1.425 1_545 S
C137 C134 1.409 . S
C137 C135 1.415 . S
C138 H128 0.930 . S
C138 C136 1.419 1_565 S
C138 C139 1.362 . S
C139 H129 0.930 . S
C139 C132 1.409 . S
C139 C138 1.362 . S
H140 C146 0.930 . S
H141 C149 0.930 . S
H142 C150 0.930 . S
H143 C151 0.930 . S
H144 C154 0.930 . S
H145 C155 0.930 . S
C146 H140 0.930 . S
C146 C147 1.341 1_655 S
C146 C148 1.415 . S
C147 C146 1.341 1_455 S
C147 C149 1.434 . S
C148 C146 1.415 . S
C148 C153 1.425 1_655 S
C148 C155 1.409 . S
C149 H141 0.930 . S
C149 C147 1.434 . S
C149 C150 1.362 . S
C150 H142 0.930 . S
C150 C149 1.362 . S
C150 C153 1.409 . S
C151 H143 0.930 . S
C151 C152 1.355 1_455 S
C151 C153 1.415 . S
C152 C151 1.355 1_655 S
C152 C154 1.419 . S
C153 C148 1.425 1_455 S
C153 C150 1.409 . S
C153 C151 1.415 . S
C154 H144 0.930 . S
C154 C152 1.419 . S
C154 C155 1.362 . S
C155 H145 0.930 . S
C155 C148 1.409 . S
C155 C154 1.362 . S
H156 C162 0.930 . S
H157 C165 0.930 . S
H158 C166 0.930 . S
H159 C167 0.930 1_545 S
H160 C170 0.930 . S
H161 C171 0.930 . S
C162 H156 0.930 . S
C162 C163 1.355 1_565 S
C162 C164 1.415 . S
C163 C162 1.355 1_545 S
C163 C165 1.419 . S
C164 C162 1.415 . S
C164 C169 1.425 . S
C164 C171 1.409 . S
C165 H157 0.930 . S
C165 C163 1.419 . S
C165 C166 1.362 . S
C166 H158 0.930 . S
C166 C165 1.362 . S
C166 C169 1.409 1_545 S
C167 H159 0.930 1_565 S
C167 C168 1.355 . S
C167 C169 1.415 . S
C168 C167 1.355 . S
C168 C170 1.419 . S
C169 C164 1.425 . S
C169 C166 1.409 1_565 S
C169 C167 1.415 . S
C170 H160 0.930 . S
C170 C168 1.419 . S
C170 C171 1.362 . S
C171 H161 0.930 . S
C171 C164 1.409 . S
C171 C170 1.362 . S
H172 C178 0.930 . S
H173 C181 0.930 . S
H174 C182 0.930 . S
H175 C183 0.930 . S
H176 C186 0.930 . S
H177 C187 0.930 . S
C178 H172 0.930 . S
C178 C179 1.355 1_655 S
C178 C180 1.412 1_655 S
C179 C178 1.355 1_455 S
C179 C181 1.419 . S
C180 C178 1.412 1_455 S
C180 C185 1.432 . S
C180 C187 1.405 1_455 S
C181 H173 0.930 . S
C181 C179 1.419 . S
C181 C182 1.362 . S
C182 H174 0.930 . S
C182 C181 1.362 . S
C182 C185 1.409 . S
C183 H175 0.930 . S
C183 C184 1.355 . S
C183 C185 1.415 . S
C184 C183 1.355 . S
C184 C186 1.419 1_455 S
C185 C180 1.432 . S
C185 C182 1.409 . S
C185 C183 1.415 . S
C186 H176 0.930 . S
C186 C184 1.419 1_655 S
C186 C187 1.362 . S
C187 H177 0.930 . S
C187 C180 1.405 1_655 S
C187 C186 1.362 . S
H188 C194 0.930 . S
H189 C197 0.930 . S
H190 C198 0.929 1_545 S
H191 C199 0.930 . S
H192 C202 0.930 . S
H193 C203 0.930 . S
C194 H188 0.930 . S
C194 C195 1.355 1_565 S
C194 C196 1.415 . S
C195 C194 1.355 1_545 S
C195 C197 1.419 . S
C196 C194 1.415 . S
C196 C201 1.425 . S
C196 C203 1.409 . S
C197 H189 0.930 . S
C197 C195 1.419 . S
C197 C198 1.362 1_545 S
C198 H190 0.929 1_565 S
C198 C197 1.362 1_565 S
C198 C201 1.409 . S
C199 H191 0.930 . S
C199 C200 1.355 . S
C199 C201 1.415 . S
C200 C199 1.355 . S
C200 C202 1.419 . S
C201 C196 1.425 . S
C201 C198 1.409 . S
C201 C199 1.415 . S
C202 H192 0.930 . S
C202 C200 1.419 . S
C202 C203 1.362 . S
C203 H193 0.930 . S
C203 C196 1.409 . S
C203 C202 1.362 . S
H204 C210 0.930 . S
H205 C213 0.930 . S
H206 C214 0.930 . S
H207 C215 0.930 . S
H208 C218 0.930 . S
H209 C219 0.930 . S
C210 H204 0.930 . S
C210 C211 1.354 . S
C210 C212 1.415 . S
C211 C210 1.354 . S
C211 C213 1.419 1_455 S
C212 C210 1.415 . S
C212 C217 1.425 1_455 S
C212 C219 1.409 . S
C213 H205 0.930 . S
C213 C211 1.419 1_655 S
C213 C214 1.362 . S
C214 H206 0.930 . S
C214 C213 1.362 . S
C214 C217 1.409 . S
C215 H207 0.930 . S
C215 C216 1.355 1_655 S
C215 C217 1.415 . S
C216 C215 1.355 1_455 S
C216 C218 1.419 . S
C217 C212 1.425 1_655 S
C217 C214 1.409 . S
C217 C215 1.415 . S
C218 H208 0.930 . S
C218 C216 1.419 . S
C218 C219 1.362 . S
C219 H209 0.930 . S
C219 C212 1.409 . S
C219 C218 1.362 . S
H220 C226 0.930 . S
H221 C229 0.930 . S
H222 C230 0.930 . S
H223 C231 0.930 . S
H224 C234 0.930 . S
H225 C235 0.930 . S
C226 H220 0.930 . S
C226 C227 1.355 . S
C226 C228 1.415 . S
C227 C226 1.355 . S
C227 C229 1.419 . S
C228 C226 1.415 . S
C228 C233 1.425 . S
C228 C235 1.409 . S
C229 H221 0.930 . S
C229 C227 1.419 . S
C229 C230 1.362 . S
C230 H222 0.930 . S
C230 C229 1.362 . S
C230 C233 1.409 . S
C231 H223 0.930 . S
C231 C232 1.355 . S
C231 C233 1.415 . S
C232 C231 1.355 . S
C232 C234 1.419 . S
C233 C228 1.425 . S
C233 C230 1.409 . S
C233 C231 1.415 . S
C234 H224 0.930 . S
C234 C232 1.419 . S
C234 C235 1.362 . S
C235 H225 0.930 . S
C235 C228 1.409 . S
C235 C234 1.362 . S
H236 C242 0.930 . S
H237 C245 0.930 . S
H238 C246 0.930 . S
H239 C247 0.930 . S
H240 C250 0.930 . S
H241 C251 0.930 . S
C242 H236 0.930 . S
C242 C243 1.355 1_455 S
C242 C244 1.415 . S
C243 C242 1.355 1_655 S
C243 C245 1.419 . S
C244 C242 1.415 . S
C244 C249 1.425 1_455 S
C244 C251 1.409 . S
C245 H237 0.930 . S
C245 C243 1.419 . S
C245 C246 1.362 . S
C246 H238 0.930 . S
C246 C245 1.362 . S
C246 C249 1.409 . S
C247 H239 0.930 . S
C247 C248 1.355 . S
C247 C249 1.415 . S
C248 C247 1.355 . S
C248 C250 1.419 1_655 S
C249 C244 1.425 1_655 S
C249 C246 1.409 . S
C249 C247 1.415 . S
C250 H240 0.930 . S
C250 C248 1.419 1_455 S
C250 C251 1.362 . S
C251 H241 0.930 . S
C251 C244 1.409 . S
C251 C250 1.362 . S
C136 C105 1.626 . S
C131 C45 1.630 1_545 S
C152 C116 1.576 . S
C147 C78 1.612 1_455 S
C168 C104 1.633 . S
C163 C21 1.622 . S
C184 C117 1.520 . S
C179 C84 1.613 1_455 S
C200 C119 1.623 . S
C195 C36 1.631 . S
C216 C103 1.573 . S
C211 C69 1.622 . S
C232 C118 1.633 . S
C227 C30 1.597 . S
C243 C93 1.618 1_655 S
C248 C102 1.507 . S
