# Generated by pormake.
# Topology rtl, (3,6)-cn, num edge types: 1
# Building blocks:
#     Node 0, Type 0, BuildingBlock: ESEHIV_clean_linker_0, # of connection points: 3
#     Node 1, Type 0, BuildingBlock: ESEHIV_clean_linker_0, # of connection points: 3
#     Node 2, Type 0, BuildingBlock: ESEHIV_clean_linker_0, # of connection points: 3
#     Node 3, Type 0, BuildingBlock: ESEHIV_clean_linker_0, # of connection points: 3
#     Node 4, Type 1, BuildingBlock: FUNLAD_clean_sbu_0, # of connection points: 6
#     Node 5, Type 1, BuildingBlock: FUNLAD_clean_sbu_0, # of connection points: 6
#     Edge 6, Type (0, 1), BuildingBlock: OJICUG_clean_linker_0, # of connection points: 2
#     Edge 7, Type (0, 1), BuildingBlock: OJICUG_clean_linker_0, # of connection points: 2
#     Edge 8, Type (0, 1), BuildingBlock: OJICUG_clean_linker_0, # of connection points: 2
#     Edge 9, Type (0, 1), BuildingBlock: OJICUG_clean_linker_0, # of connection points: 2
#     Edge 10, Type (0, 1), BuildingBlock: OJICUG_clean_linker_0, # of connection points: 2
#     Edge 11, Type (0, 1), BuildingBlock: OJICUG_clean_linker_0, # of connection points: 2
#     Edge 12, Type (0, 1), BuildingBlock: OJICUG_clean_linker_0, # of connection points: 2
#     Edge 13, Type (0, 1), BuildingBlock: OJICUG_clean_linker_0, # of connection points: 2
#     Edge 14, Type (0, 1), BuildingBlock: OJICUG_clean_linker_0, # of connection points: 2
#     Edge 15, Type (0, 1), BuildingBlock: OJICUG_clean_linker_0, # of connection points: 2
#     Edge 16, Type (0, 1), BuildingBlock: OJICUG_clean_linker_0, # of connection points: 2
#     Edge 17, Type (0, 1), BuildingBlock: OJICUG_clean_linker_0, # of connection points: 2
# Relax obj value: 0.021
# Max RMSD: 0.129
# Mean RMSD: 0.103
data_MOF--net-rtl--node1-FUNLAD_clean_sbu_0--node2-ESEHIV_clean_linker_0--edge1-OJICUG_clean_linker_0
_symmetry_space_group_name_H-M    P1
_symmetry_Int_Tables_number       1
_symmetry_cell_setting            triclinic
loop_
_symmetry_equiv_pos_as_xyz
'x, y, z'
_cell_length_a     29.64328
_cell_length_b     22.954805
_cell_length_c     15.496863
_cell_angle_alpha  89.88917
_cell_angle_beta   90.626291
_cell_angle_gamma 90.101669
loop_
_atom_site_label
_atom_site_type_symbol
_atom_site_fract_x
_atom_site_fract_y
_atom_site_fract_z
_atom_type_partial_charge
H0 H 0.04728 0.85193 -0.00058 0.0
H1 H 0.15004 0.75745 0.13831 0.0
H2 H 0.14916 0.75951 0.8605 0.0
C3 C 0.07585 0.82247 -0.00061 0.0
C4 C 0.09544 0.80687 0.92083 0.0
C5 C 0.09548 0.80506 0.07807 0.0
C6 C 0.13415 0.76978 0.07765 0.0
C7 C 0.15371 0.75299 -0.00064 0.0
C8 C 0.13402 0.7716 0.92125 0.0
H9 H 0.54655 0.66224 0.50805 0.0
H10 H 0.64794 0.75397 0.36584 0.0
H11 H 0.65005 0.75777 0.64355 0.0
C12 C 0.57512 0.6918 0.50704 0.0
C13 C 0.59508 0.70984 0.58509 0.0
C14 C 0.59448 0.70686 0.42793 0.0
C15 C 0.63302 0.74227 0.42707 0.0
C16 C 0.65313 0.76129 0.50446 0.0
C17 C 0.63385 0.74509 0.58339 0.0
H18 H 0.95121 0.16158 -0.00613 0.0
H19 H 0.84898 0.25504 0.13055 0.0
H20 H 0.84966 0.25651 0.85272 0.0
C21 C 0.92275 0.19122 -0.00675 0.0
C22 C 0.90326 0.20803 0.9142 0.0
C23 C 0.90317 0.20773 0.07144 0.0
C24 C 0.86474 0.24336 0.07022 0.0
C25 C 0.84527 0.26144 -0.00842 0.0
C26 C 0.86479 0.24355 0.91379 0.0
H27 H 0.45211 0.35151 0.49789 0.0
H28 H 0.3504 0.25925 0.63873 0.0
H29 H 0.34937 0.25567 0.361 0.0
C30 C 0.4236 0.32185 0.49854 0.0
C31 C 0.40392 0.30385 0.42026 0.0
C32 C 0.40405 0.30658 0.57742 0.0
C33 C 0.36552 0.27106 0.57774 0.0
C34 C 0.3458 0.25193 0.50001 0.0
C35 C 0.36531 0.26836 0.42141 0.0
C36 C 0.03013 0.93161 0.37126 0.0
N37 N 0.09294 0.07152 0.496 0.0
C38 C 0.13161 0.03967 0.49538 0.0
C39 C 0.17352 0.06743 0.49567 0.0
C40 C 0.17559 0.12852 0.49708 0.0
C41 C 0.13514 0.16026 0.49743 0.0
C42 C 0.09399 0.13075 0.49674 0.0
Zn43 Zn 0.03225 0.02995 0.49611 0.0
C44 C 0.96794 0.0807 0.36828 0.0
N45 N 0.90571 0.94218 0.49611 0.0
C46 C 0.90484 0.88296 0.49633 0.0
C47 C 0.86697 0.97386 0.49756 0.0
C48 C 0.82515 0.94589 0.49949 0.0
C49 C 0.82327 0.88478 0.49947 0.0
C50 C 0.8638 0.85324 0.49787 0.0
Zn51 Zn 0.96635 0.98385 0.49544 0.0
O52 O 0.05524 0.97183 0.40115 0.0
C53 C 0.0306 0.93327 0.62342 0.0
O54 O 0.99017 0.92614 0.39906 0.0
H55 H 0.86847 0.02094 0.4972 0.0
H56 H 0.12996 0.9926 0.49505 0.0
H57 H 0.93606 0.85868 0.49567 0.0
O58 O 0.05578 0.97306 0.5933 0.0
O59 O 0.99065 0.92751 0.59411 0.0
H60 H 0.06282 0.15517 0.49681 0.0
O61 O 0.94339 0.04193 0.59032 0.0
O62 O 0.00849 0.08753 0.5926 0.0
O63 O 0.94278 0.04079 0.39819 0.0
O64 O 0.00791 0.08641 0.39759 0.0
C65 C 0.96854 0.08203 0.62041 0.0
H66 H 0.20395 0.04139 0.49624 0.0
H67 H 0.13529 0.20745 0.4974 0.0
H68 H 0.79464 0.97177 0.49976 0.0
H69 H 0.86382 0.80606 0.49885 0.0
C70 C 0.4685 0.43421 0.87361 0.0
N71 N 0.59319 0.44257 0.00258 0.0
C72 C 0.59415 0.38343 -0.00201 0.0
C73 C 0.63526 0.35404 -0.00443 0.0
C74 C 0.67578 0.38581 -0.00179 0.0
C75 C 0.67381 0.44678 0.00381 0.0
C76 C 0.63193 0.47444 0.00568 0.0
Zn77 Zn 0.53242 0.48398 0.00291 0.0
C78 C 0.53056 0.58337 0.87965 0.0
N79 N 0.40563 0.57114 0.00246 0.0
C80 C 0.36677 0.53949 0.00308 0.0
C81 C 0.4049 0.63038 0.00211 0.0
C82 C 0.36393 0.66012 0.0018 0.0
C83 C 0.32328 0.62862 0.00222 0.0
C84 C 0.325 0.5675 0.00326 0.0
Zn85 Zn 0.46633 0.5296 0.00229 0.0
O86 O 0.50845 0.42865 0.90297 0.0
C87 C 0.46834 0.43022 0.12557 0.0
O88 O 0.4431 0.47342 0.9042 0.0
H89 H 0.4362 0.65466 0.00212 0.0
H90 H 0.56295 0.35896 -0.00406 0.0
H91 H 0.36815 0.49241 0.00313 0.0
O92 O 0.50832 0.4252 0.09777 0.0
O93 O 0.4432 0.47055 0.0962 0.0
H94 H 0.63036 0.52145 0.00899 0.0
O95 O 0.49029 0.58521 0.10177 0.0
O96 O 0.55542 0.5399 0.10147 0.0
O97 O 0.49046 0.58809 0.90692 0.0
O98 O 0.55577 0.54326 0.90947 0.0
C99 C 0.5301 0.57933 0.13165 0.0
H100 H 0.63531 0.30691 -0.00756 0.0
H101 H 0.70427 0.47289 0.00518 0.0
H102 H 0.36407 0.7073 0.0021 0.0
H103 H 0.2944 0.54164 0.00276 0.0
C104 C 0.2676 0.23657 0.55475 0.0
C105 C 0.30281 0.21893 0.50078 0.0
H106 H 0.20001 0.22154 0.59628 0.0
C107 C 0.29613 0.17084 0.44616 0.0
H108 H 0.27154 0.27395 0.59672 0.0
C109 C 0.25497 0.14104 0.44546 0.0
C110 C 0.21964 0.1591 0.49888 0.0
H111 H 0.32277 0.1562 0.40415 0.0
H112 H 0.25054 0.10452 0.40202 0.0
C113 C 0.22646 0.20701 0.55375 0.0
C114 C 0.2031 0.67184 0.05396 0.0
C115 C 0.19664 0.71998 -0.00089 0.0
H116 H 0.24832 0.60508 0.09796 0.0
C117 C 0.2319 0.73741 0.9449 0.0
H118 H 0.17642 0.65735 0.09615 0.0
C119 C 0.27284 0.70757 0.94578 0.0
C120 C 0.27943 0.65953 0.00071 0.0
H121 H 0.22812 0.77482 0.90272 0.0
H122 H 0.29932 0.72196 0.90302 0.0
C123 C 0.24406 0.64171 0.05447 0.0
C124 C 0.70347 0.84234 0.55634 0.0
C125 C 0.69629 0.79389 0.50267 0.0
H126 H 0.7494 0.90918 0.59747 0.0
C127 C 0.73101 0.77582 0.44785 0.0
H128 H 0.67721 0.85728 0.599 0.0
C129 C 0.77207 0.80549 0.44671 0.0
C130 C 0.77934 0.85393 0.50031 0.0
H131 H 0.72669 0.73813 0.4066 0.0
H132 H 0.79807 0.79069 0.40338 0.0
C133 C 0.74457 0.87226 0.55491 0.0
C134 C 0.76701 0.2792 0.93517 0.0
C135 C 0.80264 0.29512 -0.0091 0.0
H136 H 0.69919 0.29562 0.89345 0.0
C137 C 0.7966 0.34191 0.04793 0.0
H138 H 0.77045 0.24287 0.89123 0.0
C139 C 0.75563 0.37188 0.04963 0.0
C140 C 0.71978 0.35535 -0.00523 0.0
H141 H 0.82358 0.3553 0.09129 0.0
H142 H 0.7517 0.40723 0.09512 0.0
C143 C 0.72602 0.30894 0.93717 0.0
C144 C 0.10927 0.85911 0.21535 0.0
C145 C 0.07897 0.83045 0.15952 0.0
H146 H 0.11747 0.91385 0.32592 0.0
C147 C 0.03264 0.83157 0.17758 0.0
H148 H 0.1451 0.85951 0.20232 0.0
C149 C 0.01676 0.86242 0.24877 0.0
C150 C 0.04693 0.8935 0.30209 0.0
H151 H 0.00865 0.80973 0.13541 0.0
H152 H 0.98077 0.86384 0.25996 0.0
C153 C 0.09339 0.89062 0.28563 0.0
C154 C 0.60934 0.65655 0.72307 0.0
C155 C 0.57887 0.68492 0.66724 0.0
H156 H 0.61784 0.60193 0.83399 0.0
C157 C 0.53261 0.6837 0.68584 0.0
H158 H 0.64513 0.65624 0.70964 0.0
C159 C 0.51693 0.65286 0.75742 0.0
C160 C 0.54724 0.6219 0.81062 0.0
H161 H 0.5085 0.70533 0.64369 0.0
H162 H 0.48097 0.65124 0.76889 0.0
C163 C 0.59366 0.62506 0.79379 0.0
C164 C 0.96585 0.18026 0.17342 0.0
C165 C 0.91957 0.18142 0.15312 0.0
H166 H 0.0175 0.14808 0.25862 0.0
C167 C 0.88915 0.15253 0.20735 0.0
H168 H 0.98991 0.20229 0.13251 0.0
C169 C 0.90486 0.12098 0.27856 0.0
C170 C 0.95126 0.1183 0.29753 0.0
H171 H 0.85335 0.15218 0.19254 0.0
H172 H 0.8807 0.09772 0.31776 0.0
C173 C 0.98155 0.14937 0.24552 0.0
C174 C 0.46684 0.33552 0.67834 0.0
C175 C 0.42055 0.33385 0.65819 0.0
H176 H 0.51838 0.36801 0.76356 0.0
C177 C 0.39006 0.36254 0.71218 0.0
H178 H 0.49095 0.31363 0.63764 0.0
C179 C 0.40565 0.39411 0.78328 0.0
C180 C 0.45202 0.39706 0.80237 0.0
H181 H 0.35424 0.36251 0.69747 0.0
H182 H 0.38141 0.41702 0.82246 0.0
C183 C 0.48243 0.36647 0.75035 0.0
C184 C 0.60841 0.65063 0.29348 0.0
C185 C 0.57791 0.67937 0.3474 0.0
H186 H 0.61711 0.59626 0.18314 0.0
C187 C 0.53163 0.67776 0.3272 0.0
H188 H 0.64423 0.65061 0.30826 0.0
C189 C 0.51607 0.6469 0.25507 0.0
C190 C 0.54651 0.61635 0.20304 0.0
H191 H 0.50752 0.69967 0.36787 0.0
H192 H 0.48014 0.64542 0.24174 0.0
C193 C 0.59285 0.61916 0.2223 0.0
C194 C 0.88954 0.15412 0.77683 0.0
C195 C 0.91989 0.18231 0.8331 0.0
H196 H 0.88125 0.10007 0.66556 0.0
C197 C 0.96624 0.18092 0.81533 0.0
H198 H 0.85368 0.15399 0.7896 0.0
C199 C 0.98207 0.15035 0.74384 0.0
C200 C 0.95183 0.11984 0.68996 0.0
H201 H 0.99026 0.20244 0.8578 0.0
H202 H 0.01807 0.14874 0.73279 0.0
C203 C 0.90537 0.1229 0.70626 0.0
C204 C 0.46646 0.33033 0.31984 0.0
C205 C 0.42018 0.32898 0.33832 0.0
H206 H 0.51806 0.36279 0.2367 0.0
C207 C 0.38969 0.35718 0.28236 0.0
H208 H 0.49058 0.30883 0.36211 0.0
C209 C 0.40533 0.38857 0.21155 0.0
C210 C 0.45174 0.39179 0.19475 0.0
H211 H 0.35389 0.35737 0.29571 0.0
H212 H 0.38112 0.41154 0.17121 0.0
C213 C 0.4821 0.36107 0.24814 0.0
C214 C 0.03259 0.8347 0.81936 0.0
C215 C 0.07888 0.83349 0.83951 0.0
H216 H 0.98094 0.8666 0.73389 0.0
C217 C 0.1093 0.86214 0.78499 0.0
H218 H 0.00853 0.81282 0.86045 0.0
C219 C 0.0936 0.89337 0.7135 0.0
C220 C 0.04721 0.896 0.69454 0.0
H221 H 0.14512 0.86243 0.79964 0.0
H222 H 0.11778 0.91638 0.67402 0.0
C223 C 0.01689 0.86529 0.74697 0.0
loop_
_geom_bond_atom_site_label_1
_geom_bond_atom_site_label_2
_geom_bond_distance
_geom_bond_site_symmetry_2
_ccdc_geom_bond_type
H0 C3 0.931 . S
H1 C6 0.928 . S
H2 C8 0.930 . S
C3 H0 0.931 . S
C3 C4 1.413 1_554 S
C3 C5 1.360 . S
C4 C3 1.413 1_556 S
C4 C8 1.429 . S
C5 C3 1.360 . S
C5 C6 1.372 . S
C6 H1 0.928 . S
C6 C5 1.372 . S
C6 C7 1.404 . S
C7 C6 1.404 . S
C7 C8 1.391 1_554 S
C8 H2 0.930 . S
C8 C4 1.429 . S
C8 C7 1.391 1_556 S
H9 C12 0.931 . S
H10 C15 0.928 . S
H11 C17 0.930 . S
C12 H9 0.931 . S
C12 C13 1.413 . S
C12 C14 1.360 . S
C13 C12 1.413 . S
C13 C17 1.429 . S
C14 C12 1.360 . S
C14 C15 1.372 . S
C15 H10 0.928 . S
C15 C14 1.372 . S
C15 C16 1.404 . S
C16 C15 1.404 . S
C16 C17 1.391 . S
C17 H11 0.930 . S
C17 C13 1.429 . S
C17 C16 1.391 . S
H18 C21 0.931 . S
H19 C24 0.928 . S
H20 C26 0.930 . S
C21 H18 0.931 . S
C21 C22 1.413 1_554 S
C21 C23 1.360 . S
C22 C21 1.413 1_556 S
C22 C26 1.429 . S
C23 C21 1.360 . S
C23 C24 1.372 . S
C24 H19 0.928 . S
C24 C23 1.372 . S
C24 C25 1.404 . S
C25 C24 1.404 . S
C25 C26 1.391 1_554 S
C26 H20 0.930 . S
C26 C22 1.429 . S
C26 C25 1.391 1_556 S
H27 C30 0.931 . S
H28 C33 0.928 . S
H29 C35 0.930 . S
C30 H27 0.931 . S
C30 C31 1.413 . S
C30 C32 1.360 . S
C31 C30 1.413 . S
C31 C35 1.429 . S
C32 C30 1.360 . S
C32 C33 1.372 . S
C33 H28 0.928 . S
C33 C32 1.372 . S
C33 C34 1.404 . S
C34 C33 1.404 . S
C34 C35 1.391 . S
C35 H29 0.930 . S
C35 C31 1.429 . S
C35 C34 1.391 . S
C36 O52 1.251 . S
C36 O54 1.254 1_455 S
N37 C38 1.333 . S
N37 C42 1.307 . S
N37 Zn43 2.020 . S
C38 N37 1.333 . S
C38 C39 1.379 . S
C38 H56 0.952 . S
C39 C38 1.379 . S
C39 C40 1.390 . S
C39 H66 0.949 . S
C40 C39 1.390 . S
C40 C41 1.357 . S
C41 C40 1.357 . S
C41 C42 1.370 . S
C41 H67 0.950 . S
C42 N37 1.307 . S
C42 C41 1.370 . S
C42 H60 0.948 . S
Zn43 N37 2.020 . S
Zn43 O52 2.039 1_545 S
Zn43 O58 2.034 1_545 S
Zn43 O62 2.025 . S
Zn43 O64 2.024 . S
C44 O63 1.246 . S
C44 O64 1.249 1_655 S
N45 C46 1.307 . S
N45 C47 1.333 . S
N45 Zn51 2.020 . S
C46 N45 1.307 . S
C46 C50 1.370 . S
C46 H57 0.948 . S
C47 N45 1.333 . S
C47 C48 1.379 . S
C47 H55 0.952 . S
C48 C47 1.379 . S
C48 C49 1.390 . S
C48 H68 0.949 . S
C49 C48 1.390 . S
C49 C50 1.357 . S
C50 C46 1.370 . S
C50 C49 1.357 . S
C50 H69 0.950 . S
Zn51 N45 2.020 . S
Zn51 O54 2.025 . S
Zn51 O59 2.024 . S
Zn51 O61 2.039 1_565 S
Zn51 O63 2.034 1_565 S
O52 C36 1.251 . S
O52 Zn43 2.039 1_565 S
C53 O58 1.246 . S
C53 O59 1.249 1_455 S
O54 C36 1.254 1_655 S
O54 Zn51 2.025 . S
H55 C47 0.952 . S
H56 C38 0.952 . S
H57 C46 0.948 . S
O58 Zn43 2.034 1_565 S
O58 C53 1.246 . S
O59 Zn51 2.024 . S
O59 C53 1.249 1_655 S
H60 C42 0.948 . S
O61 Zn51 2.039 1_545 S
O61 C65 1.251 . S
O62 Zn43 2.025 . S
O62 C65 1.254 1_455 S
O63 C44 1.246 . S
O63 Zn51 2.034 1_545 S
O64 Zn43 2.024 . S
O64 C44 1.249 1_455 S
C65 O61 1.251 . S
C65 O62 1.254 1_655 S
H66 C39 0.949 . S
H67 C41 0.950 . S
H68 C48 0.949 . S
H69 C50 0.950 . S
C70 O86 1.251 . S
C70 O88 1.254 . S
N71 C72 1.333 1_554 S
N71 C76 1.307 . S
N71 Zn77 2.020 . S
C72 N71 1.333 1_556 S
C72 C73 1.379 . S
C72 H90 0.952 . S
C73 C72 1.379 . S
C73 C74 1.390 1_556 S
C73 H100 0.949 . S
C74 C73 1.390 1_554 S
C74 C75 1.357 . S
C75 C74 1.357 . S
C75 C76 1.370 . S
C75 H101 0.950 . S
C76 N71 1.307 . S
C76 C75 1.370 . S
C76 H94 0.948 . S
Zn77 N71 2.020 . S
Zn77 O86 2.039 1_554 S
Zn77 O92 2.034 . S
Zn77 O96 2.025 . S
Zn77 O98 2.024 1_554 S
C78 O97 1.246 . S
C78 O98 1.249 . S
N79 C80 1.307 1_554 S
N79 C81 1.333 . S
N79 Zn85 2.020 . S
C80 N79 1.307 1_556 S
C80 C84 1.370 . S
C80 H91 0.948 . S
C81 N79 1.333 . S
C81 C82 1.379 . S
C81 H89 0.952 . S
C82 C81 1.379 . S
C82 C83 1.390 . S
C82 H102 0.949 . S
C83 C82 1.390 . S
C83 C84 1.357 1_554 S
C84 C80 1.370 . S
C84 C83 1.357 1_556 S
C84 H103 0.950 . S
Zn85 N79 2.020 . S
Zn85 O88 2.025 1_554 S
Zn85 O93 2.024 . S
Zn85 O95 2.039 . S
Zn85 O97 2.034 1_554 S
O86 C70 1.251 . S
O86 Zn77 2.039 1_556 S
C87 O92 1.246 . S
C87 O93 1.249 . S
O88 C70 1.254 . S
O88 Zn85 2.025 1_556 S
H89 C81 0.952 . S
H90 C72 0.952 . S
H91 C80 0.948 . S
O92 Zn77 2.034 . S
O92 C87 1.246 . S
O93 Zn85 2.024 . S
O93 C87 1.249 . S
H94 C76 0.948 . S
O95 Zn85 2.039 . S
O95 C99 1.251 . S
O96 Zn77 2.025 . S
O96 C99 1.254 . S
O97 C78 1.246 . S
O97 Zn85 2.034 1_556 S
O98 Zn77 2.024 1_556 S
O98 C78 1.249 . S
C99 O95 1.251 . S
C99 O96 1.254 . S
H100 C73 0.949 . S
H101 C75 0.950 . S
H102 C82 0.949 . S
H103 C84 0.950 . S
C104 C105 1.387 . S
C104 H108 0.950 . S
C104 C113 1.390 . S
C105 C104 1.387 . S
C105 C107 1.387 . S
H106 C113 0.950 . S
C107 C105 1.387 . S
C107 C109 1.390 . S
C107 H111 0.950 . S
H108 C104 0.950 . S
C109 C107 1.390 . S
C109 C110 1.387 . S
C109 H112 0.950 . S
C110 C109 1.387 . S
C110 C113 1.387 . S
H111 C107 0.950 . S
H112 C109 0.950 . S
C113 C104 1.390 . S
C113 H106 0.950 . S
C113 C110 1.387 . S
C114 C115 1.387 . S
C114 H118 0.950 . S
C114 C123 1.390 . S
C115 C114 1.387 . S
C115 C117 1.387 1_554 S
H116 C123 0.950 . S
C117 C115 1.387 1_556 S
C117 C119 1.390 . S
C117 H121 0.950 . S
H118 C114 0.950 . S
C119 C117 1.390 . S
C119 C120 1.387 1_556 S
C119 H122 0.950 . S
C120 C119 1.387 1_554 S
C120 C123 1.387 . S
H121 C117 0.950 . S
H122 C119 0.950 . S
C123 C114 1.390 . S
C123 H116 0.950 . S
C123 C120 1.387 . S
C124 C125 1.387 . S
C124 H128 0.950 . S
C124 C133 1.390 . S
C125 C124 1.387 . S
C125 C127 1.387 . S
H126 C133 0.950 . S
C127 C125 1.387 . S
C127 C129 1.390 . S
C127 H131 0.950 . S
H128 C124 0.950 . S
C129 C127 1.390 . S
C129 C130 1.387 . S
C129 H132 0.950 . S
C130 C129 1.387 . S
C130 C133 1.387 . S
H131 C127 0.950 . S
H132 C129 0.950 . S
C133 C124 1.390 . S
C133 H126 0.950 . S
C133 C130 1.387 . S
C134 C135 1.387 1_556 S
C134 H138 0.950 . S
C134 C143 1.390 . S
C135 C134 1.387 1_554 S
C135 C137 1.387 . S
H136 C143 0.950 . S
C137 C135 1.387 . S
C137 C139 1.390 . S
C137 H141 0.950 . S
H138 C134 0.950 . S
C139 C137 1.390 . S
C139 C140 1.387 . S
C139 H142 0.950 . S
C140 C139 1.387 . S
C140 C143 1.387 1_554 S
H141 C137 0.950 . S
H142 C139 0.950 . S
C143 C134 1.390 . S
C143 H136 0.950 . S
C143 C140 1.387 1_556 S
C144 C145 1.387 . S
C144 H148 0.950 . S
C144 C153 1.390 . S
C145 C144 1.387 . S
C145 C147 1.387 . S
H146 C153 0.950 . S
C147 C145 1.387 . S
C147 C149 1.390 . S
C147 H151 0.950 . S
H148 C144 0.950 . S
C149 C147 1.390 . S
C149 C150 1.387 . S
C149 H152 0.950 1_455 S
C150 C149 1.387 . S
C150 C153 1.387 . S
H151 C147 0.950 . S
H152 C149 0.950 1_655 S
C153 C144 1.390 . S
C153 H146 0.950 . S
C153 C150 1.387 . S
C154 C155 1.387 . S
C154 H158 0.950 . S
C154 C163 1.390 . S
C155 C154 1.387 . S
C155 C157 1.387 . S
H156 C163 0.950 . S
C157 C155 1.387 . S
C157 C159 1.390 . S
C157 H161 0.950 . S
H158 C154 0.950 . S
C159 C157 1.390 . S
C159 C160 1.387 . S
C159 H162 0.950 . S
C160 C159 1.387 . S
C160 C163 1.387 . S
H161 C157 0.950 . S
H162 C159 0.950 . S
C163 C154 1.390 . S
C163 H156 0.950 . S
C163 C160 1.387 . S
C164 C165 1.387 . S
C164 H168 0.950 . S
C164 C173 1.390 . S
C165 C164 1.387 . S
C165 C167 1.387 . S
H166 C173 0.950 . S
C167 C165 1.387 . S
C167 C169 1.390 . S
C167 H171 0.950 . S
H168 C164 0.950 . S
C169 C167 1.390 . S
C169 C170 1.387 . S
C169 H172 0.950 1_655 S
C170 C169 1.387 . S
C170 C173 1.387 . S
H171 C167 0.950 . S
H172 C169 0.950 1_455 S
C173 C164 1.390 . S
C173 H166 0.950 . S
C173 C170 1.387 . S
C174 C175 1.387 . S
C174 H178 0.950 . S
C174 C183 1.390 . S
C175 C174 1.387 . S
C175 C177 1.387 . S
H176 C183 0.950 . S
C177 C175 1.387 . S
C177 C179 1.390 . S
C177 H181 0.950 . S
H178 C174 0.950 . S
C179 C177 1.390 . S
C179 C180 1.387 . S
C179 H182 0.950 . S
C180 C179 1.387 . S
C180 C183 1.387 . S
H181 C177 0.950 . S
H182 C179 0.950 . S
C183 C174 1.390 . S
C183 H176 0.950 . S
C183 C180 1.387 . S
C184 C185 1.387 . S
C184 H188 0.950 . S
C184 C193 1.390 . S
C185 C184 1.387 . S
C185 C187 1.387 . S
H186 C193 0.950 . S
C187 C185 1.387 . S
C187 C189 1.390 . S
C187 H191 0.950 . S
H188 C184 0.950 . S
C189 C187 1.390 . S
C189 C190 1.387 . S
C189 H192 0.950 . S
C190 C189 1.387 . S
C190 C193 1.387 . S
H191 C187 0.950 . S
H192 C189 0.950 . S
C193 C184 1.390 . S
C193 H186 0.950 . S
C193 C190 1.387 . S
C194 C195 1.387 . S
C194 H198 0.950 . S
C194 C203 1.390 . S
C195 C194 1.387 . S
C195 C197 1.387 . S
H196 C203 0.950 . S
C197 C195 1.387 . S
C197 C199 1.390 . S
C197 H201 0.950 . S
H198 C194 0.950 . S
C199 C197 1.390 . S
C199 C200 1.387 . S
C199 H202 0.950 . S
C200 C199 1.387 . S
C200 C203 1.387 . S
H201 C197 0.950 . S
H202 C199 0.950 . S
C203 C194 1.390 . S
C203 H196 0.950 . S
C203 C200 1.387 . S
C204 C205 1.387 . S
C204 H208 0.950 . S
C204 C213 1.390 . S
C205 C204 1.387 . S
C205 C207 1.387 . S
H206 C213 0.950 . S
C207 C205 1.387 . S
C207 C209 1.390 . S
C207 H211 0.950 . S
H208 C204 0.950 . S
C209 C207 1.390 . S
C209 C210 1.387 . S
C209 H212 0.950 . S
C210 C209 1.387 . S
C210 C213 1.387 . S
H211 C207 0.950 . S
H212 C209 0.950 . S
C213 C204 1.390 . S
C213 H206 0.950 . S
C213 C210 1.387 . S
C214 C215 1.387 . S
C214 H218 0.950 . S
C214 C223 1.390 . S
C215 C214 1.387 . S
C215 C217 1.387 . S
H216 C223 0.950 1_655 S
C217 C215 1.387 . S
C217 C219 1.390 . S
C217 H221 0.950 . S
H218 C214 0.950 . S
C219 C217 1.390 . S
C219 C220 1.387 . S
C219 H222 0.950 . S
C220 C219 1.387 . S
C220 C223 1.387 . S
H221 C217 0.950 . S
H222 C219 0.950 . S
C223 C214 1.390 . S
C223 H216 0.950 1_455 S
C223 C220 1.387 . S
C110 C40 1.538 . S
C105 C34 1.524 . S
C115 C7 1.501 . S
C120 C83 1.510 . S
C125 C16 1.520 . S
C130 C49 1.538 . S
C135 C25 1.503 . S
C140 C74 1.511 . S
C150 C36 1.533 . S
C145 C5 1.510 . S
C160 C78 1.577 . S
C155 C13 1.544 . S
C165 C23 1.510 . S
C170 C44 1.530 . S
C175 C32 1.550 . S
C180 C70 1.576 . S
C190 C99 1.574 . S
C185 C14 1.540 . S
C200 C65 1.532 . S
C195 C22 1.510 . S
C210 C87 1.576 . S
C205 C31 1.547 . S
C215 C4 1.509 . S
C220 C53 1.528 . S
