# Generated by pormake.
# Topology anh, (6,3)-cn, num edge types: 1
# Building blocks:
#     Node 0, Type 0, BuildingBlock: BETDAH_clean_sbu_0, # of connection points: 6
#     Node 1, Type 0, BuildingBlock: BETDAH_clean_sbu_0, # of connection points: 6
#     Node 2, Type 0, BuildingBlock: BETDAH_clean_sbu_0, # of connection points: 6
#     Node 3, Type 1, BuildingBlock: INOVEN_clean_linker_0, # of connection points: 3
#     Node 4, Type 1, BuildingBlock: INOVEN_clean_linker_0, # of connection points: 3
#     Node 5, Type 1, BuildingBlock: INOVEN_clean_linker_0, # of connection points: 3
#     Node 6, Type 1, BuildingBlock: INOVEN_clean_linker_0, # of connection points: 3
#     Node 7, Type 1, BuildingBlock: INOVEN_clean_linker_0, # of connection points: 3
#     Node 8, Type 1, BuildingBlock: INOVEN_clean_linker_0, # of connection points: 3
#     Edge 9, Type (0, 1), None
#     Edge 10, Type (0, 1), None
#     Edge 11, Type (0, 1), None
#     Edge 12, Type (0, 1), None
#     Edge 13, Type (0, 1), None
#     Edge 14, Type (0, 1), None
#     Edge 15, Type (0, 1), None
#     Edge 16, Type (0, 1), None
#     Edge 17, Type (0, 1), None
#     Edge 18, Type (0, 1), None
#     Edge 19, Type (0, 1), None
#     Edge 20, Type (0, 1), None
#     Edge 21, Type (0, 1), None
#     Edge 22, Type (0, 1), None
#     Edge 23, Type (0, 1), None
#     Edge 24, Type (0, 1), None
#     Edge 25, Type (0, 1), None
#     Edge 26, Type (0, 1), None
# Relax obj value: 0.400
# Max RMSD: 0.308
# Mean RMSD: 0.152
data_MOF--net-anh--node1-BETDAH_clean_sbu_0--node2-INOVEN_clean_linker_0--edge1-none
_symmetry_space_group_name_H-M    P1
_symmetry_Int_Tables_number       1
_symmetry_cell_setting            triclinic
loop_
_symmetry_equiv_pos_as_xyz
'x, y, z'
_cell_length_a     13.326753
_cell_length_b     19.634077
_cell_length_c     22.386988
_cell_angle_alpha  94.620113
_cell_angle_beta   91.217727
_cell_angle_gamma 138.97865
loop_
_atom_site_label
_atom_site_type_symbol
_atom_site_fract_x
_atom_site_fract_y
_atom_site_fract_z
_atom_type_partial_charge
Ho0 Ho 0.53168 0.68315 0.13702 0.0
Ho1 Ho 0.34375 0.70526 0.17374 0.0
C2 C 0.69603 0.91898 0.15918 0.0
C3 C 0.62617 0.62468 0.08748 0.0
C4 C 0.50551 0.5089 0.07335 0.0
C5 C 0.43067 0.4594 0.01445 0.0
C6 C 0.30432 0.34996 0.00092 0.0
C7 C 1.25524 0.28809 0.0463 0.0
C8 C 0.31818 0.33679 0.10636 0.0
C9 C 0.44162 0.44606 0.11988 0.0
C10 C 0.52844 0.70542 0.2564 0.0
C11 C 1.19378 0.47684 0.1654 0.0
C12 C 1.17955 0.70057 0.23711 0.0
C13 C 1.01328 0.61565 0.23949 0.0
C14 C 0.93178 0.51136 0.23052 0.0
C15 C 0.79076 0.43481 0.1938 0.0
C16 C 0.732 0.46329 0.16791 0.0
C17 C 0.79394 0.55931 0.1908 0.0
C18 C 0.93541 0.63598 0.22678 0.0
C19 C 0.31165 0.65497 0.05082 0.0
O20 O 0.70682 0.86027 0.13542 0.0
O21 O 0.56952 0.87582 0.18079 0.0
O22 O 0.60409 0.66744 0.05652 0.0
O23 O 0.66986 0.66282 0.14511 0.0
O24 O 0.52187 0.64133 0.22929 0.0
O25 O 0.54123 0.75598 0.21949 0.0
O26 O 1.19608 0.54052 0.19165 0.0
O27 O 0.30006 0.51208 0.13112 0.0
O28 O 1.21956 0.73584 0.1851 0.0
O29 O 1.25302 0.68553 0.25793 0.0
O30 O 0.30149 0.71131 0.07616 0.0
O31 O 0.32318 0.6208 0.0922 0.0
H32 H 0.47513 0.50677 -0.02091 0.0
H33 H 1.25741 0.31368 0.95421 0.0
H34 H 1.28156 0.29026 0.14206 0.0
H35 H 0.48791 0.48066 0.1668 0.0
H36 H 0.9864 0.4924 0.24338 0.0
H37 H 0.74222 0.35994 0.17817 0.0
H38 H 0.74896 0.58222 0.17223 0.0
H39 H 0.99487 0.71538 0.23482 0.0
Ho40 Ho 1.07007 0.17179 0.46162 0.0
Ho41 Ho 0.85294 0.16667 0.44417 0.0
C42 C 0.71195 0.94833 0.43722 0.0
C43 C 1.2142 0.13954 0.49729 0.0
C44 C 1.16024 0.05883 0.53176 0.0
C45 C 1.0538 1.02028 0.57264 0.0
C46 C 0.99385 0.93877 0.60291 0.0
C47 C 1.03373 0.8914 0.59031 0.0
C48 C 1.13821 0.92838 0.54847 0.0
C49 C 1.19935 1.01089 0.51879 0.0
C50 C 1.01691 0.17321 0.34458 0.0
C51 C 1.2198 0.39333 0.4541 0.0
C52 C 0.69209 0.19058 0.42084 0.0
C53 C 0.6938 0.25802 0.45675 0.0
C54 C 0.80397 0.36449 0.45102 0.0
C55 C 0.81978 0.43115 0.49081 0.0
C56 C 0.7207 0.39246 0.53572 0.0
C57 C 0.60732 0.28484 0.54003 0.0
C58 C 0.5971 0.21938 0.50209 0.0
C59 C 0.89934 0.16048 0.56105 0.0
O60 O 0.8409 1.00341 0.47231 0.0
O61 O 0.70253 0.99968 0.40853 0.0
O62 O 1.14054 0.10371 0.44307 0.0
O63 O 1.23437 0.21033 0.52632 0.0
O64 O 1.15146 0.22926 0.37203 0.0
O65 O 0.91596 0.11681 0.37953 0.0
O66 O 1.07591 0.33981 0.44173 0.0
O67 O 1.25035 0.34591 0.46723 0.0
O68 O 0.63951 0.11213 0.44579 0.0
O69 O 0.81611 0.23859 0.39566 0.0
O70 O 0.76882 0.10832 0.53195 0.0
O71 O 1.00441 0.2191 0.52761 0.0
H72 H 1.0095 1.04847 0.57823 0.0
H73 H 0.90851 0.90792 0.63303 0.0
H74 H 1.16743 0.8907 0.537 0.0
H75 H 1.26974 1.03326 0.4834 0.0
H76 H 0.88302 0.39767 0.41751 0.0
H77 H 0.91376 0.5137 0.48689 0.0
H78 H 0.52733 0.25055 0.57311 0.0
H79 H 0.51697 0.13905 0.50967 0.0
Ho80 Ho 0.84071 0.62566 0.86527 0.0
Ho81 Ho 0.60606 0.38818 0.82937 0.0
C82 C 0.47913 0.47985 0.85703 0.0
C83 C 1.05048 0.82493 0.85981 0.0
C84 C 1.05296 0.89861 0.84499 0.0
C85 C 1.09363 0.93497 0.78875 0.0
C86 C 1.08705 0.99872 0.77189 0.0
C87 C 1.03872 1.02715 0.81089 0.0
C88 C 1.004 0.99451 0.86795 0.0
C89 C 1.01159 0.93123 0.8851 0.0
C90 C 0.7154 0.50864 0.95578 0.0
C91 C 0.97822 0.54033 0.86416 0.0
C92 C 0.46601 0.19963 0.80849 0.0
C93 C 0.53038 0.16419 0.79636 0.0
C94 C 0.66724 0.2139 0.82997 0.0
C95 C 0.75302 0.20365 0.80731 0.0
C96 C 0.7029 0.14345 0.75085 0.0
C97 C 0.55845 0.08562 0.72046 0.0
C98 C 0.47357 0.09644 0.74282 0.0
C99 C 0.6759 0.49431 0.73775 0.0
O100 O 0.61708 0.57149 0.84608 0.0
O101 O 0.45475 0.40039 0.86199 0.0
O102 O 0.99977 0.78549 0.91027 0.0
O103 O 1.00074 0.75501 0.8149 0.0
O104 O 0.75983 0.59499 0.95867 0.0
O105 O 0.75371 0.49721 0.90952 0.0
O106 O 0.83653 0.44604 0.84078 0.0
O107 O 1.00546 0.62078 0.87905 0.0
O108 O 0.4814 0.24865 0.76667 0.0
O109 O 0.4982 0.24625 0.86288 0.0
O110 O 0.53868 0.40351 0.74385 0.0
O111 O 0.76815 0.52382 0.78141 0.0
H112 H 1.12682 0.91176 0.75703 0.0
H113 H 1.11556 1.02316 0.72772 0.0
H114 H 0.96597 1.01529 0.89851 0.0
H115 H 0.98081 0.90557 0.92899 0.0
H116 H 0.71398 0.26676 0.87146 0.0
H117 H 0.8637 0.2489 0.83172 0.0
H118 H 0.51539 1.03686 0.6774 0.0
H119 H 0.36961 0.05834 0.71573 0.0
H120 H 0.85848 0.10012 0.10573 0.0
H121 H 0.83983 0.99147 0.26969 0.0
H122 H 1.12104 0.31384 0.27333 0.0
N123 N 1.06841 0.3055 0.15665 0.0
N124 N 1.09673 0.37738 0.18453 0.0
C125 C 0.89662 0.11548 0.1532 0.0
C126 C 0.83645 1.03205 0.18372 0.0
C127 C 1.0005 0.2182 0.18561 0.0
C128 C 1.04229 0.23588 0.24801 0.0
C129 C 0.98246 0.15427 0.27838 0.0
C130 C 0.88414 1.05402 0.24591 0.0
H131 H 0.84022 0.57741 0.51635 0.0
H132 H 0.64228 0.37313 0.65236 0.0
H133 H 0.82722 0.67083 0.6924 0.0
N134 N 0.92774 0.72999 0.58309 0.0
N135 N 0.95206 0.79805 0.61339 0.0
C136 C 0.8102 0.55955 0.56157 0.0
C137 C 0.73977 0.46511 0.57844 0.0
C138 C 0.84522 0.63402 0.60243 0.0
C139 C 0.80107 0.6132 0.66053 0.0
C140 C 0.72251 0.51722 0.67725 0.0
C141 C 0.69452 0.44413 0.63689 0.0
H142 H 1.12339 0.49426 0.81275 0.0
H143 H 1.11054 0.61838 -0.02316 0.0
H144 H 0.39148 0.58332 -0.02072 0.0
N145 N 0.35262 0.52536 0.86086 0.0
N146 N 0.36878 0.47356 0.87735 0.0
C147 C 1.1578 0.52283 0.86071 0.0
C148 C 1.09698 0.55113 0.89147 0.0
C149 C 1.26663 0.53426 0.8922 0.0
C150 C 0.30908 0.57276 0.95497 0.0
C151 C 1.25695 0.60615 -0.01465 0.0
C152 C 1.15262 0.59485 0.95298 0.0
H153 H 0.53279 0.76752 0.49463 0.0
H154 H 0.65242 0.87821 0.32246 0.0
H155 H 0.39372 0.56369 0.33337 0.0
N156 N 0.34838 0.56339 0.44792 0.0
N157 N 0.34148 0.49616 0.43846 0.0
C158 C 0.53196 0.75457 0.44659 0.0
C159 C 0.61078 0.83761 0.41199 0.0
C160 C 0.44992 0.65389 0.41786 0.0
C161 C 0.45524 0.63996 0.35583 0.0
C162 C 0.5279 0.72076 0.32159 0.0
C163 C 0.59947 0.81702 0.34948 0.0
H164 H 0.8699 0.12248 0.79531 0.0
H165 H 0.7575 0.17095 0.63548 0.0
H166 H 1.08489 0.17605 0.63581 0.0
N167 N 1.03744 0.10984 0.7416 0.0
N168 N 1.00634 0.07687 0.79134 0.0
C169 C 0.88857 0.14024 0.74949 0.0
C170 C 0.80808 0.15113 0.71999 0.0
C171 C 0.98489 0.14544 0.71843 0.0
C172 C 1.00768 0.16883 0.65894 0.0
C173 C 0.91941 0.17229 0.62779 0.0
C174 C 0.8233 0.16598 0.65916 0.0
H175 H 0.45576 0.25881 0.12683 0.0
H176 H 0.82847 0.56341 0.07179 0.0
H177 H 0.44276 0.30156 0.94325 0.0
N178 N 1.27046 0.17768 0.02448 0.0
N179 N 1.18808 0.18757 0.03023 0.0
C180 C 0.51255 0.30751 0.09133 0.0
C181 C 0.65226 0.41512 0.10602 0.0
C182 C 0.43452 0.26673 0.03259 0.0
C183 C 0.50715 0.33162 -0.01262 0.0
C184 C 0.64732 0.43913 0.0019 0.0
C185 C 0.71949 0.48023 0.06093 0.0
loop_
_geom_bond_atom_site_label_1
_geom_bond_atom_site_label_2
_geom_bond_distance
_geom_bond_site_symmetry_2
_ccdc_geom_bond_type
Ho0 C3 2.811 . S
Ho0 O20 2.322 . S
Ho0 O22 2.378 . S
Ho0 O23 2.524 . S
Ho0 O24 2.381 . S
Ho0 O25 2.669 . S
Ho0 O27 2.346 1_455 S
Ho0 O31 2.305 . S
Ho1 C12 2.811 . S
Ho1 O21 2.346 1_655 S
Ho1 O25 2.305 1_655 S
Ho1 O26 2.322 . S
Ho1 O28 2.378 . S
Ho1 O29 2.524 . S
Ho1 O30 2.381 . S
Ho1 O31 2.669 1_655 S
C2 O20 1.259 . S
C2 O21 1.268 . S
C3 Ho0 2.811 . S
C3 C4 1.488 . S
C3 O22 1.215 . S
C3 O23 1.289 . S
C4 C3 1.488 . S
C4 C5 1.348 . S
C4 C9 1.413 . S
C5 C4 1.348 . S
C5 C6 1.442 . S
C5 H32 0.930 . S
C6 C5 1.442 . S
C6 C7 1.381 . S
C6 H33 0.931 . S
C7 C6 1.381 . S
C7 C8 1.321 . S
C8 C7 1.321 . S
C8 C9 1.403 . S
C8 H34 0.934 . S
C9 C4 1.413 . S
C9 C8 1.403 . S
C9 H35 0.930 . S
C10 O24 1.275 . S
C10 O25 1.256 . S
C11 O26 1.259 . S
C11 O27 1.268 . S
C12 Ho1 2.811 . S
C12 C13 1.488 . S
C12 O28 1.215 . S
C12 O29 1.289 . S
C13 C12 1.488 . S
C13 C14 1.348 . S
C13 C18 1.413 . S
C14 C13 1.348 . S
C14 C15 1.442 . S
C14 H36 0.930 . S
C15 C14 1.442 . S
C15 C16 1.381 . S
C15 H37 0.931 . S
C16 C15 1.381 . S
C16 C17 1.321 . S
C17 C16 1.321 . S
C17 C18 1.403 . S
C17 H38 0.934 . S
C18 C13 1.413 . S
C18 C17 1.403 . S
C18 H39 0.930 . S
C19 O30 1.275 1_455 S
C19 O31 1.256 . S
O20 Ho0 2.322 . S
O20 C2 1.259 . S
O21 Ho1 2.346 1_455 S
O21 C2 1.268 . S
O22 Ho0 2.378 . S
O22 C3 1.215 . S
O23 Ho0 2.524 . S
O23 C3 1.289 . S
O24 Ho0 2.381 . S
O24 C10 1.275 . S
O25 Ho0 2.669 . S
O25 Ho1 2.305 1_455 S
O25 C10 1.256 . S
O26 Ho1 2.322 . S
O26 C11 1.259 . S
O27 Ho0 2.346 1_655 S
O27 C11 1.268 . S
O28 Ho1 2.378 . S
O28 C12 1.215 . S
O29 Ho1 2.524 . S
O29 C12 1.289 . S
O30 Ho1 2.381 . S
O30 C19 1.275 1_655 S
O31 Ho0 2.305 . S
O31 Ho1 2.669 1_455 S
O31 C19 1.256 . S
H32 C5 0.930 . S
H33 C6 0.931 . S
H34 C8 0.934 . S
H35 C9 0.930 . S
H36 C14 0.930 . S
H37 C15 0.931 . S
H38 C17 0.934 . S
H39 C18 0.930 . S
Ho40 C43 2.810 1_545 S
Ho40 O60 2.322 1_545 S
Ho40 O62 2.377 1_545 S
Ho40 O63 2.523 1_545 S
Ho40 O64 2.381 1_545 S
Ho40 O65 2.670 . S
Ho40 O67 2.346 . S
Ho40 O71 2.305 . S
Ho41 C52 2.811 . S
Ho41 O61 2.346 1_545 S
Ho41 O65 2.305 . S
Ho41 O66 2.322 . S
Ho41 O68 2.378 . S
Ho41 O69 2.524 . S
Ho41 O70 2.381 . S
Ho41 O71 2.669 . S
C42 O60 1.259 . S
C42 O61 1.268 . S
C43 Ho40 2.810 1_565 S
C43 C44 1.488 . S
C43 O62 1.215 . S
C43 O63 1.289 . S
C44 C43 1.488 . S
C44 C45 1.348 . S
C44 C49 1.413 . S
C45 C44 1.348 . S
C45 C46 1.442 . S
C45 H72 0.930 . S
C46 C45 1.442 . S
C46 C47 1.381 . S
C46 H73 0.931 . S
C47 C46 1.381 . S
C47 C48 1.321 . S
C48 C47 1.321 . S
C48 C49 1.403 . S
C48 H74 0.934 . S
C49 C44 1.413 . S
C49 C48 1.403 . S
C49 H75 0.930 . S
C50 O64 1.275 1_545 S
C50 O65 1.256 . S
C51 O66 1.259 . S
C51 O67 1.268 . S
C52 Ho41 2.811 . S
C52 C53 1.488 . S
C52 O68 1.215 . S
C52 O69 1.289 . S
C53 C52 1.488 . S
C53 C54 1.348 . S
C53 C58 1.413 . S
C54 C53 1.348 . S
C54 C55 1.442 . S
C54 H76 0.930 . S
C55 C54 1.442 . S
C55 C56 1.381 . S
C55 H77 0.931 . S
C56 C55 1.381 . S
C56 C57 1.321 . S
C57 C56 1.321 . S
C57 C58 1.403 . S
C57 H78 0.934 . S
C58 C53 1.413 . S
C58 C57 1.403 . S
C58 H79 0.930 . S
C59 O70 1.275 . S
C59 O71 1.256 . S
O60 Ho40 2.322 1_565 S
O60 C42 1.259 . S
O61 Ho41 2.346 1_565 S
O61 C42 1.268 . S
O62 Ho40 2.377 1_565 S
O62 C43 1.215 . S
O63 Ho40 2.523 1_565 S
O63 C43 1.289 . S
O64 Ho40 2.381 1_565 S
O64 C50 1.275 1_565 S
O65 Ho40 2.670 . S
O65 Ho41 2.305 . S
O65 C50 1.256 . S
O66 Ho41 2.322 . S
O66 C51 1.259 . S
O67 Ho40 2.346 . S
O67 C51 1.268 . S
O68 Ho41 2.378 . S
O68 C52 1.215 . S
O69 Ho41 2.524 . S
O69 C52 1.289 . S
O70 Ho41 2.381 . S
O70 C59 1.275 . S
O71 Ho40 2.305 . S
O71 Ho41 2.669 . S
O71 C59 1.256 . S
H72 C45 0.930 . S
H73 C46 0.931 . S
H74 C48 0.934 . S
H75 C49 0.930 . S
H76 C54 0.930 . S
H77 C55 0.931 . S
H78 C57 0.934 . S
H79 C58 0.930 . S
Ho80 C83 2.811 . S
Ho80 O100 2.322 . S
Ho80 O102 2.378 . S
Ho80 O103 2.524 . S
Ho80 O104 2.381 1_556 S
Ho80 O105 2.669 . S
Ho80 O107 2.346 . S
Ho80 O111 2.305 . S
Ho81 C92 2.811 . S
Ho81 O101 2.346 . S
Ho81 O105 2.305 . S
Ho81 O106 2.322 . S
Ho81 O108 2.378 . S
Ho81 O109 2.524 . S
Ho81 O110 2.381 . S
Ho81 O111 2.669 . S
C82 O100 1.259 . S
C82 O101 1.268 . S
C83 Ho80 2.811 . S
C83 C84 1.488 . S
C83 O102 1.215 . S
C83 O103 1.289 . S
C84 C83 1.488 . S
C84 C85 1.348 . S
C84 C89 1.413 . S
C85 C84 1.348 . S
C85 C86 1.442 . S
C85 H112 0.930 . S
C86 C85 1.442 . S
C86 C87 1.381 . S
C86 H113 0.931 . S
C87 C86 1.381 . S
C87 C88 1.321 . S
C88 C87 1.321 . S
C88 C89 1.403 . S
C88 H114 0.934 1_566 S
C89 C84 1.413 . S
C89 C88 1.403 . S
C89 H115 0.930 1_556 S
C90 O104 1.275 . S
C90 O105 1.256 1_554 S
C91 O106 1.259 . S
C91 O107 1.268 . S
C92 Ho81 2.811 . S
C92 C93 1.488 . S
C92 O108 1.215 . S
C92 O109 1.289 . S
C93 C92 1.488 . S
C93 C94 1.348 . S
C93 C98 1.413 . S
C94 C93 1.348 . S
C94 C95 1.442 . S
C94 H116 0.930 . S
C95 C94 1.442 . S
C95 C96 1.381 . S
C95 H117 0.931 . S
C96 C95 1.381 . S
C96 C97 1.321 . S
C97 C96 1.321 . S
C97 C98 1.403 . S
C97 H118 0.934 . S
C98 C93 1.413 . S
C98 C97 1.403 . S
C98 H119 0.930 . S
C99 O110 1.275 . S
C99 O111 1.256 . S
O100 Ho80 2.322 . S
O100 C82 1.259 . S
O101 Ho81 2.346 . S
O101 C82 1.268 . S
O102 Ho80 2.378 . S
O102 C83 1.215 . S
O103 Ho80 2.524 . S
O103 C83 1.289 . S
O104 Ho80 2.381 1_554 S
O104 C90 1.275 . S
O105 Ho80 2.669 . S
O105 Ho81 2.305 . S
O105 C90 1.256 1_556 S
O106 Ho81 2.322 . S
O106 C91 1.259 . S
O107 Ho80 2.346 . S
O107 C91 1.268 . S
O108 Ho81 2.378 . S
O108 C92 1.215 . S
O109 Ho81 2.524 . S
O109 C92 1.289 . S
O110 Ho81 2.381 . S
O110 C99 1.275 . S
O111 Ho80 2.305 . S
O111 Ho81 2.669 . S
O111 C99 1.256 . S
H112 C85 0.930 . S
H113 C86 0.931 . S
H114 C88 0.934 1_544 S
H115 C89 0.930 1_554 S
H116 C94 0.930 . S
H117 C95 0.931 . S
H118 C97 0.934 . S
H119 C98 0.930 . S
H120 C125 0.929 . S
H121 C130 0.931 . S
H122 C128 0.930 . S
N123 N124 1.234 . S
N123 C127 1.453 . S
N124 N123 1.234 . S
C125 H120 0.929 . S
C125 C126 1.373 . S
C125 C127 1.368 1_565 S
C126 C125 1.373 . S
C126 C130 1.397 . S
C127 N123 1.453 . S
C127 C125 1.368 1_545 S
C127 C128 1.373 . S
C128 H122 0.930 . S
C128 C127 1.373 . S
C128 C129 1.371 . S
C129 C128 1.371 . S
C129 C130 1.383 1_545 S
C130 H121 0.931 . S
C130 C126 1.397 . S
C130 C129 1.383 1_565 S
H131 C136 0.929 . S
H132 C141 0.931 . S
H133 C139 0.930 . S
N134 N135 1.234 . S
N134 C138 1.453 . S
N135 N134 1.234 . S
C136 H131 0.929 . S
C136 C137 1.373 . S
C136 C138 1.368 . S
C137 C136 1.373 . S
C137 C141 1.397 . S
C138 N134 1.453 . S
C138 C136 1.368 . S
C138 C139 1.373 . S
C139 H133 0.930 . S
C139 C138 1.373 . S
C139 C140 1.371 . S
C140 C139 1.371 . S
C140 C141 1.383 . S
C141 H132 0.931 . S
C141 C137 1.397 . S
C141 C140 1.383 . S
H142 C147 0.929 . S
H143 C152 0.927 1_655 S
H144 C150 0.930 . S
N145 N146 1.234 . S
N145 C149 1.453 . S
N146 N145 1.234 . S
C147 H142 0.929 . S
C147 C148 1.373 1_455 S
C147 C149 1.368 . S
C148 C147 1.373 1_655 S
C148 C152 1.397 1_655 S
C149 N145 1.453 . S
C149 C147 1.368 . S
C149 C150 1.373 . S
C150 H144 0.930 . S
C150 C149 1.373 . S
C150 C151 1.371 1_556 S
C151 C150 1.371 1_554 S
C151 C152 1.386 1_554 S
C152 H143 0.927 1_455 S
C152 C148 1.397 1_455 S
C152 C151 1.386 1_556 S
H153 C158 0.929 . S
H154 C163 0.931 . S
H155 C161 0.930 . S
N156 N157 1.234 . S
N156 C160 1.453 . S
N157 N156 1.234 . S
C158 H153 0.929 . S
C158 C159 1.373 . S
C158 C160 1.368 1_455 S
C159 C158 1.373 . S
C159 C163 1.397 . S
C160 N156 1.453 . S
C160 C158 1.368 1_655 S
C160 C161 1.373 . S
C161 H155 0.930 . S
C161 C160 1.373 . S
C161 C162 1.371 1_655 S
C162 C161 1.371 1_455 S
C162 C163 1.383 . S
C163 H154 0.931 . S
C163 C159 1.397 . S
C163 C162 1.383 . S
H164 C169 0.929 . S
H165 C174 0.931 . S
H166 C172 0.930 . S
N167 N168 1.234 . S
N167 C171 1.453 1_565 S
N168 N167 1.234 . S
C169 H164 0.929 . S
C169 C170 1.373 . S
C169 C171 1.368 . S
C170 C169 1.373 . S
C170 C174 1.397 . S
C171 N167 1.453 1_545 S
C171 C169 1.368 . S
C171 C172 1.373 1_545 S
C172 H166 0.930 . S
C172 C171 1.373 1_565 S
C172 C173 1.371 1_565 S
C173 C172 1.371 1_545 S
C173 C174 1.383 . S
C174 H165 0.931 . S
C174 C170 1.397 . S
C174 C173 1.383 . S
H175 C180 0.929 . S
H176 C185 0.931 1_556 S
H177 C183 0.930 1_556 S
N178 N179 1.234 . S
N178 C182 1.453 . S
N179 N178 1.234 . S
C180 H175 0.929 . S
C180 C181 1.373 . S
C180 C182 1.368 . S
C181 C180 1.373 . S
C181 C185 1.397 . S
C182 N178 1.453 . S
C182 C180 1.368 . S
C182 C183 1.373 . S
C183 H177 0.930 1_554 S
C183 C182 1.373 . S
C183 C184 1.371 1_554 S
C184 C183 1.371 1_556 S
C184 C185 1.383 1_556 S
C185 H176 0.931 1_554 S
C185 C181 1.397 . S
C185 C184 1.383 1_554 S
C7 N179 4.729 . S
C51 N157 2.370 . S
C87 N168 3.460 . S
C16 C181 3.058 . S
C159 C42 2.424 . S
C170 C96 1.789 . S
C47 N135 2.362 . S
C91 C148 4.765 . S
C2 C126 2.652 . S
C137 C56 2.296 . S
N146 C82 4.717 . S
C11 N124 2.492 . S
C151 C19 1.936 . S
C50 C129 1.097 . S
C99 C140 1.404 . S
C173 C59 1.298 . S
C184 C90 1.751 1_556 S
C10 C162 1.016 . S
