# Generated by pormake.
# Topology tsx, (6,3)-cn, num edge types: 1
# Building blocks:
#     Node 0, Type 0, BuildingBlock: LEVNOQ01_clean_sbu_1, # of connection points: 6
#     Node 1, Type 0, BuildingBlock: LEVNOQ01_clean_sbu_1, # of connection points: 6
#     Node 2, Type 1, BuildingBlock: QEWDON_clean_linker_0, # of connection points: 3
#     Node 3, Type 1, BuildingBlock: QEWDON_clean_linker_0, # of connection points: 3
#     Node 4, Type 1, BuildingBlock: QEWDON_clean_linker_0, # of connection points: 3
#     Node 5, Type 1, BuildingBlock: QEWDON_clean_linker_0, # of connection points: 3
#     Edge 6, Type (0, 1), BuildingBlock: AJUNOK_clean_linker_0, # of connection points: 2
#     Edge 7, Type (0, 1), BuildingBlock: AJUNOK_clean_linker_0, # of connection points: 2
#     Edge 8, Type (0, 1), BuildingBlock: AJUNOK_clean_linker_0, # of connection points: 2
#     Edge 9, Type (0, 1), BuildingBlock: AJUNOK_clean_linker_0, # of connection points: 2
#     Edge 10, Type (0, 1), BuildingBlock: AJUNOK_clean_linker_0, # of connection points: 2
#     Edge 11, Type (0, 1), BuildingBlock: AJUNOK_clean_linker_0, # of connection points: 2
#     Edge 12, Type (0, 1), BuildingBlock: AJUNOK_clean_linker_0, # of connection points: 2
#     Edge 13, Type (0, 1), BuildingBlock: AJUNOK_clean_linker_0, # of connection points: 2
#     Edge 14, Type (0, 1), BuildingBlock: AJUNOK_clean_linker_0, # of connection points: 2
#     Edge 15, Type (0, 1), BuildingBlock: AJUNOK_clean_linker_0, # of connection points: 2
#     Edge 16, Type (0, 1), BuildingBlock: AJUNOK_clean_linker_0, # of connection points: 2
#     Edge 17, Type (0, 1), BuildingBlock: AJUNOK_clean_linker_0, # of connection points: 2
# Relax obj value: 0.111
# Max RMSD: 0.199
# Mean RMSD: 0.145
data_MOF--net-tsx--node1-LEVNOQ01_clean_sbu_1--node2-QEWDON_clean_linker_0--edge1-AJUNOK_clean_linker_0
_symmetry_space_group_name_H-M    P1
_symmetry_Int_Tables_number       1
_symmetry_cell_setting            triclinic
loop_
_symmetry_equiv_pos_as_xyz
'x, y, z'
_cell_length_a     13.945249
_cell_length_b     17.862802
_cell_length_c     22.708086
_cell_angle_alpha  96.861497
_cell_angle_beta   111.71295
_cell_angle_gamma 89.807762
loop_
_atom_site_label
_atom_site_type_symbol
_atom_site_fract_x
_atom_site_fract_y
_atom_site_fract_z
_atom_type_partial_charge
O0 O 0.25688 0.11787 0.21041 0.0
Mg1 Mg 0.31847 0.05854 0.14957 0.0
O2 O 0.17198 0.00949 0.17332 0.0
Mg3 Mg 0.15502 1.00327 0.05932 0.0
O4 O 0.28542 0.09378 0.06341 0.0
O5 O 0.43494 0.1226 0.14577 0.0
O6 O 0.13786 0.9959 0.9499 0.0
O7 O 0.07676 0.12316 0.06371 0.0
Mg8 Mg 0.99115 0.01264 1.00748 0.0
O9 O 1.00614 0.90475 1.02993 0.0
O10 O 1.00283 0.06278 0.92943 0.0
O11 O 0.93336 0.08108 0.06678 0.0
O12 O 0.87026 0.94568 0.9525 0.0
C13 C 0.34463 0.89473 0.12595 0.0
C14 C 0.20766 0.06426 0.21922 0.0
C15 C 0.37452 0.13073 0.08842 0.0
C16 C 1.07138 0.03404 0.91138 0.0
C17 C 0.99497 0.13585 0.07492 0.0
C18 C 0.91271 0.89278 0.98532 0.0
O19 O 0.37268 0.95058 0.16912 0.0
O20 O 0.2683 0.90029 0.0734 0.0
O21 O 0.70456 0.61287 0.6923 0.0
Mg22 Mg 0.76791 0.55592 0.6307 0.0
O23 O 0.63889 0.49869 0.65769 0.0
Mg24 Mg 0.6199 0.5039 0.54416 0.0
O25 O 0.74946 0.59648 0.54847 0.0
O26 O 0.89098 0.62029 0.63724 0.0
O27 O 0.6028 0.50518 0.43543 0.0
O28 O 0.53204 0.61992 0.55463 0.0
Mg29 Mg 0.4501 0.51204 0.48573 0.0
O30 O 0.47345 0.40512 0.51278 0.0
O31 O 0.46394 0.5682 0.41161 0.0
O32 O 0.37824 0.57573 0.53892 0.0
O33 O 0.34204 0.43623 0.4274 0.0
C34 C 0.81516 0.39906 0.60504 0.0
C35 C 0.66821 0.55404 0.70321 0.0
C36 C 0.83995 0.62995 0.57879 0.0
C37 C 0.53712 0.5433 0.39646 0.0
C38 C 0.44291 0.63054 0.5571 0.0
C39 C 0.38396 0.38769 0.46532 0.0
O40 O 0.83308 0.45091 0.65107 0.0
O41 O 0.73969 0.40472 0.55213 0.0
H42 H 0.29149 0.14543 0.52859 0.0
C43 C 0.2989 0.08836 0.53796 0.0
C44 C 0.29143 0.03146 0.48757 0.0
C45 C 0.30984 0.0709 0.59923 0.0
H46 H 0.3131 0.91473 0.46438 0.0
C47 C 0.31204 0.9582 0.50185 0.0
C48 C 0.33114 0.93968 0.56328 0.0
C49 C 0.3289 0.99575 0.61196 0.0
C50 C 0.29518 0.12991 0.648 0.0
H51 H 0.33878 0.9805 0.65857 0.0
C52 C 0.2047 0.17143 0.6329 0.0
C53 C 0.18974 0.22891 0.67662 0.0
C54 C 0.36997 0.14465 0.71007 0.0
H55 H 0.44006 0.11357 0.72387 0.0
C56 C 0.35549 0.20067 0.75459 0.0
H57 H 0.14529 0.15929 0.58675 0.0
C58 C 0.26625 0.24274 0.73802 0.0
H59 H 0.25709 0.28604 0.773 0.0
H60 H 0.41415 0.21186 0.80216 0.0
H61 H 1.00105 0.12184 0.61554 0.0
C62 C 0.99906 0.06309 0.59881 0.0
C63 C 1.02059 0.01022 0.64273 0.0
C64 C 0.97589 0.04063 0.533 0.0
H65 H 1.02185 0.89303 0.65267 0.0
C66 C 1.01216 0.93397 0.61944 0.0
C67 C 0.98239 0.90924 0.55391 0.0
C68 C 0.96581 0.96277 0.51043 0.0
C69 C 0.95934 0.10013 0.48933 0.0
H70 H 0.94283 0.94412 0.45976 0.0
C71 C 1.03944 0.1236 0.47068 0.0
C72 C 1.03855 0.19417 0.4479 0.0
C73 C 0.87173 0.14361 0.47704 0.0
H74 H 0.80957 0.12777 0.4915 0.0
C75 C 0.86549 0.20958 0.44842 0.0
H76 H 0.10615 0.09031 0.48002 0.0
C77 C 0.94906 0.23561 0.43523 0.0
H78 H 0.94582 0.28999 0.4181 0.0
H79 H 0.79788 0.24302 0.43981 0.0
H80 H 0.78962 0.6338 1.01046 0.0
C81 C 0.80308 0.57837 1.02343 0.0
C82 C 0.79035 0.51797 0.97485 0.0
C83 C 0.82601 0.56631 0.08749 0.0
H84 H 0.81508 0.40006 0.95703 0.0
C85 C 0.81801 0.44671 0.99302 0.0
C86 C 0.85414 0.43564 0.05764 0.0
C87 C 0.85529 0.49458 0.10465 0.0
C88 C 0.81522 0.62714 0.13556 0.0
H89 H 0.87738 0.48431 0.15396 0.0
C90 C 0.71692 0.65194 0.13121 0.0
C91 C 0.70498 0.71381 0.17246 0.0
C92 C 0.90244 0.66046 0.18616 0.0
H93 H 0.97883 0.64163 0.19158 0.0
C94 C 0.89165 0.71923 0.22964 0.0
H95 H 0.64985 0.62406 0.09496 0.0
C96 C 0.79412 0.74659 0.22236 0.0
H97 H 0.78892 0.79469 0.25476 0.0
H98 H 0.95959 0.74497 0.26831 0.0
H99 H 0.46653 0.63396 0.1002 0.0
C100 C 0.46772 0.5748 0.085 0.0
C101 C 0.48539 0.52387 0.13013 0.0
C102 C 0.45721 0.54953 1.02123 0.0
H103 H 0.48517 0.40749 0.14342 0.0
C104 C 0.47764 0.44695 0.10924 0.0
C105 C 0.45869 0.41946 1.04544 0.0
C106 C 0.45084 0.47084 1.00125 0.0
C107 C 0.45669 0.60656 0.97766 0.0
H108 H 0.43998 0.45002 0.95231 0.0
C109 C 0.5495 0.63132 0.9728 0.0
C110 C 0.55589 0.6978 0.94569 0.0
C111 C 0.36674 0.64465 0.94863 0.0
H112 H 0.2946 0.62769 0.95197 0.0
C113 C 0.36981 0.70634 0.91658 0.0
H114 H 0.61687 0.60061 0.99313 0.0
C115 C 0.46358 0.73355 0.91604 0.0
H116 H 0.46454 0.78449 0.8947 0.0
H117 H 0.29982 0.7355 0.89457 0.0
C118 C 0.32417 0.23048 1.01427 0.0
C119 C 0.40208 0.19063 0.05635 0.0
C120 C 0.34604 0.30236 1.00121 0.0
C121 C 0.44641 0.33611 1.02942 0.0
H122 H 0.24428 0.20999 0.99683 0.0
H123 H 0.28214 0.33513 0.97529 0.0
S124 S 0.67985 0.2496 0.13361 0.0
N125 N 0.58601 0.18529 0.11741 0.0
N126 N 0.62576 0.32009 0.09404 0.0
C127 C 0.52652 0.29243 0.06451 0.0
C128 C 0.50457 0.21984 0.07791 0.0
C129 C 0.45149 0.80656 0.08563 0.0
C130 C 0.41649 0.83177 0.13453 0.0
C131 C 0.54241 0.76684 0.09837 0.0
C132 C 0.60202 0.74887 0.15986 0.0
H133 H 0.41313 0.82262 1.03822 0.0
H134 H 0.56684 0.75227 0.05957 0.0
S135 S 0.53288 0.79106 0.30271 0.0
N136 N 0.44153 0.8293 0.24616 0.0
N137 N 0.61037 0.7519 0.26885 0.0
C138 C 0.56323 0.76896 0.2083 0.0
C139 C 0.47101 0.81052 0.19577 0.0
C140 C 0.82122 0.80491 1.02677 0.0
C141 C 0.84291 0.8255 0.9753 0.0
C142 C 0.72999 0.763 1.0167 0.0
C143 C 0.65782 0.73628 0.95491 0.0
H144 H 0.87051 0.82652 0.07526 0.0
H145 H 0.71732 0.75213 0.05847 0.0
S146 S 0.6782 0.77609 0.8034 0.0
N147 N 0.78394 0.8172 0.85949 0.0
N148 N 0.61577 0.73559 0.84128 0.0
C149 C 0.6805 0.75484 0.90296 0.0
C150 C 0.77241 0.79899 0.91301 0.0
C151 C 0.85515 0.22563 1.05304 0.0
C152 C 0.9609 0.21286 0.08193 0.0
C153 C 0.82068 0.29866 1.04806 0.0
C154 C 0.88998 0.36119 0.07434 0.0
H155 H 0.79913 0.17899 1.03027 0.0
H156 H 0.73985 0.30634 1.021 0.0
S157 S 0.17374 0.35846 0.15716 0.0
N158 N 0.13478 0.26848 0.13788 0.0
N159 N 1.06817 0.40692 0.13165 0.0
C160 C 0.9952 0.34966 0.10623 0.0
C161 C 1.03113 0.275 0.10937 0.0
C162 C 0.81449 0.73371 0.50987 0.0
C163 C 0.88137 0.6862 0.5504 0.0
C164 C 0.85149 0.80349 0.50179 0.0
C165 C 0.956 0.82738 0.5342 0.0
H166 H 0.73192 0.72102 0.49008 0.0
H167 H 0.79597 0.84254 0.4768 0.0
S168 S 0.16521 0.71485 0.63261 0.0
N169 N 1.05957 0.66032 0.61136 0.0
N170 N 0.12767 0.79237 0.59909 0.0
C171 C 1.0251 0.77535 0.56711 0.0
C172 C 0.98795 0.70448 0.57466 0.0
C173 C 0.91437 0.28899 0.65088 0.0
C174 C 0.89983 0.34629 0.61122 0.0
C175 C 1.00953 0.25362 0.67398 0.0
C176 C 0.09354 0.2732 0.65779 0.0
H177 H 0.85324 0.27369 0.66643 0.0
H178 H 1.01791 0.21064 0.70501 0.0
S179 S 0.10548 0.43617 0.57321 0.0
N180 N 0.98392 0.43037 0.56704 0.0
N181 N 0.16295 0.36709 0.61363 0.0
C182 C 0.08254 0.33463 0.62277 0.0
C183 C 0.98547 0.36972 0.59826 0.0
C184 C 0.2971 0.30659 0.51433 0.0
C185 C 0.31451 0.32181 0.46001 0.0
C186 C 0.20818 0.26494 0.50868 0.0
C187 C 0.13562 0.23227 0.44974 0.0
H188 H 0.34767 0.33218 0.56133 0.0
H189 H 0.19626 0.25781 0.55129 0.0
S190 S 0.14122 0.25809 0.29184 0.0
N191 N 0.24759 0.30375 0.3435 0.0
N192 N 0.0847 0.22143 0.33485 0.0
C193 C 0.15241 0.24588 0.39475 0.0
C194 C 0.24139 0.29052 0.39971 0.0
C195 C 0.47613 0.7641 0.61082 0.0
C196 C 0.40808 0.70728 0.56734 0.0
C197 C 0.44701 0.83945 0.61422 0.0
C198 C 0.35003 0.85997 0.57319 0.0
H199 H 0.55328 0.75063 0.64077 0.0
H200 H 0.50309 0.88247 0.64579 0.0
S201 S 0.14379 0.73238 0.45159 0.0
N202 N 0.23809 0.67649 0.48429 0.0
N203 N 0.1854 0.81777 0.48928 0.0
C204 C 0.28028 0.80315 0.53132 0.0
C205 C 0.30882 0.7268 0.52871 0.0
C206 C 0.2931 0.10596 0.33742 0.0
C207 C 0.2171 0.05939 0.28675 0.0
C208 C 0.31335 0.09945 0.402 0.0
C209 C 0.25911 0.04572 0.41927 0.0
H210 H 0.34025 0.14691 0.32741 0.0
H211 H 0.37467 0.13486 0.43857 0.0
S212 S 1.0446 0.91567 0.30704 0.0
N213 N 0.08222 0.96143 0.25966 0.0
N214 N 0.11931 0.94946 0.38085 0.0
C215 C 0.17978 1.001 0.36956 0.0
C216 C 0.15924 0.00757 0.30357 0.0
C217 C 0.1404 1.00562 0.82278 0.0
C218 C 1.066 0.03901 0.84464 0.0
C219 C 0.12913 1.00169 0.75815 0.0
C220 C 1.04303 0.03092 0.71249 0.0
H221 H 0.20607 0.97987 0.85528 0.0
H222 H 0.18607 0.97253 0.74311 0.0
S223 S 0.8284 0.12727 0.7444 0.0
N224 N 0.90553 0.10617 0.81484 0.0
N225 N 0.88366 0.09578 0.69389 0.0
C226 C 0.97039 0.06704 0.73396 0.0
C227 C 0.98207 0.07185 0.79976 0.0
C228 C 0.76543 0.59397 0.82023 0.0
C229 C 0.68901 0.54554 0.77178 0.0
C230 C 0.79507 0.58613 0.88527 0.0
C231 C 0.75086 0.52881 0.90549 0.0
H232 H 0.80576 0.6376 0.80796 0.0
H233 H 0.85566 0.62398 0.91987 0.0
S234 S 0.54253 0.38975 0.79979 0.0
N235 N 0.56654 0.43992 0.74975 0.0
N236 N 0.6217 0.42507 0.87216 0.0
C237 C 0.67263 0.48077 0.85807 0.0
C238 C 0.64215 0.48895 0.7914 0.0
C239 C 0.45093 0.58282 0.28669 0.0
C240 C 0.53655 0.55141 0.33142 0.0
C241 C 0.43887 0.58056 0.22214 0.0
C242 C 0.51226 0.54727 0.19979 0.0
H243 H 0.38953 0.60592 0.30071 0.0
H244 H 0.36848 0.60039 0.18882 0.0
S245 S 0.75886 0.46943 0.29805 0.0
N246 N 0.70231 0.49496 0.34924 0.0
N247 N 0.67978 0.49132 0.22835 0.0
C248 C 0.60227 0.52171 0.24476 0.0
C249 C 0.61441 0.52357 0.31037 0.0
loop_
_geom_bond_atom_site_label_1
_geom_bond_atom_site_label_2
_geom_bond_distance
_geom_bond_site_symmetry_2
_ccdc_geom_bond_type
O0 Mg1 1.990 . S
O0 C14 1.253 . S
Mg1 O0 1.990 . S
Mg1 O4 2.180 . S
Mg1 O5 2.117 . S
Mg1 O19 2.030 1_545 S
O2 Mg3 2.072 1_554 S
O2 C14 1.260 . S
Mg3 O2 2.072 1_556 S
Mg3 O4 2.099 1_556 S
Mg3 O6 2.079 . S
Mg3 O7 2.072 . S
Mg3 O9 2.099 1_445 S
Mg3 O20 2.079 1_545 S
O4 Mg1 2.180 . S
O4 Mg3 2.099 1_554 S
O4 C15 1.279 . S
O5 Mg1 2.117 . S
O5 C15 1.250 . S
O6 Mg3 2.079 . S
O6 C16 1.264 . S
O7 Mg3 2.072 . S
O7 C17 1.260 1_455 S
Mg8 O9 2.180 . S
Mg8 O10 2.030 1_565 S
Mg8 O11 1.990 1_565 S
Mg8 O12 2.117 . S
O9 Mg3 2.099 1_665 S
O9 Mg8 2.180 . S
O9 C18 1.279 . S
O10 Mg8 2.030 1_545 S
O10 C16 1.248 1_655 S
O11 Mg8 1.990 1_545 S
O11 C17 1.253 . S
O12 Mg8 2.117 . S
O12 C18 1.250 . S
C13 O19 1.248 . S
C13 O20 1.264 1_554 S
C14 O0 1.253 . S
C14 O2 1.260 . S
C15 O4 1.279 . S
C15 O5 1.250 . S
C16 O6 1.264 . S
C16 O10 1.248 1_455 S
C17 O7 1.260 1_655 S
C17 O11 1.253 . S
C18 O9 1.279 . S
C18 O12 1.250 . S
O19 Mg1 2.030 1_565 S
O19 C13 1.248 . S
O20 Mg3 2.079 1_565 S
O20 C13 1.264 1_556 S
O21 Mg22 1.990 . S
O21 C35 1.253 . S
Mg22 O21 1.990 . S
Mg22 O25 2.180 . S
Mg22 O26 2.117 . S
Mg22 O40 2.030 . S
O23 Mg24 2.072 . S
O23 C35 1.260 . S
Mg24 O23 2.072 . S
Mg24 O25 2.099 . S
Mg24 O27 2.079 . S
Mg24 O28 2.072 . S
Mg24 O30 2.099 . S
Mg24 O41 2.079 . S
O25 Mg22 2.180 . S
O25 Mg24 2.099 . S
O25 C36 1.279 . S
O26 Mg22 2.117 . S
O26 C36 1.250 . S
O27 Mg24 2.079 . S
O27 C37 1.264 . S
O28 Mg24 2.072 . S
O28 C38 1.260 . S
Mg29 O30 2.180 . S
Mg29 O31 2.030 . S
Mg29 O32 1.990 . S
Mg29 O33 2.117 . S
O30 Mg24 2.099 . S
O30 Mg29 2.180 . S
O30 C39 1.279 . S
O31 Mg29 2.030 . S
O31 C37 1.248 . S
O32 Mg29 1.990 . S
O32 C38 1.253 . S
O33 Mg29 2.117 . S
O33 C39 1.250 . S
C34 O40 1.248 . S
C34 O41 1.264 . S
C35 O21 1.253 . S
C35 O23 1.260 . S
C36 O25 1.279 . S
C36 O26 1.250 . S
C37 O27 1.264 . S
C37 O31 1.248 . S
C38 O28 1.260 . S
C38 O32 1.253 . S
C39 O30 1.279 . S
C39 O33 1.250 . S
O40 Mg22 2.030 . S
O40 C34 1.248 . S
O41 Mg24 2.079 . S
O41 C34 1.264 . S
H42 C43 0.949 . S
C43 H42 0.949 . S
C43 C44 1.395 1_545 S
C43 C45 1.391 . S
C44 C43 1.395 1_565 S
C44 C47 1.390 . S
C45 C43 1.391 . S
C45 C49 1.387 1_545 S
C45 C50 1.491 . S
H46 C47 0.950 . S
C47 C44 1.390 . S
C47 H46 0.950 . S
C47 C48 1.378 . S
C48 C47 1.378 . S
C48 C49 1.409 . S
C49 C45 1.387 1_565 S
C49 C48 1.409 . S
C49 H51 0.951 . S
C50 C45 1.491 . S
C50 C52 1.382 . S
C50 C54 1.404 . S
H51 C49 0.951 . S
C52 C50 1.382 . S
C52 C53 1.390 1_455 S
C52 H57 0.949 1_455 S
C53 C52 1.390 1_655 S
C53 C58 1.399 1_655 S
C54 C50 1.404 . S
C54 H55 0.950 . S
C54 C56 1.375 . S
H55 C54 0.950 . S
C56 C54 1.375 . S
C56 C58 1.382 . S
C56 H60 0.950 . S
H57 C52 0.949 1_655 S
C58 C53 1.399 1_455 S
C58 C56 1.382 . S
C58 H59 0.952 . S
H59 C58 0.952 . S
H60 C56 0.950 . S
H61 C62 0.954 . S
C62 H61 0.954 . S
C62 C63 1.390 1_455 S
C62 C64 1.391 1_455 S
C63 C62 1.390 1_655 S
C63 C66 1.390 1_545 S
C64 C62 1.391 1_655 S
C64 C68 1.382 1_545 S
C64 C69 1.491 1_655 S
H65 C66 0.950 . S
C66 C63 1.390 1_565 S
C66 H65 0.950 . S
C66 C67 1.378 . S
C67 C66 1.378 . S
C67 C68 1.414 . S
C68 C64 1.382 1_565 S
C68 C67 1.414 . S
C68 H70 0.951 . S
C69 C64 1.491 1_455 S
C69 C71 1.382 . S
C69 C73 1.404 1_455 S
H70 C68 0.951 . S
C71 C69 1.382 . S
C71 C72 1.390 . S
C71 H76 0.949 . S
C72 C71 1.390 . S
C72 C77 1.399 . S
C73 C69 1.404 1_655 S
C73 H74 0.950 . S
C73 C75 1.375 . S
H74 C73 0.950 . S
C75 C73 1.375 . S
C75 C77 1.382 1_655 S
C75 H79 0.950 . S
H76 C71 0.949 . S
C77 C72 1.399 . S
C77 C75 1.382 1_455 S
C77 H78 0.952 . S
H78 C77 0.952 . S
H79 C75 0.950 . S
H80 C81 0.949 . S
C81 H80 0.949 . S
C81 C82 1.395 . S
C81 C83 1.391 . S
C82 C81 1.395 . S
C82 C85 1.390 . S
C83 C81 1.391 . S
C83 C87 1.387 . S
C83 C88 1.491 1_556 S
H84 C85 0.950 . S
C85 C82 1.390 . S
C85 H84 0.950 . S
C85 C86 1.378 . S
C86 C85 1.378 . S
C86 C87 1.409 . S
C87 C83 1.387 . S
C87 C86 1.409 . S
C87 H89 0.951 1_556 S
C88 C83 1.491 1_554 S
C88 C90 1.382 1_554 S
C88 C92 1.404 . S
H89 C87 0.951 1_554 S
C90 C88 1.382 1_556 S
C90 C91 1.390 1_556 S
C90 H95 0.949 . S
C91 C90 1.390 1_554 S
C91 C96 1.399 . S
C92 C88 1.404 . S
C92 H93 0.950 . S
C92 C94 1.375 . S
H93 C92 0.950 . S
C94 C92 1.375 . S
C94 C96 1.382 . S
C94 H98 0.950 . S
H95 C90 0.949 . S
C96 C91 1.399 . S
C96 C94 1.382 . S
C96 H97 0.952 . S
H97 C96 0.952 . S
H98 C94 0.950 . S
H99 C100 0.949 . S
C100 H99 0.949 . S
C100 C101 1.395 . S
C100 C102 1.391 . S
C101 C100 1.395 . S
C101 C104 1.390 . S
C102 C100 1.391 . S
C102 C106 1.387 . S
C102 C107 1.491 1_554 S
H103 C104 0.950 . S
C104 C101 1.390 . S
C104 H103 0.950 . S
C104 C105 1.378 . S
C105 C104 1.378 . S
C105 C106 1.409 . S
C106 C102 1.387 . S
C106 C105 1.409 . S
C106 H108 0.951 1_554 S
C107 C102 1.491 1_556 S
C107 C109 1.382 1_556 S
C107 C111 1.404 . S
H108 C106 0.951 1_556 S
C109 C107 1.382 1_554 S
C109 C110 1.390 1_554 S
C109 H114 0.949 . S
C110 C109 1.390 1_556 S
C110 C115 1.399 . S
C111 C107 1.404 . S
C111 H112 0.950 . S
C111 C113 1.375 . S
H112 C111 0.950 . S
C113 C111 1.375 . S
C113 C115 1.382 . S
C113 H117 0.950 . S
H114 C109 0.949 . S
C115 C110 1.399 . S
C115 C113 1.382 . S
C115 H116 0.952 . S
H116 C115 0.952 . S
H117 C113 0.950 . S
C118 C119 1.369 1_556 S
C118 C120 1.419 . S
C118 H122 0.930 . S
C119 C118 1.369 1_554 S
C119 C128 1.429 . S
C120 C118 1.419 . S
C120 C121 1.363 1_556 S
C120 H123 0.929 . S
C121 C120 1.363 1_554 S
C121 C127 1.428 . S
H122 C118 0.930 . S
H123 C120 0.929 . S
S124 N125 1.613 . S
S124 N126 1.610 . S
N125 S124 1.613 . S
N125 C128 1.350 . S
N126 S124 1.610 . S
N126 C127 1.351 . S
C127 C121 1.428 . S
C127 N126 1.351 . S
C127 C128 1.434 . S
C128 C119 1.429 . S
C128 N125 1.350 . S
C128 C127 1.434 . S
C129 C130 1.369 1_556 S
C129 C131 1.419 . S
C129 H133 0.930 . S
C130 C129 1.369 1_554 S
C130 C139 1.429 . S
C131 C129 1.419 . S
C131 C132 1.363 1_556 S
C131 H134 0.929 . S
C132 C131 1.363 1_554 S
C132 C138 1.428 . S
H133 C129 0.930 . S
H134 C131 0.929 . S
S135 N136 1.613 . S
S135 N137 1.610 . S
N136 S135 1.613 . S
N136 C139 1.350 . S
N137 S135 1.610 . S
N137 C138 1.351 . S
C138 C132 1.428 . S
C138 N137 1.351 . S
C138 C139 1.434 . S
C139 C130 1.429 . S
C139 N136 1.350 . S
C139 C138 1.434 . S
C140 C141 1.369 1_554 S
C140 C142 1.419 . S
C140 H144 0.930 . S
C141 C140 1.369 1_556 S
C141 C150 1.429 . S
C142 C140 1.419 . S
C142 C143 1.363 1_554 S
C142 H145 0.929 . S
C143 C142 1.363 1_556 S
C143 C149 1.428 . S
H144 C140 0.930 . S
H145 C142 0.929 . S
S146 N147 1.613 . S
S146 N148 1.610 . S
N147 S146 1.613 . S
N147 C150 1.350 . S
N148 S146 1.610 . S
N148 C149 1.351 . S
C149 C143 1.428 . S
C149 N148 1.351 . S
C149 C150 1.434 . S
C150 C141 1.429 . S
C150 N147 1.350 . S
C150 C149 1.434 . S
C151 C152 1.369 . S
C151 C153 1.419 . S
C151 H155 0.930 . S
C152 C151 1.369 . S
C152 C161 1.428 1_556 S
C153 C151 1.419 . S
C153 C154 1.363 . S
C153 H156 0.929 . S
C154 C153 1.363 . S
C154 C160 1.428 . S
H155 C151 0.930 . S
H156 C153 0.929 . S
S157 N158 1.613 . S
S157 N159 1.610 1_455 S
N158 S157 1.613 . S
N158 C161 1.351 1_455 S
N159 S157 1.610 1_655 S
N159 C160 1.351 1_554 S
C160 C154 1.428 . S
C160 N159 1.351 1_556 S
C160 C161 1.434 1_556 S
C161 C152 1.428 1_554 S
C161 N158 1.351 1_655 S
C161 C160 1.434 1_554 S
C162 C163 1.369 . S
C162 C164 1.419 . S
C162 H166 0.930 . S
C163 C162 1.369 . S
C163 C172 1.429 . S
C164 C162 1.419 . S
C164 C165 1.363 . S
C164 H167 0.929 . S
C165 C164 1.363 . S
C165 C171 1.428 . S
H166 C162 0.930 . S
H167 C164 0.929 . S
S168 N169 1.613 . S
S168 N170 1.610 . S
N169 S168 1.613 . S
N169 C172 1.350 . S
N170 S168 1.610 . S
N170 C171 1.351 . S
C171 C165 1.428 . S
C171 N170 1.351 . S
C171 C172 1.434 . S
C172 C163 1.429 . S
C172 N169 1.350 . S
C172 C171 1.434 . S
C173 C174 1.369 . S
C173 C175 1.419 . S
C173 H177 0.930 . S
C174 C173 1.369 . S
C174 C183 1.429 . S
C175 C173 1.419 . S
C175 C176 1.363 . S
C175 H178 0.929 . S
C176 C175 1.363 . S
C176 C182 1.428 . S
H177 C173 0.930 . S
H178 C175 0.929 . S
S179 N180 1.613 1_455 S
S179 N181 1.610 . S
N180 S179 1.613 1_655 S
N180 C183 1.350 . S
N181 S179 1.610 . S
N181 C182 1.351 1_455 S
C182 C176 1.428 . S
C182 N181 1.351 1_655 S
C182 C183 1.434 . S
C183 C174 1.429 . S
C183 N180 1.350 . S
C183 C182 1.434 . S
C184 C185 1.369 . S
C184 C186 1.419 . S
C184 H188 0.930 . S
C185 C184 1.369 . S
C185 C194 1.429 . S
C186 C184 1.419 . S
C186 C187 1.363 . S
C186 H189 0.929 . S
C187 C186 1.363 . S
C187 C193 1.428 . S
H188 C184 0.930 . S
H189 C186 0.929 . S
S190 N191 1.613 . S
S190 N192 1.610 . S
N191 S190 1.613 . S
N191 C194 1.350 . S
N192 S190 1.610 . S
N192 C193 1.351 . S
C193 C187 1.428 . S
C193 N192 1.351 . S
C193 C194 1.434 . S
C194 C185 1.429 . S
C194 N191 1.350 . S
C194 C193 1.434 . S
C195 C196 1.369 . S
C195 C197 1.419 . S
C195 H199 0.930 . S
C196 C195 1.369 . S
C196 C205 1.429 . S
C197 C195 1.419 . S
C197 C198 1.363 . S
C197 H200 0.929 . S
C198 C197 1.363 . S
C198 C204 1.428 . S
H199 C195 0.930 . S
H200 C197 0.929 . S
S201 N202 1.613 . S
S201 N203 1.610 . S
N202 S201 1.613 . S
N202 C205 1.350 . S
N203 S201 1.610 . S
N203 C204 1.351 . S
C204 C198 1.428 . S
C204 N203 1.351 . S
C204 C205 1.434 . S
C205 C196 1.429 . S
C205 N202 1.350 . S
C205 C204 1.434 . S
C206 C207 1.369 . S
C206 C208 1.419 . S
C206 H210 0.930 . S
C207 C206 1.369 . S
C207 C216 1.429 1_565 S
C208 C206 1.419 . S
C208 C209 1.363 . S
C208 H211 0.929 . S
C209 C208 1.363 . S
C209 C215 1.428 1_565 S
H210 C206 0.930 . S
H211 C208 0.929 . S
S212 N213 1.613 . S
S212 N214 1.610 1_655 S
N213 S212 1.613 . S
N213 C216 1.350 1_655 S
N214 S212 1.610 1_455 S
N214 C215 1.351 . S
C215 C209 1.428 1_545 S
C215 N214 1.351 . S
C215 C216 1.434 . S
C216 C207 1.429 1_545 S
C216 N213 1.350 1_455 S
C216 C215 1.434 . S
C217 C218 1.369 1_665 S
C217 C219 1.419 . S
C217 H221 0.930 . S
C218 C217 1.369 1_445 S
C218 C227 1.429 . S
C219 C217 1.419 . S
C219 C220 1.363 1_565 S
C219 H222 0.929 . S
C220 C219 1.363 1_545 S
C220 C226 1.428 1_655 S
H221 C217 0.930 . S
H222 C219 0.929 . S
S223 N224 1.613 . S
S223 N225 1.610 . S
N224 S223 1.613 . S
N224 C227 1.350 . S
N225 S223 1.610 . S
N225 C226 1.351 . S
C226 C220 1.428 1_455 S
C226 N225 1.351 . S
C226 C227 1.434 . S
C227 C218 1.429 . S
C227 N224 1.350 . S
C227 C226 1.434 . S
C228 C229 1.369 . S
C228 C230 1.419 . S
C228 H232 0.930 . S
C229 C228 1.369 . S
C229 C238 1.429 . S
C230 C228 1.419 . S
C230 C231 1.363 . S
C230 H233 0.929 . S
C231 C230 1.363 . S
C231 C237 1.428 . S
H232 C228 0.930 . S
H233 C230 0.929 . S
S234 N235 1.613 . S
S234 N236 1.610 . S
N235 S234 1.613 . S
N235 C238 1.350 . S
N236 S234 1.610 . S
N236 C237 1.351 . S
C237 C231 1.428 . S
C237 N236 1.351 . S
C237 C238 1.434 . S
C238 C229 1.429 . S
C238 N235 1.350 . S
C238 C237 1.434 . S
C239 C240 1.369 . S
C239 C241 1.419 . S
C239 H243 0.930 . S
C240 C239 1.369 . S
C240 C249 1.429 . S
C241 C239 1.419 . S
C241 C242 1.363 . S
C241 H244 0.929 . S
C242 C241 1.363 . S
C242 C248 1.428 . S
H243 C239 0.930 . S
H244 C241 0.929 . S
S245 N246 1.613 . S
S245 N247 1.610 . S
N246 S245 1.613 . S
N246 C249 1.350 . S
N247 S245 1.610 . S
N247 C248 1.351 . S
C248 C242 1.428 . S
C248 N247 1.351 . S
C248 C249 1.434 . S
C249 C240 1.429 . S
C249 N246 1.350 . S
C249 C248 1.434 . S
C121 C105 1.530 . S
C119 C15 1.447 . S
C130 C13 1.472 . S
C132 C91 1.474 . S
C141 C18 1.268 . S
C143 C110 1.505 . S
C152 C17 1.507 . S
C154 C86 1.526 . S
C163 C36 1.446 . S
C165 C67 1.531 . S
C174 C34 1.473 . S
C176 C53 1.474 . S
C187 C72 1.508 . S
C185 C39 1.279 . S
C198 C48 1.524 . S
C196 C38 1.500 . S
C207 C14 1.630 1_565 S
C209 C44 1.668 . S
C218 C16 1.420 . S
C220 C63 1.446 . S
C231 C82 1.668 . S
C229 C35 1.629 . S
C240 C37 1.423 . S
C242 C101 1.446 . S
