# Generated by pormake.
# Topology tsx, (6,3)-cn, num edge types: 1
# Building blocks:
#     Node 0, Type 0, BuildingBlock: LEVNOQ01_clean_sbu_1, # of connection points: 6
#     Node 1, Type 0, BuildingBlock: LEVNOQ01_clean_sbu_1, # of connection points: 6
#     Node 2, Type 1, BuildingBlock: BETDAH_clean_linker_0, # of connection points: 3
#     Node 3, Type 1, BuildingBlock: BETDAH_clean_linker_0, # of connection points: 3
#     Node 4, Type 1, BuildingBlock: BETDAH_clean_linker_0, # of connection points: 3
#     Node 5, Type 1, BuildingBlock: BETDAH_clean_linker_0, # of connection points: 3
#     Edge 6, Type (0, 1), BuildingBlock: EYOCIG_clean_linker_4, # of connection points: 2
#     Edge 7, Type (0, 1), BuildingBlock: EYOCIG_clean_linker_4, # of connection points: 2
#     Edge 8, Type (0, 1), BuildingBlock: EYOCIG_clean_linker_4, # of connection points: 2
#     Edge 9, Type (0, 1), BuildingBlock: EYOCIG_clean_linker_4, # of connection points: 2
#     Edge 10, Type (0, 1), BuildingBlock: EYOCIG_clean_linker_4, # of connection points: 2
#     Edge 11, Type (0, 1), BuildingBlock: EYOCIG_clean_linker_4, # of connection points: 2
#     Edge 12, Type (0, 1), BuildingBlock: EYOCIG_clean_linker_4, # of connection points: 2
#     Edge 13, Type (0, 1), BuildingBlock: EYOCIG_clean_linker_4, # of connection points: 2
#     Edge 14, Type (0, 1), BuildingBlock: EYOCIG_clean_linker_4, # of connection points: 2
#     Edge 15, Type (0, 1), BuildingBlock: EYOCIG_clean_linker_4, # of connection points: 2
#     Edge 16, Type (0, 1), BuildingBlock: EYOCIG_clean_linker_4, # of connection points: 2
#     Edge 17, Type (0, 1), BuildingBlock: EYOCIG_clean_linker_4, # of connection points: 2
# Relax obj value: 0.097
# Max RMSD: 0.143
# Mean RMSD: 0.107
data_MOF--net-tsx--node1-LEVNOQ01_clean_sbu_1--node2-BETDAH_clean_linker_0--edge1-EYOCIG_clean_linker_4
_symmetry_space_group_name_H-M    P1
_symmetry_Int_Tables_number       1
_symmetry_cell_setting            triclinic
loop_
_symmetry_equiv_pos_as_xyz
'x, y, z'
_cell_length_a     14.431522
_cell_length_b     18.184313
_cell_length_c     28.228042
_cell_angle_alpha  96.05398
_cell_angle_beta   103.58313
_cell_angle_gamma 91.229283
loop_
_atom_site_label
_atom_site_type_symbol
_atom_site_fract_x
_atom_site_fract_y
_atom_site_fract_z
_atom_type_partial_charge
O0 O 0.22416 -0.00054 0.09919 0.0
Mg1 Mg 0.28912 0.01687 0.04071 0.0
O2 O 0.07133 -0.00414 0.05773 0.0
Mg3 Mg 0.06851 0.01334 -0.02357 0.0
O4 O 0.20243 0.08782 0.00217 0.0
O5 O 0.35248 0.12055 0.03907 0.0
O6 O 0.07371 0.03298 0.89652 0.0
O7 O 0.98175 0.11978 -0.01624 0.0
Mg8 Mg 0.86062 -0.00933 0.89633 0.0
O9 O 0.93337 0.93956 0.95321 0.0
O10 O 0.94048 -0.00956 0.84221 0.0
O11 O 0.84222 0.09859 0.92835 0.0
O12 O 0.79037 0.89652 0.9109 0.0
C13 C 0.23425 0.88308 0.96814 0.0
C14 C 0.13549 -0.00672 0.0974 0.0
C15 C 0.27063 0.13817 0.01452 0.0
C16 C 0.0251 0.01823 0.85237 0.0
C17 C 0.89966 0.14008 0.9621 0.0
C18 C 0.86295 0.89178 0.94683 0.0
O19 O 0.30583 0.92237 -0.00653 0.0
O20 O 0.14942 0.90514 0.96304 0.0
O21 O 0.72499 0.50003 0.59948 0.0
Mg22 Mg 0.78995 0.51725 0.54097 0.0
O23 O 0.57212 0.49629 0.55805 0.0
Mg24 Mg 0.56918 0.51353 0.47667 0.0
O25 O 0.70309 0.58796 0.50232 0.0
O26 O 0.85307 0.62099 0.53915 0.0
O27 O 0.57436 0.53292 0.39668 0.0
O28 O 0.48257 0.62004 0.48394 0.0
Mg29 Mg 0.3614 0.49091 0.39666 0.0
O30 O 0.43395 0.43973 0.45357 0.0
O31 O 0.44105 0.49036 0.34245 0.0
O32 O 0.34303 0.5989 0.42855 0.0
O33 O 0.29085 0.39694 0.41118 0.0
C34 C 0.73496 0.38334 0.46845 0.0
C35 C 0.63634 0.49385 0.59772 0.0
C36 C 0.77113 0.63843 0.5146 0.0
C37 C 0.52571 0.51806 0.35254 0.0
C38 C 0.40052 0.6404 0.46227 0.0
C39 C 0.36336 0.39206 0.44713 0.0
O40 O 0.80651 0.42269 0.49376 0.0
O41 O 0.65008 0.40531 0.46336 0.0
H42 H 0.21579 0.90482 0.3407 0.0
H43 H 0.95646 0.02309 0.31812 0.0
H44 H 0.05383 0.92159 0.45074 0.0
C45 C 0.15619 0.92663 0.35415 0.0
C46 C 0.14497 0.9119 0.4003 0.0
C47 C 0.08774 0.96612 0.32431 0.0
C48 C 0.01021 -0.00639 0.34147 0.0
C49 C 0.99791 0.97791 0.38723 0.0
C50 C 0.06487 0.93623 0.41621 0.0
N51 N 0.91379 -0.00343 0.40237 0.0
C52 C 0.87676 0.06641 0.40104 0.0
H53 H 0.93732 0.95875 0.6371 0.0
H54 H 0.14394 0.11578 0.61198 0.0
H55 H 0.9514 -0.01328 0.49072 0.0
C56 C 0.96793 -0.01288 0.61198 0.0
C57 C 0.93536 0.96768 0.56153 0.0
C58 C 0.04278 0.04068 0.63023 0.0
C59 C 0.08512 0.07534 0.59773 0.0
C60 C 0.05161 0.05588 0.54675 0.0
C61 C 0.9762 0.00292 0.52943 0.0
N62 N 0.09313 0.08536 0.51149 0.0
C63 C 0.1688 0.13765 0.52126 0.0
H64 H 0.71532 0.40524 0.84088 0.0
H65 H 0.45571 0.52316 0.81818 0.0
H66 H 0.55218 0.42055 0.95041 0.0
C67 C 0.65552 0.42681 0.85426 0.0
C68 C 0.64395 0.41164 0.90026 0.0
C69 C 0.58716 0.4664 0.82444 0.0
C70 C 0.50938 0.49359 0.8415 0.0
C71 C 0.49668 0.47739 0.88709 0.0
C72 C 0.56354 0.43559 0.91603 0.0
N73 N 0.41223 0.49562 0.90202 0.0
C74 C 0.37553 0.5656 0.90123 0.0
H75 H 0.43781 0.45791 0.13695 0.0
H76 H 0.64409 0.61541 0.11204 0.0
H77 H 0.45107 0.48708 -0.00938 0.0
C78 C 0.46829 0.48649 0.11188 0.0
C79 C 0.4355 0.46738 0.06141 0.0
C80 C 0.54311 0.54005 0.1302 0.0
C81 C 0.58528 0.57498 0.09774 0.0
C82 C 0.55155 0.55585 0.04674 0.0
C83 C 0.47608 0.50295 0.02935 0.0
N84 N 0.59283 0.58563 0.0115 0.0
C85 C 0.6687 0.63774 0.02131 0.0
C86 C 0.27092 0.28064 0.01208 0.0
C87 C 0.25577 0.21466 0.00858 0.0
C88 C 0.31482 0.35217 0.02627 0.0
C89 C 0.36978 0.40463 0.04242 0.0
C90 C 0.274 0.75304 0.92851 0.0
C91 C 0.25049 0.81152 0.94541 0.0
C92 C 0.30916 0.68465 0.91349 0.0
C93 C 0.34221 0.62558 0.90528 0.0
C94 C 0.83373 0.78826 0.00023 0.0
C95 C 0.85904 0.83753 -0.02008 0.0
C96 C 0.79395 0.73943 0.0149 0.0
C97 C 0.73116 0.68381 0.02295 0.0
C98 C 0.82932 0.27065 0.96772 0.0
C99 C 0.87256 0.21471 -0.02897 0.0
C100 C 0.76747 0.32643 0.95084 0.0
C101 C 0.70965 0.36541 0.92898 0.0
C102 C 0.77095 0.78088 0.51219 0.0
C103 C 0.75597 0.71488 0.50866 0.0
C104 C 0.81473 0.85244 0.52645 0.0
C105 C 0.86966 0.9049 0.54263 0.0
C106 C 0.77522 0.25347 0.42885 0.0
C107 C 0.75133 0.31183 0.4457 0.0
C108 C 0.80444 0.19523 0.41523 0.0
C109 C 0.84317 0.12634 0.40466 0.0
C110 C 0.33377 0.28842 0.50036 0.0
C111 C 0.35925 0.33772 0.48014 0.0
C112 C 0.29389 0.23954 0.51494 0.0
C113 C 0.23113 0.18384 0.52291 0.0
C114 C 0.3304 0.77104 0.46782 0.0
C115 C 0.37355 0.71507 0.47116 0.0
C116 C 0.26858 0.82682 0.45092 0.0
C117 C 0.21071 0.86576 0.42906 0.0
C118 C 0.09818 0.98221 0.18338 0.0
C119 C 0.10857 -0.01304 0.14265 0.0
C120 C 0.09426 0.97778 0.23251 0.0
C121 C 0.09169 0.97228 0.27438 0.0
C122 C 0.08371 0.04914 0.7749 0.0
C123 C 0.064 0.03715 0.81265 0.0
C124 C 0.08857 0.05767 0.72643 0.0
C125 C 0.07626 0.05617 0.68261 0.0
C126 C 0.59901 0.48296 0.68374 0.0
C127 C 0.60949 0.48763 0.64301 0.0
C128 C 0.59459 0.47852 0.7328 0.0
C129 C 0.59148 0.47287 0.77458 0.0
C130 C 0.58423 0.54848 0.27494 0.0
C131 C 0.56459 0.53673 0.31275 0.0
C132 C 0.58898 0.55685 0.22642 0.0
C133 C 0.57659 0.55541 0.1826 0.0
loop_
_geom_bond_atom_site_label_1
_geom_bond_atom_site_label_2
_geom_bond_distance
_geom_bond_site_symmetry_2
_ccdc_geom_bond_type
O0 Mg1 1.990 . S
O0 C14 1.253 . S
Mg1 O0 1.990 . S
Mg1 O4 2.180 . S
Mg1 O5 2.117 . S
Mg1 O19 2.030 1_545 S
O2 Mg3 2.072 1_554 S
O2 C14 1.260 . S
Mg3 O2 2.072 1_556 S
Mg3 O4 2.099 1_556 S
Mg3 O6 2.079 . S
Mg3 O7 2.072 1_456 S
Mg3 O9 2.099 1_445 S
Mg3 O20 2.079 1_545 S
O4 Mg1 2.180 . S
O4 Mg3 2.099 1_554 S
O4 C15 1.279 . S
O5 Mg1 2.117 . S
O5 C15 1.250 . S
O6 Mg3 2.079 . S
O6 C16 1.264 . S
O7 Mg3 2.072 1_654 S
O7 C17 1.260 1_554 S
Mg8 O9 2.180 . S
Mg8 O10 2.030 1_565 S
Mg8 O11 1.990 1_565 S
Mg8 O12 2.117 . S
O9 Mg3 2.099 1_665 S
O9 Mg8 2.180 . S
O9 C18 1.279 . S
O10 Mg8 2.030 1_545 S
O10 C16 1.248 1_655 S
O11 Mg8 1.990 1_545 S
O11 C17 1.253 . S
O12 Mg8 2.117 . S
O12 C18 1.250 . S
C13 O19 1.248 . S
C13 O20 1.264 1_554 S
C14 O0 1.253 . S
C14 O2 1.260 . S
C15 O4 1.279 . S
C15 O5 1.250 . S
C16 O6 1.264 . S
C16 O10 1.248 1_455 S
C17 O7 1.260 1_556 S
C17 O11 1.253 . S
C18 O9 1.279 . S
C18 O12 1.250 . S
O19 Mg1 2.030 1_565 S
O19 C13 1.248 . S
O20 Mg3 2.079 1_565 S
O20 C13 1.264 1_556 S
O21 Mg22 1.990 . S
O21 C35 1.253 . S
Mg22 O21 1.990 . S
Mg22 O25 2.180 . S
Mg22 O26 2.117 . S
Mg22 O40 2.030 . S
O23 Mg24 2.072 . S
O23 C35 1.260 . S
Mg24 O23 2.072 . S
Mg24 O25 2.099 . S
Mg24 O27 2.079 . S
Mg24 O28 2.072 . S
Mg24 O30 2.099 . S
Mg24 O41 2.079 . S
O25 Mg22 2.180 . S
O25 Mg24 2.099 . S
O25 C36 1.279 . S
O26 Mg22 2.117 . S
O26 C36 1.250 . S
O27 Mg24 2.079 . S
O27 C37 1.264 . S
O28 Mg24 2.072 . S
O28 C38 1.260 . S
Mg29 O30 2.180 . S
Mg29 O31 2.030 . S
Mg29 O32 1.990 . S
Mg29 O33 2.117 . S
O30 Mg24 2.099 . S
O30 Mg29 2.180 . S
O30 C39 1.279 . S
O31 Mg29 2.030 . S
O31 C37 1.248 . S
O32 Mg29 1.990 . S
O32 C38 1.253 . S
O33 Mg29 2.117 . S
O33 C39 1.250 . S
C34 O40 1.248 . S
C34 O41 1.264 . S
C35 O21 1.253 . S
C35 O23 1.260 . S
C36 O25 1.279 . S
C36 O26 1.250 . S
C37 O27 1.264 . S
C37 O31 1.248 . S
C38 O28 1.260 . S
C38 O32 1.253 . S
C39 O30 1.279 . S
C39 O33 1.250 . S
O40 Mg22 2.030 . S
O40 C34 1.248 . S
O41 Mg24 2.079 . S
O41 C34 1.264 . S
H42 C45 0.929 . S
H43 C48 0.929 . S
H44 C50 0.930 . S
C45 H42 0.929 . S
C45 C46 1.398 . S
C45 C47 1.396 . S
C46 C45 1.398 . S
C46 C50 1.407 . S
C47 C45 1.396 . S
C47 C48 1.394 1_565 S
C48 H43 0.929 . S
C48 C47 1.394 1_545 S
C48 C49 1.382 . S
C49 C48 1.382 . S
C49 C50 1.392 1_545 S
C49 N51 1.420 1_455 S
C50 H44 0.930 . S
C50 C46 1.407 . S
C50 C49 1.392 1_565 S
N51 C49 1.420 1_655 S
N51 C52 1.244 . S
C52 N51 1.244 . S
H53 C56 0.929 . S
H54 C59 0.929 . S
H55 C61 0.930 1_565 S
C56 H53 0.929 . S
C56 C57 1.398 . S
C56 C58 1.396 1_565 S
C57 C56 1.398 . S
C57 C61 1.407 1_565 S
C58 C56 1.396 1_545 S
C58 C59 1.394 1_655 S
C59 H54 0.929 . S
C59 C58 1.394 1_455 S
C59 C60 1.382 . S
C60 C59 1.382 . S
C60 C61 1.392 1_455 S
C60 N62 1.420 . S
C61 H55 0.930 1_545 S
C61 C57 1.407 1_545 S
C61 C60 1.392 1_655 S
N62 C60 1.420 . S
N62 C63 1.244 . S
C63 N62 1.244 . S
H64 C67 0.929 . S
H65 C70 0.929 . S
H66 C72 0.930 1_554 S
C67 H64 0.929 . S
C67 C68 1.398 . S
C67 C69 1.396 . S
C68 C67 1.398 . S
C68 C72 1.407 . S
C69 C67 1.396 . S
C69 C70 1.394 . S
C70 H65 0.929 . S
C70 C69 1.394 . S
C70 C71 1.382 . S
C71 C70 1.382 . S
C71 C72 1.392 . S
C71 N73 1.420 . S
C72 H66 0.930 1_556 S
C72 C68 1.407 . S
C72 C71 1.392 . S
N73 C71 1.420 . S
N73 C74 1.244 . S
C74 N73 1.244 . S
H75 C78 0.929 . S
H76 C81 0.929 . S
H77 C83 0.930 1_556 S
C78 H75 0.929 . S
C78 C79 1.398 . S
C78 C80 1.396 . S
C79 C78 1.398 . S
C79 C83 1.407 . S
C80 C78 1.396 . S
C80 C81 1.394 . S
C81 H76 0.929 . S
C81 C80 1.394 . S
C81 C82 1.382 . S
C82 C81 1.382 . S
C82 C83 1.392 . S
C82 N84 1.420 . S
C83 H77 0.930 1_554 S
C83 C79 1.407 . S
C83 C82 1.392 . S
N84 C82 1.420 . S
N84 C85 1.244 . S
C85 N84 1.244 . S
C86 C87 1.170 . S
C86 C88 1.380 . S
C87 C86 1.170 . S
C88 C86 1.380 . S
C88 C89 1.170 . S
C89 C88 1.170 . S
C90 C91 1.170 . S
C90 C92 1.380 . S
C91 C90 1.170 . S
C92 C90 1.380 . S
C92 C93 1.171 . S
C93 C92 1.171 . S
C94 C95 1.170 . S
C94 C96 1.380 . S
C95 C94 1.170 . S
C96 C94 1.380 . S
C96 C97 1.170 . S
C97 C96 1.170 . S
C98 C99 1.170 . S
C98 C100 1.380 . S
C99 C98 1.170 . S
C100 C98 1.380 . S
C100 C101 1.170 . S
C101 C100 1.170 . S
C102 C103 1.170 . S
C102 C104 1.380 . S
C103 C102 1.170 . S
C104 C102 1.380 . S
C104 C105 1.170 . S
C105 C104 1.170 . S
C106 C107 1.170 . S
C106 C108 1.380 . S
C107 C106 1.170 . S
C108 C106 1.380 . S
C108 C109 1.170 . S
C109 C108 1.170 . S
C110 C111 1.170 . S
C110 C112 1.380 . S
C111 C110 1.170 . S
C112 C110 1.380 . S
C112 C113 1.170 . S
C113 C112 1.170 . S
C114 C115 1.170 . S
C114 C116 1.380 . S
C115 C114 1.170 . S
C116 C114 1.380 . S
C116 C117 1.170 . S
C117 C116 1.170 . S
C118 C119 1.170 . S
C118 C120 1.380 . S
C119 C118 1.170 . S
C120 C118 1.380 . S
C120 C121 1.170 . S
C121 C120 1.170 . S
C122 C123 1.170 . S
C122 C124 1.380 . S
C123 C122 1.170 . S
C124 C122 1.380 . S
C124 C125 1.170 . S
C125 C124 1.170 . S
C126 C127 1.170 . S
C126 C128 1.380 . S
C127 C126 1.170 . S
C128 C126 1.380 . S
C128 C129 1.170 . S
C129 C128 1.170 . S
C130 C131 1.170 . S
C130 C132 1.380 . S
C131 C130 1.170 . S
C132 C130 1.380 . S
C132 C133 1.170 . S
C133 C132 1.170 . S
C89 C79 1.456 . S
C87 C15 1.327 . S
C91 C13 1.472 . S
C93 C74 1.443 1_554 S
C95 C18 1.302 1_554 S
C97 C85 1.461 . S
C99 C17 1.452 . S
C101 C68 1.479 . S
C103 C36 1.325 . S
C105 C57 1.454 . S
C107 C34 1.466 . S
C109 C52 1.425 . S
C113 C63 1.469 . S
C111 C39 1.262 . S
C117 C46 1.466 . S
C115 C38 1.443 . S
C119 C14 1.582 1_565 S
C121 C47 1.611 . S
C123 C16 1.403 . S
C125 C58 1.421 1_455 S
C129 C69 1.613 . S
C127 C35 1.578 . S
C131 C37 1.405 . S
C133 C80 1.422 . S
