# Generated by pormake.
# Topology tsx, (6,3)-cn, num edge types: 1
# Building blocks:
#     Node 0, Type 0, BuildingBlock: JUFBIX_clean_sbu_0, # of connection points: 6
#     Node 1, Type 0, BuildingBlock: JUFBIX_clean_sbu_0, # of connection points: 6
#     Node 2, Type 1, BuildingBlock: BETDAH_clean_linker_0, # of connection points: 3
#     Node 3, Type 1, BuildingBlock: BETDAH_clean_linker_0, # of connection points: 3
#     Node 4, Type 1, BuildingBlock: BETDAH_clean_linker_0, # of connection points: 3
#     Node 5, Type 1, BuildingBlock: BETDAH_clean_linker_0, # of connection points: 3
#     Edge 6, Type (0, 1), BuildingBlock: AJUNOK_clean_linker_0, # of connection points: 2
#     Edge 7, Type (0, 1), BuildingBlock: AJUNOK_clean_linker_0, # of connection points: 2
#     Edge 8, Type (0, 1), BuildingBlock: AJUNOK_clean_linker_0, # of connection points: 2
#     Edge 9, Type (0, 1), BuildingBlock: AJUNOK_clean_linker_0, # of connection points: 2
#     Edge 10, Type (0, 1), BuildingBlock: AJUNOK_clean_linker_0, # of connection points: 2
#     Edge 11, Type (0, 1), BuildingBlock: AJUNOK_clean_linker_0, # of connection points: 2
#     Edge 12, Type (0, 1), BuildingBlock: AJUNOK_clean_linker_0, # of connection points: 2
#     Edge 13, Type (0, 1), BuildingBlock: AJUNOK_clean_linker_0, # of connection points: 2
#     Edge 14, Type (0, 1), BuildingBlock: AJUNOK_clean_linker_0, # of connection points: 2
#     Edge 15, Type (0, 1), BuildingBlock: AJUNOK_clean_linker_0, # of connection points: 2
#     Edge 16, Type (0, 1), BuildingBlock: AJUNOK_clean_linker_0, # of connection points: 2
#     Edge 17, Type (0, 1), BuildingBlock: AJUNOK_clean_linker_0, # of connection points: 2
# Relax obj value: 0.101
# Max RMSD: 0.131
# Mean RMSD: 0.115
data_MOF--net-tsx--node1-JUFBIX_clean_sbu_0--node2-BETDAH_clean_linker_0--edge1-AJUNOK_clean_linker_0
_symmetry_space_group_name_H-M    P1
_symmetry_Int_Tables_number       1
_symmetry_cell_setting            triclinic
loop_
_symmetry_equiv_pos_as_xyz
'x, y, z'
_cell_length_a     14.971272
_cell_length_b     17.850515
_cell_length_c     24.378848
_cell_angle_alpha  92.495977
_cell_angle_beta   97.853673
_cell_angle_gamma 102.72052
loop_
_atom_site_label
_atom_site_type_symbol
_atom_site_fract_x
_atom_site_fract_y
_atom_site_fract_z
_atom_type_partial_charge
Co0 Co 0.06701 0.96826 0.97326 0.0
C1 C 0.96044 0.99829 0.87659 0.0
Co2 Co 0.95992 0.03345 -0.01437 0.0
C3 C 0.19531 0.85893 0.96959 0.0
C4 C 0.21151 0.95015 0.91528 0.0
N5 N 0.16114 0.92082 0.95457 0.0
N6 N 0.26555 0.85033 0.94153 0.0
C7 C 0.27437 0.90739 0.9071 0.0
H8 H 0.16935 0.82108 0.00019 0.0
H9 H 0.20203 0.99937 0.89275 0.0
C10 C 0.06567 1.00382 0.08242 0.0
N11 N 0.87181 0.0867 -0.00057 0.0
C12 C 0.85267 0.14438 0.96947 0.0
C13 C 0.82304 0.08635 0.04211 0.0
N14 N 0.79528 0.18082 -0.00822 0.0
C15 C 0.77591 0.14479 0.0376 0.0
C16 C 0.89978 0.87382 -0.01451 0.0
O17 O 0.10563 0.96818 0.05038 0.0
O18 O 1.00221 0.03623 0.06245 0.0
O19 O 0.87727 0.93833 -0.01026 0.0
O20 O 0.98095 0.87189 0.97539 0.0
O21 O 0.9189 0.03098 0.90876 0.0
H22 H 0.82444 0.04818 0.07532 0.0
H23 H 0.88431 0.16227 0.93336 0.0
O24 O 1.02569 0.96826 0.89655 0.0
O25 O 0.15121 0.06677 0.97336 0.0
O26 O 0.0422 0.1275 -0.01739 0.0
C27 C 0.12582 0.12976 0.97835 0.0
H28 H 0.3209 0.91621 0.87648 0.0
H29 H 0.73224 0.16034 0.06603 0.0
Co30 Co 0.60861 0.49225 0.47957 0.0
C31 C 0.49198 0.51332 0.38439 0.0
Co32 Co 0.50118 0.55605 0.49345 0.0
C33 C 0.73632 0.38375 0.4756 0.0
C34 C 0.75019 0.47274 0.41928 0.0
N35 N 0.70166 0.44502 0.45979 0.0
N36 N 0.80534 0.37423 0.44698 0.0
C37 C 0.81318 0.42991 0.41146 0.0
H38 H 0.71203 0.34734 0.50738 0.0
H39 H 0.73965 0.52102 0.39594 0.0
C40 C 0.61811 0.53639 0.58885 0.0
N41 N 0.41241 0.60792 0.5089 0.0
C42 C 0.38099 0.65839 0.47619 0.0
C43 C 0.37328 0.6121 0.55537 0.0
N44 N 0.32456 0.69395 0.50024 0.0
C45 C 0.31954 0.66591 0.55029 0.0
C46 C 0.44633 0.39588 0.49884 0.0
O47 O 0.65476 0.49819 0.55646 0.0
O48 O 0.55179 0.56593 0.56936 0.0
O49 O 0.42228 0.45981 0.50352 0.0
O50 O 0.5266 0.39553 0.48661 0.0
O51 O 0.45204 0.54649 0.41731 0.0
H52 H 0.38555 0.58022 0.59129 0.0
H53 H 0.40248 0.67176 0.43642 0.0
O54 O 0.56046 0.48636 0.40336 0.0
O55 O 0.68903 0.59087 0.47416 0.0
O56 O 0.57974 0.65113 0.48412 0.0
C57 C 0.66254 0.65358 0.47704 0.0
H58 H 0.86005 0.43806 0.38098 0.0
H59 H 0.28119 0.68392 0.58101 0.0
H60 H 0.20224 0.91183 0.31917 0.0
H61 H 0.05119 0.08898 0.33855 0.0
H62 H 0.16857 0.99044 0.48077 0.0
C63 C 0.17354 0.94813 0.34537 0.0
C64 C 0.18538 0.94165 0.40264 0.0
C65 C 0.12398 1.0 0.32157 0.0
C66 C 0.09055 0.04949 0.35639 0.0
C67 C 0.10733 0.04646 0.41435 0.0
C68 C 0.15637 0.9937 0.43656 0.0
N69 N 0.07393 0.09244 0.45229 0.0
C70 C 1.01715 0.14339 0.44011 0.0
H71 H 0.82189 0.93187 0.61167 0.0
H72 H 0.08996 0.08142 0.66289 0.0
H73 H 1.02627 0.95621 0.50316 0.0
C74 C 0.88815 0.9616 0.6013 0.0
C75 C 0.91497 0.94115 0.55098 0.0
C76 C 0.95145 1.01044 0.64221 0.0
C77 C 0.03907 0.04671 0.63041 0.0
C78 C 0.06618 0.02904 0.57963 0.0
C79 C 1.00417 0.97521 0.54049 0.0
N80 N 0.16131 0.04898 0.57417 0.0
C81 C 0.20654 0.12086 0.5604 0.0
H82 H 0.75304 0.45186 0.83293 0.0
H83 H 0.54514 0.58604 0.83413 0.0
H84 H 0.60167 0.44862 0.96824 0.0
C85 C 0.70281 0.47324 0.8535 0.0
C86 C 0.68447 0.44655 0.9047 0.0
C87 C 0.65162 0.5221 0.82665 0.0
C88 C 0.58737 0.55043 0.85461 0.0
C89 C 0.57155 0.52606 0.90726 0.0
C90 C 0.61875 0.47298 0.93058 0.0
N91 N 0.50256 0.54621 0.93595 0.0
C92 C 0.46174 0.60861 0.92831 0.0
H93 H 0.30781 0.40973 0.13034 0.0
H94 H 0.57258 0.57019 0.15328 0.0
H95 H 0.47524 0.42798 0.00122 0.0
C96 C 0.36767 0.43982 0.11315 0.0
C97 C 0.38217 0.41546 0.06044 0.0
C98 C 0.43584 0.49594 0.14666 0.0
C99 C 0.51679 0.53106 0.1261 0.0
C100 C 0.53165 0.50687 0.07344 0.0
C101 C 0.46364 0.4497 0.04085 0.0
N102 N 0.6217 0.52473 0.05897 0.0
C103 C 0.66546 0.59719 0.04606 0.0
C104 C 0.16211 0.27196 -0.00073 0.0
C105 C 0.19365 0.20479 -0.01193 0.0
C106 C 0.22391 0.34104 0.02035 0.0
C107 C 0.31951 0.34588 0.03025 0.0
H108 H 0.08871 0.27046 -0.00551 0.0
H109 H 0.19656 0.39034 0.03077 0.0
S110 S 0.43905 0.18983 0.00238 0.0
N111 N 0.3279 0.14977 -0.01606 0.0
N112 N 0.44411 0.27987 0.02385 0.0
C113 C 0.35271 0.28089 0.01587 0.0
C114 C 0.28973 0.21029 -0.00545 0.0
C115 C 0.27327 0.71326 0.94634 0.0
C116 C 0.31748 0.79076 0.943 0.0
C117 C 0.32054 0.65396 0.9406 0.0
C118 C 0.4133 0.67024 0.93123 0.0
H119 H 0.20107 0.69825 0.95175 0.0
H120 H 0.28412 0.59494 0.9433 0.0
S121 S 0.5632 0.86302 0.92394 0.0
N122 N 0.46233 0.88023 0.93379 0.0
N123 N 0.54931 0.7685 0.92199 0.0
C124 C 0.45912 0.74707 0.92938 0.0
C125 C 0.41161 0.80743 0.9355 0.0
C126 C 0.85023 0.72985 -0.01551 0.0
C127 C 0.83437 0.80299 -0.00251 0.0
C128 C 0.7933 0.66274 -0.00044 0.0
C129 C 0.71934 0.66668 0.02845 0.0
H130 H 0.90761 0.72438 0.96314 0.0
H131 H 0.8082 0.60751 -0.0107 0.0
S132 S 0.64646 0.84192 0.07229 0.0
N133 N 0.73689 0.87399 0.04086 0.0
N134 N 0.631 0.74726 0.06871 0.0
C135 C 0.70118 0.73839 0.04089 0.0
C136 C 0.75852 0.80681 0.0255 0.0
C137 C 0.73794 0.24947 0.91439 0.0
C138 C 0.76765 0.24773 0.97143 0.0
C139 C 0.71474 0.31519 0.89278 0.0
C140 C 0.72182 0.382 0.92742 0.0
H141 H 0.73131 0.199 0.88648 0.0
H142 H 0.68846 0.31281 0.84892 0.0
S143 S 0.80685 0.40941 0.07885 0.0
N144 N 0.80908 0.31937 0.0616 0.0
N145 N 0.76808 0.44421 0.02093 0.0
C146 C 0.7547 0.38175 -0.01566 0.0
C147 C 0.77687 0.31428 0.0064 0.0
C148 C 0.69777 0.79729 0.48691 0.0
C149 C 0.72953 0.7292 0.48065 0.0
C150 C 0.75952 0.86796 0.50431 0.0
C151 C 0.8554 0.87342 0.51611 0.0
H152 H 0.62426 0.79541 0.48191 0.0
H153 H 0.73155 0.91774 0.51238 0.0
S154 S 0.97557 0.71537 0.49593 0.0
N155 N 0.86442 0.67418 0.47912 0.0
N156 N 0.9803 0.80681 0.51302 0.0
C157 C 0.88884 0.80753 0.50449 0.0
C158 C 0.82587 0.73541 0.48648 0.0
C159 C 0.81665 0.23778 0.44854 0.0
C160 C 0.8595 0.31653 0.45014 0.0
C161 C 0.86792 0.18094 0.44383 0.0
C162 C 0.96319 0.20139 0.44044 0.0
H163 H 0.74288 0.22018 0.44935 0.0
H164 H 0.83291 0.12081 0.44289 0.0
S165 S 0.10939 0.39895 0.44833 0.0
N166 N 1.00416 0.41144 0.45192 0.0
N167 N 0.09938 0.30481 0.44271 0.0
C168 C 1.00708 0.27953 0.44359 0.0
C169 C 0.95545 0.33711 0.44849 0.0
C170 C 0.30532 0.32824 0.53746 0.0
C171 C 0.38269 0.32381 0.51112 0.0
C172 C 0.24712 0.26194 0.55294 0.0
C173 C 0.264 0.18893 0.54244 0.0
H174 H 0.29036 0.38354 0.54728 0.0
H175 H 0.18929 0.268 0.57372 0.0
S176 S 0.45136 0.1436 0.47149 0.0
N177 N 0.46905 0.2384 0.47305 0.0
N178 N 0.35929 0.11441 0.50211 0.0
C179 C 0.33884 0.18295 0.51497 0.0
C180 C 0.39838 0.25024 0.49933 0.0
C181 C 0.31556 0.82975 0.50208 0.0
C182 C 0.28541 0.7542 0.4777 0.0
C183 C 0.28445 0.89049 0.47706 0.0
C184 C 0.22144 0.87728 0.42714 0.0
H185 H 0.36526 0.84195 0.53985 0.0
H186 H 0.31062 0.94821 0.49669 0.0
S187 S 0.11685 0.6869 0.35028 0.0
N188 N 0.18823 0.66798 0.40296 0.0
N189 N 0.12545 0.78079 0.35687 0.0
C190 C 0.18935 0.80099 0.40338 0.0
C191 C 0.22238 0.73977 0.42847 0.0
C192 C 0.10945 0.0712 0.17677 0.0
C193 C 0.08546 1.00217 0.14269 0.0
C194 C 0.1209 0.07032 0.23477 0.0
C195 C 0.10643 1.00029 0.26023 0.0
H196 H 0.11984 0.1261 0.15843 0.0
H197 H 0.14218 0.12467 0.25976 0.0
S198 S 0.02908 0.80426 0.18772 0.0
N199 N 0.04108 0.86276 0.13727 0.0
N200 N 0.05709 0.86031 0.24604 0.0
C201 C 0.07867 0.93092 0.22601 0.0
C202 C 0.06959 0.93205 0.16722 0.0
C203 C 0.9418 0.06902 0.79192 0.0
C204 C 0.93876 0.99884 0.81642 0.0
C205 C 0.94185 0.07263 0.73457 0.0
C206 C 0.93647 1.0058 0.70051 0.0
H207 H 0.95023 0.12193 0.8176 0.0
H208 H 0.94938 0.12803 0.71706 0.0
S209 S 0.91907 0.80745 0.745 0.0
N210 N 0.92474 0.8611 0.80282 0.0
N211 N 0.92285 0.86704 0.695 0.0
C212 C 0.92794 0.93473 0.72446 0.0
C213 C 0.9295 0.93145 0.78259 0.0
C214 C 0.65144 0.4709 0.67395 0.0
C215 C 0.64282 0.53885 0.64938 0.0
C216 C 0.65623 0.46705 0.73133 0.0
C217 C 0.65503 0.53164 0.7666 0.0
H218 H 0.64857 0.41893 0.64841 0.0
H219 H 0.65673 0.4117 0.74772 0.0
S220 S 0.64674 0.72649 0.72231 0.0
N221 N 0.64029 0.67389 0.66381 0.0
N222 N 0.65455 0.66799 0.77255 0.0
C223 C 0.6519 0.60137 0.74256 0.0
C224 C 0.64482 0.6047 0.68377 0.0
C225 C 0.46314 0.43988 0.2933 0.0
C226 C 0.4627 0.50778 0.32432 0.0
C227 C 0.44891 0.43586 0.23545 0.0
C228 C 0.43564 0.50009 0.20687 0.0
H229 H 0.47708 0.39019 0.31393 0.0
H230 H 0.45268 0.38323 0.21288 0.0
S231 S 0.42515 0.69026 0.26887 0.0
N232 N 0.44344 0.63953 0.32272 0.0
N233 N 0.41961 0.63244 0.21304 0.0
C234 C 0.43237 0.56768 0.23715 0.0
C235 C 0.44489 0.57131 0.2963 0.0
loop_
_geom_bond_atom_site_label_1
_geom_bond_atom_site_label_2
_geom_bond_distance
_geom_bond_site_symmetry_2
_ccdc_geom_bond_type
Co0 N5 2.058 1_554 S
Co0 O17 2.021 . S
Co0 O20 2.062 1_455 S
Co0 O24 2.117 1_554 S
Co0 O25 2.020 1_565 S
C1 O21 1.261 . S
C1 O24 1.257 1_645 S
Co2 N11 2.057 1_556 S
Co2 O18 2.117 1_556 S
Co2 O19 2.020 1_545 S
Co2 O21 2.021 . S
Co2 O26 2.062 1_656 S
C3 N5 1.318 1_554 S
C3 N6 1.347 . S
C3 H8 0.931 . S
C4 N5 1.373 . S
C4 C7 1.350 . S
C4 H9 0.930 . S
N5 Co0 2.058 1_556 S
N5 C3 1.318 1_556 S
N5 C4 1.373 . S
N6 C3 1.347 . S
N6 C7 1.373 1_554 S
C7 C4 1.350 . S
C7 N6 1.373 1_556 S
C7 H28 0.931 . S
H8 C3 0.931 . S
H9 C4 0.930 . S
C10 O17 1.259 1_545 S
C10 O18 1.258 1_455 S
N11 Co2 2.057 1_554 S
N11 C12 1.316 1_554 S
N11 C13 1.375 . S
C12 N11 1.316 1_556 S
C12 N14 1.347 1_556 S
C12 H23 0.931 . S
C13 N11 1.375 . S
C13 C15 1.350 . S
C13 H22 0.930 . S
N14 C12 1.347 1_554 S
N14 C15 1.373 . S
C15 C13 1.350 . S
C15 N14 1.373 . S
C15 H29 0.931 . S
C16 O19 1.256 1_554 S
C16 O20 1.255 . S
O17 Co0 2.021 . S
O17 C10 1.259 1_565 S
O18 Co2 2.117 1_554 S
O18 C10 1.258 1_655 S
O19 Co2 2.020 1_565 S
O19 C16 1.256 1_556 S
O20 Co0 2.062 1_655 S
O20 C16 1.255 . S
O21 C1 1.261 . S
O21 Co2 2.021 . S
H22 C13 0.930 . S
H23 C12 0.931 . S
O24 Co0 2.117 1_556 S
O24 C1 1.257 1_465 S
O25 Co0 2.020 1_545 S
O25 C27 1.256 . S
O26 Co2 2.062 1_454 S
O26 C27 1.255 . S
C27 O25 1.256 . S
C27 O26 1.255 . S
H28 C7 0.931 . S
H29 C15 0.931 . S
Co30 N35 2.057 . S
Co30 O47 2.021 . S
Co30 O50 2.062 . S
Co30 O54 2.117 . S
Co30 O55 2.020 . S
C31 O51 1.259 . S
C31 O54 1.258 . S
Co32 N41 2.057 . S
Co32 O48 2.117 . S
Co32 O49 2.020 . S
Co32 O51 2.021 . S
Co32 O56 2.062 . S
C33 N35 1.316 . S
C33 N36 1.347 . S
C33 H38 0.931 . S
C34 N35 1.375 . S
C34 C37 1.350 . S
C34 H39 0.930 . S
N35 Co30 2.057 . S
N35 C33 1.316 . S
N35 C34 1.375 . S
N36 C33 1.347 . S
N36 C37 1.373 . S
C37 C34 1.350 . S
C37 N36 1.373 . S
C37 H58 0.931 . S
H38 C33 0.931 . S
H39 C34 0.930 . S
C40 O47 1.259 . S
C40 O48 1.258 . S
N41 Co32 2.057 . S
N41 C42 1.316 . S
N41 C43 1.375 . S
C42 N41 1.316 . S
C42 N44 1.347 . S
C42 H53 0.931 . S
C43 N41 1.375 . S
C43 C45 1.350 . S
C43 H52 0.930 . S
N44 C42 1.347 . S
N44 C45 1.373 . S
C45 C43 1.350 . S
C45 N44 1.373 . S
C45 H59 0.931 . S
C46 O49 1.256 . S
C46 O50 1.255 . S
O47 Co30 2.021 . S
O47 C40 1.259 . S
O48 Co32 2.117 . S
O48 C40 1.258 . S
O49 Co32 2.020 . S
O49 C46 1.256 . S
O50 Co30 2.062 . S
O50 C46 1.255 . S
O51 C31 1.259 . S
O51 Co32 2.021 . S
H52 C43 0.930 . S
H53 C42 0.931 . S
O54 Co30 2.117 . S
O54 C31 1.258 . S
O55 Co30 2.020 . S
O55 C57 1.256 . S
O56 Co32 2.062 . S
O56 C57 1.255 . S
C57 O55 1.256 . S
C57 O56 1.255 . S
H58 C37 0.931 . S
H59 C45 0.931 . S
H60 C63 0.929 . S
H61 C66 0.929 1_655 S
H62 C68 0.930 . S
C63 H60 0.929 . S
C63 C64 1.398 . S
C63 C65 1.396 . S
C64 C63 1.398 . S
C64 C68 1.407 . S
C65 C63 1.396 . S
C65 C66 1.394 1_565 S
C66 H61 0.929 1_455 S
C66 C65 1.394 1_545 S
C66 C67 1.382 . S
C67 C66 1.382 . S
C67 C68 1.392 1_545 S
C67 N69 1.420 1_455 S
C68 H62 0.930 . S
C68 C64 1.407 . S
C68 C67 1.392 1_565 S
N69 C67 1.420 1_655 S
N69 C70 1.244 . S
C70 N69 1.244 . S
H71 C74 0.929 . S
H72 C77 0.929 . S
H73 C79 0.930 . S
C74 H71 0.929 . S
C74 C75 1.398 . S
C74 C76 1.396 . S
C75 C74 1.398 . S
C75 C79 1.407 . S
C76 C74 1.396 . S
C76 C77 1.394 1_665 S
C77 H72 0.929 . S
C77 C76 1.394 1_445 S
C77 C78 1.382 . S
C78 C77 1.382 . S
C78 C79 1.392 1_445 S
C78 N80 1.420 . S
C79 H73 0.930 . S
C79 C75 1.407 . S
C79 C78 1.392 1_665 S
N80 C78 1.420 . S
N80 C81 1.244 . S
C81 N80 1.244 . S
H82 C85 0.929 . S
H83 C88 0.929 . S
H84 C90 0.930 1_554 S
C85 H82 0.929 . S
C85 C86 1.398 . S
C85 C87 1.396 . S
C86 C85 1.398 . S
C86 C90 1.407 . S
C87 C85 1.396 . S
C87 C88 1.394 . S
C88 H83 0.929 . S
C88 C87 1.394 . S
C88 C89 1.382 . S
C89 C88 1.382 . S
C89 C90 1.392 . S
C89 N91 1.420 . S
C90 H84 0.930 1_556 S
C90 C86 1.407 . S
C90 C89 1.392 . S
N91 C89 1.420 . S
N91 C92 1.244 . S
C92 N91 1.244 . S
H93 C96 0.929 . S
H94 C99 0.929 . S
H95 C101 0.930 1_556 S
C96 H93 0.929 . S
C96 C97 1.398 . S
C96 C98 1.396 . S
C97 C96 1.398 . S
C97 C101 1.407 . S
C98 C96 1.396 . S
C98 C99 1.394 . S
C99 H94 0.929 . S
C99 C98 1.394 . S
C99 C100 1.382 . S
C100 C99 1.382 . S
C100 C101 1.392 . S
C100 N102 1.420 . S
C101 H95 0.930 1_554 S
C101 C97 1.407 . S
C101 C100 1.392 . S
N102 C100 1.420 . S
N102 C103 1.244 . S
C103 N102 1.244 . S
C104 C105 1.369 . S
C104 C106 1.419 . S
C104 H108 0.930 . S
C105 C104 1.369 . S
C105 C114 1.429 . S
C106 C104 1.419 . S
C106 C107 1.363 . S
C106 H109 0.929 . S
C107 C106 1.363 . S
C107 C113 1.428 . S
H108 C104 0.930 . S
H109 C106 0.929 . S
S110 N111 1.613 . S
S110 N112 1.610 . S
N111 S110 1.613 . S
N111 C114 1.350 . S
N112 S110 1.610 . S
N112 C113 1.351 . S
C113 C107 1.428 . S
C113 N112 1.351 . S
C113 C114 1.434 . S
C114 C105 1.429 . S
C114 N111 1.350 . S
C114 C113 1.434 . S
C115 C116 1.369 . S
C115 C117 1.419 . S
C115 H119 0.930 . S
C116 C115 1.369 . S
C116 C125 1.429 1_554 S
C117 C115 1.419 . S
C117 C118 1.363 . S
C117 H120 0.929 . S
C118 C117 1.363 . S
C118 C124 1.428 1_554 S
H119 C115 0.930 . S
H120 C117 0.929 . S
S121 N122 1.613 . S
S121 N123 1.610 . S
N122 S121 1.613 . S
N122 C125 1.350 . S
N123 S121 1.610 . S
N123 C124 1.351 . S
C124 C118 1.428 1_556 S
C124 N123 1.351 . S
C124 C125 1.434 . S
C125 C116 1.429 1_556 S
C125 N122 1.350 . S
C125 C124 1.434 . S
C126 C127 1.369 1_556 S
C126 C128 1.419 . S
C126 H130 0.930 . S
C127 C126 1.369 1_554 S
C127 C136 1.429 . S
C128 C126 1.419 . S
C128 C129 1.363 1_556 S
C128 H131 0.929 . S
C129 C128 1.363 1_554 S
C129 C135 1.428 . S
H130 C126 0.930 . S
H131 C128 0.929 . S
S132 N133 1.613 . S
S132 N134 1.610 . S
N133 S132 1.613 . S
N133 C136 1.350 . S
N134 S132 1.610 . S
N134 C135 1.351 . S
C135 C129 1.428 . S
C135 N134 1.351 . S
C135 C136 1.434 . S
C136 C127 1.429 . S
C136 N133 1.350 . S
C136 C135 1.434 . S
C137 C138 1.369 . S
C137 C139 1.419 . S
C137 H141 0.930 . S
C138 C137 1.369 . S
C138 C147 1.429 1_556 S
C139 C137 1.419 . S
C139 C140 1.363 . S
C139 H142 0.929 . S
C140 C139 1.363 . S
C140 C146 1.428 1_556 S
H141 C137 0.930 . S
H142 C139 0.929 . S
S143 N144 1.613 . S
S143 N145 1.610 . S
N144 S143 1.613 . S
N144 C147 1.350 . S
N145 S143 1.610 . S
N145 C146 1.351 . S
C146 C140 1.428 1_554 S
C146 N145 1.351 . S
C146 C147 1.434 . S
C147 C138 1.429 1_554 S
C147 N144 1.350 . S
C147 C146 1.434 . S
C148 C149 1.369 . S
C148 C150 1.419 . S
C148 H152 0.930 . S
C149 C148 1.369 . S
C149 C158 1.429 . S
C150 C148 1.419 . S
C150 C151 1.363 . S
C150 H153 0.929 . S
C151 C150 1.363 . S
C151 C157 1.428 . S
H152 C148 0.930 . S
H153 C150 0.929 . S
S154 N155 1.613 . S
S154 N156 1.610 . S
N155 S154 1.613 . S
N155 C158 1.350 . S
N156 S154 1.610 . S
N156 C157 1.351 . S
C157 C151 1.428 . S
C157 N156 1.351 . S
C157 C158 1.434 . S
C158 C149 1.429 . S
C158 N155 1.350 . S
C158 C157 1.434 . S
C159 C160 1.369 . S
C159 C161 1.419 . S
C159 H163 0.930 . S
C160 C159 1.369 . S
C160 C169 1.429 . S
C161 C159 1.419 . S
C161 C162 1.363 . S
C161 H164 0.929 . S
C162 C161 1.363 . S
C162 C168 1.428 . S
H163 C159 0.930 . S
H164 C161 0.929 . S
S165 N166 1.613 . S
S165 N167 1.610 . S
N166 S165 1.613 . S
N166 C169 1.350 . S
N167 S165 1.610 . S
N167 C168 1.351 . S
C168 C162 1.428 . S
C168 N167 1.351 . S
C168 C169 1.434 . S
C169 C160 1.429 . S
C169 N166 1.350 . S
C169 C168 1.434 . S
C170 C171 1.369 . S
C170 C172 1.419 . S
C170 H174 0.930 . S
C171 C170 1.369 . S
C171 C180 1.429 . S
C172 C170 1.419 . S
C172 C173 1.363 . S
C172 H175 0.929 . S
C173 C172 1.363 . S
C173 C179 1.428 . S
H174 C170 0.930 . S
H175 C172 0.929 . S
S176 N177 1.613 . S
S176 N178 1.610 . S
N177 S176 1.613 . S
N177 C180 1.350 . S
N178 S176 1.610 . S
N178 C179 1.351 . S
C179 C173 1.428 . S
C179 N178 1.351 . S
C179 C180 1.434 . S
C180 C171 1.429 . S
C180 N177 1.350 . S
C180 C179 1.434 . S
C181 C182 1.369 . S
C181 C183 1.419 . S
C181 H185 0.930 . S
C182 C181 1.369 . S
C182 C191 1.429 . S
C183 C181 1.419 . S
C183 C184 1.363 . S
C183 H186 0.929 . S
C184 C183 1.363 . S
C184 C190 1.428 . S
H185 C181 0.930 . S
H186 C183 0.929 . S
S187 N188 1.613 . S
S187 N189 1.610 . S
N188 S187 1.613 . S
N188 C191 1.350 . S
N189 S187 1.610 . S
N189 C190 1.351 . S
C190 C184 1.428 . S
C190 N189 1.351 . S
C190 C191 1.434 . S
C191 C182 1.429 . S
C191 N188 1.350 . S
C191 C190 1.434 . S
C192 C193 1.367 1_545 S
C192 C194 1.419 . S
C192 H196 0.930 . S
C193 C192 1.367 1_565 S
C193 C202 1.431 . S
C194 C192 1.419 . S
C194 C195 1.363 1_545 S
C194 H197 0.929 . S
C195 C194 1.363 1_565 S
C195 C201 1.428 . S
H196 C192 0.930 . S
H197 C194 0.929 . S
S198 N199 1.613 . S
S198 N200 1.610 . S
N199 S198 1.613 . S
N199 C202 1.350 . S
N200 S198 1.610 . S
N200 C201 1.351 . S
C201 C195 1.428 . S
C201 N200 1.351 . S
C201 C202 1.434 . S
C202 C193 1.431 . S
C202 N199 1.350 . S
C202 C201 1.434 . S
C203 C204 1.369 . S
C203 C205 1.419 . S
C203 H207 0.930 . S
C204 C203 1.369 . S
C204 C213 1.428 1_645 S
C205 C203 1.419 . S
C205 C206 1.363 1_545 S
C205 H208 0.929 . S
C206 C205 1.363 1_565 S
C206 C212 1.428 1_655 S
H207 C203 0.930 . S
H208 C205 0.929 . S
S209 N210 1.613 . S
S209 N211 1.610 . S
N210 S209 1.613 . S
N210 C213 1.350 . S
N211 S209 1.610 . S
N211 C212 1.351 . S
C212 C206 1.428 1_455 S
C212 N211 1.351 . S
C212 C213 1.434 . S
C213 C204 1.428 1_465 S
C213 N210 1.350 . S
C213 C212 1.434 . S
C214 C215 1.369 . S
C214 C216 1.419 . S
C214 H218 0.930 . S
C215 C214 1.369 . S
C215 C224 1.429 . S
C216 C214 1.419 . S
C216 C217 1.363 . S
C216 H219 0.929 . S
C217 C216 1.363 . S
C217 C223 1.428 . S
H218 C214 0.930 . S
H219 C216 0.929 . S
S220 N221 1.613 . S
S220 N222 1.610 . S
N221 S220 1.613 . S
N221 C224 1.350 . S
N222 S220 1.610 . S
N222 C223 1.351 . S
C223 C217 1.428 . S
C223 N222 1.351 . S
C223 C224 1.434 . S
C224 C215 1.429 . S
C224 N221 1.350 . S
C224 C223 1.434 . S
C225 C226 1.369 . S
C225 C227 1.419 . S
C225 H229 0.930 . S
C226 C225 1.369 . S
C226 C235 1.429 . S
C227 C225 1.419 . S
C227 C228 1.363 . S
C227 H230 0.929 . S
C228 C227 1.363 . S
C228 C234 1.428 . S
H229 C225 0.930 . S
H230 C227 0.929 . S
S231 N232 1.613 . S
S231 N233 1.610 . S
N232 S231 1.613 . S
N232 C235 1.350 . S
N233 S231 1.610 . S
N233 C234 1.351 . S
C234 C228 1.428 . S
C234 N233 1.351 . S
C234 C235 1.434 . S
C235 C226 1.429 . S
C235 N232 1.350 . S
C235 C234 1.434 . S
C107 C97 1.469 . S
C105 C27 1.503 . S
C116 N6 1.395 . S
C118 C92 1.426 1_554 S
C127 C16 1.475 . S
C129 C103 1.429 . S
C138 N14 1.448 1_556 S
C140 C86 1.450 . S
C149 C57 1.503 . S
C151 C75 1.469 . S
C160 N36 1.394 . S
C162 C70 1.426 . S
C173 C81 1.435 . S
C171 C46 1.476 . S
C184 C64 1.445 . S
C182 N44 1.453 . S
C193 C10 1.474 1_565 S
C195 C65 1.474 . S
C204 C1 1.548 . S
C206 C76 1.544 . S
C217 C87 1.475 . S
C215 C40 1.475 . S
C226 C31 1.547 . S
C228 C98 1.545 . S
