# Generated by pormake.
# Topology hwx, (6,3)-cn, num edge types: 1
# Building blocks:
#     Node 0, Type 0, BuildingBlock: IZENUY_clean_sbu_0, # of connection points: 6
#     Node 1, Type 0, BuildingBlock: IZENUY_clean_sbu_0, # of connection points: 6
#     Node 2, Type 0, BuildingBlock: IZENUY_clean_sbu_0, # of connection points: 6
#     Node 3, Type 0, BuildingBlock: IZENUY_clean_sbu_0, # of connection points: 6
#     Node 4, Type 1, BuildingBlock: INOVEN_clean_linker_0, # of connection points: 3
#     Node 5, Type 1, BuildingBlock: INOVEN_clean_linker_0, # of connection points: 3
#     Node 6, Type 1, BuildingBlock: INOVEN_clean_linker_0, # of connection points: 3
#     Node 7, Type 1, BuildingBlock: INOVEN_clean_linker_0, # of connection points: 3
#     Node 8, Type 1, BuildingBlock: INOVEN_clean_linker_0, # of connection points: 3
#     Node 9, Type 1, BuildingBlock: INOVEN_clean_linker_0, # of connection points: 3
#     Node 10, Type 1, BuildingBlock: INOVEN_clean_linker_0, # of connection points: 3
#     Node 11, Type 1, BuildingBlock: INOVEN_clean_linker_0, # of connection points: 3
#     Edge 12, Type (0, 1), None
#     Edge 13, Type (0, 1), None
#     Edge 14, Type (0, 1), None
#     Edge 15, Type (0, 1), None
#     Edge 16, Type (0, 1), None
#     Edge 17, Type (0, 1), None
#     Edge 18, Type (0, 1), None
#     Edge 19, Type (0, 1), None
#     Edge 20, Type (0, 1), None
#     Edge 21, Type (0, 1), None
#     Edge 22, Type (0, 1), None
#     Edge 23, Type (0, 1), None
#     Edge 24, Type (0, 1), None
#     Edge 25, Type (0, 1), None
#     Edge 26, Type (0, 1), None
#     Edge 27, Type (0, 1), None
#     Edge 28, Type (0, 1), None
#     Edge 29, Type (0, 1), None
#     Edge 30, Type (0, 1), None
#     Edge 31, Type (0, 1), None
#     Edge 32, Type (0, 1), None
#     Edge 33, Type (0, 1), None
#     Edge 34, Type (0, 1), None
#     Edge 35, Type (0, 1), None
# Relax obj value: 0.005
# Max RMSD: 0.045
# Mean RMSD: 0.041
data_MOF--net-hwx--node1-IZENUY_clean_sbu_0--node2-INOVEN_clean_linker_0--edge1-none
_symmetry_space_group_name_H-M    P1
_symmetry_Int_Tables_number       1
_symmetry_cell_setting            triclinic
loop_
_symmetry_equiv_pos_as_xyz
'x, y, z'
_cell_length_a     22.880605
_cell_length_b     22.857153
_cell_length_c     9.0817249
_cell_angle_alpha  93.700294
_cell_angle_beta   95.78333
_cell_angle_gamma 89.247201
loop_
_atom_site_label
_atom_site_type_symbol
_atom_site_fract_x
_atom_site_fract_y
_atom_site_fract_z
_atom_type_partial_charge
Fe0 Fe 0.2974 0.28896 0.19688 0.0
Fe1 Fe 0.28117 0.30684 0.86288 0.0
O2 O 0.26162 0.27092 0.01784 0.0
Fe3 Fe 0.20553 0.21652 0.99409 0.0
O4 O 0.15981 0.26082 0.1145 0.0
O5 O 0.23241 0.27872 0.28902 0.0
O6 O 0.27596 0.36575 0.19078 0.0
C7 C 0.28229 0.39871 0.08773 0.0
C8 C 0.28501 0.17171 0.22452 0.0
O9 O 0.29518 0.37814 0.96242 0.0
C10 C 0.26847 0.18786 0.75773 0.0
O11 O 0.36898 0.30296 0.13555 0.0
O12 O 0.35792 0.28459 0.8939 0.0
O13 O 0.23494 0.17419 0.15186 0.0
O14 O 0.3209 0.21303 0.2193 0.0
C15 C 0.16347 0.297 0.77855 0.0
O16 O 0.27073 0.24199 0.73814 0.0
O17 O 0.24861 0.16991 0.87247 0.0
C18 C 0.39025 0.29104 0.01459 0.0
O19 O 0.20576 0.33161 0.81625 0.0
O20 O 0.16428 0.24708 0.83121 0.0
C21 C 0.17835 0.27971 0.24535 0.0
Fe22 Fe 0.23727 0.79677 0.72091 0.0
Fe23 Fe 0.32542 0.71587 0.56619 0.0
O24 O 0.27049 0.77231 0.55978 0.0
Fe25 Fe 0.24866 0.80482 0.39138 0.0
O26 O 0.23285 0.87727 0.47338 0.0
O27 O 0.26185 0.87211 0.70925 0.0
O28 O 0.3022 0.78587 0.84487 0.0
C29 C 0.35606 0.77954 0.8303 0.0
C30 C 0.14197 0.79199 0.50073 0.0
O31 O 0.37313 0.75823 0.70922 0.0
C32 C 0.26224 0.68572 0.29828 0.0
O33 O 0.21165 0.72315 0.74636 0.0
O34 O 0.29403 0.67639 0.70883 0.0
O35 O 0.17282 0.78137 0.3942 0.0
O36 O 0.16502 0.81181 0.62569 0.0
C37 C 0.36695 0.79477 0.36867 0.0
O38 O 0.28208 0.66851 0.4238 0.0
O39 O 0.26023 0.73953 0.2768 0.0
C40 C 0.24499 0.67878 0.76224 0.0
O41 O 0.36695 0.74538 0.42449 0.0
O42 O 0.32342 0.8293 0.37748 0.0
C43 C 0.25248 0.90157 0.59629 0.0
Fe44 Fe 0.73393 0.75851 0.83957 0.0
Fe45 Fe 0.74891 0.74386 0.17326 0.0
O46 O 0.76797 0.7798 0.01813 0.0
Fe47 Fe 0.82092 0.83722 0.04137 0.0
O48 O 0.78769 0.87748 0.88517 0.0
O49 O 0.70503 0.8318 0.81507 0.0
O50 O 0.66288 0.74 0.90104 0.0
C51 C 0.64039 0.75454 0.01943 0.0
C52 C 0.85274 0.77773 0.78761 0.0
O53 O 0.67207 0.76463 0.13983 0.0
C54 C 0.86567 0.75732 0.25446 0.0
O55 O 0.76085 0.6839 0.85027 0.0
O56 O 0.73665 0.67185 0.07426 0.0
O57 O 0.86971 0.79687 0.91922 0.0
O58 O 0.79845 0.77295 0.74601 0.0
C59 C 0.75833 0.8633 0.28154 0.0
O60 O 0.82448 0.72129 0.21987 0.0
O61 O 0.86354 0.80727 0.20156 0.0
C62 C 0.753 0.65114 0.95233 0.0
O63 O 0.75764 0.8089 0.29922 0.0
O64 O 0.77633 0.88196 0.16537 0.0
C65 C 0.73759 0.87565 0.81195 0.0
Fe66 Fe 0.70232 0.32992 0.46638 0.0
Fe67 Fe 0.79117 0.25344 0.64723 0.0
O68 O 0.75947 0.2758 0.47426 0.0
Fe69 Fe 0.78571 0.24367 0.31073 0.0
O70 O 0.77454 0.30829 0.20983 0.0
O71 O 0.74421 0.37836 0.36136 0.0
O72 O 0.73157 0.37143 0.63799 0.0
C73 C 0.78098 0.37138 0.71511 0.0
C74 C 0.6674 0.24938 0.22003 0.0
O75 O 0.81564 0.32789 0.70366 0.0
C76 C 0.78033 0.14796 0.48581 0.0
O77 O 0.65489 0.28604 0.57019 0.0
O78 O 0.72584 0.26514 0.73833 0.0
O79 O 0.7127 0.21715 0.23983 0.0
O80 O 0.66357 0.29797 0.29388 0.0
C81 C 0.88911 0.25792 0.49006 0.0
O82 O 0.76752 0.17791 0.60045 0.0
O83 O 0.8013 0.17185 0.382 0.0
C84 C 0.6721 0.26617 0.69454 0.0
O85 O 0.86376 0.23732 0.59101 0.0
O86 O 0.86065 0.26921 0.36849 0.0
C87 C 0.76655 0.36179 0.24311 0.0
H88 H 0.25812 0.55936 0.78042 0.0
H89 H 0.22552 0.7192 0.0284 0.0
H90 H 0.27426 0.56377 0.25868 0.0
N91 N 0.27265 0.49193 0.00479 0.0
N92 N 0.27395 0.46002 0.1115 0.0
C93 C 0.25356 0.583 0.88607 0.0
C94 C 0.23968 0.6429 0.89028 0.0
C95 C 0.26244 0.55337 0.01776 0.0
C96 C 0.26301 0.58533 0.15679 0.0
C97 C 0.25134 0.64596 0.16193 0.0
C98 C 0.23519 0.67261 0.02754 0.0
H99 H 0.97557 0.79177 0.79808 0.0
H100 H 0.82115 0.74375 0.5043 0.0
H101 H 0.98305 0.76881 0.32408 0.0
N102 N 0.04941 0.78786 0.58524 0.0
N103 N 0.08048 0.78294 0.47918 0.0
C104 C 0.95435 0.78009 0.68826 0.0
C105 C 0.89341 0.76866 0.66827 0.0
C106 C 0.98774 0.77757 0.56451 0.0
C107 C 0.95921 0.76643 0.42071 0.0
C108 C 0.89938 0.75391 0.40034 0.0
C109 C 0.86784 0.75243 0.52388 0.0
H110 H 0.75355 0.48297 0.23999 0.0
H111 H 0.79706 0.32867 0.97409 0.0
H112 H 0.76876 0.49127 0.77137 0.0
N113 N 0.75535 0.55656 0.02882 0.0
N114 N 0.76071 0.58993 0.9278 0.0
C115 C 0.76334 0.46179 0.13499 0.0
C116 C 0.77446 0.40139 0.1233 0.0
C117 C 0.76417 0.49508 0.01016 0.0
C118 C 0.77256 0.46685 0.87025 0.0
C119 C 0.78488 0.40651 0.8585 0.0
C120 C 0.7886 0.37543 0.98624 0.0
H121 H 0.05738 0.27875 0.2223 0.0
H122 H 0.21088 0.30876 0.53226 0.0
H123 H 0.0436 0.29022 0.69403 0.0
N124 N 0.98128 0.27975 0.41968 0.0
N125 N 0.95045 0.26566 0.51662 0.0
C126 C 0.07764 0.28656 0.33486 0.0
C127 C 0.13855 0.29209 0.36239 0.0
C128 C 0.04275 0.28762 0.45313 0.0
C129 C 0.06963 0.29312 0.60158 0.0
C130 C 0.13057 0.30198 0.62993 0.0
C131 C 0.16374 0.30371 0.50941 0.0
H132 H 0.73989 0.99385 0.79062 0.0
H133 H 0.72704 0.82934 0.53884 0.0
H134 H 0.76406 0.98547 0.32432 0.0
N135 N 0.75612 0.05906 0.57273 0.0
N136 N 0.77402 0.08645 0.47252 0.0
C137 C 0.73921 0.96893 0.68473 0.0
C138 C 0.73138 0.90843 0.67728 0.0
C139 C 0.74891 0.99736 0.55761 0.0
C140 C 0.75367 0.96414 0.42139 0.0
C141 C 0.74628 0.90287 0.41307 0.0
C142 C 0.73215 0.87647 0.54092 0.0
H143 H 0.54955 0.2772 0.69051 0.0
H144 H 0.70651 0.22848 0.96132 0.0
H145 H 0.54832 0.26104 0.16197 0.0
N146 N 0.47852 0.27574 0.90694 0.0
N147 N 0.45179 0.28368 0.01966 0.0
C148 C 0.57182 0.26603 0.79606 0.0
C149 C 0.63257 0.25456 0.80986 0.0
C150 C 0.54029 0.26552 0.9217 0.0
C151 C 0.57081 0.25666 0.06239 0.0
C152 C 0.63083 0.24311 0.07574 0.0
C153 C 0.65985 0.23825 0.94799 0.0
H154 H 0.27372 0.05194 0.25673 0.0
H155 H 0.29855 0.21877 0.49594 0.0
H156 H 0.26148 0.06769 0.72888 0.0
N157 N 0.26163 0.99022 0.49142 0.0
N158 N 0.26224 0.9629 0.60669 0.0
C159 C 0.27754 0.07829 0.36073 0.0
C160 C 0.28871 0.1388 0.36154 0.0
C161 C 0.27083 0.05176 0.49463 0.0
C162 C 0.27039 0.08699 0.62768 0.0
C163 C 0.27882 0.14754 0.62834 0.0
C164 C 0.2916 0.17198 0.49676 0.0
H165 H 0.48768 0.78375 0.35484 0.0
H166 H 0.32329 0.80987 0.0987 0.0
H167 H 0.47696 0.76813 0.87574 0.0
N168 N 0.55268 0.77108 0.12684 0.0
N169 N 0.57849 0.75931 0.01387 0.0
C170 C 0.46249 0.78698 0.24803 0.0
C171 C 0.40183 0.79871 0.24076 0.0
C172 C 0.49057 0.77862 0.11674 0.0
C173 C 0.45658 0.77757 0.97728 0.0
C174 C 0.39595 0.78801 0.96953 0.0
C175 C 0.37021 0.80191 0.10198 0.0
loop_
_geom_bond_atom_site_label_1
_geom_bond_atom_site_label_2
_geom_bond_distance
_geom_bond_site_symmetry_2
_ccdc_geom_bond_type
Fe0 O2 1.918 . S
Fe0 O5 1.997 . S
Fe0 O6 2.002 . S
Fe0 O11 1.976 . S
Fe0 O14 1.996 . S
Fe1 O2 1.918 1_556 S
Fe1 O9 1.997 . S
Fe1 O12 1.996 . S
Fe1 O16 1.976 . S
Fe1 O19 2.002 . S
O2 Fe0 1.918 . S
O2 Fe1 1.918 1_554 S
O2 Fe3 1.918 1_554 S
Fe3 O2 1.918 1_556 S
Fe3 O4 2.002 1_556 S
Fe3 O13 1.976 1_556 S
Fe3 O17 1.996 . S
Fe3 O20 1.997 . S
O4 Fe3 2.002 1_554 S
O4 C21 1.295 . S
O5 Fe0 1.997 . S
O5 C21 1.235 . S
O6 Fe0 2.002 . S
O6 C7 1.295 . S
C7 O6 1.295 . S
C7 O9 1.235 1_554 S
C8 O13 1.287 . S
C8 O14 1.255 . S
O9 Fe1 1.997 . S
O9 C7 1.235 1_556 S
C10 O16 1.287 . S
C10 O17 1.255 . S
O11 Fe0 1.976 . S
O11 C18 1.287 . S
O12 Fe1 1.996 . S
O12 C18 1.255 1_556 S
O13 Fe3 1.976 1_554 S
O13 C8 1.287 . S
O14 Fe0 1.996 . S
O14 C8 1.255 . S
C15 O19 1.295 . S
C15 O20 1.235 . S
O16 Fe1 1.976 . S
O16 C10 1.287 . S
O17 Fe3 1.996 . S
O17 C10 1.255 . S
C18 O11 1.287 . S
C18 O12 1.255 1_554 S
O19 Fe1 2.002 . S
O19 C15 1.295 . S
O20 Fe3 1.997 . S
O20 C15 1.235 . S
C21 O4 1.295 . S
C21 O5 1.235 . S
Fe22 O24 1.918 . S
Fe22 O27 1.997 . S
Fe22 O28 2.002 . S
Fe22 O33 1.976 . S
Fe22 O36 1.996 . S
Fe23 O24 1.918 . S
Fe23 O31 1.997 . S
Fe23 O34 1.996 . S
Fe23 O38 1.976 . S
Fe23 O41 2.002 . S
O24 Fe22 1.918 . S
O24 Fe23 1.918 . S
O24 Fe25 1.918 . S
Fe25 O24 1.918 . S
Fe25 O26 2.002 . S
Fe25 O35 1.976 . S
Fe25 O39 1.996 . S
Fe25 O42 1.997 . S
O26 Fe25 2.002 . S
O26 C43 1.295 . S
O27 Fe22 1.997 . S
O27 C43 1.235 . S
O28 Fe22 2.002 . S
O28 C29 1.295 . S
C29 O28 1.295 . S
C29 O31 1.235 . S
C30 O35 1.287 . S
C30 O36 1.255 . S
O31 Fe23 1.997 . S
O31 C29 1.235 . S
C32 O38 1.287 . S
C32 O39 1.255 . S
O33 Fe22 1.976 . S
O33 C40 1.287 . S
O34 Fe23 1.996 . S
O34 C40 1.255 . S
O35 Fe25 1.976 . S
O35 C30 1.287 . S
O36 Fe22 1.996 . S
O36 C30 1.255 . S
C37 O41 1.295 . S
C37 O42 1.235 . S
O38 Fe23 1.976 . S
O38 C32 1.287 . S
O39 Fe25 1.996 . S
O39 C32 1.255 . S
C40 O33 1.287 . S
C40 O34 1.255 . S
O41 Fe23 2.002 . S
O41 C37 1.295 . S
O42 Fe25 1.997 . S
O42 C37 1.235 . S
C43 O26 1.295 . S
C43 O27 1.235 . S
Fe44 O46 1.918 1_556 S
Fe44 O49 1.997 . S
Fe44 O50 2.002 . S
Fe44 O55 1.976 . S
Fe44 O58 1.996 . S
Fe45 O46 1.918 . S
Fe45 O53 1.997 . S
Fe45 O56 1.996 . S
Fe45 O60 1.976 . S
Fe45 O63 2.002 . S
O46 Fe44 1.918 1_554 S
O46 Fe45 1.918 . S
O46 Fe47 1.918 . S
Fe47 O46 1.918 . S
Fe47 O48 2.002 1_554 S
Fe47 O57 1.976 1_554 S
Fe47 O61 1.996 . S
Fe47 O64 1.997 . S
O48 Fe47 2.002 1_556 S
O48 C65 1.295 . S
O49 Fe44 1.997 . S
O49 C65 1.235 . S
O50 Fe44 2.002 . S
O50 C51 1.295 1_556 S
C51 O50 1.295 1_554 S
C51 O53 1.235 . S
C52 O57 1.287 . S
C52 O58 1.255 . S
O53 Fe45 1.997 . S
O53 C51 1.235 . S
C54 O60 1.287 . S
C54 O61 1.255 . S
O55 Fe44 1.976 . S
O55 C62 1.287 1_556 S
O56 Fe45 1.996 . S
O56 C62 1.255 . S
O57 Fe47 1.976 1_556 S
O57 C52 1.287 . S
O58 Fe44 1.996 . S
O58 C52 1.255 . S
C59 O63 1.295 . S
C59 O64 1.235 . S
O60 Fe45 1.976 . S
O60 C54 1.287 . S
O61 Fe47 1.996 . S
O61 C54 1.255 . S
C62 O55 1.287 1_554 S
C62 O56 1.255 . S
O63 Fe45 2.002 . S
O63 C59 1.295 . S
O64 Fe47 1.997 . S
O64 C59 1.235 . S
C65 O48 1.295 . S
C65 O49 1.235 . S
Fe66 O68 1.918 . S
Fe66 O71 1.997 . S
Fe66 O72 2.002 . S
Fe66 O77 1.976 . S
Fe66 O80 1.996 . S
Fe67 O68 1.918 . S
Fe67 O75 1.997 . S
Fe67 O78 1.996 . S
Fe67 O82 1.976 . S
Fe67 O85 2.002 . S
O68 Fe66 1.918 . S
O68 Fe67 1.918 . S
O68 Fe69 1.918 . S
Fe69 O68 1.918 . S
Fe69 O70 2.002 . S
Fe69 O79 1.976 . S
Fe69 O83 1.996 . S
Fe69 O86 1.997 . S
O70 Fe69 2.002 . S
O70 C87 1.295 . S
O71 Fe66 1.997 . S
O71 C87 1.235 . S
O72 Fe66 2.002 . S
O72 C73 1.295 . S
C73 O72 1.295 . S
C73 O75 1.235 . S
C74 O79 1.287 . S
C74 O80 1.255 . S
O75 Fe67 1.997 . S
O75 C73 1.235 . S
C76 O82 1.287 . S
C76 O83 1.255 . S
O77 Fe66 1.976 . S
O77 C84 1.287 . S
O78 Fe67 1.996 . S
O78 C84 1.255 . S
O79 Fe69 1.976 . S
O79 C74 1.287 . S
O80 Fe66 1.996 . S
O80 C74 1.255 . S
C81 O85 1.295 . S
C81 O86 1.235 . S
O82 Fe67 1.976 . S
O82 C76 1.287 . S
O83 Fe69 1.996 . S
O83 C76 1.255 . S
C84 O77 1.287 . S
C84 O78 1.255 . S
O85 Fe67 2.002 . S
O85 C81 1.295 . S
O86 Fe69 1.997 . S
O86 C81 1.235 . S
C87 O70 1.295 . S
C87 O71 1.235 . S
H88 C93 0.929 . S
H89 C98 0.931 . S
H90 C96 0.930 . S
N91 N92 1.234 1_556 S
N91 C95 1.453 . S
N92 N91 1.234 1_554 S
C93 H88 0.929 . S
C93 C94 1.373 . S
C93 C95 1.368 . S
C94 C93 1.373 . S
C94 C98 1.397 1_556 S
C95 N91 1.453 . S
C95 C93 1.368 . S
C95 C96 1.373 1_556 S
C96 H90 0.930 . S
C96 C95 1.373 1_554 S
C96 C97 1.371 . S
C97 C96 1.371 . S
C97 C98 1.383 . S
C98 H89 0.931 . S
C98 C94 1.397 1_554 S
C98 C97 1.383 . S
H99 C104 0.929 . S
H100 C109 0.931 . S
H101 C107 0.930 1_455 S
N102 N103 1.234 . S
N102 C106 1.453 . S
N103 N102 1.234 . S
C104 H99 0.929 . S
C104 C105 1.373 . S
C104 C106 1.368 1_655 S
C105 C104 1.373 . S
C105 C109 1.397 . S
C106 N102 1.453 . S
C106 C104 1.368 1_455 S
C106 C107 1.373 1_455 S
C107 H101 0.930 1_655 S
C107 C106 1.373 1_655 S
C107 C108 1.371 . S
C108 C107 1.371 . S
C108 C109 1.383 . S
C109 H100 0.931 . S
C109 C105 1.397 . S
C109 C108 1.383 . S
H110 C115 0.929 . S
H111 C120 0.931 . S
H112 C118 0.930 . S
N113 N114 1.234 1_554 S
N113 C117 1.453 . S
N114 N113 1.234 1_556 S
C115 H110 0.929 . S
C115 C116 1.373 . S
C115 C117 1.368 . S
C116 C115 1.373 . S
C116 C120 1.397 . S
C117 N113 1.453 . S
C117 C115 1.368 . S
C117 C118 1.373 1_554 S
C118 H112 0.930 . S
C118 C117 1.373 1_556 S
C118 C119 1.371 . S
C119 C118 1.371 . S
C119 C120 1.383 1_556 S
C120 H111 0.931 . S
C120 C116 1.397 . S
C120 C119 1.383 1_554 S
H121 C126 0.929 . S
H122 C131 0.931 . S
H123 C129 0.930 1_655 S
N124 N125 1.234 . S
N124 C128 1.453 . S
N125 N124 1.234 . S
C126 H121 0.929 . S
C126 C127 1.373 . S
C126 C128 1.368 1_455 S
C127 C126 1.373 . S
C127 C131 1.397 . S
C128 N124 1.453 . S
C128 C126 1.368 1_655 S
C128 C129 1.373 1_655 S
C129 H123 0.930 1_455 S
C129 C128 1.373 1_455 S
C129 C130 1.371 . S
C130 C129 1.371 . S
C130 C131 1.383 . S
C131 H122 0.931 . S
C131 C127 1.397 . S
C131 C130 1.383 . S
H132 C137 0.929 . S
H133 C142 0.931 . S
H134 C140 0.930 1_545 S
N135 N136 1.234 . S
N135 C139 1.453 . S
N136 N135 1.234 . S
C137 H132 0.929 . S
C137 C138 1.373 . S
C137 C139 1.368 1_565 S
C138 C137 1.373 . S
C138 C142 1.397 . S
C139 N135 1.453 . S
C139 C137 1.368 1_545 S
C139 C140 1.373 1_545 S
C140 H134 0.930 1_565 S
C140 C139 1.373 1_565 S
C140 C141 1.371 . S
C141 C140 1.371 . S
C141 C142 1.383 . S
C142 H133 0.931 . S
C142 C138 1.397 . S
C142 C141 1.383 . S
H143 C148 0.929 . S
H144 C153 0.931 . S
H145 C151 0.930 . S
N146 N147 1.234 1_556 S
N146 C150 1.453 . S
N147 N146 1.234 1_554 S
C148 H143 0.929 . S
C148 C149 1.373 . S
C148 C150 1.368 . S
C149 C148 1.373 . S
C149 C153 1.397 1_556 S
C150 N146 1.453 . S
C150 C148 1.368 . S
C150 C151 1.373 1_556 S
C151 H145 0.930 . S
C151 C150 1.373 1_554 S
C151 C152 1.371 . S
C152 C151 1.371 . S
C152 C153 1.383 . S
C153 H144 0.931 . S
C153 C149 1.397 1_554 S
C153 C152 1.383 . S
H154 C159 0.929 . S
H155 C164 0.931 . S
H156 C162 0.930 1_565 S
N157 N158 1.234 . S
N157 C161 1.453 . S
N158 N157 1.234 . S
C159 H154 0.929 . S
C159 C160 1.373 . S
C159 C161 1.368 1_545 S
C160 C159 1.373 . S
C160 C164 1.397 . S
C161 N157 1.453 . S
C161 C159 1.368 1_565 S
C161 C162 1.373 1_565 S
C162 H156 0.930 1_545 S
C162 C161 1.373 1_545 S
C162 C163 1.371 . S
C163 C162 1.371 . S
C163 C164 1.383 . S
C164 H155 0.931 . S
C164 C160 1.397 . S
C164 C163 1.383 . S
H165 C170 0.929 . S
H166 C175 0.931 1_556 S
H167 C173 0.930 . S
N168 N169 1.234 1_554 S
N168 C172 1.453 . S
N169 N168 1.234 1_556 S
C170 H165 0.929 . S
C170 C171 1.373 . S
C170 C172 1.368 . S
C171 C170 1.373 . S
C171 C175 1.397 . S
C172 N168 1.453 . S
C172 C170 1.368 . S
C172 C173 1.373 1_554 S
C173 H167 0.930 . S
C173 C172 1.373 1_556 S
C173 C174 1.371 . S
C174 C173 1.371 . S
C174 C175 1.383 1_556 S
C175 H166 0.931 1_554 S
C175 C171 1.397 . S
C175 C174 1.383 1_554 S
C21 C127 1.459 . S
C40 C94 1.564 . S
C108 C54 1.438 . S
C73 C119 1.521 . S
C152 C74 1.424 . S
C163 C10 1.534 . S
C171 C37 1.488 . S
C138 C65 1.549 . S
C52 C105 1.431 . S
C87 C116 1.538 . S
C15 C130 1.491 . S
C97 C32 1.485 . S
C29 C174 1.464 . S
C141 C59 1.580 . S
C149 C84 1.433 . S
C8 C160 1.455 . S
N92 C7 1.586 . S
N103 C30 1.492 . S
C62 N114 1.634 1_554 S
C81 N125 1.502 . S
N136 C76 1.592 . S
C18 N147 1.498 . S
C43 N158 1.613 . S
C51 N169 1.506 1_554 S
