# Generated by pormake.
# Topology tsx, (6,3)-cn, num edge types: 1
# Building blocks:
#     Node 0, Type 0, BuildingBlock: CIFDUS_clean_sbu_1, # of connection points: 6
#     Node 1, Type 0, BuildingBlock: CIFDUS_clean_sbu_1, # of connection points: 6
#     Node 2, Type 1, BuildingBlock: CUQRIR_clean_linker_1, # of connection points: 3
#     Node 3, Type 1, BuildingBlock: CUQRIR_clean_linker_1, # of connection points: 3
#     Node 4, Type 1, BuildingBlock: CUQRIR_clean_linker_1, # of connection points: 3
#     Node 5, Type 1, BuildingBlock: CUQRIR_clean_linker_1, # of connection points: 3
#     Edge 6, Type (0, 1), None
#     Edge 7, Type (0, 1), None
#     Edge 8, Type (0, 1), None
#     Edge 9, Type (0, 1), None
#     Edge 10, Type (0, 1), None
#     Edge 11, Type (0, 1), None
#     Edge 12, Type (0, 1), None
#     Edge 13, Type (0, 1), None
#     Edge 14, Type (0, 1), None
#     Edge 15, Type (0, 1), None
#     Edge 16, Type (0, 1), None
#     Edge 17, Type (0, 1), None
# Relax obj value: 0.169
# Max RMSD: 0.161
# Mean RMSD: 0.152
data_MOF--net-tsx--node1-CIFDUS_clean_sbu_1--node2-CUQRIR_clean_linker_1--edge1-none
_symmetry_space_group_name_H-M    P1
_symmetry_Int_Tables_number       1
_symmetry_cell_setting            triclinic
loop_
_symmetry_equiv_pos_as_xyz
'x, y, z'
_cell_length_a     7.5350738
_cell_length_b     7.8981707
_cell_length_c     13.447374
_cell_angle_alpha  79.639229
_cell_angle_beta   84.970971
_cell_angle_gamma 90.268282
loop_
_atom_site_label
_atom_site_type_symbol
_atom_site_fract_x
_atom_site_fract_y
_atom_site_fract_z
_atom_type_partial_charge
O0 O 0.84988 0.38504 0.94925 0.0
Mn1 Mn 0.01498 0.13429 -0.02023 0.0
O2 O 0.61644 0.24681 0.92959 0.0
Mn3 Mn 0.80447 0.11944 0.97428 0.0
O4 O 0.16399 0.90057 0.95307 0.0
O5 O 0.22926 0.31583 0.00907 0.0
Mn6 Mn 0.29434 0.09058 0.06022 0.0
O7 O 0.94337 0.09795 0.13788 0.0
O8 O 0.42719 0.97467 0.96972 0.0
O9 O 0.08443 0.18601 0.82164 0.0
O10 O 0.80862 0.14362 0.83066 0.0
O11 O 0.43733 0.21918 0.11318 0.0
O12 O 0.17976 0.96711 0.18189 0.0
C13 C 0.70471 0.86575 0.07291 0.0
C14 C 0.68996 0.39041 0.91821 0.0
C15 C 0.33216 0.87667 0.93395 0.0
C16 C 0.36141 0.348 0.06607 0.0
C17 C 0.02444 1.01174 0.20793 0.0
C18 C 0.94649 0.1918 0.77465 0.0
O19 O 0.82897 0.89207 -0.00209 0.0
O20 O 0.65478 1.00932 0.09015 0.0
O21 O 0.34988 0.88504 0.44925 0.0
Mn22 Mn 0.51498 0.63429 0.47977 0.0
O23 O 0.11644 0.74681 0.42959 0.0
Mn24 Mn 0.30447 0.61944 0.47428 0.0
O25 O 0.66399 0.40057 0.45307 0.0
O26 O 0.72926 0.81583 0.50907 0.0
Mn27 Mn 0.79434 0.59058 0.56022 0.0
O28 O 0.44337 0.59795 0.63788 0.0
O29 O 0.92719 0.47467 0.46972 0.0
O30 O 0.58443 0.68601 0.32164 0.0
O31 O 0.30862 0.64362 0.33066 0.0
O32 O 0.93733 0.71918 0.61318 0.0
O33 O 0.67976 0.46711 0.68189 0.0
C34 C 0.20471 0.36575 0.57291 0.0
C35 C 0.18996 0.89041 0.41821 0.0
C36 C 0.83216 0.37667 0.43395 0.0
C37 C 0.86141 0.848 0.56607 0.0
C38 C 0.52444 0.51174 0.70793 0.0
C39 C 0.44649 0.6918 0.27465 0.0
O40 O 0.32897 0.39207 0.49791 0.0
O41 O 0.15478 0.50932 0.59015 0.0
C42 C 0.08682 0.19076 0.38928 0.0
N43 N 0.10687 1.03216 0.36585 0.0
N44 N 0.90983 0.23853 0.39175 0.0
C45 C 0.21081 0.31341 0.3241 0.0
C46 C 0.84553 0.12533 0.33716 0.0
N47 N -0.02557 1.01607 0.3092 0.0
C48 C 0.65369 0.08865 0.33298 0.0
H49 H 0.34681 0.31165 0.34633 0.0
H50 H 0.14158 0.4331 0.31745 0.0
H51 H 0.22595 0.27949 0.24863 0.0
H52 H 0.61543 0.11233 0.2552 0.0
H53 H 0.56912 0.15385 0.38453 0.0
H54 H 0.63262 0.95163 0.35626 0.0
C55 C 0.10023 0.05807 0.5895 0.0
N56 N 0.10541 0.21477 0.61683 0.0
N57 N 0.92637 1.01046 0.57551 0.0
C58 C 0.20365 0.93173 0.65561 0.0
C59 C 0.83566 0.11869 0.62785 0.0
N60 N 0.94888 0.21743 0.66997 0.0
C61 C 0.63563 0.11224 0.64466 0.0
H62 H 0.24243 0.82132 0.6212 0.0
H63 H 0.11621 0.88923 0.72588 0.0
H64 H 0.3158 0.99402 0.68167 0.0
H65 H 0.57415 0.17465 0.57724 0.0
H66 H 0.58073 0.1683 0.70998 0.0
H67 H 0.58934 0.9782 0.65194 0.0
C68 C 0.58682 0.69076 0.88928 0.0
N69 N 0.60687 0.53216 0.86585 0.0
N70 N 0.40983 0.73853 0.89175 0.0
C71 C 0.71081 0.81341 0.8241 0.0
C72 C 0.34553 0.62533 0.83716 0.0
N73 N 0.47443 0.51607 0.8092 0.0
C74 C 0.15369 0.58865 0.83298 0.0
H75 H 0.84681 0.81165 0.84633 0.0
H76 H 0.64158 0.9331 0.81745 0.0
H77 H 0.72595 0.77949 0.74863 0.0
H78 H 0.11543 0.61233 0.7552 0.0
H79 H 0.06912 0.65385 0.88453 0.0
H80 H 0.13262 0.45163 0.85626 0.0
C81 C 0.60023 0.55807 0.0895 0.0
N82 N 0.60541 0.71477 0.11683 0.0
N83 N 0.42637 0.51046 0.07551 0.0
C84 C 0.70365 0.43173 0.15561 0.0
C85 C 0.33566 0.61869 0.12785 0.0
N86 N 0.44888 0.71743 0.16997 0.0
C87 C 0.13563 0.61224 0.14466 0.0
H88 H 0.74243 0.32132 0.1212 0.0
H89 H 0.61621 0.38923 0.22588 0.0
H90 H 0.8158 0.49402 0.18167 0.0
H91 H 0.07415 0.67465 0.07724 0.0
H92 H 0.08073 0.6683 0.20998 0.0
H93 H 0.08934 0.4782 0.15194 0.0
loop_
_geom_bond_atom_site_label_1
_geom_bond_atom_site_label_2
_geom_bond_distance
_geom_bond_site_symmetry_2
_ccdc_geom_bond_type
O0 Mn1 2.163 1_655 S
O0 C14 1.244 1_554 S
Mn1 O0 2.163 1_455 S
Mn1 O4 2.160 1_544 S
Mn1 O5 2.221 . S
Mn1 O7 2.163 1_545 S
Mn1 O9 2.160 1_554 S
Mn1 O19 2.221 1_444 S
O2 Mn3 2.087 . S
O2 C14 1.256 . S
Mn3 O2 2.087 . S
Mn3 O10 2.089 . S
Mn3 O19 2.290 1_545 S
Mn3 O20 2.251 1_546 S
O4 Mn1 2.160 1_566 S
O4 C15 1.239 1_556 S
O5 Mn1 2.221 . S
O5 Mn6 2.290 . S
O5 C16 1.278 . S
Mn6 O5 2.290 . S
Mn6 O8 2.089 1_545 S
Mn6 O11 2.251 . S
Mn6 O12 2.087 . S
O7 Mn1 2.163 1_565 S
O7 C17 1.244 1_565 S
O8 Mn6 2.089 1_565 S
O8 C15 1.256 . S
O9 Mn1 2.160 1_556 S
O9 C18 1.239 1_455 S
O10 Mn3 2.089 . S
O10 C18 1.256 . S
O11 Mn6 2.251 . S
O11 C16 1.241 . S
O12 Mn6 2.087 . S
O12 C17 1.256 . S
C13 O19 1.278 1_554 S
C13 O20 1.241 . S
C14 O0 1.244 1_556 S
C14 O2 1.256 . S
C15 O4 1.239 1_554 S
C15 O8 1.256 . S
C16 O5 1.278 . S
C16 O11 1.241 . S
C17 O7 1.244 1_545 S
C17 O12 1.256 . S
C18 O9 1.239 1_655 S
C18 O10 1.256 . S
O19 Mn1 2.221 1_666 S
O19 Mn3 2.290 1_565 S
O19 C13 1.278 1_556 S
O20 Mn3 2.251 1_564 S
O20 C13 1.241 . S
O21 Mn22 2.163 . S
O21 C35 1.244 . S
Mn22 O21 2.163 . S
Mn22 O25 2.160 . S
Mn22 O26 2.221 . S
Mn22 O28 2.163 . S
Mn22 O30 2.160 . S
Mn22 O40 2.221 . S
O23 Mn24 2.087 . S
O23 C35 1.256 . S
Mn24 O23 2.087 . S
Mn24 O31 2.089 . S
Mn24 O40 2.290 . S
Mn24 O41 2.251 . S
O25 Mn22 2.160 . S
O25 C36 1.239 . S
O26 Mn22 2.221 . S
O26 Mn27 2.290 1_655 S
O26 C37 1.278 . S
Mn27 O26 2.290 1_455 S
Mn27 O29 2.089 1_455 S
Mn27 O32 2.251 1_455 S
Mn27 O33 2.087 1_455 S
O28 Mn22 2.163 . S
O28 C38 1.244 . S
O29 Mn27 2.089 1_655 S
O29 C36 1.256 . S
O30 Mn22 2.160 . S
O30 C39 1.239 . S
O31 Mn24 2.089 . S
O31 C39 1.256 . S
O32 Mn27 2.251 1_655 S
O32 C37 1.241 . S
O33 Mn27 2.087 1_655 S
O33 C38 1.256 . S
C34 O40 1.278 . S
C34 O41 1.241 . S
C35 O21 1.244 . S
C35 O23 1.256 . S
C36 O25 1.239 . S
C36 O29 1.256 . S
C37 O26 1.278 . S
C37 O32 1.241 . S
C38 O28 1.244 . S
C38 O33 1.256 . S
C39 O30 1.239 . S
C39 O31 1.256 . S
O40 Mn22 2.221 . S
O40 Mn24 2.290 . S
O40 C34 1.278 . S
O41 Mn24 2.251 . S
O41 C34 1.241 . S
C42 N43 1.317 1_545 S
C42 N44 1.348 1_455 S
C42 C45 1.485 1_545 S
N43 C42 1.317 1_565 S
N43 N47 1.370 1_565 S
N44 C42 1.348 1_655 S
N44 C46 1.346 . S
C45 C42 1.485 1_565 S
C45 H49 0.960 . S
C45 H50 0.961 1_565 S
C45 H51 0.960 . S
C46 N44 1.346 . S
C46 N47 1.307 1_655 S
C46 C48 1.486 . S
N47 N43 1.370 1_545 S
N47 C46 1.307 1_455 S
C48 C46 1.486 . S
C48 H52 0.960 . S
C48 H53 0.960 . S
C48 H54 0.959 . S
H49 C45 0.960 . S
H50 C45 0.961 1_545 S
H51 C45 0.960 . S
H52 C48 0.960 . S
H53 C48 0.960 . S
H54 C48 0.959 . S
C55 N56 1.317 . S
C55 N57 1.348 1_455 S
C55 C58 1.485 . S
N56 C55 1.317 . S
N56 N60 1.370 . S
N57 C55 1.348 1_655 S
N57 C59 1.346 . S
C58 C55 1.485 . S
C58 H62 0.960 1_455 S
C58 H63 0.961 . S
C58 H64 0.960 . S
C59 N57 1.346 . S
C59 N60 1.307 1_655 S
C59 C61 1.486 1_545 S
N60 N56 1.370 . S
N60 C59 1.307 1_455 S
C61 C59 1.486 1_565 S
C61 H65 0.960 . S
C61 H66 0.960 . S
C61 H67 0.959 . S
H62 C58 0.960 1_655 S
H63 C58 0.961 . S
H64 C58 0.960 . S
H65 C61 0.960 . S
H66 C61 0.960 . S
H67 C61 0.959 . S
C68 N69 1.317 1_554 S
C68 N70 1.348 . S
C68 C71 1.485 . S
N69 C68 1.317 1_556 S
N69 N73 1.370 . S
N70 C68 1.348 . S
N70 C72 1.346 1_554 S
C71 C68 1.485 . S
C71 H75 0.960 . S
C71 H76 0.961 . S
C71 H77 0.960 . S
C72 N70 1.346 1_556 S
C72 N73 1.307 . S
C72 C74 1.486 . S
N73 N69 1.370 . S
N73 C72 1.307 . S
C74 C72 1.486 . S
C74 H78 0.960 . S
C74 H79 0.960 . S
C74 H80 0.959 . S
H75 C71 0.960 . S
H76 C71 0.961 . S
H77 C71 0.960 . S
H78 C74 0.960 . S
H79 C74 0.960 . S
H80 C74 0.959 . S
C81 N82 1.317 1_556 S
C81 N83 1.348 1_556 S
C81 C84 1.485 . S
N82 C81 1.317 1_554 S
N82 N86 1.370 . S
N83 C81 1.348 1_554 S
N83 C85 1.346 . S
C84 C81 1.485 . S
C84 H88 0.960 . S
C84 H89 0.961 . S
C84 H90 0.960 . S
C85 N83 1.346 . S
C85 N86 1.307 . S
C85 C87 1.486 . S
N86 N82 1.370 . S
N86 C85 1.307 . S
C87 C85 1.486 . S
C87 H91 0.960 . S
C87 H92 0.960 . S
C87 H93 0.959 . S
H88 C84 0.960 . S
H89 C84 0.961 . S
H90 C84 0.960 . S
H91 C87 0.960 . S
H92 C87 0.960 . S
H93 C87 0.959 . S
N83 C16 1.398 . S
C15 N70 1.674 . S
C13 N82 1.199 . S
C14 N69 1.391 . S
C37 N57 1.398 1_565 S
C36 N44 1.674 . S
N56 C34 1.199 . S
N43 C35 1.391 . S
C17 N47 1.586 . S
C18 N60 1.326 1_655 S
N73 C38 1.586 . S
C39 N86 1.326 . S
