# Generated by pormake.
# Topology llj, (12,3)-cn, num edge types: 1
# Building blocks:
#     Node 0, Type 0, BuildingBlock: QEWDON_clean_sbu_0, # of connection points: 12
#     Node 1, Type 0, BuildingBlock: QEWDON_clean_sbu_0, # of connection points: 12
#     Node 2, Type 1, BuildingBlock: CUQRIR_clean_linker_1, # of connection points: 3
#     Node 3, Type 1, BuildingBlock: CUQRIR_clean_linker_1, # of connection points: 3
#     Node 4, Type 1, BuildingBlock: CUQRIR_clean_linker_1, # of connection points: 3
#     Node 5, Type 1, BuildingBlock: CUQRIR_clean_linker_1, # of connection points: 3
#     Node 6, Type 1, BuildingBlock: CUQRIR_clean_linker_1, # of connection points: 3
#     Node 7, Type 1, BuildingBlock: CUQRIR_clean_linker_1, # of connection points: 3
#     Node 8, Type 1, BuildingBlock: CUQRIR_clean_linker_1, # of connection points: 3
#     Node 9, Type 1, BuildingBlock: CUQRIR_clean_linker_1, # of connection points: 3
#     Edge 10, Type (0, 1), None
#     Edge 11, Type (0, 1), None
#     Edge 12, Type (0, 1), None
#     Edge 13, Type (0, 1), None
#     Edge 14, Type (0, 1), None
#     Edge 15, Type (0, 1), None
#     Edge 16, Type (0, 1), None
#     Edge 17, Type (0, 1), None
#     Edge 18, Type (0, 1), None
#     Edge 19, Type (0, 1), None
#     Edge 20, Type (0, 1), None
#     Edge 21, Type (0, 1), None
#     Edge 22, Type (0, 1), None
#     Edge 23, Type (0, 1), None
#     Edge 24, Type (0, 1), None
#     Edge 25, Type (0, 1), None
#     Edge 26, Type (0, 1), None
#     Edge 27, Type (0, 1), None
#     Edge 28, Type (0, 1), None
#     Edge 29, Type (0, 1), None
#     Edge 30, Type (0, 1), None
#     Edge 31, Type (0, 1), None
#     Edge 32, Type (0, 1), None
#     Edge 33, Type (0, 1), None
# Relax obj value: 0.011
# Max RMSD: 0.086
# Mean RMSD: 0.077
data_MOF--net-llj--node1-QEWDON_clean_sbu_0--node2-CUQRIR_clean_linker_1--edge1-none
_symmetry_space_group_name_H-M    P1
_symmetry_Int_Tables_number       1
_symmetry_cell_setting            triclinic
loop_
_symmetry_equiv_pos_as_xyz
'x, y, z'
_cell_length_a     18.734516
_cell_length_b     18.724704
_cell_length_c     10.052948
_cell_angle_alpha  89.987644
_cell_angle_beta   90.039543
_cell_angle_gamma 90.048397
loop_
_atom_site_label
_atom_site_type_symbol
_atom_site_fract_x
_atom_site_fract_y
_atom_site_fract_z
_atom_type_partial_charge
Zn0 Zn 0.91044 0.14477 0.8834 0.0
Zn1 Zn 0.89118 0.13619 0.20471 0.0
O2 O 0.95121 0.10488 0.05265 0.0
H3 H -0.01657 0.06485 0.05348 0.0
C4 C 0.79236 0.00278 0.64116 0.0
O5 O 0.8446 0.96496 0.58997 0.0
Zn6 Zn 0.06156 0.8154 0.20476 0.0
Zn7 Zn 0.04236 0.80694 0.88351 0.0
O8 O 0.00147 0.84664 0.05261 0.0
H9 H 0.96912 0.88658 0.05373 0.0
Zn10 Zn 0.80823 0.91039 0.8835 0.0
O11 O 0.84822 0.95094 0.05296 0.0
Zn12 Zn 0.81658 0.89078 0.20475 0.0
H13 H 0.88862 -0.01723 0.05403 0.0
Zn14 Zn 0.14452 0.04117 0.88302 0.0
O15 O 0.10429 0.00094 0.05247 0.0
H16 H 0.0643 0.96859 0.05344 0.0
Zn17 Zn 0.1361 0.06097 0.20436 0.0
C18 C 0.16049 0.94883 0.64084 0.0
O19 O 0.10836 -0.01323 0.58943 0.0
O20 O 0.83144 0.21766 0.91997 0.0
O21 O 0.82635 0.21755 0.13935 0.0
O22 O 0.12153 0.73419 0.92021 0.0
O23 O 0.12646 0.73405 0.13962 0.0
O24 O 0.73507 0.83138 0.91946 0.0
O25 O 0.73516 0.82612 0.13882 0.0
C26 C 0.02338 0.15563 0.35081 0.0
O27 O 0.21782 0.12008 0.91903 0.0
O28 O 0.21752 0.1256 0.13838 0.0
O29 O 0.96457 0.76987 0.75778 0.0
C30 C 0.80668 0.2434 0.02753 0.0
O31 O -0.01176 0.18172 0.75768 0.0
C32 C 0.92941 0.79599 0.35082 0.0
O33 O 0.77134 -0.0117 0.75789 0.0
C34 C 0.14626 0.70836 0.0278 0.0
O35 O 0.18136 0.96315 0.75778 0.0
C36 C 0.79678 0.023 0.35056 0.0
O37 O 0.95732 0.17195 0.35263 0.0
O38 O 0.04556 0.11385 0.25992 0.0
C39 C 0.70923 0.80659 0.02697 0.0
O40 O -0.00454 0.77963 0.35264 0.0
O41 O 0.90719 0.83788 0.26005 0.0
C42 C 0.156 0.92871 0.35022 0.0
O43 O 0.78063 0.95683 0.35251 0.0
O44 O 0.83852 0.04534 0.25973 0.0
C45 C 0.24358 0.14496 0.02657 0.0
O46 O 0.17216 -0.00513 0.35205 0.0
O47 O 0.11417 0.90635 0.25947 0.0
C48 C 0.9499 0.79123 0.64131 0.0
O49 O -0.01233 0.84366 0.59032 0.0
C50 C 0.00292 0.16033 0.64128 0.0
O51 O 0.96515 0.10789 0.59026 0.0
Zn52 Zn 0.41081 0.64447 0.38329 0.0
Zn53 Zn 0.39109 0.63588 0.7046 0.0
O54 O 0.4512 0.60441 0.55276 0.0
H55 H 0.48332 0.56428 0.55379 0.0
C56 C 0.29233 0.50234 0.14186 0.0
O57 O 0.34478 0.46473 0.0909 0.0
Zn58 Zn 0.56166 0.3157 0.70465 0.0
Zn59 Zn 0.54199 0.30721 0.38341 0.0
O60 O 0.50148 0.3471 0.55272 0.0
H61 H 0.46925 0.38713 0.55404 0.0
Zn62 Zn 0.30821 0.40988 0.38411 0.0
O63 O 0.3479 0.45074 0.55348 0.0
Zn64 Zn 0.31653 0.3905 0.70536 0.0
H65 H 0.38814 0.48276 0.55444 0.0
Zn66 Zn 0.64455 0.5417 0.38363 0.0
O67 O 0.60462 0.50115 0.55298 0.0
H68 H 0.5648 0.4686 0.55383 0.0
Zn69 Zn 0.63615 0.56125 0.70496 0.0
C70 C 0.6605 0.44927 0.14155 0.0
O71 O 0.60814 0.48699 0.09037 0.0
O72 O 0.33178 0.71744 0.41927 0.0
O73 O 0.32624 0.71706 0.63861 0.0
O74 O 0.6212 0.2344 0.41952 0.0
O75 O 0.62658 0.23453 0.63889 0.0
O76 O 0.23547 0.33055 0.42046 0.0
O77 O 0.23514 0.32569 0.63986 0.0
C78 C 0.52322 0.65593 0.85054 0.0
O79 O 0.71743 0.62091 0.42004 0.0
O80 O 0.71754 0.62604 0.63943 0.0
O81 O 0.46409 0.27004 0.25803 0.0
C82 C 0.30681 0.74306 0.52676 0.0
O83 O 0.48872 0.68152 0.25793 0.0
C84 C 0.42957 0.29568 0.85055 0.0
O85 O 0.27107 0.48764 0.25836 0.0
C86 C 0.64614 0.2087 0.52705 0.0
O87 O 0.68163 0.46383 0.25823 0.0
C88 C 0.29689 0.52269 0.85131 0.0
O89 O 0.45713 0.67212 0.85227 0.0
O90 O 0.54548 0.61402 0.75994 0.0
C91 C 0.20952 0.30585 0.52795 0.0
O92 O 0.49566 0.27946 0.85227 0.0
O93 O 0.40727 0.3377 0.76008 0.0
C94 C 0.65588 0.42902 0.85097 0.0
O95 O 0.28079 0.45651 0.85333 0.0
O96 O 0.33852 0.54505 0.76031 0.0
C97 C 0.74329 0.64571 0.52756 0.0
O98 O 0.67201 0.49519 0.85287 0.0
O99 O 0.61416 0.40663 0.76004 0.0
C100 C 0.44978 0.29095 0.14113 0.0
O101 O 0.48771 0.3432 0.08992 0.0
C102 C 0.50305 0.66057 0.1411 0.0
O103 O 0.46511 0.60832 0.08985 0.0
C104 C 0.32731 0.22389 0.90937 0.0
N105 N 0.38373 0.26625 0.94067 0.0
N106 N 0.29957 0.19247 0.02083 0.0
C107 C 0.31144 0.19912 0.7689 0.0
C108 C 0.34358 0.21564 0.12047 0.0
N109 N 0.39542 0.25943 0.07086 0.0
C110 C 0.34068 0.19241 0.26535 0.0
H111 H 0.25383 0.20317 0.74728 0.0
H112 H 0.32651 0.14203 0.75951 0.0
H113 H 0.34089 0.22915 0.69163 0.0
H114 H 0.38851 0.15963 0.28789 0.0
H115 H 0.29407 0.16102 0.29638 0.0
H116 H 0.34206 0.24022 0.33044 0.0
C117 C 0.72759 0.32684 0.91015 0.0
N118 N 0.6852 0.38318 0.94126 0.0
N119 N 0.75898 0.29917 0.02172 0.0
C120 C 0.75238 0.31099 0.76975 0.0
C121 C 0.73565 0.34306 0.12128 0.0
N122 N 0.69195 0.39487 0.07146 0.0
C123 C 0.75839 0.33987 0.26642 0.0
H124 H 0.74821 0.25334 0.74827 0.0
H125 H 0.80948 0.32604 0.76046 0.0
H126 H 0.72249 0.34046 0.69234 0.0
H127 H 0.79192 0.38722 0.28914 0.0
H128 H 0.78872 0.29267 0.29792 0.0
H129 H 0.71047 0.34201 0.33103 0.0
C130 C 0.60929 0.73582 0.12068 0.0
N131 N 0.55743 0.69207 0.07094 0.0
N132 N 0.65328 0.75903 0.02113 0.0
C133 C 0.61232 0.75887 0.26564 0.0
C134 C 0.62554 0.72763 0.90961 0.0
N135 N 0.5691 0.68529 0.94077 0.0
C136 C 0.64147 0.75238 0.76918 0.0
H137 H 0.56469 0.79193 0.28813 0.0
H138 H 0.65915 0.78987 0.29693 0.0
H139 H 0.61064 0.711 0.3306 0.0
H140 H 0.69908 0.74819 0.74776 0.0
H141 H 0.62654 0.80951 0.75972 0.0
H142 H 0.61196 0.72244 0.69183 0.0
C143 C 0.21734 0.60867 0.12159 0.0
N144 N 0.26094 0.55681 0.07176 0.0
N145 N 0.19399 0.65262 0.02204 0.0
C146 C 0.19488 0.61198 0.2668 0.0
C147 C 0.22533 0.62497 0.91049 0.0
N148 N 0.26766 0.56854 0.94158 0.0
C149 C 0.20059 0.64103 0.77008 0.0
H150 H 0.16095 0.56493 0.28957 0.0
H151 H 0.1651 0.65948 0.29846 0.0
H152 H 0.24287 0.60938 0.33128 0.0
H153 H 0.20496 0.6987 0.74881 0.0
H154 H 0.14345 0.62616 0.76058 0.0
H155 H 0.23039 0.61154 0.69267 0.0
C156 C 0.82691 0.72465 0.41011 0.0
N157 N 0.88351 0.76682 0.44114 0.0
N158 N 0.79919 0.69334 0.5217 0.0
C159 C 0.81066 0.70003 0.26971 0.0
C160 C 0.84328 0.71653 0.6212 0.0
N161 N 0.89528 0.76001 0.5713 0.0
C162 C 0.83997 0.694 0.76643 0.0
H163 H 0.75302 0.70446 0.24858 0.0
H164 H 0.82537 0.64285 0.26012 0.0
H165 H 0.84015 0.72989 0.19228 0.0
H166 H 0.8869 0.65998 0.78918 0.0
H167 H 0.79242 0.66425 0.79815 0.0
H168 H 0.84274 0.742 0.83088 0.0
C169 C 0.23582 0.84274 0.62046 0.0
N170 N 0.19204 0.8945 0.57069 0.0
N171 N 0.25915 0.79886 0.52089 0.0
C172 C 0.25888 0.83979 0.76545 0.0
C173 C 0.22778 0.82656 0.40932 0.0
N174 N 0.18534 0.88286 0.44046 0.0
C175 C 0.25265 0.81079 0.26894 0.0
H176 H 0.2918 0.88758 0.78805 0.0
H177 H 0.29 0.79306 0.79671 0.0
H178 H 0.21104 0.84126 0.83034 0.0
H179 H 0.24869 0.75314 0.24737 0.0
H180 H 0.3097 0.82605 0.2597 0.0
H181 H 0.22264 0.84017 0.19154 0.0
C182 C 0.10959 0.23496 0.6214 0.0
N183 N 0.05756 0.19153 0.57137 0.0
N184 N 0.15366 0.25818 0.52199 0.0
C185 C 0.113 0.25735 0.76668 0.0
C186 C 0.12595 0.22688 0.41035 0.0
N187 N 0.06932 0.18473 0.44123 0.0
C188 C 0.14228 0.25146 0.26999 0.0
H189 H 0.06626 0.2916 0.78937 0.0
H190 H 0.16073 0.28677 0.79861 0.0
H191 H 0.10997 0.20932 0.83104 0.0
H192 H 0.19992 0.24687 0.2491 0.0
H193 H 0.12771 0.30868 0.26029 0.0
H194 H 0.11274 0.22169 0.19247 0.0
C195 C 0.71723 0.10902 0.6208 0.0
N196 N 0.76089 0.05719 0.57101 0.0
N197 N 0.69385 0.15293 0.52122 0.0
C198 C 0.69451 0.11213 0.7659 0.0
C199 C 0.72515 0.12525 0.40966 0.0
N200 N 0.76753 0.06887 0.4408 0.0
C201 C 0.7003 0.14117 0.26926 0.0
H202 H 0.6611 0.0647 0.78857 0.0
H203 H 0.66405 0.15923 0.79737 0.0
H204 H 0.74245 0.1101 0.83059 0.0
H205 H 0.70441 0.19883 0.24785 0.0
H206 H 0.64321 0.12606 0.25988 0.0
H207 H 0.73021 0.11176 0.19188 0.0
loop_
_geom_bond_atom_site_label_1
_geom_bond_atom_site_label_2
_geom_bond_distance
_geom_bond_site_symmetry_2
_ccdc_geom_bond_type
Zn0 O2 1.933 1_556 S
Zn0 O20 1.985 . S
Zn0 O31 1.955 . S
Zn1 O2 1.911 . S
Zn1 O21 1.970 . S
Zn1 O37 1.945 . S
Zn1 O44 1.981 . S
O2 Zn0 1.933 1_554 S
O2 Zn1 1.911 . S
O2 H3 0.841 1_655 S
H3 O2 0.841 1_455 S
C4 O5 1.246 . S
C4 O33 1.276 1_545 S
O5 C4 1.246 . S
Zn6 O8 1.911 . S
Zn6 O23 1.970 . S
Zn6 O40 1.945 . S
Zn6 O47 1.981 . S
Zn7 O8 1.933 1_556 S
Zn7 O22 1.985 . S
Zn7 O29 1.955 . S
O8 Zn6 1.911 . S
O8 Zn7 1.933 1_554 S
O8 H9 0.841 1_455 S
H9 O8 0.841 1_655 S
Zn10 O11 1.933 1_556 S
Zn10 O24 1.985 . S
Zn10 O33 1.955 . S
O11 Zn10 1.933 1_554 S
O11 Zn12 1.911 . S
O11 H13 0.841 1_565 S
Zn12 O11 1.911 . S
Zn12 O25 1.970 . S
Zn12 O41 1.981 . S
Zn12 O43 1.945 . S
H13 O11 0.841 1_545 S
Zn14 O15 1.933 1_556 S
Zn14 O27 1.985 . S
Zn14 O35 1.955 . S
O15 Zn14 1.933 1_554 S
O15 H16 0.841 1_545 S
O15 Zn17 1.911 . S
H16 O15 0.841 1_565 S
Zn17 O15 1.911 . S
Zn17 O28 1.970 . S
Zn17 O38 1.981 . S
Zn17 O46 1.945 . S
C18 O19 1.246 . S
C18 O35 1.276 1_565 S
O19 C18 1.246 . S
O20 Zn0 1.985 . S
O20 C30 1.245 1_556 S
O21 Zn1 1.970 . S
O21 C30 1.263 . S
O22 Zn7 1.985 . S
O22 C34 1.245 1_556 S
O23 Zn6 1.970 . S
O23 C34 1.263 . S
O24 Zn10 1.985 . S
O24 C39 1.245 1_556 S
O25 Zn12 1.970 . S
O25 C39 1.263 . S
C26 O37 1.262 1_455 S
C26 O38 1.245 . S
O27 Zn14 1.985 . S
O27 C45 1.245 1_556 S
O28 Zn17 1.970 . S
O28 C45 1.263 . S
O29 Zn7 1.955 . S
O29 C48 1.276 1_455 S
C30 O20 1.245 1_554 S
C30 O21 1.263 . S
O31 Zn0 1.955 . S
O31 C50 1.276 1_655 S
C32 O40 1.262 1_655 S
C32 O41 1.245 . S
O33 C4 1.276 1_565 S
O33 Zn10 1.955 . S
C34 O22 1.245 1_554 S
C34 O23 1.263 . S
O35 Zn14 1.955 . S
O35 C18 1.276 1_545 S
C36 O43 1.262 1_545 S
C36 O44 1.245 . S
O37 Zn1 1.945 . S
O37 C26 1.262 1_655 S
O38 Zn17 1.981 . S
O38 C26 1.245 . S
C39 O24 1.245 1_554 S
C39 O25 1.263 . S
O40 Zn6 1.945 . S
O40 C32 1.262 1_455 S
O41 Zn12 1.981 . S
O41 C32 1.245 . S
C42 O46 1.262 1_565 S
C42 O47 1.245 . S
O43 Zn12 1.945 . S
O43 C36 1.262 1_565 S
O44 Zn1 1.981 . S
O44 C36 1.245 . S
C45 O27 1.245 1_554 S
C45 O28 1.263 . S
O46 Zn17 1.945 . S
O46 C42 1.262 1_545 S
O47 Zn6 1.981 . S
O47 C42 1.245 . S
C48 O29 1.276 1_655 S
C48 O49 1.246 . S
O49 C48 1.246 . S
C50 O31 1.276 1_455 S
C50 O51 1.246 . S
O51 C50 1.246 . S
Zn52 O54 1.933 . S
Zn52 O72 1.985 . S
Zn52 O83 1.955 . S
Zn53 O54 1.911 . S
Zn53 O73 1.970 . S
Zn53 O89 1.945 . S
Zn53 O96 1.981 . S
O54 Zn52 1.933 . S
O54 Zn53 1.911 . S
O54 H55 0.841 . S
H55 O54 0.841 . S
C56 O57 1.246 . S
C56 O85 1.276 . S
O57 C56 1.246 . S
Zn58 O60 1.911 . S
Zn58 O75 1.970 . S
Zn58 O92 1.945 . S
Zn58 O99 1.981 . S
Zn59 O60 1.933 . S
Zn59 O74 1.985 . S
Zn59 O81 1.955 . S
O60 Zn58 1.911 . S
O60 Zn59 1.933 . S
O60 H61 0.841 . S
H61 O60 0.841 . S
Zn62 O63 1.933 . S
Zn62 O76 1.985 . S
Zn62 O85 1.955 . S
O63 Zn62 1.933 . S
O63 Zn64 1.911 . S
O63 H65 0.841 . S
Zn64 O63 1.911 . S
Zn64 O77 1.970 . S
Zn64 O93 1.981 . S
Zn64 O95 1.945 . S
H65 O63 0.841 . S
Zn66 O67 1.933 . S
Zn66 O79 1.985 . S
Zn66 O87 1.955 . S
O67 Zn66 1.933 . S
O67 H68 0.841 . S
O67 Zn69 1.911 . S
H68 O67 0.841 . S
Zn69 O67 1.911 . S
Zn69 O80 1.970 . S
Zn69 O90 1.981 . S
Zn69 O98 1.945 . S
C70 O71 1.246 . S
C70 O87 1.276 . S
O71 C70 1.246 . S
O72 Zn52 1.985 . S
O72 C82 1.245 . S
O73 Zn53 1.970 . S
O73 C82 1.263 . S
O74 Zn59 1.985 . S
O74 C86 1.245 . S
O75 Zn58 1.970 . S
O75 C86 1.263 . S
O76 Zn62 1.985 . S
O76 C91 1.245 . S
O77 Zn64 1.970 . S
O77 C91 1.263 . S
C78 O89 1.262 . S
C78 O90 1.245 . S
O79 Zn66 1.985 . S
O79 C97 1.245 . S
O80 Zn69 1.970 . S
O80 C97 1.263 . S
O81 Zn59 1.955 . S
O81 C100 1.276 . S
C82 O72 1.245 . S
C82 O73 1.263 . S
O83 Zn52 1.955 . S
O83 C102 1.276 . S
C84 O92 1.262 . S
C84 O93 1.245 . S
O85 C56 1.276 . S
O85 Zn62 1.955 . S
C86 O74 1.245 . S
C86 O75 1.263 . S
O87 Zn66 1.955 . S
O87 C70 1.276 . S
C88 O95 1.262 . S
C88 O96 1.245 . S
O89 Zn53 1.945 . S
O89 C78 1.262 . S
O90 Zn69 1.981 . S
O90 C78 1.245 . S
C91 O76 1.245 . S
C91 O77 1.263 . S
O92 Zn58 1.945 . S
O92 C84 1.262 . S
O93 Zn64 1.981 . S
O93 C84 1.245 . S
C94 O98 1.262 . S
C94 O99 1.245 . S
O95 Zn64 1.945 . S
O95 C88 1.262 . S
O96 Zn53 1.981 . S
O96 C88 1.245 . S
C97 O79 1.245 . S
C97 O80 1.263 . S
O98 Zn69 1.945 . S
O98 C94 1.262 . S
O99 Zn58 1.981 . S
O99 C94 1.245 . S
C100 O81 1.276 . S
C100 O101 1.246 . S
O101 C100 1.246 . S
C102 O83 1.276 . S
C102 O103 1.246 . S
O103 C102 1.246 . S
C104 N105 1.317 . S
C104 N106 1.348 1_556 S
C104 C107 1.485 . S
N105 C104 1.317 . S
N105 N109 1.370 1_556 S
N106 C104 1.348 1_554 S
N106 C108 1.346 . S
C107 C104 1.485 . S
C107 H111 0.960 . S
C107 H112 0.961 . S
C107 H113 0.960 . S
C108 N106 1.346 . S
C108 N109 1.307 . S
C108 C110 1.486 . S
N109 N105 1.370 1_554 S
N109 C108 1.307 . S
C110 C108 1.486 . S
C110 H114 0.960 . S
C110 H115 0.960 . S
C110 H116 0.959 . S
H111 C107 0.960 . S
H112 C107 0.961 . S
H113 C107 0.960 . S
H114 C110 0.960 . S
H115 C110 0.960 . S
H116 C110 0.959 . S
C117 N118 1.317 . S
C117 N119 1.348 1_556 S
C117 C120 1.485 . S
N118 C117 1.317 . S
N118 N122 1.370 1_556 S
N119 C117 1.348 1_554 S
N119 C121 1.346 . S
C120 C117 1.485 . S
C120 H124 0.960 . S
C120 H125 0.961 . S
C120 H126 0.960 . S
C121 N119 1.346 . S
C121 N122 1.307 . S
C121 C123 1.486 . S
N122 N118 1.370 1_554 S
N122 C121 1.307 . S
C123 C121 1.486 . S
C123 H127 0.960 . S
C123 H128 0.960 . S
C123 H129 0.959 . S
H124 C120 0.960 . S
H125 C120 0.961 . S
H126 C120 0.960 . S
H127 C123 0.960 . S
H128 C123 0.960 . S
H129 C123 0.959 . S
C130 N131 1.317 . S
C130 N132 1.348 . S
C130 C133 1.485 . S
N131 C130 1.317 . S
N131 N135 1.370 1_554 S
N132 C130 1.348 . S
N132 C134 1.346 1_554 S
C133 C130 1.485 . S
C133 H137 0.960 . S
C133 H138 0.961 . S
C133 H139 0.960 . S
C134 N132 1.346 1_556 S
C134 N135 1.307 . S
C134 C136 1.486 . S
N135 N131 1.370 1_556 S
N135 C134 1.307 . S
C136 C134 1.486 . S
C136 H140 0.960 . S
C136 H141 0.960 . S
C136 H142 0.959 . S
H137 C133 0.960 . S
H138 C133 0.961 . S
H139 C133 0.960 . S
H140 C136 0.960 . S
H141 C136 0.960 . S
H142 C136 0.959 . S
C143 N144 1.317 . S
C143 N145 1.348 . S
C143 C146 1.485 . S
N144 C143 1.317 . S
N144 N148 1.370 1_554 S
N145 C143 1.348 . S
N145 C147 1.346 1_554 S
C146 C143 1.485 . S
C146 H150 0.960 . S
C146 H151 0.961 . S
C146 H152 0.960 . S
C147 N145 1.346 1_556 S
C147 N148 1.307 . S
C147 C149 1.486 . S
N148 N144 1.370 1_556 S
N148 C147 1.307 . S
C149 C147 1.486 . S
C149 H153 0.960 . S
C149 H154 0.960 . S
C149 H155 0.959 . S
H150 C146 0.960 . S
H151 C146 0.961 . S
H152 C146 0.960 . S
H153 C149 0.960 . S
H154 C149 0.960 . S
H155 C149 0.959 . S
C156 N157 1.317 . S
C156 N158 1.348 . S
C156 C159 1.485 . S
N157 C156 1.317 . S
N157 N161 1.370 . S
N158 C156 1.348 . S
N158 C160 1.346 . S
C159 C156 1.485 . S
C159 H163 0.960 . S
C159 H164 0.961 . S
C159 H165 0.960 . S
C160 N158 1.346 . S
C160 N161 1.307 . S
C160 C162 1.486 . S
N161 N157 1.370 . S
N161 C160 1.307 . S
C162 C160 1.486 . S
C162 H166 0.960 . S
C162 H167 0.960 . S
C162 H168 0.959 . S
H163 C159 0.960 . S
H164 C159 0.961 . S
H165 C159 0.960 . S
H166 C162 0.960 . S
H167 C162 0.960 . S
H168 C162 0.959 . S
C169 N170 1.317 . S
C169 N171 1.348 . S
C169 C172 1.485 . S
N170 C169 1.317 . S
N170 N174 1.370 . S
N171 C169 1.348 . S
N171 C173 1.346 . S
C172 C169 1.485 . S
C172 H176 0.960 . S
C172 H177 0.961 . S
C172 H178 0.960 . S
C173 N171 1.346 . S
C173 N174 1.307 . S
C173 C175 1.486 . S
N174 N170 1.370 . S
N174 C173 1.307 . S
C175 C173 1.486 . S
C175 H179 0.960 . S
C175 H180 0.960 . S
C175 H181 0.959 . S
H176 C172 0.960 . S
H177 C172 0.961 . S
H178 C172 0.960 . S
H179 C175 0.960 . S
H180 C175 0.960 . S
H181 C175 0.959 . S
C182 N183 1.317 . S
C182 N184 1.348 . S
C182 C185 1.485 . S
N183 C182 1.317 . S
N183 N187 1.370 . S
N184 C182 1.348 . S
N184 C186 1.346 . S
C185 C182 1.485 . S
C185 H189 0.960 . S
C185 H190 0.961 . S
C185 H191 0.960 . S
C186 N184 1.346 . S
C186 N187 1.307 . S
C186 C188 1.486 . S
N187 N183 1.370 . S
N187 C186 1.307 . S
C188 C186 1.486 . S
C188 H192 0.960 . S
C188 H193 0.960 . S
C188 H194 0.959 . S
H189 C185 0.960 . S
H190 C185 0.961 . S
H191 C185 0.960 . S
H192 C188 0.960 . S
H193 C188 0.960 . S
H194 C188 0.959 . S
C195 N196 1.317 . S
C195 N197 1.348 . S
C195 C198 1.485 . S
N196 C195 1.317 . S
N196 N200 1.370 . S
N197 C195 1.348 . S
N197 C199 1.346 . S
C198 C195 1.485 . S
C198 H202 0.960 . S
C198 H203 0.961 . S
C198 H204 0.960 . S
C199 N197 1.346 . S
C199 N200 1.307 . S
C199 C201 1.486 . S
N200 N196 1.370 . S
N200 C199 1.307 . S
C201 C199 1.486 . S
C201 H205 0.960 . S
C201 H206 0.960 . S
C201 H207 0.959 . S
H202 C198 0.960 . S
H203 C198 0.961 . S
H204 C198 0.960 . S
H205 C201 0.960 . S
H206 C201 0.960 . S
H207 C201 0.959 . S
C45 N106 1.537 . S
C30 N119 1.536 . S
C39 N132 1.525 . S
N145 C34 1.525 . S
C97 N158 1.537 . S
N171 C82 1.525 . S
N184 C91 1.525 . S
N197 C86 1.525 . S
N187 C26 1.453 . S
N200 C36 1.454 . S
N157 C32 1.453 . S
N174 C42 1.456 . S
C18 N170 1.499 . S
N183 C50 1.502 . S
C4 N196 1.500 . S
C48 N161 1.517 . S
N135 C78 1.454 . S
C88 N148 1.454 . S
N105 C84 1.454 . S
N118 C94 1.453 . S
N122 C70 1.517 . S
N131 C102 1.501 . S
C56 N144 1.500 . S
C100 N109 1.517 . S
