# Generated by pormake.
# Topology zzz, (3,6)-cn, num edge types: 1
# Building blocks:
#     Node 0, Type 0, BuildingBlock: ESEHIV_clean_linker_0, # of connection points: 3
#     Node 1, Type 0, BuildingBlock: ESEHIV_clean_linker_0, # of connection points: 3
#     Node 2, Type 0, BuildingBlock: ESEHIV_clean_linker_0, # of connection points: 3
#     Node 3, Type 0, BuildingBlock: ESEHIV_clean_linker_0, # of connection points: 3
#     Node 4, Type 0, BuildingBlock: ESEHIV_clean_linker_0, # of connection points: 3
#     Node 5, Type 0, BuildingBlock: ESEHIV_clean_linker_0, # of connection points: 3
#     Node 6, Type 0, BuildingBlock: ESEHIV_clean_linker_0, # of connection points: 3
#     Node 7, Type 0, BuildingBlock: ESEHIV_clean_linker_0, # of connection points: 3
#     Node 8, Type 1, BuildingBlock: BETGAK_clean_sbu_0, # of connection points: 6
#     Node 9, Type 1, BuildingBlock: BETGAK_clean_sbu_0, # of connection points: 6
#     Node 10, Type 1, BuildingBlock: BETGAK_clean_sbu_0, # of connection points: 6
#     Node 11, Type 1, BuildingBlock: BETGAK_clean_sbu_0, # of connection points: 6
#     Edge 12, Type (0, 1), None
#     Edge 13, Type (0, 1), None
#     Edge 14, Type (0, 1), None
#     Edge 15, Type (0, 1), None
#     Edge 16, Type (0, 1), None
#     Edge 17, Type (0, 1), None
#     Edge 18, Type (0, 1), None
#     Edge 19, Type (0, 1), None
#     Edge 20, Type (0, 1), None
#     Edge 21, Type (0, 1), None
#     Edge 22, Type (0, 1), None
#     Edge 23, Type (0, 1), None
#     Edge 24, Type (0, 1), None
#     Edge 25, Type (0, 1), None
#     Edge 26, Type (0, 1), None
#     Edge 27, Type (0, 1), None
#     Edge 28, Type (0, 1), None
#     Edge 29, Type (0, 1), None
#     Edge 30, Type (0, 1), None
#     Edge 31, Type (0, 1), None
#     Edge 32, Type (0, 1), None
#     Edge 33, Type (0, 1), None
#     Edge 34, Type (0, 1), None
#     Edge 35, Type (0, 1), None
# Relax obj value: 1.075
# Max RMSD: 0.330
# Mean RMSD: 0.245
data_MOF--net-zzz--node1-BETGAK_clean_sbu_0--node2-ESEHIV_clean_linker_0--edge1-none
_symmetry_space_group_name_H-M    P1
_symmetry_Int_Tables_number       1
_symmetry_cell_setting            triclinic
loop_
_symmetry_equiv_pos_as_xyz
'x, y, z'
_cell_length_a     19.474061
_cell_length_b     19.424816
_cell_length_c     6.433822
_cell_angle_alpha  89.655781
_cell_angle_beta   90.08591
_cell_angle_gamma 89.707589
loop_
_atom_site_label
_atom_site_type_symbol
_atom_site_fract_x
_atom_site_fract_y
_atom_site_fract_z
_atom_type_partial_charge
H0 H 0.8998 0.54435 0.30518 0.0
H1 H 0.72541 0.55492 0.95103 0.0
H2 H 0.7157 0.60923 0.60972 0.0
C3 C 0.84865 0.56527 0.3032 0.0
C4 C 0.82036 0.57872 0.49532 0.0
C5 C 0.80842 0.53701 0.15046 0.0
C6 C 0.74613 0.56459 0.10415 0.0
C7 C 0.70398 0.5821 0.26632 0.0
C8 C 0.74304 0.59197 0.474 0.0
H9 H 0.98922 0.85546 0.37343 0.0
H10 H 0.94184 0.7407 0.94853 0.0
H11 H 0.96725 0.72767 0.61509 0.0
C12 C 0.99432 0.8623 0.23937 0.0
C13 C 0.98439 0.83758 0.46534 0.0
C14 C 1.00366 0.8128 1.08536 0.0
C15 C 0.96048 0.75785 0.09694 0.0
C16 C 0.96906 0.713 0.26545 0.0
C17 C 0.97216 0.75399 0.46946 0.0
H18 H 0.69456 0.99542 0.37063 0.0
H19 H 0.8178 0.9458 0.97129 0.0
H20 H 0.81811 0.98173 0.63225 0.0
C21 C 0.6901 1.00223 0.2359 0.0
C22 C 0.70972 0.99047 0.46381 0.0
C23 C 0.74216 1.00732 1.08918 0.0
C24 C 0.79827 0.96631 0.11502 0.0
C25 C 0.8403 0.98105 0.28365 0.0
C26 C 0.79466 0.98372 0.4815 0.0
H27 H 0.53611 0.65081 0.33502 0.0
H28 H 0.61334 0.83577 0.60874 0.0
H29 H 0.51405 0.82847 1.0008 0.0
C30 C 0.5532 0.70343 0.3305 0.0
C31 C 0.51334 0.74264 0.20127 0.0
C32 C 0.57439 0.73109 0.51492 0.0
C33 C 0.58882 0.80795 0.48418 0.0
C34 C 0.56858 0.84675 0.28231 0.0
C35 C 0.53478 0.80638 0.14113 0.0
H36 H 0.14467 0.50971 0.51994 0.0
H37 H 0.33192 0.48736 0.81877 0.0
H38 H 0.31665 0.45118 0.15333 0.0
C39 C 0.19484 0.4887 0.50596 0.0
C40 C 0.21619 0.47814 0.30289 0.0
C41 C 0.24018 0.50942 0.66158 0.0
C42 C 0.30444 0.48199 0.67439 0.0
C43 C 0.34 0.47063 0.49395 0.0
C44 C 0.29381 0.46556 0.29901 0.0
H45 H 0.04508 0.14759 0.48009 0.0
H46 H 0.07702 0.31362 0.84195 0.0
H47 H 0.07619 0.33988 0.17076 0.0
C48 C 0.06332 0.1994 0.48334 0.0
C49 C 0.0697 0.23108 0.29107 0.0
C50 C 0.0415 0.23747 0.65113 0.0
C51 C 0.07281 0.29875 0.68208 0.0
C52 C 0.06847 0.34655 0.5207 0.0
C53 C 0.0716 0.30984 0.30978 0.0
H54 H 0.38792 0.99663 0.44877 0.0
H55 H 0.18021 0.95344 0.59929 0.0
H56 H 0.22972 0.13741 0.27462 0.0
C57 C 0.3345 1.01146 0.442 0.0
C58 C 0.31656 0.06101 0.29739 0.0
C59 C 0.28364 0.9636 0.49844 0.0
C60 C 0.21973 0.98823 0.55312 0.0
C61 C 0.19966 0.05473 0.50512 0.0
C62 C 0.24659 0.09032 0.3496 0.0
H63 H 0.55475 0.39232 0.34146 0.0
H64 H 0.38311 0.25908 0.2644 0.0
H65 H 0.57187 0.18621 0.54551 0.0
C66 C 0.53161 0.34171 0.34443 0.0
C67 C 0.56959 0.28534 0.41061 0.0
C68 C 0.47264 0.33241 0.2375 0.0
C69 C 0.43544 0.26765 0.31393 0.0
C70 C 0.47014 0.21416 0.45754 0.0
C71 C 0.53944 0.22523 0.47772 0.0
La72 La 0.06541 1.02131 0.97679 0.0
La73 La 0.97991 0.04794 0.83953 0.0
C74 C 0.153 0.95179 0.17697 0.0
C75 C 0.17432 0.88109 0.14988 0.0
C76 C 0.17046 0.85691 0.94827 0.0
C77 C 0.11477 0.81537 0.90129 0.0
C78 C 0.07619 0.79058 1.06578 0.0
C79 C 0.11176 0.78321 0.25213 0.0
C80 C 0.1542 0.83636 0.30631 0.0
C81 C 0.13079 0.07276 0.62881 0.0
C82 C 0.99028 0.90048 0.66632 0.0
C83 C 0.87896 0.10808 0.65974 0.0
C84 C 0.84903 0.17832 0.67176 0.0
C85 C 0.86936 0.21178 0.85356 0.0
C86 C 0.93275 0.24417 0.84562 0.0
C87 C 0.96701 0.24485 0.65745 0.0
C88 C 0.92724 0.23958 0.47573 0.0
C89 C 0.86143 0.21633 0.49352 0.0
C90 C 0.92015 0.98659 0.19533 0.0
C91 C 0.06206 0.17174 0.11376 0.0
O92 O 0.16847 0.99341 1.02823 0.0
O93 O 0.08986 0.96059 0.23562 0.0
O94 O 0.13576 0.0953 0.81728 0.0
O95 O 0.07715 0.03256 0.64444 0.0
O96 O 0.04713 0.92176 0.76816 0.0
O97 O 0.94756 0.9523 0.66872 0.0
O98 O 0.87712 0.07335 0.82941 0.0
O99 O 0.93945 0.10083 0.57774 0.0
O100 O 0.93209 0.96098 1.0118 0.0
O101 O 0.964 0.03723 0.17036 0.0
O102 O 1.00377 0.15006 1.02389 0.0
O103 O 0.10291 0.11876 0.12051 0.0
H104 H 0.19535 0.88521 0.8309 0.0
H105 H 0.09641 0.81122 0.74406 0.0
H106 H 0.0919 0.75327 0.37465 0.0
H107 H 0.15455 0.85134 0.46645 0.0
H108 H 0.84935 0.19762 1.00307 0.0
H109 H 0.95882 0.25808 0.98522 0.0
H110 H 0.94613 0.24872 0.32309 0.0
H111 H 0.83114 0.21489 0.3568 0.0
La112 La 0.53172 0.07007 0.95398 0.0
La113 La 0.48682 0.99446 0.8332 0.0
C114 C 0.59756 0.17041 0.10024 0.0
C115 C 0.66932 0.18378 1.05672 0.0
C116 C 0.69194 0.15978 0.86332 0.0
C117 C 0.73893 0.10731 0.85956 0.0
C118 C 0.7599 0.07928 1.0459 0.0
C119 C 0.76248 0.12318 0.21488 0.0
C120 C 0.71356 0.1741 0.22623 0.0
C121 C 0.44679 0.14903 0.60214 0.0
C122 C 0.63928 0.9958 0.64706 0.0
C123 C 0.44506 0.88076 0.69777 0.0
C124 C 0.41074 0.84342 0.53504 0.0
C125 C 0.35335 0.80823 0.60571 0.0
C126 C 0.29065 0.83789 0.56304 0.0
C127 C 0.28988 0.89233 0.41988 0.0
C128 C 0.33826 0.88639 0.26195 0.0
C129 C 0.40379 0.87484 0.33997 0.0
C130 C 0.58019 0.9214 0.17644 0.0
C131 C 0.37596 0.06944 0.11987 0.0
O132 O 0.55454 0.17672 0.94927 0.0
O133 O 0.58809 0.11276 0.19656 0.0
O134 O 0.48809 0.09609 0.64154 0.0
O135 O 0.48857 0.09558 0.64676 0.0
O136 O 0.6353 0.02619 0.82995 0.0
O137 O 0.57452 0.98522 0.59168 0.0
O138 O 0.50526 0.90573 0.66106 0.0
O139 O 0.40712 0.92409 0.80154 0.0
O140 O 0.53181 0.96819 0.1426 0.0
O141 O 0.53164 0.96845 0.13444 0.0
O142 O 0.37976 0.03115 0.94833 0.0
O143 O 0.43943 0.08715 0.17038 0.0
H144 H 0.66043 0.16196 0.72694 0.0
H145 H 0.74533 0.08 0.71825 0.0
H146 H 0.78481 0.10647 0.35847 0.0
H147 H 0.69859 0.18449 0.38274 0.0
H148 H 0.35764 0.76363 0.70173 0.0
H149 H 0.24593 0.81718 0.63421 0.0
H150 H 0.33263 0.91727 0.12272 0.0
H151 H 0.44436 0.90058 0.26782 0.0
La152 La 0.48253 0.55271 0.91603 0.0
La153 La 0.55787 0.50812 0.82458 0.0
C154 C 0.36841 0.60178 1.02443 0.0
C155 C 0.33793 0.65178 0.16701 0.0
C156 C 0.33252 0.71854 1.0839 0.0
C157 C 0.39294 0.75464 0.09175 0.0
C158 C 0.44102 0.73299 0.23657 0.0
C159 C 0.41808 0.6914 0.40345 0.0
C160 C 0.36615 0.6476 0.36441 0.0
C161 C 0.42014 0.45942 0.55147 0.0
C162 C 0.57013 0.66918 0.69165 0.0
C163 C 0.67046 0.46169 0.69705 0.0
C164 C 0.69683 0.40531 0.578 0.0
C165 C 0.708 0.34378 0.68669 0.0
C166 C 0.66789 0.29114 0.6237 0.0
C167 C 0.64233 0.29326 0.42306 0.0
C168 C 0.67118 0.33857 0.27906 0.0
C169 C 0.68402 0.40224 0.36358 0.0
C170 C 0.62916 0.59639 0.16656 0.0
C171 C 0.46848 0.39603 1.0694 0.0
O172 O 0.39598 0.54655 0.10409 0.0
O173 O 0.4069 0.62725 0.87845 0.0
O174 O 0.46431 0.50848 0.60145 0.0
O175 O 0.4641 0.50827 0.61003 0.0
O176 O 0.52309 0.66284 0.83974 0.0
O177 O 0.58725 0.60515 0.63968 0.0
O178 O 0.63459 0.50806 0.59939 0.0
O179 O 0.64009 0.44294 0.86745 0.0
O180 O 0.58014 0.55073 0.13522 0.0
O181 O 0.57989 0.55058 0.12655 0.0
O182 O 0.51215 0.40112 0.90981 0.0
O183 O 0.45608 0.46035 0.12756 0.0
H184 H 0.29729 0.73247 0.96351 0.0
H185 H 0.40345 0.79588 0.98631 0.0
H186 H 0.44625 0.68348 0.54416 0.0
H187 H 0.36401 0.60162 0.45774 0.0
H188 H 0.71824 0.34347 0.84975 0.0
H189 H 0.63756 0.26902 0.74621 0.0
H190 H 0.65303 0.33722 0.12075 0.0
H191 H 0.67418 0.4476 0.27101 0.0
La192 La 1.0016 0.48818 0.96733 0.0
La193 La 0.03293 0.56836 0.82812 0.0
C194 C 0.94929 0.3819 0.13587 0.0
C195 C 0.88129 0.35072 0.15579 0.0
C196 C 0.83937 0.3638 0.98264 0.0
C197 C 0.80579 0.42608 0.9827 0.0
C198 C 0.80669 0.46326 0.16383 0.0
C199 C 0.82209 0.42906 0.35307 0.0
C200 C 0.85312 0.36643 0.34757 0.0
C201 C 0.06442 0.42355 0.62061 0.0
C202 C 0.88209 0.56962 0.66991 0.0
C203 C 0.09506 0.67035 0.66614 0.0
C204 C 0.16479 0.69623 0.70018 0.0
C205 C 0.19171 0.67162 0.8881 0.0
C206 C 0.23195 0.61299 0.87765 0.0
C207 C 0.24139 0.58323 0.68575 0.0
C208 C 0.23388 0.62455 0.5095 0.0
C209 C 0.20778 0.68882 0.52987 0.0
C210 C 0.97201 0.63436 0.17561 0.0
C211 C 0.14974 0.48772 0.14068 0.0
O212 O 0.95979 0.44006 0.23005 0.0
O213 O 0.97289 0.3854 0.94982 0.0
O214 O 0.08756 0.43187 0.80753 0.0
O215 O 1.01644 0.47035 0.63387 0.0
O216 O 0.89319 0.51929 0.8124 0.0
O217 O 0.94211 0.59668 0.6301 0.0
O218 O 0.05604 0.67278 0.82578 0.0
O219 O 0.08911 0.61083 0.57819 0.0
O220 O 0.94736 0.62359 0.99166 0.0
O221 O 1.02005 0.58756 0.15935 0.0
O222 O 0.13868 0.53248 0.98387 0.0
O223 O 0.08902 0.46462 0.18791 0.0
H224 H 0.85149 0.3449 0.83068 0.0
H225 H 0.79212 0.45002 0.83825 0.0
H226 H 0.81893 0.45288 0.50227 0.0
H227 H 0.87931 0.35474 0.49063 0.0
H228 H 0.16824 0.68292 1.03554 0.0
H229 H 0.24152 0.58363 1.01623 0.0
H230 H 0.23859 0.60472 0.3558 0.0
H231 H 0.20419 0.71713 0.3893 0.0
loop_
_geom_bond_atom_site_label_1
_geom_bond_atom_site_label_2
_geom_bond_distance
_geom_bond_site_symmetry_2
_ccdc_geom_bond_type
H0 C3 0.931 . S
H1 C6 0.928 . S
H2 C8 0.930 . S
C3 H0 0.931 . S
C3 C4 1.413 . S
C3 C5 1.360 . S
C4 C3 1.413 . S
C4 C8 1.429 . S
C5 C3 1.360 . S
C5 C6 1.372 . S
C6 H1 0.928 . S
C6 C5 1.372 . S
C6 C7 1.404 . S
C7 C6 1.404 . S
C7 C8 1.391 . S
C8 H2 0.930 . S
C8 C4 1.429 . S
C8 C7 1.391 . S
H9 C12 0.931 . S
H10 C15 0.928 . S
H11 C17 0.930 . S
C12 H9 0.931 . S
C12 C13 1.413 . S
C12 C14 1.360 . S
C13 C12 1.413 . S
C13 C17 1.429 1_655 S
C14 C12 1.360 . S
C14 C15 1.372 . S
C15 H10 0.928 . S
C15 C14 1.372 . S
C15 C16 1.404 . S
C16 C15 1.404 . S
C16 C17 1.390 1_655 S
C17 H11 0.930 . S
C17 C13 1.429 1_455 S
C17 C16 1.390 1_455 S
H18 C21 0.931 . S
H19 C24 0.928 . S
H20 C26 0.930 . S
C21 H18 0.931 . S
C21 C22 1.414 . S
C21 C23 1.360 . S
C22 C21 1.414 . S
C22 C26 1.429 1_565 S
C23 C21 1.360 . S
C23 C24 1.372 . S
C24 H19 0.928 . S
C24 C23 1.372 . S
C24 C25 1.405 . S
C25 C24 1.405 . S
C25 C26 1.390 1_565 S
C26 H20 0.930 . S
C26 C22 1.429 1_545 S
C26 C25 1.390 1_545 S
H27 C30 0.931 . S
H28 C33 0.928 . S
H29 C35 0.930 . S
C30 H27 0.931 . S
C30 C31 1.413 . S
C30 C32 1.360 . S
C31 C30 1.413 . S
C31 C35 1.429 . S
C32 C30 1.360 . S
C32 C33 1.372 . S
C33 H28 0.928 . S
C33 C32 1.372 . S
C33 C34 1.404 . S
C34 C33 1.404 . S
C34 C35 1.391 . S
C35 H29 0.930 . S
C35 C31 1.429 . S
C35 C34 1.391 . S
H36 C39 0.931 . S
H37 C42 0.928 . S
H38 C44 0.930 . S
C39 H36 0.931 . S
C39 C40 1.413 . S
C39 C41 1.360 1_556 S
C40 C39 1.413 . S
C40 C44 1.429 . S
C41 C39 1.360 1_554 S
C41 C42 1.372 . S
C42 H37 0.928 . S
C42 C41 1.372 . S
C42 C43 1.404 . S
C43 C42 1.404 . S
C43 C44 1.391 1_554 S
C44 H38 0.930 . S
C44 C40 1.429 . S
C44 C43 1.391 1_556 S
H45 C48 0.931 . S
H46 C51 0.928 . S
H47 C53 0.930 . S
C48 H45 0.931 . S
C48 C49 1.413 . S
C48 C50 1.360 1_556 S
C49 C48 1.413 . S
C49 C53 1.429 1_655 S
C50 C48 1.360 1_554 S
C50 C51 1.372 . S
C51 H46 0.928 . S
C51 C50 1.372 . S
C51 C52 1.404 . S
C52 C51 1.404 . S
C52 C53 1.391 1_654 S
C53 H47 0.930 . S
C53 C49 1.429 1_455 S
C53 C52 1.391 1_456 S
H54 C57 0.931 . S
H55 C60 0.928 . S
H56 C62 0.930 . S
C57 H54 0.931 . S
C57 C58 1.413 . S
C57 C59 1.360 1_556 S
C58 C57 1.413 . S
C58 C62 1.429 1_565 S
C59 C57 1.360 1_554 S
C59 C60 1.372 . S
C60 H55 0.928 . S
C60 C59 1.372 . S
C60 C61 1.404 . S
C61 C60 1.404 . S
C61 C62 1.391 1_564 S
C62 H56 0.930 . S
C62 C58 1.429 1_545 S
C62 C61 1.391 1_546 S
H63 C66 0.931 . S
H64 C69 0.928 . S
H65 C71 0.930 . S
C66 H63 0.931 . S
C66 C67 1.413 1_556 S
C66 C68 1.360 . S
C67 C66 1.413 1_554 S
C67 C71 1.429 . S
C68 C66 1.360 . S
C68 C69 1.372 . S
C69 H64 0.928 . S
C69 C68 1.372 . S
C69 C70 1.404 1_556 S
C70 C69 1.404 1_554 S
C70 C71 1.391 . S
C71 H65 0.930 . S
C71 C67 1.429 . S
C71 C70 1.391 . S
La72 C74 2.928 1_556 S
La72 O92 2.521 1_556 S
La72 O93 2.628 1_556 S
La72 O94 2.554 . S
La72 O95 2.757 1_565 S
La72 O96 2.470 . S
La72 O101 2.482 1_455 S
La72 O103 2.503 1_565 S
La73 C83 2.928 . S
La73 O95 2.482 1_655 S
La73 O97 2.503 1_545 S
La73 O98 2.521 . S
La73 O99 2.628 . S
La73 O100 2.554 . S
La73 O101 2.757 1_545 S
La73 O102 2.470 . S
C74 La72 2.928 1_554 S
C74 C75 1.503 . S
C74 O92 1.261 . S
C74 O93 1.243 . S
C75 C74 1.503 . S
C75 C76 1.394 . S
C75 C80 1.373 . S
C76 C75 1.394 . S
C76 C77 1.380 . S
C76 H104 0.930 . S
C77 C76 1.380 . S
C77 C78 1.376 . S
C77 H105 0.930 . S
C78 C77 1.376 . S
C78 C79 1.370 . S
C79 C78 1.370 . S
C79 C80 1.396 . S
C79 H106 0.929 . S
C80 C75 1.373 . S
C80 C79 1.396 . S
C80 H107 0.929 . S
C81 O94 1.240 . S
C81 O95 1.289 1_565 S
C82 O96 1.258 1_655 S
C82 O97 1.256 . S
C83 La73 2.928 . S
C83 C84 1.503 . S
C83 O98 1.261 . S
C83 O99 1.243 . S
C84 C83 1.503 . S
C84 C85 1.394 . S
C84 C89 1.373 . S
C85 C84 1.394 . S
C85 C86 1.380 . S
C85 H108 0.930 . S
C86 C85 1.380 . S
C86 C87 1.376 . S
C86 H109 0.930 . S
C87 C86 1.376 . S
C87 C88 1.370 . S
C88 C87 1.370 . S
C88 C89 1.396 . S
C88 H110 0.929 . S
C89 C84 1.373 . S
C89 C88 1.396 . S
C89 H111 0.929 . S
C90 O100 1.240 1_554 S
C90 O101 1.289 1_544 S
C91 O102 1.258 1_455 S
C91 O103 1.256 . S
O92 La72 2.521 1_554 S
O92 C74 1.261 . S
O93 La72 2.628 1_554 S
O93 C74 1.243 . S
O94 La72 2.554 . S
O94 C81 1.240 . S
O95 La72 2.757 1_545 S
O95 La73 2.482 1_455 S
O95 C81 1.289 1_545 S
O96 La72 2.470 . S
O96 C82 1.258 1_455 S
O97 La73 2.503 1_565 S
O97 C82 1.256 . S
O98 La73 2.521 . S
O98 C83 1.261 . S
O99 La73 2.628 . S
O99 C83 1.243 . S
O100 La73 2.554 . S
O100 C90 1.240 1_556 S
O101 La72 2.482 1_655 S
O101 La73 2.757 1_565 S
O101 C90 1.289 1_566 S
O102 La73 2.470 . S
O102 C91 1.258 1_655 S
O103 La72 2.503 1_545 S
O103 C91 1.256 . S
H104 C76 0.930 . S
H105 C77 0.930 . S
H106 C79 0.929 . S
H107 C80 0.929 . S
H108 C85 0.930 . S
H109 C86 0.930 . S
H110 C88 0.929 . S
H111 C89 0.929 . S
La112 C114 2.928 1_556 S
La112 O132 2.521 1_556 S
La112 O133 2.628 1_556 S
La112 O134 2.554 . S
La112 O135 2.757 . S
La112 O136 2.470 . S
La112 O141 2.482 1_545 S
La112 O143 2.503 . S
La113 C123 2.928 . S
La113 O135 2.482 1_565 S
La113 O137 2.503 . S
La113 O138 2.521 . S
La113 O139 2.628 . S
La113 O140 2.554 . S
La113 O141 2.757 . S
La113 O142 2.470 . S
C114 La112 2.928 1_554 S
C114 C115 1.503 . S
C114 O132 1.261 . S
C114 O133 1.243 . S
C115 C114 1.503 . S
C115 C116 1.394 . S
C115 C120 1.373 . S
C116 C115 1.394 . S
C116 C117 1.380 . S
C116 H144 0.930 . S
C117 C116 1.380 . S
C117 C118 1.376 . S
C117 H145 0.930 . S
C118 C117 1.376 . S
C118 C119 1.370 . S
C119 C118 1.370 . S
C119 C120 1.396 . S
C119 H146 0.929 . S
C120 C115 1.373 . S
C120 C119 1.396 . S
C120 H147 0.929 . S
C121 O134 1.240 . S
C121 O135 1.289 . S
C122 O136 1.258 1_565 S
C122 O137 1.256 . S
C123 La113 2.928 . S
C123 C124 1.503 . S
C123 O138 1.261 . S
C123 O139 1.243 . S
C124 C123 1.503 . S
C124 C125 1.394 . S
C124 C129 1.373 . S
C125 C124 1.394 . S
C125 C126 1.380 . S
C125 H148 0.930 . S
C126 C125 1.380 . S
C126 C127 1.376 . S
C126 H149 0.930 . S
C127 C126 1.376 . S
C127 C128 1.370 . S
C128 C127 1.370 . S
C128 C129 1.396 . S
C128 H150 0.929 . S
C129 C124 1.373 . S
C129 C128 1.396 . S
C129 H151 0.929 . S
C130 O140 1.240 1_554 S
C130 O141 1.289 1_554 S
C131 O142 1.258 1_545 S
C131 O143 1.256 . S
O132 La112 2.521 1_554 S
O132 C114 1.261 . S
O133 La112 2.628 1_554 S
O133 C114 1.243 . S
O134 La112 2.554 . S
O134 C121 1.240 . S
O135 La112 2.757 . S
O135 La113 2.482 1_545 S
O135 C121 1.289 . S
O136 La112 2.470 . S
O136 C122 1.258 1_545 S
O137 La113 2.503 . S
O137 C122 1.256 . S
O138 La113 2.521 . S
O138 C123 1.261 . S
O139 La113 2.628 . S
O139 C123 1.243 . S
O140 La113 2.554 . S
O140 C130 1.240 1_556 S
O141 La112 2.482 1_565 S
O141 La113 2.757 . S
O141 C130 1.289 1_556 S
O142 La113 2.470 . S
O142 C131 1.258 1_565 S
O143 La112 2.503 . S
O143 C131 1.256 . S
H144 C116 0.930 . S
H145 C117 0.930 . S
H146 C119 0.929 . S
H147 C120 0.929 . S
H148 C125 0.930 . S
H149 C126 0.930 . S
H150 C128 0.929 . S
H151 C129 0.929 . S
La152 C154 2.928 1_556 S
La152 O172 2.521 1_556 S
La152 O173 2.628 1_556 S
La152 O174 2.554 . S
La152 O175 2.757 . S
La152 O176 2.470 . S
La152 O181 2.482 . S
La152 O183 2.503 . S
La153 C163 2.928 . S
La153 O175 2.482 . S
La153 O177 2.503 . S
La153 O178 2.521 . S
La153 O179 2.628 . S
La153 O180 2.554 . S
La153 O181 2.757 . S
La153 O182 2.470 . S
C154 La152 2.928 1_554 S
C154 C155 1.503 . S
C154 O172 1.261 . S
C154 O173 1.243 . S
C155 C154 1.503 . S
C155 C156 1.394 . S
C155 C160 1.373 . S
C156 C155 1.394 . S
C156 C157 1.380 . S
C156 H184 0.930 . S
C157 C156 1.380 . S
C157 C158 1.376 . S
C157 H185 0.930 . S
C158 C157 1.376 . S
C158 C159 1.370 . S
C159 C158 1.370 . S
C159 C160 1.396 . S
C159 H186 0.929 . S
C160 C155 1.373 . S
C160 C159 1.396 . S
C160 H187 0.929 . S
C161 O174 1.240 . S
C161 O175 1.289 . S
C162 O176 1.258 . S
C162 O177 1.256 . S
C163 La153 2.928 . S
C163 C164 1.503 . S
C163 O178 1.261 . S
C163 O179 1.243 . S
C164 C163 1.503 . S
C164 C165 1.394 . S
C164 C169 1.373 . S
C165 C164 1.394 . S
C165 C166 1.380 . S
C165 H188 0.930 . S
C166 C165 1.380 . S
C166 C167 1.376 . S
C166 H189 0.930 . S
C167 C166 1.376 . S
C167 C168 1.370 . S
C168 C167 1.370 . S
C168 C169 1.396 . S
C168 H190 0.929 . S
C169 C164 1.373 . S
C169 C168 1.396 . S
C169 H191 0.929 . S
C170 O180 1.240 1_554 S
C170 O181 1.289 1_554 S
C171 O182 1.258 . S
C171 O183 1.256 . S
O172 La152 2.521 1_554 S
O172 C154 1.261 . S
O173 La152 2.628 1_554 S
O173 C154 1.243 . S
O174 La152 2.554 . S
O174 C161 1.240 . S
O175 La152 2.757 . S
O175 La153 2.482 . S
O175 C161 1.289 . S
O176 La152 2.470 . S
O176 C162 1.258 . S
O177 La153 2.503 . S
O177 C162 1.256 . S
O178 La153 2.521 . S
O178 C163 1.261 . S
O179 La153 2.628 . S
O179 C163 1.243 . S
O180 La153 2.554 . S
O180 C170 1.240 1_556 S
O181 La152 2.482 . S
O181 La153 2.757 . S
O181 C170 1.289 1_556 S
O182 La153 2.470 . S
O182 C171 1.258 . S
O183 La152 2.503 . S
O183 C171 1.256 . S
H184 C156 0.930 . S
H185 C157 0.930 . S
H186 C159 0.929 . S
H187 C160 0.929 . S
H188 C165 0.930 . S
H189 C166 0.930 . S
H190 C168 0.929 . S
H191 C169 0.929 . S
La192 C194 2.928 1_556 S
La192 O212 2.521 1_556 S
La192 O213 2.628 1_556 S
La192 O214 2.554 . S
La192 O215 2.757 1_655 S
La192 O216 2.470 . S
La192 O221 2.482 . S
La192 O223 2.503 1_655 S
La193 C203 2.928 . S
La193 O215 2.482 . S
La193 O217 2.503 1_455 S
La193 O218 2.521 . S
La193 O219 2.628 . S
La193 O220 2.554 . S
La193 O221 2.757 1_455 S
La193 O222 2.470 . S
C194 La192 2.928 1_554 S
C194 C195 1.503 . S
C194 O212 1.261 . S
C194 O213 1.243 . S
C195 C194 1.503 . S
C195 C196 1.394 . S
C195 C200 1.373 . S
C196 C195 1.394 . S
C196 C197 1.380 . S
C196 H224 0.930 . S
C197 C196 1.380 . S
C197 C198 1.376 . S
C197 H225 0.930 . S
C198 C197 1.376 . S
C198 C199 1.370 . S
C199 C198 1.370 . S
C199 C200 1.396 . S
C199 H226 0.929 . S
C200 C195 1.373 . S
C200 C199 1.396 . S
C200 H227 0.929 . S
C201 O214 1.240 . S
C201 O215 1.290 1_655 S
C202 O216 1.258 . S
C202 O217 1.256 . S
C203 La193 2.928 . S
C203 C204 1.503 . S
C203 O218 1.261 . S
C203 O219 1.243 . S
C204 C203 1.503 . S
C204 C205 1.394 . S
C204 C209 1.373 . S
C205 C204 1.394 . S
C205 C206 1.380 . S
C205 H228 0.930 . S
C206 C205 1.380 . S
C206 C207 1.376 . S
C206 H229 0.930 . S
C207 C206 1.376 . S
C207 C208 1.370 . S
C208 C207 1.370 . S
C208 C209 1.396 . S
C208 H230 0.929 . S
C209 C204 1.373 . S
C209 C208 1.396 . S
C209 H231 0.929 . S
C210 O220 1.242 1_554 S
C210 O221 1.289 1_454 S
C211 O222 1.258 . S
C211 O223 1.256 . S
O212 La192 2.521 1_554 S
O212 C194 1.261 . S
O213 La192 2.628 1_554 S
O213 C194 1.243 . S
O214 La192 2.554 . S
O214 C201 1.240 . S
O215 La192 2.757 1_455 S
O215 La193 2.482 . S
O215 C201 1.290 1_455 S
O216 La192 2.470 . S
O216 C202 1.258 . S
O217 La193 2.503 1_655 S
O217 C202 1.256 . S
O218 La193 2.521 . S
O218 C203 1.261 . S
O219 La193 2.628 . S
O219 C203 1.243 . S
O220 La193 2.554 . S
O220 C210 1.242 1_556 S
O221 La192 2.482 . S
O221 La193 2.757 1_655 S
O221 C210 1.289 1_656 S
O222 La193 2.470 . S
O222 C211 1.258 . S
O223 La192 2.503 1_455 S
O223 C211 1.256 . S
H224 C196 0.930 . S
H225 C197 0.930 . S
H226 C199 0.929 . S
H227 C200 0.929 . S
H228 C205 0.930 . S
H229 C206 0.930 . S
H230 C208 0.929 . S
H231 C209 0.929 . S
C61 C81 3.742 1_554 S
C121 C70 3.713 1_556 S
C161 C43 3.777 1_556 S
C201 C52 3.719 1_556 S
C90 C25 3.742 1_544 S
C34 C130 3.716 1_556 S
C7 C170 3.772 1_556 S
C16 C210 3.718 1_656 S
C87 C50 3.241 . S
C127 C59 3.003 . S
C167 C67 2.914 . S
C41 C207 3.069 . S
C14 C78 3.267 1_655 S
C118 C23 3.030 1_545 S
C158 C31 2.893 . S
C5 C198 3.109 . S
C49 C91 4.203 1_655 S
C58 C131 4.122 1_565 S
C171 C68 4.124 . S
C211 C40 4.204 . S
C13 C82 4.205 . S
C122 C22 4.120 . S
C162 C32 4.137 . S
C4 C202 4.202 . S
