# Generated by pormake.
# Topology sit, (3,6)-cn, num edge types: 1
# Building blocks:
#     Node 0, Type 0, BuildingBlock: PAMTOO_clean_linker_0, # of connection points: 3
#     Node 1, Type 0, BuildingBlock: PAMTOO_clean_linker_0, # of connection points: 3
#     Node 2, Type 0, BuildingBlock: PAMTOO_clean_linker_0, # of connection points: 3
#     Node 3, Type 0, BuildingBlock: PAMTOO_clean_linker_0, # of connection points: 3
#     Node 4, Type 1, BuildingBlock: MIDCAF_clean_sbu_0, # of connection points: 6
#     Node 5, Type 1, BuildingBlock: MIDCAF_clean_sbu_0, # of connection points: 6
#     Edge 6, Type (0, 1), BuildingBlock: OJICUG_clean_linker_0, # of connection points: 2
#     Edge 7, Type (0, 1), BuildingBlock: OJICUG_clean_linker_0, # of connection points: 2
#     Edge 8, Type (0, 1), BuildingBlock: OJICUG_clean_linker_0, # of connection points: 2
#     Edge 9, Type (0, 1), BuildingBlock: OJICUG_clean_linker_0, # of connection points: 2
#     Edge 10, Type (0, 1), BuildingBlock: OJICUG_clean_linker_0, # of connection points: 2
#     Edge 11, Type (0, 1), BuildingBlock: OJICUG_clean_linker_0, # of connection points: 2
#     Edge 12, Type (0, 1), BuildingBlock: OJICUG_clean_linker_0, # of connection points: 2
#     Edge 13, Type (0, 1), BuildingBlock: OJICUG_clean_linker_0, # of connection points: 2
#     Edge 14, Type (0, 1), BuildingBlock: OJICUG_clean_linker_0, # of connection points: 2
#     Edge 15, Type (0, 1), BuildingBlock: OJICUG_clean_linker_0, # of connection points: 2
#     Edge 16, Type (0, 1), BuildingBlock: OJICUG_clean_linker_0, # of connection points: 2
#     Edge 17, Type (0, 1), BuildingBlock: OJICUG_clean_linker_0, # of connection points: 2
# Relax obj value: 0.077
# Max RMSD: 0.180
# Mean RMSD: 0.113
data_MOF--net-sit--node1-MIDCAF_clean_sbu_0--node2-PAMTOO_clean_linker_0--edge1-OJICUG_clean_linker_0
_symmetry_space_group_name_H-M    P1
_symmetry_Int_Tables_number       1
_symmetry_cell_setting            triclinic
loop_
_symmetry_equiv_pos_as_xyz
'x, y, z'
_cell_length_a     16.273233
_cell_length_b     22.848566
_cell_length_c     26.677666
_cell_angle_alpha  88.434161
_cell_angle_beta   90.421841
_cell_angle_gamma 85.856746
loop_
_atom_site_label
_atom_site_type_symbol
_atom_site_fract_x
_atom_site_fract_y
_atom_site_fract_z
_atom_type_partial_charge
H0 H 0.02991 0.43359 0.97445 0.0
H1 H 0.18655 0.27659 0.99817 0.0
H2 H 0.93799 0.28169 0.04985 0.0
H3 H 0.17548 0.22257 0.08532 0.0
C4 C 0.12954 0.19098 0.07506 0.0
O5 O 0.07368 0.21534 0.0396 0.0
H6 H 0.16471 0.15326 0.05787 0.0
C7 C 0.03896 0.39004 0.99153 0.0
C8 C -0.0278 0.3619 0.01205 0.0
C9 C 0.11644 0.35992 0.98749 0.0
C10 C 0.12791 0.30107 1.00376 0.0
C11 C 0.06413 0.27349 0.02742 0.0
C12 C -0.01275 0.30442 0.03282 0.0
H13 H 0.01726 0.60785 1.00562 0.0
H14 H 0.88149 0.75672 0.06777 0.0
H15 H 0.1453 0.74853 0.06675 0.0
H16 H 0.09 0.7855 0.16 0.0
C17 C 0.02525 0.80225 0.15173 0.0
O18 O 0.01272 0.80525 0.1005 0.0
H19 H -0.01534 0.77035 0.16927 0.0
C20 C 0.01658 0.64977 0.02376 0.0
C21 C 0.09075 0.67486 0.03311 0.0
C22 C 0.941 0.68051 0.0327 0.0
C23 C 0.93944 0.73262 0.05968 0.0
C24 C 0.01361 0.75562 0.07381 0.0
C25 C 0.08896 0.72784 0.05898 0.0
H26 H 0.50145 0.97489 0.50813 0.0
H27 H 0.68292 0.83123 0.53495 0.0
H28 H 0.42692 0.80037 0.53908 0.0
H29 H 0.67003 0.7584 0.59981 0.0
C30 C 0.63061 0.72573 0.58361 0.0
O31 O 0.57666 0.75131 0.54757 0.0
H32 H 0.67309 0.69332 0.56461 0.0
C33 C 0.51675 0.92932 0.51898 0.0
C34 C 0.45417 0.89033 0.5226 0.0
C35 C 0.59955 0.90873 0.52443 0.0
C36 C 0.61917 0.84859 0.53444 0.0
C37 C 0.55713 0.80994 0.54212 0.0
C38 C 0.47456 0.83109 0.53662 0.0
H39 H 0.52357 0.16079 0.50521 0.0
H40 H 0.34578 0.30644 0.52807 0.0
H41 H 0.603 0.3328 0.53209 0.0
H42 H 0.37537 0.37428 0.59988 0.0
C43 C 0.41059 0.40771 0.57996 0.0
O44 O 0.45491 0.38347 0.54056 0.0
H45 H 0.36412 0.44112 0.56376 0.0
C46 C 0.50906 0.20612 0.51488 0.0
C47 C 0.57273 0.24398 0.51812 0.0
C48 C 0.42655 0.22786 0.5184 0.0
C49 C 0.4089 0.28777 0.52806 0.0
C50 C 0.47248 0.32498 0.53546 0.0
C51 C 0.55432 0.30292 0.53044 0.0
Zn52 Zn 0.0151 0.17501 0.37207 0.0
Zn53 Zn -0.00029 0.96614 0.38919 0.0
Zn54 Zn 0.01054 0.06596 0.37984 0.0
C55 C -0.02746 0.98009 0.29177 0.0
C56 C 0.88443 1.00427 0.45027 0.0
O57 O 0.1218 0.08676 0.42169 0.0
O58 O 0.11097 0.18377 0.4152 0.0
C59 C 0.02588 0.13812 0.27499 0.0
O60 O 0.00914 1.02611 0.30371 0.0
O61 O 0.94328 0.94894 0.32599 0.0
O62 O 0.93586 0.96047 0.45067 0.0
O63 O 0.89572 0.04896 0.42117 0.0
O64 O 0.02568 0.18433 0.29972 0.0
O65 O 0.02101 0.08802 0.29791 0.0
O66 O 0.89815 0.1109 0.41517 0.0
O67 O 0.91155 0.20513 0.39947 0.0
C68 C 0.87137 0.16527 0.41857 0.0
O69 O 0.12005 1.0252 0.42253 0.0
O70 O 0.11426 0.9345 0.39768 0.0
C71 C 0.1477 0.13693 0.43221 0.0
C72 C 0.15166 0.9718 0.42117 0.0
Zn73 Zn 0.50991 0.65524 0.87353 0.0
Zn74 Zn 0.54813 0.43981 0.85318 0.0
Zn75 Zn 0.5319 0.54278 0.86753 0.0
C76 C 0.55863 0.47672 0.76065 0.0
C77 C 0.39295 0.45506 0.89026 0.0
O78 O 0.6371 0.5694 0.91121 0.0
O79 O 0.61152 0.66623 0.91056 0.0
C80 C 0.52069 0.63798 0.77308 0.0
O81 O 0.53294 0.52236 0.78528 0.0
O82 O 0.58756 0.43137 0.7844 0.0
O83 O 0.43449 0.41889 0.86403 0.0
O84 O 0.42107 0.50505 0.89934 0.0
O85 O 0.50193 0.67929 0.80222 0.0
O86 O 0.53481 0.58504 0.79093 0.0
O87 O 0.41768 0.56526 0.90997 0.0
O88 O 0.41291 0.66217 0.91512 0.0
C89 C 0.38431 0.61388 0.92633 0.0
O90 O 0.64444 0.50645 0.91173 0.0
O91 O 0.62389 0.4127 0.90667 0.0
C92 C 0.65556 0.62087 0.92403 0.0
C93 C 0.6638 0.45233 0.92494 0.0
C94 C 0.10994 0.11606 0.14481 0.0
C95 C 0.08759 0.17139 0.12212 0.0
H96 H 0.10723 0.06162 0.21157 0.0
C97 C 0.03558 0.21155 0.14785 0.0
H98 H 0.1512 0.08462 0.12602 0.0
C99 C 0.00962 0.19795 0.19615 0.0
C100 C 0.03628 0.14428 0.22023 0.0
H101 H 0.0188 0.25484 0.13192 0.0
H102 H -0.02742 0.23109 0.21589 0.0
C103 C 0.08426 0.10254 0.19353 0.0
C104 C 0.92734 0.87914 0.18955 0.0
C105 C 0.00775 0.86133 0.17495 0.0
H106 H 0.85248 0.93353 0.238 0.0
C107 C 0.07281 0.89487 0.18908 0.0
H108 H 0.87614 0.85429 0.17873 0.0
C109 C 0.05916 0.94073 0.22253 0.0
C110 C -0.0198 0.95385 0.24197 0.0
H111 H 0.13533 0.8822 0.17798 0.0
H112 H 0.11187 0.96091 0.23762 0.0
C113 C 0.91376 0.92481 0.22307 0.0
C114 C 0.61897 0.64145 0.64537 0.0
C115 C 0.5872 0.69647 0.6261 0.0
H116 H 0.62303 0.57962 0.70723 0.0
C117 C 0.52548 0.72805 0.65267 0.0
H118 H 0.66784 0.61671 0.6261 0.0
C119 C 0.49906 0.70641 0.69885 0.0
C120 C 0.53459 0.65313 0.71968 0.0
H121 H 0.50114 0.77104 0.6393 0.0
H122 H 0.45409 0.73311 0.71959 0.0
C123 C 0.59295 0.61997 0.69175 0.0
C124 C 0.43493 0.48726 0.64077 0.0
C125 C 0.46428 0.4352 0.6178 0.0
H126 H 0.44309 0.5424 0.70395 0.0
C127 C 0.53513 0.40396 0.63751 0.0
H128 H 0.3797 0.51182 0.62675 0.0
C129 C 0.57241 0.4221 0.68119 0.0
C130 C 0.53829 0.47096 0.70688 0.0
H131 H 0.55841 0.3632 0.62145 0.0
H132 H 0.62375 0.3948 0.69716 0.0
C133 C 0.47165 0.50507 0.68488 0.0
C134 C 0.2132 0.36438 0.91642 0.0
C135 C 0.18297 0.38791 0.96109 0.0
H136 H 0.30148 0.36883 0.85807 0.0
C137 C 0.21743 0.43715 0.98061 0.0
H138 H 0.18665 0.32677 0.90057 0.0
C139 C 0.28442 0.46078 0.95681 0.0
C140 C 0.31597 0.43643 0.91252 0.0
H141 H 0.19469 0.45575 0.01522 0.0
H142 H 0.31378 0.49599 0.97434 0.0
C143 C 0.27862 0.38866 0.89215 0.0
C144 C 0.79005 0.66294 0.03018 0.0
C145 C 0.86701 0.66183 1.00675 0.0
H146 H 0.6615 0.6493 0.0217 0.0
C147 C 0.87367 0.64416 0.9566 0.0
H148 H 0.78318 0.67652 0.0686 0.0
C149 C 0.80515 0.62794 0.93045 0.0
C150 C 0.72876 0.62915 0.95387 0.0
H151 H 0.93161 0.64447 0.9369 0.0
H152 H 0.81128 0.61605 0.89153 0.0
C153 C 0.72108 0.64687 1.0037 0.0
C154 C 0.86841 0.44886 0.99529 0.0
C155 C 0.88622 0.38773 1.00235 0.0
H156 H 0.7846 0.51737 0.96473 0.0
C157 C 0.82376 0.35046 0.99155 0.0
H158 H 0.91342 0.47952 1.00473 0.0
C159 C 0.74948 0.37279 0.97013 0.0
C160 C 0.73546 0.43297 0.95768 0.0
H161 H 0.83372 0.30327 0.99574 0.0
H162 H 0.70507 0.34177 0.96036 0.0
C163 C 0.79409 0.47106 0.97266 0.0
C164 C 0.1633 0.62556 0.96138 0.0
C165 C 0.16717 0.64952 0.00954 0.0
H166 H 0.2305 0.59334 0.89783 0.0
C167 C 0.24453 0.65316 0.03241 0.0
H168 H 0.10521 0.62334 0.94175 0.0
C169 C 0.31626 0.63688 1.00636 0.0
C170 C 0.31149 0.6156 0.95769 0.0
H171 H 0.24979 0.67056 0.06955 0.0
H172 H 0.37554 0.64346 0.02326 0.0
C173 C 0.23491 0.60835 0.93588 0.0
C174 C 0.66143 0.98505 0.4701 0.0
C175 C 0.66627 0.94766 0.51305 0.0
H176 H 0.7286 1.03436 0.4168 0.0
C177 C 0.73992 0.94149 0.541 0.0
H178 H 0.60553 0.99065 0.44769 0.0
C179 C 0.8101 0.96612 0.52304 0.0
C180 C 0.80739 0.99788 0.47724 0.0
H181 H 0.74479 0.9141 0.57485 0.0
H182 H 0.86804 0.95643 0.5429 0.0
C183 C 0.73173 1.01024 0.45238 0.0
C184 C 0.28202 0.1983 0.52774 0.0
C185 C 0.35904 0.19085 0.50443 0.0
H186 H 0.15322 0.18549 0.52269 0.0
C187 C 0.36766 0.15366 0.46316 0.0
H188 H 0.2737 0.22553 0.56018 0.0
C189 C 0.299 0.1294 0.44271 0.0
C190 C 0.22106 0.14239 0.46303 0.0
H191 H 0.42576 0.14724 0.44386 0.0
H192 H 0.3056 0.10523 0.40841 0.0
C193 C 0.21337 0.17477 0.50681 0.0
C194 C 0.33801 0.87549 0.4646 0.0
C195 C 0.37182 0.90923 0.5016 0.0
H196 H 0.24395 0.86962 0.40941 0.0
C197 C 0.33226 0.96411 0.51261 0.0
H198 H 0.36813 0.83371 0.4544 0.0
C199 C 0.26057 0.98497 0.48656 0.0
C200 C 0.22839 0.95184 0.44846 0.0
H201 H 0.35727 0.99104 0.54096 0.0
H202 H 0.23009 1.02652 0.49661 0.0
C203 C 0.26739 0.89658 0.43828 0.0
C204 C 0.68305 0.25797 0.45665 0.0
C205 C 0.65361 0.22522 0.49699 0.0
H206 H 0.77288 0.26335 0.39936 0.0
C207 C 0.69598 0.17162 0.51169 0.0
H208 H 0.65043 0.2987 0.44376 0.0
C209 C 0.76709 0.15141 0.48629 0.0
C210 C 0.79489 0.18351 0.44496 0.0
H211 H 0.67405 0.14554 0.54266 0.0
H212 H 0.80118 0.11173 0.49969 0.0
C213 C 0.75257 0.23726 0.43083 0.0
loop_
_geom_bond_atom_site_label_1
_geom_bond_atom_site_label_2
_geom_bond_distance
_geom_bond_site_symmetry_2
_ccdc_geom_bond_type
H0 C7 0.929 . S
H1 C10 0.930 . S
H2 C12 0.929 1_655 S
H3 C4 0.969 . S
C4 H3 0.969 . S
C4 O5 1.550 . S
C4 H6 0.973 . S
O5 C4 1.550 . S
O5 C11 1.412 . S
H6 C4 0.973 . S
C7 H0 0.929 . S
C7 C8 1.400 . S
C7 C9 1.364 . S
C8 C7 1.400 . S
C8 C12 1.377 1_556 S
C9 C7 1.364 . S
C9 C10 1.374 1_556 S
C10 H1 0.930 . S
C10 C9 1.374 1_554 S
C10 C11 1.383 . S
C11 O5 1.412 . S
C11 C10 1.383 . S
C11 C12 1.394 . S
C12 H2 0.929 1_455 S
C12 C8 1.377 1_554 S
C12 C11 1.394 . S
H13 C20 0.929 . S
H14 C23 0.930 . S
H15 C25 0.929 . S
H16 C17 0.969 . S
C17 H16 0.969 . S
C17 O18 1.550 1_655 S
C17 H19 0.973 . S
O18 C17 1.550 1_455 S
O18 C24 1.412 . S
H19 C17 0.973 . S
C20 H13 0.929 . S
C20 C21 1.400 . S
C20 C22 1.364 1_455 S
C21 C20 1.400 . S
C21 C25 1.377 1_556 S
C22 C20 1.364 1_655 S
C22 C23 1.374 1_556 S
C23 H14 0.930 . S
C23 C22 1.374 1_554 S
C23 C24 1.383 1_655 S
C24 O18 1.412 . S
C24 C23 1.383 1_455 S
C24 C25 1.394 . S
C25 H15 0.929 . S
C25 C21 1.377 1_554 S
C25 C24 1.394 . S
H26 C33 0.929 . S
H27 C36 0.930 . S
H28 C38 0.929 . S
H29 C30 0.969 . S
C30 H29 0.969 . S
C30 O31 1.550 . S
C30 H32 0.973 . S
O31 C30 1.550 . S
O31 C37 1.412 . S
H32 C30 0.973 . S
C33 H26 0.929 . S
C33 C34 1.400 . S
C33 C35 1.364 . S
C34 C33 1.400 . S
C34 C38 1.377 . S
C35 C33 1.364 . S
C35 C36 1.374 . S
C36 H27 0.930 . S
C36 C35 1.374 . S
C36 C37 1.383 . S
C37 O31 1.412 . S
C37 C36 1.383 . S
C37 C38 1.394 . S
C38 H28 0.929 . S
C38 C34 1.377 . S
C38 C37 1.394 . S
H39 C46 0.929 . S
H40 C49 0.930 . S
H41 C51 0.929 . S
H42 C43 0.969 . S
C43 H42 0.969 . S
C43 O44 1.550 . S
C43 H45 0.973 . S
O44 C43 1.550 . S
O44 C50 1.412 . S
H45 C43 0.973 . S
C46 H39 0.929 . S
C46 C47 1.400 . S
C46 C48 1.364 . S
C47 C46 1.400 . S
C47 C51 1.377 . S
C48 C46 1.364 . S
C48 C49 1.374 . S
C49 H40 0.930 . S
C49 C48 1.374 . S
C49 C50 1.383 . S
C50 O44 1.412 . S
C50 C49 1.383 . S
C50 C51 1.394 . S
C51 H41 0.929 . S
C51 C47 1.377 . S
C51 C50 1.394 . S
Zn52 O58 1.920 . S
Zn52 O64 1.898 . S
Zn52 O67 1.905 1_455 S
Zn53 O61 1.905 . S
Zn53 O62 1.898 1_455 S
Zn53 O70 1.920 . S
Zn54 O57 2.080 . S
Zn54 O60 2.114 1_545 S
Zn54 O63 2.120 1_545 S
Zn54 O65 2.120 . S
Zn54 O66 2.114 1_455 S
Zn54 O69 2.080 1_545 S
C55 O60 1.166 . S
C55 O61 1.182 . S
C56 O62 1.167 . S
C56 O63 1.299 1_655 S
O57 Zn54 2.080 . S
O57 C71 1.305 . S
O58 Zn52 1.920 . S
O58 C71 1.234 . S
C59 O64 1.167 . S
C59 O65 1.299 . S
O60 Zn54 2.114 1_565 S
O60 C55 1.166 . S
O61 Zn53 1.905 . S
O61 C55 1.182 . S
O62 Zn53 1.898 1_655 S
O62 C56 1.167 . S
O63 Zn54 2.120 1_565 S
O63 C56 1.299 1_455 S
O64 Zn52 1.898 . S
O64 C59 1.167 . S
O65 Zn54 2.120 . S
O65 C59 1.299 . S
O66 Zn54 2.114 1_655 S
O66 C68 1.166 . S
O67 Zn52 1.905 1_655 S
O67 C68 1.182 . S
C68 O66 1.166 . S
C68 O67 1.182 . S
O69 Zn54 2.080 1_565 S
O69 C72 1.305 . S
O70 Zn53 1.920 . S
O70 C72 1.234 . S
C71 O57 1.305 . S
C71 O58 1.234 . S
C72 O69 1.305 . S
C72 O70 1.234 . S
Zn73 O79 1.920 . S
Zn73 O85 1.898 . S
Zn73 O88 1.905 . S
Zn74 O82 1.905 . S
Zn74 O83 1.898 . S
Zn74 O91 1.920 . S
Zn75 O78 2.080 . S
Zn75 O81 2.114 . S
Zn75 O84 2.120 . S
Zn75 O86 2.120 . S
Zn75 O87 2.114 . S
Zn75 O90 2.080 . S
C76 O81 1.166 . S
C76 O82 1.182 . S
C77 O83 1.167 . S
C77 O84 1.299 . S
O78 Zn75 2.080 . S
O78 C92 1.305 . S
O79 Zn73 1.920 . S
O79 C92 1.234 . S
C80 O85 1.167 . S
C80 O86 1.299 . S
O81 Zn75 2.114 . S
O81 C76 1.166 . S
O82 Zn74 1.905 . S
O82 C76 1.182 . S
O83 Zn74 1.898 . S
O83 C77 1.167 . S
O84 Zn75 2.120 . S
O84 C77 1.299 . S
O85 Zn73 1.898 . S
O85 C80 1.167 . S
O86 Zn75 2.120 . S
O86 C80 1.299 . S
O87 Zn75 2.114 . S
O87 C89 1.166 . S
O88 Zn73 1.905 . S
O88 C89 1.182 . S
C89 O87 1.166 . S
C89 O88 1.182 . S
O90 Zn75 2.080 . S
O90 C93 1.305 . S
O91 Zn74 1.920 . S
O91 C93 1.234 . S
C92 O78 1.305 . S
C92 O79 1.234 . S
C93 O90 1.305 . S
C93 O91 1.234 . S
C94 C95 1.387 . S
C94 H98 0.950 . S
C94 C103 1.390 . S
C95 C94 1.387 . S
C95 C97 1.387 . S
H96 C103 0.950 . S
C97 C95 1.387 . S
C97 C99 1.390 . S
C97 H101 0.950 . S
H98 C94 0.950 . S
C99 C97 1.390 . S
C99 C100 1.387 . S
C99 H102 0.950 . S
C100 C99 1.387 . S
C100 C103 1.387 . S
H101 C97 0.950 . S
H102 C99 0.950 . S
C103 C94 1.390 . S
C103 H96 0.950 . S
C103 C100 1.387 . S
C104 C105 1.387 . S
C104 H108 0.950 . S
C104 C113 1.390 . S
C105 C104 1.387 . S
C105 C107 1.387 1_655 S
H106 C113 0.950 . S
C107 C105 1.387 1_455 S
C107 C109 1.390 . S
C107 H111 0.950 . S
H108 C104 0.950 . S
C109 C107 1.390 . S
C109 C110 1.387 . S
C109 H112 0.950 . S
C110 C109 1.387 . S
C110 C113 1.387 1_455 S
H111 C107 0.950 . S
H112 C109 0.950 . S
C113 C104 1.390 . S
C113 H106 0.950 . S
C113 C110 1.387 1_655 S
C114 C115 1.387 . S
C114 H118 0.950 . S
C114 C123 1.390 . S
C115 C114 1.387 . S
C115 C117 1.387 . S
H116 C123 0.950 . S
C117 C115 1.387 . S
C117 C119 1.390 . S
C117 H121 0.950 . S
H118 C114 0.950 . S
C119 C117 1.390 . S
C119 C120 1.387 . S
C119 H122 0.950 . S
C120 C119 1.387 . S
C120 C123 1.387 . S
H121 C117 0.950 . S
H122 C119 0.950 . S
C123 C114 1.390 . S
C123 H116 0.950 . S
C123 C120 1.387 . S
C124 C125 1.387 . S
C124 H128 0.950 . S
C124 C133 1.390 . S
C125 C124 1.387 . S
C125 C127 1.387 . S
H126 C133 0.950 . S
C127 C125 1.387 . S
C127 C129 1.390 . S
C127 H131 0.950 . S
H128 C124 0.950 . S
C129 C127 1.390 . S
C129 C130 1.387 . S
C129 H132 0.950 . S
C130 C129 1.387 . S
C130 C133 1.387 . S
H131 C127 0.950 . S
H132 C129 0.950 . S
C133 C124 1.390 . S
C133 H126 0.950 . S
C133 C130 1.387 . S
C134 C135 1.387 . S
C134 H138 0.950 . S
C134 C143 1.390 . S
C135 C134 1.387 . S
C135 C137 1.387 1_556 S
H136 C143 0.950 . S
C137 C135 1.387 1_554 S
C137 C139 1.390 1_554 S
C137 H141 0.950 . S
H138 C134 0.950 . S
C139 C137 1.390 1_556 S
C139 C140 1.387 . S
C139 H142 0.950 1_556 S
C140 C139 1.387 . S
C140 C143 1.387 . S
H141 C137 0.950 . S
H142 C139 0.950 1_554 S
C143 C134 1.390 . S
C143 H136 0.950 . S
C143 C140 1.387 . S
C144 C145 1.387 1_554 S
C144 H148 0.950 . S
C144 C153 1.390 . S
C145 C144 1.387 1_556 S
C145 C147 1.387 . S
H146 C153 0.950 . S
C147 C145 1.387 . S
C147 C149 1.390 . S
C147 H151 0.950 . S
H148 C144 0.950 . S
C149 C147 1.390 . S
C149 C150 1.387 . S
C149 H152 0.950 . S
C150 C149 1.387 . S
C150 C153 1.387 1_556 S
H151 C147 0.950 . S
H152 C149 0.950 . S
C153 C144 1.390 . S
C153 H146 0.950 . S
C153 C150 1.387 1_554 S
C154 C155 1.387 . S
C154 H158 0.950 . S
C154 C163 1.390 . S
C155 C154 1.387 . S
C155 C157 1.387 . S
H156 C163 0.950 . S
C157 C155 1.387 . S
C157 C159 1.390 . S
C157 H161 0.950 . S
H158 C154 0.950 . S
C159 C157 1.390 . S
C159 C160 1.387 . S
C159 H162 0.950 . S
C160 C159 1.387 . S
C160 C163 1.387 . S
H161 C157 0.950 . S
H162 C159 0.950 . S
C163 C154 1.390 . S
C163 H156 0.950 . S
C163 C160 1.387 . S
C164 C165 1.387 . S
C164 H168 0.950 . S
C164 C173 1.390 . S
C165 C164 1.387 . S
C165 C167 1.387 . S
H166 C173 0.950 . S
C167 C165 1.387 . S
C167 C169 1.390 . S
C167 H171 0.950 1_556 S
H168 C164 0.950 . S
C169 C167 1.390 . S
C169 C170 1.387 . S
C169 H172 0.950 . S
C170 C169 1.387 . S
C170 C173 1.387 . S
H171 C167 0.950 1_554 S
H172 C169 0.950 . S
C173 C164 1.390 . S
C173 H166 0.950 . S
C173 C170 1.387 . S
C174 C175 1.387 . S
C174 H178 0.950 . S
C174 C183 1.390 . S
C175 C174 1.387 . S
C175 C177 1.387 . S
H176 C183 0.950 . S
C177 C175 1.387 . S
C177 C179 1.390 . S
C177 H181 0.950 . S
H178 C174 0.950 . S
C179 C177 1.390 . S
C179 C180 1.387 . S
C179 H182 0.950 . S
C180 C179 1.387 . S
C180 C183 1.387 . S
H181 C177 0.950 . S
H182 C179 0.950 . S
C183 C174 1.390 . S
C183 H176 0.950 . S
C183 C180 1.387 . S
C184 C185 1.387 . S
C184 H188 0.950 . S
C184 C193 1.390 . S
C185 C184 1.387 . S
C185 C187 1.387 . S
H186 C193 0.950 . S
C187 C185 1.387 . S
C187 C189 1.390 . S
C187 H191 0.950 . S
H188 C184 0.950 . S
C189 C187 1.390 . S
C189 C190 1.387 . S
C189 H192 0.950 . S
C190 C189 1.387 . S
C190 C193 1.387 . S
H191 C187 0.950 . S
H192 C189 0.950 . S
C193 C184 1.390 . S
C193 H186 0.950 . S
C193 C190 1.387 . S
C194 C195 1.387 . S
C194 H198 0.950 . S
C194 C203 1.390 . S
C195 C194 1.387 . S
C195 C197 1.387 . S
H196 C203 0.950 . S
C197 C195 1.387 . S
C197 C199 1.390 . S
C197 H201 0.950 . S
H198 C194 0.950 . S
C199 C197 1.390 . S
C199 C200 1.387 . S
C199 H202 0.950 . S
C200 C199 1.387 . S
C200 C203 1.387 . S
H201 C197 0.950 . S
H202 C199 0.950 . S
C203 C194 1.390 . S
C203 H196 0.950 . S
C203 C200 1.387 . S
C204 C205 1.387 . S
C204 H208 0.950 . S
C204 C213 1.390 . S
C205 C204 1.387 . S
C205 C207 1.387 . S
H206 C213 0.950 . S
C207 C205 1.387 . S
C207 C209 1.390 . S
C207 H211 0.950 . S
H208 C204 0.950 . S
C209 C207 1.390 . S
C209 C210 1.387 . S
C209 H212 0.950 . S
C210 C209 1.387 . S
C210 C213 1.387 . S
H211 C207 0.950 . S
H212 C209 0.950 . S
C213 C204 1.390 . S
C213 H206 0.950 . S
C213 C210 1.387 . S
C100 C59 1.427 . S
C95 C4 1.480 . S
C110 C55 1.435 . S
C105 C17 1.485 . S
C120 C80 1.429 . S
C115 C30 1.479 . S
C125 C43 1.486 . S
C130 C76 1.435 . S
C135 C9 1.345 . S
C140 C77 1.189 . S
C150 C92 1.205 . S
C145 C22 1.358 . S
C155 C8 1.679 1_655 S
C160 C93 1.529 . S
C170 C89 1.545 . S
C165 C21 1.689 . S
C180 C56 1.191 . S
C175 C35 1.346 . S
C185 C48 1.358 . S
C190 C71 1.205 . S
C200 C72 1.525 . S
C195 C34 1.678 . S
C210 C68 1.545 . S
C205 C47 1.689 . S
