# Generated by pormake.
# Topology pyr, (3,6)-cn, num edge types: 1
# Building blocks:
#     Node 0, Type 0, BuildingBlock: ESEHIV_clean_linker_0, # of connection points: 3
#     Node 1, Type 0, BuildingBlock: ESEHIV_clean_linker_0, # of connection points: 3
#     Node 2, Type 0, BuildingBlock: ESEHIV_clean_linker_0, # of connection points: 3
#     Node 3, Type 0, BuildingBlock: ESEHIV_clean_linker_0, # of connection points: 3
#     Node 4, Type 0, BuildingBlock: ESEHIV_clean_linker_0, # of connection points: 3
#     Node 5, Type 0, BuildingBlock: ESEHIV_clean_linker_0, # of connection points: 3
#     Node 6, Type 0, BuildingBlock: ESEHIV_clean_linker_0, # of connection points: 3
#     Node 7, Type 0, BuildingBlock: ESEHIV_clean_linker_0, # of connection points: 3
#     Node 8, Type 1, BuildingBlock: BETGAK_clean_sbu_0, # of connection points: 6
#     Node 9, Type 1, BuildingBlock: BETGAK_clean_sbu_0, # of connection points: 6
#     Node 10, Type 1, BuildingBlock: BETGAK_clean_sbu_0, # of connection points: 6
#     Node 11, Type 1, BuildingBlock: BETGAK_clean_sbu_0, # of connection points: 6
#     Edge 12, Type (0, 1), None
#     Edge 13, Type (0, 1), None
#     Edge 14, Type (0, 1), None
#     Edge 15, Type (0, 1), None
#     Edge 16, Type (0, 1), None
#     Edge 17, Type (0, 1), None
#     Edge 18, Type (0, 1), None
#     Edge 19, Type (0, 1), None
#     Edge 20, Type (0, 1), None
#     Edge 21, Type (0, 1), None
#     Edge 22, Type (0, 1), None
#     Edge 23, Type (0, 1), None
#     Edge 24, Type (0, 1), None
#     Edge 25, Type (0, 1), None
#     Edge 26, Type (0, 1), None
#     Edge 27, Type (0, 1), None
#     Edge 28, Type (0, 1), None
#     Edge 29, Type (0, 1), None
#     Edge 30, Type (0, 1), None
#     Edge 31, Type (0, 1), None
#     Edge 32, Type (0, 1), None
#     Edge 33, Type (0, 1), None
#     Edge 34, Type (0, 1), None
#     Edge 35, Type (0, 1), None
# Relax obj value: 0.510
# Max RMSD: 0.225
# Mean RMSD: 0.111
data_MOF--net-pyr--node1-BETGAK_clean_sbu_0--node2-ESEHIV_clean_linker_0--edge1-none
_symmetry_space_group_name_H-M    P1
_symmetry_Int_Tables_number       1
_symmetry_cell_setting            triclinic
loop_
_symmetry_equiv_pos_as_xyz
'x, y, z'
_cell_length_a     15.10928
_cell_length_b     16.275435
_cell_length_c     14.113087
_cell_angle_alpha  87.99731
_cell_angle_beta   85.965238
_cell_angle_gamma 104.10953
loop_
_atom_site_label
_atom_site_type_symbol
_atom_site_fract_x
_atom_site_fract_y
_atom_site_fract_z
_atom_type_partial_charge
H0 H 0.47302 0.51909 0.39949 0.0
H1 H 0.65445 0.3724 0.36397 0.0
H2 H 0.42814 0.32867 0.1915 0.0
C3 C 0.48774 0.46734 0.36178 0.0
C4 C 0.43591 0.43017 0.2886 0.0
C5 C 0.53817 0.41748 0.40429 0.0
C6 C 0.59649 0.39227 0.33898 0.0
C7 C 0.54833 0.34494 0.27226 0.0
C8 C 0.46869 0.36676 0.24123 0.0
H9 H 0.96421 1.00858 0.9538 0.0
H10 H 0.21242 0.94974 1.0324 0.0
H11 H 0.08136 0.83774 0.79319 0.0
C12 C 1.0128 0.96943 0.94658 0.0
C13 C 1.02545 0.93217 0.86077 0.0
C14 C 0.07787 0.97269 1.01277 0.0
C15 C 0.15416 0.93838 0.98972 0.0
C16 C 0.15383 0.88812 0.91099 0.0
C17 C 0.07966 0.87425 0.856 0.0
H18 H 0.76181 0.36895 1.12265 0.0
H19 H 0.7871 0.60142 0.9518 0.0
H20 H 0.5649 0.38275 0.91938 0.0
C21 C 0.73961 0.40324 1.06543 0.0
C22 C 0.65946 0.362 1.02138 0.0
C23 C 0.78702 0.49011 1.04312 0.0
C24 C 0.75128 0.53649 0.97112 0.0
C25 C 0.67176 0.49923 0.92171 0.0
C26 C 0.62793 0.41181 0.95023 0.0
H27 H 0.81424 0.86123 0.63308 0.0
H28 H 0.03966 0.8718 0.42399 0.0
H29 H 0.81187 0.64875 0.45898 0.0
C30 C 0.84638 0.83311 0.57614 0.0
C31 C 0.80204 0.7499 0.55356 0.0
C32 C 0.93086 0.88044 0.53085 0.0
C33 C 0.97314 0.83846 0.457 0.0
C34 C 0.93163 0.7538 0.42542 0.0
C35 C 0.84433 0.71211 0.47607 0.0
H36 H 0.43135 0.8594 1.00275 0.0
H37 H 0.61295 0.71283 0.96692 0.0
H38 H 0.65777 0.90328 1.17492 0.0
C39 C 0.48939 0.83951 1.02749 0.0
C40 C 0.53751 0.88688 1.09423 0.0
C41 C 0.54777 0.81435 0.9622 0.0
C42 C 0.59818 0.7645 1.00473 0.0
C43 C 0.65005 0.80176 1.07784 0.0
C44 C 0.61722 0.86514 1.12522 0.0
H45 H 0.87352 0.28223 0.33399 0.0
H46 H 0.12166 0.22312 0.41231 0.0
H47 H 1.00488 0.39422 0.57299 0.0
C48 C 0.93182 0.29354 0.37661 0.0
C49 C 0.93229 0.34384 0.45533 0.0
C50 C 1.00804 0.25916 0.35348 0.0
C51 C 0.07317 0.26236 0.41959 0.0
C52 C 0.06064 0.29965 0.50541 0.0
C53 C 1.00654 0.35766 0.51021 0.0
H54 H 0.32423 0.86301 0.24365 0.0
H55 H 0.29874 0.6305 0.41451 0.0
H56 H 0.521 0.84907 0.44704 0.0
C57 C 0.34639 0.82869 0.30086 0.0
C58 C 0.42653 0.86988 0.34497 0.0
C59 C 0.29893 0.74181 0.32316 0.0
C60 C 0.33462 0.69541 0.39518 0.0
C61 C 0.41412 0.73263 0.44462 0.0
C62 C 0.45799 0.82003 0.41613 0.0
H63 H 0.04602 0.36016 0.94223 0.0
H64 H 0.27144 0.37034 0.73325 0.0
H65 H 0.27405 0.58301 0.90709 0.0
C66 C 0.11257 0.39341 0.90922 0.0
C67 C 0.15418 0.47807 0.94073 0.0
C68 C 0.15481 0.35131 0.83543 0.0
C69 C 0.23933 0.39854 0.79014 0.0
C70 C 0.28375 0.48174 0.81263 0.0
C71 C 0.24153 0.51964 0.89006 0.0
La72 La 0.13129 1.10636 0.65132 0.0
La73 La 0.95426 0.12546 0.7149 0.0
C74 C 0.29658 0.12803 0.59489 0.0
C75 C 0.36747 0.20539 0.57166 0.0
C76 C 0.45588 0.20171 0.54034 0.0
C77 C 0.51596 0.27339 0.49519 0.0
C78 C 0.48625 0.34826 0.4768 0.0
C79 C 0.4032 0.35407 0.52367 0.0
C80 C 0.34313 0.28286 0.56809 0.0
C81 C 0.03942 0.98795 0.77624 0.0
C82 C 0.11279 0.26185 0.79579 0.0
C83 C 0.78895 1.10393 0.77121 0.0
C84 C 0.71811 1.02656 0.79459 0.0
C85 C 0.62975 1.03021 0.82613 0.0
C86 C 0.56979 0.95853 0.87143 0.0
C87 C 0.59959 0.88369 0.88976 0.0
C88 C 0.68255 0.8779 0.8427 0.0
C89 C 0.74251 0.9491 0.79814 0.0
C90 C 0.04658 0.24384 0.58992 0.0
C91 C 0.97282 0.96989 0.57055 0.0
O92 O 0.26625 1.11418 0.68465 0.0
O93 O 0.23029 0.11736 0.53803 0.0
O94 O 0.09402 0.97703 0.70598 0.0
O95 O 0.04441 1.06588 0.7795 0.0
O96 O 0.16345 0.22807 0.73297 0.0
O97 O 1.02426 0.22353 0.81061 0.0
O98 O 0.81932 0.11764 0.68145 0.0
O99 O 0.85522 1.11474 0.8281 0.0
O100 O 0.99206 0.25488 0.66021 0.0
O101 O 0.04099 0.16583 0.5867 0.0
O102 O 0.92216 1.00365 0.6334 0.0
O103 O 0.06133 1.00827 0.55566 0.0
H104 H 0.47646 0.14251 0.54529 0.0
H105 H 0.58304 0.26745 0.46939 0.0
H106 H 0.3824 0.4123 0.52239 0.0
H107 H 0.27526 0.28716 0.59318 0.0
H108 H 0.60912 1.08939 0.82122 0.0
H109 H 0.50273 0.96444 0.89734 0.0
H110 H 0.70334 0.81965 0.84383 0.0
H111 H 0.81033 0.94482 0.7729 0.0
La112 La 0.60451 1.11292 0.20296 0.0
La113 La 0.48118 0.119 1.16323 0.0
C114 C 0.75047 1.07323 0.23755 0.0
C115 C 0.84843 1.10293 0.22106 0.0
C116 C 0.90237 1.0666 0.27795 0.0
C117 C 0.98512 0.11703 0.30164 0.0
C118 C 1.00619 0.20362 0.27372 0.0
C119 C 0.97017 0.22854 0.19151 0.0
C120 C 0.88673 0.17913 1.16793 0.0
C121 C 0.49544 0.94835 0.2941 0.0
C122 C 0.55469 0.25792 0.27703 0.0
C123 C 0.33522 0.15867 1.1286 0.0
C124 C 0.23726 0.12898 1.14515 0.0
C125 C 0.18328 0.16526 1.08827 0.0
C126 C 0.10055 1.11479 1.06461 0.0
C127 C 0.07954 1.02821 1.09253 0.0
C128 C 0.11556 1.00334 1.17478 0.0
C129 C 0.19899 1.0528 0.19833 0.0
C130 C 0.5906 0.28365 1.07252 0.0
C131 C 0.53108 0.97388 1.08943 0.0
O132 O 0.70942 0.11688 0.29434 0.0
O133 O 0.70839 1.05511 1.16136 0.0
O134 O 0.4884 1.02689 0.28861 0.0
O135 O 0.48974 1.02831 0.28718 0.0
O136 O 0.63051 0.23939 0.25008 0.0
O137 O 0.48112 0.19729 0.28027 0.0
O138 O 0.37625 1.11495 1.07186 0.0
O139 O 0.37734 0.17688 0.20474 0.0
O140 O 0.59728 0.20498 1.07755 0.0
O141 O 0.59589 0.20355 1.07903 0.0
O142 O 0.45525 0.99242 1.11633 0.0
O143 O 0.60462 1.03456 1.08602 0.0
H144 H 0.8748 1.00538 0.31541 0.0
H145 H 1.0177 1.09415 0.35958 0.0
H146 H 0.99154 0.29343 1.16288 0.0
H147 H 0.84676 0.20594 1.12017 0.0
H148 H 0.21083 0.22647 1.05078 0.0
H149 H 0.06793 0.13764 1.00668 0.0
H150 H 0.09424 0.93845 0.20342 0.0
H151 H 0.23899 1.02601 0.2461 0.0
La152 La 0.53516 0.55841 0.64541 0.0
La153 La 0.55076 0.67351 0.72091 0.0
C154 C 0.61684 0.46037 0.56795 0.0
C155 C 0.70591 0.44019 0.5513 0.0
C156 C 0.72786 0.37479 0.60461 0.0
C157 C 0.80222 0.34334 0.573 0.0
C158 C 0.85362 0.37587 0.48702 0.0
C159 C 0.83322 0.4422 0.43514 0.0
C160 C 0.76051 0.47455 0.46751 0.0
C161 C 0.37119 0.5263 0.74751 0.0
C162 C 0.63271 0.54718 0.83983 0.0
C163 C 0.46934 0.77172 0.79833 0.0
C164 C 0.3803 0.79194 0.81499 0.0
C165 C 0.3585 0.85754 0.76186 0.0
C166 C 0.28414 0.88896 0.79352 0.0
C167 C 0.23259 0.85621 0.87934 0.0
C168 C 0.25284 0.78971 0.93104 0.0
C169 C 0.32557 0.7574 0.89864 0.0
C170 C 0.71469 0.70518 0.61871 0.0
C171 C 0.45313 0.68468 0.52652 0.0
O172 O 0.56374 0.43661 0.64584 0.0
O173 O 0.60811 0.53087 0.52804 0.0
O174 O 0.38453 0.50929 0.65849 0.0
O175 O 0.45024 0.55873 0.77507 0.0
O176 O 0.59048 0.50437 0.77175 0.0
O177 O 0.63361 0.6291 0.83286 0.0
O178 O 0.52246 0.79544 0.72044 0.0
O179 O 0.47801 0.70121 0.83827 0.0
O180 O 0.70152 0.72204 0.70782 0.0
O181 O 0.63543 0.67334 0.5913 0.0
O182 O 0.49537 0.7275 0.59459 0.0
O183 O 0.45226 0.60276 0.53349 0.0
H184 H 0.6857 0.3458 0.66805 0.0
H185 H 0.81835 0.29226 0.61421 0.0
H186 H 0.87199 0.46772 0.36869 0.0
H187 H 0.74164 0.52081 0.42133 0.0
H188 H 0.40077 0.88667 0.69856 0.0
H189 H 0.26811 0.94017 0.75244 0.0
H190 H 0.21393 0.764 0.99736 0.0
H191 H 0.34431 0.71098 0.94469 0.0
La192 La 0.03971 0.5727 0.21726 0.0
La193 La 0.04624 0.65917 1.149 0.0
C194 C 0.0609 0.45042 0.30862 0.0
C195 C 0.15062 0.43087 0.30373 0.0
C196 C 0.20404 0.45627 0.37868 0.0
C197 C 0.29625 0.4624 0.36915 0.0
C198 C 0.33885 0.43602 0.28759 0.0
C199 C 0.2843 0.40703 0.21267 0.0
C200 C 0.19092 0.40597 0.22 0.0
C201 C 0.99011 0.7098 0.35171 0.0
C202 C 0.2132 0.69978 0.26972 0.0
C203 C 1.02506 0.78145 1.05762 0.0
C204 C 0.93535 0.80104 1.06256 0.0
C205 C 0.88193 0.77573 0.9876 0.0
C206 C 0.78973 0.76967 0.99714 0.0
C207 C 0.74715 0.79598 1.07875 0.0
C208 C 0.80171 0.82491 1.15368 0.0
C209 C 0.89508 0.82592 1.14633 0.0
C210 C 0.09577 0.52226 1.0143 0.0
C211 C 0.87275 0.53214 1.09653 0.0
O212 O 0.05944 0.52082 0.34865 0.0
O213 O 1.01442 0.43989 0.23354 0.0
O214 O 0.9563 0.65291 0.29003 0.0
O215 O 0.96129 0.65273 0.28893 0.0
O216 O 0.17989 0.6184 0.2684 0.0
O217 O 0.16372 0.74016 0.22211 0.0
O218 O 1.02645 0.71103 1.01761 0.0
O219 O 0.07159 0.79198 1.13268 0.0
O220 O 0.12958 0.57888 1.07625 0.0
O221 O 0.12465 0.57908 1.07734 0.0
O222 O 0.90605 0.61351 1.09787 0.0
O223 O 0.92224 0.49174 1.14411 0.0
H224 H 0.17574 0.47798 0.44315 0.0
H225 H 0.33187 0.48932 0.42796 0.0
H226 H 0.31356 0.38717 1.14785 0.0
H227 H 0.15137 0.38813 1.15962 0.0
H228 H 0.91021 0.75406 0.9231 0.0
H229 H 0.75411 0.74284 0.93829 0.0
H230 H 0.77245 0.84473 0.21853 0.0
H231 H 0.93464 0.84369 0.20672 0.0
loop_
_geom_bond_atom_site_label_1
_geom_bond_atom_site_label_2
_geom_bond_distance
_geom_bond_site_symmetry_2
_ccdc_geom_bond_type
H0 C3 0.931 . S
H1 C6 0.928 . S
H2 C8 0.930 . S
C3 H0 0.931 . S
C3 C4 1.413 . S
C3 C5 1.360 . S
C4 C3 1.413 . S
C4 C8 1.429 . S
C5 C3 1.360 . S
C5 C6 1.372 . S
C6 H1 0.928 . S
C6 C5 1.372 . S
C6 C7 1.404 . S
C7 C6 1.404 . S
C7 C8 1.391 . S
C8 H2 0.930 . S
C8 C4 1.429 . S
C8 C7 1.391 . S
H9 C12 0.931 . S
H10 C15 0.928 . S
H11 C17 0.930 . S
C12 H9 0.931 . S
C12 C13 1.413 . S
C12 C14 1.360 . S
C13 C12 1.413 . S
C13 C17 1.429 . S
C14 C12 1.360 . S
C14 C15 1.372 . S
C15 H10 0.928 . S
C15 C14 1.372 . S
C15 C16 1.404 . S
C16 C15 1.404 . S
C16 C17 1.391 . S
C17 H11 0.930 . S
C17 C13 1.429 . S
C17 C16 1.391 . S
H18 C21 0.931 . S
H19 C24 0.928 . S
H20 C26 0.930 . S
C21 H18 0.931 . S
C21 C22 1.413 . S
C21 C23 1.360 . S
C22 C21 1.413 . S
C22 C26 1.429 . S
C23 C21 1.360 . S
C23 C24 1.372 . S
C24 H19 0.928 . S
C24 C23 1.372 . S
C24 C25 1.404 . S
C25 C24 1.404 . S
C25 C26 1.391 . S
C26 H20 0.930 . S
C26 C22 1.429 . S
C26 C25 1.391 . S
H27 C30 0.931 . S
H28 C33 0.928 . S
H29 C35 0.930 . S
C30 H27 0.931 . S
C30 C31 1.413 . S
C30 C32 1.360 . S
C31 C30 1.413 . S
C31 C35 1.429 . S
C32 C30 1.360 . S
C32 C33 1.372 . S
C33 H28 0.928 . S
C33 C32 1.372 . S
C33 C34 1.404 . S
C34 C33 1.404 . S
C34 C35 1.391 . S
C35 H29 0.930 . S
C35 C31 1.429 . S
C35 C34 1.391 . S
H36 C39 0.931 . S
H37 C42 0.928 . S
H38 C44 0.930 . S
C39 H36 0.931 . S
C39 C40 1.413 . S
C39 C41 1.360 . S
C40 C39 1.413 . S
C40 C44 1.429 . S
C41 C39 1.360 . S
C41 C42 1.372 . S
C42 H37 0.928 . S
C42 C41 1.372 . S
C42 C43 1.404 . S
C43 C42 1.404 . S
C43 C44 1.391 . S
C44 H38 0.930 . S
C44 C40 1.429 . S
C44 C43 1.391 . S
H45 C48 0.931 . S
H46 C51 0.928 . S
H47 C53 0.930 . S
C48 H45 0.931 . S
C48 C49 1.413 . S
C48 C50 1.360 . S
C49 C48 1.413 . S
C49 C53 1.429 . S
C50 C48 1.360 . S
C50 C51 1.372 . S
C51 H46 0.928 . S
C51 C50 1.372 . S
C51 C52 1.404 . S
C52 C51 1.404 . S
C52 C53 1.391 . S
C53 H47 0.930 . S
C53 C49 1.429 . S
C53 C52 1.391 . S
H54 C57 0.931 . S
H55 C60 0.928 . S
H56 C62 0.930 . S
C57 H54 0.931 . S
C57 C58 1.413 . S
C57 C59 1.360 . S
C58 C57 1.413 . S
C58 C62 1.429 . S
C59 C57 1.360 . S
C59 C60 1.372 . S
C60 H55 0.928 . S
C60 C59 1.372 . S
C60 C61 1.404 . S
C61 C60 1.404 . S
C61 C62 1.391 . S
C62 H56 0.930 . S
C62 C58 1.429 . S
C62 C61 1.391 . S
H63 C66 0.931 . S
H64 C69 0.928 . S
H65 C71 0.930 . S
C66 H63 0.931 . S
C66 C67 1.413 . S
C66 C68 1.360 . S
C67 C66 1.413 . S
C67 C71 1.429 . S
C68 C66 1.360 . S
C68 C69 1.372 . S
C69 H64 0.928 . S
C69 C68 1.372 . S
C69 C70 1.404 . S
C70 C69 1.404 . S
C70 C71 1.391 . S
C71 H65 0.930 . S
C71 C67 1.429 . S
C71 C70 1.391 . S
La72 C74 2.928 . S
La72 O92 2.521 . S
La72 O93 2.628 . S
La72 O94 2.554 1_545 S
La72 O95 2.757 1_545 S
La72 O96 2.470 . S
La72 O101 2.482 1_455 S
La72 O103 2.503 1_445 S
La73 C83 2.928 . S
La73 O95 2.482 1_655 S
La73 O97 2.503 1_665 S
La73 O98 2.521 . S
La73 O99 2.628 . S
La73 O100 2.554 1_565 S
La73 O101 2.757 1_565 S
La73 O102 2.470 . S
C74 La72 2.928 . S
C74 C75 1.503 . S
C74 O92 1.261 . S
C74 O93 1.243 . S
C75 C74 1.503 . S
C75 C76 1.394 . S
C75 C80 1.373 . S
C76 C75 1.394 . S
C76 C77 1.380 . S
C76 H104 0.930 . S
C77 C76 1.380 . S
C77 C78 1.376 . S
C77 H105 0.930 . S
C78 C77 1.376 . S
C78 C79 1.370 . S
C79 C78 1.370 . S
C79 C80 1.396 . S
C79 H106 0.929 . S
C80 C75 1.373 . S
C80 C79 1.396 . S
C80 H107 0.929 . S
C81 O94 1.240 . S
C81 O95 1.289 . S
C82 O96 1.258 . S
C82 O97 1.256 . S
C83 La73 2.928 . S
C83 C84 1.503 . S
C83 O98 1.261 . S
C83 O99 1.243 . S
C84 C83 1.503 . S
C84 C85 1.394 . S
C84 C89 1.373 . S
C85 C84 1.394 . S
C85 C86 1.380 . S
C85 H108 0.930 . S
C86 C85 1.380 . S
C86 C87 1.376 . S
C86 H109 0.930 . S
C87 C86 1.376 . S
C87 C88 1.370 . S
C88 C87 1.370 . S
C88 C89 1.396 . S
C88 H110 0.929 . S
C89 C84 1.373 . S
C89 C88 1.396 . S
C89 H111 0.929 . S
C90 O100 1.240 . S
C90 O101 1.289 . S
C91 O102 1.258 . S
C91 O103 1.256 . S
O92 La72 2.521 . S
O92 C74 1.261 . S
O93 La72 2.628 . S
O93 C74 1.243 . S
O94 La72 2.554 1_565 S
O94 C81 1.240 . S
O95 La72 2.757 1_565 S
O95 La73 2.482 1_455 S
O95 C81 1.289 . S
O96 La72 2.470 . S
O96 C82 1.258 . S
O97 La73 2.503 1_445 S
O97 C82 1.256 . S
O98 La73 2.521 . S
O98 C83 1.261 . S
O99 La73 2.628 . S
O99 C83 1.243 . S
O100 La73 2.554 1_545 S
O100 C90 1.240 . S
O101 La72 2.482 1_655 S
O101 La73 2.757 1_545 S
O101 C90 1.289 . S
O102 La73 2.470 . S
O102 C91 1.258 . S
O103 La72 2.503 1_665 S
O103 C91 1.256 . S
H104 C76 0.930 . S
H105 C77 0.930 . S
H106 C79 0.929 . S
H107 C80 0.929 . S
H108 C85 0.930 . S
H109 C86 0.930 . S
H110 C88 0.929 . S
H111 C89 0.929 . S
La112 C114 2.928 1_565 S
La112 O132 2.521 1_565 S
La112 O133 2.628 1_565 S
La112 O134 2.554 . S
La112 O135 2.757 . S
La112 O136 2.470 1_565 S
La112 O141 2.482 1_564 S
La112 O143 2.503 1_554 S
La113 C123 2.928 1_545 S
La113 O135 2.482 1_546 S
La113 O137 2.503 1_556 S
La113 O138 2.521 1_545 S
La113 O139 2.628 1_545 S
La113 O140 2.554 . S
La113 O141 2.757 . S
La113 O142 2.470 1_545 S
C114 La112 2.928 1_545 S
C114 C115 1.503 . S
C114 O132 1.261 . S
C114 O133 1.243 . S
C115 C114 1.503 . S
C115 C116 1.394 . S
C115 C120 1.373 . S
C116 C115 1.394 . S
C116 C117 1.380 . S
C116 H144 0.930 . S
C117 C116 1.380 . S
C117 C118 1.376 . S
C117 H145 0.930 . S
C118 C117 1.376 . S
C118 C119 1.370 . S
C119 C118 1.370 . S
C119 C120 1.396 . S
C119 H146 0.929 . S
C120 C115 1.373 . S
C120 C119 1.396 . S
C120 H147 0.929 . S
C121 O134 1.240 . S
C121 O135 1.289 . S
C122 O136 1.258 . S
C122 O137 1.256 . S
C123 La113 2.928 1_565 S
C123 C124 1.503 . S
C123 O138 1.272 . S
C123 O139 1.243 . S
C124 C123 1.503 . S
C124 C125 1.394 . S
C124 C129 1.373 . S
C125 C124 1.394 . S
C125 C126 1.380 . S
C125 H148 0.930 . S
C126 C125 1.380 . S
C126 C127 1.376 . S
C126 H149 0.930 . S
C127 C126 1.376 . S
C127 C128 1.370 . S
C128 C127 1.370 . S
C128 C129 1.396 . S
C128 H150 0.929 . S
C129 C124 1.373 . S
C129 C128 1.396 . S
C129 H151 0.929 . S
C130 O140 1.240 . S
C130 O141 1.289 . S
C131 O142 1.258 . S
C131 O143 1.256 . S
O132 La112 2.521 1_545 S
O132 C114 1.261 . S
O133 La112 2.628 1_545 S
O133 C114 1.243 . S
O134 La112 2.554 . S
O134 C121 1.240 . S
O135 La112 2.757 . S
O135 La113 2.482 1_564 S
O135 C121 1.289 . S
O136 La112 2.470 1_545 S
O136 C122 1.258 . S
O137 La113 2.503 1_554 S
O137 C122 1.256 . S
O138 La113 2.521 1_565 S
O138 C123 1.272 . S
O139 La113 2.628 1_565 S
O139 C123 1.243 . S
O140 La113 2.554 . S
O140 C130 1.240 . S
O141 La112 2.482 1_546 S
O141 La113 2.757 . S
O141 C130 1.289 . S
O142 La113 2.470 1_565 S
O142 C131 1.258 . S
O143 La112 2.503 1_556 S
O143 C131 1.256 . S
H144 C116 0.930 . S
H145 C117 0.930 . S
H146 C119 0.929 . S
H147 C120 0.929 . S
H148 C125 0.930 . S
H149 C126 0.930 . S
H150 C128 0.929 . S
H151 C129 0.929 . S
La152 C154 2.928 . S
La152 O172 2.521 . S
La152 O173 2.628 . S
La152 O174 2.554 . S
La152 O175 2.757 . S
La152 O176 2.470 . S
La152 O181 2.482 . S
La152 O183 2.503 . S
La153 C163 2.928 . S
La153 O175 2.482 . S
La153 O177 2.503 . S
La153 O178 2.521 . S
La153 O179 2.628 . S
La153 O180 2.554 . S
La153 O181 2.757 . S
La153 O182 2.470 . S
C154 La152 2.928 . S
C154 C155 1.503 . S
C154 O172 1.261 . S
C154 O173 1.243 . S
C155 C154 1.503 . S
C155 C156 1.394 . S
C155 C160 1.373 . S
C156 C155 1.394 . S
C156 C157 1.380 . S
C156 H184 0.930 . S
C157 C156 1.380 . S
C157 C158 1.376 . S
C157 H185 0.930 . S
C158 C157 1.376 . S
C158 C159 1.370 . S
C159 C158 1.370 . S
C159 C160 1.396 . S
C159 H186 0.929 . S
C160 C155 1.373 . S
C160 C159 1.396 . S
C160 H187 0.929 . S
C161 O174 1.240 . S
C161 O175 1.289 . S
C162 O176 1.258 . S
C162 O177 1.256 . S
C163 La153 2.928 . S
C163 C164 1.503 . S
C163 O178 1.261 . S
C163 O179 1.243 . S
C164 C163 1.503 . S
C164 C165 1.394 . S
C164 C169 1.373 . S
C165 C164 1.394 . S
C165 C166 1.380 . S
C165 H188 0.930 . S
C166 C165 1.380 . S
C166 C167 1.376 . S
C166 H189 0.930 . S
C167 C166 1.376 . S
C167 C168 1.370 . S
C168 C167 1.370 . S
C168 C169 1.396 . S
C168 H190 0.929 . S
C169 C164 1.373 . S
C169 C168 1.396 . S
C169 H191 0.929 . S
C170 O180 1.240 . S
C170 O181 1.289 . S
C171 O182 1.258 . S
C171 O183 1.256 . S
O172 La152 2.521 . S
O172 C154 1.261 . S
O173 La152 2.628 . S
O173 C154 1.243 . S
O174 La152 2.554 . S
O174 C161 1.240 . S
O175 La152 2.757 . S
O175 La153 2.482 . S
O175 C161 1.289 . S
O176 La152 2.470 . S
O176 C162 1.258 . S
O177 La153 2.503 . S
O177 C162 1.256 . S
O178 La153 2.521 . S
O178 C163 1.261 . S
O179 La153 2.628 . S
O179 C163 1.243 . S
O180 La153 2.554 . S
O180 C170 1.240 . S
O181 La152 2.482 . S
O181 La153 2.757 . S
O181 C170 1.289 . S
O182 La153 2.470 . S
O182 C171 1.258 . S
O183 La152 2.503 . S
O183 C171 1.256 . S
H184 C156 0.930 . S
H185 C157 0.930 . S
H186 C159 0.929 . S
H187 C160 0.929 . S
H188 C165 0.930 . S
H189 C166 0.930 . S
H190 C168 0.929 . S
H191 C169 0.929 . S
La192 C194 2.928 . S
La192 O212 2.521 . S
La192 O213 2.628 . S
La192 O214 2.554 1_455 S
La192 O215 2.757 1_455 S
La192 O216 2.470 . S
La192 O221 2.482 1_554 S
La192 O223 2.503 1_454 S
La193 C203 2.928 . S
La193 O215 2.482 1_556 S
La193 O217 2.503 1_656 S
La193 O218 2.521 . S
La193 O219 2.628 . S
La193 O220 2.554 1_655 S
La193 O221 2.757 1_655 S
La193 O222 2.470 . S
C194 La192 2.928 . S
C194 C195 1.503 . S
C194 O212 1.261 . S
C194 O213 1.243 . S
C195 C194 1.503 . S
C195 C196 1.394 . S
C195 C200 1.373 . S
C196 C195 1.394 . S
C196 C197 1.380 . S
C196 H224 0.930 . S
C197 C196 1.380 . S
C197 C198 1.376 . S
C197 H225 0.930 . S
C198 C197 1.376 . S
C198 C199 1.370 . S
C199 C198 1.370 . S
C199 C200 1.396 . S
C199 H226 0.929 . S
C200 C195 1.373 . S
C200 C199 1.396 . S
C200 H227 0.929 . S
C201 O214 1.240 . S
C201 O215 1.289 . S
C202 O216 1.258 . S
C202 O217 1.256 . S
C203 La193 2.928 . S
C203 C204 1.503 . S
C203 O218 1.261 . S
C203 O219 1.243 . S
C204 C203 1.503 . S
C204 C205 1.394 . S
C204 C209 1.373 . S
C205 C204 1.394 . S
C205 C206 1.380 . S
C205 H228 0.930 . S
C206 C205 1.380 . S
C206 C207 1.376 . S
C206 H229 0.930 . S
C207 C206 1.376 . S
C207 C208 1.370 . S
C208 C207 1.370 . S
C208 C209 1.396 . S
C208 H230 0.929 . S
C209 C204 1.373 . S
C209 C208 1.396 . S
C209 H231 0.929 . S
C210 O220 1.240 . S
C210 O221 1.289 . S
C211 O222 1.258 . S
C211 O223 1.256 . S
O212 La192 2.521 . S
O212 C194 1.261 . S
O213 La192 2.628 . S
O213 C194 1.243 . S
O214 La192 2.554 1_655 S
O214 C201 1.240 . S
O215 La192 2.757 1_655 S
O215 La193 2.482 1_554 S
O215 C201 1.289 . S
O216 La192 2.470 . S
O216 C202 1.258 . S
O217 La193 2.503 1_454 S
O217 C202 1.256 . S
O218 La193 2.521 . S
O218 C203 1.261 . S
O219 La193 2.628 . S
O219 C203 1.243 . S
O220 La193 2.554 1_455 S
O220 C210 1.240 . S
O221 La192 2.482 1_556 S
O221 La193 2.757 1_455 S
O221 C210 1.289 . S
O222 La193 2.470 . S
O222 C211 1.258 . S
O223 La192 2.503 1_656 S
O223 C211 1.256 . S
H224 C196 0.930 . S
H225 C197 0.930 . S
H226 C199 0.929 . S
H227 C200 0.929 . S
H228 C205 0.930 . S
H229 C206 0.930 . S
H230 C208 0.929 . S
H231 C209 0.929 . S
C5 C78 1.122 . S
C14 C127 1.445 . S
C162 C25 3.757 . S
C34 C201 3.815 . S
C122 C7 2.795 . S
C81 C13 1.339 . S
C211 C23 2.554 . S
C170 C31 2.531 . S
C4 C198 1.815 . S
C130 C22 3.482 . S
C32 C91 3.601 . S
C16 C167 1.925 . S
C87 C41 1.096 . S
C50 C118 1.455 . S
C61 C171 3.747 . S
C67 C210 3.824 . S
C40 C131 2.807 . S
C90 C52 1.359 . S
C202 C59 2.559 . S
C161 C70 2.532 . S
C43 C207 1.784 . S
C121 C58 3.499 . S
C82 C68 3.570 . S
C49 C158 1.956 . S
