# Generated by pormake.
# Topology anh, (6,3)-cn, num edge types: 1
# Building blocks:
#     Node 0, Type 0, BuildingBlock: HISSIN_clean_sbu_0, # of connection points: 6
#     Node 1, Type 0, BuildingBlock: HISSIN_clean_sbu_0, # of connection points: 6
#     Node 2, Type 0, BuildingBlock: HISSIN_clean_sbu_0, # of connection points: 6
#     Node 3, Type 1, BuildingBlock: PAMTOO_clean_linker_0, # of connection points: 3
#     Node 4, Type 1, BuildingBlock: PAMTOO_clean_linker_0, # of connection points: 3
#     Node 5, Type 1, BuildingBlock: PAMTOO_clean_linker_0, # of connection points: 3
#     Node 6, Type 1, BuildingBlock: PAMTOO_clean_linker_0, # of connection points: 3
#     Node 7, Type 1, BuildingBlock: PAMTOO_clean_linker_0, # of connection points: 3
#     Node 8, Type 1, BuildingBlock: PAMTOO_clean_linker_0, # of connection points: 3
#     Edge 9, Type (0, 1), None
#     Edge 10, Type (0, 1), None
#     Edge 11, Type (0, 1), None
#     Edge 12, Type (0, 1), None
#     Edge 13, Type (0, 1), None
#     Edge 14, Type (0, 1), None
#     Edge 15, Type (0, 1), None
#     Edge 16, Type (0, 1), None
#     Edge 17, Type (0, 1), None
#     Edge 18, Type (0, 1), None
#     Edge 19, Type (0, 1), None
#     Edge 20, Type (0, 1), None
#     Edge 21, Type (0, 1), None
#     Edge 22, Type (0, 1), None
#     Edge 23, Type (0, 1), None
#     Edge 24, Type (0, 1), None
#     Edge 25, Type (0, 1), None
#     Edge 26, Type (0, 1), None
# Relax obj value: 0.742
# Max RMSD: 0.221
# Mean RMSD: 0.156
data_MOF--net-anh--node1-HISSIN_clean_sbu_0--node2-PAMTOO_clean_linker_0--edge1-none
_symmetry_space_group_name_H-M    P1
_symmetry_Int_Tables_number       1
_symmetry_cell_setting            triclinic
loop_
_symmetry_equiv_pos_as_xyz
'x, y, z'
_cell_length_a     13.20316
_cell_length_b     13.534763
_cell_length_c     22.802753
_cell_angle_alpha  87.236544
_cell_angle_beta   91.859337
_cell_angle_gamma 120.8366
loop_
_atom_site_label
_atom_site_type_symbol
_atom_site_fract_x
_atom_site_fract_y
_atom_site_fract_z
_atom_type_partial_charge
Eu0 Eu 1.26259 0.6166 0.07039 0.0
Eu1 Eu 0.36293 0.84466 0.13644 0.0
C2 C 1.28317 0.61379 0.21164 0.0
C3 C 1.09182 0.31926 0.01321 0.0
C4 C 0.9905 0.2966 0.04297 0.0
C5 C 1.09204 1.16138 0.06647 0.0
C6 C 0.95205 1.21842 0.09023 0.0
C7 C 1.13065 0.24022 0.01902 0.0
C8 C 1.01142 1.15959 0.10568 0.0
C9 C 1.18239 0.43963 0.00332 0.0
O10 O 0.5219 0.84492 0.09448 0.0
O11 O 0.44949 0.65419 0.08668 0.0
C12 C 0.54044 0.75902 0.08596 0.0
O13 O 0.37561 0.77411 0.00934 0.0
O14 O 0.39212 0.93035 0.21981 0.0
O15 O 0.48291 1.03096 0.14151 0.0
O16 O 1.3237 0.8906 0.04829 0.0
C17 C 0.37084 0.86908 0.00578 0.0
O18 O 1.12122 0.66354 0.05404 0.0
O19 O 1.16775 0.79791 0.12324 0.0
O20 O 0.37333 0.71271 0.19536 0.0
O21 O 1.14708 0.51363 -0.00082 0.0
O22 O 1.2724 0.47327 0.03891 0.0
O23 O 1.20759 0.55471 0.16919 0.0
C24 C 0.59957 1.01723 0.21815 0.0
C25 C 0.67616 1.02572 0.17429 0.0
C26 C 0.6374 0.87818 0.27113 0.0
C27 C 0.71576 0.94792 0.17478 0.0
C28 C 0.59441 0.95439 0.2698 0.0
C29 C 0.68942 0.86705 0.2212 0.0
C30 C 0.49082 1.0168 0.19837 0.0
C31 C 1.09621 0.73222 0.081 0.0
H32 H 0.95465 0.35276 0.0371 0.0
H33 H 1.13498 1.11234 0.07611 0.0
H34 H 0.88472 1.21354 0.11798 0.0
H35 H 1.20623 0.25407 -0.00539 0.0
H36 H 0.68766 1.07689 0.13435 0.0
H37 H 0.62401 0.82336 0.30973 0.0
H38 H 0.76257 0.94789 0.13734 0.0
H39 H 0.54044 0.95051 0.30523 0.0
Eu40 Eu 0.91712 1.07802 0.43521 0.0
Eu41 Eu 0.83483 0.24017 0.4077 0.0
C42 C 0.89168 1.19819 0.54527 0.0
C43 C 0.79729 0.79359 0.43511 0.0
C44 C 0.7181 0.74388 0.48279 0.0
C45 C 0.73181 0.60222 0.40563 0.0
C46 C 0.66727 0.62501 0.49403 0.0
C47 C 0.77977 0.71949 0.38934 0.0
C48 C 0.72491 0.57639 0.46675 0.0
C49 C 0.91526 0.89681 0.44549 0.0
O50 O 1.03214 0.34736 0.43051 0.0
O51 O 1.08676 0.23598 0.39162 0.0
C52 C 1.11237 0.34227 0.40106 0.0
O53 O 0.82249 1.04327 0.35085 0.0
O54 O 0.78048 0.36435 0.42402 0.0
O55 O 0.83456 0.35483 0.33654 0.0
O56 O 0.91791 1.22435 0.3251 0.0
C57 C 0.88247 1.1202 0.311 0.0
O58 O 0.71515 0.95985 0.44844 0.0
O59 O 0.65445 1.06716 0.397 0.0
O60 O 0.82668 1.2245 0.50972 0.0
O61 O 0.97184 0.96445 0.40046 0.0
O62 O 0.92762 0.95119 0.49366 0.0
O63 O 0.95399 1.15914 0.52303 0.0
C64 C 0.9522 0.5255 0.38498 0.0
C65 C 1.00803 0.6131 0.34141 0.0
C66 C 1.1258 0.62505 0.44774 0.0
C67 C 1.11474 0.71374 0.35489 0.0
C68 C 1.0143 0.53172 0.4374 0.0
C69 C 1.16783 0.72304 0.41066 0.0
C70 C 0.8358 0.42167 0.37608 0.0
C71 C 0.62939 0.96462 0.41986 0.0
H72 H 0.71399 0.79561 0.51635 0.0
H73 H 0.73526 0.54608 0.37486 0.0
H74 H 0.62148 0.5883 0.53508 0.0
H75 H 0.82658 0.75109 0.34836 0.0
H76 H 0.96449 0.60832 0.29968 0.0
H77 H 1.16587 0.62985 0.49058 0.0
H78 H 1.14768 0.78811 0.32497 0.0
H79 H 0.97368 0.46771 0.47278 0.0
Eu80 Eu 0.80601 0.74017 0.75742 0.0
Eu81 Eu 1.04194 0.87788 0.76087 0.0
C82 C 0.92895 0.78759 0.88773 0.0
C83 C 0.59509 0.79747 0.80348 0.0
C84 C 0.60467 0.89933 0.77872 0.0
C85 C 0.69725 0.90158 0.89077 0.0
C86 C 0.66561 1.00238 0.80883 0.0
C87 C 0.62954 0.79781 0.86254 0.0
C88 C 0.72069 1.00538 0.86309 0.0
C89 C 0.60084 0.71546 0.76452 0.0
O90 O 1.03347 0.70094 0.76056 0.0
O91 O 0.83385 0.58319 0.75205 0.0
C92 C 0.94047 0.59514 0.75394 0.0
O93 O 0.82938 0.68364 0.67102 0.0
O94 O 1.14976 1.06279 0.74148 0.0
O95 O 1.23344 0.9622 0.75701 0.0
O96 O 1.02824 0.8087 0.6729 0.0
C97 C 0.93357 0.72923 0.64693 0.0
O98 O 0.91124 0.93582 0.725 0.0
O99 O 0.91123 0.93607 0.72535 0.0
O100 O 1.02889 0.85412 0.86058 0.0
O101 O 0.66582 0.76418 0.71807 0.0
O102 O 0.62477 0.64114 0.79034 0.0
O103 O 0.83163 0.73574 0.85653 0.0
C104 C 1.3357 1.15208 0.78677 0.0
C105 C 0.45485 1.19108 0.77805 0.0
C106 C 0.37813 1.21204 0.88702 0.0
C107 C 0.53211 0.22743 0.82581 0.0
C108 C 1.29999 1.17405 0.83949 0.0
C109 C 0.48757 1.21922 0.88228 0.0
C110 C 1.24897 1.06507 0.74823 0.0
C111 C 0.90601 1.02231 0.74795 0.0
H112 H 0.57758 0.90238 0.73364 0.0
H113 H 0.73653 0.90235 0.93318 0.0
H114 H 0.67779 1.08096 0.78762 0.0
H115 H 0.61788 0.71983 0.88409 0.0
H116 H 0.48431 1.1778 0.73691 0.0
H117 H 1.34412 1.21122 0.92976 0.0
H118 H 0.61836 0.2382 0.81993 0.0
H119 H 1.20852 1.14742 0.84646 0.0
H120 H 0.98945 0.23938 0.20904 0.0
H121 H 0.88355 0.92603 0.30804 0.0
H122 H 0.96694 0.94612 0.12968 0.0
H123 H 0.68156 0.71053 0.25586 0.0
C124 C 0.72181 0.77328 0.2183 0.0
O125 O 0.84288 0.81365 0.21873 0.0
H126 H 0.682 0.72437 0.17817 0.0
C127 C 0.9802 1.15503 0.21327 0.0
C128 C 0.99514 1.10394 0.16414 0.0
C129 C 0.93885 1.09059 0.26575 0.0
C130 C 0.92689 0.98161 0.27064 0.0
C131 C 0.92556 0.92653 0.22085 0.0
C132 C 0.97141 0.99035 0.16882 0.0
H133 H 0.76701 0.55662 0.5832 0.0
H134 H 1.129 0.83848 0.58037 0.0
H135 H 0.95255 0.70849 0.42177 0.0
H136 H 1.2912 0.83861 0.47503 0.0
C137 C 1.22919 0.8368 0.44044 0.0
O138 O 1.1466 0.85484 0.46655 0.0
H139 H 1.27872 0.90816 0.40769 0.0
C140 C 0.84736 0.61235 0.55906 0.0
C141 C 0.84305 0.61574 0.49747 0.0
C142 C 0.94631 0.69842 0.58851 0.0
C143 C 1.05138 0.77262 0.55819 0.0
C144 C 1.052 0.77294 0.49776 0.0
C145 C 0.9491 0.69614 0.46842 0.0
H146 H 1.34057 1.02797 0.94795 0.0
H147 H 0.60102 0.93812 -0.0083 0.0
H148 H 0.7091 0.2721 0.916 0.0
H149 H 0.89537 1.12453 0.89427 0.0
C150 C 0.80822 1.11838 0.89071 0.0
O151 O 0.77514 1.12588 0.94639 0.0
H152 H 0.81877 1.19326 0.8636 0.0
C153 C 0.4328 1.05314 0.95124 0.0
C154 C 0.52159 1.16106 0.92842 0.0
C155 C 0.4605 0.97208 -0.02609 0.0
C156 C 0.57792 1.00009 -0.02455 0.0
C157 C 0.66693 1.10849 0.95549 0.0
C158 C 0.63972 1.19105 0.93475 0.0
H159 H 1.13587 0.40324 0.28111 0.0
H160 H 0.41269 0.75666 0.29471 0.0
H161 H 1.31129 0.5376 0.44835 0.0
H162 H 0.46815 0.84231 0.46602 0.0
C163 C 0.49867 0.85695 0.41999 0.0
O164 O 0.48052 0.74996 0.401 0.0
H165 H 0.44246 0.88101 0.39329 0.0
C166 C 1.20264 0.47249 0.3068 0.0
C167 C 1.21021 0.45396 0.3693 0.0
C168 C 1.27855 0.58172 0.27802 0.0
C169 C 0.36079 0.67226 0.31392 0.0
C170 C 0.37974 0.66019 0.37394 0.0
C171 C 1.30154 0.54949 0.40166 0.0
H172 H 0.90152 1.04981 0.6263 0.0
H173 H 0.87749 0.35689 0.61204 0.0
H174 H 0.911 1.22237 0.78199 0.0
H175 H 1.04454 0.52741 0.71932 0.0
C176 C 0.96544 0.49335 0.74745 0.0
O177 O 0.87603 0.38591 0.72622 0.0
H178 H 0.99387 0.47712 0.79141 0.0
C179 C 0.8997 1.11893 0.64737 0.0
C180 C 0.90334 1.11995 0.70957 0.0
C181 C 0.89168 1.2042 0.61154 0.0
C182 C 0.8862 0.29345 0.63899 0.0
C183 C 0.89243 0.30239 0.70089 0.0
C184 C 0.90295 1.21546 0.73518 0.0
H185 H 1.09231 0.78834 0.96668 0.0
H186 H 0.74387 0.73451 0.95601 0.0
H187 H 0.89209 0.72439 0.12514 0.0
H188 H 0.62111 0.76653 0.00633 0.0
C189 C 0.65187 0.78466 0.05246 0.0
O190 O 0.70431 0.71905 0.06871 0.0
H191 H 0.71914 0.87761 0.05249 0.0
C192 C 1.01426 0.77493 -0.01148 0.0
C193 C 1.00424 0.75362 0.05047 0.0
C194 C 0.92203 0.77151 0.95387 0.0
C195 C 0.81778 0.7458 -0.01773 0.0
C196 C 0.80763 0.73763 0.04392 0.0
C197 C 0.90177 0.73995 0.07811 0.0
loop_
_geom_bond_atom_site_label_1
_geom_bond_atom_site_label_2
_geom_bond_distance
_geom_bond_site_symmetry_2
_ccdc_geom_bond_type
Eu0 C9 2.828 . S
Eu0 O11 2.392 1_655 S
Eu0 O13 2.418 1_554 S
Eu0 O18 2.373 . S
Eu0 O21 2.488 . S
Eu0 O22 2.471 . S
Eu0 O23 2.349 . S
Eu1 O10 2.373 . S
Eu1 O14 2.488 . S
Eu1 O15 2.471 . S
Eu1 O16 2.349 . S
Eu1 O19 2.392 1_455 S
Eu1 O20 2.418 . S
Eu1 C30 2.828 . S
C2 O20 1.244 . S
C2 O23 1.265 1_455 S
C3 C4 1.379 . S
C3 C7 1.373 . S
C3 C9 1.505 . S
C4 C3 1.379 . S
C4 C6 1.369 . S
C4 H32 0.930 . S
C5 C7 1.383 . S
C5 C8 1.382 . S
C5 H33 0.930 . S
C6 C4 1.369 . S
C6 C8 1.392 . S
C6 H34 0.930 . S
C7 C3 1.373 . S
C7 C5 1.383 . S
C7 H35 0.931 . S
C8 C5 1.382 . S
C8 C6 1.392 . S
C9 Eu0 2.828 . S
C9 C3 1.505 . S
C9 O21 1.249 . S
C9 O22 1.244 . S
O10 Eu1 2.373 . S
O10 C12 1.258 . S
O11 Eu0 2.392 1_455 S
O11 C12 1.242 . S
C12 O10 1.258 . S
C12 O11 1.242 . S
O13 Eu0 2.418 1_556 S
O13 C17 1.244 . S
O14 Eu1 2.488 . S
O14 C30 1.249 . S
O15 Eu1 2.471 . S
O15 C30 1.244 . S
O16 Eu1 2.349 . S
O16 C17 1.265 1_454 S
C17 O13 1.244 . S
C17 O16 1.265 1_656 S
O18 Eu0 2.373 . S
O18 C31 1.258 . S
O19 Eu1 2.392 1_655 S
O19 C31 1.242 . S
O20 Eu1 2.418 . S
O20 C2 1.244 . S
O21 Eu0 2.488 . S
O21 C9 1.249 . S
O22 Eu0 2.471 . S
O22 C9 1.244 . S
O23 Eu0 2.349 . S
O23 C2 1.265 1_655 S
C24 C25 1.379 . S
C24 C28 1.373 . S
C24 C30 1.505 . S
C25 C24 1.379 . S
C25 C27 1.369 . S
C25 H36 0.930 . S
C26 C28 1.383 . S
C26 C29 1.382 . S
C26 H37 0.930 . S
C27 C25 1.369 . S
C27 C29 1.392 . S
C27 H38 0.930 . S
C28 C24 1.373 . S
C28 C26 1.383 . S
C28 H39 0.931 . S
C29 C26 1.382 . S
C29 C27 1.392 . S
C30 Eu1 2.828 . S
C30 O14 1.249 . S
C30 O15 1.244 . S
C30 C24 1.505 . S
C31 O18 1.258 . S
C31 O19 1.242 . S
H32 C4 0.930 . S
H33 C5 0.930 . S
H34 C6 0.930 . S
H35 C7 0.931 . S
H36 C25 0.930 . S
H37 C26 0.930 . S
H38 C27 0.930 . S
H39 C28 0.931 . S
Eu40 C49 2.828 . S
Eu40 O51 2.392 1_565 S
Eu40 O53 2.418 . S
Eu40 O58 2.373 . S
Eu40 O61 2.488 . S
Eu40 O62 2.471 . S
Eu40 O63 2.349 . S
Eu41 O50 2.373 . S
Eu41 O54 2.488 . S
Eu41 O55 2.471 . S
Eu41 O56 2.349 . S
Eu41 O59 2.392 1_545 S
Eu41 O60 2.418 . S
Eu41 C70 2.828 . S
C42 O60 1.244 . S
C42 O63 1.265 1_545 S
C43 C44 1.379 . S
C43 C47 1.373 . S
C43 C49 1.505 . S
C44 C43 1.379 . S
C44 C46 1.369 . S
C44 H72 0.930 . S
C45 C47 1.383 . S
C45 C48 1.382 . S
C45 H73 0.930 . S
C46 C44 1.369 . S
C46 C48 1.392 . S
C46 H74 0.930 . S
C47 C43 1.373 . S
C47 C45 1.383 . S
C47 H75 0.931 . S
C48 C45 1.382 . S
C48 C46 1.392 . S
C49 Eu40 2.828 . S
C49 C43 1.505 . S
C49 O61 1.249 . S
C49 O62 1.244 . S
O50 Eu41 2.373 . S
O50 C52 1.258 . S
O51 Eu40 2.392 1_545 S
O51 C52 1.242 . S
C52 O50 1.258 . S
C52 O51 1.242 . S
O53 Eu40 2.418 . S
O53 C57 1.244 1_565 S
O54 Eu41 2.488 . S
O54 C70 1.249 . S
O55 Eu41 2.471 . S
O55 C70 1.244 . S
O56 Eu41 2.349 . S
O56 C57 1.265 . S
C57 O53 1.244 1_545 S
C57 O56 1.265 . S
O58 Eu40 2.373 . S
O58 C71 1.258 . S
O59 Eu41 2.392 1_565 S
O59 C71 1.242 . S
O60 Eu41 2.418 . S
O60 C42 1.244 . S
O61 Eu40 2.488 . S
O61 C49 1.249 . S
O62 Eu40 2.471 . S
O62 C49 1.244 . S
O63 Eu40 2.349 . S
O63 C42 1.265 1_565 S
C64 C65 1.379 . S
C64 C68 1.373 . S
C64 C70 1.505 . S
C65 C64 1.379 . S
C65 C67 1.369 . S
C65 H76 0.930 . S
C66 C68 1.383 . S
C66 C69 1.382 . S
C66 H77 0.930 . S
C67 C65 1.369 . S
C67 C69 1.392 . S
C67 H78 0.930 . S
C68 C64 1.373 . S
C68 C66 1.383 . S
C68 H79 0.931 . S
C69 C66 1.382 . S
C69 C67 1.392 . S
C70 Eu41 2.828 . S
C70 O54 1.249 . S
C70 O55 1.244 . S
C70 C64 1.505 . S
C71 O58 1.258 . S
C71 O59 1.242 . S
H72 C44 0.930 . S
H73 C45 0.930 . S
H74 C46 0.930 . S
H75 C47 0.931 . S
H76 C65 0.930 . S
H77 C66 0.930 . S
H78 C67 0.930 . S
H79 C68 0.931 . S
Eu80 C89 2.828 . S
Eu80 O91 2.392 . S
Eu80 O93 2.418 . S
Eu80 O98 2.373 . S
Eu80 O101 2.488 . S
Eu80 O102 2.471 . S
Eu80 O103 2.349 . S
Eu81 O90 2.373 . S
Eu81 O94 2.488 . S
Eu81 O95 2.471 . S
Eu81 O96 2.349 . S
Eu81 O99 2.392 . S
Eu81 O100 2.418 . S
Eu81 C110 2.828 . S
C82 O100 1.244 . S
C82 O103 1.265 . S
C83 C84 1.379 . S
C83 C87 1.373 . S
C83 C89 1.505 . S
C84 C83 1.379 . S
C84 C86 1.369 . S
C84 H112 0.930 . S
C85 C87 1.383 . S
C85 C88 1.382 . S
C85 H113 0.930 . S
C86 C84 1.369 . S
C86 C88 1.392 . S
C86 H114 0.930 . S
C87 C83 1.373 . S
C87 C85 1.383 . S
C87 H115 0.931 . S
C88 C85 1.382 . S
C88 C86 1.392 . S
C89 Eu80 2.828 . S
C89 C83 1.505 . S
C89 O101 1.249 . S
C89 O102 1.244 . S
O90 Eu81 2.373 . S
O90 C92 1.258 . S
O91 Eu80 2.392 . S
O91 C92 1.242 . S
C92 O90 1.258 . S
C92 O91 1.242 . S
O93 Eu80 2.418 . S
O93 C97 1.244 . S
O94 Eu81 2.488 . S
O94 C110 1.249 . S
O95 Eu81 2.471 . S
O95 C110 1.244 . S
O96 Eu81 2.349 . S
O96 C97 1.265 . S
C97 O93 1.244 . S
C97 O96 1.265 . S
O98 Eu80 2.373 . S
O98 C111 1.258 . S
O99 Eu81 2.392 . S
O99 C111 1.242 . S
O100 Eu81 2.418 . S
O100 C82 1.244 . S
O101 Eu80 2.488 . S
O101 C89 1.249 . S
O102 Eu80 2.471 . S
O102 C89 1.244 . S
O103 Eu80 2.349 . S
O103 C82 1.265 . S
C104 C105 1.379 . S
C104 C108 1.373 . S
C104 C110 1.505 . S
C105 C104 1.379 . S
C105 C107 1.369 . S
C105 H116 0.930 . S
C106 C108 1.383 1_455 S
C106 C109 1.382 . S
C106 H117 0.930 . S
C107 C105 1.369 . S
C107 C109 1.392 1_655 S
C107 H118 0.930 . S
C108 C104 1.373 . S
C108 C106 1.383 1_655 S
C108 H119 0.931 . S
C109 C106 1.382 . S
C109 C107 1.392 1_455 S
C110 Eu81 2.828 . S
C110 O94 1.249 . S
C110 O95 1.244 . S
C110 C104 1.505 . S
C111 O98 1.258 . S
C111 O99 1.242 . S
H112 C84 0.930 . S
H113 C85 0.930 . S
H114 C86 0.930 . S
H115 C87 0.931 . S
H116 C105 0.930 . S
H117 C106 0.930 . S
H118 C107 0.930 . S
H119 C108 0.931 . S
H120 C127 0.929 . S
H121 C130 0.930 1_565 S
H122 C132 0.929 . S
H123 C124 0.969 . S
C124 H123 0.969 . S
C124 O125 1.550 . S
C124 H126 0.973 . S
O125 C124 1.550 . S
O125 C131 1.412 1_565 S
H126 C124 0.973 . S
C127 H120 0.929 . S
C127 C128 1.400 . S
C127 C129 1.364 . S
C128 C127 1.400 . S
C128 C132 1.377 . S
C129 C127 1.364 . S
C129 C130 1.374 . S
C130 H121 0.930 1_545 S
C130 C129 1.374 . S
C130 C131 1.383 . S
C131 O125 1.412 1_545 S
C131 C130 1.383 . S
C131 C132 1.394 . S
C132 H122 0.929 . S
C132 C128 1.377 . S
C132 C131 1.394 . S
H133 C140 0.929 . S
H134 C143 0.930 . S
H135 C145 0.929 . S
H136 C137 0.969 . S
C137 H136 0.969 . S
C137 O138 1.550 . S
C137 H139 0.973 . S
O138 C137 1.550 . S
O138 C144 1.412 . S
H139 C137 0.973 . S
C140 H133 0.929 . S
C140 C141 1.400 . S
C140 C142 1.364 . S
C141 C140 1.400 . S
C141 C145 1.377 . S
C142 C140 1.364 . S
C142 C143 1.374 . S
C143 H134 0.930 . S
C143 C142 1.374 . S
C143 C144 1.383 . S
C144 O138 1.412 . S
C144 C143 1.383 . S
C144 C145 1.394 . S
C145 H135 0.929 . S
C145 C141 1.377 . S
C145 C144 1.394 . S
H146 C153 0.929 1_554 S
H147 C156 0.930 1_554 S
H148 C158 0.929 . S
H149 C150 0.969 . S
C150 H149 0.969 . S
C150 O151 1.550 . S
C150 H152 0.973 . S
O151 C150 1.550 . S
O151 C157 1.412 . S
H152 C150 0.973 . S
C153 H146 0.929 1_556 S
C153 C154 1.400 . S
C153 C155 1.364 1_656 S
C154 C153 1.400 . S
C154 C158 1.377 1_655 S
C155 C153 1.364 1_454 S
C155 C156 1.374 1_554 S
C156 H147 0.930 1_556 S
C156 C155 1.374 1_556 S
C156 C157 1.383 . S
C157 O151 1.412 . S
C157 C156 1.383 . S
C157 C158 1.394 . S
C158 H148 0.929 . S
C158 C154 1.377 1_455 S
C158 C157 1.394 . S
H159 C166 0.929 . S
H160 C169 0.930 . S
H161 C171 0.929 . S
H162 C163 0.969 . S
C163 H162 0.969 . S
C163 O164 1.550 . S
C163 H165 0.973 . S
O164 C163 1.550 . S
O164 C170 1.412 . S
H165 C163 0.973 . S
C166 H159 0.929 . S
C166 C167 1.400 . S
C166 C168 1.364 1_655 S
C167 C166 1.400 . S
C167 C171 1.377 1_655 S
C168 C166 1.364 1_455 S
C168 C169 1.374 . S
C169 H160 0.930 . S
C169 C168 1.374 . S
C169 C170 1.383 . S
C170 O164 1.412 . S
C170 C169 1.383 . S
C170 C171 1.394 . S
C171 H161 0.929 . S
C171 C167 1.377 1_455 S
C171 C170 1.394 . S
H172 C179 0.929 . S
H173 C182 0.930 . S
H174 C184 0.929 . S
H175 C176 0.969 . S
C176 H175 0.969 . S
C176 O177 1.550 . S
C176 H178 0.973 . S
O177 C176 1.550 . S
O177 C183 1.412 . S
H178 C176 0.973 . S
C179 H172 0.929 . S
C179 C180 1.400 . S
C179 C181 1.364 1_565 S
C180 C179 1.400 . S
C180 C184 1.377 . S
C181 C179 1.364 1_545 S
C181 C182 1.374 . S
C182 H173 0.930 . S
C182 C181 1.374 . S
C182 C183 1.383 . S
C183 O177 1.412 . S
C183 C182 1.383 . S
C183 C184 1.394 1_545 S
C184 H174 0.929 . S
C184 C180 1.377 . S
C184 C183 1.394 1_565 S
H185 C192 0.929 . S
H186 C195 0.930 . S
H187 C197 0.929 . S
H188 C189 0.969 . S
C189 H188 0.969 . S
C189 O190 1.550 . S
C189 H191 0.973 . S
O190 C189 1.550 . S
O190 C196 1.412 . S
H191 C189 0.973 . S
C192 H185 0.929 . S
C192 C193 1.400 . S
C192 C194 1.364 1_554 S
C193 C192 1.400 . S
C193 C197 1.377 . S
C194 C192 1.364 1_556 S
C194 C195 1.374 1_556 S
C195 H186 0.930 . S
C195 C194 1.374 1_554 S
C195 C196 1.383 . S
C196 O190 1.412 . S
C196 C195 1.383 . S
C196 C197 1.394 . S
C197 H187 0.929 . S
C197 C193 1.377 . S
C197 C196 1.394 . S
C12 C189 4.427 . S
C52 C167 4.589 . S
C111 C180 4.635 . S
C31 C193 4.733 . S
C163 C71 4.579 . S
C176 C92 4.523 . S
C48 C141 3.064 . S
C109 C154 3.122 1_455 S
C29 C124 3.542 . S
C137 C69 3.553 . S
C150 C88 3.536 . S
C8 C128 3.306 . S
C155 C17 1.124 1_454 S
C57 C129 1.429 . S
C97 C142 0.775 . S
C181 C42 2.052 . S
C194 C82 2.028 . S
C2 C168 2.055 . S
