# Generated by pormake.
# Topology rtl, (3,6)-cn, num edge types: 1
# Building blocks:
#     Node 0, Type 0, BuildingBlock: INOVEN_clean_linker_0, # of connection points: 3
#     Node 1, Type 0, BuildingBlock: INOVEN_clean_linker_0, # of connection points: 3
#     Node 2, Type 0, BuildingBlock: INOVEN_clean_linker_0, # of connection points: 3
#     Node 3, Type 0, BuildingBlock: INOVEN_clean_linker_0, # of connection points: 3
#     Node 4, Type 1, BuildingBlock: CIFDUS_clean_sbu_1, # of connection points: 6
#     Node 5, Type 1, BuildingBlock: CIFDUS_clean_sbu_1, # of connection points: 6
#     Edge 6, Type (0, 1), BuildingBlock: AJUNOK_clean_linker_0, # of connection points: 2
#     Edge 7, Type (0, 1), BuildingBlock: AJUNOK_clean_linker_0, # of connection points: 2
#     Edge 8, Type (0, 1), BuildingBlock: AJUNOK_clean_linker_0, # of connection points: 2
#     Edge 9, Type (0, 1), BuildingBlock: AJUNOK_clean_linker_0, # of connection points: 2
#     Edge 10, Type (0, 1), BuildingBlock: AJUNOK_clean_linker_0, # of connection points: 2
#     Edge 11, Type (0, 1), BuildingBlock: AJUNOK_clean_linker_0, # of connection points: 2
#     Edge 12, Type (0, 1), BuildingBlock: AJUNOK_clean_linker_0, # of connection points: 2
#     Edge 13, Type (0, 1), BuildingBlock: AJUNOK_clean_linker_0, # of connection points: 2
#     Edge 14, Type (0, 1), BuildingBlock: AJUNOK_clean_linker_0, # of connection points: 2
#     Edge 15, Type (0, 1), BuildingBlock: AJUNOK_clean_linker_0, # of connection points: 2
#     Edge 16, Type (0, 1), BuildingBlock: AJUNOK_clean_linker_0, # of connection points: 2
#     Edge 17, Type (0, 1), BuildingBlock: AJUNOK_clean_linker_0, # of connection points: 2
# Relax obj value: 0.016
# Max RMSD: 0.108
# Mean RMSD: 0.080
data_MOF--net-rtl--node1-CIFDUS_clean_sbu_1--node2-INOVEN_clean_linker_0--edge1-AJUNOK_clean_linker_0
_symmetry_space_group_name_H-M    P1
_symmetry_Int_Tables_number       1
_symmetry_cell_setting            triclinic
loop_
_symmetry_equiv_pos_as_xyz
'x, y, z'
_cell_length_a     25.551358
_cell_length_b     25.980123
_cell_length_c     16.094107
_cell_angle_alpha  91.53763
_cell_angle_beta   100.37031
_cell_angle_gamma 90.286809
loop_
_atom_site_label
_atom_site_type_symbol
_atom_site_fract_x
_atom_site_fract_y
_atom_site_fract_z
_atom_type_partial_charge
H0 H 0.24154 0.83923 0.95739 0.0
H1 H 0.12448 0.92845 0.0565 0.0
H2 H 0.23199 0.83245 0.22098 0.0
N3 N 0.28506 0.79765 0.09721 0.0
N4 N 0.29436 0.76449 0.15249 0.0
C5 C 0.2232 0.85182 0.01008 0.0
C6 C 0.1807 0.88619 0.99708 0.0
C7 C 0.24179 0.83219 0.08995 0.0
C8 C 0.21783 0.84751 0.15895 0.0
C9 C 0.17522 0.88241 0.14689 0.0
C10 C 0.1569 0.9012 0.06577 0.0
H11 H 0.72482 0.74595 0.75231 0.0
H12 H 0.62068 0.64075 0.58896 0.0
H13 H 0.72705 0.73917 0.48539 0.0
N14 N 0.77089 0.78559 0.63245 0.0
N15 N 0.80772 0.78316 0.59116 0.0
C16 C 0.70975 0.72978 0.68977 0.0
C17 C 0.67161 0.68989 0.67901 0.0
C18 C 0.73035 0.74718 0.62031 0.0
C19 C 0.71101 0.72597 0.53911 0.0
C20 C 0.67142 0.68756 0.52725 0.0
C21 C 0.65178 0.66999 0.59755 0.0
H22 H 0.81594 0.23491 0.85073 0.0
H23 H 0.92817 0.13914 1.00361 0.0
H24 H 0.81623 0.22776 0.11767 0.0
N25 N 0.77249 0.27457 0.9735 0.0
N26 N 0.73821 0.27688 0.01953 0.0
C27 C 0.83231 0.21967 0.91189 0.0
C28 C 0.87203 0.1824 0.91867 0.0
C29 C 0.81223 0.23626 0.98324 0.0
C30 C 0.8325 0.21562 0.0627 0.0
C31 C 0.874 0.1796 0.07079 0.0
C32 C 0.89446 0.16475 0.99843 0.0
H33 H 0.3238 0.3418 0.35364 0.0
H34 H 0.4271 0.43024 0.54684 0.0
H35 H 0.31627 0.32135 0.61576 0.0
N36 N 0.27275 0.29192 0.45816 0.0
N37 N 0.27374 0.24944 0.4927 0.0
C38 C 0.33752 0.35222 0.41964 0.0
C39 C 0.37963 0.38769 0.44299 0.0
C40 C 0.31513 0.32779 0.48193 0.0
C41 C 0.33383 0.34009 0.56787 0.0
C42 C 0.37399 0.37738 0.59172 0.0
C43 C 0.39634 0.40106 0.52887 0.0
O44 O 0.99503 0.07801 0.4302 0.0
Mn45 Mn 0.02698 0.03368 0.53606 0.0
O46 O 0.91452 0.04762 0.39552 0.0
Mn47 Mn 0.94753 0.98588 0.4142 0.0
O48 O 0.06345 0.99218 0.64209 0.0
O49 O 0.08974 0.08651 0.55579 0.0
Mn50 Mn 0.09416 0.10034 0.66631 0.0
O51 O 0.97909 0.07417 0.60801 0.0
O52 O 0.12758 0.04399 0.71465 0.0
O53 O 0.06953 0.99045 0.45864 0.0
O54 O 1.00155 0.96745 0.35638 0.0
O55 O 0.12145 0.15652 0.62818 0.0
O56 O 0.03416 0.11866 0.70648 0.0
C57 C 0.92896 0.9415 0.50501 0.0
C58 C 0.94738 0.08266 0.39032 0.0
C59 C 0.10468 1.00024 0.70043 0.0
C60 C 0.10742 0.13399 0.55474 0.0
C61 C 0.98791 0.10478 0.67244 0.0
C62 C 0.05121 0.96856 0.38643 0.0
O63 O 0.96771 0.97612 0.52352 0.0
O64 O 0.90355 0.93578 0.42795 0.0
O65 O 0.55684 0.58393 0.16117 0.0
Mn66 Mn 0.52262 0.53543 0.05685 0.0
O67 O 0.63801 0.55883 0.18053 0.0
Mn68 Mn 0.60287 0.49707 0.17154 0.0
O69 O 0.48581 0.4879 0.95521 0.0
O70 O 0.46343 0.59111 0.04357 0.0
Mn71 Mn 0.44987 0.59358 0.93126 0.0
O72 O 0.56641 0.57457 0.97786 0.0
O73 O 0.42093 0.53352 0.8818 0.0
O74 O 0.48178 0.49545 0.13725 0.0
O75 O 0.5521 0.48451 0.23805 0.0
O76 O 0.40389 0.63885 0.9594 0.0
O77 O 0.50696 0.62017 0.89117 0.0
C78 C 0.61916 0.44378 0.08955 0.0
C79 C 0.60542 0.59193 0.19485 0.0
C80 C 0.44483 0.4915 0.89694 0.0
C81 C 0.42598 0.62632 0.03504 0.0
C82 C 0.55441 0.60658 0.91794 0.0
C83 C 0.5024 0.48005 0.21098 0.0
O84 O 0.58045 0.47678 0.06498 0.0
O85 O 0.64562 0.44523 0.16631 0.0
C86 C 0.17705 0.23306 0.45797 0.0
C87 C 0.22949 0.21494 0.47845 0.0
C88 C 0.13361 0.20147 0.46662 0.0
C89 C 0.14114 0.15082 0.49534 0.0
H90 H 0.16985 0.27313 0.44338 0.0
H91 H 0.09474 0.21891 0.46124 0.0
S92 S 0.2704 0.08415 0.5461 0.0
N93 N 0.28628 0.1425 0.51998 0.0
N94 N 0.20481 0.08265 0.53418 0.0
C95 C 0.19293 0.1308 0.50597 0.0
C96 C 0.23713 0.16325 0.49907 0.0
C97 C 0.38362 0.7467 0.12268 0.0
C98 C 0.3377 0.73039 0.15178 0.0
C99 C 0.41995 0.71093 0.10056 0.0
C100 C 0.41089 0.65761 0.10422 0.0
H101 H 0.38937 0.78702 0.11096 0.0
H102 H 0.45148 0.7249 0.06981 0.0
S103 S 0.30111 0.59613 0.18841 0.0
N104 N 0.2893 0.65849 0.19501 0.0
N105 N 0.35655 0.59083 0.14952 0.0
C106 C 0.36842 0.64129 0.14184 0.0
C107 C 0.33189 0.67789 0.16621 0.0
C108 C 0.83815 0.87353 0.61986 0.0
C109 C 0.84706 0.82236 0.59501 0.0
C110 C 0.8719 0.91371 0.60398 0.0
C111 C 0.91568 0.90368 0.56415 0.0
H112 H 0.80262 0.88314 0.6446 0.0
H113 H 0.86031 0.95311 0.6143 0.0
S114 S 0.95813 0.77577 0.49556 0.0
N115 N 0.90418 0.7636 0.53514 0.0
N116 N 0.96849 0.83853 0.50809 0.0
C117 C 0.92758 0.85215 0.54742 0.0
C118 C 0.89274 0.81167 0.56157 0.0
C119 C 0.65528 0.31016 0.05077 0.0
C120 C 0.7002 0.317 0.01351 0.0
C121 C 0.62168 0.35137 0.06107 0.0
C122 C 0.63261 0.40116 0.03605 0.0
H123 H 0.64808 0.27337 0.077 0.0
H124 H 0.59058 0.34551 0.09775 0.0
S125 S 0.74254 0.43861 0.92788 0.0
N126 N 0.75109 0.37641 0.9435 0.0
N127 N 0.68869 0.45419 0.96599 0.0
C128 C 0.67481 0.40762 0.99225 0.0
C129 C 0.70876 0.36549 0.98063 0.0
C130 C 0.09222 0.89094 0.20576 0.0
C131 C 0.14736 0.89875 0.21651 0.0
C132 C 0.0626 0.91226 0.26284 0.0
C133 C 0.08653 0.94296 0.33345 0.0
H134 H 0.07146 0.8692 0.15116 0.0
H135 H 0.02003 0.90536 0.24977 0.0
S136 S 0.23089 0.97278 0.39204 0.0
N137 N 0.22577 0.93714 0.30429 0.0
N138 N 0.16997 0.9777 0.41256 0.0
C139 C 0.14225 0.94939 0.34691 0.0
C140 C 0.17264 0.92723 0.28827 0.0
C141 C 0.62306 0.70131 0.79945 0.0
C142 C 0.65103 0.66909 0.75181 0.0
C143 C 0.59516 0.68087 0.85864 0.0
C144 C 0.59519 0.62769 0.87358 0.0
H145 H 0.62001 0.74209 0.78715 0.0
H146 H 0.57113 0.70654 0.89001 0.0
S147 S 0.66551 0.52763 0.76901 0.0
N148 N 0.6796 0.58191 0.72619 0.0
N149 N 0.62775 0.54363 0.83875 0.0
C150 C 0.62565 0.59548 0.83 0.0
C151 C 0.65336 0.61617 0.76862 0.0
C152 C 0.90498 0.18532 0.22951 0.0
C153 C 0.89525 0.15573 0.15318 0.0
C154 C 0.92519 0.16262 0.30719 0.0
C155 C 0.93698 0.10996 0.31031 0.0
H156 H 0.89663 0.22613 0.22932 0.0
H157 H 0.93006 0.18587 0.36499 0.0
S158 S 0.91767 0.01509 0.13073 0.0
N159 N 0.89663 0.06999 0.08827 0.0
N160 N 0.93829 0.02899 0.23189 0.0
C161 C 0.92866 0.08041 0.23464 0.0
C162 C 0.90675 0.1028 0.15672 0.0
C163 C 0.44638 0.39935 0.7148 0.0
C164 C 0.3916 0.3942 0.68133 0.0
C165 C 0.46424 0.42609 0.79168 0.0
C166 C 0.42772 0.44863 0.83688 0.0
H167 H 0.47561 0.3854 0.6787 0.0
H168 H 0.50655 0.43308 0.81168 0.0
S169 S 0.28083 0.44079 0.78318 0.0
N170 N 0.30139 0.4096 0.70442 0.0
N171 N 0.33522 0.4594 0.84899 0.0
C172 C 0.3732 0.43982 0.80819 0.0
C173 C 0.35498 0.41268 0.73026 0.0
C174 C 0.63578 0.69381 0.37115 0.0
C175 C 0.65256 0.66352 0.44244 0.0
C176 C 0.61831 0.67088 0.29054 0.0
C177 C 0.6179 0.61716 0.27921 0.0
H178 H 0.63613 0.73541 0.37784 0.0
H179 H 0.60643 0.69514 0.23683 0.0
S180 S 0.65817 0.52093 0.44503 0.0
N181 N 0.66788 0.57719 0.49557 0.0
N182 N 0.63503 0.53435 0.34571 0.0
C183 C 0.63406 0.58667 0.35022 0.0
C184 C 0.65152 0.60978 0.43144 0.0
C185 C 0.91351 0.19554 0.79183 0.0
C186 C 0.8913 0.16193 0.84313 0.0
C187 C 0.94043 0.17633 0.72925 0.0
C188 C 0.94492 0.12301 0.71478 0.0
H189 H 0.91327 0.23676 0.80398 0.0
H190 H 0.96091 0.20329 0.69568 0.0
S191 S 0.88934 0.01921 0.82702 0.0
N192 N 0.87198 0.073 0.87156 0.0
N193 N 0.92235 0.03707 0.75305 0.0
C194 C 0.9197 0.08912 0.7616 0.0
C195 C 0.89296 0.10859 0.82619 0.0
C196 C 0.38427 0.4335 0.30743 0.0
C197 C 0.40971 0.40828 0.37995 0.0
C198 C 0.41397 0.4563 0.25185 0.0
C199 C 0.47005 0.45456 0.26712 0.0
H200 H 0.34134 0.43678 0.29484 0.0
H201 H 0.39295 0.47618 0.19771 0.0
S202 S 0.55462 0.38731 0.44395 0.0
N203 N 0.49328 0.37883 0.45987 0.0
N204 N 0.54904 0.42133 0.35789 0.0
C205 C 0.49541 0.42751 0.3382 0.0
C206 C 0.4653 0.40446 0.39385 0.0
C207 C 0.10711 0.90948 0.87886 0.0
C208 C 0.16198 0.90776 0.91251 0.0
C209 C 0.08827 0.93534 0.80403 0.0
C210 C 0.12384 0.9604 0.76111 0.0
H211 H 0.07849 0.89234 0.91228 0.0
H212 H 0.04571 0.93885 0.78322 0.0
S213 S 0.27082 0.96391 0.81788 0.0
N214 N 0.25143 0.93094 0.89344 0.0
N215 N 0.21584 0.97854 0.75245 0.0
C216 C 0.17865 0.95612 0.79086 0.0
C217 C 0.19783 0.93007 0.86675 0.0
loop_
_geom_bond_atom_site_label_1
_geom_bond_atom_site_label_2
_geom_bond_distance
_geom_bond_site_symmetry_2
_ccdc_geom_bond_type
H0 C5 0.929 . S
H1 C10 0.931 . S
H2 C8 0.930 . S
N3 N4 1.234 . S
N3 C7 1.453 . S
N4 N3 1.234 . S
C5 H0 0.929 . S
C5 C6 1.373 . S
C5 C7 1.368 1_556 S
C6 C5 1.373 . S
C6 C10 1.397 1_556 S
C7 N3 1.453 . S
C7 C5 1.368 1_554 S
C7 C8 1.373 . S
C8 H2 0.930 . S
C8 C7 1.373 . S
C8 C9 1.371 . S
C9 C8 1.371 . S
C9 C10 1.383 . S
C10 H1 0.931 . S
C10 C6 1.397 1_554 S
C10 C9 1.383 . S
H11 C16 0.929 . S
H12 C21 0.931 . S
H13 C19 0.930 . S
N14 N15 1.234 . S
N14 C18 1.453 . S
N15 N14 1.234 . S
C16 H11 0.929 . S
C16 C17 1.373 . S
C16 C18 1.368 . S
C17 C16 1.373 . S
C17 C21 1.397 . S
C18 N14 1.453 . S
C18 C16 1.368 . S
C18 C19 1.373 . S
C19 H13 0.930 . S
C19 C18 1.373 . S
C19 C20 1.371 . S
C20 C19 1.371 . S
C20 C21 1.383 . S
C21 H12 0.931 . S
C21 C17 1.397 . S
C21 C20 1.383 . S
H22 C27 0.929 . S
H23 C32 0.931 . S
H24 C30 0.930 . S
N25 N26 1.234 1_556 S
N25 C29 1.453 . S
N26 N25 1.234 1_554 S
C27 H22 0.929 . S
C27 C28 1.373 . S
C27 C29 1.368 . S
C28 C27 1.373 . S
C28 C32 1.397 1_556 S
C29 N25 1.453 . S
C29 C27 1.368 . S
C29 C30 1.373 1_556 S
C30 H24 0.930 . S
C30 C29 1.373 1_554 S
C30 C31 1.371 . S
C31 C30 1.371 . S
C31 C32 1.383 . S
C32 H23 0.931 . S
C32 C28 1.397 1_554 S
C32 C31 1.383 . S
H33 C38 0.929 . S
H34 C43 0.931 . S
H35 C41 0.930 . S
N36 N37 1.234 . S
N36 C40 1.453 . S
N37 N36 1.234 . S
C38 H33 0.929 . S
C38 C39 1.373 . S
C38 C40 1.368 . S
C39 C38 1.373 . S
C39 C43 1.397 . S
C40 N36 1.453 . S
C40 C38 1.368 . S
C40 C41 1.373 . S
C41 H35 0.930 . S
C41 C40 1.373 . S
C41 C42 1.371 . S
C42 C41 1.371 . S
C42 C43 1.383 . S
C43 H34 0.931 . S
C43 C39 1.397 . S
C43 C42 1.383 . S
O44 Mn45 2.163 1_655 S
O44 C58 1.244 . S
Mn45 O44 2.163 1_455 S
Mn45 O48 2.160 1_545 S
Mn45 O49 2.221 . S
Mn45 O51 2.163 1_455 S
Mn45 O53 2.160 1_545 S
Mn45 O63 2.221 1_445 S
O46 Mn47 2.087 1_545 S
O46 C58 1.256 . S
Mn47 O46 2.087 1_565 S
Mn47 O54 2.089 1_655 S
Mn47 O63 2.290 . S
Mn47 O64 2.251 . S
O48 Mn45 2.160 1_565 S
O48 C59 1.239 . S
O49 Mn45 2.221 . S
O49 Mn50 2.290 . S
O49 C60 1.278 . S
Mn50 O49 2.290 . S
Mn50 O52 2.089 . S
Mn50 O55 2.251 . S
Mn50 O56 2.087 . S
O51 Mn45 2.163 1_655 S
O51 C61 1.244 . S
O52 Mn50 2.089 . S
O52 C59 1.256 1_545 S
O53 Mn45 2.160 1_565 S
O53 C62 1.239 . S
O54 Mn47 2.089 1_455 S
O54 C62 1.256 . S
O55 Mn50 2.251 . S
O55 C60 1.241 . S
O56 Mn50 2.087 . S
O56 C61 1.256 1_455 S
C57 O63 1.278 . S
C57 O64 1.241 . S
C58 O44 1.244 . S
C58 O46 1.256 . S
C59 O48 1.239 . S
C59 O52 1.256 1_565 S
C60 O49 1.278 . S
C60 O55 1.241 . S
C61 O51 1.244 . S
C61 O56 1.256 1_655 S
C62 O53 1.239 . S
C62 O54 1.256 . S
O63 Mn45 2.221 1_665 S
O63 Mn47 2.290 . S
O63 C57 1.278 . S
O64 Mn47 2.251 . S
O64 C57 1.241 . S
O65 Mn66 2.163 . S
O65 C79 1.244 . S
Mn66 O65 2.163 . S
Mn66 O69 2.160 1_554 S
Mn66 O70 2.221 . S
Mn66 O72 2.163 1_554 S
Mn66 O74 2.160 . S
Mn66 O84 2.221 . S
O67 Mn68 2.087 . S
O67 C79 1.256 . S
Mn68 O67 2.087 . S
Mn68 O75 2.089 . S
Mn68 O84 2.290 . S
Mn68 O85 2.251 . S
O69 Mn66 2.160 1_556 S
O69 C80 1.239 . S
O70 Mn66 2.221 . S
O70 Mn71 2.290 1_554 S
O70 C81 1.278 . S
Mn71 O70 2.290 1_556 S
Mn71 O73 2.089 . S
Mn71 O76 2.251 . S
Mn71 O77 2.087 . S
O72 Mn66 2.163 1_556 S
O72 C82 1.244 . S
O73 Mn71 2.089 . S
O73 C80 1.256 . S
O74 Mn66 2.160 . S
O74 C83 1.239 . S
O75 Mn68 2.089 . S
O75 C83 1.256 . S
O76 Mn71 2.251 . S
O76 C81 1.241 1_556 S
O77 Mn71 2.087 . S
O77 C82 1.256 . S
C78 O84 1.278 . S
C78 O85 1.241 . S
C79 O65 1.244 . S
C79 O67 1.256 . S
C80 O69 1.239 . S
C80 O73 1.256 . S
C81 O70 1.278 . S
C81 O76 1.241 1_554 S
C82 O72 1.244 . S
C82 O77 1.256 . S
C83 O74 1.239 . S
C83 O75 1.256 . S
O84 Mn66 2.221 . S
O84 Mn68 2.290 . S
O84 C78 1.278 . S
O85 Mn68 2.251 . S
O85 C78 1.241 . S
C86 C87 1.369 . S
C86 C88 1.419 . S
C86 H90 0.930 . S
C87 C86 1.369 . S
C87 C96 1.429 . S
C88 C86 1.419 . S
C88 C89 1.363 . S
C88 H91 0.929 . S
C89 C88 1.363 . S
C89 C95 1.428 . S
H90 C86 0.930 . S
H91 C88 0.929 . S
S92 N93 1.613 . S
S92 N94 1.610 . S
N93 S92 1.613 . S
N93 C96 1.350 . S
N94 S92 1.610 . S
N94 C95 1.351 . S
C95 C89 1.428 . S
C95 N94 1.351 . S
C95 C96 1.434 . S
C96 C87 1.429 . S
C96 N93 1.350 . S
C96 C95 1.434 . S
C97 C98 1.369 . S
C97 C99 1.419 . S
C97 H101 0.930 . S
C98 C97 1.369 . S
C98 C107 1.429 . S
C99 C97 1.419 . S
C99 C100 1.363 . S
C99 H102 0.929 . S
C100 C99 1.363 . S
C100 C106 1.428 . S
H101 C97 0.930 . S
H102 C99 0.929 . S
S103 N104 1.613 . S
S103 N105 1.610 . S
N104 S103 1.613 . S
N104 C107 1.350 . S
N105 S103 1.610 . S
N105 C106 1.351 . S
C106 C100 1.428 . S
C106 N105 1.351 . S
C106 C107 1.434 . S
C107 C98 1.429 . S
C107 N104 1.350 . S
C107 C106 1.434 . S
C108 C109 1.369 . S
C108 C110 1.419 . S
C108 H112 0.930 . S
C109 C108 1.369 . S
C109 C118 1.429 . S
C110 C108 1.419 . S
C110 C111 1.363 . S
C110 H113 0.929 . S
C111 C110 1.363 . S
C111 C117 1.428 . S
H112 C108 0.930 . S
H113 C110 0.929 . S
S114 N115 1.613 . S
S114 N116 1.610 . S
N115 S114 1.613 . S
N115 C118 1.350 . S
N116 S114 1.610 . S
N116 C117 1.351 . S
C117 C111 1.428 . S
C117 N116 1.351 . S
C117 C118 1.434 . S
C118 C109 1.429 . S
C118 N115 1.350 . S
C118 C117 1.434 . S
C119 C120 1.369 . S
C119 C121 1.419 . S
C119 H123 0.930 . S
C120 C119 1.369 . S
C120 C129 1.429 1_554 S
C121 C119 1.419 . S
C121 C122 1.363 . S
C121 H124 0.929 . S
C122 C121 1.363 . S
C122 C128 1.428 1_554 S
H123 C119 0.930 . S
H124 C121 0.929 . S
S125 N126 1.613 . S
S125 N127 1.610 . S
N126 S125 1.613 . S
N126 C129 1.350 . S
N127 S125 1.610 . S
N127 C128 1.351 . S
C128 C122 1.428 1_556 S
C128 N127 1.351 . S
C128 C129 1.434 . S
C129 C120 1.429 1_556 S
C129 N126 1.350 . S
C129 C128 1.434 . S
C130 C131 1.369 . S
C130 C132 1.419 . S
C130 H134 0.930 . S
C131 C130 1.369 . S
C131 C140 1.429 . S
C132 C130 1.419 . S
C132 C133 1.363 . S
C132 H135 0.929 . S
C133 C132 1.363 . S
C133 C139 1.428 . S
H134 C130 0.930 . S
H135 C132 0.929 . S
S136 N137 1.613 . S
S136 N138 1.610 . S
N137 S136 1.613 . S
N137 C140 1.350 . S
N138 S136 1.610 . S
N138 C139 1.351 . S
C139 C133 1.428 . S
C139 N138 1.351 . S
C139 C140 1.434 . S
C140 C131 1.429 . S
C140 N137 1.350 . S
C140 C139 1.434 . S
C141 C142 1.369 . S
C141 C143 1.419 . S
C141 H145 0.930 . S
C142 C141 1.369 . S
C142 C151 1.429 . S
C143 C141 1.419 . S
C143 C144 1.363 . S
C143 H146 0.929 . S
C144 C143 1.363 . S
C144 C150 1.428 . S
H145 C141 0.930 . S
H146 C143 0.929 . S
S147 N148 1.613 . S
S147 N149 1.610 . S
N148 S147 1.613 . S
N148 C151 1.350 . S
N149 S147 1.610 . S
N149 C150 1.351 . S
C150 C144 1.428 . S
C150 N149 1.351 . S
C150 C151 1.434 . S
C151 C142 1.429 . S
C151 N148 1.350 . S
C151 C150 1.434 . S
C152 C153 1.369 . S
C152 C154 1.419 . S
C152 H156 0.930 . S
C153 C152 1.369 . S
C153 C162 1.429 . S
C154 C152 1.419 . S
C154 C155 1.363 . S
C154 H157 0.929 . S
C155 C154 1.363 . S
C155 C161 1.428 . S
H156 C152 0.930 . S
H157 C154 0.929 . S
S158 N159 1.613 . S
S158 N160 1.610 . S
N159 S158 1.613 . S
N159 C162 1.350 . S
N160 S158 1.610 . S
N160 C161 1.351 . S
C161 C155 1.428 . S
C161 N160 1.351 . S
C161 C162 1.434 . S
C162 C153 1.429 . S
C162 N159 1.350 . S
C162 C161 1.434 . S
C163 C164 1.369 . S
C163 C165 1.419 . S
C163 H167 0.930 . S
C164 C163 1.369 . S
C164 C173 1.429 . S
C165 C163 1.419 . S
C165 C166 1.363 . S
C165 H168 0.929 . S
C166 C165 1.363 . S
C166 C172 1.428 . S
H167 C163 0.930 . S
H168 C165 0.929 . S
S169 N170 1.613 . S
S169 N171 1.610 . S
N170 S169 1.613 . S
N170 C173 1.350 . S
N171 S169 1.610 . S
N171 C172 1.351 . S
C172 C166 1.428 . S
C172 N171 1.351 . S
C172 C173 1.434 . S
C173 C164 1.429 . S
C173 N170 1.350 . S
C173 C172 1.434 . S
C174 C175 1.369 . S
C174 C176 1.419 . S
C174 H178 0.930 . S
C175 C174 1.369 . S
C175 C184 1.429 . S
C176 C174 1.419 . S
C176 C177 1.363 . S
C176 H179 0.929 . S
C177 C176 1.363 . S
C177 C183 1.428 . S
H178 C174 0.930 . S
H179 C176 0.929 . S
S180 N181 1.613 . S
S180 N182 1.610 . S
N181 S180 1.613 . S
N181 C184 1.350 . S
N182 S180 1.610 . S
N182 C183 1.351 . S
C183 C177 1.428 . S
C183 N182 1.351 . S
C183 C184 1.434 . S
C184 C175 1.429 . S
C184 N181 1.350 . S
C184 C183 1.434 . S
C185 C186 1.369 . S
C185 C187 1.419 . S
C185 H189 0.930 . S
C186 C185 1.369 . S
C186 C195 1.429 . S
C187 C185 1.419 . S
C187 C188 1.363 . S
C187 H190 0.929 . S
C188 C187 1.363 . S
C188 C194 1.428 . S
H189 C185 0.930 . S
H190 C187 0.929 . S
S191 N192 1.613 . S
S191 N193 1.610 . S
N192 S191 1.613 . S
N192 C195 1.350 . S
N193 S191 1.610 . S
N193 C194 1.351 . S
C194 C188 1.428 . S
C194 N193 1.351 . S
C194 C195 1.434 . S
C195 C186 1.429 . S
C195 N192 1.350 . S
C195 C194 1.434 . S
C196 C197 1.369 . S
C196 C198 1.419 . S
C196 H200 0.930 . S
C197 C196 1.369 . S
C197 C206 1.429 . S
C198 C196 1.419 . S
C198 C199 1.363 . S
C198 H201 0.929 . S
C199 C198 1.363 . S
C199 C205 1.428 . S
H200 C196 0.930 . S
H201 C198 0.929 . S
S202 N203 1.613 . S
S202 N204 1.610 . S
N203 S202 1.613 . S
N203 C206 1.350 . S
N204 S202 1.610 . S
N204 C205 1.351 . S
C205 C199 1.428 . S
C205 N204 1.351 . S
C205 C206 1.434 . S
C206 C197 1.429 . S
C206 N203 1.350 . S
C206 C205 1.434 . S
C207 C208 1.369 . S
C207 C209 1.419 . S
C207 H211 0.930 . S
C208 C207 1.369 . S
C208 C217 1.429 . S
C209 C207 1.419 . S
C209 C210 1.363 . S
C209 H212 0.929 . S
C210 C209 1.363 . S
C210 C216 1.428 . S
H211 C207 0.930 . S
H212 C209 0.929 . S
S213 N214 1.613 . S
S213 N215 1.610 . S
N214 S213 1.613 . S
N214 C217 1.350 . S
N215 S213 1.610 . S
N215 C216 1.351 . S
C216 C210 1.428 . S
C216 N215 1.351 . S
C216 C217 1.434 . S
C217 C208 1.429 . S
C217 N214 1.350 . S
C217 C216 1.434 . S
C89 C60 1.254 . S
C87 N37 1.442 . S
C98 N4 1.486 . S
C100 C81 1.314 . S
C109 N15 1.565 . S
C111 C57 1.389 . S
C120 N26 1.571 . S
C122 C78 1.371 . S
C133 C62 1.508 . S
C131 C9 1.504 . S
C144 C82 1.530 . S
C142 C17 1.592 . S
C153 C31 1.578 . S
C155 C58 1.545 . S
C164 C42 1.512 . S
C166 C80 1.453 . S
C177 C79 1.468 . S
C175 C20 1.507 . S
C188 C61 1.458 . S
C186 C28 1.516 . S
C199 C83 1.421 . S
C197 C39 1.451 . S
C208 C6 1.456 . S
C210 C59 1.391 . S
