# Generated by pormake.
# Topology pth, (4,4)-cn, num edge types: 1
# Building blocks:
#     Node 0, Type 0, BuildingBlock: GALJAG_clean_sbu_0, # of connection points: 4
#     Node 1, Type 0, BuildingBlock: GALJAG_clean_sbu_0, # of connection points: 4
#     Node 2, Type 0, BuildingBlock: GALJAG_clean_sbu_0, # of connection points: 4
#     Node 3, Type 1, BuildingBlock: MIFKUJ_clean_linker_1, # of connection points: 4
#     Node 4, Type 1, BuildingBlock: MIFKUJ_clean_linker_1, # of connection points: 4
#     Node 5, Type 1, BuildingBlock: MIFKUJ_clean_linker_1, # of connection points: 4
#     Edge 6, Type (0, 1), BuildingBlock: EYOCIG_clean_linker_4, # of connection points: 2
#     Edge 7, Type (0, 1), BuildingBlock: EYOCIG_clean_linker_4, # of connection points: 2
#     Edge 8, Type (0, 1), BuildingBlock: EYOCIG_clean_linker_4, # of connection points: 2
#     Edge 9, Type (0, 1), BuildingBlock: EYOCIG_clean_linker_4, # of connection points: 2
#     Edge 10, Type (0, 1), BuildingBlock: EYOCIG_clean_linker_4, # of connection points: 2
#     Edge 11, Type (0, 1), BuildingBlock: EYOCIG_clean_linker_4, # of connection points: 2
#     Edge 12, Type (0, 1), BuildingBlock: EYOCIG_clean_linker_4, # of connection points: 2
#     Edge 13, Type (0, 1), BuildingBlock: EYOCIG_clean_linker_4, # of connection points: 2
#     Edge 14, Type (0, 1), BuildingBlock: EYOCIG_clean_linker_4, # of connection points: 2
#     Edge 15, Type (0, 1), BuildingBlock: EYOCIG_clean_linker_4, # of connection points: 2
#     Edge 16, Type (0, 1), BuildingBlock: EYOCIG_clean_linker_4, # of connection points: 2
#     Edge 17, Type (0, 1), BuildingBlock: EYOCIG_clean_linker_4, # of connection points: 2
# Relax obj value: 0.002
# Max RMSD: 0.043
# Mean RMSD: 0.028
data_MOF--net-pth--node1-GALJAG_clean_sbu_0--node2-MIFKUJ_clean_linker_1--edge1-EYOCIG_clean_linker_4
_symmetry_space_group_name_H-M    P1
_symmetry_Int_Tables_number       1
_symmetry_cell_setting            triclinic
loop_
_symmetry_equiv_pos_as_xyz
'x, y, z'
_cell_length_a     24.783397
_cell_length_b     24.790995
_cell_length_c     51.525606
_cell_angle_alpha  90.208282
_cell_angle_beta   90.105746
_cell_angle_gamma 120.0294
loop_
_atom_site_label
_atom_site_type_symbol
_atom_site_fract_x
_atom_site_fract_y
_atom_site_fract_z
_atom_type_partial_charge
In0 In 0.00777 0.00508 0.03765 0.0
O1 O 0.96157 0.05767 0.05403 0.0
O2 O 0.05098 0.08023 0.06894 0.0
C3 C 0.92299 0.91831 0.00557 0.0
C4 C 0.09411 0.08885 0.00564 0.0
C5 C 0.00896 0.92135 0.0702 0.0
O6 O 0.90982 0.9508 0.02037 0.0
O7 O 0.9791 0.93135 0.00596 0.0
O8 O 0.05376 0.95377 0.05515 0.0
O9 O 0.9648 0.93281 0.06979 0.0
C10 C 0.00674 0.09157 0.06889 0.0
O11 O 0.10582 0.05618 0.02087 0.0
O12 O 0.03863 0.0779 0.00574 0.0
In13 In 0.00439 0.00512 0.37096 0.0
O14 O 0.05043 0.10288 0.35377 0.0
O15 O 0.96113 0.035 0.33908 0.0
C16 C 0.0913 0.00702 0.40277 0.0
C17 C 0.91789 0.00328 0.40287 0.0
C18 C 0.00297 0.91799 0.33941 0.0
O19 O 0.10286 0.05158 0.38772 0.0
O20 O 0.03561 0.96297 0.40279 0.0
O21 O 0.95826 0.90647 0.35441 0.0
O22 O 0.04689 0.97373 0.33932 0.0
C23 C 0.00545 0.09054 0.33867 0.0
O24 O 0.90639 0.95847 0.3878 0.0
O25 O 0.97331 0.04793 0.40271 0.0
In26 In 0.00509 0.00205 0.70431 0.0
O27 O 0.95415 0.90432 0.72124 0.0
O28 O 0.93172 0.97129 0.73609 0.0
C29 C 0.09133 0.00258 0.67268 0.0
C30 C 0.91943 1.0015 0.67212 0.0
C31 C 0.08983 0.08788 0.73666 0.0
O32 O 0.05842 0.95728 0.68743 0.0
O33 O 0.07887 0.04605 0.67283 0.0
O34 O 0.05715 0.10007 0.72157 0.0
O35 O 0.07813 0.0322 0.73634 0.0
C36 C 0.92114 0.91595 0.73635 0.0
O37 O 0.95228 0.04699 0.68702 0.0
O38 O 0.93121 0.95759 0.67262 0.0
H39 H 0.10151 0.46819 0.15895 0.0
H40 H 0.10073 0.38746 0.13098 0.0
H41 H 0.91959 0.25351 0.16028 0.0
H42 H 0.92017 0.33434 0.18833 0.0
H43 H 0.02134 0.51073 0.1567 0.0
H44 H 0.08348 0.41147 0.21781 0.0
H45 H 0.08259 0.32985 0.2447 0.0
H46 H 0.9176 0.30428 0.2836 0.0
H47 H 0.91664 0.38433 0.25598 0.0
H48 H 0.91075 0.54322 0.24991 0.0
H49 H 0.91289 0.62471 0.27789 0.0
H50 H 0.09399 0.75706 0.24802 0.0
H51 H 0.09205 0.67562 0.22002 0.0
H52 H 0.99044 0.49969 0.25194 0.0
H53 H 0.92903 0.5997 0.19071 0.0
H54 H 0.93032 0.68123 0.16367 0.0
H55 H 0.09534 0.70613 0.12501 0.0
H56 H 0.09586 0.62606 0.1528 0.0
C57 C 0.01106 0.40716 0.17583 0.0
C58 C 0.06174 0.42139 0.15947 0.0
C59 C 0.06129 0.37551 0.14352 0.0
C60 C 0.01005 0.31494 0.1436 0.0
C61 C 0.95955 0.30022 0.16004 0.0
C62 C 0.96006 0.3461 0.17611 0.0
C63 C 0.00989 0.45732 0.19113 0.0
C64 C 0.0157 0.50898 0.17761 0.0
C65 C 1.00041 0.45359 0.21832 0.0
C66 C 0.99916 0.40309 0.23428 0.0
C67 C 0.04616 0.38748 0.23164 0.0
C68 C 0.04617 0.34145 0.24719 0.0
C69 C 0.99983 0.31108 0.2659 0.0
C70 C 0.95349 0.32713 0.26906 0.0
C71 C 0.95305 0.37278 0.25332 0.0
C72 C 1.00111 0.60348 0.23278 0.0
C73 C 0.95078 0.58984 0.24927 0.0
C74 C 0.95202 0.63615 0.26523 0.0
C75 C 0.00374 0.69646 0.26501 0.0
C76 C 0.05373 0.71055 0.24839 0.0
C77 C 0.05244 0.66431 0.23234 0.0
C78 C 1.00176 0.55304 0.21749 0.0
C79 C 0.99598 0.50138 0.23102 0.0
C80 C 0.01144 0.55684 0.19031 0.0
C81 C 0.01324 0.60761 0.17435 0.0
C82 C 0.96645 0.62352 0.17691 0.0
C83 C 0.9667 0.66952 0.16127 0.0
C84 C 0.01302 0.69957 0.14255 0.0
C85 C 0.05939 0.68348 0.13955 0.0
C86 C 0.05957 0.63781 0.15538 0.0
H87 H 0.63749 0.09857 0.49195 0.0
H88 H 0.71685 0.0962 0.46426 0.0
H89 H 0.66782 0.91529 0.49436 0.0
H90 H 0.58829 0.91744 0.52208 0.0
H91 H 0.51424 0.01933 0.49006 0.0
H92 H 0.67655 0.0809 0.55139 0.0
H93 H 0.75705 0.07896 0.57835 0.0
H94 H 0.61669 0.91402 0.61677 0.0
H95 H 0.53601 0.91415 0.58912 0.0
H96 H 0.37138 0.90883 0.58341 0.0
H97 H 0.29293 0.91219 0.6114 0.0
H98 H 0.34261 0.09306 0.58105 0.0
H99 H 0.42113 0.08992 0.55306 0.0
H100 H 0.49501 0.9881 0.58526 0.0
H101 H 0.33281 0.92697 0.52395 0.0
H102 H 0.25268 0.92795 0.49646 0.0
H103 H 0.39312 0.09286 0.45806 0.0
H104 H 0.47353 0.09372 0.48627 0.0
C105 C 0.60738 0.0084 0.50924 0.0
C106 C 0.644 0.05852 0.4927 0.0
C107 C 0.68907 0.05715 0.4769 0.0
C108 C 0.69779 0.00555 0.47734 0.0
C109 C 0.66161 0.95554 0.49386 0.0
C110 C 0.61666 0.95696 0.50976 0.0
C111 C 0.55657 0.00801 0.52451 0.0
C112 C 0.51053 0.01369 0.51097 0.0
C113 C 0.55099 0.99844 0.55169 0.0
C114 C 0.60018 0.99676 0.56767 0.0
C115 C 0.66299 0.04343 0.56516 0.0
C116 C 0.70888 0.0428 0.58073 0.0
C117 C 0.69257 0.99613 0.59931 0.0
C118 C 0.63001 0.95015 0.60233 0.0
C119 C 0.5841 0.95035 0.58658 0.0
C120 C 0.40184 0.99901 0.56605 0.0
C121 C 0.36515 0.94905 0.58267 0.0
C122 C 0.32061 0.95099 0.59863 0.0
C123 C 0.31261 0.00306 0.59831 0.0
C124 C 0.34843 0.05257 0.58153 0.0
C125 C 0.39281 0.05058 0.56547 0.0
C126 C 0.45262 0.99929 0.5508 0.0
C127 C 0.49871 0.99371 0.56435 0.0
C128 C 0.45835 0.00914 0.52364 0.0
C129 C 0.40927 0.01101 0.50765 0.0
C130 C 0.34649 0.96429 0.5101 0.0
C131 C 0.30081 0.96435 0.49421 0.0
C132 C 0.31727 0.01041 0.47535 0.0
C133 C 0.37972 0.05697 0.47262 0.0
C134 C 0.42546 0.05735 0.48869 0.0
H135 H 0.4694 0.36858 0.82486 0.0
H136 H 0.38689 0.28851 0.79737 0.0
H137 H 0.25566 0.33801 0.82817 0.0
H138 H 0.33811 0.41822 0.85569 0.0
H139 H 0.51358 0.49178 0.8233 0.0
H140 H 0.41442 0.3305 0.88414 0.0
H141 H 0.33346 0.24985 0.91125 0.0
H142 H 0.30839 0.38934 0.95073 0.0
H143 H 0.38775 0.47024 0.9229 0.0
H144 H 0.54742 0.63539 0.9171 0.0
H145 H 0.62992 0.71476 0.94488 0.0
H146 H 0.76078 0.66499 0.91388 0.0
H147 H 0.67844 0.58554 0.88614 0.0
H148 H 0.50302 0.51199 0.91863 0.0
H149 H 0.60267 0.67325 0.85767 0.0
H150 H 0.68392 0.75358 0.8306 0.0
H151 H 0.70854 0.61356 0.79134 0.0
H152 H 0.62879 0.53291 0.81915 0.0
C153 C 0.40969 0.39892 0.84249 0.0
C154 C 0.42282 0.36203 0.82579 0.0
C155 C 0.37594 0.31655 0.81012 0.0
C156 C 0.31555 0.30768 0.81085 0.0
C157 C 0.30215 0.34426 0.82748 0.0
C158 C 0.34896 0.38962 0.84325 0.0
C159 C 0.46041 0.44987 0.85777 0.0
C160 C 0.51198 0.4957 0.84423 0.0
C161 C 0.45679 0.45574 0.88499 0.0
C162 C 0.40636 0.40648 0.90095 0.0
C163 C 0.39069 0.34385 0.89817 0.0
C164 C 0.34506 0.29787 0.91384 0.0
C165 C 0.31513 0.3139 0.93281 0.0
C166 C 0.33101 0.37627 0.93603 0.0
C167 C 0.37626 0.4223 0.92017 0.0
C168 C 0.60695 0.60487 0.89944 0.0
C169 C 0.59394 0.64177 0.91619 0.0
C170 C 0.64081 0.68685 0.93202 0.0
C171 C 0.70104 0.69519 0.93139 0.0
C172 C 0.71438 0.65896 0.91455 0.0
C173 C 0.66761 0.61404 0.89865 0.0
C174 C 0.55617 0.55394 0.88415 0.0
C175 C 0.5046 0.50808 0.8977 0.0
C176 C 0.55983 0.54797 0.85695 0.0
C177 C 0.61046 0.59701 0.84099 0.0
C178 C 0.62638 0.6597 0.84373 0.0
C179 C 0.67223 0.70551 0.82808 0.0
C180 C 0.70209 0.68927 0.80917 0.0
C181 C 0.68603 0.62683 0.80601 0.0
C182 C 0.64054 0.58094 0.82185 0.0
C183 C 0.00976 0.18237 0.09704 0.0
C184 C 0.00853 0.14097 0.08422 0.0
C185 C 0.00983 0.22922 0.11276 0.0
C186 C 0.00967 0.26808 0.12685 0.0
C187 C 0.83027 0.00428 0.43162 0.0
C188 C 0.87053 0.00418 0.41856 0.0
C189 C 0.7833 0.00397 0.4472 0.0
C190 C 0.74424 0.00434 0.46099 0.0
C191 C 0.83372 0.82771 0.76513 0.0
C192 C 0.87336 0.86873 0.75216 0.0
C193 C 0.78783 0.77857 0.78005 0.0
C194 C 0.74894 0.73702 0.79306 0.0
C195 C 0.00784 0.83262 0.09879 0.0
C196 C 0.00731 0.87287 0.08592 0.0
C197 C 0.01026 0.78606 0.11359 0.0
C198 C 0.01252 0.74682 0.12654 0.0
C199 C 0.17997 0.00534 0.43062 0.0
C200 C 0.13895 0.00537 0.41803 0.0
C201 C 0.22873 0.00726 0.44555 0.0
C202 C 0.26979 0.00956 0.45892 0.0
C203 C 0.17975 0.17451 0.76559 0.0
C204 C 0.13877 0.13477 0.75243 0.0
C205 C 0.22725 0.22132 0.7811 0.0
C206 C 0.26735 0.26072 0.79469 0.0
C207 C 0.82892 0.99681 0.64328 0.0
C208 C 0.87017 0.99868 0.6564 0.0
C209 C 0.78073 0.99559 0.62816 0.0
C210 C 0.74016 0.99536 0.61512 0.0
C211 C 0.83714 0.82637 0.97717 0.0
C212 C 0.87677 0.86821 0.99004 0.0
C213 C 0.78976 0.77926 0.96173 0.0
C214 C 0.74926 0.74098 0.94792 0.0
C215 C 0.00626 0.8302 0.31146 0.0
C216 C 0.0049 0.87038 0.3242 0.0
C217 C 0.00647 0.78334 0.29588 0.0
C218 C 0.00536 0.74385 0.28179 0.0
C219 C 0.18303 0.00754 0.64482 0.0
C220 C 0.14125 0.00561 0.65748 0.0
C221 C 0.22987 0.00753 0.62926 0.0
C222 C 0.26761 0.00563 0.61513 0.0
C223 C 0.18137 0.17764 0.97699 0.0
C224 C 0.14141 0.13715 0.99004 0.0
C225 C 0.2283 0.2255 0.96191 0.0
C226 C 0.2678 0.26614 0.94875 0.0
C227 C 1.00218 0.17658 0.30971 0.0
C228 C 0.00351 0.13718 0.32291 0.0
C229 C 1.00078 0.22333 0.29464 0.0
C230 C 0.99985 0.26323 0.28166 0.0
loop_
_geom_bond_atom_site_label_1
_geom_bond_atom_site_label_2
_geom_bond_distance
_geom_bond_site_symmetry_2
_ccdc_geom_bond_type
In0 O1 2.294 1_455 S
In0 O2 2.326 . S
In0 O6 2.266 1_445 S
In0 O7 2.326 1_445 S
In0 O8 2.266 1_545 S
In0 O9 2.326 1_445 S
In0 O11 2.294 . S
In0 O12 2.326 . S
O1 In0 2.294 1_655 S
O1 C10 1.240 1_655 S
O2 In0 2.326 . S
O2 C10 1.252 . S
C3 O6 1.252 . S
C3 O7 1.260 . S
C4 O11 1.240 . S
C4 O12 1.252 . S
C5 O8 1.252 1_655 S
C5 O9 1.260 . S
O6 In0 2.266 1_665 S
O6 C3 1.252 . S
O7 In0 2.326 1_665 S
O7 C3 1.260 . S
O8 In0 2.266 1_565 S
O8 C5 1.252 1_455 S
O9 In0 2.326 1_665 S
O9 C5 1.260 . S
C10 O1 1.240 1_455 S
C10 O2 1.252 . S
O11 In0 2.294 . S
O11 C4 1.240 . S
O12 In0 2.326 . S
O12 C4 1.252 . S
In13 O14 2.294 . S
In13 O15 2.326 1_455 S
In13 O19 2.266 . S
In13 O20 2.326 1_545 S
In13 O21 2.266 1_445 S
In13 O22 2.326 1_545 S
In13 O24 2.294 1_445 S
In13 O25 2.326 1_455 S
O14 In13 2.294 . S
O14 C23 1.240 1_455 S
O15 In13 2.326 1_655 S
O15 C23 1.252 . S
C16 O19 1.252 1_565 S
C16 O20 1.260 . S
C17 O24 1.240 1_545 S
C17 O25 1.252 . S
C18 O21 1.252 1_455 S
C18 O22 1.260 . S
O19 In13 2.266 . S
O19 C16 1.252 1_545 S
O20 In13 2.326 1_565 S
O20 C16 1.260 . S
O21 In13 2.266 1_665 S
O21 C18 1.252 1_655 S
O22 In13 2.326 1_565 S
O22 C18 1.260 . S
C23 O14 1.240 1_655 S
C23 O15 1.252 . S
O24 In13 2.294 1_665 S
O24 C17 1.240 1_565 S
O25 In13 2.326 1_655 S
O25 C17 1.252 . S
In26 O27 2.286 1_445 S
In26 O28 2.327 1_445 S
In26 O32 2.259 1_545 S
In26 O33 2.327 . S
In26 O34 2.274 . S
In26 O35 2.324 . S
In26 O37 2.301 1_455 S
In26 O38 2.325 1_445 S
O27 In26 2.286 1_665 S
O27 C36 1.240 . S
O28 In26 2.327 1_665 S
O28 C36 1.252 . S
C29 O32 1.252 1_545 S
C29 O33 1.260 . S
C30 O37 1.240 1_565 S
C30 O38 1.252 . S
C31 O34 1.252 . S
C31 O35 1.260 . S
O32 In26 2.259 1_565 S
O32 C29 1.252 1_565 S
O33 In26 2.327 . S
O33 C29 1.260 . S
O34 In26 2.274 . S
O34 C31 1.252 . S
O35 In26 2.324 . S
O35 C31 1.260 . S
C36 O27 1.240 . S
C36 O28 1.252 . S
O37 In26 2.301 1_655 S
O37 C30 1.240 1_545 S
O38 In26 2.325 1_665 S
O38 C30 1.252 . S
H39 C58 0.949 . S
H40 C59 0.950 . S
H41 C61 0.950 . S
H42 C62 0.950 . S
H43 C64 0.950 . S
H44 C67 0.950 . S
H45 C68 0.950 . S
H46 C70 0.951 . S
H47 C71 0.949 . S
H48 C73 0.949 . S
H49 C74 0.950 . S
H50 C76 0.950 . S
H51 C77 0.950 . S
H52 C79 0.950 . S
H53 C82 0.950 . S
H54 C83 0.950 . S
H55 C85 0.951 . S
H56 C86 0.949 . S
C57 C58 1.376 . S
C57 C62 1.386 1_455 S
C57 C63 1.483 . S
C58 H39 0.949 . S
C58 C57 1.376 . S
C58 C59 1.397 . S
C59 H40 0.950 . S
C59 C58 1.397 . S
C59 C60 1.391 . S
C60 C59 1.391 . S
C60 C61 1.405 1_455 S
C61 H41 0.950 . S
C61 C60 1.405 1_655 S
C61 C62 1.367 . S
C62 H42 0.950 . S
C62 C57 1.386 1_655 S
C62 C61 1.367 . S
C63 C57 1.483 . S
C63 C64 1.382 . S
C63 C65 1.403 1_455 S
C64 H43 0.950 . S
C64 C63 1.382 . S
C64 C80 1.411 . S
C65 C63 1.403 1_655 S
C65 C66 1.489 . S
C65 C79 1.411 . S
C66 C65 1.489 . S
C66 C67 1.383 1_655 S
C66 C71 1.382 . S
C67 H44 0.950 . S
C67 C66 1.383 1_455 S
C67 C68 1.395 . S
C68 H45 0.950 . S
C68 C67 1.395 . S
C68 C69 1.288 1_455 S
C69 C68 1.288 1_655 S
C69 C70 1.392 . S
C70 H46 0.951 . S
C70 C69 1.392 . S
C70 C71 1.392 . S
C71 H47 0.949 . S
C71 C66 1.382 . S
C71 C70 1.392 . S
C72 C73 1.376 . S
C72 C77 1.386 1_655 S
C72 C78 1.483 . S
C73 H48 0.949 . S
C73 C72 1.376 . S
C73 C74 1.397 . S
C74 H49 0.950 . S
C74 C73 1.397 . S
C74 C75 1.383 1_655 S
C75 C74 1.383 1_455 S
C75 C76 1.421 . S
C76 H50 0.950 . S
C76 C75 1.421 . S
C76 C77 1.367 . S
C77 H51 0.950 . S
C77 C72 1.386 1_455 S
C77 C76 1.367 . S
C78 C72 1.483 . S
C78 C79 1.382 . S
C78 C80 1.403 1_655 S
C79 H52 0.950 . S
C79 C65 1.411 . S
C79 C78 1.382 . S
C80 C64 1.411 . S
C80 C78 1.403 1_455 S
C80 C81 1.489 . S
C81 C80 1.489 . S
C81 C82 1.383 1_455 S
C81 C86 1.382 . S
C82 H53 0.950 . S
C82 C81 1.383 1_655 S
C82 C83 1.395 . S
C83 H54 0.950 . S
C83 C82 1.395 . S
C83 C84 1.288 1_655 S
C84 C83 1.288 1_455 S
C84 C85 1.392 . S
C85 H55 0.951 . S
C85 C84 1.392 . S
C85 C86 1.392 . S
C86 H56 0.949 . S
C86 C81 1.382 . S
C86 C85 1.392 . S
H87 C106 0.949 . S
H88 C107 0.950 . S
H89 C109 0.950 . S
H90 C110 0.950 . S
H91 C112 0.950 . S
H92 C115 0.950 . S
H93 C116 0.950 . S
H94 C118 0.951 . S
H95 C119 0.949 . S
H96 C121 0.949 . S
H97 C122 0.950 . S
H98 C124 0.950 . S
H99 C125 0.950 . S
H100 C127 0.950 . S
H101 C130 0.950 . S
H102 C131 0.950 . S
H103 C133 0.951 . S
H104 C134 0.949 . S
C105 C106 1.376 . S
C105 C110 1.386 1_545 S
C105 C111 1.483 . S
C106 H87 0.949 . S
C106 C105 1.376 . S
C106 C107 1.397 . S
C107 H88 0.950 . S
C107 C106 1.397 . S
C107 C108 1.391 . S
C108 C107 1.391 . S
C108 C109 1.405 1_545 S
C109 H89 0.950 . S
C109 C108 1.405 1_565 S
C109 C110 1.367 . S
C110 H90 0.950 . S
C110 C105 1.386 1_565 S
C110 C109 1.367 . S
C111 C105 1.483 . S
C111 C112 1.382 . S
C111 C113 1.403 1_545 S
C112 H91 0.950 . S
C112 C111 1.382 . S
C112 C128 1.411 . S
C113 C111 1.403 1_565 S
C113 C114 1.489 . S
C113 C127 1.411 . S
C114 C113 1.489 . S
C114 C115 1.383 1_565 S
C114 C119 1.382 . S
C115 H92 0.950 . S
C115 C114 1.383 1_545 S
C115 C116 1.395 . S
C116 H93 0.950 . S
C116 C115 1.395 . S
C116 C117 1.288 1_545 S
C117 C116 1.288 1_565 S
C117 C118 1.392 . S
C118 H94 0.951 . S
C118 C117 1.392 . S
C118 C119 1.392 . S
C119 H95 0.949 . S
C119 C114 1.382 . S
C119 C118 1.392 . S
C120 C121 1.376 . S
C120 C125 1.386 1_565 S
C120 C126 1.483 . S
C121 H96 0.949 . S
C121 C120 1.376 . S
C121 C122 1.397 . S
C122 H97 0.950 . S
C122 C121 1.397 . S
C122 C123 1.401 . S
C123 C122 1.401 . S
C123 C124 1.400 1_565 S
C124 H98 0.950 . S
C124 C123 1.400 1_545 S
C124 C125 1.367 . S
C125 H99 0.950 . S
C125 C120 1.386 1_545 S
C125 C124 1.367 . S
C126 C120 1.483 . S
C126 C127 1.382 . S
C126 C128 1.403 1_565 S
C127 H100 0.950 . S
C127 C113 1.411 . S
C127 C126 1.382 . S
C128 C112 1.411 . S
C128 C126 1.403 1_545 S
C128 C129 1.489 . S
C129 C128 1.489 . S
C129 C130 1.383 1_545 S
C129 C134 1.382 . S
C130 H101 0.950 . S
C130 C129 1.383 1_565 S
C130 C131 1.395 . S
C131 H102 0.950 . S
C131 C130 1.395 . S
C131 C132 1.288 1_565 S
C132 C131 1.288 1_545 S
C132 C133 1.392 . S
C133 H103 0.951 . S
C133 C132 1.392 . S
C133 C134 1.392 . S
C134 H104 0.949 . S
C134 C129 1.382 . S
C134 C133 1.392 . S
H135 C154 0.949 . S
H136 C155 0.950 . S
H137 C157 0.950 . S
H138 C158 0.950 . S
H139 C160 0.950 . S
H140 C163 0.950 . S
H141 C164 0.950 . S
H142 C166 0.951 . S
H143 C167 0.949 . S
H144 C169 0.949 . S
H145 C170 0.950 . S
H146 C172 0.950 . S
H147 C173 0.950 . S
H148 C175 0.950 . S
H149 C178 0.950 . S
H150 C179 0.950 . S
H151 C181 0.951 . S
H152 C182 0.949 . S
C153 C154 1.376 . S
C153 C158 1.386 . S
C153 C159 1.483 . S
C154 H135 0.949 . S
C154 C153 1.376 . S
C154 C155 1.397 . S
C155 H136 0.950 . S
C155 C154 1.397 . S
C155 C156 1.391 . S
C156 C155 1.391 . S
C156 C157 1.405 . S
C157 H137 0.950 . S
C157 C156 1.405 . S
C157 C158 1.367 . S
C158 H138 0.950 . S
C158 C153 1.386 . S
C158 C157 1.367 . S
C159 C153 1.483 . S
C159 C160 1.382 . S
C159 C161 1.403 . S
C160 H139 0.950 . S
C160 C159 1.382 . S
C160 C176 1.411 . S
C161 C159 1.403 . S
C161 C162 1.489 . S
C161 C175 1.411 . S
C162 C161 1.489 . S
C162 C163 1.383 . S
C162 C167 1.382 . S
C163 H140 0.950 . S
C163 C162 1.383 . S
C163 C164 1.395 . S
C164 H141 0.950 . S
C164 C163 1.395 . S
C164 C165 1.288 . S
C165 C164 1.288 . S
C165 C166 1.392 . S
C166 H142 0.951 . S
C166 C165 1.392 . S
C166 C167 1.392 . S
C167 H143 0.949 . S
C167 C162 1.382 . S
C167 C166 1.392 . S
C168 C169 1.376 . S
C168 C173 1.386 . S
C168 C174 1.483 . S
C169 H144 0.949 . S
C169 C168 1.376 . S
C169 C170 1.397 . S
C170 H145 0.950 . S
C170 C169 1.397 . S
C170 C171 1.391 . S
C171 C170 1.391 . S
C171 C172 1.405 . S
C172 H146 0.950 . S
C172 C171 1.405 . S
C172 C173 1.367 . S
C173 H147 0.950 . S
C173 C168 1.386 . S
C173 C172 1.367 . S
C174 C168 1.483 . S
C174 C175 1.382 . S
C174 C176 1.403 . S
C175 H148 0.950 . S
C175 C161 1.411 . S
C175 C174 1.382 . S
C176 C160 1.411 . S
C176 C174 1.403 . S
C176 C177 1.489 . S
C177 C176 1.489 . S
C177 C178 1.383 . S
C177 C182 1.382 . S
C178 H149 0.950 . S
C178 C177 1.383 . S
C178 C179 1.395 . S
C179 H150 0.950 . S
C179 C178 1.395 . S
C179 C180 1.288 . S
C180 C179 1.288 . S
C180 C181 1.392 . S
C181 H151 0.951 . S
C181 C180 1.392 . S
C181 C182 1.392 . S
C182 H152 0.949 . S
C182 C177 1.382 . S
C182 C181 1.392 . S
C183 C184 1.170 . S
C183 C185 1.380 . S
C184 C183 1.170 . S
C185 C183 1.380 . S
C185 C186 1.170 . S
C186 C185 1.170 . S
C187 C188 1.163 . S
C187 C189 1.395 1_545 S
C188 C187 1.163 . S
C189 C187 1.395 1_565 S
C189 C190 1.164 1_565 S
C190 C189 1.164 1_545 S
C191 C192 1.170 . S
C191 C193 1.380 . S
C192 C191 1.170 . S
C193 C191 1.380 . S
C193 C194 1.170 . S
C194 C193 1.170 . S
C195 C196 1.170 . S
C195 C197 1.380 . S
C196 C195 1.170 . S
C197 C195 1.380 . S
C197 C198 1.170 . S
C198 C197 1.170 . S
C199 C200 1.170 . S
C199 C201 1.380 . S
C200 C199 1.170 . S
C201 C199 1.380 . S
C201 C202 1.170 . S
C202 C201 1.170 . S
C203 C204 1.170 . S
C203 C205 1.380 . S
C204 C203 1.170 . S
C205 C203 1.380 . S
C205 C206 1.170 . S
C206 C205 1.170 . S
C207 C208 1.170 . S
C207 C209 1.380 . S
C208 C207 1.170 . S
C209 C207 1.380 . S
C209 C210 1.170 . S
C210 C209 1.170 . S
C211 C212 1.170 . S
C211 C213 1.380 . S
C212 C211 1.170 . S
C213 C211 1.380 . S
C213 C214 1.170 . S
C214 C213 1.170 . S
C215 C216 1.170 . S
C215 C217 1.380 . S
C216 C215 1.170 . S
C217 C215 1.380 . S
C217 C218 1.170 . S
C218 C217 1.170 . S
C219 C220 1.170 . S
C219 C221 1.380 . S
C220 C219 1.170 . S
C221 C219 1.380 . S
C221 C222 1.170 . S
C222 C221 1.170 . S
C223 C224 1.170 . S
C223 C225 1.380 . S
C224 C223 1.170 . S
C225 C223 1.380 . S
C225 C226 1.170 . S
C226 C225 1.170 . S
C227 C228 1.175 1_455 S
C227 C229 1.375 . S
C228 C227 1.175 1_655 S
C229 C227 1.375 . S
C229 C230 1.170 . S
C230 C229 1.170 . S
C186 C60 1.526 . S
C184 C10 1.524 . S
C188 C17 1.527 . S
C190 C108 1.529 . S
C192 C36 1.529 . S
C194 C180 1.521 . S
C196 C5 1.529 1_455 S
C198 C84 1.520 . S
C202 C132 1.520 . S
C200 C16 1.528 1_545 S
C204 C31 1.528 . S
C206 C156 1.528 . S
C210 C117 1.519 . S
C208 C30 1.529 . S
C212 C3 1.528 1_556 S
C214 C171 1.527 . S
C218 C75 1.522 . S
C216 C18 1.527 . S
C222 C123 1.525 1_545 S
C220 C29 1.528 . S
C226 C165 1.528 . S
C224 C4 1.529 1_556 S
C228 C23 1.529 . S
C230 C69 1.526 1_455 S
