# Generated by pormake.
# Topology zzz, (3,6)-cn, num edge types: 1
# Building blocks:
#     Node 0, Type 0, BuildingBlock: ESEHIV_clean_linker_0, # of connection points: 3
#     Node 1, Type 0, BuildingBlock: ESEHIV_clean_linker_0, # of connection points: 3
#     Node 2, Type 0, BuildingBlock: ESEHIV_clean_linker_0, # of connection points: 3
#     Node 3, Type 0, BuildingBlock: ESEHIV_clean_linker_0, # of connection points: 3
#     Node 4, Type 0, BuildingBlock: ESEHIV_clean_linker_0, # of connection points: 3
#     Node 5, Type 0, BuildingBlock: ESEHIV_clean_linker_0, # of connection points: 3
#     Node 6, Type 0, BuildingBlock: ESEHIV_clean_linker_0, # of connection points: 3
#     Node 7, Type 0, BuildingBlock: ESEHIV_clean_linker_0, # of connection points: 3
#     Node 8, Type 1, BuildingBlock: JUFBIX_clean_sbu_0, # of connection points: 6
#     Node 9, Type 1, BuildingBlock: JUFBIX_clean_sbu_0, # of connection points: 6
#     Node 10, Type 1, BuildingBlock: JUFBIX_clean_sbu_0, # of connection points: 6
#     Node 11, Type 1, BuildingBlock: JUFBIX_clean_sbu_0, # of connection points: 6
#     Edge 12, Type (0, 1), None
#     Edge 13, Type (0, 1), None
#     Edge 14, Type (0, 1), None
#     Edge 15, Type (0, 1), None
#     Edge 16, Type (0, 1), None
#     Edge 17, Type (0, 1), None
#     Edge 18, Type (0, 1), None
#     Edge 19, Type (0, 1), None
#     Edge 20, Type (0, 1), None
#     Edge 21, Type (0, 1), None
#     Edge 22, Type (0, 1), None
#     Edge 23, Type (0, 1), None
#     Edge 24, Type (0, 1), None
#     Edge 25, Type (0, 1), None
#     Edge 26, Type (0, 1), None
#     Edge 27, Type (0, 1), None
#     Edge 28, Type (0, 1), None
#     Edge 29, Type (0, 1), None
#     Edge 30, Type (0, 1), None
#     Edge 31, Type (0, 1), None
#     Edge 32, Type (0, 1), None
#     Edge 33, Type (0, 1), None
#     Edge 34, Type (0, 1), None
#     Edge 35, Type (0, 1), None
# Relax obj value: 0.265
# Max RMSD: 0.269
# Mean RMSD: 0.188
data_MOF--net-zzz--node1-JUFBIX_clean_sbu_0--node2-ESEHIV_clean_linker_0--edge1-none
_symmetry_space_group_name_H-M    P1
_symmetry_Int_Tables_number       1
_symmetry_cell_setting            triclinic
loop_
_symmetry_equiv_pos_as_xyz
'x, y, z'
_cell_length_a     19.105993
_cell_length_b     19.193927
_cell_length_c     8.0089566
_cell_angle_alpha  67.710891
_cell_angle_beta   87.259829
_cell_angle_gamma 91.873525
loop_
_atom_site_label
_atom_site_type_symbol
_atom_site_fract_x
_atom_site_fract_y
_atom_site_fract_z
_atom_type_partial_charge
H0 H 1.01197 0.48213 0.49256 0.0
H1 H 0.86341 0.45445 0.14654 0.0
H2 H 0.79391 0.52444 0.57771 0.0
C3 C 0.95779 0.48434 0.45895 0.0
C4 C 0.90734 0.50912 0.55426 0.0
C5 C 0.94076 0.46192 0.3206 0.0
C6 C 0.87399 0.46713 0.26468 0.0
C7 C 0.82017 0.49053 0.34914 0.0
C8 C 0.83566 0.51046 0.50162 0.0
H9 H 0.90375 0.86719 0.44273 0.0
H10 H 0.90637 0.78169 0.04706 0.0
H11 H 0.08427 0.74947 0.36968 0.0
C12 C 0.92982 0.83031 0.38871 0.0
C13 C 0.9957 0.80383 0.4464 0.0
C14 C 0.9234 0.84623 0.20781 0.0
C15 C 0.93004 0.78246 0.16673 0.0
C16 C 0.99349 0.7474 0.21418 0.0
C17 C 1.0297 0.76185 0.35241 0.0
H18 H 0.71587 0.92623 0.31528 0.0
H19 H 0.80336 1.01389 0.77753 0.0
H20 H 0.86637 0.1145 0.14473 0.0
C21 C 0.75576 0.96338 0.21872 0.0
C22 C 0.78211 0.02494 0.24933 0.0
C23 C 0.74525 0.98093 0.03945 0.0
C24 C 0.80311 1.01354 0.91312 0.0
C25 C 0.85619 0.05402 0.95967 0.0
C26 C 0.83827 0.06969 0.12074 0.0
H27 H 0.59241 0.57283 0.34057 0.0
H28 H 0.59182 0.79031 0.37844 0.0
H29 H 0.52748 0.76232 0.89552 0.0
C30 C 0.58484 0.63299 0.28187 0.0
C31 C 0.55407 0.66281 0.11594 0.0
C32 C 0.59901 0.67625 0.38294 0.0
C33 C 0.58561 0.75522 0.3009 0.0
C34 C 0.56343 0.78822 0.11753 0.0
C35 C 0.54633 0.73994 0.03049 0.0
H36 H 0.0947 0.55303 0.27544 0.0
H37 H 0.24327 0.58082 0.62132 0.0
H38 H 0.31278 0.51083 0.19016 0.0
C39 C 0.14889 0.55085 0.30902 0.0
C40 C 0.19934 0.52609 0.21368 0.0
C41 C 0.16592 0.5733 0.44734 0.0
C42 C 0.23268 0.56812 0.5032 0.0
C43 C 0.28651 0.54474 0.41873 0.0
C44 C 0.27103 0.5248 0.26627 0.0
H45 H 0.20292 0.168 0.32526 0.0
H46 H 0.20031 0.2535 0.72092 0.0
H47 H 1.02241 0.28574 0.39828 0.0
C48 C 0.17685 0.20489 0.37927 0.0
C49 C 0.11098 0.23137 0.32157 0.0
C50 C 0.18328 0.18897 0.56017 0.0
C51 C 0.17664 0.25273 0.60125 0.0
C52 C 0.11319 0.2878 0.55379 0.0
C53 C 0.07698 0.27335 0.41556 0.0
H54 H 0.39075 0.10905 0.45257 0.0
H55 H 0.30329 0.02139 0.99035 0.0
H56 H 0.24031 0.92072 0.62323 0.0
C57 C 0.35087 0.07188 0.54916 0.0
C58 C 0.32454 1.01031 0.51858 0.0
C59 C 0.36138 0.05436 0.72841 0.0
C60 C 0.30354 0.02173 0.85477 0.0
C61 C 0.25048 0.98121 0.80826 0.0
C62 C 0.2684 0.96554 0.64719 0.0
H63 H 0.51429 0.46249 0.42724 0.0
H64 H 0.51484 0.24501 0.38939 0.0
H65 H 0.57918 0.27299 0.87232 0.0
C66 C 0.52185 0.40234 0.48594 0.0
C67 C 0.55262 0.37251 0.65188 0.0
C68 C 0.50767 0.35907 0.38488 0.0
C69 C 0.52106 0.28009 0.46693 0.0
C70 C 0.54323 0.2471 0.65031 0.0
C71 C 0.56034 0.29538 0.73734 0.0
Co72 Co 0.0616 0.04356 0.98301 0.0
C73 C 0.92917 0.07083 0.85891 0.0
Co74 Co 0.04507 0.99164 0.78497 0.0
C75 C 0.10187 0.15028 0.14454 0.0
C76 C 1.00884 0.08405 0.27129 0.0
N77 N 0.06483 0.08673 0.1584 0.0
N78 N 0.0722 0.1864 0.24456 0.0
C79 C 1.01299 0.14468 0.3228 0.0
H80 H 0.15079 0.17003 0.06328 0.0
H81 H 0.96554 0.04232 0.30786 0.0
C82 C 0.1775 0.96438 0.90906 0.0
N83 N 0.04184 0.94847 0.60958 0.0
C84 C 1.0048 0.88491 0.62344 0.0
C85 C 0.09783 0.95115 0.49669 0.0
N86 N 0.03447 0.8488 0.52341 0.0
C87 C 0.09368 0.89053 0.44517 0.0
C88 C 0.13346 0.12556 0.67833 0.0
O89 O 0.15673 0.9965 1.0178 0.0
O90 O 0.13052 0.9432 0.83142 0.0
O91 O 0.10193 0.07971 0.62123 0.0
O92 O 0.11279 0.1253 0.8298 0.0
O93 O 0.94993 0.0387 0.75017 0.0
H94 H 0.14113 0.99289 0.46011 0.0
H95 H 0.95589 0.86516 0.7047 0.0
O96 O 0.97615 0.092 0.93656 0.0
O97 O 1.00474 0.95549 0.14675 0.0
O98 O 0.99387 0.90991 0.93818 0.0
C99 C 0.97321 0.90964 0.08965 0.0
H100 H 0.97786 0.15407 0.42134 0.0
H101 H 0.12882 0.88113 0.34663 0.0
Co102 Co 0.53061 1.01376 1.02113 0.0
C103 C 0.55369 0.87139 1.01872 0.0
Co104 Co 0.57604 0.02156 0.74671 0.0
C105 C 0.41498 0.02585 0.26757 0.0
C106 C 0.48163 0.93863 0.4032 0.0
N107 N 0.48011 1.00063 0.24934 0.0
N108 N 0.37544 0.9818 0.42139 0.0
C109 C 0.41876 0.9271 0.50626 0.0
H110 H 0.39611 0.07644 0.16775 0.0
H111 H 0.52452 0.90128 0.43546 0.0
C112 C 0.55296 0.16392 0.74911 0.0
N113 N 0.62654 0.03467 0.51851 0.0
C114 C 0.69166 1.00942 0.5003 0.0
C115 C 0.62505 0.09668 0.36465 0.0
N116 N 0.73122 0.05346 0.3465 0.0
C117 C 0.68792 0.10818 0.26161 0.0
C118 C 0.43276 0.03319 0.77973 0.0
O119 O 0.53463 0.12738 0.91886 0.0
O120 O 0.57859 0.12797 0.65969 0.0
O121 O 0.48192 0.0289 0.66811 0.0
O122 O 0.44436 0.018 0.94132 0.0
O123 O 0.57203 0.90794 0.84898 0.0
H124 H 0.58217 0.13405 0.33237 0.0
H125 H 0.71051 0.95883 0.60012 0.0
O126 O 0.52805 0.90734 0.10815 0.0
O127 O 0.62473 1.0064 0.09973 0.0
O128 O 0.66229 1.01732 0.82651 0.0
C129 C 0.67388 1.00212 0.98811 0.0
H130 H 0.40812 0.88489 0.64146 0.0
H131 H 0.69858 0.1504 0.12643 0.0
Co132 Co 0.6109 0.50996 0.90235 0.0
C133 C 0.50934 0.40613 0.1838 0.0
Co134 Co 0.49578 0.52536 0.86547 0.0
C135 C 0.72895 0.52631 0.12193 0.0
C136 C 0.70488 0.41566 0.13514 0.0
N137 N 0.69695 0.48833 0.02851 0.0
N138 N 0.7518 0.48065 0.28599 0.0
C139 C 0.73263 0.41102 0.29376 0.0
H140 H 0.73451 0.58725 0.07199 0.0
H141 H 0.68371 0.36783 0.10994 0.0
C142 C 0.59734 0.62919 0.58402 0.0
N143 N 0.40973 0.54698 0.73931 0.0
C144 C 0.37774 0.50899 0.64592 0.0
C145 C 0.4018 0.61965 0.63266 0.0
N146 N 0.35488 0.55464 0.48185 0.0
C147 C 0.37404 0.62428 0.47406 0.0
C148 C 0.54436 0.613 1.0209 0.0
O149 O 0.64889 0.5932 0.67006 0.0
O150 O 0.53639 0.6037 0.65125 0.0
O151 O 0.48536 0.5982 0.97026 0.0
O152 O 0.59811 0.57983 1.00195 0.0
O153 O 0.4578 0.44212 0.09776 0.0
H154 H 0.42296 0.66748 0.65784 0.0
H155 H 0.37218 0.44805 0.69588 0.0
O156 O 0.5703 0.43161 0.11657 0.0
O157 O 0.62133 0.43712 0.79756 0.0
O158 O 0.50858 0.45548 0.76588 0.0
C159 C 0.56233 0.42231 0.74692 0.0
H160 H 0.74706 0.35898 0.39756 0.0
H161 H 0.3596 0.67631 0.37025 0.0
Co162 Co 0.05013 0.57942 0.84075 0.0
C163 C 0.16977 0.51697 0.04974 0.0
Co164 Co 0.05655 0.45579 0.9272 0.0
C165 C 0.99753 0.67903 1.00415 0.0
C166 C 0.09637 0.71897 0.85826 0.0
N167 N 0.04018 0.6718 0.87159 0.0
N168 N 1.02749 0.72225 0.08398 0.0
C169 C 0.08892 0.74937 0.98882 0.0
H170 H 0.94761 0.64771 0.05332 0.0
H171 H 0.14382 0.72382 0.77439 0.0
C172 C 0.93691 0.51824 0.71821 0.0
N173 N 0.0665 0.36341 0.89636 0.0
C174 C 0.10915 0.35618 0.76381 0.0
C175 C 1.01031 0.31624 0.9097 0.0
N176 N 0.07919 0.31296 0.68398 0.0
C177 C 1.01776 0.28584 0.77915 0.0
C178 C 0.99295 0.46694 0.18326 0.0
O179 O 0.96066 0.58244 0.71434 0.0
O180 O 0.96879 0.46096 0.8137 0.0
O181 O 1.0096 0.41046 0.14895 0.0
O182 O 1.00408 0.53264 0.06565 0.0
O183 O 0.14601 0.45277 0.05361 0.0
H184 H 0.96286 0.31138 0.99358 0.0
H185 H 0.15907 0.3875 0.71463 0.0
O186 O 0.13789 0.57425 0.95424 0.0
O187 O 0.09707 0.62475 0.61901 0.0
O188 O 0.1026 0.50256 0.70229 0.0
C189 C 0.11373 0.56827 0.58469 0.0
H190 H 0.12605 0.7877 1.01321 0.0
H191 H 0.98063 0.2475 0.75476 0.0
loop_
_geom_bond_atom_site_label_1
_geom_bond_atom_site_label_2
_geom_bond_distance
_geom_bond_site_symmetry_2
_ccdc_geom_bond_type
H0 C3 0.931 1_455 S
H1 C6 0.928 1_556 S
H2 C8 0.930 . S
C3 H0 0.931 1_655 S
C3 C4 1.413 . S
C3 C5 1.360 . S
C4 C3 1.413 . S
C4 C8 1.429 . S
C5 C3 1.360 . S
C5 C6 1.372 . S
C6 H1 0.928 1_554 S
C6 C5 1.372 . S
C6 C7 1.404 . S
C7 C6 1.404 . S
C7 C8 1.391 . S
C8 H2 0.930 . S
C8 C4 1.429 . S
C8 C7 1.391 . S
H9 C12 0.931 . S
H10 C15 0.928 . S
H11 C17 0.930 . S
C12 H9 0.931 . S
C12 C13 1.413 . S
C12 C14 1.360 1_554 S
C13 C12 1.413 . S
C13 C17 1.429 . S
C14 C12 1.360 1_556 S
C14 C15 1.372 . S
C15 H10 0.928 . S
C15 C14 1.372 . S
C15 C16 1.404 . S
C16 C15 1.404 . S
C16 C17 1.391 1_556 S
C17 H11 0.930 . S
C17 C13 1.429 . S
C17 C16 1.391 1_554 S
H18 C21 0.931 . S
H19 C24 0.928 . S
H20 C26 0.931 . S
C21 H18 0.931 . S
C21 C22 1.415 . S
C21 C23 1.360 1_554 S
C22 C21 1.415 . S
C22 C26 1.431 1_565 S
C23 C21 1.360 1_556 S
C23 C24 1.372 . S
C24 H19 0.928 . S
C24 C23 1.372 . S
C24 C25 1.407 . S
C25 C24 1.407 . S
C25 C26 1.384 1_566 S
C26 H20 0.931 . S
C26 C22 1.431 1_545 S
C26 C25 1.384 1_544 S
H27 C30 0.931 . S
H28 C33 0.928 . S
H29 C35 0.930 1_556 S
C30 H27 0.931 . S
C30 C31 1.413 . S
C30 C32 1.360 . S
C31 C30 1.413 . S
C31 C35 1.429 . S
C32 C30 1.360 . S
C32 C33 1.372 . S
C33 H28 0.928 . S
C33 C32 1.372 . S
C33 C34 1.404 . S
C34 C33 1.404 . S
C34 C35 1.391 . S
C35 H29 0.930 1_554 S
C35 C31 1.429 . S
C35 C34 1.391 . S
H36 C39 0.931 . S
H37 C42 0.928 . S
H38 C44 0.930 . S
C39 H36 0.931 . S
C39 C40 1.413 . S
C39 C41 1.360 . S
C40 C39 1.413 . S
C40 C44 1.429 . S
C41 C39 1.360 . S
C41 C42 1.372 . S
C42 H37 0.928 . S
C42 C41 1.372 . S
C42 C43 1.404 . S
C43 C42 1.404 . S
C43 C44 1.391 . S
C44 H38 0.930 . S
C44 C40 1.429 . S
C44 C43 1.391 . S
H45 C48 0.931 . S
H46 C51 0.928 . S
H47 C53 0.930 . S
C48 H45 0.931 . S
C48 C49 1.413 . S
C48 C50 1.360 . S
C49 C48 1.413 . S
C49 C53 1.429 . S
C50 C48 1.360 . S
C50 C51 1.372 . S
C51 H46 0.928 . S
C51 C50 1.372 . S
C51 C52 1.404 . S
C52 C51 1.404 . S
C52 C53 1.391 . S
C53 H47 0.930 . S
C53 C49 1.429 . S
C53 C52 1.391 . S
H54 C57 0.933 . S
H55 C60 0.928 . S
H56 C62 0.929 . S
C57 H54 0.933 . S
C57 C58 1.415 . S
C57 C59 1.360 . S
C58 C57 1.415 . S
C58 C62 1.427 1_565 S
C59 C57 1.360 . S
C59 C60 1.370 . S
C60 H55 0.928 . S
C60 C59 1.370 . S
C60 C61 1.402 . S
C61 C60 1.402 . S
C61 C62 1.396 1_565 S
C62 H56 0.929 . S
C62 C58 1.427 1_545 S
C62 C61 1.396 1_545 S
H63 C66 0.931 . S
H64 C69 0.928 . S
H65 C71 0.930 . S
C66 H63 0.931 . S
C66 C67 1.413 . S
C66 C68 1.360 . S
C67 C66 1.413 . S
C67 C71 1.429 . S
C68 C66 1.360 . S
C68 C69 1.372 . S
C69 H64 0.928 . S
C69 C68 1.372 . S
C69 C70 1.404 . S
C70 C69 1.404 . S
C70 C71 1.391 . S
C71 H65 0.930 . S
C71 C67 1.429 . S
C71 C70 1.391 . S
Co72 N77 2.057 . S
Co72 O89 2.021 1_545 S
Co72 O92 2.062 1_554 S
Co72 O96 2.117 1_454 S
Co72 O97 2.020 1_545 S
C73 O93 1.259 . S
C73 O96 1.258 . S
Co74 N83 2.057 1_455 S
Co74 O90 2.117 . S
Co74 O91 2.020 1_565 S
Co74 O93 2.021 1_465 S
Co74 O98 2.062 1_455 S
C75 N77 1.316 . S
C75 N78 1.347 . S
C75 H80 0.931 . S
C76 N77 1.372 1_655 S
C76 C79 1.349 1_655 S
C76 H81 0.933 . S
N77 Co72 2.057 . S
N77 C75 1.316 . S
N77 C76 1.372 1_455 S
N78 C75 1.347 . S
N78 C79 1.373 . S
C79 C76 1.349 1_455 S
C79 N78 1.373 . S
C79 H100 0.931 . S
H80 C75 0.931 . S
H81 C76 0.933 . S
C82 O89 1.257 1_556 S
C82 O90 1.258 . S
N83 Co74 2.057 1_655 S
N83 C84 1.316 . S
N83 C85 1.375 1_655 S
C84 N83 1.316 . S
C84 N86 1.347 . S
C84 H95 0.931 . S
C85 N83 1.375 1_455 S
C85 C87 1.350 . S
C85 H94 0.930 . S
N86 C84 1.347 . S
N86 C87 1.373 1_655 S
C87 C85 1.350 . S
C87 N86 1.373 1_455 S
C87 H101 0.931 . S
C88 O91 1.256 . S
C88 O92 1.255 . S
O89 Co72 2.021 1_565 S
O89 C82 1.257 1_554 S
O90 Co74 2.117 . S
O90 C82 1.258 . S
O91 Co74 2.020 1_545 S
O91 C88 1.256 . S
O92 Co72 2.062 1_556 S
O92 C88 1.255 . S
O93 C73 1.259 . S
O93 Co74 2.021 1_645 S
H94 C85 0.930 . S
H95 C84 0.931 . S
O96 Co72 2.117 1_656 S
O96 C73 1.258 . S
O97 Co72 2.020 1_565 S
O97 C99 1.256 1_455 S
O98 Co74 2.062 1_655 S
O98 C99 1.255 1_556 S
C99 O97 1.256 1_655 S
C99 O98 1.255 1_554 S
H100 C79 0.931 . S
H101 C87 0.931 . S
Co102 N107 2.057 1_545 S
Co102 O119 2.021 1_554 S
Co102 O122 2.065 1_554 S
Co102 O126 2.117 1_545 S
Co102 O127 2.020 . S
C103 O123 1.259 . S
C103 O126 1.258 1_556 S
Co104 N113 2.057 1_565 S
Co104 O120 2.117 1_565 S
Co104 O121 2.020 . S
Co104 O123 2.021 . S
Co104 O128 2.064 . S
C105 N107 1.316 1_545 S
C105 N108 1.347 . S
C105 H110 0.931 . S
C106 N107 1.375 . S
C106 C109 1.350 . S
C106 H111 0.930 . S
N107 Co102 2.057 1_565 S
N107 C105 1.316 1_565 S
N107 C106 1.375 . S
N108 C105 1.347 . S
N108 C109 1.373 1_545 S
C109 C106 1.350 . S
C109 N108 1.373 1_565 S
C109 H130 0.931 . S
H110 C105 0.931 . S
H111 C106 0.930 . S
C112 O119 1.259 . S
C112 O120 1.258 . S
N113 Co104 2.057 1_545 S
N113 C114 1.316 1_545 S
N113 C115 1.375 . S
C114 N113 1.316 1_565 S
C114 N116 1.347 . S
C114 H125 0.931 . S
C115 N113 1.375 . S
C115 C117 1.350 . S
C115 H124 0.930 . S
N116 C114 1.347 . S
N116 C117 1.373 1_565 S
C117 C115 1.350 . S
C117 N116 1.373 1_545 S
C117 H131 0.931 . S
C118 O121 1.256 . S
C118 O122 1.247 1_565 S
O119 Co102 2.021 1_556 S
O119 C112 1.259 . S
O120 Co104 2.117 1_545 S
O120 C112 1.258 . S
O121 Co104 2.020 . S
O121 C118 1.256 . S
O122 Co102 2.065 1_556 S
O122 C118 1.247 1_545 S
O123 C103 1.259 . S
O123 Co104 2.021 . S
H124 C115 0.930 . S
H125 C114 0.931 . S
O126 Co102 2.117 1_565 S
O126 C103 1.258 1_554 S
O127 Co102 2.020 . S
O127 C129 1.256 1_554 S
O128 Co104 2.064 . S
O128 C129 1.249 1_565 S
C129 O127 1.256 1_556 S
C129 O128 1.249 1_545 S
H130 C109 0.931 . S
H131 C117 0.931 . S
Co132 N137 2.057 . S
Co132 O149 2.021 . S
Co132 O152 2.062 . S
Co132 O156 2.117 1_556 S
Co132 O157 2.020 . S
C133 O153 1.259 . S
C133 O156 1.258 . S
Co134 N143 2.057 . S
Co134 O150 2.117 . S
Co134 O151 2.020 . S
Co134 O153 2.021 1_556 S
Co134 O158 2.062 . S
C135 N137 1.316 . S
C135 N138 1.347 1_556 S
C135 H140 0.931 . S
C136 N137 1.375 1_554 S
C136 C139 1.350 . S
C136 H141 0.930 . S
N137 Co132 2.057 . S
N137 C135 1.316 . S
N137 C136 1.375 1_556 S
N138 C135 1.347 1_554 S
N138 C139 1.373 . S
C139 C136 1.350 . S
C139 N138 1.373 . S
C139 H160 0.931 . S
H140 C135 0.931 . S
H141 C136 0.930 . S
C142 O149 1.259 . S
C142 O150 1.258 . S
N143 Co134 2.057 . S
N143 C144 1.316 . S
N143 C145 1.375 . S
C144 N143 1.316 . S
C144 N146 1.347 . S
C144 H155 0.931 . S
C145 N143 1.375 . S
C145 C147 1.350 . S
C145 H154 0.930 . S
N146 C144 1.347 . S
N146 C147 1.373 . S
C147 C145 1.350 . S
C147 N146 1.373 . S
C147 H161 0.931 . S
C148 O151 1.255 1_554 S
C148 O152 1.255 1_554 S
O149 Co132 2.021 . S
O149 C142 1.259 . S
O150 Co134 2.117 . S
O150 C142 1.258 . S
O151 Co134 2.020 . S
O151 C148 1.255 1_556 S
O152 Co132 2.062 . S
O152 C148 1.255 1_556 S
O153 C133 1.259 . S
O153 Co134 2.021 1_554 S
H154 C145 0.930 . S
H155 C144 0.931 . S
O156 Co132 2.117 1_554 S
O156 C133 1.258 . S
O157 Co132 2.020 . S
O157 C159 1.256 . S
O158 Co134 2.062 . S
O158 C159 1.255 . S
C159 O157 1.256 . S
C159 O158 1.255 . S
H160 C139 0.931 . S
H161 C147 0.931 . S
Co162 N167 2.057 . S
Co162 O179 2.021 1_455 S
Co162 O182 2.062 1_455 S
Co162 O186 2.117 1_556 S
Co162 O187 2.020 . S
C163 O183 1.259 . S
C163 O186 1.258 . S
Co164 N173 2.057 . S
Co164 O180 2.117 1_455 S
Co164 O181 2.020 1_456 S
Co164 O183 2.021 1_556 S
Co164 O188 2.062 . S
C165 N167 1.316 1_655 S
C165 N168 1.349 . S
C165 H170 0.931 . S
C166 N167 1.375 . S
C166 C169 1.350 . S
C166 H171 0.930 1_556 S
N167 Co162 2.057 . S
N167 C165 1.316 1_455 S
N167 C166 1.375 . S
N168 C165 1.349 . S
N168 C169 1.360 1_655 S
C169 C166 1.350 . S
C169 N168 1.360 1_455 S
C169 H190 0.931 1_556 S
H170 C165 0.931 . S
H171 C166 0.930 1_554 S
C172 O179 1.259 . S
C172 O180 1.258 . S
N173 Co164 2.057 . S
N173 C174 1.316 . S
N173 C175 1.375 1_455 S
C174 N173 1.316 . S
C174 N176 1.347 . S
C174 H185 0.931 1_556 S
C175 N173 1.375 1_655 S
C175 C177 1.350 . S
C175 H184 0.930 . S
N176 C174 1.347 . S
N176 C177 1.373 1_455 S
C177 C175 1.350 . S
C177 N176 1.373 1_655 S
C177 H191 0.931 . S
C178 O181 1.256 . S
C178 O182 1.255 1_554 S
O179 Co162 2.021 1_655 S
O179 C172 1.259 . S
O180 Co164 2.117 1_655 S
O180 C172 1.258 . S
O181 Co164 2.020 1_654 S
O181 C178 1.256 . S
O182 Co162 2.062 1_655 S
O182 C178 1.255 1_556 S
O183 C163 1.259 . S
O183 Co164 2.021 1_554 S
H184 C175 0.930 . S
H185 C174 0.931 1_554 S
O186 Co162 2.117 1_554 S
O186 C163 1.258 . S
O187 Co162 2.020 . S
O187 C189 1.256 . S
O188 Co164 2.062 . S
O188 C189 1.255 . S
C189 O187 1.256 . S
C189 O188 1.255 . S
H190 C169 0.931 1_554 S
H191 C177 0.931 . S
C61 C82 2.161 . S
C112 C70 2.010 . S
N146 C43 1.536 . S
N176 C52 2.218 . S
C73 C25 2.168 1_545 S
C34 C103 2.004 1_554 S
C7 N138 1.545 . S
C16 N168 2.256 . S
C88 C50 1.726 . S
C118 C59 1.310 . S
C159 C67 1.549 . S
C41 C189 0.990 . S
C14 C99 1.752 1_556 S
C129 C23 1.312 1_545 S
C148 C31 1.541 . S
C5 C178 1.016 . S
C49 N78 1.663 . S
C58 N108 1.618 1_565 S
C133 C68 1.929 . S
C163 C40 1.668 . S
C13 N86 1.673 . S
N116 C22 1.616 . S
C142 C32 1.929 . S
C4 C172 1.668 . S
