# Generated by pormake.
# Topology rtl, (3,6)-cn, num edge types: 1
# Building blocks:
#     Node 0, Type 0, BuildingBlock: ESEHIV_clean_linker_0, # of connection points: 3
#     Node 1, Type 0, BuildingBlock: ESEHIV_clean_linker_0, # of connection points: 3
#     Node 2, Type 0, BuildingBlock: ESEHIV_clean_linker_0, # of connection points: 3
#     Node 3, Type 0, BuildingBlock: ESEHIV_clean_linker_0, # of connection points: 3
#     Node 4, Type 1, BuildingBlock: FUNLAD_clean_sbu_0, # of connection points: 6
#     Node 5, Type 1, BuildingBlock: FUNLAD_clean_sbu_0, # of connection points: 6
#     Edge 6, Type (0, 1), BuildingBlock: AJUNOK_clean_linker_0, # of connection points: 2
#     Edge 7, Type (0, 1), BuildingBlock: AJUNOK_clean_linker_0, # of connection points: 2
#     Edge 8, Type (0, 1), BuildingBlock: AJUNOK_clean_linker_0, # of connection points: 2
#     Edge 9, Type (0, 1), BuildingBlock: AJUNOK_clean_linker_0, # of connection points: 2
#     Edge 10, Type (0, 1), BuildingBlock: AJUNOK_clean_linker_0, # of connection points: 2
#     Edge 11, Type (0, 1), BuildingBlock: AJUNOK_clean_linker_0, # of connection points: 2
#     Edge 12, Type (0, 1), BuildingBlock: AJUNOK_clean_linker_0, # of connection points: 2
#     Edge 13, Type (0, 1), BuildingBlock: AJUNOK_clean_linker_0, # of connection points: 2
#     Edge 14, Type (0, 1), BuildingBlock: AJUNOK_clean_linker_0, # of connection points: 2
#     Edge 15, Type (0, 1), BuildingBlock: AJUNOK_clean_linker_0, # of connection points: 2
#     Edge 16, Type (0, 1), BuildingBlock: AJUNOK_clean_linker_0, # of connection points: 2
#     Edge 17, Type (0, 1), BuildingBlock: AJUNOK_clean_linker_0, # of connection points: 2
# Relax obj value: 0.022
# Max RMSD: 0.128
# Mean RMSD: 0.102
data_MOF--net-rtl--node1-FUNLAD_clean_sbu_0--node2-ESEHIV_clean_linker_0--edge1-AJUNOK_clean_linker_0
_symmetry_space_group_name_H-M    P1
_symmetry_Int_Tables_number       1
_symmetry_cell_setting            triclinic
loop_
_symmetry_equiv_pos_as_xyz
'x, y, z'
_cell_length_a     29.774869
_cell_length_b     23.357238
_cell_length_c     15.564998
_cell_angle_alpha  89.964683
_cell_angle_beta   90.836289
_cell_angle_gamma 90.197632
loop_
_atom_site_label
_atom_site_type_symbol
_atom_site_fract_x
_atom_site_fract_y
_atom_site_fract_z
_atom_type_partial_charge
H0 H 0.05571 0.8532 0.00546 0.0
H1 H 0.15811 0.76268 0.14657 0.0
H2 H 0.15701 0.76109 0.8696 0.0
C3 C 0.08426 0.82448 0.00623 0.0
C4 C 0.10353 0.80804 0.92852 0.0
C5 C 0.10351 0.80781 0.08499 0.0
C6 C 0.14232 0.77386 0.08569 0.0
C7 C 0.1616 0.75606 0.00819 0.0
C8 C 0.14206 0.77368 0.92979 0.0
H9 H 0.55506 0.64813 0.50218 0.0
H10 H 0.65606 0.74143 0.36579 0.0
H11 H 0.6525 0.74877 0.6421 0.0
C12 C 0.58279 0.67838 0.5025 0.0
C13 C 0.6007 0.6979 0.58099 0.0
C14 C 0.60273 0.69374 0.42481 0.0
C15 C 0.64004 0.73058 0.42576 0.0
C16 C 0.65805 0.7511 0.50384 0.0
C17 C 0.63828 0.73429 0.58135 0.0
H18 H 0.94701 0.14897 0.0023 0.0
H19 H 0.84716 0.2439 0.13764 0.0
H20 H 0.84451 0.23962 0.86097 0.0
C21 C 0.91865 0.178 0.00142 0.0
C22 C 0.89944 0.19475 0.92254 0.0
C23 C 0.89932 0.1945 0.07906 0.0
C24 C 0.86151 0.23008 0.07752 0.0
C25 C 0.84107 0.24598 -0.00078 0.0
C26 C 0.86048 0.22853 0.92176 0.0
H27 H 0.44663 0.35396 0.49005 0.0
H28 H 0.34481 0.26508 0.63029 0.0
H29 H 0.34672 0.25494 0.3539 0.0
C30 C 0.41836 0.32454 0.49077 0.0
C31 C 0.39962 0.30507 0.41299 0.0
C32 C 0.39893 0.30988 0.56919 0.0
C33 C 0.36065 0.27484 0.56972 0.0
C34 C 0.34196 0.25394 0.49241 0.0
C35 C 0.36144 0.2697 0.41407 0.0
C36 C 0.03264 0.92825 0.37849 0.0
N37 N 0.09279 0.0676 0.5037 0.0
C38 C 0.13157 0.03711 0.49999 0.0
C39 C 0.17296 0.06522 0.49812 0.0
C40 C 0.17447 0.12525 0.50118 0.0
C41 C 0.13394 0.15563 0.50504 0.0
C42 C 0.09326 0.12581 0.50613 0.0
Zn43 Zn 0.03299 0.02496 0.5038 0.0
C44 C 0.96752 0.07237 0.37784 0.0
N45 N 0.90892 0.93398 0.50342 0.0
C46 C 0.90799 0.87579 0.50035 0.0
C47 C 0.87037 0.96498 0.50644 0.0
C48 C 0.82873 0.93748 0.5066 0.0
C49 C 0.82672 0.87751 0.50259 0.0
C50 C 0.86703 0.84655 0.49979 0.0
Zn51 Zn 0.96889 0.97624 0.50373 0.0
O52 O 0.05658 0.96896 0.40819 0.0
C53 C 0.03371 0.92862 0.63014 0.0
O54 O 0.99332 0.92076 0.40722 0.0
H55 H 0.87187 0.01121 0.50907 0.0
H56 H 0.13043 0.99085 0.49787 0.0
H57 H 0.93905 0.85202 0.49822 0.0
O58 O 0.0577 0.96906 0.60069 0.0
O59 O 0.99418 0.92128 0.60031 0.0
H60 H 0.06202 0.14918 0.50877 0.0
O61 O 0.94533 0.03229 0.59962 0.0
O62 O 0.00858 0.08045 0.60016 0.0
O63 O 0.94429 0.03155 0.40788 0.0
O64 O 0.00731 0.08023 0.40624 0.0
C65 C 0.96933 0.07301 0.62915 0.0
H66 H 0.20338 0.04023 0.49312 0.0
H67 H 0.13374 0.20197 0.50771 0.0
H68 H 0.79849 0.96288 0.51089 0.0
H69 H 0.86685 0.80023 0.4965 0.0
C70 C 0.46781 0.43217 0.86738 0.0
N71 N 0.59258 0.43299 0.99397 0.0
C72 C 0.59141 0.37498 0.9866 0.0
C73 C 0.6312 0.34367 0.98577 0.0
C74 C 0.67263 0.3722 0.99403 0.0
C75 C 0.67291 0.43215 0.00029 0.0
C76 C 0.63228 0.46188 -3e-05 0.0
Zn77 Zn 0.5334 0.47684 -0.0036 0.0
C78 C 0.53324 0.57567 0.8758 0.0
N79 N 0.40968 0.56829 0.0009 0.0
C80 C 0.37032 0.5386 -0.00409 0.0
C81 C 0.41017 0.62635 0.00787 0.0
C82 C 0.36995 0.65679 0.01074 0.0
C83 C 0.32883 0.62723 0.00618 0.0
C84 C 0.32933 0.56738 -0.00207 0.0
Zn85 Zn 0.46903 0.52475 -0.00164 0.0
O86 O 0.50729 0.42481 0.89705 0.0
C87 C 0.46892 0.42582 0.1187 0.0
O88 O 0.44364 0.47151 0.89865 0.0
H89 H 0.44183 0.64912 0.01145 0.0
H90 H 0.55953 0.35285 0.98152 0.0
H91 H 0.37068 0.49247 0.99012 0.0
O92 O 0.50828 0.41942 0.08984 0.0
O93 O 0.44485 0.46681 0.09079 0.0
H94 H 0.63246 0.50805 0.00514 0.0
O95 O 0.49564 0.57734 0.09862 0.0
O96 O 0.55876 0.52949 0.09505 0.0
O97 O 0.49396 0.58199 0.90505 0.0
O98 O 0.55754 0.53487 0.90373 0.0
C99 C 0.53543 0.56939 0.1268 0.0
H100 H 0.62953 0.2976 0.97847 0.0
H101 H 0.70417 0.45572 0.00672 0.0
H102 H 0.371 0.70294 0.0172 0.0
H103 H 0.29841 0.54307 0.99202 0.0
C104 C 0.26378 0.23352 0.43978 0.0
C105 C 0.30039 0.21881 0.49339 0.0
C106 C 0.22331 0.20291 0.44257 0.0
C107 C 0.21796 0.15632 0.49888 0.0
H108 H 0.26611 0.26971 0.39646 0.0
H109 H 0.196 0.21576 0.40011 0.0
S110 S 0.30395 0.09986 0.65138 0.0
N111 N 0.32923 0.15361 0.60266 0.0
N112 N 0.25269 0.097 0.60966 0.0
C113 C 0.25445 0.14081 0.55229 0.0
C114 C 0.29571 0.1719 0.54926 0.0
C115 C 0.2396 0.73874 0.95658 0.0
C116 C 0.20363 0.72199 0.00871 0.0
C117 C 0.27987 0.70793 0.95638 0.0
C118 C 0.28575 0.65906 0.00815 0.0
H119 H 0.23682 0.7764 0.91621 0.0
H120 H 0.30648 0.72225 0.9147 0.0
S121 S 0.20193 0.59733 0.15648 0.0
N122 N 0.17625 0.65292 0.11267 0.0
N123 N 0.25245 0.59589 0.11418 0.0
C124 C 0.25009 0.64185 0.06074 0.0
C125 C 0.209 0.67317 0.06075 0.0
C126 C 0.73588 0.77019 0.55918 0.0
C127 C 0.69984 0.78586 0.50476 0.0
C128 C 0.77665 0.8002 0.5582 0.0
C129 C 0.78291 0.8471 0.50288 0.0
H130 H 0.73291 0.73369 0.60173 0.0
H131 H 0.80347 0.78661 0.60129 0.0
S132 S 0.69878 0.90591 0.3486 0.0
N133 N 0.67256 0.85222 0.39564 0.0
N134 N 0.7497 0.90772 0.39199 0.0
C135 C 0.74703 0.86355 0.44859 0.0
C136 C 0.70543 0.83307 0.44981 0.0
C137 C 0.79212 0.32617 0.94619 0.0
C138 C 0.79789 0.27762 -0.00135 0.0
C139 C 0.75163 0.35673 0.94538 0.0
C140 C 0.71536 0.33959 -0.00347 0.0
H141 H 0.81924 0.34093 0.90607 0.0
H142 H 0.74854 0.3937 0.90368 0.0
S143 S 0.71324 0.21498 0.14451 0.0
N144 N 0.76352 0.21295 0.10138 0.0
N145 N 0.68817 0.27147 0.10214 0.0
C146 C 0.72074 0.29111 0.04926 0.0
C147 C 0.76181 0.25992 0.04981 0.0
C148 C 0.11377 0.86342 0.22056 0.0
C149 C 0.08551 0.83143 0.16567 0.0
C150 C 0.09645 0.89323 0.29063 0.0
C151 C 0.05025 0.89175 0.3089 0.0
H152 H 0.14924 0.86749 0.2071 0.0
H153 H 0.11941 0.91864 0.32964 0.0
S154 S 0.96288 0.80966 0.18835 0.0
N155 N 0.00983 0.79673 0.13671 0.0
N156 N 0.97703 0.85237 0.2689 0.0
C157 C 0.02196 0.85762 0.25665 0.0
C158 C 0.03963 0.82766 0.18482 0.0
C159 C 0.61258 0.64429 0.71768 0.0
C160 C 0.58338 0.67424 0.66218 0.0
C161 C 0.59615 0.61405 0.78831 0.0
C162 C 0.54997 0.61316 0.8065 0.0
H163 H 0.64813 0.64207 0.7042 0.0
H164 H 0.61977 0.59007 0.8277 0.0
S165 S 0.46028 0.68943 0.6844 0.0
N166 N 0.50682 0.70453 0.63244 0.0
N167 N 0.47566 0.64823 0.76584 0.0
C168 C 0.52071 0.64541 0.75371 0.0
C169 C 0.53748 0.67571 0.68126 0.0
C170 C 0.96149 0.16974 0.18265 0.0
C171 C 0.91552 0.16873 0.16071 0.0
C172 C 0.9779 0.14035 0.25512 0.0
C173 C 0.94896 0.10819 0.30737 0.0
H174 H 0.98501 0.1926 0.14259 0.0
H175 H 0.0137 0.14125 0.26844 0.0
S176 S 0.82536 0.09347 0.27852 0.0
N177 N 0.84116 0.13422 0.19769 0.0
N178 N 0.87168 0.07938 0.33397 0.0
C179 C 0.90268 0.10825 0.28728 0.0
C180 C 0.88604 0.13841 0.21394 0.0
C181 C 0.3879 0.3685 0.70097 0.0
C182 C 0.41646 0.33576 0.64958 0.0
C183 C 0.40469 0.39866 0.77227 0.0
C184 C 0.45059 0.39672 0.79518 0.0
H185 H 0.3526 0.37244 0.68419 0.0
H186 H 0.38156 0.42437 0.80886 0.0
S187 S 0.53852 0.31333 0.684 0.0
N188 N 0.49203 0.30045 0.6281 0.0
N189 N 0.5239 0.35668 0.76246 0.0
C190 C 0.47919 0.3623 0.7458 0.0
C191 C 0.46205 0.33201 0.67282 0.0
C192 C 0.54121 0.66774 0.32073 0.0
C193 C 0.58698 0.66646 0.344 0.0
C194 C 0.525 0.63771 0.24869 0.0
C195 C 0.55393 0.60464 0.19813 0.0
H196 H 0.51768 0.6915 0.35927 0.0
H197 H 0.48934 0.63916 0.23412 0.0
S198 S 0.67707 0.58848 0.23154 0.0
N199 N 0.66118 0.63053 0.31059 0.0
N200 N 0.63104 0.57425 0.17508 0.0
C201 C 0.60003 0.60412 0.21987 0.0
C202 C 0.61649 0.63501 0.29281 0.0
C203 C 0.88874 0.13819 0.78793 0.0
C204 C 0.91715 0.17064 0.84193 0.0
C205 C 0.90581 0.10805 0.71792 0.0
C206 C 0.95191 0.10964 0.69882 0.0
H207 H 0.85334 0.13407 0.80202 0.0
H208 H 0.88275 0.08233 0.6796 0.0
S209 S 0.03959 0.19274 0.81699 0.0
N210 N 0.99286 0.20573 0.86928 0.0
N211 N 0.02519 0.14955 0.73718 0.0
C212 C 0.98034 0.14415 0.75026 0.0
C213 C 0.96292 0.17443 0.82203 0.0
C214 C 0.38845 0.35787 0.27539 0.0
C215 C 0.4172 0.3275 0.33119 0.0
C216 C 0.40538 0.38789 0.205 0.0
C217 C 0.45165 0.38816 0.18735 0.0
H218 H 0.3529 0.36081 0.28865 0.0
H219 H 0.38211 0.41233 0.1655 0.0
S220 S 0.54019 0.3101 0.30984 0.0
N221 N 0.49337 0.29575 0.36133 0.0
N222 N 0.52546 0.35168 0.2284 0.0
C223 C 0.48041 0.35525 0.24015 0.0
C224 C 0.46313 0.32514 0.31234 0.0
C225 C 0.11432 0.86402 0.79396 0.0
C226 C 0.08582 0.83199 0.84687 0.0
C227 C 0.09729 0.89388 0.72263 0.0
C228 C 0.05119 0.89235 0.70114 0.0
H229 H 0.14974 0.86799 0.80987 0.0
H230 H 0.12038 0.91931 0.68517 0.0
S231 S 0.96333 0.81025 0.81584 0.0
N232 N 0.01007 0.79732 0.87072 0.0
N233 N 0.97779 0.85296 0.73624 0.0
C234 C 0.02268 0.85824 0.75157 0.0
C235 C 0.04005 0.82828 0.82464 0.0
loop_
_geom_bond_atom_site_label_1
_geom_bond_atom_site_label_2
_geom_bond_distance
_geom_bond_site_symmetry_2
_ccdc_geom_bond_type
H0 C3 0.931 . S
H1 C6 0.928 . S
H2 C8 0.930 . S
C3 H0 0.931 . S
C3 C4 1.413 1_554 S
C3 C5 1.360 . S
C4 C3 1.413 1_556 S
C4 C8 1.429 . S
C5 C3 1.360 . S
C5 C6 1.372 . S
C6 H1 0.928 . S
C6 C5 1.372 . S
C6 C7 1.404 . S
C7 C6 1.404 . S
C7 C8 1.391 1_554 S
C8 H2 0.930 . S
C8 C4 1.429 . S
C8 C7 1.391 1_556 S
H9 C12 0.931 . S
H10 C15 0.928 . S
H11 C17 0.930 . S
C12 H9 0.931 . S
C12 C13 1.413 . S
C12 C14 1.360 . S
C13 C12 1.413 . S
C13 C17 1.429 . S
C14 C12 1.360 . S
C14 C15 1.372 . S
C15 H10 0.928 . S
C15 C14 1.372 . S
C15 C16 1.404 . S
C16 C15 1.404 . S
C16 C17 1.391 . S
C17 H11 0.930 . S
C17 C13 1.429 . S
C17 C16 1.391 . S
H18 C21 0.931 . S
H19 C24 0.928 . S
H20 C26 0.930 . S
C21 H18 0.931 . S
C21 C22 1.413 1_554 S
C21 C23 1.360 . S
C22 C21 1.413 1_556 S
C22 C26 1.429 . S
C23 C21 1.360 . S
C23 C24 1.372 . S
C24 H19 0.928 . S
C24 C23 1.372 . S
C24 C25 1.404 . S
C25 C24 1.404 . S
C25 C26 1.391 1_554 S
C26 H20 0.930 . S
C26 C22 1.429 . S
C26 C25 1.391 1_556 S
H27 C30 0.931 . S
H28 C33 0.928 . S
H29 C35 0.930 . S
C30 H27 0.931 . S
C30 C31 1.413 . S
C30 C32 1.360 . S
C31 C30 1.413 . S
C31 C35 1.429 . S
C32 C30 1.360 . S
C32 C33 1.372 . S
C33 H28 0.928 . S
C33 C32 1.372 . S
C33 C34 1.404 . S
C34 C33 1.404 . S
C34 C35 1.391 . S
C35 H29 0.930 . S
C35 C31 1.429 . S
C35 C34 1.391 . S
C36 O52 1.251 . S
C36 O54 1.254 1_455 S
N37 C38 1.333 . S
N37 C42 1.307 . S
N37 Zn43 2.020 . S
C38 N37 1.333 . S
C38 C39 1.379 . S
C38 H56 0.952 . S
C39 C38 1.379 . S
C39 C40 1.390 . S
C39 H66 0.949 . S
C40 C39 1.390 . S
C40 C41 1.357 . S
C41 C40 1.357 . S
C41 C42 1.370 . S
C41 H67 0.950 . S
C42 N37 1.307 . S
C42 C41 1.370 . S
C42 H60 0.948 . S
Zn43 N37 2.020 . S
Zn43 O52 2.039 1_545 S
Zn43 O58 2.034 1_545 S
Zn43 O62 2.025 . S
Zn43 O64 2.024 . S
C44 O63 1.246 . S
C44 O64 1.249 1_655 S
N45 C46 1.307 . S
N45 C47 1.333 . S
N45 Zn51 2.020 . S
C46 N45 1.307 . S
C46 C50 1.370 . S
C46 H57 0.948 . S
C47 N45 1.333 . S
C47 C48 1.379 . S
C47 H55 0.952 . S
C48 C47 1.379 . S
C48 C49 1.390 . S
C48 H68 0.949 . S
C49 C48 1.390 . S
C49 C50 1.357 . S
C50 C46 1.370 . S
C50 C49 1.357 . S
C50 H69 0.950 . S
Zn51 N45 2.020 . S
Zn51 O54 2.025 . S
Zn51 O59 2.024 . S
Zn51 O61 2.039 1_565 S
Zn51 O63 2.034 1_565 S
O52 C36 1.251 . S
O52 Zn43 2.039 1_565 S
C53 O58 1.246 . S
C53 O59 1.249 1_455 S
O54 C36 1.254 1_655 S
O54 Zn51 2.025 . S
H55 C47 0.952 . S
H56 C38 0.952 . S
H57 C46 0.948 . S
O58 Zn43 2.034 1_565 S
O58 C53 1.246 . S
O59 Zn51 2.024 . S
O59 C53 1.249 1_655 S
H60 C42 0.948 . S
O61 Zn51 2.039 1_545 S
O61 C65 1.251 . S
O62 Zn43 2.025 . S
O62 C65 1.254 1_455 S
O63 C44 1.246 . S
O63 Zn51 2.034 1_545 S
O64 Zn43 2.024 . S
O64 C44 1.249 1_455 S
C65 O61 1.251 . S
C65 O62 1.254 1_655 S
H66 C39 0.949 . S
H67 C41 0.950 . S
H68 C48 0.949 . S
H69 C50 0.950 . S
C70 O86 1.251 . S
C70 O88 1.254 . S
N71 C72 1.333 1_554 S
N71 C76 1.307 . S
N71 Zn77 2.020 . S
C72 N71 1.333 1_556 S
C72 C73 1.379 . S
C72 H90 0.952 . S
C73 C72 1.379 . S
C73 C74 1.390 1_556 S
C73 H100 0.949 . S
C74 C73 1.390 1_554 S
C74 C75 1.357 . S
C75 C74 1.357 . S
C75 C76 1.370 . S
C75 H101 0.950 . S
C76 N71 1.307 . S
C76 C75 1.370 . S
C76 H94 0.948 . S
Zn77 N71 2.020 . S
Zn77 O86 2.039 1_554 S
Zn77 O92 2.034 . S
Zn77 O96 2.025 . S
Zn77 O98 2.024 1_554 S
C78 O97 1.246 . S
C78 O98 1.249 . S
N79 C80 1.307 1_554 S
N79 C81 1.333 . S
N79 Zn85 2.020 . S
C80 N79 1.307 1_556 S
C80 C84 1.370 . S
C80 H91 0.948 . S
C81 N79 1.333 . S
C81 C82 1.379 . S
C81 H89 0.952 . S
C82 C81 1.379 . S
C82 C83 1.390 . S
C82 H102 0.949 . S
C83 C82 1.390 . S
C83 C84 1.357 1_554 S
C84 C80 1.370 . S
C84 C83 1.357 1_556 S
C84 H103 0.950 . S
Zn85 N79 2.020 . S
Zn85 O88 2.025 1_554 S
Zn85 O93 2.024 . S
Zn85 O95 2.039 . S
Zn85 O97 2.034 1_554 S
O86 C70 1.251 . S
O86 Zn77 2.039 1_556 S
C87 O92 1.246 . S
C87 O93 1.249 . S
O88 C70 1.254 . S
O88 Zn85 2.025 1_556 S
H89 C81 0.952 . S
H90 C72 0.952 . S
H91 C80 0.948 . S
O92 Zn77 2.034 . S
O92 C87 1.246 . S
O93 Zn85 2.024 . S
O93 C87 1.249 . S
H94 C76 0.948 . S
O95 Zn85 2.039 . S
O95 C99 1.251 . S
O96 Zn77 2.025 . S
O96 C99 1.254 . S
O97 C78 1.246 . S
O97 Zn85 2.034 1_556 S
O98 Zn77 2.024 1_556 S
O98 C78 1.249 . S
C99 O95 1.251 . S
C99 O96 1.254 . S
H100 C73 0.949 . S
H101 C75 0.950 . S
H102 C82 0.949 . S
H103 C84 0.950 . S
C104 C105 1.369 . S
C104 C106 1.419 . S
C104 H108 0.930 . S
C105 C104 1.369 . S
C105 C114 1.429 . S
C106 C104 1.419 . S
C106 C107 1.363 . S
C106 H109 0.929 . S
C107 C106 1.363 . S
C107 C113 1.428 . S
H108 C104 0.930 . S
H109 C106 0.929 . S
S110 N111 1.613 . S
S110 N112 1.610 . S
N111 S110 1.613 . S
N111 C114 1.350 . S
N112 S110 1.610 . S
N112 C113 1.351 . S
C113 C107 1.428 . S
C113 N112 1.351 . S
C113 C114 1.434 . S
C114 C105 1.429 . S
C114 N111 1.350 . S
C114 C113 1.434 . S
C115 C116 1.369 . S
C115 C117 1.419 . S
C115 H119 0.929 1_554 S
C116 C115 1.369 . S
C116 C125 1.429 . S
C117 C115 1.419 . S
C117 C118 1.363 . S
C117 H120 0.929 . S
C118 C117 1.363 . S
C118 C124 1.428 . S
H119 C115 0.929 1_556 S
H120 C117 0.929 . S
S121 N122 1.613 . S
S121 N123 1.610 . S
N122 S121 1.613 . S
N122 C125 1.350 . S
N123 S121 1.610 . S
N123 C124 1.351 . S
C124 C118 1.428 . S
C124 N123 1.351 . S
C124 C125 1.434 . S
C125 C116 1.429 . S
C125 N122 1.350 . S
C125 C124 1.434 . S
C126 C127 1.369 . S
C126 C128 1.419 . S
C126 H130 0.930 . S
C127 C126 1.369 . S
C127 C136 1.429 . S
C128 C126 1.419 . S
C128 C129 1.363 . S
C128 H131 0.929 . S
C129 C128 1.363 . S
C129 C135 1.428 . S
H130 C126 0.930 . S
H131 C128 0.929 . S
S132 N133 1.613 . S
S132 N134 1.610 . S
N133 S132 1.613 . S
N133 C136 1.350 . S
N134 S132 1.610 . S
N134 C135 1.351 . S
C135 C129 1.428 . S
C135 N134 1.351 . S
C135 C136 1.434 . S
C136 C127 1.429 . S
C136 N133 1.350 . S
C136 C135 1.434 . S
C137 C138 1.369 1_556 S
C137 C139 1.419 . S
C137 H141 0.930 . S
C138 C137 1.369 1_554 S
C138 C147 1.429 . S
C139 C137 1.419 . S
C139 C140 1.363 1_556 S
C139 H142 0.929 . S
C140 C139 1.363 1_554 S
C140 C146 1.428 . S
H141 C137 0.930 . S
H142 C139 0.929 . S
S143 N144 1.613 . S
S143 N145 1.610 . S
N144 S143 1.613 . S
N144 C147 1.350 . S
N145 S143 1.610 . S
N145 C146 1.351 . S
C146 C140 1.428 . S
C146 N145 1.351 . S
C146 C147 1.434 . S
C147 C138 1.429 . S
C147 N144 1.350 . S
C147 C146 1.434 . S
C148 C149 1.369 . S
C148 C150 1.419 . S
C148 H152 0.930 . S
C149 C148 1.369 . S
C149 C158 1.429 . S
C150 C148 1.419 . S
C150 C151 1.363 . S
C150 H153 0.929 . S
C151 C150 1.363 . S
C151 C157 1.428 . S
H152 C148 0.930 . S
H153 C150 0.929 . S
S154 N155 1.613 1_655 S
S154 N156 1.610 . S
N155 S154 1.613 1_455 S
N155 C158 1.350 . S
N156 S154 1.610 . S
N156 C157 1.351 1_655 S
C157 C151 1.428 . S
C157 N156 1.351 1_455 S
C157 C158 1.434 . S
C158 C149 1.429 . S
C158 N155 1.350 . S
C158 C157 1.434 . S
C159 C160 1.369 . S
C159 C161 1.419 . S
C159 H163 0.930 . S
C160 C159 1.369 . S
C160 C169 1.429 . S
C161 C159 1.419 . S
C161 C162 1.363 . S
C161 H164 0.929 . S
C162 C161 1.363 . S
C162 C168 1.428 . S
H163 C159 0.930 . S
H164 C161 0.929 . S
S165 N166 1.613 . S
S165 N167 1.610 . S
N166 S165 1.613 . S
N166 C169 1.350 . S
N167 S165 1.610 . S
N167 C168 1.351 . S
C168 C162 1.428 . S
C168 N167 1.351 . S
C168 C169 1.434 . S
C169 C160 1.429 . S
C169 N166 1.350 . S
C169 C168 1.434 . S
C170 C171 1.369 . S
C170 C172 1.419 . S
C170 H174 0.930 . S
C171 C170 1.369 . S
C171 C180 1.429 . S
C172 C170 1.419 . S
C172 C173 1.363 . S
C172 H175 0.929 . S
C173 C172 1.363 . S
C173 C179 1.428 . S
H174 C170 0.930 . S
H175 C172 0.929 . S
S176 N177 1.613 . S
S176 N178 1.610 . S
N177 S176 1.613 . S
N177 C180 1.350 . S
N178 S176 1.610 . S
N178 C179 1.351 . S
C179 C173 1.428 . S
C179 N178 1.351 . S
C179 C180 1.434 . S
C180 C171 1.429 . S
C180 N177 1.350 . S
C180 C179 1.434 . S
C181 C182 1.369 . S
C181 C183 1.419 . S
C181 H185 0.930 . S
C182 C181 1.369 . S
C182 C191 1.429 . S
C183 C181 1.419 . S
C183 C184 1.363 . S
C183 H186 0.929 . S
C184 C183 1.363 . S
C184 C190 1.428 . S
H185 C181 0.930 . S
H186 C183 0.929 . S
S187 N188 1.613 . S
S187 N189 1.610 . S
N188 S187 1.613 . S
N188 C191 1.350 . S
N189 S187 1.610 . S
N189 C190 1.351 . S
C190 C184 1.428 . S
C190 N189 1.351 . S
C190 C191 1.434 . S
C191 C182 1.429 . S
C191 N188 1.350 . S
C191 C190 1.434 . S
C192 C193 1.369 . S
C192 C194 1.419 . S
C192 H196 0.930 . S
C193 C192 1.369 . S
C193 C202 1.429 . S
C194 C192 1.419 . S
C194 C195 1.363 . S
C194 H197 0.929 . S
C195 C194 1.363 . S
C195 C201 1.428 . S
H196 C192 0.930 . S
H197 C194 0.929 . S
S198 N199 1.613 . S
S198 N200 1.610 . S
N199 S198 1.613 . S
N199 C202 1.350 . S
N200 S198 1.610 . S
N200 C201 1.351 . S
C201 C195 1.428 . S
C201 N200 1.351 . S
C201 C202 1.434 . S
C202 C193 1.429 . S
C202 N199 1.350 . S
C202 C201 1.434 . S
C203 C204 1.369 . S
C203 C205 1.419 . S
C203 H207 0.930 . S
C204 C203 1.369 . S
C204 C213 1.429 . S
C205 C203 1.419 . S
C205 C206 1.363 . S
C205 H208 0.929 . S
C206 C205 1.363 . S
C206 C212 1.428 . S
H207 C203 0.930 . S
H208 C205 0.929 . S
S209 N210 1.613 . S
S209 N211 1.610 . S
N210 S209 1.613 . S
N210 C213 1.350 . S
N211 S209 1.610 . S
N211 C212 1.351 . S
C212 C206 1.428 . S
C212 N211 1.351 . S
C212 C213 1.434 . S
C213 C204 1.429 . S
C213 N210 1.350 . S
C213 C212 1.434 . S
C214 C215 1.369 . S
C214 C216 1.419 . S
C214 H218 0.930 . S
C215 C214 1.369 . S
C215 C224 1.429 . S
C216 C214 1.419 . S
C216 C217 1.363 . S
C216 H219 0.929 . S
C217 C216 1.363 . S
C217 C223 1.428 . S
H218 C214 0.930 . S
H219 C216 0.929 . S
S220 N221 1.613 . S
S220 N222 1.610 . S
N221 S220 1.613 . S
N221 C224 1.350 . S
N222 S220 1.610 . S
N222 C223 1.351 . S
C223 C217 1.428 . S
C223 N222 1.351 . S
C223 C224 1.434 . S
C224 C215 1.429 . S
C224 N221 1.350 . S
C224 C223 1.434 . S
C225 C226 1.369 . S
C225 C227 1.419 . S
C225 H229 0.930 . S
C226 C225 1.369 . S
C226 C235 1.429 . S
C227 C225 1.419 . S
C227 C228 1.363 . S
C227 H230 0.929 . S
C228 C227 1.363 . S
C228 C234 1.428 . S
H229 C225 0.930 . S
H230 C227 0.929 . S
S231 N232 1.613 . S
S231 N233 1.610 . S
N232 S231 1.613 . S
N232 C235 1.350 1_655 S
N233 S231 1.610 . S
N233 C234 1.351 1_655 S
C234 C228 1.428 . S
C234 N233 1.351 1_455 S
C234 C235 1.434 . S
C235 C226 1.429 . S
C235 N232 1.350 1_455 S
C235 C234 1.434 . S
C107 C40 1.537 . S
C105 C34 1.526 . S
C116 C7 1.504 . S
C118 C83 1.510 . S
C127 C16 1.520 . S
C129 C49 1.537 . S
C138 C25 1.500 . S
C140 C74 1.511 . S
C151 C36 1.532 . S
C149 C5 1.512 . S
C162 C78 1.577 . S
C160 C13 1.548 . S
C171 C23 1.505 . S
C173 C44 1.530 . S
C182 C32 1.550 . S
C184 C70 1.575 . S
C195 C99 1.574 . S
C193 C14 1.536 . S
C206 C65 1.531 . S
C204 C22 1.511 . S
C217 C87 1.575 . S
C215 C31 1.551 . S
C226 C4 1.510 . S
C228 C53 1.526 . S
