# Generated by pormake.
# Topology hwx, (6,3)-cn, num edge types: 1
# Building blocks:
#     Node 0, Type 0, BuildingBlock: IZENUY_clean_sbu_0, # of connection points: 6
#     Node 1, Type 0, BuildingBlock: IZENUY_clean_sbu_0, # of connection points: 6
#     Node 2, Type 0, BuildingBlock: IZENUY_clean_sbu_0, # of connection points: 6
#     Node 3, Type 0, BuildingBlock: IZENUY_clean_sbu_0, # of connection points: 6
#     Node 4, Type 1, BuildingBlock: PAMTOO_clean_linker_0, # of connection points: 3
#     Node 5, Type 1, BuildingBlock: PAMTOO_clean_linker_0, # of connection points: 3
#     Node 6, Type 1, BuildingBlock: PAMTOO_clean_linker_0, # of connection points: 3
#     Node 7, Type 1, BuildingBlock: PAMTOO_clean_linker_0, # of connection points: 3
#     Node 8, Type 1, BuildingBlock: PAMTOO_clean_linker_0, # of connection points: 3
#     Node 9, Type 1, BuildingBlock: PAMTOO_clean_linker_0, # of connection points: 3
#     Node 10, Type 1, BuildingBlock: PAMTOO_clean_linker_0, # of connection points: 3
#     Node 11, Type 1, BuildingBlock: PAMTOO_clean_linker_0, # of connection points: 3
#     Edge 12, Type (0, 1), None
#     Edge 13, Type (0, 1), None
#     Edge 14, Type (0, 1), None
#     Edge 15, Type (0, 1), None
#     Edge 16, Type (0, 1), None
#     Edge 17, Type (0, 1), None
#     Edge 18, Type (0, 1), None
#     Edge 19, Type (0, 1), None
#     Edge 20, Type (0, 1), None
#     Edge 21, Type (0, 1), None
#     Edge 22, Type (0, 1), None
#     Edge 23, Type (0, 1), None
#     Edge 24, Type (0, 1), None
#     Edge 25, Type (0, 1), None
#     Edge 26, Type (0, 1), None
#     Edge 27, Type (0, 1), None
#     Edge 28, Type (0, 1), None
#     Edge 29, Type (0, 1), None
#     Edge 30, Type (0, 1), None
#     Edge 31, Type (0, 1), None
#     Edge 32, Type (0, 1), None
#     Edge 33, Type (0, 1), None
#     Edge 34, Type (0, 1), None
#     Edge 35, Type (0, 1), None
# Relax obj value: 0.004
# Max RMSD: 0.044
# Mean RMSD: 0.042
data_MOF--net-hwx--node1-IZENUY_clean_sbu_0--node2-PAMTOO_clean_linker_0--edge1-none
_symmetry_space_group_name_H-M    P1
_symmetry_Int_Tables_number       1
_symmetry_cell_setting            triclinic
loop_
_symmetry_equiv_pos_as_xyz
'x, y, z'
_cell_length_a     22.774596
_cell_length_b     22.774385
_cell_length_c     9.084169
_cell_angle_alpha  88.851003
_cell_angle_beta   91.181858
_cell_angle_gamma 89.900754
loop_
_atom_site_label
_atom_site_type_symbol
_atom_site_fract_x
_atom_site_fract_y
_atom_site_fract_z
_atom_type_partial_charge
Fe0 Fe 0.29001 0.30888 0.17758 0.0
Fe1 Fe 0.30239 0.2965 0.84507 0.0
O2 O 0.26853 0.27495 0.01131 0.0
Fe3 Fe 0.21304 0.21935 0.01127 0.0
O4 O 0.17226 0.24959 0.16422 0.0
O5 O 0.21535 0.33356 0.20889 0.0
O6 O 0.30467 0.38121 0.09601 0.0
C7 C 0.28977 0.40399 0.97328 0.0
C8 C 0.27624 0.18921 0.26369 0.0
O9 O 0.27962 0.37268 0.86261 0.0
C10 C 0.29281 0.17894 0.79763 0.0
O11 O 0.36623 0.28632 0.16 0.0
O12 O 0.37474 0.31137 0.92656 0.0
O13 O 0.25623 0.1719 0.14045 0.0
O14 O 0.27959 0.24335 0.28952 0.0
C15 C 0.18275 0.2825 0.75889 0.0
O16 O 0.32725 0.22191 0.81375 0.0
O17 O 0.24337 0.17864 0.85831 0.0
C18 C 0.39754 0.2972 0.04979 0.0
O19 O 0.23689 0.2859 0.73311 0.0
O20 O 0.16549 0.26245 0.88208 0.0
C21 C 0.17245 0.29904 0.22491 0.0
Fe22 Fe 0.24735 0.79484 0.67969 0.0
Fe23 Fe 0.31917 0.70087 0.52145 0.0
O24 O 0.27586 0.76646 0.51569 0.0
Fe25 Fe 0.26182 0.80443 0.34702 0.0
O26 O 0.26254 0.87822 0.42369 0.0
O27 O 0.28736 0.86324 0.65624 0.0
O28 O 0.3081 0.76927 0.79409 0.0
C29 C 0.36065 0.75592 0.7697 0.0
C30 C 0.15451 0.81479 0.47574 0.0
O31 O 0.37406 0.73336 0.64835 0.0
C32 C 0.25288 0.6841 0.2685 0.0
O33 O 0.20651 0.72774 0.71603 0.0
O34 O 0.27978 0.66749 0.67641 0.0
O35 O 0.18266 0.79773 0.36624 0.0
O36 O 0.18049 0.82613 0.59555 0.0
C37 C 0.37554 0.77116 0.30376 0.0
O38 O 0.26838 0.66311 0.39401 0.0
O39 O 0.25878 0.73822 0.23949 0.0
C40 C 0.23114 0.6783 0.7359 0.0
O41 O 0.36583 0.72241 0.36749 0.0
O42 O 0.33994 0.81334 0.31559 0.0
C43 C 0.28504 0.89599 0.54274 0.0
Fe44 Fe 0.748 0.76768 0.84434 0.0
Fe45 Fe 0.76084 0.75487 0.17753 0.0
O46 O 0.7823 0.78916 0.01096 0.0
Fe47 Fe 0.8376 0.84449 0.01102 0.0
O48 O 0.80536 0.88583 0.85297 0.0
O49 O 0.72142 0.84175 0.80677 0.0
O50 O 0.67627 0.75126 0.92347 0.0
C51 C 0.65428 0.77161 0.0382 0.0
C52 C 0.86685 0.78361 0.76387 0.0
O53 O 0.68583 0.78064 0.15098 0.0
C54 C 0.87838 0.7621 0.23228 0.0
O55 O 0.77381 0.69268 0.87088 0.0
O56 O 0.74443 0.68313 0.09833 0.0
O57 O 0.88464 0.80225 0.8877 0.0
O58 O 0.81253 0.78024 0.73484 0.0
C59 C 0.7767 0.87372 0.25811 0.0
O60 O 0.83493 0.72831 0.2151 0.0
O61 O 0.87896 0.81227 0.16907 0.0
C62 C 0.76479 0.66114 0.98362 0.0
O63 O 0.77339 0.8194 0.2871 0.0
O64 O 0.79534 0.89151 0.13433 0.0
C65 C 0.75518 0.88522 0.78968 0.0
Fe66 Fe 0.69439 0.32604 0.5005 0.0
Fe67 Fe 0.79789 0.26864 0.6751 0.0
O68 O 0.75996 0.28269 0.50635 0.0
Fe69 Fe 0.78833 0.25415 0.3424 0.0
O70 O 0.76285 0.31492 0.228 0.0
O71 O 0.72693 0.3809 0.37373 0.0
O72 O 0.71595 0.3727 0.65456 0.0
C73 C 0.76471 0.38237 0.7184 0.0
C74 C 0.67178 0.23801 0.2859 0.0
O75 O 0.80687 0.34675 0.70657 0.0
C76 C 0.80817 0.16131 0.54635 0.0
O77 O 0.65658 0.27528 0.62783 0.0
O78 O 0.73167 0.26568 0.78249 0.0
O79 O 0.7212 0.21337 0.30582 0.0
O80 O 0.66099 0.28666 0.34544 0.0
C81 C 0.88951 0.29171 0.47961 0.0
O82 O 0.79111 0.18948 0.65582 0.0
O83 O 0.81953 0.18726 0.42657 0.0
C84 C 0.67755 0.2598 0.75338 0.0
O85 O 0.87169 0.26927 0.59861 0.0
O86 O 0.85678 0.29408 0.36605 0.0
C87 C 0.7495 0.36748 0.25242 0.0
H88 H 0.21966 0.7228 -0.00066 0.0
H89 H 0.22253 0.55972 0.77555 0.0
H90 H 0.25392 0.56147 0.24431 0.0
H91 H 0.33131 0.48585 0.01856 0.0
C92 C 0.29242 0.4694 0.95573 0.0
O93 O 0.24214 0.49443 0.00998 0.0
H94 H 0.29657 0.48136 0.83704 0.0
C95 C 0.22211 0.67527 0.00543 0.0
C96 C 0.23632 0.64653 0.1409 0.0
C97 C 0.21941 0.6449 0.87311 0.0
C98 C 0.22356 0.58369 0.87745 0.0
C99 C 0.23466 0.55343 0.01128 0.0
C100 C 0.24206 0.58484 0.143 0.0
H101 H 0.83268 0.75428 0.49264 0.0
H102 H 0.99773 0.76146 0.27958 0.0
H103 H 0.99036 0.79028 0.74688 0.0
H104 H 0.07845 0.86513 0.52732 0.0
C105 C 0.08985 0.82583 0.46282 0.0
O106 O 0.06046 0.77763 0.51902 0.0
H107 H 0.07724 0.83322 0.3449 0.0
C108 C 0.87995 0.75895 0.50181 0.0
C109 C 0.90668 0.77297 0.63805 0.0
C110 C 0.91175 0.7568 0.37234 0.0
C111 C 0.97263 0.7629 0.37951 0.0
C112 C 1.0012 0.7735 0.51484 0.0
C113 C 0.96821 0.77998 0.64399 0.0
H114 H 0.77631 0.33745 0.98062 0.0
H115 H 0.73207 0.49017 0.22938 0.0
H116 H 0.74425 0.50086 0.75576 0.0
H117 H 0.8067 0.58822 0.88457 0.0
C118 C 0.78213 0.59777 0.98613 0.0
O119 O 0.73349 0.56188 0.99518 0.0
H120 H 0.8119 0.5894 0.08298 0.0
C121 C 0.76605 0.3838 0.98681 0.0
C122 C 0.76241 0.41588 0.85491 0.0
C123 C 0.75223 0.40852 0.12267 0.0
C124 C 0.74042 0.46917 0.12593 0.0
C125 C 0.73976 0.50283 0.99328 0.0
C126 C 0.74772 0.4754 0.85764 0.0
H127 H 0.21516 0.31683 0.48959 0.0
H128 H 0.06017 0.27043 0.73152 0.0
H129 H 0.05378 0.28414 0.25795 0.0
H130 H 0.9574 0.33819 0.36687 0.0
C131 C 0.95071 0.31526 0.47458 0.0
O132 O 0.99095 0.2702 0.49345 0.0
H133 H 0.9566 0.34756 0.56396 0.0
C134 C 0.16852 0.30759 0.49348 0.0
C135 C 0.13774 0.30334 0.3596 0.0
C136 C 0.14255 0.29237 0.62873 0.0
C137 C 0.08181 0.28098 0.62931 0.0
C138 C 0.04937 0.28076 0.4951 0.0
C139 C 0.07805 0.28908 0.36083 0.0
H140 H 0.74731 0.83955 0.52922 0.0
H141 H 0.75466 1.00458 0.74258 0.0
H142 H 0.78342 0.99721 0.2753 0.0
H143 H 0.85836 0.08516 0.49467 0.0
C144 C 0.81913 0.09663 0.55927 0.0
O145 O 0.77084 0.0673 0.50323 0.0
H146 H 0.82657 0.08405 0.67718 0.0
C147 C 0.75202 0.88682 0.52014 0.0
C148 C 0.76606 0.91353 0.38398 0.0
C149 C 0.74991 0.91861 0.64967 0.0
C150 C 0.75606 0.97948 0.64261 0.0
C151 C 0.76666 1.00805 0.50733 0.0
C152 C 0.7731 0.97506 0.37813 0.0
H153 H 0.71625 0.22655 0.02249 0.0
H154 H 0.5532 0.22935 0.24617 0.0
H155 H 0.5549 0.26094 0.77751 0.0
H156 H 0.47961 0.33875 0.00673 0.0
C157 C 0.46297 0.29932 0.06694 0.0
O158 O 0.48789 0.24913 0.01182 0.0
H159 H 0.47495 0.30339 0.18566 0.0
C160 C 0.66872 0.229 0.01637 0.0
C161 C 0.63997 0.24325 0.8809 0.0
C162 C 0.63836 0.22628 0.14865 0.0
C163 C 0.57716 0.23041 0.14428 0.0
C164 C 0.54687 0.24158 0.01047 0.0
C165 C 0.57828 0.24903 0.87879 0.0
H166 H 0.31074 0.22161 0.53299 0.0
H167 H 0.26411 0.06666 0.29092 0.0
H168 H 0.27787 0.0603 0.76446 0.0
H169 H 0.33167 0.96377 0.65566 0.0
C170 C 0.30874 0.95713 0.54788 0.0
O171 O 0.26377 0.99747 0.52892 0.0
H172 H 0.34106 0.96292 0.4586 0.0
C173 C 0.30147 0.17499 0.52907 0.0
C174 C 0.29719 0.14422 0.66292 0.0
C175 C 0.28619 0.14901 0.39379 0.0
C176 C 0.27473 0.08828 0.39315 0.0
C177 C 0.27448 0.05587 0.52733 0.0
C178 C 0.28286 0.08454 0.66161 0.0
H179 H 0.33059 0.78261 0.04154 0.0
H180 H 0.48334 0.73859 0.79284 0.0
H181 H 0.49408 0.75086 0.26648 0.0
H182 H 0.58135 0.8135 0.13722 0.0
C183 C 0.59089 0.78885 0.03577 0.0
O184 O 0.55508 0.74013 0.02705 0.0
H185 H 0.58241 0.8185 0.93879 0.0
C186 C 0.37695 0.77242 0.03538 0.0
C187 C 0.40906 0.76885 0.16728 0.0
C188 C 0.40169 0.75864 0.89951 0.0
C189 C 0.46235 0.7469 0.89628 0.0
C190 C 0.49602 0.74631 0.02895 0.0
C191 C 0.4686 0.75426 0.16459 0.0
loop_
_geom_bond_atom_site_label_1
_geom_bond_atom_site_label_2
_geom_bond_distance
_geom_bond_site_symmetry_2
_ccdc_geom_bond_type
Fe0 O2 1.918 . S
Fe0 O5 1.997 . S
Fe0 O6 2.002 . S
Fe0 O11 1.976 . S
Fe0 O14 1.996 . S
Fe1 O2 1.918 1_556 S
Fe1 O9 1.997 . S
Fe1 O12 1.996 . S
Fe1 O16 1.976 . S
Fe1 O19 2.002 . S
O2 Fe0 1.918 . S
O2 Fe1 1.918 1_554 S
O2 Fe3 1.918 . S
Fe3 O2 1.918 . S
Fe3 O4 2.002 . S
Fe3 O13 1.976 . S
Fe3 O17 1.996 1_554 S
Fe3 O20 1.997 1_554 S
O4 Fe3 2.002 . S
O4 C21 1.295 . S
O5 Fe0 1.997 . S
O5 C21 1.235 . S
O6 Fe0 2.002 . S
O6 C7 1.295 . S
C7 O6 1.295 . S
C7 O9 1.235 1_554 S
C8 O13 1.287 . S
C8 O14 1.255 . S
O9 Fe1 1.997 . S
O9 C7 1.235 1_556 S
C10 O16 1.287 . S
C10 O17 1.255 . S
O11 Fe0 1.976 . S
O11 C18 1.287 . S
O12 Fe1 1.996 . S
O12 C18 1.255 1_556 S
O13 Fe3 1.976 . S
O13 C8 1.287 . S
O14 Fe0 1.996 . S
O14 C8 1.255 . S
C15 O19 1.295 . S
C15 O20 1.235 . S
O16 Fe1 1.976 . S
O16 C10 1.287 . S
O17 Fe3 1.996 1_556 S
O17 C10 1.255 . S
C18 O11 1.287 . S
C18 O12 1.255 1_554 S
O19 Fe1 2.002 . S
O19 C15 1.295 . S
O20 Fe3 1.997 1_556 S
O20 C15 1.235 . S
C21 O4 1.295 . S
C21 O5 1.235 . S
Fe22 O24 1.918 . S
Fe22 O27 1.997 . S
Fe22 O28 2.002 . S
Fe22 O33 1.976 . S
Fe22 O36 1.996 . S
Fe23 O24 1.918 . S
Fe23 O31 1.997 . S
Fe23 O34 1.996 . S
Fe23 O38 1.976 . S
Fe23 O41 2.002 . S
O24 Fe22 1.918 . S
O24 Fe23 1.918 . S
O24 Fe25 1.918 . S
Fe25 O24 1.918 . S
Fe25 O26 2.002 . S
Fe25 O35 1.976 . S
Fe25 O39 1.996 . S
Fe25 O42 1.997 . S
O26 Fe25 2.002 . S
O26 C43 1.295 . S
O27 Fe22 1.997 . S
O27 C43 1.235 . S
O28 Fe22 2.002 . S
O28 C29 1.295 . S
C29 O28 1.295 . S
C29 O31 1.235 . S
C30 O35 1.287 . S
C30 O36 1.255 . S
O31 Fe23 1.997 . S
O31 C29 1.235 . S
C32 O38 1.287 . S
C32 O39 1.255 . S
O33 Fe22 1.976 . S
O33 C40 1.287 . S
O34 Fe23 1.996 . S
O34 C40 1.255 . S
O35 Fe25 1.976 . S
O35 C30 1.287 . S
O36 Fe22 1.996 . S
O36 C30 1.255 . S
C37 O41 1.295 . S
C37 O42 1.235 . S
O38 Fe23 1.976 . S
O38 C32 1.287 . S
O39 Fe25 1.996 . S
O39 C32 1.255 . S
C40 O33 1.287 . S
C40 O34 1.255 . S
O41 Fe23 2.002 . S
O41 C37 1.295 . S
O42 Fe25 1.997 . S
O42 C37 1.235 . S
C43 O26 1.295 . S
C43 O27 1.235 . S
Fe44 O46 1.918 1_556 S
Fe44 O49 1.997 . S
Fe44 O50 2.002 . S
Fe44 O55 1.976 . S
Fe44 O58 1.996 . S
Fe45 O46 1.918 . S
Fe45 O53 1.997 . S
Fe45 O56 1.996 . S
Fe45 O60 1.976 . S
Fe45 O63 2.002 . S
O46 Fe44 1.918 1_554 S
O46 Fe45 1.918 . S
O46 Fe47 1.918 . S
Fe47 O46 1.918 . S
Fe47 O48 2.002 1_554 S
Fe47 O57 1.976 1_554 S
Fe47 O61 1.996 . S
Fe47 O64 1.997 . S
O48 Fe47 2.002 1_556 S
O48 C65 1.295 . S
O49 Fe44 1.997 . S
O49 C65 1.235 . S
O50 Fe44 2.002 . S
O50 C51 1.295 1_556 S
C51 O50 1.295 1_554 S
C51 O53 1.235 . S
C52 O57 1.287 . S
C52 O58 1.255 . S
O53 Fe45 1.997 . S
O53 C51 1.235 . S
C54 O60 1.287 . S
C54 O61 1.255 . S
O55 Fe44 1.976 . S
O55 C62 1.287 1_556 S
O56 Fe45 1.996 . S
O56 C62 1.255 . S
O57 Fe47 1.976 1_556 S
O57 C52 1.287 . S
O58 Fe44 1.996 . S
O58 C52 1.255 . S
C59 O63 1.295 . S
C59 O64 1.235 . S
O60 Fe45 1.976 . S
O60 C54 1.287 . S
O61 Fe47 1.996 . S
O61 C54 1.255 . S
C62 O55 1.287 1_554 S
C62 O56 1.255 . S
O63 Fe45 2.002 . S
O63 C59 1.295 . S
O64 Fe47 1.997 . S
O64 C59 1.235 . S
C65 O48 1.295 . S
C65 O49 1.235 . S
Fe66 O68 1.918 . S
Fe66 O71 1.997 . S
Fe66 O72 2.002 . S
Fe66 O77 1.976 . S
Fe66 O80 1.996 . S
Fe67 O68 1.918 . S
Fe67 O75 1.997 . S
Fe67 O78 1.996 . S
Fe67 O82 1.976 . S
Fe67 O85 2.002 . S
O68 Fe66 1.918 . S
O68 Fe67 1.918 . S
O68 Fe69 1.918 . S
Fe69 O68 1.918 . S
Fe69 O70 2.002 . S
Fe69 O79 1.976 . S
Fe69 O83 1.996 . S
Fe69 O86 1.997 . S
O70 Fe69 2.002 . S
O70 C87 1.295 . S
O71 Fe66 1.997 . S
O71 C87 1.235 . S
O72 Fe66 2.002 . S
O72 C73 1.295 . S
C73 O72 1.295 . S
C73 O75 1.235 . S
C74 O79 1.287 . S
C74 O80 1.255 . S
O75 Fe67 1.997 . S
O75 C73 1.235 . S
C76 O82 1.287 . S
C76 O83 1.255 . S
O77 Fe66 1.976 . S
O77 C84 1.287 . S
O78 Fe67 1.996 . S
O78 C84 1.255 . S
O79 Fe69 1.976 . S
O79 C74 1.287 . S
O80 Fe66 1.996 . S
O80 C74 1.255 . S
C81 O85 1.295 . S
C81 O86 1.235 . S
O82 Fe67 1.976 . S
O82 C76 1.287 . S
O83 Fe69 1.996 . S
O83 C76 1.255 . S
C84 O77 1.287 . S
C84 O78 1.255 . S
O85 Fe67 2.002 . S
O85 C81 1.295 . S
O86 Fe69 1.997 . S
O86 C81 1.235 . S
C87 O70 1.295 . S
C87 O71 1.235 . S
H88 C95 0.929 . S
H89 C98 0.930 . S
H90 C100 0.929 . S
H91 C92 0.969 . S
C92 H91 0.969 . S
C92 O93 1.550 1_556 S
C92 H94 0.973 . S
O93 C92 1.550 1_554 S
O93 C99 1.412 . S
H94 C92 0.973 . S
C95 H88 0.929 . S
C95 C96 1.400 . S
C95 C97 1.364 1_554 S
C96 C95 1.400 . S
C96 C100 1.377 . S
C97 C95 1.364 1_556 S
C97 C98 1.374 . S
C98 H89 0.930 . S
C98 C97 1.374 . S
C98 C99 1.383 1_556 S
C99 O93 1.412 . S
C99 C98 1.383 1_554 S
C99 C100 1.394 . S
C100 H90 0.929 . S
C100 C96 1.377 . S
C100 C99 1.394 . S
H101 C108 0.929 . S
H102 C111 0.936 . S
H103 C113 0.929 . S
H104 C105 0.969 . S
C105 H104 0.969 . S
C105 O106 1.550 . S
C105 H107 0.973 . S
O106 C105 1.550 . S
O106 C112 1.412 . S
H107 C105 0.973 . S
C108 H101 0.929 . S
C108 C109 1.400 . S
C108 C110 1.364 . S
C109 C108 1.400 . S
C109 C113 1.377 . S
C110 C108 1.364 . S
C110 C111 1.374 . S
C111 H102 0.936 . S
C111 C110 1.374 . S
C111 C112 1.383 1_655 S
C112 O106 1.412 . S
C112 C111 1.383 1_455 S
C112 C113 1.394 1_455 S
C113 H103 0.929 . S
C113 C109 1.377 . S
C113 C112 1.394 1_655 S
H114 C121 0.929 . S
H115 C124 0.930 . S
H116 C126 0.929 . S
H117 C118 0.969 . S
C118 H117 0.969 . S
C118 O119 1.550 1_554 S
C118 H120 0.973 . S
O119 C118 1.550 1_556 S
O119 C125 1.412 . S
H120 C118 0.973 . S
C121 H114 0.929 . S
C121 C122 1.400 1_554 S
C121 C123 1.364 . S
C122 C121 1.400 1_556 S
C122 C126 1.377 . S
C123 C121 1.364 . S
C123 C124 1.374 . S
C124 H115 0.930 . S
C124 C123 1.374 . S
C124 C125 1.383 1_554 S
C125 O119 1.412 . S
C125 C124 1.383 1_556 S
C125 C126 1.394 . S
C126 H116 0.929 . S
C126 C122 1.377 . S
C126 C125 1.394 . S
H127 C134 0.929 . S
H128 C137 0.930 1_655 S
H129 C139 0.929 . S
H130 C131 0.969 . S
C131 H130 0.969 . S
C131 O132 1.550 . S
C131 H133 0.973 . S
O132 C131 1.550 . S
O132 C138 1.412 . S
H133 C131 0.973 . S
C134 H127 0.929 . S
C134 C135 1.400 . S
C134 C136 1.364 . S
C135 C134 1.400 . S
C135 C139 1.377 . S
C136 C134 1.364 . S
C136 C137 1.374 . S
C137 H128 0.930 1_455 S
C137 C136 1.374 . S
C137 C138 1.383 1_455 S
C138 O132 1.412 . S
C138 C137 1.383 1_655 S
C138 C139 1.394 1_655 S
C139 H129 0.929 . S
C139 C135 1.377 . S
C139 C138 1.394 1_455 S
H140 C147 0.929 . S
H141 C150 0.930 1_545 S
H142 C152 0.929 . S
H143 C144 0.969 . S
C144 H143 0.969 . S
C144 O145 1.550 . S
C144 H146 0.973 . S
O145 C144 1.550 . S
O145 C151 1.412 . S
H146 C144 0.973 . S
C147 H140 0.929 . S
C147 C148 1.400 . S
C147 C149 1.364 . S
C148 C147 1.400 . S
C148 C152 1.377 . S
C149 C147 1.364 . S
C149 C150 1.374 . S
C150 H141 0.930 1_565 S
C150 C149 1.374 . S
C150 C151 1.383 1_565 S
C151 O145 1.412 . S
C151 C150 1.383 1_545 S
C151 C152 1.394 1_545 S
C152 H142 0.929 . S
C152 C148 1.377 . S
C152 C151 1.394 1_565 S
H153 C160 0.929 . S
H154 C163 0.930 . S
H155 C165 0.929 . S
H156 C157 0.969 . S
C157 H156 0.969 . S
C157 O158 1.550 1_554 S
C157 H159 0.973 . S
O158 C157 1.550 1_556 S
O158 C164 1.412 . S
H159 C157 0.973 . S
C160 H153 0.929 . S
C160 C161 1.400 1_554 S
C160 C162 1.364 . S
C161 C160 1.400 1_556 S
C161 C165 1.377 . S
C162 C160 1.364 . S
C162 C163 1.374 . S
C163 H154 0.930 . S
C163 C162 1.374 . S
C163 C164 1.383 1_554 S
C164 O158 1.412 . S
C164 C163 1.383 1_556 S
C164 C165 1.394 . S
C165 H155 0.929 . S
C165 C161 1.377 . S
C165 C164 1.394 . S
H166 C173 0.929 . S
H167 C176 0.930 1_565 S
H168 C178 0.929 . S
H169 C170 0.969 . S
C170 H169 0.969 . S
C170 O171 1.550 . S
C170 H172 0.973 . S
O171 C170 1.550 . S
O171 C177 1.412 . S
H172 C170 0.973 . S
C173 H166 0.929 . S
C173 C174 1.400 . S
C173 C175 1.364 . S
C174 C173 1.400 . S
C174 C178 1.377 . S
C175 C173 1.364 . S
C175 C176 1.374 . S
C176 H167 0.930 1_545 S
C176 C175 1.374 . S
C176 C177 1.383 1_545 S
C177 O171 1.412 . S
C177 C176 1.383 1_565 S
C177 C178 1.394 1_565 S
C178 H168 0.929 . S
C178 C174 1.377 . S
C178 C177 1.394 1_545 S
H179 C186 0.929 . S
H180 C189 0.930 . S
H181 C191 0.929 . S
H182 C183 0.969 . S
C183 H182 0.969 . S
C183 O184 1.550 1_556 S
C183 H185 0.973 . S
O184 C183 1.550 1_554 S
O184 C190 1.412 . S
H185 C183 0.973 . S
C186 H179 0.929 . S
C186 C187 1.400 . S
C186 C188 1.364 1_554 S
C187 C186 1.400 . S
C187 C191 1.377 . S
C188 C186 1.364 1_556 S
C188 C189 1.374 . S
C189 H180 0.930 . S
C189 C188 1.374 . S
C189 C190 1.383 1_556 S
C190 O184 1.412 . S
C190 C189 1.383 1_554 S
C190 C191 1.394 . S
C191 H181 0.929 . S
C191 C187 1.377 . S
C191 C190 1.394 . S
C21 C135 1.491 . S
C40 C97 1.536 . S
C110 C54 1.422 . S
C73 C122 1.528 . S
C162 C74 1.440 . S
C174 C10 1.538 . S
C187 C37 1.464 . S
C149 C65 1.523 . S
C52 C109 1.425 . S
C87 C123 1.564 . S
C15 C136 1.471 . S
C96 C32 1.460 . S
C29 C188 1.497 . S
C148 C59 1.542 . S
C161 C84 1.419 . S
C8 C175 1.477 . S
C92 C7 1.473 1_556 S
C105 C30 1.491 . S
C62 C118 1.632 . S
C81 C131 1.467 . S
C144 C76 1.494 . S
C18 C157 1.482 . S
C43 C170 1.629 . S
C51 C183 1.456 1_554 S
