# Generated by pormake.
# Topology zzz, (3,6)-cn, num edge types: 1
# Building blocks:
#     Node 0, Type 0, BuildingBlock: BETDIP_clean_linker_0, # of connection points: 3
#     Node 1, Type 0, BuildingBlock: BETDIP_clean_linker_0, # of connection points: 3
#     Node 2, Type 0, BuildingBlock: BETDIP_clean_linker_0, # of connection points: 3
#     Node 3, Type 0, BuildingBlock: BETDIP_clean_linker_0, # of connection points: 3
#     Node 4, Type 0, BuildingBlock: BETDIP_clean_linker_0, # of connection points: 3
#     Node 5, Type 0, BuildingBlock: BETDIP_clean_linker_0, # of connection points: 3
#     Node 6, Type 0, BuildingBlock: BETDIP_clean_linker_0, # of connection points: 3
#     Node 7, Type 0, BuildingBlock: BETDIP_clean_linker_0, # of connection points: 3
#     Node 8, Type 1, BuildingBlock: VOLQOD_clean_sbu_1, # of connection points: 6
#     Node 9, Type 1, BuildingBlock: VOLQOD_clean_sbu_1, # of connection points: 6
#     Node 10, Type 1, BuildingBlock: VOLQOD_clean_sbu_1, # of connection points: 6
#     Node 11, Type 1, BuildingBlock: VOLQOD_clean_sbu_1, # of connection points: 6
#     Edge 12, Type (0, 1), None
#     Edge 13, Type (0, 1), None
#     Edge 14, Type (0, 1), None
#     Edge 15, Type (0, 1), None
#     Edge 16, Type (0, 1), None
#     Edge 17, Type (0, 1), None
#     Edge 18, Type (0, 1), None
#     Edge 19, Type (0, 1), None
#     Edge 20, Type (0, 1), None
#     Edge 21, Type (0, 1), None
#     Edge 22, Type (0, 1), None
#     Edge 23, Type (0, 1), None
#     Edge 24, Type (0, 1), None
#     Edge 25, Type (0, 1), None
#     Edge 26, Type (0, 1), None
#     Edge 27, Type (0, 1), None
#     Edge 28, Type (0, 1), None
#     Edge 29, Type (0, 1), None
#     Edge 30, Type (0, 1), None
#     Edge 31, Type (0, 1), None
#     Edge 32, Type (0, 1), None
#     Edge 33, Type (0, 1), None
#     Edge 34, Type (0, 1), None
#     Edge 35, Type (0, 1), None
# Relax obj value: 0.166
# Max RMSD: 0.224
# Mean RMSD: 0.112
data_MOF--net-zzz--node1-VOLQOD_clean_sbu_1--node2-BETDIP_clean_linker_0--edge1-none
_symmetry_space_group_name_H-M    P1
_symmetry_Int_Tables_number       1
_symmetry_cell_setting            triclinic
loop_
_symmetry_equiv_pos_as_xyz
'x, y, z'
_cell_length_a     22.32641
_cell_length_b     22.587138
_cell_length_c     9.1930271
_cell_angle_alpha  89.84861
_cell_angle_beta   90.558426
_cell_angle_gamma 92.2972
loop_
_atom_site_label
_atom_site_type_symbol
_atom_site_fract_x
_atom_site_fract_y
_atom_site_fract_z
_atom_type_partial_charge
H0 H 0.76927 0.56121 0.27537 0.0
H1 H 0.8159 0.47045 0.88487 0.0
H2 H 0.94746 0.49771 0.22313 0.0
H3 H 0.74951 0.60171 0.87885 0.0
C4 C 0.72476 0.55925 0.87957 0.0
C5 C 0.80132 0.53705 0.21365 0.0
C6 C 0.86057 0.53125 0.26706 0.0
C7 C 0.78537 0.51365 0.07474 0.0
C8 C 0.82783 0.48447 -0.00551 0.0
C9 C 0.88692 0.48102 0.04511 0.0
C10 C 0.90147 0.50058 0.18472 0.0
N11 N 0.72899 0.52305 0.00694 0.0
H12 H 1.01191 0.82197 0.24151 0.0
H13 H 0.09728 0.81844 0.8218 0.0
H14 H 0.14509 0.95637 0.1161 0.0
H15 H 0.99868 0.7866 0.75431 0.0
C16 C 1.00222 0.74992 0.83043 0.0
C17 C 1.04493 0.83963 0.16577 0.0
C18 C 0.08055 0.89122 0.20204 0.0
C19 C 0.05137 0.81233 0.02742 0.0
C20 C 0.09322 0.83711 -0.0705 0.0
C21 C 0.12181 0.89197 -0.04284 0.0
C22 C 0.12089 0.91449 0.09725 0.0
N23 N 1.01396 0.76263 -0.01822 0.0
H24 H 0.82029 1.0283 0.2707 0.0
H25 H 0.8115 0.10613 0.84296 0.0
H26 H 0.66374 0.12056 0.12411 0.0
H27 H 0.8575 0.98012 0.88031 0.0
C28 C 0.89112 1.01499 0.90433 0.0
C29 C 0.79703 0.0547 0.19141 0.0
C30 C 0.73771 0.07269 0.21819 0.0
C31 C 0.82435 0.06921 0.05562 0.0
C32 C 0.79249 0.0999 -0.04957 0.0
C33 C 0.73367 0.11489 -0.02654 0.0
C34 C 0.70951 0.10727 0.11085 0.0
N35 N 0.88277 0.05264 0.01596 0.0
H36 H 0.58965 0.7664 0.23109 0.0
H37 H 0.53298 0.75561 0.78125 0.0
H38 H 0.50438 0.60621 0.05911 0.0
H39 H 0.65123 0.81884 0.83484 0.0
C40 C 0.61574 0.84721 0.86875 0.0
C41 C 0.56896 0.74164 0.14194 0.0
C42 C 0.54738 0.68229 0.16306 0.0
C43 C 0.56281 0.7684 0.00251 0.0
C44 C 0.53574 0.73588 0.88872 0.0
C45 C 0.51419 0.67777 0.91003 0.0
C46 C 0.51848 0.65249 0.04693 0.0
N47 N 0.5776 0.82922 -0.02496 0.0
H48 H 0.25463 0.47438 -0.005 0.0
H49 H 0.24548 0.55201 0.42267 0.0
H50 H 0.09519 0.55919 0.1361 0.0
H51 H 0.29645 0.47177 0.47998 0.0
C52 C 0.33058 0.47676 0.39677 0.0
C53 C 0.22972 0.49635 0.07816 0.0
C54 C 0.17183 0.51718 0.04639 0.0
C55 C 0.25569 0.50637 0.21844 0.0
C56 C 0.22492 0.54038 0.31892 0.0
C57 C 0.16718 0.55872 0.29053 0.0
C58 C 0.1408 0.5461 0.15616 0.0
N59 N 0.31438 0.48753 0.25657 0.0
H60 H 0.1032 0.29219 -0.00219 0.0
H61 H 1.00027 0.24519 0.37749 0.0
H62 H 1.02239 0.11662 0.04583 0.0
H63 H 0.96851 0.34137 0.31498 0.0
C64 C 1.01414 0.35958 0.32943 0.0
C65 C 0.07466 0.26079 0.05688 0.0
C66 C 0.06462 0.20209 0.00411 0.0
C67 C 1.04755 0.27778 0.18898 0.0
C68 C 1.01414 0.23476 0.26812 0.0
C69 C 1.0084 0.17618 0.22128 0.0
C70 C 1.02782 0.16224 0.08249 0.0
N71 N 0.05861 0.33482 0.25468 0.0
H72 H 0.35856 0.12057 0.04146 0.0
H73 H 0.36932 1.02087 0.44212 0.0
H74 H 0.5023 1.00226 0.1164 0.0
H75 H 0.32737 0.10488 0.52563 0.0
C76 C 0.29113 0.10404 0.44564 0.0
C77 C 0.38165 0.0902 0.11165 0.0
C78 C 0.43411 0.06325 0.06279 0.0
C79 C 0.35866 0.07598 0.25195 0.0
C80 C 0.38744 1.03374 0.33741 0.0
C81 C 0.43954 1.00804 0.29054 0.0
C82 C 0.46183 1.02251 0.15325 0.0
N83 N 0.30341 0.0982 0.30211 0.0
H84 H 0.501 0.2845 -0.04148 0.0
H85 H 0.61054 0.32072 0.34055 0.0
H86 H 0.60269 0.44974 0.00255 0.0
H87 H 0.52899 0.27454 0.43619 0.0
C88 C 0.52711 0.23488 0.36918 0.0
C89 C 0.53301 0.31262 0.01818 0.0
C90 C 0.55166 0.36872 -0.0385 0.0
C91 C 0.5543 0.29471 0.15681 0.0
C92 C 0.59503 0.33288 0.233 0.0
C93 C 0.60836 0.39034 0.18287 0.0
C94 C 0.59185 0.40515 0.04137 0.0
N95 N 0.53387 0.24001 0.22306 0.0
O96 O 0.22362 0.08697 0.63316 0.0
Zn97 Zn 0.14619 0.06476 0.74764 0.0
O98 O 0.07977 0.05092 0.61598 0.0
Zn99 Zn 1.02406 0.11102 0.65326 0.0
Zn100 Zn 0.10905 0.04991 0.42858 0.0
Zn101 Zn 1.03413 0.97484 0.61443 0.0
O102 O 0.96275 0.07606 0.79476 0.0
O103 O 0.95483 0.98166 0.72629 0.0
O104 O 0.12291 0.13119 0.89008 0.0
O105 O 0.06145 0.18256 0.75545 0.0
O106 O 0.99319 0.13993 0.46044 0.0
O107 O 0.05441 0.09461 0.31048 0.0
O108 O 0.11479 0.96886 0.3541 0.0
O109 O 0.15103 0.98611 0.85643 0.0
O110 O 1.0285 0.92733 0.41736 0.0
O111 O 0.08279 0.92707 0.74264 0.0
C112 C 0.2327 0.0947 0.49681 0.0
C113 C 0.93885 1.02409 0.8075 0.0
C114 C 1.01272 0.13013 0.33285 0.0
C115 C 0.09154 0.17709 0.87212 0.0
C116 C 0.07464 0.92822 0.33621 0.0
C117 C 0.12408 0.93539 0.83761 0.0
O118 O 0.19076 0.08597 0.40456 0.0
O119 O 0.54669 0.18239 0.57771 0.0
Zn120 Zn 0.56561 0.1199 0.73273 0.0
O121 O 0.57776 0.04606 0.63098 0.0
Zn122 Zn 0.51528 0.98875 0.69341 0.0
Zn123 Zn 0.56821 0.05638 0.42882 0.0
Zn124 Zn 0.65762 1.01063 0.63441 0.0
O125 O 0.55453 0.92045 0.79186 0.0
O126 O 0.65027 0.92578 0.72295 0.0
O127 O 0.49831 0.11234 0.88917 0.0
O128 O 0.46306 1.02125 0.84595 0.0
O129 O 0.45958 0.97026 0.52311 0.0
O130 O 0.53242 0.97905 0.36878 0.0
O131 O 0.64434 0.0667 0.3329 0.0
O132 O 0.64415 0.13696 0.84407 0.0
O133 O 0.7149 1.02257 0.45237 0.0
O134 O 0.69819 0.05999 0.77991 0.0
C135 C 0.53189 0.18082 0.44249 0.0
C136 C 0.60709 0.90033 0.7937 0.0
C137 C 0.47685 0.97454 0.39194 0.0
C138 C 0.46085 0.06947 0.91607 0.0
C139 C 0.69844 0.05285 0.34284 0.0
C140 C 0.69191 0.10743 0.85118 0.0
O141 O 0.52911 0.1323 0.37143 0.0
O142 O 0.40088 0.49039 0.58138 0.0
Zn143 Zn 0.47921 0.50923 0.69638 0.0
O144 O 0.5454 0.52046 0.56827 0.0
Zn145 Zn 0.59995 0.45967 0.61142 0.0
Zn146 Zn 0.51513 0.52401 0.38063 0.0
Zn147 Zn 0.59335 0.59548 0.56732 0.0
O148 O 0.66104 0.49471 0.75927 0.0
O149 O 0.67142 0.58805 0.68333 0.0
O150 O 0.49838 0.4422 0.84079 0.0
O151 O 0.5607 0.38972 0.7148 0.0
O152 O 0.62774 0.42819 0.4194 0.0
O153 O 0.56828 0.47603 0.26514 0.0
O154 O 0.51061 0.60727 0.31552 0.0
O155 O 0.47957 0.5874 0.80357 0.0
O156 O 0.60004 0.64346 0.37407 0.0
O157 O 0.54782 0.64603 0.69077 0.0
C158 C 0.38995 0.48456 0.44502 0.0
C159 C 0.6853 0.54665 0.77103 0.0
C160 C 0.60785 0.43802 0.29091 0.0
C161 C 0.52853 0.39552 0.82647 0.0
C162 C 0.55203 0.64663 0.29887 0.0
C163 C 0.50797 0.63741 0.78672 0.0
O164 O 0.43115 0.49254 0.35229 0.0
O165 O 0.9327 0.5904 0.38955 0.0
Zn166 Zn 1.00746 0.60809 0.51716 0.0
O167 O 1.01589 0.54129 0.64311 0.0
Zn168 Zn 1.03025 0.56851 0.83151 0.0
Zn169 Zn 0.9493 0.48768 0.61846 0.0
Zn170 Zn 0.08847 0.49619 0.62137 0.0
O171 O 0.11743 0.56751 0.8738 0.0
O172 O 0.12986 0.47461 0.82087 0.0
O173 O 1.00343 0.68589 0.63892 0.0
O174 O 1.01097 0.65225 0.86531 0.0
O175 O 0.97809 0.51879 -0.04031 0.0
O176 O 0.92087 0.46204 0.81102 0.0
O177 O 0.97319 0.42234 0.48883 0.0
O178 O 0.07967 0.60102 0.38456 0.0
O179 O 0.07257 0.42779 0.47076 0.0
O180 O 0.14257 0.55688 0.53429 0.0
C181 C 0.88544 0.55683 0.40361 0.0
C182 C 0.14349 0.51987 0.8995 0.0
C183 C 0.93472 0.48119 -0.06252 0.0
C184 C 1.00433 0.69469 0.77701 0.0
C185 C 1.0213 0.40517 0.43219 0.0
C186 C 0.13077 0.5793 0.41124 0.0
O187 O 0.87966 0.52377 0.51481 0.0
loop_
_geom_bond_atom_site_label_1
_geom_bond_atom_site_label_2
_geom_bond_distance
_geom_bond_site_symmetry_2
_ccdc_geom_bond_type
H0 C5 0.930 . S
H1 C8 0.930 . S
H2 C10 0.930 . S
H3 C4 1.016 . S
C4 H3 1.016 . S
C4 N11 1.286 1_556 S
C5 H0 0.930 . S
C5 C6 1.397 . S
C5 C7 1.361 . S
C6 C5 1.397 . S
C6 C10 1.390 . S
C7 C5 1.361 . S
C7 C8 1.393 1_554 S
C7 N11 1.413 . S
C8 H1 0.930 . S
C8 C7 1.393 1_556 S
C8 C9 1.399 . S
C9 C8 1.399 . S
C9 C10 1.381 1_556 S
C10 H2 0.930 . S
C10 C6 1.390 . S
C10 C9 1.381 1_554 S
N11 C4 1.286 1_554 S
N11 C7 1.413 . S
H12 C17 0.930 . S
H13 C20 0.930 . S
H14 C22 0.930 . S
H15 C16 1.016 . S
C16 H15 1.016 . S
C16 N23 1.286 1_656 S
C17 H12 0.930 . S
C17 C18 1.397 . S
C17 C19 1.361 . S
C18 C17 1.397 . S
C18 C22 1.390 1_455 S
C19 C17 1.361 . S
C19 C20 1.393 1_554 S
C19 N23 1.413 . S
C20 H13 0.930 . S
C20 C19 1.393 1_556 S
C20 C21 1.399 1_556 S
C21 C20 1.399 1_554 S
C21 C22 1.381 1_455 S
C22 H14 0.930 . S
C22 C18 1.390 1_655 S
C22 C21 1.381 1_655 S
N23 C16 1.286 1_454 S
N23 C19 1.413 . S
H24 C29 0.930 . S
H25 C32 0.930 . S
H26 C34 0.930 . S
H27 C28 1.016 . S
C28 H27 1.016 . S
C28 N35 1.286 1_566 S
C29 H24 0.930 . S
C29 C30 1.397 . S
C29 C31 1.361 . S
C30 C29 1.397 . S
C30 C34 1.390 1_545 S
C31 C29 1.361 . S
C31 C32 1.393 1_554 S
C31 N35 1.413 . S
C32 H25 0.930 . S
C32 C31 1.393 1_556 S
C32 C33 1.399 . S
C33 C32 1.399 . S
C33 C34 1.381 1_546 S
C34 H26 0.930 . S
C34 C30 1.390 1_565 S
C34 C33 1.381 1_564 S
N35 C28 1.286 1_544 S
N35 C31 1.413 . S
H36 C41 0.930 . S
H37 C44 0.930 . S
H38 C46 0.930 . S
H39 C40 1.016 . S
C40 H39 1.016 . S
C40 N47 1.286 1_556 S
C41 H36 0.930 . S
C41 C42 1.397 . S
C41 C43 1.361 . S
C42 C41 1.397 . S
C42 C46 1.390 . S
C43 C41 1.361 . S
C43 C44 1.393 1_554 S
C43 N47 1.413 . S
C44 H37 0.930 . S
C44 C43 1.393 1_556 S
C44 C45 1.399 . S
C45 C44 1.399 . S
C45 C46 1.381 1_556 S
C46 H38 0.930 . S
C46 C42 1.390 . S
C46 C45 1.381 1_554 S
N47 C40 1.286 1_554 S
N47 C43 1.413 . S
H48 C53 0.930 . S
H49 C56 0.930 . S
H50 C58 0.930 . S
H51 C52 1.016 . S
C52 H51 1.016 . S
C52 N59 1.286 . S
C53 H48 0.930 . S
C53 C54 1.397 . S
C53 C55 1.361 . S
C54 C53 1.397 . S
C54 C58 1.390 . S
C55 C53 1.361 . S
C55 C56 1.393 . S
C55 N59 1.413 . S
C56 H49 0.930 . S
C56 C55 1.393 . S
C56 C57 1.399 . S
C57 C56 1.399 . S
C57 C58 1.381 . S
C58 H50 0.930 . S
C58 C54 1.390 . S
C58 C57 1.381 . S
N59 C52 1.286 . S
N59 C55 1.413 . S
H60 C65 0.930 . S
H61 C68 0.930 . S
H62 C70 0.930 . S
H63 C64 1.016 . S
C64 H63 1.016 . S
C64 N71 1.286 . S
C65 H60 0.930 . S
C65 C66 1.397 . S
C65 C67 1.361 . S
C66 C65 1.397 . S
C66 C70 1.390 . S
C67 C65 1.361 . S
C67 C68 1.393 . S
C67 N71 1.413 . S
C68 H61 0.930 . S
C68 C67 1.393 . S
C68 C69 1.399 . S
C69 C68 1.399 . S
C69 C70 1.381 . S
C70 H62 0.930 . S
C70 C66 1.390 . S
C70 C69 1.381 . S
N71 C64 1.286 . S
N71 C67 1.413 . S
H72 C77 0.930 . S
H73 C80 0.930 . S
H74 C82 0.930 1_565 S
H75 C76 1.016 1_565 S
C76 H75 1.016 1_545 S
C76 N83 1.286 . S
C77 H72 0.930 . S
C77 C78 1.397 . S
C77 C79 1.361 . S
C78 C77 1.397 . S
C78 C82 1.390 . S
C79 C77 1.361 . S
C79 C80 1.393 . S
C79 N83 1.413 . S
C80 H73 0.930 . S
C80 C79 1.393 . S
C80 C81 1.399 . S
C81 C80 1.399 . S
C81 C82 1.381 . S
C82 H74 0.930 1_545 S
C82 C78 1.390 . S
C82 C81 1.381 . S
N83 C76 1.286 . S
N83 C79 1.413 . S
H84 C89 0.930 . S
H85 C92 0.930 . S
H86 C94 0.930 . S
H87 C88 1.016 . S
C88 H87 1.016 . S
C88 N95 1.286 . S
C89 H84 0.930 . S
C89 C90 1.397 . S
C89 C91 1.361 . S
C90 C89 1.397 . S
C90 C94 1.390 . S
C91 C89 1.361 . S
C91 C92 1.393 . S
C91 N95 1.413 . S
C92 H85 0.930 . S
C92 C91 1.393 . S
C92 C93 1.399 . S
C93 C92 1.399 . S
C93 C94 1.381 . S
C94 H86 0.930 . S
C94 C90 1.390 . S
C94 C93 1.381 . S
N95 C88 1.286 . S
N95 C91 1.413 . S
O96 Zn97 1.954 . S
O96 C112 1.225 1_545 S
Zn97 O96 1.954 . S
Zn97 O98 1.948 1_545 S
Zn97 O104 1.934 1_556 S
Zn97 O109 1.906 1_546 S
O98 Zn97 1.948 1_565 S
O98 Zn99 1.923 1_465 S
O98 Zn100 1.950 . S
O98 Zn101 1.945 1_455 S
Zn99 O98 1.923 1_645 S
Zn99 O102 1.933 . S
Zn99 O105 1.948 . S
Zn99 O106 1.965 . S
Zn100 O98 1.950 . S
Zn100 O107 1.938 1_565 S
Zn100 O108 1.906 . S
Zn100 O118 1.953 . S
Zn101 O98 1.945 1_655 S
Zn101 O103 1.932 . S
Zn101 O110 1.977 . S
Zn101 O111 1.914 . S
O102 Zn99 1.933 . S
O102 C113 1.226 . S
O103 Zn101 1.932 . S
O103 C113 1.307 1_565 S
O104 Zn97 1.934 1_554 S
O104 C115 1.253 . S
O105 Zn99 1.948 . S
O105 C115 1.272 1_656 S
O106 Zn99 1.965 . S
O106 C114 1.303 1_655 S
O107 Zn100 1.938 1_545 S
O107 C114 1.247 . S
O108 Zn100 1.906 . S
O108 C116 1.304 1_455 S
O109 Zn97 1.906 1_564 S
O109 C117 1.311 1_554 S
O110 Zn101 1.977 . S
O110 C116 1.272 . S
O111 Zn101 1.914 . S
O111 C117 1.222 1_655 S
C112 O96 1.225 1_565 S
C112 O118 1.298 . S
C113 O102 1.226 . S
C113 O103 1.307 1_545 S
C114 O106 1.303 1_455 S
C114 O107 1.247 . S
C115 O104 1.253 . S
C115 O105 1.272 1_454 S
C116 O108 1.304 1_655 S
C116 O110 1.272 . S
C117 O109 1.311 1_556 S
C117 O111 1.222 1_455 S
O118 Zn100 1.953 . S
O118 C112 1.298 . S
O119 Zn120 1.953 . S
O119 C135 1.225 . S
Zn120 O119 1.953 . S
Zn120 O121 1.949 . S
Zn120 O127 1.919 1_556 S
Zn120 O132 1.924 . S
O121 Zn120 1.949 . S
O121 Zn122 1.923 1_545 S
O121 Zn123 1.950 . S
O121 Zn124 1.945 1_545 S
Zn122 O121 1.923 1_565 S
Zn122 O125 1.933 . S
Zn122 O128 1.941 . S
Zn122 O129 1.965 . S
Zn123 O121 1.950 . S
Zn123 O130 1.938 . S
Zn123 O131 1.906 . S
Zn123 O141 1.953 . S
Zn124 O121 1.945 1_565 S
Zn124 O126 1.932 . S
Zn124 O133 1.977 . S
Zn124 O134 1.909 1_565 S
O125 Zn122 1.933 . S
O125 C136 1.226 . S
O126 Zn124 1.932 . S
O126 C136 1.307 . S
O127 Zn120 1.919 1_554 S
O127 C138 1.253 . S
O128 Zn122 1.941 . S
O128 C138 1.283 1_566 S
O129 Zn122 1.965 . S
O129 C137 1.303 1_565 S
O130 Zn123 1.938 . S
O130 C137 1.247 . S
O131 Zn123 1.906 . S
O131 C139 1.304 1_545 S
O132 Zn120 1.924 . S
O132 C140 1.311 . S
O133 Zn124 1.977 . S
O133 C139 1.272 . S
O134 Zn124 1.909 1_545 S
O134 C140 1.233 . S
C135 O119 1.225 . S
C135 O141 1.298 . S
C136 O125 1.226 . S
C136 O126 1.307 . S
C137 O129 1.303 1_545 S
C137 O130 1.247 . S
C138 O127 1.253 . S
C138 O128 1.283 1_544 S
C139 O131 1.304 1_565 S
C139 O133 1.272 . S
C140 O132 1.311 . S
C140 O134 1.233 . S
O141 Zn123 1.953 . S
O141 C135 1.298 . S
O142 Zn143 1.953 . S
O142 C158 1.225 . S
Zn143 O142 1.953 . S
Zn143 O144 1.949 . S
Zn143 O150 1.919 1_556 S
Zn143 O155 1.924 . S
O144 Zn143 1.949 . S
O144 Zn145 1.923 . S
O144 Zn146 1.950 . S
O144 Zn147 1.945 . S
Zn145 O144 1.923 . S
Zn145 O148 1.933 . S
Zn145 O151 1.941 . S
Zn145 O152 1.965 . S
Zn146 O144 1.950 . S
Zn146 O153 1.938 . S
Zn146 O154 1.906 . S
Zn146 O164 1.953 . S
Zn147 O144 1.945 . S
Zn147 O149 1.932 . S
Zn147 O156 1.977 . S
Zn147 O157 1.910 . S
O148 Zn145 1.933 . S
O148 C159 1.226 . S
O149 Zn147 1.932 . S
O149 C159 1.307 . S
O150 Zn143 1.919 1_554 S
O150 C161 1.253 . S
O151 Zn145 1.941 . S
O151 C161 1.283 1_556 S
O152 Zn145 1.965 . S
O152 C160 1.303 . S
O153 Zn146 1.938 . S
O153 C160 1.247 . S
O154 Zn146 1.906 . S
O154 C162 1.304 . S
O155 Zn143 1.924 . S
O155 C163 1.311 . S
O156 Zn147 1.977 . S
O156 C162 1.272 . S
O157 Zn147 1.910 . S
O157 C163 1.231 . S
C158 O142 1.225 . S
C158 O164 1.298 . S
C159 O148 1.226 . S
C159 O149 1.307 . S
C160 O152 1.303 . S
C160 O153 1.247 . S
C161 O150 1.253 . S
C161 O151 1.283 1_554 S
C162 O154 1.304 . S
C162 O156 1.272 . S
C163 O155 1.311 . S
C163 O157 1.231 . S
O164 Zn146 1.953 . S
O164 C158 1.298 . S
O165 Zn166 1.953 1_655 S
O165 C181 1.225 . S
Zn166 O165 1.953 1_455 S
Zn166 O167 1.949 . S
Zn166 O173 1.919 . S
Zn166 O178 1.924 . S
O167 Zn166 1.949 . S
O167 Zn168 1.923 1_455 S
O167 Zn169 1.950 1_455 S
O167 Zn170 1.945 . S
Zn168 O167 1.923 1_655 S
Zn168 O171 1.933 1_656 S
Zn168 O174 1.941 . S
Zn168 O175 1.965 . S
Zn169 O167 1.950 1_655 S
Zn169 O176 1.938 . S
Zn169 O177 1.906 . S
Zn169 O187 1.953 . S
Zn170 O167 1.945 . S
Zn170 O172 1.932 . S
Zn170 O179 1.977 . S
Zn170 O180 1.910 . S
O171 Zn168 1.933 1_454 S
O171 C182 1.226 . S
O172 Zn170 1.932 . S
O172 C182 1.307 1_556 S
O173 Zn166 1.919 . S
O173 C184 1.254 . S
O174 Zn168 1.941 . S
O174 C184 1.281 1_655 S
O175 Zn168 1.965 . S
O175 C183 1.303 . S
O176 Zn169 1.938 . S
O176 C183 1.247 . S
O177 Zn169 1.906 . S
O177 C185 1.304 1_655 S
O178 Zn166 1.924 . S
O178 C186 1.311 . S
O179 Zn170 1.977 . S
O179 C185 1.272 . S
O180 Zn170 1.910 . S
O180 C186 1.231 . S
C181 O165 1.225 . S
C181 O187 1.298 . S
C182 O171 1.226 . S
C182 O172 1.307 1_554 S
C183 O175 1.303 . S
C183 O176 1.247 . S
C184 O173 1.254 . S
C184 O174 1.281 1_455 S
C185 O177 1.304 1_455 S
C185 O179 1.272 . S
C186 O178 1.311 . S
C186 O180 1.231 . S
O187 Zn169 1.953 . S
O187 C181 1.298 . S
C76 C112 1.837 1_545 S
C135 C88 1.874 . S
C158 C52 1.804 . S
C185 C64 1.617 . S
C113 C28 1.611 1_545 S
C40 C136 1.606 . S
C4 C159 1.612 . S
C16 C184 1.676 1_655 S
C114 C69 0.867 . S
C137 C81 0.667 . S
C160 C93 0.702 . S
C57 C186 1.074 . S
C21 C117 1.197 1_554 S
C140 C33 1.251 . S
C163 C45 1.266 . S
C9 C183 0.832 . S
C66 C115 1.590 . S
C78 C138 1.542 . S
C161 C90 1.577 . S
C182 C54 1.566 . S
C18 C116 1.890 1_455 S
C139 C30 1.784 1_565 S
C162 C42 1.719 . S
C6 C181 1.834 . S
