# generated using pymatgen
data_CoH8C12(NO2)2
_symmetry_space_group_name_H-M   'P 1'
_cell_length_a   9.80640000
_cell_length_b   10.66850000
_cell_length_c   13.97111419
_cell_angle_alpha   84.69760228
_cell_angle_beta   69.45493892
_cell_angle_gamma   74.73290000
_symmetry_Int_Tables_number   1
_chemical_formula_structural   CoH8C12(NO2)2
_chemical_formula_sum   'Co4 H32 C48 N8 O16'
_cell_volume   1320.38325570
_cell_formula_units_Z   4
loop_
 _symmetry_equiv_pos_site_id
 _symmetry_equiv_pos_as_xyz
  1  'x, y, z'
loop_
 _atom_site_type_symbol
 _atom_site_label
 _atom_site_symmetry_multiplicity
 _atom_site_fract_x
 _atom_site_fract_y
 _atom_site_fract_z
 _atom_site_occupancy
  Co  Co0  1  0.37361000  0.88012000  0.24882000  1
  Co  Co1  1  0.12696000  0.38395000  0.74792000  1
  Co  Co2  1  0.62243000  0.38012000  0.75118000  1
  Co  Co3  1  0.87488000  0.88395000  0.25208000  1
  H  H4  1  0.70720000  0.76730000  0.12580000  1
  H  H5  1  0.85940000  0.63980000  0.98340000  1
  H  H6  1  0.48240000  0.61460000  0.93560000  1
  H  H7  1  0.34230000  0.74200000  0.08080000  1
  H  H8  1  0.34250000  0.49070000  0.56220000  1
  H  H9  1  0.34640000  0.61190000  0.41520000  1
  H  H10  1  0.90130000  0.63690000  0.48940000  1
  H  H11  1  0.91170000  0.51100000  0.63360000  1
  H  H12  1  0.19780000  0.16690000  0.30840000  1
  H  H13  1  0.05360000  0.29630000  0.45120000  1
  H  H14  1  0.11390000  0.98270000  0.62960000  1
  H  H15  1  0.24430000  0.85810000  0.48460000  1
  H  H16  1  0.99270000  0.40650000  0.98620000  1
  H  H17  1  0.98070000  0.28220000  0.13260000  1
  H  H18  1  0.27140000  0.98020000  0.95260000  1
  H  H19  1  0.25640000  0.10740000  0.81120000  1
  H  H20  1  0.83300000  0.26730000  0.87420000  1
  H  H21  1  0.84280000  0.13980000  0.01660000  1
  H  H22  1  0.41800000  0.11460000  0.06440000  1
  H  H23  1  0.42310000  0.24200000  0.91920000  1
  H  H24  1  0.90470000  0.99070000  0.43780000  1
  H  H25  1  0.76160000  0.11190000  0.58480000  1
  H  H26  1  0.39070000  0.13690000  0.51060000  1
  H  H27  1  0.54530000  0.01100000  0.36640000  1
  H  H28  1  0.50620000  0.66690000  0.69160000  1
  H  H29  1  0.50480000  0.79630000  0.54880000  1
  H  H30  1  0.74350000  0.48270000  0.37040000  1
  H  H31  1  0.72890000  0.35810000  0.51540000  1
  H  H32  1  0.97890000  0.90650000  0.01380000  1
  H  H33  1  0.11330000  0.78220000  0.86740000  1
  H  H34  1  0.22400000  0.48020000  0.04740000  1
  H  H35  1  0.06760000  0.60740000  0.18880000  1
  C  C36  1  0.66122000  0.73530000  0.08696000  1
  C  C37  1  0.75319000  0.66020000  0.00142000  1
  C  C38  1  0.68715000  0.61520000  0.94230000  1
  C  C39  1  0.53139000  0.64510000  0.97322000  1
  C  C40  1  0.44881000  0.72060000  0.06038000  1
  C  C41  1  0.78400000  0.53350000  0.84780000  1
  C  C42  1  0.25209000  0.52100000  0.54722000  1
  C  C43  1  0.25514000  0.59400000  0.45972000  1
  C  C44  1  0.12445000  0.64040000  0.43790000  1
  C  C45  1  0.99286000  0.60830000  0.50328000  1
  C  C46  1  0.00041000  0.53340000  0.58898000  1
  C  C47  1  0.11920000  0.72610000  0.34600000  1
  C  C48  1  0.17895000  0.12850000  0.37430000  1
  C  C49  1  0.09349000  0.20620000  0.45922000  1
  C  C50  1  0.06621000  0.15190000  0.55618000  1
  C  C51  1  0.12711000  0.02200000  0.56418000  1
  C  C52  1  0.20739000  0.94890000  0.47742000  1
  C  C53  1  0.96900000  0.23330000  0.65060000  1
  C  C54  1  0.04712000  0.31790000  0.97916000  1
  C  C55  1  0.04141000  0.24480000  0.06758000  1
  C  C56  1  0.12560000  0.11620000  0.06000000  1
  C  C57  1  0.21003000  0.06650000  0.96154000  1
  C  C58  1  0.20332000  0.14440000  0.87736000  1
  C  C59  1  0.12850000  0.03230000  0.15220000  1
  C  C60  1  0.74818000  0.23530000  0.91304000  1
  C  C61  1  0.75461000  0.16020000  0.99858000  1
  C  C62  1  0.62945000  0.11520000  0.05770000  1
  C  C63  1  0.50461000  0.14510000  0.02678000  1
  C  C64  1  0.50919000  0.22060000  0.93962000  1
  C  C65  1  0.63180000  0.03350000  0.15220000  1
  C  C66  1  0.79931000  0.02100000  0.45278000  1
  C  C67  1  0.71486000  0.09400000  0.54028000  1
  C  C68  1  0.56235000  0.14040000  0.56210000  1
  C  C69  1  0.49614000  0.10830000  0.49672000  1
  C  C70  1  0.58939000  0.03340000  0.41102000  1
  C  C71  1  0.46520000  0.22610000  0.65400000  1
  C  C72  1  0.55325000  0.62850000  0.62570000  1
  C  C73  1  0.55271000  0.70620000  0.54078000  1
  C  C74  1  0.62239000  0.65190000  0.44382000  1
  C  C75  1  0.69129000  0.52200000  0.43582000  1
  C  C76  1  0.68481000  0.44890000  0.52258000  1
  C  C77  1  0.61960000  0.73330000  0.34940000  1
  C  C78  1  0.02628000  0.81790000  0.02084000  1
  C  C79  1  0.10899000  0.74480000  0.93242000  1
  C  C80  1  0.18560000  0.61620000  0.94000000  1
  C  C81  1  0.17157000  0.56650000  0.03846000  1
  C  C82  1  0.08068000  0.64440000  0.12264000  1
  C  C83  1  0.28070000  0.53230000  0.84780000  1
  N  N84  1  0.51236000  0.76470000  0.11708000  1
  N  N85  1  0.12663000  0.49130000  0.61174000  1
  N  N86  1  0.23669000  0.99930000  0.38222000  1
  N  N87  1  0.12501000  0.27050000  0.88438000  1
  N  N88  1  0.62944000  0.26470000  0.88292000  1
  N  N89  1  0.73837000  0.99130000  0.38826000  1
  N  N90  1  0.61891000  0.49930000  0.61778000  1
  N  N91  1  0.00939000  0.77050000  0.11562000  1
  O  O92  1  0.92236000  0.50320000  0.83188000  1
  O  O93  1  0.71590000  0.50880000  0.79320000  1
  O  O94  1  0.23897000  0.74940000  0.28586000  1
  O  O95  1  0.99183000  0.76720000  0.33674000  1
  O  O96  1  0.02509000  0.25120000  0.71422000  1
  O  O97  1  0.83234000  0.27300000  0.65812000  1
  O  O98  1  0.00361000  0.02230000  0.21578000  1
  O  O99  1  0.25596000  0.98540000  0.15648000  1
  O  O100  1  0.75424000  0.00320000  0.16812000  1
  O  O101  1  0.50910000  0.00880000  0.20680000  1
  O  O102  1  0.52483000  0.24940000  0.71414000  1
  O  O103  1  0.32857000  0.26720000  0.66326000  1
  O  O104  1  0.73931000  0.75120000  0.28578000  1
  O  O105  1  0.49046000  0.77300000  0.34188000  1
  O  O106  1  0.21939000  0.52230000  0.78422000  1
  O  O107  1  0.41244000  0.48540000  0.84352000  1
