# Generated by pormake.
# Topology lon, (4)-cn, num edge types: 1
# Building blocks:
#     Node 0, Type 0, BuildingBlock: NAHDIM_clean_sbu_0, # of connection points: 4
#     Node 1, Type 0, BuildingBlock: NAHDIM_clean_sbu_0, # of connection points: 4
#     Node 2, Type 0, BuildingBlock: NAHDIM_clean_sbu_0, # of connection points: 4
#     Node 3, Type 0, BuildingBlock: NAHDIM_clean_sbu_0, # of connection points: 4
#     Edge 4, Type (0, 0), None
#     Edge 5, Type (0, 0), None
#     Edge 6, Type (0, 0), None
#     Edge 7, Type (0, 0), None
#     Edge 8, Type (0, 0), None
#     Edge 9, Type (0, 0), None
#     Edge 10, Type (0, 0), None
#     Edge 11, Type (0, 0), None
# Relax obj value: 0.022
# Max RMSD: 0.062
# Mean RMSD: 0.060
data_MOF--net-lon--node1-NAHDIM_clean_sbu_0--edge1-none
_symmetry_space_group_name_H-M    P1
_symmetry_Int_Tables_number       1
_symmetry_cell_setting            triclinic
loop_
_symmetry_equiv_pos_as_xyz
'x, y, z'
_cell_length_a     10.962049
_cell_length_b     11.55582
_cell_length_c     17.453074
_cell_angle_alpha  92.24246
_cell_angle_beta   89.997059
_cell_angle_gamma 118.33969
loop_
_atom_site_label
_atom_site_type_symbol
_atom_site_fract_x
_atom_site_fract_y
_atom_site_fract_z
_atom_type_partial_charge
C0 C 0.56818 0.58844 1.01429 0.0
O1 O 0.6088 0.70335 0.98454 0.0
O2 O 0.46723 0.83951 0.05993 0.0
Zn3 Zn 0.37254 0.65096 0.09748 0.0
O4 O 0.17115 0.54733 0.06094 0.0
C5 C 0.29157 0.68461 0.25079 0.0
O6 O 0.20181 0.7081 0.21393 0.0
O7 O 0.47146 0.54754 0.06261 0.0
C8 C 0.0976 0.4341 0.08745 0.0
O9 O 0.15377 0.38895 0.1365 0.0
C10 C 0.39954 0.90246 0.05158 0.0
O11 O 0.26605 0.84392 0.0647 0.0
O12 O 0.37611 0.65932 0.21328 0.0
C13 C 0.96401 0.54015 0.56878 0.0
O14 O 0.90101 0.60643 0.59335 0.0
O15 O 0.59383 0.40013 0.56056 0.0
Zn16 Zn 0.70226 0.31128 0.59374 0.0
O17 O 0.63007 0.14146 0.53327 0.0
C18 C 0.57939 0.26148 0.74413 0.0
O19 O 0.46708 0.24041 0.70592 0.0
O20 O 0.89977 0.41549 0.56529 0.0
C21 C 0.58191 0.03128 0.56374 0.0
O22 O 0.57944 0.02525 0.63872 0.0
C23 C 0.47026 0.33398 0.53445 0.0
O24 O 0.41031 0.20491 0.53016 0.0
O25 O 0.69061 0.29048 0.70844 0.0
C26 C 0.395 0.40234 0.51014 0.0
O27 O 0.26559 0.33604 0.48569 0.0
O28 O 0.16504 0.54239 0.5183 0.0
Zn29 Zn 0.36239 0.63122 0.48507 0.0
O30 O 0.46033 0.80106 0.5455 0.0
C31 C 0.289 0.68055 0.33466 0.0
O32 O 0.19754 0.70128 0.37287 0.0
O33 O 0.45558 0.527 0.51351 0.0
C34 C 0.52176 0.91127 0.515 0.0
O35 O 0.52442 0.9173 0.44003 0.0
C36 C 0.1077 0.60852 0.54448 0.0
O37 O 0.17695 0.7376 0.54883 0.0
O38 O 0.37147 0.65193 0.37036 0.0
C39 C 0.95078 0.35372 0.06444 0.0
O40 O 0.87643 0.23873 0.09411 0.0
O41 O 0.59874 0.10271 1.01883 0.0
Zn42 Zn 0.6926 0.29128 0.98131 0.0
O43 O 0.59485 0.39486 1.01785 0.0
C44 C 0.5779 0.25738 0.828 0.0
O45 O 0.46453 0.23355 0.86487 0.0
O46 O 0.89498 0.39471 1.01619 0.0
C47 C 0.63455 0.50805 0.9913 0.0
O48 O 0.73585 0.55316 0.9422 0.0
C49 C 0.46808 0.03964 1.02726 0.0
O50 O 0.39303 0.09806 1.01424 0.0
O51 O 0.68783 0.28295 0.86551 0.0
loop_
_geom_bond_atom_site_label_1
_geom_bond_atom_site_label_2
_geom_bond_distance
_geom_bond_site_symmetry_2
_ccdc_geom_bond_type
C0 O1 1.160 . S
C0 O7 1.185 1_556 S
O1 C0 1.160 . S
O2 Zn3 1.899 . S
O2 C10 1.284 . S
Zn3 O2 1.899 . S
Zn3 O4 2.032 . S
Zn3 O7 2.086 . S
Zn3 O12 1.977 . S
O4 Zn3 2.032 . S
O4 C8 1.278 . S
C5 O6 1.203 . S
C5 O12 1.267 . S
O6 C5 1.203 . S
O7 C0 1.185 1_554 S
O7 Zn3 2.086 . S
C8 O4 1.278 . S
C8 O9 1.211 . S
O9 C8 1.211 . S
C10 O2 1.284 . S
C10 O11 1.273 . S
O11 C10 1.273 . S
O12 Zn3 1.977 . S
O12 C5 1.267 . S
C13 O14 1.160 . S
C13 O20 1.185 . S
O14 C13 1.160 . S
O15 Zn16 1.899 . S
O15 C23 1.284 . S
Zn16 O15 1.899 . S
Zn16 O17 2.032 . S
Zn16 O20 2.086 . S
Zn16 O25 1.977 . S
O17 Zn16 2.032 . S
O17 C21 1.278 . S
C18 O19 1.203 . S
C18 O25 1.267 . S
O19 C18 1.203 . S
O20 C13 1.185 . S
O20 Zn16 2.086 . S
C21 O17 1.278 . S
C21 O22 1.211 . S
O22 C21 1.211 . S
C23 O15 1.284 . S
C23 O24 1.273 . S
O24 C23 1.273 . S
O25 Zn16 1.977 . S
O25 C18 1.267 . S
C26 O27 1.160 . S
C26 O33 1.185 . S
O27 C26 1.160 . S
O28 Zn29 1.899 . S
O28 C36 1.284 . S
Zn29 O28 1.899 . S
Zn29 O30 2.032 . S
Zn29 O33 2.086 . S
Zn29 O38 1.977 . S
O30 Zn29 2.032 . S
O30 C34 1.278 . S
C31 O32 1.203 . S
C31 O38 1.267 . S
O32 C31 1.203 . S
O33 C26 1.185 . S
O33 Zn29 2.086 . S
C34 O30 1.278 . S
C34 O35 1.211 . S
O35 C34 1.211 . S
C36 O28 1.284 . S
C36 O37 1.273 . S
O37 C36 1.273 . S
O38 Zn29 1.977 . S
O38 C31 1.267 . S
C39 O40 1.160 . S
C39 O46 1.185 1_554 S
O40 C39 1.160 . S
O41 Zn42 1.899 . S
O41 C49 1.284 . S
Zn42 O41 1.899 . S
Zn42 O43 2.032 . S
Zn42 O46 2.086 . S
Zn42 O51 1.977 . S
O43 Zn42 2.032 . S
O43 C47 1.278 . S
C44 O45 1.203 . S
C44 O51 1.267 . S
O45 C44 1.203 . S
O46 C39 1.185 1_556 S
O46 Zn42 2.086 . S
C47 O43 1.278 . S
C47 O48 1.211 . S
O48 C47 1.211 . S
C49 O41 1.284 . S
C49 O50 1.273 . S
O50 C49 1.273 . S
O51 Zn42 1.977 . S
O51 C44 1.267 . S
C5 C31 1.488 . S
C18 C44 1.488 . S
C0 C47 1.469 . S
C36 C13 1.430 1_455 S
C49 C10 1.364 1_546 S
C23 C26 1.430 . S
C8 C39 1.468 1_455 S
C21 C34 1.648 1_545 S
