# Generated by pormake.
# Topology fnt, (5)-cn, num edge types: 1
# Building blocks:
#     Node 0, Type 0, BuildingBlock: BEQFEK_clean_sbu_0, # of connection points: 5
#     Node 1, Type 0, BuildingBlock: BEQFEK_clean_sbu_0, # of connection points: 5
#     Node 2, Type 0, BuildingBlock: BEQFEK_clean_sbu_0, # of connection points: 5
#     Node 3, Type 0, BuildingBlock: BEQFEK_clean_sbu_0, # of connection points: 5
#     Node 4, Type 0, BuildingBlock: BEQFEK_clean_sbu_0, # of connection points: 5
#     Node 5, Type 0, BuildingBlock: BEQFEK_clean_sbu_0, # of connection points: 5
#     Edge 6, Type (0, 0), None
#     Edge 7, Type (0, 0), None
#     Edge 8, Type (0, 0), None
#     Edge 9, Type (0, 0), None
#     Edge 10, Type (0, 0), None
#     Edge 11, Type (0, 0), None
#     Edge 12, Type (0, 0), None
#     Edge 13, Type (0, 0), None
#     Edge 14, Type (0, 0), None
#     Edge 15, Type (0, 0), None
#     Edge 16, Type (0, 0), None
#     Edge 17, Type (0, 0), None
#     Edge 18, Type (0, 0), None
#     Edge 19, Type (0, 0), None
#     Edge 20, Type (0, 0), None
# Relax obj value: 0.170
# Max RMSD: 0.159
# Mean RMSD: 0.159
data_MOF--net-fnt--node1-BEQFEK_clean_sbu_0--edge1-none
_symmetry_space_group_name_H-M    P1
_symmetry_Int_Tables_number       1
_symmetry_cell_setting            triclinic
loop_
_symmetry_equiv_pos_as_xyz
'x, y, z'
_cell_length_a     12.539832
_cell_length_b     12.539966
_cell_length_c     31.791401
_cell_angle_alpha  90.036922
_cell_angle_beta   89.956018
_cell_angle_gamma 120.0
loop_
_atom_site_label
_atom_site_type_symbol
_atom_site_fract_x
_atom_site_fract_y
_atom_site_fract_z
_atom_type_partial_charge
Co0 Co 0.15535 0.38247 0.09379 0.0
Co1 Co 0.20076 0.38862 0.99583 0.0
C2 C 0.40998 0.47272 0.05884 0.0
O3 O 0.34291 0.44557 0.09196 0.0
O4 O 0.36603 0.47491 0.0228 0.0
C5 C 0.06755 0.37912 0.18269 0.0
O6 O 0.1289 0.49981 0.18495 0.0
C7 C 0.31669 0.3349 0.92244 0.0
C8 C 0.19568 0.32302 0.87033 0.0
C9 C 0.29776 0.31229 0.87975 0.0
N10 N 0.22968 0.35848 0.93791 0.0
N11 N 0.15803 0.35131 0.90627 0.0
C12 C 0.40899 0.32082 0.94813 0.0
H13 H 0.38893 0.31742 0.98212 0.0
H14 H 0.40893 0.23551 0.93872 0.0
H15 H 0.50258 0.39695 0.94156 0.0
C16 C 0.01194 0.12386 0.07442 0.0
N17 N 0.08814 0.23956 0.06235 0.0
N18 N 0.12515 0.23992 0.02358 0.0
C19 C 0.08229 0.12365 0.011 0.0
C20 C 0.0089 0.04879 0.04265 0.0
C21 C 0.93218 0.08699 0.11289 0.0
H22 H 0.894 0.14927 0.11696 0.0
H23 H -0.01215 0.09396 0.14094 0.0
H24 H 0.85405 -0.00873 0.1105 0.0
O25 O 0.07256 0.47014 0.07044 0.0
O26 O 0.07136 0.44855 1.00091 0.0
H27 H 0.09627 0.1194 0.94363 0.0
H28 H 0.0777 0.98315 0.96933 0.0
C29 C 0.12017 0.08427 0.9719 0.0
H30 H 0.21982 0.11947 0.97318 0.0
H31 H 0.0822 0.36394 0.9093 0.0
O32 O 0.07849 0.32521 0.15054 0.0
C33 C 0.02832 0.47153 0.03434 0.0
Co34 Co 0.75584 0.16355 0.42712 0.0
Co35 Co 0.79496 0.20876 0.32916 0.0
C36 C 0.92004 0.41811 0.39217 0.0
O37 O 0.88021 0.35112 0.4253 0.0
O38 O 0.87385 0.37408 0.35614 0.0
C39 C 0.67166 0.07603 0.51606 0.0
O40 O 0.6125 0.13755 0.5184 0.0
C41 C 0.96456 0.32469 0.25579 0.0
C42 C 0.85546 0.2037 0.20365 0.0
C43 C 0.96824 0.30582 0.2131 0.0
N44 N 0.85399 0.23765 0.27124 0.0
N45 N 0.78953 0.166 0.23957 0.0
C46 C 0.07092 0.41699 0.28151 0.0
H47 H 0.05429 0.39684 0.3155 0.0
H48 H 0.15621 0.41703 0.27208 0.0
H49 H 0.08829 0.51056 0.27501 0.0
C50 C 0.87131 0.02037 0.40776 0.0
N51 N 0.83163 0.0964 0.39568 0.0
N52 N 0.86818 0.1333 0.3569 0.0
C53 C 0.94169 0.09053 0.34433 0.0
C54 C 0.94334 0.01733 0.37598 0.0
C55 C 0.82851 0.94069 0.44623 0.0
H56 H 0.72804 0.90242 0.45029 0.0
H57 H 0.8772 -0.00354 0.47428 0.0
H58 H 0.84619 0.86262 0.44384 0.0
O59 O 0.58535 0.08062 0.40377 0.0
O60 O 0.60564 0.07929 0.33424 0.0
H61 H 0.95959 0.10421 0.27695 0.0
H62 H 0.07735 0.08568 0.30259 0.0
C63 C 0.01875 0.1282 0.30519 0.0
H64 H 0.08325 0.22784 0.30643 0.0
H65 H 0.70109 0.09015 0.24258 0.0
O66 O 0.73628 0.08678 0.48387 0.0
C67 C 0.53968 0.0363 0.36767 0.0
Co68 Co 0.57586 0.76483 0.76046 0.0
Co69 Co 0.56966 0.80365 0.66249 0.0
C70 C 0.48542 0.92888 0.72551 0.0
O71 O 0.5126 0.88914 0.75864 0.0
O72 O 0.48325 0.88261 0.68948 0.0
C73 C 0.57907 0.68062 0.84935 0.0
O74 O 0.45838 0.62134 0.85159 0.0
C75 C 0.62326 0.97314 0.58915 0.0
C76 C 0.63495 0.86393 0.53698 0.0
C77 C 0.6457 0.97676 0.54645 0.0
N78 N 0.59971 0.86257 0.60458 0.0
N79 N 0.60678 0.79805 0.57289 0.0
C80 C 0.63738 0.07953 0.6149 0.0
H81 H 0.64109 0.06298 0.64888 0.0
H82 H 0.72254 0.16483 0.60544 0.0
H83 H 0.56108 0.0968 0.60846 0.0
C84 C 0.83451 0.8804 0.74112 0.0
N85 N 0.71878 0.84061 0.72902 0.0
N86 N 0.71839 0.87695 0.69023 0.0
C87 C 0.83465 0.9504 0.67764 0.0
C88 C 0.90954 0.95227 0.70932 0.0
C89 C 0.87144 0.83782 0.77961 0.0
H90 H 0.80932 0.73736 0.78369 0.0
H91 H 0.86428 0.88658 0.80765 0.0
H92 H 0.96723 0.85559 0.77725 0.0
O93 O 0.48835 0.59428 0.73711 0.0
O94 O 0.50981 0.61436 0.66757 0.0
H95 H 0.83871 0.96772 0.61025 0.0
H96 H -0.0249 0.08566 0.63583 0.0
C97 C 0.87398 0.02712 0.63845 0.0
H98 H 0.83891 0.09169 0.63963 0.0
H99 H 0.59415 0.70959 0.57588 0.0
O100 O 0.63308 0.74539 0.81722 0.0
C101 C 0.48692 0.5485 0.701 0.0
Co102 Co 0.79379 0.58397 0.09379 0.0
Co103 Co 0.74868 0.57795 0.99583 0.0
C104 C 0.53932 0.49416 0.05883 0.0
O105 O 0.60629 0.52127 0.09195 0.0
O106 O 0.58333 0.49188 0.02279 0.0
C107 C 0.88122 0.58716 0.18266 0.0
O108 O 0.81971 0.46647 0.18487 0.0
C109 C 0.63318 0.63197 0.92245 0.0
C110 C 0.75438 0.64387 0.87034 0.0
C111 C 0.65226 0.6546 0.87977 0.0
N112 N 0.72009 0.60831 0.93791 0.0
N113 N 0.79187 0.61553 0.90626 0.0
C114 C 0.54078 0.64605 0.94814 0.0
H115 H 0.56057 0.64922 0.98214 0.0
H116 H 0.54108 0.73151 0.93881 0.0
H117 H 0.44719 0.57006 0.94149 0.0
C118 C 0.93836 0.84246 0.07436 0.0
N119 N 0.86157 0.72683 0.06234 0.0
N120 N 0.82447 0.72658 0.02362 0.0
C121 C 0.86783 0.84288 0.01103 0.0
C122 C 0.9417 0.91763 0.04261 0.0
C123 C 0.01813 0.87911 0.1128 0.0
H124 H 0.05583 0.81644 0.11685 0.0
H125 H 0.96258 0.87253 0.14088 0.0
H126 H 0.09654 0.97468 0.11037 0.0
O127 O 0.87616 0.4958 0.07044 0.0
O128 O 0.8779 0.51779 1.00092 0.0
H129 H 0.8534 0.84751 0.94371 0.0
H130 H 0.87194 -0.01647 0.96963 0.0
C131 C 0.82961 0.88241 0.97209 0.0
H132 H 0.72993 0.84703 0.9735 0.0
H133 H 0.86767 0.60286 0.90928 0.0
O134 O 0.87051 0.64121 0.15054 0.0
C135 C 0.92064 0.49457 0.03433 0.0
Co136 Co 0.19277 0.80199 0.42713 0.0
Co137 Co 0.15355 0.75666 0.32917 0.0
C138 C 0.02795 0.54746 0.39216 0.0
O139 O 0.06789 0.6145 0.42528 0.0
O140 O 0.07419 0.59137 0.35612 0.0
C141 C 0.2773 0.88972 0.51595 0.0
O142 O 0.33669 0.82841 0.51807 0.0
C143 C -0.01601 0.64116 0.25576 0.0
C144 C 0.09332 0.76237 0.20369 0.0
C145 C -0.01955 0.66027 0.21309 0.0
N146 N 0.09457 0.72804 0.27125 0.0
N147 N 0.15915 0.79982 0.23962 0.0
C148 C 0.87748 0.54878 0.28143 0.0
H149 H 0.89413 0.56849 0.31544 0.0
H150 H 0.79237 0.5492 0.27212 0.0
H151 H 0.85977 0.45517 0.27472 0.0
C152 C 0.07914 0.9468 0.40769 0.0
N153 N 0.11778 0.86982 0.39568 0.0
N154 N 0.08083 0.83261 0.35696 0.0
C155 C 0.00799 0.87606 0.34437 0.0
C156 C 0.00732 0.95014 0.37593 0.0
C157 C 0.12234 0.02665 0.44612 0.0
H158 H 0.2227 0.06425 0.45018 0.0
H159 H 0.07335 0.9712 0.4742 0.0
H160 H 0.10529 0.10512 0.44368 0.0
O161 O 0.36329 0.88423 0.40378 0.0
O162 O 0.34295 0.88583 0.33426 0.0
H163 H -0.01138 0.86134 0.27706 0.0
H164 H 0.87123 0.87994 0.30303 0.0
C165 C 0.93006 0.83764 0.30547 0.0
H166 H 0.8658 0.73797 0.30691 0.0
H167 H 0.24762 0.87559 0.24266 0.0
O168 O 0.21227 0.87879 0.48389 0.0
C169 C 0.40896 0.92863 0.36767 0.0
Co170 Co 0.37435 0.20176 0.76045 0.0
Co171 Co 0.38034 0.16225 0.6625 0.0
C172 C 0.46398 0.03679 0.72549 0.0
O173 O 0.4369 0.07682 0.75861 0.0
O174 O 0.4663 0.08295 0.68945 0.0
C175 C 0.37102 0.28625 0.84932 0.0
O176 O 0.49172 0.34561 0.85154 0.0
C177 C 0.32621 -0.00742 0.58906 0.0
C178 C 0.31413 0.1018 0.53703 0.0
C179 C 0.30345 -0.01102 0.5464 0.0
N180 N 0.3499 0.10316 0.60457 0.0
N181 N 0.34258 0.16768 0.57297 0.0
C182 C 0.31215 0.8861 0.6147 0.0
H183 H 0.30928 0.90283 0.64872 0.0
H184 H 0.22653 0.80101 0.60542 0.0
H185 H 0.38796 0.86829 0.60793 0.0
C186 C 0.11591 0.08823 0.741 0.0
N187 N 0.23151 0.12676 0.729 0.0
N188 N 0.23173 0.0896 0.6903 0.0
C189 C 0.11541 0.0167 0.67772 0.0
C190 C 0.04071 0.01624 0.70927 0.0
C191 C 0.07932 0.13165 0.77941 0.0
H192 H 0.14217 0.23201 0.78345 0.0
H193 H 0.0857 0.08274 0.8075 0.0
H194 H -0.01617 0.11469 0.77694 0.0
O195 O 0.46269 0.37222 0.73711 0.0
O196 O 0.44058 0.35167 0.6676 0.0
H197 H 0.11061 -0.00325 0.61042 0.0
H198 H 0.97473 0.87954 0.63647 0.0
C199 C 0.07585 0.93843 0.63888 0.0
H200 H 0.11134 0.87425 0.64039 0.0
H201 H 0.35523 0.25613 0.57603 0.0
O202 O 0.31706 0.22136 0.81721 0.0
C203 C 0.46387 0.41778 0.70101 0.0
loop_
_geom_bond_atom_site_label_1
_geom_bond_atom_site_label_2
_geom_bond_distance
_geom_bond_site_symmetry_2
_ccdc_geom_bond_type
Co0 O3 1.970 . S
Co0 N17 1.989 . S
Co0 O25 1.967 . S
Co0 O32 1.920 . S
Co1 O4 1.966 1_556 S
Co1 N10 2.022 . S
Co1 N18 1.993 1_556 S
Co1 O26 1.941 . S
C2 O3 1.258 . S
C2 O4 1.263 . S
O3 Co0 1.970 . S
O3 C2 1.258 . S
O4 Co1 1.966 1_554 S
O4 C2 1.263 . S
C5 O6 1.235 . S
C5 O32 1.289 . S
O6 C5 1.235 . S
C7 C9 1.400 . S
C7 N10 1.351 . S
C7 C12 1.501 . S
C8 C9 1.387 . S
C8 N11 1.341 . S
C9 C7 1.400 . S
C9 C8 1.387 . S
N10 Co1 2.022 . S
N10 C7 1.351 . S
N10 N11 1.365 . S
N11 C8 1.341 . S
N11 N10 1.365 . S
N11 H31 0.862 . S
C12 C7 1.501 . S
C12 H13 0.961 . S
C12 H14 0.961 . S
C12 H15 0.960 . S
H13 C12 0.961 . S
H14 C12 0.961 . S
H15 C12 0.960 . S
C16 N17 1.342 . S
C16 C20 1.401 1_445 S
C16 C21 1.499 1_455 S
N17 Co0 1.989 . S
N17 C16 1.342 . S
N17 N18 1.388 . S
N18 Co1 1.993 1_554 S
N18 N17 1.388 . S
N18 C19 1.346 . S
C19 N18 1.346 . S
C19 C20 1.396 1_445 S
C19 C29 1.510 1_554 S
C20 C16 1.401 1_665 S
C20 C19 1.396 1_665 S
C21 C16 1.499 1_655 S
C21 H22 0.959 . S
C21 H23 0.960 1_545 S
C21 H24 0.961 1_545 S
H22 C21 0.959 . S
H23 C21 0.960 1_565 S
H24 C21 0.961 1_565 S
O25 Co0 1.967 . S
O25 C33 1.258 . S
O26 Co1 1.941 . S
O26 C33 1.266 1_556 S
H27 C29 0.959 1_665 S
H28 C29 0.961 1_565 S
C29 C19 1.510 1_556 S
C29 H27 0.959 1_445 S
C29 H28 0.961 1_545 S
C29 H30 0.960 . S
H30 C29 0.960 . S
H31 N11 0.862 . S
O32 Co0 1.920 . S
O32 C5 1.289 . S
C33 O25 1.258 . S
C33 O26 1.266 1_554 S
Co34 O37 1.970 . S
Co34 N51 1.989 . S
Co34 O59 1.967 . S
Co34 O66 1.920 . S
Co35 O38 1.966 . S
Co35 N44 2.022 . S
Co35 N52 1.993 . S
Co35 O60 1.941 . S
C36 O37 1.258 . S
C36 O38 1.263 . S
O37 Co34 1.970 . S
O37 C36 1.258 . S
O38 Co35 1.966 . S
O38 C36 1.263 . S
C39 O40 1.235 . S
C39 O66 1.289 . S
O40 C39 1.235 . S
C41 C43 1.401 . S
C41 N44 1.351 . S
C41 C46 1.501 1_655 S
C42 C43 1.387 . S
C42 N45 1.341 . S
C43 C41 1.401 . S
C43 C42 1.387 . S
N44 Co35 2.022 . S
N44 C41 1.351 . S
N44 N45 1.365 . S
N45 C42 1.341 . S
N45 N44 1.365 . S
N45 H65 0.862 . S
C46 C41 1.501 1_455 S
C46 H47 0.961 . S
C46 H48 0.961 . S
C46 H49 0.960 . S
H47 C46 0.961 . S
H48 C46 0.961 . S
H49 C46 0.960 . S
C50 N51 1.342 . S
C50 C54 1.401 1_545 S
C50 C55 1.499 1_545 S
N51 Co34 1.989 . S
N51 C50 1.342 . S
N51 N52 1.388 . S
N52 Co35 1.993 . S
N52 N51 1.388 . S
N52 C53 1.346 . S
C53 N52 1.346 . S
C53 C54 1.396 1_545 S
C53 C63 1.510 1_655 S
C54 C50 1.401 1_565 S
C54 C53 1.396 1_565 S
C55 C50 1.499 1_565 S
C55 H56 0.959 . S
C55 H57 0.960 1_655 S
C55 H58 0.961 . S
H56 C55 0.959 . S
H57 C55 0.960 1_455 S
H58 C55 0.961 . S
O59 Co34 1.967 . S
O59 C67 1.258 . S
O60 Co35 1.941 . S
O60 C67 1.266 . S
H61 C63 0.959 1_665 S
H62 C63 0.961 . S
C63 C53 1.510 1_455 S
C63 H61 0.959 1_445 S
C63 H62 0.961 . S
C63 H64 0.960 . S
H64 C63 0.960 . S
H65 N45 0.862 . S
O66 Co34 1.920 . S
O66 C39 1.289 . S
C67 O59 1.258 . S
C67 O60 1.266 . S
Co68 O71 1.970 . S
Co68 N85 1.989 . S
Co68 O93 1.967 . S
Co68 O100 1.920 . S
Co69 O72 1.966 . S
Co69 N78 2.022 . S
Co69 N86 1.993 . S
Co69 O94 1.941 . S
C70 O71 1.258 . S
C70 O72 1.263 . S
O71 Co68 1.970 . S
O71 C70 1.258 . S
O72 Co69 1.966 . S
O72 C70 1.263 . S
C73 O74 1.235 . S
C73 O100 1.289 . S
O74 C73 1.235 . S
C75 C77 1.400 . S
C75 N78 1.351 . S
C75 C80 1.501 1_565 S
C76 C77 1.388 . S
C76 N79 1.341 . S
C77 C75 1.400 . S
C77 C76 1.388 . S
N78 Co69 2.022 . S
N78 C75 1.351 . S
N78 N79 1.365 . S
N79 C76 1.341 . S
N79 N78 1.365 . S
N79 H99 0.862 . S
C80 C75 1.501 1_545 S
C80 H81 0.961 . S
C80 H82 0.961 . S
C80 H83 0.960 . S
H81 C80 0.961 . S
H82 C80 0.961 . S
H83 C80 0.960 . S
C84 N85 1.342 . S
C84 C88 1.401 1_655 S
C84 C89 1.499 . S
N85 Co68 1.989 . S
N85 C84 1.342 . S
N85 N86 1.388 . S
N86 Co69 1.993 . S
N86 N85 1.388 . S
N86 C87 1.346 . S
C87 N86 1.346 . S
C87 C88 1.396 1_655 S
C87 C97 1.510 1_565 S
C88 C84 1.401 1_455 S
C88 C87 1.396 1_455 S
C89 C84 1.499 . S
C89 H90 0.959 . S
C89 H91 0.960 1_665 S
C89 H92 0.961 1_655 S
H90 C89 0.959 . S
H91 C89 0.960 1_445 S
H92 C89 0.961 1_455 S
O93 Co68 1.967 . S
O93 C101 1.258 . S
O94 Co69 1.941 . S
O94 C101 1.266 . S
H95 C97 0.959 1_465 S
H96 C97 0.961 1_455 S
C97 C87 1.510 1_545 S
C97 H95 0.959 1_645 S
C97 H96 0.961 1_655 S
C97 H98 0.960 . S
H98 C97 0.960 . S
H99 N79 0.862 . S
O100 Co68 1.920 . S
O100 C73 1.289 . S
C101 O93 1.258 . S
C101 O94 1.266 . S
Co102 O105 1.970 . S
Co102 N119 1.989 . S
Co102 O127 1.967 . S
Co102 O134 1.920 . S
Co103 O106 1.966 1_556 S
Co103 N112 2.022 . S
Co103 N120 1.993 1_556 S
Co103 O128 1.941 . S
C104 O105 1.258 . S
C104 O106 1.263 . S
O105 Co102 1.970 . S
O105 C104 1.258 . S
O106 Co103 1.966 1_554 S
O106 C104 1.263 . S
C107 O108 1.235 . S
C107 O134 1.289 . S
O108 C107 1.235 . S
C109 C111 1.400 . S
C109 N112 1.351 . S
C109 C114 1.501 . S
C110 C111 1.387 . S
C110 N113 1.341 . S
C111 C109 1.400 . S
C111 C110 1.387 . S
N112 Co103 2.022 . S
N112 C109 1.351 . S
N112 N113 1.365 . S
N113 C110 1.341 . S
N113 N112 1.365 . S
N113 H133 0.862 . S
C114 C109 1.501 . S
C114 H115 0.961 . S
C114 H116 0.961 . S
C114 H117 0.960 . S
H115 C114 0.961 . S
H116 C114 0.961 . S
H117 C114 0.960 . S
C118 N119 1.342 . S
C118 C122 1.401 1_665 S
C118 C123 1.499 1_655 S
N119 Co102 1.989 . S
N119 C118 1.342 . S
N119 N120 1.388 . S
N120 Co103 1.993 1_554 S
N120 N119 1.388 . S
N120 C121 1.346 . S
C121 N120 1.346 . S
C121 C122 1.396 1_665 S
C121 C131 1.510 1_554 S
C122 C118 1.401 1_445 S
C122 C121 1.396 1_445 S
C123 C118 1.499 1_455 S
C123 H124 0.959 . S
C123 H125 0.960 1_565 S
C123 H126 0.961 1_565 S
H124 C123 0.959 . S
H125 C123 0.960 1_545 S
H126 C123 0.961 1_545 S
O127 Co102 1.967 . S
O127 C135 1.258 . S
O128 Co103 1.941 . S
O128 C135 1.266 1_556 S
H129 C131 0.959 1_445 S
H130 C131 0.961 1_545 S
C131 C121 1.510 1_556 S
C131 H129 0.959 1_665 S
C131 H130 0.961 1_565 S
C131 H132 0.960 . S
H132 C131 0.960 . S
H133 N113 0.862 . S
O134 Co102 1.920 . S
O134 C107 1.289 . S
C135 O127 1.258 . S
C135 O128 1.266 1_554 S
Co136 O139 1.970 . S
Co136 N153 1.989 . S
Co136 O161 1.967 . S
Co136 O168 1.920 . S
Co137 O140 1.966 . S
Co137 N146 2.022 . S
Co137 N154 1.993 . S
Co137 O162 1.941 . S
C138 O139 1.258 . S
C138 O140 1.263 . S
O139 Co136 1.970 . S
O139 C138 1.258 . S
O140 Co137 1.966 . S
O140 C138 1.263 . S
C141 O142 1.235 . S
C141 O168 1.289 . S
O142 C141 1.235 . S
C143 C145 1.401 . S
C143 N146 1.351 . S
C143 C148 1.501 1_455 S
C144 C145 1.387 . S
C144 N147 1.341 . S
C145 C143 1.401 . S
C145 C144 1.387 . S
N146 Co137 2.022 . S
N146 C143 1.351 . S
N146 N147 1.365 . S
N147 C144 1.341 . S
N147 N146 1.365 . S
N147 H167 0.862 . S
C148 C143 1.501 1_655 S
C148 H149 0.961 . S
C148 H150 0.961 . S
C148 H151 0.960 . S
H149 C148 0.961 . S
H150 C148 0.961 . S
H151 C148 0.960 . S
C152 N153 1.342 . S
C152 C156 1.401 1_565 S
C152 C157 1.499 1_565 S
N153 Co136 1.989 . S
N153 C152 1.342 . S
N153 N154 1.388 . S
N154 Co137 1.993 . S
N154 N153 1.388 . S
N154 C155 1.346 . S
C155 N154 1.346 . S
C155 C156 1.396 1_565 S
C155 C165 1.510 1_455 S
C156 C152 1.401 1_545 S
C156 C155 1.396 1_545 S
C157 C152 1.499 1_545 S
C157 H158 0.959 . S
C157 H159 0.960 1_455 S
C157 H160 0.961 . S
H158 C157 0.959 . S
H159 C157 0.960 1_655 S
H160 C157 0.961 . S
O161 Co136 1.967 . S
O161 C169 1.258 . S
O162 Co137 1.941 . S
O162 C169 1.266 . S
H163 C165 0.959 1_445 S
H164 C165 0.961 . S
C165 C155 1.510 1_655 S
C165 H163 0.959 1_665 S
C165 H164 0.961 . S
C165 H166 0.960 . S
H166 C165 0.960 . S
H167 N147 0.862 . S
O168 Co136 1.920 . S
O168 C141 1.289 . S
C169 O161 1.258 . S
C169 O162 1.266 . S
Co170 O173 1.970 . S
Co170 N187 1.989 . S
Co170 O195 1.967 . S
Co170 O202 1.920 . S
Co171 O174 1.966 . S
Co171 N180 2.022 . S
Co171 N188 1.993 . S
Co171 O196 1.941 . S
C172 O173 1.258 . S
C172 O174 1.263 . S
O173 Co170 1.970 . S
O173 C172 1.258 . S
O174 Co171 1.966 . S
O174 C172 1.263 . S
C175 O176 1.235 . S
C175 O202 1.289 . S
O176 C175 1.235 . S
C177 C179 1.400 . S
C177 N180 1.351 . S
C177 C182 1.501 1_545 S
C178 C179 1.388 . S
C178 N181 1.341 . S
C179 C177 1.400 . S
C179 C178 1.388 . S
N180 Co171 2.022 . S
N180 C177 1.351 . S
N180 N181 1.365 . S
N181 C178 1.341 . S
N181 N180 1.365 . S
N181 H201 0.862 . S
C182 C177 1.501 1_565 S
C182 H183 0.961 . S
C182 H184 0.961 . S
C182 H185 0.960 . S
H183 C182 0.961 . S
H184 C182 0.961 . S
H185 C182 0.960 . S
C186 N187 1.342 . S
C186 C190 1.401 1_455 S
C186 C191 1.499 . S
N187 Co170 1.989 . S
N187 C186 1.342 . S
N187 N188 1.388 . S
N188 Co171 1.993 . S
N188 N187 1.388 . S
N188 C189 1.346 . S
C189 N188 1.346 . S
C189 C190 1.396 1_455 S
C189 C199 1.510 1_545 S
C190 C186 1.401 1_655 S
C190 C189 1.396 1_655 S
C191 C186 1.499 . S
C191 H192 0.959 . S
C191 H193 0.960 1_445 S
C191 H194 0.961 1_455 S
H192 C191 0.959 . S
H193 C191 0.960 1_665 S
H194 C191 0.961 1_655 S
O195 Co170 1.967 . S
O195 C203 1.258 . S
O196 Co171 1.941 . S
O196 C203 1.266 . S
H197 C199 0.959 1_645 S
H198 C199 0.961 1_655 S
C199 C189 1.510 1_565 S
C199 H197 0.959 1_465 S
C199 H198 0.961 1_455 S
C199 H200 0.960 . S
H200 C199 0.960 . S
H201 N181 0.862 . S
O202 Co170 1.920 . S
O202 C175 1.289 . S
C203 O195 1.258 . S
C203 O196 1.266 . S
C2 C104 2.013 . S
C36 C138 2.014 1_655 S
C172 C70 2.014 1_545 S
C101 C203 2.328 . S
C135 C33 2.328 1_655 S
C169 C67 2.328 1_565 S
C20 C122 0.487 1_665 S
C156 C54 0.487 1_445 S
C190 C88 0.487 1_645 S
C9 C175 2.192 . S
C5 C43 2.193 1_455 S
C39 C77 2.193 1_545 S
C73 C111 2.193 . S
C107 C145 2.193 1_655 S
C179 C141 2.193 1_545 S
