# Generated by pormake.
# Topology dmp, (4)-cn, num edge types: 1
# Building blocks:
#     Node 0, Type 0, BuildingBlock: ESEHIV_clean_sbu_0, # of connection points: 4
#     Node 1, Type 0, BuildingBlock: ESEHIV_clean_sbu_0, # of connection points: 4
#     Node 2, Type 0, BuildingBlock: ESEHIV_clean_sbu_0, # of connection points: 4
#     Node 3, Type 0, BuildingBlock: ESEHIV_clean_sbu_0, # of connection points: 4
#     Edge 4, Type (0, 0), BuildingBlock: KIFKEQ_clean_linker_1, # of connection points: 2
#     Edge 5, Type (0, 0), BuildingBlock: KIFKEQ_clean_linker_1, # of connection points: 2
#     Edge 6, Type (0, 0), BuildingBlock: KIFKEQ_clean_linker_1, # of connection points: 2
#     Edge 7, Type (0, 0), BuildingBlock: KIFKEQ_clean_linker_1, # of connection points: 2
#     Edge 8, Type (0, 0), BuildingBlock: KIFKEQ_clean_linker_1, # of connection points: 2
#     Edge 9, Type (0, 0), BuildingBlock: KIFKEQ_clean_linker_1, # of connection points: 2
#     Edge 10, Type (0, 0), BuildingBlock: KIFKEQ_clean_linker_1, # of connection points: 2
#     Edge 11, Type (0, 0), BuildingBlock: KIFKEQ_clean_linker_1, # of connection points: 2
# Relax obj value: 0.000
# Max RMSD: 0.010
# Mean RMSD: 0.010
data_MOF--net-dmp--node1-ESEHIV_clean_sbu_0--edge1-KIFKEQ_clean_linker_1
_symmetry_space_group_name_H-M    P1
_symmetry_Int_Tables_number       1
_symmetry_cell_setting            triclinic
loop_
_symmetry_equiv_pos_as_xyz
'x, y, z'
_cell_length_a     39.637276
_cell_length_b     24.985864
_cell_length_c     6.0911712
_cell_angle_alpha  90.13869
_cell_angle_beta   90.15754
_cell_angle_gamma 99.236864
loop_
_atom_site_label
_atom_site_type_symbol
_atom_site_fract_x
_atom_site_fract_y
_atom_site_fract_z
_atom_type_partial_charge
Cu0 Cu 0.15188 0.28556 0.22982 0.0
N1 N 0.18213 0.25651 0.04172 0.0
N2 N 0.21447 0.19578 0.92542 0.0
C3 C 0.18871 0.20523 0.05819 0.0
C4 C 0.22445 0.24335 0.82103 0.0
C5 C 0.2047 0.28058 0.89419 0.0
O6 O 0.11767 0.22261 0.30128 0.0
C7 C 0.19904 0.36585 0.39759 0.0
O8 O 0.19889 0.37794 0.18826 0.0
H9 H 0.17591 0.1763 0.17474 0.0
H10 H 0.20771 0.32277 0.85027 0.0
N11 N 0.12775 0.33893 0.1182 0.0
N12 N 0.0935 0.40197 0.14397 0.0
C13 C 0.11391 0.37259 0.25215 0.0
C14 C 0.11616 0.34815 0.91592 0.0
C15 C 0.09465 0.38662 0.93185 0.0
C16 C 0.10029 0.20437 0.13237 0.0
O17 O 0.10655 0.22963 0.94472 0.0
H18 H 0.1173 0.3734 0.42829 0.0
H19 H 0.1216 0.32663 0.7694 0.0
O20 O 0.17941 0.32362 0.46571 0.0
H21 H 0.24506 0.25135 0.70357 0.0
H22 H 0.08032 0.40109 0.79925 0.0
Cu23 Cu 0.39117 0.77327 0.22695 0.0
N24 N 0.35857 0.79915 0.04538 0.0
N25 N 0.3246 0.85788 0.93259 0.0
C26 C 0.35133 0.85008 0.06069 0.0
C27 C 0.31455 0.80955 0.83288 0.0
C28 C 0.33534 0.77355 0.90374 0.0
O29 O 0.42553 0.8378 0.2736 0.0
C30 C 0.34661 0.69204 0.40696 0.0
O31 O 0.34621 0.67881 0.19846 0.0
H32 H 0.36457 0.88011 0.17235 0.0
H33 H 0.33276 0.73127 0.8617 0.0
N34 N 0.41571 0.7203 0.1179 0.0
N35 N 0.44965 0.65637 0.14392 0.0
C36 C 0.43638 0.69618 0.24804 0.0
C37 C 0.41568 0.6951 0.92299 0.0
C38 C 0.43638 0.65558 0.93861 0.0
C39 C 0.4377 0.85547 0.08833 0.0
O40 O 0.42757 0.82722 0.91108 0.0
H41 H 0.44053 0.70691 0.41909 0.0
H42 H 0.40108 0.70387 0.7818 0.0
O43 O 0.36546 0.73581 0.47031 0.0
H44 H 0.29333 0.80033 0.71957 0.0
H45 H 0.44063 0.62792 0.80887 0.0
Cu46 Cu 0.89377 0.76837 0.77065 0.0
N47 N 0.86149 0.79849 0.93905 0.0
N48 N 0.82837 0.85973 0.03844 0.0
C49 C 0.85381 0.84863 0.90608 0.0
C50 C 0.81974 0.81425 0.15919 0.0
C51 C 0.83997 0.77678 0.09647 0.0
O52 O 0.93045 0.82975 0.72367 0.0
C53 C 0.84618 0.69234 0.5849 0.0
O54 O 0.84188 0.68341 0.79577 0.0
H55 H 0.86613 0.87568 0.7815 0.0
H56 H 0.83823 0.73595 0.15514 0.0
N57 N 0.91479 0.71269 0.89357 0.0
N58 N 0.94603 0.64507 0.87645 0.0
C59 C 0.92696 0.67616 0.76465 0.0
C60 C 0.92638 0.7043 0.09639 0.0
C61 C 0.94589 0.66309 0.08574 0.0
C62 C 0.94296 0.84853 0.90725 0.0
O63 O 0.93037 0.82496 0.08823 0.0
H64 H 0.92353 0.67489 0.58855 0.0
H65 H 0.92257 0.72815 0.23967 0.0
O66 O 0.86891 0.73144 0.52201 0.0
H67 H 0.79997 0.80785 0.28269 0.0
H68 H 0.96005 0.64935 0.22 0.0
Cu69 Cu 0.65253 0.28487 0.73244 0.0
N70 N 0.68411 0.25558 0.91022 0.0
N71 N 0.71653 0.19502 0.02164 0.0
C72 C 0.69314 0.20637 0.87491 0.0
C73 C 0.72296 0.23891 0.15325 0.0
C74 C 0.70331 0.27649 0.08153 0.0
O75 O 0.61786 0.22207 0.66619 0.0
C76 C 0.70126 0.36395 0.57529 0.0
O77 O 0.70343 0.37238 0.78777 0.0
H78 H 0.68284 0.17942 0.74307 0.0
H79 H 0.70415 0.31708 0.14221 0.0
N80 N 0.6283 0.33715 0.8489 0.0
N81 N 0.59555 0.40244 0.8275 0.0
C82 C 0.60758 0.36191 0.72157 0.0
C83 C 0.62926 0.36259 0.0442 0.0
C84 C 0.60919 0.40311 0.0313 0.0
C85 C 0.60559 0.20017 0.84448 0.0
O86 O 0.61595 0.22329 0.03214 0.0
H87 H 0.6027 0.35185 0.55022 0.0
H88 H 0.64414 0.35338 0.18339 0.0
O89 O 0.67939 0.32481 0.50167 0.0
H90 H 0.7415 0.24422 0.28561 0.0
H91 H 0.60522 0.43115 0.16095 0.0
H92 H 0.35389 0.96169 0.02494 0.0
H93 H 0.2593 0.8653 0.80888 0.0
H94 H 0.32691 0.04261 0.01802 0.0
H95 H 0.23268 0.94663 0.7944 0.0
H96 H 0.18565 0.09312 0.03841 0.0
H97 H 0.21234 1.01183 0.03467 0.0
H98 H 0.30474 0.10458 0.77359 0.0
H99 H 0.27855 0.18622 0.78486 0.0
C100 C 0.32736 0.95757 0.97568 0.0
C101 C 0.30888 0.90645 0.91871 0.0
C102 C 0.31193 1.0043 0.96922 0.0
C103 C 0.2775 1.00148 0.90579 0.0
C104 C 0.25909 0.95048 0.84664 0.0
C105 C 0.27455 0.90372 0.85256 0.0
C106 C 0.21172 0.09645 0.98143 0.0
C107 C 0.22983 0.1468 0.91313 0.0
C108 C 0.22697 0.04949 0.97692 0.0
C109 C 0.26083 0.05134 0.90424 0.0
C110 C 0.2788 0.10151 0.83336 0.0
C111 C 0.26354 0.14846 0.83744 0.0
H112 H 0.18079 0.43829 0.69233 0.0
H113 H 0.2676 0.38084 0.40631 0.0
H114 H 0.21788 0.52152 0.81247 0.0
H115 H 0.30455 0.46315 0.52212 0.0
H116 H 0.36843 0.61407 0.65476 0.0
H117 H 0.33267 0.5302 0.77247 0.0
H118 H 0.24264 0.59555 0.57707 0.0
H119 H 0.27852 0.67954 0.46765 0.0
C120 C 0.20809 0.44236 0.66518 0.0
C121 C 0.22154 0.40319 0.54215 0.0
C122 C 0.2293 0.49026 0.73123 0.0
C123 C 0.26423 0.49966 0.67454 0.0
C124 C 0.278 0.45752 0.5715 0.0
C125 C 0.25682 0.41007 0.50477 0.0
C126 C 0.34091 0.61163 0.65045 0.0
C127 C 0.32614 0.65354 0.55603 0.0
C128 C 0.32037 0.56319 0.71422 0.0
C129 C 0.28471 0.55545 0.68059 0.0
C130 C 0.26987 0.59985 0.60764 0.0
C131 C 0.29042 0.64823 0.54483 0.0
H132 H 0.71822 0.12659 0.36104 0.0
H133 H 0.75136 0.15641 0.6946 0.0
H134 H 0.74557 0.04511 0.37051 0.0
H135 H 0.77905 0.07542 0.70153 0.0
H136 H 0.85332 0.95869 0.86253 0.0
H137 H 0.82651 0.03956 0.86097 0.0
H138 H 0.74091 0.95439 0.22219 0.0
H139 H 0.76745 0.87327 0.22292 0.0
C140 C 0.73164 0.11565 0.21738 0.0
C141 C 0.73278 0.14743 0.02724 0.0
C142 C 0.74711 0.06891 0.22163 0.0
C143 C 0.76467 0.0535 0.03681 0.0
C144 C 0.76596 0.08598 0.84722 0.0
C145 C 0.74993 0.13208 0.84204 0.0
C146 C 0.82867 0.95667 0.94038 0.0
C147 C 0.81273 0.90858 0.04197 0.0
C148 C 0.81322 1.00339 0.93937 0.0
C149 C 0.7814 1.00377 0.04092 0.0
C150 C 0.76561 0.95603 0.14469 0.0
C151 C 0.78096 0.90919 0.14486 0.0
H152 H 0.869 0.61712 0.3227 0.0
H153 H 0.77809 0.67681 0.53 0.0
H154 H 0.83404 0.53206 0.2019 0.0
H155 H 0.74317 0.5927 0.41239 0.0
H156 H 0.6825 0.43733 0.28625 0.0
H157 H 0.71918 0.52022 0.16521 0.0
H158 H 0.80651 0.46294 0.45297 0.0
H159 H 0.76992 0.38029 0.56785 0.0
C160 C 0.84141 0.61309 0.33147 0.0
C161 C 0.82609 0.65336 0.43429 0.0
C162 C 0.82137 0.56419 0.26496 0.0
C163 C 0.78575 0.55497 0.30057 0.0
C164 C 0.77036 0.59813 0.38022 0.0
C165 C 0.79037 0.64657 0.44797 0.0
C166 C 0.70982 0.44121 0.31156 0.0
C167 C 0.72351 0.40223 0.43379 0.0
C168 C 0.73083 0.48907 0.24528 0.0
C169 C 0.76581 0.49883 0.30192 0.0
C170 C 0.77988 0.45695 0.40397 0.0
C171 C 0.7589 0.40942 0.4705 0.0
H172 H 0.04193 0.1833 0.89813 0.0
H173 H 0.10435 0.10981 0.35217 0.0
H174 H 1.00579 0.09646 0.83908 0.0
H175 H 0.06943 1.02145 0.28452 0.0
H176 H 0.98187 0.87952 0.26446 0.0
H177 H 1.01901 0.96444 0.33071 0.0
H178 H 1.00228 1.01405 0.66466 0.0
H179 H 0.96319 0.92906 0.60282 0.0
C180 C 0.0477 0.14831 0.9869 0.0
C181 C 0.07571 0.15328 0.13132 0.0
C182 C 0.02732 0.09814 0.94994 0.0
C183 C 0.03481 0.05109 0.0528 0.0
C184 C 0.06242 0.05653 0.20315 0.0
C185 C 0.08248 0.10723 0.2434 0.0
C186 C 0.98611 0.90846 0.13127 0.0
C187 C 0.96928 0.89765 0.92846 0.0
C188 C 1.00778 0.95735 0.16923 0.0
C189 C 1.01357 0.99708 0.00502 0.0
C190 C 0.9979 0.9852 0.79782 0.0
C191 C 0.97589 0.93608 0.76025 0.0
H192 H 0.61191 0.11625 0.1078 0.0
H193 H 0.54678 0.16714 0.60836 0.0
H194 H 0.57125 0.03426 0.16783 0.0
H195 H 0.50426 0.08696 0.67824 0.0
H196 H 0.44566 0.91647 0.72159 0.0
H197 H 0.48592 0.99767 0.65185 0.0
H198 H 0.52143 0.99696 0.3238 0.0
H199 H 0.48178 0.91292 0.38866 0.0
C200 C 0.5887 0.10953 0.01016 0.0
C201 C 0.58252 0.14765 0.85225 0.0
C202 C 0.56495 0.06284 0.04732 0.0
C203 C 0.53373 0.05358 0.93195 0.0
C204 C 0.528 0.0916 0.76951 0.0
C205 C 0.55235 0.13781 0.72834 0.0
C206 C 0.46223 0.93343 0.85464 0.0
C207 C 0.46073 0.90794 0.06067 0.0
C208 C 0.48529 0.98069 0.81486 0.0
C209 C 0.50769 1.00437 0.98005 0.0
C210 C 0.50535 0.97966 0.18951 0.0
C211 C 0.4822 0.93188 0.229 0.0
H212 H 0.93307 0.58895 0.49547 0.0
H213 H 1.00213 0.60899 0.04844 0.0
H214 H 0.96881 0.5333 0.31283 0.0
H215 H 0.03578 0.54723 0.88035 0.0
H216 H 0.11158 0.47676 0.46068 0.0
H217 H 0.07557 0.53368 0.64015 0.0
H218 H 0.98978 0.45886 0.24342 0.0
H219 H 0.02712 0.40597 0.05392 0.0
C220 C 0.95596 0.58137 0.57886 0.0
C221 C 0.96519 0.60553 0.78359 0.0
C222 C 0.97637 0.54802 0.47542 0.0
C223 C 1.00621 0.53558 0.57691 0.0
C224 C 1.0141 0.55696 0.78955 0.0
C225 C 0.99421 0.59187 0.88971 0.0
C226 C 0.08505 0.47328 0.41111 0.0
C227 C 0.07221 0.43726 0.24251 0.0
C228 C 0.064 0.50544 0.51638 0.0
C229 C 0.02903 0.50145 0.46088 0.0
C230 C 1.0164 0.46489 0.29086 0.0
C231 C 0.0378 0.43399 0.18137 0.0
H232 H 0.4838 0.66795 0.53627 0.0
H233 H 0.46784 0.56442 0.964 0.0
H234 H 0.51725 0.60678 0.70359 0.0
H235 H 0.50463 0.50609 0.12091 0.0
H236 H 0.54545 0.37864 0.52358 0.0
H237 H 0.51078 0.43977 0.35918 0.0
H238 H 0.56533 0.57209 0.74445 0.0
H239 H 0.59816 0.50944 0.91768 0.0
C240 C 0.48729 0.6322 0.44466 0.0
C241 C 0.47197 0.62118 0.23691 0.0
C242 C 0.50736 0.5971 0.54023 0.0
C243 C 0.51386 0.55023 0.42941 0.0
C244 C 0.49966 0.54037 0.21734 0.0
C245 C 0.47877 0.57478 0.1242 0.0
C246 C 0.54984 0.42082 0.57336 0.0
C247 C 0.57451 0.43905 0.73438 0.0
C248 C 0.53011 0.45639 0.47715 0.0
C249 C 0.53492 0.51185 0.53495 0.0
C250 C 0.55988 0.52989 0.69654 0.0
C251 C 0.57904 0.49392 0.79637 0.0
loop_
_geom_bond_atom_site_label_1
_geom_bond_atom_site_label_2
_geom_bond_distance
_geom_bond_site_symmetry_2
_ccdc_geom_bond_type
Cu0 N1 1.999 . S
Cu0 O6 1.974 . S
Cu0 N11 1.985 . S
Cu0 O20 1.959 . S
N1 Cu0 1.999 . S
N1 C3 1.263 . S
N1 C5 1.389 . S
N2 C3 1.358 . S
N2 C4 1.400 . S
C3 N1 1.263 . S
C3 N2 1.358 . S
C3 H9 0.930 . S
C4 N2 1.400 . S
C4 C5 1.351 . S
C4 H21 0.930 . S
C5 N1 1.389 . S
C5 C4 1.351 . S
C5 H10 0.930 . S
O6 Cu0 1.974 . S
O6 C16 1.282 . S
C7 O8 1.261 . S
C7 O20 1.251 . S
O8 C7 1.261 . S
H9 C3 0.930 . S
H10 C5 0.930 . S
N11 Cu0 1.985 . S
N11 C13 1.335 . S
N11 C14 1.390 . S
N12 C13 1.345 . S
N12 C15 1.336 . S
C13 N11 1.335 . S
C13 N12 1.345 . S
C13 H18 0.930 . S
C14 N11 1.390 . S
C14 C15 1.346 . S
C14 H19 0.930 . S
C15 N12 1.336 . S
C15 C14 1.346 . S
C15 H22 0.929 . S
C16 O6 1.282 . S
C16 O17 1.216 1_554 S
O17 C16 1.216 1_556 S
H18 C13 0.930 . S
H19 C14 0.930 . S
O20 Cu0 1.959 . S
O20 C7 1.251 . S
H21 C4 0.930 . S
H22 C15 0.929 . S
Cu23 N24 1.999 . S
Cu23 O29 1.974 . S
Cu23 N34 1.985 . S
Cu23 O43 1.959 . S
N24 Cu23 1.999 . S
N24 C26 1.263 . S
N24 C28 1.389 . S
N25 C26 1.358 . S
N25 C27 1.400 . S
C26 N24 1.263 . S
C26 N25 1.358 . S
C26 H32 0.930 . S
C27 N25 1.400 . S
C27 C28 1.351 . S
C27 H44 0.930 . S
C28 N24 1.389 . S
C28 C27 1.351 . S
C28 H33 0.930 . S
O29 Cu23 1.974 . S
O29 C39 1.282 . S
C30 O31 1.261 . S
C30 O43 1.251 . S
O31 C30 1.261 . S
H32 C26 0.930 . S
H33 C28 0.930 . S
N34 Cu23 1.985 . S
N34 C36 1.335 . S
N34 C37 1.390 . S
N35 C36 1.345 . S
N35 C38 1.336 . S
C36 N34 1.335 . S
C36 N35 1.345 . S
C36 H41 0.930 . S
C37 N34 1.390 . S
C37 C38 1.346 . S
C37 H42 0.930 . S
C38 N35 1.336 . S
C38 C37 1.346 . S
C38 H45 0.929 . S
C39 O29 1.282 . S
C39 O40 1.216 1_554 S
O40 C39 1.216 1_556 S
H41 C36 0.930 . S
H42 C37 0.930 . S
O43 Cu23 1.959 . S
O43 C30 1.251 . S
H44 C27 0.930 . S
H45 C38 0.929 . S
Cu46 N47 1.999 . S
Cu46 O52 1.974 . S
Cu46 N57 1.985 . S
Cu46 O66 1.959 . S
N47 Cu46 1.999 . S
N47 C49 1.263 . S
N47 C51 1.389 . S
N48 C49 1.358 . S
N48 C50 1.400 . S
C49 N47 1.263 . S
C49 N48 1.358 . S
C49 H55 0.930 . S
C50 N48 1.400 . S
C50 C51 1.351 . S
C50 H67 0.930 . S
C51 N47 1.389 . S
C51 C50 1.351 . S
C51 H56 0.930 . S
O52 Cu46 1.974 . S
O52 C62 1.282 . S
C53 O54 1.261 . S
C53 O66 1.251 . S
O54 C53 1.261 . S
H55 C49 0.930 . S
H56 C51 0.930 . S
N57 Cu46 1.985 . S
N57 C59 1.335 . S
N57 C60 1.390 . S
N58 C59 1.345 . S
N58 C61 1.336 . S
C59 N57 1.335 . S
C59 N58 1.345 . S
C59 H64 0.930 . S
C60 N57 1.390 . S
C60 C61 1.346 . S
C60 H65 0.930 . S
C61 N58 1.336 . S
C61 C60 1.346 . S
C61 H68 0.929 . S
C62 O52 1.282 . S
C62 O63 1.216 1_556 S
O63 C62 1.216 1_554 S
H64 C59 0.930 . S
H65 C60 0.930 . S
O66 Cu46 1.959 . S
O66 C53 1.251 . S
H67 C50 0.930 . S
H68 C61 0.929 . S
Cu69 N70 1.999 . S
Cu69 O75 1.974 . S
Cu69 N80 1.985 . S
Cu69 O89 1.959 . S
N70 Cu69 1.999 . S
N70 C72 1.263 . S
N70 C74 1.389 . S
N71 C72 1.358 . S
N71 C73 1.400 . S
C72 N70 1.263 . S
C72 N71 1.358 . S
C72 H78 0.930 . S
C73 N71 1.400 . S
C73 C74 1.351 . S
C73 H90 0.930 . S
C74 N70 1.389 . S
C74 C73 1.351 . S
C74 H79 0.930 . S
O75 Cu69 1.974 . S
O75 C85 1.282 . S
C76 O77 1.261 . S
C76 O89 1.251 . S
O77 C76 1.261 . S
H78 C72 0.930 . S
H79 C74 0.930 . S
N80 Cu69 1.985 . S
N80 C82 1.335 . S
N80 C83 1.390 . S
N81 C82 1.345 . S
N81 C84 1.336 . S
C82 N80 1.335 . S
C82 N81 1.345 . S
C82 H87 0.930 . S
C83 N80 1.390 . S
C83 C84 1.346 . S
C83 H88 0.930 . S
C84 N81 1.336 . S
C84 C83 1.346 . S
C84 H91 0.929 . S
C85 O75 1.282 . S
C85 O86 1.216 1_556 S
O86 C85 1.216 1_554 S
H87 C82 0.930 . S
H88 C83 0.930 . S
O89 Cu69 1.959 . S
O89 C76 1.251 . S
H90 C73 0.930 . S
H91 C84 0.929 . S
H92 C100 0.950 . S
H93 C105 0.950 . S
H94 C102 0.950 1_545 S
H95 C104 0.950 . S
H96 C106 0.950 . S
H97 C108 0.950 1_565 S
H98 C110 0.950 . S
H99 C111 0.950 . S
C100 H92 0.950 . S
C100 C101 1.386 . S
C100 C102 1.391 . S
C101 C100 1.386 . S
C101 C105 1.393 . S
C102 H94 0.950 1_565 S
C102 C100 1.391 . S
C102 C103 1.400 . S
C103 C102 1.400 . S
C103 C104 1.398 . S
C103 C109 1.491 1_565 S
C104 H95 0.950 . S
C104 C103 1.398 . S
C104 C105 1.391 . S
C105 H93 0.950 . S
C105 C101 1.393 . S
C105 C104 1.391 . S
C106 H96 0.950 . S
C106 C107 1.386 . S
C106 C108 1.391 . S
C107 C106 1.386 . S
C107 C111 1.393 . S
C108 H97 0.950 1_545 S
C108 C106 1.391 . S
C108 C109 1.400 . S
C109 C103 1.491 1_545 S
C109 C108 1.400 . S
C109 C110 1.398 . S
C110 H98 0.950 . S
C110 C109 1.398 . S
C110 C111 1.391 . S
C111 H99 0.950 . S
C111 C107 1.393 . S
C111 C110 1.391 . S
H112 C120 0.950 . S
H113 C125 0.950 . S
H114 C122 0.950 . S
H115 C124 0.950 . S
H116 C126 0.950 . S
H117 C128 0.950 . S
H118 C130 0.950 . S
H119 C131 0.950 . S
C120 H112 0.950 . S
C120 C121 1.386 . S
C120 C122 1.391 . S
C121 C120 1.386 . S
C121 C125 1.393 . S
C122 H114 0.950 . S
C122 C120 1.391 . S
C122 C123 1.400 . S
C123 C122 1.400 . S
C123 C124 1.398 . S
C123 C129 1.491 . S
C124 H115 0.950 . S
C124 C123 1.398 . S
C124 C125 1.391 . S
C125 H113 0.950 . S
C125 C121 1.393 . S
C125 C124 1.391 . S
C126 H116 0.950 . S
C126 C127 1.386 . S
C126 C128 1.391 . S
C127 C126 1.386 . S
C127 C131 1.393 . S
C128 H117 0.950 . S
C128 C126 1.391 . S
C128 C129 1.400 . S
C129 C123 1.491 . S
C129 C128 1.400 . S
C129 C130 1.398 . S
C130 H118 0.950 . S
C130 C129 1.398 . S
C130 C131 1.391 . S
C131 H119 0.950 . S
C131 C127 1.393 . S
C131 C130 1.391 . S
H132 C140 0.950 1_554 S
H133 C145 0.950 . S
H134 C142 0.950 1_564 S
H135 C144 0.950 . S
H136 C146 0.950 . S
H137 C148 0.950 1_545 S
H138 C150 0.950 1_554 S
H139 C151 0.950 1_554 S
C140 H132 0.950 1_556 S
C140 C141 1.386 . S
C140 C142 1.391 . S
C141 C140 1.386 . S
C141 C145 1.393 . S
C142 H134 0.950 1_546 S
C142 C140 1.391 . S
C142 C143 1.400 . S
C143 C142 1.400 . S
C143 C144 1.398 . S
C143 C149 1.491 1_545 S
C144 H135 0.950 . S
C144 C143 1.398 . S
C144 C145 1.391 . S
C145 H133 0.950 . S
C145 C141 1.393 . S
C145 C144 1.391 . S
C146 H136 0.950 . S
C146 C147 1.386 . S
C146 C148 1.391 . S
C147 C146 1.386 . S
C147 C151 1.393 . S
C148 H137 0.950 1_565 S
C148 C146 1.391 . S
C148 C149 1.400 . S
C149 C143 1.491 1_565 S
C149 C148 1.400 . S
C149 C150 1.398 . S
C150 H138 0.950 1_556 S
C150 C149 1.398 . S
C150 C151 1.391 . S
C151 H139 0.950 1_556 S
C151 C147 1.393 . S
C151 C150 1.391 . S
H152 C160 0.950 . S
H153 C165 0.950 . S
H154 C162 0.950 . S
H155 C164 0.950 . S
H156 C166 0.950 . S
H157 C168 0.950 . S
H158 C170 0.950 . S
H159 C171 0.950 . S
C160 H152 0.950 . S
C160 C161 1.386 . S
C160 C162 1.391 . S
C161 C160 1.386 . S
C161 C165 1.393 . S
C162 H154 0.950 . S
C162 C160 1.391 . S
C162 C163 1.400 . S
C163 C162 1.400 . S
C163 C164 1.398 . S
C163 C169 1.491 . S
C164 H155 0.950 . S
C164 C163 1.398 . S
C164 C165 1.391 . S
C165 H153 0.950 . S
C165 C161 1.393 . S
C165 C164 1.391 . S
C166 H156 0.950 . S
C166 C167 1.386 . S
C166 C168 1.391 . S
C167 C166 1.386 . S
C167 C171 1.393 . S
C168 H157 0.950 . S
C168 C166 1.391 . S
C168 C169 1.400 . S
C169 C163 1.491 . S
C169 C168 1.400 . S
C169 C170 1.398 . S
C170 H158 0.950 . S
C170 C169 1.398 . S
C170 C171 1.391 . S
C171 H159 0.950 . S
C171 C167 1.393 . S
C171 C170 1.391 . S
H172 C180 0.950 . S
H173 C185 0.950 . S
H174 C182 0.950 1_656 S
H175 C184 0.950 1_565 S
H176 C186 0.950 . S
H177 C188 0.950 1_454 S
H178 C190 0.950 1_545 S
H179 C191 0.950 . S
C180 H172 0.950 . S
C180 C181 1.386 . S
C180 C182 1.391 . S
C181 C180 1.386 . S
C181 C185 1.393 . S
C182 H174 0.950 1_454 S
C182 C180 1.391 . S
C182 C183 1.400 . S
C183 C182 1.400 . S
C183 C184 1.398 . S
C183 C189 1.491 1_444 S
C184 H175 0.950 1_545 S
C184 C183 1.398 . S
C184 C185 1.391 . S
C185 H173 0.950 . S
C185 C181 1.393 . S
C185 C184 1.391 . S
C186 H176 0.950 . S
C186 C187 1.386 . S
C186 C188 1.391 . S
C187 C186 1.386 . S
C187 C191 1.393 . S
C188 H177 0.950 1_656 S
C188 C186 1.391 . S
C188 C189 1.400 . S
C189 C183 1.491 1_666 S
C189 C188 1.400 . S
C189 C190 1.398 . S
C190 H178 0.950 1_565 S
C190 C189 1.398 . S
C190 C191 1.391 . S
C191 H179 0.950 . S
C191 C187 1.393 . S
C191 C190 1.391 . S
H192 C200 0.950 . S
H193 C205 0.950 . S
H194 C202 0.950 1_564 S
H195 C204 0.950 . S
H196 C206 0.950 . S
H197 C208 0.950 1_546 S
H198 C210 0.950 . S
H199 C211 0.950 . S
C200 H192 0.950 . S
C200 C201 1.386 . S
C200 C202 1.391 . S
C201 C200 1.386 . S
C201 C205 1.393 . S
C202 H194 0.950 1_546 S
C202 C200 1.391 . S
C202 C203 1.400 . S
C203 C202 1.400 . S
C203 C204 1.398 . S
C203 C209 1.491 1_546 S
C204 H195 0.950 . S
C204 C203 1.398 . S
C204 C205 1.391 . S
C205 H193 0.950 . S
C205 C201 1.393 . S
C205 C204 1.391 . S
C206 H196 0.950 . S
C206 C207 1.386 . S
C206 C208 1.391 . S
C207 C206 1.386 . S
C207 C211 1.393 . S
C208 H197 0.950 1_564 S
C208 C206 1.391 . S
C208 C209 1.400 . S
C209 C203 1.491 1_564 S
C209 C208 1.400 . S
C209 C210 1.398 . S
C210 H198 0.950 . S
C210 C209 1.398 . S
C210 C211 1.391 . S
C211 H199 0.950 . S
C211 C207 1.393 . S
C211 C210 1.391 . S
H212 C220 0.950 . S
H213 C225 0.950 . S
H214 C222 0.950 . S
H215 C224 0.950 . S
H216 C226 0.950 . S
H217 C228 0.950 . S
H218 C230 0.950 . S
H219 C231 0.950 . S
C220 H212 0.950 . S
C220 C221 1.386 . S
C220 C222 1.391 . S
C221 C220 1.386 . S
C221 C225 1.393 . S
C222 H214 0.950 . S
C222 C220 1.391 . S
C222 C223 1.400 . S
C223 C222 1.400 . S
C223 C224 1.398 1_655 S
C223 C229 1.491 1_655 S
C224 H215 0.950 . S
C224 C223 1.398 1_455 S
C224 C225 1.391 1_455 S
C225 H213 0.950 . S
C225 C221 1.393 . S
C225 C224 1.391 1_655 S
C226 H216 0.950 . S
C226 C227 1.386 . S
C226 C228 1.391 . S
C227 C226 1.386 . S
C227 C231 1.393 . S
C228 H217 0.950 . S
C228 C226 1.391 . S
C228 C229 1.400 . S
C229 C223 1.491 1_455 S
C229 C228 1.400 . S
C229 C230 1.398 1_455 S
C230 H218 0.950 . S
C230 C229 1.398 1_655 S
C230 C231 1.391 1_655 S
C231 H219 0.950 . S
C231 C227 1.393 . S
C231 C230 1.391 1_455 S
H232 C240 0.950 . S
H233 C245 0.950 . S
H234 C242 0.950 . S
H235 C244 0.950 . S
H236 C246 0.950 . S
H237 C248 0.950 . S
H238 C250 0.950 . S
H239 C251 0.950 . S
C240 H232 0.950 . S
C240 C241 1.386 . S
C240 C242 1.391 . S
C241 C240 1.386 . S
C241 C245 1.393 . S
C242 H234 0.950 . S
C242 C240 1.391 . S
C242 C243 1.400 . S
C243 C242 1.400 . S
C243 C244 1.398 . S
C243 C249 1.491 . S
C244 H235 0.950 . S
C244 C243 1.398 . S
C244 C245 1.391 . S
C245 H233 0.950 . S
C245 C241 1.393 . S
C245 C244 1.391 . S
C246 H236 0.950 . S
C246 C247 1.386 . S
C246 C248 1.391 . S
C247 C246 1.386 . S
C247 C251 1.393 . S
C248 H237 0.950 . S
C248 C246 1.391 . S
C248 C249 1.400 . S
C249 C243 1.491 . S
C249 C248 1.400 . S
C249 C250 1.398 . S
C250 H238 0.950 . S
C250 C249 1.398 . S
C250 C251 1.391 . S
C251 H239 0.950 . S
C251 C247 1.393 . S
C251 C250 1.391 . S
C101 N25 1.461 . S
C107 N2 1.441 . S
C121 C7 1.492 . S
C127 C30 1.487 . S
C141 N71 1.449 . S
C147 N48 1.462 . S
C161 C53 1.487 . S
C167 C76 1.491 . S
C181 C16 1.477 . S
C187 C62 1.477 . S
C201 C85 1.476 . S
C207 C39 1.476 . S
C221 N58 1.465 . S
C227 N12 1.465 . S
C241 N35 1.478 . S
C247 N81 1.478 . S
