# Generated by pormake.
# Topology sma, (6)-cn, num edge types: 1
# Building blocks:
#     Node 0, Type 0, BuildingBlock: VOLQOD_clean_sbu_1, # of connection points: 6
#     Node 1, Type 0, BuildingBlock: VOLQOD_clean_sbu_1, # of connection points: 6
#     Node 2, Type 0, BuildingBlock: VOLQOD_clean_sbu_1, # of connection points: 6
#     Edge 3, Type (0, 0), BuildingBlock: CIFDUS_clean_linker_0, # of connection points: 2
#     Edge 4, Type (0, 0), BuildingBlock: CIFDUS_clean_linker_0, # of connection points: 2
#     Edge 5, Type (0, 0), BuildingBlock: CIFDUS_clean_linker_0, # of connection points: 2
#     Edge 6, Type (0, 0), BuildingBlock: CIFDUS_clean_linker_0, # of connection points: 2
#     Edge 7, Type (0, 0), BuildingBlock: CIFDUS_clean_linker_0, # of connection points: 2
#     Edge 8, Type (0, 0), BuildingBlock: CIFDUS_clean_linker_0, # of connection points: 2
#     Edge 9, Type (0, 0), BuildingBlock: CIFDUS_clean_linker_0, # of connection points: 2
#     Edge 10, Type (0, 0), BuildingBlock: CIFDUS_clean_linker_0, # of connection points: 2
#     Edge 11, Type (0, 0), BuildingBlock: CIFDUS_clean_linker_0, # of connection points: 2
# Relax obj value: 0.284
# Max RMSD: 0.234
# Mean RMSD: 0.234
data_MOF--net-sma--node1-VOLQOD_clean_sbu_1--edge1-CIFDUS_clean_linker_0
_symmetry_space_group_name_H-M    P1
_symmetry_Int_Tables_number       1
_symmetry_cell_setting            triclinic
loop_
_symmetry_equiv_pos_as_xyz
'x, y, z'
_cell_length_a     27.420634
_cell_length_b     27.340559
_cell_length_c     15.160239
_cell_angle_alpha  90.387007
_cell_angle_beta   90.407383
_cell_angle_gamma 118.72424
loop_
_atom_site_label
_atom_site_type_symbol
_atom_site_fract_x
_atom_site_fract_y
_atom_site_fract_z
_atom_type_partial_charge
O0 O 0.03044 0.55983 0.95013 0.0
Zn1 Zn 0.01504 0.57594 0.07489 0.0
O2 O -0.00226 0.51053 0.14465 0.0
Zn3 Zn 0.05408 0.52268 0.22912 0.0
Zn4 Zn 0.98709 0.44794 0.07334 0.0
Zn5 Zn 0.93484 0.49411 0.21468 0.0
O6 O 0.02336 0.49648 0.35006 0.0
O7 O 0.95836 0.52236 0.33865 0.0
O8 O 0.07685 0.64624 0.13819 0.0
O9 O 0.09734 0.60361 0.24526 0.0
O10 O 0.10571 0.49497 0.18598 0.0
O11 O 0.05661 0.44049 0.07421 0.0
O12 O 0.92103 0.37634 0.11623 0.0
O13 O 0.94571 0.58407 0.06053 0.0
O14 O 0.89 0.41142 0.22136 0.0
O15 O 0.88906 0.52556 0.16032 0.0
C16 C 0.00826 0.51298 0.9087 0.0
C17 C -0.00931 0.51166 0.38566 0.0
C18 C 0.10076 0.46286 0.12128 0.0
C19 C 0.10334 0.64788 0.20908 0.0
C20 C 0.88806 0.36994 0.17956 0.0
C21 C 0.89888 0.56063 0.09894 0.0
O22 O 0.98223 0.46634 0.94787 0.0
O23 O 0.47962 0.05376 0.24652 0.0
Zn24 Zn 0.45299 0.04227 0.37135 0.0
O25 O 0.49621 0.01782 0.43902 0.0
Zn26 Zn 0.54252 0.07253 0.52218 0.0
Zn27 Zn 0.54187 1e-05 0.36382 0.0
Zn28 Zn 0.4475 0.95719 0.51029 0.0
O29 O 0.54186 0.03729 0.63765 0.0
O30 O 0.45053 0.9812 0.63796 0.0
O31 O 0.45154 0.10834 0.43229 0.0
O32 O 0.51045 0.12313 0.54381 0.0
O33 O 0.61933 0.117 0.4754 0.0
O34 O 0.61935 0.06637 0.36026 0.0
O35 O 0.54512 0.93154 0.41292 0.0
O36 O 0.37534 0.97924 0.35693 0.0
O37 O 0.47945 0.90592 0.51489 0.0
O38 O 0.37052 0.91733 0.45528 0.0
C39 C 0.49388 0.02287 0.20201 0.0
C40 C 0.49717 0.00682 0.67869 0.0
C41 C 0.64366 0.10974 0.40933 0.0
C42 C 0.4757 0.13379 0.5038 0.0
C43 C 0.51742 0.90001 0.47641 0.0
C44 C 0.34878 0.93181 0.39291 0.0
O45 O 0.51194 -0.00733 0.23919 0.0
O46 O 0.44779 0.49147 0.60844 0.0
Zn47 Zn 0.43655 0.46985 0.73581 0.0
O48 O 0.50108 0.52185 0.80166 0.0
Zn49 Zn 0.48495 0.56844 0.87563 0.0
Zn50 Zn 0.5616 0.56783 0.72502 0.0
Zn51 Zn 0.52053 0.48074 0.88174 0.0
O52 O 0.51823 0.57528 -0.00325 0.0
O53 O 0.49706 0.48618 0.00522 0.0
O54 O 0.36576 0.46306 0.79089 0.0
O55 O 0.40296 0.53017 0.89329 0.0
O56 O 0.50908 0.64257 0.81824 0.0
O57 O 0.56534 0.64315 0.71302 0.0
O58 O 0.63567 0.57635 0.77431 0.0
O59 O 0.43357 0.39509 0.73349 0.0
O60 O 0.60259 0.51819 0.88731 0.0
O61 O 0.49343 0.40201 0.83835 0.0
C62 C 0.49282 0.51162 0.56458 0.0
C63 C 0.5095 0.53282 0.04217 0.0
C64 C 0.54092 0.66618 0.7533 0.0
C65 C 0.36076 0.48978 0.85663 0.0
C66 C 0.64327 0.55404 0.84335 0.0
C67 C 0.45923 0.37447 0.77653 0.0
O68 O 0.54081 0.53558 0.60187 0.0
H69 H 0.11468 0.42202 0.96422 0.0
H70 H 0.19906 0.4974 0.20999 0.0
H71 H 0.28629 0.50935 0.15002 0.0
H72 H 0.34015 0.50723 0.02413 0.0
H73 H 0.25763 0.43324 0.77709 0.0
H74 H 0.16779 0.41181 0.84154 0.0
C75 C 0.15186 0.44 0.00543 0.0
C76 C 0.1503 0.45925 0.09141 0.0
C77 C 0.2023 0.44788 -0.03016 0.0
C78 C 0.19901 0.48251 0.14357 0.0
C79 C 0.24904 0.48966 0.10915 0.0
C80 C 0.30252 0.48633 -0.01581 0.0
C81 C 0.30561 0.47285 0.89538 0.0
C82 C 0.25143 0.47415 0.02162 0.0
C83 C 0.25635 0.44449 0.84535 0.0
C84 C 0.20507 0.43228 0.88221 0.0
H85 H 0.69451 0.12686 0.24936 0.0
H86 H 0.71497 0.19756 0.51153 0.0
H87 H 0.79523 0.28281 0.46363 0.0
H88 H 0.85275 0.34085 0.34497 0.0
H89 H 0.83396 0.27291 0.08177 0.0
H90 H 0.75995 0.18261 0.13254 0.0
C91 C 0.71725 0.16045 0.29643 0.0
C92 C 0.69826 0.15607 0.38369 0.0
C93 C 0.76303 0.21005 0.26801 0.0
C94 C 0.72824 0.20002 0.44381 0.0
C95 C 0.77408 0.24891 0.41646 0.0
C96 C 0.83263 0.30618 0.29867 0.0
C97 C 0.8478 0.31363 0.20948 0.0
C98 C 0.79056 0.25499 0.32823 0.0
C99 C 0.82255 0.26812 0.15067 0.0
C100 C 0.78024 0.21666 0.17968 0.0
H101 H 0.50421 0.8669 0.64455 0.0
H102 H 0.56504 0.84252 0.3955 0.0
H103 H 0.58313 0.77093 0.4623 0.0
H104 H 0.57461 0.7108 0.58956 0.0
H105 H 0.5123 0.73696 0.83649 0.0
H106 H 0.50244 0.81315 0.77222 0.0
C107 C 0.52131 0.84589 0.60442 0.0
C108 C 0.53213 0.85904 0.51461 0.0
C109 C 0.53153 0.80537 0.6431 0.0
C110 C 0.55586 0.83267 0.46451 0.0
C111 C 0.56613 0.79181 0.50275 0.0
C112 C 0.55984 0.73385 0.62976 0.0
C113 C 0.54386 0.71787 0.71776 0.0
C114 C 0.55327 0.77722 0.59177 0.0
C115 C 0.52454 0.74804 0.76865 0.0
C116 C 0.5187 0.79152 0.73186 0.0
H117 H 0.67136 0.5516 0.01207 0.0
H118 H 0.74157 0.59179 0.75197 0.0
H119 H 0.83065 0.60415 0.81103 0.0
H120 H 0.88436 0.59284 0.93468 0.0
H121 H 0.80958 0.54816 0.19173 0.0
H122 H 0.72635 0.54859 0.13569 0.0
C123 C 0.70622 0.5634 0.96807 0.0
C124 C 0.69966 0.56974 0.87747 0.0
C125 C 0.75633 0.56938 0.00206 0.0
C126 C 0.74557 0.58639 0.82187 0.0
C127 C 0.79631 0.59315 0.85564 0.0
C128 C 0.85024 0.58431 -0.02131 0.0
C129 C 0.85294 0.57002 0.06718 0.0
C130 C 0.80165 0.58326 0.94533 0.0
C131 C 0.80832 0.55873 0.1233 0.0
C132 C 0.76069 0.5589 0.0913 0.0
H133 H 0.27141 0.83525 0.46423 0.0
H134 H 0.30786 0.93334 0.22818 0.0
H135 H 0.23114 0.85563 0.15026 0.0
H136 H 0.16071 0.75503 0.14435 0.0
H137 H 0.12666 0.65926 0.38323 0.0
H138 H 0.19467 0.74044 0.4639 0.0
C139 C 0.26199 0.84001 0.39621 0.0
C140 C 0.29574 0.88969 0.35206 0.0
C141 C 0.21847 0.79505 0.35142 0.0
C142 C 0.28253 0.89542 0.26404 0.0
C143 C 0.23887 0.8508 0.21902 0.0
C144 C 0.16773 0.75234 0.2142 0.0
C145 C 0.13969 0.70071 0.25673 0.0
C146 C 0.20763 0.79965 0.26119 0.0
C147 C 0.14876 0.69805 0.34783 0.0
C148 C 0.18755 0.74457 0.39457 0.0
H149 H 0.41594 0.32046 0.62056 0.0
H150 H 0.49708 0.31075 0.86003 0.0
H151 H 0.5069 0.23364 0.79702 0.0
H152 H 0.49971 0.17487 0.67056 0.0
H153 H 0.42096 0.18536 0.42907 0.0
H154 H 0.40302 0.25671 0.49665 0.0
C155 C 0.43483 0.30084 0.65975 0.0
C156 C 0.45599 0.32162 0.74491 0.0
C157 C 0.44161 0.2574 0.62229 0.0
C158 C 0.48061 0.29578 0.79434 0.0
C159 C 0.48652 0.25188 0.75817 0.0
C160 C 0.47861 0.19267 0.63237 0.0
C161 C 0.46248 0.17541 0.54429 0.0
C162 C 0.46855 0.23347 0.67147 0.0
C163 C 0.4342 0.1982 0.49668 0.0
C164 C 0.4239 0.23893 0.53534 0.0
H165 H 0.98228 0.56907 0.78745 0.0
H166 H 0.04411 0.45189 0.81695 0.0
H167 H 0.04629 0.44255 0.65661 0.0
H168 H 0.02687 0.46477 0.50865 0.0
H169 H 0.95763 0.57603 0.47871 0.0
H170 H 0.96147 0.59032 0.6384 0.0
C171 C -0.00317 0.54214 0.75823 0.0
C172 C 0.0135 0.51157 0.81279 0.0
C173 C -0.00407 0.53541 0.66626 0.0
C174 C 0.03126 0.47583 0.77532 0.0
C175 C 0.03237 0.4704 0.68399 0.0
C176 C 0.01276 0.49223 0.53713 0.0
C177 C -0.00802 0.51923 0.48218 0.0
C178 C 0.01413 0.49944 0.62887 0.0
C179 C 0.97341 0.55438 0.51986 0.0
C180 C 0.97583 0.56282 0.61107 0.0
H181 H 0.55127 -0.00164 0.08026 0.0
H182 H 0.41974 0.04118 0.10739 0.0
H183 H 0.40591 0.03542 0.94762 0.0
H184 H 0.4328 0.02049 0.79944 0.0
H185 H 0.56954 0.98591 0.77148 0.0
H186 H 0.57943 0.98536 0.93211 0.0
C187 C 0.51952 0.00626 0.05105 0.0
C188 C 0.48665 0.02021 0.1053 0.0
C189 C 0.51258 0.00404 0.95905 0.0
C190 C 0.44595 0.03085 0.06678 0.0
C191 C 0.43779 0.0273 -0.02448 0.0
C192 C 0.46423 0.01223 0.82899 0.0
C193 C 0.50008 0.00275 0.77477 0.0
C194 C 0.47098 0.01413 0.92099 0.0
C195 C 0.54152 -0.0068 0.81278 0.0
C196 C 0.54721 -0.00701 0.9043 0.0
H197 H 0.55809 0.58901 0.44745 0.0
H198 H 0.41872 0.42342 0.46649 0.0
H199 H 0.41276 0.41446 0.3055 0.0
H200 H 0.44714 0.45411 0.1596 0.0
H201 H 0.58106 0.62278 0.1403 0.0
H202 H 0.58935 0.63048 0.3013 0.0
C203 C 0.52663 0.55099 0.41601 0.0
C204 C 0.48917 0.50676 0.46795 0.0
C205 C 0.52249 0.54684 0.32375 0.0
C206 C 0.44787 0.45797 0.42722 0.0
C207 C 0.44455 0.45281 0.33546 0.0
C208 C 0.4782 0.49241 0.19091 0.0
C209 C 0.51375 0.53766 0.13885 0.0
C210 C 0.48162 0.497 0.28313 0.0
C211 C 0.55324 0.58749 0.17956 0.0
C212 C 0.55807 0.59184 0.27136 0.0
loop_
_geom_bond_atom_site_label_1
_geom_bond_atom_site_label_2
_geom_bond_distance
_geom_bond_site_symmetry_2
_ccdc_geom_bond_type
O0 Zn1 1.953 1_556 S
O0 C16 1.225 . S
Zn1 O0 1.953 1_554 S
Zn1 O2 1.949 . S
Zn1 O8 1.919 . S
Zn1 O13 1.924 1_455 S
O2 Zn1 1.949 . S
O2 Zn3 1.923 . S
O2 Zn4 1.950 1_455 S
O2 Zn5 1.945 1_455 S
Zn3 O2 1.923 . S
Zn3 O6 1.933 . S
Zn3 O9 1.941 . S
Zn3 O10 1.965 . S
Zn4 O2 1.950 1_655 S
Zn4 O11 1.938 1_655 S
Zn4 O12 1.906 . S
Zn4 O22 1.953 1_554 S
Zn5 O2 1.945 1_655 S
Zn5 O7 1.932 . S
Zn5 O14 1.977 . S
Zn5 O15 1.910 . S
O6 Zn3 1.933 . S
O6 C17 1.226 . S
O7 Zn5 1.932 . S
O7 C17 1.307 1_655 S
O8 Zn1 1.919 . S
O8 C19 1.253 . S
O9 Zn3 1.941 . S
O9 C19 1.283 . S
O10 Zn3 1.965 . S
O10 C18 1.303 . S
O11 Zn4 1.938 1_455 S
O11 C18 1.247 . S
O12 Zn4 1.906 . S
O12 C20 1.304 . S
O13 Zn1 1.924 1_655 S
O13 C21 1.311 . S
O14 Zn5 1.977 . S
O14 C20 1.272 . S
O15 Zn5 1.910 . S
O15 C21 1.231 . S
C16 O0 1.225 . S
C16 O22 1.298 1_455 S
C17 O6 1.226 . S
C17 O7 1.307 1_455 S
C18 O10 1.303 . S
C18 O11 1.247 . S
C19 O8 1.253 . S
C19 O9 1.283 . S
C20 O12 1.304 . S
C20 O14 1.272 . S
C21 O13 1.311 . S
C21 O15 1.231 . S
O22 Zn4 1.953 1_556 S
O22 C16 1.298 1_655 S
O23 Zn24 1.953 . S
O23 C39 1.225 . S
Zn24 O23 1.953 . S
Zn24 O25 1.949 . S
Zn24 O31 1.919 . S
Zn24 O36 1.924 1_545 S
O25 Zn24 1.949 . S
O25 Zn26 1.923 . S
O25 Zn27 1.950 . S
O25 Zn28 1.945 1_545 S
Zn26 O25 1.923 . S
Zn26 O29 1.933 . S
Zn26 O32 1.941 . S
Zn26 O33 1.965 . S
Zn27 O25 1.950 . S
Zn27 O34 1.938 . S
Zn27 O35 1.906 1_545 S
Zn27 O45 1.953 . S
Zn28 O25 1.945 1_565 S
Zn28 O30 1.932 . S
Zn28 O37 1.977 . S
Zn28 O38 1.910 . S
O29 Zn26 1.933 . S
O29 C40 1.226 . S
O30 Zn28 1.932 . S
O30 C40 1.307 1_565 S
O31 Zn24 1.919 . S
O31 C42 1.253 . S
O32 Zn26 1.941 . S
O32 C42 1.283 . S
O33 Zn26 1.965 . S
O33 C41 1.303 . S
O34 Zn27 1.938 . S
O34 C41 1.247 . S
O35 Zn27 1.906 1_565 S
O35 C43 1.304 . S
O36 Zn24 1.924 1_565 S
O36 C44 1.311 . S
O37 Zn28 1.977 . S
O37 C43 1.272 . S
O38 Zn28 1.910 . S
O38 C44 1.231 . S
C39 O23 1.225 . S
C39 O45 1.298 . S
C40 O29 1.226 . S
C40 O30 1.307 1_545 S
C41 O33 1.303 . S
C41 O34 1.247 . S
C42 O31 1.253 . S
C42 O32 1.283 . S
C43 O35 1.304 . S
C43 O37 1.272 . S
C44 O36 1.311 . S
C44 O38 1.231 . S
O45 Zn27 1.953 . S
O45 C39 1.298 . S
O46 Zn47 1.953 . S
O46 C62 1.225 . S
Zn47 O46 1.953 . S
Zn47 O48 1.949 . S
Zn47 O54 1.919 . S
Zn47 O59 1.924 . S
O48 Zn47 1.949 . S
O48 Zn49 1.923 . S
O48 Zn50 1.950 . S
O48 Zn51 1.945 . S
Zn49 O48 1.923 . S
Zn49 O52 1.933 1_556 S
Zn49 O55 1.941 . S
Zn49 O56 1.965 . S
Zn50 O48 1.950 . S
Zn50 O57 1.938 . S
Zn50 O58 1.906 . S
Zn50 O68 1.953 . S
Zn51 O48 1.945 . S
Zn51 O53 1.932 1_556 S
Zn51 O60 1.977 . S
Zn51 O61 1.910 . S
O52 Zn49 1.933 1_554 S
O52 C63 1.226 . S
O53 Zn51 1.932 1_554 S
O53 C63 1.307 . S
O54 Zn47 1.919 . S
O54 C65 1.253 . S
O55 Zn49 1.941 . S
O55 C65 1.283 . S
O56 Zn49 1.965 . S
O56 C64 1.303 . S
O57 Zn50 1.938 . S
O57 C64 1.247 . S
O58 Zn50 1.906 . S
O58 C66 1.304 . S
O59 Zn47 1.924 . S
O59 C67 1.311 . S
O60 Zn51 1.977 . S
O60 C66 1.272 . S
O61 Zn51 1.910 . S
O61 C67 1.231 . S
C62 O46 1.225 . S
C62 O68 1.298 . S
C63 O52 1.226 . S
C63 O53 1.307 . S
C64 O56 1.303 . S
C64 O57 1.247 . S
C65 O54 1.253 . S
C65 O55 1.283 . S
C66 O58 1.304 . S
C66 O60 1.272 . S
C67 O59 1.311 . S
C67 O61 1.231 . S
O68 Zn50 1.953 . S
O68 C62 1.298 . S
H69 C75 0.930 1_556 S
H70 C78 0.930 . S
H71 C79 0.930 . S
H72 C80 0.930 1_554 S
H73 C83 0.930 . S
H74 C84 0.930 . S
C75 H69 0.930 1_554 S
C75 C76 1.355 . S
C75 C77 1.415 1_554 S
C76 C75 1.355 . S
C76 C78 1.419 . S
C77 C75 1.415 1_556 S
C77 C82 1.425 1_556 S
C77 C84 1.409 . S
C78 H70 0.930 . S
C78 C76 1.419 . S
C78 C79 1.362 . S
C79 H71 0.930 . S
C79 C78 1.362 . S
C79 C82 1.409 . S
C80 H72 0.930 1_556 S
C80 C81 1.355 . S
C80 C82 1.415 1_556 S
C81 C80 1.355 . S
C81 C83 1.419 . S
C82 C77 1.425 1_554 S
C82 C79 1.409 . S
C82 C80 1.415 1_554 S
C83 H73 0.930 . S
C83 C81 1.419 . S
C83 C84 1.362 . S
C84 H74 0.930 . S
C84 C77 1.409 . S
C84 C83 1.362 . S
H85 C91 0.930 . S
H86 C94 0.930 . S
H87 C95 0.930 . S
H88 C96 0.930 . S
H89 C99 0.930 . S
H90 C100 0.930 . S
C91 H85 0.930 . S
C91 C92 1.355 . S
C91 C93 1.415 . S
C92 C91 1.355 . S
C92 C94 1.419 . S
C93 C91 1.415 . S
C93 C98 1.425 . S
C93 C100 1.409 . S
C94 H86 0.930 . S
C94 C92 1.419 . S
C94 C95 1.362 . S
C95 H87 0.930 . S
C95 C94 1.362 . S
C95 C98 1.409 . S
C96 H88 0.930 . S
C96 C97 1.355 . S
C96 C98 1.415 . S
C97 C96 1.355 . S
C97 C99 1.419 . S
C98 C93 1.425 . S
C98 C95 1.409 . S
C98 C96 1.415 . S
C99 H89 0.930 . S
C99 C97 1.419 . S
C99 C100 1.362 . S
C100 H90 0.930 . S
C100 C93 1.409 . S
C100 C99 1.362 . S
H101 C107 0.930 . S
H102 C110 0.930 . S
H103 C111 0.930 . S
H104 C112 0.930 . S
H105 C115 0.930 . S
H106 C116 0.930 . S
C107 H101 0.930 . S
C107 C108 1.355 . S
C107 C109 1.415 . S
C108 C107 1.355 . S
C108 C110 1.419 . S
C109 C107 1.415 . S
C109 C114 1.425 . S
C109 C116 1.409 . S
C110 H102 0.930 . S
C110 C108 1.419 . S
C110 C111 1.362 . S
C111 H103 0.930 . S
C111 C110 1.362 . S
C111 C114 1.409 . S
C112 H104 0.930 . S
C112 C113 1.355 . S
C112 C114 1.415 . S
C113 C112 1.355 . S
C113 C115 1.419 . S
C114 C109 1.425 . S
C114 C111 1.409 . S
C114 C112 1.415 . S
C115 H105 0.930 . S
C115 C113 1.419 . S
C115 C116 1.362 . S
C116 H106 0.930 . S
C116 C109 1.409 . S
C116 C115 1.362 . S
H117 C123 0.930 1_554 S
H118 C126 0.930 . S
H119 C127 0.930 . S
H120 C128 0.930 1_556 S
H121 C131 0.930 . S
H122 C132 0.930 . S
C123 H117 0.930 1_556 S
C123 C124 1.355 . S
C123 C125 1.415 1_556 S
C124 C123 1.355 . S
C124 C126 1.419 . S
C125 C123 1.415 1_554 S
C125 C130 1.425 1_554 S
C125 C132 1.409 . S
C126 H118 0.930 . S
C126 C124 1.419 . S
C126 C127 1.362 . S
C127 H119 0.930 . S
C127 C126 1.362 . S
C127 C130 1.409 . S
C128 H120 0.930 1_554 S
C128 C129 1.355 . S
C128 C130 1.415 1_554 S
C129 C128 1.355 . S
C129 C131 1.419 . S
C130 C125 1.425 1_556 S
C130 C127 1.409 . S
C130 C128 1.415 1_556 S
C131 H121 0.930 . S
C131 C129 1.419 . S
C131 C132 1.362 . S
C132 H122 0.930 . S
C132 C125 1.409 . S
C132 C131 1.362 . S
H133 C139 0.930 . S
H134 C142 0.930 . S
H135 C143 0.930 . S
H136 C144 0.930 . S
H137 C147 0.930 . S
H138 C148 0.930 . S
C139 H133 0.930 . S
C139 C140 1.355 . S
C139 C141 1.415 . S
C140 C139 1.355 . S
C140 C142 1.419 . S
C141 C139 1.415 . S
C141 C146 1.425 . S
C141 C148 1.409 . S
C142 H134 0.930 . S
C142 C140 1.419 . S
C142 C143 1.362 . S
C143 H135 0.930 . S
C143 C142 1.362 . S
C143 C146 1.409 . S
C144 H136 0.930 . S
C144 C145 1.355 . S
C144 C146 1.415 . S
C145 C144 1.355 . S
C145 C147 1.419 . S
C146 C141 1.425 . S
C146 C143 1.409 . S
C146 C144 1.415 . S
C147 H137 0.930 . S
C147 C145 1.419 . S
C147 C148 1.362 . S
C148 H138 0.930 . S
C148 C141 1.409 . S
C148 C147 1.362 . S
H149 C155 0.930 . S
H150 C158 0.930 . S
H151 C159 0.930 . S
H152 C160 0.930 . S
H153 C163 0.930 . S
H154 C164 0.930 . S
C155 H149 0.930 . S
C155 C156 1.355 . S
C155 C157 1.415 . S
C156 C155 1.355 . S
C156 C158 1.419 . S
C157 C155 1.415 . S
C157 C162 1.425 . S
C157 C164 1.409 . S
C158 H150 0.930 . S
C158 C156 1.419 . S
C158 C159 1.362 . S
C159 H151 0.930 . S
C159 C158 1.362 . S
C159 C162 1.409 . S
C160 H152 0.930 . S
C160 C161 1.355 . S
C160 C162 1.415 . S
C161 C160 1.355 . S
C161 C163 1.419 . S
C162 C157 1.425 . S
C162 C159 1.409 . S
C162 C160 1.415 . S
C163 H153 0.930 . S
C163 C161 1.419 . S
C163 C164 1.362 . S
C164 H154 0.930 . S
C164 C157 1.409 . S
C164 C163 1.362 . S
H165 C171 0.930 . S
H166 C174 0.930 . S
H167 C175 0.930 . S
H168 C176 0.930 1_655 S
H169 C179 0.930 . S
H170 C180 0.930 . S
C171 H165 0.930 . S
C171 C172 1.355 . S
C171 C173 1.415 . S
C172 C171 1.355 . S
C172 C174 1.419 1_455 S
C173 C171 1.415 . S
C173 C178 1.425 . S
C173 C180 1.409 . S
C174 H166 0.930 . S
C174 C172 1.419 1_655 S
C174 C175 1.362 . S
C175 H167 0.930 . S
C175 C174 1.362 . S
C175 C178 1.409 1_655 S
C176 H168 0.930 1_455 S
C176 C177 1.355 . S
C176 C178 1.415 . S
C177 C176 1.355 . S
C177 C179 1.419 . S
C178 C173 1.425 . S
C178 C175 1.409 1_455 S
C178 C176 1.415 . S
C179 H169 0.930 . S
C179 C177 1.419 . S
C179 C180 1.362 . S
C180 H170 0.930 . S
C180 C173 1.409 . S
C180 C179 1.362 . S
H181 C187 0.930 . S
H182 C190 0.930 . S
H183 C191 0.930 . S
H184 C192 0.930 . S
H185 C195 0.930 . S
H186 C196 0.930 . S
C187 H181 0.930 . S
C187 C188 1.355 . S
C187 C189 1.415 . S
C188 C187 1.355 . S
C188 C190 1.419 . S
C189 C187 1.415 . S
C189 C194 1.425 1_554 S
C189 C196 1.409 1_554 S
C190 H182 0.930 . S
C190 C188 1.419 . S
C190 C191 1.362 . S
C191 H183 0.930 . S
C191 C190 1.362 . S
C191 C194 1.409 1_554 S
C192 H184 0.930 . S
C192 C193 1.355 . S
C192 C194 1.415 . S
C193 C192 1.355 . S
C193 C195 1.419 . S
C194 C189 1.425 1_556 S
C194 C191 1.409 1_556 S
C194 C192 1.415 . S
C195 H185 0.930 . S
C195 C193 1.419 . S
C195 C196 1.362 . S
C196 H186 0.930 . S
C196 C189 1.409 1_556 S
C196 C195 1.362 . S
H197 C203 0.930 . S
H198 C206 0.930 . S
H199 C207 0.930 . S
H200 C208 0.930 . S
H201 C211 0.930 . S
H202 C212 0.930 . S
C203 H197 0.930 . S
C203 C204 1.355 . S
C203 C205 1.415 . S
C204 C203 1.355 . S
C204 C206 1.419 . S
C205 C203 1.415 . S
C205 C210 1.425 . S
C205 C212 1.409 . S
C206 H198 0.930 . S
C206 C204 1.419 . S
C206 C207 1.362 . S
C207 H199 0.930 . S
C207 C206 1.362 . S
C207 C210 1.409 . S
C208 H200 0.930 . S
C208 C209 1.355 . S
C208 C210 1.415 . S
C209 C208 1.355 . S
C209 C211 1.419 . S
C210 C205 1.425 . S
C210 C207 1.409 . S
C210 C208 1.415 . S
C211 H201 0.930 . S
C211 C209 1.419 . S
C211 C212 1.362 . S
C212 H202 0.930 . S
C212 C205 1.409 . S
C212 C211 1.362 . S
C76 C18 1.461 . S
C81 C65 1.423 . S
C92 C41 1.455 . S
C97 C20 1.425 . S
C108 C43 1.405 . S
C113 C64 1.430 . S
C124 C66 1.371 . S
C129 C21 1.402 . S
C140 C44 1.394 . S
C145 C19 1.405 . S
C156 C67 1.428 . S
C161 C42 1.435 . S
C172 C16 1.024 . S
C177 C17 1.025 . S
C188 C39 1.012 . S
C193 C40 1.009 . S
C204 C62 1.014 . S
C209 C63 1.009 . S
