# Generated by pormake.
# Topology wji, (4)-cn, num edge types: 1
# Building blocks:
#     Node 0, Type 0, BuildingBlock: AZAVOO_clean_sbu_0, # of connection points: 4
#     Node 1, Type 0, BuildingBlock: AZAVOO_clean_sbu_0, # of connection points: 4
#     Node 2, Type 0, BuildingBlock: AZAVOO_clean_sbu_0, # of connection points: 4
#     Node 3, Type 0, BuildingBlock: AZAVOO_clean_sbu_0, # of connection points: 4
#     Node 4, Type 0, BuildingBlock: AZAVOO_clean_sbu_0, # of connection points: 4
#     Node 5, Type 0, BuildingBlock: AZAVOO_clean_sbu_0, # of connection points: 4
#     Node 6, Type 0, BuildingBlock: AZAVOO_clean_sbu_0, # of connection points: 4
#     Node 7, Type 0, BuildingBlock: AZAVOO_clean_sbu_0, # of connection points: 4
#     Node 8, Type 0, BuildingBlock: AZAVOO_clean_sbu_0, # of connection points: 4
#     Node 9, Type 0, BuildingBlock: AZAVOO_clean_sbu_0, # of connection points: 4
#     Node 10, Type 0, BuildingBlock: AZAVOO_clean_sbu_0, # of connection points: 4
#     Node 11, Type 0, BuildingBlock: AZAVOO_clean_sbu_0, # of connection points: 4
#     Edge 12, Type (0, 0), None
#     Edge 13, Type (0, 0), None
#     Edge 14, Type (0, 0), None
#     Edge 15, Type (0, 0), None
#     Edge 16, Type (0, 0), None
#     Edge 17, Type (0, 0), None
#     Edge 18, Type (0, 0), None
#     Edge 19, Type (0, 0), None
#     Edge 20, Type (0, 0), None
#     Edge 21, Type (0, 0), None
#     Edge 22, Type (0, 0), None
#     Edge 23, Type (0, 0), None
#     Edge 24, Type (0, 0), None
#     Edge 25, Type (0, 0), None
#     Edge 26, Type (0, 0), None
#     Edge 27, Type (0, 0), None
#     Edge 28, Type (0, 0), None
#     Edge 29, Type (0, 0), None
#     Edge 30, Type (0, 0), None
#     Edge 31, Type (0, 0), None
#     Edge 32, Type (0, 0), None
#     Edge 33, Type (0, 0), None
#     Edge 34, Type (0, 0), None
#     Edge 35, Type (0, 0), None
# Relax obj value: 0.159
# Max RMSD: 0.109
# Mean RMSD: 0.109
data_MOF--net-wji--node1-AZAVOO_clean_sbu_0--edge1-none
_symmetry_space_group_name_H-M    P1
_symmetry_Int_Tables_number       1
_symmetry_cell_setting            triclinic
loop_
_symmetry_equiv_pos_as_xyz
'x, y, z'
_cell_length_a     27.10897
_cell_length_b     27.108264
_cell_length_c     10.365122
_cell_angle_alpha  90.020153
_cell_angle_beta   89.954583
_cell_angle_gamma 119.99838
loop_
_atom_site_label
_atom_site_type_symbol
_atom_site_fract_x
_atom_site_fract_y
_atom_site_fract_z
_atom_type_partial_charge
Mg0 Mg 0.41126 0.30739 0.33377 0.0
O1 O 0.37564 0.32286 0.52689 0.0
O2 O 0.35875 0.39576 0.50659 0.0
Mg3 Mg 0.39461 0.43985 0.31336 0.0
C4 C 0.3576 0.35521 0.57195 0.0
C5 C 0.41785 0.19929 0.49199 0.0
O6 O 0.41982 0.15282 0.4683 0.0
O7 O 0.50543 0.3755 0.39214 0.0
O8 O 0.46917 0.43008 0.35628 0.0
O9 O 0.32612 0.27018 0.21798 0.0
O10 O 0.38761 0.36065 0.24598 0.0
C11 C 0.51219 0.42536 0.38085 0.0
C12 C 0.34249 0.32271 0.19262 0.0
O13 O 0.41657 0.22824 0.39648 0.0
Mg14 Mg 0.10013 0.41283 0.50035 0.0
O15 O 0.04905 0.37731 0.69357 0.0
O16 O 0.95928 0.36041 0.67321 0.0
Mg17 Mg 0.95111 0.39619 0.47988 0.0
C18 C -0.00133 0.35928 0.73865 0.0
C19 C 0.21491 0.41956 0.65862 0.0
O20 O 0.26334 0.42154 0.63484 0.0
O21 O 0.12608 0.50696 0.55864 0.0
O22 O 0.0352 0.47113 0.52298 0.0
O23 O 0.05213 0.32764 0.38444 0.0
O24 O 0.02326 0.38919 0.41248 0.0
C25 C 0.0831 0.51395 0.54758 0.0
C26 C 0.01599 0.34403 0.35916 0.0
O27 O 0.18464 0.41823 0.56316 0.0
Mg28 Mg 0.68358 0.1021 0.66731 0.0
O29 O 0.66806 0.05102 0.8604 0.0
O30 O 0.59527 0.96117 0.84008 0.0
Mg31 Mg 0.55111 0.95293 0.6471 0.0
C32 C 0.63579 0.00061 0.90541 0.0
C33 C 0.79129 0.21692 0.82574 0.0
O34 O 0.83789 0.26524 0.80223 0.0
O35 O 0.61564 0.12828 0.72573 0.0
O36 O 0.56118 0.03742 0.68988 0.0
O37 O 0.72072 0.0541 0.55147 0.0
O38 O 0.63025 0.02516 0.57953 0.0
C39 C 0.56582 0.08514 0.71439 0.0
C40 C 0.66819 0.01794 0.52614 0.0
O41 O 0.76262 0.18654 0.73012 0.0
Mg42 Mg 0.57786 0.68533 0.83404 0.0
O43 O 0.6136 0.66991 0.02694 0.0
O44 O 0.63051 0.59698 0.00644 0.0
Mg45 Mg 0.59422 0.55233 0.81361 0.0
C46 C 0.63168 0.63758 0.07184 0.0
C47 C 0.57142 0.79355 -0.00791 0.0
O48 O 0.56945 0.84001 -0.03148 0.0
O49 O 0.48329 0.61724 0.89278 0.0
O50 O 0.52098 0.56432 0.85637 0.0
O51 O 0.66309 0.7226 0.71806 0.0
O52 O 0.60166 0.63204 0.74618 0.0
C53 C 0.47721 0.56774 0.88109 0.0
C54 C 0.64678 0.67007 0.6927 0.0
O55 O 0.57266 0.76457 0.89652 0.0
Mg56 Mg 0.88905 0.5799 0.00056 0.0
O57 O 0.94011 0.61546 0.19363 0.0
O58 O 0.02992 0.6324 0.17307 0.0
Mg59 Mg 0.03817 0.59659 -0.02032 0.0
C60 C 0.99049 0.63349 0.23858 0.0
C61 C 0.7743 0.5732 0.15867 0.0
O62 O 0.72586 0.57121 0.13513 0.0
O63 O 0.86324 0.48594 0.05918 0.0
O64 O 0.95418 0.52212 0.02386 0.0
O65 O 0.93692 0.665 0.88475 0.0
O66 O 0.96597 0.60356 0.91278 0.0
C67 C 0.9065 0.47923 0.04914 0.0
C68 C 0.97312 0.64866 0.85936 0.0
O69 O 0.80454 0.57449 0.06309 0.0
Mg70 Mg 0.30567 0.8908 0.16726 0.0
O71 O 0.32113 0.94188 0.36034 0.0
O72 O 0.39401 0.03168 0.33991 0.0
Mg73 Mg 0.4381 0.03992 0.14667 0.0
C74 C 0.35346 0.99226 0.40534 0.0
C75 C 0.19753 0.77608 0.32535 0.0
O76 O 0.15107 0.72766 0.30173 0.0
O77 O 0.37373 0.86474 0.22569 0.0
O78 O 0.42845 0.95562 0.18984 0.0
O79 O 0.26845 0.9387 0.05156 0.0
O80 O 0.35893 0.96775 0.07948 0.0
C81 C 0.42361 0.90782 0.21453 0.0
C82 C 0.32097 0.9749 0.02618 0.0
O83 O 0.22651 0.80631 0.2298 0.0
Mg84 Mg 0.68365 0.57985 0.45055 0.0
O85 O 0.66821 0.61544 0.25747 0.0
O86 O 0.59535 0.63239 0.27808 0.0
Mg87 Mg 0.55135 0.59663 0.47145 0.0
C88 C 0.63589 0.6335 0.21258 0.0
C89 C 0.79175 0.57319 0.29246 0.0
O90 O 0.8382 0.57122 0.31602 0.0
O91 O 0.61549 0.48577 0.39215 0.0
O92 O 0.56052 0.52169 0.42811 0.0
O93 O 0.72091 0.66499 0.56639 0.0
O94 O 0.63045 0.60351 0.53841 0.0
C95 C 0.56554 0.47884 0.40336 0.0
C96 C 0.66838 0.6486 0.59186 0.0
O97 O 0.76278 0.57446 0.38803 0.0
Mg98 Mg 0.10025 0.68541 0.61717 0.0
O99 O 0.04919 0.66998 0.42417 0.0
O100 O 0.95938 0.59709 0.4447 0.0
Mg101 Mg 0.95114 0.55298 0.63787 0.0
C102 C -0.00122 0.63765 0.37929 0.0
C103 C 0.21498 0.79352 0.45916 0.0
O104 O 0.26341 0.83998 0.48277 0.0
O105 O 0.12634 0.61732 0.55866 0.0
O106 O 0.03548 0.56269 0.59474 0.0
O107 O 0.05237 0.72269 0.7331 0.0
O108 O 0.02329 0.63219 0.70495 0.0
C109 C 0.08325 0.56745 0.57007 0.0
C110 C 0.01617 0.67017 0.75846 0.0
O111 O 0.18475 0.76455 0.55471 0.0
Mg112 Mg 0.41124 0.10202 0.784 0.0
O113 O 0.37563 0.05096 0.59099 0.0
O114 O 0.35874 0.96117 0.61139 0.0
Mg115 Mg 0.39455 0.95292 0.80453 0.0
C116 C 0.35757 0.00057 0.54604 0.0
C117 C 0.41789 0.21676 0.62586 0.0
O118 O 0.41986 0.26519 0.64955 0.0
O119 O 0.50537 0.12796 0.72543 0.0
O120 O 0.46941 0.0371 0.76132 0.0
O121 O 0.32611 0.05415 0.90009 0.0
O122 O 0.38757 0.02513 0.87181 0.0
C123 C 0.51229 0.08496 0.73665 0.0
C124 C 0.34249 0.018 0.92542 0.0
O125 O 0.41662 0.18652 0.72136 0.0
Mg126 Mg 0.30559 0.413 0.95076 0.0
O127 O 0.32109 0.37742 0.75767 0.0
O128 O 0.39394 0.36046 0.778 0.0
Mg129 Mg 0.43794 0.39624 -0.0288 0.0
C130 C 0.35341 0.35933 0.71267 0.0
C131 C 0.19749 0.4196 0.79252 0.0
O132 O 0.15102 0.42155 0.81629 0.0
O133 O 0.37387 0.50702 0.89235 0.0
O134 O 0.42879 0.47104 0.92773 0.0
O135 O 0.26838 0.32787 0.06668 0.0
O136 O 0.35884 0.38939 0.03858 0.0
C137 C 0.42385 0.51391 0.90288 0.0
C138 C 0.32091 0.34428 0.09204 0.0
O139 O 0.22647 0.41835 0.88799 0.0
Mg140 Mg 0.88863 0.30751 0.11734 0.0
O141 O 0.93984 0.32282 0.92425 0.0
O142 O 0.0298 0.39561 0.94479 0.0
Mg143 Mg 0.03833 0.44078 0.13682 0.0
C144 C 0.99032 0.35506 0.87943 0.0
C145 C 0.7734 0.19974 0.95952 0.0
O146 O 0.72458 0.15367 -0.01702 0.0
O147 O 0.86253 0.37611 0.05886 0.0
O148 O 0.95284 0.42786 0.09487 0.0
O149 O 0.93643 0.27001 0.23357 0.0
O150 O 0.96591 0.36065 0.20493 0.0
C151 C 0.90607 0.42533 0.07047 0.0
C152 C 0.97284 0.32254 0.25857 0.0
O153 O 0.80366 0.22861 0.05512 0.0
Mg154 Mg 0.57798 0.89078 0.28408 0.0
O155 O 0.61363 0.94188 0.09101 0.0
O156 O 0.63057 0.03169 0.11156 0.0
Mg157 Mg 0.59469 0.03991 0.30477 0.0
C158 C 0.63171 0.99229 0.04611 0.0
C159 C 0.57141 0.77608 0.1259 0.0
O160 O 0.56946 0.72765 0.14947 0.0
O161 O 0.48389 0.8648 0.22563 0.0
O162 O 0.51996 0.95568 0.26154 0.0
O163 O 0.66305 0.93867 0.40002 0.0
O164 O 0.60159 0.96768 0.37196 0.0
C165 C 0.47704 0.90785 0.23684 0.0
C166 C 0.64665 0.97481 0.42545 0.0
O167 O 0.57266 0.80629 0.22147 0.0
loop_
_geom_bond_atom_site_label_1
_geom_bond_atom_site_label_2
_geom_bond_distance
_geom_bond_site_symmetry_2
_ccdc_geom_bond_type
Mg0 O1 2.028 . S
Mg0 O7 1.986 . S
Mg0 O9 2.114 . S
Mg0 O10 2.251 . S
Mg0 O13 2.010 . S
O1 Mg0 2.028 . S
O1 C4 1.250 . S
O2 Mg3 2.028 . S
O2 C4 1.248 . S
Mg3 O2 2.028 . S
Mg3 O8 2.032 . S
Mg3 O10 2.079 . S
C4 O1 1.250 . S
C4 O2 1.248 . S
C5 O6 1.264 . S
C5 O13 1.249 . S
O6 C5 1.264 . S
O7 Mg0 1.986 . S
O7 C11 1.246 . S
O8 Mg3 2.032 . S
O8 C11 1.259 . S
O9 Mg0 2.114 . S
O9 C12 1.252 . S
O10 Mg0 2.251 . S
O10 Mg3 2.079 . S
O10 C12 1.273 . S
C11 O7 1.246 . S
C11 O8 1.259 . S
C12 O9 1.252 . S
C12 O10 1.273 . S
O13 Mg0 2.010 . S
O13 C5 1.249 . S
Mg14 O15 2.028 . S
Mg14 O21 1.986 . S
Mg14 O23 2.114 . S
Mg14 O24 2.251 . S
Mg14 O27 2.010 . S
O15 Mg14 2.028 . S
O15 C18 1.250 . S
O16 Mg17 2.028 . S
O16 C18 1.248 1_655 S
Mg17 O16 2.028 . S
Mg17 O22 2.032 1_655 S
Mg17 O24 2.079 1_655 S
C18 O15 1.250 . S
C18 O16 1.248 1_455 S
C19 O20 1.264 . S
C19 O27 1.249 . S
O20 C19 1.264 . S
O21 Mg14 1.986 . S
O21 C25 1.246 . S
O22 Mg17 2.032 1_455 S
O22 C25 1.259 . S
O23 Mg14 2.114 . S
O23 C26 1.252 . S
O24 Mg14 2.251 . S
O24 Mg17 2.079 1_455 S
O24 C26 1.273 . S
C25 O21 1.246 . S
C25 O22 1.259 . S
C26 O23 1.252 . S
C26 O24 1.273 . S
O27 Mg14 2.010 . S
O27 C19 1.249 . S
Mg28 O29 2.028 . S
Mg28 O35 1.986 . S
Mg28 O37 2.114 . S
Mg28 O38 2.251 . S
Mg28 O41 2.010 . S
O29 Mg28 2.028 . S
O29 C32 1.250 . S
O30 Mg31 2.028 . S
O30 C32 1.248 1_565 S
Mg31 O30 2.028 . S
Mg31 O36 2.032 1_565 S
Mg31 O38 2.079 1_565 S
C32 O29 1.250 . S
C32 O30 1.248 1_545 S
C33 O34 1.264 . S
C33 O41 1.249 . S
O34 C33 1.264 . S
O35 Mg28 1.986 . S
O35 C39 1.246 . S
O36 Mg31 2.032 1_545 S
O36 C39 1.259 . S
O37 Mg28 2.114 . S
O37 C40 1.252 . S
O38 Mg28 2.251 . S
O38 Mg31 2.079 1_545 S
O38 C40 1.273 . S
C39 O35 1.246 . S
C39 O36 1.259 . S
C40 O37 1.252 . S
C40 O38 1.273 . S
O41 Mg28 2.010 . S
O41 C33 1.249 . S
Mg42 O43 2.028 1_556 S
Mg42 O49 1.986 . S
Mg42 O51 2.114 . S
Mg42 O52 2.251 . S
Mg42 O55 2.010 . S
O43 Mg42 2.028 1_554 S
O43 C46 1.250 . S
O44 Mg45 2.028 1_554 S
O44 C46 1.248 . S
Mg45 O44 2.028 1_556 S
Mg45 O50 2.032 . S
Mg45 O52 2.079 . S
C46 O43 1.250 . S
C46 O44 1.248 . S
C47 O48 1.264 . S
C47 O55 1.249 . S
O48 C47 1.264 . S
O49 Mg42 1.986 . S
O49 C53 1.246 . S
O50 Mg45 2.032 . S
O50 C53 1.259 . S
O51 Mg42 2.114 . S
O51 C54 1.252 . S
O52 Mg42 2.251 . S
O52 Mg45 2.079 . S
O52 C54 1.273 . S
C53 O49 1.246 . S
C53 O50 1.259 . S
C54 O51 1.252 . S
C54 O52 1.273 . S
O55 Mg42 2.010 . S
O55 C47 1.249 . S
Mg56 O57 2.028 . S
Mg56 O63 1.986 . S
Mg56 O65 2.114 1_554 S
Mg56 O66 2.251 1_554 S
Mg56 O69 2.010 . S
O57 Mg56 2.028 . S
O57 C60 1.250 . S
O58 Mg59 2.028 . S
O58 C60 1.248 1_455 S
Mg59 O58 2.028 . S
Mg59 O64 2.032 1_455 S
Mg59 O66 2.079 1_454 S
C60 O57 1.250 . S
C60 O58 1.248 1_655 S
C61 O62 1.264 . S
C61 O69 1.249 . S
O62 C61 1.264 . S
O63 Mg56 1.986 . S
O63 C67 1.246 . S
O64 Mg59 2.032 1_655 S
O64 C67 1.259 . S
O65 Mg56 2.114 1_556 S
O65 C68 1.252 . S
O66 Mg56 2.251 1_556 S
O66 Mg59 2.079 1_656 S
O66 C68 1.273 . S
C67 O63 1.246 . S
C67 O64 1.259 . S
C68 O65 1.252 . S
C68 O66 1.273 . S
O69 Mg56 2.010 . S
O69 C61 1.249 . S
Mg70 O71 2.028 . S
Mg70 O77 1.986 . S
Mg70 O79 2.114 . S
Mg70 O80 2.251 . S
Mg70 O83 2.010 . S
O71 Mg70 2.028 . S
O71 C74 1.250 . S
O72 Mg73 2.028 . S
O72 C74 1.248 1_545 S
Mg73 O72 2.028 . S
Mg73 O78 2.032 1_545 S
Mg73 O80 2.079 1_545 S
C74 O71 1.250 . S
C74 O72 1.248 1_565 S
C75 O76 1.264 . S
C75 O83 1.249 . S
O76 C75 1.264 . S
O77 Mg70 1.986 . S
O77 C81 1.246 . S
O78 Mg73 2.032 1_565 S
O78 C81 1.259 . S
O79 Mg70 2.114 . S
O79 C82 1.252 . S
O80 Mg70 2.251 . S
O80 Mg73 2.079 1_565 S
O80 C82 1.273 . S
C81 O77 1.246 . S
C81 O78 1.259 . S
C82 O79 1.252 . S
C82 O80 1.273 . S
O83 Mg70 2.010 . S
O83 C75 1.249 . S
Mg84 O85 2.028 . S
Mg84 O91 1.986 . S
Mg84 O93 2.114 . S
Mg84 O94 2.251 . S
Mg84 O97 2.010 . S
O85 Mg84 2.028 . S
O85 C88 1.250 . S
O86 Mg87 2.028 . S
O86 C88 1.248 . S
Mg87 O86 2.028 . S
Mg87 O92 2.032 . S
Mg87 O94 2.079 . S
C88 O85 1.250 . S
C88 O86 1.248 . S
C89 O90 1.264 . S
C89 O97 1.249 . S
O90 C89 1.264 . S
O91 Mg84 1.986 . S
O91 C95 1.246 . S
O92 Mg87 2.032 . S
O92 C95 1.259 . S
O93 Mg84 2.114 . S
O93 C96 1.252 . S
O94 Mg84 2.251 . S
O94 Mg87 2.079 . S
O94 C96 1.273 . S
C95 O91 1.246 . S
C95 O92 1.259 . S
C96 O93 1.252 . S
C96 O94 1.273 . S
O97 Mg84 2.010 . S
O97 C89 1.249 . S
Mg98 O99 2.028 . S
Mg98 O105 1.986 . S
Mg98 O107 2.114 . S
Mg98 O108 2.251 . S
Mg98 O111 2.010 . S
O99 Mg98 2.028 . S
O99 C102 1.250 . S
O100 Mg101 2.028 . S
O100 C102 1.248 1_655 S
Mg101 O100 2.028 . S
Mg101 O106 2.032 1_655 S
Mg101 O108 2.079 1_655 S
C102 O99 1.250 . S
C102 O100 1.248 1_455 S
C103 O104 1.264 . S
C103 O111 1.249 . S
O104 C103 1.264 . S
O105 Mg98 1.986 . S
O105 C109 1.246 . S
O106 Mg101 2.032 1_455 S
O106 C109 1.259 . S
O107 Mg98 2.114 . S
O107 C110 1.252 . S
O108 Mg98 2.251 . S
O108 Mg101 2.079 1_455 S
O108 C110 1.273 . S
C109 O105 1.246 . S
C109 O106 1.259 . S
C110 O107 1.252 . S
C110 O108 1.273 . S
O111 Mg98 2.010 . S
O111 C103 1.249 . S
Mg112 O113 2.028 . S
Mg112 O119 1.986 . S
Mg112 O121 2.114 . S
Mg112 O122 2.251 . S
Mg112 O125 2.010 . S
O113 Mg112 2.028 . S
O113 C116 1.250 . S
O114 Mg115 2.028 . S
O114 C116 1.248 1_565 S
Mg115 O114 2.028 . S
Mg115 O120 2.032 1_565 S
Mg115 O122 2.079 1_565 S
C116 O113 1.250 . S
C116 O114 1.248 1_545 S
C117 O118 1.264 . S
C117 O125 1.249 . S
O118 C117 1.264 . S
O119 Mg112 1.986 . S
O119 C123 1.246 . S
O120 Mg115 2.032 1_545 S
O120 C123 1.259 . S
O121 Mg112 2.114 . S
O121 C124 1.252 . S
O122 Mg112 2.251 . S
O122 Mg115 2.079 1_545 S
O122 C124 1.273 . S
C123 O119 1.246 . S
C123 O120 1.259 . S
C124 O121 1.252 . S
C124 O122 1.273 . S
O125 Mg112 2.010 . S
O125 C117 1.249 . S
Mg126 O127 2.028 . S
Mg126 O133 1.986 . S
Mg126 O135 2.114 1_556 S
Mg126 O136 2.251 1_556 S
Mg126 O139 2.010 . S
O127 Mg126 2.028 . S
O127 C130 1.250 . S
O128 Mg129 2.028 . S
O128 C130 1.248 . S
Mg129 O128 2.028 . S
Mg129 O134 2.032 . S
Mg129 O136 2.079 1_556 S
C130 O127 1.250 . S
C130 O128 1.248 . S
C131 O132 1.264 . S
C131 O139 1.249 . S
O132 C131 1.264 . S
O133 Mg126 1.986 . S
O133 C137 1.246 . S
O134 Mg129 2.032 . S
O134 C137 1.259 . S
O135 Mg126 2.114 1_554 S
O135 C138 1.252 . S
O136 Mg126 2.251 1_554 S
O136 Mg129 2.079 1_554 S
O136 C138 1.273 . S
C137 O133 1.246 . S
C137 O134 1.259 . S
C138 O135 1.252 . S
C138 O136 1.273 . S
O139 Mg126 2.010 . S
O139 C131 1.249 . S
Mg140 O141 2.028 1_554 S
Mg140 O147 1.986 . S
Mg140 O149 2.114 . S
Mg140 O150 2.251 . S
Mg140 O153 2.010 . S
O141 Mg140 2.028 1_556 S
O141 C144 1.250 . S
O142 Mg143 2.028 1_556 S
O142 C144 1.248 1_455 S
Mg143 O142 2.028 1_554 S
Mg143 O148 2.032 1_455 S
Mg143 O150 2.079 1_455 S
C144 O141 1.250 . S
C144 O142 1.248 1_655 S
C145 O146 1.264 . S
C145 O153 1.249 . S
O146 C145 1.264 . S
O147 Mg140 1.986 . S
O147 C151 1.246 . S
O148 Mg143 2.032 1_655 S
O148 C151 1.259 . S
O149 Mg140 2.114 . S
O149 C152 1.252 . S
O150 Mg140 2.251 . S
O150 Mg143 2.079 1_655 S
O150 C152 1.273 . S
C151 O147 1.246 . S
C151 O148 1.259 . S
C152 O149 1.252 . S
C152 O150 1.273 . S
O153 Mg140 2.010 . S
O153 C145 1.249 . S
Mg154 O155 2.028 . S
Mg154 O161 1.986 . S
Mg154 O163 2.114 . S
Mg154 O164 2.251 . S
Mg154 O167 2.010 . S
O155 Mg154 2.028 . S
O155 C158 1.250 . S
O156 Mg157 2.028 . S
O156 C158 1.248 1_545 S
Mg157 O156 2.028 . S
Mg157 O162 2.032 1_545 S
Mg157 O164 2.079 1_545 S
C158 O155 1.250 . S
C158 O156 1.248 1_565 S
C159 O160 1.264 . S
C159 O167 1.249 . S
O160 C159 1.264 . S
O161 Mg154 1.986 . S
O161 C165 1.246 . S
O162 Mg157 2.032 1_565 S
O162 C165 1.259 . S
O163 Mg154 2.114 . S
O163 C166 1.252 . S
O164 Mg154 2.251 . S
O164 Mg157 2.079 1_565 S
O164 C166 1.273 . S
C165 O161 1.246 . S
C165 O162 1.259 . S
C166 O163 1.252 . S
C166 O164 1.273 . S
O167 Mg154 2.010 . S
O167 C159 1.249 . S
C138 C12 1.356 . S
C26 C152 1.356 1_455 S
C166 C40 1.356 1_565 S
C96 C54 1.356 . S
C110 C68 1.356 1_455 S
C124 C82 1.356 1_546 S
C95 C11 1.343 . S
C25 C109 1.343 . S
C123 C39 1.343 . S
C53 C137 1.343 . S
C151 C67 1.343 . S
C81 C165 1.343 . S
C130 C4 1.294 . S
C144 C18 1.294 1_655 S
C158 C32 1.294 1_564 S
C46 C88 1.294 . S
C102 C60 1.294 1_455 S
C74 C116 1.294 1_565 S
C5 C117 2.307 . S
C131 C19 2.306 . S
C145 C33 2.306 1_554 S
C159 C47 2.308 1_554 S
C89 C61 2.307 . S
C103 C75 2.305 . S
