# Generated by pormake.
# Topology kag, (6)-cn, num edge types: 1
# Building blocks:
#     Node 0, Type 0, BuildingBlock: PAMTOO_clean_sbu_0, # of connection points: 6
#     Node 1, Type 0, BuildingBlock: PAMTOO_clean_sbu_0, # of connection points: 6
#     Node 2, Type 0, BuildingBlock: PAMTOO_clean_sbu_0, # of connection points: 6
#     Edge 3, Type (0, 0), BuildingBlock: AJUNOK_clean_linker_0, # of connection points: 2
#     Edge 4, Type (0, 0), BuildingBlock: AJUNOK_clean_linker_0, # of connection points: 2
#     Edge 5, Type (0, 0), BuildingBlock: AJUNOK_clean_linker_0, # of connection points: 2
#     Edge 6, Type (0, 0), BuildingBlock: AJUNOK_clean_linker_0, # of connection points: 2
#     Edge 7, Type (0, 0), BuildingBlock: AJUNOK_clean_linker_0, # of connection points: 2
#     Edge 8, Type (0, 0), BuildingBlock: AJUNOK_clean_linker_0, # of connection points: 2
#     Edge 9, Type (0, 0), BuildingBlock: AJUNOK_clean_linker_0, # of connection points: 2
#     Edge 10, Type (0, 0), BuildingBlock: AJUNOK_clean_linker_0, # of connection points: 2
#     Edge 11, Type (0, 0), BuildingBlock: AJUNOK_clean_linker_0, # of connection points: 2
# Relax obj value: 0.147
# Max RMSD: 0.200
# Mean RMSD: 0.144
data_MOF--net-kag--node1-PAMTOO_clean_sbu_0--edge1-AJUNOK_clean_linker_0
_symmetry_space_group_name_H-M    P1
_symmetry_Int_Tables_number       1
_symmetry_cell_setting            triclinic
loop_
_symmetry_equiv_pos_as_xyz
'x, y, z'
_cell_length_a     22.790528
_cell_length_b     34.206591
_cell_length_c     11.234344
_cell_angle_alpha  98.161262
_cell_angle_beta   92.925131
_cell_angle_gamma 89.631322
loop_
_atom_site_label
_atom_site_type_symbol
_atom_site_fract_x
_atom_site_fract_y
_atom_site_fract_z
_atom_type_partial_charge
Dy0 Dy 0.08847 0.55852 0.01318 0.0
Dy1 Dy 1.07792 0.46122 0.96622 0.0
C2 C 0.08412 0.50968 0.74382 0.0
O3 O 0.99244 0.54509 0.02743 0.0
O4 O 0.98511 0.47965 0.94349 0.0
O5 O 1.07365 0.61536 0.95447 0.0
O6 O 0.10891 0.61182 0.13553 0.0
O7 O 1.05445 0.48274 0.15508 0.0
O8 O 0.11422 0.53639 0.18538 0.0
O9 O 0.17526 0.47352 0.97422 0.0
O10 O 0.18125 0.5415 -0.00919 0.0
O11 O 0.0822 0.40764 0.04732 0.0
O12 O 1.06845 0.40474 0.85423 0.0
C13 C 0.96109 0.51344 -0.01515 0.0
O14 O 0.10107 0.54158 0.81627 0.0
O15 O 1.06638 0.47764 0.78242 0.0
C16 C 0.14704 0.66167 0.03761 0.0
C17 C 0.23408 0.71717 0.00964 0.0
C18 C 0.22097 0.68579 0.9173 0.0
C19 C 0.17788 0.65811 0.93128 0.0
C20 C 0.1626 0.69166 0.13222 0.0
C21 C 0.20594 0.71911 0.11859 0.0
C22 C 0.09914 0.63431 0.05237 0.0
C23 C 0.08541 0.50896 0.2277 0.0
C24 C 0.20565 0.50651 0.98088 0.0
C25 C 1.01813 0.35765 0.94734 0.0
C26 C 0.93386 0.29769 0.9447 0.0
C27 C 0.96315 0.31388 0.05325 0.0
C28 C 1.00511 0.34349 0.05451 0.0
C29 C 0.98572 0.34332 0.8403 0.0
C30 C 0.94369 0.31376 0.83924 0.0
C31 C 1.06737 0.38548 0.94615 0.0
H32 H 0.24263 0.68351 0.83295 0.0
H33 H 0.16778 0.63459 0.85797 0.0
H34 H 0.14011 0.69445 0.21568 0.0
H35 H 0.21522 0.74311 0.19089 0.0
H36 H 0.95636 0.3019 0.13574 0.0
H37 H 1.02903 0.35411 0.13857 0.0
H38 H 0.99426 0.35383 0.75633 0.0
H39 H 0.92093 0.30207 0.75478 0.0
Dy40 Dy 0.51738 1.00436 0.9804 0.0
Dy41 Dy 0.6594 0.01397 0.00708 0.0
C42 C 0.58535 0.0119 0.23295 0.0
O43 O 0.53074 0.0703 0.02416 0.0
O44 O 0.62488 0.07088 0.96093 0.0
O45 O 0.43475 1.00101 0.06576 0.0
O46 O 0.43817 0.98846 0.87197 0.0
O47 O 0.6373 0.99955 0.80866 0.0
O48 O 0.54094 0.01971 0.80377 0.0
O49 O 0.6428 0.95166 0.03535 0.0
O50 O 0.55694 0.94529 0.91995 0.0
O51 O 0.74632 1.00877 0.93717 0.0
O52 O 0.73486 0.03535 0.12085 0.0
C53 C 0.57592 0.0892 -0.00986 0.0
O54 O 0.54807 0.99013 0.16056 0.0
O55 O 0.62415 0.0329 0.1881 0.0
C56 C 0.3858 0.94328 0.96696 0.0
C57 C 0.35055 0.86435 0.97029 0.0
C58 C 0.35447 0.89132 0.07722 0.0
C59 C 0.37193 0.93038 0.07562 0.0
C60 C 0.38284 0.91597 0.86055 0.0
C61 C 0.36616 0.87692 0.86254 0.0
C62 C 0.40905 0.98362 0.96572 0.0
C63 C 0.58943 1.00952 0.74976 0.0
C64 C 0.60115 0.92963 0.97553 0.0
C65 C 0.79518 0.06944 0.00779 0.0
C66 C 0.82951 0.14586 0.97263 0.0
C67 C 0.80894 0.11847 0.87458 0.0
C68 C 0.79185 0.08066 0.89187 0.0
C69 C 0.81609 0.09683 0.10565 0.0
C70 C 0.83279 0.13474 0.08835 0.0
C71 C 0.76889 0.03197 0.03033 0.0
H72 H 0.34273 0.88247 0.16174 0.0
H73 H 0.37477 0.9504 0.15955 0.0
H74 H 0.3942 0.92454 0.77542 0.0
H75 H 0.36519 0.85657 0.77927 0.0
H76 H 0.80533 0.12648 0.78461 0.0
H77 H 0.77467 0.06067 0.8147 0.0
H78 H 0.81809 0.08924 0.19618 0.0
H79 H 0.84888 0.15524 0.16538 0.0
Dy80 Dy 0.58446 0.45967 0.96628 0.0
Dy81 Dy 0.58296 0.5602 0.00033 0.0
C82 C 0.57469 0.51424 0.22851 0.0
O83 O 0.48933 0.47317 0.96477 0.0
O84 O 0.48837 0.54156 -0.00071 0.0
O85 O 0.60882 0.40854 0.04967 0.0
O86 O 0.56581 0.40074 0.86872 0.0
O87 O 0.60732 0.53748 0.81339 0.0
O88 O 0.56547 0.47585 0.78331 0.0
O89 O 0.67769 0.54519 0.02274 0.0
O90 O 0.678 0.47825 0.95129 0.0
O91 O 0.55242 0.61102 0.91914 0.0
O92 O 0.60659 0.6191 0.08793 0.0
C93 C 0.46148 0.50702 0.98015 0.0
O94 O 0.56734 0.48041 0.15828 0.0
O95 O 0.58536 0.5476 0.18888 0.0
C96 C 0.58737 0.34087 0.96157 0.0
C97 C 0.57926 0.25873 0.96866 0.0
C98 C 0.59036 0.28508 0.07508 0.0
C99 C 0.59457 0.32573 0.07153 0.0
C100 C 0.57612 0.31455 0.85527 0.0
C101 C 0.57213 0.27392 0.85877 0.0
C102 C 0.58618 0.38405 0.95983 0.0
C103 C 0.58463 0.50712 0.74193 0.0
C104 C 0.70533 0.51194 -0.0109 0.0
C105 C 0.57651 0.67911 0.00552 0.0
C106 C 0.57985 0.76166 0.00123 0.0
C107 C 0.55288 0.73624 0.90479 0.0
C108 C 0.55117 0.69542 0.90697 0.0
C109 C 0.60254 0.70453 0.1028 0.0
C110 C 0.60436 0.74529 0.10051 0.0
C111 C 0.57891 0.63572 0.0038 0.0
H112 H 0.59628 0.2742 0.16086 0.0
H113 H 0.6024 0.34538 0.15528 0.0
H114 H 0.56963 0.32538 0.76953 0.0
H115 H 0.56276 0.25435 0.77545 0.0
H116 H 0.53336 0.74792 0.82724 0.0
H117 H 0.53096 0.67659 0.83039 0.0
H118 H 0.62268 0.69286 0.17978 0.0
H119 H 0.62656 0.76387 0.17517 0.0
C120 C 1.03612 0.49673 0.53773 0.0
C121 C 0.08552 0.50948 0.61292 0.0
C122 C 1.03653 0.49632 0.41271 0.0
C123 C 0.08648 0.50845 0.35904 0.0
H124 H 0.99663 0.48761 0.57606 0.0
H125 H 0.99716 0.48708 0.35805 0.0
S126 S 0.22969 0.53877 0.5157 0.0
N127 N 0.18717 0.53097 0.62478 0.0
N128 N 0.18832 0.52998 0.3897 0.0
C129 C 0.13673 0.52008 0.43321 0.0
C130 C 0.13616 0.52064 0.56035 0.0
C131 C 0.63163 0.02916 0.44157 0.0
C132 C 0.58563 0.01102 0.36488 0.0
C133 C 0.63355 0.02781 0.56612 0.0
C134 C 0.58907 1.00885 0.61837 0.0
H135 H 0.66665 0.04439 0.40532 0.0
H136 H 0.66935 0.04241 0.62216 0.0
S137 S 0.45973 0.95619 0.45969 0.0
N138 N 0.49497 0.97281 0.35225 0.0
N139 N 0.49857 0.97102 0.5859 0.0
C140 C 0.54294 0.99068 0.5436 0.0
C141 C 0.54123 0.99155 0.41694 0.0
C142 C 0.61692 0.53475 0.56142 0.0
C143 C 0.58077 0.50857 0.61072 0.0
C144 C 0.61339 0.53735 0.43793 0.0
C145 C 0.57372 0.51379 0.35934 0.0
H146 H 0.64879 0.55308 0.61829 0.0
H147 H 0.64307 0.55715 0.40338 0.0
S148 S 0.46514 0.44359 0.44377 0.0
N149 N 0.50098 0.46073 0.57178 0.0
N150 N 0.49491 0.46544 0.33955 0.0
C151 C 0.53642 0.48817 0.40742 0.0
C152 C 0.53982 0.48558 0.53314 0.0
C153 C 0.30396 0.53635 0.04513 0.0
C154 C 0.2707 0.50503 0.9803 0.0
C155 C 0.36545 0.53684 0.04413 0.0
C156 C 0.39627 0.50603 0.97815 0.0
H157 H 0.28232 0.56068 0.09809 0.0
H158 H 0.389 0.56137 0.09666 0.0
S159 S 0.32962 0.41877 0.78483 0.0
N160 N 0.27293 0.44339 0.84348 0.0
N161 N 0.38851 0.44425 0.84067 0.0
C162 C 0.36351 0.47468 0.91169 0.0
C163 C 0.30078 0.47416 0.9131 0.0
C164 C 0.83286 0.21947 0.02912 0.0
C165 C 0.85052 0.18534 0.95418 0.0
C166 C 0.85775 0.25642 0.02191 0.0
C167 C 0.90074 0.26038 0.93897 0.0
H168 H 0.80066 0.21742 0.09567 0.0
H169 H 0.8445 0.28182 0.08363 0.0
S170 S 0.96207 0.18015 0.72347 0.0
N171 N 0.91329 0.15799 0.79461 0.0
N172 N 0.95961 0.22729 0.78042 0.0
C173 C 0.9172 0.22673 0.86101 0.0
C174 C 0.89216 0.18923 0.86869 0.0
C175 C 0.60896 0.85889 0.88478 0.0
C176 C 0.59845 0.88719 -0.01539 0.0
C177 C 0.60261 0.81837 0.8907 0.0
C178 C 0.58458 0.80486 -0.00391 0.0
H179 H 0.62227 0.86813 0.80184 0.0
H180 H 0.61243 0.79747 0.81248 0.0
S181 S 0.54457 0.86826 0.27655 0.0
N182 N 0.56563 0.89972 0.18838 0.0
N183 N 0.55158 0.82386 0.19886 0.0
C184 C 0.57228 0.83327 0.0952 0.0
C185 C 0.57963 0.87437 0.08949 0.0
C186 C 0.86186 0.49086 0.89682 0.0
C187 C 0.89597 0.5149 -0.01364 0.0
C188 C 0.80033 0.48988 0.89869 0.0
C189 C 0.77044 0.51295 -0.00988 0.0
H190 H 0.88289 0.47267 0.82421 0.0
H191 H 0.77597 0.47125 0.82717 0.0
S192 S 0.83925 0.57799 0.2519 0.0
N193 N 0.89527 0.5605 0.17303 0.0
N194 N 0.77969 0.55885 0.17627 0.0
C195 C 0.80395 0.53686 0.08085 0.0
C196 C 0.86666 0.53781 0.07902 0.0
C197 C 0.31648 0.76541 0.06931 0.0
C198 C 0.2702 0.75096 -0.01245 0.0
C199 C 0.34426 0.80132 0.06028 0.0
C200 C 0.32618 0.82414 0.97 0.0
H201 H 0.33007 0.7494 0.14261 0.0
H202 H 0.37907 0.81179 0.12616 0.0
S203 S 0.20667 0.79902 0.73482 0.0
N204 N 0.20829 0.7616 0.8128 0.0
N205 N 0.25916 0.82933 0.79728 0.0
C206 C 0.28111 0.80926 0.88576 0.0
C207 C 0.25344 0.77261 0.89423 0.0
C208 C 0.54051 0.19935 0.05026 0.0
C209 C 0.57689 0.21538 0.97145 0.0
C210 C 0.53836 0.15833 0.05347 0.0
C211 C 0.57321 0.13204 0.97921 0.0
H212 H 0.51345 0.21867 0.10962 0.0
H213 H 0.51051 0.1473 0.11659 0.0
S214 S 0.67548 0.15934 0.75649 0.0
N215 N 0.64839 0.20183 0.81817 0.0
N216 N 0.64398 0.12528 0.82192 0.0
C217 C 0.60922 0.14789 0.89918 0.0
C218 C 0.6112 0.18937 0.89594 0.0
loop_
_geom_bond_atom_site_label_1
_geom_bond_atom_site_label_2
_geom_bond_distance
_geom_bond_site_symmetry_2
_ccdc_geom_bond_type
Dy0 O3 2.307 1_455 S
Dy0 O5 2.395 1_554 S
Dy0 O6 2.379 . S
Dy0 O8 2.339 . S
Dy0 O10 2.298 . S
Dy0 O14 2.275 1_554 S
Dy0 C22 2.738 . S
Dy1 O4 2.298 . S
Dy1 O7 2.275 1_656 S
Dy1 O9 2.307 1_655 S
Dy1 O11 2.395 1_556 S
Dy1 O12 2.379 . S
Dy1 O15 2.339 . S
Dy1 C31 2.738 . S
C2 O14 1.254 . S
C2 O15 1.257 1_455 S
O3 Dy0 2.307 1_655 S
O3 C13 1.266 . S
O4 Dy1 2.298 . S
O4 C13 1.236 1_556 S
O5 Dy0 2.395 1_556 S
O5 C22 1.255 1_556 S
O6 Dy0 2.379 . S
O6 C22 1.249 . S
O7 Dy1 2.275 1_454 S
O7 C23 1.254 . S
O8 Dy0 2.339 . S
O8 C23 1.257 . S
O9 Dy1 2.307 1_455 S
O9 C24 1.266 . S
O10 Dy0 2.298 . S
O10 C24 1.236 1_554 S
O11 Dy1 2.395 1_554 S
O11 C31 1.255 1_554 S
O12 Dy1 2.379 . S
O12 C31 1.249 . S
C13 O3 1.266 . S
C13 O4 1.236 1_554 S
O14 Dy0 2.275 1_556 S
O14 C2 1.254 . S
O15 Dy1 2.339 . S
O15 C2 1.257 1_655 S
C16 C19 1.344 1_554 S
C16 C20 1.328 . S
C16 C22 1.516 . S
C17 C18 1.304 1_554 S
C17 C21 1.323 . S
C18 C17 1.304 1_556 S
C18 C19 1.371 . S
C18 H32 0.930 . S
C19 C16 1.344 1_556 S
C19 C18 1.371 . S
C19 H33 0.931 . S
C20 C16 1.328 . S
C20 C21 1.433 . S
C20 H34 0.931 . S
C21 C17 1.323 . S
C21 C20 1.433 . S
C21 H35 0.933 . S
C22 Dy0 2.738 . S
C22 O5 1.255 1_554 S
C22 O6 1.249 . S
C22 C16 1.516 . S
C23 O7 1.254 . S
C23 O8 1.257 . S
C24 O9 1.266 . S
C24 O10 1.236 1_556 S
C25 C28 1.344 1_556 S
C25 C29 1.328 . S
C25 C31 1.516 . S
C26 C27 1.304 1_556 S
C26 C30 1.323 . S
C27 C26 1.304 1_554 S
C27 C28 1.371 . S
C27 H36 0.930 . S
C28 C25 1.344 1_554 S
C28 C27 1.371 . S
C28 H37 0.931 . S
C29 C25 1.328 . S
C29 C30 1.433 . S
C29 H38 0.931 . S
C30 C26 1.323 . S
C30 C29 1.433 . S
C30 H39 0.933 . S
C31 Dy1 2.738 . S
C31 O11 1.255 1_556 S
C31 O12 1.249 . S
C31 C25 1.516 . S
H32 C18 0.930 . S
H33 C19 0.931 . S
H34 C20 0.931 . S
H35 C21 0.933 . S
H36 C27 0.930 . S
H37 C28 0.931 . S
H38 C29 0.931 . S
H39 C30 0.933 . S
Dy40 O43 2.307 1_565 S
Dy40 O45 2.395 1_556 S
Dy40 O46 2.379 . S
Dy40 O48 2.339 . S
Dy40 O50 2.298 . S
Dy40 O54 2.275 1_556 S
Dy40 C62 2.738 . S
Dy41 O44 2.298 . S
Dy41 O47 2.275 1_554 S
Dy41 O49 2.307 1_545 S
Dy41 O51 2.395 1_554 S
Dy41 O52 2.379 . S
Dy41 O55 2.339 . S
Dy41 C71 2.738 . S
C42 O54 1.254 1_545 S
C42 O55 1.257 . S
O43 Dy40 2.307 1_545 S
O43 C53 1.266 1_556 S
O44 Dy41 2.298 . S
O44 C53 1.236 . S
O45 Dy40 2.395 1_554 S
O45 C62 1.255 1_554 S
O46 Dy40 2.379 . S
O46 C62 1.249 . S
O47 Dy41 2.275 1_556 S
O47 C63 1.254 1_545 S
O48 Dy40 2.339 . S
O48 C63 1.257 . S
O49 Dy41 2.307 1_565 S
O49 C64 1.266 1_554 S
O50 Dy40 2.298 . S
O50 C64 1.236 . S
O51 Dy41 2.395 1_556 S
O51 C71 1.255 1_556 S
O52 Dy41 2.379 . S
O52 C71 1.249 . S
C53 O43 1.266 1_554 S
C53 O44 1.236 . S
O54 Dy40 2.275 1_554 S
O54 C42 1.254 1_565 S
O55 Dy41 2.339 . S
O55 C42 1.257 . S
C56 C59 1.344 1_556 S
C56 C60 1.328 . S
C56 C62 1.516 . S
C57 C58 1.304 . S
C57 C61 1.323 1_554 S
C58 C57 1.304 . S
C58 C59 1.371 . S
C58 H72 0.930 . S
C59 C56 1.344 1_554 S
C59 C58 1.371 . S
C59 H73 0.931 . S
C60 C56 1.328 . S
C60 C61 1.433 . S
C60 H74 0.931 . S
C61 C57 1.323 1_556 S
C61 C60 1.433 . S
C61 H75 0.933 . S
C62 Dy40 2.738 . S
C62 O45 1.255 1_556 S
C62 O46 1.249 . S
C62 C56 1.516 . S
C63 O47 1.254 1_565 S
C63 O48 1.257 . S
C64 O49 1.266 1_556 S
C64 O50 1.236 . S
C65 C68 1.344 1_554 S
C65 C69 1.328 . S
C65 C71 1.516 . S
C66 C67 1.304 . S
C66 C70 1.323 1_556 S
C67 C66 1.304 . S
C67 C68 1.371 . S
C67 H76 0.930 . S
C68 C65 1.344 1_556 S
C68 C67 1.371 . S
C68 H77 0.931 . S
C69 C65 1.328 . S
C69 C70 1.433 . S
C69 H78 0.931 . S
C70 C66 1.323 1_554 S
C70 C69 1.433 . S
C70 H79 0.933 . S
C71 Dy41 2.738 . S
C71 O51 1.255 1_554 S
C71 O52 1.249 . S
C71 C65 1.516 . S
H72 C58 0.930 . S
H73 C59 0.931 . S
H74 C60 0.931 . S
H75 C61 0.933 . S
H76 C67 0.930 . S
H77 C68 0.931 . S
H78 C69 0.931 . S
H79 C70 0.933 . S
Dy80 O83 2.307 . S
Dy80 O85 2.395 1_556 S
Dy80 O86 2.379 . S
Dy80 O88 2.339 . S
Dy80 O90 2.298 . S
Dy80 O94 2.275 1_556 S
Dy80 C102 2.738 . S
Dy81 O84 2.298 . S
Dy81 O87 2.275 1_554 S
Dy81 O89 2.307 . S
Dy81 O91 2.395 1_554 S
Dy81 O92 2.379 . S
Dy81 O95 2.339 . S
Dy81 C111 2.738 . S
C82 O94 1.254 . S
C82 O95 1.257 . S
O83 Dy80 2.307 . S
O83 C93 1.266 . S
O84 Dy81 2.298 . S
O84 C93 1.236 1_554 S
O85 Dy80 2.395 1_554 S
O85 C102 1.255 1_554 S
O86 Dy80 2.379 . S
O86 C102 1.249 . S
O87 Dy81 2.275 1_556 S
O87 C103 1.254 . S
O88 Dy80 2.339 . S
O88 C103 1.257 . S
O89 Dy81 2.307 . S
O89 C104 1.266 . S
O90 Dy80 2.298 . S
O90 C104 1.236 1_556 S
O91 Dy81 2.395 1_556 S
O91 C111 1.255 1_556 S
O92 Dy81 2.379 . S
O92 C111 1.249 . S
C93 O83 1.266 . S
C93 O84 1.236 1_556 S
O94 Dy80 2.275 1_554 S
O94 C82 1.254 . S
O95 Dy81 2.339 . S
O95 C82 1.257 . S
C96 C99 1.344 1_556 S
C96 C100 1.328 . S
C96 C102 1.516 . S
C97 C98 1.304 . S
C97 C101 1.323 1_554 S
C98 C97 1.304 . S
C98 C99 1.371 . S
C98 H112 0.930 . S
C99 C96 1.344 1_554 S
C99 C98 1.371 . S
C99 H113 0.931 . S
C100 C96 1.328 . S
C100 C101 1.433 . S
C100 H114 0.931 . S
C101 C97 1.323 1_556 S
C101 C100 1.433 . S
C101 H115 0.933 . S
C102 Dy80 2.738 . S
C102 O85 1.255 1_556 S
C102 O86 1.249 . S
C102 C96 1.516 . S
C103 O87 1.254 . S
C103 O88 1.257 . S
C104 O89 1.266 . S
C104 O90 1.236 1_554 S
C105 C108 1.344 1_554 S
C105 C109 1.328 . S
C105 C111 1.516 . S
C106 C107 1.304 . S
C106 C110 1.323 1_556 S
C107 C106 1.304 . S
C107 C108 1.371 . S
C107 H116 0.930 . S
C108 C105 1.344 1_556 S
C108 C107 1.371 . S
C108 H117 0.931 . S
C109 C105 1.328 . S
C109 C110 1.433 . S
C109 H118 0.931 . S
C110 C106 1.323 1_554 S
C110 C109 1.433 . S
C110 H119 0.933 . S
C111 Dy81 2.738 . S
C111 O91 1.255 1_554 S
C111 O92 1.249 . S
C111 C105 1.516 . S
H112 C98 0.930 . S
H113 C99 0.931 . S
H114 C100 0.931 . S
H115 C101 0.933 . S
H116 C107 0.930 . S
H117 C108 0.931 . S
H118 C109 0.931 . S
H119 C110 0.933 . S
C120 C121 1.369 1_655 S
C120 C122 1.419 . S
C120 H124 0.930 . S
C121 C120 1.369 1_455 S
C121 C130 1.429 . S
C122 C120 1.419 . S
C122 C123 1.373 . S
C122 H125 0.929 . S
C123 C122 1.373 . S
C123 C129 1.418 1_655 S
H124 C120 0.930 . S
H125 C122 0.929 . S
S126 N127 1.613 . S
S126 N128 1.610 . S
N127 S126 1.613 . S
N127 C130 1.350 . S
N128 S126 1.610 . S
N128 C129 1.351 . S
C129 C123 1.418 1_455 S
C129 N128 1.351 . S
C129 C130 1.434 . S
C130 C121 1.429 . S
C130 N127 1.350 . S
C130 C129 1.434 . S
C131 C132 1.369 . S
C131 C133 1.419 . S
C131 H135 0.930 . S
C132 C131 1.369 . S
C132 C141 1.429 1_545 S
C133 C131 1.419 . S
C133 C134 1.356 1_545 S
C133 H136 0.929 . S
C134 C133 1.356 1_565 S
C134 C140 1.434 . S
H135 C131 0.930 . S
H136 C133 0.929 . S
S137 N138 1.613 . S
S137 N139 1.610 . S
N138 S137 1.613 . S
N138 C141 1.350 . S
N139 S137 1.610 . S
N139 C140 1.351 . S
C140 C134 1.434 . S
C140 N139 1.351 . S
C140 C141 1.434 . S
C141 C132 1.429 1_565 S
C141 N138 1.350 . S
C141 C140 1.434 . S
C142 C143 1.369 . S
C142 C144 1.419 . S
C142 H146 0.930 . S
C143 C142 1.369 . S
C143 C152 1.429 . S
C144 C142 1.419 . S
C144 C145 1.363 . S
C144 H147 0.929 . S
C145 C144 1.363 . S
C145 C151 1.428 . S
H146 C142 0.930 . S
H147 C144 0.929 . S
S148 N149 1.613 . S
S148 N150 1.610 . S
N149 S148 1.613 . S
N149 C152 1.350 . S
N150 S148 1.610 . S
N150 C151 1.351 . S
C151 C145 1.428 . S
C151 N150 1.351 . S
C151 C152 1.434 . S
C152 C143 1.429 . S
C152 N149 1.350 . S
C152 C151 1.434 . S
C153 C154 1.369 1_554 S
C153 C155 1.419 . S
C153 H157 0.930 . S
C154 C153 1.369 1_556 S
C154 C163 1.429 . S
C155 C153 1.419 . S
C155 C156 1.363 1_554 S
C155 H158 0.929 . S
C156 C155 1.363 1_556 S
C156 C162 1.428 . S
H157 C153 0.930 . S
H158 C155 0.929 . S
S159 N160 1.613 . S
S159 N161 1.610 . S
N160 S159 1.613 . S
N160 C163 1.350 . S
N161 S159 1.610 . S
N161 C162 1.351 . S
C162 C156 1.428 . S
C162 N161 1.351 . S
C162 C163 1.434 . S
C163 C154 1.429 . S
C163 N160 1.350 . S
C163 C162 1.434 . S
C164 C165 1.369 1_554 S
C164 C166 1.419 . S
C164 H168 0.930 . S
C165 C164 1.369 1_556 S
C165 C174 1.429 . S
C166 C164 1.419 . S
C166 C167 1.363 1_554 S
C166 H169 0.929 . S
C167 C166 1.363 1_556 S
C167 C173 1.428 . S
H168 C164 0.930 . S
H169 C166 0.929 . S
S170 N171 1.613 . S
S170 N172 1.610 . S
N171 S170 1.613 . S
N171 C174 1.350 . S
N172 S170 1.610 . S
N172 C173 1.351 . S
C173 C167 1.428 . S
C173 N172 1.351 . S
C173 C174 1.434 . S
C174 C165 1.429 . S
C174 N171 1.350 . S
C174 C173 1.434 . S
C175 C176 1.369 . S
C175 C177 1.419 . S
C175 H179 0.930 . S
C176 C175 1.369 . S
C176 C185 1.429 1_556 S
C177 C175 1.419 . S
C177 C178 1.363 1_556 S
C177 H180 0.929 . S
C178 C177 1.363 1_554 S
C178 C184 1.428 . S
H179 C175 0.930 . S
H180 C177 0.929 . S
S181 N182 1.613 . S
S181 N183 1.610 . S
N182 S181 1.613 . S
N182 C185 1.350 . S
N183 S181 1.610 . S
N183 C184 1.351 . S
C184 C178 1.428 . S
C184 N183 1.351 . S
C184 C185 1.434 . S
C185 C176 1.429 1_554 S
C185 N182 1.350 . S
C185 C184 1.434 . S
C186 C187 1.369 1_556 S
C186 C188 1.419 . S
C186 H190 0.930 . S
C187 C186 1.369 1_554 S
C187 C196 1.429 . S
C188 C186 1.419 . S
C188 C189 1.363 1_556 S
C188 H191 0.929 . S
C189 C188 1.363 1_554 S
C189 C195 1.428 . S
H190 C186 0.930 . S
H191 C188 0.929 . S
S192 N193 1.613 . S
S192 N194 1.610 . S
N193 S192 1.613 . S
N193 C196 1.350 . S
N194 S192 1.610 . S
N194 C195 1.351 . S
C195 C189 1.428 . S
C195 N194 1.351 . S
C195 C196 1.434 . S
C196 C187 1.429 . S
C196 N193 1.350 . S
C196 C195 1.434 . S
C197 C198 1.369 . S
C197 C199 1.419 . S
C197 H201 0.930 . S
C198 C197 1.369 . S
C198 C207 1.429 1_554 S
C199 C197 1.419 . S
C199 C200 1.363 . S
C199 H202 0.929 . S
C200 C199 1.363 . S
C200 C206 1.428 1_554 S
H201 C197 0.930 . S
H202 C199 0.929 . S
S203 N204 1.613 . S
S203 N205 1.610 . S
N204 S203 1.613 . S
N204 C207 1.350 . S
N205 S203 1.610 . S
N205 C206 1.351 . S
C206 C200 1.428 1_556 S
C206 N205 1.351 . S
C206 C207 1.434 . S
C207 C198 1.429 1_556 S
C207 N204 1.350 . S
C207 C206 1.434 . S
C208 C209 1.369 1_554 S
C208 C210 1.419 . S
C208 H212 0.930 . S
C209 C208 1.369 1_556 S
C209 C218 1.429 . S
C210 C208 1.419 . S
C210 C211 1.363 . S
C210 H213 0.929 . S
C211 C210 1.363 . S
C211 C217 1.428 1_554 S
H212 C208 0.930 . S
H213 C210 0.929 . S
S214 N215 1.613 . S
S214 N216 1.610 . S
N215 S214 1.613 . S
N215 C218 1.350 . S
N216 S214 1.610 . S
N216 C217 1.351 . S
C217 C211 1.428 1_556 S
C217 N216 1.351 . S
C217 C218 1.434 . S
C218 C209 1.429 . S
C218 N215 1.350 . S
C218 C217 1.434 . S
C121 C2 1.476 . S
C123 C23 1.470 1_655 S
C132 C42 1.468 . S
C134 C63 1.464 . S
C143 C103 1.477 . S
C145 C82 1.481 . S
C154 C24 2.591 . S
C156 C93 2.549 . S
C165 C66 0.870 . S
C167 C26 0.880 . S
C176 C64 2.039 . S
C178 C106 2.035 1_554 S
C187 C13 2.590 . S
C189 C104 2.551 . S
C198 C17 0.880 . S
C200 C57 0.865 . S
C209 C97 2.038 1_556 S
C211 C53 2.036 . S
