# Generated by pormake.
# Topology qtz-x, (6)-cn, num edge types: 1
# Building blocks:
#     Node 0, Type 0, BuildingBlock: VOLQOD_clean_sbu_1, # of connection points: 6
#     Node 1, Type 0, BuildingBlock: VOLQOD_clean_sbu_1, # of connection points: 6
#     Node 2, Type 0, BuildingBlock: VOLQOD_clean_sbu_1, # of connection points: 6
#     Edge 3, Type (0, 0), BuildingBlock: AJUNOK_clean_linker_0, # of connection points: 2
#     Edge 4, Type (0, 0), BuildingBlock: AJUNOK_clean_linker_0, # of connection points: 2
#     Edge 5, Type (0, 0), BuildingBlock: AJUNOK_clean_linker_0, # of connection points: 2
#     Edge 6, Type (0, 0), BuildingBlock: AJUNOK_clean_linker_0, # of connection points: 2
#     Edge 7, Type (0, 0), BuildingBlock: AJUNOK_clean_linker_0, # of connection points: 2
#     Edge 8, Type (0, 0), BuildingBlock: AJUNOK_clean_linker_0, # of connection points: 2
#     Edge 9, Type (0, 0), BuildingBlock: AJUNOK_clean_linker_0, # of connection points: 2
#     Edge 10, Type (0, 0), BuildingBlock: AJUNOK_clean_linker_0, # of connection points: 2
#     Edge 11, Type (0, 0), BuildingBlock: AJUNOK_clean_linker_0, # of connection points: 2
# Relax obj value: 0.235
# Max RMSD: 0.197
# Mean RMSD: 0.197
data_MOF--net-qtz-x--node1-VOLQOD_clean_sbu_1--edge1-AJUNOK_clean_linker_0
_symmetry_space_group_name_H-M    P1
_symmetry_Int_Tables_number       1
_symmetry_cell_setting            triclinic
loop_
_symmetry_equiv_pos_as_xyz
'x, y, z'
_cell_length_a     13.313183
_cell_length_b     13.31033
_cell_length_c     28.949246
_cell_angle_alpha  89.286296
_cell_angle_beta   90.881508
_cell_angle_gamma 119.91268
loop_
_atom_site_label
_atom_site_type_symbol
_atom_site_fract_x
_atom_site_fract_y
_atom_site_fract_z
_atom_type_partial_charge
O0 O 0.1214 0.87407 0.14456 0.0
Zn1 Zn 0.16237 0.7472 0.13733 0.0
O2 O 0.03165 0.59598 0.15701 0.0
Zn3 Zn 0.9803 0.48416 0.10797 0.0
Zn4 Zn 0.90067 0.61478 0.17696 0.0
Zn5 Zn 0.08292 0.53038 0.20567 0.0
O6 O 0.99565 0.34294 0.12063 0.0
O7 O 0.06431 0.37327 0.19231 0.0
O8 O 0.19708 0.74349 0.06916 0.0
O9 O 0.06379 0.56293 0.05101 0.0
O10 O 0.81643 0.4262 0.09335 0.0
O11 O 0.75357 0.51546 0.13875 0.0
O12 O 0.87314 0.57897 0.24557 0.0
O13 O 0.30538 0.79211 0.17772 0.0
O14 O 1.00169 0.52395 0.26352 0.0
O15 O 0.24745 0.63386 0.22044 0.0
C16 C 0.02907 0.87379 0.15586 0.0
C17 C 0.02912 0.31075 0.15632 0.0
C18 C 0.73626 0.44404 0.10647 0.0
C19 C 0.1451 0.66293 0.03954 0.0
C20 C 0.92397 0.54734 0.27523 0.0
C21 C 0.32497 0.73528 0.20893 0.0
O22 O 0.93852 0.78076 0.16796 0.0
O23 O 0.78897 0.94627 0.4826 0.0
Zn24 Zn 0.62048 0.90421 0.47502 0.0
O25 O 0.60035 0.03454 0.49475 0.0
Zn26 Zn 0.53251 0.08165 0.44564 0.0
Zn27 Zn 0.74933 0.16562 0.51582 0.0
Zn28 Zn 0.48907 0.98666 0.5433 0.0
O29 O 0.37139 0.05498 0.45751 0.0
O30 O 0.35799 0.0195 0.53268 0.0
O31 O 0.58252 0.87292 0.4064 0.0
O32 O 0.53037 1.003 0.38776 0.0
O33 O 0.63386 0.24757 0.43181 0.0
O34 O 0.79279 0.3064 0.47472 0.0
O35 O 0.74558 0.201 0.58391 0.0
O36 O 0.52061 0.75924 0.51451 0.0
O37 O 0.56852 0.06061 0.60147 0.0
O38 O 0.42104 0.81979 0.555 0.0
C39 C 0.87992 0.0364 0.49698 0.0
C40 C 0.31834 0.03861 0.49545 0.0
C41 C 0.73555 0.32528 0.44338 0.0
C42 C 0.55282 0.9245 0.37635 0.0
C43 C 0.66719 0.14316 0.61351 0.0
C44 C 0.44262 0.74048 0.54403 0.0
O45 O 0.8766 0.12548 0.51045 0.0
O46 O 0.69153 0.60965 0.84641 0.0
Zn47 Zn 0.56586 0.44113 0.84825 0.0
O48 O 0.41737 0.41864 0.82489 0.0
Zn49 Zn 0.35687 0.30432 0.77553 0.0
Zn50 Zn 0.44254 0.56878 0.8024 0.0
Zn51 Zn 0.30307 0.3594 0.87382 0.0
O52 O 0.19892 0.16547 0.78923 0.0
O53 O 0.16629 0.20045 0.86061 0.0
O54 O 0.62386 0.35801 0.80836 0.0
O55 O 0.4694 0.2505 0.76397 0.0
O56 O 0.34648 0.37663 0.7155 0.0
O57 O 0.38865 0.5543 0.73614 0.0
O58 O 0.36153 0.62799 0.8432 0.0
O59 O 0.55098 0.38888 0.91454 0.0
O60 O 0.24823 0.47097 0.88496 0.0
O61 O 0.37457 0.35134 0.93432 0.0
C62 C 0.69919 0.69821 0.8258 0.0
C63 C 0.13618 0.13574 0.82515 0.0
C64 C 0.3583 0.47538 0.7058 0.0
C65 C 0.57227 0.28168 0.77735 0.0
C66 C 0.28301 0.57554 0.87321 0.0
C67 C 0.47229 0.36139 0.94456 0.0
O68 O 0.61229 0.69313 0.80457 0.0
C69 C 0.1265 0.08794 0.16891 0.0
C70 C 0.02726 0.98425 0.15539 0.0
C71 C 0.12585 0.1931 0.16987 0.0
C72 C 0.02721 0.19884 0.15592 0.0
H73 H 0.2046 0.08746 0.17962 0.0
H74 H 0.20363 0.27081 0.18091 0.0
S75 S 0.74592 0.95316 0.11687 0.0
N76 N 0.82739 0.89418 0.12808 0.0
N77 N 0.82812 0.0927 0.12811 0.0
C78 C 0.92806 0.0964 0.14174 0.0
C79 C 0.92755 0.98883 0.14197 0.0
C80 C 0.12327 0.98268 0.46185 0.0
C81 C 0.20813 0.04037 0.49626 0.0
C82 C 0.01658 0.9802 0.46279 0.0
C83 C 0.99235 0.0383 0.49739 0.0
H84 H 0.13859 0.93732 0.43448 0.0
H85 H 0.95332 0.9339 0.4358 0.0
S86 S 0.18794 0.20536 0.59452 0.0
N87 N 0.26163 0.1574 0.5657 0.0
N88 N 0.06321 0.15661 0.56658 0.0
C89 C 0.07753 0.09798 0.53156 0.0
C90 C 0.18482 0.09791 0.53125 0.0
C91 C 0.84147 0.88735 0.78897 0.0
C92 C 0.81135 0.80907 0.82635 0.0
C93 C 0.94775 0.99194 0.7884 0.0
C94 C 0.02613 0.02372 0.82581 0.0
H95 H 0.78321 0.86697 0.75959 0.0
H96 H 0.96779 0.04931 0.75885 0.0
S97 S 0.98946 0.85052 0.932 0.0
N98 N 0.87021 0.77064 0.90147 0.0
N99 N 0.06745 0.96894 0.90101 0.0
C100 C 0.99692 0.94707 0.86353 0.0
C101 C 0.89025 0.83929 0.86362 0.0
C102 C 0.13188 0.59201 0.91427 0.0
C103 C 0.2495 0.64073 0.90367 0.0
C104 C 0.09817 0.61173 0.95708 0.0
C105 C 0.18119 0.67949 0.99083 0.0
H106 H 0.06617 0.52839 0.89148 0.0
H107 H 1.00682 0.56457 0.9654 0.0
S108 S 0.49935 0.84535 0.97576 0.0
N109 N 0.44838 0.77533 0.92656 0.0
N110 N 0.38485 0.81148 0.00772 0.0
C111 C 0.29824 0.74124 0.97824 0.0
C112 C 0.33253 0.72194 0.93427 0.0
C113 C 0.72674 0.44301 0.37784 0.0
C114 C 0.79471 0.42405 0.4109 0.0
C115 C 0.77204 0.49357 0.33492 0.0
C116 C 0.88701 0.52773 0.32394 0.0
H117 H 0.6347 0.40745 0.38313 0.0
H118 H 0.71375 0.49577 0.30892 0.0
S119 S 0.11107 0.53565 0.4042 0.0
N120 N 0.98989 0.47107 0.43399 0.0
N121 N 0.07563 0.56788 0.35349 0.0
C122 C 0.96042 0.52681 0.35931 0.0
C123 C 0.91423 0.4752 0.40301 0.0
C124 C 0.28592 0.55928 0.64639 0.0
C125 C 0.35117 0.50611 0.65744 0.0
C126 C 0.3041 0.62103 0.60508 0.0
C127 C 0.39213 0.63629 0.57436 0.0
H128 H 0.2263 0.56006 0.67127 0.0
H129 H 0.25696 0.66716 0.59967 0.0
S130 S 0.56807 0.49117 0.58355 0.0
N131 N 0.49039 0.45247 0.63116 0.0
N132 N 0.52919 0.57367 0.55407 0.0
C133 C 0.44763 0.57115 0.58245 0.0
C134 C 0.42662 0.50543 0.62418 0.0
C135 C 0.54785 0.2852 0.00587 0.0
C136 C 0.5025 0.35655 -0.00685 0.0
C137 C 0.60946 0.30335 0.04733 0.0
C138 C 0.63171 0.39654 0.0765 0.0
H139 H 0.54284 0.22048 0.98213 0.0
H140 H 0.65022 0.25155 0.0541 0.0
S141 S 0.51265 0.59458 0.0618 0.0
N142 N 0.46645 0.51086 0.01569 0.0
N143 N 0.58709 0.54887 0.09306 0.0
C144 C 0.57509 0.45977 0.06664 0.0
C145 C 0.50986 0.43932 0.02474 0.0
C146 C 0.44404 0.72576 0.27393 0.0
C147 C 0.42514 0.79401 0.24103 0.0
C148 C 0.49655 0.7714 0.31669 0.0
C149 C 0.53294 0.88702 0.32761 0.0
H150 H 0.4069 0.6334 0.26874 0.0
H151 H 0.49832 0.71301 0.34268 0.0
S152 S 0.54268 0.11145 0.24732 0.0
N153 N 0.47498 0.98963 0.21776 0.0
N154 N 0.57574 0.07617 0.29789 0.0
C155 C 0.53243 0.96046 0.29221 0.0
C156 C 0.47865 0.91385 0.24871 0.0
C157 C 0.71684 0.3296 0.71682 0.0
C158 C 0.63813 0.24701 0.74805 0.0
C159 C 0.73878 0.29512 0.67432 0.0
C160 C 0.68257 0.17728 0.66246 0.0
H161 H 0.74997 0.42118 0.72259 0.0
H162 H 0.789 0.36113 0.6489 0.0
S163 S 0.49679 0.92823 0.73859 0.0
N164 N 0.5237 0.04382 0.76871 0.0
N165 N 0.56768 0.97801 0.68968 0.0
C166 C 0.61845 0.09421 0.69656 0.0
C167 C 0.59527 0.12942 0.73933 0.0
loop_
_geom_bond_atom_site_label_1
_geom_bond_atom_site_label_2
_geom_bond_distance
_geom_bond_site_symmetry_2
_ccdc_geom_bond_type
O0 Zn1 1.953 . S
O0 C16 1.225 . S
Zn1 O0 1.953 . S
Zn1 O2 1.949 . S
Zn1 O8 1.919 . S
Zn1 O13 1.924 . S
O2 Zn1 1.949 . S
O2 Zn3 1.923 1_455 S
O2 Zn4 1.950 1_455 S
O2 Zn5 1.945 . S
Zn3 O2 1.923 1_655 S
Zn3 O6 1.933 . S
Zn3 O9 1.941 1_655 S
Zn3 O10 1.965 . S
Zn4 O2 1.950 1_655 S
Zn4 O11 1.938 . S
Zn4 O12 1.906 . S
Zn4 O22 1.953 . S
Zn5 O2 1.945 . S
Zn5 O7 1.932 . S
Zn5 O14 1.977 1_455 S
Zn5 O15 1.910 . S
O6 Zn3 1.933 . S
O6 C17 1.226 1_655 S
O7 Zn5 1.932 . S
O7 C17 1.307 . S
O8 Zn1 1.919 . S
O8 C19 1.253 . S
O9 Zn3 1.941 1_455 S
O9 C19 1.283 . S
O10 Zn3 1.965 . S
O10 C18 1.303 . S
O11 Zn4 1.938 . S
O11 C18 1.247 . S
O12 Zn4 1.906 . S
O12 C20 1.304 . S
O13 Zn1 1.924 . S
O13 C21 1.311 . S
O14 Zn5 1.977 1_655 S
O14 C20 1.272 . S
O15 Zn5 1.910 . S
O15 C21 1.231 . S
C16 O0 1.225 . S
C16 O22 1.298 1_455 S
C17 O6 1.226 1_455 S
C17 O7 1.307 . S
C18 O10 1.303 . S
C18 O11 1.247 . S
C19 O8 1.253 . S
C19 O9 1.283 . S
C20 O12 1.304 . S
C20 O14 1.272 . S
C21 O13 1.311 . S
C21 O15 1.231 . S
O22 Zn4 1.953 . S
O22 C16 1.298 1_655 S
O23 Zn24 1.953 . S
O23 C39 1.227 . S
Zn24 O23 1.953 . S
Zn24 O25 1.949 1_565 S
Zn24 O31 1.919 . S
Zn24 O36 1.924 . S
O25 Zn24 1.949 1_545 S
O25 Zn26 1.923 . S
O25 Zn27 1.950 . S
O25 Zn28 1.945 1_545 S
Zn26 O25 1.923 . S
Zn26 O29 1.933 . S
Zn26 O32 1.941 1_545 S
Zn26 O33 1.965 . S
Zn27 O25 1.950 . S
Zn27 O34 1.938 . S
Zn27 O35 1.906 . S
Zn27 O45 1.953 . S
Zn28 O25 1.945 1_565 S
Zn28 O30 1.932 . S
Zn28 O37 1.977 1_565 S
Zn28 O38 1.910 . S
O29 Zn26 1.933 . S
O29 C40 1.226 . S
O30 Zn28 1.932 . S
O30 C40 1.307 1_565 S
O31 Zn24 1.919 . S
O31 C42 1.253 . S
O32 Zn26 1.941 1_565 S
O32 C42 1.283 . S
O33 Zn26 1.965 . S
O33 C41 1.303 . S
O34 Zn27 1.938 . S
O34 C41 1.247 . S
O35 Zn27 1.906 . S
O35 C43 1.304 . S
O36 Zn24 1.924 . S
O36 C44 1.311 . S
O37 Zn28 1.977 1_545 S
O37 C43 1.272 . S
O38 Zn28 1.910 . S
O38 C44 1.231 . S
C39 O23 1.227 . S
C39 O45 1.295 1_565 S
C40 O29 1.226 . S
C40 O30 1.307 1_545 S
C41 O33 1.303 . S
C41 O34 1.247 . S
C42 O31 1.253 . S
C42 O32 1.283 . S
C43 O35 1.304 . S
C43 O37 1.272 . S
C44 O36 1.311 . S
C44 O38 1.231 . S
O45 Zn27 1.953 . S
O45 C39 1.295 1_545 S
O46 Zn47 1.953 . S
O46 C62 1.225 . S
Zn47 O46 1.953 . S
Zn47 O48 1.949 . S
Zn47 O54 1.919 . S
Zn47 O59 1.924 . S
O48 Zn47 1.949 . S
O48 Zn49 1.923 . S
O48 Zn50 1.950 . S
O48 Zn51 1.945 . S
Zn49 O48 1.923 . S
Zn49 O52 1.933 . S
Zn49 O55 1.941 . S
Zn49 O56 1.965 . S
Zn50 O48 1.950 . S
Zn50 O57 1.938 . S
Zn50 O58 1.906 . S
Zn50 O68 1.953 . S
Zn51 O48 1.945 . S
Zn51 O53 1.932 . S
Zn51 O60 1.977 . S
Zn51 O61 1.910 . S
O52 Zn49 1.933 . S
O52 C63 1.226 . S
O53 Zn51 1.932 . S
O53 C63 1.307 . S
O54 Zn47 1.919 . S
O54 C65 1.253 . S
O55 Zn49 1.941 . S
O55 C65 1.283 . S
O56 Zn49 1.965 . S
O56 C64 1.303 . S
O57 Zn50 1.938 . S
O57 C64 1.247 . S
O58 Zn50 1.906 . S
O58 C66 1.304 . S
O59 Zn47 1.924 . S
O59 C67 1.311 . S
O60 Zn51 1.977 . S
O60 C66 1.272 . S
O61 Zn51 1.910 . S
O61 C67 1.231 . S
C62 O46 1.225 . S
C62 O68 1.298 . S
C63 O52 1.226 . S
C63 O53 1.307 . S
C64 O56 1.303 . S
C64 O57 1.247 . S
C65 O54 1.253 . S
C65 O55 1.283 . S
C66 O58 1.304 . S
C66 O60 1.272 . S
C67 O59 1.311 . S
C67 O61 1.231 . S
O68 Zn50 1.953 . S
O68 C62 1.298 . S
C69 C70 1.369 1_545 S
C69 C71 1.419 . S
C69 H73 0.930 . S
C70 C69 1.369 1_565 S
C70 C79 1.429 1_455 S
C71 C69 1.419 . S
C71 C72 1.363 . S
C71 H74 0.929 . S
C72 C71 1.363 . S
C72 C78 1.428 1_455 S
H73 C69 0.930 . S
H74 C71 0.929 . S
S75 N76 1.613 . S
S75 N77 1.610 . S
N76 S75 1.613 . S
N76 C79 1.350 . S
N77 S75 1.610 . S
N77 C78 1.351 1_565 S
C78 C72 1.428 1_655 S
C78 N77 1.351 1_545 S
C78 C79 1.434 1_545 S
C79 C70 1.429 1_655 S
C79 N76 1.350 . S
C79 C78 1.434 1_565 S
C80 C81 1.369 . S
C80 C82 1.419 1_455 S
C80 H84 0.930 . S
C81 C80 1.369 . S
C81 C90 1.429 1_565 S
C82 C80 1.419 1_655 S
C82 C83 1.363 1_565 S
C82 H85 0.929 . S
C83 C82 1.363 1_545 S
C83 C89 1.428 . S
H84 C80 0.930 . S
H85 C82 0.929 . S
S86 N87 1.613 . S
S86 N88 1.610 1_455 S
N87 S86 1.613 . S
N87 C90 1.350 . S
N88 S86 1.610 1_655 S
N88 C89 1.351 . S
C89 C83 1.428 . S
C89 N88 1.351 . S
C89 C90 1.434 1_655 S
C90 C81 1.429 1_545 S
C90 N87 1.350 . S
C90 C89 1.434 1_455 S
C91 C92 1.369 . S
C91 C93 1.419 1_665 S
C91 H95 0.930 . S
C92 C91 1.369 . S
C92 C101 1.429 . S
C93 C91 1.419 1_445 S
C93 C94 1.363 . S
C93 H96 0.929 . S
C94 C93 1.363 . S
C94 C100 1.428 . S
H95 C91 0.930 . S
H96 C93 0.929 . S
S97 N98 1.613 . S
S97 N99 1.620 . S
N98 S97 1.613 . S
N98 C101 1.350 1_455 S
N99 S97 1.620 . S
N99 C100 1.345 1_565 S
C100 C94 1.428 . S
C100 N99 1.345 1_545 S
C100 C101 1.434 1_445 S
C101 C92 1.429 . S
C101 N98 1.350 1_655 S
C101 C100 1.434 1_665 S
C102 C103 1.369 . S
C102 C104 1.419 1_556 S
C102 H106 0.930 . S
C103 C102 1.369 . S
C103 C112 1.429 . S
C104 C102 1.419 1_554 S
C104 C105 1.363 . S
C104 H107 0.929 . S
C105 C104 1.363 . S
C105 C111 1.428 . S
H106 C102 0.930 . S
H107 C104 0.929 . S
S108 N109 1.613 1_554 S
S108 N110 1.610 . S
N109 S108 1.613 1_556 S
N109 C112 1.350 . S
N110 S108 1.610 . S
N110 C111 1.351 . S
C111 C105 1.428 . S
C111 N110 1.351 . S
C111 C112 1.434 1_554 S
C112 C103 1.429 . S
C112 N109 1.350 . S
C112 C111 1.434 1_556 S
C113 C114 1.369 . S
C113 C115 1.419 . S
C113 H117 0.930 . S
C114 C113 1.369 . S
C114 C123 1.429 . S
C115 C113 1.419 . S
C115 C116 1.363 . S
C115 H118 0.929 . S
C116 C115 1.363 . S
C116 C122 1.428 . S
H117 C113 0.930 . S
H118 C115 0.929 . S
S119 N120 1.613 . S
S119 N121 1.610 . S
N120 S119 1.613 . S
N120 C123 1.350 . S
N121 S119 1.610 . S
N121 C122 1.351 . S
C122 C116 1.428 . S
C122 N121 1.351 . S
C122 C123 1.434 . S
C123 C114 1.429 . S
C123 N120 1.350 . S
C123 C122 1.434 . S
C124 C125 1.369 . S
C124 C126 1.419 . S
C124 H128 0.930 . S
C125 C124 1.369 . S
C125 C134 1.429 . S
C126 C124 1.419 . S
C126 C127 1.363 . S
C126 H129 0.929 . S
C127 C126 1.363 . S
C127 C133 1.428 . S
H128 C124 0.930 . S
H129 C126 0.929 . S
S130 N131 1.613 . S
S130 N132 1.610 . S
N131 S130 1.613 . S
N131 C134 1.350 . S
N132 S130 1.610 . S
N132 C133 1.351 . S
C133 C127 1.428 . S
C133 N132 1.351 . S
C133 C134 1.434 . S
C134 C125 1.429 . S
C134 N131 1.350 . S
C134 C133 1.434 . S
C135 C136 1.369 . S
C135 C137 1.419 1_556 S
C135 H139 0.930 . S
C136 C135 1.369 . S
C136 C145 1.429 . S
C137 C135 1.419 1_554 S
C137 C138 1.363 . S
C137 H140 0.929 . S
C138 C137 1.363 . S
C138 C144 1.428 . S
H139 C135 0.930 . S
H140 C137 0.929 . S
S141 N142 1.608 1_554 S
S141 N143 1.615 . S
N142 S141 1.608 1_556 S
N142 C145 1.350 . S
N143 S141 1.615 . S
N143 C144 1.351 . S
C144 C138 1.428 . S
C144 N143 1.351 . S
C144 C145 1.434 1_554 S
C145 C136 1.429 . S
C145 N142 1.350 . S
C145 C144 1.434 1_556 S
C146 C147 1.369 . S
C146 C148 1.419 . S
C146 H150 0.930 . S
C147 C146 1.369 . S
C147 C156 1.429 . S
C148 C146 1.419 . S
C148 C149 1.363 . S
C148 H151 0.929 . S
C149 C148 1.363 . S
C149 C155 1.428 . S
H150 C146 0.930 . S
H151 C148 0.929 . S
S152 N153 1.613 . S
S152 N154 1.610 . S
N153 S152 1.613 . S
N153 C156 1.350 . S
N154 S152 1.610 . S
N154 C155 1.351 . S
C155 C149 1.428 . S
C155 N154 1.351 . S
C155 C156 1.434 . S
C156 C147 1.429 . S
C156 N153 1.350 . S
C156 C155 1.434 . S
C157 C158 1.369 . S
C157 C159 1.419 . S
C157 H161 0.930 . S
C158 C157 1.369 . S
C158 C167 1.429 . S
C159 C157 1.419 . S
C159 C160 1.363 . S
C159 H162 0.929 . S
C160 C159 1.363 . S
C160 C166 1.428 . S
H161 C157 0.930 . S
H162 C159 0.929 . S
S163 N164 1.613 . S
S163 N165 1.610 . S
N164 S163 1.613 . S
N164 C167 1.350 . S
N165 S163 1.610 . S
N165 C166 1.351 . S
C166 C160 1.428 . S
C166 N165 1.351 . S
C166 C167 1.434 . S
C167 C158 1.429 . S
C167 N164 1.350 . S
C167 C166 1.434 . S
C70 C16 1.761 . S
C72 C17 1.759 . S
C81 C40 1.759 1_565 S
C83 C39 1.762 1_545 S
C92 C62 1.760 . S
C94 C63 1.760 . S
C103 C66 1.056 . S
C105 C19 1.063 . S
C114 C41 1.142 . S
C116 C20 1.075 . S
C125 C64 1.131 . S
C127 C44 1.111 . S
C136 C67 1.108 . S
C138 C18 1.120 . S
C147 C21 1.079 . S
C149 C42 1.047 . S
C158 C65 1.063 . S
C160 C43 1.045 . S
