# Generated by pormake.
# Topology cds, (4)-cn, num edge types: 1
# Building blocks:
#     Node 0, Type 0, BuildingBlock: NAWXER_clean_sbu_0, # of connection points: 4
#     Node 1, Type 0, BuildingBlock: NAWXER_clean_sbu_0, # of connection points: 4
#     Edge 2, Type (0, 0), BuildingBlock: EZIPEK_clean_linker_0, # of connection points: 2
#     Edge 3, Type (0, 0), BuildingBlock: EZIPEK_clean_linker_0, # of connection points: 2
#     Edge 4, Type (0, 0), BuildingBlock: EZIPEK_clean_linker_0, # of connection points: 2
#     Edge 5, Type (0, 0), BuildingBlock: EZIPEK_clean_linker_0, # of connection points: 2
# Relax obj value: 0.000
# Max RMSD: 0.000
# Mean RMSD: 0.000
data_MOF--net-cds--node1-NAWXER_clean_sbu_0--edge1-EZIPEK_clean_linker_0
_symmetry_space_group_name_H-M    P1
_symmetry_Int_Tables_number       1
_symmetry_cell_setting            triclinic
loop_
_symmetry_equiv_pos_as_xyz
'x, y, z'
_cell_length_a     10.658588
_cell_length_b     10.658093
_cell_length_c     21.21813
_cell_angle_alpha  97.171349
_cell_angle_beta   97.189775
_cell_angle_gamma 89.203876
loop_
_atom_site_label
_atom_site_type_symbol
_atom_site_fract_x
_atom_site_fract_y
_atom_site_fract_z
_atom_type_partial_charge
C0 C 0.30912 0.18461 0.04172 0.0
C1 C 0.84954 0.17252 0.0355 0.0
O2 O 0.26307 0.07259 0.0285 0.0
Zn3 Zn 0.08198 0.98197 0.01779 0.0
O4 O 0.23645 0.27863 0.05188 0.0
Zn5 Zn 0.08021 0.18227 0.03798 0.0
O6 O 0.09562 0.0799 0.12015 0.0
O7 O 0.10343 0.87574 0.08553 0.0
O8 O 0.92009 0.26967 0.04211 0.0
O9 O 0.89869 0.06217 0.02754 0.0
O10 O 0.06357 0.90428 0.92963 0.0
O11 O 0.07032 0.11234 0.9381 0.0
C12 C 0.10337 0.96438 0.13157 0.0
C13 C 0.06266 1.00495 0.90316 0.0
C14 C 0.86056 0.1837 0.49315 0.0
C15 C 0.84851 0.72411 0.48691 0.0
O16 O 0.97092 0.13458 0.50118 0.0
Zn17 Zn 0.05113 0.95128 0.51095 0.0
O18 O 0.76342 0.11312 0.48649 0.0
Zn19 Zn 0.85084 0.95302 0.49066 0.0
O20 O 0.92067 0.96281 0.59058 0.0
O21 O 0.12873 0.96961 0.59913 0.0
O22 O 0.75449 0.79679 0.47671 0.0
O23 O 0.96052 0.77017 0.50019 0.0
O24 O 0.15746 0.92992 0.44327 0.0
O25 O 0.95331 0.93767 0.40856 0.0
C26 C 0.02802 0.97047 0.62555 0.0
C27 C 0.06886 0.92997 0.39719 0.0
C28 C 0.02228 0.85369 0.2171 0.0
C29 C 0.11016 0.93714 0.19882 0.0
C30 C 0.1795 1.01116 0.31168 0.0
C31 C 0.09616 0.92318 0.32996 0.0
N32 N 0.96842 0.73504 0.30014 0.0
N33 N 0.29811 0.06517 0.22867 0.0
C34 C 0.02744 0.83592 0.28259 0.0
C35 C 0.1973 1.00601 0.2462 0.0
N36 N 0.92844 0.7978 0.17318 0.0
N37 N 0.23527 0.10507 0.35559 0.0
H38 H 0.31624 0.0596 0.18119 0.0
H39 H 0.37072 0.10743 0.26162 0.0
H40 H 0.22173 0.1164 0.40373 0.0
H41 H 0.28557 0.1793 0.34295 0.0
H42 H 0.85427 0.74741 0.18583 0.0
H43 H 0.91706 0.81133 0.12504 0.0
H44 H 0.92629 0.66236 0.26719 0.0
H45 H 0.97398 0.71694 0.34763 0.0
C46 C 0.96352 0.07241 0.79804 0.0
C47 C 0.0547 0.999 0.83221 0.0
C48 C 0.1155 0.89626 0.73037 0.0
C49 C 0.03392 0.9783 0.6965 0.0
N50 N 0.89076 0.15689 0.69954 0.0
N51 N 0.23905 0.86479 0.83074 0.0
C52 C 0.96047 0.06941 0.73067 0.0
C53 C 0.13673 0.91744 0.79833 0.0
N54 N 0.87603 0.14205 0.82917 0.0
N55 N 0.16814 0.79396 0.69796 0.0
H56 H 0.26198 0.88259 0.88027 0.0
H57 H 0.30894 0.81515 0.80786 0.0
H58 H 0.1503 0.77106 0.64843 0.0
H59 H 0.21781 0.72406 0.72084 0.0
H60 H 0.79581 0.18061 0.80557 0.0
H61 H 0.87764 0.15506 0.87856 0.0
H62 H 0.85217 0.23707 0.72314 0.0
H63 H 0.87769 0.1553 0.65015 0.0
C64 C 0.66177 0.24665 0.09203 0.0
C65 C 0.71056 0.18512 0.03665 0.0
C66 C 0.49471 0.15584 0.98161 0.0
C67 C 0.44591 0.20177 0.03909 0.0
N68 N 0.48067 0.28108 0.15125 0.0
N69 N 0.66993 0.05929 0.93264 0.0
C70 C 0.52864 0.2463 0.09482 0.0
C71 C 0.62616 0.13342 0.98257 0.0
N72 N 0.74245 0.30226 0.14268 0.0
N73 N 0.41519 0.13648 0.92545 0.0
H74 H 0.76479 0.03843 0.93033 0.0
H75 H 0.61063 1.00785 0.89598 0.0
H76 H 0.31853 0.15549 0.92268 0.0
H77 H 0.44674 0.11527 0.88081 0.0
H78 H 0.71246 0.36167 0.18067 0.0
H79 H 0.84049 0.29427 0.14564 0.0
H80 H 0.53628 0.29937 0.19534 0.0
H81 H 0.38398 0.28373 0.15483 0.0
C82 C 0.87706 0.5385 0.54705 0.0
C83 C 0.83132 0.58732 0.48953 0.0
C84 C 0.78661 0.37148 0.43656 0.0
C85 C 0.84795 0.32267 0.49199 0.0
N86 N 0.9734 0.36324 0.59611 0.0
N87 N 0.75237 0.55262 0.37732 0.0
C88 C 0.89945 0.40705 0.54612 0.0
C89 C 0.78697 0.50461 0.43377 0.0
N90 N 0.89624 0.618 0.60321 0.0
N91 N 0.73117 0.29081 0.38586 0.0
H92 H 0.74973 0.64932 0.37375 0.0
H93 H 0.73422 0.49703 0.33322 0.0
H94 H 0.73915 0.19277 0.38293 0.0
H95 H 0.67192 0.32081 0.34781 0.0
H96 H 0.91728 0.58642 0.64786 0.0
H97 H 0.87727 0.71467 0.60595 0.0
H98 H 0.02473 0.42254 0.63283 0.0
H99 H 0.99425 0.26838 0.59844 0.0
loop_
_geom_bond_atom_site_label_1
_geom_bond_atom_site_label_2
_geom_bond_distance
_geom_bond_site_symmetry_2
_ccdc_geom_bond_type
C0 O2 1.249 1_554 S
C0 O4 1.256 1_565 S
C1 O8 1.251 1_556 S
C1 O9 1.254 1_545 S
O2 C0 1.249 1_556 S
O2 Zn3 2.029 1_455 S
Zn3 O2 2.029 1_655 S
Zn3 O7 2.035 1_656 S
Zn3 O9 2.034 . S
Zn3 O10 2.028 . S
O4 C0 1.256 1_545 S
O4 Zn5 2.036 . S
Zn5 O4 2.036 . S
Zn5 O6 2.028 . S
Zn5 O8 2.027 1_455 S
Zn5 O11 2.035 1_454 S
O6 Zn5 2.028 . S
O6 C12 1.251 . S
O7 Zn3 2.035 1_454 S
O7 C12 1.254 1_565 S
O8 C1 1.251 1_554 S
O8 Zn5 2.027 1_655 S
O9 C1 1.254 1_565 S
O9 Zn3 2.034 . S
O10 Zn3 2.028 . S
O10 C13 1.249 . S
O11 Zn5 2.035 1_656 S
O11 C13 1.256 1_545 S
C12 O6 1.251 . S
C12 O7 1.254 1_545 S
C13 O10 1.249 . S
C13 O11 1.256 1_565 S
C14 O16 1.251 . S
C14 O18 1.254 1_455 S
C15 O22 1.249 . S
C15 O23 1.256 1_655 S
O16 C14 1.251 . S
O16 Zn17 2.028 . S
Zn17 O16 2.028 . S
Zn17 O21 2.035 . S
Zn17 O23 2.035 1_545 S
Zn17 O24 2.028 1_545 S
O18 C14 1.254 1_655 S
O18 Zn19 2.035 1_545 S
Zn19 O18 2.035 1_565 S
Zn19 O20 2.028 1_565 S
Zn19 O22 2.028 . S
Zn19 O25 2.035 . S
O20 Zn19 2.028 1_545 S
O20 C26 1.249 . S
O21 Zn17 2.035 . S
O21 C26 1.256 1_455 S
O22 C15 1.249 . S
O22 Zn19 2.028 . S
O23 C15 1.256 1_455 S
O23 Zn17 2.035 1_565 S
O24 Zn17 2.028 1_565 S
O24 C27 1.251 . S
O25 Zn19 2.035 . S
O25 C27 1.254 1_655 S
C26 O20 1.249 . S
C26 O21 1.256 1_655 S
C27 O24 1.251 . S
C27 O25 1.254 1_455 S
C28 C29 1.363 1_665 S
C28 C34 1.379 . S
C28 N36 1.356 . S
C29 C28 1.363 1_445 S
C29 C35 1.363 . S
C30 C31 1.363 . S
C30 C35 1.379 . S
C30 N37 1.356 . S
C31 C30 1.363 . S
C31 C34 1.363 1_445 S
N32 C34 1.356 . S
N32 H44 0.984 . S
N32 H45 0.985 . S
N33 C35 1.356 . S
N33 H38 0.984 . S
N33 H39 0.985 . S
C34 C28 1.379 . S
C34 C31 1.363 1_665 S
C34 N32 1.356 . S
C35 C29 1.363 . S
C35 C30 1.379 . S
C35 N33 1.356 . S
N36 C28 1.356 . S
N36 H42 0.984 . S
N36 H43 0.984 . S
N37 C30 1.356 . S
N37 H40 0.984 . S
N37 H41 0.985 . S
H38 N33 0.984 . S
H39 N33 0.985 . S
H40 N37 0.984 . S
H41 N37 0.985 . S
H42 N36 0.984 . S
H43 N36 0.984 . S
H44 N32 0.984 . S
H45 N32 0.985 . S
C46 C47 1.363 1_655 S
C46 C52 1.379 . S
C46 N54 1.356 . S
C47 C46 1.363 1_455 S
C47 C53 1.363 1_545 S
C48 C49 1.363 1_565 S
C48 C53 1.379 . S
C48 N55 1.356 . S
C49 C48 1.363 1_545 S
C49 C52 1.363 1_455 S
N50 C52 1.356 . S
N50 H62 0.984 . S
N50 H63 0.985 . S
N51 C53 1.356 . S
N51 H56 0.984 . S
N51 H57 0.985 . S
C52 C46 1.379 . S
C52 C49 1.363 1_655 S
C52 N50 1.356 . S
C53 C47 1.363 1_565 S
C53 C48 1.379 . S
C53 N51 1.356 . S
N54 C46 1.356 . S
N54 H60 0.984 . S
N54 H61 0.984 . S
N55 C48 1.356 . S
N55 H58 0.984 . S
N55 H59 0.985 . S
H56 N51 0.984 . S
H57 N51 0.985 . S
H58 N55 0.984 . S
H59 N55 0.985 . S
H60 N54 0.984 . S
H61 N54 0.984 . S
H62 N50 0.984 . S
H63 N50 0.985 . S
C64 C65 1.363 . S
C64 C70 1.379 . S
C64 N72 1.356 . S
C65 C64 1.363 . S
C65 C71 1.363 1_544 S
C66 C67 1.363 1_566 S
C66 C71 1.379 . S
C66 N73 1.356 . S
C67 C66 1.363 1_544 S
C67 C70 1.363 . S
N68 C70 1.356 . S
N68 H80 0.984 . S
N68 H81 0.985 . S
N69 C71 1.356 . S
N69 H74 0.984 . S
N69 H75 0.985 . S
C70 C64 1.379 . S
C70 C67 1.363 . S
C70 N68 1.356 . S
C71 C65 1.363 1_566 S
C71 C66 1.379 . S
C71 N69 1.356 . S
N72 C64 1.356 . S
N72 H78 0.984 . S
N72 H79 0.984 . S
N73 C66 1.356 . S
N73 H76 0.984 . S
N73 H77 0.985 . S
H74 N69 0.984 . S
H75 N69 0.985 . S
H76 N73 0.984 . S
H77 N73 0.985 . S
H78 N72 0.984 . S
H79 N72 0.984 . S
H80 N68 0.984 . S
H81 N68 0.985 . S
C82 C83 1.363 . S
C82 C88 1.379 . S
C82 N90 1.356 . S
C83 C82 1.363 . S
C83 C89 1.363 1_455 S
C84 C85 1.363 1_655 S
C84 C89 1.379 . S
C84 N91 1.356 . S
C85 C84 1.363 1_455 S
C85 C88 1.363 . S
N86 C88 1.356 . S
N86 H98 0.984 . S
N86 H99 0.985 . S
N87 C89 1.356 . S
N87 H92 0.984 . S
N87 H93 0.985 . S
C88 C82 1.379 . S
C88 C85 1.363 . S
C88 N86 1.356 . S
C89 C83 1.363 1_655 S
C89 C84 1.379 . S
C89 N87 1.356 . S
N90 C82 1.356 . S
N90 H96 0.984 . S
N90 H97 0.984 . S
N91 C84 1.356 . S
N91 H94 0.984 . S
N91 H95 0.985 . S
H92 N87 0.984 . S
H93 N87 0.985 . S
H94 N91 0.984 . S
H95 N91 0.985 . S
H96 N90 0.984 . S
H97 N90 0.984 . S
H98 N86 0.984 . S
H99 N86 0.985 . S
C29 C12 1.498 . S
C31 C27 1.497 1_545 S
C47 C13 1.498 1_445 S
C49 C26 1.501 1_455 S
C65 C1 1.498 1_554 S
C67 C0 1.498 1_545 S
C83 C15 1.498 1_455 S
C85 C14 1.499 . S
