# Generated by pormake.
# Topology umb, (4)-cn, num edge types: 1
# Building blocks:
#     Node 0, Type 0, BuildingBlock: CEKHIL_clean_sbu_0, # of connection points: 4
#     Node 1, Type 0, BuildingBlock: CEKHIL_clean_sbu_0, # of connection points: 4
#     Node 2, Type 0, BuildingBlock: CEKHIL_clean_sbu_0, # of connection points: 4
#     Node 3, Type 0, BuildingBlock: CEKHIL_clean_sbu_0, # of connection points: 4
#     Node 4, Type 0, BuildingBlock: CEKHIL_clean_sbu_0, # of connection points: 4
#     Node 5, Type 0, BuildingBlock: CEKHIL_clean_sbu_0, # of connection points: 4
#     Node 6, Type 0, BuildingBlock: CEKHIL_clean_sbu_0, # of connection points: 4
#     Node 7, Type 0, BuildingBlock: CEKHIL_clean_sbu_0, # of connection points: 4
#     Node 8, Type 0, BuildingBlock: CEKHIL_clean_sbu_0, # of connection points: 4
#     Node 9, Type 0, BuildingBlock: CEKHIL_clean_sbu_0, # of connection points: 4
#     Node 10, Type 0, BuildingBlock: CEKHIL_clean_sbu_0, # of connection points: 4
#     Node 11, Type 0, BuildingBlock: CEKHIL_clean_sbu_0, # of connection points: 4
#     Edge 12, Type (0, 0), None
#     Edge 13, Type (0, 0), None
#     Edge 14, Type (0, 0), None
#     Edge 15, Type (0, 0), None
#     Edge 16, Type (0, 0), None
#     Edge 17, Type (0, 0), None
#     Edge 18, Type (0, 0), None
#     Edge 19, Type (0, 0), None
#     Edge 20, Type (0, 0), None
#     Edge 21, Type (0, 0), None
#     Edge 22, Type (0, 0), None
#     Edge 23, Type (0, 0), None
#     Edge 24, Type (0, 0), None
#     Edge 25, Type (0, 0), None
#     Edge 26, Type (0, 0), None
#     Edge 27, Type (0, 0), None
#     Edge 28, Type (0, 0), None
#     Edge 29, Type (0, 0), None
#     Edge 30, Type (0, 0), None
#     Edge 31, Type (0, 0), None
#     Edge 32, Type (0, 0), None
#     Edge 33, Type (0, 0), None
#     Edge 34, Type (0, 0), None
#     Edge 35, Type (0, 0), None
# Relax obj value: 0.283
# Max RMSD: 0.254
# Mean RMSD: 0.254
data_MOF--net-umb--node1-CEKHIL_clean_sbu_0--edge1-none
_symmetry_space_group_name_H-M    P1
_symmetry_Int_Tables_number       1
_symmetry_cell_setting            triclinic
loop_
_symmetry_equiv_pos_as_xyz
'x, y, z'
_cell_length_a     21.365004
_cell_length_b     21.369823
_cell_length_c     14.699773
_cell_angle_alpha  90.002831
_cell_angle_beta   89.994891
_cell_angle_gamma 120.00427
loop_
_atom_site_label
_atom_site_type_symbol
_atom_site_fract_x
_atom_site_fract_y
_atom_site_fract_z
_atom_type_partial_charge
Co0 Co 0.5267 0.14479 0.31509 0.0
O1 O 0.45119 0.04711 0.29318 0.0
O2 O 0.5679 0.08769 0.27166 0.0
C3 C 0.47495 0.2038 0.24426 0.0
O4 O 0.61546 0.24381 0.33549 0.0
Co5 Co 0.4766 0.2202 0.45239 0.0
O6 O 0.58031 0.29443 0.44516 0.0
C7 C 0.53854 0.13574 0.5254 0.0
C8 C 0.50175 0.03341 0.2718 0.0
C9 C 0.62841 0.29367 0.39473 0.0
O10 O 0.54568 0.12061 0.44284 0.0
O11 O 0.50535 0.16984 0.54555 0.0
O12 O 0.50708 0.17672 0.19766 0.0
O13 O 0.46475 0.18324 0.32891 0.0
Co14 Co 0.37787 0.52879 0.64846 0.0
O15 O 0.40001 0.45327 0.62658 0.0
O16 O 0.47617 0.56994 0.60505 0.0
C17 C 0.26712 0.47706 0.5776 0.0
O18 O 0.36763 0.61755 0.66884 0.0
Co19 Co 0.25233 0.47874 0.78573 0.0
O20 O 0.28184 0.58244 0.7785 0.0
C21 C 0.39874 0.54062 0.85878 0.0
C22 C 0.46428 0.5038 0.60519 0.0
C23 C 0.33072 0.63052 0.72807 0.0
O24 O 0.42101 0.54776 0.77622 0.0
O25 O 0.33144 0.50746 0.87892 0.0
O26 O 0.32634 0.50917 0.53101 0.0
O27 O 0.27746 0.46688 0.66226 0.0
Co28 Co 0.84502 0.37989 0.98176 0.0
O29 O 0.94271 0.40207 0.95986 0.0
O30 O 0.90214 0.47818 0.93835 0.0
C31 C 0.78601 0.26916 0.91089 0.0
O32 O 0.74598 0.36962 1.00216 0.0
Co33 Co 0.76957 0.25438 0.11902 0.0
O34 O 0.69533 0.28385 0.11182 0.0
C35 C 0.85405 0.40076 0.19207 0.0
C36 C 0.95642 0.46632 0.93848 0.0
C37 C 0.69611 0.33271 0.0614 0.0
O38 O 0.8692 0.42304 0.10952 0.0
O39 O 0.81994 0.33348 0.21221 0.0
O40 O 0.8131 0.32837 0.86431 0.0
O41 O 0.80655 0.27951 0.99555 0.0
Co42 Co 0.46109 0.84709 0.31508 0.0
O43 O 0.5366 0.94477 0.29318 0.0
O44 O 0.41988 0.90417 0.27167 0.0
C45 C 0.51283 0.78807 0.24424 0.0
O46 O 0.37233 0.74807 0.33549 0.0
Co47 Co 0.51119 0.77168 0.45236 0.0
O48 O 0.40748 0.69744 0.44515 0.0
C49 C 0.44925 0.85613 0.5254 0.0
C50 C 0.48602 0.95845 0.27183 0.0
C51 C 0.35938 0.69821 0.39472 0.0
O52 O 0.44211 0.87126 0.44285 0.0
O53 O 0.48244 0.82204 0.54554 0.0
O54 O 0.48071 0.81516 0.19764 0.0
O55 O 0.52303 0.80864 0.32888 0.0
Co56 Co 0.60991 0.46308 0.64847 0.0
O57 O 0.58777 0.53859 0.6266 0.0
O58 O 0.5116 0.4219 0.60506 0.0
C59 C 0.72066 0.51481 0.5776 0.0
O60 O 0.62015 0.37432 0.66884 0.0
Co61 Co 0.73544 0.51313 0.78573 0.0
O62 O 0.70594 0.40944 0.7785 0.0
C63 C 0.58903 0.45124 0.85879 0.0
C64 C 0.5235 0.48805 0.60523 0.0
C65 C 0.65707 0.36136 0.72807 0.0
O66 O 0.56675 0.4441 0.77624 0.0
O67 O 0.65632 0.48441 0.87892 0.0
O68 O 0.66144 0.48269 0.53102 0.0
O69 O 0.71032 0.52499 0.66226 0.0
Co70 Co 0.14277 0.61197 0.98177 0.0
O71 O 0.04508 0.58979 0.95989 0.0
O72 O 0.08567 0.51368 0.93836 0.0
C73 C 0.20177 0.72271 0.91092 0.0
O74 O 0.24181 0.62225 1.00216 0.0
Co75 Co 0.21821 0.73748 0.11904 0.0
O76 O 0.29245 0.70802 0.11183 0.0
C77 C 0.13374 0.5911 0.19209 0.0
C78 C 0.03139 0.52555 0.93852 0.0
C79 C 0.29167 0.65916 0.0614 0.0
O80 O 0.11859 0.56882 0.10954 0.0
O81 O 0.16785 0.65838 0.21223 0.0
O82 O 0.17469 0.6635 0.86433 0.0
O83 O 0.18122 0.71235 0.99558 0.0
Co84 Co 0.84501 0.4631 0.47215 0.0
O85 O 0.94269 0.5386 0.49409 0.0
O86 O 0.90213 0.42192 0.51554 0.0
C87 C 0.78596 0.51474 0.54301 0.0
O88 O 0.74599 0.37435 0.4517 0.0
Co89 Co 0.76957 0.51321 0.33492 0.0
O90 O 0.69537 0.4095 0.34202 0.0
C91 C 0.8541 0.45137 0.26183 0.0
C92 C 0.9564 0.48806 0.51544 0.0
C93 C 0.69616 0.36139 0.39239 0.0
O94 O 0.86922 0.44418 0.34437 0.0
O95 O 0.81996 0.48451 0.24171 0.0
O96 O 0.81306 0.48264 0.58962 0.0
O97 O 0.80656 0.52503 0.45837 0.0
Co98 Co 0.37785 0.84707 0.80548 0.0
O99 O 0.40001 0.94473 0.82742 0.0
O100 O 0.47617 0.9042 0.84886 0.0
C101 C 0.26713 0.788 0.87633 0.0
O102 O 0.36761 0.74808 0.78502 0.0
Co103 Co 0.25228 0.77162 0.66824 0.0
O104 O 0.28183 0.69745 0.67534 0.0
C105 C 0.39868 0.85617 0.59516 0.0
C106 C 0.46428 0.95846 0.84877 0.0
C107 C 0.33074 0.69826 0.72571 0.0
O108 O 0.42098 0.87128 0.6777 0.0
O109 O 0.33138 0.82203 0.57504 0.0
O110 O 0.32634 0.81511 0.92295 0.0
O111 O 0.27744 0.8086 0.7917 0.0
Co112 Co 0.52668 0.37987 0.13887 0.0
O113 O 0.45117 0.40206 0.16083 0.0
O114 O 0.56789 0.47817 0.18225 0.0
C115 C 0.47502 0.26916 0.2097 0.0
O116 O 0.61544 0.3696 0.11838 0.0
Co117 Co 0.47653 0.25432 1.00161 0.0
O118 O 0.58025 0.28383 1.00871 0.0
C119 C 0.53841 0.40068 0.92855 0.0
C120 C 0.50174 0.46632 0.18216 0.0
C121 C 0.62837 0.33273 0.05907 0.0
O122 O 0.5456 0.42299 1.01109 0.0
O123 O 0.50524 0.3334 0.90842 0.0
O124 O 0.50712 0.32835 0.25633 0.0
O125 O 0.46472 0.27948 0.12508 0.0
Co126 Co 0.14277 0.52877 0.47216 0.0
O127 O 0.04509 0.45325 0.49409 0.0
O128 O 0.08565 0.56995 0.51555 0.0
C129 C 0.20183 0.47713 0.54301 0.0
O130 O 0.2418 0.61752 0.4517 0.0
Co131 Co 0.21823 0.47866 0.33491 0.0
O132 O 0.29242 0.58238 0.34201 0.0
C133 C 0.13369 0.54049 0.26184 0.0
C134 C 0.03138 0.50381 0.51542 0.0
C135 C 0.29162 0.63048 0.39239 0.0
O136 O 0.11857 0.54768 0.34439 0.0
O137 O 0.16784 0.50736 0.24171 0.0
O138 O 0.17472 0.50922 0.58963 0.0
O139 O 0.18123 0.46684 0.45837 0.0
Co140 Co 0.60993 0.1448 0.80547 0.0
O141 O 0.58778 0.04714 0.8274 0.0
O142 O 0.51161 0.08768 0.84887 0.0
C143 C 0.72065 0.20387 0.87631 0.0
O144 O 0.62018 0.2438 0.78502 0.0
Co145 Co 0.7355 0.22025 0.66821 0.0
O146 O 0.70595 0.29442 0.67532 0.0
C147 C 0.58911 0.1357 0.59515 0.0
C148 C 0.5235 0.03343 0.84874 0.0
C149 C 0.65704 0.29361 0.72571 0.0
O150 O 0.5668 0.1206 0.6777 0.0
O151 O 0.65641 0.16985 0.57502 0.0
O152 O 0.66144 0.17676 0.92293 0.0
O153 O 0.71034 0.18327 0.79168 0.0
Co154 Co 0.4611 0.612 0.13885 0.0
O155 O 0.5366 0.58981 0.1608 0.0
O156 O 0.41987 0.51369 0.18224 0.0
C157 C 0.51276 0.72271 0.20967 0.0
O158 O 0.37234 0.62227 0.11838 0.0
Co159 Co 0.51126 0.73755 1.00159 0.0
O160 O 0.40753 0.70803 1.0087 0.0
C161 C 0.44936 0.59118 0.92853 0.0
C162 C 0.48601 0.52555 0.18212 0.0
C163 C 0.35941 0.65914 0.05907 0.0
O164 O 0.44217 0.56887 1.01107 0.0
O165 O 0.48253 0.65846 0.9084 0.0
O166 O 0.48066 0.66352 0.2563 0.0
O167 O 0.52306 0.71239 0.12505 0.0
loop_
_geom_bond_atom_site_label_1
_geom_bond_atom_site_label_2
_geom_bond_distance
_geom_bond_site_symmetry_2
_ccdc_geom_bond_type
Co0 O1 2.216 . S
Co0 O2 2.091 . S
Co0 O4 2.004 . S
Co0 O10 2.021 . S
Co0 O12 2.137 . S
Co0 O13 2.244 . S
O1 Co0 2.216 . S
O1 C8 1.247 . S
O2 Co0 2.091 . S
O2 C8 1.261 . S
C3 O12 1.247 . S
C3 O13 1.272 . S
O4 Co0 2.004 . S
O4 C9 1.259 . S
Co5 O6 2.061 . S
Co5 O11 2.052 . S
Co5 O13 2.135 . S
O6 Co5 2.061 . S
O6 C9 1.235 . S
C7 O10 1.238 . S
C7 O11 1.241 . S
C8 O1 1.247 . S
C8 O2 1.261 . S
C9 O4 1.259 . S
C9 O6 1.235 . S
O10 Co0 2.021 . S
O10 C7 1.238 . S
O11 Co5 2.052 . S
O11 C7 1.241 . S
O12 Co0 2.137 . S
O12 C3 1.247 . S
O13 Co0 2.244 . S
O13 C3 1.272 . S
O13 Co5 2.135 . S
Co14 O15 2.216 . S
Co14 O16 2.091 . S
Co14 O18 2.004 . S
Co14 O24 2.021 . S
Co14 O26 2.137 . S
Co14 O27 2.244 . S
O15 Co14 2.216 . S
O15 C22 1.247 . S
O16 Co14 2.091 . S
O16 C22 1.261 . S
C17 O26 1.247 . S
C17 O27 1.272 . S
O18 Co14 2.004 . S
O18 C23 1.259 . S
Co19 O20 2.061 . S
Co19 O25 2.052 . S
Co19 O27 2.135 . S
O20 Co19 2.061 . S
O20 C23 1.235 . S
C21 O24 1.238 . S
C21 O25 1.241 . S
C22 O15 1.247 . S
C22 O16 1.261 . S
C23 O18 1.259 . S
C23 O20 1.235 . S
O24 Co14 2.021 . S
O24 C21 1.238 . S
O25 Co19 2.052 . S
O25 C21 1.241 . S
O26 Co14 2.137 . S
O26 C17 1.247 . S
O27 Co14 2.244 . S
O27 C17 1.272 . S
O27 Co19 2.135 . S
Co28 O29 2.216 . S
Co28 O30 2.091 . S
Co28 O32 2.004 . S
Co28 O38 2.021 1_556 S
Co28 O40 2.137 . S
Co28 O41 2.244 . S
O29 Co28 2.216 . S
O29 C36 1.247 . S
O30 Co28 2.091 . S
O30 C36 1.261 . S
C31 O40 1.247 . S
C31 O41 1.272 . S
O32 Co28 2.004 . S
O32 C37 1.259 . S
Co33 O34 2.061 . S
Co33 O39 2.052 . S
Co33 O41 2.135 1_554 S
O34 Co33 2.061 . S
O34 C37 1.235 1_554 S
C35 O38 1.238 . S
C35 O39 1.241 . S
C36 O29 1.247 . S
C36 O30 1.261 . S
C37 O32 1.259 . S
C37 O34 1.235 1_556 S
O38 Co28 2.021 1_554 S
O38 C35 1.238 . S
O39 Co33 2.052 . S
O39 C35 1.241 . S
O40 Co28 2.137 . S
O40 C31 1.247 . S
O41 Co28 2.244 . S
O41 C31 1.272 . S
O41 Co33 2.135 1_556 S
Co42 O43 2.216 . S
Co42 O44 2.091 . S
Co42 O46 2.004 . S
Co42 O52 2.021 . S
Co42 O54 2.137 . S
Co42 O55 2.244 . S
O43 Co42 2.216 . S
O43 C50 1.247 . S
O44 Co42 2.091 . S
O44 C50 1.261 . S
C45 O54 1.247 . S
C45 O55 1.272 . S
O46 Co42 2.004 . S
O46 C51 1.259 . S
Co47 O48 2.061 . S
Co47 O53 2.052 . S
Co47 O55 2.135 . S
O48 Co47 2.061 . S
O48 C51 1.235 . S
C49 O52 1.238 . S
C49 O53 1.241 . S
C50 O43 1.247 . S
C50 O44 1.261 . S
C51 O46 1.259 . S
C51 O48 1.235 . S
O52 Co42 2.021 . S
O52 C49 1.238 . S
O53 Co47 2.052 . S
O53 C49 1.241 . S
O54 Co42 2.137 . S
O54 C45 1.247 . S
O55 Co42 2.244 . S
O55 C45 1.272 . S
O55 Co47 2.135 . S
Co56 O57 2.216 . S
Co56 O58 2.091 . S
Co56 O60 2.004 . S
Co56 O66 2.021 . S
Co56 O68 2.137 . S
Co56 O69 2.244 . S
O57 Co56 2.216 . S
O57 C64 1.247 . S
O58 Co56 2.091 . S
O58 C64 1.261 . S
C59 O68 1.247 . S
C59 O69 1.272 . S
O60 Co56 2.004 . S
O60 C65 1.259 . S
Co61 O62 2.061 . S
Co61 O67 2.052 . S
Co61 O69 2.135 . S
O62 Co61 2.061 . S
O62 C65 1.235 . S
C63 O66 1.238 . S
C63 O67 1.241 . S
C64 O57 1.247 . S
C64 O58 1.261 . S
C65 O60 1.259 . S
C65 O62 1.235 . S
O66 Co56 2.021 . S
O66 C63 1.238 . S
O67 Co61 2.052 . S
O67 C63 1.241 . S
O68 Co56 2.137 . S
O68 C59 1.247 . S
O69 Co56 2.244 . S
O69 C59 1.272 . S
O69 Co61 2.135 . S
Co70 O71 2.216 . S
Co70 O72 2.091 . S
Co70 O74 2.004 . S
Co70 O80 2.021 1_556 S
Co70 O82 2.137 . S
Co70 O83 2.244 . S
O71 Co70 2.216 . S
O71 C78 1.247 . S
O72 Co70 2.091 . S
O72 C78 1.261 . S
C73 O82 1.247 . S
C73 O83 1.272 . S
O74 Co70 2.004 . S
O74 C79 1.259 . S
Co75 O76 2.061 . S
Co75 O81 2.052 . S
Co75 O83 2.135 1_554 S
O76 Co75 2.061 . S
O76 C79 1.235 1_554 S
C77 O80 1.238 . S
C77 O81 1.241 . S
C78 O71 1.247 . S
C78 O72 1.261 . S
C79 O74 1.259 . S
C79 O76 1.235 1_556 S
O80 Co70 2.021 1_554 S
O80 C77 1.238 . S
O81 Co75 2.052 . S
O81 C77 1.241 . S
O82 Co70 2.137 . S
O82 C73 1.247 . S
O83 Co70 2.244 . S
O83 C73 1.272 . S
O83 Co75 2.135 1_556 S
Co84 O85 2.216 . S
Co84 O86 2.091 . S
Co84 O88 2.004 . S
Co84 O94 2.021 . S
Co84 O96 2.137 . S
Co84 O97 2.244 . S
O85 Co84 2.216 . S
O85 C92 1.247 . S
O86 Co84 2.091 . S
O86 C92 1.261 . S
C87 O96 1.247 . S
C87 O97 1.272 . S
O88 Co84 2.004 . S
O88 C93 1.259 . S
Co89 O90 2.061 . S
Co89 O95 2.052 . S
Co89 O97 2.135 . S
O90 Co89 2.061 . S
O90 C93 1.235 . S
C91 O94 1.238 . S
C91 O95 1.241 . S
C92 O85 1.247 . S
C92 O86 1.261 . S
C93 O88 1.259 . S
C93 O90 1.235 . S
O94 Co84 2.021 . S
O94 C91 1.238 . S
O95 Co89 2.052 . S
O95 C91 1.241 . S
O96 Co84 2.137 . S
O96 C87 1.247 . S
O97 Co84 2.244 . S
O97 C87 1.272 . S
O97 Co89 2.135 . S
Co98 O99 2.216 . S
Co98 O100 2.091 . S
Co98 O102 2.004 . S
Co98 O108 2.021 . S
Co98 O110 2.137 . S
Co98 O111 2.244 . S
O99 Co98 2.216 . S
O99 C106 1.247 . S
O100 Co98 2.091 . S
O100 C106 1.261 . S
C101 O110 1.247 . S
C101 O111 1.272 . S
O102 Co98 2.004 . S
O102 C107 1.259 . S
Co103 O104 2.061 . S
Co103 O109 2.052 . S
Co103 O111 2.135 . S
O104 Co103 2.061 . S
O104 C107 1.235 . S
C105 O108 1.238 . S
C105 O109 1.241 . S
C106 O99 1.247 . S
C106 O100 1.261 . S
C107 O102 1.259 . S
C107 O104 1.235 . S
O108 Co98 2.021 . S
O108 C105 1.238 . S
O109 Co103 2.052 . S
O109 C105 1.241 . S
O110 Co98 2.137 . S
O110 C101 1.247 . S
O111 Co98 2.244 . S
O111 C101 1.272 . S
O111 Co103 2.135 . S
Co112 O113 2.216 . S
Co112 O114 2.091 . S
Co112 O116 2.004 . S
Co112 O122 2.021 1_554 S
Co112 O124 2.137 . S
Co112 O125 2.244 . S
O113 Co112 2.216 . S
O113 C120 1.247 . S
O114 Co112 2.091 . S
O114 C120 1.261 . S
C115 O124 1.247 . S
C115 O125 1.272 . S
O116 Co112 2.004 . S
O116 C121 1.259 . S
Co117 O118 2.061 . S
Co117 O123 2.052 . S
Co117 O125 2.135 1_556 S
O118 Co117 2.061 . S
O118 C121 1.235 1_556 S
C119 O122 1.238 . S
C119 O123 1.241 . S
C120 O113 1.247 . S
C120 O114 1.261 . S
C121 O116 1.259 . S
C121 O118 1.235 1_554 S
O122 Co112 2.021 1_556 S
O122 C119 1.238 . S
O123 Co117 2.052 . S
O123 C119 1.241 . S
O124 Co112 2.137 . S
O124 C115 1.247 . S
O125 Co112 2.244 . S
O125 C115 1.272 . S
O125 Co117 2.135 1_554 S
Co126 O127 2.216 . S
Co126 O128 2.091 . S
Co126 O130 2.004 . S
Co126 O136 2.021 . S
Co126 O138 2.137 . S
Co126 O139 2.244 . S
O127 Co126 2.216 . S
O127 C134 1.247 . S
O128 Co126 2.091 . S
O128 C134 1.261 . S
C129 O138 1.247 . S
C129 O139 1.272 . S
O130 Co126 2.004 . S
O130 C135 1.259 . S
Co131 O132 2.061 . S
Co131 O137 2.052 . S
Co131 O139 2.135 . S
O132 Co131 2.061 . S
O132 C135 1.235 . S
C133 O136 1.238 . S
C133 O137 1.241 . S
C134 O127 1.247 . S
C134 O128 1.261 . S
C135 O130 1.259 . S
C135 O132 1.235 . S
O136 Co126 2.021 . S
O136 C133 1.238 . S
O137 Co131 2.052 . S
O137 C133 1.241 . S
O138 Co126 2.137 . S
O138 C129 1.247 . S
O139 Co126 2.244 . S
O139 C129 1.272 . S
O139 Co131 2.135 . S
Co140 O141 2.216 . S
Co140 O142 2.091 . S
Co140 O144 2.004 . S
Co140 O150 2.021 . S
Co140 O152 2.137 . S
Co140 O153 2.244 . S
O141 Co140 2.216 . S
O141 C148 1.247 . S
O142 Co140 2.091 . S
O142 C148 1.261 . S
C143 O152 1.247 . S
C143 O153 1.272 . S
O144 Co140 2.004 . S
O144 C149 1.259 . S
Co145 O146 2.061 . S
Co145 O151 2.052 . S
Co145 O153 2.135 . S
O146 Co145 2.061 . S
O146 C149 1.235 . S
C147 O150 1.238 . S
C147 O151 1.241 . S
C148 O141 1.247 . S
C148 O142 1.261 . S
C149 O144 1.259 . S
C149 O146 1.235 . S
O150 Co140 2.021 . S
O150 C147 1.238 . S
O151 Co145 2.052 . S
O151 C147 1.241 . S
O152 Co140 2.137 . S
O152 C143 1.247 . S
O153 Co140 2.244 . S
O153 C143 1.272 . S
O153 Co145 2.135 . S
Co154 O155 2.216 . S
Co154 O156 2.091 . S
Co154 O158 2.004 . S
Co154 O164 2.021 1_554 S
Co154 O166 2.137 . S
Co154 O167 2.244 . S
O155 Co154 2.216 . S
O155 C162 1.247 . S
O156 Co154 2.091 . S
O156 C162 1.261 . S
C157 O166 1.247 . S
C157 O167 1.272 . S
O158 Co154 2.004 . S
O158 C163 1.259 . S
Co159 O160 2.061 . S
Co159 O165 2.052 . S
Co159 O167 2.135 1_556 S
O160 Co159 2.061 . S
O160 C163 1.235 1_556 S
C161 O164 1.238 . S
C161 O165 1.241 . S
C162 O155 1.247 . S
C162 O156 1.261 . S
C163 O158 1.259 . S
C163 O160 1.235 1_554 S
O164 Co154 2.021 1_556 S
O164 C161 1.238 . S
O165 Co159 2.052 . S
O165 C161 1.241 . S
O166 Co154 2.137 . S
O166 C157 1.247 . S
O167 Co154 2.244 . S
O167 C157 1.272 . S
O167 Co159 2.135 1_554 S
C7 C147 3.074 . S
C21 C161 3.074 . S
C91 C35 3.074 . S
C49 C105 3.074 . S
C119 C63 3.074 . S
C133 C77 3.074 . S
C93 C9 0.704 . S
C107 C23 0.704 . S
C121 C37 0.704 1_554 S
C51 C135 0.704 . S
C65 C149 0.704 . S
C79 C163 0.704 1_556 S
C8 C50 1.673 1_545 S
C22 C64 1.673 . S
C36 C78 1.674 1_655 S
C134 C92 1.673 1_455 S
C148 C106 1.674 1_545 S
C162 C120 1.674 . S
C3 C115 1.835 . S
C129 C17 1.835 . S
C31 C143 1.835 . S
C157 C45 1.835 . S
C59 C87 1.835 . S
C73 C101 1.835 . S
