# Generated by pormake.
# Topology qzd, (4)-cn, num edge types: 1
# Building blocks:
#     Node 0, Type 0, BuildingBlock: ESEHIV_clean_sbu_0, # of connection points: 4
#     Node 1, Type 0, BuildingBlock: ESEHIV_clean_sbu_0, # of connection points: 4
#     Node 2, Type 0, BuildingBlock: ESEHIV_clean_sbu_0, # of connection points: 4
#     Edge 3, Type (0, 0), BuildingBlock: KIFKEQ_clean_linker_1, # of connection points: 2
#     Edge 4, Type (0, 0), BuildingBlock: KIFKEQ_clean_linker_1, # of connection points: 2
#     Edge 5, Type (0, 0), BuildingBlock: KIFKEQ_clean_linker_1, # of connection points: 2
#     Edge 6, Type (0, 0), BuildingBlock: KIFKEQ_clean_linker_1, # of connection points: 2
#     Edge 7, Type (0, 0), BuildingBlock: KIFKEQ_clean_linker_1, # of connection points: 2
#     Edge 8, Type (0, 0), BuildingBlock: KIFKEQ_clean_linker_1, # of connection points: 2
# Relax obj value: 0.000
# Max RMSD: 0.158
# Mean RMSD: 0.076
data_MOF--net-qzd--node1-ESEHIV_clean_sbu_0--edge1-KIFKEQ_clean_linker_1
_symmetry_space_group_name_H-M    P1
_symmetry_Int_Tables_number       1
_symmetry_cell_setting            triclinic
loop_
_symmetry_equiv_pos_as_xyz
'x, y, z'
_cell_length_a     14.466958
_cell_length_b     17.264092
_cell_length_c     46.625696
_cell_angle_alpha  100.58579
_cell_angle_beta   98.99016
_cell_angle_gamma 114.59172
loop_
_atom_site_label
_atom_site_type_symbol
_atom_site_fract_x
_atom_site_fract_y
_atom_site_fract_z
_atom_type_partial_charge
Cu0 Cu 0.24533 0.04435 0.0276 0.0
N1 N 0.30443 0.11492 0.06787 0.0
N2 N 0.32889 0.16207 0.11793 0.0
C3 C 0.25876 0.11053 0.09106 0.0
C4 C 0.42203 0.20147 0.11119 0.0
C5 C 0.40667 0.17223 0.08043 0.0
O6 O 0.09237 0.97883 0.01956 0.0
C7 C 0.35668 0.94358 0.03846 0.0
O8 O 0.3337 0.94819 0.06469 0.0
H9 H 0.17669 0.06756 0.08849 0.0
H10 H 0.46663 0.18892 0.06816 0.0
N11 N 0.27124 0.11474 1.00084 0.0
N12 N 0.2779 0.14892 0.95681 0.0
C13 C 0.24781 0.08327 0.9706 0.0
C14 C 0.31783 0.20353 1.0066 0.0
C15 C 0.32184 0.22484 0.9795 0.0
C16 C 1.04174 0.92895 0.03453 0.0
O17 O 0.09293 0.90971 0.05565 0.0
H18 H 0.20836 1.01318 0.95902 0.0
H19 H 0.34746 0.24949 0.02892 0.0
O20 O 0.31826 0.97327 0.01928 0.0
H21 H 0.49662 0.24686 0.12732 0.0
H22 H 0.35593 0.29117 0.97686 0.0
Cu23 Cu 0.18152 0.27726 0.38004 0.0
N24 N 0.22077 0.39842 0.38655 0.0
N25 N 0.31274 0.54063 0.38785 0.0
C26 C 0.3115 0.46065 0.3839 0.0
C27 C 0.21946 0.5283 0.39333 0.0
C28 C 0.16311 0.44068 0.39263 0.0
O29 O 0.23 0.24439 0.34496 0.0
C30 C 0.2517 0.30159 0.44261 0.0
O31 O 0.23892 0.37317 0.44458 0.0
H32 H 0.37391 0.44687 0.37823 0.0
H33 H 0.08518 0.40984 0.39607 0.0
N34 N 1.03503 0.21194 0.37168 0.0
N35 N 0.87776 0.10431 0.36988 0.0
C36 C 0.98318 0.1359 0.37885 0.0
C37 C 0.95984 0.22875 0.35753 0.0
C38 C 0.86267 0.16273 0.35657 0.0
C39 C 0.17168 0.17871 0.32189 0.0
O40 O 0.0777 0.12245 0.3227 0.0
H41 H 1.02216 0.10461 0.39053 0.0
H42 H 0.97458 0.28459 0.34831 0.0
O43 O 0.2385 0.25356 0.41651 0.0
H44 H 0.19392 0.57905 0.39757 0.0
H45 H 0.78683 0.15707 0.34631 0.0
Cu46 Cu 1.04314 0.05828 0.673 0.0
N47 N 0.95719 0.11444 0.67276 0.0
N48 N 0.90596 0.21929 0.67076 0.0
C49 C 0.9779 0.19133 0.66579 0.0
C50 C 0.83713 0.15747 0.68113 0.0
C51 C 0.86873 0.09266 0.68223 0.0
O52 O 0.13009 0.09745 0.6452 0.0
C53 C 0.06891 0.04832 0.73216 0.0
O54 O 0.9689 0.99175 0.72057 0.0
H55 H 1.04678 0.22789 0.65843 0.0
H56 H 0.83121 1.03485 0.69006 0.0
N57 N 0.96139 0.93475 0.65909 0.0
N58 N 0.91317 0.79026 0.65197 0.0
C59 C 0.9905 0.87365 0.66526 0.0
C60 C 0.86202 0.88838 0.64149 0.0
C61 C 0.83234 0.79916 0.63686 0.0
C62 C 0.08133 0.06936 0.61723 0.0
O63 O 0.97961 1.01652 0.6094 0.0
H64 H 0.06689 0.89009 0.67922 0.0
H65 H 0.81438 0.9175 0.63274 0.0
O66 O 0.12128 0.08774 0.71507 0.0
H67 H 0.76943 0.15943 0.6877 0.0
H68 H 0.75647 0.74508 0.62399 0.0
H69 H 0.93683 0.90589 0.07852 0.0
H70 H 0.89474 0.90672 0.98497 0.0
H71 H 0.76352 0.89592 0.07695 0.0
H72 H 0.71784 0.89025 0.98246 0.0
H73 H 0.47792 0.98888 0.99914 0.0
H74 H 0.63412 0.97147 0.99629 0.0
H75 H 0.5834 0.82408 0.06293 0.0
H76 H 0.43034 0.84731 0.06711 0.0
C77 C 0.88897 0.90115 0.05731 0.0
C78 C 0.92969 0.90755 0.03192 0.0
C79 C 0.78878 0.89501 0.05629 0.0
C80 C 0.72547 0.89316 0.02963 0.0
C81 C 0.76449 0.89418 1.00372 0.0
C82 C 0.86574 0.90258 1.00499 0.0
C83 C 0.49921 0.95167 1.0129 0.0
C84 C 0.44176 0.91989 0.03348 0.0
C85 C 0.58912 0.94107 1.01116 0.0
C86 C 0.62328 0.89662 0.0295 0.0
C87 C 0.56209 0.86072 0.04895 0.0
C88 C 0.47329 0.87311 0.05116 0.0
H89 H 0.88471 0.94887 0.36649 0.0
H90 H 0.69028 0.078 0.38063 0.0
H91 H 0.74794 0.81161 0.37049 0.0
H92 H 0.55497 0.94254 0.38616 0.0
H93 H 0.28733 0.66532 0.36493 0.0
H94 H 0.42447 0.8011 0.36032 0.0
H95 H 0.66153 0.73659 0.40234 0.0
H96 H 0.52303 0.59862 0.40543 0.0
C97 C 0.81307 0.94805 0.3709 0.0
C98 C 0.79797 1.02399 0.37316 0.0
C99 C 0.73455 0.86941 0.37335 0.0
C100 C 0.63947 0.8651 0.37865 0.0
C101 C 0.62557 0.94201 0.38138 0.0
C102 C 0.70337 1.02008 0.37838 0.0
C103 C 0.36885 0.68053 0.37323 0.0
C104 C 0.39452 0.62146 0.38554 0.0
C105 C 0.44787 0.75875 0.37077 0.0
C106 C 0.55501 0.7809 0.38107 0.0
C107 C 0.58035 0.7216 0.39359 0.0
C108 C 0.50104 0.64253 0.39553 0.0
H109 H 0.82431 0.63519 0.60815 0.0
H110 H 1.00511 0.76099 0.70109 0.0
H111 H 0.82393 0.49555 0.61237 0.0
H112 H 1.00371 0.62119 0.70545 0.0
H113 H 0.84995 0.32381 0.70706 0.0
H114 H 0.85415 0.4641 0.70231 0.0
H115 H 0.9675 0.43986 0.62248 0.0
H116 H 0.9645 0.29987 0.6275 0.0
C117 C 0.86372 0.63276 0.62946 0.0
C118 C 0.91481 0.70876 0.65428 0.0
C119 C 0.86407 0.55323 0.63182 0.0
C120 C 0.91367 0.54771 0.65924 0.0
C121 C 0.9645 0.62363 0.6841 0.0
C122 C 0.96595 0.70361 0.68155 0.0
C123 C 0.87523 0.34831 0.68844 0.0
C124 C 0.90675 0.30101 0.66761 0.0
C125 C 0.87842 0.42878 0.68586 0.0
C126 C 0.91125 0.46271 0.66205 0.0
C127 C 0.94152 0.41493 0.64098 0.0
C128 C 0.94035 0.33529 0.64392 0.0
H129 H 0.35024 0.29363 0.30954 0.0
H130 H 0.06259 0.04993 0.26836 0.0
H131 H 0.39046 0.2906 0.2605 0.0
H132 H 0.10355 0.04633 0.21959 0.0
H133 H 0.14268 0.12527 0.13225 0.0
H134 H 0.10937 0.12723 0.18189 0.0
H135 H 0.43816 0.21142 0.22124 0.0
H136 H 0.47162 0.20912 0.1716 0.0
C137 C 0.29631 0.23874 0.29015 0.0
C138 C 0.20292 0.17222 0.29296 0.0
C139 C 0.31946 0.23694 0.26201 0.0
C140 C 0.24971 0.16871 0.23596 0.0
C141 C 0.15805 0.10084 0.23901 0.0
C142 C 0.13502 0.10253 0.2671 0.0
C143 C 0.20793 0.14368 0.15138 0.0
C144 C 0.3099 0.16682 0.14766 0.0
C145 C 0.18874 0.14468 0.17993 0.0
C146 C 0.27094 0.16897 0.20563 0.0
C147 C 0.37315 0.19329 0.20204 0.0
C148 C 0.39235 0.19212 0.17346 0.0
H149 H 1.01048 0.98898 0.55705 0.0
H150 H 0.26806 0.21676 0.62333 0.0
H151 H 0.07726 0.04484 0.51665 0.0
H152 H 0.33668 0.27294 0.58244 0.0
H153 H 0.29523 0.39403 0.50125 0.0
H154 H 0.27757 0.33582 0.54488 0.0
H155 H 0.21375 0.07962 0.49008 0.0
H156 H 0.22933 0.13765 0.44609 0.0
C157 C 0.0827 0.05049 0.56303 0.0
C158 C 0.13337 0.09885 0.59345 0.0
C159 C 0.12169 0.0822 0.53976 0.0
C160 C 0.21237 0.1636 0.54617 0.0
C161 C 0.26608 0.21032 0.57669 0.0
C162 C 0.22726 0.17797 0.60012 0.0
C163 C 0.2794 0.32565 0.49857 0.0
C164 C 0.26217 0.2702 0.47001 0.0
C165 C 0.27003 0.29239 0.52373 0.0
C166 C 0.24291 0.20267 0.521 0.0
C167 C 0.23299 0.14873 0.49289 0.0
C168 C 0.24266 0.18214 0.46769 0.0
H169 H 0.99796 0.93925 0.76722 0.0
H170 H 0.24466 0.19454 0.77077 0.0
H171 H 0.06146 0.96743 0.82129 0.0
H172 H 0.30897 0.22315 0.82561 0.0
H173 H 0.27556 0.26947 0.92656 0.0
H174 H 0.24091 0.24834 0.87199 0.0
H175 H 0.21423 0.98518 0.85921 0.0
H176 H 0.25029 1.00633 0.91353 0.0
C177 C 0.06654 1.00132 0.77955 0.0
C178 C 0.11611 0.06477 0.76467 0.0
C179 C 0.10337 1.01722 0.8106 0.0
C180 C 0.19037 0.09747 0.82781 0.0
C181 C 0.24137 0.16082 0.81296 0.0
C182 C 0.20513 0.14425 0.78158 0.0
C183 C 0.26403 0.2076 0.91223 0.0
C184 C 0.26425 0.13915 0.92467 0.0
C185 C 0.24435 0.19562 0.88089 0.0
C186 C 0.22391 0.11481 0.86122 0.0
C187 C 0.2279 0.04772 0.8737 0.0
C188 C 0.24805 0.05977 0.90494 0.0
loop_
_geom_bond_atom_site_label_1
_geom_bond_atom_site_label_2
_geom_bond_distance
_geom_bond_site_symmetry_2
_ccdc_geom_bond_type
Cu0 N1 1.999 . S
Cu0 O6 1.974 1_455 S
Cu0 N11 1.985 1_554 S
Cu0 O20 1.959 . S
N1 Cu0 1.999 . S
N1 C3 1.263 1_455 S
N1 C5 1.389 . S
N2 C3 1.358 1_455 S
N2 C4 1.400 . S
C3 N1 1.263 1_655 S
C3 N2 1.358 1_655 S
C3 H9 0.930 1_545 S
C4 N2 1.400 . S
C4 C5 1.351 . S
C4 H21 0.930 . S
C5 N1 1.389 . S
C5 C4 1.351 . S
C5 H10 0.930 . S
O6 Cu0 1.974 1_655 S
O6 C16 1.282 1_544 S
C7 O8 1.265 1_554 S
C7 O20 1.252 1_565 S
O8 C7 1.265 1_556 S
H9 C3 0.930 1_565 S
H10 C5 0.930 . S
N11 Cu0 1.985 1_556 S
N11 C13 1.335 . S
N11 C14 1.390 1_445 S
N12 C13 1.345 . S
N12 C15 1.336 1_445 S
C13 N11 1.335 . S
C13 N12 1.345 . S
C13 H18 0.930 . S
C14 N11 1.390 1_665 S
C14 C15 1.346 . S
C14 H19 0.930 . S
C15 N12 1.336 1_665 S
C15 C14 1.346 . S
C15 H22 0.929 . S
C16 O6 1.282 1_566 S
C16 O17 1.216 . S
O17 C16 1.216 . S
H18 C13 0.930 . S
H19 C14 0.930 . S
O20 Cu0 1.959 . S
O20 C7 1.252 1_545 S
H21 C4 0.930 . S
H22 C15 0.929 . S
Cu23 N24 1.999 . S
Cu23 O29 1.974 . S
Cu23 N34 1.985 1_445 S
Cu23 O43 1.959 . S
N24 Cu23 1.999 . S
N24 C26 1.263 . S
N24 C28 1.389 . S
N25 C26 1.358 . S
N25 C27 1.400 . S
C26 N24 1.263 . S
C26 N25 1.358 . S
C26 H32 0.930 . S
C27 N25 1.400 . S
C27 C28 1.351 . S
C27 H44 0.930 . S
C28 N24 1.389 . S
C28 C27 1.351 . S
C28 H33 0.930 . S
O29 Cu23 1.974 . S
O29 C39 1.282 1_455 S
C30 O31 1.261 1_455 S
C30 O43 1.251 . S
O31 C30 1.261 1_655 S
H32 C26 0.930 . S
H33 C28 0.930 . S
N34 Cu23 1.985 1_665 S
N34 C36 1.335 . S
N34 C37 1.390 . S
N35 C36 1.345 . S
N35 C38 1.336 . S
C36 N34 1.335 . S
C36 N35 1.345 . S
C36 H41 0.930 . S
C37 N34 1.390 . S
C37 C38 1.346 . S
C37 H42 0.930 . S
C38 N35 1.336 . S
C38 C37 1.346 . S
C38 H45 0.929 . S
C39 O29 1.282 1_655 S
C39 O40 1.216 . S
O40 C39 1.216 . S
H41 C36 0.930 . S
H42 C37 0.930 . S
O43 Cu23 1.959 . S
O43 C30 1.251 . S
H44 C27 0.930 . S
H45 C38 0.929 . S
Cu46 N47 1.999 . S
Cu46 O52 1.974 . S
Cu46 N57 1.985 . S
Cu46 O66 1.959 . S
N47 Cu46 1.999 . S
N47 C49 1.263 . S
N47 C51 1.389 . S
N48 C49 1.358 . S
N48 C50 1.400 . S
C49 N47 1.263 . S
C49 N48 1.358 . S
C49 H55 0.930 . S
C50 N48 1.400 . S
C50 C51 1.351 . S
C50 H67 0.930 . S
C51 N47 1.389 . S
C51 C50 1.351 . S
C51 H56 0.930 . S
O52 Cu46 1.974 . S
O52 C62 1.282 . S
C53 O54 1.261 . S
C53 O66 1.251 . S
O54 C53 1.261 . S
H55 C49 0.930 . S
H56 C51 0.930 . S
N57 Cu46 1.985 . S
N57 C59 1.335 1_545 S
N57 C60 1.390 1_545 S
N58 C59 1.345 . S
N58 C61 1.336 . S
C59 N57 1.335 1_565 S
C59 N58 1.345 . S
C59 H64 0.930 1_565 S
C60 N57 1.390 1_565 S
C60 C61 1.346 . S
C60 H65 0.930 . S
C61 N58 1.336 . S
C61 C60 1.346 . S
C61 H68 0.929 . S
C62 O52 1.282 . S
C62 O63 1.216 . S
O63 C62 1.216 . S
H64 C59 0.930 1_545 S
H65 C60 0.930 . S
O66 Cu46 1.959 . S
O66 C53 1.251 . S
H67 C50 0.930 . S
H68 C61 0.929 . S
H69 C77 0.950 . S
H70 C82 0.950 . S
H71 C79 0.950 . S
H72 C81 0.950 . S
H73 C83 0.950 . S
H74 C85 0.950 . S
H75 C87 0.950 . S
H76 C88 0.950 . S
C77 H69 0.950 . S
C77 C78 1.364 1_554 S
C77 C79 1.391 . S
C78 C77 1.364 1_556 S
C78 C82 1.411 . S
C79 H71 0.950 . S
C79 C77 1.391 . S
C79 C80 1.379 1_554 S
C80 C79 1.379 1_556 S
C80 C81 1.424 . S
C80 C86 1.492 . S
C81 H72 0.950 . S
C81 C80 1.424 . S
C81 C82 1.391 . S
C82 H70 0.950 . S
C82 C78 1.411 . S
C82 C81 1.391 . S
C83 H73 0.950 . S
C83 C84 1.423 . S
C83 C85 1.391 . S
C84 C83 1.423 . S
C84 C88 1.363 1_556 S
C85 H74 0.950 . S
C85 C83 1.391 . S
C85 C86 1.427 . S
C86 C80 1.492 . S
C86 C85 1.427 . S
C86 C87 1.365 1_556 S
C87 H75 0.950 . S
C87 C86 1.365 1_554 S
C87 C88 1.391 . S
C88 H76 0.950 . S
C88 C84 1.363 1_554 S
C88 C87 1.391 . S
H89 C97 0.950 . S
H90 C102 0.950 . S
H91 C99 0.950 . S
H92 C101 0.950 . S
H93 C103 0.950 . S
H94 C105 0.950 . S
H95 C107 0.950 . S
H96 C108 0.950 . S
C97 H89 0.950 . S
C97 C98 1.386 . S
C97 C99 1.391 . S
C98 C97 1.386 . S
C98 C102 1.393 . S
C99 H91 0.950 . S
C99 C97 1.391 . S
C99 C100 1.400 . S
C100 C99 1.400 . S
C100 C101 1.398 . S
C100 C106 1.491 . S
C101 H92 0.950 . S
C101 C100 1.398 . S
C101 C102 1.391 . S
C102 H90 0.950 . S
C102 C98 1.393 . S
C102 C101 1.391 . S
C103 H93 0.950 . S
C103 C104 1.386 . S
C103 C105 1.391 . S
C104 C103 1.386 . S
C104 C108 1.393 . S
C105 H94 0.950 . S
C105 C103 1.391 . S
C105 C106 1.400 . S
C106 C100 1.491 . S
C106 C105 1.400 . S
C106 C107 1.398 . S
C107 H95 0.950 . S
C107 C106 1.398 . S
C107 C108 1.391 . S
C108 H96 0.950 . S
C108 C104 1.393 . S
C108 C107 1.391 . S
H109 C117 0.950 . S
H110 C122 0.950 . S
H111 C119 0.950 . S
H112 C121 0.950 . S
H113 C123 0.950 . S
H114 C125 0.950 . S
H115 C127 0.950 . S
H116 C128 0.950 . S
C117 H109 0.950 . S
C117 C118 1.386 . S
C117 C119 1.391 . S
C118 C117 1.386 . S
C118 C122 1.393 . S
C119 H111 0.950 . S
C119 C117 1.391 . S
C119 C120 1.400 . S
C120 C119 1.400 . S
C120 C121 1.398 . S
C120 C126 1.491 . S
C121 H112 0.950 . S
C121 C120 1.398 . S
C121 C122 1.391 . S
C122 H110 0.950 . S
C122 C118 1.393 . S
C122 C121 1.391 . S
C123 H113 0.950 . S
C123 C124 1.386 . S
C123 C125 1.391 . S
C124 C123 1.386 . S
C124 C128 1.393 . S
C125 H114 0.950 . S
C125 C123 1.391 . S
C125 C126 1.400 . S
C126 C120 1.491 . S
C126 C125 1.400 . S
C126 C127 1.398 . S
C127 H115 0.950 . S
C127 C126 1.398 . S
C127 C128 1.391 . S
C128 H116 0.950 . S
C128 C124 1.393 . S
C128 C127 1.391 . S
H129 C137 0.950 . S
H130 C142 0.950 . S
H131 C139 0.950 . S
H132 C141 0.950 . S
H133 C143 0.950 . S
H134 C145 0.950 . S
H135 C147 0.950 . S
H136 C148 0.950 . S
C137 H129 0.950 . S
C137 C138 1.386 1_455 S
C137 C139 1.391 . S
C138 C137 1.386 1_655 S
C138 C142 1.393 . S
C139 H131 0.950 . S
C139 C137 1.391 . S
C139 C140 1.400 1_455 S
C140 C139 1.400 1_655 S
C140 C141 1.398 . S
C140 C146 1.491 . S
C141 H132 0.950 . S
C141 C140 1.398 . S
C141 C142 1.391 . S
C142 H130 0.950 . S
C142 C138 1.393 . S
C142 C141 1.391 . S
C143 H133 0.950 . S
C143 C144 1.386 1_655 S
C143 C145 1.391 . S
C144 C143 1.386 1_455 S
C144 C148 1.393 . S
C145 H134 0.950 . S
C145 C143 1.391 . S
C145 C146 1.400 . S
C146 C140 1.491 . S
C146 C145 1.400 . S
C146 C147 1.398 1_655 S
C147 H135 0.950 . S
C147 C146 1.398 1_455 S
C147 C148 1.391 . S
C148 H136 0.950 . S
C148 C144 1.393 . S
C148 C147 1.391 . S
H149 C157 0.950 . S
H150 C162 0.950 . S
H151 C159 0.950 1_655 S
H152 C161 0.950 . S
H153 C163 0.950 . S
H154 C165 0.950 . S
H155 C167 0.950 . S
H156 C168 0.950 . S
C157 H149 0.950 . S
C157 C158 1.386 . S
C157 C159 1.391 . S
C158 C157 1.386 . S
C158 C162 1.393 . S
C159 H151 0.950 1_455 S
C159 C157 1.391 . S
C159 C160 1.400 . S
C160 C159 1.400 . S
C160 C161 1.398 . S
C160 C166 1.491 . S
C161 H152 0.950 . S
C161 C160 1.398 . S
C161 C162 1.391 . S
C162 H150 0.950 . S
C162 C158 1.393 . S
C162 C161 1.391 . S
C163 H153 0.950 . S
C163 C164 1.386 . S
C163 C165 1.391 . S
C164 C163 1.386 . S
C164 C168 1.393 1_455 S
C165 H154 0.950 . S
C165 C163 1.391 . S
C165 C166 1.400 . S
C166 C160 1.491 . S
C166 C165 1.400 . S
C166 C167 1.398 1_455 S
C167 H155 0.950 . S
C167 C166 1.398 1_655 S
C167 C168 1.391 . S
C168 H156 0.950 . S
C168 C164 1.393 1_655 S
C168 C167 1.391 . S
H169 C177 0.950 1_565 S
H170 C182 0.950 . S
H171 C179 0.942 1_665 S
H172 C181 0.950 . S
H173 C183 0.950 . S
H174 C185 0.950 . S
H175 C187 0.950 1_655 S
H176 C188 0.950 1_655 S
C177 H169 0.950 1_545 S
C177 C178 1.386 . S
C177 C179 1.391 . S
C178 C177 1.386 . S
C178 C182 1.393 . S
C179 H171 0.942 1_445 S
C179 C177 1.391 . S
C179 C180 1.400 . S
C180 C179 1.400 . S
C180 C181 1.398 . S
C180 C186 1.491 . S
C181 H172 0.950 . S
C181 C180 1.398 . S
C181 C182 1.391 . S
C182 H170 0.950 . S
C182 C178 1.393 . S
C182 C181 1.391 . S
C183 H173 0.950 . S
C183 C184 1.386 . S
C183 C185 1.391 . S
C184 C183 1.386 . S
C184 C188 1.393 1_545 S
C185 H174 0.950 . S
C185 C183 1.391 . S
C185 C186 1.400 . S
C186 C180 1.491 . S
C186 C185 1.400 . S
C186 C187 1.398 1_545 S
C187 H175 0.950 1_455 S
C187 C186 1.398 1_565 S
C187 C188 1.391 . S
C188 H176 0.950 1_455 S
C188 C184 1.393 1_565 S
C188 C187 1.391 . S
C78 C16 1.491 . S
C84 C7 1.479 1_556 S
C98 N35 1.472 . S
C104 N25 1.467 . S
C118 N58 1.457 . S
C124 N48 1.460 . S
C138 C39 1.582 . S
C144 N2 1.518 . S
C158 C62 1.569 . S
C164 C30 1.584 . S
C178 C53 1.525 . S
C184 N12 1.490 . S
