# Generated by pormake.
# Topology lon, (4)-cn, num edge types: 1
# Building blocks:
#     Node 0, Type 0, BuildingBlock: CEKHIL_clean_sbu_0, # of connection points: 4
#     Node 1, Type 0, BuildingBlock: CEKHIL_clean_sbu_0, # of connection points: 4
#     Node 2, Type 0, BuildingBlock: CEKHIL_clean_sbu_0, # of connection points: 4
#     Node 3, Type 0, BuildingBlock: CEKHIL_clean_sbu_0, # of connection points: 4
#     Edge 4, Type (0, 0), None
#     Edge 5, Type (0, 0), None
#     Edge 6, Type (0, 0), None
#     Edge 7, Type (0, 0), None
#     Edge 8, Type (0, 0), None
#     Edge 9, Type (0, 0), None
#     Edge 10, Type (0, 0), None
#     Edge 11, Type (0, 0), None
# Relax obj value: 0.143
# Max RMSD: 0.175
# Mean RMSD: 0.173
data_MOF--net-lon--node1-CEKHIL_clean_sbu_0--edge1-none
_symmetry_space_group_name_H-M    P1
_symmetry_Int_Tables_number       1
_symmetry_cell_setting            triclinic
loop_
_symmetry_equiv_pos_as_xyz
'x, y, z'
_cell_length_a     9.766871
_cell_length_b     10.739045
_cell_length_c     18.142852
_cell_angle_alpha  89.264014
_cell_angle_beta   90.000637
_cell_angle_gamma 117.09835
loop_
_atom_site_label
_atom_site_type_symbol
_atom_site_fract_x
_atom_site_fract_y
_atom_site_fract_z
_atom_type_partial_charge
Co0 Co 0.41483 0.73934 0.10904 0.0
O1 O 0.34131 0.81782 0.18861 0.0
O2 O 0.44504 0.67394 0.20217 0.0
C3 C 0.54576 0.94012 0.04175 0.0
O4 O 0.50672 0.6331 0.05431 0.0
Co5 Co 0.36906 0.72038 0.94286 0.0
O6 O 0.49871 0.62254 0.93217 0.0
C7 C 0.11633 0.53118 0.04426 0.0
C8 C 0.38515 0.7456 0.23258 0.0
C9 C 0.53718 0.5912 0.99375 0.0
O10 O 0.2028 0.57534 0.10121 0.0
O11 O 0.16024 0.58166 0.97926 0.0
O12 O 0.6064 0.91452 0.10022 0.0
O13 O 0.4084 0.84721 0.02587 0.0
Co14 Co 0.6633 0.3435 0.61039 0.0
O15 O 0.51946 0.25885 0.6937 0.0
O16 O 0.77111 0.33505 0.69611 0.0
C17 C 0.55907 0.48494 0.57425 0.0
O18 O 0.86109 0.44266 0.5486 0.0
Co19 Co 0.60377 0.34213 0.44682 0.0
O20 O 0.82708 0.42639 0.42689 0.0
C21 C 0.56798 0.08438 0.52037 0.0
C22 C 0.64184 0.28163 0.73158 0.0
C23 C 0.91455 0.46124 0.48249 0.0
O24 O 0.6303 0.153 0.57894 0.0
O25 O 0.53848 0.13898 0.46356 0.0
O26 O 0.65724 0.51942 0.62798 0.0
O27 O 0.52698 0.36759 0.54268 0.0
Co28 Co 0.32844 0.67341 0.43448 0.0
O29 O 0.26934 0.75804 0.35118 0.0
O30 O 0.44482 0.68204 0.34878 0.0
C31 C 0.08256 0.53188 0.47055 0.0
O32 O 0.42702 0.5743 0.49625 0.0
Co33 Co 0.27009 0.67441 0.59808 0.0
O34 O 0.40891 0.59004 0.61797 0.0
C35 C 0.49216 0.93242 0.52458 0.0
C36 C 0.36897 0.73535 0.31331 0.0
C37 C 0.46167 0.55546 0.56235 0.0
O38 O 0.48606 0.86393 0.466 0.0
O39 O 0.40783 0.87766 0.58134 0.0
O40 O 0.14625 0.49743 0.41683 0.0
O41 O 0.16796 0.64917 0.50219 0.0
Co42 Co 0.68371 0.27758 0.93585 0.0
O43 O 0.53162 0.19902 0.85626 0.0
O44 O 0.7794 0.34321 0.84273 0.0
C45 C 0.61398 0.07682 1.00306 0.0
O46 O 0.88191 0.38387 0.9906 0.0
Co47 Co 0.65673 0.29637 0.10201 0.0
O48 O 0.88437 0.39419 0.11276 0.0
C49 C 0.59357 0.48568 1.0007 0.0
C50 C 0.64776 0.27142 0.81231 0.0
C51 C 0.95427 0.42564 0.05119 0.0
O52 O 0.63566 0.44142 0.94374 0.0
O53 O 0.58698 0.43524 0.06571 0.0
O54 O 0.70024 0.10261 0.94458 0.0
O55 O 0.56934 0.16948 1.01899 0.0
loop_
_geom_bond_atom_site_label_1
_geom_bond_atom_site_label_2
_geom_bond_distance
_geom_bond_site_symmetry_2
_ccdc_geom_bond_type
Co0 O1 2.216 . S
Co0 O2 2.091 . S
Co0 O4 2.004 . S
Co0 O10 2.021 . S
Co0 O12 2.137 . S
Co0 O13 2.244 1_554 S
O1 Co0 2.216 . S
O1 C8 1.247 . S
O2 Co0 2.091 . S
O2 C8 1.261 . S
C3 O12 1.247 . S
C3 O13 1.272 1_554 S
O4 Co0 2.004 . S
O4 C9 1.259 1_554 S
Co5 O6 2.061 . S
Co5 O11 2.052 . S
Co5 O13 2.135 . S
O6 Co5 2.061 . S
O6 C9 1.235 . S
C7 O10 1.238 . S
C7 O11 1.241 1_554 S
C8 O1 1.247 . S
C8 O2 1.261 . S
C9 O4 1.259 1_556 S
C9 O6 1.235 . S
O10 Co0 2.021 . S
O10 C7 1.238 . S
O11 Co5 2.052 . S
O11 C7 1.241 1_556 S
O12 Co0 2.137 . S
O12 C3 1.247 . S
O13 Co0 2.244 1_556 S
O13 C3 1.272 1_556 S
O13 Co5 2.135 . S
Co14 O15 2.216 . S
Co14 O16 2.091 . S
Co14 O18 2.004 . S
Co14 O24 2.021 . S
Co14 O26 2.137 . S
Co14 O27 2.244 . S
O15 Co14 2.216 . S
O15 C22 1.247 . S
O16 Co14 2.091 . S
O16 C22 1.261 . S
C17 O26 1.247 . S
C17 O27 1.272 . S
O18 Co14 2.004 . S
O18 C23 1.259 . S
Co19 O20 2.061 . S
Co19 O25 2.052 . S
Co19 O27 2.135 . S
O20 Co19 2.061 . S
O20 C23 1.235 . S
C21 O24 1.238 . S
C21 O25 1.241 . S
C22 O15 1.247 . S
C22 O16 1.261 . S
C23 O18 1.259 . S
C23 O20 1.235 . S
O24 Co14 2.021 . S
O24 C21 1.238 . S
O25 Co19 2.052 . S
O25 C21 1.241 . S
O26 Co14 2.137 . S
O26 C17 1.247 . S
O27 Co14 2.244 . S
O27 C17 1.272 . S
O27 Co19 2.135 . S
Co28 O29 2.216 . S
Co28 O30 2.091 . S
Co28 O32 2.004 . S
Co28 O38 2.021 . S
Co28 O40 2.137 . S
Co28 O41 2.244 . S
O29 Co28 2.216 . S
O29 C36 1.247 . S
O30 Co28 2.091 . S
O30 C36 1.261 . S
C31 O40 1.247 . S
C31 O41 1.272 . S
O32 Co28 2.004 . S
O32 C37 1.259 . S
Co33 O34 2.061 . S
Co33 O39 2.052 . S
Co33 O41 2.135 . S
O34 Co33 2.061 . S
O34 C37 1.235 . S
C35 O38 1.238 . S
C35 O39 1.241 . S
C36 O29 1.247 . S
C36 O30 1.261 . S
C37 O32 1.259 . S
C37 O34 1.235 . S
O38 Co28 2.021 . S
O38 C35 1.238 . S
O39 Co33 2.052 . S
O39 C35 1.241 . S
O40 Co28 2.137 . S
O40 C31 1.247 . S
O41 Co28 2.244 . S
O41 C31 1.272 . S
O41 Co33 2.135 . S
Co42 O43 2.216 . S
Co42 O44 2.091 . S
Co42 O46 2.004 . S
Co42 O52 2.021 . S
Co42 O54 2.137 . S
Co42 O55 2.244 1_556 S
O43 Co42 2.216 . S
O43 C50 1.247 . S
O44 Co42 2.091 . S
O44 C50 1.261 . S
C45 O54 1.247 . S
C45 O55 1.272 1_556 S
O46 Co42 2.004 . S
O46 C51 1.259 1_556 S
Co47 O48 2.061 . S
Co47 O53 2.052 . S
Co47 O55 2.135 . S
O48 Co47 2.061 . S
O48 C51 1.235 . S
C49 O52 1.238 . S
C49 O53 1.241 1_556 S
C50 O43 1.247 . S
C50 O44 1.261 . S
C51 O46 1.259 1_554 S
C51 O48 1.235 . S
O52 Co42 2.021 . S
O52 C49 1.238 . S
O53 Co47 2.052 . S
O53 C49 1.241 1_554 S
O54 Co42 2.137 . S
O54 C45 1.247 . S
O55 Co42 2.244 1_554 S
O55 C45 1.272 1_554 S
O55 Co47 2.135 . S
C8 C36 1.610 . S
C22 C50 1.610 . S
C9 C49 1.674 . S
C31 C23 1.653 1_455 S
C45 C3 1.702 1_546 S
C17 C37 1.653 . S
C7 C51 1.674 1_455 S
C21 C35 1.397 1_545 S
