# Generated by pormake.
# Topology qtz-x, (6)-cn, num edge types: 1
# Building blocks:
#     Node 0, Type 0, BuildingBlock: UKALOJ_clean_sbu_0, # of connection points: 6
#     Node 1, Type 0, BuildingBlock: UKALOJ_clean_sbu_0, # of connection points: 6
#     Node 2, Type 0, BuildingBlock: UKALOJ_clean_sbu_0, # of connection points: 6
#     Edge 3, Type (0, 0), None
#     Edge 4, Type (0, 0), None
#     Edge 5, Type (0, 0), None
#     Edge 6, Type (0, 0), None
#     Edge 7, Type (0, 0), None
#     Edge 8, Type (0, 0), None
#     Edge 9, Type (0, 0), None
#     Edge 10, Type (0, 0), None
#     Edge 11, Type (0, 0), None
# Relax obj value: 0.556
# Max RMSD: 0.311
# Mean RMSD: 0.310
data_MOF--net-qtz-x--node1-UKALOJ_clean_sbu_0--edge1-none
_symmetry_space_group_name_H-M    P1
_symmetry_Int_Tables_number       1
_symmetry_cell_setting            triclinic
loop_
_symmetry_equiv_pos_as_xyz
'x, y, z'
_cell_length_a     10.876973
_cell_length_b     10.881646
_cell_length_c     13.011528
_cell_angle_alpha  94.05948
_cell_angle_beta   94.140717
_cell_angle_gamma 120.91907
loop_
_atom_site_label
_atom_site_type_symbol
_atom_site_fract_x
_atom_site_fract_y
_atom_site_fract_z
_atom_type_partial_charge
Zn0 Zn 0.0714 0.61673 0.24377 0.0
O1 O 0.27722 0.70839 0.14718 0.0
C2 C 0.8184 0.46612 0.07641 0.0
Zn3 Zn 0.05464 0.43762 0.19151 0.0
C4 C 0.27251 0.61638 0.07569 0.0
O5 O 0.15808 0.4925 0.06081 0.0
C6 C 0.85499 0.38025 0.35138 0.0
O7 O 0.294 0.5586 0.28969 0.0
O8 O 0.21236 0.66489 0.38236 0.0
N9 N 1.01398 0.24475 0.16774 0.0
C10 C 0.09047 0.18298 0.1864 0.0
C11 C 0.86746 1.02725 0.19434 0.0
N12 N 0.87594 0.14842 0.17112 0.0
N13 N 0.99947 0.04527 0.20133 0.0
C14 C 0.10562 0.89696 0.2227 0.0
C15 C 0.96237 0.8864 0.33055 0.0
N16 N 0.08294 0.7935 0.28148 0.0
N17 N 0.99546 0.78717 0.34904 0.0
N18 N 1.03326 0.95823 0.25418 0.0
H19 H 0.13003 0.81347 0.07498 0.0
H20 H 0.29096 0.96674 0.14332 0.0
H21 H 0.15124 0.98859 0.08018 0.0
C22 C 0.17262 0.91731 0.1243 0.0
C23 C 0.25218 0.26491 0.20519 0.0
H24 H 0.29668 0.3391 0.14548 0.0
H25 H 0.29635 0.19353 0.20492 0.0
H26 H 0.28926 0.33173 0.28166 0.0
O27 O 0.95196 0.3585 0.32507 0.0
O28 O 0.86619 0.4971 0.32832 0.0
C29 C 0.3206 0.65607 0.36527 0.0
O30 O 0.92709 0.58782 0.11299 0.0
O31 O 0.82617 0.35664 0.0964 0.0
Zn32 Zn 0.6836 0.06688 0.56848 0.0
O33 O 0.56282 0.82774 0.47022 0.0
C34 C 0.7411 0.26647 0.4082 0.0
Zn35 Zn 0.5044 0.04998 0.51543 0.0
C36 C 0.46533 0.80098 0.39448 0.0
O37 O 0.45622 0.90894 0.37703 0.0
C38 C 0.65484 0.30281 0.68306 0.0
O39 O 0.41274 0.84419 0.61227 0.0
O40 O 0.62852 0.96321 0.69908 0.0
N41 N 0.32743 1.0384 0.47758 0.0
C42 C 0.22389 1.01554 0.53629 0.0
C43 C 0.23421 0.15878 0.42847 0.0
N44 N 0.33364 0.12595 0.41005 0.0
N45 N 0.16225 0.0876 0.50471 0.0
C46 C 0.938 1.03074 0.57315 0.0
C47 C 0.09405 0.25369 0.56536 0.0
N48 N 0.8766 0.10739 0.59242 0.0
N49 N 0.97312 0.24538 0.58912 0.0
N50 N 0.07555 0.12155 0.55776 0.0
H51 H 0.78071 0.8243 0.61305 0.0
H52 H 0.92697 0.82479 0.55463 0.0
H53 H 0.78977 0.83274 0.47704 0.0
C54 C 0.85572 0.86914 0.55388 0.0
C55 C 0.20379 0.94866 0.63477 0.0
H56 H 0.30779 0.99115 0.684 0.0
H57 H 0.15414 0.83035 0.61586 0.0
H58 H 0.13273 0.97024 0.67893 0.0
O59 O 0.53322 0.19437 0.64596 0.0
O60 O 0.76452 0.29502 0.6637 0.0
C61 C 0.50463 0.84879 0.68395 0.0
O62 O 0.76312 0.1699 0.43508 0.0
O63 O 0.62386 0.25492 0.43066 0.0
Zn64 Zn 0.64119 0.65187 0.91669 0.0
O65 O 0.7338 0.52514 0.81162 0.0
C66 C 0.49315 0.7256 0.74105 0.0
Zn67 Zn 0.46896 0.4798 0.84292 0.0
C68 C 0.65004 0.43152 0.73356 0.0
O69 O 0.53091 0.42234 0.71259 0.0
C70 C 0.39557 0.62786 1.0185 0.0
O71 O 0.59564 0.38703 0.94805 0.0
O72 O 0.69844 0.58968 0.04709 0.0
N73 N 0.28898 0.30361 0.81137 0.0
C74 C 0.23322 0.18 0.85301 0.0
C75 C 0.06123 0.2094 0.80017 0.0
N76 N 0.18294 0.32236 0.7789 0.0
N77 N 0.08972 0.11816 0.84523 0.0
C78 C 0.9409 0.88739 0.90623 0.0
C79 C 0.9118 0.05928 0.9597 0.0
N80 N 0.81766 0.83159 0.94836 0.0
N81 N 0.79912 0.93755 0.98123 0.0
N82 N 1.00251 1.03076 0.91395 0.0
H83 H 0.97413 0.71131 0.88009 0.0
H84 H 0.09408 0.8645 0.82169 0.0
H85 H 0.91114 0.75915 0.7642 0.0
C86 C 0.98255 0.80083 0.83927 0.0
C87 C 0.31995 0.13799 0.9196 0.0
H88 H 0.40959 0.14692 0.8787 0.0
H89 H 0.25636 1.0263 0.93686 0.0
H90 H 0.36161 0.20885 0.99486 0.0
O91 O 0.36969 0.51134 0.96879 0.0
O92 O 0.52084 0.73806 1.01471 0.0
C93 C 0.68931 0.47067 1.02614 0.0
O94 O 0.60975 0.75137 0.79078 0.0
O95 O 0.38287 0.60038 0.7448 0.0
loop_
_geom_bond_atom_site_label_1
_geom_bond_atom_site_label_2
_geom_bond_distance
_geom_bond_site_symmetry_2
_ccdc_geom_bond_type
Zn0 O1 2.055 . S
Zn0 O8 2.046 . S
Zn0 N16 2.036 . S
Zn0 O28 2.053 1_455 S
Zn0 O30 2.066 1_455 S
O1 Zn0 2.055 . S
O1 C4 1.259 . S
C2 O30 1.256 . S
C2 O31 1.244 . S
Zn3 O5 2.046 . S
Zn3 O7 2.055 . S
Zn3 N9 2.036 . S
Zn3 O27 2.066 1_455 S
Zn3 O31 2.053 1_455 S
C4 O1 1.259 . S
C4 O5 1.254 . S
O5 Zn3 2.046 . S
O5 C4 1.254 . S
C6 O27 1.256 . S
C6 O28 1.244 . S
O7 Zn3 2.055 . S
O7 C29 1.259 . S
O8 Zn0 2.046 . S
O8 C29 1.254 . S
N9 Zn3 2.036 . S
N9 C10 1.298 . S
N9 N12 1.398 1_455 S
C10 N9 1.298 . S
C10 N13 1.367 1_445 S
C10 C23 1.481 . S
C11 N12 1.299 1_565 S
C11 N13 1.379 . S
N12 N9 1.398 1_655 S
N12 C11 1.299 1_545 S
N13 C10 1.367 1_665 S
N13 C11 1.379 . S
C14 N16 1.298 . S
C14 N18 1.367 1_455 S
C14 C22 1.481 . S
C15 N17 1.299 . S
C15 N18 1.379 . S
N16 Zn0 2.036 . S
N16 C14 1.298 . S
N16 N17 1.398 1_455 S
N17 C15 1.299 . S
N17 N16 1.398 1_655 S
N18 C14 1.367 1_655 S
N18 C15 1.379 . S
H19 C22 0.980 . S
H20 C22 0.981 . S
H21 C22 0.981 1_656 S
C22 C14 1.481 . S
C22 H19 0.980 . S
C22 H20 0.981 . S
C22 H21 0.981 1_454 S
C23 C10 1.481 . S
C23 H24 0.980 . S
C23 H25 0.981 . S
C23 H26 0.981 . S
H24 C23 0.980 . S
H25 C23 0.981 . S
H26 C23 0.981 . S
O27 Zn3 2.066 1_655 S
O27 C6 1.256 . S
O28 Zn0 2.053 1_655 S
O28 C6 1.244 . S
C29 O7 1.259 . S
C29 O8 1.254 . S
O30 Zn0 2.066 1_655 S
O30 C2 1.256 . S
O31 C2 1.244 . S
O31 Zn3 2.053 1_655 S
Zn32 O33 2.055 . S
Zn32 O40 2.046 . S
Zn32 N48 2.036 1_565 S
Zn32 O60 2.053 1_565 S
Zn32 O62 2.066 1_565 S
O33 Zn32 2.055 . S
O33 C36 1.259 . S
C34 O62 1.256 . S
C34 O63 1.244 . S
Zn35 O37 2.046 . S
Zn35 O39 2.055 . S
Zn35 N41 2.039 . S
Zn35 O59 2.066 1_565 S
Zn35 O63 2.053 1_565 S
C36 O33 1.259 . S
C36 O37 1.254 . S
O37 Zn35 2.046 . S
O37 C36 1.254 . S
C38 O59 1.256 . S
C38 O60 1.244 . S
O39 Zn35 2.055 . S
O39 C61 1.259 . S
O40 Zn32 2.046 . S
O40 C61 1.254 . S
N41 Zn35 2.039 . S
N41 C42 1.296 . S
N41 N44 1.396 1_565 S
C42 N41 1.296 . S
C42 N45 1.367 1_565 S
C42 C55 1.481 . S
C43 N44 1.299 . S
C43 N45 1.379 . S
N44 N41 1.396 1_545 S
N44 C43 1.299 . S
N45 C42 1.367 1_545 S
N45 C43 1.379 . S
C46 N48 1.298 1_565 S
C46 N50 1.367 1_665 S
C46 C54 1.481 . S
C47 N49 1.299 1_455 S
C47 N50 1.379 . S
N48 Zn32 2.036 1_545 S
N48 C46 1.298 1_545 S
N48 N49 1.398 . S
N49 C47 1.299 1_655 S
N49 N48 1.398 . S
N50 C46 1.367 1_445 S
N50 C47 1.379 . S
H51 C54 0.980 . S
H52 C54 0.981 . S
H53 C54 0.981 . S
C54 C46 1.481 . S
C54 H51 0.980 . S
C54 H52 0.981 . S
C54 H53 0.981 . S
C55 C42 1.481 . S
C55 H56 0.980 . S
C55 H57 0.981 . S
C55 H58 0.981 1_565 S
H56 C55 0.980 . S
H57 C55 0.981 . S
H58 C55 0.981 1_545 S
O59 Zn35 2.066 1_545 S
O59 C38 1.256 . S
O60 Zn32 2.053 1_545 S
O60 C38 1.244 . S
C61 O39 1.259 . S
C61 O40 1.254 . S
O62 Zn32 2.066 1_545 S
O62 C34 1.256 . S
O63 C34 1.244 . S
O63 Zn35 2.053 1_545 S
Zn64 O65 2.055 . S
Zn64 O72 2.046 . S
Zn64 N80 2.036 . S
Zn64 O92 2.053 . S
Zn64 O94 2.066 . S
O65 Zn64 2.055 . S
O65 C68 1.259 . S
C66 O94 1.256 . S
C66 O95 1.244 . S
Zn67 O69 2.046 . S
Zn67 O71 2.055 . S
Zn67 N73 2.036 . S
Zn67 O91 2.066 . S
Zn67 O95 2.053 . S
C68 O65 1.259 . S
C68 O69 1.254 . S
O69 Zn67 2.046 . S
O69 C68 1.254 . S
C70 O91 1.256 . S
C70 O92 1.244 . S
O71 Zn67 2.055 . S
O71 C93 1.259 . S
O72 Zn64 2.046 . S
O72 C93 1.254 . S
N73 Zn67 2.036 . S
N73 C74 1.298 . S
N73 N76 1.398 . S
C74 N73 1.298 . S
C74 N77 1.367 1_455 S
C74 C87 1.481 . S
C75 N76 1.299 1_655 S
C75 N77 1.379 . S
N76 N73 1.398 . S
N76 C75 1.299 1_455 S
N77 C74 1.367 1_655 S
N77 C75 1.379 . S
C78 N80 1.298 . S
C78 N82 1.367 1_565 S
C78 C86 1.481 . S
C79 N81 1.299 1_545 S
C79 N82 1.379 . S
N80 Zn64 2.036 . S
N80 C78 1.298 . S
N80 N81 1.398 . S
N81 C79 1.299 1_565 S
N81 N80 1.398 . S
N82 C78 1.367 1_545 S
N82 C79 1.379 . S
H83 C86 0.980 . S
H84 C86 0.981 1_455 S
H85 C86 0.981 . S
C86 C78 1.481 . S
C86 H83 0.980 . S
C86 H84 0.981 1_655 S
C86 H85 0.981 . S
C87 C74 1.481 . S
C87 H88 0.980 . S
C87 H89 0.981 . S
C87 H90 0.981 . S
H88 C87 0.980 . S
H89 C87 0.981 . S
H90 C87 0.981 . S
O91 Zn67 2.066 . S
O91 C70 1.256 . S
O92 Zn64 2.053 . S
O92 C70 1.244 . S
C93 O71 1.259 . S
C93 O72 1.254 . S
O94 Zn64 2.066 . S
O94 C66 1.256 . S
O95 C66 1.244 . S
O95 Zn67 2.053 . S
N18 N13 0.358 . S
N45 N50 0.358 . S
N82 N77 0.656 . S
C70 C4 2.762 1_556 S
C34 C6 3.175 . S
C66 C61 2.762 . S
C93 C2 2.886 1_556 S
C29 C36 2.498 . S
C68 C38 2.886 . S
