# Generated by pormake.
# Topology pcu, (6)-cn, num edge types: 1
# Building blocks:
#     Node 0, Type 0, BuildingBlock: PAMTOO_clean_sbu_0, # of connection points: 6
#     Edge 1, Type (0, 0), BuildingBlock: UVAHIK_clean_linker_0, # of connection points: 2
#     Edge 2, Type (0, 0), BuildingBlock: UVAHIK_clean_linker_0, # of connection points: 2
#     Edge 3, Type (0, 0), BuildingBlock: UVAHIK_clean_linker_0, # of connection points: 2
# Relax obj value: 0.000
# Max RMSD: 0.000
# Mean RMSD: 0.000
data_MOF--net-pcu--node1-PAMTOO_clean_sbu_0--edge1-UVAHIK_clean_linker_0
_symmetry_space_group_name_H-M    P1
_symmetry_Int_Tables_number       1
_symmetry_cell_setting            triclinic
loop_
_symmetry_equiv_pos_as_xyz
'x, y, z'
_cell_length_a     30.19769
_cell_length_b     19.902196
_cell_length_c     19.736655
_cell_angle_alpha  82.036008
_cell_angle_beta   99.263502
_cell_angle_gamma 118.39862
loop_
_atom_site_label
_atom_site_type_symbol
_atom_site_fract_x
_atom_site_fract_y
_atom_site_fract_z
_atom_type_partial_charge
Dy0 Dy 0.08169 0.03167 0.0023 0.0
Dy1 Dy 0.95473 0.94335 0.98245 0.0
C2 C 0.01943 -0.00638 0.85551 0.0
O3 O 0.05897 0.12456 0.973 0.0
O4 O 0.97695 0.06353 0.0015 0.0
O5 O 0.1537 0.1089 0.96445 0.0
O6 O 0.15114 0.05379 0.06757 0.0
O7 O 0.98097 0.92643 0.09275 0.0
O8 O 0.05545 0.03742 0.09929 0.0
O9 O 0.97604 0.85334 0.96947 0.0
O10 O 0.0583 0.90657 0.02172 0.0
O11 O 0.88415 0.88478 0.02751 0.0
O12 O 0.88334 0.90169 0.9169 0.0
C13 C 0.01797 0.12599 0.98583 0.0
O14 O 0.05766 -0.00819 0.89649 0.0
O15 O 0.98153 -0.0058 0.87953 0.0
C16 C 0.22164 0.08245 0.01086 0.0
C17 C 0.30295 0.05365 -0.00112 0.0
C18 C 0.25413 0.0083 0.96658 0.0
C19 C 0.21372 0.02242 0.97274 0.0
C20 C 0.2702 0.1281 0.0425 0.0
C21 C 0.31046 0.11393 0.03662 0.0
C22 C 0.1798 0.09736 0.02011 0.0
C23 C 0.01797 0.98033 0.12871 0.0
C24 C 1.01721 0.84818 -0.00377 0.0
C25 C 0.81581 0.90048 0.96454 0.0
C26 C 0.7349 0.93482 0.96233 0.0
C27 C 0.7829 0.98068 -0.00363 0.0
C28 C 0.82306 0.96383 -0.00273 0.0
C29 C 0.76839 0.85558 0.92948 0.0
C30 C 0.72833 0.8726 0.92822 0.0
C31 C 0.85641 0.87843 0.96862 0.0
H32 H 0.24696 0.961 0.93769 0.0
H33 H 0.17631 0.98621 0.94835 0.0
H34 H 0.27696 0.17465 0.07216 0.0
H35 H 0.34762 0.15063 0.06129 0.0
H36 H 0.78941 0.02958 0.02237 0.0
H37 H 0.85952 -0.0004 0.02428 0.0
H38 H 0.76206 0.80642 0.904 0.0
H39 H 0.6918 0.83567 0.90215 0.0
C40 C 0.97142 0.9359 0.23323 0.0
C41 C 1.01716 0.97766 0.20357 0.0
C42 C 0.97059 0.93595 0.30382 0.0
C43 C 0.04841 0.96014 0.46839 0.0
H44 H 0.95693 0.01841 0.53086 0.0
C45 C 0.06349 0.01487 0.75178 0.0
C46 C 0.01862 -0.00665 0.78058 0.0
C47 C 0.06263 0.01272 0.68117 0.0
C48 C 0.98213 0.00073 0.51454 0.0
H49 H 0.09796 0.05081 0.22446 0.0
H50 H 0.09656 0.04926 0.34812 0.0
H51 H 0.95565 0.01146 0.40807 0.0
H52 H 0.93758 0.95213 0.75826 0.0
H53 H 0.93566 0.9456 0.6355 0.0
H54 H 0.0741 0.94715 0.5743 0.0
C55 C 0.06142 0.01718 0.31659 0.0
C56 C 0.98147 -0.0029 0.44418 0.0
C57 C 0.06213 0.01832 0.2459 0.0
C58 C 0.97286 0.96974 0.73739 0.0
C59 C 0.97184 0.96638 0.66689 0.0
C60 C 0.04853 0.9625 0.53878 0.0
C61 C 1.01561 0.97652 0.34602 0.0
C62 C 1.01489 0.97741 0.42056 0.0
C63 C 1.01672 0.98771 0.63783 0.0
C64 C 1.01572 0.98352 0.56282 0.0
H65 H 0.93615 0.90434 0.20175 0.0
H66 H 0.93486 0.90391 0.32555 0.0
H67 H 0.07418 0.94402 0.45131 0.0
H68 H 0.09943 0.03397 0.78374 0.0
H69 H 0.09812 0.03126 0.6606 0.0
C70 C 0.38074 0.04228 0.05206 0.0
C71 C 0.34598 0.03821 -0.00598 0.0
C72 C 0.42199 0.02991 0.04751 0.0
C73 C 0.50177 0.03203 0.92251 0.0
H74 H 0.5436 0.91865 0.07176 0.0
C75 C 0.65699 0.94405 0.90514 0.0
C76 C 0.69137 0.95008 0.96413 0.0
C77 C 0.61495 0.95532 0.90769 0.0
C78 C 0.53279 0.9512 0.02997 0.0
H79 H 0.32739 0.01758 0.88561 0.0
H80 H 0.39909 -0.00512 0.87783 0.0
H81 H 0.46942 0.93513 0.078 0.0
H82 H 0.70839 0.97281 0.07208 0.0
H83 H 0.63549 -0.00657 0.07633 0.0
H84 H 0.56523 0.04802 0.87451 0.0
C85 C 0.39466 0.00845 0.92679 0.0
C86 C 0.4902 0.96061 0.03351 0.0
C87 C 0.35323 0.02062 0.93141 0.0
C88 C 0.68296 0.96845 0.02554 0.0
C89 C 0.64081 0.97937 0.02817 0.0
C90 C 0.54438 0.02253 0.91893 0.0
C91 C 0.42965 0.01316 0.98477 0.0
C92 C 0.47424 0.00144 0.97999 0.0
C93 C 0.6061 0.9725 0.9694 0.0
C94 C 0.56055 0.98227 0.97276 0.0
H95 H 0.37598 0.05478 0.1013 0.0
H96 H 0.44838 0.03475 0.09305 0.0
H97 H 0.49103 0.06476 0.88082 0.0
H98 H 0.6626 0.93066 0.85687 0.0
H99 H 0.58882 0.94907 0.86159 0.0
C100 C 0.97217 0.70657 0.98445 0.0
C101 C 0.01765 0.77408 -0.00346 0.0
C102 C 0.97263 0.6368 0.98375 0.0
C103 C 0.05305 0.55436 0.95509 0.0
H104 H 0.95929 0.37345 0.0554 0.0
C105 C 0.06395 0.26934 0.98483 0.0
C106 C 0.01824 0.20078 0.98425 0.0
C107 C 0.06421 0.33962 0.98596 0.0
C108 C 0.98523 0.42306 0.02621 0.0
H109 H 0.09936 0.82127 0.0169 0.0
H110 H 0.10004 0.69933 0.01505 0.0
H111 H 0.95887 0.49519 0.0581 0.0
H112 H 0.93678 0.15247 0.98261 0.0
H113 H 0.93707 0.27486 0.98251 0.0
H114 H 0.0788 0.48232 0.92191 0.0
C115 C 0.06409 0.7006 0.00623 0.0
C116 C 0.98508 0.49287 0.02805 0.0
C117 C 0.06362 0.77028 0.00775 0.0
C118 C 0.97274 0.20416 0.98366 0.0
C119 C 0.97295 0.27443 0.98407 0.0
C120 C 0.05286 0.48436 0.95263 0.0
C121 C 0.0186 0.63317 -0.0057 0.0
C122 C 0.01901 0.55922 -0.00742 0.0
C123 C 0.01872 0.34308 0.98583 0.0
C124 C 0.01895 0.41775 -0.0118 0.0
H125 H 0.93611 0.70748 0.97568 0.0
H126 H 0.93702 0.5858 0.97387 0.0
H127 H 0.07921 0.60447 0.92658 0.0
H128 H 0.09971 0.26872 0.98577 0.0
H129 H 0.10025 0.39108 -0.01168 0.0
loop_
_geom_bond_atom_site_label_1
_geom_bond_atom_site_label_2
_geom_bond_distance
_geom_bond_site_symmetry_2
_ccdc_geom_bond_type
Dy0 O3 2.307 . S
Dy0 O5 2.395 1_554 S
Dy0 O6 2.379 . S
Dy0 O8 2.339 . S
Dy0 O10 2.298 1_545 S
Dy0 O14 2.275 1_554 S
Dy0 C22 2.738 . S
Dy1 O4 2.298 1_565 S
Dy1 O7 2.275 1_556 S
Dy1 O9 2.307 . S
Dy1 O11 2.395 1_556 S
Dy1 O12 2.379 . S
Dy1 O15 2.339 . S
Dy1 C31 2.738 . S
C2 O14 1.254 1_665 S
C2 O15 1.257 . S
O3 Dy0 2.307 . S
O3 C13 1.275 1_554 S
O4 Dy1 2.298 1_545 S
O4 C13 1.232 1_655 S
O5 Dy0 2.395 1_556 S
O5 C22 1.255 1_556 S
O6 Dy0 2.379 . S
O6 C22 1.249 . S
O7 Dy1 2.275 1_554 S
O7 C23 1.254 1_665 S
O8 Dy0 2.339 . S
O8 C23 1.257 . S
O9 Dy1 2.307 . S
O9 C24 1.269 1_556 S
O10 Dy0 2.298 1_565 S
O10 C24 1.235 1_455 S
O11 Dy1 2.395 1_554 S
O11 C31 1.255 1_554 S
O12 Dy1 2.379 . S
O12 C31 1.249 . S
C13 O3 1.275 1_556 S
C13 O4 1.232 1_455 S
O14 Dy0 2.275 1_556 S
O14 C2 1.254 1_445 S
O15 Dy1 2.339 . S
O15 C2 1.257 . S
C16 C19 1.344 1_544 S
C16 C20 1.328 . S
C16 C22 1.516 . S
C17 C18 1.304 . S
C17 C21 1.323 1_566 S
C18 C17 1.304 . S
C18 C19 1.371 . S
C18 H32 0.930 . S
C19 C16 1.344 1_566 S
C19 C18 1.371 . S
C19 H33 0.931 . S
C20 C16 1.328 . S
C20 C21 1.433 . S
C20 H34 0.931 . S
C21 C17 1.323 1_544 S
C21 C20 1.433 . S
C21 H35 0.933 . S
C22 Dy0 2.738 . S
C22 O5 1.255 1_554 S
C22 O6 1.249 . S
C22 C16 1.516 . S
C23 O7 1.254 1_445 S
C23 O8 1.257 . S
C24 O9 1.269 1_554 S
C24 O10 1.235 1_655 S
C25 C28 1.344 1_566 S
C25 C29 1.328 . S
C25 C31 1.516 . S
C26 C27 1.304 . S
C26 C30 1.323 1_544 S
C27 C26 1.304 . S
C27 C28 1.371 . S
C27 H36 0.930 . S
C28 C25 1.344 1_544 S
C28 C27 1.371 . S
C28 H37 0.931 . S
C29 C25 1.328 . S
C29 C30 1.433 . S
C29 H38 0.931 . S
C30 C26 1.323 1_566 S
C30 C29 1.433 . S
C30 H39 0.933 . S
C31 Dy1 2.738 . S
C31 O11 1.255 1_556 S
C31 O12 1.249 . S
C31 C25 1.516 . S
H32 C18 0.930 . S
H33 C19 0.931 . S
H34 C20 0.931 . S
H35 C21 0.933 . S
H36 C27 0.930 . S
H37 C28 0.931 . S
H38 C29 0.931 . S
H39 C30 0.933 . S
C40 C41 1.349 1_655 S
C40 C42 1.327 . S
C40 H65 0.950 . S
C41 C40 1.349 1_455 S
C41 C57 1.349 1_545 S
C42 C40 1.327 . S
C42 C61 1.429 1_655 S
C42 H66 0.950 . S
C43 C60 1.574 . S
C43 C62 1.368 1_565 S
C43 H67 0.949 . S
H44 C48 0.949 . S
C45 C46 1.349 1_565 S
C45 C47 1.327 . S
C45 H68 0.950 . S
C46 C45 1.349 1_545 S
C46 C58 1.349 1_455 S
C47 C45 1.327 . S
C47 C63 1.429 1_565 S
C47 H69 0.950 . S
C48 H44 0.949 . S
C48 C56 1.574 . S
C48 C64 1.368 1_655 S
H49 C57 0.950 . S
H50 C55 0.950 . S
H51 C56 0.949 . S
H52 C58 0.950 . S
H53 C59 0.950 . S
H54 C60 0.949 . S
C55 H50 0.950 . S
C55 C57 1.327 . S
C55 C61 1.429 1_565 S
C56 C48 1.574 . S
C56 H51 0.949 . S
C56 C62 1.368 1_655 S
C57 C41 1.349 1_565 S
C57 H49 0.950 . S
C57 C55 1.327 . S
C58 C46 1.349 1_655 S
C58 H52 0.950 . S
C58 C59 1.327 . S
C59 H53 0.950 . S
C59 C58 1.327 . S
C59 C63 1.429 1_655 S
C60 C43 1.574 . S
C60 H54 0.949 . S
C60 C64 1.368 1_565 S
C61 C42 1.429 1_455 S
C61 C55 1.429 1_545 S
C61 C62 1.523 . S
C62 C43 1.368 1_545 S
C62 C56 1.368 1_455 S
C62 C61 1.523 . S
C63 C47 1.429 1_545 S
C63 C59 1.429 1_455 S
C63 C64 1.523 . S
C64 C48 1.368 1_455 S
C64 C60 1.368 1_545 S
C64 C63 1.523 . S
H65 C40 0.950 . S
H66 C42 0.950 . S
H67 C43 0.949 . S
H68 C45 0.950 . S
H69 C47 0.950 . S
C70 C71 1.349 1_565 S
C70 C72 1.327 . S
C70 H95 0.950 . S
C71 C70 1.349 1_545 S
C71 C87 1.349 1_554 S
C72 C70 1.327 . S
C72 C91 1.429 1_565 S
C72 H96 0.950 . S
C73 C90 1.574 . S
C73 C92 1.368 1_556 S
C73 H97 0.949 . S
H74 C78 0.949 . S
C75 C76 1.349 1_556 S
C75 C77 1.327 . S
C75 H98 0.950 . S
C76 C75 1.349 1_554 S
C76 C88 1.349 1_545 S
C77 C75 1.327 . S
C77 C93 1.429 1_556 S
C77 H99 0.950 . S
C78 H74 0.949 . S
C78 C86 1.574 . S
C78 C94 1.368 1_565 S
H79 C87 0.950 . S
H80 C85 0.950 . S
H81 C86 0.949 . S
H82 C88 0.950 . S
H83 C89 0.950 . S
H84 C90 0.949 . S
C85 H80 0.950 . S
C85 C87 1.327 . S
C85 C91 1.429 1_556 S
C86 C78 1.574 . S
C86 H81 0.949 . S
C86 C92 1.368 1_565 S
C87 C71 1.349 1_556 S
C87 H79 0.950 . S
C87 C85 1.327 . S
C88 C76 1.349 1_565 S
C88 H82 0.950 . S
C88 C89 1.327 . S
C89 H83 0.950 . S
C89 C88 1.327 . S
C89 C93 1.429 1_565 S
C90 C73 1.574 . S
C90 H84 0.949 . S
C90 C94 1.368 1_556 S
C91 C72 1.429 1_545 S
C91 C85 1.429 1_554 S
C91 C92 1.523 . S
C92 C73 1.368 1_554 S
C92 C86 1.368 1_545 S
C92 C91 1.523 . S
C93 C77 1.429 1_554 S
C93 C89 1.429 1_545 S
C93 C94 1.523 . S
C94 C78 1.368 1_545 S
C94 C90 1.368 1_554 S
C94 C93 1.523 . S
H95 C70 0.950 . S
H96 C72 0.950 . S
H97 C73 0.949 . S
H98 C75 0.950 . S
H99 C77 0.950 . S
C100 C101 1.349 1_655 S
C100 C102 1.327 . S
C100 H125 0.950 . S
C101 C100 1.349 1_455 S
C101 C117 1.349 1_554 S
C102 C100 1.327 . S
C102 C121 1.429 1_655 S
C102 H126 0.950 . S
C103 C120 1.574 . S
C103 C122 1.368 1_556 S
C103 H127 0.949 . S
H104 C108 0.949 . S
C105 C106 1.349 1_556 S
C105 C107 1.327 . S
C105 H128 0.950 . S
C106 C105 1.349 1_554 S
C106 C118 1.349 1_455 S
C107 C105 1.327 . S
C107 C123 1.429 1_556 S
C107 H129 0.950 . S
C108 H104 0.949 . S
C108 C116 1.574 . S
C108 C124 1.368 1_655 S
H109 C117 0.950 . S
H110 C115 0.950 . S
H111 C116 0.949 . S
H112 C118 0.950 . S
H113 C119 0.950 . S
H114 C120 0.949 . S
C115 H110 0.950 . S
C115 C117 1.327 . S
C115 C121 1.429 1_556 S
C116 C108 1.574 . S
C116 H111 0.949 . S
C116 C122 1.368 1_655 S
C117 C101 1.349 1_556 S
C117 H109 0.950 . S
C117 C115 1.327 . S
C118 C106 1.349 1_655 S
C118 H112 0.950 . S
C118 C119 1.327 . S
C119 H113 0.950 . S
C119 C118 1.327 . S
C119 C123 1.429 1_655 S
C120 C103 1.574 . S
C120 H114 0.949 . S
C120 C124 1.368 1_556 S
C121 C102 1.429 1_455 S
C121 C115 1.429 1_554 S
C121 C122 1.523 . S
C122 C103 1.368 1_554 S
C122 C116 1.368 1_455 S
C122 C121 1.523 . S
C123 C107 1.429 1_554 S
C123 C119 1.429 1_455 S
C123 C124 1.523 . S
C124 C108 1.368 1_455 S
C124 C120 1.368 1_554 S
C124 C123 1.523 . S
H125 C100 0.950 . S
H126 C102 0.950 . S
H127 C103 0.949 . S
H128 C105 0.950 . S
H129 C107 0.950 . S
C41 C23 1.467 . S
C46 C2 1.467 1_445 S
C71 C17 1.498 1_544 S
C76 C26 1.498 . S
C101 C24 1.496 1_455 S
C106 C13 1.493 1_554 S
