# Generated by pormake.
# Topology pcu, (6)-cn, num edge types: 1
# Building blocks:
#     Node 0, Type 0, BuildingBlock: NUHQIS_clean_sbu_0, # of connection points: 6
#     Edge 1, Type (0, 0), None
#     Edge 2, Type (0, 0), None
#     Edge 3, Type (0, 0), None
# Relax obj value: 0.000
# Max RMSD: 0.000
# Mean RMSD: 0.000
data_MOF--net-pcu--node1-NUHQIS_clean_sbu_0--edge1-none
_symmetry_space_group_name_H-M    P1
_symmetry_Int_Tables_number       1
_symmetry_cell_setting            triclinic
loop_
_symmetry_equiv_pos_as_xyz
'x, y, z'
_cell_length_a     16.911548
_cell_length_b     6.9195559
_cell_length_c     6.7154466
_cell_angle_alpha  86.723951
_cell_angle_beta   98.049444
_cell_angle_gamma 118.17738
loop_
_atom_site_label
_atom_site_type_symbol
_atom_site_fract_x
_atom_site_fract_y
_atom_site_fract_z
_atom_type_partial_charge
Tb0 Tb 0.93232 0.84336 0.95407 0.0
Eu1 Eu 0.16446 0.09912 0.01877 0.0
C2 C 1.04592 0.96164 0.58423 0.0
C3 C 1.04597 0.57333 0.98499 0.0
C4 C 0.69621 0.7402 0.93673 0.0
C5 C 0.57302 0.81516 0.79737 0.0
C6 C 0.6306 0.72659 0.77734 0.0
C7 C 0.70219 0.84024 0.11853 0.0
C8 C 0.64402 0.92714 0.13935 0.0
C9 C 0.57929 0.91785 0.97827 0.0
C10 C 0.76155 0.66386 0.90475 0.0
O11 O 0.97217 0.93607 0.27044 0.0
O12 O 0.12049 -0.00113 0.32265 0.0
O13 O 0.12356 0.36507 -7e-05 0.0
O14 O 0.96639 0.18518 0.97556 0.0
C15 C 1.04568 0.96402 0.38788 0.0
O16 O 0.29215 0.19089 0.21181 0.0
O17 O 0.29339 0.30448 0.90522 0.0
O18 O 0.12069 -0.0065 0.69693 0.0
O19 O 0.97247 0.93072 0.65474 0.0
O20 O 0.96839 0.57802 0.96831 0.0
O21 O 0.12563 0.74588 -7e-05 0.0
C22 C 1.04488 0.36256 0.9864 0.0
O23 O 0.81143 0.76407 0.76338 0.0
O24 O 0.80896 0.63594 0.06346 0.0
C25 C 0.40326 0.19724 0.03602 0.0
C26 C 0.51876 0.01525 -0.00189 0.0
C27 C 0.55065 0.21161 0.1075 0.0
C28 C 0.49319 0.30126 0.12677 0.0
C29 C 0.37112 0.00216 0.92646 0.0
C30 C 0.42821 0.91206 0.90766 0.0
C31 C 0.34108 0.28246 0.06673 0.0
H32 H 0.52507 0.80755 0.66902 0.0
H33 H 0.62531 0.65187 0.63521 0.0
H34 H 0.75241 0.85379 0.244 0.0
H35 H 0.64964 0.00081 0.28212 0.0
H36 H 0.62015 0.29703 0.17737 0.0
H37 H 0.51867 0.45042 0.21409 0.0
H38 H 0.30131 0.91753 0.85793 0.0
H39 H 0.40071 0.75911 0.82538 0.0
loop_
_geom_bond_atom_site_label_1
_geom_bond_atom_site_label_2
_geom_bond_distance
_geom_bond_site_symmetry_2
_ccdc_geom_bond_type
Tb0 C10 2.825 . S
Tb0 O11 2.347 1_556 S
Tb0 O14 2.366 1_565 S
Tb0 O19 2.418 . S
Tb0 O20 2.384 . S
Tb0 O23 2.479 . S
Tb0 O24 2.471 1_556 S
Eu1 O12 2.418 . S
Eu1 O13 2.384 . S
Eu1 O16 2.479 . S
Eu1 O17 2.471 1_554 S
Eu1 O18 2.347 1_554 S
Eu1 O21 2.366 1_545 S
Eu1 C31 2.825 . S
C2 O18 1.259 1_665 S
C2 O19 1.265 . S
C3 O20 1.255 1_554 S
C3 O21 1.265 1_655 S
C4 C6 1.380 . S
C4 C7 1.374 1_566 S
C4 C10 1.507 . S
C5 C6 1.384 . S
C5 C9 1.387 . S
C5 H32 0.930 . S
C6 C4 1.380 . S
C6 C5 1.384 . S
C6 H33 0.931 . S
C7 C4 1.374 1_544 S
C7 C8 1.390 . S
C7 H34 0.930 . S
C8 C7 1.390 . S
C8 C9 1.391 1_544 S
C8 H35 0.930 . S
C9 C5 1.387 . S
C9 C8 1.391 1_566 S
C10 Tb0 2.825 . S
C10 C4 1.507 . S
C10 O23 1.238 . S
C10 O24 1.247 1_556 S
O11 Tb0 2.347 1_554 S
O11 C15 1.259 1_665 S
O12 Eu1 2.418 . S
O12 C15 1.265 . S
O13 Eu1 2.384 . S
O13 C22 1.255 1_554 S
O14 Tb0 2.366 1_545 S
O14 C22 1.264 1_655 S
C15 O11 1.259 1_445 S
C15 O12 1.265 . S
O16 Eu1 2.479 . S
O16 C31 1.238 . S
O17 Eu1 2.471 1_556 S
O17 C31 1.247 1_556 S
O18 Eu1 2.347 1_556 S
O18 C2 1.259 1_445 S
O19 Tb0 2.418 . S
O19 C2 1.265 . S
O20 Tb0 2.384 . S
O20 C3 1.255 1_556 S
O21 Eu1 2.366 1_565 S
O21 C3 1.265 1_455 S
C22 O13 1.255 1_556 S
C22 O14 1.264 1_455 S
O23 Tb0 2.479 . S
O23 C10 1.238 . S
O24 Tb0 2.471 1_554 S
O24 C10 1.247 1_554 S
C25 C28 1.380 . S
C25 C29 1.374 1_544 S
C25 C31 1.507 . S
C26 C27 1.387 . S
C26 C30 1.391 1_544 S
C27 C26 1.387 . S
C27 C28 1.384 . S
C27 H36 0.930 . S
C28 C25 1.380 . S
C28 C27 1.384 . S
C28 H37 0.931 . S
C29 C25 1.374 1_566 S
C29 C30 1.390 . S
C29 H38 0.930 . S
C30 C26 1.391 1_566 S
C30 C29 1.390 . S
C30 H39 0.930 . S
C31 Eu1 2.825 . S
C31 O16 1.238 . S
C31 O17 1.247 1_554 S
C31 C25 1.507 . S
H32 C5 0.930 . S
H33 C6 0.931 . S
H34 C7 0.930 . S
H35 C8 0.930 . S
H36 C27 0.930 . S
H37 C28 0.931 . S
H38 C29 0.930 . S
H39 C30 0.930 . S
C15 C2 1.500 1_445 S
C26 C9 1.500 1_544 S
C3 C22 1.500 1_654 S
