# Generated by pormake.
# Topology lon, (4)-cn, num edge types: 1
# Building blocks:
#     Node 0, Type 0, BuildingBlock: CEKHIL_clean_sbu_0, # of connection points: 4
#     Node 1, Type 0, BuildingBlock: CEKHIL_clean_sbu_0, # of connection points: 4
#     Node 2, Type 0, BuildingBlock: CEKHIL_clean_sbu_0, # of connection points: 4
#     Node 3, Type 0, BuildingBlock: CEKHIL_clean_sbu_0, # of connection points: 4
#     Edge 4, Type (0, 0), BuildingBlock: OJICUG_clean_linker_0, # of connection points: 2
#     Edge 5, Type (0, 0), BuildingBlock: OJICUG_clean_linker_0, # of connection points: 2
#     Edge 6, Type (0, 0), BuildingBlock: OJICUG_clean_linker_0, # of connection points: 2
#     Edge 7, Type (0, 0), BuildingBlock: OJICUG_clean_linker_0, # of connection points: 2
#     Edge 8, Type (0, 0), BuildingBlock: OJICUG_clean_linker_0, # of connection points: 2
#     Edge 9, Type (0, 0), BuildingBlock: OJICUG_clean_linker_0, # of connection points: 2
#     Edge 10, Type (0, 0), BuildingBlock: OJICUG_clean_linker_0, # of connection points: 2
#     Edge 11, Type (0, 0), BuildingBlock: OJICUG_clean_linker_0, # of connection points: 2
# Relax obj value: 0.141
# Max RMSD: 0.174
# Mean RMSD: 0.173
data_MOF--net-lon--node1-CEKHIL_clean_sbu_0--edge1-OJICUG_clean_linker_0
_symmetry_space_group_name_H-M    P1
_symmetry_Int_Tables_number       1
_symmetry_cell_setting            triclinic
loop_
_symmetry_equiv_pos_as_xyz
'x, y, z'
_cell_length_a     16.344423
_cell_length_b     17.846906
_cell_length_c     29.219164
_cell_angle_alpha  91.300657
_cell_angle_beta   89.974431
_cell_angle_gamma 117.19162
loop_
_atom_site_label
_atom_site_type_symbol
_atom_site_fract_x
_atom_site_fract_y
_atom_site_fract_z
_atom_type_partial_charge
Co0 Co 0.38681 0.71743 0.09594 0.0
O1 O 0.33926 0.75732 0.1474 0.0
O2 O 0.4002 0.67004 0.15232 0.0
C3 C 0.46667 0.84551 0.06436 0.0
O4 O 0.44828 0.66358 0.05555 0.0
Co5 Co 0.35942 0.73049 0.99278 0.0
O6 O 0.44654 0.68349 0.98039 0.0
C7 C 0.20864 0.60089 0.04691 0.0
C8 C 0.36507 0.71325 0.17323 0.0
C9 C 0.47088 0.65474 1.01434 0.0
O10 O 0.26024 0.6193 0.08312 0.0
O11 O 0.23458 0.64167 1.00978 0.0
O12 O 0.50177 0.82352 0.0983 0.0
O13 O 0.38506 0.79154 0.05129 0.0
Co14 Co 0.65584 0.34009 0.59669 0.0
O15 O 0.57394 0.29176 0.64841 0.0
O16 O 0.72405 0.33678 0.64972 0.0
C17 C 0.59488 0.42614 0.57667 0.0
O18 O 0.76705 0.39754 0.55518 0.0
Co19 Co 0.60011 0.33598 0.49487 0.0
O20 O 0.7319 0.40472 0.4818 0.0
C21 C 0.60042 0.18483 0.53527 0.0
C22 C 0.64755 0.30692 0.67211 0.0
C23 C 0.79058 0.41944 0.51367 0.0
O24 O 0.63505 0.22459 0.57355 0.0
O25 O 0.57738 0.21717 0.50214 0.0
O26 O 0.65468 0.44775 0.60999 0.0
O27 O 0.572 0.35346 0.55752 0.0
Co28 Co 0.32243 0.67384 0.44758 0.0
O29 O 0.28896 0.72253 0.39598 0.0
O30 O 0.39408 0.67743 0.39451 0.0
C31 C 0.17552 0.58772 0.46749 0.0
O32 O 0.3761 0.61611 0.48897 0.0
Co33 Co 0.27047 0.67761 0.5494 0.0
O34 O 0.33364 0.60882 0.56236 0.0
C35 C 0.42196 0.82881 0.50922 0.0
C36 C 0.3475 0.7075 0.37222 0.0
C37 C 0.37768 0.59414 0.53048 0.0
O38 O 0.41693 0.78917 0.47088 0.0
O39 O 0.3665 0.7964 0.54231 0.0
O40 O 0.21383 0.56628 0.43411 0.0
O41 O 0.22514 0.66031 0.48674 0.0
Co42 Co 0.67792 0.29882 0.94841 0.0
O43 O 0.59045 0.25872 0.89704 0.0
O44 O 0.73846 0.34603 0.89194 0.0
C45 C 0.63006 0.17085 0.98006 0.0
O46 O 0.79319 0.35283 0.98872 0.0
Co47 Co 0.6376 0.28605 0.05156 0.0
O48 O 0.77161 0.33302 0.06389 0.0
C49 C 0.61616 0.41555 0.99739 0.0
C50 C 0.66015 0.30269 0.87112 0.0
C51 C 0.82464 0.36174 0.02992 0.0
O52 O 0.64926 0.39697 0.96117 0.0
O53 O 0.60148 0.37491 0.03456 0.0
O54 O 0.6871 0.1928 0.9461 0.0
O55 O 0.60223 0.22478 0.99313 0.0
C56 C 0.40846 0.68139 0.24968 0.0
C57 C 0.36029 0.71466 0.22417 0.0
H58 H 0.44372 0.65485 0.31559 0.0
C59 C 0.3101 0.74937 0.24795 0.0
H60 H 0.44848 0.65474 0.23271 0.0
C61 C 0.30677 0.74888 0.29617 0.0
C62 C 0.35478 0.71491 0.32148 0.0
H63 H 0.27246 0.77575 0.22934 0.0
H64 H 0.26606 0.77435 0.31355 0.0
C65 C 0.40623 0.682 0.29748 0.0
C66 C 0.56583 0.2661 0.7483 0.0
C67 C 0.64763 0.29994 0.72287 0.0
H68 H 0.50498 0.23968 0.81522 0.0
C69 C 0.73204 0.33315 0.74677 0.0
H70 H 0.49964 0.24041 0.731 0.0
C71 C 0.73506 0.33415 0.79456 0.0
C72 C 0.6538 0.30098 0.82019 0.0
H73 H 0.79653 0.36022 0.72856 0.0
H74 H 0.80175 0.361 0.81145 0.0
C75 C 0.56888 0.266 0.79652 0.0
C76 C 0.52364 0.56797 0.96378 0.0
C77 C 0.52117 0.604 1.00693 0.0
H78 H 0.55642 0.47971 0.92643 0.0
C79 C 0.56069 0.58501 0.04474 0.0
H80 H 0.49393 0.58145 0.9339 0.0
C81 C 0.59598 0.5275 0.04043 0.0
C82 C 0.59309 0.48697 0.99818 0.0
H83 H 0.56158 0.61238 0.07833 0.0
H84 H 0.6229 0.51255 0.07088 0.0
C85 C 0.55953 0.50988 0.95942 0.0
C86 C 0.04946 0.54749 0.52435 0.0
C87 C 0.07829 0.53773 0.48027 0.0
H88 H 0.936 0.51701 0.56963 0.0
C89 C 1.01219 0.48697 0.44756 0.0
H90 H 0.09908 0.58648 0.5502 0.0
C91 C 0.91853 0.44921 0.45828 0.0
C92 C 0.88956 0.4599 0.50224 0.0
H93 H 0.03254 0.47908 0.41321 0.0
H94 H 0.86878 0.41142 0.43218 0.0
C95 C 0.95616 0.50804 0.53543 0.0
C96 C 0.64602 0.04771 1.01205 0.0
C97 C 0.59139 0.08694 1.00074 0.0
H98 H 0.64981 0.94062 0.04293 0.0
C99 C 0.49734 0.04662 1.01087 0.0
H100 H 0.71893 0.07805 1.00482 0.0
C101 C 0.45792 0.96814 0.03119 0.0
C102 C 0.5121 0.9292 0.04339 0.0
H103 H 0.45372 0.07548 1.0025 0.0
H104 H 0.3848 0.93831 0.03802 0.0
C105 C 0.60681 0.96979 0.03407 0.0
C106 C 0.53206 0.5269 0.59655 0.0
C107 C 0.54748 0.47604 0.56387 0.0
H108 H 0.46401 0.60245 0.6119 0.0
C109 C 0.50881 0.4661 0.51981 0.0
H110 H 0.56036 0.53493 0.63087 0.0
C111 C 0.45482 0.50547 0.50873 0.0
C112 C 0.43629 0.55371 0.54189 0.0
H113 H 0.51949 0.42702 0.49399 0.0
H114 H 0.42564 0.49637 0.47455 0.0
C115 C 0.47602 0.56458 0.58583 0.0
C116 C 0.07673 0.48918 1.00379 0.0
C117 C 0.11428 0.5295 0.04607 0.0
H118 H 0.95764 0.4045 0.96585 0.0
C119 C 0.05783 0.50642 0.08485 0.0
H120 H 0.11857 0.50427 0.97333 0.0
C121 C 0.96397 0.44836 0.08047 0.0
C122 C 0.92556 0.41252 0.0373 0.0
H123 H 0.08482 0.53642 0.11786 0.0
H124 H 0.9208 0.43473 0.11038 0.0
C125 C 0.98405 0.4317 0.99947 0.0
C126 C 0.56424 0.0587 0.48463 0.0
C127 C 0.57774 0.09494 0.52915 0.0
H128 H 0.50523 0.94538 0.44319 0.0
C129 C 0.55558 0.04225 0.5668 0.0
H130 H 0.58223 0.09796 0.45484 0.0
C131 C 0.51143 0.95481 0.55999 0.0
C132 C 0.48924 0.91861 0.51545 0.0
H133 H 0.56564 0.06818 0.60142 0.0
H134 H 0.48953 0.91559 0.58977 0.0
C135 C 0.52062 0.97127 0.47782 0.0
loop_
_geom_bond_atom_site_label_1
_geom_bond_atom_site_label_2
_geom_bond_distance
_geom_bond_site_symmetry_2
_ccdc_geom_bond_type
Co0 O1 2.216 . S
Co0 O2 2.091 . S
Co0 O4 2.004 . S
Co0 O10 2.021 . S
Co0 O12 2.137 . S
Co0 O13 2.244 . S
O1 Co0 2.216 . S
O1 C8 1.247 . S
O2 Co0 2.091 . S
O2 C8 1.261 . S
C3 O12 1.247 . S
C3 O13 1.272 . S
O4 Co0 2.004 . S
O4 C9 1.259 . S
Co5 O6 2.061 . S
Co5 O11 2.052 1_556 S
Co5 O13 2.135 1_556 S
O6 Co5 2.061 . S
O6 C9 1.235 1_556 S
C7 O10 1.238 . S
C7 O11 1.242 . S
C8 O1 1.247 . S
C8 O2 1.261 . S
C9 O4 1.259 . S
C9 O6 1.235 1_554 S
O10 Co0 2.021 . S
O10 C7 1.238 . S
O11 Co5 2.052 1_554 S
O11 C7 1.242 . S
O12 Co0 2.137 . S
O12 C3 1.247 . S
O13 Co0 2.244 . S
O13 C3 1.272 . S
O13 Co5 2.135 1_554 S
Co14 O15 2.216 . S
Co14 O16 2.091 . S
Co14 O18 2.004 . S
Co14 O24 2.021 . S
Co14 O26 2.137 . S
Co14 O27 2.244 . S
O15 Co14 2.216 . S
O15 C22 1.247 . S
O16 Co14 2.091 . S
O16 C22 1.261 . S
C17 O26 1.247 . S
C17 O27 1.272 . S
O18 Co14 2.004 . S
O18 C23 1.259 . S
Co19 O20 2.061 . S
Co19 O25 2.052 . S
Co19 O27 2.135 . S
O20 Co19 2.061 . S
O20 C23 1.235 . S
C21 O24 1.238 . S
C21 O25 1.241 . S
C22 O15 1.247 . S
C22 O16 1.261 . S
C23 O18 1.259 . S
C23 O20 1.235 . S
O24 Co14 2.021 . S
O24 C21 1.238 . S
O25 Co19 2.052 . S
O25 C21 1.241 . S
O26 Co14 2.137 . S
O26 C17 1.247 . S
O27 Co14 2.244 . S
O27 C17 1.272 . S
O27 Co19 2.135 . S
Co28 O29 2.216 . S
Co28 O30 2.091 . S
Co28 O32 2.004 . S
Co28 O38 2.021 . S
Co28 O40 2.137 . S
Co28 O41 2.244 . S
O29 Co28 2.216 . S
O29 C36 1.247 . S
O30 Co28 2.091 . S
O30 C36 1.261 . S
C31 O40 1.247 . S
C31 O41 1.272 . S
O32 Co28 2.004 . S
O32 C37 1.259 . S
Co33 O34 2.061 . S
Co33 O39 2.052 . S
Co33 O41 2.135 . S
O34 Co33 2.061 . S
O34 C37 1.235 . S
C35 O38 1.238 . S
C35 O39 1.241 . S
C36 O29 1.247 . S
C36 O30 1.261 . S
C37 O32 1.259 . S
C37 O34 1.235 . S
O38 Co28 2.021 . S
O38 C35 1.238 . S
O39 Co33 2.052 . S
O39 C35 1.241 . S
O40 Co28 2.137 . S
O40 C31 1.247 . S
O41 Co28 2.244 . S
O41 C31 1.272 . S
O41 Co33 2.135 . S
Co42 O43 2.216 . S
Co42 O44 2.091 . S
Co42 O46 2.004 . S
Co42 O52 2.021 . S
Co42 O54 2.137 . S
Co42 O55 2.244 . S
O43 Co42 2.216 . S
O43 C50 1.247 . S
O44 Co42 2.091 . S
O44 C50 1.261 . S
C45 O54 1.247 . S
C45 O55 1.272 . S
O46 Co42 2.004 . S
O46 C51 1.259 . S
Co47 O48 2.061 . S
Co47 O53 2.052 1_554 S
Co47 O55 2.135 1_554 S
O48 Co47 2.061 . S
O48 C51 1.235 1_554 S
C49 O52 1.238 . S
C49 O53 1.242 . S
C50 O43 1.247 . S
C50 O44 1.261 . S
C51 O46 1.259 . S
C51 O48 1.235 1_556 S
O52 Co42 2.021 . S
O52 C49 1.238 . S
O53 Co47 2.052 1_556 S
O53 C49 1.242 . S
O54 Co42 2.137 . S
O54 C45 1.247 . S
O55 Co42 2.244 . S
O55 C45 1.272 . S
O55 Co47 2.135 1_556 S
C56 C57 1.387 . S
C56 H60 0.950 . S
C56 C65 1.390 . S
C57 C56 1.387 . S
C57 C59 1.387 . S
H58 C65 0.950 . S
C59 C57 1.387 . S
C59 C61 1.390 . S
C59 H63 0.950 . S
H60 C56 0.950 . S
C61 C59 1.390 . S
C61 C62 1.387 . S
C61 H64 0.950 . S
C62 C61 1.387 . S
C62 C65 1.387 . S
H63 C59 0.950 . S
H64 C61 0.950 . S
C65 C56 1.390 . S
C65 H58 0.950 . S
C65 C62 1.387 . S
C66 C67 1.387 . S
C66 H70 0.950 . S
C66 C75 1.390 . S
C67 C66 1.387 . S
C67 C69 1.387 . S
H68 C75 0.950 . S
C69 C67 1.387 . S
C69 C71 1.390 . S
C69 H73 0.950 . S
H70 C66 0.950 . S
C71 C69 1.390 . S
C71 C72 1.387 . S
C71 H74 0.950 . S
C72 C71 1.387 . S
C72 C75 1.387 . S
H73 C69 0.950 . S
H74 C71 0.950 . S
C75 C66 1.390 . S
C75 H68 0.950 . S
C75 C72 1.387 . S
C76 C77 1.387 . S
C76 H80 0.950 . S
C76 C85 1.390 . S
C77 C76 1.387 . S
C77 C79 1.387 1_556 S
H78 C85 0.950 . S
C79 C77 1.387 1_554 S
C79 C81 1.390 . S
C79 H83 0.950 . S
H80 C76 0.950 . S
C81 C79 1.390 . S
C81 C82 1.387 1_554 S
C81 H84 0.950 . S
C82 C81 1.387 1_556 S
C82 C85 1.387 . S
H83 C79 0.950 . S
H84 C81 0.950 . S
C85 C76 1.390 . S
C85 H78 0.950 . S
C85 C82 1.387 . S
C86 C87 1.387 . S
C86 H90 0.950 . S
C86 C95 1.390 1_455 S
C87 C86 1.387 . S
C87 C89 1.387 . S
H88 C95 0.950 . S
C89 C87 1.387 . S
C89 C91 1.390 1_455 S
C89 H93 0.950 . S
H90 C86 0.950 . S
C91 C89 1.390 1_655 S
C91 C92 1.387 . S
C91 H94 0.950 . S
C92 C91 1.387 . S
C92 C95 1.387 . S
H93 C89 0.950 . S
H94 C91 0.950 . S
C95 C86 1.390 1_655 S
C95 H88 0.950 . S
C95 C92 1.387 . S
C96 C97 1.387 . S
C96 H100 0.950 . S
C96 C105 1.390 1_546 S
C97 C96 1.387 . S
C97 C99 1.387 . S
H98 C105 0.950 . S
C99 C97 1.387 . S
C99 C101 1.390 1_546 S
C99 H103 0.950 . S
H100 C96 0.950 . S
C101 C99 1.390 1_564 S
C101 C102 1.387 . S
C101 H104 0.950 . S
C102 C101 1.387 . S
C102 C105 1.387 . S
H103 C99 0.950 . S
H104 C101 0.950 . S
C105 C96 1.390 1_564 S
C105 H98 0.950 . S
C105 C102 1.387 . S
C106 C107 1.387 . S
C106 H110 0.950 . S
C106 C115 1.390 . S
C107 C106 1.387 . S
C107 C109 1.387 . S
H108 C115 0.950 . S
C109 C107 1.387 . S
C109 C111 1.390 . S
C109 H113 0.950 . S
H110 C106 0.950 . S
C111 C109 1.390 . S
C111 C112 1.387 . S
C111 H114 0.950 . S
C112 C111 1.387 . S
C112 C115 1.387 . S
H113 C109 0.950 . S
H114 C111 0.950 . S
C115 C106 1.390 . S
C115 H108 0.950 . S
C115 C112 1.387 . S
C116 C117 1.387 1_556 S
C116 H120 0.950 . S
C116 C125 1.390 1_455 S
C117 C116 1.387 1_554 S
C117 C119 1.387 . S
H118 C125 0.950 . S
C119 C117 1.387 . S
C119 C121 1.390 1_455 S
C119 H123 0.950 . S
H120 C116 0.950 . S
C121 C119 1.390 1_655 S
C121 C122 1.387 . S
C121 H124 0.950 . S
C122 C121 1.387 . S
C122 C125 1.387 1_554 S
H123 C119 0.950 . S
H124 C121 0.950 . S
C125 C116 1.390 1_655 S
C125 H118 0.950 . S
C125 C122 1.387 1_556 S
C126 C127 1.387 . S
C126 H130 0.950 . S
C126 C135 1.390 1_545 S
C127 C126 1.387 . S
C127 C129 1.387 . S
H128 C135 0.950 . S
C129 C127 1.387 . S
C129 C131 1.390 1_545 S
C129 H133 0.950 . S
H130 C126 0.950 . S
C131 C129 1.390 1_565 S
C131 C132 1.387 . S
C131 H134 0.950 . S
C132 C131 1.387 . S
C132 C135 1.387 . S
H133 C129 0.950 . S
H134 C131 0.950 . S
C135 C126 1.390 1_565 S
C135 H128 0.950 . S
C135 C132 1.387 . S
C57 C8 1.569 . S
C62 C36 1.566 . S
C67 C22 1.567 . S
C72 C50 1.567 . S
C77 C9 1.548 1_556 S
C82 C49 1.515 . S
C87 C31 1.566 . S
C92 C23 1.563 . S
C97 C45 1.584 . S
C102 C3 1.584 . S
C107 C17 1.566 . S
C112 C37 1.563 . S
C117 C7 1.515 . S
C122 C51 1.549 1_554 S
C127 C21 1.469 . S
C132 C35 1.469 . S
