# Generated by pormake.
# Topology crr, (4)-cn, num edge types: 1
# Building blocks:
#     Node 0, Type 0, BuildingBlock: NAWXER_clean_sbu_0, # of connection points: 4
#     Node 1, Type 0, BuildingBlock: NAWXER_clean_sbu_0, # of connection points: 4
#     Node 2, Type 0, BuildingBlock: NAWXER_clean_sbu_0, # of connection points: 4
#     Node 3, Type 0, BuildingBlock: NAWXER_clean_sbu_0, # of connection points: 4
#     Node 4, Type 0, BuildingBlock: NAWXER_clean_sbu_0, # of connection points: 4
#     Node 5, Type 0, BuildingBlock: NAWXER_clean_sbu_0, # of connection points: 4
#     Node 6, Type 0, BuildingBlock: NAWXER_clean_sbu_0, # of connection points: 4
#     Node 7, Type 0, BuildingBlock: NAWXER_clean_sbu_0, # of connection points: 4
#     Node 8, Type 0, BuildingBlock: NAWXER_clean_sbu_0, # of connection points: 4
#     Node 9, Type 0, BuildingBlock: NAWXER_clean_sbu_0, # of connection points: 4
#     Node 10, Type 0, BuildingBlock: NAWXER_clean_sbu_0, # of connection points: 4
#     Node 11, Type 0, BuildingBlock: NAWXER_clean_sbu_0, # of connection points: 4
#     Edge 12, Type (0, 0), None
#     Edge 13, Type (0, 0), None
#     Edge 14, Type (0, 0), None
#     Edge 15, Type (0, 0), None
#     Edge 16, Type (0, 0), None
#     Edge 17, Type (0, 0), None
#     Edge 18, Type (0, 0), None
#     Edge 19, Type (0, 0), None
#     Edge 20, Type (0, 0), None
#     Edge 21, Type (0, 0), None
#     Edge 22, Type (0, 0), None
#     Edge 23, Type (0, 0), None
#     Edge 24, Type (0, 0), None
#     Edge 25, Type (0, 0), None
#     Edge 26, Type (0, 0), None
#     Edge 27, Type (0, 0), None
#     Edge 28, Type (0, 0), None
#     Edge 29, Type (0, 0), None
#     Edge 30, Type (0, 0), None
#     Edge 31, Type (0, 0), None
#     Edge 32, Type (0, 0), None
#     Edge 33, Type (0, 0), None
#     Edge 34, Type (0, 0), None
#     Edge 35, Type (0, 0), None
# Relax obj value: 0.065
# Max RMSD: 0.110
# Mean RMSD: 0.110
data_MOF--net-crr--node1-NAWXER_clean_sbu_0--edge1-none
_symmetry_space_group_name_H-M    P1
_symmetry_Int_Tables_number       1
_symmetry_cell_setting            triclinic
loop_
_symmetry_equiv_pos_as_xyz
'x, y, z'
_cell_length_a     17.61314
_cell_length_b     17.21359
_cell_length_c     17.393875
_cell_angle_alpha  92.005089
_cell_angle_beta   90.300967
_cell_angle_gamma 88.202914
loop_
_atom_site_label
_atom_site_type_symbol
_atom_site_fract_x
_atom_site_fract_y
_atom_site_fract_z
_atom_type_partial_charge
C0 C 0.95086 0.34628 0.39219 0.0
C1 C 0.14143 0.37575 0.19514 0.0
O2 O 0.01315 0.37706 0.40991 0.0
Zn3 Zn 0.1121 0.41357 0.37072 0.0
O4 O 0.93524 0.32628 0.32255 0.0
Zn5 Zn 0.0338 0.36078 0.28192 0.0
O6 O 0.10974 0.27886 0.33459 0.0
O7 O 0.18052 0.34164 0.42036 0.0
O8 O 0.07741 0.34844 0.17508 0.0
O9 O 0.15217 0.40135 0.26344 0.0
O10 O 0.10289 0.52522 0.39147 0.0
O11 O 0.01866 0.48416 0.30606 0.0
C12 C 0.16277 0.27838 0.38503 0.0
C13 C 0.04626 0.53956 0.34781 0.0
C14 C 0.36843 0.86782 0.81508 0.0
C15 C 0.34921 0.0254 0.58465 0.0
O16 O 0.33519 0.93453 0.81371 0.0
Zn17 Zn 0.34672 0.94337 0.70078 0.0
O18 O 0.39459 0.83572 0.75254 0.0
Zn19 Zn 0.40654 0.85438 0.63227 0.0
O20 O 0.51818 0.8526 0.62378 0.0
O21 O 0.46783 0.95146 0.69236 0.0
O22 O 0.3792 0.9576 0.5709 0.0
O23 O 0.31848 0.04112 0.64962 0.0
O24 O 0.2748 0.84937 0.65732 0.0
O25 O 0.34685 0.7705 0.58453 0.0
C26 C 0.52625 0.9158 0.66285 0.0
C27 C 0.28241 0.78703 0.61449 0.0
C28 C 0.99295 0.60345 0.36982 0.0
C29 C 0.78578 0.79917 0.41634 0.0
O30 O 0.99623 0.67201 0.34443 0.0
Zn31 Zn 0.90133 0.71263 0.39426 0.0
O32 O 0.93741 0.58522 0.41196 0.0
Zn33 Zn 0.83606 0.63067 0.46379 0.0
O34 O 0.75905 0.56675 0.40428 0.0
O35 O 0.82428 0.64525 0.33394 0.0
O36 O 0.77732 0.73578 0.45016 0.0
O37 O 0.84836 0.81181 0.38276 0.0
O38 O 0.93493 0.71496 0.50732 0.0
O39 O 0.86798 0.63596 0.57414 0.0
C40 C 0.77341 0.59485 0.33884 0.0
C41 C 0.92051 0.68537 0.57128 0.0
C42 C 0.62041 0.18262 0.74379 0.0
C43 C 0.65477 0.0939 0.47218 0.0
O44 O 0.66562 0.12317 0.73669 0.0
Zn45 Zn 0.70641 0.04589 0.6451 0.0
O46 O 0.58302 0.20581 0.68537 0.0
Zn47 Zn 0.623 0.13626 0.60558 0.0
O48 O 0.57588 0.03278 0.63061 0.0
O49 O 0.66061 0.94377 0.66647 0.0
O50 O 0.60707 0.14716 0.49432 0.0
O51 O 0.68963 0.05355 0.52291 0.0
O52 O 0.81537 0.07502 0.65268 0.0
O53 O 0.73346 0.16573 0.61351 0.0
C54 C 0.59193 0.96426 0.65213 0.0
C55 C 0.80074 0.14406 0.63067 0.0
C56 C 0.19271 0.62065 0.8026 0.0
C57 C 0.98607 0.68097 0.62313 0.0
O58 O 0.20495 0.59638 0.73354 0.0
Zn59 Zn 0.1531 0.60201 0.6251 0.0
O60 O 0.13053 0.65688 0.81985 0.0
Zn61 Zn 0.08785 0.66007 0.71697 0.0
O62 O 0.05991 0.54259 0.69401 0.0
O63 O 0.13083 0.49265 0.59925 0.0
O64 O 0.98491 0.70313 0.69381 0.0
O65 O 0.04632 0.64959 0.5935 0.0
O66 O 0.22928 0.66446 0.57373 0.0
O67 O 0.17032 0.7334 0.66574 0.0
C68 C 0.0773 0.48598 0.64754 0.0
C69 C 0.22227 0.72756 0.61414 0.0
C70 C 0.47658 0.95727 0.29674 0.0
C71 C 0.71716 0.84466 0.39748 0.0
O72 O 0.48044 0.89694 0.33722 0.0
Zn73 Zn 0.59051 0.88752 0.34693 0.0
O74 O 0.53801 0.9847 0.27086 0.0
Zn75 Zn 0.65893 0.96814 0.27739 0.0
O76 O 0.69896 0.9147 0.17708 0.0
O77 O 0.62874 0.83983 0.24548 0.0
O78 O 0.72406 0.89704 0.34849 0.0
O79 O 0.65111 0.82179 0.41479 0.0
O80 O 0.61227 0.99029 0.40222 0.0
O81 O 0.68368 0.06733 0.33681 0.0
C82 C 0.67046 0.84842 0.18723 0.0
C83 C 0.64582 0.05385 0.39741 0.0
C84 C 0.78402 0.41799 0.69976 0.0
C85 C 0.90297 0.33753 0.45807 0.0
O86 O 0.77005 0.44458 0.63394 0.0
Zn87 Zn 0.85162 0.3868 0.57903 0.0
O88 O 0.84289 0.37277 0.70913 0.0
Zn89 Zn 0.93353 0.31577 0.6403 0.0
O90 O 0.03057 0.36018 0.6696 0.0
O91 O 0.95722 0.44239 0.60594 0.0
O92 O 0.93876 0.31163 0.51687 0.0
O93 O 0.84623 0.3841 0.46777 0.0
O94 O 0.82663 0.26911 0.59876 0.0
O95 O 0.91899 0.20533 0.65987 0.0
C96 C 0.02113 0.42511 0.63811 0.0
C97 C 0.85402 0.20657 0.62762 0.0
C98 C 0.4158 0.01544 0.31363 0.0
C99 C 0.21528 0.21069 0.38653 0.0
O100 O 0.43429 0.07245 0.35827 0.0
Zn101 Zn 0.38877 0.17186 0.41801 0.0
O102 O 0.34735 1.00961 0.29029 0.0
Zn103 Zn 0.30853 0.10504 0.34653 0.0
O104 O 0.36251 0.1954 0.28824 0.0
O105 O 0.43979 0.25854 0.36656 0.0
O106 O 0.20468 0.14971 0.34435 0.0
O107 O 0.28013 0.22178 0.41667 0.0
O108 O 0.39641 0.13921 0.52653 0.0
O109 O 0.31788 0.06559 0.45997 0.0
C110 C 0.40863 0.25058 0.30027 0.0
C111 C 0.35124 0.08256 0.52333 0.0
C112 C 0.32069 0.55075 0.11835 0.0
C113 C 0.4102 0.31141 0.24134 0.0
O114 O 0.36234 0.54968 0.17853 0.0
Zn115 Zn 0.38246 0.43551 0.17241 0.0
O116 O 0.30998 0.48699 0.08023 0.0
Zn117 Zn 0.32927 0.36451 0.08165 0.0
O118 O 0.21987 0.33839 0.08431 0.0
O119 O 0.26698 0.40541 0.18405 0.0
O120 O 0.37489 0.29891 0.17727 0.0
O121 O 0.43054 0.38005 0.25887 0.0
O122 O 0.45359 0.42072 0.0715 0.0
O123 O 0.39174 0.34652 0.98836 0.0
C124 C 0.21086 0.37351 0.14962 0.0
C125 C 0.4488 0.38763 1.0044 0.0
C126 C 0.25837 0.62393 0.85419 0.0
C127 C 0.50114 0.64532 0.98846 0.0
O128 O 0.25791 0.67578 0.90884 0.0
Zn129 Zn 0.33603 0.72819 0.98821 0.0
O130 O 0.32021 0.588 0.83493 0.0
Zn131 Zn 0.38769 0.63784 0.90638 0.0
O132 O 0.34512 0.60011 1.00429 0.0
O133 O 0.30094 0.68848 0.08955 0.0
O134 O 0.49209 0.60532 0.92622 0.0
O135 O 0.45048 0.69537 0.01151 0.0
O136 O 0.33718 0.83607 0.94672 0.0
O137 O 0.38825 0.7473 0.86672 0.0
C138 C 0.31761 0.61762 0.06978 0.0
C139 C 0.36746 0.81752 0.8818 0.0
C140 C 0.68968 0.77385 0.14502 0.0
C141 C 0.749 0.50323 0.04254 0.0
O142 O 0.65259 0.71621 0.16742 0.0
Zn143 Zn 0.63942 0.59557 0.15933 0.0
O144 O 0.74602 0.76094 0.09979 0.0
Zn145 Zn 0.73261 0.64314 0.0915 0.0
O146 O 0.62817 0.64364 0.03165 0.0
O147 O 0.54197 0.59668 0.10796 0.0
O148 O 0.7862 0.56295 0.02612 0.0
O149 O 0.69619 0.51063 0.09216 0.0
O150 O 0.65946 0.5643 0.26694 0.0
O151 O 0.7577 0.61061 0.20672 0.0
C152 C 0.56016 0.62443 0.04369 0.0
C153 C 0.72888 0.58304 0.2674 0.0
C154 C 0.62854 0.23666 0.81069 0.0
C155 C 0.73447 0.44308 0.98337 0.0
O156 O 0.60334 0.30585 0.80185 0.0
Zn157 Zn 0.6133 0.41797 0.84767 0.0
O158 O 0.6738 0.22243 0.86655 0.0
Zn159 Zn 0.68141 0.32997 0.91052 0.0
O160 O 0.57302 0.35116 0.96083 0.0
O161 O 0.50982 0.43724 0.89254 0.0
O162 O 0.74905 0.37093 0.99328 0.0
O163 O 0.68466 0.46303 0.93371 0.0
O164 O 0.66291 0.46126 0.75591 0.0
O165 O 0.73587 0.37563 0.81547 0.0
C166 C 0.51258 0.39208 0.94928 0.0
C167 C 0.72603 0.42272 0.76109 0.0
loop_
_geom_bond_atom_site_label_1
_geom_bond_atom_site_label_2
_geom_bond_distance
_geom_bond_site_symmetry_2
_ccdc_geom_bond_type
C0 O2 1.247 1_655 S
C0 O4 1.258 . S
C1 O8 1.247 . S
C1 O9 1.258 . S
O2 C0 1.247 1_455 S
O2 Zn3 2.028 . S
Zn3 O2 2.028 . S
Zn3 O7 2.035 . S
Zn3 O9 2.035 . S
Zn3 O10 2.028 . S
O4 C0 1.258 . S
O4 Zn5 2.035 . S
Zn5 O4 2.035 . S
Zn5 O6 2.028 1_655 S
Zn5 O8 2.028 1_655 S
Zn5 O11 2.035 . S
O6 Zn5 2.028 1_455 S
O6 C12 1.247 . S
O7 Zn3 2.035 . S
O7 C12 1.258 . S
O8 C1 1.247 . S
O8 Zn5 2.028 1_455 S
O9 C1 1.258 . S
O9 Zn3 2.035 . S
O10 Zn3 2.028 . S
O10 C13 1.247 1_455 S
O11 Zn5 2.035 . S
O11 C13 1.258 . S
C12 O6 1.247 . S
C12 O7 1.258 . S
C13 O10 1.247 1_655 S
C13 O11 1.258 . S
C14 O16 1.247 . S
C14 O18 1.258 . S
C15 O22 1.247 1_545 S
C15 O23 1.258 . S
O16 C14 1.247 . S
O16 Zn17 2.028 1_565 S
Zn17 O16 2.028 1_545 S
Zn17 O21 2.035 . S
Zn17 O23 2.035 . S
Zn17 O24 2.028 1_545 S
O18 C14 1.258 . S
O18 Zn19 2.035 . S
Zn19 O18 2.035 . S
Zn19 O20 2.028 . S
Zn19 O22 2.028 . S
Zn19 O25 2.035 . S
O20 Zn19 2.028 . S
O20 C26 1.247 1_565 S
O21 Zn17 2.035 . S
O21 C26 1.258 . S
O22 C15 1.247 1_565 S
O22 Zn19 2.028 . S
O23 C15 1.258 . S
O23 Zn17 2.035 . S
O24 Zn17 2.028 1_565 S
O24 C27 1.247 . S
O25 Zn19 2.035 . S
O25 C27 1.258 . S
C26 O20 1.247 1_545 S
C26 O21 1.258 . S
C27 O24 1.247 . S
C27 O25 1.258 . S
C28 O30 1.247 . S
C28 O32 1.258 1_455 S
C29 O36 1.247 . S
C29 O37 1.258 . S
O30 C28 1.247 . S
O30 Zn31 2.028 . S
Zn31 O30 2.028 . S
Zn31 O35 2.035 1_455 S
Zn31 O37 2.035 1_455 S
Zn31 O38 2.028 . S
O32 C28 1.258 1_655 S
O32 Zn33 2.035 . S
Zn33 O32 2.035 . S
Zn33 O34 2.028 . S
Zn33 O36 2.028 . S
Zn33 O39 2.035 . S
O34 Zn33 2.028 . S
O34 C40 1.247 . S
O35 Zn31 2.035 1_655 S
O35 C40 1.258 . S
O36 C29 1.247 . S
O36 Zn33 2.028 . S
O37 C29 1.258 . S
O37 Zn31 2.035 1_655 S
O38 Zn31 2.028 . S
O38 C41 1.247 . S
O39 Zn33 2.035 . S
O39 C41 1.258 1_655 S
C40 O34 1.247 . S
C40 O35 1.258 . S
C41 O38 1.247 . S
C41 O39 1.258 1_455 S
C42 O44 1.247 . S
C42 O46 1.258 . S
C43 O50 1.247 1_565 S
C43 O51 1.258 . S
O44 C42 1.247 . S
O44 Zn45 2.028 1_545 S
Zn45 O44 2.028 1_565 S
Zn45 O49 2.035 . S
Zn45 O51 2.035 . S
Zn45 O52 2.028 1_565 S
O46 C42 1.258 . S
O46 Zn47 2.035 . S
Zn47 O46 2.035 . S
Zn47 O48 2.028 . S
Zn47 O50 2.028 . S
Zn47 O53 2.035 . S
O48 Zn47 2.028 . S
O48 C54 1.247 1_545 S
O49 Zn45 2.035 . S
O49 C54 1.258 . S
O50 C43 1.247 1_545 S
O50 Zn47 2.028 . S
O51 C43 1.258 . S
O51 Zn45 2.035 . S
O52 Zn45 2.028 1_545 S
O52 C55 1.247 . S
O53 Zn47 2.035 . S
O53 C55 1.258 . S
C54 O48 1.247 1_565 S
C54 O49 1.258 . S
C55 O52 1.247 . S
C55 O53 1.258 . S
C56 O58 1.247 . S
C56 O60 1.258 . S
C57 O64 1.247 . S
C57 O65 1.258 1_655 S
O58 C56 1.247 . S
O58 Zn59 2.028 . S
Zn59 O58 2.028 . S
Zn59 O63 2.035 . S
Zn59 O65 2.035 . S
Zn59 O66 2.028 . S
O60 C56 1.258 . S
O60 Zn61 2.035 1_455 S
Zn61 O60 2.035 1_655 S
Zn61 O62 2.028 . S
Zn61 O64 2.028 . S
Zn61 O67 2.035 1_655 S
O62 Zn61 2.028 . S
O62 C68 1.247 . S
O63 Zn59 2.035 . S
O63 C68 1.258 1_455 S
O64 C57 1.247 . S
O64 Zn61 2.028 . S
O65 C57 1.258 1_455 S
O65 Zn59 2.035 . S
O66 Zn59 2.028 . S
O66 C69 1.247 . S
O67 Zn61 2.035 1_455 S
O67 C69 1.258 . S
C68 O62 1.247 . S
C68 O63 1.258 1_655 S
C69 O66 1.247 . S
C69 O67 1.258 . S
C70 O72 1.247 1_545 S
C70 O74 1.258 . S
C71 O78 1.247 . S
C71 O79 1.258 . S
O72 C70 1.247 1_565 S
O72 Zn73 2.028 . S
Zn73 O72 2.028 . S
Zn73 O77 2.035 . S
Zn73 O79 2.035 . S
Zn73 O80 2.028 . S
O74 C70 1.258 . S
O74 Zn75 2.035 . S
Zn75 O74 2.035 . S
Zn75 O76 2.028 1_545 S
Zn75 O78 2.028 1_545 S
Zn75 O81 2.035 . S
O76 Zn75 2.028 1_565 S
O76 C82 1.247 . S
O77 Zn73 2.035 . S
O77 C82 1.258 . S
O78 C71 1.247 . S
O78 Zn75 2.028 1_565 S
O79 C71 1.258 . S
O79 Zn73 2.035 . S
O80 Zn73 2.028 . S
O80 C83 1.247 1_565 S
O81 Zn75 2.035 . S
O81 C83 1.258 . S
C82 O76 1.247 . S
C82 O77 1.258 . S
C83 O80 1.247 1_545 S
C83 O81 1.258 . S
C84 O86 1.247 . S
C84 O88 1.258 . S
C85 O92 1.247 . S
C85 O93 1.258 1_455 S
O86 C84 1.247 . S
O86 Zn87 2.028 . S
Zn87 O86 2.028 . S
Zn87 O91 2.035 . S
Zn87 O93 2.035 . S
Zn87 O94 2.028 . S
O88 C84 1.258 . S
O88 Zn89 2.035 1_655 S
Zn89 O88 2.035 1_455 S
Zn89 O90 2.028 . S
Zn89 O92 2.028 . S
Zn89 O95 2.035 1_455 S
O90 Zn89 2.028 . S
O90 C96 1.247 . S
O91 Zn87 2.035 . S
O91 C96 1.258 1_655 S
O92 C85 1.247 . S
O92 Zn89 2.028 . S
O93 C85 1.258 1_655 S
O93 Zn87 2.035 . S
O94 Zn87 2.028 . S
O94 C97 1.247 . S
O95 Zn89 2.035 1_655 S
O95 C97 1.258 . S
C96 O90 1.247 . S
C96 O91 1.258 1_455 S
C97 O94 1.247 . S
C97 O95 1.258 . S
C98 O100 1.247 1_565 S
C98 O102 1.258 . S
C99 O106 1.247 . S
C99 O107 1.258 . S
O100 C98 1.247 1_545 S
O100 Zn101 2.028 . S
Zn101 O100 2.028 . S
Zn101 O105 2.035 . S
Zn101 O107 2.035 . S
Zn101 O108 2.028 . S
O102 C98 1.258 . S
O102 Zn103 2.035 . S
Zn103 O102 2.035 . S
Zn103 O104 2.028 1_565 S
Zn103 O106 2.028 1_565 S
Zn103 O109 2.035 . S
O104 Zn103 2.028 1_545 S
O104 C110 1.247 . S
O105 Zn101 2.035 . S
O105 C110 1.258 . S
O106 C99 1.247 . S
O106 Zn103 2.028 1_545 S
O107 C99 1.258 . S
O107 Zn101 2.035 . S
O108 Zn101 2.028 . S
O108 C111 1.247 1_545 S
O109 Zn103 2.035 . S
O109 C111 1.258 . S
C110 O104 1.247 . S
C110 O105 1.258 . S
C111 O108 1.247 1_565 S
C111 O109 1.258 . S
C112 O114 1.247 1_556 S
C112 O116 1.258 . S
C113 O120 1.247 . S
C113 O121 1.258 . S
O114 C112 1.247 1_554 S
O114 Zn115 2.028 . S
Zn115 O114 2.028 . S
Zn115 O119 2.035 . S
Zn115 O121 2.035 . S
Zn115 O122 2.028 . S
O116 C112 1.258 . S
O116 Zn117 2.035 . S
Zn117 O116 2.035 . S
Zn117 O118 2.028 1_556 S
Zn117 O120 2.028 1_556 S
Zn117 O123 2.035 . S
O118 Zn117 2.028 1_554 S
O118 C124 1.247 . S
O119 Zn115 2.035 . S
O119 C124 1.258 . S
O120 C113 1.247 . S
O120 Zn117 2.028 1_554 S
O121 C113 1.258 . S
O121 Zn115 2.035 . S
O122 Zn115 2.028 . S
O122 C125 1.247 1_554 S
O123 Zn117 2.035 . S
O123 C125 1.258 . S
C124 O118 1.247 . S
C124 O119 1.258 . S
C125 O122 1.247 1_556 S
C125 O123 1.258 . S
C126 O128 1.247 . S
C126 O130 1.258 . S
C127 O134 1.247 1_554 S
C127 O135 1.258 . S
O128 C126 1.247 . S
O128 Zn129 2.028 1_556 S
Zn129 O128 2.028 1_554 S
Zn129 O133 2.035 . S
Zn129 O135 2.035 . S
Zn129 O136 2.028 1_554 S
O130 C126 1.258 . S
O130 Zn131 2.035 . S
Zn131 O130 2.035 . S
Zn131 O132 2.028 . S
Zn131 O134 2.028 . S
Zn131 O137 2.035 . S
O132 Zn131 2.028 . S
O132 C138 1.247 1_556 S
O133 Zn129 2.035 . S
O133 C138 1.258 . S
O134 C127 1.247 1_556 S
O134 Zn131 2.028 . S
O135 C127 1.258 . S
O135 Zn129 2.035 . S
O136 Zn129 2.028 1_556 S
O136 C139 1.247 . S
O137 Zn131 2.035 . S
O137 C139 1.258 . S
C138 O132 1.247 1_554 S
C138 O133 1.258 . S
C139 O136 1.247 . S
C139 O137 1.258 . S
C140 O142 1.247 . S
C140 O144 1.258 . S
C141 O148 1.247 . S
C141 O149 1.258 1_556 S
O142 C140 1.247 . S
O142 Zn143 2.028 . S
Zn143 O142 2.028 . S
Zn143 O147 2.035 . S
Zn143 O149 2.035 . S
Zn143 O150 2.028 . S
O144 C140 1.258 . S
O144 Zn145 2.035 1_554 S
Zn145 O144 2.035 1_556 S
Zn145 O146 2.028 . S
Zn145 O148 2.028 . S
Zn145 O151 2.035 1_556 S
O146 Zn145 2.028 . S
O146 C152 1.247 . S
O147 Zn143 2.035 . S
O147 C152 1.258 1_554 S
O148 C141 1.247 . S
O148 Zn145 2.028 . S
O149 C141 1.258 1_554 S
O149 Zn143 2.035 . S
O150 Zn143 2.028 . S
O150 C153 1.247 . S
O151 Zn145 2.035 1_554 S
O151 C153 1.258 . S
C152 O146 1.247 . S
C152 O147 1.258 1_556 S
C153 O150 1.247 . S
C153 O151 1.258 . S
C154 O156 1.247 . S
C154 O158 1.258 . S
C155 O162 1.247 . S
C155 O163 1.258 1_554 S
O156 C154 1.247 . S
O156 Zn157 2.028 . S
Zn157 O156 2.028 . S
Zn157 O161 2.035 . S
Zn157 O163 2.035 . S
Zn157 O164 2.028 . S
O158 C154 1.258 . S
O158 Zn159 2.035 1_556 S
Zn159 O158 2.035 1_554 S
Zn159 O160 2.028 . S
Zn159 O162 2.028 . S
Zn159 O165 2.035 1_554 S
O160 Zn159 2.028 . S
O160 C166 1.247 . S
O161 Zn157 2.035 . S
O161 C166 1.258 1_556 S
O162 C155 1.247 . S
O162 Zn159 2.028 . S
O163 C155 1.258 1_556 S
O163 Zn157 2.035 . S
O164 Zn157 2.028 . S
O164 C167 1.247 . S
O165 Zn159 2.035 1_556 S
O165 C167 1.258 . S
C166 O160 1.247 . S
C166 O161 1.258 1_554 S
C167 O164 1.247 . S
C167 O165 1.258 . S
C12 C99 1.565 . S
C27 C69 1.563 . S
C71 C29 1.563 . S
C97 C55 1.563 . S
C113 C110 1.565 . S
C126 C56 1.563 . S
C140 C82 1.563 . S
C167 C84 1.561 . S
C14 C139 1.565 . S
C153 C40 1.561 . S
C42 C154 1.563 . S
C124 C1 1.565 . S
C85 C0 1.961 1_455 S
C111 C15 1.955 1_565 S
C57 C41 1.966 1_655 S
C43 C83 1.955 1_565 S
C98 C70 1.955 1_565 S
C68 C96 1.966 1_655 S
C54 C26 1.955 1_565 S
C28 C13 1.961 1_455 S
C112 C138 1.955 1_556 S
C127 C152 1.961 1_554 S
C155 C141 1.966 1_554 S
C125 C166 1.961 1_556 S
