# Generated by pormake.
# Topology sma, (6)-cn, num edge types: 1
# Building blocks:
#     Node 0, Type 0, BuildingBlock: UKALOJ_clean_sbu_0, # of connection points: 6
#     Node 1, Type 0, BuildingBlock: UKALOJ_clean_sbu_0, # of connection points: 6
#     Node 2, Type 0, BuildingBlock: UKALOJ_clean_sbu_0, # of connection points: 6
#     Edge 3, Type (0, 0), BuildingBlock: EYOCIG_clean_linker_4, # of connection points: 2
#     Edge 4, Type (0, 0), BuildingBlock: EYOCIG_clean_linker_4, # of connection points: 2
#     Edge 5, Type (0, 0), BuildingBlock: EYOCIG_clean_linker_4, # of connection points: 2
#     Edge 6, Type (0, 0), BuildingBlock: EYOCIG_clean_linker_4, # of connection points: 2
#     Edge 7, Type (0, 0), BuildingBlock: EYOCIG_clean_linker_4, # of connection points: 2
#     Edge 8, Type (0, 0), BuildingBlock: EYOCIG_clean_linker_4, # of connection points: 2
#     Edge 9, Type (0, 0), BuildingBlock: EYOCIG_clean_linker_4, # of connection points: 2
#     Edge 10, Type (0, 0), BuildingBlock: EYOCIG_clean_linker_4, # of connection points: 2
#     Edge 11, Type (0, 0), BuildingBlock: EYOCIG_clean_linker_4, # of connection points: 2
# Relax obj value: 0.641
# Max RMSD: 0.371
# Mean RMSD: 0.371
data_MOF--net-sma--node1-UKALOJ_clean_sbu_0--edge1-EYOCIG_clean_linker_4
_symmetry_space_group_name_H-M    P1
_symmetry_Int_Tables_number       1
_symmetry_cell_setting            triclinic
loop_
_symmetry_equiv_pos_as_xyz
'x, y, z'
_cell_length_a     20.041317
_cell_length_b     20.048682
_cell_length_c     16.026771
_cell_angle_alpha  89.974894
_cell_angle_beta   90.018397
_cell_angle_gamma 120.06013
loop_
_atom_site_label
_atom_site_type_symbol
_atom_site_fract_x
_atom_site_fract_y
_atom_site_fract_z
_atom_type_partial_charge
Zn0 Zn 0.06516 0.55421 0.09271 0.0
O1 O 0.18042 0.66899 0.09124 0.0
C2 C 0.18268 0.52164 0.11135 0.0
Zn3 Zn 0.07695 0.55924 0.21366 0.0
C4 C 0.18625 0.70541 0.15979 0.0
O5 O 0.13156 0.67514 0.21042 0.0
C6 C 0.95879 0.40981 0.19396 0.0
O7 O 0.96187 0.55915 0.21569 0.0
O8 O 1.01106 0.61595 0.09731 0.0
N9 N 0.10485 0.56995 0.33297 0.0
C10 C 0.0644 0.5375 0.40247 0.0
C11 C 0.1831 0.57845 0.43006 0.0
N12 N 0.17854 0.59603 0.35023 0.0
N13 N 0.11215 0.54057 0.46272 0.0
C14 C 0.07765 0.54567 0.90401 0.0
C15 C 0.95876 0.46886 0.87616 0.0
N16 N 1.0372 0.53816 0.97336 0.0
N17 N 0.96341 0.49115 0.95594 0.0
N18 N 1.02976 0.50126 0.84371 0.0
H19 H 0.18671 0.64246 0.9405 0.0
H20 H 0.17925 0.61645 0.83135 0.0
H21 H 0.18898 0.55731 0.90833 0.0
C22 C 0.16328 0.59384 0.89589 0.0
C23 C 0.97889 0.50109 0.41084 0.0
H24 H 0.9561 0.52724 0.36669 0.0
H25 H 0.96324 0.50756 0.47556 0.0
H26 H 0.95227 0.43884 0.3978 0.0
O27 O 1.02165 0.44298 0.23239 0.0
O28 O 0.95331 0.44173 0.12667 0.0
C29 C 0.95614 0.59058 0.1477 0.0
O30 O 0.11998 0.493 0.0727 0.0
O31 O 0.18842 0.55842 0.17916 0.0
Zn32 Zn 0.57491 0.04432 0.54733 0.0
O33 O 0.6898 0.15955 0.54888 0.0
C34 C 0.54293 0.16207 0.52797 0.0
Zn35 Zn 0.58071 0.05598 0.42641 0.0
C36 C 0.72655 0.16528 0.48059 0.0
O37 O 0.69668 0.11031 0.43031 0.0
C38 C 0.4309 0.9382 0.44573 0.0
O39 O 0.58026 0.94081 0.42481 0.0
O40 O 0.63641 0.98988 0.54349 0.0
N41 N 0.59202 0.08378 0.3071 0.0
C42 C 0.55939 0.04331 0.23767 0.0
C43 C 0.60082 0.16203 0.20991 0.0
N44 N 0.61842 0.15748 0.28973 0.0
N45 N 0.56265 0.09108 0.17737 0.0
C46 C 0.56629 0.05712 0.73602 0.0
C47 C 0.48863 0.93844 0.76383 0.0
N48 N 0.55837 1.01658 0.66666 0.0
N49 N 0.51085 0.94291 0.68406 0.0
N50 N 0.52159 1.00942 0.79631 0.0
H51 H 0.66467 0.16533 0.70047 0.0
H52 H 0.63708 0.15851 0.80904 0.0
H53 H 0.57984 0.16917 0.73033 0.0
C54 C 0.61537 0.14264 0.74419 0.0
C55 C 0.52264 0.95778 0.22947 0.0
H56 H 0.54884 0.93492 0.27349 0.0
H57 H 0.52877 0.94195 0.16471 0.0
H58 H 0.46045 0.93138 0.24283 0.0
O59 O 0.4645 1.00093 0.40711 0.0
O60 O 0.46243 0.93266 0.51328 0.0
C61 C 0.61126 0.93499 0.49309 0.0
O62 O 0.5138 0.09935 0.56659 0.0
O63 O 0.58003 0.16766 0.46043 0.0
Zn64 Zn 0.56108 0.54586 0.88071 0.0
O65 O 0.56136 0.43102 0.88226 0.0
C66 C 0.71097 0.57813 0.86174 0.0
Zn67 Zn 0.5672 0.54023 0.75962 0.0
C68 C 0.53047 0.39432 0.8139 0.0
O69 O 0.50568 0.42428 0.76337 0.0
C70 C 0.59873 0.68974 0.77896 0.0
O71 O 0.45212 0.54001 0.75755 0.0
O72 O 0.44514 0.48423 0.87651 0.0
N73 N 0.58408 0.52892 0.64018 0.0
C74 C 0.57906 0.56334 0.57073 0.0
C75 C 0.6513 0.51593 0.54333 0.0
N76 N 0.62835 0.49896 0.62305 0.0
N77 N 0.62215 0.55736 0.51061 0.0
C78 C 0.58328 0.55527 0.06966 0.0
C79 C 0.53951 0.63045 0.09791 0.0
N80 N 0.5497 0.56208 0.00042 0.0
N81 N 0.52189 0.60809 0.01811 0.0
N82 N 0.57912 0.5991 0.13016 0.0
H83 H 0.60197 0.4633 0.0293 0.0
H84 H 0.61247 0.48244 0.1403 0.0
H85 H 0.68544 0.54788 0.07044 0.0
C86 C 0.62265 0.50893 0.07735 0.0
C87 C 0.53522 0.60526 0.56242 0.0
H88 H 0.49251 0.58949 0.61315 0.0
H89 H 0.50547 0.592 0.5011 0.0
H90 H 0.57649 0.66797 0.56402 0.0
O91 O 0.6282 0.65644 0.74051 0.0
O92 O 0.56168 0.65814 0.84654 0.0
C93 C 0.41525 0.509 0.82582 0.0
O94 O 0.67728 0.60713 0.90025 0.0
O95 O 0.67962 0.54119 0.79406 0.0
C96 C 0.28435 0.52711 0.00213 0.0
C97 C 0.24775 0.52968 0.06215 0.0
C98 C 0.32031 0.52496 0.92463 0.0
C99 C 0.35774 0.52298 0.86507 0.0
C100 C 0.82089 0.27609 0.38101 0.0
C101 C 0.7837 0.23677 0.44079 0.0
C102 C 0.85677 0.31411 0.30339 0.0
C103 C 0.89347 0.3532 0.24331 0.0
C104 C 0.59454 0.82376 0.59215 0.0
C105 C 0.59681 0.86341 0.53266 0.0
C106 C 0.59226 0.7853 0.66948 0.0
C107 C 0.58999 0.74622 0.7295 0.0
C108 C 0.80692 0.57217 0.97109 0.0
C109 C 0.76775 0.56976 0.9111 0.0
C110 C 0.84514 0.57425 0.04854 0.0
C111 C 0.88458 0.57626 0.10813 0.0
C112 C 0.33496 0.83631 0.33645 0.0
C113 C 0.37408 0.87298 0.39651 0.0
C114 C 0.29699 0.80042 0.25884 0.0
C115 C 0.2577 0.76307 0.19915 0.0
C116 C 0.54656 0.29968 0.71477 0.0
C117 C 0.54453 0.33695 0.77446 0.0
C118 C 0.54872 0.26385 0.63718 0.0
C119 C 0.55125 0.22724 0.57713 0.0
C120 C 1.06275 0.47678 0.6958 0.0
C121 C 1.048 0.48841 0.76426 0.0
C122 C 0.07905 0.48448 0.61127 0.0
C123 C 0.09388 0.51024 0.54251 0.0
C124 C 0.50585 0.05826 0.02913 0.0
C125 C 0.53189 0.07285 0.09776 0.0
C126 C 0.49784 1.04238 0.94452 0.0
C127 C 0.50919 1.02773 0.8759 0.0
C128 C 0.64657 0.61382 0.36205 0.0
C129 C 0.63542 0.58763 0.43067 0.0
C130 C 0.6373 0.62266 0.27787 0.0
C131 C 0.61031 0.61193 0.20965 0.0
loop_
_geom_bond_atom_site_label_1
_geom_bond_atom_site_label_2
_geom_bond_distance
_geom_bond_site_symmetry_2
_ccdc_geom_bond_type
Zn0 O1 2.055 . S
Zn0 O8 2.046 1_455 S
Zn0 N16 2.036 1_454 S
Zn0 O28 2.053 1_455 S
Zn0 O30 2.066 . S
O1 Zn0 2.055 . S
O1 C4 1.259 . S
C2 O30 1.256 . S
C2 O31 1.244 . S
Zn3 O5 2.046 . S
Zn3 O7 2.055 1_455 S
Zn3 N9 2.036 . S
Zn3 O27 2.066 1_455 S
Zn3 O31 2.053 . S
C4 O1 1.259 . S
C4 O5 1.254 . S
O5 Zn3 2.046 . S
O5 C4 1.254 . S
C6 O27 1.256 . S
C6 O28 1.244 . S
O7 Zn3 2.055 1_655 S
O7 C29 1.259 . S
O8 Zn0 2.046 1_655 S
O8 C29 1.254 . S
N9 Zn3 2.036 . S
N9 C10 1.298 1_455 S
N9 N12 1.398 . S
C10 N9 1.298 1_655 S
C10 N13 1.373 . S
C10 C23 1.481 . S
C11 N12 1.299 . S
C11 N13 1.368 1_455 S
N12 N9 1.398 . S
N12 C11 1.299 . S
N13 C10 1.373 . S
N13 C11 1.368 1_655 S
C14 N16 1.298 1_455 S
C14 N18 1.367 . S
C14 C22 1.481 . S
C15 N17 1.299 . S
C15 N18 1.379 1_655 S
N16 Zn0 2.036 1_656 S
N16 C14 1.298 1_655 S
N16 N17 1.398 . S
N17 C15 1.299 . S
N17 N16 1.398 . S
N18 C14 1.367 . S
N18 C15 1.379 1_455 S
H19 C22 0.980 . S
H20 C22 0.981 . S
H21 C22 0.981 . S
C22 C14 1.481 . S
C22 H19 0.980 . S
C22 H20 0.981 . S
C22 H21 0.981 . S
C23 C10 1.481 . S
C23 H24 0.980 . S
C23 H25 0.981 . S
C23 H26 0.981 . S
H24 C23 0.980 . S
H25 C23 0.981 . S
H26 C23 0.981 . S
O27 Zn3 2.066 1_655 S
O27 C6 1.256 . S
O28 Zn0 2.053 1_655 S
O28 C6 1.244 . S
C29 O7 1.259 . S
C29 O8 1.254 . S
O30 Zn0 2.066 . S
O30 C2 1.256 . S
O31 C2 1.244 . S
O31 Zn3 2.053 . S
Zn32 O33 2.055 . S
Zn32 O40 2.046 1_545 S
Zn32 N48 2.036 1_545 S
Zn32 O60 2.053 1_545 S
Zn32 O62 2.066 . S
O33 Zn32 2.055 . S
O33 C36 1.259 . S
C34 O62 1.256 . S
C34 O63 1.244 . S
Zn35 O37 2.046 . S
Zn35 O39 2.055 1_545 S
Zn35 N41 2.036 . S
Zn35 O59 2.066 1_545 S
Zn35 O63 2.053 . S
C36 O33 1.259 . S
C36 O37 1.254 . S
O37 Zn35 2.046 . S
O37 C36 1.254 . S
C38 O59 1.256 . S
C38 O60 1.244 . S
O39 Zn35 2.055 1_565 S
O39 C61 1.259 . S
O40 Zn32 2.046 1_565 S
O40 C61 1.254 . S
N41 Zn35 2.036 . S
N41 C42 1.298 1_545 S
N41 N44 1.398 . S
C42 N41 1.298 1_565 S
C42 N45 1.373 . S
C42 C55 1.481 . S
C43 N44 1.299 . S
C43 N45 1.368 1_545 S
N44 N41 1.398 . S
N44 C43 1.299 . S
N45 C42 1.373 . S
N45 C43 1.368 1_565 S
C46 N48 1.298 1_545 S
C46 N50 1.367 . S
C46 C54 1.481 . S
C47 N49 1.299 . S
C47 N50 1.379 1_565 S
N48 Zn32 2.036 1_565 S
N48 C46 1.298 1_565 S
N48 N49 1.398 . S
N49 C47 1.299 . S
N49 N48 1.398 . S
N50 C46 1.367 . S
N50 C47 1.379 1_545 S
H51 C54 0.980 . S
H52 C54 0.981 . S
H53 C54 0.981 . S
C54 C46 1.481 . S
C54 H51 0.980 . S
C54 H52 0.981 . S
C54 H53 0.981 . S
C55 C42 1.481 . S
C55 H56 0.980 . S
C55 H57 0.981 . S
C55 H58 0.981 . S
H56 C55 0.980 . S
H57 C55 0.981 . S
H58 C55 0.981 . S
O59 Zn35 2.066 1_565 S
O59 C38 1.256 . S
O60 Zn32 2.053 1_565 S
O60 C38 1.244 . S
C61 O39 1.259 . S
C61 O40 1.254 . S
O62 Zn32 2.066 . S
O62 C34 1.256 . S
O63 C34 1.244 . S
O63 Zn35 2.053 . S
Zn64 O65 2.055 . S
Zn64 O72 2.046 . S
Zn64 N80 2.036 1_556 S
Zn64 O92 2.053 . S
Zn64 O94 2.066 . S
O65 Zn64 2.055 . S
O65 C68 1.259 . S
C66 O94 1.256 . S
C66 O95 1.244 . S
Zn67 O69 2.046 . S
Zn67 O71 2.055 . S
Zn67 N73 2.036 . S
Zn67 O91 2.066 . S
Zn67 O95 2.053 . S
C68 O65 1.259 . S
C68 O69 1.254 . S
O69 Zn67 2.046 . S
O69 C68 1.254 . S
C70 O91 1.256 . S
C70 O92 1.244 . S
O71 Zn67 2.055 . S
O71 C93 1.259 . S
O72 Zn64 2.046 . S
O72 C93 1.254 . S
N73 Zn67 2.036 . S
N73 C74 1.298 . S
N73 N76 1.398 . S
C74 N73 1.298 . S
C74 N77 1.367 . S
C74 C87 1.481 . S
C75 N76 1.299 . S
C75 N77 1.379 . S
N76 N73 1.398 . S
N76 C75 1.299 . S
N77 C74 1.367 . S
N77 C75 1.379 . S
C78 N80 1.298 . S
C78 N82 1.367 . S
C78 C86 1.481 . S
C79 N81 1.299 . S
C79 N82 1.379 . S
N80 Zn64 2.036 1_554 S
N80 C78 1.298 . S
N80 N81 1.398 . S
N81 C79 1.299 . S
N81 N80 1.398 . S
N82 C78 1.367 . S
N82 C79 1.379 . S
H83 C86 0.980 . S
H84 C86 0.981 . S
H85 C86 0.981 . S
C86 C78 1.481 . S
C86 H83 0.980 . S
C86 H84 0.981 . S
C86 H85 0.981 . S
C87 C74 1.481 . S
C87 H88 0.980 . S
C87 H89 0.981 . S
C87 H90 0.981 . S
H88 C87 0.980 . S
H89 C87 0.981 . S
H90 C87 0.981 . S
O91 Zn67 2.066 . S
O91 C70 1.256 . S
O92 Zn64 2.053 . S
O92 C70 1.244 . S
C93 O71 1.259 . S
C93 O72 1.254 . S
O94 Zn64 2.066 . S
O94 C66 1.256 . S
O95 C66 1.244 . S
O95 Zn67 2.053 . S
C96 C97 1.170 . S
C96 C98 1.380 1_554 S
C97 C96 1.170 . S
C98 C96 1.380 1_556 S
C98 C99 1.170 . S
C99 C98 1.170 . S
C100 C101 1.170 . S
C100 C102 1.380 . S
C101 C100 1.170 . S
C102 C100 1.380 . S
C102 C103 1.170 . S
C103 C102 1.170 . S
C104 C105 1.170 . S
C104 C106 1.380 . S
C105 C104 1.170 . S
C106 C104 1.380 . S
C106 C107 1.170 . S
C107 C106 1.170 . S
C108 C109 1.170 . S
C108 C110 1.380 1_556 S
C109 C108 1.170 . S
C110 C108 1.380 1_554 S
C110 C111 1.170 . S
C111 C110 1.170 . S
C112 C113 1.170 . S
C112 C114 1.380 . S
C113 C112 1.170 . S
C114 C112 1.380 . S
C114 C115 1.170 . S
C115 C114 1.170 . S
C116 C117 1.170 . S
C116 C118 1.380 . S
C117 C116 1.170 . S
C118 C116 1.380 . S
C118 C119 1.170 . S
C119 C118 1.170 . S
C120 C121 1.170 . S
C120 C122 1.380 1_455 S
C121 C120 1.170 . S
C122 C120 1.380 1_655 S
C122 C123 1.170 . S
C123 C122 1.170 . S
C124 C125 1.170 . S
C124 C126 1.380 1_564 S
C125 C124 1.170 . S
C126 C124 1.380 1_546 S
C126 C127 1.170 . S
C127 C126 1.170 . S
C128 C129 1.170 . S
C128 C130 1.380 . S
C129 C128 1.170 . S
C130 C128 1.380 . S
C130 C131 1.170 . S
C131 C130 1.170 . S
C97 C2 2.038 . S
C99 C93 2.028 . S
C101 C36 2.038 . S
C103 C6 2.041 . S
C105 C61 2.025 . S
C107 C70 2.056 . S
C109 C66 2.032 . S
C111 C29 2.037 . S
C113 C38 2.057 . S
C115 C4 2.023 . S
C117 C68 2.004 . S
C119 C34 2.071 . S
C121 N18 0.626 . S
C123 N13 0.655 . S
C125 N45 0.641 . S
C127 N50 0.641 . S
C129 N77 0.561 . S
C131 N82 0.690 . S
