# Generated by pormake.
# Topology pcu, (6)-cn, num edge types: 1
# Building blocks:
#     Node 0, Type 0, BuildingBlock: BETFAJ_clean_sbu_0, # of connection points: 6
#     Edge 1, Type (0, 0), BuildingBlock: KIFKEQ_clean_linker_1, # of connection points: 2
#     Edge 2, Type (0, 0), BuildingBlock: KIFKEQ_clean_linker_1, # of connection points: 2
#     Edge 3, Type (0, 0), BuildingBlock: KIFKEQ_clean_linker_1, # of connection points: 2
# Relax obj value: 0.000
# Max RMSD: 0.000
# Mean RMSD: 0.000
data_MOF--net-pcu--node1-BETFAJ_clean_sbu_0--edge1-KIFKEQ_clean_linker_1
_symmetry_space_group_name_H-M    P1
_symmetry_Int_Tables_number       1
_symmetry_cell_setting            triclinic
loop_
_symmetry_equiv_pos_as_xyz
'x, y, z'
_cell_length_a     25.513148
_cell_length_b     15.843858
_cell_length_c     14.773441
_cell_angle_alpha  88.513515
_cell_angle_beta   95.063944
_cell_angle_gamma 124.05875
loop_
_atom_site_label
_atom_site_type_symbol
_atom_site_fract_x
_atom_site_fract_y
_atom_site_fract_z
_atom_type_partial_charge
Sm0 Sm 0.96179 0.91651 0.02247 0.0
Sm1 Sm 0.10234 0.04539 1.00205 0.0
C2 C 0.84453 0.84039 0.06529 0.0
C3 C 0.79643 0.86588 0.0546 0.0
C4 C 0.79108 0.91858 0.12445 0.0
C5 C 0.74446 0.93974 0.11581 0.0
C6 C 0.7017 0.90823 0.03729 0.0
C7 C 0.70719 0.85566 0.96739 0.0
C8 C 0.75378 0.83449 0.97604 0.0
C9 C 0.99257 0.93754 0.8455 0.0
C10 C 0.03649 0.16618 1.00791 0.0
C11 C 0.21772 0.1204 0.95213 0.0
C12 C 0.2656 0.09533 0.96258 0.0
C13 C 0.30207 0.1114 0.89032 0.0
C14 C 0.34787 0.08852 0.89866 0.0
C15 C 0.35834 0.04944 0.97975 0.0
C16 C 0.32139 0.03283 0.05197 0.0
C17 C 0.27524 0.05507 0.04333 0.0
C18 C 0.07297 0.02591 0.1796 0.0
C19 C 1.02808 0.79553 0.0219 0.0
O20 O 0.8952 0.89818 0.12101 0.0
O21 O 0.85723 0.81299 0.99199 0.0
O22 O 1.01853 0.00834 0.90515 0.0
O23 O 0.94747 0.85285 0.87732 0.0
O24 O 0.98931 0.08142 0.04052 0.0
O25 O 0.08325 0.16884 0.97321 0.0
O26 O 0.16572 0.0579 0.90052 0.0
O27 O 0.20714 0.1516 0.02523 0.0
O28 O 0.04563 0.95477 0.12003 0.0
O29 O 0.11992 0.10879 0.14795 0.0
O30 O 0.07644 0.88064 0.99153 0.0
O31 O 0.97963 0.79185 0.05172 0.0
H32 H 0.82255 0.9427 0.18641 0.0
H33 H 0.74111 0.979 0.17163 0.0
H34 H 0.67568 0.83128 0.90549 0.0
H35 H 0.75611 0.79306 0.9211 0.0
H36 H 0.29527 0.14213 0.82738 0.0
H37 H 0.37586 0.1031 0.84206 0.0
H38 H 0.32765 0.00154 0.11486 0.0
H39 H 0.24713 0.04082 0.09973 0.0
H40 H 0.14874 0.15452 0.32177 0.0
H41 H 0.97026 0.86741 0.25661 0.0
H42 H 0.13119 0.13264 0.48222 0.0
H43 H 0.95022 0.84771 0.41674 0.0
H44 H 0.95724 0.79 0.71817 0.0
H45 H 0.97768 0.81069 0.5585 0.0
H46 H 0.07515 0.13722 0.59421 0.0
H47 H 0.05772 0.11588 0.75517 0.0
C48 C 0.10529 0.0871 0.34186 0.0
C49 C 0.06091 0.01257 0.27674 0.0
C50 C 0.09485 0.07479 0.43405 0.0
C51 C 0.03908 -0.01157 0.46351 0.0
C52 C 0.99434 0.91434 0.3976 0.0
C53 C 1.00543 0.92588 0.30546 0.0
C54 C 0.9833 0.86615 0.69169 0.0
C55 C 1.00591 0.9513 0.74892 0.0
C56 C 0.99459 0.87817 0.59976 0.0
C57 C 1.02785 0.97571 0.56226 0.0
C58 C 0.05039 0.06094 0.62022 0.0
C59 C 0.04007 0.04888 0.7126 0.0
H60 H 0.44484 0.0926 0.12528 0.0
H61 H 0.3843 0.95557 0.85502 0.0
H62 H 0.52691 0.05737 0.13975 0.0
H63 H 0.4673 0.92254 0.86859 0.0
H64 H 0.57802 0.78205 0.96547 0.0
H65 H 0.49527 0.81531 0.95189 0.0
H66 H 0.62736 0.11373 0.07721 0.0
H67 H 0.71041 0.08095 0.09014 0.0
C68 C 0.44888 0.05459 0.06909 0.0
C69 C 0.40797 0.02691 0.98899 0.0
C70 C 0.49637 0.03538 0.077 0.0
C71 C 0.50386 -0.01266 1.00526 0.0
C72 C 0.46257 0.95889 0.92546 0.0
C73 C 0.41536 0.97871 0.91733 0.0
C74 C 0.58973 0.85526 0.98926 0.0
C75 C 0.6511 0.92882 0.02882 0.0
C76 C 0.54216 0.87425 0.98156 0.0
C77 C 0.55458 0.96718 0.01349 0.0
C78 C 0.61587 0.04073 0.05315 0.0
C79 C 0.66352 0.02187 0.0606 0.0
H80 H 0.13086 0.78604 0.0124 0.0
H81 H 0.92831 0.59711 0.03297 0.0
H82 H 0.13342 0.63499 1.01103 0.0
H83 H 0.93019 0.44525 0.02751 0.0
H84 H 0.96336 0.19907 0.10525 0.0
H85 H 0.96227 0.35109 0.11142 0.0
H86 H 0.10504 0.4936 0.91927 0.0
H87 H 0.108 0.34258 0.91632 0.0
C88 C 0.08673 0.71202 0.016 0.0
C89 C 1.02933 0.7034 0.02286 0.0
C90 C 0.08812 0.62522 0.01453 0.0
C91 C 0.03199 0.52752 0.01865 0.0
C92 C 0.97456 0.51916 0.02568 0.0
C93 C 0.97333 0.60618 0.02842 0.0
C94 C 0.99459 0.26289 0.06431 0.0
C95 C 0.03585 0.25882 1.01031 0.0
C96 C 0.99366 0.35 0.0674 0.0
C97 C 0.0334 0.4349 0.01567 0.0
C98 C 0.07451 0.43049 0.96127 0.0
C99 C 0.076 0.34366 0.95906 0.0
loop_
_geom_bond_atom_site_label_1
_geom_bond_atom_site_label_2
_geom_bond_distance
_geom_bond_site_symmetry_2
_ccdc_geom_bond_type
Sm0 C2 2.846 . S
Sm0 O20 2.543 1_556 S
Sm0 O21 2.450 . S
Sm0 O22 2.681 1_665 S
Sm0 O23 2.464 . S
Sm0 O24 2.396 1_565 S
Sm0 O28 2.386 1_566 S
Sm0 O31 2.408 . S
Sm1 C11 2.846 . S
Sm1 O22 2.386 1_554 S
Sm1 O25 2.408 . S
Sm1 O26 2.543 1_554 S
Sm1 O27 2.450 . S
Sm1 O28 2.681 1_455 S
Sm1 O29 2.464 . S
Sm1 O30 2.396 1_545 S
C2 Sm0 2.846 . S
C2 C3 1.506 . S
C2 O20 1.261 1_556 S
C2 O21 1.242 . S
C3 C2 1.506 . S
C3 C4 1.358 1_566 S
C3 C8 1.382 . S
C4 C3 1.358 1_544 S
C4 C5 1.385 . S
C4 H32 0.930 . S
C5 C4 1.385 . S
C5 C6 1.395 1_544 S
C5 H33 0.929 . S
C6 C5 1.395 1_566 S
C6 C7 1.335 . S
C7 C6 1.335 . S
C7 C8 1.398 . S
C7 H34 0.930 . S
C8 C3 1.382 . S
C8 C7 1.398 . S
C8 H35 0.929 . S
C9 O22 1.271 1_665 S
C9 O23 1.251 . S
C10 O24 1.252 1_455 S
C10 O25 1.272 1_556 S
C11 Sm1 2.846 . S
C11 C12 1.506 . S
C11 O26 1.261 1_554 S
C11 O27 1.242 . S
C12 C11 1.506 . S
C12 C13 1.358 1_544 S
C12 C17 1.382 . S
C13 C12 1.358 1_566 S
C13 C14 1.385 . S
C13 H36 0.930 . S
C14 C13 1.385 . S
C14 C15 1.395 1_566 S
C14 H37 0.929 . S
C15 C14 1.395 1_544 S
C15 C16 1.335 . S
C16 C15 1.335 . S
C16 C17 1.398 . S
C16 H38 0.930 . S
C17 C12 1.382 . S
C17 C16 1.398 . S
C17 H39 0.929 . S
C18 O28 1.271 1_455 S
C18 O29 1.251 . S
C19 O30 1.252 1_655 S
C19 O31 1.272 1_554 S
O20 Sm0 2.543 1_554 S
O20 C2 1.261 1_554 S
O21 Sm0 2.450 . S
O21 C2 1.242 . S
O22 Sm0 2.681 1_445 S
O22 Sm1 2.386 1_556 S
O22 C9 1.271 1_445 S
O23 Sm0 2.464 . S
O23 C9 1.251 . S
O24 Sm0 2.396 1_545 S
O24 C10 1.252 1_655 S
O25 Sm1 2.408 . S
O25 C10 1.272 1_554 S
O26 Sm1 2.543 1_556 S
O26 C11 1.261 1_556 S
O27 Sm1 2.450 . S
O27 C11 1.242 . S
O28 Sm0 2.386 1_544 S
O28 Sm1 2.681 1_655 S
O28 C18 1.271 1_655 S
O29 Sm1 2.464 . S
O29 C18 1.251 . S
O30 Sm1 2.396 1_565 S
O30 C19 1.252 1_455 S
O31 Sm0 2.408 . S
O31 C19 1.272 1_556 S
H32 C4 0.930 . S
H33 C5 0.929 . S
H34 C7 0.930 . S
H35 C8 0.929 . S
H36 C13 0.930 . S
H37 C14 0.929 . S
H38 C16 0.930 . S
H39 C17 0.929 . S
H40 C48 0.950 . S
H41 C53 0.950 . S
H42 C50 0.950 . S
H43 C52 0.943 . S
H44 C54 0.950 . S
H45 C56 0.950 . S
H46 C58 0.950 . S
H47 C59 0.950 . S
C48 H40 0.950 . S
C48 C49 1.386 . S
C48 C50 1.391 . S
C49 C48 1.386 . S
C49 C53 1.393 1_445 S
C50 H42 0.950 . S
C50 C48 1.391 . S
C50 C51 1.413 . S
C51 C50 1.413 . S
C51 C52 1.393 1_445 S
C51 C57 1.489 1_445 S
C52 H43 0.943 . S
C52 C51 1.393 1_665 S
C52 C53 1.392 . S
C53 H41 0.950 . S
C53 C49 1.393 1_665 S
C53 C52 1.392 . S
C54 H44 0.950 . S
C54 C55 1.402 . S
C54 C56 1.391 . S
C55 C54 1.402 . S
C55 C59 1.375 1_665 S
C56 H45 0.950 . S
C56 C54 1.391 . S
C56 C57 1.408 . S
C57 C51 1.489 1_665 S
C57 C56 1.408 . S
C57 C58 1.391 1_665 S
C58 H46 0.950 . S
C58 C57 1.391 1_445 S
C58 C59 1.391 . S
C59 H47 0.950 . S
C59 C55 1.375 1_445 S
C59 C58 1.391 . S
H60 C68 0.950 . S
H61 C73 0.950 . S
H62 C70 0.950 . S
H63 C72 0.950 . S
H64 C74 0.950 . S
H65 C76 0.950 . S
H66 C78 0.950 . S
H67 C79 0.950 . S
C68 H60 0.950 . S
C68 C69 1.396 1_545 S
C68 C70 1.391 . S
C69 C68 1.396 1_565 S
C69 C73 1.381 1_554 S
C70 H62 0.950 . S
C70 C68 1.391 . S
C70 C71 1.407 1_545 S
C71 C70 1.407 1_565 S
C71 C72 1.393 1_554 S
C71 C77 1.489 1_564 S
C72 H63 0.950 . S
C72 C71 1.393 1_556 S
C72 C73 1.391 . S
C73 H61 0.950 . S
C73 C69 1.381 1_556 S
C73 C72 1.391 . S
C74 H64 0.950 . S
C74 C75 1.394 1_565 S
C74 C76 1.391 . S
C75 C74 1.394 1_545 S
C75 C79 1.384 1_556 S
C76 H65 0.950 . S
C76 C74 1.391 . S
C76 C77 1.404 1_565 S
C77 C71 1.489 1_546 S
C77 C76 1.404 1_545 S
C77 C78 1.395 1_556 S
C78 H66 0.950 . S
C78 C77 1.395 1_554 S
C78 C79 1.391 . S
C79 H67 0.950 . S
C79 C75 1.384 1_554 S
C79 C78 1.391 . S
H80 C88 0.950 . S
H81 C93 0.950 . S
H82 C90 0.950 . S
H83 C92 0.950 . S
H84 C94 0.950 . S
H85 C96 0.950 . S
H86 C98 0.950 . S
H87 C99 0.950 . S
C88 H80 0.950 . S
C88 C89 1.364 1_455 S
C88 C90 1.391 . S
C89 C88 1.364 1_655 S
C89 C93 1.401 1_554 S
C90 H82 0.950 . S
C90 C88 1.391 . S
C90 C91 1.397 1_455 S
C91 C90 1.397 1_655 S
C91 C92 1.407 1_554 S
C91 C97 1.477 1_654 S
C92 H83 0.950 . S
C92 C91 1.407 1_556 S
C92 C93 1.391 . S
C93 H81 0.950 . S
C93 C89 1.401 1_556 S
C93 C92 1.391 . S
C94 H84 0.950 . S
C94 C95 1.386 1_655 S
C94 C96 1.391 . S
C95 C94 1.386 1_455 S
C95 C99 1.393 1_556 S
C96 H85 0.950 . S
C96 C94 1.391 . S
C96 C97 1.396 1_655 S
C97 C91 1.477 1_456 S
C97 C96 1.396 1_455 S
C97 C98 1.412 1_556 S
C98 H86 0.950 . S
C98 C97 1.412 1_554 S
C98 C99 1.391 . S
C99 H87 0.950 . S
C99 C95 1.393 1_554 S
C99 C98 1.391 . S
C49 C18 1.448 . S
C55 C9 1.454 . S
C69 C15 1.501 1_565 S
C75 C6 1.501 1_545 S
C89 C19 1.498 . S
C95 C10 1.483 . S
