# Generated by pormake.
# Topology sxc, (6)-cn, num edge types: 1
# Building blocks:
#     Node 0, Type 0, BuildingBlock: BETGAK_clean_sbu_0, # of connection points: 6
#     Node 1, Type 0, BuildingBlock: BETGAK_clean_sbu_0, # of connection points: 6
#     Node 2, Type 0, BuildingBlock: BETGAK_clean_sbu_0, # of connection points: 6
#     Edge 3, Type (0, 0), BuildingBlock: OJICUG_clean_linker_0, # of connection points: 2
#     Edge 4, Type (0, 0), BuildingBlock: OJICUG_clean_linker_0, # of connection points: 2
#     Edge 5, Type (0, 0), BuildingBlock: OJICUG_clean_linker_0, # of connection points: 2
#     Edge 6, Type (0, 0), BuildingBlock: OJICUG_clean_linker_0, # of connection points: 2
#     Edge 7, Type (0, 0), BuildingBlock: OJICUG_clean_linker_0, # of connection points: 2
#     Edge 8, Type (0, 0), BuildingBlock: OJICUG_clean_linker_0, # of connection points: 2
#     Edge 9, Type (0, 0), BuildingBlock: OJICUG_clean_linker_0, # of connection points: 2
#     Edge 10, Type (0, 0), BuildingBlock: OJICUG_clean_linker_0, # of connection points: 2
#     Edge 11, Type (0, 0), BuildingBlock: OJICUG_clean_linker_0, # of connection points: 2
# Relax obj value: 0.527
# Max RMSD: 0.188
# Mean RMSD: 0.104
data_MOF--net-sxc--node1-BETGAK_clean_sbu_0--edge1-OJICUG_clean_linker_0
_symmetry_space_group_name_H-M    P1
_symmetry_Int_Tables_number       1
_symmetry_cell_setting            triclinic
loop_
_symmetry_equiv_pos_as_xyz
'x, y, z'
_cell_length_a     13.282776
_cell_length_b     11.737096
_cell_length_c     32.394448
_cell_angle_alpha  90.572232
_cell_angle_beta   95.480229
_cell_angle_gamma 86.896471
loop_
_atom_site_label
_atom_site_type_symbol
_atom_site_fract_x
_atom_site_fract_y
_atom_site_fract_z
_atom_type_partial_charge
La0 La 0.30622 0.17502 1.0017 0.0
La1 La 1.06776 0.19369 0.00569 0.0
C2 C 0.47835 0.16166 0.97616 0.0
C3 C 0.56487 0.23124 0.98729 0.0
C4 C 0.58256 0.27143 0.02817 0.0
C5 C 0.63563 0.36929 0.03623 0.0
C6 C 0.67032 0.42845 1.00345 0.0
C7 C 0.66498 0.37921 0.96364 0.0
C8 C 0.61216 0.28073 0.95559 0.0
C9 C 0.25484 0.19597 0.08004 0.0
C10 C 0.19117 0.42683 0.0048 0.0
C11 C 0.89593 0.2009 0.03155 0.0
C12 C 0.81615 0.12079 0.02286 0.0
C13 C 0.8028 1.07043 0.98336 0.0
C14 C 0.76024 0.96502 0.9785 0.0
C15 C 0.73122 0.90874 0.01309 0.0
C16 C 0.73234 0.96593 0.05141 0.0
C17 C 0.77487 1.0718 0.05627 0.0
C18 C 1.11671 0.1764 0.92703 0.0
C19 C 1.18225 0.94174 1.00236 0.0
O20 O 0.45227 1.09615 0.00554 0.0
O21 O 0.40031 0.21874 0.95681 0.0
O22 O 0.34741 0.19226 0.07008 0.0
O23 O 0.20095 0.19227 0.04603 0.0
O24 O 0.27613 0.36483 0.99807 0.0
O25 O 1.10645 0.37635 0.01184 0.0
O26 O 0.91759 0.26207 1.00021 0.0
O27 O 0.9772 0.15488 0.05231 0.0
O28 O 1.02514 0.18662 0.93795 0.0
O29 O 1.17304 0.17281 0.96069 0.0
O30 O 1.09678 1.0037 0.00827 0.0
O31 O 0.26749 0.99223 0.99612 0.0
H32 H 0.54747 0.23409 0.05328 0.0
H33 H 0.64114 0.40457 0.06735 0.0
H34 H 0.69175 0.4231 0.93788 0.0
H35 H 0.59924 0.25056 0.9239 0.0
H36 H 0.83385 1.10672 0.95702 0.0
H37 H 0.75759 0.92343 0.94843 0.0
H38 H 0.70969 0.92431 0.07848 0.0
H39 H 0.785 0.10945 0.08697 0.0
La40 La 1.07905 0.1849 0.32586 0.0
La41 La 0.29065 0.17598 0.33102 0.0
C42 C 0.9021 0.18623 0.34381 0.0
C43 C 0.86305 1.07941 0.35841 0.0
C44 C 0.892 1.03981 0.39901 0.0
C45 C 0.88039 0.92624 0.40954 0.0
C46 C 0.83962 0.84934 0.37977 0.0
C47 C 0.80952 0.89011 0.3394 0.0
C48 C 0.81942 1.00347 0.32913 0.0
C49 C 1.14826 0.17182 0.25122 0.0
C50 C 0.18963 0.42513 0.32764 0.0
C51 C 0.46483 1.09966 0.32174 0.0
C52 C 0.4987 0.98283 0.33507 0.0
C53 C 0.54424 0.90719 0.30797 0.0
C54 C 0.56987 0.79421 0.31982 0.0
C55 C 0.55362 0.75514 0.35984 0.0
C56 C 0.49508 0.82774 0.38424 0.0
C57 C 0.46957 0.94032 0.37235 0.0
C58 C 0.22188 0.18607 0.40561 0.0
C59 C 1.1788 0.93602 0.32712 0.0
O60 O 0.97384 0.23009 0.36858 0.0
O61 O 0.92423 0.18402 0.30524 0.0
O62 O 1.07055 0.12107 0.26174 0.0
O63 O 1.18205 0.2316 0.28164 0.0
O64 O 1.10575 0.37147 0.33289 0.0
O65 O 0.274 0.36326 0.32146 0.0
O66 O 0.44595 0.17215 0.35141 0.0
O67 O 0.39312 1.10415 0.29112 0.0
O68 O 0.30004 0.23604 0.39524 0.0
O69 O 0.18838 0.12697 0.37482 0.0
O70 O 0.26139 0.99059 0.32222 0.0
O71 O 1.0956 0.99749 0.33353 0.0
H72 H 0.92709 1.09535 0.42237 0.0
H73 H 0.90336 0.89872 0.441 0.0
H74 H 0.77607 0.83531 0.31545 0.0
H75 H 0.79715 1.0302 0.2975 0.0
H76 H 0.56143 0.93587 0.27787 0.0
H77 H 0.60968 0.74118 0.29851 0.0
H78 H 0.47472 0.8005 0.414 0.0
H79 H 0.42727 0.99435 0.39265 0.0
La80 La 0.19561 0.10824 0.6658 0.0
La81 La 0.18788 0.2112 0.66856 0.0
C82 C 1.16713 0.89957 0.67943 0.0
C83 C 1.08446 0.8267 0.66613 0.0
C84 C 1.00775 0.86658 0.63622 0.0
C85 C 0.91415 0.81742 0.63271 0.0
C86 C 0.89631 0.72781 0.65907 0.0
C87 C 0.97664 0.68127 0.68623 0.0
C88 C 1.07023 0.73086 0.68981 0.0
C89 C 0.1984 0.12293 0.58334 0.0
C90 C 0.94267 0.14341 0.6807 0.0
C91 C 0.21949 0.41817 0.65346 0.0
C92 C 0.30271 0.49069 0.66629 0.0
C93 C 0.37928 0.45143 0.69635 0.0
C94 C 0.47295 0.50043 0.69971 0.0
C95 C 0.49089 0.58938 0.67308 0.0
C96 C 0.41071 0.63531 0.64571 0.0
C97 C 0.3171 0.58578 0.64225 0.0
C98 C 1.1775 0.20264 0.75056 0.0
C99 C 0.44097 0.17498 0.6539 0.0
O100 O 0.22154 0.9335 0.65128 0.0
O101 O 1.13991 0.98416 0.70251 0.0
O102 O 0.27137 1.07773 0.60812 0.0
O103 O 1.13288 0.16553 0.60553 0.0
O104 O 1.01773 0.16812 0.65643 0.0
O105 O 1.01486 0.16928 0.65521 0.0
O106 O 1.16442 0.38701 0.68181 0.0
O107 O 0.24608 0.33177 0.63107 0.0
O108 O 1.10972 0.25201 0.72452 0.0
O109 O 0.24336 0.1539 0.72984 0.0
O110 O 0.36567 0.15023 0.67809 0.0
O111 O 0.36868 0.14906 0.67929 0.0
H112 H 1.01764 0.94102 0.61781 0.0
H113 H 0.85411 0.8534 0.61094 0.0
H114 H 0.96504 0.61233 0.70696 0.0
H115 H 1.12865 0.69995 0.7133 0.0
H116 H 0.36916 0.37767 0.71507 0.0
H117 H 0.53291 0.46492 0.72161 0.0
H118 H 0.42244 0.70374 0.62479 0.0
H119 H 0.25873 0.61624 0.61867 0.0
C120 C 0.27608 0.61959 0.99815 0.0
C121 C 0.18946 0.5589 1.00438 0.0
H122 H 0.34259 0.78203 0.99261 0.0
C123 C 1.10006 0.62725 0.0098 0.0
H124 H 0.3469 0.57291 0.99382 0.0
C125 C 1.09743 0.74899 0.00906 0.0
C126 C 0.184 0.80967 1.00277 0.0
H127 H 1.03092 0.58657 0.01463 0.0
H128 H 1.02673 0.79574 0.01351 0.0
C129 C 0.27342 0.74133 0.9974 0.0
C130 C 0.69286 0.60765 0.35599 0.0
C131 C 0.61958 0.65842 0.38009 0.0
H132 H 0.83688 0.64199 0.33534 0.0
C133 C 0.6581 0.68205 0.42119 0.0
H134 H 0.66954 0.56407 0.32732 0.0
C135 C 0.75246 0.73072 0.4265 0.0
C136 C 0.80878 0.73509 0.39187 0.0
H137 H 0.60781 0.69563 0.44537 0.0
H138 H 0.76977 0.78234 0.45387 0.0
C139 C 0.78928 0.65221 0.36062 0.0
C140 C 0.77349 0.5759 0.6655 0.0
C141 C 0.79218 0.69161 0.6615 0.0
H142 H 0.66318 0.45307 0.67208 0.0
C143 C 0.71136 0.774 0.6622 0.0
H144 H 0.83422 0.51065 0.66482 0.0
C145 C 0.61365 0.74126 0.66665 0.0
C146 C 0.59498 0.62556 0.67065 0.0
H147 H 0.72394 0.86413 0.66014 0.0
H148 H 0.55289 0.80648 0.66732 0.0
C149 C 0.67579 0.54317 0.66998 0.0
C150 C 0.74881 0.19707 0.63632 0.0
C151 C 0.81413 0.15309 0.67157 0.0
H152 H 0.59794 0.23773 0.60407 0.0
C153 C 0.74817 0.11593 0.70205 0.0
H154 H 0.78516 0.22915 0.61062 0.0
C155 C 0.6348 0.12113 0.69829 0.0
C156 C 0.56949 0.16512 0.66304 0.0
H157 H 0.78568 1.08052 0.73055 0.0
H158 H 0.59844 1.08909 0.72399 0.0
C159 C 0.63545 0.20228 0.63257 0.0
C160 C 0.63495 0.74061 0.02905 0.0
C161 C 0.71518 0.78574 0.01068 0.0
H162 H 0.55816 0.59117 0.041 0.0
C163 C 0.78455 0.71187 0.99191 0.0
H164 H 0.58062 0.796 0.04362 0.0
C165 C 0.77273 0.59467 0.99085 0.0
C166 C 0.69162 0.5497 0.00871 0.0
H167 H 0.84858 0.74463 0.97837 0.0
H168 H 0.82635 0.53935 0.97587 0.0
C169 C 0.62305 0.62352 0.02796 0.0
C170 C 1.09835 0.62316 0.33435 0.0
C171 C 0.18714 0.55615 0.3274 0.0
H172 H 1.02553 0.79089 0.33972 0.0
C173 C 0.27294 0.61683 0.32015 0.0
H174 H 1.0302 0.58176 0.3401 0.0
C175 C 0.26994 0.73816 0.3198 0.0
C176 C 1.18132 0.80509 0.32694 0.0
H177 H 0.3431 0.57048 0.31458 0.0
H178 H 0.33771 0.77968 0.31372 0.0
C179 C 1.09555 0.74445 0.33414 0.0
C180 C 0.25683 0.24286 0.19731 0.0
C181 C 1.17483 0.18068 0.20734 0.0
H182 H 0.34591 0.2963 0.14949 0.0
C183 C 1.11805 0.12558 0.17474 0.0
H184 H 0.30274 0.28578 0.2215 0.0
C185 C 1.1422 0.13264 0.13345 0.0
C186 C 0.22366 0.19522 0.12336 0.0
H187 H 1.05524 1.07556 0.18119 0.0
H188 H 1.09977 1.08473 0.10976 0.0
C189 C 0.28138 0.24914 0.15598 0.0
C190 C 1.12055 0.19121 0.46839 0.0
C191 C 0.21009 0.16012 0.45003 0.0
H192 H 1.04608 0.20509 0.52479 0.0
C193 C 0.29326 0.1135 0.47566 0.0
H194 H 1.05591 0.22976 0.44976 0.0
C195 C 0.2876 1.0988 0.51839 0.0
C196 C 0.19919 0.13228 0.53715 0.0
H197 H 0.36364 1.08963 0.46267 0.0
H198 H 0.3539 1.06366 0.537 0.0
C199 C 1.11525 0.17795 0.51148 0.0
C200 C 0.2471 0.15033 0.8253 0.0
C201 C 1.17 0.19833 0.79654 0.0
H202 H 0.29288 1.10653 0.88949 0.0
C203 C 1.08011 0.24165 0.81188 0.0
H204 H 0.31739 0.11596 0.81462 0.0
C205 C 1.06594 0.23512 0.85402 0.0
C206 C 1.14154 0.18668 0.88297 0.0
H207 H 1.01887 0.27913 0.79102 0.0
H208 H 0.9943 0.26804 0.86393 0.0
C209 C 0.23331 0.14538 0.86822 0.0
loop_
_geom_bond_atom_site_label_1
_geom_bond_atom_site_label_2
_geom_bond_distance
_geom_bond_site_symmetry_2
_ccdc_geom_bond_type
La0 C2 2.928 . S
La0 O20 2.521 . S
La0 O21 2.628 1_554 S
La0 O22 2.554 . S
La0 O23 2.757 1_545 S
La0 O24 2.470 . S
La0 O29 2.482 1_554 S
La0 O31 2.503 1_545 S
La1 C11 2.928 . S
La1 O23 2.482 1_656 S
La1 O25 2.503 1_565 S
La1 O26 2.521 . S
La1 O27 2.628 1_556 S
La1 O28 2.554 . S
La1 O29 2.757 1_665 S
La1 O30 2.470 . S
C2 La0 2.928 . S
C2 C3 1.503 . S
C2 O20 1.261 . S
C2 O21 1.243 1_554 S
C3 C2 1.503 . S
C3 C4 1.394 . S
C3 C8 1.373 1_554 S
C4 C3 1.394 . S
C4 C5 1.380 . S
C4 H32 0.930 . S
C5 C4 1.380 . S
C5 C6 1.376 . S
C5 H33 0.930 . S
C6 C5 1.376 . S
C6 C7 1.370 1_554 S
C7 C6 1.370 1_556 S
C7 C8 1.396 . S
C7 H34 0.929 . S
C8 C3 1.373 1_556 S
C8 C7 1.396 . S
C8 H35 0.929 . S
C9 O22 1.240 . S
C9 O23 1.289 1_545 S
C10 O24 1.258 . S
C10 O25 1.256 1_454 S
C11 La1 2.928 . S
C11 C12 1.503 . S
C11 O26 1.261 . S
C11 O27 1.243 1_556 S
C12 C11 1.503 . S
C12 C13 1.394 . S
C12 C17 1.373 1_556 S
C13 C12 1.394 . S
C13 C14 1.380 . S
C13 H36 0.930 . S
C14 C13 1.380 . S
C14 C15 1.376 . S
C14 H37 0.930 . S
C15 C14 1.376 . S
C15 C16 1.370 1_556 S
C16 C15 1.370 1_554 S
C16 C17 1.396 . S
C16 H38 0.929 . S
C17 C12 1.373 1_554 S
C17 C16 1.396 . S
C17 H39 0.929 . S
C18 O28 1.240 1_545 S
C18 O29 1.289 1_655 S
C19 O30 1.258 1_455 S
C19 O31 1.256 1_556 S
O20 La0 2.521 . S
O20 C2 1.261 . S
O21 La0 2.628 1_556 S
O21 C2 1.243 1_556 S
O22 La0 2.554 . S
O22 C9 1.240 . S
O23 La0 2.757 1_565 S
O23 La1 2.482 1_454 S
O23 C9 1.289 1_565 S
O24 La0 2.470 . S
O24 C10 1.258 . S
O25 La1 2.503 1_545 S
O25 C10 1.256 1_656 S
O26 La1 2.521 . S
O26 C11 1.261 . S
O27 La1 2.628 1_554 S
O27 C11 1.243 1_554 S
O28 La1 2.554 . S
O28 C18 1.240 1_565 S
O29 La0 2.482 1_556 S
O29 La1 2.757 1_445 S
O29 C18 1.289 1_455 S
O30 La1 2.470 . S
O30 C19 1.258 1_655 S
O31 La0 2.503 1_565 S
O31 C19 1.256 1_554 S
H32 C4 0.930 . S
H33 C5 0.930 . S
H34 C7 0.929 . S
H35 C8 0.929 . S
H36 C13 0.930 . S
H37 C14 0.930 . S
H38 C16 0.929 . S
H39 C17 0.929 . S
La40 C42 2.928 1_565 S
La40 O60 2.521 1_565 S
La40 O61 2.628 1_565 S
La40 O62 2.554 . S
La40 O63 2.757 1_665 S
La40 O64 2.470 1_565 S
La40 O69 2.482 1_565 S
La40 O71 2.503 . S
La41 C51 2.928 1_545 S
La41 O63 2.482 . S
La41 O65 2.503 . S
La41 O66 2.521 . S
La41 O67 2.628 1_545 S
La41 O68 2.554 . S
La41 O69 2.757 1_455 S
La41 O70 2.470 1_545 S
C42 La40 2.928 1_545 S
C42 C43 1.503 . S
C42 O60 1.261 . S
C42 O61 1.243 . S
C43 C42 1.503 . S
C43 C44 1.394 . S
C43 C48 1.373 . S
C44 C43 1.394 . S
C44 C45 1.380 . S
C44 H72 0.930 . S
C45 C44 1.380 . S
C45 C46 1.376 . S
C45 H73 0.930 . S
C46 C45 1.376 . S
C46 C47 1.370 . S
C47 C46 1.370 . S
C47 C48 1.396 . S
C47 H74 0.929 . S
C48 C43 1.373 . S
C48 C47 1.396 . S
C48 H75 0.929 . S
C49 O62 1.240 1_545 S
C49 O63 1.289 1_655 S
C50 O64 1.258 . S
C50 O65 1.256 1_655 S
C51 La41 2.928 1_565 S
C51 C52 1.503 . S
C51 O66 1.261 1_565 S
C51 O67 1.243 . S
C52 C51 1.503 . S
C52 C53 1.394 . S
C52 C57 1.373 . S
C53 C52 1.394 . S
C53 C54 1.380 . S
C53 H76 0.930 1_565 S
C54 C53 1.380 . S
C54 C55 1.376 . S
C54 H77 0.930 . S
C55 C54 1.376 . S
C55 C56 1.370 . S
C56 C55 1.370 . S
C56 C57 1.396 . S
C56 H78 0.929 . S
C57 C52 1.373 . S
C57 C56 1.396 . S
C57 H79 0.929 . S
C58 O68 1.240 . S
C58 O69 1.289 1_455 S
C59 O70 1.258 . S
C59 O71 1.256 1_455 S
O60 La40 2.521 1_545 S
O60 C42 1.261 . S
O61 La40 2.628 1_545 S
O61 C42 1.243 . S
O62 La40 2.554 . S
O62 C49 1.240 1_565 S
O63 La40 2.757 1_445 S
O63 La41 2.482 . S
O63 C49 1.289 1_455 S
O64 La40 2.470 1_545 S
O64 C50 1.258 . S
O65 La41 2.503 . S
O65 C50 1.256 1_455 S
O66 La41 2.521 . S
O66 C51 1.261 1_545 S
O67 La41 2.628 1_565 S
O67 C51 1.243 . S
O68 La41 2.554 . S
O68 C58 1.240 . S
O69 La40 2.482 1_545 S
O69 La41 2.757 1_655 S
O69 C58 1.289 1_655 S
O70 La41 2.470 1_565 S
O70 C59 1.258 . S
O71 La40 2.503 . S
O71 C59 1.256 1_655 S
H72 C44 0.930 . S
H73 C45 0.930 . S
H74 C47 0.929 . S
H75 C48 0.929 . S
H76 C53 0.930 1_545 S
H77 C54 0.930 . S
H78 C56 0.929 . S
H79 C57 0.929 . S
La80 C82 2.928 . S
La80 O100 2.521 . S
La80 O101 2.628 . S
La80 O102 2.554 . S
La80 O103 2.757 1_665 S
La80 O104 2.470 . S
La80 O109 2.482 1_565 S
La80 O111 2.503 1_655 S
La81 C91 2.928 . S
La81 O103 2.482 . S
La81 O105 2.503 1_455 S
La81 O106 2.521 . S
La81 O107 2.628 . S
La81 O108 2.554 . S
La81 O109 2.757 1_455 S
La81 O110 2.470 . S
C82 La80 2.928 . S
C82 C83 1.503 . S
C82 O100 1.261 . S
C82 O101 1.243 . S
C83 C82 1.503 . S
C83 C84 1.394 . S
C83 C88 1.373 . S
C84 C83 1.394 . S
C84 C85 1.380 . S
C84 H112 0.930 . S
C85 C84 1.380 . S
C85 C86 1.376 . S
C85 H113 0.930 . S
C86 C85 1.376 . S
C86 C87 1.370 . S
C87 C86 1.370 . S
C87 C88 1.396 . S
C87 H114 0.929 . S
C88 C83 1.373 . S
C88 C87 1.396 . S
C88 H115 0.929 . S
C89 O102 1.240 1_545 S
C89 O103 1.289 1_655 S
C90 O104 1.258 1_545 S
C90 O105 1.256 . S
C91 La81 2.928 . S
C91 C92 1.503 . S
C91 O106 1.261 . S
C91 O107 1.243 . S
C92 C91 1.503 . S
C92 C93 1.394 . S
C92 C97 1.373 . S
C93 C92 1.394 . S
C93 C94 1.380 . S
C93 H116 0.930 . S
C94 C93 1.380 . S
C94 C95 1.376 . S
C94 H117 0.930 . S
C95 C94 1.376 . S
C95 C96 1.370 . S
C96 C95 1.370 . S
C96 C97 1.396 . S
C96 H118 0.929 . S
C97 C92 1.373 . S
C97 C96 1.396 . S
C97 H119 0.929 . S
C98 O108 1.240 . S
C98 O109 1.289 1_455 S
C99 O110 1.258 . S
C99 O111 1.256 1_545 S
O100 La80 2.521 . S
O100 C82 1.261 . S
O101 La80 2.628 . S
O101 C82 1.243 . S
O102 La80 2.554 . S
O102 C89 1.240 1_565 S
O103 La80 2.757 1_445 S
O103 La81 2.482 . S
O103 C89 1.289 1_455 S
O104 La80 2.470 . S
O104 C90 1.258 1_565 S
O105 La81 2.503 1_655 S
O105 C90 1.256 . S
O106 La81 2.521 . S
O106 C91 1.261 . S
O107 La81 2.628 . S
O107 C91 1.243 . S
O108 La81 2.554 . S
O108 C98 1.240 . S
O109 La80 2.482 1_545 S
O109 La81 2.757 1_655 S
O109 C98 1.289 1_655 S
O110 La81 2.470 . S
O110 C99 1.258 . S
O111 La80 2.503 1_455 S
O111 C99 1.256 1_565 S
H112 C84 0.930 . S
H113 C85 0.930 . S
H114 C87 0.929 . S
H115 C88 0.929 . S
H116 C93 0.930 . S
H117 C94 0.930 . S
H118 C96 0.929 . S
H119 C97 0.929 . S
C120 C121 1.397 . S
C120 H124 0.950 . S
C120 C129 1.390 . S
C121 C120 1.397 . S
C121 C123 1.378 1_554 S
H122 C129 0.950 . S
C123 C121 1.378 1_556 S
C123 C125 1.390 . S
C123 H127 0.950 . S
H124 C120 0.950 . S
C125 C123 1.390 . S
C125 C126 1.387 1_556 S
C125 H128 0.950 . S
C126 C125 1.387 1_554 S
C126 C129 1.387 . S
H127 C123 0.950 . S
H128 C125 0.950 . S
C129 C120 1.390 . S
C129 H122 0.950 . S
C129 C126 1.387 . S
C130 C131 1.387 . S
C130 H134 0.950 . S
C130 C139 1.390 1_565 S
C131 C130 1.387 . S
C131 C133 1.387 . S
H132 C139 0.950 . S
C133 C131 1.387 . S
C133 C135 1.390 1_565 S
C133 H137 0.950 . S
H134 C130 0.950 . S
C135 C133 1.390 1_545 S
C135 C136 1.387 . S
C135 H138 0.950 . S
C136 C135 1.387 . S
C136 C139 1.387 . S
H137 C133 0.950 . S
H138 C135 0.950 . S
C139 C130 1.390 1_545 S
C139 H132 0.950 . S
C139 C136 1.387 . S
C140 C141 1.387 . S
C140 H144 0.950 . S
C140 C149 1.390 . S
C141 C140 1.387 . S
C141 C143 1.387 . S
H142 C149 0.950 . S
C143 C141 1.387 . S
C143 C145 1.390 . S
C143 H147 0.950 . S
H144 C140 0.950 . S
C145 C143 1.390 . S
C145 C146 1.387 . S
C145 H148 0.950 . S
C146 C145 1.387 . S
C146 C149 1.387 . S
H147 C143 0.950 . S
H148 C145 0.950 . S
C149 C140 1.390 . S
C149 H142 0.950 . S
C149 C146 1.387 . S
C150 C151 1.387 . S
C150 H154 0.950 . S
C150 C159 1.390 . S
C151 C150 1.387 . S
C151 C153 1.387 1_545 S
H152 C159 0.950 . S
C153 C151 1.387 1_565 S
C153 C155 1.390 . S
C153 H157 0.950 . S
H154 C150 0.950 . S
C155 C153 1.390 . S
C155 C156 1.387 1_565 S
C155 H158 0.950 . S
C156 C155 1.387 1_545 S
C156 C159 1.387 . S
H157 C153 0.950 . S
H158 C155 0.950 . S
C159 C150 1.390 . S
C159 H152 0.950 . S
C159 C156 1.387 . S
C160 C161 1.387 1_554 S
C160 H164 0.950 . S
C160 C169 1.390 . S
C161 C160 1.387 1_556 S
C161 C163 1.387 . S
H162 C169 0.950 . S
C163 C161 1.387 . S
C163 C165 1.390 . S
C163 H167 0.950 . S
H164 C160 0.950 . S
C165 C163 1.390 . S
C165 C166 1.387 1_556 S
C165 H168 0.950 . S
C166 C165 1.387 1_554 S
C166 C169 1.387 . S
H167 C163 0.950 . S
H168 C165 0.950 . S
C169 C160 1.390 . S
C169 H162 0.950 . S
C169 C166 1.387 . S
C170 C171 1.387 . S
C170 H174 0.950 . S
C170 C179 1.390 . S
C171 C170 1.387 . S
C171 C173 1.387 1_655 S
H172 C179 0.950 . S
C173 C171 1.387 1_455 S
C173 C175 1.390 . S
C173 H177 0.950 . S
H174 C170 0.950 . S
C175 C173 1.390 . S
C175 C176 1.387 . S
C175 H178 0.950 . S
C176 C175 1.387 . S
C176 C179 1.387 1_455 S
H177 C173 0.950 . S
H178 C175 0.950 . S
C179 C170 1.390 . S
C179 H172 0.950 . S
C179 C176 1.387 1_655 S
C180 C181 1.387 . S
C180 H184 0.950 . S
C180 C189 1.390 . S
C181 C180 1.387 . S
C181 C183 1.387 1_445 S
H182 C189 0.950 . S
C183 C181 1.387 1_665 S
C183 C185 1.390 . S
C183 H187 0.950 . S
H184 C180 0.950 . S
C185 C183 1.390 . S
C185 C186 1.387 1_665 S
C185 H188 0.950 . S
C186 C185 1.387 1_445 S
C186 C189 1.387 . S
H187 C183 0.950 . S
H188 C185 0.950 . S
C189 C180 1.390 . S
C189 H182 0.950 . S
C189 C186 1.387 . S
C190 C191 1.387 . S
C190 H194 0.950 . S
C190 C199 1.390 . S
C191 C190 1.387 . S
C191 C193 1.387 1_445 S
H192 C199 0.950 . S
C193 C191 1.387 1_665 S
C193 C195 1.390 . S
C193 H197 0.950 . S
H194 C190 0.950 . S
C195 C193 1.390 . S
C195 C196 1.388 1_565 S
C195 H198 0.950 . S
C196 C195 1.388 1_545 S
C196 C199 1.386 1_655 S
H197 C193 0.950 . S
H198 C195 0.950 . S
C199 C190 1.390 . S
C199 H192 0.950 . S
C199 C196 1.386 1_455 S
C200 C201 1.387 . S
C200 H204 0.950 1_545 S
C200 C209 1.390 1_545 S
C201 C200 1.387 . S
C201 C203 1.387 1_455 S
H202 C209 0.950 . S
C203 C201 1.387 1_655 S
C203 C205 1.390 . S
C203 H207 0.950 . S
H204 C200 0.950 1_565 S
C205 C203 1.390 . S
C205 C206 1.387 1_655 S
C205 H208 0.950 . S
C206 C205 1.387 1_455 S
C206 C209 1.387 1_545 S
H207 C203 0.950 . S
H208 C205 0.950 . S
C209 C200 1.390 1_565 S
C209 H202 0.950 . S
C209 C206 1.387 1_565 S
C121 C10 3.010 . S
C126 C19 3.010 1_554 S
C131 C55 0.881 . S
C136 C46 0.881 . S
C141 C86 0.938 . S
C146 C95 0.938 . S
C151 C90 4.978 . S
C156 C99 4.978 . S
C161 C15 0.552 . S
C166 C6 0.552 . S
C171 C50 3.101 . S
C176 C59 3.101 . S
C181 C49 1.467 1_455 S
C186 C9 1.469 . S
C191 C58 1.452 . S
C196 C89 1.442 . S
C201 C98 1.471 . S
C206 C18 1.448 1_455 S
