# Generated by pormake.
# Topology hex, (8)-cn, num edge types: 1
# Building blocks:
#     Node 0, Type 0, BuildingBlock: XADDAJ01_clean_sbu_3, # of connection points: 8
#     Edge 1, Type (0, 0), BuildingBlock: AJUNOK_clean_linker_0, # of connection points: 2
#     Edge 2, Type (0, 0), BuildingBlock: AJUNOK_clean_linker_0, # of connection points: 2
#     Edge 3, Type (0, 0), BuildingBlock: AJUNOK_clean_linker_0, # of connection points: 2
#     Edge 4, Type (0, 0), BuildingBlock: AJUNOK_clean_linker_0, # of connection points: 2
# Relax obj value: 0.033
# Max RMSD: 0.092
# Mean RMSD: 0.092
data_MOF--net-hex--node1-XADDAJ01_clean_sbu_3--edge1-AJUNOK_clean_linker_0
_symmetry_space_group_name_H-M    P1
_symmetry_Int_Tables_number       1
_symmetry_cell_setting            triclinic
loop_
_symmetry_equiv_pos_as_xyz
'x, y, z'
_cell_length_a     16.887093
_cell_length_b     14.488263
_cell_length_c     10.79027
_cell_angle_alpha  108.34743
_cell_angle_beta   109.73475
_cell_angle_gamma 111.65337
loop_
_atom_site_label
_atom_site_type_symbol
_atom_site_fract_x
_atom_site_fract_y
_atom_site_fract_z
_atom_type_partial_charge
C0 C 0.77053 0.81448 0.91272 0.0
C1 C 0.7315 0.71824 0.93013 0.0
C2 C 0.66014 0.69859 0.97408 0.0
C3 C 0.62936 0.77623 1.00299 0.0
C4 C 0.66783 0.8725 0.98732 0.0
C5 C 0.73767 0.89087 0.94051 0.0
O6 O 0.1005 0.94169 0.18395 0.0
Tb7 Tb 1.00854 0.85421 0.93839 0.0
Tb8 Tb 0.14696 0.15151 0.11122 0.0
O9 O 0.99805 0.69581 0.92375 0.0
O10 O 0.09171 0.10283 0.24926 0.0
O11 O 0.85372 0.74999 0.80075 0.0
C12 C 0.31528 0.18043 0.18554 0.0
O13 O 0.92884 0.93482 0.95533 0.0
O14 O 1.05449 0.05817 0.86613 0.0
O15 O 1.07046 0.90305 0.80645 0.0
C16 C 0.84364 0.83592 0.86265 0.0
C17 C 1.06267 0.29727 0.04417 0.0
O18 O 0.97852 0.1983 0.97126 0.0
C19 C 0.09646 0.02194 0.27649 0.0
C20 C 1.06871 0.98585 0.78176 0.0
O21 O 0.14625 0.30401 0.12013 0.0
C22 C 0.38425 0.19947 0.12768 0.0
C23 C 0.49146 0.14685 0.0595 0.0
C24 C 0.42348 0.12903 0.11011 0.0
C25 C 0.41335 0.28795 0.0932 0.0
C26 C 0.48095 0.3056 0.04196 0.0
C27 C 0.51943 0.23502 0.02572 0.0
C28 C 0.07807 0.69486 0.99538 0.0
O29 O 0.16556 0.78939 0.06647 0.0
O30 O 0.30129 0.26437 0.23988 0.0
O31 O 0.23296 0.07849 0.10309 0.0
H32 H 0.75638 0.65886 0.90992 0.0
H33 H 0.57262 0.75972 0.03353 0.0
H34 H 0.76659 0.9647 0.92618 0.0
H35 H 0.40104 0.0604 0.13581 0.0
H36 H 0.38422 0.3434 0.10676 0.0
H37 H 0.57456 0.25164 0.99189 0.0
C38 C 0.15427 0.49478 0.08183 0.0
C39 C 1.06392 0.39775 0.03222 0.0
C40 C 0.15761 0.58917 0.06781 0.0
C41 C 1.07078 0.59113 1.00344 0.0
H42 H 0.22334 0.49782 0.13094 0.0
H43 H 0.22933 0.66127 0.10791 0.0
S44 S 0.81485 0.36011 0.85945 0.0
N45 N 0.88502 0.31061 0.91815 0.0
N46 N 0.89144 0.48751 0.89209 0.0
C47 C 0.97977 0.4948 0.95367 0.0
C48 C 0.97633 0.39849 0.968 0.0
C49 C 0.5847 0.96763 0.89484 0.0
C50 C 0.62959 0.94916 1.01241 0.0
C51 C 0.53864 0.02997 0.91026 0.0
C52 C 0.53618 0.07625 0.04398 0.0
H53 H 0.58291 0.9311 0.78879 0.0
H54 H 0.50388 0.04127 0.81623 0.0
S55 S 0.65097 0.05998 0.38987 0.0
N56 N 0.67364 0.98656 0.26961 0.0
N57 N 0.58806 0.10528 0.29946 0.0
C58 C 0.58264 0.06028 0.16355 0.0
C59 C 0.62929 0.99655 0.14765 0.0
C60 C 0.5642 0.51533 0.13512 0.0
C61 C 0.51908 0.4033 0.01686 0.0
C62 C 0.61146 0.61038 0.12121 0.0
C63 C 0.61511 0.59657 0.98854 0.0
H64 H 0.5654 0.52968 0.24072 0.0
H65 H 0.64614 0.69553 0.2155 0.0
S66 S 0.50103 0.32042 0.64167 0.0
N67 N 0.47619 0.28303 0.76002 0.0
N68 N 0.56484 0.46228 0.73356 0.0
C69 C 0.56871 0.4849 0.86835 0.0
C70 C 0.5205 0.38807 0.88247 0.0
C71 C 1.0564 0.9027 0.53054 0.0
C72 C 0.08069 0.99806 0.65764 0.0
C73 C 1.06292 0.91199 0.40869 0.0
C74 C 0.09425 0.01708 0.40989 0.0
H75 H 1.03006 0.8197 0.52344 0.0
H76 H 1.04126 0.83539 0.31148 0.0
S77 S 0.17824 0.29573 0.7252 0.0
N78 N 0.14554 0.20333 0.78395 0.0
N79 N 0.15733 0.22037 0.55428 0.0
C80 C 0.12181 0.11399 0.53854 0.0
C81 C 0.11527 0.1046 0.66272 0.0
loop_
_geom_bond_atom_site_label_1
_geom_bond_atom_site_label_2
_geom_bond_distance
_geom_bond_site_symmetry_2
_ccdc_geom_bond_type
C0 C1 1.386 . S
C0 C5 1.384 . S
C0 C16 1.497 . S
C1 C0 1.386 . S
C1 C2 1.393 1_556 S
C1 H32 0.932 . S
C2 C1 1.393 1_554 S
C2 C3 1.387 . S
C3 C2 1.387 . S
C3 C4 1.392 1_554 S
C3 H33 0.930 . S
C4 C3 1.392 1_556 S
C4 C5 1.402 . S
C5 C0 1.384 . S
C5 C4 1.402 . S
C5 H34 0.930 . S
O6 Tb7 2.288 1_554 S
O6 C19 1.257 1_665 S
Tb7 O6 2.288 1_556 S
Tb7 O9 2.303 . S
Tb7 O11 2.430 . S
Tb7 O13 2.459 . S
Tb7 O15 2.301 . S
Tb7 C16 2.808 . S
Tb8 O10 2.301 . S
Tb8 C12 2.808 . S
Tb8 O14 2.288 1_554 S
Tb8 O21 2.303 . S
Tb8 O30 2.430 . S
Tb8 O31 2.459 . S
O9 Tb7 2.303 . S
O9 C28 1.255 1_655 S
O10 Tb8 2.301 . S
O10 C19 1.237 . S
O11 Tb7 2.430 . S
O11 C16 1.248 . S
C12 Tb8 2.808 . S
C12 C22 1.497 . S
C12 O30 1.248 . S
C12 O31 1.260 . S
O13 Tb7 2.459 . S
O13 C16 1.260 . S
O14 Tb8 2.288 1_556 S
O14 C20 1.257 1_445 S
O15 Tb7 2.301 . S
O15 C20 1.237 . S
C16 C0 1.497 . S
C16 Tb7 2.808 . S
C16 O11 1.248 . S
C16 O13 1.260 . S
C17 O18 1.255 . S
C17 O21 1.255 1_655 S
O18 C17 1.255 . S
C19 O6 1.257 1_445 S
C19 O10 1.237 . S
C20 O14 1.257 1_665 S
C20 O15 1.237 . S
O21 Tb8 2.303 . S
O21 C17 1.255 1_455 S
C22 C12 1.497 . S
C22 C24 1.384 . S
C22 C25 1.386 . S
C23 C24 1.402 . S
C23 C27 1.392 1_554 S
C24 C22 1.384 . S
C24 C23 1.402 . S
C24 H35 0.930 . S
C25 C22 1.386 . S
C25 C26 1.393 1_554 S
C25 H36 0.932 . S
C26 C25 1.393 1_556 S
C26 C27 1.387 . S
C27 C23 1.392 1_556 S
C27 C26 1.387 . S
C27 H37 0.930 . S
C28 O9 1.255 1_455 S
C28 O29 1.255 . S
O29 C28 1.255 . S
O30 Tb8 2.430 . S
O30 C12 1.248 . S
O31 Tb8 2.459 . S
O31 C12 1.260 . S
H32 C1 0.932 . S
H33 C3 0.930 . S
H34 C5 0.930 . S
H35 C24 0.930 . S
H36 C25 0.932 . S
H37 C27 0.930 . S
C38 C39 1.369 1_455 S
C38 C40 1.419 . S
C38 H42 0.930 . S
C39 C38 1.369 1_655 S
C39 C48 1.429 1_554 S
C40 C38 1.419 . S
C40 C41 1.363 1_554 S
C40 H43 0.929 . S
C41 C40 1.363 1_556 S
C41 C47 1.428 1_455 S
H42 C38 0.930 . S
H43 C40 0.929 . S
S44 N45 1.613 . S
S44 N46 1.610 . S
N45 S44 1.613 . S
N45 C48 1.350 . S
N46 S44 1.610 . S
N46 C47 1.351 . S
C47 C41 1.428 1_655 S
C47 N46 1.351 . S
C47 C48 1.434 . S
C48 C39 1.429 1_556 S
C48 N45 1.350 . S
C48 C47 1.434 . S
C49 C50 1.369 . S
C49 C51 1.419 . S
C49 H53 0.930 . S
C50 C49 1.369 . S
C50 C59 1.429 1_566 S
C51 C49 1.419 . S
C51 C52 1.363 1_566 S
C51 H54 0.929 . S
C52 C51 1.363 1_544 S
C52 C58 1.428 . S
H53 C49 0.930 . S
H54 C51 0.929 . S
S55 N56 1.613 . S
S55 N57 1.610 . S
N56 S55 1.613 . S
N56 C59 1.350 . S
N57 S55 1.610 . S
N57 C58 1.351 . S
C58 C52 1.428 . S
C58 N57 1.351 . S
C58 C59 1.434 . S
C59 C50 1.429 1_544 S
C59 N56 1.350 . S
C59 C58 1.434 . S
C60 C61 1.369 1_554 S
C60 C62 1.419 . S
C60 H64 0.930 . S
C61 C60 1.369 1_556 S
C61 C70 1.429 . S
C62 C60 1.419 . S
C62 C63 1.363 . S
C62 H65 0.929 . S
C63 C62 1.363 . S
C63 C69 1.428 1_554 S
H64 C60 0.930 . S
H65 C62 0.929 . S
S66 N67 1.613 . S
S66 N68 1.610 . S
N67 S66 1.613 . S
N67 C70 1.350 . S
N68 S66 1.610 . S
N68 C69 1.351 . S
C69 C63 1.428 1_556 S
C69 N68 1.351 . S
C69 C70 1.434 . S
C70 C61 1.429 . S
C70 N67 1.350 . S
C70 C69 1.434 . S
C71 C72 1.361 1_665 S
C71 C73 1.419 . S
C71 H75 0.930 . S
C72 C71 1.361 1_445 S
C72 C81 1.439 . S
C73 C71 1.419 . S
C73 C74 1.356 1_665 S
C73 H76 0.929 . S
C74 C73 1.356 1_445 S
C74 C80 1.434 . S
H75 C71 0.930 . S
H76 C73 0.929 . S
S77 N78 1.613 . S
S77 N79 1.610 . S
N78 S77 1.613 . S
N78 C81 1.350 . S
N79 S77 1.610 . S
N79 C80 1.351 . S
C80 C74 1.434 . S
C80 N79 1.351 . S
C80 C81 1.434 . S
C81 C72 1.439 . S
C81 N78 1.350 . S
C81 C80 1.434 . S
C39 C17 0.639 . S
C41 C28 0.633 . S
C50 C4 2.026 . S
C52 C23 2.031 . S
C61 C26 1.841 . S
C63 C2 1.841 . S
C72 C20 1.489 1_445 S
C74 C19 1.491 . S
