# Generated by pormake.
# Topology mmt, (4)-cn, num edge types: 1
# Building blocks:
#     Node 0, Type 0, BuildingBlock: QUQFOY_clean_sbu_1, # of connection points: 4
#     Node 1, Type 0, BuildingBlock: QUQFOY_clean_sbu_1, # of connection points: 4
#     Node 2, Type 0, BuildingBlock: QUQFOY_clean_sbu_1, # of connection points: 4
#     Node 3, Type 0, BuildingBlock: QUQFOY_clean_sbu_1, # of connection points: 4
#     Node 4, Type 0, BuildingBlock: QUQFOY_clean_sbu_1, # of connection points: 4
#     Node 5, Type 0, BuildingBlock: QUQFOY_clean_sbu_1, # of connection points: 4
#     Node 6, Type 0, BuildingBlock: QUQFOY_clean_sbu_1, # of connection points: 4
#     Node 7, Type 0, BuildingBlock: QUQFOY_clean_sbu_1, # of connection points: 4
#     Edge 8, Type (0, 0), None
#     Edge 9, Type (0, 0), None
#     Edge 10, Type (0, 0), None
#     Edge 11, Type (0, 0), None
#     Edge 12, Type (0, 0), None
#     Edge 13, Type (0, 0), None
#     Edge 14, Type (0, 0), None
#     Edge 15, Type (0, 0), None
#     Edge 16, Type (0, 0), None
#     Edge 17, Type (0, 0), None
#     Edge 18, Type (0, 0), None
#     Edge 19, Type (0, 0), None
#     Edge 20, Type (0, 0), None
#     Edge 21, Type (0, 0), None
#     Edge 22, Type (0, 0), None
#     Edge 23, Type (0, 0), None
# Relax obj value: 0.028
# Max RMSD: 0.105
# Mean RMSD: 0.105
data_MOF--net-mmt--node1-QUQFOY_clean_sbu_1--edge1-none
_symmetry_space_group_name_H-M    P1
_symmetry_Int_Tables_number       1
_symmetry_cell_setting            triclinic
loop_
_symmetry_equiv_pos_as_xyz
'x, y, z'
_cell_length_a     11.318661
_cell_length_b     19.74478
_cell_length_c     20.330577
_cell_angle_alpha  90.000142
_cell_angle_beta   90.0
_cell_angle_gamma 90.000207
loop_
_atom_site_label
_atom_site_type_symbol
_atom_site_fract_x
_atom_site_fract_y
_atom_site_fract_z
_atom_type_partial_charge
O0 O 0.18779 0.58236 0.30542 0.0
Cd1 Cd 0.06035 0.64967 0.33121 0.0
Cd2 Cd 0.02806 0.53917 0.41626 0.0
O3 O 0.19462 0.50743 0.38601 0.0
O4 O 0.11723 0.72956 0.28059 0.0
O5 O 0.11514 0.72702 0.38936 0.0
C6 C 0.14508 0.75745 0.33566 0.0
C7 C -0.04455 0.5395 0.52344 0.0
C8 C 0.23649 0.53213 0.33315 0.0
C9 C 0.84707 0.57054 0.30868 0.0
O10 O 0.89519 0.53021 0.34929 0.0
O11 O 0.89144 0.62846 0.29702 0.0
O12 O -0.0295 0.48342 0.49202 0.0
O13 O -0.00962 0.5951 0.49601 0.0
O14 O 0.16708 0.99706 0.30542 0.0
Cd15 Cd 0.29453 0.92975 0.33121 0.0
Cd16 Cd 0.32681 0.04025 0.41626 0.0
O17 O 0.16025 0.072 0.38601 0.0
O18 O 0.23765 0.84987 0.28059 0.0
O19 O 0.23973 0.85241 0.38936 0.0
C20 C 0.20979 0.82197 0.33566 0.0
C21 C 0.39942 0.03992 0.52344 0.0
C22 C 0.11838 0.0473 0.33315 0.0
C23 C 0.5078 1.00888 0.30868 0.0
O24 O 0.45968 0.04921 0.34929 0.0
O25 O 0.46343 0.95097 0.29702 0.0
O26 O 0.38437 0.09601 0.49202 0.0
O27 O 0.36449 0.98433 0.49601 0.0
O28 O 0.68779 0.49706 0.30675 0.0
Cd29 Cd 0.56034 0.42975 0.28096 0.0
Cd30 Cd 0.52806 0.54025 0.1959 0.0
O31 O 0.69462 0.572 0.22615 0.0
O32 O 0.61723 0.34987 0.33157 0.0
O33 O 0.61514 0.3524 0.22281 0.0
C34 C 0.64508 0.32197 0.27651 0.0
C35 C 0.45545 0.53992 0.08872 0.0
C36 C 0.73648 0.5473 0.27902 0.0
C37 C 0.34708 0.50888 0.30349 0.0
O38 O 0.39519 0.54921 0.26287 0.0
O39 O 0.39144 0.45097 0.31514 0.0
O40 O 0.4705 0.59601 0.12015 0.0
O41 O 0.49038 0.48433 0.11616 0.0
O42 O 0.66708 0.08236 0.30675 0.0
Cd43 Cd 0.79453 0.14967 0.28096 0.0
Cd44 Cd 0.82681 1.03917 0.1959 0.0
O45 O 0.66025 1.00743 0.22615 0.0
O46 O 0.73765 0.22956 0.33157 0.0
O47 O 0.73973 0.22702 0.22281 0.0
C48 C 0.70979 0.25745 0.27651 0.0
C49 C 0.89942 1.0395 0.08872 0.0
C50 C 0.61839 1.03212 0.27902 0.0
C51 C 0.0078 0.07054 0.30349 0.0
O52 O -0.04032 1.03021 0.26287 0.0
O53 O -0.03657 0.12846 0.31514 0.0
O54 O 0.88437 0.98342 0.12014 0.0
O55 O 0.86449 0.0951 0.11616 0.0
O56 O 0.66708 0.49706 0.80675 0.0
Cd57 Cd 0.79453 0.42975 0.78096 0.0
Cd58 Cd 0.82681 0.54025 0.6959 0.0
O59 O 0.66025 0.572 0.72615 0.0
O60 O 0.73765 0.34987 0.83157 0.0
O61 O 0.73973 0.35241 0.72281 0.0
C62 C 0.70979 0.32197 0.77651 0.0
C63 C 0.89942 0.53992 0.58872 0.0
C64 C 0.61838 0.5473 0.77902 0.0
C65 C 0.0078 0.50888 0.80349 0.0
O66 O -0.04032 0.54921 0.76287 0.0
O67 O -0.03657 0.45097 0.81514 0.0
O68 O 0.88437 0.59601 0.62015 0.0
O69 O 0.86449 0.48433 0.61616 0.0
O70 O 0.68779 0.08236 0.80675 0.0
Cd71 Cd 0.56035 0.14967 0.78096 0.0
Cd72 Cd 0.52806 1.03917 0.6959 0.0
O73 O 0.69462 1.00743 0.72615 0.0
O74 O 0.61723 0.22956 0.83157 0.0
O75 O 0.61514 0.22702 0.72281 0.0
C76 C 0.64508 0.25745 0.77651 0.0
C77 C 0.45545 1.0395 0.58872 0.0
C78 C 0.73649 1.03213 0.77902 0.0
C79 C 0.34707 0.07054 0.80349 0.0
O80 O 0.39519 1.03021 0.76287 0.0
O81 O 0.39144 0.12846 0.81514 0.0
O82 O 0.4705 0.98342 0.62014 0.0
O83 O 0.49038 0.0951 0.61616 0.0
O84 O 0.16708 0.58236 0.80541 0.0
Cd85 Cd 0.29453 0.64967 0.83121 0.0
Cd86 Cd 0.32681 0.53917 0.91626 0.0
O87 O 0.16025 0.50743 0.88601 0.0
O88 O 0.23765 0.72956 0.78059 0.0
O89 O 0.23973 0.72702 0.88936 0.0
C90 C 0.20979 0.75745 0.83566 0.0
C91 C 0.39942 0.5395 1.02344 0.0
C92 C 0.11839 0.53212 0.83315 0.0
C93 C 0.50779 0.57054 0.80867 0.0
O94 O 0.45968 0.53021 0.84929 0.0
O95 O 0.46343 0.62846 0.79702 0.0
O96 O 0.38437 0.48342 0.99202 0.0
O97 O 0.36449 0.5951 0.99601 0.0
O98 O 0.18779 0.99706 0.80541 0.0
Cd99 Cd 0.06034 0.92975 0.83121 0.0
Cd100 Cd 0.02806 0.04025 0.91626 0.0
O101 O 0.19462 0.072 0.88601 0.0
O102 O 0.11723 0.84987 0.78059 0.0
O103 O 0.11514 0.85241 0.88936 0.0
C104 C 0.14508 0.82197 0.83566 0.0
C105 C -0.04455 0.03992 1.02344 0.0
C106 C 0.23648 0.0473 0.83315 0.0
C107 C 0.84708 1.00888 0.80867 0.0
O108 O 0.89519 0.04921 0.84929 0.0
O109 O 0.89144 0.95097 0.79702 0.0
O110 O -0.0295 0.09601 0.99202 0.0
O111 O -0.00962 0.98433 0.99601 0.0
loop_
_geom_bond_atom_site_label_1
_geom_bond_atom_site_label_2
_geom_bond_distance
_geom_bond_site_symmetry_2
_ccdc_geom_bond_type
O0 Cd1 2.223 . S
O0 C8 1.315 . S
Cd1 O0 2.223 . S
Cd1 O4 2.297 . S
Cd1 O5 2.439 . S
Cd1 O11 2.240 1_455 S
Cd2 O3 2.240 . S
Cd2 O10 2.223 . S
Cd2 O12 2.297 . S
Cd2 O13 2.439 . S
O3 Cd2 2.240 . S
O3 C8 1.279 . S
O4 Cd1 2.297 . S
O4 C6 1.247 . S
O5 Cd1 2.439 . S
O5 C6 1.208 . S
C6 O4 1.247 . S
C6 O5 1.208 . S
C7 O12 1.247 . S
C7 O13 1.208 . S
C8 O0 1.315 . S
C8 O3 1.279 . S
C9 O10 1.315 1_655 S
C9 O11 1.279 . S
O10 Cd2 2.223 . S
O10 C9 1.315 1_455 S
O11 Cd1 2.240 1_655 S
O11 C9 1.279 . S
O12 Cd2 2.297 . S
O12 C7 1.247 . S
O13 Cd2 2.439 . S
O13 C7 1.208 . S
O14 Cd15 2.223 . S
O14 C22 1.315 . S
Cd15 O14 2.223 . S
Cd15 O18 2.297 . S
Cd15 O19 2.439 . S
Cd15 O25 2.240 . S
Cd16 O17 2.240 1_545 S
Cd16 O24 2.223 . S
Cd16 O26 2.297 . S
Cd16 O27 2.439 1_545 S
O17 Cd16 2.240 1_565 S
O17 C22 1.279 . S
O18 Cd15 2.297 . S
O18 C20 1.247 . S
O19 Cd15 2.439 . S
O19 C20 1.208 . S
C20 O18 1.247 . S
C20 O19 1.208 . S
C21 O26 1.247 1_565 S
C21 O27 1.208 . S
C22 O14 1.315 . S
C22 O17 1.279 . S
C23 O24 1.315 . S
C23 O25 1.279 1_545 S
O24 Cd16 2.223 . S
O24 C23 1.315 . S
O25 Cd15 2.240 . S
O25 C23 1.279 1_565 S
O26 Cd16 2.297 . S
O26 C21 1.247 1_545 S
O27 Cd16 2.439 1_565 S
O27 C21 1.208 . S
O28 Cd29 2.223 . S
O28 C36 1.315 . S
Cd29 O28 2.223 . S
Cd29 O32 2.297 . S
Cd29 O33 2.439 . S
Cd29 O39 2.240 . S
Cd30 O31 2.240 . S
Cd30 O38 2.223 . S
Cd30 O40 2.297 . S
Cd30 O41 2.439 . S
O31 Cd30 2.240 . S
O31 C36 1.279 . S
O32 Cd29 2.297 . S
O32 C34 1.247 . S
O33 Cd29 2.439 . S
O33 C34 1.208 . S
C34 O32 1.247 . S
C34 O33 1.208 . S
C35 O40 1.247 . S
C35 O41 1.208 . S
C36 O28 1.315 . S
C36 O31 1.279 . S
C37 O38 1.315 . S
C37 O39 1.279 . S
O38 Cd30 2.223 . S
O38 C37 1.315 . S
O39 Cd29 2.240 . S
O39 C37 1.279 . S
O40 Cd30 2.297 . S
O40 C35 1.247 . S
O41 Cd30 2.439 . S
O41 C35 1.208 . S
O42 Cd43 2.223 . S
O42 C50 1.315 . S
Cd43 O42 2.223 . S
Cd43 O46 2.297 . S
Cd43 O47 2.439 . S
Cd43 O53 2.240 1_655 S
Cd44 O45 2.240 1_565 S
Cd44 O52 2.223 . S
Cd44 O54 2.297 . S
Cd44 O55 2.439 1_565 S
O45 Cd44 2.240 1_545 S
O45 C50 1.279 . S
O46 Cd43 2.297 . S
O46 C48 1.247 . S
O47 Cd43 2.439 . S
O47 C48 1.208 . S
C48 O46 1.247 . S
C48 O47 1.208 . S
C49 O54 1.247 1_545 S
C49 O55 1.208 . S
C50 O42 1.315 . S
C50 O45 1.279 . S
C51 O52 1.315 1_455 S
C51 O53 1.279 1_565 S
O52 Cd44 2.223 . S
O52 C51 1.315 1_655 S
O53 Cd43 2.240 1_455 S
O53 C51 1.279 1_545 S
O54 Cd44 2.297 . S
O54 C49 1.247 1_565 S
O55 Cd44 2.439 1_545 S
O55 C49 1.208 . S
O56 Cd57 2.223 . S
O56 C64 1.315 . S
Cd57 O56 2.223 . S
Cd57 O60 2.297 . S
Cd57 O61 2.439 . S
Cd57 O67 2.240 1_655 S
Cd58 O59 2.240 . S
Cd58 O66 2.223 . S
Cd58 O68 2.297 . S
Cd58 O69 2.439 . S
O59 Cd58 2.240 . S
O59 C64 1.279 . S
O60 Cd57 2.297 . S
O60 C62 1.247 . S
O61 Cd57 2.439 . S
O61 C62 1.208 . S
C62 O60 1.247 . S
C62 O61 1.208 . S
C63 O68 1.247 . S
C63 O69 1.208 . S
C64 O56 1.315 . S
C64 O59 1.279 . S
C65 O66 1.315 1_455 S
C65 O67 1.279 . S
O66 Cd58 2.223 . S
O66 C65 1.315 1_655 S
O67 Cd57 2.240 1_455 S
O67 C65 1.279 . S
O68 Cd58 2.297 . S
O68 C63 1.247 . S
O69 Cd58 2.439 . S
O69 C63 1.208 . S
O70 Cd71 2.223 . S
O70 C78 1.315 . S
Cd71 O70 2.223 . S
Cd71 O74 2.297 . S
Cd71 O75 2.439 . S
Cd71 O81 2.240 . S
Cd72 O73 2.240 1_565 S
Cd72 O80 2.223 . S
Cd72 O82 2.297 . S
Cd72 O83 2.439 1_565 S
O73 Cd72 2.240 1_545 S
O73 C78 1.279 . S
O74 Cd71 2.297 . S
O74 C76 1.247 . S
O75 Cd71 2.439 . S
O75 C76 1.208 . S
C76 O74 1.247 . S
C76 O75 1.208 . S
C77 O82 1.247 1_545 S
C77 O83 1.208 . S
C78 O70 1.315 . S
C78 O73 1.279 . S
C79 O80 1.315 . S
C79 O81 1.279 1_565 S
O80 Cd72 2.223 . S
O80 C79 1.315 . S
O81 Cd71 2.240 . S
O81 C79 1.279 1_545 S
O82 Cd72 2.297 . S
O82 C77 1.247 1_565 S
O83 Cd72 2.439 1_545 S
O83 C77 1.208 . S
O84 Cd85 2.223 . S
O84 C92 1.315 . S
Cd85 O84 2.223 . S
Cd85 O88 2.297 . S
Cd85 O89 2.439 . S
Cd85 O95 2.240 . S
Cd86 O87 2.240 . S
Cd86 O94 2.223 . S
Cd86 O96 2.297 . S
Cd86 O97 2.439 . S
O87 Cd86 2.240 . S
O87 C92 1.279 . S
O88 Cd85 2.297 . S
O88 C90 1.247 . S
O89 Cd85 2.439 . S
O89 C90 1.208 . S
C90 O88 1.247 . S
C90 O89 1.208 . S
C91 O96 1.247 . S
C91 O97 1.208 . S
C92 O84 1.315 . S
C92 O87 1.279 . S
C93 O94 1.315 . S
C93 O95 1.279 . S
O94 Cd86 2.223 . S
O94 C93 1.315 . S
O95 Cd85 2.240 . S
O95 C93 1.279 . S
O96 Cd86 2.297 . S
O96 C91 1.247 . S
O97 Cd86 2.439 . S
O97 C91 1.208 . S
O98 Cd99 2.223 . S
O98 C106 1.315 . S
Cd99 O98 2.223 . S
Cd99 O102 2.297 . S
Cd99 O103 2.439 . S
Cd99 O109 2.240 1_455 S
Cd100 O101 2.240 1_545 S
Cd100 O108 2.223 . S
Cd100 O110 2.297 . S
Cd100 O111 2.439 1_545 S
O101 Cd100 2.240 1_565 S
O101 C106 1.279 . S
O102 Cd99 2.297 . S
O102 C104 1.247 . S
O103 Cd99 2.439 . S
O103 C104 1.208 . S
C104 O102 1.247 . S
C104 O103 1.208 . S
C105 O110 1.247 1_565 S
C105 O111 1.208 . S
C106 O98 1.315 . S
C106 O101 1.279 . S
C107 O108 1.315 1_655 S
C107 O109 1.279 1_545 S
O108 Cd100 2.223 . S
O108 C107 1.315 1_455 S
O109 Cd99 2.240 1_655 S
O109 C107 1.279 1_565 S
O110 Cd100 2.297 . S
O110 C105 1.247 1_545 S
O111 Cd100 2.439 1_565 S
O111 C105 1.208 . S
C8 C37 1.770 . S
C51 C22 1.770 . S
C36 C9 1.770 . S
C50 C23 1.770 . S
C93 C64 1.770 . S
C78 C107 1.770 . S
C92 C65 1.770 . S
C106 C79 1.770 . S
C7 C63 1.504 1_455 S
C21 C77 1.504 1_565 S
C35 C91 1.504 1_554 S
C105 C49 1.504 1_466 S
C6 C20 1.454 . S
C48 C34 1.454 . S
C76 C62 1.454 . S
C90 C104 1.454 . S
