# Generated by pormake.
# Topology kag, (6)-cn, num edge types: 1
# Building blocks:
#     Node 0, Type 0, BuildingBlock: CUKXOW_clean_sbu_0, # of connection points: 6
#     Node 1, Type 0, BuildingBlock: CUKXOW_clean_sbu_0, # of connection points: 6
#     Node 2, Type 0, BuildingBlock: CUKXOW_clean_sbu_0, # of connection points: 6
#     Edge 3, Type (0, 0), None
#     Edge 4, Type (0, 0), None
#     Edge 5, Type (0, 0), None
#     Edge 6, Type (0, 0), None
#     Edge 7, Type (0, 0), None
#     Edge 8, Type (0, 0), None
#     Edge 9, Type (0, 0), None
#     Edge 10, Type (0, 0), None
#     Edge 11, Type (0, 0), None
# Relax obj value: 0.044
# Max RMSD: 0.159
# Mean RMSD: 0.094
data_MOF--net-kag--node1-CUKXOW_clean_sbu_0--edge1-none
_symmetry_space_group_name_H-M    P1
_symmetry_Int_Tables_number       1
_symmetry_cell_setting            triclinic
loop_
_symmetry_equiv_pos_as_xyz
'x, y, z'
_cell_length_a     12.484997
_cell_length_b     18.255206
_cell_length_c     6.9968688
_cell_angle_alpha  88.514137
_cell_angle_beta   91.135917
_cell_angle_gamma 123.48146
loop_
_atom_site_label
_atom_site_type_symbol
_atom_site_fract_x
_atom_site_fract_y
_atom_site_fract_z
_atom_type_partial_charge
Tb0 Tb 0.15043 0.62019 0.96203 0.0
C1 C 1.07451 0.52669 0.37067 0.0
Tb2 Tb 1.00394 0.43331 -0.01178 0.0
O3 O 0.98632 0.61217 0.82902 0.0
O4 O 0.95484 0.52585 0.04932 0.0
O5 O 0.15963 0.59834 0.27225 0.0
C6 C 0.86154 0.25619 -0.01786 0.0
O7 O 0.98339 0.45531 0.28391 0.0
C8 C 0.25554 0.50426 0.01498 0.0
C9 C 0.0796 0.52681 0.57956 0.0
O10 O 0.97793 0.30576 0.0427 0.0
O11 O 0.82258 0.30596 0.92338 0.0
O12 O 0.16854 0.44198 0.1217 0.0
O13 O 0.19939 0.52755 0.90054 0.0
O14 O 0.99455 0.45515 0.67802 0.0
O15 O 0.17079 0.59817 0.66627 0.0
C16 C 0.29299 0.79731 0.96841 0.0
O17 O 0.17667 0.74782 0.90751 0.0
O18 O 0.3318 0.74746 0.02725 0.0
C19 C 0.89922 0.54972 0.93526 0.0
Tb20 Tb 0.49617 0.06546 0.96839 0.0
C21 C 0.57812 0.02641 0.37163 0.0
Tb22 Tb 0.6587 0.98798 -0.01752 0.0
O23 O 0.31913 0.93905 0.90351 0.0
O24 O 0.46934 0.94442 0.05329 0.0
O25 O 0.53107 0.06625 0.27605 0.0
C26 C 0.69775 0.8618 0.92858 0.0
O27 O 0.619 0.98184 0.28741 0.0
C28 C 0.78985 0.15962 -0.01698 0.0
C29 C 0.57679 0.02708 0.57924 0.0
O30 O 0.77292 0.93086 0.03059 0.0
O31 O 0.60342 0.86461 0.85953 0.0
O32 O 0.83568 0.11457 0.04755 0.0
O33 O 0.68541 0.10884 0.89779 0.0
O34 O 0.62387 0.98726 0.67481 0.0
O35 O 0.53588 0.07164 0.66347 0.0
C36 C 0.45681 0.19154 0.02205 0.0
O37 O 0.38177 0.12245 0.92009 0.0
O38 O 0.55123 0.18884 0.09115 0.0
C39 C 0.36477 0.89389 0.96802 0.0
Tb40 Tb 0.64897 0.6226 -0.02291 0.0
C41 C 0.57708 0.52603 0.57901 0.0
Tb42 Tb 0.50514 0.43063 0.97341 0.0
O43 O 0.82508 0.63319 0.06844 0.0
O44 O 0.69507 0.53106 0.89824 0.0
O45 O 0.61301 0.59918 0.66919 0.0
C46 C 0.45831 0.27132 0.02524 0.0
O47 O 0.54779 0.45323 0.67071 0.0
C48 C 0.35868 0.49429 0.95423 0.0
C49 C 0.57714 0.5272 0.37151 0.0
O50 O 0.3853 0.28825 0.92593 0.0
O51 O 0.55425 0.3428 0.09582 0.0
O52 O 0.32932 0.42058 0.88146 0.0
O53 O 0.45916 0.52208 0.05233 0.0
O54 O 0.54109 0.45403 0.28133 0.0
O55 O 0.60644 0.6 0.27983 0.0
C56 C 0.69601 0.78195 0.9254 0.0
O57 O 0.76889 0.76494 0.02476 0.0
O58 O 0.60001 0.71052 0.85476 0.0
C59 C 0.79589 0.55949 -0.00402 0.0
loop_
_geom_bond_atom_site_label_1
_geom_bond_atom_site_label_2
_geom_bond_distance
_geom_bond_site_symmetry_2
_ccdc_geom_bond_type
Tb0 O3 2.453 1_455 S
Tb0 O4 2.596 1_455 S
Tb0 O5 2.374 1_556 S
Tb0 O13 2.343 1_556 S
Tb0 O15 2.353 1_455 S
Tb0 O17 2.427 . S
Tb0 O18 2.513 1_556 S
C1 O5 1.251 . S
C1 O7 1.263 . S
Tb2 O4 2.343 1_554 S
Tb2 O7 2.353 1_655 S
Tb2 O10 2.427 . S
Tb2 O11 2.513 1_554 S
Tb2 O12 2.453 1_655 S
Tb2 O13 2.596 1_655 S
Tb2 O14 2.374 1_554 S
O3 Tb0 2.453 1_655 S
O3 C19 1.245 . S
O4 Tb0 2.596 1_655 S
O4 Tb2 2.343 1_556 S
O4 C19 1.259 . S
O5 Tb0 2.374 1_554 S
O5 C1 1.251 . S
C6 O10 1.275 1_556 S
C6 O11 1.246 . S
O7 C1 1.263 . S
O7 Tb2 2.353 1_455 S
C8 O12 1.245 . S
C8 O13 1.259 . S
C9 O14 1.250 . S
C9 O15 1.263 . S
O10 Tb2 2.427 . S
O10 C6 1.275 1_554 S
O11 Tb2 2.513 1_556 S
O11 C6 1.246 . S
O12 Tb2 2.453 1_455 S
O12 C8 1.245 . S
O13 Tb0 2.343 1_554 S
O13 Tb2 2.596 1_455 S
O13 C8 1.259 . S
O14 Tb2 2.374 1_556 S
O14 C9 1.250 . S
O15 Tb0 2.353 1_655 S
O15 C9 1.263 . S
C16 O17 1.275 1_554 S
C16 O18 1.246 . S
O17 Tb0 2.427 . S
O17 C16 1.275 1_556 S
O18 Tb0 2.513 1_554 S
O18 C16 1.246 . S
C19 O3 1.245 . S
C19 O4 1.259 . S
Tb20 O23 2.453 1_545 S
Tb20 O24 2.596 1_545 S
Tb20 O25 2.374 1_556 S
Tb20 O33 2.343 1_556 S
Tb20 O35 2.353 . S
Tb20 O37 2.427 . S
Tb20 O38 2.513 1_556 S
C21 O25 1.251 . S
C21 O27 1.263 . S
Tb22 O24 2.343 1_554 S
Tb22 O27 2.353 1_565 S
Tb22 O30 2.427 . S
Tb22 O31 2.513 1_554 S
Tb22 O32 2.453 1_565 S
Tb22 O33 2.596 1_565 S
Tb22 O34 2.374 1_554 S
O23 Tb20 2.453 1_565 S
O23 C39 1.245 . S
O24 Tb20 2.596 1_565 S
O24 Tb22 2.343 1_556 S
O24 C39 1.259 . S
O25 Tb20 2.374 1_554 S
O25 C21 1.251 . S
C26 O30 1.275 . S
C26 O31 1.246 1_554 S
O27 C21 1.263 . S
O27 Tb22 2.353 1_545 S
C28 O32 1.245 . S
C28 O33 1.259 . S
C29 O34 1.250 1_545 S
C29 O35 1.263 . S
O30 Tb22 2.427 . S
O30 C26 1.275 . S
O31 Tb22 2.513 1_556 S
O31 C26 1.246 1_556 S
O32 Tb22 2.453 1_545 S
O32 C28 1.245 . S
O33 Tb20 2.343 1_554 S
O33 Tb22 2.596 1_545 S
O33 C28 1.259 . S
O34 Tb22 2.374 1_556 S
O34 C29 1.250 1_565 S
O35 Tb20 2.353 . S
O35 C29 1.263 . S
C36 O37 1.275 . S
C36 O38 1.246 1_556 S
O37 Tb20 2.427 . S
O37 C36 1.275 . S
O38 Tb20 2.513 1_554 S
O38 C36 1.246 1_554 S
C39 O23 1.245 . S
C39 O24 1.259 . S
Tb40 O43 2.453 . S
Tb40 O44 2.596 . S
Tb40 O45 2.374 1_554 S
Tb40 O53 2.343 1_554 S
Tb40 O55 2.353 . S
Tb40 O57 2.427 . S
Tb40 O58 2.513 1_554 S
C41 O45 1.251 . S
C41 O47 1.263 . S
Tb42 O44 2.343 1_556 S
Tb42 O47 2.353 . S
Tb42 O50 2.427 . S
Tb42 O51 2.513 1_556 S
Tb42 O52 2.453 . S
Tb42 O53 2.596 . S
Tb42 O54 2.374 1_556 S
O43 Tb40 2.453 . S
O43 C59 1.245 . S
O44 Tb40 2.596 . S
O44 Tb42 2.343 1_554 S
O44 C59 1.259 . S
O45 Tb40 2.374 1_556 S
O45 C41 1.251 . S
C46 O50 1.275 . S
C46 O51 1.246 1_556 S
O47 C41 1.263 . S
O47 Tb42 2.353 . S
C48 O52 1.245 . S
C48 O53 1.259 . S
C49 O54 1.250 . S
C49 O55 1.263 . S
O50 Tb42 2.427 . S
O50 C46 1.275 . S
O51 Tb42 2.513 1_554 S
O51 C46 1.246 1_554 S
O52 Tb42 2.453 . S
O52 C48 1.245 . S
O53 Tb40 2.343 1_556 S
O53 Tb42 2.596 . S
O53 C48 1.259 . S
O54 Tb42 2.374 1_554 S
O54 C49 1.250 . S
O55 Tb40 2.353 . S
O55 C49 1.263 . S
C56 O57 1.275 . S
C56 O58 1.246 1_554 S
O57 Tb40 2.427 . S
O57 C56 1.275 . S
O58 Tb40 2.513 1_556 S
O58 C56 1.246 1_556 S
C59 O43 1.245 . S
C59 O44 1.259 . S
C9 C1 1.587 1_655 S
C21 C29 1.458 . S
C41 C49 1.463 . S
C8 C48 1.921 1_554 S
C28 C6 1.907 1_554 S
C26 C56 1.131 . S
C19 C59 1.920 1_556 S
C16 C39 1.907 1_554 S
C46 C36 1.132 . S
