# Generated by pormake.
# Topology mdf, (4)-cn, num edge types: 1
# Building blocks:
#     Node 0, Type 0, BuildingBlock: AZAVOO_clean_sbu_0, # of connection points: 4
#     Node 1, Type 0, BuildingBlock: AZAVOO_clean_sbu_0, # of connection points: 4
#     Node 2, Type 0, BuildingBlock: AZAVOO_clean_sbu_0, # of connection points: 4
#     Node 3, Type 0, BuildingBlock: AZAVOO_clean_sbu_0, # of connection points: 4
#     Node 4, Type 0, BuildingBlock: AZAVOO_clean_sbu_0, # of connection points: 4
#     Node 5, Type 0, BuildingBlock: AZAVOO_clean_sbu_0, # of connection points: 4
#     Node 6, Type 0, BuildingBlock: AZAVOO_clean_sbu_0, # of connection points: 4
#     Node 7, Type 0, BuildingBlock: AZAVOO_clean_sbu_0, # of connection points: 4
#     Edge 8, Type (0, 0), BuildingBlock: EYOCIG_clean_linker_4, # of connection points: 2
#     Edge 9, Type (0, 0), BuildingBlock: EYOCIG_clean_linker_4, # of connection points: 2
#     Edge 10, Type (0, 0), BuildingBlock: EYOCIG_clean_linker_4, # of connection points: 2
#     Edge 11, Type (0, 0), BuildingBlock: EYOCIG_clean_linker_4, # of connection points: 2
#     Edge 12, Type (0, 0), BuildingBlock: EYOCIG_clean_linker_4, # of connection points: 2
#     Edge 13, Type (0, 0), BuildingBlock: EYOCIG_clean_linker_4, # of connection points: 2
#     Edge 14, Type (0, 0), BuildingBlock: EYOCIG_clean_linker_4, # of connection points: 2
#     Edge 15, Type (0, 0), BuildingBlock: EYOCIG_clean_linker_4, # of connection points: 2
#     Edge 16, Type (0, 0), BuildingBlock: EYOCIG_clean_linker_4, # of connection points: 2
#     Edge 17, Type (0, 0), BuildingBlock: EYOCIG_clean_linker_4, # of connection points: 2
#     Edge 18, Type (0, 0), BuildingBlock: EYOCIG_clean_linker_4, # of connection points: 2
#     Edge 19, Type (0, 0), BuildingBlock: EYOCIG_clean_linker_4, # of connection points: 2
#     Edge 20, Type (0, 0), BuildingBlock: EYOCIG_clean_linker_4, # of connection points: 2
#     Edge 21, Type (0, 0), BuildingBlock: EYOCIG_clean_linker_4, # of connection points: 2
#     Edge 22, Type (0, 0), BuildingBlock: EYOCIG_clean_linker_4, # of connection points: 2
#     Edge 23, Type (0, 0), BuildingBlock: EYOCIG_clean_linker_4, # of connection points: 2
# Relax obj value: 0.036
# Max RMSD: 0.046
# Mean RMSD: 0.046
data_MOF--net-mdf--node1-AZAVOO_clean_sbu_0--edge1-EYOCIG_clean_linker_4
_symmetry_space_group_name_H-M    P1
_symmetry_Int_Tables_number       1
_symmetry_cell_setting            triclinic
loop_
_symmetry_equiv_pos_as_xyz
'x, y, z'
_cell_length_a     27.446932
_cell_length_b     27.438699
_cell_length_c     13.067686
_cell_angle_alpha  89.982071
_cell_angle_beta   90.022969
_cell_angle_gamma 96.629308
loop_
_atom_site_label
_atom_site_type_symbol
_atom_site_fract_x
_atom_site_fract_y
_atom_site_fract_z
_atom_type_partial_charge
Mg0 Mg 0.26987 0.54829 0.40167 0.0
O1 O 0.2069 0.49409 0.33808 0.0
O2 O 0.23941 0.44962 0.2175 0.0
Mg3 Mg 0.32167 0.47479 0.20427 0.0
C4 C 0.20309 0.46039 0.27033 0.0
C5 C 0.23042 0.60511 0.57423 0.0
O6 O 0.2733 0.59533 0.60775 0.0
O7 O 0.26987 0.59655 0.25874 0.0
O8 O 0.30725 0.5512 0.14713 0.0
O9 O 0.28708 0.49233 0.51632 0.0
O10 O 0.32085 0.50085 0.36258 0.0
C11 C 0.28848 0.59011 0.17097 0.0
C12 C 0.31579 0.47734 0.44766 0.0
O13 O 0.21608 0.59097 0.48559 0.0
Mg14 Mg 0.43646 0.71475 0.56561 0.0
O15 O 0.49063 0.77777 0.62911 0.0
O16 O 0.53512 0.74528 0.74981 0.0
Mg17 Mg 0.50998 0.663 0.76323 0.0
C18 C 0.52434 0.7816 0.69689 0.0
C19 C 0.37946 0.75408 0.39303 0.0
O20 O 0.38912 0.71113 0.35972 0.0
O21 O 0.38824 0.71477 0.7085 0.0
O22 O 0.4336 0.67742 0.82027 0.0
O23 O 0.4924 0.69755 0.45107 0.0
O24 O 0.48393 0.6638 0.60487 0.0
C25 C 0.39469 0.69618 0.79633 0.0
C26 C 0.50743 0.66887 0.51981 0.0
O27 O 0.39375 0.76851 0.48152 0.0
Mg28 Mg 0.21306 0.93844 0.90157 0.0
O29 O 0.27609 0.99272 0.83853 0.0
O30 O 0.24371 0.03725 0.71774 0.0
Mg31 Mg 0.16149 0.01205 0.70389 0.0
C32 C 0.27997 0.02647 0.77083 0.0
C33 C 0.25226 0.88137 0.07422 0.0
O34 O 0.20927 0.89096 0.10737 0.0
O35 O 0.2133 0.89031 0.75855 0.0
O36 O 0.17602 0.9357 0.64673 0.0
O37 O 0.19566 -0.00573 0.01618 0.0
O38 O 0.16211 0.98588 0.86218 0.0
C39 C 0.1948 0.89679 0.67066 0.0
C40 C 0.16703 0.00931 0.94734 0.0
O41 O 0.26676 0.89572 -0.01418 0.0
Mg42 Mg 0.04669 0.77189 0.0656 0.0
O43 O -0.00737 0.70889 0.12953 0.0
O44 O 0.94829 0.74143 0.25029 0.0
Mg45 Mg 0.97343 0.82371 0.26338 0.0
C46 C 0.95901 0.70508 0.19744 0.0
C47 C 0.1033 0.7324 0.89275 0.0
O48 O 0.09343 0.77525 0.85921 0.0
O49 O 0.09513 0.77197 0.20827 0.0
O50 O 0.0499 0.80934 0.32011 0.0
O51 O 0.99058 0.789 0.95126 0.0
O52 O -0.00073 0.82285 0.10492 0.0
C53 C 0.08879 0.79059 0.29607 0.0
C54 C 0.97564 0.81772 0.01999 0.0
O55 O 0.0893 0.71809 0.98149 0.0
Mg56 Mg 0.76986 0.04816 0.90222 0.0
O57 O 0.70692 -0.006 0.83841 0.0
O58 O 0.73947 0.94959 0.71778 0.0
Mg59 Mg 0.82174 0.97476 0.70473 0.0
C60 C 0.70313 0.96033 0.77058 0.0
C61 C 0.73017 0.10466 0.07505 0.0
O62 O 0.77291 0.09464 0.10891 0.0
O63 O 0.76993 0.0965 0.75938 0.0
O64 O 0.80734 0.05119 0.64773 0.0
O65 O 0.78702 0.99212 0.01675 0.0
O66 O 0.82086 0.00074 0.8631 0.0
C67 C 0.78857 0.0901 0.67163 0.0
C68 C 0.81576 0.97718 0.94811 0.0
O69 O 0.71602 0.09079 -0.01388 0.0
Mg70 Mg 0.93634 0.21472 0.06607 0.0
O71 O 0.99056 0.27774 0.12938 0.0
O72 O 0.03511 0.24527 0.25 0.0
Mg73 Mg 0.00996 0.163 0.26352 0.0
C74 C 0.02431 0.28158 0.19708 0.0
C75 C 0.87924 0.25401 0.8936 0.0
O76 O 0.88883 0.21102 0.86036 0.0
O77 O 0.88821 0.21478 0.20909 0.0
O78 O 0.93362 0.17744 0.32075 0.0
O79 O -0.00781 0.19748 0.95138 0.0
O80 O 0.98381 0.16376 0.10524 0.0
C81 C 0.8947 0.19621 0.29691 0.0
C82 C 0.00725 0.1688 0.0201 0.0
O83 O 0.89359 0.26847 0.98202 0.0
Mg84 Mg 0.71319 0.43847 0.40175 0.0
O85 O 0.77628 0.49265 0.33862 0.0
O86 O 0.74396 0.5372 0.21781 0.0
Mg87 Mg 0.6617 0.51213 0.20402 0.0
C88 C 0.7802 0.52638 0.27088 0.0
C89 C 0.75226 0.38135 0.57445 0.0
O90 O 0.70927 0.39099 0.60751 0.0
O91 O 0.71333 0.39029 0.25878 0.0
O92 O 0.6761 0.43573 0.14694 0.0
O93 O 0.69588 0.49437 0.51632 0.0
O94 O 0.66231 0.48599 0.36233 0.0
C95 C 0.69482 0.39679 0.1709 0.0
C96 C 0.66727 0.50943 0.44747 0.0
O97 O 0.76681 0.39568 0.48607 0.0
Mg98 Mg 0.54656 0.27192 0.56585 0.0
O99 O 0.49242 0.20902 0.62981 0.0
O100 O 0.44808 0.24164 0.75046 0.0
Mg101 Mg 0.47332 0.32391 0.76344 0.0
C102 C 0.45878 0.20526 0.69768 0.0
C103 C 0.60295 0.23213 0.39297 0.0
O104 O 0.59295 0.27488 0.35908 0.0
O105 O 0.59496 0.272 0.70859 0.0
O106 O 0.54974 0.30946 0.82031 0.0
O107 O 0.4905 0.28906 0.45141 0.0
O108 O 0.4992 0.32297 0.60501 0.0
C109 C 0.58861 0.29066 0.79635 0.0
C110 C 0.47559 0.31783 0.52006 0.0
O111 O 0.58911 0.21802 0.48193 0.0
C112 C 0.32832 0.67963 0.94034 0.0
C113 C 0.35496 0.69029 0.86842 0.0
C114 C 0.30512 0.65649 0.0269 0.0
C115 C 0.2944 0.62986 0.09885 0.0
C116 C 0.33202 0.80797 0.26912 0.0
C117 C 0.35374 0.78453 0.32805 0.0
C118 C 0.30609 0.83392 0.19824 0.0
C119 C 0.28268 0.85565 0.13929 0.0
C120 C 0.15526 0.80726 0.43991 0.0
C121 C 0.12859 0.79652 0.36803 0.0
C122 C 0.17839 0.83046 0.52649 0.0
C123 C 0.18899 0.85708 0.59848 0.0
C124 C 0.15063 0.67847 0.76887 0.0
C125 C 0.12897 0.70193 0.82779 0.0
C126 C 0.17653 0.65253 0.69801 0.0
C127 C 0.19996 0.63082 0.63912 0.0
C128 C 0.80522 0.15652 0.52764 0.0
C129 C 0.7945 0.12987 0.59956 0.0
C130 C 0.8284 0.17966 0.44106 0.0
C131 C 0.85502 0.19032 0.36909 0.0
C132 C 0.83186 0.30791 0.76959 0.0
C133 C 0.85356 0.28447 0.82856 0.0
C134 C 0.80598 0.33386 0.69863 0.0
C135 C 0.78262 0.35561 0.6396 0.0
C136 C 0.67826 0.33044 0.02679 0.0
C137 C 0.68893 0.35707 0.09876 0.0
C138 C 0.65508 0.30727 0.94023 0.0
C139 C 0.6284 0.29656 0.86835 0.0
C140 C 0.67621 0.1521 0.19863 0.0
C141 C 0.69968 0.13039 0.13982 0.0
C142 C 0.65029 0.17808 0.26938 0.0
C143 C 0.62862 0.20159 0.32819 0.0
C144 C 0.36714 0.40319 0.47772 0.0
C145 C 0.34306 0.43682 0.46686 0.0
C146 C 0.40133 0.36907 0.49022 0.0
C147 C 0.43501 0.34504 0.501 0.0
C148 C 0.62063 0.90225 0.74274 0.0
C149 C 0.65716 0.93006 0.75887 0.0
C150 C 0.58246 0.86411 0.72443 0.0
C151 C 0.55462 0.82759 0.7084 0.0
C152 C 0.08144 0.11753 -0.01002 0.0
C153 C 0.04778 0.14156 0.00092 0.0
C154 C 0.11562 0.08342 0.97735 0.0
C155 C 0.13971 0.0498 0.96645 0.0
C156 C 0.90093 0.62257 0.2253 0.0
C157 C 0.92874 0.6591 0.20914 0.0
C158 C 0.86276 0.58443 0.24358 0.0
C159 C 0.82622 0.55661 0.25952 0.0
C160 C 0.36248 0.08462 0.74368 0.0
C161 C 0.32595 0.05677 0.75954 0.0
C162 C 0.40064 0.12279 0.7255 0.0
C163 C 0.42846 0.15931 0.70939 0.0
C164 C 0.86711 0.903 0.978 0.0
C165 C 0.84302 0.93664 0.96724 0.0
C166 C 0.90133 0.8689 -0.00964 0.0
C167 C 0.93503 0.8449 0.00104 0.0
C168 C 0.08243 0.36411 0.22448 0.0
C169 C 0.05459 0.32758 0.20852 0.0
C170 C 0.12059 0.40226 0.24269 0.0
C171 C 0.15712 0.4301 0.25874 0.0
C172 C 0.58169 0.61767 0.48992 0.0
C173 C 0.548 0.64167 0.50074 0.0
C174 C 0.61588 0.58357 0.4774 0.0
C175 C 0.63997 0.54994 0.46657 0.0
loop_
_geom_bond_atom_site_label_1
_geom_bond_atom_site_label_2
_geom_bond_distance
_geom_bond_site_symmetry_2
_ccdc_geom_bond_type
Mg0 O1 2.028 . S
Mg0 O7 1.986 . S
Mg0 O9 2.114 . S
Mg0 O10 2.251 . S
Mg0 O13 2.010 . S
O1 Mg0 2.028 . S
O1 C4 1.250 . S
O2 Mg3 2.028 . S
O2 C4 1.248 . S
Mg3 O2 2.028 . S
Mg3 O8 2.032 . S
Mg3 O10 2.079 . S
C4 O1 1.250 . S
C4 O2 1.248 . S
C5 O6 1.264 . S
C5 O13 1.249 . S
O6 C5 1.264 . S
O7 Mg0 1.986 . S
O7 C11 1.246 . S
O8 Mg3 2.032 . S
O8 C11 1.259 . S
O9 Mg0 2.114 . S
O9 C12 1.252 . S
O10 Mg0 2.251 . S
O10 Mg3 2.079 . S
O10 C12 1.273 . S
C11 O7 1.246 . S
C11 O8 1.259 . S
C12 O9 1.252 . S
C12 O10 1.273 . S
O13 Mg0 2.010 . S
O13 C5 1.249 . S
Mg14 O15 2.028 . S
Mg14 O21 1.986 . S
Mg14 O23 2.114 . S
Mg14 O24 2.251 . S
Mg14 O27 2.010 . S
O15 Mg14 2.028 . S
O15 C18 1.250 . S
O16 Mg17 2.028 . S
O16 C18 1.248 . S
Mg17 O16 2.028 . S
Mg17 O22 2.032 . S
Mg17 O24 2.079 . S
C18 O15 1.250 . S
C18 O16 1.248 . S
C19 O20 1.264 . S
C19 O27 1.249 . S
O20 C19 1.264 . S
O21 Mg14 1.986 . S
O21 C25 1.246 . S
O22 Mg17 2.032 . S
O22 C25 1.259 . S
O23 Mg14 2.114 . S
O23 C26 1.252 . S
O24 Mg14 2.251 . S
O24 Mg17 2.079 . S
O24 C26 1.273 . S
C25 O21 1.246 . S
C25 O22 1.259 . S
C26 O23 1.252 . S
C26 O24 1.273 . S
O27 Mg14 2.010 . S
O27 C19 1.249 . S
Mg28 O29 2.028 . S
Mg28 O35 1.986 . S
Mg28 O37 2.114 1_566 S
Mg28 O38 2.251 1_565 S
Mg28 O41 2.010 1_556 S
O29 Mg28 2.028 . S
O29 C32 1.250 1_565 S
O30 Mg31 2.028 . S
O30 C32 1.248 . S
Mg31 O30 2.028 . S
Mg31 O36 2.032 1_545 S
Mg31 O38 2.079 . S
C32 O29 1.250 1_545 S
C32 O30 1.248 . S
C33 O34 1.264 . S
C33 O41 1.249 . S
O34 C33 1.264 . S
O35 Mg28 1.986 . S
O35 C39 1.246 . S
O36 Mg31 2.032 1_565 S
O36 C39 1.259 . S
O37 Mg28 2.114 1_544 S
O37 C40 1.252 1_554 S
O38 Mg28 2.251 1_545 S
O38 Mg31 2.079 . S
O38 C40 1.273 . S
C39 O35 1.246 . S
C39 O36 1.259 . S
C40 O37 1.252 1_556 S
C40 O38 1.273 . S
O41 Mg28 2.010 1_554 S
O41 C33 1.249 . S
Mg42 O43 2.028 . S
Mg42 O49 1.986 . S
Mg42 O51 2.114 1_454 S
Mg42 O52 2.251 1_455 S
Mg42 O55 2.010 1_554 S
O43 Mg42 2.028 . S
O43 C46 1.250 1_455 S
O44 Mg45 2.028 . S
O44 C46 1.248 . S
Mg45 O44 2.028 . S
Mg45 O50 2.032 1_655 S
Mg45 O52 2.079 . S
C46 O43 1.250 1_655 S
C46 O44 1.248 . S
C47 O48 1.264 . S
C47 O55 1.249 . S
O48 C47 1.264 . S
O49 Mg42 1.986 . S
O49 C53 1.246 . S
O50 Mg45 2.032 1_455 S
O50 C53 1.259 . S
O51 Mg42 2.114 1_656 S
O51 C54 1.252 1_556 S
O52 Mg42 2.251 1_655 S
O52 Mg45 2.079 . S
O52 C54 1.273 . S
C53 O49 1.246 . S
C53 O50 1.259 . S
C54 O51 1.252 1_554 S
C54 O52 1.273 . S
O55 Mg42 2.010 1_556 S
O55 C47 1.249 . S
Mg56 O57 2.028 . S
Mg56 O63 1.986 . S
Mg56 O65 2.114 1_546 S
Mg56 O66 2.251 1_545 S
Mg56 O69 2.010 1_556 S
O57 Mg56 2.028 . S
O57 C60 1.250 1_545 S
O58 Mg59 2.028 . S
O58 C60 1.248 . S
Mg59 O58 2.028 . S
Mg59 O64 2.032 1_565 S
Mg59 O66 2.079 . S
C60 O57 1.250 1_565 S
C60 O58 1.248 . S
C61 O62 1.264 . S
C61 O69 1.249 . S
O62 C61 1.264 . S
O63 Mg56 1.986 . S
O63 C67 1.246 . S
O64 Mg59 2.032 1_545 S
O64 C67 1.259 . S
O65 Mg56 2.114 1_564 S
O65 C68 1.252 1_554 S
O66 Mg56 2.251 1_565 S
O66 Mg59 2.079 . S
O66 C68 1.273 . S
C67 O63 1.246 . S
C67 O64 1.259 . S
C68 O65 1.252 1_556 S
C68 O66 1.273 . S
O69 Mg56 2.010 1_554 S
O69 C61 1.249 . S
Mg70 O71 2.028 . S
Mg70 O77 1.986 . S
Mg70 O79 2.114 1_654 S
Mg70 O80 2.251 1_655 S
Mg70 O83 2.010 1_554 S
O71 Mg70 2.028 . S
O71 C74 1.250 1_655 S
O72 Mg73 2.028 . S
O72 C74 1.248 . S
Mg73 O72 2.028 . S
Mg73 O78 2.032 1_455 S
Mg73 O80 2.079 . S
C74 O71 1.250 1_455 S
C74 O72 1.248 . S
C75 O76 1.264 . S
C75 O83 1.249 . S
O76 C75 1.264 . S
O77 Mg70 1.986 . S
O77 C81 1.246 . S
O78 Mg73 2.032 1_655 S
O78 C81 1.259 . S
O79 Mg70 2.114 1_456 S
O79 C82 1.252 1_556 S
O80 Mg70 2.251 1_455 S
O80 Mg73 2.079 . S
O80 C82 1.273 . S
C81 O77 1.246 . S
C81 O78 1.259 . S
C82 O79 1.252 1_554 S
C82 O80 1.273 . S
O83 Mg70 2.010 1_556 S
O83 C75 1.249 . S
Mg84 O85 2.028 . S
Mg84 O91 1.986 . S
Mg84 O93 2.114 . S
Mg84 O94 2.251 . S
Mg84 O97 2.010 . S
O85 Mg84 2.028 . S
O85 C88 1.250 . S
O86 Mg87 2.028 . S
O86 C88 1.248 . S
Mg87 O86 2.028 . S
Mg87 O92 2.032 . S
Mg87 O94 2.079 . S
C88 O85 1.250 . S
C88 O86 1.248 . S
C89 O90 1.264 . S
C89 O97 1.249 . S
O90 C89 1.264 . S
O91 Mg84 1.986 . S
O91 C95 1.246 . S
O92 Mg87 2.032 . S
O92 C95 1.259 . S
O93 Mg84 2.114 . S
O93 C96 1.252 . S
O94 Mg84 2.251 . S
O94 Mg87 2.079 . S
O94 C96 1.273 . S
C95 O91 1.246 . S
C95 O92 1.259 . S
C96 O93 1.252 . S
C96 O94 1.273 . S
O97 Mg84 2.010 . S
O97 C89 1.249 . S
Mg98 O99 2.028 . S
Mg98 O105 1.986 . S
Mg98 O107 2.114 . S
Mg98 O108 2.251 . S
Mg98 O111 2.010 . S
O99 Mg98 2.028 . S
O99 C102 1.250 . S
O100 Mg101 2.028 . S
O100 C102 1.248 . S
Mg101 O100 2.028 . S
Mg101 O106 2.032 . S
Mg101 O108 2.079 . S
C102 O99 1.250 . S
C102 O100 1.248 . S
C103 O104 1.264 . S
C103 O111 1.249 . S
O104 C103 1.264 . S
O105 Mg98 1.986 . S
O105 C109 1.246 . S
O106 Mg101 2.032 . S
O106 C109 1.259 . S
O107 Mg98 2.114 . S
O107 C110 1.252 . S
O108 Mg98 2.251 . S
O108 Mg101 2.079 . S
O108 C110 1.273 . S
C109 O105 1.246 . S
C109 O106 1.259 . S
C110 O107 1.252 . S
C110 O108 1.273 . S
O111 Mg98 2.010 . S
O111 C103 1.249 . S
C112 C113 1.170 . S
C112 C114 1.380 1_556 S
C113 C112 1.170 . S
C114 C112 1.380 1_554 S
C114 C115 1.170 . S
C115 C114 1.170 . S
C116 C117 1.170 . S
C116 C118 1.380 . S
C117 C116 1.170 . S
C118 C116 1.380 . S
C118 C119 1.170 . S
C119 C118 1.170 . S
C120 C121 1.170 . S
C120 C122 1.380 . S
C121 C120 1.170 . S
C122 C120 1.380 . S
C122 C123 1.170 . S
C123 C122 1.170 . S
C124 C125 1.170 . S
C124 C126 1.380 . S
C125 C124 1.170 . S
C126 C124 1.380 . S
C126 C127 1.170 . S
C127 C126 1.170 . S
C128 C129 1.170 . S
C128 C130 1.380 . S
C129 C128 1.170 . S
C130 C128 1.380 . S
C130 C131 1.170 . S
C131 C130 1.170 . S
C132 C133 1.170 . S
C132 C134 1.380 . S
C133 C132 1.170 . S
C134 C132 1.380 . S
C134 C135 1.170 . S
C135 C134 1.170 . S
C136 C137 1.170 . S
C136 C138 1.380 1_554 S
C137 C136 1.170 . S
C138 C136 1.380 1_556 S
C138 C139 1.170 . S
C139 C138 1.170 . S
C140 C141 1.170 . S
C140 C142 1.380 . S
C141 C140 1.170 . S
C142 C140 1.380 . S
C142 C143 1.170 . S
C143 C142 1.170 . S
C144 C145 1.170 . S
C144 C146 1.380 . S
C145 C144 1.170 . S
C146 C144 1.380 . S
C146 C147 1.170 . S
C147 C146 1.170 . S
C148 C149 1.170 . S
C148 C150 1.380 . S
C149 C148 1.170 . S
C150 C148 1.380 . S
C150 C151 1.170 . S
C151 C150 1.170 . S
C152 C153 1.170 1_556 S
C152 C154 1.380 . S
C153 C152 1.170 1_554 S
C154 C152 1.380 . S
C154 C155 1.170 . S
C155 C154 1.170 . S
C156 C157 1.170 . S
C156 C158 1.380 . S
C157 C156 1.170 . S
C158 C156 1.380 . S
C158 C159 1.170 . S
C159 C158 1.170 . S
C160 C161 1.170 . S
C160 C162 1.380 . S
C161 C160 1.170 . S
C162 C160 1.380 . S
C162 C163 1.170 . S
C163 C162 1.170 . S
C164 C165 1.170 . S
C164 C166 1.380 1_556 S
C165 C164 1.170 . S
C166 C164 1.380 1_554 S
C166 C167 1.170 . S
C167 C166 1.170 . S
C168 C169 1.170 . S
C168 C170 1.380 . S
C169 C168 1.170 . S
C170 C168 1.380 . S
C170 C171 1.170 . S
C171 C170 1.170 . S
C172 C173 1.170 . S
C172 C174 1.380 . S
C173 C172 1.170 . S
C174 C172 1.380 . S
C174 C175 1.170 . S
C175 C174 1.170 . S
C113 C25 1.384 . S
C115 C11 1.394 . S
C117 C19 1.223 . S
C119 C33 1.276 . S
C121 C53 1.377 . S
C123 C39 1.370 . S
C125 C47 1.211 . S
C127 C5 1.266 . S
C129 C67 1.369 . S
C131 C81 1.375 . S
C133 C75 1.255 . S
C135 C89 1.205 . S
C137 C95 1.376 . S
C139 C109 1.387 . S
C141 C61 1.247 . S
C143 C103 1.283 . S
C145 C12 1.491 . S
C147 C110 1.482 . S
C149 C60 1.431 . S
C151 C18 1.443 . S
C153 C82 1.490 . S
C155 C40 1.481 . S
C157 C46 1.429 . S
C159 C88 1.443 . S
C161 C32 1.436 . S
C163 C102 1.414 . S
C165 C68 1.488 . S
C167 C54 1.490 . S
C169 C74 1.436 . S
C171 C4 1.442 . S
C173 C26 1.481 . S
C175 C96 1.485 . S
