# Generated by pormake.
# Topology wht, (6)-cn, num edge types: 1
# Building blocks:
#     Node 0, Type 0, BuildingBlock: MIDCAF_clean_sbu_0, # of connection points: 6
#     Node 1, Type 0, BuildingBlock: MIDCAF_clean_sbu_0, # of connection points: 6
#     Node 2, Type 0, BuildingBlock: MIDCAF_clean_sbu_0, # of connection points: 6
#     Node 3, Type 0, BuildingBlock: MIDCAF_clean_sbu_0, # of connection points: 6
#     Node 4, Type 0, BuildingBlock: MIDCAF_clean_sbu_0, # of connection points: 6
#     Node 5, Type 0, BuildingBlock: MIDCAF_clean_sbu_0, # of connection points: 6
#     Node 6, Type 0, BuildingBlock: MIDCAF_clean_sbu_0, # of connection points: 6
#     Node 7, Type 0, BuildingBlock: MIDCAF_clean_sbu_0, # of connection points: 6
#     Edge 8, Type (0, 0), None
#     Edge 9, Type (0, 0), None
#     Edge 10, Type (0, 0), None
#     Edge 11, Type (0, 0), None
#     Edge 12, Type (0, 0), None
#     Edge 13, Type (0, 0), None
#     Edge 14, Type (0, 0), None
#     Edge 15, Type (0, 0), None
#     Edge 16, Type (0, 0), None
#     Edge 17, Type (0, 0), None
#     Edge 18, Type (0, 0), None
#     Edge 19, Type (0, 0), None
#     Edge 20, Type (0, 0), None
#     Edge 21, Type (0, 0), None
#     Edge 22, Type (0, 0), None
#     Edge 23, Type (0, 0), None
#     Edge 24, Type (0, 0), None
#     Edge 25, Type (0, 0), None
#     Edge 26, Type (0, 0), None
#     Edge 27, Type (0, 0), None
#     Edge 28, Type (0, 0), None
#     Edge 29, Type (0, 0), None
#     Edge 30, Type (0, 0), None
#     Edge 31, Type (0, 0), None
# Relax obj value: 0.314
# Max RMSD: 0.223
# Mean RMSD: 0.223
data_MOF--net-wht--node1-MIDCAF_clean_sbu_0--edge1-none
_symmetry_space_group_name_H-M    P1
_symmetry_Int_Tables_number       1
_symmetry_cell_setting            triclinic
loop_
_symmetry_equiv_pos_as_xyz
'x, y, z'
_cell_length_a     12.829587
_cell_length_b     12.866048
_cell_length_c     18.692259
_cell_angle_alpha  90.31073
_cell_angle_beta   90.10809
_cell_angle_gamma 90.252566
loop_
_atom_site_label
_atom_site_type_symbol
_atom_site_fract_x
_atom_site_fract_y
_atom_site_fract_z
_atom_type_partial_charge
Zn0 Zn 0.0913 0.05717 0.33523 0.0
Zn1 Zn 0.03601 0.35571 0.07553 0.0
Zn2 Zn 0.07391 0.24414 0.17412 0.0
C3 C 0.17947 0.20387 0.03316 0.0
C4 C 0.85136 0.2779 0.08939 0.0
O5 O 0.14807 0.1967 0.26901 0.0
O6 O 0.19394 0.17034 0.37905 0.0
C7 C 0.17249 0.00526 0.1787 0.0
O8 O 0.14621 0.15918 0.08945 0.0
O9 O 0.15312 0.29618 0.01983 0.0
O10 O 0.90379 0.31716 0.04013 0.0
O11 O 0.89681 0.25313 0.14902 0.0
O12 O 0.15092 0.97702 0.24274 0.0
O13 O 0.1516 0.09711 0.15561 0.0
O14 O 0.91732 0.20504 0.21227 0.0
O15 O 0.97017 0.16442 0.3195 0.0
C16 C 0.90466 0.15168 0.26991 0.0
O17 O 0.16519 0.39161 0.15486 0.0
O18 O 0.04992 0.50035 0.11412 0.0
C19 C 0.18354 0.2336 0.3277 0.0
C20 C 0.14272 0.48283 0.13238 0.0
Zn21 Zn 0.40099 0.58705 0.58673 0.0
Zn22 Zn 0.09533 0.52862 0.32452 0.0
Zn23 Zn 0.21243 0.56952 0.42516 0.0
C24 C 0.25164 0.67381 0.28429 0.0
C25 C 0.17774 0.3459 0.33958 0.0
O26 O 0.25866 0.64106 0.52174 0.0
O27 O 0.2891 0.68922 0.63115 0.0
C28 C 0.45122 0.67021 0.43076 0.0
O29 O 0.29492 0.64472 0.34219 0.0
O30 O 0.16085 0.64295 0.26841 0.0
O31 O 0.13045 0.39489 0.29202 0.0
O32 O 0.20688 0.3933 0.39786 0.0
O33 O 0.4802 0.64817 0.49463 0.0
O34 O 0.35897 0.6489 0.40742 0.0
O35 O 0.25483 0.41373 0.46163 0.0
O36 O 0.29433 0.46472 0.57002 0.0
C37 C 0.30799 0.40087 0.51963 0.0
O38 O 0.06578 0.66004 0.40249 0.0
O39 O 0.9515 0.54711 0.36383 0.0
C40 C 0.22457 0.68029 0.5799 0.0
C41 C 0.97295 0.63959 0.38089 0.0
Zn42 Zn 0.87128 0.9035 0.83704 0.0
Zn43 Zn 0.92718 0.60847 0.57446 0.0
Zn44 Zn 0.8898 0.71518 0.67508 0.0
C45 C 0.78354 0.75656 0.53376 0.0
C46 C 0.11179 0.68507 0.59073 0.0
O47 O 0.8154 0.76223 0.77036 0.0
O48 O 0.76863 0.79058 0.88009 0.0
C49 C 0.79214 0.95454 0.68008 0.0
O50 O 0.81807 0.80043 0.59045 0.0
O51 O 0.80848 0.6641 0.51938 0.0
O52 O 0.05818 0.65242 0.53944 0.0
O53 O 0.06696 0.705 0.65144 0.0
O54 O 0.81267 -0.01694 0.74448 0.0
O55 O 0.81312 0.86249 0.65679 0.0
O56 O 0.04561 0.75409 0.71438 0.0
O57 O -0.00762 0.79643 0.82139 0.0
C58 C 0.05722 0.80922 0.7717 0.0
O59 O 0.80023 0.56692 0.65421 0.0
O60 O 0.91721 0.46251 0.61014 0.0
C61 C 0.77895 0.72648 0.82877 0.0
C62 C 0.82453 0.47683 0.62991 0.0
Zn63 Zn 0.5634 0.37349 0.08667 0.0
Zn64 Zn 0.86337 0.43135 0.82528 0.0
Zn65 Zn 0.75048 0.39161 0.92486 0.0
C66 C 0.70928 0.28723 0.78335 0.0
C67 C 0.78234 0.61413 0.84037 0.0
O68 O 0.70347 0.31765 0.02006 0.0
O69 O 0.67446 0.26936 0.12924 0.0
C70 C 0.5106 0.29279 0.92998 0.0
O71 O 0.66553 0.31845 0.84069 0.0
O72 O 0.80113 0.31552 0.76882 0.0
O73 O 0.82544 0.56337 0.79161 0.0
O74 O 0.75661 0.56815 0.89951 0.0
O75 O 0.48221 0.31456 0.99409 0.0
O76 O 0.60291 0.31352 0.90685 0.0
O77 O 0.71209 0.54731 0.96423 0.0
O78 O 0.67271 0.49385 0.07149 0.0
C79 C 0.65964 0.5594 0.02254 0.0
O80 O 0.89756 0.30152 0.90285 0.0
O81 O 0.00847 0.41603 0.86281 0.0
C82 C 0.73851 0.27903 0.07801 0.0
C83 C -0.01057 0.32354 0.88045 0.0
Zn84 Zn 0.53482 0.07861 0.64966 0.0
Zn85 Zn 0.63076 0.39313 0.44463 0.0
Zn86 Zn 0.59711 0.21898 0.57292 0.0
C87 C 0.41429 0.3616 0.51277 0.0
C88 C 0.74514 0.41915 0.58873 0.0
O89 O 0.71305 0.10839 0.6281 0.0
O90 O 0.62739 0.96105 0.62996 0.0
C91 C 0.3589 0.1383 0.6186 0.0
O92 O 0.4489 0.29732 0.56014 0.0
O93 O 0.47275 0.40158 0.46523 0.0
O94 O 0.72951 0.44704 0.52435 0.0
O95 O 0.70197 0.33774 0.6143 0.0
O96 O 0.39115 0.04729 0.62747 0.0
O97 O 0.42448 0.2117 0.60392 0.0
O98 O 0.6868 0.24559 0.66355 0.0
O99 O 0.57326 0.17608 0.73822 0.0
C100 C 0.65205 0.23398 0.72728 0.0
O101 O 0.63722 0.20801 0.46787 0.0
O102 O 0.67698 0.28394 0.36818 0.0
C103 C 0.71094 0.01024 0.64014 0.0
C104 C 0.66209 0.201 0.40261 0.0
Zn105 Zn 0.38637 0.03299 0.89622 0.0
Zn106 Zn 0.06744 0.12926 0.69415 0.0
Zn107 Zn 0.24373 0.09696 0.82234 0.0
C108 C 0.09649 0.9152 0.76385 0.0
C109 C 0.04533 0.24381 0.83917 0.0
O110 O 0.35556 0.21265 0.87818 0.0
O111 O 0.50327 0.12814 0.88001 0.0
C112 C 0.32267 0.85981 0.86229 0.0
O113 O 0.16104 0.95106 0.81117 0.0
O114 O 0.05764 0.97178 0.715 0.0
O115 O 0.01559 0.22719 0.77502 0.0
O116 O 0.12787 0.20224 0.86413 0.0
O117 O 0.41531 0.89159 0.86249 0.0
O118 O 0.24869 0.92633 0.85403 0.0
O119 O 0.22188 0.18587 0.9134 0.0
O120 O 0.2872 0.06714 0.9855 0.0
C121 C 0.23186 0.14784 0.97631 0.0
O122 O 0.25302 0.13666 0.71799 0.0
O123 O 0.1775 0.17523 0.61788 0.0
C124 C 0.4541 0.21108 0.89035 0.0
C125 C 0.26052 0.1611 0.65289 0.0
Zn126 Zn 0.33771 0.57383 0.95341 0.0
Zn127 Zn 0.42921 0.88208 0.15476 0.0
Zn128 Zn 0.36971 0.7396 0.07459 0.0
C129 C 0.30921 0.72814 0.22946 0.0
C130 C 0.60668 0.82239 0.12717 0.0
O131 O 0.3324 0.77978 0.97107 0.0
O132 O 0.29239 0.67999 0.87887 0.0
C133 C 0.2223 0.53906 0.09113 0.0
O134 O 0.27706 0.71578 0.16493 0.0
O135 O 0.38672 0.78703 0.24224 0.0
O136 O 0.57403 0.91224 0.14063 0.0
O137 O 0.54227 0.74988 0.10751 0.0
O138 O 0.23808 0.50999 0.02702 0.0
O139 O 0.26439 0.62191 0.11575 0.0
O140 O 0.51914 0.66335 0.06379 0.0
O141 O 0.4947 0.55896 0.9687 0.0
C142 C 0.55361 0.59892 0.01618 0.0
O143 O 0.25237 0.84986 0.12882 0.0
O144 O 0.33687 -0.00221 0.12821 0.0
C145 C 0.30477 0.76941 0.90614 0.0
C146 C 0.25354 0.94865 0.1389 0.0
Zn147 Zn 0.90224 0.82945 0.19092 0.0
Zn148 Zn 0.57701 0.92892 0.40012 0.0
Zn149 Zn 0.7166 0.86517 0.3233 0.0
C150 C 0.73186 0.81389 0.47767 0.0
C151 C 0.63868 0.10322 0.36729 0.0
O152 O 0.72692 0.8207 0.22019 0.0
O153 O 0.78697 0.78271 0.11592 0.0
C154 C 0.91787 0.7195 0.33956 0.0
O155 O 0.74381 0.77862 0.41403 0.0
O156 O 0.67478 0.89286 0.48852 0.0
O157 O 0.54684 0.07136 0.37525 0.0
O158 O 0.71183 0.03754 0.35318 0.0
O159 O 0.94793 0.73458 0.27539 0.0
O160 O 0.83521 0.76168 0.36435 0.0
O161 O 0.79742 0.01226 0.30885 0.0
O162 O 0.90584 -0.01293 0.21545 0.0
C163 C 0.86402 0.04589 0.26231 0.0
O164 O 0.60471 0.75046 0.37808 0.0
O165 O 0.45791 0.83613 0.38379 0.0
C166 C 0.70891 0.79845 0.15556 0.0
C167 C 0.50682 0.75265 0.39202 0.0
loop_
_geom_bond_atom_site_label_1
_geom_bond_atom_site_label_2
_geom_bond_distance
_geom_bond_site_symmetry_2
_ccdc_geom_bond_type
Zn0 O6 1.920 . S
Zn0 O12 1.898 . S
Zn0 O15 1.905 1_455 S
Zn1 O9 1.905 . S
Zn1 O10 1.898 1_456 S
Zn1 O18 1.920 1_556 S
Zn2 O5 2.080 . S
Zn2 O8 2.114 . S
Zn2 O11 2.120 1_455 S
Zn2 O13 2.120 . S
Zn2 O14 2.114 1_455 S
Zn2 O17 2.080 . S
C3 O8 1.166 1_556 S
C3 O9 1.182 . S
C4 O10 1.167 . S
C4 O11 1.299 . S
O5 Zn2 2.080 . S
O5 C19 1.305 . S
O6 Zn0 1.920 . S
O6 C19 1.234 . S
C7 O12 1.167 . S
C7 O13 1.299 . S
O8 Zn2 2.114 . S
O8 C3 1.166 1_554 S
O9 Zn1 1.905 . S
O9 C3 1.182 . S
O10 Zn1 1.898 1_654 S
O10 C4 1.167 . S
O11 Zn2 2.120 1_655 S
O11 C4 1.299 . S
O12 Zn0 1.898 . S
O12 C7 1.167 . S
O13 Zn2 2.120 . S
O13 C7 1.299 . S
O14 Zn2 2.114 1_655 S
O14 C16 1.166 . S
O15 Zn0 1.905 1_655 S
O15 C16 1.182 . S
C16 O14 1.166 . S
C16 O15 1.182 . S
O17 Zn2 2.080 . S
O17 C20 1.305 . S
O18 Zn1 1.920 1_554 S
O18 C20 1.234 . S
C19 O5 1.305 . S
C19 O6 1.234 . S
C20 O17 1.305 . S
C20 O18 1.234 . S
Zn21 O27 1.920 . S
Zn21 O33 1.898 . S
Zn21 O36 1.905 . S
Zn22 O30 1.905 . S
Zn22 O31 1.898 . S
Zn22 O39 1.920 . S
Zn23 O26 2.080 . S
Zn23 O29 2.114 . S
Zn23 O32 2.120 . S
Zn23 O34 2.120 . S
Zn23 O35 2.114 . S
Zn23 O38 2.080 . S
C24 O29 1.166 . S
C24 O30 1.182 . S
C25 O31 1.167 . S
C25 O32 1.299 . S
O26 Zn23 2.080 . S
O26 C40 1.305 . S
O27 Zn21 1.920 . S
O27 C40 1.234 . S
C28 O33 1.167 . S
C28 O34 1.299 . S
O29 Zn23 2.114 . S
O29 C24 1.166 . S
O30 Zn22 1.905 . S
O30 C24 1.182 . S
O31 Zn22 1.898 . S
O31 C25 1.167 . S
O32 Zn23 2.120 . S
O32 C25 1.299 . S
O33 Zn21 1.898 . S
O33 C28 1.167 . S
O34 Zn23 2.120 . S
O34 C28 1.299 . S
O35 Zn23 2.114 . S
O35 C37 1.166 . S
O36 Zn21 1.905 . S
O36 C37 1.182 . S
C37 O35 1.166 . S
C37 O36 1.182 . S
O38 Zn23 2.080 . S
O38 C41 1.305 . S
O39 Zn22 1.920 . S
O39 C41 1.234 . S
C40 O26 1.305 . S
C40 O27 1.234 . S
C41 O38 1.305 . S
C41 O39 1.234 . S
Zn42 O48 1.920 . S
Zn42 O54 1.898 . S
Zn42 O57 1.905 1_655 S
Zn43 O51 1.905 . S
Zn43 O52 1.898 1_655 S
Zn43 O60 1.920 . S
Zn44 O47 2.080 . S
Zn44 O50 2.114 . S
Zn44 O53 2.120 1_655 S
Zn44 O55 2.120 . S
Zn44 O56 2.114 1_655 S
Zn44 O59 2.080 . S
C45 O50 1.166 . S
C45 O51 1.182 . S
C46 O52 1.167 . S
C46 O53 1.299 . S
O47 Zn44 2.080 . S
O47 C61 1.305 . S
O48 Zn42 1.920 . S
O48 C61 1.234 . S
C49 O54 1.167 . S
C49 O55 1.299 . S
O50 Zn44 2.114 . S
O50 C45 1.166 . S
O51 Zn43 1.905 . S
O51 C45 1.182 . S
O52 Zn43 1.898 1_455 S
O52 C46 1.167 . S
O53 Zn44 2.120 1_455 S
O53 C46 1.299 . S
O54 Zn42 1.898 . S
O54 C49 1.167 . S
O55 Zn44 2.120 . S
O55 C49 1.299 . S
O56 Zn44 2.114 1_455 S
O56 C58 1.166 . S
O57 Zn42 1.905 1_455 S
O57 C58 1.182 . S
C58 O56 1.166 . S
C58 O57 1.182 . S
O59 Zn44 2.080 . S
O59 C62 1.305 . S
O60 Zn43 1.920 . S
O60 C62 1.234 . S
C61 O47 1.305 . S
C61 O48 1.234 . S
C62 O59 1.305 . S
C62 O60 1.234 . S
Zn63 O69 1.920 . S
Zn63 O75 1.898 . S
Zn63 O78 1.905 . S
Zn64 O72 1.905 . S
Zn64 O73 1.898 . S
Zn64 O81 1.920 . S
Zn65 O68 2.080 . S
Zn65 O71 2.114 . S
Zn65 O74 2.120 . S
Zn65 O76 2.120 . S
Zn65 O77 2.114 . S
Zn65 O80 2.080 . S
C66 O71 1.166 . S
C66 O72 1.182 . S
C67 O73 1.167 . S
C67 O74 1.299 . S
O68 Zn65 2.080 . S
O68 C82 1.305 1_556 S
O69 Zn63 1.920 . S
O69 C82 1.234 . S
C70 O75 1.167 1_556 S
C70 O76 1.299 . S
O71 Zn65 2.114 . S
O71 C66 1.166 . S
O72 Zn64 1.905 . S
O72 C66 1.182 . S
O73 Zn64 1.898 . S
O73 C67 1.167 . S
O74 Zn65 2.120 . S
O74 C67 1.299 . S
O75 Zn63 1.898 . S
O75 C70 1.167 1_554 S
O76 Zn65 2.120 . S
O76 C70 1.299 . S
O77 Zn65 2.114 . S
O77 C79 1.166 . S
O78 Zn63 1.905 . S
O78 C79 1.182 1_554 S
C79 O77 1.166 . S
C79 O78 1.182 1_556 S
O80 Zn65 2.080 . S
O80 C83 1.305 . S
O81 Zn64 1.920 . S
O81 C83 1.234 . S
C82 O68 1.305 1_554 S
C82 O69 1.234 . S
C83 O80 1.305 . S
C83 O81 1.234 . S
Zn84 O90 1.920 . S
Zn84 O96 1.898 . S
Zn84 O99 1.905 . S
Zn85 O93 1.905 . S
Zn85 O94 1.898 . S
Zn85 O102 1.920 . S
Zn86 O89 2.080 . S
Zn86 O92 2.114 . S
Zn86 O95 2.120 . S
Zn86 O97 2.120 . S
Zn86 O98 2.114 . S
Zn86 O101 2.080 . S
C87 O92 1.166 . S
C87 O93 1.182 . S
C88 O94 1.167 . S
C88 O95 1.299 . S
O89 Zn86 2.080 . S
O89 C103 1.305 . S
O90 Zn84 1.920 . S
O90 C103 1.234 . S
C91 O96 1.167 . S
C91 O97 1.299 . S
O92 Zn86 2.114 . S
O92 C87 1.166 . S
O93 Zn85 1.905 . S
O93 C87 1.182 . S
O94 Zn85 1.898 . S
O94 C88 1.167 . S
O95 Zn86 2.120 . S
O95 C88 1.299 . S
O96 Zn84 1.898 . S
O96 C91 1.167 . S
O97 Zn86 2.120 . S
O97 C91 1.299 . S
O98 Zn86 2.114 . S
O98 C100 1.166 . S
O99 Zn84 1.905 . S
O99 C100 1.182 . S
C100 O98 1.166 . S
C100 O99 1.182 . S
O101 Zn86 2.080 . S
O101 C104 1.305 . S
O102 Zn85 1.920 . S
O102 C104 1.234 . S
C103 O89 1.305 . S
C103 O90 1.234 . S
C104 O101 1.305 . S
C104 O102 1.234 . S
Zn105 O111 1.920 1_554 S
Zn105 O117 1.898 1_544 S
Zn105 O120 1.905 . S
Zn106 O114 1.905 1_545 S
Zn106 O115 1.898 . S
Zn106 O123 1.920 . S
Zn107 O110 2.080 . S
Zn107 O113 2.114 1_545 S
Zn107 O116 2.120 . S
Zn107 O118 2.120 1_545 S
Zn107 O119 2.114 . S
Zn107 O122 2.080 . S
C108 O113 1.166 . S
C108 O114 1.182 . S
C109 O115 1.167 . S
C109 O116 1.299 . S
O110 Zn107 2.080 . S
O110 C124 1.305 . S
O111 Zn105 1.920 1_556 S
O111 C124 1.234 . S
C112 O117 1.167 . S
C112 O118 1.299 . S
O113 Zn107 2.114 1_565 S
O113 C108 1.166 . S
O114 Zn106 1.905 1_565 S
O114 C108 1.182 . S
O115 Zn106 1.898 . S
O115 C109 1.167 . S
O116 Zn107 2.120 . S
O116 C109 1.299 . S
O117 Zn105 1.898 1_566 S
O117 C112 1.167 . S
O118 Zn107 2.120 1_565 S
O118 C112 1.299 . S
O119 Zn107 2.114 . S
O119 C121 1.166 1_556 S
O120 Zn105 1.905 . S
O120 C121 1.182 . S
C121 O119 1.166 1_554 S
C121 O120 1.182 . S
O122 Zn107 2.080 . S
O122 C125 1.305 . S
O123 Zn106 1.920 . S
O123 C125 1.234 . S
C124 O110 1.305 . S
C124 O111 1.234 . S
C125 O122 1.305 . S
C125 O123 1.234 . S
Zn126 O132 1.920 . S
Zn126 O138 1.898 . S
Zn126 O141 1.905 . S
Zn127 O135 1.905 . S
Zn127 O136 1.898 . S
Zn127 O144 1.920 . S
Zn128 O131 2.080 . S
Zn128 O134 2.114 . S
Zn128 O137 2.120 . S
Zn128 O139 2.120 . S
Zn128 O140 2.114 . S
Zn128 O143 2.080 . S
C129 O134 1.166 . S
C129 O135 1.182 . S
C130 O136 1.167 . S
C130 O137 1.299 . S
O131 Zn128 2.080 . S
O131 C145 1.305 1_554 S
O132 Zn126 1.920 . S
O132 C145 1.234 . S
C133 O138 1.167 1_554 S
C133 O139 1.299 . S
O134 Zn128 2.114 . S
O134 C129 1.166 . S
O135 Zn127 1.905 . S
O135 C129 1.182 . S
O136 Zn127 1.898 . S
O136 C130 1.167 . S
O137 Zn128 2.120 . S
O137 C130 1.299 . S
O138 Zn126 1.898 . S
O138 C133 1.167 1_556 S
O139 Zn128 2.120 . S
O139 C133 1.299 . S
O140 Zn128 2.114 . S
O140 C142 1.166 . S
O141 Zn126 1.905 . S
O141 C142 1.182 1_556 S
C142 O140 1.166 . S
C142 O141 1.182 1_554 S
O143 Zn128 2.080 . S
O143 C146 1.305 . S
O144 Zn127 1.920 . S
O144 C146 1.234 . S
C145 O131 1.305 1_556 S
C145 O132 1.234 . S
C146 O143 1.305 . S
C146 O144 1.234 . S
Zn147 O153 1.920 . S
Zn147 O159 1.898 . S
Zn147 O162 1.905 1_565 S
Zn148 O156 1.905 . S
Zn148 O157 1.898 1_565 S
Zn148 O165 1.920 . S
Zn149 O152 2.080 . S
Zn149 O155 2.114 . S
Zn149 O158 2.120 1_565 S
Zn149 O160 2.120 . S
Zn149 O161 2.114 1_565 S
Zn149 O164 2.080 . S
C150 O155 1.166 . S
C150 O156 1.182 . S
C151 O157 1.167 . S
C151 O158 1.299 . S
O152 Zn149 2.080 . S
O152 C166 1.305 . S
O153 Zn147 1.920 . S
O153 C166 1.234 . S
C154 O159 1.167 . S
C154 O160 1.299 . S
O155 Zn149 2.114 . S
O155 C150 1.166 . S
O156 Zn148 1.905 . S
O156 C150 1.182 . S
O157 Zn148 1.898 1_545 S
O157 C151 1.167 . S
O158 Zn149 2.120 1_545 S
O158 C151 1.299 . S
O159 Zn147 1.898 . S
O159 C154 1.167 . S
O160 Zn149 2.120 . S
O160 C154 1.299 . S
O161 Zn149 2.114 1_545 S
O161 C163 1.166 . S
O162 Zn147 1.905 1_545 S
O162 C163 1.182 . S
C163 O161 1.166 . S
C163 O162 1.182 . S
O164 Zn149 2.080 . S
O164 C167 1.305 . S
O165 Zn148 1.920 . S
O165 C167 1.234 . S
C166 O152 1.305 . S
C166 O153 1.234 . S
C167 O164 1.305 . S
C167 O165 1.234 . S
C16 C163 0.640 . S
C37 C87 0.641 . S
C58 C108 0.640 . S
C142 C79 0.640 1_554 S
C19 C25 0.930 . S
C46 C40 0.930 . S
C67 C61 0.930 . S
C4 C82 0.930 . S
C104 C151 0.930 . S
C125 C91 0.930 . S
C145 C112 0.930 . S
C130 C166 0.930 . S
C121 C3 1.051 1_554 S
C129 C24 1.051 . S
C150 C45 1.051 . S
C100 C66 1.051 . S
C7 C146 1.797 1_545 S
C28 C167 1.797 . S
C103 C49 1.797 1_545 S
C124 C70 1.797 . S
C62 C88 1.797 . S
C109 C83 1.797 1_455 S
C133 C20 1.797 . S
C154 C41 1.797 1_655 S
