# Generated by pormake.
# Topology pcu, (6)-cn, num edge types: 1
# Building blocks:
#     Node 0, Type 0, BuildingBlock: CUWYAW_clean_sbu_0, # of connection points: 6
#     Edge 1, Type (0, 0), BuildingBlock: KIFKEQ_clean_linker_1, # of connection points: 2
#     Edge 2, Type (0, 0), BuildingBlock: KIFKEQ_clean_linker_1, # of connection points: 2
#     Edge 3, Type (0, 0), BuildingBlock: KIFKEQ_clean_linker_1, # of connection points: 2
# Relax obj value: 0.000
# Max RMSD: 0.000
# Mean RMSD: 0.000
data_MOF--net-pcu--node1-CUWYAW_clean_sbu_0--edge1-KIFKEQ_clean_linker_1
_symmetry_space_group_name_H-M    P1
_symmetry_Int_Tables_number       1
_symmetry_cell_setting            triclinic
loop_
_symmetry_equiv_pos_as_xyz
'x, y, z'
_cell_length_a     25.944104
_cell_length_b     15.751088
_cell_length_c     14.68107
_cell_angle_alpha  93.294499
_cell_angle_beta   98.533766
_cell_angle_gamma 119.1238
loop_
_atom_site_label
_atom_site_type_symbol
_atom_site_fract_x
_atom_site_fract_y
_atom_site_fract_z
_atom_type_partial_charge
C0 C 0.19685 0.08633 0.98413 0.0
Eu1 Eu 0.08842 0.02483 0.01493 0.0
C2 C 0.24577 0.06204 0.99586 0.0
C3 C 0.30264 0.13095 0.04929 0.0
C4 C 0.35101 0.11363 0.05601 0.0
C5 C 0.34393 0.02709 1.00876 0.0
C6 C 0.2865 0.95711 0.95665 0.0
C7 C 0.23799 -0.02568 0.95028 0.0
C8 C 0.05865 0.01255 0.18539 0.0
C9 C 1.01661 0.78636 1.00934 0.0
C10 C 0.84683 0.85727 0.04698 0.0
Eu11 Eu 0.95415 0.91635 1.012 0.0
C12 C 0.7992 0.88472 0.03942 0.0
C13 C 0.7606 0.86746 0.95374 0.0
C14 C 0.71281 0.88622 0.9491 0.0
C15 C 0.7023 0.92257 0.02996 0.0
C16 C 0.7415 0.9412 0.11534 0.0
C17 C 0.78914 0.92212 0.12002 0.0
C18 C 0.98289 0.92801 0.84064 0.0
C19 C 0.02596 0.15409 0.01502 0.0
O20 O 0.14757 0.02836 0.92237 0.0
O21 O 0.1861 0.11764 0.0596 0.0
O22 O 0.10361 0.08932 0.16527 0.0
O23 O 0.03338 0.94472 0.11675 0.0
O24 O 0.06358 0.86462 0.99112 0.0
O25 O 0.97066 0.79077 0.03274 0.0
O26 O 0.89674 0.91272 0.1084 0.0
O27 O 0.85644 0.82665 0.96993 0.0
O28 O 0.93643 0.8535 0.86047 0.0
O29 O 1.00918 -0.0045 0.90964 0.0
O30 O 0.98033 0.07738 0.03801 0.0
O31 O 0.07025 0.14755 0.98758 0.0
H32 H 0.30998 0.19924 0.08499 0.0
H33 H 0.3941 0.16843 0.09824 0.0
H34 H 0.27931 0.89008 0.91852 0.0
H35 H 0.19476 0.91969 0.90825 0.0
H36 H 0.76668 0.83811 0.89023 0.0
H37 H 0.68401 0.87214 0.88201 0.0
H38 H 0.73436 0.96793 0.1792 0.0
H39 H 0.81747 0.93485 0.18728 0.0
H40 H 0.99373 0.84147 0.25217 0.0
H41 H 0.09528 0.15618 0.33237 0.0
H42 H 0.97731 0.82075 0.41034 0.0
H43 H 0.07589 0.13679 0.48948 0.0
H44 H 0.08116 0.07319 0.78713 0.0
H45 H 0.09992 0.09231 0.62965 0.0
H46 H 0.92623 0.83324 0.52063 0.0
H47 H 0.90997 0.81117 0.67847 0.0
C48 C 1.01183 0.90634 0.30361 0.0
C49 C 0.04597 0.0004 0.2802 0.0
C50 C 1.00209 0.8947 0.39447 0.0
C51 C 0.02517 -0.02299 0.46391 0.0
C52 C 0.05844 0.07131 0.43927 0.0
C53 C 0.06916 0.08272 0.34881 0.0
C54 C 0.0474 0.01998 0.72933 0.0
C55 C 0.99435 0.94034 0.74513 0.0
C56 C 0.05773 0.03141 0.63862 0.0
C57 C 1.01464 0.9645 0.56119 0.0
C58 C 0.96126 0.8853 0.57776 0.0
C59 C 0.95157 0.8729 0.66851 0.0
H60 H 0.34635 0.85487 0.01771 0.0
H61 H 0.46114 0.16351 1.00664 0.0
H62 H 0.43236 0.82989 0.02188 0.0
H63 H 0.54701 0.13857 1.01196 0.0
H64 H 0.69851 0.07591 0.12126 0.0
H65 H 0.6121 0.09978 0.11748 0.0
H66 H 0.50108 0.83073 0.92372 0.0
H67 H 0.58703 0.80535 0.92962 0.0
C68 C 0.38974 0.91734 0.01555 0.0
C69 C 0.39654 0.01133 1.01212 0.0
C70 C 0.43914 0.90298 0.01801 0.0
C71 C 0.49675 -0.01777 0.01744 0.0
C72 C 0.50357 0.07613 1.01405 0.0
C73 C 0.45419 0.09043 1.01119 0.0
C74 C 0.65559 0.02147 0.07832 0.0
C75 C 0.64987 0.93869 0.02576 0.0
C76 C 0.60613 0.03566 0.07543 0.0
C77 C 0.54951 0.9672 0.02027 0.0
C78 C 0.54379 0.88444 0.96769 0.0
C79 C 0.59333 0.8705 0.97022 0.0
H80 H 0.92211 0.60197 1.00574 0.0
H81 H 0.11354 0.7611 1.01203 0.0
H82 H 0.92417 0.44897 1.0051 0.0
H83 H 0.11624 0.6093 0.01563 0.0
H84 H 0.09147 0.30895 0.92783 0.0
H85 H 0.08788 0.4602 0.92364 0.0
H86 H 0.95687 0.36218 0.10114 0.0
H87 H 0.95861 0.20914 0.10174 0.0
C88 C 0.96469 0.60432 1.00769 0.0
C89 C 1.01759 0.69346 1.00877 0.0
C90 C 0.96601 0.51672 1.00794 0.0
C91 C 1.02042 0.5166 1.01053 0.0
C92 C 0.07333 0.60614 1.0119 0.0
C93 C 0.07185 0.69341 1.01038 0.0
C94 C 0.062 0.31987 0.96606 0.0
C95 C 0.0253 0.24721 0.01504 0.0
C96 C 0.06012 0.40684 0.96407 0.0
C97 C 0.0221 0.42367 1.01211 0.0
C98 C 0.98585 0.35109 0.06188 0.0
C99 C 0.98714 0.26358 0.06281 0.0
loop_
_geom_bond_atom_site_label_1
_geom_bond_atom_site_label_2
_geom_bond_distance
_geom_bond_site_symmetry_2
_ccdc_geom_bond_type
C0 Eu1 2.835 . S
C0 C2 1.500 . S
C0 O20 1.257 1_554 S
C0 O21 1.260 . S
Eu1 C0 2.835 . S
Eu1 O20 2.473 1_554 S
Eu1 O21 2.480 . S
Eu1 O22 2.430 . S
Eu1 O23 2.670 1_455 S
Eu1 O24 2.394 1_545 S
Eu1 O29 2.355 1_544 S
Eu1 O31 2.374 . S
C2 C0 1.500 . S
C2 C3 1.377 . S
C2 C7 1.377 1_544 S
C3 C2 1.377 . S
C3 C4 1.395 . S
C3 H32 0.931 . S
C4 C3 1.395 . S
C4 C5 1.388 . S
C4 H33 0.931 . S
C5 C4 1.388 . S
C5 C6 1.396 1_544 S
C6 C5 1.396 1_566 S
C6 C7 1.378 . S
C6 H34 0.931 . S
C7 C2 1.377 1_566 S
C7 C6 1.378 . S
C7 H35 0.931 . S
C8 O22 1.259 . S
C8 O23 1.270 1_455 S
C9 O24 1.251 1_655 S
C9 O25 1.251 1_554 S
C10 Eu11 2.835 . S
C10 C12 1.500 . S
C10 O26 1.257 1_556 S
C10 O27 1.260 . S
Eu11 C10 2.835 . S
Eu11 O23 2.355 1_566 S
Eu11 O25 2.374 . S
Eu11 O26 2.473 1_556 S
Eu11 O27 2.480 . S
Eu11 O28 2.430 . S
Eu11 O29 2.670 1_655 S
Eu11 O30 2.394 1_565 S
C12 C10 1.500 . S
C12 C13 1.377 . S
C12 C17 1.377 1_566 S
C13 C12 1.377 . S
C13 C14 1.395 . S
C13 H36 0.931 . S
C14 C13 1.395 . S
C14 C15 1.387 . S
C14 H37 0.931 . S
C15 C14 1.387 . S
C15 C16 1.396 1_566 S
C16 C15 1.396 1_544 S
C16 C17 1.378 . S
C16 H38 0.931 . S
C17 C12 1.377 1_544 S
C17 C16 1.378 . S
C17 H39 0.931 . S
C18 O28 1.259 . S
C18 O29 1.270 1_655 S
C19 O30 1.251 1_455 S
C19 O31 1.251 1_556 S
O20 C0 1.257 1_556 S
O20 Eu1 2.473 1_556 S
O21 C0 1.260 . S
O21 Eu1 2.480 . S
O22 Eu1 2.430 . S
O22 C8 1.259 . S
O23 Eu1 2.670 1_655 S
O23 C8 1.270 1_655 S
O23 Eu11 2.355 1_544 S
O24 Eu1 2.394 1_565 S
O24 C9 1.251 1_455 S
O25 C9 1.251 1_556 S
O25 Eu11 2.374 . S
O26 C10 1.257 1_554 S
O26 Eu11 2.473 1_554 S
O27 C10 1.260 . S
O27 Eu11 2.480 . S
O28 Eu11 2.430 . S
O28 C18 1.259 . S
O29 Eu1 2.355 1_566 S
O29 Eu11 2.670 1_455 S
O29 C18 1.270 1_455 S
O30 Eu11 2.394 1_545 S
O30 C19 1.251 1_655 S
O31 Eu1 2.374 . S
O31 C19 1.251 1_554 S
H32 C3 0.931 . S
H33 C4 0.931 . S
H34 C6 0.931 . S
H35 C7 0.931 . S
H36 C13 0.931 . S
H37 C14 0.931 . S
H38 C16 0.931 . S
H39 C17 0.931 . S
H40 C48 0.950 . S
H41 C53 0.950 . S
H42 C50 0.950 . S
H43 C52 0.950 . S
H44 C54 0.950 . S
H45 C56 0.950 . S
H46 C58 0.950 . S
H47 C59 0.950 . S
C48 H40 0.950 . S
C48 C49 1.386 1_565 S
C48 C50 1.391 . S
C49 C48 1.386 1_545 S
C49 C53 1.393 1_455 S
C50 H42 0.950 . S
C50 C48 1.391 . S
C50 C51 1.421 1_565 S
C51 C50 1.421 1_545 S
C51 C52 1.382 1_455 S
C51 C57 1.485 1_445 S
C52 H43 0.950 . S
C52 C51 1.382 1_655 S
C52 C53 1.391 . S
C53 H41 0.950 . S
C53 C49 1.393 1_655 S
C53 C52 1.391 . S
C54 H44 0.950 . S
C54 C55 1.386 1_545 S
C54 C56 1.391 . S
C55 C54 1.386 1_565 S
C55 C59 1.393 1_655 S
C56 H45 0.950 . S
C56 C54 1.391 . S
C56 C57 1.416 1_545 S
C57 C51 1.485 1_665 S
C57 C56 1.416 1_565 S
C57 C58 1.385 1_655 S
C58 H46 0.950 . S
C58 C57 1.385 1_455 S
C58 C59 1.391 . S
C59 H47 0.950 . S
C59 C55 1.393 1_455 S
C59 C58 1.391 . S
H60 C68 0.950 . S
H61 C73 0.950 . S
H62 C70 0.950 . S
H63 C72 0.950 . S
H64 C74 0.950 . S
H65 C76 0.950 . S
H66 C78 0.950 . S
H67 C79 0.950 . S
C68 H60 0.950 . S
C68 C69 1.386 1_554 S
C68 C70 1.391 . S
C69 C68 1.386 1_556 S
C69 C73 1.393 1_565 S
C70 H62 0.950 . S
C70 C68 1.391 . S
C70 C71 1.400 1_554 S
C71 C70 1.400 1_556 S
C71 C72 1.399 1_565 S
C71 C77 1.492 1_566 S
C72 H63 0.950 . S
C72 C71 1.399 1_545 S
C72 C73 1.391 . S
C73 H61 0.950 . S
C73 C69 1.393 1_545 S
C73 C72 1.391 . S
C74 H64 0.950 . S
C74 C75 1.389 1_556 S
C74 C76 1.391 . S
C75 C74 1.389 1_554 S
C75 C79 1.391 1_545 S
C76 H65 0.950 . S
C76 C74 1.391 . S
C76 C77 1.401 1_556 S
C77 C71 1.492 1_544 S
C77 C76 1.401 1_554 S
C77 C78 1.396 1_545 S
C78 H66 0.950 . S
C78 C77 1.396 1_565 S
C78 C79 1.391 . S
C79 H67 0.950 . S
C79 C75 1.391 1_565 S
C79 C78 1.391 . S
H80 C88 0.950 . S
H81 C93 0.950 . S
H82 C90 0.950 . S
H83 C92 0.950 . S
H84 C94 0.950 . S
H85 C96 0.950 . S
H86 C98 0.950 . S
H87 C99 0.950 . S
C88 H80 0.950 . S
C88 C89 1.386 1_655 S
C88 C90 1.391 . S
C89 C88 1.386 1_455 S
C89 C93 1.393 1_556 S
C90 H82 0.950 . S
C90 C88 1.391 . S
C90 C91 1.390 1_655 S
C91 C90 1.390 1_455 S
C91 C92 1.397 1_556 S
C91 C97 1.512 1_456 S
C92 H83 0.950 . S
C92 C91 1.397 1_554 S
C92 C93 1.391 . S
C93 H81 0.950 . S
C93 C89 1.393 1_554 S
C93 C92 1.391 . S
C94 H84 0.950 . S
C94 C95 1.386 1_455 S
C94 C96 1.391 . S
C95 C94 1.386 1_655 S
C95 C99 1.393 1_554 S
C96 H85 0.950 . S
C96 C94 1.391 . S
C96 C97 1.388 1_455 S
C97 C91 1.512 1_654 S
C97 C96 1.388 1_655 S
C97 C98 1.401 1_554 S
C98 H86 0.950 . S
C98 C97 1.401 1_556 S
C98 C99 1.391 . S
C99 H87 0.950 . S
C99 C95 1.393 1_556 S
C99 C98 1.391 . S
C49 C8 1.441 . S
C55 C18 1.441 . S
C69 C5 1.494 1_566 S
C75 C15 1.494 1_544 S
C89 C9 1.493 1_456 S
C95 C19 1.493 1_654 S
