# Generated by pormake.
# Topology oof, (8)-cn, num edge types: 1
# Building blocks:
#     Node 0, Type 0, BuildingBlock: LIZSOE_clean_sbu_0, # of connection points: 8
#     Node 1, Type 0, BuildingBlock: LIZSOE_clean_sbu_0, # of connection points: 8
#     Node 2, Type 0, BuildingBlock: LIZSOE_clean_sbu_0, # of connection points: 8
#     Node 3, Type 0, BuildingBlock: LIZSOE_clean_sbu_0, # of connection points: 8
#     Edge 4, Type (0, 0), None
#     Edge 5, Type (0, 0), None
#     Edge 6, Type (0, 0), None
#     Edge 7, Type (0, 0), None
#     Edge 8, Type (0, 0), None
#     Edge 9, Type (0, 0), None
#     Edge 10, Type (0, 0), None
#     Edge 11, Type (0, 0), None
#     Edge 12, Type (0, 0), None
#     Edge 13, Type (0, 0), None
#     Edge 14, Type (0, 0), None
#     Edge 15, Type (0, 0), None
#     Edge 16, Type (0, 0), None
#     Edge 17, Type (0, 0), None
#     Edge 18, Type (0, 0), None
#     Edge 19, Type (0, 0), None
# Relax obj value: 0.288
# Max RMSD: 0.263
# Mean RMSD: 0.260
data_MOF--net-oof--node1-LIZSOE_clean_sbu_0--edge1-none
_symmetry_space_group_name_H-M    P1
_symmetry_Int_Tables_number       1
_symmetry_cell_setting            triclinic
loop_
_symmetry_equiv_pos_as_xyz
'x, y, z'
_cell_length_a     7.1762953
_cell_length_b     19.560694
_cell_length_c     13.391058
_cell_angle_alpha  92.453484
_cell_angle_beta   118.50846
_cell_angle_gamma 87.957428
loop_
_atom_site_label
_atom_site_type_symbol
_atom_site_fract_x
_atom_site_fract_y
_atom_site_fract_z
_atom_type_partial_charge
Co0 Co 1.02801 0.15089 0.07681 0.0
N1 N 0.23444 0.12248 0.0438 0.0
C2 C 0.30135 0.06157 1.02359 0.0
N3 N 0.31132 0.13409 0.9067 0.0
C4 C 0.28796 0.16507 0.98899 0.0
C5 C 0.34635 0.06803 0.93673 0.0
Co6 Co 0.95594 0.07891 0.48334 0.0
N7 N 0.99191 0.11558 0.61777 0.0
N8 N 0.15656 0.14949 0.79708 0.0
C9 C 0.94467 0.1502 0.76011 0.0
C10 C 0.84326 0.12962 0.64868 0.0
C11 C 0.1818 0.13056 0.7094 0.0
Co12 Co 0.91296 0.11649 0.23121 0.0
C13 C 0.99171 0.02718 0.46811 0.0
H14 H 0.67627 0.12056 0.59572 0.0
O15 O 0.82097 0.19062 0.10117 0.0
O16 O 1.02326 0.20419 0.34292 0.0
O17 O 0.21663 0.1029 0.2683 0.0
O18 O 0.85936 0.03613 0.09593 0.0
O19 O 0.83901 0.09745 0.95648 0.0
O20 O 0.10793 0.16051 0.50199 0.0
O21 O 0.94642 0.04138 0.35807 0.0
O22 O 0.68055 0.12095 0.39788 0.0
O23 O 0.23604 0.19952 0.20096 0.0
O24 O 0.92531 0.21961 0.97572 0.0
O25 O 0.61739 0.1273 0.21538 0.0
O26 O 0.18537 0.03744 0.54855 0.0
C27 C 0.33066 0.14843 0.26174 0.0
C28 C 0.4046 0.12034 0.72435 0.0
H29 H 0.42345 0.13013 0.64966 0.0
H30 H 0.51331 0.15566 0.79284 0.0
H31 H 0.46111 0.0673 0.75081 0.0
C32 C 0.12524 0.20965 0.45235 0.0
C33 C 0.84887 0.03909 0.99252 0.0
H34 H 0.30432 0.0162 0.06386 0.0
H35 H 0.26396 0.2646 0.93508 0.0
H36 H 0.48671 0.24394 0.07607 0.0
H37 H 0.24693 0.2608 0.06363 0.0
C38 C 0.31951 0.23847 1.01524 0.0
C39 C 0.79549 0.22939 1.01391 0.0
C40 C 0.55473 0.12956 0.29225 0.0
H41 H 0.35954 0.02579 0.8855 0.0
H42 H 0.86868 0.15718 0.8115 0.0
Co43 Co 1.04982 0.87363 0.54595 0.0
N44 N 0.20526 0.82201 0.50129 0.0
C45 C 0.14727 0.76361 0.4407 0.0
N46 N 0.21798 0.83802 0.34813 0.0
C47 C 0.29529 0.85778 0.45464 0.0
C48 C 0.16719 0.77331 0.34586 0.0
Co49 Co 0.94306 0.85731 0.98505 0.0
N50 N 0.91622 0.90142 0.09532 0.0
N51 N 0.05869 0.88079 0.27258 0.0
C52 C 0.8481 0.86799 0.22463 0.0
C53 C 0.75699 0.88524 0.11483 0.0
C54 C 0.08907 0.91073 0.19685 0.0
Co55 Co 0.90994 0.87977 0.73835 0.0
C56 C 0.16952 0.79702 0.98071 0.0
H57 H 0.60206 0.86879 0.05057 0.0
O58 O 0.90621 0.94003 0.59473 0.0
O59 O 0.87003 0.97523 0.81968 0.0
O60 O 0.22441 0.8942 0.80147 0.0
O61 O 0.84326 0.78421 0.63562 0.0
O62 O 0.81425 0.8135 0.47316 0.0
O63 O 1.04441 0.93603 0.98047 0.0
O64 O 0.99731 0.81341 0.88029 0.0
O65 O 0.65642 0.87931 0.88251 0.0
O66 O 0.19165 0.82485 0.67094 0.0
O67 O 0.91337 0.91524 0.42535 0.0
O68 O 0.60297 0.86714 0.70308 0.0
O69 O 0.19992 0.8299 0.07113 0.0
C70 C 0.30791 0.86512 0.74705 0.0
C71 C 0.30947 0.93451 0.22403 0.0
H72 H 0.35527 0.92859 0.15704 0.0
H73 H 0.32242 0.98909 0.24875 0.0
H74 H 0.4369 0.90818 0.29784 0.0
C75 C 0.91157 0.98006 0.9255 0.0
C76 C 0.75959 0.77353 0.52453 0.0
H77 H 1.04759 0.72696 0.44907 0.0
H78 H 0.29467 0.96584 0.42726 0.0
H79 H 0.54225 0.92653 0.50517 0.0
H80 H 0.38385 0.94258 0.57351 0.0
C81 C 0.38058 0.92765 0.49308 0.0
C82 C 0.90557 0.95973 0.49457 0.0
C83 C 0.53357 0.87261 0.77703 0.0
H84 H 0.08234 0.74789 0.26546 0.0
H85 H 0.77455 0.83566 0.25904 0.0
Co86 Co 0.52802 0.6509 0.07681 0.0
N87 N 0.73445 0.62248 0.04379 0.0
C88 C 0.80136 0.56157 1.0236 0.0
N89 N 0.81133 0.63408 0.9067 0.0
C90 C 0.78797 0.66507 0.98898 0.0
C91 C 0.84636 0.56802 0.93673 0.0
Co92 Co 0.45596 0.57891 0.48334 0.0
N93 N 0.49192 0.61558 0.61776 0.0
N94 N 0.65657 0.64948 0.79708 0.0
C95 C 0.44468 0.65018 0.76011 0.0
C96 C 0.34327 0.6296 0.64868 0.0
C97 C 0.68181 0.63055 0.7094 0.0
Co98 Co 0.41298 0.6165 0.23121 0.0
C99 C 0.49173 0.52718 0.46811 0.0
H100 H 0.17628 0.62055 0.59572 0.0
O101 O 0.32099 0.69064 0.10118 0.0
O102 O 0.52327 0.70419 0.34292 0.0
O103 O 0.71665 0.6029 0.26831 0.0
O104 O 0.35937 0.53613 0.09594 0.0
O105 O 0.33901 0.59745 0.95647 0.0
O106 O 0.60794 0.66051 0.50199 0.0
O107 O 0.44644 0.54138 0.35806 0.0
O108 O 0.18057 0.62095 0.39788 0.0
O109 O 0.73606 0.69952 0.20095 0.0
O110 O 0.42535 0.71961 0.97571 0.0
O111 O 0.1174 0.6273 0.21538 0.0
O112 O 0.68539 0.53744 0.54854 0.0
C113 C 0.83068 0.64844 0.26174 0.0
C114 C 0.90461 0.62034 0.72435 0.0
H115 H 0.92347 0.63013 0.64966 0.0
H116 H 1.01331 0.65566 0.79283 0.0
H117 H 0.96113 0.5673 0.75081 0.0
C118 C 0.62523 0.70965 0.45235 0.0
C119 C 0.34888 0.53909 0.99252 0.0
H120 H 0.80433 0.5162 0.06387 0.0
H121 H 0.76398 0.76459 0.93507 0.0
H122 H 0.98674 0.74393 0.07606 0.0
H123 H 0.74697 0.7608 0.06363 0.0
C124 C 0.81954 0.73847 1.01524 0.0
C125 C 0.29558 0.7294 1.01393 0.0
C126 C 0.05475 0.62956 0.29225 0.0
H127 H 0.85956 0.52578 0.8855 0.0
H128 H 0.36869 0.65716 0.81149 0.0
Co129 Co 0.54982 0.37363 0.54595 0.0
N130 N 0.70526 0.32201 0.50129 0.0
C131 C 0.64727 0.26361 0.4407 0.0
N132 N 0.71799 0.33802 0.34813 0.0
C133 C 0.7953 0.35778 0.45464 0.0
C134 C 0.66719 0.27331 0.34586 0.0
Co135 Co 0.44309 0.35731 0.98505 0.0
N136 N 0.41624 0.40143 0.09532 0.0
N137 N 0.5587 0.38079 0.27258 0.0
C138 C 0.34811 0.36799 0.22462 0.0
C139 C 0.25701 0.38525 0.11482 0.0
C140 C 0.58909 0.41073 0.19686 0.0
Co141 Co 0.40994 0.37977 0.73835 0.0
C142 C 0.66947 0.29702 0.98072 0.0
H143 H 0.10207 0.3688 0.05057 0.0
O144 O 0.40622 0.44003 0.59473 0.0
O145 O 0.37003 0.47523 0.81968 0.0
O146 O 0.72442 0.3942 0.80147 0.0
O147 O 0.34325 0.28421 0.63561 0.0
O148 O 0.31424 0.31351 0.47315 0.0
O149 O 0.54442 0.43603 0.98047 0.0
O150 O 0.4973 0.31341 0.88028 0.0
O151 O 0.15643 0.37931 0.88251 0.0
O152 O 0.69165 0.32485 0.67094 0.0
O153 O 0.41338 0.41524 0.42535 0.0
O154 O 0.10297 0.36714 0.70308 0.0
O155 O 0.69997 0.32991 0.07115 0.0
C156 C 0.80792 0.36512 0.74705 0.0
C157 C 0.80949 0.43451 0.22404 0.0
H158 H 0.85529 0.4286 0.15705 0.0
H159 H 0.82246 0.48909 0.24877 0.0
H160 H 0.93692 0.40818 0.29785 0.0
C161 C 0.41158 0.48006 0.9255 0.0
C162 C 0.25965 0.27352 0.52453 0.0
H163 H 0.54759 0.22696 0.44906 0.0
H164 H 0.79469 0.46584 0.42726 0.0
H165 H 1.04227 0.42652 0.50518 0.0
H166 H 0.88385 0.44258 0.5735 0.0
C167 C 0.88059 0.42765 0.49308 0.0
C168 C 0.40558 0.45973 0.49457 0.0
C169 C 1.03358 0.37261 0.77703 0.0
H170 H 0.58232 0.24789 0.26545 0.0
H171 H 0.27455 0.33566 0.25903 0.0
loop_
_geom_bond_atom_site_label_1
_geom_bond_atom_site_label_2
_geom_bond_distance
_geom_bond_site_symmetry_2
_ccdc_geom_bond_type
Co0 N1 2.034 1_554 S
Co0 O15 2.262 1_455 S
Co0 O19 1.958 1_454 S
Co0 O23 1.950 . S
Co0 O24 2.057 1_454 S
N1 Co0 2.034 1_556 S
N1 C2 1.366 . S
N1 C4 1.332 . S
C2 N1 1.366 . S
C2 C5 1.377 . S
C2 H34 0.931 1_455 S
N3 C4 1.346 . S
N3 C5 1.337 . S
C4 N1 1.332 . S
C4 N3 1.346 . S
C4 C38 1.361 . S
C5 C2 1.377 . S
C5 N3 1.337 . S
C5 H41 0.930 . S
Co6 N7 2.034 . S
Co6 O20 1.950 1_655 S
Co6 O21 2.262 1_655 S
Co6 O22 1.958 . S
Co6 O26 2.057 1_655 S
N7 Co6 2.034 . S
N7 C10 1.366 . S
N7 C11 1.332 . S
N8 C9 1.337 . S
N8 C11 1.346 . S
C9 N8 1.337 . S
C9 C10 1.377 . S
C9 H42 0.930 . S
C10 N7 1.366 . S
C10 C9 1.377 . S
C10 H14 0.931 . S
C11 N7 1.332 . S
C11 N8 1.346 . S
C11 C28 1.361 1_655 S
Co12 O15 2.097 . S
Co12 O16 2.065 1_655 S
Co12 O17 2.065 1_655 S
Co12 O18 2.042 . S
Co12 O21 2.097 1_655 S
Co12 O25 2.042 . S
C13 O21 1.253 . S
C13 O26 1.263 . S
H14 C10 0.931 . S
O15 Co0 2.262 1_655 S
O15 Co12 2.097 . S
O15 C39 1.253 . S
O16 Co12 2.065 1_455 S
O16 C32 1.221 . S
O17 Co12 2.065 1_455 S
O17 C27 1.221 . S
O18 Co12 2.042 . S
O18 C33 1.237 . S
O19 Co0 1.958 1_656 S
O19 C33 1.278 1_556 S
O20 Co6 1.950 1_455 S
O20 C32 1.277 . S
O21 Co6 2.262 1_455 S
O21 Co12 2.097 1_455 S
O21 C13 1.253 . S
O22 Co6 1.958 . S
O22 C40 1.278 . S
O23 Co0 1.950 . S
O23 C27 1.277 . S
O24 Co0 2.057 1_656 S
O24 C39 1.263 1_556 S
O25 Co12 2.042 . S
O25 C40 1.237 . S
O26 Co6 2.057 1_455 S
O26 C13 1.263 . S
C27 O17 1.221 . S
C27 O23 1.277 . S
C28 C11 1.361 1_455 S
C28 H29 0.960 . S
C28 H30 0.961 . S
C28 H31 0.961 . S
H29 C28 0.960 . S
H30 C28 0.961 . S
H31 C28 0.961 . S
C32 O16 1.221 . S
C32 O20 1.277 . S
C33 O18 1.237 . S
C33 O19 1.278 1_554 S
H34 C2 0.931 1_655 S
H35 C38 0.961 . S
H36 C38 0.961 . S
H37 C38 0.960 1_554 S
C38 C4 1.361 . S
C38 H35 0.961 . S
C38 H36 0.961 . S
C38 H37 0.960 1_556 S
C39 O15 1.253 . S
C39 O24 1.263 1_554 S
C40 O22 1.278 . S
C40 O25 1.237 . S
H41 C5 0.930 . S
H42 C9 0.930 . S
Co43 N44 2.034 . S
Co43 O58 2.262 1_455 S
Co43 O62 1.958 1_455 S
Co43 O66 1.950 . S
Co43 O67 2.057 1_455 S
N44 Co43 2.034 . S
N44 C45 1.366 . S
N44 C47 1.332 . S
C45 N44 1.366 . S
C45 C48 1.377 . S
C45 H77 0.931 1_455 S
N46 C47 1.346 . S
N46 C48 1.337 . S
C47 N44 1.332 . S
C47 N46 1.346 . S
C47 C81 1.361 . S
C48 C45 1.377 . S
C48 N46 1.337 . S
C48 H84 0.930 . S
Co49 N50 2.034 1_556 S
Co49 O63 1.950 1_655 S
Co49 O64 2.262 1_655 S
Co49 O65 1.958 . S
Co49 O69 2.057 1_656 S
N50 Co49 2.034 1_554 S
N50 C53 1.366 . S
N50 C54 1.332 . S
N51 C52 1.337 . S
N51 C54 1.346 . S
C52 N51 1.337 . S
C52 C53 1.377 . S
C52 H85 0.930 . S
C53 N50 1.366 . S
C53 C52 1.377 . S
C53 H57 0.931 1_554 S
C54 N50 1.332 . S
C54 N51 1.346 . S
C54 C71 1.361 1_655 S
Co55 O58 2.097 . S
Co55 O59 2.065 1_655 S
Co55 O60 2.065 1_655 S
Co55 O61 2.042 . S
Co55 O64 2.097 1_655 S
Co55 O68 2.042 . S
C56 O64 1.253 . S
C56 O69 1.263 1_556 S
H57 C53 0.931 1_556 S
O58 Co43 2.262 1_655 S
O58 Co55 2.097 . S
O58 C82 1.253 . S
O59 Co55 2.065 1_455 S
O59 C75 1.221 . S
O60 Co55 2.065 1_455 S
O60 C70 1.221 . S
O61 Co55 2.042 . S
O61 C76 1.237 . S
O62 Co43 1.958 1_655 S
O62 C76 1.278 . S
O63 Co49 1.950 1_455 S
O63 C75 1.277 . S
O64 Co49 2.262 1_455 S
O64 Co55 2.097 1_455 S
O64 C56 1.253 . S
O65 Co49 1.958 . S
O65 C83 1.278 . S
O66 Co43 1.950 . S
O66 C70 1.277 . S
O67 Co43 2.057 1_655 S
O67 C82 1.263 . S
O68 Co55 2.042 . S
O68 C83 1.237 . S
O69 Co49 2.057 1_454 S
O69 C56 1.263 1_554 S
C70 O60 1.221 . S
C70 O66 1.277 . S
C71 C54 1.361 1_455 S
C71 H72 0.960 . S
C71 H73 0.961 . S
C71 H74 0.961 . S
H72 C71 0.960 . S
H73 C71 0.961 . S
H74 C71 0.961 . S
C75 O59 1.221 . S
C75 O63 1.277 . S
C76 O61 1.237 . S
C76 O62 1.278 . S
H77 C45 0.931 1_655 S
H78 C81 0.961 . S
H79 C81 0.961 . S
H80 C81 0.960 . S
C81 C47 1.361 . S
C81 H78 0.961 . S
C81 H79 0.961 . S
C81 H80 0.960 . S
C82 O58 1.253 . S
C82 O67 1.263 . S
C83 O65 1.278 . S
C83 O68 1.237 . S
H84 C48 0.930 . S
H85 C52 0.930 . S
Co86 N87 2.034 1_554 S
Co86 O101 2.262 . S
Co86 O105 1.958 1_554 S
Co86 O109 1.950 . S
Co86 O110 2.057 1_554 S
N87 Co86 2.034 1_556 S
N87 C88 1.366 . S
N87 C90 1.332 . S
C88 N87 1.366 . S
C88 C91 1.377 . S
C88 H120 0.931 . S
N89 C90 1.346 . S
N89 C91 1.337 . S
C90 N87 1.332 . S
C90 N89 1.346 . S
C90 C124 1.361 . S
C91 C88 1.377 . S
C91 N89 1.337 . S
C91 H127 0.930 . S
Co92 N93 2.034 . S
Co92 O106 1.950 . S
Co92 O107 2.262 . S
Co92 O108 1.958 . S
Co92 O112 2.057 . S
N93 Co92 2.034 . S
N93 C96 1.366 . S
N93 C97 1.332 . S
N94 C95 1.337 . S
N94 C97 1.346 . S
C95 N94 1.337 . S
C95 C96 1.377 . S
C95 H128 0.930 . S
C96 N93 1.366 . S
C96 C95 1.377 . S
C96 H100 0.931 1_455 S
C97 N93 1.332 . S
C97 N94 1.346 . S
C97 C114 1.361 . S
Co98 O101 2.097 . S
Co98 O102 2.065 . S
Co98 O103 2.065 . S
Co98 O104 2.042 . S
Co98 O107 2.097 . S
Co98 O111 2.042 . S
C99 O107 1.253 . S
C99 O112 1.263 . S
H100 C96 0.931 1_655 S
O101 Co86 2.262 . S
O101 Co98 2.097 . S
O101 C125 1.253 . S
O102 Co98 2.065 . S
O102 C118 1.221 . S
O103 Co98 2.065 . S
O103 C113 1.221 . S
O104 Co98 2.042 . S
O104 C119 1.237 . S
O105 Co86 1.958 1_556 S
O105 C119 1.278 1_556 S
O106 Co92 1.950 . S
O106 C118 1.277 . S
O107 Co92 2.262 . S
O107 Co98 2.097 . S
O107 C99 1.253 . S
O108 Co92 1.958 . S
O108 C126 1.278 . S
O109 Co86 1.950 . S
O109 C113 1.277 . S
O110 Co86 2.057 1_556 S
O110 C125 1.263 1_556 S
O111 Co98 2.042 . S
O111 C126 1.237 . S
O112 Co92 2.057 . S
O112 C99 1.263 . S
C113 O103 1.221 . S
C113 O109 1.277 . S
C114 C97 1.361 . S
C114 H115 0.960 . S
C114 H116 0.961 . S
C114 H117 0.961 . S
H115 C114 0.960 . S
H116 C114 0.961 . S
H117 C114 0.961 . S
C118 O102 1.221 . S
C118 O106 1.277 . S
C119 O104 1.237 . S
C119 O105 1.278 1_554 S
H120 C88 0.931 . S
H121 C124 0.961 . S
H122 C124 0.961 . S
H123 C124 0.960 1_554 S
C124 C90 1.361 . S
C124 H121 0.961 . S
C124 H122 0.961 . S
C124 H123 0.960 1_556 S
C125 O101 1.253 . S
C125 O110 1.263 1_554 S
C126 O108 1.278 . S
C126 O111 1.237 . S
H127 C91 0.930 . S
H128 C95 0.930 . S
Co129 N130 2.034 . S
Co129 O144 2.262 . S
Co129 O148 1.958 . S
Co129 O152 1.950 . S
Co129 O153 2.057 . S
N130 Co129 2.034 . S
N130 C131 1.366 . S
N130 C133 1.332 . S
C131 N130 1.366 . S
C131 C134 1.377 . S
C131 H163 0.931 . S
N132 C133 1.346 . S
N132 C134 1.337 . S
C133 N130 1.332 . S
C133 N132 1.346 . S
C133 C167 1.361 . S
C134 C131 1.377 . S
C134 N132 1.337 . S
C134 H170 0.930 . S
Co135 N136 2.034 1_556 S
Co135 O149 1.950 . S
Co135 O150 2.262 . S
Co135 O151 1.958 . S
Co135 O155 2.057 1_556 S
N136 Co135 2.034 1_554 S
N136 C139 1.366 . S
N136 C140 1.332 . S
N137 C138 1.337 . S
N137 C140 1.346 . S
C138 N137 1.337 . S
C138 C139 1.377 . S
C138 H171 0.930 . S
C139 N136 1.366 . S
C139 C138 1.377 . S
C139 H143 0.931 1_454 S
C140 N136 1.332 . S
C140 N137 1.346 . S
C140 C157 1.361 . S
Co141 O144 2.097 . S
Co141 O145 2.065 . S
Co141 O146 2.065 . S
Co141 O147 2.042 . S
Co141 O150 2.097 . S
Co141 O154 2.042 . S
C142 O150 1.253 . S
C142 O155 1.263 1_556 S
H143 C139 0.931 1_656 S
O144 Co129 2.262 . S
O144 Co141 2.097 . S
O144 C168 1.253 . S
O145 Co141 2.065 . S
O145 C161 1.221 . S
O146 Co141 2.065 . S
O146 C156 1.221 . S
O147 Co141 2.042 . S
O147 C162 1.237 . S
O148 Co129 1.958 . S
O148 C162 1.278 . S
O149 Co135 1.950 . S
O149 C161 1.277 . S
O150 Co135 2.262 . S
O150 Co141 2.097 . S
O150 C142 1.253 . S
O151 Co135 1.958 . S
O151 C169 1.278 . S
O152 Co129 1.950 . S
O152 C156 1.277 . S
O153 Co129 2.057 . S
O153 C168 1.263 . S
O154 Co141 2.042 . S
O154 C169 1.237 . S
O155 Co135 2.057 1_554 S
O155 C142 1.263 1_554 S
C156 O146 1.221 . S
C156 O152 1.277 . S
C157 C140 1.361 . S
C157 H158 0.960 . S
C157 H159 0.961 . S
C157 H160 0.961 . S
H158 C157 0.960 . S
H159 C157 0.961 . S
H160 C157 0.961 . S
C161 O145 1.221 . S
C161 O149 1.277 . S
C162 O147 1.237 . S
C162 O148 1.278 . S
H163 C131 0.931 . S
H164 C167 0.961 . S
H165 C167 0.961 . S
H166 C167 0.960 . S
C167 C133 1.361 . S
C167 H164 0.961 . S
C167 H165 0.961 . S
C167 H166 0.960 . S
C168 O144 1.253 . S
C168 O153 1.263 . S
C169 O151 1.278 . S
C169 O154 1.237 . S
H170 C134 0.930 . S
H171 C138 0.930 . S
N3 N8 2.240 1_455 S
N46 N51 2.285 1_455 S
N89 N94 2.240 . S
N137 N132 2.285 . S
C40 C27 1.264 . S
C83 C70 1.267 . S
C113 C126 1.264 1_655 S
C156 C169 1.267 1_655 S
C162 C32 2.080 . S
C142 C39 1.889 1_556 S
C118 C76 2.081 . S
C125 C56 1.888 1_554 S
C33 C75 3.621 1_644 S
C13 C82 3.194 1_445 S
C119 C161 3.622 1_554 S
C168 C99 3.192 . S
