# Generated by pormake.
# Topology hex, (8)-cn, num edge types: 1
# Building blocks:
#     Node 0, Type 0, BuildingBlock: TAGTUT_clean_sbu_1, # of connection points: 8
#     Edge 1, Type (0, 0), BuildingBlock: CIFDUS_clean_linker_0, # of connection points: 2
#     Edge 2, Type (0, 0), BuildingBlock: CIFDUS_clean_linker_0, # of connection points: 2
#     Edge 3, Type (0, 0), BuildingBlock: CIFDUS_clean_linker_0, # of connection points: 2
#     Edge 4, Type (0, 0), BuildingBlock: CIFDUS_clean_linker_0, # of connection points: 2
# Relax obj value: 0.056
# Max RMSD: 0.158
# Mean RMSD: 0.158
data_MOF--net-hex--node1-TAGTUT_clean_sbu_1--edge1-CIFDUS_clean_linker_0
_symmetry_space_group_name_H-M    P1
_symmetry_Int_Tables_number       1
_symmetry_cell_setting            triclinic
loop_
_symmetry_equiv_pos_as_xyz
'x, y, z'
_cell_length_a     17.137838
_cell_length_b     17.272985
_cell_length_c     13.822924
_cell_angle_alpha  79.218074
_cell_angle_beta   107.12734
_cell_angle_gamma 131.64945
loop_
_atom_site_label
_atom_site_type_symbol
_atom_site_fract_x
_atom_site_fract_y
_atom_site_fract_z
_atom_type_partial_charge
C0 C 0.95588 0.28035 0.91397 0.0
C1 C 0.7286 0.04036 0.03776 0.0
C2 C 0.04256 0.02665 0.24919 0.0
Mg3 Mg 0.83795 0.09009 0.86514 0.0
O4 O 0.967 0.13911 0.97409 0.0
Mg5 Mg 0.00398 0.18531 0.12667 0.0
Mg6 Mg -0.01591 0.0316 1.00265 0.0
O7 O -0.00189 0.9235 0.03326 0.0
Mg8 Mg 0.09434 0.9238 0.13929 0.0
Mg9 Mg 0.97156 0.88201 0.89552 0.0
C10 C 0.90471 1.00657 0.75478 0.0
C11 C 0.75067 0.80114 0.9392 0.0
O12 O -0.01424 0.22915 0.96078 0.0
O13 O 0.88773 0.24209 0.82969 0.0
O14 O 0.81891 0.09476 0.10392 0.0
O15 O 0.71935 1.01646 0.95033 0.0
O16 O 0.84149 0.02262 0.75308 0.0
O17 O 0.97169 0.0172 0.83592 0.0
C18 C 0.22061 0.2609 0.07553 0.0
O19 O 0.16533 0.1751 0.02798 0.0
O20 O 0.17938 0.27669 0.12495 0.0
O21 O 0.95968 0.74528 0.96613 0.0
O22 O 0.02626 0.76456 0.13456 0.0
O23 O 0.15696 0.97769 0.91647 0.0
C24 C -0.02171 0.71139 0.05265 0.0
O25 O 0.23398 1.01393 0.08225 0.0
O26 O 0.08297 0.98431 0.2534 0.0
C27 C 0.23966 1.01675 0.99146 0.0
O28 O -0.00219 0.04348 0.16538 0.0
O29 O 0.80305 0.88923 0.9802 0.0
O30 O 0.79521 0.78471 0.89598 0.0
H31 H 0.81005 0.30019 0.9 0.0
H32 H 0.13249 0.42592 0.05157 0.0
H33 H 0.16254 0.56369 0.12769 0.0
H34 H 0.10424 0.66159 0.12901 0.0
H35 H 0.78321 0.53612 0.97118 0.0
H36 H 0.74344 0.38247 0.9223 0.0
C37 C 0.88665 0.35754 0.9502 0.0
C38 C 0.97028 0.35579 0.96809 0.0
C39 C 0.90282 0.43552 0.99324 0.0
C40 C 0.06789 0.42769 0.03577 0.0
C41 C 0.08488 0.50604 0.07923 0.0
C42 C 0.02461 0.59854 0.08726 0.0
C43 C 0.94658 0.60915 0.05329 0.0
C44 C 0.00396 0.51259 0.05583 0.0
C45 C 0.84401 0.52855 0.99785 0.0
C46 C 0.82172 0.44153 0.96908 0.0
H47 H 0.56269 1.00314 0.88902 0.0
H48 H 0.69606 0.06178 0.211 0.0
H49 H 0.5652 0.07521 0.22149 0.0
H50 H 0.41425 0.0701 0.13927 0.0
H51 H 0.28182 1.01121 0.81709 0.0
H52 H 0.41661 1.00406 0.80621 0.0
C53 C 0.56257 0.01707 0.96226 0.0
C54 C 0.63849 0.0296 0.04969 0.0
C55 C 0.48994 0.02824 0.96702 0.0
C56 C 0.63777 0.05011 0.14293 0.0
C57 C 0.56389 0.05916 0.14863 0.0
C58 C 0.41544 0.05736 0.066 0.0
C59 C 0.33688 0.04055 0.97901 0.0
C60 C 0.49042 0.04936 0.06094 0.0
C61 C 0.34098 0.02475 0.88517 0.0
C62 C 0.41712 0.0191 0.87918 0.0
H63 H 0.32494 0.46496 0.09544 0.0
H64 H 0.35443 0.26075 1.00507 0.0
H65 H 0.51626 0.40968 0.9477 0.0
H66 H 0.64681 0.59682 0.92029 0.0
H67 H 0.61672 0.80087 0.01005 0.0
H68 H 0.45544 0.65207 0.06798 0.0
C69 C 0.36761 0.45281 0.06491 0.0
C70 C 0.32788 0.35139 0.05588 0.0
C71 C 0.45886 0.53848 0.02951 0.0
C72 C 0.38347 0.33766 0.01394 0.0
C73 C 0.4755 0.4228 0.98022 0.0
C74 C 0.60421 0.60902 0.9509 0.0
C75 C 0.6437 0.71044 0.95954 0.0
C76 C 0.51298 0.52333 0.98633 0.0
C77 C 0.58797 0.72406 1.00137 0.0
C78 C 0.4962 0.63897 0.03545 0.0
H79 H 0.07702 0.06224 0.70452 0.0
H80 H 0.74486 0.92145 0.58389 0.0
H81 H 0.76247 0.92807 0.413 0.0
H82 H 0.87308 0.97626 0.29754 0.0
H83 H 0.2033 0.11212 0.41828 0.0
H84 H 0.1871 0.10883 0.58935 0.0
C85 C 0.008 0.03102 0.64106 0.0
C86 C 0.90973 0.99083 0.6566 0.0
C87 C 0.01935 0.03742 0.54286 0.0
C88 C 0.82131 0.95232 0.57357 0.0
C89 C 0.83153 0.95708 0.47582 0.0
C90 C 0.94195 1.00748 0.36122 0.0
C91 C 0.03962 0.04611 0.34607 0.0
C92 C 0.93064 1.00114 0.45941 0.0
C93 C 0.12781 0.08353 0.42887 0.0
C94 C 0.11818 0.08038 0.5265 0.0
loop_
_geom_bond_atom_site_label_1
_geom_bond_atom_site_label_2
_geom_bond_distance
_geom_bond_site_symmetry_2
_ccdc_geom_bond_type
C0 O12 1.241 1_656 S
C0 O13 1.280 . S
C1 O14 1.277 . S
C1 O15 1.245 1_544 S
C2 O26 1.247 . S
C2 O28 1.289 . S
Mg3 O4 1.926 . S
Mg3 O13 1.984 . S
Mg3 O15 1.988 1_545 S
Mg3 O16 2.061 1_545 S
O4 Mg3 1.926 . S
O4 Mg5 1.986 1_556 S
O4 Mg6 1.917 1_656 S
Mg5 O4 1.986 1_554 S
Mg5 O12 2.044 1_655 S
Mg5 O14 2.041 . S
Mg5 O20 2.038 1_655 S
Mg5 O28 2.238 1_655 S
Mg6 O4 1.917 1_454 S
Mg6 O7 1.917 1_545 S
Mg6 O17 2.111 1_444 S
Mg6 O19 2.079 . S
Mg6 O28 2.106 . S
Mg6 O29 2.079 1_444 S
O7 Mg6 1.917 1_565 S
O7 Mg8 1.926 . S
O7 Mg9 1.986 1_554 S
Mg8 O7 1.926 . S
Mg8 O22 1.984 . S
Mg8 O25 1.988 1_565 S
Mg8 O26 2.061 1_565 S
Mg9 O7 1.986 1_556 S
Mg9 O17 2.230 1_455 S
Mg9 O21 2.042 1_455 S
Mg9 O23 2.041 . S
Mg9 O30 2.038 1_455 S
C10 O16 1.247 . S
C10 O17 1.295 . S
C11 O29 1.245 . S
C11 O30 1.274 . S
O12 C0 1.241 1_454 S
O12 Mg5 2.044 1_455 S
O13 C0 1.280 . S
O13 Mg3 1.984 . S
O14 C1 1.277 . S
O14 Mg5 2.041 . S
O15 C1 1.245 1_566 S
O15 Mg3 1.988 1_565 S
O16 Mg3 2.061 1_565 S
O16 C10 1.247 . S
O17 Mg6 2.111 1_666 S
O17 Mg9 2.230 1_655 S
O17 C10 1.295 . S
C18 O19 1.245 . S
C18 O20 1.274 . S
O19 Mg6 2.079 . S
O19 C18 1.245 . S
O20 Mg5 2.038 1_455 S
O20 C18 1.274 . S
O21 Mg9 2.042 1_655 S
O21 C24 1.241 1_656 S
O22 Mg8 1.984 . S
O22 C24 1.280 . S
O23 Mg9 2.041 . S
O23 C27 1.277 . S
C24 O21 1.241 1_454 S
C24 O22 1.280 . S
O25 Mg8 1.988 1_545 S
O25 C27 1.245 1_544 S
O26 C2 1.247 . S
O26 Mg8 2.061 1_545 S
C27 O23 1.277 . S
C27 O25 1.245 1_566 S
O28 C2 1.289 . S
O28 Mg5 2.238 1_455 S
O28 Mg6 2.106 . S
O29 Mg6 2.079 1_666 S
O29 C11 1.245 . S
O30 Mg9 2.038 1_655 S
O30 C11 1.274 . S
H31 C37 0.930 . S
H32 C40 0.930 . S
H33 C41 0.930 . S
H34 C42 0.930 . S
H35 C45 0.930 . S
H36 C46 0.930 . S
C37 H31 0.930 . S
C37 C38 1.355 1_655 S
C37 C39 1.415 . S
C38 C37 1.355 1_455 S
C38 C40 1.419 1_556 S
C39 C37 1.415 . S
C39 C44 1.425 1_656 S
C39 C46 1.409 . S
C40 H32 0.930 . S
C40 C38 1.419 1_554 S
C40 C41 1.362 . S
C41 H33 0.930 . S
C41 C40 1.362 . S
C41 C44 1.409 . S
C42 H34 0.930 . S
C42 C43 1.355 1_455 S
C42 C44 1.415 . S
C43 C42 1.355 1_655 S
C43 C45 1.419 1_554 S
C44 C39 1.425 1_454 S
C44 C41 1.409 . S
C44 C42 1.415 . S
C45 H35 0.930 . S
C45 C43 1.419 1_556 S
C45 C46 1.362 . S
C46 H36 0.930 . S
C46 C39 1.409 . S
C46 C45 1.362 . S
H47 C53 0.930 . S
H48 C56 0.930 . S
H49 C57 0.930 . S
H50 C58 0.930 . S
H51 C61 0.930 . S
H52 C62 0.930 . S
C53 H47 0.930 . S
C53 C54 1.355 1_566 S
C53 C55 1.415 . S
C54 C53 1.355 1_544 S
C54 C56 1.419 . S
C55 C53 1.415 . S
C55 C60 1.425 1_566 S
C55 C62 1.409 . S
C56 H48 0.930 . S
C56 C54 1.419 . S
C56 C57 1.362 . S
C57 H49 0.930 . S
C57 C56 1.362 . S
C57 C60 1.409 . S
C58 H50 0.930 . S
C58 C59 1.355 1_544 S
C58 C60 1.415 . S
C59 C58 1.355 1_566 S
C59 C61 1.419 . S
C60 C55 1.425 1_544 S
C60 C57 1.409 . S
C60 C58 1.415 . S
C61 H51 0.930 . S
C61 C59 1.419 . S
C61 C62 1.362 . S
C62 H52 0.930 . S
C62 C55 1.409 . S
C62 C61 1.362 . S
H63 C69 0.930 . S
H64 C72 0.930 . S
H65 C73 0.930 . S
H66 C74 0.930 . S
H67 C77 0.930 . S
H68 C78 0.930 . S
C69 H63 0.930 . S
C69 C70 1.355 . S
C69 C71 1.415 . S
C70 C69 1.355 . S
C70 C72 1.419 1_554 S
C71 C69 1.415 . S
C71 C76 1.425 1_554 S
C71 C78 1.409 . S
C72 H64 0.930 . S
C72 C70 1.419 1_556 S
C72 C73 1.362 . S
C73 H65 0.930 . S
C73 C72 1.362 . S
C73 C76 1.409 . S
C74 H66 0.930 . S
C74 C75 1.355 . S
C74 C76 1.415 . S
C75 C74 1.355 . S
C75 C77 1.419 1_556 S
C76 C71 1.425 1_556 S
C76 C73 1.409 . S
C76 C74 1.415 . S
C77 H67 0.930 . S
C77 C75 1.419 1_554 S
C77 C78 1.362 . S
C78 H68 0.930 . S
C78 C71 1.409 . S
C78 C77 1.362 . S
H79 C85 0.930 . S
H80 C88 0.930 . S
H81 C89 0.930 . S
H82 C90 0.930 . S
H83 C93 0.930 . S
H84 C94 0.930 . S
C85 H79 0.930 . S
C85 C86 1.355 1_445 S
C85 C87 1.415 . S
C86 C85 1.355 1_665 S
C86 C88 1.419 . S
C87 C85 1.415 . S
C87 C92 1.425 1_445 S
C87 C94 1.409 . S
C88 H80 0.930 . S
C88 C86 1.419 . S
C88 C89 1.362 . S
C89 H81 0.930 . S
C89 C88 1.362 . S
C89 C92 1.409 . S
C90 H82 0.930 . S
C90 C91 1.355 1_665 S
C90 C92 1.415 . S
C91 C90 1.355 1_445 S
C91 C93 1.419 . S
C92 C87 1.425 1_665 S
C92 C89 1.409 . S
C92 C90 1.415 . S
C93 H83 0.930 . S
C93 C91 1.419 . S
C93 C94 1.362 . S
C94 H84 0.930 . S
C94 C87 1.409 . S
C94 C93 1.362 . S
C38 C0 1.289 1_455 S
C43 C24 1.289 1_655 S
C54 C1 1.293 . S
C59 C27 1.293 . S
C70 C18 1.872 . S
C75 C11 1.872 . S
C86 C10 1.426 . S
C91 C2 1.426 . S
