# Generated by pormake.
# Topology unm, (4)-cn, num edge types: 1
# Building blocks:
#     Node 0, Type 0, BuildingBlock: QUQFOY_clean_sbu_3, # of connection points: 4
#     Node 1, Type 0, BuildingBlock: QUQFOY_clean_sbu_3, # of connection points: 4
#     Node 2, Type 0, BuildingBlock: QUQFOY_clean_sbu_3, # of connection points: 4
#     Node 3, Type 0, BuildingBlock: QUQFOY_clean_sbu_3, # of connection points: 4
#     Node 4, Type 0, BuildingBlock: QUQFOY_clean_sbu_3, # of connection points: 4
#     Node 5, Type 0, BuildingBlock: QUQFOY_clean_sbu_3, # of connection points: 4
#     Node 6, Type 0, BuildingBlock: QUQFOY_clean_sbu_3, # of connection points: 4
#     Node 7, Type 0, BuildingBlock: QUQFOY_clean_sbu_3, # of connection points: 4
#     Edge 8, Type (0, 0), None
#     Edge 9, Type (0, 0), None
#     Edge 10, Type (0, 0), None
#     Edge 11, Type (0, 0), None
#     Edge 12, Type (0, 0), None
#     Edge 13, Type (0, 0), None
#     Edge 14, Type (0, 0), None
#     Edge 15, Type (0, 0), None
#     Edge 16, Type (0, 0), None
#     Edge 17, Type (0, 0), None
#     Edge 18, Type (0, 0), None
#     Edge 19, Type (0, 0), None
#     Edge 20, Type (0, 0), None
#     Edge 21, Type (0, 0), None
#     Edge 22, Type (0, 0), None
#     Edge 23, Type (0, 0), None
# Relax obj value: 0.174
# Max RMSD: 0.145
# Mean RMSD: 0.145
data_MOF--net-unm--node1-QUQFOY_clean_sbu_3--edge1-none
_symmetry_space_group_name_H-M    P1
_symmetry_Int_Tables_number       1
_symmetry_cell_setting            triclinic
loop_
_symmetry_equiv_pos_as_xyz
'x, y, z'
_cell_length_a     13.172712
_cell_length_b     13.172717
_cell_length_c     21.278988
_cell_angle_alpha  89.986421
_cell_angle_beta   90.013666
_cell_angle_gamma 90.002832
loop_
_atom_site_label
_atom_site_type_symbol
_atom_site_fract_x
_atom_site_fract_y
_atom_site_fract_z
_atom_type_partial_charge
C0 C 0.89035 0.13633 0.18298 0.0
O1 O 0.87094 0.09395 0.13073 0.0
Cd2 Cd -0.04585 0.14225 0.03441 0.0
O3 O -0.02785 0.187 0.19104 0.0
Cd4 Cd 0.13507 0.23192 0.13405 0.0
C5 C -0.03104 0.39633 0.07283 0.0
O6 O 0.1321 0.12884 0.04019 0.0
O7 O 0.21428 0.27127 0.03428 0.0
O8 O 0.28336 0.16495 0.19136 0.0
C9 C 0.18153 0.19219 0.00703 0.0
O10 O 0.92759 0.32475 0.04177 0.0
C11 C 0.3085 0.2493 0.216 0.0
O12 O 0.04303 0.38229 0.11018 0.0
O13 O 0.25166 0.32496 0.20446 0.0
C14 C 0.25483 0.3904 0.68298 0.0
O15 O 0.29719 0.37101 0.63073 0.0
Cd16 Cd 0.2489 0.45428 0.53439 0.0
O17 O 0.20417 0.4722 0.69104 0.0
Cd18 Cd 0.15925 0.63516 0.63406 0.0
C19 C -0.00518 0.46909 0.57283 0.0
O20 O 0.26232 0.63221 0.5402 0.0
O21 O 0.11993 0.71443 0.53427 0.0
O22 O 0.22621 0.78342 0.69136 0.0
C23 C 0.19899 0.68165 0.50703 0.0
O24 O 0.0664 0.42773 0.54177 0.0
C25 C 0.14186 0.80853 0.71601 0.0
O26 O 0.00887 0.54313 0.61018 0.0
O27 O 0.06621 0.75168 0.70446 0.0
C28 C 0.0008 0.75479 0.18293 0.0
O29 O 0.0202 0.79711 0.13065 0.0
Cd30 Cd 0.93688 0.74886 0.03434 0.0
O31 O 0.91899 0.70415 0.19103 0.0
Cd32 Cd 0.75602 0.65921 0.13407 0.0
C33 C 0.92198 0.49477 0.07281 0.0
O34 O 0.75896 0.76227 0.04018 0.0
O35 O 0.67669 0.61989 0.03431 0.0
O36 O 0.60777 0.72621 0.19134 0.0
C37 C 0.70949 0.69893 0.00704 0.0
O38 O -0.03663 0.56635 0.04174 0.0
C39 C 0.58266 0.64188 0.21605 0.0
O40 O 0.84799 0.50883 0.1102 0.0
O41 O 0.63951 0.56622 0.20455 0.0
C42 C 0.63634 0.50084 0.68293 0.0
O43 O 0.59402 0.52027 0.63065 0.0
Cd44 Cd 0.64229 0.43701 0.53435 0.0
O45 O 0.68698 0.41903 0.69103 0.0
Cd46 Cd 0.73191 0.25611 0.63407 0.0
C47 C 0.89638 0.42211 0.57282 0.0
O48 O 0.62887 0.25907 0.54016 0.0
O49 O 0.77127 0.17686 0.53432 0.0
O50 O 0.66492 0.10781 0.69134 0.0
C51 C 0.69222 0.20962 0.50704 0.0
O52 O 0.8248 0.46351 0.54174 0.0
C53 C 0.74924 0.0827 0.71604 0.0
O54 O 0.88231 0.3481 0.61021 0.0
O55 O 0.8249 0.13956 0.70454 0.0
C56 C 0.39039 0.25491 0.26302 0.0
O57 O 0.37096 0.29722 0.31529 0.0
Cd58 Cd 0.45422 0.24892 0.41162 0.0
O59 O 0.47219 0.20425 0.25496 0.0
Cd60 Cd 0.63513 0.1593 0.31195 0.0
C61 C 0.46906 -0.00515 0.37315 0.0
O62 O 0.63215 0.26233 0.40582 0.0
O63 O 0.71441 0.11996 0.41173 0.0
O64 O 0.7834 0.22627 0.25466 0.0
C65 C 0.68159 0.19899 0.43898 0.0
O66 O 0.4277 0.06641 0.40423 0.0
C67 C 0.80848 0.14193 0.22999 0.0
O68 O 0.5431 0.00891 0.3358 0.0
O69 O 0.75165 0.06627 0.24153 0.0
C70 C 0.13625 0.89039 0.76302 0.0
O71 O 0.09391 0.87094 0.81528 0.0
Cd72 Cd 0.14223 -0.04586 0.91161 0.0
O73 O 0.18692 -0.02781 0.75496 0.0
Cd74 Cd 0.23187 0.13509 0.81196 0.0
C75 C 0.39631 -0.03102 0.87315 0.0
O76 O 0.12883 0.13209 0.90583 0.0
O77 O 0.27124 0.2143 0.91172 0.0
O78 O 0.16489 0.28339 0.75466 0.0
C79 C 0.19219 0.18151 0.93898 0.0
O80 O 0.32473 0.92759 0.90423 0.0
C81 C 0.24923 0.3085 0.72999 0.0
O82 O 0.38225 0.04305 0.83581 0.0
O83 O 0.32489 0.25167 0.74154 0.0
C84 C 0.5008 0.63631 0.26307 0.0
O85 O 0.52027 0.59404 0.31536 0.0
Cd86 Cd 0.43702 0.64232 0.41166 0.0
O87 O 0.419 0.68695 0.25497 0.0
Cd88 Cd 0.25609 0.73191 0.31194 0.0
C89 C 0.4221 0.8964 0.37317 0.0
O90 O 0.25908 0.6289 0.40586 0.0
O91 O 0.17683 0.77129 0.41168 0.0
O92 O 0.10778 0.6649 0.25468 0.0
C93 C 0.20964 0.69227 0.43898 0.0
O94 O 0.4635 0.82484 0.40426 0.0
C95 C 0.0827 0.74922 0.22995 0.0
O96 O 0.34809 0.88231 0.33578 0.0
O97 O 0.13955 0.82489 0.24145 0.0
C98 C 0.75482 0.00081 0.76307 0.0
O99 O 0.7971 0.02025 0.81536 0.0
Cd100 Cd 0.74883 0.93694 0.91167 0.0
O101 O 0.70419 0.919 0.75497 0.0
Cd102 Cd 0.65922 0.75604 0.81193 0.0
C103 C 0.49475 0.92202 0.87317 0.0
O104 O 0.76223 0.75901 0.90584 0.0
O105 O 0.61987 0.67671 0.91169 0.0
O106 O 0.72623 0.60779 0.75468 0.0
C107 C 0.69888 0.70955 0.93898 0.0
O108 O 0.56632 -0.0366 0.90425 0.0
C109 C 0.64191 0.58271 0.72995 0.0
O110 O 0.50882 0.84802 0.83579 0.0
O111 O 0.56624 0.63954 0.74145 0.0
loop_
_geom_bond_atom_site_label_1
_geom_bond_atom_site_label_2
_geom_bond_distance
_geom_bond_site_symmetry_2
_ccdc_geom_bond_type
C0 O1 1.306 . S
C0 O3 1.160 1_655 S
O1 C0 1.306 . S
O1 Cd2 2.228 . S
Cd2 O1 2.228 . S
Cd2 O6 2.273 1_655 S
Cd2 O10 2.277 1_655 S
O3 C0 1.160 1_455 S
O3 Cd4 2.203 . S
Cd4 O3 2.203 . S
Cd4 O6 2.411 . S
Cd4 O7 2.333 . S
Cd4 O8 2.352 . S
Cd4 O12 2.277 . S
Cd4 O13 2.356 . S
C5 O10 1.209 . S
C5 O12 1.226 . S
O6 Cd2 2.273 1_455 S
O6 Cd4 2.411 . S
O6 C9 1.320 . S
O7 Cd4 2.333 . S
O7 C9 1.214 . S
O8 Cd4 2.352 . S
O8 C11 1.258 . S
C9 O6 1.320 . S
C9 O7 1.214 . S
O10 Cd2 2.277 1_455 S
O10 C5 1.209 . S
C11 O8 1.258 . S
C11 O13 1.282 . S
O12 Cd4 2.277 . S
O12 C5 1.226 . S
O13 Cd4 2.356 . S
O13 C11 1.282 . S
C14 O15 1.306 . S
C14 O17 1.160 . S
O15 C14 1.306 . S
O15 Cd16 2.228 . S
Cd16 O15 2.228 . S
Cd16 O20 2.273 . S
Cd16 O24 2.277 . S
O17 C14 1.160 . S
O17 Cd18 2.203 . S
Cd18 O17 2.203 . S
Cd18 O20 2.411 . S
Cd18 O21 2.333 . S
Cd18 O22 2.352 . S
Cd18 O26 2.277 1_455 S
Cd18 O27 2.356 . S
C19 O24 1.202 1_655 S
C19 O26 1.226 . S
O20 Cd16 2.273 . S
O20 Cd18 2.411 . S
O20 C23 1.320 . S
O21 Cd18 2.333 . S
O21 C23 1.214 . S
O22 Cd18 2.352 . S
O22 C25 1.258 . S
C23 O20 1.320 . S
C23 O21 1.214 . S
O24 Cd16 2.277 . S
O24 C19 1.202 1_455 S
C25 O22 1.258 . S
C25 O27 1.282 . S
O26 Cd18 2.277 1_655 S
O26 C19 1.226 . S
O27 Cd18 2.356 . S
O27 C25 1.282 . S
C28 O29 1.306 . S
C28 O31 1.160 1_455 S
O29 C28 1.306 . S
O29 Cd30 2.228 . S
Cd30 O29 2.228 . S
Cd30 O34 2.273 1_455 S
Cd30 O38 2.277 1_455 S
O31 C28 1.160 1_655 S
O31 Cd32 2.203 . S
Cd32 O31 2.203 . S
Cd32 O34 2.411 . S
Cd32 O35 2.333 . S
Cd32 O36 2.352 . S
Cd32 O40 2.277 . S
Cd32 O41 2.356 . S
C33 O38 1.209 . S
C33 O40 1.226 . S
O34 Cd30 2.273 1_655 S
O34 Cd32 2.411 . S
O34 C37 1.320 . S
O35 Cd32 2.333 . S
O35 C37 1.214 . S
O36 Cd32 2.352 . S
O36 C39 1.258 . S
C37 O34 1.320 . S
C37 O35 1.214 . S
O38 Cd30 2.277 1_655 S
O38 C33 1.209 . S
C39 O36 1.258 . S
C39 O41 1.282 . S
O40 Cd32 2.277 . S
O40 C33 1.226 . S
O41 Cd32 2.356 . S
O41 C39 1.282 . S
C42 O43 1.306 . S
C42 O45 1.160 . S
O43 C42 1.306 . S
O43 Cd44 2.228 . S
Cd44 O43 2.228 . S
Cd44 O48 2.273 . S
Cd44 O52 2.277 . S
O45 C42 1.160 . S
O45 Cd46 2.203 . S
Cd46 O45 2.203 . S
Cd46 O48 2.411 . S
Cd46 O49 2.333 . S
Cd46 O50 2.352 . S
Cd46 O54 2.277 1_655 S
Cd46 O55 2.356 . S
C47 O52 1.202 1_455 S
C47 O54 1.226 . S
O48 Cd44 2.273 . S
O48 Cd46 2.411 . S
O48 C51 1.320 . S
O49 Cd46 2.333 . S
O49 C51 1.214 . S
O50 Cd46 2.352 . S
O50 C53 1.258 . S
C51 O48 1.320 . S
C51 O49 1.214 . S
O52 Cd44 2.277 . S
O52 C47 1.202 1_655 S
C53 O50 1.258 . S
C53 O55 1.282 . S
O54 Cd46 2.277 1_455 S
O54 C47 1.226 . S
O55 Cd46 2.356 . S
O55 C53 1.282 . S
C56 O57 1.306 . S
C56 O59 1.160 . S
O57 C56 1.306 . S
O57 Cd58 2.228 . S
Cd58 O57 2.228 . S
Cd58 O62 2.273 . S
Cd58 O66 2.277 . S
O59 C56 1.160 . S
O59 Cd60 2.203 . S
Cd60 O59 2.203 . S
Cd60 O62 2.411 . S
Cd60 O63 2.333 . S
Cd60 O64 2.352 . S
Cd60 O68 2.277 1_545 S
Cd60 O69 2.356 . S
C61 O66 1.202 1_565 S
C61 O68 1.226 . S
O62 Cd58 2.273 . S
O62 Cd60 2.411 . S
O62 C65 1.320 . S
O63 Cd60 2.333 . S
O63 C65 1.214 . S
O64 Cd60 2.352 . S
O64 C67 1.258 . S
C65 O62 1.320 . S
C65 O63 1.214 . S
O66 Cd58 2.277 . S
O66 C61 1.202 1_545 S
C67 O64 1.258 . S
C67 O69 1.282 . S
O68 Cd60 2.277 1_565 S
O68 C61 1.226 . S
O69 Cd60 2.356 . S
O69 C67 1.282 . S
C70 O71 1.306 . S
C70 O73 1.160 1_565 S
O71 C70 1.306 . S
O71 Cd72 2.228 . S
Cd72 O71 2.228 . S
Cd72 O76 2.273 1_565 S
Cd72 O80 2.277 1_565 S
O73 C70 1.160 1_545 S
O73 Cd74 2.203 . S
Cd74 O73 2.203 . S
Cd74 O76 2.411 . S
Cd74 O77 2.333 . S
Cd74 O78 2.352 . S
Cd74 O82 2.277 . S
Cd74 O83 2.356 . S
C75 O80 1.209 . S
C75 O82 1.226 . S
O76 Cd72 2.273 1_545 S
O76 Cd74 2.411 . S
O76 C79 1.320 . S
O77 Cd74 2.333 . S
O77 C79 1.214 . S
O78 Cd74 2.352 . S
O78 C81 1.258 . S
C79 O76 1.320 . S
C79 O77 1.214 . S
O80 Cd72 2.277 1_545 S
O80 C75 1.209 . S
C81 O78 1.258 . S
C81 O83 1.282 . S
O82 Cd74 2.277 . S
O82 C75 1.226 . S
O83 Cd74 2.356 . S
O83 C81 1.282 . S
C84 O85 1.306 . S
C84 O87 1.160 . S
O85 C84 1.306 . S
O85 Cd86 2.228 . S
Cd86 O85 2.228 . S
Cd86 O90 2.273 . S
Cd86 O94 2.277 . S
O87 C84 1.160 . S
O87 Cd88 2.203 . S
Cd88 O87 2.203 . S
Cd88 O90 2.411 . S
Cd88 O91 2.333 . S
Cd88 O92 2.352 . S
Cd88 O96 2.277 1_565 S
Cd88 O97 2.356 . S
C89 O94 1.202 1_545 S
C89 O96 1.226 . S
O90 Cd86 2.273 . S
O90 Cd88 2.411 . S
O90 C93 1.320 . S
O91 Cd88 2.333 . S
O91 C93 1.214 . S
O92 Cd88 2.352 . S
O92 C95 1.258 . S
C93 O90 1.320 . S
C93 O91 1.214 . S
O94 Cd86 2.277 . S
O94 C89 1.202 1_565 S
C95 O92 1.258 . S
C95 O97 1.282 . S
O96 Cd88 2.277 1_545 S
O96 C89 1.226 . S
O97 Cd88 2.356 . S
O97 C95 1.282 . S
C98 O99 1.306 . S
C98 O101 1.160 1_545 S
O99 C98 1.306 . S
O99 Cd100 2.228 . S
Cd100 O99 2.228 . S
Cd100 O104 2.273 1_545 S
Cd100 O108 2.277 1_545 S
O101 C98 1.160 1_565 S
O101 Cd102 2.203 . S
Cd102 O101 2.203 . S
Cd102 O104 2.411 . S
Cd102 O105 2.333 . S
Cd102 O106 2.352 . S
Cd102 O110 2.277 . S
Cd102 O111 2.356 . S
C103 O108 1.209 . S
C103 O110 1.226 . S
O104 Cd100 2.273 1_565 S
O104 Cd102 2.411 . S
O104 C107 1.320 . S
O105 Cd102 2.333 . S
O105 C107 1.214 . S
O106 Cd102 2.352 . S
O106 C109 1.258 . S
C107 O104 1.320 . S
C107 O105 1.214 . S
O108 Cd100 2.277 1_565 S
O108 C103 1.209 . S
C109 O106 1.258 . S
C109 O111 1.282 . S
O110 Cd102 2.277 . S
O110 C103 1.226 . S
O111 Cd102 2.356 . S
O111 C109 1.282 . S
C9 C79 1.350 1_554 S
C23 C93 1.350 . S
C37 C107 1.350 1_554 S
C65 C51 1.350 . S
C11 C56 1.731 . S
C25 C70 1.731 . S
C84 C39 1.731 . S
C53 C98 1.731 . S
C67 C0 1.731 . S
C14 C81 1.731 . S
C95 C28 1.731 . S
C42 C109 1.731 . S
C33 C5 1.186 1_655 S
C47 C19 1.185 1_455 S
C61 C89 1.185 1_565 S
C75 C103 1.186 1_545 S
