# Generated by pormake.
# Topology cdl, (4)-cn, num edge types: 1
# Building blocks:
#     Node 0, Type 0, BuildingBlock: NAWXER_clean_sbu_0, # of connection points: 4
#     Node 1, Type 0, BuildingBlock: NAWXER_clean_sbu_0, # of connection points: 4
#     Node 2, Type 0, BuildingBlock: NAWXER_clean_sbu_0, # of connection points: 4
#     Node 3, Type 0, BuildingBlock: NAWXER_clean_sbu_0, # of connection points: 4
#     Edge 4, Type (0, 0), BuildingBlock: EZIPEK_clean_linker_0, # of connection points: 2
#     Edge 5, Type (0, 0), BuildingBlock: EZIPEK_clean_linker_0, # of connection points: 2
#     Edge 6, Type (0, 0), BuildingBlock: EZIPEK_clean_linker_0, # of connection points: 2
#     Edge 7, Type (0, 0), BuildingBlock: EZIPEK_clean_linker_0, # of connection points: 2
#     Edge 8, Type (0, 0), BuildingBlock: EZIPEK_clean_linker_0, # of connection points: 2
#     Edge 9, Type (0, 0), BuildingBlock: EZIPEK_clean_linker_0, # of connection points: 2
#     Edge 10, Type (0, 0), BuildingBlock: EZIPEK_clean_linker_0, # of connection points: 2
#     Edge 11, Type (0, 0), BuildingBlock: EZIPEK_clean_linker_0, # of connection points: 2
# Relax obj value: 0.000
# Max RMSD: 0.003
# Mean RMSD: 0.003
data_MOF--net-cdl--node1-NAWXER_clean_sbu_0--edge1-EZIPEK_clean_linker_0
_symmetry_space_group_name_H-M    P1
_symmetry_Int_Tables_number       1
_symmetry_cell_setting            triclinic
loop_
_symmetry_equiv_pos_as_xyz
'x, y, z'
_cell_length_a     10.661627
_cell_length_b     10.655952
_cell_length_c     42.40531
_cell_angle_alpha  96.627653
_cell_angle_beta   97.053304
_cell_angle_gamma 88.590375
loop_
_atom_site_label
_atom_site_type_symbol
_atom_site_fract_x
_atom_site_fract_y
_atom_site_fract_z
_atom_type_partial_charge
C0 C 0.78489 0.25256 0.13 0.0
C1 C 0.79365 0.79253 0.12658 0.0
O2 O 0.89735 0.2061 0.13187 0.0
Zn3 Zn 0.98688 0.02257 0.13299 0.0
O4 O 0.69059 0.18009 0.12803 0.0
Zn5 Zn 0.78724 0.02356 0.12795 0.0
O6 O 0.87942 0.03538 0.17663 0.0
O7 O 0.08535 0.03861 0.17441 0.0
O8 O 0.69778 0.86492 0.12294 0.0
O9 O 0.90478 0.83943 0.13069 0.0
O10 O 0.07528 1.00919 0.09569 0.0
O11 O 0.86848 0.02109 0.08366 0.0
C12 C 0.99311 0.04054 0.1908 0.0
C13 C 0.97952 1.01488 0.07486 0.0
C14 C 0.35444 0.20806 0.64444 0.0
C15 C 0.89414 0.22215 0.6411 0.0
O16 O 0.30399 0.09867 0.63965 0.0
Zn17 Zn 0.12073 1.01814 0.63729 0.0
O18 O 0.28482 0.30585 0.64857 0.0
Zn19 Zn 0.12352 0.22032 0.64332 0.0
O20 O 0.13264 0.13608 0.68691 0.0
O21 O 0.13707 0.92908 0.67531 0.0
O22 O 0.9667 0.31672 0.64372 0.0
O23 O 0.94031 0.10971 0.63874 0.0
O24 O 0.10443 0.92589 0.59468 0.0
O25 O 0.11242 0.13334 0.59484 0.0
C26 C 0.13906 0.0255 0.69608 0.0
C27 C 0.10555 0.0222 0.57955 0.0
C28 C 0.31151 0.25541 0.90368 0.0
C29 C 0.32721 0.7965 0.90273 0.0
O30 O 0.40872 0.18558 0.90858 0.0
Zn31 Zn 0.32365 0.02402 0.90304 0.0
O32 O 0.20229 0.20494 0.89764 0.0
Zn33 Zn 0.12522 0.01966 0.88947 0.0
O34 O 1.00881 0.02643 0.92086 0.0
O35 O 0.20935 0.03455 0.94201 0.0
O36 O 0.21602 0.8399 0.89472 0.0
O37 O 0.42055 0.87102 0.90936 0.0
O38 O 0.26809 0.99981 0.85231 0.0
O39 O 0.0603 1.00813 0.84447 0.0
C40 C 0.09135 0.03302 0.94532 0.0
C41 C 0.1655 0.99996 0.83311 0.0
C42 C 0.33109 0.25281 0.39501 0.0
C43 C 0.87177 0.26882 0.39373 0.0
O44 O 0.28096 0.1433 0.38897 0.0
Zn45 Zn 0.09717 0.06374 0.38685 0.0
O46 O 0.2613 0.34929 0.40051 0.0
Zn47 Zn 0.10008 0.2641 0.39483 0.0
O48 O 0.10694 0.17174 0.43743 0.0
O49 O 0.1134 0.96627 0.42316 0.0
O50 O 0.94546 0.36283 0.39722 0.0
O51 O 0.91662 0.15603 0.38995 0.0
O52 O 0.07332 0.9766 0.34417 0.0
O53 O 0.07878 0.18441 0.34526 0.0
C54 C 0.11243 0.05856 0.44498 0.0
C55 C 0.069 0.07419 0.32939 0.0
C56 C 0.72071 0.47185 0.15192 0.0
C57 C 0.76745 0.38947 0.1272 0.0
C58 C 0.82935 0.57034 0.10204 0.0
C59 C 0.77889 0.65388 0.12606 0.0
N60 N 0.663 0.68554 0.17193 0.0
N61 N 0.83331 0.35841 0.07453 0.0
C62 C 0.71905 0.60492 0.15022 0.0
C63 C 0.81189 0.43835 0.101 0.0
N64 N 0.68429 0.42335 0.17782 0.0
N65 N 0.89667 0.61637 0.08053 0.0
H66 H 0.81745 0.2615 0.07256 0.0
H67 H 0.85366 0.3891 0.05329 0.0
H68 H 0.90906 0.71227 0.0796 0.0
H69 H 0.94882 0.55925 0.06517 0.0
H70 H 0.6645 0.47826 0.19858 0.0
H71 H 0.68072 0.32661 0.17938 0.0
H72 H 0.60504 0.65577 0.1876 0.0
H73 H 0.66861 0.78356 0.1733 0.0
C74 C 0.57869 0.1584 0.66628 0.0
C75 C 0.49326 0.21893 0.64415 0.0
C76 C 0.67401 0.28913 0.61982 0.0
C77 C 0.75747 0.23809 0.64389 0.0
N78 N 0.78899 0.15662 0.69496 0.0
N79 N 0.45955 0.34921 0.60069 0.0
C80 C 0.70944 0.18324 0.66868 0.0
C81 C 0.54104 0.28813 0.62143 0.0
N82 N 0.53722 0.07268 0.68416 0.0
N83 N 0.72118 0.33145 0.59446 0.0
H84 H 0.36171 0.33989 0.59852 0.0
H85 H 0.48868 0.41353 0.58643 0.0
H86 H 0.81776 0.3346 0.59271 0.0
H87 H 0.66507 0.35554 0.57414 0.0
H88 H 0.59826 1.01722 0.69804 0.0
H89 H 0.44376 0.04524 0.6826 0.0
H90 H 0.75729 0.12807 0.71527 0.0
H91 H 0.88524 0.17686 0.69792 0.0
C92 C 0.27622 0.4517 0.87559 0.0
C93 C 0.32333 0.39427 0.9035 0.0
C94 C 0.38243 0.604 0.93136 0.0
C95 C 0.34383 0.65819 0.90264 0.0
N96 N 0.28716 0.63018 0.8456 0.0
N97 N 0.43222 0.41454 0.95732 0.0
C98 C 0.30123 0.5807 0.87421 0.0
C99 C 0.38147 0.46994 0.93106 0.0
N100 N 0.20377 0.38555 0.85061 0.0
N101 N 0.41213 0.68068 0.95931 0.0
H102 H 0.42198 0.31909 0.95958 0.0
H103 H 0.4897 0.46213 0.97636 0.0
H104 H 0.41425 0.77888 0.96049 0.0
H105 H 0.42614 0.64807 0.98171 0.0
H106 H 0.15538 0.42807 0.8317 0.0
H107 H 0.18133 0.29088 0.84971 0.0
H108 H 0.26922 0.57527 0.82359 0.0
H109 H 0.30727 0.72414 0.84363 0.0
C110 C 0.55412 0.20158 0.41742 0.0
C111 C 0.47024 0.2655 0.39566 0.0
C112 C 0.653 0.34343 0.37352 0.0
C113 C 0.73507 0.28524 0.3966 0.0
N114 N 0.76416 0.19216 0.4461 0.0
N115 N 0.4395 0.40793 0.35482 0.0
C116 C 0.68548 0.22473 0.42027 0.0
C117 C 0.5197 0.34111 0.37454 0.0
N118 N 0.51002 0.11546 0.43479 0.0
N119 N 0.70181 0.39443 0.34957 0.0
H120 H 0.34155 0.39904 0.35221 0.0
H121 H 0.46967 0.4768 0.34201 0.0
H122 H 0.79861 0.40045 0.3485 0.0
H123 H 0.64698 0.42381 0.32966 0.0
H124 H 0.56914 0.05642 0.44807 0.0
H125 H 0.41527 0.09309 0.4337 0.0
H126 H 0.73193 0.15937 0.46585 0.0
H127 H 0.86063 0.21147 0.44944 0.0
C128 C 0.08602 0.13707 1.00129 0.0
C129 C 0.05293 0.03374 0.97775 0.0
C130 C 0.94817 0.93182 0.01627 0.0
C131 C 0.9968 0.02576 0.04099 0.0
N132 N 0.11118 0.22009 0.05738 0.0
N133 N 0.97065 0.82292 0.9639 0.0
C134 C 0.06585 0.12899 0.03359 0.0
C135 C 0.98802 0.92883 0.98542 0.0
N136 N 0.13196 0.2449 0.99245 0.0
N137 N 0.86288 0.84602 0.02194 0.0
H138 H 1.00023 0.81535 0.94121 0.0
H139 H 0.93773 0.7381 0.96959 0.0
H140 H 0.82991 0.8447 0.04397 0.0
H141 H 0.81469 0.78424 1.00393 0.0
H142 H 0.14592 0.32861 1.00764 0.0
H143 H 0.14615 0.25463 0.96895 0.0
H144 H 0.17607 0.28795 0.05446 0.0
H145 H 0.08751 0.22564 0.08064 0.0
C146 C 0.21562 0.08478 0.502 0.0
C147 C 0.11422 0.03723 0.47911 0.0
C148 C 1.00747 0.96843 0.52244 0.0
C149 C 0.11289 1.0093 0.54465 0.0
N150 N 0.33063 0.07277 0.55444 0.0
N151 N 0.91849 0.92169 0.46693 0.0
C152 C 0.22114 0.05678 0.534 0.0
C153 C 1.01235 0.97374 0.48911 0.0
N154 N 0.30474 0.16071 0.4937 0.0
N155 N 0.90019 0.93164 0.53333 0.0
H156 H 0.9118 0.93296 0.4427 0.0
H157 H 0.85024 0.86186 0.47227 0.0
H158 H 0.89435 0.92485 0.55745 0.0
H159 H 0.81458 0.91554 0.5189 0.0
H160 H 0.37206 0.20889 0.51031 0.0
H161 H 0.30449 0.18638 0.4708 0.0
H162 H 0.41646 0.09545 0.54724 0.0
H163 H 0.33891 0.0495 0.57783 0.0
C164 C 0.12781 0.98157 0.27557 0.0
C165 C 0.0492 0.06245 0.29387 0.0
C166 C 0.9488 0.14171 0.24481 0.0
C167 C 1.01552 0.04957 0.22627 0.0
N168 N 0.14899 0.86271 0.2243 0.0
N169 N 0.86305 0.19633 0.29481 0.0
C170 C 0.09981 0.96401 0.2417 0.0
C171 C 0.95335 0.13606 0.27819 0.0
N172 N 0.23227 0.92555 0.29026 0.0
N173 N 0.88524 0.23798 0.23089 0.0
H174 H 0.85853 0.18875 0.31893 0.0
H175 H 0.7846 0.24164 0.28381 0.0
H176 H 0.88531 0.24958 0.20681 0.0
H177 H 0.84483 0.31394 0.24396 0.0
H178 H 0.29944 0.87614 0.27767 0.0
H179 H 0.25891 0.93917 0.3149 0.0
H180 H 0.20065 0.79086 0.23481 0.0
H181 H 0.1274 0.84327 0.19959 0.0
C182 C 0.24611 0.08117 0.75219 0.0
C183 C 0.15124 1.01266 0.731 0.0
C184 C 0.08667 0.91614 0.77632 0.0
C185 C 0.16972 0.99677 0.79792 0.0
N186 N 0.32302 0.16608 0.806 0.0
N187 N 0.96505 0.88305 0.72402 0.0
C188 C 0.24895 0.08092 0.78578 0.0
C189 C 0.06748 0.93441 0.74332 0.0
N190 N 0.33652 0.14484 0.74038 0.0
N191 N 0.02966 0.81857 0.78708 0.0
H192 H 0.94433 0.89776 0.70004 0.0
H193 H 0.89353 0.8368 0.73261 0.0
H194 H 0.04603 0.79847 0.81076 0.0
H195 H 0.97793 0.74938 0.77191 0.0
H196 H 0.41932 0.17811 0.7541 0.0
H197 H 0.33428 0.15768 0.71643 0.0
H198 H 0.36449 0.24304 0.79842 0.0
H199 H 0.33765 0.16729 0.83068 0.0
loop_
_geom_bond_atom_site_label_1
_geom_bond_atom_site_label_2
_geom_bond_distance
_geom_bond_site_symmetry_2
_ccdc_geom_bond_type
C0 O2 1.247 . S
C0 O4 1.258 1_455 S
C1 O8 1.247 1_455 S
C1 O9 1.258 . S
O2 C0 1.247 . S
O2 Zn3 2.028 . S
Zn3 O2 2.028 . S
Zn3 O7 2.035 . S
Zn3 O9 2.035 1_545 S
Zn3 O10 2.028 . S
O4 C0 1.258 1_655 S
O4 Zn5 2.035 . S
Zn5 O4 2.035 . S
Zn5 O6 2.028 . S
Zn5 O8 2.028 1_545 S
Zn5 O11 2.035 . S
O6 Zn5 2.028 . S
O6 C12 1.247 1_655 S
O7 Zn3 2.035 . S
O7 C12 1.258 . S
O8 C1 1.247 1_655 S
O8 Zn5 2.028 1_565 S
O9 C1 1.258 . S
O9 Zn3 2.035 1_565 S
O10 Zn3 2.028 . S
O10 C13 1.247 . S
O11 Zn5 2.035 . S
O11 C13 1.258 1_655 S
C12 O6 1.247 1_455 S
C12 O7 1.258 . S
C13 O10 1.247 . S
C13 O11 1.258 1_455 S
C14 O16 1.247 1_545 S
C14 O18 1.258 . S
C15 O22 1.247 . S
C15 O23 1.258 1_545 S
O16 C14 1.247 1_565 S
O16 Zn17 2.028 . S
Zn17 O16 2.028 . S
Zn17 O21 2.035 . S
Zn17 O23 2.035 1_455 S
Zn17 O24 2.028 . S
O18 C14 1.258 . S
O18 Zn19 2.035 . S
Zn19 O18 2.035 . S
Zn19 O20 2.028 . S
Zn19 O22 2.028 1_455 S
Zn19 O25 2.035 . S
O20 Zn19 2.028 . S
O20 C26 1.247 . S
O21 Zn17 2.035 . S
O21 C26 1.258 1_565 S
O22 C15 1.247 . S
O22 Zn19 2.028 1_655 S
O23 C15 1.258 1_565 S
O23 Zn17 2.035 1_655 S
O24 Zn17 2.028 . S
O24 C27 1.247 1_565 S
O25 Zn19 2.035 . S
O25 C27 1.258 . S
C26 O20 1.247 . S
C26 O21 1.258 1_545 S
C27 O24 1.247 1_545 S
C27 O25 1.258 . S
C28 O30 1.247 . S
C28 O32 1.258 1_455 S
C29 O36 1.247 1_455 S
C29 O37 1.258 . S
O30 C28 1.247 . S
O30 Zn31 2.028 . S
Zn31 O30 2.028 . S
Zn31 O35 2.035 . S
Zn31 O37 2.035 1_545 S
Zn31 O38 2.028 . S
O32 C28 1.258 1_655 S
O32 Zn33 2.035 . S
Zn33 O32 2.035 . S
Zn33 O34 2.028 . S
Zn33 O36 2.028 1_545 S
Zn33 O39 2.035 . S
O34 Zn33 2.028 . S
O34 C40 1.247 1_655 S
O35 Zn31 2.035 . S
O35 C40 1.258 . S
O36 C29 1.247 1_655 S
O36 Zn33 2.028 1_565 S
O37 C29 1.258 . S
O37 Zn31 2.035 1_565 S
O38 Zn31 2.028 . S
O38 C41 1.247 . S
O39 Zn33 2.035 . S
O39 C41 1.258 1_655 S
C40 O34 1.247 1_455 S
C40 O35 1.258 . S
C41 O38 1.247 . S
C41 O39 1.258 1_455 S
C42 O44 1.247 1_545 S
C42 O46 1.258 . S
C43 O50 1.247 . S
C43 O51 1.258 1_545 S
O44 C42 1.247 1_565 S
O44 Zn45 2.028 . S
Zn45 O44 2.028 . S
Zn45 O49 2.035 . S
Zn45 O51 2.035 1_455 S
Zn45 O52 2.028 . S
O46 C42 1.258 . S
O46 Zn47 2.035 . S
Zn47 O46 2.035 . S
Zn47 O48 2.028 . S
Zn47 O50 2.028 1_455 S
Zn47 O53 2.035 . S
O48 Zn47 2.028 . S
O48 C54 1.247 . S
O49 Zn45 2.035 . S
O49 C54 1.258 1_565 S
O50 C43 1.247 . S
O50 Zn47 2.028 1_655 S
O51 C43 1.258 1_565 S
O51 Zn45 2.035 1_655 S
O52 Zn45 2.028 . S
O52 C55 1.247 1_565 S
O53 Zn47 2.035 . S
O53 C55 1.258 . S
C54 O48 1.247 . S
C54 O49 1.258 1_545 S
C55 O52 1.247 1_545 S
C55 O53 1.258 . S
C56 C57 1.363 . S
C56 C62 1.379 . S
C56 N64 1.353 1_455 S
C57 C56 1.363 . S
C57 C63 1.363 . S
C58 C59 1.363 . S
C58 C63 1.379 . S
C58 N65 1.356 . S
C59 C58 1.363 . S
C59 C62 1.363 . S
N60 C62 1.353 1_655 S
N60 H72 0.989 . S
N60 H73 0.983 1_655 S
N61 C63 1.356 . S
N61 H66 0.984 . S
N61 H67 0.985 . S
C62 C56 1.379 . S
C62 C59 1.363 . S
C62 N60 1.353 1_455 S
C63 C57 1.363 . S
C63 C58 1.379 . S
C63 N61 1.356 . S
N64 C56 1.353 1_655 S
N64 H70 0.989 . S
N64 H71 0.983 1_655 S
N65 C58 1.356 . S
N65 H68 0.984 . S
N65 H69 0.985 . S
H66 N61 0.984 . S
H67 N61 0.985 . S
H68 N65 0.984 . S
H69 N65 0.985 . S
H70 N64 0.989 . S
H71 N64 0.983 1_455 S
H72 N60 0.989 . S
H73 N60 0.983 1_455 S
C74 C75 1.363 1_565 S
C74 C80 1.379 . S
C74 N82 1.356 . S
C75 C74 1.363 1_545 S
C75 C81 1.363 . S
C76 C77 1.363 . S
C76 C81 1.379 . S
C76 N83 1.356 . S
C77 C76 1.363 . S
C77 C80 1.363 1_545 S
N78 C80 1.356 . S
N78 H90 0.984 . S
N78 H91 0.985 . S
N79 C81 1.356 . S
N79 H84 0.984 . S
N79 H85 0.985 . S
C80 C74 1.379 . S
C80 C77 1.363 1_565 S
C80 N78 1.356 . S
C81 C75 1.363 . S
C81 C76 1.379 . S
C81 N79 1.356 . S
N82 C74 1.356 . S
N82 H88 0.984 . S
N82 H89 0.984 . S
N83 C76 1.356 . S
N83 H86 0.984 . S
N83 H87 0.985 . S
H84 N79 0.984 . S
H85 N79 0.985 . S
H86 N83 0.984 . S
H87 N83 0.985 . S
H88 N82 0.984 . S
H89 N82 0.984 . S
H90 N78 0.984 . S
H91 N78 0.985 . S
C92 C93 1.363 1_655 S
C92 C98 1.379 . S
C92 N100 1.356 . S
C93 C92 1.363 1_455 S
C93 C99 1.363 . S
C94 C95 1.363 . S
C94 C99 1.379 . S
C94 N101 1.356 . S
C95 C94 1.363 . S
C95 C98 1.363 1_455 S
N96 C98 1.356 . S
N96 H108 0.984 . S
N96 H109 0.985 . S
N97 C99 1.356 . S
N97 H102 0.984 . S
N97 H103 0.985 . S
C98 C92 1.379 . S
C98 C95 1.363 1_655 S
C98 N96 1.356 . S
C99 C93 1.363 . S
C99 C94 1.379 . S
C99 N97 1.356 . S
N100 C92 1.356 . S
N100 H106 0.984 . S
N100 H107 0.984 . S
N101 C94 1.356 . S
N101 H104 0.984 . S
N101 H105 0.985 . S
H102 N97 0.984 . S
H103 N97 0.985 . S
H104 N101 0.984 . S
H105 N101 0.985 . S
H106 N100 0.984 . S
H107 N100 0.984 . S
H108 N96 0.984 . S
H109 N96 0.985 . S
C110 C111 1.363 1_565 S
C110 C116 1.379 . S
C110 N118 1.356 . S
C111 C110 1.363 1_545 S
C111 C117 1.363 . S
C112 C113 1.363 . S
C112 C117 1.379 . S
C112 N119 1.356 . S
C113 C112 1.363 . S
C113 C116 1.363 1_545 S
N114 C116 1.356 . S
N114 H126 0.984 . S
N114 H127 0.985 . S
N115 C117 1.356 . S
N115 H120 0.984 . S
N115 H121 0.985 . S
C116 C110 1.379 . S
C116 C113 1.363 1_565 S
C116 N114 1.356 . S
C117 C111 1.363 . S
C117 C112 1.379 . S
C117 N115 1.356 . S
N118 C110 1.356 . S
N118 H124 0.984 . S
N118 H125 0.984 . S
N119 C112 1.356 . S
N119 H122 0.984 . S
N119 H123 0.985 . S
H120 N115 0.984 . S
H121 N115 0.985 . S
H122 N119 0.984 . S
H123 N119 0.985 . S
H124 N118 0.984 . S
H125 N118 0.984 . S
H126 N114 0.984 . S
H127 N114 0.985 . S
C128 C129 1.363 . S
C128 C134 1.379 1_556 S
C128 N136 1.356 . S
C129 C128 1.363 . S
C129 C135 1.363 1_545 S
C130 C131 1.363 1_565 S
C130 C135 1.379 1_554 S
C130 N137 1.356 1_455 S
C131 C130 1.363 1_545 S
C131 C134 1.363 . S
N132 C134 1.356 . S
N132 H144 0.984 . S
N132 H145 0.985 . S
N133 C135 1.356 1_655 S
N133 H138 0.984 . S
N133 H139 0.985 . S
C134 C128 1.379 1_554 S
C134 C131 1.363 . S
C134 N132 1.356 . S
C135 C129 1.363 1_565 S
C135 C130 1.379 1_556 S
C135 N133 1.356 1_455 S
N136 C128 1.356 . S
N136 H142 0.984 . S
N136 H143 0.984 . S
N137 C130 1.356 1_655 S
N137 H140 0.984 . S
N137 H141 0.985 . S
H138 N133 0.984 . S
H139 N133 0.985 . S
H140 N137 0.984 . S
H141 N137 0.985 . S
H142 N136 0.984 . S
H143 N136 0.984 . S
H144 N132 0.984 . S
H145 N132 0.985 . S
C146 C147 1.363 . S
C146 C152 1.379 . S
C146 N154 1.356 . S
C147 C146 1.363 . S
C147 C153 1.363 1_545 S
C148 C149 1.363 1_565 S
C148 C153 1.379 . S
C148 N155 1.356 1_455 S
C149 C148 1.363 1_545 S
C149 C152 1.363 . S
N150 C152 1.356 . S
N150 H162 0.984 . S
N150 H163 0.985 . S
N151 C153 1.356 1_655 S
N151 H156 0.984 . S
N151 H157 0.985 . S
C152 C146 1.379 . S
C152 C149 1.363 . S
C152 N150 1.356 . S
C153 C147 1.363 1_565 S
C153 C148 1.379 . S
C153 N151 1.356 1_455 S
N154 C146 1.356 . S
N154 H160 0.984 . S
N154 H161 0.984 . S
N155 C148 1.356 1_655 S
N155 H158 0.984 . S
N155 H159 0.985 . S
H156 N151 0.984 . S
H157 N151 0.985 . S
H158 N155 0.984 . S
H159 N155 0.985 . S
H160 N154 0.984 . S
H161 N154 0.984 . S
H162 N150 0.984 . S
H163 N150 0.985 . S
C164 C165 1.363 1_565 S
C164 C170 1.379 . S
C164 N172 1.356 . S
C165 C164 1.363 1_545 S
C165 C171 1.363 . S
C166 C167 1.363 . S
C166 C171 1.379 . S
C166 N173 1.356 1_455 S
C167 C166 1.363 . S
C167 C170 1.363 1_545 S
N168 C170 1.356 . S
N168 H180 0.984 . S
N168 H181 0.985 . S
N169 C171 1.356 1_655 S
N169 H174 0.984 . S
N169 H175 0.985 . S
C170 C164 1.379 . S
C170 C167 1.363 1_565 S
C170 N168 1.356 . S
C171 C165 1.363 . S
C171 C166 1.379 . S
C171 N169 1.356 1_455 S
N172 C164 1.356 . S
N172 H178 0.984 . S
N172 H179 0.984 . S
N173 C166 1.356 1_655 S
N173 H176 0.984 . S
N173 H177 0.985 . S
H174 N169 0.984 . S
H175 N169 0.985 . S
H176 N173 0.984 . S
H177 N173 0.985 . S
H178 N172 0.984 . S
H179 N172 0.984 . S
H180 N168 0.984 . S
H181 N168 0.985 . S
C182 C183 1.363 . S
C182 C188 1.379 . S
C182 N190 1.356 . S
C183 C182 1.363 . S
C183 C189 1.363 1_445 S
C184 C185 1.363 1_665 S
C184 C189 1.379 . S
C184 N191 1.356 . S
C185 C184 1.363 1_445 S
C185 C188 1.363 . S
N186 C188 1.356 . S
N186 H198 0.984 . S
N186 H199 0.985 . S
N187 C189 1.356 . S
N187 H192 0.984 . S
N187 H193 0.985 . S
C188 C182 1.379 . S
C188 C185 1.363 . S
C188 N186 1.356 . S
C189 C183 1.363 1_665 S
C189 C184 1.379 . S
C189 N187 1.356 . S
N190 C182 1.356 . S
N190 H196 0.984 . S
N190 H197 0.984 . S
N191 C184 1.356 . S
N191 H194 0.984 . S
N191 H195 0.985 . S
H192 N187 0.984 . S
H193 N187 0.985 . S
H194 N191 0.984 . S
H195 N191 0.985 . S
H196 N190 0.984 . S
H197 N190 0.984 . S
H198 N186 0.984 . S
H199 N186 0.985 . S
C57 C0 1.498 . S
C59 C1 1.498 . S
C75 C14 1.498 . S
C77 C15 1.498 . S
C93 C28 1.498 . S
C95 C29 1.498 . S
C111 C42 1.498 . S
C113 C43 1.498 . S
C129 C40 1.499 . S
C131 C13 1.499 . S
C147 C54 1.499 . S
C149 C27 1.499 . S
C165 C55 1.499 . S
C167 C12 1.499 . S
C183 C26 1.499 . S
C185 C41 1.499 . S
