# Generated by pormake.
# Topology uog, (4)-cn, num edge types: 1
# Building blocks:
#     Node 0, Type 0, BuildingBlock: MUDLON_clean_sbu_0, # of connection points: 4
#     Node 1, Type 0, BuildingBlock: MUDLON_clean_sbu_0, # of connection points: 4
#     Node 2, Type 0, BuildingBlock: MUDLON_clean_sbu_0, # of connection points: 4
#     Node 3, Type 0, BuildingBlock: MUDLON_clean_sbu_0, # of connection points: 4
#     Node 4, Type 0, BuildingBlock: MUDLON_clean_sbu_0, # of connection points: 4
#     Node 5, Type 0, BuildingBlock: MUDLON_clean_sbu_0, # of connection points: 4
#     Edge 6, Type (0, 0), BuildingBlock: AJUNOK_clean_linker_0, # of connection points: 2
#     Edge 7, Type (0, 0), BuildingBlock: AJUNOK_clean_linker_0, # of connection points: 2
#     Edge 8, Type (0, 0), BuildingBlock: AJUNOK_clean_linker_0, # of connection points: 2
#     Edge 9, Type (0, 0), BuildingBlock: AJUNOK_clean_linker_0, # of connection points: 2
#     Edge 10, Type (0, 0), BuildingBlock: AJUNOK_clean_linker_0, # of connection points: 2
#     Edge 11, Type (0, 0), BuildingBlock: AJUNOK_clean_linker_0, # of connection points: 2
#     Edge 12, Type (0, 0), BuildingBlock: AJUNOK_clean_linker_0, # of connection points: 2
#     Edge 13, Type (0, 0), BuildingBlock: AJUNOK_clean_linker_0, # of connection points: 2
#     Edge 14, Type (0, 0), BuildingBlock: AJUNOK_clean_linker_0, # of connection points: 2
#     Edge 15, Type (0, 0), BuildingBlock: AJUNOK_clean_linker_0, # of connection points: 2
#     Edge 16, Type (0, 0), BuildingBlock: AJUNOK_clean_linker_0, # of connection points: 2
#     Edge 17, Type (0, 0), BuildingBlock: AJUNOK_clean_linker_0, # of connection points: 2
# Relax obj value: 0.035
# Max RMSD: 0.253
# Mean RMSD: 0.253
data_MOF--net-uog--node1-MUDLON_clean_sbu_0--edge1-AJUNOK_clean_linker_0
_symmetry_space_group_name_H-M    P1
_symmetry_Int_Tables_number       1
_symmetry_cell_setting            triclinic
loop_
_symmetry_equiv_pos_as_xyz
'x, y, z'
_cell_length_a     22.210645
_cell_length_b     22.191431
_cell_length_c     33.296262
_cell_angle_alpha  90.079964
_cell_angle_beta   89.978832
_cell_angle_gamma 120.02063
loop_
_atom_site_label
_atom_site_type_symbol
_atom_site_fract_x
_atom_site_fract_y
_atom_site_fract_z
_atom_type_partial_charge
Mg0 Mg 0.60665 0.30307 0.19034 0.0
C1 C 0.63556 0.34266 0.10515 0.0
O2 O 0.5721 0.33147 0.11005 0.0
C3 C 0.63067 0.29642 0.27627 0.0
O4 O 0.5665 0.24583 0.27063 0.0
C5 C 0.58814 0.16264 0.18771 0.0
O6 O 0.65592 0.20393 0.18818 0.0
O7 O 0.54977 0.19017 0.1882 0.0
O8 O 0.66718 0.33684 0.13546 0.0
O9 O 0.54384 0.35278 0.19205 0.0
C10 C 0.57853 0.41894 0.19349 0.0
O11 O 0.64675 0.44971 0.1943 0.0
O12 O 0.66507 0.33191 0.246 0.0
Mg13 Mg 0.31237 0.59849 0.52341 0.0
C14 C 0.30361 0.62424 0.43738 0.0
O15 O 0.25101 0.56099 0.44265 0.0
C16 C 0.34616 0.62936 0.60921 0.0
O17 O 0.33407 0.56526 0.60569 0.0
C18 C 0.4325 0.578 0.52279 0.0
O19 O 0.4592 0.64586 0.52273 0.0
O20 O 0.36656 0.53979 0.52299 0.0
O21 O 0.34057 0.65681 0.4677 0.0
O22 O 0.19955 0.53926 0.52524 0.0
C23 C 0.17175 0.57739 0.52628 0.0
O24 O 0.21283 0.64526 0.52648 0.0
O25 O 0.34354 0.66055 0.5778 0.0
Mg26 Mg 0.72817 0.30793 0.8578 0.0
C27 C 0.69286 0.29818 0.77201 0.0
O28 O 0.70449 0.24624 0.77736 0.0
C29 C 0.73346 0.34087 0.94363 0.0
O30 O 0.78277 0.32505 0.93946 0.0
C31 C 0.87188 0.42589 0.85574 0.0
O32 O 0.83421 0.45644 0.85616 0.0
O33 O 0.84074 0.35972 0.85623 0.0
O34 O 0.69691 0.33518 0.80224 0.0
O35 O 0.67593 0.19524 0.86025 0.0
C36 C 0.60981 0.16419 0.86044 0.0
O37 O 0.57942 0.202 0.85944 0.0
O38 O 0.70007 0.34066 0.91254 0.0
Mg39 Mg 0.43281 0.71588 0.18986 0.0
C40 C 0.40621 0.68542 0.10359 0.0
O41 O 0.47092 0.69989 0.10779 0.0
C42 C 0.40511 0.72114 0.2759 0.0
O43 O 0.47033 0.77047 0.27204 0.0
C44 C 0.46061 0.85993 0.18808 0.0
O45 O 0.39238 0.82239 0.1883 0.0
O46 O 0.49534 0.82852 0.18859 0.0
O47 O 0.37315 0.68586 0.13469 0.0
O48 O 0.48974 0.66006 0.19146 0.0
C49 C 0.45129 0.59412 0.1917 0.0
O50 O 0.38353 0.56762 0.19111 0.0
O51 O 0.37215 0.68811 0.24464 0.0
Mg52 Mg 0.72553 0.4247 0.52422 0.0
C53 C 0.72924 0.39621 0.43799 0.0
O54 O 0.78093 0.46041 0.44182 0.0
C55 C 0.69439 0.39745 0.61036 0.0
O56 O 0.7089 0.46226 0.60636 0.0
C57 C 0.60753 0.45052 0.52294 0.0
O58 O 0.57698 0.38225 0.52275 0.0
O59 O 0.67366 0.48552 0.52345 0.0
O60 O 0.69541 0.36435 0.46926 0.0
O61 O 0.83822 0.48506 0.52528 0.0
C62 C 0.86928 0.44998 0.52544 0.0
O63 O 0.83152 0.38171 0.5249 0.0
O64 O 0.69482 0.36454 0.57915 0.0
Mg65 Mg 0.31482 0.72097 0.8568 0.0
C66 C 0.34616 0.729 0.77081 0.0
O67 O 0.33085 0.77839 0.77651 0.0
C68 C 0.30622 0.68356 0.94208 0.0
O69 O 0.25386 0.69461 0.93717 0.0
C70 C 0.17428 0.6011 0.85413 0.0
O71 O 0.21537 0.5744 0.85374 0.0
O72 O 0.20204 0.66706 0.85517 0.0
O73 O 0.3461 0.69396 0.80106 0.0
O74 O 0.36852 0.83379 0.85919 0.0
C75 C 0.4344 0.86154 0.86047 0.0
O76 O 0.46106 0.82039 0.86053 0.0
O77 O 0.34323 0.68871 0.91166 0.0
C78 C 0.48479 0.0421 0.18824 0.0
C79 C 0.55741 0.08574 0.18733 0.0
C80 C 0.45437 0.96948 0.18837 0.0
C81 C 0.49518 0.93717 0.18762 0.0
H82 H 0.45085 0.06404 0.18899 0.0
H83 H 0.39816 0.93853 0.1892 0.0
S84 S 0.68804 0.02762 0.1846 0.0
N85 N 0.66966 0.09104 0.18529 0.0
N86 N 0.61236 0.95472 0.18559 0.0
C87 C 0.56792 0.98009 0.18655 0.0
C88 C 0.59901 0.0542 0.18638 0.0
C89 C 0.4495 0.47448 0.52211 0.0
C90 C 0.47854 0.54718 0.5228 0.0
C91 C 0.49168 0.44407 0.52211 0.0
C92 C 0.56479 0.48497 0.52283 0.0
H93 H 0.39361 0.4405 0.52154 0.0
H94 H 0.46642 0.38781 0.52156 0.0
S95 S 0.66732 0.67807 0.52498 0.0
N96 N 0.58554 0.65958 0.52432 0.0
N97 N 0.66446 0.60233 0.52434 0.0
C98 C 0.59465 0.55779 0.52355 0.0
C99 C 0.55168 0.58886 0.52353 0.0
C100 C 0.9813 0.54185 0.85543 0.0
C101 C 0.94903 0.46868 0.85503 0.0
C102 C 0.05386 0.58407 0.85501 0.0
C103 C 0.09744 0.55502 0.85413 0.0
H104 H 0.95036 0.56713 0.85619 0.0
H105 H 0.07583 0.64002 0.85547 0.0
S106 S 0.03936 0.36607 0.85247 0.0
N107 N 0.96655 0.36892 0.85349 0.0
N108 N 0.10271 0.44794 0.85266 0.0
C109 C 0.06592 0.48182 0.85358 0.0
C110 C 0.9919 0.43879 0.85404 0.0
C111 C 0.05125 0.47387 0.52498 0.0
C112 C 0.09489 0.54653 0.52651 0.0
C113 C 0.97867 0.44347 0.52472 0.0
C114 C 0.94645 0.48436 0.52595 0.0
H115 H 0.07318 0.43991 0.52386 0.0
H116 H 0.94768 0.38725 0.52343 0.0
S117 S 0.03696 0.67734 0.53062 0.0
N118 N 0.10026 0.65886 0.52961 0.0
N119 N 0.96411 0.60165 0.52906 0.0
C120 C 0.98939 0.55714 0.52762 0.0
C121 C 0.06342 0.58818 0.52792 0.0
C122 C 0.45158 0.98214 0.85964 0.0
C123 C 0.48048 0.93844 0.86111 0.0
C124 C 0.49385 0.05477 0.85962 0.0
C125 C 0.56692 0.08698 0.86105 0.0
H126 H 0.39574 0.96022 0.85832 0.0
H127 H 0.46871 0.08581 0.85829 0.0
S128 S 0.66907 0.99633 0.86586 0.0
N129 N 0.58728 0.933 0.86452 0.0
N130 N 0.66639 0.06927 0.86443 0.0
C131 C 0.59664 0.04399 0.86276 0.0
C132 C 0.55356 0.9699 0.86281 0.0
C133 C 0.5545 0.57695 0.19386 0.0
C134 C 0.4819 0.54791 0.19241 0.0
C135 C 0.58484 0.53474 0.19437 0.0
C136 C 0.544 0.46158 0.19342 0.0
H137 H 0.58847 0.63288 0.19457 0.0
H138 H 0.64104 0.56004 0.19542 0.0
S139 S 0.35117 0.359 0.18962 0.0
N140 N 0.36962 0.44086 0.19013 0.0
N141 N 0.4268 0.36183 0.19107 0.0
C142 C 0.47127 0.43169 0.19206 0.0
C143 C 0.44025 0.47472 0.19156 0.0
C144 C 0.74578 0.34206 1.01831 0.0
C145 C 0.71275 0.35065 0.98446 0.0
C146 C 0.72258 0.34283 0.05734 0.0
C147 C 0.66527 0.3521 0.06417 0.0
H148 H 0.78866 0.33234 1.01476 0.0
H149 H 0.74821 0.33333 0.08218 0.0
S150 S 0.56637 0.38641 0.98631 0.0
N151 N 0.62393 0.37561 0.9607 0.0
N152 N 0.58038 0.37722 0.034 0.0
C153 C 0.6342 0.36475 0.03078 0.0
C154 C 0.6579 0.36401 0.99097 0.0
C155 C 0.41465 0.73451 0.3506 0.0
C156 C 0.37411 0.70014 0.3166 0.0
C157 C 0.39028 0.71148 0.38958 0.0
C158 C 0.32435 0.65298 0.39623 0.0
H159 H 0.46671 0.7785 0.34724 0.0
H160 H 0.42458 0.73839 0.41457 0.0
S161 S 0.1941 0.54951 0.31774 0.0
N162 N 0.26208 0.6082 0.29237 0.0
N163 N 0.21617 0.56496 0.36556 0.0
C164 C 0.28172 0.62028 0.36261 0.0
C165 C 0.30657 0.64383 0.32285 0.0
C166 C 0.69056 0.38373 0.72405 0.0
C167 C 0.68415 0.31825 0.73083 0.0
C168 C 0.69119 0.40758 0.68504 0.0
C169 C 0.68531 0.36694 0.65112 0.0
H170 H 0.69766 0.41811 0.74897 0.0
H171 H 0.69845 0.45933 0.68157 0.0
S172 S 0.65853 0.18784 0.65261 0.0
N173 N 0.66528 0.21028 0.70039 0.0
N174 N 0.66661 0.25522 0.62712 0.0
C175 C 0.67513 0.29979 0.6575 0.0
C176 C 0.67454 0.27547 0.6973 0.0
C177 C 0.39342 0.684 0.98985 0.0
C178 C 0.3268 0.67466 0.98308 0.0
C179 C 0.41747 0.68483 0.02885 0.0
C180 C 0.37589 0.67624 0.06275 0.0
H181 H 0.42846 0.69339 0.96496 0.0
H182 H 0.47005 0.69448 0.03236 0.0
S183 S 0.19384 0.64073 0.06109 0.0
N184 N 0.21693 0.64979 1.01338 0.0
N185 N 0.26223 0.65151 0.08663 0.0
C186 C 0.30774 0.66304 0.05631 0.0
C187 C 0.28321 0.66222 1.01653 0.0
C188 C 0.74395 0.40388 0.36335 0.0
C189 C 0.70699 0.36529 0.39732 0.0
C190 C 0.72047 0.37994 0.32433 0.0
C191 C 0.65891 0.31643 0.31761 0.0
H192 H 0.79059 0.45413 0.36676 0.0
H193 H 0.74973 0.41275 0.29933 0.0
S194 S 0.54675 0.1917 0.39613 0.0
N195 N 0.60854 0.25752 0.42152 0.0
N196 N 0.56444 0.2124 0.3483 0.0
C197 C 0.6232 0.27561 0.35126 0.0
C198 C 0.64721 0.30001 0.39105 0.0
C199 C 0.35562 0.64722 0.72277 0.0
C200 C 0.35493 0.70945 0.72944 0.0
C201 C 0.35549 0.62333 0.68378 0.0
C202 C 0.35482 0.66069 0.64976 0.0
H203 H 0.35386 0.61527 0.74782 0.0
H204 H 0.35392 0.57401 0.68044 0.0
S205 S 0.36077 0.83091 0.65072 0.0
N206 N 0.35955 0.81117 0.69859 0.0
N207 N 0.35912 0.76611 0.62541 0.0
C208 C 0.35774 0.72484 0.65595 0.0
C209 C 0.3578 0.7492 0.69572 0.0
loop_
_geom_bond_atom_site_label_1
_geom_bond_atom_site_label_2
_geom_bond_distance
_geom_bond_site_symmetry_2
_ccdc_geom_bond_type
Mg0 O7 2.141 . S
Mg0 O8 2.048 . S
Mg0 O9 2.048 . S
Mg0 O12 2.141 . S
C1 O2 1.313 . S
C1 O8 1.195 . S
O2 C1 1.313 . S
C3 O4 1.245 . S
C3 O12 1.289 . S
O4 C3 1.245 . S
C5 O6 1.245 . S
C5 O7 1.289 . S
O6 C5 1.245 . S
O7 Mg0 2.141 . S
O7 C5 1.289 . S
O8 Mg0 2.048 . S
O8 C1 1.195 . S
O9 Mg0 2.048 . S
O9 C10 1.195 . S
C10 O9 1.195 . S
C10 O11 1.313 . S
O11 C10 1.313 . S
O12 Mg0 2.141 . S
O12 C3 1.289 . S
Mg13 O20 2.141 . S
Mg13 O21 2.048 . S
Mg13 O22 2.048 . S
Mg13 O25 2.141 . S
C14 O15 1.313 . S
C14 O21 1.195 . S
O15 C14 1.313 . S
C16 O17 1.245 . S
C16 O25 1.289 . S
O17 C16 1.245 . S
C18 O19 1.245 . S
C18 O20 1.289 . S
O19 C18 1.245 . S
O20 Mg13 2.141 . S
O20 C18 1.289 . S
O21 Mg13 2.048 . S
O21 C14 1.195 . S
O22 Mg13 2.048 . S
O22 C23 1.195 . S
C23 O22 1.195 . S
C23 O24 1.313 . S
O24 C23 1.313 . S
O25 Mg13 2.141 . S
O25 C16 1.289 . S
Mg26 O33 2.141 . S
Mg26 O34 2.048 . S
Mg26 O35 2.048 . S
Mg26 O38 2.141 . S
C27 O28 1.313 . S
C27 O34 1.195 . S
O28 C27 1.313 . S
C29 O30 1.245 . S
C29 O38 1.289 . S
O30 C29 1.245 . S
C31 O32 1.245 . S
C31 O33 1.289 . S
O32 C31 1.245 . S
O33 Mg26 2.141 . S
O33 C31 1.289 . S
O34 Mg26 2.048 . S
O34 C27 1.195 . S
O35 Mg26 2.048 . S
O35 C36 1.195 . S
C36 O35 1.195 . S
C36 O37 1.313 . S
O37 C36 1.313 . S
O38 Mg26 2.141 . S
O38 C29 1.289 . S
Mg39 O46 2.141 . S
Mg39 O47 2.048 . S
Mg39 O48 2.048 . S
Mg39 O51 2.141 . S
C40 O41 1.313 . S
C40 O47 1.195 . S
O41 C40 1.313 . S
C42 O43 1.245 . S
C42 O51 1.289 . S
O43 C42 1.245 . S
C44 O45 1.245 . S
C44 O46 1.289 . S
O45 C44 1.245 . S
O46 Mg39 2.141 . S
O46 C44 1.289 . S
O47 Mg39 2.048 . S
O47 C40 1.195 . S
O48 Mg39 2.048 . S
O48 C49 1.195 . S
C49 O48 1.195 . S
C49 O50 1.313 . S
O50 C49 1.313 . S
O51 Mg39 2.141 . S
O51 C42 1.289 . S
Mg52 O59 2.141 . S
Mg52 O60 2.048 . S
Mg52 O61 2.048 . S
Mg52 O64 2.141 . S
C53 O54 1.313 . S
C53 O60 1.195 . S
O54 C53 1.313 . S
C55 O56 1.245 . S
C55 O64 1.289 . S
O56 C55 1.245 . S
C57 O58 1.245 . S
C57 O59 1.289 . S
O58 C57 1.245 . S
O59 Mg52 2.141 . S
O59 C57 1.289 . S
O60 Mg52 2.048 . S
O60 C53 1.195 . S
O61 Mg52 2.048 . S
O61 C62 1.195 . S
C62 O61 1.195 . S
C62 O63 1.313 . S
O63 C62 1.313 . S
O64 Mg52 2.141 . S
O64 C55 1.289 . S
Mg65 O72 2.141 . S
Mg65 O73 2.048 . S
Mg65 O74 2.048 . S
Mg65 O77 2.141 . S
C66 O67 1.313 . S
C66 O73 1.195 . S
O67 C66 1.313 . S
C68 O69 1.245 . S
C68 O77 1.289 . S
O69 C68 1.245 . S
C70 O71 1.245 . S
C70 O72 1.289 . S
O71 C70 1.245 . S
O72 Mg65 2.141 . S
O72 C70 1.289 . S
O73 Mg65 2.048 . S
O73 C66 1.195 . S
O74 Mg65 2.048 . S
O74 C75 1.195 . S
C75 O74 1.195 . S
C75 O76 1.313 . S
O76 C75 1.313 . S
O77 Mg65 2.141 . S
O77 C68 1.289 . S
C78 C79 1.369 . S
C78 C80 1.419 1_545 S
C78 H82 0.930 . S
C79 C78 1.369 . S
C79 C88 1.429 . S
C80 C78 1.419 1_565 S
C80 C81 1.363 . S
C80 H83 0.929 . S
C81 C80 1.363 . S
C81 C87 1.428 . S
H82 C78 0.930 . S
H83 C80 0.929 . S
S84 N85 1.613 1_565 S
S84 N86 1.610 . S
N85 S84 1.613 1_545 S
N85 C88 1.350 . S
N86 S84 1.610 . S
N86 C87 1.351 . S
C87 C81 1.428 . S
C87 N86 1.351 . S
C87 C88 1.434 1_565 S
C88 C79 1.429 . S
C88 N85 1.350 . S
C88 C87 1.434 1_545 S
C89 C90 1.369 . S
C89 C91 1.419 . S
C89 H93 0.930 . S
C90 C89 1.369 . S
C90 C99 1.429 . S
C91 C89 1.419 . S
C91 C92 1.363 . S
C91 H94 0.929 . S
C92 C91 1.363 . S
C92 C98 1.428 . S
H93 C89 0.930 . S
H94 C91 0.929 . S
S95 N96 1.613 . S
S95 N97 1.610 . S
N96 S95 1.613 . S
N96 C99 1.350 . S
N97 S95 1.610 . S
N97 C98 1.351 . S
C98 C92 1.428 . S
C98 N97 1.351 . S
C98 C99 1.434 . S
C99 C90 1.429 . S
C99 N96 1.350 . S
C99 C98 1.434 . S
C100 C101 1.369 . S
C100 C102 1.419 1_655 S
C100 H104 0.930 . S
C101 C100 1.369 . S
C101 C110 1.429 . S
C102 C100 1.419 1_455 S
C102 C103 1.363 . S
C102 H105 0.929 . S
C103 C102 1.363 . S
C103 C109 1.428 . S
H104 C100 0.930 . S
H105 C102 0.929 . S
S106 N107 1.613 . S
S106 N108 1.610 1_655 S
N107 S106 1.613 . S
N107 C110 1.350 . S
N108 S106 1.610 1_455 S
N108 C109 1.351 . S
C109 C103 1.428 . S
C109 N108 1.351 . S
C109 C110 1.434 1_455 S
C110 C101 1.429 . S
C110 N107 1.350 . S
C110 C109 1.434 1_655 S
C111 C112 1.369 . S
C111 C113 1.419 1_455 S
C111 H115 0.930 . S
C112 C111 1.369 . S
C112 C121 1.429 . S
C113 C111 1.419 1_655 S
C113 C114 1.363 . S
C113 H116 0.929 . S
C114 C113 1.363 . S
C114 C120 1.428 . S
H115 C111 0.930 . S
H116 C113 0.929 . S
S117 N118 1.613 1_655 S
S117 N119 1.610 . S
N118 S117 1.613 1_455 S
N118 C121 1.350 . S
N119 S117 1.610 . S
N119 C120 1.351 . S
C120 C114 1.428 . S
C120 N119 1.351 . S
C120 C121 1.434 1_655 S
C121 C112 1.429 . S
C121 N118 1.350 . S
C121 C120 1.434 1_455 S
C122 C123 1.369 . S
C122 C124 1.419 1_565 S
C122 H126 0.930 . S
C123 C122 1.369 . S
C123 C132 1.429 . S
C124 C122 1.419 1_545 S
C124 C125 1.363 . S
C124 H127 0.929 . S
C125 C124 1.363 . S
C125 C131 1.428 . S
H126 C122 0.930 . S
H127 C124 0.929 . S
S128 N129 1.613 1_545 S
S128 N130 1.610 . S
N129 S128 1.613 1_565 S
N129 C132 1.350 . S
N130 S128 1.610 . S
N130 C131 1.351 . S
C131 C125 1.428 . S
C131 N130 1.351 . S
C131 C132 1.434 1_545 S
C132 C123 1.429 . S
C132 N129 1.350 . S
C132 C131 1.434 1_565 S
C133 C134 1.369 . S
C133 C135 1.419 . S
C133 H137 0.930 . S
C134 C133 1.369 . S
C134 C143 1.429 . S
C135 C133 1.419 . S
C135 C136 1.363 . S
C135 H138 0.929 . S
C136 C135 1.363 . S
C136 C142 1.428 . S
H137 C133 0.930 . S
H138 C135 0.929 . S
S139 N140 1.613 . S
S139 N141 1.610 . S
N140 S139 1.613 . S
N140 C143 1.350 . S
N141 S139 1.610 . S
N141 C142 1.351 . S
C142 C136 1.428 . S
C142 N141 1.351 . S
C142 C143 1.434 . S
C143 C134 1.429 . S
C143 N140 1.350 . S
C143 C142 1.434 . S
C144 C145 1.369 . S
C144 C146 1.419 1_556 S
C144 H148 0.930 . S
C145 C144 1.369 . S
C145 C154 1.448 . S
C146 C144 1.419 1_554 S
C146 C147 1.363 . S
C146 H149 0.929 . S
C147 C146 1.363 . S
C147 C153 1.428 . S
H148 C144 0.930 . S
H149 C146 0.929 . S
S150 N151 1.613 . S
S150 N152 1.610 . S
N151 S150 1.613 . S
N151 C154 1.349 1_554 S
N152 S150 1.610 . S
N152 C153 1.351 . S
C153 C147 1.428 . S
C153 N152 1.351 . S
C153 C154 1.413 1_554 S
C154 C145 1.448 . S
C154 N151 1.349 1_556 S
C154 C153 1.413 1_556 S
C155 C156 1.369 . S
C155 C157 1.419 . S
C155 H159 0.930 . S
C156 C155 1.369 . S
C156 C165 1.429 . S
C157 C155 1.419 . S
C157 C158 1.363 . S
C157 H160 0.929 . S
C158 C157 1.363 . S
C158 C164 1.428 . S
H159 C155 0.930 . S
H160 C157 0.929 . S
S161 N162 1.613 . S
S161 N163 1.610 . S
N162 S161 1.613 . S
N162 C165 1.350 . S
N163 S161 1.610 . S
N163 C164 1.351 . S
C164 C158 1.428 . S
C164 N163 1.351 . S
C164 C165 1.434 . S
C165 C156 1.429 . S
C165 N162 1.350 . S
C165 C164 1.434 . S
C166 C167 1.369 . S
C166 C168 1.419 . S
C166 H170 0.930 . S
C167 C166 1.369 . S
C167 C176 1.429 . S
C168 C166 1.419 . S
C168 C169 1.363 . S
C168 H171 0.929 . S
C169 C168 1.363 . S
C169 C175 1.428 . S
H170 C166 0.930 . S
H171 C168 0.929 . S
S172 N173 1.613 . S
S172 N174 1.610 . S
N173 S172 1.613 . S
N173 C176 1.350 . S
N174 S172 1.610 . S
N174 C175 1.351 . S
C175 C169 1.428 . S
C175 N174 1.351 . S
C175 C176 1.434 . S
C176 C167 1.429 . S
C176 N173 1.350 . S
C176 C175 1.434 . S
C177 C178 1.369 . S
C177 C179 1.419 1_556 S
C177 H181 0.930 . S
C178 C177 1.369 . S
C178 C187 1.429 . S
C179 C177 1.419 1_554 S
C179 C180 1.363 . S
C179 H182 0.929 . S
C180 C179 1.363 . S
C180 C186 1.428 . S
H181 C177 0.930 . S
H182 C179 0.929 . S
S183 N184 1.613 . S
S183 N185 1.610 1_556 S
N184 S183 1.613 . S
N184 C187 1.350 . S
N185 S183 1.610 1_554 S
N185 C186 1.351 . S
C186 C180 1.428 . S
C186 N185 1.351 . S
C186 C187 1.434 1_554 S
C187 C178 1.429 . S
C187 N184 1.350 . S
C187 C186 1.434 1_556 S
C188 C189 1.369 . S
C188 C190 1.419 . S
C188 H192 0.930 . S
C189 C188 1.369 . S
C189 C198 1.429 . S
C190 C188 1.419 . S
C190 C191 1.363 . S
C190 H193 0.929 . S
C191 C190 1.363 . S
C191 C197 1.428 . S
H192 C188 0.930 . S
H193 C190 0.929 . S
S194 N195 1.613 . S
S194 N196 1.610 . S
N195 S194 1.613 . S
N195 C198 1.350 . S
N196 S194 1.610 . S
N196 C197 1.351 . S
C197 C191 1.428 . S
C197 N196 1.351 . S
C197 C198 1.434 . S
C198 C189 1.429 . S
C198 N195 1.350 . S
C198 C197 1.434 . S
C199 C200 1.369 . S
C199 C201 1.419 . S
C199 H203 0.930 . S
C200 C199 1.369 . S
C200 C209 1.429 . S
C201 C199 1.419 . S
C201 C202 1.363 . S
C201 H204 0.929 . S
C202 C201 1.363 . S
C202 C208 1.428 . S
H203 C199 0.930 . S
H204 C201 0.929 . S
S205 N206 1.613 . S
S205 N207 1.610 . S
N206 S205 1.613 . S
N206 C209 1.350 . S
N207 S205 1.610 . S
N207 C208 1.351 . S
C208 C202 1.428 . S
C208 N207 1.351 . S
C208 C209 1.434 . S
C209 C200 1.429 . S
C209 N206 1.350 . S
C209 C208 1.434 . S
C79 C5 1.979 . S
C81 C44 1.978 . S
C90 C18 1.981 . S
C92 C57 1.977 . S
C101 C31 1.975 . S
C103 C70 1.981 . S
C112 C23 2.037 . S
C114 C62 2.035 . S
C123 C75 2.036 . S
C125 C36 2.036 . S
C134 C49 2.038 . S
C136 C10 2.034 . S
C145 C29 1.617 . S
C147 C1 1.627 . S
C156 C42 1.613 . S
C158 C14 1.627 . S
C167 C27 1.632 . S
C169 C55 1.609 . S
C178 C68 1.608 . S
C180 C40 1.632 . S
C189 C53 1.634 . S
C191 C3 1.610 . S
C200 C66 1.625 . S
C202 C16 1.616 . S
