# Generated by pormake.
# Topology qtz-x, (6)-cn, num edge types: 1
# Building blocks:
#     Node 0, Type 0, BuildingBlock: JUFBIX_clean_sbu_0, # of connection points: 6
#     Node 1, Type 0, BuildingBlock: JUFBIX_clean_sbu_0, # of connection points: 6
#     Node 2, Type 0, BuildingBlock: JUFBIX_clean_sbu_0, # of connection points: 6
#     Edge 3, Type (0, 0), BuildingBlock: CIFDUS_clean_linker_0, # of connection points: 2
#     Edge 4, Type (0, 0), BuildingBlock: CIFDUS_clean_linker_0, # of connection points: 2
#     Edge 5, Type (0, 0), BuildingBlock: CIFDUS_clean_linker_0, # of connection points: 2
#     Edge 6, Type (0, 0), BuildingBlock: CIFDUS_clean_linker_0, # of connection points: 2
#     Edge 7, Type (0, 0), BuildingBlock: CIFDUS_clean_linker_0, # of connection points: 2
#     Edge 8, Type (0, 0), BuildingBlock: CIFDUS_clean_linker_0, # of connection points: 2
#     Edge 9, Type (0, 0), BuildingBlock: CIFDUS_clean_linker_0, # of connection points: 2
#     Edge 10, Type (0, 0), BuildingBlock: CIFDUS_clean_linker_0, # of connection points: 2
#     Edge 11, Type (0, 0), BuildingBlock: CIFDUS_clean_linker_0, # of connection points: 2
# Relax obj value: 0.483
# Max RMSD: 0.295
# Mean RMSD: 0.295
data_MOF--net-qtz-x--node1-JUFBIX_clean_sbu_0--edge1-CIFDUS_clean_linker_0
_symmetry_space_group_name_H-M    P1
_symmetry_Int_Tables_number       1
_symmetry_cell_setting            triclinic
loop_
_symmetry_equiv_pos_as_xyz
'x, y, z'
_cell_length_a     13.074107
_cell_length_b     13.121604
_cell_length_c     38.574087
_cell_angle_alpha  90.133912
_cell_angle_beta   90.199773
_cell_angle_gamma 119.70312
loop_
_atom_site_label
_atom_site_type_symbol
_atom_site_fract_x
_atom_site_fract_y
_atom_site_fract_z
_atom_type_partial_charge
Co0 Co 0.16441 0.50491 0.1519 0.0
C1 C 0.06104 0.63968 0.16502 0.0
Co2 Co 0.98442 0.39856 0.17247 0.0
C3 C 0.32936 0.56871 0.09623 0.0
C4 C 0.41398 0.67181 0.14128 0.0
N5 N 0.30917 0.58504 0.12953 0.0
N6 N 0.44102 0.64184 0.08664 0.0
C7 C 0.49575 0.70643 0.11491 0.0
H8 H 0.26381 0.50388 0.07901 0.0
H9 H 0.42974 0.70888 0.16712 0.0
C10 C 0.08858 0.26432 0.1592 0.0
N11 N 0.84233 0.32078 0.19525 0.0
C12 C 0.82171 0.36059 0.22515 0.0
C13 C 0.75412 0.20907 0.19234 0.0
N14 N 0.72793 0.27722 0.24215 0.0
C15 C 0.68346 0.18193 0.22125 0.0
C16 C 0.97507 0.40527 0.10308 0.0
O17 O 0.17333 0.36343 0.14995 0.0
O18 O 0.99405 0.25848 0.17006 0.0
O19 O 0.90816 0.36312 0.12911 0.0
O20 O 0.08549 0.46799 0.10785 0.0
O21 O 0.97671 0.54089 0.17459 0.0
H22 H 0.74794 0.1484 0.17231 0.0
H23 H 0.88101 0.44673 0.23566 0.0
O24 O 0.15498 0.64503 0.15387 0.0
O25 O 0.23956 0.54073 0.19674 0.0
O26 O 0.0602 0.43145 0.21596 0.0
C27 C 0.16935 0.49323 0.22192 0.0
H28 H 0.58688 0.77547 0.11608 0.0
H29 H 0.61228 0.09564 0.22786 0.0
Co30 Co 0.42408 0.94906 0.48728 0.0
C31 C 0.66408 0.02542 0.49572 0.0
Co32 Co 0.53114 0.1332 0.50517 0.0
C33 C 0.29929 0.7846 0.43346 0.0
C34 C 0.35937 0.70889 0.47178 0.0
N35 N 0.3445 0.80208 0.46585 0.0
N36 N 0.29345 0.68974 0.41796 0.0
C37 C 0.32813 0.63967 0.4423 0.0
H38 H 0.28372 0.84772 0.41989 0.0
H39 H 0.4044 0.70003 0.49417 0.0
C40 C 0.29146 0.0573 0.4968 0.0
N41 N 0.61307 0.28131 0.52564 0.0
C42 C 0.6484 0.30445 0.55907 0.0
C43 C 0.63537 0.38553 0.5126 0.0
N44 N 0.68822 0.41753 0.56789 0.0
C45 C 0.68147 0.46929 0.53844 0.0
C46 C 0.52097 0.12661 0.43569 0.0
O47 O 0.2839 0.95942 0.48888 0.0
O48 O 0.39184 0.14472 0.50411 0.0
O49 O 0.57142 0.19996 0.46006 0.0
O50 O 0.4572 1.0191 0.44287 0.0
O51 O 0.66989 0.1202 0.50613 0.0
H52 H 0.61328 0.39878 0.48658 0.0
H53 H 0.63723 0.23766 0.5774 0.0
O54 O 0.56534 0.94109 0.48587 0.0
O55 O 0.39185 0.88087 0.53215 0.0
O56 O 0.48828 0.06397 0.5498 0.0
C57 C 0.43011 0.95543 0.55675 0.0
H58 H 0.34357 0.56693 0.43779 0.0
H59 H 0.70249 0.55973 0.53598 0.0
Co60 Co 0.57233 0.60569 0.81713 0.0
C61 C 0.40759 0.36775 0.82648 0.0
Co62 Co 0.64802 0.50334 0.83995 0.0
C63 C 0.5352 0.72686 0.76134 0.0
C64 C 0.40826 0.6875 0.80127 0.0
N65 N 0.50764 0.68455 0.79385 0.0
N66 N 0.45524 0.75149 0.74764 0.0
C67 C 0.37582 0.72888 0.77279 0.0
H68 H 0.60833 0.73223 0.74689 0.0
H69 H 0.35715 0.65231 0.8246 0.0
C70 C 0.81233 0.74163 0.83045 0.0
N71 N 0.71073 0.42327 0.8629 0.0
C72 C 0.78445 0.46446 0.89036 0.0
C73 C 0.67967 0.30887 0.86045 0.0
N74 N 0.799 0.38029 0.90553 0.0
C75 C 0.73288 0.28179 0.88703 0.0
C76 C 0.66126 0.50406 0.76977 0.0
O77 O 0.72316 0.74621 0.819 0.0
O78 O 0.7986 0.64348 0.84072 0.0
O79 O 0.6852 0.46198 0.7962 0.0
O80 O 0.61248 0.56595 0.77403 0.0
O81 O 0.49592 0.36385 0.83885 0.0
H82 H 0.6168 0.24761 0.84193 0.0
H83 H 0.81924 0.55226 0.90079 0.0
O84 O 0.4223 0.46524 0.81532 0.0
O85 O 0.53294 0.64369 0.86064 0.0
O86 O 0.6112 0.54531 0.88371 0.0
C87 C 0.56084 0.60626 0.88736 0.0
H88 H 0.29503 0.73193 0.76973 0.0
H89 H 0.71981 0.19576 0.89328 0.0
H90 H 0.2216 0.86281 0.14558 0.0
H91 H 0.87192 0.65681 0.18743 0.0
H92 H 0.84913 0.83046 0.18902 0.0
H93 H 0.92801 0.04121 0.1786 0.0
H94 H 0.27778 0.24728 0.13681 0.0
H95 H 0.30049 0.07359 0.13516 0.0
C96 C 0.14041 0.85578 0.15511 0.0
C97 C 0.04872 0.74645 0.16637 0.0
C98 C 0.12765 0.95625 0.15595 0.0
C99 C 0.94413 0.73948 0.17859 0.0
C100 C 0.93088 0.83892 0.17951 0.0
C101 C 1.00921 0.04825 0.16907 0.0
C102 C 0.10095 0.1576 0.15783 0.0
C103 C 1.02197 0.94779 0.16823 0.0
C104 C 0.20555 0.16459 0.14562 0.0
C105 C 0.21875 0.06513 0.14468 0.0
H106 H 0.06394 0.88975 0.4837 0.0
H107 H 0.2797 0.2542 0.51254 0.0
H108 H 0.10539 0.27635 0.51504 0.0
H109 H 0.89141 0.1927 0.50912 0.0
H110 H 0.67578 0.82855 0.47999 0.0
H111 H 0.85 0.80615 0.47771 0.0
C112 C 0.07293 0.97406 0.49052 0.0
C113 C 0.18496 0.07001 0.49791 0.0
C114 C 0.97216 0.98641 0.49194 0.0
C115 C 0.19471 0.17866 0.5067 0.0
C116 C 0.09496 0.19154 0.50817 0.0
C117 C 0.88245 0.10839 0.50232 0.0
C118 C 0.77052 1.01261 0.49474 0.0
C119 C 0.98321 0.09604 0.50088 0.0
C120 C 0.76076 0.904 0.4859 0.0
C121 C 0.86044 0.89097 0.48457 0.0
H122 H 0.87507 0.9652 0.81032 0.0
H123 H 1.01801 0.75929 0.854 0.0
H124 H 0.21324 0.93297 0.85661 0.0
H125 H 0.34483 0.14421 0.84662 0.0
H126 H 0.2019 0.35016 0.80297 0.0
H127 H 1.00664 0.17644 0.80034 0.0
C128 C 0.94883 0.95818 0.82043 0.0
C129 C 0.93111 0.8487 0.83192 0.0
C130 C 0.06159 0.05888 0.82191 0.0
C131 C 1.02834 0.84193 0.84492 0.0
C132 C 0.14044 0.94148 0.84646 0.0
C133 C 0.27105 0.15124 0.83653 0.0
C134 C 0.28878 0.26072 0.82502 0.0
C135 C 0.15829 0.05054 0.83504 0.0
C136 C 0.19156 0.2675 0.81201 0.0
C137 C 0.07945 0.16794 0.81049 0.0
H138 H 0.67467 0.6198 0.94758 0.0
H139 H 0.37983 0.64164 0.90559 0.0
H140 H 0.31886 0.65918 0.96414 0.0
H141 H 0.34258 0.65567 0.02743 0.0
H142 H 0.64275 0.64594 0.06961 0.0
H143 H 0.70975 0.63708 0.0108 0.0
C144 C 0.59756 0.62926 0.95131 0.0
C145 C 0.531 0.62826 0.92242 0.0
C146 C 0.56417 0.64111 0.985 0.0
C147 C 0.43234 0.64223 0.92746 0.0
C148 C 0.39719 0.65172 0.96091 0.0
C149 C 0.42321 0.65274 0.02354 0.0
C150 C 0.48755 0.65035 0.05246 0.0
C151 C 0.46138 0.64942 0.98984 0.0
C152 C 0.5926 0.64812 0.04751 0.0
C153 C 0.63021 0.64244 0.014 0.0
H154 H 0.71585 0.29906 0.40429 0.0
H155 H 0.35699 0.02981 0.38507 0.0
H156 H 0.38623 0.05952 0.32274 0.0
H157 H 0.51933 0.14852 0.27355 0.0
H158 H 0.88158 0.41048 0.29291 0.0
H159 H 0.84499 0.39938 0.35477 0.0
C160 C 0.64371 0.24905 0.38639 0.0
C161 C 0.53519 0.16144 0.39904 0.0
C162 C 0.66181 0.26496 0.35046 0.0
C163 C 0.4421 0.09653 0.37574 0.0
C164 C 0.45861 0.11345 0.34011 0.0
C165 C 0.58981 0.20371 0.29131 0.0
C166 C 0.70254 0.27992 0.27838 0.0
C167 C 0.56912 0.19495 0.32714 0.0
C168 C 0.79304 0.35209 0.30179 0.0
C169 C 0.77267 0.34516 0.3374 0.0
H170 H 0.40869 0.91073 0.71945 0.0
H171 H 0.47171 0.62647 0.69487 0.0
H172 H 0.45628 0.65559 0.63289 0.0
H173 H 0.43595 0.76979 0.58546 0.0
H174 H 0.39141 0.06603 0.61005 0.0
H175 H 0.38676 0.02427 0.67192 0.0
C176 C 0.41805 0.85515 0.70036 0.0
C177 C 0.44204 0.76748 0.71142 0.0
C178 C 0.4119 0.87441 0.66477 0.0
C179 C 0.45487 0.69572 0.6867 0.0
C180 C 0.44543 0.71191 0.65135 0.0
C181 C 0.42299 0.82349 0.60443 0.0
C182 C 0.41276 0.91982 0.59339 0.0
C183 C 0.42533 0.8019 0.64002 0.0
C184 C 0.39884 0.99087 0.6181 0.0
C185 C 0.39661 0.96738 0.65345 0.0
H186 H 0.69771 0.24613 0.96088 0.0
H187 H 1.01811 0.5413 0.92449 0.0
H188 H 0.10424 0.57284 0.98286 0.0
H189 H 0.08392 0.52141 0.04448 0.0
H190 H 0.75683 0.23502 0.08191 0.0
H191 H 0.67693 0.19483 0.02292 0.0
C192 C 0.78707 0.31574 0.96583 0.0
C193 C 0.85282 0.39039 0.93871 0.0
C194 C 0.83375 0.33557 -0.00043 0.0
C195 C 0.96719 0.48261 0.9452 0.0
C196 C 1.01585 0.5007 0.97845 0.0
C197 C 0.99527 0.44991 0.03972 0.0
C198 C 0.92632 0.38131 0.0675 0.0
C199 C 0.94928 0.42868 0.00592 0.0
C200 C 0.81137 0.28953 0.06097 0.0
C201 C 0.7658 0.26621 0.02726 0.0
H202 H 0.31295 0.6982 0.25521 0.0
H203 H 0.10322 0.32504 0.2703 0.0
H204 H 0.12749 0.35156 0.3331 0.0
H205 H 0.19312 0.48287 0.38414 0.0
H206 H 0.39375 0.85648 0.36892 0.0
H207 H 0.38758 0.82888 0.30629 0.0
C208 C 0.27589 0.62292 0.27232 0.0
C209 C 0.20818 0.50992 0.25835 0.0
C210 C 0.28591 0.63926 0.30852 0.0
C211 C 0.15714 0.41283 0.28067 0.0
C212 C 0.16998 0.42797 0.31655 0.0
C213 C 0.23568 0.55769 0.36698 0.0
C214 C 0.29095 0.67138 0.38105 0.0
C215 C 0.23145 0.541 0.33084 0.0
C216 C 0.34691 0.76814 0.35864 0.0
C217 C 0.34477 0.75238 0.32281 0.0
H218 H 0.66174 0.61935 0.71191 0.0
H219 H 0.72251 0.34224 0.74747 0.0
H220 H 0.75065 0.29997 0.68739 0.0
H221 H 0.74348 0.33349 0.62488 0.0
H222 H 0.67021 0.60437 0.59058 0.0
H223 H 0.66578 0.66006 0.65035 0.0
C224 C 0.68128 0.54971 0.7067 0.0
C225 C 0.68809 0.48279 0.73413 0.0
C226 C 0.69607 0.5255 0.67233 0.0
C227 C 0.71606 0.39456 0.72681 0.0
C228 C 0.73202 0.37039 0.69248 0.0
C229 C 0.72634 0.40462 0.63035 0.0
C230 C 0.70512 0.46289 0.6029 0.0
C231 C 0.71987 0.43392 0.665 0.0
C232 C 0.68718 0.55763 0.61078 0.0
C233 C 0.68334 0.58897 0.64511 0.0
loop_
_geom_bond_atom_site_label_1
_geom_bond_atom_site_label_2
_geom_bond_distance
_geom_bond_site_symmetry_2
_ccdc_geom_bond_type
Co0 N5 2.057 . S
Co0 O17 2.021 . S
Co0 O20 2.062 1_455 S
Co0 O24 2.117 . S
Co0 O25 2.020 . S
C1 O21 1.259 . S
C1 O24 1.258 1_655 S
Co2 N11 2.057 . S
Co2 O18 2.117 . S
Co2 O19 2.020 . S
Co2 O21 2.021 . S
Co2 O26 2.062 1_655 S
C3 N5 1.316 . S
C3 N6 1.347 . S
C3 H8 0.931 . S
C4 N5 1.375 . S
C4 C7 1.350 . S
C4 H9 0.930 . S
N5 Co0 2.057 . S
N5 C3 1.316 . S
N5 C4 1.375 . S
N6 C3 1.347 . S
N6 C7 1.373 . S
C7 C4 1.350 . S
C7 N6 1.373 . S
C7 H28 0.931 . S
H8 C3 0.931 . S
H9 C4 0.930 . S
C10 O17 1.259 . S
C10 O18 1.258 1_455 S
N11 Co2 2.057 . S
N11 C12 1.316 . S
N11 C13 1.375 . S
C12 N11 1.316 . S
C12 N14 1.347 . S
C12 H23 0.931 . S
C13 N11 1.375 . S
C13 C15 1.350 . S
C13 H22 0.930 . S
N14 C12 1.347 . S
N14 C15 1.373 . S
C15 C13 1.350 . S
C15 N14 1.373 . S
C15 H29 0.931 . S
C16 O19 1.256 . S
C16 O20 1.255 . S
O17 Co0 2.021 . S
O17 C10 1.259 . S
O18 Co2 2.117 . S
O18 C10 1.258 1_655 S
O19 Co2 2.020 . S
O19 C16 1.256 . S
O20 Co0 2.062 1_655 S
O20 C16 1.255 . S
O21 C1 1.259 . S
O21 Co2 2.021 . S
H22 C13 0.930 . S
H23 C12 0.931 . S
O24 Co0 2.117 . S
O24 C1 1.258 1_455 S
O25 Co0 2.020 . S
O25 C27 1.256 . S
O26 Co2 2.062 1_455 S
O26 C27 1.255 . S
C27 O25 1.256 . S
C27 O26 1.255 . S
H28 C7 0.931 . S
H29 C15 0.931 . S
Co30 N35 2.057 . S
Co30 O47 2.021 . S
Co30 O50 2.062 1_565 S
Co30 O54 2.117 . S
Co30 O55 2.020 . S
C31 O51 1.259 . S
C31 O54 1.258 1_545 S
Co32 N41 2.057 . S
Co32 O48 2.117 . S
Co32 O49 2.020 . S
Co32 O51 2.021 . S
Co32 O56 2.062 1_545 S
C33 N35 1.316 . S
C33 N36 1.347 . S
C33 H38 0.931 . S
C34 N35 1.375 . S
C34 C37 1.350 . S
C34 H39 0.930 . S
N35 Co30 2.057 . S
N35 C33 1.316 . S
N35 C34 1.375 . S
N36 C33 1.347 . S
N36 C37 1.373 . S
C37 C34 1.350 . S
C37 N36 1.373 . S
C37 H58 0.931 . S
H38 C33 0.931 . S
H39 C34 0.930 . S
C40 O47 1.259 1_545 S
C40 O48 1.258 . S
N41 Co32 2.057 . S
N41 C42 1.316 . S
N41 C43 1.375 . S
C42 N41 1.316 . S
C42 N44 1.347 . S
C42 H53 0.931 . S
C43 N41 1.375 . S
C43 C45 1.350 . S
C43 H52 0.930 . S
N44 C42 1.347 . S
N44 C45 1.373 . S
C45 C43 1.350 . S
C45 N44 1.373 . S
C45 H59 0.931 . S
C46 O49 1.256 . S
C46 O50 1.255 . S
O47 Co30 2.021 . S
O47 C40 1.259 1_565 S
O48 Co32 2.117 . S
O48 C40 1.258 . S
O49 Co32 2.020 . S
O49 C46 1.256 . S
O50 Co30 2.062 1_545 S
O50 C46 1.255 . S
O51 C31 1.259 . S
O51 Co32 2.021 . S
H52 C43 0.930 . S
H53 C42 0.931 . S
O54 Co30 2.117 . S
O54 C31 1.258 1_565 S
O55 Co30 2.020 . S
O55 C57 1.256 . S
O56 Co32 2.062 1_565 S
O56 C57 1.255 . S
C57 O55 1.256 . S
C57 O56 1.255 . S
H58 C37 0.931 . S
H59 C45 0.931 . S
Co60 N65 2.057 . S
Co60 O77 2.021 . S
Co60 O80 2.062 . S
Co60 O84 2.117 . S
Co60 O85 2.020 . S
C61 O81 1.259 . S
C61 O84 1.258 . S
Co62 N71 2.057 . S
Co62 O78 2.117 . S
Co62 O79 2.020 . S
Co62 O81 2.021 . S
Co62 O86 2.062 . S
C63 N65 1.316 . S
C63 N66 1.347 . S
C63 H68 0.931 . S
C64 N65 1.375 . S
C64 C67 1.350 . S
C64 H69 0.930 . S
N65 Co60 2.057 . S
N65 C63 1.316 . S
N65 C64 1.375 . S
N66 C63 1.347 . S
N66 C67 1.373 . S
C67 C64 1.350 . S
C67 N66 1.373 . S
C67 H88 0.931 . S
H68 C63 0.931 . S
H69 C64 0.930 . S
C70 O77 1.259 . S
C70 O78 1.258 . S
N71 Co62 2.057 . S
N71 C72 1.316 . S
N71 C73 1.375 . S
C72 N71 1.316 . S
C72 N74 1.347 . S
C72 H83 0.931 . S
C73 N71 1.375 . S
C73 C75 1.350 . S
C73 H82 0.930 . S
N74 C72 1.347 . S
N74 C75 1.373 . S
C75 C73 1.350 . S
C75 N74 1.373 . S
C75 H89 0.931 . S
C76 O79 1.256 . S
C76 O80 1.255 . S
O77 Co60 2.021 . S
O77 C70 1.259 . S
O78 Co62 2.117 . S
O78 C70 1.258 . S
O79 Co62 2.020 . S
O79 C76 1.256 . S
O80 Co60 2.062 . S
O80 C76 1.255 . S
O81 C61 1.259 . S
O81 Co62 2.021 . S
H82 C73 0.930 . S
H83 C72 0.931 . S
O84 Co60 2.117 . S
O84 C61 1.258 . S
O85 Co60 2.020 . S
O85 C87 1.256 . S
O86 Co62 2.062 . S
O86 C87 1.255 . S
C87 O85 1.256 . S
C87 O86 1.255 . S
H88 C67 0.931 . S
H89 C75 0.931 . S
H90 C96 0.930 . S
H91 C99 0.930 . S
H92 C100 0.930 . S
H93 C101 0.930 . S
H94 C104 0.930 . S
H95 C105 0.930 . S
C96 H90 0.930 . S
C96 C97 1.355 1_455 S
C96 C98 1.415 . S
C97 C96 1.355 1_655 S
C97 C99 1.419 . S
C98 C96 1.415 . S
C98 C103 1.425 1_455 S
C98 C105 1.409 1_565 S
C99 H91 0.930 . S
C99 C97 1.419 . S
C99 C100 1.362 . S
C100 H92 0.930 . S
C100 C99 1.362 . S
C100 C103 1.409 . S
C101 H93 0.930 . S
C101 C102 1.355 1_655 S
C101 C103 1.415 1_545 S
C102 C101 1.355 1_455 S
C102 C104 1.419 . S
C103 C98 1.425 1_655 S
C103 C100 1.409 . S
C103 C101 1.415 1_565 S
C104 H94 0.930 . S
C104 C102 1.419 . S
C104 C105 1.362 . S
C105 H95 0.930 . S
C105 C98 1.409 1_545 S
C105 C104 1.362 . S
H106 C112 0.930 . S
H107 C115 0.930 . S
H108 C116 0.930 . S
H109 C117 0.930 . S
H110 C120 0.930 . S
H111 C121 0.930 1_455 S
C112 H106 0.930 . S
C112 C113 1.355 . S
C112 C114 1.415 . S
C113 C112 1.355 . S
C113 C115 1.419 . S
C114 C112 1.415 . S
C114 C119 1.425 . S
C114 C121 1.409 1_455 S
C115 H107 0.930 . S
C115 C113 1.419 . S
C115 C116 1.362 . S
C116 H108 0.930 . S
C116 C115 1.362 . S
C116 C119 1.409 . S
C117 H109 0.930 . S
C117 C118 1.355 . S
C117 C119 1.415 1_655 S
C118 C117 1.355 . S
C118 C120 1.419 . S
C119 C114 1.425 . S
C119 C116 1.409 . S
C119 C117 1.415 1_455 S
C120 H110 0.930 . S
C120 C118 1.419 . S
C120 C121 1.362 . S
C121 H111 0.930 1_655 S
C121 C114 1.409 1_655 S
C121 C120 1.362 . S
H122 C128 0.930 . S
H123 C131 0.930 . S
H124 C132 0.930 1_455 S
H125 C133 0.930 . S
H126 C136 0.930 . S
H127 C137 0.930 . S
C128 H122 0.930 . S
C128 C129 1.355 . S
C128 C130 1.415 1_655 S
C129 C128 1.355 . S
C129 C131 1.419 . S
C130 C128 1.415 1_455 S
C130 C135 1.425 1_565 S
C130 C137 1.409 1_565 S
C131 H123 0.930 . S
C131 C129 1.419 . S
C131 C132 1.362 . S
C132 H124 0.930 1_655 S
C132 C131 1.362 . S
C132 C135 1.409 1_665 S
C133 H125 0.930 . S
C133 C134 1.355 . S
C133 C135 1.415 . S
C134 C133 1.355 . S
C134 C136 1.419 . S
C135 C130 1.425 1_545 S
C135 C132 1.409 1_445 S
C135 C133 1.415 . S
C136 H126 0.930 . S
C136 C134 1.419 . S
C136 C137 1.362 . S
C137 H127 0.930 . S
C137 C130 1.409 1_545 S
C137 C136 1.362 . S
H138 C144 0.930 . S
H139 C147 0.930 . S
H140 C148 0.930 . S
H141 C149 0.930 . S
H142 C152 0.930 . S
H143 C153 0.930 . S
C144 H138 0.930 . S
C144 C145 1.355 . S
C144 C146 1.415 . S
C145 C144 1.355 . S
C145 C147 1.419 . S
C146 C144 1.415 . S
C146 C151 1.425 . S
C146 C153 1.409 . S
C147 H139 0.930 . S
C147 C145 1.419 . S
C147 C148 1.362 . S
C148 H140 0.930 . S
C148 C147 1.362 . S
C148 C151 1.409 . S
C149 H141 0.930 . S
C149 C150 1.355 . S
C149 C151 1.415 1_554 S
C150 C149 1.355 . S
C150 C152 1.419 . S
C151 C146 1.425 . S
C151 C148 1.409 . S
C151 C149 1.415 1_556 S
C152 H142 0.930 . S
C152 C150 1.419 . S
C152 C153 1.362 1_554 S
C153 H143 0.930 . S
C153 C146 1.409 . S
C153 C152 1.362 1_556 S
H154 C160 0.930 . S
H155 C163 0.930 . S
H156 C164 0.930 . S
H157 C165 0.930 . S
H158 C168 0.930 . S
H159 C169 0.930 . S
C160 H154 0.930 . S
C160 C161 1.355 . S
C160 C162 1.415 . S
C161 C160 1.355 . S
C161 C163 1.419 . S
C162 C160 1.415 . S
C162 C167 1.425 . S
C162 C169 1.409 . S
C163 H155 0.930 . S
C163 C161 1.419 . S
C163 C164 1.362 . S
C164 H156 0.930 . S
C164 C163 1.362 . S
C164 C167 1.409 . S
C165 H157 0.930 . S
C165 C166 1.355 . S
C165 C167 1.415 . S
C166 C165 1.355 . S
C166 C168 1.419 . S
C167 C162 1.425 . S
C167 C164 1.409 . S
C167 C165 1.415 . S
C168 H158 0.930 . S
C168 C166 1.419 . S
C168 C169 1.362 . S
C169 H159 0.930 . S
C169 C162 1.409 . S
C169 C168 1.362 . S
H170 C176 0.930 . S
H171 C179 0.930 . S
H172 C180 0.930 . S
H173 C181 0.930 . S
H174 C184 0.930 1_545 S
H175 C185 0.930 . S
C176 H170 0.930 . S
C176 C177 1.355 . S
C176 C178 1.415 . S
C177 C176 1.355 . S
C177 C179 1.419 . S
C178 C176 1.415 . S
C178 C183 1.425 . S
C178 C185 1.409 . S
C179 H171 0.930 . S
C179 C177 1.419 . S
C179 C180 1.362 . S
C180 H172 0.930 . S
C180 C179 1.362 . S
C180 C183 1.409 . S
C181 H173 0.930 . S
C181 C182 1.355 . S
C181 C183 1.415 . S
C182 C181 1.355 . S
C182 C184 1.419 . S
C183 C178 1.425 . S
C183 C180 1.409 . S
C183 C181 1.415 . S
C184 H174 0.930 1_565 S
C184 C182 1.419 . S
C184 C185 1.362 . S
C185 H175 0.930 . S
C185 C178 1.409 . S
C185 C184 1.362 . S
H186 C192 0.930 . S
H187 C195 0.930 . S
H188 C196 0.930 . S
H189 C197 0.930 . S
H190 C200 0.930 . S
H191 C201 0.930 . S
C192 H186 0.930 . S
C192 C193 1.355 . S
C192 C194 1.415 1_556 S
C193 C192 1.355 . S
C193 C195 1.419 . S
C194 C192 1.415 1_554 S
C194 C199 1.425 . S
C194 C201 1.409 . S
C195 H187 0.930 . S
C195 C193 1.419 . S
C195 C196 1.362 1_556 S
C196 H188 0.930 . S
C196 C195 1.362 1_554 S
C196 C199 1.409 . S
C197 H189 0.930 . S
C197 C198 1.355 . S
C197 C199 1.415 . S
C198 C197 1.355 . S
C198 C200 1.419 . S
C199 C194 1.425 . S
C199 C196 1.409 . S
C199 C197 1.415 . S
C200 H190 0.930 . S
C200 C198 1.419 . S
C200 C201 1.362 . S
C201 H191 0.930 . S
C201 C194 1.409 . S
C201 C200 1.362 . S
H202 C208 0.930 . S
H203 C211 0.930 . S
H204 C212 0.930 . S
H205 C213 0.930 . S
H206 C216 0.930 . S
H207 C217 0.930 . S
C208 H202 0.930 . S
C208 C209 1.355 . S
C208 C210 1.415 . S
C209 C208 1.355 . S
C209 C211 1.419 . S
C210 C208 1.415 . S
C210 C215 1.425 . S
C210 C217 1.409 . S
C211 H203 0.930 . S
C211 C209 1.419 . S
C211 C212 1.362 . S
C212 H204 0.930 . S
C212 C211 1.362 . S
C212 C215 1.409 . S
C213 H205 0.930 . S
C213 C214 1.355 . S
C213 C215 1.415 . S
C214 C213 1.355 . S
C214 C216 1.419 . S
C215 C210 1.425 . S
C215 C212 1.409 . S
C215 C213 1.415 . S
C216 H206 0.930 . S
C216 C214 1.419 . S
C216 C217 1.362 . S
C217 H207 0.930 . S
C217 C210 1.409 . S
C217 C216 1.362 . S
H218 C224 0.930 . S
H219 C227 0.930 . S
H220 C228 0.930 . S
H221 C229 0.930 . S
H222 C232 0.930 . S
H223 C233 0.930 . S
C224 H218 0.930 . S
C224 C225 1.355 . S
C224 C226 1.415 . S
C225 C224 1.355 . S
C225 C227 1.419 . S
C226 C224 1.415 . S
C226 C231 1.425 . S
C226 C233 1.409 . S
C227 H219 0.930 . S
C227 C225 1.419 . S
C227 C228 1.362 . S
C228 H220 0.930 . S
C228 C227 1.362 . S
C228 C231 1.409 . S
C229 H221 0.930 . S
C229 C230 1.355 . S
C229 C231 1.415 . S
C230 C229 1.355 . S
C230 C232 1.419 . S
C231 C226 1.425 . S
C231 C228 1.409 . S
C231 C229 1.415 . S
C232 H222 0.930 . S
C232 C230 1.419 . S
C232 C233 1.362 . S
C233 H223 0.930 . S
C233 C226 1.409 . S
C233 C232 1.362 . S
C97 C1 1.723 . S
C102 C10 1.723 . S
C113 C40 1.732 . S
C118 C31 1.732 . S
C129 C70 1.733 . S
C134 C61 1.733 . S
C145 C87 1.129 . S
C150 N6 1.150 . S
C161 C46 1.035 . S
C166 N14 0.935 . S
C177 N66 1.119 . S
C182 C57 1.102 . S
C193 N74 0.929 . S
C198 C16 1.044 . S
C209 C27 1.110 . S
C214 N36 1.113 . S
C225 C76 1.058 . S
C230 N44 0.928 . S
