# Generated by pormake.
# Topology hex, (8)-cn, num edge types: 1
# Building blocks:
#     Node 0, Type 0, BuildingBlock: EBIMEJ_clean_sbu_0, # of connection points: 8
#     Edge 1, Type (0, 0), BuildingBlock: UVAHIK_clean_linker_0, # of connection points: 2
#     Edge 2, Type (0, 0), BuildingBlock: UVAHIK_clean_linker_0, # of connection points: 2
#     Edge 3, Type (0, 0), BuildingBlock: UVAHIK_clean_linker_0, # of connection points: 2
#     Edge 4, Type (0, 0), BuildingBlock: UVAHIK_clean_linker_0, # of connection points: 2
# Relax obj value: 0.015
# Max RMSD: 0.054
# Mean RMSD: 0.054
data_MOF--net-hex--node1-EBIMEJ_clean_sbu_0--edge1-UVAHIK_clean_linker_0
_symmetry_space_group_name_H-M    P1
_symmetry_Int_Tables_number       1
_symmetry_cell_setting            triclinic
loop_
_symmetry_equiv_pos_as_xyz
'x, y, z'
_cell_length_a     21.393017
_cell_length_b     25.153599
_cell_length_c     20.678296
_cell_angle_alpha  73.056979
_cell_angle_beta   115.79727
_cell_angle_gamma 124.07821
loop_
_atom_site_label
_atom_site_type_symbol
_atom_site_fract_x
_atom_site_fract_y
_atom_site_fract_z
_atom_type_partial_charge
Co0 Co 0.00208 0.90255 0.98883 0.0
Co1 Co 0.91578 0.9695 1.00192 0.0
Co2 Co 0.08492 0.05271 0.0031 0.0
H3 H 0.03477 0.9764 0.00971 0.0
O4 O 0.01302 0.96317 0.04202 0.0
H5 H 0.96593 0.04582 0.99531 0.0
O6 O 0.98768 0.05905 0.96301 0.0
Co7 Co 0.99862 0.11967 0.0162 0.0
O8 O 0.87835 0.08434 0.97364 0.0
O9 O 0.8201 0.97915 0.96177 0.0
O10 O 0.11628 0.18476 0.03171 0.0
O11 O 0.15304 0.14539 0.97939 0.0
O12 O 0.96805 0.82649 0.93739 0.0
O13 O 0.03731 0.83561 0.04576 0.0
O14 O 0.03461 0.08727 0.11826 0.0
O15 O 0.93593 0.98593 0.10126 0.0
C16 C 0.1844 0.99292 0.04945 0.0
C17 C 0.83627 0.83054 0.9998 0.0
C18 C 0.99781 0.21953 0.01246 0.0
C19 C 0.00992 0.99014 0.86238 0.0
C20 C 0.8163 0.0293 0.95557 0.0
C21 C 0.16443 0.19167 0.00523 0.0
C22 C 0.00289 0.80268 0.99257 0.0
C23 C 0.99078 0.03208 0.14264 0.0
O24 O 0.12235 0.93788 0.03137 0.0
O25 O 0.1806 0.04307 0.04326 0.0
O26 O 0.84766 0.87683 0.02564 0.0
O27 O 0.88442 0.83746 0.97332 0.0
O28 O 0.03265 0.19572 0.06764 0.0
O29 O 0.96339 0.18661 0.95927 0.0
O30 O 0.96609 0.93495 0.88677 0.0
O31 O 0.06477 0.03628 0.90377 0.0
C32 C 0.03953 0.31359 0.0723 0.0
C33 C 0.99795 0.27912 0.01035 0.0
C34 C 0.04005 0.36999 0.07038 0.0
C35 C 0.9304 0.45895 0.96467 0.0
H36 H 0.1257 0.60332 0.06922 0.0
C37 C 0.96117 0.70863 0.93273 0.0
C38 C 0.00275 0.7431 0.99468 0.0
C39 C 0.96065 0.65222 0.93465 0.0
C40 C 0.0703 0.56327 0.04037 0.0
H41 H 0.92428 0.27686 0.89774 0.0
H42 H 0.92577 0.37554 0.89402 0.0
H43 H 0.12454 0.50515 0.07242 0.0
H44 H 0.07642 0.74536 0.10729 0.0
H45 H 0.07493 0.64667 0.11101 0.0
H46 H 0.87616 0.51706 0.93261 0.0
C47 C 0.95723 0.35868 0.94448 0.0
C48 C 0.06963 0.5068 0.0422 0.0
C49 C 0.95676 0.30226 0.94643 0.0
C50 C 0.04394 0.71995 0.0586 0.0
C51 C 0.04347 0.66354 0.06055 0.0
C52 C 0.93107 0.51542 0.96283 0.0
C53 C 0.99895 0.39344 0.00643 0.0
C54 C 0.99967 0.45378 0.00439 0.0
C55 C 0.00175 0.62878 0.9986 0.0
C56 C 0.00103 0.56844 1.00065 0.0
H57 H 0.07168 0.29692 0.12245 0.0
H58 H 0.07188 0.39478 0.11943 0.0
H59 H 0.875 0.41889 0.93581 0.0
H60 H 0.92901 0.7253 0.88258 0.0
H61 H 0.92882 0.62744 0.8856 0.0
C62 C 0.73131 0.07749 0.92379 0.0
C63 C 0.73787 0.0223 0.9385 0.0
C64 C 0.66682 0.07395 0.92991 0.0
C65 C 0.47147 0.96449 0.95715 0.0
H66 H 0.55265 0.094 0.08316 0.0
C67 C 0.26939 0.94473 0.08122 0.0
C68 C 0.26283 0.99992 0.06651 0.0
C69 C 0.33388 0.94828 0.07508 0.0
C70 C 0.52922 0.05774 0.04784 0.0
H71 H 0.6774 0.91892 0.96209 0.0
H72 H 0.56502 0.91291 0.97319 0.0
H73 H 0.64277 0.09859 0.03682 0.0
H74 H 0.32329 0.1033 0.04292 0.0
H75 H 0.43567 0.10931 0.03181 0.0
H76 H 0.35792 0.92364 0.96817 0.0
C77 C 0.60976 0.95887 0.95728 0.0
C78 C 0.5804 0.06064 0.02074 0.0
C79 C 0.67416 0.96233 0.95084 0.0
C80 C 0.32653 0.05989 0.05417 0.0
C81 C 0.39093 0.06335 0.04772 0.0
C82 C 0.42029 0.96159 0.98425 0.0
C83 C 0.6081 0.01525 0.95086 0.0
C84 C 0.55191 0.01411 0.97505 0.0
C85 C 0.3926 1.00698 0.05414 0.0
C86 C 0.44878 1.00812 0.02994 0.0
H87 H 0.77888 0.12423 0.9128 0.0
H88 H 0.66553 0.11779 0.92269 0.0
H89 H 0.44804 0.92823 0.92183 0.0
H90 H 0.22182 0.89799 0.09221 0.0
H91 H 0.33517 0.90443 0.0823 0.0
C92 C 0.25426 0.30405 0.04391 0.0
C93 C 0.23591 0.25615 0.00581 0.0
C94 C 0.31996 0.36561 0.04379 0.0
C95 C 0.45054 0.47845 0.93916 0.0
H96 H 0.58897 0.56784 0.1157 0.0
C97 C 0.74644 0.71817 0.96112 0.0
C98 C 0.76479 0.76607 0.99922 0.0
C99 C 0.68074 0.6566 0.96124 0.0
C100 C 0.55016 0.54376 0.06587 0.0
H101 H 0.27279 0.23543 0.93805 0.0
H102 H 0.38833 0.34384 0.93782 0.0
H103 H 0.47913 0.4573 0.11843 0.0
H104 H 0.72791 0.78679 0.06698 0.0
H105 H 0.61237 0.67838 0.06722 0.0
H106 H 0.52157 0.56492 0.8866 0.0
C107 C 0.35113 0.33328 0.96748 0.0
C108 C 0.48756 0.48048 0.06744 0.0
C109 C 0.28536 0.27122 0.96794 0.0
C110 C 0.71534 0.751 0.03709 0.0
C111 C 0.64957 0.68894 0.03755 0.0
C112 C 0.51313 0.54173 0.93759 0.0
C113 C 0.36887 0.38102 0.00539 0.0
C114 C 0.4371 0.44724 0.00409 0.0
C115 C 0.63182 0.6412 0.99964 0.0
C116 C 0.5636 0.57497 1.00094 0.0
H117 H 0.21763 0.29426 0.07381 0.0
H118 H 0.33152 0.40158 0.07273 0.0
H119 H 0.41173 0.45438 0.88933 0.0
H120 H 0.78307 0.72796 0.93122 0.0
H121 H 0.66918 0.62063 0.9323 0.0
C122 C 0.06038 0.05379 0.75924 0.0
C123 C 0.0031 0.99813 0.78583 0.0
C124 C 0.05848 0.05787 0.68939 0.0
C125 C 0.9817 0.95405 0.54612 0.0
H126 H 0.0323 0.1127 0.42565 0.0
C127 C 0.94032 0.96842 0.24579 0.0
C128 C 0.9976 0.02408 0.2192 0.0
C129 C 0.94222 0.96434 0.31564 0.0
C130 C 0.01899 0.06817 0.45891 0.0
H131 H 0.89683 0.90416 0.7582 0.0
H132 H 0.89289 0.91183 0.63666 0.0
H133 H 0.03135 0.10892 0.54437 0.0
H134 H 0.10387 0.11805 0.24683 0.0
H135 H 0.10781 0.11039 0.36836 0.0
H136 H 0.96935 0.91329 0.46066 0.0
C137 C 0.9404 0.95179 0.67023 0.0
C138 C 0.01837 0.06602 0.52705 0.0
C139 C 0.94233 0.94766 0.73991 0.0
C140 C 0.05837 0.07455 0.26512 0.0
C141 C 0.0603 0.07043 0.3348 0.0
C142 C 0.98233 0.9562 0.47798 0.0
C143 C 0.9992 1.00644 0.6444 0.0
C144 C 0.99963 1.00891 0.57157 0.0
C145 C 0.00149 0.01577 0.36063 0.0
C146 C 0.00106 0.0133 0.43346 0.0
H147 H 0.10825 0.09349 0.79308 0.0
H148 H 0.10508 0.10054 0.67153 0.0
H149 H 0.9684 0.90952 0.57938 0.0
H150 H 0.89245 0.92872 0.21195 0.0
H151 H 0.89561 0.92168 0.33349 0.0
loop_
_geom_bond_atom_site_label_1
_geom_bond_atom_site_label_2
_geom_bond_distance
_geom_bond_site_symmetry_2
_ccdc_geom_bond_type
Co0 H3 2.400 1_556 S
Co0 O4 2.009 1_556 S
Co0 O12 2.115 1_455 S
Co0 O13 2.315 1_556 S
Co0 O24 2.053 . S
Co0 O27 2.094 1_455 S
Co0 O30 2.122 1_455 S
Co1 O4 2.126 1_655 S
Co1 H5 2.388 1_564 S
Co1 O6 2.053 1_564 S
Co1 O9 2.047 1_554 S
Co1 O15 2.113 . S
Co1 O26 2.063 . S
Co2 H3 2.388 1_546 S
Co2 O4 2.053 1_546 S
Co2 O6 2.126 1_455 S
Co2 O11 2.063 . S
Co2 O25 2.047 1_556 S
Co2 O31 2.113 . S
H3 Co0 2.400 1_554 S
H3 Co2 2.388 1_564 S
H3 O4 0.760 . S
O4 Co0 2.009 1_554 S
O4 Co1 2.126 1_455 S
O4 Co2 2.053 1_564 S
O4 H3 0.760 . S
H5 Co1 2.388 1_546 S
H5 O6 0.760 . S
H5 Co7 2.400 1_556 S
O6 Co1 2.053 1_546 S
O6 Co2 2.126 1_655 S
O6 H5 0.760 . S
O6 Co7 2.009 1_556 S
Co7 H5 2.400 1_554 S
Co7 O6 2.009 1_554 S
Co7 O8 2.053 . S
Co7 O10 2.094 1_655 S
Co7 O14 2.122 1_655 S
Co7 O28 2.115 1_655 S
Co7 O29 2.315 1_554 S
O8 Co7 2.053 . S
O8 C20 1.259 . S
O9 Co1 2.047 1_556 S
O9 C20 1.257 1_566 S
O10 Co7 2.094 1_455 S
O10 C21 1.253 . S
O11 Co2 2.063 . S
O11 C21 1.268 1_556 S
O12 Co0 2.115 1_655 S
O12 C22 1.281 1_556 S
O13 Co0 2.315 1_554 S
O13 C22 1.252 1_455 S
O14 Co7 2.122 1_455 S
O14 C23 1.272 1_455 S
O15 Co1 2.113 . S
O15 C23 1.245 1_565 S
C16 O24 1.259 . S
C16 O25 1.257 1_566 S
C17 O26 1.268 1_556 S
C17 O27 1.253 . S
C18 O28 1.281 1_556 S
C18 O29 1.252 1_455 S
C19 O30 1.272 1_455 S
C19 O31 1.245 1_565 S
C20 O8 1.259 . S
C20 O9 1.257 1_544 S
C21 O10 1.253 . S
C21 O11 1.268 1_554 S
C22 O12 1.281 1_554 S
C22 O13 1.252 1_655 S
C23 O14 1.272 1_655 S
C23 O15 1.245 1_545 S
O24 Co0 2.053 . S
O24 C16 1.259 . S
O25 Co2 2.047 1_554 S
O25 C16 1.257 1_544 S
O26 Co1 2.063 . S
O26 C17 1.268 1_554 S
O27 Co0 2.094 1_655 S
O27 C17 1.253 . S
O28 Co7 2.115 1_455 S
O28 C18 1.281 1_554 S
O29 Co7 2.315 1_556 S
O29 C18 1.252 1_655 S
O30 Co0 2.122 1_655 S
O30 C19 1.272 1_655 S
O31 Co2 2.113 . S
O31 C19 1.245 1_545 S
C32 C33 1.349 1_554 S
C32 C34 1.327 . S
C32 H57 0.950 . S
C33 C32 1.349 1_556 S
C33 C49 1.349 1_455 S
C34 C32 1.327 . S
C34 C53 1.429 1_554 S
C34 H58 0.950 . S
C35 C52 1.574 . S
C35 C54 1.368 1_655 S
C35 H59 0.949 . S
H36 C40 0.949 . S
C37 C38 1.349 1_556 S
C37 C39 1.327 . S
C37 H60 0.950 . S
C38 C37 1.349 1_554 S
C38 C50 1.349 1_655 S
C39 C37 1.327 . S
C39 C55 1.429 1_556 S
C39 H61 0.950 . S
C40 H36 0.949 . S
C40 C48 1.574 . S
C40 C56 1.368 1_455 S
H41 C49 0.950 . S
H42 C47 0.950 . S
H43 C48 0.949 . S
H44 C50 0.950 . S
H45 C51 0.950 . S
H46 C52 0.949 . S
C47 H42 0.950 . S
C47 C49 1.327 . S
C47 C53 1.429 1_655 S
C48 C40 1.574 . S
C48 H43 0.949 . S
C48 C54 1.368 1_554 S
C49 C33 1.349 1_655 S
C49 H41 0.950 . S
C49 C47 1.327 . S
C50 C38 1.349 1_455 S
C50 H44 0.950 . S
C50 C51 1.327 . S
C51 H45 0.950 . S
C51 C50 1.327 . S
C51 C55 1.429 1_455 S
C52 C35 1.574 . S
C52 H46 0.949 . S
C52 C56 1.368 1_556 S
C53 C34 1.429 1_556 S
C53 C47 1.429 1_455 S
C53 C54 1.523 . S
C54 C35 1.368 1_455 S
C54 C48 1.368 1_556 S
C54 C53 1.523 . S
C55 C39 1.429 1_554 S
C55 C51 1.429 1_655 S
C55 C56 1.523 . S
C56 C40 1.368 1_655 S
C56 C52 1.368 1_554 S
C56 C55 1.523 . S
H57 C32 0.950 . S
H58 C34 0.950 . S
H59 C35 0.949 . S
H60 C37 0.950 . S
H61 C39 0.950 . S
C62 C63 1.349 1_556 S
C62 C64 1.327 . S
C62 H87 0.950 . S
C63 C62 1.349 1_554 S
C63 C79 1.349 1_545 S
C64 C62 1.327 . S
C64 C83 1.429 1_556 S
C64 H88 0.950 . S
C65 C82 1.574 . S
C65 C84 1.362 1_565 S
C65 H89 0.949 . S
H66 C70 0.949 . S
C67 C68 1.349 1_554 S
C67 C69 1.327 . S
C67 H90 0.950 . S
C68 C67 1.349 1_556 S
C68 C80 1.349 1_565 S
C69 C67 1.327 . S
C69 C85 1.429 1_554 S
C69 H91 0.950 . S
C70 H66 0.949 . S
C70 C78 1.574 . S
C70 C86 1.364 1_545 S
H71 C79 0.950 . S
H72 C77 0.950 . S
H73 C78 0.949 . S
H74 C80 0.950 . S
H75 C81 0.950 . S
H76 C82 0.949 . S
C77 H72 0.950 . S
C77 C79 1.327 . S
C77 C83 1.429 1_565 S
C78 C70 1.574 . S
C78 H73 0.949 . S
C78 C84 1.381 1_556 S
C79 C63 1.349 1_565 S
C79 H71 0.950 . S
C79 C77 1.327 . S
C80 C68 1.349 1_545 S
C80 H74 0.950 . S
C80 C81 1.327 . S
C81 H75 0.950 . S
C81 C80 1.327 . S
C81 C85 1.429 1_545 S
C82 C65 1.574 . S
C82 H76 0.949 . S
C82 C86 1.376 1_554 S
C83 C64 1.429 1_554 S
C83 C77 1.429 1_545 S
C83 C84 1.515 . S
C84 C65 1.362 1_545 S
C84 C78 1.381 1_554 S
C84 C83 1.515 . S
C85 C69 1.429 1_556 S
C85 C81 1.429 1_565 S
C85 C86 1.518 . S
C86 C70 1.364 1_565 S
C86 C82 1.376 1_556 S
C86 C85 1.518 . S
H87 C62 0.950 . S
H88 C64 0.950 . S
H89 C65 0.949 . S
H90 C67 0.950 . S
H91 C69 0.950 . S
C92 C93 1.349 . S
C92 C94 1.327 . S
C92 H117 0.950 . S
C93 C92 1.349 . S
C93 C109 1.349 1_554 S
C94 C92 1.327 . S
C94 C113 1.429 . S
C94 H118 0.950 . S
C95 C112 1.574 . S
C95 C114 1.368 1_556 S
C95 H119 0.949 . S
H96 C100 0.949 . S
C97 C98 1.349 . S
C97 C99 1.327 . S
C97 H120 0.950 . S
C98 C97 1.349 . S
C98 C110 1.349 1_556 S
C99 C97 1.327 . S
C99 C115 1.429 . S
C99 H121 0.950 . S
C100 H96 0.949 . S
C100 C108 1.574 . S
C100 C116 1.368 1_554 S
H101 C109 0.950 . S
H102 C107 0.950 . S
H103 C108 0.949 . S
H104 C110 0.950 . S
H105 C111 0.950 . S
H106 C112 0.949 . S
C107 H102 0.950 . S
C107 C109 1.327 . S
C107 C113 1.429 1_556 S
C108 C100 1.574 . S
C108 H103 0.949 . S
C108 C114 1.368 . S
C109 C93 1.349 1_556 S
C109 H101 0.950 . S
C109 C107 1.327 . S
C110 C98 1.349 1_554 S
C110 H104 0.950 . S
C110 C111 1.327 . S
C111 H105 0.950 . S
C111 C110 1.327 . S
C111 C115 1.429 1_554 S
C112 C95 1.574 . S
C112 H106 0.949 . S
C112 C116 1.368 . S
C113 C94 1.429 . S
C113 C107 1.429 1_554 S
C113 C114 1.523 . S
C114 C95 1.368 1_554 S
C114 C108 1.368 . S
C114 C113 1.523 . S
C115 C99 1.429 . S
C115 C111 1.429 1_556 S
C115 C116 1.523 . S
C116 C100 1.368 1_556 S
C116 C112 1.368 . S
C116 C115 1.523 . S
H117 C92 0.950 . S
H118 C94 0.950 . S
H119 C95 0.949 . S
H120 C97 0.950 . S
H121 C99 0.950 . S
C122 C123 1.357 1_545 S
C122 C124 1.327 . S
C122 H147 0.950 . S
C123 C122 1.357 1_565 S
C123 C139 1.349 1_455 S
C124 C122 1.327 . S
C124 C143 1.430 1_545 S
C124 H148 0.950 . S
C125 C142 1.574 . S
C125 C144 1.369 1_665 S
C125 H149 0.949 . S
H126 C130 0.949 . S
C127 C128 1.353 1_565 S
C127 C129 1.327 . S
C127 H150 0.950 . S
C128 C127 1.353 1_545 S
C128 C140 1.353 1_655 S
C129 C127 1.327 . S
C129 C145 1.426 1_565 S
C129 H151 0.950 . S
C130 H126 0.949 . S
C130 C138 1.574 . S
C130 C146 1.370 1_455 S
H131 C139 0.950 . S
H132 C137 0.950 . S
H133 C138 0.949 . S
H134 C140 0.950 . S
H135 C141 0.950 . S
H136 C142 0.949 . S
C137 H132 0.950 . S
C137 C139 1.327 . S
C137 C143 1.424 1_655 S
C138 C130 1.574 . S
C138 H133 0.949 . S
C138 C144 1.370 . S
C139 C123 1.349 1_655 S
C139 H131 0.950 . S
C139 C137 1.327 . S
C140 C128 1.353 1_455 S
C140 H134 0.950 . S
C140 C141 1.327 . S
C141 H135 0.950 . S
C141 C140 1.327 . S
C141 C145 1.428 1_455 S
C142 C125 1.574 . S
C142 H136 0.949 . S
C142 C146 1.367 1_565 S
C143 C124 1.430 1_565 S
C143 C137 1.424 1_455 S
C143 C144 1.524 1_565 S
C144 C125 1.369 1_445 S
C144 C138 1.370 . S
C144 C143 1.524 1_545 S
C145 C129 1.426 1_545 S
C145 C141 1.428 1_655 S
C145 C146 1.526 . S
C146 C130 1.370 1_655 S
C146 C142 1.367 1_545 S
C146 C145 1.526 . S
H147 C122 0.950 . S
H148 C124 0.950 . S
H149 C125 0.949 . S
H150 C127 0.950 . S
H151 C129 0.950 . S
C33 C18 1.875 . S
C38 C22 1.875 . S
C63 C20 0.854 . S
C68 C16 0.854 . S
C93 C21 1.646 . S
C98 C17 1.646 . S
C123 C19 1.458 . S
C128 C23 1.459 . S
