# Generated by pormake.
# Topology cag, (4)-cn, num edge types: 1
# Building blocks:
#     Node 0, Type 0, BuildingBlock: QUQFOY_clean_sbu_1, # of connection points: 4
#     Node 1, Type 0, BuildingBlock: QUQFOY_clean_sbu_1, # of connection points: 4
#     Node 2, Type 0, BuildingBlock: QUQFOY_clean_sbu_1, # of connection points: 4
#     Node 3, Type 0, BuildingBlock: QUQFOY_clean_sbu_1, # of connection points: 4
#     Node 4, Type 0, BuildingBlock: QUQFOY_clean_sbu_1, # of connection points: 4
#     Node 5, Type 0, BuildingBlock: QUQFOY_clean_sbu_1, # of connection points: 4
#     Node 6, Type 0, BuildingBlock: QUQFOY_clean_sbu_1, # of connection points: 4
#     Node 7, Type 0, BuildingBlock: QUQFOY_clean_sbu_1, # of connection points: 4
#     Node 8, Type 0, BuildingBlock: QUQFOY_clean_sbu_1, # of connection points: 4
#     Node 9, Type 0, BuildingBlock: QUQFOY_clean_sbu_1, # of connection points: 4
#     Node 10, Type 0, BuildingBlock: QUQFOY_clean_sbu_1, # of connection points: 4
#     Node 11, Type 0, BuildingBlock: QUQFOY_clean_sbu_1, # of connection points: 4
#     Node 12, Type 0, BuildingBlock: QUQFOY_clean_sbu_1, # of connection points: 4
#     Node 13, Type 0, BuildingBlock: QUQFOY_clean_sbu_1, # of connection points: 4
#     Node 14, Type 0, BuildingBlock: QUQFOY_clean_sbu_1, # of connection points: 4
#     Node 15, Type 0, BuildingBlock: QUQFOY_clean_sbu_1, # of connection points: 4
#     Edge 16, Type (0, 0), None
#     Edge 17, Type (0, 0), None
#     Edge 18, Type (0, 0), None
#     Edge 19, Type (0, 0), None
#     Edge 20, Type (0, 0), None
#     Edge 21, Type (0, 0), None
#     Edge 22, Type (0, 0), None
#     Edge 23, Type (0, 0), None
#     Edge 24, Type (0, 0), None
#     Edge 25, Type (0, 0), None
#     Edge 26, Type (0, 0), None
#     Edge 27, Type (0, 0), None
#     Edge 28, Type (0, 0), None
#     Edge 29, Type (0, 0), None
#     Edge 30, Type (0, 0), None
#     Edge 31, Type (0, 0), None
#     Edge 32, Type (0, 0), None
#     Edge 33, Type (0, 0), None
#     Edge 34, Type (0, 0), None
#     Edge 35, Type (0, 0), None
#     Edge 36, Type (0, 0), None
#     Edge 37, Type (0, 0), None
#     Edge 38, Type (0, 0), None
#     Edge 39, Type (0, 0), None
#     Edge 40, Type (0, 0), None
#     Edge 41, Type (0, 0), None
#     Edge 42, Type (0, 0), None
#     Edge 43, Type (0, 0), None
#     Edge 44, Type (0, 0), None
#     Edge 45, Type (0, 0), None
#     Edge 46, Type (0, 0), None
#     Edge 47, Type (0, 0), None
# Relax obj value: 0.127
# Max RMSD: 0.194
# Mean RMSD: 0.169
data_MOF--net-cag--node1-QUQFOY_clean_sbu_1--edge1-none
_symmetry_space_group_name_H-M    P1
_symmetry_Int_Tables_number       1
_symmetry_cell_setting            triclinic
loop_
_symmetry_equiv_pos_as_xyz
'x, y, z'
_cell_length_a     19.886666
_cell_length_b     25.997348
_cell_length_c     20.767427
_cell_angle_alpha  90.000417
_cell_angle_beta   90.0
_cell_angle_gamma 90.000041
loop_
_atom_site_label
_atom_site_type_symbol
_atom_site_fract_x
_atom_site_fract_y
_atom_site_fract_z
_atom_type_partial_charge
O0 O 0.25269 0.1943 0.16713 0.0
Cd1 Cd 0.29754 0.21257 0.08193 0.0
Cd2 Cd 0.30638 0.10254 0.07623 0.0
O3 O 0.25312 0.10925 0.16277 0.0
O4 O 0.27137 0.28538 0.06503 0.0
O5 O 0.24291 0.21999 0.00185 0.0
C6 C 0.24083 0.26867 0.01445 0.0
C7 C 0.27942 0.04022 -0.00071 0.0
C8 C 0.23831 0.15096 0.19159 0.0
C9 C 0.43456 0.16793 0.07101 0.0
O10 O 0.40701 0.12375 0.07104 0.0
O11 O 0.40006 0.20873 0.07619 0.0
O12 O 0.30474 0.02758 0.05413 0.0
O13 O 0.26539 0.08807 -0.01071 0.0
O14 O 0.1895 0.84869 0.66713 0.0
Cd15 Cd 0.14465 0.83042 0.58193 0.0
Cd16 Cd 0.13581 0.94046 0.57623 0.0
O17 O 0.18907 0.93374 0.66276 0.0
O18 O 0.17082 0.75761 0.56503 0.0
O19 O 0.19928 0.823 0.50185 0.0
C20 C 0.20136 0.77432 0.51445 0.0
C21 C 0.16277 1.00277 0.49929 0.0
C22 C 0.20388 0.89203 0.69159 0.0
C23 C 0.00763 0.87506 0.57101 0.0
O24 O 0.03518 0.91924 0.57104 0.0
O25 O 0.04213 0.83426 0.57619 0.0
O26 O 0.13745 1.01542 0.55413 0.0
O27 O 0.1768 0.95492 0.48929 0.0
O28 O 0.2527 0.84869 0.77863 0.0
Cd29 Cd 0.29754 0.83043 0.86383 0.0
Cd30 Cd 0.30638 0.94046 0.86952 0.0
O31 O 0.25312 0.93374 0.78299 0.0
O32 O 0.27137 0.75761 0.88073 0.0
O33 O 0.24291 0.823 0.94391 0.0
C34 C 0.24083 0.77433 0.93131 0.0
C35 C 0.27943 1.00276 0.94646 0.0
C36 C 0.23831 0.89203 0.75417 0.0
C37 C 0.43456 0.87506 0.87475 0.0
O38 O 0.40701 0.91924 0.87471 0.0
O39 O 0.40006 0.83426 0.86957 0.0
O40 O 0.30475 1.01542 0.89163 0.0
O41 O 0.26539 0.95491 0.95647 0.0
O42 O 0.18949 0.1943 0.27863 0.0
Cd43 Cd 0.14465 0.21256 0.36383 0.0
Cd44 Cd 0.13581 0.10253 0.36952 0.0
O45 O 0.18907 0.10925 0.28299 0.0
O46 O 0.17082 0.28538 0.38074 0.0
O47 O 0.19928 0.21999 0.44391 0.0
C48 C 0.20136 0.26866 0.43131 0.0
C49 C 0.16276 0.04023 0.44646 0.0
C50 C 0.20388 0.15096 0.25417 0.0
C51 C 0.00763 0.16793 0.37475 0.0
O52 O 0.03518 0.12375 0.37471 0.0
O53 O 0.04213 0.20873 0.36957 0.0
O54 O 0.13744 0.02757 0.39163 0.0
O55 O 0.1768 0.08808 0.45647 0.0
O56 O 0.68419 0.78819 0.91804 0.0
Cd57 Cd 0.64167 0.83193 0.84745 0.0
Cd58 Cd 0.63889 0.90804 0.94477 0.0
O59 O 0.69485 0.85049 -0.01038 0.0
O60 O 0.66894 0.79562 0.76819 0.0
O61 O 0.69804 0.87638 0.78959 0.0
C62 C 0.70084 0.83678 0.75211 0.0
C63 C 0.66418 0.9937 0.96761 0.0
C64 C 0.70481 0.80423 0.97206 0.0
C65 C 0.50746 0.87112 0.8815 0.0
O66 O 0.53752 0.89945 0.92229 0.0
O67 O 0.53955 0.83966 0.84645 0.0
O68 O 0.63888 0.96395 0.01076 0.0
O69 O 0.6785 0.97435 0.91202 0.0
O70 O 0.758 0.2548 0.41804 0.0
Cd71 Cd 0.80052 0.21106 0.34745 0.0
Cd72 Cd 0.8033 0.13495 0.44477 0.0
O73 O 0.74734 0.1925 0.48962 0.0
O74 O 0.77325 0.24737 0.26819 0.0
O75 O 0.74415 0.16661 0.28958 0.0
C76 C 0.74135 0.20621 0.25211 0.0
C77 C 0.77801 0.04929 0.46761 0.0
C78 C 0.73738 0.23876 0.47206 0.0
C79 C 0.93473 0.17187 0.3815 0.0
O80 O 0.90467 0.14353 0.42229 0.0
O81 O 0.90264 0.20333 0.34645 0.0
O82 O 0.80331 0.07904 0.51075 0.0
O83 O 0.76369 0.06864 0.41202 0.0
O84 O 0.68418 0.2548 0.02772 0.0
Cd85 Cd 0.64167 0.21107 0.09831 0.0
Cd86 Cd 0.63888 0.13495 0.00099 0.0
O87 O 0.69485 0.19251 0.95614 0.0
O88 O 0.66894 0.24737 0.17757 0.0
O89 O 0.69804 0.16661 0.15617 0.0
C90 C 0.70084 0.20621 0.19365 0.0
C91 C 0.66417 0.0493 -0.02184 0.0
C92 C 0.7048 0.23876 -0.0263 0.0
C93 C 0.50746 0.17187 0.06426 0.0
O94 O 0.53751 0.14354 0.02346 0.0
O95 O 0.53955 0.20334 0.09931 0.0
O96 O 0.63888 0.07904 0.935 0.0
O97 O 0.6785 0.06865 0.03375 0.0
O98 O 0.758 0.78819 0.52772 0.0
Cd99 Cd 0.80052 0.83193 0.59831 0.0
Cd100 Cd 0.8033 0.90804 0.50099 0.0
O101 O 0.74734 0.85048 0.45614 0.0
O102 O 0.77325 0.79562 0.67757 0.0
O103 O 0.74415 0.87638 0.65617 0.0
C104 C 0.74135 0.83678 0.69365 0.0
C105 C 0.77802 0.99369 0.47816 0.0
C106 C 0.73738 0.80423 0.4737 0.0
C107 C 0.93473 0.87112 0.56426 0.0
O108 O 0.90467 0.89945 0.52347 0.0
O109 O 0.90264 0.83966 0.59931 0.0
O110 O 0.80331 0.96395 0.43501 0.0
O111 O 0.76369 0.97434 0.53375 0.0
O112 O 0.75269 0.6943 0.16713 0.0
Cd113 Cd 0.79754 0.71257 0.08193 0.0
Cd114 Cd 0.80638 0.60254 0.07623 0.0
O115 O 0.75312 0.60925 0.16277 0.0
O116 O 0.77137 0.78538 0.06503 0.0
O117 O 0.74291 0.71999 0.00185 0.0
C118 C 0.74083 0.76867 0.01445 0.0
C119 C 0.77942 0.54022 -0.00071 0.0
C120 C 0.73831 0.65096 0.19159 0.0
C121 C 0.93456 0.66793 0.07101 0.0
O122 O 0.90701 0.62375 0.07104 0.0
O123 O 0.90006 0.70873 0.07619 0.0
O124 O 0.80474 0.52758 0.05413 0.0
O125 O 0.76539 0.58807 -0.01071 0.0
O126 O 0.6895 0.34869 0.66713 0.0
Cd127 Cd 0.64465 0.33042 0.58193 0.0
Cd128 Cd 0.63581 0.44046 0.57623 0.0
O129 O 0.68907 0.43374 0.66276 0.0
O130 O 0.67082 0.25761 0.56503 0.0
O131 O 0.69928 0.323 0.50185 0.0
C132 C 0.70136 0.27432 0.51445 0.0
C133 C 0.66277 0.50277 0.49929 0.0
C134 C 0.70388 0.39203 0.69159 0.0
C135 C 0.50763 0.37506 0.57101 0.0
O136 O 0.53518 0.41924 0.57104 0.0
O137 O 0.54213 0.33426 0.57619 0.0
O138 O 0.63745 0.51542 0.55413 0.0
O139 O 0.6768 0.45492 0.48929 0.0
O140 O 0.7527 0.34869 0.77863 0.0
Cd141 Cd 0.79754 0.33043 0.86383 0.0
Cd142 Cd 0.80638 0.44046 0.86952 0.0
O143 O 0.75312 0.43374 0.78299 0.0
O144 O 0.77137 0.25761 0.88073 0.0
O145 O 0.74291 0.323 0.94391 0.0
C146 C 0.74083 0.27433 0.93131 0.0
C147 C 0.77943 0.50276 0.94646 0.0
C148 C 0.73831 0.39203 0.75417 0.0
C149 C 0.93456 0.37506 0.87475 0.0
O150 O 0.90701 0.41924 0.87471 0.0
O151 O 0.90006 0.33426 0.86957 0.0
O152 O 0.80475 0.51542 0.89163 0.0
O153 O 0.76539 0.45491 0.95647 0.0
O154 O 0.68949 0.6943 0.27863 0.0
Cd155 Cd 0.64465 0.71256 0.36383 0.0
Cd156 Cd 0.63581 0.60253 0.36952 0.0
O157 O 0.68907 0.60925 0.28299 0.0
O158 O 0.67082 0.78538 0.38074 0.0
O159 O 0.69928 0.71999 0.44391 0.0
C160 C 0.70136 0.76866 0.43131 0.0
C161 C 0.66276 0.54023 0.44646 0.0
C162 C 0.70388 0.65096 0.25417 0.0
C163 C 0.50763 0.66793 0.37475 0.0
O164 O 0.53518 0.62375 0.37471 0.0
O165 O 0.54213 0.70873 0.36957 0.0
O166 O 0.63744 0.52757 0.39163 0.0
O167 O 0.6768 0.58808 0.45647 0.0
O168 O 0.18419 0.28819 0.91804 0.0
Cd169 Cd 0.14167 0.33193 0.84745 0.0
Cd170 Cd 0.13889 0.40804 0.94477 0.0
O171 O 0.19485 0.35049 -0.01038 0.0
O172 O 0.16894 0.29562 0.76819 0.0
O173 O 0.19804 0.37638 0.78959 0.0
C174 C 0.20084 0.33678 0.75211 0.0
C175 C 0.16418 0.4937 0.96761 0.0
C176 C 0.2048 0.30423 0.97206 0.0
C177 C 0.00746 0.37112 0.8815 0.0
O178 O 0.03752 0.39945 0.92229 0.0
O179 O 0.03955 0.33966 0.84645 0.0
O180 O 0.13888 0.46395 0.01076 0.0
O181 O 0.1785 0.47435 0.91202 0.0
O182 O 0.258 0.7548 0.41804 0.0
Cd183 Cd 0.30052 0.71106 0.34745 0.0
Cd184 Cd 0.3033 0.63495 0.44477 0.0
O185 O 0.24734 0.6925 0.48962 0.0
O186 O 0.27325 0.74737 0.26819 0.0
O187 O 0.24415 0.66661 0.28958 0.0
C188 C 0.24135 0.70621 0.25211 0.0
C189 C 0.27801 0.54929 0.46761 0.0
C190 C 0.23738 0.73876 0.47206 0.0
C191 C 0.43473 0.67187 0.3815 0.0
O192 O 0.40467 0.64353 0.42229 0.0
O193 O 0.40264 0.70333 0.34645 0.0
O194 O 0.30331 0.57904 0.51075 0.0
O195 O 0.26369 0.56864 0.41202 0.0
O196 O 0.18418 0.7548 0.02772 0.0
Cd197 Cd 0.14167 0.71107 0.09831 0.0
Cd198 Cd 0.13888 0.63495 0.00099 0.0
O199 O 0.19485 0.69251 0.95614 0.0
O200 O 0.16894 0.74737 0.17757 0.0
O201 O 0.19804 0.66661 0.15617 0.0
C202 C 0.20084 0.70621 0.19365 0.0
C203 C 0.16417 0.5493 -0.02184 0.0
C204 C 0.2048 0.73876 -0.0263 0.0
C205 C 0.00746 0.67187 0.06426 0.0
O206 O 0.03751 0.64354 0.02346 0.0
O207 O 0.03955 0.70334 0.09931 0.0
O208 O 0.13888 0.57904 0.935 0.0
O209 O 0.1785 0.56865 0.03375 0.0
O210 O 0.25801 0.28819 0.52772 0.0
Cd211 Cd 0.30052 0.33193 0.59831 0.0
Cd212 Cd 0.3033 0.40804 0.50099 0.0
O213 O 0.24734 0.35048 0.45614 0.0
O214 O 0.27325 0.29562 0.67757 0.0
O215 O 0.24415 0.37638 0.65617 0.0
C216 C 0.24135 0.33678 0.69365 0.0
C217 C 0.27802 0.49369 0.47816 0.0
C218 C 0.23738 0.30423 0.4737 0.0
C219 C 0.43473 0.37112 0.56426 0.0
O220 O 0.40467 0.39945 0.52347 0.0
O221 O 0.40264 0.33966 0.59931 0.0
O222 O 0.30331 0.46395 0.43501 0.0
O223 O 0.26369 0.47434 0.53375 0.0
loop_
_geom_bond_atom_site_label_1
_geom_bond_atom_site_label_2
_geom_bond_distance
_geom_bond_site_symmetry_2
_ccdc_geom_bond_type
O0 Cd1 2.223 . S
O0 C8 1.315 . S
Cd1 O0 2.223 . S
Cd1 O4 2.297 . S
Cd1 O5 2.439 . S
Cd1 O11 2.240 . S
Cd2 O3 2.240 . S
Cd2 O10 2.223 . S
Cd2 O12 2.297 . S
Cd2 O13 2.439 . S
O3 Cd2 2.240 . S
O3 C8 1.279 . S
O4 Cd1 2.297 . S
O4 C6 1.247 . S
O5 Cd1 2.439 . S
O5 C6 1.208 . S
C6 O4 1.247 . S
C6 O5 1.208 . S
C7 O12 1.247 . S
C7 O13 1.208 . S
C8 O0 1.315 . S
C8 O3 1.279 . S
C9 O10 1.315 . S
C9 O11 1.279 . S
O10 Cd2 2.223 . S
O10 C9 1.315 . S
O11 Cd1 2.240 . S
O11 C9 1.279 . S
O12 Cd2 2.297 . S
O12 C7 1.247 . S
O13 Cd2 2.439 . S
O13 C7 1.208 . S
O14 Cd15 2.223 . S
O14 C22 1.315 . S
Cd15 O14 2.223 . S
Cd15 O18 2.297 . S
Cd15 O19 2.439 . S
Cd15 O25 2.240 . S
Cd16 O17 2.240 . S
Cd16 O24 2.223 . S
Cd16 O26 2.297 . S
Cd16 O27 2.439 . S
O17 Cd16 2.240 . S
O17 C22 1.279 . S
O18 Cd15 2.297 . S
O18 C20 1.247 . S
O19 Cd15 2.439 . S
O19 C20 1.208 . S
C20 O18 1.247 . S
C20 O19 1.208 . S
C21 O26 1.247 . S
C21 O27 1.208 . S
C22 O14 1.315 . S
C22 O17 1.279 . S
C23 O24 1.315 . S
C23 O25 1.279 . S
O24 Cd16 2.223 . S
O24 C23 1.315 . S
O25 Cd15 2.240 . S
O25 C23 1.279 . S
O26 Cd16 2.297 . S
O26 C21 1.247 . S
O27 Cd16 2.439 . S
O27 C21 1.208 . S
O28 Cd29 2.223 . S
O28 C36 1.315 . S
Cd29 O28 2.223 . S
Cd29 O32 2.297 . S
Cd29 O33 2.439 . S
Cd29 O39 2.240 . S
Cd30 O31 2.240 . S
Cd30 O38 2.223 . S
Cd30 O40 2.297 . S
Cd30 O41 2.439 . S
O31 Cd30 2.240 . S
O31 C36 1.279 . S
O32 Cd29 2.297 . S
O32 C34 1.247 . S
O33 Cd29 2.439 . S
O33 C34 1.208 . S
C34 O32 1.247 . S
C34 O33 1.208 . S
C35 O40 1.247 . S
C35 O41 1.208 . S
C36 O28 1.315 . S
C36 O31 1.279 . S
C37 O38 1.315 . S
C37 O39 1.279 . S
O38 Cd30 2.223 . S
O38 C37 1.315 . S
O39 Cd29 2.240 . S
O39 C37 1.279 . S
O40 Cd30 2.297 . S
O40 C35 1.247 . S
O41 Cd30 2.439 . S
O41 C35 1.208 . S
O42 Cd43 2.223 . S
O42 C50 1.315 . S
Cd43 O42 2.223 . S
Cd43 O46 2.297 . S
Cd43 O47 2.439 . S
Cd43 O53 2.240 . S
Cd44 O45 2.240 . S
Cd44 O52 2.223 . S
Cd44 O54 2.297 . S
Cd44 O55 2.439 . S
O45 Cd44 2.240 . S
O45 C50 1.279 . S
O46 Cd43 2.297 . S
O46 C48 1.247 . S
O47 Cd43 2.439 . S
O47 C48 1.208 . S
C48 O46 1.247 . S
C48 O47 1.208 . S
C49 O54 1.247 . S
C49 O55 1.208 . S
C50 O42 1.315 . S
C50 O45 1.279 . S
C51 O52 1.315 . S
C51 O53 1.279 . S
O52 Cd44 2.223 . S
O52 C51 1.315 . S
O53 Cd43 2.240 . S
O53 C51 1.279 . S
O54 Cd44 2.297 . S
O54 C49 1.247 . S
O55 Cd44 2.439 . S
O55 C49 1.208 . S
O56 Cd57 2.223 . S
O56 C64 1.315 . S
Cd57 O56 2.223 . S
Cd57 O60 2.297 . S
Cd57 O61 2.439 . S
Cd57 O67 2.240 . S
Cd58 O59 2.240 1_554 S
Cd58 O66 2.223 . S
Cd58 O68 2.297 . S
Cd58 O69 2.439 1_554 S
O59 Cd58 2.240 1_556 S
O59 C64 1.279 . S
O60 Cd57 2.297 . S
O60 C62 1.247 . S
O61 Cd57 2.439 . S
O61 C62 1.208 . S
C62 O60 1.247 . S
C62 O61 1.208 . S
C63 O68 1.247 1_556 S
C63 O69 1.208 . S
C64 O56 1.315 . S
C64 O59 1.279 . S
C65 O66 1.315 1_556 S
C65 O67 1.279 . S
O66 Cd58 2.223 . S
O66 C65 1.315 1_554 S
O67 Cd57 2.240 . S
O67 C65 1.279 . S
O68 Cd58 2.297 . S
O68 C63 1.247 1_554 S
O69 Cd58 2.439 1_556 S
O69 C63 1.208 . S
O70 Cd71 2.223 . S
O70 C78 1.315 . S
Cd71 O70 2.223 . S
Cd71 O74 2.297 . S
Cd71 O75 2.439 . S
Cd71 O81 2.240 . S
Cd72 O73 2.240 . S
Cd72 O80 2.223 1_655 S
Cd72 O82 2.297 . S
Cd72 O83 2.439 . S
O73 Cd72 2.240 . S
O73 C78 1.279 . S
O74 Cd71 2.297 . S
O74 C76 1.247 . S
O75 Cd71 2.439 . S
O75 C76 1.208 . S
C76 O74 1.247 . S
C76 O75 1.208 . S
C77 O82 1.247 . S
C77 O83 1.208 . S
C78 O70 1.315 . S
C78 O73 1.279 . S
C79 O80 1.315 . S
C79 O81 1.279 1_455 S
O80 Cd72 2.223 1_455 S
O80 C79 1.315 . S
O81 Cd71 2.240 . S
O81 C79 1.279 1_655 S
O82 Cd72 2.297 . S
O82 C77 1.247 . S
O83 Cd72 2.439 . S
O83 C77 1.208 . S
O84 Cd85 2.223 . S
O84 C92 1.315 . S
Cd85 O84 2.223 . S
Cd85 O88 2.297 . S
Cd85 O89 2.439 . S
Cd85 O95 2.240 . S
Cd86 O87 2.240 1_556 S
Cd86 O94 2.223 . S
Cd86 O96 2.297 . S
Cd86 O97 2.439 1_556 S
O87 Cd86 2.240 1_554 S
O87 C92 1.279 . S
O88 Cd85 2.297 . S
O88 C90 1.247 . S
O89 Cd85 2.439 . S
O89 C90 1.208 . S
C90 O88 1.247 . S
C90 O89 1.208 . S
C91 O96 1.247 1_554 S
C91 O97 1.208 . S
C92 O84 1.315 . S
C92 O87 1.279 . S
C93 O94 1.315 1_554 S
C93 O95 1.279 . S
O94 Cd86 2.223 . S
O94 C93 1.315 1_556 S
O95 Cd85 2.240 . S
O95 C93 1.279 . S
O96 Cd86 2.297 . S
O96 C91 1.247 1_556 S
O97 Cd86 2.439 1_554 S
O97 C91 1.208 . S
O98 Cd99 2.223 . S
O98 C106 1.315 . S
Cd99 O98 2.223 . S
Cd99 O102 2.297 . S
Cd99 O103 2.439 . S
Cd99 O109 2.240 . S
Cd100 O101 2.240 . S
Cd100 O108 2.223 1_655 S
Cd100 O110 2.297 . S
Cd100 O111 2.439 . S
O101 Cd100 2.240 . S
O101 C106 1.279 . S
O102 Cd99 2.297 . S
O102 C104 1.247 . S
O103 Cd99 2.439 . S
O103 C104 1.208 . S
C104 O102 1.247 . S
C104 O103 1.208 . S
C105 O110 1.247 . S
C105 O111 1.208 . S
C106 O98 1.315 . S
C106 O101 1.279 . S
C107 O108 1.315 . S
C107 O109 1.279 1_455 S
O108 Cd100 2.223 1_455 S
O108 C107 1.315 . S
O109 Cd99 2.240 . S
O109 C107 1.279 1_655 S
O110 Cd100 2.297 . S
O110 C105 1.247 . S
O111 Cd100 2.439 . S
O111 C105 1.208 . S
O112 Cd113 2.223 . S
O112 C120 1.315 . S
Cd113 O112 2.223 . S
Cd113 O116 2.297 . S
Cd113 O117 2.439 . S
Cd113 O123 2.240 . S
Cd114 O115 2.240 . S
Cd114 O122 2.223 . S
Cd114 O124 2.297 . S
Cd114 O125 2.439 . S
O115 Cd114 2.240 . S
O115 C120 1.279 . S
O116 Cd113 2.297 . S
O116 C118 1.247 . S
O117 Cd113 2.439 . S
O117 C118 1.208 . S
C118 O116 1.247 . S
C118 O117 1.208 . S
C119 O124 1.247 . S
C119 O125 1.208 . S
C120 O112 1.315 . S
C120 O115 1.279 . S
C121 O122 1.315 . S
C121 O123 1.279 . S
O122 Cd114 2.223 . S
O122 C121 1.315 . S
O123 Cd113 2.240 . S
O123 C121 1.279 . S
O124 Cd114 2.297 . S
O124 C119 1.247 . S
O125 Cd114 2.439 . S
O125 C119 1.208 . S
O126 Cd127 2.223 . S
O126 C134 1.315 . S
Cd127 O126 2.223 . S
Cd127 O130 2.297 . S
Cd127 O131 2.439 . S
Cd127 O137 2.240 . S
Cd128 O129 2.240 . S
Cd128 O136 2.223 . S
Cd128 O138 2.297 . S
Cd128 O139 2.439 . S
O129 Cd128 2.240 . S
O129 C134 1.279 . S
O130 Cd127 2.297 . S
O130 C132 1.247 . S
O131 Cd127 2.439 . S
O131 C132 1.208 . S
C132 O130 1.247 . S
C132 O131 1.208 . S
C133 O138 1.247 . S
C133 O139 1.208 . S
C134 O126 1.315 . S
C134 O129 1.279 . S
C135 O136 1.315 . S
C135 O137 1.279 . S
O136 Cd128 2.223 . S
O136 C135 1.315 . S
O137 Cd127 2.240 . S
O137 C135 1.279 . S
O138 Cd128 2.297 . S
O138 C133 1.247 . S
O139 Cd128 2.439 . S
O139 C133 1.208 . S
O140 Cd141 2.223 . S
O140 C148 1.315 . S
Cd141 O140 2.223 . S
Cd141 O144 2.297 . S
Cd141 O145 2.439 . S
Cd141 O151 2.240 . S
Cd142 O143 2.240 . S
Cd142 O150 2.223 . S
Cd142 O152 2.297 . S
Cd142 O153 2.439 . S
O143 Cd142 2.240 . S
O143 C148 1.279 . S
O144 Cd141 2.297 . S
O144 C146 1.247 . S
O145 Cd141 2.439 . S
O145 C146 1.208 . S
C146 O144 1.247 . S
C146 O145 1.208 . S
C147 O152 1.247 . S
C147 O153 1.208 . S
C148 O140 1.315 . S
C148 O143 1.279 . S
C149 O150 1.315 . S
C149 O151 1.279 . S
O150 Cd142 2.223 . S
O150 C149 1.315 . S
O151 Cd141 2.240 . S
O151 C149 1.279 . S
O152 Cd142 2.297 . S
O152 C147 1.247 . S
O153 Cd142 2.439 . S
O153 C147 1.208 . S
O154 Cd155 2.223 . S
O154 C162 1.315 . S
Cd155 O154 2.223 . S
Cd155 O158 2.297 . S
Cd155 O159 2.439 . S
Cd155 O165 2.240 . S
Cd156 O157 2.240 . S
Cd156 O164 2.223 . S
Cd156 O166 2.297 . S
Cd156 O167 2.439 . S
O157 Cd156 2.240 . S
O157 C162 1.279 . S
O158 Cd155 2.297 . S
O158 C160 1.247 . S
O159 Cd155 2.439 . S
O159 C160 1.208 . S
C160 O158 1.247 . S
C160 O159 1.208 . S
C161 O166 1.247 . S
C161 O167 1.208 . S
C162 O154 1.315 . S
C162 O157 1.279 . S
C163 O164 1.315 . S
C163 O165 1.279 . S
O164 Cd156 2.223 . S
O164 C163 1.315 . S
O165 Cd155 2.240 . S
O165 C163 1.279 . S
O166 Cd156 2.297 . S
O166 C161 1.247 . S
O167 Cd156 2.439 . S
O167 C161 1.208 . S
O168 Cd169 2.223 . S
O168 C176 1.315 . S
Cd169 O168 2.223 . S
Cd169 O172 2.297 . S
Cd169 O173 2.439 . S
Cd169 O179 2.240 . S
Cd170 O171 2.240 1_554 S
Cd170 O178 2.223 1_455 S
Cd170 O180 2.297 . S
Cd170 O181 2.439 1_554 S
O171 Cd170 2.240 1_556 S
O171 C176 1.279 . S
O172 Cd169 2.297 . S
O172 C174 1.247 . S
O173 Cd169 2.439 . S
O173 C174 1.208 . S
C174 O172 1.247 . S
C174 O173 1.208 . S
C175 O180 1.247 1_556 S
C175 O181 1.208 . S
C176 O168 1.315 . S
C176 O171 1.279 . S
C177 O178 1.315 1_556 S
C177 O179 1.279 1_655 S
O178 Cd170 2.223 1_655 S
O178 C177 1.315 1_554 S
O179 Cd169 2.240 . S
O179 C177 1.279 1_455 S
O180 Cd170 2.297 . S
O180 C175 1.247 1_554 S
O181 Cd170 2.439 1_556 S
O181 C175 1.208 . S
O182 Cd183 2.223 . S
O182 C190 1.315 . S
Cd183 O182 2.223 . S
Cd183 O186 2.297 . S
Cd183 O187 2.439 . S
Cd183 O193 2.240 . S
Cd184 O185 2.240 . S
Cd184 O192 2.223 . S
Cd184 O194 2.297 . S
Cd184 O195 2.439 . S
O185 Cd184 2.240 . S
O185 C190 1.279 . S
O186 Cd183 2.297 . S
O186 C188 1.247 . S
O187 Cd183 2.439 . S
O187 C188 1.208 . S
C188 O186 1.247 . S
C188 O187 1.208 . S
C189 O194 1.247 . S
C189 O195 1.208 . S
C190 O182 1.315 . S
C190 O185 1.279 . S
C191 O192 1.315 . S
C191 O193 1.279 . S
O192 Cd184 2.223 . S
O192 C191 1.315 . S
O193 Cd183 2.240 . S
O193 C191 1.279 . S
O194 Cd184 2.297 . S
O194 C189 1.247 . S
O195 Cd184 2.439 . S
O195 C189 1.208 . S
O196 Cd197 2.223 . S
O196 C204 1.315 . S
Cd197 O196 2.223 . S
Cd197 O200 2.297 . S
Cd197 O201 2.439 . S
Cd197 O207 2.240 . S
Cd198 O199 2.240 1_556 S
Cd198 O206 2.223 1_455 S
Cd198 O208 2.297 . S
Cd198 O209 2.439 1_556 S
O199 Cd198 2.240 1_554 S
O199 C204 1.279 . S
O200 Cd197 2.297 . S
O200 C202 1.247 . S
O201 Cd197 2.439 . S
O201 C202 1.208 . S
C202 O200 1.247 . S
C202 O201 1.208 . S
C203 O208 1.247 1_554 S
C203 O209 1.208 . S
C204 O196 1.315 . S
C204 O199 1.279 . S
C205 O206 1.315 1_554 S
C205 O207 1.279 1_655 S
O206 Cd198 2.223 1_655 S
O206 C205 1.315 1_556 S
O207 Cd197 2.240 . S
O207 C205 1.279 1_455 S
O208 Cd198 2.297 . S
O208 C203 1.247 1_556 S
O209 Cd198 2.439 1_554 S
O209 C203 1.208 . S
O210 Cd211 2.223 . S
O210 C218 1.315 . S
Cd211 O210 2.223 . S
Cd211 O214 2.297 . S
Cd211 O215 2.439 . S
Cd211 O221 2.240 . S
Cd212 O213 2.240 . S
Cd212 O220 2.223 . S
Cd212 O222 2.297 . S
Cd212 O223 2.439 . S
O213 Cd212 2.240 . S
O213 C218 1.279 . S
O214 Cd211 2.297 . S
O214 C216 1.247 . S
O215 Cd211 2.439 . S
O215 C216 1.208 . S
C216 O214 1.247 . S
C216 O215 1.208 . S
C217 O222 1.247 . S
C217 O223 1.208 . S
C218 O210 1.315 . S
C218 O213 1.279 . S
C219 O220 1.315 . S
C219 O221 1.279 . S
O220 Cd212 2.223 . S
O220 C219 1.315 . S
O221 Cd211 2.240 . S
O221 C219 1.279 . S
O222 Cd212 2.297 . S
O222 C217 1.247 . S
O223 Cd212 2.439 . S
O223 C217 1.208 . S
C6 C176 1.939 1_554 S
C190 C20 1.939 . S
C34 C204 1.939 1_556 S
C218 C48 1.939 . S
C118 C64 1.939 1_554 S
C78 C132 1.939 . S
C146 C92 1.939 1_556 S
C106 C160 1.939 . S
C7 C35 1.623 1_544 S
C21 C49 1.623 1_565 S
C63 C91 1.327 1_566 S
C77 C105 1.327 1_545 S
C147 C119 1.623 1_556 S
C133 C161 1.623 . S
C203 C175 1.327 1_554 S
C189 C217 1.327 . S
C93 C9 1.989 . S
C107 C23 1.988 . S
C37 C65 1.989 . S
C51 C79 1.988 . S
C205 C121 1.988 . S
C135 C219 1.989 . S
C177 C149 1.988 . S
C163 C191 1.989 . S
C8 C50 1.813 . S
C36 C22 1.813 . S
C62 C104 1.447 . S
C76 C90 1.447 . S
C162 C120 1.813 . S
C134 C148 1.813 . S
C216 C174 1.447 . S
C188 C202 1.447 . S
