# Generated by pormake.
# Topology unc, (4)-cn, num edge types: 1
# Building blocks:
#     Node 0, Type 0, BuildingBlock: GALJAG_clean_sbu_0, # of connection points: 4
#     Node 1, Type 0, BuildingBlock: GALJAG_clean_sbu_0, # of connection points: 4
#     Node 2, Type 0, BuildingBlock: GALJAG_clean_sbu_0, # of connection points: 4
#     Node 3, Type 0, BuildingBlock: GALJAG_clean_sbu_0, # of connection points: 4
#     Edge 4, Type (0, 0), BuildingBlock: AJUNOK_clean_linker_0, # of connection points: 2
#     Edge 5, Type (0, 0), BuildingBlock: AJUNOK_clean_linker_0, # of connection points: 2
#     Edge 6, Type (0, 0), BuildingBlock: AJUNOK_clean_linker_0, # of connection points: 2
#     Edge 7, Type (0, 0), BuildingBlock: AJUNOK_clean_linker_0, # of connection points: 2
#     Edge 8, Type (0, 0), BuildingBlock: AJUNOK_clean_linker_0, # of connection points: 2
#     Edge 9, Type (0, 0), BuildingBlock: AJUNOK_clean_linker_0, # of connection points: 2
#     Edge 10, Type (0, 0), BuildingBlock: AJUNOK_clean_linker_0, # of connection points: 2
#     Edge 11, Type (0, 0), BuildingBlock: AJUNOK_clean_linker_0, # of connection points: 2
# Relax obj value: 0.013
# Max RMSD: 0.034
# Mean RMSD: 0.034
data_MOF--net-unc--node1-GALJAG_clean_sbu_0--edge1-AJUNOK_clean_linker_0
_symmetry_space_group_name_H-M    P1
_symmetry_Int_Tables_number       1
_symmetry_cell_setting            triclinic
loop_
_symmetry_equiv_pos_as_xyz
'x, y, z'
_cell_length_a     22.837067
_cell_length_b     22.922256
_cell_length_c     15.412276
_cell_angle_alpha  90.062047
_cell_angle_beta   89.306355
_cell_angle_gamma 90.20039
loop_
_atom_site_label
_atom_site_type_symbol
_atom_site_fract_x
_atom_site_fract_y
_atom_site_fract_z
_atom_type_partial_charge
In0 In 0.01381 0.688 0.97929 0.0
O1 O 0.10493 0.72887 0.98321 0.0
O2 O 0.04082 0.75869 0.0746 0.0
C3 C 0.01898 0.61311 0.84502 0.0
C4 C 0.93338 0.76279 0.91937 0.0
C5 C 1.01129 0.60567 0.10383 0.0
O6 O 0.06243 0.64438 0.86549 0.0
O7 O 0.97328 0.62191 0.88967 0.0
O8 O 0.96798 0.63882 0.09147 0.0
O9 O 0.05507 0.61606 0.05591 0.0
C10 C 0.09282 0.76227 0.04621 0.0
O11 O 0.92161 0.72601 0.97827 0.0
O12 O 0.98569 0.76218 0.89177 0.0
In13 In 0.33708 1.00825 0.24122 0.0
O14 O 0.30223 0.91458 0.23472 0.0
O15 O 0.25409 0.98099 0.17121 0.0
C16 C 0.41928 0.99366 0.36204 0.0
C17 C 0.26978 0.09508 0.30546 0.0
C18 C 0.41344 0.01217 0.1069 0.0
O19 O 0.37113 0.96624 0.36588 0.0
O20 O 0.42435 0.02937 0.3004 0.0
O21 O 0.39165 0.05822 0.13897 0.0
O22 O 0.39319 0.96555 0.13862 0.0
C23 C 0.25864 0.92756 0.18904 0.0
O24 O 0.28689 0.09382 0.22711 0.0
O25 O 0.28754 0.05323 0.35115 0.0
In26 In 1.01082 0.33585 0.47986 0.0
O27 O 0.09334 0.28241 0.50616 0.0
O28 O 0.05392 0.27479 0.38234 0.0
C29 C 0.01823 0.41984 0.60129 0.0
C30 C 0.92538 0.26196 0.53368 0.0
C31 C 1.00782 0.41338 0.3492 0.0
O32 O 0.06201 0.38932 0.57944 0.0
O33 O 0.97118 0.4062 0.56431 0.0
O34 O 0.96168 0.38909 0.37783 0.0
O35 O 0.05432 0.39728 0.38506 0.0
C36 C 0.09499 0.25966 0.43138 0.0
O37 O 0.92806 0.28144 0.45704 0.0
O38 O 0.96575 0.27961 0.58239 0.0
In39 In 0.68715 1.00816 0.73235 0.0
O40 O 0.72056 0.91434 0.74125 0.0
O41 O 0.7719 0.98166 0.79778 0.0
C42 C 0.60498 0.99147 0.61138 0.0
C43 C 0.75336 0.09561 0.66607 0.0
C44 C 0.61411 0.01368 0.87057 0.0
O45 O 0.65422 0.96652 0.60649 0.0
O46 O 0.59809 0.02486 0.67551 0.0
O47 O 0.63278 0.05935 0.83312 0.0
O48 O 0.63508 0.96684 0.84095 0.0
C49 C 0.76578 0.92787 0.78324 0.0
O50 O 0.73676 0.09477 0.74467 0.0
O51 O 0.73573 0.05303 0.62146 0.0
C52 C 0.95901 0.54125 0.21155 0.0
C53 C 1.01064 0.5564 0.16597 0.0
C54 C 0.95765 0.49361 0.26885 0.0
C55 C 1.008 0.45989 0.28295 0.0
H56 H 0.91937 0.5663 0.20297 0.0
H57 H 0.91731 0.48399 0.30375 0.0
S58 S 0.15339 0.47941 0.17661 0.0
N59 N 0.11285 0.53222 0.13688 0.0
N60 N 0.11011 0.44336 0.24434 0.0
C61 C 0.05955 0.47403 0.23685 0.0
C62 C 0.06093 0.52213 0.17845 0.0
C63 C 0.4543 0.98323 0.51357 0.0
C64 C 0.46674 0.98558 0.42432 0.0
C65 C 0.49972 0.98356 0.57393 0.0
C66 C 0.55877 0.98429 0.54664 0.0
H67 H 0.40936 0.98402 0.53689 0.0
H68 H 0.48859 0.98423 0.64248 0.0
S69 S 0.61384 0.98576 0.31969 0.0
N70 N 0.5418 0.98611 0.31108 0.0
N71 N 0.62718 0.98426 0.42479 0.0
C72 C 0.57166 0.98354 0.45753 0.0
C73 C 0.52552 0.98488 0.39619 0.0
C74 C 0.96857 0.54081 0.75159 0.0
C75 C 0.02128 0.56639 0.77889 0.0
C76 C 0.96842 0.49343 0.69453 0.0
C77 C 0.02098 0.4692 0.66296 0.0
H78 H 0.92682 0.55722 0.77494 0.0
H79 H 0.92654 0.47537 0.67569 0.0
S80 S 0.17106 0.52063 0.71316 0.0
N81 N 0.12765 0.5647 0.769 0.0
N82 N 0.12738 0.47499 0.6617 0.0
C83 C 0.07416 0.49451 0.68904 0.0
C84 C 0.0743 0.54336 0.74683 0.0
C85 C 0.485 0.06454 0.0091 0.0
C86 C 0.46408 0.01216 0.0458 0.0
C87 C 0.53479 0.06524 0.95456 0.0
C88 C 0.56565 0.01364 0.93541 0.0
H89 H 0.46269 0.10527 0.02227 0.0
H90 H 0.54855 0.10633 0.92617 0.0
S91 S 0.53096 0.86547 0.01942 0.0
N92 N 0.47955 0.90762 0.06142 0.0
N93 N 0.57296 0.90912 0.96054 0.0
C94 C 0.54586 0.96123 0.97333 0.0
C95 C 0.49509 0.96042 0.02796 0.0
C96 C 0.15739 0.89759 0.14963 0.0
C97 C 0.2171 0.88376 0.15583 0.0
C98 C 0.11725 0.85747 0.11553 0.0
C99 C 0.13586 0.80302 0.08369 0.0
H100 H 0.14151 0.93958 0.17188 0.0
H101 H 0.07154 0.86969 0.11232 0.0
S102 S 0.2877 0.7463 0.08395 0.0
N103 N 0.2929 0.81174 0.12829 0.0
N104 N 0.21782 0.73722 0.06068 0.0
C105 C 0.19552 0.78884 0.0889 0.0
C106 C 0.23608 0.829 0.126 0.0
C107 C 0.19347 0.17101 0.2818 0.0
C108 C 0.22847 0.13946 0.33952 0.0
C109 C 0.15057 0.20977 0.31236 0.0
C110 C 0.14167 0.21928 0.40181 0.0
H111 H 0.19812 0.16464 0.2124 0.0
H112 H 0.12412 0.23243 0.26533 0.0
S113 S 0.22381 0.1496 0.57992 0.0
N114 N 0.25253 0.12145 0.49046 0.0
N115 N 0.17269 0.19527 0.54777 0.0
C116 C 0.17742 0.18922 0.46025 0.0
C117 C 0.22057 0.14904 0.42914 0.0
C118 C 0.82692 0.17533 0.68674 0.0
C119 C 0.79378 0.14052 0.6303 0.0
C120 C 0.86905 0.2147 0.6547 0.0
C121 C 0.87901 0.22148 0.56494 0.0
H122 H 0.82145 0.17111 0.75637 0.0
H123 H 0.89418 0.23986 0.70081 0.0
S124 S 0.80195 0.14253 0.38953 0.0
N125 N 0.77264 0.11649 0.48003 0.0
N126 N 0.85107 0.19122 0.41996 0.0
C127 C 0.84507 0.18811 0.50767 0.0
C128 C 0.80269 0.14742 0.54031 0.0
C129 C 0.86742 0.89829 0.81994 0.0
C130 C 0.80754 0.88435 0.81585 0.0
C131 C 0.90789 0.85831 0.8526 0.0
C132 C 0.88961 0.80375 0.88489 0.0
H133 H 0.88319 0.94021 0.79694 0.0
H134 H 0.95372 0.87063 0.85391 0.0
S135 S 0.73732 0.74704 0.89091 0.0
N136 N 0.73176 0.8124 0.84675 0.0
N137 N 0.80756 0.738 0.91126 0.0
C138 C 0.82973 0.78957 0.88215 0.0
C139 C 0.78874 0.82968 0.8467 0.0
loop_
_geom_bond_atom_site_label_1
_geom_bond_atom_site_label_2
_geom_bond_distance
_geom_bond_site_symmetry_2
_ccdc_geom_bond_type
In0 O1 2.294 1_554 S
In0 O2 2.326 . S
In0 O6 2.266 1_554 S
In0 O7 2.326 1_454 S
In0 O8 2.266 1_455 S
In0 O9 2.326 . S
In0 O11 2.294 1_455 S
In0 O12 2.326 1_454 S
O1 In0 2.294 1_556 S
O1 C10 1.240 1_556 S
O2 In0 2.326 . S
O2 C10 1.252 . S
C3 O6 1.253 . S
C3 O7 1.259 1_455 S
C4 O11 1.240 1_556 S
C4 O12 1.252 . S
C5 O8 1.253 1_455 S
C5 O9 1.259 . S
O6 In0 2.266 1_556 S
O6 C3 1.253 . S
O7 In0 2.326 1_656 S
O7 C3 1.259 1_655 S
O8 In0 2.266 1_655 S
O8 C5 1.253 1_655 S
O9 In0 2.326 . S
O9 C5 1.259 . S
C10 O1 1.240 1_554 S
C10 O2 1.252 . S
O11 In0 2.294 1_655 S
O11 C4 1.240 1_554 S
O12 In0 2.326 1_656 S
O12 C4 1.252 . S
In13 O14 2.294 1_545 S
In13 O15 2.326 1_545 S
In13 O19 2.266 1_545 S
In13 O20 2.326 . S
In13 O21 2.266 . S
In13 O22 2.326 1_545 S
In13 O24 2.294 . S
In13 O25 2.326 . S
O14 In13 2.294 1_565 S
O14 C23 1.240 . S
O15 In13 2.326 1_565 S
O15 C23 1.252 . S
C16 O19 1.253 1_545 S
C16 O20 1.259 . S
C17 O24 1.240 . S
C17 O25 1.252 . S
C18 O21 1.253 . S
C18 O22 1.259 1_545 S
O19 In13 2.266 1_565 S
O19 C16 1.253 1_565 S
O20 In13 2.326 . S
O20 C16 1.259 . S
O21 In13 2.266 . S
O21 C18 1.253 . S
O22 In13 2.326 1_565 S
O22 C18 1.259 1_565 S
C23 O14 1.240 . S
C23 O15 1.252 . S
O24 In13 2.294 . S
O24 C17 1.240 . S
O25 In13 2.326 . S
O25 C17 1.252 . S
In26 O27 2.294 . S
In26 O28 2.326 . S
In26 O32 2.266 . S
In26 O33 2.326 1_455 S
In26 O34 2.266 1_455 S
In26 O35 2.326 . S
In26 O37 2.294 1_455 S
In26 O38 2.326 1_455 S
O27 In26 2.294 . S
O27 C36 1.240 . S
O28 In26 2.326 . S
O28 C36 1.252 . S
C29 O32 1.253 . S
C29 O33 1.259 1_455 S
C30 O37 1.240 . S
C30 O38 1.252 . S
C31 O34 1.253 1_455 S
C31 O35 1.259 . S
O32 In26 2.266 . S
O32 C29 1.253 . S
O33 In26 2.326 1_655 S
O33 C29 1.259 1_655 S
O34 In26 2.266 1_655 S
O34 C31 1.253 1_655 S
O35 In26 2.326 . S
O35 C31 1.259 . S
C36 O27 1.240 . S
C36 O28 1.252 . S
O37 In26 2.294 1_655 S
O37 C30 1.240 . S
O38 In26 2.326 1_655 S
O38 C30 1.252 . S
In39 O40 2.294 1_545 S
In39 O41 2.326 1_545 S
In39 O45 2.266 1_545 S
In39 O46 2.326 . S
In39 O47 2.266 . S
In39 O48 2.326 1_545 S
In39 O50 2.294 . S
In39 O51 2.326 . S
O40 In39 2.294 1_565 S
O40 C49 1.240 . S
O41 In39 2.326 1_565 S
O41 C49 1.252 . S
C42 O45 1.253 1_545 S
C42 O46 1.259 . S
C43 O50 1.240 . S
C43 O51 1.252 . S
C44 O47 1.253 . S
C44 O48 1.259 1_545 S
O45 In39 2.266 1_565 S
O45 C42 1.253 1_565 S
O46 In39 2.326 . S
O46 C42 1.259 . S
O47 In39 2.266 . S
O47 C44 1.253 . S
O48 In39 2.326 1_565 S
O48 C44 1.259 1_565 S
C49 O40 1.240 . S
C49 O41 1.252 . S
O50 In39 2.294 . S
O50 C43 1.240 . S
O51 In39 2.326 . S
O51 C43 1.252 . S
C52 C53 1.369 . S
C52 C54 1.419 . S
C52 H56 0.930 . S
C53 C52 1.369 . S
C53 C62 1.429 1_655 S
C54 C52 1.419 . S
C54 C55 1.363 . S
C54 H57 0.929 . S
C55 C54 1.363 . S
C55 C61 1.428 1_655 S
H56 C52 0.930 . S
H57 C54 0.929 . S
S58 N59 1.613 . S
S58 N60 1.610 . S
N59 S58 1.613 . S
N59 C62 1.350 . S
N60 S58 1.610 . S
N60 C61 1.351 . S
C61 C55 1.428 1_455 S
C61 N60 1.351 . S
C61 C62 1.434 . S
C62 C53 1.429 1_455 S
C62 N59 1.350 . S
C62 C61 1.434 . S
C63 C64 1.369 . S
C63 C65 1.419 . S
C63 H67 0.930 . S
C64 C63 1.369 . S
C64 C73 1.429 1_565 S
C65 C63 1.419 . S
C65 C66 1.363 . S
C65 H68 0.929 . S
C66 C65 1.363 . S
C66 C72 1.428 1_565 S
H67 C63 0.930 . S
H68 C65 0.929 . S
S69 N70 1.613 . S
S69 N71 1.610 . S
N70 S69 1.613 . S
N70 C73 1.350 . S
N71 S69 1.610 . S
N71 C72 1.351 . S
C72 C66 1.428 1_545 S
C72 N71 1.351 . S
C72 C73 1.434 . S
C73 C64 1.429 1_545 S
C73 N70 1.350 . S
C73 C72 1.434 . S
C74 C75 1.369 1_655 S
C74 C76 1.419 . S
C74 H78 0.930 . S
C75 C74 1.369 1_455 S
C75 C84 1.429 . S
C76 C74 1.419 . S
C76 C77 1.363 1_655 S
C76 H79 0.929 . S
C77 C76 1.363 1_455 S
C77 C83 1.428 . S
H78 C74 0.930 . S
H79 C76 0.929 . S
S80 N81 1.613 . S
S80 N82 1.610 . S
N81 S80 1.613 . S
N81 C84 1.350 . S
N82 S80 1.610 . S
N82 C83 1.351 . S
C83 C77 1.428 . S
C83 N82 1.351 . S
C83 C84 1.434 . S
C84 C75 1.429 . S
C84 N81 1.350 . S
C84 C83 1.434 . S
C85 C86 1.382 . S
C85 C87 1.419 1_554 S
C85 H89 0.930 . S
C86 C85 1.382 . S
C86 C95 1.415 1_545 S
C87 C85 1.419 1_556 S
C87 C88 1.379 . S
C87 H90 0.929 . S
C88 C87 1.379 . S
C88 C94 1.412 1_545 S
H89 C85 0.930 . S
H90 C87 0.929 . S
S91 N92 1.613 . S
S91 N93 1.610 1_554 S
N92 S91 1.613 . S
N92 C95 1.350 . S
N93 S91 1.610 1_556 S
N93 C94 1.351 . S
C94 C88 1.412 1_565 S
C94 N93 1.351 . S
C94 C95 1.434 1_556 S
C95 C86 1.415 1_565 S
C95 N92 1.350 . S
C95 C94 1.434 1_554 S
C96 C97 1.369 . S
C96 C98 1.419 . S
C96 H100 0.930 . S
C97 C96 1.369 . S
C97 C106 1.429 . S
C98 C96 1.419 . S
C98 C99 1.363 . S
C98 H101 0.929 . S
C99 C98 1.363 . S
C99 C105 1.428 . S
H100 C96 0.930 . S
H101 C98 0.929 . S
S102 N103 1.613 . S
S102 N104 1.610 . S
N103 S102 1.613 . S
N103 C106 1.350 . S
N104 S102 1.610 . S
N104 C105 1.351 . S
C105 C99 1.428 . S
C105 N104 1.351 . S
C105 C106 1.434 . S
C106 C97 1.429 . S
C106 N103 1.350 . S
C106 C105 1.434 . S
C107 C108 1.369 . S
C107 C109 1.419 . S
C107 H111 0.930 . S
C108 C107 1.369 . S
C108 C117 1.429 . S
C109 C107 1.419 . S
C109 C110 1.363 . S
C109 H112 0.929 . S
C110 C109 1.363 . S
C110 C116 1.428 . S
H111 C107 0.930 . S
H112 C109 0.929 . S
S113 N114 1.613 . S
S113 N115 1.610 . S
N114 S113 1.613 . S
N114 C117 1.350 . S
N115 S113 1.610 . S
N115 C116 1.351 . S
C116 C110 1.428 . S
C116 N115 1.351 . S
C116 C117 1.434 . S
C117 C108 1.429 . S
C117 N114 1.350 . S
C117 C116 1.434 . S
C118 C119 1.369 . S
C118 C120 1.419 . S
C118 H122 0.930 . S
C119 C118 1.369 . S
C119 C128 1.429 . S
C120 C118 1.419 . S
C120 C121 1.363 . S
C120 H123 0.929 . S
C121 C120 1.363 . S
C121 C127 1.428 . S
H122 C118 0.930 . S
H123 C120 0.929 . S
S124 N125 1.613 . S
S124 N126 1.610 . S
N125 S124 1.613 . S
N125 C128 1.350 . S
N126 S124 1.610 . S
N126 C127 1.351 . S
C127 C121 1.428 . S
C127 N126 1.351 . S
C127 C128 1.434 . S
C128 C119 1.429 . S
C128 N125 1.350 . S
C128 C127 1.434 . S
C129 C130 1.369 . S
C129 C131 1.419 . S
C129 H133 0.930 . S
C130 C129 1.369 . S
C130 C139 1.429 . S
C131 C129 1.419 . S
C131 C132 1.363 . S
C131 H134 0.929 . S
C132 C131 1.363 . S
C132 C138 1.428 . S
H133 C129 0.930 . S
H134 C131 0.929 . S
S135 N136 1.613 . S
S135 N137 1.610 . S
N136 S135 1.613 . S
N136 C139 1.350 . S
N137 S135 1.610 . S
N137 C138 1.351 . S
C138 C132 1.428 . S
C138 N137 1.351 . S
C138 C139 1.434 . S
C139 C130 1.429 . S
C139 N136 1.350 . S
C139 C138 1.434 . S
C53 C5 1.473 1_655 S
C55 C31 1.474 1_655 S
C64 C16 1.473 1_565 S
C66 C42 1.475 1_565 S
C75 C3 1.475 . S
C77 C29 1.475 . S
C86 C18 1.473 . S
C88 C44 1.474 . S
C97 C23 1.543 . S
C99 C10 1.543 . S
C108 C17 1.543 . S
C110 C36 1.541 . S
C119 C43 1.544 . S
C121 C30 1.544 . S
C130 C49 1.543 . S
C132 C4 1.548 . S
