# Generated by pormake.
# Topology lcy, (6)-cn, num edge types: 1
# Building blocks:
#     Node 0, Type 0, BuildingBlock: FUNLAD_clean_sbu_0, # of connection points: 6
#     Node 1, Type 0, BuildingBlock: FUNLAD_clean_sbu_0, # of connection points: 6
#     Node 2, Type 0, BuildingBlock: FUNLAD_clean_sbu_0, # of connection points: 6
#     Node 3, Type 0, BuildingBlock: FUNLAD_clean_sbu_0, # of connection points: 6
#     Edge 4, Type (0, 0), BuildingBlock: OJICUG_clean_linker_0, # of connection points: 2
#     Edge 5, Type (0, 0), BuildingBlock: OJICUG_clean_linker_0, # of connection points: 2
#     Edge 6, Type (0, 0), BuildingBlock: OJICUG_clean_linker_0, # of connection points: 2
#     Edge 7, Type (0, 0), BuildingBlock: OJICUG_clean_linker_0, # of connection points: 2
#     Edge 8, Type (0, 0), BuildingBlock: OJICUG_clean_linker_0, # of connection points: 2
#     Edge 9, Type (0, 0), BuildingBlock: OJICUG_clean_linker_0, # of connection points: 2
#     Edge 10, Type (0, 0), BuildingBlock: OJICUG_clean_linker_0, # of connection points: 2
#     Edge 11, Type (0, 0), BuildingBlock: OJICUG_clean_linker_0, # of connection points: 2
#     Edge 12, Type (0, 0), BuildingBlock: OJICUG_clean_linker_0, # of connection points: 2
#     Edge 13, Type (0, 0), BuildingBlock: OJICUG_clean_linker_0, # of connection points: 2
#     Edge 14, Type (0, 0), BuildingBlock: OJICUG_clean_linker_0, # of connection points: 2
#     Edge 15, Type (0, 0), BuildingBlock: OJICUG_clean_linker_0, # of connection points: 2
# Relax obj value: 0.774
# Max RMSD: 0.375
# Mean RMSD: 0.333
data_MOF--net-lcy--node1-FUNLAD_clean_sbu_0--edge1-OJICUG_clean_linker_0
_symmetry_space_group_name_H-M    P1
_symmetry_Int_Tables_number       1
_symmetry_cell_setting            triclinic
loop_
_symmetry_equiv_pos_as_xyz
'x, y, z'
_cell_length_a     21.522458
_cell_length_b     21.246043
_cell_length_c     19.585433
_cell_angle_alpha  78.865578
_cell_angle_beta   78.477441
_cell_angle_gamma 65.711618
loop_
_atom_site_label
_atom_site_type_symbol
_atom_site_fract_x
_atom_site_fract_y
_atom_site_fract_z
_atom_type_partial_charge
C0 C 0.29467 0.49718 0.35142 0.0
N1 N 0.46711 0.51652 0.40483 0.0
C2 C 0.47776 0.54549 0.33748 0.0
C3 C 0.50613 0.59631 0.3226 0.0
C4 C 0.52286 0.61811 0.37762 0.0
C5 C 0.51337 0.58568 0.44591 0.0
C6 C 0.48572 0.53492 0.45831 0.0
Zn7 Zn 0.40896 0.45581 0.43634 0.0
C8 C 0.30636 0.51163 0.56449 0.0
N9 N 0.27897 0.34105 0.51538 0.0
C10 C 0.26109 0.31662 0.46598 0.0
C11 C 0.24646 0.34055 0.58247 0.0
C12 C 0.1921 0.31785 0.60104 0.0
C13 C 0.17143 0.29368 0.55066 0.0
C14 C 0.2082 0.29192 0.48269 0.0
Zn15 Zn 0.34422 0.39384 0.48101 0.0
O16 O 0.34216 0.51483 0.3599 0.0
C17 C 0.44841 0.32773 0.36538 0.0
O18 O 0.27939 0.45292 0.39808 0.0
H19 H 0.26049 0.36065 0.62112 0.0
H20 H 0.46177 0.53136 0.29571 0.0
H21 H 0.28593 0.31866 0.41238 0.0
O22 O 0.46748 0.37853 0.3605 0.0
O23 O 0.39993 0.32366 0.41201 0.0
H24 H 0.4764 0.51254 0.51182 0.0
O25 O 0.41747 0.33227 0.55753 0.0
O26 O 0.4757 0.39677 0.50631 0.0
O27 O 0.28788 0.46449 0.55572 0.0
O28 O 0.35163 0.52499 0.51832 0.0
C29 C 0.46939 0.34872 0.55258 0.0
H30 H 0.5122 0.62037 0.26902 0.0
H31 H 0.52626 0.60013 0.48969 0.0
H32 H 0.16514 0.32186 0.65393 0.0
H33 H 0.19582 0.27266 0.44209 0.0
C34 C 0.73334 0.23049 0.64944 0.0
N35 N 0.90351 0.04612 0.60571 0.0
C36 C 0.86582 0.00806 0.60676 0.0
C37 C 0.89272 0.95089 0.56967 0.0
C38 C 0.95898 0.93288 0.53111 0.0
C39 C -0.00314 0.97278 0.5314 0.0
C40 C 0.96798 0.02953 0.56926 0.0
Zn41 Zn 0.87069 0.11986 0.67022 0.0
C42 C 0.93516 0.21515 0.63031 0.0
N43 N 0.81347 0.25215 0.81904 0.0
C44 C 0.79886 0.31967 0.79124 0.0
C45 C 0.83221 0.22835 0.8846 0.0
C46 C 0.84578 0.2709 0.92086 0.0
C47 C 0.83928 0.33784 0.88884 0.0
C48 C 0.81101 0.36386 0.82582 0.0
Zn49 Zn 0.83196 0.18522 0.74914 0.0
O50 O 0.77525 0.17159 0.63162 0.0
C51 C 0.77705 0.0886 0.80153 0.0
O52 O 0.75055 0.2588 0.69054 0.0
H53 H 0.84335 0.17452 0.90577 0.0
H54 H 0.81506 0.02189 0.63664 0.0
H55 H 0.78545 0.33732 0.73864 0.0
O56 O 0.82395 0.0583 0.75354 0.0
O57 O 0.76126 0.15211 0.80465 0.0
H58 H -0.00206 0.05931 0.57072 0.0
O59 O 0.90937 0.09885 0.80837 0.0
O60 O 0.96363 0.06691 0.70736 0.0
O61 O 0.90749 0.22125 0.69338 0.0
O62 O 0.91881 0.18108 0.59519 0.0
C63 C 0.95751 0.05361 0.77309 0.0
H64 H 0.86068 0.92294 0.56887 0.0
H65 H 0.04763 0.96098 0.50161 0.0
H66 H 0.86802 0.24934 0.96933 0.0
H67 H 0.80584 0.41531 0.79976 0.0
C68 C 0.20821 0.57249 0.07082 0.0
N69 N 0.20527 0.76055 0.95387 0.0
C70 C 0.19953 0.78253 1.01638 0.0
C71 C 0.22779 0.82982 1.02057 0.0
C72 C 0.26171 0.85527 0.95964 0.0
C73 C 0.26464 0.83348 0.89538 0.0
C74 C 0.23635 0.78551 0.89376 0.0
Zn75 Zn 0.1635 0.69158 0.95061 0.0
C76 C 0.22747 0.59757 0.84737 0.0
N77 N 0.05807 0.56559 0.96635 0.0
C78 C 0.04387 0.522 1.02215 0.0
C79 C 0.03663 0.57297 0.90353 0.0
C80 C 0.00011 0.53513 0.8945 0.0
C81 C 0.98584 0.48861 0.95048 0.0
C82 C 0.00739 0.48272 1.01533 0.0
Zn83 Zn 0.11016 0.62435 0.97237 0.0
O84 O 0.20988 0.6302 0.03993 0.0
C85 C 0.02763 0.72031 0.05866 0.0
O86 O 0.17673 0.54475 0.04506 0.0
H87 H 0.0482 0.60814 0.86004 0.0
H88 H 0.17405 0.76237 0.06333 0.0
H89 H 0.06104 0.51749 0.07179 0.0
O90 O 0.06575 0.75061 1.02075 0.0
O91 O 0.04626 0.65618 0.05851 0.0
H92 H 0.23962 0.76789 0.84443 0.0
O93 O 0.03855 0.71756 0.90763 0.0
O94 O 0.12213 0.7527 0.86692 0.0
O95 O 0.17487 0.58711 0.88028 0.0
O96 O 0.24852 0.63511 0.87308 0.0
C97 C 0.06051 0.76217 0.86912 0.0
H98 H 0.22545 0.84395 0.07154 0.0
H99 H 0.28968 0.85225 0.84705 0.0
H100 H 0.98328 0.5422 0.84399 0.0
H101 H -0.00246 0.44716 0.0596 0.0
C102 C 0.56752 0.06384 0.25618 0.0
N103 N 0.76319 0.9066 0.27784 0.0
C104 C 0.82655 0.88475 0.23885 0.0
C105 C 0.8858 0.85853 0.27114 0.0
C106 C 0.8794 0.85442 0.34415 0.0
C107 C 0.81335 0.8779 0.38301 0.0
C108 C 0.75564 0.90409 0.34859 0.0
Zn109 Zn 0.68037 0.92762 0.23134 0.0
C110 C 0.59626 0.85614 0.29941 0.0
N111 N 0.5344 0.96084 0.11019 0.0
C112 C 0.48073 0.02063 0.09221 0.0
C113 C 0.54336 0.89908 0.09137 0.0
C114 C 0.49766 0.89543 0.05302 0.0
C115 C 0.44133 0.95573 0.03441 0.0
C116 C 0.43266 0.01912 0.05445 0.0
Zn117 Zn 0.60539 0.95546 0.16736 0.0
O118 O 0.63019 0.02694 0.26313 0.0
C119 C 0.68827 0.01475 0.08545 0.0
O120 O 0.53472 0.04013 0.22681 0.0
H121 H 0.58529 0.85193 0.10755 0.0
H122 H 0.83144 0.88611 0.18272 0.0
H123 H 0.47473 0.06912 0.10792 0.0
O124 O 0.72697 0.97322 0.13053 0.0
O125 O 0.6249 0.02816 0.09831 0.0
H126 H 0.70485 0.92164 0.37839 0.0
O127 O 0.69062 0.87406 0.10516 0.0
O128 O 0.72959 0.83035 0.20439 0.0
O129 O 0.58101 0.87901 0.23786 0.0
O130 O 0.63382 0.87843 0.32245 0.0
C131 C 0.73661 0.82737 0.14001 0.0
H132 H 0.93588 0.84238 0.23954 0.0
H133 H 0.80627 0.87826 0.4393 0.0
H134 H 0.50495 0.84519 0.04038 0.0
H135 H 0.38921 0.06646 0.0415 0.0
C136 C 0.21229 0.50056 0.1923 0.0
C137 C 0.23366 0.54696 0.14132 0.0
H138 H 0.2131 0.44937 0.29885 0.0
C139 C 0.27254 0.5781 0.1618 0.0
H140 H 0.18123 0.47651 0.17927 0.0
C141 C 0.28921 0.56409 0.23023 0.0
C142 C 0.26793 0.51812 0.28156 0.0
H143 H 0.28966 0.61464 0.12485 0.0
H144 H 0.3198 0.58905 0.24259 0.0
C145 C 0.22938 0.48618 0.26144 0.0
C146 C 0.97465 0.88374 0.35839 0.0
C147 C 0.93904 0.83933 0.37949 0.0
H148 H 0.01133 0.94915 0.3937 0.0
C149 C 0.94209 0.80237 0.44722 0.0
H150 H 0.97478 0.91141 0.30576 0.0
C151 C 0.96317 0.82407 0.49805 0.0
C152 C 0.98087 0.8824 0.48035 0.0
H153 H 0.91696 0.76593 0.46376 0.0
H154 H 0.95421 0.80351 0.55255 0.0
C155 C -0.00438 0.90553 0.40917 0.0
C156 C 0.22548 0.53266 0.75431 0.0
C157 C 0.25381 0.57388 0.77551 0.0
H158 H 0.21689 0.48409 0.673 0.0
C159 C 0.29837 0.59772 0.72462 0.0
H160 H 0.19052 0.51333 0.79091 0.0
C161 C 0.31402 0.58021 0.65505 0.0
C162 C 0.28465 0.53936 0.63444 0.0
H163 H 0.32037 0.63049 0.73818 0.0
H164 H 0.34964 0.59798 0.61771 0.0
C165 C 0.24008 0.5163 0.68557 0.0
C166 C 0.7833 0.99972 0.98344 0.0
C167 C 0.71415 0.03187 1.01153 0.0
H168 H 0.85683 0.98676 0.8904 0.0
C169 C 0.6655 0.07224 0.96534 0.0
H170 H 0.82184 0.96787 1.01736 0.0
C171 C 0.68535 0.08124 0.89348 0.0
C172 C 0.75451 0.0513 0.86557 0.0
H173 H 0.61143 0.09759 0.98459 0.0
H174 H 0.64731 0.11643 0.86018 0.0
C175 C 0.80307 0.00869 0.91072 0.0
C176 C 0.03764 0.22665 0.65643 0.0
C177 C -0.00462 0.23465 0.60648 0.0
H178 H 0.12685 0.23478 0.67799 0.0
C179 C 0.01239 0.25986 0.53676 0.0
H180 H 0.0269 0.20572 0.71044 0.0
C181 C 0.06935 0.2792 0.51826 0.0
C182 C 0.11149 0.27176 0.56877 0.0
H183 H 0.98082 0.26634 0.49721 0.0
H184 H 0.07927 0.30123 0.46464 0.0
C185 C 0.09511 0.24394 0.6378 0.0
C186 C 0.004 0.85972 0.78152 0.0
C187 C 0.01611 0.83543 0.85092 0.0
H188 H 0.97799 0.94661 0.70263 0.0
C189 C 0.00976 0.88373 0.89521 0.0
H190 H 0.01213 0.82365 0.74521 0.0
C191 C 0.99156 0.9546 0.87079 0.0
C192 C 0.98092 0.97858 0.80083 0.0
H193 H 0.02305 0.86621 0.94789 0.0
H194 H 0.98708 0.9902 0.90604 0.0
C195 C 0.98656 0.93026 0.75685 0.0
C196 C 0.27658 0.94499 1.01439 0.0
C197 C 0.30083 0.89708 0.96512 0.0
H198 H 0.3028 1.00247 0.07464 0.0
C199 C 0.36736 0.88186 0.92812 0.0
H200 H 0.22496 0.95907 0.0425 0.0
C201 C 0.41117 0.90777 0.94555 0.0
C202 C 0.38947 0.94888 1.00056 0.0
H203 H 0.38792 0.84516 0.88993 0.0
H204 H 0.46391 0.89093 0.92002 0.0
C205 C 0.32072 0.97068 0.0321 0.0
C206 C 0.43948 0.24313 0.29993 0.0
C207 C 0.48158 0.2697 0.32187 0.0
H208 H 0.43278 0.1578 0.2624 0.0
C209 C 0.55234 0.23006 0.31772 0.0
H210 H 0.38437 0.27231 0.30359 0.0
C211 C 0.57974 0.16364 0.29584 0.0
C212 C 0.5371 0.13547 0.27716 0.0
H213 H 0.58569 0.24823 0.33588 0.0
H214 H 0.63446 0.13363 0.29523 0.0
C215 C 0.46691 0.1771 0.27733 0.0
C216 C 0.63928 0.21815 0.60151 0.0
C217 C 0.66224 0.25952 0.63039 0.0
H218 H 0.55794 0.21289 0.55738 0.0
C219 C 0.61526 0.32625 0.64455 0.0
H220 H 0.67356 0.16587 0.59105 0.0
C221 C 0.54866 0.35245 0.62616 0.0
C222 C 0.52685 0.31215 0.59459 0.0
H223 H 0.63061 0.35912 0.66766 0.0
H224 H 0.51526 0.40598 0.63288 0.0
C225 C 0.57233 0.24413 0.58396 0.0
C226 C 0.96935 0.41558 0.87642 0.0
C227 C 0.95069 0.44531 0.93925 0.0
H228 H 0.94803 0.35853 0.81204 0.0
C229 C 0.89709 0.43556 0.98869 0.0
H230 H 0.01162 0.42048 0.83822 0.0
C231 C 0.86092 0.39909 0.9738 0.0
C232 C 0.87791 0.37276 0.90925 0.0
H233 H 0.88182 0.45794 0.03759 0.0
H234 H 0.81874 0.39322 1.01143 0.0
C235 C 0.93317 0.38002 0.86149 0.0
C236 C 0.92431 0.72408 0.14163 0.0
C237 C 0.95342 0.75629 0.08222 0.0
H238 H 0.83341 0.71585 0.2022 0.0
C239 C 0.90944 0.80433 0.03491 0.0
H240 H 0.95682 0.68413 0.17728 0.0
C241 C 0.83796 0.82166 0.04832 0.0
C242 C 0.80901 0.7913 0.10936 0.0
H243 H 0.9302 0.82626 0.98609 0.0
H244 H 0.80519 0.86042 1.01235 0.0
C245 C 0.85371 0.7403 0.15431 0.0
C246 C 0.61693 0.7352 0.28988 0.0
C247 C 0.58748 0.79084 0.33055 0.0
H248 H 0.61992 0.63746 0.27276 0.0
C249 C 0.54051 0.78708 0.3905 0.0
H250 H 0.65281 0.7373 0.24284 0.0
C251 C 0.52123 0.72958 0.40752 0.0
C252 C 0.54806 0.67566 0.36428 0.0
H253 H 0.51596 0.83002 0.42165 0.0
H254 H 0.48274 0.72904 0.45243 0.0
C255 C 0.59745 0.67845 0.30639 0.0
loop_
_geom_bond_atom_site_label_1
_geom_bond_atom_site_label_2
_geom_bond_distance
_geom_bond_site_symmetry_2
_ccdc_geom_bond_type
C0 O16 1.251 . S
C0 O18 1.254 . S
N1 C2 1.333 . S
N1 C6 1.307 . S
N1 Zn7 2.020 . S
C2 N1 1.333 . S
C2 C3 1.379 . S
C2 H20 0.952 . S
C3 C2 1.379 . S
C3 C4 1.390 . S
C3 H30 0.949 . S
C4 C3 1.390 . S
C4 C5 1.357 . S
C5 C4 1.357 . S
C5 C6 1.370 . S
C5 H31 0.950 . S
C6 N1 1.307 . S
C6 C5 1.370 . S
C6 H24 0.948 . S
Zn7 N1 2.020 . S
Zn7 O16 2.039 . S
Zn7 O22 2.034 . S
Zn7 O26 2.025 . S
Zn7 O28 2.024 . S
C8 O27 1.246 . S
C8 O28 1.249 . S
N9 C10 1.307 . S
N9 C11 1.333 . S
N9 Zn15 2.020 . S
C10 N9 1.307 . S
C10 C14 1.370 . S
C10 H21 0.948 . S
C11 N9 1.333 . S
C11 C12 1.379 . S
C11 H19 0.952 . S
C12 C11 1.379 . S
C12 C13 1.390 . S
C12 H32 0.949 . S
C13 C12 1.390 . S
C13 C14 1.357 . S
C14 C10 1.370 . S
C14 C13 1.357 . S
C14 H33 0.950 . S
Zn15 N9 2.020 . S
Zn15 O18 2.025 . S
Zn15 O23 2.024 . S
Zn15 O25 2.039 . S
Zn15 O27 2.034 . S
O16 C0 1.251 . S
O16 Zn7 2.039 . S
C17 O22 1.246 . S
C17 O23 1.249 . S
O18 C0 1.254 . S
O18 Zn15 2.025 . S
H19 C11 0.952 . S
H20 C2 0.952 . S
H21 C10 0.948 . S
O22 Zn7 2.034 . S
O22 C17 1.246 . S
O23 Zn15 2.024 . S
O23 C17 1.249 . S
H24 C6 0.948 . S
O25 Zn15 2.039 . S
O25 C29 1.251 . S
O26 Zn7 2.025 . S
O26 C29 1.254 . S
O27 C8 1.246 . S
O27 Zn15 2.034 . S
O28 Zn7 2.024 . S
O28 C8 1.249 . S
C29 O25 1.251 . S
C29 O26 1.254 . S
H30 C3 0.949 . S
H31 C5 0.950 . S
H32 C12 0.949 . S
H33 C14 0.950 . S
C34 O50 1.251 . S
C34 O52 1.254 . S
N35 C36 1.333 . S
N35 C40 1.307 1_545 S
N35 Zn41 2.020 . S
C36 N35 1.333 . S
C36 C37 1.379 . S
C36 H54 0.952 . S
C37 C36 1.379 . S
C37 C38 1.390 1_545 S
C37 H64 0.949 . S
C38 C37 1.390 1_565 S
C38 C39 1.357 . S
C39 C38 1.357 . S
C39 C40 1.370 . S
C39 H65 0.950 . S
C40 N35 1.307 1_565 S
C40 C39 1.370 . S
C40 H58 0.948 . S
Zn41 N35 2.020 . S
Zn41 O50 2.039 . S
Zn41 O56 2.034 . S
Zn41 O60 2.025 . S
Zn41 O62 2.024 . S
C42 O61 1.246 . S
C42 O62 1.249 . S
N43 C44 1.307 . S
N43 C45 1.333 . S
N43 Zn49 2.020 . S
C44 N43 1.307 . S
C44 C48 1.370 . S
C44 H55 0.948 . S
C45 N43 1.333 . S
C45 C46 1.379 . S
C45 H53 0.952 . S
C46 C45 1.379 . S
C46 C47 1.390 . S
C46 H66 0.949 . S
C47 C46 1.390 . S
C47 C48 1.357 . S
C48 C44 1.370 . S
C48 C47 1.357 . S
C48 H67 0.950 . S
Zn49 N43 2.020 . S
Zn49 O52 2.025 . S
Zn49 O57 2.024 . S
Zn49 O59 2.039 . S
Zn49 O61 2.034 . S
O50 C34 1.251 . S
O50 Zn41 2.039 . S
C51 O56 1.246 . S
C51 O57 1.249 . S
O52 C34 1.254 . S
O52 Zn49 2.025 . S
H53 C45 0.952 . S
H54 C36 0.952 . S
H55 C44 0.948 . S
O56 Zn41 2.034 . S
O56 C51 1.246 . S
O57 Zn49 2.024 . S
O57 C51 1.249 . S
H58 C40 0.948 . S
O59 Zn49 2.039 . S
O59 C63 1.251 . S
O60 Zn41 2.025 . S
O60 C63 1.254 . S
O61 C42 1.246 . S
O61 Zn49 2.034 . S
O62 Zn41 2.024 . S
O62 C42 1.249 . S
C63 O59 1.251 . S
C63 O60 1.254 . S
H64 C37 0.949 . S
H65 C39 0.950 . S
H66 C46 0.949 . S
H67 C48 0.950 . S
C68 O84 1.251 1_554 S
C68 O86 1.254 1_554 S
N69 C70 1.333 1_556 S
N69 C74 1.307 . S
N69 Zn75 2.020 . S
C70 N69 1.333 1_554 S
C70 C71 1.379 . S
C70 H88 0.952 . S
C71 C70 1.379 . S
C71 C72 1.390 1_554 S
C71 H98 0.949 . S
C72 C71 1.390 1_556 S
C72 C73 1.357 . S
C73 C72 1.357 . S
C73 C74 1.370 . S
C73 H99 0.950 . S
C74 N69 1.307 . S
C74 C73 1.370 . S
C74 H92 0.948 . S
Zn75 N69 2.020 . S
Zn75 O84 2.039 . S
Zn75 O90 2.027 1_556 S
Zn75 O94 2.025 . S
Zn75 O96 2.024 . S
C76 O95 1.246 . S
C76 O96 1.249 . S
N77 C78 1.307 . S
N77 C79 1.333 . S
N77 Zn83 2.020 . S
C78 N77 1.307 . S
C78 C82 1.370 1_455 S
C78 H89 0.948 . S
C79 N77 1.333 . S
C79 C80 1.379 1_455 S
C79 H87 0.952 . S
C80 C79 1.379 1_655 S
C80 C81 1.390 . S
C80 H100 0.949 . S
C81 C80 1.390 . S
C81 C82 1.357 . S
C82 C78 1.370 1_655 S
C82 C81 1.357 . S
C82 H101 0.950 . S
Zn83 N77 2.020 . S
Zn83 O86 2.025 . S
Zn83 O91 2.024 . S
Zn83 O93 2.039 . S
Zn83 O95 2.034 . S
O84 C68 1.251 1_556 S
O84 Zn75 2.039 . S
C85 O90 1.245 . S
C85 O91 1.249 1_554 S
O86 C68 1.254 1_556 S
O86 Zn83 2.025 . S
H87 C79 0.952 . S
H88 C70 0.952 . S
H89 C78 0.948 . S
O90 Zn75 2.027 1_554 S
O90 C85 1.245 . S
O91 Zn83 2.024 . S
O91 C85 1.249 1_556 S
H92 C74 0.948 . S
O93 Zn83 2.039 . S
O93 C97 1.251 . S
O94 Zn75 2.025 . S
O94 C97 1.254 . S
O95 C76 1.246 . S
O95 Zn83 2.034 . S
O96 Zn75 2.024 . S
O96 C76 1.249 . S
C97 O93 1.251 . S
C97 O94 1.254 . S
H98 C71 0.949 . S
H99 C73 0.950 . S
H100 C80 0.949 . S
H101 C82 0.950 . S
C102 O118 1.251 . S
C102 O120 1.254 . S
N103 C104 1.333 1_565 S
N103 C108 1.307 . S
N103 Zn109 2.020 . S
C104 N103 1.333 1_545 S
C104 C105 1.379 . S
C104 H122 0.952 . S
C105 C104 1.379 . S
C105 C106 1.390 1_545 S
C105 H132 0.949 . S
C106 C105 1.390 1_565 S
C106 C107 1.357 . S
C107 C106 1.357 . S
C107 C108 1.370 . S
C107 H133 0.950 . S
C108 N103 1.307 . S
C108 C107 1.370 . S
C108 H126 0.948 . S
Zn109 N103 2.020 . S
Zn109 O118 2.039 1_565 S
Zn109 O124 2.034 1_565 S
Zn109 O128 2.025 . S
Zn109 O130 2.024 . S
C110 O129 1.246 . S
C110 O130 1.249 . S
N111 C112 1.307 . S
N111 C113 1.333 . S
N111 Zn117 2.020 . S
C112 N111 1.307 . S
C112 C116 1.370 1_554 S
C112 H123 0.948 1_565 S
C113 N111 1.333 . S
C113 C114 1.379 1_554 S
C113 H121 0.952 . S
C114 C113 1.379 1_556 S
C114 C115 1.390 . S
C114 H134 0.949 . S
C115 C114 1.390 . S
C115 C116 1.357 . S
C116 C112 1.370 1_556 S
C116 C115 1.357 . S
C116 H135 0.950 . S
Zn117 N111 2.020 . S
Zn117 O120 2.025 1_565 S
Zn117 O125 2.024 . S
Zn117 O127 2.039 . S
Zn117 O129 2.034 . S
O118 C102 1.251 . S
O118 Zn109 2.039 1_545 S
C119 O124 1.246 . S
C119 O125 1.249 1_545 S
O120 C102 1.254 . S
O120 Zn117 2.025 1_545 S
H121 C113 0.952 . S
H122 C104 0.952 . S
H123 C112 0.948 1_545 S
O124 Zn109 2.034 1_545 S
O124 C119 1.246 . S
O125 Zn117 2.024 . S
O125 C119 1.249 1_565 S
H126 C108 0.948 . S
O127 Zn117 2.039 . S
O127 C131 1.251 . S
O128 Zn109 2.025 . S
O128 C131 1.254 . S
O129 C110 1.246 . S
O129 Zn117 2.034 . S
O130 Zn109 2.024 . S
O130 C110 1.249 . S
C131 O127 1.251 . S
C131 O128 1.254 . S
H132 C105 0.949 . S
H133 C107 0.950 . S
H134 C114 0.949 . S
H135 C116 0.950 . S
C136 C137 1.387 . S
C136 H140 0.950 . S
C136 C145 1.390 . S
C137 C136 1.387 . S
C137 C139 1.387 . S
H138 C145 0.950 . S
C139 C137 1.387 . S
C139 C141 1.390 . S
C139 H143 0.950 . S
H140 C136 0.950 . S
C141 C139 1.390 . S
C141 C142 1.387 . S
C141 H144 0.950 . S
C142 C141 1.387 . S
C142 C145 1.387 . S
H143 C139 0.950 . S
H144 C141 0.950 . S
C145 C136 1.390 . S
C145 H138 0.950 . S
C145 C142 1.387 . S
C146 C147 1.387 1_545 S
C146 H150 0.950 . S
C146 C155 1.390 . S
C147 C146 1.387 1_565 S
C147 C149 1.387 . S
H148 C155 0.950 . S
C149 C147 1.387 . S
C149 C151 1.390 . S
C149 H153 0.950 . S
H150 C146 0.950 . S
C151 C149 1.390 . S
C151 C152 1.387 . S
C151 H154 0.950 . S
C152 C151 1.387 . S
C152 C155 1.387 1_565 S
H153 C149 0.950 . S
H154 C151 0.950 . S
C155 C146 1.390 . S
C155 H148 0.950 . S
C155 C152 1.387 1_545 S
C156 C157 1.387 . S
C156 H160 0.950 . S
C156 C165 1.390 . S
C157 C156 1.387 . S
C157 C159 1.387 . S
H158 C165 0.950 . S
C159 C157 1.387 . S
C159 C161 1.390 . S
C159 H163 0.950 . S
H160 C156 0.950 . S
C161 C159 1.390 . S
C161 C162 1.387 . S
C161 H164 0.950 . S
C162 C161 1.387 . S
C162 C165 1.387 . S
H163 C159 0.950 . S
H164 C161 0.950 . S
C165 C156 1.390 . S
C165 H158 0.950 . S
C165 C162 1.387 . S
C166 C167 1.387 1_565 S
C166 H170 0.950 . S
C166 C175 1.390 1_565 S
C167 C166 1.387 1_545 S
C167 C169 1.387 . S
H168 C175 0.950 1_565 S
C169 C167 1.387 . S
C169 C171 1.390 . S
C169 H173 0.950 . S
H170 C166 0.950 . S
C171 C169 1.390 . S
C171 C172 1.387 . S
C171 H174 0.950 . S
C172 C171 1.387 . S
C172 C175 1.387 . S
H173 C169 0.950 . S
H174 C171 0.950 . S
C175 C166 1.390 1_545 S
C175 H168 0.950 1_545 S
C175 C172 1.387 . S
C176 C177 1.387 . S
C176 H180 0.950 . S
C176 C185 1.390 . S
C177 C176 1.387 . S
C177 C179 1.387 . S
H178 C185 0.950 . S
C179 C177 1.387 . S
C179 C181 1.390 . S
C179 H183 0.950 . S
H180 C176 0.950 . S
C181 C179 1.390 . S
C181 C182 1.387 . S
C181 H184 0.950 . S
C182 C181 1.387 . S
C182 C185 1.387 . S
H183 C179 0.950 . S
H184 C181 0.950 . S
C185 C176 1.390 . S
C185 H178 0.950 . S
C185 C182 1.387 . S
C186 C187 1.387 . S
C186 H190 0.950 . S
C186 C195 1.390 . S
C187 C186 1.387 . S
C187 C189 1.387 . S
H188 C195 0.950 . S
C189 C187 1.387 . S
C189 C191 1.390 1_455 S
C189 H193 0.950 . S
H190 C186 0.950 . S
C191 C189 1.390 1_655 S
C191 C192 1.387 . S
C191 H194 0.950 . S
C192 C191 1.387 . S
C192 C195 1.387 1_655 S
H193 C189 0.950 . S
H194 C191 0.950 . S
C195 C186 1.390 . S
C195 H188 0.950 . S
C195 C192 1.387 1_455 S
C196 C197 1.387 1_554 S
C196 H200 0.950 . S
C196 C205 1.390 1_554 S
C197 C196 1.387 1_556 S
C197 C199 1.387 . S
H198 C205 0.950 1_554 S
C199 C197 1.387 . S
C199 C201 1.390 . S
C199 H203 0.950 . S
H200 C196 0.950 . S
C201 C199 1.390 . S
C201 C202 1.387 . S
C201 H204 0.950 . S
C202 C201 1.387 . S
C202 C205 1.387 . S
H203 C199 0.950 . S
H204 C201 0.950 . S
C205 C196 1.390 1_556 S
C205 H198 0.950 1_556 S
C205 C202 1.387 . S
C206 C207 1.387 . S
C206 H210 0.950 . S
C206 C215 1.390 . S
C207 C206 1.387 . S
C207 C209 1.387 . S
H208 C215 0.950 . S
C209 C207 1.387 . S
C209 C211 1.390 . S
C209 H213 0.950 . S
H210 C206 0.950 . S
C211 C209 1.390 . S
C211 C212 1.387 . S
C211 H214 0.950 . S
C212 C211 1.387 . S
C212 C215 1.387 . S
H213 C209 0.950 . S
H214 C211 0.950 . S
C215 C206 1.390 . S
C215 H208 0.950 . S
C215 C212 1.387 . S
C216 C217 1.387 . S
C216 H220 0.950 . S
C216 C225 1.390 . S
C217 C216 1.387 . S
C217 C219 1.387 . S
H218 C225 0.950 . S
C219 C217 1.387 . S
C219 C221 1.390 . S
C219 H223 0.950 . S
H220 C216 0.950 . S
C221 C219 1.390 . S
C221 C222 1.387 . S
C221 H224 0.950 . S
C222 C221 1.387 . S
C222 C225 1.387 . S
H223 C219 0.950 . S
H224 C221 0.950 . S
C225 C216 1.390 . S
C225 H218 0.950 . S
C225 C222 1.387 . S
C226 C227 1.387 . S
C226 H230 0.950 . S
C226 C235 1.390 . S
C227 C226 1.387 . S
C227 C229 1.387 . S
H228 C235 0.950 . S
C229 C227 1.387 . S
C229 C231 1.390 . S
C229 H233 0.950 . S
H230 C226 0.950 . S
C231 C229 1.390 . S
C231 C232 1.387 . S
C231 H234 0.950 1_556 S
C232 C231 1.387 . S
C232 C235 1.387 . S
H233 C229 0.950 . S
H234 C231 0.950 1_554 S
C235 C226 1.390 . S
C235 H228 0.950 . S
C235 C232 1.387 . S
C236 C237 1.387 . S
C236 H240 0.950 . S
C236 C245 1.390 . S
C237 C236 1.387 . S
C237 C239 1.387 1_554 S
H238 C245 0.950 . S
C239 C237 1.387 1_556 S
C239 C241 1.390 . S
C239 H243 0.950 . S
H240 C236 0.950 . S
C241 C239 1.390 . S
C241 C242 1.387 1_556 S
C241 H244 0.950 . S
C242 C241 1.387 1_554 S
C242 C245 1.387 . S
H243 C239 0.950 . S
H244 C241 0.950 . S
C245 C236 1.390 . S
C245 H238 0.950 . S
C245 C242 1.387 . S
C246 C247 1.387 . S
C246 H250 0.950 . S
C246 C255 1.390 . S
C247 C246 1.387 . S
C247 C249 1.387 . S
H248 C255 0.950 . S
C249 C247 1.387 . S
C249 C251 1.390 . S
C249 H253 0.950 . S
H250 C246 0.950 . S
C251 C249 1.390 . S
C251 C252 1.387 . S
C251 H254 0.950 . S
C252 C251 1.387 . S
C252 C255 1.387 . S
H253 C249 0.950 . S
H254 C251 0.950 . S
C255 C246 1.390 . S
C255 H248 0.950 . S
C255 C252 1.387 . S
C137 C68 2.463 . S
C142 C0 2.495 . S
C147 C106 1.118 . S
C152 C38 1.118 . S
C157 C76 2.407 . S
C162 C8 2.433 . S
C167 C119 0.972 1_556 S
C172 C51 0.972 . S
C177 C42 1.778 1_455 S
C182 C13 1.808 . S
C187 C97 1.203 . S
C192 C63 1.216 1_565 S
C197 C72 1.239 . S
C202 C115 1.141 . S
C207 C17 2.226 . S
C212 C102 2.164 . S
C217 C34 2.172 . S
C222 C29 2.246 . S
C227 C81 1.280 . S
C232 C47 1.201 . S
C237 C85 1.196 1_655 S
C242 C131 1.199 . S
C247 C110 1.704 . S
C252 C4 1.775 . S
