# Generated by pormake.
# Topology bcu, (8)-cn, num edge types: 1
# Building blocks:
#     Node 0, Type 0, BuildingBlock: TAGTUT_clean_sbu_1, # of connection points: 8
#     Node 1, Type 0, BuildingBlock: TAGTUT_clean_sbu_1, # of connection points: 8
#     Edge 2, Type (0, 0), BuildingBlock: XIVTED_clean_linker_0, # of connection points: 2
#     Edge 3, Type (0, 0), BuildingBlock: XIVTED_clean_linker_0, # of connection points: 2
#     Edge 4, Type (0, 0), BuildingBlock: XIVTED_clean_linker_0, # of connection points: 2
#     Edge 5, Type (0, 0), BuildingBlock: XIVTED_clean_linker_0, # of connection points: 2
#     Edge 6, Type (0, 0), BuildingBlock: XIVTED_clean_linker_0, # of connection points: 2
#     Edge 7, Type (0, 0), BuildingBlock: XIVTED_clean_linker_0, # of connection points: 2
#     Edge 8, Type (0, 0), BuildingBlock: XIVTED_clean_linker_0, # of connection points: 2
#     Edge 9, Type (0, 0), BuildingBlock: XIVTED_clean_linker_0, # of connection points: 2
# Relax obj value: 0.017
# Max RMSD: 0.077
# Mean RMSD: 0.077
data_MOF--net-bcu--node1-TAGTUT_clean_sbu_1--edge1-XIVTED_clean_linker_0
_symmetry_space_group_name_H-M    P1
_symmetry_Int_Tables_number       1
_symmetry_cell_setting            triclinic
loop_
_symmetry_equiv_pos_as_xyz
'x, y, z'
_cell_length_a     19.513121
_cell_length_b     18.766871
_cell_length_c     22.799174
_cell_angle_alpha  91.451617
_cell_angle_beta   91.338787
_cell_angle_gamma 107.80507
loop_
_atom_site_label
_atom_site_type_symbol
_atom_site_fract_x
_atom_site_fract_y
_atom_site_fract_z
_atom_type_partial_charge
C0 C 0.85831 0.15228 0.01853 0.0
C1 C 0.91397 0.13359 0.83819 0.0
C2 C 0.89657 0.84662 0.88831 0.0
Mg3 Mg 0.99938 0.15817 -0.04448 0.0
O4 O 0.96252 0.05675 -0.02698 0.0
Mg5 Mg 0.86539 -0.00028 0.93957 0.0
Mg6 Mg 0.01827 -0.01175 -0.04796 0.0
O7 O 0.07395 0.91973 0.93105 0.0
Mg8 Mg 0.03713 0.81815 0.94793 0.0
Mg9 Mg 0.17107 0.97659 -0.03545 0.0
C10 C 0.13985 0.12983 0.01559 0.0
C11 C 0.138 0.07116 0.85727 0.0
O12 O 0.8269 0.08679 -0.00504 0.0
O13 O 0.9239 0.18908 0.00897 0.0
O14 O 0.87547 0.07271 0.85956 0.0
O15 O 0.97051 0.17535 0.86554 0.0
O16 O 0.10712 0.17453 -0.00497 0.0
O17 O 0.11425 0.05821 0.00836 0.0
C18 C 0.89841 0.9049 0.04665 0.0
O19 O 0.96381 0.9167 0.03123 0.0
O20 O 0.85489 0.9305 0.01803 0.0
O21 O 0.20975 0.88986 0.9092 0.0
O22 O 0.11272 0.78787 0.89417 0.0
O23 O 0.161 0.90311 0.04443 0.0
C24 C 0.17842 0.82472 0.88507 0.0
O25 O 0.06603 0.80044 0.03773 0.0
O26 O 0.9293 0.80177 0.90858 0.0
C27 C 0.12252 0.84188 0.06535 0.0
O28 O 0.92232 0.91819 0.89581 0.0
O29 O 0.07267 0.05966 0.87275 0.0
O30 O 0.18157 0.04569 0.88595 0.0
C31 C 0.35781 0.65082 0.51882 0.0
C32 C 0.41387 0.63348 0.3386 0.0
C33 C 0.39658 0.34588 0.38848 0.0
Mg34 Mg 0.49918 0.65741 0.45605 0.0
O35 O 0.46247 0.5559 0.47308 0.0
Mg36 Mg 0.36536 0.49892 0.43951 0.0
Mg37 Mg 0.51829 0.48746 0.45214 0.0
O38 O 0.5739 0.41889 0.43113 0.0
Mg39 Mg 0.53692 0.31738 0.44848 0.0
Mg40 Mg 0.67102 0.47577 0.46456 0.0
C41 C 0.63982 0.62907 0.51582 0.0
C42 C 0.63817 0.57079 0.35756 0.0
O43 O 0.32653 0.58563 0.49473 0.0
O44 O 0.42351 0.68769 0.50971 0.0
O45 O 0.37539 0.57228 0.35956 0.0
O46 O 0.47035 0.67495 0.3662 0.0
O47 O 0.60696 0.67375 0.49543 0.0
O48 O 0.6143 0.55745 0.50849 0.0
C49 C 0.39849 0.40452 0.54687 0.0
O50 O 0.46383 0.41605 0.53141 0.0
O51 O 0.3549 0.42992 0.51816 0.0
O52 O 0.7094 0.38869 0.40907 0.0
O53 O 0.61235 0.28647 0.39498 0.0
O54 O 0.66083 0.40264 0.54451 0.0
C55 C 0.67795 0.32324 0.38546 0.0
O56 O 0.56578 0.30002 0.53842 0.0
O57 O 0.42915 0.30099 0.40894 0.0
C58 C 0.62231 0.34173 0.56582 0.0
O59 O 0.42241 0.41745 0.39589 0.0
O60 O 0.57277 0.55902 0.37296 0.0
O61 O 0.68164 0.54512 0.38617 0.0
H62 H 0.18872 0.05357 0.09972 0.0
H63 H 0.34842 0.42256 0.30423 0.0
H64 H 0.21103 0.27715 0.04275 0.0
H65 H 0.32463 0.19877 0.36142 0.0
H66 H 0.29288 0.36984 0.20953 0.0
H67 H 0.24422 0.10643 0.19438 0.0
C68 C 0.20701 0.11388 0.1064 0.0
C69 C 0.19393 0.16088 0.06345 0.0
C70 C 0.29914 0.33222 0.24305 0.0
C71 C 0.2554 0.22151 0.17245 0.0
C72 C 0.32977 0.36224 0.2976 0.0
C73 C 0.34245 0.31511 0.34061 0.0
C74 C 0.28097 0.25465 0.23158 0.0
C75 C 0.31697 0.23736 0.32927 0.0
C76 C 0.23763 0.14398 0.16093 0.0
C77 C 0.219 0.23864 0.07485 0.0
N78 N 0.28844 0.20963 0.27554 0.0
N79 N 0.24754 0.26645 0.12856 0.0
H80 H 0.89606 0.29498 0.06539 0.0
H81 H 0.64018 0.18056 0.33856 0.0
H82 H 0.74336 0.0754 0.08276 0.0
H83 H 0.7929 0.40013 0.32122 0.0
H84 H 0.67976 0.14014 0.24641 0.0
H85 H 0.85647 0.3354 0.15754 0.0
C86 C 0.85324 0.25555 0.08804 0.0
C87 C 0.8232 0.18148 0.0663 0.0
C88 C 0.70511 0.19697 0.26296 0.0
C89 C 0.7787 0.22718 0.17276 0.0
C90 C 0.683 0.21998 0.31592 0.0
C91 C 0.71305 0.29405 0.33767 0.0
C92 C 0.75754 0.24837 0.2312 0.0
C93 C 0.76842 0.34246 0.30637 0.0
C94 C 0.83112 0.27858 0.141 0.0
C95 C 0.76784 0.13308 0.0976 0.0
N96 N 0.78838 0.31895 0.25442 0.0
N97 N 0.74787 0.15659 0.14955 0.0
H98 H 0.93492 0.78653 0.09359 0.0
H99 H 0.60169 0.6892 0.31064 0.0
H100 H 0.79213 0.92068 0.11467 0.0
H101 H 0.74453 0.55508 0.2896 0.0
H102 H 0.6689 0.77356 0.23659 0.0
H103 H 0.86775 0.70219 0.16767 0.0
C104 C 0.89042 0.79889 0.1145 0.0
C105 C 0.86873 0.86014 0.09771 0.0
C106 C 0.68515 0.72531 0.24803 0.0
C107 C 0.79088 0.76383 0.18115 0.0
C108 C 0.64622 0.67685 0.28974 0.0
C109 C 0.6679 0.61559 0.30653 0.0
C110 C 0.74579 0.71194 0.22313 0.0
C111 C 0.72653 0.60237 0.27846 0.0
C112 C 0.8515 0.75045 0.15623 0.0
C113 C 0.81013 0.87339 0.12581 0.0
N114 N 0.7636 0.65029 0.23853 0.0
N115 N 0.77307 0.82549 0.16575 0.0
H116 H 0.08861 0.69637 0.10049 0.0
H117 H 0.44783 0.77893 0.30332 0.0
H118 H 0.23356 0.91812 0.14052 0.0
H119 H 0.30277 0.55718 0.26348 0.0
H120 H 0.37245 0.83064 0.24078 0.0
H121 H 0.16399 0.64462 0.16301 0.0
C122 C 0.13518 0.73441 0.12353 0.0
C123 C 0.15487 0.81176 0.11477 0.0
C124 C 0.35752 0.77058 0.24527 0.0
C125 C 0.2428 0.7526 0.18507 0.0
C126 C 0.40124 0.74088 0.28032 0.0
C127 C 0.38152 0.66354 0.28914 0.0
C128 C 0.2936 0.72267 0.21881 0.0
C129 C 0.31995 0.61722 0.25844 0.0
C130 C 0.1789 0.70469 0.15856 0.0
C131 C 0.21642 0.85807 0.14551 0.0
N132 N 0.27789 0.6475 0.22523 0.0
N133 N 0.25847 0.82777 0.1787 0.0
H134 H 0.29789 0.9011 0.8254 0.0
H135 H 0.23832 0.57444 0.57846 0.0
H136 H 0.13752 0.68433 0.83348 0.0
H137 H 0.39866 0.79124 0.57035 0.0
H138 H 0.19801 0.6151 0.67053 0.0
H139 H 0.33817 0.86046 0.7333 0.0
C140 C 0.27215 0.84446 0.80858 0.0
C141 C 0.21396 0.79624 0.83719 0.0
C142 C 0.24161 0.65398 0.6483 0.0
C143 C 0.25855 0.75004 0.73095 0.0
C144 C 0.26404 0.6311 0.59527 0.0
C145 C 0.32223 0.67931 0.56666 0.0
C146 C 0.27761 0.72554 0.67288 0.0
C147 C 0.3539 0.7519 0.59101 0.0
C148 C 0.29456 0.82159 0.75553 0.0
C149 C 0.18227 0.72367 0.81282 0.0
N150 N 0.33159 0.77254 0.64288 0.0
N151 N 0.20457 0.70304 0.76094 0.0
H152 H 0.30149 0.4302 0.62013 0.0
H153 H 0.23499 0.04548 0.784 0.0
H154 H 0.4257 0.27897 0.58948 0.0
H155 H 0.11083 0.19676 0.81472 0.0
H156 H 0.30293 0.12856 0.71113 0.0
H157 H 0.23355 0.34713 0.69301 0.0
C158 C 0.31513 0.37972 0.62945 0.0
C159 C 0.36915 0.36113 0.59856 0.0
C160 C 0.26059 0.14358 0.73332 0.0
C161 C 0.29032 0.26488 0.68147 0.0
C162 C 0.22136 0.09597 0.7747 0.0
C163 C 0.16736 0.11456 0.8056 0.0
C164 C 0.2462 0.21084 0.7227 0.0
C165 C 0.15165 0.18019 0.79161 0.0
C166 C 0.27591 0.33212 0.67084 0.0
C167 C 0.38487 0.29552 0.61258 0.0
N168 N 0.19149 0.22648 0.75144 0.0
N169 N 0.34503 0.24924 0.65275 0.0
H170 H 0.80905 0.05444 0.75924 0.0
H171 H 0.7271 0.4208 0.64487 0.0
H172 H 0.94085 0.27964 0.80645 0.0
H173 H 0.59547 0.19562 0.59741 0.0
H174 H 0.80331 0.37012 0.70694 0.0
H175 H 0.73282 0.10508 0.69717 0.0
C176 C 0.823 0.11461 0.75553 0.0
C177 C 0.88144 0.16283 0.78846 0.0
C178 C 0.75734 0.33172 0.6835 0.0
C179 C 0.79281 0.22132 0.71846 0.0
C180 C 0.71318 0.36062 0.64852 0.0
C181 C 0.6548 0.31242 0.61553 0.0
C182 C 0.74341 0.2539 0.68552 0.0
C183 C 0.63957 0.23498 0.62214 0.0
C184 C 0.77883 0.1435 0.72055 0.0
C185 C 0.8967 0.24026 0.78177 0.0
N186 N 0.6841 0.20814 0.65582 0.0
N187 N 0.85216 0.26708 0.7481 0.0
H188 H 0.68794 0.55296 0.60051 0.0
H189 H 0.84908 0.92312 0.80354 0.0
H190 H 0.71177 0.77634 0.54235 0.0
H191 H 0.82386 0.69956 0.8619 0.0
H192 H 0.79352 0.86994 0.70895 0.0
H193 H 0.74341 0.60627 0.69508 0.0
C194 C 0.70658 0.6133 0.60691 0.0
C195 C 0.69394 0.66015 0.56365 0.0
C196 C 0.79946 0.83248 0.74269 0.0
C197 C 0.75535 0.72131 0.67254 0.0
C198 C 0.83009 0.86277 0.79719 0.0
C199 C 0.84237 0.81581 0.8405 0.0
C200 C 0.7809 0.7548 0.73159 0.0
C201 C 0.8165 0.73801 0.8295 0.0
C202 C 0.73717 0.64367 0.66139 0.0
C203 C 0.71941 0.73796 0.5747 0.0
N204 N 0.78799 0.71 0.77583 0.0
N205 N 0.74791 0.76604 0.62837 0.0
loop_
_geom_bond_atom_site_label_1
_geom_bond_atom_site_label_2
_geom_bond_distance
_geom_bond_site_symmetry_2
_ccdc_geom_bond_type
C0 O12 1.241 . S
C0 O13 1.280 . S
C1 O14 1.277 . S
C1 O15 1.245 . S
C2 O26 1.247 . S
C2 O28 1.289 . S
Mg3 O4 1.926 . S
Mg3 O13 1.984 . S
Mg3 O15 1.988 1_554 S
Mg3 O16 2.061 1_655 S
O4 Mg3 1.926 . S
O4 Mg5 1.986 1_554 S
O4 Mg6 1.917 1_655 S
Mg5 O4 1.986 1_556 S
Mg5 O12 2.042 1_556 S
Mg5 O14 2.041 . S
Mg5 O20 2.038 1_546 S
Mg5 O28 2.238 1_545 S
Mg6 O4 1.917 1_455 S
Mg6 O7 1.917 1_544 S
Mg6 O17 2.106 . S
Mg6 O19 2.079 1_445 S
Mg6 O28 2.106 1_444 S
Mg6 O29 2.079 1_554 S
O7 Mg6 1.917 1_566 S
O7 Mg8 1.926 . S
O7 Mg9 1.986 1_556 S
Mg8 O7 1.926 . S
Mg8 O22 1.984 . S
Mg8 O25 1.988 1_556 S
Mg8 O26 2.061 1_455 S
Mg9 O7 1.986 1_554 S
Mg9 O17 2.238 1_565 S
Mg9 O21 2.042 1_554 S
Mg9 O23 2.041 . S
Mg9 O30 2.038 1_564 S
C10 O16 1.247 . S
C10 O17 1.289 . S
C11 O29 1.245 . S
C11 O30 1.274 . S
O12 C0 1.241 . S
O12 Mg5 2.042 1_554 S
O13 C0 1.280 . S
O13 Mg3 1.984 . S
O14 C1 1.277 . S
O14 Mg5 2.041 . S
O15 C1 1.245 . S
O15 Mg3 1.988 1_556 S
O16 Mg3 2.061 1_455 S
O16 C10 1.247 . S
O17 Mg6 2.106 . S
O17 Mg9 2.238 1_545 S
O17 C10 1.289 . S
C18 O19 1.245 . S
C18 O20 1.274 . S
O19 Mg6 2.079 1_665 S
O19 C18 1.245 . S
O20 Mg5 2.038 1_564 S
O20 C18 1.274 . S
O21 Mg9 2.042 1_556 S
O21 C24 1.241 . S
O22 Mg8 1.984 . S
O22 C24 1.280 . S
O23 Mg9 2.041 . S
O23 C27 1.277 . S
C24 O21 1.241 . S
C24 O22 1.280 . S
O25 Mg8 1.988 1_554 S
O25 C27 1.245 . S
O26 C2 1.247 . S
O26 Mg8 2.061 1_655 S
C27 O23 1.277 . S
C27 O25 1.245 . S
O28 C2 1.289 . S
O28 Mg5 2.238 1_565 S
O28 Mg6 2.106 1_666 S
O29 Mg6 2.079 1_556 S
O29 C11 1.245 . S
O30 Mg9 2.038 1_546 S
O30 C11 1.274 . S
C31 O43 1.241 . S
C31 O44 1.280 . S
C32 O45 1.277 . S
C32 O46 1.245 . S
C33 O57 1.247 . S
C33 O59 1.289 . S
Mg34 O35 1.926 . S
Mg34 O44 1.984 . S
Mg34 O46 1.988 . S
Mg34 O47 2.061 . S
O35 Mg34 1.926 . S
O35 Mg36 1.986 . S
O35 Mg37 1.917 . S
Mg36 O35 1.986 . S
Mg36 O43 2.042 . S
Mg36 O45 2.041 . S
Mg36 O51 2.038 . S
Mg36 O59 2.238 . S
Mg37 O35 1.917 . S
Mg37 O38 1.917 . S
Mg37 O48 2.106 . S
Mg37 O50 2.079 . S
Mg37 O59 2.106 . S
Mg37 O60 2.079 . S
O38 Mg37 1.917 . S
O38 Mg39 1.926 . S
O38 Mg40 1.986 . S
Mg39 O38 1.926 . S
Mg39 O53 1.984 . S
Mg39 O56 1.988 . S
Mg39 O57 2.061 . S
Mg40 O38 1.986 . S
Mg40 O48 2.238 . S
Mg40 O52 2.042 . S
Mg40 O54 2.041 . S
Mg40 O61 2.038 . S
C41 O47 1.247 . S
C41 O48 1.289 . S
C42 O60 1.245 . S
C42 O61 1.274 . S
O43 C31 1.241 . S
O43 Mg36 2.042 . S
O44 C31 1.280 . S
O44 Mg34 1.984 . S
O45 C32 1.277 . S
O45 Mg36 2.041 . S
O46 C32 1.245 . S
O46 Mg34 1.988 . S
O47 Mg34 2.061 . S
O47 C41 1.247 . S
O48 Mg37 2.106 . S
O48 Mg40 2.238 . S
O48 C41 1.289 . S
C49 O50 1.245 . S
C49 O51 1.274 . S
O50 Mg37 2.079 . S
O50 C49 1.245 . S
O51 Mg36 2.038 . S
O51 C49 1.274 . S
O52 Mg40 2.042 . S
O52 C55 1.241 . S
O53 Mg39 1.984 . S
O53 C55 1.280 . S
O54 Mg40 2.041 . S
O54 C58 1.277 . S
C55 O52 1.241 . S
C55 O53 1.280 . S
O56 Mg39 1.988 . S
O56 C58 1.245 . S
O57 C33 1.247 . S
O57 Mg39 2.061 . S
C58 O54 1.277 . S
C58 O56 1.245 . S
O59 C33 1.289 . S
O59 Mg36 2.238 . S
O59 Mg37 2.106 . S
O60 Mg37 2.079 . S
O60 C42 1.245 . S
O61 Mg40 2.038 . S
O61 C42 1.274 . S
H62 C68 0.930 . S
H63 C72 0.930 . S
H64 C77 0.929 . S
H65 C75 0.929 . S
H66 C70 0.929 . S
H67 C76 0.929 . S
C68 H62 0.930 . S
C68 C69 1.367 . S
C68 C76 1.378 . S
C69 C68 1.367 . S
C69 C77 1.433 . S
C70 H66 0.929 . S
C70 C72 1.378 . S
C70 C74 1.350 . S
C71 C74 1.463 . S
C71 C76 1.350 . S
C71 N79 1.427 . S
C72 H63 0.930 . S
C72 C70 1.378 . S
C72 C73 1.367 . S
C73 C72 1.367 . S
C73 C75 1.433 . S
C74 C70 1.350 . S
C74 C71 1.463 . S
C74 N78 1.427 . S
C75 H65 0.929 . S
C75 C73 1.433 . S
C75 N78 1.384 . S
C76 H67 0.929 . S
C76 C68 1.378 . S
C76 C71 1.350 . S
C77 H64 0.929 . S
C77 C69 1.433 . S
C77 N79 1.384 . S
N78 C74 1.427 . S
N78 C75 1.384 . S
N79 C71 1.427 . S
N79 C77 1.384 . S
H80 C86 0.930 . S
H81 C90 0.930 . S
H82 C95 0.929 . S
H83 C93 0.929 . S
H84 C88 0.929 . S
H85 C94 0.929 . S
C86 H80 0.930 . S
C86 C87 1.367 . S
C86 C94 1.378 . S
C87 C86 1.367 . S
C87 C95 1.433 . S
C88 H84 0.929 . S
C88 C90 1.378 . S
C88 C92 1.350 . S
C89 C92 1.463 . S
C89 C94 1.350 . S
C89 N97 1.427 . S
C90 H81 0.930 . S
C90 C88 1.378 . S
C90 C91 1.367 . S
C91 C90 1.367 . S
C91 C93 1.433 . S
C92 C88 1.350 . S
C92 C89 1.463 . S
C92 N96 1.427 . S
C93 H83 0.929 . S
C93 C91 1.433 . S
C93 N96 1.384 . S
C94 H85 0.929 . S
C94 C86 1.378 . S
C94 C89 1.350 . S
C95 H82 0.929 . S
C95 C87 1.433 . S
C95 N97 1.384 . S
N96 C92 1.427 . S
N96 C93 1.384 . S
N97 C89 1.427 . S
N97 C95 1.384 . S
H98 C104 0.930 . S
H99 C108 0.930 . S
H100 C113 0.929 . S
H101 C111 0.929 . S
H102 C106 0.929 . S
H103 C112 0.929 . S
C104 H98 0.930 . S
C104 C105 1.367 . S
C104 C112 1.378 . S
C105 C104 1.367 . S
C105 C113 1.433 . S
C106 H102 0.929 . S
C106 C108 1.378 . S
C106 C110 1.350 . S
C107 C110 1.463 . S
C107 C112 1.350 . S
C107 N115 1.427 . S
C108 H99 0.930 . S
C108 C106 1.378 . S
C108 C109 1.367 . S
C109 C108 1.367 . S
C109 C111 1.433 . S
C110 C106 1.350 . S
C110 C107 1.463 . S
C110 N114 1.427 . S
C111 H101 0.929 . S
C111 C109 1.433 . S
C111 N114 1.384 . S
C112 H103 0.929 . S
C112 C104 1.378 . S
C112 C107 1.350 . S
C113 H100 0.929 . S
C113 C105 1.433 . S
C113 N115 1.384 . S
N114 C110 1.427 . S
N114 C111 1.384 . S
N115 C107 1.427 . S
N115 C113 1.384 . S
H116 C122 0.930 . S
H117 C126 0.930 . S
H118 C131 0.929 . S
H119 C129 0.929 . S
H120 C124 0.929 . S
H121 C130 0.929 . S
C122 H116 0.930 . S
C122 C123 1.367 . S
C122 C130 1.378 . S
C123 C122 1.367 . S
C123 C131 1.433 . S
C124 H120 0.929 . S
C124 C126 1.378 . S
C124 C128 1.350 . S
C125 C128 1.463 . S
C125 C130 1.350 . S
C125 N133 1.427 . S
C126 H117 0.930 . S
C126 C124 1.378 . S
C126 C127 1.367 . S
C127 C126 1.367 . S
C127 C129 1.433 . S
C128 C124 1.350 . S
C128 C125 1.463 . S
C128 N132 1.427 . S
C129 H119 0.929 . S
C129 C127 1.433 . S
C129 N132 1.384 . S
C130 H121 0.929 . S
C130 C122 1.378 . S
C130 C125 1.350 . S
C131 H118 0.929 . S
C131 C123 1.433 . S
C131 N133 1.384 . S
N132 C128 1.427 . S
N132 C129 1.384 . S
N133 C125 1.427 . S
N133 C131 1.384 . S
H134 C140 0.930 . S
H135 C144 0.930 . S
H136 C149 0.929 . S
H137 C147 0.929 . S
H138 C142 0.929 . S
H139 C148 0.929 . S
C140 H134 0.930 . S
C140 C141 1.367 . S
C140 C148 1.378 . S
C141 C140 1.367 . S
C141 C149 1.433 . S
C142 H138 0.929 . S
C142 C144 1.378 . S
C142 C146 1.350 . S
C143 C146 1.463 . S
C143 C148 1.350 . S
C143 N151 1.427 . S
C144 H135 0.930 . S
C144 C142 1.378 . S
C144 C145 1.367 . S
C145 C144 1.367 . S
C145 C147 1.433 . S
C146 C142 1.350 . S
C146 C143 1.463 . S
C146 N150 1.427 . S
C147 H137 0.929 . S
C147 C145 1.433 . S
C147 N150 1.384 . S
C148 H139 0.929 . S
C148 C140 1.378 . S
C148 C143 1.350 . S
C149 H136 0.929 . S
C149 C141 1.433 . S
C149 N151 1.384 . S
N150 C146 1.427 . S
N150 C147 1.384 . S
N151 C143 1.427 . S
N151 C149 1.384 . S
H152 C158 0.930 . S
H153 C162 0.930 . S
H154 C167 0.929 . S
H155 C165 0.929 . S
H156 C160 0.929 . S
H157 C166 0.929 . S
C158 H152 0.930 . S
C158 C159 1.367 . S
C158 C166 1.378 . S
C159 C158 1.367 . S
C159 C167 1.433 . S
C160 H156 0.929 . S
C160 C162 1.378 . S
C160 C164 1.350 . S
C161 C164 1.463 . S
C161 C166 1.350 . S
C161 N169 1.427 . S
C162 H153 0.930 . S
C162 C160 1.378 . S
C162 C163 1.367 . S
C163 C162 1.367 . S
C163 C165 1.433 . S
C164 C160 1.350 . S
C164 C161 1.463 . S
C164 N168 1.427 . S
C165 H155 0.929 . S
C165 C163 1.433 . S
C165 N168 1.384 . S
C166 H157 0.929 . S
C166 C158 1.378 . S
C166 C161 1.350 . S
C167 H154 0.929 . S
C167 C159 1.433 . S
C167 N169 1.384 . S
N168 C164 1.427 . S
N168 C165 1.384 . S
N169 C161 1.427 . S
N169 C167 1.384 . S
H170 C176 0.930 . S
H171 C180 0.930 . S
H172 C185 0.929 . S
H173 C183 0.929 . S
H174 C178 0.929 . S
H175 C184 0.929 . S
C176 H170 0.930 . S
C176 C177 1.367 . S
C176 C184 1.378 . S
C177 C176 1.367 . S
C177 C185 1.433 . S
C178 H174 0.929 . S
C178 C180 1.378 . S
C178 C182 1.350 . S
C179 C182 1.463 . S
C179 C184 1.350 . S
C179 N187 1.427 . S
C180 H171 0.930 . S
C180 C178 1.378 . S
C180 C181 1.367 . S
C181 C180 1.367 . S
C181 C183 1.433 . S
C182 C178 1.350 . S
C182 C179 1.463 . S
C182 N186 1.427 . S
C183 H173 0.929 . S
C183 C181 1.433 . S
C183 N186 1.384 . S
C184 H175 0.929 . S
C184 C176 1.378 . S
C184 C179 1.350 . S
C185 H172 0.929 . S
C185 C177 1.433 . S
C185 N187 1.384 . S
N186 C182 1.427 . S
N186 C183 1.384 . S
N187 C179 1.427 . S
N187 C185 1.384 . S
H188 C194 0.930 . S
H189 C198 0.930 . S
H190 C203 0.929 . S
H191 C201 0.929 . S
H192 C196 0.929 . S
H193 C202 0.929 . S
C194 H188 0.930 . S
C194 C195 1.367 . S
C194 C202 1.378 . S
C195 C194 1.367 . S
C195 C203 1.433 . S
C196 H192 0.929 . S
C196 C198 1.378 . S
C196 C200 1.350 . S
C197 C200 1.463 . S
C197 C202 1.350 . S
C197 N205 1.427 . S
C198 H189 0.930 . S
C198 C196 1.378 . S
C198 C199 1.367 . S
C199 C198 1.367 . S
C199 C201 1.433 . S
C200 C196 1.350 . S
C200 C197 1.463 . S
C200 N204 1.427 . S
C201 H191 0.929 . S
C201 C199 1.433 . S
C201 N204 1.384 . S
C202 H193 0.929 . S
C202 C194 1.378 . S
C202 C197 1.350 . S
C203 H190 0.929 . S
C203 C195 1.433 . S
C203 N205 1.384 . S
N204 C200 1.427 . S
N204 C201 1.384 . S
N205 C197 1.427 . S
N205 C203 1.384 . S
C69 C10 0.911 . S
C73 C33 0.908 . S
C87 C0 1.562 . S
C91 C55 1.561 . S
C105 C18 1.550 . S
C109 C42 1.550 . S
C123 C27 1.720 . S
C127 C32 1.718 . S
C141 C24 1.573 . S
C145 C31 1.575 . S
C159 C49 1.541 . S
C163 C11 1.541 . S
C177 C1 1.726 . S
C181 C58 1.728 . S
C195 C41 0.911 . S
C199 C2 0.914 . S
