# Generated by pormake.
# Topology umd, (4)-cn, num edge types: 1
# Building blocks:
#     Node 0, Type 0, BuildingBlock: QUQFOY_clean_sbu_3, # of connection points: 4
#     Node 1, Type 0, BuildingBlock: QUQFOY_clean_sbu_3, # of connection points: 4
#     Node 2, Type 0, BuildingBlock: QUQFOY_clean_sbu_3, # of connection points: 4
#     Node 3, Type 0, BuildingBlock: QUQFOY_clean_sbu_3, # of connection points: 4
#     Node 4, Type 0, BuildingBlock: QUQFOY_clean_sbu_3, # of connection points: 4
#     Node 5, Type 0, BuildingBlock: QUQFOY_clean_sbu_3, # of connection points: 4
#     Node 6, Type 0, BuildingBlock: QUQFOY_clean_sbu_3, # of connection points: 4
#     Node 7, Type 0, BuildingBlock: QUQFOY_clean_sbu_3, # of connection points: 4
#     Node 8, Type 0, BuildingBlock: QUQFOY_clean_sbu_3, # of connection points: 4
#     Node 9, Type 0, BuildingBlock: QUQFOY_clean_sbu_3, # of connection points: 4
#     Node 10, Type 0, BuildingBlock: QUQFOY_clean_sbu_3, # of connection points: 4
#     Node 11, Type 0, BuildingBlock: QUQFOY_clean_sbu_3, # of connection points: 4
#     Node 12, Type 0, BuildingBlock: QUQFOY_clean_sbu_3, # of connection points: 4
#     Node 13, Type 0, BuildingBlock: QUQFOY_clean_sbu_3, # of connection points: 4
#     Node 14, Type 0, BuildingBlock: QUQFOY_clean_sbu_3, # of connection points: 4
#     Node 15, Type 0, BuildingBlock: QUQFOY_clean_sbu_3, # of connection points: 4
#     Edge 16, Type (0, 0), None
#     Edge 17, Type (0, 0), None
#     Edge 18, Type (0, 0), None
#     Edge 19, Type (0, 0), None
#     Edge 20, Type (0, 0), None
#     Edge 21, Type (0, 0), None
#     Edge 22, Type (0, 0), None
#     Edge 23, Type (0, 0), None
#     Edge 24, Type (0, 0), None
#     Edge 25, Type (0, 0), None
#     Edge 26, Type (0, 0), None
#     Edge 27, Type (0, 0), None
#     Edge 28, Type (0, 0), None
#     Edge 29, Type (0, 0), None
#     Edge 30, Type (0, 0), None
#     Edge 31, Type (0, 0), None
#     Edge 32, Type (0, 0), None
#     Edge 33, Type (0, 0), None
#     Edge 34, Type (0, 0), None
#     Edge 35, Type (0, 0), None
#     Edge 36, Type (0, 0), None
#     Edge 37, Type (0, 0), None
#     Edge 38, Type (0, 0), None
#     Edge 39, Type (0, 0), None
#     Edge 40, Type (0, 0), None
#     Edge 41, Type (0, 0), None
#     Edge 42, Type (0, 0), None
#     Edge 43, Type (0, 0), None
#     Edge 44, Type (0, 0), None
#     Edge 45, Type (0, 0), None
#     Edge 46, Type (0, 0), None
#     Edge 47, Type (0, 0), None
# Relax obj value: 0.096
# Max RMSD: 0.234
# Mean RMSD: 0.234
data_MOF--net-umd--node1-QUQFOY_clean_sbu_3--edge1-none
_symmetry_space_group_name_H-M    P1
_symmetry_Int_Tables_number       1
_symmetry_cell_setting            triclinic
loop_
_symmetry_equiv_pos_as_xyz
'x, y, z'
_cell_length_a     19.455271
_cell_length_b     19.455231
_cell_length_c     28.725755
_cell_angle_alpha  90.006511
_cell_angle_beta   90.004945
_cell_angle_gamma 90.000295
loop_
_atom_site_label
_atom_site_type_symbol
_atom_site_fract_x
_atom_site_fract_y
_atom_site_fract_z
_atom_type_partial_charge
C0 C 0.18865 0.46755 0.16213 0.0
O1 O 0.24186 0.4781 0.13789 0.0
Cd2 Cd 0.1727 0.49989 0.06653 0.0
O3 O 0.13331 0.45436 0.14092 0.0
Cd4 Cd 0.15381 0.40917 0.06066 0.0
C5 C 0.00668 0.46423 0.07575 0.0
O6 O 0.19715 0.47098 -0.0123 0.0
O7 O 0.1117 0.39846 -0.01594 0.0
O8 O 0.26445 0.3628 0.07803 0.0
C9 C 0.15492 0.43621 -0.03693 0.0
O10 O 0.04706 0.51565 0.07487 0.0
C11 C 0.2471 0.30016 0.07419 0.0
O12 O 0.03144 0.40401 0.07258 0.0
O13 O 0.18424 0.28689 0.06566 0.0
C14 C 0.47142 0.18868 0.66214 0.0
O15 O 0.46087 0.24189 0.63789 0.0
Cd16 Cd 0.4391 0.17272 0.56652 0.0
O17 O 0.48462 0.13334 0.64092 0.0
Cd18 Cd 0.5298 0.15384 0.56066 0.0
C19 C 0.47477 0.00671 0.57575 0.0
O20 O 0.46799 0.19716 0.4877 0.0
O21 O 0.5405 0.11171 0.48407 0.0
O22 O 0.57617 0.26448 0.57803 0.0
C23 C 0.50275 0.15493 0.46307 0.0
O24 O 0.42334 0.04708 0.57487 0.0
C25 C 0.63881 0.24714 0.57419 0.0
O26 O 0.53498 0.03147 0.57259 0.0
O27 O 0.65208 0.18427 0.56567 0.0
C28 C 0.75027 0.47136 0.16211 0.0
O29 O 0.69706 0.46082 0.13786 0.0
Cd30 Cd 0.76622 0.43905 0.0665 0.0
O31 O 0.80561 0.48455 0.14091 0.0
Cd32 Cd 0.78511 0.52976 0.06065 0.0
C33 C 0.93224 0.47471 0.07575 0.0
O34 O 0.7418 0.46797 -0.01233 0.0
O35 O 0.82725 0.54049 -0.01593 0.0
O36 O 0.67447 0.57613 0.07802 0.0
C37 C 0.78403 0.50274 -0.03694 0.0
O38 O 0.89186 0.42329 0.07485 0.0
C39 C 0.69181 0.63876 0.07419 0.0
O40 O 0.90748 0.53493 0.07259 0.0
O41 O 0.75468 0.65204 0.06568 0.0
C42 C 0.46762 0.7503 0.66211 0.0
O43 O 0.47816 0.69709 0.63785 0.0
Cd44 Cd 0.49995 0.76625 0.5665 0.0
O45 O 0.45444 0.80564 0.6409 0.0
Cd46 Cd 0.40922 0.78513 0.56065 0.0
C47 C 0.46428 0.93226 0.57574 0.0
O48 O 0.47099 0.74181 0.48767 0.0
O49 O 0.39848 0.82726 0.48406 0.0
O50 O 0.36284 0.6745 0.57802 0.0
C51 C 0.43623 0.78403 0.46305 0.0
O52 O 0.5157 0.89189 0.57485 0.0
C53 C 0.30021 0.69185 0.57419 0.0
O54 O 0.40406 0.9075 0.57258 0.0
O55 O 0.28693 0.75472 0.56567 0.0
C56 C 0.18865 0.47134 0.21299 0.0
O57 O 0.24186 0.46081 0.23724 0.0
Cd58 Cd 0.1727 0.43902 0.3086 0.0
O59 O 0.13331 0.48453 0.2342 0.0
Cd60 Cd 0.15382 0.52974 0.31446 0.0
C61 C 0.00668 0.47469 0.29936 0.0
O62 O 0.19715 0.46796 0.38743 0.0
O63 O 0.1117 0.54048 0.39105 0.0
O64 O 0.26445 0.57612 0.29709 0.0
C65 C 0.15492 0.50273 0.41205 0.0
O66 O 0.04706 0.42326 0.30025 0.0
C67 C 0.2471 0.63875 0.30092 0.0
O68 O 0.03145 0.5349 0.30252 0.0
O69 O 0.18423 0.65203 0.30944 0.0
C70 C 0.46762 0.18868 0.713 0.0
O71 O 0.47815 0.24189 0.73725 0.0
Cd72 Cd 0.49992 0.17273 0.80861 0.0
O73 O 0.45442 0.13334 0.7342 0.0
Cd74 Cd 0.40921 0.15384 0.81445 0.0
C75 C 0.46426 0.00671 0.79936 0.0
O76 O 0.47099 0.19716 0.88744 0.0
O77 O 0.39847 0.11171 0.89104 0.0
O78 O 0.36284 0.26448 0.79709 0.0
C79 C 0.43622 0.15493 0.91205 0.0
O80 O 0.51568 0.04709 0.80025 0.0
C81 C 0.3002 0.24714 0.80091 0.0
O82 O 0.40404 0.03147 0.80251 0.0
O83 O 0.28692 0.18427 0.80942 0.0
C84 C 0.75027 0.46755 0.21297 0.0
O85 O 0.69706 0.4781 0.23722 0.0
Cd86 Cd 0.76623 0.49986 0.30858 0.0
O87 O 0.80561 0.45435 0.23418 0.0
Cd88 Cd 0.78511 0.40916 0.31444 0.0
C89 C 0.93224 0.4642 0.29936 0.0
O90 O 0.7418 0.47097 0.38741 0.0
O91 O 0.82725 0.39846 0.39103 0.0
O92 O 0.67447 0.36279 0.29707 0.0
C93 C 0.78403 0.43621 0.41203 0.0
O94 O 0.89187 0.51562 0.30024 0.0
C95 C 0.69181 0.30016 0.30091 0.0
O96 O 0.90748 0.40399 0.30251 0.0
O97 O 0.75468 0.28688 0.30942 0.0
C98 C 0.47141 0.7503 0.71297 0.0
O99 O 0.46087 0.69709 0.73721 0.0
Cd100 Cd 0.43907 0.76625 0.80857 0.0
O101 O 0.48461 0.80564 0.73418 0.0
Cd102 Cd 0.52979 0.78514 0.81444 0.0
C103 C 0.47474 0.93227 0.79936 0.0
O104 O 0.46798 0.74181 0.8874 0.0
O105 O 0.5405 0.82726 0.89104 0.0
O106 O 0.57617 0.6745 0.79707 0.0
C107 C 0.50274 0.78403 0.91203 0.0
O108 O 0.42332 0.89189 0.80023 0.0
C109 C 0.6388 0.69185 0.80092 0.0
O110 O 0.53496 0.90751 0.80252 0.0
O111 O 0.65208 0.75471 0.80944 0.0
C112 C 0.75031 0.47141 0.71297 0.0
O113 O 0.6971 0.46086 0.73722 0.0
Cd114 Cd 0.76626 0.43907 0.80858 0.0
O115 O 0.80565 0.4846 0.73418 0.0
Cd116 Cd 0.78514 0.52978 0.81445 0.0
C117 C 0.93228 0.47473 0.79936 0.0
O118 O 0.74181 0.46798 0.88741 0.0
O119 O 0.82726 0.5405 0.89104 0.0
O120 O 0.67451 0.57616 0.79707 0.0
C121 C 0.78404 0.50274 0.91204 0.0
O122 O 0.8919 0.42331 0.80023 0.0
C123 C 0.69185 0.63879 0.80092 0.0
O124 O 0.90751 0.53494 0.80253 0.0
O125 O 0.75472 0.65207 0.80944 0.0
C126 C 0.46753 0.75028 0.21297 0.0
O127 O 0.47808 0.69706 0.23721 0.0
Cd128 Cd 0.49985 0.76623 0.30858 0.0
O129 O 0.45434 0.80561 0.23418 0.0
Cd130 Cd 0.40916 0.78511 0.31444 0.0
C131 C 0.46419 0.93225 0.29935 0.0
O132 O 0.47097 0.7418 0.38741 0.0
O133 O 0.39846 0.82725 0.39103 0.0
O134 O 0.36279 0.67447 0.29707 0.0
C135 C 0.43621 0.78403 0.41203 0.0
O136 O 0.51562 0.89187 0.30023 0.0
C137 C 0.30016 0.69181 0.30092 0.0
O138 O 0.40398 0.90748 0.30252 0.0
O139 O 0.28687 0.75468 0.30943 0.0
C140 C 0.18868 0.4676 0.71299 0.0
O141 O 0.2419 0.47814 0.73725 0.0
Cd142 Cd 0.17273 0.49991 0.80861 0.0
O143 O 0.13335 0.4544 0.7342 0.0
Cd144 Cd 0.15385 0.4092 0.81445 0.0
C145 C 0.00672 0.46424 0.79936 0.0
O146 O 0.19716 0.47098 0.88743 0.0
O147 O 0.11171 0.39847 0.89103 0.0
O148 O 0.26449 0.36283 0.79709 0.0
C149 C 0.15493 0.43622 0.91205 0.0
O150 O 0.0471 0.51567 0.80025 0.0
C151 C 0.24714 0.30019 0.80092 0.0
O152 O 0.03148 0.40403 0.80251 0.0
O153 O 0.18427 0.28691 0.80942 0.0
C154 C 0.47134 0.18865 0.213 0.0
O155 O 0.4608 0.24187 0.23725 0.0
Cd156 Cd 0.43901 0.17271 0.30861 0.0
O157 O 0.48452 0.13331 0.2342 0.0
Cd158 Cd 0.52974 0.15382 0.31446 0.0
C159 C 0.47468 0.00669 0.29936 0.0
O160 O 0.46796 0.19715 0.38743 0.0
O161 O 0.54048 0.1117 0.39104 0.0
O162 O 0.57611 0.26446 0.29709 0.0
C163 C 0.50274 0.15492 0.41205 0.0
O164 O 0.42326 0.04707 0.30025 0.0
C165 C 0.63875 0.24711 0.30092 0.0
O166 O 0.5349 0.03145 0.30252 0.0
O167 O 0.65203 0.18424 0.30943 0.0
C168 C 0.75031 0.46761 0.66211 0.0
O169 O 0.6971 0.47815 0.63786 0.0
Cd170 Cd 0.76626 0.49993 0.5665 0.0
O171 O 0.80565 0.45442 0.6409 0.0
Cd172 Cd 0.78514 0.40921 0.56065 0.0
C173 C 0.93227 0.46427 0.57574 0.0
O174 O 0.74181 0.47099 0.48768 0.0
O175 O 0.82726 0.39848 0.48406 0.0
O176 O 0.67451 0.36284 0.57802 0.0
C177 C 0.78403 0.43622 0.46305 0.0
O178 O 0.89189 0.51569 0.57486 0.0
C179 C 0.69186 0.3002 0.57418 0.0
O180 O 0.90751 0.40405 0.57258 0.0
O181 O 0.75473 0.28692 0.56567 0.0
C182 C 0.47134 0.75028 0.16211 0.0
O183 O 0.46081 0.69706 0.13785 0.0
Cd184 Cd 0.43904 0.76623 0.06649 0.0
O185 O 0.48454 0.80561 0.14091 0.0
Cd186 Cd 0.52975 0.78511 0.06065 0.0
C187 C 0.4747 0.93225 0.07575 0.0
O188 O 0.46797 0.7418 -0.01233 0.0
O189 O 0.54048 0.82725 -0.01593 0.0
O190 O 0.57612 0.67447 0.07801 0.0
C191 C 0.50274 0.78403 -0.03694 0.0
O192 O 0.42328 0.89187 0.07485 0.0
C193 C 0.63875 0.69182 0.07419 0.0
O194 O 0.53492 0.90748 0.07259 0.0
O195 O 0.65204 0.75469 0.06568 0.0
C196 C 0.18869 0.4714 0.66213 0.0
O197 O 0.2419 0.46086 0.63788 0.0
Cd198 Cd 0.17273 0.43909 0.56652 0.0
O199 O 0.13335 0.48461 0.64092 0.0
Cd200 Cd 0.15385 0.52979 0.56066 0.0
C201 C 0.00672 0.47475 0.57575 0.0
O202 O 0.19716 0.46798 0.48769 0.0
O203 O 0.11171 0.5405 0.48407 0.0
O204 O 0.26449 0.57616 0.57803 0.0
C205 C 0.15493 0.50274 0.46307 0.0
O206 O 0.04709 0.42333 0.57487 0.0
C207 C 0.24715 0.63879 0.57419 0.0
O208 O 0.03148 0.53497 0.57259 0.0
O209 O 0.18428 0.65208 0.56568 0.0
C210 C 0.46754 0.18865 0.16214 0.0
O211 O 0.47809 0.24187 0.13789 0.0
Cd212 Cd 0.49988 0.1727 0.06653 0.0
O213 O 0.45435 0.13332 0.14092 0.0
Cd214 Cd 0.40917 0.15382 0.06066 0.0
C215 C 0.46422 0.00669 0.07575 0.0
O216 O 0.47097 0.19715 -0.0123 0.0
O217 O 0.39846 0.1117 -0.01594 0.0
O218 O 0.36279 0.26445 0.07803 0.0
C219 C 0.43621 0.15492 -0.03693 0.0
O220 O 0.51564 0.04707 0.07487 0.0
C221 C 0.30016 0.24711 0.07418 0.0
O222 O 0.404 0.03145 0.07258 0.0
O223 O 0.28688 0.18424 0.06566 0.0
loop_
_geom_bond_atom_site_label_1
_geom_bond_atom_site_label_2
_geom_bond_distance
_geom_bond_site_symmetry_2
_ccdc_geom_bond_type
C0 O1 1.306 . S
C0 O3 1.160 . S
O1 C0 1.306 . S
O1 Cd2 2.228 . S
Cd2 O1 2.228 . S
Cd2 O6 2.273 . S
Cd2 O10 2.277 . S
O3 C0 1.160 . S
O3 Cd4 2.203 . S
Cd4 O3 2.203 . S
Cd4 O6 2.411 . S
Cd4 O7 2.333 . S
Cd4 O8 2.352 . S
Cd4 O12 2.277 . S
Cd4 O13 2.356 . S
C5 O10 1.209 . S
C5 O12 1.226 . S
O6 Cd2 2.273 . S
O6 Cd4 2.411 . S
O6 C9 1.320 . S
O7 Cd4 2.333 . S
O7 C9 1.214 . S
O8 Cd4 2.352 . S
O8 C11 1.258 . S
C9 O6 1.320 . S
C9 O7 1.214 . S
O10 Cd2 2.277 . S
O10 C5 1.209 . S
C11 O8 1.258 . S
C11 O13 1.282 . S
O12 Cd4 2.277 . S
O12 C5 1.226 . S
O13 Cd4 2.356 . S
O13 C11 1.282 . S
C14 O15 1.306 . S
C14 O17 1.160 . S
O15 C14 1.306 . S
O15 Cd16 2.228 . S
Cd16 O15 2.228 . S
Cd16 O20 2.273 . S
Cd16 O24 2.277 . S
O17 C14 1.160 . S
O17 Cd18 2.203 . S
Cd18 O17 2.203 . S
Cd18 O20 2.411 . S
Cd18 O21 2.333 . S
Cd18 O22 2.352 . S
Cd18 O26 2.277 . S
Cd18 O27 2.356 . S
C19 O24 1.209 . S
C19 O26 1.226 . S
O20 Cd16 2.273 . S
O20 Cd18 2.411 . S
O20 C23 1.320 . S
O21 Cd18 2.333 . S
O21 C23 1.214 . S
O22 Cd18 2.352 . S
O22 C25 1.258 . S
C23 O20 1.320 . S
C23 O21 1.214 . S
O24 Cd16 2.277 . S
O24 C19 1.209 . S
C25 O22 1.258 . S
C25 O27 1.282 . S
O26 Cd18 2.277 . S
O26 C19 1.226 . S
O27 Cd18 2.356 . S
O27 C25 1.282 . S
C28 O29 1.306 . S
C28 O31 1.160 . S
O29 C28 1.306 . S
O29 Cd30 2.228 . S
Cd30 O29 2.228 . S
Cd30 O34 2.273 . S
Cd30 O38 2.277 . S
O31 C28 1.160 . S
O31 Cd32 2.203 . S
Cd32 O31 2.203 . S
Cd32 O34 2.411 . S
Cd32 O35 2.333 . S
Cd32 O36 2.352 . S
Cd32 O40 2.277 . S
Cd32 O41 2.356 . S
C33 O38 1.209 . S
C33 O40 1.226 . S
O34 Cd30 2.273 . S
O34 Cd32 2.411 . S
O34 C37 1.320 . S
O35 Cd32 2.333 . S
O35 C37 1.214 . S
O36 Cd32 2.352 . S
O36 C39 1.258 . S
C37 O34 1.320 . S
C37 O35 1.214 . S
O38 Cd30 2.277 . S
O38 C33 1.209 . S
C39 O36 1.258 . S
C39 O41 1.282 . S
O40 Cd32 2.277 . S
O40 C33 1.226 . S
O41 Cd32 2.356 . S
O41 C39 1.282 . S
C42 O43 1.306 . S
C42 O45 1.160 . S
O43 C42 1.306 . S
O43 Cd44 2.228 . S
Cd44 O43 2.228 . S
Cd44 O48 2.273 . S
Cd44 O52 2.277 . S
O45 C42 1.160 . S
O45 Cd46 2.203 . S
Cd46 O45 2.203 . S
Cd46 O48 2.411 . S
Cd46 O49 2.333 . S
Cd46 O50 2.352 . S
Cd46 O54 2.277 . S
Cd46 O55 2.356 . S
C47 O52 1.209 . S
C47 O54 1.226 . S
O48 Cd44 2.273 . S
O48 Cd46 2.411 . S
O48 C51 1.320 . S
O49 Cd46 2.333 . S
O49 C51 1.214 . S
O50 Cd46 2.352 . S
O50 C53 1.258 . S
C51 O48 1.320 . S
C51 O49 1.214 . S
O52 Cd44 2.277 . S
O52 C47 1.209 . S
C53 O50 1.258 . S
C53 O55 1.282 . S
O54 Cd46 2.277 . S
O54 C47 1.226 . S
O55 Cd46 2.356 . S
O55 C53 1.282 . S
C56 O57 1.306 . S
C56 O59 1.160 . S
O57 C56 1.306 . S
O57 Cd58 2.228 . S
Cd58 O57 2.228 . S
Cd58 O62 2.273 . S
Cd58 O66 2.277 . S
O59 C56 1.160 . S
O59 Cd60 2.203 . S
Cd60 O59 2.203 . S
Cd60 O62 2.411 . S
Cd60 O63 2.333 . S
Cd60 O64 2.352 . S
Cd60 O68 2.277 . S
Cd60 O69 2.356 . S
C61 O66 1.209 . S
C61 O68 1.226 . S
O62 Cd58 2.273 . S
O62 Cd60 2.411 . S
O62 C65 1.320 . S
O63 Cd60 2.333 . S
O63 C65 1.214 . S
O64 Cd60 2.352 . S
O64 C67 1.258 . S
C65 O62 1.320 . S
C65 O63 1.214 . S
O66 Cd58 2.277 . S
O66 C61 1.209 . S
C67 O64 1.258 . S
C67 O69 1.282 . S
O68 Cd60 2.277 . S
O68 C61 1.226 . S
O69 Cd60 2.356 . S
O69 C67 1.282 . S
C70 O71 1.306 . S
C70 O73 1.160 . S
O71 C70 1.306 . S
O71 Cd72 2.228 . S
Cd72 O71 2.228 . S
Cd72 O76 2.273 . S
Cd72 O80 2.277 . S
O73 C70 1.160 . S
O73 Cd74 2.203 . S
Cd74 O73 2.203 . S
Cd74 O76 2.411 . S
Cd74 O77 2.333 . S
Cd74 O78 2.352 . S
Cd74 O82 2.277 . S
Cd74 O83 2.356 . S
C75 O80 1.209 . S
C75 O82 1.226 . S
O76 Cd72 2.273 . S
O76 Cd74 2.411 . S
O76 C79 1.320 . S
O77 Cd74 2.333 . S
O77 C79 1.214 . S
O78 Cd74 2.352 . S
O78 C81 1.258 . S
C79 O76 1.320 . S
C79 O77 1.214 . S
O80 Cd72 2.277 . S
O80 C75 1.209 . S
C81 O78 1.258 . S
C81 O83 1.282 . S
O82 Cd74 2.277 . S
O82 C75 1.226 . S
O83 Cd74 2.356 . S
O83 C81 1.282 . S
C84 O85 1.306 . S
C84 O87 1.160 . S
O85 C84 1.306 . S
O85 Cd86 2.228 . S
Cd86 O85 2.228 . S
Cd86 O90 2.273 . S
Cd86 O94 2.277 . S
O87 C84 1.160 . S
O87 Cd88 2.203 . S
Cd88 O87 2.203 . S
Cd88 O90 2.411 . S
Cd88 O91 2.333 . S
Cd88 O92 2.352 . S
Cd88 O96 2.277 . S
Cd88 O97 2.356 . S
C89 O94 1.209 . S
C89 O96 1.226 . S
O90 Cd86 2.273 . S
O90 Cd88 2.411 . S
O90 C93 1.320 . S
O91 Cd88 2.333 . S
O91 C93 1.214 . S
O92 Cd88 2.352 . S
O92 C95 1.258 . S
C93 O90 1.320 . S
C93 O91 1.214 . S
O94 Cd86 2.277 . S
O94 C89 1.209 . S
C95 O92 1.258 . S
C95 O97 1.282 . S
O96 Cd88 2.277 . S
O96 C89 1.226 . S
O97 Cd88 2.356 . S
O97 C95 1.282 . S
C98 O99 1.306 . S
C98 O101 1.160 . S
O99 C98 1.306 . S
O99 Cd100 2.228 . S
Cd100 O99 2.228 . S
Cd100 O104 2.273 . S
Cd100 O108 2.277 . S
O101 C98 1.160 . S
O101 Cd102 2.203 . S
Cd102 O101 2.203 . S
Cd102 O104 2.411 . S
Cd102 O105 2.333 . S
Cd102 O106 2.352 . S
Cd102 O110 2.277 . S
Cd102 O111 2.356 . S
C103 O108 1.209 . S
C103 O110 1.226 . S
O104 Cd100 2.273 . S
O104 Cd102 2.411 . S
O104 C107 1.320 . S
O105 Cd102 2.333 . S
O105 C107 1.214 . S
O106 Cd102 2.352 . S
O106 C109 1.258 . S
C107 O104 1.320 . S
C107 O105 1.214 . S
O108 Cd100 2.277 . S
O108 C103 1.209 . S
C109 O106 1.258 . S
C109 O111 1.282 . S
O110 Cd102 2.277 . S
O110 C103 1.226 . S
O111 Cd102 2.356 . S
O111 C109 1.282 . S
C112 O113 1.306 . S
C112 O115 1.160 . S
O113 C112 1.306 . S
O113 Cd114 2.228 . S
Cd114 O113 2.228 . S
Cd114 O118 2.273 . S
Cd114 O122 2.277 . S
O115 C112 1.160 . S
O115 Cd116 2.203 . S
Cd116 O115 2.203 . S
Cd116 O118 2.411 . S
Cd116 O119 2.333 . S
Cd116 O120 2.352 . S
Cd116 O124 2.277 . S
Cd116 O125 2.356 . S
C117 O122 1.209 . S
C117 O124 1.226 . S
O118 Cd114 2.273 . S
O118 Cd116 2.411 . S
O118 C121 1.320 . S
O119 Cd116 2.333 . S
O119 C121 1.214 . S
O120 Cd116 2.352 . S
O120 C123 1.258 . S
C121 O118 1.320 . S
C121 O119 1.214 . S
O122 Cd114 2.277 . S
O122 C117 1.209 . S
C123 O120 1.258 . S
C123 O125 1.282 . S
O124 Cd116 2.277 . S
O124 C117 1.226 . S
O125 Cd116 2.356 . S
O125 C123 1.282 . S
C126 O127 1.306 . S
C126 O129 1.160 . S
O127 C126 1.306 . S
O127 Cd128 2.228 . S
Cd128 O127 2.228 . S
Cd128 O132 2.273 . S
Cd128 O136 2.277 . S
O129 C126 1.160 . S
O129 Cd130 2.203 . S
Cd130 O129 2.203 . S
Cd130 O132 2.411 . S
Cd130 O133 2.333 . S
Cd130 O134 2.352 . S
Cd130 O138 2.277 . S
Cd130 O139 2.356 . S
C131 O136 1.209 . S
C131 O138 1.226 . S
O132 Cd128 2.273 . S
O132 Cd130 2.411 . S
O132 C135 1.320 . S
O133 Cd130 2.333 . S
O133 C135 1.214 . S
O134 Cd130 2.352 . S
O134 C137 1.258 . S
C135 O132 1.320 . S
C135 O133 1.214 . S
O136 Cd128 2.277 . S
O136 C131 1.209 . S
C137 O134 1.258 . S
C137 O139 1.282 . S
O138 Cd130 2.277 . S
O138 C131 1.226 . S
O139 Cd130 2.356 . S
O139 C137 1.282 . S
C140 O141 1.306 . S
C140 O143 1.160 . S
O141 C140 1.306 . S
O141 Cd142 2.228 . S
Cd142 O141 2.228 . S
Cd142 O146 2.273 . S
Cd142 O150 2.277 . S
O143 C140 1.160 . S
O143 Cd144 2.203 . S
Cd144 O143 2.203 . S
Cd144 O146 2.411 . S
Cd144 O147 2.333 . S
Cd144 O148 2.352 . S
Cd144 O152 2.277 . S
Cd144 O153 2.356 . S
C145 O150 1.209 . S
C145 O152 1.226 . S
O146 Cd142 2.273 . S
O146 Cd144 2.411 . S
O146 C149 1.320 . S
O147 Cd144 2.333 . S
O147 C149 1.214 . S
O148 Cd144 2.352 . S
O148 C151 1.258 . S
C149 O146 1.320 . S
C149 O147 1.214 . S
O150 Cd142 2.277 . S
O150 C145 1.209 . S
C151 O148 1.258 . S
C151 O153 1.282 . S
O152 Cd144 2.277 . S
O152 C145 1.226 . S
O153 Cd144 2.356 . S
O153 C151 1.282 . S
C154 O155 1.306 . S
C154 O157 1.160 . S
O155 C154 1.306 . S
O155 Cd156 2.228 . S
Cd156 O155 2.228 . S
Cd156 O160 2.273 . S
Cd156 O164 2.277 . S
O157 C154 1.160 . S
O157 Cd158 2.203 . S
Cd158 O157 2.203 . S
Cd158 O160 2.411 . S
Cd158 O161 2.333 . S
Cd158 O162 2.352 . S
Cd158 O166 2.277 . S
Cd158 O167 2.356 . S
C159 O164 1.209 . S
C159 O166 1.226 . S
O160 Cd156 2.273 . S
O160 Cd158 2.411 . S
O160 C163 1.320 . S
O161 Cd158 2.333 . S
O161 C163 1.214 . S
O162 Cd158 2.352 . S
O162 C165 1.258 . S
C163 O160 1.320 . S
C163 O161 1.214 . S
O164 Cd156 2.277 . S
O164 C159 1.209 . S
C165 O162 1.258 . S
C165 O167 1.282 . S
O166 Cd158 2.277 . S
O166 C159 1.226 . S
O167 Cd158 2.356 . S
O167 C165 1.282 . S
C168 O169 1.306 . S
C168 O171 1.160 . S
O169 C168 1.306 . S
O169 Cd170 2.228 . S
Cd170 O169 2.228 . S
Cd170 O174 2.273 . S
Cd170 O178 2.277 . S
O171 C168 1.160 . S
O171 Cd172 2.203 . S
Cd172 O171 2.203 . S
Cd172 O174 2.411 . S
Cd172 O175 2.333 . S
Cd172 O176 2.352 . S
Cd172 O180 2.277 . S
Cd172 O181 2.356 . S
C173 O178 1.209 . S
C173 O180 1.226 . S
O174 Cd170 2.273 . S
O174 Cd172 2.411 . S
O174 C177 1.320 . S
O175 Cd172 2.333 . S
O175 C177 1.214 . S
O176 Cd172 2.352 . S
O176 C179 1.258 . S
C177 O174 1.320 . S
C177 O175 1.214 . S
O178 Cd170 2.277 . S
O178 C173 1.209 . S
C179 O176 1.258 . S
C179 O181 1.282 . S
O180 Cd172 2.277 . S
O180 C173 1.226 . S
O181 Cd172 2.356 . S
O181 C179 1.282 . S
C182 O183 1.306 . S
C182 O185 1.160 . S
O183 C182 1.306 . S
O183 Cd184 2.228 . S
Cd184 O183 2.228 . S
Cd184 O188 2.273 . S
Cd184 O192 2.277 . S
O185 C182 1.160 . S
O185 Cd186 2.203 . S
Cd186 O185 2.203 . S
Cd186 O188 2.411 . S
Cd186 O189 2.333 . S
Cd186 O190 2.352 . S
Cd186 O194 2.277 . S
Cd186 O195 2.356 . S
C187 O192 1.209 . S
C187 O194 1.226 . S
O188 Cd184 2.273 . S
O188 Cd186 2.411 . S
O188 C191 1.320 . S
O189 Cd186 2.333 . S
O189 C191 1.214 . S
O190 Cd186 2.352 . S
O190 C193 1.258 . S
C191 O188 1.320 . S
C191 O189 1.214 . S
O192 Cd184 2.277 . S
O192 C187 1.209 . S
C193 O190 1.258 . S
C193 O195 1.282 . S
O194 Cd186 2.277 . S
O194 C187 1.226 . S
O195 Cd186 2.356 . S
O195 C193 1.282 . S
C196 O197 1.306 . S
C196 O199 1.160 . S
O197 C196 1.306 . S
O197 Cd198 2.228 . S
Cd198 O197 2.228 . S
Cd198 O202 2.273 . S
Cd198 O206 2.277 . S
O199 C196 1.160 . S
O199 Cd200 2.203 . S
Cd200 O199 2.203 . S
Cd200 O202 2.411 . S
Cd200 O203 2.333 . S
Cd200 O204 2.352 . S
Cd200 O208 2.277 . S
Cd200 O209 2.356 . S
C201 O206 1.209 . S
C201 O208 1.226 . S
O202 Cd198 2.273 . S
O202 Cd200 2.411 . S
O202 C205 1.320 . S
O203 Cd200 2.333 . S
O203 C205 1.214 . S
O204 Cd200 2.352 . S
O204 C207 1.258 . S
C205 O202 1.320 . S
C205 O203 1.214 . S
O206 Cd198 2.277 . S
O206 C201 1.209 . S
C207 O204 1.258 . S
C207 O209 1.282 . S
O208 Cd200 2.277 . S
O208 C201 1.226 . S
O209 Cd200 2.356 . S
O209 C207 1.282 . S
C210 O211 1.306 . S
C210 O213 1.160 . S
O211 C210 1.306 . S
O211 Cd212 2.228 . S
Cd212 O211 2.228 . S
Cd212 O216 2.273 . S
Cd212 O220 2.277 . S
O213 C210 1.160 . S
O213 Cd214 2.203 . S
Cd214 O213 2.203 . S
Cd214 O216 2.411 . S
Cd214 O217 2.333 . S
Cd214 O218 2.352 . S
Cd214 O222 2.277 . S
Cd214 O223 2.356 . S
C215 O220 1.209 . S
C215 O222 1.226 . S
O216 Cd212 2.273 . S
O216 Cd214 2.411 . S
O216 C219 1.320 . S
O217 Cd214 2.333 . S
O217 C219 1.214 . S
O218 Cd214 2.352 . S
O218 C221 1.258 . S
C219 O216 1.320 . S
C219 O217 1.214 . S
O220 Cd212 2.277 . S
O220 C215 1.209 . S
C221 O218 1.258 . S
C221 O223 1.282 . S
O222 Cd214 2.277 . S
O222 C215 1.226 . S
O223 Cd214 2.356 . S
O223 C221 1.282 . S
C5 C33 1.475 1_455 S
C47 C19 1.475 1_565 S
C61 C89 1.475 1_455 S
C103 C75 1.475 1_565 S
C117 C145 1.475 1_655 S
C159 C131 1.475 1_545 S
C173 C201 1.475 1_655 S
C215 C187 1.475 1_545 S
C56 C0 2.372 . S
C14 C70 2.372 . S
C28 C84 2.372 . S
C98 C42 2.372 . S
C112 C168 2.372 . S
C126 C182 2.372 . S
C140 C196 2.372 . S
C154 C210 2.372 . S
C149 C9 1.342 1_556 S
C163 C23 1.342 . S
C37 C121 1.342 1_554 S
C51 C135 1.342 . S
C65 C205 1.342 . S
C79 C219 1.342 1_556 S
C93 C177 1.342 . S
C191 C107 1.342 1_554 S
C11 C221 1.409 . S
C179 C25 1.409 . S
C39 C193 1.409 . S
C207 C53 1.409 . S
C137 C67 1.409 . S
C81 C151 1.409 . S
C165 C95 1.409 . S
C123 C109 1.409 . S
