# Generated by pormake.
# Topology cds, (4)-cn, num edge types: 1
# Building blocks:
#     Node 0, Type 0, BuildingBlock: NAWXER_clean_sbu_0, # of connection points: 4
#     Node 1, Type 0, BuildingBlock: NAWXER_clean_sbu_0, # of connection points: 4
#     Edge 2, Type (0, 0), BuildingBlock: FUNLAD_clean_linker_1, # of connection points: 2
#     Edge 3, Type (0, 0), BuildingBlock: FUNLAD_clean_linker_1, # of connection points: 2
#     Edge 4, Type (0, 0), BuildingBlock: FUNLAD_clean_linker_1, # of connection points: 2
#     Edge 5, Type (0, 0), BuildingBlock: FUNLAD_clean_linker_1, # of connection points: 2
# Relax obj value: 0.000
# Max RMSD: 0.000
# Mean RMSD: 0.000
data_MOF--net-cds--node1-NAWXER_clean_sbu_0--edge1-FUNLAD_clean_linker_1
_symmetry_space_group_name_H-M    P1
_symmetry_Int_Tables_number       1
_symmetry_cell_setting            triclinic
loop_
_symmetry_equiv_pos_as_xyz
'x, y, z'
_cell_length_a     15.173758
_cell_length_b     15.16005
_cell_length_c     30.484704
_cell_angle_alpha  96.658127
_cell_angle_beta   96.082319
_cell_angle_gamma 91.225669
loop_
_atom_site_label
_atom_site_type_symbol
_atom_site_fract_x
_atom_site_fract_y
_atom_site_fract_z
_atom_type_partial_charge
C0 C 0.23269 0.08092 0.01997 0.0
C1 C 0.91605 0.12623 0.019 0.0
O2 O 0.18766 1.00711 0.01409 0.0
Zn3 Zn 0.04964 0.96502 1.00951 0.0
O4 O 0.19328 0.15389 0.02503 0.0
Zn5 Zn 0.07459 0.10367 0.01949 0.0
O6 O 0.07235 0.04032 0.07937 0.0
O7 O 0.04489 0.89705 0.05858 0.0
O8 O 0.9784 0.18474 0.02331 0.0
O9 O 0.93393 0.04362 0.01367 0.0
O10 O 0.02796 0.90177 0.95087 0.0
O11 O 0.05573 0.04539 0.95085 0.0
C12 C 0.05987 0.96127 0.08926 0.0
C13 C 0.03824 0.96773 0.92963 0.0
C14 C 0.94587 0.14776 0.50851 0.0
C15 C 0.90695 0.82599 0.49623 0.0
O16 O 0.02005 0.1091 0.51254 0.0
Zn17 Zn 0.06501 0.97535 0.51115 0.0
O18 O 0.87371 0.10177 0.50212 0.0
Zn19 Zn 0.92606 0.98669 0.502 0.0
O20 O 0.98307 0.98678 0.57012 0.0
O21 O 0.12791 0.97627 0.56923 0.0
O22 O 0.84753 0.88328 0.49318 0.0
O23 O 0.9891 0.85125 0.50268 0.0
O24 O 0.13388 0.96559 0.46148 0.0
O25 O 0.99044 0.97562 0.44193 0.0
C26 C 0.06082 0.98239 0.59081 0.0
C27 C 0.06987 0.96838 0.43139 0.0
H28 H 0.03333 0.88066 0.14248 0.0
C29 C 0.05802 0.94515 0.13591 0.0
H30 H 0.10603 0.07338 0.16347 0.0
H31 H 0.93045 0.09599 0.34077 0.0
H32 H 0.85808 0.21203 0.3037 0.0
H33 H 0.87905 0.22906 0.22595 0.0
H34 H 0.97397 0.13131 0.18518 0.0
C35 C 0.08284 1.00829 0.16995 0.0
C36 C 0.06945 0.99558 0.21656 0.0
C37 C 1.01197 0.0522 0.23963 0.0
C38 C 0.99753 0.0405 0.28396 0.0
C39 C 0.9422 0.10013 0.30668 0.0
C40 C 0.90034 0.1674 0.28584 0.0
C41 C 0.91233 0.17713 0.24213 0.0
C42 C 0.96735 0.12053 0.21914 0.0
H43 H 0.15592 0.97705 0.37793 0.0
C44 C 0.08767 0.96787 0.38477 0.0
H45 H 0.9536 0.95148 0.35802 0.0
H46 H 0.19455 0.88426 0.18486 0.0
H47 H 0.25923 0.76176 0.21997 0.0
H48 H 0.21932 0.72962 0.293 0.0
H49 H 0.11675 0.82151 0.33191 0.0
C50 C 0.022 0.95923 0.35116 0.0
C51 C 0.03852 0.97057 0.30478 0.0
C52 C 0.09434 0.91257 0.28133 0.0
C53 C 0.11251 0.92725 0.23785 0.0
C54 C 0.17438 0.87307 0.21679 0.0
C55 C 0.21265 0.80293 0.23674 0.0
C56 C 0.19054 0.78512 0.27795 0.0
C57 C 0.13209 0.83898 0.30011 0.0
H58 H 0.99974 0.89218 0.86378 0.0
C59 C 0.02925 0.95462 0.88068 0.0
H60 H 0.08647 0.0795 0.87362 0.0
H61 H 0.08507 0.83237 0.6756 0.0
H62 H 0.17803 0.73126 0.71405 0.0
H63 H 0.21636 0.75782 0.79529 0.0
H64 H 0.15941 0.88381 0.83862 0.0
C65 C 0.05767 1.01667 0.85684 0.0
C66 C 0.04436 1.00549 0.80733 0.0
C67 C 0.08332 0.93468 0.78227 0.0
C68 C 0.06659 0.92298 0.73511 0.0
C69 C 0.09981 0.84738 0.71121 0.0
C70 C 0.15272 0.78832 0.73291 0.0
C71 C 0.17388 0.803 0.77865 0.0
C72 C 0.13996 0.87525 0.8032 0.0
H73 H 0.14015 0.99196 0.65627 0.0
C74 C 0.073 0.98505 0.63955 0.0
H75 H 0.93673 0.97288 0.64709 0.0
H76 H 0.95791 0.14719 0.8451 0.0
H77 H 0.87224 0.25294 0.80627 0.0
H78 H 0.85317 0.2393 0.72438 0.0
H79 H 0.91863 0.11907 0.68085 0.0
C80 C 1.00416 0.97843 0.66346 0.0
C81 C 1.01687 0.98607 0.7129 0.0
C82 C 0.9794 0.05775 0.73789 0.0
C83 C 0.99234 0.06692 0.78512 0.0
C84 C 0.95198 0.13787 0.80918 0.0
C85 C 0.9023 0.19905 0.78731 0.0
C86 C 0.89142 0.19127 0.74122 0.0
C87 C 0.9293 0.12168 0.71663 0.0
H88 H 0.80967 0.22345 0.02449 0.0
C89 C 0.82343 0.15307 0.02071 0.0
H90 H 0.76943 0.02189 0.01329 0.0
H91 H 0.43922 0.21889 0.10286 0.0
H92 H 0.54267 0.25274 0.16942 0.0
H93 H 0.70181 0.22374 0.16807 0.0
H94 H 0.75857 0.16145 0.10022 0.0
C95 C 0.75663 0.09241 0.01826 0.0
C96 C 0.66259 0.11759 0.01883 0.0
C97 C 0.63076 0.15435 0.05889 0.0
C98 C 0.53876 0.16986 0.05985 0.0
C99 C 0.5084 0.20568 0.10032 0.0
C100 C 0.56704 0.22532 0.13877 0.0
C101 C 0.65665 0.2091 0.138 0.0
C102 C 0.68845 0.17367 0.0987 0.0
H103 H 0.35927 1.01466 0.01421 0.0
C104 C 0.32961 0.07921 0.01936 0.0
H105 H 0.35403 0.21844 0.02975 0.0
H106 H 0.70295 0.05173 0.93616 0.0
H107 H 0.59986 0.02089 0.86934 0.0
H108 H 0.44078 0.05 0.87081 0.0
H109 H 0.38378 0.10958 0.93915 0.0
C110 C 0.38161 0.15321 0.02347 0.0
C111 C 0.47881 0.14701 0.02106 0.0
C112 C 0.51131 0.11412 0.98057 0.0
C113 C 0.60316 0.0986 0.97958 0.0
C114 C 0.6337 0.06448 0.93884 0.0
C115 C 0.57532 0.04679 0.90019 0.0
C116 C 0.48576 0.06309 0.90102 0.0
C117 C 0.45381 0.09668 0.94058 0.0
H118 H 0.81111 0.71161 0.48756 0.0
C119 C 0.88115 0.73094 0.4935 0.0
H120 H 1.01153 0.68771 0.50723 0.0
H121 H 0.89997 0.34302 0.58724 0.0
H122 H 0.94777 0.44002 0.65503 0.0
H123 H 0.9813 0.5994 0.65295 0.0
H124 H 0.96661 0.6628 0.58313 0.0
C125 C 0.94163 0.6688 0.49952 0.0
C126 C 0.91557 0.57404 0.50059 0.0
C127 C 0.92509 0.53797 0.54164 0.0
C128 C 0.907 0.44592 0.54278 0.0
C129 C 0.91506 0.41205 0.58436 0.0
C130 C 0.94185 0.46711 0.62356 0.0
C131 C 0.96062 0.55685 0.62239 0.0
C132 C 0.95219 0.5923 0.58205 0.0
H133 H 1.01084 0.2806 0.5183 0.0
C134 C 0.94683 0.24536 0.51085 0.0
H135 H 0.80936 0.25798 0.49355 0.0
H136 H 0.89048 0.62186 0.41628 0.0
H137 H 0.84132 0.52501 0.34872 0.0
H138 H 0.80908 0.36546 0.35082 0.0
H139 H 0.82596 0.30175 0.42054 0.0
C140 C 0.87363 0.29175 0.50293 0.0
C141 C 0.88104 0.3898 0.50275 0.0
C142 C 0.86817 0.42646 0.46191 0.0
C143 C 0.88602 0.51866 0.46076 0.0
C144 C 0.87633 0.55273 0.41924 0.0
C145 C 0.84852 0.49775 0.38014 0.0
C146 C 0.83044 0.4079 0.38132 0.0
C147 C 0.84032 0.37222 0.42159 0.0
loop_
_geom_bond_atom_site_label_1
_geom_bond_atom_site_label_2
_geom_bond_distance
_geom_bond_site_symmetry_2
_ccdc_geom_bond_type
C0 O2 1.251 1_554 S
C0 O4 1.257 1_565 S
C1 O8 1.251 1_556 S
C1 O9 1.254 1_545 S
O2 C0 1.251 1_556 S
O2 Zn3 2.025 . S
Zn3 O2 2.025 . S
Zn3 O7 2.035 1_556 S
Zn3 O9 2.036 1_455 S
Zn3 O10 2.028 1_455 S
O4 C0 1.257 1_545 S
O4 Zn5 2.036 . S
Zn5 O4 2.036 . S
Zn5 O6 2.028 . S
Zn5 O8 2.027 1_455 S
Zn5 O11 2.035 1_454 S
O6 Zn5 2.028 . S
O6 C12 1.251 . S
O7 Zn3 2.035 1_554 S
O7 C12 1.254 1_565 S
O8 C1 1.251 1_554 S
O8 Zn5 2.027 1_655 S
O9 C1 1.254 1_565 S
O9 Zn3 2.036 1_655 S
O10 Zn3 2.028 1_655 S
O10 C13 1.248 . S
O11 Zn5 2.035 1_656 S
O11 C13 1.257 1_545 S
C12 O6 1.251 . S
C12 O7 1.254 1_545 S
C13 O10 1.248 . S
C13 O11 1.257 1_565 S
C14 O16 1.251 . S
C14 O18 1.254 1_455 S
C15 O22 1.248 . S
C15 O23 1.257 1_655 S
O16 C14 1.251 . S
O16 Zn17 2.028 . S
Zn17 O16 2.028 . S
Zn17 O21 2.035 . S
Zn17 O23 2.035 1_545 S
Zn17 O24 2.028 1_545 S
O18 C14 1.254 1_655 S
O18 Zn19 2.023 1_545 S
Zn19 O18 2.023 1_565 S
Zn19 O20 2.029 1_565 S
Zn19 O22 2.040 . S
Zn19 O25 2.034 . S
O20 Zn19 2.029 1_545 S
O20 C26 1.248 . S
O21 Zn17 2.035 . S
O21 C26 1.257 1_455 S
O22 C15 1.248 . S
O22 Zn19 2.040 . S
O23 C15 1.257 1_455 S
O23 Zn17 2.035 1_565 S
O24 Zn17 2.028 1_565 S
O24 C27 1.251 . S
O25 Zn19 2.034 . S
O25 C27 1.254 1_655 S
C26 O20 1.248 . S
C26 O21 1.257 1_655 S
C27 O24 1.251 . S
C27 O25 1.254 1_455 S
H28 C29 0.952 . S
C29 H28 0.952 . S
C29 C35 1.265 1_665 S
H30 C35 0.950 . S
H31 C39 0.949 . S
H32 C40 0.950 . S
H33 C41 0.951 . S
H34 C42 0.951 . S
C35 C29 1.265 1_445 S
C35 H30 0.950 . S
C35 C36 1.478 . S
C36 C35 1.478 . S
C36 C37 1.397 . S
C36 C53 1.394 1_445 S
C37 C36 1.397 . S
C37 C38 1.438 . S
C37 C42 1.429 . S
C38 C37 1.438 . S
C38 C39 1.428 . S
C38 C51 1.394 1_445 S
C39 H31 0.949 . S
C39 C38 1.428 . S
C39 C40 1.345 . S
C40 H32 0.950 . S
C40 C39 1.345 . S
C40 C41 1.424 . S
C41 H33 0.951 . S
C41 C40 1.424 . S
C41 C42 1.347 . S
C42 H34 0.951 . S
C42 C37 1.429 . S
C42 C41 1.347 . S
H43 C44 0.952 . S
C44 H43 0.952 . S
C44 C50 1.265 1_445 S
H45 C50 0.950 . S
H46 C54 0.949 . S
H47 C55 0.950 . S
H48 C56 0.951 . S
H49 C57 0.951 . S
C50 C44 1.265 1_665 S
C50 H45 0.950 . S
C50 C51 1.478 . S
C51 C38 1.394 1_665 S
C51 C50 1.478 . S
C51 C52 1.397 . S
C52 C51 1.397 . S
C52 C53 1.438 . S
C52 C57 1.429 . S
C53 C36 1.394 1_665 S
C53 C52 1.438 . S
C53 C54 1.428 . S
C54 H46 0.949 . S
C54 C53 1.428 . S
C54 C55 1.345 . S
C55 H47 0.950 . S
C55 C54 1.345 . S
C55 C56 1.424 . S
C56 H48 0.951 . S
C56 C55 1.424 . S
C56 C57 1.347 . S
C57 H49 0.951 . S
C57 C52 1.429 . S
C57 C56 1.347 . S
H58 C59 0.952 . S
C59 H58 0.952 . S
C59 C65 1.265 1_645 S
H60 C65 0.950 . S
H61 C69 0.949 . S
H62 C70 0.950 . S
H63 C71 0.951 . S
H64 C72 0.951 . S
C65 C59 1.265 1_465 S
C65 H60 0.950 . S
C65 C66 1.478 . S
C66 C65 1.478 . S
C66 C67 1.397 . S
C66 C83 1.394 1_465 S
C67 C66 1.397 . S
C67 C68 1.438 . S
C67 C72 1.429 . S
C68 C67 1.438 . S
C68 C69 1.428 . S
C68 C81 1.394 1_465 S
C69 H61 0.949 . S
C69 C68 1.428 . S
C69 C70 1.345 . S
C70 H62 0.950 . S
C70 C69 1.345 . S
C70 C71 1.424 . S
C71 H63 0.951 . S
C71 C70 1.424 . S
C71 C72 1.347 . S
C72 H64 0.951 . S
C72 C67 1.429 . S
C72 C71 1.347 . S
H73 C74 0.952 . S
C74 H73 0.952 . S
C74 C80 1.265 1_465 S
H75 C80 0.950 . S
H76 C84 0.949 . S
H77 C85 0.950 . S
H78 C86 0.951 . S
H79 C87 0.951 . S
C80 C74 1.265 1_645 S
C80 H75 0.950 . S
C80 C81 1.478 . S
C81 C68 1.394 1_645 S
C81 C80 1.478 . S
C81 C82 1.397 . S
C82 C81 1.397 . S
C82 C83 1.438 . S
C82 C87 1.429 . S
C83 C66 1.394 1_645 S
C83 C82 1.438 . S
C83 C84 1.428 . S
C84 H76 0.949 . S
C84 C83 1.428 . S
C84 C85 1.345 . S
C85 H77 0.950 . S
C85 C84 1.345 . S
C85 C86 1.424 . S
C86 H78 0.951 . S
C86 C85 1.424 . S
C86 C87 1.347 . S
C87 H79 0.951 . S
C87 C82 1.429 . S
C87 C86 1.347 . S
H88 C89 0.951 . S
C89 H88 0.951 . S
C89 C95 1.265 1_566 S
H90 C95 0.950 . S
H91 C99 0.949 . S
H92 C100 0.950 . S
H93 C101 0.951 . S
H94 C102 0.951 . S
C95 C89 1.265 1_544 S
C95 H90 0.950 . S
C95 C96 1.478 . S
C96 C95 1.478 . S
C96 C97 1.397 . S
C96 C113 1.394 1_544 S
C97 C96 1.397 . S
C97 C98 1.438 . S
C97 C102 1.429 . S
C98 C97 1.438 . S
C98 C99 1.428 . S
C98 C111 1.394 1_544 S
C99 H91 0.949 . S
C99 C98 1.428 . S
C99 C100 1.345 . S
C100 H92 0.950 . S
C100 C99 1.345 . S
C100 C101 1.424 . S
C101 H93 0.951 . S
C101 C100 1.424 . S
C101 C102 1.347 . S
C102 H94 0.951 . S
C102 C97 1.429 . S
C102 C101 1.347 . S
H103 C104 0.951 . S
C104 H103 0.951 . S
C104 C110 1.265 1_544 S
H105 C110 0.950 . S
H106 C114 0.949 . S
H107 C115 0.950 . S
H108 C116 0.951 . S
H109 C117 0.951 . S
C110 C104 1.265 1_566 S
C110 H105 0.950 . S
C110 C111 1.478 . S
C111 C98 1.394 1_566 S
C111 C110 1.478 . S
C111 C112 1.397 . S
C112 C111 1.397 . S
C112 C113 1.438 . S
C112 C117 1.429 . S
C113 C96 1.394 1_566 S
C113 C112 1.438 . S
C113 C114 1.428 . S
C114 H106 0.949 . S
C114 C113 1.428 . S
C114 C115 1.345 . S
C115 H107 0.950 . S
C115 C114 1.345 . S
C115 C116 1.424 . S
C116 H108 0.951 . S
C116 C115 1.424 . S
C116 C117 1.347 . S
C117 H109 0.951 . S
C117 C112 1.429 . S
C117 C116 1.347 . S
H118 C119 0.951 . S
C119 H118 0.951 . S
C119 C125 1.265 1_655 S
H120 C125 0.950 . S
H121 C129 0.949 . S
H122 C130 0.950 . S
H123 C131 0.951 . S
H124 C132 0.951 . S
C125 C119 1.265 1_455 S
C125 H120 0.950 . S
C125 C126 1.478 . S
C126 C125 1.478 . S
C126 C127 1.397 . S
C126 C143 1.394 1_455 S
C127 C126 1.397 . S
C127 C128 1.438 . S
C127 C132 1.429 . S
C128 C127 1.438 . S
C128 C129 1.428 . S
C128 C141 1.394 1_455 S
C129 H121 0.949 . S
C129 C128 1.428 . S
C129 C130 1.345 . S
C130 H122 0.950 . S
C130 C129 1.345 . S
C130 C131 1.424 . S
C131 H123 0.951 . S
C131 C130 1.424 . S
C131 C132 1.347 . S
C132 H124 0.951 . S
C132 C127 1.429 . S
C132 C131 1.347 . S
H133 C134 0.951 . S
C134 H133 0.951 . S
C134 C140 1.265 1_455 S
H135 C140 0.950 . S
H136 C144 0.949 . S
H137 C145 0.950 . S
H138 C146 0.951 . S
H139 C147 0.951 . S
C140 C134 1.265 1_655 S
C140 H135 0.950 . S
C140 C141 1.478 . S
C141 C128 1.394 1_655 S
C141 C140 1.478 . S
C141 C142 1.397 . S
C142 C141 1.397 . S
C142 C143 1.438 . S
C142 C147 1.429 . S
C143 C126 1.394 1_655 S
C143 C142 1.438 . S
C143 C144 1.428 . S
C144 H136 0.949 . S
C144 C143 1.428 . S
C144 C145 1.345 . S
C145 H137 0.950 . S
C145 C144 1.345 . S
C145 C146 1.424 . S
C146 H138 0.951 . S
C146 C145 1.424 . S
C146 C147 1.347 . S
C147 H139 0.951 . S
C147 C142 1.429 . S
C147 C146 1.347 . S
C29 C12 1.494 1_665 S
C44 C27 1.484 1_545 S
C59 C13 1.478 1_545 S
C74 C26 1.491 1_465 S
C89 C1 1.480 1_565 S
C104 C0 1.480 1_545 S
C119 C15 1.488 . S
C134 C14 1.489 . S
