# Generated by pormake.
# Topology uni, (4)-cn, num edge types: 1
# Building blocks:
#     Node 0, Type 0, BuildingBlock: QUQFOY_clean_sbu_1, # of connection points: 4
#     Node 1, Type 0, BuildingBlock: QUQFOY_clean_sbu_1, # of connection points: 4
#     Node 2, Type 0, BuildingBlock: QUQFOY_clean_sbu_1, # of connection points: 4
#     Node 3, Type 0, BuildingBlock: QUQFOY_clean_sbu_1, # of connection points: 4
#     Node 4, Type 0, BuildingBlock: QUQFOY_clean_sbu_1, # of connection points: 4
#     Node 5, Type 0, BuildingBlock: QUQFOY_clean_sbu_1, # of connection points: 4
#     Edge 6, Type (0, 0), BuildingBlock: OJICUG_clean_linker_0, # of connection points: 2
#     Edge 7, Type (0, 0), BuildingBlock: OJICUG_clean_linker_0, # of connection points: 2
#     Edge 8, Type (0, 0), BuildingBlock: OJICUG_clean_linker_0, # of connection points: 2
#     Edge 9, Type (0, 0), BuildingBlock: OJICUG_clean_linker_0, # of connection points: 2
#     Edge 10, Type (0, 0), BuildingBlock: OJICUG_clean_linker_0, # of connection points: 2
#     Edge 11, Type (0, 0), BuildingBlock: OJICUG_clean_linker_0, # of connection points: 2
#     Edge 12, Type (0, 0), BuildingBlock: OJICUG_clean_linker_0, # of connection points: 2
#     Edge 13, Type (0, 0), BuildingBlock: OJICUG_clean_linker_0, # of connection points: 2
#     Edge 14, Type (0, 0), BuildingBlock: OJICUG_clean_linker_0, # of connection points: 2
#     Edge 15, Type (0, 0), BuildingBlock: OJICUG_clean_linker_0, # of connection points: 2
#     Edge 16, Type (0, 0), BuildingBlock: OJICUG_clean_linker_0, # of connection points: 2
#     Edge 17, Type (0, 0), BuildingBlock: OJICUG_clean_linker_0, # of connection points: 2
# Relax obj value: 0.078
# Max RMSD: 0.157
# Mean RMSD: 0.157
data_MOF--net-uni--node1-QUQFOY_clean_sbu_1--edge1-OJICUG_clean_linker_0
_symmetry_space_group_name_H-M    P1
_symmetry_Int_Tables_number       1
_symmetry_cell_setting            triclinic
loop_
_symmetry_equiv_pos_as_xyz
'x, y, z'
_cell_length_a     31.250471
_cell_length_b     31.177791
_cell_length_c     18.384072
_cell_angle_alpha  90.044291
_cell_angle_beta   89.920592
_cell_angle_gamma 120.17496
loop_
_atom_site_label
_atom_site_type_symbol
_atom_site_fract_x
_atom_site_fract_y
_atom_site_fract_z
_atom_type_partial_charge
O0 O 0.60656 0.05485 0.91707 0.0
Cd1 Cd 0.65405 0.07616 0.00395 0.0
Cd2 Cd 0.60051 0.96909 0.01412 0.0
O3 O 0.57392 0.97357 0.91356 0.0
O4 O 0.69107 0.1488 -0.01338 0.0
O5 O 0.7273 0.10373 -0.01585 0.0
C6 C 0.73037 0.14628 -0.02442 0.0
C7 C 0.60675 0.89898 0.04139 0.0
C8 C 0.57881 1.01332 0.88673 0.0
C9 C 0.58899 0.03187 0.13245 0.0
O10 O 0.575 0.99035 0.10198 0.0
O11 O 0.62365 0.07167 0.10518 0.0
O12 O 0.56484 0.89643 0.03132 0.0
O13 O 0.64627 0.94155 0.03248 0.0
O14 O 0.57329 0.59953 0.08568 0.0
Cd15 Cd 0.59981 0.64713 0.17264 0.0
Cd16 Cd 0.65331 0.59398 0.18234 0.0
O17 O 0.62185 0.56714 0.08194 0.0
O18 O 0.56445 0.68417 0.15584 0.0
O19 O 0.64583 0.72057 0.15299 0.0
C20 C 0.60642 0.72361 0.14479 0.0
C21 C 0.72979 0.60055 0.20866 0.0
C22 C 0.58696 0.57182 0.05525 0.0
C23 C 0.57917 0.58204 0.30106 0.0
O24 O 0.60672 0.56826 0.27048 0.0
O25 O 0.57398 0.61657 0.27385 0.0
O26 O 0.69023 0.55846 0.19893 0.0
O27 O 0.72684 0.64007 0.20007 0.0
O28 O 0.99673 0.56939 0.24482 0.0
Cd29 Cd 0.97589 0.59484 0.33324 0.0
Cd30 Cd 0.0828 0.64821 0.3428 0.0
O31 O 0.07791 0.61783 0.24143 0.0
O32 O 0.90331 0.55904 0.31693 0.0
O33 O 0.94823 0.64066 0.31586 0.0
C34 C 0.90573 0.60103 0.30738 0.0
C35 C 0.15297 0.7246 0.37084 0.0
C36 C 0.0381 0.58331 0.21416 0.0
C37 C 1.02031 0.57269 0.46003 0.0
O38 O 0.06173 0.60048 0.42957 0.0
O39 O 0.98067 0.56797 0.43348 0.0
O40 O 0.15534 0.68517 0.35942 0.0
O41 O 0.11053 0.72163 0.36286 0.0
O42 O 0.4525 0.99019 0.41743 0.0
Cd43 Cd 0.40499 0.96905 0.50442 0.0
Cd44 Cd 0.45841 0.07587 0.51457 0.0
O45 O 0.48507 0.07145 0.41389 0.0
O46 O 0.36756 0.89642 0.48702 0.0
O47 O 0.33183 0.94196 0.48481 0.0
C48 C 0.32844 0.89928 0.47611 0.0
C49 C 0.45183 0.1458 0.54188 0.0
C50 C 0.48023 0.03171 0.38703 0.0
C51 C 0.47001 1.0132 0.63272 0.0
O52 O 0.48402 0.05472 0.60227 0.0
O53 O 0.43532 0.97342 0.60554 0.0
O54 O 0.49383 0.14853 0.53172 0.0
O55 O 0.41241 0.10314 0.53308 0.0
O56 O 0.48381 0.44475 0.58552 0.0
Cd57 Cd 0.45748 0.39726 0.67261 0.0
Cd58 Cd 0.40387 0.45056 0.68278 0.0
O59 O 0.43547 0.47741 0.58239 0.0
O60 O 0.49314 0.36048 0.65564 0.0
O61 O 0.41173 0.32373 0.65321 0.0
C62 C 0.45125 0.3209 0.64483 0.0
C63 C 0.32754 0.44446 0.70908 0.0
C64 C 0.47022 0.47257 0.55536 0.0
C65 C 0.47799 0.46233 0.8012 0.0
O66 O 0.45033 0.47602 0.77093 0.0
O67 O 0.48334 0.42794 0.77371 0.0
O68 O 0.36728 0.48643 0.69951 0.0
O69 O 0.33023 0.4048 0.70042 0.0
O70 O 0.06119 0.47723 0.74446 0.0
Cd71 Cd 0.08189 0.45173 0.83282 0.0
Cd72 Cd 0.97519 0.39845 0.84272 0.0
O73 O 0.98 0.42887 0.74146 0.0
O74 O 0.15447 0.48722 0.81639 0.0
O75 O 0.10923 0.40561 0.81552 0.0
C76 C 0.15185 0.44511 0.80698 0.0
C77 C 0.90531 0.32181 0.87067 0.0
C78 C 1.01981 0.46335 0.71402 0.0
C79 C 0.03752 0.47396 -0.04015 0.0
O80 O 0.99609 0.44611 0.92957 0.0
O81 O 0.07715 0.47872 -0.06693 0.0
O82 O 0.90265 0.36109 0.85952 0.0
O83 O 0.94789 0.32508 0.86251 0.0
C84 C 0.5712 0.07809 0.22918 0.0
C85 C 0.56268 0.03308 0.19864 0.0
H86 H 0.55141 0.11318 0.3126 0.0
C87 C 0.52682 0.98823 0.23025 0.0
H88 H 0.59843 0.11326 0.2058 0.0
C89 C 0.49997 0.98818 0.29064 0.0
C90 C 0.50815 0.03298 0.32128 0.0
H91 H 0.51918 0.95283 0.20826 0.0
H92 H 0.47271 0.95274 0.3133 0.0
C93 C 0.54407 0.07803 0.28998 0.0
C94 C 0.5604 0.51962 0.39853 0.0
C95 C 0.55161 0.55555 0.36721 0.0
H96 H 0.54153 0.46527 0.48129 0.0
C97 C 0.51521 0.56395 0.39794 0.0
H98 H 0.58808 0.51207 0.37637 0.0
C99 C 0.48804 0.53664 0.45866 0.0
C100 C 0.49699 0.50065 0.48968 0.0
H101 H 0.50741 0.59122 0.3748 0.0
H102 H 0.46032 0.5439 0.48143 0.0
C103 C 0.5335 0.49258 0.45885 0.0
C104 C 0.97388 0.48143 0.6176 0.0
C105 C 1.01874 0.4897 0.64782 0.0
H106 H 0.93899 0.50158 0.53463 0.0
C107 C 0.06352 0.52543 0.61603 0.0
H108 H 0.93876 0.45431 0.64112 0.0
C109 C 0.06366 0.55244 0.55579 0.0
C110 C 1.01901 0.54454 0.52552 0.0
H111 H 0.0988 0.53287 0.6378 0.0
H112 H 0.09904 0.57962 0.53299 0.0
C113 C 0.97402 0.50871 0.55697 0.0
C114 C 0.55917 0.05686 0.79045 0.0
C115 C 0.55091 1.01206 0.82108 0.0
H116 H 0.54 0.09224 0.70822 0.0
C117 C 0.5149 0.96701 0.78992 0.0
H118 H 0.5865 0.0923 0.813 0.0
C119 C 0.48776 0.96697 0.72927 0.0
C120 C 0.49635 1.01199 0.69875 0.0
H121 H 0.5075 0.93186 0.81254 0.0
H122 H 0.46046 0.9318 0.706 0.0
C123 C 0.53231 0.05683 0.73021 0.0
C124 C 0.52343 0.55155 -0.0407 0.0
C125 C 0.56016 0.5437 -0.01033 0.0
H126 H 0.46868 0.53189 0.87724 0.0
C127 C 0.56929 0.5079 -0.04172 0.0
H128 H 0.51524 0.5787 -0.01795 0.0
C129 C 0.54211 0.48058 0.89763 0.0
C130 C 0.50552 0.48877 0.86734 0.0
H131 H 0.59717 0.50081 -0.0193 0.0
H132 H 0.55007 0.45347 0.87417 0.0
C133 C 0.49652 0.5245 0.89906 0.0
C134 C 0.9942 0.49419 0.05593 0.0
C135 C 0.03883 0.50212 0.0254 0.0
H136 H 0.95908 0.51375 0.13823 0.0
C137 C 0.08383 0.53798 0.05667 0.0
H138 H 0.95881 0.467 0.03328 0.0
C139 C 0.084 0.56526 0.11738 0.0
C140 C 0.03915 0.55696 0.14787 0.0
H141 H 0.11886 0.54513 0.03412 0.0
H142 H 0.11913 0.59241 0.14075 0.0
C143 C 0.99436 0.5212 0.11625 0.0
C144 C 0.56346 0.76878 0.10663 0.0
C145 C 0.6081 0.76955 0.11978 0.0
H146 H 0.52822 0.80833 0.07095 0.0
C147 C 0.65307 0.81343 0.10581 0.0
H148 H 0.52809 0.73562 0.11636 0.0
C149 C 0.65315 0.85573 0.07941 0.0
C150 C 0.60824 0.85459 0.06622 0.0
H151 H 0.68807 0.81506 0.11508 0.0
H152 H 0.68821 0.88922 0.06957 0.0
C153 C 0.56353 0.81058 0.08008 0.0
C154 C 0.86231 0.64749 0.27049 0.0
C155 C 0.86121 0.6025 0.28375 0.0
H156 H 0.82146 0.68244 0.23584 0.0
C157 C 0.81708 0.55767 0.27118 0.0
H158 H 0.89589 0.68264 0.27935 0.0
C159 C 0.77511 0.55755 0.24581 0.0
C160 C 0.77584 0.60226 0.23254 0.0
H161 H 0.81484 0.52228 0.28045 0.0
H162 H 0.74186 0.52208 0.23705 0.0
C163 C 0.81985 0.64737 0.24524 0.0
C164 C 0.19647 0.81427 0.41062 0.0
C165 C 0.19739 0.77042 0.39611 0.0
H166 H 0.23735 0.88985 0.44777 0.0
C167 C 0.24121 0.76954 0.40909 0.0
H168 H 0.16313 0.81599 0.40148 0.0
C169 C 0.28304 0.81116 0.4361 0.0
C170 C 0.28249 0.85511 0.4506 0.0
H171 H 0.2433 0.73641 0.39892 0.0
H172 H 0.31605 0.80881 0.44512 0.0
C173 C 0.2388 0.8564 0.43746 0.0
C174 C 0.40495 0.23099 0.60622 0.0
C175 C 0.44981 0.27503 0.61993 0.0
H176 H 0.37011 0.15515 0.5703 0.0
C177 C 0.49456 0.27601 0.60665 0.0
H178 H 0.36986 0.2292 0.61561 0.0
C179 C 0.4947 0.23426 0.58023 0.0
C180 C 0.4501 0.19011 0.56662 0.0
H181 H 0.52985 0.30929 0.61619 0.0
H182 H 0.5301 0.23668 0.57099 0.0
C183 C 0.40509 0.18875 0.57994 0.0
C184 C 0.19495 0.39823 0.77038 0.0
C185 C 0.19628 0.44335 0.78354 0.0
H186 H 0.23556 0.3629 0.73601 0.0
C187 C 0.2406 0.48805 0.7711 0.0
H188 H 0.16123 0.36317 0.77915 0.0
C189 C 0.28253 0.4879 0.74595 0.0
C190 C 0.28155 0.44304 0.73278 0.0
H191 H 0.24303 0.52353 0.7803 0.0
H192 H 0.31593 0.52326 0.73728 0.0
C193 C 0.23735 0.39807 0.74534 0.0
C194 C 0.81701 0.27629 0.90895 0.0
C195 C 0.86103 0.27578 0.89585 0.0
H196 H 0.74214 0.23653 -0.05501 0.0
C197 C 0.86228 0.23209 0.91012 0.0
H198 H 0.81467 0.30929 0.89895 0.0
C199 C 0.82007 0.18975 -0.06314 0.0
C200 C 0.77619 0.19067 -0.04987 0.0
H201 H 0.89578 0.23066 0.90088 0.0
H202 H 0.82178 0.15642 -0.053 0.0
C203 C 0.77531 0.23446 -0.06414 0.0
loop_
_geom_bond_atom_site_label_1
_geom_bond_atom_site_label_2
_geom_bond_distance
_geom_bond_site_symmetry_2
_ccdc_geom_bond_type
O0 Cd1 2.223 . S
O0 C8 1.315 1_554 S
Cd1 O0 2.223 . S
Cd1 O4 2.297 . S
Cd1 O5 2.439 . S
Cd1 O11 2.240 . S
Cd2 O3 2.240 1_564 S
Cd2 O10 2.223 . S
Cd2 O12 2.297 . S
Cd2 O13 2.439 . S
O3 Cd2 2.240 1_546 S
O3 C8 1.279 . S
O4 Cd1 2.297 . S
O4 C6 1.247 . S
O5 Cd1 2.439 . S
O5 C6 1.208 . S
C6 O4 1.247 . S
C6 O5 1.208 . S
C7 O12 1.247 . S
C7 O13 1.208 . S
C8 O0 1.315 1_556 S
C8 O3 1.279 . S
C9 O10 1.315 . S
C9 O11 1.279 1_565 S
O10 Cd2 2.223 . S
O10 C9 1.315 . S
O11 Cd1 2.240 . S
O11 C9 1.279 1_545 S
O12 Cd2 2.297 . S
O12 C7 1.247 . S
O13 Cd2 2.439 . S
O13 C7 1.208 . S
O14 Cd15 2.223 . S
O14 C22 1.315 . S
Cd15 O14 2.223 . S
Cd15 O18 2.297 . S
Cd15 O19 2.439 . S
Cd15 O25 2.240 . S
Cd16 O17 2.240 . S
Cd16 O24 2.223 . S
Cd16 O26 2.297 . S
Cd16 O27 2.439 . S
O17 Cd16 2.240 . S
O17 C22 1.279 . S
O18 Cd15 2.297 . S
O18 C20 1.247 . S
O19 Cd15 2.439 . S
O19 C20 1.208 . S
C20 O18 1.247 . S
C20 O19 1.208 . S
C21 O26 1.247 . S
C21 O27 1.208 . S
C22 O14 1.315 . S
C22 O17 1.279 . S
C23 O24 1.315 . S
C23 O25 1.279 . S
O24 Cd16 2.223 . S
O24 C23 1.315 . S
O25 Cd15 2.240 . S
O25 C23 1.279 . S
O26 Cd16 2.297 . S
O26 C21 1.247 . S
O27 Cd16 2.439 . S
O27 C21 1.208 . S
O28 Cd29 2.223 . S
O28 C36 1.315 . S
Cd29 O28 2.223 . S
Cd29 O32 2.297 . S
Cd29 O33 2.439 . S
Cd29 O39 2.222 1_655 S
Cd30 O31 2.240 . S
Cd30 O38 2.223 . S
Cd30 O40 2.297 . S
Cd30 O41 2.439 . S
O31 Cd30 2.240 . S
O31 C36 1.279 1_455 S
O32 Cd29 2.297 . S
O32 C34 1.247 . S
O33 Cd29 2.439 . S
O33 C34 1.208 . S
C34 O32 1.247 . S
C34 O33 1.208 . S
C35 O40 1.247 . S
C35 O41 1.208 . S
C36 O28 1.315 . S
C36 O31 1.279 1_655 S
C37 O38 1.315 . S
C37 O39 1.298 . S
O38 Cd30 2.223 . S
O38 C37 1.315 . S
O39 Cd29 2.222 1_455 S
O39 C37 1.298 . S
O40 Cd30 2.297 . S
O40 C35 1.247 . S
O41 Cd30 2.439 . S
O41 C35 1.208 . S
O42 Cd43 2.223 . S
O42 C50 1.315 . S
Cd43 O42 2.223 . S
Cd43 O46 2.297 . S
Cd43 O47 2.439 . S
Cd43 O53 2.240 1_565 S
Cd44 O45 2.240 . S
Cd44 O52 2.223 . S
Cd44 O54 2.297 . S
Cd44 O55 2.439 . S
O45 Cd44 2.240 . S
O45 C50 1.279 1_545 S
O46 Cd43 2.297 . S
O46 C48 1.247 . S
O47 Cd43 2.439 . S
O47 C48 1.208 . S
C48 O46 1.247 . S
C48 O47 1.208 . S
C49 O54 1.247 . S
C49 O55 1.208 . S
C50 O42 1.315 . S
C50 O45 1.279 1_565 S
C51 O52 1.315 . S
C51 O53 1.279 . S
O52 Cd44 2.223 . S
O52 C51 1.315 . S
O53 Cd43 2.240 1_545 S
O53 C51 1.279 . S
O54 Cd44 2.297 . S
O54 C49 1.247 . S
O55 Cd44 2.439 . S
O55 C49 1.208 . S
O56 Cd57 2.223 . S
O56 C64 1.315 . S
Cd57 O56 2.223 . S
Cd57 O60 2.297 . S
Cd57 O61 2.439 . S
Cd57 O67 2.240 . S
Cd58 O59 2.240 . S
Cd58 O66 2.223 . S
Cd58 O68 2.297 . S
Cd58 O69 2.439 . S
O59 Cd58 2.240 . S
O59 C64 1.279 . S
O60 Cd57 2.297 . S
O60 C62 1.247 . S
O61 Cd57 2.439 . S
O61 C62 1.208 . S
C62 O60 1.247 . S
C62 O61 1.208 . S
C63 O68 1.247 . S
C63 O69 1.208 . S
C64 O56 1.315 . S
C64 O59 1.279 . S
C65 O66 1.315 . S
C65 O67 1.279 . S
O66 Cd58 2.223 . S
O66 C65 1.315 . S
O67 Cd57 2.240 . S
O67 C65 1.279 . S
O68 Cd58 2.297 . S
O68 C63 1.247 . S
O69 Cd58 2.439 . S
O69 C63 1.208 . S
O70 Cd71 2.223 . S
O70 C78 1.315 . S
Cd71 O70 2.223 . S
Cd71 O74 2.297 . S
Cd71 O75 2.439 . S
Cd71 O81 2.240 1_556 S
Cd72 O73 2.227 1_655 S
Cd72 O80 2.223 . S
Cd72 O82 2.297 . S
Cd72 O83 2.439 . S
O73 Cd72 2.227 1_455 S
O73 C78 1.280 . S
O74 Cd71 2.297 . S
O74 C76 1.247 . S
O75 Cd71 2.439 . S
O75 C76 1.208 . S
C76 O74 1.247 . S
C76 O75 1.208 . S
C77 O82 1.247 . S
C77 O83 1.208 . S
C78 O70 1.315 . S
C78 O73 1.280 . S
C79 O80 1.315 1_554 S
C79 O81 1.279 1_655 S
O80 Cd72 2.223 . S
O80 C79 1.315 1_556 S
O81 Cd71 2.240 1_554 S
O81 C79 1.279 1_455 S
O82 Cd72 2.297 . S
O82 C77 1.247 . S
O83 Cd72 2.439 . S
O83 C77 1.208 . S
C84 C85 1.387 1_545 S
C84 H88 0.950 . S
C84 C93 1.390 . S
C85 C84 1.387 1_565 S
C85 C87 1.387 . S
H86 C93 0.950 . S
C87 C85 1.387 . S
C87 C89 1.390 . S
C87 H91 0.950 . S
H88 C84 0.950 . S
C89 C87 1.390 . S
C89 C90 1.387 . S
C89 H92 0.950 . S
C90 C89 1.387 . S
C90 C93 1.387 1_565 S
H91 C87 0.950 . S
H92 C89 0.950 . S
C93 C84 1.390 . S
C93 H86 0.950 . S
C93 C90 1.387 1_545 S
C94 C95 1.387 . S
C94 H98 0.950 . S
C94 C103 1.390 . S
C95 C94 1.387 . S
C95 C97 1.387 . S
H96 C103 0.950 . S
C97 C95 1.387 . S
C97 C99 1.390 . S
C97 H101 0.950 . S
H98 C94 0.950 . S
C99 C97 1.390 . S
C99 C100 1.387 . S
C99 H102 0.950 . S
C100 C99 1.387 . S
C100 C103 1.387 . S
H101 C97 0.950 . S
H102 C99 0.950 . S
C103 C94 1.390 . S
C103 H96 0.950 . S
C103 C100 1.387 . S
C104 C105 1.387 1_655 S
C104 H108 0.950 . S
C104 C113 1.390 . S
C105 C104 1.387 1_455 S
C105 C107 1.387 . S
H106 C113 0.950 . S
C107 C105 1.387 . S
C107 C109 1.390 . S
C107 H111 0.950 . S
H108 C104 0.950 . S
C109 C107 1.390 . S
C109 C110 1.387 . S
C109 H112 0.950 . S
C110 C109 1.387 . S
C110 C113 1.387 1_455 S
H111 C107 0.950 . S
H112 C109 0.950 . S
C113 C104 1.390 . S
C113 H106 0.950 . S
C113 C110 1.387 1_655 S
C114 C115 1.387 . S
C114 H118 0.950 . S
C114 C123 1.390 . S
C115 C114 1.387 . S
C115 C117 1.387 1_545 S
H116 C123 0.950 . S
C117 C115 1.387 1_565 S
C117 C119 1.390 . S
C117 H121 0.950 . S
H118 C114 0.950 . S
C119 C117 1.390 . S
C119 C120 1.387 1_565 S
C119 H122 0.950 . S
C120 C119 1.387 1_545 S
C120 C123 1.387 . S
H121 C117 0.950 . S
H122 C119 0.950 . S
C123 C114 1.390 . S
C123 H116 0.950 . S
C123 C120 1.387 . S
C124 C125 1.387 . S
C124 H128 0.950 . S
C124 C133 1.390 . S
C125 C124 1.387 . S
C125 C127 1.387 1_554 S
H126 C133 0.950 . S
C127 C125 1.387 1_556 S
C127 C129 1.390 . S
C127 H131 0.950 . S
H128 C124 0.950 . S
C129 C127 1.390 . S
C129 C130 1.387 . S
C129 H132 0.950 . S
C130 C129 1.387 . S
C130 C133 1.387 1_556 S
H131 C127 0.950 . S
H132 C129 0.950 . S
C133 C124 1.390 . S
C133 H126 0.950 . S
C133 C130 1.387 1_554 S
C134 C135 1.387 . S
C134 H138 0.950 . S
C134 C143 1.390 . S
C135 C134 1.387 . S
C135 C137 1.387 . S
H136 C143 0.950 . S
C137 C135 1.387 . S
C137 C139 1.390 . S
C137 H141 0.950 1_655 S
H138 C134 0.950 . S
C139 C137 1.390 . S
C139 C140 1.387 . S
C139 H142 0.950 1_655 S
C140 C139 1.387 . S
C140 C143 1.387 . S
H141 C137 0.950 1_455 S
H142 C139 0.950 1_455 S
C143 C134 1.390 . S
C143 H136 0.950 . S
C143 C140 1.387 . S
C144 C145 1.387 . S
C144 H148 0.950 . S
C144 C153 1.390 . S
C145 C144 1.387 . S
C145 C147 1.387 . S
H146 C153 0.950 . S
C147 C145 1.387 . S
C147 C149 1.390 . S
C147 H151 0.950 . S
H148 C144 0.950 . S
C149 C147 1.390 . S
C149 C150 1.387 . S
C149 H152 0.950 . S
C150 C149 1.387 . S
C150 C153 1.387 . S
H151 C147 0.950 . S
H152 C149 0.950 . S
C153 C144 1.390 . S
C153 H146 0.950 . S
C153 C150 1.387 . S
C154 C155 1.387 . S
C154 H158 0.950 . S
C154 C163 1.390 . S
C155 C154 1.387 . S
C155 C157 1.387 . S
H156 C163 0.950 . S
C157 C155 1.387 . S
C157 C159 1.390 . S
C157 H161 0.950 . S
H158 C154 0.950 . S
C159 C157 1.390 . S
C159 C160 1.387 . S
C159 H162 0.950 . S
C160 C159 1.387 . S
C160 C163 1.387 . S
H161 C157 0.950 . S
H162 C159 0.950 . S
C163 C154 1.390 . S
C163 H156 0.950 . S
C163 C160 1.387 . S
C164 C165 1.387 . S
C164 H168 0.950 . S
C164 C173 1.390 . S
C165 C164 1.387 . S
C165 C167 1.387 . S
H166 C173 0.950 . S
C167 C165 1.387 . S
C167 C169 1.390 . S
C167 H171 0.950 . S
H168 C164 0.950 . S
C169 C167 1.390 . S
C169 C170 1.387 . S
C169 H172 0.950 . S
C170 C169 1.387 . S
C170 C173 1.387 . S
H171 C167 0.950 . S
H172 C169 0.950 . S
C173 C164 1.390 . S
C173 H166 0.950 . S
C173 C170 1.387 . S
C174 C175 1.387 . S
C174 H178 0.950 . S
C174 C183 1.390 . S
C175 C174 1.387 . S
C175 C177 1.387 . S
H176 C183 0.950 . S
C177 C175 1.387 . S
C177 C179 1.390 . S
C177 H181 0.950 . S
H178 C174 0.950 . S
C179 C177 1.390 . S
C179 C180 1.387 . S
C179 H182 0.950 . S
C180 C179 1.387 . S
C180 C183 1.387 . S
H181 C177 0.950 . S
H182 C179 0.950 . S
C183 C174 1.390 . S
C183 H176 0.950 . S
C183 C180 1.387 . S
C184 C185 1.387 . S
C184 H188 0.950 . S
C184 C193 1.390 . S
C185 C184 1.387 . S
C185 C187 1.387 . S
H186 C193 0.950 . S
C187 C185 1.387 . S
C187 C189 1.390 . S
C187 H191 0.950 . S
H188 C184 0.950 . S
C189 C187 1.390 . S
C189 C190 1.387 . S
C189 H192 0.950 . S
C190 C189 1.387 . S
C190 C193 1.387 . S
H191 C187 0.950 . S
H192 C189 0.950 . S
C193 C184 1.390 . S
C193 H186 0.950 . S
C193 C190 1.387 . S
C194 C195 1.387 . S
C194 H198 0.950 . S
C194 C203 1.390 . S
C195 C194 1.387 . S
C195 C197 1.387 1_556 S
H196 C203 0.950 . S
C197 C195 1.387 1_554 S
C197 C199 1.390 . S
C197 H201 0.950 . S
H198 C194 0.950 . S
C199 C197 1.390 . S
C199 C200 1.387 1_554 S
C199 H202 0.950 . S
C200 C199 1.387 1_556 S
C200 C203 1.387 . S
H201 C197 0.950 . S
H202 C199 0.950 . S
C203 C194 1.390 . S
C203 H196 0.950 . S
C203 C200 1.387 . S
C85 C9 1.759 . S
C90 C50 1.759 . S
C95 C23 1.760 . S
C100 C64 1.760 . S
C105 C78 1.760 . S
C110 C37 1.759 . S
C115 C8 1.760 . S
C120 C51 1.760 . S
C125 C22 1.760 . S
C130 C65 1.759 . S
C135 C79 1.760 . S
C140 C36 1.759 . S
C145 C20 1.457 . S
C150 C7 1.460 . S
C155 C34 1.457 . S
C160 C21 1.457 . S
C165 C35 1.459 . S
C170 C48 1.457 . S
C175 C62 1.457 . S
C180 C49 1.460 . S
C185 C76 1.456 . S
C190 C63 1.456 . S
C195 C77 1.457 . S
C200 C6 1.459 1_556 S
