# Generated by pormake.
# Topology qtz, (4)-cn, num edge types: 1
# Building blocks:
#     Node 0, Type 0, BuildingBlock: UXUYUI_clean_sbu_0, # of connection points: 4
#     Node 1, Type 0, BuildingBlock: UXUYUI_clean_sbu_0, # of connection points: 4
#     Node 2, Type 0, BuildingBlock: UXUYUI_clean_sbu_0, # of connection points: 4
#     Edge 3, Type (0, 0), None
#     Edge 4, Type (0, 0), None
#     Edge 5, Type (0, 0), None
#     Edge 6, Type (0, 0), None
#     Edge 7, Type (0, 0), None
#     Edge 8, Type (0, 0), None
# Relax obj value: 0.181
# Max RMSD: 0.212
# Mean RMSD: 0.212
data_MOF--net-qtz--node1-UXUYUI_clean_sbu_0--edge1-none
_symmetry_space_group_name_H-M    P1
_symmetry_Int_Tables_number       1
_symmetry_cell_setting            triclinic
loop_
_symmetry_equiv_pos_as_xyz
'x, y, z'
_cell_length_a     21.574851
_cell_length_b     21.575381
_cell_length_c     25.607876
_cell_angle_alpha  89.99906
_cell_angle_beta   90.000951
_cell_angle_gamma 120.00243
loop_
_atom_site_label
_atom_site_type_symbol
_atom_site_fract_x
_atom_site_fract_y
_atom_site_fract_z
_atom_type_partial_charge
Li0 Li 0.04902 0.48308 0.13559 0.0
Li1 Li 0.04902 0.56631 0.20231 0.0
Li2 Li 0.95307 0.4351 0.20232 0.0
Li3 Li 0.95307 0.51833 0.13559 0.0
C4 C 0.0997 0.45309 0.23 0.0
N5 N 0.18404 0.39888 0.26532 0.0
C6 C 0.1674 0.49898 0.25088 0.0
C7 C 0.07446 0.37959 0.22769 0.0
C8 C 0.20936 0.47054 0.26834 0.0
C9 C 0.11803 0.35323 0.24558 0.0
C10 C 0.0997 0.64698 0.10791 0.0
C11 C 0.11804 0.76517 0.09233 0.0
N12 N 0.18405 0.78554 0.07259 0.0
C13 C 0.1674 0.66879 0.08703 0.0
C14 C 0.07447 0.69524 0.11022 0.0
C15 C 0.20937 0.73919 0.06957 0.0
C16 C 0.08564 0.43836 0.04297 0.0
N17 N 0.10977 0.46589 0.09133 0.0
C18 C 0.22505 0.48121 0.07215 0.0
C19 C 0.17796 0.48719 0.10639 0.0
C20 C 0.20215 0.45435 0.02155 0.0
C21 C 0.13119 0.43213 0.00722 0.0
H22 H 0.03155 0.42312 0.03165 0.0
H23 H 0.19673 0.51133 0.14424 0.0
C24 C 0.08564 0.64764 0.29494 0.0
N25 N 0.10977 0.64425 0.24658 0.0
C26 C 0.1312 0.69943 0.33068 0.0
C27 C 0.22506 0.74422 0.26576 0.0
C28 C 0.17796 0.69113 0.23152 0.0
C29 C 0.20216 0.74817 0.31636 0.0
H30 H 0.03155 0.60879 0.30626 0.0
H31 H 0.19673 0.68577 0.19366 0.0
C32 C 0.90239 0.35444 0.10792 0.0
N33 N 0.81805 0.21587 0.0726 0.0
C34 C 0.8347 0.33262 0.08703 0.0
C35 C 0.92763 0.30617 0.11023 0.0
C36 C 0.79273 0.26222 0.06957 0.0
C37 C 0.88406 0.23624 0.09233 0.0
C38 C 0.9024 0.54832 0.22999 0.0
C39 C 0.8347 0.50244 0.25088 0.0
C40 C 0.92763 0.62182 0.22768 0.0
C41 C 0.79274 0.53088 0.26834 0.0
C42 C 0.88407 0.64819 0.24558 0.0
N43 N 0.81806 0.60254 0.26531 0.0
C44 C 0.91645 0.35377 0.29495 0.0
C45 C 0.82413 0.31028 0.23152 0.0
C46 C 0.87089 0.30199 0.33069 0.0
N47 N 0.89232 0.35716 0.24658 0.0
C48 C 0.77703 0.2572 0.26576 0.0
C49 C 0.79994 0.25324 0.31636 0.0
H50 H 0.97054 0.39262 0.30626 0.0
H51 H 0.80537 0.31565 0.19367 0.0
C52 C 0.91645 0.56304 0.04296 0.0
N53 N 0.89232 0.53552 0.09133 0.0
C54 C 0.87089 0.56927 0.00722 0.0
C55 C 0.77703 0.52019 0.07215 0.0
C56 C 0.82413 0.51421 0.10639 0.0
C57 C 0.79993 0.54705 0.02155 0.0
H58 H 0.97053 0.57828 0.03165 0.0
H59 H 0.80537 0.49008 0.14425 0.0
O60 O 0.05786 0.48006 0.21301 0.0
O61 O 0.05786 0.57817 0.12489 0.0
O62 O 0.94423 0.42324 0.1249 0.0
O63 O 0.94424 0.52135 0.21301 0.0
H64 H 0.18741 0.55598 0.25329 0.0
H65 H 0.02162 0.34325 0.21267 0.0
H66 H 0.26203 0.50544 0.28434 0.0
H67 H 0.09927 0.29646 0.24395 0.0
H68 H 0.09928 0.80319 0.09396 0.0
H69 H 0.18741 0.6318 0.08462 0.0
H70 H 0.02162 0.67873 0.12524 0.0
H71 H 0.26203 0.75697 0.05357 0.0
H72 H 0.27974 0.50035 0.08438 0.0
H73 H 0.11148 0.41113 0.96858 0.0
H74 H 0.11148 0.70072 0.36933 0.0
H75 H 0.27975 0.77976 0.25354 0.0
H76 H 0.81468 0.36961 0.08462 0.0
H77 H 0.98048 0.32268 0.12525 0.0
H78 H 0.74006 0.24444 0.05357 0.0
H79 H 0.90282 0.19822 0.09397 0.0
H80 H 0.81469 0.44544 0.2533 0.0
H81 H 0.98048 0.65816 0.21266 0.0
H82 H 0.74007 0.49598 0.28434 0.0
H83 H 0.90283 0.70496 0.24394 0.0
H84 H 0.89061 0.3007 0.36934 0.0
H85 H 0.72235 0.22166 0.25354 0.0
H86 H 0.8906 0.59027 0.96858 0.0
H87 H 0.72234 0.50105 0.08438 0.0
Li88 Li 0.56665 0.04868 0.46894 0.0
Li89 Li 0.48342 0.04868 0.53566 0.0
Li90 Li 0.51867 0.95273 0.53566 0.0
Li91 Li 0.43544 0.95273 0.46893 0.0
C92 C 0.64732 0.09936 0.56334 0.0
N93 N 0.78588 0.18372 0.59865 0.0
C94 C 0.66913 0.16706 0.58422 0.0
C95 C 0.69559 0.07413 0.56103 0.0
C96 C 0.73953 0.20903 0.60168 0.0
C97 C 0.76552 0.11771 0.57893 0.0
C98 C 0.45343 0.09936 0.44125 0.0
C99 C 0.35357 0.1177 0.42566 0.0
N100 N 0.39922 0.1837 0.40593 0.0
C101 C 0.49932 0.16705 0.42037 0.0
C102 C 0.37993 0.07413 0.44356 0.0
C103 C 0.47089 0.20902 0.4029 0.0
C104 C 0.64798 0.0853 0.37631 0.0
N105 N 0.64459 0.10943 0.42467 0.0
C106 C 0.74456 0.22472 0.40549 0.0
C107 C 0.69147 0.17762 0.43973 0.0
C108 C 0.74851 0.20182 0.35489 0.0
C109 C 0.69977 0.13086 0.34056 0.0
H110 H 0.60913 0.03121 0.36499 0.0
H111 H 0.68611 0.19639 0.47758 0.0
C112 C 0.4387 0.0853 0.62828 0.0
N113 N 0.46623 0.10943 0.57992 0.0
C114 C 0.43247 0.13086 0.66402 0.0
C115 C 0.48155 0.22471 0.5991 0.0
C116 C 0.48753 0.17761 0.56486 0.0
C117 C 0.45469 0.20181 0.64969 0.0
H118 H 0.42346 0.03121 0.6396 0.0
H119 H 0.51167 0.19638 0.527 0.0
C120 C 0.54867 0.90207 0.44126 0.0
N121 N 0.60289 0.81774 0.40593 0.0
C122 C 0.50278 0.83437 0.42037 0.0
C123 C 0.62217 0.9273 0.44357 0.0
C124 C 0.53122 0.79241 0.4029 0.0
C125 C 0.64853 0.88374 0.42567 0.0
C126 C 0.35477 0.90206 0.56333 0.0
C127 C 0.33296 0.83436 0.58422 0.0
C128 C 0.3065 0.92729 0.56102 0.0
C129 C 0.26255 0.7924 0.60168 0.0
C130 C 0.23657 0.88372 0.57891 0.0
N131 N 0.2162 0.81772 0.59865 0.0
C132 C 0.56338 0.91611 0.62829 0.0
C133 C 0.51455 0.8238 0.56486 0.0
C134 C 0.56961 0.87054 0.66403 0.0
N135 N 0.53586 0.89198 0.57992 0.0
C136 C 0.52053 0.77669 0.5991 0.0
C137 C 0.54739 0.79959 0.6497 0.0
H138 H 0.57863 0.97019 0.6396 0.0
H139 H 0.49041 0.80503 0.527 0.0
C140 C 0.35411 0.91612 0.3763 0.0
N141 N 0.3575 0.89199 0.42467 0.0
C142 C 0.30232 0.87055 0.34056 0.0
C143 C 0.25754 0.7767 0.40548 0.0
C144 C 0.31062 0.8238 0.43973 0.0
C145 C 0.25358 0.7996 0.35489 0.0
H146 H 0.39296 0.9702 0.36499 0.0
H147 H 0.31599 0.80503 0.47758 0.0
O148 O 0.57851 0.05752 0.54636 0.0
O149 O 0.4804 0.05752 0.45824 0.0
O150 O 0.5217 0.9439 0.45824 0.0
O151 O 0.42358 0.9439 0.54636 0.0
H152 H 0.63214 0.18707 0.58663 0.0
H153 H 0.67908 0.02129 0.54601 0.0
H154 H 0.75731 0.2617 0.61767 0.0
H155 H 0.80354 0.09896 0.57729 0.0
H156 H 0.2968 0.09894 0.42729 0.0
H157 H 0.55633 0.18707 0.41796 0.0
H158 H 0.34359 0.02128 0.45858 0.0
H159 H 0.50578 0.26169 0.38691 0.0
H160 H 0.7801 0.27941 0.41771 0.0
H161 H 0.70106 0.11114 0.30192 0.0
H162 H 0.41146 0.11114 0.70267 0.0
H163 H 0.50069 0.2794 0.58687 0.0
H164 H 0.44578 0.81436 0.41795 0.0
H165 H 0.65851 0.98015 0.4586 0.0
H166 H 0.49633 0.73975 0.3869 0.0
H167 H 0.70531 0.9025 0.42731 0.0
H168 H 0.36994 0.81435 0.58664 0.0
H169 H 0.32302 0.98014 0.546 0.0
H170 H 0.24477 0.73973 0.61768 0.0
H171 H 0.19855 0.90248 0.57727 0.0
H172 H 0.59061 0.89026 0.70267 0.0
H173 H 0.50138 0.72201 0.58687 0.0
H174 H 0.30104 0.89027 0.30191 0.0
H175 H 0.222 0.72201 0.41771 0.0
Li176 Li 0.4834 0.43509 0.80226 0.0
Li177 Li 0.56664 0.51833 0.86898 0.0
Li178 Li 0.43543 0.48307 0.86898 0.0
Li179 Li 0.51866 0.5663 0.80226 0.0
C180 C 0.45341 0.35443 0.89666 0.0
N181 N 0.3992 0.21587 0.93198 0.0
C182 C 0.4993 0.33262 0.91755 0.0
C183 C 0.37991 0.30616 0.89436 0.0
C184 C 0.47086 0.26222 0.93501 0.0
C185 C 0.35355 0.23623 0.91225 0.0
C186 C 0.64731 0.54832 0.77458 0.0
C187 C 0.76551 0.64818 0.759 0.0
N188 N 0.78587 0.60253 0.73926 0.0
C189 C 0.66911 0.50243 0.7537 0.0
C190 C 0.69558 0.62182 0.77689 0.0
C191 C 0.73952 0.53087 0.73624 0.0
C192 C 0.43869 0.35376 0.70963 0.0
N193 N 0.46621 0.35715 0.758 0.0
C194 C 0.48154 0.2572 0.73882 0.0
C195 C 0.48752 0.31028 0.77306 0.0
C196 C 0.45468 0.25324 0.68822 0.0
C197 C 0.43247 0.30197 0.67389 0.0
H198 H 0.42345 0.3926 0.69831 0.0
H199 H 0.51166 0.31565 0.81091 0.0
C200 C 0.64798 0.56304 0.96161 0.0
N201 N 0.64458 0.53552 0.91324 0.0
C202 C 0.69976 0.56927 0.99735 0.0
C203 C 0.74454 0.52019 0.93243 0.0
C204 C 0.69146 0.51421 0.89818 0.0
C205 C 0.7485 0.54705 0.98303 0.0
H206 H 0.60913 0.57828 0.97293 0.0
H207 H 0.68609 0.49007 0.86033 0.0
C208 C 0.35476 0.45307 0.77458 0.0
N209 N 0.2162 0.39885 0.73926 0.0
C210 C 0.33295 0.49895 0.7537 0.0
C211 C 0.30649 0.37957 0.77689 0.0
C212 C 0.26254 0.47051 0.73623 0.0
C213 C 0.23656 0.3532 0.759 0.0
C214 C 0.54866 0.64696 0.89666 0.0
C215 C 0.50277 0.66877 0.91755 0.0
C216 C 0.62216 0.69523 0.89435 0.0
C217 C 0.53121 0.73917 0.93501 0.0
C218 C 0.64852 0.76516 0.91225 0.0
N219 N 0.60288 0.78552 0.93198 0.0
C220 C 0.3541 0.43835 0.96161 0.0
C221 C 0.31061 0.48718 0.89818 0.0
C222 C 0.30231 0.43213 0.99735 0.0
N223 N 0.35749 0.46587 0.91324 0.0
C224 C 0.25753 0.4812 0.93243 0.0
C225 C 0.25358 0.45435 0.98303 0.0
H226 H 0.39294 0.42311 0.97293 0.0
H227 H 0.31598 0.51132 0.86033 0.0
C228 C 0.56338 0.64764 0.70963 0.0
N229 N 0.53585 0.64424 0.758 0.0
C230 C 0.56961 0.69943 0.67389 0.0
C231 C 0.52053 0.7442 0.73882 0.0
C232 C 0.51455 0.69112 0.77306 0.0
C233 C 0.54739 0.74816 0.68822 0.0
H234 H 0.57862 0.6088 0.69831 0.0
H235 H 0.49041 0.68574 0.81091 0.0
O236 O 0.48038 0.42324 0.87968 0.0
O237 O 0.5785 0.52135 0.79156 0.0
O238 O 0.42357 0.48004 0.79156 0.0
O239 O 0.52169 0.57816 0.87968 0.0
H240 H 0.55631 0.36961 0.91996 0.0
H241 H 0.34357 0.32266 0.87933 0.0
H242 H 0.50576 0.24445 0.95101 0.0
H243 H 0.29677 0.19821 0.91061 0.0
H244 H 0.80353 0.70495 0.76063 0.0
H245 H 0.63212 0.44543 0.75128 0.0
H246 H 0.67907 0.65816 0.79191 0.0
H247 H 0.75729 0.49597 0.72024 0.0
H248 H 0.50069 0.22166 0.75105 0.0
H249 H 0.41146 0.30068 0.63524 0.0
H250 H 0.70106 0.59028 0.036 0.0
H251 H 0.78008 0.50105 0.9202 0.0
H252 H 0.36994 0.55596 0.75128 0.0
H253 H 0.323 0.34323 0.79192 0.0
H254 H 0.24477 0.5054 0.72024 0.0
H255 H 0.19854 0.29643 0.76063 0.0
H256 H 0.44577 0.63178 0.91996 0.0
H257 H 0.6585 0.67873 0.87932 0.0
H258 H 0.49632 0.75695 0.95101 0.0
H259 H 0.7053 0.80318 0.91061 0.0
H260 H 0.30102 0.41112 0.036 0.0
H261 H 0.22199 0.50035 0.9202 0.0
H262 H 0.59061 0.70072 0.63524 0.0
H263 H 0.50138 0.77974 0.75105 0.0
loop_
_geom_bond_atom_site_label_1
_geom_bond_atom_site_label_2
_geom_bond_distance
_geom_bond_site_symmetry_2
_ccdc_geom_bond_type
Li0 N17 1.990 . S
Li0 O60 1.956 . S
Li0 O61 1.970 . S
Li0 O62 1.961 1_455 S
Li1 N25 1.990 . S
Li1 O60 1.970 . S
Li1 O61 1.956 . S
Li1 O63 1.961 1_455 S
Li2 N47 1.990 . S
Li2 O60 1.961 1_655 S
Li2 O62 1.956 . S
Li2 O63 1.970 . S
Li3 N53 1.990 . S
Li3 O61 1.961 1_655 S
Li3 O62 1.970 . S
Li3 O63 1.956 . S
C4 C6 1.348 . S
C4 C7 1.356 . S
C4 O60 1.325 . S
N5 C8 1.314 . S
N5 C9 1.279 . S
C6 C4 1.348 . S
C6 C8 1.353 . S
C6 H64 0.929 . S
C7 C4 1.356 . S
C7 C9 1.358 . S
C7 H65 0.930 . S
C8 N5 1.314 . S
C8 C6 1.353 . S
C8 H66 0.930 . S
C9 N5 1.279 . S
C9 C7 1.358 . S
C9 H67 0.930 . S
C10 C13 1.348 . S
C10 C14 1.356 . S
C10 O61 1.325 . S
C11 N12 1.279 . S
C11 C14 1.358 . S
C11 H68 0.930 . S
N12 C11 1.279 . S
N12 C15 1.314 . S
C13 C10 1.348 . S
C13 C15 1.353 . S
C13 H69 0.929 . S
C14 C10 1.356 . S
C14 C11 1.358 . S
C14 H70 0.930 . S
C15 N12 1.314 . S
C15 C13 1.353 . S
C15 H71 0.930 . S
C16 N17 1.314 . S
C16 C21 1.353 . S
C16 H22 0.930 . S
N17 Li0 1.990 . S
N17 C16 1.314 . S
N17 C19 1.279 . S
C18 C19 1.358 . S
C18 C20 1.356 . S
C18 H72 0.930 . S
C19 N17 1.279 . S
C19 C18 1.358 . S
C19 H23 0.930 . S
C20 C18 1.356 . S
C20 C21 1.348 . S
C21 C16 1.353 . S
C21 C20 1.348 . S
C21 H73 0.929 1_554 S
H22 C16 0.930 . S
H23 C19 0.930 . S
C24 N25 1.314 . S
C24 C26 1.353 . S
C24 H30 0.930 . S
N25 Li1 1.990 . S
N25 C24 1.314 . S
N25 C28 1.279 . S
C26 C24 1.353 . S
C26 C29 1.348 . S
C26 H74 0.929 . S
C27 C28 1.358 . S
C27 C29 1.356 . S
C27 H75 0.930 . S
C28 N25 1.279 . S
C28 C27 1.358 . S
C28 H31 0.930 . S
C29 C26 1.348 . S
C29 C27 1.356 . S
H30 C24 0.930 . S
H31 C28 0.930 . S
C32 C34 1.348 . S
C32 C35 1.356 . S
C32 O62 1.325 . S
N33 C36 1.314 . S
N33 C37 1.279 . S
C34 C32 1.348 . S
C34 C36 1.353 . S
C34 H76 0.929 . S
C35 C32 1.356 . S
C35 C37 1.358 . S
C35 H77 0.930 . S
C36 N33 1.314 . S
C36 C34 1.353 . S
C36 H78 0.930 . S
C37 N33 1.279 . S
C37 C35 1.358 . S
C37 H79 0.930 . S
C38 C39 1.348 . S
C38 C40 1.356 . S
C38 O63 1.325 . S
C39 C38 1.348 . S
C39 C41 1.353 . S
C39 H80 0.929 . S
C40 C38 1.356 . S
C40 C42 1.358 . S
C40 H81 0.930 . S
C41 C39 1.353 . S
C41 N43 1.314 . S
C41 H82 0.930 . S
C42 C40 1.358 . S
C42 N43 1.279 . S
C42 H83 0.930 . S
N43 C41 1.314 . S
N43 C42 1.279 . S
C44 C46 1.353 . S
C44 N47 1.314 . S
C44 H50 0.930 . S
C45 N47 1.279 . S
C45 C48 1.358 . S
C45 H51 0.930 . S
C46 C44 1.353 . S
C46 C49 1.348 . S
C46 H84 0.929 . S
N47 Li2 1.990 . S
N47 C44 1.314 . S
N47 C45 1.279 . S
C48 C45 1.358 . S
C48 C49 1.356 . S
C48 H85 0.930 . S
C49 C46 1.348 . S
C49 C48 1.356 . S
H50 C44 0.930 . S
H51 C45 0.930 . S
C52 N53 1.314 . S
C52 C54 1.353 . S
C52 H58 0.930 . S
N53 Li3 1.990 . S
N53 C52 1.314 . S
N53 C56 1.279 . S
C54 C52 1.353 . S
C54 C57 1.348 . S
C54 H86 0.929 1_554 S
C55 C56 1.358 . S
C55 C57 1.356 . S
C55 H87 0.930 . S
C56 N53 1.279 . S
C56 C55 1.358 . S
C56 H59 0.930 . S
C57 C54 1.348 . S
C57 C55 1.356 . S
H58 C52 0.930 . S
H59 C56 0.930 . S
O60 Li0 1.956 . S
O60 Li1 1.970 . S
O60 Li2 1.961 1_455 S
O60 C4 1.325 . S
O61 Li0 1.970 . S
O61 Li1 1.956 . S
O61 Li3 1.961 1_455 S
O61 C10 1.325 . S
O62 Li0 1.961 1_655 S
O62 Li2 1.956 . S
O62 Li3 1.970 . S
O62 C32 1.325 . S
O63 Li1 1.961 1_655 S
O63 Li2 1.970 . S
O63 Li3 1.956 . S
O63 C38 1.325 . S
H64 C6 0.929 . S
H65 C7 0.930 . S
H66 C8 0.930 . S
H67 C9 0.930 . S
H68 C11 0.930 . S
H69 C13 0.929 . S
H70 C14 0.930 . S
H71 C15 0.930 . S
H72 C18 0.930 . S
H73 C21 0.929 1_556 S
H74 C26 0.929 . S
H75 C27 0.930 . S
H76 C34 0.929 . S
H77 C35 0.930 . S
H78 C36 0.930 . S
H79 C37 0.930 . S
H80 C39 0.929 . S
H81 C40 0.930 . S
H82 C41 0.930 . S
H83 C42 0.930 . S
H84 C46 0.929 . S
H85 C48 0.930 . S
H86 C54 0.929 1_556 S
H87 C55 0.930 . S
Li88 N105 1.990 . S
Li88 O148 1.956 . S
Li88 O149 1.970 . S
Li88 O150 1.961 1_545 S
Li89 N113 1.990 . S
Li89 O148 1.970 . S
Li89 O149 1.956 . S
Li89 O151 1.961 1_545 S
Li90 N135 1.990 . S
Li90 O148 1.961 1_565 S
Li90 O150 1.956 . S
Li90 O151 1.970 . S
Li91 N141 1.990 . S
Li91 O149 1.961 1_565 S
Li91 O150 1.970 . S
Li91 O151 1.956 . S
C92 C94 1.348 . S
C92 C95 1.356 . S
C92 O148 1.325 . S
N93 C96 1.314 . S
N93 C97 1.279 . S
C94 C92 1.348 . S
C94 C96 1.353 . S
C94 H152 0.929 . S
C95 C92 1.356 . S
C95 C97 1.358 . S
C95 H153 0.930 . S
C96 N93 1.314 . S
C96 C94 1.353 . S
C96 H154 0.930 . S
C97 N93 1.279 . S
C97 C95 1.358 . S
C97 H155 0.930 . S
C98 C101 1.348 . S
C98 C102 1.356 . S
C98 O149 1.325 . S
C99 N100 1.279 . S
C99 C102 1.358 . S
C99 H156 0.930 . S
N100 C99 1.279 . S
N100 C103 1.314 . S
C101 C98 1.348 . S
C101 C103 1.353 . S
C101 H157 0.929 . S
C102 C98 1.356 . S
C102 C99 1.358 . S
C102 H158 0.930 . S
C103 N100 1.314 . S
C103 C101 1.353 . S
C103 H159 0.930 . S
C104 N105 1.314 . S
C104 C109 1.353 . S
C104 H110 0.930 . S
N105 Li88 1.990 . S
N105 C104 1.314 . S
N105 C107 1.279 . S
C106 C107 1.358 . S
C106 C108 1.356 . S
C106 H160 0.930 . S
C107 N105 1.279 . S
C107 C106 1.358 . S
C107 H111 0.930 . S
C108 C106 1.356 . S
C108 C109 1.348 . S
C109 C104 1.353 . S
C109 C108 1.348 . S
C109 H161 0.929 . S
H110 C104 0.930 . S
H111 C107 0.930 . S
C112 N113 1.314 . S
C112 C114 1.353 . S
C112 H118 0.930 . S
N113 Li89 1.990 . S
N113 C112 1.314 . S
N113 C116 1.279 . S
C114 C112 1.353 . S
C114 C117 1.348 . S
C114 H162 0.929 . S
C115 C116 1.358 . S
C115 C117 1.356 . S
C115 H163 0.930 . S
C116 N113 1.279 . S
C116 C115 1.358 . S
C116 H119 0.930 . S
C117 C114 1.348 . S
C117 C115 1.356 . S
H118 C112 0.930 . S
H119 C116 0.930 . S
C120 C122 1.348 . S
C120 C123 1.356 . S
C120 O150 1.325 . S
N121 C124 1.314 . S
N121 C125 1.279 . S
C122 C120 1.348 . S
C122 C124 1.353 . S
C122 H164 0.929 . S
C123 C120 1.356 . S
C123 C125 1.358 . S
C123 H165 0.930 . S
C124 N121 1.314 . S
C124 C122 1.353 . S
C124 H166 0.930 . S
C125 N121 1.279 . S
C125 C123 1.358 . S
C125 H167 0.930 . S
C126 C127 1.348 . S
C126 C128 1.356 . S
C126 O151 1.325 . S
C127 C126 1.348 . S
C127 C129 1.353 . S
C127 H168 0.929 . S
C128 C126 1.356 . S
C128 C130 1.358 . S
C128 H169 0.930 . S
C129 C127 1.353 . S
C129 N131 1.314 . S
C129 H170 0.930 . S
C130 C128 1.358 . S
C130 N131 1.279 . S
C130 H171 0.930 . S
N131 C129 1.314 . S
N131 C130 1.279 . S
C132 C134 1.353 . S
C132 N135 1.314 . S
C132 H138 0.930 . S
C133 N135 1.279 . S
C133 C136 1.358 . S
C133 H139 0.930 . S
C134 C132 1.353 . S
C134 C137 1.348 . S
C134 H172 0.929 . S
N135 Li90 1.990 . S
N135 C132 1.314 . S
N135 C133 1.279 . S
C136 C133 1.358 . S
C136 C137 1.356 . S
C136 H173 0.930 . S
C137 C134 1.348 . S
C137 C136 1.356 . S
H138 C132 0.930 . S
H139 C133 0.930 . S
C140 N141 1.314 . S
C140 C142 1.353 . S
C140 H146 0.930 . S
N141 Li91 1.990 . S
N141 C140 1.314 . S
N141 C144 1.279 . S
C142 C140 1.353 . S
C142 C145 1.348 . S
C142 H174 0.929 . S
C143 C144 1.358 . S
C143 C145 1.356 . S
C143 H175 0.930 . S
C144 N141 1.279 . S
C144 C143 1.358 . S
C144 H147 0.930 . S
C145 C142 1.348 . S
C145 C143 1.356 . S
H146 C140 0.930 . S
H147 C144 0.930 . S
O148 Li88 1.956 . S
O148 Li89 1.970 . S
O148 Li90 1.961 1_545 S
O148 C92 1.325 . S
O149 Li88 1.970 . S
O149 Li89 1.956 . S
O149 Li91 1.961 1_545 S
O149 C98 1.325 . S
O150 Li88 1.961 1_565 S
O150 Li90 1.956 . S
O150 Li91 1.970 . S
O150 C120 1.325 . S
O151 Li89 1.961 1_565 S
O151 Li90 1.970 . S
O151 Li91 1.956 . S
O151 C126 1.325 . S
H152 C94 0.929 . S
H153 C95 0.930 . S
H154 C96 0.930 . S
H155 C97 0.930 . S
H156 C99 0.930 . S
H157 C101 0.929 . S
H158 C102 0.930 . S
H159 C103 0.930 . S
H160 C106 0.930 . S
H161 C109 0.929 . S
H162 C114 0.929 . S
H163 C115 0.930 . S
H164 C122 0.929 . S
H165 C123 0.930 . S
H166 C124 0.930 . S
H167 C125 0.930 . S
H168 C127 0.929 . S
H169 C128 0.930 . S
H170 C129 0.930 . S
H171 C130 0.930 . S
H172 C134 0.929 . S
H173 C136 0.930 . S
H174 C142 0.929 . S
H175 C143 0.930 . S
Li176 N193 1.990 . S
Li176 O236 1.956 . S
Li176 O237 1.970 . S
Li176 O238 1.961 . S
Li177 N201 1.990 . S
Li177 O236 1.970 . S
Li177 O237 1.956 . S
Li177 O239 1.961 . S
Li178 N223 1.990 . S
Li178 O236 1.961 . S
Li178 O238 1.956 . S
Li178 O239 1.970 . S
Li179 N229 1.990 . S
Li179 O237 1.961 . S
Li179 O238 1.970 . S
Li179 O239 1.956 . S
C180 C182 1.348 . S
C180 C183 1.356 . S
C180 O236 1.325 . S
N181 C184 1.314 . S
N181 C185 1.279 . S
C182 C180 1.348 . S
C182 C184 1.353 . S
C182 H240 0.929 . S
C183 C180 1.356 . S
C183 C185 1.358 . S
C183 H241 0.930 . S
C184 N181 1.314 . S
C184 C182 1.353 . S
C184 H242 0.930 . S
C185 N181 1.279 . S
C185 C183 1.358 . S
C185 H243 0.930 . S
C186 C189 1.348 . S
C186 C190 1.356 . S
C186 O237 1.325 . S
C187 N188 1.279 . S
C187 C190 1.358 . S
C187 H244 0.930 . S
N188 C187 1.279 . S
N188 C191 1.314 . S
C189 C186 1.348 . S
C189 C191 1.353 . S
C189 H245 0.929 . S
C190 C186 1.356 . S
C190 C187 1.358 . S
C190 H246 0.930 . S
C191 N188 1.314 . S
C191 C189 1.353 . S
C191 H247 0.930 . S
C192 N193 1.314 . S
C192 C197 1.353 . S
C192 H198 0.930 . S
N193 Li176 1.990 . S
N193 C192 1.314 . S
N193 C195 1.279 . S
C194 C195 1.358 . S
C194 C196 1.356 . S
C194 H248 0.930 . S
C195 N193 1.279 . S
C195 C194 1.358 . S
C195 H199 0.930 . S
C196 C194 1.356 . S
C196 C197 1.348 . S
C197 C192 1.353 . S
C197 C196 1.348 . S
C197 H249 0.929 . S
H198 C192 0.930 . S
H199 C195 0.930 . S
C200 N201 1.314 . S
C200 C202 1.353 . S
C200 H206 0.930 . S
N201 Li177 1.990 . S
N201 C200 1.314 . S
N201 C204 1.279 . S
C202 C200 1.353 . S
C202 C205 1.348 . S
C202 H250 0.929 1_556 S
C203 C204 1.358 . S
C203 C205 1.356 . S
C203 H251 0.930 . S
C204 N201 1.279 . S
C204 C203 1.358 . S
C204 H207 0.930 . S
C205 C202 1.348 . S
C205 C203 1.356 . S
H206 C200 0.930 . S
H207 C204 0.930 . S
C208 C210 1.348 . S
C208 C211 1.356 . S
C208 O238 1.325 . S
N209 C212 1.314 . S
N209 C213 1.279 . S
C210 C208 1.348 . S
C210 C212 1.353 . S
C210 H252 0.929 . S
C211 C208 1.356 . S
C211 C213 1.358 . S
C211 H253 0.930 . S
C212 N209 1.314 . S
C212 C210 1.353 . S
C212 H254 0.930 . S
C213 N209 1.279 . S
C213 C211 1.358 . S
C213 H255 0.930 . S
C214 C215 1.348 . S
C214 C216 1.356 . S
C214 O239 1.325 . S
C215 C214 1.348 . S
C215 C217 1.353 . S
C215 H256 0.929 . S
C216 C214 1.356 . S
C216 C218 1.358 . S
C216 H257 0.930 . S
C217 C215 1.353 . S
C217 N219 1.314 . S
C217 H258 0.930 . S
C218 C216 1.358 . S
C218 N219 1.279 . S
C218 H259 0.930 . S
N219 C217 1.314 . S
N219 C218 1.279 . S
C220 C222 1.353 . S
C220 N223 1.314 . S
C220 H226 0.930 . S
C221 N223 1.279 . S
C221 C224 1.358 . S
C221 H227 0.930 . S
C222 C220 1.353 . S
C222 C225 1.348 . S
C222 H260 0.929 1_556 S
N223 Li178 1.990 . S
N223 C220 1.314 . S
N223 C221 1.279 . S
C224 C221 1.358 . S
C224 C225 1.356 . S
C224 H261 0.930 . S
C225 C222 1.348 . S
C225 C224 1.356 . S
H226 C220 0.930 . S
H227 C221 0.930 . S
C228 N229 1.314 . S
C228 C230 1.353 . S
C228 H234 0.930 . S
N229 Li179 1.990 . S
N229 C228 1.314 . S
N229 C232 1.279 . S
C230 C228 1.353 . S
C230 C233 1.348 . S
C230 H262 0.929 . S
C231 C232 1.358 . S
C231 C233 1.356 . S
C231 H263 0.930 . S
C232 N229 1.279 . S
C232 C231 1.358 . S
C232 H235 0.930 . S
C233 C230 1.348 . S
C233 C231 1.356 . S
H234 C228 0.930 . S
H235 C232 0.930 . S
O236 Li176 1.956 . S
O236 Li177 1.970 . S
O236 Li178 1.961 . S
O236 C180 1.325 . S
O237 Li176 1.970 . S
O237 Li177 1.956 . S
O237 Li179 1.961 . S
O237 C186 1.325 . S
O238 Li176 1.961 . S
O238 Li178 1.956 . S
O238 Li179 1.970 . S
O238 C208 1.325 . S
O239 Li177 1.961 . S
O239 Li178 1.970 . S
O239 Li179 1.956 . S
O239 C214 1.325 . S
H240 C182 0.929 . S
H241 C183 0.930 . S
H242 C184 0.930 . S
H243 C185 0.930 . S
H244 C187 0.930 . S
H245 C189 0.929 . S
H246 C190 0.930 . S
H247 C191 0.930 . S
H248 C194 0.930 . S
H249 C197 0.929 . S
H250 C202 0.929 1_554 S
H251 C203 0.930 . S
H252 C210 0.929 . S
H253 C211 0.930 . S
H254 C212 0.930 . S
H255 C213 0.930 . S
H256 C215 0.929 . S
H257 C216 0.930 . S
H258 C217 0.930 . S
H259 C218 0.930 . S
H260 C222 0.929 1_554 S
H261 C224 0.930 . S
H262 C230 0.929 . S
H263 C231 0.930 . S
C225 C20 1.314 1_556 S
C49 C108 1.314 . S
C137 C233 1.315 . S
C205 C57 1.314 1_556 S
C145 C29 1.314 . S
C196 C117 1.314 . S
