# Generated by pormake.
# Topology uom, (4)-cn, num edge types: 1
# Building blocks:
#     Node 0, Type 0, BuildingBlock: ESEHIV_clean_sbu_0, # of connection points: 4
#     Node 1, Type 0, BuildingBlock: ESEHIV_clean_sbu_0, # of connection points: 4
#     Node 2, Type 0, BuildingBlock: ESEHIV_clean_sbu_0, # of connection points: 4
#     Node 3, Type 0, BuildingBlock: ESEHIV_clean_sbu_0, # of connection points: 4
#     Node 4, Type 0, BuildingBlock: ESEHIV_clean_sbu_0, # of connection points: 4
#     Node 5, Type 0, BuildingBlock: ESEHIV_clean_sbu_0, # of connection points: 4
#     Edge 6, Type (0, 0), None
#     Edge 7, Type (0, 0), None
#     Edge 8, Type (0, 0), None
#     Edge 9, Type (0, 0), None
#     Edge 10, Type (0, 0), None
#     Edge 11, Type (0, 0), None
#     Edge 12, Type (0, 0), None
#     Edge 13, Type (0, 0), None
#     Edge 14, Type (0, 0), None
#     Edge 15, Type (0, 0), None
#     Edge 16, Type (0, 0), None
#     Edge 17, Type (0, 0), None
# Relax obj value: 0.080
# Max RMSD: 0.204
# Mean RMSD: 0.158
data_MOF--net-uom--node1-ESEHIV_clean_sbu_0--edge1-none
_symmetry_space_group_name_H-M    P1
_symmetry_Int_Tables_number       1
_symmetry_cell_setting            triclinic
loop_
_symmetry_equiv_pos_as_xyz
'x, y, z'
_cell_length_a     13.328721
_cell_length_b     13.118496
_cell_length_c     24.216338
_cell_angle_alpha  90.079553
_cell_angle_beta   89.391142
_cell_angle_gamma 122.37297
loop_
_atom_site_label
_atom_site_type_symbol
_atom_site_fract_x
_atom_site_fract_y
_atom_site_fract_z
_atom_type_partial_charge
Cu0 Cu 0.32632 0.92271 0.09488 0.0
N1 N 0.39403 -0.01884 1.02371 0.0
N2 N 0.42538 -0.02131 0.93253 0.0
C3 C 0.35669 0.91592 0.97664 0.0
C4 C 0.50901 0.08778 0.95213 0.0
C5 C 0.48911 0.08919 1.00832 0.0
O6 O 0.3055 0.7613 0.09969 0.0
C7 C 0.06705 0.86008 0.08681 0.0
O8 O 0.03104 0.75674 1.06246 0.0
H9 H 0.28088 0.82412 0.97495 0.0
H10 H 0.54028 0.16434 1.03577 0.0
N11 N 0.42805 0.01618 0.15452 0.0
N12 N 0.49131 0.07618 0.24127 0.0
C13 C 0.39615 0.00881 0.20855 0.0
C14 C 0.54743 0.09347 0.15405 0.0
C15 C 0.58662 0.12921 0.20738 0.0
C16 C 0.37994 0.72708 0.09513 0.0
O17 O 0.33907 0.61162 0.10057 0.0
H18 H 0.30572 -0.04736 0.22374 0.0
H19 H 0.60372 0.1215 0.1177 0.0
O20 O 0.1766 0.92806 0.10153 0.0
H21 H 0.57756 0.16187 0.92764 0.0
H22 H 0.67742 0.19023 0.22018 0.0
Cu23 Cu 0.38404 0.20224 0.43081 0.0
N24 N 0.45231 0.14081 0.38195 0.0
N25 N 0.49162 0.09149 0.29919 0.0
C26 C 0.4218 0.1182 0.32796 0.0
C27 C 0.57203 0.10046 0.33546 0.0
C28 C 0.54634 0.12897 0.38685 0.0
O29 O 0.47941 0.37424 0.43655 0.0
C30 C 0.17534 0.04392 0.39093 0.0
O31 O 0.21901 -0.02303 0.40138 0.0
H32 H 0.35422 0.12825 0.30925 0.0
H33 H 0.59714 0.14715 0.42414 0.0
N34 N 0.32937 0.14434 0.50381 0.0
N35 N 0.22279 0.12748 0.58019 0.0
C36 C 0.23062 0.13702 0.52456 0.0
C37 C 0.38652 0.14017 0.54854 0.0
C38 C 0.32079 0.12932 0.5957 0.0
C39 C 0.58561 0.43834 0.41922 0.0
O40 O 0.63513 0.38942 0.39218 0.0
H41 H 0.17097 0.14907 0.49965 0.0
H42 H 0.47389 0.1534 0.54745 0.0
O43 O 0.24004 0.15732 0.39645 0.0
H44 H 0.64618 0.09172 0.32518 0.0
H45 H 0.34614 0.12854 0.63791 0.0
Cu46 Cu 0.04725 0.20271 0.76384 0.0
N47 N 0.90394 0.13819 0.80432 0.0
N48 N 0.81161 0.0845 0.88663 0.0
C49 C 0.90968 0.16613 0.85832 0.0
C50 C 0.73943 0.00171 0.84936 0.0
C51 C 0.79597 0.03631 0.79805 0.0
O52 O 0.13014 0.37799 0.76639 0.0
C53 C 0.07365 0.02859 0.81109 0.0
O54 O 0.95828 -0.0366 0.80491 0.0
H55 H 0.99022 0.23647 0.87765 0.0
H56 H 0.76683 -0.01702 0.76076 0.0
N57 N 0.05204 0.15599 0.69011 0.0
N58 N 0.13799 0.13164 0.61484 0.0
C59 C 0.14159 0.14508 0.67031 0.0
C60 C 0.98986 0.14927 0.64526 0.0
C61 C 0.04255 0.13417 0.59879 0.0
C62 C 0.0724 0.4302 0.76533 0.0
O63 O 0.95599 0.36531 0.76283 0.0
H64 H 0.21151 0.15316 0.69589 0.0
H65 H 0.91503 0.16029 0.64588 0.0
O66 O 0.13053 0.14198 0.80196 0.0
H67 H 0.65624 0.91881 0.85908 0.0
H68 H 0.01441 0.12874 0.55659 0.0
Cu69 Cu 0.75727 0.8957 0.08925 0.0
N70 N 0.78864 0.00382 1.03036 0.0
N71 N 0.80172 0.07502 0.94482 0.0
C72 C 0.76902 -0.02366 0.976 0.0
C73 C 0.84392 0.16795 0.98023 0.0
C74 C 0.83409 0.12354 1.03301 0.0
O75 O 0.58282 0.7751 0.08811 0.0
C76 C 0.98225 0.90214 0.09493 0.0
O77 O 0.02496 0.01171 0.11359 0.0
H78 H 0.73563 0.88712 0.95956 0.0
H79 H 0.8595 0.17564 0.07054 0.0
N80 N 0.77675 -0.03309 0.15922 0.0
N81 N 0.7521 -0.02196 0.25021 0.0
C82 C 0.71087 0.90855 0.20469 0.0
C83 C 0.86252 0.07686 0.17699 0.0
C84 C 0.84831 0.08336 0.23319 0.0
C85 C 0.51025 0.81147 0.08597 0.0
O86 O 0.55307 0.92609 0.07769 0.0
H87 H 0.64018 0.81418 0.20519 0.0
H88 H 0.93502 0.14477 0.15177 0.0
O89 O 0.87081 0.83696 0.08265 0.0
H90 H 0.88095 0.26122 0.9686 0.0
H91 H 0.90837 0.15635 0.26012 0.0
Cu92 Cu 0.83549 0.80319 0.42276 0.0
N93 N 0.75835 0.86867 0.38472 0.0
N94 N 0.72773 0.93603 0.30535 0.0
C95 C 0.80832 0.94004 0.33955 0.0
C96 C 0.62112 0.85795 0.32847 0.0
C97 C 0.64028 0.81754 0.3778 0.0
O98 O 0.75335 0.63463 0.40799 0.0
C99 C 0.04945 -0.01291 0.39448 0.0
O100 O 0.00538 0.04432 0.41911 0.0
H101 H 0.89971 -0.01983 0.327 0.0
H102 H 0.57208 0.74547 0.40313 0.0
N103 N 0.87468 0.8296 0.4991 0.0
N104 N 0.97519 0.83934 0.57541 0.0
C105 C 0.97071 0.83271 0.51964 0.0
C106 C 0.81627 0.83415 0.54389 0.0
C107 C 0.87799 0.84009 0.59102 0.0
C108 C 0.65312 0.56666 0.43086 0.0
O109 O 0.61061 0.61222 0.46527 0.0
H110 H 0.03418 0.82654 0.49401 0.0
H111 H 0.73299 0.82986 0.54262 0.0
O112 O 0.98551 0.87398 0.38848 0.0
H113 H 0.53637 0.82598 0.30926 0.0
H114 H 0.85231 0.84312 0.63322 0.0
Cu115 Cu 0.15847 0.78871 0.76103 0.0
N116 N 0.30355 0.8597 0.79895 0.0
N117 N 0.40623 0.94175 0.87651 0.0
C118 C 0.30188 0.8559 0.85475 0.0
C119 C 0.47804 0.00103 0.83279 0.0
C120 C 0.41447 0.94969 0.78481 0.0
O121 O 0.07729 0.61434 0.76788 0.0
C122 C 0.13706 -0.03262 0.80648 0.0
O123 O 0.24984 0.03199 0.79241 0.0
H124 H 0.22121 0.80098 0.87873 0.0
H125 H 0.44284 -0.01563 0.74328 0.0
N126 N 0.15017 0.82647 0.68608 0.0
N127 N 0.0607 0.83898 0.61011 0.0
C128 C 0.05967 0.83426 0.66599 0.0
C129 C 0.2101 0.82602 0.64101 0.0
C130 C 0.15539 0.83399 0.59415 0.0
C131 C 0.13518 0.56248 0.76451 0.0
O132 O 0.25108 0.62757 0.75787 0.0
H133 H 0.99113 0.83051 0.69189 0.0
H134 H 0.28472 0.81473 0.64195 0.0
O135 O 0.07798 0.85337 0.79937 0.0
H136 H 0.56641 0.08109 0.8352 0.0
H137 H 0.18162 0.8329 0.55184 0.0
loop_
_geom_bond_atom_site_label_1
_geom_bond_atom_site_label_2
_geom_bond_distance
_geom_bond_site_symmetry_2
_ccdc_geom_bond_type
Cu0 N1 1.999 1_554 S
Cu0 O6 1.974 . S
Cu0 N11 1.985 . S
Cu0 O20 1.959 . S
N1 Cu0 1.999 1_556 S
N1 C3 1.263 . S
N1 C5 1.389 . S
N2 C3 1.358 . S
N2 C4 1.400 . S
C3 N1 1.263 . S
C3 N2 1.358 . S
C3 H9 0.930 1_545 S
C4 N2 1.400 . S
C4 C5 1.351 . S
C4 H21 0.930 . S
C5 N1 1.389 . S
C5 C4 1.351 . S
C5 H10 0.930 . S
O6 Cu0 1.974 . S
O6 C16 1.282 1_545 S
C7 O8 1.261 1_545 S
C7 O20 1.251 . S
O8 C7 1.261 1_565 S
H9 C3 0.930 1_565 S
H10 C5 0.930 . S
N11 Cu0 1.985 . S
N11 C13 1.335 . S
N11 C14 1.390 . S
N12 C13 1.345 . S
N12 C15 1.336 . S
C13 N11 1.335 . S
C13 N12 1.345 . S
C13 H18 0.930 . S
C14 N11 1.390 . S
C14 C15 1.346 . S
C14 H19 0.930 . S
C15 N12 1.336 . S
C15 C14 1.346 . S
C15 H22 0.929 . S
C16 O6 1.282 1_565 S
C16 O17 1.216 . S
O17 C16 1.216 . S
H18 C13 0.930 . S
H19 C14 0.930 . S
O20 Cu0 1.959 . S
O20 C7 1.251 . S
H21 C4 0.930 . S
H22 C15 0.929 . S
Cu23 N24 1.999 . S
Cu23 O29 1.974 . S
Cu23 N34 1.985 . S
Cu23 O43 1.959 . S
N24 Cu23 1.999 . S
N24 C26 1.263 . S
N24 C28 1.389 . S
N25 C26 1.358 . S
N25 C27 1.400 . S
C26 N24 1.263 . S
C26 N25 1.358 . S
C26 H32 0.930 . S
C27 N25 1.400 . S
C27 C28 1.351 . S
C27 H44 0.930 . S
C28 N24 1.389 . S
C28 C27 1.351 . S
C28 H33 0.930 . S
O29 Cu23 1.974 . S
O29 C39 1.282 . S
C30 O31 1.261 . S
C30 O43 1.251 . S
O31 C30 1.261 . S
H32 C26 0.930 . S
H33 C28 0.930 . S
N34 Cu23 1.985 . S
N34 C36 1.335 . S
N34 C37 1.390 . S
N35 C36 1.345 . S
N35 C38 1.336 . S
C36 N34 1.335 . S
C36 N35 1.345 . S
C36 H41 0.930 . S
C37 N34 1.390 . S
C37 C38 1.346 . S
C37 H42 0.930 . S
C38 N35 1.336 . S
C38 C37 1.346 . S
C38 H45 0.929 . S
C39 O29 1.282 . S
C39 O40 1.216 . S
O40 C39 1.216 . S
H41 C36 0.930 . S
H42 C37 0.930 . S
O43 Cu23 1.959 . S
O43 C30 1.251 . S
H44 C27 0.930 . S
H45 C38 0.929 . S
Cu46 N47 1.999 . S
Cu46 O52 1.974 . S
Cu46 N57 1.985 . S
Cu46 O66 1.959 . S
N47 Cu46 1.999 . S
N47 C49 1.263 1_455 S
N47 C51 1.389 . S
N48 C49 1.358 . S
N48 C50 1.400 1_655 S
C49 N47 1.263 1_655 S
C49 N48 1.358 . S
C49 H55 0.930 . S
C50 N48 1.400 1_455 S
C50 C51 1.351 . S
C50 H67 0.930 . S
C51 N47 1.389 . S
C51 C50 1.351 . S
C51 H56 0.930 . S
O52 Cu46 1.974 . S
O52 C62 1.282 1_455 S
C53 O54 1.261 . S
C53 O66 1.251 1_665 S
O54 C53 1.261 . S
H55 C49 0.930 . S
H56 C51 0.930 . S
N57 Cu46 1.985 . S
N57 C59 1.335 . S
N57 C60 1.390 . S
N58 C59 1.345 . S
N58 C61 1.336 . S
C59 N57 1.335 . S
C59 N58 1.345 . S
C59 H64 0.930 . S
C60 N57 1.390 . S
C60 C61 1.346 . S
C60 H65 0.930 . S
C61 N58 1.336 . S
C61 C60 1.346 . S
C61 H68 0.929 . S
C62 O52 1.282 1_655 S
C62 O63 1.216 . S
O63 C62 1.216 . S
H64 C59 0.930 . S
H65 C60 0.930 . S
O66 Cu46 1.959 . S
O66 C53 1.251 1_445 S
H67 C50 0.930 . S
H68 C61 0.929 . S
Cu69 N70 1.999 1_564 S
Cu69 O75 1.974 . S
Cu69 N80 1.985 . S
Cu69 O89 1.959 . S
N70 Cu69 1.999 1_546 S
N70 C72 1.263 . S
N70 C74 1.389 1_545 S
N71 C72 1.358 . S
N71 C73 1.400 1_545 S
C72 N70 1.263 . S
C72 N71 1.358 . S
C72 H78 0.930 . S
C73 N71 1.400 1_565 S
C73 C74 1.351 . S
C73 H90 0.930 . S
C74 N70 1.389 1_565 S
C74 C73 1.351 . S
C74 H79 0.930 . S
O75 Cu69 1.974 . S
O75 C85 1.282 1_565 S
C76 O77 1.261 . S
C76 O89 1.251 1_445 S
O77 C76 1.261 . S
H78 C72 0.930 . S
H79 C74 0.930 . S
N80 Cu69 1.985 . S
N80 C82 1.335 . S
N80 C83 1.390 1_565 S
N81 C82 1.345 . S
N81 C84 1.336 . S
C82 N80 1.335 . S
C82 N81 1.345 . S
C82 H87 0.930 . S
C83 N80 1.390 1_545 S
C83 C84 1.346 1_545 S
C83 H88 0.930 . S
C84 N81 1.336 . S
C84 C83 1.346 1_565 S
C84 H91 0.929 . S
C85 O75 1.282 1_545 S
C85 O86 1.216 . S
O86 C85 1.216 . S
H87 C82 0.930 . S
H88 C83 0.930 . S
O89 Cu69 1.959 . S
O89 C76 1.251 1_665 S
H90 C73 0.930 . S
H91 C84 0.929 . S
Cu92 N93 1.999 . S
Cu92 O98 1.974 . S
Cu92 N103 1.985 . S
Cu92 O112 1.959 1_655 S
N93 Cu92 1.999 . S
N93 C95 1.263 . S
N93 C97 1.389 . S
N94 C95 1.358 . S
N94 C96 1.400 . S
C95 N93 1.263 . S
C95 N94 1.358 . S
C95 H101 0.930 . S
C96 N94 1.400 . S
C96 C97 1.351 . S
C96 H113 0.930 . S
C97 N93 1.389 . S
C97 C96 1.351 . S
C97 H102 0.930 1_655 S
O98 Cu92 1.974 . S
O98 C108 1.282 . S
C99 O100 1.271 . S
C99 O112 1.251 1_545 S
O100 C99 1.271 . S
H101 C95 0.930 . S
H102 C97 0.930 1_455 S
N103 Cu92 1.985 . S
N103 C105 1.335 . S
N103 C106 1.390 . S
N104 C105 1.345 . S
N104 C107 1.336 . S
C105 N103 1.335 . S
C105 N104 1.345 . S
C105 H110 0.930 1_655 S
C106 N103 1.390 . S
C106 C107 1.346 . S
C106 H111 0.930 . S
C107 N104 1.336 . S
C107 C106 1.346 . S
C107 H114 0.929 . S
C108 O98 1.282 . S
C108 O109 1.216 . S
O109 C108 1.216 . S
H110 C105 0.930 1_455 S
H111 C106 0.930 . S
O112 Cu92 1.959 1_455 S
O112 C99 1.251 1_565 S
H113 C96 0.930 . S
H114 C107 0.929 . S
Cu115 N116 1.999 . S
Cu115 O121 1.974 . S
Cu115 N126 1.985 . S
Cu115 O135 1.959 . S
N116 Cu115 1.999 . S
N116 C118 1.263 . S
N116 C120 1.389 . S
N117 C118 1.358 . S
N117 C119 1.400 . S
C118 N116 1.263 . S
C118 N117 1.358 . S
C118 H124 0.930 . S
C119 N117 1.400 . S
C119 C120 1.351 . S
C119 H136 0.930 . S
C120 N116 1.389 . S
C120 C119 1.351 . S
C120 H125 0.930 . S
O121 Cu115 1.974 . S
O121 C131 1.282 . S
C122 O123 1.261 . S
C122 O135 1.251 1_545 S
O123 C122 1.261 . S
H124 C118 0.930 . S
H125 C120 0.930 . S
N126 Cu115 1.985 . S
N126 C128 1.335 . S
N126 C129 1.390 . S
N127 C128 1.345 . S
N127 C130 1.336 . S
C128 N126 1.335 . S
C128 N127 1.345 . S
C128 H133 0.930 . S
C129 N126 1.390 . S
C129 C130 1.346 . S
C129 H134 0.930 . S
C130 N127 1.336 . S
C130 C129 1.346 . S
C130 H137 0.929 . S
C131 O121 1.282 . S
C131 O132 1.216 . S
O132 C131 1.216 . S
H133 C128 0.930 . S
H134 C129 0.930 . S
O135 Cu115 1.959 . S
O135 C122 1.251 1_565 S
H136 C119 0.930 . S
H137 C130 0.929 . S
N12 N25 1.778 . S
N35 N58 1.657 . S
N71 N48 1.934 . S
N81 N94 1.778 . S
N127 N104 1.657 1_455 S
N2 N117 1.934 1_545 S
C7 C76 2.003 . S
C99 C30 0.609 . S
C53 C122 2.907 1_665 S
C85 C16 2.098 1_545 S
C108 C39 1.551 . S
C131 C62 3.523 1_455 S
