# Generated by pormake.
# Topology lon, (4)-cn, num edge types: 1
# Building blocks:
#     Node 0, Type 0, BuildingBlock: KUFVIS_clean_sbu_0, # of connection points: 4
#     Node 1, Type 0, BuildingBlock: KUFVIS_clean_sbu_0, # of connection points: 4
#     Node 2, Type 0, BuildingBlock: KUFVIS_clean_sbu_0, # of connection points: 4
#     Node 3, Type 0, BuildingBlock: KUFVIS_clean_sbu_0, # of connection points: 4
#     Edge 4, Type (0, 0), BuildingBlock: OJICUG_clean_linker_0, # of connection points: 2
#     Edge 5, Type (0, 0), BuildingBlock: OJICUG_clean_linker_0, # of connection points: 2
#     Edge 6, Type (0, 0), BuildingBlock: OJICUG_clean_linker_0, # of connection points: 2
#     Edge 7, Type (0, 0), BuildingBlock: OJICUG_clean_linker_0, # of connection points: 2
#     Edge 8, Type (0, 0), BuildingBlock: OJICUG_clean_linker_0, # of connection points: 2
#     Edge 9, Type (0, 0), BuildingBlock: OJICUG_clean_linker_0, # of connection points: 2
#     Edge 10, Type (0, 0), BuildingBlock: OJICUG_clean_linker_0, # of connection points: 2
#     Edge 11, Type (0, 0), BuildingBlock: OJICUG_clean_linker_0, # of connection points: 2
# Relax obj value: 0.046
# Max RMSD: 0.107
# Mean RMSD: 0.088
data_MOF--net-lon--node1-KUFVIS_clean_sbu_0--edge1-OJICUG_clean_linker_0
_symmetry_space_group_name_H-M    P1
_symmetry_Int_Tables_number       1
_symmetry_cell_setting            triclinic
loop_
_symmetry_equiv_pos_as_xyz
'x, y, z'
_cell_length_a     17.869634
_cell_length_b     17.111055
_cell_length_c     29.220806
_cell_angle_alpha  100.80637
_cell_angle_beta   90.001984
_cell_angle_gamma 121.31151
loop_
_atom_site_label
_atom_site_type_symbol
_atom_site_fract_x
_atom_site_fract_y
_atom_site_fract_z
_atom_type_partial_charge
Mn0 Mn 0.35522 0.69694 0.09763 0.0
Mn1 Mn 0.28755 0.63692 0.98144 0.0
C2 C 0.21763 0.66301 0.07105 0.0
C3 C 0.37086 0.66601 0.17048 0.0
C4 C 0.43 0.83333 0.0328 0.0
O5 O 0.43369 0.65225 0.06768 0.0
O6 O 0.36732 0.593 0.99249 0.0
C7 C 0.18308 0.42914 0.96215 0.0
N8 N 0.18807 0.51134 0.9624 0.0
C9 C 0.0376 0.42909 0.92697 0.0
C10 C 0.03096 0.34366 0.92659 0.0
C11 C 0.104 0.34374 0.94438 0.0
C12 C 0.11809 0.51202 0.94536 0.0
H13 H 0.23908 0.42884 0.97522 0.0
C14 C 0.42118 0.60465 0.02584 0.0
O15 O 0.42436 0.74599 0.16011 0.0
O16 O 0.30984 0.60101 0.13747 0.0
N17 N 0.20722 0.6745 0.96812 0.0
C18 C 0.22248 0.76267 0.97356 0.0
C19 C 0.15504 0.77467 0.95877 0.0
C20 C 0.07282 0.69607 0.93822 0.0
C21 C 0.05863 0.60607 0.93287 0.0
C22 C 0.12827 0.5984 0.94833 0.0
H23 H 0.28555 0.82355 0.98903 0.0
O24 O 0.25491 0.71575 0.11251 0.0
O25 O 0.26292 0.63547 0.0466 0.0
O26 O 0.41955 0.81697 0.07362 0.0
O27 O 0.38886 0.76926 0.99576 0.0
C28 C 0.97766 0.52366 0.91343 0.0
C29 C 0.96709 0.43519 0.91051 0.0
H30 H 0.97001 0.27765 0.91294 0.0
H31 H 0.09948 0.27811 0.9442 0.0
H32 H 0.16649 0.8444 0.9631 0.0
H33 H 1.02088 0.7056 0.92698 0.0
H34 H 0.92285 0.52762 0.90111 0.0
H35 H 0.90415 0.37229 0.89602 0.0
Mn36 Mn 0.75302 0.38415 0.5824 0.0
Mn37 Mn 0.54 0.25997 0.60807 0.0
C38 C 0.68407 0.22348 0.57012 0.0
C39 C 0.87139 0.4495 0.53772 0.0
C40 C 0.69747 0.36656 0.68114 0.0
O41 O 0.7078 0.4704 0.57672 0.0
O42 O 0.57825 0.39181 0.60629 0.0
C43 C 0.40867 0.27695 0.54299 0.0
N44 N 0.44959 0.21613 0.55591 0.0
C45 C 0.26274 1.02515 0.48575 0.0
C46 C 0.23665 0.10894 0.47699 0.0
C47 C 0.30793 0.22995 0.50514 0.0
C48 C 0.40539 0.10517 0.54017 0.0
H49 H 0.44122 0.35012 0.55954 0.0
C50 C 0.63557 0.46121 0.58966 0.0
O51 O 0.87878 0.48134 0.58231 0.0
O52 O 0.79232 0.38573 0.51743 0.0
N53 N 0.49359 0.12946 0.61066 0.0
C54 C 0.52042 0.10297 0.64538 0.0
C55 C 0.46972 1.01244 0.6535 0.0
C56 C 0.38718 0.9474 0.62826 0.0
C57 C 0.35591 0.96869 0.59162 0.0
C58 C 0.42118 0.06523 0.5796 0.0
H59 H 0.58075 0.1518 0.6682 0.0
O60 O 0.76844 0.27764 0.58209 0.0
O61 O 0.63808 0.26464 0.56971 0.0
O62 O 0.75367 0.40857 0.65417 0.0
O63 O 0.6176 0.30378 0.66665 0.0
C64 C 0.25854 0.89632 0.5668 0.0
C65 C 0.19391 0.92534 0.49737 0.0
H66 H 0.17312 0.08549 0.45918 0.0
H67 H 0.28768 0.27783 0.50056 0.0
H68 H 0.4929 0.99413 0.68153 0.0
H69 H 0.3475 0.88023 0.63773 0.0
H70 H 0.22785 0.83625 0.58387 0.0
H71 H 0.12814 0.88697 0.47759 0.0
Mn72 Mn 0.39588 0.67023 0.4663 0.0
Mn73 Mn 0.30399 0.79132 0.43851 0.0
C74 C 0.48707 0.83041 0.47654 0.0
C75 C 0.44969 0.60673 0.51208 0.0
C76 C 0.3557 0.6833 0.3667 0.0
O77 O 0.26523 0.58441 0.47291 0.0
O78 O 0.21249 0.66014 0.44185 0.0
C79 C 0.15778 0.77619 0.50538 0.0
N80 N 0.25786 0.83614 0.49058 0.0
C81 C 0.26717 0.02829 0.56314 0.0
C82 C 0.15867 0.94551 0.57387 0.0
C83 C 0.10715 0.82426 0.5454 0.0
C84 C 0.32499 0.94677 0.50588 0.0
H85 H 0.11657 0.70296 0.48906 0.0
C86 C 0.20162 0.5923 0.45955 0.0
O87 O 0.42489 0.57337 0.4676 0.0
O88 O 0.43462 0.67131 0.53169 0.0
N89 N 0.38478 0.9214 0.43394 0.0
C90 C 0.43421 0.94687 0.39772 0.0
C91 C 0.47205 0.03704 0.38926 0.0
C92 C 0.45662 0.10292 0.41584 0.0
C93 C 0.40763 0.08268 0.45384 0.0
C94 C 0.37744 0.98601 0.46546 0.0
H95 H 0.44401 0.89753 0.37394 0.0
O96 O 0.51698 0.77555 0.46554 0.0
O97 O 0.40001 0.79007 0.47732 0.0
O98 O 0.37133 0.64317 0.39438 0.0
O99 O 0.33749 0.74569 0.38035 0.0
C100 C 0.38505 0.1562 0.48052 0.0
C101 C 0.29724 0.12834 0.5521 0.0
H102 H 0.12026 0.96975 0.59317 0.0
H103 H 0.03989 0.777 0.55126 0.0
H104 H 0.51053 0.05451 0.36006 0.0
H105 H 0.48281 0.1699 0.4063 0.0
H106 H 0.41307 0.21629 0.4635 0.0
H107 H 0.27161 0.16744 0.57323 0.0
Mn108 Mn 0.68609 0.35715 0.95126 0.0
Mn109 Mn 0.67912 0.41909 0.06744 0.0
C110 C 0.58276 0.39192 0.97777 0.0
C111 C 0.73139 0.38578 0.87791 0.0
C112 C 0.62509 0.22202 1.0168 0.0
O113 O 0.80924 0.40205 0.98103 0.0
O114 O 0.80237 0.46216 0.05617 0.0
C115 C 0.78225 0.62684 0.08609 0.0
N116 N 0.70527 0.54498 0.08609 0.0
C117 C 0.63757 0.62824 0.12151 0.0
C118 C 0.71611 0.71333 0.1216 0.0
C119 C 0.7887 0.71258 0.10369 0.0
C120 C 0.63497 0.54495 0.10326 0.0
H121 H 0.83827 0.62663 0.07296 0.0
C122 C 0.84437 0.45004 1.0228 0.0
O123 O 0.70538 0.30638 0.88895 0.0
O124 O 0.73584 0.45173 0.9106 0.0
N125 N 0.56166 0.38237 0.08095 0.0
C126 C 0.48892 0.29443 0.07578 0.0
C127 C 0.40985 0.28309 0.09072 0.0
C128 C 0.40643 0.3621 0.11114 0.0
C129 C 0.48205 0.45184 0.11619 0.0
C130 C 0.55899 0.45886 0.10058 0.0
H131 H 0.49096 0.23324 0.06041 0.0
O132 O 0.56708 0.33842 0.93648 0.0
O133 O 0.65564 0.41977 1.00213 0.0
O134 O 0.63101 0.2379 0.97589 0.0
O135 O 0.64803 0.28651 0.05367 0.0
C136 C 0.48368 0.53461 0.13553 0.0
C137 C 0.56134 0.62279 0.13815 0.0
H138 H 0.72129 0.7796 0.13513 0.0
H139 H 0.84964 0.77795 0.10366 0.0
H140 H 0.35171 0.21356 0.08662 0.0
H141 H 0.34525 0.35309 0.12253 0.0
H142 H 0.42522 0.53109 0.148 0.0
H143 H 0.56143 0.68598 0.15255 0.0
C144 C 0.30001 0.58561 0.23602 0.0
C145 C 0.37376 0.6558 0.21961 0.0
H146 H 0.23654 0.53912 0.29655 0.0
C147 C 0.44629 0.72578 0.25219 0.0
H148 H 0.24299 0.53113 0.21181 0.0
C149 C 0.44243 0.73011 0.30025 0.0
C150 C 0.36646 0.6641 0.31673 0.0
H151 H 0.5043 0.7806 0.24073 0.0
H152 H 0.49698 0.78818 0.32469 0.0
C153 C 0.29624 0.59004 0.28439 0.0
C154 C 0.73191 0.31577 0.74775 0.0
C155 C 0.72618 0.38437 0.7312 0.0
H156 H 0.74109 0.26431 0.80733 0.0
C157 C 0.73486 0.4614 0.76347 0.0
H158 H 0.72518 0.25571 0.7234 0.0
C159 C 0.7435 0.46639 0.8119 0.0
C160 C 0.74316 0.39409 0.82845 0.0
H161 H 0.7297 0.5146 0.75125 0.0
H162 H 0.74481 0.5235 0.83611 0.0
C163 C 0.74091 0.32085 0.79584 0.0
C164 C 0.41174 0.45261 1.00639 0.0
C165 C 0.46363 0.55109 1.01557 0.0
H166 H 0.40891 0.32367 0.98605 0.0
C167 C 0.55359 0.59626 1.01097 0.0
H168 H 0.34239 0.41673 1.01074 0.0
C169 C 0.59144 0.54318 0.99753 0.0
C170 C 0.53968 0.44471 0.98881 0.0
H171 H 0.59413 0.67204 1.01737 0.0
H172 H 0.66146 0.57904 0.99432 0.0
C173 C 0.44938 0.39944 0.99243 0.0
C174 C 0.10673 0.52047 0.5202 0.0
C175 C 0.11282 0.53374 0.4741 0.0
H176 H 0.02671 0.48659 0.57639 0.0
C177 C 0.0359 0.51135 0.44717 0.0
H178 H 0.16475 0.53874 0.54221 0.0
C179 C 0.95578 0.48033 0.46677 0.0
C180 C 0.95209 0.47429 0.51407 0.0
H181 H 0.03893 0.5224 0.41174 0.0
H182 H 0.89827 0.46588 0.44577 0.0
C183 C 0.02785 0.4924 0.54007 0.0
C184 C 0.5489 0.04955 0.9808 0.0
C185 C 0.58332 0.12287 1.02118 0.0
H186 H 0.47403 0.90141 0.9526 0.0
C187 C 0.57203 0.0997 0.06537 0.0
H188 H 0.55627 0.06438 0.94608 0.0
C189 C 0.52506 1.00582 0.06905 0.0
C190 C 0.48766 0.93252 0.02864 0.0
H191 H 0.59755 0.15401 0.09723 0.0
H192 H 0.51598 0.99094 0.10375 0.0
C193 C 0.50153 0.9557 0.98448 0.0
C194 C 0.54846 0.54011 0.60225 0.0
C195 C 0.6055 0.52081 0.57589 0.0
H196 H 0.45469 0.58374 0.60317 0.0
C197 C 0.61621 0.53881 0.53068 0.0
H198 H 0.53782 0.52557 0.63697 0.0
C199 C 0.56618 0.56801 0.51089 0.0
C200 C 0.50582 0.5826 0.53614 0.0
H201 H 0.65813 0.52326 0.5091 0.0
H202 H 0.57337 0.57716 0.47512 0.0
C203 C 0.50004 0.57221 0.58278 0.0
C204 C 0.07587 0.51166 0.05119 0.0
C205 C 0.12205 0.61013 0.05989 0.0
H206 H 0.95034 0.38274 0.03138 0.0
C207 C 0.0768 0.65532 0.05606 0.0
H208 H 0.11024 0.47588 0.0545 0.0
C209 C 0.98628 0.60206 0.04197 0.0
C210 C 0.94017 0.50359 0.03293 0.0
H211 H 0.11172 0.73108 0.06237 0.0
H212 H 0.95271 0.63789 0.03739 0.0
C213 C 0.9852 0.4585 0.03768 0.0
C214 C 0.56332 0.07756 0.5245 0.0
C215 C 0.64775 0.12408 0.54493 0.0
H216 H 0.44916 0.94404 0.5225 0.0
C217 C 0.69173 0.07391 0.53742 0.0
H218 H 0.53585 0.11701 0.51867 0.0
C219 C 0.64399 0.97794 0.51153 0.0
C220 C 0.55111 0.93104 0.49972 0.0
H221 H 0.76093 0.1082 0.54982 0.0
H222 H 0.67772 0.94061 0.5034 0.0
C223 C 0.51448 0.98156 0.51512 0.0
loop_
_geom_bond_atom_site_label_1
_geom_bond_atom_site_label_2
_geom_bond_distance
_geom_bond_site_symmetry_2
_ccdc_geom_bond_type
Mn0 O5 2.095 . S
Mn0 O15 2.162 . S
Mn0 O16 2.297 . S
Mn0 O24 2.385 . S
Mn0 O25 2.209 . S
Mn0 O26 2.094 . S
Mn1 O6 2.121 . S
Mn1 N8 2.257 . S
Mn1 N17 2.282 . S
Mn1 O25 2.215 1_556 S
Mn1 O27 2.117 . S
C2 O24 1.234 . S
C2 O25 1.283 . S
C3 O15 1.281 . S
C3 O16 1.236 . S
C4 O26 1.240 . S
C4 O27 1.264 1_554 S
O5 Mn0 2.095 . S
O5 C14 1.250 . S
O6 Mn1 2.121 . S
O6 C14 1.258 1_556 S
C7 N8 1.326 . S
C7 C11 1.460 . S
C7 H13 0.929 . S
N8 Mn1 2.257 . S
N8 C7 1.326 . S
N8 C12 1.362 . S
C9 C10 1.258 . S
C9 C12 1.431 . S
C9 C29 1.449 1_455 S
C10 C9 1.258 . S
C10 C11 1.477 . S
C10 H30 0.931 1_455 S
C11 C7 1.460 . S
C11 C10 1.477 . S
C11 H31 0.930 . S
C12 N8 1.362 . S
C12 C9 1.431 . S
C12 C22 1.476 . S
H13 C7 0.929 . S
C14 O5 1.250 . S
C14 O6 1.258 1_554 S
O15 Mn0 2.162 . S
O15 C3 1.281 . S
O16 Mn0 2.297 . S
O16 C3 1.236 . S
N17 Mn1 2.282 . S
N17 C18 1.328 . S
N17 C22 1.318 . S
C18 N17 1.328 . S
C18 C19 1.457 . S
C18 H23 0.929 . S
C19 C18 1.457 . S
C19 C20 1.291 . S
C19 H32 0.931 . S
C20 C19 1.291 . S
C20 C21 1.373 . S
C20 H33 0.929 1_455 S
C21 C20 1.373 . S
C21 C22 1.396 . S
C21 C28 1.403 1_455 S
C22 C12 1.476 . S
C22 N17 1.318 . S
C22 C21 1.396 . S
H23 C18 0.929 . S
O24 Mn0 2.385 . S
O24 C2 1.234 . S
O25 Mn0 2.209 . S
O25 Mn1 2.215 1_554 S
O25 C2 1.283 . S
O26 Mn0 2.094 . S
O26 C4 1.240 . S
O27 Mn1 2.117 . S
O27 C4 1.264 1_556 S
C28 C21 1.403 1_655 S
C28 C29 1.399 . S
C28 H34 0.929 . S
C29 C9 1.449 1_655 S
C29 C28 1.399 . S
C29 H35 0.930 . S
H30 C10 0.931 1_655 S
H31 C11 0.930 . S
H32 C19 0.931 . S
H33 C20 0.929 1_655 S
H34 C28 0.929 . S
H35 C29 0.930 . S
Mn36 O41 2.095 . S
Mn36 O51 2.162 . S
Mn36 O52 2.297 . S
Mn36 O60 2.385 . S
Mn36 O61 2.209 . S
Mn36 O62 2.094 . S
Mn37 O42 2.121 . S
Mn37 N44 2.257 . S
Mn37 N53 2.282 . S
Mn37 O61 2.215 . S
Mn37 O63 2.117 . S
C38 O60 1.234 . S
C38 O61 1.283 . S
C39 O51 1.281 . S
C39 O52 1.236 . S
C40 O62 1.240 . S
C40 O63 1.264 . S
O41 Mn36 2.095 . S
O41 C50 1.250 . S
O42 Mn37 2.121 . S
O42 C50 1.258 . S
C43 N44 1.326 . S
C43 C47 1.460 . S
C43 H49 0.929 . S
N44 Mn37 2.257 . S
N44 C43 1.326 . S
N44 C48 1.362 . S
C45 C46 1.258 1_565 S
C45 C48 1.431 1_565 S
C45 C65 1.449 . S
C46 C45 1.258 1_545 S
C46 C47 1.477 . S
C46 H66 0.931 1_545 S
C47 C43 1.460 . S
C47 C46 1.477 . S
C47 H67 0.930 . S
C48 N44 1.362 . S
C48 C45 1.431 1_545 S
C48 C58 1.476 . S
H49 C43 0.929 . S
C50 O41 1.250 . S
C50 O42 1.258 . S
O51 Mn36 2.162 . S
O51 C39 1.281 . S
O52 Mn36 2.297 . S
O52 C39 1.236 . S
N53 Mn37 2.282 . S
N53 C54 1.328 . S
N53 C58 1.318 . S
C54 N53 1.328 . S
C54 C55 1.457 1_545 S
C54 H59 0.929 . S
C55 C54 1.457 1_565 S
C55 C56 1.291 . S
C55 H68 0.931 . S
C56 C55 1.291 . S
C56 C57 1.373 . S
C56 H69 0.929 . S
C57 C56 1.373 . S
C57 C58 1.396 1_565 S
C57 C64 1.403 . S
C58 C48 1.476 . S
C58 N53 1.318 . S
C58 C57 1.396 1_545 S
H59 C54 0.929 . S
O60 Mn36 2.385 . S
O60 C38 1.234 . S
O61 Mn36 2.209 . S
O61 Mn37 2.215 . S
O61 C38 1.283 . S
O62 Mn36 2.094 . S
O62 C40 1.240 . S
O63 Mn37 2.117 . S
O63 C40 1.264 . S
C64 C57 1.403 . S
C64 C65 1.399 . S
C64 H70 0.929 . S
C65 C45 1.449 . S
C65 C64 1.399 . S
C65 H71 0.930 . S
H66 C46 0.931 1_565 S
H67 C47 0.930 . S
H68 C55 0.931 . S
H69 C56 0.929 . S
H70 C64 0.929 . S
H71 C65 0.930 . S
Mn72 O77 2.095 . S
Mn72 O87 2.162 . S
Mn72 O88 2.297 . S
Mn72 O96 2.385 . S
Mn72 O97 2.209 . S
Mn72 O98 2.094 . S
Mn73 O78 2.121 . S
Mn73 N80 2.257 . S
Mn73 N89 2.282 . S
Mn73 O97 2.215 . S
Mn73 O99 2.117 . S
C74 O96 1.234 . S
C74 O97 1.283 . S
C75 O87 1.281 . S
C75 O88 1.236 . S
C76 O98 1.240 . S
C76 O99 1.264 . S
O77 Mn72 2.095 . S
O77 C86 1.250 . S
O78 Mn73 2.121 . S
O78 C86 1.258 . S
C79 N80 1.326 . S
C79 C83 1.460 . S
C79 H85 0.929 . S
N80 Mn73 2.257 . S
N80 C79 1.326 . S
N80 C84 1.362 . S
C81 C82 1.258 1_545 S
C81 C84 1.431 1_545 S
C81 C101 1.449 . S
C82 C81 1.258 1_565 S
C82 C83 1.477 . S
C82 H102 0.931 1_565 S
C83 C79 1.460 . S
C83 C82 1.477 . S
C83 H103 0.930 . S
C84 N80 1.362 . S
C84 C81 1.431 1_565 S
C84 C94 1.476 . S
H85 C79 0.929 . S
C86 O77 1.250 . S
C86 O78 1.258 . S
O87 Mn72 2.162 . S
O87 C75 1.281 . S
O88 Mn72 2.297 . S
O88 C75 1.236 . S
N89 Mn73 2.282 . S
N89 C90 1.328 . S
N89 C94 1.318 . S
C90 N89 1.328 . S
C90 C91 1.457 1_565 S
C90 H95 0.929 . S
C91 C90 1.457 1_545 S
C91 C92 1.291 . S
C91 H104 0.931 . S
C92 C91 1.291 . S
C92 C93 1.373 . S
C92 H105 0.929 . S
C93 C92 1.373 . S
C93 C94 1.396 1_545 S
C93 C100 1.403 . S
C94 C84 1.476 . S
C94 N89 1.318 . S
C94 C93 1.396 1_565 S
H95 C90 0.929 . S
O96 Mn72 2.385 . S
O96 C74 1.234 . S
O97 Mn72 2.209 . S
O97 Mn73 2.215 . S
O97 C74 1.283 . S
O98 Mn72 2.094 . S
O98 C76 1.240 . S
O99 Mn73 2.117 . S
O99 C76 1.264 . S
C100 C93 1.403 . S
C100 C101 1.399 . S
C100 H106 0.929 . S
C101 C81 1.449 . S
C101 C100 1.399 . S
C101 H107 0.930 . S
H102 C82 0.931 1_545 S
H103 C83 0.930 . S
H104 C91 0.931 . S
H105 C92 0.929 . S
H106 C100 0.929 . S
H107 C101 0.930 . S
Mn108 O113 2.095 . S
Mn108 O123 2.162 . S
Mn108 O124 2.297 . S
Mn108 O132 2.385 . S
Mn108 O133 2.209 . S
Mn108 O134 2.094 . S
Mn109 O114 2.121 . S
Mn109 N116 2.257 . S
Mn109 N125 2.282 . S
Mn109 O133 2.215 1_554 S
Mn109 O135 2.117 . S
C110 O132 1.234 . S
C110 O133 1.283 . S
C111 O123 1.281 . S
C111 O124 1.236 . S
C112 O134 1.240 . S
C112 O135 1.264 1_556 S
O113 Mn108 2.095 . S
O113 C122 1.250 . S
O114 Mn109 2.121 . S
O114 C122 1.258 1_554 S
C115 N116 1.326 . S
C115 C119 1.460 . S
C115 H121 0.929 . S
N116 Mn109 2.257 . S
N116 C115 1.326 . S
N116 C120 1.362 . S
C117 C118 1.258 . S
C117 C120 1.431 . S
C117 C137 1.449 . S
C118 C117 1.258 . S
C118 C119 1.477 . S
C118 H138 0.931 . S
C119 C115 1.460 . S
C119 C118 1.477 . S
C119 H139 0.930 . S
C120 N116 1.362 . S
C120 C117 1.431 . S
C120 C130 1.476 . S
H121 C115 0.929 . S
C122 O113 1.250 . S
C122 O114 1.258 1_556 S
O123 Mn108 2.162 . S
O123 C111 1.281 . S
O124 Mn108 2.297 . S
O124 C111 1.236 . S
N125 Mn109 2.282 . S
N125 C126 1.328 . S
N125 C130 1.318 . S
C126 N125 1.328 . S
C126 C127 1.457 . S
C126 H131 0.929 . S
C127 C126 1.457 . S
C127 C128 1.291 . S
C127 H140 0.931 . S
C128 C127 1.291 . S
C128 C129 1.373 . S
C128 H141 0.929 . S
C129 C128 1.373 . S
C129 C130 1.396 . S
C129 C136 1.403 . S
C130 C120 1.476 . S
C130 N125 1.318 . S
C130 C129 1.396 . S
H131 C126 0.929 . S
O132 Mn108 2.385 . S
O132 C110 1.234 . S
O133 Mn108 2.209 . S
O133 Mn109 2.215 1_556 S
O133 C110 1.283 . S
O134 Mn108 2.094 . S
O134 C112 1.240 . S
O135 Mn109 2.117 . S
O135 C112 1.264 1_554 S
C136 C129 1.403 . S
C136 C137 1.399 . S
C136 H142 0.929 . S
C137 C117 1.449 . S
C137 C136 1.399 . S
C137 H143 0.930 . S
H138 C118 0.931 . S
H139 C119 0.930 . S
H140 C127 0.931 . S
H141 C128 0.929 . S
H142 C136 0.929 . S
H143 C137 0.930 . S
C144 C145 1.387 . S
C144 H148 0.950 . S
C144 C153 1.390 . S
C145 C144 1.387 . S
C145 C147 1.387 . S
H146 C153 0.950 . S
C147 C145 1.387 . S
C147 C149 1.390 . S
C147 H151 0.950 . S
H148 C144 0.950 . S
C149 C147 1.390 . S
C149 C150 1.387 . S
C149 H152 0.950 . S
C150 C149 1.387 . S
C150 C153 1.387 . S
H151 C147 0.950 . S
H152 C149 0.950 . S
C153 C144 1.390 . S
C153 H146 0.950 . S
C153 C150 1.387 . S
C154 C155 1.387 . S
C154 H158 0.950 . S
C154 C163 1.390 . S
C155 C154 1.387 . S
C155 C157 1.387 . S
H156 C163 0.950 . S
C157 C155 1.387 . S
C157 C159 1.390 . S
C157 H161 0.950 . S
H158 C154 0.950 . S
C159 C157 1.390 . S
C159 C160 1.387 . S
C159 H162 0.950 . S
C160 C159 1.387 . S
C160 C163 1.387 . S
H161 C157 0.950 . S
H162 C159 0.950 . S
C163 C154 1.390 . S
C163 H156 0.950 . S
C163 C160 1.387 . S
C164 C165 1.387 . S
C164 H168 0.950 . S
C164 C173 1.390 . S
C165 C164 1.387 . S
C165 C167 1.387 1_554 S
H166 C173 0.950 . S
C167 C165 1.387 1_556 S
C167 C169 1.390 . S
C167 H171 0.950 . S
H168 C164 0.950 . S
C169 C167 1.390 . S
C169 C170 1.387 . S
C169 H172 0.950 . S
C170 C169 1.387 . S
C170 C173 1.387 1_556 S
H171 C167 0.950 . S
H172 C169 0.950 . S
C173 C164 1.390 . S
C173 H166 0.950 . S
C173 C170 1.387 1_554 S
C174 C175 1.387 . S
C174 H178 0.950 . S
C174 C183 1.390 . S
C175 C174 1.387 . S
C175 C177 1.387 . S
H176 C183 0.950 . S
C177 C175 1.387 . S
C177 C179 1.390 1_455 S
C177 H181 0.950 . S
H178 C174 0.950 . S
C179 C177 1.390 1_655 S
C179 C180 1.387 . S
C179 H182 0.950 . S
C180 C179 1.387 . S
C180 C183 1.387 1_655 S
H181 C177 0.950 . S
H182 C179 0.950 . S
C183 C174 1.390 . S
C183 H176 0.950 . S
C183 C180 1.387 1_455 S
C184 C185 1.387 . S
C184 H188 0.950 . S
C184 C193 1.390 1_546 S
C185 C184 1.387 . S
C185 C187 1.387 . S
H186 C193 0.950 . S
C187 C185 1.387 . S
C187 C189 1.390 1_546 S
C187 H191 0.950 . S
H188 C184 0.950 . S
C189 C187 1.390 1_564 S
C189 C190 1.387 . S
C189 H192 0.950 . S
C190 C189 1.387 . S
C190 C193 1.387 . S
H191 C187 0.950 . S
H192 C189 0.950 . S
C193 C184 1.390 1_564 S
C193 H186 0.950 . S
C193 C190 1.387 . S
C194 C195 1.387 . S
C194 H198 0.950 . S
C194 C203 1.390 . S
C195 C194 1.387 . S
C195 C197 1.387 . S
H196 C203 0.950 . S
C197 C195 1.387 . S
C197 C199 1.390 . S
C197 H201 0.950 . S
H198 C194 0.950 . S
C199 C197 1.390 . S
C199 C200 1.387 . S
C199 H202 0.950 . S
C200 C199 1.387 . S
C200 C203 1.387 . S
H201 C197 0.950 . S
H202 C199 0.950 . S
C203 C194 1.390 . S
C203 H196 0.950 . S
C203 C200 1.387 . S
C204 C205 1.387 1_655 S
C204 H208 0.950 1_655 S
C204 C213 1.390 . S
C205 C204 1.387 1_455 S
C205 C207 1.387 1_554 S
H206 C213 0.950 . S
C207 C205 1.387 1_556 S
C207 C209 1.390 1_455 S
C207 H211 0.950 . S
H208 C204 0.950 1_455 S
C209 C207 1.390 1_655 S
C209 C210 1.387 . S
C209 H212 0.950 . S
C210 C209 1.387 . S
C210 C213 1.387 1_556 S
H211 C207 0.950 . S
H212 C209 0.950 . S
C213 C204 1.390 . S
C213 H206 0.950 . S
C213 C210 1.387 1_554 S
C214 C215 1.387 . S
C214 H218 0.950 . S
C214 C223 1.390 1_545 S
C215 C214 1.387 . S
C215 C217 1.387 . S
H216 C223 0.950 . S
C217 C215 1.387 . S
C217 C219 1.390 1_545 S
C217 H221 0.950 . S
H218 C214 0.950 . S
C219 C217 1.390 1_565 S
C219 C220 1.387 . S
C219 H222 0.950 . S
C220 C219 1.387 . S
C220 C223 1.387 . S
H221 C217 0.950 . S
H222 C219 0.950 . S
C223 C214 1.390 1_565 S
C223 H216 0.950 . S
C223 C220 1.387 . S
C145 C3 1.517 . S
C150 C76 1.516 . S
C155 C40 1.515 . S
C160 C111 1.516 . S
C165 C14 1.411 . S
C170 C110 1.457 . S
C175 C86 1.503 . S
C180 C39 1.582 . S
C185 C112 1.616 . S
C190 C4 1.616 . S
C195 C50 1.501 . S
C200 C75 1.581 . S
C205 C2 1.458 . S
C210 C122 1.409 . S
C215 C38 1.415 . S
C220 C74 1.415 . S
