# Generated by pormake.
# Topology sxc, (6)-cn, num edge types: 1
# Building blocks:
#     Node 0, Type 0, BuildingBlock: BETDEL_clean_sbu_0, # of connection points: 6
#     Node 1, Type 0, BuildingBlock: BETDEL_clean_sbu_0, # of connection points: 6
#     Node 2, Type 0, BuildingBlock: BETDEL_clean_sbu_0, # of connection points: 6
#     Edge 3, Type (0, 0), BuildingBlock: EZIPEK_clean_linker_0, # of connection points: 2
#     Edge 4, Type (0, 0), BuildingBlock: EZIPEK_clean_linker_0, # of connection points: 2
#     Edge 5, Type (0, 0), BuildingBlock: EZIPEK_clean_linker_0, # of connection points: 2
#     Edge 6, Type (0, 0), BuildingBlock: EZIPEK_clean_linker_0, # of connection points: 2
#     Edge 7, Type (0, 0), BuildingBlock: EZIPEK_clean_linker_0, # of connection points: 2
#     Edge 8, Type (0, 0), BuildingBlock: EZIPEK_clean_linker_0, # of connection points: 2
#     Edge 9, Type (0, 0), BuildingBlock: EZIPEK_clean_linker_0, # of connection points: 2
#     Edge 10, Type (0, 0), BuildingBlock: EZIPEK_clean_linker_0, # of connection points: 2
#     Edge 11, Type (0, 0), BuildingBlock: EZIPEK_clean_linker_0, # of connection points: 2
# Relax obj value: 0.082
# Max RMSD: 0.063
# Mean RMSD: 0.046
data_MOF--net-sxc--node1-BETDEL_clean_sbu_0--edge1-EZIPEK_clean_linker_0
_symmetry_space_group_name_H-M    P1
_symmetry_Int_Tables_number       1
_symmetry_cell_setting            triclinic
loop_
_symmetry_equiv_pos_as_xyz
'x, y, z'
_cell_length_a     11.986471
_cell_length_b     1526874.0
_cell_length_c     32.297064
_cell_angle_alpha  90.473004
_cell_angle_beta   93.792303
_cell_angle_gamma 111.20034
loop_
_atom_site_label
_atom_site_type_symbol
_atom_site_fract_x
_atom_site_fract_y
_atom_site_fract_z
_atom_type_partial_charge
Dy0 Dy 0.20604 0.0 0.0111 0.0
C1 C 0.73346 1e-05 0.01088 0.0
C2 C 0.42251 0.0 0.01485 0.0
Dy3 Dy 0.95163 1e-05 0.0031 0.0
O4 O 0.34682 0.0 0.04304 0.0
O5 O 0.38531 0.0 0.98529 0.0
O6 O 0.21962 1e-05 0.07375 0.0
O7 O 0.07323 0.0 0.05718 0.0
C8 C 0.1211 0.0 0.08578 0.0
C9 C 1.03564 0.0 0.92816 0.0
O10 O 0.95099 0.0 0.0109 0.0
O11 O 0.14694 0.0 0.99466 0.0
O12 O 0.78833 1e-05 0.97716 0.0
O13 O 0.79133 1e-05 0.03968 0.0
O14 O 0.93734 0.0 0.93998 0.0
O15 O 0.08453 1e-05 0.95689 0.0
O16 O 0.20499 1e-05 0.00137 0.0
O17 O 1.00438 1e-05 0.01271 0.0
C18 C 0.04764 0.0 0.00286 0.0
C19 C 0.10585 1e-05 0.00649 0.0
Dy20 Dy 0.93541 1e-05 0.33605 0.0
C21 C 0.43065 0.0 0.33992 0.0
C22 C 0.70633 1e-05 0.35796 0.0
Dy23 Dy 0.19078 0.0 0.34642 0.0
O24 O 0.73922 1e-05 0.32442 0.0
O25 O 0.80222 1e-05 0.38083 0.0
O26 O 0.88872 1e-05 0.26753 0.0
O27 O 0.07133 0.0 0.29034 0.0
C28 C 0.99935 0.0 0.25805 0.0
C29 C 0.09302 0.0 0.41873 0.0
O30 O 0.16158 0.0 0.34288 0.0
O31 O 0.95492 0.0 0.33235 0.0
O32 O 0.37533 0.0 0.37308 0.0
O33 O 0.35017 0.0 0.30961 0.0
O34 O 0.18917 1e-05 0.4078 0.0
O35 O 0.05593 0.0 0.39066 0.0
O36 O 0.97172 1e-05 0.34512 0.0
O37 O 0.17267 1e-05 0.33457 0.0
C38 C 0.05729 0.0 0.33698 0.0
C39 C 0.07371 1e-05 0.33873 0.0
Dy40 Dy 1.00323 1e-05 0.67 0.0
C41 C 0.29709 0.0 0.67354 0.0
C42 C 0.81694 1e-05 0.67424 0.0
Dy43 Dy 0.11105 0.0 0.67641 0.0
O44 O 0.8652 1e-05 0.64109 0.0
O45 O 0.88154 1e-05 0.70556 0.0
O46 O 0.07195 1e-05 0.60813 0.0
O47 O 1.01875 0.0 0.62358 0.0
C48 C 0.06558 1e-05 0.59631 0.0
C49 C 0.04808 0.0 0.74994 0.0
O50 O 0.91482 0.0 0.66489 0.0
O51 O 0.83875 1e-05 0.67728 0.0
O52 O 0.25084 0.0 0.70642 0.0
O53 O 0.23072 0.0 0.64191 0.0
O54 O 1.04055 0.0 0.73837 0.0
O55 O 0.09626 0.0 0.72255 0.0
O56 O 0.19992 1e-05 0.68162 0.0
O57 O 0.27531 0.0 0.66828 0.0
C58 C 0.81956 0.0 0.67051 0.0
C59 C 0.29496 1e-05 0.6755 0.0
C60 C 0.09404 0.0 0.96769 0.0
C61 C 0.05076 0.0 0.00246 0.0
C62 C 0.05344 0.0 0.04052 0.0
C63 C 0.10082 0.0 0.00634 0.0
N64 N 0.17631 1e-05 0.9385 0.0
N65 N 0.96934 0.0 0.06944 0.0
C66 C 0.12448 0.0 0.97032 0.0
C67 C 1.02494 0.0 0.03814 0.0
N68 N 0.09717 0.0 0.93093 0.0
N69 N 1.04135 0.0 0.07651 0.0
H70 H 0.95174 0.0 0.07037 0.0
H71 H 0.9322 0.0 0.09341 0.0
H72 H 0.05295 1e-05 0.07888 0.0
H73 H 1.02694 0.0 0.1048 0.0
H74 H 0.11599 0.0 0.90302 0.0
H75 H 0.07002 0.0 0.92733 0.0
H76 H 0.21015 0.0 0.91372 0.0
H77 H 0.193 1e-05 0.938 0.0
C78 C 0.55094 0.0 0.30876 0.0
C79 C 0.53937 0.0 0.34285 0.0
C80 C 0.60441 0.0 0.39055 0.0
C81 C 0.60694 1e-05 0.35623 0.0
N82 N 0.53443 1e-05 0.28584 0.0
N83 N 0.59821 0.0 0.4138 0.0
C84 C 0.5646 1e-05 0.31616 0.0
C85 C 0.58112 0.0 0.38318 0.0
N86 N 0.54312 0.0 0.26953 0.0
N87 N 0.62436 0.0 0.42978 0.0
H88 H 0.58466 0.0 0.4075 0.0
H89 H 0.63507 0.0 0.44363 0.0
H90 H 0.63814 1e-05 0.43495 0.0
H91 H 0.61727 0.0 0.45658 0.0
H92 H 0.55729 0.0 0.24337 0.0
H93 H 0.53371 0.0 0.26439 0.0
H94 H 0.496 1e-05 0.25658 0.0
H95 H 0.53509 1e-05 0.29212 0.0
C96 C 0.62693 0.0 0.71229 0.0
C97 C 0.68589 0.0 0.67475 0.0
C98 C 0.48689 0.0 0.63546 0.0
C99 C 0.42792 0.0 0.67297 0.0
N100 N 0.44568 0.0 0.74563 0.0
N101 N 0.66766 0.0 0.60215 0.0
C102 C 0.49918 0.0 0.71102 0.0
C103 C 0.61455 0.0 0.63672 0.0
N104 N 0.69169 0.0 0.74926 0.0
N105 N 0.42236 0.0 0.5985 0.0
H106 H 0.75774 0.0 0.60303 0.0
H107 H 0.61949 0.0 0.57444 0.0
H108 H 0.33227 0.0 0.59675 0.0
H109 H 0.46162 0.0 0.57042 0.0
H110 H 0.65264 0.0 0.77739 0.0
H111 H 0.78196 0.0 0.75103 0.0
H112 H 0.49355 0.0 0.77337 0.0
H113 H 0.35523 0.0 0.74478 0.0
C114 C 0.65053 0.0 0.69678 0.0
C115 C 0.68581 0.0 0.66996 0.0
C116 C 0.46409 1e-05 0.64924 0.0
C117 C 0.42884 0.0 0.67598 0.0
N118 N 0.49601 0.0 0.72259 0.0
N119 N 0.61927 1e-05 0.62264 0.0
C120 C 0.52482 0.0 0.69872 0.0
C121 C 0.58997 1e-05 0.64703 0.0
N122 N 0.73682 0.0 0.72321 0.0
N123 N 0.37749 1e-05 0.62314 0.0
H124 H 0.70664 1e-05 0.61512 0.0
H125 H 0.55829 1e-05 0.61079 0.0
H126 H 0.28676 1e-05 0.62337 0.0
H127 H 0.39484 1e-05 0.59912 0.0
H128 H 0.71894 0.0 0.7474 0.0
H129 H 0.82753 0.0 0.72319 0.0
H130 H 0.5575 0.0 0.73414 0.0
H131 H 0.40869 0.0 0.72978 0.0
C132 C 0.67288 0.0 0.04549 0.0
C133 C 0.64464 1e-05 0.01685 0.0
C134 C 0.47862 0.0 0.98381 0.0
C135 C 0.50846 0.0 0.01167 0.0
N136 N 0.62026 0.0 0.07264 0.0
N137 N 0.52496 1e-05 0.95836 0.0
C138 C 0.60171 0.0 0.04354 0.0
C139 C 0.54821 0.0 0.98608 0.0
N140 N 0.77242 0.0 0.07273 0.0
N141 N 0.37838 0.0 0.95704 0.0
H142 H 0.56448 1e-05 0.962 0.0
H143 H 0.4703 1e-05 0.93098 0.0
H144 H 0.32443 0.0 0.95422 0.0
H145 H 0.34352 0.0 0.93903 0.0
H146 H 0.80571 0.0 0.09072 0.0
H147 H 0.82702 1e-05 0.07666 0.0
H148 H 0.67303 0.0 0.10035 0.0
H149 H 0.57737 0.0 0.07017 0.0
C150 C 0.11755 0.0 0.30516 0.0
C151 C 0.05778 0.0 0.3363 0.0
C152 C 1.02347 0.0 0.3711 0.0
C153 C 0.0765 1e-05 0.33871 0.0
N154 N 0.19281 1e-05 0.27836 0.0
N155 N 0.94156 0.0 0.3963 0.0
C156 C 0.12906 0.0 0.3067 0.0
C157 C 1.00642 0.0 0.3683 0.0
N158 N 0.15728 0.0 0.2727 0.0
N159 N 0.99992 0.0 0.40659 0.0
H160 H 0.93451 0.0 0.39765 0.0
H161 H 0.88779 0.0 0.41657 0.0
H162 H 1.02269 1e-05 0.4117 0.0
H163 H 0.97196 0.0 0.43306 0.0
H164 H 0.18794 0.0 0.24607 0.0
H165 H 0.15209 0.0 0.27074 0.0
H166 H 0.24731 1e-05 0.25811 0.0
H167 H 0.19755 1e-05 0.27592 0.0
C168 C 1.04008 0.0 0.18937 0.0
C169 C 1.03521 0.0 0.21459 0.0
C170 C 0.10533 1e-05 0.15816 0.0
C171 C 0.10103 0.0 0.13127 0.0
N172 N 0.11095 0.0 0.12752 0.0
N173 N 1.03133 1e-05 0.21898 0.0
C174 C 0.08011 0.0 0.14844 0.0
C175 C 0.0593 1e-05 0.19792 0.0
N176 N 1.00145 0.0 0.20389 0.0
N177 N 0.16132 1e-05 0.14751 0.0
H178 H 0.99612 1e-05 0.248 0.0
H179 H 1.03219 1e-05 0.2059 0.0
H180 H 0.20584 1e-05 0.1206 0.0
H181 H 0.17709 1e-05 0.16795 0.0
H182 H 0.98879 0.0 0.1855 0.0
H183 H 0.97232 0.0 0.23363 0.0
H184 H 0.11007 0.0 0.14006 0.0
H185 H 0.15236 0.0 0.09968 0.0
C186 C 0.97192 1e-05 0.48061 0.0
C187 C 0.07273 0.0 0.46359 0.0
C188 C 0.16174 0.0 0.53396 0.0
C189 C 0.06089 0.0 0.55111 0.0
N190 N 0.85887 1e-05 0.54114 0.0
N191 N 0.24626 0.0 0.47326 0.0
C192 C 0.96207 1e-05 0.52443 0.0
C193 C 0.16203 0.0 0.49009 0.0
N194 N 0.88868 1e-05 0.45513 0.0
N195 N 0.26 0.0 0.55938 0.0
H196 H 0.24751 0.0 0.44136 0.0
H197 H 0.30696 0.0 0.49089 0.0
H198 H 0.26243 0.0 0.59154 0.0
H199 H 0.34174 0.0 0.54856 0.0
H200 H 0.82039 1e-05 0.46581 0.0
H201 H 0.89255 1e-05 0.42302 0.0
H202 H 0.7792 1e-05 0.52356 0.0
H203 H 0.85012 1e-05 0.57303 0.0
C204 C 0.15867 0.0 0.82089 0.0
C205 C 0.05428 0.0 0.79503 0.0
C206 C 0.95552 1e-05 0.8565 0.0
C207 C 0.05167 0.0 0.88274 0.0
N208 N 0.24986 0.0 0.89061 0.0
N209 N 0.85002 1e-05 0.7881 0.0
C210 C 0.15559 0.0 0.86501 0.0
C211 C 0.95218 1e-05 0.81278 0.0
N212 N 0.26055 0.0 0.80313 0.0
N213 N 0.86975 1e-05 0.8734 0.0
H214 H 0.84497 1e-05 0.75601 0.0
H215 H 0.76818 1e-05 0.79961 0.0
H216 H 0.87423 1e-05 0.90491 0.0
H217 H 0.80291 1e-05 0.85584 0.0
H218 H 0.34346 0.0 0.81939 0.0
H219 H 0.26397 0.0 0.77119 0.0
H220 H 0.32314 0.0 0.88094 0.0
H221 H 0.25236 0.0 0.92243 0.0
loop_
_geom_bond_atom_site_label_1
_geom_bond_atom_site_label_2
_geom_bond_distance
_geom_bond_site_symmetry_2
_ccdc_geom_bond_type
Dy0 O4 2.398 . S
Dy0 O5 2.491 1_554 S
Dy0 O6 2.403 . S
Dy0 O7 2.664 1_545 S
Dy0 O11 2.326 . S
Dy0 O15 2.310 1_554 S
Dy0 O16 2.351 1_545 S
C1 O12 1.185 1_554 S
C1 O13 1.355 . S
C2 O4 1.185 . S
C2 O5 1.355 1_554 S
Dy3 O7 2.310 1_655 S
Dy3 O10 2.351 1_565 S
Dy3 O12 2.398 1_554 S
Dy3 O13 2.491 . S
Dy3 O14 2.403 1_554 S
Dy3 O15 2.664 1_664 S
Dy3 O17 2.326 1_554 S
O4 Dy0 2.398 . S
O4 C2 1.185 . S
O5 Dy0 2.491 1_556 S
O5 C2 1.355 1_556 S
O6 Dy0 2.403 . S
O6 C8 1.254 . S
O7 Dy0 2.664 1_565 S
O7 Dy3 2.310 1_455 S
O7 C8 1.268 1_565 S
C8 O6 1.254 . S
C8 O7 1.268 1_545 S
C9 O14 1.254 1_545 S
C9 O15 1.268 1_655 S
O10 Dy3 2.351 1_545 S
O10 C18 1.249 1_655 S
O11 Dy0 2.326 . S
O11 C18 1.267 . S
O12 C1 1.185 1_556 S
O12 Dy3 2.398 1_556 S
O13 C1 1.355 . S
O13 Dy3 2.491 . S
O14 Dy3 2.403 1_556 S
O14 C9 1.254 1_565 S
O15 Dy0 2.310 1_556 S
O15 Dy3 2.664 1_446 S
O15 C9 1.268 1_455 S
O16 Dy0 2.351 1_565 S
O16 C19 1.249 . S
O17 Dy3 2.326 1_556 S
O17 C19 1.267 1_656 S
C18 O10 1.249 1_455 S
C18 O11 1.267 . S
C19 O16 1.249 . S
C19 O17 1.267 1_454 S
Dy20 O24 2.398 . S
Dy20 O25 2.491 1_565 S
Dy20 O26 2.403 . S
Dy20 O27 2.664 1_665 S
Dy20 O31 2.326 1_565 S
Dy20 O35 2.310 1_565 S
Dy20 O36 2.351 . S
C21 O32 1.185 . S
C21 O33 1.355 1_545 S
C22 O24 1.185 1_545 S
C22 O25 1.355 . S
Dy23 O27 2.310 . S
Dy23 O30 2.351 . S
Dy23 O32 2.398 . S
Dy23 O33 2.491 1_545 S
Dy23 O34 2.403 . S
Dy23 O35 2.664 1_455 S
Dy23 O37 2.326 1_545 S
O24 Dy20 2.398 . S
O24 C22 1.185 1_565 S
O25 Dy20 2.491 1_545 S
O25 C22 1.355 . S
O26 Dy20 2.403 . S
O26 C28 1.254 . S
O27 Dy20 2.664 1_445 S
O27 Dy23 2.310 . S
O27 C28 1.268 1_445 S
C28 O26 1.254 . S
C28 O27 1.268 1_665 S
C29 O34 1.254 . S
C29 O35 1.268 1_455 S
O30 Dy23 2.351 . S
O30 C38 1.249 . S
O31 Dy20 2.326 1_545 S
O31 C38 1.267 1_655 S
O32 C21 1.185 . S
O32 Dy23 2.398 . S
O33 C21 1.355 1_565 S
O33 Dy23 2.491 1_565 S
O34 Dy23 2.403 . S
O34 C29 1.254 . S
O35 Dy20 2.310 1_545 S
O35 Dy23 2.664 1_655 S
O35 C29 1.268 1_655 S
O36 Dy20 2.351 . S
O36 C39 1.249 1_655 S
O37 Dy23 2.326 1_565 S
O37 C39 1.267 . S
C38 O30 1.249 . S
C38 O31 1.267 1_455 S
C39 O36 1.249 1_455 S
C39 O37 1.267 . S
Dy40 O44 2.398 . S
Dy40 O45 2.491 . S
Dy40 O46 2.403 . S
Dy40 O47 2.664 1_665 S
Dy40 O51 2.326 . S
Dy40 O55 2.310 1_565 S
Dy40 O56 2.351 1_655 S
C41 O52 1.185 . S
C41 O53 1.355 . S
C42 O44 1.185 . S
C42 O45 1.355 . S
Dy43 O47 2.310 . S
Dy43 O50 2.351 1_455 S
Dy43 O52 2.398 . S
Dy43 O53 2.491 . S
Dy43 O54 2.403 . S
Dy43 O55 2.664 1_455 S
Dy43 O57 2.326 . S
O44 Dy40 2.398 . S
O44 C42 1.185 . S
O45 Dy40 2.491 . S
O45 C42 1.355 . S
O46 Dy40 2.403 . S
O46 C48 1.254 1_665 S
O47 Dy40 2.664 1_445 S
O47 Dy43 2.310 . S
O47 C48 1.268 . S
C48 O46 1.254 1_445 S
C48 O47 1.268 . S
C49 O54 1.254 . S
C49 O55 1.268 1_455 S
O50 Dy43 2.351 1_655 S
O50 C58 1.249 . S
O51 Dy40 2.326 . S
O51 C58 1.267 1_565 S
O52 C41 1.185 . S
O52 Dy43 2.398 . S
O53 C41 1.355 . S
O53 Dy43 2.491 . S
O54 Dy43 2.403 . S
O54 C49 1.254 . S
O55 Dy40 2.310 1_545 S
O55 Dy43 2.664 1_655 S
O55 C49 1.268 1_655 S
O56 Dy40 2.351 1_455 S
O56 C59 1.249 1_565 S
O57 Dy43 2.326 . S
O57 C59 1.267 . S
C58 O50 1.249 . S
C58 O51 1.267 1_545 S
C59 O56 1.249 1_545 S
C59 O57 1.267 . S
C60 C61 1.363 1_556 S
C60 C66 1.379 . S
C60 N68 1.356 . S
C61 C60 1.363 1_554 S
C61 C67 1.363 1_455 S
C62 C63 1.363 1_655 S
C62 C67 1.379 . S
C62 N69 1.356 . S
C63 C62 1.363 1_455 S
C63 C66 1.363 1_554 S
N64 C66 1.356 . S
N64 H76 0.984 . S
N64 H77 0.985 . S
N65 C67 1.356 . S
N65 H70 0.984 . S
N65 H71 0.985 . S
C66 C60 1.379 . S
C66 C63 1.363 1_556 S
C66 N64 1.356 . S
C67 C61 1.363 1_655 S
C67 C62 1.379 . S
C67 N65 1.356 . S
N68 C60 1.356 . S
N68 H74 0.984 . S
N68 H75 0.984 . S
N69 C62 1.356 . S
N69 H72 0.984 . S
N69 H73 0.985 . S
H70 N65 0.984 . S
H71 N65 0.985 . S
H72 N69 0.984 . S
H73 N69 0.985 . S
H74 N68 0.984 . S
H75 N68 0.984 . S
H76 N64 0.984 . S
H77 N64 0.985 . S
C78 C79 1.363 . S
C78 C84 1.379 1_565 S
C78 N86 1.356 . S
C79 C78 1.363 . S
C79 C85 1.363 1_565 S
C80 C81 1.363 . S
C80 C85 1.379 . S
C80 N87 1.356 . S
C81 C80 1.363 . S
C81 C84 1.363 . S
N82 C84 1.356 . S
N82 H94 0.984 1_545 S
N82 H95 0.985 . S
N83 C85 1.356 . S
N83 H88 0.984 1_545 S
N83 H89 0.985 . S
C84 C78 1.379 1_545 S
C84 C81 1.363 . S
C84 N82 1.356 . S
C85 C79 1.363 1_545 S
C85 C80 1.379 . S
C85 N83 1.356 . S
N86 C78 1.356 . S
N86 H92 0.984 . S
N86 H93 0.984 . S
N87 C80 1.356 . S
N87 H90 0.984 . S
N87 H91 0.985 . S
H88 N83 0.984 1_565 S
H89 N83 0.985 . S
H90 N87 0.984 . S
H91 N87 0.985 . S
H92 N86 0.984 . S
H93 N86 0.984 . S
H94 N82 0.984 1_565 S
H95 N82 0.985 . S
C96 C97 1.363 . S
C96 C102 1.379 . S
C96 N104 1.356 . S
C97 C96 1.363 . S
C97 C103 1.363 . S
C98 C99 1.363 . S
C98 C103 1.379 . S
C98 N105 1.356 . S
C99 C98 1.363 . S
C99 C102 1.363 . S
N100 C102 1.356 . S
N100 H112 0.984 . S
N100 H113 0.985 . S
N101 C103 1.356 . S
N101 H106 0.984 . S
N101 H107 0.985 . S
C102 C96 1.379 . S
C102 C99 1.363 . S
C102 N100 1.356 . S
C103 C97 1.363 . S
C103 C98 1.379 . S
C103 N101 1.356 . S
N104 C96 1.356 . S
N104 H110 0.984 . S
N104 H111 0.984 . S
N105 C98 1.356 . S
N105 H108 0.984 . S
N105 H109 0.985 . S
H106 N101 0.984 . S
H107 N101 0.985 . S
H108 N105 0.984 . S
H109 N105 0.985 . S
H110 N104 0.984 . S
H111 N104 0.984 . S
H112 N100 0.984 . S
H113 N100 0.985 . S
C114 C115 1.363 . S
C114 C120 1.379 . S
C114 N122 1.356 . S
C115 C114 1.363 . S
C115 C121 1.363 1_545 S
C116 C117 1.363 1_565 S
C116 C121 1.379 . S
C116 N123 1.356 . S
C117 C116 1.363 1_545 S
C117 C120 1.363 . S
N118 C120 1.356 . S
N118 H130 0.984 . S
N118 H131 0.985 . S
N119 C121 1.356 . S
N119 H124 0.984 . S
N119 H125 0.985 . S
C120 C114 1.379 . S
C120 C117 1.363 . S
C120 N118 1.356 . S
C121 C115 1.363 1_565 S
C121 C116 1.379 . S
C121 N119 1.356 . S
N122 C114 1.356 . S
N122 H128 0.984 . S
N122 H129 0.984 . S
N123 C116 1.356 . S
N123 H126 0.984 . S
N123 H127 0.985 . S
H124 N119 0.984 . S
H125 N119 0.985 . S
H126 N123 0.984 . S
H127 N123 0.985 . S
H128 N122 0.984 . S
H129 N122 0.984 . S
H130 N118 0.984 . S
H131 N118 0.985 . S
C132 C133 1.363 . S
C132 C138 1.379 . S
C132 N140 1.356 . S
C133 C132 1.363 . S
C133 C139 1.363 1_554 S
C134 C135 1.363 1_556 S
C134 C139 1.379 . S
C134 N141 1.356 . S
C135 C134 1.363 1_554 S
C135 C138 1.363 . S
N136 C138 1.356 . S
N136 H148 0.984 . S
N136 H149 0.985 . S
N137 C139 1.356 . S
N137 H142 0.984 . S
N137 H143 0.985 . S
C138 C132 1.379 . S
C138 C135 1.363 . S
C138 N136 1.356 . S
C139 C133 1.363 1_556 S
C139 C134 1.379 . S
C139 N137 1.356 . S
N140 C132 1.356 . S
N140 H146 0.984 . S
N140 H147 0.984 . S
N141 C134 1.356 . S
N141 H144 0.984 . S
N141 H145 0.985 . S
H142 N137 0.984 . S
H143 N137 0.985 . S
H144 N141 0.984 . S
H145 N141 0.985 . S
H146 N140 0.984 . S
H147 N140 0.984 . S
H148 N136 0.984 . S
H149 N136 0.985 . S
C150 C151 1.363 . S
C150 C156 1.379 . S
C150 N158 1.356 . S
C151 C150 1.363 . S
C151 C157 1.363 1_455 S
C152 C153 1.363 1_655 S
C152 C157 1.379 . S
C152 N159 1.356 . S
C153 C152 1.363 1_455 S
C153 C156 1.363 . S
N154 C156 1.356 . S
N154 H166 0.984 . S
N154 H167 0.985 . S
N155 C157 1.356 . S
N155 H160 0.984 . S
N155 H161 0.985 . S
C156 C150 1.379 . S
C156 C153 1.363 . S
C156 N154 1.356 . S
C157 C151 1.363 1_655 S
C157 C152 1.379 . S
C157 N155 1.356 . S
N158 C150 1.356 . S
N158 H164 0.984 . S
N158 H165 0.984 . S
N159 C152 1.356 . S
N159 H162 0.984 . S
N159 H163 0.985 . S
H160 N155 0.984 . S
H161 N155 0.985 . S
H162 N159 0.984 . S
H163 N159 0.985 . S
H164 N158 0.984 . S
H165 N158 0.984 . S
H166 N154 0.984 . S
H167 N154 0.985 . S
C168 C169 1.363 . S
C168 C174 1.379 . S
C168 N176 1.356 1_455 S
C169 C168 1.363 . S
C169 C175 1.363 1_545 S
C170 C171 1.363 1_565 S
C170 C175 1.379 . S
C170 N177 1.356 . S
C171 C170 1.363 1_545 S
C171 C174 1.363 . S
N172 C174 1.357 . S
N172 H184 0.984 1_455 S
N172 H185 0.985 . S
N173 C175 1.356 . S
N173 H178 0.984 . S
N173 H179 0.985 . S
C174 C168 1.379 . S
C174 C171 1.363 . S
C174 N172 1.357 . S
C175 C169 1.363 1_565 S
C175 C170 1.379 . S
C175 N173 1.356 . S
N176 C168 1.356 1_655 S
N176 H182 0.984 . S
N176 H183 0.984 . S
N177 C170 1.356 . S
N177 H180 0.984 . S
N177 H181 0.985 . S
H178 N173 0.984 . S
H179 N173 0.985 . S
H180 N177 0.984 . S
H181 N177 0.985 . S
H182 N176 0.984 . S
H183 N176 0.984 . S
H184 N172 0.984 1_655 S
H185 N172 0.985 . S
C186 C187 1.363 1_665 S
C186 C192 1.379 . S
C186 N194 1.356 . S
C187 C186 1.363 1_445 S
C187 C193 1.363 . S
C188 C189 1.363 . S
C188 C193 1.379 . S
C188 N195 1.356 . S
C189 C188 1.363 . S
C189 C192 1.363 1_445 S
N190 C192 1.356 . S
N190 H202 0.984 . S
N190 H203 0.985 . S
N191 C193 1.356 . S
N191 H196 0.984 . S
N191 H197 0.985 . S
C192 C186 1.379 . S
C192 C189 1.363 1_665 S
C192 N190 1.356 . S
C193 C187 1.363 . S
C193 C188 1.379 . S
C193 N191 1.356 . S
N194 C186 1.356 . S
N194 H200 0.984 . S
N194 H201 0.984 . S
N195 C188 1.356 . S
N195 H198 0.984 . S
N195 H199 0.985 . S
H196 N191 0.984 . S
H197 N191 0.985 . S
H198 N195 0.984 . S
H199 N195 0.985 . S
H200 N194 0.984 . S
H201 N194 0.984 . S
H202 N190 0.984 . S
H203 N190 0.985 . S
C204 C205 1.363 . S
C204 C210 1.379 . S
C204 N212 1.356 . S
C205 C204 1.363 . S
C205 C211 1.363 1_445 S
C206 C207 1.363 1_665 S
C206 C211 1.379 . S
C206 N213 1.356 . S
C207 C206 1.363 1_445 S
C207 C210 1.363 . S
N208 C210 1.356 . S
N208 H220 0.984 . S
N208 H221 0.985 . S
N209 C211 1.356 . S
N209 H214 0.984 . S
N209 H215 0.985 . S
C210 C204 1.379 . S
C210 C207 1.363 . S
C210 N208 1.356 . S
C211 C205 1.363 1_665 S
C211 C206 1.379 . S
C211 N209 1.356 . S
N212 C204 1.356 . S
N212 H218 0.984 . S
N212 H219 0.984 . S
N213 C206 1.356 . S
N213 H216 0.984 . S
N213 H217 0.985 . S
H214 N209 0.984 . S
H215 N209 0.985 . S
H216 N213 0.984 . S
H217 N213 0.985 . S
H218 N212 0.984 . S
H219 N212 0.984 . S
H220 N208 0.984 . S
H221 N208 0.985 . S
C61 C18 1.868 . S
C63 C19 1.868 . S
C79 C21 0.726 1_565 S
C81 C22 0.726 . S
C97 C42 1.209 . S
C99 C41 1.209 . S
C115 C58 2.444 . S
C117 C59 2.444 . S
C133 C1 1.153 . S
C135 C2 1.153 . S
C151 C38 1.876 . S
C153 C39 1.876 . S
C169 C28 1.468 1_445 S
C171 C8 1.468 . S
C187 C29 1.460 . S
C189 C48 1.450 . S
C205 C49 1.469 . S
C207 C9 1.457 1_455 S
