# Generated by pormake.
# Topology sma, (6)-cn, num edge types: 1
# Building blocks:
#     Node 0, Type 0, BuildingBlock: NUHQIS_clean_sbu_0, # of connection points: 6
#     Node 1, Type 0, BuildingBlock: NUHQIS_clean_sbu_0, # of connection points: 6
#     Node 2, Type 0, BuildingBlock: NUHQIS_clean_sbu_0, # of connection points: 6
#     Edge 3, Type (0, 0), BuildingBlock: AJUNOK_clean_linker_0, # of connection points: 2
#     Edge 4, Type (0, 0), BuildingBlock: AJUNOK_clean_linker_0, # of connection points: 2
#     Edge 5, Type (0, 0), BuildingBlock: AJUNOK_clean_linker_0, # of connection points: 2
#     Edge 6, Type (0, 0), BuildingBlock: AJUNOK_clean_linker_0, # of connection points: 2
#     Edge 7, Type (0, 0), BuildingBlock: AJUNOK_clean_linker_0, # of connection points: 2
#     Edge 8, Type (0, 0), BuildingBlock: AJUNOK_clean_linker_0, # of connection points: 2
#     Edge 9, Type (0, 0), BuildingBlock: AJUNOK_clean_linker_0, # of connection points: 2
#     Edge 10, Type (0, 0), BuildingBlock: AJUNOK_clean_linker_0, # of connection points: 2
#     Edge 11, Type (0, 0), BuildingBlock: AJUNOK_clean_linker_0, # of connection points: 2
# Relax obj value: 0.054
# Max RMSD: 0.165
# Mean RMSD: 0.160
data_MOF--net-sma--node1-NUHQIS_clean_sbu_0--edge1-AJUNOK_clean_linker_0
_symmetry_space_group_name_H-M    P1
_symmetry_Int_Tables_number       1
_symmetry_cell_setting            triclinic
loop_
_symmetry_equiv_pos_as_xyz
'x, y, z'
_cell_length_a     32.276572
_cell_length_b     32.179806
_cell_length_c     10.575661
_cell_angle_alpha  91.971751
_cell_angle_beta   91.964841
_cell_angle_gamma 119.68101
loop_
_atom_site_label
_atom_site_type_symbol
_atom_site_fract_x
_atom_site_fract_y
_atom_site_fract_z
_atom_type_partial_charge
Tb0 Tb 0.10666 0.5439 0.1835 0.0
Eu1 Eu 1.02611 0.58302 0.20943 0.0
C2 C 0.07232 0.56037 0.43793 0.0
C3 C 0.99424 0.47456 0.15941 0.0
C4 C 0.21061 0.52454 0.1084 0.0
C5 C 0.28561 0.5241 0.13186 0.0
C6 C 0.24339 0.51751 0.18177 0.0
C7 C 0.22171 0.54011 -0.01505 0.0
C8 C 0.26433 0.54695 0.93484 0.0
C9 C 0.29608 0.53784 0.00707 0.0
C10 C 0.16439 0.5125 0.16175 0.0
O11 O 0.09451 0.56164 -0.00172 0.0
O12 O 1.05493 0.60489 0.02302 0.0
O13 O 0.09859 0.64212 0.28831 0.0
O14 O 0.14795 0.62193 0.18062 0.0
C15 C 0.0801 0.59086 -0.04083 0.0
O16 O 1.00091 0.63412 0.18504 0.0
O17 O 0.95985 0.57128 0.2901 0.0
O18 O 1.03139 0.54726 0.37871 0.0
O19 O 0.10897 0.56555 0.37791 0.0
O20 O 1.03569 0.48311 0.21154 0.0
O21 O 0.98944 0.50931 0.112 0.0
C22 C 0.1409 0.65313 0.24756 0.0
O23 O 0.16571 0.53965 0.25772 0.0
O24 O 0.12764 0.50042 0.08319 0.0
C25 C 0.91653 0.60269 0.18265 0.0
C26 C 0.83016 0.59312 0.07849 0.0
C27 C 0.86944 0.60678 0.00319 0.0
C28 C 0.91223 0.61128 0.05458 0.0
C29 C 0.87736 0.58944 0.25777 0.0
C30 C 0.83461 0.5846 0.20628 0.0
C31 C 0.96155 0.60878 0.24192 0.0
H32 H 0.30972 0.51737 0.19004 0.0
H33 H 0.23574 0.50565 0.27716 0.0
H34 H 0.19703 0.54586 0.92642 0.0
H35 H 0.27159 0.55756 0.83839 0.0
H36 H 0.8668 0.61341 0.90431 0.0
H37 H 0.94186 0.62158 -0.00567 0.0
H38 H 0.87993 0.58304 0.35691 0.0
H39 H 0.80507 0.57458 0.26676 0.0
Tb40 Tb 0.64202 0.10723 0.48202 0.0
Eu41 Eu 0.52022 1.03611 0.48206 0.0
C42 C 0.58904 0.07434 0.72551 0.0
C43 C 0.59273 0.99319 0.51735 0.0
C44 C 0.76255 0.20784 0.39655 0.0
C45 C 0.80287 0.29488 0.38675 0.0
C46 C 0.76871 0.25266 0.43853 0.0
C47 C 0.79064 0.20628 0.29978 0.0
C48 C 0.82472 0.24844 0.24802 0.0
C49 C 0.8317 0.29337 0.29172 0.0
C50 C 0.73029 0.16308 0.45878 0.0
O51 O 0.60459 0.09664 0.30328 0.0
O52 O 0.54516 1.01939 0.30595 0.0
O53 O 0.53695 0.11107 0.44169 0.0
O54 O 0.61383 0.15438 0.53116 0.0
C55 C 0.57939 0.05375 0.24901 0.0
O56 O 0.4495 1.00998 0.39006 0.0
O57 O 0.45628 0.9883 0.57863 0.0
O58 O 0.55198 0.07389 0.66966 0.0
O59 O 0.62583 0.07976 0.66497 0.0
O60 O 0.63053 1.03396 0.48947 0.0
O61 O 0.54981 0.98795 0.52733 0.0
C62 C 0.57315 0.15127 0.49202 0.0
O63 O 0.70695 0.16619 0.55384 0.0
O64 O 0.70391 0.12476 0.38494 0.0
C65 C 0.38836 0.93276 0.44595 0.0
C66 C 0.30846 0.84082 0.38279 0.0
C67 C 0.33447 0.87078 0.28726 0.0
C68 C 0.37388 0.91629 0.31838 0.0
C69 C 0.36304 0.90232 0.54128 0.0
C70 C 0.32379 0.85681 0.51015 0.0
C71 C 0.42733 0.98234 0.4814 0.0
H72 H 0.80794 0.32888 0.42468 0.0
H73 H 0.74808 0.25537 0.51375 0.0
H74 H 0.78705 0.17241 0.26611 0.0
H75 H 0.84623 0.24595 0.17492 0.0
H76 H 0.32356 0.85949 0.18828 0.0
H77 H 0.39238 0.93881 0.24235 0.0
H78 H 0.37321 0.91401 0.64035 0.0
H79 H 0.30528 0.83418 0.58599 0.0
Tb80 Tb 0.58432 0.61839 0.81518 0.0
Eu81 Eu 0.53783 0.49824 0.8384 0.0
C82 C 0.55155 0.57331 0.07419 0.0
C83 C 0.64998 0.57328 0.88093 0.0
C84 C 0.61005 0.74338 0.72494 0.0
C85 C 0.62986 0.82614 0.77185 0.0
C86 C 0.63241 0.78555 0.80421 0.0
C87 C 0.58427 0.74245 0.61373 0.0
C88 C 0.58189 0.783 0.58126 0.0
C89 C 0.60539 0.82562 0.65858 0.0
C90 C 0.61969 0.70363 0.74831 0.0
O91 O 0.59522 0.57958 0.66396 0.0
O92 O 0.52446 0.51268 0.64299 0.0
O93 O 0.47902 0.51309 0.88202 0.0
O94 O 0.50584 0.58719 0.79793 0.0
C95 C 0.55817 0.54941 0.59264 0.0
O96 O 0.48777 0.4246 0.7704 0.0
O97 O 0.53918 0.43838 0.92589 0.0
O98 O 0.54537 0.53155 0.03182 0.0
O99 O 0.56346 0.61065 0.00688 0.0
O100 O 0.64241 0.60974 0.89932 0.0
O101 O 0.61739 0.53191 0.82621 0.0
C102 C 0.4719 0.54789 0.84574 0.0
O103 O 0.62312 0.69285 0.86475 0.0
O104 O 0.59791 0.66553 0.67128 0.0
C105 C 0.51775 0.37135 0.78588 0.0
C106 C 0.53801 0.3033 0.67223 0.0
C107 C 0.55915 0.35017 0.63074 0.0
C108 C 0.54916 0.38398 0.68736 0.0
C109 C 0.49664 0.32475 0.82739 0.0
C110 C 0.50661 0.29098 0.77102 0.0
C111 C 0.5065 0.40623 0.8456 0.0
H112 H 0.64738 0.85806 0.83503 0.0
H113 H 0.65304 0.78761 0.88958 0.0
H114 H 0.56716 0.71091 0.54915 0.0
H115 H 0.56279 0.78143 0.49335 0.0
H116 H 0.58292 0.36048 0.55363 0.0
H117 H 0.56572 0.41988 0.65401 0.0
H118 H 0.4724 0.31444 0.90348 0.0
H119 H 0.49008 0.25527 0.80554 0.0
C120 C 0.37526 0.58126 0.90534 0.0
C121 C 0.33847 0.53908 -0.04834 0.0
C122 C 0.41765 0.58354 0.866 0.0
C123 C 0.42457 0.54359 0.87067 0.0
H124 H 0.37203 0.61318 0.9042 0.0
H125 H 0.44577 0.61734 0.83604 0.0
S126 S 0.3354 0.42276 -0.03125 0.0
N127 N 0.30955 0.4555 -0.01092 0.0
N128 N 0.38792 0.45896 0.91418 0.0
C129 C 0.38651 0.50044 0.91033 0.0
C130 C 0.34387 0.49842 -0.04894 0.0
C131 C 0.91756 0.34452 0.24086 0.0
C132 C 0.87135 0.33852 0.2452 0.0
C133 C 0.9565 0.38786 0.20789 0.0
C134 C 0.95102 0.42714 0.17638 0.0
H135 H 0.92412 0.31601 0.26774 0.0
H136 H 0.99148 0.39091 0.21009 0.0
S137 S 0.83658 0.42881 0.16347 0.0
N138 N 0.82176 0.37467 0.20762 0.0
N139 N 0.89468 0.45606 0.14579 0.0
C140 C 0.90457 0.42099 0.17535 0.0
C141 C 0.86492 0.37686 0.21003 0.0
C142 C 0.55743 0.9052 0.54262 0.0
C143 C 0.59827 0.95116 0.54625 0.0
C144 C 0.56022 0.8651 0.57844 0.0
C145 C 0.60392 0.86908 0.62038 0.0
H146 H 0.52266 0.89999 0.51267 0.0
H147 H 0.52761 0.83074 0.57534 0.0
S148 S 0.7219 0.98065 0.64378 0.0
N149 N 0.68418 0.99795 0.59306 0.0
N150 N 0.68945 0.92236 0.65895 0.0
C151 C 0.64525 0.91459 0.62283 0.0
C152 C 0.64245 0.95557 0.58575 0.0
C153 C 0.73928 0.62097 0.92117 0.0
C154 C 0.69594 0.5778 0.92797 0.0
C155 C 0.78284 0.6254 -0.03291 0.0
C156 C 0.78431 0.58724 0.02432 0.0
H157 H 0.73957 0.65135 0.87927 0.0
H158 H 0.81545 0.65921 -0.03973 0.0
S159 S 0.68076 0.46721 0.06806 0.0
N160 N 0.65734 0.49634 -0.00303 0.0
N161 N 0.73878 0.50508 0.08504 0.0
C162 C 0.74122 0.54408 0.03213 0.0
C163 C 0.69717 0.53926 -0.01651 0.0
C164 C 0.26645 0.76166 0.25661 0.0
C165 C 0.26514 0.79333 0.34941 0.0
C166 C 0.22619 0.71669 0.22415 0.0
C167 C 0.1827 0.70155 0.28233 0.0
H168 H 0.2991 0.77145 0.20971 0.0
H169 H 0.22934 0.69367 0.15256 0.0
S170 S 0.16017 0.77202 0.52887 0.0
N171 N 0.21639 0.8071 0.49657 0.0
N172 N 0.14103 0.72265 0.43733 0.0
C173 C 0.18085 0.73317 0.37473 0.0
C174 C 0.22193 0.77891 0.4079 0.0
C175 C 0.51029 0.22088 0.57607 0.0
C176 C 0.54822 0.26688 0.61353 0.0
C177 C 0.51874 0.18448 0.53046 0.0
C178 C 0.56553 0.19242 0.52168 0.0
H179 H 0.47366 0.21268 0.58408 0.0
H180 H 0.4882 0.14932 0.50687 0.0
S181 S 0.67743 0.30769 0.59975 0.0
N182 N 0.63436 0.31919 0.63301 0.0
N183 N 0.6504 0.25096 0.54678 0.0
C184 C 0.60384 0.23887 0.55419 0.0
C185 C 0.59516 0.27604 0.60004 0.0
C186 C 1.04392 0.59017 0.75487 0.0
C187 C 0.08501 0.60034 0.82788 0.0
C188 C 1.04073 0.57848 0.62666 0.0
C189 C 0.07891 0.57737 0.56939 0.0
H190 H 1.0123 0.58624 0.79868 0.0
H191 H 1.00732 0.56797 0.57435 0.0
S192 S 0.19904 0.61549 0.71886 0.0
N193 N 0.16773 0.61887 0.83496 0.0
N194 N 0.16253 0.59743 0.59057 0.0
C195 C 0.12249 0.59381 0.63936 0.0
C196 C 0.12549 0.60555 0.77014 0.0
C197 C 0.53988 1.03118 0.038 0.0
C198 C 0.58176 0.04864 0.11514 0.0
C199 C 0.54265 0.03907 0.90989 0.0
C200 C 0.58734 0.06418 0.85741 0.0
H201 H 0.50517 1.01457 0.07807 0.0
H202 H 0.5097 1.02659 0.8527 0.0
S203 S 0.70666 0.10953 0.02076 0.0
N204 N 0.66823 0.08611 0.13188 0.0
N205 N 0.67396 0.10136 0.88898 0.0
C206 C 0.6293 0.07822 0.93253 0.0
C207 C 0.62632 0.07022 0.06272 0.0
C208 C 0.5909 0.59931 0.41047 0.0
C209 C 0.55221 0.56068 0.46367 0.0
C210 C 0.58825 0.60783 0.28339 0.0
C211 C 0.54701 0.57775 0.20765 0.0
H212 H 0.62438 0.62143 0.46493 0.0
H213 H 0.62 0.63493 0.24185 0.0
S214 S 0.43283 0.47886 0.30566 0.0
N215 N 0.46873 0.49739 0.43529 0.0
N216 N 0.46461 0.51343 0.19411 0.0
C217 C 0.50655 0.54241 0.26165 0.0
C218 C 0.50899 0.53366 0.39086 0.0
loop_
_geom_bond_atom_site_label_1
_geom_bond_atom_site_label_2
_geom_bond_distance
_geom_bond_site_symmetry_2
_ccdc_geom_bond_type
Tb0 C10 2.825 . S
Tb0 O11 2.347 . S
Tb0 O14 2.366 . S
Tb0 O19 2.418 . S
Tb0 O20 2.384 1_455 S
Tb0 O23 2.479 . S
Tb0 O24 2.471 . S
Eu1 O12 2.418 1_554 S
Eu1 O13 2.384 1_655 S
Eu1 O16 2.479 . S
Eu1 O17 2.471 . S
Eu1 O18 2.347 1_655 S
Eu1 O21 2.366 . S
Eu1 C31 2.825 . S
C2 O18 1.259 . S
C2 O19 1.265 . S
C3 O20 1.255 . S
C3 O21 1.265 . S
C4 C6 1.380 . S
C4 C7 1.374 . S
C4 C10 1.507 . S
C5 C6 1.384 . S
C5 C9 1.387 . S
C5 H32 0.930 . S
C6 C4 1.380 . S
C6 C5 1.384 . S
C6 H33 0.931 . S
C7 C4 1.374 . S
C7 C8 1.390 . S
C7 H34 0.930 1_554 S
C8 C7 1.390 . S
C8 C9 1.391 . S
C8 H35 0.930 1_554 S
C9 C5 1.387 . S
C9 C8 1.391 . S
C10 Tb0 2.825 . S
C10 C4 1.507 . S
C10 O23 1.238 . S
C10 O24 1.247 . S
O11 Tb0 2.347 . S
O11 C15 1.259 1_554 S
O12 Eu1 2.418 1_556 S
O12 C15 1.265 1_655 S
O13 Eu1 2.384 1_455 S
O13 C22 1.255 . S
O14 Tb0 2.366 . S
O14 C22 1.265 . S
C15 O11 1.259 1_556 S
C15 O12 1.265 1_455 S
O16 Eu1 2.479 . S
O16 C31 1.238 . S
O17 Eu1 2.471 . S
O17 C31 1.247 . S
O18 Eu1 2.347 1_455 S
O18 C2 1.259 . S
O19 Tb0 2.418 . S
O19 C2 1.265 . S
O20 Tb0 2.384 1_655 S
O20 C3 1.255 . S
O21 Eu1 2.366 . S
O21 C3 1.265 . S
C22 O13 1.255 . S
C22 O14 1.265 . S
O23 Tb0 2.479 . S
O23 C10 1.238 . S
O24 Tb0 2.471 . S
O24 C10 1.247 . S
C25 C28 1.380 . S
C25 C29 1.374 . S
C25 C31 1.507 . S
C26 C27 1.387 . S
C26 C30 1.391 . S
C27 C26 1.387 . S
C27 C28 1.384 . S
C27 H36 0.930 . S
C28 C25 1.380 . S
C28 C27 1.384 . S
C28 H37 0.924 1_554 S
C29 C25 1.374 . S
C29 C30 1.390 . S
C29 H38 0.930 . S
C30 C26 1.391 . S
C30 C29 1.390 . S
C30 H39 0.930 . S
C31 Eu1 2.825 . S
C31 O16 1.238 . S
C31 O17 1.247 . S
C31 C25 1.507 . S
H32 C5 0.930 . S
H33 C6 0.931 . S
H34 C7 0.930 1_556 S
H35 C8 0.930 1_556 S
H36 C27 0.930 . S
H37 C28 0.924 1_556 S
H38 C29 0.930 . S
H39 C30 0.930 . S
Tb40 C50 2.825 . S
Tb40 O51 2.347 . S
Tb40 O54 2.366 . S
Tb40 O59 2.418 . S
Tb40 O60 2.384 1_545 S
Tb40 O63 2.479 . S
Tb40 O64 2.471 . S
Eu41 O52 2.418 1_565 S
Eu41 O53 2.384 1_565 S
Eu41 O56 2.479 . S
Eu41 O57 2.471 . S
Eu41 O58 2.347 1_565 S
Eu41 O61 2.366 . S
Eu41 C71 2.825 . S
C42 O58 1.259 . S
C42 O59 1.265 . S
C43 O60 1.255 . S
C43 O61 1.265 . S
C44 C46 1.380 . S
C44 C47 1.374 . S
C44 C50 1.507 . S
C45 C46 1.384 . S
C45 C49 1.387 . S
C45 H72 0.930 . S
C46 C44 1.380 . S
C46 C45 1.384 . S
C46 H73 0.931 . S
C47 C44 1.374 . S
C47 C48 1.390 . S
C47 H74 0.930 . S
C48 C47 1.390 . S
C48 C49 1.391 . S
C48 H75 0.930 . S
C49 C45 1.387 . S
C49 C48 1.391 . S
C50 Tb40 2.825 . S
C50 C44 1.507 . S
C50 O63 1.238 . S
C50 O64 1.247 . S
O51 Tb40 2.347 . S
O51 C55 1.259 . S
O52 Eu41 2.418 1_545 S
O52 C55 1.265 . S
O53 Eu41 2.384 1_545 S
O53 C62 1.255 . S
O54 Tb40 2.366 . S
O54 C62 1.265 . S
C55 O51 1.259 . S
C55 O52 1.265 . S
O56 Eu41 2.479 . S
O56 C71 1.238 . S
O57 Eu41 2.471 . S
O57 C71 1.247 . S
O58 Eu41 2.347 1_545 S
O58 C42 1.259 . S
O59 Tb40 2.418 . S
O59 C42 1.265 . S
O60 Tb40 2.384 1_565 S
O60 C43 1.255 . S
O61 Eu41 2.366 . S
O61 C43 1.265 . S
C62 O53 1.255 . S
C62 O54 1.265 . S
O63 Tb40 2.479 . S
O63 C50 1.238 . S
O64 Tb40 2.471 . S
O64 C50 1.247 . S
C65 C68 1.380 . S
C65 C69 1.374 . S
C65 C71 1.507 . S
C66 C67 1.387 . S
C66 C70 1.391 . S
C67 C66 1.387 . S
C67 C68 1.384 . S
C67 H76 0.930 . S
C68 C65 1.380 . S
C68 C67 1.384 . S
C68 H77 0.931 . S
C69 C65 1.374 . S
C69 C70 1.390 . S
C69 H78 0.930 . S
C70 C66 1.391 . S
C70 C69 1.390 . S
C70 H79 0.930 . S
C71 Eu41 2.825 . S
C71 O56 1.238 . S
C71 O57 1.247 . S
C71 C65 1.507 . S
H72 C45 0.930 . S
H73 C46 0.931 . S
H74 C47 0.930 . S
H75 C48 0.930 . S
H76 C67 0.930 . S
H77 C68 0.931 . S
H78 C69 0.930 . S
H79 C70 0.930 . S
Tb80 C90 2.825 . S
Tb80 O91 2.347 . S
Tb80 O94 2.366 . S
Tb80 O99 2.418 1_556 S
Tb80 O100 2.384 . S
Tb80 O103 2.479 . S
Tb80 O104 2.471 . S
Eu81 O92 2.418 . S
Eu81 O93 2.384 . S
Eu81 O96 2.479 . S
Eu81 O97 2.471 . S
Eu81 O98 2.347 . S
Eu81 O101 2.366 . S
Eu81 C111 2.825 . S
C82 O98 1.259 1_554 S
C82 O99 1.265 . S
C83 O100 1.255 . S
C83 O101 1.265 . S
C84 C86 1.380 . S
C84 C87 1.374 . S
C84 C90 1.507 . S
C85 C86 1.384 . S
C85 C89 1.387 . S
C85 H112 0.930 . S
C86 C84 1.380 . S
C86 C85 1.384 . S
C86 H113 0.931 1_556 S
C87 C84 1.374 . S
C87 C88 1.390 . S
C87 H114 0.930 . S
C88 C87 1.390 . S
C88 C89 1.391 . S
C88 H115 0.930 . S
C89 C85 1.387 . S
C89 C88 1.391 . S
C90 Tb80 2.825 . S
C90 C84 1.507 . S
C90 O103 1.238 . S
C90 O104 1.247 . S
O91 Tb80 2.347 . S
O91 C95 1.259 . S
O92 Eu81 2.418 . S
O92 C95 1.265 . S
O93 Eu81 2.384 . S
O93 C102 1.255 . S
O94 Tb80 2.366 . S
O94 C102 1.265 . S
C95 O91 1.259 . S
C95 O92 1.265 . S
O96 Eu81 2.479 . S
O96 C111 1.238 . S
O97 Eu81 2.471 . S
O97 C111 1.247 . S
O98 Eu81 2.347 . S
O98 C82 1.259 1_556 S
O99 Tb80 2.418 1_554 S
O99 C82 1.265 . S
O100 Tb80 2.384 . S
O100 C83 1.255 . S
O101 Eu81 2.366 . S
O101 C83 1.265 . S
C102 O93 1.255 . S
C102 O94 1.265 . S
O103 Tb80 2.479 . S
O103 C90 1.238 . S
O104 Tb80 2.471 . S
O104 C90 1.247 . S
C105 C108 1.380 . S
C105 C109 1.374 . S
C105 C111 1.507 . S
C106 C107 1.387 . S
C106 C110 1.391 . S
C107 C106 1.387 . S
C107 C108 1.384 . S
C107 H116 0.930 . S
C108 C105 1.380 . S
C108 C107 1.384 . S
C108 H117 0.931 . S
C109 C105 1.374 . S
C109 C110 1.390 . S
C109 H118 0.930 1_556 S
C110 C106 1.391 . S
C110 C109 1.390 . S
C110 H119 0.930 1_556 S
C111 Eu81 2.825 . S
C111 O96 1.238 . S
C111 O97 1.247 . S
C111 C105 1.507 . S
H112 C85 0.930 . S
H113 C86 0.931 1_554 S
H114 C87 0.930 . S
H115 C88 0.930 . S
H116 C107 0.930 . S
H117 C108 0.931 . S
H118 C109 0.930 1_554 S
H119 C110 0.930 1_554 S
C120 C121 1.369 1_556 S
C120 C122 1.419 . S
C120 H124 0.930 . S
C121 C120 1.369 1_554 S
C121 C130 1.429 . S
C122 C120 1.419 . S
C122 C123 1.363 . S
C122 H125 0.929 . S
C123 C122 1.363 . S
C123 C129 1.428 . S
H124 C120 0.930 . S
H125 C122 0.929 . S
S126 N127 1.613 . S
S126 N128 1.610 . S
N127 S126 1.613 . S
N127 C130 1.350 . S
N128 S126 1.610 . S
N128 C129 1.351 1_554 S
C129 C123 1.428 . S
C129 N128 1.351 1_556 S
C129 C130 1.434 1_556 S
C130 C121 1.429 . S
C130 N127 1.350 . S
C130 C129 1.434 1_554 S
C131 C132 1.369 . S
C131 C133 1.419 . S
C131 H135 0.930 . S
C132 C131 1.369 . S
C132 C141 1.429 . S
C133 C131 1.419 . S
C133 C134 1.363 . S
C133 H136 0.929 . S
C134 C133 1.363 . S
C134 C140 1.428 . S
H135 C131 0.930 . S
H136 C133 0.929 . S
S137 N138 1.613 . S
S137 N139 1.610 . S
N138 S137 1.613 . S
N138 C141 1.350 . S
N139 S137 1.610 . S
N139 C140 1.351 . S
C140 C134 1.428 . S
C140 N139 1.351 . S
C140 C141 1.434 . S
C141 C132 1.429 . S
C141 N138 1.350 . S
C141 C140 1.434 . S
C142 C143 1.369 . S
C142 C144 1.419 . S
C142 H146 0.930 . S
C143 C142 1.369 . S
C143 C152 1.429 . S
C144 C142 1.419 . S
C144 C145 1.363 . S
C144 H147 0.929 . S
C145 C144 1.363 . S
C145 C151 1.428 . S
H146 C142 0.930 . S
H147 C144 0.929 . S
S148 N149 1.613 . S
S148 N150 1.610 . S
N149 S148 1.613 . S
N149 C152 1.350 . S
N150 S148 1.610 . S
N150 C151 1.351 . S
C151 C145 1.428 . S
C151 N150 1.351 . S
C151 C152 1.434 . S
C152 C143 1.429 . S
C152 N149 1.350 . S
C152 C151 1.434 . S
C153 C154 1.369 . S
C153 C155 1.419 1_556 S
C153 H157 0.930 . S
C154 C153 1.369 . S
C154 C163 1.429 1_556 S
C155 C153 1.419 1_554 S
C155 C156 1.363 . S
C155 H158 0.929 1_554 S
C156 C155 1.363 . S
C156 C162 1.428 . S
H157 C153 0.930 . S
H158 C155 0.929 1_556 S
S159 N160 1.613 . S
S159 N161 1.610 . S
N160 S159 1.613 . S
N160 C163 1.350 . S
N161 S159 1.610 . S
N161 C162 1.351 . S
C162 C156 1.428 . S
C162 N161 1.351 . S
C162 C163 1.434 . S
C163 C154 1.429 1_554 S
C163 N160 1.350 . S
C163 C162 1.434 . S
C164 C165 1.369 . S
C164 C166 1.419 . S
C164 H168 0.930 . S
C165 C164 1.369 . S
C165 C174 1.429 . S
C166 C164 1.419 . S
C166 C167 1.363 . S
C166 H169 0.929 . S
C167 C166 1.363 . S
C167 C173 1.428 . S
H168 C164 0.930 . S
H169 C166 0.929 . S
S170 N171 1.613 . S
S170 N172 1.610 . S
N171 S170 1.613 . S
N171 C174 1.350 . S
N172 S170 1.610 . S
N172 C173 1.351 . S
C173 C167 1.428 . S
C173 N172 1.351 . S
C173 C174 1.434 . S
C174 C165 1.429 . S
C174 N171 1.350 . S
C174 C173 1.434 . S
C175 C176 1.369 . S
C175 C177 1.419 . S
C175 H179 0.930 . S
C176 C175 1.369 . S
C176 C185 1.429 . S
C177 C175 1.419 . S
C177 C178 1.363 . S
C177 H180 0.929 . S
C178 C177 1.363 . S
C178 C184 1.428 . S
H179 C175 0.930 . S
H180 C177 0.929 . S
S181 N182 1.613 . S
S181 N183 1.610 . S
N182 S181 1.613 . S
N182 C185 1.350 . S
N183 S181 1.610 . S
N183 C184 1.351 . S
C184 C178 1.428 . S
C184 N183 1.351 . S
C184 C185 1.434 . S
C185 C176 1.429 . S
C185 N182 1.350 . S
C185 C184 1.434 . S
C186 C187 1.369 1_655 S
C186 C188 1.419 . S
C186 H190 0.930 . S
C187 C186 1.369 1_455 S
C187 C196 1.429 . S
C188 C186 1.419 . S
C188 C189 1.363 1_655 S
C188 H191 0.929 . S
C189 C188 1.363 1_455 S
C189 C195 1.428 . S
H190 C186 0.930 . S
H191 C188 0.929 . S
S192 N193 1.613 . S
S192 N194 1.610 . S
N193 S192 1.613 . S
N193 C196 1.350 . S
N194 S192 1.610 . S
N194 C195 1.351 . S
C195 C189 1.428 . S
C195 N194 1.351 . S
C195 C196 1.434 . S
C196 C187 1.429 . S
C196 N193 1.350 . S
C196 C195 1.434 . S
C197 C198 1.369 . S
C197 C199 1.419 1_554 S
C197 H201 0.930 . S
C198 C197 1.369 . S
C198 C207 1.429 . S
C199 C197 1.419 1_556 S
C199 C200 1.363 . S
C199 H202 0.929 . S
C200 C199 1.363 . S
C200 C206 1.428 . S
H201 C197 0.930 . S
H202 C199 0.929 . S
S203 N204 1.613 1_556 S
S203 N205 1.610 . S
N204 S203 1.613 1_554 S
N204 C207 1.350 1_565 S
N205 S203 1.610 . S
N205 C206 1.351 1_565 S
C206 C200 1.428 . S
C206 N205 1.351 1_545 S
C206 C207 1.434 1_556 S
C207 C198 1.429 . S
C207 N204 1.350 1_545 S
C207 C206 1.434 1_554 S
C208 C209 1.369 . S
C208 C210 1.419 . S
C208 H212 0.930 . S
C209 C208 1.369 . S
C209 C218 1.429 . S
C210 C208 1.419 . S
C210 C211 1.363 . S
C210 H213 0.929 . S
C211 C210 1.363 . S
C211 C217 1.428 . S
H212 C208 0.930 . S
H213 C210 0.929 . S
S214 N215 1.613 . S
S214 N216 1.610 . S
N215 S214 1.613 . S
N215 C218 1.350 . S
N216 S214 1.610 . S
N216 C217 1.351 . S
C217 C211 1.428 . S
C217 N216 1.351 . S
C217 C218 1.434 . S
C218 C209 1.429 . S
C218 N215 1.350 . S
C218 C217 1.434 . S
C121 C9 1.898 . S
C123 C102 1.880 . S
C132 C49 2.018 . S
C134 C3 1.990 . S
C143 C43 1.915 . S
C145 C89 1.928 . S
C154 C83 2.107 . S
C156 C26 2.045 . S
C165 C66 1.914 . S
C167 C22 1.975 . S
C176 C106 1.996 . S
C178 C62 2.064 . S
C187 C15 0.774 . S
C189 C2 0.764 . S
C198 C55 0.765 . S
C200 C42 0.752 . S
C209 C95 0.756 . S
C211 C82 0.771 . S
