# Generated by pormake.
# Topology lon, (4)-cn, num edge types: 1
# Building blocks:
#     Node 0, Type 0, BuildingBlock: QUQFOY_clean_sbu_3, # of connection points: 4
#     Node 1, Type 0, BuildingBlock: QUQFOY_clean_sbu_3, # of connection points: 4
#     Node 2, Type 0, BuildingBlock: QUQFOY_clean_sbu_3, # of connection points: 4
#     Node 3, Type 0, BuildingBlock: QUQFOY_clean_sbu_3, # of connection points: 4
#     Edge 4, Type (0, 0), BuildingBlock: FUNLAD_clean_linker_0, # of connection points: 2
#     Edge 5, Type (0, 0), BuildingBlock: FUNLAD_clean_linker_0, # of connection points: 2
#     Edge 6, Type (0, 0), BuildingBlock: FUNLAD_clean_linker_0, # of connection points: 2
#     Edge 7, Type (0, 0), BuildingBlock: FUNLAD_clean_linker_0, # of connection points: 2
#     Edge 8, Type (0, 0), BuildingBlock: FUNLAD_clean_linker_0, # of connection points: 2
#     Edge 9, Type (0, 0), BuildingBlock: FUNLAD_clean_linker_0, # of connection points: 2
#     Edge 10, Type (0, 0), BuildingBlock: FUNLAD_clean_linker_0, # of connection points: 2
#     Edge 11, Type (0, 0), BuildingBlock: FUNLAD_clean_linker_0, # of connection points: 2
# Relax obj value: 0.136
# Max RMSD: 0.173
# Mean RMSD: 0.169
data_MOF--net-lon--node1-QUQFOY_clean_sbu_3--edge1-FUNLAD_clean_linker_0
_symmetry_space_group_name_H-M    P1
_symmetry_Int_Tables_number       1
_symmetry_cell_setting            triclinic
loop_
_symmetry_equiv_pos_as_xyz
'x, y, z'
_cell_length_a     27.573935
_cell_length_b     29.93525
_cell_length_c     48.477605
_cell_angle_alpha  90.413779
_cell_angle_beta   90.111121
_cell_angle_gamma 117.18467
loop_
_atom_site_label
_atom_site_type_symbol
_atom_site_fract_x
_atom_site_fract_y
_atom_site_fract_z
_atom_type_partial_charge
C0 C 0.19596 0.64349 0.05513 0.0
O1 O 0.20626 0.68699 0.06396 0.0
Cd2 Cd 0.29385 0.75013 0.07808 0.0
O3 O 0.23367 0.63004 0.05358 0.0
Cd4 Cd 0.33342 0.66814 0.06398 0.0
C5 C 0.31846 0.68949 0.1316 0.0
O6 O 0.35318 0.74738 0.04289 0.0
O7 O 0.42123 0.74554 0.06379 0.0
O8 O 0.34416 0.62055 0.02534 0.0
C9 C 0.4036 0.76909 0.04847 0.0
O10 O 0.3094 0.7255 0.12377 0.0
C11 C 0.37166 0.60379 0.03895 0.0
O12 O 0.32564 0.66132 0.11404 0.0
O13 O 0.37964 0.61566 0.06433 0.0
C14 C 0.57553 0.33461 0.51865 0.0
O15 O 0.5805 0.31533 0.49607 0.0
Cd16 Cd 0.63744 0.27575 0.4887 0.0
O17 O 0.60117 0.33315 0.54029 0.0
Cd18 Cd 0.66382 0.29838 0.55451 0.0
C19 C 0.76066 0.37178 0.50905 0.0
O20 O 0.61899 0.22294 0.52771 0.0
O21 O 0.69348 0.23234 0.54692 0.0
O22 O 0.61749 0.27518 0.59869 0.0
C23 C 0.65224 0.20551 0.53213 0.0
O24 O 0.73096 0.34342 0.48968 0.0
C25 C 0.66042 0.29787 0.61321 0.0
O26 O 0.74434 0.36487 0.53393 0.0
O27 O 0.70499 0.3213 0.60034 0.0
C28 C 0.24576 0.67021 0.48595 0.0
O29 O 0.27611 0.69723 0.50539 0.0
Cd30 Cd 0.37331 0.73752 0.50096 0.0
O31 O 0.26659 0.66434 0.46365 0.0
Cd32 Cd 0.35684 0.69187 0.44241 0.0
C33 C 0.39578 0.63557 0.49138 0.0
O34 O 0.39378 0.77856 0.45671 0.0
O35 O 0.45293 0.75613 0.44114 0.0
O36 O 0.3124 0.69602 0.40002 0.0
C37 C 0.44169 0.79112 0.4483 0.0
O38 O 0.40246 0.67212 0.50717 0.0
C39 C 0.33105 0.6724 0.38517 0.0
O40 O 0.3763 0.63205 0.4672 0.0
O41 O 0.36158 0.65692 0.39706 0.0
C42 C 0.5354 0.32487 0.93274 0.0
O43 O 0.49989 0.27997 0.92786 0.0
Cd44 Cd 0.51866 0.21007 0.92305 0.0
O45 O 0.58586 0.33609 0.93466 0.0
Cd46 Cd 0.64283 0.29133 0.93057 0.0
C47 C 0.59793 0.24734 0.86566 0.0
O48 O 0.58294 0.22336 0.9594 0.0
O49 O 0.64794 0.21279 0.94093 0.0
O50 O 0.70608 0.35053 0.96415 0.0
C51 C 0.60857 0.19761 0.95772 0.0
O52 O 0.55346 0.21566 0.87637 0.0
C53 C 0.74864 0.36035 0.9502 0.0
O54 O 0.63538 0.28033 0.88057 0.0
O55 O 0.74177 0.33913 0.92674 0.0
C56 C 0.3062 0.70726 0.18089 0.0
C57 C 0.32047 0.68034 0.16144 0.0
C58 C 0.30817 0.69897 0.20906 0.0
C59 C 0.32434 0.6634 0.21844 0.0
C60 C 0.33933 0.63698 0.19906 0.0
C61 C 0.33699 0.64501 0.17082 0.0
C62 C 0.3288 0.65532 0.2483 0.0
C63 C 0.29626 0.66107 0.26719 0.0
C64 C 0.30327 0.65959 0.29754 0.0
C65 C 0.27732 0.68013 0.31458 0.0
C66 C 0.2854 0.68319 0.34307 0.0
C67 C 0.31945 0.66543 0.35526 0.0
H68 H 0.35526 0.62241 0.2977 0.0
C69 C 0.34379 0.64298 0.33844 0.0
C70 C 0.33574 0.63996 0.30985 0.0
H71 H 0.36982 0.6285 0.3473 0.0
H72 H 0.29367 0.735 0.17441 0.0
H73 H 0.29825 0.72142 0.22339 0.0
H74 H 0.35262 0.60987 0.20579 0.0
H75 H 0.34859 0.62385 0.15637 0.0
H76 H 0.36022 0.64516 0.25451 0.0
H77 H 0.26416 0.66983 0.26018 0.0
H78 H 0.25172 0.69516 0.30577 0.0
H79 H 0.26571 0.70038 0.35548 0.0
C80 C 0.60945 0.26682 0.65726 0.0
C81 C 0.65863 0.29635 0.64365 0.0
C82 C 0.6078 0.2645 0.68602 0.0
C83 C 0.65545 0.29159 0.70177 0.0
C84 C 0.70432 0.32189 0.68816 0.0
C85 C 0.70604 0.324 0.65938 0.0
C86 C 0.6551 0.29059 0.73237 0.0
C87 C 0.61987 0.25074 0.74686 0.0
C88 C 0.61679 0.24971 0.77747 0.0
C89 C 0.56871 0.21428 0.78985 0.0
C90 C 0.56288 0.21295 0.81847 0.0
C91 C 0.60526 0.24694 0.83543 0.0
H92 H 0.69848 0.30942 0.78599 0.0
C93 C 0.6541 0.28142 0.82315 0.0
C94 C 0.65995 0.28271 0.7945 0.0
H95 H 0.68782 0.30774 0.83563 0.0
H96 H 0.57212 0.24542 0.64572 0.0
H97 H 0.56892 0.24218 0.69576 0.0
H98 H 0.74143 0.34359 0.69983 0.0
H99 H 0.74452 0.34731 0.64947 0.0
H100 H 0.68513 0.32379 0.74294 0.0
H101 H 0.59057 0.21757 0.73588 0.0
H102 H 0.535 0.18806 0.77729 0.0
H103 H 0.52478 0.18569 0.82723 0.0
C104 C 0.38875 0.56339 -0.0028 0.0
C105 C 0.39544 0.5738 0.02565 0.0
C106 C 0.4134 0.537 0.98445 0.0
C107 C 0.44496 0.52018 0.0 0.0
C108 C 0.4518 0.5309 0.02839 0.0
C109 C 0.42716 0.55724 0.04112 0.0
C110 C 0.47193 0.49195 0.98748 0.0
C111 C 0.45436 0.46457 0.9641 0.0
C112 C 0.47787 0.43189 0.95385 0.0
C113 C 0.44362 0.38707 0.94007 0.0
C114 C 0.46285 0.35302 0.93243 0.0
C115 C 0.51708 0.36348 0.93804 0.0
H116 H 0.5609 0.47873 0.96795 0.0
C117 C 0.55233 0.40976 0.95035 0.0
C118 C 0.53291 0.44367 0.95821 0.0
H119 H 0.59446 0.41916 0.95471 0.0
H120 H 0.36508 0.57623 0.98468 0.0
H121 H 0.4084 0.53083 0.9624 0.0
H122 H 0.4761 0.51864 0.04083 0.0
H123 H 0.4334 0.56496 0.06306 0.0
H124 H 0.50483 0.49057 -0.0008 0.0
H125 H 0.41818 0.46172 0.95366 0.0
H126 H 0.40127 0.37745 0.93614 0.0
H127 H 0.43479 0.31796 0.92267 0.0
C128 C 0.15202 0.61963 0.46663 0.0
C129 C 0.1859 0.64459 0.4892 0.0
C130 C 0.09564 0.59329 0.46983 0.0
C131 C 0.07191 0.59077 0.49582 0.0
C132 C 0.10557 0.61741 0.51809 0.0
C133 C 0.16202 0.644 0.51486 0.0
C134 C 0.01265 0.55998 0.50069 0.0
C135 C 0.98096 0.51958 0.4851 0.0
C136 C 0.92325 0.48505 0.49149 0.0
C137 C 0.88949 0.45435 0.47028 0.0
C138 C 0.83621 0.41842 0.47579 0.0
C139 C 0.81571 0.41209 0.50278 0.0
H140 H 0.92747 0.50104 0.53557 0.0
C141 C 0.8492 0.44334 0.52396 0.0
C142 C 0.90244 0.47932 0.51843 0.0
H143 H 0.8348 0.43931 0.54501 0.0
H144 H 0.16903 0.62016 0.44644 0.0
H145 H 0.0711 0.57515 0.45183 0.0
H146 H 0.08831 0.61657 0.53826 0.0
H147 H 0.18697 0.66319 0.53262 0.0
H148 H -0.00436 0.56955 0.51861 0.0
H149 H -0.00207 0.50996 0.46719 0.0
H150 H 0.90463 0.45772 0.44939 0.0
H151 H 0.81155 0.39495 0.45899 0.0
C152 C 0.6122 0.11703 0.96764 0.0
C153 C 0.58942 0.14978 0.9726 0.0
C154 C 0.59071 0.07017 0.98044 0.0
C155 C 0.54629 0.05558 -0.00143 0.0
C156 C 0.5249 0.08913 0.00408 0.0
C157 C 0.54623 0.1357 0.99132 0.0
C158 C 0.51746 0.00439 0.01011 0.0
C159 C 0.53804 0.97145 0.01146 0.0
C160 C 0.50395 0.91917 0.02055 0.0
C161 C 0.52736 0.89386 0.0355 0.0
C162 C 0.49495 0.84488 0.0447 0.0
C163 C 0.4388 0.82038 0.0387 0.0
H164 H 0.4291 0.9117 0.00157 0.0
C165 C 0.41591 0.8453 0.02302 0.0
C166 C 0.44809 0.89401 0.01397 0.0
H167 H 0.37294 0.82724 0.01772 0.0
H168 H 0.64551 0.12696 0.95328 0.0
H169 H 0.60766 0.04501 0.9752 0.0
H170 H 0.49062 0.07883 0.01787 0.0
H171 H 0.52798 0.16024 0.99573 0.0
H172 H 0.47655 -0.00684 0.01784 0.0
H173 H 0.58042 0.98288 0.0065 0.0
H174 H 0.57048 0.9123 0.04047 0.0
H175 H 0.51375 0.82634 0.05655 0.0
C176 C 0.54431 0.39254 0.54132 0.0
C177 C 0.5405 0.36001 0.51943 0.0
C178 C 0.51402 0.41938 0.54076 0.0
C179 C 0.47917 0.41384 0.51834 0.0
C180 C 0.47337 0.37941 0.49725 0.0
C181 C 0.504 0.3531 0.49765 0.0
C182 C 0.44988 0.4445 0.51537 0.0
C183 C 0.46941 0.49176 0.52523 0.0
C184 C 0.44635 0.52599 0.51726 0.0
C185 C 0.45545 0.56709 0.53441 0.0
C186 C 0.43806 0.60226 0.52637 0.0
C187 C 0.4118 0.59727 0.5008 0.0
H188 H 0.41352 0.49088 0.47745 0.0
C189 C 0.40236 0.55592 0.48376 0.0
C190 C 0.41958 0.52082 0.4918 0.0
H191 H 0.38254 0.55104 0.46386 0.0
H192 H 0.5717 0.39827 0.55854 0.0
H193 H 0.51825 0.44448 0.5578 0.0
H194 H 0.44645 0.37413 0.47987 0.0
H195 H 0.49955 0.32781 0.48064 0.0
H196 H 0.41365 0.42906 0.50239 0.0
H197 H 0.50531 0.50722 0.53844 0.0
H198 H 0.47658 0.57231 0.55395 0.0
H199 H 0.44611 0.63379 0.53995 0.0
C200 C 0.12797 0.56294 0.03293 0.0
C201 C 0.13988 0.60903 0.04583 0.0
C202 C 0.07535 0.53176 0.0231 0.0
C203 C 0.03362 0.5462 0.02594 0.0
C204 C 0.04526 0.59152 0.03952 0.0
C205 C 0.09777 0.62271 0.04922 0.0
C206 C 0.97732 0.51485 0.01554 0.0
C207 C 0.96526 0.48203 0.99438 0.0
C208 C 0.90907 0.4521 0.98337 0.0
C209 C 0.9023 0.43291 0.95635 0.0
C210 C 0.8502 0.40386 0.94536 0.0
C211 C 0.80369 0.39317 0.96126 0.0
H212 H 0.86561 0.4537 0.02053 0.0
C213 C 0.81033 0.41226 0.98831 0.0
C214 C 0.8624 0.44116 -0.00067 0.0
H215 H 0.77529 0.40413 0.0012 0.0
H216 H 0.15937 0.55109 0.03019 0.0
H217 H 0.06756 0.4963 0.01357 0.0
H218 H 0.01379 0.60329 0.04227 0.0
H219 H 0.10533 0.65778 0.05924 0.0
H220 H 0.94537 0.52175 0.02461 0.0
H221 H -0.00201 0.4787 0.98364 0.0
H222 H 0.93746 0.44041 0.94366 0.0
H223 H 0.84643 0.38945 0.92448 0.0
C224 C 0.60446 0.13641 0.49829 0.0
C225 C 0.64546 0.15897 0.51833 0.0
C226 C 0.59597 0.09167 0.48555 0.0
C227 C 0.62852 0.06832 0.49242 0.0
C228 C 0.66979 0.09095 0.51238 0.0
C229 C 0.67859 0.13623 0.52508 0.0
C230 C 0.61524 0.0176 0.4815 0.0
C231 C 0.58929 0.00075 0.45723 0.0
C232 C 0.55556 0.94671 0.4517 0.0
C233 C 0.50251 0.93109 0.44167 0.0
C234 C 0.46588 0.88024 0.44019 0.0
C235 C 0.48229 0.84411 0.44779 0.0
H236 H 0.61379 0.92189 0.46597 0.0
C237 C 0.53643 0.85938 0.4561 0.0
C238 C 0.5728 0.91058 0.45844 0.0
H239 H 0.5498 0.8319 0.46197 0.0
H240 H 0.57811 0.1529 0.49269 0.0
H241 H 0.56217 0.07455 0.4712 0.0
H242 H 0.69471 0.07321 0.51841 0.0
H243 H 0.71043 0.15281 0.54055 0.0
H244 H 0.62108 -0.00808 0.49526 0.0
H245 H 0.58385 0.02658 0.44344 0.0
H246 H 0.48845 0.95837 0.43637 0.0
H247 H 0.4244 0.86914 0.43346 0.0
loop_
_geom_bond_atom_site_label_1
_geom_bond_atom_site_label_2
_geom_bond_distance
_geom_bond_site_symmetry_2
_ccdc_geom_bond_type
C0 O1 1.306 . S
C0 O3 1.160 . S
O1 C0 1.306 . S
O1 Cd2 2.228 . S
Cd2 O1 2.228 . S
Cd2 O6 2.273 . S
Cd2 O10 2.277 . S
O3 C0 1.160 . S
O3 Cd4 2.203 . S
Cd4 O3 2.203 . S
Cd4 O6 2.411 . S
Cd4 O7 2.333 . S
Cd4 O8 2.352 . S
Cd4 O12 2.277 . S
Cd4 O13 2.356 . S
C5 O10 1.209 . S
C5 O12 1.226 . S
O6 Cd2 2.273 . S
O6 Cd4 2.411 . S
O6 C9 1.320 . S
O7 Cd4 2.333 . S
O7 C9 1.214 . S
O8 Cd4 2.352 . S
O8 C11 1.258 . S
C9 O6 1.320 . S
C9 O7 1.214 . S
O10 Cd2 2.277 . S
O10 C5 1.209 . S
C11 O8 1.258 . S
C11 O13 1.282 . S
O12 Cd4 2.277 . S
O12 C5 1.226 . S
O13 Cd4 2.356 . S
O13 C11 1.282 . S
C14 O15 1.306 . S
C14 O17 1.160 . S
O15 C14 1.306 . S
O15 Cd16 2.228 . S
Cd16 O15 2.228 . S
Cd16 O20 2.273 . S
Cd16 O24 2.277 . S
O17 C14 1.160 . S
O17 Cd18 2.203 . S
Cd18 O17 2.203 . S
Cd18 O20 2.411 . S
Cd18 O21 2.333 . S
Cd18 O22 2.352 . S
Cd18 O26 2.277 . S
Cd18 O27 2.356 . S
C19 O24 1.209 . S
C19 O26 1.226 . S
O20 Cd16 2.273 . S
O20 Cd18 2.411 . S
O20 C23 1.320 . S
O21 Cd18 2.333 . S
O21 C23 1.214 . S
O22 Cd18 2.352 . S
O22 C25 1.258 . S
C23 O20 1.320 . S
C23 O21 1.214 . S
O24 Cd16 2.277 . S
O24 C19 1.209 . S
C25 O22 1.258 . S
C25 O27 1.282 . S
O26 Cd18 2.277 . S
O26 C19 1.226 . S
O27 Cd18 2.356 . S
O27 C25 1.282 . S
C28 O29 1.306 . S
C28 O31 1.160 . S
O29 C28 1.306 . S
O29 Cd30 2.228 . S
Cd30 O29 2.228 . S
Cd30 O34 2.273 . S
Cd30 O38 2.277 . S
O31 C28 1.160 . S
O31 Cd32 2.203 . S
Cd32 O31 2.203 . S
Cd32 O34 2.411 . S
Cd32 O35 2.333 . S
Cd32 O36 2.352 . S
Cd32 O40 2.277 . S
Cd32 O41 2.356 . S
C33 O38 1.209 . S
C33 O40 1.226 . S
O34 Cd30 2.273 . S
O34 Cd32 2.411 . S
O34 C37 1.320 . S
O35 Cd32 2.333 . S
O35 C37 1.214 . S
O36 Cd32 2.352 . S
O36 C39 1.258 . S
C37 O34 1.320 . S
C37 O35 1.214 . S
O38 Cd30 2.277 . S
O38 C33 1.209 . S
C39 O36 1.258 . S
C39 O41 1.282 . S
O40 Cd32 2.277 . S
O40 C33 1.226 . S
O41 Cd32 2.356 . S
O41 C39 1.282 . S
C42 O43 1.306 . S
C42 O45 1.160 . S
O43 C42 1.306 . S
O43 Cd44 2.228 . S
Cd44 O43 2.228 . S
Cd44 O48 2.273 . S
Cd44 O52 2.277 . S
O45 C42 1.160 . S
O45 Cd46 2.203 . S
Cd46 O45 2.203 . S
Cd46 O48 2.411 . S
Cd46 O49 2.333 . S
Cd46 O50 2.352 . S
Cd46 O54 2.277 . S
Cd46 O55 2.356 . S
C47 O52 1.209 . S
C47 O54 1.226 . S
O48 Cd44 2.273 . S
O48 Cd46 2.411 . S
O48 C51 1.320 . S
O49 Cd46 2.333 . S
O49 C51 1.214 . S
O50 Cd46 2.352 . S
O50 C53 1.258 . S
C51 O48 1.320 . S
C51 O49 1.214 . S
O52 Cd44 2.277 . S
O52 C47 1.209 . S
C53 O50 1.258 . S
C53 O55 1.282 . S
O54 Cd46 2.277 . S
O54 C47 1.226 . S
O55 Cd46 2.356 . S
O55 C53 1.282 . S
C56 C57 1.386 . S
C56 C58 1.383 . S
C56 H72 0.951 . S
C57 C56 1.386 . S
C57 C61 1.383 . S
C58 C56 1.383 . S
C58 C59 1.402 . S
C58 H73 0.951 . S
C59 C58 1.402 . S
C59 C60 1.375 . S
C59 C62 1.481 . S
C60 C59 1.375 . S
C60 C61 1.367 . S
C60 H74 0.951 . S
C61 C57 1.383 . S
C61 C60 1.367 . S
C61 H75 0.950 . S
C62 C59 1.481 . S
C62 C63 1.297 . S
C62 H76 0.950 . S
C63 C62 1.297 . S
C63 C64 1.479 . S
C63 H77 0.950 . S
C64 C63 1.479 . S
C64 C65 1.375 . S
C64 C70 1.404 . S
C65 C64 1.375 . S
C65 C66 1.369 . S
C65 H78 0.950 . S
C66 C65 1.369 . S
C66 C67 1.392 . S
C66 H79 0.951 . S
C67 C66 1.392 . S
C67 C69 1.384 . S
H68 C70 0.949 . S
C69 C67 1.384 . S
C69 C70 1.385 . S
C69 H71 0.950 . S
C70 C64 1.404 . S
C70 H68 0.949 . S
C70 C69 1.385 . S
H71 C69 0.950 . S
H72 C56 0.951 . S
H73 C58 0.951 . S
H74 C60 0.951 . S
H75 C61 0.950 . S
H76 C62 0.950 . S
H77 C63 0.950 . S
H78 C65 0.950 . S
H79 C66 0.951 . S
C80 C81 1.386 . S
C80 C82 1.383 . S
C80 H96 0.951 . S
C81 C80 1.386 . S
C81 C85 1.383 . S
C82 C80 1.383 . S
C82 C83 1.402 . S
C82 H97 0.951 . S
C83 C82 1.402 . S
C83 C84 1.375 . S
C83 C86 1.481 . S
C84 C83 1.375 . S
C84 C85 1.367 . S
C84 H98 0.951 . S
C85 C81 1.383 . S
C85 C84 1.367 . S
C85 H99 0.950 . S
C86 C83 1.481 . S
C86 C87 1.297 . S
C86 H100 0.950 . S
C87 C86 1.297 . S
C87 C88 1.479 . S
C87 H101 0.950 . S
C88 C87 1.479 . S
C88 C89 1.375 . S
C88 C94 1.404 . S
C89 C88 1.375 . S
C89 C90 1.369 . S
C89 H102 0.950 . S
C90 C89 1.369 . S
C90 C91 1.392 . S
C90 H103 0.951 . S
C91 C90 1.392 . S
C91 C93 1.384 . S
H92 C94 0.949 . S
C93 C91 1.384 . S
C93 C94 1.385 . S
C93 H95 0.950 . S
C94 C88 1.404 . S
C94 H92 0.949 . S
C94 C93 1.385 . S
H95 C93 0.950 . S
H96 C80 0.951 . S
H97 C82 0.951 . S
H98 C84 0.951 . S
H99 C85 0.950 . S
H100 C86 0.950 . S
H101 C87 0.950 . S
H102 C89 0.950 . S
H103 C90 0.951 . S
C104 C105 1.386 1_556 S
C104 C106 1.383 . S
C104 H120 0.951 . S
C105 C104 1.386 1_554 S
C105 C109 1.383 . S
C106 C104 1.383 . S
C106 C107 1.402 1_556 S
C106 H121 0.951 . S
C107 C106 1.402 1_554 S
C107 C108 1.375 . S
C107 C110 1.481 . S
C108 C107 1.375 . S
C108 C109 1.367 . S
C108 H122 0.951 . S
C109 C105 1.383 . S
C109 C108 1.367 . S
C109 H123 0.950 . S
C110 C107 1.481 . S
C110 C111 1.297 1_554 S
C110 H124 0.950 . S
C111 C110 1.297 1_556 S
C111 C112 1.479 . S
C111 H125 0.950 . S
C112 C111 1.479 . S
C112 C113 1.375 . S
C112 C118 1.404 . S
C113 C112 1.375 . S
C113 C114 1.369 . S
C113 H126 0.950 . S
C114 C113 1.369 . S
C114 C115 1.392 . S
C114 H127 0.951 . S
C115 C114 1.392 . S
C115 C117 1.384 . S
H116 C118 0.949 1_554 S
C117 C115 1.384 . S
C117 C118 1.385 . S
C117 H119 0.950 1_556 S
C118 C112 1.404 . S
C118 H116 0.949 1_556 S
C118 C117 1.385 . S
H119 C117 0.950 1_554 S
H120 C104 0.951 . S
H121 C106 0.951 . S
H122 C108 0.951 . S
H123 C109 0.950 . S
H124 C110 0.950 . S
H125 C111 0.950 . S
H126 C113 0.950 . S
H127 C114 0.951 . S
C128 C129 1.386 . S
C128 C130 1.383 . S
C128 H144 0.951 . S
C129 C128 1.386 . S
C129 C133 1.383 . S
C130 C128 1.383 . S
C130 C131 1.402 . S
C130 H145 0.951 . S
C131 C130 1.402 . S
C131 C132 1.375 . S
C131 C134 1.481 . S
C132 C131 1.375 . S
C132 C133 1.367 . S
C132 H146 0.951 . S
C133 C129 1.383 . S
C133 C132 1.367 . S
C133 H147 0.950 . S
C134 C131 1.481 . S
C134 C135 1.297 1_455 S
C134 H148 0.952 . S
C135 C134 1.297 1_655 S
C135 C136 1.479 . S
C135 H149 0.950 . S
C136 C135 1.479 . S
C136 C137 1.375 . S
C136 C142 1.404 . S
C137 C136 1.375 . S
C137 C138 1.369 . S
C137 H150 0.950 . S
C138 C137 1.369 . S
C138 C139 1.392 . S
C138 H151 0.951 . S
C139 C138 1.392 . S
C139 C141 1.384 . S
H140 C142 0.949 . S
C141 C139 1.384 . S
C141 C142 1.385 . S
C141 H143 0.950 . S
C142 C136 1.404 . S
C142 H140 0.949 . S
C142 C141 1.385 . S
H143 C141 0.950 . S
H144 C128 0.951 . S
H145 C130 0.951 . S
H146 C132 0.951 . S
H147 C133 0.950 . S
H148 C134 0.952 . S
H149 C135 0.950 . S
H150 C137 0.950 . S
H151 C138 0.951 . S
C152 C153 1.386 . S
C152 C154 1.383 . S
C152 H168 0.951 . S
C153 C152 1.386 . S
C153 C157 1.383 . S
C154 C152 1.383 . S
C154 C155 1.402 . S
C154 H169 0.951 1_556 S
C155 C154 1.402 . S
C155 C156 1.375 . S
C155 C158 1.481 . S
C156 C155 1.375 . S
C156 C157 1.367 . S
C156 H170 0.951 . S
C157 C153 1.383 . S
C157 C156 1.367 . S
C157 H171 0.950 . S
C158 C155 1.481 . S
C158 C159 1.297 1_546 S
C158 H172 0.950 1_545 S
C159 C158 1.297 1_564 S
C159 C160 1.479 . S
C159 H173 0.950 1_565 S
C160 C159 1.479 . S
C160 C161 1.375 . S
C160 C166 1.404 . S
C161 C160 1.375 . S
C161 C162 1.369 . S
C161 H174 0.950 . S
C162 C161 1.369 . S
C162 C163 1.392 . S
C162 H175 0.951 . S
C163 C162 1.392 . S
C163 C165 1.384 . S
H164 C166 0.949 . S
C165 C163 1.384 . S
C165 C166 1.385 . S
C165 H167 0.950 . S
C166 C160 1.404 . S
C166 H164 0.949 . S
C166 C165 1.385 . S
H167 C165 0.950 . S
H168 C152 0.951 . S
H169 C154 0.951 1_554 S
H170 C156 0.951 . S
H171 C157 0.950 . S
H172 C158 0.950 1_565 S
H173 C159 0.950 1_545 S
H174 C161 0.950 . S
H175 C162 0.951 . S
C176 C177 1.386 . S
C176 C178 1.383 . S
C176 H192 0.951 . S
C177 C176 1.386 . S
C177 C181 1.383 . S
C178 C176 1.383 . S
C178 C179 1.402 . S
C178 H193 0.951 . S
C179 C178 1.402 . S
C179 C180 1.375 . S
C179 C182 1.481 . S
C180 C179 1.375 . S
C180 C181 1.367 . S
C180 H194 0.951 . S
C181 C177 1.383 . S
C181 C180 1.367 . S
C181 H195 0.950 . S
C182 C179 1.481 . S
C182 C183 1.297 . S
C182 H196 0.950 . S
C183 C182 1.297 . S
C183 C184 1.479 . S
C183 H197 0.950 . S
C184 C183 1.479 . S
C184 C185 1.375 . S
C184 C190 1.404 . S
C185 C184 1.375 . S
C185 C186 1.369 . S
C185 H198 0.950 . S
C186 C185 1.369 . S
C186 C187 1.392 . S
C186 H199 0.951 . S
C187 C186 1.392 . S
C187 C189 1.384 . S
H188 C190 0.949 . S
C189 C187 1.384 . S
C189 C190 1.385 . S
C189 H191 0.950 . S
C190 C184 1.404 . S
C190 H188 0.949 . S
C190 C189 1.385 . S
H191 C189 0.950 . S
H192 C176 0.951 . S
H193 C178 0.951 . S
H194 C180 0.951 . S
H195 C181 0.950 . S
H196 C182 0.950 . S
H197 C183 0.950 . S
H198 C185 0.950 . S
H199 C186 0.951 . S
C200 C201 1.386 . S
C200 C202 1.383 . S
C200 H216 0.951 . S
C201 C200 1.386 . S
C201 C205 1.383 . S
C202 C200 1.383 . S
C202 C203 1.402 . S
C202 H217 0.951 1_554 S
C203 C202 1.402 . S
C203 C204 1.375 . S
C203 C206 1.481 . S
C204 C203 1.375 . S
C204 C205 1.367 . S
C204 H218 0.951 . S
C205 C201 1.383 . S
C205 C204 1.367 . S
C205 H219 0.950 . S
C206 C203 1.481 . S
C206 C207 1.294 1_455 S
C206 H220 0.950 1_455 S
C207 C206 1.294 1_655 S
C207 C208 1.492 1_554 S
C207 H221 0.935 1_654 S
C208 C207 1.492 1_556 S
C208 C209 1.396 . S
C208 C214 1.390 1_556 S
C209 C208 1.396 . S
C209 C210 1.369 . S
C209 H222 0.950 . S
C210 C209 1.369 . S
C210 C211 1.392 . S
C210 H223 0.951 . S
C211 C210 1.392 . S
C211 C213 1.384 1_556 S
H212 C214 0.949 . S
C213 C211 1.384 1_554 S
C213 C214 1.385 . S
C213 H215 0.950 . S
C214 C208 1.390 1_554 S
C214 H212 0.949 . S
C214 C213 1.385 . S
H215 C213 0.950 . S
H216 C200 0.951 . S
H217 C202 0.951 1_556 S
H218 C204 0.951 . S
H219 C205 0.950 . S
H220 C206 0.950 1_655 S
H221 C207 0.935 1_456 S
H222 C209 0.950 . S
H223 C210 0.951 . S
C224 C225 1.386 . S
C224 C226 1.383 . S
C224 H240 0.951 . S
C225 C224 1.386 . S
C225 C229 1.383 . S
C226 C224 1.383 . S
C226 C227 1.402 . S
C226 H241 0.951 . S
C227 C226 1.402 . S
C227 C228 1.375 . S
C227 C230 1.481 . S
C228 C227 1.375 . S
C228 C229 1.367 . S
C228 H242 0.951 . S
C229 C225 1.383 . S
C229 C228 1.367 . S
C229 H243 0.950 . S
C230 C227 1.481 . S
C230 C231 1.297 1_545 S
C230 H244 0.948 1_545 S
C231 C230 1.297 1_565 S
C231 C232 1.479 . S
C231 H245 0.950 1_565 S
C232 C231 1.479 . S
C232 C233 1.375 . S
C232 C238 1.404 . S
C233 C232 1.375 . S
C233 C234 1.369 . S
C233 H246 0.950 . S
C234 C233 1.369 . S
C234 C235 1.392 . S
C234 H247 0.951 . S
C235 C234 1.392 . S
C235 C237 1.384 . S
H236 C238 0.949 . S
C237 C235 1.384 . S
C237 C238 1.385 . S
C237 H239 0.950 . S
C238 C232 1.404 . S
C238 H236 0.949 . S
C238 C237 1.385 . S
H239 C237 0.950 . S
H240 C224 0.951 . S
H241 C226 0.951 . S
H242 C228 0.951 . S
H243 C229 0.950 . S
H244 C230 0.948 1_565 S
H245 C231 0.950 1_545 S
H246 C233 0.950 . S
H247 C234 0.951 . S
C57 C5 1.568 . S
C67 C39 1.569 . S
C81 C25 1.561 . S
C91 C47 1.578 . S
C105 C11 1.406 . S
C115 C42 1.439 . S
C129 C28 1.639 . S
C139 C19 1.643 . S
C153 C51 1.516 . S
C163 C9 1.519 . S
C177 C14 1.642 . S
C187 C33 1.651 . S
C201 C0 1.433 . S
C211 C53 1.423 . S
C225 C23 1.586 . S
C235 C37 1.574 . S
