# Generated by pormake.
# Topology hex, (8)-cn, num edge types: 1
# Building blocks:
#     Node 0, Type 0, BuildingBlock: LIZSOE_clean_sbu_0, # of connection points: 8
#     Edge 1, Type (0, 0), BuildingBlock: AJUNOK_clean_linker_0, # of connection points: 2
#     Edge 2, Type (0, 0), BuildingBlock: AJUNOK_clean_linker_0, # of connection points: 2
#     Edge 3, Type (0, 0), BuildingBlock: AJUNOK_clean_linker_0, # of connection points: 2
#     Edge 4, Type (0, 0), BuildingBlock: AJUNOK_clean_linker_0, # of connection points: 2
# Relax obj value: 0.196
# Max RMSD: 0.247
# Mean RMSD: 0.247
data_MOF--net-hex--node1-LIZSOE_clean_sbu_0--edge1-AJUNOK_clean_linker_0
_symmetry_space_group_name_H-M    P1
_symmetry_Int_Tables_number       1
_symmetry_cell_setting            triclinic
loop_
_symmetry_equiv_pos_as_xyz
'x, y, z'
_cell_length_a     11.977021
_cell_length_b     18.186968
_cell_length_c     11.461577
_cell_angle_alpha  105.87745
_cell_angle_beta   78.331965
_cell_angle_gamma 140.28276
loop_
_atom_site_label
_atom_site_type_symbol
_atom_site_fract_x
_atom_site_fract_y
_atom_site_fract_z
_atom_type_partial_charge
Co0 Co 0.17036 0.91305 0.99847 0.0
N1 N 0.13801 0.80422 0.0341 0.0
C2 C 0.11257 0.72751 0.94224 0.0
N3 N 0.21375 0.74155 0.09609 0.0
C4 C 0.1897 0.80522 0.12964 0.0
C5 C 0.16346 0.69193 0.9787 0.0
Co6 Co 0.90667 0.10404 0.95195 0.0
N7 N 0.96506 0.22886 0.933 0.0
N8 N 1.06702 0.39918 0.97181 0.0
C9 C 0.97457 0.33764 0.86749 0.0
C10 C 0.91398 0.23287 0.84257 0.0
C11 C 1.05952 0.33278 0.01069 0.0
Co12 Co 1.03064 1.00238 0.96802 0.0
C13 C 0.80612 0.04364 0.03906 0.0
H14 H 0.83197 0.16222 0.76631 0.0
O15 O 0.2211 1.01796 0.95496 0.0
O16 O 0.25456 0.18391 0.00463 0.0
O17 O 1.01566 0.99948 0.14542 0.0
O18 O 0.81283 0.81946 0.93244 0.0
O19 O 0.93892 0.79458 0.99431 0.0
O20 O 0.13647 0.2141 0.94779 0.0
O21 O 0.84163 0.98852 0.98092 0.0
O22 O 0.91889 0.05956 0.78327 0.0
O23 O 0.15273 0.96207 0.16398 0.0
O24 O 0.16083 0.86768 0.83034 0.0
O25 O 1.04146 1.00768 0.79055 0.0
O26 O 0.91247 0.13779 0.11941 0.0
C27 C 0.0772 0.98826 0.20981 0.0
C28 C 0.13266 0.36864 0.13368 0.0
H29 H 0.17813 0.33525 0.13798 0.0
H30 H 0.24634 0.4651 0.16064 0.0
H31 H 1.03113 0.3376 0.20312 0.0
C32 C 0.2714 0.2521 0.96889 0.0
C33 C 0.80274 0.75301 0.96634 0.0
H34 H 1.06777 0.70239 0.85165 0.0
H35 H 0.2133 0.82927 0.32308 0.0
H36 H 0.07369 0.82721 0.28082 0.0
H37 H 0.30746 0.95182 0.27192 0.0
C38 C 0.1961 0.85593 0.25889 0.0
C39 C 0.26636 0.96795 0.90256 0.0
C40 C 0.98406 1.0261 0.73199 0.0
H41 H 0.15556 0.62912 0.92431 0.0
H42 H 0.94669 0.36436 0.81666 0.0
C43 C 0.30233 0.60779 0.05951 0.0
C44 C 0.12331 0.49971 0.04559 0.0
C45 C 0.35586 0.70691 0.13042 0.0
C46 C 0.22766 0.69805 0.17036 0.0
H47 H 0.39783 0.61604 0.01058 0.0
H48 H 0.49042 0.79197 0.12448 0.0
S49 S 0.76249 0.43236 0.21178 0.0
N50 N 0.83071 0.38626 0.11811 0.0
N51 N 0.93848 0.57523 0.25329 0.0
C52 C 1.06309 0.58964 0.194 0.0
C53 C 1.00448 0.48853 0.11977 0.0
C54 C 0.56958 0.95219 0.89576 0.0
C55 C 0.64538 1.00801 0.01255 0.0
C56 C 0.47132 0.957 0.85535 0.0
C57 C 0.43519 1.01346 0.93052 0.0
H58 H 0.59173 0.90801 0.83278 0.0
H59 H 0.41383 0.90924 0.7652 0.0
S60 S 0.60902 0.178 0.24442 0.0
N61 N 0.67821 0.12403 0.20331 0.0
N62 N 0.49869 0.13446 0.1264 0.0
C63 C 0.51495 0.07276 0.04627 0.0
C64 C 0.614 0.06715 0.08802 0.0
C65 C 0.45693 0.42047 0.86181 0.0
C66 C 0.43257 0.38128 0.96607 0.0
C67 C 0.56255 0.53851 0.86302 0.0
C68 C 0.6455 0.6239 0.97002 0.0
H69 H 0.38864 0.35754 0.77818 0.0
H70 H 0.58307 0.56352 0.77874 0.0
S71 S 0.62068 0.56996 0.27018 0.0
N72 N 0.49955 0.4405 0.18039 0.0
N73 N 0.69499 0.65974 0.18393 0.0
C74 C 0.62127 0.58579 0.075 0.0
C75 C 0.51693 0.46636 0.07296 0.0
C76 C 0.14738 0.04427 0.54549 0.0
C77 C 1.00311 1.01466 0.5989 0.0
C78 C 0.17245 0.03855 0.42014 0.0
C79 C 1.0525 1.00044 0.34279 0.0
H80 H 0.24395 0.07461 0.60119 0.0
H81 H 0.28827 0.06582 0.38405 0.0
S82 S 0.65021 0.91029 0.43757 0.0
N83 N 0.73813 0.94624 0.56552 0.0
N84 N 0.78254 0.9318 0.32906 0.0
C85 C 0.90755 0.97083 0.39513 0.0
C86 C 0.8833 0.97844 0.52327 0.0
loop_
_geom_bond_atom_site_label_1
_geom_bond_atom_site_label_2
_geom_bond_distance
_geom_bond_site_symmetry_2
_ccdc_geom_bond_type
Co0 N1 2.034 . S
Co0 O15 2.262 1_654 S
Co0 O19 1.958 1_554 S
Co0 O23 1.950 1_655 S
Co0 O24 2.057 1_654 S
N1 Co0 2.034 . S
N1 C2 1.366 . S
N1 C4 1.332 1_655 S
C2 N1 1.366 . S
C2 C5 1.377 . S
C2 H34 0.931 . S
N3 C4 1.346 . S
N3 C5 1.337 1_455 S
C4 N1 1.332 1_455 S
C4 N3 1.346 . S
C4 C38 1.361 . S
C5 C2 1.377 . S
C5 N3 1.337 1_655 S
C5 H41 0.930 . S
Co6 N7 2.034 1_655 S
Co6 O20 1.950 1_655 S
Co6 O21 2.260 1_556 S
Co6 O22 1.958 . S
Co6 O26 2.057 . S
N7 Co6 2.034 1_455 S
N7 C10 1.366 . S
N7 C11 1.332 . S
N8 C9 1.337 . S
N8 C11 1.346 . S
C9 N8 1.337 . S
C9 C10 1.377 . S
C9 H42 0.930 . S
C10 N7 1.366 . S
C10 C9 1.377 . S
C10 H14 0.931 . S
C11 N7 1.332 . S
C11 N8 1.346 . S
C11 C28 1.361 1_556 S
Co12 O15 2.097 1_655 S
Co12 O16 2.065 1_666 S
Co12 O17 2.065 1_566 S
Co12 O18 2.042 . S
Co12 O21 2.098 1_566 S
Co12 O25 2.042 1_655 S
C13 O21 1.253 . S
C13 O26 1.263 1_554 S
H14 C10 0.931 . S
O15 Co0 2.262 1_456 S
O15 Co12 2.097 1_455 S
O15 C39 1.253 . S
O16 Co12 2.065 1_444 S
O16 C32 1.221 . S
O17 Co12 2.065 1_544 S
O17 C27 1.221 1_545 S
O18 Co12 2.042 . S
O18 C33 1.237 . S
O19 Co0 1.958 1_556 S
O19 C33 1.278 . S
O20 Co6 1.950 1_455 S
O20 C32 1.277 1_556 S
O21 Co6 2.260 1_554 S
O21 Co12 2.098 1_544 S
O21 C13 1.253 . S
O22 Co6 1.958 . S
O22 C40 1.278 1_545 S
O23 Co0 1.950 1_455 S
O23 C27 1.277 1_455 S
O24 Co0 2.057 1_456 S
O24 C39 1.263 . S
O25 Co12 2.042 1_455 S
O25 C40 1.237 1_455 S
O26 Co6 2.057 . S
O26 C13 1.263 1_556 S
C27 O17 1.221 1_565 S
C27 O23 1.277 1_655 S
C28 C11 1.361 1_554 S
C28 H29 0.960 . S
C28 H30 0.961 . S
C28 H31 0.961 1_455 S
H29 C28 0.960 . S
H30 C28 0.961 . S
H31 C28 0.961 1_655 S
C32 O16 1.221 . S
C32 O20 1.277 1_554 S
C33 O18 1.237 . S
C33 O19 1.278 . S
H34 C2 0.931 . S
H35 C38 0.961 . S
H36 C38 0.961 . S
H37 C38 0.960 . S
C38 C4 1.361 . S
C38 H35 0.961 . S
C38 H36 0.961 . S
C38 H37 0.960 . S
C39 O15 1.253 . S
C39 O24 1.263 . S
C40 O22 1.278 1_565 S
C40 O25 1.237 1_655 S
H41 C5 0.930 . S
H42 C9 0.930 . S
C43 C44 1.369 . S
C43 C45 1.419 1_556 S
C43 H47 0.930 . S
C44 C43 1.369 . S
C44 C53 1.429 1_456 S
C45 C43 1.419 1_554 S
C45 C46 1.363 . S
C45 H48 0.929 . S
C46 C45 1.363 . S
C46 C52 1.428 1_455 S
H47 C43 0.930 . S
H48 C45 0.929 . S
S49 N50 1.613 . S
S49 N51 1.610 . S
N50 S49 1.613 . S
N50 C53 1.350 . S
N51 S49 1.610 . S
N51 C52 1.351 . S
C52 C46 1.428 1_655 S
C52 N51 1.351 . S
C52 C53 1.434 . S
C53 C44 1.429 1_654 S
C53 N50 1.350 . S
C53 C52 1.434 . S
C54 C55 1.369 1_556 S
C54 C56 1.419 . S
C54 H58 0.930 . S
C55 C54 1.369 1_554 S
C55 C64 1.429 1_565 S
C56 C54 1.419 . S
C56 C57 1.363 1_565 S
C56 H59 0.929 . S
C57 C56 1.363 1_545 S
C57 C63 1.428 1_556 S
H58 C54 0.930 . S
H59 C56 0.929 . S
S60 N61 1.613 . S
S60 N62 1.610 . S
N61 S60 1.613 . S
N61 C64 1.350 . S
N62 S60 1.610 . S
N62 C63 1.351 . S
C63 C57 1.428 1_554 S
C63 N62 1.351 . S
C63 C64 1.434 . S
C64 C55 1.429 1_545 S
C64 N61 1.350 . S
C64 C63 1.434 . S
C65 C66 1.369 1_556 S
C65 C67 1.419 . S
C65 H69 0.930 . S
C66 C65 1.369 1_554 S
C66 C75 1.429 . S
C67 C65 1.419 . S
C67 C68 1.363 . S
C67 H70 0.929 . S
C68 C67 1.363 . S
C68 C74 1.428 1_556 S
H69 C65 0.930 . S
H70 C67 0.929 . S
S71 N72 1.613 . S
S71 N73 1.610 . S
N72 S71 1.613 . S
N72 C75 1.350 . S
N73 S71 1.610 . S
N73 C74 1.351 . S
C74 C68 1.428 1_554 S
C74 N73 1.351 . S
C74 C75 1.434 . S
C75 C66 1.429 . S
C75 N72 1.350 . S
C75 C74 1.434 . S
C76 C77 1.369 1_445 S
C76 C78 1.419 . S
C76 H80 0.930 . S
C77 C76 1.369 1_665 S
C77 C86 1.429 . S
C78 C76 1.419 . S
C78 C79 1.363 1_455 S
C78 H81 0.929 . S
C79 C78 1.363 1_655 S
C79 C85 1.428 1_545 S
H80 C76 0.930 . S
H81 C78 0.929 . S
S82 N83 1.613 . S
S82 N84 1.610 . S
N83 S82 1.613 . S
N83 C86 1.350 . S
N84 S82 1.610 . S
N84 C85 1.351 . S
C85 C79 1.428 1_565 S
C85 N84 1.351 . S
C85 C86 1.434 . S
C86 C77 1.429 . S
C86 N83 1.350 . S
C86 C85 1.434 . S
C44 N8 1.861 . S
C46 N3 1.641 . S
C55 C13 1.765 1_565 S
C57 C39 1.779 1_545 S
C66 C32 1.818 . S
C68 C33 1.833 . S
C77 C40 1.419 . S
C79 C27 1.414 1_545 S
