# Generated by pormake.
# Topology uop, (4)-cn, num edge types: 1
# Building blocks:
#     Node 0, Type 0, BuildingBlock: GALJAG_clean_sbu_0, # of connection points: 4
#     Node 1, Type 0, BuildingBlock: GALJAG_clean_sbu_0, # of connection points: 4
#     Node 2, Type 0, BuildingBlock: GALJAG_clean_sbu_0, # of connection points: 4
#     Node 3, Type 0, BuildingBlock: GALJAG_clean_sbu_0, # of connection points: 4
#     Node 4, Type 0, BuildingBlock: GALJAG_clean_sbu_0, # of connection points: 4
#     Node 5, Type 0, BuildingBlock: GALJAG_clean_sbu_0, # of connection points: 4
#     Node 6, Type 0, BuildingBlock: GALJAG_clean_sbu_0, # of connection points: 4
#     Node 7, Type 0, BuildingBlock: GALJAG_clean_sbu_0, # of connection points: 4
#     Node 8, Type 0, BuildingBlock: GALJAG_clean_sbu_0, # of connection points: 4
#     Node 9, Type 0, BuildingBlock: GALJAG_clean_sbu_0, # of connection points: 4
#     Node 10, Type 0, BuildingBlock: GALJAG_clean_sbu_0, # of connection points: 4
#     Node 11, Type 0, BuildingBlock: GALJAG_clean_sbu_0, # of connection points: 4
#     Edge 12, Type (0, 0), None
#     Edge 13, Type (0, 0), None
#     Edge 14, Type (0, 0), None
#     Edge 15, Type (0, 0), None
#     Edge 16, Type (0, 0), None
#     Edge 17, Type (0, 0), None
#     Edge 18, Type (0, 0), None
#     Edge 19, Type (0, 0), None
#     Edge 20, Type (0, 0), None
#     Edge 21, Type (0, 0), None
#     Edge 22, Type (0, 0), None
#     Edge 23, Type (0, 0), None
#     Edge 24, Type (0, 0), None
#     Edge 25, Type (0, 0), None
#     Edge 26, Type (0, 0), None
#     Edge 27, Type (0, 0), None
#     Edge 28, Type (0, 0), None
#     Edge 29, Type (0, 0), None
#     Edge 30, Type (0, 0), None
#     Edge 31, Type (0, 0), None
#     Edge 32, Type (0, 0), None
#     Edge 33, Type (0, 0), None
#     Edge 34, Type (0, 0), None
#     Edge 35, Type (0, 0), None
# Relax obj value: 0.084
# Max RMSD: 0.127
# Mean RMSD: 0.127
data_MOF--net-uop--node1-GALJAG_clean_sbu_0--edge1-none
_symmetry_space_group_name_H-M    P1
_symmetry_Int_Tables_number       1
_symmetry_cell_setting            triclinic
loop_
_symmetry_equiv_pos_as_xyz
'x, y, z'
_cell_length_a     14.691753
_cell_length_b     14.691141
_cell_length_c     21.345787
_cell_angle_alpha  89.999641
_cell_angle_beta   90.000211
_cell_angle_gamma 119.99532
loop_
_atom_site_label
_atom_site_type_symbol
_atom_site_fract_x
_atom_site_fract_y
_atom_site_fract_z
_atom_type_partial_charge
In0 In 0.25113 0.40039 0.20018 0.0
O1 O 0.12712 0.27987 0.13406 0.0
O2 O 0.08398 0.28461 0.22883 0.0
C3 C 0.44366 0.48213 0.15045 0.0
C4 C 0.22266 0.56278 0.17458 0.0
C5 C 0.30619 0.33894 0.30518 0.0
O6 O 0.37471 0.38625 0.14277 0.0
O7 O 0.4129 0.53588 0.18013 0.0
O8 O 0.27012 0.40136 0.3065 0.0
O9 O 0.31285 0.30677 0.25153 0.0
C10 C 0.05524 0.24519 0.17511 0.0
O11 O 0.23433 0.53998 0.23024 0.0
O12 O 0.22319 0.50263 0.1325 0.0
In13 In 0.85045 0.25129 0.53352 0.0
O14 O 0.69407 0.23452 0.56358 0.0
O15 O 0.72027 0.22334 0.46585 0.0
C16 C 0.96696 0.30635 0.63852 0.0
C17 C 0.80976 0.05539 0.50845 0.0
C18 C 0.96124 0.44382 0.48378 0.0
O19 O 0.86848 0.2703 0.63985 0.0
O20 O 0.00578 0.31301 0.58487 0.0
O21 O 0.98815 0.37485 0.47611 0.0
O22 O 0.87674 0.41308 0.51346 0.0
C23 C 0.6596 0.22283 0.50792 0.0
O24 O 0.84697 0.12728 0.4674 0.0
O25 O 0.79908 0.08414 0.56218 0.0
In26 In 0.59885 0.85058 0.86685 0.0
O27 O 0.71938 0.84711 0.80073 0.0
O28 O 0.71464 0.79922 0.8955 0.0
C29 C 0.51713 0.96139 0.81711 0.0
C30 C 0.43648 0.65974 0.84125 0.0
C31 C 0.6603 0.96709 0.97185 0.0
O32 O 0.613 0.9883 0.80943 0.0
O33 O 0.46337 0.87688 0.84679 0.0
O34 O 0.59789 0.86861 0.97317 0.0
O35 O 0.69246 0.00592 0.9182 0.0
C36 C 0.75407 0.80991 0.84178 0.0
O37 O 0.45926 0.6942 0.89691 0.0
O38 O 0.49663 0.7204 0.79918 0.0
In39 In 0.74796 0.59901 0.20019 0.0
O40 O 0.76477 0.45942 0.23024 0.0
O41 O 0.77588 0.49676 0.1325 0.0
C42 C 0.69291 0.66047 0.30518 0.0
C43 C 0.94386 0.75421 0.17512 0.0
C44 C 0.55546 0.5173 0.1505 0.0
O45 O 0.72898 0.59806 0.30651 0.0
O46 O 0.68624 0.69264 0.25153 0.0
O47 O 0.62442 0.61316 0.14274 0.0
O48 O 0.58616 0.46351 0.18019 0.0
C49 C 0.77642 0.43662 0.17458 0.0
O50 O 0.87197 0.71953 0.13407 0.0
O51 O 0.91511 0.71478 0.22884 0.0
In52 In 0.14867 0.74812 0.53351 0.0
O53 O 0.30506 0.76493 0.56357 0.0
O54 O 0.27882 0.77603 0.46583 0.0
C55 C 0.03215 0.69306 0.63851 0.0
C56 C 0.18936 0.94402 0.50845 0.0
C57 C 0.03787 0.55562 0.48383 0.0
O58 O 0.13063 0.72912 0.63984 0.0
O59 O 0.99333 0.68641 0.58486 0.0
O60 O 0.01098 0.62459 0.47607 0.0
O61 O 0.12236 0.58631 0.51352 0.0
C62 C 0.33951 0.77658 0.50791 0.0
O63 O 0.15215 0.87213 0.4674 0.0
O64 O 0.20004 0.91527 0.56217 0.0
In65 In 0.40027 0.14883 0.86685 0.0
O66 O 0.53985 0.30523 0.8969 0.0
O67 O 0.50251 0.27899 0.79916 0.0
C68 C 0.3388 0.03231 0.97185 0.0
C69 C 0.24506 0.18952 0.84178 0.0
C70 C 0.48196 0.03803 0.81716 0.0
O71 O 0.40121 0.13078 0.97318 0.0
O72 O 0.30665 0.99348 0.9182 0.0
O73 O 0.38611 0.01114 0.8094 0.0
O74 O 0.53575 0.1225 0.84686 0.0
C75 C 0.56264 0.33967 0.84124 0.0
O76 O 0.27974 0.1523 0.80074 0.0
O77 O 0.28449 0.20021 0.89551 0.0
In78 In 0.59886 0.74813 0.46677 0.0
O79 O 0.45926 0.76492 0.43672 0.0
O80 O 0.49662 0.77608 0.53446 0.0
C81 C 0.66031 0.69308 0.36178 0.0
C82 C 0.754 0.944 0.49186 0.0
C83 C 0.51713 0.55559 0.5165 0.0
O84 O 0.59789 0.72914 0.36045 0.0
O85 O 0.69248 0.68642 0.41542 0.0
O86 O 0.613 0.62456 0.52418 0.0
O87 O 0.46338 0.58635 0.48682 0.0
C88 C 0.43646 0.77656 0.49238 0.0
O89 O 0.71939 0.87211 0.5329 0.0
O90 O 0.7146 0.91529 0.43812 0.0
In91 In 0.85043 0.59899 0.8001 0.0
O92 O 0.84699 0.71954 0.86622 0.0
O93 O 0.79902 0.71475 0.77144 0.0
C94 C 0.96124 0.51727 0.84983 0.0
C95 C 0.65961 0.4366 0.82571 0.0
C96 C 0.96694 0.66045 0.6951 0.0
O97 O 0.98813 0.61315 0.85751 0.0
O98 O 0.87674 0.46351 0.82015 0.0
O99 O 0.86847 0.59803 0.69378 0.0
O100 O 0.00576 0.69262 0.74875 0.0
C101 C 0.8097 0.75415 0.82518 0.0
O102 O 0.69405 0.45939 0.77005 0.0
O103 O 0.72026 0.49677 0.86779 0.0
In104 In 0.25113 0.85058 0.13344 0.0
O105 O 0.23433 0.69419 0.10339 0.0
O106 O 0.2232 0.72042 0.20113 0.0
C107 C 0.30619 0.96709 0.02844 0.0
C108 C 0.05525 0.80984 0.15852 0.0
C109 C 0.44367 0.96139 0.18316 0.0
O110 O 0.27014 0.86862 0.02712 0.0
O111 O 0.31282 0.00592 0.08209 0.0
O112 O 0.3747 0.9883 0.19085 0.0
O113 O 0.41291 0.87688 0.15348 0.0
C114 C 0.2227 0.65976 0.15905 0.0
O115 O 0.12714 0.84713 0.19957 0.0
O116 O 0.08397 0.79918 0.10478 0.0
In117 In 0.40026 0.25129 0.46677 0.0
O118 O 0.53985 0.23447 0.43673 0.0
O119 O 0.50251 0.22339 0.53447 0.0
C120 C 0.3388 0.30634 0.36177 0.0
C121 C 0.24513 0.05541 0.49185 0.0
C122 C 0.48196 0.44379 0.51645 0.0
O123 O 0.40121 0.27027 0.36045 0.0
O124 O 0.30663 0.313 0.41542 0.0
O125 O 0.38611 0.37483 0.52421 0.0
O126 O 0.53575 0.4131 0.48675 0.0
C127 C 0.56266 0.22286 0.4924 0.0
O128 O 0.27973 0.1273 0.53289 0.0
O129 O 0.28453 0.08413 0.43811 0.0
In130 In 0.14869 0.40042 0.80011 0.0
O131 O 0.15214 0.27988 0.86623 0.0
O132 O 0.2001 0.28467 0.77145 0.0
C133 C 0.03788 0.48212 0.84979 0.0
C134 C 0.3395 0.56281 0.82573 0.0
C135 C 0.03217 0.33896 0.69511 0.0
O136 O 0.011 0.38626 0.85755 0.0
O137 O 0.12235 0.53591 0.82009 0.0
O138 O 0.13064 0.40137 0.69379 0.0
O139 O 0.99335 0.30679 0.74876 0.0
C140 C 0.18943 0.24528 0.82518 0.0
O141 O 0.30508 0.54 0.77006 0.0
O142 O 0.27883 0.50266 0.8678 0.0
In143 In 0.74796 0.14882 0.13344 0.0
O144 O 0.76476 0.30521 0.10339 0.0
O145 O 0.77587 0.27897 0.20113 0.0
C146 C 0.69291 0.0323 0.02844 0.0
C147 C 0.94385 0.18956 0.15851 0.0
C148 C 0.55546 0.03801 0.18312 0.0
O149 O 0.72897 0.13078 0.02712 0.0
O150 O 0.68627 0.99348 0.08209 0.0
O151 O 0.62443 0.01112 0.19088 0.0
O152 O 0.58615 0.1225 0.15342 0.0
C153 C 0.77638 0.33964 0.15905 0.0
O154 O 0.87196 0.15227 0.19956 0.0
O155 O 0.91512 0.20023 0.10477 0.0
loop_
_geom_bond_atom_site_label_1
_geom_bond_atom_site_label_2
_geom_bond_distance
_geom_bond_site_symmetry_2
_ccdc_geom_bond_type
In0 O1 2.294 . S
In0 O2 2.326 . S
In0 O6 2.266 . S
In0 O7 2.326 . S
In0 O8 2.266 . S
In0 O9 2.326 . S
In0 O11 2.294 . S
In0 O12 2.326 . S
O1 In0 2.294 . S
O1 C10 1.240 . S
O2 In0 2.326 . S
O2 C10 1.252 . S
C3 O6 1.252 . S
C3 O7 1.260 . S
C4 O11 1.240 . S
C4 O12 1.252 . S
C5 O8 1.252 . S
C5 O9 1.260 . S
O6 In0 2.266 . S
O6 C3 1.252 . S
O7 In0 2.326 . S
O7 C3 1.260 . S
O8 In0 2.266 . S
O8 C5 1.252 . S
O9 In0 2.326 . S
O9 C5 1.260 . S
C10 O1 1.240 . S
C10 O2 1.252 . S
O11 In0 2.294 . S
O11 C4 1.240 . S
O12 In0 2.326 . S
O12 C4 1.252 . S
In13 O14 2.294 . S
In13 O15 2.326 . S
In13 O19 2.266 . S
In13 O20 2.317 1_655 S
In13 O21 2.266 . S
In13 O22 2.326 . S
In13 O24 2.294 . S
In13 O25 2.326 . S
O14 In13 2.294 . S
O14 C23 1.240 . S
O15 In13 2.326 . S
O15 C23 1.252 . S
C16 O19 1.252 . S
C16 O20 1.256 1_655 S
C17 O24 1.240 . S
C17 O25 1.252 . S
C18 O21 1.252 1_455 S
C18 O22 1.260 1_455 S
O19 In13 2.266 . S
O19 C16 1.252 . S
O20 In13 2.317 1_455 S
O20 C16 1.256 1_455 S
O21 In13 2.266 . S
O21 C18 1.252 1_655 S
O22 In13 2.326 . S
O22 C18 1.260 1_655 S
C23 O14 1.240 . S
C23 O15 1.252 . S
O24 In13 2.294 . S
O24 C17 1.240 . S
O25 In13 2.326 . S
O25 C17 1.252 . S
In26 O27 2.294 . S
In26 O28 2.326 . S
In26 O32 2.266 . S
In26 O33 2.326 . S
In26 O34 2.266 . S
In26 O35 2.321 1_565 S
In26 O37 2.294 . S
In26 O38 2.326 . S
O27 In26 2.294 . S
O27 C36 1.240 . S
O28 In26 2.326 . S
O28 C36 1.252 . S
C29 O32 1.252 1_545 S
C29 O33 1.260 1_545 S
C30 O37 1.240 . S
C30 O38 1.252 . S
C31 O34 1.252 . S
C31 O35 1.259 1_565 S
O32 In26 2.266 . S
O32 C29 1.252 1_565 S
O33 In26 2.326 . S
O33 C29 1.260 1_565 S
O34 In26 2.266 . S
O34 C31 1.252 . S
O35 In26 2.321 1_545 S
O35 C31 1.259 1_545 S
C36 O27 1.240 . S
C36 O28 1.252 . S
O37 In26 2.294 . S
O37 C30 1.240 . S
O38 In26 2.326 . S
O38 C30 1.252 . S
In39 O40 2.294 . S
In39 O41 2.326 . S
In39 O45 2.266 . S
In39 O46 2.326 . S
In39 O47 2.266 . S
In39 O48 2.326 . S
In39 O50 2.294 . S
In39 O51 2.326 . S
O40 In39 2.294 . S
O40 C49 1.240 . S
O41 In39 2.326 . S
O41 C49 1.252 . S
C42 O45 1.252 . S
C42 O46 1.260 . S
C43 O50 1.240 . S
C43 O51 1.252 . S
C44 O47 1.252 . S
C44 O48 1.260 . S
O45 In39 2.266 . S
O45 C42 1.252 . S
O46 In39 2.326 . S
O46 C42 1.260 . S
O47 In39 2.266 . S
O47 C44 1.252 . S
O48 In39 2.326 . S
O48 C44 1.260 . S
C49 O40 1.240 . S
C49 O41 1.252 . S
O50 In39 2.294 . S
O50 C43 1.240 . S
O51 In39 2.326 . S
O51 C43 1.252 . S
In52 O53 2.294 . S
In52 O54 2.326 . S
In52 O58 2.266 . S
In52 O59 2.317 1_455 S
In52 O60 2.266 . S
In52 O61 2.326 . S
In52 O63 2.294 . S
In52 O64 2.326 . S
O53 In52 2.294 . S
O53 C62 1.240 . S
O54 In52 2.326 . S
O54 C62 1.252 . S
C55 O58 1.252 . S
C55 O59 1.256 1_455 S
C56 O63 1.240 . S
C56 O64 1.252 . S
C57 O60 1.252 1_655 S
C57 O61 1.260 1_655 S
O58 In52 2.266 . S
O58 C55 1.252 . S
O59 In52 2.317 1_655 S
O59 C55 1.256 1_655 S
O60 In52 2.266 . S
O60 C57 1.252 1_455 S
O61 In52 2.326 . S
O61 C57 1.260 1_455 S
C62 O53 1.240 . S
C62 O54 1.252 . S
O63 In52 2.294 . S
O63 C56 1.240 . S
O64 In52 2.326 . S
O64 C56 1.252 . S
In65 O66 2.294 . S
In65 O67 2.326 . S
In65 O71 2.266 . S
In65 O72 2.321 1_545 S
In65 O73 2.266 . S
In65 O74 2.326 . S
In65 O76 2.294 . S
In65 O77 2.326 . S
O66 In65 2.294 . S
O66 C75 1.240 . S
O67 In65 2.326 . S
O67 C75 1.252 . S
C68 O71 1.252 . S
C68 O72 1.259 1_545 S
C69 O76 1.240 . S
C69 O77 1.252 . S
C70 O73 1.252 1_565 S
C70 O74 1.260 1_565 S
O71 In65 2.266 . S
O71 C68 1.252 . S
O72 In65 2.321 1_565 S
O72 C68 1.259 1_565 S
O73 In65 2.266 . S
O73 C70 1.252 1_545 S
O74 In65 2.326 . S
O74 C70 1.260 1_545 S
C75 O66 1.240 . S
C75 O67 1.252 . S
O76 In65 2.294 . S
O76 C69 1.240 . S
O77 In65 2.326 . S
O77 C69 1.252 . S
In78 O79 2.294 . S
In78 O80 2.326 . S
In78 O84 2.266 . S
In78 O85 2.326 . S
In78 O86 2.266 . S
In78 O87 2.326 . S
In78 O89 2.294 . S
In78 O90 2.326 . S
O79 In78 2.294 . S
O79 C88 1.240 . S
O80 In78 2.326 . S
O80 C88 1.252 . S
C81 O84 1.252 . S
C81 O85 1.260 . S
C82 O89 1.240 . S
C82 O90 1.252 . S
C83 O86 1.252 . S
C83 O87 1.260 . S
O84 In78 2.266 . S
O84 C81 1.252 . S
O85 In78 2.326 . S
O85 C81 1.260 . S
O86 In78 2.266 . S
O86 C83 1.252 . S
O87 In78 2.326 . S
O87 C83 1.260 . S
C88 O79 1.240 . S
C88 O80 1.252 . S
O89 In78 2.294 . S
O89 C82 1.240 . S
O90 In78 2.326 . S
O90 C82 1.252 . S
In91 O92 2.294 . S
In91 O93 2.326 . S
In91 O97 2.266 . S
In91 O98 2.326 . S
In91 O99 2.266 . S
In91 O100 2.321 1_655 S
In91 O102 2.294 . S
In91 O103 2.326 . S
O92 In91 2.294 . S
O92 C101 1.240 . S
O93 In91 2.326 . S
O93 C101 1.252 . S
C94 O97 1.252 1_455 S
C94 O98 1.260 1_455 S
C95 O102 1.240 . S
C95 O103 1.252 . S
C96 O99 1.252 . S
C96 O100 1.259 1_655 S
O97 In91 2.266 . S
O97 C94 1.252 1_655 S
O98 In91 2.326 . S
O98 C94 1.260 1_655 S
O99 In91 2.266 . S
O99 C96 1.252 . S
O100 In91 2.321 1_455 S
O100 C96 1.259 1_455 S
C101 O92 1.240 . S
C101 O93 1.252 . S
O102 In91 2.294 . S
O102 C95 1.240 . S
O103 In91 2.326 . S
O103 C95 1.252 . S
In104 O105 2.294 . S
In104 O106 2.326 . S
In104 O110 2.266 . S
In104 O111 2.317 1_565 S
In104 O112 2.266 . S
In104 O113 2.326 . S
In104 O115 2.294 . S
In104 O116 2.326 . S
O105 In104 2.294 . S
O105 C114 1.240 . S
O106 In104 2.326 . S
O106 C114 1.252 . S
C107 O110 1.252 . S
C107 O111 1.256 1_565 S
C108 O115 1.240 . S
C108 O116 1.252 . S
C109 O112 1.252 1_545 S
C109 O113 1.260 1_545 S
O110 In104 2.266 . S
O110 C107 1.252 . S
O111 In104 2.317 1_545 S
O111 C107 1.256 1_545 S
O112 In104 2.266 . S
O112 C109 1.252 1_565 S
O113 In104 2.326 . S
O113 C109 1.260 1_565 S
C114 O105 1.240 . S
C114 O106 1.252 . S
O115 In104 2.294 . S
O115 C108 1.240 . S
O116 In104 2.326 . S
O116 C108 1.252 . S
In117 O118 2.294 . S
In117 O119 2.326 . S
In117 O123 2.266 . S
In117 O124 2.326 . S
In117 O125 2.266 . S
In117 O126 2.326 . S
In117 O128 2.294 . S
In117 O129 2.326 . S
O118 In117 2.294 . S
O118 C127 1.240 . S
O119 In117 2.326 . S
O119 C127 1.252 . S
C120 O123 1.252 . S
C120 O124 1.260 . S
C121 O128 1.240 . S
C121 O129 1.252 . S
C122 O125 1.252 . S
C122 O126 1.260 . S
O123 In117 2.266 . S
O123 C120 1.252 . S
O124 In117 2.326 . S
O124 C120 1.260 . S
O125 In117 2.266 . S
O125 C122 1.252 . S
O126 In117 2.326 . S
O126 C122 1.260 . S
C127 O118 1.240 . S
C127 O119 1.252 . S
O128 In117 2.294 . S
O128 C121 1.240 . S
O129 In117 2.326 . S
O129 C121 1.252 . S
In130 O131 2.294 . S
In130 O132 2.326 . S
In130 O136 2.266 . S
In130 O137 2.326 . S
In130 O138 2.266 . S
In130 O139 2.321 1_455 S
In130 O141 2.294 . S
In130 O142 2.326 . S
O131 In130 2.294 . S
O131 C140 1.240 . S
O132 In130 2.326 . S
O132 C140 1.252 . S
C133 O136 1.252 1_655 S
C133 O137 1.260 1_655 S
C134 O141 1.240 . S
C134 O142 1.252 . S
C135 O138 1.252 . S
C135 O139 1.259 1_455 S
O136 In130 2.266 . S
O136 C133 1.252 1_455 S
O137 In130 2.326 . S
O137 C133 1.260 1_455 S
O138 In130 2.266 . S
O138 C135 1.252 . S
O139 In130 2.321 1_655 S
O139 C135 1.259 1_655 S
C140 O131 1.240 . S
C140 O132 1.252 . S
O141 In130 2.294 . S
O141 C134 1.240 . S
O142 In130 2.326 . S
O142 C134 1.252 . S
In143 O144 2.294 . S
In143 O145 2.326 . S
In143 O149 2.266 . S
In143 O150 2.317 1_545 S
In143 O151 2.266 . S
In143 O152 2.326 . S
In143 O154 2.294 . S
In143 O155 2.326 . S
O144 In143 2.294 . S
O144 C153 1.240 . S
O145 In143 2.326 . S
O145 C153 1.252 . S
C146 O149 1.252 . S
C146 O150 1.256 1_545 S
C147 O154 1.240 . S
C147 O155 1.252 . S
C148 O151 1.252 1_565 S
C148 O152 1.260 1_565 S
O149 In143 2.266 . S
O149 C146 1.252 . S
O150 In143 2.317 1_565 S
O150 C146 1.256 1_565 S
O151 In143 2.266 . S
O151 C148 1.252 1_545 S
O152 In143 2.326 . S
O152 C148 1.260 1_545 S
C153 O144 1.240 . S
C153 O145 1.252 . S
O154 In143 2.294 . S
O154 C147 1.240 . S
O155 In143 2.326 . S
O155 C147 1.252 . S
C114 C4 1.604 . S
C23 C127 1.604 . S
C30 C134 1.604 . S
C49 C153 1.604 . S
C88 C62 1.604 . S
C75 C95 1.604 . S
C44 C3 1.613 . S
C57 C18 1.613 1_655 S
C70 C29 1.613 1_565 S
C83 C122 1.613 . S
C94 C133 1.613 1_455 S
C109 C148 1.613 1_545 S
C5 C120 1.559 . S
C16 C135 1.559 1_655 S
C31 C146 1.559 1_566 S
C81 C42 1.559 . S
C55 C96 1.559 1_455 S
C107 C68 1.559 1_564 S
C147 C10 1.563 1_655 S
C17 C82 1.563 1_545 S
C101 C36 1.563 . S
C43 C108 1.563 1_655 S
C56 C121 1.563 1_565 S
C140 C69 1.563 . S
