# Generated by pormake.
# Topology acs-a, (4)-cn, num edge types: 1
# Building blocks:
#     Node 0, Type 0, BuildingBlock: AZAVOO_clean_sbu_0, # of connection points: 4
#     Node 1, Type 0, BuildingBlock: AZAVOO_clean_sbu_0, # of connection points: 4
#     Node 2, Type 0, BuildingBlock: AZAVOO_clean_sbu_0, # of connection points: 4
#     Node 3, Type 0, BuildingBlock: AZAVOO_clean_sbu_0, # of connection points: 4
#     Node 4, Type 0, BuildingBlock: AZAVOO_clean_sbu_0, # of connection points: 4
#     Node 5, Type 0, BuildingBlock: AZAVOO_clean_sbu_0, # of connection points: 4
#     Node 6, Type 0, BuildingBlock: AZAVOO_clean_sbu_0, # of connection points: 4
#     Node 7, Type 0, BuildingBlock: AZAVOO_clean_sbu_0, # of connection points: 4
#     Node 8, Type 0, BuildingBlock: AZAVOO_clean_sbu_0, # of connection points: 4
#     Node 9, Type 0, BuildingBlock: AZAVOO_clean_sbu_0, # of connection points: 4
#     Node 10, Type 0, BuildingBlock: AZAVOO_clean_sbu_0, # of connection points: 4
#     Node 11, Type 0, BuildingBlock: AZAVOO_clean_sbu_0, # of connection points: 4
#     Edge 12, Type (0, 0), None
#     Edge 13, Type (0, 0), None
#     Edge 14, Type (0, 0), None
#     Edge 15, Type (0, 0), None
#     Edge 16, Type (0, 0), None
#     Edge 17, Type (0, 0), None
#     Edge 18, Type (0, 0), None
#     Edge 19, Type (0, 0), None
#     Edge 20, Type (0, 0), None
#     Edge 21, Type (0, 0), None
#     Edge 22, Type (0, 0), None
#     Edge 23, Type (0, 0), None
#     Edge 24, Type (0, 0), None
#     Edge 25, Type (0, 0), None
#     Edge 26, Type (0, 0), None
#     Edge 27, Type (0, 0), None
#     Edge 28, Type (0, 0), None
#     Edge 29, Type (0, 0), None
#     Edge 30, Type (0, 0), None
#     Edge 31, Type (0, 0), None
#     Edge 32, Type (0, 0), None
#     Edge 33, Type (0, 0), None
#     Edge 34, Type (0, 0), None
#     Edge 35, Type (0, 0), None
# Relax obj value: 0.354
# Max RMSD: 0.215
# Mean RMSD: 0.207
data_MOF--net-acs-a--node1-AZAVOO_clean_sbu_0--edge1-none
_symmetry_space_group_name_H-M    P1
_symmetry_Int_Tables_number       1
_symmetry_cell_setting            triclinic
loop_
_symmetry_equiv_pos_as_xyz
'x, y, z'
_cell_length_a     19.101646
_cell_length_b     19.115204
_cell_length_c     24.168218
_cell_angle_alpha  90.002539
_cell_angle_beta   89.995138
_cell_angle_gamma 110.59479
loop_
_atom_site_label
_atom_site_type_symbol
_atom_site_fract_x
_atom_site_fract_y
_atom_site_fract_z
_atom_type_partial_charge
Mg0 Mg 0.53557 0.09879 0.07929 0.0
O1 O 0.66454 0.14021 0.05177 0.0
O2 O 0.67169 0.2042 0.12634 0.0
Mg3 Mg 0.61521 0.22978 0.1988 0.0
C4 C 0.70404 0.18969 0.08502 0.0
C5 C 0.4646 0.96944 -0.00678 0.0
O6 O 0.43856 0.89906 0.97877 0.0
O7 O 0.5476 0.03643 0.16231 0.0
O8 O 0.64782 0.12886 0.18336 0.0
O9 O 0.53182 0.2121 0.03716 0.0
O10 O 0.54167 0.19794 0.12467 0.0
C11 C 0.59887 0.06788 0.19763 0.0
C12 C 0.54044 0.2414 0.08542 0.0
O13 O 0.5119 0.98965 0.03222 0.0
Mg14 Mg 0.37066 0.48178 0.59392 0.0
O15 O 0.43322 0.61363 0.57176 0.0
O16 O 0.38271 0.65447 0.64157 0.0
Mg17 Mg 0.31198 0.57328 0.702 0.0
C18 C 0.42132 0.66717 0.59763 0.0
C19 C 0.47774 0.44217 0.50388 0.0
O20 O 0.52635 0.4106 0.49078 0.0
O21 O 0.43756 0.47869 0.6754 0.0
O22 O 0.43269 0.58748 0.6823 0.0
O23 O 0.27526 0.49511 0.53897 0.0
O24 O 0.2757 0.50213 0.62831 0.0
C25 C 0.45522 0.53901 0.70256 0.0
C26 C 0.24641 0.5123 0.58289 0.0
O27 O 0.46028 0.44486 0.55399 0.0
Mg28 Mg 0.91041 0.33598 0.09397 0.0
O29 O 0.8517 0.42987 0.08333 0.0
O30 O 0.73748 0.35527 0.1009 0.0
Mg31 Mg 0.76097 0.31267 0.18358 0.0
C32 C 0.78105 0.41667 0.08236 0.0
C33 C 0.02662 0.433 -0.00238 0.0
O34 O 0.09354 0.45084 0.97653 0.0
O35 O 0.96837 0.3892 0.17692 0.0
O36 O 0.86853 0.41613 0.18776 0.0
O37 O 0.82249 0.25216 0.0381 0.0
O38 O 0.81592 0.25777 0.12883 0.0
C39 C 0.9283 0.41305 0.20855 0.0
C40 C 0.78542 0.22808 0.08322 0.0
O41 O 0.01202 0.39339 0.04104 0.0
Mg42 Mg 0.4596 0.89019 0.57926 0.0
O43 O 0.33067 0.84887 0.55158 0.0
O44 O 0.32388 0.78511 0.62614 0.0
Mg45 Mg 0.37967 0.75904 0.69879 0.0
C46 C 0.2913 0.79943 0.58489 0.0
C47 C 0.53079 0.01956 0.49327 0.0
O48 O 0.55695 0.08996 0.47886 0.0
O49 O 0.44749 0.95251 0.66228 0.0
O50 O 0.34723 0.86009 0.68333 0.0
O51 O 0.46348 0.77687 0.53718 0.0
O52 O 0.45332 0.79099 0.62467 0.0
C53 C 0.39621 0.92106 0.69761 0.0
C54 C 0.45469 0.74757 0.58543 0.0
O55 O 0.48344 -0.00062 0.53223 0.0
Mg56 Mg 0.62464 0.5072 0.09401 0.0
O57 O 0.56208 0.37537 0.07177 0.0
O58 O 0.61246 0.33442 0.14159 0.0
Mg59 Mg 0.68304 0.41555 0.20211 0.0
C60 C 0.57393 0.32179 0.09762 0.0
C61 C 0.51772 0.54694 0.00391 0.0
O62 O 0.46916 0.57856 -0.00918 0.0
O63 O 0.55758 0.51018 0.17545 0.0
O64 O 0.56236 0.40135 0.1823 0.0
O65 O 0.72013 0.49393 0.0391 0.0
O66 O 0.7195 0.48679 0.12847 0.0
C67 C 0.5398 0.44981 0.20255 0.0
C68 C 0.74883 0.47666 0.08306 0.0
O69 O 0.53515 0.54423 0.05403 0.0
Mg70 Mg 0.08494 0.653 0.59396 0.0
O71 O 0.14358 0.5591 0.58326 0.0
O72 O 0.25786 0.63374 0.60064 0.0
Mg73 Mg 0.23456 0.67627 0.68341 0.0
C74 C 0.21423 0.57232 0.58217 0.0
C75 C 0.96866 0.55599 0.4976 0.0
O76 O 0.90173 0.53818 0.47653 0.0
O77 O 0.02706 0.59976 0.67691 0.0
O78 O 0.12694 0.57288 0.68772 0.0
O79 O 0.17281 0.73685 0.53808 0.0
O80 O 0.17951 0.73119 0.62881 0.0
C81 C 0.06719 0.57599 0.70853 0.0
C82 C 0.20994 0.76091 0.58318 0.0
O83 O 0.98329 0.59564 0.54101 0.0
Mg84 Mg 0.89332 0.45639 0.38597 0.0
O85 O 0.85203 0.32754 0.41359 0.0
O86 O 0.7881 0.32057 0.33904 0.0
Mg87 Mg 0.7621 0.37652 0.26648 0.0
C88 C 0.80255 0.28812 0.3803 0.0
C89 C 0.02276 0.52773 0.47192 0.0
O90 O 0.09322 0.55401 0.48628 0.0
O91 O 0.95567 0.44435 0.30294 0.0
O92 O 0.86323 0.34407 0.28178 0.0
O93 O 0.77995 0.46018 0.4281 0.0
O94 O 0.79407 0.45008 0.34061 0.0
C95 C 0.92425 0.39309 0.26762 0.0
C96 C 0.75062 0.45146 0.37985 0.0
O97 O 0.00259 0.48033 0.43301 0.0
Mg98 Mg 0.33896 0.90704 0.87124 0.0
O99 O 0.43288 0.84833 0.88184 0.0
O100 O 0.35833 0.73418 0.86403 0.0
Mg101 Mg 0.31547 0.75777 0.78153 0.0
C102 C 0.41973 0.77773 0.88268 0.0
C103 C 0.43625 0.02342 0.9675 0.0
O104 O 0.45412 0.09036 -0.01153 0.0
O105 O 0.39215 0.965 0.78829 0.0
O106 O 0.41913 0.86522 0.77739 0.0
O107 O 0.25522 0.81925 0.92718 0.0
O108 O 0.26064 0.81247 0.83646 0.0
C109 C 0.4161 0.92501 0.75669 0.0
C110 C 0.23106 0.78206 0.88213 0.0
O111 O 0.39648 0.00866 0.92414 0.0
Mg112 Mg 0.48472 0.3674 0.37132 0.0
O113 O 0.61659 0.42992 0.39358 0.0
O114 O 0.65747 0.37963 0.32368 0.0
Mg115 Mg 0.57637 0.30902 0.26314 0.0
C116 C 0.67017 0.41809 0.36767 0.0
C117 C 0.44516 0.47449 0.46139 0.0
O118 O 0.41361 0.5231 0.47445 0.0
O119 O 0.48181 0.43441 0.28988 0.0
O120 O 0.59081 0.42969 0.28293 0.0
O121 O 0.49808 0.27194 0.42616 0.0
O122 O 0.50517 0.27262 0.33682 0.0
C123 C 0.54225 0.4522 0.26279 0.0
C124 C 0.51533 0.24324 0.3822 0.0
O125 O 0.44767 0.45685 0.41129 0.0
Mg126 Mg 0.102 0.53278 0.88609 0.0
O127 O 0.14305 0.66156 0.91395 0.0
O128 O 0.20667 0.66787 0.83944 0.0
Mg129 Mg 0.23376 0.61323 0.76661 0.0
C130 C 0.19246 0.70074 0.88054 0.0
C131 C 0.97246 0.46116 0.97193 0.0
O132 O 0.902 0.43484 -0.01369 0.0
O133 O 0.0399 0.54489 0.80296 0.0
O134 O 0.13229 0.64523 0.78168 0.0
O135 O 0.21533 0.52876 0.92819 0.0
O136 O 0.20141 0.53944 0.84074 0.0
C137 C 0.0713 0.59608 0.76757 0.0
C138 C 0.24474 0.53768 0.87996 0.0
O139 O 0.99259 0.50854 0.933 0.0
Mg140 Mg 0.65621 0.08184 0.37126 0.0
O141 O 0.56224 0.1405 0.38191 0.0
O142 O 0.6368 0.25468 0.3642 0.0
Mg143 Mg 0.67952 0.23114 0.28159 0.0
C144 C 0.57542 0.2111 0.38283 0.0
C145 C 0.55908 0.96554 0.46755 0.0
O146 O 0.54124 0.89863 0.48858 0.0
O147 O 0.60298 0.02392 0.2883 0.0
O148 O 0.57592 0.12367 0.27744 0.0
O149 O 0.74003 0.16971 0.42715 0.0
O150 O 0.73444 0.17633 0.33642 0.0
C151 C 0.57899 0.06391 0.25672 0.0
C152 C 0.7641 0.20679 0.38205 0.0
O153 O 0.59879 0.98023 0.42416 0.0
Mg154 Mg 0.51046 0.62145 0.87131 0.0
O155 O 0.37869 0.55894 0.8938 0.0
O156 O 0.33802 0.60916 0.82379 0.0
Mg157 Mg 0.41873 0.67981 0.76304 0.0
C158 C 0.3252 0.57078 0.86782 0.0
C159 C 0.55027 0.51459 0.96142 0.0
O160 O 0.5819 0.46603 0.9745 0.0
O161 O 0.51308 0.55424 0.78991 0.0
O162 O 0.40413 0.55913 0.78291 0.0
O163 O 0.49715 0.71704 0.92607 0.0
O164 O 0.48994 0.71615 0.8367 0.0
C165 C 0.45267 0.53655 0.76279 0.0
C166 C 0.4798 0.74557 0.88207 0.0
O167 O 0.54767 0.53212 0.91132 0.0
loop_
_geom_bond_atom_site_label_1
_geom_bond_atom_site_label_2
_geom_bond_distance
_geom_bond_site_symmetry_2
_ccdc_geom_bond_type
Mg0 O1 2.028 . S
Mg0 O7 1.986 . S
Mg0 O9 2.114 . S
Mg0 O10 2.251 . S
Mg0 O13 2.010 . S
O1 Mg0 2.028 . S
O1 C4 1.250 . S
O2 Mg3 2.028 . S
O2 C4 1.248 . S
Mg3 O2 2.028 . S
Mg3 O8 2.032 . S
Mg3 O10 2.079 . S
C4 O1 1.250 . S
C4 O2 1.248 . S
C5 O6 1.264 . S
C5 O13 1.249 1_565 S
O6 C5 1.264 . S
O7 Mg0 1.986 . S
O7 C11 1.246 . S
O8 Mg3 2.032 . S
O8 C11 1.259 . S
O9 Mg0 2.114 . S
O9 C12 1.252 . S
O10 Mg0 2.251 . S
O10 Mg3 2.079 . S
O10 C12 1.273 . S
C11 O7 1.246 . S
C11 O8 1.259 . S
C12 O9 1.252 . S
C12 O10 1.273 . S
O13 Mg0 2.010 . S
O13 C5 1.249 1_545 S
Mg14 O15 2.028 . S
Mg14 O21 1.986 . S
Mg14 O23 2.114 . S
Mg14 O24 2.251 . S
Mg14 O27 2.010 . S
O15 Mg14 2.028 . S
O15 C18 1.250 . S
O16 Mg17 2.028 . S
O16 C18 1.248 . S
Mg17 O16 2.028 . S
Mg17 O22 2.032 . S
Mg17 O24 2.079 . S
C18 O15 1.250 . S
C18 O16 1.248 . S
C19 O20 1.264 . S
C19 O27 1.249 . S
O20 C19 1.264 . S
O21 Mg14 1.986 . S
O21 C25 1.246 . S
O22 Mg17 2.032 . S
O22 C25 1.259 . S
O23 Mg14 2.114 . S
O23 C26 1.252 . S
O24 Mg14 2.251 . S
O24 Mg17 2.079 . S
O24 C26 1.273 . S
C25 O21 1.246 . S
C25 O22 1.259 . S
C26 O23 1.252 . S
C26 O24 1.273 . S
O27 Mg14 2.010 . S
O27 C19 1.249 . S
Mg28 O29 2.028 . S
Mg28 O35 1.986 . S
Mg28 O37 2.114 . S
Mg28 O38 2.251 . S
Mg28 O41 2.010 . S
O29 Mg28 2.028 . S
O29 C32 1.250 . S
O30 Mg31 2.028 . S
O30 C32 1.248 . S
Mg31 O30 2.028 . S
Mg31 O36 2.032 . S
Mg31 O38 2.079 . S
C32 O29 1.250 . S
C32 O30 1.248 . S
C33 O34 1.261 1_554 S
C33 O41 1.249 1_455 S
O34 C33 1.261 1_556 S
O35 Mg28 1.986 . S
O35 C39 1.246 . S
O36 Mg31 2.032 . S
O36 C39 1.259 . S
O37 Mg28 2.114 . S
O37 C40 1.252 . S
O38 Mg28 2.251 . S
O38 Mg31 2.079 . S
O38 C40 1.273 . S
C39 O35 1.246 . S
C39 O36 1.259 . S
C40 O37 1.252 . S
C40 O38 1.273 . S
O41 Mg28 2.010 . S
O41 C33 1.249 1_655 S
Mg42 O43 2.028 . S
Mg42 O49 1.986 . S
Mg42 O51 2.114 . S
Mg42 O52 2.251 . S
Mg42 O55 2.010 . S
O43 Mg42 2.028 . S
O43 C46 1.250 . S
O44 Mg45 2.028 . S
O44 C46 1.248 . S
Mg45 O44 2.028 . S
Mg45 O50 2.032 . S
Mg45 O52 2.079 . S
C46 O43 1.250 . S
C46 O44 1.248 . S
C47 O48 1.264 . S
C47 O55 1.249 1_545 S
O48 C47 1.264 . S
O49 Mg42 1.986 . S
O49 C53 1.246 . S
O50 Mg45 2.032 . S
O50 C53 1.259 . S
O51 Mg42 2.114 . S
O51 C54 1.252 . S
O52 Mg42 2.251 . S
O52 Mg45 2.079 . S
O52 C54 1.273 . S
C53 O49 1.246 . S
C53 O50 1.259 . S
C54 O51 1.252 . S
C54 O52 1.273 . S
O55 Mg42 2.010 . S
O55 C47 1.249 1_565 S
Mg56 O57 2.028 . S
Mg56 O63 1.986 . S
Mg56 O65 2.114 . S
Mg56 O66 2.251 . S
Mg56 O69 2.010 . S
O57 Mg56 2.028 . S
O57 C60 1.250 . S
O58 Mg59 2.028 . S
O58 C60 1.248 . S
Mg59 O58 2.028 . S
Mg59 O64 2.032 . S
Mg59 O66 2.079 . S
C60 O57 1.250 . S
C60 O58 1.248 . S
C61 O62 1.264 . S
C61 O69 1.249 . S
O62 C61 1.264 . S
O63 Mg56 1.986 . S
O63 C67 1.246 . S
O64 Mg59 2.032 . S
O64 C67 1.259 . S
O65 Mg56 2.114 . S
O65 C68 1.252 . S
O66 Mg56 2.251 . S
O66 Mg59 2.079 . S
O66 C68 1.273 . S
C67 O63 1.246 . S
C67 O64 1.259 . S
C68 O65 1.252 . S
C68 O66 1.273 . S
O69 Mg56 2.010 . S
O69 C61 1.249 . S
Mg70 O71 2.028 . S
Mg70 O77 1.986 . S
Mg70 O79 2.114 . S
Mg70 O80 2.251 . S
Mg70 O83 2.010 . S
O71 Mg70 2.028 . S
O71 C74 1.250 . S
O72 Mg73 2.028 . S
O72 C74 1.248 . S
Mg73 O72 2.028 . S
Mg73 O78 2.032 . S
Mg73 O80 2.079 . S
C74 O71 1.250 . S
C74 O72 1.248 . S
C75 O76 1.264 . S
C75 O83 1.249 1_655 S
O76 C75 1.264 . S
O77 Mg70 1.986 . S
O77 C81 1.246 . S
O78 Mg73 2.032 . S
O78 C81 1.259 . S
O79 Mg70 2.114 . S
O79 C82 1.252 . S
O80 Mg70 2.251 . S
O80 Mg73 2.079 . S
O80 C82 1.273 . S
C81 O77 1.246 . S
C81 O78 1.259 . S
C82 O79 1.252 . S
C82 O80 1.273 . S
O83 Mg70 2.010 . S
O83 C75 1.249 1_455 S
Mg84 O85 2.028 . S
Mg84 O91 1.986 . S
Mg84 O93 2.114 . S
Mg84 O94 2.251 . S
Mg84 O97 2.010 . S
O85 Mg84 2.028 . S
O85 C88 1.250 . S
O86 Mg87 2.028 . S
O86 C88 1.248 . S
Mg87 O86 2.028 . S
Mg87 O92 2.032 . S
Mg87 O94 2.079 . S
C88 O85 1.250 . S
C88 O86 1.248 . S
C89 O90 1.264 . S
C89 O97 1.249 1_455 S
O90 C89 1.264 . S
O91 Mg84 1.986 . S
O91 C95 1.246 . S
O92 Mg87 2.032 . S
O92 C95 1.259 . S
O93 Mg84 2.114 . S
O93 C96 1.252 . S
O94 Mg84 2.251 . S
O94 Mg87 2.079 . S
O94 C96 1.273 . S
C95 O91 1.246 . S
C95 O92 1.259 . S
C96 O93 1.252 . S
C96 O94 1.273 . S
O97 Mg84 2.010 . S
O97 C89 1.249 1_655 S
Mg98 O99 2.028 . S
Mg98 O105 1.986 . S
Mg98 O107 2.114 . S
Mg98 O108 2.251 . S
Mg98 O111 2.010 . S
O99 Mg98 2.028 . S
O99 C102 1.250 . S
O100 Mg101 2.028 . S
O100 C102 1.248 . S
Mg101 O100 2.028 . S
Mg101 O106 2.032 . S
Mg101 O108 2.079 . S
C102 O99 1.250 . S
C102 O100 1.248 . S
C103 O104 1.261 1_556 S
C103 O111 1.249 1_545 S
O104 C103 1.261 1_554 S
O105 Mg98 1.986 . S
O105 C109 1.246 . S
O106 Mg101 2.032 . S
O106 C109 1.259 . S
O107 Mg98 2.114 . S
O107 C110 1.252 . S
O108 Mg98 2.251 . S
O108 Mg101 2.079 . S
O108 C110 1.273 . S
C109 O105 1.246 . S
C109 O106 1.259 . S
C110 O107 1.252 . S
C110 O108 1.273 . S
O111 Mg98 2.010 . S
O111 C103 1.249 1_565 S
Mg112 O113 2.028 . S
Mg112 O119 1.986 . S
Mg112 O121 2.114 . S
Mg112 O122 2.251 . S
Mg112 O125 2.010 . S
O113 Mg112 2.028 . S
O113 C116 1.250 . S
O114 Mg115 2.028 . S
O114 C116 1.248 . S
Mg115 O114 2.028 . S
Mg115 O120 2.032 . S
Mg115 O122 2.079 . S
C116 O113 1.250 . S
C116 O114 1.248 . S
C117 O118 1.264 . S
C117 O125 1.249 . S
O118 C117 1.264 . S
O119 Mg112 1.986 . S
O119 C123 1.246 . S
O120 Mg115 2.032 . S
O120 C123 1.259 . S
O121 Mg112 2.114 . S
O121 C124 1.252 . S
O122 Mg112 2.251 . S
O122 Mg115 2.079 . S
O122 C124 1.273 . S
C123 O119 1.246 . S
C123 O120 1.259 . S
C124 O121 1.252 . S
C124 O122 1.273 . S
O125 Mg112 2.010 . S
O125 C117 1.249 . S
Mg126 O127 2.028 . S
Mg126 O133 1.986 . S
Mg126 O135 2.114 . S
Mg126 O136 2.251 . S
Mg126 O139 2.010 . S
O127 Mg126 2.028 . S
O127 C130 1.250 . S
O128 Mg129 2.028 . S
O128 C130 1.248 . S
Mg129 O128 2.028 . S
Mg129 O134 2.032 . S
Mg129 O136 2.079 . S
C130 O127 1.250 . S
C130 O128 1.248 . S
C131 O132 1.264 . S
C131 O139 1.249 1_655 S
O132 C131 1.264 . S
O133 Mg126 1.986 . S
O133 C137 1.246 . S
O134 Mg129 2.032 . S
O134 C137 1.259 . S
O135 Mg126 2.114 . S
O135 C138 1.252 . S
O136 Mg126 2.251 . S
O136 Mg129 2.079 . S
O136 C138 1.273 . S
C137 O133 1.246 . S
C137 O134 1.259 . S
C138 O135 1.252 . S
C138 O136 1.273 . S
O139 Mg126 2.010 . S
O139 C131 1.249 1_455 S
Mg140 O141 2.028 . S
Mg140 O147 1.986 . S
Mg140 O149 2.114 . S
Mg140 O150 2.251 . S
Mg140 O153 2.010 . S
O141 Mg140 2.028 . S
O141 C144 1.250 . S
O142 Mg143 2.028 . S
O142 C144 1.248 . S
Mg143 O142 2.028 . S
Mg143 O148 2.032 . S
Mg143 O150 2.079 . S
C144 O141 1.250 . S
C144 O142 1.248 . S
C145 O146 1.264 . S
C145 O153 1.249 1_565 S
O146 C145 1.264 . S
O147 Mg140 1.986 . S
O147 C151 1.246 . S
O148 Mg143 2.032 . S
O148 C151 1.259 . S
O149 Mg140 2.114 . S
O149 C152 1.252 . S
O150 Mg140 2.251 . S
O150 Mg143 2.079 . S
O150 C152 1.273 . S
C151 O147 1.246 . S
C151 O148 1.259 . S
C152 O149 1.252 . S
C152 O150 1.273 . S
O153 Mg140 2.010 . S
O153 C145 1.249 1_545 S
Mg154 O155 2.028 . S
Mg154 O161 1.986 . S
Mg154 O163 2.114 . S
Mg154 O164 2.251 . S
Mg154 O167 2.010 . S
O155 Mg154 2.028 . S
O155 C158 1.250 . S
O156 Mg157 2.028 . S
O156 C158 1.248 . S
Mg157 O156 2.028 . S
Mg157 O162 2.032 . S
Mg157 O164 2.079 . S
C158 O155 1.250 . S
C158 O156 1.248 . S
C159 O160 1.264 . S
C159 O167 1.249 . S
O160 C159 1.264 . S
O161 Mg154 1.986 . S
O161 C165 1.246 . S
O162 Mg157 2.032 . S
O162 C165 1.259 . S
O163 Mg154 2.114 . S
O163 C166 1.252 . S
O164 Mg154 2.251 . S
O164 Mg157 2.079 . S
O164 C166 1.273 . S
C165 O161 1.246 . S
C165 O162 1.259 . S
C166 O163 1.252 . S
C166 O164 1.273 . S
O167 Mg154 2.010 . S
O167 C159 1.249 . S
C151 C11 1.307 . S
C25 C165 1.125 . S
C39 C95 1.307 . S
C109 C53 1.307 . S
C123 C67 1.125 . S
C81 C137 1.307 . S
C5 C103 1.344 1_564 S
C19 C117 0.967 . S
C131 C33 1.344 1_656 S
C145 C47 1.344 1_565 S
C159 C61 0.967 1_556 S
C89 C75 1.344 1_455 S
C12 C60 0.921 . S
C26 C74 1.193 . S
C40 C4 1.118 . S
C54 C18 0.921 . S
C68 C32 1.193 . S
C82 C46 1.118 . S
C96 C116 0.922 . S
C110 C130 1.118 . S
C144 C124 1.194 . S
C138 C158 0.921 . S
C152 C88 1.118 . S
C166 C102 1.193 . S
