# Generated by pormake.
# Topology bsn, (6)-cn, num edge types: 1
# Building blocks:
#     Node 0, Type 0, BuildingBlock: BETDEL_clean_sbu_0, # of connection points: 6
#     Node 1, Type 0, BuildingBlock: BETDEL_clean_sbu_0, # of connection points: 6
#     Node 2, Type 0, BuildingBlock: BETDEL_clean_sbu_0, # of connection points: 6
#     Node 3, Type 0, BuildingBlock: BETDEL_clean_sbu_0, # of connection points: 6
#     Edge 4, Type (0, 0), None
#     Edge 5, Type (0, 0), None
#     Edge 6, Type (0, 0), None
#     Edge 7, Type (0, 0), None
#     Edge 8, Type (0, 0), None
#     Edge 9, Type (0, 0), None
#     Edge 10, Type (0, 0), None
#     Edge 11, Type (0, 0), None
#     Edge 12, Type (0, 0), None
#     Edge 13, Type (0, 0), None
#     Edge 14, Type (0, 0), None
#     Edge 15, Type (0, 0), None
# Relax obj value: 0.370
# Max RMSD: 0.254
# Mean RMSD: 0.254
data_MOF--net-bsn--node1-BETDEL_clean_sbu_0--edge1-none
_symmetry_space_group_name_H-M    P1
_symmetry_Int_Tables_number       1
_symmetry_cell_setting            triclinic
loop_
_symmetry_equiv_pos_as_xyz
'x, y, z'
_cell_length_a     16.628972
_cell_length_b     16.712544
_cell_length_c     6.1260699
_cell_angle_alpha  94.658324
_cell_angle_beta   89.90563
_cell_angle_gamma 90.135915
loop_
_atom_site_label
_atom_site_type_symbol
_atom_site_fract_x
_atom_site_fract_y
_atom_site_fract_z
_atom_type_partial_charge
Dy0 Dy 0.11099 0.25046 0.36298 0.0
C1 C 0.76096 0.26555 0.32449 0.0
C2 C 0.26439 0.25452 0.20621 0.0
Dy3 Dy 0.92476 0.26093 0.34987 0.0
O4 O 0.23888 0.20881 0.3538 0.0
O5 O 0.20659 0.29986 0.14616 0.0
O6 O 0.11587 0.2255 0.71939 0.0
O7 O 0.01772 0.28687 0.59501 0.0
C8 C 0.04312 0.25236 0.75539 0.0
C9 C 1.00164 0.25636 0.96372 0.0
O10 O 0.95545 0.38623 0.48278 0.0
O11 O 0.0905 0.38532 0.38185 0.0
O12 O 0.80779 0.32773 0.33528 0.0
O13 O 0.80302 0.20084 0.34187 0.0
O14 O 0.93543 0.29444 0.00253 0.0
O15 O 0.01974 0.21766 0.12212 0.0
O16 O 0.07305 0.1208 0.33735 0.0
O17 O 0.94372 0.14014 0.47833 0.0
C18 C 0.02422 0.42412 0.45074 0.0
C19 C 1.00748 0.09406 0.43271 0.0
Dy20 Dy 1.01383 0.85979 0.63646 0.0
C21 C 0.02723 0.51013 0.5137 0.0
C22 C 1.00791 0.0118 0.50149 0.0
Dy23 Dy 0.01925 0.67254 0.57471 0.0
O24 O 0.05732 0.95608 0.42749 0.0
O25 O 0.96293 0.98557 0.65469 0.0
O26 O 0.03892 0.86557 -0.00173 0.0
O27 O 0.98414 0.76311 0.83416 0.0
C28 C 0.01528 0.79142 0.01097 0.0
C29 C 1.01286 0.75038 0.21036 0.0
O30 O 0.89118 0.69158 0.66886 0.0
O31 O 0.88215 0.82388 0.57955 0.0
O32 O 0.08506 0.55822 0.46738 0.0
O33 O 0.96779 0.55016 0.60583 0.0
O34 O 0.98006 0.68113 0.22563 0.0
O35 O 0.0512 0.77133 0.3806 0.0
O36 O 0.14479 0.8354 0.70188 0.0
O37 O 0.13691 0.69736 0.74268 0.0
C38 C 0.84817 0.75566 0.63285 0.0
C39 C 0.17637 0.76661 0.75745 0.0
Dy40 Dy 0.61097 0.75045 0.86296 0.0
C41 C 0.26098 0.76553 0.82415 0.0
C42 C 0.76438 0.75455 0.70632 0.0
Dy43 Dy 0.42475 0.76092 0.84985 0.0
O44 O 0.73886 0.70883 0.85389 0.0
O45 O 0.70657 0.79985 0.64615 0.0
O46 O 0.61585 0.72547 0.21934 0.0
O47 O 0.51771 0.78686 0.095 0.0
C48 C 0.54311 0.75235 0.25536 0.0
C49 C 0.50163 0.75635 0.4637 0.0
O50 O 0.45544 0.88622 -0.01722 0.0
O51 O 0.59049 0.8853 0.8818 0.0
O52 O 0.30779 0.82773 0.83511 0.0
O53 O 0.30301 0.70083 0.84181 0.0
O54 O 0.43543 0.79445 0.50252 0.0
O55 O 0.51973 0.71764 0.62209 0.0
O56 O 0.57304 0.62079 0.83728 0.0
O57 O 0.44371 0.64012 0.97828 0.0
C58 C 0.52421 0.92411 0.95071 0.0
C59 C 0.50747 0.59404 0.93265 0.0
Dy60 Dy 0.51384 0.35977 0.13642 0.0
C61 C 0.52723 1.01012 0.01367 0.0
C62 C 0.5079 0.51179 0.00143 0.0
Dy63 Dy 0.51926 0.17253 0.07468 0.0
O64 O 0.55732 0.45606 0.92743 0.0
O65 O 0.46293 0.48556 0.15465 0.0
O66 O 0.53891 0.36556 0.49824 0.0
O67 O 0.48414 0.2631 0.33412 0.0
C68 C 0.51527 0.29141 0.51094 0.0
C69 C 0.51287 0.25037 0.71032 0.0
O70 O 0.39118 0.19156 0.16877 0.0
O71 O 0.38216 0.32388 0.07955 0.0
O72 O 0.58506 0.05821 0.96732 0.0
O73 O 0.4678 0.05016 0.10583 0.0
O74 O 0.48008 0.18111 0.72559 0.0
O75 O 0.55121 0.27131 0.88056 0.0
O76 O 0.64479 0.3354 0.20195 0.0
O77 O 0.63692 0.19735 0.24268 0.0
C78 C 0.34818 0.25564 0.13271 0.0
C79 C 0.67637 0.26661 0.25755 0.0
loop_
_geom_bond_atom_site_label_1
_geom_bond_atom_site_label_2
_geom_bond_distance
_geom_bond_site_symmetry_2
_ccdc_geom_bond_type
Dy0 O4 2.398 . S
Dy0 O5 2.491 . S
Dy0 O6 2.403 . S
Dy0 O7 2.664 1_455 S
Dy0 O11 2.326 . S
Dy0 O15 2.310 . S
Dy0 O16 2.351 . S
C1 O12 1.185 . S
C1 O13 1.355 . S
C2 O4 1.185 . S
C2 O5 1.355 . S
Dy3 O7 2.310 . S
Dy3 O10 2.351 . S
Dy3 O12 2.398 . S
Dy3 O13 2.491 . S
Dy3 O14 2.403 1_554 S
Dy3 O15 2.664 1_655 S
Dy3 O17 2.326 . S
O4 Dy0 2.398 . S
O4 C2 1.185 . S
O5 Dy0 2.491 . S
O5 C2 1.355 . S
O6 Dy0 2.403 . S
O6 C8 1.254 . S
O7 Dy0 2.664 1_655 S
O7 Dy3 2.310 . S
O7 C8 1.268 1_655 S
C8 O6 1.254 . S
C8 O7 1.268 1_455 S
C9 O14 1.254 . S
C9 O15 1.268 1_656 S
O10 Dy3 2.351 . S
O10 C18 1.249 1_655 S
O11 Dy0 2.326 . S
O11 C18 1.267 . S
O12 C1 1.185 . S
O12 Dy3 2.398 . S
O13 C1 1.355 . S
O13 Dy3 2.491 . S
O14 Dy3 2.403 1_556 S
O14 C9 1.254 . S
O15 Dy0 2.310 . S
O15 Dy3 2.664 1_455 S
O15 C9 1.268 1_454 S
O16 Dy0 2.351 . S
O16 C19 1.249 1_455 S
O17 Dy3 2.326 . S
O17 C19 1.267 . S
C18 O10 1.249 1_455 S
C18 O11 1.267 . S
C19 O16 1.249 1_655 S
C19 O17 1.267 . S
Dy20 O24 2.398 1_455 S
Dy20 O25 2.491 1_455 S
Dy20 O26 2.403 1_556 S
Dy20 O27 2.664 . S
Dy20 O31 2.326 1_455 S
Dy20 O35 2.310 1_455 S
Dy20 O36 2.351 . S
C21 O32 1.185 . S
C21 O33 1.355 . S
C22 O24 1.185 1_545 S
C22 O25 1.355 1_545 S
Dy23 O27 2.310 1_655 S
Dy23 O30 2.351 . S
Dy23 O32 2.398 1_655 S
Dy23 O33 2.491 1_655 S
Dy23 O34 2.403 . S
Dy23 O35 2.664 . S
Dy23 O37 2.326 1_655 S
O24 Dy20 2.398 1_655 S
O24 C22 1.185 1_565 S
O25 Dy20 2.491 1_655 S
O25 C22 1.355 1_565 S
O26 Dy20 2.403 1_554 S
O26 C28 1.254 . S
O27 Dy20 2.664 . S
O27 Dy23 2.310 1_455 S
O27 C28 1.268 1_556 S
C28 O26 1.254 . S
C28 O27 1.268 1_554 S
C29 O34 1.254 . S
C29 O35 1.268 . S
O30 Dy23 2.351 . S
O30 C38 1.249 . S
O31 Dy20 2.326 1_655 S
O31 C38 1.267 . S
O32 C21 1.185 . S
O32 Dy23 2.398 1_455 S
O33 C21 1.355 . S
O33 Dy23 2.491 1_455 S
O34 Dy23 2.403 . S
O34 C29 1.254 . S
O35 Dy20 2.310 1_655 S
O35 Dy23 2.664 . S
O35 C29 1.268 . S
O36 Dy20 2.351 . S
O36 C39 1.249 . S
O37 Dy23 2.326 1_455 S
O37 C39 1.267 . S
C38 O30 1.249 . S
C38 O31 1.267 . S
C39 O36 1.249 . S
C39 O37 1.267 . S
Dy40 O44 2.398 1_556 S
Dy40 O45 2.491 . S
Dy40 O46 2.403 1_556 S
Dy40 O47 2.664 1_556 S
Dy40 O51 2.326 . S
Dy40 O55 2.310 . S
Dy40 O56 2.351 . S
C41 O52 1.185 . S
C41 O53 1.355 1_556 S
C42 O44 1.185 1_556 S
C42 O45 1.355 . S
Dy43 O47 2.310 1_556 S
Dy43 O50 2.351 . S
Dy43 O52 2.398 . S
Dy43 O53 2.491 1_556 S
Dy43 O54 2.403 . S
Dy43 O55 2.664 . S
Dy43 O57 2.326 . S
O44 Dy40 2.398 1_554 S
O44 C42 1.185 1_554 S
O45 Dy40 2.491 . S
O45 C42 1.355 . S
O46 Dy40 2.403 1_554 S
O46 C48 1.254 . S
O47 Dy40 2.664 1_554 S
O47 Dy43 2.310 1_554 S
O47 C48 1.268 . S
C48 O46 1.254 . S
C48 O47 1.268 . S
C49 O54 1.254 . S
C49 O55 1.268 . S
O50 Dy43 2.351 . S
O50 C58 1.249 . S
O51 Dy40 2.326 . S
O51 C58 1.267 . S
O52 C41 1.185 . S
O52 Dy43 2.398 . S
O53 C41 1.355 1_554 S
O53 Dy43 2.491 1_554 S
O54 Dy43 2.403 . S
O54 C49 1.254 . S
O55 Dy40 2.310 . S
O55 Dy43 2.664 . S
O55 C49 1.268 . S
O56 Dy40 2.351 . S
O56 C59 1.249 . S
O57 Dy43 2.326 . S
O57 C59 1.267 . S
C58 O50 1.249 . S
C58 O51 1.267 . S
C59 O56 1.249 . S
C59 O57 1.267 . S
Dy60 O64 2.398 . S
Dy60 O65 2.491 1_554 S
Dy60 O66 2.403 . S
Dy60 O67 2.664 . S
Dy60 O71 2.326 . S
Dy60 O75 2.310 1_554 S
Dy60 O76 2.351 . S
C61 O72 1.185 1_564 S
C61 O73 1.355 1_565 S
C62 O64 1.185 . S
C62 O65 1.355 1_554 S
Dy63 O67 2.310 . S
Dy63 O70 2.351 . S
Dy63 O72 2.398 1_554 S
Dy63 O73 2.491 . S
Dy63 O74 2.403 1_554 S
Dy63 O75 2.664 1_554 S
Dy63 O77 2.326 . S
O64 Dy60 2.398 . S
O64 C62 1.185 . S
O65 Dy60 2.491 1_556 S
O65 C62 1.355 1_556 S
O66 Dy60 2.403 . S
O66 C68 1.254 . S
O67 Dy60 2.664 . S
O67 Dy63 2.310 . S
O67 C68 1.268 . S
C68 O66 1.254 . S
C68 O67 1.268 . S
C69 O74 1.254 . S
C69 O75 1.268 . S
O70 Dy63 2.351 . S
O70 C78 1.249 . S
O71 Dy60 2.326 . S
O71 C78 1.267 . S
O72 C61 1.185 1_546 S
O72 Dy63 2.398 1_556 S
O73 C61 1.355 1_545 S
O73 Dy63 2.491 . S
O74 Dy63 2.403 1_556 S
O74 C69 1.254 . S
O75 Dy60 2.310 1_556 S
O75 Dy63 2.664 1_556 S
O75 C69 1.268 . S
O76 Dy60 2.351 . S
O76 C79 1.249 . S
O77 Dy63 2.326 . S
O77 C79 1.267 . S
C78 O70 1.249 . S
C78 O71 1.267 . S
C79 O76 1.249 . S
C79 O77 1.267 . S
C18 C21 1.995 . S
C42 C38 2.070 . S
C62 C59 2.369 1_554 S
C1 C79 2.292 . S
C78 C2 2.070 . S
C41 C39 2.292 . S
C58 C61 1.995 1_556 S
C22 C19 2.369 . S
C9 C8 0.981 1_655 S
C28 C29 1.085 1_455 S
C48 C49 0.981 . S
C68 C69 1.085 . S
