# Generated by pormake.
# Topology pcu, (6)-cn, num edge types: 1
# Building blocks:
#     Node 0, Type 0, BuildingBlock: CUKXOW_clean_sbu_0, # of connection points: 6
#     Edge 1, Type (0, 0), BuildingBlock: UKIBUN_clean_linker_0, # of connection points: 2
#     Edge 2, Type (0, 0), BuildingBlock: UKIBUN_clean_linker_0, # of connection points: 2
#     Edge 3, Type (0, 0), BuildingBlock: UKIBUN_clean_linker_0, # of connection points: 2
# Relax obj value: 0.000
# Max RMSD: 0.000
# Mean RMSD: 0.000
data_MOF--net-pcu--node1-CUKXOW_clean_sbu_0--edge1-UKIBUN_clean_linker_0
_symmetry_space_group_name_H-M    P1
_symmetry_Int_Tables_number       1
_symmetry_cell_setting            triclinic
loop_
_symmetry_equiv_pos_as_xyz
'x, y, z'
_cell_length_a     23.5466
_cell_length_b     27.585198
_cell_length_c     24.895953
_cell_angle_alpha  84.332855
_cell_angle_beta   105.80003
_cell_angle_gamma 124.24576
loop_
_atom_site_label
_atom_site_type_symbol
_atom_site_fract_x
_atom_site_fract_y
_atom_site_fract_z
_atom_type_partial_charge
Tb0 Tb 0.03799 0.06059 -0.00241 0.0
C1 C 1.00605 -0.00435 0.88614 0.0
Tb2 Tb 0.98415 0.92892 0.99685 0.0
O3 O 0.14538 0.09106 0.99438 0.0
O4 O 0.08225 0.01045 0.02473 0.0
O5 O 1.00497 0.03715 0.90796 0.0
C6 C 0.98083 0.83042 0.99673 0.0
O7 O 1.00755 0.95362 0.91595 0.0
C8 C 0.8844 0.94868 0.98447 0.0
C9 C 0.01214 0.9919 0.10746 0.0
O10 O 0.98235 0.86195 0.95428 0.0
O11 O 0.97926 0.85346 0.03867 0.0
O12 O 0.87558 0.89852 -0.00229 0.0
O13 O 0.94066 0.97922 0.96892 0.0
O14 O 0.01503 0.95144 0.08604 0.0
O15 O 0.01168 0.03442 0.07779 0.0
C16 C 0.0437 0.15979 0.0022 0.0
O17 O 0.04531 0.12825 0.04396 0.0
O18 O 0.04065 0.13641 0.95798 0.0
C19 C 0.13778 0.0414 0.00791 0.0
C20 C 0.9879 0.02249 0.18548 0.0
C21 C 1.00605 0.98821 0.16564 0.0
C22 C 0.97761 0.01654 0.23907 0.0
C23 C 0.93922 0.99442 0.45011 0.0
C24 C 0.01325 0.95504 0.80475 0.0
C25 C 1.00181 0.99347 0.82592 0.0
C26 C 1.00464 0.94923 0.74754 0.0
C27 C 0.97233 0.92488 0.52348 0.0
H28 H 0.98022 0.05315 0.15925 0.0
H29 H 0.96279 0.04284 0.25322 0.0
H30 H 0.92727 0.02212 0.42228 0.0
H31 H 0.02817 0.92882 0.83229 0.0
H32 H 0.01293 0.91885 0.73219 0.0
H33 H 0.98611 0.89837 0.55168 0.0
C34 C 0.01509 0.94871 0.20114 0.0
C35 C 1.00514 0.94307 0.25489 0.0
C36 C 0.97222 0.92424 0.46732 0.0
C37 C 0.98365 0.02735 0.78865 0.0
C38 C 0.97485 0.02131 0.7312 0.0
C39 C 0.9393 0.99503 0.50621 0.0
C40 C 0.98563 0.9765 0.27374 0.0
C41 C 0.9739 0.96972 0.32861 0.0
C42 C 0.96411 0.96395 0.37458 0.0
C43 C 0.95694 0.95985 0.43075 0.0
H44 H 0.02936 0.92185 0.18734 0.0
H45 H 0.01205 0.91225 0.28152 0.0
H46 H 0.98593 0.89727 0.45285 0.0
H47 H 0.97469 0.05744 0.8036 0.0
H48 H 0.95969 0.047 0.70292 0.0
H49 H 0.92737 0.02317 0.52098 0.0
C50 C 0.98447 0.98168 0.71052 0.0
C51 C 0.97332 0.97379 0.65138 0.0
C52 C 0.96423 0.96659 0.60201 0.0
C53 C 0.95712 0.96112 0.54326 0.0
C54 C 0.16614 0.96607 0.00315 0.0
C55 C 0.18371 0.02398 -0.00149 0.0
C56 C 0.21031 0.95138 0.99189 0.0
C57 C 0.43158 0.93246 0.95968 0.0
C58 C 0.84872 0.02074 0.97295 0.0
C59 C 0.83303 0.96387 0.98322 0.0
C60 C 0.79725 0.03273 0.96946 0.0
C61 C 0.55211 0.04158 0.94821 0.0
H62 H 0.11876 0.93246 0.01553 0.0
H63 H 0.1962 0.90664 0.99573 0.0
H64 H 0.38563 0.89018 0.9649 0.0
H65 H 0.90004 0.05545 0.96683 0.0
H66 H 0.80958 0.07643 0.96061 0.0
H67 H 0.59859 0.08411 0.94428 0.0
C68 C 0.24598 0.0666 0.98262 0.0
C69 C 0.29021 0.0522 0.97212 0.0
C70 C 0.48952 0.03687 0.94752 0.0
C71 C 0.76641 0.92014 0.99204 0.0
C72 C 0.71512 0.93193 0.98807 0.0
C73 C 0.49414 0.93717 0.96032 0.0
C74 C 0.27283 0.99473 0.9767 0.0
C75 C 0.3218 0.98236 0.96804 0.0
C76 C 0.36797 0.97933 0.95974 0.0
C77 C 0.42943 0.98249 0.95423 0.0
H78 H 0.26098 0.11153 0.9786 0.0
H79 H 0.33844 0.08627 0.96073 0.0
H80 H 0.48868 0.07595 0.94327 0.0
H81 H 0.75314 0.87618 0.00066 0.0
H82 H 0.66337 0.8969 0.99345 0.0
H83 H 0.49552 0.89834 0.96583 0.0
C84 C 0.72966 0.98778 0.97571 0.0
C85 C 0.67321 -0.00322 0.96701 0.0
C86 C 0.62085 -0.0028 0.96101 0.0
C87 C 0.555 0.99194 0.95565 0.0
C88 C 0.02936 0.78177 0.96431 0.0
C89 C 0.99462 0.78429 0.00069 0.0
C90 C 0.04736 0.74073 0.97066 0.0
C91 C 0.09097 0.56046 0.9913 0.0
C92 C 0.01217 0.21662 0.04465 0.0
C93 C 0.03956 0.21081 0.00394 0.0
C94 C 0.01061 0.2661 0.04809 0.0
C95 C 0.0271 0.47416 0.0644 0.0
H96 H 0.04391 0.8123 0.93178 0.0
H97 H 0.07435 0.73945 0.94239 0.0
H98 H 0.11483 0.59316 0.96225 0.0
H99 H 0.99226 0.18301 0.07393 0.0
H100 H 0.99016 0.27025 0.08022 0.0
H101 H 1.00164 0.44082 0.09247 0.0
C102 C 0.97841 0.74546 0.04359 0.0
C103 C 0.99556 0.70394 0.04942 0.0
C104 C 0.02959 0.526 0.06473 0.0
C105 C 0.06277 0.25398 0.96531 0.0
C106 C 0.06222 0.30394 0.96934 0.0
C107 C 0.08851 0.50866 0.99098 0.0
C108 C 0.03004 0.70147 0.013 0.0
C109 C 0.0445 0.65685 0.01775 0.0
C110 C 0.05547 0.6187 0.02339 0.0
C111 C 0.06051 0.56882 0.02756 0.0
H112 H 0.95232 0.7471 0.07244 0.0
H113 H 0.98172 0.67366 0.08222 0.0
H114 H 1.00567 0.53191 0.09286 0.0
H115 H 0.08338 0.25002 0.93323 0.0
H116 H 0.08261 0.3379 0.94044 0.0
H117 H 0.11087 0.50213 0.96188 0.0
C118 C 0.03737 0.31059 0.01138 0.0
C119 C 0.04281 0.36432 0.01852 0.0
C120 C 0.04822 0.40991 0.02323 0.0
C121 C 0.05544 0.46495 0.0268 0.0
loop_
_geom_bond_atom_site_label_1
_geom_bond_atom_site_label_2
_geom_bond_distance
_geom_bond_site_symmetry_2
_ccdc_geom_bond_type
Tb0 O3 2.453 . S
Tb0 O4 2.596 1_545 S
Tb0 O5 2.374 1_554 S
Tb0 O13 2.343 1_454 S
Tb0 O15 2.353 . S
Tb0 O17 2.427 . S
Tb0 O18 2.513 1_554 S
C1 O5 1.251 1_655 S
C1 O7 1.263 1_545 S
Tb2 O4 2.343 1_656 S
Tb2 O7 2.353 . S
Tb2 O10 2.427 . S
Tb2 O11 2.513 1_556 S
Tb2 O12 2.453 . S
Tb2 O13 2.596 1_565 S
Tb2 O14 2.374 1_556 S
O3 Tb0 2.453 . S
O3 C19 1.245 . S
O4 Tb0 2.596 1_565 S
O4 Tb2 2.343 1_454 S
O4 C19 1.259 1_565 S
O5 Tb0 2.374 1_556 S
O5 C1 1.251 1_455 S
C6 O10 1.273 1_554 S
C6 O11 1.247 . S
O7 C1 1.263 1_565 S
O7 Tb2 2.353 . S
C8 O12 1.245 . S
C8 O13 1.259 1_565 S
C9 O14 1.250 1_455 S
C9 O15 1.263 1_565 S
O10 Tb2 2.427 . S
O10 C6 1.273 1_556 S
O11 Tb2 2.513 1_554 S
O11 C6 1.247 . S
O12 Tb2 2.453 . S
O12 C8 1.245 . S
O13 Tb0 2.343 1_656 S
O13 Tb2 2.596 1_545 S
O13 C8 1.259 1_545 S
O14 Tb2 2.374 1_554 S
O14 C9 1.250 1_655 S
O15 Tb0 2.353 . S
O15 C9 1.263 1_545 S
C16 O17 1.273 . S
C16 O18 1.247 1_554 S
O17 Tb0 2.427 . S
O17 C16 1.273 . S
O18 Tb0 2.513 1_556 S
O18 C16 1.247 1_556 S
C19 O3 1.245 . S
C19 O4 1.259 1_545 S
C20 C21 1.420 1_545 S
C20 C22 1.385 . S
C20 H28 0.928 . S
C21 C20 1.420 1_565 S
C21 C34 1.420 1_655 S
C22 C20 1.385 . S
C22 H29 0.929 . S
C22 C40 1.407 1_545 S
C23 H30 0.928 1_565 S
C23 C39 1.374 . S
C23 C43 1.388 . S
C24 C25 1.420 1_455 S
C24 C26 1.385 1_455 S
C24 H31 0.928 . S
C25 C24 1.420 1_655 S
C25 C37 1.420 1_565 S
C26 C24 1.385 1_655 S
C26 H32 0.929 1_655 S
C26 C50 1.407 . S
C27 H33 0.928 . S
C27 C36 1.374 . S
C27 C53 1.388 . S
H28 C20 0.928 . S
H29 C22 0.929 . S
H30 C23 0.928 1_545 S
H31 C24 0.928 . S
H32 C26 0.929 1_455 S
H33 C27 0.928 . S
C34 C21 1.420 1_455 S
C34 C35 1.385 1_455 S
C34 H44 0.928 . S
C35 C34 1.385 1_655 S
C35 C40 1.407 . S
C35 H45 0.929 1_655 S
C36 C27 1.374 . S
C36 C43 1.388 . S
C36 H46 0.928 . S
C37 C25 1.420 1_545 S
C37 C38 1.385 . S
C37 H47 0.928 . S
C38 C37 1.385 . S
C38 H48 0.929 . S
C38 C50 1.407 1_545 S
C39 C23 1.374 . S
C39 H49 0.928 1_565 S
C39 C53 1.388 . S
C40 C22 1.407 1_565 S
C40 C35 1.407 . S
C40 C41 1.428 . S
C41 C40 1.428 . S
C41 C42 1.230 . S
C42 C41 1.230 . S
C42 C43 1.405 . S
C43 C23 1.388 . S
C43 C36 1.388 . S
C43 C42 1.405 . S
H44 C34 0.928 . S
H45 C35 0.929 1_455 S
H46 C36 0.928 . S
H47 C37 0.928 . S
H48 C38 0.929 . S
H49 C39 0.928 1_545 S
C50 C26 1.407 . S
C50 C38 1.407 1_565 S
C50 C51 1.428 . S
C51 C50 1.428 . S
C51 C52 1.230 . S
C52 C51 1.230 . S
C52 C53 1.405 . S
C53 C27 1.388 . S
C53 C39 1.388 . S
C53 C52 1.405 . S
C54 C55 1.426 . S
C54 C56 1.385 . S
C54 H62 0.928 1_556 S
C55 C54 1.426 . S
C55 C68 1.417 1_565 S
C56 C54 1.385 . S
C56 H63 0.929 . S
C56 C74 1.407 . S
C57 H64 0.928 . S
C57 C73 1.374 . S
C57 C77 1.388 . S
C58 C59 1.414 1_545 S
C58 C60 1.385 . S
C58 H65 0.928 . S
C59 C58 1.414 1_565 S
C59 C71 1.423 . S
C60 C58 1.385 . S
C60 H66 0.929 . S
C60 C84 1.407 1_545 S
C61 H67 0.928 . S
C61 C70 1.374 . S
C61 C87 1.388 1_545 S
H62 C54 0.928 1_554 S
H63 C56 0.929 . S
H64 C57 0.928 . S
H65 C58 0.928 . S
H66 C60 0.929 . S
H67 C61 0.928 . S
C68 C55 1.417 1_545 S
C68 C69 1.385 . S
C68 H78 0.928 . S
C69 C68 1.385 . S
C69 C74 1.407 1_545 S
C69 H79 0.929 . S
C70 C61 1.374 . S
C70 C77 1.388 1_545 S
C70 H80 0.928 . S
C71 C59 1.423 . S
C71 C72 1.385 . S
C71 H81 0.928 1_556 S
C72 C71 1.385 . S
C72 H82 0.929 . S
C72 C84 1.407 . S
C73 C57 1.374 . S
C73 H83 0.928 . S
C73 C87 1.388 . S
C74 C56 1.407 . S
C74 C69 1.407 1_565 S
C74 C75 1.428 . S
C75 C74 1.428 . S
C75 C76 1.230 . S
C76 C75 1.230 . S
C76 C77 1.405 . S
C77 C57 1.388 . S
C77 C70 1.388 1_565 S
C77 C76 1.405 . S
H78 C68 0.928 . S
H79 C69 0.929 . S
H80 C70 0.928 . S
H81 C71 0.928 1_554 S
H82 C72 0.929 . S
H83 C73 0.928 . S
C84 C60 1.407 1_565 S
C84 C72 1.407 . S
C84 C85 1.428 . S
C85 C84 1.428 . S
C85 C86 1.230 . S
C86 C85 1.230 . S
C86 C87 1.405 . S
C87 C61 1.388 1_565 S
C87 C73 1.388 . S
C87 C86 1.405 . S
C88 C89 1.420 1_556 S
C88 C90 1.385 . S
C88 H96 0.928 . S
C89 C88 1.420 1_554 S
C89 C102 1.420 1_455 S
C90 C88 1.385 . S
C90 H97 0.929 . S
C90 C108 1.407 1_556 S
C91 H98 0.928 . S
C91 C107 1.374 . S
C91 C111 1.388 1_556 S
C92 C93 1.420 1_655 S
C92 C94 1.385 . S
C92 H99 0.928 . S
C93 C92 1.420 1_455 S
C93 C105 1.420 1_554 S
C94 C92 1.385 . S
C94 H100 0.929 . S
C94 C118 1.407 1_655 S
C95 H101 0.928 . S
C95 C104 1.374 . S
C95 C121 1.388 . S
H96 C88 0.928 . S
H97 C90 0.929 . S
H98 C91 0.928 . S
H99 C92 0.928 . S
H100 C94 0.929 . S
H101 C95 0.928 . S
C102 C89 1.420 1_655 S
C102 C103 1.385 . S
C102 H112 0.928 . S
C103 C102 1.385 . S
C103 C108 1.407 1_655 S
C103 H113 0.929 . S
C104 C95 1.374 . S
C104 C111 1.388 . S
C104 H114 0.928 . S
C105 C93 1.420 1_556 S
C105 C106 1.385 . S
C105 H115 0.928 . S
C106 C105 1.385 . S
C106 H116 0.929 . S
C106 C118 1.407 1_556 S
C107 C91 1.374 . S
C107 H117 0.928 . S
C107 C121 1.388 1_556 S
C108 C90 1.407 1_554 S
C108 C103 1.407 1_455 S
C108 C109 1.428 . S
C109 C108 1.428 . S
C109 C110 1.230 . S
C110 C109 1.230 . S
C110 C111 1.405 . S
C111 C91 1.388 1_554 S
C111 C104 1.388 . S
C111 C110 1.405 . S
H112 C102 0.928 . S
H113 C103 0.929 . S
H114 C104 0.928 . S
H115 C105 0.928 . S
H116 C106 0.929 . S
H117 C107 0.928 . S
C118 C94 1.407 1_455 S
C118 C106 1.407 1_554 S
C118 C119 1.428 . S
C119 C118 1.428 . S
C119 C120 1.230 . S
C120 C119 1.230 . S
C120 C121 1.405 . S
C121 C95 1.388 . S
C121 C107 1.388 1_554 S
C121 C120 1.405 . S
C21 C9 1.490 1_655 S
C25 C1 1.483 1_565 S
C55 C19 1.447 1_566 S
C59 C8 1.442 . S
C89 C6 1.482 1_455 S
C93 C16 1.469 . S
