# Generated by pormake.
# Topology qtz-e, (6)-cn, num edge types: 1
# Building blocks:
#     Node 0, Type 0, BuildingBlock: JUFBIX_clean_sbu_0, # of connection points: 6
#     Node 1, Type 0, BuildingBlock: JUFBIX_clean_sbu_0, # of connection points: 6
#     Node 2, Type 0, BuildingBlock: JUFBIX_clean_sbu_0, # of connection points: 6
#     Node 3, Type 0, BuildingBlock: JUFBIX_clean_sbu_0, # of connection points: 6
#     Node 4, Type 0, BuildingBlock: JUFBIX_clean_sbu_0, # of connection points: 6
#     Node 5, Type 0, BuildingBlock: JUFBIX_clean_sbu_0, # of connection points: 6
#     Edge 6, Type (0, 0), None
#     Edge 7, Type (0, 0), None
#     Edge 8, Type (0, 0), None
#     Edge 9, Type (0, 0), None
#     Edge 10, Type (0, 0), None
#     Edge 11, Type (0, 0), None
#     Edge 12, Type (0, 0), None
#     Edge 13, Type (0, 0), None
#     Edge 14, Type (0, 0), None
#     Edge 15, Type (0, 0), None
#     Edge 16, Type (0, 0), None
#     Edge 17, Type (0, 0), None
#     Edge 18, Type (0, 0), None
#     Edge 19, Type (0, 0), None
#     Edge 20, Type (0, 0), None
#     Edge 21, Type (0, 0), None
#     Edge 22, Type (0, 0), None
#     Edge 23, Type (0, 0), None
# Relax obj value: 0.834
# Max RMSD: 0.327
# Mean RMSD: 0.327
data_MOF--net-qtz-e--node1-JUFBIX_clean_sbu_0--edge1-none
_symmetry_space_group_name_H-M    P1
_symmetry_Int_Tables_number       1
_symmetry_cell_setting            triclinic
loop_
_symmetry_equiv_pos_as_xyz
'x, y, z'
_cell_length_a     12.465995
_cell_length_b     12.46433
_cell_length_c     19.772387
_cell_angle_alpha  90.000679
_cell_angle_beta   90.000443
_cell_angle_gamma 119.99952
loop_
_atom_site_label
_atom_site_type_symbol
_atom_site_fract_x
_atom_site_fract_y
_atom_site_fract_z
_atom_type_partial_charge
Co0 Co 0.17613 0.5513 0.20947 0.0
C1 C 0.33061 0.44945 0.21366 0.0
Co2 Co 0.09363 0.35437 0.1771 0.0
C3 C 0.23907 0.72021 0.30679 0.0
C4 C 0.39308 0.7698 0.24216 0.0
N5 N 0.26717 0.70939 0.2434 0.0
N6 N 0.33677 0.75555 0.34726 0.0
C7 C 0.43599 0.79083 0.30768 0.0
H8 H 0.14471 0.68076 0.32497 0.0
H9 H 0.44756 0.77315 0.19872 0.0
C10 C 0.96242 0.49126 0.16183 0.0
N11 N 0.03554 0.20039 0.12386 0.0
C12 C 0.10838 0.18203 0.07781 0.0
C13 C 0.92215 0.10069 0.1137 0.0
N14 N 0.04528 0.07741 0.03972 0.0
C15 C 0.92795 0.02541 0.0631 0.0
C16 C 0.03221 0.35628 0.31238 0.0
O17 O 0.04806 0.5718 0.19735 0.0
O18 O 0.95613 0.38556 0.15007 0.0
O19 O 0.00861 0.27842 0.26387 0.0
O20 O 0.10744 0.47179 0.30017 0.0
O21 O 0.23615 0.34379 0.20154 0.0
H22 H 0.83913 0.08557 0.13944 0.0
H23 H 0.20628 0.24636 0.0712 0.0
O24 O 0.31638 0.5402 0.22088 0.0
O25 O 0.22672 0.61757 0.12178 0.0
O26 O 0.16964 0.42514 0.09978 0.0
C27 C 0.20981 0.53371 0.08017 0.0
H28 H 0.53067 0.82838 0.32473 0.0
H29 H 0.85042 0.94125 0.04349 0.0
Co30 Co 0.81647 0.37142 0.48223 0.0
C31 C 0.66201 0.11506 0.47804 0.0
Co32 Co 0.89898 0.25701 0.5146 0.0
C33 C 0.7535 0.47739 0.38492 0.0
C34 C 0.5995 0.3729 0.44956 0.0
N35 N 0.72541 0.43843 0.44831 0.0
N36 N 0.65577 0.41505 0.34446 0.0
C37 C 0.55656 0.35107 0.38404 0.0
H38 H 0.84785 0.5323 0.36674 0.0
H39 H 0.54504 0.32174 0.49299 0.0
C40 C 0.03015 0.52513 0.52988 0.0
N41 N 0.9571 0.16115 0.56785 0.0
C42 C 0.88428 0.06996 0.6139 0.0
C43 C 0.0705 0.17488 0.578 0.0
N44 N 0.9474 0.02848 0.652 0.0
C45 C 0.06472 0.09382 0.62861 0.0
C46 C 0.96043 0.32039 0.37932 0.0
O47 O 0.94453 0.52002 0.49435 0.0
O48 O 0.03644 0.42571 0.54164 0.0
O49 O 0.98401 0.26611 0.42783 0.0
O50 O 0.88518 0.36063 0.39152 0.0
O51 O 0.75648 0.10388 0.49016 0.0
H52 H 0.1535 0.24278 0.55226 0.0
H53 H 0.78638 0.03638 0.62052 0.0
O54 O 0.67625 0.22005 0.47082 0.0
O55 O 0.76589 0.3871 0.56991 0.0
O56 O 0.82295 0.25174 0.59192 0.0
C57 C 0.7828 0.32015 0.61152 0.0
H58 H 0.46188 0.29393 0.36699 0.0
H59 H 0.14226 0.08722 0.64822 0.0
Co60 Co 0.42901 0.59658 0.87617 0.0
C61 C 0.53097 0.85296 0.88036 0.0
Co62 Co 0.6259 0.71096 0.84381 0.0
C63 C 0.25988 0.49049 0.97342 0.0
C64 C 0.21062 0.59527 0.90884 0.0
N65 N 0.27094 0.52968 0.91007 0.0
N66 N 0.22426 0.55262 1.01389 0.0
C67 C 0.18933 0.6169 0.97435 0.0
H68 H 0.29937 0.43561 0.9916 0.0
H69 H 0.2075 0.64662 0.86544 0.0
C70 C 0.4889 0.44282 0.8285 0.0
N71 N 0.77989 0.80677 0.79057 0.0
C72 C 0.79827 0.89796 0.74451 0.0
C73 C 0.87954 0.793 0.78042 0.0
N74 N 0.90284 0.93938 0.7064 0.0
C75 C 0.95482 0.87403 0.7298 0.0
C76 C 0.62392 0.64753 0.97909 0.0
O77 O 0.4084 0.44795 0.86404 0.0
O78 O 0.59461 0.54223 0.81676 0.0
O79 O 0.70178 0.70179 0.93059 0.0
O80 O 0.50842 0.60729 0.96688 0.0
O81 O 0.6366 0.86412 0.86825 0.0
H82 H 0.89463 0.72509 0.80617 0.0
H83 H 0.73398 0.93158 0.73789 0.0
O84 O 0.44023 0.74798 0.88758 0.0
O85 O 0.36279 0.58096 0.78847 0.0
O86 O 0.55519 0.71629 0.76648 0.0
C87 C 0.44665 0.6479 0.74687 0.0
H88 H 0.15188 0.67411 0.99143 0.0
H89 H 0.03895 0.88061 0.7102 0.0
Co90 Co 0.60881 0.41654 0.14892 0.0
C91 C 0.86508 0.51842 0.14472 0.0
Co92 Co 0.72315 0.6135 0.18131 0.0
C93 C 0.50278 0.24767 0.0516 0.0
C94 C 0.60725 0.19805 0.11618 0.0
N95 N 0.54173 0.25845 0.11497 0.0
N96 N 0.56515 0.21237 1.0111 0.0
C97 C 0.62912 0.17707 0.05065 0.0
H98 H 0.44785 0.28712 0.03344 0.0
H99 H 0.65839 0.19469 0.15961 0.0
C100 C 0.45511 0.4766 0.19659 0.0
N101 N 0.81904 0.76748 0.23456 0.0
C102 C 0.91024 0.78584 0.2806 0.0
C103 C 0.80536 0.8672 0.2447 0.0
N104 N 0.95178 0.89048 0.31868 0.0
C105 C 0.88646 0.94249 0.2953 0.0
C106 C 0.65978 0.6116 0.04603 0.0
O107 O 0.46025 0.39602 0.16111 0.0
O108 O 0.55449 0.58234 0.20832 0.0
O109 O 0.71412 0.68946 0.09453 0.0
O110 O 0.61949 0.49608 0.05824 0.0
O111 O 0.87625 0.62405 0.1569 0.0
H112 H 0.73748 0.88233 0.21897 0.0
H113 H 0.9438 0.72149 0.28721 0.0
O114 O 0.76013 0.42765 0.13743 0.0
O115 O 0.59325 0.35023 0.23657 0.0
O116 O 0.72835 0.54271 0.25863 0.0
C117 C 0.6601 0.43409 0.2782 0.0
H118 H 0.68626 0.13955 0.03357 0.0
H119 H 0.89311 0.02667 0.31489 0.0
Co120 Co 0.38378 0.80397 0.54281 0.0
C121 C 0.12749 0.64963 0.54702 0.0
Co122 Co 0.26946 0.88661 0.51043 0.0
C123 C 0.48992 0.74107 0.64008 0.0
C124 C 0.38517 0.58695 0.57554 0.0
N125 N 0.45076 0.71288 0.57673 0.0
N126 N 0.42776 0.64337 0.68058 0.0
C127 C 0.3635 0.54411 0.64107 0.0
H128 H 0.54482 0.83546 0.65823 0.0
H129 H 0.33383 0.53243 0.53216 0.0
C130 C 0.53751 0.0177 0.49513 0.0
N131 N 0.17362 0.94475 0.45719 0.0
C132 C 0.08241 0.87192 0.41114 0.0
C133 C 0.18733 0.05817 0.44705 0.0
N134 N 0.04093 0.93505 0.37305 0.0
C135 C 0.10626 0.05239 0.39645 0.0
C136 C 0.33288 0.94806 0.64572 0.0
O137 O 0.53237 0.93199 0.53061 0.0
O138 O 0.43814 0.02407 0.48341 0.0
O139 O 0.27856 0.97161 0.59722 0.0
O140 O 0.37316 0.87283 0.6335 0.0
O141 O 0.11633 0.74409 0.53484 0.0
H142 H 0.25522 0.14118 0.47279 0.0
H143 H 0.04882 0.774 0.40453 0.0
O144 O 0.23242 0.6638 0.55431 0.0
O145 O 0.39928 0.75321 0.45514 0.0
O146 O 0.26421 0.81061 0.4331 0.0
C147 C 0.33243 0.77023 0.41352 0.0
H148 H 0.30628 0.44946 0.65818 0.0
H149 H 0.09964 0.12993 0.37686 0.0
Co150 Co 0.56374 0.164 0.81555 0.0
C151 C 0.46174 0.31833 0.81135 0.0
Co152 Co 0.36681 0.08137 0.84794 0.0
C153 C 0.73282 0.22695 0.7183 0.0
C154 C 0.78211 0.38105 0.78284 0.0
N155 N 0.72179 0.25512 0.78164 0.0
N156 N 0.7684 0.32466 0.6778 0.0
C157 C 0.80336 0.42391 0.71732 0.0
H158 H 0.69334 0.13256 0.70014 0.0
H159 H 0.78525 0.43555 0.82623 0.0
C160 C 0.50382 0.95031 0.86325 0.0
N161 N 0.21283 0.02319 0.90118 0.0
C162 C 0.19444 0.09601 0.94724 0.0
C163 C 0.11316 0.90977 0.91131 0.0
N164 N 0.08985 0.03286 0.98534 0.0
C165 C 0.03787 0.91553 0.96193 0.0
C166 C 0.36879 0.01988 0.71266 0.0
O167 O 0.58436 0.036 0.82775 0.0
O168 O 0.39808 0.94394 0.87496 0.0
O169 O 0.29092 -0.00365 0.76115 0.0
O170 O 0.48429 0.09513 0.72486 0.0
O171 O 0.35613 0.22386 0.82353 0.0
H172 H 0.09805 0.82677 0.88556 0.0
H173 H 0.25874 0.19392 0.95386 0.0
O174 O 0.5525 0.30415 0.80405 0.0
O175 O 0.62999 0.21476 0.90321 0.0
O176 O 0.43753 0.15739 0.92527 0.0
C177 C 0.54614 0.19775 0.94484 0.0
H178 H 0.84078 0.51856 0.70022 0.0
H179 H 0.95372 0.83798 0.98152 0.0
loop_
_geom_bond_atom_site_label_1
_geom_bond_atom_site_label_2
_geom_bond_distance
_geom_bond_site_symmetry_2
_ccdc_geom_bond_type
Co0 N5 2.057 . S
Co0 O17 2.021 1_455 S
Co0 O20 2.062 . S
Co0 O24 2.117 . S
Co0 O25 2.020 . S
C1 O21 1.259 . S
C1 O24 1.258 . S
Co2 N11 2.057 . S
Co2 O18 2.117 1_455 S
Co2 O19 2.020 . S
Co2 O21 2.021 . S
Co2 O26 2.062 . S
C3 N5 1.316 . S
C3 N6 1.347 . S
C3 H8 0.931 . S
C4 N5 1.375 . S
C4 C7 1.350 . S
C4 H9 0.930 . S
N5 Co0 2.057 . S
N5 C3 1.316 . S
N5 C4 1.375 . S
N6 C3 1.347 . S
N6 C7 1.373 . S
C7 C4 1.350 . S
C7 N6 1.373 . S
C7 H28 0.931 . S
H8 C3 0.931 . S
H9 C4 0.930 . S
C10 O17 1.259 . S
C10 O18 1.258 . S
N11 Co2 2.057 . S
N11 C12 1.316 . S
N11 C13 1.375 1_455 S
C12 N11 1.316 . S
C12 N14 1.347 1_455 S
C12 H23 0.931 . S
C13 N11 1.375 1_655 S
C13 C15 1.350 . S
C13 H22 0.930 . S
N14 C12 1.347 1_655 S
N14 C15 1.373 . S
C15 C13 1.350 . S
C15 N14 1.373 . S
C15 H29 0.931 1_544 S
C16 O19 1.257 . S
C16 O20 1.254 . S
O17 Co0 2.021 1_655 S
O17 C10 1.259 . S
O18 Co2 2.117 1_655 S
O18 C10 1.258 . S
O19 Co2 2.020 . S
O19 C16 1.257 . S
O20 Co0 2.062 . S
O20 C16 1.254 . S
O21 C1 1.259 . S
O21 Co2 2.021 . S
H22 C13 0.930 . S
H23 C12 0.931 . S
O24 Co0 2.117 . S
O24 C1 1.258 . S
O25 Co0 2.020 . S
O25 C27 1.256 . S
O26 Co2 2.062 . S
O26 C27 1.255 . S
C27 O25 1.256 . S
C27 O26 1.255 . S
H28 C7 0.931 . S
H29 C15 0.931 1_566 S
Co30 N35 2.057 . S
Co30 O47 2.021 1_655 S
Co30 O50 2.062 . S
Co30 O54 2.117 . S
Co30 O55 2.020 . S
C31 O51 1.259 . S
C31 O54 1.258 . S
Co32 N41 2.057 . S
Co32 O48 2.117 1_655 S
Co32 O49 2.020 1_655 S
Co32 O51 2.021 . S
Co32 O56 2.062 . S
C33 N35 1.316 . S
C33 N36 1.347 . S
C33 H38 0.931 . S
C34 N35 1.375 . S
C34 C37 1.350 . S
C34 H39 0.930 . S
N35 Co30 2.057 . S
N35 C33 1.316 . S
N35 C34 1.375 . S
N36 C33 1.347 . S
N36 C37 1.373 . S
C37 C34 1.350 . S
C37 N36 1.373 . S
C37 H58 0.931 . S
H38 C33 0.931 . S
H39 C34 0.930 . S
C40 O47 1.259 . S
C40 O48 1.258 . S
N41 Co32 2.057 . S
N41 C42 1.316 . S
N41 C43 1.375 1_655 S
C42 N41 1.316 . S
C42 N44 1.347 1_655 S
C42 H53 0.931 1_545 S
C43 N41 1.375 1_455 S
C43 C45 1.350 . S
C43 H52 0.930 . S
N44 C42 1.347 1_455 S
N44 C45 1.373 . S
C45 C43 1.350 . S
C45 N44 1.373 . S
C45 H59 0.931 . S
C46 O49 1.256 . S
C46 O50 1.255 1_455 S
O47 Co30 2.021 1_455 S
O47 C40 1.259 . S
O48 Co32 2.117 1_455 S
O48 C40 1.258 . S
O49 Co32 2.020 1_455 S
O49 C46 1.256 . S
O50 Co30 2.062 . S
O50 C46 1.255 1_655 S
O51 C31 1.259 . S
O51 Co32 2.021 . S
H52 C43 0.930 . S
H53 C42 0.931 1_565 S
O54 Co30 2.117 . S
O54 C31 1.258 . S
O55 Co30 2.020 . S
O55 C57 1.256 . S
O56 Co32 2.062 . S
O56 C57 1.255 . S
C57 O55 1.256 . S
C57 O56 1.255 . S
H58 C37 0.931 . S
H59 C45 0.931 . S
Co60 N65 2.057 . S
Co60 O77 2.021 . S
Co60 O80 2.062 . S
Co60 O84 2.117 . S
Co60 O85 2.020 . S
C61 O81 1.259 . S
C61 O84 1.258 . S
Co62 N71 2.057 . S
Co62 O78 2.117 . S
Co62 O79 2.020 . S
Co62 O81 2.021 . S
Co62 O86 2.062 . S
C63 N65 1.316 1_554 S
C63 N66 1.347 . S
C63 H68 0.931 1_554 S
C64 N65 1.375 1_554 S
C64 C67 1.350 . S
C64 H69 0.930 1_554 S
N65 Co60 2.057 . S
N65 C63 1.316 1_556 S
N65 C64 1.375 1_556 S
N66 C63 1.347 . S
N66 C67 1.373 . S
C67 C64 1.350 . S
C67 N66 1.373 . S
C67 H88 0.931 . S
H68 C63 0.931 1_556 S
H69 C64 0.930 1_556 S
C70 O77 1.259 . S
C70 O78 1.258 . S
N71 Co62 2.057 . S
N71 C72 1.316 . S
N71 C73 1.375 . S
C72 N71 1.316 . S
C72 N74 1.347 . S
C72 H83 0.931 1_565 S
C73 N71 1.375 . S
C73 C75 1.350 . S
C73 H82 0.930 . S
N74 C72 1.347 . S
N74 C75 1.373 . S
C75 C73 1.350 . S
C75 N74 1.373 . S
C75 H89 0.931 1_655 S
C76 O79 1.256 . S
C76 O80 1.255 . S
O77 Co60 2.021 . S
O77 C70 1.259 . S
O78 Co62 2.117 . S
O78 C70 1.258 . S
O79 Co62 2.020 . S
O79 C76 1.256 . S
O80 Co60 2.062 . S
O80 C76 1.255 . S
O81 C61 1.259 . S
O81 Co62 2.021 . S
H82 C73 0.930 . S
H83 C72 0.931 1_545 S
O84 Co60 2.117 . S
O84 C61 1.258 . S
O85 Co60 2.020 . S
O85 C87 1.256 . S
O86 Co62 2.062 . S
O86 C87 1.255 . S
C87 O85 1.256 . S
C87 O86 1.255 . S
H88 C67 0.931 . S
H89 C75 0.931 1_455 S
Co90 N95 2.057 1_554 S
Co90 O107 2.021 . S
Co90 O110 2.061 . S
Co90 O114 2.117 . S
Co90 O115 2.020 . S
C91 O111 1.259 . S
C91 O114 1.258 . S
Co92 N101 2.057 . S
Co92 O108 2.117 . S
Co92 O109 2.020 . S
Co92 O111 2.021 . S
Co92 O116 2.062 . S
C93 N95 1.316 . S
C93 N96 1.347 . S
C93 H98 0.931 . S
C94 N95 1.375 . S
C94 C97 1.350 . S
C94 H99 0.930 . S
N95 Co90 2.057 1_556 S
N95 C93 1.316 . S
N95 C94 1.375 . S
N96 C93 1.347 . S
N96 C97 1.373 . S
C97 C94 1.350 . S
C97 N96 1.373 . S
C97 H118 0.931 . S
H98 C93 0.931 . S
H99 C94 0.930 . S
C100 O107 1.259 . S
C100 O108 1.258 . S
N101 Co92 2.057 . S
N101 C102 1.316 . S
N101 C103 1.375 . S
C102 N101 1.316 . S
C102 N104 1.347 . S
C102 H113 0.931 1_655 S
C103 N101 1.375 . S
C103 C105 1.350 . S
C103 H112 0.930 . S
N104 C102 1.347 . S
N104 C105 1.373 . S
C105 C103 1.350 . S
C105 N104 1.373 . S
C105 H119 0.931 1_565 S
C106 O109 1.256 . S
C106 O110 1.255 . S
O107 Co90 2.021 . S
O107 C100 1.259 . S
O108 Co92 2.117 . S
O108 C100 1.258 . S
O109 Co92 2.020 . S
O109 C106 1.256 . S
O110 Co90 2.061 . S
O110 C106 1.255 . S
O111 C91 1.259 . S
O111 Co92 2.021 . S
H112 C103 0.930 . S
H113 C102 0.931 1_455 S
O114 Co90 2.117 . S
O114 C91 1.258 . S
O115 Co90 2.020 . S
O115 C117 1.256 . S
O116 Co92 2.062 . S
O116 C117 1.255 . S
C117 O115 1.256 . S
C117 O116 1.255 . S
H118 C97 0.931 . S
H119 C105 0.931 1_545 S
Co120 N125 2.057 . S
Co120 O137 2.021 1_565 S
Co120 O140 2.062 . S
Co120 O144 2.117 . S
Co120 O145 2.020 . S
C121 O141 1.259 . S
C121 O144 1.258 . S
Co122 N131 2.057 . S
Co122 O138 2.117 1_565 S
Co122 O139 2.020 . S
Co122 O141 2.021 . S
Co122 O146 2.062 . S
C123 N125 1.316 . S
C123 N126 1.347 . S
C123 H128 0.931 . S
C124 N125 1.375 . S
C124 C127 1.350 . S
C124 H129 0.930 . S
N125 Co120 2.057 . S
N125 C123 1.316 . S
N125 C124 1.375 . S
N126 C123 1.347 . S
N126 C127 1.373 . S
C127 C124 1.350 . S
C127 N126 1.373 . S
C127 H148 0.931 . S
H128 C123 0.931 . S
H129 C124 0.930 . S
C130 O137 1.259 . S
C130 O138 1.258 . S
N131 Co122 2.057 . S
N131 C132 1.316 . S
N131 C133 1.375 1_565 S
C132 N131 1.316 . S
C132 N134 1.346 1_565 S
C132 H143 0.931 1_455 S
C133 N131 1.375 1_545 S
C133 C135 1.350 . S
C133 H142 0.930 . S
N134 C132 1.346 1_545 S
N134 C135 1.374 . S
C135 C133 1.350 . S
C135 N134 1.374 . S
C135 H149 0.931 . S
C136 O139 1.256 . S
C136 O140 1.255 . S
O137 Co120 2.021 1_545 S
O137 C130 1.259 . S
O138 Co122 2.117 1_545 S
O138 C130 1.258 . S
O139 Co122 2.020 . S
O139 C136 1.256 . S
O140 Co120 2.062 . S
O140 C136 1.255 . S
O141 C121 1.259 . S
O141 Co122 2.021 . S
H142 C133 0.930 . S
H143 C132 0.931 1_655 S
O144 Co120 2.117 . S
O144 C121 1.258 . S
O145 Co120 2.020 . S
O145 C147 1.256 . S
O146 Co122 2.062 . S
O146 C147 1.255 . S
C147 O145 1.256 . S
C147 O146 1.255 . S
H148 C127 0.931 . S
H149 C135 0.931 . S
Co150 N155 2.057 . S
Co150 O167 2.021 1_545 S
Co150 O170 2.062 . S
Co150 O174 2.117 . S
Co150 O175 2.020 . S
C151 O171 1.259 . S
C151 O174 1.258 . S
Co152 N161 2.056 1_545 S
Co152 O168 2.117 1_545 S
Co152 O169 2.020 1_545 S
Co152 O171 2.021 . S
Co152 O176 2.062 . S
C153 N155 1.316 . S
C153 N156 1.347 . S
C153 H158 0.931 . S
C154 N155 1.375 . S
C154 C157 1.350 . S
C154 H159 0.930 . S
N155 Co150 2.057 . S
N155 C153 1.316 . S
N155 C154 1.375 . S
N156 C153 1.347 . S
N156 C157 1.373 . S
C157 C154 1.350 . S
C157 N156 1.373 . S
C157 H178 0.931 . S
H158 C153 0.931 . S
H159 C154 0.930 . S
C160 O167 1.259 . S
C160 O168 1.258 . S
N161 Co152 2.056 1_565 S
N161 C162 1.311 1_565 S
N161 C163 1.381 . S
C162 N161 1.311 1_545 S
C162 N164 1.347 1_545 S
C162 H173 0.931 . S
C163 N161 1.381 . S
C163 C165 1.350 . S
C163 H172 0.930 . S
N164 C162 1.347 1_565 S
N164 C165 1.373 . S
C165 C163 1.350 . S
C165 N164 1.373 . S
C165 H179 0.931 1_455 S
C166 O169 1.256 . S
C166 O170 1.255 1_565 S
O167 Co150 2.021 1_565 S
O167 C160 1.259 . S
O168 Co152 2.117 1_565 S
O168 C160 1.258 . S
O169 Co152 2.020 1_565 S
O169 C166 1.256 . S
O170 Co150 2.062 . S
O170 C166 1.255 1_545 S
O171 C151 1.259 . S
O171 Co152 2.021 . S
H172 C163 0.930 . S
H173 C162 0.931 . S
O174 Co150 2.117 . S
O174 C151 1.258 . S
O175 Co150 2.020 . S
O175 C177 1.256 . S
O176 Co152 2.062 . S
O176 C177 1.255 . S
C177 O175 1.256 . S
C177 O176 1.255 . S
H178 C157 0.931 . S
H179 C165 0.931 1_655 S
C147 N6 1.250 . S
N156 C57 1.250 . S
C27 N66 1.250 . S
N36 C117 1.250 . S
C87 N126 1.250 . S
N96 C177 1.250 . S
C1 C100 3.305 . S
C121 C40 3.305 . S
C160 C61 3.305 . S
C70 C151 3.305 . S
C10 C91 3.305 . S
C130 C31 3.305 . S
N164 N14 1.220 1_466 S
C46 C16 1.134 . S
N74 N44 1.220 1_665 S
C76 C106 1.133 1_556 S
N134 N104 1.220 1_445 S
C166 C136 1.133 . S
