# Generated by pormake.
# Topology cds, (4)-cn, num edge types: 1
# Building blocks:
#     Node 0, Type 0, BuildingBlock: KOZSID_clean_sbu_0, # of connection points: 4
#     Node 1, Type 0, BuildingBlock: KOZSID_clean_sbu_0, # of connection points: 4
#     Edge 2, Type (0, 0), BuildingBlock: UVAHIK_clean_linker_0, # of connection points: 2
#     Edge 3, Type (0, 0), BuildingBlock: UVAHIK_clean_linker_0, # of connection points: 2
#     Edge 4, Type (0, 0), BuildingBlock: UVAHIK_clean_linker_0, # of connection points: 2
#     Edge 5, Type (0, 0), BuildingBlock: UVAHIK_clean_linker_0, # of connection points: 2
# Relax obj value: 0.000
# Max RMSD: 0.000
# Mean RMSD: 0.000
data_MOF--net-cds--node1-KOZSID_clean_sbu_0--edge1-UVAHIK_clean_linker_0
_symmetry_space_group_name_H-M    P1
_symmetry_Int_Tables_number       1
_symmetry_cell_setting            triclinic
loop_
_symmetry_equiv_pos_as_xyz
'x, y, z'
_cell_length_a     21.130126
_cell_length_b     24.082498
_cell_length_c     45.360507
_cell_angle_alpha  106.9451
_cell_angle_beta   107.3053
_cell_angle_gamma 86.413984
loop_
_atom_site_label
_atom_site_type_symbol
_atom_site_fract_x
_atom_site_fract_y
_atom_site_fract_z
_atom_type_partial_charge
C0 C 0.13472 0.06211 0.02521 0.0
C1 C 0.16744 0.11584 0.03862 0.0
C2 C 0.11975 0.15642 0.04091 0.0
C3 C 0.06098 0.12522 0.02888 0.0
N4 N 0.06828 0.06707 0.01949 0.0
Co5 Co 0.99628 0.00538 -0.00015 0.0
N6 N 0.92574 0.06524 0.00026 0.0
C7 C 0.93465 0.12369 0.01044 0.0
C8 C 0.87678 0.15334 0.00862 0.0
C9 C 0.82795 0.11139 0.99704 0.0
C10 C 0.85908 0.05838 0.99242 0.0
N11 N 0.92427 0.94369 0.98034 0.0
C12 C 0.85784 0.94868 0.97471 0.0
C13 C 0.82514 0.89493 0.96157 0.0
C14 C 0.87282 0.85432 0.95939 0.0
C15 C 0.93157 0.88551 0.97121 0.0
N16 N 0.06682 0.94553 0.9993 0.0
C17 C 0.0579 0.88708 0.9889 0.0
C18 C 0.11575 0.85745 0.9905 0.0
C19 C 0.16457 0.89942 0.00213 0.0
C20 C 0.13345 0.95242 0.00702 0.0
N21 N -0.00276 1.00385 0.04355 0.0
C22 C -0.00338 1.00134 0.10517 0.0
C23 C -0.00039 0.95013 0.08136 0.0
C24 C -0.00063 0.95233 0.05091 0.0
C25 C 0.99389 0.05384 0.0977 0.0
C26 C 0.99471 0.05414 0.06707 0.0
N27 N 0.99536 0.00692 0.95617 0.0
C28 C -0.00279 0.95677 0.90182 0.0
C29 C -0.0027 0.00935 0.89458 0.0
C30 C 0.99613 0.06067 0.91878 0.0
C31 C 0.99553 0.05848 0.94911 0.0
C32 C 0.99591 0.95656 0.93239 0.0
H33 H 0.99543 0.09914 0.96647 0.0
H34 H 0.99594 0.91507 0.93624 0.0
H35 H 0.00045 0.9117 0.0337 0.0
H36 H 0.99313 0.09559 0.06301 0.0
C37 C -0.00182 0.14934 0.02385 0.0
C38 C 0.16866 0.00793 0.01685 0.0
C39 C 0.82387 1.00292 0.98283 0.0
C40 C 0.99437 0.86141 0.97589 0.0
H41 H 0.22022 0.1247 0.04532 0.0
H42 H 0.12691 0.20315 0.04937 0.0
H43 H 0.87096 0.19988 0.0159 0.0
H44 H 0.77554 0.11905 0.99335 0.0
H45 H 0.77237 0.88609 0.95495 0.0
H46 H 0.86566 0.80759 0.95104 0.0
H47 H 0.12157 0.81091 0.98311 0.0
H48 H 0.21696 0.8918 0.00571 0.0
H49 H 0.00098 0.90834 0.08601 0.0
H50 H 0.99204 0.09467 0.11555 0.0
H51 H -0.00087 0.91572 0.88417 0.0
H52 H 0.99507 0.10261 0.91437 0.0
C53 C 0.0631 0.03008 0.57254 0.0
C54 C 0.12516 0.03573 0.59514 0.0
C55 C 0.17081 0.02977 0.57867 0.0
C56 C 0.13434 0.02049 0.54709 0.0
N57 N 0.06797 0.02086 0.54234 0.0
Co58 Co -0.00325 0.00542 0.49991 0.0
N59 N 0.06418 0.99167 0.47554 0.0
C60 C 0.13094 0.9929 0.48797 0.0
C61 C 0.16429 0.98227 0.46528 0.0
C62 C 0.11603 0.97464 0.43663 0.0
C63 C 0.05582 0.98147 0.4436 0.0
N64 N 0.92553 0.98993 0.45748 0.0
C65 C 0.93041 0.98049 0.42726 0.0
C66 C 0.86835 0.97463 0.40465 0.0
C67 C 0.8227 0.98071 0.42112 0.0
C68 C 0.85916 0.99023 0.45272 0.0
N69 N 0.92933 0.01921 0.52428 0.0
C70 C 0.86257 0.01813 0.51185 0.0
C71 C 0.82923 0.02884 0.53455 0.0
C72 C 0.87748 0.03635 0.56319 0.0
C73 C 0.93769 0.02937 0.55621 0.0
N74 N -0.0025 0.08929 0.50247 0.0
C75 C -0.00157 0.20707 0.5034 0.0
C76 C 0.93887 0.17637 0.4955 0.0
C77 C 0.93955 0.11818 0.49523 0.0
C78 C 0.05757 0.17786 0.51123 0.0
C79 C 0.05598 0.11959 0.51064 0.0
N80 N 0.996 0.92156 0.49735 0.0
C81 C 0.93596 0.83307 0.48875 0.0
C82 C 0.99509 0.80379 0.49644 0.0
C83 C 0.05464 0.83442 0.50419 0.0
C84 C 0.05395 0.89261 0.50444 0.0
C85 C 0.93754 0.89133 0.48933 0.0
H86 H 0.10104 0.91335 0.51082 0.0
H87 H 0.89078 0.91104 0.48338 0.0
H88 H 0.89245 0.09738 0.48873 0.0
H89 H 0.10274 0.09994 0.5167 0.0
C90 C 0.16092 0.00696 0.52119 0.0
C91 C 0.00111 0.03044 0.58061 0.0
C92 C 0.99237 0.98013 0.41919 0.0
C93 C 0.83258 1.00393 0.47863 0.0
H94 H 0.13661 0.04187 0.62077 0.0
H95 H 0.22422 0.03009 0.58843 0.0
H96 H 0.21739 0.98145 0.46919 0.0
H97 H 0.12424 0.96613 0.41329 0.0
H98 H 0.85693 0.96826 0.379 0.0
H99 H 0.76928 0.98028 0.41135 0.0
H100 H 0.77613 0.02973 0.53065 0.0
H101 H 0.86927 0.04486 0.58653 0.0
H102 H 0.89161 0.19669 0.48887 0.0
H103 H 0.10513 0.19987 0.51802 0.0
H104 H 0.8884 0.81111 0.48207 0.0
H105 H 0.10191 0.81406 0.51072 0.0
C106 C 0.95032 0.03207 0.15218 0.0
C107 C 0.99624 0.99988 0.13756 0.0
C108 C 0.94934 0.02994 0.18251 0.0
C109 C 0.00683 0.94167 0.24006 0.0
H110 H 0.96679 0.07985 0.30053 0.0
C111 C 0.96792 0.93459 0.35959 0.0
C112 C 0.99142 0.98233 0.38669 0.0
C113 C 0.96764 0.93688 0.32912 0.0
C114 C 0.97877 0.04096 0.2841 0.0
H115 H 0.0781 0.94133 0.1434 0.0
H116 H 0.07783 0.93876 0.19668 0.0
H117 H 0.97039 0.08433 0.24822 0.0
H118 H 0.03444 0.06917 0.40382 0.0
H119 H 0.03624 0.07284 0.35081 0.0
H120 H 0.01789 0.89891 0.27642 0.0
C121 C 0.04119 0.96437 0.18444 0.0
C122 C 0.97984 0.04331 0.25383 0.0
C123 C 0.04161 0.96598 0.15396 0.0
C124 C 0.01557 0.03208 0.38306 0.0
C125 C 0.01604 0.03421 0.35268 0.0
C126 C 0.00639 0.93946 0.27043 0.0
C127 C 0.99481 0.99608 0.19907 0.0
C128 C 0.9938 0.99367 0.23138 0.0
C129 C 0.99186 0.98671 0.32526 0.0
C130 C 0.99225 0.98905 0.29286 0.0
H131 H 0.91428 0.05804 0.13987 0.0
H132 H 0.91216 0.05413 0.1927 0.0
H133 H 0.01686 0.90233 0.22328 0.0
H134 H 0.94951 0.89567 0.36203 0.0
H135 H 0.94781 0.89979 0.30856 0.0
C136 C 0.03442 0.05477 0.85885 0.0
C137 C -0.00132 0.01071 0.86215 0.0
C138 C 0.03507 0.05648 0.82842 0.0
C139 C 0.94402 0.99968 0.74138 0.0
H140 H 0.10347 0.05096 0.73016 0.0
C141 C 0.97718 0.97837 0.61654 0.0
C142 C 0.002 0.02802 0.61306 0.0
C143 C 0.97674 0.97604 0.64689 0.0
C144 C 0.05849 0.03694 0.73303 0.0
H145 H 0.9354 0.93387 0.8357 0.0
H146 H 0.93894 0.93539 0.78289 0.0
H147 H 0.10363 0.046 0.78312 0.0
H148 H 0.04479 0.11439 0.63797 0.0
H149 H 0.0455 0.11001 0.69144 0.0
H150 H 0.89959 0.98944 0.69098 0.0
C151 C 0.96534 0.96946 0.80379 0.0
C152 C 0.0584 0.03428 0.76338 0.0
C153 C 0.96414 0.96808 0.8342 0.0
C154 C 0.02621 0.07544 0.6403 0.0
C155 C 0.02665 0.07284 0.67075 0.0
C156 C 0.94442 1.00169 0.71096 0.0
C157 C 0.00058 0.01383 0.80046 0.0
C158 C 0.00106 0.01585 0.76801 0.0
C159 C 0.00173 0.02316 0.67431 0.0
C160 C 0.00155 0.02056 0.70652 0.0
H161 H 0.06244 0.08787 0.87981 0.0
H162 H 0.06208 0.09176 0.82685 0.0
H163 H 0.89857 0.98631 0.74407 0.0
H164 H 0.95811 0.94143 0.59571 0.0
H165 H 0.95764 0.9371 0.64899 0.0
C166 C 0.74624 0.98943 0.01221 0.0
C167 C 0.75597 1.00164 0.98549 0.0
C168 C 0.68259 0.98971 0.01548 0.0
C169 C 0.51678 0.0479 0.98887 0.0
H170 H 0.46072 0.92988 0.0192 0.0
C171 C 0.24643 0.02192 0.98765 0.0
C172 C 0.23661 0.00943 0.01428 0.0
C173 C 0.31012 0.02179 0.98445 0.0
C174 C 0.47593 0.96354 0.01108 0.0
H175 H 0.70839 0.02253 0.94092 0.0
H176 H 0.59627 0.02265 0.94634 0.0
H177 H 0.57112 0.92662 0.01226 0.0
H178 H 0.28405 0.98821 0.05876 0.0
H179 H 0.39625 0.98838 0.05348 0.0
H180 H 0.4216 0.08483 0.9877 0.0
C181 C 0.63771 0.0137 0.96502 0.0
C182 C 0.53912 0.96163 0.00706 0.0
C183 C 0.70146 0.01334 0.96178 0.0
C184 C 0.29106 0.99762 0.03797 0.0
C185 C 0.35486 0.99742 0.0348 0.0
C186 C 0.4536 0.04982 0.9929 0.0
C187 C 0.62764 1.00216 0.99201 0.0
C188 C 0.56023 1.00378 0.99591 0.0
C189 C 0.36503 0.00922 0.0079 0.0
C190 C 0.43247 0.00766 0.00404 0.0
H191 H 0.78808 0.98043 0.03073 0.0
H192 H 0.67657 0.98131 0.03669 0.0
H193 H 0.532 0.08154 0.98074 0.0
H194 H 0.20463 0.03102 0.96915 0.0
H195 H 0.3162 0.03038 0.96329 0.0
C196 C 0.94914 0.72177 0.50856 0.0
C197 C 0.99478 0.74208 0.49671 0.0
C198 C 0.94942 0.66405 0.50923 0.0
C199 C 0.00672 0.51826 0.47349 0.0
H200 H 0.98005 0.48386 0.54737 0.0
C201 C 0.04453 0.28914 0.49139 0.0
C202 C -0.00124 0.26878 0.50315 0.0
C203 C 0.04425 0.34686 0.49073 0.0
C204 C 0.98685 0.49261 0.52639 0.0
H205 H 0.07598 0.71703 0.47585 0.0
H206 H 0.07747 0.61688 0.47771 0.0
H207 H 0.97881 0.5842 0.5458 0.0
H208 H 0.91735 0.29375 0.52387 0.0
H209 H 0.91591 0.39394 0.52204 0.0
H210 H 0.01477 0.42665 0.45408 0.0
C211 C 0.0409 0.64542 0.48616 0.0
C212 C 0.98611 0.5502 0.52548 0.0
C213 C 0.04057 0.70311 0.48546 0.0
C214 C 0.95286 0.30772 0.51433 0.0
C215 C 0.95255 0.36541 0.51364 0.0
C216 C 0.00746 0.46066 0.4744 0.0
C217 C 0.99539 0.62515 0.49809 0.0
C218 C 0.99603 0.56378 0.49902 0.0
C219 C -0.00183 0.38572 0.50179 0.0
C220 C -0.00246 0.44709 0.50086 0.0
H221 H 0.91366 0.75068 0.51777 0.0
H222 H 0.91316 0.64981 0.51824 0.0
H223 H 0.0135 0.527 0.45251 0.0
H224 H 0.0801 0.26026 0.48224 0.0
H225 H 0.08058 0.36114 0.48177 0.0
loop_
_geom_bond_atom_site_label_1
_geom_bond_atom_site_label_2
_geom_bond_distance
_geom_bond_site_symmetry_2
_ccdc_geom_bond_type
C0 C1 1.443 . S
C0 N4 1.376 . S
C0 C38 1.405 . S
C1 C0 1.443 . S
C1 C2 1.340 . S
C1 H41 0.951 . S
C2 C1 1.340 . S
C2 C3 1.439 . S
C2 H42 0.950 . S
C3 C2 1.439 . S
C3 N4 1.374 . S
C3 C37 1.392 1_455 S
N4 C0 1.376 . S
N4 C3 1.374 . S
N4 Co5 2.008 . S
Co5 N4 2.008 . S
Co5 N6 1.997 1_455 S
Co5 N11 2.008 1_444 S
Co5 N16 1.993 1_544 S
Co5 N21 2.294 . S
Co5 N27 2.271 1_444 S
N6 Co5 1.997 1_655 S
N6 C7 1.376 . S
N6 C10 1.383 . S
C7 N6 1.376 . S
C7 C8 1.446 . S
C7 C37 1.394 . S
C8 C7 1.446 . S
C8 C9 1.339 . S
C8 H43 0.949 . S
C9 C8 1.339 . S
C9 C10 1.439 . S
C9 H44 0.950 . S
C10 N6 1.383 . S
C10 C9 1.439 . S
C10 C39 1.390 1_544 S
N11 Co5 2.008 1_666 S
N11 C12 1.376 . S
N11 C15 1.374 . S
C12 N11 1.376 . S
C12 C13 1.443 . S
C12 C39 1.399 . S
C13 C12 1.443 . S
C13 C14 1.340 . S
C13 H45 0.951 . S
C14 C13 1.340 . S
C14 C15 1.439 . S
C14 H46 0.950 . S
C15 N11 1.374 . S
C15 C14 1.439 . S
C15 C40 1.387 1_655 S
N16 Co5 1.993 1_566 S
N16 C17 1.376 . S
N16 C20 1.383 . S
C17 N16 1.376 . S
C17 C18 1.446 . S
C17 C40 1.399 . S
C18 C17 1.446 . S
C18 C19 1.339 . S
C18 H47 0.949 . S
C19 C18 1.339 . S
C19 C20 1.439 . S
C19 H48 0.950 . S
C20 N16 1.383 . S
C20 C19 1.439 . S
C20 C38 1.374 1_566 S
N21 Co5 2.294 . S
N21 C24 1.332 1_545 S
N21 C26 1.332 1_455 S
C22 C23 1.375 1_545 S
C22 C25 1.404 1_455 S
C23 C22 1.375 1_565 S
C23 C24 1.382 . S
C23 H49 0.950 . S
C24 N21 1.332 1_565 S
C24 C23 1.382 . S
C24 H35 0.952 . S
C25 C22 1.404 1_655 S
C25 C26 1.382 . S
C25 H50 0.950 . S
C26 N21 1.332 1_655 S
C26 C25 1.382 . S
C26 H36 0.948 . S
N27 Co5 2.271 1_666 S
N27 C31 1.332 1_565 S
N27 C32 1.332 1_655 S
C28 C29 1.395 1_455 S
C28 C32 1.382 . S
C28 H51 0.950 . S
C29 C28 1.395 1_655 S
C29 C30 1.381 1_565 S
C30 C29 1.381 1_545 S
C30 C31 1.382 . S
C30 H52 0.950 . S
C31 N27 1.332 1_545 S
C31 C30 1.382 . S
C31 H33 0.952 . S
C32 N27 1.332 1_455 S
C32 C28 1.382 . S
C32 H34 0.948 . S
H33 C31 0.952 . S
H34 C32 0.948 . S
H35 C24 0.952 . S
H36 C26 0.948 . S
C37 C3 1.392 1_655 S
C37 C7 1.394 . S
C38 C0 1.405 . S
C38 C20 1.374 1_544 S
C39 C10 1.390 1_566 S
C39 C12 1.399 . S
C40 C15 1.387 1_455 S
C40 C17 1.399 . S
H41 C1 0.951 . S
H42 C2 0.950 . S
H43 C8 0.949 . S
H44 C9 0.950 . S
H45 C13 0.951 . S
H46 C14 0.950 . S
H47 C18 0.949 . S
H48 C19 0.950 . S
H49 C23 0.950 . S
H50 C25 0.950 . S
H51 C28 0.950 . S
H52 C30 0.950 . S
C53 C54 1.446 . S
C53 N57 1.373 1_565 S
C53 C91 1.407 1_565 S
C54 C53 1.446 . S
C54 C55 1.340 . S
C54 H94 0.951 . S
C55 C54 1.340 . S
C55 C56 1.439 . S
C55 H95 0.950 . S
C56 C55 1.439 . S
C56 N57 1.374 1_565 S
C56 C90 1.395 . S
N57 C53 1.373 1_545 S
N57 C56 1.374 1_545 S
N57 Co58 2.008 . S
Co58 N57 2.008 . S
Co58 N59 1.996 1_545 S
Co58 N64 2.008 1_445 S
Co58 N69 1.993 1_455 S
Co58 N74 2.285 . S
Co58 N80 2.280 1_445 S
N59 Co58 1.996 1_565 S
N59 C60 1.376 . S
N59 C63 1.383 . S
C60 N59 1.376 . S
C60 C61 1.446 . S
C60 C90 1.391 . S
C61 C60 1.446 . S
C61 C62 1.339 . S
C61 H96 0.949 . S
C62 C61 1.339 . S
C62 C63 1.439 . S
C62 H97 0.950 . S
C63 N59 1.383 . S
C63 C62 1.439 . S
C63 C92 1.384 1_455 S
N64 Co58 2.008 1_665 S
N64 C65 1.371 1_565 S
N64 C68 1.374 1_565 S
C65 N64 1.371 1_545 S
C65 C66 1.449 . S
C65 C92 1.402 1_545 S
C66 C65 1.449 . S
C66 C67 1.340 . S
C66 H98 0.951 . S
C67 C66 1.340 . S
C67 C68 1.439 . S
C67 H99 0.950 . S
C68 N64 1.374 1_545 S
C68 C67 1.439 . S
C68 C93 1.395 . S
N69 Co58 1.993 1_655 S
N69 C70 1.376 . S
N69 C73 1.383 . S
C70 N69 1.376 . S
C70 C71 1.446 . S
C70 C93 1.391 . S
C71 C70 1.446 . S
C71 C72 1.339 . S
C71 H100 0.949 . S
C72 C71 1.339 . S
C72 C73 1.439 . S
C72 H101 0.950 . S
C73 N69 1.383 . S
C73 C72 1.439 . S
C73 C91 1.379 1_655 S
N74 Co58 2.285 . S
N74 C77 1.332 1_455 S
N74 C79 1.332 . S
C75 C76 1.372 1_455 S
C75 C78 1.401 . S
C76 C75 1.372 1_655 S
C76 C77 1.382 . S
C76 H102 0.950 . S
C77 N74 1.332 1_655 S
C77 C76 1.382 . S
C77 H88 0.952 . S
C78 C75 1.401 . S
C78 C79 1.382 . S
C78 H103 0.950 . S
C79 N74 1.332 . S
C79 C78 1.382 . S
C79 H89 0.948 . S
N80 Co58 2.280 1_665 S
N80 C84 1.332 1_655 S
N80 C85 1.332 . S
C81 C82 1.395 . S
C81 C85 1.382 . S
C81 H104 0.950 . S
C82 C81 1.395 . S
C82 C83 1.378 1_655 S
C83 C82 1.378 1_455 S
C83 C84 1.382 . S
C83 H105 0.950 . S
C84 N80 1.332 1_455 S
C84 C83 1.382 . S
C84 H86 0.952 . S
C85 N80 1.332 . S
C85 C81 1.382 . S
C85 H87 0.948 . S
H86 C84 0.952 . S
H87 C85 0.948 . S
H88 C77 0.952 . S
H89 C79 0.948 . S
C90 C56 1.395 . S
C90 C60 1.391 . S
C91 C53 1.407 1_545 S
C91 C73 1.379 1_455 S
C92 C63 1.384 1_655 S
C92 C65 1.402 1_565 S
C93 C68 1.395 . S
C93 C70 1.391 . S
H94 C54 0.951 . S
H95 C55 0.950 . S
H96 C61 0.949 . S
H97 C62 0.950 . S
H98 C66 0.951 . S
H99 C67 0.950 . S
H100 C71 0.949 . S
H101 C72 0.950 . S
H102 C76 0.950 . S
H103 C78 0.950 . S
H104 C81 0.950 . S
H105 C83 0.950 . S
C106 C107 1.350 1_655 S
C106 C108 1.327 . S
C106 H131 0.950 . S
C107 C106 1.350 1_455 S
C107 C123 1.347 1_545 S
C108 C106 1.327 . S
C108 C127 1.430 1_655 S
C108 H132 0.950 . S
C109 C126 1.574 . S
C109 C128 1.366 1_565 S
C109 H133 0.949 . S
H110 C114 0.949 . S
C111 C112 1.348 1_565 S
C111 C113 1.327 . S
C111 H134 0.950 . S
C112 C111 1.348 1_545 S
C112 C124 1.351 1_455 S
C113 C111 1.327 . S
C113 C129 1.427 1_565 S
C113 H135 0.950 . S
C114 H110 0.949 . S
C114 C122 1.574 . S
C114 C130 1.370 1_655 S
H115 C123 0.950 . S
H116 C121 0.950 . S
H117 C122 0.949 . S
H118 C124 0.950 . S
H119 C125 0.950 . S
H120 C126 0.949 . S
C121 H116 0.950 . S
C121 C123 1.327 . S
C121 C127 1.428 1_565 S
C122 C114 1.574 . S
C122 H117 0.949 . S
C122 C128 1.369 1_655 S
C123 C107 1.347 1_565 S
C123 H115 0.950 . S
C123 C121 1.327 . S
C124 C112 1.351 1_655 S
C124 H118 0.950 . S
C124 C125 1.327 . S
C125 H119 0.950 . S
C125 C124 1.327 . S
C125 C129 1.429 1_655 S
C126 C109 1.574 . S
C126 H120 0.949 . S
C126 C130 1.367 1_565 S
C127 C108 1.430 1_455 S
C127 C121 1.428 1_545 S
C127 C128 1.523 . S
C128 C109 1.366 1_545 S
C128 C122 1.369 1_455 S
C128 C127 1.523 . S
C129 C113 1.427 1_545 S
C129 C125 1.429 1_455 S
C129 C130 1.523 . S
C130 C114 1.370 1_455 S
C130 C126 1.367 1_545 S
C130 C129 1.523 . S
H131 C106 0.950 . S
H132 C108 0.950 . S
H133 C109 0.949 . S
H134 C111 0.950 . S
H135 C113 0.950 . S
C136 C137 1.351 . S
C136 C138 1.327 . S
C136 H161 0.950 . S
C137 C136 1.351 . S
C137 C153 1.348 1_445 S
C138 C136 1.327 . S
C138 C157 1.429 . S
C138 H162 0.950 . S
C139 C156 1.574 . S
C139 C158 1.367 1_665 S
C139 H163 0.949 . S
H140 C144 0.949 . S
C141 C142 1.347 1_665 S
C141 C143 1.327 . S
C141 H164 0.950 . S
C142 C141 1.347 1_445 S
C142 C154 1.350 . S
C143 C141 1.327 . S
C143 C159 1.428 1_665 S
C143 H165 0.950 . S
C144 H140 0.949 . S
C144 C152 1.574 . S
C144 C160 1.369 . S
H145 C153 0.950 . S
H146 C151 0.950 . S
H147 C152 0.949 . S
H148 C154 0.950 . S
H149 C155 0.950 . S
H150 C156 0.949 . S
C151 H146 0.950 . S
C151 C153 1.327 . S
C151 C157 1.427 1_665 S
C152 C144 1.574 . S
C152 H147 0.949 . S
C152 C158 1.370 . S
C153 C137 1.348 1_665 S
C153 H145 0.950 . S
C153 C151 1.327 . S
C154 C142 1.350 . S
C154 H148 0.950 . S
C154 C155 1.327 . S
C155 H149 0.950 . S
C155 C154 1.327 . S
C155 C159 1.430 . S
C156 C139 1.574 . S
C156 H150 0.949 . S
C156 C160 1.366 1_665 S
C157 C138 1.429 . S
C157 C151 1.427 1_445 S
C157 C158 1.523 . S
C158 C139 1.367 1_445 S
C158 C152 1.370 . S
C158 C157 1.523 . S
C159 C143 1.428 1_445 S
C159 C155 1.430 . S
C159 C160 1.523 . S
C160 C144 1.369 . S
C160 C156 1.366 1_445 S
C160 C159 1.523 . S
H161 C136 0.950 . S
H162 C138 0.950 . S
H163 C139 0.949 . S
H164 C141 0.950 . S
H165 C143 0.950 . S
C166 C167 1.355 1_565 S
C166 C168 1.327 . S
C166 H191 0.950 . S
C167 C166 1.355 1_545 S
C167 C183 1.346 1_554 S
C168 C166 1.327 . S
C168 C187 1.431 1_565 S
C168 H192 0.950 . S
C169 C186 1.574 . S
C169 C188 1.365 1_556 S
C169 H193 0.949 . S
H170 C174 0.949 . S
C171 C172 1.343 1_556 S
C171 C173 1.327 . S
C171 H194 0.950 . S
C172 C171 1.343 1_554 S
C172 C184 1.352 1_545 S
C173 C171 1.327 . S
C173 C189 1.426 1_556 S
C173 H195 0.950 . S
C174 H170 0.949 . S
C174 C182 1.574 . S
C174 C190 1.372 1_565 S
H175 C183 0.950 . S
H176 C181 0.950 . S
H177 C182 0.949 . S
H178 C184 0.950 . S
H179 C185 0.950 . S
H180 C186 0.949 . S
C181 H176 0.950 . S
C181 C183 1.327 . S
C181 C187 1.422 1_556 S
C182 C174 1.574 . S
C182 H177 0.949 . S
C182 C188 1.375 1_565 S
C183 C167 1.346 1_556 S
C183 H175 0.950 . S
C183 C181 1.327 . S
C184 C172 1.352 1_565 S
C184 H178 0.950 . S
C184 C185 1.327 . S
C185 H179 0.950 . S
C185 C184 1.327 . S
C185 C189 1.435 1_565 S
C186 C169 1.574 . S
C186 H180 0.949 . S
C186 C190 1.362 1_556 S
C187 C168 1.431 1_545 S
C187 C181 1.422 1_554 S
C187 C188 1.523 . S
C188 C169 1.365 1_554 S
C188 C182 1.375 1_545 S
C188 C187 1.523 . S
C189 C173 1.426 1_554 S
C189 C185 1.435 1_545 S
C189 C190 1.523 . S
C190 C174 1.372 1_545 S
C190 C186 1.362 1_554 S
C190 C189 1.523 . S
H191 C166 0.950 . S
H192 C168 0.950 . S
H193 C169 0.949 . S
H194 C171 0.950 . S
H195 C173 0.950 . S
C196 C197 1.348 1_655 S
C196 C198 1.327 . S
C196 H221 0.950 . S
C197 C196 1.348 1_455 S
C197 C213 1.350 . S
C198 C196 1.327 . S
C198 C217 1.428 1_655 S
C198 H222 0.950 . S
C199 C216 1.574 . S
C199 C218 1.369 . S
C199 H223 0.949 . S
H200 C204 0.949 . S
C201 C202 1.350 . S
C201 C203 1.327 . S
C201 H224 0.950 . S
C202 C201 1.350 . S
C202 C214 1.348 1_455 S
C203 C201 1.327 . S
C203 C219 1.429 . S
C203 H225 0.950 . S
C204 H200 0.949 . S
C204 C212 1.574 . S
C204 C220 1.368 1_655 S
H205 C213 0.950 . S
H206 C211 0.950 . S
H207 C212 0.949 . S
H208 C214 0.950 . S
H209 C215 0.950 . S
H210 C216 0.949 . S
C211 H206 0.950 . S
C211 C213 1.327 . S
C211 C217 1.429 . S
C212 C204 1.574 . S
C212 H207 0.949 . S
C212 C218 1.368 1_655 S
C213 C197 1.350 . S
C213 H205 0.950 . S
C213 C211 1.327 . S
C214 C202 1.348 1_655 S
C214 H208 0.950 . S
C214 C215 1.327 . S
C215 H209 0.950 . S
C215 C214 1.327 . S
C215 C219 1.428 1_655 S
C216 C199 1.574 . S
C216 H210 0.949 . S
C216 C220 1.369 . S
C217 C198 1.428 1_455 S
C217 C211 1.429 . S
C217 C218 1.523 . S
C218 C199 1.369 . S
C218 C212 1.368 1_455 S
C218 C217 1.523 . S
C219 C203 1.429 . S
C219 C215 1.428 1_455 S
C219 C220 1.523 . S
C220 C204 1.368 1_455 S
C220 C216 1.369 . S
C220 C219 1.523 . S
H221 C196 0.950 . S
H222 C198 0.950 . S
H223 C199 0.949 . S
H224 C201 0.950 . S
H225 C203 0.950 . S
C107 C22 1.496 . S
C112 C92 1.495 1_445 S
C137 C29 1.496 1_445 S
C142 C91 1.495 . S
C167 C39 1.488 1_544 S
C172 C38 1.505 . S
C197 C82 1.500 1_455 S
C202 C75 1.501 . S
