# Generated by pormake.
# Topology dmp, (4)-cn, num edge types: 1
# Building blocks:
#     Node 0, Type 0, BuildingBlock: NAHDIM_clean_sbu_0, # of connection points: 4
#     Node 1, Type 0, BuildingBlock: NAHDIM_clean_sbu_0, # of connection points: 4
#     Node 2, Type 0, BuildingBlock: NAHDIM_clean_sbu_0, # of connection points: 4
#     Node 3, Type 0, BuildingBlock: NAHDIM_clean_sbu_0, # of connection points: 4
#     Edge 4, Type (0, 0), BuildingBlock: EYOCIG_clean_linker_4, # of connection points: 2
#     Edge 5, Type (0, 0), BuildingBlock: EYOCIG_clean_linker_4, # of connection points: 2
#     Edge 6, Type (0, 0), BuildingBlock: EYOCIG_clean_linker_4, # of connection points: 2
#     Edge 7, Type (0, 0), BuildingBlock: EYOCIG_clean_linker_4, # of connection points: 2
#     Edge 8, Type (0, 0), BuildingBlock: EYOCIG_clean_linker_4, # of connection points: 2
#     Edge 9, Type (0, 0), BuildingBlock: EYOCIG_clean_linker_4, # of connection points: 2
#     Edge 10, Type (0, 0), BuildingBlock: EYOCIG_clean_linker_4, # of connection points: 2
#     Edge 11, Type (0, 0), BuildingBlock: EYOCIG_clean_linker_4, # of connection points: 2
# Relax obj value: 0.244
# Max RMSD: 0.269
# Mean RMSD: 0.269
data_MOF--net-dmp--node1-NAHDIM_clean_sbu_0--edge1-EYOCIG_clean_linker_4
_symmetry_space_group_name_H-M    P1
_symmetry_Int_Tables_number       1
_symmetry_cell_setting            triclinic
loop_
_symmetry_equiv_pos_as_xyz
'x, y, z'
_cell_length_a     31.196895
_cell_length_b     13.873346
_cell_length_c     15.159289
_cell_angle_alpha  89.995022
_cell_angle_beta   89.996633
_cell_angle_gamma 95.731673
loop_
_atom_site_label
_atom_site_type_symbol
_atom_site_fract_x
_atom_site_fract_y
_atom_site_fract_z
_atom_type_partial_charge
C0 C 0.00728 0.33622 0.35859 0.0
O1 O -0.0024 0.34366 0.27481 0.0
O2 O 0.02814 0.1455 0.20283 0.0
Zn3 Zn 0.0683 0.22434 0.28533 0.0
O4 O 0.10345 0.33614 0.22639 0.0
C5 C 0.12331 0.07084 0.29278 0.0
O6 O 0.10311 0.04325 0.21975 0.0
O7 O 0.03582 0.2825 0.382 0.0
C8 C 0.1366 0.32032 0.18224 0.0
O9 O 0.14455 0.23124 0.16551 0.0
C10 C 0.03018 0.15219 0.11944 0.0
O11 O 0.05839 0.21564 0.0819 0.0
O12 O 0.11199 0.1425 0.33582 0.0
C13 C 0.43052 0.64024 0.35585 0.0
O14 O 0.44042 0.63489 0.27201 0.0
O15 O 0.40911 0.83317 0.20283 0.0
Zn16 Zn 0.3691 0.75332 0.28495 0.0
O17 O 0.33313 0.64344 0.22515 0.0
C18 C 0.31482 0.90769 0.29512 0.0
O19 O 0.33543 0.93663 0.22293 0.0
O20 O 0.40173 0.69288 0.38014 0.0
C21 C 0.30039 0.66126 0.18055 0.0
O22 O 0.29364 0.75101 0.16342 0.0
C23 C 0.4071 0.82743 0.11939 0.0
O24 O 0.37915 0.7639 0.08125 0.0
O25 O 0.32578 0.83497 0.33713 0.0
C26 C 0.93166 0.64298 0.64473 0.0
O27 O 0.94147 0.63794 0.72864 0.0
O28 O 0.90919 0.83379 0.79788 0.0
Zn29 Zn 0.86943 0.75367 0.7155 0.0
O30 O 0.83375 0.64269 0.77445 0.0
C31 C 0.81434 0.90647 0.70674 0.0
O32 O 0.83495 0.93517 0.779 0.0
O33 O 0.9025 0.69456 0.62025 0.0
C34 C 0.80111 0.65972 0.81967 0.0
O35 O 0.79448 0.74915 0.83847 0.0
C36 C 0.90754 0.82738 0.8813 0.0
O37 O 0.88003 0.76291 0.9195 0.0
O38 O 0.82567 0.83465 0.66392 0.0
C39 C 0.50626 0.33331 0.64174 0.0
O40 O 0.49652 0.34018 0.72554 0.0
O41 O 0.52763 0.14548 0.79804 0.0
Zn42 Zn 0.56785 0.22333 0.71504 0.0
O43 O 0.60323 0.33565 0.77279 0.0
C44 C 0.6225 0.06912 0.70952 0.0
O45 O 0.60218 0.04272 0.78272 0.0
O46 O 0.53518 0.28068 0.61819 0.0
C47 C 0.63638 0.32008 0.81705 0.0
O48 O 0.64411 0.23111 0.8349 0.0
C49 C 0.52964 0.15255 0.88139 0.0
O50 O 0.5579 0.21601 0.91875 0.0
O51 O 0.61138 0.14036 0.66554 0.0
C52 C 0.23948 0.97214 0.32327 0.0
C53 C 0.2737 0.94087 0.31265 0.0
C54 C 0.19837 0.0057 0.32255 0.0
C55 C 0.16424 0.03709 0.31101 0.0
C56 C 0.19965 0.45792 0.15642 0.0
C57 C 0.17019 0.39681 0.16912 0.0
C58 C 0.23608 0.52635 0.15589 0.0
C59 C 0.26592 0.58671 0.16783 0.0
C60 C 0.69746 0.00294 0.68082 0.0
C61 C 0.66337 0.03466 0.69202 0.0
C62 C 0.73861 0.96954 0.67988 0.0
C63 C 0.77301 0.93887 0.68982 0.0
C64 C 0.73647 0.52502 0.84212 0.0
C65 C 0.7665 0.58517 0.8311 0.0
C66 C 0.69983 0.45714 0.84137 0.0
C67 C 0.67015 0.3964 0.82928 0.0
C68 C -0.01844 0.02582 0.02407 0.0
C69 C 0.00404 0.08417 0.06649 0.0
C70 C 0.95575 0.95553 0.97564 0.0
C71 C 0.93349 0.89641 0.93361 0.0
C72 C 0.48105 0.02612 0.97675 0.0
C73 C 0.50354 0.08456 0.93445 0.0
C74 C 0.45526 0.95567 0.02505 0.0
C75 C 0.43302 0.89652 0.06708 0.0
C76 C 0.96246 0.52294 0.53214 0.0
C77 C 0.94835 0.57783 0.58345 0.0
C78 C -0.02252 0.45585 0.47289 0.0
C79 C -0.00875 0.40096 0.4211 0.0
C80 C 0.46066 0.51945 0.46865 0.0
C81 C 0.44681 0.57475 0.41735 0.0
C82 C 0.47574 0.45231 0.52779 0.0
C83 C 0.48982 0.39773 0.57945 0.0
loop_
_geom_bond_atom_site_label_1
_geom_bond_atom_site_label_2
_geom_bond_distance
_geom_bond_site_symmetry_2
_ccdc_geom_bond_type
C0 O1 1.160 . S
C0 O7 1.185 . S
O1 C0 1.160 . S
O2 Zn3 1.899 . S
O2 C10 1.284 . S
Zn3 O2 1.899 . S
Zn3 O4 2.032 . S
Zn3 O7 2.086 . S
Zn3 O12 1.977 . S
O4 Zn3 2.032 . S
O4 C8 1.278 . S
C5 O6 1.203 . S
C5 O12 1.267 . S
O6 C5 1.203 . S
O7 C0 1.185 . S
O7 Zn3 2.086 . S
C8 O4 1.278 . S
C8 O9 1.211 . S
O9 C8 1.211 . S
C10 O2 1.284 . S
C10 O11 1.273 . S
O11 C10 1.273 . S
O12 Zn3 1.977 . S
O12 C5 1.267 . S
C13 O14 1.160 . S
C13 O20 1.185 . S
O14 C13 1.160 . S
O15 Zn16 1.899 . S
O15 C23 1.284 . S
Zn16 O15 1.899 . S
Zn16 O17 2.032 . S
Zn16 O20 2.086 . S
Zn16 O25 1.977 . S
O17 Zn16 2.032 . S
O17 C21 1.278 . S
C18 O19 1.203 . S
C18 O25 1.267 . S
O19 C18 1.203 . S
O20 C13 1.185 . S
O20 Zn16 2.086 . S
C21 O17 1.278 . S
C21 O22 1.211 . S
O22 C21 1.211 . S
C23 O15 1.284 . S
C23 O24 1.273 . S
O24 C23 1.273 . S
O25 Zn16 1.977 . S
O25 C18 1.267 . S
C26 O27 1.160 . S
C26 O33 1.185 . S
O27 C26 1.160 . S
O28 Zn29 1.899 . S
O28 C36 1.284 . S
Zn29 O28 1.899 . S
Zn29 O30 2.032 . S
Zn29 O33 2.086 . S
Zn29 O38 1.977 . S
O30 Zn29 2.032 . S
O30 C34 1.278 . S
C31 O32 1.203 . S
C31 O38 1.267 . S
O32 C31 1.203 . S
O33 C26 1.185 . S
O33 Zn29 2.086 . S
C34 O30 1.278 . S
C34 O35 1.211 . S
O35 C34 1.211 . S
C36 O28 1.284 . S
C36 O37 1.273 . S
O37 C36 1.273 . S
O38 Zn29 1.977 . S
O38 C31 1.267 . S
C39 O40 1.160 . S
C39 O46 1.185 . S
O40 C39 1.160 . S
O41 Zn42 1.899 . S
O41 C49 1.284 . S
Zn42 O41 1.899 . S
Zn42 O43 2.032 . S
Zn42 O46 2.086 . S
Zn42 O51 1.977 . S
O43 Zn42 2.032 . S
O43 C47 1.278 . S
C44 O45 1.203 . S
C44 O51 1.267 . S
O45 C44 1.203 . S
O46 C39 1.185 . S
O46 Zn42 2.086 . S
C47 O43 1.278 . S
C47 O48 1.211 . S
O48 C47 1.211 . S
C49 O41 1.284 . S
C49 O50 1.273 . S
O50 C49 1.273 . S
O51 Zn42 1.977 . S
O51 C44 1.267 . S
C52 C53 1.170 . S
C52 C54 1.380 1_565 S
C53 C52 1.170 . S
C54 C52 1.380 1_545 S
C54 C55 1.170 . S
C55 C54 1.170 . S
C56 C57 1.170 . S
C56 C58 1.380 . S
C57 C56 1.170 . S
C58 C56 1.380 . S
C58 C59 1.170 . S
C59 C58 1.170 . S
C60 C61 1.170 . S
C60 C62 1.380 1_545 S
C61 C60 1.170 . S
C62 C60 1.380 1_565 S
C62 C63 1.170 . S
C63 C62 1.170 . S
C64 C65 1.170 . S
C64 C66 1.380 . S
C65 C64 1.170 . S
C66 C64 1.380 . S
C66 C67 1.170 . S
C67 C66 1.170 . S
C68 C69 1.170 . S
C68 C70 1.380 1_444 S
C69 C68 1.170 . S
C70 C68 1.380 1_666 S
C70 C71 1.170 . S
C71 C70 1.170 . S
C72 C73 1.170 . S
C72 C74 1.380 1_546 S
C73 C72 1.170 . S
C74 C72 1.380 1_564 S
C74 C75 1.170 . S
C75 C74 1.170 . S
C76 C77 1.170 . S
C76 C78 1.380 1_655 S
C77 C76 1.170 . S
C78 C76 1.380 1_455 S
C78 C79 1.170 . S
C79 C78 1.170 . S
C80 C81 1.170 . S
C80 C82 1.380 . S
C81 C80 1.170 . S
C82 C80 1.380 . S
C82 C83 1.170 . S
C83 C82 1.170 . S
C53 C18 1.092 . S
C55 C5 1.093 . S
C57 C8 0.918 . S
C59 C21 0.834 . S
C61 C44 1.076 . S
C63 C31 1.024 . S
C65 C34 0.830 . S
C67 C47 0.924 . S
C69 C10 1.634 . S
C71 C36 1.614 . S
C73 C49 1.629 . S
C75 C23 1.614 . S
C77 C26 1.557 . S
C79 C0 1.587 . S
C81 C13 1.566 . S
C83 C39 1.574 . S
