# Generated by pormake.
# Topology umz, (4)-cn, num edge types: 1
# Building blocks:
#     Node 0, Type 0, BuildingBlock: NAHDIM_clean_sbu_0, # of connection points: 4
#     Node 1, Type 0, BuildingBlock: NAHDIM_clean_sbu_0, # of connection points: 4
#     Node 2, Type 0, BuildingBlock: NAHDIM_clean_sbu_0, # of connection points: 4
#     Node 3, Type 0, BuildingBlock: NAHDIM_clean_sbu_0, # of connection points: 4
#     Node 4, Type 0, BuildingBlock: NAHDIM_clean_sbu_0, # of connection points: 4
#     Node 5, Type 0, BuildingBlock: NAHDIM_clean_sbu_0, # of connection points: 4
#     Node 6, Type 0, BuildingBlock: NAHDIM_clean_sbu_0, # of connection points: 4
#     Node 7, Type 0, BuildingBlock: NAHDIM_clean_sbu_0, # of connection points: 4
#     Node 8, Type 0, BuildingBlock: NAHDIM_clean_sbu_0, # of connection points: 4
#     Node 9, Type 0, BuildingBlock: NAHDIM_clean_sbu_0, # of connection points: 4
#     Node 10, Type 0, BuildingBlock: NAHDIM_clean_sbu_0, # of connection points: 4
#     Node 11, Type 0, BuildingBlock: NAHDIM_clean_sbu_0, # of connection points: 4
#     Node 12, Type 0, BuildingBlock: NAHDIM_clean_sbu_0, # of connection points: 4
#     Node 13, Type 0, BuildingBlock: NAHDIM_clean_sbu_0, # of connection points: 4
#     Node 14, Type 0, BuildingBlock: NAHDIM_clean_sbu_0, # of connection points: 4
#     Node 15, Type 0, BuildingBlock: NAHDIM_clean_sbu_0, # of connection points: 4
#     Edge 16, Type (0, 0), None
#     Edge 17, Type (0, 0), None
#     Edge 18, Type (0, 0), None
#     Edge 19, Type (0, 0), None
#     Edge 20, Type (0, 0), None
#     Edge 21, Type (0, 0), None
#     Edge 22, Type (0, 0), None
#     Edge 23, Type (0, 0), None
#     Edge 24, Type (0, 0), None
#     Edge 25, Type (0, 0), None
#     Edge 26, Type (0, 0), None
#     Edge 27, Type (0, 0), None
#     Edge 28, Type (0, 0), None
#     Edge 29, Type (0, 0), None
#     Edge 30, Type (0, 0), None
#     Edge 31, Type (0, 0), None
#     Edge 32, Type (0, 0), None
#     Edge 33, Type (0, 0), None
#     Edge 34, Type (0, 0), None
#     Edge 35, Type (0, 0), None
#     Edge 36, Type (0, 0), None
#     Edge 37, Type (0, 0), None
#     Edge 38, Type (0, 0), None
#     Edge 39, Type (0, 0), None
#     Edge 40, Type (0, 0), None
#     Edge 41, Type (0, 0), None
#     Edge 42, Type (0, 0), None
#     Edge 43, Type (0, 0), None
#     Edge 44, Type (0, 0), None
#     Edge 45, Type (0, 0), None
#     Edge 46, Type (0, 0), None
#     Edge 47, Type (0, 0), None
# Relax obj value: 0.211
# Max RMSD: 0.163
# Mean RMSD: 0.161
data_MOF--net-umz--node1-NAHDIM_clean_sbu_0--edge1-none
_symmetry_space_group_name_H-M    P1
_symmetry_Int_Tables_number       1
_symmetry_cell_setting            triclinic
loop_
_symmetry_equiv_pos_as_xyz
'x, y, z'
_cell_length_a     28.546303
_cell_length_b     28.546311
_cell_length_c     10.183289
_cell_angle_alpha  90.001609
_cell_angle_beta   90.010134
_cell_angle_gamma 90.003702
loop_
_atom_site_label
_atom_site_type_symbol
_atom_site_fract_x
_atom_site_fract_y
_atom_site_fract_z
_atom_type_partial_charge
C0 C 0.02147 0.71389 -0.02003 0.0
O1 O 0.01871 0.68771 0.8743 0.0
O2 O 0.95653 0.60835 0.21399 0.0
Zn3 Zn 0.01521 0.62472 0.11385 0.0
O4 O 0.02368 0.5915 0.93949 0.0
C5 C 0.06149 0.55243 0.237 0.0
O6 O 0.03368 0.52982 0.15619 0.0
O7 O 0.02134 0.69485 0.09294 0.0
C8 C 0.06571 0.58578 0.90045 0.0
O9 O 0.10041 0.60276 0.97047 0.0
C10 C 0.92444 0.58114 0.1746 0.0
O11 O 0.92404 0.56756 0.05137 0.0
O12 O 0.06274 0.59701 0.2347 0.0
C13 C 0.76503 0.0215 0.47989 0.0
O14 O 0.7912 0.0188 0.37423 0.0
O15 O 0.87055 0.95651 0.71398 0.0
Zn16 Zn 0.85419 0.01519 0.61383 0.0
O17 O 0.88742 0.02366 0.43948 0.0
C18 C 0.92648 0.06147 0.73701 0.0
O19 O 0.94909 0.03365 0.65624 0.0
O20 O 0.78406 0.02132 0.59287 0.0
C21 C 0.89314 0.06568 0.40044 0.0
O22 O 0.87617 0.10039 0.47044 0.0
C23 C 0.89775 0.92441 0.67458 0.0
O24 O 0.91132 0.92401 0.55134 0.0
O25 O 0.88191 0.06272 0.73469 0.0
C26 C 0.45745 0.76502 -0.0202 0.0
O27 O 0.46011 0.79119 0.87412 0.0
O28 O 0.52246 0.87056 0.21385 0.0
Zn29 Zn 0.46378 0.85418 0.11369 0.0
O30 O 0.45531 0.88741 0.93932 0.0
C31 C 0.41749 0.92647 0.23681 0.0
O32 O 0.44531 0.94908 0.15604 0.0
O33 O 0.45766 0.78406 0.09277 0.0
C34 C 0.41328 0.89313 0.90025 0.0
O35 O 0.37858 0.87617 0.97024 0.0
C36 C 0.55453 0.89779 0.17445 0.0
O37 O 0.55491 0.91137 0.05122 0.0
O38 O 0.41625 0.8819 0.23451 0.0
C39 C 0.71391 0.45747 0.47989 0.0
O40 O 0.68774 0.46015 0.37419 0.0
O41 O 0.60837 0.52247 0.71386 0.0
Zn42 Zn 0.62474 0.46379 0.61372 0.0
O43 O 0.59152 0.45532 0.43933 0.0
C44 C 0.55245 0.4175 0.73681 0.0
O45 O 0.52984 0.44531 0.65601 0.0
O46 O 0.69487 0.45767 0.59285 0.0
C47 C 0.58579 0.41329 0.40028 0.0
O48 O 0.60276 0.37859 0.47029 0.0
C49 C 0.58113 0.55454 0.67447 0.0
O50 O 0.56753 0.55491 0.55124 0.0
O51 O 0.59702 0.41626 0.73454 0.0
C52 C 0.02149 0.76502 0.96771 0.0
O53 O 0.01893 0.7912 0.07341 0.0
O54 O 0.9565 0.87061 0.7336 0.0
Zn55 Zn 0.01515 0.85419 0.83383 0.0
O56 O 0.02363 0.88742 0.0082 0.0
C57 C 0.06148 0.92646 0.71074 0.0
O58 O 0.03366 0.94907 0.79148 0.0
O59 O 0.02122 0.78406 0.85474 0.0
C60 C 0.06565 0.89313 0.04728 0.0
O61 O 0.10035 0.87615 -0.0227 0.0
C62 C 0.92436 0.89776 0.77301 0.0
O63 O 0.92388 0.91126 0.89631 0.0
O64 O 0.06271 0.88188 0.71305 0.0
C65 C 0.71389 0.02152 0.46759 0.0
O66 O 0.68771 0.0189 0.57327 0.0
O67 O 0.6083 0.95658 0.23345 0.0
Zn68 Zn 0.62473 0.01523 0.33366 0.0
O69 O 0.5915 0.02371 0.50802 0.0
C70 C 0.55246 0.06155 0.21052 0.0
O71 O 0.52985 0.03372 0.29126 0.0
O72 O 0.69485 0.02131 0.35461 0.0
C73 C 0.58579 0.06573 0.54708 0.0
O74 O 0.60277 0.10043 0.47709 0.0
C75 C 0.58119 0.92441 0.27288 0.0
O76 O 0.56771 0.9239 0.39619 0.0
O77 O 0.59704 0.06279 0.21285 0.0
C78 C 0.45743 0.71388 0.96754 0.0
O79 O 0.46009 0.68771 0.07323 0.0
O80 O 0.52235 0.6083 0.73348 0.0
Zn81 Zn 0.4637 0.62471 0.83367 0.0
O82 O 0.45523 0.59149 0.00804 0.0
C83 C 0.41739 0.55244 0.71055 0.0
O84 O 0.44521 0.52983 0.79132 0.0
O85 O 0.45762 0.69484 0.85457 0.0
C86 C 0.4132 0.58578 0.04708 0.0
O87 O 0.3785 0.60276 -0.02293 0.0
C88 C 0.55452 0.58118 0.7729 0.0
O89 O 0.55504 0.56769 0.89621 0.0
O90 O 0.41615 0.59701 0.71285 0.0
C91 C 0.76505 0.45746 0.46766 0.0
O92 O 0.79122 0.46011 0.57337 0.0
O93 O 0.87064 0.52239 0.23363 0.0
Zn94 Zn 0.85422 0.46374 0.33384 0.0
O95 O 0.88744 0.45527 0.50823 0.0
C96 C 0.92649 0.41742 0.21079 0.0
O97 O 0.94911 0.44524 0.29157 0.0
O98 O 0.78409 0.45766 0.35471 0.0
C99 C 0.89315 0.41325 0.5473 0.0
O100 O 0.87617 0.37855 0.4773 0.0
C101 C 0.89779 0.55453 0.27304 0.0
O102 O 0.91131 0.55503 0.39633 0.0
O103 O 0.88192 0.41618 0.21306 0.0
C104 C 0.93871 0.26345 0.94823 0.0
O105 O 0.89888 0.28618 0.9382 0.0
O106 O 0.93029 0.36106 0.69652 0.0
Zn107 Zn 0.96864 0.35124 0.86032 0.0
O108 O 0.9319 0.38032 0.00502 0.0
C109 C 0.04802 0.39469 0.72986 0.0
O110 O 0.02863 0.37722 0.62367 0.0
O111 O 0.97639 0.2834 0.91218 0.0
C112 C 0.95249 0.39245 0.10969 0.0
O113 O -0.002 0.38703 0.12043 0.0
C114 C 0.92 0.40314 0.66655 0.0
O115 O 0.93493 0.43765 0.74087 0.0
O116 O 0.03009 0.3861 0.84162 0.0
C117 C 0.21548 0.93868 0.44812 0.0
O118 O 0.19275 0.89884 0.43809 0.0
O119 O 0.11784 0.93027 0.19652 0.0
Zn120 Zn 0.12768 0.96861 0.36031 0.0
O121 O 0.09861 0.93186 0.50503 0.0
C122 C 0.08423 0.048 0.22986 0.0
O123 O 0.10169 0.02862 0.12367 0.0
O124 O 0.19552 0.97636 0.41212 0.0
C125 C 0.08645 0.95246 0.60966 0.0
O126 O 0.09187 -0.00203 0.62036 0.0
C127 C 0.07576 0.91998 0.16653 0.0
O128 O 0.04125 0.9349 0.24083 0.0
O129 O 0.09282 0.03006 0.34162 0.0
C130 C 0.54024 0.21553 0.94794 0.0
O131 O 0.58007 0.19281 0.93791 0.0
O132 O 0.54865 0.11791 0.69627 0.0
Zn133 Zn 0.51031 0.12773 0.86005 0.0
O134 O 0.54706 0.09866 0.00477 0.0
C135 C 0.43093 0.08425 0.72956 0.0
O136 O 0.45031 0.10171 0.62336 0.0
O137 O 0.50255 0.19557 0.9119 0.0
C138 C 0.52647 0.08652 0.10941 0.0
O139 O 0.48095 0.09194 0.1201 0.0
C140 C 0.55895 0.07583 0.66631 0.0
O141 O 0.54402 0.04132 0.74062 0.0
O142 O 0.44886 0.09286 0.84132 0.0
C143 C 0.26343 0.54021 0.44804 0.0
O144 O 0.28616 0.58004 0.43799 0.0
O145 O 0.36102 0.54863 0.19627 0.0
Zn146 Zn 0.3512 0.51028 0.36005 0.0
O147 O 0.38029 0.54703 0.50475 0.0
C148 C 0.39467 0.43092 0.22955 0.0
O149 O 0.37721 0.45031 0.12336 0.0
O150 O 0.28337 0.50253 0.41195 0.0
C151 C 0.39242 0.52644 0.60942 0.0
O152 O 0.38698 0.48093 0.62015 0.0
C153 C 0.4031 0.55893 0.16632 0.0
O154 O 0.43761 0.54401 0.24065 0.0
O155 O 0.38607 0.44884 0.34132 0.0
C156 C 0.93871 0.21547 -0.00045 0.0
O157 O 0.89888 0.19274 0.00957 0.0
O158 O 0.93029 0.11786 0.25125 0.0
Zn159 Zn 0.96864 0.12768 0.08748 0.0
O160 O 0.9319 0.0986 0.94275 0.0
C161 C 0.04801 0.08423 0.218 0.0
O162 O 0.02863 0.10168 0.3242 0.0
O163 O 0.97639 0.19552 0.03561 0.0
C164 C 0.95249 0.08643 0.83813 0.0
O165 O -0.002 0.09184 0.82746 0.0
C166 C 0.91999 0.07579 0.28121 0.0
O167 O 0.93491 0.04127 0.2069 0.0
O168 O 0.03009 0.09283 0.10623 0.0
C169 C 0.26347 0.93868 0.49939 0.0
O170 O 0.2862 0.89885 0.5094 0.0
O171 O 0.36111 0.93028 0.75102 0.0
Zn172 Zn 0.35128 0.96862 0.58723 0.0
O173 O 0.38035 0.93188 0.44251 0.0
C174 C 0.39472 0.04802 0.71771 0.0
O175 O 0.37727 0.02864 0.82391 0.0
O176 O 0.28344 0.97636 0.5354 0.0
C177 C 0.39252 0.95247 0.3379 0.0
O178 O 0.38712 -0.00201 0.32721 0.0
C179 C 0.40318 0.91998 0.78101 0.0
O180 O 0.43769 0.9349 0.7067 0.0
O181 O 0.38612 0.03008 0.60595 0.0
C182 C 0.54024 0.26351 -0.00072 0.0
O183 O 0.58007 0.28625 0.0093 0.0
O184 O 0.54864 0.36111 0.25104 0.0
Zn185 Zn 0.51029 0.35129 0.08723 0.0
O186 O 0.54704 0.38038 0.94255 0.0
C187 C 0.43091 0.39471 0.2177 0.0
O188 O 0.45029 0.37725 0.3239 0.0
O189 O 0.50255 0.28345 0.03534 0.0
C190 C 0.52645 0.39253 0.8379 0.0
O191 O 0.48093 0.38712 0.82716 0.0
C192 C 0.55894 0.40319 0.28102 0.0
O193 O 0.54402 0.4377 0.2067 0.0
O194 O 0.44884 0.38613 0.10594 0.0
C195 C 0.21546 0.54021 0.49943 0.0
O196 O 0.19273 0.58004 0.50944 0.0
O197 O 0.11788 0.54863 0.75126 0.0
Zn198 Zn 0.12769 0.51028 0.58748 0.0
O199 O 0.0986 0.54702 0.44278 0.0
C200 C 0.08424 0.43091 0.718 0.0
O201 O 0.1017 0.4503 0.82419 0.0
O202 O 0.19552 0.50253 0.53555 0.0
C203 C 0.08645 0.52643 0.33812 0.0
O204 O 0.09188 0.48092 0.32739 0.0
C205 C 0.07581 0.55893 0.78121 0.0
O206 O 0.0413 0.544 0.70689 0.0
O207 O 0.09284 0.44883 0.60622 0.0
loop_
_geom_bond_atom_site_label_1
_geom_bond_atom_site_label_2
_geom_bond_distance
_geom_bond_site_symmetry_2
_ccdc_geom_bond_type
C0 O1 1.160 1_455 S
C0 O7 1.185 . S
O1 C0 1.160 1_655 S
O2 Zn3 1.899 1_655 S
O2 C10 1.284 . S
Zn3 O2 1.899 1_455 S
Zn3 O4 2.032 1_554 S
Zn3 O7 2.086 . S
Zn3 O12 1.977 . S
O4 Zn3 2.032 1_556 S
O4 C8 1.278 . S
C5 O6 1.203 . S
C5 O12 1.267 . S
O6 C5 1.203 . S
O7 C0 1.185 . S
O7 Zn3 2.086 . S
C8 O4 1.278 . S
C8 O9 1.211 1_556 S
O9 C8 1.211 1_554 S
C10 O2 1.284 . S
C10 O11 1.273 . S
O11 C10 1.273 . S
O12 Zn3 1.977 . S
O12 C5 1.267 . S
C13 O14 1.160 1_545 S
C13 O20 1.185 . S
O14 C13 1.160 1_565 S
O15 Zn16 1.899 1_565 S
O15 C23 1.284 . S
Zn16 O15 1.899 1_545 S
Zn16 O17 2.032 . S
Zn16 O20 2.086 . S
Zn16 O25 1.977 . S
O17 Zn16 2.032 . S
O17 C21 1.278 . S
C18 O19 1.203 . S
C18 O25 1.267 . S
O19 C18 1.203 . S
O20 C13 1.185 . S
O20 Zn16 2.086 . S
C21 O17 1.278 . S
C21 O22 1.211 . S
O22 C21 1.211 . S
C23 O15 1.284 . S
C23 O24 1.273 . S
O24 C23 1.273 . S
O25 Zn16 1.977 . S
O25 C18 1.267 . S
C26 O27 1.160 . S
C26 O33 1.185 . S
O27 C26 1.160 . S
O28 Zn29 1.899 . S
O28 C36 1.284 . S
Zn29 O28 1.899 . S
Zn29 O30 2.032 1_554 S
Zn29 O33 2.086 . S
Zn29 O38 1.977 . S
O30 Zn29 2.032 1_556 S
O30 C34 1.278 . S
C31 O32 1.203 . S
C31 O38 1.267 . S
O32 C31 1.203 . S
O33 C26 1.185 . S
O33 Zn29 2.086 . S
C34 O30 1.278 . S
C34 O35 1.211 1_556 S
O35 C34 1.211 1_554 S
C36 O28 1.284 . S
C36 O37 1.273 . S
O37 C36 1.273 . S
O38 Zn29 1.977 . S
O38 C31 1.267 . S
C39 O40 1.160 . S
C39 O46 1.185 . S
O40 C39 1.160 . S
O41 Zn42 1.899 . S
O41 C49 1.284 . S
Zn42 O41 1.899 . S
Zn42 O43 2.032 . S
Zn42 O46 2.086 . S
Zn42 O51 1.977 . S
O43 Zn42 2.032 . S
O43 C47 1.278 . S
C44 O45 1.203 . S
C44 O51 1.267 . S
O45 C44 1.203 . S
O46 C39 1.185 . S
O46 Zn42 2.086 . S
C47 O43 1.278 . S
C47 O48 1.211 . S
O48 C47 1.211 . S
C49 O41 1.284 . S
C49 O50 1.273 . S
O50 C49 1.273 . S
O51 Zn42 1.977 . S
O51 C44 1.267 . S
C52 O53 1.160 1_455 S
C52 O59 1.185 . S
O53 C52 1.160 1_655 S
O54 Zn55 1.899 1_655 S
O54 C62 1.284 . S
Zn55 O54 1.899 1_455 S
Zn55 O56 2.032 1_556 S
Zn55 O59 2.086 . S
Zn55 O64 1.977 . S
O56 Zn55 2.032 1_554 S
O56 C60 1.278 . S
C57 O58 1.203 . S
C57 O64 1.267 . S
O58 C57 1.203 . S
O59 C52 1.185 . S
O59 Zn55 2.086 . S
C60 O56 1.278 . S
C60 O61 1.211 1_554 S
O61 C60 1.211 1_556 S
C62 O54 1.284 . S
C62 O63 1.273 . S
O63 C62 1.273 . S
O64 Zn55 1.977 . S
O64 C57 1.267 . S
C65 O66 1.160 1_545 S
C65 O72 1.185 . S
O66 C65 1.160 1_565 S
O67 Zn68 1.899 1_565 S
O67 C75 1.284 . S
Zn68 O67 1.899 1_545 S
Zn68 O69 2.032 . S
Zn68 O72 2.086 . S
Zn68 O77 1.977 . S
O69 Zn68 2.032 . S
O69 C73 1.278 . S
C70 O71 1.203 . S
C70 O77 1.267 . S
O71 C70 1.203 . S
O72 C65 1.185 . S
O72 Zn68 2.086 . S
C73 O69 1.278 . S
C73 O74 1.211 . S
O74 C73 1.211 . S
C75 O67 1.284 . S
C75 O76 1.273 . S
O76 C75 1.273 . S
O77 Zn68 1.977 . S
O77 C70 1.267 . S
C78 O79 1.160 . S
C78 O85 1.185 . S
O79 C78 1.160 . S
O80 Zn81 1.899 . S
O80 C88 1.284 . S
Zn81 O80 1.899 . S
Zn81 O82 2.032 1_556 S
Zn81 O85 2.086 . S
Zn81 O90 1.977 . S
O82 Zn81 2.032 1_554 S
O82 C86 1.278 . S
C83 O84 1.203 . S
C83 O90 1.267 . S
O84 C83 1.203 . S
O85 C78 1.185 . S
O85 Zn81 2.086 . S
C86 O82 1.278 . S
C86 O87 1.211 1_554 S
O87 C86 1.211 1_556 S
C88 O80 1.284 . S
C88 O89 1.273 . S
O89 C88 1.273 . S
O90 Zn81 1.977 . S
O90 C83 1.267 . S
C91 O92 1.160 . S
C91 O98 1.185 . S
O92 C91 1.160 . S
O93 Zn94 1.899 . S
O93 C101 1.284 . S
Zn94 O93 1.899 . S
Zn94 O95 2.032 . S
Zn94 O98 2.086 . S
Zn94 O103 1.977 . S
O95 Zn94 2.032 . S
O95 C99 1.278 . S
C96 O97 1.203 . S
C96 O103 1.267 . S
O97 C96 1.203 . S
O98 C91 1.185 . S
O98 Zn94 2.086 . S
C99 O95 1.278 . S
C99 O100 1.211 . S
O100 C99 1.211 . S
C101 O93 1.284 . S
C101 O102 1.273 . S
O102 C101 1.273 . S
O103 Zn94 1.977 . S
O103 C96 1.267 . S
C104 O105 1.160 . S
C104 O111 1.185 1_655 S
O105 C104 1.160 . S
O106 Zn107 1.899 . S
O106 C114 1.284 . S
Zn107 O106 1.899 . S
Zn107 O108 2.032 1_556 S
Zn107 O111 2.086 1_655 S
Zn107 O116 1.977 1_655 S
O108 Zn107 2.032 1_554 S
O108 C112 1.278 . S
C109 O110 1.203 . S
C109 O116 1.267 . S
O110 C109 1.203 . S
O111 C104 1.185 1_455 S
O111 Zn107 2.086 1_455 S
C112 O108 1.278 . S
C112 O113 1.211 . S
O113 C112 1.211 . S
C114 O106 1.284 . S
C114 O115 1.273 . S
O115 C114 1.273 . S
O116 Zn107 1.977 1_455 S
O116 C109 1.267 . S
C117 O118 1.160 . S
C117 O124 1.185 1_565 S
O118 C117 1.160 . S
O119 Zn120 1.899 . S
O119 C127 1.284 . S
Zn120 O119 1.899 . S
Zn120 O121 2.032 . S
Zn120 O124 2.086 1_565 S
Zn120 O129 1.977 1_565 S
O121 Zn120 2.032 . S
O121 C125 1.278 . S
C122 O123 1.203 . S
C122 O129 1.267 . S
O123 C122 1.203 . S
O124 C117 1.185 1_545 S
O124 Zn120 2.086 1_545 S
C125 O121 1.278 . S
C125 O126 1.211 . S
O126 C125 1.211 . S
C127 O119 1.284 . S
C127 O128 1.273 . S
O128 C127 1.273 . S
O129 Zn120 1.977 1_545 S
O129 C122 1.267 . S
C130 O131 1.160 . S
C130 O137 1.185 . S
O131 C130 1.160 . S
O132 Zn133 1.899 . S
O132 C140 1.284 . S
Zn133 O132 1.899 . S
Zn133 O134 2.032 1_556 S
Zn133 O137 2.086 . S
Zn133 O142 1.977 . S
O134 Zn133 2.032 1_554 S
O134 C138 1.278 . S
C135 O136 1.203 . S
C135 O142 1.267 . S
O136 C135 1.203 . S
O137 C130 1.185 . S
O137 Zn133 2.086 . S
C138 O134 1.278 . S
C138 O139 1.211 . S
O139 C138 1.211 . S
C140 O132 1.284 . S
C140 O141 1.273 . S
O141 C140 1.273 . S
O142 Zn133 1.977 . S
O142 C135 1.267 . S
C143 O144 1.160 . S
C143 O150 1.185 . S
O144 C143 1.160 . S
O145 Zn146 1.899 . S
O145 C153 1.284 . S
Zn146 O145 1.899 . S
Zn146 O147 2.032 . S
Zn146 O150 2.086 . S
Zn146 O155 1.977 . S
O147 Zn146 2.032 . S
O147 C151 1.278 . S
C148 O149 1.203 . S
C148 O155 1.267 . S
O149 C148 1.203 . S
O150 C143 1.185 . S
O150 Zn146 2.086 . S
C151 O147 1.278 . S
C151 O152 1.211 . S
O152 C151 1.211 . S
C153 O145 1.284 . S
C153 O154 1.273 . S
O154 C153 1.273 . S
O155 Zn146 1.977 . S
O155 C148 1.267 . S
C156 O157 1.160 . S
C156 O163 1.185 1_655 S
O157 C156 1.160 . S
O158 Zn159 1.899 . S
O158 C166 1.284 . S
Zn159 O158 1.899 . S
Zn159 O160 2.032 1_554 S
Zn159 O163 2.086 1_655 S
Zn159 O168 1.977 1_655 S
O160 Zn159 2.032 1_556 S
O160 C164 1.278 . S
C161 O162 1.203 . S
C161 O168 1.267 . S
O162 C161 1.203 . S
O163 C156 1.185 1_455 S
O163 Zn159 2.086 1_455 S
C164 O160 1.278 . S
C164 O165 1.211 . S
O165 C164 1.211 . S
C166 O158 1.284 . S
C166 O167 1.273 . S
O167 C166 1.273 . S
O168 Zn159 1.977 1_455 S
O168 C161 1.267 . S
C169 O170 1.160 . S
C169 O176 1.185 1_565 S
O170 C169 1.160 . S
O171 Zn172 1.899 . S
O171 C179 1.284 . S
Zn172 O171 1.899 . S
Zn172 O173 2.032 . S
Zn172 O176 2.086 1_565 S
Zn172 O181 1.977 1_565 S
O173 Zn172 2.032 . S
O173 C177 1.278 . S
C174 O175 1.203 . S
C174 O181 1.267 . S
O175 C174 1.203 . S
O176 C169 1.185 1_545 S
O176 Zn172 2.086 1_545 S
C177 O173 1.278 . S
C177 O178 1.211 . S
O178 C177 1.211 . S
C179 O171 1.284 . S
C179 O180 1.273 . S
O180 C179 1.273 . S
O181 Zn172 1.977 1_545 S
O181 C174 1.267 . S
C182 O183 1.160 . S
C182 O189 1.185 . S
O183 C182 1.160 . S
O184 Zn185 1.899 . S
O184 C192 1.284 . S
Zn185 O184 1.899 . S
Zn185 O186 2.032 1_554 S
Zn185 O189 2.086 . S
Zn185 O194 1.977 . S
O186 Zn185 2.032 1_556 S
O186 C190 1.278 . S
C187 O188 1.203 . S
C187 O194 1.267 . S
O188 C187 1.203 . S
O189 C182 1.185 . S
O189 Zn185 2.086 . S
C190 O186 1.278 . S
C190 O191 1.211 . S
O191 C190 1.211 . S
C192 O184 1.284 . S
C192 O193 1.273 . S
O193 C192 1.273 . S
O194 Zn185 1.977 . S
O194 C187 1.267 . S
C195 O196 1.160 . S
C195 O202 1.185 . S
O196 C195 1.160 . S
O197 Zn198 1.899 . S
O197 C205 1.284 . S
Zn198 O197 1.899 . S
Zn198 O199 2.032 . S
Zn198 O202 2.086 . S
Zn198 O207 1.977 . S
O199 Zn198 2.032 . S
O199 C203 1.278 . S
C200 O201 1.203 . S
C200 O207 1.267 . S
O201 C200 1.203 . S
O202 C195 1.185 . S
O202 Zn198 2.086 . S
C203 O199 1.278 . S
C203 O204 1.211 . S
O204 C203 1.211 . S
C205 O197 1.284 . S
C205 O206 1.273 . S
O206 C205 1.273 . S
O207 Zn198 1.977 . S
O207 C200 1.267 . S
C0 C52 1.530 1_554 S
C65 C13 1.530 . S
C26 C78 1.530 1_554 S
C39 C91 1.530 . S
C104 C156 2.087 1_556 S
C169 C117 2.087 . S
C130 C182 2.087 1_556 S
C143 C195 2.087 . S
C8 C205 1.426 . S
C166 C21 1.426 . S
C34 C179 1.426 . S
C192 C47 1.426 . S
C127 C60 1.426 . S
C140 C73 1.426 . S
C153 C86 1.426 . S
C114 C99 1.426 . S
C112 C96 1.176 . S
C57 C125 1.176 . S
C70 C138 1.176 . S
C151 C83 1.176 . S
C18 C164 1.176 . S
C177 C31 1.176 . S
C190 C44 1.176 . S
C203 C5 1.176 . S
C101 C10 1.726 . S
C23 C62 1.726 . S
C36 C75 1.726 . S
C49 C88 1.726 . S
C200 C109 1.036 . S
C161 C122 1.035 . S
C174 C135 1.036 . S
C187 C148 1.036 . S
