# Generated by pormake.
# Topology pcu, (6)-cn, num edge types: 1
# Building blocks:
#     Node 0, Type 0, BuildingBlock: CUWYAW_clean_sbu_0, # of connection points: 6
#     Edge 1, Type (0, 0), None
#     Edge 2, Type (0, 0), None
#     Edge 3, Type (0, 0), None
# Relax obj value: 0.000
# Max RMSD: 0.000
# Mean RMSD: 0.000
data_MOF--net-pcu--node1-CUWYAW_clean_sbu_0--edge1-none
_symmetry_space_group_name_H-M    P1
_symmetry_Int_Tables_number       1
_symmetry_cell_setting            triclinic
loop_
_symmetry_equiv_pos_as_xyz
'x, y, z'
_cell_length_a     17.055508
_cell_length_b     6.9664335
_cell_length_c     5.9563038
_cell_angle_alpha  84.244844
_cell_angle_beta   99.653853
_cell_angle_gamma 117.45549
loop_
_atom_site_label
_atom_site_type_symbol
_atom_site_fract_x
_atom_site_fract_y
_atom_site_fract_z
_atom_type_partial_charge
C0 C 0.32004 0.23644 0.05595 0.0
Eu1 Eu 0.15039 0.08673 0.07749 0.0
C2 C 0.38524 0.15331 0.0479 0.0
C3 C 0.45321 0.18756 0.23182 0.0
C4 C 0.51624 0.11302 0.22676 0.0
C5 C 0.51316 0.00398 0.03648 0.0
C6 C 0.44537 -0.02886 0.8517 0.0
C7 C 0.38214 0.04497 0.85718 0.0
C8 C 0.0689 -0.01098 0.4502 0.0
C9 C 1.04505 0.5584 0.03734 0.0
C10 C 0.77234 0.69039 1.01797 0.0
Eu11 Eu 0.94225 0.8437 0.9968 0.0
C12 C 0.70735 0.77301 1.02322 0.0
C13 C 0.61785 0.64802 0.93462 0.0
C14 C 0.55489 0.72306 0.93822 0.0
C15 C 0.58036 0.92496 1.03069 0.0
C16 C 0.67054 0.05055 0.11782 0.0
C17 C 0.73348 -0.02461 0.11382 0.0
C18 C 1.02405 0.9413 0.62433 0.0
C19 C 0.04771 0.37229 0.03673 0.0
O20 O 0.26015 0.20954 0.87643 0.0
O21 O 0.28728 0.205 0.24761 0.0
O22 O 0.14198 0.16505 0.43006 0.0
O23 O 1.04552 0.86855 0.28364 0.0
O24 O 0.11918 0.73944 1.01741 0.0
O25 O 0.96896 0.55534 0.06102 0.0
O26 O 0.83264 0.72436 0.19779 0.0
O27 O 0.80517 0.72146 0.82664 0.0
O28 O 0.95091 0.76539 0.64418 0.0
O29 O 0.04702 0.06151 0.79083 0.0
O30 O 0.9735 0.19126 0.05591 0.0
O31 O 0.12388 0.3754 1.01387 0.0
H32 H 0.45766 0.27232 0.38004 0.0
H33 H 0.56684 0.13907 0.37316 0.0
H34 H 0.44181 0.89086 0.70103 0.0
H35 H 0.33118 0.01765 0.71143 0.0
H36 H 0.59657 0.49179 0.86312 0.0
H37 H 0.48604 0.62145 0.87131 0.0
H38 H 0.69274 0.20817 0.18677 0.0
H39 H 0.80248 0.07542 0.18126 0.0
loop_
_geom_bond_atom_site_label_1
_geom_bond_atom_site_label_2
_geom_bond_distance
_geom_bond_site_symmetry_2
_ccdc_geom_bond_type
C0 Eu1 2.835 . S
C0 C2 1.500 . S
C0 O20 1.257 1_554 S
C0 O21 1.260 . S
Eu1 C0 2.835 . S
Eu1 O20 2.473 1_554 S
Eu1 O21 2.480 . S
Eu1 O22 2.430 . S
Eu1 O23 2.670 1_455 S
Eu1 O24 2.394 1_545 S
Eu1 O29 2.355 1_544 S
Eu1 O31 2.374 . S
C2 C0 1.500 . S
C2 C3 1.377 . S
C2 C7 1.377 1_544 S
C3 C2 1.377 . S
C3 C4 1.395 . S
C3 H32 0.931 . S
C4 C3 1.395 . S
C4 C5 1.383 . S
C4 H33 0.931 . S
C5 C4 1.383 . S
C5 C6 1.394 1_544 S
C6 C5 1.394 1_566 S
C6 C7 1.378 . S
C6 H34 0.931 . S
C7 C2 1.377 1_566 S
C7 C6 1.378 . S
C7 H35 0.931 . S
C8 O22 1.259 . S
C8 O23 1.270 1_455 S
C9 O24 1.251 1_655 S
C9 O25 1.251 1_554 S
C10 Eu11 2.835 . S
C10 C12 1.500 . S
C10 O26 1.257 1_556 S
C10 O27 1.260 . S
Eu11 C10 2.835 . S
Eu11 O23 2.355 1_566 S
Eu11 O25 2.374 . S
Eu11 O26 2.473 1_556 S
Eu11 O27 2.480 . S
Eu11 O28 2.430 . S
Eu11 O29 2.670 1_655 S
Eu11 O30 2.394 1_565 S
C12 C10 1.500 . S
C12 C13 1.377 . S
C12 C17 1.377 1_566 S
C13 C12 1.377 . S
C13 C14 1.395 . S
C13 H36 0.931 . S
C14 C13 1.395 . S
C14 C15 1.383 . S
C14 H37 0.931 . S
C15 C14 1.383 . S
C15 C16 1.394 1_566 S
C16 C15 1.394 1_544 S
C16 C17 1.378 . S
C16 H38 0.931 . S
C17 C12 1.377 1_544 S
C17 C16 1.378 . S
C17 H39 0.931 . S
C18 O28 1.259 . S
C18 O29 1.270 1_655 S
C19 O30 1.251 1_455 S
C19 O31 1.251 1_556 S
O20 C0 1.257 1_556 S
O20 Eu1 2.473 1_556 S
O21 C0 1.260 . S
O21 Eu1 2.480 . S
O22 Eu1 2.430 . S
O22 C8 1.259 . S
O23 Eu1 2.670 1_655 S
O23 C8 1.270 1_655 S
O23 Eu11 2.355 1_544 S
O24 Eu1 2.394 1_565 S
O24 C9 1.251 1_455 S
O25 C9 1.251 1_556 S
O25 Eu11 2.374 . S
O26 C10 1.257 1_554 S
O26 Eu11 2.473 1_554 S
O27 C10 1.260 . S
O27 Eu11 2.480 . S
O28 Eu11 2.430 . S
O28 C18 1.259 . S
O29 Eu1 2.355 1_566 S
O29 Eu11 2.670 1_455 S
O29 C18 1.270 1_455 S
O30 Eu11 2.394 1_545 S
O30 C19 1.251 1_655 S
O31 Eu1 2.374 . S
O31 C19 1.251 1_554 S
H32 C3 0.931 . S
H33 C4 0.931 . S
H34 C6 0.931 . S
H35 C7 0.931 . S
H36 C13 0.931 . S
H37 C14 0.931 . S
H38 C16 0.931 . S
H39 C17 0.931 . S
C8 C18 1.500 1_445 S
C5 C15 1.500 1_544 S
C9 C19 1.500 1_654 S
