# Generated by pormake.
# Topology acs, (6)-cn, num edge types: 1
# Building blocks:
#     Node 0, Type 0, BuildingBlock: OJICUG_clean_sbu_0, # of connection points: 6
#     Node 1, Type 0, BuildingBlock: OJICUG_clean_sbu_0, # of connection points: 6
#     Edge 2, Type (0, 0), BuildingBlock: UVAHIK_clean_linker_0, # of connection points: 2
#     Edge 3, Type (0, 0), BuildingBlock: UVAHIK_clean_linker_0, # of connection points: 2
#     Edge 4, Type (0, 0), BuildingBlock: UVAHIK_clean_linker_0, # of connection points: 2
#     Edge 5, Type (0, 0), BuildingBlock: UVAHIK_clean_linker_0, # of connection points: 2
#     Edge 6, Type (0, 0), BuildingBlock: UVAHIK_clean_linker_0, # of connection points: 2
#     Edge 7, Type (0, 0), BuildingBlock: UVAHIK_clean_linker_0, # of connection points: 2
# Relax obj value: 0.000
# Max RMSD: 0.000
# Mean RMSD: 0.000
data_MOF--net-acs--node1-OJICUG_clean_sbu_0--edge1-UVAHIK_clean_linker_0
_symmetry_space_group_name_H-M    P1
_symmetry_Int_Tables_number       1
_symmetry_cell_setting            triclinic
loop_
_symmetry_equiv_pos_as_xyz
'x, y, z'
_cell_length_a     27.648023
_cell_length_b     27.627796
_cell_length_c     28.004877
_cell_angle_alpha  90.007179
_cell_angle_beta   89.983101
_cell_angle_gamma 119.97555
loop_
_atom_site_label
_atom_site_type_symbol
_atom_site_fract_x
_atom_site_fract_y
_atom_site_fract_z
_atom_type_partial_charge
Sc0 Sc 0.69045 0.40608 0.24108 0.0
Sc1 Sc 0.56292 0.27844 0.24104 0.0
Sc2 Sc 0.69049 0.2784 0.24122 0.0
O3 O 0.64796 0.32098 0.24111 0.0
C4 C 0.76427 0.37909 0.16985 0.0
C5 C 0.58981 0.37917 0.16975 0.0
C6 C 0.58993 0.20458 0.16984 0.0
C7 C 0.58973 0.37917 0.31234 0.0
C8 C 0.76423 0.3792 0.31245 0.0
C9 C 0.58972 0.20461 0.31244 0.0
O10 O 0.74719 0.41098 0.18595 0.0
O11 O 0.55799 0.33024 0.18591 0.0
O12 O 0.63877 0.22155 0.1861 0.0
O13 O 0.63864 0.41105 0.29621 0.0
O14 O 0.74718 0.33025 0.29634 0.0
O15 O 0.55788 0.22163 0.29616 0.0
O16 O 0.74728 0.4111 0.29615 0.0
O17 O 0.55788 0.3303 0.29608 0.0
O18 O 0.63862 0.22162 0.2963 0.0
O19 O 0.63863 0.41108 0.186 0.0
O20 O 0.74733 0.33023 0.18615 0.0
O21 O 0.55806 0.22163 0.18598 0.0
Sc22 Sc 0.27184 0.56907 0.74114 0.0
Sc23 Sc 0.39937 0.69672 0.74118 0.0
Sc24 Sc 0.2718 0.69676 0.74101 0.0
O25 O 0.31433 0.65418 0.74111 0.0
C26 C 0.19806 0.59595 0.66977 0.0
C27 C 0.37256 0.59598 0.66988 0.0
C28 C 0.37257 0.77054 0.66979 0.0
C29 C 0.37248 0.59599 0.81248 0.0
C30 C 0.19802 0.59607 0.81237 0.0
C31 C 0.37236 0.77058 0.81238 0.0
O32 O 0.21501 0.56405 0.68607 0.0
O33 O 0.40441 0.64485 0.68614 0.0
O34 O 0.32367 0.75354 0.68592 0.0
O35 O 0.32366 0.56407 0.79622 0.0
O36 O 0.21496 0.64492 0.79607 0.0
O37 O 0.40424 0.75352 0.79624 0.0
O38 O 0.2151 0.56418 0.79627 0.0
O39 O 0.4043 0.64491 0.79631 0.0
O40 O 0.32353 0.7536 0.79612 0.0
O41 O 0.32365 0.5641 0.68602 0.0
O42 O 0.21512 0.64491 0.68588 0.0
O43 O 0.40441 0.75352 0.68606 0.0
C44 C 0.36077 0.83504 0.8685 0.0
C45 C 0.3937 0.81334 0.85079 0.0
C46 C 0.38178 0.877 0.90322 0.0
C47 C 0.49127 0.94302 -0.00443 0.0
H48 H 0.46333 0.06664 0.9821 0.0
C49 C 0.60152 0.14011 0.11372 0.0
C50 C 0.56859 0.16181 0.13144 0.0
C51 C 0.58052 0.09815 0.07901 0.0
C52 C 0.47102 0.03214 0.98665 0.0
H53 H 0.4745 0.8185 0.85646 0.0
H54 H 0.51108 0.89183 0.91667 0.0
H55 H 0.4253 -0.00863 0.92343 0.0
H56 H 0.48779 0.15666 0.12577 0.0
H57 H 0.45121 0.08332 0.06555 0.0
H58 H 0.53699 0.98378 0.05879 0.0
C59 C 0.4688 0.87601 0.90398 0.0
C60 C 0.44918 -0.01104 0.95305 0.0
C61 C 0.44786 0.8341 0.86923 0.0
C62 C 0.51443 0.14106 0.11299 0.0
C63 C 0.49349 0.09915 0.07824 0.0
C64 C 0.51311 0.98619 0.02917 0.0
C65 C 0.43616 0.89823 0.92113 0.0
C66 C 0.45904 0.94389 0.95712 0.0
C67 C 0.52613 0.07693 0.06109 0.0
C68 C 0.50326 0.03127 0.0251 0.0
H69 H 0.31882 0.82 0.85532 0.0
H70 H 0.35526 0.89264 0.9162 0.0
H71 H 0.49896 0.90851 0.00012 0.0
H72 H 0.64348 0.15516 0.1269 0.0
H73 H 0.60704 0.08251 0.06603 0.0
C74 C 0.36074 0.52043 0.61306 0.0
C75 C 0.394 0.57466 0.63148 0.0
C76 C 0.38177 0.49954 0.57831 0.0
C77 C 0.51442 0.51961 0.52918 0.0
H78 H 0.42164 0.4316 0.42342 0.0
C79 C 0.60155 0.45473 0.36916 0.0
C80 C 0.56829 0.4005 0.35075 0.0
C81 C 0.58052 0.47562 0.40391 0.0
C82 C 0.44787 0.45554 0.45305 0.0
H83 H 0.47537 0.64975 0.62687 0.0
H84 H 0.51169 0.61342 0.566 0.0
H85 H 0.3842 0.46939 0.48215 0.0
H86 H 0.48692 0.32541 0.35535 0.0
H87 H 0.45061 0.36174 0.41622 0.0
H88 H 0.57809 0.50576 0.50007 0.0
C89 C 0.46958 0.58679 0.57901 0.0
C90 C 0.42643 0.47724 0.48668 0.0
C91 C 0.44857 0.60773 0.61372 0.0
C92 C 0.51373 0.36743 0.3685 0.0
C93 C 0.49271 0.38837 0.40321 0.0
C94 C 0.53586 0.49791 0.49554 0.0
C95 C 0.43657 0.53233 0.56112 0.0
C96 C 0.45945 0.50955 0.52513 0.0
C97 C 0.52572 0.44283 0.4211 0.0
C98 C 0.50284 0.46561 0.45709 0.0
H99 H 0.31856 0.49369 0.62587 0.0
H100 H 0.35544 0.45721 0.56564 0.0
H101 H 0.54065 0.54356 0.55881 0.0
H102 H 0.64373 0.48147 0.35635 0.0
H103 H 0.60685 0.51795 0.41659 0.0
C104 C 0.82775 0.45456 0.11291 0.0
C105 C 0.80701 0.4004 0.13145 0.0
C106 C 0.86965 0.47546 0.07816 0.0
C107 C -0.01747 0.4557 0.02926 0.0
H108 H 0.97736 0.54328 0.92326 0.0
C109 C 0.13454 0.52059 0.86931 0.0
C110 C 0.15528 0.57475 0.85078 0.0
C111 C 0.09265 0.4997 0.90406 0.0
C112 C 0.97976 0.51946 0.95296 0.0
H113 H 0.81366 0.32545 0.12706 0.0
H114 H 0.88627 0.3618 0.0662 0.0
H115 H 0.90216 0.50541 0.98197 0.0
H116 H 0.14863 0.64971 0.85516 0.0
H117 H 0.07602 0.61336 0.91603 0.0
H118 H 0.06014 0.46974 0.00025 0.0
C119 C 0.87064 0.38837 0.07911 0.0
C120 C 0.93663 0.49771 0.98658 0.0
C121 C 0.8287 0.36741 0.11382 0.0
C122 C 0.13359 0.60774 0.8684 0.0
C123 C 0.09166 0.58679 0.90311 0.0
C124 C 0.02566 0.47744 -0.00435 0.0
C125 C 0.89186 0.44276 0.0611 0.0
C126 C 0.9375 0.46557 0.02512 0.0
C127 C 0.07043 0.5324 0.92112 0.0
C128 C 0.0248 0.50959 0.9571 0.0
H129 H 0.81216 0.48124 0.12562 0.0
H130 H 0.88547 0.51774 0.0654 0.0
H131 H -0.01507 0.43188 0.05896 0.0
H132 H 0.15013 0.49392 0.8566 0.0
H133 H 0.07682 0.45741 0.91683 0.0
C134 C 0.36076 0.8343 0.61302 0.0
C135 C 0.39401 0.81329 0.63138 0.0
C136 C 0.3818 0.87623 0.57828 0.0
C137 C 0.51444 -0.01125 0.52913 0.0
H138 H 0.42161 0.98415 0.42349 0.0
C139 C 0.60153 0.14085 0.3692 0.0
C140 C 0.56828 0.16186 0.35084 0.0
C141 C 0.58049 0.09892 0.40394 0.0
C142 C 0.44785 0.9864 0.45309 0.0
H143 H 0.47534 0.81949 0.62669 0.0
H144 H 0.51165 0.89215 0.56584 0.0
H145 H 0.38418 0.90887 0.48216 0.0
H146 H 0.48695 0.15566 0.35553 0.0
H147 H 0.45064 0.08301 0.41638 0.0
H148 H 0.57812 0.06628 0.50006 0.0
C149 C 0.46957 0.87671 0.57889 0.0
C150 C 0.42641 0.94322 0.48668 0.0
C151 C 0.44855 0.83474 0.61359 0.0
C152 C 0.51374 0.14041 0.36864 0.0
C153 C 0.49273 0.09845 0.40334 0.0
C154 C 0.53588 0.03193 0.49554 0.0
C155 C 0.43658 0.89821 0.56106 0.0
C156 C 0.45946 0.94388 0.5251 0.0
C157 C 0.52572 0.07695 0.42116 0.0
C158 C 0.50283 0.03127 0.45713 0.0
H159 H 0.31861 0.8189 0.62586 0.0
H160 H 0.35548 0.89227 0.56565 0.0
H161 H 0.54069 -0.009 0.55873 0.0
H162 H 0.64368 0.15625 0.35636 0.0
H163 H 0.60681 0.08289 0.41657 0.0
C164 C 0.36095 0.52007 0.86872 0.0
C165 C 0.39389 0.57464 0.85088 0.0
C166 C 0.382 0.49917 0.90344 0.0
C167 C 0.51471 0.52049 0.95352 0.0
H168 H 0.4211 0.43002 0.05797 0.0
C169 C 0.60134 0.45509 0.11351 0.0
C170 C 0.5684 0.40052 0.13134 0.0
C171 C 0.58029 0.47598 0.07878 0.0
C172 C 0.44758 0.45466 0.0287 0.0
H173 H 0.47465 0.65032 0.8565 0.0
H174 H 0.51097 0.61398 0.91733 0.0
H175 H 0.38358 0.46779 -0.00068 0.0
H176 H 0.48764 0.32483 0.12572 0.0
H177 H 0.45132 0.36117 0.06489 0.0
H178 H 0.57871 0.50737 0.98291 0.0
C179 C 0.46914 0.58709 0.90388 0.0
C180 C 0.42609 0.47635 -0.00489 0.0
C181 C 0.44811 0.60803 0.86919 0.0
C182 C 0.51418 0.36713 0.11304 0.0
C183 C 0.49315 0.38806 0.07834 0.0
C184 C 0.5362 0.4988 0.98711 0.0
C185 C 0.43648 0.5323 0.92118 0.0
C186 C 0.4594 0.50953 0.95713 0.0
C187 C 0.52581 0.44286 0.06104 0.0
C188 C 0.50289 0.46562 0.02509 0.0
H189 H 0.31905 0.49307 0.85546 0.0
H190 H 0.35595 0.45659 0.91564 0.0
H191 H 0.54119 0.54513 0.92426 0.0
H192 H 0.64324 0.48209 0.12676 0.0
H193 H 0.60634 0.51857 0.06658 0.0
C194 C 0.13377 0.51993 0.61362 0.0
C195 C 0.15533 0.57453 0.63137 0.0
C196 C 0.09183 0.49895 0.57893 0.0
C197 C 0.02553 0.54232 0.48668 0.0
H198 H 0.90239 0.39059 0.50007 0.0
C199 C 0.82852 0.45523 0.3686 0.0
C200 C 0.80697 0.40062 0.35085 0.0
C201 C 0.87046 0.47621 0.40329 0.0
C202 C 0.93676 0.43284 0.49554 0.0
H203 H 0.14991 0.65009 0.62578 0.0
H204 H 0.0766 0.61329 0.5656 0.0
H205 H 0.97762 0.42792 0.55872 0.0
H206 H 0.81238 0.32506 0.35644 0.0
H207 H 0.88569 0.36186 0.41663 0.0
H208 H -0.01532 0.54723 0.4235 0.0
C209 C 0.09254 0.58689 0.57824 0.0
C210 C 0.97991 0.45422 0.52913 0.0
C211 C 0.13443 0.60788 0.61298 0.0
C212 C 0.82786 0.36727 0.36925 0.0
C213 C 0.86976 0.38827 0.40398 0.0
C214 C -0.01762 0.52093 0.45309 0.0
C215 C 0.07046 0.53204 0.56106 0.0
C216 C 0.02481 0.50921 0.52509 0.0
C217 C 0.89183 0.44311 0.42116 0.0
C218 C 0.93748 0.46594 0.45713 0.0
H219 H 0.14893 0.49306 0.62676 0.0
H220 H 0.07632 0.45681 0.56592 0.0
H221 H 0.0599 0.58456 0.48215 0.0
H222 H 0.81336 0.4821 0.35546 0.0
H223 H 0.88597 0.51835 0.4163 0.0
loop_
_geom_bond_atom_site_label_1
_geom_bond_atom_site_label_2
_geom_bond_distance
_geom_bond_site_symmetry_2
_ccdc_geom_bond_type
Sc0 O3 2.025 . S
Sc0 O10 2.105 . S
Sc0 O13 2.105 . S
Sc0 O16 2.105 . S
Sc0 O19 2.105 . S
Sc1 O3 2.025 . S
Sc1 O11 2.105 . S
Sc1 O15 2.105 . S
Sc1 O17 2.105 . S
Sc1 O21 2.105 . S
Sc2 O3 2.025 . S
Sc2 O12 2.105 . S
Sc2 O14 2.105 . S
Sc2 O18 2.105 . S
Sc2 O20 2.105 . S
O3 Sc0 2.025 . S
O3 Sc1 2.025 . S
O3 Sc2 2.025 . S
C4 O10 1.268 . S
C4 O20 1.268 . S
C5 O11 1.268 . S
C5 O19 1.268 . S
C6 O12 1.268 . S
C6 O21 1.268 . S
C7 O13 1.268 . S
C7 O17 1.268 . S
C8 O14 1.268 . S
C8 O16 1.268 . S
C9 O15 1.268 . S
C9 O18 1.268 . S
O10 Sc0 2.105 . S
O10 C4 1.268 . S
O11 Sc1 2.105 . S
O11 C5 1.268 . S
O12 Sc2 2.105 . S
O12 C6 1.268 . S
O13 Sc0 2.105 . S
O13 C7 1.268 . S
O14 Sc2 2.105 . S
O14 C8 1.268 . S
O15 Sc1 2.105 . S
O15 C9 1.268 . S
O16 Sc0 2.105 . S
O16 C8 1.268 . S
O17 Sc1 2.105 . S
O17 C7 1.268 . S
O18 Sc2 2.105 . S
O18 C9 1.268 . S
O19 Sc0 2.105 . S
O19 C5 1.268 . S
O20 Sc2 2.105 . S
O20 C4 1.268 . S
O21 Sc1 2.105 . S
O21 C6 1.268 . S
Sc22 O25 2.025 . S
Sc22 O32 2.105 . S
Sc22 O35 2.105 . S
Sc22 O38 2.105 . S
Sc22 O41 2.105 . S
Sc23 O25 2.025 . S
Sc23 O33 2.105 . S
Sc23 O37 2.105 . S
Sc23 O39 2.105 . S
Sc23 O43 2.105 . S
Sc24 O25 2.025 . S
Sc24 O34 2.105 . S
Sc24 O36 2.105 . S
Sc24 O40 2.105 . S
Sc24 O42 2.105 . S
O25 Sc22 2.025 . S
O25 Sc23 2.025 . S
O25 Sc24 2.025 . S
C26 O32 1.268 . S
C26 O42 1.268 . S
C27 O33 1.268 . S
C27 O41 1.268 . S
C28 O34 1.268 . S
C28 O43 1.268 . S
C29 O35 1.268 . S
C29 O39 1.268 . S
C30 O36 1.268 . S
C30 O38 1.268 . S
C31 O37 1.268 . S
C31 O40 1.268 . S
O32 Sc22 2.105 . S
O32 C26 1.268 . S
O33 Sc23 2.105 . S
O33 C27 1.268 . S
O34 Sc24 2.105 . S
O34 C28 1.268 . S
O35 Sc22 2.105 . S
O35 C29 1.268 . S
O36 Sc24 2.105 . S
O36 C30 1.268 . S
O37 Sc23 2.105 . S
O37 C31 1.268 . S
O38 Sc22 2.105 . S
O38 C30 1.268 . S
O39 Sc23 2.105 . S
O39 C29 1.268 . S
O40 Sc24 2.105 . S
O40 C31 1.268 . S
O41 Sc22 2.105 . S
O41 C27 1.268 . S
O42 Sc24 2.105 . S
O42 C26 1.268 . S
O43 Sc23 2.105 . S
O43 C28 1.268 . S
C44 C45 1.349 . S
C44 C46 1.327 . S
C44 H69 0.950 . S
C45 C44 1.349 . S
C45 C61 1.349 . S
C46 C44 1.327 . S
C46 C65 1.429 . S
C46 H70 0.950 . S
C47 C64 1.574 . S
C47 C66 1.368 1_554 S
C47 H71 0.949 . S
H48 C52 0.949 . S
C49 C50 1.349 . S
C49 C51 1.327 . S
C49 H72 0.950 . S
C50 C49 1.349 . S
C50 C62 1.349 . S
C51 C49 1.327 . S
C51 C67 1.429 . S
C51 H73 0.950 . S
C52 H48 0.949 . S
C52 C60 1.574 . S
C52 C68 1.368 1_556 S
H53 C61 0.950 . S
H54 C59 0.950 . S
H55 C60 0.949 . S
H56 C62 0.950 . S
H57 C63 0.950 . S
H58 C64 0.949 . S
C59 H54 0.950 . S
C59 C61 1.327 . S
C59 C65 1.429 . S
C60 C52 1.574 . S
C60 H55 0.949 . S
C60 C66 1.368 1_545 S
C61 C45 1.349 . S
C61 H53 0.950 . S
C61 C59 1.327 . S
C62 C50 1.349 . S
C62 H56 0.950 . S
C62 C63 1.327 . S
C63 H57 0.950 . S
C63 C62 1.327 . S
C63 C67 1.429 . S
C64 C47 1.574 . S
C64 H58 0.949 . S
C64 C68 1.368 1_565 S
C65 C46 1.429 . S
C65 C59 1.429 . S
C65 C66 1.523 . S
C66 C47 1.368 1_556 S
C66 C60 1.368 1_565 S
C66 C65 1.523 . S
C67 C51 1.429 . S
C67 C63 1.429 . S
C67 C68 1.523 . S
C68 C52 1.368 1_554 S
C68 C64 1.368 1_545 S
C68 C67 1.523 . S
H69 C44 0.950 . S
H70 C46 0.950 . S
H71 C47 0.949 . S
H72 C49 0.950 . S
H73 C51 0.950 . S
C74 C75 1.349 . S
C74 C76 1.327 . S
C74 H99 0.950 . S
C75 C74 1.349 . S
C75 C91 1.349 . S
C76 C74 1.327 . S
C76 C95 1.429 . S
C76 H100 0.950 . S
C77 C94 1.574 . S
C77 C96 1.368 . S
C77 H101 0.949 . S
H78 C82 0.949 . S
C79 C80 1.349 . S
C79 C81 1.327 . S
C79 H102 0.950 . S
C80 C79 1.349 . S
C80 C92 1.349 . S
C81 C79 1.327 . S
C81 C97 1.429 . S
C81 H103 0.950 . S
C82 H78 0.949 . S
C82 C90 1.574 . S
C82 C98 1.368 . S
H83 C91 0.950 . S
H84 C89 0.950 . S
H85 C90 0.949 . S
H86 C92 0.950 . S
H87 C93 0.950 . S
H88 C94 0.949 . S
C89 H84 0.950 . S
C89 C91 1.327 . S
C89 C95 1.429 . S
C90 C82 1.574 . S
C90 H85 0.949 . S
C90 C96 1.368 . S
C91 C75 1.349 . S
C91 H83 0.950 . S
C91 C89 1.327 . S
C92 C80 1.349 . S
C92 H86 0.950 . S
C92 C93 1.327 . S
C93 H87 0.950 . S
C93 C92 1.327 . S
C93 C97 1.429 . S
C94 C77 1.574 . S
C94 H88 0.949 . S
C94 C98 1.368 . S
C95 C76 1.429 . S
C95 C89 1.429 . S
C95 C96 1.523 . S
C96 C77 1.368 . S
C96 C90 1.368 . S
C96 C95 1.523 . S
C97 C81 1.429 . S
C97 C93 1.429 . S
C97 C98 1.523 . S
C98 C82 1.368 . S
C98 C94 1.368 . S
C98 C97 1.523 . S
H99 C74 0.950 . S
H100 C76 0.950 . S
H101 C77 0.949 . S
H102 C79 0.950 . S
H103 C81 0.950 . S
C104 C105 1.349 . S
C104 C106 1.327 . S
C104 H129 0.950 . S
C105 C104 1.349 . S
C105 C121 1.349 . S
C106 C104 1.327 . S
C106 C125 1.429 . S
C106 H130 0.950 . S
C107 C124 1.574 . S
C107 C126 1.368 1_455 S
C107 H131 0.949 . S
H108 C112 0.949 . S
C109 C110 1.349 . S
C109 C111 1.327 . S
C109 H132 0.950 . S
C110 C109 1.349 . S
C110 C122 1.349 . S
C111 C109 1.327 . S
C111 C127 1.429 . S
C111 H133 0.950 . S
C112 H108 0.949 . S
C112 C120 1.574 . S
C112 C128 1.368 1_655 S
H113 C121 0.950 . S
H114 C119 0.950 . S
H115 C120 0.949 . S
H116 C122 0.950 . S
H117 C123 0.950 . S
H118 C124 0.949 . S
C119 H114 0.950 . S
C119 C121 1.327 . S
C119 C125 1.429 . S
C120 C112 1.574 . S
C120 H115 0.949 . S
C120 C126 1.368 1_556 S
C121 C105 1.349 . S
C121 H113 0.950 . S
C121 C119 1.327 . S
C122 C110 1.349 . S
C122 H116 0.950 . S
C122 C123 1.327 . S
C123 H117 0.950 . S
C123 C122 1.327 . S
C123 C127 1.429 . S
C124 C107 1.574 . S
C124 H118 0.949 . S
C124 C128 1.368 1_554 S
C125 C106 1.429 . S
C125 C119 1.429 . S
C125 C126 1.523 . S
C126 C107 1.368 1_655 S
C126 C120 1.368 1_554 S
C126 C125 1.523 . S
C127 C111 1.429 . S
C127 C123 1.429 . S
C127 C128 1.523 . S
C128 C112 1.368 1_455 S
C128 C124 1.368 1_556 S
C128 C127 1.523 . S
H129 C104 0.950 . S
H130 C106 0.950 . S
H131 C107 0.949 . S
H132 C109 0.950 . S
H133 C111 0.950 . S
C134 C135 1.349 . S
C134 C136 1.327 . S
C134 H159 0.950 . S
C135 C134 1.349 . S
C135 C151 1.349 . S
C136 C134 1.327 . S
C136 C155 1.429 . S
C136 H160 0.950 . S
C137 C154 1.577 . S
C137 C156 1.367 1_545 S
C137 H161 0.944 1_545 S
H138 C142 0.944 1_545 S
C139 C140 1.349 . S
C139 C141 1.327 . S
C139 H162 0.950 . S
C140 C139 1.349 . S
C140 C152 1.349 . S
C141 C139 1.327 . S
C141 C157 1.429 . S
C141 H163 0.950 . S
C142 H138 0.944 1_565 S
C142 C150 1.577 . S
C142 C158 1.367 1_565 S
H143 C151 0.950 . S
H144 C149 0.950 . S
H145 C150 0.949 . S
H146 C152 0.950 . S
H147 C153 0.950 . S
H148 C154 0.949 . S
C149 H144 0.950 . S
C149 C151 1.327 . S
C149 C155 1.429 . S
C150 C142 1.577 . S
C150 H145 0.949 . S
C150 C156 1.368 . S
C151 C135 1.349 . S
C151 H143 0.950 . S
C151 C149 1.327 . S
C152 C140 1.349 . S
C152 H146 0.950 . S
C152 C153 1.327 . S
C153 H147 0.950 . S
C153 C152 1.327 . S
C153 C157 1.429 . S
C154 C137 1.577 . S
C154 H148 0.949 . S
C154 C158 1.368 . S
C155 C136 1.429 . S
C155 C149 1.429 . S
C155 C156 1.523 . S
C156 C137 1.367 1_565 S
C156 C150 1.368 . S
C156 C155 1.523 . S
C157 C141 1.429 . S
C157 C153 1.429 . S
C157 C158 1.523 . S
C158 C142 1.367 1_545 S
C158 C154 1.368 . S
C158 C157 1.523 . S
H159 C134 0.950 . S
H160 C136 0.950 . S
H161 C137 0.944 1_565 S
H162 C139 0.950 . S
H163 C141 0.950 . S
C164 C165 1.349 . S
C164 C166 1.327 . S
C164 H189 0.950 . S
C165 C164 1.349 . S
C165 C181 1.349 . S
C166 C164 1.327 . S
C166 C185 1.429 . S
C166 H190 0.950 . S
C167 C184 1.574 1_556 S
C167 C186 1.368 . S
C167 H191 0.949 . S
H168 C172 0.949 . S
C169 C170 1.349 . S
C169 C171 1.327 . S
C169 H192 0.950 . S
C170 C169 1.349 . S
C170 C182 1.349 . S
C171 C169 1.327 . S
C171 C187 1.429 . S
C171 H193 0.950 . S
C172 H168 0.949 . S
C172 C180 1.574 1_554 S
C172 C188 1.368 . S
H173 C181 0.950 . S
H174 C179 0.950 . S
H175 C180 0.949 . S
H176 C182 0.950 . S
H177 C183 0.950 . S
H178 C184 0.949 . S
C179 H174 0.950 . S
C179 C181 1.327 . S
C179 C185 1.429 . S
C180 C172 1.574 1_556 S
C180 H175 0.949 . S
C180 C186 1.368 . S
C181 C165 1.349 . S
C181 H173 0.950 . S
C181 C179 1.327 . S
C182 C170 1.349 . S
C182 H176 0.950 . S
C182 C183 1.327 . S
C183 H177 0.950 . S
C183 C182 1.327 . S
C183 C187 1.429 . S
C184 C167 1.574 1_554 S
C184 H178 0.949 . S
C184 C188 1.368 . S
C185 C166 1.429 . S
C185 C179 1.429 . S
C185 C186 1.523 . S
C186 C167 1.368 . S
C186 C180 1.368 . S
C186 C185 1.523 . S
C187 C171 1.429 . S
C187 C183 1.429 . S
C187 C188 1.523 . S
C188 C172 1.368 . S
C188 C184 1.368 . S
C188 C187 1.523 . S
H189 C164 0.950 . S
H190 C166 0.950 . S
H191 C167 0.949 . S
H192 C169 0.950 . S
H193 C171 0.950 . S
C194 C195 1.349 . S
C194 C196 1.327 . S
C194 H219 0.950 . S
C195 C194 1.349 . S
C195 C211 1.349 . S
C196 C194 1.327 . S
C196 C215 1.429 . S
C196 H220 0.950 . S
C197 C214 1.574 1_455 S
C197 C216 1.368 . S
C197 H221 0.949 . S
H198 C202 0.949 . S
C199 C200 1.349 . S
C199 C201 1.327 . S
C199 H222 0.950 . S
C200 C199 1.349 . S
C200 C212 1.349 . S
C201 C199 1.327 . S
C201 C217 1.429 . S
C201 H223 0.950 . S
C202 H198 0.949 . S
C202 C210 1.574 1_655 S
C202 C218 1.368 . S
H203 C211 0.950 . S
H204 C209 0.950 . S
H205 C210 0.949 . S
H206 C212 0.950 . S
H207 C213 0.950 . S
H208 C214 0.949 . S
C209 H204 0.950 . S
C209 C211 1.327 . S
C209 C215 1.429 . S
C210 C202 1.574 1_455 S
C210 H205 0.949 . S
C210 C216 1.368 . S
C211 C195 1.349 . S
C211 H203 0.950 . S
C211 C209 1.327 . S
C212 C200 1.349 . S
C212 H206 0.950 . S
C212 C213 1.327 . S
C213 H207 0.950 . S
C213 C212 1.327 . S
C213 C217 1.429 . S
C214 C197 1.574 1_655 S
C214 H208 0.949 . S
C214 C218 1.368 . S
C215 C196 1.429 . S
C215 C209 1.429 . S
C215 C216 1.523 . S
C216 C197 1.368 . S
C216 C210 1.368 . S
C216 C215 1.523 . S
C217 C201 1.429 . S
C217 C213 1.429 . S
C217 C218 1.523 . S
C218 C202 1.368 . S
C218 C214 1.368 . S
C218 C217 1.523 . S
H219 C194 0.950 . S
H220 C196 0.950 . S
H221 C197 0.949 . S
H222 C199 0.950 . S
H223 C201 0.950 . S
C45 C31 1.480 . S
C50 C6 1.480 . S
C75 C27 1.480 . S
C80 C7 1.480 . S
C105 C4 1.480 . S
C110 C30 1.480 . S
C135 C28 1.480 . S
C140 C9 1.480 . S
C165 C29 1.480 . S
C170 C5 1.480 . S
C195 C26 1.480 . S
C200 C8 1.480 . S
