# Generated by pormake.
# Topology sxc, (6)-cn, num edge types: 1
# Building blocks:
#     Node 0, Type 0, BuildingBlock: KUMBUR_clean_sbu_1, # of connection points: 6
#     Node 1, Type 0, BuildingBlock: KUMBUR_clean_sbu_1, # of connection points: 6
#     Node 2, Type 0, BuildingBlock: KUMBUR_clean_sbu_1, # of connection points: 6
#     Edge 3, Type (0, 0), None
#     Edge 4, Type (0, 0), None
#     Edge 5, Type (0, 0), None
#     Edge 6, Type (0, 0), None
#     Edge 7, Type (0, 0), None
#     Edge 8, Type (0, 0), None
#     Edge 9, Type (0, 0), None
#     Edge 10, Type (0, 0), None
#     Edge 11, Type (0, 0), None
# Relax obj value: 0.792
# Max RMSD: 0.209
# Mean RMSD: 0.167
data_MOF--net-sxc--node1-KUMBUR_clean_sbu_1--edge1-none
_symmetry_space_group_name_H-M    P1
_symmetry_Int_Tables_number       1
_symmetry_cell_setting            triclinic
loop_
_symmetry_equiv_pos_as_xyz
'x, y, z'
_cell_length_a     7.6745993
_cell_length_b     16.043063
_cell_length_c     21.33447
_cell_angle_alpha  103.75513
_cell_angle_beta   91.445287
_cell_angle_gamma 99.325808
loop_
_atom_site_label
_atom_site_type_symbol
_atom_site_fract_x
_atom_site_fract_y
_atom_site_fract_z
_atom_type_partial_charge
Tb0 Tb 0.87032 -0.07346 0.92007 0.0
C1 C 0.51249 -0.003 0.06937 0.0
N2 N 0.48011 0.07402 0.05994 0.0
C3 C 0.60266 0.14791 0.1658 0.0
C4 C 0.57951 -0.00897 0.12901 0.0
C5 C 0.51375 0.14818 0.10857 0.0
C6 C 0.63659 0.06922 0.17518 0.0
C7 C 0.45614 0.8414 0.03096 0.0
C8 C 0.47873 -0.07543 0.01844 0.0
C9 C 0.51071 0.83316 0.09196 0.0
C10 C 0.58406 -0.09206 0.13955 0.0
Tb11 Tb 0.30968 0.05826 -0.02998 0.0
N12 N 0.44111 -0.06403 -0.04125 0.0
C13 C 0.3677 0.77091 -0.01671 0.0
C14 C 0.39771 0.86327 0.90809 0.0
C15 C 0.33538 0.78232 0.92142 0.0
H16 H 0.4679 0.20599 0.10421 0.0
H17 H 0.26725 0.72858 0.8836 0.0
H18 H 0.67424 0.85134 0.77665 0.0
H19 H 0.95058 0.22975 0.09322 0.0
H20 H 0.36898 0.86994 0.86006 0.0
H21 H 0.32932 0.7074 -0.00701 0.0
H22 H 0.84303 0.07676 0.07511 0.0
H23 H 0.63844 0.20721 0.20355 0.0
H24 H 0.49834 0.76978 0.10244 0.0
H25 H 0.63348 -0.10038 0.18472 0.0
H26 H 0.64664 -0.07898 0.69338 0.0
H27 H 0.70252 0.07095 0.21913 0.0
H28 H 0.91627 0.3033 0.00638 0.0
N29 N 0.66519 -0.03694 0.85477 0.0
C30 C 0.65133 0.0495 0.86963 0.0
C31 C 0.63832 -0.04217 0.74189 0.0
C32 C 0.64028 0.09264 0.81964 0.0
C33 C 0.64812 -0.08314 0.79134 0.0
C34 C 0.63807 0.04624 0.75602 0.0
N35 N 0.74164 0.05597 -0.02281 0.0
C36 C 0.81616 0.10569 0.03689 0.0
C37 C 0.75277 0.19028 -0.05641 0.0
C38 C 0.69886 0.09871 0.93259 0.0
C39 C 0.85477 0.23595 -0.00019 0.0
C40 C 0.87814 0.19453 0.04814 0.0
H41 H 0.64658 0.08041 0.71817 0.0
H42 H 0.66485 0.21355 0.79381 0.0
H43 H 0.75882 0.30222 0.90314 0.0
O44 O 0.79277 0.81346 -0.0349 0.0
O45 O 0.97482 0.02787 0.87465 0.0
O46 O 1.05345 0.05088 -0.02911 0.0
O47 O 0.69614 0.81605 0.8713 0.0
O48 O 0.9391 -0.05782 0.03593 0.0
O49 O 0.19038 0.05158 0.06402 0.0
O50 O 0.38135 0.15751 0.91971 0.0
O51 O 0.16295 -0.06838 -0.03805 0.0
O52 O 1.05589 0.85398 0.86923 0.0
O53 O 0.27242 0.18812 0.01081 0.0
O54 O 0.29903 0.02023 0.85487 0.0
O55 O 1.02636 -0.07447 0.81552 0.0
C56 C 0.97481 -0.00726 0.92357 0.0
C57 C 0.61409 0.67399 0.89293 0.0
C58 C 0.5027 0.52778 0.91431 0.0
C59 C 0.40211 0.5061 0.85539 0.0
C60 C 0.52509 0.64336 0.83183 0.0
C61 C 0.41703 0.56248 0.81422 0.0
C62 C 0.60029 0.61552 -0.06579 0.0
C63 C 0.07137 -0.00934 0.08007 0.0
C64 C 0.70808 0.76845 0.91115 0.0
C65 C 0.66245 0.18282 0.83338 0.0
C66 C 0.72155 0.23228 0.89512 0.0
C67 C 1.03051 -0.08944 0.92213 0.0
C68 C 0.43334 0.3121 -0.02261 0.0
C69 C 0.52233 0.45659 -0.0502 0.0
C70 C 0.67677 0.46712 -0.01111 0.0
C71 C 0.56576 0.34003 0.02749 0.0
C72 C 0.40433 0.37429 -0.05868 0.0
C73 C 0.69018 0.41453 0.03126 0.0
C74 C 0.18492 -0.02964 0.80389 0.0
C75 C 0.33016 0.21941 -0.03709 0.0
H76 H 0.32893 0.44152 0.8374 0.0
H77 H 0.53176 0.68403 0.7983 0.0
H78 H 0.3533 0.54239 0.76633 0.0
H79 H 0.66187 0.63935 -0.01853 0.0
H80 H 0.78713 0.5172 -0.01221 0.0
H81 H 0.58697 0.30053 0.05986 0.0
H82 H 0.29323 0.35766 0.90688 0.0
H83 H 0.80196 0.42987 0.06575 0.0
Tb84 Tb 1.05085 -0.12047 0.26639 0.0
C85 C 0.40584 0.24014 0.38407 0.0
N86 N 0.35832 0.1538 0.37858 0.0
C87 C 0.55088 0.16676 0.47246 0.0
C88 C 0.50478 0.29485 0.43886 0.0
C89 C 0.4473 0.11579 0.41796 0.0
C90 C 0.57105 0.2569 0.48481 0.0
C91 C 0.43257 0.35877 0.3316 0.0
C92 C 0.37278 0.27139 0.33098 0.0
C93 C 0.50691 0.41589 0.38943 0.0
C94 C 0.54188 0.38438 0.44355 0.0
Tb95 Tb 0.13524 0.09088 0.29795 0.0
N96 N 0.2929 0.21402 0.27725 0.0
C97 C 0.42236 0.38502 0.27381 0.0
C98 C 0.28689 0.2381 0.21981 0.0
C99 C 0.35502 0.32347 0.21706 0.0
H100 H 0.44077 0.04642 0.40813 0.0
H101 H 0.34824 0.34248 0.17179 0.0
H102 H 1.00981 0.77934 0.10953 0.0
H103 H 0.5423 -0.11112 0.44351 0.0
H104 H 0.2199 0.19355 0.1767 0.0
H105 H 0.46963 0.45179 0.27228 0.0
H106 H 0.82231 -0.06182 0.40709 0.0
H107 H 0.61462 0.13654 0.50487 0.0
H108 H 0.55821 0.4825 0.38997 0.0
H109 H 0.61053 0.42843 0.48639 0.0
H110 H 0.86319 0.64205 0.04998 0.0
H111 H 0.64844 0.29524 0.52732 0.0
H112 H 0.34618 0.76389 0.37453 0.0
N113 N 0.85483 0.78177 0.19208 0.0
C114 C 0.72176 0.73738 0.21795 0.0
C115 C 0.80882 0.66943 0.09442 0.0
C116 C 0.62745 0.65663 0.1828 0.0
C117 C 0.89499 0.74964 0.12973 0.0
C118 C 0.66978 0.6237 0.12 0.0
N119 N 0.80092 0.83864 0.31844 0.0
C120 C 0.75244 0.87814 0.3785 0.0
C121 C 0.53848 0.7305 0.30657 0.0
C122 C 0.68892 0.76916 0.2816 0.0
C123 C 0.47956 0.77799 0.36269 0.0
C124 C 0.58764 0.85137 0.39971 0.0
H125 H 0.59703 0.56249 0.09267 0.0
H126 H 0.4439 0.5422 0.1895 0.0
H127 H 0.3464 0.61221 0.2946 0.0
O128 O 1.0542 0.75866 0.28678 0.0
O129 O 0.86091 -0.01452 0.27619 0.0
O130 O 0.86309 -0.00951 0.27698 0.0
O131 O 0.19969 0.79219 0.20803 0.0
O132 O 0.1369 -0.08553 0.37114 0.0
O133 O 0.09592 0.05526 0.39343 0.0
O134 O 0.98041 0.15632 0.24887 0.0
O135 O 0.42295 0.06273 0.28401 0.0
O136 O 0.36505 -0.07936 0.28428 0.0
O137 O 1.00257 0.18633 0.35238 0.0
O138 O 0.18683 0.04685 0.19484 0.0
O139 O 1.00366 -0.081 0.17248 0.0
C140 C 0.70951 -0.00137 0.30866 0.0
C141 C 0.08468 0.6361 0.19905 0.0
C142 C 0.98043 0.48467 0.20967 0.0
C143 C 0.06286 0.45366 0.1527 0.0
C144 C 0.15719 0.60196 0.14078 0.0
C145 C 0.14106 0.51133 0.11684 0.0
C146 C 0.97943 0.57637 0.22745 0.0
C147 C 0.12955 -0.01268 0.41442 0.0
C148 C 0.14196 0.73012 0.23687 0.0
C149 C 0.50384 0.60833 0.21324 0.0
C150 C 0.4521 0.64721 0.27386 0.0
C151 C 0.49234 -0.00956 0.28387 0.0
C152 C 0.94523 0.30196 0.30468 0.0
C153 C 0.92308 0.42737 0.25629 0.0
C154 C 0.8585 0.46614 0.3149 0.0
C155 C 0.92304 0.35501 0.36514 0.0
C156 C 0.95263 0.33975 0.2499 0.0
C157 C 0.88437 0.43722 0.36981 0.0
C158 C 0.0832 -0.01432 0.15205 0.0
C159 C 0.94224 0.2074 0.3016 0.0
H160 H 0.06742 0.38522 0.1352 0.0
H161 H 0.23468 0.64495 0.11575 0.0
H162 H 0.20151 0.48585 0.07262 0.0
H163 H 0.90659 0.60454 0.26641 0.0
H164 H 0.79864 0.52332 0.32127 0.0
H165 H 0.9212 0.33087 0.40839 0.0
H166 H 0.97912 0.30126 0.20359 0.0
H167 H 0.85746 0.47692 0.41542 0.0
Tb168 Tb 0.21631 0.10678 0.63614 0.0
C169 C 0.22719 0.73161 0.49066 0.0
N170 N 0.09781 0.78074 0.4967 0.0
C171 C 0.94993 0.6923 0.39755 0.0
C172 C 0.22351 0.66167 0.43653 0.0
C173 C 0.95575 0.75926 0.45246 0.0
C174 C 0.08947 0.64612 0.38853 0.0
C175 C 0.44021 0.67316 0.54455 0.0
C176 C 0.33575 0.73737 0.54458 0.0
C177 C 0.4578 0.61275 0.48726 0.0
C178 C 0.34792 0.60671 0.43281 0.0
Tb179 Tb 0.09634 0.87415 0.59427 0.0
N180 N 0.31229 0.7946 0.60028 0.0
C181 C 0.50387 0.66347 0.60322 0.0
C182 C 0.38026 0.78693 0.65812 0.0
C183 C 0.47802 0.7217 0.66024 0.0
H184 H 0.84185 0.79057 0.46211 0.0
H185 H 0.52745 0.7142 0.70566 0.0
H186 H 1.0385 0.10044 0.77872 0.0
H187 H 0.15368 0.29667 0.46809 0.0
H188 H 0.35061 0.8284 0.70287 0.0
H189 H 0.56008 0.60675 0.60455 0.0
H190 H 0.11748 0.15404 0.49121 0.0
H191 H 0.83627 0.67586 0.36344 0.0
H192 H 0.54664 0.56718 0.48703 0.0
H193 H 0.34761 0.5556 0.38962 0.0
H194 H 1.05674 0.2231 0.87172 0.0
H195 H 0.09396 0.5964 0.3458 0.0
H196 H 0.18892 0.42652 0.55902 0.0
N197 N 1.04548 0.17591 0.70948 0.0
C198 C 1.03431 0.25564 0.69956 0.0
C199 C 1.04603 0.23304 0.82355 0.0
C200 C 1.03894 0.32789 0.75218 0.0
C201 C 1.03848 0.16297 0.77024 0.0
C202 C 1.0364 0.31517 0.81445 0.0
N203 N 0.08712 0.19923 0.59111 0.0
C204 C 0.10402 0.20758 0.52929 0.0
C205 C 0.10027 0.35284 0.62861 0.0
C206 C 1.05863 0.26812 0.63798 0.0
C207 C 0.14407 0.36285 0.56736 0.0
C208 C 0.12995 0.28962 0.51631 0.0
H209 H 1.03724 0.36933 0.85603 0.0
H210 H 0.083 0.4677 0.78276 0.0
H211 H 0.14807 0.49018 0.67552 0.0
O212 O 0.38219 0.21909 0.62129 0.0
O213 O 0.89683 0.06394 0.62467 0.0
O214 O 0.82619 -0.08426 0.58339 0.0
O215 O 0.36377 0.19503 0.71716 0.0
O216 O 0.24612 0.05299 0.53038 0.0
O217 O 1.04549 -0.07228 0.50931 0.0
O218 O 1.03346 0.80555 0.66727 0.0
O219 O 0.41528 -0.0808 0.59714 0.0
O220 O 0.48484 0.06695 0.61106 0.0
O221 O 0.884 0.77041 0.57661 0.0
O222 O 1.0606 -0.05574 0.69229 0.0
O223 O 0.29381 0.04538 0.71603 0.0
C224 C 0.76683 -0.00879 0.60246 0.0
C225 C 0.54158 0.33338 0.71089 0.0
C226 C 0.70741 0.47175 0.69842 0.0
C227 C 0.76098 0.49504 0.76424 0.0
C228 C 0.5935 0.35958 0.777 0.0
C229 C 0.71191 0.43681 0.80232 0.0
C230 C 0.59313 0.39163 0.67256 0.0
C231 C 0.14177 -0.01036 0.48806 0.0
C232 C 0.42147 0.24976 0.68308 0.0
C233 C 0.07456 0.41173 0.74234 0.0
C234 C 0.11081 0.4245 0.68134 0.0
C235 C 0.54465 -0.00837 0.60192 0.0
C236 C 0.91391 0.65556 0.62375 0.0
C237 C 0.795 0.52173 0.65448 0.0
C238 C 0.84034 0.47451 0.59509 0.0
C239 C 0.95297 0.60474 0.56446 0.0
C240 C 0.84271 0.6135 0.67079 0.0
C241 C 0.92559 0.51548 0.55195 0.0
C242 C 0.1946 -0.01896 0.73328 0.0
C243 C 0.91174 0.74876 0.63013 0.0
H244 H 0.85186 0.55494 0.78528 0.0
H245 H 0.53674 0.32292 0.80999 0.0
H246 H 0.76237 0.45299 0.85222 0.0
H247 H 0.54508 0.37437 0.62224 0.0
H248 H 0.81822 0.40485 0.58315 0.0
H249 H 0.99193 0.63235 0.52543 0.0
H250 H 0.8076 0.6517 0.71628 0.0
H251 H 0.96644 0.47723 0.50804 0.0
loop_
_geom_bond_atom_site_label_1
_geom_bond_atom_site_label_2
_geom_bond_distance
_geom_bond_site_symmetry_2
_ccdc_geom_bond_type
Tb0 N29 2.617 . S
Tb0 N35 2.572 1_556 S
Tb0 O44 2.465 1_546 S
Tb0 O45 2.387 . S
Tb0 O47 2.428 1_545 S
Tb0 O48 2.308 1_556 S
Tb0 O52 2.349 1_545 S
Tb0 O55 2.393 . S
Tb0 C64 2.802 1_545 S
C1 N2 1.379 . S
C1 C4 1.416 . S
C1 C8 1.424 . S
N2 C1 1.379 . S
N2 C5 1.334 . S
N2 Tb11 2.617 . S
C3 C5 1.390 . S
C3 C6 1.339 . S
C3 H23 0.930 . S
C4 C1 1.416 . S
C4 C6 1.416 . S
C4 C10 1.448 1_545 S
C5 N2 1.334 . S
C5 C3 1.390 . S
C5 H16 0.930 . S
C6 C3 1.339 . S
C6 C4 1.416 . S
C6 H27 0.930 . S
C7 C8 1.413 1_565 S
C7 C9 1.427 . S
C7 C13 1.416 1_554 S
C8 C1 1.424 . S
C8 C7 1.413 1_545 S
C8 N12 1.361 . S
C9 C7 1.427 . S
C9 C10 1.328 . S
C9 H24 0.929 . S
C10 C4 1.448 1_565 S
C10 C9 1.328 . S
C10 H25 0.930 . S
Tb11 N2 2.617 . S
Tb11 N12 2.572 . S
Tb11 O46 2.349 . S
Tb11 O49 2.393 . S
Tb11 O50 2.465 . S
Tb11 O51 2.387 . S
Tb11 O53 2.428 . S
Tb11 O54 2.308 1_554 S
Tb11 C75 2.802 . S
N12 C8 1.361 . S
N12 Tb11 2.572 . S
N12 C14 1.340 1_554 S
C13 C7 1.416 1_556 S
C13 C15 1.332 . S
C13 H21 0.931 . S
C14 N12 1.340 1_556 S
C14 C15 1.407 1_545 S
C14 H20 0.930 . S
C15 C13 1.332 . S
C15 C14 1.407 1_565 S
C15 H17 0.929 . S
H16 C5 0.930 . S
H17 C15 0.929 . S
H18 C33 0.930 . S
H19 C40 0.929 . S
H20 C14 0.930 . S
H21 C13 0.931 . S
H22 C36 0.930 . S
H23 C3 0.930 . S
H24 C9 0.929 . S
H25 C10 0.930 . S
H26 C31 0.930 . S
H27 C6 0.930 . S
H28 C39 0.931 . S
N29 Tb0 2.617 . S
N29 C30 1.379 . S
N29 C33 1.334 . S
C30 N29 1.379 . S
C30 C32 1.416 . S
C30 C38 1.424 . S
C31 H26 0.930 . S
C31 C33 1.390 . S
C31 C34 1.339 . S
C32 C30 1.416 . S
C32 C34 1.416 . S
C32 C65 1.448 . S
C33 H18 0.930 . S
C33 N29 1.334 . S
C33 C31 1.390 . S
C34 C31 1.339 . S
C34 C32 1.416 . S
C34 H41 0.930 . S
N35 Tb0 2.572 1_554 S
N35 C36 1.340 . S
N35 C38 1.361 1_554 S
C36 H22 0.930 . S
C36 N35 1.340 . S
C36 C40 1.407 . S
C37 C38 1.413 1_554 S
C37 C39 1.416 . S
C37 C66 1.427 1_554 S
C38 C30 1.424 . S
C38 N35 1.361 1_556 S
C38 C37 1.413 1_556 S
C39 H28 0.931 . S
C39 C37 1.416 . S
C39 C40 1.332 . S
C40 H19 0.929 . S
C40 C36 1.407 . S
C40 C39 1.332 . S
H41 C34 0.930 . S
H42 C65 0.930 . S
H43 C66 0.929 . S
O44 Tb0 2.465 1_564 S
O44 C64 1.264 1_554 S
O45 Tb0 2.387 . S
O45 C56 1.264 1_556 S
O46 Tb11 2.349 . S
O46 C56 1.243 1_455 S
O47 Tb0 2.428 1_565 S
O47 C64 1.256 . S
O48 Tb0 2.308 1_554 S
O48 C63 1.266 . S
O49 Tb11 2.393 . S
O49 C63 1.248 1_455 S
O50 Tb11 2.465 . S
O50 C75 1.264 . S
O51 Tb11 2.387 . S
O51 C67 1.264 1_545 S
O52 Tb0 2.349 1_565 S
O52 C67 1.243 1_656 S
O53 Tb11 2.428 . S
O53 C75 1.256 . S
O54 Tb11 2.308 1_556 S
O54 C74 1.266 . S
O55 Tb0 2.393 . S
O55 C74 1.248 1_655 S
C56 O45 1.264 1_554 S
C56 O46 1.243 1_655 S
C57 C60 1.399 . S
C57 C62 1.383 1_556 S
C57 C64 1.496 . S
C58 C59 1.399 1_554 S
C58 C62 1.389 . S
C59 C58 1.399 1_556 S
C59 C61 1.380 . S
C59 H76 0.929 . S
C60 C57 1.399 . S
C60 C61 1.392 . S
C60 H77 0.929 . S
C61 C59 1.380 . S
C61 C60 1.392 . S
C61 H78 0.929 . S
C62 C57 1.383 1_554 S
C62 C58 1.389 . S
C62 H79 0.931 . S
C63 O48 1.266 . S
C63 O49 1.248 1_655 S
C64 Tb0 2.802 1_565 S
C64 O44 1.264 1_556 S
C64 O47 1.256 . S
C64 C57 1.496 . S
C65 C32 1.448 . S
C65 H42 0.930 . S
C65 C66 1.328 . S
C66 C37 1.427 1_556 S
C66 H43 0.929 . S
C66 C65 1.328 . S
C67 O51 1.264 1_565 S
C67 O52 1.243 1_454 S
C68 C71 1.399 . S
C68 C72 1.383 . S
C68 C75 1.496 . S
C69 C70 1.399 . S
C69 C72 1.389 . S
C70 C69 1.399 . S
C70 C73 1.380 . S
C70 H80 0.929 . S
C71 C68 1.399 . S
C71 C73 1.392 . S
C71 H81 0.929 . S
C72 C68 1.383 . S
C72 C69 1.389 . S
C72 H82 0.931 1_554 S
C73 C70 1.380 . S
C73 C71 1.392 . S
C73 H83 0.929 . S
C74 O54 1.266 . S
C74 O55 1.248 1_455 S
C75 Tb11 2.802 . S
C75 O50 1.264 . S
C75 O53 1.256 . S
C75 C68 1.496 . S
H76 C59 0.929 . S
H77 C60 0.929 . S
H78 C61 0.929 . S
H79 C62 0.931 . S
H80 C70 0.929 . S
H81 C71 0.929 . S
H82 C72 0.931 1_556 S
H83 C73 0.929 . S
Tb84 N113 2.617 . S
Tb84 N119 2.572 . S
Tb84 O128 2.465 1_655 S
Tb84 O129 2.387 1_565 S
Tb84 O131 2.428 1_655 S
Tb84 O132 2.308 1_565 S
Tb84 O136 2.349 1_665 S
Tb84 O139 2.393 1_565 S
Tb84 C148 2.802 1_655 S
C85 N86 1.379 . S
C85 C88 1.416 . S
C85 C92 1.424 . S
N86 C85 1.379 . S
N86 C89 1.334 . S
N86 Tb95 2.617 . S
C87 C89 1.390 . S
C87 C90 1.339 . S
C87 H107 0.930 . S
C88 C85 1.416 . S
C88 C90 1.416 . S
C88 C94 1.448 . S
C89 N86 1.334 . S
C89 C87 1.390 . S
C89 H100 0.930 . S
C90 C87 1.339 . S
C90 C88 1.416 . S
C90 H111 0.930 . S
C91 C92 1.413 . S
C91 C93 1.427 . S
C91 C97 1.416 . S
C92 C85 1.424 . S
C92 C91 1.413 . S
C92 N96 1.361 . S
C93 C91 1.427 . S
C93 C94 1.328 . S
C93 H108 0.929 . S
C94 C88 1.448 . S
C94 C93 1.328 . S
C94 H109 0.930 . S
Tb95 N86 2.617 . S
Tb95 N96 2.572 . S
Tb95 O130 2.349 1_455 S
Tb95 O133 2.393 . S
Tb95 O134 2.465 . S
Tb95 O135 2.387 . S
Tb95 O137 2.428 . S
Tb95 O138 2.308 . S
Tb95 C159 2.802 1_455 S
N96 C92 1.361 . S
N96 Tb95 2.572 . S
N96 C98 1.340 . S
C97 C91 1.416 . S
C97 C99 1.332 . S
C97 H105 0.931 . S
C98 N96 1.340 . S
C98 C99 1.407 . S
C98 H104 0.930 . S
C99 C97 1.332 . S
C99 C98 1.407 . S
C99 H101 0.929 . S
H100 C89 0.930 . S
H101 C99 0.929 . S
H102 C117 0.930 . S
H103 C124 0.929 . S
H104 C98 0.930 . S
H105 C97 0.931 . S
H106 C120 0.930 . S
H107 C87 0.930 . S
H108 C93 0.929 . S
H109 C94 0.930 . S
H110 C115 0.930 . S
H111 C90 0.930 . S
H112 C123 0.931 . S
N113 Tb84 2.617 . S
N113 C114 1.379 . S
N113 C117 1.334 . S
C114 N113 1.379 . S
C114 C116 1.416 . S
C114 C122 1.424 . S
C115 H110 0.930 . S
C115 C117 1.390 . S
C115 C118 1.339 . S
C116 C114 1.416 . S
C116 C118 1.416 . S
C116 C149 1.448 . S
C117 H102 0.930 . S
C117 N113 1.334 . S
C117 C115 1.390 . S
C118 C115 1.339 . S
C118 C116 1.416 . S
C118 H125 0.930 . S
N119 Tb84 2.572 . S
N119 C120 1.340 . S
N119 C122 1.361 . S
C120 H106 0.930 . S
C120 N119 1.340 . S
C120 C124 1.407 . S
C121 C122 1.413 . S
C121 C123 1.416 . S
C121 C150 1.427 . S
C122 C114 1.424 . S
C122 N119 1.361 . S
C122 C121 1.413 . S
C123 H112 0.931 . S
C123 C121 1.416 . S
C123 C124 1.332 . S
C124 H103 0.929 . S
C124 C120 1.407 . S
C124 C123 1.332 . S
H125 C118 0.930 . S
H126 C149 0.930 . S
H127 C150 0.929 . S
O128 Tb84 2.465 1_455 S
O128 C148 1.264 . S
O129 Tb84 2.387 1_545 S
O129 C140 1.264 . S
O130 Tb95 2.349 1_655 S
O130 C140 1.243 . S
O131 Tb84 2.428 1_455 S
O131 C148 1.256 . S
O132 Tb84 2.308 1_545 S
O132 C147 1.266 1_655 S
O133 Tb95 2.393 . S
O133 C147 1.248 . S
O134 Tb95 2.465 . S
O134 C159 1.264 1_455 S
O135 Tb95 2.387 . S
O135 C151 1.264 . S
O136 Tb84 2.349 1_445 S
O136 C151 1.243 . S
O137 Tb95 2.428 . S
O137 C159 1.256 1_455 S
O138 Tb95 2.308 . S
O138 C158 1.266 . S
O139 Tb84 2.393 1_545 S
O139 C158 1.248 1_655 S
C140 O129 1.264 . S
C140 O130 1.243 . S
C141 C144 1.399 . S
C141 C146 1.383 . S
C141 C148 1.496 . S
C142 C143 1.399 . S
C142 C146 1.389 . S
C143 C142 1.399 . S
C143 C145 1.380 . S
C143 H160 0.929 . S
C144 C141 1.399 . S
C144 C145 1.392 . S
C144 H161 0.929 . S
C145 C143 1.380 . S
C145 C144 1.392 . S
C145 H162 0.929 . S
C146 C141 1.383 . S
C146 C142 1.389 . S
C146 H163 0.931 . S
C147 O132 1.266 1_455 S
C147 O133 1.248 . S
C148 Tb84 2.802 1_455 S
C148 O128 1.264 . S
C148 O131 1.256 . S
C148 C141 1.496 . S
C149 C116 1.448 . S
C149 H126 0.930 . S
C149 C150 1.328 . S
C150 C121 1.427 . S
C150 H127 0.929 . S
C150 C149 1.328 . S
C151 O135 1.264 . S
C151 O136 1.243 . S
C152 C155 1.399 . S
C152 C156 1.383 . S
C152 C159 1.496 . S
C153 C154 1.399 . S
C153 C156 1.389 . S
C154 C153 1.399 . S
C154 C157 1.380 . S
C154 H164 0.929 . S
C155 C152 1.399 . S
C155 C157 1.392 . S
C155 H165 0.929 . S
C156 C152 1.383 . S
C156 C153 1.389 . S
C156 H166 0.931 . S
C157 C154 1.380 . S
C157 C155 1.392 . S
C157 H167 0.929 . S
C158 O138 1.266 . S
C158 O139 1.248 1_455 S
C159 Tb95 2.802 1_655 S
C159 O134 1.264 1_655 S
C159 O137 1.256 1_655 S
C159 C152 1.496 . S
H160 C143 0.929 . S
H161 C144 0.929 . S
H162 C145 0.929 . S
H163 C146 0.931 . S
H164 C154 0.929 . S
H165 C155 0.929 . S
H166 C156 0.931 . S
H167 C157 0.929 . S
Tb168 N197 2.617 . S
Tb168 N203 2.572 1_455 S
Tb168 O212 2.465 . S
Tb168 O213 2.387 1_455 S
Tb168 O215 2.428 . S
Tb168 O216 2.308 . S
Tb168 O220 2.349 . S
Tb168 O223 2.393 . S
Tb168 C232 2.802 . S
C169 N170 1.379 . S
C169 C172 1.416 . S
C169 C176 1.424 . S
N170 C169 1.379 . S
N170 C173 1.334 . S
N170 Tb179 2.617 . S
C171 C173 1.390 . S
C171 C174 1.339 . S
C171 H191 0.930 . S
C172 C169 1.416 . S
C172 C174 1.416 . S
C172 C178 1.448 . S
C173 N170 1.334 . S
C173 C171 1.390 . S
C173 H184 0.930 . S
C174 C171 1.339 . S
C174 C172 1.416 . S
C174 H195 0.930 . S
C175 C176 1.413 . S
C175 C177 1.427 . S
C175 C181 1.416 . S
C176 C169 1.424 . S
C176 C175 1.413 . S
C176 N180 1.361 . S
C177 C175 1.427 . S
C177 C178 1.328 . S
C177 H192 0.929 . S
C178 C172 1.448 . S
C178 C177 1.328 . S
C178 H193 0.930 . S
Tb179 N170 2.617 . S
Tb179 N180 2.572 . S
Tb179 O214 2.349 1_455 S
Tb179 O217 2.393 . S
Tb179 O218 2.465 1_455 S
Tb179 O219 2.387 . S
Tb179 O221 2.428 1_455 S
Tb179 O222 2.308 . S
Tb179 C243 2.802 1_455 S
N180 C176 1.361 . S
N180 Tb179 2.572 . S
N180 C182 1.340 . S
C181 C175 1.416 . S
C181 C183 1.332 . S
C181 H189 0.931 . S
C182 N180 1.340 . S
C182 C183 1.407 . S
C182 H188 0.930 . S
C183 C181 1.332 . S
C183 C182 1.407 . S
C183 H185 0.929 . S
H184 C173 0.930 . S
H185 C183 0.929 . S
H186 C201 0.930 . S
H187 C208 0.929 . S
H188 C182 0.930 . S
H189 C181 0.931 . S
H190 C204 0.930 . S
H191 C171 0.930 . S
H192 C177 0.929 . S
H193 C178 0.930 . S
H194 C199 0.930 1_554 S
H195 C174 0.930 . S
H196 C207 0.931 . S
N197 Tb168 2.617 . S
N197 C198 1.379 1_455 S
N197 C201 1.334 . S
C198 N197 1.379 1_655 S
C198 C200 1.416 . S
C198 C206 1.424 . S
C199 H194 0.930 1_556 S
C199 C201 1.390 . S
C199 C202 1.339 1_455 S
C200 C198 1.416 . S
C200 C202 1.416 . S
C200 C233 1.448 . S
C201 H186 0.930 . S
C201 N197 1.334 . S
C201 C199 1.390 . S
C202 C199 1.339 1_655 S
C202 C200 1.416 . S
C202 H209 0.930 . S
N203 Tb168 2.572 1_655 S
N203 C204 1.340 . S
N203 C206 1.361 . S
C204 H190 0.930 . S
C204 N203 1.340 . S
C204 C208 1.407 . S
C205 C206 1.413 . S
C205 C207 1.416 . S
C205 C234 1.427 . S
C206 C198 1.424 . S
C206 N203 1.361 . S
C206 C205 1.413 . S
C207 H196 0.931 . S
C207 C205 1.416 . S
C207 C208 1.332 . S
C208 H187 0.929 . S
C208 C204 1.407 . S
C208 C207 1.332 . S
H209 C202 0.930 . S
H210 C233 0.930 . S
H211 C234 0.929 . S
O212 Tb168 2.465 . S
O212 C232 1.264 . S
O213 Tb168 2.387 1_655 S
O213 C224 1.264 . S
O214 Tb179 2.349 1_655 S
O214 C224 1.243 1_565 S
O215 Tb168 2.428 . S
O215 C232 1.256 . S
O216 Tb168 2.308 . S
O216 C231 1.266 . S
O217 Tb179 2.393 . S
O217 C231 1.248 1_565 S
O218 Tb179 2.465 1_655 S
O218 C243 1.264 . S
O219 Tb179 2.387 . S
O219 C235 1.264 1_565 S
O220 Tb168 2.349 . S
O220 C235 1.243 . S
O221 Tb179 2.428 1_655 S
O221 C243 1.256 . S
O222 Tb179 2.308 . S
O222 C242 1.266 1_565 S
O223 Tb168 2.393 . S
O223 C242 1.248 . S
C224 O213 1.264 . S
C224 O214 1.243 1_545 S
C225 C228 1.399 . S
C225 C230 1.383 . S
C225 C232 1.496 . S
C226 C227 1.399 . S
C226 C230 1.389 . S
C227 C226 1.399 . S
C227 C229 1.380 . S
C227 H244 0.929 . S
C228 C225 1.399 . S
C228 C229 1.392 . S
C228 H245 0.929 . S
C229 C227 1.380 . S
C229 C228 1.392 . S
C229 H246 0.929 . S
C230 C225 1.383 . S
C230 C226 1.389 . S
C230 H247 0.931 . S
C231 O216 1.266 . S
C231 O217 1.248 1_545 S
C232 Tb168 2.802 . S
C232 O212 1.264 . S
C232 O215 1.256 . S
C232 C225 1.496 . S
C233 C200 1.448 . S
C233 H210 0.930 . S
C233 C234 1.328 . S
C234 C205 1.427 . S
C234 H211 0.929 . S
C234 C233 1.328 . S
C235 O219 1.264 1_545 S
C235 O220 1.243 . S
C236 C239 1.399 . S
C236 C240 1.383 . S
C236 C243 1.496 . S
C237 C238 1.399 . S
C237 C240 1.389 . S
C238 C237 1.399 . S
C238 C241 1.380 . S
C238 H248 0.929 . S
C239 C236 1.399 . S
C239 C241 1.392 . S
C239 H249 0.929 . S
C240 C236 1.383 . S
C240 C237 1.389 . S
C240 H250 0.931 . S
C241 C238 1.380 . S
C241 C239 1.392 . S
C241 H251 0.929 . S
C242 O222 1.266 1_545 S
C242 O223 1.248 . S
C243 Tb179 2.802 1_655 S
C243 O218 1.264 . S
C243 O221 1.256 . S
C243 C236 1.496 . S
H244 C227 0.929 . S
H245 C228 0.929 . S
H246 C229 0.929 . S
H247 C230 0.931 . S
H248 C238 0.929 . S
H249 C239 0.929 . S
H250 C240 0.931 . S
H251 C241 0.929 . S
C56 C67 5.353 1_645 S
C151 C140 4.291 . S
C237 C226 1.638 . S
C224 C235 3.994 . S
C58 C69 3.499 . S
C153 C142 4.772 1_655 S
C158 C63 1.565 1_455 S
C147 C231 1.972 . S
C242 C74 1.830 . S
