# Generated by pormake.
# Topology bnn, (5)-cn, num edge types: 1
# Building blocks:
#     Node 0, Type 0, BuildingBlock: XOMCOT_clean_sbu_0, # of connection points: 5
#     Node 1, Type 0, BuildingBlock: XOMCOT_clean_sbu_0, # of connection points: 5
#     Edge 2, Type (0, 0), BuildingBlock: UVAHIK_clean_linker_0, # of connection points: 2
#     Edge 3, Type (0, 0), BuildingBlock: UVAHIK_clean_linker_0, # of connection points: 2
#     Edge 4, Type (0, 0), BuildingBlock: UVAHIK_clean_linker_0, # of connection points: 2
#     Edge 5, Type (0, 0), BuildingBlock: UVAHIK_clean_linker_0, # of connection points: 2
#     Edge 6, Type (0, 0), BuildingBlock: UVAHIK_clean_linker_0, # of connection points: 2
# Relax obj value: 0.022
# Max RMSD: 0.079
# Mean RMSD: 0.079
data_MOF--net-bnn--node1-XOMCOT_clean_sbu_0--edge1-UVAHIK_clean_linker_0
_symmetry_space_group_name_H-M    P1
_symmetry_Int_Tables_number       1
_symmetry_cell_setting            triclinic
loop_
_symmetry_equiv_pos_as_xyz
'x, y, z'
_cell_length_a     37.471721
_cell_length_b     34.93961
_cell_length_c     22.080874
_cell_angle_alpha  100.95681
_cell_angle_beta   90.009786
_cell_angle_gamma 122.54951
loop_
_atom_site_label
_atom_site_type_symbol
_atom_site_fract_x
_atom_site_fract_y
_atom_site_fract_z
_atom_type_partial_charge
Co0 Co 0.3319 0.68961 0.04551 0.0
C1 C 0.33061 0.69656 0.18129 0.0
C2 C 0.33833 0.75628 0.15436 0.0
C3 C 0.33798 0.76239 0.2177 0.0
N4 N 0.33396 0.71521 0.13175 0.0
N5 N 0.33318 0.72488 0.23467 0.0
H6 H 0.32669 0.66323 0.17831 0.0
H7 H 0.34119 0.77996 0.12658 0.0
C8 C 0.40708 0.76995 1.00144 0.0
O9 O 0.41197 0.74123 0.96008 0.0
N10 N 0.32896 0.664 0.95812 0.0
C11 C 0.32643 0.62425 0.93228 0.0
C12 C 0.32164 0.6175 0.8687 0.0
C13 C 0.32442 0.6801 0.90955 0.0
N14 N 0.32052 0.65268 0.85439 0.0
C15 C 0.35515 0.62868 0.0733 0.0
C16 C 0.44246 0.69072 0.09468 0.0
C17 C 0.42539 0.64368 0.09422 0.0
C18 C 0.38101 0.61292 0.08481 0.0
C19 C 0.41515 0.70521 0.08318 0.0
N20 N 0.37206 0.67369 0.06901 0.0
H21 H 0.32122 0.60352 0.06525 0.0
H22 H 0.42911 0.74175 0.08626 0.0
H23 H 0.32701 0.60077 0.9569 0.0
H24 H 0.3238 0.71116 0.91464 0.0
O25 O 0.27922 0.6325 0.04998 0.0
O26 O 0.28315 0.69287 0.02511 0.0
O27 O 0.37864 0.75455 0.03823 0.0
C28 C 0.25939 0.65077 0.03402 0.0
H29 H 0.34027 0.79185 0.24862 0.0
H30 H 0.31957 0.58902 0.83558 0.0
H31 H 0.47656 0.71612 0.10395 0.0
H32 H 0.36608 0.57627 0.08392 0.0
Co33 Co 0.66136 0.34967 0.02194 0.0
C34 C 0.65324 0.34267 0.88614 0.0
C35 C 0.60106 0.28292 0.91299 0.0
C36 C 0.59471 0.27671 0.84961 0.0
N37 N 0.63781 0.32406 0.93567 0.0
N38 N 0.62754 0.31425 0.8327 0.0
H39 H 0.68275 0.37603 0.88914 0.0
H40 H 0.58014 0.25922 0.94074 0.0
C41 C 0.65579 0.2691 0.06581 0.0
O42 O 0.68928 0.29761 0.10762 0.0
N43 N 0.68405 0.37526 0.10934 0.0
C44 C 0.72123 0.41522 0.13525 0.0
C45 C 0.72319 0.42192 0.19882 0.0
C46 C 0.66341 0.359 0.15786 0.0
N47 N 0.68692 0.38649 0.21304 0.0
C48 C 0.7458 0.4107 0.99443 0.0
C49 C 0.77082 0.34863 0.97278 0.0
C50 C 0.80096 0.39569 0.97332 0.0
C51 C 0.78746 0.42646 0.98291 0.0
C52 C 0.72899 0.33414 0.98432 0.0
N53 N 0.71753 0.36566 0.99858 0.0
H54 H 0.7371 0.43585 1.00252 0.0
H55 H 0.70628 0.29759 0.98118 0.0
H56 H 0.74524 0.43887 0.11067 0.0
H57 H 0.63174 0.32776 0.15271 0.0
O58 O 0.66594 0.40675 0.01743 0.0
O59 O 0.60928 0.34632 0.0422 0.0
O60 O 0.64299 0.28473 0.02911 0.0
C61 C 0.62774 0.38842 0.03328 0.0
H62 H 0.56754 0.24716 0.81861 0.0
H63 H 0.74957 0.45054 0.23199 0.0
H64 H 0.77941 0.32322 0.96337 0.0
H65 H 0.80932 0.46313 0.98389 0.0
C66 C 0.48913 0.64004 0.06874 0.0
C67 C 0.45292 0.6255 0.10023 0.0
C68 C 0.51105 0.61769 0.06646 0.0
C69 C 0.52186 0.53404 0.13566 0.0
H70 H 0.55733 0.50927 0.97594 0.0
C71 C 0.57001 0.39995 0.07051 0.0
C72 C 0.60727 0.41504 0.04148 0.0
C73 C 0.55207 0.42665 0.07985 0.0
C74 C 0.5479 0.51619 0.02099 0.0
H75 H 0.41336 0.5783 0.15792 0.0
H76 H 0.45054 0.53859 0.15239 0.0
H77 H 0.52687 0.55631 0.99097 0.0
H78 H 0.65461 0.46957 0.99886 0.0
H79 H 0.62314 0.51561 0.01453 0.0
H80 H 0.54212 0.49279 0.16491 0.0
C81 C 0.46235 0.56737 0.12967 0.0
C82 C 0.53066 0.54346 0.02981 0.0
C83 C 0.44066 0.58986 0.13225 0.0
C84 C 0.62587 0.45695 0.02138 0.0
C85 C 0.60775 0.48327 0.03008 0.0
C86 C 0.53878 0.50639 0.12661 0.0
C87 C 0.49722 0.58017 0.09545 0.0
C88 C 0.51738 0.5528 0.08727 0.0
C89 C 0.57076 0.46859 0.05963 0.0
C90 C 0.55201 0.4972 0.06918 0.0
H91 H 0.4994 0.66723 0.04339 0.0
H92 H 0.53833 0.62922 0.04078 0.0
H93 H 0.51257 0.54095 0.18081 0.0
H94 H 0.55504 0.36787 0.08663 0.0
H95 H 0.52334 0.41426 0.10234 0.0
C96 C 0.86832 0.39913 0.99836 0.0
C97 C 0.84671 0.41384 0.96719 0.0
C98 C 0.91265 0.42141 1.00051 0.0
C99 C 1.00737 0.50528 0.93149 0.0
H100 H 0.06776 0.52945 0.09088 0.0
C101 C 0.19008 0.63926 0.99685 0.0
C102 C 0.2122 0.62408 0.02567 0.0
C103 C 0.14535 0.61253 0.98743 0.0
C104 C 0.05136 0.52269 0.04592 0.0
H105 H 0.85453 0.46128 0.90989 0.0
H106 H 0.93153 0.50089 0.91523 0.0
H107 H 0.99011 0.48248 0.07592 0.0
H108 H 0.20484 0.56933 0.06779 0.0
H109 H 0.12718 0.52324 0.05197 0.0
H110 H 0.06901 0.54664 0.90228 0.0
C111 C 0.91446 0.47202 0.9378 0.0
C112 C 1.00677 0.49546 0.03714 0.0
C113 C 0.87021 0.44959 0.93534 0.0
C114 C 0.18876 0.58204 0.04546 0.0
C115 C 0.14423 0.55568 0.03666 0.0
C116 C 0.05204 0.53289 0.94051 0.0
C117 C 0.93647 0.45904 0.9717 0.0
C118 C 0.98409 0.48635 0.97981 0.0
C119 C 0.12196 0.57046 1.00735 0.0
C120 C 0.07452 0.54187 0.99782 0.0
H121 H 0.85131 0.37184 0.02356 0.0
H122 H 0.92834 0.40974 0.02593 0.0
H123 H 0.99113 0.49854 0.88644 0.0
H124 H 0.20729 0.67144 0.98097 0.0
H125 H 0.12905 0.625 0.96514 0.0
C126 C 0.45401 0.8394 0.95625 0.0
C127 C 0.43584 0.82097 1.00771 0.0
C128 C 0.47946 0.88774 0.96176 0.0
C129 C 0.55026 0.99874 0.06961 0.0
H130 H 0.51516 0.05261 0.96428 0.0
C131 C 0.63237 0.1989 0.10957 0.0
C132 C 0.63352 0.21801 0.05858 0.0
C133 C 0.60946 0.15045 0.103 0.0
C134 C 0.52623 0.03843 0.99332 0.0
H135 H 0.43104 0.83869 0.10565 0.0
H136 H 0.47681 0.92311 0.11564 0.0
H137 H 0.47469 0.96843 0.95222 0.0
H138 H 0.61296 0.2015 0.96019 0.0
H139 H 0.57533 0.11759 0.94766 0.0
H140 H 0.60269 0.06805 0.10935 0.0
C141 C 0.47078 0.90011 0.07095 0.0
C142 C 0.50267 0.99002 0.98654 0.0
C143 C 0.44448 0.85185 0.06511 0.0
C144 C 0.61224 0.18776 1.00057 0.0
C145 C 0.59025 0.13944 0.9936 0.0
C146 C 0.57449 0.04712 0.07549 0.0
C147 C 0.48812 0.91852 0.0192 0.0
C148 C 0.51425 0.96974 0.02491 0.0
C149 C 0.58792 0.11983 0.04486 0.0
C150 C 0.56271 0.0679 0.03775 0.0
H151 H 0.4477 0.81646 0.91139 0.0
H152 H 0.49254 0.90112 0.92121 0.0
H153 H 0.55999 0.98386 0.09953 0.0
H154 H 0.64816 0.22139 0.155 0.0
H155 H 0.60799 0.1372 0.14404 0.0
C156 C 0.33671 0.70506 0.78265 0.0
C157 C 0.31754 0.65986 0.79288 0.0
C158 C 0.33653 0.71191 0.72223 0.0
C159 C 0.32622 0.65361 0.55886 0.0
H160 H 0.31055 0.74783 0.5207 0.0
C161 C 0.30977 0.6716 0.30687 0.0
C162 C 0.33104 0.71705 0.29684 0.0
C163 C 0.30712 0.66425 0.36729 0.0
C164 C 0.3154 0.72167 0.53072 0.0
H165 H 0.28131 0.58639 0.74793 0.0
H166 H 0.28075 0.59824 0.64291 0.0
H167 H 0.30704 0.73601 0.62651 0.0
H168 H 0.36719 0.79038 0.34284 0.0
H169 H 0.36257 0.77757 0.44781 0.0
H170 H 0.33473 0.63936 0.46322 0.0
C171 C 0.29683 0.62849 0.68132 0.0
C172 C 0.31339 0.7149 0.59139 0.0
C173 C 0.29709 0.62167 0.74157 0.0
C174 C 0.34986 0.7549 0.34872 0.0
C175 C 0.3472 0.74756 0.40902 0.0
C176 C 0.32821 0.66035 0.49825 0.0
C177 C 0.31708 0.67369 0.67077 0.0
C178 C 0.31879 0.6808 0.6062 0.0
C179 C 0.32569 0.70216 0.4191 0.0
C180 C 0.32291 0.69452 0.48344 0.0
H181 H 0.35313 0.7352 0.82111 0.0
H182 H 0.35278 0.74722 0.71573 0.0
H183 H 0.33129 0.62759 0.56885 0.0
H184 H 0.29443 0.64163 0.26812 0.0
H185 H 0.28986 0.62879 0.37341 0.0
C186 C 0.69428 0.41732 0.32583 0.0
C187 C 0.67679 0.37918 0.2745 0.0
C188 C 0.68729 0.41041 0.38605 0.0
C189 C 0.61791 0.32347 0.47579 0.0
H190 H 0.71483 0.40009 0.60422 0.0
C191 C 0.61463 0.28406 0.71875 0.0
C192 C 0.63338 0.32199 0.77052 0.0
C193 C 0.61939 0.29131 0.6584 0.0
C194 C 0.68731 0.37879 0.56912 0.0
H195 H 0.63758 0.30381 0.24618 0.0
H196 H 0.62535 0.29161 0.35153 0.0
H197 H 0.72305 0.41187 0.49859 0.0
H198 H 0.67179 0.39742 0.79907 0.0
H199 H 0.68017 0.41012 0.69371 0.0
H200 H 0.58224 0.29025 0.54639 0.0
C201 C 0.64415 0.32696 0.34506 0.0
C202 C 0.692 0.38554 0.50851 0.0
C203 C 0.6511 0.33391 0.28467 0.0
C204 C 0.65738 0.36741 0.76038 0.0
C205 C 0.66215 0.37468 0.69993 0.0
C206 C 0.61322 0.31671 0.53645 0.0
C207 C 0.66267 0.36515 0.39655 0.0
C208 C 0.65737 0.35798 0.46108 0.0
C209 C 0.64306 0.33669 0.6482 0.0
C210 C 0.64789 0.34425 0.58383 0.0
H211 H 0.71353 0.45264 0.31949 0.0
H212 H 0.70125 0.44062 0.42447 0.0
H213 H 0.59045 0.30207 0.44058 0.0
H214 H 0.59663 0.24861 0.72475 0.0
H215 H 0.60496 0.26126 0.61969 0.0
loop_
_geom_bond_atom_site_label_1
_geom_bond_atom_site_label_2
_geom_bond_distance
_geom_bond_site_symmetry_2
_ccdc_geom_bond_type
Co0 N4 2.148 . S
Co0 N10 2.128 1_554 S
Co0 N20 2.194 . S
Co0 O25 2.351 . S
Co0 O26 2.155 . S
Co0 O27 2.096 . S
C1 N4 1.301 . S
C1 N5 1.328 . S
C1 H6 0.930 . S
C2 C3 1.333 . S
C2 N4 1.317 . S
C2 H7 0.930 . S
C3 C2 1.333 . S
C3 N5 1.350 . S
C3 H29 0.931 . S
N4 Co0 2.148 . S
N4 C1 1.301 . S
N4 C2 1.317 . S
N5 C1 1.328 . S
N5 C3 1.350 . S
H6 C1 0.930 . S
H7 C2 0.930 . S
C8 O9 1.224 . S
C8 O27 1.247 . S
O9 C8 1.224 . S
N10 Co0 2.128 1_556 S
N10 C11 1.355 . S
N10 C13 1.311 . S
C11 N10 1.355 . S
C11 C12 1.363 . S
C11 H23 0.929 . S
C12 C11 1.363 . S
C12 N14 1.375 . S
C12 H30 0.931 . S
C13 N10 1.311 . S
C13 N14 1.347 . S
C13 H24 0.929 . S
N14 C12 1.375 . S
N14 C13 1.347 . S
C15 C18 1.365 . S
C15 N20 1.328 . S
C15 H21 0.929 . S
C16 C17 1.362 . S
C16 C19 1.378 . S
C16 H31 0.929 . S
C17 C16 1.362 . S
C17 C18 1.366 . S
C18 C15 1.365 . S
C18 C17 1.366 . S
C18 H32 0.930 . S
C19 C16 1.378 . S
C19 N20 1.315 . S
C19 H22 0.930 . S
N20 Co0 2.194 . S
N20 C15 1.328 . S
N20 C19 1.315 . S
H21 C15 0.929 . S
H22 C19 0.930 . S
H23 C11 0.929 . S
H24 C13 0.929 . S
O25 Co0 2.351 . S
O25 C28 1.244 . S
O26 Co0 2.155 . S
O26 C28 1.240 . S
O27 Co0 2.096 . S
O27 C8 1.247 . S
C28 O25 1.244 . S
C28 O26 1.240 . S
H29 C3 0.931 . S
H30 C12 0.931 . S
H31 C16 0.929 . S
H32 C18 0.930 . S
Co33 N37 2.148 1_554 S
Co33 N43 2.128 . S
Co33 N53 2.194 . S
Co33 O58 2.351 . S
Co33 O59 2.155 . S
Co33 O60 2.096 . S
C34 N37 1.301 . S
C34 N38 1.328 . S
C34 H39 0.930 . S
C35 C36 1.333 . S
C35 N37 1.317 . S
C35 H40 0.930 . S
C36 C35 1.333 . S
C36 N38 1.350 . S
C36 H62 0.931 . S
N37 Co33 2.148 1_556 S
N37 C34 1.301 . S
N37 C35 1.317 . S
N38 C34 1.328 . S
N38 C36 1.350 . S
H39 C34 0.930 . S
H40 C35 0.930 . S
C41 O42 1.224 . S
C41 O60 1.247 . S
O42 C41 1.224 . S
N43 Co33 2.128 . S
N43 C44 1.355 . S
N43 C46 1.311 . S
C44 N43 1.355 . S
C44 C45 1.363 . S
C44 H56 0.929 . S
C45 C44 1.363 . S
C45 N47 1.375 . S
C45 H63 0.931 . S
C46 N43 1.311 . S
C46 N47 1.347 . S
C46 H57 0.929 . S
N47 C45 1.375 . S
N47 C46 1.347 . S
C48 C51 1.365 . S
C48 N53 1.328 . S
C48 H54 0.932 . S
C49 C50 1.362 . S
C49 C52 1.378 . S
C49 H64 0.929 . S
C50 C49 1.362 . S
C50 C51 1.366 . S
C51 C48 1.365 . S
C51 C50 1.366 . S
C51 H65 0.930 . S
C52 C49 1.378 . S
C52 N53 1.315 . S
C52 H55 0.930 . S
N53 Co33 2.194 . S
N53 C48 1.328 . S
N53 C52 1.315 . S
H54 C48 0.932 . S
H55 C52 0.930 . S
H56 C44 0.929 . S
H57 C46 0.929 . S
O58 Co33 2.351 . S
O58 C61 1.244 . S
O59 Co33 2.155 . S
O59 C61 1.240 . S
O60 Co33 2.096 . S
O60 C41 1.247 . S
C61 O58 1.244 . S
C61 O59 1.240 . S
H62 C36 0.931 . S
H63 C45 0.931 . S
H64 C49 0.929 . S
H65 C51 0.930 . S
C66 C67 1.349 1_556 S
C66 C68 1.327 . S
C66 H91 0.950 . S
C67 C66 1.349 1_554 S
C67 C83 1.349 . S
C68 C66 1.327 . S
C68 C87 1.429 1_556 S
C68 H92 0.950 . S
C69 C86 1.574 . S
C69 C88 1.368 . S
C69 H93 0.949 . S
H70 C74 0.949 . S
C71 C72 1.349 . S
C71 C73 1.327 . S
C71 H94 0.950 . S
C72 C71 1.349 . S
C72 C84 1.349 1_554 S
C73 C71 1.327 . S
C73 C89 1.429 . S
C73 H95 0.950 . S
C74 H70 0.949 . S
C74 C82 1.574 . S
C74 C90 1.368 1_556 S
H75 C83 0.950 . S
H76 C81 0.950 . S
H77 C82 0.949 . S
H78 C84 0.950 . S
H79 C85 0.950 . S
H80 C86 0.949 . S
C81 H76 0.950 . S
C81 C83 1.327 . S
C81 C87 1.429 . S
C82 C74 1.574 . S
C82 H77 0.949 . S
C82 C88 1.368 1_556 S
C83 C67 1.349 . S
C83 H75 0.950 . S
C83 C81 1.327 . S
C84 C72 1.349 1_556 S
C84 H78 0.950 . S
C84 C85 1.327 . S
C85 H79 0.950 . S
C85 C84 1.327 . S
C85 C89 1.429 1_556 S
C86 C69 1.574 . S
C86 H80 0.949 . S
C86 C90 1.368 . S
C87 C68 1.429 1_554 S
C87 C81 1.429 . S
C87 C88 1.523 . S
C88 C69 1.368 . S
C88 C82 1.368 1_554 S
C88 C87 1.523 . S
C89 C73 1.429 . S
C89 C85 1.429 1_554 S
C89 C90 1.523 . S
C90 C74 1.368 1_554 S
C90 C86 1.368 . S
C90 C89 1.523 . S
H91 C66 0.950 . S
H92 C68 0.950 . S
H93 C69 0.949 . S
H94 C71 0.950 . S
H95 C73 0.950 . S
C96 C97 1.349 . S
C96 C98 1.327 . S
C96 H121 0.950 . S
C97 C96 1.349 . S
C97 C113 1.349 1_554 S
C98 C96 1.327 . S
C98 C117 1.429 . S
C98 H122 0.950 . S
C99 C116 1.574 1_655 S
C99 C118 1.368 1_556 S
C99 H123 0.949 . S
H100 C104 0.949 . S
C101 C102 1.349 1_556 S
C101 C103 1.327 . S
C101 H124 0.950 . S
C102 C101 1.349 1_554 S
C102 C114 1.349 . S
C103 C101 1.327 . S
C103 C119 1.429 1_556 S
C103 H125 0.950 . S
C104 H100 0.949 . S
C104 C112 1.574 1_455 S
C104 C120 1.368 . S
H105 C113 0.950 . S
H106 C111 0.950 . S
H107 C112 0.949 . S
H108 C114 0.950 . S
H109 C115 0.950 . S
H110 C116 0.949 . S
C111 H106 0.950 . S
C111 C113 1.327 . S
C111 C117 1.429 1_556 S
C112 C104 1.574 1_655 S
C112 H107 0.949 . S
C112 C118 1.368 . S
C113 C97 1.349 1_556 S
C113 H105 0.950 . S
C113 C111 1.327 . S
C114 C102 1.349 . S
C114 H108 0.950 . S
C114 C115 1.327 . S
C115 H109 0.950 . S
C115 C114 1.327 . S
C115 C119 1.429 . S
C116 C99 1.574 1_455 S
C116 H110 0.949 . S
C116 C120 1.368 1_556 S
C117 C98 1.429 . S
C117 C111 1.429 1_554 S
C117 C118 1.523 . S
C118 C99 1.368 1_554 S
C118 C112 1.368 . S
C118 C117 1.523 . S
C119 C103 1.429 1_554 S
C119 C115 1.429 . S
C119 C120 1.523 . S
C120 C104 1.368 . S
C120 C116 1.368 1_554 S
C120 C119 1.523 . S
H121 C96 0.950 . S
H122 C98 0.950 . S
H123 C99 0.949 . S
H124 C101 0.950 . S
H125 C103 0.950 . S
C126 C127 1.349 1_556 S
C126 C128 1.327 . S
C126 H151 0.950 . S
C127 C126 1.349 1_554 S
C127 C143 1.349 . S
C128 C126 1.327 . S
C128 C147 1.429 1_556 S
C128 H152 0.950 . S
C129 C146 1.574 1_565 S
C129 C148 1.368 . S
C129 H153 0.949 . S
H130 C134 0.949 . S
C131 C132 1.349 . S
C131 C133 1.327 . S
C131 H154 0.950 . S
C132 C131 1.349 . S
C132 C144 1.349 1_554 S
C133 C131 1.327 . S
C133 C149 1.429 . S
C133 H155 0.950 . S
C134 H130 0.949 . S
C134 C142 1.574 1_545 S
C134 C150 1.368 1_556 S
H135 C143 0.950 . S
H136 C141 0.950 . S
H137 C142 0.949 . S
H138 C144 0.950 . S
H139 C145 0.950 . S
H140 C146 0.949 . S
C141 H136 0.950 . S
C141 C143 1.327 . S
C141 C147 1.429 . S
C142 C134 1.574 1_565 S
C142 H137 0.949 . S
C142 C148 1.368 1_556 S
C143 C127 1.349 . S
C143 H135 0.950 . S
C143 C141 1.327 . S
C144 C132 1.349 1_556 S
C144 H138 0.950 . S
C144 C145 1.327 . S
C145 H139 0.950 . S
C145 C144 1.327 . S
C145 C149 1.429 1_556 S
C146 C129 1.574 1_545 S
C146 H140 0.949 . S
C146 C150 1.368 . S
C147 C128 1.429 1_554 S
C147 C141 1.429 . S
C147 C148 1.523 . S
C148 C129 1.368 . S
C148 C142 1.368 1_554 S
C148 C147 1.523 . S
C149 C133 1.429 . S
C149 C145 1.429 1_554 S
C149 C150 1.523 . S
C150 C134 1.368 1_554 S
C150 C146 1.368 . S
C150 C149 1.523 . S
H151 C126 0.950 . S
H152 C128 0.950 . S
H153 C129 0.949 . S
H154 C131 0.950 . S
H155 C133 0.950 . S
C156 C157 1.349 . S
C156 C158 1.327 . S
C156 H181 0.950 . S
C157 C156 1.349 . S
C157 C173 1.349 . S
C158 C156 1.327 . S
C158 C177 1.429 . S
C158 H182 0.950 . S
C159 C176 1.574 . S
C159 C178 1.368 . S
C159 H183 0.949 . S
H160 C164 0.949 . S
C161 C162 1.349 . S
C161 C163 1.327 . S
C161 H184 0.950 . S
C162 C161 1.349 . S
C162 C174 1.349 . S
C163 C161 1.327 . S
C163 C179 1.429 . S
C163 H185 0.950 . S
C164 H160 0.949 . S
C164 C172 1.574 . S
C164 C180 1.368 . S
H165 C173 0.950 . S
H166 C171 0.950 . S
H167 C172 0.949 . S
H168 C174 0.950 . S
H169 C175 0.950 . S
H170 C176 0.949 . S
C171 H166 0.950 . S
C171 C173 1.327 . S
C171 C177 1.429 . S
C172 C164 1.574 . S
C172 H167 0.949 . S
C172 C178 1.368 . S
C173 C157 1.349 . S
C173 H165 0.950 . S
C173 C171 1.327 . S
C174 C162 1.349 . S
C174 H168 0.950 . S
C174 C175 1.327 . S
C175 H169 0.950 . S
C175 C174 1.327 . S
C175 C179 1.429 . S
C176 C159 1.574 . S
C176 H170 0.949 . S
C176 C180 1.368 . S
C177 C158 1.429 . S
C177 C171 1.429 . S
C177 C178 1.523 . S
C178 C159 1.368 . S
C178 C172 1.368 . S
C178 C177 1.523 . S
C179 C163 1.429 . S
C179 C175 1.429 . S
C179 C180 1.523 . S
C180 C164 1.368 . S
C180 C176 1.368 . S
C180 C179 1.523 . S
H181 C156 0.950 . S
H182 C158 0.950 . S
H183 C159 0.949 . S
H184 C161 0.950 . S
H185 C163 0.950 . S
C186 C187 1.349 . S
C186 C188 1.327 . S
C186 H211 0.950 . S
C187 C186 1.349 . S
C187 C203 1.349 . S
C188 C186 1.327 . S
C188 C207 1.429 . S
C188 H212 0.950 . S
C189 C206 1.574 . S
C189 C208 1.368 . S
C189 H213 0.949 . S
H190 C194 0.949 . S
C191 C192 1.349 . S
C191 C193 1.327 . S
C191 H214 0.950 . S
C192 C191 1.349 . S
C192 C204 1.349 . S
C193 C191 1.327 . S
C193 C209 1.429 . S
C193 H215 0.950 . S
C194 H190 0.949 . S
C194 C202 1.574 . S
C194 C210 1.368 . S
H195 C203 0.950 . S
H196 C201 0.950 . S
H197 C202 0.949 . S
H198 C204 0.950 . S
H199 C205 0.950 . S
H200 C206 0.949 . S
C201 H196 0.950 . S
C201 C203 1.327 . S
C201 C207 1.429 . S
C202 C194 1.574 . S
C202 H197 0.949 . S
C202 C208 1.368 . S
C203 C187 1.349 . S
C203 H195 0.950 . S
C203 C201 1.327 . S
C204 C192 1.349 . S
C204 H198 0.950 . S
C204 C205 1.327 . S
C205 H199 0.950 . S
C205 C204 1.327 . S
C205 C209 1.429 . S
C206 C189 1.574 . S
C206 H200 0.949 . S
C206 C210 1.368 . S
C207 C188 1.429 . S
C207 C201 1.429 . S
C207 C208 1.523 . S
C208 C189 1.368 . S
C208 C202 1.368 . S
C208 C207 1.523 . S
C209 C193 1.429 . S
C209 C205 1.429 . S
C209 C210 1.523 . S
C210 C194 1.368 . S
C210 C206 1.368 . S
C210 C209 1.523 . S
H211 C186 0.950 . S
H212 C188 0.950 . S
H213 C189 0.949 . S
H214 C191 0.950 . S
H215 C193 0.950 . S
C67 C17 1.499 . S
C72 C61 1.500 . S
C97 C50 1.499 . S
C102 C28 1.500 . S
C127 C8 1.501 . S
C132 C41 1.501 . S
C157 N14 1.456 . S
C162 N5 1.461 . S
C187 N47 1.456 . S
C192 N38 1.461 . S
