# Generated by pormake.
# Topology pcu, (6)-cn, num edge types: 1
# Building blocks:
#     Node 0, Type 0, BuildingBlock: BETFAJ_clean_sbu_0, # of connection points: 6
#     Edge 1, Type (0, 0), BuildingBlock: CIFDUS_clean_linker_0, # of connection points: 2
#     Edge 2, Type (0, 0), BuildingBlock: CIFDUS_clean_linker_0, # of connection points: 2
#     Edge 3, Type (0, 0), BuildingBlock: CIFDUS_clean_linker_0, # of connection points: 2
# Relax obj value: 0.000
# Max RMSD: 0.000
# Mean RMSD: 0.000
data_MOF--net-pcu--node1-BETFAJ_clean_sbu_0--edge1-CIFDUS_clean_linker_0
_symmetry_space_group_name_H-M    P1
_symmetry_Int_Tables_number       1
_symmetry_cell_setting            triclinic
loop_
_symmetry_equiv_pos_as_xyz
'x, y, z'
_cell_length_a     23.691792
_cell_length_b     13.672906
_cell_length_c     12.764408
_cell_angle_alpha  87.362025
_cell_angle_beta   95.487022
_cell_angle_gamma 124.29998
loop_
_atom_site_label
_atom_site_type_symbol
_atom_site_fract_x
_atom_site_fract_y
_atom_site_fract_z
_atom_type_partial_charge
Sm0 Sm 0.95132 0.91429 0.01156 0.0
Sm1 Sm 0.10692 0.04943 1.00721 0.0
C2 C 0.82434 0.83138 0.05385 0.0
C3 C 0.77614 0.86779 0.04816 0.0
C4 C 0.79773 -0.01736 0.07678 0.0
C5 C 0.75045 0.01356 0.07432 0.0
C6 C 0.68063 0.93022 0.04321 0.0
C7 C 0.65959 0.81589 0.01306 0.0
C8 C 0.70688 0.78514 0.01556 0.0
C9 C 0.99621 0.95384 0.8135 0.0
C10 C 0.0459 0.20743 1.0077 0.0
C11 C 0.23406 0.1326 0.96561 0.0
C12 C 0.2822 0.09609 0.97111 0.0
C13 C 0.26054 0.98122 0.94244 0.0
C14 C 0.30777 0.95019 0.94482 0.0
C15 C 0.3776 0.03344 0.97588 0.0
C16 C 0.39873 0.14782 1.00603 0.0
C17 C 0.35148 0.17868 1.00362 0.0
C18 C 0.06162 0.00987 0.20513 0.0
C19 C 1.01233 0.75632 0.0107 0.0
O20 O 0.87735 0.88545 0.1235 0.0
O21 O 0.8392 0.81185 0.9644 0.0
O22 O 1.02411 0.02751 0.88856 0.0
O23 O 0.94041 0.85689 0.83966 0.0
O24 O 0.98868 0.10958 0.03481 0.0
O25 O 0.09723 0.20562 0.97846 0.0
O26 O 0.18124 0.07913 0.89557 0.0
O27 O 0.21892 0.15134 0.05517 0.0
O28 O 0.03418 0.93619 0.13012 0.0
O29 O 0.11733 0.10703 0.17901 0.0
O30 O 0.06954 0.85418 0.9836 0.0
O31 O 0.96102 0.7581 0.04008 0.0
H32 H 0.85096 0.04813 0.10194 0.0
H33 H 0.76864 0.10287 0.0966 0.0
H34 H 0.6062 0.74908 0.98987 0.0
H35 H 0.68915 0.69601 0.99329 0.0
H36 H 0.20729 0.9158 0.91734 0.0
H37 H 0.28952 0.86085 0.92252 0.0
H38 H 0.45213 0.21457 0.02917 0.0
H39 H 0.36927 0.26783 0.02591 0.0
H40 H 0.12401 0.15048 0.37875 0.0
H41 H 0.95 0.80634 0.27333 0.0
H42 H 0.91468 0.75794 0.45266 0.0
H43 H 0.93365 0.81318 0.63983 0.0
H44 H 0.10776 0.15728 0.74519 0.0
H45 H 0.14299 0.20569 0.56585 0.0
C46 C 0.07831 0.065 0.39514 0.0
C47 C 0.03965 -0.01792 0.31312 0.0
C48 C 0.05854 0.03762 0.49848 0.0
C49 C 0.98058 0.87164 0.33528 0.0
C50 C 0.96042 0.84386 0.43778 0.0
C51 C 0.97934 0.89865 0.62342 0.0
C52 C 1.01806 0.98156 0.70544 0.0
C53 C 0.9991 0.92603 0.52005 0.0
C54 C 0.07713 0.09198 0.68325 0.0
C55 C 0.09724 0.11978 0.58074 0.0
H56 H 0.4852 0.09327 0.12044 0.0
H57 H 0.38495 0.90417 0.82696 0.0
H58 H 0.46938 0.85591 0.82175 0.0
H59 H 0.57297 0.87023 0.89868 0.0
H60 H 0.67321 0.05934 0.19217 0.0
H61 H 0.58876 0.10754 0.19739 0.0
C62 C 0.48207 0.04225 0.05488 0.0
C63 C 0.42857 0.00235 0.97434 0.0
C64 C 0.53123 0.01564 0.0518 0.0
C65 C 0.42485 0.93466 0.89089 0.0
C66 C 0.47347 0.90771 0.88739 0.0
C67 C 0.57609 0.92123 0.96424 0.0
C68 C 0.62961 0.96119 0.04477 0.0
C69 C 0.52693 0.94782 0.96733 0.0
C70 C 0.6333 0.02883 0.12824 0.0
C71 C 0.58467 0.05574 0.13175 0.0
H72 H 0.1109 0.72221 0.97166 0.0
H73 H 0.9023 0.53611 0.0561 0.0
H74 H 0.89476 0.35047 0.06359 0.0
H75 H 0.9473 0.24151 0.04654 0.0
H76 H 0.15591 0.4276 0.96213 0.0
H77 H 0.16343 0.61323 0.95455 0.0
C78 C 0.06367 0.64121 0.99141 0.0
C79 C 1.00728 0.64337 0.01314 0.0
C80 C 0.05971 0.53486 0.99593 0.0
C81 C 0.94657 0.53725 0.03899 0.0
C82 C 0.94217 0.43095 0.04339 0.0
C83 C 0.99453 0.32251 0.02677 0.0
C84 C 0.05093 0.32035 1.0051 0.0
C85 C 0.99848 0.42885 0.02222 0.0
C86 C 0.11163 0.42646 0.97921 0.0
C87 C 0.11602 0.53276 0.97476 0.0
loop_
_geom_bond_atom_site_label_1
_geom_bond_atom_site_label_2
_geom_bond_distance
_geom_bond_site_symmetry_2
_ccdc_geom_bond_type
Sm0 C2 2.846 . S
Sm0 O20 2.543 1_556 S
Sm0 O21 2.450 . S
Sm0 O22 2.681 1_665 S
Sm0 O23 2.464 . S
Sm0 O24 2.396 1_565 S
Sm0 O28 2.386 1_566 S
Sm0 O31 2.408 . S
Sm1 C11 2.846 . S
Sm1 O22 2.386 1_554 S
Sm1 O25 2.408 . S
Sm1 O26 2.543 1_554 S
Sm1 O27 2.450 . S
Sm1 O28 2.681 1_455 S
Sm1 O29 2.464 . S
Sm1 O30 2.396 1_545 S
C2 Sm0 2.846 . S
C2 C3 1.506 . S
C2 O20 1.261 1_556 S
C2 O21 1.242 . S
C3 C2 1.506 . S
C3 C4 1.358 1_566 S
C3 C8 1.382 . S
C4 C3 1.358 1_544 S
C4 C5 1.385 . S
C4 H32 0.930 . S
C5 C4 1.385 . S
C5 C6 1.395 1_544 S
C5 H33 0.929 . S
C6 C5 1.395 1_566 S
C6 C7 1.335 . S
C7 C6 1.335 . S
C7 C8 1.398 . S
C7 H34 0.930 . S
C8 C3 1.382 . S
C8 C7 1.398 . S
C8 H35 0.929 . S
C9 O22 1.271 1_665 S
C9 O23 1.251 . S
C10 O24 1.252 1_455 S
C10 O25 1.272 1_556 S
C11 Sm1 2.846 . S
C11 C12 1.506 . S
C11 O26 1.261 1_554 S
C11 O27 1.242 . S
C12 C11 1.506 . S
C12 C13 1.358 1_544 S
C12 C17 1.382 . S
C13 C12 1.358 1_566 S
C13 C14 1.385 . S
C13 H36 0.930 . S
C14 C13 1.385 . S
C14 C15 1.395 1_566 S
C14 H37 0.929 . S
C15 C14 1.395 1_544 S
C15 C16 1.335 . S
C16 C15 1.335 . S
C16 C17 1.398 . S
C16 H38 0.930 . S
C17 C12 1.382 . S
C17 C16 1.398 . S
C17 H39 0.929 . S
C18 O28 1.271 1_455 S
C18 O29 1.251 . S
C19 O30 1.252 1_655 S
C19 O31 1.272 1_554 S
O20 Sm0 2.543 1_554 S
O20 C2 1.261 1_554 S
O21 Sm0 2.450 . S
O21 C2 1.242 . S
O22 Sm0 2.681 1_445 S
O22 Sm1 2.386 1_556 S
O22 C9 1.271 1_445 S
O23 Sm0 2.464 . S
O23 C9 1.251 . S
O24 Sm0 2.396 1_545 S
O24 C10 1.252 1_655 S
O25 Sm1 2.408 . S
O25 C10 1.272 1_554 S
O26 Sm1 2.543 1_556 S
O26 C11 1.261 1_556 S
O27 Sm1 2.450 . S
O27 C11 1.242 . S
O28 Sm0 2.386 1_544 S
O28 Sm1 2.681 1_655 S
O28 C18 1.271 1_655 S
O29 Sm1 2.464 . S
O29 C18 1.251 . S
O30 Sm1 2.396 1_565 S
O30 C19 1.252 1_455 S
O31 Sm0 2.408 . S
O31 C19 1.272 1_556 S
H32 C4 0.930 . S
H33 C5 0.929 . S
H34 C7 0.930 . S
H35 C8 0.929 . S
H36 C13 0.930 . S
H37 C14 0.929 . S
H38 C16 0.930 . S
H39 C17 0.929 . S
H40 C46 0.930 . S
H41 C49 0.930 . S
H42 C50 0.930 . S
H43 C51 0.930 . S
H44 C54 0.930 . S
H45 C55 0.930 . S
C46 H40 0.930 . S
C46 C47 1.355 1_455 S
C46 C48 1.415 . S
C47 C46 1.355 1_655 S
C47 C49 1.419 1_565 S
C48 C46 1.415 . S
C48 C53 1.425 1_465 S
C48 C55 1.409 . S
C49 H41 0.930 . S
C49 C47 1.419 1_545 S
C49 C50 1.362 . S
C50 H42 0.930 . S
C50 C49 1.362 . S
C50 C53 1.409 . S
C51 H43 0.930 . S
C51 C52 1.355 1_655 S
C51 C53 1.415 . S
C52 C51 1.355 1_455 S
C52 C54 1.419 1_545 S
C53 C48 1.425 1_645 S
C53 C50 1.409 . S
C53 C51 1.415 . S
C54 H44 0.930 . S
C54 C52 1.419 1_565 S
C54 C55 1.362 . S
C55 H45 0.930 . S
C55 C48 1.409 . S
C55 C54 1.362 . S
H56 C62 0.930 . S
H57 C65 0.930 . S
H58 C66 0.930 . S
H59 C67 0.930 . S
H60 C70 0.930 . S
H61 C71 0.930 . S
C62 H56 0.930 . S
C62 C63 1.355 1_564 S
C62 C64 1.415 . S
C63 C62 1.355 1_546 S
C63 C65 1.419 . S
C64 C62 1.415 . S
C64 C69 1.425 1_564 S
C64 C71 1.409 . S
C65 H57 0.930 . S
C65 C63 1.419 . S
C65 C66 1.362 . S
C66 H58 0.930 . S
C66 C65 1.362 . S
C66 C69 1.409 . S
C67 H59 0.930 . S
C67 C68 1.355 1_546 S
C67 C69 1.415 . S
C68 C67 1.355 1_564 S
C68 C70 1.419 . S
C69 C64 1.425 1_546 S
C69 C66 1.409 . S
C69 C67 1.415 . S
C70 H60 0.930 . S
C70 C68 1.419 . S
C70 C71 1.362 . S
C71 H61 0.930 . S
C71 C64 1.409 . S
C71 C70 1.362 . S
H72 C78 0.930 . S
H73 C81 0.930 . S
H74 C82 0.930 . S
H75 C83 0.930 . S
H76 C86 0.930 . S
H77 C87 0.930 . S
C78 H72 0.930 . S
C78 C79 1.355 1_454 S
C78 C80 1.415 . S
C79 C78 1.355 1_656 S
C79 C81 1.419 . S
C80 C78 1.415 . S
C80 C85 1.425 1_454 S
C80 C87 1.409 . S
C81 H73 0.930 . S
C81 C79 1.419 . S
C81 C82 1.362 . S
C82 H74 0.930 . S
C82 C81 1.362 . S
C82 C85 1.409 . S
C83 H75 0.930 . S
C83 C84 1.355 1_656 S
C83 C85 1.415 . S
C84 C83 1.355 1_454 S
C84 C86 1.419 . S
C85 C80 1.425 1_656 S
C85 C82 1.409 . S
C85 C83 1.415 . S
C86 H76 0.930 . S
C86 C84 1.419 . S
C86 C87 1.362 . S
C87 H77 0.930 . S
C87 C80 1.409 . S
C87 C86 1.362 . S
C47 C18 1.478 1_665 S
C52 C9 1.478 1_445 S
C63 C15 1.490 1_556 S
C68 C6 1.490 1_554 S
C79 C19 1.491 1_556 S
C84 C10 1.491 1_554 S
