# Generated by pormake.
# Topology pcu, (6)-cn, num edge types: 1
# Building blocks:
#     Node 0, Type 0, BuildingBlock: UKALOJ_clean_sbu_0, # of connection points: 6
#     Edge 1, Type (0, 0), BuildingBlock: EZIPEK_clean_linker_0, # of connection points: 2
#     Edge 2, Type (0, 0), BuildingBlock: EZIPEK_clean_linker_0, # of connection points: 2
#     Edge 3, Type (0, 0), BuildingBlock: EZIPEK_clean_linker_0, # of connection points: 2
# Relax obj value: 0.010
# Max RMSD: 0.054
# Mean RMSD: 0.054
data_MOF--net-pcu--node1-UKALOJ_clean_sbu_0--edge1-EZIPEK_clean_linker_0
_symmetry_space_group_name_H-M    P1
_symmetry_Int_Tables_number       1
_symmetry_cell_setting            triclinic
loop_
_symmetry_equiv_pos_as_xyz
'x, y, z'
_cell_length_a     11.311087
_cell_length_b     11.307237
_cell_length_c     16.079741
_cell_angle_alpha  96.313832
_cell_angle_beta   83.42501
_cell_angle_gamma 94.450868
loop_
_atom_site_label
_atom_site_type_symbol
_atom_site_fract_x
_atom_site_fract_y
_atom_site_fract_z
_atom_type_partial_charge
Zn0 Zn 0.95764 -0.01049 0.09539 0.0
O1 O 0.95221 0.79991 0.0972 0.0
C2 C 0.21613 -0.01588 0.03458 0.0
Zn3 Zn -0.01331 0.96196 0.95472 0.0
C4 C 0.96308 0.73218 0.02847 0.0
O5 O 0.97533 0.77708 0.95883 0.0
C6 C -0.01839 0.21982 1.01714 0.0
O7 O 0.79775 0.95839 0.95105 0.0
O8 O 0.77323 0.97908 0.08928 0.0
N9 N 0.01962 0.93692 0.82556 0.0
C10 C 0.95824 0.95817 0.76208 0.0
C11 C 0.12548 0.89632 0.70642 0.0
N12 N 0.12316 0.89787 0.79052 0.0
N13 N 0.02278 0.93365 0.68725 0.0
C14 C 0.96003 0.96662 0.28893 0.0
C15 C 0.85757 0.11186 0.34299 0.0
N16 N 0.92633 0.0187 0.22453 0.0
N17 N 0.86218 0.10856 0.2586 0.0
N18 N 0.91823 0.02331 0.3632 0.0
H19 H 0.06132 0.83053 0.21504 0.0
H20 H -0.01722 0.78763 0.3118 0.0
H21 H 0.11469 0.88542 0.31452 0.0
C22 C 0.03431 0.86146 0.28102 0.0
C23 C 0.8349 0.00089 0.77238 0.0
H24 H 0.76968 0.92461 0.78446 0.0
H25 H 0.81461 0.03841 0.7151 0.0
H26 H 0.82411 0.06923 0.82642 0.0
O27 O 0.00084 0.14943 0.95056 0.0
O28 O 0.96093 0.17693 0.08773 0.0
C29 C 0.72919 0.96833 1.01957 0.0
O30 O 0.14548 0.00265 0.1014 0.0
O31 O 0.17343 0.96428 0.96412 0.0
C32 C 0.03121 0.07513 0.48571 0.0
C33 C 0.94249 0.00211 0.44589 0.0
C34 C 0.91325 0.87811 0.56311 0.0
C35 C -0.00391 0.95606 0.60536 0.0
N36 N 0.11874 0.13934 0.61533 0.0
N37 N 0.7882 0.84409 0.44835 0.0
C38 C 0.05102 0.05768 0.56892 0.0
C39 C 0.88025 0.90617 0.4852 0.0
N40 N 0.09892 0.15844 0.44256 0.0
N41 N 0.86879 0.77621 0.59708 0.0
H42 H 0.76336 0.86333 0.39102 0.0
H43 H 0.73165 0.77963 0.47676 0.0
H44 H 0.89184 0.75465 0.65433 0.0
H45 H 0.81602 0.70958 0.5664 0.0
H46 H 0.17331 0.20647 0.46466 0.0
H47 H 0.0862 0.17283 0.38133 0.0
H48 H 0.15176 0.22139 0.59564 0.0
H49 H 0.13368 0.1292 0.67688 0.0
C50 C 0.39979 0.91044 0.08384 0.0
C51 C 0.348 -0.01108 0.03699 0.0
C52 C 0.54945 0.06337 0.98408 0.0
C53 C 0.59839 0.97141 1.02001 0.0
N54 N 0.56732 0.79325 0.09145 0.0
N55 N 0.37506 0.14152 0.94106 0.0
C56 C 0.52262 0.89071 0.06602 0.0
C57 C 0.42344 0.06493 0.98586 0.0
N58 N 0.33419 0.8584 0.14811 0.0
N59 N 0.62283 0.15412 0.95383 0.0
H60 H 0.28462 0.1572 0.94874 0.0
H61 H 0.42438 0.18668 0.89415 0.0
H62 H 0.71454 0.15892 0.95624 0.0
H63 H 0.5924 0.23028 0.93463 0.0
H64 H 0.37101 0.80948 0.18884 0.0
H65 H 0.2467 0.87653 0.1678 0.0
H66 H 0.51333 0.72446 0.11704 0.0
H67 H 0.65699 0.77504 0.07923 0.0
C68 C 0.05872 0.55356 0.0651 0.0
C69 C 0.96735 0.60149 0.02803 0.0
C70 C 0.90881 0.40216 0.96521 0.0
C71 C -0.01427 0.35146 1.01386 0.0
N72 N 0.13567 0.38065 0.11127 0.0
N73 N 0.79159 0.56867 0.95466 0.0
C74 C 0.06026 0.42782 0.06501 0.0
C75 C 0.88825 0.5249 0.9817 0.0
N76 N 0.14923 0.62754 0.09458 0.0
N77 N 0.85915 0.33575 0.90053 0.0
H78 H 0.77293 0.65827 0.96571 0.0
H79 H 0.72377 0.51403 0.92876 0.0
H80 H 0.87798 0.24826 0.88147 0.0
H81 H 0.81151 0.372 0.85881 0.0
H82 H 0.22484 0.5976 0.11478 0.0
H83 H 0.15481 0.71887 0.09006 0.0
H84 H 0.17959 0.43098 0.15811 0.0
H85 H 0.15156 0.29031 0.10491 0.0
loop_
_geom_bond_atom_site_label_1
_geom_bond_atom_site_label_2
_geom_bond_distance
_geom_bond_site_symmetry_2
_ccdc_geom_bond_type
Zn0 O1 2.055 . S
Zn0 O8 2.046 . S
Zn0 N16 2.036 1_565 S
Zn0 O28 2.053 1_565 S
Zn0 O30 2.066 1_665 S
O1 Zn0 2.055 . S
O1 C4 1.259 1_554 S
C2 O30 1.256 1_565 S
C2 O31 1.244 1_554 S
Zn3 O5 2.046 . S
Zn3 O7 2.055 . S
Zn3 N9 2.036 1_655 S
Zn3 O27 2.066 1_665 S
Zn3 O31 2.053 1_655 S
C4 O1 1.259 1_556 S
C4 O5 1.254 . S
O5 Zn3 2.046 . S
O5 C4 1.254 . S
C6 O27 1.256 1_655 S
C6 O28 1.244 1_556 S
O7 Zn3 2.055 . S
O7 C29 1.259 1_556 S
O8 Zn0 2.046 . S
O8 C29 1.254 . S
N9 Zn3 2.036 1_455 S
N9 C10 1.298 1_465 S
N9 N12 1.398 . S
C10 N9 1.298 1_645 S
C10 N13 1.367 1_655 S
C10 C23 1.481 . S
C11 N12 1.299 . S
C11 N13 1.379 1_565 S
N12 N9 1.398 . S
N12 C11 1.299 . S
N13 C10 1.367 1_455 S
N13 C11 1.379 1_545 S
C14 N16 1.298 1_465 S
C14 N18 1.367 1_565 S
C14 C22 1.481 . S
C15 N17 1.299 . S
C15 N18 1.379 1_655 S
N16 Zn0 2.036 1_545 S
N16 C14 1.298 1_645 S
N16 N17 1.398 . S
N17 C15 1.299 . S
N17 N16 1.398 . S
N18 C14 1.367 1_545 S
N18 C15 1.379 1_455 S
H19 C22 0.980 . S
H20 C22 0.981 . S
H21 C22 0.981 . S
C22 C14 1.481 . S
C22 H19 0.980 . S
C22 H20 0.981 . S
C22 H21 0.981 . S
C23 C10 1.481 . S
C23 H24 0.980 . S
C23 H25 0.981 . S
C23 H26 0.981 . S
H24 C23 0.980 . S
H25 C23 0.981 . S
H26 C23 0.981 . S
O27 Zn3 2.066 1_445 S
O27 C6 1.256 1_455 S
O28 Zn0 2.053 1_545 S
O28 C6 1.244 1_554 S
C29 O7 1.259 1_554 S
C29 O8 1.254 . S
O30 Zn0 2.066 1_445 S
O30 C2 1.256 1_545 S
O31 C2 1.244 1_556 S
O31 Zn3 2.053 1_455 S
C32 C33 1.363 . S
C32 C38 1.379 . S
C32 N40 1.356 . S
C33 C32 1.363 . S
C33 C39 1.363 1_445 S
C34 C35 1.363 1_665 S
C34 C39 1.379 . S
C34 N41 1.356 . S
C35 C34 1.363 1_445 S
C35 C38 1.363 . S
N36 C38 1.356 . S
N36 H48 0.984 . S
N36 H49 0.985 . S
N37 C39 1.356 . S
N37 H42 0.984 . S
N37 H43 0.985 . S
C38 C32 1.379 . S
C38 C35 1.363 . S
C38 N36 1.356 . S
C39 C33 1.363 1_665 S
C39 C34 1.379 . S
C39 N37 1.356 . S
N40 C32 1.356 . S
N40 H46 0.984 . S
N40 H47 0.984 . S
N41 C34 1.356 . S
N41 H44 0.984 . S
N41 H45 0.985 . S
H42 N37 0.984 . S
H43 N37 0.985 . S
H44 N41 0.984 . S
H45 N41 0.985 . S
H46 N40 0.984 . S
H47 N40 0.984 . S
H48 N36 0.984 . S
H49 N36 0.985 . S
C50 C51 1.363 . S
C50 C56 1.379 . S
C50 N58 1.356 . S
C51 C50 1.363 . S
C51 C57 1.363 1_564 S
C52 C53 1.363 1_546 S
C52 C57 1.379 . S
C52 N59 1.356 . S
C53 C52 1.363 1_564 S
C53 C56 1.363 . S
N54 C56 1.356 . S
N54 H66 0.984 . S
N54 H67 0.985 . S
N55 C57 1.356 . S
N55 H60 0.984 . S
N55 H61 0.985 . S
C56 C50 1.379 . S
C56 C53 1.363 . S
C56 N54 1.356 . S
C57 C51 1.363 1_546 S
C57 C52 1.379 . S
C57 N55 1.356 . S
N58 C50 1.356 . S
N58 H64 0.984 . S
N58 H65 0.984 . S
N59 C52 1.356 . S
N59 H62 0.984 . S
N59 H63 0.985 . S
H60 N55 0.984 . S
H61 N55 0.985 . S
H62 N59 0.984 . S
H63 N59 0.985 . S
H64 N58 0.984 . S
H65 N58 0.984 . S
H66 N54 0.984 . S
H67 N54 0.985 . S
C68 C69 1.363 1_454 S
C68 C74 1.379 . S
C68 N76 1.356 . S
C69 C68 1.363 1_656 S
C69 C75 1.363 . S
C70 C71 1.363 . S
C70 C75 1.379 . S
C70 N77 1.356 . S
C71 C70 1.363 . S
C71 C74 1.363 1_656 S
N72 C74 1.356 . S
N72 H84 0.984 . S
N72 H85 0.985 . S
N73 C75 1.356 . S
N73 H78 0.984 . S
N73 H79 0.985 . S
C74 C68 1.379 . S
C74 C71 1.363 1_454 S
C74 N72 1.356 . S
C75 C69 1.363 . S
C75 C70 1.379 . S
C75 N73 1.356 . S
N76 C68 1.356 . S
N76 H82 0.984 . S
N76 H83 0.984 . S
N77 C70 1.356 . S
N77 H80 0.984 . S
N77 H81 0.985 . S
H78 N73 0.984 . S
H79 N73 0.985 . S
H80 N77 0.984 . S
H81 N77 0.985 . S
H82 N76 0.984 . S
H83 N76 0.984 . S
H84 N72 0.984 . S
H85 N72 0.985 . S
C33 N18 1.462 . S
C35 N13 1.462 . S
C51 C2 1.499 . S
C53 C29 1.496 . S
C69 C4 1.496 . S
C71 C6 1.499 . S
