# Generated by pormake.
# Topology reo, (8)-cn, num edge types: 1
# Building blocks:
#     Node 0, Type 0, BuildingBlock: GIZVER_clean_sbu_0, # of connection points: 8
#     Node 1, Type 0, BuildingBlock: GIZVER_clean_sbu_0, # of connection points: 8
#     Node 2, Type 0, BuildingBlock: GIZVER_clean_sbu_0, # of connection points: 8
#     Edge 3, Type (0, 0), None
#     Edge 4, Type (0, 0), None
#     Edge 5, Type (0, 0), None
#     Edge 6, Type (0, 0), None
#     Edge 7, Type (0, 0), None
#     Edge 8, Type (0, 0), None
#     Edge 9, Type (0, 0), None
#     Edge 10, Type (0, 0), None
#     Edge 11, Type (0, 0), None
#     Edge 12, Type (0, 0), None
#     Edge 13, Type (0, 0), None
#     Edge 14, Type (0, 0), None
# Relax obj value: 0.132
# Max RMSD: 0.238
# Mean RMSD: 0.162
data_MOF--net-reo--node1-GIZVER_clean_sbu_0--edge1-none
_symmetry_space_group_name_H-M    P1
_symmetry_Int_Tables_number       1
_symmetry_cell_setting            triclinic
loop_
_symmetry_equiv_pos_as_xyz
'x, y, z'
_cell_length_a     12.808439
_cell_length_b     13.364026
_cell_length_c     14.051153
_cell_angle_alpha  114.7749
_cell_angle_beta   94.479623
_cell_angle_gamma 63.837798
loop_
_atom_site_label
_atom_site_type_symbol
_atom_site_fract_x
_atom_site_fract_y
_atom_site_fract_z
_atom_type_partial_charge
Co0 Co 0.07309 1.0079 0.69955 0.0
Co1 Co 0.20281 1.08037 0.62462 0.0
Co2 Co -0.00315 0.09084 0.49522 0.0
O3 O 0.11755 0.98772 0.56011 0.0
H4 H 0.16717 0.90412 0.5107 0.0
O5 O 0.87615 0.19397 0.43033 0.0
Co6 Co 0.92061 0.17379 0.29088 0.0
Co7 Co 0.79088 0.10132 0.36582 0.0
H8 H 0.82652 0.27757 0.47973 0.0
O9 O 0.35214 1.00699 0.65785 0.0
O10 O 0.17698 1.08827 0.75442 0.0
O11 O 0.13597 0.25426 0.65639 0.0
O12 O 0.96393 0.2573 0.61957 0.0
O13 O 0.12467 0.09576 0.42372 0.0
O14 O 0.9542 0.15547 0.16688 0.0
O15 O 0.80766 0.32171 0.28973 0.0
O16 O 0.05524 1.03138 0.27552 0.0
O17 O 0.02976 0.92439 0.37085 0.0
O18 O 0.85771 0.92744 0.33405 0.0
O19 O 0.81671 0.09342 0.23601 0.0
O20 O 0.64156 0.17471 0.33259 0.0
C21 C 0.11839 0.91309 0.79065 0.0
C22 C 0.85847 0.1241 0.667 0.0
C23 C 0.0251 0.31188 0.67129 0.0
C24 C 0.29161 1.03427 0.74246 0.0
C25 C 0.87532 0.2686 0.19978 0.0
C26 C 0.13523 1.05758 0.32344 0.0
C27 C 0.96859 0.86982 0.31915 0.0
C28 C 0.70208 0.14743 0.24798 0.0
O29 O 0.0395 1.02622 0.82355 0.0
O30 O 0.18604 0.85999 0.70071 0.0
O31 O 0.86902 1.08593 0.56671 0.0
O32 O 0.93845 0.1503 0.71491 0.0
Co33 Co 0.71633 1.07128 0.83472 0.0
Co34 Co 0.62227 0.24304 0.00681 0.0
Co35 Co 0.49685 0.09084 -0.00478 0.0
O36 O 0.56302 0.14769 0.91394 0.0
H37 H 0.50286 0.19491 0.88271 0.0
O38 O 0.43069 1.034 0.0765 0.0
Co39 Co 0.27737 0.11041 0.15572 0.0
Co40 Co 0.37142 0.93866 0.98362 0.0
H41 H 0.49082 0.98679 0.10771 0.0
O42 O 0.5745 0.39145 0.0132 0.0
O43 O 0.74541 0.21268 0.93323 0.0
O44 O 0.69267 0.20012 0.11074 0.0
O45 O 0.5492 0.16309 0.13837 0.0
O46 O 0.34626 0.25017 0.03212 0.0
O47 O 0.14135 0.17276 0.23355 0.0
O48 O 0.31529 1.0335 0.24609 0.0
O49 O 0.2117 0.20371 0.07119 0.0
O50 O 0.4445 1.0186 0.85206 0.0
O51 O 0.30102 0.98159 0.8797 0.0
O52 O 0.24829 0.96901 0.0572 0.0
O53 O 0.4192 0.79024 0.97723 0.0
C54 C 0.79259 1.08709 0.71804 0.0
C55 C 0.75353 0.91491 0.95083 0.0
C56 C 0.64332 0.17326 0.16261 0.0
C57 C 0.67984 0.33133 0.96222 0.0
C58 C 0.20111 0.0946 0.2724 0.0
C59 C 0.24017 0.26678 0.03962 0.0
C60 C 0.35037 1.00846 0.82784 0.0
C61 C 0.31386 0.85036 0.0282 0.0
O62 O 0.85235 1.00893 0.75689 0.0
O63 O 0.67841 0.14819 0.74434 0.0
O64 O 0.64744 0.93152 0.95832 0.0
O65 O 0.782 0.97798 0.91925 0.0
Co66 Co 0.93258 0.39984 0.05314 0.0
Co67 Co 0.80251 0.50879 0.93481 0.0
Co68 Co -0.00315 0.59085 -0.00478 0.0
O69 O 0.88232 0.55751 0.04939 0.0
H70 H 0.82897 0.62719 0.11038 0.0
O71 O 0.11138 0.62419 0.94105 0.0
Co72 Co 0.06113 0.78186 0.9373 0.0
Co73 Co 0.1912 0.6729 0.05563 0.0
H74 H 0.16474 0.5545 0.88005 0.0
O75 O 0.6615 0.51358 0.95835 0.0
O76 O 0.84302 0.35868 0.93549 0.0
O77 O 0.85771 0.4714 0.79352 0.0
O78 O 0.03039 0.45229 0.84511 0.0
O79 O 0.86182 0.71379 0.95362 0.0
O80 O 0.02446 0.91824 0.92968 0.0
O81 O 0.17978 0.73627 0.83602 0.0
O82 O 0.92709 0.85081 0.03076 0.0
O83 O 0.96332 0.7294 0.14533 0.0
O84 O 0.13601 0.71029 0.19691 0.0
O85 O 0.15069 0.82301 0.05495 0.0
O86 O 0.3322 0.66811 0.03209 0.0
C87 C 0.88165 0.32997 0.13568 0.0
C88 C 0.14673 0.35704 0.0051 0.0
C89 C 0.96768 0.42543 0.7718 0.0
C90 C 0.72996 0.40255 0.9482 0.0
C91 C 0.11205 0.85173 0.85476 0.0
C92 C 0.84698 0.82466 0.98535 0.0
C93 C 0.02604 0.75627 0.21863 0.0
C94 C 0.26375 0.77914 0.04223 0.0
O95 O 0.96925 0.26345 0.06075 0.0
O96 O 0.81393 0.44542 0.15442 0.0
O97 O 0.13189 0.4679 0.03683 0.0
O98 O 0.06662 0.33089 0.95968 0.0
loop_
_geom_bond_atom_site_label_1
_geom_bond_atom_site_label_2
_geom_bond_distance
_geom_bond_site_symmetry_2
_ccdc_geom_bond_type
Co0 O3 2.042 . S
Co0 O10 2.264 . S
Co0 O29 2.286 . S
Co0 O30 2.069 . S
Co0 O32 2.015 1_465 S
Co1 O3 2.122 1_545 S
Co1 O9 2.073 1_545 S
Co1 O10 2.327 1_545 S
Co1 O11 1.976 . S
Co2 O3 2.085 1_545 S
Co2 O5 2.089 1_455 S
Co2 O12 2.114 1_455 S
Co2 O13 2.145 1_545 S
Co2 O17 2.108 1_545 S
Co2 O31 2.142 1_455 S
O3 Co0 2.042 . S
O3 Co1 2.122 1_565 S
O3 Co2 2.085 1_565 S
O3 H4 0.980 . S
H4 O3 0.980 . S
O5 Co2 2.089 1_655 S
O5 Co6 2.042 . S
O5 Co7 2.122 1_545 S
O5 H8 0.980 . S
Co6 O5 2.042 . S
Co6 O14 2.286 . S
Co6 O15 2.069 . S
Co6 O16 2.015 1_645 S
Co6 O19 2.264 . S
Co7 O5 2.122 1_565 S
Co7 O18 1.976 . S
Co7 O19 2.327 1_565 S
Co7 O20 2.073 1_565 S
H8 O5 0.980 . S
O9 Co1 2.073 1_565 S
O9 C24 1.245 . S
O10 Co0 2.264 . S
O10 Co1 2.327 1_565 S
O10 C24 1.257 . S
O11 Co1 1.976 . S
O11 C23 1.251 1_455 S
O12 Co2 2.114 1_655 S
O12 C23 1.274 . S
O13 Co2 2.145 1_565 S
O13 C26 1.246 . S
O14 Co6 2.286 . S
O14 C25 1.259 . S
O15 Co6 2.069 . S
O15 C25 1.289 . S
O16 Co6 2.015 1_465 S
O16 C26 1.257 . S
O17 Co2 2.108 1_565 S
O17 C27 1.274 . S
O18 Co7 1.976 . S
O18 C27 1.251 1_655 S
O19 Co6 2.264 . S
O19 Co7 2.327 1_545 S
O19 C28 1.257 . S
O20 Co7 2.073 1_545 S
O20 C28 1.245 . S
C21 O29 1.259 . S
C21 O30 1.289 . S
C22 O31 1.246 . S
C22 O32 1.257 . S
C23 O11 1.251 1_655 S
C23 O12 1.274 . S
C24 O9 1.245 . S
C24 O10 1.257 . S
C25 O14 1.259 . S
C25 O15 1.289 . S
C26 O13 1.246 . S
C26 O16 1.257 . S
C27 O17 1.274 . S
C27 O18 1.251 1_455 S
C28 O19 1.257 . S
C28 O20 1.245 . S
O29 Co0 2.286 . S
O29 C21 1.259 . S
O30 Co0 2.069 . S
O30 C21 1.289 . S
O31 Co2 2.142 1_655 S
O31 C22 1.246 . S
O32 Co0 2.015 1_645 S
O32 C22 1.257 . S
Co33 O36 2.042 1_565 S
Co33 O43 2.264 1_566 S
Co33 O62 2.286 . S
Co33 O63 2.069 1_565 S
Co33 O65 2.015 . S
Co34 O36 2.122 1_554 S
Co34 O42 2.073 . S
Co34 O43 2.327 . S
Co34 O44 1.976 . S
Co35 O36 2.088 1_554 S
Co35 O38 2.086 1_545 S
Co35 O45 2.114 . S
Co35 O46 2.146 . S
Co35 O50 2.109 1_544 S
Co35 O64 2.141 1_544 S
O36 Co33 2.042 1_545 S
O36 Co34 2.122 1_556 S
O36 Co35 2.088 1_556 S
O36 H37 0.980 . S
H37 O36 0.980 . S
O38 Co35 2.086 1_565 S
O38 Co39 2.042 1_565 S
O38 Co40 2.122 1_554 S
O38 H41 0.980 . S
Co39 O38 2.042 1_545 S
Co39 O47 2.286 . S
Co39 O48 2.069 1_545 S
Co39 O49 2.015 . S
Co39 O52 2.264 1_544 S
Co40 O38 2.122 1_556 S
Co40 O51 1.976 . S
Co40 O52 2.327 . S
Co40 O53 2.073 . S
H41 O38 0.980 . S
O42 Co34 2.073 . S
O42 C57 1.245 . S
O43 Co33 2.264 1_544 S
O43 Co34 2.327 . S
O43 C57 1.257 . S
O44 Co34 1.976 . S
O44 C56 1.251 . S
O45 Co35 2.114 . S
O45 C56 1.274 . S
O46 Co35 2.146 . S
O46 C59 1.246 . S
O47 Co39 2.286 . S
O47 C58 1.259 . S
O48 Co39 2.069 1_565 S
O48 C58 1.289 1_565 S
O49 Co39 2.015 . S
O49 C59 1.257 . S
O50 Co35 2.109 1_566 S
O50 C60 1.274 . S
O51 Co40 1.976 . S
O51 C60 1.251 . S
O52 Co39 2.264 1_566 S
O52 Co40 2.327 . S
O52 C61 1.257 . S
O53 Co40 2.073 . S
O53 C61 1.245 . S
C54 O62 1.259 . S
C54 O63 1.289 1_565 S
C55 O64 1.246 . S
C55 O65 1.257 . S
C56 O44 1.251 . S
C56 O45 1.274 . S
C57 O42 1.245 . S
C57 O43 1.257 . S
C58 O47 1.259 . S
C58 O48 1.289 1_545 S
C59 O46 1.246 . S
C59 O49 1.257 . S
C60 O50 1.274 . S
C60 O51 1.251 . S
C61 O52 1.257 . S
C61 O53 1.245 . S
O62 Co33 2.286 . S
O62 C54 1.259 . S
O63 Co33 2.069 1_545 S
O63 C54 1.289 1_545 S
O64 Co35 2.141 1_566 S
O64 C55 1.246 . S
O65 Co33 2.015 . S
O65 C55 1.257 . S
Co66 O69 2.042 . S
Co66 O76 2.264 1_554 S
Co66 O95 2.286 1_655 S
Co66 O96 2.069 . S
Co66 O98 2.009 1_654 S
Co67 O69 2.122 1_556 S
Co67 O75 2.071 1_556 S
Co67 O76 2.327 . S
Co67 O77 1.976 . S
Co68 O69 2.089 1_455 S
Co68 O71 2.085 1_554 S
Co68 O78 2.109 1_454 S
Co68 O79 2.142 1_454 S
Co68 O83 2.114 . S
Co68 O97 2.145 . S
O69 Co66 2.042 . S
O69 Co67 2.122 1_554 S
O69 Co68 2.089 1_655 S
O69 H70 0.980 . S
H70 O69 0.980 . S
O71 Co68 2.085 1_556 S
O71 Co72 2.042 . S
O71 Co73 2.122 1_556 S
O71 H74 0.980 . S
Co72 O71 2.042 . S
Co72 O80 2.286 1_455 S
Co72 O81 2.069 . S
Co72 O82 2.015 1_456 S
Co72 O85 2.264 1_556 S
Co73 O71 2.122 1_554 S
Co73 O84 1.976 . S
Co73 O85 2.327 . S
Co73 O86 2.077 . S
H74 O71 0.980 . S
O75 Co67 2.071 1_554 S
O75 C90 1.246 . S
O76 Co66 2.264 1_556 S
O76 Co67 2.327 . S
O76 C90 1.257 1_556 S
O77 Co67 1.976 . S
O77 C89 1.251 . S
O78 Co68 2.109 1_656 S
O78 C89 1.274 . S
O79 Co68 2.142 1_656 S
O79 C92 1.246 1_556 S
O80 Co72 2.286 1_655 S
O80 C91 1.259 1_655 S
O81 Co72 2.069 . S
O81 C91 1.289 . S
O82 Co72 2.015 1_654 S
O82 C92 1.257 . S
O83 Co68 2.114 . S
O83 C93 1.274 . S
O84 Co73 1.976 . S
O84 C93 1.251 . S
O85 Co72 2.264 1_554 S
O85 Co73 2.327 . S
O85 C94 1.257 1_554 S
O86 Co73 2.077 . S
O86 C94 1.242 1_554 S
C87 O95 1.259 1_655 S
C87 O96 1.289 . S
C88 O97 1.246 1_556 S
C88 O98 1.264 . S
C89 O77 1.251 . S
C89 O78 1.274 . S
C90 O75 1.246 . S
C90 O76 1.257 1_554 S
C91 O80 1.259 1_455 S
C91 O81 1.289 . S
C92 O79 1.246 1_554 S
C92 O82 1.257 . S
C93 O83 1.274 . S
C93 O84 1.251 . S
C94 O85 1.257 1_556 S
C94 O86 1.242 1_556 S
O95 Co66 2.286 1_455 S
O95 C87 1.259 1_455 S
O96 Co66 2.069 . S
O96 C87 1.289 . S
O97 Co68 2.145 . S
O97 C88 1.246 1_554 S
O98 Co66 2.009 1_456 S
O98 C88 1.264 . S
C87 C25 1.618 . S
C28 C56 1.204 . S
C27 C93 1.049 . S
C58 C26 2.124 1_545 S
C21 C91 1.618 . S
C60 C24 1.205 . S
C89 C23 1.049 . S
C54 C22 2.124 1_565 S
C88 C59 2.731 1_556 S
C94 C61 0.818 . S
C57 C90 0.818 . S
C92 C55 2.731 1_554 S
