# Generated by pormake.
# Topology sma, (6)-cn, num edge types: 1
# Building blocks:
#     Node 0, Type 0, BuildingBlock: UKALOJ_clean_sbu_0, # of connection points: 6
#     Node 1, Type 0, BuildingBlock: UKALOJ_clean_sbu_0, # of connection points: 6
#     Node 2, Type 0, BuildingBlock: UKALOJ_clean_sbu_0, # of connection points: 6
#     Edge 3, Type (0, 0), BuildingBlock: OJICUG_clean_linker_0, # of connection points: 2
#     Edge 4, Type (0, 0), BuildingBlock: OJICUG_clean_linker_0, # of connection points: 2
#     Edge 5, Type (0, 0), BuildingBlock: OJICUG_clean_linker_0, # of connection points: 2
#     Edge 6, Type (0, 0), BuildingBlock: OJICUG_clean_linker_0, # of connection points: 2
#     Edge 7, Type (0, 0), BuildingBlock: OJICUG_clean_linker_0, # of connection points: 2
#     Edge 8, Type (0, 0), BuildingBlock: OJICUG_clean_linker_0, # of connection points: 2
#     Edge 9, Type (0, 0), BuildingBlock: OJICUG_clean_linker_0, # of connection points: 2
#     Edge 10, Type (0, 0), BuildingBlock: OJICUG_clean_linker_0, # of connection points: 2
#     Edge 11, Type (0, 0), BuildingBlock: OJICUG_clean_linker_0, # of connection points: 2
# Relax obj value: 0.671
# Max RMSD: 0.379
# Mean RMSD: 0.379
data_MOF--net-sma--node1-UKALOJ_clean_sbu_0--edge1-OJICUG_clean_linker_0
_symmetry_space_group_name_H-M    P1
_symmetry_Int_Tables_number       1
_symmetry_cell_setting            triclinic
loop_
_symmetry_equiv_pos_as_xyz
'x, y, z'
_cell_length_a     18.483992
_cell_length_b     18.866675
_cell_length_c     14.373273
_cell_angle_alpha  85.557031
_cell_angle_beta   92.07086
_cell_angle_gamma 121.10131
loop_
_atom_site_label
_atom_site_type_symbol
_atom_site_fract_x
_atom_site_fract_y
_atom_site_fract_z
_atom_type_partial_charge
Zn0 Zn 0.07553 0.57658 0.12317 0.0
O1 O 0.19526 0.69486 0.15635 0.0
C2 C 0.18802 0.50902 0.10218 0.0
Zn3 Zn 0.07652 0.50654 0.23682 0.0
C4 C 0.19984 0.68777 0.2459 0.0
O5 O 0.15024 0.61924 0.28772 0.0
C6 C 0.94133 0.38018 0.16409 0.0
O7 O 0.95393 0.51577 0.25136 0.0
O8 O 1.01691 0.63291 0.17137 0.0
N9 N 0.07824 0.46409 0.37074 0.0
C10 C 1.04839 0.4779 0.44697 0.0
C11 C 0.13782 0.44399 0.49356 0.0
N12 N 0.13339 0.44231 0.39971 0.0
N13 N 0.08442 0.46553 0.52442 0.0
C14 C 0.10348 0.62797 0.91465 0.0
C15 C 0.97784 0.58834 0.872 0.0
N16 N 1.05812 0.61422 0.99216 0.0
N17 N 0.9805 0.59196 0.96519 0.0
N18 N 1.05406 0.60921 0.83837 0.0
H19 H 0.22384 0.67169 0.98311 0.0
H20 H 0.22944 0.70651 0.862 0.0
H21 H 0.20033 0.60128 0.8912 0.0
C22 C 0.19468 0.65313 0.91373 0.0
C23 C 0.99223 0.51365 0.44542 0.0
H24 H 0.93006 0.46883 0.41623 0.0
H25 H 1.0214 0.57305 0.40202 0.0
H26 H 0.98067 0.52562 0.51603 0.0
O27 O 1.0073 0.38823 0.20063 0.0
O28 O 0.94823 0.44481 0.11738 0.0
C29 C 0.94975 0.57578 0.20771 0.0
O30 O 0.13771 0.52768 0.06312 0.0
O31 O 0.19022 0.5039 0.19183 0.0
Zn32 Zn 0.58023 1.02677 0.57693 0.0
O33 O 0.69738 0.14518 0.52815 0.0
C34 C 0.51383 0.13897 0.57822 0.0
Zn35 Zn 0.51738 1.02462 0.4639 0.0
C36 C 0.69911 0.14372 0.43886 0.0
O37 O 0.63442 0.08915 0.39923 0.0
C38 C 0.38488 0.89906 0.5477 0.0
O39 O 0.52215 0.89846 0.46895 0.0
O40 O 0.64129 0.96964 0.53648 0.0
N41 N 0.46857 1.01871 0.33619 0.0
C42 C 0.48836 0.99367 0.26159 0.0
C43 C 0.45185 0.07998 0.21181 0.0
N44 N 0.44443 0.07133 0.30553 0.0
N45 N 0.48025 1.03244 0.18315 0.0
C46 C 0.64325 0.0703 0.77467 0.0
C47 C 0.61338 0.95306 0.83802 0.0
N48 N 0.62035 1.01815 0.70643 0.0
N49 N 0.60411 0.9457 0.74556 0.0
N50 N 0.63684 1.03058 0.85849 0.0
H51 H 0.6759 0.18178 0.68709 0.0
H52 H 0.7252 0.19797 0.80053 0.0
H53 H 0.61651 0.16623 0.79219 0.0
C54 C 0.66629 0.15914 0.76154 0.0
C55 C 0.52076 0.93516 0.26557 0.0
H56 H 0.47574 0.87703 0.30583 0.0
H57 H 0.58314 0.96322 0.30031 0.0
H58 H 0.52675 0.9187 0.19499 0.0
O59 O 0.39848 0.96889 0.51976 0.0
O60 O 0.44583 0.89982 0.59544 0.0
C61 C 0.5838 0.89961 0.51528 0.0
O62 O 0.52589 0.08787 0.6275 0.0
O63 O 0.51955 0.14061 0.48914 0.0
Zn64 Zn 0.52957 0.51016 0.90747 0.0
O65 O 0.52366 0.39071 0.8865 0.0
C66 C 0.71148 0.57132 0.93256 0.0
Zn67 Zn 0.59609 0.57074 0.79455 0.0
C68 C 0.52416 0.38995 0.79698 0.0
O69 O 0.54202 0.45564 0.74906 0.0
C70 C 0.60191 0.70221 0.84422 0.0
O71 O 0.46272 0.5654 0.77156 0.0
O72 O 0.40989 0.45027 0.85483 0.0
N73 N 0.64199 0.6133 0.66498 0.0
C74 C 0.59911 0.60234 0.58503 0.0
C75 C 0.72646 0.64342 0.54959 0.0
N76 N 0.72148 0.63982 0.64333 0.0
N77 N 0.65058 0.62115 0.51189 0.0
C78 C 0.50841 0.4622 0.11608 0.0
C79 C 0.41636 0.49093 0.15125 0.0
N80 N 0.47696 0.47633 0.03587 0.0
N81 N 0.41781 0.49156 0.05787 0.0
N82 N 0.47398 0.4742 0.18974 0.0
H83 H 0.58605 0.42267 0.05545 0.0
H84 H 0.56026 0.39045 0.17647 0.0
H85 H 0.63679 0.49671 0.14476 0.0
C86 C 0.57706 0.44204 0.12275 0.0
C87 C 0.50497 0.56386 0.5787 0.0
H88 H 0.47271 0.5059 0.62435 0.0
H89 H 0.48116 0.54918 0.50669 0.0
H90 H 0.48801 0.6082 0.60161 0.0
O91 O 0.66132 0.69067 0.83214 0.0
O92 O 0.54124 0.64397 0.89555 0.0
C93 C 0.39873 0.50563 0.81723 0.0
O94 O 0.64755 0.56374 0.97097 0.0
O95 O 0.70991 0.56622 0.84393 0.0
C96 C 0.21715 0.43659 0.9834 0.0
C97 C 0.24682 0.50551 0.03721 0.0
H98 H 0.23926 0.38424 0.86799 0.0
C99 C 0.31751 0.58037 1.0032 0.0
H100 H 0.15922 0.37935 1.00321 0.0
C101 C 0.36017 0.58514 0.92152 0.0
C102 C 0.33536 0.51453 0.87123 0.0
H103 H 0.3386 0.63649 0.0386 0.0
H104 H 0.41522 0.64388 0.90301 0.0
C105 C 0.26099 0.44071 0.90287 0.0
C106 C 0.77192 0.2835 0.353 0.0
C107 C 0.76685 0.20735 0.3748 0.0
H108 H 0.82166 0.39389 0.2656 0.0
C109 C 0.80623 0.1828 0.31333 0.0
H110 H 0.73766 0.30203 0.39489 0.0
C111 C 0.85467 0.23567 0.23674 0.0
C112 C 0.86325 0.31409 0.21637 0.0
H113 H 0.79933 0.12214 0.32452 0.0
H114 H 0.88901 0.21672 0.19563 0.0
C115 C 0.81861 0.33552 0.2752 0.0
C116 C 0.50616 0.77919 0.64172 0.0
C117 C 0.57739 0.83058 0.58338 0.0
H118 H 0.45538 0.70151 0.76709 0.0
C119 C 0.65411 0.83808 0.61437 0.0
H120 H 0.44563 0.77174 0.62515 0.0
C121 C 0.66082 0.80134 0.70065 0.0
C122 C 0.59052 0.75146 0.7607 0.0
H123 H 0.71149 0.8781 0.5744 0.0
H124 H 0.72272 0.8121 0.71997 0.0
C125 C 0.51249 0.74028 0.72782 0.0
C126 C 0.8243 0.64274 0.05105 0.0
C127 C 0.77745 0.574 0.99721 0.0
H128 H 0.91218 0.69572 0.16302 0.0
C129 C 0.77414 0.49985 0.02752 0.0
H130 H 0.82396 0.69945 0.03348 0.0
C131 C 0.82011 0.49577 0.10596 0.0
C132 C 0.87294 0.56635 0.15617 0.0
H133 H 0.73392 0.44397 0.99182 0.0
H134 H 0.81655 0.43768 0.12252 0.0
C135 C 0.87204 0.63937 0.12806 0.0
C136 C 0.34604 0.77422 0.45079 0.0
C137 C 0.33053 0.83522 0.4783 0.0
H138 H 0.3221 0.68479 0.35177 0.0
C139 C 0.27491 0.85024 0.42073 0.0
H140 H 0.38691 0.75874 0.49052 0.0
C141 C 0.24062 0.81009 0.33782 0.0
C142 C 0.2593 0.75208 0.30896 0.0
H143 H 0.25959 0.89579 0.43842 0.0
H144 H 0.19615 0.82165 0.29862 0.0
C145 C 0.31101 0.73354 0.36811 0.0
C146 C 0.52317 0.33414 0.64376 0.0
C147 C 0.51054 0.3198 0.74209 0.0
H148 H 0.53404 0.2896 0.51489 0.0
C149 C 0.48814 0.24133 0.78254 0.0
H150 H 0.53931 0.3934 0.60872 0.0
C151 C 0.48253 0.18065 0.72678 0.0
C152 C 0.50152 0.19759 0.6298 0.0
H153 H 0.47675 0.22737 0.85695 0.0
H154 H 0.46685 0.12113 0.76084 0.0
C155 C 0.51927 0.27428 0.58865 0.0
C156 C 0.13212 0.61979 0.69733 0.0
C157 C 0.06457 0.57296 0.75978 0.0
H158 H 0.19275 0.61975 0.57267 0.0
C159 C 1.01031 0.48759 0.74947 0.0
H160 H 0.17467 0.68548 0.70434 0.0
C161 C 1.02136 0.45026 0.67581 0.0
C162 C 0.08721 0.49748 0.61202 0.0
H163 H 0.9589 0.44994 0.79826 0.0
H164 H 0.97637 0.38553 0.66579 0.0
C165 C 0.14333 0.58216 0.62367 0.0
C166 C 0.47752 1.02322 1.01477 0.0
C167 C 0.52317 0.04576 0.09748 0.0
H168 H 0.48022 1.00084 0.87167 0.0
C169 C 0.61006 0.07359 0.09817 0.0
H170 H 0.41081 1.0022 1.01369 0.0
C171 C 0.64922 0.07157 0.01832 0.0
C172 C 0.60194 0.0436 0.93734 0.0
H173 H 0.64613 0.09261 0.16196 0.0
H174 H 0.71493 0.08883 0.02036 0.0
C175 C 0.51685 1.02213 0.93478 0.0
C176 C 0.59691 0.50786 0.4098 0.0
C177 C 0.6224 0.59058 0.42243 0.0
H178 H 0.52435 0.40366 0.32721 0.0
C179 C 0.59959 0.63458 0.35776 0.0
H180 H 0.61243 0.47288 0.46137 0.0
C181 C 0.54961 0.59551 0.28203 0.0
C182 C 0.52094 0.51157 0.27106 0.0
H183 H 0.61697 0.69762 0.36875 0.0
H184 H 0.53273 0.63061 0.23219 0.0
C185 C 0.5458 0.46823 0.33468 0.0
loop_
_geom_bond_atom_site_label_1
_geom_bond_atom_site_label_2
_geom_bond_distance
_geom_bond_site_symmetry_2
_ccdc_geom_bond_type
Zn0 O1 2.055 1_655 S
Zn0 O8 2.046 . S
Zn0 N16 2.036 1_554 S
Zn0 O28 2.053 . S
Zn0 O30 2.066 1_655 S
O1 Zn0 2.055 1_455 S
O1 C4 1.259 . S
C2 O30 1.256 . S
C2 O31 1.244 . S
Zn3 O5 2.046 . S
Zn3 O7 2.055 1_455 S
Zn3 N9 2.036 . S
Zn3 O27 2.066 1_455 S
Zn3 O31 2.053 . S
C4 O1 1.259 . S
C4 O5 1.254 . S
O5 Zn3 2.046 . S
O5 C4 1.254 . S
C6 O27 1.256 . S
C6 O28 1.244 . S
O7 Zn3 2.055 1_655 S
O7 C29 1.259 . S
O8 Zn0 2.046 . S
O8 C29 1.254 . S
N9 Zn3 2.036 . S
N9 C10 1.298 1_455 S
N9 N12 1.398 . S
C10 N9 1.298 1_655 S
C10 N13 1.367 . S
C10 C23 1.481 . S
C11 N12 1.299 . S
C11 N13 1.379 1_455 S
N12 N9 1.398 . S
N12 C11 1.299 . S
N13 C10 1.367 . S
N13 C11 1.379 1_655 S
C14 N16 1.298 1_455 S
C14 N18 1.367 . S
C14 C22 1.481 . S
C15 N17 1.299 . S
C15 N18 1.379 1_655 S
N16 Zn0 2.036 1_556 S
N16 C14 1.298 1_655 S
N16 N17 1.398 . S
N17 C15 1.299 . S
N17 N16 1.398 . S
N18 C14 1.367 . S
N18 C15 1.379 1_455 S
H19 C22 0.980 . S
H20 C22 0.981 . S
H21 C22 0.981 . S
C22 C14 1.481 . S
C22 H19 0.980 . S
C22 H20 0.981 . S
C22 H21 0.981 . S
C23 C10 1.481 . S
C23 H24 0.980 . S
C23 H25 0.981 . S
C23 H26 0.981 . S
H24 C23 0.980 . S
H25 C23 0.981 . S
H26 C23 0.981 . S
O27 Zn3 2.066 1_655 S
O27 C6 1.256 . S
O28 Zn0 2.053 . S
O28 C6 1.244 . S
C29 O7 1.259 . S
C29 O8 1.254 . S
O30 Zn0 2.066 1_455 S
O30 C2 1.256 . S
O31 C2 1.244 . S
O31 Zn3 2.053 . S
Zn32 O33 2.055 1_565 S
Zn32 O40 2.046 . S
Zn32 N48 2.036 . S
Zn32 O60 2.053 . S
Zn32 O62 2.066 1_565 S
O33 Zn32 2.055 1_545 S
O33 C36 1.259 . S
C34 O62 1.256 . S
C34 O63 1.244 . S
Zn35 O37 2.046 . S
Zn35 O39 2.055 1_545 S
Zn35 N41 2.036 . S
Zn35 O59 2.066 1_545 S
Zn35 O63 2.053 . S
C36 O33 1.259 . S
C36 O37 1.254 . S
O37 Zn35 2.046 . S
O37 C36 1.254 . S
C38 O59 1.256 . S
C38 O60 1.244 . S
O39 Zn35 2.055 1_565 S
O39 C61 1.259 . S
O40 Zn32 2.046 . S
O40 C61 1.254 . S
N41 Zn35 2.036 . S
N41 C42 1.298 1_545 S
N41 N44 1.398 . S
C42 N41 1.298 1_565 S
C42 N45 1.367 . S
C42 C55 1.481 . S
C43 N44 1.299 . S
C43 N45 1.379 1_545 S
N44 N41 1.398 . S
N44 C43 1.299 . S
N45 C42 1.367 . S
N45 C43 1.379 1_565 S
C46 N48 1.298 1_545 S
C46 N50 1.367 . S
C46 C54 1.481 . S
C47 N49 1.299 . S
C47 N50 1.379 1_565 S
N48 Zn32 2.036 . S
N48 C46 1.298 1_565 S
N48 N49 1.398 . S
N49 C47 1.299 . S
N49 N48 1.398 . S
N50 C46 1.367 . S
N50 C47 1.379 1_545 S
H51 C54 0.980 . S
H52 C54 0.981 . S
H53 C54 0.981 . S
C54 C46 1.481 . S
C54 H51 0.980 . S
C54 H52 0.981 . S
C54 H53 0.981 . S
C55 C42 1.481 . S
C55 H56 0.980 . S
C55 H57 0.981 . S
C55 H58 0.981 . S
H56 C55 0.980 . S
H57 C55 0.981 . S
H58 C55 0.981 . S
O59 Zn35 2.066 1_565 S
O59 C38 1.256 . S
O60 Zn32 2.053 . S
O60 C38 1.244 . S
C61 O39 1.259 . S
C61 O40 1.254 . S
O62 Zn32 2.066 1_545 S
O62 C34 1.256 . S
O63 C34 1.244 . S
O63 Zn35 2.053 . S
Zn64 O65 2.055 . S
Zn64 O72 2.046 . S
Zn64 N80 2.036 1_556 S
Zn64 O92 2.053 . S
Zn64 O94 2.066 . S
O65 Zn64 2.055 . S
O65 C68 1.259 . S
C66 O94 1.256 . S
C66 O95 1.244 . S
Zn67 O69 2.046 . S
Zn67 O71 2.055 . S
Zn67 N73 2.036 . S
Zn67 O91 2.066 . S
Zn67 O95 2.053 . S
C68 O65 1.259 . S
C68 O69 1.254 . S
O69 Zn67 2.046 . S
O69 C68 1.254 . S
C70 O91 1.256 . S
C70 O92 1.244 . S
O71 Zn67 2.055 . S
O71 C93 1.259 . S
O72 Zn64 2.046 . S
O72 C93 1.254 . S
N73 Zn67 2.036 . S
N73 C74 1.298 . S
N73 N76 1.398 . S
C74 N73 1.298 . S
C74 N77 1.367 . S
C74 C87 1.481 . S
C75 N76 1.299 . S
C75 N77 1.379 . S
N76 N73 1.398 . S
N76 C75 1.299 . S
N77 C74 1.367 . S
N77 C75 1.379 . S
C78 N80 1.298 . S
C78 N82 1.367 . S
C78 C86 1.481 . S
C79 N81 1.299 . S
C79 N82 1.379 . S
N80 Zn64 2.036 1_554 S
N80 C78 1.298 . S
N80 N81 1.398 . S
N81 C79 1.299 . S
N81 N80 1.398 . S
N82 C78 1.367 . S
N82 C79 1.379 . S
H83 C86 0.980 . S
H84 C86 0.981 . S
H85 C86 0.981 . S
C86 C78 1.481 . S
C86 H83 0.980 . S
C86 H84 0.981 . S
C86 H85 0.981 . S
C87 C74 1.481 . S
C87 H88 0.980 . S
C87 H89 0.981 . S
C87 H90 0.981 . S
H88 C87 0.980 . S
H89 C87 0.981 . S
H90 C87 0.981 . S
O91 Zn67 2.066 . S
O91 C70 1.256 . S
O92 Zn64 2.053 . S
O92 C70 1.244 . S
C93 O71 1.259 . S
C93 O72 1.254 . S
O94 Zn64 2.066 . S
O94 C66 1.256 . S
O95 C66 1.244 . S
O95 Zn67 2.053 . S
C96 C97 1.387 . S
C96 H100 0.950 . S
C96 C105 1.390 1_554 S
C97 C96 1.387 . S
C97 C99 1.387 . S
H98 C105 0.950 . S
C99 C97 1.387 . S
C99 C101 1.390 1_554 S
C99 H103 0.950 . S
H100 C96 0.950 . S
C101 C99 1.390 1_556 S
C101 C102 1.387 . S
C101 H104 0.950 . S
C102 C101 1.387 . S
C102 C105 1.387 . S
H103 C99 0.950 . S
H104 C101 0.950 . S
C105 C96 1.390 1_556 S
C105 H98 0.950 . S
C105 C102 1.387 . S
C106 C107 1.387 . S
C106 H110 0.950 . S
C106 C115 1.390 . S
C107 C106 1.387 . S
C107 C109 1.387 . S
H108 C115 0.950 . S
C109 C107 1.387 . S
C109 C111 1.390 . S
C109 H113 0.950 . S
H110 C106 0.950 . S
C111 C109 1.390 . S
C111 C112 1.387 . S
C111 H114 0.950 . S
C112 C111 1.387 . S
C112 C115 1.387 . S
H113 C109 0.950 . S
H114 C111 0.950 . S
C115 C106 1.390 . S
C115 H108 0.950 . S
C115 C112 1.387 . S
C116 C117 1.387 . S
C116 H120 0.950 . S
C116 C125 1.390 . S
C117 C116 1.387 . S
C117 C119 1.387 . S
H118 C125 0.950 . S
C119 C117 1.387 . S
C119 C121 1.390 . S
C119 H123 0.950 . S
H120 C116 0.950 . S
C121 C119 1.390 . S
C121 C122 1.387 . S
C121 H124 0.950 . S
C122 C121 1.387 . S
C122 C125 1.387 . S
H123 C119 0.950 . S
H124 C121 0.950 . S
C125 C116 1.390 . S
C125 H118 0.950 . S
C125 C122 1.387 . S
C126 C127 1.387 . S
C126 H130 0.950 . S
C126 C135 1.390 1_556 S
C127 C126 1.387 . S
C127 C129 1.387 . S
H128 C135 0.950 . S
C129 C127 1.387 . S
C129 C131 1.390 1_556 S
C129 H133 0.950 . S
H130 C126 0.950 . S
C131 C129 1.390 1_554 S
C131 C132 1.387 . S
C131 H134 0.950 . S
C132 C131 1.387 . S
C132 C135 1.387 . S
H133 C129 0.950 . S
H134 C131 0.950 . S
C135 C126 1.390 1_554 S
C135 H128 0.950 . S
C135 C132 1.387 . S
C136 C137 1.387 . S
C136 H140 0.950 . S
C136 C145 1.390 . S
C137 C136 1.387 . S
C137 C139 1.387 . S
H138 C145 0.950 . S
C139 C137 1.387 . S
C139 C141 1.390 . S
C139 H143 0.950 . S
H140 C136 0.950 . S
C141 C139 1.390 . S
C141 C142 1.387 . S
C141 H144 0.950 . S
C142 C141 1.387 . S
C142 C145 1.387 . S
H143 C139 0.950 . S
H144 C141 0.950 . S
C145 C136 1.390 . S
C145 H138 0.950 . S
C145 C142 1.387 . S
C146 C147 1.387 . S
C146 H150 0.950 . S
C146 C155 1.390 . S
C147 C146 1.387 . S
C147 C149 1.387 . S
H148 C155 0.950 . S
C149 C147 1.387 . S
C149 C151 1.390 . S
C149 H153 0.950 . S
H150 C146 0.950 . S
C151 C149 1.390 . S
C151 C152 1.387 . S
C151 H154 0.950 . S
C152 C151 1.387 . S
C152 C155 1.387 . S
H153 C149 0.950 . S
H154 C151 0.950 . S
C155 C146 1.390 . S
C155 H148 0.950 . S
C155 C152 1.387 . S
C156 C157 1.387 . S
C156 H160 0.950 . S
C156 C165 1.390 . S
C157 C156 1.387 . S
C157 C159 1.387 1_455 S
H158 C165 0.950 . S
C159 C157 1.387 1_655 S
C159 C161 1.390 . S
C159 H163 0.950 . S
H160 C156 0.950 . S
C161 C159 1.390 . S
C161 C162 1.387 . S
C161 H164 0.950 . S
C162 C161 1.387 . S
C162 C165 1.387 1_655 S
H163 C159 0.950 . S
H164 C161 0.950 . S
C165 C156 1.390 . S
C165 H158 0.950 . S
C165 C162 1.387 1_455 S
C166 C167 1.387 . S
C166 H170 0.950 . S
C166 C175 1.390 1_564 S
C167 C166 1.387 . S
C167 C169 1.387 . S
H168 C175 0.950 . S
C169 C167 1.387 . S
C169 C171 1.390 1_564 S
C169 H173 0.950 . S
H170 C166 0.950 . S
C171 C169 1.390 1_546 S
C171 C172 1.387 . S
C171 H174 0.950 . S
C172 C171 1.387 . S
C172 C175 1.387 . S
H173 C169 0.950 . S
H174 C171 0.950 . S
C175 C166 1.390 1_546 S
C175 H168 0.950 . S
C175 C172 1.387 . S
C176 C177 1.387 . S
C176 H180 0.950 . S
C176 C185 1.390 . S
C177 C176 1.387 . S
C177 C179 1.387 . S
H178 C185 0.950 . S
C179 C177 1.387 . S
C179 C181 1.390 . S
C179 H183 0.950 . S
H180 C176 0.950 . S
C181 C179 1.390 . S
C181 C182 1.387 . S
C181 H184 0.950 . S
C182 C181 1.387 . S
C182 C185 1.387 . S
H183 C179 0.950 . S
H184 C181 0.950 . S
C185 C176 1.390 . S
C185 H178 0.950 . S
C185 C182 1.387 . S
C97 C2 2.103 . S
C102 C93 2.068 . S
C107 C36 2.065 . S
C112 C6 2.100 . S
C117 C61 2.065 . S
C122 C70 2.100 . S
C127 C66 2.103 . S
C132 C29 2.068 . S
C137 C38 2.100 . S
C142 C4 2.064 . S
C147 C68 2.066 . S
C152 C34 2.100 . S
C157 N18 0.669 . S
C162 N13 0.670 . S
C167 N45 0.680 . S
C172 N50 0.680 . S
C177 N77 0.671 . S
C182 N82 0.670 . S
