# Generated by pormake.
# Topology crb, (4)-cn, num edge types: 1
# Building blocks:
#     Node 0, Type 0, BuildingBlock: QUQFOY_clean_sbu_1, # of connection points: 4
#     Node 1, Type 0, BuildingBlock: QUQFOY_clean_sbu_1, # of connection points: 4
#     Node 2, Type 0, BuildingBlock: QUQFOY_clean_sbu_1, # of connection points: 4
#     Node 3, Type 0, BuildingBlock: QUQFOY_clean_sbu_1, # of connection points: 4
#     Node 4, Type 0, BuildingBlock: QUQFOY_clean_sbu_1, # of connection points: 4
#     Node 5, Type 0, BuildingBlock: QUQFOY_clean_sbu_1, # of connection points: 4
#     Node 6, Type 0, BuildingBlock: QUQFOY_clean_sbu_1, # of connection points: 4
#     Node 7, Type 0, BuildingBlock: QUQFOY_clean_sbu_1, # of connection points: 4
#     Edge 8, Type (0, 0), None
#     Edge 9, Type (0, 0), None
#     Edge 10, Type (0, 0), None
#     Edge 11, Type (0, 0), None
#     Edge 12, Type (0, 0), None
#     Edge 13, Type (0, 0), None
#     Edge 14, Type (0, 0), None
#     Edge 15, Type (0, 0), None
#     Edge 16, Type (0, 0), None
#     Edge 17, Type (0, 0), None
#     Edge 18, Type (0, 0), None
#     Edge 19, Type (0, 0), None
#     Edge 20, Type (0, 0), None
#     Edge 21, Type (0, 0), None
#     Edge 22, Type (0, 0), None
#     Edge 23, Type (0, 0), None
# Relax obj value: 0.142
# Max RMSD: 0.213
# Mean RMSD: 0.213
data_MOF--net-crb--node1-QUQFOY_clean_sbu_1--edge1-none
_symmetry_space_group_name_H-M    P1
_symmetry_Int_Tables_number       1
_symmetry_cell_setting            triclinic
loop_
_symmetry_equiv_pos_as_xyz
'x, y, z'
_cell_length_a     19.661391
_cell_length_b     23.583881
_cell_length_c     11.632944
_cell_angle_alpha  89.996796
_cell_angle_beta   90.00009
_cell_angle_gamma 89.999748
loop_
_atom_site_label
_atom_site_type_symbol
_atom_site_fract_x
_atom_site_fract_y
_atom_site_fract_z
_atom_type_partial_charge
O0 O 0.23382 0.27747 0.92712 0.0
Cd1 Cd 0.2817 0.28979 0.08119 0.0
Cd2 Cd 0.28526 0.40713 0.00551 0.0
O3 O 0.22882 0.36794 0.87655 0.0
O4 O 0.25537 0.22699 0.18633 0.0
O5 O 0.23093 0.31769 0.21843 0.0
C6 C 0.22808 0.26527 0.2508 0.0
C7 C 0.26284 0.50259 0.04741 0.0
C8 C 0.21581 0.31592 0.85727 0.0
C9 C 0.41754 0.34217 0.05902 0.0
O10 O 0.38719 0.38759 0.03004 0.0
O11 O 0.385 0.29695 0.08013 0.0
O12 O 0.28809 0.48764 0.9501 0.0
O13 O 0.24735 0.46331 0.12008 0.0
O14 O 0.67526 0.27747 0.20063 0.0
Cd15 Cd 0.62738 0.28979 0.04656 0.0
Cd16 Cd 0.62381 0.40714 0.12223 0.0
O17 O 0.68026 0.36795 0.25118 0.0
O18 O 0.65371 0.22699 0.94143 0.0
O19 O 0.67815 0.31769 0.90931 0.0
C20 C 0.681 0.26527 0.87695 0.0
C21 C 0.64621 0.50261 0.08034 0.0
C22 C 0.69327 0.31593 0.27047 0.0
C23 C 0.49154 0.34217 0.06872 0.0
O24 O 0.52188 0.38759 0.09769 0.0
O25 O 0.52408 0.29696 0.04761 0.0
O26 O 0.62097 0.48764 0.17766 0.0
O27 O 0.66172 0.46333 0.00767 0.0
O28 O 0.67524 0.78774 0.9272 0.0
Cd29 Cd 0.62734 0.77542 0.08126 0.0
Cd30 Cd 0.6238 0.65807 0.0056 0.0
O31 O 0.68025 0.69727 0.87665 0.0
O32 O 0.65366 0.83822 0.1864 0.0
O33 O 0.67811 0.74752 0.21853 0.0
C34 C 0.68096 0.79994 0.25089 0.0
C35 C 0.6462 0.56261 0.04751 0.0
C36 C 0.69325 0.74929 0.85737 0.0
C37 C 0.49151 0.72303 0.05906 0.0
O38 O 0.52187 0.67761 0.0301 0.0
O39 O 0.52405 0.76825 0.08018 0.0
O40 O 0.62098 0.57757 0.95018 0.0
O41 O 0.66171 0.60189 0.12018 0.0
O42 O 0.23378 0.78771 0.20055 0.0
Cd43 Cd 0.28168 0.77539 0.0465 0.0
Cd44 Cd 0.28524 0.65805 0.12219 0.0
O45 O 0.22877 0.69724 0.25113 0.0
O46 O 0.25535 0.83819 0.94135 0.0
O47 O 0.23092 0.7475 0.90924 0.0
C48 C 0.22806 0.79991 0.87687 0.0
C49 C 0.26285 0.5626 0.08026 0.0
C50 C 0.21577 0.74926 0.2704 0.0
C51 C 0.41752 0.72303 0.06873 0.0
O52 O 0.38717 0.6776 0.09771 0.0
O53 O 0.38497 0.76824 0.04759 0.0
O54 O 0.28807 0.57755 0.1776 0.0
O55 O 0.24734 0.60188 0.00759 0.0
O56 O 0.73378 0.77748 0.42721 0.0
Cd57 Cd 0.78168 0.78981 0.58126 0.0
Cd58 Cd 0.78523 0.90715 0.50557 0.0
O59 O 0.72877 0.86796 0.37663 0.0
O60 O 0.75535 0.72701 0.68641 0.0
O61 O 0.73092 0.8177 0.71852 0.0
C62 C 0.72806 0.76529 0.75089 0.0
C63 C 0.76284 1.00261 0.54748 0.0
C64 C 0.71577 0.81594 0.35736 0.0
C65 C 0.91752 0.84217 0.55903 0.0
O66 O 0.88717 0.8876 0.53005 0.0
O67 O 0.88497 0.79696 0.58017 0.0
O68 O 0.78806 0.98765 0.45015 0.0
O69 O 0.74735 0.96333 0.62015 0.0
O70 O 0.17524 0.77746 0.70055 0.0
Cd71 Cd 0.12734 0.78978 0.5465 0.0
Cd72 Cd 0.1238 0.90713 0.62216 0.0
O73 O 0.18025 0.86793 0.7511 0.0
O74 O 0.15366 0.72698 0.44136 0.0
O75 O 0.17811 0.81768 0.40923 0.0
C76 C 0.18096 0.76526 0.37687 0.0
C77 C 0.14621 1.00259 0.58026 0.0
C78 C 0.19326 0.81591 0.77039 0.0
C79 C -0.00849 0.84217 0.5687 0.0
O80 O 0.02187 0.88759 0.59766 0.0
O81 O 0.02405 0.79695 0.54758 0.0
O82 O 0.12098 0.98763 0.67758 0.0
O83 O 0.1617 0.96331 0.50758 0.0
O84 O 0.17526 0.28773 0.42712 0.0
Cd85 Cd 0.12738 0.2754 0.58119 0.0
Cd86 Cd 0.12381 0.15806 0.50552 0.0
O87 O 0.18026 0.19725 0.37656 0.0
O88 O 0.15371 0.33821 0.68632 0.0
O89 O 0.17815 0.24751 0.71844 0.0
C90 C 0.181 0.29993 0.7508 0.0
C91 C 0.14621 0.0626 0.54742 0.0
C92 C 0.19327 0.24927 0.35728 0.0
C93 C -0.00846 0.22303 0.55903 0.0
O94 O 0.02188 0.17761 0.53005 0.0
O95 O 0.02408 0.26824 0.58014 0.0
O96 O 0.12097 0.07756 0.4501 0.0
O97 O 0.16172 0.10187 0.62009 0.0
O98 O 0.73382 0.28773 0.70063 0.0
Cd99 Cd 0.7817 0.27541 0.54656 0.0
Cd100 Cd 0.78526 0.15807 0.62224 0.0
O101 O 0.72882 0.19726 0.7512 0.0
O102 O 0.75537 0.33821 0.44142 0.0
O103 O 0.73093 0.24751 0.40932 0.0
C104 C 0.72808 0.29993 0.37695 0.0
C105 C 0.76285 0.06261 0.58032 0.0
C106 C 0.71581 0.24928 0.77047 0.0
C107 C 0.91754 0.22303 0.56873 0.0
O108 O 0.8872 0.17761 0.59771 0.0
O109 O 0.885 0.26825 0.54762 0.0
O110 O 0.78809 0.07756 0.67765 0.0
O111 O 0.74735 0.1019 0.50766 0.0
loop_
_geom_bond_atom_site_label_1
_geom_bond_atom_site_label_2
_geom_bond_distance
_geom_bond_site_symmetry_2
_ccdc_geom_bond_type
O0 Cd1 2.223 . S
O0 C8 1.315 1_554 S
Cd1 O0 2.223 . S
Cd1 O4 2.297 . S
Cd1 O5 2.439 . S
Cd1 O11 2.240 . S
Cd2 O3 2.240 1_556 S
Cd2 O10 2.223 . S
Cd2 O12 2.297 1_556 S
Cd2 O13 2.439 1_556 S
O3 Cd2 2.240 1_554 S
O3 C8 1.279 1_554 S
O4 Cd1 2.297 . S
O4 C6 1.247 . S
O5 Cd1 2.439 . S
O5 C6 1.208 . S
C6 O4 1.247 . S
C6 O5 1.208 . S
C7 O12 1.247 . S
C7 O13 1.208 . S
C8 O0 1.315 1_556 S
C8 O3 1.279 1_556 S
C9 O10 1.315 1_554 S
C9 O11 1.279 . S
O10 Cd2 2.223 . S
O10 C9 1.315 1_556 S
O11 Cd1 2.240 . S
O11 C9 1.279 . S
O12 Cd2 2.297 1_554 S
O12 C7 1.247 . S
O13 Cd2 2.439 1_554 S
O13 C7 1.208 . S
O14 Cd15 2.223 1_554 S
O14 C22 1.315 . S
Cd15 O14 2.223 1_556 S
Cd15 O18 2.297 . S
Cd15 O19 2.439 . S
Cd15 O25 2.240 1_556 S
Cd16 O17 2.240 . S
Cd16 O24 2.223 . S
Cd16 O26 2.297 . S
Cd16 O27 2.439 . S
O17 Cd16 2.240 . S
O17 C22 1.279 . S
O18 Cd15 2.297 . S
O18 C20 1.247 . S
O19 Cd15 2.439 . S
O19 C20 1.208 . S
C20 O18 1.247 . S
C20 O19 1.208 . S
C21 O26 1.247 . S
C21 O27 1.208 . S
C22 O14 1.315 . S
C22 O17 1.279 . S
C23 O24 1.315 . S
C23 O25 1.279 . S
O24 Cd16 2.223 . S
O24 C23 1.315 . S
O25 Cd15 2.240 1_554 S
O25 C23 1.279 . S
O26 Cd16 2.297 . S
O26 C21 1.247 . S
O27 Cd16 2.439 . S
O27 C21 1.208 . S
O28 Cd29 2.223 . S
O28 C36 1.315 1_554 S
Cd29 O28 2.223 . S
Cd29 O32 2.297 . S
Cd29 O33 2.439 . S
Cd29 O39 2.240 . S
Cd30 O31 2.240 1_556 S
Cd30 O38 2.223 . S
Cd30 O40 2.297 1_556 S
Cd30 O41 2.439 1_556 S
O31 Cd30 2.240 1_554 S
O31 C36 1.279 1_554 S
O32 Cd29 2.297 . S
O32 C34 1.247 . S
O33 Cd29 2.439 . S
O33 C34 1.208 . S
C34 O32 1.247 . S
C34 O33 1.208 . S
C35 O40 1.247 . S
C35 O41 1.208 . S
C36 O28 1.315 1_556 S
C36 O31 1.279 1_556 S
C37 O38 1.315 1_554 S
C37 O39 1.279 . S
O38 Cd30 2.223 . S
O38 C37 1.315 1_556 S
O39 Cd29 2.240 . S
O39 C37 1.279 . S
O40 Cd30 2.297 1_554 S
O40 C35 1.247 . S
O41 Cd30 2.439 1_554 S
O41 C35 1.208 . S
O42 Cd43 2.223 1_554 S
O42 C50 1.315 . S
Cd43 O42 2.223 1_556 S
Cd43 O46 2.297 . S
Cd43 O47 2.439 . S
Cd43 O53 2.240 1_556 S
Cd44 O45 2.240 . S
Cd44 O52 2.223 . S
Cd44 O54 2.297 . S
Cd44 O55 2.439 . S
O45 Cd44 2.240 . S
O45 C50 1.279 . S
O46 Cd43 2.297 . S
O46 C48 1.247 . S
O47 Cd43 2.439 . S
O47 C48 1.208 . S
C48 O46 1.247 . S
C48 O47 1.208 . S
C49 O54 1.247 . S
C49 O55 1.208 . S
C50 O42 1.315 . S
C50 O45 1.279 . S
C51 O52 1.315 . S
C51 O53 1.279 . S
O52 Cd44 2.223 . S
O52 C51 1.315 . S
O53 Cd43 2.240 1_554 S
O53 C51 1.279 . S
O54 Cd44 2.297 . S
O54 C49 1.247 . S
O55 Cd44 2.439 . S
O55 C49 1.208 . S
O56 Cd57 2.223 . S
O56 C64 1.315 . S
Cd57 O56 2.223 . S
Cd57 O60 2.297 . S
Cd57 O61 2.439 . S
Cd57 O67 2.240 . S
Cd58 O59 2.240 . S
Cd58 O66 2.223 . S
Cd58 O68 2.297 . S
Cd58 O69 2.439 . S
O59 Cd58 2.240 . S
O59 C64 1.279 . S
O60 Cd57 2.297 . S
O60 C62 1.247 . S
O61 Cd57 2.439 . S
O61 C62 1.208 . S
C62 O60 1.247 . S
C62 O61 1.208 . S
C63 O68 1.247 . S
C63 O69 1.208 . S
C64 O56 1.315 . S
C64 O59 1.279 . S
C65 O66 1.315 . S
C65 O67 1.279 . S
O66 Cd58 2.223 . S
O66 C65 1.315 . S
O67 Cd57 2.240 . S
O67 C65 1.279 . S
O68 Cd58 2.297 . S
O68 C63 1.247 . S
O69 Cd58 2.439 . S
O69 C63 1.208 . S
O70 Cd71 2.223 . S
O70 C78 1.315 . S
Cd71 O70 2.223 . S
Cd71 O74 2.297 . S
Cd71 O75 2.439 . S
Cd71 O81 2.240 . S
Cd72 O73 2.240 . S
Cd72 O80 2.223 . S
Cd72 O82 2.297 . S
Cd72 O83 2.439 . S
O73 Cd72 2.240 . S
O73 C78 1.279 . S
O74 Cd71 2.297 . S
O74 C76 1.247 . S
O75 Cd71 2.439 . S
O75 C76 1.208 . S
C76 O74 1.247 . S
C76 O75 1.208 . S
C77 O82 1.247 . S
C77 O83 1.208 . S
C78 O70 1.315 . S
C78 O73 1.279 . S
C79 O80 1.315 . S
C79 O81 1.279 . S
O80 Cd72 2.223 . S
O80 C79 1.315 . S
O81 Cd71 2.240 . S
O81 C79 1.279 . S
O82 Cd72 2.297 . S
O82 C77 1.247 . S
O83 Cd72 2.439 . S
O83 C77 1.208 . S
O84 Cd85 2.223 . S
O84 C92 1.315 . S
Cd85 O84 2.223 . S
Cd85 O88 2.297 . S
Cd85 O89 2.439 . S
Cd85 O95 2.240 . S
Cd86 O87 2.240 . S
Cd86 O94 2.223 . S
Cd86 O96 2.297 . S
Cd86 O97 2.439 . S
O87 Cd86 2.240 . S
O87 C92 1.279 . S
O88 Cd85 2.297 . S
O88 C90 1.247 . S
O89 Cd85 2.439 . S
O89 C90 1.208 . S
C90 O88 1.247 . S
C90 O89 1.208 . S
C91 O96 1.247 . S
C91 O97 1.208 . S
C92 O84 1.315 . S
C92 O87 1.279 . S
C93 O94 1.315 . S
C93 O95 1.279 . S
O94 Cd86 2.223 . S
O94 C93 1.315 . S
O95 Cd85 2.240 . S
O95 C93 1.279 . S
O96 Cd86 2.297 . S
O96 C91 1.247 . S
O97 Cd86 2.439 . S
O97 C91 1.208 . S
O98 Cd99 2.223 . S
O98 C106 1.315 . S
Cd99 O98 2.223 . S
Cd99 O102 2.297 . S
Cd99 O103 2.439 . S
Cd99 O109 2.240 . S
Cd100 O101 2.240 . S
Cd100 O108 2.223 . S
Cd100 O110 2.297 . S
Cd100 O111 2.439 . S
O101 Cd100 2.240 . S
O101 C106 1.279 . S
O102 Cd99 2.297 . S
O102 C104 1.247 . S
O103 Cd99 2.439 . S
O103 C104 1.208 . S
C104 O102 1.247 . S
C104 O103 1.208 . S
C105 O110 1.247 . S
C105 O111 1.208 . S
C106 O98 1.315 . S
C106 O101 1.279 . S
C107 O108 1.315 . S
C107 O109 1.279 . S
O108 Cd100 2.223 . S
O108 C107 1.315 . S
O109 Cd99 2.240 . S
O109 C107 1.279 . S
O110 Cd100 2.297 . S
O110 C105 1.247 . S
O111 Cd100 2.439 . S
O111 C105 1.208 . S
C7 C49 1.487 . S
C9 C23 2.170 . S
C21 C35 1.487 . S
C51 C37 2.170 . S
C63 C105 1.487 1_565 S
C79 C65 2.170 1_455 S
C91 C77 1.487 1_545 S
C107 C93 2.170 1_655 S
C92 C6 1.542 . S
C22 C104 1.542 . S
C64 C34 1.542 . S
C76 C50 1.542 . S
C78 C48 1.542 . S
C8 C90 1.542 . S
C20 C106 1.542 . S
C36 C62 1.542 . S
