# Generated by pormake.
# Topology qdl, (4)-cn, num edge types: 1
# Building blocks:
#     Node 0, Type 0, BuildingBlock: ESEHIV_clean_sbu_0, # of connection points: 4
#     Node 1, Type 0, BuildingBlock: ESEHIV_clean_sbu_0, # of connection points: 4
#     Node 2, Type 0, BuildingBlock: ESEHIV_clean_sbu_0, # of connection points: 4
#     Node 3, Type 0, BuildingBlock: ESEHIV_clean_sbu_0, # of connection points: 4
#     Node 4, Type 0, BuildingBlock: ESEHIV_clean_sbu_0, # of connection points: 4
#     Node 5, Type 0, BuildingBlock: ESEHIV_clean_sbu_0, # of connection points: 4
#     Edge 6, Type (0, 0), BuildingBlock: OJICUG_clean_linker_0, # of connection points: 2
#     Edge 7, Type (0, 0), BuildingBlock: OJICUG_clean_linker_0, # of connection points: 2
#     Edge 8, Type (0, 0), BuildingBlock: OJICUG_clean_linker_0, # of connection points: 2
#     Edge 9, Type (0, 0), BuildingBlock: OJICUG_clean_linker_0, # of connection points: 2
#     Edge 10, Type (0, 0), BuildingBlock: OJICUG_clean_linker_0, # of connection points: 2
#     Edge 11, Type (0, 0), BuildingBlock: OJICUG_clean_linker_0, # of connection points: 2
#     Edge 12, Type (0, 0), BuildingBlock: OJICUG_clean_linker_0, # of connection points: 2
#     Edge 13, Type (0, 0), BuildingBlock: OJICUG_clean_linker_0, # of connection points: 2
#     Edge 14, Type (0, 0), BuildingBlock: OJICUG_clean_linker_0, # of connection points: 2
#     Edge 15, Type (0, 0), BuildingBlock: OJICUG_clean_linker_0, # of connection points: 2
#     Edge 16, Type (0, 0), BuildingBlock: OJICUG_clean_linker_0, # of connection points: 2
#     Edge 17, Type (0, 0), BuildingBlock: OJICUG_clean_linker_0, # of connection points: 2
# Relax obj value: 0.000
# Max RMSD: 0.127
# Mean RMSD: 0.085
data_MOF--net-qdl--node1-ESEHIV_clean_sbu_0--edge1-OJICUG_clean_linker_0
_symmetry_space_group_name_H-M    P1
_symmetry_Int_Tables_number       1
_symmetry_cell_setting            triclinic
loop_
_symmetry_equiv_pos_as_xyz
'x, y, z'
_cell_length_a     10.528769
_cell_length_b     12.959062
_cell_length_c     67.742708
_cell_angle_alpha  99.715731
_cell_angle_beta   99.206618
_cell_angle_gamma 114.07062
loop_
_atom_site_label
_atom_site_type_symbol
_atom_site_fract_x
_atom_site_fract_y
_atom_site_fract_z
_atom_type_partial_charge
Cu0 Cu 0.18411 0.10747 0.09137 0.0
N1 N 0.08163 0.94538 0.08026 0.0
N2 N 1.01145 0.75272 0.07437 0.0
C3 C 0.10185 0.85993 0.08703 0.0
C4 C 0.93129 0.77191 0.0591 0.0
C5 C 0.97504 0.89053 0.06275 0.0
O6 O 0.2353 0.14819 0.12152 0.0
C7 C 0.36063 0.11716 0.0631 0.0
O8 O 0.29719 1.00244 0.05888 0.0
H9 H 0.18168 0.87611 0.10086 0.0
H10 H 0.93437 0.9342 0.05304 0.0
N11 N 1.06151 0.17415 0.08476 0.0
N12 N 0.99102 0.31114 0.08007 0.0
C13 C 0.10314 0.28506 0.08342 0.0
C14 C 0.91826 0.12813 0.08226 0.0
C15 C 0.87423 0.21224 0.07922 0.0
C16 C 0.3098 0.12182 0.13467 0.0
O17 O 0.37864 1.0631 0.12839 0.0
H18 H 0.214 0.34555 0.0851 0.0
H19 H 0.85122 1.04069 0.08314 0.0
O20 O 0.33996 0.17618 0.07825 0.0
H21 H 0.84991 0.70549 0.04586 0.0
H22 H 0.76548 0.20243 0.07729 0.0
Cu23 Cu 0.39822 0.28356 0.43449 0.0
N24 N 0.29332 0.17918 0.40857 0.0
N25 N 0.21271 0.09956 0.37428 0.0
C26 C 0.31762 0.18848 0.38982 0.0
C27 C 0.11984 1.03248 0.38385 0.0
C28 C 0.16977 0.08161 0.40487 0.0
O29 O 0.59656 0.3686 0.43301 0.0
C30 C 0.21772 0.39707 0.42881 0.0
O31 O 0.21749 0.37093 0.4092 0.0
H32 H 0.40896 0.26021 0.38769 0.0
H33 H 0.11767 1.05033 0.41665 0.0
N34 N 0.39279 0.19722 0.45415 0.0
N35 N 0.37456 0.14185 0.48357 0.0
C36 C 0.3764 0.22359 0.4734 0.0
C37 C 0.40154 0.09544 0.45199 0.0
C38 C 0.39016 1.06096 0.47009 0.0
C39 C 0.70493 0.39817 0.44803 0.0
O40 O 0.68421 0.38658 0.46631 0.0
H41 H 0.36441 0.30064 0.4797 0.0
H42 H 0.41518 1.04962 0.43821 0.0
O43 O 0.3002 0.37799 0.44209 0.0
H44 H 1.01945 0.9555 0.37626 0.0
H45 H 0.39528 0.98327 0.47315 0.0
Cu46 Cu 0.17903 0.21768 0.79033 0.0
N47 N 0.97894 0.12415 0.78378 0.0
N48 N 0.76697 0.97538 0.78142 0.0
C49 C 0.91125 1.01959 0.78782 0.0
C50 C 0.74219 1.05432 0.77291 0.0
C51 C 0.87325 0.14662 0.77456 0.0
O52 O 0.26639 0.20135 0.81676 0.0
C53 C 0.18974 0.18037 0.74953 0.0
O54 O 0.0863 0.21253 0.74897 0.0
H55 H 0.96663 0.97744 0.79557 0.0
H56 H 0.89028 0.22532 0.76961 0.0
N57 N 0.22445 0.37645 0.79419 0.0
N58 N 0.34612 0.56395 0.79442 0.0
C59 C 0.3163 0.4524 0.78575 0.0
C60 C 0.19517 0.44271 0.8086 0.0
C61 C 0.27108 0.55869 0.80887 0.0
C62 C 0.19878 0.19862 0.83087 0.0
O63 O 1.07616 0.2046 0.82683 0.0
H64 H 0.36773 0.42739 0.77449 0.0
H65 H 0.1293 0.40975 0.81893 0.0
O66 O 0.25052 0.17413 0.76686 0.0
H67 H 0.63697 1.0474 0.76661 0.0
H68 H 0.27492 0.63362 0.81932 0.0
Cu69 Cu 0.4673 0.30219 0.62809 0.0
N70 N 0.45114 0.21535 0.64782 0.0
N71 N 0.39599 0.15885 0.67606 0.0
C72 C 0.37922 0.21998 0.66241 0.0
C73 C 0.48217 0.11353 0.66979 0.0
C74 C 0.51549 0.1481 0.65226 0.0
O75 O 0.36841 0.39714 0.63482 0.0
C76 C 0.7759 0.41736 0.6431 0.0
O77 O 0.75516 0.40236 0.66123 0.0
H78 H 0.32051 0.27165 0.66349 0.0
H79 H 0.58543 0.12892 0.64379 0.0
N80 N 0.37779 0.20361 0.60134 0.0
N81 N 0.33132 0.14289 0.56686 0.0
C82 C 0.41506 0.23005 0.58406 0.0
C83 C 0.26695 0.09566 0.59497 0.0
C84 C 0.23817 1.0578 0.57368 0.0
C85 C 0.27911 0.40989 0.62158 0.0
O86 O 0.26915 0.37537 0.60178 0.0
H87 H 0.50283 0.31177 0.58419 0.0
H88 H 0.21079 1.04825 0.60506 0.0
O89 O 0.66804 0.39009 0.62818 0.0
H90 H 0.51947 1.06035 0.67741 0.0
H91 H 0.15367 0.97496 0.56399 0.0
Cu92 Cu 0.29064 0.30174 0.95611 0.0
N93 N 0.34977 0.46327 0.96241 0.0
N94 N 0.47207 0.65461 0.96522 0.0
C95 C 0.45939 0.54637 0.9577 0.0
C96 C 0.36616 0.63858 0.97502 0.0
C97 C 0.29128 0.52077 0.97328 0.0
O98 O 0.2912 0.2432 0.9277 0.0
C99 C 0.45696 0.32583 0.99551 0.0
O100 O 0.48409 0.43634 0.99857 0.0
H101 H 0.52801 0.5278 0.9489 0.0
H102 H 0.20182 0.4799 0.97982 0.0
N103 N 0.09789 0.22792 0.95629 0.0
N104 N 0.88962 0.0886 0.95786 0.0
C105 C 1.03307 0.12585 0.96117 0.0
C106 C 0.9924 0.25658 0.94961 0.0
C107 C 0.86375 0.17111 0.95068 0.0
C108 C 0.39138 0.26769 0.91836 0.0
O109 O 0.52498 0.33743 0.9288 0.0
H110 H 0.09024 0.07911 0.96668 0.0
H111 H 1.0074 0.33226 0.94374 0.0
O112 O 0.39091 0.25716 0.97744 0.0
H113 H 0.34607 0.70716 0.98328 0.0
H114 H 0.75884 0.1677 0.94572 0.0
Cu115 Cu 1.0659 1.05942 0.24619 0.0
N116 N 0.9507 0.13843 0.24538 0.0
N117 N 0.88335 0.27979 0.24335 0.0
C118 C 0.98618 0.24461 0.24171 0.0
C119 C 0.77944 0.19356 0.24839 0.0
C120 C 0.8209 0.10594 0.24951 0.0
O121 O 0.1947 0.10857 0.22803 0.0
C122 C 1.0795 1.04088 0.28637 0.0
O123 O 0.94218 0.97419 0.27755 0.0
H124 H 0.08626 0.29588 0.23817 0.0
H125 H 0.76094 1.02463 0.25321 0.0
N126 N 0.95542 0.89691 0.23576 0.0
N127 N 0.88995 0.70561 0.23109 0.0
C128 C 0.97725 0.81403 0.24334 0.0
C129 C 0.85068 0.83833 0.21807 0.0
C130 C 0.81065 0.72009 0.21509 0.0
C131 C 0.13626 0.11264 0.21034 0.0
O132 O 0.99898 0.08671 0.20586 0.0
H133 H 1.059 0.83293 0.25718 0.0
H134 H 0.80873 0.8788 0.20779 0.0
O135 O 0.16126 0.09102 0.27539 0.0
H136 H 0.68041 0.19363 0.25087 0.0
H137 H 0.73034 0.65027 0.20216 0.0
C138 C 0.12693 0.63528 0.08695 0.0
C139 C 1.00577 0.64149 0.07612 0.0
H140 H 0.21711 0.52612 0.09687 0.0
C141 C 0.87954 0.5369 0.0667 0.0
H142 H 0.22647 0.71367 0.09421 0.0
C143 C 0.87478 0.42888 0.06797 0.0
C144 C 0.99606 0.42266 0.07872 0.0
H145 H 0.7839 0.53847 0.05843 0.0
H146 H 0.77664 0.35006 0.06029 0.0
C147 C 0.12215 0.52727 0.08823 0.0
C148 C 0.86754 0.42099 0.42393 0.0
C149 C 0.84795 0.42235 0.44402 0.0
H150 H 1.00064 0.41406 0.40344 0.0
C151 C 0.96129 0.43301 0.4597 0.0
H152 H 0.78313 0.41368 0.4115 0.0
C153 C 0.08624 0.43292 0.45506 0.0
C154 C 0.10109 0.42253 0.43465 0.0
H155 H 0.95059 0.43511 0.47538 0.0
H156 H 0.16776 0.43476 0.4673 0.0
C157 C 0.99269 0.42129 0.41932 0.0
C158 C 0.67386 0.84864 0.80421 0.0
C159 C 0.66135 0.87067 0.78457 0.0
H160 H 0.57941 0.73363 0.82279 0.0
C161 C 0.54344 0.7902 0.76818 0.0
H162 H 0.76355 0.91005 0.81706 0.0
C163 C 0.44078 0.68823 0.77133 0.0
C164 C 0.45207 0.66755 0.79106 0.0
H165 H 0.53225 0.80572 0.75293 0.0
H166 H 0.35131 0.62629 0.7585 0.0
C167 C 0.56883 0.74872 0.8075 0.0
C168 C 0.93499 0.44152 0.61856 0.0
C169 C 0.91782 0.44119 0.63873 0.0
H170 H 1.0634 0.43364 0.59738 0.0
C171 C 1.0315 0.44875 0.65393 0.0
H172 H 0.85025 0.43664 0.60647 0.0
C173 C 0.1543 0.4472 0.6487 0.0
C174 C 0.16608 0.43787 0.62813 0.0
H175 H 1.02249 0.44931 0.66965 0.0
H176 H 0.23601 0.44648 0.66056 0.0
C177 C 1.05756 0.4398 0.61332 0.0
C178 C 0.5493 0.86207 0.96487 0.0
C179 C 0.57783 0.76443 0.96351 0.0
H180 H 0.62633 1.0418 0.96437 0.0
C181 C 0.71153 0.77599 0.96051 0.0
H182 H 0.44714 0.85621 0.967 0.0
C183 C 0.8138 0.88219 0.95881 0.0
C184 C 0.78505 0.97967 0.96006 0.0
H185 H 0.73808 0.7033 0.95965 0.0
H186 H 0.91453 0.88704 0.95619 0.0
C187 C 0.6516 0.96833 0.96315 0.0
C188 C 0.86885 0.46353 0.2559 0.0
C189 C 0.88419 0.38693 0.24022 0.0
H190 H 0.86265 0.62806 0.26534 0.0
C191 C 0.90069 0.41619 0.22146 0.0
H192 H 0.85648 0.44232 0.27049 0.0
C193 C 0.89962 0.51989 0.21829 0.0
C194 C 0.88693 0.59758 0.2341 0.0
H195 H 0.91236 0.35783 0.2092 0.0
H196 H 0.91146 0.54078 0.20366 0.0
C197 C 0.87273 0.56914 0.25299 0.0
C198 C 0.17765 0.20041 0.18085 0.0
C199 C 0.21384 0.13877 0.19408 0.0
H200 H 0.18315 0.24641 0.15213 0.0
C201 C 0.3025 0.08657 0.18924 0.0
H202 H 0.11021 0.24214 0.18431 0.0
C203 C 0.34303 0.08723 0.17042 0.0
C204 C 0.29625 0.14095 0.15636 0.0
H205 H 0.33105 1.03784 0.19915 0.0
H206 H 0.40318 1.0397 0.16637 0.0
C207 C 0.21922 0.20237 0.16234 0.0
C208 C 0.29332 1.03635 0.53071 0.0
C209 C 0.33965 0.14214 0.54573 0.0
H210 H 0.26746 0.95312 0.49921 0.0
C211 C 0.39555 0.2476 0.5398 0.0
H212 H 0.25058 0.95362 0.53474 0.0
C213 C 0.40582 0.24739 0.51946 0.0
C214 C 0.36111 0.14176 0.50448 0.0
H215 H 0.43054 0.33062 0.55086 0.0
H216 H 0.45108 0.33037 0.51557 0.0
C217 C 0.3044 1.03618 0.51037 0.0
C218 C 0.15966 0.1429 0.86343 0.0
C219 C 0.25684 0.19652 0.8521 0.0
H220 H 0.12628 0.1205 0.89294 0.0
C221 C 0.40383 0.26073 0.86224 0.0
H222 H 1.04588 0.09192 0.85597 0.0
C223 C 0.45053 0.27873 0.88375 0.0
C224 C 0.35088 0.23186 0.89531 0.0
H225 H 0.48088 0.30345 0.85387 0.0
H226 H 0.56301 0.33441 0.89142 0.0
C227 C 0.20603 0.15958 0.88469 0.0
C228 C 0.47201 0.2961 0.05027 0.0
C229 C 0.42097 0.17466 0.04728 0.0
H230 H 0.5262 0.43938 0.03635 0.0
C231 C 0.40674 0.10669 0.02774 0.0
H232 H 0.48565 0.35139 0.06513 0.0
C233 C 0.4291 0.15719 1.01109 0.0
C234 C 0.46764 0.27694 1.01369 0.0
H235 H 0.36866 1.01293 0.02488 0.0
H236 H 0.40786 0.10108 0.99595 0.0
C237 C 0.4956 0.34666 0.0337 0.0
C238 C 1.06516 0.96034 0.3171 0.0
C239 C 0.13271 1.05416 0.30868 0.0
H240 H 1.04134 0.89923 0.34416 0.0
C241 C 0.238 0.16115 0.32203 0.0
H242 H 0.98494 0.87625 0.30714 0.0
C243 C 0.26822 0.17571 0.34359 0.0
C244 C 0.19487 0.08293 0.35211 0.0
H245 H 0.29117 0.23508 0.31592 0.0
H246 H 0.34456 0.2609 0.3535 0.0
C247 C 0.0968 0.97405 0.33844 0.0
C248 C 0.41542 0.14444 0.71252 0.0
C249 C 0.33919 0.15138 0.6941 0.0
H250 H 0.42877 0.14847 0.74471 0.0
C251 C 0.20925 0.15802 0.69384 0.0
H252 H 0.51617 0.13957 0.71321 0.0
C253 C 0.15964 0.16305 0.71169 0.0
C254 C 0.23854 0.16183 0.73041 0.0
H255 H 0.14643 0.16099 0.67984 0.0
H256 H 1.06023 0.17052 0.71084 0.0
C257 C 0.36564 0.14989 0.73056 0.0
loop_
_geom_bond_atom_site_label_1
_geom_bond_atom_site_label_2
_geom_bond_distance
_geom_bond_site_symmetry_2
_ccdc_geom_bond_type
Cu0 N1 1.999 . S
Cu0 O6 1.974 . S
Cu0 N11 1.985 . S
Cu0 O20 1.959 . S
N1 Cu0 1.999 . S
N1 C3 1.263 . S
N1 C5 1.389 . S
N2 C3 1.358 1_565 S
N2 C4 1.400 . S
C3 N1 1.263 . S
C3 N2 1.358 1_545 S
C3 H9 0.930 . S
C4 N2 1.400 . S
C4 C5 1.351 1_565 S
C4 H21 0.930 . S
C5 N1 1.389 . S
C5 C4 1.351 1_545 S
C5 H10 0.930 . S
O6 Cu0 1.974 . S
O6 C16 1.282 . S
C7 O8 1.261 . S
C7 O20 1.251 . S
O8 C7 1.261 . S
H9 C3 0.930 . S
H10 C5 0.930 . S
N11 Cu0 1.985 . S
N11 C13 1.335 . S
N11 C14 1.390 . S
N12 C13 1.345 . S
N12 C15 1.336 . S
C13 N11 1.335 . S
C13 N12 1.345 . S
C13 H18 0.930 . S
C14 N11 1.390 . S
C14 C15 1.346 . S
C14 H19 0.930 . S
C15 N12 1.336 . S
C15 C14 1.346 . S
C15 H22 0.929 . S
C16 O6 1.282 . S
C16 O17 1.216 . S
O17 C16 1.216 . S
H18 C13 0.930 . S
H19 C14 0.930 . S
O20 Cu0 1.959 . S
O20 C7 1.251 . S
H21 C4 0.930 . S
H22 C15 0.929 . S
Cu23 N24 1.999 . S
Cu23 O29 1.974 . S
Cu23 N34 1.985 . S
Cu23 O43 1.959 1_455 S
N24 Cu23 1.999 . S
N24 C26 1.263 . S
N24 C28 1.389 . S
N25 C26 1.358 . S
N25 C27 1.400 . S
C26 N24 1.263 . S
C26 N25 1.358 . S
C26 H32 0.930 . S
C27 N25 1.400 . S
C27 C28 1.351 . S
C27 H44 0.930 . S
C28 N24 1.389 . S
C28 C27 1.351 . S
C28 H33 0.930 . S
O29 Cu23 1.974 . S
O29 C39 1.282 1_545 S
C30 O31 1.261 1_545 S
C30 O43 1.251 . S
O31 C30 1.261 1_565 S
H32 C26 0.930 . S
H33 C28 0.930 . S
N34 Cu23 1.985 . S
N34 C36 1.335 . S
N34 C37 1.389 1_545 S
N35 C36 1.345 . S
N35 C38 1.336 1_545 S
C36 N34 1.335 . S
C36 N35 1.345 . S
C36 H41 0.930 . S
C37 N34 1.389 1_565 S
C37 C38 1.347 . S
C37 H42 0.931 . S
C38 N35 1.336 1_565 S
C38 C37 1.347 . S
C38 H45 0.929 . S
C39 O29 1.282 1_565 S
C39 O40 1.216 . S
O40 C39 1.216 . S
H41 C36 0.930 . S
H42 C37 0.931 . S
O43 Cu23 1.959 1_655 S
O43 C30 1.251 . S
H44 C27 0.930 . S
H45 C38 0.929 . S
Cu46 N47 1.999 1_445 S
Cu46 O52 1.974 . S
Cu46 N57 1.985 . S
Cu46 O66 1.959 . S
N47 Cu46 1.999 1_665 S
N47 C49 1.263 . S
N47 C51 1.389 . S
N48 C49 1.358 . S
N48 C50 1.400 . S
C49 N47 1.263 . S
C49 N48 1.358 . S
C49 H55 0.930 . S
C50 N48 1.400 . S
C50 C51 1.351 . S
C50 H67 0.930 . S
C51 N47 1.389 . S
C51 C50 1.351 . S
C51 H56 0.930 . S
O52 Cu46 1.974 . S
O52 C62 1.282 1_455 S
C53 O54 1.261 . S
C53 O66 1.251 1_655 S
O54 C53 1.261 . S
H55 C49 0.930 . S
H56 C51 0.930 . S
N57 Cu46 1.985 . S
N57 C59 1.335 . S
N57 C60 1.390 . S
N58 C59 1.345 . S
N58 C61 1.336 . S
C59 N57 1.335 . S
C59 N58 1.345 . S
C59 H64 0.930 . S
C60 N57 1.390 . S
C60 C61 1.346 . S
C60 H65 0.930 . S
C61 N58 1.336 . S
C61 C60 1.346 . S
C61 H68 0.929 . S
C62 O52 1.282 1_655 S
C62 O63 1.216 . S
O63 C62 1.216 . S
H64 C59 0.930 . S
H65 C60 0.930 . S
O66 Cu46 1.959 . S
O66 C53 1.251 1_455 S
H67 C50 0.930 . S
H68 C61 0.929 . S
Cu69 N70 1.999 . S
Cu69 O75 1.974 1_455 S
Cu69 N80 1.985 1_455 S
Cu69 O89 1.959 . S
N70 Cu69 1.999 . S
N70 C72 1.263 1_455 S
N70 C74 1.389 . S
N71 C72 1.358 1_455 S
N71 C73 1.400 . S
C72 N70 1.263 1_655 S
C72 N71 1.358 1_655 S
C72 H78 0.930 . S
C73 N71 1.400 . S
C73 C74 1.351 . S
C73 H90 0.930 . S
C74 N70 1.389 . S
C74 C73 1.351 . S
C74 H79 0.930 . S
O75 Cu69 1.974 1_655 S
O75 C85 1.282 1_545 S
C76 O77 1.261 . S
C76 O89 1.251 1_565 S
O77 C76 1.261 . S
H78 C72 0.930 . S
H79 C74 0.930 . S
N80 Cu69 1.985 1_655 S
N80 C82 1.335 1_655 S
N80 C83 1.390 1_545 S
N81 C82 1.345 . S
N81 C84 1.336 1_445 S
C82 N80 1.335 1_455 S
C82 N81 1.345 . S
C82 H87 0.930 . S
C83 N80 1.390 1_565 S
C83 C84 1.346 . S
C83 H88 0.930 . S
C84 N81 1.336 1_665 S
C84 C83 1.346 . S
C84 H91 0.929 . S
C85 O75 1.282 1_565 S
C85 O86 1.216 . S
O86 C85 1.216 . S
H87 C82 0.930 . S
H88 C83 0.930 . S
O89 Cu69 1.959 . S
O89 C76 1.251 1_545 S
H90 C73 0.930 . S
H91 C84 0.929 . S
Cu92 N93 1.999 . S
Cu92 O98 1.974 . S
Cu92 N103 1.985 1_455 S
Cu92 O112 1.959 . S
N93 Cu92 1.999 . S
N93 C95 1.263 . S
N93 C97 1.389 . S
N94 C95 1.358 . S
N94 C96 1.400 . S
C95 N93 1.263 . S
C95 N94 1.358 . S
C95 H101 0.930 . S
C96 N94 1.400 . S
C96 C97 1.351 . S
C96 H113 0.930 . S
C97 N93 1.389 . S
C97 C96 1.351 . S
C97 H102 0.930 . S
O98 Cu92 1.974 . S
O98 C108 1.282 1_455 S
C99 O100 1.261 . S
C99 O112 1.251 . S
O100 C99 1.261 . S
H101 C95 0.930 . S
H102 C97 0.930 . S
N103 Cu92 1.985 1_655 S
N103 C105 1.335 1_545 S
N103 C106 1.390 1_545 S
N104 C105 1.345 . S
N104 C107 1.336 . S
C105 N103 1.335 1_565 S
C105 N104 1.345 . S
C105 H110 0.930 . S
C106 N103 1.390 1_565 S
C106 C107 1.346 . S
C106 H111 0.930 1_565 S
C107 N104 1.336 . S
C107 C106 1.346 . S
C107 H114 0.929 . S
C108 O98 1.282 1_655 S
C108 O109 1.216 . S
O109 C108 1.216 . S
H110 C105 0.930 . S
H111 C106 0.930 1_545 S
O112 Cu92 1.959 . S
O112 C99 1.251 . S
H113 C96 0.930 . S
H114 C107 0.929 . S
Cu115 N116 1.999 . S
Cu115 O121 1.974 . S
Cu115 N126 1.985 . S
Cu115 O135 1.959 . S
N116 Cu115 1.999 . S
N116 C118 1.263 . S
N116 C120 1.389 . S
N117 C118 1.358 . S
N117 C119 1.400 . S
C118 N116 1.263 . S
C118 N117 1.358 . S
C118 H124 0.930 . S
C119 N117 1.400 . S
C119 C120 1.351 . S
C119 H136 0.930 . S
C120 N116 1.389 . S
C120 C119 1.351 . S
C120 H125 0.930 . S
O121 Cu115 1.974 . S
O121 C131 1.282 . S
C122 O123 1.261 . S
C122 O135 1.251 . S
O123 C122 1.261 . S
H124 C118 0.930 . S
H125 C120 0.930 . S
N126 Cu115 1.985 . S
N126 C128 1.335 1_545 S
N126 C129 1.390 1_545 S
N127 C128 1.345 . S
N127 C130 1.336 . S
C128 N126 1.335 1_565 S
C128 N127 1.345 . S
C128 H133 0.930 . S
C129 N126 1.390 1_565 S
C129 C130 1.346 . S
C129 H134 0.930 . S
C130 N127 1.336 . S
C130 C129 1.346 . S
C130 H137 0.929 . S
C131 O121 1.282 . S
C131 O132 1.216 . S
O132 C131 1.216 . S
H133 C128 0.930 . S
H134 C129 0.930 . S
O135 Cu115 1.959 . S
O135 C122 1.251 . S
H136 C119 0.930 . S
H137 C130 0.929 . S
C138 C139 1.387 . S
C138 H142 0.950 . S
C138 C147 1.390 . S
C139 C138 1.387 . S
C139 C141 1.387 . S
H140 C147 0.950 . S
C141 C139 1.387 . S
C141 C143 1.390 . S
C141 H145 0.950 . S
H142 C138 0.950 . S
C143 C141 1.390 . S
C143 C144 1.387 . S
C143 H146 0.950 . S
C144 C143 1.387 . S
C144 C147 1.387 . S
H145 C141 0.950 . S
H146 C143 0.950 . S
C147 C138 1.390 . S
C147 H140 0.950 . S
C147 C144 1.387 . S
C148 C149 1.391 . S
C148 H152 0.950 . S
C148 C157 1.390 . S
C149 C148 1.391 . S
C149 C151 1.385 1_565 S
H150 C157 0.950 . S
C151 C149 1.385 1_545 S
C151 C153 1.390 . S
C151 H155 0.950 . S
H152 C148 0.950 . S
C153 C151 1.390 . S
C153 C154 1.393 . S
C153 H156 0.950 . S
C154 C153 1.393 . S
C154 C157 1.384 1_545 S
H155 C151 0.950 . S
H156 C153 0.950 . S
C157 C148 1.390 . S
C157 H150 0.950 . S
C157 C154 1.384 1_565 S
C158 C159 1.387 . S
C158 H162 0.950 . S
C158 C167 1.390 . S
C159 C158 1.387 . S
C159 C161 1.387 . S
H160 C167 0.950 . S
C161 C159 1.387 . S
C161 C163 1.390 . S
C161 H165 0.950 . S
H162 C158 0.950 . S
C163 C161 1.390 . S
C163 C164 1.387 . S
C163 H166 0.950 . S
C164 C163 1.387 . S
C164 C167 1.387 . S
H165 C161 0.950 . S
H166 C163 0.950 . S
C167 C158 1.390 . S
C167 H160 0.950 . S
C167 C164 1.387 . S
C168 C169 1.387 . S
C168 H172 0.950 . S
C168 C177 1.390 . S
C169 C168 1.387 . S
C169 C171 1.387 1_565 S
H170 C177 0.950 . S
C171 C169 1.387 1_545 S
C171 C173 1.390 . S
C171 H175 0.950 . S
H172 C168 0.950 . S
C173 C171 1.390 . S
C173 C174 1.387 1_545 S
C173 H176 0.950 . S
C174 C173 1.387 1_565 S
C174 C177 1.387 . S
H175 C171 0.950 . S
H176 C173 0.950 . S
C177 C168 1.390 . S
C177 H170 0.950 . S
C177 C174 1.387 . S
C178 C179 1.387 . S
C178 H182 0.950 . S
C178 C187 1.390 . S
C179 C178 1.387 . S
C179 C181 1.387 . S
H180 C187 0.950 . S
C181 C179 1.387 . S
C181 C183 1.390 . S
C181 H185 0.950 . S
H182 C178 0.950 . S
C183 C181 1.390 . S
C183 C184 1.387 . S
C183 H186 0.950 . S
C184 C183 1.387 . S
C184 C187 1.387 . S
H185 C181 0.950 . S
H186 C183 0.950 . S
C187 C178 1.390 . S
C187 H180 0.950 . S
C187 C184 1.387 . S
C188 C189 1.387 . S
C188 H192 0.950 . S
C188 C197 1.390 . S
C189 C188 1.387 . S
C189 C191 1.387 . S
H190 C197 0.950 . S
C191 C189 1.387 . S
C191 C193 1.390 . S
C191 H195 0.950 . S
H192 C188 0.950 . S
C193 C191 1.390 . S
C193 C194 1.387 . S
C193 H196 0.950 . S
C194 C193 1.387 . S
C194 C197 1.387 . S
H195 C191 0.950 . S
H196 C193 0.950 . S
C197 C188 1.390 . S
C197 H190 0.950 . S
C197 C194 1.387 . S
C198 C199 1.387 . S
C198 H202 0.950 . S
C198 C207 1.390 . S
C199 C198 1.387 . S
C199 C201 1.387 . S
H200 C207 0.950 . S
C201 C199 1.387 . S
C201 C203 1.390 . S
C201 H205 0.950 . S
H202 C198 0.950 . S
C203 C201 1.390 . S
C203 C204 1.387 . S
C203 H206 0.950 . S
C204 C203 1.387 . S
C204 C207 1.387 . S
H205 C201 0.950 . S
H206 C203 0.950 . S
C207 C198 1.390 . S
C207 H200 0.950 . S
C207 C204 1.387 . S
C208 C209 1.387 1_565 S
C208 H212 0.950 1_455 S
C208 C217 1.390 . S
C209 C208 1.387 1_545 S
C209 C211 1.387 . S
H210 C217 0.950 1_655 S
C211 C209 1.387 . S
C211 C213 1.390 . S
C211 H215 0.950 . S
H212 C208 0.950 1_655 S
C213 C211 1.390 . S
C213 C214 1.387 . S
C213 H216 0.950 . S
C214 C213 1.387 . S
C214 C217 1.387 1_545 S
H215 C211 0.950 . S
H216 C213 0.950 . S
C217 C208 1.390 . S
C217 H210 0.950 1_455 S
C217 C214 1.387 1_565 S
C218 C219 1.387 . S
C218 H222 0.950 . S
C218 C227 1.390 . S
C219 C218 1.387 . S
C219 C221 1.387 1_655 S
H220 C227 0.950 . S
C221 C219 1.387 1_455 S
C221 C223 1.390 . S
C221 H225 0.950 . S
H222 C218 0.950 . S
C223 C221 1.390 . S
C223 C224 1.387 . S
C223 H226 0.950 . S
C224 C223 1.387 . S
C224 C227 1.387 1_455 S
H225 C221 0.950 . S
H226 C223 0.950 . S
C227 C218 1.390 . S
C227 H220 0.950 . S
C227 C224 1.387 1_655 S
C228 C229 1.387 . S
C228 H232 0.950 . S
C228 C237 1.390 1_554 S
C229 C228 1.387 . S
C229 C231 1.387 . S
H230 C237 0.950 . S
C231 C229 1.387 . S
C231 C233 1.390 1_554 S
C231 H235 0.950 . S
H232 C228 0.950 . S
C233 C231 1.390 1_556 S
C233 C234 1.387 . S
C233 H236 0.950 . S
C234 C233 1.387 . S
C234 C237 1.388 . S
H235 C231 0.950 . S
H236 C233 0.950 . S
C237 C228 1.390 1_556 S
C237 H230 0.950 . S
C237 C234 1.388 . S
C238 C239 1.387 . S
C238 H242 0.950 1_545 S
C238 C247 1.390 1_545 S
C239 C238 1.387 . S
C239 C241 1.387 . S
H240 C247 0.950 . S
C241 C239 1.387 . S
C241 C243 1.390 . S
C241 H245 0.950 . S
H242 C238 0.950 1_565 S
C243 C241 1.390 . S
C243 C244 1.387 . S
C243 H246 0.950 . S
C244 C243 1.387 . S
C244 C247 1.387 1_545 S
H245 C241 0.950 . S
H246 C243 0.950 . S
C247 C238 1.390 1_565 S
C247 H240 0.950 . S
C247 C244 1.387 1_565 S
C248 C249 1.387 . S
C248 H252 0.950 . S
C248 C257 1.390 . S
C249 C248 1.387 . S
C249 C251 1.387 1_455 S
H250 C257 0.950 . S
C251 C249 1.387 1_655 S
C251 C253 1.390 . S
C251 H255 0.949 1_545 S
H252 C248 0.950 . S
C253 C251 1.390 . S
C253 C254 1.387 . S
C253 H256 0.950 . S
C254 C253 1.387 . S
C254 C257 1.387 1_655 S
H255 C251 0.949 1_565 S
H256 C253 0.950 . S
C257 C248 1.390 . S
C257 H250 0.950 . S
C257 C254 1.387 1_455 S
C139 N2 1.464 . S
C144 N12 1.466 . S
C149 C39 1.489 . S
C154 C30 1.495 . S
C159 N48 1.462 . S
C164 N58 1.465 . S
C169 C76 1.497 . S
C174 C85 1.490 . S
C179 N94 1.462 . S
C184 N104 1.465 . S
C189 N117 1.463 . S
C194 N127 1.465 . S
C199 C131 1.476 . S
C204 C16 1.474 . S
C209 N81 1.467 . S
C214 N35 1.466 . S
C219 C62 1.534 . S
C224 C108 1.535 1_455 S
C229 C7 1.530 . S
C234 C99 1.525 . S
C239 C122 1.492 . S
C244 N25 1.453 . S
C249 N71 1.491 . S
C254 C53 1.522 . S
