# Generated by pormake.
# Topology pcu, (6)-cn, num edge types: 1
# Building blocks:
#     Node 0, Type 0, BuildingBlock: KUMBUR_clean_sbu_0, # of connection points: 6
#     Edge 1, Type (0, 0), BuildingBlock: EZIPEK_clean_linker_0, # of connection points: 2
#     Edge 2, Type (0, 0), BuildingBlock: EZIPEK_clean_linker_0, # of connection points: 2
#     Edge 3, Type (0, 0), BuildingBlock: EZIPEK_clean_linker_0, # of connection points: 2
# Relax obj value: 0.000
# Max RMSD: 0.000
# Mean RMSD: 0.000
data_MOF--net-pcu--node1-KUMBUR_clean_sbu_0--edge1-EZIPEK_clean_linker_0
_symmetry_space_group_name_H-M    P1
_symmetry_Int_Tables_number       1
_symmetry_cell_setting            triclinic
loop_
_symmetry_equiv_pos_as_xyz
'x, y, z'
_cell_length_a     10.08117
_cell_length_b     20.776806
_cell_length_c     11.101033
_cell_angle_alpha  116.39881
_cell_angle_beta   80.259936
_cell_angle_gamma 110.27539
loop_
_atom_site_label
_atom_site_type_symbol
_atom_site_fract_x
_atom_site_fract_y
_atom_site_fract_z
_atom_type_partial_charge
Tb0 Tb 0.06448 0.0746 0.05057 0.0
C1 C 0.75389 0.74433 0.72035 0.0
C2 C 0.51801 0.7233 0.81963 0.0
C3 C 0.55526 0.64449 0.58529 0.0
C4 C 0.66432 0.76253 0.83145 0.0
C5 C 0.70034 0.68416 0.59659 0.0
C6 C 0.46427 0.66447 0.69613 0.0
C7 C 0.93717 0.70666 0.50275 0.0
N8 N 0.89266 0.78629 0.73271 0.0
C9 C 0.98528 0.7664 0.62653 0.0
C10 C 0.79393 0.66564 0.48743 0.0
Tb11 Tb 0.95958 0.87565 0.94717 0.0
N12 N 0.71942 0.82009 0.94957 0.0
C13 C 0.63323 0.83952 0.06022 0.0
C14 C 0.42959 0.74492 0.93188 0.0
C15 C 0.48759 0.80304 0.0528 0.0
H16 H 0.0967 0.79731 0.63742 0.0
H17 H 0.42 0.82035 0.14027 0.0
H18 H 0.35254 0.63382 0.68531 0.0
H19 H 1.01081 0.69223 0.41946 0.0
H20 H 0.67381 0.88519 0.15336 0.0
H21 H 0.60209 0.12511 0.85176 0.0
H22 H 0.3166 0.71737 0.92634 0.0
H23 H 0.9316 0.15408 0.36149 0.0
H24 H 0.34735 0.06322 0.84066 0.0
H25 H 0.02046 0.26 0.57784 0.0
H26 H 0.51218 0.59853 0.49095 0.0
H27 H 0.70918 0.22662 0.06523 0.0
H28 H 0.67598 0.31234 0.30575 0.0
H29 H 0.75682 0.61962 0.39118 0.0
H30 H 0.51913 0.34971 0.50144 0.0
N31 N 0.30481 0.12863 0.04512 0.0
C32 C 0.38951 0.1085 0.93352 0.0
C33 C 0.59569 0.20071 0.06045 0.0
C34 C 0.50863 0.22366 0.17331 0.0
C35 C 0.53567 0.14329 0.93981 0.0
C36 C 0.36183 0.18578 0.16283 0.0
H37 H 0.27534 0.33099 0.60344 0.0
N38 N 0.13447 0.16383 0.26407 0.0
C39 C 0.09307 0.24476 0.49393 0.0
C40 C 0.27369 0.20489 0.27486 0.0
C41 C 0.04322 0.18473 0.37097 0.0
C42 C 0.2368 0.28482 0.50776 0.0
C43 C 0.32908 0.2651 0.3979 0.0
O44 O 0.92219 0.13723 0.11247 0.0
O45 O 0.88566 0.97354 0.03375 0.0
O46 O 0.9652 0.89936 0.76807 0.0
O47 O 0.10228 0.02518 0.83155 0.0
O48 O 0.87156 0.03934 0.94692 0.0
O49 O 0.11183 0.16728 0.99886 0.0
O50 O 0.10162 0.81287 0.88651 0.0
O51 O 0.13834 -0.02331 0.96404 0.0
O52 O 0.05859 0.05067 0.22951 0.0
O53 O 0.91905 0.92537 0.16569 0.0
O54 O 0.1525 0.91104 0.05094 0.0
O55 O 0.9133 0.78475 0.00333 0.0
C56 C 0.80325 -0.01812 0.97092 0.0
C57 C 1.00345 0.2648 0.13857 0.0
C58 C 0.01619 0.38546 0.14218 0.0
C59 C 0.02897 0.31208 0.07176 0.0
C60 C 0.98845 0.41344 0.28093 0.0
C61 C 0.96161 0.29233 0.2752 0.0
C62 C 0.96153 0.36694 0.34709 0.0
C63 C 0.03406 0.95816 0.73876 0.0
C64 C 0.99728 0.18409 0.06012 0.0
C65 C 0.47458 0.30368 0.40771 0.0
C66 C 0.56411 0.28248 0.29614 0.0
C67 C 0.22082 0.9685 0.02706 0.0
C68 C 0.02244 0.68702 0.86932 0.0
C69 C 1.00568 0.64354 0.94181 0.0
C70 C 0.01552 0.56949 0.87504 0.0
C71 C 0.03384 0.53755 0.735 0.0
C72 C 0.0552 0.65572 0.73092 0.0
C73 C 0.05491 0.5809 0.66362 0.0
C74 C 0.9885 -0.00806 0.25866 0.0
C75 C 0.02787 0.76772 0.94274 0.0
H76 H 0.05021 0.29053 0.96427 0.0
H77 H 0.97874 0.46969 0.33592 0.0
H78 H 0.91978 0.25577 0.32575 0.0
H79 H 0.93068 0.38708 0.45243 0.0
H80 H 0.99116 0.66811 0.05018 0.0
H81 H 0.04048 0.48057 0.6824 0.0
H82 H 0.08932 0.68939 0.67488 0.0
H83 H 0.07913 0.55787 0.55698 0.0
C84 C 0.12289 0.02888 0.46904 0.0
C85 C 0.99449 -0.00379 0.39757 0.0
C86 C 0.89943 0.92063 0.52815 0.0
C87 C 0.02788 0.95336 0.59952 0.0
N88 N 0.2775 0.01017 0.58544 0.0
N89 N 0.74489 0.93844 0.41008 0.0
C90 C 0.14413 -0.00067 0.55457 0.0
C91 C 0.87823 0.94991 0.44204 0.0
N92 N 0.21735 0.09432 0.47149 0.0
N93 N 0.80502 0.85531 0.52637 0.0
H94 H 0.72688 0.96793 0.36246 0.0
H95 H 0.65435 0.90982 0.44868 0.0
H96 H 0.82698 0.82558 0.56982 0.0
H97 H 0.71683 0.82547 0.46484 0.0
H98 H 0.3054 0.12396 0.53322 0.0
H99 H 0.19584 0.12424 0.42824 0.0
H100 H 0.36796 0.03865 0.54651 0.0
H101 H 0.29534 -0.01974 0.63225 0.0
C102 C 0.42916 0.93892 0.88166 0.0
C103 C 0.37561 -0.01811 0.00717 0.0
C104 C 0.59507 0.01143 0.11662 0.0
C105 C 0.64851 0.96841 0.99107 0.0
N106 N 0.61009 0.88154 0.76027 0.0
N107 N 0.41329 0.06807 0.23844 0.0
C108 C 0.5636 0.92996 0.87532 0.0
C109 C 0.46034 0.02012 0.12309 0.0
N110 N 0.35308 0.90817 0.76778 0.0
N111 N 0.67165 0.04255 0.23034 0.0
H112 H 0.31613 0.07534 0.24208 0.0
H113 H 0.47386 0.1059 0.32328 0.0
H114 H 0.77097 0.03797 0.22957 0.0
H115 H 0.63339 0.06759 0.32745 0.0
H116 H 0.39175 0.8833 0.67076 0.0
H117 H 0.25411 0.91313 0.76843 0.0
H118 H 0.549 0.84351 0.67583 0.0
H119 H 0.7071 0.87409 0.75663 0.0
C120 C 0.14663 0.51714 0.96468 0.0
C121 C 0.01688 0.52593 0.9505 0.0
C122 C 0.88686 0.43727 0.05048 0.0
C123 C 0.01714 0.43144 0.07078 0.0
N124 N 0.27174 0.4734 0.06686 0.0
N125 N 0.76589 0.50233 0.9931 0.0
C126 C 0.14736 0.47336 0.03299 0.0
C127 C 0.88768 0.4885 0.99781 0.0
N128 N 0.26897 0.54974 0.91078 0.0
N129 N 0.76197 0.39187 0.07782 0.0
H130 H 0.76083 0.53647 0.94904 0.0
H131 H 0.67144 0.48424 0.04049 0.0
H132 H 0.75712 0.35511 0.11953 0.0
H133 H 0.66332 0.38638 0.05094 0.0
H134 H 0.36326 0.53794 0.90224 0.0
H135 H 0.27476 0.58572 0.86695 0.0
H136 H 0.37032 0.50946 0.05664 0.0
H137 H 0.27615 0.44077 0.11447 0.0
loop_
_geom_bond_atom_site_label_1
_geom_bond_atom_site_label_2
_geom_bond_distance
_geom_bond_site_symmetry_2
_ccdc_geom_bond_type
Tb0 N31 2.660 1_554 S
Tb0 N38 2.600 . S
Tb0 O44 2.546 . S
Tb0 O45 2.610 1_444 S
Tb0 O47 2.320 1_554 S
Tb0 O48 2.552 1_455 S
Tb0 O49 2.413 . S
Tb0 O51 2.362 . S
Tb0 O52 2.421 1_455 S
Tb0 C64 2.833 . S
C1 C4 1.432 . S
C1 C5 1.414 . S
C1 N8 1.359 . S
C2 C4 1.417 . S
C2 C6 1.432 . S
C2 C14 1.410 1_556 S
C3 C5 1.444 . S
C3 C6 1.317 . S
C3 H26 0.929 . S
C4 C1 1.432 . S
C4 C2 1.417 . S
C4 N12 1.360 1_556 S
C5 C1 1.414 . S
C5 C3 1.444 . S
C5 C10 1.385 . S
C6 C2 1.432 . S
C6 C3 1.317 . S
C6 H18 0.930 . S
C7 C9 1.392 . S
C7 C10 1.370 . S
C7 H19 0.931 . S
N8 C1 1.359 . S
N8 C9 1.327 . S
N8 Tb11 2.600 . S
C9 C7 1.392 . S
C9 N8 1.327 . S
C9 H16 0.930 . S
C10 C5 1.385 . S
C10 C7 1.370 . S
C10 H29 0.930 . S
Tb11 N8 2.600 . S
Tb11 N12 2.660 1_556 S
Tb11 O45 2.362 . S
Tb11 O46 2.421 1_655 S
Tb11 O50 2.546 . S
Tb11 O51 2.610 1_666 S
Tb11 O53 2.320 1_556 S
Tb11 O54 2.552 1_655 S
Tb11 O55 2.413 . S
Tb11 C75 2.833 . S
N12 C4 1.360 1_554 S
N12 Tb11 2.660 1_554 S
N12 C13 1.305 . S
C13 N12 1.305 . S
C13 C15 1.407 . S
C13 H20 0.930 . S
C14 C2 1.410 1_554 S
C14 C15 1.345 . S
C14 H22 0.930 . S
C15 C13 1.407 . S
C15 C14 1.345 . S
C15 H17 0.930 . S
H16 C9 0.930 . S
H17 C15 0.930 . S
H18 C6 0.930 . S
H19 C7 0.931 . S
H20 C13 0.930 . S
H21 C35 0.930 . S
H22 C14 0.930 . S
H23 C41 0.930 . S
H24 C32 0.930 . S
H25 C39 0.931 . S
H26 C3 0.929 . S
H27 C33 0.930 . S
H28 C66 0.930 . S
H29 C10 0.930 . S
H30 C65 0.929 . S
N31 Tb0 2.660 1_556 S
N31 C32 1.305 . S
N31 C36 1.360 1_556 S
C32 H24 0.930 . S
C32 N31 1.305 . S
C32 C35 1.407 . S
C33 H27 0.930 . S
C33 C34 1.410 1_556 S
C33 C35 1.345 . S
C34 C33 1.410 1_554 S
C34 C36 1.417 . S
C34 C66 1.432 . S
C35 H21 0.930 . S
C35 C32 1.407 . S
C35 C33 1.345 . S
C36 N31 1.360 1_554 S
C36 C34 1.417 . S
C36 C40 1.432 . S
H37 C42 0.930 . S
N38 Tb0 2.600 . S
N38 C40 1.359 . S
N38 C41 1.327 . S
C39 H25 0.931 . S
C39 C41 1.392 . S
C39 C42 1.370 . S
C40 C36 1.432 . S
C40 N38 1.359 . S
C40 C43 1.414 . S
C41 H23 0.930 . S
C41 N38 1.327 . S
C41 C39 1.392 . S
C42 H37 0.930 . S
C42 C39 1.370 . S
C42 C43 1.385 . S
C43 C40 1.414 . S
C43 C42 1.385 . S
C43 C65 1.444 . S
O44 Tb0 2.546 . S
O44 C64 1.251 . S
O45 Tb0 2.610 1_666 S
O45 Tb11 2.362 . S
O45 C56 1.283 1_566 S
O46 Tb11 2.421 1_455 S
O46 C63 1.262 . S
O47 Tb0 2.320 1_556 S
O47 C63 1.260 1_545 S
O48 Tb0 2.552 1_655 S
O48 C56 1.243 . S
O49 Tb0 2.413 . S
O49 C64 1.256 . S
O50 Tb11 2.546 . S
O50 C75 1.251 . S
O51 Tb0 2.362 . S
O51 Tb11 2.610 1_444 S
O51 C67 1.283 1_544 S
O52 Tb0 2.421 1_655 S
O52 C74 1.262 . S
O53 Tb11 2.320 1_554 S
O53 C74 1.260 1_565 S
O54 Tb11 2.552 1_455 S
O54 C67 1.243 . S
O55 Tb11 2.413 . S
O55 C75 1.256 . S
C56 O45 1.283 1_544 S
C56 O48 1.243 . S
C57 C59 1.382 . S
C57 C61 1.393 . S
C57 C64 1.500 . S
C58 C59 1.400 . S
C58 C60 1.384 . S
C59 C57 1.382 . S
C59 C58 1.400 . S
C59 H76 0.930 1_554 S
C60 C58 1.384 . S
C60 C62 1.392 . S
C60 H77 0.931 . S
C61 C57 1.393 . S
C61 C62 1.401 . S
C61 H78 0.930 . S
C62 C60 1.392 . S
C62 C61 1.401 . S
C62 H79 0.930 . S
C63 O46 1.262 . S
C63 O47 1.260 1_565 S
C64 Tb0 2.833 . S
C64 O44 1.251 . S
C64 O49 1.256 . S
C64 C57 1.500 . S
C65 H30 0.929 . S
C65 C43 1.444 . S
C65 C66 1.317 . S
C66 H28 0.930 . S
C66 C34 1.432 . S
C66 C65 1.317 . S
C67 O51 1.283 1_566 S
C67 O54 1.243 . S
C68 C69 1.382 . S
C68 C72 1.393 . S
C68 C75 1.500 . S
C69 C68 1.382 . S
C69 C70 1.400 . S
C69 H80 0.930 1_556 S
C70 C69 1.400 . S
C70 C71 1.384 . S
C71 C70 1.384 . S
C71 C73 1.392 . S
C71 H81 0.931 . S
C72 C68 1.393 . S
C72 C73 1.401 . S
C72 H82 0.930 . S
C73 C71 1.392 . S
C73 C72 1.401 . S
C73 H83 0.930 . S
C74 O52 1.262 . S
C74 O53 1.260 1_545 S
C75 Tb11 2.833 . S
C75 O50 1.251 . S
C75 O55 1.256 . S
C75 C68 1.500 . S
H76 C59 0.930 1_556 S
H77 C60 0.931 . S
H78 C61 0.930 . S
H79 C62 0.930 . S
H80 C69 0.930 1_554 S
H81 C71 0.931 . S
H82 C72 0.930 . S
H83 C73 0.930 . S
C84 C85 1.363 . S
C84 C90 1.379 . S
C84 N92 1.356 . S
C85 C84 1.363 . S
C85 C91 1.363 1_445 S
C86 C87 1.363 1_665 S
C86 C91 1.379 . S
C86 N93 1.356 . S
C87 C86 1.363 1_445 S
C87 C90 1.363 . S
N88 C90 1.356 . S
N88 H100 0.984 . S
N88 H101 0.985 . S
N89 C91 1.356 . S
N89 H94 0.984 . S
N89 H95 0.985 . S
C90 C84 1.379 . S
C90 C87 1.363 . S
C90 N88 1.356 . S
C91 C85 1.363 1_665 S
C91 C86 1.379 . S
C91 N89 1.356 . S
N92 C84 1.356 . S
N92 H98 0.984 . S
N92 H99 0.984 . S
N93 C86 1.356 . S
N93 H96 0.984 . S
N93 H97 0.985 . S
H94 N89 0.984 . S
H95 N89 0.985 . S
H96 N93 0.984 . S
H97 N93 0.985 . S
H98 N92 0.984 . S
H99 N92 0.984 . S
H100 N88 0.984 . S
H101 N88 0.985 . S
C102 C103 1.363 1_566 S
C102 C108 1.379 . S
C102 N110 1.356 . S
C103 C102 1.363 1_544 S
C103 C109 1.363 . S
C104 C105 1.363 . S
C104 C109 1.379 . S
C104 N111 1.356 . S
C105 C104 1.363 . S
C105 C108 1.363 1_544 S
N106 C108 1.356 . S
N106 H118 0.984 . S
N106 H119 0.985 . S
N107 C109 1.356 . S
N107 H112 0.984 . S
N107 H113 0.985 . S
C108 C102 1.379 . S
C108 C105 1.363 1_566 S
C108 N106 1.356 . S
C109 C103 1.363 . S
C109 C104 1.379 . S
C109 N107 1.356 . S
N110 C102 1.356 . S
N110 H116 0.984 . S
N110 H117 0.984 . S
N111 C104 1.356 . S
N111 H114 0.984 . S
N111 H115 0.985 . S
H112 N107 0.984 . S
H113 N107 0.985 . S
H114 N111 0.984 . S
H115 N111 0.985 . S
H116 N110 0.984 . S
H117 N110 0.984 . S
H118 N106 0.984 . S
H119 N106 0.985 . S
C120 C121 1.363 . S
C120 C126 1.379 . S
C120 N128 1.356 . S
C121 C120 1.363 . S
C121 C127 1.363 1_454 S
C122 C123 1.363 1_656 S
C122 C127 1.379 . S
C122 N129 1.356 . S
C123 C122 1.363 1_454 S
C123 C126 1.363 . S
N124 C126 1.356 . S
N124 H136 0.984 . S
N124 H137 0.985 . S
N125 C127 1.356 . S
N125 H130 0.984 . S
N125 H131 0.985 . S
C126 C120 1.379 . S
C126 C123 1.363 . S
C126 N124 1.356 . S
C127 C121 1.363 1_656 S
C127 C122 1.379 . S
C127 N125 1.356 . S
N128 C120 1.356 . S
N128 H134 0.984 . S
N128 H135 0.984 . S
N129 C122 1.356 . S
N129 H132 0.984 . S
N129 H133 0.985 . S
H130 N125 0.984 . S
H131 N125 0.985 . S
H132 N129 0.984 . S
H133 N129 0.985 . S
H134 N128 0.984 . S
H135 N128 0.984 . S
H136 N124 0.984 . S
H137 N124 0.985 . S
C85 C74 1.472 1_455 S
C87 C63 1.472 1_545 S
C103 C67 1.435 1_544 S
C105 C56 1.435 . S
C121 C70 1.321 1_454 S
C123 C58 1.321 . S
