# Generated by pormake.
# Topology pcu, (6)-cn, num edge types: 1
# Building blocks:
#     Node 0, Type 0, BuildingBlock: PAMTOO_clean_sbu_0, # of connection points: 6
#     Edge 1, Type (0, 0), BuildingBlock: CIFDUS_clean_linker_0, # of connection points: 2
#     Edge 2, Type (0, 0), BuildingBlock: CIFDUS_clean_linker_0, # of connection points: 2
#     Edge 3, Type (0, 0), BuildingBlock: CIFDUS_clean_linker_0, # of connection points: 2
# Relax obj value: 0.000
# Max RMSD: 0.000
# Mean RMSD: 0.000
data_MOF--net-pcu--node1-PAMTOO_clean_sbu_0--edge1-CIFDUS_clean_linker_0
_symmetry_space_group_name_H-M    P1
_symmetry_Int_Tables_number       1
_symmetry_cell_setting            triclinic
loop_
_symmetry_equiv_pos_as_xyz
'x, y, z'
_cell_length_a     23.857887
_cell_length_b     13.42775
_cell_length_c     13.3545
_cell_angle_alpha  83.799939
_cell_angle_beta   96.626538
_cell_angle_gamma 118.68215
loop_
_atom_site_label
_atom_site_type_symbol
_atom_site_fract_x
_atom_site_fract_y
_atom_site_fract_z
_atom_type_partial_charge
Dy0 Dy 0.10817 0.04895 0.00637 0.0
Dy1 Dy 0.94927 0.94117 0.9589 0.0
C2 C 0.04386 0.00403 0.7831 0.0
O3 O 0.08977 0.19705 0.96353 0.0
O4 O 0.98407 0.1191 -0.00116 0.0
O5 O 0.20515 0.15536 0.96376 0.0
O6 O 0.18768 0.06616 0.11165 0.0
O7 O 0.96622 0.91691 0.12567 0.0
O8 O 0.06982 0.05954 0.14675 0.0
O9 O 0.96941 0.79905 0.93924 0.0
O10 O 0.06796 0.86035 0.0281 0.0
O11 O 0.85154 0.83278 -0.00189 0.0
O12 O 0.87054 0.9302 0.85464 0.0
C13 C 0.03969 0.20747 0.98095 0.0
O14 O 0.08794 -0.00244 0.84769 0.0
O15 O 0.99477 0.00911 0.81264 0.0
C16 C 0.28142 0.09836 0.04058 0.0
C17 C 0.381 0.04298 0.03306 0.0
C18 C 0.33745 0.03042 0.94861 0.0
C19 C 0.28787 0.05743 0.95243 0.0
C20 C 0.32478 0.11086 0.12469 0.0
C21 C 0.37395 0.08325 0.12116 0.0
C22 C 0.23036 0.12887 0.04762 0.0
C23 C 1.01541 0.98524 0.18342 0.0
C24 C 1.0159 0.78055 -0.01617 0.0
C25 C 0.77592 0.89308 0.9252 0.0
C26 C 0.67686 0.94908 0.93537 0.0
C27 C 0.7208 0.96111 0.01916 0.0
C28 C 0.77017 0.93381 0.01401 0.0
C29 C 0.73203 0.88069 0.84194 0.0
C30 C 0.68311 0.90856 0.84679 0.0
C31 C 0.82713 0.86367 0.916 0.0
H32 H 0.34127 -0.00153 0.88001 0.0
H33 H 0.25471 0.04624 0.88668 0.0
H34 H 0.32069 0.14245 0.19335 0.0
H35 H 0.4071 0.09514 0.18702 0.0
H36 H 0.71755 0.99312 0.08812 0.0
H37 H 0.80381 0.94489 0.07907 0.0
H38 H 0.73563 0.84932 0.77279 0.0
H39 H 0.64962 0.89697 0.78144 0.0
H40 H 0.11149 0.0497 0.33171 0.0
H41 H 0.90622 0.90737 0.2811 0.0
H42 H 0.89717 0.90238 0.46239 0.0
H43 H 0.94775 0.93993 0.63484 0.0
H44 H 0.15236 0.07223 0.68632 0.0
H45 H 0.16155 0.07963 0.50482 0.0
C46 C 0.06478 0.01788 0.36036 0.0
C47 C 1.00963 0.97975 0.29311 0.0
C48 C 0.05987 0.01346 0.46465 0.0
C49 C 0.94936 0.93706 0.3314 0.0
C50 C 0.94418 0.93446 0.43495 0.0
C51 C 0.99438 0.97071 0.60625 0.0
C52 C 0.04938 0.0064 0.6737 0.0
C53 C 0.99913 0.97275 0.50218 0.0
C54 C 0.10933 0.04426 0.63587 0.0
C55 C 0.11462 0.04872 0.53215 0.0
H56 H 0.46019 0.09812 0.8818 0.0
H57 H 0.421 0.92575 0.17734 0.0
H58 H 0.50995 0.88433 0.17467 0.0
H59 H 0.59836 0.89532 0.08759 0.0
H60 H 0.63742 0.06773 0.79202 0.0
H61 H 0.54875 0.10971 0.79504 0.0
C62 C 0.47076 0.05056 0.94518 0.0
C63 C 0.43401 0.01517 0.02961 0.0
C64 C 0.52202 0.02706 0.94319 0.0
C65 C 0.44896 0.95506 0.11184 0.0
C66 C 0.49969 0.93099 0.11026 0.0
C67 C 0.58783 0.94305 0.02432 0.0
C68 C 0.62439 0.97807 0.93965 0.0
C69 C 0.53668 0.96685 0.02647 0.0
C70 C 0.60957 0.03857 0.85764 0.0
C71 C 0.55899 0.06296 0.85941 0.0
H72 H 0.11173 0.72326 0.00349 0.0
H73 H 0.90613 0.58031 0.95943 0.0
H74 H 0.89543 0.39056 0.95545 0.0
H75 H 0.94428 0.26529 0.96417 0.0
H76 H 0.15012 0.40869 0.00071 0.0
H77 H 0.16086 0.59823 0.00749 0.0
C78 C 0.06457 0.65046 -0.00645 0.0
C79 C 1.00979 0.66578 0.98239 0.0
C80 C 0.0588 0.54178 -0.01043 0.0
C81 C 0.94908 0.57087 0.96804 0.0
C82 C 0.94289 0.46229 0.96587 0.0
C83 C 0.99152 0.33794 0.97379 0.0
C84 C 0.04628 0.3227 0.98232 0.0
C85 C 0.9974 0.44678 0.97646 0.0
C86 C 0.10716 0.41801 -0.00639 0.0
C87 C 0.11336 0.52643 -0.00217 0.0
loop_
_geom_bond_atom_site_label_1
_geom_bond_atom_site_label_2
_geom_bond_distance
_geom_bond_site_symmetry_2
_ccdc_geom_bond_type
Dy0 O3 2.307 . S
Dy0 O5 2.395 1_554 S
Dy0 O6 2.379 . S
Dy0 O8 2.339 . S
Dy0 O10 2.298 1_545 S
Dy0 O14 2.275 1_554 S
Dy0 C22 2.738 . S
Dy1 O4 2.298 1_565 S
Dy1 O7 2.275 1_556 S
Dy1 O9 2.307 . S
Dy1 O11 2.395 1_556 S
Dy1 O12 2.379 . S
Dy1 O15 2.339 . S
Dy1 C31 2.738 . S
C2 O14 1.254 1_665 S
C2 O15 1.257 . S
O3 Dy0 2.307 . S
O3 C13 1.275 1_554 S
O4 Dy1 2.298 1_545 S
O4 C13 1.232 1_655 S
O5 Dy0 2.395 1_556 S
O5 C22 1.255 1_556 S
O6 Dy0 2.379 . S
O6 C22 1.249 . S
O7 Dy1 2.275 1_554 S
O7 C23 1.254 1_665 S
O8 Dy0 2.339 . S
O8 C23 1.257 . S
O9 Dy1 2.307 . S
O9 C24 1.270 1_556 S
O10 Dy0 2.298 1_565 S
O10 C24 1.234 1_455 S
O11 Dy1 2.395 1_554 S
O11 C31 1.255 1_554 S
O12 Dy1 2.379 . S
O12 C31 1.249 . S
C13 O3 1.275 1_556 S
C13 O4 1.232 1_455 S
O14 Dy0 2.275 1_556 S
O14 C2 1.254 1_445 S
O15 Dy1 2.339 . S
O15 C2 1.257 . S
C16 C19 1.344 1_544 S
C16 C20 1.328 . S
C16 C22 1.516 . S
C17 C18 1.304 . S
C17 C21 1.323 1_566 S
C18 C17 1.304 . S
C18 C19 1.371 . S
C18 H32 0.930 . S
C19 C16 1.344 1_566 S
C19 C18 1.371 . S
C19 H33 0.931 . S
C20 C16 1.328 . S
C20 C21 1.433 . S
C20 H34 0.931 . S
C21 C17 1.323 1_544 S
C21 C20 1.433 . S
C21 H35 0.933 . S
C22 Dy0 2.738 . S
C22 O5 1.255 1_554 S
C22 O6 1.249 . S
C22 C16 1.516 . S
C23 O7 1.254 1_445 S
C23 O8 1.257 . S
C24 O9 1.270 1_554 S
C24 O10 1.234 1_655 S
C25 C28 1.344 1_566 S
C25 C29 1.328 . S
C25 C31 1.516 . S
C26 C27 1.304 . S
C26 C30 1.323 1_544 S
C27 C26 1.304 . S
C27 C28 1.371 . S
C27 H36 0.930 . S
C28 C25 1.344 1_544 S
C28 C27 1.371 . S
C28 H37 0.931 . S
C29 C25 1.328 . S
C29 C30 1.433 . S
C29 H38 0.931 . S
C30 C26 1.323 1_566 S
C30 C29 1.433 . S
C30 H39 0.933 . S
C31 Dy1 2.738 . S
C31 O11 1.255 1_556 S
C31 O12 1.249 . S
C31 C25 1.516 . S
H32 C18 0.930 . S
H33 C19 0.931 . S
H34 C20 0.931 . S
H35 C21 0.933 . S
H36 C27 0.930 . S
H37 C28 0.931 . S
H38 C29 0.931 . S
H39 C30 0.933 . S
H40 C46 0.930 . S
H41 C49 0.930 . S
H42 C50 0.930 . S
H43 C51 0.930 . S
H44 C54 0.930 . S
H45 C55 0.930 . S
C46 H40 0.930 . S
C46 C47 1.355 1_445 S
C46 C48 1.415 . S
C47 C46 1.355 1_665 S
C47 C49 1.419 . S
C48 C46 1.415 . S
C48 C53 1.425 1_445 S
C48 C55 1.409 . S
C49 H41 0.930 . S
C49 C47 1.419 . S
C49 C50 1.362 . S
C50 H42 0.930 . S
C50 C49 1.362 . S
C50 C53 1.409 . S
C51 H43 0.930 . S
C51 C52 1.355 1_665 S
C51 C53 1.415 . S
C52 C51 1.355 1_445 S
C52 C54 1.419 . S
C53 C48 1.425 1_665 S
C53 C50 1.409 . S
C53 C51 1.415 . S
C54 H44 0.930 . S
C54 C52 1.419 . S
C54 C55 1.362 . S
C55 H45 0.930 . S
C55 C48 1.409 . S
C55 C54 1.362 . S
H56 C62 0.930 . S
H57 C65 0.930 . S
H58 C66 0.930 . S
H59 C67 0.930 . S
H60 C70 0.930 . S
H61 C71 0.930 . S
C62 H56 0.930 . S
C62 C63 1.355 1_546 S
C62 C64 1.415 . S
C63 C62 1.355 1_564 S
C63 C65 1.419 . S
C64 C62 1.415 . S
C64 C69 1.425 1_546 S
C64 C71 1.409 . S
C65 H57 0.930 . S
C65 C63 1.419 . S
C65 C66 1.362 . S
C66 H58 0.930 . S
C66 C65 1.362 . S
C66 C69 1.409 . S
C67 H59 0.930 . S
C67 C68 1.355 1_564 S
C67 C69 1.415 . S
C68 C67 1.355 1_546 S
C68 C70 1.419 . S
C69 C64 1.425 1_564 S
C69 C66 1.409 . S
C69 C67 1.415 . S
C70 H60 0.930 . S
C70 C68 1.419 . S
C70 C71 1.362 . S
C71 H61 0.930 . S
C71 C64 1.409 . S
C71 C70 1.362 . S
H72 C78 0.930 . S
H73 C81 0.930 . S
H74 C82 0.930 . S
H75 C83 0.930 . S
H76 C86 0.930 . S
H77 C87 0.930 . S
C78 H72 0.930 . S
C78 C79 1.355 1_454 S
C78 C80 1.415 . S
C79 C78 1.355 1_656 S
C79 C81 1.419 . S
C80 C78 1.415 . S
C80 C85 1.425 1_454 S
C80 C87 1.409 . S
C81 H73 0.930 . S
C81 C79 1.419 . S
C81 C82 1.362 . S
C82 H74 0.930 . S
C82 C81 1.362 . S
C82 C85 1.409 . S
C83 H75 0.930 . S
C83 C84 1.355 1_656 S
C83 C85 1.415 . S
C84 C83 1.355 1_454 S
C84 C86 1.419 . S
C85 C80 1.425 1_656 S
C85 C82 1.409 . S
C85 C83 1.415 . S
C86 H76 0.930 . S
C86 C84 1.419 . S
C86 C87 1.362 . S
C87 H77 0.930 . S
C87 C80 1.409 . S
C87 C86 1.362 . S
C47 C23 1.462 1_665 S
C52 C2 1.462 1_445 S
C63 C17 1.493 1_554 S
C68 C26 1.493 1_556 S
C79 C24 1.496 1_556 S
C84 C13 1.493 1_554 S
