# Generated by pormake.
# Topology kag, (6)-cn, num edge types: 1
# Building blocks:
#     Node 0, Type 0, BuildingBlock: MIDCAF_clean_sbu_0, # of connection points: 6
#     Node 1, Type 0, BuildingBlock: MIDCAF_clean_sbu_0, # of connection points: 6
#     Node 2, Type 0, BuildingBlock: MIDCAF_clean_sbu_0, # of connection points: 6
#     Edge 3, Type (0, 0), BuildingBlock: OJICUG_clean_linker_0, # of connection points: 2
#     Edge 4, Type (0, 0), BuildingBlock: OJICUG_clean_linker_0, # of connection points: 2
#     Edge 5, Type (0, 0), BuildingBlock: OJICUG_clean_linker_0, # of connection points: 2
#     Edge 6, Type (0, 0), BuildingBlock: OJICUG_clean_linker_0, # of connection points: 2
#     Edge 7, Type (0, 0), BuildingBlock: OJICUG_clean_linker_0, # of connection points: 2
#     Edge 8, Type (0, 0), BuildingBlock: OJICUG_clean_linker_0, # of connection points: 2
#     Edge 9, Type (0, 0), BuildingBlock: OJICUG_clean_linker_0, # of connection points: 2
#     Edge 10, Type (0, 0), BuildingBlock: OJICUG_clean_linker_0, # of connection points: 2
#     Edge 11, Type (0, 0), BuildingBlock: OJICUG_clean_linker_0, # of connection points: 2
# Relax obj value: 0.345
# Max RMSD: 0.270
# Mean RMSD: 0.266
data_MOF--net-kag--node1-MIDCAF_clean_sbu_0--edge1-OJICUG_clean_linker_0
_symmetry_space_group_name_H-M    P1
_symmetry_Int_Tables_number       1
_symmetry_cell_setting            triclinic
loop_
_symmetry_equiv_pos_as_xyz
'x, y, z'
_cell_length_a     21.204818
_cell_length_b     20.93307
_cell_length_c     11.448607
_cell_angle_alpha  90.569442
_cell_angle_beta   91.38309
_cell_angle_gamma 119.96964
loop_
_atom_site_label
_atom_site_type_symbol
_atom_site_fract_x
_atom_site_fract_y
_atom_site_fract_z
_atom_type_partial_charge
Zn0 Zn 0.09469 0.57184 0.86639 0.0
Zn1 Zn -0.00062 0.72581 0.01469 0.0
Zn2 Zn 0.03762 0.63416 0.95501 0.0
C3 C 0.1209 0.80609 0.89115 0.0
C4 C 0.05157 0.68966 0.21548 0.0
O5 O 0.94328 0.52506 0.91977 0.0
O6 O 0.00912 0.47143 0.89304 0.0
C7 C 0.10534 0.65773 0.69493 0.0
O8 O 0.10631 0.73946 0.86852 0.0
O9 O 0.08042 0.81765 0.95635 0.0
O10 O 0.00835 0.7125 0.18691 0.0
O11 O 0.07318 0.66123 0.13718 0.0
O12 O 0.11103 0.60097 0.70438 0.0
O13 O 0.08725 0.6827 0.78405 0.0
O14 O 0.09868 0.60892 0.08972 0.0
O15 O 0.18094 0.61179 0.9735 0.0
C16 C 0.15826 0.60806 0.07524 0.0
O17 O 0.9179 0.57724 0.92596 0.0
O18 O 0.90477 0.67533 0.92542 0.0
C19 C 0.94782 0.46632 0.90743 0.0
C20 C 0.87828 0.60701 0.90603 0.0
Zn21 Zn 0.52737 0.18071 0.77767 0.0
Zn22 Zn 0.65967 0.02958 0.02179 0.0
Zn23 Zn 0.54899 0.04279 0.97866 0.0
C24 C 0.56204 0.89989 0.90653 0.0
C25 C 0.57966 0.00954 0.22795 0.0
O26 O 0.56606 0.15024 0.96634 0.0
O27 O 0.57831 0.25471 0.91635 0.0
C28 C 0.54992 0.0372 0.71492 0.0
O29 O 0.52935 0.93749 0.89259 0.0
O30 O 0.62447 0.92973 0.95584 0.0
O31 O 0.64361 0.03027 0.19533 0.0
O32 O 0.53098 0.00308 0.15303 0.0
O33 O 0.54317 0.09438 0.71993 0.0
O34 O 0.54642 1.0006 0.80669 0.0
O35 O 0.46041 0.05257 0.90991 0.0
O36 O 0.41895 0.11479 0.81226 0.0
C37 C 0.40674 0.05789 0.86882 0.0
O38 O 0.64886 0.14859 0.97072 0.0
O39 O 0.73414 0.11997 0.94366 0.0
C40 C 0.56853 0.21034 -0.0029 0.0
C41 C 0.71439 0.16771 0.94669 0.0
Zn42 Zn 0.32217 0.3499 0.0413 0.0
Zn43 Zn 0.56223 0.55766 0.17823 0.0
Zn44 Zn 0.4487 0.4665 0.09963 0.0
C45 C 0.59527 0.49081 0.01343 0.0
C46 C 0.49296 0.48697 0.36759 0.0
O47 O 0.37306 0.50583 0.11748 0.0
O48 O 0.27547 0.39671 0.14027 0.0
C49 C 0.41308 0.41109 0.84467 0.0
O50 O 0.53388 0.48313 0.97801 0.0
O51 O 0.61504 0.50731 0.11963 0.0
O52 O 0.53804 0.55345 0.34692 0.0
O53 O 0.46202 0.44068 0.28139 0.0
O54 O 0.34623 0.37684 0.86937 0.0
O55 O 0.46224 0.43953 0.92646 0.0
O56 O 0.43867 0.37996 0.21448 0.0
O57 O 0.3589 0.28421 0.10786 0.0
C58 C 0.41047 0.31153 0.18398 0.0
O59 O 0.43793 0.56518 0.07969 0.0
O60 O 0.55691 0.62953 0.06855 0.0
C61 C 0.30721 0.46648 0.15066 0.0
C62 C 0.49525 0.62259 0.04468 0.0
C63 C 0.14423 0.67197 0.48955 0.0
C64 C 0.10708 0.68588 0.57713 0.0
H65 H 0.15697 0.66384 0.3069 0.0
C66 C 0.0591 0.71108 0.54547 0.0
H67 H 0.1821 0.65311 0.51179 0.0
C68 C 0.04305 0.71505 0.42748 0.0
C69 C 0.07533 0.69456 0.33954 0.0
H70 H 0.02944 0.72181 0.61129 0.0
H71 H 0.0026 0.73054 0.40553 0.0
C72 C 0.12884 0.67678 0.37197 0.0
C73 C 0.61697 1.0018 0.4351 0.0
C74 C 0.56438 0.99934 0.35429 0.0
H75 H 0.65261 0.01372 0.61563 0.0
C76 C 0.50071 0.99461 0.39675 0.0
H77 H 0.66633 0.00459 0.4052 0.0
C78 C 0.4931 0.99954 0.51681 0.0
C79 C 0.54842 0.00825 0.59674 0.0
H80 H 0.45896 0.99212 0.33732 0.0
H81 H 0.44604 1.00153 0.54701 0.0
C82 C 0.60895 0.00611 0.55562 0.0
C83 C 0.50047 0.49025 0.69688 0.0
C84 C 0.43519 0.42607 0.72226 0.0
H85 H 0.56983 0.55964 0.56535 0.0
C86 C 0.39049 0.37973 0.62988 0.0
H87 H 0.53534 0.52801 0.76578 0.0
C88 C 0.41057 0.3979 0.51402 0.0
C89 C 0.47493 0.46338 0.48907 0.0
H90 H 0.33984 0.33001 0.64713 0.0
H91 H 0.37457 0.36198 0.44415 0.0
C92 C 0.51998 0.50884 0.58171 0.0
C93 C 0.26204 0.61686 0.18937 0.0
C94 C 0.18712 0.57745 0.16178 0.0
H95 H 0.35922 0.61074 0.21632 0.0
C96 C 0.14963 0.50029 0.1689 0.0
H97 H 0.29201 0.67649 0.18528 0.0
C98 C 0.18856 0.46277 0.17814 0.0
C99 C 0.26512 0.50253 0.18391 0.0
H100 H 0.0917 0.4687 0.1478 0.0
H101 H 0.15915 0.40325 0.16749 0.0
C102 C 0.30066 0.57927 0.20302 0.0
C103 C 0.77516 0.30064 0.00774 0.0
C104 C 0.76877 0.24553 0.92942 0.0
H105 H 0.84037 0.41349 0.06684 0.0
C106 C 0.81956 0.2642 0.84141 0.0
H107 H 0.73764 0.28697 0.07822 0.0
C108 C 0.87594 0.33689 0.8317 0.0
C109 C 0.88326 0.39197 0.91102 0.0
H110 H 0.81609 0.22232 0.78094 0.0
H111 H 0.91485 0.34984 0.76357 0.0
C112 C 0.83329 0.37294 0.00053 0.0
C113 C 0.56446 0.78698 0.85371 0.0
C114 C 0.52383 0.81908 0.89056 0.0
H115 H 0.58608 0.69842 0.87378 0.0
C116 C 0.46065 0.77626 0.95379 0.0
H117 H 0.61331 0.81869 0.80485 0.0
C118 C 0.44546 0.7072 0.99536 0.0
C119 C 0.49345 0.68081 0.97415 0.0
H120 H 0.42858 0.79998 0.9841 0.0
H121 H 0.40091 0.67873 0.05297 0.0
C122 C 0.54947 0.71858 0.8952 0.0
C123 C 0.75981 0.49023 0.92204 0.0
C124 C 0.79873 0.56242 0.8824 0.0
H125 H 0.66024 0.40805 0.99368 0.0
C126 C 0.75983 0.59761 0.84724 0.0
H127 H 0.78783 0.46164 0.94701 0.0
C128 C 0.68614 0.56644 0.87164 0.0
C129 C 0.65113 0.50019 0.93181 0.0
H130 H 0.78803 0.65291 0.81362 0.0
H131 H 0.66005 0.5992 0.85889 0.0
C132 C 0.6865 0.45946 0.94811 0.0
C133 C 0.20152 0.94046 0.8586 0.0
C134 C 0.19204 0.8691 0.8629 0.0
H135 H 0.27749 0.05672 0.85722 0.0
C136 C 0.25354 0.86041 0.86444 0.0
H137 H 0.15489 0.94857 0.85861 0.0
C138 C 0.32332 0.9221 0.86836 0.0
C139 C 0.33282 0.99349 0.86784 0.0
H140 H 0.2479 0.80615 0.86982 0.0
H141 H 0.36988 0.91385 0.87216 0.0
C142 C 0.27143 0.0022 0.85942 0.0
C143 C 0.53012 0.31745 0.20866 0.0
C144 C 0.45363 0.27414 0.20199 0.0
H145 H 0.63014 0.32838 0.14963 0.0
C146 C 0.42225 0.19874 0.17253 0.0
H147 H 0.55653 0.37526 0.23429 0.0
C148 C 0.4653 0.17146 0.12754 0.0
C149 C 0.53919 0.22004 0.10732 0.0
H150 H 0.3636 0.16329 0.16951 0.0
H151 H 0.43834 0.1157 0.09218 0.0
C152 C 0.57263 0.29067 0.1601 0.0
loop_
_geom_bond_atom_site_label_1
_geom_bond_atom_site_label_2
_geom_bond_distance
_geom_bond_site_symmetry_2
_ccdc_geom_bond_type
Zn0 O6 1.920 1_455 S
Zn0 O12 1.898 . S
Zn0 O15 1.905 . S
Zn1 O9 1.905 . S
Zn1 O10 1.898 . S
Zn1 O18 1.920 1_455 S
Zn2 O5 2.080 1_455 S
Zn2 O8 2.114 . S
Zn2 O11 2.120 . S
Zn2 O13 2.120 1_554 S
Zn2 O14 2.114 . S
Zn2 O17 2.080 1_454 S
C3 O8 1.166 . S
C3 O9 1.182 . S
C4 O10 1.167 . S
C4 O11 1.299 . S
O5 Zn2 2.080 1_655 S
O5 C19 1.305 1_554 S
O6 Zn0 1.920 1_655 S
O6 C19 1.234 . S
C7 O12 1.167 . S
C7 O13 1.299 . S
O8 Zn2 2.114 . S
O8 C3 1.166 . S
O9 Zn1 1.905 . S
O9 C3 1.182 . S
O10 Zn1 1.898 . S
O10 C4 1.167 . S
O11 Zn2 2.120 . S
O11 C4 1.299 . S
O12 Zn0 1.898 . S
O12 C7 1.167 . S
O13 Zn2 2.120 1_556 S
O13 C7 1.299 . S
O14 Zn2 2.114 . S
O14 C16 1.166 . S
O15 Zn0 1.905 . S
O15 C16 1.182 1_556 S
C16 O14 1.166 . S
C16 O15 1.182 1_554 S
O17 Zn2 2.080 1_656 S
O17 C20 1.305 1_556 S
O18 Zn1 1.920 1_655 S
O18 C20 1.234 . S
C19 O5 1.305 1_556 S
C19 O6 1.234 . S
C20 O17 1.305 1_554 S
C20 O18 1.234 . S
Zn21 O27 1.920 . S
Zn21 O33 1.898 1_545 S
Zn21 O36 1.905 1_545 S
Zn22 O30 1.905 1_545 S
Zn22 O31 1.898 1_545 S
Zn22 O39 1.920 . S
Zn23 O26 2.080 . S
Zn23 O29 2.114 1_545 S
Zn23 O32 2.120 . S
Zn23 O34 2.120 1_554 S
Zn23 O35 2.114 1_544 S
Zn23 O38 2.080 1_554 S
C24 O29 1.166 . S
C24 O30 1.182 . S
C25 O31 1.167 1_545 S
C25 O32 1.299 . S
O26 Zn23 2.080 . S
O26 C40 1.305 1_554 S
O27 Zn21 1.920 . S
O27 C40 1.234 . S
C28 O33 1.173 1_545 S
C28 O34 1.302 . S
O29 Zn23 2.114 1_565 S
O29 C24 1.166 . S
O30 Zn22 1.905 1_565 S
O30 C24 1.182 . S
O31 Zn22 1.898 1_565 S
O31 C25 1.167 1_565 S
O32 Zn23 2.120 . S
O32 C25 1.299 . S
O33 Zn21 1.898 1_565 S
O33 C28 1.173 1_565 S
O34 Zn23 2.120 1_556 S
O34 C28 1.302 . S
O35 Zn23 2.114 1_566 S
O35 C37 1.166 . S
O36 Zn21 1.905 1_565 S
O36 C37 1.182 . S
C37 O35 1.166 . S
C37 O36 1.182 . S
O38 Zn23 2.080 1_556 S
O38 C41 1.305 1_556 S
O39 Zn22 1.920 . S
O39 C41 1.234 . S
C40 O26 1.305 1_556 S
C40 O27 1.234 . S
C41 O38 1.305 1_554 S
C41 O39 1.234 . S
Zn42 O48 1.920 . S
Zn42 O54 1.898 . S
Zn42 O57 1.905 . S
Zn43 O51 1.905 . S
Zn43 O52 1.898 . S
Zn43 O60 1.920 . S
Zn44 O47 2.080 . S
Zn44 O50 2.114 . S
Zn44 O53 2.120 . S
Zn44 O55 2.120 1_554 S
Zn44 O56 2.114 1_554 S
Zn44 O59 2.080 1_554 S
C45 O50 1.166 . S
C45 O51 1.182 . S
C46 O52 1.167 . S
C46 O53 1.299 . S
O47 Zn44 2.080 . S
O47 C61 1.305 1_554 S
O48 Zn42 1.920 . S
O48 C61 1.234 . S
C49 O54 1.167 . S
C49 O55 1.299 . S
O50 Zn44 2.114 . S
O50 C45 1.166 . S
O51 Zn43 1.905 . S
O51 C45 1.182 . S
O52 Zn43 1.898 . S
O52 C46 1.167 . S
O53 Zn44 2.120 . S
O53 C46 1.299 . S
O54 Zn42 1.898 . S
O54 C49 1.167 . S
O55 Zn44 2.120 1_556 S
O55 C49 1.299 . S
O56 Zn44 2.114 1_556 S
O56 C58 1.166 . S
O57 Zn42 1.905 . S
O57 C58 1.182 . S
C58 O56 1.166 . S
C58 O57 1.182 . S
O59 Zn44 2.080 1_556 S
O59 C62 1.305 1_556 S
O60 Zn43 1.920 . S
O60 C62 1.234 . S
C61 O47 1.305 1_556 S
C61 O48 1.234 . S
C62 O59 1.305 1_554 S
C62 O60 1.234 . S
C63 C64 1.387 . S
C63 H67 0.950 . S
C63 C72 1.390 . S
C64 C63 1.387 . S
C64 C66 1.387 . S
H65 C72 0.950 . S
C66 C64 1.387 . S
C66 C68 1.390 . S
C66 H70 0.950 . S
H67 C63 0.950 . S
C68 C66 1.390 . S
C68 C69 1.387 . S
C68 H71 0.950 . S
C69 C68 1.387 . S
C69 C72 1.387 . S
H70 C66 0.950 . S
H71 C68 0.950 . S
C72 C63 1.390 . S
C72 H65 0.950 . S
C72 C69 1.387 . S
C73 C74 1.387 . S
C73 H77 0.950 . S
C73 C82 1.390 . S
C74 C73 1.387 . S
C74 C76 1.387 1_565 S
H75 C82 0.950 . S
C76 C74 1.387 1_545 S
C76 C78 1.390 . S
C76 H80 0.950 . S
H77 C73 0.950 . S
C78 C76 1.390 . S
C78 C79 1.387 1_545 S
C78 H81 0.950 . S
C79 C78 1.387 1_565 S
C79 C82 1.387 . S
H80 C76 0.950 . S
H81 C78 0.950 . S
C82 C73 1.390 . S
C82 H75 0.950 . S
C82 C79 1.387 . S
C83 C84 1.387 . S
C83 H87 0.950 . S
C83 C92 1.390 . S
C84 C83 1.387 . S
C84 C86 1.387 . S
H85 C92 0.950 . S
C86 C84 1.387 . S
C86 C88 1.390 . S
C86 H90 0.950 . S
H87 C83 0.950 . S
C88 C86 1.390 . S
C88 C89 1.387 . S
C88 H91 0.950 . S
C89 C88 1.387 . S
C89 C92 1.387 . S
H90 C86 0.950 . S
H91 C88 0.950 . S
C92 C83 1.390 . S
C92 H85 0.950 . S
C92 C89 1.387 . S
C93 C94 1.387 . S
C93 H97 0.950 . S
C93 C102 1.390 . S
C94 C93 1.387 . S
C94 C96 1.387 1_554 S
H95 C102 0.950 . S
C96 C94 1.387 1_556 S
C96 C98 1.390 . S
C96 H100 0.950 . S
H97 C93 0.950 . S
C98 C96 1.390 . S
C98 C99 1.387 . S
C98 H101 0.950 . S
C99 C98 1.387 . S
C99 C102 1.387 1_556 S
H100 C96 0.950 . S
H101 C98 0.950 . S
C102 C93 1.390 . S
C102 H95 0.950 . S
C102 C99 1.387 1_554 S
C103 C104 1.387 . S
C103 H107 0.950 . S
C103 C112 1.390 . S
C104 C103 1.387 . S
C104 C106 1.387 1_554 S
H105 C112 0.950 . S
C106 C104 1.387 1_556 S
C106 C108 1.390 . S
C106 H110 0.950 . S
H107 C103 0.950 . S
C108 C106 1.390 . S
C108 C109 1.387 . S
C108 H111 0.950 . S
C109 C108 1.387 . S
C109 C112 1.387 1_556 S
H110 C106 0.950 . S
H111 C108 0.950 . S
C112 C103 1.390 . S
C112 H105 0.950 . S
C112 C109 1.387 1_554 S
C113 C114 1.387 . S
C113 H117 0.950 . S
C113 C122 1.390 . S
C114 C113 1.387 . S
C114 C116 1.387 1_556 S
H115 C122 0.950 . S
C116 C114 1.387 1_554 S
C116 C118 1.390 . S
C116 H120 0.950 . S
H117 C113 0.950 . S
C118 C116 1.390 . S
C118 C119 1.387 . S
C118 H121 0.950 . S
C119 C118 1.387 . S
C119 C122 1.387 1_554 S
H120 C116 0.950 . S
H121 C118 0.950 . S
C122 C113 1.390 . S
C122 H115 0.950 . S
C122 C119 1.387 1_556 S
C123 C124 1.387 . S
C123 H127 0.950 . S
C123 C132 1.390 1_554 S
C124 C123 1.387 . S
C124 C126 1.387 . S
H125 C132 0.950 . S
C126 C124 1.387 . S
C126 C128 1.390 1_554 S
C126 H130 0.950 . S
H127 C123 0.950 . S
C128 C126 1.390 1_556 S
C128 C129 1.387 . S
C128 H131 0.950 . S
C129 C128 1.387 . S
C129 C132 1.387 . S
H130 C126 0.950 . S
H131 C128 0.950 . S
C132 C123 1.390 1_556 S
C132 H125 0.950 . S
C132 C129 1.387 . S
C133 C134 1.387 1_554 S
C133 H137 0.950 . S
C133 C142 1.390 . S
C134 C133 1.387 1_556 S
C134 C136 1.387 . S
H135 C142 0.950 . S
C136 C134 1.387 . S
C136 C138 1.390 . S
C136 H140 0.950 . S
H137 C133 0.950 . S
C138 C136 1.390 . S
C138 C139 1.387 1_556 S
C138 H141 0.950 . S
C139 C138 1.387 1_554 S
C139 C142 1.387 . S
H140 C136 0.950 . S
H141 C138 0.950 . S
C142 C133 1.390 . S
C142 H135 0.950 . S
C142 C139 1.387 . S
C143 C144 1.387 1_556 S
C143 H147 0.950 . S
C143 C152 1.390 . S
C144 C143 1.387 1_554 S
C144 C146 1.387 . S
H145 C152 0.950 . S
C146 C144 1.387 . S
C146 C148 1.390 . S
C146 H150 0.950 . S
H147 C143 0.950 . S
C148 C146 1.390 . S
C148 C149 1.387 1_554 S
C148 H151 0.950 . S
C149 C148 1.387 1_556 S
C149 C152 1.387 . S
H150 C146 0.950 . S
H151 C148 0.950 . S
C152 C143 1.390 . S
C152 H145 0.950 . S
C152 C149 1.387 . S
C64 C7 1.335 . S
C69 C4 1.328 . S
C74 C25 1.338 1_565 S
C79 C28 1.328 1_565 S
C84 C49 1.330 . S
C89 C46 1.331 . S
C94 C16 1.210 . S
C99 C61 1.338 . S
C104 C41 1.541 . S
C109 C19 1.538 . S
C114 C24 1.215 1_556 S
C119 C62 1.336 . S
C124 C20 1.078 . S
C129 C45 0.987 1_556 S
C134 C3 0.846 1_556 S
C139 C37 0.848 1_554 S
C144 C58 0.989 1_554 S
C149 C40 1.080 . S
