# Generated by pormake.
# Topology hex, (8)-cn, num edge types: 1
# Building blocks:
#     Node 0, Type 0, BuildingBlock: XADDAJ01_clean_sbu_3, # of connection points: 8
#     Edge 1, Type (0, 0), None
#     Edge 2, Type (0, 0), None
#     Edge 3, Type (0, 0), None
#     Edge 4, Type (0, 0), None
# Relax obj value: 0.031
# Max RMSD: 0.084
# Mean RMSD: 0.084
data_MOF--net-hex--node1-XADDAJ01_clean_sbu_3--edge1-none
_symmetry_space_group_name_H-M    P1
_symmetry_Int_Tables_number       1
_symmetry_cell_setting            triclinic
loop_
_symmetry_equiv_pos_as_xyz
'x, y, z'
_cell_length_a     14.770462
_cell_length_b     7.6996468
_cell_length_c     6.6348379
_cell_angle_alpha  109.13861
_cell_angle_beta   107.70329
_cell_angle_gamma 104.74102
loop_
_atom_site_label
_atom_site_type_symbol
_atom_site_fract_x
_atom_site_fract_y
_atom_site_fract_z
_atom_type_partial_charge
C0 C 0.60827 0.89017 0.75047 0.0
C1 C 0.58294 0.74009 0.82215 0.0
C2 C 0.53938 0.75755 -0.01573 0.0
C3 C 0.52147 0.93886 0.07112 0.0
C4 C 0.53985 1.0899 -0.0135 0.0
C5 C 0.58165 1.05533 0.82068 0.0
O6 O 0.91289 1.12799 0.16817 0.0
Tb7 Tb 0.86565 0.97278 0.78976 0.0
Tb8 Tb 0.13274 0.31269 0.08769 0.0
O9 O 0.89822 0.7142 0.80412 0.0
O10 O 0.08723 0.20584 0.31976 0.0
O11 O 0.71474 0.75338 0.60149 0.0
C12 C 0.32177 0.39463 0.27097 0.0
O13 O 0.74716 1.07164 0.7091 0.0
O14 O 0.08636 0.16344 0.70873 0.0
O15 O 0.91001 1.07211 0.55127 0.0
C16 C 0.67691 0.89279 0.6308 0.0
C17 C 1.00723 0.55967 0.96162 0.0
O18 O 0.92695 0.40005 0.89873 0.0
C19 C 0.9989 1.15303 0.33142 0.0
C20 C 0.99899 1.13137 0.54279 0.0
O21 O 0.10104 0.57114 0.06999 0.0
C22 C 0.407 0.42154 0.20011 0.0
C23 C 0.51446 0.26612 0.05607 0.0
C24 C 0.44583 0.27132 0.16227 0.0
C25 C 0.4399 0.58001 0.14575 0.0
C26 C 0.51238 0.59492 0.05014 0.0
C27 C 0.55013 0.43582 0.00901 0.0
C28 C 0.99209 0.72513 0.91059 0.0
O29 O 0.07235 0.88432 -0.02764 0.0
O30 O 0.28288 0.53246 0.30127 0.0
O31 O 0.25069 0.21194 0.15471 0.0
H32 H 0.59732 0.6086 0.74659 0.0
H33 H 0.49889 0.96734 0.21452 0.0
H34 H 0.59574 0.15736 0.74358 0.0
H35 H 0.41396 1.14942 0.19998 0.0
H36 H 0.40284 0.68462 0.16562 0.0
H37 H 0.61119 0.44891 0.95157 0.0
loop_
_geom_bond_atom_site_label_1
_geom_bond_atom_site_label_2
_geom_bond_distance
_geom_bond_site_symmetry_2
_ccdc_geom_bond_type
C0 C1 1.386 . S
C0 C5 1.384 . S
C0 C16 1.497 . S
C1 C0 1.386 . S
C1 C2 1.393 1_556 S
C1 H32 0.932 . S
C2 C1 1.393 1_554 S
C2 C3 1.387 . S
C3 C2 1.387 . S
C3 C4 1.392 1_554 S
C3 H33 0.930 . S
C4 C3 1.392 1_556 S
C4 C5 1.402 . S
C5 C0 1.384 . S
C5 C4 1.402 . S
C5 H34 0.930 . S
O6 Tb7 2.288 1_554 S
O6 C19 1.257 1_665 S
Tb7 O6 2.288 1_556 S
Tb7 O9 2.303 . S
Tb7 O11 2.430 . S
Tb7 O13 2.459 . S
Tb7 O15 2.301 . S
Tb7 C16 2.808 . S
Tb8 O10 2.301 . S
Tb8 C12 2.808 . S
Tb8 O14 2.288 1_554 S
Tb8 O21 2.303 . S
Tb8 O30 2.430 . S
Tb8 O31 2.459 . S
O9 Tb7 2.303 . S
O9 C28 1.255 1_655 S
O10 Tb8 2.301 . S
O10 C19 1.237 . S
O11 Tb7 2.430 . S
O11 C16 1.248 . S
C12 Tb8 2.808 . S
C12 C22 1.497 . S
C12 O30 1.248 . S
C12 O31 1.260 . S
O13 Tb7 2.459 . S
O13 C16 1.260 . S
O14 Tb8 2.288 1_556 S
O14 C20 1.257 1_445 S
O15 Tb7 2.301 . S
O15 C20 1.237 . S
C16 C0 1.497 . S
C16 Tb7 2.808 . S
C16 O11 1.248 . S
C16 O13 1.260 . S
C17 O18 1.255 . S
C17 O21 1.255 1_655 S
O18 C17 1.255 . S
C19 O6 1.257 1_445 S
C19 O10 1.237 . S
C20 O14 1.257 1_665 S
C20 O15 1.237 . S
O21 Tb8 2.303 . S
O21 C17 1.255 1_455 S
C22 C12 1.497 . S
C22 C24 1.384 . S
C22 C25 1.386 . S
C23 C24 1.402 . S
C23 C27 1.392 1_554 S
C24 C22 1.384 . S
C24 C23 1.402 . S
C24 H35 0.930 . S
C25 C22 1.386 . S
C25 C26 1.393 1_554 S
C25 H36 0.932 . S
C26 C25 1.393 1_556 S
C26 C27 1.387 . S
C27 C23 1.392 1_556 S
C27 C26 1.387 . S
C27 H37 0.930 . S
C28 O9 1.255 1_455 S
C28 O29 1.255 . S
O29 C28 1.255 . S
O30 Tb8 2.430 . S
O30 C12 1.248 . S
O31 Tb8 2.459 . S
O31 C12 1.260 . S
H32 C1 0.932 . S
H33 C3 0.930 . S
H34 C5 0.930 . S
H35 C24 0.930 . S
H36 C25 0.932 . S
H37 C27 0.930 . S
C17 C28 1.446 1_654 S
C4 C23 2.908 1_566 S
C26 C2 2.916 1_556 S
C20 C19 1.501 1_665 S
