# Generated by pormake.
# Topology unc, (4)-cn, num edge types: 1
# Building blocks:
#     Node 0, Type 0, BuildingBlock: NAHDIM_clean_sbu_0, # of connection points: 4
#     Node 1, Type 0, BuildingBlock: NAHDIM_clean_sbu_0, # of connection points: 4
#     Node 2, Type 0, BuildingBlock: NAHDIM_clean_sbu_0, # of connection points: 4
#     Node 3, Type 0, BuildingBlock: NAHDIM_clean_sbu_0, # of connection points: 4
#     Edge 4, Type (0, 0), BuildingBlock: OJICUG_clean_linker_0, # of connection points: 2
#     Edge 5, Type (0, 0), BuildingBlock: OJICUG_clean_linker_0, # of connection points: 2
#     Edge 6, Type (0, 0), BuildingBlock: OJICUG_clean_linker_0, # of connection points: 2
#     Edge 7, Type (0, 0), BuildingBlock: OJICUG_clean_linker_0, # of connection points: 2
#     Edge 8, Type (0, 0), BuildingBlock: OJICUG_clean_linker_0, # of connection points: 2
#     Edge 9, Type (0, 0), BuildingBlock: OJICUG_clean_linker_0, # of connection points: 2
#     Edge 10, Type (0, 0), BuildingBlock: OJICUG_clean_linker_0, # of connection points: 2
#     Edge 11, Type (0, 0), BuildingBlock: OJICUG_clean_linker_0, # of connection points: 2
# Relax obj value: 0.112
# Max RMSD: 0.174
# Mean RMSD: 0.174
data_MOF--net-unc--node1-NAHDIM_clean_sbu_0--edge1-OJICUG_clean_linker_0
_symmetry_space_group_name_H-M    P1
_symmetry_Int_Tables_number       1
_symmetry_cell_setting            triclinic
loop_
_symmetry_equiv_pos_as_xyz
'x, y, z'
_cell_length_a     22.230332
_cell_length_b     22.276552
_cell_length_c     15.950744
_cell_angle_alpha  89.386993
_cell_angle_beta   89.434302
_cell_angle_gamma 97.622024
loop_
_atom_site_label
_atom_site_type_symbol
_atom_site_fract_x
_atom_site_fract_y
_atom_site_fract_z
_atom_type_partial_charge
C0 C 0.9216 0.73682 0.88797 0.0
O1 O 0.92683 0.69508 0.83178 0.0
O2 O 0.03764 0.64335 0.86697 0.0
Zn3 Zn 0.02233 0.68942 0.97097 0.0
O4 O 0.09715 0.74712 -0.00364 0.0
C5 C 0.97656 0.57886 0.06775 0.0
O6 O 0.96326 0.55384 -0.0051 0.0
O7 O 0.95608 0.74075 0.95128 0.0
C8 C 0.12334 0.74821 0.06688 0.0
O9 O 0.10286 0.70835 0.1251 0.0
C10 C 0.06895 0.59964 0.86769 0.0
O11 O 0.09228 0.58338 0.93844 0.0
O12 O 0.00015 0.63397 0.07058 0.0
C13 C 0.30292 0.14464 0.32397 0.0
O14 O 0.34793 0.14752 0.37716 0.0
O15 O 0.39495 0.03344 0.37183 0.0
Zn16 Zn 0.35722 0.04339 0.25967 0.0
O17 O 0.30997 0.96453 0.22624 0.0
C18 C 0.46347 0.03193 0.16753 0.0
O19 O 0.45811 0.98272 0.21449 0.0
O20 O 0.29912 0.10505 0.26683 0.0
C21 C 0.29572 0.95515 0.15016 0.0
O22 O 0.31321 -0.00263 0.09364 0.0
C23 C 0.40691 0.98289 0.40021 0.0
O24 O 0.39236 0.9335 0.3566 0.0
O25 O 0.42396 0.06792 0.17481 0.0
C26 C 0.1024 0.27985 0.38256 0.0
O27 O 0.05611 0.27515 0.33136 0.0
O28 O 0.00174 0.39242 0.37308 0.0
Zn29 Zn 0.02525 0.34793 0.47635 0.0
O30 O 0.95886 0.28253 0.51322 0.0
C31 C 0.06992 0.45754 0.56888 0.0
O32 O 0.08827 0.48075 0.4955 0.0
O33 O 0.09976 0.3096 0.44969 0.0
C34 C 0.90451 0.29273 0.52473 0.0
O35 O 0.89023 0.34692 0.50814 0.0
C36 C 0.9759 0.44001 0.37454 0.0
O37 O 0.96088 0.46177 0.44689 0.0
O38 O 0.04316 0.40357 0.57389 0.0
C39 C 0.76682 0.92182 0.83149 0.0
O40 O 0.76914 0.96772 0.88296 0.0
O41 O 0.64938 0.0064 0.86641 0.0
Zn42 Zn 0.68607 -0.00844 0.754 0.0
O43 O 0.74382 0.063 0.71123 0.0
C44 C 0.5699 -0.00515 0.67837 0.0
O45 O 0.56332 0.03079 0.74148 0.0
O46 O 0.73294 0.92108 0.76773 0.0
C47 C 0.72672 0.10716 0.6709 0.0
O48 O 0.66854 0.1086 0.65922 0.0
C49 C 0.63685 0.05627 0.89529 0.0
O50 O 0.65007 0.10631 0.85077 0.0
O51 O 0.61881 0.97146 0.67085 0.0
C52 C 0.96704 0.57046 0.22377 0.0
C53 C 0.96981 0.54218 0.14576 0.0
H54 H 0.96548 0.56 0.35736 0.0
C55 C 0.97012 0.47922 0.14348 0.0
H56 H 0.9665 0.61893 0.22736 0.0
C57 C 0.9706 0.44561 0.21798 0.0
C58 C 0.96946 0.4742 0.29601 0.0
H59 H 0.97245 0.45626 0.08424 0.0
H60 H 0.9729 0.39742 0.2145 0.0
C61 C 0.96621 0.53669 0.29817 0.0
C62 C 0.44397 0.0278 0.53543 0.0
C63 C 0.44354 0.98152 0.47637 0.0
H64 H 0.48364 0.06754 0.64658 0.0
C65 C 0.48195 0.9369 0.48741 0.0
H66 H 0.41459 0.06261 0.52846 0.0
C67 C 0.52239 0.94032 0.55426 0.0
C68 C 0.52403 0.98768 0.61194 0.0
H69 H 0.48265 0.90087 0.44247 0.0
H70 H 0.55302 0.90655 0.55997 0.0
C71 C 0.4834 0.0305 0.6031 0.0
C72 C 0.07998 0.50251 0.7964 0.0
C73 C 0.0745 0.56447 0.79096 0.0
H74 H 0.08192 0.41979 0.72977 0.0
C75 C 0.07122 0.59181 0.71163 0.0
H76 H 0.08231 0.48032 0.85683 0.0
C77 C 0.07247 0.55751 0.63892 0.0
C78 C 0.0753 0.49504 0.6446 0.0
H79 H 0.06717 0.63961 0.70586 0.0
H80 H 0.06882 0.57939 0.57854 0.0
C81 C 0.07953 0.46791 0.72385 0.0
C82 C 0.55102 -0.00183 0.09087 0.0
C83 C 0.51229 0.0423 0.10343 0.0
H84 H 0.6212 0.96847 0.01573 0.0
C85 C 0.51916 0.09442 0.05191 0.0
H86 H 0.54737 0.95772 0.12986 0.0
C87 C 0.56218 0.10087 0.98665 0.0
C88 C 0.59853 0.05501 0.97151 0.0
H89 H 0.49024 0.12942 0.0605 0.0
H90 H 0.56501 0.14036 0.94588 0.0
C91 C 0.59347 0.00435 0.02547 0.0
C92 C 0.23714 0.85444 0.18755 0.0
C93 C 0.25608 0.89938 0.12685 0.0
H94 H 0.18076 0.77115 0.21605 0.0
C95 C 0.23447 0.89181 0.04467 0.0
H96 H 0.25329 0.85872 0.25134 0.0
C97 C 0.19283 0.84161 0.02446 0.0
C98 C 0.17207 0.79786 0.08598 0.0
H99 H 0.24843 0.92544 -0.00366 0.0
H100 H 0.17581 0.83792 0.96107 0.0
C101 C 0.19562 0.80415 0.16729 0.0
C102 C 0.20509 0.1789 0.27947 0.0
C103 C 0.25403 0.18297 0.3352 0.0
H104 H 0.11897 0.20641 0.25052 0.0
C105 C 0.25409 0.22158 0.40431 0.0
H106 H 0.20371 0.1497 0.22547 0.0
C107 C 0.20537 0.25394 0.41883 0.0
C108 C 0.15564 0.24853 0.3644 0.0
H109 H 0.29113 0.22583 0.44838 0.0
H110 H 0.20631 0.28244 0.47352 0.0
C111 C 0.15645 0.21139 0.29387 0.0
C112 C 0.83386 0.14738 0.63153 0.0
C113 C 0.77212 0.15499 0.63418 0.0
H114 H 0.92387 0.18446 0.59399 0.0
C115 C 0.75413 0.20806 0.59974 0.0
H116 H 0.84918 0.10687 0.65714 0.0
C117 C 0.79707 0.25278 0.56389 0.0
C118 C 0.85876 0.24499 0.56093 0.0
H119 H 0.70688 0.21525 0.60078 0.0
H120 H 0.78186 0.29333 0.53828 0.0
C121 C 0.87665 0.19173 0.5949 0.0
C122 C 0.8055 0.82544 0.7897 0.0
C123 C 0.80415 0.87273 0.84708 0.0
H124 H 0.84355 0.74513 0.75765 0.0
C125 C 0.83976 0.87343 0.91938 0.0
H126 H 0.77842 0.82356 0.73347 0.0
C127 C 0.87681 0.82854 0.93334 0.0
C128 C 0.87925 0.78192 0.8752 0.0
H129 H 0.83958 0.90903 0.96507 0.0
H130 H 0.90424 0.83099 -0.01074 0.0
C131 C 0.84276 0.78048 0.8036 0.0
loop_
_geom_bond_atom_site_label_1
_geom_bond_atom_site_label_2
_geom_bond_distance
_geom_bond_site_symmetry_2
_ccdc_geom_bond_type
C0 O1 1.160 . S
C0 O7 1.185 1_556 S
O1 C0 1.160 . S
O2 Zn3 1.899 1_556 S
O2 C10 1.282 . S
Zn3 O2 1.899 1_554 S
Zn3 O4 2.032 . S
Zn3 O7 2.086 1_455 S
Zn3 O12 1.977 1_455 S
O4 Zn3 2.032 . S
O4 C8 1.278 . S
C5 O6 1.203 . S
C5 O12 1.267 1_455 S
O6 C5 1.203 . S
O7 C0 1.185 1_554 S
O7 Zn3 2.086 1_655 S
C8 O4 1.278 . S
C8 O9 1.211 . S
O9 C8 1.211 . S
C10 O2 1.282 . S
C10 O11 1.273 . S
O11 C10 1.273 . S
O12 Zn3 1.977 1_655 S
O12 C5 1.267 1_655 S
C13 O14 1.160 . S
C13 O20 1.185 . S
O14 C13 1.160 . S
O15 Zn16 1.899 . S
O15 C23 1.284 . S
Zn16 O15 1.899 . S
Zn16 O17 2.032 1_545 S
Zn16 O20 2.086 . S
Zn16 O25 1.977 . S
O17 Zn16 2.032 1_565 S
O17 C21 1.278 . S
C18 O19 1.203 . S
C18 O25 1.267 . S
O19 C18 1.203 . S
O20 C13 1.185 . S
O20 Zn16 2.086 . S
C21 O17 1.278 . S
C21 O22 1.211 . S
O22 C21 1.211 . S
C23 O15 1.284 . S
C23 O24 1.273 1_545 S
O24 C23 1.273 1_565 S
O25 Zn16 1.977 . S
O25 C18 1.267 . S
C26 O27 1.160 . S
C26 O33 1.185 . S
O27 C26 1.160 . S
O28 Zn29 1.899 . S
O28 C36 1.284 . S
Zn29 O28 1.899 . S
Zn29 O30 2.032 1_455 S
Zn29 O33 2.086 . S
Zn29 O38 1.977 . S
O30 Zn29 2.032 1_655 S
O30 C34 1.278 . S
C31 O32 1.203 . S
C31 O38 1.267 . S
O32 C31 1.203 . S
O33 C26 1.185 . S
O33 Zn29 2.086 . S
C34 O30 1.278 . S
C34 O35 1.211 . S
O35 C34 1.211 . S
C36 O28 1.284 . S
C36 O37 1.273 1_455 S
O37 C36 1.273 1_655 S
O38 Zn29 1.977 . S
O38 C31 1.267 . S
C39 O40 1.160 . S
C39 O46 1.185 . S
O40 C39 1.160 . S
O41 Zn42 1.899 . S
O41 C49 1.282 . S
Zn42 O41 1.899 . S
Zn42 O43 2.032 . S
Zn42 O46 2.086 1_545 S
Zn42 O51 1.977 1_545 S
O43 Zn42 2.032 . S
O43 C47 1.278 . S
C44 O45 1.203 . S
C44 O51 1.267 1_545 S
O45 C44 1.203 . S
O46 C39 1.185 . S
O46 Zn42 2.086 1_565 S
C47 O43 1.278 . S
C47 O48 1.211 . S
O48 C47 1.211 . S
C49 O41 1.282 . S
C49 O50 1.273 . S
O50 C49 1.273 . S
O51 Zn42 1.977 1_565 S
O51 C44 1.267 1_565 S
C52 C53 1.397 . S
C52 H56 0.950 . S
C52 C61 1.390 . S
C53 C52 1.397 . S
C53 C55 1.376 1_655 S
H54 C61 0.950 . S
C55 C53 1.376 1_455 S
C55 C57 1.390 . S
C55 H59 0.950 . S
H56 C52 0.950 . S
C57 C55 1.390 . S
C57 C58 1.387 . S
C57 H60 0.950 . S
C58 C57 1.387 . S
C58 C61 1.387 1_455 S
H59 C55 0.950 . S
H60 C57 0.950 . S
C61 C52 1.390 . S
C61 H54 0.950 . S
C61 C58 1.387 1_655 S
C62 C63 1.387 . S
C62 H66 0.950 . S
C62 C71 1.390 . S
C63 C62 1.387 . S
C63 C65 1.387 1_545 S
H64 C71 0.950 . S
C65 C63 1.387 1_565 S
C65 C67 1.390 . S
C65 H69 0.950 . S
H66 C62 0.950 . S
C67 C65 1.390 . S
C67 C68 1.397 . S
C67 H70 0.950 . S
C68 C67 1.397 . S
C68 C71 1.376 1_565 S
H69 C65 0.950 . S
H70 C67 0.950 . S
C71 C62 1.390 . S
C71 H64 0.950 . S
C71 C68 1.376 1_545 S
C72 C73 1.387 . S
C72 H76 0.950 . S
C72 C81 1.390 . S
C73 C72 1.387 . S
C73 C75 1.385 1_455 S
H74 C81 0.950 . S
C75 C73 1.385 1_655 S
C75 C77 1.390 1_655 S
C75 H79 0.953 . S
H76 C72 0.950 . S
C77 C75 1.390 1_455 S
C77 C78 1.387 . S
C77 H80 0.950 1_455 S
C78 C77 1.387 . S
C78 C81 1.387 . S
H79 C75 0.953 . S
H80 C77 0.950 1_655 S
C81 C72 1.390 . S
C81 H74 0.950 . S
C81 C78 1.387 . S
C82 C83 1.387 . S
C82 H86 0.950 1_545 S
C82 C91 1.390 1_544 S
C83 C82 1.387 . S
C83 C85 1.387 . S
H84 C91 0.950 . S
C85 C83 1.387 . S
C85 C87 1.390 1_554 S
C85 H89 0.950 . S
H86 C82 0.950 1_565 S
C87 C85 1.390 1_556 S
C87 C88 1.387 . S
C87 H90 0.950 . S
C88 C87 1.387 . S
C88 C91 1.387 1_545 S
H89 C85 0.950 . S
H90 C87 0.950 . S
C91 C82 1.390 1_566 S
C91 H84 0.950 . S
C91 C88 1.387 1_565 S
C92 C93 1.387 . S
C92 H96 0.950 . S
C92 C101 1.390 . S
C93 C92 1.387 . S
C93 C95 1.387 . S
H94 C101 0.950 . S
C95 C93 1.387 . S
C95 C97 1.390 . S
C95 H99 0.950 . S
H96 C92 0.950 . S
C97 C95 1.390 . S
C97 C98 1.387 . S
C97 H100 0.950 1_554 S
C98 C97 1.387 . S
C98 C101 1.387 . S
H99 C95 0.950 . S
H100 C97 0.950 1_556 S
C101 C92 1.390 . S
C101 H94 0.950 . S
C101 C98 1.387 . S
C102 C103 1.387 . S
C102 H106 0.950 . S
C102 C111 1.390 . S
C103 C102 1.387 . S
C103 C105 1.387 . S
H104 C111 0.950 . S
C105 C103 1.387 . S
C105 C107 1.390 . S
C105 H109 0.950 . S
H106 C102 0.950 . S
C107 C105 1.390 . S
C107 C108 1.387 . S
C107 H110 0.950 . S
C108 C107 1.387 . S
C108 C111 1.387 . S
H109 C105 0.950 . S
H110 C107 0.950 . S
C111 C102 1.390 . S
C111 H104 0.950 . S
C111 C108 1.387 . S
C112 C113 1.387 . S
C112 H116 0.950 . S
C112 C121 1.390 . S
C113 C112 1.387 . S
C113 C115 1.387 . S
H114 C121 0.950 . S
C115 C113 1.387 . S
C115 C117 1.390 . S
C115 H119 0.950 . S
H116 C112 0.950 . S
C117 C115 1.390 . S
C117 C118 1.387 . S
C117 H120 0.950 . S
C118 C117 1.387 . S
C118 C121 1.387 . S
H119 C115 0.950 . S
H120 C117 0.950 . S
C121 C112 1.390 . S
C121 H114 0.950 . S
C121 C118 1.387 . S
C122 C123 1.387 . S
C122 H126 0.950 . S
C122 C131 1.390 . S
C123 C122 1.387 . S
C123 C125 1.387 . S
H124 C131 0.950 . S
C125 C123 1.387 . S
C125 C127 1.390 . S
C125 H129 0.950 . S
H126 C122 0.950 . S
C127 C125 1.390 . S
C127 C128 1.387 . S
C127 H130 0.950 1_556 S
C128 C127 1.387 . S
C128 C131 1.387 . S
H129 C125 0.950 . S
H130 C127 0.950 1_554 S
C131 C122 1.390 . S
C131 H124 0.950 . S
C131 C128 1.387 . S
C53 C5 1.194 1_655 S
C58 C36 1.249 . S
C63 C23 1.248 . S
C68 C44 1.190 1_565 S
C73 C10 1.248 . S
C78 C31 1.195 . S
C83 C18 1.192 . S
C88 C49 1.248 . S
C93 C21 1.462 . S
C98 C8 1.463 . S
C103 C13 1.458 . S
C108 C26 1.458 . S
C113 C47 1.465 . S
C118 C34 1.464 . S
C123 C39 1.456 . S
C128 C0 1.456 . S
