# Generated by pormake.
# Topology gis, (4)-cn, num edge types: 1
# Building blocks:
#     Node 0, Type 0, BuildingBlock: CEKHIL_clean_sbu_0, # of connection points: 4
#     Node 1, Type 0, BuildingBlock: CEKHIL_clean_sbu_0, # of connection points: 4
#     Node 2, Type 0, BuildingBlock: CEKHIL_clean_sbu_0, # of connection points: 4
#     Node 3, Type 0, BuildingBlock: CEKHIL_clean_sbu_0, # of connection points: 4
#     Node 4, Type 0, BuildingBlock: CEKHIL_clean_sbu_0, # of connection points: 4
#     Node 5, Type 0, BuildingBlock: CEKHIL_clean_sbu_0, # of connection points: 4
#     Node 6, Type 0, BuildingBlock: CEKHIL_clean_sbu_0, # of connection points: 4
#     Node 7, Type 0, BuildingBlock: CEKHIL_clean_sbu_0, # of connection points: 4
#     Node 8, Type 0, BuildingBlock: CEKHIL_clean_sbu_0, # of connection points: 4
#     Node 9, Type 0, BuildingBlock: CEKHIL_clean_sbu_0, # of connection points: 4
#     Node 10, Type 0, BuildingBlock: CEKHIL_clean_sbu_0, # of connection points: 4
#     Node 11, Type 0, BuildingBlock: CEKHIL_clean_sbu_0, # of connection points: 4
#     Node 12, Type 0, BuildingBlock: CEKHIL_clean_sbu_0, # of connection points: 4
#     Node 13, Type 0, BuildingBlock: CEKHIL_clean_sbu_0, # of connection points: 4
#     Node 14, Type 0, BuildingBlock: CEKHIL_clean_sbu_0, # of connection points: 4
#     Node 15, Type 0, BuildingBlock: CEKHIL_clean_sbu_0, # of connection points: 4
#     Edge 16, Type (0, 0), None
#     Edge 17, Type (0, 0), None
#     Edge 18, Type (0, 0), None
#     Edge 19, Type (0, 0), None
#     Edge 20, Type (0, 0), None
#     Edge 21, Type (0, 0), None
#     Edge 22, Type (0, 0), None
#     Edge 23, Type (0, 0), None
#     Edge 24, Type (0, 0), None
#     Edge 25, Type (0, 0), None
#     Edge 26, Type (0, 0), None
#     Edge 27, Type (0, 0), None
#     Edge 28, Type (0, 0), None
#     Edge 29, Type (0, 0), None
#     Edge 30, Type (0, 0), None
#     Edge 31, Type (0, 0), None
#     Edge 32, Type (0, 0), None
#     Edge 33, Type (0, 0), None
#     Edge 34, Type (0, 0), None
#     Edge 35, Type (0, 0), None
#     Edge 36, Type (0, 0), None
#     Edge 37, Type (0, 0), None
#     Edge 38, Type (0, 0), None
#     Edge 39, Type (0, 0), None
#     Edge 40, Type (0, 0), None
#     Edge 41, Type (0, 0), None
#     Edge 42, Type (0, 0), None
#     Edge 43, Type (0, 0), None
#     Edge 44, Type (0, 0), None
#     Edge 45, Type (0, 0), None
#     Edge 46, Type (0, 0), None
#     Edge 47, Type (0, 0), None
# Relax obj value: 0.065
# Max RMSD: 0.135
# Mean RMSD: 0.128
data_MOF--net-gis--node1-CEKHIL_clean_sbu_0--edge1-none
_symmetry_space_group_name_H-M    P1
_symmetry_Int_Tables_number       1
_symmetry_cell_setting            triclinic
loop_
_symmetry_equiv_pos_as_xyz
'x, y, z'
_cell_length_a     23.344131
_cell_length_b     23.210279
_cell_length_c     15.772605
_cell_angle_alpha  91.104328
_cell_angle_beta   90.767579
_cell_angle_gamma 89.775239
loop_
_atom_site_label
_atom_site_type_symbol
_atom_site_fract_x
_atom_site_fract_y
_atom_site_fract_z
_atom_type_partial_charge
Co0 Co 0.16643 0.58772 0.12245 0.0
O1 O 0.24704 0.58447 0.14312 0.0
O2 O 0.18266 0.58011 0.24412 0.0
C3 C 0.16875 0.52264 0.01676 0.0
O4 O 0.0774 0.58797 0.11375 0.0
Co5 Co 0.13774 0.64005 0.95102 0.0
O6 O 0.06354 0.60311 0.97422 0.0
C7 C 0.17152 0.71682 0.08955 0.0
C8 C 0.23651 0.57969 0.22228 0.0
C9 C 0.0447 0.58936 0.04664 0.0
O10 O 0.16839 0.67334 0.13765 0.0
O11 O 0.16534 0.71301 0.009 0.0
O12 O 0.16521 0.50741 0.09495 0.0
O13 O 0.17788 0.57688 0.00451 0.0
Co14 Co 0.67486 0.90656 0.3479 0.0
O15 O 0.75637 0.90207 0.33724 0.0
O16 O 0.69438 0.90647 0.22928 0.0
C17 C 0.67517 0.97385 0.4535 0.0
O18 O 0.58755 0.90959 0.3368 0.0
Co19 Co 0.6244 0.86584 0.5163 0.0
O20 O 0.55079 0.89215 0.46514 0.0
C21 C 0.66416 0.78025 0.3914 0.0
C22 C 0.74705 0.90038 0.25616 0.0
C23 C 0.54481 0.90372 0.38679 0.0
O24 O 0.67091 0.82105 0.3395 0.0
O25 O 0.6506 0.78857 0.4691 0.0
O26 O 0.6782 0.98928 0.37497 0.0
O27 O 0.67727 0.91897 0.46573 0.0
Co28 Co 0.36572 0.39449 0.62162 0.0
O29 O 0.28145 0.39168 0.6276 0.0
O30 O 0.34071 0.38426 0.73671 0.0
C31 C 0.36944 0.47163 0.53498 0.0
O32 O 0.45333 0.39593 0.64478 0.0
Co33 Co 0.43362 0.38283 0.45279 0.0
O34 O 0.50087 0.40643 0.52302 0.0
C35 C 0.38492 0.27927 0.53257 0.0
C36 C 0.28808 0.38571 0.70882 0.0
C37 C 0.50025 0.40298 0.60352 0.0
O38 O 0.36997 0.3082 0.59957 0.0
O39 O 0.40569 0.30223 0.46657 0.0
O40 O 0.363 0.47992 0.61611 0.0
O41 O 0.37018 0.41879 0.50968 0.0
Co42 Co 0.87218 0.09301 0.89162 0.0
O43 O 0.78991 0.08862 0.87184 0.0
O44 O 0.85226 0.10023 0.77065 0.0
C45 C 0.87264 0.01484 0.97278 0.0
O46 O 0.96238 0.09716 0.89702 0.0
Co47 Co 0.91173 0.10808 0.08125 0.0
O48 O 0.97856 0.0683 0.03018 0.0
C49 C 0.87254 0.20958 0.98358 0.0
C50 C 0.79898 0.09228 0.79201 0.0
C51 C 0.99725 0.08083 0.9572 0.0
O52 O 0.86736 0.17955 0.91408 0.0
O53 O 0.88543 0.18785 0.05547 0.0
O54 O 0.87587 0.00881 0.8912 0.0
O55 O 0.86527 0.06642 0.00135 0.0
Co56 Co 0.17163 0.39595 0.87409 0.0
O57 O 0.25218 0.39519 0.84876 0.0
O58 O 0.18554 0.38159 0.75133 0.0
C59 C 0.17723 0.47711 0.95381 0.0
O60 O 0.0822 0.39564 0.88915 0.0
Co61 Co 0.14945 0.38884 0.07116 0.0
O62 O 0.07429 0.41684 0.02918 0.0
C63 C 0.18045 0.28455 0.97288 0.0
C64 C 0.24008 0.38644 0.77002 0.0
C65 C 0.05168 0.40871 0.95566 0.0
O66 O 0.17521 0.31068 0.90144 0.0
O67 O 0.17831 0.30995 0.04545 0.0
O68 O 0.1707 0.4818 0.87243 0.0
O69 O 0.18531 0.42603 0.97997 0.0
Co70 Co 0.8699 0.88968 0.11202 0.0
O71 O 0.78746 0.89349 0.11704 0.0
O72 O 0.84637 0.88261 0.22746 0.0
C73 C 0.87485 0.96631 0.02912 0.0
O74 O 0.95652 0.88728 0.13418 0.0
Co75 Co 0.936 0.87543 0.94424 0.0
O76 O 1.00241 0.90323 0.0129 0.0
C77 C 0.87937 0.77459 0.02165 0.0
C78 C 0.79464 0.89092 0.19849 0.0
C79 C 1.00236 0.89829 0.09315 0.0
O80 O 0.86806 0.80348 0.09009 0.0
O81 O 0.90149 0.79702 0.9561 0.0
O82 O 0.87174 0.97321 0.11071 0.0
O83 O 0.87356 0.91421 0.99971 0.0
Co84 Co 0.36302 0.5826 0.36763 0.0
O85 O 0.27977 0.57965 0.36268 0.0
O86 O 0.33732 0.57619 0.25201 0.0
C87 C 0.37232 0.51711 0.47135 0.0
O88 O 0.45017 0.58392 0.34593 0.0
Co89 Co 0.42442 0.62956 0.52222 0.0
O90 O 0.49614 0.60114 0.46925 0.0
C91 C 0.37391 0.71157 0.40386 0.0
C92 C 0.2854 0.57703 0.28117 0.0
C93 C 0.49682 0.58907 0.39024 0.0
O94 O 0.36031 0.66832 0.35669 0.0
O95 O 0.39696 0.70623 0.47737 0.0
O96 O 0.3675 0.50199 0.39211 0.0
O97 O 0.36748 0.57195 0.48829 0.0
Co98 Co 0.67718 0.08159 0.63192 0.0
O99 O 0.75971 0.08597 0.64975 0.0
O100 O 0.6975 0.07929 0.75271 0.0
C101 C 0.67815 0.01566 0.52454 0.0
O102 O 0.58755 0.07703 0.62857 0.0
Co103 Co 0.64189 0.1311 0.45712 0.0
O104 O 0.56644 0.10257 0.49385 0.0
C105 C 0.67192 0.21025 0.59495 0.0
C106 C 0.75081 0.08544 0.73013 0.0
C107 C 0.55114 0.08534 0.56661 0.0
O108 O 0.67236 0.16723 0.64422 0.0
O109 O 0.66624 0.20535 0.51439 0.0
O110 O 0.68117 -0.00081 0.60264 0.0
O111 O 0.683 0.07053 0.51471 0.0
Co112 Co 0.86408 0.38621 0.88967 0.0
O113 O 0.78311 0.38208 0.86196 0.0
O114 O 0.85213 0.37304 0.76833 0.0
C115 C 0.85377 0.46688 0.97107 0.0
O116 O 0.95361 0.39034 0.89822 0.0
Co117 Co 0.89993 0.37988 0.08061 0.0
O118 O 0.96868 0.41708 0.03421 0.0
C119 C 0.87018 0.27304 0.98312 0.0
C120 C 0.79739 0.37614 0.78357 0.0
C121 C 0.98733 0.40789 0.95938 0.0
O122 O 0.86646 0.30034 0.91273 0.0
O123 O 0.8785 0.29799 0.0554 0.0
O124 O 0.8592 0.47072 0.88967 0.0
O125 O 0.85104 0.41545 0.99919 0.0
Co126 Co 0.36465 0.10445 0.62228 0.0
O127 O 0.28306 0.11218 0.63978 0.0
O128 O 0.34912 0.11948 0.74113 0.0
C129 C 0.35297 0.02477 0.54178 0.0
O130 O 0.45442 0.09805 0.62214 0.0
Co131 Co 0.41285 0.10595 0.44041 0.0
O132 O 0.46908 0.0544 0.4978 0.0
C133 C 0.38286 0.21597 0.53115 0.0
C134 C 0.29494 0.11915 0.71927 0.0
C135 C 0.48848 0.07193 0.56941 0.0
O136 O 0.37026 0.18927 0.59907 0.0
O137 O 0.39818 0.1904 0.46217 0.0
O138 O 0.3568 0.02064 0.62353 0.0
O139 O 0.35471 0.07601 0.51209 0.0
Co140 Co 0.68452 0.59324 0.38484 0.0
O141 O 0.69511 0.51185 0.39041 0.0
O142 O 0.69263 0.57264 0.50149 0.0
C143 C 0.74933 0.60725 0.28088 0.0
O144 O 0.6754 0.67918 0.40316 0.0
Co145 Co 0.63032 0.6404 0.22498 0.0
O146 O 0.6522 0.71594 0.27667 0.0
C147 C 0.55348 0.59121 0.34831 0.0
C148 C 0.69715 0.52016 0.47183 0.0
C149 C 0.66518 0.72188 0.35507 0.0
O150 O 0.59833 0.58387 0.3952 0.0
O151 O 0.55646 0.61008 0.27281 0.0
O152 O 0.76525 0.60437 0.35964 0.0
O153 O 0.69563 0.5955 0.26569 0.0
Co154 Co 0.18814 0.90433 0.10689 0.0
O155 O 0.19345 0.98654 0.10074 0.0
O156 O 0.1948 0.9256 0.99012 0.0
C157 C 0.25183 0.89343 0.2156 0.0
O158 O 0.18407 0.81802 0.08722 0.0
Co159 Co 0.13743 0.85052 0.26503 0.0
O160 O 0.16006 0.77674 0.20929 0.0
C161 C 0.05859 0.89622 0.1368 0.0
C162 C 0.1952 0.97836 0.0192 0.0
C163 C 0.174 0.77359 0.13151 0.0
O164 O 0.10247 0.90887 0.09288 0.0
O165 O 0.06251 0.87532 0.21117 0.0
O166 O 0.26908 0.89802 0.13814 0.0
O167 O 0.19737 0.90146 0.22651 0.0
Co168 Co 0.85894 0.59834 0.10894 0.0
O169 O 0.77785 0.60177 0.13457 0.0
O170 O 0.84733 0.61254 0.22969 0.0
C171 C 0.85127 0.51746 0.02764 0.0
O172 O 0.948 0.59645 0.10282 0.0
Co173 Co 0.89826 0.60324 0.92046 0.0
O174 O 0.96359 0.56097 0.97226 0.0
C175 C 0.87285 0.71154 0.01808 0.0
C176 C 0.79252 0.6092 0.21325 0.0
C177 C 0.98228 0.57633 0.04547 0.0
O178 O 0.86093 0.68389 0.08574 0.0
O179 O 0.88555 0.68697 0.94726 0.0
O180 O 0.85584 0.51392 0.10943 0.0
O181 O 0.84743 0.56873 0.99861 0.0
Co182 Co 0.18224 0.10603 0.88337 0.0
O183 O 0.26266 0.11313 0.86089 0.0
O184 O 0.19462 0.11812 0.76276 0.0
C185 C 0.19502 0.02718 0.9627 0.0
O186 O 0.09284 0.09904 0.89288 0.0
Co187 Co 0.15553 0.1195 0.07671 0.0
O188 O 0.08232 0.08694 0.03351 0.0
C189 C 0.18168 0.22146 0.97529 0.0
C190 C 0.24923 0.11884 0.78229 0.0
C191 C 0.06141 0.08806 0.95818 0.0
O192 O 0.17775 0.19171 0.90599 0.0
O193 O 0.1801 0.19935 0.04902 0.0
O194 O 0.18942 0.02152 0.88115 0.0
O195 O 0.19744 0.07927 0.99121 0.0
Co196 Co 0.68786 0.39712 0.6122 0.0
O197 O 0.69758 0.47891 0.60922 0.0
O198 O 0.69387 0.41922 0.49675 0.0
C199 C 0.75371 0.38047 0.71555 0.0
O200 O 0.67975 0.31161 0.59002 0.0
Co201 Co 0.63585 0.34517 0.76773 0.0
O202 O 0.65943 0.27098 0.71379 0.0
C203 C 0.55705 0.39741 0.6467 0.0
C204 C 0.69812 0.4714 0.52753 0.0
C205 C 0.67177 0.26739 0.63545 0.0
O206 O 0.60158 0.40695 0.60197 0.0
O207 O 0.56065 0.37523 0.72022 0.0
O208 O 0.76888 0.38552 0.63736 0.0
O209 O 0.70014 0.392 0.731 0.0
Co210 Co 0.35873 0.90015 0.39453 0.0
O211 O 0.35322 0.98211 0.40348 0.0
O212 O 0.35382 0.92254 0.51247 0.0
C213 C 0.29322 0.89104 0.28706 0.0
O214 O 0.36352 0.81362 0.41115 0.0
Co215 Co 0.40543 0.84437 0.23221 0.0
O216 O 0.38339 0.77092 0.28605 0.0
C217 C 0.48616 0.89991 0.35139 0.0
C218 C 0.35253 0.97491 0.48478 0.0
C219 C 0.3716 0.76851 0.36459 0.0
O220 O 0.44473 0.9053 0.40368 0.0
O221 O 0.47906 0.88102 0.27518 0.0
O222 O 0.27698 0.8945 0.36543 0.0
O223 O 0.34766 0.8972 0.27563 0.0
loop_
_geom_bond_atom_site_label_1
_geom_bond_atom_site_label_2
_geom_bond_distance
_geom_bond_site_symmetry_2
_ccdc_geom_bond_type
Co0 O1 2.216 . S
Co0 O2 2.091 . S
Co0 O4 2.004 . S
Co0 O10 2.021 . S
Co0 O12 2.137 . S
Co0 O13 2.244 . S
O1 Co0 2.216 . S
O1 C8 1.247 . S
O2 Co0 2.091 . S
O2 C8 1.261 . S
C3 O12 1.247 . S
C3 O13 1.272 . S
O4 Co0 2.004 . S
O4 C9 1.259 . S
Co5 O6 2.061 1_556 S
Co5 O11 2.052 1_556 S
Co5 O13 2.135 1_556 S
O6 Co5 2.061 1_554 S
O6 C9 1.235 . S
C7 O10 1.238 . S
C7 O11 1.241 . S
C8 O1 1.247 . S
C8 O2 1.261 . S
C9 O4 1.259 . S
C9 O6 1.235 . S
O10 Co0 2.021 . S
O10 C7 1.238 . S
O11 Co5 2.052 1_554 S
O11 C7 1.241 . S
O12 Co0 2.137 . S
O12 C3 1.247 . S
O13 Co0 2.244 . S
O13 C3 1.272 . S
O13 Co5 2.135 1_554 S
Co14 O15 2.216 . S
Co14 O16 2.091 . S
Co14 O18 2.004 . S
Co14 O24 2.021 . S
Co14 O26 2.137 . S
Co14 O27 2.244 . S
O15 Co14 2.216 . S
O15 C22 1.247 . S
O16 Co14 2.091 . S
O16 C22 1.261 . S
C17 O26 1.247 . S
C17 O27 1.272 . S
O18 Co14 2.004 . S
O18 C23 1.259 . S
Co19 O20 2.061 . S
Co19 O25 2.052 . S
Co19 O27 2.135 . S
O20 Co19 2.061 . S
O20 C23 1.235 . S
C21 O24 1.238 . S
C21 O25 1.241 . S
C22 O15 1.247 . S
C22 O16 1.261 . S
C23 O18 1.259 . S
C23 O20 1.235 . S
O24 Co14 2.021 . S
O24 C21 1.238 . S
O25 Co19 2.052 . S
O25 C21 1.241 . S
O26 Co14 2.137 . S
O26 C17 1.247 . S
O27 Co14 2.244 . S
O27 C17 1.272 . S
O27 Co19 2.135 . S
Co28 O29 2.216 . S
Co28 O30 2.091 . S
Co28 O32 2.004 . S
Co28 O38 2.021 . S
Co28 O40 2.137 . S
Co28 O41 2.244 . S
O29 Co28 2.216 . S
O29 C36 1.247 . S
O30 Co28 2.091 . S
O30 C36 1.261 . S
C31 O40 1.247 . S
C31 O41 1.272 . S
O32 Co28 2.004 . S
O32 C37 1.259 . S
Co33 O34 2.061 . S
Co33 O39 2.052 . S
Co33 O41 2.135 . S
O34 Co33 2.061 . S
O34 C37 1.235 . S
C35 O38 1.238 . S
C35 O39 1.241 . S
C36 O29 1.247 . S
C36 O30 1.261 . S
C37 O32 1.259 . S
C37 O34 1.235 . S
O38 Co28 2.021 . S
O38 C35 1.238 . S
O39 Co33 2.052 . S
O39 C35 1.241 . S
O40 Co28 2.137 . S
O40 C31 1.247 . S
O41 Co28 2.244 . S
O41 C31 1.272 . S
O41 Co33 2.135 . S
Co42 O43 2.216 . S
Co42 O44 2.091 . S
Co42 O46 2.004 . S
Co42 O52 2.021 . S
Co42 O54 2.137 . S
Co42 O55 2.244 1_556 S
O43 Co42 2.216 . S
O43 C50 1.247 . S
O44 Co42 2.091 . S
O44 C50 1.261 . S
C45 O54 1.247 . S
C45 O55 1.272 1_556 S
O46 Co42 2.004 . S
O46 C51 1.259 . S
Co47 O48 2.061 1_554 S
Co47 O53 2.052 1_554 S
Co47 O55 2.135 . S
O48 Co47 2.061 1_556 S
O48 C51 1.235 . S
C49 O52 1.238 . S
C49 O53 1.241 . S
C50 O43 1.247 . S
C50 O44 1.261 . S
C51 O46 1.259 . S
C51 O48 1.235 . S
O52 Co42 2.021 . S
O52 C49 1.238 . S
O53 Co47 2.052 1_556 S
O53 C49 1.241 . S
O54 Co42 2.137 . S
O54 C45 1.247 . S
O55 Co42 2.244 1_554 S
O55 C45 1.272 1_554 S
O55 Co47 2.135 . S
Co56 O57 2.216 . S
Co56 O58 2.091 . S
Co56 O60 2.004 . S
Co56 O66 2.021 . S
Co56 O68 2.137 . S
Co56 O69 2.244 . S
O57 Co56 2.216 . S
O57 C64 1.247 . S
O58 Co56 2.091 . S
O58 C64 1.261 . S
C59 O68 1.247 . S
C59 O69 1.272 . S
O60 Co56 2.004 . S
O60 C65 1.259 . S
Co61 O62 2.061 1_554 S
Co61 O67 2.052 1_554 S
Co61 O69 2.135 1_554 S
O62 Co61 2.061 1_556 S
O62 C65 1.235 . S
C63 O66 1.238 . S
C63 O67 1.241 . S
C64 O57 1.247 . S
C64 O58 1.261 . S
C65 O60 1.259 . S
C65 O62 1.235 . S
O66 Co56 2.021 . S
O66 C63 1.238 . S
O67 Co61 2.052 1_556 S
O67 C63 1.241 . S
O68 Co56 2.137 . S
O68 C59 1.247 . S
O69 Co56 2.244 . S
O69 C59 1.272 . S
O69 Co61 2.135 1_556 S
Co70 O71 2.216 . S
Co70 O72 2.091 . S
Co70 O74 2.004 . S
Co70 O80 2.021 . S
Co70 O82 2.137 . S
Co70 O83 2.244 . S
O71 Co70 2.216 . S
O71 C78 1.247 . S
O72 Co70 2.091 . S
O72 C78 1.261 . S
C73 O82 1.247 . S
C73 O83 1.272 . S
O74 Co70 2.004 . S
O74 C79 1.259 . S
Co75 O76 2.061 1_556 S
Co75 O81 2.052 1_556 S
Co75 O83 2.135 1_556 S
O76 Co75 2.061 1_554 S
O76 C79 1.235 . S
C77 O80 1.238 . S
C77 O81 1.241 . S
C78 O71 1.247 . S
C78 O72 1.261 . S
C79 O74 1.259 . S
C79 O76 1.235 . S
O80 Co70 2.021 . S
O80 C77 1.238 . S
O81 Co75 2.052 1_554 S
O81 C77 1.241 . S
O82 Co70 2.137 . S
O82 C73 1.247 . S
O83 Co70 2.244 . S
O83 C73 1.272 . S
O83 Co75 2.135 1_554 S
Co84 O85 2.216 . S
Co84 O86 2.091 . S
Co84 O88 2.004 . S
Co84 O94 2.021 . S
Co84 O96 2.137 . S
Co84 O97 2.244 . S
O85 Co84 2.216 . S
O85 C92 1.247 . S
O86 Co84 2.091 . S
O86 C92 1.261 . S
C87 O96 1.247 . S
C87 O97 1.272 . S
O88 Co84 2.004 . S
O88 C93 1.259 . S
Co89 O90 2.061 . S
Co89 O95 2.052 . S
Co89 O97 2.135 . S
O90 Co89 2.061 . S
O90 C93 1.235 . S
C91 O94 1.238 . S
C91 O95 1.241 . S
C92 O85 1.247 . S
C92 O86 1.261 . S
C93 O88 1.259 . S
C93 O90 1.235 . S
O94 Co84 2.021 . S
O94 C91 1.238 . S
O95 Co89 2.052 . S
O95 C91 1.241 . S
O96 Co84 2.137 . S
O96 C87 1.247 . S
O97 Co84 2.244 . S
O97 C87 1.272 . S
O97 Co89 2.135 . S
Co98 O99 2.216 . S
Co98 O100 2.091 . S
Co98 O102 2.004 . S
Co98 O108 2.021 . S
Co98 O110 2.137 . S
Co98 O111 2.244 . S
O99 Co98 2.216 . S
O99 C106 1.247 . S
O100 Co98 2.091 . S
O100 C106 1.261 . S
C101 O110 1.247 . S
C101 O111 1.272 . S
O102 Co98 2.004 . S
O102 C107 1.259 . S
Co103 O104 2.061 . S
Co103 O109 2.052 . S
Co103 O111 2.135 . S
O104 Co103 2.061 . S
O104 C107 1.235 . S
C105 O108 1.238 . S
C105 O109 1.241 . S
C106 O99 1.247 . S
C106 O100 1.261 . S
C107 O102 1.259 . S
C107 O104 1.235 . S
O108 Co98 2.021 . S
O108 C105 1.238 . S
O109 Co103 2.052 . S
O109 C105 1.241 . S
O110 Co98 2.137 . S
O110 C101 1.247 . S
O111 Co98 2.244 . S
O111 C101 1.272 . S
O111 Co103 2.135 . S
Co112 O113 2.216 . S
Co112 O114 2.091 . S
Co112 O116 2.004 . S
Co112 O122 2.021 . S
Co112 O124 2.137 . S
Co112 O125 2.254 . S
O113 Co112 2.216 . S
O113 C120 1.247 . S
O114 Co112 2.091 . S
O114 C120 1.261 . S
C115 O124 1.247 . S
C115 O125 1.274 . S
O116 Co112 2.004 . S
O116 C121 1.259 . S
Co117 O118 2.061 1_554 S
Co117 O123 2.052 1_554 S
Co117 O125 2.131 1_554 S
O118 Co117 2.061 1_556 S
O118 C121 1.235 . S
C119 O122 1.238 . S
C119 O123 1.241 . S
C120 O113 1.247 . S
C120 O114 1.261 . S
C121 O116 1.259 . S
C121 O118 1.235 . S
O122 Co112 2.021 . S
O122 C119 1.238 . S
O123 Co117 2.052 1_556 S
O123 C119 1.241 . S
O124 Co112 2.137 . S
O124 C115 1.247 . S
O125 Co112 2.254 . S
O125 C115 1.274 . S
O125 Co117 2.131 1_556 S
Co126 O127 2.216 . S
Co126 O128 2.091 . S
Co126 O130 2.004 . S
Co126 O136 2.021 . S
Co126 O138 2.137 . S
Co126 O139 2.244 . S
O127 Co126 2.216 . S
O127 C134 1.247 . S
O128 Co126 2.091 . S
O128 C134 1.261 . S
C129 O138 1.247 . S
C129 O139 1.272 . S
O130 Co126 2.004 . S
O130 C135 1.259 . S
Co131 O132 2.061 . S
Co131 O137 2.052 . S
Co131 O139 2.135 . S
O132 Co131 2.061 . S
O132 C135 1.235 . S
C133 O136 1.238 . S
C133 O137 1.241 . S
C134 O127 1.247 . S
C134 O128 1.261 . S
C135 O130 1.259 . S
C135 O132 1.235 . S
O136 Co126 2.021 . S
O136 C133 1.238 . S
O137 Co131 2.052 . S
O137 C133 1.241 . S
O138 Co126 2.137 . S
O138 C129 1.247 . S
O139 Co126 2.244 . S
O139 C129 1.272 . S
O139 Co131 2.135 . S
Co140 O141 2.216 . S
Co140 O142 2.091 . S
Co140 O144 2.004 . S
Co140 O150 2.021 . S
Co140 O152 2.137 . S
Co140 O153 2.244 . S
O141 Co140 2.216 . S
O141 C148 1.247 . S
O142 Co140 2.091 . S
O142 C148 1.261 . S
C143 O152 1.247 . S
C143 O153 1.272 . S
O144 Co140 2.004 . S
O144 C149 1.259 . S
Co145 O146 2.061 . S
Co145 O151 2.052 . S
Co145 O153 2.135 . S
O146 Co145 2.061 . S
O146 C149 1.235 . S
C147 O150 1.238 . S
C147 O151 1.241 . S
C148 O141 1.247 . S
C148 O142 1.261 . S
C149 O144 1.259 . S
C149 O146 1.235 . S
O150 Co140 2.021 . S
O150 C147 1.238 . S
O151 Co145 2.052 . S
O151 C147 1.241 . S
O152 Co140 2.137 . S
O152 C143 1.247 . S
O153 Co140 2.244 . S
O153 C143 1.272 . S
O153 Co145 2.135 . S
Co154 O155 2.216 . S
Co154 O156 2.091 1_554 S
Co154 O158 2.004 . S
Co154 O164 2.021 . S
Co154 O166 2.137 . S
Co154 O167 2.244 . S
O155 Co154 2.216 . S
O155 C162 1.247 . S
O156 Co154 2.091 1_556 S
O156 C162 1.261 1_556 S
C157 O166 1.247 . S
C157 O167 1.272 . S
O158 Co154 2.004 . S
O158 C163 1.259 . S
Co159 O160 2.061 . S
Co159 O165 2.052 . S
Co159 O167 2.135 . S
O160 Co159 2.061 . S
O160 C163 1.235 . S
C161 O164 1.238 . S
C161 O165 1.241 . S
C162 O155 1.247 . S
C162 O156 1.261 1_554 S
C163 O158 1.259 . S
C163 O160 1.235 . S
O164 Co154 2.021 . S
O164 C161 1.238 . S
O165 Co159 2.052 . S
O165 C161 1.241 . S
O166 Co154 2.137 . S
O166 C157 1.247 . S
O167 Co154 2.244 . S
O167 C157 1.272 . S
O167 Co159 2.135 . S
Co168 O169 2.216 . S
Co168 O170 2.091 . S
Co168 O172 2.004 . S
Co168 O178 2.021 . S
Co168 O180 2.137 . S
Co168 O181 2.244 . S
O169 Co168 2.216 . S
O169 C176 1.247 . S
O170 Co168 2.091 . S
O170 C176 1.261 . S
C171 O180 1.247 . S
C171 O181 1.272 . S
O172 Co168 2.004 . S
O172 C177 1.259 . S
Co173 O174 2.061 1_556 S
Co173 O179 2.052 1_556 S
Co173 O181 2.135 1_556 S
O174 Co173 2.061 1_554 S
O174 C177 1.235 . S
C175 O178 1.238 . S
C175 O179 1.241 . S
C176 O169 1.247 . S
C176 O170 1.261 . S
C177 O172 1.259 . S
C177 O174 1.235 . S
O178 Co168 2.021 . S
O178 C175 1.238 . S
O179 Co173 2.052 1_554 S
O179 C175 1.241 . S
O180 Co168 2.137 . S
O180 C171 1.247 . S
O181 Co168 2.244 . S
O181 C171 1.272 . S
O181 Co173 2.135 1_554 S
Co182 O183 2.216 . S
Co182 O184 2.091 . S
Co182 O186 2.004 . S
Co182 O192 2.021 . S
Co182 O194 2.137 . S
Co182 O195 2.241 1_556 S
O183 Co182 2.216 . S
O183 C190 1.247 . S
O184 Co182 2.091 . S
O184 C190 1.261 . S
C185 O194 1.247 . S
C185 O195 1.271 1_556 S
O186 Co182 2.004 . S
O186 C191 1.259 . S
Co187 O188 2.061 1_554 S
Co187 O193 2.052 1_554 S
Co187 O195 2.136 . S
O188 Co187 2.061 1_556 S
O188 C191 1.235 . S
C189 O192 1.238 . S
C189 O193 1.241 . S
C190 O183 1.247 . S
C190 O184 1.261 . S
C191 O186 1.259 . S
C191 O188 1.235 . S
O192 Co182 2.021 . S
O192 C189 1.238 . S
O193 Co187 2.052 1_556 S
O193 C189 1.241 . S
O194 Co182 2.137 . S
O194 C185 1.247 . S
O195 Co182 2.241 1_554 S
O195 C185 1.271 1_554 S
O195 Co187 2.136 . S
Co196 O197 2.216 . S
Co196 O198 2.091 . S
Co196 O200 2.004 . S
Co196 O206 2.021 . S
Co196 O208 2.137 . S
Co196 O209 2.244 . S
O197 Co196 2.216 . S
O197 C204 1.247 . S
O198 Co196 2.091 . S
O198 C204 1.261 . S
C199 O208 1.247 . S
C199 O209 1.272 . S
O200 Co196 2.004 . S
O200 C205 1.259 . S
Co201 O202 2.061 . S
Co201 O207 2.052 . S
Co201 O209 2.135 . S
O202 Co201 2.061 . S
O202 C205 1.235 . S
C203 O206 1.238 . S
C203 O207 1.241 . S
C204 O197 1.247 . S
C204 O198 1.261 . S
C205 O200 1.259 . S
C205 O202 1.235 . S
O206 Co196 2.021 . S
O206 C203 1.238 . S
O207 Co201 2.052 . S
O207 C203 1.241 . S
O208 Co196 2.137 . S
O208 C199 1.247 . S
O209 Co196 2.244 . S
O209 C199 1.272 . S
O209 Co201 2.135 . S
Co210 O211 2.216 . S
Co210 O212 2.091 . S
Co210 O214 2.004 . S
Co210 O220 2.021 . S
Co210 O222 2.137 . S
Co210 O223 2.244 . S
O211 Co210 2.216 . S
O211 C218 1.247 . S
O212 Co210 2.091 . S
O212 C218 1.261 . S
C213 O222 1.247 . S
C213 O223 1.272 . S
O214 Co210 2.004 . S
O214 C219 1.259 . S
Co215 O216 2.061 . S
Co215 O221 2.052 . S
Co215 O223 2.135 . S
O216 Co215 2.061 . S
O216 C219 1.235 . S
C217 O220 1.238 . S
C217 O221 1.241 . S
C218 O211 1.247 . S
C218 O212 1.261 . S
C219 O214 1.259 . S
C219 O216 1.235 . S
O220 Co210 2.021 . S
O220 C217 1.238 . S
O221 Co215 2.052 . S
O221 C217 1.241 . S
O222 Co210 2.137 . S
O222 C213 1.247 . S
O223 Co210 2.244 . S
O223 C213 1.272 . S
O223 Co215 2.135 . S
C163 C7 1.430 . S
C217 C23 1.495 . S
C35 C133 1.363 . S
C191 C51 1.224 1_455 S
C63 C189 1.351 . S
C79 C161 1.525 1_655 S
C91 C219 1.465 . S
C107 C135 1.213 . S
C49 C119 1.441 . S
C149 C21 1.344 . S
C175 C77 1.481 . S
C205 C105 1.326 . S
C65 C121 1.310 1_455 S
C147 C93 1.449 . S
C203 C37 1.445 . S
C9 C177 1.291 1_455 S
C3 C59 1.265 1_554 S
C22 C78 1.498 . S
C31 C87 1.444 . S
C106 C50 1.350 . S
C115 C171 1.412 1_556 S
C190 C134 1.310 . S
C148 C204 1.261 . S
C213 C157 1.486 . S
C101 C17 1.336 1_545 S
C36 C64 1.474 . S
C45 C73 1.396 1_546 S
C8 C92 1.353 . S
C129 C218 1.313 1_545 S
C176 C143 1.412 . S
C162 C185 1.354 1_564 S
C199 C120 1.377 . S
