# Generated by pormake.
# Topology dmp, (4)-cn, num edge types: 1
# Building blocks:
#     Node 0, Type 0, BuildingBlock: ESEHIV_clean_sbu_0, # of connection points: 4
#     Node 1, Type 0, BuildingBlock: ESEHIV_clean_sbu_0, # of connection points: 4
#     Node 2, Type 0, BuildingBlock: ESEHIV_clean_sbu_0, # of connection points: 4
#     Node 3, Type 0, BuildingBlock: ESEHIV_clean_sbu_0, # of connection points: 4
#     Edge 4, Type (0, 0), BuildingBlock: OJICUG_clean_linker_0, # of connection points: 2
#     Edge 5, Type (0, 0), BuildingBlock: OJICUG_clean_linker_0, # of connection points: 2
#     Edge 6, Type (0, 0), BuildingBlock: OJICUG_clean_linker_0, # of connection points: 2
#     Edge 7, Type (0, 0), BuildingBlock: OJICUG_clean_linker_0, # of connection points: 2
#     Edge 8, Type (0, 0), BuildingBlock: OJICUG_clean_linker_0, # of connection points: 2
#     Edge 9, Type (0, 0), BuildingBlock: OJICUG_clean_linker_0, # of connection points: 2
#     Edge 10, Type (0, 0), BuildingBlock: OJICUG_clean_linker_0, # of connection points: 2
#     Edge 11, Type (0, 0), BuildingBlock: OJICUG_clean_linker_0, # of connection points: 2
# Relax obj value: 0.000
# Max RMSD: 0.006
# Mean RMSD: 0.006
data_MOF--net-dmp--node1-ESEHIV_clean_sbu_0--edge1-OJICUG_clean_linker_0
_symmetry_space_group_name_H-M    P1
_symmetry_Int_Tables_number       1
_symmetry_cell_setting            triclinic
loop_
_symmetry_equiv_pos_as_xyz
'x, y, z'
_cell_length_a     29.362371
_cell_length_b     18.266964
_cell_length_c     5.0920323
_cell_angle_alpha  90.355278
_cell_angle_beta   89.085181
_cell_angle_gamma 101.59202
loop_
_atom_site_label
_atom_site_type_symbol
_atom_site_fract_x
_atom_site_fract_y
_atom_site_fract_z
_atom_type_partial_charge
Cu0 Cu 0.15646 0.28857 0.16429 0.0
N1 N 0.20177 0.25344 0.95175 0.0
N2 N 0.24544 0.16939 0.83304 0.0
C3 C 0.20423 0.18023 0.93235 0.0
C4 C 0.27039 0.23892 0.79117 0.0
C5 C 0.24401 0.28993 0.86942 0.0
O6 O 0.10977 0.19803 0.22837 0.0
C7 C 0.21475 0.40686 0.36846 0.0
O8 O 0.21078 0.4253 0.12256 0.0
H9 H 0.17798 0.13586 0.01405 0.0
H10 H 0.25671 0.34908 0.88626 0.0
N11 N 0.12048 0.35815 0.04682 0.0
N12 N 0.07329 0.43891 0.138 0.0
C13 C 0.10994 0.41047 0.21416 0.0
C14 C 0.08885 0.35407 0.85496 0.0
C15 C 0.05978 0.40323 0.91133 0.0
C16 C 0.09242 0.17031 0.01196 0.0
O17 O 0.10912 0.20198 0.791 0.0
H18 H 0.12609 0.42261 0.40241 0.0
H19 H 0.08466 0.31523 0.69277 0.0
O20 O 0.19221 0.34359 0.45008 0.0
H21 H 0.30619 0.2526 0.72358 0.0
H22 H 0.02966 0.40935 0.80051 0.0
Cu23 Cu 0.39707 0.77375 0.16299 0.0
N24 N 0.3523 0.80742 0.95147 0.0
N25 N 0.30868 0.89062 0.83424 0.0
C26 C 0.34997 0.8805 0.92668 0.0
C27 C 0.28355 0.82083 0.80239 0.0
C28 C 0.30986 0.77043 0.88002 0.0
O29 O 0.44285 0.86508 0.22717 0.0
C30 C 0.3385 0.65485 0.36707 0.0
O31 O 0.34396 0.63595 0.1213 0.0
H32 H 0.37625 0.92555 0.00098 0.0
H33 H 0.29697 0.71148 0.90364 0.0
N34 N 0.43429 0.70466 0.04679 0.0
N35 N 0.48137 0.62472 0.13908 0.0
C36 C 0.44427 0.65313 0.21525 0.0
C37 C 0.46687 0.70837 0.85452 0.0
C38 C 0.4959 0.65977 0.91173 0.0
C39 C 0.46146 0.89237 0.01093 0.0
O40 O 0.44637 0.85972 0.79014 0.0
H41 H 0.42728 0.64157 0.40413 0.0
H42 H 0.47168 0.74659 0.69132 0.0
O43 O 0.36016 0.71858 0.44831 0.0
H44 H 0.24766 0.80671 0.74268 0.0
H45 H 0.52659 0.6535 0.80068 0.0
Cu46 Cu 0.89657 0.77538 0.75 0.0
N47 N 0.85126 0.81052 -0.0375 0.0
N48 N 0.8076 0.89457 0.08117 0.0
C49 C 0.84881 0.88373 -0.01813 0.0
C50 C 0.78264 0.82505 0.12305 0.0
C51 C 0.80902 0.77404 0.04483 0.0
O52 O 0.94327 0.86592 0.68595 0.0
C53 C 0.83828 0.6571 0.54577 0.0
O54 O 0.84224 0.63865 0.79167 0.0
H55 H 0.87505 0.9281 0.90017 0.0
H56 H 0.79633 0.71488 0.028 0.0
N57 N 0.93254 0.70579 0.86752 0.0
N58 N 0.97972 0.62502 0.77638 0.0
C59 C 0.94308 0.65346 0.7002 0.0
C60 C 0.96417 0.70986 0.05939 0.0
C61 C 0.99323 0.66069 0.00306 0.0
C62 C 0.96062 0.89363 0.90236 0.0
O63 O 0.94391 0.86197 0.12332 0.0
H64 H 0.92693 0.64132 0.51194 0.0
H65 H 0.96836 0.74871 0.22158 0.0
O66 O 0.86082 0.72037 0.46417 0.0
H67 H 0.74684 0.81137 0.19064 0.0
H68 H 1.02335 0.65458 0.11389 0.0
Cu69 Cu 0.65596 0.2902 0.75097 0.0
N70 N 0.70073 0.25653 -0.03746 0.0
N71 N 0.74435 0.17335 0.07983 0.0
C72 C 0.70306 0.18346 -0.01264 0.0
C73 C 0.76949 0.24313 0.11166 0.0
C74 C 0.74317 0.29354 0.034 0.0
O75 O 0.61019 0.19886 0.68677 0.0
C76 C 0.71453 0.40911 0.54697 0.0
O77 O 0.70906 0.428 0.79274 0.0
H78 H 0.67679 0.13841 0.91307 0.0
H79 H 0.75606 0.35249 0.01036 0.0
N80 N 0.61873 0.35928 0.86712 0.0
N81 N 0.57164 0.4392 0.77478 0.0
C82 C 0.60875 0.41079 0.69864 0.0
C83 C 0.58615 0.35556 0.05938 0.0
C84 C 0.55712 0.40415 0.00213 0.0
C85 C 0.59158 0.17157 0.903 0.0
O86 O 0.60667 0.20423 0.12379 0.0
H87 H 0.62575 0.42236 0.50977 0.0
H88 H 0.58134 0.31735 0.22259 0.0
O89 O 0.69288 0.34538 0.4657 0.0
H90 H 0.80538 0.25726 0.17138 0.0
H91 H 0.52642 0.41042 0.11316 0.0
C92 C 0.24487 0.96234 0.81773 0.0
C93 C 0.29268 0.96078 0.81622 0.0
H94 H 0.19251 1.02862 0.81904 0.0
C95 C 0.32457 1.02955 0.80627 0.0
H96 H 0.21894 0.91119 0.82602 0.0
C97 C 0.30924 0.09753 0.80663 0.0
C98 C 0.26144 0.09911 0.81576 0.0
H99 H 0.3616 1.03117 0.80012 0.0
H100 H 0.33517 0.14872 0.80608 0.0
C101 C 0.22954 1.0303 0.81687 0.0
C102 C 0.22914 0.53208 0.56244 0.0
C103 C 0.24342 0.46346 0.53436 0.0
H104 H 0.24989 0.65095 0.53232 0.0
C105 C 0.2909 0.46243 0.55066 0.0
H106 H 0.19277 0.53441 0.54444 0.0
C107 C 0.3237 0.52947 0.55564 0.0
C108 C 0.30946 0.59811 0.53376 0.0
H109 H 0.30306 0.41077 0.51979 0.0
H110 H 0.36008 0.52712 0.53204 0.0
C111 C 0.26197 0.59918 0.55747 0.0
C112 C 0.72847 0.03442 0.10788 0.0
C113 C 0.76036 0.10319 0.09788 0.0
H114 H 0.71787 0.91525 0.10814 0.0
C115 C 0.80816 0.10163 0.09636 0.0
H116 H 0.69143 0.0328 0.11404 0.0
C117 C 0.82349 0.03367 0.09725 0.0
C118 C 0.7916 0.96486 0.09842 0.0
H119 H 0.83409 0.15278 0.08804 0.0
H120 H 0.86053 0.03535 0.09507 0.0
C121 C 0.74379 0.96644 0.10756 0.0
C122 C 0.82389 0.53189 0.3517 0.0
C123 C 0.80961 0.60051 0.37984 0.0
H124 H 0.80314 0.41302 0.38171 0.0
C125 C 0.76213 0.60154 0.36354 0.0
H126 H 0.86026 0.52956 0.3697 0.0
C127 C 0.72934 0.5345 0.35849 0.0
C128 C 0.74357 0.46585 0.38032 0.0
H129 H 0.74997 0.6532 0.39446 0.0
H130 H 0.69295 0.53685 0.3821 0.0
C131 C 0.79106 0.46479 0.3566 0.0
C132 C 0.0264 0.09038 0.783 0.0
C133 C 0.05732 0.10074 -0.00498 0.0
H134 H 0.9715 1.01608 0.585 0.0
C135 C 0.0573 0.04178 0.16867 0.0
H136 H 1.02604 0.13518 0.64499 0.0
C137 C 0.02664 0.97356 0.13133 0.0
C138 C 0.99572 0.9632 0.91931 0.0
H139 H 0.08154 0.04787 0.32933 0.0
H140 H 0.02699 0.92876 0.26934 0.0
C141 C 0.99574 1.02216 0.74565 0.0
C142 C 0.52566 0.08971 0.1355 0.0
C143 C 0.55699 0.10127 0.92013 0.0
H144 H 0.47086 1.01397 0.33564 0.0
C145 C 0.55768 0.04297 0.74199 0.0
H146 H 0.52468 0.13398 0.2769 0.0
C147 C 0.52738 0.97422 0.77843 0.0
C148 C 0.49605 0.96267 -0.0062 0.0
H149 H 0.58218 0.04997 0.57828 0.0
H150 H 0.52836 0.92996 0.63702 0.0
C151 C 0.49536 1.02097 0.17193 0.0
C152 C 0.97837 0.52456 0.44401 0.0
C153 C 1.00324 0.57645 0.62192 0.0
H154 H 0.98088 0.44105 0.14921 0.0
C155 C 0.05171 0.58297 0.6337 0.0
H156 H 0.94104 0.51763 0.43094 0.0
C157 C 0.07464 0.53937 0.47039 0.0
C158 C 0.04978 0.48747 0.29248 0.0
H159 H 0.07214 0.62287 0.76519 0.0
H160 H 0.11198 0.5463 0.48347 0.0
C161 C 1.0013 0.48096 0.2807 0.0
C162 C 0.55263 0.58284 0.28089 0.0
C163 C 0.5041 0.57637 0.29307 0.0
H164 H 0.6121 0.54623 0.43006 0.0
C165 C 0.47831 0.52459 0.47047 0.0
H166 H 0.57373 0.62265 0.14971 0.0
C167 C 0.50038 0.48107 0.63294 0.0
C168 C 0.54891 0.48755 0.62077 0.0
H169 H 0.44091 0.51769 0.48377 0.0
H170 H 0.47928 0.44127 0.76413 0.0
C171 C 0.5747 0.53933 0.44337 0.0
loop_
_geom_bond_atom_site_label_1
_geom_bond_atom_site_label_2
_geom_bond_distance
_geom_bond_site_symmetry_2
_ccdc_geom_bond_type
Cu0 N1 1.999 . S
Cu0 O6 1.974 . S
Cu0 N11 1.985 . S
Cu0 O20 1.959 . S
N1 Cu0 1.999 . S
N1 C3 1.263 . S
N1 C5 1.389 . S
N2 C3 1.358 . S
N2 C4 1.400 . S
C3 N1 1.263 . S
C3 N2 1.358 . S
C3 H9 0.930 . S
C4 N2 1.400 . S
C4 C5 1.351 . S
C4 H21 0.930 . S
C5 N1 1.389 . S
C5 C4 1.351 . S
C5 H10 0.930 . S
O6 Cu0 1.974 . S
O6 C16 1.282 . S
C7 O8 1.261 1_554 S
C7 O20 1.251 . S
O8 C7 1.261 1_556 S
H9 C3 0.930 . S
H10 C5 0.930 . S
N11 Cu0 1.985 . S
N11 C13 1.335 . S
N11 C14 1.390 . S
N12 C13 1.345 . S
N12 C15 1.336 . S
C13 N11 1.335 . S
C13 N12 1.345 . S
C13 H18 0.930 . S
C14 N11 1.390 . S
C14 C15 1.346 . S
C14 H19 0.930 . S
C15 N12 1.336 . S
C15 C14 1.346 . S
C15 H22 0.929 1_455 S
C16 O6 1.282 . S
C16 O17 1.216 1_554 S
O17 C16 1.216 1_556 S
H18 C13 0.930 . S
H19 C14 0.930 . S
O20 Cu0 1.959 . S
O20 C7 1.251 . S
H21 C4 0.930 . S
H22 C15 0.929 1_655 S
Cu23 N24 1.999 . S
Cu23 O29 1.974 . S
Cu23 N34 1.985 . S
Cu23 O43 1.959 . S
N24 Cu23 1.999 . S
N24 C26 1.263 . S
N24 C28 1.389 . S
N25 C26 1.358 . S
N25 C27 1.400 . S
C26 N24 1.263 . S
C26 N25 1.358 . S
C26 H32 0.930 . S
C27 N25 1.400 . S
C27 C28 1.351 . S
C27 H44 0.930 . S
C28 N24 1.389 . S
C28 C27 1.351 . S
C28 H33 0.930 . S
O29 Cu23 1.974 . S
O29 C39 1.282 . S
C30 O31 1.261 1_554 S
C30 O43 1.251 . S
O31 C30 1.261 1_556 S
H32 C26 0.930 . S
H33 C28 0.930 . S
N34 Cu23 1.985 . S
N34 C36 1.335 . S
N34 C37 1.390 . S
N35 C36 1.345 . S
N35 C38 1.336 . S
C36 N34 1.335 . S
C36 N35 1.345 . S
C36 H41 0.930 . S
C37 N34 1.390 . S
C37 C38 1.346 . S
C37 H42 0.930 . S
C38 N35 1.336 . S
C38 C37 1.346 . S
C38 H45 0.929 . S
C39 O29 1.282 . S
C39 O40 1.216 1_554 S
O40 C39 1.216 1_556 S
H41 C36 0.930 . S
H42 C37 0.930 . S
O43 Cu23 1.959 . S
O43 C30 1.251 . S
H44 C27 0.930 . S
H45 C38 0.929 . S
Cu46 N47 1.999 . S
Cu46 O52 1.974 . S
Cu46 N57 1.985 . S
Cu46 O66 1.959 . S
N47 Cu46 1.999 . S
N47 C49 1.263 . S
N47 C51 1.389 . S
N48 C49 1.358 . S
N48 C50 1.400 . S
C49 N47 1.263 . S
C49 N48 1.358 . S
C49 H55 0.930 . S
C50 N48 1.400 . S
C50 C51 1.351 . S
C50 H67 0.930 . S
C51 N47 1.389 . S
C51 C50 1.351 . S
C51 H56 0.930 . S
O52 Cu46 1.974 . S
O52 C62 1.282 . S
C53 O54 1.261 1_556 S
C53 O66 1.251 . S
O54 C53 1.261 1_554 S
H55 C49 0.930 . S
H56 C51 0.930 . S
N57 Cu46 1.985 . S
N57 C59 1.335 . S
N57 C60 1.390 . S
N58 C59 1.345 . S
N58 C61 1.336 . S
C59 N57 1.335 . S
C59 N58 1.345 . S
C59 H64 0.930 . S
C60 N57 1.390 . S
C60 C61 1.346 . S
C60 H65 0.930 . S
C61 N58 1.336 . S
C61 C60 1.346 . S
C61 H68 0.929 1_655 S
C62 O52 1.282 . S
C62 O63 1.216 1_556 S
O63 C62 1.216 1_554 S
H64 C59 0.930 . S
H65 C60 0.930 . S
O66 Cu46 1.959 . S
O66 C53 1.251 . S
H67 C50 0.930 . S
H68 C61 0.929 1_455 S
Cu69 N70 1.999 . S
Cu69 O75 1.974 . S
Cu69 N80 1.985 . S
Cu69 O89 1.959 . S
N70 Cu69 1.999 . S
N70 C72 1.263 . S
N70 C74 1.389 . S
N71 C72 1.358 . S
N71 C73 1.400 . S
C72 N70 1.263 . S
C72 N71 1.358 . S
C72 H78 0.930 . S
C73 N71 1.400 . S
C73 C74 1.351 . S
C73 H90 0.930 . S
C74 N70 1.389 . S
C74 C73 1.351 . S
C74 H79 0.930 . S
O75 Cu69 1.974 . S
O75 C85 1.282 . S
C76 O77 1.261 1_556 S
C76 O89 1.251 . S
O77 C76 1.261 1_554 S
H78 C72 0.930 . S
H79 C74 0.930 . S
N80 Cu69 1.985 . S
N80 C82 1.335 . S
N80 C83 1.390 . S
N81 C82 1.345 . S
N81 C84 1.336 . S
C82 N80 1.335 . S
C82 N81 1.345 . S
C82 H87 0.930 . S
C83 N80 1.390 . S
C83 C84 1.346 . S
C83 H88 0.930 . S
C84 N81 1.336 . S
C84 C83 1.346 . S
C84 H91 0.929 . S
C85 O75 1.282 . S
C85 O86 1.216 1_556 S
O86 C85 1.216 1_554 S
H87 C82 0.930 . S
H88 C83 0.930 . S
O89 Cu69 1.959 . S
O89 C76 1.251 . S
H90 C73 0.930 . S
H91 C84 0.929 . S
C92 C93 1.387 . S
C92 H96 0.950 . S
C92 C101 1.390 1_565 S
C93 C92 1.387 . S
C93 C95 1.387 1_554 S
H94 C101 0.950 . S
C95 C93 1.387 1_556 S
C95 C97 1.390 1_565 S
C95 H99 0.950 . S
H96 C92 0.950 . S
C97 C95 1.390 1_545 S
C97 C98 1.387 1_556 S
C97 H100 0.950 . S
C98 C97 1.387 1_554 S
C98 C101 1.387 . S
H99 C95 0.950 . S
H100 C97 0.950 . S
C101 C92 1.390 1_545 S
C101 H94 0.950 . S
C101 C98 1.387 . S
C102 C103 1.387 . S
C102 H106 0.950 . S
C102 C111 1.390 . S
C103 C102 1.387 . S
C103 C105 1.387 . S
H104 C111 0.950 . S
C105 C103 1.387 . S
C105 C107 1.390 . S
C105 H109 0.950 1_554 S
H106 C102 0.950 . S
C107 C105 1.390 . S
C107 C108 1.387 . S
C107 H110 0.950 1_554 S
C108 C107 1.387 . S
C108 C111 1.387 . S
H109 C105 0.950 1_556 S
H110 C107 0.950 1_556 S
C111 C102 1.390 . S
C111 H104 0.950 . S
C111 C108 1.387 . S
C112 C113 1.387 1_554 S
C112 H116 0.950 . S
C112 C121 1.390 1_545 S
C113 C112 1.387 1_556 S
C113 C115 1.387 . S
H114 C121 0.950 . S
C115 C113 1.387 . S
C115 C117 1.390 1_545 S
C115 H119 0.950 . S
H116 C112 0.950 . S
C117 C115 1.390 1_565 S
C117 C118 1.387 . S
C117 H120 0.950 . S
C118 C117 1.387 . S
C118 C121 1.387 1_556 S
H119 C115 0.950 . S
H120 C117 0.950 . S
C121 C112 1.390 1_565 S
C121 H114 0.950 . S
C121 C118 1.387 1_554 S
C122 C123 1.387 . S
C122 H126 0.950 1_556 S
C122 C131 1.390 . S
C123 C122 1.387 . S
C123 C125 1.387 . S
H124 C131 0.950 1_554 S
C125 C123 1.387 . S
C125 C127 1.390 . S
C125 H129 0.950 . S
H126 C122 0.950 1_554 S
C127 C125 1.390 . S
C127 C128 1.387 . S
C127 H130 0.950 . S
C128 C127 1.387 . S
C128 C131 1.387 . S
H129 C125 0.950 . S
H130 C127 0.950 . S
C131 C122 1.390 . S
C131 H124 0.950 1_556 S
C131 C128 1.387 . S
C132 C133 1.387 1_556 S
C132 H136 0.950 . S
C132 C141 1.390 1_445 S
C133 C132 1.387 1_554 S
C133 C135 1.387 . S
H134 C141 0.950 . S
C135 C133 1.387 . S
C135 C137 1.390 1_445 S
C135 H139 0.950 . S
H136 C132 0.950 . S
C137 C135 1.390 1_665 S
C137 C138 1.387 1_554 S
C137 H140 0.950 . S
C138 C137 1.387 1_556 S
C138 C141 1.387 . S
H139 C135 0.950 . S
H140 C137 0.950 . S
C141 C132 1.390 1_665 S
C141 H134 0.950 . S
C141 C138 1.387 . S
C142 C143 1.387 1_554 S
C142 H146 0.950 . S
C142 C151 1.390 1_545 S
C143 C142 1.387 1_556 S
C143 C145 1.387 . S
H144 C151 0.950 . S
C145 C143 1.387 . S
C145 C147 1.390 1_545 S
C145 H149 0.950 . S
H146 C142 0.950 . S
C147 C145 1.390 1_565 S
C147 C148 1.387 1_556 S
C147 H150 0.950 . S
C148 C147 1.387 1_554 S
C148 C151 1.387 . S
H149 C145 0.950 . S
H150 C147 0.950 . S
C151 C142 1.390 1_565 S
C151 H144 0.950 . S
C151 C148 1.387 . S
C152 C153 1.387 . S
C152 H156 0.950 . S
C152 C161 1.390 1_655 S
C153 C152 1.387 . S
C153 C155 1.387 . S
H154 C161 0.950 . S
C155 C153 1.387 . S
C155 C157 1.390 1_655 S
C155 H159 0.950 . S
H156 C152 0.950 . S
C157 C155 1.390 1_455 S
C157 C158 1.387 . S
C157 H160 0.950 . S
C158 C157 1.387 . S
C158 C161 1.387 . S
H159 C155 0.950 . S
H160 C157 0.950 . S
C161 C152 1.390 1_455 S
C161 H154 0.950 . S
C161 C158 1.387 . S
C162 C163 1.387 . S
C162 H166 0.950 . S
C162 C171 1.390 . S
C163 C162 1.387 . S
C163 C165 1.387 . S
H164 C171 0.950 . S
C165 C163 1.387 . S
C165 C167 1.390 . S
C165 H169 0.950 . S
H166 C162 0.950 . S
C167 C165 1.390 . S
C167 C168 1.387 . S
C167 H170 0.950 . S
C168 C167 1.387 . S
C168 C171 1.387 . S
H169 C165 0.950 . S
H170 C167 0.950 . S
C171 C162 1.390 . S
C171 H164 0.950 . S
C171 C168 1.387 . S
C93 N25 1.452 . S
C98 N2 1.452 . S
C103 C7 1.497 . S
C108 C30 1.497 . S
C113 N71 1.452 . S
C118 N48 1.452 . S
C123 C53 1.497 . S
C128 C76 1.497 . S
C133 C16 1.483 . S
C138 C62 1.483 . S
C143 C85 1.483 . S
C148 C39 1.483 . S
C153 N58 1.471 . S
C158 N12 1.471 . S
C163 N35 1.470 . S
C168 N81 1.470 . S
