# Generated by pormake.
# Topology lvt, (4)-cn, num edge types: 1
# Building blocks:
#     Node 0, Type 0, BuildingBlock: MUDLON_clean_sbu_0, # of connection points: 4
#     Node 1, Type 0, BuildingBlock: MUDLON_clean_sbu_0, # of connection points: 4
#     Node 2, Type 0, BuildingBlock: MUDLON_clean_sbu_0, # of connection points: 4
#     Node 3, Type 0, BuildingBlock: MUDLON_clean_sbu_0, # of connection points: 4
#     Node 4, Type 0, BuildingBlock: MUDLON_clean_sbu_0, # of connection points: 4
#     Node 5, Type 0, BuildingBlock: MUDLON_clean_sbu_0, # of connection points: 4
#     Node 6, Type 0, BuildingBlock: MUDLON_clean_sbu_0, # of connection points: 4
#     Node 7, Type 0, BuildingBlock: MUDLON_clean_sbu_0, # of connection points: 4
#     Edge 8, Type (0, 0), BuildingBlock: OJICUG_clean_linker_0, # of connection points: 2
#     Edge 9, Type (0, 0), BuildingBlock: OJICUG_clean_linker_0, # of connection points: 2
#     Edge 10, Type (0, 0), BuildingBlock: OJICUG_clean_linker_0, # of connection points: 2
#     Edge 11, Type (0, 0), BuildingBlock: OJICUG_clean_linker_0, # of connection points: 2
#     Edge 12, Type (0, 0), BuildingBlock: OJICUG_clean_linker_0, # of connection points: 2
#     Edge 13, Type (0, 0), BuildingBlock: OJICUG_clean_linker_0, # of connection points: 2
#     Edge 14, Type (0, 0), BuildingBlock: OJICUG_clean_linker_0, # of connection points: 2
#     Edge 15, Type (0, 0), BuildingBlock: OJICUG_clean_linker_0, # of connection points: 2
#     Edge 16, Type (0, 0), BuildingBlock: OJICUG_clean_linker_0, # of connection points: 2
#     Edge 17, Type (0, 0), BuildingBlock: OJICUG_clean_linker_0, # of connection points: 2
#     Edge 18, Type (0, 0), BuildingBlock: OJICUG_clean_linker_0, # of connection points: 2
#     Edge 19, Type (0, 0), BuildingBlock: OJICUG_clean_linker_0, # of connection points: 2
#     Edge 20, Type (0, 0), BuildingBlock: OJICUG_clean_linker_0, # of connection points: 2
#     Edge 21, Type (0, 0), BuildingBlock: OJICUG_clean_linker_0, # of connection points: 2
#     Edge 22, Type (0, 0), BuildingBlock: OJICUG_clean_linker_0, # of connection points: 2
#     Edge 23, Type (0, 0), BuildingBlock: OJICUG_clean_linker_0, # of connection points: 2
# Relax obj value: 0.001
# Max RMSD: 0.039
# Mean RMSD: 0.026
data_MOF--net-lvt--node1-MUDLON_clean_sbu_0--edge1-OJICUG_clean_linker_0
_symmetry_space_group_name_H-M    P1
_symmetry_Int_Tables_number       1
_symmetry_cell_setting            triclinic
loop_
_symmetry_equiv_pos_as_xyz
'x, y, z'
_cell_length_a     30.797604
_cell_length_b     31.042239
_cell_length_c     6.8703003
_cell_angle_alpha  90.05591
_cell_angle_beta   89.253903
_cell_angle_gamma 90.069584
loop_
_atom_site_label
_atom_site_type_symbol
_atom_site_fract_x
_atom_site_fract_y
_atom_site_fract_z
_atom_type_partial_charge
Mg0 Mg 0.04455 0.03608 0.58013 0.0
C1 C 0.11959 0.09581 0.50464 0.0
O2 O 0.12208 0.09054 0.69391 0.0
C3 C 0.97136 0.98934 0.35396 0.0
O4 O 0.95173 0.02682 0.36301 0.0
C5 C 0.9818 0.10828 0.59842 0.0
O6 O 0.99771 0.11147 0.42056 0.0
O7 O 0.9963 0.07891 0.70895 0.0
O8 O 0.09013 0.07573 0.41232 0.0
O9 O 0.08226 1.0015 0.79611 0.0
C10 C 0.10163 0.96818 0.73113 0.0
O11 O 0.09694 0.95797 0.54694 0.0
O12 O 1.00989 0.98601 0.41801 0.0
Mg13 Mg 0.26946 0.78154 0.28616 0.0
C14 C 0.21974 0.6991 0.18105 0.0
O15 O 0.22986 0.68777 0.35898 0.0
C16 C 0.33942 0.85012 0.33094 0.0
O17 O 0.32663 0.84834 0.51396 0.0
C18 C 0.21133 0.86114 0.21058 0.0
O19 O 0.22069 0.8719 0.39021 0.0
O20 O 0.22696 0.8266 0.13875 0.0
O21 O 0.23195 0.73568 0.11703 0.0
O22 O 0.31993 0.73414 0.23152 0.0
C23 C 0.35152 0.72595 0.34294 0.0
O24 O 0.35456 0.74633 0.50989 0.0
O25 O 0.32078 0.82638 0.20619 0.0
Mg26 Mg 0.54437 0.03328 0.07025 0.0
C27 C 0.48151 0.96097 0.08871 0.0
O28 O 0.49732 0.9577 0.91069 0.0
C29 C 0.60177 0.10115 0.22127 0.0
O30 O 0.5972 0.1113 0.03706 0.0
C31 C 0.61922 0.97353 0.99669 0.0
O32 O 0.62139 0.97894 0.18602 0.0
O33 O 0.58998 0.99355 0.90321 0.0
O34 O 0.49609 0.99042 0.19902 0.0
O35 O 0.50977 0.08327 0.90845 0.0
C36 C 0.47109 0.07995 0.84612 0.0
O37 O 0.45133 0.0425 0.85639 0.0
O38 O 0.58216 0.06794 0.2862 0.0
Mg39 Mg 0.29243 0.28514 0.99105 0.0
C40 C 0.23162 0.21954 0.11142 0.0
O41 O 0.22694 0.22517 0.92326 0.0
C42 C 0.3645 0.34738 0.95626 0.0
O43 O 0.35726 0.33513 0.77636 0.0
C44 C 0.23816 0.36476 0.90665 0.0
O45 O 0.27577 0.38354 0.93425 0.0
O46 O 0.23695 0.32378 0.89278 0.0
O47 O 0.25999 0.24221 0.19859 0.0
O48 O 0.32858 0.2385 0.81021 0.0
C49 C 0.36599 0.2308 0.88002 0.0
O50 O 0.3782 0.25229 0.03459 0.0
O51 O 0.34122 0.33118 0.09272 0.0
Mg52 Mg 0.76938 0.28735 0.7854 0.0
C53 C 0.85114 0.34339 0.83539 0.0
O54 O 0.85329 0.32455 0.00614 0.0
C55 C 0.71178 0.20794 0.70252 0.0
O56 O 0.72041 0.19744 0.88312 0.0
C57 C 0.83951 0.21897 0.83745 0.0
O58 O 0.82678 0.22125 0.02046 0.0
O59 O 0.8208 0.24221 0.71146 0.0
O60 O 0.82007 0.33413 0.7225 0.0
O61 O 0.73118 0.33351 0.62216 0.0
C62 C 0.71945 0.3702 0.68666 0.0
O63 O 0.73031 0.3817 0.86359 0.0
O64 O 0.72779 0.24238 0.63134 0.0
Mg65 Mg 0.79233 0.78388 0.49006 0.0
C66 C 0.86591 0.83844 0.38213 0.0
O67 O 0.87772 0.81705 0.53738 0.0
C68 C 0.73794 0.70416 0.40656 0.0
O69 O 0.77556 0.68546 0.43362 0.0
C70 C 0.86433 0.72186 0.45414 0.0
O71 O 0.85705 0.73425 0.27461 0.0
O72 O 0.84108 0.7379 0.59112 0.0
O73 O 0.82869 0.83059 0.3104 0.0
O74 O 0.75981 0.82689 0.69696 0.0
C75 C 0.73163 0.84947 0.60866 0.0
O76 O 0.72724 0.84366 0.42038 0.0
O77 O 0.73678 0.74512 0.3921 0.0
Mg78 Mg 0.55877 0.54818 0.04762 0.0
C79 C 0.49349 0.47947 0.09802 0.0
O80 O 0.50012 0.493 0.27651 0.0
C81 C 0.5926 0.61293 0.7412 0.0
O82 O 0.55818 0.63468 0.79836 0.0
C83 C 0.61756 0.48204 0.19546 0.0
O84 O 0.60872 0.46935 0.01777 0.0
O85 O 0.60116 0.51723 0.25642 0.0
O86 O 0.51473 0.49707 0.95884 0.0
O87 O 0.51693 0.59713 0.17698 0.0
C88 C 0.48259 0.6046 0.0818 0.0
O89 O 0.4765 0.58365 0.91806 0.0
O90 O 0.59935 0.57578 0.81372 0.0
Mg91 Mg 0.05849 0.52137 0.53977 0.0
C92 C 0.98242 0.46452 0.57262 0.0
O93 O 0.97651 0.48513 0.40807 0.0
C94 C 0.11752 0.58751 0.688 0.0
O95 O 0.10872 0.60023 0.51044 0.0
C96 C 0.09251 0.4563 0.23523 0.0
O97 O 0.05821 0.43444 0.29347 0.0
O98 O 0.09909 0.49368 0.30618 0.0
O99 O 1.01656 0.4724 0.66877 0.0
O100 O 1.01447 0.57242 0.45178 0.0
C101 C 0.99328 0.58986 0.59152 0.0
O102 O 0.99996 0.5762 0.76963 0.0
O103 O 0.10096 0.55235 0.74866 0.0
C104 C 0.18301 0.14709 0.50474 0.0
C105 C 0.14928 0.12647 0.40356 0.0
H106 H 0.23549 0.19274 0.49316 0.0
C107 C 0.14343 0.13648 0.20651 0.0
H108 H 0.18865 0.13988 0.6564 0.0
C109 C 0.17023 0.16666 0.1135 0.0
C110 C 0.20374 0.18758 0.21453 0.0
H111 H 0.11778 0.12139 0.12422 0.0
H112 H 0.16425 0.1739 0.96212 0.0
C113 C 0.20991 0.17739 0.41136 0.0
C114 C 0.13771 0.95268 0.05104 0.0
C115 C 0.12925 0.94112 0.85715 0.0
H116 H 0.17062 0.93668 0.31477 0.0
C117 C 0.14786 0.90317 0.7819 0.0
H118 H 0.12393 0.98176 0.11333 0.0
C119 C 0.1743 0.87739 0.89693 0.0
C120 C 0.18298 0.88886 0.09053 0.0
H121 H 0.14201 0.89318 0.63341 0.0
H122 H 0.18802 0.84843 0.83325 0.0
C123 C 0.16444 0.92684 0.16644 0.0
C124 C 0.43011 0.93309 0.34693 0.0
C125 C 0.44563 0.93234 0.15357 0.0
H126 H 0.38442 0.90764 0.55501 0.0
C127 C 0.42594 0.90439 0.01984 0.0
H128 H 0.44458 0.95426 0.45352 0.0
C129 C 0.3914 0.87794 0.07745 0.0
C130 C 0.37582 0.8786 0.27061 0.0
H131 H 0.43696 0.90308 0.86957 0.0
H132 H 0.37699 0.85691 0.97012 0.0
C133 C 0.39562 0.90638 0.405 0.0
C134 C 0.43862 0.1972 0.83943 0.0
C135 C 0.39349 0.1944 0.81441 0.0
H136 H 0.49874 0.1635 0.86408 0.0
C137 C 0.37521 0.15445 0.7653 0.0
H138 H 0.45359 0.22768 0.87651 0.0
C139 C 0.40113 0.11724 0.76086 0.0
C140 C 0.44574 0.11955 0.80381 0.0
H141 H 0.34047 0.15135 0.74657 0.0
H142 H 0.38566 0.0864 0.7362 0.0
C143 C 0.46451 0.1603 0.83278 0.0
C144 C 0.96462 0.90899 0.33957 0.0
C145 C 0.94599 0.94973 0.3104 0.0
H146 H 0.9535 0.84159 0.38194 0.0
C147 C 0.90147 0.95203 0.26577 0.0
H148 H 0.99879 0.9058 0.37209 0.0
C149 C 0.87548 0.91481 0.26869 0.0
C150 C 0.89359 0.87486 0.31793 0.0
H151 H 0.88611 0.98287 0.24091 0.0
H152 H 0.84079 0.9179 0.24871 0.0
C153 C 0.93865 0.87208 0.34466 0.0
C154 C 0.93032 0.13635 0.85601 0.0
C155 C 0.94588 0.13685 0.66267 0.0
H156 H 0.88456 0.16198 0.06334 0.0
C157 C 0.92618 0.16452 0.52823 0.0
H158 H 0.94482 0.11541 0.96312 0.0
C159 C 0.89159 0.19091 0.58508 0.0
C160 C 0.87597 0.19051 0.77821 0.0
H161 H 0.93722 0.16563 0.37797 0.0
H162 H 0.87718 0.2117 0.47716 0.0
C163 C 0.89579 0.16303 0.91336 0.0
C164 C 0.67504 0.19167 0.38783 0.0
C165 C 0.68352 0.18022 0.58152 0.0
H166 H 0.64273 0.17595 0.12399 0.0
C167 C 0.66471 0.14232 0.65705 0.0
H168 H 0.68896 0.22058 0.3245 0.0
C169 C 0.63788 0.11657 0.54133 0.0
C170 C 0.62956 0.12812 0.34746 0.0
H171 H 0.67073 0.13249 0.80543 0.0
H172 H 0.62388 0.08756 0.60341 0.0
C173 C 0.64847 0.16597 0.27246 0.0
C174 C 0.64346 0.93258 0.69979 0.0
C175 C 0.64901 0.94278 0.89692 0.0
H176 H 0.66461 0.89492 0.45656 0.0
C177 C 0.68251 0.92229 0.99949 0.0
H178 H 0.61798 0.94757 0.61646 0.0
C179 C 0.70951 0.89191 0.9074 0.0
C180 C 0.70364 0.88151 0.71048 0.0
H181 H 0.68792 0.92966 0.15127 0.0
H182 H 0.73491 0.87665 0.99025 0.0
C183 C 0.67035 0.90231 0.60806 0.0
C184 C 0.66498 0.61238 0.56774 0.0
C185 C 0.62652 0.63422 0.61855 0.0
H186 H 0.72995 0.61714 0.45607 0.0
C187 C 0.62271 0.67799 0.56768 0.0
H188 H 0.66888 0.57857 0.60212 0.0
C189 C 0.65785 0.70025 0.4835 0.0
C190 C 0.69758 0.67919 0.44801 0.0
H191 H 0.59338 0.69576 0.60258 0.0
H192 H 0.65468 0.73451 0.45767 0.0
C193 C 0.70003 0.63457 0.48325 0.0
C194 C 0.67847 0.4393 0.63318 0.0
C195 C 0.69397 0.39958 0.56193 0.0
H196 H 0.64203 0.49663 0.57395 0.0
C197 C 0.6848 0.38791 0.3691 0.0
H198 H 0.68507 0.44931 0.78093 0.0
C199 C 0.66047 0.41501 0.25083 0.0
C200 C 0.64453 0.4545 0.32207 0.0
H201 H 0.69632 0.35769 0.30891 0.0
H202 H 0.65389 0.4047 0.10346 0.0
C203 C 0.65389 0.46646 0.51454 0.0
C204 C 0.9198 0.38544 0.89226 0.0
C205 C 0.88503 0.37438 0.77097 0.0
H206 H 0.97812 0.42257 0.92494 0.0
C207 C 0.883 0.39292 0.58479 0.0
H208 H 0.92231 0.37174 0.03661 0.0
C209 C 0.9148 0.42188 0.5213 0.0
C210 C 0.94953 0.43307 0.64206 0.0
H211 H 0.85681 0.38506 0.48711 0.0
H212 H 0.91208 0.43544 0.37673 0.0
C213 C 0.95182 0.41448 0.82824 0.0
C214 C 0.90625 0.67445 0.68112 0.0
C215 C 0.89795 0.68883 0.49152 0.0
H216 H 0.94287 0.63204 0.86125 0.0
C217 C 0.92179 0.67084 0.33515 0.0
H218 H 0.88852 0.68763 0.80464 0.0
C219 C 0.9529 0.63895 0.36724 0.0
C220 C 0.96097 0.62429 0.55656 0.0
H221 H 0.91628 0.68118 0.18699 0.0
H222 H 0.97044 0.62565 0.24344 0.0
C223 C 0.93743 0.64255 0.71327 0.0
C224 C 0.45315 0.43052 0.87216 0.0
C225 C 0.46117 0.44501 0.06194 0.0
H226 H 0.41655 0.3884 0.69052 0.0
C227 C 0.43757 0.42658 0.218 0.0
H228 H 0.47073 0.44396 0.74883 0.0
C229 C 0.40637 0.39466 0.18478 0.0
C230 C 0.39812 0.38044 0.99473 0.0
H231 H 0.44297 0.43696 0.3663 0.0
H232 H 0.38861 0.38133 0.30783 0.0
C233 C 0.42202 0.39861 0.839 0.0
C234 C 0.42056 0.68459 0.39926 0.0
C235 C 0.38524 0.69471 0.27971 0.0
H236 H 0.47929 0.64818 0.43077 0.0
C237 C 0.38258 0.67511 0.09576 0.0
H238 H 0.42355 0.69911 0.54189 0.0
C239 C 0.41433 0.64615 0.03252 0.0
C240 C 0.44966 0.63595 0.15136 0.0
H241 H 0.35596 0.68221 0.99941 0.0
H242 H 0.41113 0.63182 0.88956 0.0
C243 C 0.45252 0.6555 0.33554 0.0
C244 C 0.17859 0.63006 0.12619 0.0
C245 C 0.19429 0.66976 0.05546 0.0
H246 H 0.14191 0.57281 0.06623 0.0
C247 C 0.18524 0.68146 0.86271 0.0
H248 H 0.1851 0.62001 0.27387 0.0
C249 C 0.16078 0.65444 0.74408 0.0
C250 C 0.14463 0.61498 0.81486 0.0
H251 H 0.1969 0.71168 0.80299 0.0
H252 H 0.15424 0.66479 0.59685 0.0
C253 C 0.15392 0.60296 0.00718 0.0
C254 C 0.15799 0.36869 0.98127 0.0
C255 C 0.19779 0.38974 0.94639 0.0
H256 H 0.09337 0.37327 0.09845 0.0
C257 C 0.20023 0.43443 0.98055 0.0
H258 H 0.15482 0.33438 0.95621 0.0
C259 C 0.16508 0.45672 0.06342 0.0
C260 C 0.12654 0.4349 0.11376 0.0
H261 H 0.23021 0.45185 0.95375 0.0
H262 H 0.16898 0.49059 0.09708 0.0
C263 C 0.12276 0.39104 0.06389 0.0
loop_
_geom_bond_atom_site_label_1
_geom_bond_atom_site_label_2
_geom_bond_distance
_geom_bond_site_symmetry_2
_ccdc_geom_bond_type
Mg0 O7 2.141 1_455 S
Mg0 O8 2.048 . S
Mg0 O9 2.048 1_545 S
Mg0 O12 2.141 1_445 S
C1 O2 1.313 . S
C1 O8 1.195 . S
O2 C1 1.313 . S
C3 O4 1.245 . S
C3 O12 1.289 . S
O4 C3 1.245 . S
C5 O6 1.245 . S
C5 O7 1.289 . S
O6 C5 1.245 . S
O7 Mg0 2.141 1_655 S
O7 C5 1.289 . S
O8 Mg0 2.048 . S
O8 C1 1.195 . S
O9 Mg0 2.048 1_565 S
O9 C10 1.195 . S
C10 O9 1.195 . S
C10 O11 1.313 . S
O11 C10 1.313 . S
O12 Mg0 2.141 1_665 S
O12 C3 1.289 . S
Mg13 O20 2.141 . S
Mg13 O21 2.048 . S
Mg13 O22 2.048 . S
Mg13 O25 2.141 . S
C14 O15 1.313 . S
C14 O21 1.195 . S
O15 C14 1.313 . S
C16 O17 1.245 1_556 S
C16 O25 1.289 . S
O17 C16 1.245 1_554 S
C18 O19 1.245 . S
C18 O20 1.289 . S
O19 C18 1.245 . S
O20 Mg13 2.141 . S
O20 C18 1.289 . S
O21 Mg13 2.048 . S
O21 C14 1.195 . S
O22 Mg13 2.048 . S
O22 C23 1.195 . S
C23 O22 1.195 . S
C23 O24 1.313 1_556 S
O24 C23 1.313 1_554 S
O25 Mg13 2.141 . S
O25 C16 1.289 . S
Mg26 O33 2.141 1_545 S
Mg26 O34 2.048 1_545 S
Mg26 O35 2.048 . S
Mg26 O38 2.141 . S
C27 O28 1.313 1_554 S
C27 O34 1.195 . S
O28 C27 1.313 1_556 S
C29 O30 1.245 . S
C29 O38 1.289 . S
O30 C29 1.245 . S
C31 O32 1.245 1_554 S
C31 O33 1.289 . S
O32 C31 1.245 1_556 S
O33 Mg26 2.141 1_565 S
O33 C31 1.289 . S
O34 Mg26 2.048 1_565 S
O34 C27 1.195 . S
O35 Mg26 2.048 . S
O35 C36 1.195 . S
C36 O35 1.195 . S
C36 O37 1.313 1_554 S
O37 C36 1.313 1_556 S
O38 Mg26 2.141 . S
O38 C29 1.289 . S
Mg39 O46 2.141 . S
Mg39 O47 2.048 . S
Mg39 O48 2.048 . S
Mg39 O51 2.141 . S
C40 O41 1.313 . S
C40 O47 1.195 . S
O41 C40 1.313 . S
C42 O43 1.245 . S
C42 O51 1.289 . S
O43 C42 1.245 . S
C44 O45 1.245 . S
C44 O46 1.289 . S
O45 C44 1.245 . S
O46 Mg39 2.141 . S
O46 C44 1.289 . S
O47 Mg39 2.048 . S
O47 C40 1.195 . S
O48 Mg39 2.048 . S
O48 C49 1.195 . S
C49 O48 1.195 . S
C49 O50 1.313 . S
O50 C49 1.313 . S
O51 Mg39 2.141 . S
O51 C42 1.289 . S
Mg52 O59 2.141 . S
Mg52 O60 2.048 . S
Mg52 O61 2.048 . S
Mg52 O64 2.141 . S
C53 O54 1.313 . S
C53 O60 1.195 . S
O54 C53 1.313 . S
C55 O56 1.245 . S
C55 O64 1.289 . S
O56 C55 1.245 . S
C57 O58 1.245 . S
C57 O59 1.289 . S
O58 C57 1.245 . S
O59 Mg52 2.141 . S
O59 C57 1.289 . S
O60 Mg52 2.048 . S
O60 C53 1.195 . S
O61 Mg52 2.048 . S
O61 C62 1.195 . S
C62 O61 1.195 . S
C62 O63 1.313 . S
O63 C62 1.313 . S
O64 Mg52 2.141 . S
O64 C55 1.289 . S
Mg65 O72 2.141 . S
Mg65 O73 2.048 . S
Mg65 O74 2.048 . S
Mg65 O77 2.141 . S
C66 O67 1.313 . S
C66 O73 1.195 . S
O67 C66 1.313 . S
C68 O69 1.245 1_556 S
C68 O77 1.289 . S
O69 C68 1.245 1_554 S
C70 O71 1.245 . S
C70 O72 1.289 . S
O71 C70 1.245 . S
O72 Mg65 2.141 . S
O72 C70 1.289 . S
O73 Mg65 2.048 . S
O73 C66 1.195 . S
O74 Mg65 2.048 . S
O74 C75 1.195 . S
C75 O74 1.195 . S
C75 O76 1.313 1_556 S
O76 C75 1.313 1_554 S
O77 Mg65 2.141 . S
O77 C68 1.289 . S
Mg78 O85 2.141 . S
Mg78 O86 2.048 . S
Mg78 O87 2.048 . S
Mg78 O90 2.141 . S
C79 O80 1.313 1_554 S
C79 O86 1.195 . S
O80 C79 1.313 1_556 S
C81 O82 1.245 . S
C81 O90 1.289 1_556 S
O82 C81 1.245 . S
C83 O84 1.245 1_554 S
C83 O85 1.289 . S
O84 C83 1.245 1_556 S
O85 Mg78 2.141 . S
O85 C83 1.289 . S
O86 Mg78 2.048 . S
O86 C79 1.195 . S
O87 Mg78 2.048 . S
O87 C88 1.195 1_554 S
C88 O87 1.195 1_556 S
C88 O89 1.313 . S
O89 C88 1.313 . S
O90 Mg78 2.141 . S
O90 C81 1.289 1_554 S
Mg91 O98 2.141 . S
Mg91 O99 2.048 1_455 S
Mg91 O100 2.048 1_455 S
Mg91 O103 2.141 . S
C92 O93 1.313 . S
C92 O99 1.195 . S
O93 C92 1.313 . S
C94 O95 1.245 . S
C94 O103 1.289 . S
O95 C94 1.245 . S
C96 O97 1.245 . S
C96 O98 1.289 . S
O97 C96 1.245 . S
O98 Mg91 2.141 . S
O98 C96 1.289 . S
O99 Mg91 2.048 1_655 S
O99 C92 1.195 . S
O100 Mg91 2.048 1_655 S
O100 C101 1.195 . S
C101 O100 1.195 . S
C101 O102 1.313 . S
O102 C101 1.313 . S
O103 Mg91 2.141 . S
O103 C94 1.289 . S
C104 C105 1.387 . S
C104 H108 0.950 . S
C104 C113 1.390 . S
C105 C104 1.387 . S
C105 C107 1.387 . S
H106 C113 0.950 . S
C107 C105 1.387 . S
C107 C109 1.390 . S
C107 H111 0.950 . S
H108 C104 0.950 . S
C109 C107 1.390 . S
C109 C110 1.387 . S
C109 H112 0.950 . S
C110 C109 1.387 . S
C110 C113 1.387 . S
H111 C107 0.950 . S
H112 C109 0.950 . S
C113 C104 1.390 . S
C113 H106 0.950 . S
C113 C110 1.387 . S
C114 C115 1.387 . S
C114 H118 0.950 1_556 S
C114 C123 1.390 . S
C115 C114 1.387 . S
C115 C117 1.387 . S
H116 C123 0.950 1_554 S
C117 C115 1.387 . S
C117 C119 1.390 . S
C117 H121 0.950 . S
H118 C114 0.950 1_554 S
C119 C117 1.390 . S
C119 C120 1.387 . S
C119 H122 0.950 . S
C120 C119 1.387 . S
C120 C123 1.387 . S
H121 C117 0.950 . S
H122 C119 0.950 . S
C123 C114 1.390 . S
C123 H116 0.950 1_556 S
C123 C120 1.387 . S
C124 C125 1.387 . S
C124 H128 0.950 . S
C124 C133 1.390 . S
C125 C124 1.387 . S
C125 C127 1.387 1_554 S
H126 C133 0.950 . S
C127 C125 1.387 1_556 S
C127 C129 1.390 . S
C127 H131 0.950 . S
H128 C124 0.950 . S
C129 C127 1.390 . S
C129 C130 1.387 . S
C129 H132 0.950 . S
C130 C129 1.387 . S
C130 C133 1.387 1_556 S
H131 C127 0.950 . S
H132 C129 0.950 . S
C133 C124 1.390 . S
C133 H126 0.950 . S
C133 C130 1.387 1_554 S
C134 C135 1.387 . S
C134 H138 0.950 . S
C134 C143 1.390 . S
C135 C134 1.387 . S
C135 C137 1.387 . S
H136 C143 0.950 . S
C137 C135 1.387 . S
C137 C139 1.390 . S
C137 H141 0.950 1_554 S
H138 C134 0.950 . S
C139 C137 1.390 . S
C139 C140 1.387 . S
C139 H142 0.950 1_554 S
C140 C139 1.387 . S
C140 C143 1.387 . S
H141 C137 0.950 1_556 S
H142 C139 0.950 1_556 S
C143 C134 1.390 . S
C143 H136 0.950 . S
C143 C140 1.387 . S
C144 C145 1.387 . S
C144 H148 0.950 1_556 S
C144 C153 1.390 . S
C145 C144 1.387 . S
C145 C147 1.387 . S
H146 C153 0.950 1_554 S
C147 C145 1.387 . S
C147 C149 1.390 . S
C147 H151 0.950 . S
H148 C144 0.950 1_554 S
C149 C147 1.390 . S
C149 C150 1.387 . S
C149 H152 0.950 . S
C150 C149 1.387 . S
C150 C153 1.387 . S
H151 C147 0.950 . S
H152 C149 0.950 . S
C153 C144 1.390 . S
C153 H146 0.950 1_556 S
C153 C150 1.387 . S
C154 C155 1.387 . S
C154 H158 0.950 . S
C154 C163 1.390 . S
C155 C154 1.387 . S
C155 C157 1.387 . S
H156 C163 0.950 . S
C157 C155 1.387 . S
C157 C159 1.390 . S
C157 H161 0.950 . S
H158 C154 0.950 . S
C159 C157 1.390 . S
C159 C160 1.387 . S
C159 H162 0.950 . S
C160 C159 1.387 . S
C160 C163 1.387 . S
H161 C157 0.950 . S
H162 C159 0.950 . S
C163 C154 1.390 . S
C163 H156 0.950 . S
C163 C160 1.387 . S
C164 C165 1.387 . S
C164 H168 0.950 . S
C164 C173 1.390 . S
C165 C164 1.387 . S
C165 C167 1.387 . S
H166 C173 0.950 . S
C167 C165 1.387 . S
C167 C169 1.390 . S
C167 H171 0.950 . S
H168 C164 0.950 . S
C169 C167 1.390 . S
C169 C170 1.387 . S
C169 H172 0.950 . S
C170 C169 1.387 . S
C170 C173 1.387 . S
H171 C167 0.950 . S
H172 C169 0.950 . S
C173 C164 1.390 . S
C173 H166 0.950 . S
C173 C170 1.387 . S
C174 C175 1.387 . S
C174 H178 0.950 . S
C174 C183 1.390 . S
C175 C174 1.387 . S
C175 C177 1.387 1_554 S
H176 C183 0.950 . S
C177 C175 1.387 1_556 S
C177 C179 1.390 . S
C177 H181 0.950 . S
H178 C174 0.950 . S
C179 C177 1.390 . S
C179 C180 1.387 . S
C179 H182 0.950 . S
C180 C179 1.387 . S
C180 C183 1.387 1_556 S
H181 C177 0.950 . S
H182 C179 0.950 . S
C183 C174 1.390 . S
C183 H176 0.950 . S
C183 C180 1.387 1_554 S
C184 C185 1.387 1_554 S
C184 H188 0.950 . S
C184 C193 1.390 . S
C185 C184 1.387 1_556 S
C185 C187 1.387 . S
H186 C193 0.950 . S
C187 C185 1.387 . S
C187 C189 1.390 . S
C187 H191 0.950 . S
H188 C184 0.950 . S
C189 C187 1.390 . S
C189 C190 1.387 . S
C189 H192 0.950 . S
C190 C189 1.387 . S
C190 C193 1.387 1_556 S
H191 C187 0.950 . S
H192 C189 0.950 . S
C193 C184 1.390 . S
C193 H186 0.950 . S
C193 C190 1.387 1_554 S
C194 C195 1.387 . S
C194 H198 0.950 . S
C194 C203 1.390 . S
C195 C194 1.387 . S
C195 C197 1.387 . S
H196 C203 0.950 . S
C197 C195 1.387 . S
C197 C199 1.390 . S
C197 H201 0.950 1_554 S
H198 C194 0.950 . S
C199 C197 1.390 . S
C199 C200 1.387 . S
C199 H202 0.950 1_554 S
C200 C199 1.387 . S
C200 C203 1.387 . S
H201 C197 0.950 1_556 S
H202 C199 0.950 1_556 S
C203 C194 1.390 . S
C203 H196 0.950 . S
C203 C200 1.387 . S
C204 C205 1.387 . S
C204 H208 0.950 . S
C204 C213 1.390 . S
C205 C204 1.387 . S
C205 C207 1.387 . S
H206 C213 0.950 . S
C207 C205 1.387 . S
C207 C209 1.390 . S
C207 H211 0.950 . S
H208 C204 0.950 . S
C209 C207 1.390 . S
C209 C210 1.387 . S
C209 H212 0.950 . S
C210 C209 1.387 . S
C210 C213 1.387 . S
H211 C207 0.950 . S
H212 C209 0.950 . S
C213 C204 1.390 . S
C213 H206 0.950 . S
C213 C210 1.387 . S
C214 C215 1.387 . S
C214 H218 0.950 . S
C214 C223 1.390 . S
C215 C214 1.387 . S
C215 C217 1.387 . S
H216 C223 0.950 . S
C217 C215 1.387 . S
C217 C219 1.390 . S
C217 H221 0.950 . S
H218 C214 0.950 . S
C219 C217 1.390 . S
C219 C220 1.387 . S
C219 H222 0.950 . S
C220 C219 1.387 . S
C220 C223 1.387 . S
H221 C217 0.950 . S
H222 C219 0.950 . S
C223 C214 1.390 . S
C223 H216 0.950 . S
C223 C220 1.387 . S
C224 C225 1.387 . S
C224 H228 0.950 . S
C224 C233 1.390 . S
C225 C224 1.387 . S
C225 C227 1.387 1_554 S
H226 C233 0.950 . S
C227 C225 1.387 1_556 S
C227 C229 1.390 . S
C227 H231 0.950 . S
H228 C224 0.950 . S
C229 C227 1.390 . S
C229 C230 1.387 1_556 S
C229 H232 0.950 . S
C230 C229 1.387 1_554 S
C230 C233 1.387 . S
H231 C227 0.950 . S
H232 C229 0.950 . S
C233 C224 1.390 . S
C233 H226 0.950 . S
C233 C230 1.387 . S
C234 C235 1.387 1_554 S
C234 H238 0.950 . S
C234 C243 1.390 . S
C235 C234 1.387 1_556 S
C235 C237 1.387 . S
H236 C243 0.950 . S
C237 C235 1.387 . S
C237 C239 1.390 . S
C237 H241 0.950 . S
H238 C234 0.950 . S
C239 C237 1.390 . S
C239 C240 1.387 . S
C239 H242 0.950 . S
C240 C239 1.387 . S
C240 C243 1.387 1_556 S
H241 C237 0.950 . S
H242 C239 0.950 . S
C243 C234 1.390 . S
C243 H236 0.950 . S
C243 C240 1.387 1_554 S
C244 C245 1.387 . S
C244 H248 0.950 . S
C244 C253 1.390 . S
C245 C244 1.387 . S
C245 C247 1.387 . S
H246 C253 0.950 . S
C247 C245 1.387 . S
C247 C249 1.390 . S
C247 H251 0.950 . S
H248 C244 0.950 . S
C249 C247 1.390 . S
C249 C250 1.387 . S
C249 H252 0.950 . S
C250 C249 1.387 . S
C250 C253 1.387 . S
H251 C247 0.950 . S
H252 C249 0.950 . S
C253 C244 1.390 . S
C253 H246 0.950 . S
C253 C250 1.387 . S
C254 C255 1.387 . S
C254 H258 0.950 . S
C254 C263 1.390 . S
C255 C254 1.387 . S
C255 C257 1.387 . S
H256 C263 0.950 . S
C257 C255 1.387 . S
C257 C259 1.390 . S
C257 H261 0.950 . S
H258 C254 0.950 . S
C259 C257 1.390 . S
C259 C260 1.387 . S
C259 H262 0.950 . S
C260 C259 1.387 . S
C260 C263 1.387 . S
H261 C257 0.950 . S
H262 C259 0.950 . S
C263 C254 1.390 . S
C263 H256 0.950 . S
C263 C260 1.387 . S
C105 C1 1.549 . S
C110 C40 1.553 . S
C115 C10 1.487 . S
C120 C18 1.484 . S
C125 C27 1.476 . S
C130 C16 1.472 . S
C135 C49 1.537 . S
C140 C36 1.533 . S
C145 C3 1.489 . S
C150 C66 1.505 . S
C155 C5 1.460 . S
C160 C57 1.466 . S
C165 C55 1.482 . S
C170 C29 1.477 . S
C175 C31 1.506 . S
C180 C75 1.523 . S
C185 C81 1.441 . S
C190 C68 1.438 . S
C195 C62 1.529 . S
C200 C83 1.527 . S
C205 C53 1.556 . S
C210 C92 1.555 . S
C215 C70 1.466 . S
C220 C101 1.473 . S
C225 C79 1.507 . S
C230 C42 1.493 . S
C235 C23 1.560 . S
C240 C88 1.562 . S
C245 C14 1.531 . S
C250 C94 1.532 . S
C255 C44 1.460 . S
C260 C96 1.470 . S
