# Generated by pormake.
# Topology qtz-x, (6)-cn, num edge types: 1
# Building blocks:
#     Node 0, Type 0, BuildingBlock: JUFBIX_clean_sbu_0, # of connection points: 6
#     Node 1, Type 0, BuildingBlock: JUFBIX_clean_sbu_0, # of connection points: 6
#     Node 2, Type 0, BuildingBlock: JUFBIX_clean_sbu_0, # of connection points: 6
#     Edge 3, Type (0, 0), BuildingBlock: OJICUG_clean_linker_0, # of connection points: 2
#     Edge 4, Type (0, 0), BuildingBlock: OJICUG_clean_linker_0, # of connection points: 2
#     Edge 5, Type (0, 0), BuildingBlock: OJICUG_clean_linker_0, # of connection points: 2
#     Edge 6, Type (0, 0), BuildingBlock: OJICUG_clean_linker_0, # of connection points: 2
#     Edge 7, Type (0, 0), BuildingBlock: OJICUG_clean_linker_0, # of connection points: 2
#     Edge 8, Type (0, 0), BuildingBlock: OJICUG_clean_linker_0, # of connection points: 2
#     Edge 9, Type (0, 0), BuildingBlock: OJICUG_clean_linker_0, # of connection points: 2
#     Edge 10, Type (0, 0), BuildingBlock: OJICUG_clean_linker_0, # of connection points: 2
#     Edge 11, Type (0, 0), BuildingBlock: OJICUG_clean_linker_0, # of connection points: 2
# Relax obj value: 0.506
# Max RMSD: 0.298
# Mean RMSD: 0.298
data_MOF--net-qtz-x--node1-JUFBIX_clean_sbu_0--edge1-OJICUG_clean_linker_0
_symmetry_space_group_name_H-M    P1
_symmetry_Int_Tables_number       1
_symmetry_cell_setting            triclinic
loop_
_symmetry_equiv_pos_as_xyz
'x, y, z'
_cell_length_a     10.887749
_cell_length_b     10.900368
_cell_length_c     32.69477
_cell_angle_alpha  89.424933
_cell_angle_beta   90.619937
_cell_angle_gamma 120.11952
loop_
_atom_site_label
_atom_site_type_symbol
_atom_site_fract_x
_atom_site_fract_y
_atom_site_fract_z
_atom_type_partial_charge
Co0 Co 0.18832 0.52496 0.16225 0.0
C1 C 0.07175 0.69962 0.17169 0.0
Co2 Co 0.9628 0.40995 0.18065 0.0
C3 C 0.39658 0.57567 0.1031 0.0
C4 C 0.46413 0.75937 0.14018 0.0
N5 N 0.36645 0.61992 0.138 0.0
N6 N 0.50299 0.68257 0.08219 0.0
C7 C 0.54719 0.79857 0.10554 0.0
H8 H 0.32892 0.47117 0.09041 0.0
H9 H 0.46415 0.83122 0.16278 0.0
C10 C 0.07884 0.23509 0.17131 0.0
N11 N 0.78492 0.31712 0.20493 0.0
C12 C 0.75851 0.35389 0.24173 0.0
C13 C 0.67766 0.18396 0.19874 0.0
N14 N 0.64476 0.24642 0.26036 0.0
C15 C 0.59152 0.14018 0.2327 0.0
C16 C 0.97642 0.41614 0.09861 0.0
O17 O 0.19151 0.351 0.16284 0.0
O18 O 0.96642 0.23757 0.17977 0.0
O19 O 0.88269 0.37186 0.1265 0.0
O20 O 0.10649 0.48267 0.10893 0.0
O21 O 0.96064 0.58432 0.18138 0.0
H22 H 0.67159 0.11757 0.17351 0.0
H23 H 0.83064 0.45363 0.25617 0.0
O24 O 0.18261 0.69641 0.16195 0.0
O25 O 0.26855 0.56649 0.21595 0.0
O26 O 0.04538 0.44625 0.23414 0.0
C27 C 0.17581 0.51385 0.244 0.0
H28 H 0.62551 0.90559 0.09665 0.0
H29 H 0.50586 0.03305 0.23805 0.0
Co30 Co 0.45212 0.92533 0.49493 0.0
C31 C 0.74525 0.03964 0.50542 0.0
Co32 Co 0.56819 0.14954 0.51496 0.0
C33 C 0.30318 0.72248 0.43274 0.0
C34 C 0.38699 0.63781 0.47701 0.0
N35 N 0.36621 0.74837 0.4699 0.0
N36 N 0.28899 0.60445 0.41561 0.0
C37 C 0.33996 0.54917 0.44342 0.0
H38 H 0.28009 0.79581 0.41665 0.0
H39 H 0.44567 0.62988 0.50283 0.0
C40 C 0.27526 0.03551 0.50449 0.0
N41 N 0.65556 0.3273 0.53968 0.0
C42 C 0.70909 0.35368 0.57812 0.0
C43 C 0.64638 0.44225 0.52919 0.0
N44 N 0.72518 0.47548 0.59332 0.0
C45 C 0.68903 0.53342 0.56203 0.0
C46 C 0.55825 0.14164 0.43286 0.0
O47 O 0.27715 0.92383 0.49468 0.0
O48 O 0.39109 0.1462 0.51432 0.0
O49 O 0.60896 0.23248 0.46144 0.0
O50 O 0.49297 1.01076 0.44196 0.0
O51 O 0.74311 0.15099 0.51541 0.0
H52 H 0.59888 0.45284 0.50112 0.0
H53 H 0.72176 0.27752 0.59625 0.0
O54 O 0.62955 0.92922 0.49543 0.0
O55 O 0.41087 0.84191 0.54846 0.0
O56 O 0.52559 0.06382 0.56788 0.0
C57 C 0.45868 0.93294 0.57704 0.0
H58 H 0.3548 0.45949 0.43824 0.0
H59 H 0.68228 0.62898 0.56363 0.0
Co60 Co 0.56259 0.63453 0.82914 0.0
C61 C 0.38711 0.34108 0.83872 0.0
Co62 Co 0.67486 0.52035 0.8479 0.0
C63 C 0.51084 0.79302 0.76925 0.0
C64 C 0.32708 0.67452 0.80635 0.0
N65 N 0.46683 0.71746 0.80435 0.0
N66 N 0.40362 0.79241 0.74812 0.0
C67 C 0.28758 0.71911 0.77149 0.0
H68 H 0.61561 0.83127 0.75669 0.0
H69 H 0.25527 0.60174 0.82907 0.0
C70 C 0.8507 0.8132 0.83851 0.0
N71 N 0.76899 0.43451 0.87218 0.0
C72 C 0.74467 0.38028 0.91053 0.0
C73 C 0.89412 0.44698 0.86176 0.0
N74 N 0.8531 0.36706 0.92579 0.0
C75 C 0.94601 0.40566 0.89457 0.0
C76 C 0.67095 0.5345 0.76588 0.0
O77 O 0.73595 0.81069 0.82879 0.0
O78 O 0.8468 0.6979 0.84808 0.0
O79 O 0.71663 0.48522 0.79385 0.0
O80 O 0.60248 0.59516 0.77604 0.0
O81 O 0.5023 0.34359 0.84762 0.0
H82 H 0.95058 0.49599 0.83382 0.0
H83 H 0.65566 0.36493 0.92857 0.0
O84 O 0.39067 0.45656 0.82986 0.0
O85 O 0.52457 0.67462 0.8827 0.0
O86 O 0.63285 0.55903 0.90112 0.0
C87 C 0.56985 0.62573 0.91085 0.0
H88 H 0.18041 0.69039 0.76256 0.0
H89 H 0.04964 0.41489 0.89617 0.0
C90 C 0.94893 0.84094 0.17953 0.0
C91 C 0.07326 0.83647 0.17171 0.0
H92 H 0.85299 0.96971 0.18539 0.0
C93 C 0.19976 0.96447 0.16378 0.0
H94 H 0.84973 0.74444 0.18568 0.0
C95 C 0.20179 0.09383 0.16364 0.0
C96 C 0.0774 0.09828 0.17141 0.0
H97 H 0.29769 0.96505 0.15775 0.0
H98 H 0.30099 0.19031 0.15748 0.0
C99 C 0.95093 0.97029 0.17935 0.0
C100 C 0.13825 0.16223 0.51297 0.0
C101 C 0.13971 0.03664 0.50464 0.0
H102 H 1.01304 0.2618 0.51973 0.0
C103 C 1.01027 0.91206 0.49658 0.0
H104 H 0.23606 0.26019 0.51919 0.0
C105 C 0.88231 0.913 0.49689 0.0
C106 C 0.88083 0.03856 0.50524 0.0
H107 H 1.00751 0.81341 0.49014 0.0
H108 H 0.78451 0.81505 0.49066 0.0
C109 C 1.01028 0.16315 0.51329 0.0
C110 C 0.99267 0.07762 0.83058 0.0
C111 C 0.98777 0.94835 0.8386 0.0
H112 H 0.12223 0.30276 0.82444 0.0
C113 C 0.11542 0.94928 0.84669 0.0
H114 H 0.89632 0.08067 0.82431 0.0
C115 C 0.24508 0.07665 0.84675 0.0
C116 C 0.25 0.20592 0.83871 0.0
H117 H 0.11546 0.85147 0.85289 0.0
H118 H 0.34143 0.07362 0.85302 0.0
C119 C 0.12232 0.20499 0.83066 0.0
C120 C 0.54543 0.76091 0.96936 0.0
C121 C 0.55175 0.64338 0.9548 0.0
H122 H 0.52904 0.86794 0.02213 0.0
C123 C 0.54791 0.54345 0.9831 0.0
H124 H 0.54915 0.83999 0.94828 0.0
C125 C 0.53664 0.55936 0.02488 0.0
C126 C 0.53089 0.67655 0.03958 0.0
H127 H 0.55123 0.45106 0.97295 0.0
H128 H 0.53095 0.47919 0.04587 0.0
C129 C 0.5363 0.77802 0.01153 0.0
C130 C 0.69249 0.30487 0.37456 0.0
C131 C 0.57271 0.18256 0.38913 0.0
H132 H 0.81114 0.42136 0.32261 0.0
C133 C 0.46961 0.09106 0.36093 0.0
H134 H 0.77368 0.37712 0.3956 0.0
C135 C 0.4891 0.11683 0.31892 0.0
C136 C 0.61367 0.23372 0.30378 0.0
H137 H 0.37446 0.99725 0.37131 0.0
H138 H 0.40805 0.0422 0.29837 0.0
C139 C 0.71331 0.32988 0.33236 0.0
C140 C 0.30655 0.73727 0.67741 0.0
C141 C 0.40975 0.82989 0.70554 0.0
H142 H 0.24245 0.69499 0.61416 0.0
C143 C 0.52793 0.95355 0.69093 0.0
H144 H 0.21567 0.63965 0.6879 0.0
C145 C 0.54307 0.98486 0.64923 0.0
C146 C 0.44134 0.89239 0.62087 0.0
H147 H 0.60936 1.0256 0.71193 0.0
H148 H 0.6363 0.08101 0.63919 0.0
C149 C 0.32288 0.76768 0.63529 0.0
C150 C 0.77033 0.30432 0.9978 0.0
C151 C 0.88149 0.36067 0.96897 0.0
H152 H 0.71185 0.2781 0.0613 0.0
C153 C 1.02196 0.42651 0.98364 0.0
H154 H 0.66061 0.25084 0.9878 0.0
C155 C 0.0508 0.44179 0.02553 0.0
C156 C 0.94033 0.39161 0.05432 0.0
H157 H 0.11094 0.47264 0.96292 0.0
H158 H 0.16101 0.49654 0.03522 0.0
C159 C 0.79942 0.3199 0.04001 0.0
C160 C 0.12008 0.43119 0.31654 0.0
C161 C 0.21437 0.53087 0.28795 0.0
H162 H 0.07238 0.37594 0.38008 0.0
C163 C 0.33834 0.65032 0.30219 0.0
H164 H 1.02348 0.33801 0.30643 0.0
C165 C 0.36417 0.67245 0.34428 0.0
C166 C 0.26835 0.57402 0.37268 0.0
H167 H 0.41193 0.72938 0.28095 0.0
H168 H 0.4576 0.76782 0.35487 0.0
C169 C 0.14766 0.452 0.35856 0.0
C170 C 0.76979 0.46003 0.70751 0.0
C171 C 0.69684 0.52688 0.72168 0.0
H172 H 0.84079 0.39556 0.65536 0.0
C173 C 0.64702 0.58896 0.69285 0.0
H174 H 0.81135 0.41304 0.72886 0.0
C175 C 0.66385 0.5794 0.65102 0.0
C176 C 0.73077 0.50698 0.63647 0.0
H177 H 0.59141 0.64276 0.70245 0.0
H178 H 0.61785 0.62327 0.6302 0.0
C179 C 0.78674 0.45037 0.66534 0.0
loop_
_geom_bond_atom_site_label_1
_geom_bond_atom_site_label_2
_geom_bond_distance
_geom_bond_site_symmetry_2
_ccdc_geom_bond_type
Co0 N5 2.057 . S
Co0 O17 2.021 . S
Co0 O20 2.062 1_455 S
Co0 O24 2.117 . S
Co0 O25 2.020 . S
C1 O21 1.259 . S
C1 O24 1.258 1_655 S
Co2 N11 2.057 . S
Co2 O18 2.117 . S
Co2 O19 2.020 . S
Co2 O21 2.021 . S
Co2 O26 2.062 1_655 S
C3 N5 1.316 . S
C3 N6 1.347 . S
C3 H8 0.931 . S
C4 N5 1.375 . S
C4 C7 1.350 . S
C4 H9 0.930 . S
N5 Co0 2.057 . S
N5 C3 1.316 . S
N5 C4 1.375 . S
N6 C3 1.347 . S
N6 C7 1.373 . S
C7 C4 1.350 . S
C7 N6 1.373 . S
C7 H28 0.931 . S
H8 C3 0.931 . S
H9 C4 0.930 . S
C10 O17 1.259 . S
C10 O18 1.258 1_455 S
N11 Co2 2.057 . S
N11 C12 1.316 . S
N11 C13 1.375 . S
C12 N11 1.316 . S
C12 N14 1.347 . S
C12 H23 0.931 . S
C13 N11 1.375 . S
C13 C15 1.350 . S
C13 H22 0.930 . S
N14 C12 1.347 . S
N14 C15 1.373 . S
C15 C13 1.350 . S
C15 N14 1.373 . S
C15 H29 0.931 . S
C16 O19 1.256 . S
C16 O20 1.255 . S
O17 Co0 2.021 . S
O17 C10 1.259 . S
O18 Co2 2.117 . S
O18 C10 1.258 1_655 S
O19 Co2 2.020 . S
O19 C16 1.256 . S
O20 Co0 2.062 1_655 S
O20 C16 1.255 . S
O21 C1 1.259 . S
O21 Co2 2.021 . S
H22 C13 0.930 . S
H23 C12 0.931 . S
O24 Co0 2.117 . S
O24 C1 1.258 1_455 S
O25 Co0 2.020 . S
O25 C27 1.256 . S
O26 Co2 2.062 1_455 S
O26 C27 1.255 . S
C27 O25 1.256 . S
C27 O26 1.255 . S
H28 C7 0.931 . S
H29 C15 0.931 . S
Co30 N35 2.057 . S
Co30 O47 2.021 . S
Co30 O50 2.062 1_565 S
Co30 O54 2.117 . S
Co30 O55 2.020 . S
C31 O51 1.259 . S
C31 O54 1.258 1_545 S
Co32 N41 2.057 . S
Co32 O48 2.117 . S
Co32 O49 2.020 . S
Co32 O51 2.021 . S
Co32 O56 2.062 1_545 S
C33 N35 1.316 . S
C33 N36 1.347 . S
C33 H38 0.931 . S
C34 N35 1.375 . S
C34 C37 1.350 . S
C34 H39 0.930 . S
N35 Co30 2.057 . S
N35 C33 1.316 . S
N35 C34 1.375 . S
N36 C33 1.347 . S
N36 C37 1.373 . S
C37 C34 1.350 . S
C37 N36 1.373 . S
C37 H58 0.931 . S
H38 C33 0.931 . S
H39 C34 0.930 . S
C40 O47 1.259 1_545 S
C40 O48 1.258 . S
N41 Co32 2.057 . S
N41 C42 1.316 . S
N41 C43 1.375 . S
C42 N41 1.316 . S
C42 N44 1.347 . S
C42 H53 0.931 . S
C43 N41 1.375 . S
C43 C45 1.350 . S
C43 H52 0.930 . S
N44 C42 1.347 . S
N44 C45 1.373 . S
C45 C43 1.350 . S
C45 N44 1.373 . S
C45 H59 0.931 . S
C46 O49 1.256 . S
C46 O50 1.255 . S
O47 Co30 2.021 . S
O47 C40 1.259 1_565 S
O48 Co32 2.117 . S
O48 C40 1.258 . S
O49 Co32 2.020 . S
O49 C46 1.256 . S
O50 Co30 2.062 1_545 S
O50 C46 1.255 . S
O51 C31 1.259 . S
O51 Co32 2.021 . S
H52 C43 0.930 . S
H53 C42 0.931 . S
O54 Co30 2.117 . S
O54 C31 1.258 1_565 S
O55 Co30 2.020 . S
O55 C57 1.256 . S
O56 Co32 2.062 1_565 S
O56 C57 1.255 . S
C57 O55 1.256 . S
C57 O56 1.255 . S
H58 C37 0.931 . S
H59 C45 0.931 . S
Co60 N65 2.057 . S
Co60 O77 2.021 . S
Co60 O80 2.062 . S
Co60 O84 2.117 . S
Co60 O85 2.020 . S
C61 O81 1.259 . S
C61 O84 1.258 . S
Co62 N71 2.057 . S
Co62 O78 2.117 . S
Co62 O79 2.020 . S
Co62 O81 2.021 . S
Co62 O86 2.062 . S
C63 N65 1.316 . S
C63 N66 1.347 . S
C63 H68 0.931 . S
C64 N65 1.375 . S
C64 C67 1.350 . S
C64 H69 0.930 . S
N65 Co60 2.057 . S
N65 C63 1.316 . S
N65 C64 1.375 . S
N66 C63 1.347 . S
N66 C67 1.373 . S
C67 C64 1.350 . S
C67 N66 1.373 . S
C67 H88 0.931 . S
H68 C63 0.931 . S
H69 C64 0.930 . S
C70 O77 1.259 . S
C70 O78 1.258 . S
N71 Co62 2.057 . S
N71 C72 1.316 . S
N71 C73 1.375 . S
C72 N71 1.316 . S
C72 N74 1.347 . S
C72 H83 0.931 . S
C73 N71 1.375 . S
C73 C75 1.350 . S
C73 H82 0.930 . S
N74 C72 1.347 . S
N74 C75 1.373 . S
C75 C73 1.350 . S
C75 N74 1.373 . S
C75 H89 0.931 . S
C76 O79 1.256 . S
C76 O80 1.255 . S
O77 Co60 2.021 . S
O77 C70 1.259 . S
O78 Co62 2.117 . S
O78 C70 1.258 . S
O79 Co62 2.020 . S
O79 C76 1.256 . S
O80 Co60 2.062 . S
O80 C76 1.255 . S
O81 C61 1.259 . S
O81 Co62 2.021 . S
H82 C73 0.930 . S
H83 C72 0.931 . S
O84 Co60 2.117 . S
O84 C61 1.258 . S
O85 Co60 2.020 . S
O85 C87 1.256 . S
O86 Co62 2.062 . S
O86 C87 1.255 . S
C87 O85 1.256 . S
C87 O86 1.255 . S
H88 C67 0.931 . S
H89 C75 0.931 . S
C90 C91 1.388 1_455 S
C90 H94 0.950 . S
C90 C99 1.390 1_565 S
C91 C90 1.388 1_655 S
C91 C93 1.388 . S
H92 C99 0.950 . S
C93 C91 1.388 . S
C93 C95 1.390 1_565 S
C93 H97 0.950 . S
H94 C90 0.950 . S
C95 C93 1.390 1_545 S
C95 C96 1.389 1_655 S
C95 H98 0.950 . S
C96 C95 1.389 1_455 S
C96 C99 1.389 . S
H97 C93 0.950 . S
H98 C95 0.950 . S
C99 C90 1.390 1_545 S
C99 H92 0.950 . S
C99 C96 1.389 . S
C100 C101 1.387 . S
C100 H104 0.950 . S
C100 C109 1.390 . S
C101 C100 1.387 . S
C101 C103 1.387 1_545 S
H102 C109 0.950 . S
C103 C101 1.387 1_565 S
C103 C105 1.390 1_455 S
C103 H107 0.950 . S
H104 C100 0.950 . S
C105 C103 1.390 1_655 S
C105 C106 1.387 1_565 S
C105 H108 0.950 . S
C106 C105 1.387 1_545 S
C106 C109 1.387 1_655 S
H107 C103 0.950 . S
H108 C105 0.950 . S
C109 C100 1.390 . S
C109 H102 0.950 . S
C109 C106 1.387 1_455 S
C110 C111 1.387 . S
C110 H114 0.950 . S
C110 C119 1.390 1_665 S
C111 C110 1.387 . S
C111 C113 1.387 . S
H112 C119 0.950 . S
C113 C111 1.387 . S
C113 C115 1.390 1_665 S
C113 H117 0.950 . S
H114 C110 0.950 . S
C115 C113 1.390 1_445 S
C115 C116 1.387 . S
C115 H118 0.950 . S
C116 C115 1.387 . S
C116 C119 1.387 . S
H117 C113 0.950 . S
H118 C115 0.950 . S
C119 C110 1.390 1_445 S
C119 H112 0.950 . S
C119 C116 1.387 . S
C120 C121 1.387 . S
C120 H124 0.950 . S
C120 C129 1.390 . S
C121 C120 1.387 . S
C121 C123 1.387 . S
H122 C129 0.950 . S
C123 C121 1.387 . S
C123 C125 1.390 . S
C123 H127 0.950 . S
H124 C120 0.950 . S
C125 C123 1.390 . S
C125 C126 1.387 1_556 S
C125 H128 0.950 1_556 S
C126 C125 1.387 1_554 S
C126 C129 1.387 1_554 S
H127 C123 0.950 . S
H128 C125 0.950 1_554 S
C129 C120 1.390 . S
C129 H122 0.950 . S
C129 C126 1.387 1_556 S
C130 C131 1.387 . S
C130 H134 0.950 . S
C130 C139 1.390 . S
C131 C130 1.387 . S
C131 C133 1.387 . S
H132 C139 0.950 . S
C133 C131 1.387 . S
C133 C135 1.390 . S
C133 H137 0.950 . S
H134 C130 0.950 . S
C135 C133 1.390 . S
C135 C136 1.387 . S
C135 H138 0.950 . S
C136 C135 1.387 . S
C136 C139 1.387 . S
H137 C133 0.950 . S
H138 C135 0.950 . S
C139 C130 1.390 . S
C139 H132 0.950 . S
C139 C136 1.387 . S
C140 C141 1.387 . S
C140 H144 0.950 . S
C140 C149 1.390 . S
C141 C140 1.387 . S
C141 C143 1.387 . S
H142 C149 0.950 . S
C143 C141 1.387 . S
C143 C145 1.390 . S
C143 H147 0.950 . S
H144 C140 0.950 . S
C145 C143 1.390 . S
C145 C146 1.387 . S
C145 H148 0.950 . S
C146 C145 1.387 . S
C146 C149 1.387 . S
H147 C143 0.950 . S
H148 C145 0.950 . S
C149 C140 1.390 . S
C149 H142 0.950 . S
C149 C146 1.387 . S
C150 C151 1.387 1_554 S
C150 H154 0.936 1_554 S
C150 C159 1.390 . S
C151 C150 1.387 1_556 S
C151 C153 1.387 1_556 S
H152 C159 0.950 . S
C153 C151 1.387 1_554 S
C153 C155 1.390 . S
C153 H157 0.951 . S
H154 C150 0.936 1_556 S
C155 C153 1.390 . S
C155 C156 1.387 . S
C155 H158 0.950 . S
C156 C155 1.387 . S
C156 C159 1.387 . S
H157 C153 0.951 . S
H158 C155 0.950 . S
C159 C150 1.390 . S
C159 H152 0.950 . S
C159 C156 1.387 . S
C160 C161 1.387 . S
C160 H164 0.950 . S
C160 C169 1.390 . S
C161 C160 1.387 . S
C161 C163 1.387 . S
H162 C169 0.950 . S
C163 C161 1.387 . S
C163 C165 1.390 . S
C163 H167 0.950 . S
H164 C160 0.950 . S
C165 C163 1.390 . S
C165 C166 1.387 . S
C165 H168 0.950 . S
C166 C165 1.387 . S
C166 C169 1.387 . S
H167 C163 0.950 . S
H168 C165 0.950 . S
C169 C160 1.390 . S
C169 H162 0.950 . S
C169 C166 1.387 . S
C170 C171 1.387 . S
C170 H174 0.950 . S
C170 C179 1.390 . S
C171 C170 1.387 . S
C171 C173 1.387 . S
H172 C179 0.950 . S
C173 C171 1.387 . S
C173 C175 1.390 . S
C173 H177 0.950 . S
H174 C170 0.950 . S
C175 C173 1.390 . S
C175 C176 1.387 . S
C175 H178 0.950 . S
C176 C175 1.387 . S
C176 C179 1.387 . S
H177 C173 0.950 . S
H178 C175 0.950 . S
C179 C170 1.390 . S
C179 H172 0.950 . S
C179 C176 1.387 . S
C91 C1 1.756 . S
C96 C10 1.755 . S
C101 C40 1.758 . S
C106 C31 1.758 . S
C111 C70 1.758 . S
C116 C61 1.758 . S
C121 C87 1.260 . S
C126 N6 1.261 . S
C131 C46 1.225 . S
C136 N14 1.164 . S
C141 N66 1.262 . S
C146 C57 1.260 . S
C151 N74 1.163 . S
C156 C16 1.227 . S
C161 C27 1.260 . S
C166 N36 1.262 . S
C171 C76 1.227 . S
C176 N44 1.163 . S
