# Generated by pormake.
# Topology rob, (6)-cn, num edge types: 1
# Building blocks:
#     Node 0, Type 0, BuildingBlock: BETFEN_clean_sbu_0, # of connection points: 6
#     Node 1, Type 0, BuildingBlock: BETFEN_clean_sbu_0, # of connection points: 6
#     Node 2, Type 0, BuildingBlock: BETFEN_clean_sbu_0, # of connection points: 6
#     Node 3, Type 0, BuildingBlock: BETFEN_clean_sbu_0, # of connection points: 6
#     Edge 4, Type (0, 0), BuildingBlock: EYOCIG_clean_linker_4, # of connection points: 2
#     Edge 5, Type (0, 0), BuildingBlock: EYOCIG_clean_linker_4, # of connection points: 2
#     Edge 6, Type (0, 0), BuildingBlock: EYOCIG_clean_linker_4, # of connection points: 2
#     Edge 7, Type (0, 0), BuildingBlock: EYOCIG_clean_linker_4, # of connection points: 2
#     Edge 8, Type (0, 0), BuildingBlock: EYOCIG_clean_linker_4, # of connection points: 2
#     Edge 9, Type (0, 0), BuildingBlock: EYOCIG_clean_linker_4, # of connection points: 2
#     Edge 10, Type (0, 0), BuildingBlock: EYOCIG_clean_linker_4, # of connection points: 2
#     Edge 11, Type (0, 0), BuildingBlock: EYOCIG_clean_linker_4, # of connection points: 2
#     Edge 12, Type (0, 0), BuildingBlock: EYOCIG_clean_linker_4, # of connection points: 2
#     Edge 13, Type (0, 0), BuildingBlock: EYOCIG_clean_linker_4, # of connection points: 2
#     Edge 14, Type (0, 0), BuildingBlock: EYOCIG_clean_linker_4, # of connection points: 2
#     Edge 15, Type (0, 0), BuildingBlock: EYOCIG_clean_linker_4, # of connection points: 2
# Relax obj value: 0.053
# Max RMSD: 0.174
# Mean RMSD: 0.174
data_MOF--net-rob--node1-BETFEN_clean_sbu_0--edge1-EYOCIG_clean_linker_4
_symmetry_space_group_name_H-M    P1
_symmetry_Int_Tables_number       1
_symmetry_cell_setting            triclinic
loop_
_symmetry_equiv_pos_as_xyz
'x, y, z'
_cell_length_a     12.668865
_cell_length_b     19.312358
_cell_length_c     31.353754
_cell_angle_alpha  96.210424
_cell_angle_beta   90.003701
_cell_angle_gamma 89.997864
loop_
_atom_site_label
_atom_site_type_symbol
_atom_site_fract_x
_atom_site_fract_y
_atom_site_fract_z
_atom_type_partial_charge
Pr0 Pr 0.15251 0.30212 0.04957 0.0
Pr1 Pr 0.33272 0.23389 0.99762 0.0
C2 C 0.00082 0.33557 0.10845 0.0
C3 C 0.99151 0.33602 0.15548 0.0
C4 C 0.95676 0.39652 0.18046 0.0
C5 C 0.94835 0.39799 0.22507 0.0
C6 C 0.9744 0.33892 0.24519 0.0
C7 C 0.0101 0.27868 0.22051 0.0
C8 C 0.01899 0.27722 0.17597 0.0
C9 C 0.30883 0.39484 0.03049 0.0
C10 C 0.35307 0.23132 0.09956 0.0
C11 C 0.48422 0.20002 0.93871 0.0
C12 C 0.49364 0.1996 0.8917 0.0
C13 C 0.52812 0.13906 0.8667 0.0
C14 C 0.53659 0.13761 0.82209 0.0
C15 C 0.51088 0.19676 0.802 0.0
C16 C 0.47545 0.25706 0.82669 0.0
C17 C 0.46649 0.25849 0.87123 0.0
C18 C 0.1763 0.14149 1.01688 0.0
C19 C 0.13239 0.30491 0.94763 0.0
O20 O 0.00654 0.27473 0.08569 0.0
O21 O 0.06464 0.38163 0.09492 0.0
O22 O 0.32631 0.33565 0.0426 0.0
O23 O 0.20883 0.40867 0.02861 0.0
O24 O 0.4104 0.22942 0.06446 0.0
O25 O 0.25235 0.24859 0.10024 0.0
O26 O 0.47896 0.26085 0.96151 0.0
O27 O 0.41999 0.15415 0.9522 0.0
O28 O 0.1589 0.20052 1.0045 0.0
O29 O 0.27626 0.12764 1.0189 0.0
O30 O 0.07499 0.30674 0.98271 0.0
O31 O 0.2331 0.28761 0.94697 0.0
H32 H 0.93593 0.44258 0.16542 0.0
H33 H 0.92056 0.44495 0.24376 0.0
H34 H 0.03034 0.23258 0.23564 0.0
H35 H 0.04713 0.23007 0.15765 0.0
H36 H 0.54868 0.09293 0.88173 0.0
H37 H 0.56416 0.09061 0.80338 0.0
H38 H 0.45546 0.30323 0.81159 0.0
H39 H 0.43855 0.30569 0.88957 0.0
Pr40 Pr 0.65258 0.80237 0.04966 0.0
Pr41 Pr 0.83246 0.7338 0.99767 0.0
C42 C 0.50112 0.83616 0.10859 0.0
C43 C 0.49181 0.83656 0.15561 0.0
C44 C 0.45682 0.89697 0.1806 0.0
C45 C 0.44839 0.89838 0.22521 0.0
C46 C 0.47468 0.83933 0.24531 0.0
C47 C 0.51065 0.77918 0.22061 0.0
C48 C 0.51956 0.77779 0.17607 0.0
C49 C 0.8092 0.89482 0.03047 0.0
C50 C 0.85293 0.73128 0.09961 0.0
C51 C 0.98374 0.69961 0.93872 0.0
C52 C -0.00682 0.69931 0.89172 0.0
C53 C 0.02832 0.63896 0.86671 0.0
C54 C 0.03687 0.63762 0.8221 0.0
C55 C 0.01055 0.69669 0.80204 0.0
C56 C 0.97442 0.75678 0.82674 0.0
C57 C 0.96539 0.7581 0.87128 0.0
C58 C 0.67576 0.64167 1.01703 0.0
C59 C 0.63237 0.80517 0.94773 0.0
O60 O 0.50644 0.77534 0.08579 0.0
O61 O 0.56525 0.88207 0.09508 0.0
O62 O 0.82649 0.83562 0.04261 0.0
O63 O 0.70924 0.9088 0.02862 0.0
O64 O 0.9102 0.72925 0.06449 0.0
O65 O 0.75228 0.74872 0.10031 0.0
O66 O 0.97889 0.76041 0.96157 0.0
O67 O 0.91915 0.65391 0.95216 0.0
O68 O 0.65853 0.70071 1.00463 0.0
O69 O 0.77569 0.62768 1.01903 0.0
O70 O 0.575 0.80711 0.98282 0.0
O71 O 0.733 0.7877 0.94705 0.0
H72 H 0.4358 0.94301 0.16558 0.0
H73 H 0.4204 0.94526 0.24392 0.0
H74 H 0.53109 0.73309 0.23572 0.0
H75 H 0.54791 0.7307 0.15774 0.0
H76 H 0.04936 0.5929 0.88172 0.0
H77 H 0.06497 0.59078 0.80339 0.0
H78 H 0.95394 0.80288 0.81166 0.0
H79 H 0.93692 0.80513 0.88963 0.0
Pr80 Pr 0.15253 0.73409 0.4977 0.0
Pr81 Pr 0.33268 0.8024 0.54968 0.0
C82 C 0.00088 0.70058 0.43881 0.0
C83 C 0.99155 0.7001 0.39178 0.0
C84 C 0.95705 0.63954 0.3668 0.0
C85 C 0.94864 0.63804 0.32219 0.0
C86 C 0.97443 0.69715 0.30207 0.0
C87 C 0.00988 0.75746 0.32674 0.0
C88 C 0.01878 0.75894 0.37129 0.0
C89 C 0.30896 0.64144 0.5168 0.0
C90 C 0.35302 0.80496 0.44773 0.0
C91 C 0.48414 0.83633 0.60859 0.0
C92 C 0.49358 0.83677 0.65561 0.0
C93 C 0.52774 0.8974 0.68061 0.0
C94 C 0.53623 0.89886 0.72522 0.0
C95 C 0.51086 0.83965 0.74531 0.0
C96 C 0.47575 0.77927 0.72061 0.0
C97 C 0.46677 0.77782 0.67607 0.0
C98 C 0.17616 0.89472 0.53041 0.0
C99 C 0.13242 0.73129 0.59965 0.0
O100 O 0.00655 0.76143 0.46156 0.0
O101 O 0.06472 0.65454 0.45236 0.0
O102 O 0.32637 0.70064 0.50468 0.0
O103 O 0.20897 0.62756 0.51866 0.0
O104 O 0.41035 0.80689 0.48283 0.0
O105 O 0.25232 0.78765 0.44704 0.0
O106 O 0.47893 0.77549 0.5858 0.0
O107 O 0.41987 0.88217 0.59509 0.0
O108 O 0.15882 0.83569 0.54278 0.0
O109 O 0.2761 0.90862 0.52839 0.0
O110 O 0.07502 0.72944 0.56456 0.0
O111 O 0.23311 0.74863 0.60032 0.0
H112 H 0.93642 0.59344 0.38185 0.0
H113 H 0.92104 0.59103 0.30349 0.0
H114 H 0.02992 0.80359 0.31162 0.0
H115 H 0.04673 0.80615 0.38961 0.0
H116 H 0.54804 0.94357 0.66559 0.0
H117 H 0.56355 0.94593 0.74393 0.0
H118 H 0.45603 0.73306 0.73572 0.0
H119 H 0.43909 0.73055 0.65774 0.0
Pr120 Pr 0.65249 0.23392 0.49763 0.0
Pr121 Pr 0.8325 0.30238 0.5496 0.0
C122 C 0.50094 0.20022 0.43872 0.0
C123 C 0.49164 0.19982 0.39171 0.0
C124 C 0.45665 0.13941 0.36671 0.0
C125 C 0.44826 0.13798 0.3221 0.0
C126 C 0.47458 0.19702 0.302 0.0
C127 C 0.51056 0.25717 0.32669 0.0
C128 C 0.51943 0.25858 0.37124 0.0
C129 C 0.80901 0.14139 0.51681 0.0
C130 C 0.8529 0.30486 0.44765 0.0
C131 C 0.98387 0.33648 0.60853 0.0
C132 C -0.00671 0.33679 0.65554 0.0
C133 C 0.02865 0.3971 0.68054 0.0
C134 C 0.03716 0.39844 0.72514 0.0
C135 C 0.0106 0.33943 0.74522 0.0
C136 C 0.97425 0.27939 0.72052 0.0
C137 C 0.96525 0.27806 0.67599 0.0
C138 C 0.67591 0.3946 0.53025 0.0
C139 C 0.63235 0.23116 0.59957 0.0
O140 O 0.50637 0.26105 0.46151 0.0
O141 O 0.565 0.15427 0.45224 0.0
O142 O 0.82636 0.20057 0.50466 0.0
O143 O 0.70904 0.12746 0.51867 0.0
O144 O 0.91021 0.30687 0.48277 0.0
O145 O 0.75223 0.28749 0.44696 0.0
O146 O 0.97891 0.27568 0.58569 0.0
O147 O 0.91936 0.38223 0.59509 0.0
O148 O 0.65861 0.33558 0.54266 0.0
O149 O 0.77584 0.40854 0.52824 0.0
O150 O 0.57495 0.22925 0.56448 0.0
O151 O 0.73301 0.24857 0.60024 0.0
H152 H 0.4356 0.09337 0.38174 0.0
H153 H 0.42026 0.0911 0.30339 0.0
H154 H 0.53103 0.30325 0.31159 0.0
H155 H 0.54779 0.30566 0.38957 0.0
H156 H 0.04988 0.44311 0.66552 0.0
H157 H 0.06544 0.44524 0.74385 0.0
H158 H 0.95359 0.23333 0.73562 0.0
H159 H 0.93661 0.23107 0.65764 0.0
C160 C 0.52985 0.54508 1.02249 0.0
C161 C 0.59517 0.58994 1.01985 0.0
C162 C 0.4545 0.49162 0.02511 0.0
C163 C 0.38926 0.44669 0.02771 0.0
C164 C 0.4547 0.5447 0.52217 0.0
C165 C 0.38943 0.58961 0.51957 0.0
C166 C 0.53006 0.49124 0.52479 0.0
C167 C 0.59537 0.44637 0.52743 0.0
C168 C 0.03053 0.04482 1.02237 0.0
C169 C 0.09583 0.08969 1.01972 0.0
C170 C 0.95513 0.9914 0.02502 0.0
C171 C 0.88979 0.94655 0.02765 0.0
C172 C 0.95488 0.04476 0.52227 0.0
C173 C 0.88955 0.08962 0.51963 0.0
C174 C 0.0303 0.99135 0.52491 0.0
C175 C 0.09563 0.9465 0.52757 0.0
C176 C 0.44991 0.19934 0.2183 0.0
C177 C 0.46059 0.19718 0.25637 0.0
C178 C 0.42845 0.20648 0.17476 0.0
C179 C 0.40064 0.21686 0.13921 0.0
C180 C 0.44991 0.83699 0.329 0.0
C181 C 0.46063 0.83916 0.29093 0.0
C182 C 0.42841 0.82983 0.37254 0.0
C183 C 0.40059 0.81944 0.40808 0.0
C184 C 0.55713 0.83024 0.87255 0.0
C185 C 0.58489 0.81976 0.90809 0.0
C186 C 0.53565 0.83742 0.82902 0.0
C187 C 0.52492 0.83959 0.79095 0.0
C188 C 0.55711 0.20618 0.67476 0.0
C189 C 0.58487 0.21662 0.63922 0.0
C190 C 0.53565 0.19902 0.7183 0.0
C191 C 0.52493 0.19686 0.75637 0.0
C192 C 0.92829 0.70641 0.17481 0.0
C193 C 0.9005 0.71679 0.13926 0.0
C194 C 0.94974 0.69931 0.21835 0.0
C195 C 0.96042 0.69719 0.25643 0.0
C196 C 0.92826 0.32965 0.37244 0.0
C197 C 0.90047 0.3193 0.408 0.0
C198 C 0.94972 0.33673 0.3289 0.0
C199 C 0.9604 0.33884 0.29082 0.0
C200 C 0.0355 0.337 0.82891 0.0
C201 C 0.02473 0.33919 0.79084 0.0
C202 C 0.05705 0.32983 0.87243 0.0
C203 C 0.08487 0.31941 0.90797 0.0
C204 C 0.05709 0.70633 0.67483 0.0
C205 C 0.08492 0.71677 0.6393 0.0
C206 C 0.03552 0.69914 0.71835 0.0
C207 C 0.0247 0.69693 0.75642 0.0
loop_
_geom_bond_atom_site_label_1
_geom_bond_atom_site_label_2
_geom_bond_distance
_geom_bond_site_symmetry_2
_ccdc_geom_bond_type
Pr0 C2 2.880 . S
Pr0 O20 2.562 . S
Pr0 O21 2.490 . S
Pr0 O22 2.695 1_554 S
Pr0 O23 2.512 . S
Pr0 O25 2.437 . S
Pr0 O28 2.436 . S
Pr0 O30 2.438 1_554 S
Pr1 C11 2.880 . S
Pr1 O22 2.436 . S
Pr1 O24 2.438 1_556 S
Pr1 O26 2.562 . S
Pr1 O27 2.490 . S
Pr1 O28 2.695 1_556 S
Pr1 O29 2.512 . S
Pr1 O31 2.437 . S
C2 Pr0 2.880 . S
C2 C3 1.491 . S
C2 O20 1.254 . S
C2 O21 1.225 . S
C3 C2 1.491 . S
C3 C4 1.392 . S
C3 C8 1.356 . S
C4 C3 1.392 . S
C4 C5 1.368 1_455 S
C4 H32 0.929 . S
C5 C4 1.368 1_655 S
C5 C6 1.386 . S
C5 H33 0.929 . S
C6 C5 1.386 . S
C6 C7 1.373 . S
C7 C6 1.373 . S
C7 C8 1.409 1_655 S
C7 H34 0.931 . S
C8 C3 1.356 . S
C8 C7 1.409 1_455 S
C8 H35 0.930 . S
C9 O22 1.270 1_554 S
C9 O23 1.248 . S
C10 O24 1.267 . S
C10 O25 1.278 . S
C11 Pr1 2.880 . S
C11 C12 1.491 . S
C11 O26 1.254 . S
C11 O27 1.225 . S
C12 C11 1.491 . S
C12 C13 1.392 . S
C12 C17 1.356 . S
C13 C12 1.392 . S
C13 C14 1.368 . S
C13 H36 0.929 . S
C14 C13 1.368 . S
C14 C15 1.386 . S
C14 H37 0.929 . S
C15 C14 1.386 . S
C15 C16 1.373 . S
C16 C15 1.373 . S
C16 C17 1.409 . S
C16 H38 0.931 . S
C17 C12 1.356 . S
C17 C16 1.409 . S
C17 H39 0.930 . S
C18 O28 1.270 1_556 S
C18 O29 1.248 . S
C19 O30 1.267 . S
C19 O31 1.278 . S
O20 Pr0 2.562 . S
O20 C2 1.254 . S
O21 Pr0 2.490 . S
O21 C2 1.225 . S
O22 Pr0 2.695 1_556 S
O22 Pr1 2.436 . S
O22 C9 1.270 1_556 S
O23 Pr0 2.512 . S
O23 C9 1.248 . S
O24 Pr1 2.438 1_554 S
O24 C10 1.267 . S
O25 Pr0 2.437 . S
O25 C10 1.278 . S
O26 Pr1 2.562 . S
O26 C11 1.254 . S
O27 Pr1 2.490 . S
O27 C11 1.225 . S
O28 Pr0 2.436 . S
O28 Pr1 2.695 1_554 S
O28 C18 1.270 1_554 S
O29 Pr1 2.512 . S
O29 C18 1.248 . S
O30 Pr0 2.438 1_556 S
O30 C19 1.267 . S
O31 Pr1 2.437 . S
O31 C19 1.278 . S
H32 C4 0.929 . S
H33 C5 0.929 . S
H34 C7 0.931 . S
H35 C8 0.930 . S
H36 C13 0.929 . S
H37 C14 0.929 . S
H38 C16 0.931 . S
H39 C17 0.930 . S
Pr40 C42 2.880 . S
Pr40 O60 2.562 . S
Pr40 O61 2.490 . S
Pr40 O62 2.695 1_554 S
Pr40 O63 2.512 . S
Pr40 O65 2.437 . S
Pr40 O68 2.436 . S
Pr40 O70 2.438 1_554 S
Pr41 C51 2.880 . S
Pr41 O62 2.436 . S
Pr41 O64 2.438 1_556 S
Pr41 O66 2.562 . S
Pr41 O67 2.490 . S
Pr41 O68 2.695 1_556 S
Pr41 O69 2.512 . S
Pr41 O71 2.437 . S
C42 Pr40 2.880 . S
C42 C43 1.491 . S
C42 O60 1.254 . S
C42 O61 1.225 . S
C43 C42 1.491 . S
C43 C44 1.392 . S
C43 C48 1.356 . S
C44 C43 1.392 . S
C44 C45 1.368 . S
C44 H72 0.929 . S
C45 C44 1.368 . S
C45 C46 1.386 . S
C45 H73 0.929 . S
C46 C45 1.386 . S
C46 C47 1.373 . S
C47 C46 1.373 . S
C47 C48 1.409 . S
C47 H74 0.931 . S
C48 C43 1.356 . S
C48 C47 1.409 . S
C48 H75 0.930 . S
C49 O62 1.270 1_554 S
C49 O63 1.248 . S
C50 O64 1.267 . S
C50 O65 1.278 . S
C51 Pr41 2.880 . S
C51 C52 1.491 . S
C51 O66 1.254 . S
C51 O67 1.225 . S
C52 C51 1.491 . S
C52 C53 1.392 . S
C52 C57 1.356 . S
C53 C52 1.392 . S
C53 C54 1.368 1_655 S
C53 H76 0.929 . S
C54 C53 1.368 1_455 S
C54 C55 1.386 . S
C54 H77 0.929 . S
C55 C54 1.386 . S
C55 C56 1.373 . S
C56 C55 1.373 . S
C56 C57 1.409 1_455 S
C56 H78 0.931 . S
C57 C52 1.356 . S
C57 C56 1.409 1_655 S
C57 H79 0.930 . S
C58 O68 1.270 1_556 S
C58 O69 1.248 . S
C59 O70 1.267 . S
C59 O71 1.278 . S
O60 Pr40 2.562 . S
O60 C42 1.254 . S
O61 Pr40 2.490 . S
O61 C42 1.225 . S
O62 Pr40 2.695 1_556 S
O62 Pr41 2.436 . S
O62 C49 1.270 1_556 S
O63 Pr40 2.512 . S
O63 C49 1.248 . S
O64 Pr41 2.438 1_554 S
O64 C50 1.267 . S
O65 Pr40 2.437 . S
O65 C50 1.278 . S
O66 Pr41 2.562 . S
O66 C51 1.254 . S
O67 Pr41 2.490 . S
O67 C51 1.225 . S
O68 Pr40 2.436 . S
O68 Pr41 2.695 1_554 S
O68 C58 1.270 1_554 S
O69 Pr41 2.512 . S
O69 C58 1.248 . S
O70 Pr40 2.438 1_556 S
O70 C59 1.267 . S
O71 Pr41 2.437 . S
O71 C59 1.278 . S
H72 C44 0.929 . S
H73 C45 0.929 . S
H74 C47 0.931 . S
H75 C48 0.930 . S
H76 C53 0.929 . S
H77 C54 0.929 . S
H78 C56 0.931 . S
H79 C57 0.930 . S
Pr80 C82 2.880 . S
Pr80 O100 2.562 . S
Pr80 O101 2.490 . S
Pr80 O102 2.695 . S
Pr80 O103 2.512 . S
Pr80 O105 2.437 . S
Pr80 O108 2.436 . S
Pr80 O110 2.438 . S
Pr81 C91 2.880 . S
Pr81 O102 2.436 . S
Pr81 O104 2.438 . S
Pr81 O106 2.562 . S
Pr81 O107 2.490 . S
Pr81 O108 2.695 . S
Pr81 O109 2.512 . S
Pr81 O111 2.437 . S
C82 Pr80 2.880 . S
C82 C83 1.491 . S
C82 O100 1.254 . S
C82 O101 1.225 . S
C83 C82 1.491 . S
C83 C84 1.392 . S
C83 C88 1.356 . S
C84 C83 1.392 . S
C84 C85 1.368 1_455 S
C84 H112 0.929 . S
C85 C84 1.368 1_655 S
C85 C86 1.386 . S
C85 H113 0.929 . S
C86 C85 1.386 . S
C86 C87 1.373 . S
C87 C86 1.373 . S
C87 C88 1.409 1_655 S
C87 H114 0.931 . S
C88 C83 1.356 . S
C88 C87 1.409 1_455 S
C88 H115 0.930 . S
C89 O102 1.270 . S
C89 O103 1.248 . S
C90 O104 1.267 . S
C90 O105 1.278 . S
C91 Pr81 2.880 . S
C91 C92 1.491 . S
C91 O106 1.254 . S
C91 O107 1.225 . S
C92 C91 1.491 . S
C92 C93 1.392 . S
C92 C97 1.356 . S
C93 C92 1.392 . S
C93 C94 1.368 . S
C93 H116 0.929 . S
C94 C93 1.368 . S
C94 C95 1.386 . S
C94 H117 0.929 . S
C95 C94 1.386 . S
C95 C96 1.373 . S
C96 C95 1.373 . S
C96 C97 1.409 . S
C96 H118 0.931 . S
C97 C92 1.356 . S
C97 C96 1.409 . S
C97 H119 0.930 . S
C98 O108 1.270 . S
C98 O109 1.248 . S
C99 O110 1.267 . S
C99 O111 1.278 . S
O100 Pr80 2.562 . S
O100 C82 1.254 . S
O101 Pr80 2.490 . S
O101 C82 1.225 . S
O102 Pr80 2.695 . S
O102 Pr81 2.436 . S
O102 C89 1.270 . S
O103 Pr80 2.512 . S
O103 C89 1.248 . S
O104 Pr81 2.438 . S
O104 C90 1.267 . S
O105 Pr80 2.437 . S
O105 C90 1.278 . S
O106 Pr81 2.562 . S
O106 C91 1.254 . S
O107 Pr81 2.490 . S
O107 C91 1.225 . S
O108 Pr80 2.436 . S
O108 Pr81 2.695 . S
O108 C98 1.270 . S
O109 Pr81 2.512 . S
O109 C98 1.248 . S
O110 Pr80 2.438 . S
O110 C99 1.267 . S
O111 Pr81 2.437 . S
O111 C99 1.278 . S
H112 C84 0.929 . S
H113 C85 0.929 . S
H114 C87 0.931 . S
H115 C88 0.930 . S
H116 C93 0.929 . S
H117 C94 0.929 . S
H118 C96 0.931 . S
H119 C97 0.930 . S
Pr120 C122 2.880 . S
Pr120 O140 2.562 . S
Pr120 O141 2.490 . S
Pr120 O142 2.695 . S
Pr120 O143 2.512 . S
Pr120 O145 2.437 . S
Pr120 O148 2.436 . S
Pr120 O150 2.438 . S
Pr121 C131 2.880 . S
Pr121 O142 2.436 . S
Pr121 O144 2.438 . S
Pr121 O146 2.562 . S
Pr121 O147 2.490 . S
Pr121 O148 2.695 . S
Pr121 O149 2.512 . S
Pr121 O151 2.437 . S
C122 Pr120 2.880 . S
C122 C123 1.491 . S
C122 O140 1.254 . S
C122 O141 1.225 . S
C123 C122 1.491 . S
C123 C124 1.392 . S
C123 C128 1.356 . S
C124 C123 1.392 . S
C124 C125 1.368 . S
C124 H152 0.929 . S
C125 C124 1.368 . S
C125 C126 1.386 . S
C125 H153 0.929 . S
C126 C125 1.386 . S
C126 C127 1.373 . S
C127 C126 1.373 . S
C127 C128 1.409 . S
C127 H154 0.931 . S
C128 C123 1.356 . S
C128 C127 1.409 . S
C128 H155 0.930 . S
C129 O142 1.270 . S
C129 O143 1.248 . S
C130 O144 1.267 . S
C130 O145 1.278 . S
C131 Pr121 2.880 . S
C131 C132 1.491 . S
C131 O146 1.254 . S
C131 O147 1.225 . S
C132 C131 1.491 . S
C132 C133 1.392 . S
C132 C137 1.356 . S
C133 C132 1.392 . S
C133 C134 1.368 1_655 S
C133 H156 0.929 . S
C134 C133 1.368 1_455 S
C134 C135 1.386 . S
C134 H157 0.929 . S
C135 C134 1.386 . S
C135 C136 1.373 . S
C136 C135 1.373 . S
C136 C137 1.409 1_455 S
C136 H158 0.931 . S
C137 C132 1.356 . S
C137 C136 1.409 1_655 S
C137 H159 0.930 . S
C138 O148 1.270 . S
C138 O149 1.248 . S
C139 O150 1.267 . S
C139 O151 1.278 . S
O140 Pr120 2.562 . S
O140 C122 1.254 . S
O141 Pr120 2.490 . S
O141 C122 1.225 . S
O142 Pr120 2.695 . S
O142 Pr121 2.436 . S
O142 C129 1.270 . S
O143 Pr120 2.512 . S
O143 C129 1.248 . S
O144 Pr121 2.438 . S
O144 C130 1.267 . S
O145 Pr120 2.437 . S
O145 C130 1.278 . S
O146 Pr121 2.562 . S
O146 C131 1.254 . S
O147 Pr121 2.490 . S
O147 C131 1.225 . S
O148 Pr120 2.436 . S
O148 Pr121 2.695 . S
O148 C138 1.270 . S
O149 Pr121 2.512 . S
O149 C138 1.248 . S
O150 Pr120 2.438 . S
O150 C139 1.267 . S
O151 Pr121 2.437 . S
O151 C139 1.278 . S
H152 C124 0.929 . S
H153 C125 0.929 . S
H154 C127 0.931 . S
H155 C128 0.930 . S
H156 C133 0.929 . S
H157 C134 0.929 . S
H158 C136 0.931 . S
H159 C137 0.930 . S
C160 C161 1.168 1_554 S
C160 C162 1.382 . S
C161 C160 1.168 1_556 S
C162 C160 1.382 . S
C162 C163 1.170 . S
C163 C162 1.170 . S
C164 C165 1.170 . S
C164 C166 1.380 . S
C165 C164 1.170 . S
C166 C164 1.380 . S
C166 C167 1.170 . S
C167 C166 1.170 . S
C168 C169 1.170 . S
C168 C170 1.380 1_445 S
C169 C168 1.170 . S
C170 C168 1.380 1_665 S
C170 C171 1.169 . S
C171 C170 1.169 . S
C172 C173 1.170 . S
C172 C174 1.380 1_645 S
C173 C172 1.170 . S
C174 C172 1.380 1_465 S
C174 C175 1.170 . S
C175 C174 1.170 . S
C176 C177 1.170 . S
C176 C178 1.380 . S
C177 C176 1.170 . S
C178 C176 1.380 . S
C178 C179 1.170 . S
C179 C178 1.170 . S
C180 C181 1.170 . S
C180 C182 1.380 . S
C181 C180 1.170 . S
C182 C180 1.380 . S
C182 C183 1.170 . S
C183 C182 1.170 . S
C184 C185 1.170 . S
C184 C186 1.380 . S
C185 C184 1.170 . S
C186 C184 1.380 . S
C186 C187 1.170 . S
C187 C186 1.170 . S
C188 C189 1.170 . S
C188 C190 1.380 . S
C189 C188 1.170 . S
C190 C188 1.380 . S
C190 C191 1.170 . S
C191 C190 1.170 . S
C192 C193 1.170 . S
C192 C194 1.380 . S
C193 C192 1.170 . S
C194 C192 1.380 . S
C194 C195 1.170 . S
C195 C194 1.170 . S
C196 C197 1.170 . S
C196 C198 1.380 . S
C197 C196 1.170 . S
C198 C196 1.380 . S
C198 C199 1.170 . S
C199 C198 1.170 . S
C200 C201 1.170 . S
C200 C202 1.380 . S
C201 C200 1.170 . S
C202 C200 1.380 . S
C202 C203 1.170 . S
C203 C202 1.170 . S
C204 C205 1.170 . S
C204 C206 1.380 . S
C205 C204 1.170 . S
C206 C204 1.380 . S
C206 C207 1.170 . S
C207 C206 1.170 . S
C161 C58 1.545 . S
C163 C9 1.532 . S
C165 C89 1.530 . S
C167 C138 1.550 . S
C169 C18 1.540 1_554 S
C171 C49 1.552 . S
C173 C129 1.551 . S
C175 C98 1.532 . S
C177 C126 1.384 . S
C179 C10 1.403 . S
C181 C46 1.375 . S
C183 C90 1.402 . S
C185 C59 1.401 . S
C187 C95 1.376 . S
C189 C139 1.403 . S
C191 C15 1.360 . S
C193 C50 1.400 . S
C195 C86 1.385 . S
C197 C130 1.394 . S
C199 C6 1.352 . S
C201 C135 1.352 . S
C203 C19 1.398 . S
C205 C99 1.403 . S
C207 C55 1.361 . S
