# Generated by pormake.
# Topology pcu, (6)-cn, num edge types: 1
# Building blocks:
#     Node 0, Type 0, BuildingBlock: FUNLAD_clean_sbu_0, # of connection points: 6
#     Edge 1, Type (0, 0), BuildingBlock: AJUNOK_clean_linker_0, # of connection points: 2
#     Edge 2, Type (0, 0), BuildingBlock: AJUNOK_clean_linker_0, # of connection points: 2
#     Edge 3, Type (0, 0), BuildingBlock: AJUNOK_clean_linker_0, # of connection points: 2
# Relax obj value: 0.000
# Max RMSD: 0.000
# Mean RMSD: 0.000
data_MOF--net-pcu--node1-FUNLAD_clean_sbu_0--edge1-AJUNOK_clean_linker_0
_symmetry_space_group_name_H-M    P1
_symmetry_Int_Tables_number       1
_symmetry_cell_setting            triclinic
loop_
_symmetry_equiv_pos_as_xyz
'x, y, z'
_cell_length_a     11.349417
_cell_length_b     11.353436
_cell_length_c     17.67827
_cell_angle_alpha  90.864241
_cell_angle_beta   92.729374
_cell_angle_gamma 94.102299
loop_
_atom_site_label
_atom_site_type_symbol
_atom_site_fract_x
_atom_site_fract_y
_atom_site_fract_z
_atom_type_partial_charge
C0 C 0.22469 0.00418 0.03177 0.0
N1 N 0.97234 -0.00424 0.85182 0.0
C2 C 0.04861 0.07316 0.81725 0.0
C3 C 0.04969 0.07567 0.73842 0.0
C4 C 0.97125 -0.00186 0.69468 0.0
C5 C 0.8938 0.91876 0.73171 0.0
C6 C 0.89568 0.91919 0.81079 0.0
Zn7 Zn 0.97578 -0.00455 0.96748 0.0
C8 C 0.97486 0.75391 0.02819 0.0
N9 N -0.0111 -0.00064 0.2089 0.0
C10 C 0.06407 0.07642 0.25066 0.0
C11 C 0.91184 0.9218 0.24268 0.0
C12 C 0.90727 0.92061 0.32135 0.0
C13 C 0.9823 0.00038 0.36581 0.0
C14 C 0.06244 0.07819 0.3297 0.0
Zn15 Zn 0.98624 -0.00038 0.09327 0.0
O16 O 0.16121 0.00105 0.97063 0.0
C17 C 0.987 0.24109 0.0309 0.0
O18 O 0.17461 0.00543 0.09465 0.0
H19 H 0.85316 0.86096 0.20848 0.0
H20 H 0.10892 0.13324 0.85089 0.0
H21 H 0.12459 0.13725 0.22261 0.0
O22 O 0.98116 0.1807 0.96969 0.0
O23 O -0.00834 0.18788 0.09368 0.0
H24 H 0.83625 0.85802 0.83942 0.0
O25 O 0.798 -0.00589 0.08972 0.0
O26 O 0.79016 -0.01013 0.9657 0.0
O27 O 0.98089 0.81154 0.09067 0.0
O28 O 0.97028 0.80996 0.96664 0.0
C29 C 0.73723 -0.00852 0.02734 0.0
H30 H 0.1105 0.13839 0.71191 0.0
H31 H 0.83347 0.85605 0.69991 0.0
H32 H 0.84605 0.8575 0.34715 0.0
H33 H 0.12176 0.14097 0.36219 0.0
C34 C 0.08197 -0.0014 0.49521 0.0
C35 C 0.97738 0.00175 0.44954 0.0
C36 C 0.07917 -0.00252 0.57439 0.0
C37 C 0.97168 -0.00045 0.61078 0.0
H38 H 0.16646 -0.00488 0.46952 0.0
H39 H 0.16167 -0.00663 0.60737 0.0
S40 S 0.67442 0.01888 0.51712 0.0
N41 N 0.76419 0.01409 0.44649 0.0
N42 N 0.75901 0.01203 0.59533 0.0
C43 C 0.86672 0.00474 0.56582 0.0
C44 C 0.86956 0.00588 0.48523 0.0
C45 C 0.42537 -0.0035 0.0966 0.0
C46 C 0.35521 0.00283 0.02918 0.0
C47 C 0.54843 -0.00791 0.0954 0.0
C48 C 0.60653 -0.0062 0.02672 0.0
H49 H 0.38509 -0.00567 0.15095 0.0
H50 H 0.59823 -0.01273 0.14895 0.0
S51 S 0.46388 0.01182 0.83398 0.0
N52 N 0.35362 0.01204 0.89147 0.0
N53 N 0.58408 0.00355 0.88931 0.0
C54 C 0.53749 0.00049 0.95879 0.0
C55 C 0.41224 0.00513 0.96 0.0
C56 C 0.98466 0.56192 0.09573 0.0
C57 C 0.97648 0.62319 0.0272 0.0
C58 C -0.01118 0.43878 0.09643 0.0
C59 C 0.98501 0.37169 0.02864 0.0
H60 H -0.01183 0.60928 0.14954 0.0
H61 H -0.00515 0.39604 0.15072 0.0
S62 S 0.96346 0.48912 0.83357 0.0
N63 N 0.9645 0.60685 0.88948 0.0
N64 N 0.97248 0.37627 0.89071 0.0
C65 C 0.97684 0.43185 0.9596 0.0
C66 C 0.97246 0.55718 0.9589 0.0
loop_
_geom_bond_atom_site_label_1
_geom_bond_atom_site_label_2
_geom_bond_distance
_geom_bond_site_symmetry_2
_ccdc_geom_bond_type
C0 O16 1.243 1_544 S
C0 O18 1.263 . S
N1 C2 1.333 1_665 S
N1 C6 1.307 . S
N1 Zn7 2.020 . S
C2 N1 1.333 1_445 S
C2 C3 1.379 . S
C2 H20 0.952 . S
C3 C2 1.379 . S
C3 C4 1.391 1_455 S
C3 H30 0.949 . S
C4 C3 1.391 1_655 S
C4 C5 1.355 1_545 S
C5 C4 1.355 1_565 S
C5 C6 1.370 . S
C5 H31 0.950 . S
C6 N1 1.307 . S
C6 C5 1.370 . S
C6 H24 0.948 . S
Zn7 N1 2.020 . S
Zn7 O16 2.039 1_655 S
Zn7 O22 2.034 1_665 S
Zn7 O26 2.025 . S
Zn7 O28 2.024 . S
C8 O27 1.246 1_556 S
C8 O28 1.249 . S
N9 C10 1.307 . S
N9 C11 1.333 1_445 S
N9 Zn15 2.020 . S
C10 N9 1.307 . S
C10 C14 1.370 . S
C10 H21 0.948 . S
C11 N9 1.333 1_665 S
C11 C12 1.379 . S
C11 H19 0.952 . S
C12 C11 1.379 . S
C12 C13 1.391 1_655 S
C12 H32 0.949 . S
C13 C12 1.391 1_455 S
C13 C14 1.356 1_565 S
C14 C10 1.370 . S
C14 C13 1.356 1_545 S
C14 H33 0.950 . S
Zn15 N9 2.020 . S
Zn15 O18 2.025 . S
Zn15 O23 2.024 . S
Zn15 O25 2.039 1_455 S
Zn15 O27 2.034 1_445 S
O16 C0 1.243 1_566 S
O16 Zn7 2.039 1_455 S
C17 O22 1.246 1_554 S
C17 O23 1.249 . S
O18 C0 1.263 . S
O18 Zn15 2.025 . S
H19 C11 0.952 . S
H20 C2 0.952 . S
H21 C10 0.948 . S
O22 Zn7 2.034 1_445 S
O22 C17 1.246 1_556 S
O23 Zn15 2.024 . S
O23 C17 1.249 . S
H24 C6 0.948 . S
O25 Zn15 2.039 1_655 S
O25 C29 1.246 1_544 S
O26 Zn7 2.025 . S
O26 C29 1.259 . S
O27 C8 1.246 1_554 S
O27 Zn15 2.034 1_665 S
O28 Zn7 2.024 . S
O28 C8 1.249 . S
C29 O25 1.246 1_566 S
C29 O26 1.259 . S
H30 C3 0.949 . S
H31 C5 0.950 . S
H32 C12 0.949 . S
H33 C14 0.950 . S
C34 C35 1.369 1_465 S
C34 C36 1.419 . S
C34 H38 0.930 . S
C35 C34 1.369 1_645 S
C35 C44 1.429 . S
C36 C34 1.419 . S
C36 C37 1.354 1_465 S
C36 H39 0.929 . S
C37 C36 1.354 1_645 S
C37 C43 1.437 . S
H38 C34 0.930 . S
H39 C36 0.929 . S
S40 N41 1.613 . S
S40 N42 1.610 . S
N41 S40 1.613 . S
N41 C44 1.350 . S
N42 S40 1.610 . S
N42 C43 1.351 . S
C43 C37 1.437 . S
C43 N42 1.351 . S
C43 C44 1.434 . S
C44 C35 1.429 . S
C44 N41 1.350 . S
C44 C43 1.434 . S
C45 C46 1.369 1_564 S
C45 C47 1.419 . S
C45 H49 0.930 . S
C46 C45 1.369 1_546 S
C46 C55 1.429 . S
C47 C45 1.419 . S
C47 C48 1.363 1_564 S
C47 H50 0.929 . S
C48 C47 1.363 1_546 S
C48 C54 1.429 . S
H49 C45 0.930 . S
H50 C47 0.929 . S
S51 N52 1.613 . S
S51 N53 1.610 . S
N52 S51 1.613 . S
N52 C55 1.350 . S
N53 S51 1.610 . S
N53 C54 1.351 . S
C54 C48 1.429 . S
C54 N53 1.351 . S
C54 C55 1.434 . S
C55 C46 1.429 . S
C55 N52 1.350 . S
C55 C54 1.434 . S
C56 C57 1.369 1_455 S
C56 C58 1.419 . S
C56 H60 0.930 . S
C57 C56 1.369 1_655 S
C57 C66 1.428 1_554 S
C58 C56 1.419 . S
C58 C59 1.363 1_455 S
C58 H61 0.929 . S
C59 C58 1.363 1_655 S
C59 C65 1.428 1_554 S
H60 C56 0.930 . S
H61 C58 0.929 . S
S62 N63 1.613 . S
S62 N64 1.610 . S
N63 S62 1.613 . S
N63 C66 1.350 . S
N64 S62 1.610 . S
N64 C65 1.351 . S
C65 C59 1.428 1_556 S
C65 N64 1.351 . S
C65 C66 1.434 . S
C66 C57 1.428 1_556 S
C66 N63 1.350 . S
C66 C65 1.434 . S
C35 C13 1.499 1_645 S
C37 C4 1.498 . S
C46 C0 1.499 1_556 S
C48 C29 1.500 1_545 S
C57 C8 1.496 1_554 S
C59 C17 1.498 1_655 S
