# Generated by pormake.
# Topology unc, (4)-cn, num edge types: 1
# Building blocks:
#     Node 0, Type 0, BuildingBlock: NAHDIM_clean_sbu_0, # of connection points: 4
#     Node 1, Type 0, BuildingBlock: NAHDIM_clean_sbu_0, # of connection points: 4
#     Node 2, Type 0, BuildingBlock: NAHDIM_clean_sbu_0, # of connection points: 4
#     Node 3, Type 0, BuildingBlock: NAHDIM_clean_sbu_0, # of connection points: 4
#     Edge 4, Type (0, 0), BuildingBlock: FUNLAD_clean_linker_0, # of connection points: 2
#     Edge 5, Type (0, 0), BuildingBlock: FUNLAD_clean_linker_0, # of connection points: 2
#     Edge 6, Type (0, 0), BuildingBlock: FUNLAD_clean_linker_0, # of connection points: 2
#     Edge 7, Type (0, 0), BuildingBlock: FUNLAD_clean_linker_0, # of connection points: 2
#     Edge 8, Type (0, 0), BuildingBlock: FUNLAD_clean_linker_0, # of connection points: 2
#     Edge 9, Type (0, 0), BuildingBlock: FUNLAD_clean_linker_0, # of connection points: 2
#     Edge 10, Type (0, 0), BuildingBlock: FUNLAD_clean_linker_0, # of connection points: 2
#     Edge 11, Type (0, 0), BuildingBlock: FUNLAD_clean_linker_0, # of connection points: 2
# Relax obj value: 0.113
# Max RMSD: 0.174
# Mean RMSD: 0.174
data_MOF--net-unc--node1-NAHDIM_clean_sbu_0--edge1-FUNLAD_clean_linker_0
_symmetry_space_group_name_H-M    P1
_symmetry_Int_Tables_number       1
_symmetry_cell_setting            triclinic
loop_
_symmetry_equiv_pos_as_xyz
'x, y, z'
_cell_length_a     34.581957
_cell_length_b     34.76912
_cell_length_c     25.033944
_cell_angle_alpha  89.967116
_cell_angle_beta   89.935105
_cell_angle_gamma 95.966919
loop_
_atom_site_label
_atom_site_type_symbol
_atom_site_fract_x
_atom_site_fract_y
_atom_site_fract_z
_atom_type_partial_charge
C0 C 0.92334 0.70077 0.96271 0.0
O1 O 0.93347 0.67116 0.93542 0.0
O2 O 0.00876 0.65285 0.97406 0.0
Zn3 Zn 0.98744 0.68493 0.03168 0.0
O4 O 0.02966 0.72502 0.05643 0.0
C5 C 0.95561 0.61553 0.08393 0.0
O6 O 0.94724 0.60518 0.03446 0.0
O7 O 0.94187 0.7112 0.00501 0.0
C8 C 0.0632 0.71513 0.06683 0.0
O9 O 0.06952 0.67874 0.06112 0.0
C10 C 0.02751 0.66685 0.93366 0.0
O11 O 0.03319 0.70456 0.92763 0.0
O12 O 0.97177 0.64942 0.09297 0.0
C13 C 0.34412 0.12735 0.2681 0.0
O14 O 0.3749 0.11807 0.29384 0.0
O15 O 0.39038 0.04152 0.26256 0.0
Zn16 Zn 0.35308 0.05759 0.20722 0.0
O17 O 0.30944 0.0156 0.19579 0.0
C18 C 0.41731 0.08184 0.13865 0.0
O19 O 0.43312 0.09361 0.18427 0.0
O20 O 0.33048 0.10614 0.22978 0.0
C21 C 0.31626 0.98147 0.18367 0.0
O22 O 0.3525 0.97354 0.17986 0.0
C23 C 0.38097 0.02055 0.30304 0.0
O24 O 0.34429 0.00778 0.31079 0.0
O25 O 0.38239 0.06631 0.13827 0.0
C26 C 0.13077 0.34708 0.46734 0.0
O27 O 0.11983 0.37571 0.43871 0.0
O28 O 0.044 0.39125 0.46926 0.0
Zn29 Zn 0.06054 0.35647 0.52754 0.0
O30 O 0.0196 0.31203 0.54057 0.0
C31 C 0.08312 0.42305 0.59152 0.0
O32 O 0.09688 0.4364 0.5454 0.0
O33 O 0.11045 0.33494 0.50744 0.0
C34 C 0.98752 0.3172 0.56286 0.0
O35 O 0.98092 0.35235 0.57685 0.0
C36 C 0.01364 0.38537 0.44063 0.0
O37 O 0.99019 0.35351 0.44713 0.0
O38 O 0.06735 0.38842 0.59429 0.0
C39 C 0.70478 0.91777 0.761 0.0
O40 O 0.67347 0.92464 0.78761 0.0
O41 O 0.66117 0.00438 0.76897 0.0
Zn42 Zn 0.68975 0.98717 0.70451 0.0
O43 O 0.72995 0.03054 0.68303 0.0
C44 C 0.61827 0.95777 0.65234 0.0
O45 O 0.60906 0.94463 0.70041 0.0
O46 O 0.71671 0.94023 0.72299 0.0
C47 C 0.72179 0.05718 0.65145 0.0
O48 O 0.68657 0.05591 0.63148 0.0
C49 C 0.63575 0.02807 0.76444 0.0
O50 O 0.62827 0.04157 0.71695 0.0
O51 O 0.65172 0.97569 0.64441 0.0
C52 C 0.9604 0.59768 0.1804 0.0
C53 C 0.95078 0.58678 0.12764 0.0
C54 C 0.96021 0.56985 0.22067 0.0
C55 C 0.95078 0.53041 0.20888 0.0
C56 C 0.93892 0.51982 0.15687 0.0
C57 C 0.93902 0.54768 0.11657 0.0
C58 C 0.95418 0.49958 0.24927 0.0
C59 C 0.97998 0.50373 0.2897 0.0
C60 C 0.98732 0.47247 0.32781 0.0
C61 C 0.02191 0.47675 0.3575 0.0
C62 C 0.03049 0.44838 0.39374 0.0
C63 C 0.00455 0.41497 0.4014 0.0
H64 H 0.93362 0.43508 0.31491 0.0
C65 C 0.96974 0.41065 0.37209 0.0
C66 C 0.96108 0.43916 0.33579 0.0
H67 H 0.94896 0.38542 0.37749 0.0
H68 H 0.96896 0.62766 0.19046 0.0
H69 H 0.96788 0.57939 0.26077 0.0
H70 H 0.93096 0.48972 0.14686 0.0
H71 H 0.93112 0.53834 0.07642 0.0
H72 H 0.93756 0.47183 0.24233 0.0
H73 H -0.00118 0.53061 0.29318 0.0
H74 H 0.04259 0.50213 0.35247 0.0
H75 H 0.05753 0.45273 0.41578 0.0
C76 C 0.40176 0.98829 0.3865 0.0
C77 C 0.41128 0.0114 0.34135 0.0
C78 C 0.43054 0.98051 0.42308 0.0
C79 C 0.46951 0.99564 0.41505 0.0
C80 C 0.47885 0.01866 0.36985 0.0
C81 C 0.45019 0.02635 0.33335 0.0
C82 C 0.50108 0.98996 0.45365 0.0
C83 C 0.49935 0.96173 0.49078 0.0
C84 C 0.53098 0.95833 0.53017 0.0
C85 C 0.52166 0.9416 0.5802 0.0
C86 C 0.55021 0.94034 0.61951 0.0
C87 C 0.58879 0.95554 0.60935 0.0
H88 H 0.57874 0.98336 0.48036 0.0
C89 C 0.59849 0.97056 0.5584 0.0
C90 C 0.56999 0.97178 0.51915 0.0
H91 H 0.62805 0.982 0.54898 0.0
H92 H 0.37201 0.97651 0.39395 0.0
H93 H 0.42177 0.96349 0.45802 0.0
H94 H 0.50852 0.03091 0.36275 0.0
H95 H 0.45858 0.04433 0.29906 0.0
H96 H 0.52689 0.01052 0.45125 0.0
H97 H 0.47353 0.94133 0.49429 0.0
H98 H 0.49197 0.93053 0.58951 0.0
H99 H 0.54181 0.92832 0.65825 0.0
C100 C 0.03911 0.60056 0.90319 0.0
C101 C 0.04213 0.6406 0.89365 0.0
C102 C 0.05178 0.57539 0.86508 0.0
C103 C 0.06733 0.58965 0.81608 0.0
C104 C 0.07145 0.62978 0.80728 0.0
C105 C 0.05892 0.65503 0.84559 0.0
C106 C 0.07933 0.56368 0.77328 0.0
C107 C 0.06415 0.52652 0.76825 0.0
C108 C 0.07303 0.50046 0.72372 0.0
C109 C 0.06111 0.46075 0.72882 0.0
C110 C 0.06561 0.43537 0.68659 0.0
C111 C 0.08206 0.44916 0.63803 0.0
H112 H 0.09952 0.54444 0.66905 0.0
C113 C 0.09508 0.48866 0.63327 0.0
C114 C 0.09052 0.5141 0.6755 0.0
H115 H 0.10774 0.50024 0.59628 0.0
H116 H 0.02693 0.58854 0.94022 0.0
H117 H 0.04953 0.54491 0.8746 0.0
H118 H 0.08372 0.64161 0.77018 0.0
H119 H 0.0619 0.68575 0.83718 0.0
H120 H 0.1 0.57642 0.74406 0.0
H121 H 0.04303 0.51438 0.79737 0.0
H122 H 0.04751 0.44935 0.76535 0.0
H123 H 0.05528 0.4051 0.69165 0.0
C124 C 0.48091 0.09545 0.09086 0.0
C125 C 0.44086 0.08341 0.08918 0.0
C126 C 0.50382 0.09381 0.04506 0.0
C127 C 0.48709 0.07999 -0.00338 0.0
C128 C 0.4468 0.0697 -0.00559 0.0
C129 C 0.42392 0.07114 0.04025 0.0
C130 C 0.51075 0.07544 0.94796 0.0
C131 C 0.54804 0.06749 0.94994 0.0
C132 C 0.57073 0.05888 0.90179 0.0
C133 C 0.60124 0.03553 0.90733 0.0
C134 C 0.62252 0.02568 0.86283 0.0
C135 C 0.61399 0.03938 0.81181 0.0
H136 H 0.54032 0.09246 0.84526 0.0
C137 C 0.58415 0.06363 0.80641 0.0
C138 C 0.56277 0.07337 0.85092 0.0
H139 H 0.5771 0.07499 0.76772 0.0
H140 H 0.49479 0.10545 0.1278 0.0
H141 H 0.53456 0.10329 0.04784 0.0
H142 H 0.43312 0.0594 0.95745 0.0
H143 H 0.39309 0.06195 0.03749 0.0
H144 H 0.49585 0.07516 0.90978 0.0
H145 H 0.56162 0.06398 0.98849 0.0
H146 H 0.60822 0.02427 0.94613 0.0
H147 H 0.64548 0.00713 0.86844 0.0
C148 C 0.291 0.91359 0.15909 0.0
C149 C 0.28376 0.95152 0.17198 0.0
C150 C 0.26035 0.88569 0.14621 0.0
C151 C 0.22173 0.89516 0.14617 0.0
C152 C 0.2146 0.93306 0.15904 0.0
C153 C 0.24519 0.96089 0.1721 0.0
C154 C 0.18834 0.86704 0.13048 0.0
C155 C 0.18839 0.82837 0.13462 0.0
C156 C 0.15539 0.80006 0.11774 0.0
C157 C 0.16248 0.76152 0.10893 0.0
C158 C 0.13258 0.73392 0.09254 0.0
C159 C 0.09477 0.74423 0.08478 0.0
H160 H 0.10997 0.83909 0.11898 0.0
C161 C 0.08743 0.78261 0.09438 0.0
C162 C 0.11729 0.81019 0.11094 0.0
H163 H 0.0585 0.79139 0.08938 0.0
H164 H 0.32041 0.90551 0.15826 0.0
H165 H 0.26729 0.85718 0.13494 0.0
H166 H 0.18521 0.94124 0.15894 0.0
H167 H 0.23859 0.98988 0.18165 0.0
H168 H 0.16289 0.87916 0.11526 0.0
H169 H 0.21394 0.81656 0.15024 0.0
H170 H 0.19139 0.75275 0.11424 0.0
H171 H 0.13922 0.70456 0.0857 0.0
C172 C 0.33517 0.18082 0.33267 0.0
C173 C 0.32401 0.16075 0.2855 0.0
C174 C 0.3144 0.21065 0.35096 0.0
C175 C 0.28202 0.22098 0.32236 0.0
C176 C 0.27196 0.20203 0.27411 0.0
C177 C 0.29254 0.17207 0.25601 0.0
C178 C 0.2576 0.25076 0.34188 0.0
C179 C 0.25274 0.25822 0.39414 0.0
C180 C 0.22383 0.28363 0.41378 0.0
C181 C 0.20646 0.27585 0.46384 0.0
C182 C 0.17687 0.29707 0.48188 0.0
C183 C 0.16437 0.32691 0.45045 0.0
H184 H 0.22623 0.32231 0.34535 0.0
C185 C 0.18312 0.33601 0.40152 0.0
C186 C 0.21257 0.31462 0.38333 0.0
H187 H 0.17449 0.35912 0.3766 0.0
H188 H 0.35954 0.17307 0.35604 0.0
H189 H 0.32379 0.22545 0.38744 0.0
H190 H 0.2474 0.20967 0.25102 0.0
H191 H 0.28339 0.15745 0.21924 0.0
H192 H 0.24007 0.26398 0.31246 0.0
H193 H 0.26733 0.24215 0.42387 0.0
H194 H 0.2149 0.25243 0.48836 0.0
H195 H 0.1633 0.28954 0.52001 0.0
C196 C 0.78929 0.09077 0.65864 0.0
C197 C 0.75125 0.08986 0.63865 0.0
C198 C 0.81686 0.12206 0.64756 0.0
C199 C 0.80699 0.1531 0.616 0.0
C200 C 0.76891 0.15228 0.59638 0.0
C201 C 0.74138 0.12092 0.60727 0.0
C202 C 0.83511 0.1874 0.6046 0.0
C203 C 0.8739 0.1861 0.60369 0.0
C204 C 0.90208 0.22039 0.59255 0.0
C205 C 0.93874 0.21466 0.57175 0.0
C206 C 0.96634 0.24609 0.56167 0.0
C207 C 0.95805 0.28399 0.57286 0.0
H208 H 0.86634 0.26386 0.62165 0.0
C209 C 0.9215 0.28976 0.59421 0.0
C210 C 0.8938 0.25832 0.60404 0.0
H211 H 0.91429 0.31857 0.60364 0.0
H212 H 0.79776 0.06746 0.68332 0.0
H213 H 0.84553 0.12214 0.66486 0.0
H214 H 0.76043 0.17595 0.57238 0.0
H215 H 0.71227 0.12124 0.59147 0.0
H216 H 0.82319 0.21412 0.59425 0.0
H217 H 0.88564 0.15856 0.60881 0.0
H218 H 0.94601 0.18575 0.563 0.0
H219 H 0.99429 0.2406 0.54544 0.0
C220 C 0.71744 0.8645 0.82402 0.0
C221 C 0.72747 0.88594 0.77752 0.0
C222 C 0.74042 0.83626 0.84174 0.0
C223 C 0.77398 0.82891 0.81326 0.0
C224 C 0.78305 0.84919 0.76563 0.0
C225 C 0.76022 0.87759 0.74809 0.0
C226 C 0.80029 0.80063 0.83223 0.0
C227 C 0.80527 0.79291 0.88439 0.0
C228 C 0.83444 0.76779 0.90406 0.0
C229 C 0.85029 0.77459 0.95519 0.0
C230 C 0.87887 0.75262 0.97445 0.0
C231 C 0.89186 0.72293 0.94322 0.0
H232 H 0.83426 0.73053 0.83436 0.0
C233 C 0.8751 0.71524 0.89271 0.0
C234 C 0.84668 0.73743 0.87327 0.0
H235 H 0.88423 0.69236 0.86782 0.0
H236 H 0.69217 0.86992 0.84734 0.0
H237 H 0.73176 0.82029 0.87766 0.0
H238 H 0.80848 0.84378 0.74262 0.0
H239 H 0.76859 0.89336 0.71185 0.0
H240 H 0.81854 0.78854 0.80259 0.0
H241 H 0.78981 0.80805 0.91426 0.0
H242 H 0.84111 0.79754 0.97994 0.0
H243 H 0.89096 0.75912 0.01371 0.0
loop_
_geom_bond_atom_site_label_1
_geom_bond_atom_site_label_2
_geom_bond_distance
_geom_bond_site_symmetry_2
_ccdc_geom_bond_type
C0 O1 1.160 . S
C0 O7 1.185 1_556 S
O1 C0 1.160 . S
O2 Zn3 1.899 1_556 S
O2 C10 1.309 . S
Zn3 O2 1.899 1_554 S
Zn3 O4 2.032 . S
Zn3 O7 2.086 1_455 S
Zn3 O12 1.977 1_455 S
O4 Zn3 2.032 . S
O4 C8 1.278 . S
C5 O6 1.203 . S
C5 O12 1.267 1_455 S
O6 C5 1.203 . S
O7 C0 1.185 1_554 S
O7 Zn3 2.086 1_655 S
C8 O4 1.278 . S
C8 O9 1.211 . S
O9 C8 1.211 . S
C10 O2 1.309 . S
C10 O11 1.273 . S
O11 C10 1.273 . S
O12 Zn3 1.977 1_655 S
O12 C5 1.267 1_655 S
C13 O14 1.160 . S
C13 O20 1.185 . S
O14 C13 1.160 . S
O15 Zn16 1.899 . S
O15 C23 1.284 . S
Zn16 O15 1.899 . S
Zn16 O17 2.032 . S
Zn16 O20 2.086 . S
Zn16 O25 1.977 . S
O17 Zn16 2.032 . S
O17 C21 1.278 1_545 S
C18 O19 1.203 . S
C18 O25 1.267 . S
O19 C18 1.203 . S
O20 C13 1.185 . S
O20 Zn16 2.086 . S
C21 O17 1.278 1_565 S
C21 O22 1.211 . S
O22 C21 1.211 . S
C23 O15 1.284 . S
C23 O24 1.273 1_545 S
O24 C23 1.273 1_565 S
O25 Zn16 1.977 . S
O25 C18 1.267 . S
C26 O27 1.160 . S
C26 O33 1.185 . S
O27 C26 1.160 . S
O28 Zn29 1.899 . S
O28 C36 1.284 . S
Zn29 O28 1.899 . S
Zn29 O30 2.032 . S
Zn29 O33 2.086 . S
Zn29 O38 1.977 . S
O30 Zn29 2.032 . S
O30 C34 1.278 1_455 S
C31 O32 1.203 . S
C31 O38 1.267 . S
O32 C31 1.203 . S
O33 C26 1.185 . S
O33 Zn29 2.086 . S
C34 O30 1.278 1_655 S
C34 O35 1.211 . S
O35 C34 1.211 . S
C36 O28 1.284 . S
C36 O37 1.273 1_455 S
O37 C36 1.273 1_655 S
O38 Zn29 1.977 . S
O38 C31 1.267 . S
C39 O40 1.160 . S
C39 O46 1.185 . S
O40 C39 1.160 . S
O41 Zn42 1.899 . S
O41 C49 1.309 . S
Zn42 O41 1.899 . S
Zn42 O43 2.032 . S
Zn42 O46 2.086 1_545 S
Zn42 O51 1.977 1_545 S
O43 Zn42 2.032 . S
O43 C47 1.278 . S
C44 O45 1.203 . S
C44 O51 1.267 1_545 S
O45 C44 1.203 . S
O46 C39 1.185 . S
O46 Zn42 2.086 1_565 S
C47 O43 1.278 . S
C47 O48 1.211 . S
O48 C47 1.211 . S
C49 O41 1.309 . S
C49 O50 1.273 . S
O50 C49 1.273 . S
O51 Zn42 1.977 1_565 S
O51 C44 1.267 1_565 S
C52 C53 1.386 1_455 S
C52 C54 1.383 . S
C52 H68 0.951 . S
C53 C52 1.386 1_655 S
C53 C57 1.383 . S
C54 C52 1.383 . S
C54 C55 1.402 1_455 S
C54 H69 0.951 . S
C55 C54 1.402 1_655 S
C55 C56 1.375 . S
C55 C58 1.481 . S
C56 C55 1.375 . S
C56 C57 1.367 . S
C56 H70 0.951 . S
C57 C53 1.383 . S
C57 C56 1.367 . S
C57 H71 0.950 . S
C58 C55 1.481 . S
C58 C59 1.297 . S
C58 H72 0.950 . S
C59 C58 1.297 . S
C59 C60 1.479 . S
C59 H73 0.950 . S
C60 C59 1.479 . S
C60 C61 1.375 1_655 S
C60 C66 1.404 . S
C61 C60 1.375 1_455 S
C61 C62 1.369 . S
C61 H74 0.950 . S
C62 C61 1.369 . S
C62 C63 1.392 . S
C62 H75 0.951 . S
C63 C62 1.392 . S
C63 C65 1.384 1_455 S
H64 C66 0.949 . S
C65 C63 1.384 1_655 S
C65 C66 1.385 . S
C65 H67 0.950 . S
C66 C60 1.404 . S
C66 H64 0.949 . S
C66 C65 1.385 . S
H67 C65 0.950 . S
H68 C52 0.951 . S
H69 C54 0.951 . S
H70 C56 0.951 . S
H71 C57 0.950 . S
H72 C58 0.950 . S
H73 C59 0.950 . S
H74 C61 0.950 . S
H75 C62 0.951 . S
C76 C77 1.386 1_565 S
C76 C78 1.383 . S
C76 H92 0.951 . S
C77 C76 1.386 1_545 S
C77 C81 1.383 . S
C78 C76 1.383 . S
C78 C79 1.402 1_565 S
C78 H93 0.951 . S
C79 C78 1.402 1_545 S
C79 C80 1.375 . S
C79 C82 1.481 . S
C80 C79 1.375 . S
C80 C81 1.367 . S
C80 H94 0.951 . S
C81 C77 1.383 . S
C81 C80 1.367 . S
C81 H95 0.950 . S
C82 C79 1.481 . S
C82 C83 1.297 1_545 S
C82 H96 0.950 . S
C83 C82 1.297 1_565 S
C83 C84 1.479 . S
C83 H97 0.950 . S
C84 C83 1.479 . S
C84 C85 1.375 . S
C84 C90 1.404 1_565 S
C85 C84 1.375 . S
C85 C86 1.369 . S
C85 H98 0.950 . S
C86 C85 1.369 . S
C86 C87 1.392 . S
C86 H99 0.951 . S
C87 C86 1.392 . S
C87 C89 1.384 1_565 S
H88 C90 0.949 . S
C89 C87 1.384 1_545 S
C89 C90 1.385 . S
C89 H91 0.950 . S
C90 C84 1.404 1_545 S
C90 H88 0.949 . S
C90 C89 1.385 . S
H91 C89 0.950 . S
H92 C76 0.951 . S
H93 C78 0.951 . S
H94 C80 0.951 . S
H95 C81 0.950 . S
H96 C82 0.950 . S
H97 C83 0.950 . S
H98 C85 0.950 . S
H99 C86 0.951 . S
C100 C101 1.386 . S
C100 C102 1.383 . S
C100 H116 0.951 1_455 S
C101 C100 1.386 . S
C101 C105 1.383 . S
C102 C100 1.383 . S
C102 C103 1.402 . S
C102 H117 0.955 . S
C103 C102 1.402 . S
C103 C104 1.375 . S
C103 C106 1.481 . S
C104 C103 1.375 . S
C104 C105 1.367 . S
C104 H118 0.951 . S
C105 C101 1.383 . S
C105 C104 1.367 . S
C105 H119 0.950 . S
C106 C103 1.481 . S
C106 C107 1.297 . S
C106 H120 0.950 . S
C107 C106 1.297 . S
C107 C108 1.479 . S
C107 H121 0.950 . S
C108 C107 1.479 . S
C108 C109 1.375 . S
C108 C114 1.404 . S
C109 C108 1.375 . S
C109 C110 1.369 . S
C109 H122 0.950 1_455 S
C110 C109 1.369 . S
C110 C111 1.392 . S
C110 H123 0.951 . S
C111 C110 1.392 . S
C111 C113 1.384 . S
H112 C114 0.949 . S
C113 C111 1.384 . S
C113 C114 1.385 . S
C113 H115 0.950 . S
C114 C108 1.404 . S
C114 H112 0.949 . S
C114 C113 1.385 . S
H115 C113 0.950 . S
H116 C100 0.951 1_655 S
H117 C102 0.955 . S
H118 C104 0.951 . S
H119 C105 0.950 . S
H120 C106 0.950 . S
H121 C107 0.950 . S
H122 C109 0.950 1_655 S
H123 C110 0.951 . S
C124 C125 1.386 . S
C124 C126 1.383 . S
C124 H140 0.951 . S
C125 C124 1.386 . S
C125 C129 1.383 . S
C126 C124 1.383 . S
C126 C127 1.402 . S
C126 H141 0.951 . S
C127 C126 1.402 . S
C127 C128 1.375 . S
C127 C130 1.481 1_554 S
C128 C127 1.375 . S
C128 C129 1.367 . S
C128 H142 0.951 . S
C129 C125 1.383 . S
C129 C128 1.367 . S
C129 H143 0.950 . S
C130 C127 1.481 1_556 S
C130 C131 1.297 . S
C130 H144 0.950 . S
C131 C130 1.297 . S
C131 C132 1.479 . S
C131 H145 0.964 . S
C132 C131 1.479 . S
C132 C133 1.374 . S
C132 C138 1.404 . S
C133 C132 1.374 . S
C133 C134 1.369 . S
C133 H146 0.951 1_545 S
C134 C133 1.369 . S
C134 C135 1.392 . S
C134 H147 0.951 1_545 S
C135 C134 1.392 . S
C135 C137 1.384 . S
H136 C138 0.949 . S
C137 C135 1.384 . S
C137 C138 1.385 . S
C137 H139 0.950 . S
C138 C132 1.404 . S
C138 H136 0.949 . S
C138 C137 1.385 . S
H139 C137 0.950 . S
H140 C124 0.951 . S
H141 C126 0.951 . S
H142 C128 0.951 . S
H143 C129 0.950 . S
H144 C130 0.950 . S
H145 C131 0.964 . S
H146 C133 0.951 1_565 S
H147 C134 0.951 1_565 S
C148 C149 1.386 . S
C148 C150 1.383 . S
C148 H164 0.951 . S
C149 C148 1.386 . S
C149 C153 1.383 . S
C150 C148 1.383 . S
C150 C151 1.402 . S
C150 H165 0.951 . S
C151 C150 1.402 . S
C151 C152 1.375 . S
C151 C154 1.481 . S
C152 C151 1.375 . S
C152 C153 1.367 . S
C152 H166 0.951 . S
C153 C149 1.383 . S
C153 C152 1.367 . S
C153 H167 0.950 . S
C154 C151 1.481 . S
C154 C155 1.297 . S
C154 H168 0.950 . S
C155 C154 1.297 . S
C155 C156 1.479 . S
C155 H169 0.950 . S
C156 C155 1.479 . S
C156 C157 1.375 . S
C156 C162 1.404 . S
C157 C156 1.375 . S
C157 C158 1.369 . S
C157 H170 0.950 . S
C158 C157 1.369 . S
C158 C159 1.392 . S
C158 H171 0.951 . S
C159 C158 1.392 . S
C159 C161 1.384 . S
H160 C162 0.949 . S
C161 C159 1.384 . S
C161 C162 1.385 . S
C161 H163 0.950 . S
C162 C156 1.404 . S
C162 H160 0.949 . S
C162 C161 1.385 . S
H163 C161 0.950 . S
H164 C148 0.951 . S
H165 C150 0.951 . S
H166 C152 0.951 . S
H167 C153 0.950 . S
H168 C154 0.950 . S
H169 C155 0.950 . S
H170 C157 0.950 . S
H171 C158 0.951 . S
C172 C173 1.386 . S
C172 C174 1.383 . S
C172 H188 0.951 . S
C173 C172 1.386 . S
C173 C177 1.383 . S
C174 C172 1.383 . S
C174 C175 1.402 . S
C174 H189 0.951 . S
C175 C174 1.402 . S
C175 C176 1.375 . S
C175 C178 1.481 . S
C176 C175 1.375 . S
C176 C177 1.367 . S
C176 H190 0.951 . S
C177 C173 1.383 . S
C177 C176 1.367 . S
C177 H191 0.950 . S
C178 C175 1.481 . S
C178 C179 1.297 . S
C178 H192 0.950 . S
C179 C178 1.297 . S
C179 C180 1.479 . S
C179 H193 0.950 . S
C180 C179 1.479 . S
C180 C181 1.375 . S
C180 C186 1.404 . S
C181 C180 1.375 . S
C181 C182 1.369 . S
C181 H194 0.950 . S
C182 C181 1.369 . S
C182 C183 1.392 . S
C182 H195 0.951 . S
C183 C182 1.392 . S
C183 C185 1.384 . S
H184 C186 0.949 . S
C185 C183 1.384 . S
C185 C186 1.385 . S
C185 H187 0.950 . S
C186 C180 1.404 . S
C186 H184 0.949 . S
C186 C185 1.385 . S
H187 C185 0.950 . S
H188 C172 0.951 . S
H189 C174 0.951 . S
H190 C176 0.951 . S
H191 C177 0.950 . S
H192 C178 0.950 . S
H193 C179 0.950 . S
H194 C181 0.950 . S
H195 C182 0.951 . S
C196 C197 1.386 . S
C196 C198 1.383 . S
C196 H212 0.951 . S
C197 C196 1.386 . S
C197 C201 1.383 . S
C198 C196 1.383 . S
C198 C199 1.402 . S
C198 H213 0.951 . S
C199 C198 1.402 . S
C199 C200 1.375 . S
C199 C202 1.481 . S
C200 C199 1.375 . S
C200 C201 1.367 . S
C200 H214 0.951 . S
C201 C197 1.383 . S
C201 C200 1.367 . S
C201 H215 0.950 . S
C202 C199 1.481 . S
C202 C203 1.297 . S
C202 H216 0.950 . S
C203 C202 1.297 . S
C203 C204 1.479 . S
C203 H217 0.950 . S
C204 C203 1.479 . S
C204 C205 1.375 . S
C204 C210 1.404 . S
C205 C204 1.375 . S
C205 C206 1.369 . S
C205 H218 0.950 . S
C206 C205 1.369 . S
C206 C207 1.392 . S
C206 H219 0.951 . S
C207 C206 1.392 . S
C207 C209 1.384 . S
H208 C210 0.949 . S
C209 C207 1.384 . S
C209 C210 1.385 . S
C209 H211 0.950 . S
C210 C204 1.404 . S
C210 H208 0.949 . S
C210 C209 1.385 . S
H211 C209 0.950 . S
H212 C196 0.951 . S
H213 C198 0.951 . S
H214 C200 0.951 . S
H215 C201 0.950 . S
H216 C202 0.950 . S
H217 C203 0.950 . S
H218 C205 0.950 . S
H219 C206 0.951 . S
C220 C221 1.386 . S
C220 C222 1.383 . S
C220 H236 0.951 . S
C221 C220 1.386 . S
C221 C225 1.383 . S
C222 C220 1.383 . S
C222 C223 1.402 . S
C222 H237 0.951 . S
C223 C222 1.402 . S
C223 C224 1.375 . S
C223 C226 1.481 . S
C224 C223 1.375 . S
C224 C225 1.367 . S
C224 H238 0.951 . S
C225 C221 1.383 . S
C225 C224 1.367 . S
C225 H239 0.950 . S
C226 C223 1.481 . S
C226 C227 1.297 . S
C226 H240 0.950 . S
C227 C226 1.297 . S
C227 C228 1.479 . S
C227 H241 0.950 . S
C228 C227 1.479 . S
C228 C229 1.375 . S
C228 C234 1.404 . S
C229 C228 1.375 . S
C229 C230 1.369 . S
C229 H242 0.950 . S
C230 C229 1.369 . S
C230 C231 1.392 . S
C230 H243 0.951 . S
C231 C230 1.392 . S
C231 C233 1.384 . S
H232 C234 0.949 . S
C233 C231 1.384 . S
C233 C234 1.385 . S
C233 H235 0.950 . S
C234 C228 1.404 . S
C234 H232 0.949 . S
C234 C233 1.385 . S
H235 C233 0.950 . S
H236 C220 0.951 . S
H237 C222 0.951 . S
H238 C224 0.951 . S
H239 C225 0.950 . S
H240 C226 0.950 . S
H241 C227 0.950 . S
H242 C229 0.950 . S
H243 C230 0.951 . S
C53 C5 1.040 1_655 S
C63 C36 1.042 . S
C77 C23 1.065 . S
C87 C44 1.093 1_565 S
C101 C10 1.063 . S
C111 C31 0.948 . S
C125 C18 1.061 . S
C135 C49 1.067 . S
C149 C21 1.451 . S
C159 C8 1.392 . S
C173 C13 1.455 . S
C183 C26 1.383 . S
C197 C47 1.439 . S
C207 C34 1.459 . S
C221 C39 1.454 . S
C231 C0 1.372 . S
