# Generated by pormake.
# Topology cdl, (4)-cn, num edge types: 1
# Building blocks:
#     Node 0, Type 0, BuildingBlock: NAWXER_clean_sbu_0, # of connection points: 4
#     Node 1, Type 0, BuildingBlock: NAWXER_clean_sbu_0, # of connection points: 4
#     Node 2, Type 0, BuildingBlock: NAWXER_clean_sbu_0, # of connection points: 4
#     Node 3, Type 0, BuildingBlock: NAWXER_clean_sbu_0, # of connection points: 4
#     Edge 4, Type (0, 0), BuildingBlock: XIVTED_clean_linker_0, # of connection points: 2
#     Edge 5, Type (0, 0), BuildingBlock: XIVTED_clean_linker_0, # of connection points: 2
#     Edge 6, Type (0, 0), BuildingBlock: XIVTED_clean_linker_0, # of connection points: 2
#     Edge 7, Type (0, 0), BuildingBlock: XIVTED_clean_linker_0, # of connection points: 2
#     Edge 8, Type (0, 0), BuildingBlock: XIVTED_clean_linker_0, # of connection points: 2
#     Edge 9, Type (0, 0), BuildingBlock: XIVTED_clean_linker_0, # of connection points: 2
#     Edge 10, Type (0, 0), BuildingBlock: XIVTED_clean_linker_0, # of connection points: 2
#     Edge 11, Type (0, 0), BuildingBlock: XIVTED_clean_linker_0, # of connection points: 2
# Relax obj value: 0.000
# Max RMSD: 0.003
# Mean RMSD: 0.003
data_MOF--net-cdl--node1-NAWXER_clean_sbu_0--edge1-XIVTED_clean_linker_0
_symmetry_space_group_name_H-M    P1
_symmetry_Int_Tables_number       1
_symmetry_cell_setting            triclinic
loop_
_symmetry_equiv_pos_as_xyz
'x, y, z'
_cell_length_a     14.929927
_cell_length_b     14.928974
_cell_length_c     59.036114
_cell_angle_alpha  96.486408
_cell_angle_beta   96.575287
_cell_angle_gamma 88.834876
loop_
_atom_site_label
_atom_site_type_symbol
_atom_site_fract_x
_atom_site_fract_y
_atom_site_fract_z
_atom_type_partial_charge
C0 C 0.85701 0.24681 0.12586 0.0
C1 C 0.85688 0.91741 0.12238 0.0
O2 O 0.93562 0.211 0.12856 0.0
Zn3 Zn 0.99705 0.0817 0.12948 0.0
O4 O 0.7879 0.19652 0.12251 0.0
Zn5 Zn 0.85352 0.08188 0.12369 0.0
O6 O 0.91076 0.08854 0.15928 0.0
O7 O 0.05902 0.09114 0.15999 0.0
O8 O 0.78803 0.96839 0.11973 0.0
O9 O 0.93573 0.95223 0.12596 0.0
O10 O 0.06827 0.07423 0.10422 0.0
O11 O 0.92202 0.0741 0.09315 0.0
C12 C 0.98961 0.09202 0.17061 0.0
C13 C 1.00363 0.07208 0.08819 0.0
C14 C 0.24939 0.85697 0.62528 0.0
C15 C 0.92029 0.85447 0.62238 0.0
O16 O 0.19955 0.7875 0.62186 0.0
Zn17 Zn 0.08528 0.85219 0.62361 0.0
O18 O 0.21322 0.93542 0.6283 0.0
Zn19 Zn 0.08263 0.99576 0.62945 0.0
O20 O 0.08861 0.05692 0.66002 0.0
O21 O 0.09715 0.90869 0.65924 0.0
O22 O 0.95465 0.93339 0.62574 0.0
O23 O 0.97176 0.7859 0.62009 0.0
O24 O 0.0758 0.9214 0.59312 0.0
O25 O 0.07387 0.06755 0.60424 0.0
C26 C 0.09674 0.98724 0.67063 0.0
C27 C 0.07244 1.00312 0.58819 0.0
C28 C 0.28207 0.22248 0.89058 0.0
C29 C 0.27956 0.89333 0.88752 0.0
O30 O 0.35064 0.17094 0.89279 0.0
Zn31 Zn 0.2843 0.05746 0.88926 0.0
O32 O 0.20312 0.18818 0.88729 0.0
Zn33 Zn 0.14075 0.06021 0.88357 0.0
O34 O 0.06947 0.06856 0.90882 0.0
O35 O 0.21574 0.06638 0.91984 0.0
O36 O 0.20107 0.92954 0.88459 0.0
O37 O 0.34905 0.94315 0.8909 0.0
O38 O 0.22706 0.04613 0.85366 0.0
O39 O 0.0789 0.05468 0.85307 0.0
C40 C 0.13413 0.06965 0.92483 0.0
C41 C 0.14825 0.04673 0.84237 0.0
C42 C 0.21982 0.28152 0.39046 0.0
C43 C 0.89041 0.2813 0.38701 0.0
O44 O 0.185 0.20267 0.38693 0.0
Zn45 Zn 0.05553 0.14134 0.38345 0.0
O46 O 0.16883 0.35036 0.39308 0.0
Zn47 Zn 0.05535 0.28483 0.38916 0.0
O48 O 0.0635 0.21641 0.41975 0.0
O49 O 0.06328 0.07017 0.40874 0.0
O50 O 0.94068 0.35041 0.39031 0.0
O51 O 0.92623 0.20271 0.38435 0.0
O52 O 0.04594 0.07928 0.35297 0.0
O53 O 0.04854 0.2275 0.35359 0.0
C54 C 0.06562 0.1348 0.42475 0.0
C55 C 0.04503 0.14863 0.3423 0.0
H56 H 0.99258 0.36682 0.13753 0.0
H57 H 0.70275 0.81253 0.11646 0.0
H58 H 0.70675 0.35376 0.11541 0.0
H59 H 0.99329 0.79637 0.12799 0.0
H60 H 0.69636 0.64822 0.11774 0.0
H61 H 0.98721 0.52802 0.13668 0.0
C62 C 0.92826 0.39787 0.13247 0.0
C63 C 0.85006 0.34614 0.12635 0.0
C64 C 0.76122 0.68115 0.11992 0.0
C65 C 0.8435 0.53314 0.12523 0.0
C66 C 0.76497 0.77469 0.11918 0.0
C67 C 0.84868 0.81853 0.12217 0.0
C68 C 0.84172 0.63188 0.1238 0.0
C69 C 0.92709 0.76618 0.12564 0.0
C70 C 0.92529 0.49051 0.13195 0.0
C71 C 0.76871 0.39108 0.1202 0.0
N72 N 0.92152 0.67626 0.12641 0.0
N73 N 0.76748 0.48234 0.1197 0.0
H74 H 0.36882 0.99412 0.63458 0.0
H75 H 0.81566 0.70033 0.618 0.0
H76 H 0.35664 0.70575 0.61647 0.0
H77 H 0.79868 0.99117 0.62568 0.0
H78 H 0.65099 0.69484 0.61887 0.0
H79 H 0.52996 0.98813 0.63364 0.0
C80 C 0.40004 0.92913 0.63039 0.0
C81 C 0.34861 0.85033 0.62547 0.0
C82 C 0.68385 0.75954 0.62029 0.0
C83 C 0.53552 0.84298 0.62425 0.0
C84 C 0.77758 0.76275 0.61978 0.0
C85 C 0.8213 0.84631 0.62186 0.0
C86 C 0.63433 0.84045 0.623 0.0
C87 C 0.76865 0.92505 0.62412 0.0
C88 C 0.49265 0.92578 0.62981 0.0
C89 C 0.39373 0.76819 0.62033 0.0
N90 N 0.67862 0.92001 0.62468 0.0
N91 N 0.48495 0.76656 0.6198 0.0
H92 H 0.43625 0.32693 0.89472 0.0
H93 H 0.14239 0.77392 0.87822 0.0
H94 H 0.14542 0.34427 0.88754 0.0
H95 H 0.43087 0.78603 0.89629 0.0
H96 H 0.1484 0.61278 0.87921 0.0
H97 H 0.44176 0.49158 0.89379 0.0
C98 C 0.37384 0.36508 0.89304 0.0
C99 C 0.29026 0.32147 0.89111 0.0
C100 C 0.21077 0.65008 0.88302 0.0
C101 C 0.29614 0.50841 0.8899 0.0
C102 C 0.20741 0.74269 0.88241 0.0
C103 C 0.28623 0.7941 0.88732 0.0
C104 C 0.2936 0.60721 0.88859 0.0
C105 C 0.36842 0.74896 0.89245 0.0
C106 C 0.37706 0.4588 0.89249 0.0
C107 C 0.21154 0.37422 0.88898 0.0
N108 N 0.37006 0.65775 0.89301 0.0
N109 N 0.21658 0.46424 0.88837 0.0
H110 H 0.3247 0.43563 0.39627 0.0
H111 H 0.77038 0.14566 0.37549 0.0
H112 H 0.34085 0.1451 0.38495 0.0
H113 H 0.78346 0.4316 0.39731 0.0
H114 H 0.6092 0.15104 0.37634 0.0
H115 H 0.48901 0.44199 0.395 0.0
C116 C 0.36253 0.37341 0.3936 0.0
C117 C 0.31869 0.28971 0.39067 0.0
C118 C 0.6467 0.21299 0.381 0.0
C119 C 0.50534 0.29662 0.38905 0.0
C120 C 0.73934 0.21001 0.38048 0.0
C121 C 0.79107 0.28824 0.38652 0.0
C122 C 0.60408 0.29483 0.38763 0.0
C123 C 0.74614 0.36962 0.39259 0.0
C124 C 0.45608 0.37714 0.39286 0.0
C125 C 0.37104 0.21129 0.38726 0.0
N126 N 0.65488 0.37086 0.39308 0.0
N127 N 0.46095 0.21685 0.3865 0.0
H128 H 0.25655 0.07143 0.96317 0.0
H129 H 0.88121 0.06956 0.04983 0.0
H130 H 0.97019 0.0728 0.94174 0.0
H131 H 0.16756 0.07001 0.07131 0.0
H132 H 0.9125 0.06992 0.01015 0.0
H133 H 0.22525 0.0712 1.00286 0.0
C134 C 0.18704 0.07192 0.96679 0.0
C135 C 0.11589 0.07212 0.94904 0.0
C136 C 0.96852 0.06984 0.02353 0.0
C137 C 0.07957 0.07155 0.99455 0.0
C138 C 0.95072 0.0695 0.04622 0.0
C139 C 0.02187 0.06977 0.06398 0.0
C140 C 0.05818 0.07047 0.01848 0.0
C141 C 0.11055 0.06978 0.05821 0.0
C142 C 0.16923 0.07167 0.98949 0.0
C143 C 0.02721 0.07267 0.95483 0.0
N144 N 0.12614 0.07021 0.03598 0.0
N145 N 0.01161 0.07226 0.97706 0.0
H146 H 0.06872 0.25712 0.4631 0.0
H147 H 0.06961 0.88113 0.54981 0.0
H148 H 0.06821 0.97085 0.44167 0.0
H149 H 0.06888 0.16733 0.57133 0.0
H150 H 0.06866 0.91282 0.51012 0.0
H151 H 0.06941 0.22565 0.50283 0.0
C152 C 0.06897 0.1876 0.46673 0.0
C153 C 0.0684 0.11652 0.44897 0.0
C154 C 0.0686 0.96874 0.52351 0.0
C155 C 0.06891 0.08001 0.49451 0.0
C156 C 0.06903 0.95071 0.54621 0.0
C157 C 0.06935 0.02168 0.56398 0.0
C158 C 0.06855 0.05845 0.51846 0.0
C159 C 0.06863 0.11044 0.55821 0.0
C160 C 0.06924 0.16969 0.48944 0.0
C161 C 0.06866 0.02782 0.45477 0.0
N162 N 0.06837 0.12627 0.53597 0.0
N163 N 0.06882 0.01214 0.47701 0.0
H164 H 0.10823 0.26439 0.31531 0.0
H165 H 0.87372 0.02881 0.19755 0.0
H166 H 0.97014 0.01129 0.31187 0.0
H167 H 0.12678 0.16707 0.20111 0.0
H168 H 0.88972 0.03956 0.2396 0.0
H169 H 0.09779 0.24804 0.27327 0.0
C170 C 0.07555 0.20553 0.30569 0.0
C171 C 0.03998 0.13902 0.31702 0.0
C172 C 0.94173 0.06722 0.23111 0.0
C173 C 0.0267 0.12087 0.26914 0.0
C174 C 0.9325 0.06158 0.20719 0.0
C175 C 0.9991 0.09711 0.19589 0.0
C176 C 0.01685 0.11077 0.24378 0.0
C177 C 0.07417 0.13845 0.20918 0.0
C178 C 0.0701 0.19611 0.28178 0.0
C179 C 0.99877 0.06384 0.30377 0.0
N180 N 0.08058 0.1451 0.23248 0.0
N181 N 0.99231 0.05723 0.28047 0.0
H182 H 0.17834 0.87014 0.69894 0.0
H183 H 0.01047 0.10883 0.8134 0.0
H184 H 0.03421 0.12375 0.69983 0.0
H185 H 0.26462 0.96582 0.81381 0.0
H186 H 0.99808 0.09589 0.7713 0.0
H187 H 0.19109 0.885 0.74098 0.0
C188 C 0.1492 0.92879 0.70799 0.0
C189 C 0.10538 0.99599 0.69595 0.0
C190 C 0.05645 0.06752 0.78068 0.0
C191 C 0.11842 0.01242 0.74382 0.0
C192 C 0.06336 0.07438 0.80462 0.0
C193 C 0.13877 0.03844 0.81705 0.0
C194 C 0.1243 0.02243 0.76915 0.0
C195 C 0.20564 0.99487 0.80486 0.0
C196 C 0.15684 0.93733 0.73192 0.0
C197 C 0.06906 0.07078 0.70851 0.0
N198 N 0.19646 0.98732 0.78155 0.0
N199 N 0.07561 0.07664 0.7318 0.0
loop_
_geom_bond_atom_site_label_1
_geom_bond_atom_site_label_2
_geom_bond_distance
_geom_bond_site_symmetry_2
_ccdc_geom_bond_type
C0 O2 1.247 . S
C0 O4 1.258 1_455 S
C1 O8 1.247 1_455 S
C1 O9 1.258 . S
O2 C0 1.247 . S
O2 Zn3 2.028 . S
Zn3 O2 2.028 . S
Zn3 O7 2.035 . S
Zn3 O9 2.035 1_545 S
Zn3 O10 2.028 . S
O4 C0 1.258 1_655 S
O4 Zn5 2.035 . S
Zn5 O4 2.035 . S
Zn5 O6 2.028 . S
Zn5 O8 2.028 1_545 S
Zn5 O11 2.035 . S
O6 Zn5 2.028 . S
O6 C12 1.247 1_655 S
O7 Zn3 2.035 . S
O7 C12 1.258 . S
O8 C1 1.247 1_655 S
O8 Zn5 2.028 1_565 S
O9 C1 1.258 . S
O9 Zn3 2.035 1_565 S
O10 Zn3 2.028 . S
O10 C13 1.247 . S
O11 Zn5 2.035 . S
O11 C13 1.258 1_655 S
C12 O6 1.247 1_455 S
C12 O7 1.258 . S
C13 O10 1.247 . S
C13 O11 1.258 1_455 S
C14 O16 1.247 1_545 S
C14 O18 1.258 . S
C15 O22 1.247 . S
C15 O23 1.258 1_545 S
O16 C14 1.247 1_565 S
O16 Zn17 2.028 . S
Zn17 O16 2.028 . S
Zn17 O21 2.035 . S
Zn17 O23 2.035 1_455 S
Zn17 O24 2.028 . S
O18 C14 1.258 . S
O18 Zn19 2.035 . S
Zn19 O18 2.035 . S
Zn19 O20 2.028 . S
Zn19 O22 2.028 1_455 S
Zn19 O25 2.035 . S
O20 Zn19 2.028 . S
O20 C26 1.247 . S
O21 Zn17 2.035 . S
O21 C26 1.258 1_565 S
O22 C15 1.247 . S
O22 Zn19 2.028 1_655 S
O23 C15 1.258 1_565 S
O23 Zn17 2.035 1_655 S
O24 Zn17 2.028 . S
O24 C27 1.247 1_565 S
O25 Zn19 2.035 . S
O25 C27 1.258 . S
C26 O20 1.247 . S
C26 O21 1.258 1_545 S
C27 O24 1.247 1_545 S
C27 O25 1.258 . S
C28 O30 1.247 . S
C28 O32 1.258 1_455 S
C29 O36 1.247 1_455 S
C29 O37 1.258 . S
O30 C28 1.247 . S
O30 Zn31 2.028 . S
Zn31 O30 2.028 . S
Zn31 O35 2.035 . S
Zn31 O37 2.035 1_545 S
Zn31 O38 2.028 . S
O32 C28 1.258 1_655 S
O32 Zn33 2.035 . S
Zn33 O32 2.035 . S
Zn33 O34 2.028 . S
Zn33 O36 2.028 1_545 S
Zn33 O39 2.035 . S
O34 Zn33 2.028 . S
O34 C40 1.247 1_655 S
O35 Zn31 2.035 . S
O35 C40 1.258 . S
O36 C29 1.247 1_655 S
O36 Zn33 2.028 1_565 S
O37 C29 1.258 . S
O37 Zn31 2.035 1_565 S
O38 Zn31 2.028 . S
O38 C41 1.247 . S
O39 Zn33 2.035 . S
O39 C41 1.258 1_655 S
C40 O34 1.247 1_455 S
C40 O35 1.258 . S
C41 O38 1.247 . S
C41 O39 1.258 1_455 S
C42 O44 1.247 1_545 S
C42 O46 1.258 . S
C43 O50 1.247 . S
C43 O51 1.258 1_545 S
O44 C42 1.247 1_565 S
O44 Zn45 2.028 . S
Zn45 O44 2.028 . S
Zn45 O49 2.035 . S
Zn45 O51 2.035 1_455 S
Zn45 O52 2.028 . S
O46 C42 1.258 . S
O46 Zn47 2.035 . S
Zn47 O46 2.035 . S
Zn47 O48 2.028 . S
Zn47 O50 2.028 1_455 S
Zn47 O53 2.035 . S
O48 Zn47 2.028 . S
O48 C54 1.247 . S
O49 Zn45 2.035 . S
O49 C54 1.258 1_565 S
O50 C43 1.247 . S
O50 Zn47 2.028 1_655 S
O51 C43 1.258 1_565 S
O51 Zn45 2.035 1_655 S
O52 Zn45 2.028 . S
O52 C55 1.247 1_565 S
O53 Zn47 2.035 . S
O53 C55 1.258 . S
C54 O48 1.247 . S
C54 O49 1.258 1_545 S
C55 O52 1.247 1_545 S
C55 O53 1.258 . S
H56 C62 0.930 . S
H57 C66 0.930 1_655 S
H58 C71 0.929 1_655 S
H59 C69 0.929 . S
H60 C64 0.929 1_655 S
H61 C70 0.929 . S
C62 H56 0.930 . S
C62 C63 1.367 . S
C62 C70 1.378 . S
C63 C62 1.367 . S
C63 C71 1.433 . S
C64 H60 0.929 1_455 S
C64 C66 1.378 . S
C64 C68 1.350 . S
C65 C68 1.463 . S
C65 C70 1.350 . S
C65 N73 1.427 . S
C66 H57 0.930 1_455 S
C66 C64 1.378 . S
C66 C67 1.367 . S
C67 C66 1.367 . S
C67 C69 1.433 . S
C68 C64 1.350 . S
C68 C65 1.463 . S
C68 N72 1.427 . S
C69 H59 0.929 . S
C69 C67 1.433 . S
C69 N72 1.384 . S
C70 H61 0.929 . S
C70 C62 1.378 . S
C70 C65 1.350 . S
C71 H58 0.929 1_455 S
C71 C63 1.433 . S
C71 N73 1.384 . S
N72 C68 1.427 . S
N72 C69 1.384 . S
N73 C65 1.427 . S
N73 C71 1.384 . S
H74 C80 0.930 . S
H75 C84 0.930 . S
H76 C89 0.929 . S
H77 C87 0.929 . S
H78 C82 0.929 . S
H79 C88 0.929 . S
C80 H74 0.930 . S
C80 C81 1.367 . S
C80 C88 1.378 . S
C81 C80 1.367 . S
C81 C89 1.433 1_545 S
C82 H78 0.929 . S
C82 C84 1.378 . S
C82 C86 1.350 1_565 S
C83 C86 1.463 . S
C83 C88 1.350 . S
C83 N91 1.427 1_545 S
C84 H75 0.930 . S
C84 C82 1.378 . S
C84 C85 1.367 1_565 S
C85 C84 1.367 1_545 S
C85 C87 1.433 . S
C86 C82 1.350 1_545 S
C86 C83 1.463 . S
C86 N90 1.427 . S
C87 H77 0.929 . S
C87 C85 1.433 . S
C87 N90 1.384 . S
C88 H79 0.929 . S
C88 C80 1.378 . S
C88 C83 1.350 . S
C89 H76 0.929 . S
C89 C81 1.433 1_565 S
C89 N91 1.384 . S
N90 C86 1.427 . S
N90 C87 1.384 . S
N91 C83 1.427 1_565 S
N91 C89 1.384 . S
H92 C98 0.930 . S
H93 C102 0.930 . S
H94 C107 0.929 . S
H95 C105 0.929 . S
H96 C100 0.929 . S
H97 C106 0.929 . S
C98 H92 0.930 . S
C98 C99 1.367 . S
C98 C106 1.378 . S
C99 C98 1.367 . S
C99 C107 1.433 1_455 S
C100 H96 0.929 . S
C100 C102 1.378 . S
C100 C104 1.350 1_655 S
C101 C104 1.463 . S
C101 C106 1.350 . S
C101 N109 1.427 1_455 S
C102 H93 0.930 . S
C102 C100 1.378 . S
C102 C103 1.367 1_655 S
C103 C102 1.367 1_455 S
C103 C105 1.433 . S
C104 C100 1.350 1_455 S
C104 C101 1.463 . S
C104 N108 1.427 . S
C105 H95 0.929 . S
C105 C103 1.433 . S
C105 N108 1.384 . S
C106 H97 0.929 . S
C106 C98 1.378 . S
C106 C101 1.350 . S
C107 H94 0.929 . S
C107 C99 1.433 1_655 S
C107 N109 1.384 . S
N108 C104 1.427 . S
N108 C105 1.384 . S
N109 C101 1.427 1_655 S
N109 C107 1.384 . S
H110 C116 0.930 . S
H111 C120 0.930 1_565 S
H112 C125 0.929 1_565 S
H113 C123 0.929 . S
H114 C118 0.929 1_565 S
H115 C124 0.929 . S
C116 H110 0.930 . S
C116 C117 1.367 . S
C116 C124 1.378 . S
C117 C116 1.367 . S
C117 C125 1.433 . S
C118 H114 0.929 1_545 S
C118 C120 1.378 . S
C118 C122 1.350 . S
C119 C122 1.463 . S
C119 C124 1.350 . S
C119 N127 1.427 . S
C120 H111 0.930 1_545 S
C120 C118 1.378 . S
C120 C121 1.367 . S
C121 C120 1.367 . S
C121 C123 1.433 . S
C122 C118 1.350 . S
C122 C119 1.463 . S
C122 N126 1.427 . S
C123 H113 0.929 . S
C123 C121 1.433 . S
C123 N126 1.384 . S
C124 H115 0.929 . S
C124 C116 1.378 . S
C124 C119 1.350 . S
C125 H112 0.929 1_545 S
C125 C117 1.433 . S
C125 N127 1.384 . S
N126 C122 1.427 . S
N126 C123 1.384 . S
N127 C119 1.427 . S
N127 C125 1.384 . S
H128 C134 0.930 . S
H129 C138 0.930 1_655 S
H130 C143 0.929 1_655 S
H131 C141 0.929 . S
H132 C136 0.929 1_655 S
H133 C142 0.929 . S
C134 H128 0.930 . S
C134 C135 1.367 1_565 S
C134 C142 1.378 . S
C135 C134 1.367 1_545 S
C135 C143 1.433 . S
C136 H132 0.929 1_455 S
C136 C138 1.378 . S
C136 C140 1.350 . S
C137 C140 1.463 1_556 S
C137 C142 1.350 1_545 S
C137 N145 1.427 . S
C138 H129 0.930 1_455 S
C138 C136 1.378 . S
C138 C139 1.367 . S
C139 C138 1.367 . S
C139 C141 1.433 1_545 S
C140 C136 1.350 . S
C140 C137 1.463 1_554 S
C140 N144 1.427 1_545 S
C141 H131 0.929 . S
C141 C139 1.433 1_565 S
C141 N144 1.384 . S
C142 H133 0.929 . S
C142 C134 1.378 . S
C142 C137 1.350 1_565 S
C143 H130 0.929 1_455 S
C143 C135 1.433 . S
C143 N145 1.384 . S
N144 C140 1.427 1_565 S
N144 C141 1.384 . S
N145 C137 1.427 . S
N145 C143 1.384 . S
H146 C152 0.930 1_655 S
H147 C156 0.930 1_565 S
H148 C161 0.929 . S
H149 C159 0.929 1_655 S
H150 C154 0.929 1_565 S
H151 C160 0.929 1_655 S
C152 H146 0.930 1_455 S
C152 C153 1.367 . S
C152 C160 1.378 . S
C153 C152 1.367 . S
C153 C161 1.433 1_545 S
C154 H150 0.929 1_545 S
C154 C156 1.378 . S
C154 C158 1.350 . S
C155 C158 1.463 . S
C155 C160 1.350 . S
C155 N163 1.427 1_545 S
C156 H147 0.930 1_545 S
C156 C154 1.378 . S
C156 C157 1.367 . S
C157 C156 1.367 . S
C157 C159 1.433 . S
C158 C154 1.350 . S
C158 C155 1.463 . S
C158 N162 1.427 . S
C159 H149 0.929 1_455 S
C159 C157 1.433 . S
C159 N162 1.384 . S
C160 H151 0.929 1_455 S
C160 C152 1.378 . S
C160 C155 1.350 . S
C161 H148 0.929 . S
C161 C153 1.433 1_565 S
C161 N163 1.384 . S
N162 C158 1.427 . S
N162 C159 1.384 . S
N163 C155 1.427 1_565 S
N163 C161 1.384 . S
H164 C170 0.930 . S
H165 C174 0.930 1_665 S
H166 C179 0.929 1_565 S
H167 C177 0.929 . S
H168 C172 0.929 1_665 S
H169 C178 0.929 . S
C170 H164 0.930 . S
C170 C171 1.367 . S
C170 C178 1.378 . S
C171 C170 1.367 . S
C171 C179 1.433 1_455 S
C172 H168 0.929 1_445 S
C172 C174 1.378 . S
C172 C176 1.350 . S
C173 C176 1.463 . S
C173 C178 1.350 . S
C173 N181 1.428 1_455 S
C174 H165 0.930 1_445 S
C174 C172 1.378 . S
C174 C175 1.367 . S
C175 C174 1.367 . S
C175 C177 1.433 . S
C176 C172 1.350 . S
C176 C173 1.463 . S
C176 N180 1.427 . S
C177 H167 0.929 . S
C177 C175 1.433 . S
C177 N180 1.384 . S
C178 H169 0.929 . S
C178 C170 1.378 . S
C178 C173 1.350 . S
C179 H166 0.929 1_545 S
C179 C171 1.433 1_655 S
C179 N181 1.383 . S
N180 C176 1.427 . S
N180 C177 1.384 . S
N181 C173 1.428 1_655 S
N181 C179 1.383 . S
H182 C188 0.930 . S
H183 C192 0.930 . S
H184 C197 0.929 . S
H185 C195 0.929 . S
H186 C190 0.929 . S
H187 C196 0.929 . S
C188 H182 0.930 . S
C188 C189 1.367 . S
C188 C196 1.378 . S
C189 C188 1.367 . S
C189 C197 1.433 1_455 S
C190 H186 0.929 . S
C190 C192 1.378 . S
C190 C194 1.350 1_655 S
C191 C194 1.463 . S
C191 C196 1.350 . S
C191 N199 1.427 1_455 S
C192 H183 0.930 . S
C192 C190 1.378 . S
C192 C193 1.367 1_655 S
C193 C192 1.367 1_455 S
C193 C195 1.433 . S
C194 C190 1.350 1_455 S
C194 C191 1.463 . S
C194 N198 1.427 . S
C195 H185 0.929 . S
C195 C193 1.433 . S
C195 N198 1.384 . S
C196 H187 0.929 . S
C196 C188 1.378 . S
C196 C191 1.350 . S
C197 H184 0.929 . S
C197 C189 1.433 1_655 S
C197 N199 1.384 . S
N198 C194 1.427 . S
N198 C195 1.384 . S
N199 C191 1.427 1_655 S
N199 C197 1.384 . S
C63 C0 1.497 . S
C67 C1 1.497 . S
C81 C14 1.498 . S
C85 C15 1.498 . S
C99 C28 1.498 . S
C103 C29 1.498 . S
C117 C42 1.499 . S
C121 C43 1.499 . S
C135 C40 1.499 . S
C139 C13 1.499 . S
C153 C54 1.499 . S
C157 C27 1.499 . S
C171 C55 1.499 . S
C175 C12 1.499 . S
C189 C26 1.497 . S
C193 C41 1.499 . S
