# Generated by pormake.
# Topology umf, (4)-cn, num edge types: 1
# Building blocks:
#     Node 0, Type 0, BuildingBlock: GALJAG_clean_sbu_0, # of connection points: 4
#     Node 1, Type 0, BuildingBlock: GALJAG_clean_sbu_0, # of connection points: 4
#     Node 2, Type 0, BuildingBlock: GALJAG_clean_sbu_0, # of connection points: 4
#     Node 3, Type 0, BuildingBlock: GALJAG_clean_sbu_0, # of connection points: 4
#     Node 4, Type 0, BuildingBlock: GALJAG_clean_sbu_0, # of connection points: 4
#     Node 5, Type 0, BuildingBlock: GALJAG_clean_sbu_0, # of connection points: 4
#     Node 6, Type 0, BuildingBlock: GALJAG_clean_sbu_0, # of connection points: 4
#     Node 7, Type 0, BuildingBlock: GALJAG_clean_sbu_0, # of connection points: 4
#     Edge 8, Type (0, 0), None
#     Edge 9, Type (0, 0), None
#     Edge 10, Type (0, 0), None
#     Edge 11, Type (0, 0), None
#     Edge 12, Type (0, 0), None
#     Edge 13, Type (0, 0), None
#     Edge 14, Type (0, 0), None
#     Edge 15, Type (0, 0), None
#     Edge 16, Type (0, 0), None
#     Edge 17, Type (0, 0), None
#     Edge 18, Type (0, 0), None
#     Edge 19, Type (0, 0), None
#     Edge 20, Type (0, 0), None
#     Edge 21, Type (0, 0), None
#     Edge 22, Type (0, 0), None
#     Edge 23, Type (0, 0), None
# Relax obj value: 0.108
# Max RMSD: 0.235
# Mean RMSD: 0.235
data_MOF--net-umf--node1-GALJAG_clean_sbu_0--edge1-none
_symmetry_space_group_name_H-M    P1
_symmetry_Int_Tables_number       1
_symmetry_cell_setting            triclinic
loop_
_symmetry_equiv_pos_as_xyz
'x, y, z'
_cell_length_a     13.119961
_cell_length_b     13.119961
_cell_length_c     23.767116
_cell_angle_alpha  90.00005
_cell_angle_beta   89.999875
_cell_angle_gamma 89.999942
loop_
_atom_site_label
_atom_site_type_symbol
_atom_site_fract_x
_atom_site_fract_y
_atom_site_fract_z
_atom_type_partial_charge
In0 In 0.03696 0.23244 0.14796 0.0
O1 O 0.08598 0.24072 0.05628 0.0
O2 O 0.92589 0.23238 0.07573 0.0
C3 C 0.16091 0.2124 0.23529 0.0
C4 C -0.00528 0.42746 0.16376 0.0
C5 C -0.00649 0.03572 0.15772 0.0
O6 O 0.19395 0.20672 0.18498 0.0
O7 O 0.06714 0.23391 0.2406 0.0
O8 O 0.92808 0.10403 0.16993 0.0
O9 O 0.07908 0.0671 0.14044 0.0
C10 C -0.00563 0.23771 0.03844 0.0
O11 O 0.92925 0.35823 0.17374 0.0
O12 O 0.08162 0.39768 0.14713 0.0
In13 In 0.73044 0.03696 0.64796 0.0
O14 O 0.72216 0.08598 0.55628 0.0
O15 O 0.7305 0.92589 0.57573 0.0
C16 C 0.75048 0.16091 0.73529 0.0
C17 C 0.53542 -0.00528 0.66376 0.0
C18 C 0.92716 -0.00649 0.65772 0.0
O19 O 0.75616 0.19395 0.68498 0.0
O20 O 0.72897 0.06714 0.7406 0.0
O21 O 0.85885 0.92809 0.66993 0.0
O22 O 0.89578 0.07908 0.64044 0.0
C23 C 0.72517 -0.00563 0.53844 0.0
O24 O 0.60465 0.92925 0.67374 0.0
O25 O 0.5652 0.08162 0.64713 0.0
In26 In 0.92592 0.73044 0.14796 0.0
O27 O 0.87689 0.72216 0.05628 0.0
O28 O 0.03699 0.73051 0.07573 0.0
C29 C 0.80197 0.75048 0.23529 0.0
C30 C 0.96819 0.53543 0.16375 0.0
C31 C 0.96939 0.92716 0.15771 0.0
O32 O 0.76893 0.75617 0.18498 0.0
O33 O 0.89574 0.72897 0.2406 0.0
O34 O 0.03481 0.85884 0.16993 0.0
O35 O 0.88382 0.89578 0.14044 0.0
C36 C 0.96851 0.72517 0.03844 0.0
O37 O 0.03365 0.60466 0.17374 0.0
O38 O 0.88127 0.56519 0.14712 0.0
In39 In 0.23244 0.92593 0.64796 0.0
O40 O 0.35822 0.03365 0.67374 0.0
O41 O 0.39769 0.88127 0.64712 0.0
C42 C 0.03572 0.96939 0.65771 0.0
C43 C 0.23771 0.96851 0.53844 0.0
C44 C 0.2124 0.80197 0.73528 0.0
O45 O 0.10404 0.03481 0.66993 0.0
O46 O 0.0671 0.88382 0.64044 0.0
O47 O 0.20671 0.76893 0.68498 0.0
O48 O 0.23391 0.89573 0.7406 0.0
C49 C 0.42745 0.96819 0.66375 0.0
O50 O 0.24072 0.8769 0.55627 0.0
O51 O 0.23237 0.03699 0.57573 0.0
In52 In 0.03695 0.73044 0.8689 0.0
O53 O 0.08597 0.72216 0.96059 0.0
O54 O 0.92588 0.7305 0.94113 0.0
C55 C 0.16088 0.75053 0.7816 0.0
C56 C -0.00528 0.53542 0.85309 0.0
C57 C -0.00649 0.92716 0.85915 0.0
O58 O 0.19397 0.75614 0.8319 0.0
O59 O 0.06712 0.72902 0.77626 0.0
O60 O 0.92808 0.85885 0.84694 0.0
O61 O 0.07907 0.89578 0.87643 0.0
C62 C -0.00564 0.72517 0.97843 0.0
O63 O 0.92924 0.60465 0.84312 0.0
O64 O 0.08162 0.5652 0.86973 0.0
In65 In 0.23244 0.03695 0.3689 0.0
O66 O 0.24072 0.08597 0.46059 0.0
O67 O 0.23238 0.92588 0.44113 0.0
C68 C 0.21235 0.16088 0.2816 0.0
C69 C 0.42746 -0.00528 0.35309 0.0
C70 C 0.03572 -0.00649 0.35915 0.0
O71 O 0.20674 0.19397 0.3319 0.0
O72 O 0.23386 0.06712 0.27626 0.0
O73 O 0.10403 0.92808 0.34694 0.0
O74 O 0.06711 0.07907 0.37643 0.0
C75 C 0.23771 -0.00564 0.47843 0.0
O76 O 0.35823 0.92924 0.34312 0.0
O77 O 0.39769 0.08162 0.36973 0.0
In78 In 0.92593 0.23244 0.8689 0.0
O79 O 0.87691 0.24072 0.96059 0.0
O80 O 0.037 0.23238 0.94113 0.0
C81 C 0.80199 0.21235 0.78161 0.0
C82 C 0.96818 0.42745 0.85311 0.0
C83 C 0.96939 0.03572 0.85916 0.0
O84 O 0.76891 0.20673 0.83191 0.0
O85 O 0.89575 0.23387 0.77626 0.0
O86 O 0.03481 0.10404 0.84693 0.0
O87 O 0.88382 0.0671 0.87643 0.0
C88 C 0.96852 0.23771 0.97843 0.0
O89 O 0.03365 0.35822 0.84312 0.0
O90 O 0.88127 0.39769 0.86973 0.0
In91 In 0.73044 0.92593 0.3689 0.0
O92 O 0.72216 0.87691 0.46059 0.0
O93 O 0.7305 0.037 0.44113 0.0
C94 C 0.75053 0.802 0.28161 0.0
C95 C 0.53543 0.96818 0.35311 0.0
C96 C 0.92716 0.96939 0.35916 0.0
O97 O 0.75615 0.76891 0.33191 0.0
O98 O 0.72901 0.89575 0.27626 0.0
O99 O 0.85885 0.03481 0.34694 0.0
O100 O 0.89578 0.88382 0.37643 0.0
C101 C 0.72517 0.96852 0.47843 0.0
O102 O 0.60466 0.03365 0.34312 0.0
O103 O 0.56519 0.88127 0.36973 0.0
loop_
_geom_bond_atom_site_label_1
_geom_bond_atom_site_label_2
_geom_bond_distance
_geom_bond_site_symmetry_2
_ccdc_geom_bond_type
In0 O1 2.294 . S
In0 O2 2.326 1_455 S
In0 O6 2.266 . S
In0 O7 2.326 . S
In0 O8 2.266 1_455 S
In0 O9 2.326 . S
In0 O11 2.294 1_455 S
In0 O12 2.326 . S
O1 In0 2.294 . S
O1 C10 1.240 . S
O2 In0 2.326 1_655 S
O2 C10 1.252 1_655 S
C3 O6 1.252 . S
C3 O7 1.260 . S
C4 O11 1.242 . S
C4 O12 1.250 1_655 S
C5 O8 1.252 . S
C5 O9 1.260 1_655 S
O6 In0 2.266 . S
O6 C3 1.252 . S
O7 In0 2.326 . S
O7 C3 1.260 . S
O8 In0 2.266 1_655 S
O8 C5 1.252 . S
O9 In0 2.326 . S
O9 C5 1.260 1_455 S
C10 O1 1.240 . S
C10 O2 1.252 1_455 S
O11 In0 2.294 1_655 S
O11 C4 1.242 . S
O12 In0 2.326 . S
O12 C4 1.250 1_455 S
In13 O14 2.294 . S
In13 O15 2.326 1_545 S
In13 O19 2.266 . S
In13 O20 2.326 . S
In13 O21 2.266 1_545 S
In13 O22 2.326 . S
In13 O24 2.294 1_545 S
In13 O25 2.326 . S
O14 In13 2.294 . S
O14 C23 1.240 . S
O15 In13 2.326 1_565 S
O15 C23 1.252 1_565 S
C16 O19 1.252 . S
C16 O20 1.260 . S
C17 O24 1.242 . S
C17 O25 1.250 1_565 S
C18 O21 1.252 . S
C18 O22 1.260 1_565 S
O19 In13 2.266 . S
O19 C16 1.252 . S
O20 In13 2.326 . S
O20 C16 1.260 . S
O21 In13 2.266 1_565 S
O21 C18 1.252 . S
O22 In13 2.326 . S
O22 C18 1.260 1_545 S
C23 O14 1.240 . S
C23 O15 1.252 1_545 S
O24 In13 2.294 1_565 S
O24 C17 1.242 . S
O25 In13 2.326 . S
O25 C17 1.250 1_545 S
In26 O27 2.294 . S
In26 O28 2.326 1_655 S
In26 O32 2.266 . S
In26 O33 2.326 . S
In26 O34 2.266 1_655 S
In26 O35 2.326 . S
In26 O37 2.294 1_655 S
In26 O38 2.326 . S
O27 In26 2.294 . S
O27 C36 1.240 . S
O28 In26 2.326 1_455 S
O28 C36 1.252 1_455 S
C29 O32 1.252 . S
C29 O33 1.260 . S
C30 O37 1.242 . S
C30 O38 1.250 1_455 S
C31 O34 1.252 . S
C31 O35 1.260 1_455 S
O32 In26 2.266 . S
O32 C29 1.252 . S
O33 In26 2.326 . S
O33 C29 1.260 . S
O34 In26 2.266 1_455 S
O34 C31 1.252 . S
O35 In26 2.326 . S
O35 C31 1.260 1_655 S
C36 O27 1.240 . S
C36 O28 1.252 1_655 S
O37 In26 2.294 1_455 S
O37 C30 1.242 . S
O38 In26 2.326 . S
O38 C30 1.250 1_655 S
In39 O40 2.294 1_565 S
In39 O41 2.326 . S
In39 O45 2.266 1_565 S
In39 O46 2.326 . S
In39 O47 2.266 . S
In39 O48 2.326 . S
In39 O50 2.294 . S
In39 O51 2.326 1_565 S
O40 In39 2.294 1_545 S
O40 C49 1.242 . S
O41 In39 2.326 . S
O41 C49 1.250 1_565 S
C42 O45 1.252 . S
C42 O46 1.260 1_545 S
C43 O50 1.240 . S
C43 O51 1.252 1_565 S
C44 O47 1.252 . S
C44 O48 1.260 . S
O45 In39 2.266 1_545 S
O45 C42 1.252 . S
O46 In39 2.326 . S
O46 C42 1.260 1_565 S
O47 In39 2.266 . S
O47 C44 1.252 . S
O48 In39 2.326 . S
O48 C44 1.260 . S
C49 O40 1.242 . S
C49 O41 1.250 1_545 S
O50 In39 2.294 . S
O50 C43 1.240 . S
O51 In39 2.326 1_545 S
O51 C43 1.252 1_545 S
In52 O53 2.294 . S
In52 O54 2.326 1_455 S
In52 O58 2.266 . S
In52 O59 2.326 . S
In52 O60 2.266 1_455 S
In52 O61 2.326 . S
In52 O63 2.294 1_455 S
In52 O64 2.326 . S
O53 In52 2.294 . S
O53 C62 1.240 . S
O54 In52 2.326 1_655 S
O54 C62 1.252 1_655 S
C55 O58 1.252 . S
C55 O59 1.260 . S
C56 O63 1.242 . S
C56 O64 1.250 1_655 S
C57 O60 1.252 . S
C57 O61 1.260 1_655 S
O58 In52 2.266 . S
O58 C55 1.252 . S
O59 In52 2.326 . S
O59 C55 1.260 . S
O60 In52 2.266 1_655 S
O60 C57 1.252 . S
O61 In52 2.326 . S
O61 C57 1.260 1_455 S
C62 O53 1.240 . S
C62 O54 1.252 1_455 S
O63 In52 2.294 1_655 S
O63 C56 1.242 . S
O64 In52 2.326 . S
O64 C56 1.250 1_455 S
In65 O66 2.294 . S
In65 O67 2.326 1_545 S
In65 O71 2.266 . S
In65 O72 2.326 . S
In65 O73 2.266 1_545 S
In65 O74 2.326 . S
In65 O76 2.294 1_545 S
In65 O77 2.326 . S
O66 In65 2.294 . S
O66 C75 1.240 . S
O67 In65 2.326 1_565 S
O67 C75 1.252 1_565 S
C68 O71 1.252 . S
C68 O72 1.260 . S
C69 O76 1.242 . S
C69 O77 1.250 1_565 S
C70 O73 1.252 . S
C70 O74 1.260 1_565 S
O71 In65 2.266 . S
O71 C68 1.252 . S
O72 In65 2.326 . S
O72 C68 1.260 . S
O73 In65 2.266 1_565 S
O73 C70 1.252 . S
O74 In65 2.326 . S
O74 C70 1.260 1_545 S
C75 O66 1.240 . S
C75 O67 1.252 1_545 S
O76 In65 2.294 1_565 S
O76 C69 1.242 . S
O77 In65 2.326 . S
O77 C69 1.250 1_545 S
In78 O79 2.294 . S
In78 O80 2.326 1_655 S
In78 O84 2.266 . S
In78 O85 2.326 . S
In78 O86 2.266 1_655 S
In78 O87 2.326 . S
In78 O89 2.294 1_655 S
In78 O90 2.326 . S
O79 In78 2.294 . S
O79 C88 1.240 . S
O80 In78 2.326 1_455 S
O80 C88 1.252 1_455 S
C81 O84 1.252 . S
C81 O85 1.260 . S
C82 O89 1.242 . S
C82 O90 1.250 1_455 S
C83 O86 1.252 . S
C83 O87 1.260 1_455 S
O84 In78 2.266 . S
O84 C81 1.252 . S
O85 In78 2.326 . S
O85 C81 1.260 . S
O86 In78 2.266 1_455 S
O86 C83 1.252 . S
O87 In78 2.326 . S
O87 C83 1.260 1_655 S
C88 O79 1.240 . S
C88 O80 1.252 1_655 S
O89 In78 2.294 1_455 S
O89 C82 1.242 . S
O90 In78 2.326 . S
O90 C82 1.250 1_655 S
In91 O92 2.294 . S
In91 O93 2.326 1_565 S
In91 O97 2.266 . S
In91 O98 2.326 . S
In91 O99 2.266 1_565 S
In91 O100 2.326 . S
In91 O102 2.294 1_565 S
In91 O103 2.326 . S
O92 In91 2.294 . S
O92 C101 1.240 . S
O93 In91 2.326 1_545 S
O93 C101 1.252 1_545 S
C94 O97 1.252 . S
C94 O98 1.260 . S
C95 O102 1.242 . S
C95 O103 1.250 1_545 S
C96 O99 1.252 . S
C96 O100 1.260 1_545 S
O97 In91 2.266 . S
O97 C94 1.252 . S
O98 In91 2.326 . S
O98 C94 1.260 . S
O99 In91 2.266 1_545 S
O99 C96 1.252 . S
O100 In91 2.326 . S
O100 C96 1.260 1_565 S
C101 O92 1.240 . S
C101 O93 1.252 1_565 S
O102 In91 2.294 1_545 S
O102 C95 1.242 . S
O103 In91 2.326 . S
O103 C95 1.250 1_565 S
C4 C30 1.399 1_655 S
C49 C17 1.399 1_545 S
C82 C56 1.399 1_455 S
C69 C95 1.399 1_565 S
C88 C10 2.393 1_656 S
C23 C101 2.393 1_545 S
C36 C62 2.393 1_654 S
C75 C43 2.393 1_545 S
C3 C68 1.666 . S
C81 C16 1.666 . S
C94 C29 1.666 . S
C44 C55 1.666 . S
C5 C31 1.380 1_645 S
C42 C18 1.380 1_445 S
C83 C57 1.380 1_445 S
C96 C70 1.380 1_645 S
