# Generated by pormake.
# Topology vby, (6)-cn, num edge types: 1
# Building blocks:
#     Node 0, Type 0, BuildingBlock: BETDEL_clean_sbu_0, # of connection points: 6
#     Node 1, Type 0, BuildingBlock: BETDEL_clean_sbu_0, # of connection points: 6
#     Node 2, Type 0, BuildingBlock: BETDEL_clean_sbu_0, # of connection points: 6
#     Node 3, Type 0, BuildingBlock: BETDEL_clean_sbu_0, # of connection points: 6
#     Node 4, Type 0, BuildingBlock: BETDEL_clean_sbu_0, # of connection points: 6
#     Node 5, Type 0, BuildingBlock: BETDEL_clean_sbu_0, # of connection points: 6
#     Node 6, Type 0, BuildingBlock: BETDEL_clean_sbu_0, # of connection points: 6
#     Node 7, Type 0, BuildingBlock: BETDEL_clean_sbu_0, # of connection points: 6
#     Edge 8, Type (0, 0), None
#     Edge 9, Type (0, 0), None
#     Edge 10, Type (0, 0), None
#     Edge 11, Type (0, 0), None
#     Edge 12, Type (0, 0), None
#     Edge 13, Type (0, 0), None
#     Edge 14, Type (0, 0), None
#     Edge 15, Type (0, 0), None
#     Edge 16, Type (0, 0), None
#     Edge 17, Type (0, 0), None
#     Edge 18, Type (0, 0), None
#     Edge 19, Type (0, 0), None
#     Edge 20, Type (0, 0), None
#     Edge 21, Type (0, 0), None
#     Edge 22, Type (0, 0), None
#     Edge 23, Type (0, 0), None
#     Edge 24, Type (0, 0), None
#     Edge 25, Type (0, 0), None
#     Edge 26, Type (0, 0), None
#     Edge 27, Type (0, 0), None
#     Edge 28, Type (0, 0), None
#     Edge 29, Type (0, 0), None
#     Edge 30, Type (0, 0), None
#     Edge 31, Type (0, 0), None
# Relax obj value: 0.145
# Max RMSD: 0.173
# Mean RMSD: 0.173
data_MOF--net-vby--node1-BETDEL_clean_sbu_0--edge1-none
_symmetry_space_group_name_H-M    P1
_symmetry_Int_Tables_number       1
_symmetry_cell_setting            triclinic
loop_
_symmetry_equiv_pos_as_xyz
'x, y, z'
_cell_length_a     6.9900287
_cell_length_b     38.043506
_cell_length_c     12.743547
_cell_angle_alpha  90.005358
_cell_angle_beta   89.473618
_cell_angle_gamma 90.000133
loop_
_atom_site_label
_atom_site_type_symbol
_atom_site_fract_x
_atom_site_fract_y
_atom_site_fract_z
_atom_type_partial_charge
Dy0 Dy 0.04299 0.446 0.02372 0.0
C1 C 0.20456 0.30269 0.01699 0.0
C2 C 0.01722 0.51738 0.01442 0.0
Dy3 Dy 0.05004 0.36829 0.00266 0.0
O4 O 0.9344 0.49789 0.08484 0.0
O5 O 0.11017 0.49802 0.94741 0.0
O6 O 0.15879 0.43972 0.18598 0.0
O7 O 0.96648 0.40297 0.13269 0.0
C8 C 0.06007 0.41211 0.21161 0.0
C9 C 0.06227 0.40346 0.81437 0.0
O10 O 0.73134 0.3751 0.0269 0.0
O11 O 0.73301 0.43611 0.99756 0.0
O12 O 0.05785 0.31062 0.95776 0.0
O13 O 0.24403 0.32883 0.07821 0.0
O14 O 0.1618 0.376 0.83769 0.0
O15 O 0.96972 0.41108 0.89518 0.0
O16 O 0.34643 0.43545 0.97692 0.0
O17 O 0.33968 0.38211 0.05631 0.0
C18 C 0.64204 0.40596 0.01253 0.0
C19 C 0.43525 0.40771 0.0137 0.0
Dy20 Dy 0.97729 0.70483 0.02416 0.0
C21 C 1.00952 0.55574 0.01206 0.0
C22 C 0.82323 0.77045 0.00924 0.0
Dy23 Dy 0.98417 0.62714 0.00317 0.0
O24 O 0.96989 0.76254 0.06854 0.0
O25 O 0.78356 0.74426 0.94823 0.0
O26 O 0.86615 0.69748 0.18915 0.0
O27 O 0.05719 0.66201 0.13194 0.0
C28 C 0.96502 0.66997 0.21265 0.0
C29 C 0.96719 0.66127 0.8154 0.0
O30 O 0.68084 0.63766 0.05021 0.0
O31 O 0.68742 0.69102 0.97089 0.0
O32 O 0.09244 0.57526 0.94173 0.0
O33 O 0.91674 0.57509 0.07918 0.0
O34 O 0.86787 0.63371 0.84089 0.0
O35 O 0.06122 0.6701 0.89439 0.0
O36 O 0.29597 0.69801 0.00016 0.0
O37 O 0.29412 0.637 0.02962 0.0
C38 C 0.59195 0.66541 0.01354 0.0
C39 C 0.38519 0.66715 0.0147 0.0
Dy40 Dy 0.0501 0.70483 0.50277 0.0
C41 C 0.01775 0.55575 0.51494 0.0
C42 C 0.20414 0.77045 0.51773 0.0
Dy43 Dy 0.04322 0.62715 0.52385 0.0
O44 O 0.05748 0.76254 0.45843 0.0
O45 O 0.24381 0.74426 0.57872 0.0
O46 O 0.16127 0.6975 0.33775 0.0
O47 O 0.97006 0.66198 0.39505 0.0
C48 C 0.0622 0.67 0.3144 0.0
C49 C 0.06004 0.66125 0.71151 0.0
O50 O 0.34653 0.63766 0.47678 0.0
O51 O 0.33994 0.69102 0.55608 0.0
O52 O 0.93495 0.57527 0.58531 0.0
O53 O 0.11049 0.57509 0.44781 0.0
O54 O 0.15957 0.6337 0.68615 0.0
O55 O 0.96604 0.67013 0.63257 0.0
O56 O 0.7314 0.69801 0.52677 0.0
O57 O 0.73325 0.637 0.49741 0.0
C58 C 0.43542 0.66541 0.51344 0.0
C59 C 0.64218 0.66715 0.51229 0.0
Dy60 Dy 0.98416 0.446 0.50329 0.0
C61 C 0.82272 0.30269 0.51005 0.0
C62 C 1.00998 0.51739 0.51257 0.0
Dy63 Dy 0.97711 0.36831 0.52443 0.0
O64 O 0.09272 0.49789 0.44213 0.0
O65 O 0.9171 0.49803 0.57962 0.0
O66 O 0.8683 0.43974 0.34101 0.0
O67 O 0.06079 0.40295 0.39437 0.0
C68 C 0.96724 0.41214 0.31551 0.0
C69 C 0.96504 0.40344 0.71261 0.0
O70 O 0.29582 0.37511 0.50021 0.0
O71 O 0.29415 0.43613 0.52943 0.0
O72 O 0.96938 0.31063 0.56931 0.0
O73 O 0.78324 0.32883 0.44883 0.0
O74 O 0.86528 0.376 0.68942 0.0
O75 O 0.05757 0.41111 0.63186 0.0
O76 O 0.68073 0.43546 0.55013 0.0
O77 O 0.68748 0.38211 0.47076 0.0
C78 C 0.38513 0.40597 0.51452 0.0
C79 C 0.59191 0.40771 0.51336 0.0
Dy80 Dy 0.54311 0.94601 0.0237 0.0
C81 C 0.70477 0.8027 0.01685 0.0
C82 C 0.51734 1.01739 0.01442 0.0
Dy83 Dy 0.55016 0.8683 0.00261 0.0
O84 O 0.43452 0.99789 0.08484 0.0
O85 O 0.61028 0.99803 0.9474 0.0
O86 O 0.6589 0.93972 0.18597 0.0
O87 O 0.46659 0.90297 0.13266 0.0
C88 C 0.56017 0.91211 0.21158 0.0
C89 C 0.56238 0.90347 0.81434 0.0
O90 O 0.23146 0.8751 0.02686 0.0
O91 O 0.23313 0.93612 0.99754 0.0
O92 O 0.55799 0.81063 0.95766 0.0
O93 O 0.74417 0.82884 0.07813 0.0
O94 O 0.66194 0.87602 0.83765 0.0
O95 O 0.46983 0.91109 0.89515 0.0
O96 O 0.84655 0.93546 0.9769 0.0
O97 O 0.8398 0.88212 0.05628 0.0
C98 C 0.14216 0.90597 0.0125 0.0
C99 C 0.93537 0.90771 0.01367 0.0
Dy100 Dy 0.47734 0.20484 0.02418 0.0
C101 C 0.50961 0.05575 0.01206 0.0
C102 C 0.32306 0.27044 0.00937 0.0
Dy103 Dy 0.48422 0.12715 0.00317 0.0
O104 O 0.46982 0.26255 0.06861 0.0
O105 O 0.28349 0.24426 0.94831 0.0
O106 O 0.36619 0.19748 0.18917 0.0
O107 O 0.55724 0.16201 0.13195 0.0
C108 C 0.46506 0.16997 0.21265 0.0
C109 C 0.46723 0.16128 0.8154 0.0
O110 O 0.18089 0.13767 0.05021 0.0
O111 O 0.18748 0.19102 0.97088 0.0
O112 O 0.59251 0.07527 0.94172 0.0
O113 O 0.41682 0.07509 0.07918 0.0
O114 O 0.36791 0.13372 0.84089 0.0
O115 O 0.56126 0.17011 0.8944 0.0
O116 O 0.79602 0.19802 0.00017 0.0
O117 O 0.79417 0.13701 0.02962 0.0
C118 C 0.09201 0.16542 0.01354 0.0
C119 C 0.88524 0.16716 0.01469 0.0
Dy120 Dy 0.55014 0.20483 0.50277 0.0
C121 C 0.5178 0.05575 0.51494 0.0
C122 C 0.70428 0.27044 0.51763 0.0
Dy123 Dy 0.54326 0.12715 0.52386 0.0
O124 O 0.55757 0.26253 0.45837 0.0
O125 O 0.74387 0.24426 0.57869 0.0
O126 O 0.66134 0.19749 0.33776 0.0
O127 O 0.4701 0.16198 0.39506 0.0
C128 C 0.56225 0.16999 0.3144 0.0
C129 C 0.56009 0.16125 0.71152 0.0
O130 O 0.84657 0.13766 0.47679 0.0
O131 O 0.83997 0.19102 0.55609 0.0
O132 O 0.435 0.07527 0.58532 0.0
O133 O 0.61054 0.07509 0.44781 0.0
O134 O 0.65961 0.13371 0.68616 0.0
O135 O 0.46608 0.17013 0.63258 0.0
O136 O 0.23144 0.19801 0.52676 0.0
O137 O 0.23329 0.137 0.49744 0.0
C138 C 0.93546 0.16541 0.51345 0.0
C139 C 0.14222 0.16715 0.5123 0.0
Dy140 Dy 0.48422 0.946 0.50325 0.0
C141 C 0.32259 0.80271 0.51014 0.0
C142 C 0.51003 1.01739 0.51255 0.0
Dy143 Dy 0.47717 0.8683 0.52442 0.0
O144 O 0.59278 0.99789 0.4421 0.0
O145 O 0.41716 0.99803 0.57959 0.0
O146 O 0.36839 0.93973 0.34097 0.0
O147 O 0.56086 0.90295 0.39435 0.0
C148 C 0.46732 0.91214 0.31548 0.0
C149 C 0.46513 0.90345 0.71259 0.0
O150 O 0.79588 0.8751 0.50018 0.0
O151 O 0.79422 0.93612 0.52938 0.0
O152 O 0.46936 0.81063 0.56934 0.0
O153 O 0.28318 0.82884 0.44888 0.0
O154 O 0.36536 0.87601 0.68941 0.0
O155 O 0.55764 0.91111 0.63182 0.0
O156 O 0.1808 0.93546 0.55008 0.0
O157 O 0.18756 0.88211 0.47072 0.0
C158 C 0.8852 0.90597 0.51448 0.0
C159 C 0.09198 0.90771 0.51332 0.0
loop_
_geom_bond_atom_site_label_1
_geom_bond_atom_site_label_2
_geom_bond_distance
_geom_bond_site_symmetry_2
_ccdc_geom_bond_type
Dy0 O4 2.398 1_455 S
Dy0 O5 2.491 1_454 S
Dy0 O6 2.403 . S
Dy0 O7 2.664 . S
Dy0 O11 2.326 1_455 S
Dy0 O15 2.310 1_554 S
Dy0 O16 2.351 . S
C1 O12 1.185 1_554 S
C1 O13 1.355 . S
C2 O4 1.185 . S
C2 O5 1.355 1_554 S
Dy3 O7 2.309 1_556 S
Dy3 O10 2.351 1_456 S
Dy3 O12 2.398 . S
Dy3 O13 2.491 1_556 S
Dy3 O14 2.405 . S
Dy3 O15 2.665 . S
Dy3 O17 2.326 . S
O4 Dy0 2.398 1_655 S
O4 C2 1.185 . S
O5 Dy0 2.491 1_656 S
O5 C2 1.355 1_556 S
O6 Dy0 2.403 . S
O6 C8 1.254 . S
O7 Dy0 2.664 . S
O7 Dy3 2.309 1_554 S
O7 C8 1.268 . S
C8 O6 1.254 . S
C8 O7 1.268 . S
C9 O14 1.254 . S
C9 O15 1.268 . S
O10 Dy3 2.351 1_654 S
O10 C18 1.249 . S
O11 Dy0 2.326 1_655 S
O11 C18 1.267 . S
O12 C1 1.185 1_556 S
O12 Dy3 2.398 . S
O13 C1 1.355 . S
O13 Dy3 2.491 1_554 S
O14 Dy3 2.405 . S
O14 C9 1.254 . S
O15 Dy0 2.310 1_556 S
O15 Dy3 2.665 . S
O15 C9 1.268 . S
O16 Dy0 2.351 . S
O16 C19 1.249 1_554 S
O17 Dy3 2.326 . S
O17 C19 1.267 . S
C18 O10 1.249 . S
C18 O11 1.267 . S
C19 O16 1.249 1_556 S
C19 O17 1.267 . S
Dy20 O24 2.398 . S
Dy20 O25 2.491 1_554 S
Dy20 O26 2.403 . S
Dy20 O27 2.664 . S
Dy20 O31 2.326 . S
Dy20 O35 2.310 1_554 S
Dy20 O36 2.351 1_655 S
C21 O32 1.185 1_554 S
C21 O33 1.355 . S
C22 O24 1.185 . S
C22 O25 1.355 1_554 S
Dy23 O27 2.310 . S
Dy23 O30 2.351 . S
Dy23 O32 2.398 1_654 S
Dy23 O33 2.491 1_655 S
Dy23 O34 2.403 1_554 S
Dy23 O35 2.664 1_554 S
Dy23 O37 2.326 1_654 S
O24 Dy20 2.398 . S
O24 C22 1.185 . S
O25 Dy20 2.491 1_556 S
O25 C22 1.355 1_556 S
O26 Dy20 2.403 . S
O26 C28 1.254 . S
O27 Dy20 2.664 . S
O27 Dy23 2.310 . S
O27 C28 1.268 . S
C28 O26 1.254 . S
C28 O27 1.268 . S
C29 O34 1.254 . S
C29 O35 1.268 . S
O30 Dy23 2.351 . S
O30 C38 1.249 . S
O31 Dy20 2.326 . S
O31 C38 1.267 . S
O32 C21 1.185 1_556 S
O32 Dy23 2.398 1_456 S
O33 C21 1.355 . S
O33 Dy23 2.491 1_455 S
O34 Dy23 2.403 1_556 S
O34 C29 1.254 . S
O35 Dy20 2.310 1_556 S
O35 Dy23 2.664 1_556 S
O35 C29 1.268 . S
O36 Dy20 2.351 1_455 S
O36 C39 1.249 . S
O37 Dy23 2.326 1_456 S
O37 C39 1.266 1_556 S
C38 O30 1.249 . S
C38 O31 1.267 . S
C39 O36 1.249 . S
C39 O37 1.266 1_554 S
Dy40 O44 2.398 . S
Dy40 O45 2.491 . S
Dy40 O46 2.403 . S
Dy40 O47 2.664 . S
Dy40 O51 2.326 . S
Dy40 O55 2.310 . S
Dy40 O56 2.351 1_455 S
C41 O52 1.185 . S
C41 O53 1.355 . S
C42 O44 1.185 . S
C42 O45 1.355 . S
Dy43 O47 2.310 . S
Dy43 O50 2.351 . S
Dy43 O52 2.398 1_455 S
Dy43 O53 2.491 1_455 S
Dy43 O54 2.403 . S
Dy43 O55 2.664 . S
Dy43 O57 2.326 1_455 S
O44 Dy40 2.398 . S
O44 C42 1.185 . S
O45 Dy40 2.491 . S
O45 C42 1.355 . S
O46 Dy40 2.403 . S
O46 C48 1.254 . S
O47 Dy40 2.664 . S
O47 Dy43 2.310 . S
O47 C48 1.268 . S
C48 O46 1.254 . S
C48 O47 1.268 . S
C49 O54 1.254 . S
C49 O55 1.268 . S
O50 Dy43 2.351 . S
O50 C58 1.249 . S
O51 Dy40 2.326 . S
O51 C58 1.267 . S
O52 C41 1.185 . S
O52 Dy43 2.398 1_655 S
O53 C41 1.355 . S
O53 Dy43 2.491 1_655 S
O54 Dy43 2.403 . S
O54 C49 1.254 . S
O55 Dy40 2.310 . S
O55 Dy43 2.664 . S
O55 C49 1.268 . S
O56 Dy40 2.351 1_655 S
O56 C59 1.249 . S
O57 Dy43 2.326 1_655 S
O57 C59 1.267 . S
C58 O50 1.249 . S
C58 O51 1.267 . S
C59 O56 1.249 . S
C59 O57 1.267 . S
Dy60 O64 2.398 1_655 S
Dy60 O65 2.491 1_655 S
Dy60 O66 2.403 . S
Dy60 O67 2.664 . S
Dy60 O71 2.326 1_655 S
Dy60 O75 2.310 . S
Dy60 O76 2.351 . S
C61 O72 1.185 . S
C61 O73 1.355 . S
C62 O64 1.185 . S
C62 O65 1.355 . S
Dy63 O67 2.310 . S
Dy63 O70 2.351 1_655 S
Dy63 O72 2.398 . S
Dy63 O73 2.491 . S
Dy63 O74 2.403 . S
Dy63 O75 2.664 . S
Dy63 O77 2.326 . S
O64 Dy60 2.398 1_455 S
O64 C62 1.185 . S
O65 Dy60 2.491 1_455 S
O65 C62 1.355 . S
O66 Dy60 2.403 . S
O66 C68 1.254 . S
O67 Dy60 2.664 . S
O67 Dy63 2.310 . S
O67 C68 1.268 . S
C68 O66 1.254 . S
C68 O67 1.268 . S
C69 O74 1.254 . S
C69 O75 1.268 . S
O70 Dy63 2.351 1_455 S
O70 C78 1.249 . S
O71 Dy60 2.326 1_455 S
O71 C78 1.267 . S
O72 C61 1.185 . S
O72 Dy63 2.398 . S
O73 C61 1.355 . S
O73 Dy63 2.491 . S
O74 Dy63 2.403 . S
O74 C69 1.254 . S
O75 Dy60 2.310 . S
O75 Dy63 2.664 . S
O75 C69 1.268 . S
O76 Dy60 2.351 . S
O76 C79 1.249 . S
O77 Dy63 2.326 . S
O77 C79 1.267 . S
C78 O70 1.249 . S
C78 O71 1.267 . S
C79 O76 1.249 . S
C79 O77 1.267 . S
Dy80 O84 2.398 . S
Dy80 O85 2.491 1_554 S
Dy80 O86 2.403 . S
Dy80 O87 2.664 . S
Dy80 O91 2.326 . S
Dy80 O95 2.310 1_554 S
Dy80 O96 2.351 . S
C81 O92 1.185 1_554 S
C81 O93 1.355 . S
C82 O84 1.185 . S
C82 O85 1.355 1_554 S
Dy83 O87 2.309 1_556 S
Dy83 O90 2.351 1_556 S
Dy83 O92 2.398 . S
Dy83 O93 2.491 1_556 S
Dy83 O94 2.405 . S
Dy83 O95 2.665 . S
Dy83 O97 2.326 . S
O84 Dy80 2.398 . S
O84 C82 1.185 . S
O85 Dy80 2.491 1_556 S
O85 C82 1.355 1_556 S
O86 Dy80 2.403 . S
O86 C88 1.254 . S
O87 Dy80 2.664 . S
O87 Dy83 2.309 1_554 S
O87 C88 1.268 . S
C88 O86 1.254 . S
C88 O87 1.268 . S
C89 O94 1.254 . S
C89 O95 1.268 . S
O90 Dy83 2.351 1_554 S
O90 C98 1.249 . S
O91 Dy80 2.326 . S
O91 C98 1.267 . S
O92 C81 1.185 1_556 S
O92 Dy83 2.398 . S
O93 C81 1.355 . S
O93 Dy83 2.491 1_554 S
O94 Dy83 2.405 . S
O94 C89 1.254 . S
O95 Dy80 2.310 1_556 S
O95 Dy83 2.665 . S
O95 C89 1.268 . S
O96 Dy80 2.351 . S
O96 C99 1.249 1_554 S
O97 Dy83 2.326 . S
O97 C99 1.267 . S
C98 O90 1.249 . S
C98 O91 1.267 . S
C99 O96 1.249 1_556 S
C99 O97 1.267 . S
Dy100 O104 2.398 . S
Dy100 O105 2.491 1_554 S
Dy100 O106 2.403 . S
Dy100 O107 2.664 . S
Dy100 O111 2.326 . S
Dy100 O115 2.310 1_554 S
Dy100 O116 2.351 . S
C101 O112 1.185 1_554 S
C101 O113 1.355 . S
C102 O104 1.185 . S
C102 O105 1.355 1_554 S
Dy103 O107 2.310 . S
Dy103 O110 2.351 . S
Dy103 O112 2.398 1_554 S
Dy103 O113 2.491 . S
Dy103 O114 2.403 1_554 S
Dy103 O115 2.664 1_554 S
Dy103 O117 2.326 1_554 S
O104 Dy100 2.398 . S
O104 C102 1.185 . S
O105 Dy100 2.491 1_556 S
O105 C102 1.355 1_556 S
O106 Dy100 2.403 . S
O106 C108 1.254 . S
O107 Dy100 2.664 . S
O107 Dy103 2.310 . S
O107 C108 1.268 . S
C108 O106 1.254 . S
C108 O107 1.268 . S
C109 O114 1.254 . S
C109 O115 1.268 . S
O110 Dy103 2.351 . S
O110 C118 1.249 . S
O111 Dy100 2.326 . S
O111 C118 1.267 . S
O112 C101 1.185 1_556 S
O112 Dy103 2.398 1_556 S
O113 C101 1.355 . S
O113 Dy103 2.491 . S
O114 Dy103 2.403 1_556 S
O114 C109 1.254 . S
O115 Dy100 2.310 1_556 S
O115 Dy103 2.664 1_556 S
O115 C109 1.268 . S
O116 Dy100 2.351 . S
O116 C119 1.250 . S
O117 Dy103 2.326 1_556 S
O117 C119 1.266 1_556 S
C118 O110 1.249 . S
C118 O111 1.267 . S
C119 O116 1.250 . S
C119 O117 1.266 1_554 S
Dy120 O124 2.398 . S
Dy120 O125 2.491 . S
Dy120 O126 2.403 . S
Dy120 O127 2.664 . S
Dy120 O131 2.326 . S
Dy120 O135 2.310 . S
Dy120 O136 2.351 . S
C121 O132 1.185 . S
C121 O133 1.355 . S
C122 O124 1.185 . S
C122 O125 1.355 . S
Dy123 O127 2.310 . S
Dy123 O130 2.351 . S
Dy123 O132 2.398 . S
Dy123 O133 2.491 . S
Dy123 O134 2.403 . S
Dy123 O135 2.664 . S
Dy123 O137 2.326 . S
O124 Dy120 2.398 . S
O124 C122 1.185 . S
O125 Dy120 2.491 . S
O125 C122 1.355 . S
O126 Dy120 2.403 . S
O126 C128 1.254 . S
O127 Dy120 2.664 . S
O127 Dy123 2.310 . S
O127 C128 1.268 . S
C128 O126 1.254 . S
C128 O127 1.268 . S
C129 O134 1.254 . S
C129 O135 1.268 . S
O130 Dy123 2.351 . S
O130 C138 1.249 . S
O131 Dy120 2.326 . S
O131 C138 1.267 . S
O132 C121 1.185 . S
O132 Dy123 2.398 . S
O133 C121 1.355 . S
O133 Dy123 2.491 . S
O134 Dy123 2.403 . S
O134 C129 1.254 . S
O135 Dy120 2.310 . S
O135 Dy123 2.664 . S
O135 C129 1.268 . S
O136 Dy120 2.351 . S
O136 C139 1.249 . S
O137 Dy123 2.326 . S
O137 C139 1.267 . S
C138 O130 1.249 . S
C138 O131 1.267 . S
C139 O136 1.249 . S
C139 O137 1.267 . S
Dy140 O144 2.398 . S
Dy140 O145 2.491 . S
Dy140 O146 2.403 . S
Dy140 O147 2.664 . S
Dy140 O151 2.326 . S
Dy140 O155 2.310 . S
Dy140 O156 2.351 . S
C141 O152 1.185 . S
C141 O153 1.355 . S
C142 O144 1.185 . S
C142 O145 1.355 . S
Dy143 O147 2.310 . S
Dy143 O150 2.351 . S
Dy143 O152 2.398 . S
Dy143 O153 2.491 . S
Dy143 O154 2.403 . S
Dy143 O155 2.664 . S
Dy143 O157 2.326 . S
O144 Dy140 2.398 . S
O144 C142 1.185 . S
O145 Dy140 2.491 . S
O145 C142 1.355 . S
O146 Dy140 2.403 . S
O146 C148 1.254 . S
O147 Dy140 2.664 . S
O147 Dy143 2.310 . S
O147 C148 1.268 . S
C148 O146 1.254 . S
C148 O147 1.268 . S
C149 O154 1.254 . S
C149 O155 1.268 . S
O150 Dy143 2.351 . S
O150 C158 1.249 . S
O151 Dy140 2.326 . S
O151 C158 1.267 . S
O152 C141 1.185 . S
O152 Dy143 2.398 . S
O153 C141 1.355 . S
O153 Dy143 2.491 . S
O154 Dy143 2.403 . S
O154 C149 1.254 . S
O155 Dy140 2.310 . S
O155 Dy143 2.664 . S
O155 C149 1.268 . S
O156 Dy140 2.351 . S
O156 C159 1.249 . S
O157 Dy143 2.326 . S
O157 C159 1.267 . S
C158 O150 1.249 . S
C158 O151 1.267 . S
C159 O156 1.249 . S
C159 O157 1.267 . S
C19 C18 2.104 1_556 S
C39 C38 2.105 . S
C59 C58 2.104 . S
C79 C78 2.104 . S
C99 C98 2.104 1_656 S
C118 C119 2.105 1_455 S
C139 C138 2.104 1_455 S
C158 C159 2.104 1_655 S
C21 C2 2.548 1_455 S
C62 C41 2.547 1_455 S
C82 C101 2.547 1_565 S
C121 C142 2.548 1_545 S
C1 C102 1.495 . S
C81 C22 1.495 . S
C42 C141 1.495 . S
C61 C122 1.495 . S
C8 C68 1.596 1_455 S
C28 C48 1.533 1_655 S
C29 C49 1.596 1_655 S
C69 C9 1.534 1_655 S
C88 C148 1.596 . S
C108 C128 1.533 . S
C109 C129 1.596 . S
C149 C89 1.534 . S
