# Generated by pormake.
# Topology hex, (8)-cn, num edge types: 1
# Building blocks:
#     Node 0, Type 0, BuildingBlock: EBIMEJ_clean_sbu_0, # of connection points: 8
#     Edge 1, Type (0, 0), BuildingBlock: ZUJKAS_clean_linker_0, # of connection points: 2
#     Edge 2, Type (0, 0), BuildingBlock: ZUJKAS_clean_linker_0, # of connection points: 2
#     Edge 3, Type (0, 0), BuildingBlock: ZUJKAS_clean_linker_0, # of connection points: 2
#     Edge 4, Type (0, 0), BuildingBlock: ZUJKAS_clean_linker_0, # of connection points: 2
# Relax obj value: 0.015
# Max RMSD: 0.054
# Mean RMSD: 0.054
data_MOF--net-hex--node1-EBIMEJ_clean_sbu_0--edge1-ZUJKAS_clean_linker_0
_symmetry_space_group_name_H-M    P1
_symmetry_Int_Tables_number       1
_symmetry_cell_setting            triclinic
loop_
_symmetry_equiv_pos_as_xyz
'x, y, z'
_cell_length_a     21.617983
_cell_length_b     25.097764
_cell_length_c     20.572626
_cell_angle_alpha  73.704818
_cell_angle_beta   115.75335
_cell_angle_gamma 124.39769
loop_
_atom_site_label
_atom_site_type_symbol
_atom_site_fract_x
_atom_site_fract_y
_atom_site_fract_z
_atom_type_partial_charge
Co0 Co 0.00638 0.90501 0.9991 0.0
Co1 Co 0.92018 0.97657 1.00465 0.0
Co2 Co 0.09058 0.05702 0.00925 0.0
H3 H 0.03872 0.98051 0.01696 0.0
O4 O 0.01578 0.96866 0.0479 0.0
H5 H 0.97196 0.0531 0.99676 0.0
O6 O 0.99492 0.06493 0.96585 0.0
Co7 Co 0.00416 0.12861 0.01449 0.0
O8 O 0.88497 0.09136 0.98376 0.0
O9 O 0.82603 0.98745 0.96263 0.0
O10 O 0.1059 0.19765 0.9933 0.0
O11 O 0.16174 0.14852 0.98381 0.0
O12 O 0.06314 0.86224 0.99574 0.0
O13 O 0.9453 0.80616 0.99133 0.0
O14 O 0.03694 0.10005 0.1187 0.0
O15 O 0.94175 0.99659 0.10335 0.0
C16 C 0.18801 0.99631 0.05443 0.0
C17 C 0.84959 0.83434 0.03059 0.0
C18 C 0.00693 0.22805 0.01978 0.0
C19 C 0.01666 0.9891 0.87009 0.0
C20 C 0.82273 0.03643 0.96327 0.0
C21 C 0.16053 0.19914 0.98214 0.0
C22 C 0.00348 0.80609 0.99171 0.0
C23 C 0.99451 0.04468 0.14376 0.0
O24 O 0.12578 0.94111 0.03503 0.0
O25 O 0.18472 0.04607 0.05175 0.0
O26 O 0.84908 0.88505 0.03014 0.0
O27 O 0.90383 0.83581 0.01878 0.0
O28 O 0.94729 0.17195 0.01622 0.0
O29 O 0.06516 0.22768 0.0208 0.0
O30 O 0.97393 0.93374 0.89494 0.0
O31 O 0.06945 0.03708 0.91067 0.0
H32 H 0.12934 0.35309 0.02143 0.0
H33 H 0.12869 0.4513 0.01745 0.0
H34 H 0.88455 0.33511 0.01114 0.0
H35 H 0.885 0.23673 0.01568 0.0
H36 H 0.02735 0.49363 0.91031 0.0
H37 H 0.99672 0.4549 0.17655 0.0
H38 H 0.02554 0.4106 0.15181 0.0
H39 H 0.92238 0.38817 0.11854 0.0
C40 C 0.07572 0.3485 0.0197 0.0
C41 C 0.00736 0.28728 0.0193 0.0
C42 C 0.07539 0.40462 0.01729 0.0
C43 C 0.00696 0.40052 0.015 0.0
C44 C 0.93852 0.33939 0.01432 0.0
H45 H 0.88105 0.681 0.98912 0.0
H46 H 0.88192 0.58301 0.99258 0.0
C47 C 0.93874 0.28325 0.01661 0.0
C48 C 0.0065 0.46025 0.01133 0.0
H49 H 0.98358 0.54105 0.09993 0.0
C50 C 0.01819 0.50421 0.95192 0.0
C51 C 0.99434 0.47385 0.0656 0.0
C52 C 0.98473 0.42976 0.1321 0.0
C53 C 0.01663 0.56085 0.94466 0.0
C54 C 0.00441 0.57442 0.9989 0.0
C55 C 0.99276 0.53048 0.05833 0.0
C56 C 0.00374 0.63406 0.99519 0.0
C57 C 0.02629 0.60498 0.87819 0.0
C58 C 0.07213 0.69527 0.99604 0.0
C59 C 0.07178 0.75129 0.99405 0.0
C60 C 1.00309 0.74705 0.99147 0.0
C61 C 0.93472 0.68575 0.99076 0.0
C62 C 0.93519 0.62976 0.99288 0.0
H63 H 0.01455 0.57992 0.83379 0.0
H64 H 0.98531 0.62399 0.85837 0.0
H65 H 0.08857 0.64667 0.89184 0.0
H66 H 0.12619 0.69968 0.99924 0.0
H67 H 0.12554 0.79787 0.99526 0.0
H68 H 0.68854 0.9245 0.97718 0.0
H69 H 0.5769 0.91627 0.99132 0.0
H70 H 0.67154 0.12069 0.93945 0.0
H71 H 0.78385 0.12958 0.92611 0.0
H72 H 0.65266 0.08235 0.07276 0.0
H73 H 0.37656 0.92443 0.85969 0.0
H74 H 0.44039 0.89167 0.91112 0.0
H75 H 0.47489 0.9639 0.85475 0.0
C76 C 0.68403 0.96724 0.96614 0.0
C77 C 0.74532 0.02781 0.95128 0.0
C78 C 0.62021 0.96245 0.97435 0.0
C79 C 0.61629 0.01794 0.96661 0.0
C80 C 0.67388 0.07742 0.94594 0.0
H81 H 0.32457 0.10721 0.04335 0.0
H82 H 0.43709 0.11353 0.03345 0.0
C83 C 0.73783 0.08234 0.93817 0.0
C84 C 0.5584 1.01567 0.98875 0.0
H85 H 0.35948 0.94589 0.95417 0.0
C86 C 0.58848 0.05281 0.04663 0.0
C87 C 0.475 0.9766 0.95496 0.0
C88 C 0.4396 0.93729 0.89127 0.0
C89 C 0.53713 0.05153 0.07208 0.0
C90 C 0.45374 1.01267 0.03808 0.0
C91 C 0.42367 0.97531 0.98043 0.0
C92 C 0.39581 1.01163 0.05895 0.0
C93 C 0.57251 0.09092 0.13569 0.0
C94 C 0.33688 0.95266 0.07882 0.0
C95 C 0.27239 0.94882 0.08416 0.0
C96 C 0.26567 1.00391 0.06931 0.0
C97 C 0.32834 0.06402 0.05556 0.0
C98 C 0.39273 0.06773 0.04985 0.0
H99 H 0.63516 0.10296 0.16786 0.0
H100 H 0.57287 0.13698 0.11568 0.0
H101 H 0.53656 0.06479 0.17166 0.0
H102 H 0.33853 0.90893 0.0863 0.0
H103 H 0.22533 0.90191 0.09547 0.0
H104 H 0.31275 0.23093 0.00737 0.0
H105 H 0.4302 0.34004 0.01503 0.0
H106 H 0.28039 0.42173 0.94671 0.0
H107 H 0.1632 0.31339 0.93952 0.0
H108 H 0.46953 0.44692 0.91585 0.0
H109 H 0.44122 0.49989 0.14289 0.0
H110 H 0.38658 0.41927 0.11217 0.0
H111 H 0.35323 0.47529 0.06307 0.0
C112 C 0.30464 0.27211 0.99274 0.0
C113 C 0.22888 0.26354 0.974 0.0
C114 C 0.3718 0.33437 0.99749 0.0
C115 C 0.3641 0.3888 0.98344 0.0
C116 C 0.28785 0.38031 0.95983 0.0
H117 H 0.6976 0.80303 1.00558 0.0
H118 H 0.57966 0.6941 0.99706 0.0
C119 C 0.22091 0.31832 0.95544 0.0
C120 C 0.4359 0.45444 0.99568 0.0
H121 H 0.53943 0.58695 0.09499 0.0
C122 C 0.4851 0.47749 0.95518 0.0
C123 C 0.45583 0.49412 0.04708 0.0
C124 C 0.40693 0.47082 0.09432 0.0
C125 C 0.55309 0.53979 0.9637 0.0
C126 C 0.57308 0.57943 0.01518 0.0
C127 C 0.52384 0.5564 0.05563 0.0
C128 C 0.64514 0.64494 0.02772 0.0
C129 C 0.60191 0.56309 0.91639 0.0
C130 C 0.7212 0.65313 0.05109 0.0
C131 C 0.7884 0.71501 0.05593 0.0
C132 C 0.78091 0.76997 0.03814 0.0
C133 C 0.70534 0.76169 0.01963 0.0
C134 C 0.63789 0.69954 0.01438 0.0
H135 H 0.56738 0.53426 0.86759 0.0
H136 H 0.62267 0.61475 0.89889 0.0
H137 H 0.65533 0.55821 0.94741 0.0
H138 H 0.72834 0.61158 0.06371 0.0
H139 H 0.84597 0.71971 0.07163 0.0
H140 H 0.93395 0.89345 0.77549 0.0
H141 H 0.9322 0.90414 0.65318 0.0
H142 H 0.08181 0.11117 0.66785 0.0
H143 H 0.08561 0.1009 0.79125 0.0
H144 H 0.88026 0.96702 0.53089 0.0
H145 H 0.20616 0.07081 0.60845 0.0
H146 H 0.15692 0.03542 0.67412 0.0
H147 H 0.18198 0.11615 0.63684 0.0
C148 C 0.96627 0.94141 0.75277 0.0
C149 C 0.01034 0.99633 0.79358 0.0
C150 C 0.96527 0.94737 0.68273 0.0
C151 C 0.00818 1.0083 0.65175 0.0
C152 C 0.05001 0.06347 0.69129 0.0
H153 H 0.07745 0.14046 0.23827 0.0
H154 H 0.0794 0.12991 0.36064 0.0
C155 C 0.05157 0.05755 0.76168 0.0
C156 C 0.00855 1.01372 0.57799 0.0
H157 H 0.13141 0.06711 0.48306 0.0
C158 C 0.93515 0.9887 0.52045 0.0
C159 C 0.08021 0.04194 0.56439 0.0
C160 C 0.16076 0.06708 0.62426 0.0
C161 C 0.93146 0.9922 0.44956 0.0
C162 C 1.00313 0.0204 0.43596 0.0
C163 C 0.07653 0.04543 0.4935 0.0
C164 C 0.00348 0.02574 0.36222 0.0
C165 C 0.85092 0.96706 0.38969 0.0
C166 C 0.96164 0.97052 0.32276 0.0
C167 C 0.95996 0.97636 0.25235 0.0
C168 C 1.00108 0.03754 0.22033 0.0
C169 C 0.04521 0.09252 0.26107 0.0
C170 C 0.04631 0.08664 0.33115 0.0
H171 H 0.80553 0.96337 0.40548 0.0
H172 H 0.85477 0.99871 0.33981 0.0
H173 H 0.82967 0.91798 0.37713 0.0
H174 H 0.92989 0.92285 0.34627 0.0
H175 H 0.92589 0.93297 0.22284 0.0
loop_
_geom_bond_atom_site_label_1
_geom_bond_atom_site_label_2
_geom_bond_distance
_geom_bond_site_symmetry_2
_ccdc_geom_bond_type
Co0 H3 2.400 1_556 S
Co0 O4 2.009 1_556 S
Co0 O12 2.115 1_455 S
Co0 O13 2.315 1_556 S
Co0 O24 2.053 . S
Co0 O27 2.094 1_455 S
Co0 O30 2.122 1_455 S
Co1 O4 2.126 1_655 S
Co1 H5 2.388 1_564 S
Co1 O6 2.053 1_564 S
Co1 O9 2.047 1_554 S
Co1 O15 2.113 . S
Co1 O26 2.063 . S
Co2 H3 2.388 1_546 S
Co2 O4 2.053 1_546 S
Co2 O6 2.126 1_455 S
Co2 O11 2.063 . S
Co2 O25 2.047 1_556 S
Co2 O31 2.113 . S
H3 Co0 2.400 1_554 S
H3 Co2 2.388 1_564 S
H3 O4 0.760 . S
O4 Co0 2.009 1_554 S
O4 Co1 2.126 1_455 S
O4 Co2 2.053 1_564 S
O4 H3 0.760 . S
H5 Co1 2.388 1_546 S
H5 O6 0.760 . S
H5 Co7 2.400 1_556 S
O6 Co1 2.053 1_546 S
O6 Co2 2.126 1_655 S
O6 H5 0.760 . S
O6 Co7 2.009 1_556 S
Co7 H5 2.400 1_554 S
Co7 O6 2.009 1_554 S
Co7 O8 2.053 . S
Co7 O10 2.094 1_655 S
Co7 O14 2.122 1_655 S
Co7 O28 2.115 1_655 S
Co7 O29 2.315 1_554 S
O8 Co7 2.053 . S
O8 C20 1.259 . S
O9 Co1 2.047 1_556 S
O9 C20 1.257 1_566 S
O10 Co7 2.094 1_455 S
O10 C21 1.253 . S
O11 Co2 2.063 . S
O11 C21 1.268 1_556 S
O12 Co0 2.115 1_655 S
O12 C22 1.281 1_556 S
O13 Co0 2.315 1_554 S
O13 C22 1.252 1_455 S
O14 Co7 2.122 1_455 S
O14 C23 1.272 1_455 S
O15 Co1 2.113 . S
O15 C23 1.245 1_565 S
C16 O24 1.259 . S
C16 O25 1.257 1_566 S
C17 O26 1.268 1_556 S
C17 O27 1.253 . S
C18 O28 1.281 1_556 S
C18 O29 1.252 1_455 S
C19 O30 1.272 1_455 S
C19 O31 1.245 1_565 S
C20 O8 1.259 . S
C20 O9 1.257 1_544 S
C21 O10 1.253 . S
C21 O11 1.268 1_554 S
C22 O12 1.281 1_554 S
C22 O13 1.252 1_655 S
C23 O14 1.272 1_655 S
C23 O15 1.245 1_545 S
O24 Co0 2.053 . S
O24 C16 1.259 . S
O25 Co2 2.047 1_554 S
O25 C16 1.257 1_544 S
O26 Co1 2.063 . S
O26 C17 1.268 1_554 S
O27 Co0 2.094 1_655 S
O27 C17 1.253 . S
O28 Co7 2.115 1_455 S
O28 C18 1.281 1_554 S
O29 Co7 2.315 1_556 S
O29 C18 1.252 1_655 S
O30 Co0 2.122 1_655 S
O30 C19 1.272 1_655 S
O31 Co2 2.113 . S
O31 C19 1.245 1_545 S
H32 C40 0.929 . S
H33 C42 0.930 . S
H34 C44 0.930 . S
H35 C47 0.929 . S
H36 C50 0.930 . S
H37 C52 0.960 . S
H38 C52 0.960 . S
H39 C52 0.960 1_655 S
C40 H32 0.929 . S
C40 C41 1.377 . S
C40 C42 1.384 . S
C41 C40 1.377 . S
C41 C47 1.390 1_456 S
C42 H33 0.930 . S
C42 C40 1.384 . S
C42 C43 1.372 . S
C43 C42 1.372 . S
C43 C44 1.400 1_456 S
C43 C48 1.490 . S
C44 H34 0.930 . S
C44 C43 1.400 1_654 S
C44 C47 1.386 . S
H45 C61 0.930 . S
H46 C62 0.931 . S
C47 H35 0.929 . S
C47 C41 1.390 1_654 S
C47 C44 1.386 . S
C48 C43 1.490 . S
C48 C50 1.395 . S
C48 C51 1.403 1_556 S
H49 C55 0.920 1_655 S
C50 H36 0.930 . S
C50 C48 1.395 . S
C50 C53 1.403 . S
C51 C48 1.403 1_554 S
C51 C52 1.524 . S
C51 C55 1.400 . S
C52 H37 0.960 . S
C52 H38 0.960 . S
C52 H39 0.960 1_455 S
C52 C51 1.524 . S
C53 C50 1.403 . S
C53 C54 1.383 1_455 S
C53 C57 1.495 1_455 S
C54 C53 1.383 1_655 S
C54 C55 1.384 1_656 S
C54 C56 1.488 . S
C55 H49 0.920 1_455 S
C55 C51 1.400 . S
C55 C54 1.384 1_454 S
C56 C54 1.488 . S
C56 C58 1.381 1_655 S
C56 C62 1.383 . S
C57 C53 1.495 1_655 S
C57 H63 0.959 1_655 S
C57 H64 0.961 . S
C57 H65 0.960 1_655 S
C58 C56 1.381 1_455 S
C58 C59 1.394 . S
C58 H66 0.930 . S
C59 C58 1.394 . S
C59 C60 1.383 1_456 S
C59 H67 0.929 . S
C60 C59 1.383 1_654 S
C60 C61 1.377 . S
C61 H45 0.930 . S
C61 C60 1.377 . S
C61 C62 1.379 1_554 S
C62 H46 0.931 . S
C62 C56 1.383 . S
C62 C61 1.379 1_556 S
H63 C57 0.959 1_455 S
H64 C57 0.961 . S
H65 C57 0.960 1_455 S
H66 C58 0.930 . S
H67 C59 0.929 . S
H68 C76 0.929 . S
H69 C78 0.930 . S
H70 C80 0.930 . S
H71 C83 0.929 . S
H72 C86 0.930 . S
H73 C88 0.960 . S
H74 C88 0.960 . S
H75 C88 0.960 . S
C76 H68 0.929 . S
C76 C77 1.377 1_565 S
C76 C78 1.384 . S
C77 C76 1.377 1_545 S
C77 C83 1.390 1_554 S
C78 H69 0.930 . S
C78 C76 1.384 . S
C78 C79 1.370 1_565 S
C79 C78 1.370 1_545 S
C79 C80 1.398 1_554 S
C79 C84 1.494 . S
C80 H70 0.930 . S
C80 C79 1.398 1_556 S
C80 C83 1.386 . S
H81 C97 0.930 . S
H82 C98 0.931 . S
C83 H71 0.929 . S
C83 C77 1.390 1_556 S
C83 C80 1.386 . S
C84 C79 1.494 . S
C84 C86 1.395 . S
C84 C87 1.403 1_544 S
H85 C91 0.930 . S
C86 H72 0.930 . S
C86 C84 1.395 . S
C86 C89 1.403 . S
C87 C84 1.403 1_566 S
C87 C88 1.524 . S
C87 C91 1.400 . S
C88 H73 0.960 . S
C88 H74 0.960 . S
C88 H75 0.960 . S
C88 C87 1.524 . S
C89 C86 1.403 . S
C89 C90 1.392 . S
C89 C93 1.495 . S
C90 C89 1.392 . S
C90 C91 1.385 1_544 S
C90 C92 1.478 . S
C91 H85 0.930 . S
C91 C87 1.400 . S
C91 C90 1.385 1_566 S
C92 C90 1.478 . S
C92 C94 1.381 1_545 S
C92 C98 1.383 1_554 S
C93 C89 1.495 . S
C93 H99 0.959 . S
C93 H100 0.961 . S
C93 H101 0.960 . S
C94 C92 1.381 1_565 S
C94 C95 1.394 . S
C94 H102 0.930 . S
C95 C94 1.394 . S
C95 C96 1.383 1_564 S
C95 H103 0.929 . S
C96 C95 1.383 1_546 S
C96 C97 1.377 . S
C97 H81 0.930 . S
C97 C96 1.377 . S
C97 C98 1.379 . S
C98 H82 0.931 . S
C98 C92 1.383 1_556 S
C98 C97 1.379 . S
H99 C93 0.959 . S
H100 C93 0.961 . S
H101 C93 0.960 . S
H102 C94 0.930 . S
H103 C95 0.929 . S
H104 C112 0.929 . S
H105 C114 0.930 . S
H106 C116 0.930 . S
H107 C119 0.929 . S
H108 C122 0.930 . S
H109 C124 0.960 . S
H110 C124 0.960 . S
H111 C124 0.960 . S
C112 H104 0.929 . S
C112 C113 1.377 . S
C112 C114 1.384 . S
C113 C112 1.377 . S
C113 C119 1.390 1_554 S
C114 H105 0.930 . S
C114 C112 1.384 . S
C114 C115 1.372 . S
C115 C114 1.372 . S
C115 C116 1.400 1_554 S
C115 C120 1.490 . S
C116 H106 0.930 . S
C116 C115 1.400 1_556 S
C116 C119 1.386 . S
H117 C133 0.930 . S
H118 C134 0.931 . S
C119 H107 0.929 . S
C119 C113 1.390 1_556 S
C119 C116 1.386 . S
C120 C115 1.490 . S
C120 C122 1.395 1_554 S
C120 C123 1.403 . S
H121 C127 0.930 . S
C122 H108 0.930 . S
C122 C120 1.395 1_556 S
C122 C125 1.403 . S
C123 C120 1.403 . S
C123 C124 1.524 . S
C123 C127 1.400 . S
C124 H109 0.960 . S
C124 H110 0.960 . S
C124 H111 0.960 . S
C124 C123 1.524 . S
C125 C122 1.403 . S
C125 C126 1.392 . S
C125 C129 1.495 . S
C126 C125 1.392 . S
C126 C127 1.385 1_556 S
C126 C128 1.478 . S
C127 H121 0.930 . S
C127 C123 1.400 . S
C127 C126 1.385 1_554 S
C128 C126 1.478 . S
C128 C130 1.381 1_556 S
C128 C134 1.383 . S
C129 C125 1.495 . S
C129 H135 0.959 . S
C129 H136 0.961 . S
C129 H137 0.960 . S
C130 C128 1.381 1_554 S
C130 C131 1.394 . S
C130 H138 0.930 . S
C131 C130 1.394 . S
C131 C132 1.383 1_554 S
C131 H139 0.929 . S
C132 C131 1.383 1_556 S
C132 C133 1.377 . S
C133 H117 0.930 . S
C133 C132 1.377 . S
C133 C134 1.379 . S
C134 H118 0.931 . S
C134 C128 1.383 . S
C134 C133 1.379 . S
H135 C129 0.959 . S
H136 C129 0.961 . S
H137 C129 0.960 . S
H138 C130 0.930 . S
H139 C131 0.929 . S
H140 C148 0.929 . S
H141 C150 0.930 . S
H142 C152 0.930 . S
H143 C155 0.929 . S
H144 C158 0.930 . S
H145 C160 0.960 . S
H146 C160 0.960 . S
H147 C160 0.960 . S
C148 H140 0.929 . S
C148 C149 1.378 1_565 S
C148 C150 1.384 . S
C149 C148 1.378 1_545 S
C149 C155 1.390 1_455 S
C150 H141 0.930 . S
C150 C148 1.384 . S
C150 C151 1.372 . S
C151 C150 1.372 . S
C151 C152 1.400 1_465 S
C151 C156 1.490 . S
C152 H142 0.930 . S
C152 C151 1.400 1_645 S
C152 C155 1.386 . S
H153 C169 0.930 . S
H154 C170 0.931 . S
C155 H143 0.929 . S
C155 C149 1.390 1_655 S
C155 C152 1.386 . S
C156 C151 1.490 . S
C156 C158 1.395 1_455 S
C156 C159 1.403 1_565 S
H157 C163 0.930 . S
C158 H144 0.930 . S
C158 C156 1.395 1_655 S
C158 C161 1.403 . S
C159 C156 1.403 1_545 S
C159 C160 1.524 . S
C159 C163 1.400 . S
C160 H145 0.960 . S
C160 H146 0.960 . S
C160 H147 0.960 . S
C160 C159 1.524 . S
C161 C158 1.403 . S
C161 C162 1.392 . S
C161 C165 1.495 . S
C162 C161 1.392 . S
C162 C163 1.385 1_665 S
C162 C164 1.478 . S
C163 H157 0.930 . S
C163 C159 1.400 . S
C163 C162 1.385 1_445 S
C164 C162 1.478 . S
C164 C166 1.381 1_655 S
C164 C170 1.383 1_565 S
C165 C161 1.495 . S
C165 H171 0.959 . S
C165 H172 0.961 . S
C165 H173 0.960 . S
C166 C164 1.381 1_455 S
C166 C167 1.394 . S
C166 H174 0.930 . S
C167 C166 1.394 . S
C167 C168 1.383 1_455 S
C167 H175 0.929 . S
C168 C167 1.383 1_655 S
C168 C169 1.377 1_565 S
C169 H153 0.930 . S
C169 C168 1.377 1_545 S
C169 C170 1.379 . S
C170 H154 0.931 . S
C170 C164 1.383 1_545 S
C170 C169 1.379 . S
H171 C165 0.959 . S
H172 C165 0.961 . S
H173 C165 0.960 . S
H174 C166 0.930 . S
H175 C167 0.929 . S
C41 C18 1.880 . S
C60 C22 1.865 . S
C77 C20 0.853 . S
C96 C16 0.861 1_545 S
C113 C21 1.645 . S
C132 C17 1.641 . S
C149 C19 1.461 1_545 S
C168 C23 1.475 1_565 S
