# Generated by pormake.
# Topology sow, (4)-cn, num edge types: 1
# Building blocks:
#     Node 0, Type 0, BuildingBlock: QUQFOY_clean_sbu_3, # of connection points: 4
#     Node 1, Type 0, BuildingBlock: QUQFOY_clean_sbu_3, # of connection points: 4
#     Node 2, Type 0, BuildingBlock: QUQFOY_clean_sbu_3, # of connection points: 4
#     Node 3, Type 0, BuildingBlock: QUQFOY_clean_sbu_3, # of connection points: 4
#     Node 4, Type 0, BuildingBlock: QUQFOY_clean_sbu_3, # of connection points: 4
#     Node 5, Type 0, BuildingBlock: QUQFOY_clean_sbu_3, # of connection points: 4
#     Node 6, Type 0, BuildingBlock: QUQFOY_clean_sbu_3, # of connection points: 4
#     Node 7, Type 0, BuildingBlock: QUQFOY_clean_sbu_3, # of connection points: 4
#     Edge 8, Type (0, 0), BuildingBlock: EYOCIG_clean_linker_4, # of connection points: 2
#     Edge 9, Type (0, 0), BuildingBlock: EYOCIG_clean_linker_4, # of connection points: 2
#     Edge 10, Type (0, 0), BuildingBlock: EYOCIG_clean_linker_4, # of connection points: 2
#     Edge 11, Type (0, 0), BuildingBlock: EYOCIG_clean_linker_4, # of connection points: 2
#     Edge 12, Type (0, 0), BuildingBlock: EYOCIG_clean_linker_4, # of connection points: 2
#     Edge 13, Type (0, 0), BuildingBlock: EYOCIG_clean_linker_4, # of connection points: 2
#     Edge 14, Type (0, 0), BuildingBlock: EYOCIG_clean_linker_4, # of connection points: 2
#     Edge 15, Type (0, 0), BuildingBlock: EYOCIG_clean_linker_4, # of connection points: 2
#     Edge 16, Type (0, 0), BuildingBlock: EYOCIG_clean_linker_4, # of connection points: 2
#     Edge 17, Type (0, 0), BuildingBlock: EYOCIG_clean_linker_4, # of connection points: 2
#     Edge 18, Type (0, 0), BuildingBlock: EYOCIG_clean_linker_4, # of connection points: 2
#     Edge 19, Type (0, 0), BuildingBlock: EYOCIG_clean_linker_4, # of connection points: 2
#     Edge 20, Type (0, 0), BuildingBlock: EYOCIG_clean_linker_4, # of connection points: 2
#     Edge 21, Type (0, 0), BuildingBlock: EYOCIG_clean_linker_4, # of connection points: 2
#     Edge 22, Type (0, 0), BuildingBlock: EYOCIG_clean_linker_4, # of connection points: 2
#     Edge 23, Type (0, 0), BuildingBlock: EYOCIG_clean_linker_4, # of connection points: 2
# Relax obj value: 0.154
# Max RMSD: 0.204
# Mean RMSD: 0.204
data_MOF--net-sow--node1-QUQFOY_clean_sbu_3--edge1-EYOCIG_clean_linker_4
_symmetry_space_group_name_H-M    P1
_symmetry_Int_Tables_number       1
_symmetry_cell_setting            triclinic
loop_
_symmetry_equiv_pos_as_xyz
'x, y, z'
_cell_length_a     32.211989
_cell_length_b     18.781315
_cell_length_c     19.412219
_cell_angle_alpha  89.97224
_cell_angle_beta   89.961634
_cell_angle_gamma 89.997127
loop_
_atom_site_label
_atom_site_type_symbol
_atom_site_fract_x
_atom_site_fract_y
_atom_site_fract_z
_atom_type_partial_charge
C0 C 0.04274 0.12171 0.0646 0.0
O1 O 0.05056 0.11206 0.12791 0.0
Cd2 Cd 0.0958 0.18786 0.19217 0.0
O3 O 0.06015 0.1714 0.0304 0.0
Cd4 Cd 0.11318 0.26709 0.04786 0.0
C5 C 0.0491 0.3504 0.15882 0.0
O6 O 0.15738 0.19833 0.12484 0.0
O7 O 0.17247 0.30993 0.11707 0.0
O8 O 0.14299 0.2293 0.93929 0.0
C9 C 0.18138 0.24894 0.14066 0.0
O10 O 0.05756 0.29919 0.19929 0.0
C11 C 0.14457 0.29076 0.9126 0.0
O12 O 0.06352 0.35273 0.09779 0.0
O13 O 0.13053 0.34247 0.94768 0.0
C14 C 0.40738 0.39915 0.56579 0.0
O15 O 0.39934 0.40896 0.62902 0.0
Cd16 Cd 0.35288 0.33482 0.69288 0.0
O17 O 0.38957 0.35012 0.53134 0.0
Cd18 Cd 0.33536 0.2562 0.54825 0.0
C19 C 0.39781 0.1707 0.66023 0.0
O20 O 0.29157 0.32619 0.62485 0.0
O21 O 0.27541 0.21507 0.61686 0.0
O22 O 0.30624 0.29527 0.43959 0.0
C23 C 0.26701 0.27626 0.64042 0.0
O24 O 0.38974 0.2222 0.70053 0.0
C25 C 0.30397 0.23395 0.41281 0.0
O26 O 0.38374 0.16886 0.59899 0.0
O27 O 0.3174 0.18169 0.44783 0.0
C28 C 0.53973 0.39875 0.91449 0.0
O29 O 0.54702 0.40835 0.85098 0.0
Cd30 Cd 0.59238 0.33363 0.78578 0.0
O31 O 0.55774 0.34953 0.94845 0.0
Cd32 Cd 0.61135 0.2549 0.92975 0.0
C33 C 0.54719 0.17006 0.82016 0.0
O34 O 0.65445 0.32485 0.85192 0.0
O35 O 0.67048 0.21361 0.85925 0.0
O36 O 0.64163 0.29322 0.03778 0.0
C37 C 0.67877 0.27485 0.83566 0.0
O38 O 0.555 0.22145 0.77954 0.0
C39 C 0.64409 0.23173 0.0642 0.0
O40 O 0.56201 0.16806 0.88091 0.0
O41 O 0.63028 0.17973 0.02929 0.0
C42 C 0.90592 0.12215 0.41535 0.0
O43 O 0.89843 0.11188 0.35203 0.0
Cd44 Cd 0.85312 0.18627 0.28634 0.0
O45 O 0.8881 0.17185 0.44892 0.0
Cd46 Cd 0.83461 0.26651 0.42972 0.0
C47 C 0.89865 0.34994 0.31875 0.0
O48 O 0.79116 0.19654 0.35262 0.0
O49 O 0.77564 0.30805 0.35918 0.0
O50 O 0.80422 0.22888 0.53791 0.0
C51 C 0.76708 0.24678 0.33599 0.0
O52 O 0.89067 0.29822 0.27869 0.0
C53 C 0.80205 0.29045 0.56419 0.0
O54 O 0.88401 0.35258 0.37963 0.0
O55 O 0.81609 0.34221 0.52911 0.0
C56 C 0.90787 0.89995 0.91424 0.0
O57 O 0.90028 0.90985 0.85088 0.0
Cd58 Cd 0.85446 0.83547 0.78623 0.0
O59 O 0.88986 0.85082 0.94834 0.0
Cd60 Cd 0.83582 0.75692 0.93052 0.0
C61 C 0.89939 0.67158 0.82022 0.0
O62 O 0.79256 0.82672 0.85293 0.0
O63 O 0.77652 0.71549 0.86079 0.0
O64 O 0.80591 0.79657 0.03842 0.0
C65 C 0.76819 0.77665 0.83705 0.0
O66 O 0.89156 0.72304 0.77971 0.0
C67 C 0.80326 0.73535 0.06539 0.0
O68 O 0.88479 0.66964 0.88116 0.0
O69 O 0.81684 0.68287 0.03086 0.0
C70 C 0.54201 0.62216 0.41606 0.0
O71 O 0.54945 0.61276 0.35258 0.0
Cd72 Cd 0.59421 0.68878 0.2875 0.0
O73 O 0.55954 0.67184 0.45003 0.0
Cd74 Cd 0.61234 0.7678 0.43151 0.0
C75 C 0.54784 0.85143 0.32164 0.0
O76 O 0.65618 0.69948 0.35356 0.0
O77 O 0.671 0.81121 0.36113 0.0
O78 O 0.6432 0.72996 0.53921 0.0
C79 C 0.67993 0.75033 0.33734 0.0
O80 O 0.55609 0.80024 0.28106 0.0
C81 C 0.64477 0.79132 0.56605 0.0
O82 O 0.56246 0.85364 0.38251 0.0
O83 O 0.63021 0.843 0.5315 0.0
C84 C 0.40577 0.62233 0.06491 0.0
O85 O 0.39794 0.61257 0.12823 0.0
Cd86 Cd 0.35253 0.68779 0.19289 0.0
O87 O 0.38832 0.67202 0.0308 0.0
Cd88 Cd 0.33513 0.76748 0.04879 0.0
C89 C 0.39854 0.85109 0.16039 0.0
O90 O 0.29098 0.69853 0.12579 0.0
O91 O 0.27598 0.81019 0.11841 0.0
O92 O 0.30488 0.73 0.94056 0.0
C93 C 0.26707 0.74918 0.14191 0.0
O94 O 0.39019 0.7996 0.20059 0.0
C95 C 0.30341 0.79145 0.91385 0.0
O96 O 0.38437 0.85346 0.09923 0.0
O97 O 0.31777 0.84304 0.94872 0.0
C98 C 0.04071 0.90062 0.56645 0.0
O99 O 0.04839 0.91025 0.62981 0.0
Cd100 Cd 0.09423 0.83553 0.6941 0.0
O101 O 0.05858 0.85149 0.53218 0.0
Cd102 Cd 0.11244 0.75712 0.5497 0.0
C103 C 0.04901 0.67187 0.66043 0.0
O104 O 0.15594 0.82686 0.62689 0.0
O105 O 0.17196 0.71565 0.61902 0.0
O106 O 0.14209 0.79619 0.44133 0.0
C107 C 0.18036 0.77681 0.64263 0.0
O108 O 0.057 0.72322 0.70094 0.0
C109 C 0.14449 0.73485 0.41461 0.0
O110 O 0.06348 0.67001 0.59941 0.0
O111 O 0.13092 0.6826 0.44952 0.0
C112 C 0.20972 0.29475 0.73596 0.0
C113 C 0.23584 0.286 0.69231 0.0
C114 C 0.18328 0.30119 0.79357 0.0
C115 C 0.16506 0.30113 0.84778 0.0
C116 C 0.23863 0.23138 0.23635 0.0
C117 C 0.21255 0.23988 0.19262 0.0
C118 C 0.26506 0.22476 0.29391 0.0
C119 C 0.2833 0.22438 0.34808 0.0
C120 C 0.71022 0.22829 0.23987 0.0
C121 C 0.73615 0.23698 0.28377 0.0
C122 C 0.68371 0.22179 0.18239 0.0
C123 C 0.66515 0.22175 0.12853 0.0
C124 C 0.73582 0.29384 0.73978 0.0
C125 C 0.70982 0.28485 0.78358 0.0
C126 C 0.76242 0.30064 0.68239 0.0
C127 C 0.78103 0.30076 0.62854 0.0
C128 C 0.76357 0.72668 0.18372 0.0
C129 C 0.78214 0.72618 0.12983 0.0
C130 C 0.73701 0.73325 0.24118 0.0
C131 C 0.71101 0.74153 0.28512 0.0
C132 C 0.6843 0.80161 0.68425 0.0
C133 C 0.66569 0.80162 0.63044 0.0
C134 C 0.71096 0.79513 0.74153 0.0
C135 C 0.73705 0.78642 0.78516 0.0
C136 C 0.2643 0.80195 0.79529 0.0
C137 C 0.28273 0.80195 0.84927 0.0
C138 C 0.2377 0.79538 0.73795 0.0
C139 C 0.21157 0.78657 0.69441 0.0
C140 C 0.21009 0.73184 0.2382 0.0
C141 C 0.23605 0.74014 0.19421 0.0
C142 C 0.18369 0.72548 0.29589 0.0
C143 C 0.16533 0.72528 0.34998 0.0
C144 C -0.00926 0.42546 0.21579 0.0
C145 C 0.01791 0.39976 0.18112 0.0
C146 C 0.95664 0.42546 0.26134 0.0
C147 C 0.92957 0.3997 0.29619 0.0
C148 C 0.45518 0.09425 0.71808 0.0
C149 C 0.42839 0.12044 0.68296 0.0
C150 C 0.48916 0.09408 0.7638 0.0
C151 C 0.51628 0.11998 0.79836 0.0
C152 C -0.00877 0.59565 0.71751 0.0
C153 C 0.01822 0.62173 0.68269 0.0
C154 C 0.95722 0.5955 0.76324 0.0
C155 C 0.93019 0.62141 0.79807 0.0
C156 C 0.45603 0.92693 0.21855 0.0
C157 C 0.42925 0.90098 0.1833 0.0
C158 C 0.48982 0.92701 0.26463 0.0
C159 C 0.51685 0.90119 0.29947 0.0
C160 C -0.01022 0.03424 0.0046 0.0
C161 C 0.01405 0.07479 0.03093 0.0
C162 C 0.96133 0.98629 0.97454 0.0
C163 C 0.93682 0.94621 0.94816 0.0
C164 C 0.48952 0.53407 0.47654 0.0
C165 C 0.51359 0.57498 0.45013 0.0
C166 C 0.46112 0.48579 0.50638 0.0
C167 C 0.43649 0.44558 0.53236 0.0
C168 C 0.4586 0.53453 0.00491 0.0
C169 C 0.43438 0.5753 0.03111 0.0
C170 C 0.48686 0.48606 0.97504 0.0
C171 C 0.51112 0.44546 0.94868 0.0
C172 C -0.01264 0.98747 0.50647 0.0
C173 C 0.01182 0.94718 0.53273 0.0
C174 C 0.95892 0.03547 0.47637 0.0
C175 C 0.93461 0.07578 0.44977 0.0
loop_
_geom_bond_atom_site_label_1
_geom_bond_atom_site_label_2
_geom_bond_distance
_geom_bond_site_symmetry_2
_ccdc_geom_bond_type
C0 O1 1.306 . S
C0 O3 1.160 . S
O1 C0 1.306 . S
O1 Cd2 2.228 . S
Cd2 O1 2.228 . S
Cd2 O6 2.273 . S
Cd2 O10 2.277 . S
O3 C0 1.160 . S
O3 Cd4 2.203 . S
Cd4 O3 2.203 . S
Cd4 O6 2.411 . S
Cd4 O7 2.333 . S
Cd4 O8 2.352 1_554 S
Cd4 O12 2.277 . S
Cd4 O13 2.356 1_554 S
C5 O10 1.209 . S
C5 O12 1.226 . S
O6 Cd2 2.273 . S
O6 Cd4 2.411 . S
O6 C9 1.320 . S
O7 Cd4 2.333 . S
O7 C9 1.214 . S
O8 Cd4 2.352 1_556 S
O8 C11 1.258 . S
C9 O6 1.320 . S
C9 O7 1.214 . S
O10 Cd2 2.277 . S
O10 C5 1.209 . S
C11 O8 1.258 . S
C11 O13 1.282 . S
O12 Cd4 2.277 . S
O12 C5 1.226 . S
O13 Cd4 2.356 1_556 S
O13 C11 1.282 . S
C14 O15 1.306 . S
C14 O17 1.160 . S
O15 C14 1.306 . S
O15 Cd16 2.228 . S
Cd16 O15 2.228 . S
Cd16 O20 2.273 . S
Cd16 O24 2.277 . S
O17 C14 1.160 . S
O17 Cd18 2.203 . S
Cd18 O17 2.203 . S
Cd18 O20 2.411 . S
Cd18 O21 2.333 . S
Cd18 O22 2.352 . S
Cd18 O26 2.277 . S
Cd18 O27 2.356 . S
C19 O24 1.209 . S
C19 O26 1.226 . S
O20 Cd16 2.273 . S
O20 Cd18 2.411 . S
O20 C23 1.320 . S
O21 Cd18 2.333 . S
O21 C23 1.214 . S
O22 Cd18 2.352 . S
O22 C25 1.258 . S
C23 O20 1.320 . S
C23 O21 1.214 . S
O24 Cd16 2.277 . S
O24 C19 1.209 . S
C25 O22 1.258 . S
C25 O27 1.282 . S
O26 Cd18 2.277 . S
O26 C19 1.226 . S
O27 Cd18 2.356 . S
O27 C25 1.282 . S
C28 O29 1.306 . S
C28 O31 1.160 . S
O29 C28 1.306 . S
O29 Cd30 2.228 . S
Cd30 O29 2.228 . S
Cd30 O34 2.273 . S
Cd30 O38 2.277 . S
O31 C28 1.160 . S
O31 Cd32 2.203 . S
Cd32 O31 2.203 . S
Cd32 O34 2.411 . S
Cd32 O35 2.333 . S
Cd32 O36 2.352 1_556 S
Cd32 O40 2.277 . S
Cd32 O41 2.356 1_556 S
C33 O38 1.209 . S
C33 O40 1.226 . S
O34 Cd30 2.273 . S
O34 Cd32 2.411 . S
O34 C37 1.320 . S
O35 Cd32 2.333 . S
O35 C37 1.214 . S
O36 Cd32 2.352 1_554 S
O36 C39 1.258 . S
C37 O34 1.320 . S
C37 O35 1.214 . S
O38 Cd30 2.277 . S
O38 C33 1.209 . S
C39 O36 1.258 . S
C39 O41 1.282 . S
O40 Cd32 2.277 . S
O40 C33 1.226 . S
O41 Cd32 2.356 1_554 S
O41 C39 1.282 . S
C42 O43 1.306 . S
C42 O45 1.160 . S
O43 C42 1.306 . S
O43 Cd44 2.228 . S
Cd44 O43 2.228 . S
Cd44 O48 2.273 . S
Cd44 O52 2.277 . S
O45 C42 1.160 . S
O45 Cd46 2.203 . S
Cd46 O45 2.203 . S
Cd46 O48 2.411 . S
Cd46 O49 2.333 . S
Cd46 O50 2.352 . S
Cd46 O54 2.277 . S
Cd46 O55 2.356 . S
C47 O52 1.209 . S
C47 O54 1.226 . S
O48 Cd44 2.273 . S
O48 Cd46 2.411 . S
O48 C51 1.320 . S
O49 Cd46 2.333 . S
O49 C51 1.214 . S
O50 Cd46 2.352 . S
O50 C53 1.258 . S
C51 O48 1.320 . S
C51 O49 1.214 . S
O52 Cd44 2.277 . S
O52 C47 1.209 . S
C53 O50 1.258 . S
C53 O55 1.282 . S
O54 Cd46 2.277 . S
O54 C47 1.226 . S
O55 Cd46 2.356 . S
O55 C53 1.282 . S
C56 O57 1.306 . S
C56 O59 1.160 . S
O57 C56 1.306 . S
O57 Cd58 2.228 . S
Cd58 O57 2.228 . S
Cd58 O62 2.273 . S
Cd58 O66 2.277 . S
O59 C56 1.160 . S
O59 Cd60 2.203 . S
Cd60 O59 2.203 . S
Cd60 O62 2.411 . S
Cd60 O63 2.333 . S
Cd60 O64 2.352 1_556 S
Cd60 O68 2.277 . S
Cd60 O69 2.356 1_556 S
C61 O66 1.209 . S
C61 O68 1.226 . S
O62 Cd58 2.273 . S
O62 Cd60 2.411 . S
O62 C65 1.320 . S
O63 Cd60 2.333 . S
O63 C65 1.214 . S
O64 Cd60 2.352 1_554 S
O64 C67 1.258 . S
C65 O62 1.320 . S
C65 O63 1.214 . S
O66 Cd58 2.277 . S
O66 C61 1.209 . S
C67 O64 1.258 . S
C67 O69 1.282 . S
O68 Cd60 2.277 . S
O68 C61 1.226 . S
O69 Cd60 2.356 1_554 S
O69 C67 1.282 . S
C70 O71 1.306 . S
C70 O73 1.160 . S
O71 C70 1.306 . S
O71 Cd72 2.228 . S
Cd72 O71 2.228 . S
Cd72 O76 2.273 . S
Cd72 O80 2.277 . S
O73 C70 1.160 . S
O73 Cd74 2.203 . S
Cd74 O73 2.203 . S
Cd74 O76 2.411 . S
Cd74 O77 2.333 . S
Cd74 O78 2.352 . S
Cd74 O82 2.277 . S
Cd74 O83 2.356 . S
C75 O80 1.209 . S
C75 O82 1.226 . S
O76 Cd72 2.273 . S
O76 Cd74 2.411 . S
O76 C79 1.320 . S
O77 Cd74 2.333 . S
O77 C79 1.214 . S
O78 Cd74 2.352 . S
O78 C81 1.258 . S
C79 O76 1.320 . S
C79 O77 1.214 . S
O80 Cd72 2.277 . S
O80 C75 1.209 . S
C81 O78 1.258 . S
C81 O83 1.282 . S
O82 Cd74 2.277 . S
O82 C75 1.226 . S
O83 Cd74 2.356 . S
O83 C81 1.282 . S
C84 O85 1.306 . S
C84 O87 1.160 . S
O85 C84 1.306 . S
O85 Cd86 2.228 . S
Cd86 O85 2.228 . S
Cd86 O90 2.273 . S
Cd86 O94 2.277 . S
O87 C84 1.160 . S
O87 Cd88 2.203 . S
Cd88 O87 2.203 . S
Cd88 O90 2.411 . S
Cd88 O91 2.333 . S
Cd88 O92 2.352 1_554 S
Cd88 O96 2.277 . S
Cd88 O97 2.356 1_554 S
C89 O94 1.209 . S
C89 O96 1.226 . S
O90 Cd86 2.273 . S
O90 Cd88 2.411 . S
O90 C93 1.320 . S
O91 Cd88 2.333 . S
O91 C93 1.214 . S
O92 Cd88 2.352 1_556 S
O92 C95 1.258 . S
C93 O90 1.320 . S
C93 O91 1.214 . S
O94 Cd86 2.277 . S
O94 C89 1.209 . S
C95 O92 1.258 . S
C95 O97 1.282 . S
O96 Cd88 2.277 . S
O96 C89 1.226 . S
O97 Cd88 2.356 1_556 S
O97 C95 1.282 . S
C98 O99 1.306 . S
C98 O101 1.160 . S
O99 C98 1.306 . S
O99 Cd100 2.228 . S
Cd100 O99 2.228 . S
Cd100 O104 2.273 . S
Cd100 O108 2.277 . S
O101 C98 1.160 . S
O101 Cd102 2.203 . S
Cd102 O101 2.203 . S
Cd102 O104 2.411 . S
Cd102 O105 2.333 . S
Cd102 O106 2.352 . S
Cd102 O110 2.277 . S
Cd102 O111 2.356 . S
C103 O108 1.209 . S
C103 O110 1.226 . S
O104 Cd100 2.273 . S
O104 Cd102 2.411 . S
O104 C107 1.320 . S
O105 Cd102 2.333 . S
O105 C107 1.214 . S
O106 Cd102 2.352 . S
O106 C109 1.258 . S
C107 O104 1.320 . S
C107 O105 1.214 . S
O108 Cd100 2.277 . S
O108 C103 1.209 . S
C109 O106 1.258 . S
C109 O111 1.282 . S
O110 Cd102 2.277 . S
O110 C103 1.226 . S
O111 Cd102 2.356 . S
O111 C109 1.282 . S
C112 C113 1.170 . S
C112 C114 1.380 . S
C113 C112 1.170 . S
C114 C112 1.380 . S
C114 C115 1.170 . S
C115 C114 1.170 . S
C116 C117 1.170 . S
C116 C118 1.380 . S
C117 C116 1.170 . S
C118 C116 1.380 . S
C118 C119 1.170 . S
C119 C118 1.170 . S
C120 C121 1.170 . S
C120 C122 1.380 . S
C121 C120 1.170 . S
C122 C120 1.380 . S
C122 C123 1.170 . S
C123 C122 1.170 . S
C124 C125 1.170 . S
C124 C126 1.380 . S
C125 C124 1.170 . S
C126 C124 1.380 . S
C126 C127 1.170 . S
C127 C126 1.170 . S
C128 C129 1.170 . S
C128 C130 1.380 . S
C129 C128 1.170 . S
C130 C128 1.380 . S
C130 C131 1.170 . S
C131 C130 1.170 . S
C132 C133 1.170 . S
C132 C134 1.380 . S
C133 C132 1.170 . S
C134 C132 1.380 . S
C134 C135 1.170 . S
C135 C134 1.170 . S
C136 C137 1.170 . S
C136 C138 1.380 . S
C137 C136 1.170 . S
C138 C136 1.380 . S
C138 C139 1.170 . S
C139 C138 1.170 . S
C140 C141 1.170 . S
C140 C142 1.380 . S
C141 C140 1.170 . S
C142 C140 1.380 . S
C142 C143 1.170 . S
C143 C142 1.170 . S
C144 C145 1.170 . S
C144 C146 1.380 1_455 S
C145 C144 1.170 . S
C146 C144 1.380 1_655 S
C146 C147 1.170 . S
C147 C146 1.170 . S
C148 C149 1.170 . S
C148 C150 1.380 . S
C149 C148 1.170 . S
C150 C148 1.380 . S
C150 C151 1.170 . S
C151 C150 1.170 . S
C152 C153 1.170 . S
C152 C154 1.380 1_455 S
C153 C152 1.170 . S
C154 C152 1.380 1_655 S
C154 C155 1.170 . S
C155 C154 1.170 . S
C156 C157 1.170 . S
C156 C158 1.380 . S
C157 C156 1.170 . S
C158 C156 1.380 . S
C158 C159 1.170 . S
C159 C158 1.170 . S
C160 C161 1.170 . S
C160 C162 1.380 1_444 S
C161 C160 1.170 . S
C162 C160 1.380 1_666 S
C162 C163 1.170 . S
C163 C162 1.170 . S
C164 C165 1.170 . S
C164 C166 1.380 . S
C165 C164 1.170 . S
C166 C164 1.380 . S
C166 C167 1.170 . S
C167 C166 1.170 . S
C168 C169 1.170 . S
C168 C170 1.380 1_554 S
C169 C168 1.170 . S
C170 C168 1.380 1_556 S
C170 C171 1.170 . S
C171 C170 1.170 . S
C172 C173 1.170 . S
C172 C174 1.380 1_465 S
C173 C172 1.170 . S
C174 C172 1.380 1_645 S
C174 C175 1.170 . S
C175 C174 1.170 . S
C113 C23 1.655 . S
C115 C11 1.643 . S
C117 C9 1.655 . S
C119 C25 1.643 . S
C121 C51 1.654 . S
C123 C39 1.641 . S
C125 C37 1.657 . S
C127 C53 1.623 . S
C129 C67 1.621 . S
C131 C79 1.657 . S
C133 C81 1.643 . S
C135 C65 1.655 . S
C137 C95 1.641 . S
C139 C107 1.656 . S
C141 C93 1.658 . S
C143 C109 1.622 . S
C145 C5 0.733 . S
C147 C47 0.714 . S
C149 C19 0.771 . S
C151 C33 0.792 . S
C153 C103 0.717 . S
C155 C61 0.747 . S
C157 C89 0.713 . S
C159 C75 0.781 . S
C161 C0 1.545 . S
C163 C56 1.528 . S
C165 C70 1.559 . S
C167 C14 1.526 . S
C169 C84 1.556 . S
C171 C28 1.535 . S
C173 C98 1.524 . S
C175 C42 1.558 . S
