# Generated by pormake.
# Topology rob, (6)-cn, num edge types: 1
# Building blocks:
#     Node 0, Type 0, BuildingBlock: INOVEN_clean_sbu_0, # of connection points: 6
#     Node 1, Type 0, BuildingBlock: INOVEN_clean_sbu_0, # of connection points: 6
#     Node 2, Type 0, BuildingBlock: INOVEN_clean_sbu_0, # of connection points: 6
#     Node 3, Type 0, BuildingBlock: INOVEN_clean_sbu_0, # of connection points: 6
#     Edge 4, Type (0, 0), BuildingBlock: EYOCIG_clean_linker_4, # of connection points: 2
#     Edge 5, Type (0, 0), BuildingBlock: EYOCIG_clean_linker_4, # of connection points: 2
#     Edge 6, Type (0, 0), BuildingBlock: EYOCIG_clean_linker_4, # of connection points: 2
#     Edge 7, Type (0, 0), BuildingBlock: EYOCIG_clean_linker_4, # of connection points: 2
#     Edge 8, Type (0, 0), BuildingBlock: EYOCIG_clean_linker_4, # of connection points: 2
#     Edge 9, Type (0, 0), BuildingBlock: EYOCIG_clean_linker_4, # of connection points: 2
#     Edge 10, Type (0, 0), BuildingBlock: EYOCIG_clean_linker_4, # of connection points: 2
#     Edge 11, Type (0, 0), BuildingBlock: EYOCIG_clean_linker_4, # of connection points: 2
#     Edge 12, Type (0, 0), BuildingBlock: EYOCIG_clean_linker_4, # of connection points: 2
#     Edge 13, Type (0, 0), BuildingBlock: EYOCIG_clean_linker_4, # of connection points: 2
#     Edge 14, Type (0, 0), BuildingBlock: EYOCIG_clean_linker_4, # of connection points: 2
#     Edge 15, Type (0, 0), BuildingBlock: EYOCIG_clean_linker_4, # of connection points: 2
# Relax obj value: 0.187
# Max RMSD: 0.221
# Mean RMSD: 0.221
data_MOF--net-rob--node1-INOVEN_clean_sbu_0--edge1-EYOCIG_clean_linker_4
_symmetry_space_group_name_H-M    P1
_symmetry_Int_Tables_number       1
_symmetry_cell_setting            triclinic
loop_
_symmetry_equiv_pos_as_xyz
'x, y, z'
_cell_length_a     15.290892
_cell_length_b     16.110855
_cell_length_c     30.867214
_cell_angle_alpha  90.005329
_cell_angle_beta   128.66443
_cell_angle_gamma 90.029102
loop_
_atom_site_label
_atom_site_type_symbol
_atom_site_fract_x
_atom_site_fract_y
_atom_site_fract_z
_atom_type_partial_charge
Gd0 Gd 0.15117 0.35319 0.99436 0.0
Gd1 Gd 0.32713 0.25016 0.00093 0.0
C2 C 0.36844 0.27826 0.11306 0.0
C3 C 0.01144 0.4106 0.00749 0.0
C4 C 0.00332 0.41143 0.05274 0.0
C5 C 0.00568 0.48776 0.07548 0.0
C6 C -0.0033 0.33747 0.07482 0.0
C7 C -0.00476 0.41665 0.14125 0.0
C8 C -0.00728 0.34021 0.11885 0.0
C9 C 0.00133 0.49042 0.11934 0.0
C10 C 0.30294 0.44162 0.99704 0.0
C11 C 0.10991 0.32516 0.88222 0.0
C12 C 0.46669 0.19226 0.98781 0.0
C13 C 0.47471 0.19087 0.94252 0.0
C14 C 0.46988 0.11442 0.91917 0.0
C15 C 0.48399 0.26447 0.92109 0.0
C16 C 0.48305 0.18474 0.85409 0.0
C17 C 0.48806 0.26128 0.87709 0.0
C18 C 0.47437 0.1113 0.87536 0.0
C19 C 0.17501 0.16207 -0.00173 0.0
O20 O 0.26368 0.30437 0.0824 0.0
O21 O 0.42002 0.26183 0.09222 0.0
O22 O 0.09315 0.4546 0.01635 0.0
O23 O -0.00261 0.33926 0.98339 0.0
O24 O 0.19901 0.4637 0.96852 0.0
O25 O 0.32355 0.37725 0.02515 0.0
O26 O 0.21463 0.29895 0.91287 0.0
O27 O 0.05836 0.34168 0.90307 0.0
O28 O 0.38514 0.14838 0.97919 0.0
O29 O 0.48072 0.26382 0.01168 0.0
O30 O 0.27893 0.13988 0.02691 0.0
O31 O 0.15489 0.22621 0.97008 0.0
H32 H 0.01267 0.54537 0.05989 0.0
H33 H -0.00425 0.27758 0.05858 0.0
H34 H 0.98837 0.28267 0.13562 0.0
H35 H 0.00371 0.54998 0.13639 0.0
H36 H 0.4609 0.05708 0.93425 0.0
H37 H 0.487 0.32446 0.93782 0.0
H38 H 0.49445 0.31858 0.86084 0.0
H39 H 0.47007 1.05167 0.85785 0.0
Gd40 Gd 0.65097 0.85318 0.99422 0.0
Gd41 Gd 0.82724 0.75026 0.00098 0.0
C42 C 0.86822 0.77847 0.11304 0.0
C43 C 0.51107 0.91056 0.00724 0.0
C44 C 0.50332 0.91191 0.05263 0.0
C45 C 0.50749 0.98839 0.07577 0.0
C46 C 0.49508 0.83825 0.07438 0.0
C47 C 0.49568 0.91798 0.14128 0.0
C48 C 0.49135 0.84141 0.11849 0.0
C49 C 0.50336 0.99147 0.11968 0.0
C50 C 0.80278 0.9417 0.99699 0.0
C51 C 0.61016 0.82514 0.88222 0.0
C52 C 0.96721 0.6925 0.9881 0.0
C53 C 0.97597 0.69161 0.94306 0.0
C54 C 0.97283 0.6153 0.92006 0.0
C55 C 0.98414 0.76551 0.92148 0.0
C56 C 0.98537 0.68633 0.85497 0.0
C57 C 0.98877 0.76274 0.87765 0.0
C58 C 0.97783 0.61261 0.87642 0.0
C59 C 0.67509 0.66207 -0.00175 0.0
O60 O 0.7635 0.80469 0.08234 0.0
O61 O 0.91985 0.76186 0.09225 0.0
O62 O 0.5922 0.95479 0.01567 0.0
O63 O 0.49752 0.83893 0.98354 0.0
O64 O 0.69882 0.96371 0.9684 0.0
O65 O 0.82339 0.87734 0.02512 0.0
O66 O 0.71501 0.79919 0.91296 0.0
O67 O 0.55837 0.84142 0.90297 0.0
O68 O 0.88506 0.64874 0.97896 0.0
O69 O 0.98141 0.76379 0.01227 0.0
O70 O 0.77904 0.63994 0.02694 0.0
O71 O 0.65495 0.72619 0.97005 0.0
H72 H 0.5157 1.04578 0.06043 0.0
H73 H 0.49263 0.77825 0.05783 0.0
H74 H 0.48574 0.78408 0.13499 0.0
H75 H 0.50711 1.05113 0.13703 0.0
H76 H 0.96469 0.55774 0.93527 0.0
H77 H 0.9858 0.82538 0.93794 0.0
H78 H -0.00576 0.82024 0.86125 0.0
H79 H 0.97476 0.55307 0.85915 0.0
Gd80 Gd 0.32714 0.85319 0.50097 0.0
Gd81 Gd 0.15114 0.74995 0.4943 0.0
C82 C 0.10976 0.77832 0.38217 0.0
C83 C 0.4671 0.91091 0.48803 0.0
C84 C 0.47557 0.91221 0.44289 0.0
C85 C 0.47031 0.98857 0.41933 0.0
C86 C 0.48593 0.8386 0.42186 0.0
C87 C 0.48504 0.91812 0.35482 0.0
C88 C 0.49055 0.84168 0.37804 0.0
C89 C 0.47535 0.99157 0.37571 0.0
C90 C 0.17548 0.94145 0.4984 0.0
C91 C 0.36825 0.82509 0.61303 0.0
C92 C 0.01171 0.69185 0.50748 0.0
C93 C 0.00362 0.69105 0.55274 0.0
C94 C 0.00673 0.61478 0.57575 0.0
C95 C -0.00365 0.76501 0.57459 0.0
C96 C -0.00426 0.68597 0.64132 0.0
C97 C -0.00753 0.76234 0.61866 0.0
C98 C 0.00246 0.61219 0.61964 0.0
C99 C 0.30309 0.66202 0.49681 0.0
O100 O 0.2145 0.80459 0.41284 0.0
O101 O 0.05823 0.76163 0.40301 0.0
O102 O 0.38548 0.95482 0.47928 0.0
O103 O 0.48087 0.83941 0.51188 0.0
O104 O 0.27943 0.96357 0.52695 0.0
O105 O 0.15479 0.87712 0.47021 0.0
O106 O 0.26345 0.79896 0.58233 0.0
O107 O 0.41992 0.84153 0.59224 0.0
O108 O 0.09372 0.64824 0.51644 0.0
O109 O -0.00284 0.76309 0.48321 0.0
O110 O 0.19914 0.6398 0.46816 0.0
O111 O 0.32335 0.7261 0.52509 0.0
H112 H 0.46055 1.04591 0.43412 0.0
H113 H 0.48935 0.77868 0.43877 0.0
H114 H 0.49772 0.78437 0.36209 0.0
H115 H 0.47067 1.05113 0.35802 0.0
H116 H 0.01426 0.55718 0.56036 0.0
H117 H -0.00518 0.82486 0.55815 0.0
H118 H 0.98762 0.81989 0.63524 0.0
H119 H 0.00542 0.55268 0.6369 0.0
Gd120 Gd 0.82692 0.35294 0.50099 0.0
Gd121 Gd 0.65088 0.24959 0.49422 0.0
C122 C 0.60983 0.27795 0.38218 0.0
C123 C 0.96694 0.41069 0.48811 0.0
C124 C 0.97556 0.41156 0.44302 0.0
C125 C 0.97207 0.48783 0.41989 0.0
C126 C 0.98393 0.33766 0.42151 0.0
C127 C 0.9847 0.41675 0.35485 0.0
C128 C 0.98843 0.34038 0.37764 0.0
C129 C 0.97695 0.49048 0.37621 0.0
C130 C 0.67507 0.44113 0.4983 0.0
C131 C 0.86777 0.32485 0.61301 0.0
C132 C 0.5112 0.19132 0.50719 0.0
C133 C 0.50281 0.19008 0.55236 0.0
C134 C 0.50816 0.11375 0.57597 0.0
C135 C 0.49265 0.26372 0.57342 0.0
C136 C 0.49381 0.18429 0.64058 0.0
C137 C 0.48825 0.26071 0.61732 0.0
C138 C 0.50333 0.11081 0.61966 0.0
C139 C 0.80312 0.16179 0.4969 0.0
O140 O 0.71461 0.30416 0.41291 0.0
O141 O 0.55816 0.26133 0.40295 0.0
O142 O 0.88495 0.45447 0.47905 0.0
O143 O 0.98102 0.3394 0.51223 0.0
O144 O 0.77901 0.46331 0.52688 0.0
O145 O 0.65448 0.37679 0.47014 0.0
O146 O 0.76304 0.29853 0.58227 0.0
O147 O 0.91948 0.34144 0.59225 0.0
O148 O 0.59311 0.1477 0.51604 0.0
O149 O 0.49693 0.26275 0.48316 0.0
O150 O 0.69918 0.1395 0.46818 0.0
O151 O 0.8232 0.22587 0.52514 0.0
H152 H 0.96378 0.54539 0.43505 0.0
H153 H 0.98586 0.2778 0.43807 0.0
H154 H -0.00593 0.28287 0.36131 0.0
H155 H 0.97363 0.54999 0.35885 0.0
H156 H 0.51784 0.05639 0.56117 0.0
H157 H 0.48921 0.32362 0.55649 0.0
H158 H 0.48122 0.31804 0.6333 0.0
H159 H 0.50806 1.05127 0.63738 0.0
C160 C 0.52679 0.57614 0.99714 0.0
C161 C 0.59287 0.61649 0.99691 0.0
C162 C 0.45077 0.52793 -0.00204 0.0
C163 C 0.38483 0.48746 -0.00176 0.0
C164 C 0.45125 0.57591 0.49798 0.0
C165 C 0.38527 0.61636 0.4982 0.0
C166 C 0.52718 0.52755 0.4972 0.0
C167 C 0.59309 0.487 0.49698 0.0
C168 C 0.02671 0.07619 0.99716 0.0
C169 C 0.0928 0.11651 0.99693 0.0
C170 C 0.95066 1.02799 -0.00204 0.0
C171 C 0.88469 0.98754 -0.00178 0.0
C172 C 0.95156 0.07596 0.49814 0.0
C173 C 0.88543 0.11627 0.49832 0.0
C174 C 0.02763 1.02776 0.49739 0.0
C175 C 0.09359 0.9873 0.49715 0.0
C176 C 0.51108 0.26285 0.27563 0.0
C177 C 0.55132 0.26837 0.32379 0.0
C178 C 0.46731 0.26293 0.2196 0.0
C179 C 0.42703 0.26857 0.17144 0.0
C180 C 0.49189 0.92255 0.22569 0.0
C181 C 0.49366 0.92102 0.18723 0.0
C182 C 0.48993 0.92256 0.27076 0.0
C183 C 0.48765 0.92105 0.30906 0.0
C184 C 0.51126 0.84033 0.77567 0.0
C185 C 0.55164 0.83472 0.82384 0.0
C186 C 0.46726 0.84033 0.7196 0.0
C187 C 0.42685 0.83472 0.67142 0.0
C188 C 0.48923 0.18 0.72475 0.0
C189 C 0.49137 0.18144 0.6864 0.0
C190 C 0.48725 0.18009 0.76981 0.0
C191 C 0.48529 0.18169 0.80821 0.0
C192 C 0.96697 0.76326 0.21957 0.0
C193 C 0.92671 0.76884 0.17141 0.0
C194 C 0.01078 0.76322 0.27561 0.0
C195 C 0.05112 0.76874 0.32377 0.0
C196 C -0.01069 0.42071 0.27068 0.0
C197 C 0.98717 0.41936 0.30903 0.0
C198 C -0.00878 0.42068 0.2256 0.0
C199 C -0.00692 0.4193 0.18716 0.0
C200 C 0.96665 0.3402 0.71956 0.0
C201 C 0.92625 0.33453 0.67138 0.0
C202 C 0.01074 0.34028 0.77564 0.0
C203 C 0.05123 0.33473 0.82383 0.0
C204 C -0.00806 0.68213 0.72574 0.0
C205 C -0.0063 0.68341 0.68727 0.0
C206 C -0.00994 0.68223 0.77084 0.0
C207 C 0.98789 0.68366 0.80918 0.0
loop_
_geom_bond_atom_site_label_1
_geom_bond_atom_site_label_2
_geom_bond_distance
_geom_bond_site_symmetry_2
_ccdc_geom_bond_type
Gd0 C3 2.818 1_556 S
Gd0 O20 2.377 1_556 S
Gd0 O22 2.448 1_556 S
Gd0 O23 2.506 1_556 S
Gd0 O24 2.435 1_556 S
Gd0 O25 2.717 1_556 S
Gd0 O27 2.395 . S
Gd0 O31 2.327 . S
Gd1 C12 2.818 1_554 S
Gd1 O21 2.395 . S
Gd1 O25 2.327 . S
Gd1 O26 2.377 1_554 S
Gd1 O28 2.448 1_554 S
Gd1 O29 2.506 1_554 S
Gd1 O30 2.435 1_554 S
Gd1 O31 2.717 1_554 S
C2 O20 1.240 . S
C2 O21 1.240 . S
C3 Gd0 2.818 1_554 S
C3 C4 1.510 . S
C3 O22 1.249 . S
C3 O23 1.252 . S
C4 C3 1.510 . S
C4 C5 1.404 . S
C4 C6 1.352 . S
C5 C4 1.404 . S
C5 C9 1.389 . S
C5 H32 0.930 . S
C6 C4 1.352 . S
C6 C8 1.374 . S
C6 H33 0.931 . S
C7 C8 1.359 . S
C7 C9 1.364 . S
C8 C6 1.374 . S
C8 C7 1.359 . S
C8 H34 0.931 . S
C9 C5 1.389 . S
C9 C7 1.364 . S
C9 H35 0.931 . S
C10 O24 1.256 . S
C10 O25 1.257 . S
C11 O26 1.240 . S
C11 O27 1.240 . S
C12 Gd1 2.818 1_556 S
C12 C13 1.510 . S
C12 O28 1.249 . S
C12 O29 1.252 . S
C13 C12 1.510 . S
C13 C14 1.404 . S
C13 C15 1.352 . S
C14 C13 1.404 . S
C14 C18 1.389 . S
C14 H36 0.930 . S
C15 C13 1.352 . S
C15 C17 1.374 . S
C15 H37 0.931 . S
C16 C17 1.359 . S
C16 C18 1.364 . S
C17 C15 1.374 . S
C17 C16 1.359 . S
C17 H38 0.931 . S
C18 C14 1.389 . S
C18 C16 1.364 . S
C18 H39 0.931 . S
C19 O30 1.256 . S
C19 O31 1.257 . S
O20 Gd0 2.377 1_554 S
O20 C2 1.240 . S
O21 Gd1 2.395 . S
O21 C2 1.240 . S
O22 Gd0 2.448 1_554 S
O22 C3 1.249 . S
O23 Gd0 2.506 1_554 S
O23 C3 1.252 . S
O24 Gd0 2.435 1_554 S
O24 C10 1.256 . S
O25 Gd0 2.717 1_554 S
O25 Gd1 2.327 . S
O25 C10 1.257 . S
O26 Gd1 2.377 1_556 S
O26 C11 1.240 . S
O27 Gd0 2.395 . S
O27 C11 1.240 . S
O28 Gd1 2.448 1_556 S
O28 C12 1.249 . S
O29 Gd1 2.506 1_556 S
O29 C12 1.252 . S
O30 Gd1 2.435 1_556 S
O30 C19 1.256 . S
O31 Gd0 2.327 . S
O31 Gd1 2.717 1_556 S
O31 C19 1.257 . S
H32 C5 0.930 . S
H33 C6 0.931 . S
H34 C8 0.931 . S
H35 C9 0.931 . S
H36 C14 0.930 . S
H37 C15 0.931 . S
H38 C17 0.931 . S
H39 C18 0.931 . S
Gd40 C43 2.818 1_556 S
Gd40 O60 2.377 1_556 S
Gd40 O62 2.448 1_556 S
Gd40 O63 2.506 1_556 S
Gd40 O64 2.435 1_556 S
Gd40 O65 2.717 1_556 S
Gd40 O67 2.395 . S
Gd40 O71 2.327 . S
Gd41 C52 2.818 1_554 S
Gd41 O61 2.395 . S
Gd41 O65 2.327 . S
Gd41 O66 2.377 1_554 S
Gd41 O68 2.448 1_554 S
Gd41 O69 2.506 1_554 S
Gd41 O70 2.435 1_554 S
Gd41 O71 2.717 1_554 S
C42 O60 1.240 . S
C42 O61 1.240 . S
C43 Gd40 2.818 1_554 S
C43 C44 1.510 . S
C43 O62 1.249 . S
C43 O63 1.252 . S
C44 C43 1.510 . S
C44 C45 1.404 . S
C44 C46 1.352 . S
C45 C44 1.404 . S
C45 C49 1.389 . S
C45 H72 0.930 . S
C46 C44 1.352 . S
C46 C48 1.374 . S
C46 H73 0.931 . S
C47 C48 1.359 . S
C47 C49 1.364 . S
C48 C46 1.374 . S
C48 C47 1.359 . S
C48 H74 0.931 . S
C49 C45 1.389 . S
C49 C47 1.364 . S
C49 H75 0.931 . S
C50 O64 1.256 . S
C50 O65 1.257 . S
C51 O66 1.240 . S
C51 O67 1.240 . S
C52 Gd41 2.818 1_556 S
C52 C53 1.510 . S
C52 O68 1.249 . S
C52 O69 1.252 . S
C53 C52 1.510 . S
C53 C54 1.404 . S
C53 C55 1.352 . S
C54 C53 1.404 . S
C54 C58 1.389 . S
C54 H76 0.930 . S
C55 C53 1.352 . S
C55 C57 1.374 . S
C55 H77 0.931 . S
C56 C57 1.359 . S
C56 C58 1.364 . S
C57 C55 1.374 . S
C57 C56 1.359 . S
C57 H78 0.931 . S
C58 C54 1.389 . S
C58 C56 1.364 . S
C58 H79 0.931 . S
C59 O70 1.256 . S
C59 O71 1.257 . S
O60 Gd40 2.377 1_554 S
O60 C42 1.240 . S
O61 Gd41 2.395 . S
O61 C42 1.240 . S
O62 Gd40 2.448 1_554 S
O62 C43 1.249 . S
O63 Gd40 2.506 1_554 S
O63 C43 1.252 . S
O64 Gd40 2.435 1_554 S
O64 C50 1.256 . S
O65 Gd40 2.717 1_554 S
O65 Gd41 2.327 . S
O65 C50 1.257 . S
O66 Gd41 2.377 1_556 S
O66 C51 1.240 . S
O67 Gd40 2.395 . S
O67 C51 1.240 . S
O68 Gd41 2.448 1_556 S
O68 C52 1.249 . S
O69 Gd41 2.506 1_556 S
O69 C52 1.252 . S
O70 Gd41 2.435 1_556 S
O70 C59 1.256 . S
O71 Gd40 2.327 . S
O71 Gd41 2.717 1_556 S
O71 C59 1.257 . S
H72 C45 0.930 . S
H73 C46 0.931 . S
H74 C48 0.931 . S
H75 C49 0.931 . S
H76 C54 0.930 . S
H77 C55 0.931 . S
H78 C57 0.931 . S
H79 C58 0.931 . S
Gd80 C83 2.818 . S
Gd80 O100 2.377 . S
Gd80 O102 2.448 . S
Gd80 O103 2.506 . S
Gd80 O104 2.435 . S
Gd80 O105 2.717 . S
Gd80 O107 2.395 . S
Gd80 O111 2.327 . S
Gd81 C92 2.818 . S
Gd81 O101 2.395 . S
Gd81 O105 2.327 . S
Gd81 O106 2.377 . S
Gd81 O108 2.448 . S
Gd81 O109 2.506 . S
Gd81 O110 2.435 . S
Gd81 O111 2.717 . S
C82 O100 1.240 . S
C82 O101 1.240 . S
C83 Gd80 2.818 . S
C83 C84 1.510 . S
C83 O102 1.249 . S
C83 O103 1.252 . S
C84 C83 1.510 . S
C84 C85 1.404 . S
C84 C86 1.352 . S
C85 C84 1.404 . S
C85 C89 1.389 . S
C85 H112 0.930 . S
C86 C84 1.352 . S
C86 C88 1.374 . S
C86 H113 0.931 . S
C87 C88 1.359 . S
C87 C89 1.364 . S
C88 C86 1.374 . S
C88 C87 1.359 . S
C88 H114 0.931 . S
C89 C85 1.389 . S
C89 C87 1.364 . S
C89 H115 0.931 . S
C90 O104 1.256 . S
C90 O105 1.257 . S
C91 O106 1.240 . S
C91 O107 1.240 . S
C92 Gd81 2.818 . S
C92 C93 1.510 . S
C92 O108 1.249 . S
C92 O109 1.252 . S
C93 C92 1.510 . S
C93 C94 1.404 . S
C93 C95 1.352 . S
C94 C93 1.404 . S
C94 C98 1.389 . S
C94 H116 0.930 . S
C95 C93 1.352 . S
C95 C97 1.374 . S
C95 H117 0.931 . S
C96 C97 1.359 . S
C96 C98 1.364 . S
C97 C95 1.374 . S
C97 C96 1.359 . S
C97 H118 0.931 . S
C98 C94 1.389 . S
C98 C96 1.364 . S
C98 H119 0.931 . S
C99 O110 1.256 . S
C99 O111 1.257 . S
O100 Gd80 2.377 . S
O100 C82 1.240 . S
O101 Gd81 2.395 . S
O101 C82 1.240 . S
O102 Gd80 2.448 . S
O102 C83 1.249 . S
O103 Gd80 2.506 . S
O103 C83 1.252 . S
O104 Gd80 2.435 . S
O104 C90 1.256 . S
O105 Gd80 2.717 . S
O105 Gd81 2.327 . S
O105 C90 1.257 . S
O106 Gd81 2.377 . S
O106 C91 1.240 . S
O107 Gd80 2.395 . S
O107 C91 1.240 . S
O108 Gd81 2.448 . S
O108 C92 1.249 . S
O109 Gd81 2.506 . S
O109 C92 1.252 . S
O110 Gd81 2.435 . S
O110 C99 1.256 . S
O111 Gd80 2.327 . S
O111 Gd81 2.717 . S
O111 C99 1.257 . S
H112 C85 0.930 . S
H113 C86 0.931 . S
H114 C88 0.931 . S
H115 C89 0.931 . S
H116 C94 0.930 . S
H117 C95 0.931 . S
H118 C97 0.931 . S
H119 C98 0.931 . S
Gd120 C123 2.818 . S
Gd120 O140 2.377 . S
Gd120 O142 2.448 . S
Gd120 O143 2.506 . S
Gd120 O144 2.435 . S
Gd120 O145 2.717 . S
Gd120 O147 2.395 . S
Gd120 O151 2.327 . S
Gd121 C132 2.818 . S
Gd121 O141 2.395 . S
Gd121 O145 2.327 . S
Gd121 O146 2.377 . S
Gd121 O148 2.448 . S
Gd121 O149 2.506 . S
Gd121 O150 2.435 . S
Gd121 O151 2.717 . S
C122 O140 1.240 . S
C122 O141 1.240 . S
C123 Gd120 2.818 . S
C123 C124 1.510 . S
C123 O142 1.249 . S
C123 O143 1.252 . S
C124 C123 1.510 . S
C124 C125 1.404 . S
C124 C126 1.352 . S
C125 C124 1.404 . S
C125 C129 1.389 . S
C125 H152 0.930 . S
C126 C124 1.352 . S
C126 C128 1.374 . S
C126 H153 0.931 . S
C127 C128 1.359 . S
C127 C129 1.364 . S
C128 C126 1.374 . S
C128 C127 1.359 . S
C128 H154 0.931 . S
C129 C125 1.389 . S
C129 C127 1.364 . S
C129 H155 0.931 . S
C130 O144 1.256 . S
C130 O145 1.257 . S
C131 O146 1.240 . S
C131 O147 1.240 . S
C132 Gd121 2.818 . S
C132 C133 1.510 . S
C132 O148 1.249 . S
C132 O149 1.252 . S
C133 C132 1.510 . S
C133 C134 1.404 . S
C133 C135 1.352 . S
C134 C133 1.404 . S
C134 C138 1.389 . S
C134 H156 0.930 . S
C135 C133 1.352 . S
C135 C137 1.374 . S
C135 H157 0.931 . S
C136 C137 1.359 . S
C136 C138 1.364 . S
C137 C135 1.374 . S
C137 C136 1.359 . S
C137 H158 0.931 . S
C138 C134 1.389 . S
C138 C136 1.364 . S
C138 H159 0.931 . S
C139 O150 1.256 . S
C139 O151 1.257 . S
O140 Gd120 2.377 . S
O140 C122 1.240 . S
O141 Gd121 2.395 . S
O141 C122 1.240 . S
O142 Gd120 2.448 . S
O142 C123 1.249 . S
O143 Gd120 2.506 . S
O143 C123 1.252 . S
O144 Gd120 2.435 . S
O144 C130 1.256 . S
O145 Gd120 2.717 . S
O145 Gd121 2.327 . S
O145 C130 1.257 . S
O146 Gd121 2.377 . S
O146 C131 1.240 . S
O147 Gd120 2.395 . S
O147 C131 1.240 . S
O148 Gd121 2.448 . S
O148 C132 1.249 . S
O149 Gd121 2.506 . S
O149 C132 1.252 . S
O150 Gd121 2.435 . S
O150 C139 1.256 . S
O151 Gd120 2.327 . S
O151 Gd121 2.717 . S
O151 C139 1.257 . S
H152 C125 0.930 . S
H153 C126 0.931 . S
H154 C128 0.931 . S
H155 C129 0.931 . S
H156 C134 0.930 . S
H157 C135 0.931 . S
H158 C137 0.931 . S
H159 C138 0.931 . S
C160 C161 1.170 . S
C160 C162 1.380 . S
C161 C160 1.170 . S
C162 C160 1.380 . S
C162 C163 1.170 1_556 S
C163 C162 1.170 1_554 S
C164 C165 1.170 . S
C164 C166 1.380 . S
C165 C164 1.170 . S
C166 C164 1.380 . S
C166 C167 1.170 . S
C167 C166 1.170 . S
C168 C169 1.170 . S
C168 C170 1.380 1_445 S
C169 C168 1.170 . S
C170 C168 1.380 1_665 S
C170 C171 1.170 1_556 S
C171 C170 1.170 1_554 S
C172 C173 1.170 . S
C172 C174 1.380 1_645 S
C173 C172 1.170 . S
C174 C172 1.380 1_465 S
C174 C175 1.170 . S
C175 C174 1.170 . S
C176 C177 1.170 . S
C176 C178 1.380 . S
C177 C176 1.170 . S
C178 C176 1.380 . S
C178 C179 1.170 . S
C179 C178 1.170 . S
C180 C181 1.170 . S
C180 C182 1.380 . S
C181 C180 1.170 . S
C182 C180 1.380 . S
C182 C183 1.170 . S
C183 C182 1.170 . S
C184 C185 1.170 . S
C184 C186 1.380 . S
C185 C184 1.170 . S
C186 C184 1.380 . S
C186 C187 1.170 . S
C187 C186 1.170 . S
C188 C189 1.170 . S
C188 C190 1.380 . S
C189 C188 1.170 . S
C190 C188 1.380 . S
C190 C191 1.170 . S
C191 C190 1.170 . S
C192 C193 1.170 . S
C192 C194 1.380 1_655 S
C193 C192 1.170 . S
C194 C192 1.380 1_455 S
C194 C195 1.170 . S
C195 C194 1.170 . S
C196 C197 1.170 . S
C196 C198 1.380 . S
C197 C196 1.170 . S
C198 C196 1.380 . S
C198 C199 1.170 . S
C199 C198 1.170 . S
C200 C201 1.170 . S
C200 C202 1.380 1_655 S
C201 C200 1.170 . S
C202 C200 1.380 1_455 S
C202 C203 1.170 . S
C203 C202 1.170 . S
C204 C205 1.170 . S
C204 C206 1.380 . S
C205 C204 1.170 . S
C206 C204 1.380 . S
C206 C207 1.170 . S
C207 C206 1.170 . S
C161 C59 1.664 . S
C163 C10 1.653 . S
C165 C99 1.653 . S
C167 C130 1.661 . S
C169 C19 1.664 . S
C171 C50 1.653 . S
C173 C139 1.653 . S
C175 C90 1.661 . S
C177 C122 1.774 . S
C179 C2 1.777 . S
C181 C47 1.158 . S
C183 C87 1.168 . S
C185 C51 1.769 . S
C187 C91 1.779 . S
C189 C136 1.171 . S
C191 C16 1.162 . S
C193 C42 1.771 . S
C195 C82 1.767 . S
C197 C127 1.145 1_455 S
C199 C7 1.136 . S
C201 C131 1.770 . S
C203 C11 1.775 . S
C205 C96 1.138 . S
C207 C56 1.165 1_455 S
