# Generated by pormake.
# Topology can, (4)-cn, num edge types: 1
# Building blocks:
#     Node 0, Type 0, BuildingBlock: GALJAG_clean_sbu_0, # of connection points: 4
#     Node 1, Type 0, BuildingBlock: GALJAG_clean_sbu_0, # of connection points: 4
#     Node 2, Type 0, BuildingBlock: GALJAG_clean_sbu_0, # of connection points: 4
#     Node 3, Type 0, BuildingBlock: GALJAG_clean_sbu_0, # of connection points: 4
#     Node 4, Type 0, BuildingBlock: GALJAG_clean_sbu_0, # of connection points: 4
#     Node 5, Type 0, BuildingBlock: GALJAG_clean_sbu_0, # of connection points: 4
#     Node 6, Type 0, BuildingBlock: GALJAG_clean_sbu_0, # of connection points: 4
#     Node 7, Type 0, BuildingBlock: GALJAG_clean_sbu_0, # of connection points: 4
#     Node 8, Type 0, BuildingBlock: GALJAG_clean_sbu_0, # of connection points: 4
#     Node 9, Type 0, BuildingBlock: GALJAG_clean_sbu_0, # of connection points: 4
#     Node 10, Type 0, BuildingBlock: GALJAG_clean_sbu_0, # of connection points: 4
#     Node 11, Type 0, BuildingBlock: GALJAG_clean_sbu_0, # of connection points: 4
#     Edge 12, Type (0, 0), None
#     Edge 13, Type (0, 0), None
#     Edge 14, Type (0, 0), None
#     Edge 15, Type (0, 0), None
#     Edge 16, Type (0, 0), None
#     Edge 17, Type (0, 0), None
#     Edge 18, Type (0, 0), None
#     Edge 19, Type (0, 0), None
#     Edge 20, Type (0, 0), None
#     Edge 21, Type (0, 0), None
#     Edge 22, Type (0, 0), None
#     Edge 23, Type (0, 0), None
#     Edge 24, Type (0, 0), None
#     Edge 25, Type (0, 0), None
#     Edge 26, Type (0, 0), None
#     Edge 27, Type (0, 0), None
#     Edge 28, Type (0, 0), None
#     Edge 29, Type (0, 0), None
#     Edge 30, Type (0, 0), None
#     Edge 31, Type (0, 0), None
#     Edge 32, Type (0, 0), None
#     Edge 33, Type (0, 0), None
#     Edge 34, Type (0, 0), None
#     Edge 35, Type (0, 0), None
# Relax obj value: 0.108
# Max RMSD: 0.102
# Mean RMSD: 0.102
data_MOF--net-can--node1-GALJAG_clean_sbu_0--edge1-none
_symmetry_space_group_name_H-M    P1
_symmetry_Int_Tables_number       1
_symmetry_cell_setting            triclinic
loop_
_symmetry_equiv_pos_as_xyz
'x, y, z'
_cell_length_a     24.839019
_cell_length_b     24.842363
_cell_length_c     12.511383
_cell_angle_alpha  89.999993
_cell_angle_beta   90.000009
_cell_angle_gamma 120.0163
loop_
_atom_site_label
_atom_site_type_symbol
_atom_site_fract_x
_atom_site_fract_y
_atom_site_fract_z
_atom_type_partial_charge
In0 In 0.02238 0.36692 0.26385 0.0
O1 O 0.12584 0.41126 0.26385 0.0
O2 O 0.07333 0.31161 0.26385 0.0
C3 C 0.02291 0.47586 0.26385 0.0
C4 C -0.02387 0.32199 0.06755 0.0
C5 C -0.02387 0.322 0.46016 0.0
O6 O 0.07214 0.4732 0.26385 0.0
O7 O -0.02646 0.4241 0.26385 0.0
O8 O 0.94344 0.30233 0.37667 0.0
O9 O 0.03209 0.3623 0.4445 0.0
C10 C 0.12613 0.36062 0.26385 0.0
O11 O 0.94344 0.30234 0.15103 0.0
O12 O 0.03209 0.3623 0.0832 0.0
In13 In 0.63056 0.03479 0.76385 0.0
O14 O 0.68965 0.13823 0.76385 0.0
O15 O 0.73684 0.0858 0.76385 0.0
C16 C 0.52213 0.03533 0.76385 0.0
C17 C 0.62925 -0.01146 0.56756 0.0
C18 C 0.62925 -0.01146 0.96014 0.0
O19 O 0.57406 0.08456 0.76385 0.0
O20 O 0.52449 -0.01404 0.76385 0.0
O21 O 0.61616 0.95585 0.87666 0.0
O22 O 0.64495 0.0445 0.9445 0.0
C23 C 0.74061 0.13857 0.76385 0.0
O24 O 0.61616 0.95585 0.65105 0.0
O25 O 0.64495 0.0445 0.5832 0.0
In26 In 0.57091 0.64306 0.26385 0.0
O27 O 0.52654 0.70211 0.26385 0.0
O28 O 0.6262 0.74933 0.26385 0.0
C29 C 0.46193 0.53459 0.26385 0.0
C30 C 0.61585 0.64175 0.06755 0.0
C31 C 0.61585 0.64175 0.46016 0.0
O32 O 0.46461 0.58649 0.26385 0.0
O33 O 0.51369 0.537 0.26385 0.0
O34 O 0.6355 0.62872 0.37667 0.0
O35 O 0.57555 0.6574 0.44451 0.0
C36 C 0.57717 0.75307 0.26385 0.0
O37 O 0.63549 0.62871 0.15104 0.0
O38 O 0.57556 0.6574 0.0832 0.0
In39 In 0.90295 0.5833 0.76385 0.0
O40 O 0.7995 0.53896 0.76385 0.0
O41 O 0.852 0.6386 0.76385 0.0
C42 C 0.90243 0.47435 0.76385 0.0
C43 C 0.9492 0.62822 0.56755 0.0
C44 C 0.9492 0.62822 0.96016 0.0
O45 O 0.85319 0.47702 0.76385 0.0
O46 O 0.9518 0.52611 0.76385 0.0
O47 O -0.01811 0.64789 0.87668 0.0
O48 O 0.89324 0.58792 0.9445 0.0
C49 C 0.7992 0.5896 0.76385 0.0
O50 O -0.0181 0.64788 0.65103 0.0
O51 O 0.89324 0.58792 0.5832 0.0
In52 In 0.29477 0.91543 0.26385 0.0
O53 O 0.30917 -0.00563 0.15105 0.0
O54 O 0.28038 0.90572 0.0832 0.0
C55 C 0.29608 0.96168 0.46015 0.0
C56 C 0.18472 0.81165 0.26385 0.0
C57 C 0.40321 0.91489 0.26385 0.0
O58 O 0.30917 -0.00563 0.37666 0.0
O59 O 0.28038 0.90572 0.4445 0.0
O60 O 0.35127 0.86566 0.26385 0.0
O61 O 0.40084 0.96426 0.26385 0.0
C62 C 0.29608 0.96168 0.06756 0.0
O63 O 0.23568 0.81199 0.26385 0.0
O64 O 0.18849 0.86442 0.26385 0.0
In65 In 0.35442 0.30716 0.76385 0.0
O66 O 0.28984 0.32151 0.65104 0.0
O67 O 0.34978 0.29282 0.5832 0.0
C68 C 0.30949 0.30847 0.96016 0.0
C69 C 0.34816 0.19715 0.76385 0.0
C70 C 0.4634 0.41563 0.76385 0.0
O71 O 0.28984 0.3215 0.87667 0.0
O72 O 0.34978 0.29282 0.94451 0.0
O73 O 0.46072 0.36373 0.76385 0.0
O74 O 0.41164 0.41323 0.76385 0.0
C75 C 0.30949 0.30847 0.56755 0.0
O76 O 0.3988 0.24811 0.76385 0.0
O77 O 0.29914 0.20089 0.76385 0.0
In78 In 0.57087 0.91537 0.26385 0.0
O79 O 0.52652 0.81193 0.26385 0.0
O80 O 0.62618 0.86443 0.26385 0.0
C81 C 0.46192 0.91487 0.26385 0.0
C82 C 0.61577 0.96163 0.46015 0.0
C83 C 0.61577 0.96163 0.06755 0.0
O84 O 0.46458 0.86564 0.26385 0.0
O85 O 0.51369 0.96423 0.26385 0.0
O86 O 0.63548 -0.00569 0.15104 0.0
O87 O 0.57546 0.90568 0.08319 0.0
C88 C 0.57716 0.81164 0.26385 0.0
O89 O 0.63548 -0.0057 0.37666 0.0
O90 O 0.57546 0.90568 0.44451 0.0
In91 In 0.6306 0.58335 0.76385 0.0
O92 O 0.68966 0.53898 0.76385 0.0
O93 O 0.73689 0.63862 0.76385 0.0
C94 C 0.52214 0.47437 0.76385 0.0
C95 C 0.62927 0.62826 0.96014 0.0
C96 C 0.62927 0.62826 0.56756 0.0
O97 O 0.57405 0.47706 0.76385 0.0
O98 O 0.52453 0.52611 0.76385 0.0
O99 O 0.61625 0.64792 0.65106 0.0
O100 O 0.64495 0.588 0.58319 0.0
C101 C 0.74063 0.58961 0.76385 0.0
O102 O 0.61626 0.64792 0.87665 0.0
O103 O 0.64495 0.58799 0.94451 0.0
In104 In 0.02238 0.643 0.26385 0.0
O105 O 0.12583 0.70212 0.26385 0.0
O106 O 0.07335 0.74927 0.26385 0.0
C107 C 0.0229 0.53458 0.26385 0.0
C108 C -0.02389 0.64164 0.46014 0.0
C109 C -0.02389 0.64164 0.06757 0.0
O110 O 0.07214 0.5865 0.26385 0.0
O111 O -0.02647 0.53695 0.26385 0.0
O112 O 0.94343 0.62862 0.15105 0.0
O113 O 0.03208 0.65735 0.0832 0.0
C114 C 0.12614 0.75306 0.26385 0.0
O115 O 0.94343 0.62863 0.37665 0.0
O116 O 0.03208 0.65734 0.44451 0.0
In117 In 0.35446 0.03484 0.76385 0.0
O118 O 0.39881 0.13829 0.76385 0.0
O119 O 0.29915 0.08579 0.76385 0.0
C120 C 0.46341 0.03535 0.76385 0.0
C121 C 0.30956 -0.01141 0.96015 0.0
C122 C 0.30956 -0.01141 0.56755 0.0
O123 O 0.46075 0.08458 0.76385 0.0
O124 O 0.41164 -0.01401 0.76385 0.0
O125 O 0.28985 0.95591 0.65104 0.0
O126 O 0.34987 0.04454 0.58319 0.0
C127 C 0.34817 0.13858 0.76385 0.0
O128 O 0.28984 0.95592 0.87666 0.0
O129 O 0.34987 0.04454 0.94451 0.0
In130 In 0.29473 0.36688 0.26385 0.0
O131 O 0.23567 0.41124 0.26385 0.0
O132 O 0.18844 0.3116 0.26385 0.0
C133 C 0.4032 0.47586 0.26385 0.0
C134 C 0.29607 0.32196 0.46014 0.0
C135 C 0.29607 0.32196 0.06756 0.0
O136 O 0.35128 0.47316 0.26385 0.0
O137 O 0.40081 0.42411 0.26385 0.0
O138 O 0.30908 0.3023 0.15106 0.0
O139 O 0.28038 0.36222 0.08319 0.0
C140 C 0.1847 0.36061 0.26385 0.0
O141 O 0.30908 0.3023 0.37665 0.0
O142 O 0.28039 0.36223 0.44451 0.0
In143 In 0.90296 0.30721 0.76385 0.0
O144 O -0.0181 0.32159 0.87665 0.0
O145 O 0.89325 0.29288 0.94451 0.0
C146 C 0.94922 0.30857 0.56757 0.0
C147 C 0.79919 0.19716 0.76385 0.0
C148 C 0.90243 0.41564 0.76385 0.0
O149 O -0.01809 0.3216 0.65105 0.0
O150 O 0.89325 0.29287 0.5832 0.0
O151 O 0.85319 0.36372 0.76385 0.0
O152 O 0.9518 0.41327 0.76385 0.0
C153 C 0.94922 0.30857 0.96014 0.0
O154 O 0.7995 0.2481 0.76385 0.0
O155 O 0.85198 0.20095 0.76385 0.0
loop_
_geom_bond_atom_site_label_1
_geom_bond_atom_site_label_2
_geom_bond_distance
_geom_bond_site_symmetry_2
_ccdc_geom_bond_type
In0 O1 2.294 . S
In0 O2 2.326 . S
In0 O6 2.266 . S
In0 O7 2.326 1_455 S
In0 O8 2.266 1_455 S
In0 O9 2.326 . S
In0 O11 2.294 1_455 S
In0 O12 2.326 . S
O1 In0 2.294 . S
O1 C10 1.240 . S
O2 In0 2.326 . S
O2 C10 1.252 . S
C3 O6 1.252 . S
C3 O7 1.260 1_455 S
C4 O11 1.240 1_455 S
C4 O12 1.252 . S
C5 O8 1.252 . S
C5 O9 1.260 1_655 S
O6 In0 2.266 . S
O6 C3 1.252 . S
O7 In0 2.326 1_655 S
O7 C3 1.260 1_655 S
O8 In0 2.266 1_655 S
O8 C5 1.252 . S
O9 In0 2.326 . S
O9 C5 1.260 1_455 S
C10 O1 1.240 . S
C10 O2 1.252 . S
O11 In0 2.294 1_655 S
O11 C4 1.240 1_655 S
O12 In0 2.326 . S
O12 C4 1.252 . S
In13 O14 2.294 . S
In13 O15 2.326 . S
In13 O19 2.266 . S
In13 O20 2.326 1_545 S
In13 O21 2.266 1_545 S
In13 O22 2.326 . S
In13 O24 2.294 1_545 S
In13 O25 2.326 . S
O14 In13 2.294 . S
O14 C23 1.240 . S
O15 In13 2.326 . S
O15 C23 1.252 . S
C16 O19 1.252 . S
C16 O20 1.260 1_545 S
C17 O24 1.240 1_545 S
C17 O25 1.252 . S
C18 O21 1.252 . S
C18 O22 1.260 1_565 S
O19 In13 2.266 . S
O19 C16 1.252 . S
O20 In13 2.326 1_565 S
O20 C16 1.260 1_565 S
O21 In13 2.266 1_565 S
O21 C18 1.252 . S
O22 In13 2.326 . S
O22 C18 1.260 1_545 S
C23 O14 1.240 . S
C23 O15 1.252 . S
O24 In13 2.294 1_565 S
O24 C17 1.240 1_565 S
O25 In13 2.326 . S
O25 C17 1.252 . S
In26 O27 2.294 . S
In26 O28 2.326 . S
In26 O32 2.266 . S
In26 O33 2.326 . S
In26 O34 2.266 . S
In26 O35 2.326 . S
In26 O37 2.294 . S
In26 O38 2.326 . S
O27 In26 2.294 . S
O27 C36 1.240 . S
O28 In26 2.326 . S
O28 C36 1.252 . S
C29 O32 1.252 . S
C29 O33 1.260 . S
C30 O37 1.240 . S
C30 O38 1.252 . S
C31 O34 1.252 . S
C31 O35 1.260 . S
O32 In26 2.266 . S
O32 C29 1.252 . S
O33 In26 2.326 . S
O33 C29 1.260 . S
O34 In26 2.266 . S
O34 C31 1.252 . S
O35 In26 2.326 . S
O35 C31 1.260 . S
C36 O27 1.240 . S
C36 O28 1.252 . S
O37 In26 2.294 . S
O37 C30 1.240 . S
O38 In26 2.326 . S
O38 C30 1.252 . S
In39 O40 2.294 . S
In39 O41 2.326 . S
In39 O45 2.266 . S
In39 O46 2.326 1_655 S
In39 O47 2.266 1_655 S
In39 O48 2.326 . S
In39 O50 2.294 1_655 S
In39 O51 2.326 . S
O40 In39 2.294 . S
O40 C49 1.240 . S
O41 In39 2.326 . S
O41 C49 1.252 . S
C42 O45 1.252 . S
C42 O46 1.260 1_655 S
C43 O50 1.240 1_655 S
C43 O51 1.252 . S
C44 O47 1.252 . S
C44 O48 1.260 1_455 S
O45 In39 2.266 . S
O45 C42 1.252 . S
O46 In39 2.326 1_455 S
O46 C42 1.260 1_455 S
O47 In39 2.266 1_455 S
O47 C44 1.252 . S
O48 In39 2.326 . S
O48 C44 1.260 1_655 S
C49 O40 1.240 . S
C49 O41 1.252 . S
O50 In39 2.294 1_455 S
O50 C43 1.240 1_455 S
O51 In39 2.326 . S
O51 C43 1.252 . S
In52 O53 2.294 1_565 S
In52 O54 2.326 . S
In52 O58 2.266 1_565 S
In52 O59 2.326 . S
In52 O60 2.266 . S
In52 O61 2.326 1_565 S
In52 O63 2.294 . S
In52 O64 2.326 . S
O53 In52 2.294 1_545 S
O53 C62 1.240 1_545 S
O54 In52 2.326 . S
O54 C62 1.252 . S
C55 O58 1.252 . S
C55 O59 1.260 1_545 S
C56 O63 1.240 . S
C56 O64 1.252 . S
C57 O60 1.252 . S
C57 O61 1.260 1_565 S
O58 In52 2.266 1_545 S
O58 C55 1.252 . S
O59 In52 2.326 . S
O59 C55 1.260 1_565 S
O60 In52 2.266 . S
O60 C57 1.252 . S
O61 In52 2.326 1_545 S
O61 C57 1.260 1_545 S
C62 O53 1.240 1_565 S
C62 O54 1.252 . S
O63 In52 2.294 . S
O63 C56 1.240 . S
O64 In52 2.326 . S
O64 C56 1.252 . S
In65 O66 2.294 . S
In65 O67 2.326 . S
In65 O71 2.266 . S
In65 O72 2.326 . S
In65 O73 2.266 . S
In65 O74 2.326 . S
In65 O76 2.294 . S
In65 O77 2.326 . S
O66 In65 2.294 . S
O66 C75 1.240 . S
O67 In65 2.326 . S
O67 C75 1.252 . S
C68 O71 1.252 . S
C68 O72 1.260 . S
C69 O76 1.240 . S
C69 O77 1.252 . S
C70 O73 1.252 . S
C70 O74 1.260 . S
O71 In65 2.266 . S
O71 C68 1.252 . S
O72 In65 2.326 . S
O72 C68 1.260 . S
O73 In65 2.266 . S
O73 C70 1.252 . S
O74 In65 2.326 . S
O74 C70 1.260 . S
C75 O66 1.240 . S
C75 O67 1.252 . S
O76 In65 2.294 . S
O76 C69 1.240 . S
O77 In65 2.326 . S
O77 C69 1.252 . S
In78 O79 2.294 . S
In78 O80 2.326 . S
In78 O84 2.266 . S
In78 O85 2.326 1_565 S
In78 O86 2.266 1_565 S
In78 O87 2.326 . S
In78 O89 2.294 1_565 S
In78 O90 2.326 . S
O79 In78 2.294 . S
O79 C88 1.240 . S
O80 In78 2.326 . S
O80 C88 1.252 . S
C81 O84 1.252 . S
C81 O85 1.260 1_565 S
C82 O89 1.240 1_565 S
C82 O90 1.252 . S
C83 O86 1.252 . S
C83 O87 1.260 1_545 S
O84 In78 2.266 . S
O84 C81 1.252 . S
O85 In78 2.326 1_545 S
O85 C81 1.260 1_545 S
O86 In78 2.266 1_545 S
O86 C83 1.252 . S
O87 In78 2.326 . S
O87 C83 1.260 1_565 S
C88 O79 1.240 . S
C88 O80 1.252 . S
O89 In78 2.294 1_545 S
O89 C82 1.240 1_545 S
O90 In78 2.326 . S
O90 C82 1.252 . S
In91 O92 2.294 . S
In91 O93 2.326 . S
In91 O97 2.266 . S
In91 O98 2.326 . S
In91 O99 2.266 . S
In91 O100 2.326 . S
In91 O102 2.294 . S
In91 O103 2.326 . S
O92 In91 2.294 . S
O92 C101 1.240 . S
O93 In91 2.326 . S
O93 C101 1.252 . S
C94 O97 1.252 . S
C94 O98 1.260 . S
C95 O102 1.240 . S
C95 O103 1.252 . S
C96 O99 1.252 . S
C96 O100 1.260 . S
O97 In91 2.266 . S
O97 C94 1.252 . S
O98 In91 2.326 . S
O98 C94 1.260 . S
O99 In91 2.266 . S
O99 C96 1.252 . S
O100 In91 2.326 . S
O100 C96 1.260 . S
C101 O92 1.240 . S
C101 O93 1.252 . S
O102 In91 2.294 . S
O102 C95 1.240 . S
O103 In91 2.326 . S
O103 C95 1.252 . S
In104 O105 2.294 . S
In104 O106 2.326 . S
In104 O110 2.266 . S
In104 O111 2.326 1_455 S
In104 O112 2.266 1_455 S
In104 O113 2.326 . S
In104 O115 2.294 1_455 S
In104 O116 2.326 . S
O105 In104 2.294 . S
O105 C114 1.240 . S
O106 In104 2.326 . S
O106 C114 1.252 . S
C107 O110 1.252 . S
C107 O111 1.260 1_455 S
C108 O115 1.240 1_455 S
C108 O116 1.252 . S
C109 O112 1.252 . S
C109 O113 1.260 1_655 S
O110 In104 2.266 . S
O110 C107 1.252 . S
O111 In104 2.326 1_655 S
O111 C107 1.260 1_655 S
O112 In104 2.266 1_655 S
O112 C109 1.252 . S
O113 In104 2.326 . S
O113 C109 1.260 1_455 S
C114 O105 1.240 . S
C114 O106 1.252 . S
O115 In104 2.294 1_655 S
O115 C108 1.240 1_655 S
O116 In104 2.326 . S
O116 C108 1.252 . S
In117 O118 2.294 . S
In117 O119 2.326 . S
In117 O123 2.266 . S
In117 O124 2.326 1_545 S
In117 O125 2.266 1_545 S
In117 O126 2.326 . S
In117 O128 2.294 1_545 S
In117 O129 2.326 . S
O118 In117 2.294 . S
O118 C127 1.240 . S
O119 In117 2.326 . S
O119 C127 1.252 . S
C120 O123 1.252 . S
C120 O124 1.260 1_545 S
C121 O128 1.240 1_545 S
C121 O129 1.252 . S
C122 O125 1.252 . S
C122 O126 1.260 1_565 S
O123 In117 2.266 . S
O123 C120 1.252 . S
O124 In117 2.326 1_565 S
O124 C120 1.260 1_565 S
O125 In117 2.266 1_565 S
O125 C122 1.252 . S
O126 In117 2.326 . S
O126 C122 1.260 1_545 S
C127 O118 1.240 . S
C127 O119 1.252 . S
O128 In117 2.294 1_565 S
O128 C121 1.240 1_565 S
O129 In117 2.326 . S
O129 C121 1.252 . S
In130 O131 2.294 . S
In130 O132 2.326 . S
In130 O136 2.266 . S
In130 O137 2.326 . S
In130 O138 2.266 . S
In130 O139 2.326 . S
In130 O141 2.294 . S
In130 O142 2.326 . S
O131 In130 2.294 . S
O131 C140 1.240 . S
O132 In130 2.326 . S
O132 C140 1.252 . S
C133 O136 1.252 . S
C133 O137 1.260 . S
C134 O141 1.240 . S
C134 O142 1.252 . S
C135 O138 1.252 . S
C135 O139 1.260 . S
O136 In130 2.266 . S
O136 C133 1.252 . S
O137 In130 2.326 . S
O137 C133 1.260 . S
O138 In130 2.266 . S
O138 C135 1.252 . S
O139 In130 2.326 . S
O139 C135 1.260 . S
C140 O131 1.240 . S
C140 O132 1.252 . S
O141 In130 2.294 . S
O141 C134 1.240 . S
O142 In130 2.326 . S
O142 C134 1.252 . S
In143 O144 2.294 1_655 S
In143 O145 2.326 . S
In143 O149 2.266 1_655 S
In143 O150 2.326 . S
In143 O151 2.266 . S
In143 O152 2.326 1_655 S
In143 O154 2.294 . S
In143 O155 2.326 . S
O144 In143 2.294 1_455 S
O144 C153 1.240 1_455 S
O145 In143 2.326 . S
O145 C153 1.252 . S
C146 O149 1.252 . S
C146 O150 1.260 1_455 S
C147 O154 1.240 . S
C147 O155 1.252 . S
C148 O151 1.252 . S
C148 O152 1.260 1_655 S
O149 In143 2.266 1_455 S
O149 C146 1.252 . S
O150 In143 2.326 . S
O150 C146 1.260 1_655 S
O151 In143 2.266 . S
O151 C148 1.252 . S
O152 In143 2.326 1_455 S
O152 C148 1.260 1_455 S
C153 O144 1.240 1_655 S
C153 O145 1.252 . S
O154 In143 2.294 . S
O154 C147 1.240 . S
O155 In143 2.326 . S
O155 C147 1.252 . S
C4 C153 1.507 1_454 S
C82 C17 1.507 1_565 S
C30 C95 1.507 1_554 S
C108 C43 1.507 1_455 S
C121 C62 1.507 1_546 S
C134 C75 1.507 . S
C44 C109 1.566 1_456 S
C55 C122 1.566 1_545 S
C68 C135 1.566 1_556 S
C146 C5 1.566 1_455 S
C18 C83 1.566 1_566 S
C31 C96 1.566 . S
C107 C3 1.816 . S
C120 C16 1.816 . S
C29 C133 1.816 . S
C42 C148 1.816 . S
C57 C81 1.816 . S
C94 C70 1.816 . S
C10 C140 1.834 . S
C147 C23 1.834 . S
C36 C88 1.834 . S
C49 C101 1.834 . S
C56 C114 1.834 . S
C69 C127 1.834 . S
