# Generated by pormake.
# Topology pcu, (6)-cn, num edge types: 1
# Building blocks:
#     Node 0, Type 0, BuildingBlock: VOLQOD_clean_sbu_1, # of connection points: 6
#     Edge 1, Type (0, 0), BuildingBlock: KIFKEQ_clean_linker_1, # of connection points: 2
#     Edge 2, Type (0, 0), BuildingBlock: KIFKEQ_clean_linker_1, # of connection points: 2
#     Edge 3, Type (0, 0), BuildingBlock: KIFKEQ_clean_linker_1, # of connection points: 2
# Relax obj value: 0.082
# Max RMSD: 0.143
# Mean RMSD: 0.143
data_MOF--net-pcu--node1-VOLQOD_clean_sbu_1--edge1-KIFKEQ_clean_linker_1
_symmetry_space_group_name_H-M    P1
_symmetry_Int_Tables_number       1
_symmetry_cell_setting            triclinic
loop_
_symmetry_equiv_pos_as_xyz
'x, y, z'
_cell_length_a     17.506561
_cell_length_b     17.505495
_cell_length_c     17.508816
_cell_angle_alpha  90.820203
_cell_angle_beta   89.925463
_cell_angle_gamma 91.203818
loop_
_atom_site_label
_atom_site_type_symbol
_atom_site_fract_x
_atom_site_fract_y
_atom_site_fract_z
_atom_type_partial_charge
O0 O 0.0292 0.02695 0.17007 0.0
Zn1 Zn 0.04788 0.04793 0.05849 0.0
O2 O 0.98266 -0.01808 0.99341 0.0
Zn3 Zn 0.0465 0.91772 0.92803 0.0
Zn4 Zn 0.91719 0.91691 0.05733 0.0
Zn5 Zn 0.91875 0.04513 0.92934 0.0
O6 O 0.02903 0.93848 0.81641 0.0
O7 O 0.93602 0.02279 0.81756 0.0
O8 O 0.15953 0.03024 0.03727 0.0
O9 O 0.15818 0.93672 0.95018 0.0
O10 O 0.02411 0.80593 0.94539 0.0
O11 O 0.93807 0.80531 0.03871 0.0
O12 O 0.80551 0.93384 0.03635 0.0
O13 O 0.02773 0.15951 0.04082 0.0
O14 O 0.80704 0.02694 0.95151 0.0
O15 O 0.94187 0.15694 0.94751 0.0
C16 C 0.98228 -0.01672 0.2052 0.0
C17 C 0.98243 0.98048 0.78133 0.0
C18 C 0.981 0.76997 0.99191 0.0
C19 C 0.1945 -0.01649 -0.00612 0.0
C20 C 0.77062 0.98038 -0.00589 0.0
C21 C -0.01488 0.19388 -0.00596 0.0
O22 O 0.93555 0.93936 0.16906 0.0
H23 H 0.09423 0.03755 0.30168 0.0
H24 H 0.87027 0.92873 0.3 0.0
H25 H 0.09435 0.0362 0.44128 0.0
H26 H 0.87043 0.92822 0.43953 0.0
H27 H 0.87034 0.03018 0.68681 0.0
H28 H 0.87042 0.03061 0.54728 0.0
H29 H 0.09442 0.93221 0.54501 0.0
H30 H 0.09437 0.93092 0.68462 0.0
C31 C 0.04498 0.01359 0.33103 0.0
C32 C 0.98224 -0.01678 0.28976 0.0
C33 C 0.0453 0.01247 0.41085 0.0
C34 C 0.98241 -0.01789 0.45099 0.0
C35 C 0.91942 0.95239 0.40989 0.0
C36 C 0.91956 0.95239 0.33008 0.0
C37 C 0.91963 0.00861 0.65662 0.0
C38 C 0.98235 0.98048 0.69679 0.0
C39 C 0.91944 0.00855 0.5768 0.0
C40 C 0.98243 0.98151 0.53556 0.0
C41 C 0.04536 0.95386 0.57556 0.0
C42 C 0.04509 0.95276 0.65538 0.0
H43 H 0.28757 0.87107 0.94094 0.0
H44 H 0.29268 0.095 0.04837 0.0
H45 H 0.42708 0.87026 0.94227 0.0
H46 H 0.4323 0.09415 0.04885 0.0
H47 H 0.67775 0.09289 0.9445 0.0
H48 H 0.53823 0.09369 0.94568 0.0
H49 H 0.53263 0.86966 0.04558 0.0
H50 H 0.67228 0.86884 0.04526 0.0
C51 C 0.3184 0.92017 0.96465 0.0
C52 C 0.27904 -0.01686 -0.00548 0.0
C53 C 0.39819 0.91944 0.96577 0.0
C54 C 0.44027 -0.01788 -0.00435 0.0
C55 C 0.40112 0.0453 0.02506 0.0
C56 C 0.32127 0.04557 0.02507 0.0
C57 C 0.64683 0.04376 0.96671 0.0
C58 C 0.68608 0.98076 -0.00525 0.0
C59 C 0.56704 0.04449 0.96776 0.0
C60 C 0.52485 -0.01825 -0.00429 0.0
C61 C 0.5639 0.91854 0.02329 0.0
C62 C 0.64376 0.91829 0.02341 0.0
H63 H 0.03396 0.67398 0.88025 0.0
H64 H 0.92942 0.67473 0.10407 0.0
H65 H 0.03542 0.53445 0.88098 0.0
H66 H 0.93173 0.53518 0.10476 0.0
H67 H 0.03728 0.29273 0.10567 0.0
H68 H 0.03612 0.43241 0.10524 0.0
H69 H 0.93338 0.42578 0.88122 0.0
H70 H 0.93371 0.2863 0.88161 0.0
C71 C 0.01143 0.64444 0.92962 0.0
C72 C 0.98148 0.68543 0.99207 0.0
C73 C 0.012 0.56463 0.92982 0.0
C74 C -0.01622 0.52424 0.99295 0.0
C75 C 0.95434 0.56506 0.05563 0.0
C76 C 0.95263 0.64485 0.05496 0.0
C77 C 0.01455 0.32105 0.05628 0.0
C78 C -0.01447 0.27844 -0.0063 0.0
C79 C 0.01354 0.4009 0.05627 0.0
C80 C -0.01534 0.43967 0.9932 0.0
C81 C 0.95641 0.39722 0.93034 0.0
C82 C 0.95629 0.31742 0.93081 0.0
loop_
_geom_bond_atom_site_label_1
_geom_bond_atom_site_label_2
_geom_bond_distance
_geom_bond_site_symmetry_2
_ccdc_geom_bond_type
O0 Zn1 1.953 . S
O0 C16 1.225 . S
Zn1 O0 1.953 . S
Zn1 O2 1.940 1_454 S
Zn1 O8 1.919 . S
Zn1 O13 1.924 . S
O2 Zn1 1.940 1_656 S
O2 Zn3 1.932 1_645 S
O2 Zn4 1.941 1_546 S
O2 Zn5 1.953 . S
Zn3 O2 1.932 1_465 S
Zn3 O6 1.933 . S
Zn3 O9 1.941 . S
Zn3 O10 1.965 . S
Zn4 O2 1.941 1_564 S
Zn4 O11 1.938 . S
Zn4 O12 1.906 . S
Zn4 O22 1.953 . S
Zn5 O2 1.953 . S
Zn5 O7 1.932 . S
Zn5 O14 1.977 . S
Zn5 O15 1.910 . S
O6 Zn3 1.933 . S
O6 C17 1.231 . S
O7 Zn5 1.932 . S
O7 C17 1.302 1_645 S
O8 Zn1 1.919 . S
O8 C19 1.253 1_544 S
O9 Zn3 1.941 . S
O9 C19 1.283 . S
O10 Zn3 1.965 . S
O10 C18 1.303 1_456 S
O11 Zn4 1.938 . S
O11 C18 1.247 . S
O12 Zn4 1.906 . S
O12 C20 1.304 1_564 S
O13 Zn1 1.924 . S
O13 C21 1.311 . S
O14 Zn5 1.977 . S
O14 C20 1.272 . S
O15 Zn5 1.910 . S
O15 C21 1.231 1_656 S
C16 O0 1.225 . S
C16 O22 1.298 1_445 S
C17 O6 1.231 . S
C17 O7 1.302 1_465 S
C18 O10 1.303 1_654 S
C18 O11 1.247 . S
C19 O8 1.253 1_566 S
C19 O9 1.283 . S
C20 O12 1.304 1_546 S
C20 O14 1.272 . S
C21 O13 1.311 . S
C21 O15 1.231 1_454 S
O22 Zn4 1.953 . S
O22 C16 1.298 1_665 S
H23 C31 0.950 . S
H24 C36 0.950 . S
H25 C33 0.950 . S
H26 C35 0.950 . S
H27 C37 0.950 . S
H28 C39 0.950 . S
H29 C41 0.950 . S
H30 C42 0.950 . S
C31 H23 0.950 . S
C31 C32 1.386 1_565 S
C31 C33 1.391 . S
C32 C31 1.386 1_545 S
C32 C36 1.393 1_455 S
C33 H25 0.950 . S
C33 C31 1.391 . S
C33 C34 1.400 1_565 S
C34 C33 1.400 1_545 S
C34 C35 1.398 1_455 S
C34 C40 1.491 . S
C35 H26 0.950 . S
C35 C34 1.398 1_655 S
C35 C36 1.391 . S
C36 H24 0.950 . S
C36 C32 1.393 1_655 S
C36 C35 1.391 . S
C37 H27 0.950 . S
C37 C38 1.397 . S
C37 C39 1.391 . S
C38 C37 1.397 . S
C38 C42 1.381 1_645 S
C39 H28 0.950 . S
C39 C37 1.391 . S
C39 C40 1.400 1_655 S
C40 C34 1.491 . S
C40 C39 1.400 1_455 S
C40 C41 1.398 1_545 S
C41 H29 0.950 . S
C41 C40 1.398 1_565 S
C41 C42 1.391 . S
C42 H30 0.950 . S
C42 C38 1.381 1_465 S
C42 C41 1.391 . S
H43 C51 0.950 1_554 S
H44 C56 0.950 . S
H45 C53 0.950 1_554 S
H46 C55 0.950 . S
H47 C57 0.950 . S
H48 C59 0.950 . S
H49 C61 0.950 . S
H50 C62 0.950 . S
C51 H43 0.950 1_556 S
C51 C52 1.386 . S
C51 C53 1.391 . S
C52 C51 1.386 . S
C52 C56 1.393 1_565 S
C53 H45 0.950 1_556 S
C53 C51 1.391 . S
C53 C54 1.400 . S
C54 C53 1.400 . S
C54 C55 1.398 1_565 S
C54 C60 1.491 . S
C55 H46 0.950 . S
C55 C54 1.398 1_545 S
C55 C56 1.391 . S
C56 H44 0.950 . S
C56 C52 1.393 1_545 S
C56 C55 1.391 . S
C57 H47 0.950 . S
C57 C58 1.386 1_545 S
C57 C59 1.391 . S
C58 C57 1.386 1_565 S
C58 C62 1.393 1_556 S
C59 H48 0.950 . S
C59 C57 1.391 . S
C59 C60 1.400 1_545 S
C60 C54 1.491 . S
C60 C59 1.400 1_565 S
C60 C61 1.398 1_556 S
C61 H49 0.950 . S
C61 C60 1.398 1_554 S
C61 C62 1.391 . S
C62 H50 0.950 . S
C62 C58 1.393 1_554 S
C62 C61 1.391 . S
H63 C71 0.950 . S
H64 C76 0.950 . S
H65 C73 0.950 . S
H66 C75 0.950 . S
H67 C77 0.950 . S
H68 C79 0.950 . S
H69 C81 0.950 . S
H70 C82 0.950 . S
C71 H63 0.950 . S
C71 C72 1.386 1_656 S
C71 C73 1.391 . S
C72 C71 1.386 1_454 S
C72 C76 1.393 . S
C73 H65 0.950 . S
C73 C71 1.391 . S
C73 C74 1.400 1_656 S
C74 C73 1.400 1_454 S
C74 C75 1.398 . S
C74 C80 1.491 . S
C75 H66 0.950 . S
C75 C74 1.398 . S
C75 C76 1.391 . S
C76 H64 0.950 . S
C76 C72 1.393 . S
C76 C75 1.391 . S
C77 H67 0.950 . S
C77 C78 1.386 1_455 S
C77 C79 1.391 . S
C78 C77 1.386 1_655 S
C78 C82 1.393 1_554 S
C79 H68 0.950 . S
C79 C77 1.391 . S
C79 C80 1.401 . S
C80 C74 1.491 . S
C80 C79 1.401 . S
C80 C81 1.397 1_454 S
C81 H69 0.950 . S
C81 C80 1.397 1_656 S
C81 C82 1.391 . S
C82 H70 0.950 . S
C82 C78 1.393 1_556 S
C82 C81 1.391 . S
C32 C16 1.498 . S
C38 C17 1.496 1_645 S
C52 C19 1.444 . S
C58 C20 1.435 1_565 S
C72 C18 1.436 1_455 S
C78 C21 1.446 1_655 S
