# Generated by pormake.
# Topology bcu, (8)-cn, num edge types: 1
# Building blocks:
#     Node 0, Type 0, BuildingBlock: GIZVER_clean_sbu_0, # of connection points: 8
#     Node 1, Type 0, BuildingBlock: GIZVER_clean_sbu_0, # of connection points: 8
#     Edge 2, Type (0, 0), BuildingBlock: EYOCIG_clean_linker_4, # of connection points: 2
#     Edge 3, Type (0, 0), BuildingBlock: EYOCIG_clean_linker_4, # of connection points: 2
#     Edge 4, Type (0, 0), BuildingBlock: EYOCIG_clean_linker_4, # of connection points: 2
#     Edge 5, Type (0, 0), BuildingBlock: EYOCIG_clean_linker_4, # of connection points: 2
#     Edge 6, Type (0, 0), BuildingBlock: EYOCIG_clean_linker_4, # of connection points: 2
#     Edge 7, Type (0, 0), BuildingBlock: EYOCIG_clean_linker_4, # of connection points: 2
#     Edge 8, Type (0, 0), BuildingBlock: EYOCIG_clean_linker_4, # of connection points: 2
#     Edge 9, Type (0, 0), BuildingBlock: EYOCIG_clean_linker_4, # of connection points: 2
# Relax obj value: 0.002
# Max RMSD: 0.029
# Mean RMSD: 0.029
data_MOF--net-bcu--node1-GIZVER_clean_sbu_0--edge1-EYOCIG_clean_linker_4
_symmetry_space_group_name_H-M    P1
_symmetry_Int_Tables_number       1
_symmetry_cell_setting            triclinic
loop_
_symmetry_equiv_pos_as_xyz
'x, y, z'
_cell_length_a     19.391621
_cell_length_b     19.160076
_cell_length_c     11.018074
_cell_angle_alpha  90.014578
_cell_angle_beta   95.452838
_cell_angle_gamma 113.69785
loop_
_atom_site_label
_atom_site_type_symbol
_atom_site_fract_x
_atom_site_fract_y
_atom_site_fract_z
_atom_type_partial_charge
Co0 Co 0.08021 0.94579 0.9192 0.0
Co1 Co 0.07803 0.97533 0.14475 0.0
Co2 Co 0.00683 0.07443 0.98645 0.0
O3 O 0.08674 1.03379 0.01049 0.0
H4 H 0.13703 1.07406 0.01581 0.0
O5 O 0.92691 0.11505 0.96219 0.0
Co6 Co 0.93317 0.20313 0.05286 0.0
Co7 Co 0.93589 0.17339 0.8276 0.0
H8 H 0.87663 0.07476 0.95676 0.0
O9 O 0.1634 0.97685 0.22939 0.0
O10 O 0.0894 0.89419 0.07451 0.0
O11 O 0.98374 0.93641 0.21269 0.0
O12 O 0.93091 0.99539 0.08447 0.0
O13 O 0.05542 0.1427 0.13355 0.0
O14 O 0.93101 0.28083 0.13771 0.0
O15 O 0.8324 0.17401 0.06184 0.0
O16 O 0.04085 0.2446 0.06116 0.0
O17 O 0.08285 0.15346 0.88864 0.0
O18 O 0.03034 0.21255 0.76019 0.0
O19 O 0.92432 0.25455 0.89715 0.0
O20 O 0.85069 0.17167 0.74222 0.0
C21 C 0.15444 0.90932 0.84867 0.0
C22 C 0.93417 0.93428 0.84809 0.0
C23 C 0.92697 0.94783 0.16761 0.0
C24 C 0.14678 0.91659 0.15936 0.0
C25 C 0.85871 0.2397 0.12234 0.0
C26 C 0.07928 0.21462 0.12489 0.0
C27 C 0.08702 0.20113 0.80562 0.0
C28 C 0.86717 0.23206 0.81186 0.0
O29 O 0.08213 0.86819 0.83376 0.0
O30 O 0.18089 0.97494 0.9094 0.0
O31 O 0.95818 1.00619 0.8393 0.0
O32 O 0.97259 0.90427 0.91171 0.0
Co33 Co 0.5801 0.44561 0.41967 0.0
Co34 Co 0.57718 0.47443 0.64486 0.0
Co35 Co 0.50684 0.57443 0.48644 0.0
O36 O 0.58646 0.53344 0.5113 0.0
H37 H 0.63681 0.57363 0.51721 0.0
O38 O 0.42719 0.61539 0.46135 0.0
Co39 Co 0.43326 0.70328 0.55235 0.0
Co40 Co 0.43674 0.67427 0.32745 0.0
H41 H 0.37685 0.57517 0.45532 0.0
O42 O 0.66233 0.47616 0.73053 0.0
O43 O 0.58931 0.39374 0.57467 0.0
O44 O 0.48251 0.43527 0.71144 0.0
O45 O 0.43069 0.49609 0.58511 0.0
O46 O 0.55571 0.64318 0.63294 0.0
O47 O 0.4309 0.78077 0.63754 0.0
O48 O 0.33245 0.67394 0.5613 0.0
O49 O 0.54093 0.74498 0.56055 0.0
O50 O 0.58307 0.65275 0.38795 0.0
O51 O 0.53157 0.71368 0.2614 0.0
O52 O 0.42441 0.75499 0.39694 0.0
O53 O 0.35176 0.67235 0.24104 0.0
C54 C 0.65452 0.40949 0.34892 0.0
C55 C 0.43384 0.43387 0.3491 0.0
C56 C 0.42621 0.44784 0.66733 0.0
C57 C 0.64637 0.41621 0.66011 0.0
C58 C 0.35862 0.73953 0.62204 0.0
C59 C 0.57961 0.71506 0.62378 0.0
C60 C 0.58778 0.7011 0.30586 0.0
C61 C 0.36758 0.73243 0.31107 0.0
O62 O 0.58223 0.36824 0.33388 0.0
O63 O 0.68084 0.47502 0.4099 0.0
O64 O 0.45797 0.50574 0.33988 0.0
O65 O 0.47243 0.40384 0.41226 0.0
C66 C 0.21897 0.30092 0.21461 0.0
C67 C 0.15518 0.2614 0.1737 0.0
C68 C 0.29394 0.34727 0.26082 0.0
C69 C 0.35779 0.38718 0.30089 0.0
C70 C 0.77487 0.30363 0.20981 0.0
C71 C 0.80894 0.27039 0.16727 0.0
C72 C 0.73835 0.34597 0.26023 0.0
C73 C 0.70428 0.37904 0.30331 0.0
C74 C 0.79295 0.8517 0.22356 0.0
C75 C 0.85353 0.89621 0.19669 0.0
C76 C 0.72231 0.79649 0.25075 0.0
C77 C 0.66158 0.7522 0.27742 0.0
C78 C 0.23202 0.84112 0.21369 0.0
C79 C 0.19051 0.87216 0.183 0.0
C80 C 0.28211 0.80747 0.25504 0.0
C81 C 0.32362 0.77652 0.28637 0.0
C82 C 0.23806 0.84551 0.7601 0.0
C83 C 0.20406 0.87868 0.8031 0.0
C84 C 0.27458 0.80317 0.70966 0.0
C85 C 0.30872 0.77003 0.66703 0.0
C86 C 0.29189 0.35256 0.72341 0.0
C87 C 0.35253 0.39678 0.69634 0.0
C88 C 0.22124 0.29735 0.75062 0.0
C89 C 0.16058 0.25279 0.77708 0.0
C90 C 0.78211 0.30755 0.75615 0.0
C91 C 0.82351 0.27647 0.78739 0.0
C92 C 0.73202 0.3412 0.71479 0.0
C93 C 0.6904 0.3721 0.68399 0.0
C94 C 0.71942 0.80168 0.71248 0.0
C95 C 0.65559 0.76192 0.6721 0.0
C96 C 0.79439 0.84802 0.75873 0.0
C97 C 0.85821 0.88757 0.79944 0.0
loop_
_geom_bond_atom_site_label_1
_geom_bond_atom_site_label_2
_geom_bond_distance
_geom_bond_site_symmetry_2
_ccdc_geom_bond_type
Co0 O3 2.042 1_556 S
Co0 O10 2.264 1_556 S
Co0 O29 2.286 . S
Co0 O30 2.069 . S
Co0 O32 2.015 1_455 S
Co1 O3 2.122 . S
Co1 O9 2.073 . S
Co1 O10 2.327 . S
Co1 O11 1.976 1_455 S
Co2 O3 2.087 1_545 S
Co2 O5 2.087 1_454 S
Co2 O12 2.111 1_445 S
Co2 O13 2.143 . S
Co2 O17 2.111 1_554 S
Co2 O31 2.143 1_444 S
O3 Co0 2.042 1_554 S
O3 Co1 2.122 . S
O3 Co2 2.087 1_565 S
O3 H4 0.980 . S
H4 O3 0.980 . S
O5 Co2 2.087 1_656 S
O5 Co6 2.042 1_556 S
O5 Co7 2.122 . S
O5 H8 0.980 . S
Co6 O5 2.042 1_554 S
Co6 O14 2.286 . S
Co6 O15 2.069 . S
Co6 O16 2.015 1_655 S
Co6 O19 2.264 1_554 S
Co7 O5 2.122 . S
Co7 O18 1.976 1_655 S
Co7 O19 2.327 . S
Co7 O20 2.073 . S
H8 O5 0.980 . S
O9 Co1 2.073 . S
O9 C24 1.245 . S
O10 Co0 2.264 1_554 S
O10 Co1 2.327 . S
O10 C24 1.257 . S
O11 Co1 1.976 1_655 S
O11 C23 1.251 . S
O12 Co2 2.111 1_665 S
O12 C23 1.274 . S
O13 Co2 2.143 . S
O13 C26 1.246 . S
O14 Co6 2.286 . S
O14 C25 1.259 . S
O15 Co6 2.069 . S
O15 C25 1.289 . S
O16 Co6 2.015 1_455 S
O16 C26 1.257 . S
O17 Co2 2.111 1_556 S
O17 C27 1.274 . S
O18 Co7 1.976 1_455 S
O18 C27 1.251 . S
O19 Co6 2.264 1_556 S
O19 Co7 2.327 . S
O19 C28 1.257 . S
O20 Co7 2.073 . S
O20 C28 1.245 . S
C21 O29 1.259 . S
C21 O30 1.289 . S
C22 O31 1.246 . S
C22 O32 1.257 . S
C23 O11 1.251 . S
C23 O12 1.274 . S
C24 O9 1.245 . S
C24 O10 1.257 . S
C25 O14 1.259 . S
C25 O15 1.289 . S
C26 O13 1.246 . S
C26 O16 1.257 . S
C27 O17 1.274 . S
C27 O18 1.251 . S
C28 O19 1.257 . S
C28 O20 1.245 . S
O29 Co0 2.286 . S
O29 C21 1.259 . S
O30 Co0 2.069 . S
O30 C21 1.289 . S
O31 Co2 2.143 1_666 S
O31 C22 1.246 . S
O32 Co0 2.015 1_655 S
O32 C22 1.257 . S
Co33 O36 2.042 . S
Co33 O43 2.264 . S
Co33 O62 2.286 . S
Co33 O63 2.069 . S
Co33 O65 2.015 . S
Co34 O36 2.122 . S
Co34 O42 2.073 . S
Co34 O43 2.327 . S
Co34 O44 1.976 . S
Co35 O36 2.087 . S
Co35 O38 2.087 . S
Co35 O45 2.111 . S
Co35 O46 2.143 . S
Co35 O50 2.111 . S
Co35 O64 2.143 . S
O36 Co33 2.042 . S
O36 Co34 2.122 . S
O36 Co35 2.087 . S
O36 H37 0.980 . S
H37 O36 0.980 . S
O38 Co35 2.087 . S
O38 Co39 2.042 . S
O38 Co40 2.122 . S
O38 H41 0.980 . S
Co39 O38 2.042 . S
Co39 O47 2.286 . S
Co39 O48 2.069 . S
Co39 O49 2.015 . S
Co39 O52 2.264 . S
Co40 O38 2.122 . S
Co40 O51 1.976 . S
Co40 O52 2.327 . S
Co40 O53 2.073 . S
H41 O38 0.980 . S
O42 Co34 2.073 . S
O42 C57 1.245 . S
O43 Co33 2.264 . S
O43 Co34 2.327 . S
O43 C57 1.257 . S
O44 Co34 1.976 . S
O44 C56 1.251 . S
O45 Co35 2.111 . S
O45 C56 1.274 . S
O46 Co35 2.143 . S
O46 C59 1.246 . S
O47 Co39 2.286 . S
O47 C58 1.259 . S
O48 Co39 2.069 . S
O48 C58 1.289 . S
O49 Co39 2.015 . S
O49 C59 1.257 . S
O50 Co35 2.111 . S
O50 C60 1.274 . S
O51 Co40 1.976 . S
O51 C60 1.251 . S
O52 Co39 2.264 . S
O52 Co40 2.327 . S
O52 C61 1.257 . S
O53 Co40 2.073 . S
O53 C61 1.245 . S
C54 O62 1.259 . S
C54 O63 1.289 . S
C55 O64 1.246 . S
C55 O65 1.257 . S
C56 O44 1.251 . S
C56 O45 1.274 . S
C57 O42 1.245 . S
C57 O43 1.257 . S
C58 O47 1.259 . S
C58 O48 1.289 . S
C59 O46 1.246 . S
C59 O49 1.257 . S
C60 O50 1.274 . S
C60 O51 1.251 . S
C61 O52 1.257 . S
C61 O53 1.245 . S
O62 Co33 2.286 . S
O62 C54 1.259 . S
O63 Co33 2.069 . S
O63 C54 1.289 . S
O64 Co35 2.143 . S
O64 C55 1.246 . S
O65 Co33 2.015 . S
O65 C55 1.257 . S
C66 C67 1.170 . S
C66 C68 1.380 . S
C67 C66 1.170 . S
C68 C66 1.380 . S
C68 C69 1.170 . S
C69 C68 1.170 . S
C70 C71 1.170 . S
C70 C72 1.380 . S
C71 C70 1.170 . S
C72 C70 1.380 . S
C72 C73 1.170 . S
C73 C72 1.170 . S
C74 C75 1.170 . S
C74 C76 1.380 . S
C75 C74 1.170 . S
C76 C74 1.380 . S
C76 C77 1.170 . S
C77 C76 1.170 . S
C78 C79 1.170 . S
C78 C80 1.380 . S
C79 C78 1.170 . S
C80 C78 1.380 . S
C80 C81 1.170 . S
C81 C80 1.170 . S
C82 C83 1.170 . S
C82 C84 1.380 . S
C83 C82 1.170 . S
C84 C82 1.380 . S
C84 C85 1.170 . S
C85 C84 1.170 . S
C86 C87 1.170 . S
C86 C88 1.380 . S
C87 C86 1.170 . S
C88 C86 1.380 . S
C88 C89 1.170 . S
C89 C88 1.170 . S
C90 C91 1.170 . S
C90 C92 1.380 . S
C91 C90 1.170 . S
C92 C90 1.380 . S
C92 C93 1.170 . S
C93 C92 1.170 . S
C94 C95 1.170 . S
C94 C96 1.380 . S
C95 C94 1.170 . S
C96 C94 1.380 . S
C96 C97 1.170 . S
C97 C96 1.170 . S
C67 C26 1.406 . S
C69 C55 1.365 . S
C71 C25 1.613 . S
C73 C54 1.620 . S
C75 C23 1.308 . S
C77 C60 1.362 . S
C79 C24 1.431 . S
C81 C61 1.394 . S
C83 C21 1.616 . S
C85 C58 1.618 . S
C87 C56 1.332 . S
C89 C27 1.349 . S
C91 C28 1.394 . S
C93 C57 1.431 . S
C95 C59 1.406 . S
C97 C22 1.366 . S
