# Generated by pormake.
# Topology qtz-e, (6)-cn, num edge types: 1
# Building blocks:
#     Node 0, Type 0, BuildingBlock: PAMTUU_clean_sbu_0, # of connection points: 6
#     Node 1, Type 0, BuildingBlock: PAMTUU_clean_sbu_0, # of connection points: 6
#     Node 2, Type 0, BuildingBlock: PAMTUU_clean_sbu_0, # of connection points: 6
#     Node 3, Type 0, BuildingBlock: PAMTUU_clean_sbu_0, # of connection points: 6
#     Node 4, Type 0, BuildingBlock: PAMTUU_clean_sbu_0, # of connection points: 6
#     Node 5, Type 0, BuildingBlock: PAMTUU_clean_sbu_0, # of connection points: 6
#     Edge 6, Type (0, 0), None
#     Edge 7, Type (0, 0), None
#     Edge 8, Type (0, 0), None
#     Edge 9, Type (0, 0), None
#     Edge 10, Type (0, 0), None
#     Edge 11, Type (0, 0), None
#     Edge 12, Type (0, 0), None
#     Edge 13, Type (0, 0), None
#     Edge 14, Type (0, 0), None
#     Edge 15, Type (0, 0), None
#     Edge 16, Type (0, 0), None
#     Edge 17, Type (0, 0), None
#     Edge 18, Type (0, 0), None
#     Edge 19, Type (0, 0), None
#     Edge 20, Type (0, 0), None
#     Edge 21, Type (0, 0), None
#     Edge 22, Type (0, 0), None
#     Edge 23, Type (0, 0), None
# Relax obj value: 0.422
# Max RMSD: 0.283
# Mean RMSD: 0.282
data_MOF--net-qtz-e--node1-PAMTUU_clean_sbu_0--edge1-none
_symmetry_space_group_name_H-M    P1
_symmetry_Int_Tables_number       1
_symmetry_cell_setting            triclinic
loop_
_symmetry_equiv_pos_as_xyz
'x, y, z'
_cell_length_a     13.066435
_cell_length_b     13.065984
_cell_length_c     27.642239
_cell_angle_alpha  90.000046
_cell_angle_beta   89.99974
_cell_angle_gamma 119.99557
loop_
_atom_site_label
_atom_site_type_symbol
_atom_site_fract_x
_atom_site_fract_y
_atom_site_fract_z
_atom_type_partial_charge
Tb0 Tb 0.34186 0.35378 0.21623 0.0
Tb1 Tb 0.48298 0.63923 0.19654 0.0
C2 C 0.61863 0.52286 0.24293 0.0
C3 C 0.16876 0.12073 0.30134 0.0
C4 C 0.04208 0.05694 0.39031 0.0
C5 C 0.11763 0.01312 0.37813 0.0
C6 C 0.18248 0.04704 0.33469 0.0
C7 C 0.0949 0.16629 0.31414 0.0
C8 C 0.03361 0.13582 0.35826 0.0
C9 C 0.23384 0.15288 0.25425 0.0
O10 O 0.34788 0.43721 0.28314 0.0
O11 O 0.48608 0.63451 0.27557 0.0
O12 O 0.30988 0.60413 0.21941 0.0
O13 O 0.20361 0.40161 0.22136 0.0
O14 O 0.62826 0.8005 0.1743 0.0
O15 O 0.4586 0.78507 0.18784 0.0
O16 O 0.47051 0.55263 0.12504 0.0
O17 O 0.35804 0.35136 0.13617 0.0
O18 O 0.5308 0.41802 0.22969 0.0
O19 O 0.61898 0.62157 0.23377 0.0
C20 C 0.41538 0.54143 0.30159 0.0
O21 O 0.18968 0.18617 0.21925 0.0
O22 O 0.34817 0.21989 0.25675 0.0
C23 C 0.21258 0.50535 0.22816 0.0
C24 C 0.5468 0.86946 0.11524 0.0
C25 C 0.47766 0.87159 1.0193 0.0
C26 C 0.45613 0.93511 1.05483 0.0
C27 C 0.48905 0.93249 0.10296 0.0
C28 C 0.5677 0.80666 1.07924 0.0
C29 C 0.53128 0.80567 1.03229 0.0
C30 C 0.55957 0.84468 0.16589 0.0
C31 C 0.41764 0.44362 0.1073 0.0
H32 H 0.12777 0.95391 0.40253 0.0
H33 H 0.24109 0.0131 0.32654 0.0
H34 H 0.08452 0.22592 0.29012 0.0
H35 H 0.97796 0.1726 0.36714 0.0
H36 H 0.41893 0.99009 1.04511 0.0
H37 H 0.46899 0.97875 0.13054 0.0
H38 H 0.61082 0.75622 0.08725 0.0
H39 H 0.55227 0.75901 1.00524 0.0
Tb40 Tb 0.6741 0.0199 0.61073 0.0
Tb41 Tb 0.53296 0.16422 0.63043 0.0
C42 C 0.39731 0.9122 0.58405 0.0
C43 C 0.84722 0.95996 0.52562 0.0
C44 C 0.9739 0.02285 0.43665 0.0
C45 C 0.89836 0.90348 0.44884 0.0
C46 C 0.83351 0.87255 0.49227 0.0
C47 C 0.92107 0.07937 0.51283 0.0
C48 C 0.98237 0.1102 0.46871 0.0
C49 C 0.78213 0.92702 0.57271 0.0
O50 O 0.66804 0.09728 0.54382 0.0
O51 O 0.52984 0.1564 0.5514 0.0
O52 O 0.70606 0.30222 0.60756 0.0
O53 O 0.81233 0.20596 0.60559 0.0
O54 O 0.38768 0.18021 0.65268 0.0
O55 O 0.55731 0.33442 0.63912 0.0
O56 O 0.54544 0.09009 0.70193 0.0
O57 O 0.65796 1.00133 0.69079 0.0
O58 O 0.48515 0.8952 0.5973 0.0
O59 O 0.39697 0.01056 0.5932 0.0
C60 C 0.60054 0.13401 0.52538 0.0
O61 O 0.82628 1.00446 0.60771 0.0
O62 O 0.6678 0.87972 0.57021 0.0
C63 C 0.80336 0.30074 0.5988 0.0
C64 C 0.46916 0.33064 0.71174 0.0
C65 C 0.53836 0.40193 0.80767 0.0
C66 C 0.55985 0.48695 0.77214 0.0
C67 C 0.52691 0.45141 0.72402 0.0
C68 C 0.44829 0.24694 0.74773 0.0
C69 C 0.48474 0.28239 0.79468 0.0
C70 C 0.45637 0.29307 0.66108 0.0
C71 C 0.59834 0.03396 0.71967 0.0
H72 H 0.88823 0.83414 0.42443 0.0
H73 H 0.7749 0.78 0.50042 0.0
H74 H 0.93145 0.14938 0.53684 0.0
H75 H 0.03802 0.20263 0.45983 0.0
H76 H 0.59705 0.57913 0.78186 0.0
H77 H 0.54695 0.51772 0.69643 0.0
H78 H 0.40517 0.15339 0.73973 0.0
H79 H 0.46377 0.21475 0.82173 0.0
Tb80 Tb 0.672 0.01564 0.88288 0.0
Tb81 Tb 0.38654 0.87134 0.8632 0.0
C82 C 0.50292 0.12337 0.90957 0.0
C83 C 0.90503 0.07555 0.96799 0.0
C84 C 0.96879 0.01268 1.05697 0.0
C85 C 1.01259 0.13204 1.04479 0.0
C86 C 0.97868 0.16296 1.00134 0.0
C87 C 0.8595 0.95614 0.98079 0.0
C88 C 0.88995 0.92532 1.02491 0.0
C89 C 0.87289 0.10848 0.9209 0.0
O90 O 0.58859 0.93829 0.94979 0.0
O91 O 0.39128 0.8792 0.94222 0.0
O92 O 0.42164 0.73336 0.8861 0.0
O93 O 0.62416 0.82956 0.888 0.0
O94 O 0.22527 0.85535 0.84096 0.0
O95 O 0.24073 0.70114 0.85451 0.0
O96 O 0.47314 0.94543 0.79169 0.0
O97 O 0.67441 0.03423 0.80282 0.0
O98 O 0.60776 0.14035 0.89633 0.0
O99 O 0.40421 0.02502 0.90041 0.0
C100 C 0.48438 0.90163 0.96824 0.0
O101 O 0.83959 0.03102 0.8859 0.0
O102 O 0.80589 0.15582 0.92339 0.0
C103 C 0.52042 0.73481 0.89483 0.0
C104 C 0.15632 0.70492 0.7819 0.0
C105 C 0.1542 0.63362 0.68597 0.0
C106 C 0.09067 0.5486 0.7215 0.0
C107 C 0.09328 0.58415 0.76963 0.0
C108 C 0.21913 0.78861 0.74591 0.0
C109 C 0.22014 0.75316 0.69896 0.0
C110 C 0.18111 0.74248 0.83256 0.0
C111 C 0.58215 1.00157 0.77395 0.0
H112 H 0.07176 0.20139 1.0692 0.0
H113 H 1.0126 0.25551 0.99319 0.0
H114 H 0.7999 0.88613 0.95677 0.0
H115 H 0.8532 0.8329 1.0338 0.0
H116 H 0.03568 0.45642 0.71179 0.0
H117 H 0.04702 0.51784 0.79722 0.0
H118 H 0.26957 0.88216 0.75391 0.0
H119 H 0.2668 0.82079 0.67191 0.0
Tb120 Tb 1.00583 0.68178 0.27741 0.0
Tb121 Tb 0.86154 0.39632 0.29711 0.0
C122 C 0.11354 0.5127 0.25071 0.0
C123 C 0.06575 0.91483 0.1923 0.0
C124 C 1.00287 0.9786 0.10332 0.0
C125 C 0.12223 0.0224 0.1155 0.0
C126 C 0.15315 0.98849 0.15895 0.0
C127 C 0.94634 0.8693 0.1795 0.0
C128 C 0.91552 0.89975 0.13538 0.0
C129 C 0.09868 0.88268 0.23939 0.0
O130 O 0.92842 0.59835 0.21051 0.0
O131 O 0.86937 0.40104 0.21808 0.0
O132 O 0.72354 0.43143 0.27424 0.0
O133 O 0.81977 0.63396 0.27229 0.0
O134 O 0.84559 0.23506 0.31936 0.0
O135 O 0.69136 0.25048 0.3058 0.0
O136 O 0.93566 0.48294 0.36861 0.0
O137 O 0.02441 0.68421 0.35747 0.0
O138 O 0.13053 0.61754 0.26396 0.0
O139 O 1.01521 0.41399 0.25988 0.0
C140 C 0.89173 0.49413 0.19206 0.0
O141 O 0.02123 0.84939 0.27439 0.0
O142 O 0.146 0.81566 0.2369 0.0
C143 C 0.72499 0.53021 0.2655 0.0
C144 C 0.69516 0.16611 0.37841 0.0
C145 C 0.62385 0.16406 0.47433 0.0
C146 C 0.53883 0.10046 0.43881 0.0
C147 C 0.57438 0.10304 0.39069 0.0
C148 C 0.77884 0.22896 0.4144 0.0
C149 C 0.74339 0.23 0.46135 0.0
C150 C 0.73272 0.19088 0.32776 0.0
C151 C 0.99178 0.59195 0.38635 0.0
H152 H 0.19157 0.08158 0.09109 0.0
H153 H 0.2457 0.0224 0.16709 0.0
H154 H 0.87633 0.80969 0.20352 0.0
H155 H 0.8231 0.863 0.1265 0.0
H156 H 0.44666 0.04545 0.44853 0.0
H157 H 0.50809 0.05674 0.3631 0.0
H158 H 0.87239 0.2794 0.4064 0.0
H159 H 0.81101 0.27669 0.4884 0.0
Tb160 Tb 1.01012 0.68393 0.54956 0.0
Tb161 Tb 0.15442 0.54276 0.52987 0.0
C162 C 0.9024 0.40712 0.57625 0.0
C163 C 0.95022 0.85707 0.63468 0.0
C164 C 1.01311 0.98373 0.72366 0.0
C165 C 0.89375 0.90819 0.71147 0.0
C166 C 0.86282 0.84335 0.66803 0.0
C167 C 0.06963 0.93092 0.64748 0.0
C168 C 0.10046 0.99221 0.6916 0.0
C169 C 0.91729 0.792 0.58759 0.0
O170 O 0.08752 0.67788 0.61647 0.0
O171 O 0.14655 0.53961 0.6089 0.0
O172 O 0.29239 0.71582 0.55278 0.0
O173 O 0.19619 0.82216 0.55466 0.0
O174 O 0.17041 0.39746 0.50763 0.0
O175 O 0.32461 0.56712 0.52117 0.0
O176 O 0.08034 0.55529 0.45836 0.0
O177 O 0.99149 0.66773 0.46951 0.0
O178 O 0.88542 0.49499 0.56303 0.0
O179 O 1.00073 0.40674 0.56707 0.0
C180 C 0.12415 0.6103 0.63492 0.0
O181 O 0.99474 0.83615 0.55259 0.0
O182 O 0.86996 0.67766 0.59008 0.0
C183 C 0.29095 0.81317 0.56149 0.0
C184 C 0.32081 0.47893 0.44856 0.0
C185 C 0.39207 0.54816 0.35264 0.0
C186 C 0.47712 0.56961 0.38815 0.0
C187 C 0.44158 0.53665 0.43628 0.0
C188 C 0.23711 0.45806 0.41257 0.0
C189 C 0.27253 0.49454 0.36563 0.0
C190 C 0.28327 0.46615 0.49922 0.0
C191 C 0.02417 0.60815 0.44063 0.0
H192 H 0.82441 0.89805 0.73588 0.0
H193 H 0.77027 0.78474 0.65988 0.0
H194 H 0.13964 0.9413 0.62346 0.0
H195 H 0.19288 0.04786 0.70048 0.0
H196 H 0.56929 0.60679 0.37843 0.0
H197 H 0.50789 0.55667 0.46386 0.0
H198 H 0.14356 0.41495 0.42059 0.0
H199 H 0.2049 0.47358 0.33857 0.0
Tb200 Tb 0.344 0.35166 0.94408 0.0
Tb201 Tb 0.62946 0.49279 0.96377 0.0
C202 C 0.51309 0.62844 0.91739 0.0
C203 C 0.11097 0.17856 0.85897 0.0
C204 C 0.0472 0.05191 0.77 0.0
C205 C 1.00338 0.12746 0.78218 0.0
C206 C 0.0373 0.1923 0.82562 0.0
C207 C 0.15651 0.10469 0.84618 0.0
C208 C 0.12605 0.0434 0.80206 0.0
C209 C 0.14311 0.24364 0.90606 0.0
O210 O 0.42742 0.35772 0.87717 0.0
O211 O 0.62474 0.4959 0.88475 0.0
O212 O 0.59436 0.3197 0.94088 0.0
O213 O 0.39184 0.21342 0.93895 0.0
O214 O 0.79073 0.63807 0.98601 0.0
O215 O 0.77527 0.46839 0.97248 0.0
O216 O 0.54285 0.4803 1.03528 0.0
O217 O 0.34158 0.36782 1.02414 0.0
O218 O 0.40825 0.54061 0.93065 0.0
O219 O 0.61179 0.6288 0.92655 0.0
C220 C 0.53164 0.42525 0.85872 0.0
O221 O 0.17641 0.19948 0.94106 0.0
O222 O 0.21012 0.35797 0.90357 0.0
C223 C 0.49558 0.22239 0.93214 0.0
C224 C 0.85966 0.5566 1.04508 0.0
C225 C 0.8617 0.4874 0.14101 0.0
C226 C 0.92528 0.46591 0.1055 0.0
C227 C 0.9227 0.49886 1.05737 0.0
C228 C 0.79683 0.57749 1.08107 0.0
C229 C 0.79579 0.54103 0.12802 0.0
C230 C 0.83489 0.56936 0.99442 0.0
C231 C 0.43384 0.42742 1.05302 0.0
H232 H 0.9442 0.13763 0.75777 0.0
H233 H 1.00337 0.25093 0.83377 0.0
H234 H 0.21613 0.09429 0.8702 0.0
H235 H 0.16282 0.98774 0.79317 0.0
H236 H 0.98026 0.42872 0.11523 0.0
H237 H 0.96898 0.47882 1.02979 0.0
H238 H 0.7464 0.62061 1.07305 0.0
H239 H 0.74911 0.562 0.15507 0.0
loop_
_geom_bond_atom_site_label_1
_geom_bond_atom_site_label_2
_geom_bond_distance
_geom_bond_site_symmetry_2
_ccdc_geom_bond_type
Tb0 C9 2.764 . S
Tb0 O10 2.325 . S
Tb0 O13 2.303 . S
Tb0 O17 2.322 . S
Tb0 O18 2.349 . S
Tb0 O21 2.415 . S
Tb0 O22 2.399 . S
Tb1 O11 2.322 . S
Tb1 O12 2.349 . S
Tb1 O14 2.415 . S
Tb1 O15 2.399 . S
Tb1 O16 2.325 . S
Tb1 O19 2.303 . S
Tb1 C30 2.764 . S
C2 O18 1.261 . S
C2 O19 1.257 . S
C3 C6 1.358 . S
C3 C7 1.332 . S
C3 C9 1.504 . S
C4 C5 1.371 1_655 S
C4 C8 1.309 1_565 S
C5 C4 1.371 1_455 S
C5 C6 1.429 1_565 S
C5 H32 0.932 . S
C6 C3 1.358 . S
C6 C5 1.429 1_545 S
C6 H33 0.926 1_545 S
C7 C3 1.332 . S
C7 C8 1.394 1_455 S
C7 H34 0.932 . S
C8 C4 1.309 1_545 S
C8 C7 1.394 1_655 S
C8 H35 0.929 . S
C9 Tb0 2.764 . S
C9 C3 1.504 . S
C9 O21 1.239 . S
C9 O22 1.263 . S
O10 Tb0 2.325 . S
O10 C20 1.236 . S
O11 Tb1 2.322 . S
O11 C20 1.257 . S
O12 Tb1 2.349 . S
O12 C23 1.261 . S
O13 Tb0 2.303 . S
O13 C23 1.257 . S
O14 Tb1 2.415 . S
O14 C30 1.239 . S
O15 Tb1 2.399 . S
O15 C30 1.263 . S
O16 Tb1 2.325 . S
O16 C31 1.236 . S
O17 Tb0 2.322 . S
O17 C31 1.257 . S
O18 Tb0 2.349 . S
O18 C2 1.261 . S
O19 Tb1 2.303 . S
O19 C2 1.257 . S
C20 O10 1.236 . S
C20 O11 1.257 . S
O21 Tb0 2.415 . S
O21 C9 1.239 . S
O22 Tb0 2.399 . S
O22 C9 1.263 . S
C23 O12 1.261 . S
C23 O13 1.257 . S
C24 C27 1.358 . S
C24 C28 1.332 . S
C24 C30 1.504 1_556 S
C25 C26 1.373 . S
C25 C29 1.308 . S
C26 C25 1.373 . S
C26 C27 1.429 . S
C26 H36 0.932 . S
C27 C24 1.358 . S
C27 C26 1.429 . S
C27 H37 0.930 . S
C28 C24 1.332 . S
C28 C29 1.394 . S
C28 H38 0.932 . S
C29 C25 1.308 . S
C29 C28 1.394 . S
C29 H39 0.929 . S
C30 Tb1 2.764 . S
C30 O14 1.239 . S
C30 O15 1.263 . S
C30 C24 1.504 1_554 S
C31 O16 1.236 . S
C31 O17 1.257 . S
H32 C5 0.932 . S
H33 C6 0.926 1_565 S
H34 C7 0.932 . S
H35 C8 0.929 . S
H36 C26 0.932 . S
H37 C27 0.930 . S
H38 C28 0.932 . S
H39 C29 0.929 . S
Tb40 C49 2.764 . S
Tb40 O50 2.325 1_565 S
Tb40 O53 2.303 1_565 S
Tb40 O57 2.322 . S
Tb40 O58 2.349 . S
Tb40 O61 2.415 1_565 S
Tb40 O62 2.399 . S
Tb41 O51 2.322 . S
Tb41 O52 2.349 . S
Tb41 O54 2.415 . S
Tb41 O55 2.399 . S
Tb41 O56 2.325 . S
Tb41 O59 2.303 1_545 S
Tb41 C70 2.764 . S
C42 O58 1.261 . S
C42 O59 1.257 . S
C43 C46 1.358 . S
C43 C47 1.332 1_565 S
C43 C49 1.504 . S
C44 C45 1.373 . S
C44 C48 1.308 1_665 S
C45 C44 1.373 . S
C45 C46 1.429 . S
C45 H72 0.932 . S
C46 C43 1.358 . S
C46 C45 1.429 . S
C46 H73 0.930 . S
C47 C43 1.332 1_545 S
C47 C48 1.394 1_655 S
C47 H74 0.932 . S
C48 C44 1.308 1_445 S
C48 C47 1.394 1_455 S
C48 H75 0.929 . S
C49 Tb40 2.764 . S
C49 C43 1.504 . S
C49 O61 1.239 1_565 S
C49 O62 1.263 . S
O50 Tb40 2.325 1_545 S
O50 C60 1.236 . S
O51 Tb41 2.322 . S
O51 C60 1.257 . S
O52 Tb41 2.349 . S
O52 C63 1.261 . S
O53 Tb40 2.303 1_545 S
O53 C63 1.257 . S
O54 Tb41 2.415 . S
O54 C70 1.239 . S
O55 Tb41 2.399 . S
O55 C70 1.263 . S
O56 Tb41 2.325 . S
O56 C71 1.236 1_545 S
O57 Tb40 2.322 . S
O57 C71 1.257 . S
O58 Tb40 2.349 . S
O58 C42 1.261 . S
O59 Tb41 2.303 1_565 S
O59 C42 1.257 . S
C60 O50 1.236 . S
C60 O51 1.257 . S
O61 Tb40 2.415 1_545 S
O61 C49 1.239 1_545 S
O62 Tb40 2.399 . S
O62 C49 1.263 . S
C63 O52 1.261 . S
C63 O53 1.257 . S
C64 C67 1.358 . S
C64 C68 1.332 . S
C64 C70 1.504 . S
C65 C66 1.373 . S
C65 C69 1.308 . S
C66 C65 1.373 . S
C66 C67 1.429 . S
C66 H76 0.932 . S
C67 C64 1.358 . S
C67 C66 1.429 . S
C67 H77 0.930 . S
C68 C64 1.332 . S
C68 C69 1.394 . S
C68 H78 0.932 1_545 S
C69 C65 1.308 . S
C69 C68 1.394 . S
C69 H79 0.929 1_545 S
C70 Tb41 2.764 . S
C70 O54 1.239 . S
C70 O55 1.263 . S
C70 C64 1.504 . S
C71 O56 1.236 1_565 S
C71 O57 1.257 . S
H72 C45 0.932 . S
H73 C46 0.930 . S
H74 C47 0.932 . S
H75 C48 0.929 . S
H76 C66 0.932 . S
H77 C67 0.930 . S
H78 C68 0.932 1_565 S
H79 C69 0.929 1_565 S
Tb80 C89 2.764 . S
Tb80 O90 2.325 1_545 S
Tb80 O93 2.303 1_545 S
Tb80 O97 2.322 . S
Tb80 O98 2.349 . S
Tb80 O101 2.415 1_545 S
Tb80 O102 2.399 . S
Tb81 O91 2.322 . S
Tb81 O92 2.349 . S
Tb81 O94 2.415 . S
Tb81 O95 2.399 . S
Tb81 O96 2.325 . S
Tb81 O99 2.303 1_565 S
Tb81 C110 2.764 . S
C82 O98 1.261 . S
C82 O99 1.257 . S
C83 C86 1.358 . S
C83 C87 1.332 1_545 S
C83 C89 1.504 . S
C84 C85 1.373 . S
C84 C88 1.308 1_445 S
C85 C84 1.373 . S
C85 C86 1.429 1_455 S
C85 H112 0.932 . S
C86 C83 1.358 . S
C86 C85 1.429 1_655 S
C86 H113 0.930 1_655 S
C87 C83 1.332 1_565 S
C87 C88 1.394 . S
C87 H114 0.932 . S
C88 C84 1.308 1_665 S
C88 C87 1.394 . S
C88 H115 0.929 . S
C89 Tb80 2.764 . S
C89 C83 1.504 . S
C89 O101 1.239 1_545 S
C89 O102 1.263 . S
O90 Tb80 2.325 1_565 S
O90 C100 1.236 . S
O91 Tb81 2.322 . S
O91 C100 1.257 . S
O92 Tb81 2.349 . S
O92 C103 1.261 . S
O93 Tb80 2.303 1_565 S
O93 C103 1.257 . S
O94 Tb81 2.415 . S
O94 C110 1.239 . S
O95 Tb81 2.399 . S
O95 C110 1.263 . S
O96 Tb81 2.325 . S
O96 C111 1.236 1_565 S
O97 Tb80 2.322 . S
O97 C111 1.257 . S
O98 Tb80 2.349 . S
O98 C82 1.261 . S
O99 Tb81 2.303 1_545 S
O99 C82 1.257 . S
C100 O90 1.236 . S
C100 O91 1.257 . S
O101 Tb80 2.415 1_565 S
O101 C89 1.239 1_565 S
O102 Tb80 2.399 . S
O102 C89 1.263 . S
C103 O92 1.261 . S
C103 O93 1.257 . S
C104 C107 1.358 . S
C104 C108 1.332 . S
C104 C110 1.504 . S
C105 C106 1.373 . S
C105 C109 1.308 . S
C106 C105 1.373 . S
C106 C107 1.429 . S
C106 H116 0.932 . S
C107 C104 1.358 . S
C107 C106 1.429 . S
C107 H117 0.930 . S
C108 C104 1.332 . S
C108 C109 1.394 . S
C108 H118 0.932 1_565 S
C109 C105 1.308 . S
C109 C108 1.394 . S
C109 H119 0.929 1_565 S
C110 Tb81 2.764 . S
C110 O94 1.239 . S
C110 O95 1.263 . S
C110 C104 1.504 . S
C111 O96 1.236 1_545 S
C111 O97 1.257 . S
H112 C85 0.932 . S
H113 C86 0.930 1_455 S
H114 C87 0.932 . S
H115 C88 0.929 . S
H116 C106 0.932 . S
H117 C107 0.930 . S
H118 C108 0.932 1_545 S
H119 C109 0.929 1_545 S
Tb120 C129 2.764 . S
Tb120 O130 2.325 1_455 S
Tb120 O133 2.303 1_455 S
Tb120 O137 2.322 . S
Tb120 O138 2.349 . S
Tb120 O141 2.415 1_455 S
Tb120 O142 2.399 . S
Tb121 O131 2.322 . S
Tb121 O132 2.349 . S
Tb121 O134 2.415 . S
Tb121 O135 2.399 . S
Tb121 O136 2.325 . S
Tb121 O139 2.303 1_655 S
Tb121 C150 2.764 . S
C122 O138 1.261 . S
C122 O139 1.257 . S
C123 C126 1.358 1_565 S
C123 C127 1.332 1_455 S
C123 C129 1.504 . S
C124 C125 1.373 . S
C124 C128 1.308 1_445 S
C125 C124 1.373 . S
C125 C126 1.429 . S
C125 H152 0.932 . S
C126 C123 1.358 1_545 S
C126 C125 1.429 . S
C126 H153 0.930 . S
C127 C123 1.332 1_655 S
C127 C128 1.394 . S
C127 H154 0.932 . S
C128 C124 1.308 1_665 S
C128 C127 1.394 . S
C128 H155 0.929 . S
C129 Tb120 2.764 . S
C129 C123 1.504 . S
C129 O141 1.239 1_455 S
C129 O142 1.263 . S
O130 Tb120 2.325 1_655 S
O130 C140 1.236 . S
O131 Tb121 2.322 . S
O131 C140 1.257 . S
O132 Tb121 2.349 . S
O132 C143 1.261 . S
O133 Tb120 2.303 1_655 S
O133 C143 1.257 . S
O134 Tb121 2.415 . S
O134 C150 1.239 . S
O135 Tb121 2.399 . S
O135 C150 1.263 . S
O136 Tb121 2.325 . S
O136 C151 1.236 1_655 S
O137 Tb120 2.322 . S
O137 C151 1.257 . S
O138 Tb120 2.349 . S
O138 C122 1.261 . S
O139 Tb121 2.303 1_455 S
O139 C122 1.257 . S
C140 O130 1.236 . S
C140 O131 1.257 . S
O141 Tb120 2.415 1_655 S
O141 C129 1.239 1_655 S
O142 Tb120 2.399 . S
O142 C129 1.263 . S
C143 O132 1.261 . S
C143 O133 1.257 . S
C144 C147 1.358 . S
C144 C148 1.332 . S
C144 C150 1.504 . S
C145 C146 1.373 . S
C145 C149 1.308 . S
C146 C145 1.373 . S
C146 C147 1.429 . S
C146 H156 0.932 . S
C147 C144 1.358 . S
C147 C146 1.429 . S
C147 H157 0.930 . S
C148 C144 1.332 . S
C148 C149 1.394 . S
C148 H158 0.932 1_655 S
C149 C145 1.308 . S
C149 C148 1.394 . S
C149 H159 0.929 1_655 S
C150 Tb121 2.764 . S
C150 O134 1.239 . S
C150 O135 1.263 . S
C150 C144 1.504 . S
C151 O136 1.236 1_455 S
C151 O137 1.257 . S
H152 C125 0.932 . S
H153 C126 0.930 . S
H154 C127 0.932 . S
H155 C128 0.929 . S
H156 C146 0.932 . S
H157 C147 0.930 . S
H158 C148 0.932 1_455 S
H159 C149 0.929 1_455 S
Tb160 C169 2.764 . S
Tb160 O170 2.325 1_655 S
Tb160 O173 2.303 1_655 S
Tb160 O177 2.322 . S
Tb160 O178 2.349 . S
Tb160 O181 2.415 1_655 S
Tb160 O182 2.399 . S
Tb161 O171 2.322 . S
Tb161 O172 2.349 . S
Tb161 O174 2.415 . S
Tb161 O175 2.399 . S
Tb161 O176 2.325 . S
Tb161 O179 2.303 1_455 S
Tb161 C190 2.764 . S
C162 O178 1.261 . S
C162 O179 1.257 . S
C163 C166 1.358 . S
C163 C167 1.332 1_655 S
C163 C169 1.504 . S
C164 C165 1.370 1_545 S
C164 C168 1.305 1_655 S
C165 C164 1.370 1_565 S
C165 C166 1.429 . S
C165 H192 0.932 . S
C166 C163 1.358 . S
C166 C165 1.429 . S
C166 H193 0.930 . S
C167 C163 1.332 1_455 S
C167 C168 1.394 1_565 S
C167 H194 0.932 . S
C168 C164 1.305 1_455 S
C168 C167 1.394 1_545 S
C168 H195 0.929 . S
C169 Tb160 2.764 . S
C169 C163 1.504 . S
C169 O181 1.239 1_655 S
C169 O182 1.263 . S
O170 Tb160 2.325 1_455 S
O170 C180 1.236 . S
O171 Tb161 2.322 . S
O171 C180 1.257 . S
O172 Tb161 2.349 . S
O172 C183 1.261 . S
O173 Tb160 2.303 1_455 S
O173 C183 1.257 . S
O174 Tb161 2.415 . S
O174 C190 1.239 . S
O175 Tb161 2.399 . S
O175 C190 1.263 . S
O176 Tb161 2.325 . S
O176 C191 1.236 1_455 S
O177 Tb160 2.322 . S
O177 C191 1.257 . S
O178 Tb160 2.349 . S
O178 C162 1.261 . S
O179 Tb161 2.303 1_655 S
O179 C162 1.257 . S
C180 O170 1.236 . S
C180 O171 1.257 . S
O181 Tb160 2.415 1_455 S
O181 C169 1.239 1_455 S
O182 Tb160 2.399 . S
O182 C169 1.263 . S
C183 O172 1.261 . S
C183 O173 1.257 . S
C184 C187 1.358 . S
C184 C188 1.332 . S
C184 C190 1.504 . S
C185 C186 1.373 . S
C185 C189 1.308 . S
C186 C185 1.373 . S
C186 C187 1.429 . S
C186 H196 0.932 . S
C187 C184 1.358 . S
C187 C186 1.429 . S
C187 H197 0.930 . S
C188 C184 1.332 . S
C188 C189 1.394 . S
C188 H198 0.932 1_455 S
C189 C185 1.308 . S
C189 C188 1.394 . S
C189 H199 0.929 1_455 S
C190 Tb161 2.764 . S
C190 O174 1.239 . S
C190 O175 1.263 . S
C190 C184 1.504 . S
C191 O176 1.236 1_655 S
C191 O177 1.257 . S
H192 C165 0.932 . S
H193 C166 0.930 . S
H194 C167 0.932 . S
H195 C168 0.929 . S
H196 C186 0.932 . S
H197 C187 0.930 . S
H198 C188 0.932 1_655 S
H199 C189 0.929 1_655 S
Tb200 C209 2.764 . S
Tb200 O210 2.325 . S
Tb200 O213 2.303 . S
Tb200 O217 2.322 . S
Tb200 O218 2.349 . S
Tb200 O221 2.415 . S
Tb200 O222 2.399 . S
Tb201 O211 2.322 . S
Tb201 O212 2.349 . S
Tb201 O214 2.415 . S
Tb201 O215 2.399 . S
Tb201 O216 2.325 . S
Tb201 O219 2.303 . S
Tb201 C230 2.764 . S
C202 O218 1.261 . S
C202 O219 1.257 . S
C203 C206 1.358 1_455 S
C203 C207 1.332 . S
C203 C209 1.504 . S
C204 C205 1.373 . S
C204 C208 1.308 1_645 S
C205 C204 1.373 . S
C205 C206 1.429 . S
C205 H232 0.932 . S
C206 C203 1.358 1_655 S
C206 C205 1.429 . S
C206 H233 0.930 . S
C207 C203 1.332 . S
C207 C208 1.394 1_545 S
C207 H234 0.932 . S
C208 C204 1.308 1_465 S
C208 C207 1.394 1_565 S
C208 H235 0.929 . S
C209 Tb200 2.764 . S
C209 C203 1.504 . S
C209 O221 1.239 . S
C209 O222 1.263 . S
O210 Tb200 2.325 . S
O210 C220 1.236 . S
O211 Tb201 2.322 . S
O211 C220 1.257 . S
O212 Tb201 2.349 . S
O212 C223 1.261 . S
O213 Tb200 2.303 . S
O213 C223 1.257 . S
O214 Tb201 2.415 . S
O214 C230 1.239 . S
O215 Tb201 2.399 . S
O215 C230 1.263 . S
O216 Tb201 2.325 . S
O216 C231 1.236 . S
O217 Tb200 2.322 . S
O217 C231 1.257 . S
O218 Tb200 2.349 . S
O218 C202 1.261 . S
O219 Tb201 2.303 . S
O219 C202 1.257 . S
C220 O210 1.236 . S
C220 O211 1.257 . S
O221 Tb200 2.415 . S
O221 C209 1.239 . S
O222 Tb200 2.399 . S
O222 C209 1.263 . S
C223 O212 1.261 . S
C223 O213 1.257 . S
C224 C227 1.358 . S
C224 C228 1.332 . S
C224 C230 1.504 1_554 S
C225 C226 1.373 . S
C225 C229 1.308 . S
C226 C225 1.373 . S
C226 C227 1.429 . S
C226 H236 0.932 . S
C227 C224 1.358 . S
C227 C226 1.429 . S
C227 H237 0.930 . S
C228 C224 1.332 . S
C228 C229 1.394 . S
C228 H238 0.932 . S
C229 C225 1.308 . S
C229 C228 1.394 . S
C229 H239 0.929 . S
C230 Tb201 2.764 . S
C230 O214 1.239 . S
C230 O215 1.263 . S
C230 C224 1.504 1_556 S
C231 O216 1.236 . S
C231 O217 1.257 . S
H232 C205 0.932 . S
H233 C206 0.930 . S
H234 C207 0.932 . S
H235 C208 0.929 . S
H236 C226 0.932 . S
H237 C227 0.930 . S
H238 C228 0.932 . S
H239 C229 0.929 . S
C185 C20 3.802 . S
C220 C65 3.802 . S
C25 C100 3.802 . S
C60 C145 3.802 . S
C105 C180 3.803 . S
C140 C225 3.802 . S
C2 C143 4.381 . S
C162 C63 4.382 . S
C223 C82 4.381 . S
C103 C202 4.381 . S
C23 C122 4.381 . S
C183 C42 4.382 . S
C231 C31 2.889 1_556 S
C44 C4 0.715 . S
C111 C71 2.889 1_545 S
C84 C124 0.714 1_556 S
C191 C151 2.889 1_655 S
C204 C164 0.716 . S
