# Generated by pormake.
# Topology hex, (8)-cn, num edge types: 1
# Building blocks:
#     Node 0, Type 0, BuildingBlock: XADDAJ01_clean_sbu_3, # of connection points: 8
#     Edge 1, Type (0, 0), BuildingBlock: KIFKEQ_clean_linker_1, # of connection points: 2
#     Edge 2, Type (0, 0), BuildingBlock: KIFKEQ_clean_linker_1, # of connection points: 2
#     Edge 3, Type (0, 0), BuildingBlock: KIFKEQ_clean_linker_1, # of connection points: 2
#     Edge 4, Type (0, 0), BuildingBlock: KIFKEQ_clean_linker_1, # of connection points: 2
# Relax obj value: 0.035
# Max RMSD: 0.097
# Mean RMSD: 0.097
data_MOF--net-hex--node1-XADDAJ01_clean_sbu_3--edge1-KIFKEQ_clean_linker_1
_symmetry_space_group_name_H-M    P1
_symmetry_Int_Tables_number       1
_symmetry_cell_setting            triclinic
loop_
_symmetry_equiv_pos_as_xyz
'x, y, z'
_cell_length_a     21.458211
_cell_length_b     18.641757
_cell_length_c     15.182718
_cell_angle_alpha  109.40966
_cell_angle_beta   103.67323
_cell_angle_gamma 113.15576
loop_
_atom_site_label
_atom_site_type_symbol
_atom_site_fract_x
_atom_site_fract_y
_atom_site_fract_z
_atom_type_partial_charge
C0 C 0.80948 0.83689 0.93516 0.0
C1 C 0.77971 0.76235 0.95092 0.0
C2 C 0.72303 0.74648 0.98559 0.0
C3 C 0.69726 0.80543 0.00649 0.0
C4 C 0.72318 0.87659 0.98602 0.0
C5 C 0.77964 0.89286 0.95089 0.0
O6 O 0.05631 0.93814 0.10117 0.0
Tb7 Tb 0.99435 0.87428 0.93525 0.0
Tb8 Tb 0.09402 0.0979 0.04675 0.0
O9 O 0.99384 0.75351 0.92081 0.0
O10 O 0.04379 0.05966 0.14427 0.0
O11 O 0.87859 0.78809 0.85427 0.0
C12 C 0.21943 0.11136 0.08713 0.0
O13 O 0.92777 0.93148 0.94709 0.0
O14 O 1.03181 0.03681 0.88165 0.0
O15 O 1.0405 0.91228 0.83426 0.0
C16 C 0.86618 0.85297 0.89309 0.0
C17 C 1.04037 0.22556 0.03226 0.0
O18 O 0.9754 0.1559 0.00295 0.0
C19 C 0.04892 -0.00141 0.16518 0.0
C20 C 1.03706 0.97515 0.81573 0.0
O21 O 0.10129 0.2214 0.06036 0.0
C22 C 0.27605 0.12754 0.04508 0.0
C23 C 0.36049 0.08611 -0.00976 0.0
C24 C 0.30613 0.07178 0.02934 0.0
C25 C 0.30183 0.19881 0.02286 0.0
C26 C 0.35658 0.21348 0.98455 0.0
C27 C 0.38506 0.15693 0.96871 0.0
C28 C 0.05553 0.75797 0.97131 0.0
O29 O 0.11816 0.83533 0.02394 0.0
O30 O 0.2101 0.17799 0.13099 0.0
O31 O 0.15603 0.03501 0.02947 0.0
H32 H 0.79812 0.71502 0.93264 0.0
H33 H 0.65088 0.7904 0.02848 0.0
H34 H 0.79815 0.94667 0.93211 0.0
H35 H 0.28748 0.01774 0.04772 0.0
H36 H 0.28007 0.24303 0.03595 0.0
H37 H 0.43021 0.1712 0.94438 0.0
H38 H 0.15907 0.36578 0.0461 0.0
H39 H 0.9294 0.26481 0.00353 0.0
H40 H 0.16252 0.49165 0.02651 0.0
H41 H 0.93347 0.39227 -0.01215 0.0
H42 H 0.93871 0.58509 0.86437 0.0
H43 H 0.93591 0.4571 0.87791 0.0
H44 H 0.16535 0.6253 0.10699 0.0
H45 H 0.16879 0.75188 0.09041 0.0
C46 C 0.10956 0.37102 0.03388 0.0
C47 C 0.04399 0.30512 0.0265 0.0
C48 C 0.11154 0.44355 0.02295 0.0
C49 C 0.04821 0.45266 0.0053 0.0
C50 C 0.98295 0.38706 -0.00071 0.0
C51 C 0.98078 0.31414 0.00926 0.0
C52 C 0.98868 0.59452 0.91703 0.0
C53 C 0.05398 0.67885 0.97602 0.0
C54 C 0.98696 0.52117 0.92557 0.0
C55 C 0.05034 0.53034 -0.00605 0.0
C56 C 0.11574 0.61483 0.05229 0.0
C57 C 0.1176 0.68786 0.04315 0.0
H58 H 0.61148 0.83408 0.81762 0.0
H59 H 0.72976 0.00621 0.14572 0.0
H60 H 0.51353 0.86936 0.8131 0.0
H61 H 0.63446 0.04751 0.14176 0.0
H62 H 0.42278 0.04382 0.12996 0.0
H63 H 0.51152 -0.00721 0.12557 0.0
H64 H 0.47796 0.97108 0.82318 0.0
H65 H 0.38592 0.01493 0.82513 0.0
C66 C 0.61791 0.88287 0.88806 0.0
C67 C 0.67866 0.91938 0.9815 0.0
C68 C 0.56155 0.9028 0.88593 0.0
C69 C 0.5653 0.96094 0.97726 0.0
C70 C 0.62849 0.00083 0.07023 0.0
C71 C 0.68414 0.97922 0.07248 0.0
C72 C 0.43248 0.02468 0.06122 0.0
C73 C 0.39803 0.03395 0.97828 0.0
C74 C 0.48465 -0.00252 0.05946 0.0
C75 C 0.5038 0.97999 0.97515 0.0
C76 C 0.46499 -0.01658 0.88942 0.0
C77 C 0.41216 0.0089 0.89052 0.0
H78 H 0.3817 0.21598 0.81845 0.0
H79 H 0.41394 0.38731 0.11928 0.0
H80 H 0.47447 0.34181 0.81673 0.0
H81 H 0.50323 0.51572 0.1149 0.0
H82 H 0.72534 0.7082 0.14385 0.0
H83 H 0.62742 0.57856 0.1364 0.0
H84 H 0.5134 0.47063 0.80656 0.0
H85 H 0.61405 0.59697 0.81471 0.0
C86 C 0.40683 0.28149 0.88265 0.0
C87 C 0.39164 0.29187 0.96969 0.0
C88 C 0.46014 0.35397 0.88178 0.0
C89 C 0.49819 0.43915 0.96695 0.0
C90 C 0.47713 0.45068 0.04956 0.0
C91 C 0.42458 0.37753 0.05118 0.0
C92 C 0.68071 0.65451 0.0697 0.0
C93 C 0.67781 0.66055 0.97949 0.0
C94 C 0.62355 0.58141 0.06538 0.0
C95 C 0.56141 0.51441 0.97102 0.0
C96 C 0.56046 0.51979 0.88044 0.0
C97 C 0.61839 0.59178 0.88467 0.0
H98 H 1.0106 0.8417 0.63779 0.0
H99 H 0.06785 0.11523 0.77839 0.0
H100 H 1.01144 0.84727 0.47972 0.0
H101 H 0.07186 0.12217 0.62283 0.0
H102 H 1.00113 0.08155 0.29484 0.0
H103 H 0.99577 0.07344 0.4503 0.0
H104 H 0.09326 0.90786 0.41041 0.0
H105 H 0.09556 0.91302 0.25352 0.0
C106 C 1.02393 0.90312 0.63514 0.0
C107 C 1.03876 0.97776 0.72018 0.0
C108 C 1.02482 0.90661 0.54481 0.0
C109 C 0.04165 -0.01476 0.53828 0.0
C110 C 0.05715 0.06 0.62408 0.0
C111 C 0.05531 0.05615 0.71365 0.0
C112 C 1.02158 0.04375 0.31972 0.0
C113 C 0.04871 -0.00201 0.26208 0.0
C114 C 1.01878 0.03924 0.40897 0.0
C115 C 0.04394 -0.01025 0.44299 0.0
C116 C 0.07195 0.94504 0.38562 0.0
C117 C 0.07385 0.94865 0.29596 0.0
loop_
_geom_bond_atom_site_label_1
_geom_bond_atom_site_label_2
_geom_bond_distance
_geom_bond_site_symmetry_2
_ccdc_geom_bond_type
C0 C1 1.386 . S
C0 C5 1.384 . S
C0 C16 1.497 . S
C1 C0 1.386 . S
C1 C2 1.393 1_556 S
C1 H32 0.932 . S
C2 C1 1.393 1_554 S
C2 C3 1.387 . S
C3 C2 1.387 . S
C3 C4 1.392 1_554 S
C3 H33 0.930 . S
C4 C3 1.392 1_556 S
C4 C5 1.402 . S
C5 C0 1.384 . S
C5 C4 1.402 . S
C5 H34 0.930 . S
O6 Tb7 2.288 1_554 S
O6 C19 1.257 1_665 S
Tb7 O6 2.288 1_556 S
Tb7 O9 2.303 . S
Tb7 O11 2.430 . S
Tb7 O13 2.459 . S
Tb7 O15 2.301 . S
Tb7 C16 2.808 . S
Tb8 O10 2.301 . S
Tb8 C12 2.808 . S
Tb8 O14 2.288 1_554 S
Tb8 O21 2.303 . S
Tb8 O30 2.430 . S
Tb8 O31 2.459 . S
O9 Tb7 2.303 . S
O9 C28 1.255 1_655 S
O10 Tb8 2.301 . S
O10 C19 1.237 . S
O11 Tb7 2.430 . S
O11 C16 1.248 . S
C12 Tb8 2.808 . S
C12 C22 1.497 . S
C12 O30 1.248 . S
C12 O31 1.260 . S
O13 Tb7 2.459 . S
O13 C16 1.260 . S
O14 Tb8 2.288 1_556 S
O14 C20 1.257 1_445 S
O15 Tb7 2.301 . S
O15 C20 1.237 . S
C16 C0 1.497 . S
C16 Tb7 2.808 . S
C16 O11 1.248 . S
C16 O13 1.260 . S
C17 O18 1.255 . S
C17 O21 1.255 1_655 S
O18 C17 1.255 . S
C19 O6 1.257 1_445 S
C19 O10 1.237 . S
C20 O14 1.257 1_665 S
C20 O15 1.237 . S
O21 Tb8 2.303 . S
O21 C17 1.255 1_455 S
C22 C12 1.497 . S
C22 C24 1.384 . S
C22 C25 1.386 . S
C23 C24 1.402 . S
C23 C27 1.392 1_554 S
C24 C22 1.384 . S
C24 C23 1.402 . S
C24 H35 0.930 . S
C25 C22 1.386 . S
C25 C26 1.393 1_554 S
C25 H36 0.932 . S
C26 C25 1.393 1_556 S
C26 C27 1.387 . S
C27 C23 1.392 1_556 S
C27 C26 1.387 . S
C27 H37 0.930 . S
C28 O9 1.255 1_455 S
C28 O29 1.255 . S
O29 C28 1.255 . S
O30 Tb8 2.430 . S
O30 C12 1.248 . S
O31 Tb8 2.459 . S
O31 C12 1.260 . S
H32 C1 0.932 . S
H33 C3 0.930 . S
H34 C5 0.930 . S
H35 C24 0.930 . S
H36 C25 0.932 . S
H37 C27 0.930 . S
H38 C46 0.950 . S
H39 C51 0.950 . S
H40 C48 0.950 . S
H41 C50 0.950 . S
H42 C52 0.950 . S
H43 C54 0.950 . S
H44 C56 0.950 . S
H45 C57 0.950 . S
C46 H38 0.950 . S
C46 C47 1.386 1_456 S
C46 C48 1.391 . S
C47 C46 1.386 1_654 S
C47 C51 1.393 . S
C48 H40 0.950 . S
C48 C46 1.391 . S
C48 C49 1.400 1_456 S
C49 C48 1.400 1_654 S
C49 C50 1.398 . S
C49 C55 1.491 1_654 S
C50 H41 0.950 . S
C50 C49 1.398 . S
C50 C51 1.391 . S
C51 H39 0.950 . S
C51 C47 1.393 . S
C51 C50 1.391 . S
C52 H42 0.950 . S
C52 C53 1.386 1_654 S
C52 C54 1.391 . S
C53 C52 1.386 1_456 S
C53 C57 1.393 . S
C54 H43 0.950 . S
C54 C52 1.391 . S
C54 C55 1.400 1_654 S
C55 C49 1.491 1_456 S
C55 C54 1.400 1_456 S
C55 C56 1.398 . S
C56 H44 0.950 . S
C56 C55 1.398 . S
C56 C57 1.391 . S
C57 H45 0.950 . S
C57 C53 1.393 . S
C57 C56 1.391 . S
H58 C66 0.950 . S
H59 C71 0.950 . S
H60 C68 0.950 . S
H61 C70 0.950 . S
H62 C72 0.950 . S
H63 C74 0.950 . S
H64 C76 0.950 . S
H65 C77 0.950 . S
C66 H58 0.950 . S
C66 C67 1.386 . S
C66 C68 1.391 . S
C67 C66 1.386 . S
C67 C71 1.393 1_566 S
C68 H60 0.950 . S
C68 C66 1.391 . S
C68 C69 1.400 . S
C69 C68 1.400 . S
C69 C70 1.398 1_566 S
C69 C75 1.491 1_566 S
C70 H61 0.950 . S
C70 C69 1.398 1_544 S
C70 C71 1.391 . S
C71 H59 0.950 . S
C71 C67 1.393 1_544 S
C71 C70 1.391 . S
C72 H62 0.950 . S
C72 C73 1.386 . S
C72 C74 1.391 . S
C73 C72 1.386 . S
C73 C77 1.393 1_544 S
C74 H63 0.950 . S
C74 C72 1.391 . S
C74 C75 1.400 . S
C75 C69 1.491 1_544 S
C75 C74 1.400 . S
C75 C76 1.398 1_544 S
C76 H64 0.950 . S
C76 C75 1.398 1_566 S
C76 C77 1.391 . S
C77 H65 0.950 . S
C77 C73 1.393 1_566 S
C77 C76 1.391 . S
H78 C86 0.950 . S
H79 C91 0.950 . S
H80 C88 0.950 . S
H81 C90 0.950 . S
H82 C92 0.950 . S
H83 C94 0.950 . S
H84 C96 0.950 . S
H85 C97 0.950 . S
C86 H78 0.950 . S
C86 C87 1.386 . S
C86 C88 1.391 . S
C87 C86 1.386 . S
C87 C91 1.393 1_556 S
C88 H80 0.950 . S
C88 C86 1.391 . S
C88 C89 1.400 . S
C89 C88 1.400 . S
C89 C90 1.398 1_556 S
C89 C95 1.491 1_556 S
C90 H81 0.950 . S
C90 C89 1.398 1_554 S
C90 C91 1.391 . S
C91 H79 0.950 . S
C91 C87 1.393 1_554 S
C91 C90 1.391 . S
C92 H82 0.950 . S
C92 C93 1.386 . S
C92 C94 1.391 . S
C93 C92 1.386 . S
C93 C97 1.393 1_554 S
C94 H83 0.950 . S
C94 C92 1.391 . S
C94 C95 1.400 . S
C95 C89 1.491 1_554 S
C95 C94 1.400 . S
C95 C96 1.398 1_554 S
C96 H84 0.950 . S
C96 C95 1.398 1_556 S
C96 C97 1.391 . S
C97 H85 0.950 . S
C97 C93 1.393 1_556 S
C97 C96 1.391 . S
H98 C106 0.948 . S
H99 C111 0.950 . S
H100 C108 0.950 . S
H101 C110 0.950 . S
H102 C112 0.950 . S
H103 C114 0.950 . S
H104 C116 0.950 . S
H105 C117 0.950 . S
C106 H98 0.948 . S
C106 C107 1.393 1_665 S
C106 C108 1.386 . S
C107 C106 1.393 1_445 S
C107 C111 1.393 . S
C108 H100 0.950 . S
C108 C106 1.386 . S
C108 C109 1.387 1_665 S
C109 C108 1.387 1_445 S
C109 C110 1.409 . S
C109 C115 1.495 1_445 S
C110 H101 0.950 . S
C110 C109 1.409 . S
C110 C111 1.391 . S
C111 H99 0.950 . S
C111 C107 1.393 . S
C111 C110 1.391 . S
C112 H102 0.950 . S
C112 C113 1.386 1_445 S
C112 C114 1.391 . S
C113 C112 1.386 1_665 S
C113 C117 1.393 . S
C114 H103 0.950 . S
C114 C112 1.391 . S
C114 C115 1.392 1_445 S
C115 C109 1.495 1_665 S
C115 C114 1.392 1_665 S
C115 C116 1.405 . S
C116 H104 0.950 . S
C116 C115 1.405 . S
C116 C117 1.391 . S
C117 H105 0.950 . S
C117 C113 1.393 . S
C117 C116 1.391 . S
C47 C17 0.450 . S
C53 C28 0.450 . S
C67 C4 2.072 . S
C73 C23 2.072 . S
C87 C26 1.849 . S
C93 C2 1.849 . S
C107 C20 1.495 1_445 S
C113 C19 1.495 1_665 S
