# Generated by pormake.
# Topology smc, (6)-cn, num edge types: 1
# Building blocks:
#     Node 0, Type 0, BuildingBlock: LEVNOQ01_clean_sbu_1, # of connection points: 6
#     Node 1, Type 0, BuildingBlock: LEVNOQ01_clean_sbu_1, # of connection points: 6
#     Node 2, Type 0, BuildingBlock: LEVNOQ01_clean_sbu_1, # of connection points: 6
#     Node 3, Type 0, BuildingBlock: LEVNOQ01_clean_sbu_1, # of connection points: 6
#     Node 4, Type 0, BuildingBlock: LEVNOQ01_clean_sbu_1, # of connection points: 6
#     Node 5, Type 0, BuildingBlock: LEVNOQ01_clean_sbu_1, # of connection points: 6
#     Node 6, Type 0, BuildingBlock: LEVNOQ01_clean_sbu_1, # of connection points: 6
#     Node 7, Type 0, BuildingBlock: LEVNOQ01_clean_sbu_1, # of connection points: 6
#     Node 8, Type 0, BuildingBlock: LEVNOQ01_clean_sbu_1, # of connection points: 6
#     Edge 9, Type (0, 0), None
#     Edge 10, Type (0, 0), None
#     Edge 11, Type (0, 0), None
#     Edge 12, Type (0, 0), None
#     Edge 13, Type (0, 0), None
#     Edge 14, Type (0, 0), None
#     Edge 15, Type (0, 0), None
#     Edge 16, Type (0, 0), None
#     Edge 17, Type (0, 0), None
#     Edge 18, Type (0, 0), None
#     Edge 19, Type (0, 0), None
#     Edge 20, Type (0, 0), None
#     Edge 21, Type (0, 0), None
#     Edge 22, Type (0, 0), None
#     Edge 23, Type (0, 0), None
#     Edge 24, Type (0, 0), None
#     Edge 25, Type (0, 0), None
#     Edge 26, Type (0, 0), None
#     Edge 27, Type (0, 0), None
#     Edge 28, Type (0, 0), None
#     Edge 29, Type (0, 0), None
#     Edge 30, Type (0, 0), None
#     Edge 31, Type (0, 0), None
#     Edge 32, Type (0, 0), None
#     Edge 33, Type (0, 0), None
#     Edge 34, Type (0, 0), None
#     Edge 35, Type (0, 0), None
# Relax obj value: 0.155
# Max RMSD: 0.233
# Mean RMSD: 0.233
data_MOF--net-smc--node1-LEVNOQ01_clean_sbu_1--edge1-none
_symmetry_space_group_name_H-M    P1
_symmetry_Int_Tables_number       1
_symmetry_cell_setting            triclinic
loop_
_symmetry_equiv_pos_as_xyz
'x, y, z'
_cell_length_a     14.477407
_cell_length_b     14.565912
_cell_length_c     18.138147
_cell_angle_alpha  89.96816
_cell_angle_beta   90.692244
_cell_angle_gamma 120.22723
loop_
_atom_site_label
_atom_site_type_symbol
_atom_site_fract_x
_atom_site_fract_y
_atom_site_fract_z
_atom_type_partial_charge
O0 O 0.83268 0.30432 0.21352 0.0
Mg1 Mg 0.93526 0.46872 0.2409 0.0
O2 O 0.85206 0.30226 0.09172 0.0
Mg3 Mg -0.02012 0.47556 0.05772 0.0
O4 O 0.05565 0.51114 0.17274 0.0
O5 O 0.08469 0.51954 0.29204 0.0
O6 O 0.10994 0.65354 1.02367 0.0
O7 O 0.10775 0.43044 1.02361 0.0
Mg8 Mg 0.02418 0.5144 0.87429 0.0
O9 O 0.90455 0.4349 0.94271 0.0
O10 O 0.09763 0.67482 0.90306 0.0
O11 O 0.12753 0.45342 0.90187 0.0
O12 O 0.87424 0.4153 0.8236 0.0
C13 C 0.81993 0.55173 0.14958 0.0
C14 C 0.80729 0.25543 0.15161 0.0
C15 C 0.11385 0.5103 0.2272 0.0
C16 C 0.13903 0.71229 0.96587 0.0
C17 C 0.15275 0.42925 0.96364 0.0
C18 C 0.84548 0.37644 0.88839 0.0
O19 O 0.86065 0.55466 0.2125 0.0
O20 O 0.84962 0.52308 0.09163 0.0
O21 O 0.51538 0.67537 0.90326 0.0
Mg22 Mg 0.45133 0.51187 0.87419 0.0
O23 O 0.53783 0.6745 1.02516 0.0
Mg24 Mg 0.49235 0.50034 0.05739 0.0
O25 O 0.53032 0.46799 0.94175 0.0
O26 O 0.54872 0.46281 0.82231 0.0
O27 O 0.44448 0.32165 0.08988 0.0
O28 O 0.66718 0.54611 0.09148 0.0
Mg29 Mg 0.50339 0.45903 0.2406 0.0
O30 O 0.46096 0.5385 0.17311 0.0
O31 O 0.41374 0.29915 0.21039 0.0
O32 O 0.66776 0.5215 0.213 0.0
O33 O 0.45398 0.55618 0.29253 0.0
C34 C 0.25312 0.42576 0.96487 0.0
C35 C 0.53949 0.72267 0.96573 0.0
C36 C 0.58798 0.4693 0.88726 0.0
C37 C 0.41586 0.26235 0.14746 0.0
C38 C 0.71547 0.54688 0.15122 0.0
C39 C 0.45921 0.59444 0.2279 0.0
O40 O 0.29008 0.42587 0.90175 0.0
O41 O 0.31265 0.45222 1.02325 0.0
O42 O 0.29093 0.8345 0.90216 0.0
Mg43 Mg 0.45557 0.93577 0.87482 0.0
O44 O 0.29241 0.85908 1.02372 0.0
Mg45 Mg 0.4674 -0.01196 0.0577 0.0
O46 O 0.50029 0.05846 0.94202 0.0
O47 O 0.50566 0.08217 0.82246 0.0
O48 O 0.64706 0.11927 0.09195 0.0
O49 O 0.42188 0.11658 0.0899 0.0
Mg50 Mg 0.50876 0.04029 0.24107 0.0
O51 O 0.42838 0.91806 0.17334 0.0
O52 O 0.6699 0.11421 0.21328 0.0
O53 O 0.44531 0.1403 0.21179 0.0
O54 O 0.41095 0.89342 0.29268 0.0
C55 C 0.54338 0.82623 0.96763 0.0
C56 C 0.24359 0.81192 0.96406 0.0
C57 C 0.50108 0.1156 0.88706 0.0
C58 C 0.70678 0.15162 0.15024 0.0
C59 C 0.42055 0.16313 0.14937 0.0
C60 C 0.37134 0.86091 0.22778 0.0
O61 O 0.54438 0.86455 0.90461 0.0
O62 O 0.51531 0.85708 1.02537 0.0
O63 O 0.79373 0.78468 0.23524 0.0
Mg64 Mg 0.69135 0.84677 0.20784 0.0
O65 O 0.77464 0.76359 0.35707 0.0
Mg66 Mg 0.64683 0.80899 0.39096 0.0
O67 O 0.57089 0.76894 0.27601 0.0
O68 O 0.54177 0.74863 0.15668 0.0
O69 O 0.51687 0.85672 0.42487 0.0
O70 O 0.51893 0.63583 0.42521 0.0
Mg71 Mg 0.60259 0.80346 0.57438 0.0
O72 O 0.72216 0.84374 0.50593 0.0
O73 O 0.52937 0.89053 0.54543 0.0
O74 O 0.49917 0.63899 0.54695 0.0
O75 O 0.75258 0.85451 0.62503 0.0
C76 C 0.80687 0.04528 0.29896 0.0
C77 C 0.81927 0.76137 0.2972 0.0
C78 C 0.51266 0.71009 0.22152 0.0
C79 C 0.48787 0.88642 0.48262 0.0
C80 C 0.47394 0.58958 0.48521 0.0
C81 C 0.78126 0.84439 0.56024 0.0
O82 O 0.76633 0.0074 0.23603 0.0
O83 O 0.77709 -0.01305 0.35696 0.0
O84 O 0.18179 0.00815 0.2368 0.0
Mg85 Mg 0.11785 0.84449 0.20784 0.0
O86 O 0.20497 0.00763 0.35863 0.0
Mg87 Mg 0.15941 0.83348 0.39088 0.0
O88 O 0.19717 0.80081 0.27524 0.0
O89 O 0.21503 0.79532 0.15573 0.0
O90 O 0.11147 0.65479 0.4235 0.0
O91 O 0.3344 0.87949 0.42474 0.0
Mg92 Mg 0.17156 0.79314 0.57406 0.0
O93 O 0.12837 0.87205 0.50659 0.0
O94 O 0.08232 0.63309 0.54422 0.0
O95 O 0.33597 0.85626 0.54637 0.0
O96 O 0.12154 0.88973 0.62603 0.0
C97 C 0.91978 0.7581 0.29857 0.0
C98 C 0.20633 0.05567 0.29921 0.0
C99 C 0.25457 0.80199 0.22061 0.0
C100 C 0.08346 0.59584 0.48124 0.0
C101 C 0.38323 0.88114 0.48442 0.0
C102 C 0.12622 0.92776 0.5614 0.0
O103 O 0.95667 0.75787 0.2355 0.0
O104 O -0.0205 0.78514 0.3569 0.0
O105 O 0.95881 0.1678 0.23551 0.0
Mg106 Mg 0.12334 0.26933 0.20826 0.0
O107 O 0.9597 0.19233 0.35706 0.0
Mg108 Mg 0.13451 0.32129 0.39127 0.0
O109 O 0.16746 0.39171 0.27562 0.0
O110 O 0.17286 0.41571 0.15604 0.0
O111 O 0.31405 0.45268 0.42567 0.0
O112 O 0.08911 0.44991 0.4236 0.0
Mg113 Mg 0.17531 0.37327 0.57482 0.0
O114 O 0.09535 0.25116 0.5069 0.0
O115 O 0.33664 0.44846 0.54712 0.0
O116 O 0.11166 0.47304 0.54558 0.0
O117 O 0.07725 0.2262 0.62618 0.0
C118 C 0.2106 0.15943 0.30112 0.0
C119 C 0.91122 0.14512 0.29733 0.0
C120 C 0.16793 0.44875 0.2207 0.0
C121 C 0.37358 0.48561 0.48403 0.0
C122 C 0.08745 0.49625 0.48311 0.0
C123 C 0.03785 0.19401 0.5612 0.0
O124 O 0.21204 0.198 0.23813 0.0
O125 O 0.1824 0.19027 0.35882 0.0
O126 O 0.45941 0.11838 0.56816 0.0
Mg127 Mg 0.3569 0.18034 0.54095 0.0
O128 O 0.44066 0.09726 0.69002 0.0
Mg129 Mg 0.31275 0.14247 0.72423 0.0
O130 O 0.23665 0.10262 0.60931 0.0
O131 O 0.20717 0.08184 0.49003 0.0
O132 O 0.1827 0.19011 0.75841 0.0
O133 O 0.18486 0.96942 0.7585 0.0
Mg134 Mg 0.26867 0.13653 0.90782 0.0
O135 O 0.38809 0.17693 0.8392 0.0
O136 O 0.19431 0.22269 0.87913 0.0
O137 O 0.16558 0.97222 0.88032 0.0
O138 O 0.4187 0.18737 0.95833 0.0
C139 C 0.4732 0.37869 0.6322 0.0
C140 C 0.48525 0.09522 0.63006 0.0
C141 C 0.17851 0.04335 0.55493 0.0
C142 C 0.15317 0.21908 0.81626 0.0
C143 C 0.1401 0.92302 0.81851 0.0
C144 C 0.44715 0.17731 0.89345 0.0
O145 O 0.43251 0.34099 0.56926 0.0
O146 O 0.44316 0.32035 0.69019 0.0
O147 O 0.84986 0.34299 0.57 0.0
Mg148 Mg 0.78506 0.17933 0.54092 0.0
O149 O 0.87097 0.34116 0.69197 0.0
Mg150 Mg 0.82522 0.16688 0.72401 0.0
O151 O 0.8636 0.13472 0.60837 0.0
O152 O 0.88184 0.12962 0.48888 0.0
O153 O 0.77717 -0.01197 0.75643 0.0
O154 O 0.00012 0.21284 0.75814 0.0
Mg155 Mg 0.83612 0.12555 0.90709 0.0
O156 O 0.79356 0.20501 0.83969 0.0
O157 O 0.74627 0.96564 0.87692 0.0
O158 O 0.0007 0.1883 0.87966 0.0
O159 O 0.7863 0.22232 0.95915 0.0
C160 C 0.58615 0.09263 0.63127 0.0
C161 C 0.87353 0.38989 0.63262 0.0
C162 C 0.92105 0.13579 0.55381 0.0
C163 C 0.74832 0.92872 0.81402 0.0
C164 C 0.04847 0.21379 0.8179 0.0
C165 C 0.79161 0.26073 0.89457 0.0
O166 O 0.62358 0.09374 0.56815 0.0
O167 O 0.64538 0.11857 0.68979 0.0
O168 O 0.77635 0.80597 0.87863 0.0
Mg169 Mg 0.84092 0.70697 0.90776 0.0
O170 O 0.75499 0.78312 0.75666 0.0
Mg171 Mg 0.80073 0.65461 0.72461 0.0
O172 O 0.76236 0.58404 0.84021 0.0
O173 O 0.74391 0.56037 0.95969 0.0
O174 O 0.84881 0.52387 0.69221 0.0
O175 O 0.62596 0.52565 0.6904 0.0
Mg176 Mg 0.79041 0.60272 0.54154 0.0
O177 O 0.83269 0.72457 0.60898 0.0
O178 O 0.88046 0.53299 0.57181 0.0
O179 O 0.62583 0.50055 0.56894 0.0
O180 O 0.84036 0.74948 0.48954 0.0
C181 C 0.03955 0.8193 0.81733 0.0
C182 C 0.75257 0.82924 0.81604 0.0
C183 C 0.70473 0.52764 0.89472 0.0
C184 C 0.87802 0.49372 0.6347 0.0
C185 C 0.57785 0.4782 0.63063 0.0
C186 C 0.83493 0.78243 0.55411 0.0
O187 O 0.00228 0.7827 0.88046 0.0
O188 O -0.01972 0.78611 0.75885 0.0
loop_
_geom_bond_atom_site_label_1
_geom_bond_atom_site_label_2
_geom_bond_distance
_geom_bond_site_symmetry_2
_ccdc_geom_bond_type
O0 Mg1 1.990 . S
O0 C14 1.253 . S
Mg1 O0 1.990 . S
Mg1 O4 2.180 . S
Mg1 O5 2.117 . S
Mg1 O19 2.030 . S
O2 Mg3 2.072 1_656 S
O2 C14 1.260 1_556 S
Mg3 O2 2.072 1_454 S
Mg3 O4 2.099 1_455 S
Mg3 O6 2.079 . S
Mg3 O7 2.072 . S
Mg3 O9 2.099 1_554 S
Mg3 O20 2.079 1_455 S
O4 Mg1 2.180 . S
O4 Mg3 2.099 1_655 S
O4 C15 1.279 1_655 S
O5 Mg1 2.117 . S
O5 C15 1.250 1_655 S
O6 Mg3 2.079 . S
O6 C16 1.264 1_554 S
O7 Mg3 2.072 . S
O7 C17 1.260 1_554 S
Mg8 O9 2.180 . S
Mg8 O10 2.030 . S
Mg8 O11 1.990 . S
Mg8 O12 2.117 . S
O9 Mg3 2.099 1_556 S
O9 Mg8 2.180 . S
O9 C18 1.279 . S
O10 Mg8 2.030 . S
O10 C16 1.248 . S
O11 Mg8 1.990 . S
O11 C17 1.253 . S
O12 Mg8 2.117 . S
O12 C18 1.250 . S
C13 O19 1.248 . S
C13 O20 1.264 . S
C14 O0 1.253 . S
C14 O2 1.260 1_554 S
C15 O4 1.279 1_455 S
C15 O5 1.250 1_455 S
C16 O6 1.264 1_556 S
C16 O10 1.248 . S
C17 O7 1.260 1_556 S
C17 O11 1.253 . S
C18 O9 1.279 . S
C18 O12 1.250 . S
O19 Mg1 2.030 . S
O19 C13 1.248 . S
O20 Mg3 2.079 1_655 S
O20 C13 1.264 . S
O21 Mg22 1.990 . S
O21 C35 1.253 . S
Mg22 O21 1.990 . S
Mg22 O25 2.180 . S
Mg22 O26 2.117 . S
Mg22 O40 2.030 . S
O23 Mg24 2.072 . S
O23 C35 1.260 1_554 S
Mg24 O23 2.072 . S
Mg24 O25 2.099 1_554 S
Mg24 O27 2.079 . S
Mg24 O28 2.072 1_554 S
Mg24 O30 2.099 . S
Mg24 O41 2.079 . S
O25 Mg22 2.180 . S
O25 Mg24 2.099 1_556 S
O25 C36 1.279 . S
O26 Mg22 2.117 . S
O26 C36 1.250 . S
O27 Mg24 2.079 . S
O27 C37 1.264 . S
O28 Mg24 2.072 1_556 S
O28 C38 1.260 1_556 S
Mg29 O30 2.180 . S
Mg29 O31 2.030 . S
Mg29 O32 1.990 . S
Mg29 O33 2.117 . S
O30 Mg24 2.099 . S
O30 Mg29 2.180 . S
O30 C39 1.279 . S
O31 Mg29 2.030 . S
O31 C37 1.248 . S
O32 Mg29 1.990 . S
O32 C38 1.253 . S
O33 Mg29 2.117 . S
O33 C39 1.250 . S
C34 O40 1.248 . S
C34 O41 1.264 1_556 S
C35 O21 1.253 . S
C35 O23 1.260 1_556 S
C36 O25 1.279 . S
C36 O26 1.250 . S
C37 O27 1.264 . S
C37 O31 1.248 . S
C38 O28 1.260 1_554 S
C38 O32 1.253 . S
C39 O30 1.279 . S
C39 O33 1.250 . S
O40 Mg22 2.030 . S
O40 C34 1.248 . S
O41 Mg24 2.079 . S
O41 C34 1.264 1_554 S
O42 Mg43 1.990 . S
O42 C56 1.253 . S
Mg43 O42 1.990 . S
Mg43 O46 2.180 . S
Mg43 O47 2.117 . S
Mg43 O61 2.030 . S
O44 Mg45 2.072 1_565 S
O44 C56 1.260 1_554 S
Mg45 O44 2.072 1_545 S
Mg45 O46 2.099 1_544 S
Mg45 O48 2.079 . S
Mg45 O49 2.072 1_554 S
Mg45 O51 2.099 . S
Mg45 O62 2.079 1_545 S
O46 Mg43 2.180 . S
O46 Mg45 2.099 1_566 S
O46 C57 1.279 1_565 S
O47 Mg43 2.117 . S
O47 C57 1.250 1_565 S
O48 Mg45 2.079 . S
O48 C58 1.264 . S
O49 Mg45 2.072 1_556 S
O49 C59 1.260 1_556 S
Mg50 O51 2.180 . S
Mg50 O52 2.030 . S
Mg50 O53 1.990 . S
Mg50 O54 2.117 . S
O51 Mg45 2.099 . S
O51 Mg50 2.180 . S
O51 C60 1.279 . S
O52 Mg50 2.030 . S
O52 C58 1.248 . S
O53 Mg50 1.990 . S
O53 C59 1.253 . S
O54 Mg50 2.117 . S
O54 C60 1.250 . S
C55 O61 1.248 . S
C55 O62 1.264 1_556 S
C56 O42 1.253 . S
C56 O44 1.260 1_556 S
C57 O46 1.279 1_545 S
C57 O47 1.250 1_545 S
C58 O48 1.264 . S
C58 O52 1.248 . S
C59 O49 1.260 1_554 S
C59 O53 1.253 . S
C60 O51 1.279 . S
C60 O54 1.250 . S
O61 Mg43 2.030 . S
O61 C55 1.248 . S
O62 Mg45 2.079 1_565 S
O62 C55 1.264 1_554 S
O63 Mg64 1.990 . S
O63 C77 1.253 . S
Mg64 O63 1.990 . S
Mg64 O67 2.180 . S
Mg64 O68 2.117 . S
Mg64 O82 2.030 1_565 S
O65 Mg66 2.072 . S
O65 C77 1.260 . S
Mg66 O65 2.072 . S
Mg66 O67 2.099 . S
Mg66 O69 2.079 . S
Mg66 O70 2.072 . S
Mg66 O72 2.099 . S
Mg66 O83 2.079 . S
O67 Mg64 2.180 . S
O67 Mg66 2.099 . S
O67 C78 1.279 . S
O68 Mg64 2.117 . S
O68 C78 1.250 . S
O69 Mg66 2.079 . S
O69 C79 1.264 . S
O70 Mg66 2.072 . S
O70 C80 1.260 . S
Mg71 O72 2.180 . S
Mg71 O73 2.030 . S
Mg71 O74 1.990 . S
Mg71 O75 2.117 . S
O72 Mg66 2.099 . S
O72 Mg71 2.180 . S
O72 C81 1.279 . S
O73 Mg71 2.030 . S
O73 C79 1.248 . S
O74 Mg71 1.990 . S
O74 C80 1.253 . S
O75 Mg71 2.117 . S
O75 C81 1.250 . S
C76 O82 1.248 . S
C76 O83 1.264 1_545 S
C77 O63 1.253 . S
C77 O65 1.260 . S
C78 O67 1.279 . S
C78 O68 1.250 . S
C79 O69 1.264 . S
C79 O73 1.248 . S
C80 O70 1.260 . S
C80 O74 1.253 . S
C81 O72 1.279 . S
C81 O75 1.250 . S
O82 Mg64 2.030 1_545 S
O82 C76 1.248 . S
O83 Mg66 2.079 . S
O83 C76 1.264 1_565 S
O84 Mg85 1.990 1_545 S
O84 C98 1.253 . S
Mg85 O84 1.990 1_565 S
Mg85 O88 2.180 . S
Mg85 O89 2.117 . S
Mg85 O103 2.030 1_455 S
O86 Mg87 2.072 1_545 S
O86 C98 1.260 . S
Mg87 O86 2.072 1_565 S
Mg87 O88 2.099 . S
Mg87 O90 2.079 . S
Mg87 O91 2.072 . S
Mg87 O93 2.099 . S
Mg87 O104 2.079 . S
O88 Mg85 2.180 . S
O88 Mg87 2.099 . S
O88 C99 1.279 . S
O89 Mg85 2.117 . S
O89 C99 1.250 . S
O90 Mg87 2.079 . S
O90 C100 1.264 . S
O91 Mg87 2.072 . S
O91 C101 1.260 . S
Mg92 O93 2.180 . S
Mg92 O94 2.030 . S
Mg92 O95 1.990 . S
Mg92 O96 2.117 . S
O93 Mg87 2.099 . S
O93 Mg92 2.180 . S
O93 C102 1.279 . S
O94 Mg92 2.030 . S
O94 C100 1.248 . S
O95 Mg92 1.990 . S
O95 C101 1.253 . S
O96 Mg92 2.117 . S
O96 C102 1.250 . S
C97 O103 1.248 . S
C97 O104 1.264 1_655 S
C98 O84 1.253 . S
C98 O86 1.260 . S
C99 O88 1.279 . S
C99 O89 1.250 . S
C100 O90 1.264 . S
C100 O94 1.248 . S
C101 O91 1.260 . S
C101 O95 1.253 . S
C102 O93 1.279 . S
C102 O96 1.250 . S
O103 Mg85 2.030 1_655 S
O103 C97 1.248 . S
O104 Mg87 2.079 . S
O104 C97 1.264 1_455 S
O105 Mg106 1.990 1_655 S
O105 C119 1.253 . S
Mg106 O105 1.990 1_455 S
Mg106 O109 2.180 . S
Mg106 O110 2.117 . S
Mg106 O124 2.030 . S
O107 Mg108 2.072 1_655 S
O107 C119 1.260 . S
Mg108 O107 2.072 1_455 S
Mg108 O109 2.099 . S
Mg108 O111 2.079 . S
Mg108 O112 2.072 . S
Mg108 O114 2.099 . S
Mg108 O125 2.079 . S
O109 Mg106 2.180 . S
O109 Mg108 2.099 . S
O109 C120 1.279 . S
O110 Mg106 2.117 . S
O110 C120 1.250 . S
O111 Mg108 2.079 . S
O111 C121 1.264 . S
O112 Mg108 2.072 . S
O112 C122 1.260 . S
Mg113 O114 2.180 . S
Mg113 O115 2.030 . S
Mg113 O116 1.990 . S
Mg113 O117 2.117 . S
O114 Mg108 2.099 . S
O114 Mg113 2.180 . S
O114 C123 1.279 . S
O115 Mg113 2.030 . S
O115 C121 1.248 . S
O116 Mg113 1.990 . S
O116 C122 1.253 . S
O117 Mg113 2.117 . S
O117 C123 1.250 . S
C118 O124 1.248 . S
C118 O125 1.264 . S
C119 O105 1.253 . S
C119 O107 1.260 . S
C120 O109 1.279 . S
C120 O110 1.250 . S
C121 O111 1.264 . S
C121 O115 1.248 . S
C122 O112 1.260 . S
C122 O116 1.253 . S
C123 O114 1.279 . S
C123 O117 1.250 . S
O124 Mg106 2.030 . S
O124 C118 1.248 . S
O125 Mg108 2.079 . S
O125 C118 1.264 . S
O126 Mg127 1.990 . S
O126 C140 1.253 . S
Mg127 O126 1.990 . S
Mg127 O130 2.180 . S
Mg127 O131 2.117 . S
Mg127 O145 2.030 . S
O128 Mg129 2.072 . S
O128 C140 1.260 . S
Mg129 O128 2.072 . S
Mg129 O130 2.099 . S
Mg129 O132 2.079 . S
Mg129 O133 2.072 1_545 S
Mg129 O135 2.099 . S
Mg129 O146 2.079 . S
O130 Mg127 2.180 . S
O130 Mg129 2.099 . S
O130 C141 1.279 . S
O131 Mg127 2.117 . S
O131 C141 1.250 . S
O132 Mg129 2.079 . S
O132 C142 1.264 . S
O133 Mg129 2.072 1_565 S
O133 C143 1.260 . S
Mg134 O135 2.180 . S
Mg134 O136 2.030 . S
Mg134 O137 1.990 1_545 S
Mg134 O138 2.117 . S
O135 Mg129 2.099 . S
O135 Mg134 2.180 . S
O135 C144 1.279 . S
O136 Mg134 2.030 . S
O136 C142 1.248 . S
O137 Mg134 1.990 1_565 S
O137 C143 1.253 . S
O138 Mg134 2.117 . S
O138 C144 1.250 . S
C139 O145 1.248 . S
C139 O146 1.264 . S
C140 O126 1.253 . S
C140 O128 1.260 . S
C141 O130 1.279 . S
C141 O131 1.250 . S
C142 O132 1.264 . S
C142 O136 1.248 . S
C143 O133 1.260 . S
C143 O137 1.253 . S
C144 O135 1.279 . S
C144 O138 1.250 . S
O145 Mg127 2.030 . S
O145 C139 1.248 . S
O146 Mg129 2.079 . S
O146 C139 1.264 . S
O147 Mg148 1.990 . S
O147 C161 1.253 . S
Mg148 O147 1.990 . S
Mg148 O151 2.180 . S
Mg148 O152 2.117 . S
Mg148 O166 2.030 . S
O149 Mg150 2.072 . S
O149 C161 1.260 . S
Mg150 O149 2.072 . S
Mg150 O151 2.099 . S
Mg150 O153 2.079 . S
Mg150 O154 2.072 1_655 S
Mg150 O156 2.099 . S
Mg150 O167 2.079 . S
O151 Mg148 2.180 . S
O151 Mg150 2.099 . S
O151 C162 1.279 . S
O152 Mg148 2.117 . S
O152 C162 1.250 . S
O153 Mg150 2.079 . S
O153 C163 1.264 1_545 S
O154 Mg150 2.072 1_455 S
O154 C164 1.260 . S
Mg155 O156 2.180 . S
Mg155 O157 2.030 1_545 S
Mg155 O158 1.990 1_655 S
Mg155 O159 2.117 . S
O156 Mg150 2.099 . S
O156 Mg155 2.180 . S
O156 C165 1.279 . S
O157 Mg155 2.030 1_565 S
O157 C163 1.248 . S
O158 Mg155 1.990 1_455 S
O158 C164 1.253 . S
O159 Mg155 2.117 . S
O159 C165 1.250 . S
C160 O166 1.248 . S
C160 O167 1.264 . S
C161 O147 1.253 . S
C161 O149 1.260 . S
C162 O151 1.279 . S
C162 O152 1.250 . S
C163 O153 1.264 1_565 S
C163 O157 1.248 . S
C164 O154 1.260 . S
C164 O158 1.253 . S
C165 O156 1.279 . S
C165 O159 1.250 . S
O166 Mg148 2.030 . S
O166 C160 1.248 . S
O167 Mg150 2.079 . S
O167 C160 1.264 . S
O168 Mg169 1.990 . S
O168 C182 1.253 . S
Mg169 O168 1.990 . S
Mg169 O172 2.180 . S
Mg169 O173 2.117 . S
Mg169 O187 2.030 1_655 S
O170 Mg171 2.072 . S
O170 C182 1.260 . S
Mg171 O170 2.072 . S
Mg171 O172 2.099 . S
Mg171 O174 2.079 . S
Mg171 O175 2.072 . S
Mg171 O177 2.099 . S
Mg171 O188 2.079 . S
O172 Mg169 2.180 . S
O172 Mg171 2.099 . S
O172 C183 1.279 . S
O173 Mg169 2.117 . S
O173 C183 1.250 . S
O174 Mg171 2.079 . S
O174 C184 1.264 . S
O175 Mg171 2.072 . S
O175 C185 1.260 . S
Mg176 O177 2.180 . S
Mg176 O178 2.030 . S
Mg176 O179 1.990 . S
Mg176 O180 2.117 . S
O177 Mg171 2.099 . S
O177 Mg176 2.180 . S
O177 C186 1.279 . S
O178 Mg176 2.030 . S
O178 C184 1.248 . S
O179 Mg176 1.990 . S
O179 C185 1.253 . S
O180 Mg176 2.117 . S
O180 C186 1.250 . S
C181 O187 1.248 . S
C181 O188 1.264 1_455 S
C182 O168 1.253 . S
C182 O170 1.260 . S
C183 O172 1.279 . S
C183 O173 1.250 . S
C184 O174 1.264 . S
C184 O178 1.248 . S
C185 O175 1.260 . S
C185 O179 1.253 . S
C186 O177 1.279 . S
C186 O180 1.250 . S
O187 Mg169 2.030 1_455 S
O187 C181 1.248 . S
O188 Mg171 2.079 . S
O188 C181 1.264 1_655 S
C34 C17 1.244 . S
C55 C35 1.244 . S
C56 C16 1.244 . S
C59 C37 1.244 . S
C58 C14 1.244 . S
C13 C38 1.244 . S
C77 C97 1.244 . S
C118 C98 1.244 . S
C119 C76 1.244 . S
C100 C122 1.244 . S
C121 C80 1.244 . S
C101 C79 1.244 . S
C160 C140 1.244 . S
C161 C184 1.244 . S
C185 C139 1.244 . S
C182 C163 1.244 . S
C181 C143 1.244 . S
C142 C164 1.244 . S
C120 C15 2.518 . S
C78 C39 2.518 . S
C60 C99 2.518 1_545 S
C57 C144 2.518 . S
C18 C165 2.518 1_455 S
C183 C36 2.518 . S
C81 C186 2.518 . S
C102 C141 2.518 1_565 S
C162 C123 2.518 1_655 S
