# Generated by pormake.
# Topology dmp, (4)-cn, num edge types: 1
# Building blocks:
#     Node 0, Type 0, BuildingBlock: NAHDIM_clean_sbu_0, # of connection points: 4
#     Node 1, Type 0, BuildingBlock: NAHDIM_clean_sbu_0, # of connection points: 4
#     Node 2, Type 0, BuildingBlock: NAHDIM_clean_sbu_0, # of connection points: 4
#     Node 3, Type 0, BuildingBlock: NAHDIM_clean_sbu_0, # of connection points: 4
#     Edge 4, Type (0, 0), BuildingBlock: CIFDUS_clean_linker_0, # of connection points: 2
#     Edge 5, Type (0, 0), BuildingBlock: CIFDUS_clean_linker_0, # of connection points: 2
#     Edge 6, Type (0, 0), BuildingBlock: CIFDUS_clean_linker_0, # of connection points: 2
#     Edge 7, Type (0, 0), BuildingBlock: CIFDUS_clean_linker_0, # of connection points: 2
#     Edge 8, Type (0, 0), BuildingBlock: CIFDUS_clean_linker_0, # of connection points: 2
#     Edge 9, Type (0, 0), BuildingBlock: CIFDUS_clean_linker_0, # of connection points: 2
#     Edge 10, Type (0, 0), BuildingBlock: CIFDUS_clean_linker_0, # of connection points: 2
#     Edge 11, Type (0, 0), BuildingBlock: CIFDUS_clean_linker_0, # of connection points: 2
# Relax obj value: 0.246
# Max RMSD: 0.270
# Mean RMSD: 0.270
data_MOF--net-dmp--node1-NAHDIM_clean_sbu_0--edge1-CIFDUS_clean_linker_0
_symmetry_space_group_name_H-M    P1
_symmetry_Int_Tables_number       1
_symmetry_cell_setting            triclinic
loop_
_symmetry_equiv_pos_as_xyz
'x, y, z'
_cell_length_a     33.140428
_cell_length_b     15.256639
_cell_length_c     16.800232
_cell_angle_alpha  89.955221
_cell_angle_beta   90.231278
_cell_angle_gamma 94.024848
loop_
_atom_site_label
_atom_site_type_symbol
_atom_site_fract_x
_atom_site_fract_y
_atom_site_fract_z
_atom_type_partial_charge
C0 C 0.04425 0.37443 0.31243 0.0
O1 O 0.04582 0.39912 0.23751 0.0
O2 O 0.0592 0.16256 0.18479 0.0
Zn3 Zn 0.0944 0.24283 0.25451 0.0
O4 O 0.12744 0.32939 0.18782 0.0
C5 C 0.13177 0.09145 0.3223 0.0
O6 O 0.09736 0.04773 0.30442 0.0
O7 O 0.06225 0.30733 0.33373 0.0
C8 C 0.15611 0.30064 0.14763 0.0
O9 O 0.15997 0.21554 0.14533 0.0
C10 C 0.04503 0.18785 0.11894 0.0
O11 O 0.05221 0.27008 0.09686 0.0
O12 O 0.13555 0.17377 0.31022 0.0
C13 C 0.43045 0.61148 0.30994 0.0
O14 O 0.4243 0.58318 0.23676 0.0
O15 O 0.41799 0.82809 0.18208 0.0
Zn16 Zn 0.38332 0.74984 0.25392 0.0
O17 O 0.34822 0.66538 0.18848 0.0
C18 C 0.34793 0.90392 0.3201 0.0
O19 O 0.38164 0.94678 0.29705 0.0
O20 O 0.41627 0.68318 0.33097 0.0
C21 C 0.31904 0.69557 0.15032 0.0
O22 O 0.31554 0.78083 0.14959 0.0
C23 C 0.43221 0.80004 0.11754 0.0
O24 O 0.42546 0.71671 0.09879 0.0
O25 O 0.34399 0.82103 0.31192 0.0
C26 C 0.94439 0.60419 0.68296 0.0
O27 O 0.94431 0.58012 0.75806 0.0
O28 O 0.92206 0.80939 0.81286 0.0
Zn29 Zn 0.88952 0.72189 0.74479 0.0
O30 O 0.86372 0.62611 0.81291 0.0
C31 C 0.83876 0.85858 0.68532 0.0
O32 O 0.86962 0.91424 0.70247 0.0
O33 O 0.92351 0.66714 0.66197 0.0
C34 C 0.83519 0.64549 0.85846 0.0
O35 O 0.82694 0.72818 0.865 0.0
C36 C 0.93793 0.78491 0.87742 0.0
O37 O 0.93386 0.70156 0.89758 0.0
O38 O 0.84216 0.77685 0.69473 0.0
C39 C 0.53835 0.38081 0.67262 0.0
O40 O 0.54272 0.40823 0.74646 0.0
O41 O 0.5545 0.16556 0.79991 0.0
Zn42 Zn 0.5883 0.25063 0.73215 0.0
O43 O 0.61677 0.34141 0.80228 0.0
C44 C 0.63703 0.10902 0.67936 0.0
O45 O 0.60733 0.05647 0.70741 0.0
O46 O 0.55474 0.31159 0.65162 0.0
C47 C 0.64528 0.31844 0.8467 0.0
O48 O 0.65285 0.2351 0.84983 0.0
C49 C 0.53802 0.19282 0.8625 0.0
O50 O 0.54217 0.2769 0.87992 0.0
O51 O 0.63363 0.19142 0.67956 0.0
H52 H 0.27129 0.83504 0.34705 0.0
H53 H 0.34376 0.08135 0.33706 0.0
H54 H 0.28277 0.16155 0.34709 0.0
H55 H 0.20888 0.16139 0.3422 0.0
H56 H 0.13636 0.91491 0.34539 0.0
H57 H 0.19753 0.83519 0.3555 0.0
C58 C 0.27391 0.90629 0.34845 0.0
C59 C 0.31208 0.95209 0.34032 0.0
C60 C 0.23867 0.95197 0.35231 0.0
C61 C 0.31479 0.04439 0.34262 0.0
C62 C 0.27989 0.09035 0.34809 0.0
C63 C 0.20633 0.09027 0.34644 0.0
C64 C 0.16804 0.04417 0.34204 0.0
C65 C 0.24164 0.04477 0.35041 0.0
C66 C 0.1654 0.95206 0.34803 0.0
C67 C 0.2004 0.90638 0.35358 0.0
H68 H 0.15387 0.47573 0.12147 0.0
H69 H 0.23366 0.26409 0.11526 0.0
H70 H 0.29203 0.36975 0.10347 0.0
H71 H 0.32071 0.52181 0.11781 0.0
H72 H 0.24095 0.73346 0.12436 0.0
H73 H 0.18234 0.62837 0.11168 0.0
C74 C 0.18398 0.45278 0.11577 0.0
C75 C 0.18954 0.36251 0.12096 0.0
C76 C 0.21747 0.51389 0.10992 0.0
C77 C 0.22858 0.33338 0.11205 0.0
C78 C 0.26205 0.39378 0.10582 0.0
C79 C 0.29052 0.54495 0.11472 0.0
C80 C 0.28508 0.63489 0.12368 0.0
C81 C 0.25693 0.48415 0.10826 0.0
C82 C 0.24593 0.66438 0.11815 0.0
C83 C 0.21234 0.6043 0.11141 0.0
H84 H 0.65522 0.93809 0.6699 0.0
H85 H 0.70858 0.20365 0.65069 0.0
H86 H 0.77582 0.14896 0.64345 0.0
H87 H 0.81997 0.02689 0.65681 0.0
H88 H 0.76649 0.76144 0.67654 0.0
H89 H 0.69907 0.81499 0.6685 0.0
C90 C 0.68149 0.98396 0.66296 0.0
C91 C 0.6768 0.07482 0.66186 0.0
C92 C 0.72022 0.95218 0.65953 0.0
C93 C 0.71121 0.13329 0.65205 0.0
C94 C 0.74978 0.10214 0.64825 0.0
C95 C 0.79359 0.98065 0.65825 0.0
C96 C 0.7984 0.89046 0.66827 0.0
C97 C 0.75474 0.01188 0.65416 0.0
C98 C 0.76381 0.83135 0.66923 0.0
C99 C 0.72513 0.86189 0.66493 0.0
H100 H 0.75651 0.66016 0.89458 0.0
H101 H 0.84768 0.47235 0.8805 0.0
H102 H 0.79561 0.35152 0.89238 0.0
H103 H 0.72408 0.30056 0.88133 0.0
H104 H 0.63299 0.48922 0.87996 0.0
H105 H 0.68505 0.60851 0.901 0.0
C106 C 0.76511 0.59288 0.89641 0.0
C107 C 0.80575 0.57498 0.88565 0.0
C108 C 0.7349 0.52392 0.89935 0.0
C109 C 0.81647 0.48755 0.88789 0.0
C110 C 0.78671 0.41851 0.89432 0.0
C111 C 0.71552 0.3675 0.88788 0.0
C112 C 0.6749 0.38641 0.87814 0.0
C113 C 0.74574 0.43596 0.8962 0.0
C114 C 0.6642 0.47339 0.88644 0.0
C115 C 0.69394 0.54156 0.89818 0.0
H116 H 0.03264 0.01169 0.1404 0.0
H117 H 0.00737 0.22058 0.97799 0.0
H118 H 0.97219 0.11424 0.88866 0.0
H119 H 0.94911 0.96189 0.85628 0.0
H120 H 0.97505 0.75342 0.01874 0.0
H121 H 0.00961 0.85996 0.10827 0.0
C122 C 0.01932 0.03415 0.08563 0.0
C123 C 0.0226 0.124 0.066 0.0
C124 C -0.0006 0.97273 0.03435 0.0
C125 C 0.0053 0.15179 0.99459 0.0
C126 C 0.9852 0.09103 0.9434 0.0
C127 C 0.96238 0.93969 0.91118 0.0
C128 C 0.95951 0.84975 0.93065 0.0
C129 C 0.98221 0.00131 0.96256 0.0
C130 C 0.97682 0.82221 0.00215 0.0
C131 C -0.00343 0.88309 0.05352 0.0
H132 H 0.52795 0.01483 0.84874 0.0
H133 H 0.49901 0.23064 -0.00046 0.0
H134 H 0.46445 0.12798 0.09215 0.0
H135 H 0.44262 0.97747 0.13065 0.0
H136 H 0.47095 0.76119 0.97997 0.0
H137 H 0.50576 0.86376 0.88716 0.0
C138 C 0.51398 0.03947 0.90173 0.0
C139 C 0.51607 0.13033 0.9171 0.0
C140 C 0.49421 0.98007 0.95495 0.0
C141 C 0.49787 0.16107 0.98616 0.0
C142 C 0.47813 0.10241 0.03929 0.0
C143 C 0.45652 0.95259 0.07768 0.0
C144 C 0.45425 0.86175 0.0624 0.0
C145 C 0.47622 0.01184 0.02438 0.0
C146 C 0.47226 0.8308 0.99322 0.0
C147 C 0.49214 0.8894 0.94005 0.0
H148 H 0.94707 0.6299 0.52245 0.0
H149 H -0.00869 0.46719 0.70952 0.0
H150 H 0.02565 0.38153 0.61149 0.0
H151 H 0.04253 0.35145 0.47286 0.0
H152 H -0.00129 0.51409 0.2854 0.0
H153 H 0.96471 0.60079 0.38349 0.0
C154 C 0.96435 0.57593 0.54184 0.0
C155 C 0.96655 0.55506 0.62327 0.0
C156 C 0.98396 0.52657 0.4851 0.0
C157 C -0.01094 0.4848 0.64727 0.0
C158 C 0.00869 0.43558 0.59123 0.0
C159 C 0.02547 0.40571 0.45333 0.0
C160 C 0.0231 0.426 0.37184 0.0
C161 C 0.00617 0.45558 0.51 0.0
C162 C 0.00102 0.4969 0.34774 0.0
C163 C 0.98158 0.54663 0.4038 0.0
H164 H 0.44292 0.64491 0.46742 0.0
H165 H 0.4669 0.45919 0.28269 0.0
H166 H 0.50187 0.37077 0.37858 0.0
H167 H 0.52571 0.34615 0.51495 0.0
H168 H 0.50128 0.53197 0.69938 0.0
H169 H 0.46632 0.61996 0.60349 0.0
C170 C 0.45587 0.58522 0.44798 0.0
C171 C 0.45233 0.55891 0.3679 0.0
C172 C 0.47577 0.53443 0.50345 0.0
C173 C 0.46918 0.48112 0.34394 0.0
C174 C 0.48917 0.43039 0.39877 0.0
C175 C 0.51266 0.40576 0.53424 0.0
C176 C 0.51616 0.43229 0.61431 0.0
C177 C 0.49261 0.45635 0.4787 0.0
C178 C 0.49906 0.50983 0.63819 0.0
C179 C 0.47908 0.56039 0.58335 0.0
loop_
_geom_bond_atom_site_label_1
_geom_bond_atom_site_label_2
_geom_bond_distance
_geom_bond_site_symmetry_2
_ccdc_geom_bond_type
C0 O1 1.160 . S
C0 O7 1.185 . S
O1 C0 1.160 . S
O2 Zn3 1.899 . S
O2 C10 1.284 . S
Zn3 O2 1.899 . S
Zn3 O4 2.032 . S
Zn3 O7 2.086 . S
Zn3 O12 1.977 . S
O4 Zn3 2.032 . S
O4 C8 1.278 . S
C5 O6 1.203 . S
C5 O12 1.267 . S
O6 C5 1.203 . S
O7 C0 1.185 . S
O7 Zn3 2.086 . S
C8 O4 1.278 . S
C8 O9 1.211 . S
O9 C8 1.211 . S
C10 O2 1.284 . S
C10 O11 1.273 . S
O11 C10 1.273 . S
O12 Zn3 1.977 . S
O12 C5 1.267 . S
C13 O14 1.160 . S
C13 O20 1.185 . S
O14 C13 1.160 . S
O15 Zn16 1.899 . S
O15 C23 1.284 . S
Zn16 O15 1.899 . S
Zn16 O17 2.032 . S
Zn16 O20 2.086 . S
Zn16 O25 1.977 . S
O17 Zn16 2.032 . S
O17 C21 1.278 . S
C18 O19 1.203 . S
C18 O25 1.267 . S
O19 C18 1.203 . S
O20 C13 1.185 . S
O20 Zn16 2.086 . S
C21 O17 1.278 . S
C21 O22 1.211 . S
O22 C21 1.211 . S
C23 O15 1.284 . S
C23 O24 1.273 . S
O24 C23 1.273 . S
O25 Zn16 1.977 . S
O25 C18 1.267 . S
C26 O27 1.160 . S
C26 O33 1.185 . S
O27 C26 1.160 . S
O28 Zn29 1.899 . S
O28 C36 1.284 . S
Zn29 O28 1.899 . S
Zn29 O30 2.032 . S
Zn29 O33 2.086 . S
Zn29 O38 1.977 . S
O30 Zn29 2.032 . S
O30 C34 1.278 . S
C31 O32 1.203 . S
C31 O38 1.267 . S
O32 C31 1.203 . S
O33 C26 1.185 . S
O33 Zn29 2.086 . S
C34 O30 1.278 . S
C34 O35 1.211 . S
O35 C34 1.211 . S
C36 O28 1.284 . S
C36 O37 1.273 . S
O37 C36 1.273 . S
O38 Zn29 1.977 . S
O38 C31 1.267 . S
C39 O40 1.160 . S
C39 O46 1.185 . S
O40 C39 1.160 . S
O41 Zn42 1.899 . S
O41 C49 1.284 . S
Zn42 O41 1.899 . S
Zn42 O43 2.032 . S
Zn42 O46 2.086 . S
Zn42 O51 1.977 . S
O43 Zn42 2.032 . S
O43 C47 1.278 . S
C44 O45 1.203 . S
C44 O51 1.267 . S
O45 C44 1.203 . S
O46 C39 1.185 . S
O46 Zn42 2.086 . S
C47 O43 1.278 . S
C47 O48 1.211 . S
O48 C47 1.211 . S
C49 O41 1.284 . S
C49 O50 1.273 . S
O50 C49 1.273 . S
O51 Zn42 1.977 . S
O51 C44 1.267 . S
H52 C58 0.930 . S
H53 C61 0.930 . S
H54 C62 0.930 . S
H55 C63 0.930 . S
H56 C66 0.930 . S
H57 C67 0.930 . S
C58 H52 0.930 . S
C58 C59 1.355 . S
C58 C60 1.415 . S
C59 C58 1.355 . S
C59 C61 1.419 1_565 S
C60 C58 1.415 . S
C60 C65 1.425 1_565 S
C60 C67 1.409 . S
C61 H53 0.930 . S
C61 C59 1.419 1_545 S
C61 C62 1.362 . S
C62 H54 0.930 . S
C62 C61 1.362 . S
C62 C65 1.409 . S
C63 H55 0.930 . S
C63 C64 1.355 . S
C63 C65 1.415 . S
C64 C63 1.355 . S
C64 C66 1.419 1_545 S
C65 C60 1.425 1_545 S
C65 C62 1.409 . S
C65 C63 1.415 . S
C66 H56 0.930 . S
C66 C64 1.419 1_565 S
C66 C67 1.362 . S
C67 H57 0.930 . S
C67 C60 1.409 . S
C67 C66 1.362 . S
H68 C74 0.930 . S
H69 C77 0.930 . S
H70 C78 0.930 . S
H71 C79 0.930 . S
H72 C82 0.930 . S
H73 C83 0.930 . S
C74 H68 0.930 . S
C74 C75 1.355 . S
C74 C76 1.415 . S
C75 C74 1.355 . S
C75 C77 1.419 . S
C76 C74 1.415 . S
C76 C81 1.425 . S
C76 C83 1.409 . S
C77 H69 0.930 . S
C77 C75 1.419 . S
C77 C78 1.362 . S
C78 H70 0.930 . S
C78 C77 1.362 . S
C78 C81 1.409 . S
C79 H71 0.930 . S
C79 C80 1.355 . S
C79 C81 1.415 . S
C80 C79 1.355 . S
C80 C82 1.419 . S
C81 C76 1.425 . S
C81 C78 1.409 . S
C81 C79 1.415 . S
C82 H72 0.930 . S
C82 C80 1.419 . S
C82 C83 1.362 . S
C83 H73 0.930 . S
C83 C76 1.409 . S
C83 C82 1.362 . S
H84 C90 0.930 . S
H85 C93 0.930 . S
H86 C94 0.930 . S
H87 C95 0.930 . S
H88 C98 0.930 . S
H89 C99 0.930 . S
C90 H84 0.930 . S
C90 C91 1.355 1_565 S
C90 C92 1.415 . S
C91 C90 1.355 1_545 S
C91 C93 1.419 . S
C92 C90 1.415 . S
C92 C97 1.425 1_565 S
C92 C99 1.409 . S
C93 H85 0.930 . S
C93 C91 1.419 . S
C93 C94 1.362 . S
C94 H86 0.930 . S
C94 C93 1.362 . S
C94 C97 1.409 . S
C95 H87 0.930 . S
C95 C96 1.355 1_545 S
C95 C97 1.415 . S
C96 C95 1.355 1_565 S
C96 C98 1.419 . S
C97 C92 1.425 1_545 S
C97 C94 1.409 . S
C97 C95 1.415 . S
C98 H88 0.930 . S
C98 C96 1.419 . S
C98 C99 1.362 . S
C99 H89 0.930 . S
C99 C92 1.409 . S
C99 C98 1.362 . S
H100 C106 0.930 . S
H101 C109 0.930 . S
H102 C110 0.930 . S
H103 C111 0.930 . S
H104 C114 0.930 . S
H105 C115 0.930 . S
C106 H100 0.930 . S
C106 C107 1.355 . S
C106 C108 1.415 . S
C107 C106 1.355 . S
C107 C109 1.419 . S
C108 C106 1.415 . S
C108 C113 1.425 . S
C108 C115 1.409 . S
C109 H101 0.930 . S
C109 C107 1.419 . S
C109 C110 1.362 . S
C110 H102 0.930 . S
C110 C109 1.362 . S
C110 C113 1.409 . S
C111 H103 0.930 . S
C111 C112 1.355 . S
C111 C113 1.415 . S
C112 C111 1.355 . S
C112 C114 1.419 . S
C113 C108 1.425 . S
C113 C110 1.409 . S
C113 C111 1.415 . S
C114 H104 0.930 . S
C114 C112 1.419 . S
C114 C115 1.362 . S
C115 H105 0.930 . S
C115 C108 1.409 . S
C115 C114 1.362 . S
H116 C122 0.930 1_655 S
H117 C125 0.930 . S
H118 C126 0.930 . S
H119 C127 0.930 1_455 S
H120 C130 0.930 . S
H121 C131 0.930 . S
C122 H116 0.930 1_455 S
C122 C123 1.355 . S
C122 C124 1.415 1_455 S
C123 C122 1.355 . S
C123 C125 1.419 1_554 S
C124 C122 1.415 1_655 S
C124 C129 1.425 1_644 S
C124 C131 1.409 1_545 S
C125 H117 0.930 . S
C125 C123 1.419 1_556 S
C125 C126 1.362 . S
C126 H118 0.930 . S
C126 C125 1.362 . S
C126 C129 1.409 1_545 S
C127 H119 0.930 1_655 S
C127 C128 1.355 . S
C127 C129 1.415 1_655 S
C128 C127 1.355 . S
C128 C130 1.419 1_556 S
C129 C124 1.425 1_466 S
C129 C126 1.409 1_565 S
C129 C127 1.415 1_455 S
C130 H120 0.930 . S
C130 C128 1.419 1_554 S
C130 C131 1.362 . S
C131 H121 0.930 . S
C131 C124 1.409 1_565 S
C131 C130 1.362 . S
H132 C138 0.930 . S
H133 C141 0.930 . S
H134 C142 0.930 . S
H135 C143 0.930 . S
H136 C146 0.930 . S
H137 C147 0.930 . S
C138 H132 0.930 . S
C138 C139 1.355 . S
C138 C140 1.415 1_545 S
C139 C138 1.355 . S
C139 C141 1.419 1_556 S
C140 C138 1.415 1_565 S
C140 C145 1.425 1_566 S
C140 C147 1.409 . S
C141 H133 0.930 . S
C141 C139 1.419 1_554 S
C141 C142 1.362 . S
C142 H134 0.930 . S
C142 C141 1.362 . S
C142 C145 1.409 . S
C143 H135 0.930 . S
C143 C144 1.355 . S
C143 C145 1.415 1_565 S
C144 C143 1.355 . S
C144 C146 1.419 1_554 S
C145 C140 1.425 1_544 S
C145 C142 1.409 . S
C145 C143 1.415 1_545 S
C146 H136 0.930 . S
C146 C144 1.419 1_556 S
C146 C147 1.362 . S
C147 H137 0.930 . S
C147 C140 1.409 . S
C147 C146 1.362 . S
H148 C154 0.930 . S
H149 C157 0.930 . S
H150 C158 0.930 . S
H151 C159 0.930 . S
H152 C162 0.930 . S
H153 C163 0.930 . S
C154 H148 0.930 . S
C154 C155 1.355 . S
C154 C156 1.415 . S
C155 C154 1.355 . S
C155 C157 1.419 1_655 S
C156 C154 1.415 . S
C156 C161 1.425 1_655 S
C156 C163 1.409 . S
C157 H149 0.930 . S
C157 C155 1.419 1_455 S
C157 C158 1.362 . S
C158 H150 0.930 . S
C158 C157 1.362 . S
C158 C161 1.409 . S
C159 H151 0.930 . S
C159 C160 1.355 . S
C159 C161 1.415 . S
C160 C159 1.355 . S
C160 C162 1.419 1_455 S
C161 C156 1.425 1_455 S
C161 C158 1.409 . S
C161 C159 1.415 . S
C162 H152 0.930 . S
C162 C160 1.419 1_655 S
C162 C163 1.362 . S
C163 H153 0.930 . S
C163 C156 1.409 . S
C163 C162 1.362 . S
H164 C170 0.930 . S
H165 C173 0.930 . S
H166 C174 0.930 . S
H167 C175 0.930 . S
H168 C178 0.930 . S
H169 C179 0.930 . S
C170 H164 0.930 . S
C170 C171 1.355 . S
C170 C172 1.415 . S
C171 C170 1.355 . S
C171 C173 1.419 . S
C172 C170 1.415 . S
C172 C177 1.425 . S
C172 C179 1.409 . S
C173 H165 0.930 . S
C173 C171 1.419 . S
C173 C174 1.362 . S
C174 H166 0.930 . S
C174 C173 1.362 . S
C174 C177 1.409 . S
C175 H167 0.930 . S
C175 C176 1.355 . S
C175 C177 1.415 . S
C176 C175 1.355 . S
C176 C178 1.419 . S
C177 C172 1.425 . S
C177 C174 1.409 . S
C177 C175 1.415 . S
C178 H168 0.930 . S
C178 C176 1.419 . S
C178 C179 1.362 . S
C179 H169 0.930 . S
C179 C172 1.409 . S
C179 C178 1.362 . S
C59 C18 0.986 . S
C64 C5 1.034 . S
C75 C8 0.725 . S
C80 C21 0.701 . S
C91 C44 0.946 . S
C96 C31 0.945 . S
C107 C34 0.896 . S
C112 C47 0.885 . S
C123 C10 1.590 . S
C128 C36 1.590 . S
C139 C49 1.613 . S
C144 C23 1.613 . S
C155 C26 1.523 . S
C160 C0 1.523 . S
C171 C13 1.542 . S
C176 C39 1.542 . S
