# Generated by pormake.
# Topology pcu, (6)-cn, num edge types: 1
# Building blocks:
#     Node 0, Type 0, BuildingBlock: BETFEN_clean_sbu_0, # of connection points: 6
#     Edge 1, Type (0, 0), BuildingBlock: UVAHIK_clean_linker_0, # of connection points: 2
#     Edge 2, Type (0, 0), BuildingBlock: UVAHIK_clean_linker_0, # of connection points: 2
#     Edge 3, Type (0, 0), BuildingBlock: UVAHIK_clean_linker_0, # of connection points: 2
# Relax obj value: 0.000
# Max RMSD: 0.000
# Mean RMSD: 0.000
data_MOF--net-pcu--node1-BETFEN_clean_sbu_0--edge1-UVAHIK_clean_linker_0
_symmetry_space_group_name_H-M    P1
_symmetry_Int_Tables_number       1
_symmetry_cell_setting            triclinic
loop_
_symmetry_equiv_pos_as_xyz
'x, y, z'
_cell_length_a     30.325467
_cell_length_b     19.934556
_cell_length_c     19.076572
_cell_angle_alpha  86.927463
_cell_angle_beta   95.400954
_cell_angle_gamma 124.84131
loop_
_atom_site_label
_atom_site_type_symbol
_atom_site_fract_x
_atom_site_fract_y
_atom_site_fract_z
_atom_type_partial_charge
Pr0 Pr 0.95902 0.9425 0.01778 0.0
Pr1 Pr 0.07787 0.03779 0.99164 0.0
C2 C 0.86098 0.88947 0.05915 0.0
C3 C 0.81932 0.90738 0.04898 0.0
C4 C 0.78274 0.87998 0.98881 0.0
C5 C 0.74186 0.89331 0.98156 0.0
C6 C 0.73626 0.93418 0.03431 0.0
C7 C 0.77317 0.96213 0.09419 0.0
C8 C 0.81398 0.94865 0.10151 0.0
C9 C 0.97845 0.95798 0.87537 0.0
C10 C 0.03134 0.14441 1.00322 0.0
C11 C 0.17605 0.091 0.9507 0.0
C12 C 0.21766 0.07298 0.96083 0.0
C13 C 0.2543 0.10043 0.02094 0.0
C14 C 0.29516 0.08706 0.02816 0.0
C15 C 0.30069 0.04609 0.97543 0.0
C16 C 0.26372 0.01807 0.9156 0.0
C17 C 0.22292 0.0316 0.90832 0.0
C18 C 0.05812 0.02221 0.13402 0.0
C19 C 1.00551 0.83588 0.00585 0.0
O20 O 0.90628 0.94208 0.09515 0.0
O21 O 0.86781 0.85787 0.00634 0.0
O22 O 1.00532 0.0149 0.92005 0.0
O23 O 0.9389 0.89227 0.90288 0.0
O24 O 0.06583 0.14185 0.9684 0.0
O25 O 0.99272 0.07922 0.03478 0.0
O26 O 0.13085 0.03869 0.91438 0.0
O27 O 0.16909 0.12223 1.00364 0.0
O28 O 0.0316 0.96527 0.08933 0.0
O29 O 0.09756 0.08809 0.10654 0.0
O30 O 0.97104 0.83839 0.04076 0.0
O31 O 0.04415 0.90112 0.97438 0.0
H32 H 0.7853 0.84756 0.94737 0.0
H33 H 0.71471 0.87177 0.9343 0.0
H34 H 0.76978 -0.00721 0.1364 0.0
H35 H 0.84097 0.96963 0.14894 0.0
H36 H 0.25181 0.13295 0.06237 0.0
H37 H 0.32235 0.10865 0.07538 0.0
H38 H 0.26705 0.98734 0.8734 0.0
H39 H 0.1959 0.01058 0.86092 0.0
C40 C 0.08284 0.08112 0.25493 0.0
C41 C 0.04888 0.01416 0.20968 0.0
C42 C 0.07489 0.07484 0.32659 0.0
C43 C 1.01127 0.92435 0.46966 0.0
H44 H 0.02953 0.10652 0.56531 0.0
C45 C 0.95349 0.89896 0.75447 0.0
C46 C 0.98758 0.96592 0.79968 0.0
C47 C 0.96137 0.90515 0.68279 0.0
C48 C 0.02493 0.05548 0.53964 0.0
H49 H 0.9796 0.88819 0.20372 0.0
H50 H 0.96528 0.87712 0.32925 0.0
H51 H 0.04097 0.11565 0.43958 0.0
H52 H 0.05701 0.09178 0.80554 0.0
H53 H 0.07118 0.1027 0.67997 0.0
H54 H 0.99522 0.86417 0.56973 0.0
C55 C 0.99857 0.9343 0.30942 0.0
C56 C 0.03141 0.06063 0.46745 0.0
C57 C 1.00656 0.94066 0.2375 0.0
C58 C 0.02995 0.03931 0.7718 0.0
C59 C 0.03785 0.04559 0.69986 0.0
C60 C 1.00478 0.91919 0.54185 0.0
C61 C 0.03268 0.00141 0.35487 0.0
C62 C 0.02472 -0.00483 0.43151 0.0
C63 C 1.00362 0.97849 0.65445 0.0
C64 C 1.01149 0.98467 0.57779 0.0
H65 H 0.11586 0.13859 0.23503 0.0
H66 H 0.10241 0.12735 0.36005 0.0
H67 H 1.00668 0.87331 0.444 0.0
H68 H 0.92043 0.84156 0.77441 0.0
H69 H 0.93376 0.85265 0.64935 0.0
C70 C 0.39727 0.09594 0.01026 0.0
C71 C 0.34533 0.03398 0.98219 0.0
C72 C 0.43929 0.08517 0.01584 0.0
C73 C 0.46646 0.92497 0.01925 0.0
H74 H 0.61015 0.10634 0.9777 0.0
C75 C 0.63968 0.88431 0.99937 0.0
C76 C 0.69161 0.94626 0.0275 0.0
C77 C 0.59766 0.89506 0.99376 0.0
C78 C 0.57045 0.05522 0.99033 0.0
H79 H 0.29716 0.91135 0.93882 0.0
H80 H 0.37047 0.89311 0.94746 0.0
H81 H 0.5369 0.12461 0.96832 0.0
H82 H 0.73973 0.06886 0.07093 0.0
H83 H 0.66642 0.08708 0.06222 0.0
H84 H 0.50002 0.85558 0.04125 0.0
C85 C 0.37866 0.94995 0.9658 0.0
C86 C 0.52831 0.06573 0.98494 0.0
C87 C 0.33665 0.96079 0.96007 0.0
C88 C 0.70026 0.01943 0.04963 0.0
C89 C 0.65825 0.03026 0.04387 0.0
C90 C 0.50861 0.91446 0.02463 0.0
C91 C 0.43066 0.01205 0.99363 0.0
C92 C 0.47566 0.00077 0.99933 0.0
C93 C 0.60626 0.96816 0.01599 0.0
C94 C 0.56125 0.97943 0.01025 0.0
H95 H 0.40579 0.15352 0.02713 0.0
H96 H 0.47852 0.13409 0.03827 0.0
H97 H 0.42676 0.87385 0.03188 0.0
H98 H 0.63119 0.82676 0.98249 0.0
H99 H 0.55844 0.84615 0.97129 0.0
C100 C 0.97352 0.69555 0.0489 0.0
C101 C 1.00305 0.76056 1.00244 0.0
C102 C 0.9757 0.62752 0.04844 0.0
C103 C 0.06382 0.5702 0.99993 0.0
H104 H 0.93707 0.34813 0.01071 0.0
C105 C 0.06325 0.2846 0.95985 0.0
C106 C 0.03375 0.2197 0.00641 0.0
C107 C 0.06101 0.35259 0.9601 0.0
C108 C 0.97284 0.40997 0.00833 0.0
H109 H 0.05548 0.80393 0.91653 0.0
H110 H 0.0586 0.68525 0.91542 0.0
H111 H 0.92761 0.46177 0.00935 0.0
H112 H 0.98129 0.17649 0.09229 0.0
H113 H 0.97808 0.2951 0.09306 0.0
H114 H 0.10906 0.5184 0.99893 0.0
C115 C 0.03498 0.68754 0.95324 0.0
C116 C 0.96738 0.47471 0.00763 0.0
C117 C 0.03295 0.75525 0.95381 0.0
C118 C 1.00381 0.22508 0.05494 0.0
C119 C 1.00173 0.29275 0.05531 0.0
C120 C 0.06928 0.50545 1.00063 0.0
C121 C 1.0073 0.62393 1.0014 0.0
C122 C 1.01283 0.55525 1.0033 0.0
C123 C 0.02939 0.35626 0.00705 0.0
C124 C 0.02384 0.42491 0.00499 0.0
H125 H 0.95019 0.69832 0.08686 0.0
H126 H 0.95411 0.57904 0.08623 0.0
H127 H 0.0996 0.63204 0.99757 0.0
H128 H 0.0866 0.28177 0.92197 0.0
H129 H 0.08259 0.40099 0.92225 0.0
loop_
_geom_bond_atom_site_label_1
_geom_bond_atom_site_label_2
_geom_bond_distance
_geom_bond_site_symmetry_2
_ccdc_geom_bond_type
Pr0 C2 2.880 . S
Pr0 O20 2.562 1_556 S
Pr0 O21 2.490 . S
Pr0 O22 2.695 1_655 S
Pr0 O23 2.512 . S
Pr0 O25 2.437 1_565 S
Pr0 O28 2.436 1_566 S
Pr0 O30 2.438 . S
Pr1 C11 2.880 . S
Pr1 O22 2.436 1_544 S
Pr1 O24 2.438 . S
Pr1 O26 2.562 1_554 S
Pr1 O27 2.490 . S
Pr1 O28 2.695 1_455 S
Pr1 O29 2.512 . S
Pr1 O31 2.437 1_545 S
C2 Pr0 2.880 . S
C2 C3 1.491 . S
C2 O20 1.254 1_556 S
C2 O21 1.225 . S
C3 C2 1.491 . S
C3 C4 1.392 . S
C3 C8 1.356 1_566 S
C4 C3 1.392 . S
C4 C5 1.368 . S
C4 H32 0.929 . S
C5 C4 1.368 . S
C5 C6 1.398 . S
C5 H33 0.929 . S
C6 C5 1.398 . S
C6 C7 1.362 1_566 S
C7 C6 1.362 1_544 S
C7 C8 1.409 . S
C7 H34 0.931 . S
C8 C3 1.356 1_544 S
C8 C7 1.409 . S
C8 H35 0.930 . S
C9 O22 1.270 1_655 S
C9 O23 1.248 . S
C10 O24 1.267 1_556 S
C10 O25 1.278 1_455 S
C11 Pr1 2.880 . S
C11 C12 1.491 . S
C11 O26 1.254 1_554 S
C11 O27 1.225 . S
C12 C11 1.491 . S
C12 C13 1.392 . S
C12 C17 1.356 1_544 S
C13 C12 1.392 . S
C13 C14 1.368 . S
C13 H36 0.929 . S
C14 C13 1.368 . S
C14 C15 1.386 . S
C14 H37 0.929 . S
C15 C14 1.386 . S
C15 C16 1.373 1_544 S
C16 C15 1.373 1_566 S
C16 C17 1.409 . S
C16 H38 0.931 . S
C17 C12 1.356 1_566 S
C17 C16 1.409 . S
C17 H39 0.930 . S
C18 O28 1.270 1_455 S
C18 O29 1.248 . S
C19 O30 1.267 1_554 S
C19 O31 1.278 1_655 S
O20 Pr0 2.562 1_554 S
O20 C2 1.254 1_554 S
O21 Pr0 2.490 . S
O21 C2 1.225 . S
O22 Pr0 2.695 1_455 S
O22 Pr1 2.436 1_566 S
O22 C9 1.270 1_455 S
O23 Pr0 2.512 . S
O23 C9 1.248 . S
O24 Pr1 2.438 . S
O24 C10 1.267 1_554 S
O25 Pr0 2.437 1_545 S
O25 C10 1.278 1_655 S
O26 Pr1 2.562 1_556 S
O26 C11 1.254 1_556 S
O27 Pr1 2.490 . S
O27 C11 1.225 . S
O28 Pr0 2.436 1_544 S
O28 Pr1 2.695 1_655 S
O28 C18 1.270 1_655 S
O29 Pr1 2.512 . S
O29 C18 1.248 . S
O30 Pr0 2.438 . S
O30 C19 1.267 1_556 S
O31 Pr1 2.437 1_565 S
O31 C19 1.278 1_455 S
H32 C4 0.929 . S
H33 C5 0.929 . S
H34 C7 0.931 . S
H35 C8 0.930 . S
H36 C13 0.929 . S
H37 C14 0.929 . S
H38 C16 0.931 . S
H39 C17 0.930 . S
C40 C41 1.349 1_655 S
C40 C42 1.327 . S
C40 H65 0.950 . S
C41 C40 1.349 1_455 S
C41 C57 1.349 1_545 S
C42 C40 1.327 . S
C42 C61 1.429 1_655 S
C42 H66 0.950 . S
C43 C60 1.574 . S
C43 C62 1.368 1_565 S
C43 H67 0.949 . S
H44 C48 0.949 . S
C45 C46 1.349 1_565 S
C45 C47 1.327 . S
C45 H68 0.950 . S
C46 C45 1.349 1_545 S
C46 C58 1.349 1_455 S
C47 C45 1.327 . S
C47 C63 1.429 1_565 S
C47 H69 0.950 . S
C48 H44 0.949 . S
C48 C56 1.574 . S
C48 C64 1.368 1_655 S
H49 C57 0.950 . S
H50 C55 0.950 . S
H51 C56 0.949 . S
H52 C58 0.950 . S
H53 C59 0.950 . S
H54 C60 0.949 . S
C55 H50 0.950 . S
C55 C57 1.327 . S
C55 C61 1.429 1_565 S
C56 C48 1.574 . S
C56 H51 0.949 . S
C56 C62 1.368 1_655 S
C57 C41 1.349 1_565 S
C57 H49 0.950 . S
C57 C55 1.327 . S
C58 C46 1.349 1_655 S
C58 H52 0.950 . S
C58 C59 1.327 . S
C59 H53 0.950 . S
C59 C58 1.327 . S
C59 C63 1.429 1_655 S
C60 C43 1.574 . S
C60 H54 0.949 . S
C60 C64 1.368 1_565 S
C61 C42 1.429 1_455 S
C61 C55 1.429 1_545 S
C61 C62 1.523 . S
C62 C43 1.368 1_545 S
C62 C56 1.368 1_455 S
C62 C61 1.523 . S
C63 C47 1.429 1_545 S
C63 C59 1.429 1_455 S
C63 C64 1.523 . S
C64 C48 1.368 1_455 S
C64 C60 1.368 1_545 S
C64 C63 1.523 . S
H65 C40 0.950 . S
H66 C42 0.950 . S
H67 C43 0.949 . S
H68 C45 0.950 . S
H69 C47 0.950 . S
C70 C71 1.349 1_556 S
C70 C72 1.327 . S
C70 H95 0.950 . S
C71 C70 1.349 1_554 S
C71 C87 1.349 1_545 S
C72 C70 1.327 . S
C72 C91 1.429 1_556 S
C72 H96 0.950 . S
C73 C90 1.574 . S
C73 C92 1.368 1_565 S
C73 H97 0.949 . S
H74 C78 0.949 . S
C75 C76 1.349 1_565 S
C75 C77 1.327 . S
C75 H98 0.950 . S
C76 C75 1.349 1_545 S
C76 C88 1.349 1_554 S
C77 C75 1.327 . S
C77 C93 1.429 1_565 S
C77 H99 0.950 . S
C78 H74 0.949 . S
C78 C86 1.574 . S
C78 C94 1.368 1_556 S
H79 C87 0.950 . S
H80 C85 0.950 . S
H81 C86 0.949 . S
H82 C88 0.950 . S
H83 C89 0.950 . S
H84 C90 0.949 . S
C85 H80 0.950 . S
C85 C87 1.327 . S
C85 C91 1.429 1_565 S
C86 C78 1.574 . S
C86 H81 0.949 . S
C86 C92 1.368 1_556 S
C87 C71 1.349 1_565 S
C87 H79 0.950 . S
C87 C85 1.327 . S
C88 C76 1.349 1_556 S
C88 H82 0.950 . S
C88 C89 1.327 . S
C89 H83 0.950 . S
C89 C88 1.327 . S
C89 C93 1.429 1_556 S
C90 C73 1.574 . S
C90 H84 0.949 . S
C90 C94 1.368 1_565 S
C91 C72 1.429 1_554 S
C91 C85 1.429 1_545 S
C91 C92 1.523 . S
C92 C73 1.368 1_545 S
C92 C86 1.368 1_554 S
C92 C91 1.523 . S
C93 C77 1.429 1_545 S
C93 C89 1.429 1_554 S
C93 C94 1.523 . S
C94 C78 1.368 1_554 S
C94 C90 1.368 1_545 S
C94 C93 1.523 . S
H95 C70 0.950 . S
H96 C72 0.950 . S
H97 C73 0.949 . S
H98 C75 0.950 . S
H99 C77 0.950 . S
C100 C101 1.349 1_655 S
C100 C102 1.327 . S
C100 H125 0.950 . S
C101 C100 1.349 1_455 S
C101 C117 1.349 1_554 S
C102 C100 1.327 . S
C102 C121 1.429 1_655 S
C102 H126 0.950 . S
C103 C120 1.574 . S
C103 C122 1.368 1_556 S
C103 H127 0.949 . S
H104 C108 0.949 . S
C105 C106 1.349 1_556 S
C105 C107 1.327 . S
C105 H128 0.950 . S
C106 C105 1.349 1_554 S
C106 C118 1.349 1_455 S
C107 C105 1.327 . S
C107 C123 1.429 1_556 S
C107 H129 0.950 . S
C108 H104 0.949 . S
C108 C116 1.574 . S
C108 C124 1.368 1_655 S
H109 C117 0.950 . S
H110 C115 0.950 . S
H111 C116 0.949 . S
H112 C118 0.950 . S
H113 C119 0.950 . S
H114 C120 0.949 . S
C115 H110 0.950 . S
C115 C117 1.327 . S
C115 C121 1.429 1_556 S
C116 C108 1.574 . S
C116 H111 0.949 . S
C116 C122 1.368 1_655 S
C117 C101 1.349 1_556 S
C117 H109 0.950 . S
C117 C115 1.327 . S
C118 C106 1.349 1_655 S
C118 H112 0.950 . S
C118 C119 1.327 . S
C119 H113 0.950 . S
C119 C118 1.327 . S
C119 C123 1.429 1_655 S
C120 C103 1.574 . S
C120 H114 0.949 . S
C120 C124 1.368 1_556 S
C121 C102 1.429 1_455 S
C121 C115 1.429 1_554 S
C121 C122 1.523 . S
C122 C103 1.368 1_554 S
C122 C116 1.368 1_455 S
C122 C121 1.523 . S
C123 C107 1.429 1_554 S
C123 C119 1.429 1_455 S
C123 C124 1.523 . S
C124 C108 1.368 1_455 S
C124 C120 1.368 1_554 S
C124 C123 1.523 . S
H125 C100 0.950 . S
H126 C102 0.950 . S
H127 C103 0.949 . S
H128 C105 0.950 . S
H129 C107 0.950 . S
C41 C18 1.451 . S
C46 C9 1.451 1_445 S
C71 C15 1.499 . S
C76 C6 1.498 1_544 S
C101 C19 1.490 1_455 S
C106 C10 1.490 1_554 S
