# Generated by pormake.
# Topology sxc, (6)-cn, num edge types: 1
# Building blocks:
#     Node 0, Type 0, BuildingBlock: JUFBIX_clean_sbu_0, # of connection points: 6
#     Node 1, Type 0, BuildingBlock: JUFBIX_clean_sbu_0, # of connection points: 6
#     Node 2, Type 0, BuildingBlock: JUFBIX_clean_sbu_0, # of connection points: 6
#     Edge 3, Type (0, 0), None
#     Edge 4, Type (0, 0), None
#     Edge 5, Type (0, 0), None
#     Edge 6, Type (0, 0), None
#     Edge 7, Type (0, 0), None
#     Edge 8, Type (0, 0), None
#     Edge 9, Type (0, 0), None
#     Edge 10, Type (0, 0), None
#     Edge 11, Type (0, 0), None
# Relax obj value: 1.338
# Max RMSD: 0.153
# Mean RMSD: 0.153
data_MOF--net-sxc--node1-JUFBIX_clean_sbu_0--edge1-none
_symmetry_space_group_name_H-M    P1
_symmetry_Int_Tables_number       1
_symmetry_cell_setting            triclinic
loop_
_symmetry_equiv_pos_as_xyz
'x, y, z'
_cell_length_a     7.5120571
_cell_length_b     7.6360096
_cell_length_c     19.466323
_cell_angle_alpha  95.84002
_cell_angle_beta   83.706267
_cell_angle_gamma 120.78929
loop_
_atom_site_label
_atom_site_type_symbol
_atom_site_fract_x
_atom_site_fract_y
_atom_site_fract_z
_atom_type_partial_charge
Co0 Co 0.24018 0.97951 1.00738 0.0
C1 C 1.12429 0.98103 0.88265 0.0
Co2 Co 0.99231 1.02738 0.03011 0.0
C3 C 0.33252 0.75024 0.05157 0.0
C4 C 0.45574 0.80766 0.94722 0.0
N5 N 0.42467 0.89381 1.00771 0.0
N6 N 0.22889 0.58163 1.01504 0.0
C7 C 0.30827 0.6087 0.94921 0.0
H8 H 0.29402 0.77077 0.10546 0.0
H9 H 0.53194 0.88925 0.90069 0.0
C10 C 1.11889 1.04399 0.15627 0.0
N11 N 0.81009 1.12459 0.03487 0.0
C12 C 0.91273 0.28095 0.99681 0.0
C13 C 0.78993 0.20168 0.09805 0.0
N14 N 1.03443 0.43336 0.03709 0.0
C15 C 0.95605 0.39355 0.10248 0.0
C16 C 0.72685 0.61723 0.02191 0.0
O17 O 0.25977 1.04669 0.1128 0.0
O18 O 0.958 1.00982 0.13103 0.0
O19 O 0.7166 0.77504 0.02654 0.0
O20 O 0.92506 0.66906 1.01613 0.0
O21 O 1.01849 1.03497 0.92529 0.0
H22 H 0.69036 1.10791 0.13933 0.0
H23 H 0.92555 0.27522 0.941 0.0
O24 O 0.23413 0.93099 0.90852 0.0
O25 O 0.51638 0.23536 0.99302 0.0
O26 O 0.31628 0.33507 0.03943 0.0
C27 C 0.51162 0.38849 0.0195 0.0
H28 H 0.24369 0.50281 0.90553 0.0
H29 H 1.02456 0.48663 0.14837 0.0
Co30 Co 0.39522 0.3356 0.3358 0.0
C31 C 1.16117 1.12372 0.23042 0.0
Co32 Co 1.09803 0.13257 0.38719 0.0
C33 C 0.77044 0.47899 0.35285 0.0
C34 C 0.72444 0.40506 0.2478 0.0
N35 N 0.67524 0.49475 0.3034 0.0
N36 N 0.78129 0.3129 0.34002 0.0
C37 C 0.77409 0.27478 0.27144 0.0
H38 H 0.78634 0.55532 0.40313 0.0
H39 H 0.67627 0.39737 0.19692 0.0
C40 C 0.33454 0.3281 0.49204 0.0
N41 N 0.81672 0.97759 0.42361 0.0
C42 C 0.72537 1.00067 0.37472 0.0
C43 C 0.76802 1.06672 0.48044 0.0
N44 N 0.71678 0.16813 0.38919 0.0
C45 C 0.72837 0.20535 0.45796 0.0
C46 C 0.24452 0.84483 0.36195 0.0
O47 O 0.46166 0.40402 0.4401 0.0
O48 O 1.15729 0.193 0.47815 0.0
O49 O 1.09472 0.86174 0.392 0.0
O50 O 0.38179 1.02025 0.33421 0.0
O51 O 1.03409 1.04856 0.28304 0.0
H52 H 0.81184 1.07121 0.53196 0.0
H53 H 0.71124 0.9283 0.32394 0.0
O54 O 0.33307 0.27627 0.24229 0.0
O55 O 0.4036 0.60985 0.3312 0.0
O56 O 1.11576 0.44978 0.38775 0.0
C57 C 0.25329 0.62609 0.36068 0.0
H58 H 0.77002 0.14361 0.24386 0.0
H59 H 0.7456 0.3407 0.487 0.0
Co60 Co 0.26967 1.04338 0.65737 0.0
C61 C 0.39088 0.31353 0.56113 0.0
Co62 Co 0.32041 0.32085 0.7153 0.0
C63 C 1.02354 0.65879 0.65606 0.0
C64 C 1.03402 0.76218 0.55971 0.0
N65 N 1.15513 0.78448 0.60985 0.0
N66 N 0.84176 0.64682 0.65416 0.0
C67 C 0.83847 0.68954 0.58903 0.0
H68 H 1.07632 0.63803 0.70168 0.0
H69 H 1.08992 0.84679 0.51393 0.0
C70 C 1.17889 1.04821 0.81044 0.0
N71 N 0.44649 0.58226 0.75985 0.0
C72 C 0.57731 0.70166 0.71162 0.0
C73 C 0.57182 0.60085 0.80841 0.0
N74 N 0.75739 0.70975 0.71258 0.0
C75 C 0.76323 0.66823 0.77752 0.0
C76 C 0.90955 0.189 0.68722 0.0
O77 O 1.18896 0.94205 0.75658 0.0
O78 O 0.23979 0.22978 0.80301 0.0
O79 O 1.05427 0.33284 0.72114 0.0
O80 O 0.96955 1.06286 0.6564 0.0
O81 O 0.37662 0.41528 0.61533 0.0
H82 H 0.52418 0.50926 0.85273 0.0
H83 H 0.52543 0.7241 0.66615 0.0
O84 O 0.36138 0.14186 0.57039 0.0
O85 O 0.53132 1.02473 0.65449 0.0
O86 O 0.62176 0.30248 0.71318 0.0
C87 C 0.67971 0.173 0.68512 0.0
H88 H 0.72543 0.71698 0.57006 0.0
H89 H 0.87027 0.62978 0.79492 0.0
loop_
_geom_bond_atom_site_label_1
_geom_bond_atom_site_label_2
_geom_bond_distance
_geom_bond_site_symmetry_2
_ccdc_geom_bond_type
Co0 N5 2.057 1_554 S
Co0 O17 2.021 . S
Co0 O20 2.062 1_455 S
Co0 O24 2.117 1_554 S
Co0 O25 2.020 1_565 S
C1 O21 1.259 1_455 S
C1 O24 1.258 1_545 S
Co2 N11 2.054 1_556 S
Co2 O18 2.104 1_556 S
Co2 O19 2.019 1_546 S
Co2 O21 2.034 . S
Co2 O26 2.062 1_655 S
C3 N5 1.316 1_554 S
C3 N6 1.347 1_554 S
C3 H8 0.931 . S
C4 N5 1.375 . S
C4 C7 1.350 . S
C4 H9 0.930 . S
N5 Co0 2.057 1_556 S
N5 C3 1.316 1_556 S
N5 C4 1.375 . S
N6 C3 1.347 1_556 S
N6 C7 1.373 . S
C7 C4 1.350 . S
C7 N6 1.373 . S
C7 H28 0.931 . S
H8 C3 0.931 . S
H9 C4 0.930 . S
C10 O17 1.259 . S
C10 O18 1.258 1_465 S
N11 Co2 2.054 1_554 S
N11 C12 1.316 1_554 S
N11 C13 1.375 . S
C12 N11 1.316 1_556 S
C12 N14 1.347 1_556 S
C12 H23 0.931 . S
C13 N11 1.375 . S
C13 C15 1.350 . S
C13 H22 0.930 . S
N14 C12 1.347 1_554 S
N14 C15 1.373 . S
C15 C13 1.350 . S
C15 N14 1.373 . S
C15 H29 0.931 . S
C16 O19 1.256 . S
C16 O20 1.255 . S
O17 Co0 2.021 . S
O17 C10 1.259 . S
O18 Co2 2.104 1_554 S
O18 C10 1.258 1_645 S
O19 Co2 2.019 1_564 S
O19 C16 1.256 . S
O20 Co0 2.062 1_655 S
O20 C16 1.255 . S
O21 C1 1.259 1_655 S
O21 Co2 2.034 . S
H22 C13 0.930 . S
H23 C12 0.931 . S
O24 Co0 2.117 1_556 S
O24 C1 1.258 1_565 S
O25 Co0 2.020 1_545 S
O25 C27 1.256 . S
O26 Co2 2.062 1_455 S
O26 C27 1.255 1_556 S
C27 O25 1.256 . S
C27 O26 1.255 1_554 S
H28 C7 0.931 . S
H29 C15 0.931 . S
Co30 N35 2.057 . S
Co30 O47 2.021 . S
Co30 O50 2.062 1_545 S
Co30 O54 2.117 . S
Co30 O55 2.020 . S
C31 O51 1.259 1_445 S
C31 O54 1.258 . S
Co32 N41 2.057 . S
Co32 O48 2.117 . S
Co32 O49 2.020 . S
Co32 O51 2.021 . S
Co32 O56 2.062 1_565 S
C33 N35 1.316 . S
C33 N36 1.347 . S
C33 H38 0.931 . S
C34 N35 1.375 . S
C34 C37 1.350 . S
C34 H39 0.930 . S
N35 Co30 2.057 . S
N35 C33 1.316 . S
N35 C34 1.375 . S
N36 C33 1.347 . S
N36 C37 1.373 . S
C37 C34 1.350 . S
C37 N36 1.373 . S
C37 H58 0.931 . S
H38 C33 0.931 . S
H39 C34 0.930 . S
C40 O47 1.259 . S
C40 O48 1.258 1_445 S
N41 Co32 2.057 . S
N41 C42 1.316 . S
N41 C43 1.375 . S
C42 N41 1.316 . S
C42 N44 1.347 . S
C42 H53 0.931 . S
C43 N41 1.375 . S
C43 C45 1.350 . S
C43 H52 0.930 . S
N44 C42 1.347 . S
N44 C45 1.373 . S
C45 C43 1.350 . S
C45 N44 1.373 . S
C45 H59 0.931 . S
C46 O49 1.256 . S
C46 O50 1.255 1_655 S
O47 Co30 2.021 . S
O47 C40 1.259 . S
O48 Co32 2.117 . S
O48 C40 1.258 1_665 S
O49 Co32 2.020 . S
O49 C46 1.256 . S
O50 Co30 2.062 1_565 S
O50 C46 1.255 1_455 S
O51 C31 1.259 1_665 S
O51 Co32 2.021 . S
H52 C43 0.930 . S
H53 C42 0.931 . S
O54 Co30 2.117 . S
O54 C31 1.258 . S
O55 Co30 2.020 . S
O55 C57 1.256 . S
O56 Co32 2.062 1_545 S
O56 C57 1.255 1_655 S
C57 O55 1.256 . S
C57 O56 1.255 1_455 S
H58 C37 0.931 . S
H59 C45 0.931 . S
Co60 N65 2.057 . S
Co60 O77 2.021 . S
Co60 O80 2.062 . S
Co60 O84 2.117 . S
Co60 O85 2.020 1_655 S
C61 O81 1.259 . S
C61 O84 1.258 1_445 S
Co62 N71 2.057 . S
Co62 O78 2.117 . S
Co62 O79 2.020 1_455 S
Co62 O81 2.021 . S
Co62 O86 2.062 . S
C63 N65 1.316 . S
C63 N66 1.347 . S
C63 H68 0.931 . S
C64 N65 1.375 . S
C64 C67 1.350 . S
C64 H69 0.930 . S
N65 Co60 2.057 . S
N65 C63 1.316 . S
N65 C64 1.375 . S
N66 C63 1.347 . S
N66 C67 1.373 . S
C67 C64 1.350 . S
C67 N66 1.373 . S
C67 H88 0.931 . S
H68 C63 0.931 . S
H69 C64 0.930 . S
C70 O77 1.259 1_455 S
C70 O78 1.258 1_565 S
N71 Co62 2.057 . S
N71 C72 1.316 . S
N71 C73 1.375 . S
C72 N71 1.316 . S
C72 N74 1.347 . S
C72 H83 0.931 . S
C73 N71 1.375 . S
C73 C75 1.350 . S
C73 H82 0.930 . S
N74 C72 1.347 . S
N74 C75 1.373 . S
C75 C73 1.350 . S
C75 N74 1.373 . S
C75 H89 0.931 . S
C76 O79 1.256 . S
C76 O80 1.255 1_545 S
O77 Co60 2.021 . S
O77 C70 1.259 1_655 S
O78 Co62 2.117 . S
O78 C70 1.258 1_545 S
O79 Co62 2.020 1_655 S
O79 C76 1.256 . S
O80 Co60 2.062 . S
O80 C76 1.255 1_565 S
O81 C61 1.259 . S
O81 Co62 2.021 . S
H82 C73 0.930 . S
H83 C72 0.931 . S
O84 Co60 2.117 . S
O84 C61 1.258 1_665 S
O85 Co60 2.020 1_455 S
O85 C87 1.256 . S
O86 Co62 2.062 . S
O86 C87 1.255 1_545 S
C87 O85 1.256 . S
C87 O86 1.255 1_565 S
H88 C67 0.931 . S
H89 C75 0.931 . S
N14 N6 2.851 1_654 S
N36 N44 2.823 1_545 S
N66 N74 2.862 . S
C76 C87 4.537 1_545 S
C16 C27 4.532 . S
C57 C46 4.532 1_455 S
C31 C10 1.486 1_545 S
C40 C61 1.493 . S
C70 C1 1.499 1_565 S
