# Generated by pormake.
# Topology acs, (6)-cn, num edge types: 1
# Building blocks:
#     Node 0, Type 0, BuildingBlock: IZENUY_clean_sbu_0, # of connection points: 6
#     Node 1, Type 0, BuildingBlock: IZENUY_clean_sbu_0, # of connection points: 6
#     Edge 2, Type (0, 0), BuildingBlock: EYOCIG_clean_linker_4, # of connection points: 2
#     Edge 3, Type (0, 0), BuildingBlock: EYOCIG_clean_linker_4, # of connection points: 2
#     Edge 4, Type (0, 0), BuildingBlock: EYOCIG_clean_linker_4, # of connection points: 2
#     Edge 5, Type (0, 0), BuildingBlock: EYOCIG_clean_linker_4, # of connection points: 2
#     Edge 6, Type (0, 0), BuildingBlock: EYOCIG_clean_linker_4, # of connection points: 2
#     Edge 7, Type (0, 0), BuildingBlock: EYOCIG_clean_linker_4, # of connection points: 2
# Relax obj value: 0.000
# Max RMSD: 0.012
# Mean RMSD: 0.012
data_MOF--net-acs--node1-IZENUY_clean_sbu_0--edge1-EYOCIG_clean_linker_4
_symmetry_space_group_name_H-M    P1
_symmetry_Int_Tables_number       1
_symmetry_cell_setting            triclinic
loop_
_symmetry_equiv_pos_as_xyz
'x, y, z'
_cell_length_a     17.471014
_cell_length_b     17.495549
_cell_length_c     15.615156
_cell_angle_alpha  89.986469
_cell_angle_beta   90.021356
_cell_angle_gamma 120.07902
loop_
_atom_site_label
_atom_site_type_symbol
_atom_site_fract_x
_atom_site_fract_y
_atom_site_fract_z
_atom_type_partial_charge
Fe0 Fe 0.56883 0.28767 0.25925 0.0
Fe1 Fe 0.74995 0.28784 0.26041 0.0
O2 O 0.68956 0.34802 0.25965 0.0
Fe3 Fe 0.74999 0.4686 0.25998 0.0
O4 O 0.68356 0.47946 0.34276 0.0
O5 O 0.55758 0.35331 0.34284 0.0
O6 O 0.55753 0.2107 0.34281 0.0
C7 C 0.60714 0.18403 0.37153 0.0
C8 C 0.60748 0.43119 0.1487 0.0
O9 O 0.68391 0.21143 0.34386 0.0
C10 C 0.8559 0.43084 0.15022 0.0
O11 O 0.55813 0.21067 0.17582 0.0
O12 O 0.68416 0.21045 0.17722 0.0
O13 O 0.68467 0.47998 0.17604 0.0
O14 O 0.55817 0.35405 0.17587 0.0
C15 C 0.85249 0.42976 0.37302 0.0
O16 O 0.82741 0.35368 0.17724 0.0
O17 O 0.82798 0.4799 0.17747 0.0
C18 C 0.60725 0.18239 0.14934 0.0
O19 O 0.8263 0.35368 0.34423 0.0
O20 O 0.82569 0.47918 0.3444 0.0
C21 C 0.60689 0.43001 0.37079 0.0
Fe22 Fe 0.47709 0.74119 0.7591 0.0
Fe23 Fe 0.29688 0.74266 0.76055 0.0
O24 O 0.3564 0.68162 0.75964 0.0
Fe25 Fe 0.29538 0.56105 0.75994 0.0
O26 O 0.36139 0.54992 0.84335 0.0
O27 O 0.48784 0.67553 0.84265 0.0
O28 O 0.48926 0.81805 0.8427 0.0
C29 C 0.44045 0.84536 0.87178 0.0
C30 C 0.43751 0.59808 0.64812 0.0
O31 O 0.36386 0.81917 0.84394 0.0
C32 C 0.18991 0.59961 0.65041 0.0
O33 O 0.48826 0.81807 0.67578 0.0
O34 O 0.36291 0.8196 0.67676 0.0
O35 O 0.36057 0.54925 0.67604 0.0
O36 O 0.48715 0.6749 0.67561 0.0
C37 C 0.19333 0.60064 0.87288 0.0
O38 O 0.2186 0.67675 0.67775 0.0
O39 O 0.21786 0.55037 0.67715 0.0
C40 C 0.43966 0.84661 0.64872 0.0
O41 O 0.22055 0.67721 0.84472 0.0
O42 O 0.21946 0.5508 0.84394 0.0
C43 C 0.43807 0.59944 0.87152 0.0
C44 C 0.50645 0.97424 0.98582 0.0
C45 C 0.47678 0.91539 0.93375 0.0
C46 C 0.54178 0.04707 0.0424 0.0
C47 C 0.5711 0.10884 0.0912 0.0
C48 C 0.50238 0.5298 0.53864 0.0
C49 C 0.47327 0.56146 0.58861 0.0
C50 C 0.53918 0.49372 0.48209 0.0
C51 C 0.57099 0.46554 0.43129 0.0
C52 C 0.99161 0.49753 0.04364 0.0
C53 C 0.92966 0.46743 0.09229 0.0
C54 C 0.06457 0.53454 0.98715 0.0
C55 C 0.12336 0.56535 0.93499 0.0
C56 C 0.50728 0.98052 0.54013 0.0
C57 C 0.47678 0.91939 0.58969 0.0
C58 C 0.54305 0.05349 0.48372 0.0
C59 C 0.57184 0.11309 0.43249 0.0
C60 C 0.50465 0.53674 0.9852 0.0
C61 C 0.47368 0.56479 0.93331 0.0
C62 C 0.54145 0.50049 0.04162 0.0
C63 C 0.57115 0.46843 0.09049 0.0
C64 C 0.05379 0.53257 0.54422 0.0
C65 C 0.11592 0.56312 0.59269 0.0
C66 C 0.9808 0.49548 0.48774 0.0
C67 C 0.92221 0.46503 0.43536 0.0
loop_
_geom_bond_atom_site_label_1
_geom_bond_atom_site_label_2
_geom_bond_distance
_geom_bond_site_symmetry_2
_ccdc_geom_bond_type
Fe0 O2 1.918 . S
Fe0 O5 1.997 . S
Fe0 O6 2.002 . S
Fe0 O11 1.976 . S
Fe0 O14 1.996 . S
Fe1 O2 1.918 . S
Fe1 O9 1.997 . S
Fe1 O12 1.996 . S
Fe1 O16 1.976 . S
Fe1 O19 2.002 . S
O2 Fe0 1.918 . S
O2 Fe1 1.918 . S
O2 Fe3 1.918 . S
Fe3 O2 1.918 . S
Fe3 O4 2.002 . S
Fe3 O13 1.976 . S
Fe3 O17 1.996 . S
Fe3 O20 1.997 . S
O4 Fe3 2.002 . S
O4 C21 1.295 . S
O5 Fe0 1.997 . S
O5 C21 1.235 . S
O6 Fe0 2.002 . S
O6 C7 1.295 . S
C7 O6 1.295 . S
C7 O9 1.235 . S
C8 O13 1.287 . S
C8 O14 1.255 . S
O9 Fe1 1.997 . S
O9 C7 1.235 . S
C10 O16 1.287 . S
C10 O17 1.255 . S
O11 Fe0 1.976 . S
O11 C18 1.287 . S
O12 Fe1 1.996 . S
O12 C18 1.255 . S
O13 Fe3 1.976 . S
O13 C8 1.287 . S
O14 Fe0 1.996 . S
O14 C8 1.255 . S
C15 O19 1.295 . S
C15 O20 1.235 . S
O16 Fe1 1.976 . S
O16 C10 1.287 . S
O17 Fe3 1.996 . S
O17 C10 1.255 . S
C18 O11 1.287 . S
C18 O12 1.255 . S
O19 Fe1 2.002 . S
O19 C15 1.295 . S
O20 Fe3 1.997 . S
O20 C15 1.235 . S
C21 O4 1.295 . S
C21 O5 1.235 . S
Fe22 O24 1.918 . S
Fe22 O27 1.997 . S
Fe22 O28 2.002 . S
Fe22 O33 1.976 . S
Fe22 O36 1.996 . S
Fe23 O24 1.918 . S
Fe23 O31 1.997 . S
Fe23 O34 1.996 . S
Fe23 O38 1.976 . S
Fe23 O41 2.002 . S
O24 Fe22 1.918 . S
O24 Fe23 1.918 . S
O24 Fe25 1.918 . S
Fe25 O24 1.918 . S
Fe25 O26 2.002 . S
Fe25 O35 1.976 . S
Fe25 O39 1.996 . S
Fe25 O42 1.997 . S
O26 Fe25 2.002 . S
O26 C43 1.295 . S
O27 Fe22 1.997 . S
O27 C43 1.235 . S
O28 Fe22 2.002 . S
O28 C29 1.295 . S
C29 O28 1.295 . S
C29 O31 1.235 . S
C30 O35 1.287 . S
C30 O36 1.255 . S
O31 Fe23 1.997 . S
O31 C29 1.235 . S
C32 O38 1.287 . S
C32 O39 1.255 . S
O33 Fe22 1.976 . S
O33 C40 1.287 . S
O34 Fe23 1.996 . S
O34 C40 1.255 . S
O35 Fe25 1.976 . S
O35 C30 1.287 . S
O36 Fe22 1.996 . S
O36 C30 1.255 . S
C37 O41 1.295 . S
C37 O42 1.235 . S
O38 Fe23 1.976 . S
O38 C32 1.287 . S
O39 Fe25 1.996 . S
O39 C32 1.255 . S
C40 O33 1.287 . S
C40 O34 1.255 . S
O41 Fe23 2.002 . S
O41 C37 1.295 . S
O42 Fe25 1.997 . S
O42 C37 1.235 . S
C43 O26 1.295 . S
C43 O27 1.235 . S
C44 C45 1.170 . S
C44 C46 1.380 1_566 S
C45 C44 1.170 . S
C46 C44 1.380 1_544 S
C46 C47 1.170 . S
C47 C46 1.170 . S
C48 C49 1.170 . S
C48 C50 1.380 . S
C49 C48 1.170 . S
C50 C48 1.380 . S
C50 C51 1.170 . S
C51 C50 1.170 . S
C52 C53 1.170 . S
C52 C54 1.380 1_654 S
C53 C52 1.170 . S
C54 C52 1.380 1_456 S
C54 C55 1.170 . S
C55 C54 1.170 . S
C56 C57 1.170 . S
C56 C58 1.380 1_565 S
C57 C56 1.170 . S
C58 C56 1.380 1_545 S
C58 C59 1.170 . S
C59 C58 1.170 . S
C60 C61 1.170 . S
C60 C62 1.380 1_556 S
C61 C60 1.170 . S
C62 C60 1.380 1_554 S
C62 C63 1.170 . S
C63 C62 1.170 . S
C64 C65 1.170 . S
C64 C66 1.380 1_455 S
C65 C64 1.170 . S
C66 C64 1.380 1_655 S
C66 C67 1.170 . S
C67 C66 1.170 . S
C45 C29 1.485 . S
C47 C18 1.493 . S
C49 C30 1.500 . S
C51 C21 1.483 . S
C53 C10 1.496 . S
C55 C37 1.495 . S
C57 C40 1.499 . S
C59 C7 1.487 . S
C61 C43 1.491 . S
C63 C8 1.498 . S
C65 C32 1.496 . S
C67 C15 1.495 . S
