# Generated by pormake.
# Topology pcu, (6)-cn, num edge types: 1
# Building blocks:
#     Node 0, Type 0, BuildingBlock: JUFBIX_clean_sbu_0, # of connection points: 6
#     Edge 1, Type (0, 0), BuildingBlock: FUNLAD_clean_linker_1, # of connection points: 2
#     Edge 2, Type (0, 0), BuildingBlock: FUNLAD_clean_linker_1, # of connection points: 2
#     Edge 3, Type (0, 0), BuildingBlock: FUNLAD_clean_linker_1, # of connection points: 2
# Relax obj value: 0.000
# Max RMSD: 0.000
# Mean RMSD: 0.000
data_MOF--net-pcu--node1-JUFBIX_clean_sbu_0--edge1-FUNLAD_clean_linker_1
_symmetry_space_group_name_H-M    P1
_symmetry_Int_Tables_number       1
_symmetry_cell_setting            triclinic
loop_
_symmetry_equiv_pos_as_xyz
'x, y, z'
_cell_length_a     15.414444
_cell_length_b     20.401122
_cell_length_c     15.440635
_cell_angle_alpha  86.82666
_cell_angle_beta   93.036286
_cell_angle_gamma 95.549302
loop_
_atom_site_label
_atom_site_type_symbol
_atom_site_fract_x
_atom_site_fract_y
_atom_site_fract_z
_atom_type_partial_charge
Co0 Co 0.99729 0.97137 0.02189 0.0
C1 C 0.02026 0.04238 0.17132 0.0
Co2 Co 0.02815 0.0788 0.99648 0.0
C3 C 1.00546 0.83121 0.01036 0.0
C4 C 0.91318 0.8528 0.10104 0.0
N5 N 0.97084 0.88169 0.04467 0.0
N6 N 0.97206 0.77204 0.04322 0.0
C7 C 0.91372 0.78539 0.10036 0.0
H8 H 0.05487 0.8377 0.96251 0.0
H9 H 0.87357 0.87914 0.14044 0.0
C10 C 1.00517 1.00779 0.84704 0.0
N11 N 0.0546 0.16848 0.97369 0.0
C12 C 0.01997 0.21897 1.008 0.0
C13 C 0.11226 0.19737 0.91732 0.0
N14 N 0.05337 0.27813 0.97514 0.0
C15 C 0.11171 0.26479 0.918 0.0
C16 C 0.17428 1.00899 0.0165 0.0
O17 O 0.99158 0.95867 0.90042 0.0
O18 O 0.02221 0.06518 0.87538 0.0
O19 O 0.14886 0.06621 1.00217 0.0
O20 O 0.11833 0.95971 0.02746 0.0
O21 O 0.03386 0.0915 0.11794 0.0
H22 H 0.15187 0.17103 0.87792 0.0
H23 H 0.97056 0.21247 0.05585 0.0
O24 O 1.00323 0.98499 0.14298 0.0
O25 O 0.87657 0.98396 0.01619 0.0
O26 O 0.9071 0.09046 0.99091 0.0
C27 C 0.85115 0.04118 1.00186 0.0
H28 H 0.87415 0.74949 0.13906 0.0
H29 H 0.15128 0.30069 0.87931 0.0
H30 H 0.04137 0.10221 0.28675 0.0
C31 C 0.02464 0.0525 0.26534 0.0
H32 H 0.98884 0.95296 0.30409 0.0
H33 H 0.17949 0.06865 0.66764 0.0
H34 H 0.31358 0.07698 0.59064 0.0
H35 H 0.31125 0.05493 0.43503 0.0
H36 H 0.17481 0.02508 0.35523 0.0
C37 C 1.00859 1.00255 0.32452 0.0
C38 C 1.01107 1.01404 0.41901 0.0
C39 C 0.09167 0.03086 0.46485 0.0
C40 C 0.09316 0.04254 0.55494 0.0
C41 C 0.17451 0.05931 0.59916 0.0
C42 C 0.25204 0.06408 0.55584 0.0
C43 C 0.25072 0.05178 0.46819 0.0
C44 C 0.17177 0.03509 0.42299 0.0
H45 H 0.98406 0.94796 0.73161 0.0
C46 C 1.0008 0.99768 0.75302 0.0
H47 H 0.0366 0.09721 0.71427 0.0
H48 H 0.84594 0.98153 0.35072 0.0
H49 H 0.71186 0.97319 0.42772 0.0
H50 H 0.71418 0.99524 0.58333 0.0
H51 H 0.85062 0.02509 0.66314 0.0
C52 C 0.01685 0.04762 0.69384 0.0
C53 C 0.01436 0.03614 0.59935 0.0
C54 C 0.93377 1.01931 0.55351 0.0
C55 C 0.93227 1.00764 0.46342 0.0
C56 C 0.85093 0.99086 0.4192 0.0
C57 C 0.77339 0.98609 0.46252 0.0
C58 C 0.77472 0.99839 0.55017 0.0
C59 C 0.85367 1.01508 0.59538 0.0
H60 H 0.28659 0.94958 0.0357 0.0
C61 C 0.26782 0.99912 0.02064 0.0
H62 H 0.31208 0.0983 0.98787 0.0
H63 H 0.66941 0.98434 0.17417 0.0
H64 H 0.59305 0.98075 0.30802 0.0
H65 H 0.43902 1.00436 0.30656 0.0
H66 H 0.36018 0.03124 0.17122 0.0
C67 C 0.32973 0.04892 1.00607 0.0
C68 C 0.42349 0.03715 1.00805 0.0
C69 C 0.46872 1.02203 0.08797 0.0
C70 C 0.55788 1.00935 0.08896 0.0
C71 C 0.6016 0.99435 0.16962 0.0
C72 C 0.55864 0.99227 0.247 0.0
C73 C 0.47187 1.00547 0.24616 0.0
C74 C 0.42721 1.02044 0.16786 0.0
H75 H 0.73885 0.10059 0.98267 0.0
C76 C 0.75761 0.05106 0.99773 0.0
H77 H 0.71335 0.95188 0.03049 0.0
H78 H 0.35602 0.06583 0.8442 0.0
H79 H 0.43238 0.06942 0.71035 0.0
H80 H 0.58642 0.04581 0.7118 0.0
H81 H 0.66525 1.01893 0.84714 0.0
C82 C 0.69571 1.00125 0.01229 0.0
C83 C 0.60195 1.01302 0.01031 0.0
C84 C 0.55672 0.02814 0.93039 0.0
C85 C 0.46755 0.04082 0.9294 0.0
C86 C 0.42383 0.05582 0.84875 0.0
C87 C 0.46679 0.0579 0.77137 0.0
C88 C 0.55356 0.0447 0.77221 0.0
C89 C 0.59823 0.02973 0.8505 0.0
H90 H 0.04241 0.70775 0.9696 0.0
C91 C 0.99639 0.70894 0.02039 0.0
H92 H 0.91798 0.65104 0.10977 0.0
H93 H 0.89888 0.39208 0.90056 0.0
H94 H 0.75162 0.42321 0.87486 0.0
H95 H 0.71146 0.5294 0.92185 0.0
H96 H 0.8186 0.60531 0.99431 0.0
C97 C 0.96538 0.65177 0.06024 0.0
C98 C 0.99007 0.58708 0.03415 0.0
C99 C 0.92621 0.54259 0.99351 0.0
C100 C 0.94903 0.48083 0.96769 0.0
C101 C 0.88471 0.43869 0.92393 0.0
C102 C 0.79995 0.45617 0.90814 0.0
C103 C 0.77737 0.51599 0.9345 0.0
C104 C 0.83952 0.55902 0.9763 0.0
H105 H 0.98303 0.34242 0.04876 0.0
C106 C 0.02905 0.34123 0.99798 0.0
H107 H 0.10745 0.39913 0.9086 0.0
H108 H 0.12655 0.65809 0.11781 0.0
H109 H 0.27381 0.62696 0.1435 0.0
H110 H 0.31397 0.52077 0.09651 0.0
H111 H 0.20683 0.44486 0.02406 0.0
C112 C 0.06005 0.3984 0.95812 0.0
C113 C 0.03537 0.46309 0.98422 0.0
C114 C 0.09922 0.50758 0.02485 0.0
C115 C 0.07641 0.56934 0.05068 0.0
C116 C 0.14073 0.61148 0.09443 0.0
C117 C 0.22548 0.594 0.11022 0.0
C118 C 0.24807 0.53419 0.08387 0.0
C119 C 0.18591 0.49116 0.04206 0.0
loop_
_geom_bond_atom_site_label_1
_geom_bond_atom_site_label_2
_geom_bond_distance
_geom_bond_site_symmetry_2
_ccdc_geom_bond_type
Co0 N5 2.057 1_556 S
Co0 O17 2.021 . S
Co0 O20 2.062 1_655 S
Co0 O24 2.117 1_556 S
Co0 O25 2.020 . S
C1 O21 1.259 . S
C1 O24 1.258 1_445 S
Co2 N11 2.057 1_554 S
Co2 O18 2.117 1_554 S
Co2 O19 2.020 . S
Co2 O21 2.021 . S
Co2 O26 2.062 1_455 S
C3 N5 1.316 1_556 S
C3 N6 1.347 1_556 S
C3 H8 0.931 . S
C4 N5 1.375 . S
C4 C7 1.350 . S
C4 H9 0.930 . S
N5 Co0 2.057 1_554 S
N5 C3 1.316 1_554 S
N5 C4 1.375 . S
N6 C3 1.347 1_554 S
N6 C7 1.373 . S
C7 C4 1.350 . S
C7 N6 1.373 . S
C7 H28 0.931 . S
H8 C3 0.931 . S
H9 C4 0.930 . S
C10 O17 1.259 . S
C10 O18 1.258 1_665 S
N11 Co2 2.057 1_556 S
N11 C12 1.316 1_556 S
N11 C13 1.375 . S
C12 N11 1.316 1_554 S
C12 N14 1.347 1_554 S
C12 H23 0.931 . S
C13 N11 1.375 . S
C13 C15 1.350 . S
C13 H22 0.930 . S
N14 C12 1.347 1_556 S
N14 C15 1.373 . S
C15 C13 1.350 . S
C15 N14 1.373 . S
C15 H29 0.931 . S
C16 O19 1.264 1_556 S
C16 O20 1.248 1_545 S
O17 Co0 2.021 . S
O17 C10 1.259 . S
O18 Co2 2.117 1_556 S
O18 C10 1.258 1_445 S
O19 Co2 2.020 . S
O19 C16 1.264 1_554 S
O20 Co0 2.062 1_455 S
O20 C16 1.248 1_565 S
O21 C1 1.259 . S
O21 Co2 2.021 . S
H22 C13 0.930 . S
H23 C12 0.931 . S
O24 Co0 2.117 1_554 S
O24 C1 1.258 1_665 S
O25 Co0 2.020 . S
O25 C27 1.260 1_556 S
O26 Co2 2.062 1_655 S
O26 C27 1.251 1_545 S
C27 O25 1.260 1_554 S
C27 O26 1.251 1_565 S
H28 C7 0.931 . S
H29 C15 0.931 . S
H30 C31 0.951 . S
C31 H30 0.951 . S
C31 C37 1.265 1_665 S
H32 C37 0.950 . S
H33 C41 0.949 . S
H34 C42 0.950 . S
H35 C43 0.951 . S
H36 C44 0.951 . S
C37 C31 1.265 1_445 S
C37 H32 0.950 . S
C37 C38 1.478 . S
C38 C37 1.478 . S
C38 C39 1.397 . S
C38 C55 1.394 1_445 S
C39 C38 1.397 . S
C39 C40 1.438 . S
C39 C44 1.429 . S
C40 C39 1.438 . S
C40 C41 1.428 . S
C40 C53 1.394 1_445 S
C41 H33 0.949 . S
C41 C40 1.428 . S
C41 C42 1.345 . S
C42 H34 0.950 . S
C42 C41 1.345 . S
C42 C43 1.424 . S
C43 H35 0.951 . S
C43 C42 1.424 . S
C43 C44 1.347 . S
C44 H36 0.951 . S
C44 C39 1.429 . S
C44 C43 1.347 . S
H45 C46 0.950 . S
C46 H45 0.950 . S
C46 C52 1.265 1_445 S
H47 C52 0.950 . S
H48 C56 0.949 . S
H49 C57 0.950 . S
H50 C58 0.951 . S
H51 C59 0.951 . S
C52 C46 1.265 1_665 S
C52 H47 0.950 . S
C52 C53 1.478 . S
C53 C40 1.394 1_665 S
C53 C52 1.478 . S
C53 C54 1.397 . S
C54 C53 1.397 . S
C54 C55 1.438 . S
C54 C59 1.429 . S
C55 C38 1.394 1_665 S
C55 C54 1.438 . S
C55 C56 1.428 . S
C56 H48 0.949 . S
C56 C55 1.428 . S
C56 C57 1.345 . S
C57 H49 0.950 . S
C57 C56 1.345 . S
C57 C58 1.424 . S
C58 H50 0.951 . S
C58 C57 1.424 . S
C58 C59 1.347 . S
C59 H51 0.951 . S
C59 C54 1.429 . S
C59 C58 1.347 . S
H60 C61 0.951 . S
C61 H60 0.951 . S
C61 C67 1.265 1_566 S
H62 C67 0.950 . S
H63 C71 0.949 1_565 S
H64 C72 0.950 . S
H65 C73 0.951 . S
H66 C74 0.951 . S
C67 C61 1.265 1_544 S
C67 H62 0.950 . S
C67 C68 1.478 . S
C68 C67 1.478 . S
C68 C69 1.397 . S
C68 C85 1.389 1_544 S
C69 C68 1.397 . S
C69 C70 1.438 . S
C69 C74 1.429 . S
C70 C69 1.438 . S
C70 C71 1.428 . S
C70 C83 1.394 1_544 S
C71 H63 0.949 1_545 S
C71 C70 1.428 . S
C71 C72 1.345 . S
C72 H64 0.950 . S
C72 C71 1.345 . S
C72 C73 1.424 . S
C73 H65 0.951 . S
C73 C72 1.424 . S
C73 C74 1.347 . S
C74 H66 0.951 . S
C74 C69 1.429 . S
C74 C73 1.347 . S
H75 C76 0.951 . S
C76 H75 0.951 . S
C76 C82 1.265 1_544 S
H77 C82 0.950 . S
H78 C86 0.949 1_545 S
H79 C87 0.950 . S
H80 C88 0.951 . S
H81 C89 0.951 . S
C82 C76 1.265 1_566 S
C82 H77 0.950 . S
C82 C83 1.478 . S
C83 C70 1.394 1_566 S
C83 C82 1.478 . S
C83 C84 1.397 . S
C84 C83 1.397 . S
C84 C85 1.444 . S
C84 C89 1.429 . S
C85 C68 1.389 1_566 S
C85 C84 1.444 . S
C85 C86 1.427 . S
C86 H78 0.949 1_565 S
C86 C85 1.427 . S
C86 C87 1.345 . S
C87 H79 0.950 . S
C87 C86 1.345 . S
C87 C88 1.424 . S
C88 H80 0.951 . S
C88 C87 1.424 . S
C88 C89 1.347 . S
C89 H81 0.951 . S
C89 C84 1.429 . S
C89 C88 1.347 . S
H90 C91 0.952 . S
C91 H90 0.952 . S
C91 C97 1.265 1_656 S
H92 C97 0.950 . S
H93 C101 0.949 . S
H94 C102 0.950 . S
H95 C103 0.951 . S
H96 C104 0.951 . S
C97 C91 1.265 1_454 S
C97 H92 0.950 . S
C97 C98 1.478 . S
C98 C97 1.478 . S
C98 C99 1.397 . S
C98 C115 1.394 1_454 S
C99 C98 1.397 . S
C99 C100 1.438 . S
C99 C104 1.429 . S
C100 C99 1.438 . S
C100 C101 1.428 . S
C100 C113 1.394 1_454 S
C101 H93 0.949 . S
C101 C100 1.428 . S
C101 C102 1.345 . S
C102 H94 0.950 . S
C102 C101 1.345 . S
C102 C103 1.424 . S
C103 H95 0.951 . S
C103 C102 1.424 . S
C103 C104 1.347 . S
C104 H96 0.951 . S
C104 C99 1.429 . S
C104 C103 1.347 . S
H105 C106 0.952 . S
C106 H105 0.952 . S
C106 C112 1.265 1_454 S
H107 C112 0.950 . S
H108 C116 0.949 . S
H109 C117 0.950 . S
H110 C118 0.951 . S
H111 C119 0.951 . S
C112 C106 1.265 1_656 S
C112 H107 0.950 . S
C112 C113 1.478 . S
C113 C100 1.394 1_656 S
C113 C112 1.478 . S
C113 C114 1.397 . S
C114 C113 1.397 . S
C114 C115 1.438 . S
C114 C119 1.429 . S
C115 C98 1.394 1_656 S
C115 C114 1.438 . S
C115 C116 1.428 . S
C116 H108 0.949 . S
C116 C115 1.428 . S
C116 C117 1.345 . S
C117 H109 0.950 . S
C117 C116 1.345 . S
C117 C118 1.424 . S
C118 H110 0.951 . S
C118 C117 1.424 . S
C118 C119 1.347 . S
C119 H111 0.951 . S
C119 C114 1.429 . S
C119 C118 1.347 . S
C31 C1 1.490 1_665 S
C46 C10 1.490 1_445 S
C61 C16 1.487 1_565 S
C76 C27 1.488 1_545 S
C91 N6 1.435 1_556 S
C106 N14 1.434 1_554 S
