# Generated by pormake.
# Topology pcu, (6)-cn, num edge types: 1
# Building blocks:
#     Node 0, Type 0, BuildingBlock: LEVNOQ01_clean_sbu_1, # of connection points: 6
#     Edge 1, Type (0, 0), BuildingBlock: TEMPAE_clean_linker_10, # of connection points: 2
#     Edge 2, Type (0, 0), BuildingBlock: TEMPAE_clean_linker_10, # of connection points: 2
#     Edge 3, Type (0, 0), BuildingBlock: TEMPAE_clean_linker_10, # of connection points: 2
# Relax obj value: 0.007
# Max RMSD: 0.050
# Mean RMSD: 0.050
data_MOF--net-pcu--node1-LEVNOQ01_clean_sbu_1--edge1-TEMPAE_clean_linker_10
_symmetry_space_group_name_H-M    P1
_symmetry_Int_Tables_number       1
_symmetry_cell_setting            triclinic
loop_
_symmetry_equiv_pos_as_xyz
'x, y, z'
_cell_length_a     16.279646
_cell_length_b     16.305095
_cell_length_c     16.419586
_cell_angle_alpha  74.073715
_cell_angle_beta   104.42488
_cell_angle_gamma 98.316933
loop_
_atom_site_label
_atom_site_type_symbol
_atom_site_fract_x
_atom_site_fract_y
_atom_site_fract_z
_atom_type_partial_charge
O0 O 0.81856 0.09628 0.9056 0.0
Mg1 Mg 0.93179 0.09304 0.86677 0.0
O2 O 0.835 0.96759 0.99084 0.0
Mg3 Mg 0.98119 0.9773 -0.00231 0.0
O4 O 0.96186 0.98536 0.84547 0.0
O5 O 0.89394 0.09144 0.74204 0.0
O6 O 0.12869 -0.00591 0.99104 0.0
O7 O 0.97145 0.83072 0.00445 0.0
Mg8 Mg 0.09348 0.92132 0.1306 0.0
O9 O 0.98584 0.95514 0.14953 0.0
O10 O 0.19349 0.01565 0.11751 0.0
O11 O 0.09659 0.80951 0.09158 0.0
O12 O 0.08498 0.88015 0.25461 0.0
C13 C 0.02428 0.19271 0.95599 0.0
C14 C 0.78873 0.02995 0.95347 0.0
C15 C 0.92776 0.01967 0.76453 0.0
C16 C 0.19622 0.01781 0.04103 0.0
C17 C 0.03186 0.78234 0.04252 0.0
C18 C 0.01566 0.91802 0.23078 0.0
O19 O 0.02751 0.19142 0.88058 0.0
O20 O -0.003 0.12428 0.00502 0.0
C21 C 0.96048 0.84854 0.36232 0.0
C22 C 0.97496 0.92306 0.29899 0.0
C23 C 0.94093 0.85305 0.43923 0.0
C24 C 0.93942 0.93419 0.45398 0.0
C25 C 0.94962 0.00956 0.38794 0.0
C26 C 0.9661 0.0029 0.31024 0.0
C27 C 0.92685 0.77131 0.50654 0.0
C28 C 0.94961 0.09737 0.40182 0.0
C29 C 0.85366 0.97122 0.63337 0.0
C30 C 0.92878 0.97936 0.69551 0.0
C31 C 0.85528 0.95045 0.55658 0.0
C32 C 0.9344 0.94102 0.54071 0.0
C33 C 0.01003 0.94498 0.6055 0.0
C34 C 0.00604 0.96299 0.68314 0.0
C35 C 0.77305 0.94329 0.49063 0.0
C36 C 0.0958 0.93637 0.59035 0.0
H37 H 0.96775 0.78685 0.35302 0.0
H38 H 0.97872 0.0603 0.26135 0.0
H39 H 0.98328 0.76328 0.5614 0.0
H40 H 0.87118 0.77383 0.53314 0.0
H41 H 0.91643 0.71425 0.47952 0.0
H42 H 0.95434 0.14914 0.34249 0.0
H43 H 0.89082 0.10253 0.42197 0.0
H44 H 0.00431 0.10774 0.45493 0.0
H45 H 0.79397 0.98408 0.64362 0.0
H46 H 0.06401 0.97055 0.73118 0.0
H47 H 0.76966 0.88614 0.46526 0.0
H48 H 0.77014 0.00026 0.43476 0.0
H49 H 0.71648 0.93903 0.51843 0.0
H50 H 0.09504 0.8759 0.57156 0.0
H51 H 0.14778 0.93733 0.6487 0.0
H52 H 0.11032 -0.01022 0.53589 0.0
C53 C 0.29045 0.00186 0.94781 0.0
C54 C 0.28003 0.02988 0.01782 0.0
C55 C 0.37197 0.00032 0.93412 0.0
C56 C 0.44438 0.02798 0.99149 0.0
C57 C 0.43394 0.05941 0.06017 0.0
C58 C 0.35195 0.05997 0.07247 0.0
C59 C 0.38076 0.96693 0.85982 0.0
C60 C 0.50953 0.09072 0.12191 0.0
C61 C 0.66241 0.95489 0.01399 0.0
C62 C 0.70014 0.02691 0.96306 0.0
C63 C 0.5783 0.95349 0.02249 0.0
C64 C 0.53133 0.02583 0.97918 0.0
C65 C 0.56885 0.09817 0.92711 0.0
C66 C 0.65255 0.09783 0.91971 0.0
C67 C 0.54003 0.8752 0.07864 0.0
C68 C 0.52109 0.17669 0.88027 0.0
H69 H 0.2352 0.97802 0.90566 0.0
H70 H 0.34435 0.08202 0.12653 0.0
H71 H 0.41736 0.01543 0.81755 0.0
H72 H 0.41686 0.90909 0.88554 0.0
H73 H 0.31807 0.95021 0.81959 0.0
H74 H 0.49033 0.1146 0.17107 0.0
H75 H 0.55135 0.03806 0.15625 0.0
H76 H 0.54786 0.14306 0.08527 0.0
H77 H 0.6986 0.89987 0.04745 0.0
H78 H 0.68085 0.15391 0.87997 0.0
H79 H 0.47959 0.85092 0.04066 0.0
H80 H 0.52461 0.89227 0.13376 0.0
H81 H 0.58358 0.82299 0.10503 0.0
H82 H 0.46032 0.159 0.83791 0.0
H83 H 0.55845 0.22651 0.83977 0.0
H84 H 0.50492 0.20477 0.9281 0.0
C85 C 0.0972 0.64437 0.07698 0.0
C86 C 0.02849 0.69424 0.03237 0.0
C87 C 0.09743 0.56113 0.06914 0.0
C88 C 0.0272 0.52632 0.01534 0.0
C89 C 0.95705 0.57558 0.97071 0.0
C90 C 0.95852 0.65922 0.97968 0.0
C91 C 0.17364 0.51094 0.11745 0.0
C92 C 0.88104 0.54024 0.91272 0.0
C93 C 0.06684 0.34938 0.92422 0.0
C94 C 0.03407 0.2761 0.97824 0.0
C95 C 0.06502 0.43105 0.93577 0.0
C96 C 0.02949 0.43979 0.00299 0.0
C97 C -0.00131 0.36596 0.05955 0.0
C98 C 0.00161 0.28482 0.04668 0.0
C99 C 0.09981 0.50813 0.875 0.0
C100 C 0.96086 0.37286 0.13231 0.0
H101 H 0.1517 0.6705 0.1181 0.0
H102 H 0.90521 0.69718 0.94521 0.0
H103 H 0.15326 0.44917 0.15908 0.0
H104 H 0.20417 0.49588 0.07052 0.0
H105 H 0.22197 0.54636 0.15895 0.0
H106 H 0.83024 0.58526 0.8853 0.0
H107 H 0.90105 0.52643 0.85832 0.0
H108 H 0.85416 0.47894 0.94964 0.0
H109 H 0.09223 0.34314 0.87132 0.0
H110 H 0.97565 0.22855 0.08832 0.0
H111 H 0.15088 0.54472 0.91258 0.0
H112 H 0.04878 0.55153 0.83986 0.0
H113 H 0.12604 0.49022 0.82653 0.0
H114 H 0.00753 0.40741 0.17577 0.0
H115 H 0.94134 0.3092 0.17166 0.0
H116 H 0.90435 0.41053 0.10513 0.0
loop_
_geom_bond_atom_site_label_1
_geom_bond_atom_site_label_2
_geom_bond_distance
_geom_bond_site_symmetry_2
_ccdc_geom_bond_type
O0 Mg1 1.990 . S
O0 C14 1.253 . S
Mg1 O0 1.990 . S
Mg1 O4 2.180 . S
Mg1 O5 2.117 . S
Mg1 O19 2.030 . S
O2 Mg3 2.072 1_665 S
O2 C14 1.260 1_564 S
Mg3 O2 2.072 1_445 S
Mg3 O4 2.099 1_454 S
Mg3 O6 2.079 1_554 S
Mg3 O7 2.072 1_444 S
Mg3 O9 2.099 1_545 S
Mg3 O20 2.079 . S
O4 Mg1 2.180 . S
O4 Mg3 2.099 1_656 S
O4 C15 1.279 . S
O5 Mg1 2.117 . S
O5 C15 1.250 . S
O6 Mg3 2.079 1_556 S
O6 C16 1.264 1_546 S
O7 Mg3 2.072 1_666 S
O7 C17 1.260 1_656 S
Mg8 O9 2.180 . S
Mg8 O10 2.030 . S
Mg8 O11 1.990 . S
Mg8 O12 2.117 . S
O9 Mg3 2.099 1_565 S
O9 Mg8 2.180 . S
O9 C18 1.279 . S
O10 Mg8 2.030 . S
O10 C16 1.248 . S
O11 Mg8 1.990 . S
O11 C17 1.253 . S
O12 Mg8 2.117 . S
O12 C18 1.250 . S
C13 O19 1.248 . S
C13 O20 1.264 1_656 S
C14 O0 1.253 . S
C14 O2 1.260 1_546 S
C15 O4 1.279 . S
C15 O5 1.250 . S
C16 O6 1.264 1_564 S
C16 O10 1.248 . S
C17 O7 1.260 1_454 S
C17 O11 1.253 . S
C18 O9 1.279 . S
C18 O12 1.250 . S
O19 Mg1 2.030 . S
O19 C13 1.248 . S
O20 Mg3 2.079 . S
O20 C13 1.264 1_454 S
C21 C22 1.391 . S
C21 C23 1.394 . S
C21 H37 0.931 . S
C22 C21 1.391 . S
C22 C26 1.376 1_665 S
C23 C21 1.394 . S
C23 C24 1.369 . S
C23 C27 1.531 . S
C24 C23 1.369 . S
C24 C25 1.410 1_665 S
C24 C32 1.503 . S
C25 C24 1.410 1_445 S
C25 C26 1.392 . S
C25 C28 1.511 . S
C26 C22 1.376 1_445 S
C26 C25 1.392 . S
C26 H38 0.929 . S
C27 C23 1.531 . S
C27 H39 0.960 . S
C27 H40 0.962 . S
C27 H41 0.960 . S
C28 C25 1.511 . S
C28 H42 0.961 . S
C28 H43 0.961 . S
C28 H44 0.961 . S
C29 C30 1.370 1_545 S
C29 C31 1.363 . S
C29 H45 0.931 . S
C30 C29 1.370 1_565 S
C30 C34 1.408 1_655 S
C31 C29 1.363 . S
C31 C32 1.370 1_545 S
C31 C35 1.524 . S
C32 C24 1.503 . S
C32 C31 1.370 1_565 S
C32 C33 1.403 1_655 S
C33 C32 1.403 1_455 S
C33 C34 1.404 . S
C33 C36 1.539 . S
C34 C30 1.408 1_455 S
C34 C33 1.404 . S
C34 H46 0.930 . S
C35 C31 1.524 . S
C35 H47 0.956 . S
C35 H48 0.961 . S
C35 H49 0.961 . S
C36 C33 1.539 . S
C36 H50 0.958 . S
C36 H51 0.961 . S
C36 H52 0.960 . S
H37 C21 0.931 . S
H38 C26 0.929 . S
H39 C27 0.960 . S
H40 C27 0.962 . S
H41 C27 0.960 . S
H42 C28 0.961 . S
H43 C28 0.961 . S
H44 C28 0.961 . S
H45 C29 0.931 . S
H46 C34 0.930 . S
H47 C35 0.956 . S
H48 C35 0.961 . S
H49 C35 0.961 . S
H50 C36 0.958 . S
H51 C36 0.961 . S
H52 C36 0.960 . S
C53 C54 1.391 1_556 S
C53 C55 1.394 . S
C53 H69 0.931 . S
C54 C53 1.391 1_554 S
C54 C58 1.375 1_545 S
C55 C53 1.394 . S
C55 C56 1.369 1_556 S
C55 C59 1.531 . S
C56 C55 1.369 1_554 S
C56 C57 1.410 . S
C56 C64 1.503 . S
C57 C56 1.410 . S
C57 C58 1.393 1_545 S
C57 C60 1.511 1_545 S
C58 C54 1.375 1_565 S
C58 C57 1.393 1_565 S
C58 H70 0.929 . S
C59 C55 1.531 . S
C59 H71 0.960 . S
C59 H72 0.962 . S
C59 H73 0.960 . S
C60 C57 1.511 1_565 S
C60 H74 0.961 . S
C60 H75 0.961 . S
C60 H76 0.961 1_565 S
C61 C62 1.370 1_566 S
C61 C63 1.363 . S
C61 H77 0.931 . S
C62 C61 1.370 1_544 S
C62 C66 1.408 . S
C63 C61 1.363 . S
C63 C64 1.370 1_566 S
C63 C67 1.524 . S
C64 C56 1.503 . S
C64 C63 1.370 1_544 S
C64 C65 1.403 . S
C65 C64 1.403 . S
C65 C66 1.404 . S
C65 C68 1.539 . S
C66 C62 1.408 . S
C66 C65 1.404 . S
C66 H78 0.930 . S
C67 C63 1.524 . S
C67 H79 0.956 . S
C67 H80 0.961 1_556 S
C67 H81 0.961 . S
C68 C65 1.539 . S
C68 H82 0.958 1_554 S
C68 H83 0.961 . S
C68 H84 0.960 . S
H69 C53 0.931 . S
H70 C58 0.929 . S
H71 C59 0.960 . S
H72 C59 0.962 . S
H73 C59 0.960 . S
H74 C60 0.961 . S
H75 C60 0.961 . S
H76 C60 0.961 1_545 S
H77 C61 0.931 . S
H78 C66 0.930 . S
H79 C67 0.956 . S
H80 C67 0.961 1_554 S
H81 C67 0.961 . S
H82 C68 0.958 1_556 S
H83 C68 0.961 . S
H84 C68 0.960 . S
C85 C86 1.391 . S
C85 C87 1.394 . S
C85 H101 0.931 . S
C86 C85 1.391 . S
C86 C90 1.376 1_454 S
C87 C85 1.394 . S
C87 C88 1.369 . S
C87 C91 1.531 . S
C88 C87 1.369 . S
C88 C89 1.410 1_454 S
C88 C96 1.503 . S
C89 C88 1.410 1_656 S
C89 C90 1.392 . S
C89 C92 1.511 . S
C90 C86 1.376 1_656 S
C90 C89 1.392 . S
C90 H102 0.929 . S
C91 C87 1.531 . S
C91 H103 0.960 . S
C91 H104 0.962 . S
C91 H105 0.960 . S
C92 C89 1.511 . S
C92 H106 0.961 . S
C92 H107 0.961 . S
C92 H108 0.961 1_556 S
C93 C94 1.375 . S
C93 C95 1.363 . S
C93 H109 0.931 . S
C94 C93 1.375 . S
C94 C98 1.402 1_456 S
C95 C93 1.363 . S
C95 C96 1.370 1_556 S
C95 C99 1.524 . S
C96 C88 1.503 . S
C96 C95 1.370 1_554 S
C96 C97 1.403 1_455 S
C97 C96 1.403 1_655 S
C97 C98 1.404 . S
C97 C100 1.539 . S
C98 C94 1.402 1_654 S
C98 C97 1.404 . S
C98 H110 0.930 . S
C99 C95 1.524 . S
C99 H111 0.956 . S
C99 H112 0.961 1_455 S
C99 H113 0.961 . S
C100 C97 1.539 . S
C100 H114 0.958 1_655 S
C100 H115 0.961 . S
C100 H116 0.960 . S
H101 C85 0.931 . S
H102 C90 0.929 . S
H103 C91 0.960 . S
H104 C91 0.962 . S
H105 C91 0.960 . S
H106 C92 0.961 . S
H107 C92 0.961 . S
H108 C92 0.961 1_554 S
H109 C93 0.931 . S
H110 C98 0.930 . S
H111 C99 0.956 . S
H112 C99 0.961 1_655 S
H113 C99 0.961 . S
H114 C100 0.958 1_455 S
H115 C100 0.961 . S
H116 C100 0.960 . S
C22 C18 1.238 1_655 S
C30 C15 1.325 1_565 S
C54 C16 1.461 1_545 S
C62 C14 1.446 1_554 S
C86 C17 1.414 . S
C94 C13 1.459 1_455 S
