# Generated by pormake.
# Topology sxc, (6)-cn, num edge types: 1
# Building blocks:
#     Node 0, Type 0, BuildingBlock: FUNLAD_clean_sbu_0, # of connection points: 6
#     Node 1, Type 0, BuildingBlock: FUNLAD_clean_sbu_0, # of connection points: 6
#     Node 2, Type 0, BuildingBlock: FUNLAD_clean_sbu_0, # of connection points: 6
#     Edge 3, Type (0, 0), None
#     Edge 4, Type (0, 0), None
#     Edge 5, Type (0, 0), None
#     Edge 6, Type (0, 0), None
#     Edge 7, Type (0, 0), None
#     Edge 8, Type (0, 0), None
#     Edge 9, Type (0, 0), None
#     Edge 10, Type (0, 0), None
#     Edge 11, Type (0, 0), None
# Relax obj value: 0.055
# Max RMSD: 0.178
# Mean RMSD: 0.176
data_MOF--net-sxc--node1-FUNLAD_clean_sbu_0--edge1-none
_symmetry_space_group_name_H-M    P1
_symmetry_Int_Tables_number       1
_symmetry_cell_setting            triclinic
loop_
_symmetry_equiv_pos_as_xyz
'x, y, z'
_cell_length_a     6.7592297
_cell_length_b     6.696461
_cell_length_c     39.995955
_cell_angle_alpha  89.597169
_cell_angle_beta   91.331174
_cell_angle_gamma 119.99535
loop_
_atom_site_label
_atom_site_type_symbol
_atom_site_fract_x
_atom_site_fract_y
_atom_site_fract_z
_atom_type_partial_charge
C0 C 0.56241 0.62013 0.03838 0.0
N1 N -0.01197 -0.00116 0.11742 0.0
C2 C 0.80268 -0.02176 0.13324 0.0
C3 C 0.797 -0.02399 0.1681 0.0
C4 C -0.01462 -0.001 0.18684 0.0
C5 C 0.17548 0.0224 0.1699 0.0
C6 C 0.17254 0.02017 0.13496 0.0
Zn7 Zn -0.01507 -0.00262 0.06642 0.0
C8 C 0.01172 0.60736 0.03886 0.0
N9 N -0.0255 -0.00562 0.9599 0.0
C10 C 0.8156 0.02273 0.94232 0.0
C11 C 0.1364 -0.03178 0.94413 0.0
C12 C 0.14194 -0.03154 0.90928 0.0
C13 C -0.01872 -0.00085 0.89049 0.0
C14 C 0.81679 0.0271 0.9074 0.0
Zn15 Zn -0.02302 -0.00489 1.01089 0.0
O16 O 0.64635 0.72539 0.06587 0.0
C17 C -0.04987 0.38502 0.03874 0.0
O18 O 0.63709 0.72316 1.01078 0.0
H19 H 0.26231 0.94818 0.95864 0.0
H20 H 0.65887 0.96364 0.11877 0.0
H21 H 0.68826 0.0426 0.95543 0.0
O22 O 0.92766 0.27985 0.06619 0.0
O23 O 0.92134 0.27957 1.01115 0.0
H24 H 0.31746 0.03539 0.12183 0.0
O25 O 0.31608 0.26584 1.01116 0.0
O26 O 0.32423 0.27033 0.06625 0.0
O27 O 0.03279 0.71156 1.01137 0.0
O28 O 0.04187 0.71377 0.06641 0.0
C29 C 0.39945 0.37223 0.03861 0.0
H30 H 0.64832 0.95986 0.18027 0.0
H31 H 0.32328 0.03901 0.18353 0.0
H32 H 0.27279 0.94864 0.89718 0.0
H33 H 0.68893 0.04935 0.89376 0.0
C34 C 0.40783 0.04216 0.37233 0.0
N35 N -0.01879 -0.00021 0.29329 0.0
C36 C 0.16795 0.16331 0.27721 0.0
C37 C 0.17354 0.16503 0.24235 0.0
C38 C -0.01636 -0.00068 0.22387 0.0
C39 C 0.79195 0.83441 0.24107 0.0
C40 C 0.79506 0.83664 0.276 0.0
Zn41 Zn -0.01494 -0.00073 0.3443 0.0
C42 C -0.04252 0.57937 0.37188 0.0
N43 N -0.00365 -0.00018 0.45076 0.0
C44 C 0.15595 0.18806 0.46808 0.0
C45 C 0.83319 0.81119 0.46678 0.0
C46 C 0.82647 0.80678 0.50163 0.0
C47 C -0.01262 -0.00047 0.52016 0.0
C48 C 0.15377 0.19208 0.50298 0.0
Zn49 Zn -0.00675 0.00035 0.39979 0.0
O50 O 0.3241 0.06594 0.34485 0.0
C51 C 0.02083 0.42021 0.37191 0.0
O52 O 0.33346 0.06847 0.3999 0.0
H53 H 0.70683 0.66448 0.45245 0.0
H54 H 0.31321 0.29233 0.29148 0.0
H55 H 0.2842 0.33576 0.45478 0.0
O56 O 0.0439 0.34056 0.34442 0.0
O57 O 0.05053 0.34172 0.39945 0.0
H58 H 0.6492 0.70767 0.28934 0.0
O59 O 0.65366 0.93184 0.39952 0.0
O60 O 0.64545 0.93278 0.34447 0.0
O61 O 0.93581 0.65946 0.3994 0.0
O62 O 0.92643 0.65746 0.34437 0.0
C63 C 0.57052 0.95735 0.3721 0.0
H64 H 0.32351 0.29621 0.22995 0.0
H65 H 0.64288 0.7031 0.22766 0.0
H66 H 0.69428 0.65585 0.51392 0.0
H67 H 0.28206 0.34316 0.51639 0.0
C68 C 0.60616 0.04784 0.70504 0.0
N69 N -0.00759 0.00747 0.78403 0.0
C70 C -0.03168 0.17084 0.80051 0.0
C71 C -0.03719 0.17044 0.83538 0.0
C72 C -0.01409 0.00252 0.85345 0.0
C73 C 0.01379 0.83799 0.83581 0.0
C74 C 0.01478 0.84254 0.80091 0.0
Zn75 Zn -0.01297 0.00576 0.73303 0.0
C76 C 0.59342 0.58372 0.70544 0.0
N77 N -0.02728 0.00036 0.62661 0.0
C78 C 0.00318 0.18985 0.60956 0.0
C79 C 0.94507 0.81011 0.61032 0.0
C80 C 0.94719 0.80544 0.57545 0.0
C81 C -0.01878 -0.00039 0.55721 0.0
C82 C 0.00943 0.19369 0.57468 0.0
Zn83 Zn -0.02216 0.00296 0.67758 0.0
O84 O 0.71468 0.07418 0.73253 0.0
C85 C 0.37144 0.42499 0.70549 0.0
O86 O 0.70607 0.0729 0.67749 0.0
H87 H 0.92323 0.66238 0.62443 0.0
H88 H -0.04799 0.30091 0.78655 0.0
H89 H 0.02421 0.33879 0.62307 0.0
O90 O 0.2701 0.3476 0.73299 0.0
O91 O 0.26214 0.34457 0.67798 0.0
H92 H 0.03198 0.7135 0.78725 0.0
O93 O 0.24897 0.93276 0.67779 0.0
O94 O 0.25987 0.9375 0.73283 0.0
O95 O 0.69378 0.66155 0.6779 0.0
O96 O 0.7037 0.66372 0.7329 0.0
C97 C 0.35863 0.96083 0.70522 0.0
H98 H 0.94315 0.30137 0.8481 0.0
H99 H 0.03066 0.70496 0.84886 0.0
H100 H 0.92661 0.65319 0.56293 0.0
H101 H 0.03393 0.34588 0.56149 0.0
loop_
_geom_bond_atom_site_label_1
_geom_bond_atom_site_label_2
_geom_bond_distance
_geom_bond_site_symmetry_2
_ccdc_geom_bond_type
C0 O16 1.251 . S
C0 O18 1.254 1_554 S
N1 C2 1.333 1_445 S
N1 C6 1.307 . S
N1 Zn7 2.020 . S
C2 N1 1.333 1_665 S
C2 C3 1.379 . S
C2 H20 0.951 . S
C3 C2 1.379 . S
C3 C4 1.390 1_665 S
C3 H30 0.949 . S
C4 C3 1.390 1_445 S
C4 C5 1.357 . S
C5 C4 1.357 . S
C5 C6 1.370 . S
C5 H31 0.950 . S
C6 N1 1.307 . S
C6 C5 1.370 . S
C6 H24 0.948 . S
Zn7 N1 2.020 . S
Zn7 O16 2.039 1_445 S
Zn7 O22 2.034 1_455 S
Zn7 O26 2.025 . S
Zn7 O28 2.024 1_545 S
C8 O27 1.246 1_554 S
C8 O28 1.249 . S
N9 C10 1.307 1_455 S
N9 C11 1.333 . S
N9 Zn15 2.020 . S
C10 N9 1.307 1_655 S
C10 C14 1.370 . S
C10 H21 0.948 1_545 S
C11 N9 1.333 . S
C11 C12 1.379 . S
C11 H19 0.952 . S
C12 C11 1.379 . S
C12 C13 1.390 . S
C12 H32 0.949 . S
C13 C12 1.390 . S
C13 C14 1.357 1_455 S
C14 C10 1.370 . S
C14 C13 1.357 1_655 S
C14 H33 0.950 1_545 S
Zn15 N9 2.020 . S
Zn15 O18 2.025 1_445 S
Zn15 O23 2.024 1_455 S
Zn15 O25 2.039 . S
Zn15 O27 2.034 1_545 S
O16 C0 1.251 . S
O16 Zn7 2.039 1_665 S
C17 O22 1.246 . S
C17 O23 1.249 1_554 S
O18 C0 1.254 1_556 S
O18 Zn15 2.025 1_665 S
H19 C11 0.952 . S
H20 C2 0.951 . S
H21 C10 0.948 1_565 S
O22 Zn7 2.034 1_655 S
O22 C17 1.246 . S
O23 Zn15 2.024 1_655 S
O23 C17 1.249 1_556 S
H24 C6 0.948 . S
O25 Zn15 2.039 . S
O25 C29 1.251 1_556 S
O26 Zn7 2.025 . S
O26 C29 1.254 . S
O27 C8 1.246 1_556 S
O27 Zn15 2.034 1_565 S
O28 Zn7 2.024 1_565 S
O28 C8 1.249 . S
C29 O25 1.251 1_554 S
C29 O26 1.254 . S
H30 C3 0.949 . S
H31 C5 0.950 . S
H32 C12 0.949 . S
H33 C14 0.950 1_565 S
C34 O50 1.251 . S
C34 O52 1.254 . S
N35 C36 1.333 1_665 S
N35 C40 1.307 . S
N35 Zn41 2.020 . S
C36 N35 1.333 1_445 S
C36 C37 1.379 . S
C36 H54 0.952 . S
C37 C36 1.379 . S
C37 C38 1.390 1_455 S
C37 H64 0.949 . S
C38 C37 1.390 1_655 S
C38 C39 1.357 1_545 S
C39 C38 1.357 1_565 S
C39 C40 1.370 . S
C39 H65 0.950 . S
C40 N35 1.307 . S
C40 C39 1.370 . S
C40 H58 0.948 . S
Zn41 N35 2.020 . S
Zn41 O50 2.039 1_665 S
Zn41 O56 2.034 1_665 S
Zn41 O60 2.025 . S
Zn41 O62 2.024 . S
C42 O61 1.246 . S
C42 O62 1.249 . S
N43 C44 1.307 . S
N43 C45 1.333 1_445 S
N43 Zn49 2.020 . S
C44 N43 1.307 . S
C44 C48 1.370 . S
C44 H55 0.948 . S
C45 N43 1.333 1_665 S
C45 C46 1.379 . S
C45 H53 0.952 . S
C46 C45 1.379 . S
C46 C47 1.390 1_655 S
C46 H66 0.949 . S
C47 C46 1.390 1_455 S
C47 C48 1.357 1_565 S
C48 C44 1.370 . S
C48 C47 1.357 1_545 S
C48 H67 0.950 . S
Zn49 N43 2.020 . S
Zn49 O52 2.025 . S
Zn49 O57 2.024 . S
Zn49 O59 2.039 1_445 S
Zn49 O61 2.034 1_445 S
O50 C34 1.251 . S
O50 Zn41 2.039 1_445 S
C51 O56 1.246 . S
C51 O57 1.249 . S
O52 C34 1.254 . S
O52 Zn49 2.025 . S
H53 C45 0.952 . S
H54 C36 0.952 . S
H55 C44 0.948 . S
O56 Zn41 2.034 1_445 S
O56 C51 1.246 . S
O57 Zn49 2.024 . S
O57 C51 1.249 . S
H58 C40 0.948 . S
O59 Zn49 2.039 1_665 S
O59 C63 1.251 . S
O60 Zn41 2.025 . S
O60 C63 1.254 . S
O61 C42 1.246 . S
O61 Zn49 2.034 1_665 S
O62 Zn41 2.024 . S
O62 C42 1.249 . S
C63 O59 1.251 . S
C63 O60 1.254 . S
H64 C37 0.949 . S
H65 C39 0.950 . S
H66 C46 0.949 . S
H67 C48 0.950 . S
C68 O84 1.251 . S
C68 O86 1.254 . S
N69 C70 1.333 1_455 S
N69 C74 1.307 1_545 S
N69 Zn75 2.020 . S
C70 N69 1.333 1_655 S
C70 C71 1.379 . S
C70 H88 0.952 . S
C71 C70 1.379 . S
C71 C72 1.389 1_655 S
C71 H98 0.949 . S
C72 C71 1.389 1_455 S
C72 C73 1.357 1_545 S
C73 C72 1.357 1_565 S
C73 C74 1.370 . S
C73 H99 0.950 . S
C74 N69 1.307 1_565 S
C74 C73 1.370 . S
C74 H92 0.948 . S
Zn75 N69 2.020 . S
Zn75 O84 2.039 1_455 S
Zn75 O90 2.034 . S
Zn75 O94 2.025 1_545 S
Zn75 O96 2.024 1_445 S
C76 O95 1.246 . S
C76 O96 1.249 . S
N77 C78 1.307 1_455 S
N77 C79 1.333 1_545 S
N77 Zn83 2.020 . S
C78 N77 1.307 1_655 S
C78 C82 1.370 . S
C78 H89 0.948 . S
C79 N77 1.333 1_565 S
C79 C80 1.379 . S
C79 H87 0.952 . S
C80 C79 1.379 . S
C80 C81 1.393 . S
C80 H100 0.949 . S
C81 C80 1.393 . S
C81 C82 1.353 1_465 S
C82 C78 1.370 . S
C82 C81 1.353 1_645 S
C82 H101 0.950 . S
Zn83 N77 2.020 . S
Zn83 O86 2.025 1_455 S
Zn83 O91 2.024 . S
Zn83 O93 2.039 1_545 S
Zn83 O95 2.034 1_445 S
O84 C68 1.251 . S
O84 Zn75 2.039 1_655 S
C85 O90 1.246 . S
C85 O91 1.249 . S
O86 C68 1.254 . S
O86 Zn83 2.025 1_655 S
H87 C79 0.952 . S
H88 C70 0.952 . S
H89 C78 0.948 . S
O90 Zn75 2.034 . S
O90 C85 1.246 . S
O91 Zn83 2.024 . S
O91 C85 1.249 . S
H92 C74 0.948 . S
O93 Zn83 2.039 1_565 S
O93 C97 1.251 . S
O94 Zn75 2.025 1_565 S
O94 C97 1.254 . S
O95 C76 1.246 . S
O95 Zn83 2.034 1_665 S
O96 Zn75 2.024 1_665 S
O96 C76 1.249 . S
C97 O93 1.251 . S
C97 O94 1.254 . S
H98 C71 0.949 . S
H99 C73 0.950 . S
H100 C80 0.949 . S
H101 C82 0.950 . S
C17 C8 1.769 1_655 S
C34 C63 1.668 1_545 S
C76 C85 1.794 . S
C68 C97 1.675 1_545 S
C0 C29 1.654 . S
C51 C42 1.776 1_455 S
C38 C4 1.535 1_655 S
C47 C81 1.499 . S
C72 C13 1.502 . S
