# Generated by pormake.
# Topology hex, (8)-cn, num edge types: 1
# Building blocks:
#     Node 0, Type 0, BuildingBlock: NUHRAL_clean_sbu_3, # of connection points: 8
#     Edge 1, Type (0, 0), BuildingBlock: XIVTED_clean_linker_0, # of connection points: 2
#     Edge 2, Type (0, 0), BuildingBlock: XIVTED_clean_linker_0, # of connection points: 2
#     Edge 3, Type (0, 0), BuildingBlock: XIVTED_clean_linker_0, # of connection points: 2
#     Edge 4, Type (0, 0), BuildingBlock: XIVTED_clean_linker_0, # of connection points: 2
# Relax obj value: 0.035
# Max RMSD: 0.097
# Mean RMSD: 0.097
data_MOF--net-hex--node1-NUHRAL_clean_sbu_3--edge1-XIVTED_clean_linker_0
_symmetry_space_group_name_H-M    P1
_symmetry_Int_Tables_number       1
_symmetry_cell_setting            triclinic
loop_
_symmetry_equiv_pos_as_xyz
'x, y, z'
_cell_length_a     21.307664
_cell_length_b     18.706176
_cell_length_c     15.205017
_cell_angle_alpha  107.95622
_cell_angle_beta   105.04931
_cell_angle_gamma 113.3191
loop_
_atom_site_label
_atom_site_type_symbol
_atom_site_fract_x
_atom_site_fract_y
_atom_site_fract_z
_atom_type_partial_charge
C0 C 0.80129 0.83012 0.92763 0.0
C1 C 0.77521 0.75882 0.94981 0.0
C2 C 0.72225 0.7454 -0.00899 0.0
C3 C 0.69666 0.80405 0.0116 0.0
C4 C 0.7197 0.87317 -0.01319 0.0
C5 C 0.77215 0.88622 0.94465 0.0
O6 O 0.04743 0.92436 0.09068 0.0
Tb7 Tb 0.98476 0.86356 0.9248 0.0
O8 O 0.98139 0.74234 0.91065 0.0
O9 O 1.03254 0.04291 0.13136 0.0
Eu10 Eu 0.08108 0.08361 0.02848 0.0
O11 O 0.86692 0.77973 0.8439 0.0
C12 C 0.21484 0.10335 0.07278 0.0
O13 O 0.91895 0.922 0.93395 0.0
O14 O 1.01513 0.01704 0.85709 0.0
O15 O 1.03133 0.89961 0.82324 0.0
C16 C 0.85581 0.84468 0.8822 0.0
C17 C 1.02158 0.20656 -0.00554 0.0
O18 O 0.95685 0.13105 0.94483 0.0
C19 C 0.03918 -0.01724 0.15332 0.0
C20 C 1.02302 0.95711 0.79664 0.0
O21 O 0.08422 0.20897 0.04179 0.0
C22 C 0.2711 0.11884 0.03023 0.0
C23 C 0.35321 0.07558 0.97288 0.0
C24 C 0.29956 0.06203 0.01301 0.0
C25 C 0.29917 0.19138 0.01053 0.0
C26 C 0.35324 0.20516 0.97122 0.0
C27 C 0.3782 0.14592 0.95042 0.0
C28 C 0.04428 0.74382 0.95448 0.0
O29 O 0.10944 0.8186 0.00118 0.0
O30 O 0.20385 0.16823 0.11171 0.0
O31 O 0.15181 0.02603 0.01964 0.0
H32 H 0.79444 0.71273 0.93314 0.0
H33 H 0.65292 0.79104 0.03867 0.0
H34 H 0.78923 0.93889 0.92363 0.0
H35 H 0.28089 0.0083 0.0321 0.0
H36 H 0.28035 0.23787 0.02727 0.0
H37 H 0.42265 0.15906 0.92466 0.0
H38 H 0.90211 0.2237 0.90649 0.0
H39 H 0.1638 0.72574 0.03954 0.0
H40 H 0.14654 0.37101 0.07374 0.0
H41 H 0.91907 0.58011 0.87771 0.0
H42 H 0.15864 0.59622 0.05089 0.0
H43 H 0.90723 0.35319 0.89507 0.0
C44 C 0.95694 0.28335 0.9412 0.0
C45 C 1.02404 0.28624 -0.00875 0.0
C46 C 0.10602 0.59243 0.01273 0.0
C47 C 1.03028 0.43522 0.97782 0.0
C48 C 0.10889 0.66645 0.00597 0.0
C49 C 0.04173 0.66405 0.9575 0.0
C50 C 0.03544 0.51502 0.97082 0.0
C51 C 0.97234 0.58514 0.91562 0.0
C52 C 0.95978 0.35736 0.93446 0.0
C53 C 0.09333 0.3656 0.03462 0.0
N54 N 0.97101 0.51398 0.92338 0.0
N55 N 0.09464 0.43672 0.02671 0.0
H56 H 0.7008 0.95564 0.15107 0.0
H57 H 0.37146 -0.00727 0.80824 0.0
H58 H 0.6412 0.89295 0.83248 0.0
H59 H 0.43002 0.05366 0.12621 0.0
H60 H 0.46684 0.95062 0.81364 0.0
H61 H 0.60471 -0.00338 0.14521 0.0
C62 C 0.66869 0.95283 0.08064 0.0
C63 C 0.67888 0.92123 -0.00781 0.0
C64 C 0.45821 0.97197 0.88191 0.0
C65 C 0.56731 0.96512 -0.01625 0.0
C66 C 0.40312 -0.00521 0.87838 0.0
C67 C 0.39292 0.0263 0.96684 0.0
C68 C 0.50376 -0.01871 0.97483 0.0
C69 C 0.43567 0.0287 0.05611 0.0
C70 C 0.61321 -0.02496 0.07687 0.0
C71 C 0.6356 0.918 0.90259 0.0
N72 N 0.48995 0.0075 0.05822 0.0
N73 N 0.58102 0.93872 0.9003 0.0
H74 H 0.37556 0.22202 0.80856 0.0
H75 H 0.70081 0.72915 0.15456 0.0
H76 H 0.42792 0.37288 0.12386 0.0
H77 H 0.64894 0.57743 0.83974 0.0
H78 H 0.6044 0.59792 0.14725 0.0
H79 H 0.47267 0.3531 0.81661 0.0
C80 C 0.40626 0.28361 0.87859 0.0
C81 C 0.39387 0.28711 0.96562 0.0
C82 C 0.61476 0.59289 0.08016 0.0
C83 C 0.50655 0.43627 0.97674 0.0
C84 C 0.67042 0.66738 0.08483 0.0
C85 C 0.68264 0.66371 -0.00236 0.0
C86 C 0.5708 0.51439 -0.0126 0.0
C87 C 0.64166 0.58261 0.90888 0.0
C88 C 0.46233 0.35801 0.8837 0.0
C89 C 0.43532 0.36793 0.05483 0.0
N90 N 0.58679 0.51123 0.90559 0.0
N91 N 0.49055 0.43928 0.05853 0.0
H92 H 0.04249 0.84831 0.65118 0.0
H93 H 1.02065 0.08989 0.3006 0.0
H94 H 1.00573 0.06628 0.72151 0.0
H95 H 0.05326 0.8689 0.22316 0.0
H96 H 1.01567 0.08196 0.45607 0.0
H97 H 0.04662 0.85386 0.49371 0.0
C98 C 0.03504 0.89704 0.63343 0.0
C99 C 1.02369 0.95681 0.6996 0.0
C100 C 1.02401 0.03523 0.40514 0.0
C101 C 1.02864 0.96381 0.52026 0.0
C102 C 1.027 0.03987 0.31639 0.0
C103 C 0.0376 -0.01982 0.24888 0.0
C104 C 1.03168 0.97043 0.42664 0.0
C105 C 0.04516 0.91647 0.27315 0.0
C106 C 0.03751 0.90029 0.54368 0.0
C107 C 1.01459 0.01878 0.67292 0.0
N108 N 0.04206 0.91328 0.36006 0.0
N109 N 1.01735 0.02067 0.58553 0.0
loop_
_geom_bond_atom_site_label_1
_geom_bond_atom_site_label_2
_geom_bond_distance
_geom_bond_site_symmetry_2
_ccdc_geom_bond_type
C0 C1 1.387 . S
C0 C5 1.380 . S
C0 C16 1.494 . S
C1 C0 1.387 . S
C1 C2 1.386 1_556 S
C1 H32 0.930 . S
C2 C1 1.386 1_554 S
C2 C3 1.397 . S
C3 C2 1.397 . S
C3 C4 1.393 1_554 S
C3 H33 0.930 . S
C4 C3 1.393 1_556 S
C4 C5 1.395 . S
C5 C0 1.380 . S
C5 C4 1.395 . S
C5 H34 0.930 . S
O6 Tb7 2.295 1_554 S
O6 C19 1.242 1_665 S
Tb7 O6 2.295 1_556 S
Tb7 O8 2.312 . S
Tb7 O11 2.438 . S
Tb7 O13 2.472 . S
Tb7 O15 2.308 . S
Tb7 C16 2.821 . S
O8 Tb7 2.312 . S
O8 C28 1.264 1_655 S
O9 Eu10 2.308 . S
O9 C19 1.243 . S
Eu10 O9 2.308 . S
Eu10 C12 2.821 . S
Eu10 O14 2.295 1_554 S
Eu10 O21 2.312 . S
Eu10 O30 2.438 . S
Eu10 O31 2.472 . S
O11 Tb7 2.438 . S
O11 C16 1.263 . S
C12 Eu10 2.821 . S
C12 C22 1.494 . S
C12 O30 1.263 . S
C12 O31 1.264 . S
O13 Tb7 2.472 . S
O13 C16 1.264 . S
O14 Eu10 2.295 1_556 S
O14 C20 1.242 1_445 S
O15 Tb7 2.308 . S
O15 C20 1.243 . S
C16 C0 1.494 . S
C16 Tb7 2.821 . S
C16 O11 1.263 . S
C16 O13 1.264 . S
C17 O18 1.260 . S
C17 O21 1.264 1_655 S
O18 C17 1.260 . S
C19 O6 1.242 1_445 S
C19 O9 1.243 . S
C20 O14 1.242 1_665 S
C20 O15 1.243 . S
O21 Eu10 2.312 . S
O21 C17 1.264 1_455 S
C22 C12 1.494 . S
C22 C24 1.380 . S
C22 C25 1.387 . S
C23 C24 1.395 . S
C23 C27 1.393 1_554 S
C24 C22 1.380 . S
C24 C23 1.395 . S
C24 H35 0.930 . S
C25 C22 1.387 . S
C25 C26 1.386 1_554 S
C25 H36 0.930 . S
C26 C25 1.386 1_556 S
C26 C27 1.397 . S
C27 C23 1.393 1_556 S
C27 C26 1.397 . S
C27 H37 0.930 . S
C28 O8 1.264 1_455 S
C28 O29 1.260 . S
O29 C28 1.260 . S
O30 Eu10 2.438 . S
O30 C12 1.263 . S
O31 Eu10 2.472 . S
O31 C12 1.264 . S
H32 C1 0.930 . S
H33 C3 0.930 . S
H34 C5 0.930 . S
H35 C24 0.930 . S
H36 C25 0.930 . S
H37 C27 0.930 . S
H38 C44 0.930 . S
H39 C48 0.930 . S
H40 C53 0.929 . S
H41 C51 0.929 . S
H42 C46 0.929 . S
H43 C52 0.929 . S
C44 H38 0.930 . S
C44 C45 1.367 1_556 S
C44 C52 1.378 . S
C45 C44 1.367 1_554 S
C45 C53 1.433 1_655 S
C46 H42 0.929 . S
C46 C48 1.378 . S
C46 C50 1.350 1_554 S
C47 C50 1.453 1_654 S
C47 C52 1.349 1_554 S
C47 N55 1.433 1_655 S
C48 H39 0.930 . S
C48 C46 1.378 . S
C48 C49 1.367 1_554 S
C49 C48 1.367 1_556 S
C49 C51 1.433 1_455 S
C50 C46 1.350 1_556 S
C50 C47 1.453 1_456 S
C50 N54 1.432 1_455 S
C51 H41 0.929 . S
C51 C49 1.433 1_655 S
C51 N54 1.384 . S
C52 H43 0.929 . S
C52 C44 1.378 . S
C52 C47 1.349 1_556 S
C53 H40 0.929 . S
C53 C45 1.433 1_455 S
C53 N55 1.384 . S
N54 C50 1.432 1_655 S
N54 C51 1.384 . S
N55 C47 1.433 1_455 S
N55 C53 1.384 . S
H56 C62 0.930 . S
H57 C66 0.930 . S
H58 C71 0.929 . S
H59 C69 0.929 . S
H60 C64 0.929 . S
H61 C70 0.929 . S
C62 H56 0.930 . S
C62 C63 1.367 1_544 S
C62 C70 1.378 . S
C63 C62 1.367 1_566 S
C63 C71 1.433 . S
C64 H60 0.929 . S
C64 C66 1.378 . S
C64 C68 1.350 1_566 S
C65 C68 1.463 1_566 S
C65 C70 1.350 1_566 S
C65 N73 1.427 . S
C66 H57 0.930 . S
C66 C64 1.378 . S
C66 C67 1.367 1_566 S
C67 C66 1.367 1_544 S
C67 C69 1.433 . S
C68 C64 1.350 1_544 S
C68 C65 1.463 1_544 S
C68 N72 1.427 . S
C69 H59 0.929 . S
C69 C67 1.433 . S
C69 N72 1.384 . S
C70 H61 0.929 . S
C70 C62 1.378 . S
C70 C65 1.350 1_544 S
C71 H58 0.929 . S
C71 C63 1.433 . S
C71 N73 1.384 . S
N72 C68 1.427 . S
N72 C69 1.384 . S
N73 C65 1.427 . S
N73 C71 1.384 . S
H74 C80 0.930 . S
H75 C84 0.930 . S
H76 C89 0.929 . S
H77 C87 0.929 . S
H78 C82 0.929 . S
H79 C88 0.929 . S
C80 H74 0.930 . S
C80 C81 1.367 . S
C80 C88 1.378 . S
C81 C80 1.367 . S
C81 C89 1.433 1_556 S
C82 H78 0.929 . S
C82 C84 1.378 . S
C82 C86 1.350 . S
C83 C86 1.463 1_556 S
C83 C88 1.350 . S
C83 N91 1.427 1_556 S
C84 H75 0.930 . S
C84 C82 1.378 . S
C84 C85 1.367 . S
C85 C84 1.367 . S
C85 C87 1.433 1_554 S
C86 C82 1.350 . S
C86 C83 1.463 1_554 S
C86 N90 1.427 1_554 S
C87 H77 0.929 . S
C87 C85 1.433 1_556 S
C87 N90 1.384 . S
C88 H79 0.929 . S
C88 C80 1.378 . S
C88 C83 1.350 . S
C89 H76 0.929 . S
C89 C81 1.433 1_554 S
C89 N91 1.384 . S
N90 C86 1.427 1_556 S
N90 C87 1.384 . S
N91 C83 1.427 1_554 S
N91 C89 1.384 . S
H92 C98 0.930 . S
H93 C102 0.930 . S
H94 C107 0.929 . S
H95 C105 0.929 . S
H96 C100 0.929 . S
H97 C106 0.929 . S
C98 H92 0.930 . S
C98 C99 1.368 . S
C98 C106 1.378 . S
C99 C98 1.368 . S
C99 C107 1.430 1_465 S
C100 H96 0.929 . S
C100 C102 1.378 . S
C100 C104 1.358 . S
C101 C104 1.454 1_465 S
C101 C106 1.356 . S
C101 N109 1.425 1_465 S
C102 H93 0.930 . S
C102 C100 1.378 . S
C102 C103 1.388 . S
C103 C102 1.388 . S
C103 C105 1.412 1_645 S
C104 C100 1.358 . S
C104 C101 1.454 1_645 S
C104 N108 1.424 1_645 S
C105 H95 0.929 . S
C105 C103 1.412 1_465 S
C105 N108 1.384 . S
C106 H97 0.929 . S
C106 C98 1.378 . S
C106 C101 1.356 . S
C107 H94 0.929 . S
C107 C99 1.430 1_645 S
C107 N109 1.384 . S
N108 C104 1.424 1_465 S
N108 C105 1.384 . S
N109 C101 1.425 1_645 S
N109 C107 1.384 . S
C45 C17 0.440 . S
C49 C28 0.440 . S
C63 C4 2.085 . S
C67 C23 2.085 . S
C81 C26 1.851 . S
C85 C2 1.851 . S
C99 C20 1.494 1_455 S
C103 C19 1.491 1_655 S
