# Generated by pormake.
# Topology uov, (4)-cn, num edge types: 1
# Building blocks:
#     Node 0, Type 0, BuildingBlock: AZAVOO_clean_sbu_0, # of connection points: 4
#     Node 1, Type 0, BuildingBlock: AZAVOO_clean_sbu_0, # of connection points: 4
#     Node 2, Type 0, BuildingBlock: AZAVOO_clean_sbu_0, # of connection points: 4
#     Node 3, Type 0, BuildingBlock: AZAVOO_clean_sbu_0, # of connection points: 4
#     Node 4, Type 0, BuildingBlock: AZAVOO_clean_sbu_0, # of connection points: 4
#     Node 5, Type 0, BuildingBlock: AZAVOO_clean_sbu_0, # of connection points: 4
#     Node 6, Type 0, BuildingBlock: AZAVOO_clean_sbu_0, # of connection points: 4
#     Node 7, Type 0, BuildingBlock: AZAVOO_clean_sbu_0, # of connection points: 4
#     Edge 8, Type (0, 0), None
#     Edge 9, Type (0, 0), None
#     Edge 10, Type (0, 0), None
#     Edge 11, Type (0, 0), None
#     Edge 12, Type (0, 0), None
#     Edge 13, Type (0, 0), None
#     Edge 14, Type (0, 0), None
#     Edge 15, Type (0, 0), None
#     Edge 16, Type (0, 0), None
#     Edge 17, Type (0, 0), None
#     Edge 18, Type (0, 0), None
#     Edge 19, Type (0, 0), None
#     Edge 20, Type (0, 0), None
#     Edge 21, Type (0, 0), None
#     Edge 22, Type (0, 0), None
#     Edge 23, Type (0, 0), None
# Relax obj value: 0.205
# Max RMSD: 0.255
# Mean RMSD: 0.232
data_MOF--net-uov--node1-AZAVOO_clean_sbu_0--edge1-none
_symmetry_space_group_name_H-M    P1
_symmetry_Int_Tables_number       1
_symmetry_cell_setting            triclinic
loop_
_symmetry_equiv_pos_as_xyz
'x, y, z'
_cell_length_a     14.917652
_cell_length_b     13.978795
_cell_length_c     18.793862
_cell_angle_alpha  90.088587
_cell_angle_beta   89.986941
_cell_angle_gamma 87.934193
loop_
_atom_site_label
_atom_site_type_symbol
_atom_site_fract_x
_atom_site_fract_y
_atom_site_fract_z
_atom_type_partial_charge
Mg0 Mg 0.94234 0.19668 0.63937 0.0
O1 O 0.03789 0.15505 0.54664 0.0
O2 O -0.03399 0.19302 0.44553 0.0
Mg3 Mg 0.82915 0.26275 0.47091 0.0
C4 C 0.03422 0.15866 0.47879 0.0
C5 C 0.03139 0.09571 0.76375 0.0
O6 O 0.94729 0.07135 0.76331 0.0
O7 O -0.02672 0.35577 0.626 0.0
O8 O 0.8992 0.38793 0.52439 0.0
O9 O 0.87768 0.05721 0.63266 0.0
O10 O 0.82944 0.18282 0.57107 0.0
C11 C 0.94611 0.41392 0.57738 0.0
C12 C 0.82326 0.09335 0.58581 0.0
O13 O 0.05618 0.15856 0.71948 0.0
Mg14 Mg 0.21783 -0.01228 0.3898 0.0
O15 O 0.16977 0.88686 0.48053 0.0
O16 O 0.18081 -0.02876 0.58158 0.0
Mg17 Mg 0.25233 0.10861 0.56167 0.0
C18 C 0.1567 0.89759 0.54746 0.0
C19 C 0.15348 0.81766 0.28107 0.0
O20 O 0.16873 0.75874 0.22763 0.0
O21 O 0.36486 0.95552 0.41695 0.0
O22 O 0.38154 0.02721 0.52257 0.0
O23 O 0.08181 0.05654 0.3836 0.0
O24 O 0.18708 0.10425 0.45709 0.0
C25 C 0.41281 -0.022 0.47024 0.0
C26 C 0.10445 0.109 0.4369 0.0
O27 O 0.21707 0.86865 0.30347 0.0
Mg28 Mg -0.02112 0.73018 0.63929 0.0
O29 O 0.8832 0.77164 0.5467 0.0
O30 O 0.955 0.73329 0.44555 0.0
Mg31 Mg 0.09197 0.66376 0.47078 0.0
C32 C 0.88682 0.76781 0.47885 0.0
C33 C 0.88956 0.83132 0.76345 0.0
O34 O -0.02635 0.85572 0.76304 0.0
O35 O 0.94802 0.57108 0.62599 0.0
O36 O 0.02214 0.53866 0.52436 0.0
O37 O 0.04351 0.8697 0.63259 0.0
O38 O 0.09182 0.74391 0.57096 0.0
C39 C -0.02467 0.51276 0.57739 0.0
C40 C 0.09791 0.83346 0.58568 0.0
O41 O 0.86489 0.76817 0.71927 0.0
Mg42 Mg 0.70325 0.93878 0.38994 0.0
O43 O 0.75121 0.03974 0.48079 0.0
O44 O 0.74034 0.95557 0.58176 0.0
Mg45 Mg 0.66864 0.81826 0.56175 0.0
C46 C 0.76437 0.02915 0.54767 0.0
C47 C 0.76822 0.10861 0.28219 0.0
O48 O 0.75384 0.16805 0.22905 0.0
O49 O 0.55631 -0.02884 0.41706 0.0
O50 O 0.53949 0.89965 0.52257 0.0
O51 O 0.83924 0.86953 0.38365 0.0
O52 O 0.73396 0.8223 0.45717 0.0
C53 C 0.50829 0.94874 0.47028 0.0
C54 C 0.81659 0.81737 0.43698 0.0
O55 O 0.70403 0.05821 0.30412 0.0
Mg56 Mg 0.94149 0.20637 0.17909 0.0
O57 O 0.89811 0.07198 0.12372 0.0
O58 O 0.82197 0.15449 0.03995 0.0
Mg59 Mg 0.90913 0.2798 0.998 0.0
C60 C 0.84592 0.07506 0.06951 0.0
C61 C 0.85616 0.10458 0.31723 0.0
O62 O 0.86582 0.0607 0.37825 0.0
O63 O -0.03178 0.35854 0.21647 0.0
O64 O 0.93988 0.36157 0.10195 0.0
O65 O 0.09358 0.16927 0.15941 0.0
O66 O 0.00748 0.2353 0.08024 0.0
C67 C 0.95683 0.40656 0.15933 0.0
C68 C 0.08489 0.20005 0.09574 0.0
O69 O 0.92394 0.14357 0.2901 0.0
Mg70 Mg 0.22532 0.08087 0.93908 0.0
O71 O 0.15532 0.94627 0.98622 0.0
O72 O 0.03328 0.01048 0.03757 0.0
Mg73 Mg -0.01043 0.12237 0.95562 0.0
C74 C 0.09242 0.94322 0.03238 0.0
C75 C 0.42394 0.0011 0.91677 0.0
O76 O 0.44224 0.09215 0.92044 0.0
O77 O 0.17321 0.07296 0.82308 0.0
O78 O 0.05363 0.02237 0.87496 0.0
O79 O 0.22677 0.13287 0.05316 0.0
O80 O 0.12287 0.1781 0.97557 0.0
C81 C 0.09019 0.05607 0.82019 0.0
C82 C 0.15108 0.17755 0.0398 0.0
O83 O 0.34327 -0.02379 0.92067 0.0
Mg84 Mg -0.02049 0.72315 0.1754 0.0
O85 O 0.02176 0.85992 0.12549 0.0
O86 O 0.10301 0.77403 0.04709 0.0
Mg87 Mg 0.01301 0.65226 1.00359 0.0
C88 C 0.07646 0.85509 0.073 0.0
C89 C 0.06563 0.81957 0.31627 0.0
O90 O 0.05553 0.8626 0.37771 0.0
O91 O 0.95592 0.56824 0.20356 0.0
O92 O -0.00332 0.53655 0.09083 0.0
O93 O 0.82571 0.76085 0.1597 0.0
O94 O 0.91176 0.70131 0.07823 0.0
C95 C -0.0248 0.50874 0.15339 0.0
C96 C 0.83403 0.73261 0.09535 0.0
O97 O -0.00163 0.77973 0.2888 0.0
Mg98 Mg 0.69436 0.84768 0.93864 0.0
O99 O 0.76596 -0.01847 0.98518 0.0
O100 O 0.88797 0.91806 0.037 0.0
Mg101 Mg 0.92981 0.80441 0.95563 0.0
C102 C 0.82901 -0.01463 0.03116 0.0
C103 C 0.49652 0.92771 0.91666 0.0
O104 O 0.47832 0.83669 0.92107 0.0
O105 O 0.74768 0.85408 0.82286 0.0
O106 O 0.86743 0.90474 0.87469 0.0
O107 O 0.69136 0.79782 0.05311 0.0
O108 O 0.79531 0.75091 0.97566 0.0
C109 C 0.83074 0.87097 0.81995 0.0
C110 C 0.76705 0.75299 0.03994 0.0
O111 O 0.57721 0.9527 0.91974 0.0
loop_
_geom_bond_atom_site_label_1
_geom_bond_atom_site_label_2
_geom_bond_distance
_geom_bond_site_symmetry_2
_ccdc_geom_bond_type
Mg0 O1 2.028 1_655 S
Mg0 O7 1.986 1_655 S
Mg0 O9 2.114 . S
Mg0 O10 2.251 . S
Mg0 O13 2.010 1_655 S
O1 Mg0 2.028 1_455 S
O1 C4 1.250 . S
O2 Mg3 2.028 1_455 S
O2 C4 1.248 . S
Mg3 O2 2.028 1_655 S
Mg3 O8 2.032 . S
Mg3 O10 2.079 . S
C4 O1 1.250 . S
C4 O2 1.248 . S
C5 O6 1.264 1_455 S
C5 O13 1.249 . S
O6 C5 1.264 1_655 S
O7 Mg0 1.986 1_455 S
O7 C11 1.246 . S
O8 Mg3 2.032 . S
O8 C11 1.259 1_655 S
O9 Mg0 2.114 . S
O9 C12 1.252 . S
O10 Mg0 2.251 . S
O10 Mg3 2.079 . S
O10 C12 1.273 . S
C11 O7 1.246 . S
C11 O8 1.259 1_455 S
C12 O9 1.252 . S
C12 O10 1.273 . S
O13 Mg0 2.010 1_455 S
O13 C5 1.249 . S
Mg14 O15 2.028 1_545 S
Mg14 O21 1.986 1_545 S
Mg14 O23 2.114 . S
Mg14 O24 2.251 . S
Mg14 O27 2.010 1_545 S
O15 Mg14 2.028 1_565 S
O15 C18 1.250 . S
O16 Mg17 2.028 1_565 S
O16 C18 1.248 . S
Mg17 O16 2.028 1_545 S
Mg17 O22 2.032 . S
Mg17 O24 2.079 . S
C18 O15 1.250 . S
C18 O16 1.248 . S
C19 O20 1.264 1_565 S
C19 O27 1.249 . S
O20 C19 1.264 1_545 S
O21 Mg14 1.986 1_565 S
O21 C25 1.246 . S
O22 Mg17 2.032 . S
O22 C25 1.259 1_545 S
O23 Mg14 2.114 . S
O23 C26 1.252 . S
O24 Mg14 2.251 . S
O24 Mg17 2.079 . S
O24 C26 1.273 . S
C25 O21 1.246 . S
C25 O22 1.259 1_565 S
C26 O23 1.252 . S
C26 O24 1.273 . S
O27 Mg14 2.010 1_565 S
O27 C19 1.249 . S
Mg28 O29 2.028 1_455 S
Mg28 O35 1.986 1_455 S
Mg28 O37 2.114 . S
Mg28 O38 2.251 . S
Mg28 O41 2.010 1_455 S
O29 Mg28 2.028 1_655 S
O29 C32 1.250 . S
O30 Mg31 2.028 1_655 S
O30 C32 1.248 . S
Mg31 O30 2.028 1_455 S
Mg31 O36 2.032 . S
Mg31 O38 2.079 . S
C32 O29 1.250 . S
C32 O30 1.248 . S
C33 O34 1.264 1_655 S
C33 O41 1.249 . S
O34 C33 1.264 1_455 S
O35 Mg28 1.986 1_655 S
O35 C39 1.246 . S
O36 Mg31 2.032 . S
O36 C39 1.259 1_455 S
O37 Mg28 2.114 . S
O37 C40 1.252 . S
O38 Mg28 2.251 . S
O38 Mg31 2.079 . S
O38 C40 1.273 . S
C39 O35 1.246 . S
C39 O36 1.259 1_655 S
C40 O37 1.252 . S
C40 O38 1.273 . S
O41 Mg28 2.010 1_655 S
O41 C33 1.249 . S
Mg42 O43 2.028 1_565 S
Mg42 O49 1.986 1_565 S
Mg42 O51 2.114 . S
Mg42 O52 2.251 . S
Mg42 O55 2.010 1_565 S
O43 Mg42 2.028 1_545 S
O43 C46 1.250 . S
O44 Mg45 2.028 1_545 S
O44 C46 1.248 . S
Mg45 O44 2.028 1_565 S
Mg45 O50 2.032 . S
Mg45 O52 2.079 . S
C46 O43 1.250 . S
C46 O44 1.248 . S
C47 O48 1.264 1_545 S
C47 O55 1.249 . S
O48 C47 1.264 1_565 S
O49 Mg42 1.986 1_545 S
O49 C53 1.246 . S
O50 Mg45 2.032 . S
O50 C53 1.259 1_565 S
O51 Mg42 2.114 . S
O51 C54 1.252 . S
O52 Mg42 2.251 . S
O52 Mg45 2.079 . S
O52 C54 1.273 . S
C53 O49 1.246 . S
C53 O50 1.259 1_545 S
C54 O51 1.252 . S
C54 O52 1.273 . S
O55 Mg42 2.010 1_545 S
O55 C47 1.249 . S
Mg56 O57 2.028 . S
Mg56 O63 1.986 . S
Mg56 O65 2.114 1_655 S
Mg56 O66 2.251 1_655 S
Mg56 O69 2.010 . S
O57 Mg56 2.028 . S
O57 C60 1.250 . S
O58 Mg59 2.028 1_655 S
O58 C60 1.248 1_556 S
Mg59 O58 2.028 1_455 S
Mg59 O64 2.032 1_456 S
Mg59 O66 2.079 1_556 S
C60 O57 1.250 . S
C60 O58 1.248 1_554 S
C61 O62 1.264 . S
C61 O69 1.249 . S
O62 C61 1.264 . S
O63 Mg56 1.986 . S
O63 C67 1.246 . S
O64 Mg59 2.032 1_654 S
O64 C67 1.259 . S
O65 Mg56 2.114 1_455 S
O65 C68 1.252 . S
O66 Mg56 2.251 1_455 S
O66 Mg59 2.079 1_554 S
O66 C68 1.273 . S
C67 O63 1.246 . S
C67 O64 1.259 . S
C68 O65 1.252 . S
C68 O66 1.273 . S
O69 Mg56 2.010 . S
O69 C61 1.249 . S
Mg70 O71 2.028 1_545 S
Mg70 O77 1.986 . S
Mg70 O79 2.114 1_556 S
Mg70 O80 2.251 . S
Mg70 O83 2.010 . S
O71 Mg70 2.028 1_565 S
O71 C74 1.250 . S
O72 Mg73 2.028 1_465 S
O72 C74 1.248 . S
Mg73 O72 2.028 1_645 S
Mg73 O78 2.032 1_655 S
Mg73 O80 2.079 1_655 S
C74 O71 1.250 . S
C74 O72 1.248 . S
C75 O76 1.264 . S
C75 O83 1.249 . S
O76 C75 1.264 . S
O77 Mg70 1.986 . S
O77 C81 1.246 . S
O78 Mg73 2.032 1_455 S
O78 C81 1.259 . S
O79 Mg70 2.114 1_554 S
O79 C82 1.252 . S
O80 Mg70 2.251 . S
O80 Mg73 2.079 1_455 S
O80 C82 1.273 1_556 S
C81 O77 1.246 . S
C81 O78 1.259 . S
C82 O79 1.252 . S
C82 O80 1.273 1_554 S
O83 Mg70 2.010 . S
O83 C75 1.249 . S
Mg84 O85 2.028 . S
Mg84 O91 1.986 . S
Mg84 O93 2.114 1_455 S
Mg84 O94 2.251 1_455 S
Mg84 O97 2.010 . S
O85 Mg84 2.028 . S
O85 C88 1.250 . S
O86 Mg87 2.028 1_455 S
O86 C88 1.248 1_556 S
Mg87 O86 2.028 1_655 S
Mg87 O92 2.032 1_656 S
Mg87 O94 2.079 1_556 S
C88 O85 1.250 . S
C88 O86 1.248 1_554 S
C89 O90 1.264 . S
C89 O97 1.249 . S
O90 C89 1.264 . S
O91 Mg84 1.986 . S
O91 C95 1.246 . S
O92 Mg87 2.032 1_454 S
O92 C95 1.259 . S
O93 Mg84 2.114 1_655 S
O93 C96 1.252 . S
O94 Mg84 2.251 1_655 S
O94 Mg87 2.079 1_554 S
O94 C96 1.273 . S
C95 O91 1.246 . S
C95 O92 1.259 . S
C96 O93 1.252 . S
C96 O94 1.273 . S
O97 Mg84 2.010 . S
O97 C89 1.249 . S
Mg98 O99 2.028 1_565 S
Mg98 O105 1.986 . S
Mg98 O107 2.114 1_556 S
Mg98 O108 2.251 . S
Mg98 O111 2.010 . S
O99 Mg98 2.028 1_545 S
O99 C102 1.250 . S
O100 Mg101 2.028 1_645 S
O100 C102 1.248 . S
Mg101 O100 2.028 1_465 S
Mg101 O106 2.032 1_455 S
Mg101 O108 2.079 1_455 S
C102 O99 1.250 . S
C102 O100 1.248 . S
C103 O104 1.264 . S
C103 O111 1.249 . S
O104 C103 1.264 . S
O105 Mg98 1.986 . S
O105 C109 1.246 . S
O106 Mg101 2.032 1_655 S
O106 C109 1.259 . S
O107 Mg98 2.114 1_554 S
O107 C110 1.252 . S
O108 Mg98 2.251 . S
O108 Mg101 2.079 1_655 S
O108 C110 1.273 1_556 S
C109 O105 1.246 . S
C109 O106 1.259 . S
C110 O107 1.252 . S
C110 O108 1.273 1_554 S
O111 Mg98 2.010 . S
O111 C103 1.249 . S
C39 C11 1.310 1_655 S
C53 C25 1.232 1_545 S
C67 C95 1.385 1_655 S
C75 C103 1.240 1_545 S
C26 C4 1.069 . S
C18 C40 1.092 . S
C54 C32 1.069 . S
C46 C12 1.092 . S
C102 C60 1.190 1_556 S
C82 C68 1.003 . S
C88 C74 1.190 1_554 S
C110 C96 1.003 . S
C5 C81 2.080 . S
C89 C19 2.128 . S
C33 C109 2.080 . S
C47 C61 2.128 . S
