# Generated by pormake.
# Topology uku, (4)-cn, num edge types: 1
# Building blocks:
#     Node 0, Type 0, BuildingBlock: CEKHIL_clean_sbu_0, # of connection points: 4
#     Node 1, Type 0, BuildingBlock: CEKHIL_clean_sbu_0, # of connection points: 4
#     Node 2, Type 0, BuildingBlock: CEKHIL_clean_sbu_0, # of connection points: 4
#     Node 3, Type 0, BuildingBlock: CEKHIL_clean_sbu_0, # of connection points: 4
#     Node 4, Type 0, BuildingBlock: CEKHIL_clean_sbu_0, # of connection points: 4
#     Node 5, Type 0, BuildingBlock: CEKHIL_clean_sbu_0, # of connection points: 4
#     Node 6, Type 0, BuildingBlock: CEKHIL_clean_sbu_0, # of connection points: 4
#     Node 7, Type 0, BuildingBlock: CEKHIL_clean_sbu_0, # of connection points: 4
#     Node 8, Type 0, BuildingBlock: CEKHIL_clean_sbu_0, # of connection points: 4
#     Node 9, Type 0, BuildingBlock: CEKHIL_clean_sbu_0, # of connection points: 4
#     Node 10, Type 0, BuildingBlock: CEKHIL_clean_sbu_0, # of connection points: 4
#     Node 11, Type 0, BuildingBlock: CEKHIL_clean_sbu_0, # of connection points: 4
#     Edge 12, Type (0, 0), None
#     Edge 13, Type (0, 0), None
#     Edge 14, Type (0, 0), None
#     Edge 15, Type (0, 0), None
#     Edge 16, Type (0, 0), None
#     Edge 17, Type (0, 0), None
#     Edge 18, Type (0, 0), None
#     Edge 19, Type (0, 0), None
#     Edge 20, Type (0, 0), None
#     Edge 21, Type (0, 0), None
#     Edge 22, Type (0, 0), None
#     Edge 23, Type (0, 0), None
#     Edge 24, Type (0, 0), None
#     Edge 25, Type (0, 0), None
#     Edge 26, Type (0, 0), None
#     Edge 27, Type (0, 0), None
#     Edge 28, Type (0, 0), None
#     Edge 29, Type (0, 0), None
#     Edge 30, Type (0, 0), None
#     Edge 31, Type (0, 0), None
#     Edge 32, Type (0, 0), None
#     Edge 33, Type (0, 0), None
#     Edge 34, Type (0, 0), None
#     Edge 35, Type (0, 0), None
# Relax obj value: 0.372
# Max RMSD: 0.263
# Mean RMSD: 0.263
data_MOF--net-uku--node1-CEKHIL_clean_sbu_0--edge1-none
_symmetry_space_group_name_H-M    P1
_symmetry_Int_Tables_number       1
_symmetry_cell_setting            triclinic
loop_
_symmetry_equiv_pos_as_xyz
'x, y, z'
_cell_length_a     18.338318
_cell_length_b     18.338592
_cell_length_c     18.338756
_cell_angle_alpha  90.001384
_cell_angle_beta   90.000122
_cell_angle_gamma 90.000701
loop_
_atom_site_label
_atom_site_type_symbol
_atom_site_fract_x
_atom_site_fract_y
_atom_site_fract_z
_atom_type_partial_charge
Co0 Co 0.0658 0.17696 0.63789 0.0
O1 O 0.97968 0.2154 0.59124 0.0
O2 O 0.08416 0.19339 0.53498 0.0
C3 C 0.06682 0.24448 0.74075 0.0
O4 O 0.16239 0.13377 0.67483 0.0
Co5 Co 0.02332 0.09578 0.78407 0.0
O6 O 0.12886 0.07219 0.7771 0.0
C7 C 0.98931 0.03493 0.64798 0.0
C8 C 0.01549 0.21212 0.53072 0.0
C9 C 0.1764 0.09168 0.72988 0.0
O10 O 0.03555 0.07435 0.61417 0.0
O11 O 0.95786 0.0589 0.705 0.0
O12 O 0.09387 0.27256 0.68139 0.0
O13 O 0.0297 0.18603 0.73087 0.0
Co14 Co 0.92576 0.81457 0.63794 0.0
O15 O 0.01188 0.7761 0.59129 0.0
O16 O 0.9074 0.79815 0.53502 0.0
C17 C 0.92471 0.74704 0.74078 0.0
O18 O 0.82917 0.85777 0.67486 0.0
Co19 Co 0.96823 0.89573 0.7841 0.0
O20 O 0.86269 0.91934 0.77714 0.0
C21 C 0.00236 0.95655 0.64801 0.0
C22 C 0.97607 0.77941 0.53077 0.0
C23 C 0.81515 0.89986 0.72991 0.0
O24 O 0.95604 0.91717 0.61424 0.0
O25 O 0.03374 0.9327 0.70512 0.0
O26 O 0.89767 0.71897 0.68142 0.0
O27 O 0.96185 0.80548 0.73091 0.0
Co28 Co 0.06579 0.81456 0.3536 0.0
O29 O 0.97967 0.77611 0.40025 0.0
O30 O 0.08415 0.79814 0.45652 0.0
C31 C 0.06682 0.74703 0.25076 0.0
O32 O 0.16238 0.85776 0.31667 0.0
Co33 Co 0.02332 0.89572 0.20742 0.0
O34 O 0.12886 0.91932 0.21439 0.0
C35 C 0.98931 0.95659 0.3435 0.0
C36 C 0.01548 0.77943 0.46076 0.0
C37 C 0.1764 0.89985 0.26162 0.0
O38 O 0.03555 0.91717 0.37731 0.0
O39 O 0.95786 0.93262 0.28648 0.0
O40 O 0.09386 0.71896 0.31012 0.0
O41 O 0.0297 0.80548 0.26063 0.0
Co42 Co 0.92576 0.17695 0.35356 0.0
O43 O 0.01188 0.21542 0.4002 0.0
O44 O 0.90741 0.19336 0.45648 0.0
C45 C 0.92471 0.24449 0.25072 0.0
O46 O 0.82917 0.13374 0.31664 0.0
Co47 Co 0.96822 0.0958 0.20738 0.0
O48 O 0.86269 0.07218 0.21436 0.0
C49 C 0.00236 0.03497 0.34347 0.0
C50 C 0.97608 0.21209 0.46072 0.0
C51 C 0.81515 0.09165 0.26159 0.0
O52 O 0.95605 0.07434 0.37724 0.0
O53 O 0.03373 0.05882 0.28636 0.0
O54 O 0.89766 0.27255 0.31009 0.0
O55 O 0.96184 0.18605 0.26058 0.0
Co56 Co 0.63793 0.06578 0.17695 0.0
O57 O 0.59129 0.97965 0.21541 0.0
O58 O 0.53501 0.08413 0.19341 0.0
C59 C 0.74079 0.06686 0.24441 0.0
O60 O 0.67483 0.16239 0.13376 0.0
Co61 Co 0.78408 0.02333 0.09571 0.0
O62 O 0.77709 0.12887 0.07215 0.0
C63 C 0.64797 0.98931 0.03491 0.0
C64 C 0.53077 0.01545 0.21213 0.0
C65 C 0.72987 0.17641 0.09166 0.0
O66 O 0.61417 0.03554 0.07434 0.0
O67 O 0.705 0.95786 0.05886 0.0
O68 O 0.68143 0.09386 0.27255 0.0
O69 O 0.73091 0.0297 0.18598 0.0
Co70 Co 0.35361 0.92572 0.17694 0.0
O71 O 0.40024 0.01184 0.21541 0.0
O72 O 0.45653 0.90736 0.19339 0.0
C73 C 0.25076 0.92463 0.24442 0.0
O74 O 0.31669 0.82912 0.13374 0.0
Co75 Co 0.20744 0.96818 0.09574 0.0
O76 O 0.21442 0.86264 0.07216 0.0
C77 C 0.34354 0.0022 0.03491 0.0
C78 C 0.46076 0.97604 0.2121 0.0
C79 C 0.26164 0.81511 0.09165 0.0
O80 O 0.37734 0.95597 0.07434 0.0
O81 O 0.2865 0.03365 0.05886 0.0
O82 O 0.31012 0.89763 0.27254 0.0
O83 O 0.26063 0.96179 0.186 0.0
Co84 Co 0.63794 0.92575 0.81457 0.0
O85 O 0.5913 0.01186 0.77609 0.0
O86 O 0.53501 0.90739 0.79813 0.0
C87 C 0.74078 0.92465 0.7471 0.0
O88 O 0.67484 0.82916 0.85778 0.0
Co89 Co 0.78409 0.96822 0.89578 0.0
O90 O 0.77711 0.86268 0.91936 0.0
C91 C 0.64797 0.00236 0.95653 0.0
C92 C 0.53077 0.97606 0.77939 0.0
C93 C 0.72989 0.81514 0.89987 0.0
O94 O 0.61422 0.95604 0.91717 0.0
O95 O 0.70508 0.03375 0.93267 0.0
O96 O 0.68143 0.89764 0.71897 0.0
O97 O 0.73092 0.96182 0.80551 0.0
Co98 Co 0.3536 0.06578 0.81457 0.0
O99 O 0.40024 0.97967 0.77609 0.0
O100 O 0.45653 0.08414 0.79816 0.0
C101 C 0.25077 0.06689 0.74707 0.0
O102 O 0.31668 0.16237 0.8578 0.0
Co103 Co 0.20744 0.02329 0.89574 0.0
O104 O 0.2144 0.12883 0.91934 0.0
C105 C 0.34354 0.98915 0.95653 0.0
C106 C 0.46076 0.01547 0.77942 0.0
C107 C 0.26163 0.17637 0.89988 0.0
O108 O 0.3773 0.03548 0.91717 0.0
O109 O 0.28643 0.95777 0.93266 0.0
O110 O 0.31013 0.09391 0.71897 0.0
O111 O 0.26062 0.02971 0.80548 0.0
Co112 Co 0.17695 0.6379 0.0658 0.0
O113 O 0.21542 0.59126 0.97968 0.0
O114 O 0.19339 0.53498 0.08415 0.0
C115 C 0.24444 0.74074 0.06688 0.0
O116 O 0.13374 0.67482 0.16239 0.0
Co117 Co 0.09576 0.78407 0.02333 0.0
O118 O 0.07215 0.77708 0.12886 0.0
C119 C 0.03492 0.64798 0.98931 0.0
C120 C 0.21212 0.53073 0.01548 0.0
C121 C 0.09162 0.72985 0.1764 0.0
O122 O 0.07434 0.61417 0.03554 0.0
O123 O 0.05888 0.70501 0.95786 0.0
O124 O 0.27255 0.68139 0.09389 0.0
O125 O 0.18601 0.73088 0.02971 0.0
Co126 Co 0.17694 0.35358 0.92574 0.0
O127 O 0.2154 0.40021 0.01187 0.0
O128 O 0.19339 0.4565 0.90739 0.0
C129 C 0.24442 0.25074 0.92466 0.0
O130 O 0.13374 0.31668 0.82913 0.0
Co131 Co 0.09573 0.20741 0.96817 0.0
O132 O 0.07214 0.21441 0.86264 0.0
C133 C 0.03488 0.34351 0.00219 0.0
C134 C 0.2121 0.46073 0.97607 0.0
C135 C 0.09162 0.26165 0.81511 0.0
O136 O 0.07433 0.37731 0.95598 0.0
O137 O 0.05881 0.28646 0.03363 0.0
O138 O 0.27254 0.31009 0.89766 0.0
O139 O 0.18599 0.2606 0.96181 0.0
Co140 Co 0.81457 0.63793 0.92574 0.0
O141 O 0.77608 0.5913 0.01186 0.0
O142 O 0.79813 0.53501 0.90739 0.0
C143 C 0.74709 0.74078 0.92465 0.0
O144 O 0.8578 0.67483 0.82916 0.0
Co145 Co 0.89576 0.78409 0.96821 0.0
O146 O 0.91938 0.7771 0.86268 0.0
C147 C 0.95653 0.64799 0.00236 0.0
C148 C 0.77938 0.53077 0.97606 0.0
C149 C 0.89991 0.72987 0.81514 0.0
O150 O 0.91717 0.61422 0.95604 0.0
O151 O 0.93267 0.7051 0.03373 0.0
O152 O 0.71897 0.68142 0.89763 0.0
O153 O 0.8055 0.73091 0.96182 0.0
Co154 Co 0.81456 0.35361 0.06578 0.0
O155 O 0.77607 0.40025 0.97967 0.0
O156 O 0.79814 0.45654 0.08414 0.0
C157 C 0.74707 0.25078 0.06689 0.0
O158 O 0.85779 0.31671 0.16236 0.0
Co159 Co 0.89573 0.20744 0.0233 0.0
O160 O 0.91935 0.21443 0.12882 0.0
C161 C 0.95649 0.34354 0.98914 0.0
C162 C 0.7794 0.46077 0.01547 0.0
C163 C 0.8999 0.26167 0.17636 0.0
O164 O 0.91715 0.37732 0.03547 0.0
O165 O 0.9326 0.28645 0.95776 0.0
O166 O 0.71896 0.31013 0.09391 0.0
O167 O 0.80548 0.26064 0.02971 0.0
loop_
_geom_bond_atom_site_label_1
_geom_bond_atom_site_label_2
_geom_bond_distance
_geom_bond_site_symmetry_2
_ccdc_geom_bond_type
Co0 O1 2.216 1_455 S
Co0 O2 2.091 . S
Co0 O4 2.004 . S
Co0 O10 2.021 . S
Co0 O12 2.137 . S
Co0 O13 2.244 . S
O1 Co0 2.216 1_655 S
O1 C8 1.247 1_655 S
O2 Co0 2.091 . S
O2 C8 1.261 . S
C3 O12 1.247 . S
C3 O13 1.272 . S
O4 Co0 2.004 . S
O4 C9 1.259 . S
Co5 O6 2.061 . S
Co5 O11 2.052 . S
Co5 O13 2.135 . S
O6 Co5 2.061 . S
O6 C9 1.235 . S
C7 O10 1.238 . S
C7 O11 1.241 . S
C8 O1 1.247 1_455 S
C8 O2 1.261 . S
C9 O4 1.259 . S
C9 O6 1.235 . S
O10 Co0 2.021 . S
O10 C7 1.238 . S
O11 Co5 2.052 . S
O11 C7 1.241 . S
O12 Co0 2.137 . S
O12 C3 1.247 . S
O13 Co0 2.244 . S
O13 C3 1.272 . S
O13 Co5 2.135 . S
Co14 O15 2.216 1_655 S
Co14 O16 2.091 . S
Co14 O18 2.004 . S
Co14 O24 2.021 . S
Co14 O26 2.137 . S
Co14 O27 2.244 . S
O15 Co14 2.216 1_455 S
O15 C22 1.247 1_455 S
O16 Co14 2.091 . S
O16 C22 1.261 . S
C17 O26 1.247 . S
C17 O27 1.272 . S
O18 Co14 2.004 . S
O18 C23 1.259 . S
Co19 O20 2.061 . S
Co19 O25 2.052 . S
Co19 O27 2.135 . S
O20 Co19 2.061 . S
O20 C23 1.235 . S
C21 O24 1.238 . S
C21 O25 1.241 . S
C22 O15 1.247 1_655 S
C22 O16 1.261 . S
C23 O18 1.259 . S
C23 O20 1.235 . S
O24 Co14 2.021 . S
O24 C21 1.238 . S
O25 Co19 2.052 . S
O25 C21 1.241 . S
O26 Co14 2.137 . S
O26 C17 1.247 . S
O27 Co14 2.244 . S
O27 C17 1.272 . S
O27 Co19 2.135 . S
Co28 O29 2.216 1_455 S
Co28 O30 2.091 . S
Co28 O32 2.004 . S
Co28 O38 2.021 . S
Co28 O40 2.137 . S
Co28 O41 2.244 . S
O29 Co28 2.216 1_655 S
O29 C36 1.247 1_655 S
O30 Co28 2.091 . S
O30 C36 1.261 . S
C31 O40 1.247 . S
C31 O41 1.272 . S
O32 Co28 2.004 . S
O32 C37 1.259 . S
Co33 O34 2.061 . S
Co33 O39 2.052 . S
Co33 O41 2.135 . S
O34 Co33 2.061 . S
O34 C37 1.235 . S
C35 O38 1.238 . S
C35 O39 1.241 . S
C36 O29 1.247 1_455 S
C36 O30 1.261 . S
C37 O32 1.259 . S
C37 O34 1.235 . S
O38 Co28 2.021 . S
O38 C35 1.238 . S
O39 Co33 2.052 . S
O39 C35 1.241 . S
O40 Co28 2.137 . S
O40 C31 1.247 . S
O41 Co28 2.244 . S
O41 C31 1.272 . S
O41 Co33 2.135 . S
Co42 O43 2.216 1_655 S
Co42 O44 2.091 . S
Co42 O46 2.004 . S
Co42 O52 2.021 . S
Co42 O54 2.137 . S
Co42 O55 2.244 . S
O43 Co42 2.216 1_455 S
O43 C50 1.247 1_455 S
O44 Co42 2.091 . S
O44 C50 1.261 . S
C45 O54 1.247 . S
C45 O55 1.272 . S
O46 Co42 2.004 . S
O46 C51 1.259 . S
Co47 O48 2.061 . S
Co47 O53 2.052 . S
Co47 O55 2.135 . S
O48 Co47 2.061 . S
O48 C51 1.235 . S
C49 O52 1.238 . S
C49 O53 1.241 . S
C50 O43 1.247 1_655 S
C50 O44 1.261 . S
C51 O46 1.259 . S
C51 O48 1.235 . S
O52 Co42 2.021 . S
O52 C49 1.238 . S
O53 Co47 2.052 . S
O53 C49 1.241 . S
O54 Co42 2.137 . S
O54 C45 1.247 . S
O55 Co42 2.244 . S
O55 C45 1.272 . S
O55 Co47 2.135 . S
Co56 O57 2.216 1_545 S
Co56 O58 2.091 . S
Co56 O60 2.004 . S
Co56 O66 2.021 . S
Co56 O68 2.137 . S
Co56 O69 2.244 . S
O57 Co56 2.216 1_565 S
O57 C64 1.247 1_565 S
O58 Co56 2.091 . S
O58 C64 1.261 . S
C59 O68 1.247 . S
C59 O69 1.272 . S
O60 Co56 2.004 . S
O60 C65 1.259 . S
Co61 O62 2.061 . S
Co61 O67 2.052 . S
Co61 O69 2.135 . S
O62 Co61 2.061 . S
O62 C65 1.235 . S
C63 O66 1.238 . S
C63 O67 1.241 . S
C64 O57 1.247 1_545 S
C64 O58 1.261 . S
C65 O60 1.259 . S
C65 O62 1.235 . S
O66 Co56 2.021 . S
O66 C63 1.238 . S
O67 Co61 2.052 . S
O67 C63 1.241 . S
O68 Co56 2.137 . S
O68 C59 1.247 . S
O69 Co56 2.244 . S
O69 C59 1.272 . S
O69 Co61 2.135 . S
Co70 O71 2.216 1_565 S
Co70 O72 2.091 . S
Co70 O74 2.004 . S
Co70 O80 2.021 . S
Co70 O82 2.137 . S
Co70 O83 2.244 . S
O71 Co70 2.216 1_545 S
O71 C78 1.247 1_545 S
O72 Co70 2.091 . S
O72 C78 1.261 . S
C73 O82 1.247 . S
C73 O83 1.272 . S
O74 Co70 2.004 . S
O74 C79 1.259 . S
Co75 O76 2.061 . S
Co75 O81 2.052 . S
Co75 O83 2.135 . S
O76 Co75 2.061 . S
O76 C79 1.235 . S
C77 O80 1.238 . S
C77 O81 1.241 . S
C78 O71 1.247 1_565 S
C78 O72 1.261 . S
C79 O74 1.259 . S
C79 O76 1.235 . S
O80 Co70 2.021 . S
O80 C77 1.238 . S
O81 Co75 2.052 . S
O81 C77 1.241 . S
O82 Co70 2.137 . S
O82 C73 1.247 . S
O83 Co70 2.244 . S
O83 C73 1.272 . S
O83 Co75 2.135 . S
Co84 O85 2.216 1_565 S
Co84 O86 2.091 . S
Co84 O88 2.004 . S
Co84 O94 2.021 . S
Co84 O96 2.137 . S
Co84 O97 2.244 . S
O85 Co84 2.216 1_545 S
O85 C92 1.247 1_545 S
O86 Co84 2.091 . S
O86 C92 1.261 . S
C87 O96 1.247 . S
C87 O97 1.272 . S
O88 Co84 2.004 . S
O88 C93 1.259 . S
Co89 O90 2.061 . S
Co89 O95 2.052 . S
Co89 O97 2.135 . S
O90 Co89 2.061 . S
O90 C93 1.235 . S
C91 O94 1.238 . S
C91 O95 1.241 . S
C92 O85 1.247 1_565 S
C92 O86 1.261 . S
C93 O88 1.259 . S
C93 O90 1.235 . S
O94 Co84 2.021 . S
O94 C91 1.238 . S
O95 Co89 2.052 . S
O95 C91 1.241 . S
O96 Co84 2.137 . S
O96 C87 1.247 . S
O97 Co84 2.244 . S
O97 C87 1.272 . S
O97 Co89 2.135 . S
Co98 O99 2.216 1_545 S
Co98 O100 2.091 . S
Co98 O102 2.004 . S
Co98 O108 2.021 . S
Co98 O110 2.137 . S
Co98 O111 2.244 . S
O99 Co98 2.216 1_565 S
O99 C106 1.247 1_565 S
O100 Co98 2.091 . S
O100 C106 1.261 . S
C101 O110 1.247 . S
C101 O111 1.272 . S
O102 Co98 2.004 . S
O102 C107 1.259 . S
Co103 O104 2.061 . S
Co103 O109 2.052 . S
Co103 O111 2.135 . S
O104 Co103 2.061 . S
O104 C107 1.235 . S
C105 O108 1.238 . S
C105 O109 1.241 . S
C106 O99 1.247 1_545 S
C106 O100 1.261 . S
C107 O102 1.259 . S
C107 O104 1.235 . S
O108 Co98 2.021 . S
O108 C105 1.238 . S
O109 Co103 2.052 . S
O109 C105 1.241 . S
O110 Co98 2.137 . S
O110 C101 1.247 . S
O111 Co98 2.244 . S
O111 C101 1.272 . S
O111 Co103 2.135 . S
Co112 O113 2.216 1_554 S
Co112 O114 2.091 . S
Co112 O116 2.004 . S
Co112 O122 2.021 . S
Co112 O124 2.137 . S
Co112 O125 2.244 . S
O113 Co112 2.216 1_556 S
O113 C120 1.247 1_556 S
O114 Co112 2.091 . S
O114 C120 1.261 . S
C115 O124 1.247 . S
C115 O125 1.272 . S
O116 Co112 2.004 . S
O116 C121 1.259 . S
Co117 O118 2.061 . S
Co117 O123 2.052 . S
Co117 O125 2.135 . S
O118 Co117 2.061 . S
O118 C121 1.235 . S
C119 O122 1.238 . S
C119 O123 1.241 . S
C120 O113 1.247 1_554 S
C120 O114 1.261 . S
C121 O116 1.259 . S
C121 O118 1.235 . S
O122 Co112 2.021 . S
O122 C119 1.238 . S
O123 Co117 2.052 . S
O123 C119 1.241 . S
O124 Co112 2.137 . S
O124 C115 1.247 . S
O125 Co112 2.244 . S
O125 C115 1.272 . S
O125 Co117 2.135 . S
Co126 O127 2.216 1_556 S
Co126 O128 2.091 . S
Co126 O130 2.004 . S
Co126 O136 2.021 . S
Co126 O138 2.137 . S
Co126 O139 2.244 . S
O127 Co126 2.216 1_554 S
O127 C134 1.247 1_554 S
O128 Co126 2.091 . S
O128 C134 1.261 . S
C129 O138 1.247 . S
C129 O139 1.272 . S
O130 Co126 2.004 . S
O130 C135 1.259 . S
Co131 O132 2.061 . S
Co131 O137 2.052 . S
Co131 O139 2.135 . S
O132 Co131 2.061 . S
O132 C135 1.235 . S
C133 O136 1.238 . S
C133 O137 1.241 . S
C134 O127 1.247 1_556 S
C134 O128 1.261 . S
C135 O130 1.259 . S
C135 O132 1.235 . S
O136 Co126 2.021 . S
O136 C133 1.238 . S
O137 Co131 2.052 . S
O137 C133 1.241 . S
O138 Co126 2.137 . S
O138 C129 1.247 . S
O139 Co126 2.244 . S
O139 C129 1.272 . S
O139 Co131 2.135 . S
Co140 O141 2.216 1_556 S
Co140 O142 2.091 . S
Co140 O144 2.004 . S
Co140 O150 2.021 . S
Co140 O152 2.137 . S
Co140 O153 2.244 . S
O141 Co140 2.216 1_554 S
O141 C148 1.247 1_554 S
O142 Co140 2.091 . S
O142 C148 1.261 . S
C143 O152 1.247 . S
C143 O153 1.272 . S
O144 Co140 2.004 . S
O144 C149 1.259 . S
Co145 O146 2.061 . S
Co145 O151 2.052 . S
Co145 O153 2.135 . S
O146 Co145 2.061 . S
O146 C149 1.235 . S
C147 O150 1.238 . S
C147 O151 1.241 . S
C148 O141 1.247 1_556 S
C148 O142 1.261 . S
C149 O144 1.259 . S
C149 O146 1.235 . S
O150 Co140 2.021 . S
O150 C147 1.238 . S
O151 Co145 2.052 . S
O151 C147 1.241 . S
O152 Co140 2.137 . S
O152 C143 1.247 . S
O153 Co140 2.244 . S
O153 C143 1.272 . S
O153 Co145 2.135 . S
Co154 O155 2.216 1_554 S
Co154 O156 2.091 . S
Co154 O158 2.004 . S
Co154 O164 2.021 . S
Co154 O166 2.137 . S
Co154 O167 2.244 . S
O155 Co154 2.216 1_556 S
O155 C162 1.247 1_556 S
O156 Co154 2.091 . S
O156 C162 1.261 . S
C157 O166 1.247 . S
C157 O167 1.272 . S
O158 Co154 2.004 . S
O158 C163 1.259 . S
Co159 O160 2.061 . S
Co159 O165 2.052 . S
Co159 O167 2.135 . S
O160 Co159 2.061 . S
O160 C163 1.235 . S
C161 O164 1.238 . S
C161 O165 1.241 . S
C162 O155 1.247 1_554 S
C162 O156 1.261 . S
C163 O158 1.259 . S
C163 O160 1.235 . S
O164 Co154 2.021 . S
O164 C161 1.238 . S
O165 Co159 2.052 . S
O165 C161 1.241 . S
O166 Co154 2.137 . S
O166 C157 1.247 . S
O167 Co154 2.244 . S
O167 C157 1.272 . S
O167 Co159 2.135 . S
C50 C8 1.428 1_655 S
C36 C22 1.428 1_455 S
C78 C64 1.428 1_565 S
C92 C106 1.428 1_565 S
C134 C120 1.428 1_556 S
C148 C162 1.428 1_556 S
C9 C101 1.201 . S
C87 C23 1.201 . S
C73 C37 1.201 . S
C59 C51 1.201 . S
C65 C157 1.201 . S
C115 C79 1.201 . S
C143 C93 1.201 . S
C107 C129 1.201 . S
C31 C121 1.201 . S
C3 C135 1.201 . S
C149 C17 1.201 . S
C45 C163 1.201 . S
C7 C21 1.191 1_445 S
C49 C35 1.191 1_645 S
C91 C63 1.191 1_566 S
C77 C105 1.191 1_564 S
C147 C119 1.191 1_656 S
C133 C161 1.191 1_456 S
