# Generated by pormake.
# Topology pcu, (6)-cn, num edge types: 1
# Building blocks:
#     Node 0, Type 0, BuildingBlock: KUMBOL_clean_sbu_1, # of connection points: 6
#     Edge 1, Type (0, 0), BuildingBlock: AJUNOK_clean_linker_0, # of connection points: 2
#     Edge 2, Type (0, 0), BuildingBlock: AJUNOK_clean_linker_0, # of connection points: 2
#     Edge 3, Type (0, 0), BuildingBlock: AJUNOK_clean_linker_0, # of connection points: 2
# Relax obj value: 0.000
# Max RMSD: 0.000
# Mean RMSD: 0.000
data_MOF--net-pcu--node1-KUMBOL_clean_sbu_1--edge1-AJUNOK_clean_linker_0
_symmetry_space_group_name_H-M    P1
_symmetry_Int_Tables_number       1
_symmetry_cell_setting            triclinic
loop_
_symmetry_equiv_pos_as_xyz
'x, y, z'
_cell_length_a     10.785432
_cell_length_b     20.443066
_cell_length_c     10.970946
_cell_angle_alpha  113.02548
_cell_angle_beta   90.11289
_cell_angle_gamma 114.9053
loop_
_atom_site_label
_atom_site_type_symbol
_atom_site_fract_x
_atom_site_fract_y
_atom_site_fract_z
_atom_type_partial_charge
C0 C 0.4473 0.23644 0.2554 0.0
C1 C 0.59624 0.27482 0.10445 0.0
C2 C 0.4628 0.23607 0.12948 0.0
C3 C 0.71431 0.31208 0.20665 0.0
C4 C 0.56565 0.27678 0.35995 0.0
C5 C 0.69919 0.31306 0.334 0.0
N6 N 0.31641 0.20245 0.27843 0.0
C7 C 0.29693 0.21352 0.4066 0.0
C8 C 0.54594 0.28274 0.48919 0.0
C9 C 0.41076 0.25226 0.51296 0.0
Gd10 Gd 0.95416 0.90278 0.9216 0.0
Gd11 Gd 0.13293 0.14315 0.09357 0.0
N12 N 0.34662 0.19979 0.03251 0.0
C13 C 0.60668 0.2768 0.97861 0.0
C14 C 0.35524 0.20479 0.91208 0.0
C15 C 0.48555 0.24221 0.88249 0.0
H16 H 0.2616 0.17961 0.83891 0.0
H17 H 0.49281 0.24441 0.78584 0.0
H18 H 0.83263 0.88332 0.1982 0.0
H19 H 0.1942 0.19609 0.4292 0.0
H20 H 0.60664 0.8313 0.26334 0.0
H21 H 0.70744 0.306 0.95552 0.0
H22 H 0.81749 0.34205 0.18935 0.0
H23 H 0.88289 0.84968 0.59049 0.0
H24 H 0.63402 0.31389 0.57245 0.0
H25 H 0.39371 0.26061 0.6139 0.0
H26 H 0.27234 0.71055 0.85565 0.0
H27 H 0.79125 0.34399 0.41285 0.0
H28 H 0.44 0.71932 0.4555 0.0
H29 H 0.67635 0.77652 0.40725 0.0
N30 N 0.76498 0.83876 0.74278 0.0
C31 C 0.63677 0.80503 0.77085 0.0
C32 C 0.78046 0.82763 0.61389 0.0
C33 C 0.53043 0.7526 0.53693 0.0
C34 C 0.66354 0.78513 0.50933 0.0
C35 C 0.5157 0.76182 0.66867 0.0
H36 H 0.29019 0.69468 0.62336 0.0
N37 N 0.7458 0.85366 -0.00173 0.0
C38 C 0.6268 0.8134 0.9023 0.0
C39 C 0.48789 0.78747 0.06611 0.0
C40 C 0.49479 0.77935 0.93399 0.0
C41 C 0.73956 0.85799 0.12528 0.0
C42 C 0.61085 0.8265 0.16182 0.0
O43 O 0.25999 0.07992 0.99316 0.0
O44 O 0.17432 0.97245 0.04219 0.0
O45 O 0.91232 0.78996 0.9263 0.0
O46 O 1.0152 0.82125 0.77018 0.0
O47 O 1.02612 0.07735 0.87459 0.0
O48 O 0.05899 0.96434 0.79048 0.0
O49 O 0.82578 0.96602 0.91627 0.0
O50 O 0.91455 0.07659 0.11996 0.0
O51 O 0.06698 0.21428 0.02592 0.0
O52 O 0.1691 0.26014 0.23506 0.0
O53 O 0.04687 0.96243 0.14532 0.0
O54 O 0.03879 0.08337 0.22933 0.0
C55 C 0.27726 0.0266 0.01903 0.0
C56 C 0.04371 0.02169 0.77522 0.0
C57 C 0.97225 0.69272 0.76176 0.0
C58 C 0.98203 0.58116 0.78629 0.0
C59 C 0.95942 0.57953 0.5645 0.0
C60 C 0.96217 0.65429 0.62207 0.0
C61 C 0.97018 0.54329 0.64582 0.0
C62 C 0.98185 0.65597 0.84376 0.0
C63 C 0.9657 0.769 0.82 0.0
C64 C 0.37408 0.73726 0.8328 0.0
C65 C 0.38438 0.72825 0.70052 0.0
H66 H 0.38838 0.76237 0.09446 0.0
C67 C 0.80978 1.01961 0.0206 0.0
C68 C 0.04635 0.02455 0.24577 0.0
C69 C 0.10789 0.34909 0.18741 0.0
C70 C 0.07371 0.4463 0.13447 0.0
C71 C 0.1459 0.47609 0.36754 0.0
C72 C 0.1426 0.4017 0.3256 0.0
C73 C 0.11231 0.49853 0.27275 0.0
C74 C 0.07324 0.3716 0.09144 0.0
C75 C 0.11497 0.27323 0.14679 0.0
H76 H 0.94732 0.5492 0.45626 0.0
H77 H 0.95287 0.68115 0.55699 0.0
H78 H 0.96783 0.48519 0.59878 0.0
H79 H 0.99242 0.6864 0.95216 0.0
H80 H 0.17606 0.51684 0.47387 0.0
H81 H 0.16953 0.386 0.40179 0.0
H82 H 0.11784 0.55729 0.30733 0.0
H83 H 0.04605 0.33158 0.98459 0.0
C84 C 0.09448 0.97908 0.41385 0.0
C85 C 0.04525 0.02528 0.38155 0.0
C86 C 0.09353 0.97807 0.54095 0.0
C87 C 0.0438 0.02348 0.64109 0.0
H88 H 0.13486 0.94359 0.34058 0.0
H89 H 0.13308 0.94179 0.56094 0.0
S90 S 0.90148 0.15392 0.60674 0.0
N91 N 0.94094 0.11558 0.45884 0.0
N92 N 0.94487 0.11667 0.69879 0.0
C93 C 0.995 0.07036 0.61015 0.0
C94 C 0.99404 0.0704 0.48021 0.0
C95 C 0.45895 1.00037 0.10422 0.0
C96 C 0.41376 0.02556 0.01812 0.0
C97 C 0.58848 0.99945 0.10593 0.0
C98 C 0.67515 0.02175 0.01921 0.0
H99 H 0.39462 0.98227 0.17209 0.0
H100 H 0.6205 0.9806 0.17456 0.0
S101 S 0.60374 0.08869 0.77088 0.0
N102 N 0.46557 0.0713 0.84174 0.0
N103 N 0.7077 0.06849 0.84446 0.0
C104 C 0.63098 0.04604 0.93189 0.0
C105 C 0.50049 0.04824 0.93145 0.0
C106 C 0.09568 0.51277 0.85439 0.0
C107 C 0.99799 0.54304 0.87198 0.0
C108 C 0.11523 0.47783 0.9354 0.0
C109 C 0.03824 0.47238 0.03717 0.0
H110 H 0.16005 0.51796 0.77964 0.0
H111 H 0.19462 0.4577 0.92171 0.0
S112 S 0.76029 0.53484 0.1159 0.0
N113 N 0.81656 0.55976 0.99287 0.0
N114 N 0.85407 0.49431 0.14518 0.0
C115 C 0.9372 0.49985 0.05296 0.0
C116 C 0.9172 0.53539 0.97072 0.0
loop_
_geom_bond_atom_site_label_1
_geom_bond_atom_site_label_2
_geom_bond_distance
_geom_bond_site_symmetry_2
_ccdc_geom_bond_type
C0 C2 1.422 . S
C0 C4 1.415 . S
C0 N6 1.369 . S
C1 C2 1.421 . S
C1 C3 1.417 . S
C1 C13 1.422 . S
C2 C0 1.422 . S
C2 C1 1.421 . S
C2 N12 1.359 . S
C3 C1 1.417 . S
C3 C5 1.329 . S
C3 H22 0.930 . S
C4 C0 1.415 . S
C4 C5 1.437 . S
C4 C8 1.413 . S
C5 C3 1.329 . S
C5 C4 1.437 . S
C5 H27 0.929 . S
N6 C0 1.369 . S
N6 C7 1.338 . S
N6 Gd11 2.622 . S
C7 N6 1.338 . S
C7 C9 1.378 . S
C7 H19 0.929 . S
C8 C4 1.413 . S
C8 C9 1.348 . S
C8 H24 0.931 . S
C9 C7 1.378 . S
C9 C8 1.348 . S
C9 H25 0.930 . S
Gd10 N30 2.622 . S
Gd10 N37 2.570 . S
Gd10 O44 2.353 1_655 S
Gd10 O45 2.468 . S
Gd10 O46 2.427 . S
Gd10 O48 2.388 . S
Gd10 O49 2.386 . S
Gd10 O53 2.307 1_556 S
Gd10 C63 2.805 . S
Gd11 N6 2.622 . S
Gd11 N12 2.570 . S
Gd11 O43 2.386 . S
Gd11 O47 2.307 1_554 S
Gd11 O50 2.353 1_455 S
Gd11 O51 2.468 . S
Gd11 O52 2.427 . S
Gd11 O54 2.388 . S
Gd11 C75 2.805 . S
N12 C2 1.359 . S
N12 Gd11 2.570 . S
N12 C14 1.343 1_554 S
C13 C1 1.422 . S
C13 C15 1.321 1_554 S
C13 H21 0.931 1_554 S
C14 N12 1.343 1_556 S
C14 C15 1.390 . S
C14 H16 0.931 . S
C15 C13 1.321 1_556 S
C15 C14 1.390 . S
C15 H17 0.930 . S
H16 C14 0.931 . S
H17 C15 0.930 . S
H18 C41 0.931 . S
H19 C7 0.929 . S
H20 C42 0.930 . S
H21 C13 0.931 1_556 S
H22 C3 0.930 . S
H23 C32 0.929 . S
H24 C8 0.931 . S
H25 C9 0.930 . S
H26 C64 0.930 . S
H27 C5 0.929 . S
H28 C33 0.931 . S
H29 C34 0.930 . S
N30 Gd10 2.622 . S
N30 C31 1.369 . S
N30 C32 1.338 . S
C31 N30 1.369 . S
C31 C35 1.415 . S
C31 C38 1.422 . S
C32 H23 0.929 . S
C32 N30 1.338 . S
C32 C34 1.378 . S
C33 H28 0.931 . S
C33 C34 1.348 . S
C33 C35 1.413 . S
C34 H29 0.930 . S
C34 C32 1.378 . S
C34 C33 1.348 . S
C35 C31 1.415 . S
C35 C33 1.413 . S
C35 C65 1.437 . S
H36 C65 0.929 . S
N37 Gd10 2.570 . S
N37 C38 1.359 . S
N37 C41 1.343 1_556 S
C38 C31 1.422 . S
C38 N37 1.359 . S
C38 C40 1.421 . S
C39 C40 1.422 . S
C39 C42 1.321 1_556 S
C39 H66 0.931 1_556 S
C40 C38 1.421 . S
C40 C39 1.422 . S
C40 C64 1.417 . S
C41 H18 0.931 . S
C41 N37 1.343 1_554 S
C41 C42 1.390 . S
C42 H20 0.930 . S
C42 C39 1.321 1_554 S
C42 C41 1.390 . S
O43 Gd11 2.386 . S
O43 C55 1.263 1_545 S
O44 Gd10 2.353 1_455 S
O44 C55 1.243 1_556 S
O45 Gd10 2.468 . S
O45 C63 1.263 . S
O46 Gd10 2.427 . S
O46 C63 1.252 . S
O47 Gd11 2.307 1_556 S
O47 C56 1.261 1_545 S
O48 Gd10 2.388 . S
O48 C56 1.252 1_655 S
O49 Gd10 2.386 . S
O49 C67 1.259 1_565 S
O50 Gd11 2.353 1_655 S
O50 C67 1.245 1_554 S
O51 Gd11 2.468 . S
O51 C75 1.263 . S
O52 Gd11 2.427 . S
O52 C75 1.252 . S
O53 Gd10 2.307 1_554 S
O53 C68 1.261 1_565 S
O54 Gd11 2.388 . S
O54 C68 1.252 1_455 S
C55 O43 1.263 1_565 S
C55 O44 1.243 1_554 S
C56 O47 1.261 1_565 S
C56 O48 1.252 1_455 S
C57 C60 1.394 . S
C57 C62 1.370 . S
C57 C63 1.500 . S
C58 C61 1.383 . S
C58 C62 1.395 . S
C59 C60 1.396 . S
C59 C61 1.365 . S
C59 H76 0.929 . S
C60 C57 1.394 . S
C60 C59 1.396 . S
C60 H77 0.930 . S
C61 C58 1.383 . S
C61 C59 1.365 . S
C61 H78 0.931 . S
C62 C57 1.370 . S
C62 C58 1.395 . S
C62 H79 0.930 1_556 S
C63 Gd10 2.805 . S
C63 O45 1.263 . S
C63 O46 1.252 . S
C63 C57 1.500 . S
C64 H26 0.930 . S
C64 C40 1.417 . S
C64 C65 1.329 . S
C65 C35 1.437 . S
C65 H36 0.929 . S
C65 C64 1.329 . S
H66 C39 0.931 1_554 S
C67 O49 1.259 1_545 S
C67 O50 1.245 1_556 S
C68 O53 1.261 1_545 S
C68 O54 1.252 1_655 S
C69 C72 1.394 . S
C69 C74 1.370 . S
C69 C75 1.500 . S
C70 C73 1.383 . S
C70 C74 1.395 . S
C71 C72 1.396 . S
C71 C73 1.365 . S
C71 H80 0.929 . S
C72 C69 1.394 . S
C72 C71 1.396 . S
C72 H81 0.930 . S
C73 C70 1.383 . S
C73 C71 1.365 . S
C73 H82 0.931 . S
C74 C69 1.370 . S
C74 C70 1.395 . S
C74 H83 0.930 1_554 S
C75 Gd11 2.805 . S
C75 O51 1.263 . S
C75 O52 1.252 . S
C75 C69 1.500 . S
H76 C59 0.929 . S
H77 C60 0.930 . S
H78 C61 0.931 . S
H79 C62 0.930 1_554 S
H80 C71 0.929 . S
H81 C72 0.930 . S
H82 C73 0.931 . S
H83 C74 0.930 1_556 S
C84 C85 1.372 1_665 S
C84 C86 1.419 . S
C84 H88 0.930 . S
C85 C84 1.372 1_445 S
C85 C94 1.426 . S
C86 C84 1.419 . S
C86 C87 1.356 1_665 S
C86 H89 0.929 . S
C87 C86 1.356 1_445 S
C87 C93 1.443 . S
H88 C84 0.930 . S
H89 C86 0.929 . S
S90 N91 1.613 . S
S90 N92 1.610 . S
N91 S90 1.613 . S
N91 C94 1.350 . S
N92 S90 1.610 . S
N92 C93 1.351 . S
C93 C87 1.443 . S
C93 N92 1.351 . S
C93 C94 1.434 . S
C94 C85 1.426 . S
C94 N91 1.350 . S
C94 C93 1.434 . S
C95 C96 1.353 1_564 S
C95 C97 1.419 . S
C95 H99 0.930 . S
C96 C95 1.353 1_546 S
C96 C105 1.438 . S
C97 C95 1.419 . S
C97 C98 1.356 1_564 S
C97 H100 0.929 . S
C98 C97 1.356 1_546 S
C98 C104 1.441 . S
H99 C95 0.930 . S
H100 C97 0.929 . S
S101 N102 1.613 . S
S101 N103 1.610 . S
N102 S101 1.613 . S
N102 C105 1.350 . S
N103 S101 1.610 . S
N103 C104 1.351 . S
C104 C98 1.441 . S
C104 N103 1.351 . S
C104 C105 1.434 . S
C105 C96 1.438 . S
C105 N102 1.350 . S
C105 C104 1.434 . S
C106 C107 1.370 1_455 S
C106 C108 1.419 . S
C106 H110 0.930 . S
C107 C106 1.370 1_655 S
C107 C116 1.431 . S
C108 C106 1.419 . S
C108 C109 1.362 1_455 S
C108 H111 0.929 . S
C109 C108 1.362 1_655 S
C109 C115 1.428 1_554 S
H110 C106 0.930 . S
H111 C108 0.929 . S
S112 N113 1.613 . S
S112 N114 1.610 . S
N113 S112 1.613 . S
N113 C116 1.350 . S
N114 S112 1.610 . S
N114 C115 1.349 1_554 S
C115 C109 1.428 1_556 S
C115 N114 1.349 1_556 S
C115 C116 1.436 1_556 S
C116 C107 1.431 . S
C116 N113 1.350 . S
C116 C115 1.436 1_554 S
C85 C68 1.477 1_455 S
C87 C56 1.473 1_545 S
C96 C55 1.503 1_546 S
C98 C67 1.493 . S
C107 C58 1.353 1_554 S
C109 C70 1.357 1_655 S
