# Generated by pormake.
# Topology pcu, (6)-cn, num edge types: 1
# Building blocks:
#     Node 0, Type 0, BuildingBlock: KUMBOL_clean_sbu_1, # of connection points: 6
#     Edge 1, Type (0, 0), BuildingBlock: FUNLAD_clean_linker_1, # of connection points: 2
#     Edge 2, Type (0, 0), BuildingBlock: FUNLAD_clean_linker_1, # of connection points: 2
#     Edge 3, Type (0, 0), BuildingBlock: FUNLAD_clean_linker_1, # of connection points: 2
# Relax obj value: 0.000
# Max RMSD: 0.000
# Mean RMSD: 0.000
data_MOF--net-pcu--node1-KUMBOL_clean_sbu_1--edge1-FUNLAD_clean_linker_1
_symmetry_space_group_name_H-M    P1
_symmetry_Int_Tables_number       1
_symmetry_cell_setting            triclinic
loop_
_symmetry_equiv_pos_as_xyz
'x, y, z'
_cell_length_a     15.360703
_cell_length_b     25.30348
_cell_length_c     15.491999
_cell_angle_alpha  113.02942
_cell_angle_beta   90.571511
_cell_angle_gamma 114.48997
loop_
_atom_site_label
_atom_site_type_symbol
_atom_site_fract_x
_atom_site_fract_y
_atom_site_fract_z
_atom_type_partial_charge
C0 C 0.28739 0.1955 0.19386 0.0
C1 C 0.38818 0.22648 0.08585 0.0
C2 C 0.29595 0.19287 0.10321 0.0
C3 C 0.47144 0.26125 0.15991 0.0
C4 C 0.37067 0.23052 0.26848 0.0
C5 C 0.46272 0.26323 0.25093 0.0
N6 N 0.19768 0.16215 0.20817 0.0
C7 C 0.18553 0.16327 0.29573 0.0
C8 C 0.35895 0.23123 0.35838 0.0
C9 C 0.26589 0.19762 0.37211 0.0
Gd10 Gd 0.97794 0.91303 0.92362 0.0
Gd11 Gd 0.06728 0.10532 0.0763 0.0
N12 N 0.21413 0.15761 0.03228 0.0
C13 C 0.39384 0.22492 0.99492 0.0
C14 C 0.2186 0.15998 0.94592 0.0
C15 C 0.30845 0.1924 0.92519 0.0
H16 H 0.15315 0.13914 0.89393 0.0
H17 H 0.31168 0.19334 0.85603 0.0
H18 H 0.89207 0.8792 0.10599 0.0
H19 H 0.11354 0.13822 0.30661 0.0
H20 H 0.73353 0.82502 0.14389 0.0
H21 H 0.46325 0.25019 0.97873 0.0
H22 H 0.54288 0.28712 0.14767 0.0
H23 H 0.93169 0.88013 0.69331 0.0
H24 H 0.42111 0.25764 0.41761 0.0
H25 H 0.25617 0.19831 0.44152 0.0
H26 H 0.50234 0.73124 0.85225 0.0
H27 H 0.52759 0.29032 0.30734 0.0
H28 H 0.62411 0.76071 0.5823 0.0
H29 H 0.78906 0.82004 0.5584 0.0
N30 N 0.84754 0.8562 0.79174 0.0
C31 C 0.75784 0.82285 0.80605 0.0
C32 C 0.8597 0.85508 0.70419 0.0
C33 C 0.68628 0.78711 0.64153 0.0
C34 C 0.77933 0.82072 0.62781 0.0
C35 C 0.67455 0.78783 0.73144 0.0
H36 H 0.51763 0.72803 0.69258 0.0
N37 N 0.83109 0.86073 0.96763 0.0
C38 C 0.74927 0.82547 0.89671 0.0
C39 C 0.65138 0.79343 0.005 0.0
C40 C 0.65703 0.79186 0.91406 0.0
C41 C 0.82662 0.85837 0.05399 0.0
C42 C 0.73677 0.82595 0.07473 0.0
O43 O 0.17532 0.06679 0.08196 0.0
O44 O 0.13313 0.98163 0.93368 0.0
O45 O 1.00916 0.84503 0.95582 0.0
O46 O 0.99743 0.8371 0.80978 0.0
O47 O 1.00817 0.05894 0.91573 0.0
O48 O 0.04857 0.97487 0.84687 0.0
O49 O 0.8699 0.95155 0.91796 0.0
O50 O 0.91209 0.03671 0.06624 0.0
O51 O 0.03606 0.17331 0.0441 0.0
O52 O 0.0478 0.18124 0.19014 0.0
O53 O 0.03705 0.95941 0.08419 0.0
O54 O 0.99665 0.04348 0.15305 0.0
C55 C 0.19677 0.02681 0.01282 0.0
C56 C 0.02546 0.01846 0.842 0.0
C57 C 0.03236 0.75771 0.83336 0.0
C58 C 0.03979 0.66848 0.85426 0.0
C59 C 0.08388 0.68645 0.71411 0.0
C60 C 0.06453 0.73944 0.74689 0.0
C61 C 0.07141 0.651 0.76696 0.0
C62 C 1.01977 0.72185 0.88666 0.0
C63 C 1.0123 0.81404 0.86704 0.0
C64 C 0.57378 0.7571 0.84001 0.0
C65 C 0.5825 0.75511 0.74898 0.0
H66 H 0.58196 0.76816 0.02119 0.0
C67 C 0.84845 0.99153 0.9871 0.0
C68 C 1.01977 0.99988 0.15792 0.0
C69 C 1.01286 0.26063 0.16656 0.0
C70 C 1.00544 0.34986 0.14565 0.0
C71 C 0.96134 0.33189 0.2858 0.0
C72 C 0.98069 0.27891 0.25303 0.0
C73 C 0.97381 0.36734 0.23296 0.0
C74 C 0.02545 0.29649 0.11325 0.0
C75 C 0.03292 0.2043 0.13288 0.0
H76 H 0.10799 0.67248 0.647 0.0
H77 H 0.07493 0.76619 0.70455 0.0
H78 H 0.08441 0.6091 0.73787 0.0
H79 H 0.99428 0.73531 0.95319 0.0
H80 H 0.93723 0.34587 0.35292 0.0
H81 H 0.97029 0.25215 0.29537 0.0
H82 H 0.96082 0.40925 0.26204 0.0
H83 H 0.05095 0.28303 0.04672 0.0
H84 H 0.06903 0.97011 0.25674 0.0
C85 C 0.02945 0.99575 0.24982 0.0
H86 H 0.94881 0.04499 0.31637 0.0
H87 H 0.98882 0.87979 0.55525 0.0
H88 H 0.89677 0.78359 0.40818 0.0
H89 H 0.84606 0.79133 0.26366 0.0
H90 H 0.8893 0.89553 0.26587 0.0
C91 C 0.98869 0.01936 0.32239 0.0
C92 C 1.00148 0.0138 0.41399 0.0
C93 C 0.9716 0.9525 0.41364 0.0
C94 C 0.99572 0.94797 0.49864 0.0
C95 C 0.96921 0.88615 0.49423 0.0
C96 C 0.91679 0.83042 0.40991 0.0
C97 C 0.88869 0.83476 0.3285 0.0
C98 C 0.91519 0.89491 0.33019 0.0
H99 H 0.9762 0.04823 0.74318 0.0
C100 C 1.01578 0.02259 0.7501 0.0
H101 H 0.09642 0.97335 0.68355 0.0
H102 H 0.0564 0.13855 0.44467 0.0
H103 H 0.14846 0.23475 0.59174 0.0
H104 H 0.19916 0.22702 0.73626 0.0
H105 H 0.15592 0.12281 0.73405 0.0
C106 C 0.05654 0.99898 0.67753 0.0
C107 C 0.04375 1.00454 0.58593 0.0
C108 C 0.07362 0.06585 0.58628 0.0
C109 C 0.04951 0.07037 0.50128 0.0
C110 C 0.07601 0.1322 0.50569 0.0
C111 C 0.12844 0.18792 0.59001 0.0
C112 C 0.15654 0.18358 0.67142 0.0
C113 C 0.13003 0.12344 0.66973 0.0
H114 H 0.35168 0.07797 0.08504 0.0
C115 C 0.29726 0.03481 0.02542 0.0
H116 H 0.26896 0.94655 0.90884 0.0
H117 H 0.71127 0.03639 0.86919 0.0
H118 H 0.63673 0.02747 0.72249 0.0
H119 H 0.46421 1.00529 0.69369 0.0
H120 H 0.36552 0.99238 0.81194 0.0
C121 C 0.32226 0.98967 0.96922 0.0
C122 C 0.42427 0.99874 0.98478 0.0
C123 C 0.48032 1.00469 0.91393 0.0
C124 C 0.57918 0.01605 0.92962 0.0
C125 C 0.63481 0.02511 0.85964 0.0
C126 C 0.59318 0.02079 0.77534 0.0
C127 C 0.49613 1.00842 0.75921 0.0
C128 C 0.44021 1.0009 0.82767 0.0
H129 H 0.69354 0.94037 0.91488 0.0
C130 C 0.74797 0.98353 0.9745 0.0
H131 H 0.77626 0.07179 0.09108 0.0
H132 H 0.33395 0.98196 0.13073 0.0
H133 H 0.40849 0.99087 0.27744 0.0
H134 H 0.58101 0.01305 0.30623 0.0
H135 H 0.6797 0.02596 0.18798 0.0
C136 C 0.72296 0.02867 0.0307 0.0
C137 C 0.62095 0.0196 0.01514 0.0
C138 C 0.5649 0.01365 0.08599 0.0
C139 C 0.46604 1.00229 0.0703 0.0
C140 C 0.41041 0.99323 0.14028 0.0
C141 C 0.45204 0.99755 0.22458 0.0
C142 C 0.54909 0.00992 0.24071 0.0
C143 C 0.60501 0.01744 0.17225 0.0
H144 H 0.96792 0.62941 0.95429 0.0
C145 C 1.0224 0.62984 0.90993 0.0
H146 H 0.12759 0.59669 0.86599 0.0
H147 H 0.03548 0.52966 0.23997 0.0
H148 H 0.10171 0.6449 0.33597 0.0
H149 H 0.14622 0.71923 0.25983 0.0
H150 H 0.12414 0.67871 0.08723 0.0
C151 C 0.07142 0.59598 0.9081 0.0
C152 C 0.04588 0.55196 0.95581 0.0
C153 C 0.06061 0.57661 0.05713 0.0
C154 C 0.0364 0.53374 0.10115 0.0
C155 C 0.05197 0.55977 0.20251 0.0
C156 C 0.09039 0.62594 0.25865 0.0
C157 C 0.11534 0.66777 0.21578 0.0
C158 C 0.10146 0.64375 0.11638 0.0
H159 H 0.07731 0.38893 0.04562 0.0
C160 C 0.02283 0.3885 0.08999 0.0
H161 H 0.91765 0.42166 0.13393 0.0
H162 H 1.00975 0.48868 0.75995 0.0
H163 H 0.94352 0.37345 0.66395 0.0
H164 H 0.89901 0.29912 0.74009 0.0
H165 H 0.92109 0.33963 0.91269 0.0
C166 C 0.97381 0.42236 0.09182 0.0
C167 C 0.99935 0.46639 0.0441 0.0
C168 C 0.98462 0.44174 0.94278 0.0
C169 C 1.00883 0.48461 0.89877 0.0
C170 C 0.99326 0.45857 0.79741 0.0
C171 C 0.95485 0.3924 0.74126 0.0
C172 C 0.92989 0.35057 0.78414 0.0
C173 C 0.94377 0.3746 0.88354 0.0
loop_
_geom_bond_atom_site_label_1
_geom_bond_atom_site_label_2
_geom_bond_distance
_geom_bond_site_symmetry_2
_ccdc_geom_bond_type
C0 C2 1.422 . S
C0 C4 1.415 . S
C0 N6 1.369 . S
C1 C2 1.421 . S
C1 C3 1.417 . S
C1 C13 1.422 . S
C2 C0 1.422 . S
C2 C1 1.421 . S
C2 N12 1.359 . S
C3 C1 1.417 . S
C3 C5 1.329 . S
C3 H22 0.930 . S
C4 C0 1.415 . S
C4 C5 1.437 . S
C4 C8 1.413 . S
C5 C3 1.329 . S
C5 C4 1.437 . S
C5 H27 0.929 . S
N6 C0 1.369 . S
N6 C7 1.338 . S
N6 Gd11 2.622 . S
C7 N6 1.338 . S
C7 C9 1.378 . S
C7 H19 0.929 . S
C8 C4 1.413 . S
C8 C9 1.348 . S
C8 H24 0.931 . S
C9 C7 1.378 . S
C9 C8 1.348 . S
C9 H25 0.930 . S
Gd10 N30 2.622 . S
Gd10 N37 2.570 . S
Gd10 O44 2.353 1_655 S
Gd10 O45 2.468 . S
Gd10 O46 2.427 . S
Gd10 O48 2.388 . S
Gd10 O49 2.386 . S
Gd10 O53 2.307 1_556 S
Gd10 C63 2.805 . S
Gd11 N6 2.622 . S
Gd11 N12 2.570 . S
Gd11 O43 2.386 . S
Gd11 O47 2.307 1_554 S
Gd11 O50 2.353 1_455 S
Gd11 O51 2.468 . S
Gd11 O52 2.427 . S
Gd11 O54 2.388 . S
Gd11 C75 2.805 . S
N12 C2 1.359 . S
N12 Gd11 2.570 . S
N12 C14 1.343 1_554 S
C13 C1 1.422 . S
C13 C15 1.321 1_554 S
C13 H21 0.931 1_554 S
C14 N12 1.343 1_556 S
C14 C15 1.390 . S
C14 H16 0.931 . S
C15 C13 1.321 1_556 S
C15 C14 1.390 . S
C15 H17 0.930 . S
H16 C14 0.931 . S
H17 C15 0.930 . S
H18 C41 0.931 . S
H19 C7 0.929 . S
H20 C42 0.930 . S
H21 C13 0.931 1_556 S
H22 C3 0.930 . S
H23 C32 0.929 . S
H24 C8 0.931 . S
H25 C9 0.930 . S
H26 C64 0.930 . S
H27 C5 0.929 . S
H28 C33 0.931 . S
H29 C34 0.930 . S
N30 Gd10 2.622 . S
N30 C31 1.369 . S
N30 C32 1.338 . S
C31 N30 1.369 . S
C31 C35 1.415 . S
C31 C38 1.422 . S
C32 H23 0.929 . S
C32 N30 1.338 . S
C32 C34 1.378 . S
C33 H28 0.931 . S
C33 C34 1.348 . S
C33 C35 1.413 . S
C34 H29 0.930 . S
C34 C32 1.378 . S
C34 C33 1.348 . S
C35 C31 1.415 . S
C35 C33 1.413 . S
C35 C65 1.437 . S
H36 C65 0.929 . S
N37 Gd10 2.570 . S
N37 C38 1.359 . S
N37 C41 1.343 1_556 S
C38 C31 1.422 . S
C38 N37 1.359 . S
C38 C40 1.421 . S
C39 C40 1.422 . S
C39 C42 1.321 1_556 S
C39 H66 0.931 1_556 S
C40 C38 1.421 . S
C40 C39 1.422 . S
C40 C64 1.417 . S
C41 H18 0.931 . S
C41 N37 1.343 1_554 S
C41 C42 1.390 . S
C42 H20 0.930 . S
C42 C39 1.321 1_554 S
C42 C41 1.390 . S
O43 Gd11 2.386 . S
O43 C55 1.263 1_545 S
O44 Gd10 2.353 1_455 S
O44 C55 1.243 1_556 S
O45 Gd10 2.468 . S
O45 C63 1.263 . S
O46 Gd10 2.427 . S
O46 C63 1.252 . S
O47 Gd11 2.307 1_556 S
O47 C56 1.261 1_545 S
O48 Gd10 2.388 . S
O48 C56 1.252 1_655 S
O49 Gd10 2.386 . S
O49 C67 1.259 1_565 S
O50 Gd11 2.353 1_655 S
O50 C67 1.245 1_554 S
O51 Gd11 2.468 . S
O51 C75 1.263 . S
O52 Gd11 2.427 . S
O52 C75 1.252 . S
O53 Gd10 2.307 1_554 S
O53 C68 1.261 1_565 S
O54 Gd11 2.388 . S
O54 C68 1.252 1_455 S
C55 O43 1.263 1_565 S
C55 O44 1.243 1_554 S
C56 O47 1.261 1_565 S
C56 O48 1.252 1_455 S
C57 C60 1.394 . S
C57 C62 1.370 . S
C57 C63 1.500 . S
C58 C61 1.383 . S
C58 C62 1.395 . S
C59 C60 1.396 . S
C59 C61 1.365 . S
C59 H76 0.929 . S
C60 C57 1.394 . S
C60 C59 1.396 . S
C60 H77 0.930 . S
C61 C58 1.383 . S
C61 C59 1.365 . S
C61 H78 0.931 . S
C62 C57 1.370 . S
C62 C58 1.395 . S
C62 H79 0.930 1_556 S
C63 Gd10 2.805 . S
C63 O45 1.263 . S
C63 O46 1.252 . S
C63 C57 1.500 . S
C64 H26 0.930 . S
C64 C40 1.417 . S
C64 C65 1.329 . S
C65 C35 1.437 . S
C65 H36 0.929 . S
C65 C64 1.329 . S
H66 C39 0.931 1_554 S
C67 O49 1.259 1_545 S
C67 O50 1.245 1_556 S
C68 O53 1.261 1_545 S
C68 O54 1.252 1_655 S
C69 C72 1.394 . S
C69 C74 1.370 . S
C69 C75 1.500 . S
C70 C73 1.383 . S
C70 C74 1.395 . S
C71 C72 1.396 . S
C71 C73 1.365 . S
C71 H80 0.929 . S
C72 C69 1.394 . S
C72 C71 1.396 . S
C72 H81 0.930 . S
C73 C70 1.383 . S
C73 C71 1.365 . S
C73 H82 0.931 . S
C74 C69 1.370 . S
C74 C70 1.395 . S
C74 H83 0.930 1_554 S
C75 Gd11 2.805 . S
C75 O51 1.263 . S
C75 O52 1.252 . S
C75 C69 1.500 . S
H76 C59 0.929 . S
H77 C60 0.930 . S
H78 C61 0.931 . S
H79 C62 0.930 1_554 S
H80 C71 0.929 . S
H81 C72 0.930 . S
H82 C73 0.931 . S
H83 C74 0.930 1_556 S
H84 C85 0.951 . S
C85 H84 0.951 . S
C85 C91 1.265 1_445 S
H86 C91 0.950 . S
H87 C95 0.949 . S
H88 C96 0.950 . S
H89 C97 0.951 . S
H90 C98 0.951 . S
C91 C85 1.265 1_665 S
C91 H86 0.950 . S
C91 C92 1.478 . S
C92 C91 1.478 . S
C92 C93 1.397 . S
C92 C109 1.394 1_665 S
C93 C92 1.397 . S
C93 C94 1.438 . S
C93 C98 1.429 . S
C94 C93 1.438 . S
C94 C95 1.428 . S
C94 C107 1.394 1_665 S
C95 H87 0.949 . S
C95 C94 1.428 . S
C95 C96 1.345 . S
C96 H88 0.950 . S
C96 C95 1.345 . S
C96 C97 1.424 . S
C97 H89 0.951 . S
C97 C96 1.424 . S
C97 C98 1.347 . S
C98 H90 0.951 . S
C98 C93 1.429 . S
C98 C97 1.347 . S
H99 C100 0.951 . S
C100 H99 0.951 . S
C100 C106 1.265 1_665 S
H101 C106 0.950 . S
H102 C110 0.949 . S
H103 C111 0.950 . S
H104 C112 0.951 . S
H105 C113 0.951 . S
C106 C100 1.265 1_445 S
C106 H101 0.950 . S
C106 C107 1.478 . S
C107 C94 1.394 1_445 S
C107 C106 1.478 . S
C107 C108 1.397 . S
C108 C107 1.397 . S
C108 C109 1.438 . S
C108 C113 1.429 . S
C109 C92 1.394 1_445 S
C109 C108 1.438 . S
C109 C110 1.428 . S
C110 H102 0.949 . S
C110 C109 1.428 . S
C110 C111 1.345 . S
C111 H103 0.950 . S
C111 C110 1.345 . S
C111 C112 1.424 . S
C112 H104 0.951 . S
C112 C111 1.424 . S
C112 C113 1.347 . S
C113 H105 0.951 . S
C113 C108 1.429 . S
C113 C112 1.347 . S
H114 C115 0.951 . S
C115 H114 0.951 . S
C115 C121 1.265 1_544 S
H116 C121 0.950 . S
H117 C125 0.949 1_545 S
H118 C126 0.950 . S
H119 C127 0.951 . S
H120 C128 0.951 . S
C121 C115 1.265 1_566 S
C121 H116 0.950 . S
C121 C122 1.478 . S
C122 C121 1.478 . S
C122 C123 1.397 . S
C122 C139 1.394 1_566 S
C123 C122 1.397 . S
C123 C124 1.438 . S
C123 C128 1.429 . S
C124 C123 1.438 . S
C124 C125 1.428 . S
C124 C137 1.394 1_566 S
C125 H117 0.949 1_565 S
C125 C124 1.428 . S
C125 C126 1.345 . S
C126 H118 0.950 . S
C126 C125 1.345 . S
C126 C127 1.424 . S
C127 H119 0.951 . S
C127 C126 1.424 . S
C127 C128 1.347 . S
C128 H120 0.951 . S
C128 C123 1.429 . S
C128 C127 1.347 . S
H129 C130 0.951 . S
C130 H129 0.951 . S
C130 C136 1.265 1_566 S
H131 C136 0.950 . S
H132 C140 0.949 1_565 S
H133 C141 0.950 . S
H134 C142 0.951 . S
H135 C143 0.951 . S
C136 C130 1.265 1_544 S
C136 H131 0.950 . S
C136 C137 1.478 . S
C137 C124 1.394 1_544 S
C137 C136 1.478 . S
C137 C138 1.397 . S
C138 C137 1.397 . S
C138 C139 1.438 . S
C138 C143 1.429 . S
C139 C122 1.394 1_544 S
C139 C138 1.438 . S
C139 C140 1.428 . S
C140 H132 0.949 1_545 S
C140 C139 1.428 . S
C140 C141 1.345 . S
C141 H133 0.950 . S
C141 C140 1.345 . S
C141 C142 1.424 . S
C142 H134 0.951 . S
C142 C141 1.424 . S
C142 C143 1.347 . S
C143 H135 0.951 . S
C143 C138 1.429 . S
C143 C142 1.347 . S
H144 C145 0.951 . S
C145 H144 0.951 . S
C145 C151 1.265 1_656 S
H146 C151 0.950 . S
H147 C155 0.949 . S
H148 C156 0.950 . S
H149 C157 0.951 . S
H150 C158 0.951 . S
C151 C145 1.265 1_454 S
C151 H146 0.950 . S
C151 C152 1.478 . S
C152 C151 1.478 . S
C152 C153 1.397 . S
C152 C169 1.394 1_454 S
C153 C152 1.397 . S
C153 C154 1.438 . S
C153 C158 1.429 . S
C154 C153 1.438 . S
C154 C155 1.428 . S
C154 C167 1.394 1_454 S
C155 H147 0.949 . S
C155 C154 1.428 . S
C155 C156 1.345 . S
C156 H148 0.950 . S
C156 C155 1.345 . S
C156 C157 1.424 . S
C157 H149 0.951 . S
C157 C156 1.424 . S
C157 C158 1.347 . S
C158 H150 0.951 . S
C158 C153 1.429 . S
C158 C157 1.347 . S
H159 C160 0.951 . S
C160 H159 0.951 . S
C160 C166 1.265 1_454 S
H161 C166 0.950 . S
H162 C170 0.949 . S
H163 C171 0.950 . S
H164 C172 0.951 . S
H165 C173 0.951 . S
C166 C160 1.265 1_656 S
C166 H161 0.950 . S
C166 C167 1.478 . S
C167 C154 1.394 1_656 S
C167 C166 1.478 . S
C167 C168 1.397 . S
C168 C167 1.397 . S
C168 C169 1.438 . S
C168 C173 1.429 . S
C169 C152 1.394 1_656 S
C169 C168 1.438 . S
C169 C170 1.428 . S
C170 H162 0.949 . S
C170 C169 1.428 . S
C170 C171 1.345 . S
C171 H163 0.950 . S
C171 C170 1.345 . S
C171 C172 1.424 . S
C172 H164 0.951 . S
C172 C171 1.424 . S
C172 C173 1.347 . S
C173 H165 0.951 . S
C173 C168 1.429 . S
C173 C172 1.347 . S
C85 C68 1.483 1_455 S
C100 C56 1.483 1_655 S
C115 C55 1.483 1_545 S
C130 C67 1.485 1_565 S
C145 C58 1.324 . S
C160 C70 1.324 . S
