# Generated by pormake.
# Topology kag, (6)-cn, num edge types: 1
# Building blocks:
#     Node 0, Type 0, BuildingBlock: JUFBIX_clean_sbu_0, # of connection points: 6
#     Node 1, Type 0, BuildingBlock: JUFBIX_clean_sbu_0, # of connection points: 6
#     Node 2, Type 0, BuildingBlock: JUFBIX_clean_sbu_0, # of connection points: 6
#     Edge 3, Type (0, 0), BuildingBlock: EZIPEK_clean_linker_0, # of connection points: 2
#     Edge 4, Type (0, 0), BuildingBlock: EZIPEK_clean_linker_0, # of connection points: 2
#     Edge 5, Type (0, 0), BuildingBlock: EZIPEK_clean_linker_0, # of connection points: 2
#     Edge 6, Type (0, 0), BuildingBlock: EZIPEK_clean_linker_0, # of connection points: 2
#     Edge 7, Type (0, 0), BuildingBlock: EZIPEK_clean_linker_0, # of connection points: 2
#     Edge 8, Type (0, 0), BuildingBlock: EZIPEK_clean_linker_0, # of connection points: 2
#     Edge 9, Type (0, 0), BuildingBlock: EZIPEK_clean_linker_0, # of connection points: 2
#     Edge 10, Type (0, 0), BuildingBlock: EZIPEK_clean_linker_0, # of connection points: 2
#     Edge 11, Type (0, 0), BuildingBlock: EZIPEK_clean_linker_0, # of connection points: 2
# Relax obj value: 0.324
# Max RMSD: 0.249
# Mean RMSD: 0.152
data_MOF--net-kag--node1-JUFBIX_clean_sbu_0--edge1-EZIPEK_clean_linker_0
_symmetry_space_group_name_H-M    P1
_symmetry_Int_Tables_number       1
_symmetry_cell_setting            triclinic
loop_
_symmetry_equiv_pos_as_xyz
'x, y, z'
_cell_length_a     21.719133
_cell_length_b     30.343012
_cell_length_c     10.882597
_cell_angle_alpha  90.781206
_cell_angle_beta   92.794924
_cell_angle_gamma 121.91744
loop_
_atom_site_label
_atom_site_type_symbol
_atom_site_fract_x
_atom_site_fract_y
_atom_site_fract_z
_atom_type_partial_charge
Co0 Co 0.98673 0.45944 0.00946 0.0
C1 C 0.02957 0.50761 0.78308 0.0
Co2 Co 0.06228 0.5447 0.02185 0.0
C3 C 0.90627 0.34682 0.04509 0.0
C4 C 0.86688 0.36911 0.88864 0.0
N5 N 0.91909 0.38868 0.9819 0.0
N6 N 0.84839 0.30247 0.99356 0.0
C7 C 0.82372 0.31632 0.89542 0.0
H8 H 0.93735 0.34883 0.12814 0.0
H9 H 0.85938 0.3919 0.82099 0.0
C10 C 1.01833 0.49449 0.24864 0.0
N11 N 0.12935 0.61528 0.04929 0.0
C12 C 0.14508 0.65665 0.98172 0.0
C13 C 0.17878 0.63515 0.1467 0.0
N14 N 0.20219 0.70106 0.03439 0.0
C15 C 0.22327 0.68775 0.13794 0.0
C16 C 0.91903 0.51692 0.00798 0.0
O17 O 0.98325 0.45276 0.18202 0.0
O18 O 0.05363 0.53769 0.19711 0.0
O19 O 0.98373 0.55607 0.01014 0.0
O20 O 0.90874 0.47155 0.00928 0.0
O21 O 0.06959 0.54989 0.84704 0.0
H22 H 0.18373 0.61259 0.21817 0.0
H23 H 0.11674 0.65421 0.89482 0.0
O24 O 0.98966 0.46616 0.83738 0.0
O25 O 0.06738 0.44892 0.00928 0.0
O26 O 0.14038 0.53375 0.03113 0.0
C27 C 0.13167 0.48916 0.01975 0.0
H28 H 0.77656 0.29007 0.83504 0.0
H29 H 0.26894 0.71421 0.20077 0.0
Co30 Co 0.5606 0.98315 0.013 0.0
C31 C 0.52753 0.00391 0.77574 0.0
Co32 Co 0.49464 0.01899 0.00612 0.0
C33 C 0.5885 0.90129 0.04933 0.0
C34 C 0.67137 0.96333 0.95103 0.0
N35 N 0.61051 0.94909 0.0093 0.0
N36 N 0.63266 0.88513 0.0167 0.0
C37 C 0.68507 0.92394 0.95534 0.0
H38 H 0.53882 0.87744 0.09504 0.0
H39 H 0.70144 0.99866 0.90231 0.0
C40 C 0.52777 0.99817 0.24341 0.0
N41 N 0.4446 0.05284 0.00956 0.0
C42 C 0.46512 0.09971 0.96512 0.0
C43 C 0.38466 0.03922 0.07009 0.0
N44 N 0.42079 0.11584 0.99687 0.0
C45 C 0.36994 0.07802 0.0625 0.0
C46 C 0.40903 0.91275 0.9875 0.0
O47 O 0.56032 0.9803 0.18678 0.0
O48 O 0.49464 0.01592 0.18246 0.0
O49 O 0.40557 0.95323 0.98815 0.0
O50 O 0.47106 0.9179 0.9971 0.0
O51 O 0.495 0.02182 0.83223 0.0
H52 H 0.35589 0.00476 0.1222 0.0
H53 H 0.5138 0.12293 0.91644 0.0
O54 O 0.56059 0.98615 0.8368 0.0
O55 O 0.64985 0.04918 0.03095 0.0
O56 O 0.5839 0.08422 0.02228 0.0
C57 C 0.64604 0.08957 0.03213 0.0
H58 H 0.72768 0.92258 0.9112 0.0
H59 H 0.32768 0.07972 0.10699 0.0
Co60 Co 0.49367 0.45588 0.99455 0.0
C61 C 0.52764 0.50394 0.23068 0.0
Co62 Co 0.54964 0.54141 0.99979 0.0
C63 C 0.46937 0.35259 0.95739 0.0
C64 C 0.39065 0.35378 0.06635 0.0
N65 N 0.44872 0.38443 1.00108 0.0
N66 N 0.42665 0.30369 0.99417 0.0
C67 C 0.37703 0.30414 0.06224 0.0
H68 H 0.51672 0.36537 0.90523 0.0
H69 H 0.36202 0.36717 0.11856 0.0
C70 C 0.51479 0.49317 0.76262 0.0
N71 N 0.5949 0.6129 0.99291 0.0
C72 C 0.57509 0.64509 0.03753 0.0
C73 C 0.65353 0.64343 0.92873 0.0
N74 N 0.61891 0.69415 1.0024 0.0
C75 C 0.66832 0.69338 0.93437 0.0
C76 C 0.64598 0.50819 1.00276 0.0
O77 O 0.48472 0.45119 0.81962 0.0
O78 O 0.5469 0.53617 0.82484 0.0
O79 O 0.64181 0.54828 0.00882 0.0
O80 O 0.58772 0.46344 0.99377 0.0
O81 O 0.55305 0.546 0.17444 0.0
H82 H 0.68213 0.62983 0.87716 0.0
H83 H 0.52797 0.63256 0.0902 0.0
O84 O 0.50154 0.46119 0.16909 0.0
O85 O 0.40162 0.44905 0.99543 0.0
O86 O 0.45561 0.53381 0.99162 0.0
C87 C 0.39764 0.48921 0.99433 0.0
H88 H 0.33593 0.27135 0.1096 0.0
H89 H 0.71049 0.72632 0.88889 0.0
C90 C 1.0076 0.53452 0.57578 0.0
C91 C 0.02849 0.50491 0.64626 0.0
C92 C 0.03775 0.46469 0.45506 0.0
C93 C 1.0158 0.49382 0.38529 0.0
N94 N 0.95767 0.54263 0.37967 0.0
N95 N 0.05129 0.43478 0.6534 0.0
C96 C 0.99508 0.52524 0.44586 0.0
C97 C 0.03977 0.46784 0.58602 0.0
N98 N 0.99754 0.57051 0.63262 0.0
N99 N 0.05906 0.43517 0.39684 0.0
H100 H 0.06011 0.43791 0.74877 0.0
H101 H 0.04837 0.40202 0.61534 0.0
H102 H 0.05297 0.42793 0.30196 0.0
H103 H 0.0867 0.41994 0.4418 0.0
H104 H 0.99187 0.59785 0.58503 0.0
H105 H 0.99856 0.57521 0.72781 0.0
H106 H 0.93454 0.56159 0.41875 0.0
H107 H 0.94179 0.53205 0.28676 0.0
C108 C 0.4638 0.96383 0.43743 0.0
C109 C 0.52845 0.99855 0.3799 0.0
C110 C 0.59151 0.03807 0.58173 0.0
C111 C 0.52686 0.0034 0.63928 0.0
N112 N 0.39838 0.93884 0.62396 0.0
N113 N 0.65715 0.06255 0.39554 0.0
C114 C 0.46202 0.96786 0.56763 0.0
C115 C 0.59335 0.03391 0.45162 0.0
N116 N 0.40575 0.92476 0.36786 0.0
N117 N 0.64959 0.07718 0.65119 0.0
H118 H 0.66057 0.06143 0.3005 0.0
H119 H 0.70783 0.08471 0.44293 0.0
H120 H 0.64851 0.0825 0.74568 0.0
H121 H 0.69611 0.10719 0.61491 0.0
H122 H 0.35909 0.89479 0.40391 0.0
H123 H 0.40694 0.91941 0.27341 0.0
H124 H 0.34767 0.91646 0.57683 0.0
H125 H 0.39515 0.93973 0.71908 0.0
C126 C 0.49595 0.52678 0.56178 0.0
C127 C 0.51293 0.49316 0.62507 0.0
C128 C 0.55006 0.4742 0.43174 0.0
C129 C 0.52662 0.50352 0.36701 0.0
N130 N 0.46342 0.54941 0.36727 0.0
N131 N 0.53899 0.4245 0.60872 0.0
C132 C 0.49621 0.52787 0.43107 0.0
C133 C 0.53423 0.46345 0.55674 0.0
N134 N 0.47842 0.55743 0.62541 0.0
N135 N 0.5909 0.45859 0.37567 0.0
H136 H 0.53057 0.41489 0.70006 0.0
H137 H 0.54545 0.39817 0.55718 0.0
H138 H 0.60622 0.46717 0.28558 0.0
H139 H 0.61654 0.44235 0.42285 0.0
H140 H 0.47734 0.58825 0.5867 0.0
H141 H 0.46772 0.55397 0.71805 0.0
H142 H 0.43204 0.5615 0.40796 0.0
H143 H 0.46109 0.55079 0.27174 0.0
C144 C 0.23029 0.47923 0.12056 0.0
C145 C 0.19727 0.48571 0.01227 0.0
C146 C 0.29251 0.48977 0.89065 0.0
C147 C 0.32596 0.48412 0.999 0.0
N148 N 0.31881 0.4614 0.21136 0.0
N149 N 0.20808 0.51133 0.8015 0.0
C150 C 0.29239 0.47514 0.11236 0.0
C151 C 0.2312 0.49461 0.89897 0.0
N152 N 0.20612 0.48164 0.23252 0.0
N153 N 0.31713 0.48766 0.77885 0.0
H154 H 0.16576 0.51785 0.80564 0.0
H155 H 0.23527 0.52384 0.72095 0.0
H156 H 0.35938 0.48123 0.76985 0.0
H157 H 0.29089 0.48635 0.69496 0.0
H158 H 0.23182 0.48237 0.31646 0.0
H159 H 0.16465 0.4888 0.24175 0.0
H160 H 0.29256 0.44896 0.29277 0.0
H161 H 0.36418 0.45816 0.20878 0.0
C162 C 0.77221 0.16058 0.97462 0.0
C163 C 0.71181 0.14312 0.04898 0.0
C164 C 0.75599 0.23335 0.11412 0.0
C165 C 0.81349 0.25049 0.03559 0.0
N166 N 0.88909 0.23305 0.91864 0.0
N167 N 0.66118 0.16192 0.22027 0.0
C168 C 0.82607 0.21465 0.97624 0.0
C169 C 0.70883 0.17931 0.12918 0.0
N170 N 0.77576 0.12671 0.89573 0.0
N171 N 0.74408 0.26881 0.1683 0.0
H172 H 0.62683 0.12257 0.23572 0.0
H173 H 0.66075 0.18635 0.2879 0.0
H174 H 0.77936 0.30878 0.16152 0.0
H175 H 0.69753 0.25863 0.21375 0.0
H176 H 0.81328 0.13835 0.8286 0.0
H177 H 0.73862 0.0869 0.89094 0.0
H178 H 0.90573 0.20939 0.88227 0.0
H179 H 0.92801 0.27276 0.91775 0.0
C180 C 0.57386 0.79486 0.93306 0.0
C181 C 0.61979 0.83372 0.02479 0.0
C182 C 0.65559 0.77629 0.11413 0.0
C183 C 0.61147 0.73806 0.02037 0.0
N184 N 0.52027 0.70588 0.85273 0.0
N185 N 0.69464 0.86032 0.2131 0.0
C186 C 0.56736 0.74569 0.93417 0.0
C187 C 0.65744 0.82385 0.11918 0.0
N188 N 0.53943 0.80623 0.84206 0.0
N189 N 0.69733 0.76727 0.19518 0.0
H190 H 0.69669 0.89548 0.21698 0.0
H191 H 0.71961 0.85489 0.29032 0.0
H192 H 0.69451 0.73184 0.19501 0.0
H193 H 0.73609 0.79485 0.25956 0.0
H194 H 0.50996 0.78173 0.7657 0.0
H195 H 0.54296 0.84184 0.83991 0.0
H196 H 0.48197 0.7067 0.79325 0.0
H197 H 0.51648 0.67015 0.84969 0.0
C198 C 0.84325 0.55087 0.08774 0.0
C199 C 0.85485 0.52266 0.99607 0.0
C200 C 0.73515 0.49473 0.89524 0.0
C201 C 0.71845 0.51411 0.99953 0.0
N202 N 0.75486 0.55711 0.20161 0.0
N203 N 0.81364 0.47039 0.80594 0.0
C204 C 0.77223 0.54162 0.09719 0.0
C205 C 0.80104 0.49514 0.89811 0.0
N206 N 0.89989 0.58749 0.16385 0.0
N207 N 0.69027 0.47918 0.79039 0.0
H208 H 0.86453 0.47565 0.79522 0.0
H209 H 0.77321 0.44366 0.74203 0.0
H210 H 0.64457 0.48206 0.7831 0.0
H211 H 0.70221 0.46903 0.70709 0.0
H212 H 0.89547 0.61257 0.2239 0.0
H213 H 0.95315 0.59688 0.15839 0.0
H214 H 0.78929 0.5717 0.28142 0.0
H215 H 0.70363 0.55116 0.21272 0.0
C216 C 0.29685 0.76836 0.91312 0.0
C217 C 0.23892 0.75265 0.99002 0.0
C218 C 0.28233 0.84324 0.04647 0.0
C219 C 0.34281 0.85937 0.97297 0.0
N220 N 0.39246 0.83809 0.8043 0.0
N221 N 0.16369 0.77255 0.10067 0.0
C222 C 0.34493 0.82208 0.89545 0.0
C223 C 0.22718 0.78956 0.04562 0.0
N224 N 0.30824 0.73197 0.86298 0.0
N225 N 0.27984 0.87789 0.1243 0.0
H226 H 0.12371 0.73308 0.10214 0.0
H227 H 0.14781 0.79717 0.13379 0.0
H228 H 0.31836 0.91743 0.12997 0.0
H229 H 0.24197 0.86696 0.19062 0.0
H230 H 0.3549 0.74129 0.81892 0.0
H231 H 0.27249 0.69221 0.87201 0.0
H232 H 0.39231 0.81271 0.7387 0.0
H233 H 0.42711 0.87716 0.78638 0.0
C234 C 0.48181 0.25518 0.06794 0.0
C235 C 0.43635 0.26067 0.97998 0.0
C236 C 0.39323 0.17434 0.88745 0.0
C237 C 0.43219 0.16661 0.98367 0.0
N238 N 0.51376 0.19757 0.16517 0.0
N239 N 0.35032 0.22831 0.80509 0.0
C240 C 0.4776 0.20685 0.07289 0.0
C241 C 0.39312 0.22117 0.88823 0.0
N242 N 0.52791 0.29618 0.1474 0.0
N243 N 0.35652 0.1365 0.79613 0.0
H244 H 0.35169 0.26319 0.80229 0.0
H245 H 0.31221 0.19977 0.74167 0.0
H246 H 0.35592 0.10186 0.79546 0.0
H247 H 0.33043 0.14025 0.71796 0.0
H248 H 0.56693 0.2969 0.20814 0.0
H249 H 0.53003 0.33132 0.14775 0.0
H250 H 0.54306 0.22316 0.24002 0.0
H251 H 0.5121 0.16266 0.16973 0.0
loop_
_geom_bond_atom_site_label_1
_geom_bond_atom_site_label_2
_geom_bond_distance
_geom_bond_site_symmetry_2
_ccdc_geom_bond_type
Co0 N5 2.057 1_554 S
Co0 O17 2.021 . S
Co0 O20 2.062 . S
Co0 O24 2.117 1_554 S
Co0 O25 2.020 1_655 S
C1 O21 1.259 . S
C1 O24 1.258 1_455 S
Co2 N11 2.057 1_556 S
Co2 O18 2.117 1_556 S
Co2 O19 2.020 1_455 S
Co2 O21 2.021 . S
Co2 O26 2.062 . S
C3 N5 1.316 1_554 S
C3 N6 1.347 1_554 S
C3 H8 0.931 . S
C4 N5 1.375 . S
C4 C7 1.350 . S
C4 H9 0.930 . S
N5 Co0 2.057 1_556 S
N5 C3 1.316 1_556 S
N5 C4 1.375 . S
N6 C3 1.347 1_556 S
N6 C7 1.373 . S
C7 C4 1.350 . S
C7 N6 1.373 . S
C7 H28 0.931 . S
H8 C3 0.931 . S
H9 C4 0.930 . S
C10 O17 1.259 . S
C10 O18 1.258 1_655 S
N11 Co2 2.057 1_554 S
N11 C12 1.316 1_554 S
N11 C13 1.375 . S
C12 N11 1.316 1_556 S
C12 N14 1.347 1_556 S
C12 H23 0.931 . S
C13 N11 1.375 . S
C13 C15 1.350 . S
C13 H22 0.930 . S
N14 C12 1.347 1_554 S
N14 C15 1.373 . S
C15 C13 1.350 . S
C15 N14 1.373 . S
C15 H29 0.931 . S
C16 O19 1.256 1_554 S
C16 O20 1.255 . S
O17 Co0 2.021 . S
O17 C10 1.259 . S
O18 Co2 2.117 1_554 S
O18 C10 1.258 1_455 S
O19 Co2 2.020 1_655 S
O19 C16 1.256 1_556 S
O20 Co0 2.062 . S
O20 C16 1.255 . S
O21 C1 1.259 . S
O21 Co2 2.021 . S
H22 C13 0.930 . S
H23 C12 0.931 . S
O24 Co0 2.117 1_556 S
O24 C1 1.258 1_655 S
O25 Co0 2.020 1_455 S
O25 C27 1.256 1_554 S
O26 Co2 2.062 . S
O26 C27 1.255 . S
C27 O25 1.256 1_556 S
C27 O26 1.255 . S
H28 C7 0.931 . S
H29 C15 0.931 . S
Co30 N35 2.057 1_554 S
Co30 O47 2.021 . S
Co30 O50 2.062 . S
Co30 O54 2.117 1_554 S
Co30 O55 2.020 1_565 S
C31 O51 1.259 . S
C31 O54 1.258 1_545 S
Co32 N41 2.057 1_556 S
Co32 O48 2.117 1_556 S
Co32 O49 2.020 1_545 S
Co32 O51 2.021 . S
Co32 O56 2.062 . S
C33 N35 1.316 1_554 S
C33 N36 1.347 1_554 S
C33 H38 0.931 . S
C34 N35 1.375 . S
C34 C37 1.350 . S
C34 H39 0.930 . S
N35 Co30 2.057 1_556 S
N35 C33 1.316 1_556 S
N35 C34 1.375 . S
N36 C33 1.347 1_556 S
N36 C37 1.373 . S
C37 C34 1.350 . S
C37 N36 1.373 . S
C37 H58 0.931 . S
H38 C33 0.931 . S
H39 C34 0.930 . S
C40 O47 1.259 . S
C40 O48 1.258 1_565 S
N41 Co32 2.057 1_554 S
N41 C42 1.316 1_554 S
N41 C43 1.375 . S
C42 N41 1.316 1_556 S
C42 N44 1.347 1_556 S
C42 H53 0.931 . S
C43 N41 1.375 . S
C43 C45 1.350 . S
C43 H52 0.930 . S
N44 C42 1.347 1_554 S
N44 C45 1.373 . S
C45 C43 1.350 . S
C45 N44 1.373 . S
C45 H59 0.931 . S
C46 O49 1.256 . S
C46 O50 1.255 1_556 S
O47 Co30 2.021 . S
O47 C40 1.259 . S
O48 Co32 2.117 1_554 S
O48 C40 1.258 1_545 S
O49 Co32 2.020 1_565 S
O49 C46 1.256 . S
O50 Co30 2.062 . S
O50 C46 1.255 1_554 S
O51 C31 1.259 . S
O51 Co32 2.021 . S
H52 C43 0.930 . S
H53 C42 0.931 . S
O54 Co30 2.117 1_556 S
O54 C31 1.258 1_565 S
O55 Co30 2.020 1_545 S
O55 C57 1.256 . S
O56 Co32 2.062 . S
O56 C57 1.255 1_556 S
C57 O55 1.256 . S
C57 O56 1.255 1_554 S
H58 C37 0.931 . S
H59 C45 0.931 . S
Co60 N65 2.057 1_556 S
Co60 O77 2.021 . S
Co60 O80 2.062 . S
Co60 O84 2.117 1_556 S
Co60 O85 2.020 . S
C61 O81 1.259 . S
C61 O84 1.258 . S
Co62 N71 2.057 1_554 S
Co62 O78 2.117 1_554 S
Co62 O79 2.020 . S
Co62 O81 2.021 . S
Co62 O86 2.062 . S
C63 N65 1.316 1_556 S
C63 N66 1.347 1_556 S
C63 H68 0.931 . S
C64 N65 1.375 . S
C64 C67 1.350 . S
C64 H69 0.930 . S
N65 Co60 2.057 1_554 S
N65 C63 1.316 1_554 S
N65 C64 1.375 . S
N66 C63 1.347 1_554 S
N66 C67 1.373 . S
C67 C64 1.350 . S
C67 N66 1.373 . S
C67 H88 0.931 . S
H68 C63 0.931 . S
H69 C64 0.930 . S
C70 O77 1.259 . S
C70 O78 1.258 . S
N71 Co62 2.057 1_556 S
N71 C72 1.316 1_556 S
N71 C73 1.375 . S
C72 N71 1.316 1_554 S
C72 N74 1.347 1_554 S
C72 H83 0.931 . S
C73 N71 1.375 . S
C73 C75 1.350 . S
C73 H82 0.930 . S
N74 C72 1.347 1_556 S
N74 C75 1.373 . S
C75 C73 1.350 . S
C75 N74 1.373 . S
C75 H89 0.931 . S
C76 O79 1.256 . S
C76 O80 1.254 1_554 S
O77 Co60 2.021 . S
O77 C70 1.259 . S
O78 Co62 2.117 1_556 S
O78 C70 1.258 . S
O79 Co62 2.020 . S
O79 C76 1.256 . S
O80 Co60 2.062 . S
O80 C76 1.254 1_556 S
O81 C61 1.259 . S
O81 Co62 2.021 . S
H82 C73 0.930 . S
H83 C72 0.931 . S
O84 Co60 2.117 1_554 S
O84 C61 1.258 . S
O85 Co60 2.020 . S
O85 C87 1.256 . S
O86 Co62 2.062 . S
O86 C87 1.254 1_554 S
C87 O85 1.256 . S
C87 O86 1.254 1_556 S
H88 C67 0.931 . S
H89 C75 0.931 . S
C90 C91 1.362 1_655 S
C90 C96 1.379 . S
C90 N98 1.356 . S
C91 C90 1.362 1_455 S
C91 C97 1.364 . S
C92 C93 1.362 . S
C92 C97 1.379 . S
C92 N99 1.356 . S
C93 C92 1.362 . S
C93 C96 1.364 1_455 S
N94 C96 1.356 . S
N94 H106 0.984 . S
N94 H107 0.985 . S
N95 C97 1.356 . S
N95 H100 0.984 . S
N95 H101 0.985 . S
C96 C90 1.379 . S
C96 C93 1.364 1_655 S
C96 N94 1.356 . S
C97 C91 1.364 . S
C97 C92 1.379 . S
C97 N95 1.356 . S
N98 C90 1.356 . S
N98 H104 0.984 . S
N98 H105 0.984 . S
N99 C92 1.356 . S
N99 H102 0.984 . S
N99 H103 0.985 . S
H100 N95 0.984 . S
H101 N95 0.985 . S
H102 N99 0.984 . S
H103 N99 0.985 . S
H104 N98 0.984 . S
H105 N98 0.984 . S
H106 N94 0.984 . S
H107 N94 0.985 . S
C108 C109 1.363 . S
C108 C114 1.379 . S
C108 N116 1.356 . S
C109 C108 1.363 . S
C109 C115 1.363 1_565 S
C110 C111 1.363 . S
C110 C115 1.379 . S
C110 N117 1.356 . S
C111 C110 1.363 . S
C111 C114 1.363 1_545 S
N112 C114 1.356 . S
N112 H124 0.984 . S
N112 H125 0.985 . S
N113 C115 1.356 . S
N113 H118 0.984 . S
N113 H119 0.985 . S
C114 C108 1.379 . S
C114 C111 1.363 1_565 S
C114 N112 1.356 . S
C115 C109 1.363 1_545 S
C115 C110 1.379 . S
C115 N113 1.356 . S
N116 C108 1.356 . S
N116 H122 0.984 . S
N116 H123 0.984 . S
N117 C110 1.356 . S
N117 H120 0.984 . S
N117 H121 0.985 . S
H118 N113 0.984 . S
H119 N113 0.985 . S
H120 N117 0.984 . S
H121 N117 0.985 . S
H122 N116 0.984 . S
H123 N116 0.984 . S
H124 N112 0.984 . S
H125 N112 0.985 . S
C126 C127 1.363 . S
C126 C132 1.379 . S
C126 N134 1.356 . S
C127 C126 1.363 . S
C127 C133 1.363 . S
C128 C129 1.363 . S
C128 C133 1.379 . S
C128 N135 1.356 . S
C129 C128 1.363 . S
C129 C132 1.363 . S
N130 C132 1.356 . S
N130 H142 0.984 . S
N130 H143 0.985 . S
N131 C133 1.356 . S
N131 H136 0.984 . S
N131 H137 0.985 . S
C132 C126 1.379 . S
C132 C129 1.363 . S
C132 N130 1.356 . S
C133 C127 1.363 . S
C133 C128 1.379 . S
C133 N131 1.356 . S
N134 C126 1.356 . S
N134 H140 0.984 . S
N134 H141 0.984 . S
N135 C128 1.356 . S
N135 H138 0.984 . S
N135 H139 0.985 . S
H136 N131 0.984 . S
H137 N131 0.985 . S
H138 N135 0.984 . S
H139 N135 0.985 . S
H140 N134 0.984 . S
H141 N134 0.984 . S
H142 N130 0.984 . S
H143 N130 0.985 . S
C144 C145 1.360 1_554 S
C144 C150 1.379 . S
C144 N152 1.356 . S
C145 C144 1.360 1_556 S
C145 C151 1.366 . S
C146 C147 1.363 . S
C146 C151 1.379 . S
C146 N153 1.356 . S
C147 C146 1.363 . S
C147 C150 1.363 1_556 S
N148 C150 1.356 . S
N148 H160 0.984 . S
N148 H161 0.985 . S
N149 C151 1.356 . S
N149 H154 0.984 . S
N149 H155 0.985 . S
C150 C144 1.379 . S
C150 C147 1.363 1_554 S
C150 N148 1.356 . S
C151 C145 1.366 . S
C151 C146 1.379 . S
C151 N149 1.356 . S
N152 C144 1.356 . S
N152 H158 0.984 . S
N152 H159 0.984 . S
N153 C146 1.356 . S
N153 H156 0.984 . S
N153 H157 0.985 . S
H154 N149 0.984 . S
H155 N149 0.985 . S
H156 N153 0.984 . S
H157 N153 0.985 . S
H158 N152 0.984 . S
H159 N152 0.984 . S
H160 N148 0.984 . S
H161 N148 0.985 . S
C162 C163 1.363 1_556 S
C162 C168 1.379 . S
C162 N170 1.356 . S
C163 C162 1.363 1_554 S
C163 C169 1.363 . S
C164 C165 1.363 . S
C164 C169 1.379 . S
C164 N171 1.356 . S
C165 C164 1.363 . S
C165 C168 1.363 1_554 S
N166 C168 1.356 . S
N166 H178 0.984 . S
N166 H179 0.985 . S
N167 C169 1.356 . S
N167 H172 0.984 . S
N167 H173 0.985 . S
C168 C162 1.379 . S
C168 C165 1.363 1_556 S
C168 N166 1.356 . S
C169 C163 1.363 . S
C169 C164 1.379 . S
C169 N167 1.356 . S
N170 C162 1.356 . S
N170 H176 0.984 . S
N170 H177 0.984 . S
N171 C164 1.356 . S
N171 H174 0.984 . S
N171 H175 0.985 . S
H172 N167 0.984 . S
H173 N167 0.985 . S
H174 N171 0.984 . S
H175 N171 0.985 . S
H176 N170 0.984 . S
H177 N170 0.984 . S
H178 N166 0.984 . S
H179 N166 0.985 . S
C180 C181 1.363 1_556 S
C180 C186 1.379 . S
C180 N188 1.356 . S
C181 C180 1.363 1_554 S
C181 C187 1.363 . S
C182 C183 1.363 . S
C182 C187 1.379 . S
C182 N189 1.356 . S
C183 C182 1.363 . S
C183 C186 1.363 1_554 S
N184 C186 1.356 . S
N184 H196 0.984 . S
N184 H197 0.985 . S
N185 C187 1.356 . S
N185 H190 0.984 . S
N185 H191 0.985 . S
C186 C180 1.379 . S
C186 C183 1.363 1_556 S
C186 N184 1.356 . S
C187 C181 1.363 . S
C187 C182 1.379 . S
C187 N185 1.356 . S
N188 C180 1.356 . S
N188 H194 0.984 . S
N188 H195 0.984 . S
N189 C182 1.356 . S
N189 H192 0.984 . S
N189 H193 0.985 . S
H190 N185 0.984 . S
H191 N185 0.985 . S
H192 N189 0.984 . S
H193 N189 0.985 . S
H194 N188 0.984 . S
H195 N188 0.984 . S
H196 N184 0.984 . S
H197 N184 0.985 . S
C198 C199 1.364 . S
C198 C204 1.379 . S
C198 N206 1.356 . S
C199 C198 1.364 . S
C199 C205 1.363 1_554 S
C200 C201 1.363 1_556 S
C200 C205 1.379 . S
C200 N207 1.356 . S
C201 C200 1.363 1_554 S
C201 C204 1.363 . S
N202 C204 1.356 . S
N202 H214 0.984 . S
N202 H215 0.985 . S
N203 C205 1.356 . S
N203 H208 0.984 . S
N203 H209 0.985 . S
C204 C198 1.379 . S
C204 C201 1.363 . S
C204 N202 1.356 . S
C205 C199 1.363 1_556 S
C205 C200 1.379 . S
C205 N203 1.356 . S
N206 C198 1.356 . S
N206 H212 0.984 . S
N206 H213 0.984 . S
N207 C200 1.356 . S
N207 H210 0.984 . S
N207 H211 0.985 . S
H208 N203 0.984 . S
H209 N203 0.985 . S
H210 N207 0.984 . S
H211 N207 0.985 . S
H212 N206 0.984 . S
H213 N206 0.984 . S
H214 N202 0.984 . S
H215 N202 0.985 . S
C216 C217 1.369 . S
C216 C222 1.379 . S
C216 N224 1.356 . S
C217 C216 1.369 . S
C217 C223 1.357 1_556 S
C218 C219 1.363 1_554 S
C218 C223 1.379 . S
C218 N225 1.356 . S
C219 C218 1.363 1_556 S
C219 C222 1.363 . S
N220 C222 1.356 . S
N220 H232 0.984 . S
N220 H233 0.985 . S
N221 C223 1.356 . S
N221 H226 0.984 . S
N221 H227 0.985 . S
C222 C216 1.379 . S
C222 C219 1.363 . S
C222 N220 1.356 . S
C223 C217 1.357 1_554 S
C223 C218 1.379 . S
C223 N221 1.356 . S
N224 C216 1.356 . S
N224 H230 0.984 . S
N224 H231 0.984 . S
N225 C218 1.356 . S
N225 H228 0.984 . S
N225 H229 0.985 . S
H226 N221 0.984 . S
H227 N221 0.985 . S
H228 N225 0.984 . S
H229 N225 0.985 . S
H230 N224 0.984 . S
H231 N224 0.984 . S
H232 N220 0.984 . S
H233 N220 0.985 . S
C234 C235 1.363 1_554 S
C234 C240 1.379 . S
C234 N242 1.356 . S
C235 C234 1.363 1_556 S
C235 C241 1.363 . S
C236 C237 1.363 . S
C236 C241 1.379 . S
C236 N243 1.356 . S
C237 C236 1.363 . S
C237 C240 1.363 1_556 S
N238 C240 1.356 . S
N238 H250 0.984 . S
N238 H251 0.985 . S
N239 C241 1.356 . S
N239 H244 0.984 . S
N239 H245 0.985 . S
C240 C234 1.379 . S
C240 C237 1.363 1_554 S
C240 N238 1.356 . S
C241 C235 1.363 . S
C241 C236 1.379 . S
C241 N239 1.356 . S
N242 C234 1.356 . S
N242 H248 0.984 . S
N242 H249 0.984 . S
N243 C236 1.356 . S
N243 H246 0.984 . S
N243 H247 0.985 . S
H244 N239 0.984 . S
H245 N239 0.985 . S
H246 N243 0.984 . S
H247 N243 0.985 . S
H248 N242 0.984 . S
H249 N242 0.984 . S
H250 N238 0.984 . S
H251 N238 0.985 . S
C91 C1 1.496 . S
C93 C10 1.496 1_455 S
C109 C40 1.502 . S
C111 C31 1.502 . S
C127 C70 1.503 . S
C129 C61 1.503 . S
C145 C27 1.746 . S
C147 C87 1.725 . S
C163 C57 1.254 . S
C165 N6 1.248 1_554 S
C181 N36 0.918 1_554 S
C183 N74 0.921 1_554 S
C199 C16 1.746 . S
C201 C76 1.729 . S
C217 N14 1.247 1_556 S
C219 C46 1.255 . S
C235 N66 0.919 1_556 S
C237 N44 0.916 1_556 S
