# Generated by pormake.
# Topology pcu, (6)-cn, num edge types: 1
# Building blocks:
#     Node 0, Type 0, BuildingBlock: NUHQIS_clean_sbu_0, # of connection points: 6
#     Edge 1, Type (0, 0), BuildingBlock: EYOCIG_clean_linker_4, # of connection points: 2
#     Edge 2, Type (0, 0), BuildingBlock: EYOCIG_clean_linker_4, # of connection points: 2
#     Edge 3, Type (0, 0), BuildingBlock: EYOCIG_clean_linker_4, # of connection points: 2
# Relax obj value: 0.000
# Max RMSD: 0.000
# Mean RMSD: 0.000
data_MOF--net-pcu--node1-NUHQIS_clean_sbu_0--edge1-EYOCIG_clean_linker_4
_symmetry_space_group_name_H-M    P1
_symmetry_Int_Tables_number       1
_symmetry_cell_setting            triclinic
loop_
_symmetry_equiv_pos_as_xyz
'x, y, z'
_cell_length_a     22.273136
_cell_length_b     12.091367
_cell_length_c     12.067559
_cell_angle_alpha  92.371784
_cell_angle_beta   97.510805
_cell_angle_gamma 120.66256
loop_
_atom_site_label
_atom_site_type_symbol
_atom_site_fract_x
_atom_site_fract_y
_atom_site_fract_z
_atom_type_partial_charge
Tb0 Tb 0.93997 0.89893 0.96272 0.0
Eu1 Eu 0.12112 0.05528 0.01155 0.0
C2 C 1.02621 0.96692 0.76618 0.0
C3 C 1.01744 0.73946 0.97898 0.0
C4 C 0.75655 0.84303 0.93617 0.0
C5 C 0.6505 0.84585 0.86224 0.0
C6 C 0.70031 0.8112 0.84834 0.0
C7 C 0.76303 0.91251 0.03804 0.0
C8 C 0.71289 0.9469 0.05201 0.0
C9 C 0.65623 0.9128 0.96428 0.0
C10 C 0.80719 0.80239 0.91844 0.0
O11 O 0.96838 0.9426 0.14489 0.0
O12 O 0.09021 0.03006 0.18236 0.0
O13 O 0.10034 0.21671 0.0345 0.0
O14 O 0.97906 0.10498 0.96591 0.0
C15 C 1.0287 -0.01302 0.21399 0.0
O16 O 0.22206 0.11569 0.12066 0.0
O17 O 0.22072 0.15475 0.94751 0.0
O18 O 0.08273 0.06093 0.83173 0.0
O19 O 0.97281 0.87544 0.80574 0.0
O20 O 0.95906 0.74096 0.9819 0.0
O21 O 0.07951 0.84244 0.97639 0.0
C22 C 0.0404 0.21206 0.00213 0.0
O23 O 0.85016 0.86415 0.84963 0.0
O24 O 0.83951 0.7834 0.00691 0.0
C25 C 0.30912 0.11255 0.0293 0.0
C26 C 0.41091 0.04383 0.01068 0.0
C27 C 0.41481 0.11203 0.11065 0.0
C28 C 0.36428 0.14624 0.11986 0.0
C29 C 0.30446 0.0414 0.92983 0.0
C30 C 0.35524 0.00753 0.92062 0.0
C31 C 0.25868 0.15589 0.03987 0.0
H32 H 0.60715 0.81929 0.79358 0.0
H33 H 0.69467 0.75859 0.76898 0.0
H34 H 0.80638 0.93939 0.10674 0.0
H35 H 0.71805 -0.00086 0.13129 0.0
H36 H 0.45747 0.14039 0.18106 0.0
H37 H 0.36881 0.20064 0.19735 0.0
H38 H 0.26222 0.01329 0.85886 0.0
H39 H 0.35151 0.95441 0.84288 0.0
C40 C 1.02446 -0.02169 0.43111 0.0
C41 C 1.02653 -0.01763 0.33201 0.0
C42 C 1.02272 0.97021 0.54706 0.0
C43 C 1.0227 0.96597 0.64664 0.0
C44 C 0.51103 -0.00941 -0.00662 0.0
C45 C 0.46505 0.0142 0.0001 0.0
C46 C 0.55732 0.96787 0.98667 0.0
C47 C 0.60308 0.94398 0.97869 0.0
C48 C 1.02139 0.52609 0.98815 0.0
C49 C 1.01532 0.61936 0.98399 0.0
C50 C 0.03308 0.42232 -0.00351 0.0
C51 C 0.04064 0.33075 0.00151 0.0
loop_
_geom_bond_atom_site_label_1
_geom_bond_atom_site_label_2
_geom_bond_distance
_geom_bond_site_symmetry_2
_ccdc_geom_bond_type
Tb0 C10 2.825 . S
Tb0 O11 2.347 1_556 S
Tb0 O14 2.366 1_565 S
Tb0 O19 2.418 . S
Tb0 O20 2.384 . S
Tb0 O23 2.479 . S
Tb0 O24 2.471 1_556 S
Eu1 O12 2.418 . S
Eu1 O13 2.384 . S
Eu1 O16 2.479 . S
Eu1 O17 2.471 1_554 S
Eu1 O18 2.347 1_554 S
Eu1 O21 2.366 1_545 S
Eu1 C31 2.825 . S
C2 O18 1.259 1_665 S
C2 O19 1.265 . S
C3 O20 1.255 1_554 S
C3 O21 1.265 1_655 S
C4 C6 1.380 . S
C4 C7 1.374 1_566 S
C4 C10 1.507 . S
C5 C6 1.384 . S
C5 C9 1.387 . S
C5 H32 0.930 . S
C6 C4 1.380 . S
C6 C5 1.384 . S
C6 H33 0.931 . S
C7 C4 1.374 1_544 S
C7 C8 1.390 . S
C7 H34 0.930 . S
C8 C7 1.390 . S
C8 C9 1.391 1_544 S
C8 H35 0.930 . S
C9 C5 1.387 . S
C9 C8 1.391 1_566 S
C10 Tb0 2.825 . S
C10 C4 1.507 . S
C10 O23 1.238 . S
C10 O24 1.247 1_556 S
O11 Tb0 2.347 1_554 S
O11 C15 1.259 1_665 S
O12 Eu1 2.418 . S
O12 C15 1.265 . S
O13 Eu1 2.384 . S
O13 C22 1.255 . S
O14 Tb0 2.366 1_545 S
O14 C22 1.265 1_656 S
C15 O11 1.259 1_445 S
C15 O12 1.265 . S
O16 Eu1 2.479 . S
O16 C31 1.238 . S
O17 Eu1 2.471 1_556 S
O17 C31 1.247 1_556 S
O18 Eu1 2.347 1_556 S
O18 C2 1.259 1_445 S
O19 Tb0 2.418 . S
O19 C2 1.265 . S
O20 Tb0 2.384 . S
O20 C3 1.255 1_556 S
O21 Eu1 2.366 1_565 S
O21 C3 1.265 1_455 S
C22 O13 1.255 . S
C22 O14 1.265 1_454 S
O23 Tb0 2.479 . S
O23 C10 1.238 . S
O24 Tb0 2.471 1_554 S
O24 C10 1.247 1_554 S
C25 C28 1.380 . S
C25 C29 1.374 1_544 S
C25 C31 1.507 . S
C26 C27 1.387 . S
C26 C30 1.391 1_544 S
C27 C26 1.387 . S
C27 C28 1.384 . S
C27 H36 0.930 . S
C28 C25 1.380 . S
C28 C27 1.384 . S
C28 H37 0.931 . S
C29 C25 1.374 1_566 S
C29 C30 1.390 . S
C29 H38 0.930 . S
C30 C26 1.391 1_566 S
C30 C29 1.390 . S
C30 H39 0.930 . S
C31 Eu1 2.825 . S
C31 O16 1.238 . S
C31 O17 1.247 1_554 S
C31 C25 1.507 . S
H32 C5 0.930 . S
H33 C6 0.931 . S
H34 C7 0.930 . S
H35 C8 0.930 . S
H36 C27 0.930 . S
H37 C28 0.931 . S
H38 C29 0.930 . S
H39 C30 0.930 . S
C40 C41 1.170 . S
C40 C42 1.380 . S
C41 C40 1.170 . S
C42 C40 1.380 . S
C42 C43 1.170 . S
C43 C42 1.170 . S
C44 C45 1.172 . S
C44 C46 1.378 . S
C45 C44 1.172 . S
C46 C44 1.378 . S
C46 C47 1.170 1_545 S
C47 C46 1.170 1_565 S
C48 C49 1.170 . S
C48 C50 1.380 . S
C49 C48 1.170 . S
C50 C48 1.380 . S
C50 C51 1.170 . S
C51 C50 1.170 . S
C41 C15 1.480 1_655 S
C43 C2 1.462 1_545 S
C45 C26 1.492 1_556 S
C47 C9 1.488 . S
C49 C3 1.497 1_556 S
C51 C22 1.499 1_656 S
