# Generated by pormake.
# Topology npo, (4)-cn, num edge types: 1
# Building blocks:
#     Node 0, Type 0, BuildingBlock: QUQFOY_clean_sbu_3, # of connection points: 4
#     Node 1, Type 0, BuildingBlock: QUQFOY_clean_sbu_3, # of connection points: 4
#     Node 2, Type 0, BuildingBlock: QUQFOY_clean_sbu_3, # of connection points: 4
#     Node 3, Type 0, BuildingBlock: QUQFOY_clean_sbu_3, # of connection points: 4
#     Node 4, Type 0, BuildingBlock: QUQFOY_clean_sbu_3, # of connection points: 4
#     Node 5, Type 0, BuildingBlock: QUQFOY_clean_sbu_3, # of connection points: 4
#     Edge 6, Type (0, 0), None
#     Edge 7, Type (0, 0), None
#     Edge 8, Type (0, 0), None
#     Edge 9, Type (0, 0), None
#     Edge 10, Type (0, 0), None
#     Edge 11, Type (0, 0), None
#     Edge 12, Type (0, 0), None
#     Edge 13, Type (0, 0), None
#     Edge 14, Type (0, 0), None
#     Edge 15, Type (0, 0), None
#     Edge 16, Type (0, 0), None
#     Edge 17, Type (0, 0), None
# Relax obj value: 0.284
# Max RMSD: 0.252
# Mean RMSD: 0.242
data_MOF--net-npo--node1-QUQFOY_clean_sbu_3--edge1-none
_symmetry_space_group_name_H-M    P1
_symmetry_Int_Tables_number       1
_symmetry_cell_setting            triclinic
loop_
_symmetry_equiv_pos_as_xyz
'x, y, z'
_cell_length_a     22.947558
_cell_length_b     22.003829
_cell_length_c     11.854468
_cell_angle_alpha  92.477672
_cell_angle_beta   90.003305
_cell_angle_gamma 121.37872
loop_
_atom_site_label
_atom_site_type_symbol
_atom_site_fract_x
_atom_site_fract_y
_atom_site_fract_z
_atom_type_partial_charge
C0 C 0.44615 0.20246 0.12086 0.0
O1 O 0.45746 0.1878 0.0217 0.0
Cd2 Cd 0.49462 0.10899 -0.01695 0.0
O3 O 0.4471 0.16813 0.20482 0.0
Cd4 Cd 0.46592 0.06469 0.22167 0.0
C5 C 0.62519 0.19227 0.1836 0.0
O6 O 0.40137 0.00365 0.05587 0.0
O7 O 0.49231 -0.00152 0.07095 0.0
O8 O 0.38043 -0.00048 0.36845 0.0
C9 C 0.43639 -0.02146 0.01857 0.0
O10 O 0.60747 0.17859 0.07939 0.0
C11 C 0.41707 -0.02028 0.41611 0.0
O12 O 0.5823 0.15919 0.25889 0.0
O13 O 0.47511 0.00023 0.37502 0.0
C14 C 0.18986 0.45058 0.69389 0.0
O15 O 0.20649 0.46149 0.5914 0.0
Cd16 Cd 0.32027 0.50675 0.53578 0.0
O17 O 0.23323 0.45961 0.77039 0.0
Cd18 Cd 0.35526 0.49512 0.78597 0.0
C19 C 0.38698 0.65563 0.7152 0.0
O20 O 0.34941 0.42781 0.61852 0.0
O21 O 0.45161 0.5099 0.66754 0.0
O22 O 0.33224 0.41845 0.94553 0.0
C23 C 0.41246 0.45561 0.60393 0.0
O24 O 0.3726 0.63109 0.6131 0.0
C25 C 0.38537 0.46537 0.00115 0.0
O26 O 0.38288 0.61624 0.79342 0.0
O27 O 0.42333 0.52427 0.95629 0.0
C28 C 0.69659 0.4641 0.23767 0.0
O29 O 0.70225 0.45306 0.34012 0.0
Cd30 Cd 0.77074 0.40767 0.39567 0.0
O31 O 0.73097 0.45512 0.16116 0.0
Cd32 Cd 0.81747 0.4195 0.14559 0.0
C33 C 0.68882 0.25894 0.21598 0.0
O34 O 0.87875 0.48674 0.31315 0.0
O35 O 0.89904 0.4047 0.26413 0.0
O36 O 0.8711 0.49629 -0.01385 0.0
C37 C 0.91407 0.45897 0.32775 0.0
O38 O 0.69888 0.28338 0.31813 0.0
C39 C 0.87746 0.44943 0.93051 0.0
O40 O 0.7241 0.29838 0.13785 0.0
O41 O 0.85659 0.3905 -0.0247 0.0
C42 C 0.20095 0.71251 0.81006 0.0
O43 O 0.22692 0.72725 0.90921 0.0
Cd44 Cd 0.34279 0.80589 0.94781 0.0
O45 O 0.23619 0.74672 0.72601 0.0
Cd46 Cd 0.35841 0.85005 0.709 0.0
C47 C 0.39003 0.72236 0.74741 0.0
O48 O 0.35507 0.91129 0.87488 0.0
O49 O 0.45104 0.91614 0.85948 0.0
O50 O 0.33827 0.91537 0.5621 0.0
C51 C 0.41523 0.93632 0.91179 0.0
O52 O 0.38602 0.73613 0.8516 0.0
C53 C 0.39461 0.9349 0.51441 0.0
O54 O 0.3802 0.75539 0.67201 0.0
O55 O 0.43199 0.91417 0.55551 0.0
C56 C 0.63786 0.46854 0.20357 0.0
O57 O 0.63152 0.47936 0.10131 0.0
Cd58 Cd 0.52096 0.43882 0.02483 0.0
O59 O 0.5876 0.44521 0.2697 0.0
Cd60 Cd 0.46655 0.41127 0.27834 0.0
C61 C 0.44905 0.27026 0.13863 0.0
O62 O 0.4691 0.48739 0.13809 0.0
O63 O 0.37132 0.39114 0.15187 0.0
O64 O 0.49038 0.48445 0.45371 0.0
C65 C 0.40699 0.45053 0.10699 0.0
O66 O 0.46971 0.31179 0.05668 0.0
C67 C 0.43538 0.43887 0.49876 0.0
O68 O 0.44483 0.29227 0.23741 0.0
O69 O 0.39661 0.38072 0.44272 0.0
C70 C 0.12675 0.44625 0.72802 0.0
O71 O 0.10968 0.43558 0.83033 0.0
Cd72 Cd 0.03973 0.47629 0.90668 0.0
O73 O 0.09977 0.46955 0.66183 0.0
Cd74 Cd 0.01266 0.50356 0.65324 0.0
C75 C 0.13611 0.64472 0.79246 0.0
O76 O -0.06074 0.42749 0.79362 0.0
O77 O -0.0624 0.52374 0.77988 0.0
O78 O -0.03667 0.43027 0.47797 0.0
C79 C 0.91395 0.46433 0.82473 0.0
O80 O 0.11535 0.60328 0.87452 0.0
C81 C -0.04626 0.47578 0.4329 0.0
O82 O 0.10983 0.62261 0.69374 0.0
O83 O -0.02697 0.53395 0.48889 0.0
loop_
_geom_bond_atom_site_label_1
_geom_bond_atom_site_label_2
_geom_bond_distance
_geom_bond_site_symmetry_2
_ccdc_geom_bond_type
C0 O1 1.306 . S
C0 O3 1.160 . S
O1 C0 1.306 . S
O1 Cd2 2.228 1_554 S
Cd2 O1 2.228 1_556 S
Cd2 O6 2.273 1_556 S
Cd2 O10 2.277 1_556 S
O3 C0 1.160 . S
O3 Cd4 2.203 . S
Cd4 O3 2.203 . S
Cd4 O6 2.411 . S
Cd4 O7 2.333 . S
Cd4 O8 2.352 . S
Cd4 O12 2.277 . S
Cd4 O13 2.356 . S
C5 O10 1.209 . S
C5 O12 1.226 . S
O6 Cd2 2.273 1_554 S
O6 Cd4 2.411 . S
O6 C9 1.320 . S
O7 Cd4 2.333 . S
O7 C9 1.214 . S
O8 Cd4 2.352 . S
O8 C11 1.258 . S
C9 O6 1.320 . S
C9 O7 1.214 . S
O10 Cd2 2.277 1_554 S
O10 C5 1.209 . S
C11 O8 1.258 . S
C11 O13 1.282 . S
O12 Cd4 2.277 . S
O12 C5 1.226 . S
O13 Cd4 2.356 . S
O13 C11 1.282 . S
C14 O15 1.306 . S
C14 O17 1.160 . S
O15 C14 1.306 . S
O15 Cd16 2.228 . S
Cd16 O15 2.228 . S
Cd16 O20 2.273 . S
Cd16 O24 2.277 . S
O17 C14 1.160 . S
O17 Cd18 2.203 . S
Cd18 O17 2.203 . S
Cd18 O20 2.411 . S
Cd18 O21 2.333 . S
Cd18 O22 2.352 . S
Cd18 O26 2.277 . S
Cd18 O27 2.356 . S
C19 O24 1.209 . S
C19 O26 1.226 . S
O20 Cd16 2.273 . S
O20 Cd18 2.411 . S
O20 C23 1.320 . S
O21 Cd18 2.333 . S
O21 C23 1.214 . S
O22 Cd18 2.352 . S
O22 C25 1.258 . S
C23 O20 1.320 . S
C23 O21 1.214 . S
O24 Cd16 2.277 . S
O24 C19 1.209 . S
C25 O22 1.258 . S
C25 O27 1.282 . S
O26 Cd18 2.277 . S
O26 C19 1.226 . S
O27 Cd18 2.356 . S
O27 C25 1.282 . S
C28 O29 1.306 . S
C28 O31 1.160 . S
O29 C28 1.306 . S
O29 Cd30 2.228 . S
Cd30 O29 2.228 . S
Cd30 O34 2.273 . S
Cd30 O38 2.277 . S
O31 C28 1.160 . S
O31 Cd32 2.203 . S
Cd32 O31 2.203 . S
Cd32 O34 2.411 . S
Cd32 O35 2.333 . S
Cd32 O36 2.352 . S
Cd32 O40 2.277 . S
Cd32 O41 2.356 . S
C33 O38 1.209 . S
C33 O40 1.226 . S
O34 Cd30 2.273 . S
O34 Cd32 2.411 . S
O34 C37 1.320 . S
O35 Cd32 2.333 . S
O35 C37 1.214 . S
O36 Cd32 2.352 . S
O36 C39 1.258 . S
C37 O34 1.320 . S
C37 O35 1.214 . S
O38 Cd30 2.277 . S
O38 C33 1.209 . S
C39 O36 1.258 . S
C39 O41 1.282 . S
O40 Cd32 2.277 . S
O40 C33 1.226 . S
O41 Cd32 2.356 . S
O41 C39 1.282 . S
C42 O43 1.306 . S
C42 O45 1.160 . S
O43 C42 1.306 . S
O43 Cd44 2.228 1_556 S
Cd44 O43 2.228 1_554 S
Cd44 O48 2.273 1_554 S
Cd44 O52 2.277 1_554 S
O45 C42 1.160 . S
O45 Cd46 2.203 . S
Cd46 O45 2.203 . S
Cd46 O48 2.411 . S
Cd46 O49 2.333 . S
Cd46 O50 2.352 . S
Cd46 O54 2.277 . S
Cd46 O55 2.356 . S
C47 O52 1.209 . S
C47 O54 1.226 . S
O48 Cd44 2.273 1_556 S
O48 Cd46 2.411 . S
O48 C51 1.320 . S
O49 Cd46 2.333 . S
O49 C51 1.214 . S
O50 Cd46 2.352 . S
O50 C53 1.258 . S
C51 O48 1.320 . S
C51 O49 1.214 . S
O52 Cd44 2.277 1_556 S
O52 C47 1.209 . S
C53 O50 1.258 . S
C53 O55 1.282 . S
O54 Cd46 2.277 . S
O54 C47 1.226 . S
O55 Cd46 2.356 . S
O55 C53 1.282 . S
C56 O57 1.306 . S
C56 O59 1.160 . S
O57 C56 1.306 . S
O57 Cd58 2.228 . S
Cd58 O57 2.228 . S
Cd58 O62 2.273 . S
Cd58 O66 2.277 . S
O59 C56 1.160 . S
O59 Cd60 2.203 . S
Cd60 O59 2.203 . S
Cd60 O62 2.411 . S
Cd60 O63 2.333 . S
Cd60 O64 2.352 . S
Cd60 O68 2.277 . S
Cd60 O69 2.356 . S
C61 O66 1.209 . S
C61 O68 1.226 . S
O62 Cd58 2.273 . S
O62 Cd60 2.411 . S
O62 C65 1.320 . S
O63 Cd60 2.333 . S
O63 C65 1.214 . S
O64 Cd60 2.352 . S
O64 C67 1.258 . S
C65 O62 1.320 . S
C65 O63 1.214 . S
O66 Cd58 2.277 . S
O66 C61 1.209 . S
C67 O64 1.258 . S
C67 O69 1.282 . S
O68 Cd60 2.277 . S
O68 C61 1.226 . S
O69 Cd60 2.356 . S
O69 C67 1.282 . S
C70 O71 1.306 . S
C70 O73 1.160 . S
O71 C70 1.306 . S
O71 Cd72 2.228 . S
Cd72 O71 2.228 . S
Cd72 O76 2.273 . S
Cd72 O80 2.277 . S
O73 C70 1.160 . S
O73 Cd74 2.203 . S
Cd74 O73 2.203 . S
Cd74 O76 2.411 . S
Cd74 O77 2.333 . S
Cd74 O78 2.352 . S
Cd74 O82 2.277 . S
Cd74 O83 2.356 . S
C75 O80 1.209 . S
C75 O82 1.226 . S
O76 Cd72 2.273 . S
O76 Cd74 2.411 . S
O76 C79 1.320 . S
O77 Cd74 2.333 . S
O77 C79 1.214 . S
O78 Cd74 2.352 . S
O78 C81 1.258 . S
C79 O76 1.320 . S
C79 O77 1.214 . S
O80 Cd72 2.277 . S
O80 C75 1.209 . S
C81 O78 1.258 . S
C81 O83 1.282 . S
O82 Cd74 2.277 . S
O82 C75 1.226 . S
O83 Cd74 2.356 . S
O83 C81 1.282 . S
C0 C61 1.449 . S
C14 C70 1.360 . S
C5 C33 1.603 . S
C47 C19 1.603 . S
C56 C28 1.360 . S
C42 C75 1.449 . S
C51 C9 1.426 1_566 S
C67 C23 1.494 . S
C79 C39 1.462 1_456 S
C11 C53 1.470 1_545 S
C25 C65 1.462 1_556 S
C81 C37 1.494 1_455 S
