# Generated by pormake.
# Topology hex, (8)-cn, num edge types: 1
# Building blocks:
#     Node 0, Type 0, BuildingBlock: EBIMEJ_clean_sbu_0, # of connection points: 8
#     Edge 1, Type (0, 0), BuildingBlock: TEMPAE_clean_linker_10, # of connection points: 2
#     Edge 2, Type (0, 0), BuildingBlock: TEMPAE_clean_linker_10, # of connection points: 2
#     Edge 3, Type (0, 0), BuildingBlock: TEMPAE_clean_linker_10, # of connection points: 2
#     Edge 4, Type (0, 0), BuildingBlock: TEMPAE_clean_linker_10, # of connection points: 2
# Relax obj value: 0.012
# Max RMSD: 0.051
# Mean RMSD: 0.051
data_MOF--net-hex--node1-EBIMEJ_clean_sbu_0--edge1-TEMPAE_clean_linker_10
_symmetry_space_group_name_H-M    P1
_symmetry_Int_Tables_number       1
_symmetry_cell_setting            triclinic
loop_
_symmetry_equiv_pos_as_xyz
'x, y, z'
_cell_length_a     17.401104
_cell_length_b     20.727652
_cell_length_c     16.488983
_cell_angle_alpha  73.732553
_cell_angle_beta   115.53832
_cell_angle_gamma 125.35019
loop_
_atom_site_label
_atom_site_type_symbol
_atom_site_fract_x
_atom_site_fract_y
_atom_site_fract_z
_atom_type_partial_charge
Co0 Co 0.9943 0.88524 0.97124 0.0
Co1 Co 0.88592 0.96685 0.98893 0.0
Co2 Co 0.09184 0.07052 0.97641 0.0
H3 H 0.03061 0.97721 0.98884 0.0
O4 O 0.00608 0.96222 0.03078 0.0
H5 H 0.95064 0.06072 0.98337 0.0
O6 O 0.97365 0.07778 0.93988 0.0
Co7 Co 0.9981 0.15079 0.01659 0.0
O8 O 0.85781 0.09218 0.02225 0.0
O9 O 0.76998 0.97822 0.95341 0.0
O10 O 0.14278 0.23265 0.02153 0.0
O11 O 0.17477 0.18351 0.94285 0.0
O12 O 0.95759 0.79582 0.9041 0.0
O13 O 0.02924 0.80155 0.04291 0.0
O14 O 0.04617 0.11056 0.14178 0.0
O15 O 0.92072 0.9853 0.11715 0.0
C16 C 0.21392 0.99792 0.04889 0.0
C17 C 0.78744 0.79532 0.98429 0.0
C18 C 0.99165 0.27152 0.9979 0.0
C19 C 0.01604 0.98649 0.80708 0.0
C20 C 0.77526 0.02866 0.9889 0.0
C21 C 0.19555 0.24043 0.98033 0.0
C22 C 0.99397 0.76474 0.97441 0.0
C23 C 0.9912 0.04172 0.17043 0.0
O24 O 0.13761 0.93095 0.05651 0.0
O25 O 0.20778 0.05856 0.01197 0.0
O26 O 0.80093 0.85183 0.01673 0.0
O27 O 0.84626 0.80566 0.94888 0.0
O28 O 0.92817 0.20363 0.01851 0.0
O29 O 0.05811 0.27078 0.987 0.0
O30 O 0.99104 0.9184 0.84511 0.0
O31 O 0.0494 0.0464 0.84815 0.0
C32 C 0.0706 0.41831 0.97647 0.0
C33 C 0.99086 0.34388 0.9911 0.0
C34 C 0.07254 0.48781 0.97256 0.0
C35 C 0.99275 0.48268 0.98355 0.0
C36 C 0.91158 0.40754 0.99756 0.0
C37 C 0.9117 0.33902 0.0013 0.0
C38 C 0.16077 0.56674 0.95807 0.0
C39 C 0.82499 0.39958 0.00934 0.0
C40 C 0.03915 0.66385 0.05793 0.0
C41 C 0.99458 0.69325 0.97655 0.0
C42 C 0.0395 0.59558 0.06115 0.0
C43 C 0.99437 0.55591 0.98099 0.0
C44 C 0.95011 0.58589 0.89849 0.0
C45 C 0.95068 0.6542 0.89728 0.0
C46 C 0.0877 0.56569 0.1504 0.0
C47 C 0.90216 0.54579 0.81148 0.0
H48 H 0.13223 0.42238 0.96898 0.0
H49 H 0.84992 0.28158 0.01263 0.0
H50 H 0.13452 0.60199 0.90258 0.0
H51 H 0.20456 0.60105 0.01975 0.0
H52 H 0.21152 0.56005 0.94199 0.0
H53 H 0.76689 0.33683 0.01823 0.0
H54 H 0.85287 0.43192 0.0689 0.0
H55 H 0.78939 0.42674 0.94997 0.0
H56 H 0.07369 0.69417 0.11932 0.0
H57 H 0.91652 0.67697 0.83416 0.0
H58 H 0.1485 0.56362 0.14693 0.0
H59 H 0.03152 0.50443 0.16595 0.0
H60 H 0.11976 0.60345 0.20648 0.0
H61 H 0.95806 0.5433 0.79883 0.0
H62 H 0.87163 0.57688 0.75297 0.0
H63 H 0.84028 0.48389 0.81644 0.0
C64 C 0.59261 0.97549 0.94473 0.0
C65 C 0.68902 1.00769 0.00897 0.0
C66 C 0.51411 0.96492 0.96283 0.0
C67 C 0.53339 0.98589 0.04741 0.0
C68 C 0.62864 1.01147 0.115 0.0
C69 C 0.70572 0.02305 0.09447 0.0
C70 C 0.4126 0.93631 0.88966 0.0
C71 C 0.6512 0.03142 0.20711 0.0
C72 C 0.38447 0.06716 0.04031 0.0
C73 C 0.30646 1.00035 0.06742 0.0
C74 C 0.4607 0.06365 0.03637 0.0
C75 C 0.45894 0.99176 0.06074 0.0
C76 C 0.38484 0.92591 0.09463 0.0
C77 C 0.30949 0.93107 0.09786 0.0
C78 C 0.53993 0.13558 0.00125 0.0
C79 C 0.3815 0.84865 0.12253 0.0
H80 H 0.57995 0.96262 0.87919 0.0
H81 H 0.78013 0.04585 0.14506 0.0
H82 H 0.35208 0.88959 0.91678 0.0
H83 H 0.40024 0.98626 0.86327 0.0
H84 H 0.40607 0.91252 0.8329 0.0
H85 H 0.72236 0.03628 0.25621 0.0
H86 H 0.65798 0.08887 0.20238 0.0
H87 H 0.58947 0.98596 0.23336 0.0
H88 H 0.38306 0.12097 0.01715 0.0
H89 H 0.24996 0.87921 0.11972 0.0
H90 H 0.53358 0.12206 0.9373 0.0
H91 H 0.61593 0.15137 0.04987 0.0
H92 H 0.53307 0.18786 0.98877 0.0
H93 H 0.3574 0.8193 0.06186 0.0
H94 H 0.3282 0.80742 0.15929 0.0
H95 H 0.45699 0.85909 0.16579 0.0
C96 C 0.29105 0.36353 0.89866 0.0
C97 C 0.28514 0.31878 0.97925 0.0
C98 C 0.37146 0.44217 0.89903 0.0
C99 C 0.44815 0.4754 0.98178 0.0
C100 C 0.44316 0.42927 0.06303 0.0
C101 C 0.36062 0.35178 0.06084 0.0
C102 C 0.37352 0.49014 0.81133 0.0
C103 C 0.52464 0.46185 0.15225 0.0
C104 C 0.70171 0.64993 0.97424 0.0
C105 C 0.7007 0.71391 0.98627 0.0
C106 C 0.62027 0.5722 0.97305 0.0
C107 C 0.53498 0.5578 0.98336 0.0
C108 C 0.53341 0.62181 0.99625 0.0
C109 C 0.61675 0.69928 0.99809 0.0
C110 C 0.62575 0.5055 0.96083 0.0
C111 C 0.44314 0.60849 0.00676 0.0
H112 H 0.23114 0.33792 0.83594 0.0
H113 H 0.35483 0.31673 0.12303 0.0
H114 H 0.37459 0.54343 0.81455 0.0
H115 H 0.44294 0.51104 0.79975 0.0
H116 H 0.30774 0.45575 0.753 0.0
H117 H 0.5113 0.41704 0.20866 0.0
H118 H 0.59847 0.48307 0.14948 0.0
H119 H 0.52936 0.51338 0.1668 0.0
H120 H 0.76675 0.66045 0.96612 0.0
H121 H 0.61542 0.74842 0.00713 0.0
H122 H 0.56446 0.47391 0.89915 0.0
H123 H 0.61516 0.46184 0.01842 0.0
H124 H 0.69851 0.52675 0.95541 0.0
H125 H 0.37675 0.58228 0.94524 0.0
H126 H 0.45471 0.6642 0.01852 0.0
H127 H 0.42554 0.56575 0.06378 0.0
C128 C 0.02546 0.94754 0.6837 0.0
C129 C 0.01191 0.99642 0.71322 0.0
C130 C 0.02373 0.95558 0.59585 0.0
C131 C 0.00585 1.0128 0.53514 0.0
C132 C 0.99128 0.06204 0.56412 0.0
C133 C 0.99591 0.05401 0.65346 0.0
C134 C 0.04166 0.90305 0.56822 0.0
C135 C 0.96969 0.12244 0.50046 0.0
C136 C 0.08676 0.07919 0.33113 0.0
C137 C 0.99711 0.03094 0.26493 0.0
C138 C 0.09073 0.07391 0.41947 0.0
C139 C 1.00232 0.02054 0.44135 0.0
C140 C 0.91135 0.97222 0.37446 0.0
C141 C 0.91017 0.97726 0.28736 0.0
C142 C 0.18952 0.1253 0.48941 0.0
C143 C 0.81503 0.91579 0.39459 0.0
H144 H 0.03933 0.90364 0.73006 0.0
H145 H 0.98517 0.09167 0.67606 0.0
H146 H 0.97508 0.86647 0.51188 0.0
H147 H 0.10618 0.93989 0.54379 0.0
H148 H 0.05721 0.86297 0.62439 0.0
H149 H 0.95941 0.1557 0.53324 0.0
H150 H 0.03202 0.16522 0.47406 0.0
H151 H 0.90074 0.09257 0.44189 0.0
H152 H 0.1539 0.12106 0.31379 0.0
H153 H 0.84013 0.94097 0.23592 0.0
H154 H 0.20971 0.08764 0.54608 0.0
H155 H 0.18279 0.16395 0.51737 0.0
H156 H 0.25151 0.16321 0.46164 0.0
H157 H 0.82253 0.87012 0.44604 0.0
H158 H 0.74967 0.88562 0.33379 0.0
H159 H 0.79952 0.94817 0.42275 0.0
loop_
_geom_bond_atom_site_label_1
_geom_bond_atom_site_label_2
_geom_bond_distance
_geom_bond_site_symmetry_2
_ccdc_geom_bond_type
Co0 H3 2.400 1_556 S
Co0 O4 2.009 1_556 S
Co0 O12 2.115 1_455 S
Co0 O13 2.315 1_556 S
Co0 O24 2.053 . S
Co0 O27 2.094 1_455 S
Co0 O30 2.122 1_455 S
Co1 O4 2.126 1_655 S
Co1 H5 2.388 1_564 S
Co1 O6 2.053 1_564 S
Co1 O9 2.047 1_554 S
Co1 O15 2.113 . S
Co1 O26 2.063 . S
Co2 H3 2.388 1_546 S
Co2 O4 2.053 1_546 S
Co2 O6 2.126 1_455 S
Co2 O11 2.063 . S
Co2 O25 2.047 1_556 S
Co2 O31 2.113 . S
H3 Co0 2.400 1_554 S
H3 Co2 2.388 1_564 S
H3 O4 0.760 . S
O4 Co0 2.009 1_554 S
O4 Co1 2.126 1_455 S
O4 Co2 2.053 1_564 S
O4 H3 0.760 . S
H5 Co1 2.388 1_546 S
H5 O6 0.760 . S
H5 Co7 2.400 1_556 S
O6 Co1 2.053 1_546 S
O6 Co2 2.126 1_655 S
O6 H5 0.760 . S
O6 Co7 2.009 1_556 S
Co7 H5 2.400 1_554 S
Co7 O6 2.009 1_554 S
Co7 O8 2.053 . S
Co7 O10 2.094 1_655 S
Co7 O14 2.122 1_655 S
Co7 O28 2.115 1_655 S
Co7 O29 2.315 1_554 S
O8 Co7 2.053 . S
O8 C20 1.259 . S
O9 Co1 2.047 1_556 S
O9 C20 1.257 1_566 S
O10 Co7 2.094 1_455 S
O10 C21 1.253 . S
O11 Co2 2.063 . S
O11 C21 1.268 1_556 S
O12 Co0 2.115 1_655 S
O12 C22 1.281 1_556 S
O13 Co0 2.315 1_554 S
O13 C22 1.252 1_455 S
O14 Co7 2.122 1_455 S
O14 C23 1.272 1_455 S
O15 Co1 2.113 . S
O15 C23 1.245 1_565 S
C16 O24 1.259 . S
C16 O25 1.257 1_566 S
C17 O26 1.268 1_556 S
C17 O27 1.253 . S
C18 O28 1.281 1_556 S
C18 O29 1.252 1_455 S
C19 O30 1.272 1_455 S
C19 O31 1.245 1_565 S
C20 O8 1.259 . S
C20 O9 1.257 1_544 S
C21 O10 1.253 . S
C21 O11 1.268 1_554 S
C22 O12 1.281 1_554 S
C22 O13 1.252 1_655 S
C23 O14 1.272 1_655 S
C23 O15 1.245 1_545 S
O24 Co0 2.053 . S
O24 C16 1.259 . S
O25 Co2 2.047 1_554 S
O25 C16 1.257 1_544 S
O26 Co1 2.063 . S
O26 C17 1.268 1_554 S
O27 Co0 2.094 1_655 S
O27 C17 1.253 . S
O28 Co7 2.115 1_455 S
O28 C18 1.281 1_554 S
O29 Co7 2.315 1_556 S
O29 C18 1.252 1_655 S
O30 Co0 2.122 1_655 S
O30 C19 1.272 1_655 S
O31 Co2 2.113 . S
O31 C19 1.245 1_545 S
C32 C33 1.391 . S
C32 C34 1.394 . S
C32 H48 0.931 . S
C33 C32 1.391 . S
C33 C37 1.376 1_455 S
C34 C32 1.394 . S
C34 C35 1.369 1_455 S
C34 C38 1.531 . S
C35 C34 1.369 1_655 S
C35 C36 1.410 . S
C35 C43 1.503 . S
C36 C35 1.410 . S
C36 C37 1.392 . S
C36 C39 1.511 . S
C37 C33 1.376 1_655 S
C37 C36 1.392 . S
C37 H49 0.929 . S
C38 C34 1.531 . S
C38 H50 0.960 . S
C38 H51 0.962 1_556 S
C38 H52 0.960 . S
C39 C36 1.511 . S
C39 H53 0.961 1_556 S
C39 H54 0.961 1_556 S
C39 H55 0.961 . S
C40 C41 1.370 1_455 S
C40 C42 1.363 . S
C40 H56 0.931 . S
C41 C40 1.370 1_655 S
C41 C45 1.408 1_554 S
C42 C40 1.363 . S
C42 C43 1.370 1_454 S
C42 C46 1.524 . S
C43 C35 1.503 . S
C43 C42 1.370 1_656 S
C43 C44 1.403 . S
C44 C43 1.403 . S
C44 C45 1.404 . S
C44 C47 1.539 . S
C45 C41 1.408 1_556 S
C45 C44 1.404 . S
C45 H57 0.930 . S
C46 C42 1.524 . S
C46 H58 0.956 . S
C46 H59 0.961 . S
C46 H60 0.961 . S
C47 C44 1.539 . S
C47 H61 0.958 . S
C47 H62 0.961 . S
C47 H63 0.960 . S
H48 C32 0.931 . S
H49 C37 0.929 . S
H50 C38 0.960 . S
H51 C38 0.962 1_554 S
H52 C38 0.960 . S
H53 C39 0.961 1_554 S
H54 C39 0.961 1_554 S
H55 C39 0.961 . S
H56 C40 0.931 . S
H57 C45 0.930 . S
H58 C46 0.956 . S
H59 C46 0.961 . S
H60 C46 0.961 . S
H61 C47 0.958 . S
H62 C47 0.961 . S
H63 C47 0.960 . S
C64 C65 1.391 1_556 S
C64 C66 1.394 . S
C64 H80 0.931 . S
C65 C64 1.391 1_554 S
C65 C69 1.376 1_565 S
C66 C64 1.394 . S
C66 C67 1.369 1_556 S
C66 C70 1.531 . S
C67 C66 1.369 1_554 S
C67 C68 1.410 1_565 S
C67 C75 1.503 . S
C68 C67 1.410 1_545 S
C68 C69 1.392 . S
C68 C71 1.511 . S
C69 C65 1.376 1_545 S
C69 C68 1.392 . S
C69 H81 0.929 . S
C70 C66 1.531 . S
C70 H82 0.960 . S
C70 H83 0.962 . S
C70 H84 0.960 . S
C71 C68 1.511 . S
C71 H85 0.961 . S
C71 H86 0.961 . S
C71 H87 0.961 1_545 S
C72 C73 1.370 1_545 S
C72 C74 1.363 . S
C72 H88 0.931 . S
C73 C72 1.370 1_565 S
C73 C77 1.408 1_556 S
C74 C72 1.363 . S
C74 C75 1.370 1_546 S
C74 C78 1.524 . S
C75 C67 1.503 . S
C75 C74 1.370 1_564 S
C75 C76 1.403 . S
C76 C75 1.403 . S
C76 C77 1.404 . S
C76 C79 1.539 . S
C77 C73 1.408 1_554 S
C77 C76 1.404 . S
C77 H89 0.930 . S
C78 C74 1.524 . S
C78 H90 0.956 . S
C78 H91 0.961 . S
C78 H92 0.961 . S
C79 C76 1.539 . S
C79 H93 0.958 . S
C79 H94 0.961 . S
C79 H95 0.960 . S
H80 C64 0.931 . S
H81 C69 0.929 . S
H82 C70 0.960 . S
H83 C70 0.962 . S
H84 C70 0.960 . S
H85 C71 0.961 . S
H86 C71 0.961 . S
H87 C71 0.961 1_565 S
H88 C72 0.931 . S
H89 C77 0.930 . S
H90 C78 0.956 . S
H91 C78 0.961 . S
H92 C78 0.961 . S
H93 C79 0.958 . S
H94 C79 0.961 . S
H95 C79 0.960 . S
C96 C97 1.391 1_556 S
C96 C98 1.394 . S
C96 H112 0.931 . S
C97 C96 1.391 1_554 S
C97 C101 1.376 . S
C98 C96 1.394 . S
C98 C99 1.369 1_556 S
C98 C102 1.531 . S
C99 C98 1.369 1_554 S
C99 C100 1.410 . S
C99 C107 1.503 . S
C100 C99 1.410 . S
C100 C101 1.392 . S
C100 C103 1.511 . S
C101 C97 1.376 . S
C101 C100 1.392 . S
C101 H113 0.929 . S
C102 C98 1.531 . S
C102 H114 0.960 . S
C102 H115 0.962 . S
C102 H116 0.960 . S
C103 C100 1.511 . S
C103 H117 0.961 . S
C103 H118 0.961 . S
C103 H119 0.961 . S
C104 C105 1.370 . S
C104 C106 1.363 . S
C104 H120 0.931 . S
C105 C104 1.370 . S
C105 C109 1.408 1_556 S
C106 C104 1.363 . S
C106 C107 1.370 1_556 S
C106 C110 1.524 . S
C107 C99 1.503 . S
C107 C106 1.370 1_554 S
C107 C108 1.403 . S
C108 C107 1.403 . S
C108 C109 1.404 . S
C108 C111 1.539 . S
C109 C105 1.408 1_554 S
C109 C108 1.404 . S
C109 H121 0.930 . S
C110 C106 1.524 . S
C110 H122 0.956 . S
C110 H123 0.961 1_556 S
C110 H124 0.961 . S
C111 C108 1.539 . S
C111 H125 0.958 1_554 S
C111 H126 0.961 . S
C111 H127 0.960 . S
H112 C96 0.931 . S
H113 C101 0.929 . S
H114 C102 0.960 . S
H115 C102 0.962 . S
H116 C102 0.960 . S
H117 C103 0.961 . S
H118 C103 0.961 . S
H119 C103 0.961 . S
H120 C104 0.931 . S
H121 C109 0.930 . S
H122 C110 0.956 . S
H123 C110 0.961 1_554 S
H124 C110 0.961 . S
H125 C111 0.958 1_556 S
H126 C111 0.961 . S
H127 C111 0.960 . S
C128 C129 1.391 1_455 S
C128 C130 1.394 . S
C128 H144 0.931 . S
C129 C128 1.391 1_655 S
C129 C133 1.376 1_565 S
C130 C128 1.394 . S
C130 C131 1.369 1_455 S
C130 C134 1.531 . S
C131 C130 1.369 1_655 S
C131 C132 1.410 1_565 S
C131 C139 1.503 . S
C132 C131 1.410 1_545 S
C132 C133 1.392 . S
C132 C135 1.511 . S
C133 C129 1.376 1_545 S
C133 C132 1.392 . S
C133 H145 0.929 . S
C134 C130 1.531 . S
C134 H146 0.960 1_455 S
C134 H147 0.962 . S
C134 H148 0.960 . S
C135 C132 1.511 . S
C135 H149 0.961 . S
C135 H150 0.961 . S
C135 H151 0.961 . S
C136 C137 1.364 1_445 S
C136 C138 1.363 . S
C136 H152 0.931 . S
C137 C136 1.364 1_665 S
C137 C141 1.411 . S
C138 C136 1.363 . S
C138 C139 1.370 1_445 S
C138 C142 1.524 . S
C139 C131 1.503 . S
C139 C138 1.370 1_665 S
C139 C140 1.403 . S
C140 C139 1.403 . S
C140 C141 1.404 . S
C140 C143 1.539 . S
C141 C137 1.411 . S
C141 C140 1.404 . S
C141 H153 0.930 . S
C142 C138 1.524 . S
C142 H154 0.956 . S
C142 H155 0.961 . S
C142 H156 0.961 . S
C143 C140 1.539 . S
C143 H157 0.958 . S
C143 H158 0.961 . S
C143 H159 0.960 . S
H144 C128 0.931 . S
H145 C133 0.929 . S
H146 C134 0.960 1_655 S
H147 C134 0.962 . S
H148 C134 0.960 . S
H149 C135 0.961 . S
H150 C135 0.961 . S
H151 C135 0.961 . S
H152 C136 0.931 . S
H153 C141 0.930 . S
H154 C142 0.956 . S
H155 C142 0.961 . S
H156 C142 0.961 . S
H157 C143 0.958 . S
H158 C143 0.961 . S
H159 C143 0.960 . S
C33 C18 1.728 . S
C41 C22 1.723 . S
C65 C20 1.025 1_565 S
C73 C16 1.003 . S
C97 C21 1.675 . S
C105 C17 1.679 . S
C129 C19 1.458 1_655 S
C137 C23 1.463 1_565 S
