# Generated by pormake.
# Topology hex, (8)-cn, num edge types: 1
# Building blocks:
#     Node 0, Type 0, BuildingBlock: NUHRAL_clean_sbu_3, # of connection points: 8
#     Edge 1, Type (0, 0), BuildingBlock: ZUJKAS_clean_linker_0, # of connection points: 2
#     Edge 2, Type (0, 0), BuildingBlock: ZUJKAS_clean_linker_0, # of connection points: 2
#     Edge 3, Type (0, 0), BuildingBlock: ZUJKAS_clean_linker_0, # of connection points: 2
#     Edge 4, Type (0, 0), BuildingBlock: ZUJKAS_clean_linker_0, # of connection points: 2
# Relax obj value: 0.037
# Max RMSD: 0.102
# Mean RMSD: 0.102
data_MOF--net-hex--node1-NUHRAL_clean_sbu_3--edge1-ZUJKAS_clean_linker_0
_symmetry_space_group_name_H-M    P1
_symmetry_Int_Tables_number       1
_symmetry_cell_setting            triclinic
loop_
_symmetry_equiv_pos_as_xyz
'x, y, z'
_cell_length_a     27.585853
_cell_length_b     21.461908
_cell_length_c     19.060988
_cell_angle_alpha  113.672
_cell_angle_beta   99.576831
_cell_angle_gamma 110.9188
loop_
_atom_site_label
_atom_site_type_symbol
_atom_site_fract_x
_atom_site_fract_y
_atom_site_fract_z
_atom_type_partial_charge
C0 C 0.80977 0.89739 0.01084 0.0
C1 C 0.79259 0.83253 0.0215 0.0
C2 C 0.75323 0.81903 0.05915 0.0
C3 C 0.73185 0.87088 0.08642 0.0
C4 C 0.74639 0.93322 0.07263 0.0
C5 C 0.78617 0.947 0.03603 0.0
O6 O 0.99692 0.9484 0.05388 0.0
Tb7 Tb 0.93139 0.90487 0.93997 0.0
O8 O 0.92351 0.79024 0.89797 0.0
O9 O 0.0347 0.07898 0.11614 0.0
Eu10 Eu 0.07451 0.08504 0.02332 0.0
O11 O 0.84519 0.84802 0.90699 0.0
C12 C 0.18137 0.1368 0.08311 0.0
O13 O 0.89565 0.96975 0.00373 0.0
O14 O 0.04086 0.98313 0.89632 0.0
O15 O 0.94728 0.94132 0.85158 0.0
C16 C 0.84586 0.90941 0.96349 0.0
C17 C 1.0057 0.15621 0.96451 0.0
O18 O 0.96495 0.10272 0.96706 0.0
C19 C 0.01218 0.01496 0.11852 0.0
C20 C 0.99519 0.9654 0.84175 0.0
O21 O 0.05596 0.16286 0.98463 0.0
C22 C 0.22904 0.14538 0.05459 0.0
C23 C 0.29729 0.10239 0.0212 0.0
C24 C 0.25172 0.09457 0.04692 0.0
C25 C 0.25464 0.20676 0.04019 0.0
C26 C 0.30022 0.21446 0.0144 0.0
C27 C 0.32018 0.16119 0.00339 0.0
C28 C 0.96776 0.77981 0.89933 0.0
O29 O 0.01569 0.83852 0.92022 0.0
O30 O 0.15843 0.18086 0.08248 0.0
O31 O 0.14474 0.06625 0.06001 0.0
H32 H 0.8078 0.7912 0.9977 0.0
H33 H 0.69875 0.85753 0.11025 0.0
H34 H 0.79658 0.99407 0.02322 0.0
H35 H 0.23465 0.04982 0.06216 0.0
H36 H 0.23998 0.24908 0.0501 0.0
H37 H 0.35701 0.16949 0.9872 0.0
H38 H 0.90797 0.16214 0.92375 0.0
H39 H 0.8936 0.25655 0.89412 0.0
H40 H 0.06689 0.36843 0.92733 0.0
H41 H 0.08148 0.27399 0.9558 0.0
H42 H 0.9451 0.41356 -0.00113 0.0
H43 H 0.9904 0.34945 0.71266 0.0
H44 H 0.97687 0.28398 0.75239 0.0
H45 H 0.04462 0.36555 0.79468 0.0
C46 C 0.9429 0.20634 0.92387 0.0
C47 C 0.99591 0.21058 0.9423 0.0
C48 C 0.93459 0.26022 0.9069 0.0
C49 C 0.97897 0.31891 0.90735 0.0
C50 C 0.03174 0.32267 0.92477 0.0
H51 H 0.05307 0.74324 0.90857 0.0
H52 H 0.05092 0.62668 0.90363 0.0
C53 C 0.04009 0.26889 0.9417 0.0
C54 C 0.97122 0.37946 0.89543 0.0
H55 H 0.98935 0.46967 0.78222 0.0
C56 C 0.95403 0.4252 0.95082 0.0
C57 C 0.98308 0.3947 0.83286 0.0
C58 C 0.99925 0.34537 0.76925 0.0
C59 C 0.9504 0.4876 0.94736 0.0
C60 C 0.96334 0.50382 0.88581 0.0
C61 C 0.97946 0.45714 0.82935 0.0
C62 C 0.96296 0.57131 0.88176 0.0
C63 C 0.93493 0.53748 0.01171 0.0
C64 C 0.91387 0.57797 0.86875 0.0
C65 C 0.91495 0.64472 0.87176 0.0
C66 C 0.96514 0.70584 0.88734 0.0
C67 C 0.01373 0.69746 0.89674 0.0
C68 C 0.0126 0.6308 0.89386 0.0
H69 H 0.93864 0.52787 0.06503 0.0
H70 H 0.96172 0.59947 0.03435 0.0
H71 H 0.89109 0.52352 0.98423 0.0
H72 H 0.87487 0.53206 0.85767 0.0
H73 H 0.87671 0.64906 0.86375 0.0
H74 H 0.71686 0.99346 0.20448 0.0
H75 H 0.63781 0.02095 0.20227 0.0
H76 H 0.61511 0.98413 0.95697 0.0
H77 H 0.69357 0.95581 0.95835 0.0
H78 H 0.60728 0.12604 0.16193 0.0
H79 H 0.46936 0.81364 0.94155 0.0
H80 H 0.54087 0.85144 0.00383 0.0
H81 H 0.52517 0.8609 0.91449 0.0
C82 C 0.696 0.99356 0.1511 0.0
C83 C 0.71114 0.97219 0.08146 0.0
C84 C 0.65082 0.00893 0.14981 0.0
C85 C 0.6201 0.00279 0.07878 0.0
C86 C 0.63801 0.98803 0.01188 0.0
H87 H 0.32584 0.02214 0.89878 0.0
H88 H 0.40089 0.98814 0.91664 0.0
C89 C 0.68329 0.97292 0.01321 0.0
C90 C 0.56682 0.00548 0.07197 0.0
H91 H 0.42639 0.89423 0.96879 0.0
C92 C 0.56764 0.07542 0.1203 0.0
C93 C 0.51534 0.93895 0.01783 0.0
C94 C 0.51223 0.86169 0.96681 0.0
C95 C 0.51822 0.08138 0.11357 0.0
C96 C 0.46667 0.01501 0.0585 0.0
C97 C 0.46589 0.94472 0.01137 0.0
C98 C 0.41392 0.0195 0.04377 0.0
C99 C 0.52181 0.15933 0.16286 0.0
C100 C 0.39396 0.04334 0.10767 0.0
C101 C 0.35086 0.06251 0.09742 0.0
C102 C 0.3273 0.05781 0.02308 0.0
C103 C 0.34346 0.02626 0.95667 0.0
C104 C 0.38645 0.00719 0.96695 0.0
H105 H 0.56506 0.20678 0.1893 0.0
H106 H 0.49463 0.17001 0.12416 0.0
H107 H 0.50747 0.16108 0.21435 0.0
H108 H 0.41397 0.05163 0.16693 0.0
H109 H 0.33939 0.08721 0.14967 0.0
H110 H 0.32301 0.21715 0.88207 0.0
H111 H 0.40214 0.32046 0.88672 0.0
H112 H 0.43549 0.46684 0.14218 0.0
H113 H 0.35612 0.36356 0.13759 0.0
H114 H 0.43997 0.48994 0.94736 0.0
H115 H 0.57357 0.42288 0.12745 0.0
H116 H 0.50057 0.35741 0.06723 0.0
H117 H 0.52133 0.4414 0.16396 0.0
C118 C 0.34584 0.27257 0.93814 0.0
C119 C 0.33348 0.2828 0.00938 0.0
C120 C 0.39122 0.33119 0.94094 0.0
C121 C 0.42511 0.40047 0.01517 0.0
C122 C 0.40999 0.41331 0.08455 0.0
H123 H 0.73814 0.79575 0.18588 0.0
H124 H 0.66065 0.68466 0.1719 0.0
C125 C 0.36429 0.35483 0.08162 0.0
C126 C 0.47905 0.45563 0.02186 0.0
H127 H 0.61954 0.52495 0.10435 0.0
C128 C 0.47927 0.4976 0.98141 0.0
C129 C 0.53009 0.46484 0.06601 0.0
C130 C 0.53181 0.41899 0.1083 0.0
C131 C 0.52947 0.55037 0.98578 0.0
C132 C 0.58065 0.5596 0.0299 0.0
C133 C 0.5803 0.51715 0.06992 0.0
C134 C 0.63485 0.61731 0.03982 0.0
C135 C 0.52729 0.59764 0.94542 0.0
C136 C 0.64867 0.61364 0.97108 0.0
C137 C 0.69318 0.67698 0.97907 0.0
C138 C 0.72439 0.74453 0.05596 0.0
C139 C 0.71469 0.74422 0.12598 0.0
C140 C 0.67017 0.68106 0.11793 0.0
H141 H 0.48605 0.59607 0.93023 0.0
H142 H 0.55978 0.65865 0.98586 0.0
H143 H 0.53506 0.57426 0.88738 0.0
H144 H 0.62265 0.56409 0.91048 0.0
H145 H 0.69947 0.67591 0.92406 0.0
H146 H 0.07438 0.97251 0.77164 0.0
H147 H 0.07698 0.9931 0.65463 0.0
H148 H 0.92673 0.01523 0.64231 0.0
H149 H 0.92269 0.99145 0.75664 0.0
H150 H 0.91839 0.92414 0.49628 0.0
H151 H 0.12232 0.1848 0.64009 0.0
H152 H 0.12896 0.10813 0.64943 0.0
H153 H 0.08906 0.14882 0.69938 0.0
C154 C 0.04209 0.98206 0.74403 0.0
C155 C 0.99809 0.97966 0.77264 0.0
C156 C 0.04389 0.99463 0.67775 0.0
C157 C 1.00256 0.00707 0.64047 0.0
C158 C 0.9591 0.00584 0.67003 0.0
H159 H 0.03085 0.13871 0.26225 0.0
H160 H 0.02523 0.14099 0.39027 0.0
C161 C 0.95673 0.99193 0.73518 0.0
C162 C 1.00243 0.01626 0.5673 0.0
H163 H 0.08387 0.11455 0.49219 0.0
C164 C 0.95441 0.96644 0.49582 0.0
C165 C 0.04887 0.07253 0.56695 0.0
C166 C 0.09993 0.13213 0.6434 0.0
C167 C 0.95229 0.96929 0.42325 0.0
C168 C 1.00022 0.02156 0.42117 0.0
C169 C 0.04745 0.07361 0.49347 0.0
C170 C 1.00293 0.02058 0.34374 0.0
C171 C 0.89853 0.91641 0.34971 0.0
C172 C 0.99303 0.95253 0.27566 0.0
C173 C 0.99565 0.95086 0.20256 0.0
C174 C 0.00935 0.0177 0.19642 0.0
C175 C 0.02022 0.0863 0.26509 0.0
C176 C 0.01703 0.08769 0.3382 0.0
H177 H 0.86207 0.90091 0.3688 0.0
H178 H 0.89266 0.94317 0.31198 0.0
H179 H 0.89923 0.86221 0.3108 0.0
H180 H 0.98369 0.90063 0.27919 0.0
H181 H 0.98749 0.89717 0.15115 0.0
loop_
_geom_bond_atom_site_label_1
_geom_bond_atom_site_label_2
_geom_bond_distance
_geom_bond_site_symmetry_2
_ccdc_geom_bond_type
C0 C1 1.387 . S
C0 C5 1.380 . S
C0 C16 1.494 . S
C1 C0 1.387 . S
C1 C2 1.386 1_556 S
C1 H32 0.930 . S
C2 C1 1.386 1_554 S
C2 C3 1.397 . S
C3 C2 1.397 . S
C3 C4 1.393 1_554 S
C3 H33 0.930 . S
C4 C3 1.393 1_556 S
C4 C5 1.395 . S
C5 C0 1.380 . S
C5 C4 1.395 . S
C5 H34 0.930 . S
O6 Tb7 2.295 1_554 S
O6 C19 1.242 1_665 S
Tb7 O6 2.295 1_556 S
Tb7 O8 2.312 . S
Tb7 O11 2.438 . S
Tb7 O13 2.472 . S
Tb7 O15 2.308 . S
Tb7 C16 2.821 . S
O8 Tb7 2.312 . S
O8 C28 1.264 1_655 S
O9 Eu10 2.308 . S
O9 C19 1.243 . S
Eu10 O9 2.308 . S
Eu10 C12 2.821 . S
Eu10 O14 2.295 1_554 S
Eu10 O21 2.312 . S
Eu10 O30 2.438 . S
Eu10 O31 2.472 . S
O11 Tb7 2.438 . S
O11 C16 1.263 . S
C12 Eu10 2.821 . S
C12 C22 1.494 . S
C12 O30 1.263 . S
C12 O31 1.264 . S
O13 Tb7 2.472 . S
O13 C16 1.264 . S
O14 Eu10 2.295 1_556 S
O14 C20 1.242 1_445 S
O15 Tb7 2.308 . S
O15 C20 1.243 . S
C16 C0 1.494 . S
C16 Tb7 2.821 . S
C16 O11 1.263 . S
C16 O13 1.264 . S
C17 O18 1.260 . S
C17 O21 1.264 1_655 S
O18 C17 1.260 . S
C19 O6 1.242 1_445 S
C19 O9 1.243 . S
C20 O14 1.242 1_665 S
C20 O15 1.243 . S
O21 Eu10 2.312 . S
O21 C17 1.264 1_455 S
C22 C12 1.494 . S
C22 C24 1.380 . S
C22 C25 1.387 . S
C23 C24 1.395 . S
C23 C27 1.393 1_554 S
C24 C22 1.380 . S
C24 C23 1.395 . S
C24 H35 0.930 . S
C25 C22 1.387 . S
C25 C26 1.386 1_554 S
C25 H36 0.930 . S
C26 C25 1.386 1_556 S
C26 C27 1.397 . S
C27 C23 1.393 1_556 S
C27 C26 1.397 . S
C27 H37 0.930 . S
C28 O8 1.264 1_455 S
C28 O29 1.260 . S
O29 C28 1.260 . S
O30 Eu10 2.438 . S
O30 C12 1.263 . S
O31 Eu10 2.472 . S
O31 C12 1.264 . S
H32 C1 0.930 . S
H33 C3 0.930 . S
H34 C5 0.930 . S
H35 C24 0.930 . S
H36 C25 0.930 . S
H37 C27 0.930 . S
H38 C46 0.929 . S
H39 C48 0.930 . S
H40 C50 0.930 . S
H41 C53 0.929 . S
H42 C56 0.930 . S
H43 C58 0.960 . S
H44 C58 0.960 . S
H45 C58 0.960 . S
C46 H38 0.929 . S
C46 C47 1.377 1_556 S
C46 C48 1.384 . S
C47 C46 1.377 1_554 S
C47 C53 1.390 1_655 S
C48 H39 0.930 . S
C48 C46 1.384 . S
C48 C49 1.364 1_556 S
C49 C48 1.364 1_554 S
C49 C50 1.415 1_655 S
C49 C54 1.483 1_554 S
C50 H40 0.930 . S
C50 C49 1.415 1_455 S
C50 C53 1.386 . S
H51 C67 0.930 . S
H52 C68 0.931 . S
C53 H41 0.929 . S
C53 C47 1.390 1_455 S
C53 C50 1.386 . S
C54 C49 1.483 1_556 S
C54 C56 1.395 . S
C54 C57 1.403 1_656 S
H55 C61 0.930 . S
C56 H42 0.930 . S
C56 C54 1.395 . S
C56 C59 1.403 . S
C57 C54 1.403 1_454 S
C57 C58 1.524 . S
C57 C61 1.400 . S
C58 H43 0.960 . S
C58 H44 0.960 . S
C58 H45 0.960 . S
C58 C57 1.524 . S
C59 C56 1.403 . S
C59 C60 1.392 . S
C59 C63 1.495 . S
C60 C59 1.392 . S
C60 C61 1.385 1_656 S
C60 C62 1.478 . S
C61 H55 0.930 . S
C61 C57 1.400 . S
C61 C60 1.385 1_454 S
C62 C60 1.478 . S
C62 C64 1.381 . S
C62 C68 1.383 1_656 S
C63 C59 1.495 . S
C63 H69 0.959 . S
C63 H70 0.961 . S
C63 H71 0.960 . S
C64 C62 1.381 . S
C64 C65 1.394 . S
C64 H72 0.930 . S
C65 C64 1.394 . S
C65 C66 1.381 . S
C65 H73 0.929 . S
C66 C65 1.381 . S
C66 C67 1.376 1_656 S
C67 H51 0.930 . S
C67 C66 1.376 1_454 S
C67 C68 1.379 . S
C68 H52 0.931 . S
C68 C62 1.383 1_454 S
C68 C67 1.379 . S
H69 C63 0.959 . S
H70 C63 0.961 . S
H71 C63 0.960 . S
H72 C64 0.930 . S
H73 C65 0.929 . S
H74 C82 0.929 . S
H75 C84 0.930 . S
H76 C86 0.930 . S
H77 C89 0.929 . S
H78 C92 0.930 . S
H79 C94 0.960 . S
H80 C94 0.960 . S
H81 C94 0.960 . S
C82 H74 0.929 . S
C82 C83 1.377 1_554 S
C82 C84 1.384 . S
C83 C82 1.377 1_556 S
C83 C89 1.390 . S
C84 H75 0.930 . S
C84 C82 1.384 . S
C84 C85 1.372 1_554 S
C85 C84 1.372 1_556 S
C85 C86 1.400 . S
C85 C90 1.490 1_556 S
C86 H76 0.930 . S
C86 C85 1.400 . S
C86 C89 1.386 . S
H87 C103 0.930 . S
H88 C104 0.931 . S
C89 H77 0.929 . S
C89 C83 1.390 . S
C89 C86 1.386 . S
C90 C85 1.490 1_554 S
C90 C92 1.395 1_565 S
C90 C93 1.403 1_554 S
H91 C97 0.930 . S
C92 H78 0.930 . S
C92 C90 1.395 1_545 S
C92 C95 1.403 . S
C93 C90 1.403 1_556 S
C93 C94 1.524 . S
C93 C97 1.400 . S
C94 H79 0.960 . S
C94 H80 0.960 . S
C94 H81 0.960 . S
C94 C93 1.524 . S
C95 C92 1.403 . S
C95 C96 1.392 . S
C95 C99 1.495 . S
C96 C95 1.392 . S
C96 C97 1.385 1_544 S
C96 C98 1.478 . S
C97 H91 0.930 . S
C97 C93 1.400 . S
C97 C96 1.385 1_566 S
C98 C96 1.478 . S
C98 C100 1.381 . S
C98 C104 1.383 1_554 S
C99 C95 1.495 . S
C99 H105 0.959 . S
C99 H106 0.961 . S
C99 H107 0.960 . S
C100 C98 1.381 . S
C100 C101 1.394 . S
C100 H108 0.916 1_545 S
C101 C100 1.394 . S
C101 C102 1.383 . S
C101 H109 0.929 . S
C102 C101 1.383 . S
C102 C103 1.377 1_554 S
C103 H87 0.930 . S
C103 C102 1.377 1_556 S
C103 C104 1.379 . S
C104 H88 0.931 . S
C104 C98 1.383 1_556 S
C104 C103 1.379 . S
H105 C99 0.959 . S
H106 C99 0.961 . S
H107 C99 0.960 . S
H108 C100 0.916 1_565 S
H109 C101 0.929 . S
H110 C118 0.929 . S
H111 C120 0.930 . S
H112 C122 0.930 . S
H113 C125 0.929 . S
H114 C128 0.930 . S
H115 C130 0.960 . S
H116 C130 0.960 . S
H117 C130 0.960 . S
C118 H110 0.929 . S
C118 C119 1.377 . S
C118 C120 1.384 . S
C119 C118 1.377 . S
C119 C125 1.390 1_556 S
C120 H111 0.930 . S
C120 C118 1.384 . S
C120 C121 1.372 . S
C121 C120 1.372 . S
C121 C122 1.400 1_556 S
C121 C126 1.490 . S
C122 H112 0.930 . S
C122 C121 1.400 1_554 S
C122 C125 1.386 . S
H123 C139 0.930 . S
H124 C140 0.931 . S
C125 H113 0.929 . S
C125 C119 1.390 1_554 S
C125 C122 1.386 . S
C126 C121 1.490 . S
C126 C128 1.395 . S
C126 C129 1.403 1_556 S
H127 C133 0.930 . S
C128 H114 0.930 . S
C128 C126 1.395 . S
C128 C131 1.403 . S
C129 C126 1.403 1_554 S
C129 C130 1.524 . S
C129 C133 1.400 . S
C130 H115 0.960 . S
C130 H116 0.960 . S
C130 H117 0.960 . S
C130 C129 1.524 . S
C131 C128 1.403 . S
C131 C132 1.392 . S
C131 C135 1.495 . S
C132 C131 1.392 . S
C132 C133 1.385 1_556 S
C132 C134 1.478 . S
C133 H127 0.930 . S
C133 C129 1.400 . S
C133 C132 1.385 1_554 S
C134 C132 1.478 . S
C134 C136 1.381 . S
C134 C140 1.383 1_556 S
C135 C131 1.495 . S
C135 H141 0.959 . S
C135 H142 0.961 . S
C135 H143 0.960 . S
C136 C134 1.381 . S
C136 C137 1.394 . S
C136 H144 0.930 . S
C137 C136 1.394 . S
C137 C138 1.383 1_556 S
C137 H145 0.929 . S
C138 C137 1.383 1_554 S
C138 C139 1.377 . S
C139 H123 0.930 . S
C139 C138 1.377 . S
C139 C140 1.379 . S
C140 H124 0.931 . S
C140 C134 1.383 1_554 S
C140 C139 1.379 . S
H141 C135 0.959 . S
H142 C135 0.961 . S
H143 C135 0.960 . S
H144 C136 0.930 . S
H145 C137 0.929 . S
H146 C154 0.929 . S
H147 C156 0.930 . S
H148 C158 0.930 . S
H149 C161 0.929 . S
H150 C164 0.930 . S
H151 C166 0.960 . S
H152 C166 0.960 . S
H153 C166 0.960 . S
C154 H146 0.929 . S
C154 C155 1.388 1_565 S
C154 C156 1.384 . S
C155 C154 1.388 1_545 S
C155 C161 1.383 1_455 S
C156 H147 0.930 . S
C156 C154 1.384 . S
C156 C157 1.372 . S
C157 C156 1.372 . S
C157 C158 1.400 1_465 S
C157 C162 1.491 1_455 S
C158 H148 0.930 . S
C158 C157 1.400 1_645 S
C158 C161 1.386 . S
H159 C175 0.930 . S
H160 C176 0.931 . S
C161 H149 0.929 . S
C161 C155 1.383 1_655 S
C161 C158 1.386 . S
C162 C157 1.491 1_655 S
C162 C164 1.397 . S
C162 C165 1.399 1_665 S
H163 C169 0.930 . S
C164 H150 0.930 . S
C164 C162 1.397 . S
C164 C167 1.403 . S
C165 C162 1.399 1_445 S
C165 C166 1.524 . S
C165 C169 1.400 . S
C166 H151 0.960 . S
C166 H152 0.960 . S
C166 H153 0.960 . S
C166 C165 1.524 . S
C167 C164 1.403 . S
C167 C168 1.392 . S
C167 C171 1.495 . S
C168 C167 1.392 . S
C168 C169 1.385 1_665 S
C168 C170 1.478 . S
C169 H163 0.930 . S
C169 C165 1.400 . S
C169 C168 1.385 1_445 S
C170 C168 1.478 . S
C170 C172 1.381 1_655 S
C170 C176 1.383 1_565 S
C171 C167 1.495 . S
C171 H177 0.959 . S
C171 H178 0.961 . S
C171 H179 0.960 . S
C172 C170 1.381 1_455 S
C172 C173 1.394 . S
C172 H180 0.930 . S
C173 C172 1.394 . S
C173 C174 1.383 1_455 S
C173 H181 0.929 . S
C174 C173 1.383 1_655 S
C174 C175 1.377 1_565 S
C175 H159 0.930 . S
C175 C174 1.377 1_545 S
C175 C176 1.379 . S
C176 H160 0.931 . S
C176 C170 1.383 1_545 S
C176 C175 1.379 . S
H177 C171 0.959 . S
H178 C171 0.961 . S
H179 C171 0.960 . S
H180 C172 0.930 . S
H181 C173 0.929 . S
C47 C17 0.439 . S
C66 C28 0.430 1_655 S
C83 C4 2.155 . S
C102 C23 2.147 . S
C119 C26 1.909 . S
C138 C2 1.897 . S
C155 C20 1.487 1_445 S
C174 C19 1.499 1_665 S
