# Generated by pormake.
# Topology sml, (6)-cn, num edge types: 1
# Building blocks:
#     Node 0, Type 0, BuildingBlock: BETDEL_clean_sbu_0, # of connection points: 6
#     Node 1, Type 0, BuildingBlock: BETDEL_clean_sbu_0, # of connection points: 6
#     Node 2, Type 0, BuildingBlock: BETDEL_clean_sbu_0, # of connection points: 6
#     Node 3, Type 0, BuildingBlock: BETDEL_clean_sbu_0, # of connection points: 6
#     Node 4, Type 0, BuildingBlock: BETDEL_clean_sbu_0, # of connection points: 6
#     Node 5, Type 0, BuildingBlock: BETDEL_clean_sbu_0, # of connection points: 6
#     Edge 6, Type (0, 0), BuildingBlock: EYOCIG_clean_linker_4, # of connection points: 2
#     Edge 7, Type (0, 0), BuildingBlock: EYOCIG_clean_linker_4, # of connection points: 2
#     Edge 8, Type (0, 0), BuildingBlock: EYOCIG_clean_linker_4, # of connection points: 2
#     Edge 9, Type (0, 0), BuildingBlock: EYOCIG_clean_linker_4, # of connection points: 2
#     Edge 10, Type (0, 0), BuildingBlock: EYOCIG_clean_linker_4, # of connection points: 2
#     Edge 11, Type (0, 0), BuildingBlock: EYOCIG_clean_linker_4, # of connection points: 2
#     Edge 12, Type (0, 0), BuildingBlock: EYOCIG_clean_linker_4, # of connection points: 2
#     Edge 13, Type (0, 0), BuildingBlock: EYOCIG_clean_linker_4, # of connection points: 2
#     Edge 14, Type (0, 0), BuildingBlock: EYOCIG_clean_linker_4, # of connection points: 2
#     Edge 15, Type (0, 0), BuildingBlock: EYOCIG_clean_linker_4, # of connection points: 2
#     Edge 16, Type (0, 0), BuildingBlock: EYOCIG_clean_linker_4, # of connection points: 2
#     Edge 17, Type (0, 0), BuildingBlock: EYOCIG_clean_linker_4, # of connection points: 2
#     Edge 18, Type (0, 0), BuildingBlock: EYOCIG_clean_linker_4, # of connection points: 2
#     Edge 19, Type (0, 0), BuildingBlock: EYOCIG_clean_linker_4, # of connection points: 2
#     Edge 20, Type (0, 0), BuildingBlock: EYOCIG_clean_linker_4, # of connection points: 2
#     Edge 21, Type (0, 0), BuildingBlock: EYOCIG_clean_linker_4, # of connection points: 2
#     Edge 22, Type (0, 0), BuildingBlock: EYOCIG_clean_linker_4, # of connection points: 2
#     Edge 23, Type (0, 0), BuildingBlock: EYOCIG_clean_linker_4, # of connection points: 2
# Relax obj value: 0.143
# Max RMSD: 0.179
# Mean RMSD: 0.179
data_MOF--net-sml--node1-BETDEL_clean_sbu_0--edge1-EYOCIG_clean_linker_4
_symmetry_space_group_name_H-M    P1
_symmetry_Int_Tables_number       1
_symmetry_cell_setting            triclinic
loop_
_symmetry_equiv_pos_as_xyz
'x, y, z'
_cell_length_a     27.756314
_cell_length_b     27.747731
_cell_length_c     14.477286
_cell_angle_alpha  90.004984
_cell_angle_beta   89.982223
_cell_angle_gamma 119.99397
loop_
_atom_site_label
_atom_site_type_symbol
_atom_site_fract_x
_atom_site_fract_y
_atom_site_fract_z
_atom_type_partial_charge
Dy0 Dy 0.21198 0.43522 0.17894 0.0
C1 C 0.24397 0.395 0.5528 0.0
C2 C 0.21848 0.45042 0.99316 0.0
Dy3 Dy 0.24521 0.41034 0.36673 0.0
O4 O 0.17252 0.42184 0.03897 0.0
O5 O 0.26023 0.47434 0.04947 0.0
O6 O 0.12279 0.39207 0.21929 0.0
O7 O 0.17529 0.36364 0.27307 0.0
C8 C 0.1273 0.35836 0.27618 0.0
C9 C 0.32815 0.4882 0.26661 0.0
O10 O 0.2507 0.3436 0.28709 0.0
O11 O 0.24878 0.38197 0.14537 0.0
O12 O 0.2885 0.42317 0.50351 0.0
O13 O 0.20055 0.37215 0.49974 0.0
O14 O 0.3352 0.45544 0.32217 0.0
O15 O 0.27984 0.48084 0.27375 0.0
O16 O 0.20703 0.50234 0.25487 0.0
O17 O 0.20946 0.46622 0.399 0.0
C18 C 0.25595 0.34655 0.19572 0.0
C19 C 0.20168 0.50076 0.34592 0.0
Dy20 Dy 0.8002 0.22944 0.55395 0.0
C21 C 0.76877 0.15728 0.18009 0.0
C22 C 0.79362 0.2381 0.73974 0.0
Dy23 Dy 0.76725 0.17131 0.36614 0.0
O24 O 0.83962 0.25575 0.69392 0.0
O25 O 0.75184 0.22 0.68343 0.0
O26 O 0.88943 0.27558 0.51381 0.0
O27 O 0.83708 0.19462 0.46005 0.0
C28 C 0.88503 0.23736 0.45702 0.0
C29 C 0.6841 0.16603 0.46592 0.0
O30 O 0.76198 0.09922 0.44589 0.0
O31 O 0.76347 0.13939 0.58752 0.0
O32 O 0.72414 0.14039 0.22932 0.0
O33 O 0.81219 0.17836 0.2332 0.0
O34 O 0.6772 0.12628 0.41037 0.0
O35 O 0.73239 0.20705 0.45893 0.0
O36 O 0.80497 0.30141 0.47795 0.0
O37 O 0.80276 0.26291 0.33385 0.0
C38 C 0.75654 0.09686 0.53724 0.0
C39 C 0.8104 0.3052 0.38691 0.0
Dy40 Dy 0.5749 0.77897 0.845 0.0
C41 C 0.61527 0.85115 0.21888 0.0
C42 C 0.55954 0.77041 0.65926 0.0
Dy43 Dy 0.59987 0.83708 0.03283 0.0
O44 O 0.58764 0.75242 0.70493 0.0
O45 O 0.53617 0.78882 0.7157 0.0
O46 O 0.61812 0.73293 0.88502 0.0
O47 O 0.6465 0.81383 0.93898 0.0
C48 C 0.6518 0.77113 0.94196 0.0
C49 C 0.52196 0.84219 0.93297 0.0
O50 O 0.66667 0.90925 0.9532 0.0
O51 O 0.62833 0.86901 0.81145 0.0
O52 O 0.58742 0.86789 0.16961 0.0
O53 O 0.63778 0.83019 0.16582 0.0
O54 O 0.55472 0.88198 0.98851 0.0
O55 O 0.52934 0.80123 0.94 0.0
O56 O 0.50774 0.70698 0.92099 0.0
O57 O 0.54396 0.74547 0.0651 0.0
C58 C 0.66376 0.91158 0.86183 0.0
C59 C 0.50936 0.70317 1.01203 0.0
Dy60 Dy 0.78084 0.57334 0.22127 0.0
C61 C 0.85286 0.61414 0.8474 0.0
C62 C 0.77206 0.5582 0.40709 0.0
Dy63 Dy 0.83905 0.59849 0.03346 0.0
O64 O 0.7544 0.5865 0.36115 0.0
O65 O 0.79024 0.53452 0.35087 0.0
O66 O 0.73462 0.61633 0.1809 0.0
O67 O 0.81561 0.64497 0.12727 0.0
C68 C 0.77285 0.65014 0.1241 0.0
C69 C 0.84434 0.52063 0.13331 0.0
O70 O 0.911 0.66544 0.11324 0.0
O71 O 0.87084 0.62674 0.25488 0.0
O72 O 0.87039 0.5869 0.89653 0.0
O73 O 0.83127 0.63595 0.90062 0.0
O74 O 0.88405 0.5534 0.07761 0.0
O75 O 0.80334 0.52793 0.12633 0.0
O76 O 0.70899 0.50602 0.14532 0.0
O77 O 0.74756 0.5421 1.00116 0.0
C78 C 0.91334 0.66239 0.20459 0.0
C79 C 0.70526 0.5075 0.05425 0.0
Dy80 Dy 0.23111 0.79824 0.512 0.0
C81 C 0.15897 0.7665 0.88593 0.0
C82 C 0.23968 0.79136 0.32625 0.0
Dy83 Dy 0.173 0.76521 0.69984 0.0
O84 O 0.25756 0.83747 0.37187 0.0
O85 O 0.22137 0.74963 0.38274 0.0
O86 O 0.27731 0.8875 0.55208 0.0
O87 O 0.19641 0.83515 0.60606 0.0
C88 C 0.23917 0.8831 0.60906 0.0
C89 C 0.1677 0.68209 0.59989 0.0
O90 O 0.10098 0.76017 0.62028 0.0
O91 O 0.14111 0.76185 0.47851 0.0
O92 O 0.14195 0.7219 0.83653 0.0
O93 O 0.18018 0.81 0.83298 0.0
O94 O 0.12795 0.67516 0.65544 0.0
O95 O 0.20871 0.73037 0.60695 0.0
O96 O 0.30303 0.80295 0.58794 0.0
O97 O 0.26454 0.80067 0.73208 0.0
C98 C 0.09862 0.7549 0.52891 0.0
C99 C 0.30682 0.80833 0.67898 0.0
Dy100 Dy 0.43742 0.20996 0.88781 0.0
C101 C 0.39703 0.24183 0.51392 0.0
C102 C 0.45289 0.21687 0.07354 0.0
Dy103 Dy 0.4124 0.24309 0.69999 0.0
O104 O 0.42476 0.17075 0.02794 0.0
O105 O 0.47624 0.25861 0.01703 0.0
O106 O 0.39404 0.12066 0.84789 0.0
O107 O 0.36577 0.17325 0.79392 0.0
C108 C 0.36038 0.12521 0.79097 0.0
C109 C 0.49045 0.32607 0.79973 0.0
O110 O 0.3457 0.24856 0.77976 0.0
O111 O 0.38411 0.24668 0.92143 0.0
O112 O 0.42479 0.2864 0.56328 0.0
O113 O 0.37457 0.19834 0.56691 0.0
O114 O 0.45771 0.33316 0.74426 0.0
O115 O 0.48298 0.27771 0.79271 0.0
O116 O 0.50447 0.20499 0.81167 0.0
O117 O 0.4682 0.20728 0.66762 0.0
C118 C 0.34868 0.25385 0.87113 0.0
C119 C 0.50279 0.19954 0.72062 0.0
C120 C 0.2929 0.27637 0.9907 0.0
C121 C 0.31271 0.26664 0.92382 0.0
C122 C 0.27851 0.29076 0.07622 0.0
C123 C 0.26877 0.31058 0.14307 0.0
C124 C 0.03402 0.28193 0.35098 0.0
C125 C 0.07969 0.31397 0.32125 0.0
C126 C 0.97842 0.25417 0.38268 0.0
C127 C 0.93273 0.2406 0.41224 0.0
C128 C 0.73414 0.01861 0.65681 0.0
C129 C 0.74385 0.04813 0.58993 0.0
C130 C 0.71972 0.98987 0.74235 0.0
C131 C 0.69983 0.96033 0.80921 0.0
C132 C 0.72814 0.75425 0.01702 0.0
C133 C 0.69611 0.76784 0.98714 0.0
C134 C 0.75591 0.72647 0.04905 0.0
C135 C 0.76951 0.69445 0.07895 0.0
C136 C 0.02036 0.73277 0.40955 0.0
C137 C 0.04991 0.74236 0.47634 0.0
C138 C 0.99156 0.7184 0.32409 0.0
C139 C 0.96202 0.69851 0.25726 0.0
C140 C 0.28398 0.03199 0.71597 0.0
C141 C 0.31603 0.07762 0.74581 0.0
C142 C 0.25618 0.97643 0.68401 0.0
C143 C 0.24254 0.93078 0.65417 0.0
C144 C 0.2306 0.42903 0.81998 0.0
C145 C 0.22476 0.43862 0.89903 0.0
C146 C 0.23704 0.41492 0.72901 0.0
C147 C 0.241 0.40627 0.64862 0.0
C148 C 0.77556 0.18409 1.00388 0.0
C149 C 0.77164 0.17148 0.08426 0.0
C150 C 0.78183 0.20462 0.91292 0.0
C151 C 0.78747 0.22001 0.83386 0.0
C152 C 0.5811 0.80383 0.48606 0.0
C153 C 0.57143 0.78844 0.56512 0.0
C154 C 0.59528 0.82436 0.3951 0.0
C155 C 0.60394 0.83697 0.31471 0.0
C156 C 0.82598 0.59406 0.67124 0.0
C157 C 0.83869 0.60272 0.75158 0.0
C158 C 0.80541 0.57986 0.5803 0.0
C159 C 0.79004 0.57015 0.50123 0.0
C160 C 0.18572 0.77305 0.06212 0.0
C161 C 0.17311 0.76917 0.98175 0.0
C162 C 0.20626 0.77939 0.15307 0.0
C163 C 0.22164 0.78516 0.23212 0.0
C164 C 0.41716 0.23517 0.3377 0.0
C165 C 0.40844 0.23906 0.41809 0.0
C166 C 0.43137 0.22883 0.24674 0.0
C167 C 0.44103 0.22307 0.16768 0.0
C168 C 0.17958 0.57016 0.43624 0.0
C169 C 0.18954 0.53952 0.39132 0.0
C170 C 0.17121 0.60669 0.49326 0.0
C171 C 0.16749 0.63956 0.54304 0.0
C172 C 0.60872 0.16932 0.57285 0.0
C173 C 0.6416 0.16572 0.52294 0.0
C174 C 0.57218 0.17757 0.63005 0.0
C175 C 0.54156 0.18747 0.67512 0.0
C176 C 0.40338 0.56695 0.1596 0.0
C177 C 0.37056 0.53044 0.20954 0.0
C178 C 0.4399 0.61178 0.10244 0.0
C179 C 0.47055 0.65231 0.05744 0.0
C180 C 0.83239 0.39666 0.29661 0.0
C181 C 0.82248 0.35608 0.3415 0.0
C182 C 0.84078 0.44162 0.23969 0.0
C183 C 0.84452 0.47825 0.19002 0.0
C184 C 0.3982 0.83024 0.76929 0.0
C185 C 0.35767 0.82037 0.72436 0.0
C186 C 0.44308 0.83859 0.82632 0.0
C187 C 0.47965 0.84233 0.8761 0.0
C188 C 0.61404 0.43783 0.96379 0.0
C189 C 0.65449 0.46857 1.00882 0.0
C190 C 0.56925 0.40128 0.90662 0.0
C191 C 0.53273 0.36847 0.85675 0.0
loop_
_geom_bond_atom_site_label_1
_geom_bond_atom_site_label_2
_geom_bond_distance
_geom_bond_site_symmetry_2
_ccdc_geom_bond_type
Dy0 O4 2.398 . S
Dy0 O5 2.491 . S
Dy0 O6 2.403 . S
Dy0 O7 2.664 . S
Dy0 O11 2.326 . S
Dy0 O15 2.310 . S
Dy0 O16 2.351 . S
C1 O12 1.185 . S
C1 O13 1.355 . S
C2 O4 1.185 1_556 S
C2 O5 1.355 1_556 S
Dy3 O7 2.310 . S
Dy3 O10 2.351 . S
Dy3 O12 2.398 . S
Dy3 O13 2.491 . S
Dy3 O14 2.403 . S
Dy3 O15 2.664 . S
Dy3 O17 2.326 . S
O4 Dy0 2.398 . S
O4 C2 1.185 1_554 S
O5 Dy0 2.491 . S
O5 C2 1.355 1_554 S
O6 Dy0 2.403 . S
O6 C8 1.254 . S
O7 Dy0 2.664 . S
O7 Dy3 2.310 . S
O7 C8 1.268 . S
C8 O6 1.254 . S
C8 O7 1.268 . S
C9 O14 1.254 . S
C9 O15 1.268 . S
O10 Dy3 2.351 . S
O10 C18 1.249 . S
O11 Dy0 2.326 . S
O11 C18 1.267 . S
O12 C1 1.185 . S
O12 Dy3 2.398 . S
O13 C1 1.355 . S
O13 Dy3 2.491 . S
O14 Dy3 2.403 . S
O14 C9 1.254 . S
O15 Dy0 2.310 . S
O15 Dy3 2.664 . S
O15 C9 1.268 . S
O16 Dy0 2.351 . S
O16 C19 1.249 . S
O17 Dy3 2.326 . S
O17 C19 1.267 . S
C18 O10 1.249 . S
C18 O11 1.267 . S
C19 O16 1.249 . S
C19 O17 1.267 . S
Dy20 O24 2.398 . S
Dy20 O25 2.491 . S
Dy20 O26 2.403 . S
Dy20 O27 2.664 . S
Dy20 O31 2.326 . S
Dy20 O35 2.310 . S
Dy20 O36 2.351 . S
C21 O32 1.185 . S
C21 O33 1.355 . S
C22 O24 1.185 . S
C22 O25 1.355 . S
Dy23 O27 2.310 . S
Dy23 O30 2.351 . S
Dy23 O32 2.398 . S
Dy23 O33 2.491 . S
Dy23 O34 2.403 . S
Dy23 O35 2.664 . S
Dy23 O37 2.326 . S
O24 Dy20 2.398 . S
O24 C22 1.185 . S
O25 Dy20 2.491 . S
O25 C22 1.355 . S
O26 Dy20 2.403 . S
O26 C28 1.254 . S
O27 Dy20 2.664 . S
O27 Dy23 2.310 . S
O27 C28 1.268 . S
C28 O26 1.254 . S
C28 O27 1.268 . S
C29 O34 1.254 . S
C29 O35 1.268 . S
O30 Dy23 2.351 . S
O30 C38 1.249 . S
O31 Dy20 2.326 . S
O31 C38 1.267 . S
O32 C21 1.185 . S
O32 Dy23 2.398 . S
O33 C21 1.355 . S
O33 Dy23 2.491 . S
O34 Dy23 2.403 . S
O34 C29 1.254 . S
O35 Dy20 2.310 . S
O35 Dy23 2.664 . S
O35 C29 1.268 . S
O36 Dy20 2.351 . S
O36 C39 1.249 . S
O37 Dy23 2.326 . S
O37 C39 1.267 . S
C38 O30 1.249 . S
C38 O31 1.267 . S
C39 O36 1.249 . S
C39 O37 1.267 . S
Dy40 O44 2.398 . S
Dy40 O45 2.491 . S
Dy40 O46 2.403 . S
Dy40 O47 2.664 . S
Dy40 O51 2.326 . S
Dy40 O55 2.310 . S
Dy40 O56 2.351 . S
C41 O52 1.185 . S
C41 O53 1.355 . S
C42 O44 1.185 . S
C42 O45 1.355 . S
Dy43 O47 2.310 1_554 S
Dy43 O50 2.351 1_554 S
Dy43 O52 2.398 . S
Dy43 O53 2.491 . S
Dy43 O54 2.403 . S
Dy43 O55 2.664 1_554 S
Dy43 O57 2.326 . S
O44 Dy40 2.398 . S
O44 C42 1.185 . S
O45 Dy40 2.491 . S
O45 C42 1.355 . S
O46 Dy40 2.403 . S
O46 C48 1.254 . S
O47 Dy40 2.664 . S
O47 Dy43 2.310 1_556 S
O47 C48 1.268 . S
C48 O46 1.254 . S
C48 O47 1.268 . S
C49 O54 1.254 1_556 S
C49 O55 1.268 . S
O50 Dy43 2.351 1_556 S
O50 C58 1.249 . S
O51 Dy40 2.326 . S
O51 C58 1.267 . S
O52 C41 1.185 . S
O52 Dy43 2.398 . S
O53 C41 1.355 . S
O53 Dy43 2.491 . S
O54 Dy43 2.403 . S
O54 C49 1.254 1_554 S
O55 Dy40 2.310 . S
O55 Dy43 2.664 1_556 S
O55 C49 1.268 . S
O56 Dy40 2.351 . S
O56 C59 1.249 1_556 S
O57 Dy43 2.326 . S
O57 C59 1.267 . S
C58 O50 1.249 . S
C58 O51 1.267 . S
C59 O56 1.249 1_554 S
C59 O57 1.267 . S
Dy60 O64 2.398 . S
Dy60 O65 2.491 . S
Dy60 O66 2.403 . S
Dy60 O67 2.664 . S
Dy60 O71 2.326 . S
Dy60 O75 2.310 . S
Dy60 O76 2.351 . S
C61 O72 1.185 . S
C61 O73 1.355 . S
C62 O64 1.185 . S
C62 O65 1.355 . S
Dy63 O67 2.310 1_556 S
Dy63 O70 2.351 1_556 S
Dy63 O72 2.398 . S
Dy63 O73 2.491 . S
Dy63 O74 2.403 1_556 S
Dy63 O75 2.664 1_556 S
Dy63 O77 2.326 . S
O64 Dy60 2.398 . S
O64 C62 1.185 . S
O65 Dy60 2.491 . S
O65 C62 1.355 . S
O66 Dy60 2.403 . S
O66 C68 1.254 . S
O67 Dy60 2.664 . S
O67 Dy63 2.310 1_554 S
O67 C68 1.268 . S
C68 O66 1.254 . S
C68 O67 1.268 . S
C69 O74 1.254 . S
C69 O75 1.268 . S
O70 Dy63 2.351 1_554 S
O70 C78 1.249 . S
O71 Dy60 2.326 . S
O71 C78 1.267 . S
O72 C61 1.185 . S
O72 Dy63 2.398 . S
O73 C61 1.355 . S
O73 Dy63 2.491 . S
O74 Dy63 2.403 1_554 S
O74 C69 1.254 . S
O75 Dy60 2.310 . S
O75 Dy63 2.664 1_554 S
O75 C69 1.268 . S
O76 Dy60 2.351 . S
O76 C79 1.249 1_554 S
O77 Dy63 2.326 . S
O77 C79 1.267 . S
C78 O70 1.249 . S
C78 O71 1.267 . S
C79 O76 1.249 1_556 S
C79 O77 1.267 . S
Dy80 O84 2.398 . S
Dy80 O85 2.491 . S
Dy80 O86 2.403 . S
Dy80 O87 2.664 . S
Dy80 O91 2.326 . S
Dy80 O95 2.310 . S
Dy80 O96 2.351 . S
C81 O92 1.185 . S
C81 O93 1.355 . S
C82 O84 1.185 . S
C82 O85 1.355 . S
Dy83 O87 2.310 . S
Dy83 O90 2.351 . S
Dy83 O92 2.398 . S
Dy83 O93 2.491 . S
Dy83 O94 2.403 . S
Dy83 O95 2.664 . S
Dy83 O97 2.326 . S
O84 Dy80 2.398 . S
O84 C82 1.185 . S
O85 Dy80 2.491 . S
O85 C82 1.355 . S
O86 Dy80 2.403 . S
O86 C88 1.254 . S
O87 Dy80 2.664 . S
O87 Dy83 2.310 . S
O87 C88 1.268 . S
C88 O86 1.254 . S
C88 O87 1.268 . S
C89 O94 1.254 . S
C89 O95 1.268 . S
O90 Dy83 2.351 . S
O90 C98 1.249 . S
O91 Dy80 2.326 . S
O91 C98 1.267 . S
O92 C81 1.185 . S
O92 Dy83 2.398 . S
O93 C81 1.355 . S
O93 Dy83 2.491 . S
O94 Dy83 2.403 . S
O94 C89 1.254 . S
O95 Dy80 2.310 . S
O95 Dy83 2.664 . S
O95 C89 1.268 . S
O96 Dy80 2.351 . S
O96 C99 1.249 . S
O97 Dy83 2.326 . S
O97 C99 1.267 . S
C98 O90 1.249 . S
C98 O91 1.267 . S
C99 O96 1.249 . S
C99 O97 1.267 . S
Dy100 O104 2.398 1_556 S
Dy100 O105 2.491 1_556 S
Dy100 O106 2.403 . S
Dy100 O107 2.664 . S
Dy100 O111 2.326 . S
Dy100 O115 2.310 . S
Dy100 O116 2.351 . S
C101 O112 1.185 . S
C101 O113 1.355 . S
C102 O104 1.185 . S
C102 O105 1.355 . S
Dy103 O107 2.310 . S
Dy103 O110 2.351 . S
Dy103 O112 2.398 . S
Dy103 O113 2.491 . S
Dy103 O114 2.403 . S
Dy103 O115 2.664 . S
Dy103 O117 2.326 . S
O104 Dy100 2.398 1_554 S
O104 C102 1.185 . S
O105 Dy100 2.491 1_554 S
O105 C102 1.355 . S
O106 Dy100 2.403 . S
O106 C108 1.254 . S
O107 Dy100 2.664 . S
O107 Dy103 2.310 . S
O107 C108 1.268 . S
C108 O106 1.254 . S
C108 O107 1.268 . S
C109 O114 1.254 . S
C109 O115 1.268 . S
O110 Dy103 2.351 . S
O110 C118 1.249 . S
O111 Dy100 2.326 . S
O111 C118 1.267 . S
O112 C101 1.185 . S
O112 Dy103 2.398 . S
O113 C101 1.355 . S
O113 Dy103 2.491 . S
O114 Dy103 2.403 . S
O114 C109 1.254 . S
O115 Dy100 2.310 . S
O115 Dy103 2.664 . S
O115 C109 1.268 . S
O116 Dy100 2.351 . S
O116 C119 1.249 . S
O117 Dy103 2.326 . S
O117 C119 1.267 . S
C118 O110 1.249 . S
C118 O111 1.267 . S
C119 O116 1.249 . S
C119 O117 1.267 . S
C120 C121 1.170 . S
C120 C122 1.380 1_556 S
C121 C120 1.170 . S
C122 C120 1.380 1_554 S
C122 C123 1.170 . S
C123 C122 1.170 . S
C124 C125 1.170 . S
C124 C126 1.380 1_455 S
C125 C124 1.170 . S
C126 C124 1.380 1_655 S
C126 C127 1.170 . S
C127 C126 1.170 . S
C128 C129 1.170 . S
C128 C130 1.380 1_545 S
C129 C128 1.170 . S
C130 C128 1.380 1_565 S
C130 C131 1.170 . S
C131 C130 1.170 . S
C132 C133 1.170 1_554 S
C132 C134 1.380 . S
C133 C132 1.170 1_556 S
C134 C132 1.380 . S
C134 C135 1.170 . S
C135 C134 1.170 . S
C136 C137 1.170 . S
C136 C138 1.380 1_455 S
C137 C136 1.170 . S
C138 C136 1.380 1_655 S
C138 C139 1.170 . S
C139 C138 1.170 . S
C140 C141 1.170 . S
C140 C142 1.380 1_545 S
C141 C140 1.170 . S
C142 C140 1.380 1_565 S
C142 C143 1.170 . S
C143 C142 1.170 . S
C144 C145 1.170 . S
C144 C146 1.380 . S
C145 C144 1.170 . S
C146 C144 1.380 . S
C146 C147 1.170 . S
C147 C146 1.170 . S
C148 C149 1.170 1_556 S
C148 C150 1.380 . S
C149 C148 1.170 1_554 S
C150 C148 1.380 . S
C150 C151 1.170 . S
C151 C150 1.170 . S
C152 C153 1.170 . S
C152 C154 1.380 . S
C153 C152 1.170 . S
C154 C152 1.380 . S
C154 C155 1.170 . S
C155 C154 1.170 . S
C156 C157 1.170 . S
C156 C158 1.380 . S
C157 C156 1.170 . S
C158 C156 1.380 . S
C158 C159 1.170 . S
C159 C158 1.170 . S
C160 C161 1.165 1_554 S
C160 C162 1.380 . S
C161 C160 1.165 1_556 S
C162 C160 1.380 . S
C162 C163 1.170 . S
C163 C162 1.170 . S
C164 C165 1.170 . S
C164 C166 1.380 . S
C165 C164 1.170 . S
C166 C164 1.380 . S
C166 C167 1.170 . S
C167 C166 1.170 . S
C168 C169 1.170 . S
C168 C170 1.380 . S
C169 C168 1.170 . S
C170 C168 1.380 . S
C170 C171 1.170 . S
C171 C170 1.170 . S
C172 C173 1.170 . S
C172 C174 1.380 . S
C173 C172 1.170 . S
C174 C172 1.380 . S
C174 C175 1.170 . S
C175 C174 1.170 . S
C176 C177 1.170 . S
C176 C178 1.380 . S
C177 C176 1.170 . S
C178 C176 1.380 . S
C178 C179 1.170 . S
C179 C178 1.170 . S
C180 C181 1.170 . S
C180 C182 1.380 . S
C181 C180 1.170 . S
C182 C180 1.380 . S
C182 C183 1.170 . S
C183 C182 1.170 . S
C184 C185 1.170 . S
C184 C186 1.380 . S
C185 C184 1.170 . S
C186 C184 1.380 . S
C186 C187 1.170 . S
C187 C186 1.170 . S
C188 C189 1.170 . S
C188 C190 1.380 . S
C189 C188 1.170 . S
C190 C188 1.380 . S
C190 C191 1.170 . S
C191 C190 1.170 . S
C121 C118 1.583 . S
C123 C18 1.595 . S
C125 C8 1.460 . S
C127 C28 1.453 . S
C129 C38 1.588 . S
C131 C58 1.591 . S
C133 C48 1.461 . S
C135 C68 1.481 . S
C137 C98 1.581 . S
C139 C78 1.586 . S
C141 C108 1.455 . S
C143 C88 1.471 . S
C145 C2 1.296 . S
C147 C1 1.284 . S
C149 C21 1.276 . S
C151 C22 1.300 . S
C153 C42 1.294 . S
C155 C41 1.286 . S
C157 C61 1.272 . S
C159 C62 1.294 . S
C161 C81 1.296 . S
C163 C82 1.290 . S
C165 C101 1.291 . S
C167 C102 1.290 . S
C169 C19 1.641 . S
C171 C89 1.648 . S
C173 C29 1.649 . S
C175 C119 1.642 . S
C177 C9 1.651 . S
C179 C59 1.631 . S
C181 C39 1.638 . S
C183 C69 1.646 . S
C185 C99 1.640 . S
C187 C49 1.651 . S
C189 C79 1.629 . S
C191 C109 1.644 . S
