# Generated by pormake.
# Topology pcu, (6)-cn, num edge types: 1
# Building blocks:
#     Node 0, Type 0, BuildingBlock: BETFAJ_clean_sbu_0, # of connection points: 6
#     Edge 1, Type (0, 0), BuildingBlock: EZIPEK_clean_linker_0, # of connection points: 2
#     Edge 2, Type (0, 0), BuildingBlock: EZIPEK_clean_linker_0, # of connection points: 2
#     Edge 3, Type (0, 0), BuildingBlock: EZIPEK_clean_linker_0, # of connection points: 2
# Relax obj value: 0.000
# Max RMSD: 0.000
# Mean RMSD: 0.000
data_MOF--net-pcu--node1-BETFAJ_clean_sbu_0--edge1-EZIPEK_clean_linker_0
_symmetry_space_group_name_H-M    P1
_symmetry_Int_Tables_number       1
_symmetry_cell_setting            triclinic
loop_
_symmetry_equiv_pos_as_xyz
'x, y, z'
_cell_length_a     21.047721
_cell_length_b     11.512537
_cell_length_c     10.578419
_cell_angle_alpha  89.653405
_cell_angle_beta   95.407033
_cell_angle_gamma 119.33375
loop_
_atom_site_label
_atom_site_type_symbol
_atom_site_fract_x
_atom_site_fract_y
_atom_site_fract_z
_atom_type_partial_charge
Sm0 Sm 0.95445 0.88439 1.00339 0.0
Sm1 Sm 0.12137 0.0248 0.01948 0.0
C2 C 0.8127 0.75461 0.03209 0.0
C3 C 0.7547 0.79151 0.02324 0.0
C4 C 0.69384 0.72308 0.09183 0.0
C5 C 0.64026 0.7619 0.08875 0.0
C6 C 0.64698 0.8695 0.01684 0.0
C7 C 0.70755 0.93731 0.94737 0.0
C8 C 0.76129 0.89904 0.95107 0.0
C9 C 1.01099 -0.04044 0.77385 0.0
C10 C 1.03728 0.20359 1.01029 0.0
C11 C 0.26321 0.15459 0.99153 0.0
C12 C 0.32115 0.11754 1.00026 0.0
C13 C 0.38214 0.18625 0.93203 0.0
C14 C 0.43569 0.14736 0.93505 0.0
C15 C 0.42881 0.03939 1.00653 0.0
C16 C 0.3681 -0.02871 0.07563 0.0
C17 C 0.31439 0.00963 0.07199 0.0
C18 C 0.06434 0.94899 0.2488 0.0
C19 C 0.03854 0.70561 0.01212 0.0
O20 O 0.86379 0.81183 0.12699 0.0
O21 O 0.8389 0.75086 0.92578 0.0
O22 O 1.03344 0.90876 0.8606 0.0
O23 O 0.95414 -0.03493 0.80399 0.0
O24 O 0.97645 0.09679 0.03399 0.0
O25 O 0.09714 0.19954 0.98953 0.0
O26 O 0.21227 0.09794 0.89633 0.0
O27 O 0.23685 0.15781 0.09779 0.0
O28 O 0.04247 0.00066 0.16212 0.0
O29 O 0.12111 0.9431 0.21875 0.0
O30 O 0.09933 0.81243 0.98831 0.0
O31 O 0.97872 0.70967 0.0332 0.0
H32 H 0.6882 0.6406 0.14874 0.0
H33 H 0.5938 0.70868 0.14286 0.0
H34 H 0.71351 0.02065 0.89159 0.0
H35 H 0.80831 0.95409 0.89858 0.0
H36 H 0.38793 0.26902 0.87547 0.0
H37 H 0.48226 0.20081 0.88122 0.0
H38 H 0.36202 0.88767 0.13108 0.0
H39 H 0.26727 -0.04564 0.1242 0.0
C40 C 0.99032 0.84004 0.43007 0.0
C41 C 0.05002 0.95196 0.38277 0.0
C42 C 0.08499 0.06853 0.59256 0.0
C43 C 1.02527 -0.04335 0.63985 0.0
N44 N 0.92734 0.72878 0.61226 0.0
N45 N 0.148 0.17979 0.4104 0.0
C46 C 0.97937 0.84053 0.56075 0.0
C47 C 0.09593 0.06806 0.46188 0.0
N48 N 0.94262 0.73525 0.34867 0.0
N49 N 0.13276 0.17324 0.67399 0.0
H50 H 0.15845 0.18294 0.31567 0.0
H51 H 0.17765 0.27275 0.45802 0.0
H52 H 0.12558 0.17761 0.76941 0.0
H53 H 0.18209 0.25155 0.65051 0.0
H54 H 0.89331 0.65688 0.37215 0.0
H55 H 0.94984 0.73081 0.25328 0.0
H56 H 0.89768 0.63583 0.56464 0.0
H57 H 0.91694 0.7256 0.70703 0.0
C58 C 0.47164 0.88626 0.9287 0.0
C59 C 0.48508 -0.00336 1.00828 0.0
C60 C 0.60415 0.02266 0.09455 0.0
C61 C 0.5907 0.91222 0.01506 0.0
N62 N 0.51718 0.74658 0.84763 0.0
N63 N 0.5585 0.16193 0.17604 0.0
C64 C 0.52563 0.84547 0.9302 0.0
C65 C 0.55012 0.06331 0.09321 0.0
N66 N 0.40636 0.81902 0.85385 0.0
N67 N 0.66951 0.09016 0.16914 0.0
H68 H 0.52057 0.1954 0.17643 0.0
H69 H 0.60061 0.2066 0.24935 0.0
H70 H 0.70874 0.05938 0.17727 0.0
H71 H 0.68712 0.18011 0.2189 0.0
H72 H 0.38877 0.72925 0.80379 0.0
H73 H 0.36719 0.84995 0.84563 0.0
H74 H 0.47498 0.70159 0.77451 0.0
H75 H 0.55509 0.71304 0.84739 0.0
C76 C 0.04164 0.51848 0.129 0.0
C77 C 1.03728 0.57629 0.01183 0.0
C78 C 1.03412 0.39065 0.89335 0.0
C79 C 0.03854 0.33292 1.01053 0.0
N80 N 0.05353 0.34306 0.23951 0.0
N81 N 1.02251 0.56638 0.78284 0.0
C82 C 0.04365 0.3967 0.12842 0.0
C83 C 1.03222 0.51255 0.89392 0.0
N84 N 0.04311 0.57994 0.24042 0.0
N85 N 1.03245 0.32896 0.78193 0.0
H86 H 1.02124 0.65578 0.78 0.0
H87 H 1.01196 0.52079 0.69301 0.0
H88 H 1.0294 0.236 0.77783 0.0
H89 H 1.03673 0.37046 0.69348 0.0
H90 H 0.03861 0.53816 0.32876 0.0
H91 H 0.04612 0.67286 0.24459 0.0
H92 H 0.0643 0.38892 0.32927 0.0
H93 H 0.0548 0.25367 0.2424 0.0
loop_
_geom_bond_atom_site_label_1
_geom_bond_atom_site_label_2
_geom_bond_distance
_geom_bond_site_symmetry_2
_ccdc_geom_bond_type
Sm0 C2 2.846 . S
Sm0 O20 2.543 1_556 S
Sm0 O21 2.450 . S
Sm0 O22 2.681 1_665 S
Sm0 O23 2.464 . S
Sm0 O24 2.396 1_565 S
Sm0 O28 2.386 1_566 S
Sm0 O31 2.408 . S
Sm1 C11 2.846 . S
Sm1 O22 2.386 1_554 S
Sm1 O25 2.408 . S
Sm1 O26 2.543 1_554 S
Sm1 O27 2.450 . S
Sm1 O28 2.681 1_455 S
Sm1 O29 2.464 . S
Sm1 O30 2.396 1_545 S
C2 Sm0 2.846 . S
C2 C3 1.506 . S
C2 O20 1.261 1_556 S
C2 O21 1.242 . S
C3 C2 1.506 . S
C3 C4 1.358 1_566 S
C3 C8 1.382 . S
C4 C3 1.358 1_544 S
C4 C5 1.385 . S
C4 H32 0.930 . S
C5 C4 1.385 . S
C5 C6 1.395 1_544 S
C5 H33 0.929 . S
C6 C5 1.395 1_566 S
C6 C7 1.335 . S
C7 C6 1.335 . S
C7 C8 1.398 . S
C7 H34 0.930 . S
C8 C3 1.382 . S
C8 C7 1.398 . S
C8 H35 0.929 . S
C9 O22 1.271 1_665 S
C9 O23 1.251 . S
C10 O24 1.252 1_455 S
C10 O25 1.272 1_556 S
C11 Sm1 2.846 . S
C11 C12 1.506 . S
C11 O26 1.261 1_554 S
C11 O27 1.242 . S
C12 C11 1.506 . S
C12 C13 1.358 1_544 S
C12 C17 1.382 . S
C13 C12 1.358 1_566 S
C13 C14 1.385 . S
C13 H36 0.930 . S
C14 C13 1.385 . S
C14 C15 1.395 1_566 S
C14 H37 0.929 . S
C15 C14 1.395 1_544 S
C15 C16 1.335 . S
C16 C15 1.335 . S
C16 C17 1.398 . S
C16 H38 0.930 . S
C17 C12 1.382 . S
C17 C16 1.398 . S
C17 H39 0.929 . S
C18 O28 1.271 1_455 S
C18 O29 1.251 . S
C19 O30 1.252 1_655 S
C19 O31 1.272 1_554 S
O20 Sm0 2.543 1_554 S
O20 C2 1.261 1_554 S
O21 Sm0 2.450 . S
O21 C2 1.242 . S
O22 Sm0 2.681 1_445 S
O22 Sm1 2.386 1_556 S
O22 C9 1.271 1_445 S
O23 Sm0 2.464 . S
O23 C9 1.251 . S
O24 Sm0 2.396 1_545 S
O24 C10 1.252 1_655 S
O25 Sm1 2.408 . S
O25 C10 1.272 1_554 S
O26 Sm1 2.543 1_556 S
O26 C11 1.261 1_556 S
O27 Sm1 2.450 . S
O27 C11 1.242 . S
O28 Sm0 2.386 1_544 S
O28 Sm1 2.681 1_655 S
O28 C18 1.271 1_655 S
O29 Sm1 2.464 . S
O29 C18 1.251 . S
O30 Sm1 2.396 1_565 S
O30 C19 1.252 1_455 S
O31 Sm0 2.408 . S
O31 C19 1.272 1_556 S
H32 C4 0.930 . S
H33 C5 0.929 . S
H34 C7 0.930 . S
H35 C8 0.929 . S
H36 C13 0.930 . S
H37 C14 0.929 . S
H38 C16 0.930 . S
H39 C17 0.929 . S
C40 C41 1.363 1_665 S
C40 C46 1.379 . S
C40 N48 1.356 . S
C41 C40 1.363 1_445 S
C41 C47 1.363 . S
C42 C43 1.363 . S
C42 C47 1.379 . S
C42 N49 1.356 . S
C43 C42 1.363 . S
C43 C46 1.363 1_445 S
N44 C46 1.356 . S
N44 H56 0.984 . S
N44 H57 0.985 . S
N45 C47 1.356 . S
N45 H50 0.984 . S
N45 H51 0.985 . S
C46 C40 1.379 . S
C46 C43 1.363 1_665 S
C46 N44 1.356 . S
C47 C41 1.363 . S
C47 C42 1.379 . S
C47 N45 1.356 . S
N48 C40 1.356 . S
N48 H54 0.984 . S
N48 H55 0.984 . S
N49 C42 1.356 . S
N49 H52 0.984 . S
N49 H53 0.985 . S
H50 N45 0.984 . S
H51 N45 0.985 . S
H52 N49 0.984 . S
H53 N49 0.985 . S
H54 N48 0.984 . S
H55 N48 0.984 . S
H56 N44 0.984 . S
H57 N44 0.985 . S
C58 C59 1.363 1_566 S
C58 C64 1.379 . S
C58 N66 1.356 . S
C59 C58 1.363 1_544 S
C59 C65 1.363 . S
C60 C61 1.363 . S
C60 C65 1.379 . S
C60 N67 1.356 . S
C61 C60 1.363 . S
C61 C64 1.363 1_544 S
N62 C64 1.356 . S
N62 H74 0.984 . S
N62 H75 0.985 . S
N63 C65 1.356 . S
N63 H68 0.984 . S
N63 H69 0.985 . S
C64 C58 1.379 . S
C64 C61 1.363 1_566 S
C64 N62 1.356 . S
C65 C59 1.363 . S
C65 C60 1.379 . S
C65 N63 1.356 . S
N66 C58 1.356 . S
N66 H72 0.984 . S
N66 H73 0.984 . S
N67 C60 1.356 . S
N67 H70 0.984 . S
N67 H71 0.985 . S
H68 N63 0.984 . S
H69 N63 0.985 . S
H70 N67 0.984 . S
H71 N67 0.985 . S
H72 N66 0.984 . S
H73 N66 0.984 . S
H74 N62 0.984 . S
H75 N62 0.985 . S
C76 C77 1.363 . S
C76 C82 1.379 . S
C76 N84 1.356 . S
C77 C76 1.363 . S
C77 C83 1.363 1_454 S
C78 C79 1.363 1_656 S
C78 C83 1.379 . S
C78 N85 1.356 . S
C79 C78 1.363 1_454 S
C79 C82 1.363 . S
N80 C82 1.356 . S
N80 H92 0.984 . S
N80 H93 0.985 . S
N81 C83 1.356 . S
N81 H86 0.984 . S
N81 H87 0.985 . S
C82 C76 1.379 . S
C82 C79 1.363 . S
C82 N80 1.356 . S
C83 C77 1.363 1_656 S
C83 C78 1.379 . S
C83 N81 1.356 . S
N84 C76 1.356 . S
N84 H90 0.984 . S
N84 H91 0.984 . S
N85 C78 1.356 . S
N85 H88 0.984 . S
N85 H89 0.985 . S
H86 N81 0.984 . S
H87 N81 0.985 . S
H88 N85 0.984 . S
H89 N85 0.985 . S
H90 N84 0.984 . S
H91 N84 0.984 . S
H92 N80 0.984 . S
H93 N80 0.985 . S
C41 C18 1.453 . S
C43 C9 1.453 1_445 S
C59 C15 1.499 . S
C61 C6 1.499 1_544 S
C77 C19 1.490 1_455 S
C79 C10 1.490 1_554 S
