# Generated by pormake.
# Topology pcu, (6)-cn, num edge types: 1
# Building blocks:
#     Node 0, Type 0, BuildingBlock: INOVEN_clean_sbu_0, # of connection points: 6
#     Edge 1, Type (0, 0), BuildingBlock: FUNLAD_clean_linker_1, # of connection points: 2
#     Edge 2, Type (0, 0), BuildingBlock: FUNLAD_clean_linker_1, # of connection points: 2
#     Edge 3, Type (0, 0), BuildingBlock: FUNLAD_clean_linker_1, # of connection points: 2
# Relax obj value: 0.000
# Max RMSD: 0.000
# Mean RMSD: 0.000
data_MOF--net-pcu--node1-INOVEN_clean_sbu_0--edge1-FUNLAD_clean_linker_1
_symmetry_space_group_name_H-M    P1
_symmetry_Int_Tables_number       1
_symmetry_cell_setting            triclinic
loop_
_symmetry_equiv_pos_as_xyz
'x, y, z'
_cell_length_a     25.985465
_cell_length_b     15.909639
_cell_length_c     14.621938
_cell_angle_alpha  86.430996
_cell_angle_beta   97.1733
_cell_angle_gamma 123.53093
loop_
_atom_site_label
_atom_site_type_symbol
_atom_site_fract_x
_atom_site_fract_y
_atom_site_fract_z
_atom_type_partial_charge
Gd0 Gd 0.96406 0.93226 0.04765 0.0
Gd1 Gd 0.09762 0.03897 1.00873 0.0
C2 C 0.04099 0.17092 0.99894 0.0
C3 C 0.85941 0.87477 0.10734 0.0
C4 C 0.80713 0.88843 0.08862 0.0
C5 C 0.74628 0.80264 0.07944 0.0
C6 C 0.81631 0.98429 0.081 0.0
C7 C 0.70408 0.9073 0.05682 0.0
C8 C 0.76529 -0.00627 0.0652 0.0
C9 C 0.69549 0.81195 0.06328 0.0
C10 C 0.97873 0.92418 0.86895 0.0
C11 C 1.02064 0.80024 0.05712 0.0
C12 C 0.20246 0.09675 0.94956 0.0
C13 C 0.25471 0.08301 0.96831 0.0
C14 C 0.31557 0.16875 0.97768 0.0
C15 C 0.24548 -0.01289 0.97578 0.0
C16 C 0.3577 0.06399 1.00015 0.0
C17 C 0.29647 0.9776 0.9916 0.0
C18 C 0.36633 0.15937 0.99386 0.0
C19 C 0.08256 0.0469 0.1874 0.0
O20 O 0.99577 0.09634 0.04251 0.0
O21 O 0.08123 0.16017 0.9633 0.0
O22 O 0.86458 0.82513 0.04507 0.0
O23 O 0.91318 0.95085 0.1428 0.0
O24 O 0.93299 0.8526 0.91008 0.0
O25 O 1.01196 -4e-05 0.92131 0.0
O26 O 0.06589 0.87488 1.01364 0.0
O27 O 0.98041 0.81096 0.09283 0.0
O28 O 0.19715 0.14604 1.01199 0.0
O29 O 0.14876 0.02086 0.9137 0.0
O30 O 0.12826 0.11873 0.14636 0.0
O31 O 0.04974 0.97118 0.13493 0.0
H32 H 0.73796 0.72793 0.08502 0.0
H33 H 0.8628 0.05186 0.08705 0.0
H34 H 0.77424 0.06864 0.0584 0.0
H35 H 0.64912 0.74403 0.05657 0.0
H36 H 0.32392 0.24349 0.97222 0.0
H37 H 0.19898 0.91957 0.96959 0.0
H38 H 0.2875 0.90267 0.99827 0.0
H39 H 0.41271 0.22726 1.0007 0.0
H40 H 0.11214 0.11849 0.32446 0.0
C41 C 0.07716 0.05001 0.28617 0.0
H42 H 0.99744 0.90277 0.29308 0.0
H43 H 0.05858 0.86643 0.72257 0.0
H44 H 0.07423 0.74595 0.65944 0.0
H45 H 0.06949 0.72971 0.49142 0.0
H46 H 0.04959 0.83459 0.38558 0.0
C47 C 0.03159 0.97277 0.32991 0.0
C48 C 1.02981 0.97813 0.43112 0.0
C49 C 0.04 0.91456 0.49215 0.0
C50 C 0.04147 0.92247 0.58912 0.0
C51 C 0.05474 0.86127 0.64835 0.0
C52 C 0.06437 0.79229 0.61305 0.0
C53 C 0.06182 0.7833 0.51847 0.0
C54 C 0.05019 0.84387 0.45845 0.0
H55 H 0.94882 0.85235 0.73194 0.0
C56 C 0.98395 0.92081 0.77014 0.0
H57 H 0.06384 0.06782 0.76297 0.0
H58 H 1.00228 0.10387 0.33357 0.0
H59 H 0.98668 0.2244 0.3967 0.0
H60 H 0.99147 0.24069 0.56473 0.0
H61 H 1.01139 0.13583 0.67057 0.0
C62 C 1.02953 -0.00217 0.72625 0.0
C63 C 0.03116 -0.00771 0.62502 0.0
C64 C 1.02094 0.05584 0.56399 0.0
C65 C 1.01946 0.0479 0.46702 0.0
C66 C 1.00617 0.10907 0.40779 0.0
C67 C 0.99655 0.17807 0.4431 0.0
C68 C 0.99912 0.18709 0.53767 0.0
C69 C 1.01077 0.12653 0.59769 0.0
H70 H 0.45763 0.12782 0.04151 0.0
C71 C 0.41388 0.05914 1.01765 0.0
H72 H 0.37332 0.90911 0.97251 0.0
H73 H 0.62725 -0.01304 0.87671 0.0
H74 H 0.5739 0.97071 0.72408 0.0
H75 H 0.47437 0.95868 0.70314 0.0
H76 H 0.42771 0.9634 0.83474 0.0
C77 C 0.41472 0.97728 1.0023 0.0
C78 C 0.474 0.98101 1.01614 0.0
C79 C 0.50016 0.976 0.93869 0.0
C80 C 0.55725 0.98151 0.95087 0.0
C81 C 0.58328 0.98031 0.87183 0.0
C82 C 0.55334 0.97172 0.78366 0.0
C83 C 0.49733 0.96506 0.77186 0.0
C84 C 0.47098 0.96758 0.8481 0.0
H85 H 0.60413 0.84337 1.01554 0.0
C86 C 0.64787 0.91209 0.03933 0.0
H87 H 0.68842 0.06216 0.08434 0.0
H88 H 0.43446 0.98417 0.1802 0.0
H89 H 0.48781 0.00042 0.33283 0.0
H90 H 0.58736 0.01248 0.35377 0.0
H91 H 0.63401 0.00778 0.22217 0.0
C92 C 0.64702 -0.00605 0.05461 0.0
C93 C 0.58772 -0.00983 0.04078 0.0
C94 C 0.56156 -0.00483 0.11822 0.0
C95 C 0.50447 -0.01034 0.10604 0.0
C96 C 0.47844 -0.00917 0.18509 0.0
C97 C 0.50838 -0.00058 0.27326 0.0
C98 C 0.56439 0.0061 0.28505 0.0
C99 C 0.59075 0.00359 0.20881 0.0
H100 H 0.97615 0.64145 0.10015 0.0
C101 C 1.01446 0.70239 0.06575 0.0
H102 H 0.09016 0.745 0.99176 0.0
H103 H 0.03567 0.32227 0.19954 0.0
H104 H 0.06789 0.41559 0.34286 0.0
H105 H 0.0904 0.58784 0.34431 0.0
H106 H 0.08052 0.66751 0.2025 0.0
C107 C 0.05305 0.68576 0.02919 0.0
C108 C 0.04216 0.58368 0.02907 0.0
C109 C 0.04894 0.53877 0.11267 0.0
C110 C 0.03691 0.44009 0.11162 0.0
C111 C 0.04401 0.39691 0.19613 0.0
C112 C 0.06266 0.44975 0.27901 0.0
C113 C 0.07528 0.54667 0.27983 0.0
C114 C 0.06892 0.59124 0.19788 0.0
H115 H 0.08546 0.32968 0.9558 0.0
C116 C 0.04715 0.26876 0.99021 0.0
H117 H 0.97144 0.22616 0.06415 0.0
H118 H 1.0259 0.64886 0.85636 0.0
H119 H 0.99365 0.55551 0.71305 0.0
H120 H 0.97118 0.38329 0.7116 0.0
H121 H 0.9811 0.30365 0.85341 0.0
C122 C 1.00855 0.28539 1.02672 0.0
C123 C 1.01944 0.38748 1.02683 0.0
C124 C 1.01266 0.43238 0.94323 0.0
C125 C 1.02468 0.53106 0.94429 0.0
C126 C 1.01757 0.57422 0.85977 0.0
C127 C 0.9989 0.52137 0.7769 0.0
C128 C 0.9863 0.42446 0.77607 0.0
C129 C 0.99268 0.37991 0.85803 0.0
loop_
_geom_bond_atom_site_label_1
_geom_bond_atom_site_label_2
_geom_bond_distance
_geom_bond_site_symmetry_2
_ccdc_geom_bond_type
Gd0 C3 2.818 . S
Gd0 O20 2.377 1_565 S
Gd0 O22 2.448 . S
Gd0 O23 2.506 1_556 S
Gd0 O24 2.435 . S
Gd0 O25 2.717 1_665 S
Gd0 O27 2.395 . S
Gd0 O31 2.327 1_556 S
Gd1 C12 2.818 . S
Gd1 O21 2.395 . S
Gd1 O25 2.327 1_554 S
Gd1 O26 2.377 1_545 S
Gd1 O28 2.448 . S
Gd1 O29 2.506 1_554 S
Gd1 O30 2.435 . S
Gd1 O31 2.717 1_445 S
C2 O20 1.240 1_455 S
C2 O21 1.240 1_556 S
C3 Gd0 2.818 . S
C3 C4 1.510 . S
C3 O22 1.249 . S
C3 O23 1.252 1_556 S
C4 C3 1.510 . S
C4 C5 1.404 . S
C4 C6 1.352 1_566 S
C5 C4 1.404 . S
C5 C9 1.389 . S
C5 H32 0.930 . S
C6 C4 1.352 1_544 S
C6 C8 1.374 . S
C6 H33 0.931 . S
C7 C8 1.359 1_565 S
C7 C9 1.364 1_554 S
C8 C6 1.374 . S
C8 C7 1.359 1_545 S
C8 H34 0.931 . S
C9 C5 1.389 . S
C9 C7 1.364 1_556 S
C9 H35 0.931 . S
C10 O24 1.256 . S
C10 O25 1.257 1_665 S
C11 O26 1.240 1_655 S
C11 O27 1.240 1_554 S
C12 Gd1 2.818 . S
C12 C13 1.510 . S
C12 O28 1.249 . S
C12 O29 1.252 1_554 S
C13 C12 1.510 . S
C13 C14 1.404 . S
C13 C15 1.352 1_544 S
C14 C13 1.404 . S
C14 C18 1.389 . S
C14 H36 0.930 . S
C15 C13 1.352 1_566 S
C15 C17 1.374 . S
C15 H37 0.931 . S
C16 C17 1.359 1_545 S
C16 C18 1.364 1_556 S
C17 C15 1.374 . S
C17 C16 1.359 1_565 S
C17 H38 0.931 . S
C18 C14 1.389 . S
C18 C16 1.364 1_554 S
C18 H39 0.931 . S
C19 O30 1.256 . S
C19 O31 1.257 1_445 S
O20 Gd0 2.377 1_545 S
O20 C2 1.240 1_655 S
O21 Gd1 2.395 . S
O21 C2 1.240 1_554 S
O22 Gd0 2.448 . S
O22 C3 1.249 . S
O23 Gd0 2.506 1_554 S
O23 C3 1.252 1_554 S
O24 Gd0 2.435 . S
O24 C10 1.256 . S
O25 Gd0 2.717 1_445 S
O25 Gd1 2.327 1_556 S
O25 C10 1.257 1_445 S
O26 Gd1 2.377 1_565 S
O26 C11 1.240 1_455 S
O27 Gd0 2.395 . S
O27 C11 1.240 1_556 S
O28 Gd1 2.448 . S
O28 C12 1.249 . S
O29 Gd1 2.506 1_556 S
O29 C12 1.252 1_556 S
O30 Gd1 2.435 . S
O30 C19 1.256 . S
O31 Gd0 2.327 1_554 S
O31 Gd1 2.717 1_665 S
O31 C19 1.257 1_665 S
H32 C5 0.930 . S
H33 C6 0.931 . S
H34 C8 0.931 . S
H35 C9 0.931 . S
H36 C14 0.930 . S
H37 C15 0.931 . S
H38 C17 0.931 . S
H39 C18 0.931 . S
H40 C41 0.951 . S
C41 H40 0.951 . S
C41 C47 1.265 1_445 S
H42 C47 0.950 . S
H43 C51 0.949 . S
H44 C52 0.950 . S
H45 C53 0.951 . S
H46 C54 0.951 . S
C47 C41 1.265 1_665 S
C47 H42 0.950 . S
C47 C48 1.478 . S
C48 C47 1.478 . S
C48 C49 1.397 . S
C48 C65 1.394 1_665 S
C49 C48 1.397 . S
C49 C50 1.438 . S
C49 C54 1.429 . S
C50 C49 1.438 . S
C50 C51 1.428 . S
C50 C63 1.394 1_665 S
C51 H43 0.949 . S
C51 C50 1.428 . S
C51 C52 1.345 . S
C52 H44 0.950 . S
C52 C51 1.345 . S
C52 C53 1.424 . S
C53 H45 0.951 . S
C53 C52 1.424 . S
C53 C54 1.347 . S
C54 H46 0.951 . S
C54 C49 1.429 . S
C54 C53 1.347 . S
H55 C56 0.951 . S
C56 H55 0.951 . S
C56 C62 1.265 1_665 S
H57 C62 0.950 . S
H58 C66 0.949 . S
H59 C67 0.950 . S
H60 C68 0.951 . S
H61 C69 0.951 . S
C62 C56 1.265 1_445 S
C62 H57 0.950 . S
C62 C63 1.478 . S
C63 C50 1.394 1_445 S
C63 C62 1.478 . S
C63 C64 1.397 . S
C64 C63 1.397 . S
C64 C65 1.438 . S
C64 C69 1.429 . S
C65 C48 1.394 1_445 S
C65 C64 1.438 . S
C65 C66 1.428 . S
C66 H58 0.949 . S
C66 C65 1.428 . S
C66 C67 1.345 . S
C67 H59 0.950 . S
C67 C66 1.345 . S
C67 C68 1.424 . S
C68 H60 0.951 . S
C68 C67 1.424 . S
C68 C69 1.347 . S
C69 H61 0.951 . S
C69 C64 1.429 . S
C69 C68 1.347 . S
H70 C71 0.951 . S
C71 H70 0.951 . S
C71 C77 1.265 1_544 S
H72 C77 0.950 . S
H73 C81 0.949 . S
H74 C82 0.950 . S
H75 C83 0.951 . S
H76 C84 0.951 . S
C77 C71 1.265 1_566 S
C77 H72 0.950 . S
C77 C78 1.478 . S
C78 C77 1.478 . S
C78 C79 1.397 . S
C78 C95 1.394 1_566 S
C79 C78 1.397 . S
C79 C80 1.438 . S
C79 C84 1.429 . S
C80 C79 1.438 . S
C80 C81 1.428 . S
C80 C93 1.394 1_566 S
C81 H73 0.949 . S
C81 C80 1.428 . S
C81 C82 1.345 . S
C82 H74 0.950 . S
C82 C81 1.345 . S
C82 C83 1.424 . S
C83 H75 0.951 . S
C83 C82 1.424 . S
C83 C84 1.347 . S
C84 H76 0.951 . S
C84 C79 1.429 . S
C84 C83 1.347 . S
H85 C86 0.951 . S
C86 H85 0.951 . S
C86 C92 1.265 1_566 S
H87 C92 0.950 . S
H88 C96 0.949 . S
H89 C97 0.950 . S
H90 C98 0.951 . S
H91 C99 0.951 . S
C92 C86 1.265 1_544 S
C92 H87 0.950 . S
C92 C93 1.478 . S
C93 C80 1.394 1_544 S
C93 C92 1.478 . S
C93 C94 1.397 . S
C94 C93 1.397 . S
C94 C95 1.438 . S
C94 C99 1.429 . S
C95 C78 1.394 1_544 S
C95 C94 1.438 . S
C95 C96 1.428 . S
C96 H88 0.949 . S
C96 C95 1.428 . S
C96 C97 1.345 . S
C97 H89 0.950 . S
C97 C96 1.345 . S
C97 C98 1.424 . S
C98 H90 0.951 . S
C98 C97 1.424 . S
C98 C99 1.347 . S
C99 H91 0.951 . S
C99 C94 1.429 . S
C99 C98 1.347 . S
H100 C101 0.951 . S
C101 H100 0.951 . S
C101 C107 1.265 1_656 S
H102 C107 0.950 . S
H103 C111 0.949 . S
H104 C112 0.950 . S
H105 C113 0.951 . S
H106 C114 0.951 . S
C107 C101 1.265 1_454 S
C107 H102 0.950 . S
C107 C108 1.478 . S
C108 C107 1.478 . S
C108 C109 1.397 . S
C108 C125 1.394 1_454 S
C109 C108 1.397 . S
C109 C110 1.438 . S
C109 C114 1.429 . S
C110 C109 1.438 . S
C110 C111 1.428 . S
C110 C123 1.394 1_454 S
C111 H103 0.949 . S
C111 C110 1.428 . S
C111 C112 1.345 . S
C112 H104 0.950 . S
C112 C111 1.345 . S
C112 C113 1.424 . S
C113 H105 0.951 . S
C113 C112 1.424 . S
C113 C114 1.347 . S
C114 H106 0.951 . S
C114 C109 1.429 . S
C114 C113 1.347 . S
H115 C116 0.952 . S
C116 H115 0.952 . S
C116 C122 1.265 1_454 S
H117 C122 0.950 . S
H118 C126 0.949 . S
H119 C127 0.950 . S
H120 C128 0.951 . S
H121 C129 0.951 . S
C122 C116 1.265 1_656 S
C122 H117 0.950 . S
C122 C123 1.478 . S
C123 C110 1.394 1_656 S
C123 C122 1.478 . S
C123 C124 1.397 . S
C124 C123 1.397 . S
C124 C125 1.438 . S
C124 C129 1.429 . S
C125 C108 1.394 1_656 S
C125 C124 1.438 . S
C125 C126 1.428 . S
C126 H118 0.949 . S
C126 C125 1.428 . S
C126 C127 1.345 . S
C127 H119 0.950 . S
C127 C126 1.345 . S
C127 C128 1.424 . S
C128 H120 0.951 . S
C128 C127 1.424 . S
C128 C129 1.347 . S
C129 H121 0.951 . S
C129 C124 1.429 . S
C129 C128 1.347 . S
C41 C19 1.408 . S
C56 C10 1.408 . S
C71 C16 1.483 1_554 S
C86 C7 1.483 1_556 S
C101 C11 1.477 1_556 S
C116 C2 1.476 1_554 S
