# Generated by pormake.
# Topology pcu, (6)-cn, num edge types: 1
# Building blocks:
#     Node 0, Type 0, BuildingBlock: LEVNOQ01_clean_sbu_1, # of connection points: 6
#     Edge 1, Type (0, 0), BuildingBlock: MIFKUJ_clean_linker_0, # of connection points: 2
#     Edge 2, Type (0, 0), BuildingBlock: MIFKUJ_clean_linker_0, # of connection points: 2
#     Edge 3, Type (0, 0), BuildingBlock: MIFKUJ_clean_linker_0, # of connection points: 2
# Relax obj value: 0.007
# Max RMSD: 0.050
# Mean RMSD: 0.050
data_MOF--net-pcu--node1-LEVNOQ01_clean_sbu_1--edge1-MIFKUJ_clean_linker_0
_symmetry_space_group_name_H-M    P1
_symmetry_Int_Tables_number       1
_symmetry_cell_setting            triclinic
loop_
_symmetry_equiv_pos_as_xyz
'x, y, z'
_cell_length_a     20.585273
_cell_length_b     20.68481
_cell_length_c     20.042782
_cell_angle_alpha  79.374683
_cell_angle_beta   100.53017
_cell_angle_gamma 101.89636
loop_
_atom_site_label
_atom_site_type_symbol
_atom_site_fract_x
_atom_site_fract_y
_atom_site_fract_z
_atom_type_partial_charge
O0 O 0.83479 0.05043 0.93034 0.0
Mg1 Mg 0.91319 0.08485 0.8721 0.0
O2 O 0.88226 0.97541 0.00694 0.0
Mg3 Mg -0.00521 -0.00417 0.99572 0.0
O4 O 0.97891 0.02132 0.87957 0.0
O5 O 0.89838 0.0309 0.7919 0.0
O6 O 0.10928 0.01446 0.98643 0.0
O7 O 0.98283 0.88437 0.97958 0.0
Mg8 Mg 0.07318 0.90999 0.11761 0.0
O9 O 0.01095 0.97435 0.11375 0.0
O10 O 0.1609 0.9591 0.08017 0.0
O11 O 0.02171 0.82517 0.07726 0.0
O12 O 0.06013 0.9213 0.21181 0.0
C13 C 0.00397 0.16464 0.96766 0.0
C14 C 0.83213 0.00343 0.98042 0.0
C15 C 0.94582 0.00016 0.82444 0.0
C16 C 0.16243 -0.00216 0.02353 0.0
C17 C 0.99207 0.82862 0.01598 0.0
C18 C 0.0205 0.96183 0.18027 0.0
O19 O 0.98064 0.1674 0.90421 0.0
O20 O 0.0054 0.10883 0.00775 0.0
H21 H 0.91054 0.89987 0.23366 0.0
H22 H 0.89495 0.91084 0.34788 0.0
H23 H 0.04144 0.09358 0.34112 0.0
H24 H 0.05937 0.08011 0.22737 0.0
H25 H 0.08132 0.00481 0.44132 0.0
H26 H 0.87175 0.08292 0.36608 0.0
H27 H 0.75828 0.08001 0.29925 0.0
H28 H 0.69375 0.8843 0.40715 0.0
H29 H 0.80705 0.88557 0.47394 0.0
H30 H 0.06076 0.05391 0.77615 0.0
H31 H 0.07495 0.04662 0.66068 0.0
H32 H 0.91633 0.87349 0.65725 0.0
H33 H 0.89791 0.88554 0.77107 0.0
H34 H 0.88269 0.96143 0.56083 0.0
H35 H 0.09121 0.88025 0.63364 0.0
H36 H 0.20503 0.87998 0.69889 0.0
H37 H 0.27196 0.0768 0.59475 0.0
H38 H 0.15835 0.0787 0.52957 0.0
C39 C 0.93605 0.94464 0.2548 0.0
C40 C 0.98576 0.98934 0.22229 0.0
C41 C 0.92751 0.95077 0.32046 0.0
C42 C 0.96751 0.00279 0.35347 0.0
C43 C 0.01042 0.05283 0.31669 0.0
C44 C 0.01976 0.04592 0.25128 0.0
C45 C 0.9738 -0.00263 0.42894 0.0
C46 C 0.03802 -0.00331 0.46758 0.0
C47 C 0.9171 0.98386 0.46303 0.0
C48 C 0.84806 0.9843 0.42492 0.0
C49 C 0.83341 0.03921 0.37551 0.0
C50 C 0.76911 0.03782 0.33757 0.0
C51 C 0.71886 0.98198 0.3489 0.0
C52 C 0.7327 0.92755 0.39847 0.0
C53 C 0.79691 0.92865 0.4365 0.0
C54 C 0.03177 0.01183 0.75239 0.0
C55 C 0.97811 0.97044 0.7818 0.0
C56 C 0.03966 0.00778 0.68582 0.0
C57 C -0.00386 0.9599 0.64949 0.0
C58 C 0.94979 0.91153 0.68381 0.0
C59 C 0.94011 0.91741 0.74937 0.0
C60 C 0.99033 0.96815 0.57363 0.0
C61 C 0.92615 0.96952 0.53483 0.0
C62 C 0.04708 0.9818 0.53939 0.0
C63 C 0.11607 0.97971 0.57693 0.0
C64 C 0.13013 0.92355 0.62477 0.0
C65 C 0.19463 0.92313 0.66178 0.0
C66 C 0.24565 0.97838 0.65105 0.0
C67 C 0.23239 0.03403 0.60301 0.0
C68 C 0.16799 0.03475 0.56591 0.0
H69 H 0.29549 0.97803 0.67991 0.0
H70 H 0.6692 0.9809 0.3193 0.0
H71 H 0.27077 0.075 0.08239 0.0
H72 H 0.38686 0.07399 0.07195 0.0
H73 H 0.31752 0.95635 0.90746 0.0
H74 H 0.20065 0.95769 0.91796 0.0
H75 H 0.40375 0.89827 0.01546 0.0
H76 H 0.40097 0.10953 0.87127 0.0
H77 H 0.37625 0.22385 0.83991 0.0
H78 H 0.51081 0.2824 0.01771 0.0
H79 H 0.53564 0.16807 0.0507 0.0
H80 H 0.72779 0.91738 0.928 0.0
H81 H 0.61064 0.91251 0.93926 0.0
H82 H 0.67428 0.04091 0.09506 0.0
H83 H 0.79185 0.04655 0.0826 0.0
H84 H 0.58973 0.09198 0.9894 0.0
H85 H 0.59278 0.88057 0.13389 0.0
H86 H 0.61836 0.76655 0.16472 0.0
H87 H 0.48433 0.70802 0.98663 0.0
H88 H 0.45859 0.82204 0.95416 0.0
C89 C 0.28058 0.05185 0.04182 0.0
C90 C 0.22752 0.01783 -0.00013 0.0
C91 C 0.34669 0.05062 0.03633 0.0
C92 C 0.36055 0.01491 0.98908 0.0
C93 C 0.30757 0.98418 0.94415 0.0
C94 C 0.24116 0.98598 0.94927 0.0
C95 C 0.43009 0.0055 0.99131 0.0
C96 C 0.44441 0.94043 0.00857 0.0
C97 C 0.48295 0.06074 0.98442 0.0
C98 C 0.46989 0.13013 0.96364 0.0
C99 C 0.42511 0.14672 0.90383 0.0
C100 C 0.41107 0.21151 0.88576 0.0
C101 C 0.44187 0.26033 0.92685 0.0
C102 C 0.48701 0.24452 0.98593 0.0
C103 C 0.50119 0.17975 0.00427 0.0
C104 C 0.7166 0.94172 0.96696 0.0
C105 C 0.76798 0.98119 0.00547 0.0
C106 C 0.64983 0.93933 0.97312 0.0
C107 C 0.63389 0.97641 0.01798 0.0
C108 C 0.68573 0.01196 0.06023 0.0
C109 C 0.75262 0.01445 0.05387 0.0
C110 C 0.56369 0.98474 0.01403 0.0
C111 C 0.54919 0.0497 0.99634 0.0
C112 C 0.51081 0.92936 0.02056 0.0
C113 C 0.52401 0.85999 0.04139 0.0
C114 C 0.56887 0.84344 0.10118 0.0
C115 C 0.58343 0.77882 0.11894 0.0
C116 C 0.55307 0.7301 0.0776 0.0
C117 C 0.50778 0.74582 0.01861 0.0
C118 C 0.49307 0.81041 0.00058 0.0
H119 H 0.56458 0.68015 0.09131 0.0
H120 H 0.43081 0.31044 0.91286 0.0
H121 H 0.87737 0.74016 0.98022 0.0
H122 H 0.8755 0.62419 0.96552 0.0
H123 H 0.09163 0.66667 0.97789 0.0
H124 H 0.09234 0.7821 0.9869 0.0
H125 H 0.05002 0.58002 0.90344 0.0
H126 H -0.00212 0.60391 0.1252 0.0
H127 H 0.92965 0.63361 0.20043 0.0
H128 H 0.75801 0.49782 0.12043 0.0
H129 H 0.8251 0.46782 0.04434 0.0
H130 H 0.11633 0.25396 0.00771 0.0
H131 H 0.11646 0.3694 0.02312 0.0
H132 H 0.89959 0.32801 0.99735 0.0
H133 H 0.90007 0.21304 0.98614 0.0
H134 H 0.94157 0.41328 0.07986 0.0
H135 H -0.00304 0.39191 0.85697 0.0
H136 H 0.06776 0.3632 0.78366 0.0
H137 H 0.23808 0.49582 0.87103 0.0
H138 H 0.16833 0.5249 0.9451 0.0
C139 C 0.92363 0.72496 0.97615 0.0
C140 C 0.98497 0.76917 0.98427 0.0
C141 C 0.9229 0.65866 0.96924 0.0
C142 C 0.98376 0.63604 0.97326 0.0
C143 C 0.04403 0.68242 0.97504 0.0
C144 C 0.04447 0.74851 0.97993 0.0
C145 C 0.98699 0.564 0.982 0.0
C146 C 0.0266 0.54377 0.94243 0.0
C147 C 0.9563 0.51631 0.0326 0.0
C148 C 0.91629 0.53415 0.07869 0.0
C149 C 0.94552 0.58064 0.12351 0.0
C150 C 0.90706 0.5975 0.16629 0.0
C151 C 0.8395 0.56775 0.16508 0.0
C152 C 0.8103 0.52091 0.12125 0.0
C153 C 0.84851 0.50393 0.07834 0.0
C154 C 0.06926 0.26929 0.00846 0.0
C155 C 0.00822 0.2255 0.9962 0.0
C156 C 0.06913 0.33517 0.0162 0.0
C157 C 0.00786 0.35779 0.00931 0.0
C158 C 0.94742 0.31196 0.00264 0.0
C159 C 0.94767 0.2463 0.99635 0.0
C160 C 0.0049 0.42971 0.0016 0.0
C161 C 0.96518 0.44979 0.04118 0.0
C162 C 0.03608 0.47751 0.95158 0.0
C163 C 0.07766 0.46006 0.90686 0.0
C164 C 0.04957 0.41468 0.86065 0.0
C165 C 0.0895 0.39839 0.81898 0.0
C166 C 0.15741 0.42754 0.8228 0.0
C167 C 0.18551 0.47321 0.86817 0.0
C168 C 0.14582 0.48965 0.90993 0.0
H169 H 0.18823 0.41485 0.79052 0.0
H170 H 0.80981 0.5809 0.1982 0.0
loop_
_geom_bond_atom_site_label_1
_geom_bond_atom_site_label_2
_geom_bond_distance
_geom_bond_site_symmetry_2
_ccdc_geom_bond_type
O0 Mg1 1.990 . S
O0 C14 1.253 . S
Mg1 O0 1.990 . S
Mg1 O4 2.180 . S
Mg1 O5 2.117 . S
Mg1 O19 2.030 . S
O2 Mg3 2.072 1_665 S
O2 C14 1.260 1_564 S
Mg3 O2 2.072 1_445 S
Mg3 O4 2.099 1_454 S
Mg3 O6 2.079 1_554 S
Mg3 O7 2.072 1_444 S
Mg3 O9 2.099 1_545 S
Mg3 O20 2.079 . S
O4 Mg1 2.180 . S
O4 Mg3 2.099 1_656 S
O4 C15 1.279 . S
O5 Mg1 2.117 . S
O5 C15 1.250 . S
O6 Mg3 2.079 1_556 S
O6 C16 1.264 1_546 S
O7 Mg3 2.072 1_666 S
O7 C17 1.260 1_656 S
Mg8 O9 2.180 . S
Mg8 O10 2.030 . S
Mg8 O11 1.990 . S
Mg8 O12 2.117 . S
O9 Mg3 2.099 1_565 S
O9 Mg8 2.180 . S
O9 C18 1.279 . S
O10 Mg8 2.030 . S
O10 C16 1.248 . S
O11 Mg8 1.990 . S
O11 C17 1.253 . S
O12 Mg8 2.117 . S
O12 C18 1.250 . S
C13 O19 1.248 . S
C13 O20 1.264 1_656 S
C14 O0 1.253 . S
C14 O2 1.260 1_546 S
C15 O4 1.279 . S
C15 O5 1.250 . S
C16 O6 1.264 1_564 S
C16 O10 1.248 . S
C17 O7 1.260 1_454 S
C17 O11 1.253 . S
C18 O9 1.279 . S
C18 O12 1.250 . S
O19 Mg1 2.030 . S
O19 C13 1.248 . S
O20 Mg3 2.079 . S
O20 C13 1.264 1_454 S
H21 C39 0.951 . S
H22 C41 0.951 . S
H23 C43 0.950 . S
H24 C44 0.950 . S
H25 C46 0.950 . S
H26 C49 0.950 . S
H27 C50 0.950 . S
H28 C52 0.950 . S
H29 C53 0.950 . S
H30 C54 0.951 . S
H31 C56 0.951 . S
H32 C58 0.950 . S
H33 C59 0.950 . S
H34 C61 0.950 . S
H35 C64 0.950 . S
H36 C65 0.950 . S
H37 C67 0.950 . S
H38 C68 0.950 . S
C39 H21 0.951 . S
C39 C40 1.366 . S
C39 C41 1.388 . S
C40 C39 1.366 . S
C40 C44 1.385 1_665 S
C41 H22 0.951 . S
C41 C39 1.388 . S
C41 C42 1.366 . S
C42 C41 1.366 . S
C42 C43 1.414 1_665 S
C42 C45 1.499 . S
C43 H23 0.950 . S
C43 C42 1.414 1_445 S
C43 C44 1.374 . S
C44 H24 0.950 . S
C44 C40 1.385 1_445 S
C44 C43 1.374 . S
C45 C42 1.499 . S
C45 C46 1.373 1_665 S
C45 C47 1.389 . S
C46 H25 0.950 . S
C46 C45 1.373 1_445 S
C46 C62 1.377 1_545 S
C47 C45 1.389 . S
C47 C48 1.524 . S
C47 C61 1.377 . S
C48 C47 1.524 . S
C48 C49 1.397 1_565 S
C48 C53 1.363 . S
C49 H26 0.950 . S
C49 C48 1.397 1_545 S
C49 C50 1.334 . S
C50 H27 0.950 . S
C50 C49 1.334 . S
C50 C51 1.287 1_545 S
C51 C50 1.287 1_565 S
C51 C52 1.524 . S
C51 H70 0.913 . S
C52 H28 0.950 . S
C52 C51 1.524 . S
C52 C53 1.415 . S
C53 H29 0.950 . S
C53 C48 1.363 . S
C53 C52 1.415 . S
C54 H30 0.951 . S
C54 C55 1.366 1_445 S
C54 C56 1.388 . S
C55 C54 1.366 1_665 S
C55 C59 1.385 . S
C56 H31 0.951 . S
C56 C54 1.388 . S
C56 C57 1.366 1_445 S
C57 C56 1.366 1_665 S
C57 C58 1.414 . S
C57 C60 1.499 . S
C58 H32 0.950 . S
C58 C57 1.414 . S
C58 C59 1.374 . S
C59 H33 0.950 . S
C59 C55 1.385 . S
C59 C58 1.374 . S
C60 C57 1.499 . S
C60 C61 1.373 . S
C60 C62 1.389 1_655 S
C61 H34 0.950 . S
C61 C47 1.377 . S
C61 C60 1.373 . S
C62 C46 1.377 1_565 S
C62 C60 1.389 1_455 S
C62 C63 1.524 1_565 S
C63 C62 1.524 1_545 S
C63 C64 1.397 1_545 S
C63 C68 1.363 . S
C64 H35 0.950 . S
C64 C63 1.397 1_565 S
C64 C65 1.334 . S
C65 H36 0.950 . S
C65 C64 1.334 . S
C65 C66 1.287 . S
C66 C65 1.287 . S
C66 C67 1.524 1_565 S
C66 H69 0.999 . S
C67 H37 0.950 . S
C67 C66 1.524 1_545 S
C67 C68 1.415 . S
C68 H38 0.950 . S
C68 C63 1.363 . S
C68 C67 1.415 . S
H69 C66 0.999 . S
H70 C51 0.913 . S
H71 C89 0.951 . S
H72 C91 0.951 . S
H73 C93 0.950 . S
H74 C94 0.950 . S
H75 C96 0.950 . S
H76 C99 0.950 . S
H77 C100 0.950 . S
H78 C102 0.950 1_554 S
H79 C103 0.950 . S
H80 C104 0.951 . S
H81 C106 0.951 . S
H82 C108 0.950 . S
H83 C109 0.950 . S
H84 C111 0.950 . S
H85 C114 0.950 . S
H86 C115 0.950 . S
H87 C117 0.950 1_556 S
H88 C118 0.950 . S
C89 H71 0.951 . S
C89 C90 1.366 . S
C89 C91 1.388 . S
C90 C89 1.366 . S
C90 C94 1.385 1_544 S
C91 H72 0.951 . S
C91 C89 1.388 . S
C91 C92 1.366 1_554 S
C92 C91 1.366 1_556 S
C92 C93 1.414 1_545 S
C92 C95 1.499 . S
C93 H73 0.950 . S
C93 C92 1.414 1_565 S
C93 C94 1.374 . S
C94 H74 0.950 . S
C94 C90 1.385 1_566 S
C94 C93 1.374 . S
C95 C92 1.499 . S
C95 C96 1.373 1_546 S
C95 C97 1.389 . S
C96 H75 0.950 . S
C96 C95 1.373 1_564 S
C96 C112 1.377 . S
C97 C95 1.389 . S
C97 C98 1.524 . S
C97 C111 1.377 . S
C98 C97 1.524 . S
C98 C99 1.397 . S
C98 C103 1.363 1_556 S
C99 H76 0.950 . S
C99 C98 1.397 . S
C99 C100 1.334 . S
C100 H77 0.950 . S
C100 C99 1.334 . S
C100 C101 1.287 . S
C101 C100 1.287 . S
C101 C102 1.524 . S
C101 H120 0.913 . S
C102 H78 0.950 1_556 S
C102 C101 1.524 . S
C102 C103 1.415 1_556 S
C103 H79 0.950 . S
C103 C98 1.363 1_554 S
C103 C102 1.415 1_554 S
C104 H80 0.951 . S
C104 C105 1.366 1_566 S
C104 C106 1.388 . S
C105 C104 1.366 1_544 S
C105 C109 1.385 . S
C106 H81 0.951 . S
C106 C104 1.388 . S
C106 C107 1.361 1_566 S
C107 C106 1.361 1_544 S
C107 C108 1.417 . S
C107 C110 1.500 . S
C108 H82 0.950 . S
C108 C107 1.417 . S
C108 C109 1.374 . S
C109 H83 0.950 . S
C109 C105 1.385 . S
C109 C108 1.374 . S
C110 C107 1.500 . S
C110 C111 1.373 1_554 S
C110 C112 1.389 1_545 S
C111 H84 0.950 . S
C111 C97 1.377 . S
C111 C110 1.373 1_556 S
C112 C96 1.377 . S
C112 C110 1.389 1_565 S
C112 C113 1.524 . S
C113 C112 1.524 . S
C113 C114 1.397 . S
C113 C118 1.363 1_554 S
C114 H85 0.950 . S
C114 C113 1.397 . S
C114 C115 1.334 . S
C115 H86 0.950 . S
C115 C114 1.334 . S
C115 C116 1.287 . S
C116 C115 1.287 . S
C116 C117 1.524 . S
C116 H119 0.999 . S
C117 H87 0.950 1_554 S
C117 C116 1.524 . S
C117 C118 1.415 1_554 S
C118 H88 0.950 . S
C118 C113 1.363 1_556 S
C118 C117 1.415 1_556 S
H119 C116 0.999 . S
H120 C101 0.913 . S
H121 C139 0.951 . S
H122 C141 0.951 . S
H123 C143 0.950 . S
H124 C144 0.950 . S
H125 C146 0.950 . S
H126 C149 0.950 . S
H127 C150 0.950 . S
H128 C152 0.950 . S
H129 C153 0.950 . S
H130 C154 0.951 . S
H131 C156 0.951 . S
H132 C158 0.950 . S
H133 C159 0.950 . S
H134 C161 0.950 . S
H135 C164 0.950 . S
H136 C165 0.950 . S
H137 C167 0.950 . S
H138 C168 0.950 . S
C139 H121 0.951 . S
C139 C140 1.366 1_655 S
C139 C141 1.388 . S
C140 C139 1.366 1_455 S
C140 C144 1.385 1_556 S
C141 H122 0.951 . S
C141 C139 1.388 . S
C141 C142 1.366 1_656 S
C142 C141 1.366 1_454 S
C142 C143 1.414 . S
C142 C145 1.499 . S
C143 H123 0.950 . S
C143 C142 1.414 . S
C143 C144 1.374 . S
C144 H124 0.950 . S
C144 C140 1.385 1_554 S
C144 C143 1.374 . S
C145 C142 1.499 . S
C145 C146 1.373 1_554 S
C145 C147 1.389 1_455 S
C146 H125 0.950 . S
C146 C145 1.373 1_556 S
C146 C162 1.377 . S
C147 C145 1.389 1_655 S
C147 C148 1.524 . S
C147 C161 1.377 . S
C148 C147 1.524 . S
C148 C149 1.397 . S
C148 C153 1.363 . S
C149 H126 0.950 . S
C149 C148 1.397 . S
C149 C150 1.334 . S
C150 H127 0.950 . S
C150 C149 1.334 . S
C150 C151 1.287 . S
C151 C150 1.287 . S
C151 C152 1.524 . S
C151 H170 0.913 . S
C152 H128 0.950 . S
C152 C151 1.524 . S
C152 C153 1.415 . S
C153 H129 0.950 . S
C153 C148 1.363 . S
C153 C152 1.415 . S
C154 H130 0.951 . S
C154 C155 1.366 1_554 S
C154 C156 1.388 . S
C155 C154 1.366 1_556 S
C155 C159 1.385 1_455 S
C156 H131 0.951 . S
C156 C154 1.388 . S
C156 C157 1.366 1_554 S
C157 C156 1.366 1_556 S
C157 C158 1.414 1_455 S
C157 C160 1.499 . S
C158 H132 0.950 . S
C158 C157 1.414 1_655 S
C158 C159 1.374 . S
C159 H133 0.950 . S
C159 C155 1.385 1_655 S
C159 C158 1.374 . S
C160 C157 1.499 . S
C160 C161 1.373 1_456 S
C160 C162 1.389 . S
C161 H134 0.950 . S
C161 C147 1.377 . S
C161 C160 1.373 1_654 S
C162 C146 1.377 . S
C162 C160 1.389 . S
C162 C163 1.524 . S
C163 C162 1.524 . S
C163 C164 1.397 . S
C163 C168 1.363 . S
C164 H135 0.950 . S
C164 C163 1.397 . S
C164 C165 1.334 . S
C165 H136 0.950 . S
C165 C164 1.334 . S
C165 C166 1.287 . S
C166 C165 1.287 . S
C166 C167 1.524 . S
C166 H169 0.999 . S
C167 H137 0.950 . S
C167 C166 1.524 . S
C167 C168 1.415 . S
C168 H138 0.950 . S
C168 C163 1.363 . S
C168 C167 1.415 . S
H169 C166 0.999 . S
H170 C151 0.913 . S
C40 C18 1.296 1_655 S
C55 C15 1.296 1_565 S
C90 C16 1.450 1_545 S
C105 C14 1.445 1_554 S
C140 C17 1.446 1_556 S
C155 C13 1.451 1_455 S
