# Generated by pormake.
# Topology bcu, (8)-cn, num edge types: 1
# Building blocks:
#     Node 0, Type 0, BuildingBlock: VETTIZ_charged_sbu_0, # of connection points: 8
#     Node 1, Type 0, BuildingBlock: VETTIZ_charged_sbu_0, # of connection points: 8
#     Edge 2, Type (0, 0), BuildingBlock: KIFKEQ_clean_linker_1, # of connection points: 2
#     Edge 3, Type (0, 0), BuildingBlock: KIFKEQ_clean_linker_1, # of connection points: 2
#     Edge 4, Type (0, 0), BuildingBlock: KIFKEQ_clean_linker_1, # of connection points: 2
#     Edge 5, Type (0, 0), BuildingBlock: KIFKEQ_clean_linker_1, # of connection points: 2
#     Edge 6, Type (0, 0), BuildingBlock: KIFKEQ_clean_linker_1, # of connection points: 2
#     Edge 7, Type (0, 0), BuildingBlock: KIFKEQ_clean_linker_1, # of connection points: 2
#     Edge 8, Type (0, 0), BuildingBlock: KIFKEQ_clean_linker_1, # of connection points: 2
#     Edge 9, Type (0, 0), BuildingBlock: KIFKEQ_clean_linker_1, # of connection points: 2
# Relax obj value: 0.000
# Max RMSD: 0.009
# Mean RMSD: 0.009
data_MOF--net-bcu--node1-VETTIZ_charged_sbu_0--edge1-KIFKEQ_clean_linker_1
_symmetry_space_group_name_H-M    P1
_symmetry_Int_Tables_number       1
_symmetry_cell_setting            triclinic
loop_
_symmetry_equiv_pos_as_xyz
'x, y, z'
_cell_length_a     20.471156
_cell_length_b     18.609457
_cell_length_c     20.340935
_cell_angle_alpha  87.763973
_cell_angle_beta   90.759659
_cell_angle_gamma 87.604329
loop_
_atom_site_label
_atom_site_type_symbol
_atom_site_fract_x
_atom_site_fract_y
_atom_site_fract_z
_atom_type_partial_charge
Fe0 Fe 0.9549 0.89479 0.00454 0.0
O1 O 0.95431 1.00083 1.00119 0.0
Fe2 Fe 0.00807 1.05063 0.92542 0.0
Fe3 Fe 0.98486 0.05703 0.07661 0.0
O4 O 0.95702 0.99959 0.99472 0.0
O5 O 0.03852 0.10701 1.00075 0.0
O6 O 0.03623 0.10795 0.00735 0.0
Fe7 Fe 0.03871 0.21286 0.99749 0.0
C8 C 0.88056 0.94869 0.1222 0.0
O9 O 0.01535 0.88182 0.08723 0.0
O10 O 0.06339 0.98629 0.09346 0.0
O11 O 0.11274 0.19318 0.93207 0.0
O12 O 0.06692 0.113 0.86276 0.0
O13 O 0.08703 0.97872 0.93709 0.0
O14 O 0.03434 0.87649 0.94639 0.0
O15 O 0.02682 0.12273 0.1463 0.0
O16 O 0.09192 0.19749 0.08383 0.0
C17 C 0.08451 0.91102 0.93098 0.0
O18 O 0.97612 0.22624 0.91643 0.0
O19 O 0.92953 0.12074 0.90825 0.0
O20 O 0.88027 0.91472 0.06778 0.0
O21 O 0.9241 0.99466 0.13857 0.0
C22 C 0.06187 0.91925 0.10721 0.0
C23 C 0.07371 0.16767 0.13914 0.0
C24 C 0.90976 0.19736 0.0726 0.0
O25 O 0.90643 0.12991 0.06517 0.0
O26 O 0.96027 0.23146 0.05733 0.0
C27 C 0.11041 0.15926 0.87765 0.0
O28 O 0.96709 0.98489 0.85555 0.0
O29 O 0.90276 0.90912 0.91749 0.0
C30 C 0.93038 0.18806 0.89578 0.0
C31 C 0.92085 0.93929 0.86238 0.0
Fe32 Fe 0.48613 0.71125 0.55012 0.0
O33 O 0.49219 0.60595 0.54606 0.0
Fe34 Fe 0.57128 0.56014 0.49449 0.0
Fe35 Fe 0.42055 0.54929 0.50928 0.0
O36 O 0.49875 0.60697 0.54445 0.0
O37 O 0.49972 0.5024 0.4585 0.0
O38 O 0.49322 0.50117 0.46044 0.0
Fe39 Fe 0.50512 0.39644 0.45661 0.0
C40 C 0.36569 0.65231 0.61392 0.0
O41 O 0.40778 0.72477 0.48424 0.0
O42 O 0.40623 0.62217 0.43161 0.0
O43 O 0.57309 0.41897 0.38604 0.0
O44 O 0.63757 0.50139 0.4355 0.0
O45 O 0.56066 0.63547 0.41729 0.0
O46 O 0.54893 0.73403 0.47527 0.0
O47 O 0.35515 0.48286 0.46214 0.0
O48 O 0.4221 0.41083 0.3988 0.0
C49 C 0.56772 0.70259 0.42405 0.0
O50 O 0.58297 0.38325 0.52276 0.0
O51 O 0.58742 0.48784 0.572 0.0
O52 O 0.41878 0.687 0.62039 0.0
O53 O 0.35376 0.608 0.56745 0.0
C54 C 0.39075 0.68874 0.43521 0.0
C55 C 0.36548 0.43863 0.4148 0.0
C56 C 0.4241 0.4083 0.58288 0.0
O57 O 0.43012 0.47571 0.58712 0.0
O58 O 0.44213 0.37483 0.53243 0.0
C59 C 0.62584 0.45474 0.39085 0.0
O60 O 0.63647 0.62673 0.54158 0.0
O61 O 0.56957 0.69618 0.60729 0.0
C62 C 0.60157 0.42093 0.56995 0.0
C63 C 0.62628 0.66963 0.58998 0.0
H64 H 0.02286 0.24669 0.23721 0.0
H65 H 0.20126 0.14578 0.16831 0.0
H66 H 0.08664 0.31837 0.31202 0.0
H67 H 0.2647 0.21529 0.24352 0.0
H68 H 0.35623 0.42038 0.28459 0.0
H69 H 0.27813 0.34835 0.22838 0.0
H70 H 0.17185 0.31939 0.40889 0.0
H71 H 0.25037 0.39335 0.4654 0.0
C72 C 0.07547 0.23768 0.24044 0.0
C73 C 0.10767 0.19115 0.19758 0.0
C74 C 0.11184 0.27885 0.2827 0.0
C75 C 0.1805 0.27359 0.28204 0.0
C76 C 0.21184 0.22161 0.2437 0.0
C77 C 0.17573 0.18123 0.20135 0.0
C78 C 0.31529 0.40009 0.31186 0.0
C79 C 0.30933 0.41173 0.37917 0.0
C80 C 0.27106 0.35825 0.28 0.0
C81 C 0.22035 0.32643 0.31497 0.0
C82 C 0.21099 0.34283 0.38114 0.0
C83 C 0.25542 0.38545 0.41319 0.0
H84 H 0.87122 0.33869 0.05876 0.0
H85 H 0.83872 0.14495 0.17535 0.0
H86 H 0.80662 0.40914 0.13557 0.0
H87 H 0.77459 0.21574 0.25273 0.0
H88 H 0.7383 0.37594 0.41588 0.0
H89 H 0.8045 0.31325 0.33432 0.0
H90 H 0.68925 0.42123 0.17784 0.0
H91 H 0.62276 0.48274 0.25953 0.0
C92 C 0.84911 0.31103 0.10015 0.0
C93 C 0.85963 0.23629 0.11087 0.0
C94 C 0.81245 0.35141 0.14422 0.0
C95 C 0.78657 0.31811 0.20066 0.0
C96 C 0.79493 0.24294 0.21012 0.0
C97 C 0.83066 0.20227 0.16532 0.0
C98 C 0.72891 0.38805 0.36399 0.0
C99 C 0.67665 0.43519 0.34366 0.0
C100 C 0.76583 0.35131 0.31742 0.0
C101 C 0.7514 0.3617 0.24979 0.0
C102 C 0.70156 0.41227 0.22955 0.0
C103 C 0.664 0.44799 0.27613 0.0
H104 H 0.76176 0.90068 0.09041 0.0
H105 H 0.88191 0.94865 0.25809 0.0
H106 H 0.68405 0.84413 0.16273 0.0
H107 H 0.80255 0.89208 0.33127 0.0
H108 H 0.61029 0.83822 0.43741 0.0
H109 H 0.68333 0.90434 0.36668 0.0
H110 H 0.69056 0.72902 0.23383 0.0
H111 H 0.61733 0.66161 0.30515 0.0
C112 C 0.77128 0.89988 0.14297 0.0
C113 C 0.82864 0.92829 0.16851 0.0
C114 C 0.72678 0.86701 0.18427 0.0
C115 C 0.73794 0.86227 0.25236 0.0
C116 C 0.79298 0.89478 0.27871 0.0
C117 C 0.83815 0.92752 0.23702 0.0
C118 C 0.62676 0.81358 0.39285 0.0
C119 C 0.60745 0.74439 0.37684 0.0
C120 C 0.66922 0.85152 0.35272 0.0
C121 C 0.69281 0.82184 0.29503 0.0
C122 C 0.67269 0.7534 0.278 0.0
C123 C 0.63072 0.71481 0.31871 0.0
H124 H 0.0735 0.77884 0.15363 0.0
H125 H 0.16845 0.9817 0.1601 0.0
H126 H 0.15576 0.72435 0.22982 0.0
H127 H 0.25152 0.92663 0.23498 0.0
H128 H 0.33843 0.82697 0.42923 0.0
H129 H 0.26196 0.8819 0.34747 0.0
H130 H 0.26939 0.68586 0.24032 0.0
H131 H 0.34467 0.63021 0.32287 0.0
C132 C 0.1122 0.81171 0.17075 0.0
C133 C 0.11399 0.88481 0.15081 0.0
C134 C 0.1597 0.78028 0.21421 0.0
C135 C 0.21031 0.82107 0.23877 0.0
C136 C 0.21274 0.89385 0.2179 0.0
C137 C 0.16522 0.92532 0.17453 0.0
C138 C 0.32414 0.79562 0.38806 0.0
C139 C 0.34766 0.72398 0.38297 0.0
C140 C 0.28045 0.82732 0.34089 0.0
C141 C 0.25923 0.7883 0.28729 0.0
C142 C 0.28382 0.71716 0.28146 0.0
C143 C 0.32742 0.68539 0.32867 0.0
H144 H 0.124 0.77035 0.94713 0.0
H145 H 0.15521 0.96255 0.8278 0.0
H146 H 0.18748 0.69877 0.87041 0.0
H147 H 0.21843 0.89064 0.75062 0.0
H148 H 0.25245 0.72956 0.58892 0.0
H149 H 0.18685 0.79256 0.67072 0.0
H150 H 0.30355 0.68561 0.82674 0.0
H151 H 0.36927 0.62368 0.74486 0.0
C152 C 0.14574 0.79745 0.90522 0.0
C153 C 0.13502 0.87201 0.89355 0.0
C154 C 0.18169 0.75643 0.8612 0.0
C155 C 0.20673 0.78898 0.80403 0.0
C156 C 0.19858 0.86406 0.79381 0.0
C157 C 0.16345 0.90537 0.83849 0.0
C158 C 0.26217 0.71763 0.64079 0.0
C159 C 0.31472 0.67092 0.66101 0.0
C160 C 0.22565 0.75457 0.68746 0.0
C161 C 0.24088 0.7447 0.75495 0.0
C162 C 0.29073 0.69417 0.7751 0.0
C163 C 0.32782 0.65822 0.72844 0.0
H164 H 0.32115 0.46123 0.65254 0.0
H165 H 0.43704 0.26646 0.62164 0.0
H166 H 0.24548 0.39208 0.71965 0.0
H167 H 0.36219 0.19788 0.6905 0.0
H168 H 0.24202 0.15013 0.8922 0.0
H169 H 0.32225 0.20723 0.82085 0.0
H170 H 0.16734 0.2791 0.68492 0.0
H171 H 0.08731 0.21969 0.75535 0.0
C172 C 0.33127 0.40401 0.66135 0.0
C173 C 0.38512 0.3692 0.63216 0.0
C174 C 0.28758 0.36443 0.69897 0.0
C175 C 0.29782 0.28972 0.70933 0.0
C176 C 0.35323 0.2554 0.6828 0.0
C177 C 0.39605 0.29464 0.6438 0.0
C178 C 0.22562 0.17622 0.84599 0.0
C179 C 0.15894 0.17985 0.8285 0.0
C180 C 0.27129 0.20909 0.80554 0.0
C181 C 0.25065 0.24795 0.74797 0.0
C182 C 0.18419 0.24963 0.72935 0.0
C183 C 0.13869 0.21509 0.76903 0.0
H184 H 0.86451 0.12607 0.79736 0.0
H185 H 0.87928 0.32606 0.89589 0.0
H186 H 0.78355 0.18221 0.72135 0.0
H187 H 0.79459 0.38163 0.82292 0.0
H188 H 0.69683 0.48421 0.63869 0.0
H189 H 0.77382 0.42808 0.71876 0.0
H190 H 0.6788 0.22591 0.70207 0.0
H191 H 0.60485 0.28168 0.61822 0.0
C192 C 0.84947 0.18193 0.80338 0.0
C193 C 0.8785 0.22189 0.85222 0.0
C194 C 0.80245 0.2142 0.76003 0.0
C195 C 0.78191 0.28692 0.76539 0.0
C196 C 0.80994 0.32617 0.81577 0.0
C197 C 0.85826 0.29428 0.85809 0.0
C198 C 0.69238 0.42778 0.65239 0.0
C199 C 0.64511 0.38717 0.62198 0.0
C200 C 0.73632 0.39548 0.69887 0.0
C201 C 0.73318 0.32199 0.71746 0.0
C202 C 0.68426 0.28204 0.68819 0.0
C203 C 0.64135 0.31404 0.64039 0.0
H204 H 0.74131 0.71344 0.5381 0.0
H205 H 0.63625 0.69017 0.71985 0.0
H206 H 0.82087 0.7873 0.59322 0.0
H207 H 0.71526 0.76235 0.77457 0.0
H208 H 0.79423 0.96488 0.83118 0.0
H209 H 0.72998 0.89603 0.75607 0.0
H210 H 0.90656 0.78659 0.69139 0.0
H211 H 0.97118 0.85746 0.76614 0.0
C212 C 0.73659 0.7222 0.5902 0.0
C213 C 0.68264 0.697 0.62488 0.0
C214 C 0.7816 0.76475 0.62143 0.0
C215 C 0.77275 0.78218 0.68739 0.0
C216 C 0.72192 0.75155 0.72306 0.0
C217 C 0.67715 0.70969 0.69204 0.0
C218 C 0.81932 0.9282 0.79891 0.0
C219 C 0.88712 0.91616 0.80378 0.0
C220 C 0.78275 0.88828 0.75661 0.0
C221 C 0.81339 0.83476 0.71948 0.0
C222 C 0.88196 0.82738 0.71977 0.0
C223 C 0.9188 0.86804 0.76201 0.0
loop_
_geom_bond_atom_site_label_1
_geom_bond_atom_site_label_2
_geom_bond_distance
_geom_bond_site_symmetry_2
_ccdc_geom_bond_type
Fe0 O1 1.886 . S
Fe0 O4 1.715 1_554 S
Fe0 O9 2.077 . S
Fe0 O14 1.935 1_554 S
Fe0 O20 2.077 1_455 S
Fe0 O29 1.935 1_454 S
O1 Fe0 1.886 . S
O1 Fe3 1.715 1_565 S
Fe2 O4 1.886 . S
Fe2 O5 1.715 1_565 S
Fe2 O12 1.935 1_565 S
Fe2 O13 2.077 . S
Fe2 O19 1.935 1_465 S
Fe2 O28 2.077 1_455 S
Fe3 O1 1.715 1_545 S
Fe3 O6 1.886 . S
Fe3 O10 1.935 1_545 S
Fe3 O15 2.077 . S
Fe3 O21 1.935 1_445 S
Fe3 O25 2.077 1_455 S
O4 Fe0 1.715 1_556 S
O4 Fe2 1.886 . S
O5 Fe2 1.715 1_545 S
O5 Fe7 1.886 . S
O6 Fe3 1.886 . S
O6 Fe7 1.715 1_554 S
Fe7 O5 1.886 . S
Fe7 O6 1.715 1_556 S
Fe7 O11 2.077 . S
Fe7 O16 1.935 1_556 S
Fe7 O18 2.077 1_455 S
Fe7 O26 1.935 1_456 S
C8 O20 1.381 . S
C8 O21 1.421 . S
O9 Fe0 2.077 . S
O9 C22 1.381 . S
O10 Fe3 1.935 1_565 S
O10 C22 1.421 . S
O11 Fe7 2.077 . S
O11 C27 1.381 . S
O12 Fe2 1.935 1_545 S
O12 C27 1.421 . S
O13 Fe2 2.077 . S
O13 C17 1.381 . S
O14 Fe0 1.935 1_556 S
O14 C17 1.421 . S
O15 Fe3 2.077 . S
O15 C23 1.381 . S
O16 Fe7 1.935 1_554 S
O16 C23 1.421 . S
C17 O13 1.381 . S
C17 O14 1.421 . S
O18 Fe7 2.077 1_655 S
O18 C30 1.381 . S
O19 Fe2 1.935 1_645 S
O19 C30 1.421 . S
O20 Fe0 2.077 1_655 S
O20 C8 1.381 . S
O21 Fe3 1.935 1_665 S
O21 C8 1.421 . S
C22 O9 1.381 . S
C22 O10 1.421 . S
C23 O15 1.381 . S
C23 O16 1.421 . S
C24 O25 1.381 . S
C24 O26 1.421 . S
O25 Fe3 2.077 1_655 S
O25 C24 1.381 . S
O26 Fe7 1.935 1_654 S
O26 C24 1.421 . S
C27 O11 1.381 . S
C27 O12 1.421 . S
O28 Fe2 2.077 1_655 S
O28 C31 1.381 . S
O29 Fe0 1.935 1_656 S
O29 C31 1.421 . S
C30 O18 1.381 . S
C30 O19 1.421 . S
C31 O28 1.381 . S
C31 O29 1.421 . S
Fe32 O33 1.886 . S
Fe32 O36 1.715 . S
Fe32 O41 2.077 . S
Fe32 O46 1.935 . S
Fe32 O52 2.077 . S
Fe32 O61 1.935 . S
O33 Fe32 1.886 . S
O33 Fe35 1.715 . S
Fe34 O36 1.886 . S
Fe34 O37 1.715 . S
Fe34 O44 1.935 . S
Fe34 O45 2.077 . S
Fe34 O51 1.935 . S
Fe34 O60 2.077 . S
Fe35 O33 1.715 . S
Fe35 O38 1.886 . S
Fe35 O42 1.935 . S
Fe35 O47 2.077 . S
Fe35 O53 1.935 . S
Fe35 O57 2.077 . S
O36 Fe32 1.715 . S
O36 Fe34 1.886 . S
O37 Fe34 1.715 . S
O37 Fe39 1.886 . S
O38 Fe35 1.886 . S
O38 Fe39 1.715 . S
Fe39 O37 1.886 . S
Fe39 O38 1.715 . S
Fe39 O43 2.077 . S
Fe39 O48 1.935 . S
Fe39 O50 2.077 . S
Fe39 O58 1.935 . S
C40 O52 1.381 . S
C40 O53 1.421 . S
O41 Fe32 2.077 . S
O41 C54 1.381 . S
O42 Fe35 1.935 . S
O42 C54 1.421 . S
O43 Fe39 2.077 . S
O43 C59 1.381 . S
O44 Fe34 1.935 . S
O44 C59 1.421 . S
O45 Fe34 2.077 . S
O45 C49 1.381 . S
O46 Fe32 1.935 . S
O46 C49 1.421 . S
O47 Fe35 2.077 . S
O47 C55 1.381 . S
O48 Fe39 1.935 . S
O48 C55 1.421 . S
C49 O45 1.381 . S
C49 O46 1.421 . S
O50 Fe39 2.077 . S
O50 C62 1.381 . S
O51 Fe34 1.935 . S
O51 C62 1.421 . S
O52 Fe32 2.077 . S
O52 C40 1.381 . S
O53 Fe35 1.935 . S
O53 C40 1.421 . S
C54 O41 1.381 . S
C54 O42 1.421 . S
C55 O47 1.381 . S
C55 O48 1.421 . S
C56 O57 1.381 . S
C56 O58 1.421 . S
O57 Fe35 2.077 . S
O57 C56 1.381 . S
O58 Fe39 1.935 . S
O58 C56 1.421 . S
C59 O43 1.381 . S
C59 O44 1.421 . S
O60 Fe34 2.077 . S
O60 C63 1.381 . S
O61 Fe32 1.935 . S
O61 C63 1.421 . S
C62 O50 1.381 . S
C62 O51 1.421 . S
C63 O60 1.381 . S
C63 O61 1.421 . S
H64 C72 0.950 . S
H65 C77 0.950 . S
H66 C74 0.950 . S
H67 C76 0.950 . S
H68 C78 0.950 . S
H69 C80 0.950 . S
H70 C82 0.950 . S
H71 C83 0.950 . S
C72 H64 0.950 . S
C72 C73 1.386 . S
C72 C74 1.391 . S
C73 C72 1.386 . S
C73 C77 1.393 . S
C74 H66 0.950 . S
C74 C72 1.391 . S
C74 C75 1.400 . S
C75 C74 1.400 . S
C75 C76 1.398 . S
C75 C81 1.491 . S
C76 H67 0.950 . S
C76 C75 1.398 . S
C76 C77 1.391 . S
C77 H65 0.950 . S
C77 C73 1.393 . S
C77 C76 1.391 . S
C78 H68 0.950 . S
C78 C79 1.386 . S
C78 C80 1.391 . S
C79 C78 1.386 . S
C79 C83 1.393 . S
C80 H69 0.950 . S
C80 C78 1.391 . S
C80 C81 1.400 . S
C81 C75 1.491 . S
C81 C80 1.400 . S
C81 C82 1.398 . S
C82 H70 0.950 . S
C82 C81 1.398 . S
C82 C83 1.391 . S
C83 H71 0.950 . S
C83 C79 1.393 . S
C83 C82 1.391 . S
H84 C92 0.950 . S
H85 C97 0.950 . S
H86 C94 0.950 . S
H87 C96 0.950 . S
H88 C98 0.950 . S
H89 C100 0.950 . S
H90 C102 0.950 . S
H91 C103 0.950 . S
C92 H84 0.950 . S
C92 C93 1.386 . S
C92 C94 1.391 . S
C93 C92 1.386 . S
C93 C97 1.393 . S
C94 H86 0.950 . S
C94 C92 1.391 . S
C94 C95 1.400 . S
C95 C94 1.400 . S
C95 C96 1.398 . S
C95 C101 1.491 . S
C96 H87 0.950 . S
C96 C95 1.398 . S
C96 C97 1.391 . S
C97 H85 0.950 . S
C97 C93 1.393 . S
C97 C96 1.391 . S
C98 H88 0.950 . S
C98 C99 1.386 . S
C98 C100 1.391 . S
C99 C98 1.386 . S
C99 C103 1.393 . S
C100 H89 0.950 . S
C100 C98 1.391 . S
C100 C101 1.400 . S
C101 C95 1.491 . S
C101 C100 1.400 . S
C101 C102 1.398 . S
C102 H90 0.950 . S
C102 C101 1.398 . S
C102 C103 1.391 . S
C103 H91 0.950 . S
C103 C99 1.393 . S
C103 C102 1.391 . S
H104 C112 0.950 . S
H105 C117 0.950 . S
H106 C114 0.950 . S
H107 C116 0.950 . S
H108 C118 0.950 . S
H109 C120 0.950 . S
H110 C122 0.950 . S
H111 C123 0.950 . S
C112 H104 0.950 . S
C112 C113 1.386 . S
C112 C114 1.391 . S
C113 C112 1.386 . S
C113 C117 1.393 . S
C114 H106 0.950 . S
C114 C112 1.391 . S
C114 C115 1.400 . S
C115 C114 1.400 . S
C115 C116 1.398 . S
C115 C121 1.491 . S
C116 H107 0.950 . S
C116 C115 1.398 . S
C116 C117 1.391 . S
C117 H105 0.950 . S
C117 C113 1.393 . S
C117 C116 1.391 . S
C118 H108 0.950 . S
C118 C119 1.386 . S
C118 C120 1.391 . S
C119 C118 1.386 . S
C119 C123 1.393 . S
C120 H109 0.950 . S
C120 C118 1.391 . S
C120 C121 1.400 . S
C121 C115 1.491 . S
C121 C120 1.400 . S
C121 C122 1.398 . S
C122 H110 0.950 . S
C122 C121 1.398 . S
C122 C123 1.391 . S
C123 H111 0.950 . S
C123 C119 1.393 . S
C123 C122 1.391 . S
H124 C132 0.950 . S
H125 C137 0.950 . S
H126 C134 0.950 . S
H127 C136 0.950 . S
H128 C138 0.950 . S
H129 C140 0.950 . S
H130 C142 0.950 . S
H131 C143 0.950 . S
C132 H124 0.950 . S
C132 C133 1.386 . S
C132 C134 1.391 . S
C133 C132 1.386 . S
C133 C137 1.393 . S
C134 H126 0.950 . S
C134 C132 1.391 . S
C134 C135 1.400 . S
C135 C134 1.400 . S
C135 C136 1.398 . S
C135 C141 1.491 . S
C136 H127 0.950 . S
C136 C135 1.398 . S
C136 C137 1.391 . S
C137 H125 0.950 . S
C137 C133 1.393 . S
C137 C136 1.391 . S
C138 H128 0.950 . S
C138 C139 1.386 . S
C138 C140 1.391 . S
C139 C138 1.386 . S
C139 C143 1.393 . S
C140 H129 0.950 . S
C140 C138 1.391 . S
C140 C141 1.400 . S
C141 C135 1.491 . S
C141 C140 1.400 . S
C141 C142 1.398 . S
C142 H130 0.950 . S
C142 C141 1.398 . S
C142 C143 1.391 . S
C143 H131 0.950 . S
C143 C139 1.393 . S
C143 C142 1.391 . S
H144 C152 0.950 . S
H145 C157 0.950 . S
H146 C154 0.950 . S
H147 C156 0.950 . S
H148 C158 0.950 . S
H149 C160 0.950 . S
H150 C162 0.950 . S
H151 C163 0.950 . S
C152 H144 0.950 . S
C152 C153 1.386 . S
C152 C154 1.391 . S
C153 C152 1.386 . S
C153 C157 1.393 . S
C154 H146 0.950 . S
C154 C152 1.391 . S
C154 C155 1.400 . S
C155 C154 1.400 . S
C155 C156 1.398 . S
C155 C161 1.491 . S
C156 H147 0.950 . S
C156 C155 1.398 . S
C156 C157 1.391 . S
C157 H145 0.950 . S
C157 C153 1.393 . S
C157 C156 1.391 . S
C158 H148 0.950 . S
C158 C159 1.386 . S
C158 C160 1.391 . S
C159 C158 1.386 . S
C159 C163 1.393 . S
C160 H149 0.950 . S
C160 C158 1.391 . S
C160 C161 1.400 . S
C161 C155 1.491 . S
C161 C160 1.400 . S
C161 C162 1.398 . S
C162 H150 0.950 . S
C162 C161 1.398 . S
C162 C163 1.391 . S
C163 H151 0.950 . S
C163 C159 1.393 . S
C163 C162 1.391 . S
H164 C172 0.950 . S
H165 C177 0.950 . S
H166 C174 0.950 . S
H167 C176 0.950 . S
H168 C178 0.950 . S
H169 C180 0.950 . S
H170 C182 0.950 . S
H171 C183 0.950 . S
C172 H164 0.950 . S
C172 C173 1.386 . S
C172 C174 1.391 . S
C173 C172 1.386 . S
C173 C177 1.393 . S
C174 H166 0.950 . S
C174 C172 1.391 . S
C174 C175 1.400 . S
C175 C174 1.400 . S
C175 C176 1.398 . S
C175 C181 1.491 . S
C176 H167 0.950 . S
C176 C175 1.398 . S
C176 C177 1.391 . S
C177 H165 0.950 . S
C177 C173 1.393 . S
C177 C176 1.391 . S
C178 H168 0.950 . S
C178 C179 1.386 . S
C178 C180 1.391 . S
C179 C178 1.386 . S
C179 C183 1.393 . S
C180 H169 0.950 . S
C180 C178 1.391 . S
C180 C181 1.400 . S
C181 C175 1.491 . S
C181 C180 1.400 . S
C181 C182 1.398 . S
C182 H170 0.950 . S
C182 C181 1.398 . S
C182 C183 1.391 . S
C183 H171 0.950 . S
C183 C179 1.393 . S
C183 C182 1.391 . S
H184 C192 0.950 . S
H185 C197 0.950 . S
H186 C194 0.950 . S
H187 C196 0.950 . S
H188 C198 0.950 . S
H189 C200 0.950 . S
H190 C202 0.950 . S
H191 C203 0.950 . S
C192 H184 0.950 . S
C192 C193 1.386 . S
C192 C194 1.391 . S
C193 C192 1.386 . S
C193 C197 1.393 . S
C194 H186 0.950 . S
C194 C192 1.391 . S
C194 C195 1.400 . S
C195 C194 1.400 . S
C195 C196 1.398 . S
C195 C201 1.491 . S
C196 H187 0.950 . S
C196 C195 1.398 . S
C196 C197 1.391 . S
C197 H185 0.950 . S
C197 C193 1.393 . S
C197 C196 1.391 . S
C198 H188 0.950 . S
C198 C199 1.386 . S
C198 C200 1.391 . S
C199 C198 1.386 . S
C199 C203 1.393 . S
C200 H189 0.950 . S
C200 C198 1.391 . S
C200 C201 1.400 . S
C201 C195 1.491 . S
C201 C200 1.400 . S
C201 C202 1.398 . S
C202 H190 0.950 . S
C202 C201 1.398 . S
C202 C203 1.391 . S
C203 H191 0.950 . S
C203 C199 1.393 . S
C203 C202 1.391 . S
H204 C212 0.950 . S
H205 C217 0.950 . S
H206 C214 0.950 . S
H207 C216 0.950 . S
H208 C218 0.950 . S
H209 C220 0.950 . S
H210 C222 0.950 . S
H211 C223 0.950 . S
C212 H204 0.950 . S
C212 C213 1.386 . S
C212 C214 1.391 . S
C213 C212 1.386 . S
C213 C217 1.393 . S
C214 H206 0.950 . S
C214 C212 1.391 . S
C214 C215 1.400 . S
C215 C214 1.400 . S
C215 C216 1.398 . S
C215 C221 1.491 . S
C216 H207 0.950 . S
C216 C215 1.398 . S
C216 C217 1.391 . S
C217 H205 0.950 . S
C217 C213 1.393 . S
C217 C216 1.391 . S
C218 H208 0.950 . S
C218 C219 1.386 . S
C218 C220 1.391 . S
C219 C218 1.386 . S
C219 C223 1.393 . S
C220 H209 0.950 . S
C220 C218 1.391 . S
C220 C221 1.400 . S
C221 C215 1.491 . S
C221 C220 1.400 . S
C221 C222 1.398 . S
C222 H210 0.950 . S
C222 C221 1.398 . S
C222 C223 1.391 . S
C223 H211 0.950 . S
C223 C219 1.393 . S
C223 C222 1.391 . S
C73 C23 1.451 . S
C79 C55 1.460 . S
C93 C24 1.456 . S
C99 C59 1.457 . S
C113 C8 1.442 . S
C119 C49 1.449 . S
C133 C22 1.456 . S
C139 C54 1.439 . S
C153 C17 1.439 . S
C159 C40 1.455 . S
C173 C56 1.443 . S
C179 C27 1.445 . S
C193 C30 1.461 . S
C199 C62 1.440 . S
C213 C63 1.441 . S
C219 C31 1.449 . S
