# Generated by pormake.
# Topology mdf, (4)-cn, num edge types: 1
# Building blocks:
#     Node 0, Type 0, BuildingBlock: QUQFOY_clean_sbu_1, # of connection points: 4
#     Node 1, Type 0, BuildingBlock: QUQFOY_clean_sbu_1, # of connection points: 4
#     Node 2, Type 0, BuildingBlock: QUQFOY_clean_sbu_1, # of connection points: 4
#     Node 3, Type 0, BuildingBlock: QUQFOY_clean_sbu_1, # of connection points: 4
#     Node 4, Type 0, BuildingBlock: QUQFOY_clean_sbu_1, # of connection points: 4
#     Node 5, Type 0, BuildingBlock: QUQFOY_clean_sbu_1, # of connection points: 4
#     Node 6, Type 0, BuildingBlock: QUQFOY_clean_sbu_1, # of connection points: 4
#     Node 7, Type 0, BuildingBlock: QUQFOY_clean_sbu_1, # of connection points: 4
#     Edge 8, Type (0, 0), None
#     Edge 9, Type (0, 0), None
#     Edge 10, Type (0, 0), None
#     Edge 11, Type (0, 0), None
#     Edge 12, Type (0, 0), None
#     Edge 13, Type (0, 0), None
#     Edge 14, Type (0, 0), None
#     Edge 15, Type (0, 0), None
#     Edge 16, Type (0, 0), None
#     Edge 17, Type (0, 0), None
#     Edge 18, Type (0, 0), None
#     Edge 19, Type (0, 0), None
#     Edge 20, Type (0, 0), None
#     Edge 21, Type (0, 0), None
#     Edge 22, Type (0, 0), None
#     Edge 23, Type (0, 0), None
# Relax obj value: 0.018
# Max RMSD: 0.069
# Mean RMSD: 0.067
data_MOF--net-mdf--node1-QUQFOY_clean_sbu_1--edge1-none
_symmetry_space_group_name_H-M    P1
_symmetry_Int_Tables_number       1
_symmetry_cell_setting            triclinic
loop_
_symmetry_equiv_pos_as_xyz
'x, y, z'
_cell_length_a     17.062726
_cell_length_b     17.0626
_cell_length_c     7.5183847
_cell_angle_alpha  89.998142
_cell_angle_beta   89.99517
_cell_angle_gamma 90.000023
loop_
_atom_site_label
_atom_site_type_symbol
_atom_site_fract_x
_atom_site_fract_y
_atom_site_fract_z
_atom_type_partial_charge
O0 O 0.40653 0.48936 0.23336 0.0
Cd1 Cd 0.32521 0.56657 0.13222 0.0
Cd2 Cd 0.27665 0.56671 0.46282 0.0
O3 O 0.38579 0.51945 0.51454 0.0
O4 O 0.36955 0.59896 0.89936 0.0
O5 O 0.35741 0.68003 0.12809 0.0
C6 C 0.38113 0.66716 -0.03241 0.0
C7 C 0.22084 0.66729 0.62771 0.0
C8 C 0.42518 0.48362 0.39622 0.0
C9 C 0.17659 0.48368 0.19906 0.0
O10 O 0.19525 0.48953 0.36189 0.0
O11 O 0.21602 0.51939 0.08058 0.0
O12 O 0.2324 0.59906 0.69578 0.0
O13 O 0.2445 0.6802 0.46718 0.0
O14 O 0.61259 0.69541 0.61258 0.0
Cd15 Cd 0.53537 0.77673 0.71373 0.0
Cd16 Cd 0.53523 0.82529 0.38312 0.0
O17 O 0.58249 0.71614 0.3314 0.0
O18 O 0.50298 0.73239 -0.05342 0.0
O19 O 0.42191 0.74453 0.71783 0.0
C20 C 0.43479 0.72081 0.87832 0.0
C21 C 0.43466 0.8811 0.21822 0.0
C22 C 0.61833 0.67676 0.44972 0.0
C23 C 0.61826 0.92535 0.64689 0.0
O24 O 0.61241 0.9067 0.48406 0.0
O25 O 0.58255 0.88592 0.76537 0.0
O26 O 0.50289 0.86954 0.15015 0.0
O27 O 0.42174 0.85744 0.37874 0.0
O28 O 0.40645 0.11241 0.86288 0.0
Cd29 Cd 0.3251 1.03517 -0.03619 0.0
Cd30 Cd 0.27676 1.03503 0.63302 0.0
O31 O 0.38596 0.08227 0.58164 0.0
O32 O 0.36939 1.00291 0.19679 0.0
O33 O 0.35735 0.92172 -0.03176 0.0
C34 C 0.38102 0.93469 0.12873 0.0
C35 C 0.22096 0.93456 0.46779 0.0
C36 C 0.42524 0.11814 0.7001 0.0
C37 C 0.17654 0.11807 0.89649 0.0
O38 O 0.19533 0.11223 0.73373 0.0
O39 O 0.21586 0.08234 0.0151 0.0
O40 O 0.23256 1.00282 0.39993 0.0
O41 O 0.24457 0.92155 0.62831 0.0
O42 O 0.98953 0.6955 -0.01697 0.0
Cd43 Cd 0.06676 0.77684 0.88211 0.0
Cd44 Cd 0.06691 0.82518 0.2129 0.0
O45 O 1.01967 0.71598 0.26427 0.0
O46 O 0.09903 0.73256 0.64913 0.0
O47 O 0.18022 0.7446 0.87769 0.0
C48 C 0.16725 0.72093 0.7172 0.0
C49 C 0.16737 0.88099 0.37808 0.0
C50 C 0.9838 0.6767 0.14581 0.0
C51 C 0.98387 0.9254 -0.05056 0.0
O52 O 0.98971 0.90661 0.1122 0.0
O53 O 1.01961 0.88608 0.83083 0.0
O54 O 0.09911 0.86939 0.44599 0.0
O55 O 0.18039 0.85737 0.21757 0.0
O56 O 0.90661 0.98971 0.73369 0.0
Cd57 Cd 0.82518 0.0669 0.633 0.0
Cd58 Cd 0.77683 0.06676 -0.0362 0.0
O59 O 0.88607 1.0196 0.01507 0.0
O60 O 0.86938 0.09913 0.39991 0.0
O61 O 0.85736 0.18038 0.62833 0.0
C62 C 0.88097 0.16739 0.4678 0.0
C63 C 0.72093 0.16726 0.12873 0.0
C64 C 0.9254 0.98388 0.89644 0.0
C65 C 0.6767 0.98381 0.70013 0.0
O66 O 0.69548 0.98953 0.8629 0.0
O67 O 0.71598 1.01967 0.58163 0.0
O68 O 0.73255 0.09903 0.19678 0.0
O69 O 0.7446 0.18022 -0.03177 0.0
O70 O 0.11224 0.19533 0.11225 0.0
Cd71 Cd 1.03504 0.27676 0.21295 0.0
Cd72 Cd 1.03518 0.32511 0.88214 0.0
O73 O 0.08235 0.21587 0.83087 0.0
O74 O 1.00281 0.23256 0.44603 0.0
O75 O 0.92156 0.24459 0.21759 0.0
C76 C 0.93456 0.22097 0.37811 0.0
C77 C 0.93469 0.38101 0.7172 0.0
C78 C 0.11807 0.17654 -0.05051 0.0
C79 C 0.11813 0.42525 0.14583 0.0
O80 O 0.11241 0.40646 -0.01695 0.0
O81 O 0.08227 0.38596 0.26432 0.0
O82 O 1.00292 0.36939 0.64916 0.0
O83 O 0.92173 0.35735 0.8777 0.0
O84 O 0.90669 0.6124 0.36189 0.0
Cd85 Cd 0.82529 0.53523 0.46285 0.0
Cd86 Cd 0.77672 0.53537 0.13221 0.0
O87 O 0.88591 0.58256 0.08058 0.0
O88 O 0.86955 0.50289 0.69581 0.0
O89 O 0.85744 0.42174 0.46721 0.0
C90 C 0.88111 0.43466 0.62771 0.0
C91 C 0.7208 0.43479 -0.03242 0.0
C92 C 0.92534 0.61826 0.19904 0.0
C93 C 0.67675 0.61832 0.39625 0.0
O94 O 0.6954 0.61258 0.23339 0.0
O95 O 0.71614 0.58249 0.51458 0.0
O96 O 0.73239 0.50299 0.89936 0.0
O97 O 0.74452 0.4219 0.12807 0.0
O98 O 0.48953 0.19525 0.48402 0.0
Cd99 Cd 0.56671 0.27666 0.38307 0.0
Cd100 Cd 0.56657 0.32522 0.71371 0.0
O101 O 0.51938 0.21603 0.76533 0.0
O102 O 0.59906 0.2324 0.15011 0.0
O103 O 0.6802 0.24451 0.37872 0.0
C104 C 0.66728 0.22084 0.21821 0.0
C105 C 0.66714 0.38114 0.8783 0.0
C106 C 0.48368 0.1766 0.64687 0.0
C107 C 0.48362 0.42519 0.44968 0.0
O108 O 0.48936 0.40654 0.61254 0.0
O109 O 0.51945 0.3858 0.33134 0.0
O110 O 0.59895 0.36956 -0.05344 0.0
O111 O 0.68003 0.35742 0.71781 0.0
loop_
_geom_bond_atom_site_label_1
_geom_bond_atom_site_label_2
_geom_bond_distance
_geom_bond_site_symmetry_2
_ccdc_geom_bond_type
O0 Cd1 2.223 . S
O0 C8 1.315 . S
Cd1 O0 2.223 . S
Cd1 O4 2.297 1_554 S
Cd1 O5 2.439 . S
Cd1 O11 2.240 . S
Cd2 O3 2.240 . S
Cd2 O10 2.223 . S
Cd2 O12 2.297 . S
Cd2 O13 2.439 . S
O3 Cd2 2.240 . S
O3 C8 1.279 . S
O4 Cd1 2.297 1_556 S
O4 C6 1.247 1_556 S
O5 Cd1 2.439 . S
O5 C6 1.208 . S
C6 O4 1.247 1_554 S
C6 O5 1.208 . S
C7 O12 1.247 . S
C7 O13 1.208 . S
C8 O0 1.315 . S
C8 O3 1.279 . S
C9 O10 1.315 . S
C9 O11 1.279 . S
O10 Cd2 2.223 . S
O10 C9 1.315 . S
O11 Cd1 2.240 . S
O11 C9 1.279 . S
O12 Cd2 2.297 . S
O12 C7 1.247 . S
O13 Cd2 2.439 . S
O13 C7 1.208 . S
O14 Cd15 2.223 . S
O14 C22 1.315 . S
Cd15 O14 2.223 . S
Cd15 O18 2.297 1_556 S
Cd15 O19 2.439 . S
Cd15 O25 2.240 . S
Cd16 O17 2.240 . S
Cd16 O24 2.223 . S
Cd16 O26 2.297 . S
Cd16 O27 2.439 . S
O17 Cd16 2.240 . S
O17 C22 1.279 . S
O18 Cd15 2.297 1_554 S
O18 C20 1.247 1_554 S
O19 Cd15 2.439 . S
O19 C20 1.208 . S
C20 O18 1.247 1_556 S
C20 O19 1.208 . S
C21 O26 1.247 . S
C21 O27 1.208 . S
C22 O14 1.315 . S
C22 O17 1.279 . S
C23 O24 1.315 . S
C23 O25 1.279 . S
O24 Cd16 2.223 . S
O24 C23 1.315 . S
O25 Cd15 2.240 . S
O25 C23 1.279 . S
O26 Cd16 2.297 . S
O26 C21 1.247 . S
O27 Cd16 2.439 . S
O27 C21 1.208 . S
O28 Cd29 2.223 . S
O28 C36 1.315 1_554 S
Cd29 O28 2.223 . S
Cd29 O32 2.297 1_545 S
Cd29 O33 2.439 1_545 S
Cd29 O39 2.240 1_554 S
Cd30 O31 2.240 . S
Cd30 O38 2.223 . S
Cd30 O40 2.297 1_545 S
Cd30 O41 2.439 1_545 S
O31 Cd30 2.240 . S
O31 C36 1.279 . S
O32 Cd29 2.297 1_565 S
O32 C34 1.247 . S
O33 Cd29 2.439 1_565 S
O33 C34 1.208 . S
C34 O32 1.247 . S
C34 O33 1.208 . S
C35 O40 1.247 . S
C35 O41 1.208 . S
C36 O28 1.315 1_556 S
C36 O31 1.279 . S
C37 O38 1.315 . S
C37 O39 1.279 . S
O38 Cd30 2.223 . S
O38 C37 1.315 . S
O39 Cd29 2.240 1_556 S
O39 C37 1.279 . S
O40 Cd30 2.297 1_565 S
O40 C35 1.247 . S
O41 Cd30 2.439 1_565 S
O41 C35 1.208 . S
O42 Cd43 2.223 . S
O42 C50 1.315 1_556 S
Cd43 O42 2.223 . S
Cd43 O46 2.297 1_655 S
Cd43 O47 2.439 1_655 S
Cd43 O53 2.240 1_556 S
Cd44 O45 2.240 . S
Cd44 O52 2.223 . S
Cd44 O54 2.297 1_655 S
Cd44 O55 2.439 1_655 S
O45 Cd44 2.240 . S
O45 C50 1.279 . S
O46 Cd43 2.297 1_455 S
O46 C48 1.247 . S
O47 Cd43 2.439 1_455 S
O47 C48 1.208 . S
C48 O46 1.247 . S
C48 O47 1.208 . S
C49 O54 1.247 . S
C49 O55 1.208 . S
C50 O42 1.315 1_554 S
C50 O45 1.279 . S
C51 O52 1.315 . S
C51 O53 1.279 . S
O52 Cd44 2.223 . S
O52 C51 1.315 . S
O53 Cd43 2.240 1_554 S
O53 C51 1.279 . S
O54 Cd44 2.297 1_455 S
O54 C49 1.247 . S
O55 Cd44 2.439 1_455 S
O55 C49 1.208 . S
O56 Cd57 2.223 . S
O56 C64 1.315 . S
Cd57 O56 2.223 . S
Cd57 O60 2.297 1_565 S
Cd57 O61 2.439 1_565 S
Cd57 O67 2.240 . S
Cd58 O59 2.240 1_554 S
Cd58 O66 2.223 . S
Cd58 O68 2.297 1_565 S
Cd58 O69 2.439 1_565 S
O59 Cd58 2.240 1_556 S
O59 C64 1.279 . S
O60 Cd57 2.297 1_545 S
O60 C62 1.247 . S
O61 Cd57 2.439 1_545 S
O61 C62 1.208 . S
C62 O60 1.247 . S
C62 O61 1.208 . S
C63 O68 1.247 . S
C63 O69 1.208 . S
C64 O56 1.315 . S
C64 O59 1.279 . S
C65 O66 1.315 1_556 S
C65 O67 1.279 . S
O66 Cd58 2.223 . S
O66 C65 1.315 1_554 S
O67 Cd57 2.240 . S
O67 C65 1.279 . S
O68 Cd58 2.297 1_545 S
O68 C63 1.247 . S
O69 Cd58 2.439 1_545 S
O69 C63 1.208 . S
O70 Cd71 2.223 . S
O70 C78 1.315 . S
Cd71 O70 2.223 . S
Cd71 O74 2.297 1_455 S
Cd71 O75 2.439 1_455 S
Cd71 O81 2.240 . S
Cd72 O73 2.240 1_556 S
Cd72 O80 2.223 . S
Cd72 O82 2.297 1_455 S
Cd72 O83 2.439 1_455 S
O73 Cd72 2.240 1_554 S
O73 C78 1.279 . S
O74 Cd71 2.297 1_655 S
O74 C76 1.247 . S
O75 Cd71 2.439 1_655 S
O75 C76 1.208 . S
C76 O74 1.247 . S
C76 O75 1.208 . S
C77 O82 1.247 . S
C77 O83 1.208 . S
C78 O70 1.315 . S
C78 O73 1.279 . S
C79 O80 1.315 1_554 S
C79 O81 1.279 . S
O80 Cd72 2.223 . S
O80 C79 1.315 1_556 S
O81 Cd71 2.240 . S
O81 C79 1.279 . S
O82 Cd72 2.297 1_655 S
O82 C77 1.247 . S
O83 Cd72 2.439 1_655 S
O83 C77 1.208 . S
O84 Cd85 2.223 . S
O84 C92 1.315 . S
Cd85 O84 2.223 . S
Cd85 O88 2.297 . S
Cd85 O89 2.439 . S
Cd85 O95 2.240 . S
Cd86 O87 2.240 . S
Cd86 O94 2.223 . S
Cd86 O96 2.297 1_554 S
Cd86 O97 2.439 . S
O87 Cd86 2.240 . S
O87 C92 1.279 . S
O88 Cd85 2.297 . S
O88 C90 1.247 . S
O89 Cd85 2.439 . S
O89 C90 1.208 . S
C90 O88 1.247 . S
C90 O89 1.208 . S
C91 O96 1.247 1_554 S
C91 O97 1.208 . S
C92 O84 1.315 . S
C92 O87 1.279 . S
C93 O94 1.315 . S
C93 O95 1.279 . S
O94 Cd86 2.223 . S
O94 C93 1.315 . S
O95 Cd85 2.240 . S
O95 C93 1.279 . S
O96 Cd86 2.297 1_556 S
O96 C91 1.247 1_556 S
O97 Cd86 2.439 . S
O97 C91 1.208 . S
O98 Cd99 2.223 . S
O98 C106 1.315 . S
Cd99 O98 2.223 . S
Cd99 O102 2.297 . S
Cd99 O103 2.439 . S
Cd99 O109 2.240 . S
Cd100 O101 2.240 . S
Cd100 O108 2.223 . S
Cd100 O110 2.297 1_556 S
Cd100 O111 2.439 . S
O101 Cd100 2.240 . S
O101 C106 1.279 . S
O102 Cd99 2.297 . S
O102 C104 1.247 . S
O103 Cd99 2.439 . S
O103 C104 1.208 . S
C104 O102 1.247 . S
C104 O103 1.208 . S
C105 O110 1.247 1_556 S
C105 O111 1.208 . S
C106 O98 1.315 . S
C106 O101 1.279 . S
C107 O108 1.315 . S
C107 O109 1.279 . S
O108 Cd100 2.223 . S
O108 C107 1.315 . S
O109 Cd99 2.240 . S
O109 C107 1.279 . S
O110 Cd100 2.297 1_554 S
O110 C105 1.247 1_554 S
O111 Cd100 2.439 . S
O111 C105 1.208 . S
C20 C6 1.540 1_556 S
C21 C34 1.401 . S
C49 C35 1.252 . S
C48 C7 1.401 . S
C62 C76 1.252 . S
C77 C90 1.401 . S
C91 C105 1.540 1_554 S
C63 C104 1.401 . S
C8 C107 1.844 . S
C65 C23 1.925 . S
C78 C37 2.004 1_554 S
C50 C92 1.925 . S
C36 C106 1.925 . S
C64 C51 2.004 1_556 S
C79 C9 1.925 . S
C22 C93 1.844 . S
