# Generated by pormake.
# Topology pcu, (6)-cn, num edge types: 1
# Building blocks:
#     Node 0, Type 0, BuildingBlock: BETFEN_clean_sbu_0, # of connection points: 6
#     Edge 1, Type (0, 0), None
#     Edge 2, Type (0, 0), None
#     Edge 3, Type (0, 0), None
# Relax obj value: 0.000
# Max RMSD: 0.000
# Mean RMSD: 0.000
data_MOF--net-pcu--node1-BETFEN_clean_sbu_0--edge1-none
_symmetry_space_group_name_H-M    P1
_symmetry_Int_Tables_number       1
_symmetry_cell_setting            triclinic
loop_
_symmetry_equiv_pos_as_xyz
'x, y, z'
_cell_length_a     17.198534
_cell_length_b     7.1190739
_cell_length_c     6.1555407
_cell_angle_alpha  85.498215
_cell_angle_beta   96.436576
_cell_angle_gamma 117.80256
loop_
_atom_site_label
_atom_site_type_symbol
_atom_site_fract_x
_atom_site_fract_y
_atom_site_fract_z
_atom_type_partial_charge
Pr0 Pr 0.94004 0.83207 1.0029 0.0
Pr1 Pr 0.14635 0.0758 0.05627 0.0
C2 C 0.76582 0.67959 0.03575 0.0
C3 C 0.70048 0.76006 0.03693 0.0
C4 C 0.63958 0.73179 0.85447 0.0
C5 C 0.57751 0.80684 0.85305 0.0
C6 C 0.5746 0.91084 0.03478 0.0
C7 C 0.63493 0.93693 0.21832 0.0
C8 C 0.69707 0.86211 0.21965 0.0
C9 C 1.02183 0.92965 0.61854 0.0
C10 C 0.04459 0.36297 1.02869 0.0
C11 C 0.32075 0.23025 1.02494 0.0
C12 C 0.38477 0.14731 1.02605 0.0
C13 C 0.47147 0.2674 0.11641 0.0
C14 C 0.53304 0.19052 0.11996 0.0
C15 C 0.50893 -0.00815 0.03288 0.0
C16 C 0.42159 0.87128 0.94378 0.0
C17 C 0.36002 0.94805 0.94089 0.0
C18 C 0.06417 -0.02179 0.44034 0.0
C19 C 1.0418 0.54489 1.03004 0.0
O20 O 0.82368 0.71818 0.20566 0.0
O21 O 0.79922 0.69546 0.85021 0.0
O22 O 0.04457 0.05342 0.77465 0.0
O23 O 0.95214 0.75084 0.65049 0.0
O24 O 0.11933 0.36652 0.99283 0.0
O25 O 0.97204 0.18496 0.06166 0.0
O26 O 0.26286 0.18785 0.85474 0.0
O27 O 0.28717 0.21402 0.21007 0.0
O28 O 1.0419 0.85452 0.28441 0.0
O29 O 0.13385 0.15706 0.40853 0.0
O30 O 0.96702 0.54126 0.06561 0.0
O31 O 0.11438 0.72293 0.99747 0.0
H32 H 0.63998 0.65172 0.7123 0.0
H33 H 0.53247 0.78552 0.70835 0.0
H34 H 0.63352 0.0131 0.36235 0.0
H35 H 0.74227 0.88438 0.36417 0.0
H36 H 0.49157 0.42091 0.18413 0.0
H37 H 0.59982 0.28792 0.1885 0.0
H38 H 0.40047 0.71623 0.87877 0.0
H39 H 0.29305 0.85143 0.8727 0.0
loop_
_geom_bond_atom_site_label_1
_geom_bond_atom_site_label_2
_geom_bond_distance
_geom_bond_site_symmetry_2
_ccdc_geom_bond_type
Pr0 C2 2.880 . S
Pr0 O20 2.562 1_556 S
Pr0 O21 2.490 . S
Pr0 O22 2.695 1_655 S
Pr0 O23 2.512 . S
Pr0 O25 2.437 1_565 S
Pr0 O28 2.436 1_566 S
Pr0 O30 2.438 . S
Pr1 C11 2.880 . S
Pr1 O22 2.436 1_544 S
Pr1 O24 2.438 . S
Pr1 O26 2.562 1_554 S
Pr1 O27 2.490 . S
Pr1 O28 2.695 1_455 S
Pr1 O29 2.512 . S
Pr1 O31 2.437 1_545 S
C2 Pr0 2.880 . S
C2 C3 1.491 . S
C2 O20 1.254 1_556 S
C2 O21 1.225 . S
C3 C2 1.491 . S
C3 C4 1.392 . S
C3 C8 1.356 1_566 S
C4 C3 1.392 . S
C4 C5 1.368 . S
C4 H32 0.929 . S
C5 C4 1.368 . S
C5 C6 1.386 . S
C5 H33 0.929 . S
C6 C5 1.386 . S
C6 C7 1.373 1_566 S
C7 C6 1.373 1_544 S
C7 C8 1.409 . S
C7 H34 0.931 . S
C8 C3 1.356 1_544 S
C8 C7 1.409 . S
C8 H35 0.930 . S
C9 O22 1.270 1_655 S
C9 O23 1.248 . S
C10 O24 1.267 1_556 S
C10 O25 1.278 1_455 S
C11 Pr1 2.880 . S
C11 C12 1.491 . S
C11 O26 1.254 1_554 S
C11 O27 1.225 . S
C12 C11 1.491 . S
C12 C13 1.392 . S
C12 C17 1.356 1_544 S
C13 C12 1.392 . S
C13 C14 1.368 . S
C13 H36 0.929 . S
C14 C13 1.368 . S
C14 C15 1.386 . S
C14 H37 0.929 . S
C15 C14 1.386 . S
C15 C16 1.373 1_544 S
C16 C15 1.373 1_566 S
C16 C17 1.409 . S
C16 H38 0.931 . S
C17 C12 1.356 1_566 S
C17 C16 1.409 . S
C17 H39 0.930 . S
C18 O28 1.270 1_455 S
C18 O29 1.248 . S
C19 O30 1.267 1_554 S
C19 O31 1.278 1_655 S
O20 Pr0 2.562 1_554 S
O20 C2 1.254 1_554 S
O21 Pr0 2.490 . S
O21 C2 1.225 . S
O22 Pr0 2.695 1_455 S
O22 Pr1 2.436 1_566 S
O22 C9 1.270 1_455 S
O23 Pr0 2.512 . S
O23 C9 1.248 . S
O24 Pr1 2.438 . S
O24 C10 1.267 1_554 S
O25 Pr0 2.437 1_545 S
O25 C10 1.278 1_655 S
O26 Pr1 2.562 1_556 S
O26 C11 1.254 1_556 S
O27 Pr1 2.490 . S
O27 C11 1.225 . S
O28 Pr0 2.436 1_544 S
O28 Pr1 2.695 1_655 S
O28 C18 1.270 1_655 S
O29 Pr1 2.512 . S
O29 C18 1.248 . S
O30 Pr0 2.438 . S
O30 C19 1.267 1_556 S
O31 Pr1 2.437 1_565 S
O31 C19 1.278 1_455 S
H32 C4 0.929 . S
H33 C5 0.929 . S
H34 C7 0.931 . S
H35 C8 0.930 . S
H36 C13 0.929 . S
H37 C14 0.929 . S
H38 C16 0.931 . S
H39 C17 0.930 . S
C18 C9 1.500 1_445 S
C15 C6 1.500 1_544 S
C19 C10 1.500 1_654 S
