# Generated by pormake.
# Topology bcg, (8)-cn, num edge types: 1
# Building blocks:
#     Node 0, Type 0, BuildingBlock: EBIMEJ_clean_sbu_0, # of connection points: 8
#     Node 1, Type 0, BuildingBlock: EBIMEJ_clean_sbu_0, # of connection points: 8
#     Node 2, Type 0, BuildingBlock: EBIMEJ_clean_sbu_0, # of connection points: 8
#     Node 3, Type 0, BuildingBlock: EBIMEJ_clean_sbu_0, # of connection points: 8
#     Edge 4, Type (0, 0), None
#     Edge 5, Type (0, 0), None
#     Edge 6, Type (0, 0), None
#     Edge 7, Type (0, 0), None
#     Edge 8, Type (0, 0), None
#     Edge 9, Type (0, 0), None
#     Edge 10, Type (0, 0), None
#     Edge 11, Type (0, 0), None
#     Edge 12, Type (0, 0), None
#     Edge 13, Type (0, 0), None
#     Edge 14, Type (0, 0), None
#     Edge 15, Type (0, 0), None
#     Edge 16, Type (0, 0), None
#     Edge 17, Type (0, 0), None
#     Edge 18, Type (0, 0), None
#     Edge 19, Type (0, 0), None
# Relax obj value: 0.039
# Max RMSD: 0.094
# Mean RMSD: 0.094
data_MOF--net-bcg--node1-EBIMEJ_clean_sbu_0--edge1-none
_symmetry_space_group_name_H-M    P1
_symmetry_Int_Tables_number       1
_symmetry_cell_setting            triclinic
loop_
_symmetry_equiv_pos_as_xyz
'x, y, z'
_cell_length_a     9.2412957
_cell_length_b     13.812959
_cell_length_c     18.956589
_cell_angle_alpha  82.823035
_cell_angle_beta   90.00003
_cell_angle_gamma 89.999853
loop_
_atom_site_label
_atom_site_type_symbol
_atom_site_fract_x
_atom_site_fract_y
_atom_site_fract_z
_atom_type_partial_charge
Co0 Co 0.04448 0.20529 0.9068 0.0
Co1 Co 0.36322 0.24461 0.97846 0.0
Co2 Co 0.10364 0.22535 0.0715 0.0
H3 H 0.10468 0.23454 0.98648 0.0
O4 O 0.15921 0.28256 0.97009 0.0
H5 H 0.36218 0.23542 0.06348 0.0
O6 O 0.30765 0.1874 0.07987 0.0
Co7 Co 0.42238 0.26466 0.14316 0.0
O8 O 0.61741 0.26246 0.09251 0.0
O9 O 0.56812 0.20843 0.98837 0.0
O10 O 0.25794 0.26442 0.21757 0.0
O11 O 0.06968 0.18896 0.17358 0.0
O12 O 0.02906 0.17403 0.80387 0.0
O13 O 0.86911 0.25679 0.84517 0.0
O14 O 0.46709 0.40082 0.10075 0.0
O15 O 0.41469 0.38432 0.98788 0.0
C16 C 0.81017 0.23511 1.01642 0.0
C17 C 0.33353 0.24633 0.82575 0.0
C18 C 0.55652 0.25244 0.25754 0.0
C19 C 0.00761 0.03521 1.0143 0.0
C20 C 0.65668 0.23485 0.03354 0.0
C21 C 0.13333 0.22362 0.22421 0.0
C22 C 0.91034 0.21752 0.79242 0.0
C23 C 0.45924 0.43475 0.03566 0.0
O24 O 0.84945 0.2075 0.95745 0.0
O25 O 0.89873 0.26153 0.06159 0.0
O26 O 0.39718 0.281 0.87638 0.0
O27 O 0.20892 0.20553 0.83239 0.0
O28 O 0.4378 0.29592 0.24609 0.0
O29 O 0.59774 0.21316 0.20479 0.0
O30 O -0.00024 0.06914 0.94921 0.0
O31 O 0.05217 0.08564 0.06208 0.0
Co32 Co 0.54448 0.70529 0.9068 0.0
Co33 Co 0.86322 0.74461 0.97846 0.0
Co34 Co 0.60364 0.72535 0.0715 0.0
H35 H 0.60468 0.73454 0.98648 0.0
O36 O 0.65921 0.78256 0.97009 0.0
H37 H 0.86218 0.73542 0.06348 0.0
O38 O 0.80765 0.6874 0.07987 0.0
Co39 Co 0.92238 0.76466 0.14316 0.0
O40 O 0.11741 0.76247 0.09251 0.0
O41 O 0.06812 0.70843 0.98837 0.0
O42 O 0.75794 0.76442 0.21757 0.0
O43 O 0.56968 0.68896 0.17358 0.0
O44 O 0.52906 0.67403 0.80387 0.0
O45 O 0.36911 0.75679 0.84517 0.0
O46 O 0.96708 0.90082 0.10075 0.0
O47 O 0.91469 0.88432 0.98788 0.0
C48 C 0.31017 0.73511 1.01642 0.0
C49 C 0.83353 0.74633 0.82575 0.0
C50 C 0.05652 0.75244 0.25754 0.0
C51 C 0.50762 0.53521 1.0143 0.0
C52 C 0.15668 0.73485 0.03354 0.0
C53 C 0.63333 0.72362 0.22421 0.0
C54 C 0.41034 0.71752 0.79242 0.0
C55 C 0.95923 0.93475 0.03566 0.0
O56 O 0.34945 0.7075 0.95745 0.0
O57 O 0.39873 0.76153 0.06159 0.0
O58 O 0.89718 0.781 0.87638 0.0
O59 O 0.70892 0.70553 0.83239 0.0
O60 O 0.9378 0.79592 0.24609 0.0
O61 O 0.09774 0.71316 0.20479 0.0
O62 O 0.49977 0.56913 0.94921 0.0
O63 O 0.55217 0.58564 0.06208 0.0
Co64 Co 0.04448 0.76466 0.64316 0.0
Co65 Co 0.36322 0.72534 0.5715 0.0
Co66 Co 0.10364 0.74461 0.47846 0.0
H67 H 0.10468 0.73542 0.56348 0.0
O68 O 0.15921 0.68739 0.57987 0.0
H69 H 0.36218 0.73453 0.48649 0.0
O70 O 0.30765 0.78255 0.47009 0.0
Co71 Co 0.42238 0.70529 0.4068 0.0
O72 O 0.61741 0.70749 0.45745 0.0
O73 O 0.56812 0.76152 0.56159 0.0
O74 O 0.25795 0.70554 0.33239 0.0
O75 O 0.06968 0.781 0.37638 0.0
O76 O 0.02907 0.79591 0.7461 0.0
O77 O 0.86911 0.71315 0.70479 0.0
O78 O 0.46709 0.56913 0.44921 0.0
O79 O 0.41469 0.58564 0.56208 0.0
C80 C 0.81017 0.73484 0.53354 0.0
C81 C 0.33352 0.72361 0.72421 0.0
C82 C 0.5565 0.71754 0.29242 0.0
C83 C 0.00761 0.93474 0.53566 0.0
C84 C 0.65668 0.7351 0.51642 0.0
C85 C 0.13333 0.74634 0.32575 0.0
C86 C 0.91035 0.75241 0.75755 0.0
C87 C 0.45924 0.53521 0.5143 0.0
O88 O 0.84945 0.76245 0.59251 0.0
O89 O 0.89873 0.70843 0.48837 0.0
O90 O 0.39718 0.68895 0.67358 0.0
O91 O 0.20891 0.76441 0.71757 0.0
O92 O 0.43779 0.67404 0.30386 0.0
O93 O 0.59774 0.7568 0.34518 0.0
O94 O -0.00024 0.90082 0.60075 0.0
O95 O 0.05217 0.88431 0.48788 0.0
Co96 Co 0.54448 0.26466 0.64316 0.0
Co97 Co 0.86322 0.22534 0.5715 0.0
Co98 Co 0.60364 0.24461 0.47846 0.0
H99 H 0.60468 0.23542 0.56348 0.0
O100 O 0.65921 0.18739 0.57987 0.0
H101 H 0.86218 0.23453 0.48649 0.0
O102 O 0.80765 0.28255 0.47009 0.0
Co103 Co 0.92238 0.20529 0.4068 0.0
O104 O 0.11741 0.20749 0.45745 0.0
O105 O 0.06812 0.26152 0.56159 0.0
O106 O 0.75795 0.20554 0.33239 0.0
O107 O 0.56968 0.281 0.37638 0.0
O108 O 0.52907 0.29591 0.7461 0.0
O109 O 0.36911 0.21315 0.70479 0.0
O110 O 0.96708 0.06913 0.44921 0.0
O111 O 0.91469 0.08564 0.56208 0.0
C112 C 0.31017 0.23484 0.53354 0.0
C113 C 0.83352 0.22361 0.72421 0.0
C114 C 0.0565 0.21754 0.29242 0.0
C115 C 0.50762 0.43474 0.53566 0.0
C116 C 0.15668 0.2351 0.51642 0.0
C117 C 0.63333 0.24634 0.32575 0.0
C118 C 0.41035 0.25241 0.75755 0.0
C119 C 0.95923 0.0352 0.5143 0.0
O120 O 0.34945 0.26246 0.59251 0.0
O121 O 0.39873 0.20843 0.48837 0.0
O122 O 0.89718 0.18895 0.67358 0.0
O123 O 0.70891 0.26441 0.71757 0.0
O124 O 0.93779 0.17404 0.30386 0.0
O125 O 0.09774 0.2568 0.34518 0.0
O126 O 0.49977 0.40082 0.60075 0.0
O127 O 0.55217 0.38431 0.48788 0.0
loop_
_geom_bond_atom_site_label_1
_geom_bond_atom_site_label_2
_geom_bond_distance
_geom_bond_site_symmetry_2
_ccdc_geom_bond_type
Co0 H3 2.400 . S
Co0 O4 2.009 . S
Co0 O12 2.115 1_455 S
Co0 O13 2.315 . S
Co0 O24 2.053 1_455 S
Co0 O27 2.094 . S
Co0 O30 2.122 . S
Co1 O4 2.126 . S
Co1 H5 2.388 1_556 S
Co1 O6 2.053 1_556 S
Co1 O9 2.047 . S
Co1 O15 2.113 . S
Co1 O26 2.063 . S
Co2 H3 2.388 1_554 S
Co2 O4 2.053 1_554 S
Co2 O6 2.126 . S
Co2 O11 2.063 . S
Co2 O25 2.047 1_455 S
Co2 O31 2.113 . S
H3 Co0 2.400 . S
H3 Co2 2.388 1_556 S
H3 O4 0.760 . S
O4 Co0 2.009 . S
O4 Co1 2.126 . S
O4 Co2 2.053 1_556 S
O4 H3 0.760 . S
H5 Co1 2.388 1_554 S
H5 O6 0.760 . S
H5 Co7 2.400 . S
O6 Co1 2.053 1_554 S
O6 Co2 2.126 . S
O6 H5 0.760 . S
O6 Co7 2.009 . S
Co7 H5 2.400 . S
Co7 O6 2.009 . S
Co7 O8 2.053 . S
Co7 O10 2.094 . S
Co7 O14 2.122 . S
Co7 O28 2.115 . S
Co7 O29 2.315 . S
O8 Co7 2.053 . S
O8 C20 1.259 . S
O9 Co1 2.047 . S
O9 C20 1.257 1_556 S
O10 Co7 2.094 . S
O10 C21 1.253 . S
O11 Co2 2.063 . S
O11 C21 1.268 . S
O12 Co0 2.115 1_655 S
O12 C22 1.281 . S
O13 Co0 2.315 . S
O13 C22 1.252 1_455 S
O14 Co7 2.122 . S
O14 C23 1.272 . S
O15 Co1 2.113 . S
O15 C23 1.245 1_556 S
C16 O24 1.259 . S
C16 O25 1.257 1_556 S
C17 O26 1.268 . S
C17 O27 1.253 . S
C18 O28 1.281 . S
C18 O29 1.252 . S
C19 O30 1.272 . S
C19 O31 1.245 1_556 S
C20 O8 1.259 . S
C20 O9 1.257 1_554 S
C21 O10 1.253 . S
C21 O11 1.268 . S
C22 O12 1.281 . S
C22 O13 1.252 1_655 S
C23 O14 1.272 . S
C23 O15 1.245 1_554 S
O24 Co0 2.053 1_655 S
O24 C16 1.259 . S
O25 Co2 2.047 1_655 S
O25 C16 1.257 1_554 S
O26 Co1 2.063 . S
O26 C17 1.268 . S
O27 Co0 2.094 . S
O27 C17 1.253 . S
O28 Co7 2.115 . S
O28 C18 1.281 . S
O29 Co7 2.315 . S
O29 C18 1.252 . S
O30 Co0 2.122 . S
O30 C19 1.272 . S
O31 Co2 2.113 . S
O31 C19 1.245 1_554 S
Co32 H35 2.400 . S
Co32 O36 2.009 . S
Co32 O44 2.115 . S
Co32 O45 2.315 . S
Co32 O56 2.053 . S
Co32 O59 2.094 . S
Co32 O62 2.122 . S
Co33 O36 2.126 . S
Co33 H37 2.388 1_556 S
Co33 O38 2.053 1_556 S
Co33 O41 2.047 1_655 S
Co33 O47 2.113 . S
Co33 O58 2.063 . S
Co34 H35 2.388 1_554 S
Co34 O36 2.053 1_554 S
Co34 O38 2.126 . S
Co34 O43 2.063 . S
Co34 O57 2.047 . S
Co34 O63 2.113 . S
H35 Co32 2.400 . S
H35 Co34 2.388 1_556 S
H35 O36 0.760 . S
O36 Co32 2.009 . S
O36 Co33 2.126 . S
O36 Co34 2.053 1_556 S
O36 H35 0.760 . S
H37 Co33 2.388 1_554 S
H37 O38 0.760 . S
H37 Co39 2.400 . S
O38 Co33 2.053 1_554 S
O38 Co34 2.126 . S
O38 H37 0.760 . S
O38 Co39 2.009 . S
Co39 H37 2.400 . S
Co39 O38 2.009 . S
Co39 O40 2.053 1_655 S
Co39 O42 2.094 . S
Co39 O46 2.122 . S
Co39 O60 2.115 1_655 S
Co39 O61 2.315 . S
O40 Co39 2.053 1_455 S
O40 C52 1.259 . S
O41 Co33 2.047 1_455 S
O41 C52 1.257 1_556 S
O42 Co39 2.094 . S
O42 C53 1.253 . S
O43 Co34 2.063 . S
O43 C53 1.268 . S
O44 Co32 2.115 . S
O44 C54 1.281 . S
O45 Co32 2.315 . S
O45 C54 1.252 . S
O46 Co39 2.122 . S
O46 C55 1.272 . S
O47 Co33 2.113 . S
O47 C55 1.245 1_556 S
C48 O56 1.259 . S
C48 O57 1.257 1_556 S
C49 O58 1.268 . S
C49 O59 1.253 . S
C50 O60 1.281 . S
C50 O61 1.252 1_455 S
C51 O62 1.272 . S
C51 O63 1.245 1_556 S
C52 O40 1.259 . S
C52 O41 1.257 1_554 S
C53 O42 1.253 . S
C53 O43 1.268 . S
C54 O44 1.281 . S
C54 O45 1.252 . S
C55 O46 1.272 . S
C55 O47 1.245 1_554 S
O56 Co32 2.053 . S
O56 C48 1.259 . S
O57 Co34 2.047 . S
O57 C48 1.257 1_554 S
O58 Co33 2.063 . S
O58 C49 1.268 . S
O59 Co32 2.094 . S
O59 C49 1.253 . S
O60 Co39 2.115 1_455 S
O60 C50 1.281 . S
O61 Co39 2.315 . S
O61 C50 1.252 1_655 S
O62 Co32 2.122 . S
O62 C51 1.272 . S
O63 Co34 2.113 . S
O63 C51 1.245 1_554 S
Co64 H67 2.400 . S
Co64 O68 2.009 . S
Co64 O76 2.115 1_455 S
Co64 O77 2.315 . S
Co64 O88 2.053 1_455 S
Co64 O91 2.094 . S
Co64 O94 2.122 . S
Co65 O68 2.126 . S
Co65 H69 2.388 . S
Co65 O70 2.053 . S
Co65 O73 2.047 . S
Co65 O79 2.113 . S
Co65 O90 2.063 . S
Co66 H67 2.388 . S
Co66 O68 2.053 . S
Co66 O70 2.126 . S
Co66 O75 2.063 . S
Co66 O89 2.047 1_455 S
Co66 O95 2.113 . S
H67 Co64 2.400 . S
H67 Co66 2.388 . S
H67 O68 0.760 . S
O68 Co64 2.009 . S
O68 Co65 2.126 . S
O68 Co66 2.053 . S
O68 H67 0.760 . S
H69 Co65 2.388 . S
H69 O70 0.760 . S
H69 Co71 2.400 . S
O70 Co65 2.053 . S
O70 Co66 2.126 . S
O70 H69 0.760 . S
O70 Co71 2.009 . S
Co71 H69 2.400 . S
Co71 O70 2.009 . S
Co71 O72 2.053 . S
Co71 O74 2.094 . S
Co71 O78 2.122 . S
Co71 O92 2.115 . S
Co71 O93 2.315 . S
O72 Co71 2.053 . S
O72 C84 1.259 . S
O73 Co65 2.047 . S
O73 C84 1.257 . S
O74 Co71 2.094 . S
O74 C85 1.253 . S
O75 Co66 2.063 . S
O75 C85 1.268 . S
O76 Co64 2.115 1_655 S
O76 C86 1.281 . S
O77 Co64 2.315 . S
O77 C86 1.252 1_455 S
O78 Co71 2.122 . S
O78 C87 1.272 . S
O79 Co65 2.113 . S
O79 C87 1.245 . S
C80 O88 1.259 . S
C80 O89 1.257 . S
C81 O90 1.268 . S
C81 O91 1.253 . S
C82 O92 1.281 . S
C82 O93 1.252 . S
C83 O94 1.272 . S
C83 O95 1.245 . S
C84 O72 1.259 . S
C84 O73 1.257 . S
C85 O74 1.253 . S
C85 O75 1.268 . S
C86 O76 1.281 . S
C86 O77 1.252 1_655 S
C87 O78 1.272 . S
C87 O79 1.245 . S
O88 Co64 2.053 1_655 S
O88 C80 1.259 . S
O89 Co66 2.047 1_655 S
O89 C80 1.257 . S
O90 Co65 2.063 . S
O90 C81 1.268 . S
O91 Co64 2.094 . S
O91 C81 1.253 . S
O92 Co71 2.115 . S
O92 C82 1.281 . S
O93 Co71 2.315 . S
O93 C82 1.252 . S
O94 Co64 2.122 . S
O94 C83 1.272 . S
O95 Co66 2.113 . S
O95 C83 1.245 . S
Co96 H99 2.400 . S
Co96 O100 2.009 . S
Co96 O108 2.115 . S
Co96 O109 2.315 . S
Co96 O120 2.053 . S
Co96 O123 2.094 . S
Co96 O126 2.122 . S
Co97 O100 2.126 . S
Co97 H101 2.388 . S
Co97 O102 2.053 . S
Co97 O105 2.047 1_655 S
Co97 O111 2.113 . S
Co97 O122 2.063 . S
Co98 H99 2.388 . S
Co98 O100 2.053 . S
Co98 O102 2.126 . S
Co98 O107 2.063 . S
Co98 O121 2.047 . S
Co98 O127 2.113 . S
H99 Co96 2.400 . S
H99 Co98 2.388 . S
H99 O100 0.760 . S
O100 Co96 2.009 . S
O100 Co97 2.126 . S
O100 Co98 2.053 . S
O100 H99 0.760 . S
H101 Co97 2.388 . S
H101 O102 0.760 . S
H101 Co103 2.400 . S
O102 Co97 2.053 . S
O102 Co98 2.126 . S
O102 H101 0.760 . S
O102 Co103 2.009 . S
Co103 H101 2.400 . S
Co103 O102 2.009 . S
Co103 O104 2.053 1_655 S
Co103 O106 2.094 . S
Co103 O110 2.122 . S
Co103 O124 2.115 1_655 S
Co103 O125 2.315 . S
O104 Co103 2.053 1_455 S
O104 C116 1.259 . S
O105 Co97 2.047 1_455 S
O105 C116 1.257 . S
O106 Co103 2.094 . S
O106 C117 1.253 . S
O107 Co98 2.063 . S
O107 C117 1.268 . S
O108 Co96 2.115 . S
O108 C118 1.281 . S
O109 Co96 2.315 . S
O109 C118 1.252 . S
O110 Co103 2.122 . S
O110 C119 1.272 . S
O111 Co97 2.113 . S
O111 C119 1.245 . S
C112 O120 1.259 . S
C112 O121 1.257 . S
C113 O122 1.268 . S
C113 O123 1.253 . S
C114 O124 1.281 . S
C114 O125 1.252 1_455 S
C115 O126 1.272 . S
C115 O127 1.245 . S
C116 O104 1.259 . S
C116 O105 1.257 . S
C117 O106 1.253 . S
C117 O107 1.268 . S
C118 O108 1.281 . S
C118 O109 1.252 . S
C119 O110 1.272 . S
C119 O111 1.245 . S
O120 Co96 2.053 . S
O120 C112 1.259 . S
O121 Co98 2.047 . S
O121 C112 1.257 . S
O122 Co97 2.063 . S
O122 C113 1.268 . S
O123 Co96 2.094 . S
O123 C113 1.253 . S
O124 Co103 2.115 1_455 S
O124 C114 1.281 . S
O125 Co103 2.315 . S
O125 C114 1.252 1_655 S
O126 Co96 2.122 . S
O126 C115 1.272 . S
O127 Co98 2.113 . S
O127 C115 1.245 . S
C20 C16 1.530 1_554 S
C52 C48 1.530 1_554 S
C84 C80 1.530 . S
C116 C112 1.530 . S
C51 C23 1.384 1_556 S
C115 C87 1.384 . S
C19 C55 1.384 1_446 S
C119 C83 1.384 1_645 S
C117 C18 1.651 . S
C53 C82 1.651 . S
C81 C54 1.654 . S
C17 C118 1.654 . S
C85 C50 1.651 . S
C114 C21 1.651 . S
C22 C113 1.654 . S
C86 C49 1.654 . S
