# Generated by pormake.
# Topology pcu, (6)-cn, num edge types: 1
# Building blocks:
#     Node 0, Type 0, BuildingBlock: PAMTUU_clean_sbu_0, # of connection points: 6
#     Edge 1, Type (0, 0), BuildingBlock: XIVTED_clean_linker_0, # of connection points: 2
#     Edge 2, Type (0, 0), BuildingBlock: XIVTED_clean_linker_0, # of connection points: 2
#     Edge 3, Type (0, 0), BuildingBlock: XIVTED_clean_linker_0, # of connection points: 2
# Relax obj value: 0.000
# Max RMSD: 0.000
# Mean RMSD: 0.000
data_MOF--net-pcu--node1-PAMTUU_clean_sbu_0--edge1-XIVTED_clean_linker_0
_symmetry_space_group_name_H-M    P1
_symmetry_Int_Tables_number       1
_symmetry_cell_setting            triclinic
loop_
_symmetry_equiv_pos_as_xyz
'x, y, z'
_cell_length_a     25.66824
_cell_length_b     15.404158
_cell_length_c     15.202058
_cell_angle_alpha  83.594022
_cell_angle_beta   97.86617
_cell_angle_gamma 118.33858
loop_
_atom_site_label
_atom_site_type_symbol
_atom_site_fract_x
_atom_site_fract_y
_atom_site_fract_z
_atom_type_partial_charge
Tb0 Tb 0.10166 0.04968 -0.00959 0.0
Tb1 Tb 0.95386 0.93504 0.97075 0.0
C2 C 0.02831 0.98878 0.15311 0.0
C3 C 0.26122 0.10069 0.01232 0.0
C4 C 0.35537 0.05266 0.01952 0.0
C5 C 0.36504 0.14148 0.05251 0.0
C6 C 0.31843 0.16525 0.04872 0.0
C7 C 0.25081 0.01045 0.982 0.0
C8 C 0.29742 0.98675 0.98543 0.0
C9 C 0.21425 0.13159 0.00096 0.0
O10 O 0.07605 0.89759 0.96798 0.0
O11 O 0.97994 0.81929 0.00808 0.0
O12 O 0.98473 0.92148 0.84953 0.0
O13 O 0.06809 0.07025 0.85444 0.0
O14 O 0.87274 0.84115 0.02401 0.0
O15 O 0.87478 0.90478 0.88963 0.0
O16 O 0.98043 0.09152 0.94379 0.0
O17 O 0.07716 0.16268 0.00925 0.0
O18 O 0.07096 0.98268 0.11978 0.0
O19 O 0.98442 -0.00595 0.10172 0.0
C20 C 0.0282 0.81743 -0.00977 0.0
O21 O 0.17983 0.10953 0.9268 0.0
O22 O 0.18409 0.11551 0.06861 0.0
C23 C 1.02688 -0.00365 0.8094 0.0
C24 C 0.79303 0.87394 0.96537 0.0
C25 C 0.69864 0.91546 0.98084 0.0
C26 C 0.68802 0.82941 0.94137 0.0
C27 C 0.73472 0.80902 0.93373 0.0
C28 C 0.80416 0.95953 0.00572 0.0
C29 C 0.75728 0.97997 0.01369 0.0
C30 C 0.84139 0.85212 0.9526 0.0
C31 C 0.02853 0.16791 0.97616 0.0
H32 H 0.40909 0.19435 0.07845 0.0
H33 H 0.32743 0.23538 0.07218 0.0
H34 H 0.20695 0.95932 0.95381 0.0
H35 H 0.28816 0.91708 0.96071 0.0
H36 H 0.64344 0.77731 0.91662 0.0
H37 H 0.72531 0.74262 0.90238 0.0
H38 H 0.84906 0.01088 0.03008 0.0
H39 H 0.76715 0.04728 0.04372 0.0
H40 H 0.9945 0.09585 0.24034 0.0
H41 H 0.99686 0.83775 0.71316 0.0
H42 H 0.06638 0.8904 0.28527 0.0
H43 H 0.06152 0.15308 0.6876 0.0
H44 H 1.00054 0.83756 0.55244 0.0
H45 H 0.99723 0.1009 0.40195 0.0
C46 C 1.01065 0.05161 0.28436 0.0
C47 C 0.03029 -0.00739 0.24996 0.0
C48 C 1.01396 0.90659 0.58237 0.0
C49 C 0.03226 -0.0034 0.4334 0.0
C50 C 1.01155 0.90676 0.67351 0.0
C51 C 0.02889 -0.00438 0.71314 0.0
C52 C 0.03201 -0.00464 0.53048 0.0
C53 C 0.04802 0.08321 0.65928 0.0
C54 C 1.01247 0.05501 0.37611 0.0
C55 C 0.05114 0.93711 0.30952 0.0
N56 N 0.04829 0.08078 0.57017 0.0
N57 N 0.05082 0.9393 0.39867 0.0
H58 H 0.44912 0.08466 0.14689 0.0
H59 H 0.60637 0.89076 0.85424 0.0
H60 H 0.37756 0.97229 0.88597 0.0
H61 H 0.67673 -0.00844 0.11907 0.0
H62 H 0.52302 0.92243 0.86494 0.0
H63 H 0.53336 0.05354 0.1382 0.0
C64 C 0.45111 0.05361 0.08771 0.0
C65 C 0.40595 0.03095 0.01711 0.0
C66 C 0.55659 0.93761 0.92087 0.0
C67 C 0.50239 -0.00513 0.00683 0.0
C68 C 0.60417 0.91905 0.91498 0.0
C69 C 0.64862 0.93778 0.98613 0.0
C70 C 0.55304 0.97538 -0.00149 0.0
C71 C 0.64384 0.97664 0.06228 0.0
C72 C 0.49915 0.03552 0.08294 0.0
C73 C 0.4107 -0.01033 0.9426 0.0
N74 N 0.59688 -0.00614 0.06656 0.0
N75 N 0.45799 0.97327 0.93939 0.0
H76 H 0.12407 0.78505 -0.00962 0.0
H77 H 0.93176 0.20198 0.94808 0.0
H78 H 0.93317 0.631 -0.0062 0.0
H79 H 0.12254 0.35022 0.00816 0.0
H80 H 0.93099 0.35937 0.95408 0.0
H81 H 0.1239 0.6271 0.98729 0.0
C82 C 0.08205 0.71801 -0.00942 0.0
C83 C 0.0285 0.72143 -0.00782 0.0
C84 C 0.97297 0.35731 0.96599 0.0
C85 C 0.02805 0.53992 0.98823 0.0
C86 C 0.97353 0.26761 0.96211 0.0
C87 C 1.02736 0.26286 0.97743 0.0
C88 C 1.02666 0.44306 0.9845 0.0
C89 C 0.07999 0.35022 -0.00397 0.0
C90 C 0.08205 0.62772 -0.01096 0.0
C91 C 0.97552 0.63189 -0.00712 0.0
N92 N 0.07832 0.4367 -0.00128 0.0
N93 N 0.97658 0.54475 -0.00961 0.0
loop_
_geom_bond_atom_site_label_1
_geom_bond_atom_site_label_2
_geom_bond_distance
_geom_bond_site_symmetry_2
_ccdc_geom_bond_type
Tb0 C9 2.764 . S
Tb0 O10 2.325 1_545 S
Tb0 O13 2.303 1_554 S
Tb0 O17 2.322 . S
Tb0 O18 2.349 . S
Tb0 O21 2.415 1_554 S
Tb0 O22 2.399 . S
Tb1 O11 2.322 . S
Tb1 O12 2.349 . S
Tb1 O14 2.415 1_556 S
Tb1 O15 2.399 . S
Tb1 O16 2.325 1_565 S
Tb1 O19 2.303 1_556 S
Tb1 C30 2.764 . S
C2 O18 1.261 . S
C2 O19 1.257 1_445 S
C3 C6 1.358 . S
C3 C7 1.332 1_544 S
C3 C9 1.504 . S
C4 C5 1.373 1_566 S
C4 C8 1.308 . S
C5 C4 1.373 1_544 S
C5 C6 1.429 . S
C5 H32 0.932 . S
C6 C3 1.358 . S
C6 C5 1.429 . S
C6 H33 0.930 . S
C7 C3 1.332 1_566 S
C7 C8 1.394 . S
C7 H34 0.932 . S
C8 C4 1.308 . S
C8 C7 1.394 . S
C8 H35 0.929 . S
C9 Tb0 2.764 . S
C9 C3 1.504 . S
C9 O21 1.239 1_554 S
C9 O22 1.263 . S
O10 Tb0 2.325 1_565 S
O10 C20 1.232 1_455 S
O11 Tb1 2.322 . S
O11 C20 1.266 1_556 S
O12 Tb1 2.349 . S
O12 C23 1.261 . S
O13 Tb0 2.303 1_556 S
O13 C23 1.257 1_445 S
O14 Tb1 2.415 1_554 S
O14 C30 1.239 1_554 S
O15 Tb1 2.399 . S
O15 C30 1.263 . S
O16 Tb1 2.325 1_545 S
O16 C31 1.229 1_655 S
O17 Tb0 2.322 . S
O17 C31 1.271 1_554 S
O18 Tb0 2.349 . S
O18 C2 1.261 . S
O19 Tb1 2.303 1_554 S
O19 C2 1.257 1_665 S
C20 O10 1.232 1_655 S
C20 O11 1.266 1_554 S
O21 Tb0 2.415 1_556 S
O21 C9 1.239 1_556 S
O22 Tb0 2.399 . S
O22 C9 1.263 . S
C23 O12 1.261 . S
C23 O13 1.257 1_665 S
C24 C27 1.358 . S
C24 C28 1.332 1_566 S
C24 C30 1.504 . S
C25 C26 1.373 1_544 S
C25 C29 1.308 . S
C26 C25 1.373 1_566 S
C26 C27 1.429 . S
C26 H36 0.932 . S
C27 C24 1.358 . S
C27 C26 1.429 . S
C27 H37 0.930 . S
C28 C24 1.332 1_544 S
C28 C29 1.394 . S
C28 H38 0.932 . S
C29 C25 1.308 . S
C29 C28 1.394 . S
C29 H39 0.929 . S
C30 Tb1 2.764 . S
C30 O14 1.239 1_556 S
C30 O15 1.263 . S
C30 C24 1.504 . S
C31 O16 1.229 1_455 S
C31 O17 1.271 1_556 S
H32 C5 0.932 . S
H33 C6 0.930 . S
H34 C7 0.932 . S
H35 C8 0.929 . S
H36 C26 0.932 . S
H37 C27 0.930 . S
H38 C28 0.932 . S
H39 C29 0.929 . S
H40 C46 0.929 . S
H41 C50 0.929 . S
H42 C55 0.927 . S
H43 C53 0.927 . S
H44 C48 0.927 . S
H45 C54 0.927 . S
C46 H40 0.929 . S
C46 C47 1.366 1_655 S
C46 C54 1.378 . S
C47 C46 1.366 1_455 S
C47 C55 1.431 1_545 S
C48 H44 0.927 . S
C48 C50 1.378 . S
C48 C52 1.348 . S
C49 C52 1.463 1_545 S
C49 C54 1.350 1_455 S
C49 N57 1.424 1_545 S
C50 H41 0.929 . S
C50 C48 1.378 . S
C50 C51 1.364 . S
C51 C50 1.364 . S
C51 C53 1.433 1_465 S
C52 C48 1.348 . S
C52 C49 1.463 1_565 S
C52 N56 1.427 1_465 S
C53 H43 0.927 . S
C53 C51 1.433 1_645 S
C53 N56 1.384 . S
C54 H45 0.927 . S
C54 C46 1.378 . S
C54 C49 1.350 1_655 S
C55 H42 0.927 . S
C55 C47 1.431 1_565 S
C55 N57 1.384 . S
N56 C52 1.427 1_645 S
N56 C53 1.384 . S
N57 C49 1.424 1_565 S
N57 C55 1.384 . S
H58 C64 0.930 . S
H59 C68 0.930 . S
H60 C73 0.929 . S
H61 C71 0.929 . S
H62 C66 0.929 . S
H63 C72 0.929 . S
C64 H58 0.930 . S
C64 C65 1.367 . S
C64 C72 1.378 . S
C65 C64 1.367 . S
C65 C73 1.433 1_564 S
C66 H62 0.929 . S
C66 C68 1.378 . S
C66 C70 1.350 . S
C67 C70 1.463 1_564 S
C67 C72 1.350 . S
C67 N75 1.427 1_564 S
C68 H59 0.930 . S
C68 C66 1.378 . S
C68 C69 1.367 . S
C69 C68 1.367 . S
C69 C71 1.433 1_546 S
C70 C66 1.350 . S
C70 C67 1.463 1_546 S
C70 N74 1.427 1_546 S
C71 H61 0.929 . S
C71 C69 1.433 1_564 S
C71 N74 1.384 . S
C72 H63 0.929 . S
C72 C64 1.378 . S
C72 C67 1.350 . S
C73 H60 0.929 . S
C73 C65 1.433 1_546 S
C73 N75 1.384 . S
N74 C70 1.427 1_564 S
N74 C71 1.384 . S
N75 C67 1.427 1_546 S
N75 C73 1.384 . S
H76 C82 0.930 . S
H77 C86 0.930 . S
H78 C91 0.929 . S
H79 C89 0.929 . S
H80 C84 0.929 . S
H81 C90 0.929 . S
C82 H76 0.930 . S
C82 C83 1.367 1_556 S
C82 C90 1.378 . S
C83 C82 1.367 1_554 S
C83 C91 1.433 1_455 S
C84 H80 0.929 . S
C84 C86 1.378 . S
C84 C88 1.350 . S
C85 C88 1.463 1_456 S
C85 C90 1.350 . S
C85 N93 1.428 1_456 S
C86 H77 0.930 . S
C86 C84 1.378 . S
C86 C87 1.367 . S
C87 C86 1.367 . S
C87 C89 1.433 1_654 S
C88 C84 1.350 . S
C88 C85 1.463 1_654 S
C88 N92 1.427 1_654 S
C89 H79 0.929 . S
C89 C87 1.433 1_456 S
C89 N92 1.384 . S
C90 H81 0.929 . S
C90 C82 1.378 . S
C90 C85 1.350 . S
C91 H78 0.929 . S
C91 C83 1.433 1_655 S
C91 N93 1.384 . S
N92 C88 1.427 1_456 S
N92 C89 1.384 . S
N93 C85 1.428 1_654 S
N93 C91 1.384 . S
C47 C2 1.467 . S
C51 C23 1.467 1_455 S
C65 C4 1.499 1_554 S
C69 C25 1.499 1_556 S
C83 C20 1.493 1_455 S
C87 C31 1.490 1_654 S
