# Generated by pormake.
# Topology est, (5)-cn, num edge types: 1
# Building blocks:
#     Node 0, Type 0, BuildingBlock: XOMCOT_clean_sbu_0, # of connection points: 5
#     Node 1, Type 0, BuildingBlock: XOMCOT_clean_sbu_0, # of connection points: 5
#     Node 2, Type 0, BuildingBlock: XOMCOT_clean_sbu_0, # of connection points: 5
#     Node 3, Type 0, BuildingBlock: XOMCOT_clean_sbu_0, # of connection points: 5
#     Edge 4, Type (0, 0), BuildingBlock: OJICUG_clean_linker_0, # of connection points: 2
#     Edge 5, Type (0, 0), BuildingBlock: OJICUG_clean_linker_0, # of connection points: 2
#     Edge 6, Type (0, 0), BuildingBlock: OJICUG_clean_linker_0, # of connection points: 2
#     Edge 7, Type (0, 0), BuildingBlock: OJICUG_clean_linker_0, # of connection points: 2
#     Edge 8, Type (0, 0), BuildingBlock: OJICUG_clean_linker_0, # of connection points: 2
#     Edge 9, Type (0, 0), BuildingBlock: OJICUG_clean_linker_0, # of connection points: 2
#     Edge 10, Type (0, 0), BuildingBlock: OJICUG_clean_linker_0, # of connection points: 2
#     Edge 11, Type (0, 0), BuildingBlock: OJICUG_clean_linker_0, # of connection points: 2
#     Edge 12, Type (0, 0), BuildingBlock: OJICUG_clean_linker_0, # of connection points: 2
#     Edge 13, Type (0, 0), BuildingBlock: OJICUG_clean_linker_0, # of connection points: 2
# Relax obj value: 0.183
# Max RMSD: 0.236
# Mean RMSD: 0.236
data_MOF--net-est--node1-XOMCOT_clean_sbu_0--edge1-OJICUG_clean_linker_0
_symmetry_space_group_name_H-M    P1
_symmetry_Int_Tables_number       1
_symmetry_cell_setting            triclinic
loop_
_symmetry_equiv_pos_as_xyz
'x, y, z'
_cell_length_a     13.055282
_cell_length_b     13.080811
_cell_length_c     39.432243
_cell_angle_alpha  86.218222
_cell_angle_beta   90.752873
_cell_angle_gamma 90.478002
loop_
_atom_site_label
_atom_site_type_symbol
_atom_site_fract_x
_atom_site_fract_y
_atom_site_fract_z
_atom_type_partial_charge
Co0 Co 0.28699 0.15735 0.58598 0.0
C1 C 0.07041 0.20169 0.59674 0.0
C2 C 0.1315 0.29742 0.55577 0.0
C3 C 0.02611 0.30007 0.55357 0.0
N4 N 0.15991 0.23508 0.58285 0.0
N5 N 0.98772 0.23792 0.57903 0.0
H6 H 0.06538 0.13954 0.61599 0.0
H7 H 0.18286 0.3278 0.53625 0.0
C8 C 0.36489 0.37639 0.56997 0.0
O9 O 0.29787 0.41904 0.58909 0.0
N10 N 0.4128 0.07976 0.58864 0.0
C11 C 0.43965 0.00898 0.61346 0.0
C12 C 0.54503 0.00034 0.61412 0.0
C13 C 0.50169 0.11021 0.5739 0.0
N14 N 0.5839 0.06548 0.58949 0.0
C15 C 0.24386 0.12664 0.65663 0.0
C16 C 0.38925 0.25849 0.68105 0.0
C17 C 0.32639 0.20223 0.70426 0.0
C18 C 0.25323 0.13573 0.69148 0.0
C19 C 0.37784 0.24638 0.64602 0.0
N20 N 0.30366 0.18297 0.63408 0.0
H21 H 0.18955 0.0714 0.64808 0.0
H22 H 0.43078 0.28587 0.62889 0.0
H23 H 0.38762 0.97414 0.63204 0.0
H24 H 0.50756 0.17209 0.55456 0.0
O25 O 0.20582 0.03307 0.59014 0.0
O26 O 0.2556 0.11126 0.54166 0.0
O27 O 0.36903 0.27968 0.56904 0.0
C28 C 0.19763 0.04224 0.55715 0.0
H29 H 0.98195 0.33725 0.53295 0.0
H30 H 0.58966 0.95561 0.63297 0.0
H31 H 0.44837 0.3092 0.68991 0.0
H32 H 0.2029 0.09067 0.70832 0.0
Co33 Co 0.80634 0.74435 0.08726 0.0
C34 C 0.75892 0.5247 0.09571 0.0
C35 C 0.67826 0.59532 0.05299 0.0
C36 C 0.67616 0.4905 0.05056 0.0
N37 N 0.73087 0.61723 0.08134 0.0
N38 N 0.72854 0.44636 0.07728 0.0
H39 H 0.81401 0.51504 0.1162 0.0
H40 H 0.65442 0.65145 0.03316 0.0
C41 C 0.59476 0.82772 0.06626 0.0
O42 O 0.5416 0.75823 0.0842 0.0
N43 N 0.88168 0.87055 0.09267 0.0
C44 C 0.93941 0.89275 0.11982 0.0
C45 C 0.94655 -0.00206 0.12073 0.0
C46 C 0.85784 0.96226 0.07692 0.0
N47 N 0.8936 0.04147 0.09396 0.0
C48 C 0.80063 0.68044 0.1583 0.0
C49 C 0.66666 0.82738 0.17766 0.0
C50 C 0.70634 0.75655 0.20266 0.0
C51 C 0.77418 0.68241 0.19245 0.0
C52 C 0.69494 0.82247 0.14365 0.0
N53 N 0.75914 0.74777 0.13407 0.0
H54 H 0.85855 0.62735 0.1518 0.0
H55 H 0.66816 0.88173 0.1255 0.0
H56 H 0.9651 0.83703 0.13951 0.0
H57 H 0.80588 0.97149 0.05547 0.0
O58 O 0.92948 0.66381 0.09428 0.0
O59 O 0.87031 0.72848 0.04456 0.0
O60 O 0.69174 0.82865 0.06742 0.0
C61 C 0.93429 0.66795 0.06117 0.0
H62 H 0.64613 0.45102 0.02926 0.0
H63 H 0.98119 0.03877 0.141 0.0
H64 H 0.61552 0.88742 0.18434 0.0
H65 H 0.81061 0.62903 0.21091 0.0
Co66 Co 0.71992 0.83515 0.46628 0.0
C67 C 0.9365 0.7908 0.45552 0.0
C68 C 0.87541 0.69507 0.49649 0.0
C69 C 0.9808 0.69242 0.49869 0.0
N70 N 0.847 0.75742 0.46941 0.0
N71 N 0.01919 0.75457 0.47323 0.0
H72 H 0.94153 0.85295 0.43627 0.0
H73 H 0.82406 0.66469 0.51601 0.0
C74 C 0.64202 0.61611 0.48229 0.0
O75 O 0.70903 0.57346 0.46317 0.0
N76 N 0.59411 0.91274 0.46363 0.0
C77 C 0.56727 0.98352 0.4388 0.0
C78 C 0.46188 0.99216 0.43814 0.0
C79 C 0.50522 0.88229 0.47836 0.0
N80 N 0.42301 0.92702 0.46277 0.0
C81 C 0.76305 0.86585 0.39563 0.0
C82 C 0.61762 0.73402 0.37122 0.0
C83 C 0.68048 0.79027 0.348 0.0
C84 C 0.75366 0.85675 0.36078 0.0
C85 C 0.62905 0.74612 0.40625 0.0
N86 N 0.70324 0.80952 0.41818 0.0
H87 H 0.81737 0.92108 0.40417 0.0
H88 H 0.57611 0.70665 0.42338 0.0
H89 H 0.6193 0.01836 0.42023 0.0
H90 H 0.49935 0.82041 0.4977 0.0
O91 O 0.80109 0.95942 0.46212 0.0
O92 O 0.75132 0.88124 0.5106 0.0
O93 O 0.63789 0.71282 0.48323 0.0
C94 C 0.80929 0.95026 0.4951 0.0
H95 H 0.02497 0.65524 0.51931 0.0
H96 H 0.41725 0.03689 0.41929 0.0
H97 H 0.55849 0.68332 0.36236 0.0
H98 H 0.80398 0.90181 0.34393 0.0
Co99 Co 0.20038 0.24816 0.965 0.0
C100 C 0.2478 0.46781 0.95655 0.0
C101 C 0.32844 0.39719 0.99928 0.0
C102 C 0.33054 0.50201 1.0017 0.0
N103 N 0.27585 0.37528 0.97092 0.0
N104 N 0.27817 0.54615 0.97498 0.0
H105 H 0.19272 0.47747 0.93606 0.0
H106 H 0.35227 0.34105 1.0191 0.0
C107 C 0.41195 0.16479 0.986 0.0
O108 O 0.46511 0.23429 0.96806 0.0
N109 N 0.12504 0.12196 0.95958 0.0
C110 C 0.06733 0.09976 0.93243 0.0
C111 C 0.06019 0.99457 0.93152 0.0
C112 C 0.14887 0.03025 0.97534 0.0
N113 N 0.11312 0.95104 0.9583 0.0
C114 C 0.20612 0.31207 0.89395 0.0
C115 C 0.34011 0.16513 0.8746 0.0
C116 C 0.30044 0.23596 0.8496 0.0
C117 C 0.23259 0.3101 0.85981 0.0
C118 C 0.3118 0.17005 0.90861 0.0
N119 N 0.2476 0.24474 0.91819 0.0
H120 H 0.14819 0.36516 0.90045 0.0
H121 H 0.33857 0.11078 0.92677 0.0
H122 H 0.04164 0.15549 0.91273 0.0
H123 H 0.20082 0.02102 0.99679 0.0
O124 O 0.07724 0.3287 0.95797 0.0
O125 O 0.13639 0.26403 1.00769 0.0
O126 O 0.31497 0.16386 0.98484 0.0
C127 C 0.07241 0.32456 0.99108 0.0
H128 H 0.36056 0.54149 1.023 0.0
H129 H 0.02555 0.95374 0.91125 0.0
H130 H 0.39125 0.1051 0.86792 0.0
H131 H 0.19617 0.36348 0.84135 0.0
C132 C 0.82024 0.1936 0.55287 0.0
C133 C 0.88497 0.19594 0.58166 0.0
H134 H 0.67544 0.14696 0.53257 0.0
C135 C 0.85004 0.15024 0.61273 0.0
H136 H 0.84501 0.22533 0.52829 0.0
C137 C 0.75313 0.10401 0.61504 0.0
C138 C 0.68815 0.10261 0.58635 0.0
H139 H 0.89725 0.15122 0.63547 0.0
H140 H 0.72798 0.07236 0.6396 0.0
C141 C 0.72323 0.14748 0.55521 0.0
C142 C 0.78362 0.28523 0.05301 0.0
C143 C 0.76782 0.34307 0.08132 0.0
H144 H 0.83894 0.14535 0.03474 0.0
C145 C 0.79779 0.30097 0.11365 0.0
H146 H 0.76392 0.31583 0.02763 0.0
C147 C 0.84213 0.20388 0.11765 0.0
C148 C 0.85737 0.14574 0.08943 0.0
H149 H 0.78605 0.34286 0.13603 0.0
H150 H 0.86159 0.17327 0.14305 0.0
C151 C 0.82778 0.18783 0.05703 0.0
C152 C 0.25378 0.88849 0.43722 0.0
C153 C 0.31876 0.88988 0.46591 0.0
H154 H 0.10967 0.84128 0.41679 0.0
C155 C 0.28368 0.84501 0.49706 0.0
H156 H 0.27893 0.92015 0.41266 0.0
C157 C 0.18667 0.79889 0.49939 0.0
C158 C 0.12194 0.79655 0.4706 0.0
H159 H 0.33147 0.84553 0.51969 0.0
H160 H 0.16191 0.76716 0.52397 0.0
C161 C 0.15688 0.84226 0.43953 0.0
C162 C 0.1646 0.78863 0.9346 0.0
C163 C 0.14935 0.84677 0.96283 0.0
H164 H 0.22068 0.64965 0.91623 0.0
C165 C 0.17892 0.80468 0.99522 0.0
H166 H 0.14516 0.81925 0.9092 0.0
C167 C 0.22308 0.70728 0.99925 0.0
C168 C 0.23889 0.64944 0.97094 0.0
H169 H 0.16775 0.84715 1.01751 0.0
H170 H 0.24277 0.67668 1.02463 0.0
C171 C 0.20893 0.69154 0.93861 0.0
C172 C 0.32242 0.13101 0.79907 0.0
C173 C 0.32145 0.22748 0.81278 0.0
H174 H 0.32671 0.04754 0.75425 0.0
C175 C 0.33286 0.31565 0.79056 0.0
H176 H 0.31307 0.06147 0.81524 0.0
C177 C 0.33999 0.3076 0.75538 0.0
C178 C 0.33514 0.21125 0.74165 0.0
H179 H 0.33385 0.39115 0.80031 0.0
H180 H 0.34443 0.37695 0.73885 0.0
C181 C 0.32918 0.12305 0.764 0.0
C182 C 0.68441 0.8615 0.2532 0.0
C183 C 0.68535 0.76503 0.23948 0.0
H184 H 0.68015 0.94497 0.29801 0.0
C185 C 0.67394 0.67686 0.2617 0.0
H186 H 0.69375 0.93104 0.23702 0.0
C187 C 0.66684 0.68491 0.29688 0.0
C188 C 0.67171 0.78125 0.31061 0.0
H189 H 0.67293 0.60136 0.25195 0.0
H190 H 0.66239 0.61556 0.31341 0.0
C191 C 0.67767 0.86946 0.28827 0.0
C192 C 0.48703 0.39297 0.52134 0.0
C193 C 0.43546 0.43861 0.54768 0.0
H194 H 0.59263 0.41243 0.48015 0.0
C195 C 0.45229 0.54272 0.5521 0.0
H196 H 0.47424 0.31331 0.51664 0.0
C197 C 0.51988 0.59953 0.53092 0.0
C198 C 0.57145 0.55389 0.50458 0.0
H199 H 0.41428 0.58007 0.57212 0.0
H200 H 0.53267 0.67919 0.53563 0.0
C201 C 0.55462 0.44978 0.50017 0.0
C202 C 0.40451 0.02718 0.03289 0.0
C203 C 0.46111 0.08106 1.00707 0.0
H204 H 0.40119 0.90375 0.0715 0.0
C205 C 0.56066 0.0497 1.00065 0.0
H206 H 0.32787 0.05066 0.03888 0.0
C207 C 0.6022 0.96533 1.01938 0.0
C208 C 0.54559 0.91145 0.0452 0.0
H209 H 0.60552 0.08876 0.98076 0.0
H210 H 0.67883 0.94185 1.01339 0.0
C211 C 0.44605 0.94282 0.05161 0.0
C212 C 0.92609 0.94878 0.54575 0.0
C213 C 0.90452 0.98361 0.51194 0.0
H214 H 0.03707 0.9355 0.58611 0.0
C215 C 0.98302 0.03147 0.49252 0.0
H216 H 0.86791 0.91006 0.56127 0.0
C217 C 0.08083 0.04371 0.50651 0.0
C218 C 0.1024 0.00889 0.54032 0.0
H219 H 0.96984 0.057 0.46615 0.0
H220 H 0.13901 0.08244 0.49099 0.0
C221 C 0.02391 0.96102 0.55974 0.0
C222 C 0.00835 0.49278 0.06164 0.0
C223 C 0.98027 0.58422 0.04338 0.0
H224 H 0.05368 0.33673 0.05937 0.0
C225 C 0.97579 0.5868 1.00768 0.0
H226 H 0.0097 0.48729 0.08917 0.0
C227 C 0.99834 0.49973 0.99061 0.0
C228 C 0.02643 0.40828 1.00887 0.0
H229 H 0.95302 0.65578 0.99288 0.0
H230 H 0.997 0.50522 0.96307 0.0
C231 C 0.03091 0.40571 0.04457 0.0
loop_
_geom_bond_atom_site_label_1
_geom_bond_atom_site_label_2
_geom_bond_distance
_geom_bond_site_symmetry_2
_ccdc_geom_bond_type
Co0 N4 2.148 . S
Co0 N10 2.128 . S
Co0 N20 2.194 . S
Co0 O25 2.351 . S
Co0 O26 2.155 . S
Co0 O27 2.096 . S
C1 N4 1.301 . S
C1 N5 1.328 1_455 S
C1 H6 0.930 . S
C2 C3 1.333 1_455 S
C2 N4 1.317 . S
C2 H7 0.930 . S
C3 C2 1.333 1_655 S
C3 N5 1.350 . S
C3 H29 0.931 . S
N4 Co0 2.148 . S
N4 C1 1.301 . S
N4 C2 1.317 . S
N5 C1 1.328 1_655 S
N5 C3 1.350 . S
H6 C1 0.930 . S
H7 C2 0.930 . S
C8 O9 1.224 . S
C8 O27 1.247 . S
O9 C8 1.224 . S
N10 Co0 2.128 . S
N10 C11 1.355 . S
N10 C13 1.311 . S
C11 N10 1.355 . S
C11 C12 1.363 . S
C11 H23 0.929 . S
C12 C11 1.363 . S
C12 N14 1.375 . S
C12 H30 0.931 . S
C13 N10 1.311 . S
C13 N14 1.347 . S
C13 H24 0.929 . S
N14 C12 1.375 . S
N14 C13 1.347 . S
C15 C18 1.365 . S
C15 N20 1.328 . S
C15 H21 0.929 . S
C16 C17 1.362 . S
C16 C19 1.378 . S
C16 H31 0.929 . S
C17 C16 1.362 . S
C17 C18 1.366 . S
C18 C15 1.365 . S
C18 C17 1.366 . S
C18 H32 0.930 . S
C19 C16 1.378 . S
C19 N20 1.315 . S
C19 H22 0.930 . S
N20 Co0 2.194 . S
N20 C15 1.328 . S
N20 C19 1.315 . S
H21 C15 0.929 . S
H22 C19 0.930 . S
H23 C11 0.929 . S
H24 C13 0.929 . S
O25 Co0 2.351 . S
O25 C28 1.244 . S
O26 Co0 2.155 . S
O26 C28 1.240 . S
O27 Co0 2.096 . S
O27 C8 1.247 . S
C28 O25 1.244 . S
C28 O26 1.240 . S
H29 C3 0.931 . S
H30 C12 0.931 . S
H31 C16 0.929 . S
H32 C18 0.930 . S
Co33 N37 2.148 . S
Co33 N43 2.128 . S
Co33 N53 2.194 . S
Co33 O58 2.351 . S
Co33 O59 2.155 . S
Co33 O60 2.096 . S
C34 N37 1.301 . S
C34 N38 1.328 . S
C34 H39 0.930 . S
C35 C36 1.333 . S
C35 N37 1.317 . S
C35 H40 0.930 . S
C36 C35 1.333 . S
C36 N38 1.350 . S
C36 H62 0.931 . S
N37 Co33 2.148 . S
N37 C34 1.301 . S
N37 C35 1.317 . S
N38 C34 1.328 . S
N38 C36 1.350 . S
H39 C34 0.930 . S
H40 C35 0.930 . S
C41 O42 1.224 . S
C41 O60 1.247 . S
O42 C41 1.224 . S
N43 Co33 2.128 . S
N43 C44 1.355 . S
N43 C46 1.311 . S
C44 N43 1.355 . S
C44 C45 1.363 1_565 S
C44 H56 0.929 . S
C45 C44 1.363 1_545 S
C45 N47 1.375 . S
C45 H63 0.931 . S
C46 N43 1.311 . S
C46 N47 1.347 1_565 S
C46 H57 0.929 . S
N47 C45 1.375 . S
N47 C46 1.347 1_545 S
C48 C51 1.365 . S
C48 N53 1.328 . S
C48 H54 0.929 . S
C49 C50 1.362 . S
C49 C52 1.378 . S
C49 H64 0.929 . S
C50 C49 1.362 . S
C50 C51 1.366 . S
C51 C48 1.365 . S
C51 C50 1.366 . S
C51 H65 0.930 . S
C52 C49 1.378 . S
C52 N53 1.315 . S
C52 H55 0.930 . S
N53 Co33 2.194 . S
N53 C48 1.328 . S
N53 C52 1.315 . S
H54 C48 0.929 . S
H55 C52 0.930 . S
H56 C44 0.929 . S
H57 C46 0.929 . S
O58 Co33 2.351 . S
O58 C61 1.244 . S
O59 Co33 2.155 . S
O59 C61 1.240 . S
O60 Co33 2.096 . S
O60 C41 1.247 . S
C61 O58 1.244 . S
C61 O59 1.240 . S
H62 C36 0.931 . S
H63 C45 0.931 . S
H64 C49 0.929 . S
H65 C51 0.930 . S
Co66 N70 2.148 . S
Co66 N76 2.128 . S
Co66 N86 2.194 . S
Co66 O91 2.351 . S
Co66 O92 2.155 . S
Co66 O93 2.096 . S
C67 N70 1.301 . S
C67 N71 1.328 1_655 S
C67 H72 0.930 . S
C68 C69 1.333 1_655 S
C68 N70 1.317 . S
C68 H73 0.930 . S
C69 C68 1.333 1_455 S
C69 N71 1.350 . S
C69 H95 0.931 . S
N70 Co66 2.148 . S
N70 C67 1.301 . S
N70 C68 1.317 . S
N71 C67 1.328 1_455 S
N71 C69 1.350 . S
H72 C67 0.930 . S
H73 C68 0.930 . S
C74 O75 1.224 . S
C74 O93 1.247 . S
O75 C74 1.224 . S
N76 Co66 2.128 . S
N76 C77 1.355 . S
N76 C79 1.311 . S
C77 N76 1.355 . S
C77 C78 1.363 . S
C77 H89 0.929 . S
C78 C77 1.363 . S
C78 N80 1.375 . S
C78 H96 0.931 . S
C79 N76 1.311 . S
C79 N80 1.347 . S
C79 H90 0.929 . S
N80 C78 1.375 . S
N80 C79 1.347 . S
C81 C84 1.365 . S
C81 N86 1.328 . S
C81 H87 0.929 . S
C82 C83 1.362 . S
C82 C85 1.378 . S
C82 H97 0.929 . S
C83 C82 1.362 . S
C83 C84 1.366 . S
C84 C81 1.365 . S
C84 C83 1.366 . S
C84 H98 0.930 . S
C85 C82 1.378 . S
C85 N86 1.315 . S
C85 H88 0.930 . S
N86 Co66 2.194 . S
N86 C81 1.328 . S
N86 C85 1.315 . S
H87 C81 0.929 . S
H88 C85 0.930 . S
H89 C77 0.929 . S
H90 C79 0.929 . S
O91 Co66 2.351 . S
O91 C94 1.244 . S
O92 Co66 2.155 . S
O92 C94 1.240 . S
O93 Co66 2.096 . S
O93 C74 1.247 . S
C94 O91 1.244 . S
C94 O92 1.240 . S
H95 C69 0.931 . S
H96 C78 0.931 . S
H97 C82 0.929 . S
H98 C84 0.930 . S
Co99 N103 2.148 . S
Co99 N109 2.128 . S
Co99 N119 2.194 . S
Co99 O124 2.351 . S
Co99 O125 2.155 . S
Co99 O126 2.096 . S
C100 N103 1.301 . S
C100 N104 1.328 . S
C100 H105 0.930 . S
C101 C102 1.333 . S
C101 N103 1.317 . S
C101 H106 0.930 . S
C102 C101 1.333 . S
C102 N104 1.350 . S
C102 H128 0.931 . S
N103 Co99 2.148 . S
N103 C100 1.301 . S
N103 C101 1.317 . S
N104 C100 1.328 . S
N104 C102 1.350 . S
H105 C100 0.930 . S
H106 C101 0.930 . S
C107 O108 1.224 . S
C107 O126 1.247 . S
O108 C107 1.224 . S
N109 Co99 2.128 . S
N109 C110 1.355 . S
N109 C112 1.311 . S
C110 N109 1.355 . S
C110 C111 1.363 1_545 S
C110 H122 0.929 . S
C111 C110 1.363 1_565 S
C111 N113 1.375 . S
C111 H129 0.931 . S
C112 N109 1.311 . S
C112 N113 1.347 1_545 S
C112 H123 0.929 . S
N113 C111 1.375 . S
N113 C112 1.347 1_565 S
C114 C117 1.365 . S
C114 N119 1.328 . S
C114 H120 0.929 . S
C115 C116 1.362 . S
C115 C118 1.378 . S
C115 H130 0.929 . S
C116 C115 1.362 . S
C116 C117 1.366 . S
C117 C114 1.365 . S
C117 C116 1.366 . S
C117 H131 0.930 . S
C118 C115 1.378 . S
C118 N119 1.315 . S
C118 H121 0.930 . S
N119 Co99 2.194 . S
N119 C114 1.328 . S
N119 C118 1.315 . S
H120 C114 0.929 . S
H121 C118 0.930 . S
H122 C110 0.929 . S
H123 C112 0.929 . S
O124 Co99 2.351 . S
O124 C127 1.244 . S
O125 Co99 2.155 . S
O125 C127 1.240 . S
O126 Co99 2.096 . S
O126 C107 1.247 . S
C127 O124 1.244 . S
C127 O125 1.240 . S
H128 C102 0.931 . S
H129 C111 0.931 . S
H130 C115 0.929 . S
H131 C117 0.930 . S
C132 C133 1.387 . S
C132 H136 0.950 . S
C132 C141 1.390 . S
C133 C132 1.387 . S
C133 C135 1.387 . S
H134 C141 0.950 . S
C135 C133 1.387 . S
C135 C137 1.390 . S
C135 H139 0.950 . S
H136 C132 0.950 . S
C137 C135 1.390 . S
C137 C138 1.387 . S
C137 H140 0.950 . S
C138 C137 1.387 . S
C138 C141 1.387 . S
H139 C135 0.950 . S
H140 C137 0.950 . S
C141 C132 1.390 . S
C141 H134 0.950 . S
C141 C138 1.387 . S
C142 C143 1.387 . S
C142 H146 0.950 . S
C142 C151 1.390 . S
C143 C142 1.387 . S
C143 C145 1.387 . S
H144 C151 0.950 . S
C145 C143 1.387 . S
C145 C147 1.390 . S
C145 H149 0.950 . S
H146 C142 0.950 . S
C147 C145 1.390 . S
C147 C148 1.387 . S
C147 H150 0.950 . S
C148 C147 1.387 . S
C148 C151 1.387 . S
H149 C145 0.950 . S
H150 C147 0.950 . S
C151 C142 1.390 . S
C151 H144 0.950 . S
C151 C148 1.387 . S
C152 C153 1.387 . S
C152 H156 0.950 . S
C152 C161 1.390 . S
C153 C152 1.387 . S
C153 C155 1.387 . S
H154 C161 0.950 . S
C155 C153 1.387 . S
C155 C157 1.390 . S
C155 H159 0.950 . S
H156 C152 0.950 . S
C157 C155 1.390 . S
C157 C158 1.387 . S
C157 H160 0.950 . S
C158 C157 1.387 . S
C158 C161 1.387 . S
H159 C155 0.950 . S
H160 C157 0.950 . S
C161 C152 1.390 . S
C161 H154 0.950 . S
C161 C158 1.387 . S
C162 C163 1.387 . S
C162 H166 0.950 . S
C162 C171 1.390 . S
C163 C162 1.387 . S
C163 C165 1.387 . S
H164 C171 0.950 . S
C165 C163 1.387 . S
C165 C167 1.390 . S
C165 H169 0.950 . S
H166 C162 0.950 . S
C167 C165 1.390 . S
C167 C168 1.387 . S
C167 H170 0.950 . S
C168 C167 1.387 . S
C168 C171 1.387 . S
H169 C165 0.950 . S
H170 C167 0.950 . S
C171 C162 1.390 . S
C171 H164 0.950 . S
C171 C168 1.387 . S
C172 C173 1.387 . S
C172 H176 0.950 . S
C172 C181 1.390 . S
C173 C172 1.387 . S
C173 C175 1.387 . S
H174 C181 0.950 . S
C175 C173 1.387 . S
C175 C177 1.390 . S
C175 H179 0.950 . S
H176 C172 0.950 . S
C177 C175 1.390 . S
C177 C178 1.387 . S
C177 H180 0.950 . S
C178 C177 1.387 . S
C178 C181 1.387 . S
H179 C175 0.950 . S
H180 C177 0.950 . S
C181 C172 1.390 . S
C181 H174 0.950 . S
C181 C178 1.387 . S
C182 C183 1.387 . S
C182 H186 0.950 . S
C182 C191 1.390 . S
C183 C182 1.387 . S
C183 C185 1.387 . S
H184 C191 0.950 . S
C185 C183 1.387 . S
C185 C187 1.390 . S
C185 H189 0.950 . S
H186 C182 0.950 . S
C187 C185 1.390 . S
C187 C188 1.387 . S
C187 H190 0.950 . S
C188 C187 1.387 . S
C188 C191 1.387 . S
H189 C185 0.950 . S
H190 C187 0.950 . S
C191 C182 1.390 . S
C191 H184 0.950 . S
C191 C188 1.387 . S
C192 C193 1.387 . S
C192 H196 0.950 . S
C192 C201 1.390 . S
C193 C192 1.387 . S
C193 C195 1.387 . S
H194 C201 0.950 . S
C195 C193 1.387 . S
C195 C197 1.390 . S
C195 H199 0.950 . S
H196 C192 0.950 . S
C197 C195 1.390 . S
C197 C198 1.387 . S
C197 H200 0.950 . S
C198 C197 1.387 . S
C198 C201 1.387 . S
H199 C195 0.950 . S
H200 C197 0.950 . S
C201 C192 1.390 . S
C201 H194 0.950 . S
C201 C198 1.387 . S
C202 C203 1.387 1_554 S
C202 H206 0.950 . S
C202 C211 1.390 1_545 S
C203 C202 1.387 1_556 S
C203 C205 1.387 . S
H204 C211 0.950 . S
C205 C203 1.387 . S
C205 C207 1.390 1_545 S
C205 H209 0.950 . S
H206 C202 0.950 . S
C207 C205 1.390 1_565 S
C207 C208 1.387 1_556 S
C207 H210 0.950 . S
C208 C207 1.387 1_554 S
C208 C211 1.387 . S
H209 C205 0.950 . S
H210 C207 0.950 . S
C211 C202 1.390 1_565 S
C211 H204 0.950 . S
C211 C208 1.387 . S
C212 C213 1.387 . S
C212 H216 0.950 . S
C212 C221 1.390 1_655 S
C213 C212 1.387 . S
C213 C215 1.387 1_565 S
H214 C221 0.950 . S
C215 C213 1.387 1_545 S
C215 C217 1.390 1_655 S
C215 H219 0.950 . S
H216 C212 0.950 . S
C217 C215 1.390 1_455 S
C217 C218 1.387 . S
C217 H220 0.950 . S
C218 C217 1.387 . S
C218 C221 1.387 1_545 S
H219 C215 0.950 . S
H220 C217 0.950 . S
C221 C212 1.390 1_455 S
C221 H214 0.950 . S
C221 C218 1.387 1_565 S
C222 C223 1.387 1_455 S
C222 H226 0.950 . S
C222 C231 1.390 . S
C223 C222 1.387 1_655 S
C223 C225 1.387 1_554 S
H224 C231 0.950 . S
C225 C223 1.387 1_556 S
C225 C227 1.390 . S
C225 H229 0.950 . S
H226 C222 0.950 . S
C227 C225 1.390 . S
C227 C228 1.387 1_655 S
C227 H230 0.950 . S
C228 C227 1.387 1_455 S
C228 C231 1.387 1_556 S
H229 C225 0.950 . S
H230 C227 0.950 . S
C231 C222 1.390 . S
C231 H224 0.950 . S
C231 C228 1.387 1_554 S
C133 N5 1.376 . S
C138 N14 1.375 . S
C143 N38 1.377 . S
C148 N47 1.375 . S
C153 N80 1.375 . S
C158 N71 1.376 . S
C163 N113 1.375 . S
C168 N104 1.377 . S
C173 C116 1.480 . S
C178 C17 1.481 . S
C183 C50 1.480 . S
C188 C83 1.481 . S
C193 C8 1.569 . S
C198 C74 1.569 . S
C203 C107 1.560 . S
C208 C41 1.560 . S
C213 C94 1.511 . S
C218 C28 1.511 . S
C223 C61 1.519 . S
C228 C127 1.519 . S
