# Generated by pormake.
# Topology pcu, (6)-cn, num edge types: 1
# Building blocks:
#     Node 0, Type 0, BuildingBlock: KUMBUR_clean_sbu_1, # of connection points: 6
#     Edge 1, Type (0, 0), BuildingBlock: CIFDUS_clean_linker_0, # of connection points: 2
#     Edge 2, Type (0, 0), BuildingBlock: CIFDUS_clean_linker_0, # of connection points: 2
#     Edge 3, Type (0, 0), BuildingBlock: CIFDUS_clean_linker_0, # of connection points: 2
# Relax obj value: 0.000
# Max RMSD: 0.000
# Mean RMSD: 0.000
data_MOF--net-pcu--node1-KUMBUR_clean_sbu_1--edge1-CIFDUS_clean_linker_0
_symmetry_space_group_name_H-M    P1
_symmetry_Int_Tables_number       1
_symmetry_cell_setting            triclinic
loop_
_symmetry_equiv_pos_as_xyz
'x, y, z'
_cell_length_a     12.779257
_cell_length_b     22.730496
_cell_length_c     12.901032
_cell_angle_alpha  112.78451
_cell_angle_beta   89.989673
_cell_angle_gamma 115.0891
loop_
_atom_site_label
_atom_site_type_symbol
_atom_site_fract_x
_atom_site_fract_y
_atom_site_fract_z
_atom_type_partial_charge
Tb0 Tb 0.98085 0.90804 0.9135 0.0
C1 C 0.33978 0.23124 0.23639 0.0
N2 N 0.23054 0.19179 0.25017 0.0
C3 C 0.30375 0.23697 0.4507 0.0
C4 C 0.43625 0.27448 0.32949 0.0
C5 C 0.211 0.19444 0.35552 0.0
C6 C 0.41696 0.27705 0.43765 0.0
C7 C 0.4682 0.26399 0.1086 0.0
C8 C 0.35552 0.22552 0.12713 0.0
C9 C 0.56466 0.3074 0.20112 0.0
C10 C 0.54875 0.3126 0.31126 0.0
Tb11 Tb 0.08645 0.12326 0.08904 0.0
N12 N 0.26072 0.1808 0.03881 0.0
C13 C 0.48049 0.25775 0.99767 0.0
C14 C 0.27143 0.17813 0.93193 0.0
C15 C 0.38135 0.21539 0.90935 0.0
H16 H 0.1234 0.16488 0.36668 0.0
H17 H 0.38919 0.21214 0.82398 0.0
H18 H 0.94339 0.86644 0.63588 0.0
H19 H 0.67871 0.81923 0.17905 0.0
H20 H 0.19604 0.14949 0.86395 0.0
H21 H 0.56549 0.28648 0.9798 0.0
H22 H 0.87173 0.88175 0.13874 0.0
H23 H 0.2878 0.2389 0.53409 0.0
H24 H 0.65195 0.33708 0.18835 0.0
H25 H 0.62412 0.34595 0.38162 0.0
H26 H 0.77874 0.79248 0.46871 0.0
H27 H 0.48875 0.30963 0.51141 0.0
H28 H 0.50217 0.74501 0.02351 0.0
N29 N 0.83651 0.83956 0.75257 0.0
C30 C 0.72733 0.80014 0.76652 0.0
C31 C 0.76295 0.79441 0.55213 0.0
C32 C 0.63072 0.75694 0.67357 0.0
C33 C 0.85584 0.8369 0.64718 0.0
C34 C 0.6498 0.75436 0.56536 0.0
N35 N 0.80674 0.85054 0.96401 0.0
C36 C 0.79623 0.8532 0.0709 0.0
C37 C 0.59919 0.76746 0.89455 0.0
C38 C 0.7118 0.80588 0.87583 0.0
C39 C 0.5871 0.7737 0.00551 0.0
C40 C 0.68639 0.81599 0.09366 0.0
H41 H 0.57789 0.72182 0.4917 0.0
H42 H 0.44281 0.68557 0.62173 0.0
H43 H 0.41534 0.69446 0.81508 0.0
O44 O 1.02537 0.84202 0.96506 0.0
O45 O 0.849 0.94566 0.90727 0.0
O46 O 0.90943 0.04358 0.08039 0.0
O47 O 1.01425 0.82892 0.78823 0.0
O48 O 0.05151 0.95975 0.09909 0.0
O49 O 1.00664 0.0548 0.17762 0.0
O50 O 0.04187 0.18917 0.03724 0.0
O51 O 0.21838 0.08568 0.09518 0.0
O52 O 0.15791 0.98768 0.92213 0.0
O53 O 0.05291 0.20238 0.21412 0.0
O54 O 1.01594 0.07158 0.90342 0.0
O55 O 0.06068 0.97646 0.82487 0.0
C56 C 0.8305 0.99581 0.98646 0.0
C57 C 0.06873 0.74851 0.82828 0.0
C58 C 0.08705 0.65416 0.86259 0.0
C59 C 0.13754 0.63924 0.76465 0.0
C60 C 0.1184 0.73196 0.73049 0.0
C61 C 0.15295 0.67788 0.69936 0.0
C62 C 0.05355 0.7096 0.89437 0.0
C63 C 0.03944 1.00915 0.18759 0.0
C64 C 0.03549 0.80725 0.86149 0.0
C65 C 0.51828 0.71888 0.69198 0.0
C66 C 0.50258 0.7241 0.80217 0.0
C67 C 0.23687 0.03552 0.01601 0.0
C68 C 0.99832 0.28267 0.17383 0.0
C69 C 0.97997 0.37696 0.13939 0.0
C70 C 0.92936 0.39186 0.23724 0.0
C71 C 0.94851 0.29918 0.27153 0.0
C72 C 1.01354 0.32155 0.10771 0.0
C73 C 0.91389 0.35322 0.30255 0.0
C74 C 1.02799 0.02216 0.81492 0.0
C75 C 1.03166 0.22397 0.14076 0.0
H76 H 0.16679 0.59827 0.7392 0.0
H77 H 0.13198 0.76148 0.67876 0.0
H78 H 0.19241 0.66607 0.62454 0.0
H79 H 1.0139 0.72166 0.9691 0.0
H80 H 0.90007 0.43281 0.26261 0.0
H81 H 0.93489 0.26966 0.32327 0.0
H82 H 0.05328 0.30951 0.03304 0.0
H83 H 0.87432 0.36501 0.3773 0.0
H84 H 0.94165 0.05939 0.3675 0.0
H85 H 0.15843 0.95239 0.25904 0.0
H86 H 0.17295 0.94603 0.44281 0.0
H87 H 0.12577 0.97191 0.635 0.0
H88 H 0.90907 0.07896 0.74349 0.0
H89 H 0.89453 0.08531 0.55971 0.0
C90 C 0.99298 0.03528 0.38449 0.0
C91 C 0.0496 1.00691 0.30009 0.0
C92 C 1.0011 0.03187 0.49035 0.0
C93 C 0.11398 0.97465 0.32263 0.0
C94 C 0.12251 0.97107 0.42773 0.0
C95 C 0.07446 0.99603 0.61802 0.0
C96 C 1.01787 0.02442 0.70243 0.0
C97 C 0.06636 0.99945 0.51217 0.0
C98 C 0.95351 0.05669 0.6799 0.0
C99 C 0.94497 0.06026 0.5748 0.0
H100 H 0.31256 0.94689 0.8643 0.0
H101 H 0.42475 0.12818 0.1955 0.0
H102 H 0.61792 0.13267 0.21436 0.0
H103 H 0.75487 0.08449 0.13814 0.0
H104 H 0.64268 0.90322 0.80692 0.0
H105 H 0.44953 0.89875 0.78805 0.0
C106 C 0.37918 0.98753 0.94062 0.0
C107 C 0.35416 0.03777 0.0276 0.0
C108 C 0.49004 0.98935 0.95162 0.0
C109 C 0.44164 0.08955 0.12624 0.0
C110 C 0.55225 0.09193 0.1375 0.0
C111 C 0.68825 0.04385 0.06182 0.0
C112 C 0.71326 0.99361 0.97484 0.0
C113 C 0.5774 0.04205 0.05081 0.0
C114 C 0.6258 0.94185 0.87619 0.0
C115 C 0.51519 0.93948 0.86492 0.0
H116 H 1.01312 0.51003 0.78339 0.0
H117 H 0.12445 0.70368 0.09648 0.0
H118 H 0.10155 0.63529 0.2089 0.0
H119 H 0.05396 0.52109 0.21857 0.0
H120 H 0.94268 0.32744 0.9055 0.0
H121 H 0.96559 0.39583 0.79306 0.0
C122 C 0.03343 0.53751 0.87625 0.0
C123 C 0.07056 0.61209 0.93115 0.0
C124 C 1.02129 0.49797 0.94049 0.0
C125 C 0.09426 0.64632 0.05169 0.0
C126 C 0.08205 0.6073 0.11615 0.0
C127 C 0.03367 0.49361 0.12571 0.0
C128 C 0.99653 0.41903 0.07081 0.0
C129 C 0.04584 0.53315 0.06147 0.0
C130 C 0.97286 0.38481 0.95028 0.0
C131 C 0.98508 0.42382 0.88582 0.0
loop_
_geom_bond_atom_site_label_1
_geom_bond_atom_site_label_2
_geom_bond_distance
_geom_bond_site_symmetry_2
_ccdc_geom_bond_type
Tb0 N29 2.617 . S
Tb0 N35 2.572 . S
Tb0 O44 2.465 . S
Tb0 O45 2.387 . S
Tb0 O47 2.428 . S
Tb0 O48 2.308 1_556 S
Tb0 O52 2.349 1_655 S
Tb0 O55 2.393 . S
Tb0 C64 2.802 . S
C1 N2 1.379 . S
C1 C4 1.416 . S
C1 C8 1.424 . S
N2 C1 1.379 . S
N2 C5 1.334 . S
N2 Tb11 2.617 . S
C3 C5 1.390 . S
C3 C6 1.339 . S
C3 H23 0.930 . S
C4 C1 1.416 . S
C4 C6 1.416 . S
C4 C10 1.448 . S
C5 N2 1.334 . S
C5 C3 1.390 . S
C5 H16 0.930 . S
C6 C3 1.339 . S
C6 C4 1.416 . S
C6 H27 0.930 . S
C7 C8 1.413 . S
C7 C9 1.427 . S
C7 C13 1.416 . S
C8 C1 1.424 . S
C8 C7 1.413 . S
C8 N12 1.361 . S
C9 C7 1.427 . S
C9 C10 1.328 . S
C9 H24 0.929 . S
C10 C4 1.448 . S
C10 C9 1.328 . S
C10 H25 0.930 . S
Tb11 N2 2.617 . S
Tb11 N12 2.572 . S
Tb11 O46 2.349 1_455 S
Tb11 O49 2.393 . S
Tb11 O50 2.465 . S
Tb11 O51 2.387 . S
Tb11 O53 2.428 . S
Tb11 O54 2.308 1_554 S
Tb11 C75 2.802 . S
N12 C8 1.361 . S
N12 Tb11 2.572 . S
N12 C14 1.340 1_554 S
C13 C7 1.416 . S
C13 C15 1.332 1_554 S
C13 H21 0.931 1_554 S
C14 N12 1.340 1_556 S
C14 C15 1.407 . S
C14 H20 0.930 . S
C15 C13 1.332 1_556 S
C15 C14 1.407 . S
C15 H17 0.929 . S
H16 C5 0.930 . S
H17 C15 0.929 . S
H18 C33 0.930 . S
H19 C40 0.929 . S
H20 C14 0.930 . S
H21 C13 0.931 1_556 S
H22 C36 0.930 . S
H23 C3 0.930 . S
H24 C9 0.929 . S
H25 C10 0.930 . S
H26 C31 0.930 . S
H27 C6 0.930 . S
H28 C39 0.931 1_554 S
N29 Tb0 2.617 . S
N29 C30 1.379 . S
N29 C33 1.334 . S
C30 N29 1.379 . S
C30 C32 1.416 . S
C30 C38 1.424 . S
C31 H26 0.930 . S
C31 C33 1.390 . S
C31 C34 1.339 . S
C32 C30 1.416 . S
C32 C34 1.416 . S
C32 C65 1.448 . S
C33 H18 0.930 . S
C33 N29 1.334 . S
C33 C31 1.390 . S
C34 C31 1.339 . S
C34 C32 1.416 . S
C34 H41 0.930 . S
N35 Tb0 2.572 . S
N35 C36 1.340 1_556 S
N35 C38 1.361 . S
C36 H22 0.930 . S
C36 N35 1.340 1_554 S
C36 C40 1.407 . S
C37 C38 1.413 . S
C37 C39 1.416 . S
C37 C66 1.427 . S
C38 C30 1.424 . S
C38 N35 1.361 . S
C38 C37 1.413 . S
C39 H28 0.931 1_556 S
C39 C37 1.416 . S
C39 C40 1.332 1_556 S
C40 H19 0.929 . S
C40 C36 1.407 . S
C40 C39 1.332 1_554 S
H41 C34 0.930 . S
H42 C65 0.930 . S
H43 C66 0.929 . S
O44 Tb0 2.465 . S
O44 C64 1.264 . S
O45 Tb0 2.387 . S
O45 C56 1.257 1_565 S
O46 Tb11 2.349 1_655 S
O46 C56 1.247 1_554 S
O47 Tb0 2.428 . S
O47 C64 1.256 . S
O48 Tb0 2.308 1_554 S
O48 C63 1.266 1_565 S
O49 Tb11 2.393 . S
O49 C63 1.248 1_455 S
O50 Tb11 2.465 . S
O50 C75 1.264 . S
O51 Tb11 2.387 . S
O51 C67 1.261 1_545 S
O52 Tb0 2.349 1_455 S
O52 C67 1.245 1_556 S
O53 Tb11 2.428 . S
O53 C75 1.256 . S
O54 Tb11 2.308 1_556 S
O54 C74 1.266 1_545 S
O55 Tb0 2.393 . S
O55 C74 1.248 1_655 S
C56 O45 1.257 1_545 S
C56 O46 1.247 1_556 S
C57 C60 1.399 . S
C57 C62 1.383 . S
C57 C64 1.496 . S
C58 C59 1.399 . S
C58 C62 1.389 . S
C59 C58 1.399 . S
C59 C61 1.380 . S
C59 H76 0.929 . S
C60 C57 1.399 . S
C60 C61 1.392 . S
C60 H77 0.929 . S
C61 C59 1.380 . S
C61 C60 1.392 . S
C61 H78 0.929 . S
C62 C57 1.383 . S
C62 C58 1.389 . S
C62 H79 0.931 1_556 S
C63 O48 1.266 1_545 S
C63 O49 1.248 1_655 S
C64 Tb0 2.802 . S
C64 O44 1.264 . S
C64 O47 1.256 . S
C64 C57 1.496 . S
C65 C32 1.448 . S
C65 H42 0.930 . S
C65 C66 1.328 . S
C66 C37 1.427 . S
C66 H43 0.929 . S
C66 C65 1.328 . S
C67 O51 1.261 1_565 S
C67 O52 1.245 1_554 S
C68 C71 1.399 . S
C68 C72 1.383 . S
C68 C75 1.496 . S
C69 C70 1.399 . S
C69 C72 1.389 . S
C70 C69 1.399 . S
C70 C73 1.380 . S
C70 H80 0.929 . S
C71 C68 1.399 . S
C71 C73 1.392 . S
C71 H81 0.929 . S
C72 C68 1.383 . S
C72 C69 1.389 . S
C72 H82 0.931 1_554 S
C73 C70 1.380 . S
C73 C71 1.392 . S
C73 H83 0.929 . S
C74 O54 1.266 1_565 S
C74 O55 1.248 1_455 S
C75 Tb11 2.802 . S
C75 O50 1.264 . S
C75 O53 1.256 . S
C75 C68 1.496 . S
H76 C59 0.929 . S
H77 C60 0.929 . S
H78 C61 0.929 . S
H79 C62 0.931 1_554 S
H80 C70 0.929 . S
H81 C71 0.929 . S
H82 C72 0.931 1_556 S
H83 C73 0.929 . S
H84 C90 0.930 . S
H85 C93 0.930 . S
H86 C94 0.930 . S
H87 C95 0.930 . S
H88 C98 0.930 . S
H89 C99 0.930 . S
C90 H84 0.930 . S
C90 C91 1.355 1_665 S
C90 C92 1.415 . S
C91 C90 1.355 1_445 S
C91 C93 1.419 . S
C92 C90 1.415 . S
C92 C97 1.425 1_665 S
C92 C99 1.409 . S
C93 H85 0.930 . S
C93 C91 1.419 . S
C93 C94 1.362 . S
C94 H86 0.930 . S
C94 C93 1.362 . S
C94 C97 1.409 . S
C95 H87 0.930 . S
C95 C96 1.355 1_445 S
C95 C97 1.415 . S
C96 C95 1.355 1_665 S
C96 C98 1.419 . S
C97 C92 1.425 1_445 S
C97 C94 1.409 . S
C97 C95 1.415 . S
C98 H88 0.930 . S
C98 C96 1.419 . S
C98 C99 1.362 . S
C99 H89 0.930 . S
C99 C92 1.409 . S
C99 C98 1.362 . S
H100 C106 0.930 . S
H101 C109 0.930 . S
H102 C110 0.930 . S
H103 C111 0.930 . S
H104 C114 0.930 . S
H105 C115 0.930 . S
C106 H100 0.930 . S
C106 C107 1.355 1_564 S
C106 C108 1.415 . S
C107 C106 1.355 1_546 S
C107 C109 1.419 . S
C108 C106 1.415 . S
C108 C113 1.425 1_564 S
C108 C115 1.409 . S
C109 H101 0.930 . S
C109 C107 1.419 . S
C109 C110 1.362 . S
C110 H102 0.930 . S
C110 C109 1.362 . S
C110 C113 1.409 . S
C111 H103 0.930 . S
C111 C112 1.355 1_546 S
C111 C113 1.415 . S
C112 C111 1.355 1_564 S
C112 C114 1.419 . S
C113 C108 1.425 1_546 S
C113 C110 1.409 . S
C113 C111 1.415 . S
C114 H104 0.930 . S
C114 C112 1.419 . S
C114 C115 1.362 . S
C115 H105 0.930 . S
C115 C108 1.409 . S
C115 C114 1.362 . S
H116 C122 0.930 . S
H117 C125 0.930 . S
H118 C126 0.930 . S
H119 C127 0.930 . S
H120 C130 0.930 . S
H121 C131 0.930 . S
C122 H116 0.930 . S
C122 C123 1.355 1_656 S
C122 C124 1.415 . S
C123 C122 1.355 1_454 S
C123 C125 1.419 . S
C124 C122 1.415 . S
C124 C129 1.425 1_656 S
C124 C131 1.409 . S
C125 H117 0.930 . S
C125 C123 1.419 . S
C125 C126 1.362 . S
C126 H118 0.930 . S
C126 C125 1.362 . S
C126 C129 1.409 . S
C127 H119 0.930 . S
C127 C128 1.355 1_454 S
C127 C129 1.415 . S
C128 C127 1.355 1_656 S
C128 C130 1.419 . S
C129 C124 1.425 1_454 S
C129 C126 1.409 . S
C129 C127 1.415 . S
C130 H120 0.930 . S
C130 C128 1.419 . S
C130 C131 1.362 . S
C131 H121 0.930 . S
C131 C124 1.409 . S
C131 C130 1.362 . S
C91 C63 1.462 1_455 S
C96 C74 1.462 1_655 S
C107 C67 1.499 1_546 S
C112 C56 1.501 1_564 S
C123 C58 1.399 1_454 S
C128 C69 1.399 1_656 S
