# Generated by pormake.
# Topology unc, (4)-cn, num edge types: 1
# Building blocks:
#     Node 0, Type 0, BuildingBlock: CEKHIL_clean_sbu_0, # of connection points: 4
#     Node 1, Type 0, BuildingBlock: CEKHIL_clean_sbu_0, # of connection points: 4
#     Node 2, Type 0, BuildingBlock: CEKHIL_clean_sbu_0, # of connection points: 4
#     Node 3, Type 0, BuildingBlock: CEKHIL_clean_sbu_0, # of connection points: 4
#     Edge 4, Type (0, 0), BuildingBlock: XIVTED_clean_linker_0, # of connection points: 2
#     Edge 5, Type (0, 0), BuildingBlock: XIVTED_clean_linker_0, # of connection points: 2
#     Edge 6, Type (0, 0), BuildingBlock: XIVTED_clean_linker_0, # of connection points: 2
#     Edge 7, Type (0, 0), BuildingBlock: XIVTED_clean_linker_0, # of connection points: 2
#     Edge 8, Type (0, 0), BuildingBlock: XIVTED_clean_linker_0, # of connection points: 2
#     Edge 9, Type (0, 0), BuildingBlock: XIVTED_clean_linker_0, # of connection points: 2
#     Edge 10, Type (0, 0), BuildingBlock: XIVTED_clean_linker_0, # of connection points: 2
#     Edge 11, Type (0, 0), BuildingBlock: XIVTED_clean_linker_0, # of connection points: 2
# Relax obj value: 0.004
# Max RMSD: 0.040
# Mean RMSD: 0.040
data_MOF--net-unc--node1-CEKHIL_clean_sbu_0--edge1-XIVTED_clean_linker_0
_symmetry_space_group_name_H-M    P1
_symmetry_Int_Tables_number       1
_symmetry_cell_setting            triclinic
loop_
_symmetry_equiv_pos_as_xyz
'x, y, z'
_cell_length_a     29.87059
_cell_length_b     29.782797
_cell_length_c     22.101359
_cell_angle_alpha  90.081567
_cell_angle_beta   90.058731
_cell_angle_gamma 93.219617
loop_
_atom_site_label
_atom_site_type_symbol
_atom_site_fract_x
_atom_site_fract_y
_atom_site_fract_z
_atom_type_partial_charge
Co0 Co 0.01549 0.68833 0.95241 0.0
O1 O 0.99903 0.7344 0.89716 0.0
O2 O 0.96777 0.72231 0.98669 0.0
C3 C 0.01526 0.63253 0.88259 0.0
O4 O 0.02296 0.64236 0.01986 0.0
Co5 Co 0.10652 0.64587 0.93405 0.0
O6 O 0.08476 0.60503 0.99984 0.0
C7 C 0.10519 0.73491 0.99054 0.0
C8 C 0.96921 0.74506 0.93635 0.0
C9 C 0.05021 0.61147 0.03189 0.0
O10 O 0.06211 0.73074 0.99174 0.0
O11 O 0.12942 0.70672 0.9641 0.0
O12 O 0.9784 0.64377 0.90809 0.0
O13 O 0.05037 0.65828 0.89532 0.0
Co14 Co 0.3451 0.01687 0.30658 0.0
O15 O 0.29826 0.03164 0.36177 0.0
O16 O 0.31268 0.06666 0.27524 0.0
C17 C 0.39851 0.01269 0.37869 0.0
O18 O 0.39161 0.01227 0.23947 0.0
Co19 Co 0.38994 0.92628 0.31604 0.0
O20 O 0.43579 0.95585 0.26185 0.0
C21 C 0.30081 0.92905 0.25892 0.0
C22 C 0.28893 0.0634 0.32458 0.0
C23 C 0.4266 0.98986 0.23022 0.0
O24 O 0.30328 0.97226 0.2625 0.0
O25 O 0.33001 0.90427 0.28213 0.0
O26 O 0.38933 0.05117 0.35564 0.0
O27 O 0.37317 0.97854 0.36106 0.0
Co28 Co 0.0154 0.34211 0.45147 0.0
O29 O 0.0312 0.29537 0.39659 0.0
O30 O 0.06033 0.30571 0.48783 0.0
C31 C 0.02059 0.39784 0.38152 0.0
O32 O 0.0088 0.38835 0.51927 0.0
Co33 Co 0.9289 0.39238 0.42874 0.0
O34 O 0.95182 0.43155 0.49558 0.0
C35 C 0.92198 0.30212 0.48458 0.0
C36 C 0.05965 0.28351 0.437 0.0
C37 C 0.98421 0.42174 0.52983 0.0
O38 O 0.96509 0.30181 0.48716 0.0
O39 O 0.90154 0.33347 0.45854 0.0
O40 O 0.05599 0.38496 0.40917 0.0
O41 O 0.98396 0.37425 0.393 0.0
Co42 Co 0.68945 0.01654 0.80659 0.0
O43 O 0.73808 0.0043 0.8605 0.0
O44 O 0.72432 0.96922 0.77367 0.0
C45 C 0.63721 0.01668 0.88078 0.0
O46 O 0.64165 0.01788 0.74028 0.0
Co47 Co 0.63561 0.10143 0.81743 0.0
O48 O 0.59076 0.06695 0.76687 0.0
C49 C 0.72361 0.10669 0.75421 0.0
C50 C 0.74832 0.97312 0.82277 0.0
C51 C 0.60348 0.03532 0.73338 0.0
O52 O 0.72788 0.0643 0.76253 0.0
O53 O 0.69058 0.12758 0.77513 0.0
O54 O 0.64822 0.97921 0.85639 0.0
O55 O 0.65946 0.05251 0.86234 0.0
H56 H 0.97234 0.59359 0.09745 0.0
H57 H 0.09544 0.44531 0.34217 0.0
H58 H 0.1123 0.56473 0.09144 0.0
H59 H 0.95205 0.43293 0.31645 0.0
H60 H 0.10105 0.50042 0.26075 0.0
H61 H 0.9632 0.54479 0.18708 0.0
C62 C 0.00109 0.5772 0.11498 0.0
C63 C 0.04306 0.58302 0.08652 0.0
C64 C 0.06828 0.48583 0.27297 0.0
C65 C 0.03298 0.52796 0.18904 0.0
C66 C 0.06503 0.45444 0.31968 0.0
C67 C 0.02326 0.43416 0.33578 0.0
C68 C 0.02947 0.49739 0.24208 0.0
C69 C 0.98497 0.44756 0.30513 0.0
C70 C 0.99582 0.54934 0.16594 0.0
C71 C 0.07917 0.56096 0.11126 0.0
N72 N 0.98897 0.47829 0.25951 0.0
N73 N 0.07331 0.53465 0.16097 0.0
H74 H 0.47738 0.06265 0.3914 0.0
H75 H 0.51327 0.01572 0.73164 0.0
H76 H 0.39662 0.95547 0.47505 0.0
H77 H 0.62932 0.02714 0.61577 0.0
H78 H 0.46549 0.00308 0.6418 0.0
H79 H 0.53054 0.06061 0.47634 0.0
C80 C 0.47109 0.0385 0.42744 0.0
C81 C 0.43273 0.00914 0.42641 0.0
C82 C 0.50148 0.00773 0.6363 0.0
C83 C 0.49235 0.00755 0.5238 0.0
C84 C 0.52864 0.01496 0.68729 0.0
C85 C 0.57518 0.0221 0.68085 0.0
C86 C 0.52092 0.0094 0.57852 0.0
C87 C 0.59357 0.02123 0.62248 0.0
C88 C 0.50141 0.03725 0.47556 0.0
C89 C 0.426 0.97846 0.47413 0.0
N90 N 0.56628 0.01593 0.5733 0.0
N91 N 0.45508 0.97904 0.52163 0.0
H92 H 0.08574 0.60308 0.81487 0.0
H93 H 0.92146 0.46529 0.59158 0.0
H94 H 0.94376 0.57922 0.84557 0.0
H95 H 0.06233 0.44023 0.59539 0.0
H96 H 0.93145 0.5121 0.68105 0.0
H97 H 0.0808 0.54741 0.73206 0.0
C98 C 0.05372 0.58588 0.80465 0.0
C99 C 0.015 0.59616 0.83676 0.0
C100 C 0.96029 0.49629 0.66273 0.0
C101 C 0.00912 0.53318 0.74228 0.0
C102 C 0.95466 0.4697 0.61125 0.0
C103 C 0.99118 0.44896 0.58565 0.0
C104 C 0.00295 0.50309 0.68885 0.0
C105 C 0.03329 0.45558 0.61377 0.0
C106 C 0.05096 0.55415 0.75755 0.0
C107 C 0.97442 0.57278 0.82181 0.0
N108 N 0.0382 0.48258 0.66365 0.0
N109 N 0.9725 0.54288 0.77542 0.0
H110 H 0.40129 0.99715 0.11245 0.0
H111 H 0.63728 0.07395 0.97695 0.0
H112 H 0.51727 0.00627 0.2289 0.0
H113 H 0.5613 0.96211 0.89575 0.0
H114 H 0.58433 0.0719 0.06226 0.0
H115 H 0.4511 0.00684 0.02393 0.0
C116 C 0.43715 0.00212 0.11929 0.0
C117 C 0.45543 1.0011 0.1777 0.0
C118 C 0.57918 0.0482 0.02533 0.0
C119 C 0.51188 0.01286 0.07768 0.0
C120 C 0.60909 0.04943 0.97671 0.0
C121 C 0.60361 0.01798 0.92959 0.0
C122 C 0.54282 0.01633 0.02563 0.0
C123 C 0.56674 0.98669 0.93153 0.0
C124 C 0.46537 0.00728 0.06902 0.0
C125 C 0.50208 0.00695 0.18443 0.0
N126 N 0.53742 0.98684 0.97865 0.0
N127 N 0.5288 0.01298 0.13494 0.0
H128 H 0.27307 0.9544 0.14733 0.0
H129 H 0.08045 0.76488 0.1013 0.0
H130 H 0.24918 0.8526 0.28383 0.0
H131 H 0.18253 0.78519 0.96464 0.0
H132 H 0.12395 0.81684 0.16838 0.0
H133 H 0.22117 0.91155 0.07919 0.0
C134 C 0.2561 0.92358 0.16336 0.0
C135 C 0.26521 0.9069 0.22118 0.0
C136 C 0.13628 0.81034 0.1233 0.0
C137 C 0.20573 0.85867 0.14435 0.0
C138 C 0.11148 0.78107 0.08493 0.0
C139 C 0.12802 0.77081 0.0274 0.0
C140 C 0.17709 0.83048 0.10322 0.0
C141 C 0.16874 0.79219 0.00872 0.0
C142 C 0.22691 0.89916 0.12444 0.0
C143 C 0.24297 0.86648 0.23955 0.0
N144 N 0.19187 0.82129 0.04647 0.0
N145 N 0.21395 0.84379 0.20134 0.0
H146 H 0.24894 0.12315 0.24986 0.0
H147 H 0.11592 0.24102 0.51448 0.0
H148 H 0.25008 0.07623 0.43443 0.0
H149 H 0.07742 0.24786 0.32663 0.0
H150 H 0.1714 0.18656 0.48708 0.0
H151 H 0.19206 0.17583 0.27792 0.0
C152 C 0.23723 0.12392 0.29618 0.0
C153 C 0.25413 0.09515 0.33976 0.0
C154 C 0.15058 0.1999 0.45201 0.0
C155 C 0.18963 0.15559 0.37236 0.0
C156 C 0.11898 0.23095 0.46764 0.0
C157 C 0.09187 0.24887 0.42287 0.0
C158 C 0.15563 0.1874 0.39109 0.0
C159 C 0.09739 0.23474 0.36275 0.0
C160 C 0.20473 0.15386 0.31217 0.0
C161 C 0.23778 0.0976 0.39924 0.0
N162 N 0.1288 0.20517 0.34858 0.0
N163 N 0.2067 0.12745 0.41388 0.0
H164 H 0.80834 0.08484 0.71658 0.0
H165 H 0.83056 0.29235 0.48865 0.0
H166 H 0.71259 0.18759 0.70069 0.0
H167 H 0.94894 0.23223 0.55651 0.0
H168 H 0.78453 0.24217 0.55235 0.0
H169 H 0.85858 0.12845 0.64703 0.0
C170 C 0.79791 0.11647 0.69878 0.0
C171 C 0.75616 0.13259 0.71488 0.0
C172 C 0.82058 0.23975 0.55321 0.0
C173 C 0.81282 0.18177 0.63469 0.0
C174 C 0.84705 0.26834 0.5165 0.0
C175 C 0.89399 0.26713 0.51751 0.0
C176 C 0.84079 0.20918 0.59135 0.0
C177 C 0.91295 0.23466 0.55445 0.0
C178 C 0.82657 0.14125 0.6592 0.0
C179 C 0.74444 0.17378 0.69024 0.0
N180 N 0.88628 0.20705 0.59021 0.0
N181 N 0.77236 0.1966 0.65128 0.0
H182 H 0.78802 0.91345 0.7478 0.0
H183 H 0.9129 0.78826 0.01316 0.0
H184 H 0.78722 0.96 0.93274 0.0
H185 H 0.95297 0.78116 0.82602 0.0
H186 H 0.86014 0.84538 0.98549 0.0
H187 H 0.84258 0.8586 0.7762 0.0
C188 C 0.79947 0.91229 0.79424 0.0
C189 C 0.78321 0.94147 0.83786 0.0
C190 C 0.88067 0.83133 0.95064 0.0
C191 C 0.84492 0.87835 0.87091 0.0
C192 C 0.91063 0.7987 0.9664 0.0
C193 C 0.93747 0.78004 0.92192 0.0
C194 C 0.877 0.84468 0.88988 0.0
C195 C 0.93314 0.79479 0.86192 0.0
C196 C 0.8306 0.88102 0.81045 0.0
C197 C 0.7991 0.93835 0.89752 0.0
N198 N 0.90334 0.82594 0.84762 0.0
N199 N 0.82878 0.90714 0.91241 0.0
loop_
_geom_bond_atom_site_label_1
_geom_bond_atom_site_label_2
_geom_bond_distance
_geom_bond_site_symmetry_2
_ccdc_geom_bond_type
Co0 O1 2.216 1_554 S
Co0 O2 2.091 . S
Co0 O4 2.004 . S
Co0 O10 2.021 1_655 S
Co0 O12 2.137 1_554 S
Co0 O13 2.244 1_654 S
O1 Co0 2.216 1_556 S
O1 C8 1.247 . S
O2 Co0 2.091 . S
O2 C8 1.261 1_554 S
C3 O12 1.247 1_455 S
C3 O13 1.272 . S
O4 Co0 2.004 . S
O4 C9 1.259 1_655 S
Co5 O6 2.061 . S
Co5 O11 2.052 . S
Co5 O13 2.135 1_554 S
O6 Co5 2.061 . S
O6 C9 1.235 . S
C7 O10 1.238 . S
C7 O11 1.241 . S
C8 O1 1.247 . S
C8 O2 1.261 1_556 S
C9 O4 1.259 1_455 S
C9 O6 1.235 . S
O10 Co0 2.021 1_455 S
O10 C7 1.238 . S
O11 Co5 2.052 . S
O11 C7 1.241 . S
O12 Co0 2.137 1_556 S
O12 C3 1.247 1_655 S
O13 Co0 2.244 1_456 S
O13 C3 1.272 . S
O13 Co5 2.135 1_556 S
Co14 O15 2.216 . S
Co14 O16 2.091 . S
Co14 O18 2.004 . S
Co14 O24 2.021 1_545 S
Co14 O26 2.137 . S
Co14 O27 2.244 1_545 S
O15 Co14 2.216 . S
O15 C22 1.247 . S
O16 Co14 2.091 . S
O16 C22 1.261 . S
C17 O26 1.247 . S
C17 O27 1.272 1_545 S
O18 Co14 2.004 . S
O18 C23 1.259 . S
Co19 O20 2.061 . S
Co19 O25 2.052 . S
Co19 O27 2.135 . S
O20 Co19 2.061 . S
O20 C23 1.235 1_565 S
C21 O24 1.238 . S
C21 O25 1.241 . S
C22 O15 1.247 . S
C22 O16 1.261 . S
C23 O18 1.259 . S
C23 O20 1.235 1_545 S
O24 Co14 2.021 1_565 S
O24 C21 1.238 . S
O25 Co19 2.052 . S
O25 C21 1.241 . S
O26 Co14 2.137 . S
O26 C17 1.247 . S
O27 Co14 2.244 1_565 S
O27 C17 1.272 1_565 S
O27 Co19 2.135 . S
Co28 O29 2.216 . S
Co28 O30 2.091 . S
Co28 O32 2.004 . S
Co28 O38 2.021 1_455 S
Co28 O40 2.137 . S
Co28 O41 2.244 1_455 S
O29 Co28 2.216 . S
O29 C36 1.247 . S
O30 Co28 2.091 . S
O30 C36 1.261 . S
C31 O40 1.247 . S
C31 O41 1.272 1_455 S
O32 Co28 2.004 . S
O32 C37 1.259 . S
Co33 O34 2.061 . S
Co33 O39 2.052 . S
Co33 O41 2.135 . S
O34 Co33 2.061 . S
O34 C37 1.235 1_655 S
C35 O38 1.238 . S
C35 O39 1.241 . S
C36 O29 1.247 . S
C36 O30 1.261 . S
C37 O32 1.259 . S
C37 O34 1.235 1_455 S
O38 Co28 2.021 1_655 S
O38 C35 1.238 . S
O39 Co33 2.052 . S
O39 C35 1.241 . S
O40 Co28 2.137 . S
O40 C31 1.247 . S
O41 Co28 2.244 1_655 S
O41 C31 1.272 1_655 S
O41 Co33 2.135 . S
Co42 O43 2.216 . S
Co42 O44 2.091 . S
Co42 O46 2.004 . S
Co42 O52 2.021 1_565 S
Co42 O54 2.137 . S
Co42 O55 2.244 1_565 S
O43 Co42 2.216 . S
O43 C50 1.247 . S
O44 Co42 2.091 . S
O44 C50 1.261 . S
C45 O54 1.247 1_545 S
C45 O55 1.272 . S
O46 Co42 2.004 . S
O46 C51 1.259 1_565 S
Co47 O48 2.061 . S
Co47 O53 2.052 . S
Co47 O55 2.135 . S
O48 Co47 2.061 . S
O48 C51 1.235 . S
C49 O52 1.238 . S
C49 O53 1.241 . S
C50 O43 1.247 . S
C50 O44 1.261 . S
C51 O46 1.259 1_545 S
C51 O48 1.235 . S
O52 Co42 2.021 1_545 S
O52 C49 1.238 . S
O53 Co47 2.052 . S
O53 C49 1.241 . S
O54 Co42 2.137 . S
O54 C45 1.247 1_565 S
O55 Co42 2.244 1_545 S
O55 C45 1.272 . S
O55 Co47 2.135 . S
H56 C62 0.930 . S
H57 C66 0.930 . S
H58 C71 0.929 . S
H59 C69 0.929 . S
H60 C64 0.929 . S
H61 C70 0.929 . S
C62 H56 0.930 . S
C62 C63 1.367 1_655 S
C62 C70 1.378 . S
C63 C62 1.367 1_455 S
C63 C71 1.433 . S
C64 H60 0.929 . S
C64 C66 1.378 . S
C64 C68 1.350 . S
C65 C68 1.463 . S
C65 C70 1.350 1_455 S
C65 N73 1.427 . S
C66 H57 0.930 . S
C66 C64 1.378 . S
C66 C67 1.367 . S
C67 C66 1.367 . S
C67 C69 1.433 1_455 S
C68 C64 1.350 . S
C68 C65 1.463 . S
C68 N72 1.427 1_455 S
C69 H59 0.929 . S
C69 C67 1.433 1_655 S
C69 N72 1.384 . S
C70 H61 0.929 . S
C70 C62 1.378 . S
C70 C65 1.350 1_655 S
C71 H58 0.929 . S
C71 C63 1.433 . S
C71 N73 1.384 . S
N72 C68 1.427 1_655 S
N72 C69 1.384 . S
N73 C65 1.427 . S
N73 C71 1.384 . S
H74 C80 0.930 . S
H75 C84 0.930 . S
H76 C89 0.929 . S
H77 C87 0.930 . S
H78 C82 0.929 . S
H79 C88 0.929 . S
C80 H74 0.930 . S
C80 C81 1.367 . S
C80 C88 1.378 . S
C81 C80 1.367 . S
C81 C89 1.433 . S
C82 H78 0.929 . S
C82 C84 1.378 . S
C82 C86 1.350 . S
C83 C86 1.463 . S
C83 C88 1.350 . S
C83 N91 1.427 . S
C84 H75 0.930 . S
C84 C82 1.378 . S
C84 C85 1.367 . S
C85 C84 1.367 . S
C85 C87 1.433 . S
C86 C82 1.350 . S
C86 C83 1.463 . S
C86 N90 1.427 . S
C87 H77 0.930 . S
C87 C85 1.433 . S
C87 N90 1.384 . S
C88 H79 0.929 . S
C88 C80 1.378 . S
C88 C83 1.350 . S
C89 H76 0.929 . S
C89 C81 1.433 . S
C89 N91 1.384 . S
N90 C86 1.427 . S
N90 C87 1.384 . S
N91 C83 1.427 . S
N91 C89 1.384 . S
H92 C98 0.930 . S
H93 C102 0.930 . S
H94 C107 0.929 . S
H95 C105 0.929 . S
H96 C100 0.929 . S
H97 C106 0.929 . S
C98 H92 0.930 . S
C98 C99 1.367 . S
C98 C106 1.378 . S
C99 C98 1.367 . S
C99 C107 1.433 1_455 S
C100 H96 0.929 . S
C100 C102 1.378 . S
C100 C104 1.350 1_655 S
C101 C104 1.463 . S
C101 C106 1.350 . S
C101 N109 1.427 1_455 S
C102 H93 0.930 . S
C102 C100 1.378 . S
C102 C103 1.367 1_655 S
C103 C102 1.367 1_455 S
C103 C105 1.433 . S
C104 C100 1.350 1_455 S
C104 C101 1.463 . S
C104 N108 1.427 . S
C105 H95 0.929 . S
C105 C103 1.433 . S
C105 N108 1.384 . S
C106 H97 0.929 . S
C106 C98 1.378 . S
C106 C101 1.350 . S
C107 H94 0.929 . S
C107 C99 1.433 1_655 S
C107 N109 1.384 . S
N108 C104 1.427 . S
N108 C105 1.384 . S
N109 C101 1.427 1_655 S
N109 C107 1.384 . S
H110 C116 0.930 . S
H111 C120 0.930 . S
H112 C125 0.929 . S
H113 C123 0.929 . S
H114 C118 0.929 1_554 S
H115 C124 0.921 1_556 S
C116 H110 0.930 . S
C116 C117 1.367 . S
C116 C124 1.383 . S
C117 C116 1.367 . S
C117 C125 1.433 . S
C118 H114 0.929 1_556 S
C118 C120 1.378 . S
C118 C122 1.350 . S
C119 C122 1.463 1_554 S
C119 C124 1.352 . S
C119 N127 1.427 . S
C120 H111 0.930 . S
C120 C118 1.378 . S
C120 C121 1.367 . S
C121 C120 1.367 . S
C121 C123 1.433 . S
C122 C118 1.350 . S
C122 C119 1.463 1_556 S
C122 N126 1.427 . S
C123 H113 0.929 . S
C123 C121 1.433 . S
C123 N126 1.384 . S
C124 H115 0.921 1_554 S
C124 C116 1.383 . S
C124 C119 1.352 . S
C125 H112 0.929 . S
C125 C117 1.433 . S
C125 N127 1.384 . S
N126 C122 1.427 . S
N126 C123 1.384 . S
N127 C119 1.427 . S
N127 C125 1.384 . S
H128 C134 0.930 . S
H129 C138 0.930 . S
H130 C143 0.929 . S
H131 C141 0.929 1_556 S
H132 C136 0.929 . S
H133 C142 0.929 . S
C134 H128 0.930 . S
C134 C135 1.367 . S
C134 C142 1.378 . S
C135 C134 1.367 . S
C135 C143 1.433 . S
C136 H132 0.929 . S
C136 C138 1.378 . S
C136 C140 1.350 . S
C137 C140 1.463 . S
C137 C142 1.350 . S
C137 N145 1.427 . S
C138 H129 0.930 . S
C138 C136 1.378 . S
C138 C139 1.367 . S
C139 C138 1.367 . S
C139 C141 1.433 . S
C140 C136 1.350 . S
C140 C137 1.463 . S
C140 N144 1.427 . S
C141 H131 0.929 1_554 S
C141 C139 1.433 . S
C141 N144 1.384 . S
C142 H133 0.929 . S
C142 C134 1.378 . S
C142 C137 1.350 . S
C143 H130 0.929 . S
C143 C135 1.433 . S
C143 N145 1.384 . S
N144 C140 1.427 . S
N144 C141 1.384 . S
N145 C137 1.427 . S
N145 C143 1.384 . S
H146 C152 0.930 . S
H147 C156 0.930 . S
H148 C161 0.929 . S
H149 C159 0.929 . S
H150 C154 0.929 . S
H151 C160 0.929 . S
C152 H146 0.930 . S
C152 C153 1.367 . S
C152 C160 1.378 . S
C153 C152 1.367 . S
C153 C161 1.433 . S
C154 H150 0.929 . S
C154 C156 1.378 . S
C154 C158 1.350 . S
C155 C158 1.463 . S
C155 C160 1.350 . S
C155 N163 1.427 . S
C156 H147 0.930 . S
C156 C154 1.378 . S
C156 C157 1.367 . S
C157 C156 1.367 . S
C157 C159 1.433 . S
C158 C154 1.350 . S
C158 C155 1.463 . S
C158 N162 1.427 . S
C159 H149 0.929 . S
C159 C157 1.433 . S
C159 N162 1.384 . S
C160 H151 0.929 . S
C160 C152 1.378 . S
C160 C155 1.350 . S
C161 H148 0.929 . S
C161 C153 1.433 . S
C161 N163 1.384 . S
N162 C158 1.427 . S
N162 C159 1.384 . S
N163 C155 1.427 . S
N163 C161 1.384 . S
H164 C170 0.930 . S
H165 C174 0.930 . S
H166 C179 0.929 . S
H167 C177 0.929 . S
H168 C172 0.929 . S
H169 C178 0.929 . S
C170 H164 0.930 . S
C170 C171 1.367 . S
C170 C178 1.378 . S
C171 C170 1.367 . S
C171 C179 1.433 . S
C172 H168 0.929 . S
C172 C174 1.378 . S
C172 C176 1.350 . S
C173 C176 1.463 . S
C173 C178 1.350 . S
C173 N181 1.427 . S
C174 H165 0.930 . S
C174 C172 1.378 . S
C174 C175 1.367 . S
C175 C174 1.367 . S
C175 C177 1.433 . S
C176 C172 1.350 . S
C176 C173 1.463 . S
C176 N180 1.427 . S
C177 H167 0.929 . S
C177 C175 1.433 . S
C177 N180 1.384 . S
C178 H169 0.929 . S
C178 C170 1.378 . S
C178 C173 1.350 . S
C179 H166 0.929 . S
C179 C171 1.433 . S
C179 N181 1.384 . S
N180 C176 1.427 . S
N180 C177 1.384 . S
N181 C173 1.427 . S
N181 C179 1.384 . S
H182 C188 0.930 . S
H183 C192 0.930 . S
H184 C197 0.929 . S
H185 C195 0.929 . S
H186 C190 0.929 . S
H187 C196 0.929 . S
C188 H182 0.930 . S
C188 C189 1.367 . S
C188 C196 1.378 . S
C189 C188 1.367 . S
C189 C197 1.433 . S
C190 H186 0.929 . S
C190 C192 1.378 . S
C190 C194 1.350 . S
C191 C194 1.463 . S
C191 C196 1.350 . S
C191 N199 1.427 . S
C192 H183 0.930 . S
C192 C190 1.378 . S
C192 C193 1.367 . S
C193 C192 1.367 . S
C193 C195 1.433 . S
C194 C190 1.350 . S
C194 C191 1.463 . S
C194 N198 1.427 . S
C195 H185 0.929 . S
C195 C193 1.433 . S
C195 N198 1.384 . S
C196 H187 0.929 . S
C196 C188 1.378 . S
C196 C191 1.350 . S
C197 H184 0.929 . S
C197 C189 1.433 . S
C197 N199 1.384 . S
N198 C194 1.427 . S
N198 C195 1.384 . S
N199 C191 1.427 . S
N199 C197 1.384 . S
C63 C9 1.407 . S
C67 C31 1.416 . S
C81 C17 1.418 . S
C85 C51 1.399 . S
C99 C3 1.420 . S
C103 C37 1.397 . S
C117 C23 1.405 . S
C121 C45 1.418 . S
C135 C21 1.465 . S
C139 C7 1.464 . S
C153 C22 1.490 . S
C157 C36 1.489 . S
C171 C49 1.469 . S
C175 C35 1.463 . S
C189 C50 1.489 . S
C193 C8 1.490 . S
