# Generated by pormake.
# Topology lon, (4)-cn, num edge types: 1
# Building blocks:
#     Node 0, Type 0, BuildingBlock: CEKHIL_clean_sbu_0, # of connection points: 4
#     Node 1, Type 0, BuildingBlock: CEKHIL_clean_sbu_0, # of connection points: 4
#     Node 2, Type 0, BuildingBlock: CEKHIL_clean_sbu_0, # of connection points: 4
#     Node 3, Type 0, BuildingBlock: CEKHIL_clean_sbu_0, # of connection points: 4
#     Edge 4, Type (0, 0), BuildingBlock: EYOCIG_clean_linker_4, # of connection points: 2
#     Edge 5, Type (0, 0), BuildingBlock: EYOCIG_clean_linker_4, # of connection points: 2
#     Edge 6, Type (0, 0), BuildingBlock: EYOCIG_clean_linker_4, # of connection points: 2
#     Edge 7, Type (0, 0), BuildingBlock: EYOCIG_clean_linker_4, # of connection points: 2
#     Edge 8, Type (0, 0), BuildingBlock: EYOCIG_clean_linker_4, # of connection points: 2
#     Edge 9, Type (0, 0), BuildingBlock: EYOCIG_clean_linker_4, # of connection points: 2
#     Edge 10, Type (0, 0), BuildingBlock: EYOCIG_clean_linker_4, # of connection points: 2
#     Edge 11, Type (0, 0), BuildingBlock: EYOCIG_clean_linker_4, # of connection points: 2
# Relax obj value: 0.141
# Max RMSD: 0.174
# Mean RMSD: 0.173
data_MOF--net-lon--node1-CEKHIL_clean_sbu_0--edge1-EYOCIG_clean_linker_4
_symmetry_space_group_name_H-M    P1
_symmetry_Int_Tables_number       1
_symmetry_cell_setting            triclinic
loop_
_symmetry_equiv_pos_as_xyz
'x, y, z'
_cell_length_a     17.726353
_cell_length_b     19.300007
_cell_length_c     31.722055
_cell_angle_alpha  91.273997
_cell_angle_beta   90.004124
_cell_angle_gamma 117.33588
loop_
_atom_site_label
_atom_site_type_symbol
_atom_site_fract_x
_atom_site_fract_y
_atom_site_fract_z
_atom_type_partial_charge
Co0 Co 0.38123 0.71947 0.09506 0.0
O1 O 0.34041 0.76243 0.1401 0.0
O2 O 0.38692 0.67454 0.14792 0.0
C3 C 0.46419 0.83587 0.06571 0.0
O4 O 0.43192 0.66279 0.05893 0.0
Co5 Co 0.35181 0.73218 1.00042 0.0
O6 O 0.42921 0.68554 0.99 0.0
C7 C 0.21192 0.61879 0.05141 0.0
C8 C 0.35801 0.71915 0.16497 0.0
C9 C 0.44992 0.65572 1.02037 0.0
O10 O 0.26205 0.63335 0.08344 0.0
O11 O 0.23391 0.65543 1.01688 0.0
O12 O 0.49156 0.81287 0.09778 0.0
O13 O 0.38721 0.79064 0.05349 0.0
Co14 Co 0.66864 0.34315 0.59818 0.0
O15 O 0.58497 0.30186 0.64221 0.0
O16 O 0.72246 0.3379 0.65 0.0
C17 C 0.62188 0.42658 0.57537 0.0
O18 O 0.77631 0.3914 0.56311 0.0
Co19 Co 0.62688 0.33652 0.50291 0.0
O20 O 0.74983 0.40323 0.49512 0.0
C21 C 0.61254 0.19579 0.54517 0.0
C22 C 0.64809 0.31254 0.66682 0.0
C23 C 0.80088 0.41373 0.52551 0.0
O24 O 0.64641 0.23451 0.57955 0.0
O25 O 0.59414 0.22445 0.5132 0.0
O26 O 0.67358 0.4457 0.60747 0.0
O27 O 0.59805 0.35809 0.55886 0.0
Co28 Co 0.33548 0.67757 0.44362 0.0
O29 O 0.29312 0.71938 0.39984 0.0
O30 O 0.39468 0.68354 0.39177 0.0
C31 C 0.20526 0.59377 0.46618 0.0
O32 O 0.39492 0.62893 0.47839 0.0
Co33 Co 0.30008 0.6829 0.53892 0.0
O34 O 0.35639 0.61616 0.54636 0.0
C35 C 0.42655 0.82426 0.49718 0.0
C36 C 0.34563 0.70904 0.37512 0.0
C37 C 0.39707 0.60611 0.51589 0.0
O38 O 0.42176 0.78601 0.46262 0.0
O39 O 0.37943 0.79514 0.52908 0.0
O40 O 0.23798 0.5751 0.43397 0.0
O41 O 0.24982 0.66206 0.48295 0.0
Co42 Co 0.67287 0.3021 0.94701 0.0
O43 O 0.58943 0.25941 0.90181 0.0
O44 O 0.72387 0.34738 0.89427 0.0
C45 C 0.63923 0.18549 0.97618 0.0
O46 O 0.77997 0.35857 0.98333 0.0
Co47 Co 0.63015 0.28874 0.0416 0.0
O48 O 0.75413 0.33538 0.0522 0.0
C49 C 0.60395 0.4025 0.99075 0.0
C50 C 0.65048 0.30284 0.87707 0.0
C51 C 0.80482 0.36541 0.02193 0.0
O52 O 0.63969 0.38814 0.95872 0.0
O53 O 0.58913 0.36563 0.02521 0.0
O54 O 0.68983 0.2087 0.9442 0.0
O55 O 0.60741 0.23066 0.98841 0.0
C56 C 0.34656 0.72462 0.24792 0.0
C57 C 0.35092 0.72368 0.20997 0.0
C58 C 0.34496 0.72344 0.29247 0.0
C59 C 0.34363 0.7175 0.33029 0.0
C60 C 0.63366 0.29877 0.74952 0.0
C61 C 0.63806 0.30445 0.71169 0.0
C62 C 0.63408 0.29767 0.79408 0.0
C63 C 0.63922 0.29852 0.83205 0.0
C64 C 0.52222 0.56562 1.00215 0.0
C65 C 0.48924 0.60668 1.01064 0.0
C66 C 0.55532 0.51274 0.99325 0.0
C67 C 0.57969 0.46398 0.98897 0.0
C68 C 0.04846 0.51202 0.49269 0.0
C69 C 0.11949 0.54661 0.47925 0.0
C70 C 0.96372 0.47705 0.50679 0.0
C71 C 0.88999 0.44799 0.51661 0.0
C72 C 0.58662 0.04748 1.01113 0.0
C73 C 0.61229 0.10989 0.99434 0.0
C74 C 0.54967 0.97375 0.03063 0.0
C75 C 0.51283 0.91139 0.04746 0.0
C76 C 0.54666 0.50801 0.54854 0.0
C77 C 0.58317 0.47357 0.5621 0.0
C78 C 0.4968 0.54287 0.53438 0.0
C79 C 0.45208 0.57192 0.52461 0.0
C80 C 0.05308 0.50854 0.0491 0.0
C81 C 0.1262 0.55733 0.05328 0.0
C82 C 0.96711 0.45558 0.04027 0.0
C83 C 0.89309 0.41447 0.03178 0.0
C84 C 0.56884 0.04845 0.52969 0.0
C85 C 0.59233 0.11514 0.54115 0.0
C86 C 0.53025 0.97147 0.51304 0.0
C87 C 0.48695 0.90488 0.50146 0.0
loop_
_geom_bond_atom_site_label_1
_geom_bond_atom_site_label_2
_geom_bond_distance
_geom_bond_site_symmetry_2
_ccdc_geom_bond_type
Co0 O1 2.216 . S
Co0 O2 2.091 . S
Co0 O4 2.004 . S
Co0 O10 2.021 . S
Co0 O12 2.137 . S
Co0 O13 2.244 . S
O1 Co0 2.216 . S
O1 C8 1.247 . S
O2 Co0 2.091 . S
O2 C8 1.261 . S
C3 O12 1.247 . S
C3 O13 1.272 . S
O4 Co0 2.004 . S
O4 C9 1.259 . S
Co5 O6 2.061 . S
Co5 O11 2.052 1_556 S
Co5 O13 2.135 1_556 S
O6 Co5 2.061 . S
O6 C9 1.235 1_556 S
C7 O10 1.238 . S
C7 O11 1.241 . S
C8 O1 1.247 . S
C8 O2 1.261 . S
C9 O4 1.259 . S
C9 O6 1.235 1_554 S
O10 Co0 2.021 . S
O10 C7 1.238 . S
O11 Co5 2.052 1_554 S
O11 C7 1.241 . S
O12 Co0 2.137 . S
O12 C3 1.247 . S
O13 Co0 2.244 . S
O13 C3 1.272 . S
O13 Co5 2.135 1_554 S
Co14 O15 2.216 . S
Co14 O16 2.091 . S
Co14 O18 2.004 . S
Co14 O24 2.021 . S
Co14 O26 2.137 . S
Co14 O27 2.244 . S
O15 Co14 2.216 . S
O15 C22 1.247 . S
O16 Co14 2.091 . S
O16 C22 1.261 . S
C17 O26 1.247 . S
C17 O27 1.272 . S
O18 Co14 2.004 . S
O18 C23 1.259 . S
Co19 O20 2.061 . S
Co19 O25 2.052 . S
Co19 O27 2.135 . S
O20 Co19 2.061 . S
O20 C23 1.235 . S
C21 O24 1.238 . S
C21 O25 1.241 . S
C22 O15 1.247 . S
C22 O16 1.261 . S
C23 O18 1.259 . S
C23 O20 1.235 . S
O24 Co14 2.021 . S
O24 C21 1.238 . S
O25 Co19 2.052 . S
O25 C21 1.241 . S
O26 Co14 2.137 . S
O26 C17 1.247 . S
O27 Co14 2.244 . S
O27 C17 1.272 . S
O27 Co19 2.135 . S
Co28 O29 2.216 . S
Co28 O30 2.091 . S
Co28 O32 2.004 . S
Co28 O38 2.021 . S
Co28 O40 2.137 . S
Co28 O41 2.244 . S
O29 Co28 2.216 . S
O29 C36 1.247 . S
O30 Co28 2.091 . S
O30 C36 1.261 . S
C31 O40 1.247 . S
C31 O41 1.272 . S
O32 Co28 2.004 . S
O32 C37 1.259 . S
Co33 O34 2.061 . S
Co33 O39 2.052 . S
Co33 O41 2.135 . S
O34 Co33 2.061 . S
O34 C37 1.235 . S
C35 O38 1.238 . S
C35 O39 1.241 . S
C36 O29 1.247 . S
C36 O30 1.261 . S
C37 O32 1.259 . S
C37 O34 1.235 . S
O38 Co28 2.021 . S
O38 C35 1.238 . S
O39 Co33 2.052 . S
O39 C35 1.241 . S
O40 Co28 2.137 . S
O40 C31 1.247 . S
O41 Co28 2.244 . S
O41 C31 1.272 . S
O41 Co33 2.135 . S
Co42 O43 2.216 . S
Co42 O44 2.091 . S
Co42 O46 2.004 . S
Co42 O52 2.021 . S
Co42 O54 2.137 . S
Co42 O55 2.244 . S
O43 Co42 2.216 . S
O43 C50 1.247 . S
O44 Co42 2.091 . S
O44 C50 1.261 . S
C45 O54 1.247 . S
C45 O55 1.272 . S
O46 Co42 2.004 . S
O46 C51 1.259 . S
Co47 O48 2.061 . S
Co47 O53 2.052 1_554 S
Co47 O55 2.135 1_554 S
O48 Co47 2.061 . S
O48 C51 1.235 1_554 S
C49 O52 1.238 . S
C49 O53 1.241 . S
C50 O43 1.247 . S
C50 O44 1.261 . S
C51 O46 1.259 . S
C51 O48 1.235 1_556 S
O52 Co42 2.021 . S
O52 C49 1.238 . S
O53 Co47 2.052 1_556 S
O53 C49 1.241 . S
O54 Co42 2.137 . S
O54 C45 1.247 . S
O55 Co42 2.244 . S
O55 C45 1.272 . S
O55 Co47 2.135 1_556 S
C56 C57 1.170 . S
C56 C58 1.380 . S
C57 C56 1.170 . S
C58 C56 1.380 . S
C58 C59 1.170 . S
C59 C58 1.170 . S
C60 C61 1.170 . S
C60 C62 1.380 . S
C61 C60 1.170 . S
C62 C60 1.380 . S
C62 C63 1.170 . S
C63 C62 1.170 . S
C64 C65 1.170 1_556 S
C64 C66 1.380 . S
C65 C64 1.170 1_554 S
C66 C64 1.380 . S
C66 C67 1.170 . S
C67 C66 1.170 . S
C68 C69 1.170 . S
C68 C70 1.380 1_455 S
C69 C68 1.170 . S
C70 C68 1.380 1_655 S
C70 C71 1.170 . S
C71 C70 1.170 . S
C72 C73 1.170 . S
C72 C74 1.380 1_546 S
C73 C72 1.170 . S
C74 C72 1.380 1_564 S
C74 C75 1.170 . S
C75 C74 1.170 . S
C76 C77 1.170 . S
C76 C78 1.380 . S
C77 C76 1.170 . S
C78 C76 1.380 . S
C78 C79 1.170 . S
C79 C78 1.170 . S
C80 C81 1.170 . S
C80 C82 1.380 1_455 S
C81 C80 1.170 . S
C82 C80 1.380 1_655 S
C82 C83 1.171 . S
C83 C82 1.171 . S
C84 C85 1.170 . S
C84 C86 1.380 1_545 S
C85 C84 1.170 . S
C86 C84 1.380 1_565 S
C86 C87 1.170 . S
C87 C86 1.170 . S
C57 C8 1.569 . S
C59 C36 1.569 . S
C61 C22 1.556 . S
C63 C50 1.558 . S
C65 C9 1.544 . S
C67 C49 1.494 . S
C69 C31 1.563 . S
C71 C23 1.556 . S
C73 C45 1.579 . S
C75 C3 1.582 . S
C77 C17 1.564 . S
C79 C37 1.556 . S
C81 C7 1.510 . S
C83 C51 1.541 1_554 S
C85 C21 1.473 . S
C87 C35 1.448 . S
