# Generated by pormake.
# Topology pcu, (6)-cn, num edge types: 1
# Building blocks:
#     Node 0, Type 0, BuildingBlock: KUMBUR_clean_sbu_0, # of connection points: 6
#     Edge 1, Type (0, 0), BuildingBlock: EYOCIG_clean_linker_4, # of connection points: 2
#     Edge 2, Type (0, 0), BuildingBlock: EYOCIG_clean_linker_4, # of connection points: 2
#     Edge 3, Type (0, 0), BuildingBlock: EYOCIG_clean_linker_4, # of connection points: 2
# Relax obj value: 0.000
# Max RMSD: 0.000
# Mean RMSD: 0.000
data_MOF--net-pcu--node1-KUMBUR_clean_sbu_0--edge1-EYOCIG_clean_linker_4
_symmetry_space_group_name_H-M    P1
_symmetry_Int_Tables_number       1
_symmetry_cell_setting            triclinic
loop_
_symmetry_equiv_pos_as_xyz
'x, y, z'
_cell_length_a     10.665339
_cell_length_b     21.149343
_cell_length_c     12.064133
_cell_angle_alpha  116.30914
_cell_angle_beta   74.952816
_cell_angle_gamma 115.92389
loop_
_atom_site_label
_atom_site_type_symbol
_atom_site_fract_x
_atom_site_fract_y
_atom_site_fract_z
_atom_type_partial_charge
Tb0 Tb 0.13548 0.11075 0.05842 0.0
C1 C 0.71261 0.79828 0.77639 0.0
C2 C 0.5013 0.79292 0.9144 0.0
C3 C 0.48529 0.71964 0.69298 0.0
C4 C 0.64857 0.82104 0.89451 0.0
C5 C 0.63196 0.74557 0.67458 0.0
C6 C 0.42004 0.74346 0.81271 0.0
C7 C 0.84652 0.74102 0.54719 0.0
N8 N 0.85425 0.82323 0.76279 0.0
C9 C 0.92179 0.79285 0.65127 0.0
C10 C 0.70103 0.71803 0.5585 0.0
Tb11 Tb 0.96801 0.90425 0.93921 0.0
N12 N 0.73068 0.86687 0.99062 0.0
C13 C 0.67085 0.88416 0.11016 0.0
C14 C 0.44015 0.81317 0.03613 0.0
C15 C 0.52546 0.85844 0.13441 0.0
H16 H 1.03425 0.81004 0.64264 0.0
H17 H 0.47935 0.87334 0.22915 0.0
H18 H 0.30682 0.72158 0.82613 0.0
H19 H 0.90058 0.71838 0.45863 0.0
H20 H 0.73338 0.91894 0.18832 0.0
H21 H 0.62459 0.14206 0.76913 0.0
H22 H 0.32751 0.79275 0.05531 0.0
H23 H 0.06853 0.20463 0.35499 0.0
H24 H 0.37051 0.09614 0.80962 0.0
H25 H 0.2018 0.29641 0.53919 0.0
H26 H 0.42141 0.67954 0.61584 0.0
H27 H 0.7761 0.22296 0.94319 0.0
H28 H 0.79635 0.29423 0.17241 0.0
H29 H 0.6428 0.67724 0.47806 0.0
H30 H 0.68134 0.3361 0.38256 0.0
N31 N 0.37288 0.14835 0.00734 0.0
C32 C 0.4329 0.13105 0.88787 0.0
C33 C 0.66344 0.20241 0.96222 0.0
C34 C 0.60208 0.22263 0.08387 0.0
C35 C 0.57832 0.15697 0.86381 0.0
C36 C 0.45479 0.19433 0.10356 0.0
H37 H 0.45964 0.338 0.52008 0.0
N38 N 0.24886 0.19182 0.23503 0.0
C39 C 0.25607 0.27391 0.45068 0.0
C40 C 0.39052 0.217 0.2216 0.0
C41 C 0.18103 0.22201 0.34649 0.0
C42 C 0.4016 0.29716 0.43955 0.0
C43 C 0.47094 0.26979 0.32353 0.0
O44 O 1.04387 0.1923 0.12524 0.0
O45 O 0.94907 0.01181 0.00208 0.0
O46 O 0.96515 0.93794 0.79286 0.0
O47 O 0.12987 0.06316 0.85432 0.0
O48 O 0.92508 0.10228 0.15142 0.0
O49 O 0.19645 0.18586 0.96706 0.0
O50 O 0.05906 0.82243 0.87204 0.0
O51 O 0.15424 1.00317 0.99526 0.0
O52 O 0.13895 0.07703 0.20453 0.0
O53 O 0.97397 0.95189 0.14329 0.0
O54 O 0.17863 0.91263 0.84664 0.0
O55 O 0.90718 0.82926 0.03076 0.0
C56 C 0.85777 0.03524 0.07657 0.0
C57 C 0.17521 0.30512 0.08936 0.0
C58 C 0.1727 0.42083 0.09546 0.0
C59 C 0.12408 0.34142 0.04887 0.0
C60 C 0.27231 0.46429 0.1831 0.0
C61 C 0.27604 0.34899 0.17646 0.0
C62 C 0.32395 0.42831 0.22333 0.0
C63 C 1.04936 1.00036 0.77193 0.0
C64 C 0.11605 0.22182 0.0433 0.0
C65 C 0.61763 0.29593 0.30533 0.0
C66 C 0.68312 0.27221 0.18568 0.0
C67 C 0.2458 0.9798 0.92123 0.0
C68 C 0.92731 0.70976 0.90834 0.0
C69 C 0.97861 0.67326 0.94825 0.0
C70 C 0.92914 0.59383 0.902 0.0
C71 C 0.82855 0.55055 0.81525 0.0
C72 C 0.82552 0.66607 0.82212 0.0
C73 C 0.77678 0.58672 0.77557 0.0
C74 C 0.05473 0.01465 0.22555 0.0
C75 C 0.98707 0.79305 0.9542 0.0
H76 H 1.04571 0.30788 0.98194 0.0
H77 H 0.31004 0.52582 0.22018 0.0
H78 H 0.31712 0.3224 0.20884 0.0
H79 H 0.40094 0.46194 0.29113 0.0
H80 H 0.05769 0.70666 0.01452 0.0
H81 H 0.79013 0.48901 0.77847 0.0
H82 H 0.78427 0.69279 0.79022 0.0
H83 H 0.69902 0.55323 0.70847 0.0
C84 C 0.05313 0.00989 0.44169 0.0
C85 C 0.05509 0.01299 0.34354 0.0
C86 C 0.05123 1.00513 0.55573 0.0
C87 C 1.04916 1.00203 0.65391 0.0
C88 C 0.48859 1.00457 0.98429 0.0
C89 C 0.37771 0.99576 0.95942 0.0
C90 C 0.61495 0.01082 0.01403 0.0
C91 C 0.72583 0.01954 0.03877 0.0
C92 C 1.02564 0.52557 0.97812 0.0
C93 C 0.98179 0.55681 0.94355 0.0
C94 C 0.07628 0.48881 0.01865 0.0
C95 C 0.12005 0.45767 0.0535 0.0
loop_
_geom_bond_atom_site_label_1
_geom_bond_atom_site_label_2
_geom_bond_distance
_geom_bond_site_symmetry_2
_ccdc_geom_bond_type
Tb0 N31 2.660 1_554 S
Tb0 N38 2.600 . S
Tb0 O44 2.546 . S
Tb0 O45 2.610 1_444 S
Tb0 O47 2.320 1_554 S
Tb0 O48 2.552 1_455 S
Tb0 O49 2.413 . S
Tb0 O51 2.362 . S
Tb0 O52 2.421 1_455 S
Tb0 C64 2.833 . S
C1 C4 1.432 . S
C1 C5 1.414 . S
C1 N8 1.359 . S
C2 C4 1.417 . S
C2 C6 1.432 . S
C2 C14 1.410 1_556 S
C3 C5 1.444 . S
C3 C6 1.317 . S
C3 H26 0.929 . S
C4 C1 1.432 . S
C4 C2 1.417 . S
C4 N12 1.360 1_556 S
C5 C1 1.414 . S
C5 C3 1.444 . S
C5 C10 1.385 . S
C6 C2 1.432 . S
C6 C3 1.317 . S
C6 H18 0.930 . S
C7 C9 1.392 . S
C7 C10 1.370 . S
C7 H19 0.931 . S
N8 C1 1.359 . S
N8 C9 1.327 . S
N8 Tb11 2.600 . S
C9 C7 1.392 . S
C9 N8 1.327 . S
C9 H16 0.930 . S
C10 C5 1.385 . S
C10 C7 1.370 . S
C10 H29 0.930 . S
Tb11 N8 2.600 . S
Tb11 N12 2.660 1_556 S
Tb11 O45 2.362 . S
Tb11 O46 2.421 1_655 S
Tb11 O50 2.546 . S
Tb11 O51 2.610 1_666 S
Tb11 O53 2.320 1_556 S
Tb11 O54 2.552 1_655 S
Tb11 O55 2.413 . S
Tb11 C75 2.833 . S
N12 C4 1.360 1_554 S
N12 Tb11 2.660 1_554 S
N12 C13 1.305 . S
C13 N12 1.305 . S
C13 C15 1.407 . S
C13 H20 0.930 . S
C14 C2 1.410 1_554 S
C14 C15 1.345 . S
C14 H22 0.930 . S
C15 C13 1.407 . S
C15 C14 1.345 . S
C15 H17 0.930 . S
H16 C9 0.930 . S
H17 C15 0.930 . S
H18 C6 0.930 . S
H19 C7 0.931 . S
H20 C13 0.930 . S
H21 C35 0.930 . S
H22 C14 0.930 . S
H23 C41 0.930 . S
H24 C32 0.930 . S
H25 C39 0.931 . S
H26 C3 0.929 . S
H27 C33 0.930 . S
H28 C66 0.930 . S
H29 C10 0.930 . S
H30 C65 0.929 . S
N31 Tb0 2.660 1_556 S
N31 C32 1.305 . S
N31 C36 1.360 1_556 S
C32 H24 0.930 . S
C32 N31 1.305 . S
C32 C35 1.407 . S
C33 H27 0.930 . S
C33 C34 1.410 1_556 S
C33 C35 1.345 . S
C34 C33 1.410 1_554 S
C34 C36 1.417 . S
C34 C66 1.432 . S
C35 H21 0.930 . S
C35 C32 1.407 . S
C35 C33 1.345 . S
C36 N31 1.360 1_554 S
C36 C34 1.417 . S
C36 C40 1.432 . S
H37 C42 0.930 . S
N38 Tb0 2.600 . S
N38 C40 1.359 . S
N38 C41 1.327 . S
C39 H25 0.931 . S
C39 C41 1.392 . S
C39 C42 1.370 . S
C40 C36 1.432 . S
C40 N38 1.359 . S
C40 C43 1.414 . S
C41 H23 0.930 . S
C41 N38 1.327 . S
C41 C39 1.392 . S
C42 H37 0.930 . S
C42 C39 1.370 . S
C42 C43 1.385 . S
C43 C40 1.414 . S
C43 C42 1.385 . S
C43 C65 1.444 . S
O44 Tb0 2.546 . S
O44 C64 1.251 . S
O45 Tb0 2.610 1_666 S
O45 Tb11 2.362 . S
O45 C56 1.283 1_566 S
O46 Tb11 2.421 1_455 S
O46 C63 1.262 . S
O47 Tb0 2.320 1_556 S
O47 C63 1.260 1_545 S
O48 Tb0 2.552 1_655 S
O48 C56 1.243 . S
O49 Tb0 2.413 . S
O49 C64 1.256 . S
O50 Tb11 2.546 . S
O50 C75 1.251 . S
O51 Tb0 2.362 . S
O51 Tb11 2.610 1_444 S
O51 C67 1.283 1_544 S
O52 Tb0 2.421 1_655 S
O52 C74 1.262 . S
O53 Tb11 2.320 1_554 S
O53 C74 1.260 1_565 S
O54 Tb11 2.552 1_455 S
O54 C67 1.243 . S
O55 Tb11 2.413 . S
O55 C75 1.256 . S
C56 O45 1.283 1_544 S
C56 O48 1.243 . S
C57 C59 1.382 . S
C57 C61 1.393 . S
C57 C64 1.500 . S
C58 C59 1.400 . S
C58 C60 1.384 . S
C59 C57 1.382 . S
C59 C58 1.400 . S
C59 H76 0.930 1_554 S
C60 C58 1.384 . S
C60 C62 1.392 . S
C60 H77 0.931 . S
C61 C57 1.393 . S
C61 C62 1.401 . S
C61 H78 0.930 . S
C62 C60 1.392 . S
C62 C61 1.401 . S
C62 H79 0.930 . S
C63 O46 1.262 . S
C63 O47 1.260 1_565 S
C64 Tb0 2.833 . S
C64 O44 1.251 . S
C64 O49 1.256 . S
C64 C57 1.500 . S
C65 H30 0.929 . S
C65 C43 1.444 . S
C65 C66 1.317 . S
C66 H28 0.930 . S
C66 C34 1.432 . S
C66 C65 1.317 . S
C67 O51 1.283 1_566 S
C67 O54 1.243 . S
C68 C69 1.382 . S
C68 C72 1.393 . S
C68 C75 1.500 . S
C69 C68 1.382 . S
C69 C70 1.400 . S
C69 H80 0.930 1_556 S
C70 C69 1.400 . S
C70 C71 1.384 . S
C71 C70 1.384 . S
C71 C73 1.392 . S
C71 H81 0.931 . S
C72 C68 1.393 . S
C72 C73 1.401 . S
C72 H82 0.930 . S
C73 C71 1.392 . S
C73 C72 1.401 . S
C73 H83 0.930 . S
C74 O52 1.262 . S
C74 O53 1.260 1_545 S
C75 Tb11 2.833 . S
C75 O50 1.251 . S
C75 O55 1.256 . S
C75 C68 1.500 . S
H76 C59 0.930 1_556 S
H77 C60 0.931 . S
H78 C61 0.930 . S
H79 C62 0.930 . S
H80 C69 0.930 1_554 S
H81 C71 0.931 . S
H82 C72 0.930 . S
H83 C73 0.930 . S
C84 C85 1.171 . S
C84 C86 1.380 . S
C85 C84 1.171 . S
C86 C84 1.380 . S
C86 C87 1.170 . S
C87 C86 1.170 . S
C88 C89 1.170 . S
C88 C90 1.380 . S
C89 C88 1.170 . S
C90 C88 1.380 . S
C90 C91 1.170 . S
C91 C90 1.170 . S
C92 C93 1.172 1_556 S
C92 C94 1.380 . S
C93 C92 1.172 1_554 S
C94 C92 1.380 . S
C94 C95 1.170 . S
C95 C94 1.170 . S
C85 C74 1.484 1_465 S
C87 C63 1.458 . S
C89 C67 1.450 1_545 S
C91 C56 1.428 1_556 S
C93 C70 1.335 1_454 S
C95 C58 1.321 1_556 S
