# Generated by pormake.
# Topology uog, (4)-cn, num edge types: 1
# Building blocks:
#     Node 0, Type 0, BuildingBlock: QUQFOY_clean_sbu_3, # of connection points: 4
#     Node 1, Type 0, BuildingBlock: QUQFOY_clean_sbu_3, # of connection points: 4
#     Node 2, Type 0, BuildingBlock: QUQFOY_clean_sbu_3, # of connection points: 4
#     Node 3, Type 0, BuildingBlock: QUQFOY_clean_sbu_3, # of connection points: 4
#     Node 4, Type 0, BuildingBlock: QUQFOY_clean_sbu_3, # of connection points: 4
#     Node 5, Type 0, BuildingBlock: QUQFOY_clean_sbu_3, # of connection points: 4
#     Edge 6, Type (0, 0), BuildingBlock: OJICUG_clean_linker_0, # of connection points: 2
#     Edge 7, Type (0, 0), BuildingBlock: OJICUG_clean_linker_0, # of connection points: 2
#     Edge 8, Type (0, 0), BuildingBlock: OJICUG_clean_linker_0, # of connection points: 2
#     Edge 9, Type (0, 0), BuildingBlock: OJICUG_clean_linker_0, # of connection points: 2
#     Edge 10, Type (0, 0), BuildingBlock: OJICUG_clean_linker_0, # of connection points: 2
#     Edge 11, Type (0, 0), BuildingBlock: OJICUG_clean_linker_0, # of connection points: 2
#     Edge 12, Type (0, 0), BuildingBlock: OJICUG_clean_linker_0, # of connection points: 2
#     Edge 13, Type (0, 0), BuildingBlock: OJICUG_clean_linker_0, # of connection points: 2
#     Edge 14, Type (0, 0), BuildingBlock: OJICUG_clean_linker_0, # of connection points: 2
#     Edge 15, Type (0, 0), BuildingBlock: OJICUG_clean_linker_0, # of connection points: 2
#     Edge 16, Type (0, 0), BuildingBlock: OJICUG_clean_linker_0, # of connection points: 2
#     Edge 17, Type (0, 0), BuildingBlock: OJICUG_clean_linker_0, # of connection points: 2
# Relax obj value: 0.081
# Max RMSD: 0.175
# Mean RMSD: 0.175
data_MOF--net-uog--node1-QUQFOY_clean_sbu_3--edge1-OJICUG_clean_linker_0
_symmetry_space_group_name_H-M    P1
_symmetry_Int_Tables_number       1
_symmetry_cell_setting            triclinic
loop_
_symmetry_equiv_pos_as_xyz
'x, y, z'
_cell_length_a     21.906772
_cell_length_b     21.890326
_cell_length_c     33.085361
_cell_angle_alpha  90.30061
_cell_angle_beta   89.585322
_cell_angle_gamma 119.834
loop_
_atom_site_label
_atom_site_type_symbol
_atom_site_fract_x
_atom_site_fract_y
_atom_site_fract_z
_atom_type_partial_charge
C0 C 0.70052 0.34402 0.2046 0.0
O1 O 0.749 0.39338 0.18417 0.0
Cd2 Cd 0.71399 0.42281 0.12115 0.0
O3 O 0.6412 0.30479 0.18856 0.0
Cd4 Cd 0.5855 0.28252 0.12305 0.0
C5 C 0.55968 0.4138 0.15118 0.0
O6 O 0.667 0.33974 0.0659 0.0
O7 O 0.55917 0.31912 0.06153 0.0
O8 O 0.59562 0.17824 0.11791 0.0
C9 C 0.61827 0.33921 0.04457 0.0
O10 O 0.62399 0.45114 0.14073 0.0
C11 C 0.5301 0.13446 0.11859 0.0
O12 O 0.52936 0.34665 0.15038 0.0
O13 O 0.48871 0.15964 0.12099 0.0
C14 C 0.34079 0.70612 0.53872 0.0
O15 O 0.34021 0.75497 0.51859 0.0
Cd16 Cd 0.27609 0.72045 0.45543 0.0
O17 O 0.32069 0.6468 0.5223 0.0
Cd18 Cd 0.28781 0.59161 0.45647 0.0
C19 C 0.13112 0.56629 0.4847 0.0
O20 O 0.31204 0.6734 0.39976 0.0
O21 O 0.22518 0.56558 0.3949 0.0
O22 O 0.40215 0.60192 0.45139 0.0
C23 C 0.26403 0.62474 0.37822 0.0
O24 O 0.15803 0.63071 0.47462 0.0
C25 C 0.3808 0.53636 0.45172 0.0
O26 O 0.16784 0.53572 0.48365 0.0
O27 O 0.31446 0.49484 0.45386 0.0
C28 C 0.62118 0.34644 0.87178 0.0
O29 O 0.57206 0.34648 0.85175 0.0
Cd30 Cd 0.54218 0.28221 0.78833 0.0
O31 O 0.65997 0.32577 0.85517 0.0
Cd32 Cd 0.68203 0.29262 0.78914 0.0
C33 C 0.55046 0.13644 0.81717 0.0
O34 O 0.6249 0.31763 0.73269 0.0
O35 O 0.64556 0.23029 0.72719 0.0
O36 O 0.78565 0.40695 0.78475 0.0
C37 C 0.62547 0.26955 0.71082 0.0
O38 O 0.5133 0.16383 0.80722 0.0
C39 C 0.82985 0.38549 0.78485 0.0
O40 O 0.61758 0.17264 0.81604 0.0
O41 O 0.80523 0.31906 0.78651 0.0
C42 C 0.26023 0.62715 0.20548 0.0
O43 O 0.21141 0.57769 0.18539 0.0
Cd44 Cd 0.24599 0.54719 0.12205 0.0
O45 O 0.31948 0.66588 0.18895 0.0
Cd46 Cd 0.37456 0.68707 0.12293 0.0
C47 C 0.40009 0.55606 0.15091 0.0
O48 O 0.29232 0.62951 0.06653 0.0
O49 O 0.39986 0.64944 0.06089 0.0
O50 O 0.36456 0.79137 0.11853 0.0
C51 C 0.34067 0.62968 0.04455 0.0
O52 O 0.33574 0.51865 0.14093 0.0
C53 C 0.4301 0.83509 0.11848 0.0
O54 O 0.43056 0.62319 0.1498 0.0
O55 O 0.47148 0.80988 0.12013 0.0
C56 C 0.61994 0.26715 0.53801 0.0
O57 O 0.62067 0.21832 0.51761 0.0
Cd58 Cd 0.6858 0.25302 0.45444 0.0
O59 O 0.64031 0.32654 0.52182 0.0
Cd60 Cd 0.67393 0.3817 0.45598 0.0
C61 C 0.83017 0.40722 0.48401 0.0
O62 O 0.65003 0.29961 0.39915 0.0
O63 O 0.73703 0.40731 0.39408 0.0
O64 O 0.55963 0.37138 0.45147 0.0
C65 C 0.69809 0.34809 0.37743 0.0
O66 O 0.80349 0.34282 0.47376 0.0
C67 C 0.58099 0.43694 0.45169 0.0
O68 O 0.79346 0.43777 0.48306 0.0
O69 O 0.64732 0.47848 0.45358 0.0
C70 C 0.33699 0.6245 0.87172 0.0
O71 O 0.38622 0.62484 0.85114 0.0
Cd72 Cd 0.41633 0.6895 0.78806 0.0
O73 O 0.29804 0.64513 0.85576 0.0
Cd74 Cd 0.27622 0.67859 0.7901 0.0
C75 C 0.40737 0.83505 0.81778 0.0
O76 O 0.33382 0.65415 0.73295 0.0
O77 O 0.31313 0.74148 0.72842 0.0
O78 O 0.17268 0.56428 0.78523 0.0
C79 C 0.33337 0.70239 0.71152 0.0
O80 O 0.44464 0.80772 0.80741 0.0
C81 C 0.12846 0.58571 0.78573 0.0
O82 O 0.34025 0.79871 0.81709 0.0
O83 O 0.15302 0.6521 0.788 0.0
C84 C 0.43184 0.0091 0.11763 0.0
C85 C 0.5042 0.05783 0.1174 0.0
H86 H 0.35181 0.90061 0.118 0.0
C87 C 0.55221 0.03273 0.11673 0.0
H88 H 0.39358 0.02672 0.11811 0.0
C89 C 0.52838 0.96045 0.11676 0.0
C90 C 0.45603 0.91172 0.11734 0.0
H91 H 0.60841 0.06895 0.11653 0.0
H92 H 0.56664 0.94282 0.11656 0.0
C93 C 0.40801 0.93682 0.11755 0.0
C94 C 0.40861 0.43822 0.45043 0.0
C95 C 0.43174 0.51059 0.45051 0.0
H96 H 0.43765 0.35831 0.4506 0.0
C97 C 0.50456 0.55877 0.45017 0.0
H98 H 0.35295 0.39983 0.45066 0.0
C99 C 0.55321 0.53508 0.45023 0.0
C100 C 0.53008 0.46271 0.45053 0.0
H101 H 0.52417 0.61499 0.45022 0.0
H102 H 0.60887 0.57347 0.4503 0.0
C103 C 0.45726 0.41453 0.45039 0.0
C104 C 0.93068 0.50932 0.78407 0.0
C105 C 0.90631 0.43643 0.78391 0.0
H106 H 0.0198 0.61368 0.78481 0.0
C107 C 0.95559 0.41325 0.78359 0.0
H108 H 0.89403 0.52898 0.78432 0.0
C109 C 0.02767 0.4619 0.78378 0.0
C110 C 0.05203 0.53479 0.78441 0.0
H111 H 0.93854 0.35754 0.78343 0.0
H112 H 0.06431 0.44225 0.78378 0.0
C113 C 0.00276 0.55798 0.78437 0.0
C114 C 0.01947 0.45184 0.49461 0.0
C115 C 0.05466 0.52565 0.49306 0.0
H116 H 0.92054 0.35636 0.49345 0.0
C117 C 0.01494 0.56014 0.49479 0.0
H118 H 0.04845 0.42367 0.49367 0.0
C119 C 0.9415 0.52159 0.49462 0.0
C120 C 0.90638 0.4478 0.49265 0.0
H121 H 0.04047 0.61708 0.4942 0.0
H122 H 0.91255 0.54977 0.49372 0.0
C123 C 0.94604 0.41329 0.49436 0.0
C124 C 0.40518 0.94741 0.82777 0.0
C125 C 0.44333 0.91157 0.82609 0.0
H126 H 0.40931 0.04694 0.82675 0.0
C127 C 0.51733 0.95073 0.82764 0.0
H128 H 0.3482 0.91888 0.82695 0.0
C129 C 0.55251 0.02424 0.82748 0.0
C130 C 0.51437 0.06004 0.82569 0.0
H131 H 0.54838 0.92469 0.82693 0.0
H132 H 0.60949 0.05274 0.82647 0.0
C133 C 0.44036 0.02092 0.82753 0.0
C134 C 0.40642 0.44622 0.16118 0.0
C135 C 0.44075 0.52025 0.1594 0.0
H136 H 0.41707 0.35422 0.16046 0.0
C137 C 0.51447 0.55866 0.16121 0.0
H138 H 0.34954 0.41499 0.1604 0.0
C139 C 0.55314 0.52369 0.16129 0.0
C140 C 0.51885 0.44964 0.15964 0.0
H141 H 0.54251 0.61568 0.16026 0.0
H142 H 0.61004 0.55492 0.16056 0.0
C143 C 0.44509 0.41125 0.16135 0.0
C144 C 0.68443 0.36207 0.93694 0.0
C145 C 0.62793 0.3602 0.91576 0.0
H146 H 0.72603 0.35724 -0.00549 0.0
C147 C 0.57352 0.36139 0.93769 0.0
H148 H 0.72762 0.36191 0.92088 0.0
C149 C 0.57263 0.35843 -0.02017 0.0
C150 C 0.62626 0.35455 0.00085 0.0
H151 H 0.52945 0.36026 0.92234 0.0
H152 H 0.52813 0.35595 -0.00417 0.0
C153 C 0.68365 0.35938 -0.02087 0.0
C154 C 0.1975 0.58009 0.2712 0.0
C155 C 0.25312 0.63423 0.24946 0.0
H156 H 0.1574 0.535 0.32919 0.0
C157 C 0.30762 0.69065 0.27083 0.0
H158 H 0.15465 0.53611 0.25571 0.0
C159 C 0.3094 0.68999 0.31302 0.0
C160 C 0.25682 0.6328 0.33454 0.0
H161 H 0.35099 0.73364 0.25492 0.0
H162 H 0.35382 0.73225 0.32856 0.0
C163 C 0.19943 0.57933 0.31334 0.0
C164 C 0.60652 0.20537 0.64546 0.0
C165 C 0.61047 0.26279 0.66709 0.0
H166 H 0.60505 0.16088 0.5875 0.0
C167 C 0.60615 0.31583 0.64596 0.0
H168 H 0.6086 0.16301 0.661 0.0
C169 C 0.60391 0.31442 0.60376 0.0
C170 C 0.60573 0.25983 0.58198 0.0
H171 H 0.60837 0.3603 0.66182 0.0
H172 H 0.60449 0.3581 0.58817 0.0
C173 C 0.604 0.20381 0.60331 0.0
C174 C 0.38449 0.6082 0.93677 0.0
C175 C 0.33032 0.61028 0.91562 0.0
H176 H 0.42989 0.61238 -0.00566 0.0
C177 C 0.27416 0.6087 0.93757 0.0
H178 H 0.42827 0.60905 0.92082 0.0
C179 C 0.2751 0.6108 -0.02021 0.0
C180 C 0.33232 0.61474 0.00076 0.0
H181 H 0.23115 0.60954 0.92213 0.0
H182 H 0.23304 0.6132 -0.00421 0.0
C183 C 0.38555 0.61056 -0.02107 0.0
C184 C 0.65262 0.28216 0.31242 0.0
C185 C 0.70508 0.33979 0.33362 0.0
H186 H 0.61078 0.23772 0.25459 0.0
C187 C 0.76202 0.39337 0.31202 0.0
H188 H 0.60854 0.23981 0.32825 0.0
C189 C 0.76361 0.3922 0.26985 0.0
C190 C 0.70809 0.33755 0.24849 0.0
H191 H 0.80394 0.43806 0.3276 0.0
H192 H 0.8061 0.43624 0.25408 0.0
C193 C 0.65406 0.28109 0.27021 0.0
C194 C 0.35398 0.65709 0.64618 0.0
C195 C 0.34881 0.70961 0.66775 0.0
H196 H 0.35683 0.61554 0.58806 0.0
C197 C 0.3524 0.76694 0.64655 0.0
H198 H 0.35208 0.61273 0.66171 0.0
C199 C 0.35541 0.76886 0.60439 0.0
C200 C 0.35455 0.71329 0.58264 0.0
H201 H 0.34966 0.80892 0.66243 0.0
H202 H 0.35404 0.81164 0.58892 0.0
C203 C 0.35673 0.65886 0.60398 0.0
loop_
_geom_bond_atom_site_label_1
_geom_bond_atom_site_label_2
_geom_bond_distance
_geom_bond_site_symmetry_2
_ccdc_geom_bond_type
C0 O1 1.306 . S
C0 O3 1.160 . S
O1 C0 1.306 . S
O1 Cd2 2.228 . S
Cd2 O1 2.228 . S
Cd2 O6 2.273 . S
Cd2 O10 2.277 . S
O3 C0 1.160 . S
O3 Cd4 2.203 . S
Cd4 O3 2.203 . S
Cd4 O6 2.411 . S
Cd4 O7 2.333 . S
Cd4 O8 2.352 . S
Cd4 O12 2.277 . S
Cd4 O13 2.356 . S
C5 O10 1.209 . S
C5 O12 1.226 . S
O6 Cd2 2.273 . S
O6 Cd4 2.411 . S
O6 C9 1.320 . S
O7 Cd4 2.333 . S
O7 C9 1.214 . S
O8 Cd4 2.352 . S
O8 C11 1.258 . S
C9 O6 1.320 . S
C9 O7 1.214 . S
O10 Cd2 2.277 . S
O10 C5 1.209 . S
C11 O8 1.258 . S
C11 O13 1.282 . S
O12 Cd4 2.277 . S
O12 C5 1.226 . S
O13 Cd4 2.356 . S
O13 C11 1.282 . S
C14 O15 1.306 . S
C14 O17 1.160 . S
O15 C14 1.306 . S
O15 Cd16 2.228 . S
Cd16 O15 2.228 . S
Cd16 O20 2.273 . S
Cd16 O24 2.277 . S
O17 C14 1.160 . S
O17 Cd18 2.203 . S
Cd18 O17 2.203 . S
Cd18 O20 2.411 . S
Cd18 O21 2.333 . S
Cd18 O22 2.352 . S
Cd18 O26 2.277 . S
Cd18 O27 2.356 . S
C19 O24 1.209 . S
C19 O26 1.226 . S
O20 Cd16 2.273 . S
O20 Cd18 2.411 . S
O20 C23 1.320 . S
O21 Cd18 2.333 . S
O21 C23 1.214 . S
O22 Cd18 2.352 . S
O22 C25 1.258 . S
C23 O20 1.320 . S
C23 O21 1.214 . S
O24 Cd16 2.277 . S
O24 C19 1.209 . S
C25 O22 1.258 . S
C25 O27 1.282 . S
O26 Cd18 2.277 . S
O26 C19 1.226 . S
O27 Cd18 2.356 . S
O27 C25 1.282 . S
C28 O29 1.306 . S
C28 O31 1.160 . S
O29 C28 1.306 . S
O29 Cd30 2.228 . S
Cd30 O29 2.228 . S
Cd30 O34 2.273 . S
Cd30 O38 2.277 . S
O31 C28 1.160 . S
O31 Cd32 2.203 . S
Cd32 O31 2.203 . S
Cd32 O34 2.411 . S
Cd32 O35 2.333 . S
Cd32 O36 2.352 . S
Cd32 O40 2.277 . S
Cd32 O41 2.356 . S
C33 O38 1.209 . S
C33 O40 1.226 . S
O34 Cd30 2.273 . S
O34 Cd32 2.411 . S
O34 C37 1.320 . S
O35 Cd32 2.333 . S
O35 C37 1.214 . S
O36 Cd32 2.352 . S
O36 C39 1.258 . S
C37 O34 1.320 . S
C37 O35 1.214 . S
O38 Cd30 2.277 . S
O38 C33 1.209 . S
C39 O36 1.258 . S
C39 O41 1.282 . S
O40 Cd32 2.277 . S
O40 C33 1.226 . S
O41 Cd32 2.356 . S
O41 C39 1.282 . S
C42 O43 1.306 . S
C42 O45 1.160 . S
O43 C42 1.306 . S
O43 Cd44 2.228 . S
Cd44 O43 2.228 . S
Cd44 O48 2.273 . S
Cd44 O52 2.277 . S
O45 C42 1.160 . S
O45 Cd46 2.203 . S
Cd46 O45 2.203 . S
Cd46 O48 2.411 . S
Cd46 O49 2.333 . S
Cd46 O50 2.352 . S
Cd46 O54 2.277 . S
Cd46 O55 2.356 . S
C47 O52 1.209 . S
C47 O54 1.226 . S
O48 Cd44 2.273 . S
O48 Cd46 2.411 . S
O48 C51 1.320 . S
O49 Cd46 2.333 . S
O49 C51 1.214 . S
O50 Cd46 2.352 . S
O50 C53 1.258 . S
C51 O48 1.320 . S
C51 O49 1.214 . S
O52 Cd44 2.277 . S
O52 C47 1.209 . S
C53 O50 1.258 . S
C53 O55 1.282 . S
O54 Cd46 2.277 . S
O54 C47 1.226 . S
O55 Cd46 2.356 . S
O55 C53 1.282 . S
C56 O57 1.306 . S
C56 O59 1.160 . S
O57 C56 1.306 . S
O57 Cd58 2.228 . S
Cd58 O57 2.228 . S
Cd58 O62 2.273 . S
Cd58 O66 2.277 . S
O59 C56 1.160 . S
O59 Cd60 2.203 . S
Cd60 O59 2.203 . S
Cd60 O62 2.411 . S
Cd60 O63 2.333 . S
Cd60 O64 2.352 . S
Cd60 O68 2.277 . S
Cd60 O69 2.356 . S
C61 O66 1.209 . S
C61 O68 1.226 . S
O62 Cd58 2.273 . S
O62 Cd60 2.411 . S
O62 C65 1.320 . S
O63 Cd60 2.333 . S
O63 C65 1.214 . S
O64 Cd60 2.352 . S
O64 C67 1.258 . S
C65 O62 1.320 . S
C65 O63 1.214 . S
O66 Cd58 2.277 . S
O66 C61 1.209 . S
C67 O64 1.258 . S
C67 O69 1.282 . S
O68 Cd60 2.277 . S
O68 C61 1.226 . S
O69 Cd60 2.356 . S
O69 C67 1.282 . S
C70 O71 1.306 . S
C70 O73 1.160 . S
O71 C70 1.306 . S
O71 Cd72 2.228 . S
Cd72 O71 2.228 . S
Cd72 O76 2.273 . S
Cd72 O80 2.277 . S
O73 C70 1.160 . S
O73 Cd74 2.203 . S
Cd74 O73 2.203 . S
Cd74 O76 2.411 . S
Cd74 O77 2.333 . S
Cd74 O78 2.352 . S
Cd74 O82 2.277 . S
Cd74 O83 2.356 . S
C75 O80 1.209 . S
C75 O82 1.226 . S
O76 Cd72 2.273 . S
O76 Cd74 2.411 . S
O76 C79 1.320 . S
O77 Cd74 2.333 . S
O77 C79 1.214 . S
O78 Cd74 2.352 . S
O78 C81 1.258 . S
C79 O76 1.320 . S
C79 O77 1.214 . S
O80 Cd72 2.277 . S
O80 C75 1.209 . S
C81 O78 1.258 . S
C81 O83 1.282 . S
O82 Cd74 2.277 . S
O82 C75 1.226 . S
O83 Cd74 2.356 . S
O83 C81 1.282 . S
C84 C85 1.387 . S
C84 H88 0.950 . S
C84 C93 1.390 1_545 S
C85 C84 1.387 . S
C85 C87 1.387 . S
H86 C93 0.950 . S
C87 C85 1.387 . S
C87 C89 1.390 1_545 S
C87 H91 0.950 . S
H88 C84 0.950 . S
C89 C87 1.390 1_565 S
C89 C90 1.387 . S
C89 H92 0.950 . S
C90 C89 1.387 . S
C90 C93 1.387 . S
H91 C87 0.950 . S
H92 C89 0.950 . S
C93 C84 1.390 1_565 S
C93 H86 0.950 . S
C93 C90 1.387 . S
C94 C95 1.387 . S
C94 H98 0.950 . S
C94 C103 1.390 . S
C95 C94 1.387 . S
C95 C97 1.387 . S
H96 C103 0.950 . S
C97 C95 1.387 . S
C97 C99 1.390 . S
C97 H101 0.950 . S
H98 C94 0.950 . S
C99 C97 1.390 . S
C99 C100 1.387 . S
C99 H102 0.950 . S
C100 C99 1.387 . S
C100 C103 1.387 . S
H101 C97 0.950 . S
H102 C99 0.950 . S
C103 C94 1.390 . S
C103 H96 0.950 . S
C103 C100 1.387 . S
C104 C105 1.387 . S
C104 H108 0.950 . S
C104 C113 1.390 1_655 S
C105 C104 1.387 . S
C105 C107 1.387 . S
H106 C113 0.950 . S
C107 C105 1.387 . S
C107 C109 1.390 1_655 S
C107 H111 0.950 . S
H108 C104 0.950 . S
C109 C107 1.390 1_455 S
C109 C110 1.387 . S
C109 H112 0.950 . S
C110 C109 1.387 . S
C110 C113 1.387 . S
H111 C107 0.950 . S
H112 C109 0.950 . S
C113 C104 1.390 1_455 S
C113 H106 0.950 . S
C113 C110 1.387 . S
C114 C115 1.387 . S
C114 H118 0.950 . S
C114 C123 1.390 1_455 S
C115 C114 1.387 . S
C115 C117 1.387 . S
H116 C123 0.950 . S
C117 C115 1.387 . S
C117 C119 1.390 1_455 S
C117 H121 0.950 . S
H118 C114 0.950 . S
C119 C117 1.390 1_655 S
C119 C120 1.387 . S
C119 H122 0.950 . S
C120 C119 1.387 . S
C120 C123 1.387 . S
H121 C117 0.950 . S
H122 C119 0.950 . S
C123 C114 1.390 1_655 S
C123 H116 0.950 . S
C123 C120 1.387 . S
C124 C125 1.387 . S
C124 H128 0.950 . S
C124 C133 1.390 1_565 S
C125 C124 1.387 . S
C125 C127 1.387 . S
H126 C133 0.950 . S
C127 C125 1.387 . S
C127 C129 1.390 1_565 S
C127 H131 0.950 . S
H128 C124 0.950 . S
C129 C127 1.390 1_545 S
C129 C130 1.387 . S
C129 H132 0.950 . S
C130 C129 1.387 . S
C130 C133 1.387 . S
H131 C127 0.950 . S
H132 C129 0.950 . S
C133 C124 1.390 1_545 S
C133 H126 0.950 . S
C133 C130 1.387 . S
C134 C135 1.387 . S
C134 H138 0.950 . S
C134 C143 1.390 . S
C135 C134 1.387 . S
C135 C137 1.387 . S
H136 C143 0.950 . S
C137 C135 1.387 . S
C137 C139 1.390 . S
C137 H141 0.950 . S
H138 C134 0.950 . S
C139 C137 1.390 . S
C139 C140 1.387 . S
C139 H142 0.950 . S
C140 C139 1.387 . S
C140 C143 1.387 . S
H141 C137 0.950 . S
H142 C139 0.950 . S
C143 C134 1.390 . S
C143 H136 0.950 . S
C143 C140 1.387 . S
C144 C145 1.387 . S
C144 H148 0.950 . S
C144 C153 1.390 1_556 S
C145 C144 1.387 . S
C145 C147 1.387 . S
H146 C153 0.950 . S
C147 C145 1.387 . S
C147 C149 1.390 1_556 S
C147 H151 0.950 . S
H148 C144 0.950 . S
C149 C147 1.390 1_554 S
C149 C150 1.387 . S
C149 H152 0.950 . S
C150 C149 1.387 . S
C150 C153 1.387 . S
H151 C147 0.950 . S
H152 C149 0.950 . S
C153 C144 1.390 1_554 S
C153 H146 0.950 . S
C153 C150 1.387 . S
C154 C155 1.387 . S
C154 H158 0.950 . S
C154 C163 1.390 . S
C155 C154 1.387 . S
C155 C157 1.387 . S
H156 C163 0.950 . S
C157 C155 1.387 . S
C157 C159 1.390 . S
C157 H161 0.950 . S
H158 C154 0.950 . S
C159 C157 1.390 . S
C159 C160 1.387 . S
C159 H162 0.950 . S
C160 C159 1.387 . S
C160 C163 1.387 . S
H161 C157 0.950 . S
H162 C159 0.950 . S
C163 C154 1.390 . S
C163 H156 0.950 . S
C163 C160 1.387 . S
C164 C165 1.387 . S
C164 H168 0.950 . S
C164 C173 1.390 . S
C165 C164 1.387 . S
C165 C167 1.387 . S
H166 C173 0.950 . S
C167 C165 1.387 . S
C167 C169 1.390 . S
C167 H171 0.950 . S
H168 C164 0.950 . S
C169 C167 1.390 . S
C169 C170 1.387 . S
C169 H172 0.950 . S
C170 C169 1.387 . S
C170 C173 1.387 . S
H171 C167 0.950 . S
H172 C169 0.950 . S
C173 C164 1.390 . S
C173 H166 0.950 . S
C173 C170 1.387 . S
C174 C175 1.387 . S
C174 H178 0.950 . S
C174 C183 1.390 1_556 S
C175 C174 1.387 . S
C175 C177 1.387 . S
H176 C183 0.950 . S
C177 C175 1.387 . S
C177 C179 1.390 1_556 S
C177 H181 0.950 . S
H178 C174 0.950 . S
C179 C177 1.390 1_554 S
C179 C180 1.387 . S
C179 H182 0.950 . S
C180 C179 1.387 . S
C180 C183 1.387 . S
H181 C177 0.950 . S
H182 C179 0.950 . S
C183 C174 1.390 1_554 S
C183 H176 0.950 . S
C183 C180 1.387 . S
C184 C185 1.387 . S
C184 H188 0.950 . S
C184 C193 1.390 . S
C185 C184 1.387 . S
C185 C187 1.387 . S
H186 C193 0.950 . S
C187 C185 1.387 . S
C187 C189 1.390 . S
C187 H191 0.950 . S
H188 C184 0.950 . S
C189 C187 1.390 . S
C189 C190 1.387 . S
C189 H192 0.950 . S
C190 C189 1.387 . S
C190 C193 1.387 . S
H191 C187 0.950 . S
H192 C189 0.950 . S
C193 C184 1.390 . S
C193 H186 0.950 . S
C193 C190 1.387 . S
C194 C195 1.387 . S
C194 H198 0.950 . S
C194 C203 1.390 . S
C195 C194 1.387 . S
C195 C197 1.387 . S
H196 C203 0.950 . S
C197 C195 1.387 . S
C197 C199 1.390 . S
C197 H201 0.950 . S
H198 C194 0.950 . S
C199 C197 1.390 . S
C199 C200 1.387 . S
C199 H202 0.950 . S
C200 C199 1.387 . S
C200 C203 1.387 . S
H201 C197 0.950 . S
H202 C199 0.950 . S
C203 C194 1.390 . S
C203 H196 0.950 . S
C203 C200 1.387 . S
C85 C11 1.396 . S
C90 C53 1.396 . S
C95 C25 1.396 . S
C100 C67 1.396 . S
C105 C39 1.396 . S
C110 C81 1.396 . S
C115 C19 1.546 . S
C120 C61 1.546 . S
C125 C75 1.546 . S
C130 C33 1.546 . S
C135 C47 1.546 . S
C140 C5 1.546 . S
C145 C28 1.449 . S
C150 C9 1.387 . S
C155 C42 1.447 . S
C160 C23 1.383 . S
C165 C37 1.383 . S
C170 C56 1.447 . S
C175 C70 1.446 . S
C180 C51 1.383 . S
C185 C65 1.384 . S
C190 C0 1.446 . S
C195 C79 1.387 . S
C200 C14 1.448 . S
