# Generated by pormake.
# Topology sma, (6)-cn, num edge types: 1
# Building blocks:
#     Node 0, Type 0, BuildingBlock: BETFAJ_clean_sbu_0, # of connection points: 6
#     Node 1, Type 0, BuildingBlock: BETFAJ_clean_sbu_0, # of connection points: 6
#     Node 2, Type 0, BuildingBlock: BETFAJ_clean_sbu_0, # of connection points: 6
#     Edge 3, Type (0, 0), BuildingBlock: AJUNOK_clean_linker_0, # of connection points: 2
#     Edge 4, Type (0, 0), BuildingBlock: AJUNOK_clean_linker_0, # of connection points: 2
#     Edge 5, Type (0, 0), BuildingBlock: AJUNOK_clean_linker_0, # of connection points: 2
#     Edge 6, Type (0, 0), BuildingBlock: AJUNOK_clean_linker_0, # of connection points: 2
#     Edge 7, Type (0, 0), BuildingBlock: AJUNOK_clean_linker_0, # of connection points: 2
#     Edge 8, Type (0, 0), BuildingBlock: AJUNOK_clean_linker_0, # of connection points: 2
#     Edge 9, Type (0, 0), BuildingBlock: AJUNOK_clean_linker_0, # of connection points: 2
#     Edge 10, Type (0, 0), BuildingBlock: AJUNOK_clean_linker_0, # of connection points: 2
#     Edge 11, Type (0, 0), BuildingBlock: AJUNOK_clean_linker_0, # of connection points: 2
# Relax obj value: 0.155
# Max RMSD: 0.280
# Mean RMSD: 0.207
data_MOF--net-sma--node1-BETFAJ_clean_sbu_0--edge1-AJUNOK_clean_linker_0
_symmetry_space_group_name_H-M    P1
_symmetry_Int_Tables_number       1
_symmetry_cell_setting            triclinic
loop_
_symmetry_equiv_pos_as_xyz
'x, y, z'
_cell_length_a     32.985117
_cell_length_b     39.24291
_cell_length_c     10.388526
_cell_angle_alpha  92.889835
_cell_angle_beta   90.237635
_cell_angle_gamma 143.98032
loop_
_atom_site_label
_atom_site_type_symbol
_atom_site_fract_x
_atom_site_fract_y
_atom_site_fract_z
_atom_type_partial_charge
Sm0 Sm 0.16907 0.6522 0.15981 0.0
Sm1 Sm 1.08478 0.66101 0.20223 0.0
C2 C 0.24407 0.65086 0.08381 0.0
C3 C 0.28682 0.65068 0.04252 0.0
C4 C 0.26363 0.61268 0.93772 0.0
C5 C 0.30209 0.60984 0.90482 0.0
C6 C 0.36468 0.64528 -0.02448 0.0
C7 C 0.38832 0.68391 0.0788 0.0
C8 C 0.34965 0.68634 0.11243 0.0
C9 C 0.14448 0.65158 0.41192 0.0
C10 C 0.24946 0.78167 0.18969 0.0
C11 C 1.0027 0.65721 0.25781 0.0
C12 C 0.97968 0.67342 0.19828 0.0
C13 C 0.95121 0.68026 0.27401 0.0
C14 C 0.92273 0.68977 0.21655 0.0
C15 C 0.92178 0.69217 0.08208 0.0
C16 C 0.95297 0.68771 0.00715 0.0
C17 C 0.98176 0.67851 0.06476 0.0
C18 C 1.11173 0.66379 0.95109 0.0
C19 C 1.00845 0.53407 0.20979 0.0
O20 O 0.19325 0.62852 0.00951 0.0
O21 O 0.25617 0.67547 0.19613 0.0
O22 O 0.15935 0.68262 0.3306 0.0
O23 O 0.14567 0.62125 0.3637 0.0
O24 O 0.24974 0.75008 0.13939 0.0
O25 O 0.19389 0.75732 0.23763 0.0
O26 O 1.06728 0.69958 0.30355 0.0
O27 O 0.98104 0.61417 0.19613 0.0
O28 O 1.09509 0.63131 0.03022 0.0
O29 O 1.10925 0.69294 0.00052 0.0
O30 O 1.01093 0.56798 0.25455 0.0
O31 O 1.06022 0.55517 0.15128 0.0
H32 H 0.21523 0.58447 0.88245 0.0
H33 H 0.28318 0.58025 0.82368 0.0
H34 H 0.43636 0.71168 0.13496 0.0
H35 H 0.36879 0.71592 0.19391 0.0
H36 H 0.94911 0.67649 0.37712 0.0
H37 H 0.8988 0.6928 0.27655 0.0
H38 H 0.9538 0.69016 0.90361 0.0
H39 H 1.0039 0.67373 0.00452 0.0
Sm40 Sm 0.67317 0.1579 0.30229 0.0
Sm41 Sm 0.58785 0.16427 0.25496 0.0
C42 C 0.73132 0.14229 0.40013 0.0
C43 C 0.72074 0.09936 0.43334 0.0
C44 C 0.73246 0.09876 0.56278 0.0
C45 C 0.73181 1.06424 0.59576 0.0
C46 C 0.71993 1.02987 0.4998 0.0
C47 C 0.70526 1.02851 0.3708 0.0
C48 C 0.70582 1.06306 0.33772 0.0
C49 C 0.6548 0.16157 0.04772 0.0
C50 C 0.50337 1.03574 0.24558 0.0
C51 C 0.53229 0.18578 0.19345 0.0
C52 C 0.52593 0.21475 0.26441 0.0
C53 C 0.53344 0.25027 0.20133 0.0
C54 C 0.52762 0.27795 0.26842 0.0
C55 C 0.51353 0.27004 0.39937 0.0
C56 C 0.50708 0.23517 0.46274 0.0
C57 C 0.51346 0.20796 0.39613 0.0
C58 C 0.60845 0.16293 0.50992 0.0
C59 C 0.75892 0.28502 0.26977 0.0
O60 O 0.70324 0.14725 0.47054 0.0
O61 O 0.73123 0.14903 0.27802 0.0
O62 O 0.6095 0.13297 0.12815 0.0
O63 O 0.71152 0.18692 0.0979 0.0
O64 O 0.55995 1.06108 0.30304 0.0
O65 O 0.50441 1.06698 0.19759 0.0
O66 O 0.59456 0.21915 0.16579 0.0
O67 O 0.49694 0.13649 0.2332 0.0
O68 O 0.65315 0.19096 0.42856 0.0
O69 O 0.55249 0.1384 0.46037 0.0
O70 O 0.69944 0.25753 0.22483 0.0
O71 O 0.76188 0.25714 0.32277 0.0
H72 H 0.74455 0.12662 0.63823 0.0
H73 H 0.74345 1.06631 0.69588 0.0
H74 H 0.69457 1.00152 0.29517 0.0
H75 H 0.6964 1.06243 0.23707 0.0
H76 H 0.54369 0.25652 0.10016 0.0
H77 H 0.53313 0.30486 0.21759 0.0
H78 H 0.49771 0.22937 0.5643 0.0
H79 H 0.50864 0.18161 0.44781 0.0
Sm80 Sm 0.69823 0.73025 0.869 0.0
Sm81 Sm 0.5859 0.59811 0.86289 0.0
C82 C 0.78961 0.83891 0.81863 0.0
C83 C 0.78258 0.8683 0.76411 0.0
C84 C 0.76342 0.85899 0.63206 0.0
C85 C 0.75227 0.88383 0.58423 0.0
C86 C 0.76002 0.91848 0.66724 0.0
C87 C 0.7798 0.92825 0.79871 0.0
C88 C 0.79134 0.90374 0.84642 0.0
C89 C 0.64995 0.68691 0.10316 0.0
C90 C 0.54029 0.64734 0.87096 0.0
C91 C 0.48998 0.48548 0.86964 0.0
C92 C 0.48829 0.44875 0.81495 0.0
C93 C 0.54641 0.46705 0.83248 0.0
C94 C 0.54777 0.4358 0.76858 0.0
C95 C 0.49138 0.38583 0.68518 0.0
C96 C 0.43278 0.36694 0.66929 0.0
C97 C 0.43126 0.3981 0.73377 0.0
C98 C 0.6356 0.64402 0.63008 0.0
C99 C 0.74646 0.68259 0.8979 0.0
O100 O 0.77382 0.80157 0.7408 0.0
O101 O 0.76712 0.82086 0.93319 0.0
O102 O 0.66128 0.67139 0.01951 0.0
O103 O 0.67053 0.7304 0.06998 0.0
O104 O 0.60004 0.69422 0.82389 0.0
O105 O 0.52574 0.60685 0.91034 0.0
O106 O 0.53605 0.52383 -0.03387 0.0
O107 O 0.48613 0.5065 0.78492 0.0
O108 O 0.62133 0.65678 0.71404 0.0
O109 O 0.62089 0.60389 0.66501 0.0
O110 O 0.68102 0.62967 0.90407 0.0
O111 O 0.76624 0.72767 0.87947 0.0
H112 H 0.75591 0.83176 0.56579 0.0
H113 H 0.73627 0.87502 0.48272 0.0
H114 H 0.78663 0.95513 0.86466 0.0
H115 H 0.80617 0.91185 0.94844 0.0
H116 H 0.59164 0.50631 0.89318 0.0
H117 H 0.59324 0.45098 0.78345 0.0
H118 H 0.38898 0.3291 0.60395 0.0
H119 H 0.38634 0.38363 0.71722 0.0
C120 C 0.47673 0.69504 0.92108 0.0
C121 C 0.40649 0.64325 0.9414 0.0
C122 C 0.5186 0.69529 0.89491 0.0
C123 C 0.49232 0.64384 0.88983 0.0
H124 H 0.49966 0.73589 0.92598 0.0
H125 H 0.5726 0.73668 0.88184 0.0
S126 S 0.3111 0.49631 0.93424 0.0
N127 N 0.31177 0.53884 0.95236 0.0
N128 N 0.39071 0.53927 0.90471 0.0
C129 C 0.42183 0.59151 0.90861 0.0
C130 C 0.37887 0.5912 0.93368 0.0
C131 C 0.82144 0.38283 0.25077 0.0
C132 C 0.82372 0.34865 0.25816 0.0
C133 C 0.88148 0.44277 0.23724 0.0
C134 C 0.94611 0.47083 0.2276 0.0
H135 H 0.77286 0.36322 0.25626 0.0
H136 H 0.8769 0.46707 0.23197 0.0
S137 S 0.98042 0.40127 0.24152 0.0
N138 N 0.89649 0.34766 0.25594 0.0
N139 N 1.00884 0.45982 0.22812 0.0
C140 C 0.94917 0.4372 0.23472 0.0
C141 C 0.88821 0.37634 0.25077 0.0
C142 C 0.69415 0.96458 0.64096 0.0
C143 C 0.72668 0.99822 0.53456 0.0
C144 C 0.70427 0.93817 0.68181 0.0
C145 C 0.74731 0.94436 0.61784 0.0
H146 H 0.66098 0.95899 0.69369 0.0
H147 H 0.67842 0.91286 0.76453 0.0
S148 S 0.84673 1.02989 0.33762 0.0
N149 N 0.80508 1.03742 0.36816 0.0
N150 N 0.82376 0.98756 0.44462 0.0
C151 C 0.77957 0.97735 0.51061 0.0
C152 C 0.76935 1.00431 0.46908 0.0
C153 C 0.85419 0.73557 0.01873 0.0
C154 C 0.79848 0.69121 0.92594 0.0
C155 C 0.89554 0.73691 0.06603 0.0
C156 C 0.88346 0.69464 0.02014 0.0
H157 H 0.86338 0.76742 0.06048 0.0
H158 H 0.93613 0.77034 0.14143 0.0
S159 S 0.74763 0.57252 0.76876 0.0
N160 N 0.73592 0.6062 0.78436 0.0
N161 N 0.81405 0.6092 0.87108 0.0
C162 C 0.83017 0.65198 0.92231 0.0
C163 C 0.78755 0.65011 0.87588 0.0
C164 C 0.44021 0.93646 0.22852 0.0
C165 C 0.43827 0.97105 0.22897 0.0
C166 C 0.37917 0.8753 0.21182 0.0
C167 C 0.31374 0.84632 0.1977 0.0
H168 H 0.48929 0.95675 0.24023 0.0
H169 H 0.38326 0.85056 0.21308 0.0
S170 S 0.28002 0.91645 0.19087 0.0
N171 N 0.36499 0.97137 0.21176 0.0
N172 N 0.25089 0.85702 0.1828 0.0
C173 C 0.31113 0.88039 0.19755 0.0
C174 C 0.37315 0.94252 0.21247 0.0
C175 C 0.55325 0.38671 0.54206 0.0
C176 C 0.49522 0.35506 0.61165 0.0
C177 C 0.55834 0.35884 0.47201 0.0
C178 C 0.50604 0.29841 0.4704 0.0
H179 H 0.59488 0.43338 0.54099 0.0
H180 H 0.60404 0.3849 0.42041 0.0
S181 S 0.34362 0.19575 0.63611 0.0
N182 N 0.38449 0.26 0.67433 0.0
N183 N 0.394 0.20767 0.54251 0.0
C184 C 0.44776 0.26628 0.53922 0.0
C185 C 0.4423 0.29455 0.60964 0.0
C186 C 1.10946 0.62044 0.76229 0.0
C187 C 0.12167 0.66213 0.81439 0.0
C188 C 0.11684 0.61722 0.63143 0.0
C189 C 0.13665 0.65558 0.5488 0.0
H190 H 1.09347 0.58972 0.82257 0.0
H191 H 1.1066 0.58427 0.59475 0.0
S192 S 0.17736 0.77415 0.63948 0.0
N193 N 0.1564 0.74363 0.77468 0.0
N194 N 0.17005 0.73747 0.52877 0.0
C195 C 0.14958 0.69779 0.60004 0.0
C196 C 0.14221 0.70113 0.73308 0.0
C197 C 0.69655 0.19686 0.82868 0.0
C198 C 0.64214 0.16121 0.91086 0.0
C199 C 0.68547 0.19727 0.69854 0.0
C200 C 0.6196 0.16197 0.64652 0.0
H201 H 0.74812 0.22488 0.86519 0.0
H202 H 0.72883 0.22564 0.63866 0.0
S203 S 0.4594 1.05936 0.82011 0.0
N204 N 0.51975 0.08895 0.9299 0.0
N205 N 0.49894 0.08945 0.68615 0.0
C206 C 0.56473 0.12584 0.72744 0.0
C207 C 0.576 0.12553 0.85952 0.0
C208 C 0.69041 0.71081 0.46023 0.0
C209 C 0.63871 0.65383 0.49528 0.0
C210 C 0.69255 0.72129 0.33255 0.0
C211 C 0.64293 0.67483 0.23708 0.0
H212 H 0.73013 0.74743 0.53087 0.0
H213 H 0.73421 0.76589 0.30786 0.0
S214 S 0.49274 0.51776 0.28266 0.0
N215 N 0.5341 0.55041 0.42756 0.0
N216 N 0.53801 0.57034 0.18613 0.0
C217 C 0.59007 0.61767 0.27119 0.0
C218 C 0.58797 0.60702 0.40114 0.0
loop_
_geom_bond_atom_site_label_1
_geom_bond_atom_site_label_2
_geom_bond_distance
_geom_bond_site_symmetry_2
_ccdc_geom_bond_type
Sm0 C2 2.846 . S
Sm0 O20 2.543 . S
Sm0 O21 2.450 . S
Sm0 O22 2.681 1_455 S
Sm0 O23 2.464 . S
Sm0 O24 2.396 . S
Sm0 O28 2.386 1_554 S
Sm0 O31 2.408 1_455 S
Sm1 C11 2.846 . S
Sm1 O22 2.386 . S
Sm1 O25 2.408 1_655 S
Sm1 O26 2.543 . S
Sm1 O27 2.450 . S
Sm1 O28 2.681 1_654 S
Sm1 O29 2.464 1_554 S
Sm1 O30 2.396 . S
C2 Sm0 2.846 . S
C2 C3 1.506 . S
C2 O20 1.261 . S
C2 O21 1.242 . S
C3 C2 1.506 . S
C3 C4 1.358 . S
C3 C8 1.382 . S
C4 C3 1.358 . S
C4 C5 1.385 1_554 S
C4 H32 0.930 1_554 S
C5 C4 1.385 1_556 S
C5 C6 1.395 1_556 S
C5 H33 0.929 . S
C6 C5 1.395 1_554 S
C6 C7 1.335 . S
C7 C6 1.335 . S
C7 C8 1.398 . S
C7 H34 0.930 . S
C8 C3 1.382 . S
C8 C7 1.398 . S
C8 H35 0.929 . S
C9 O22 1.271 1_455 S
C9 O23 1.251 . S
C10 O24 1.252 . S
C10 O25 1.272 . S
C11 Sm1 2.846 . S
C11 C12 1.506 . S
C11 O26 1.261 . S
C11 O27 1.242 . S
C12 C11 1.506 . S
C12 C13 1.358 . S
C12 C17 1.382 . S
C13 C12 1.358 . S
C13 C14 1.385 . S
C13 H36 0.930 . S
C14 C13 1.385 . S
C14 C15 1.395 . S
C14 H37 0.929 . S
C15 C14 1.395 . S
C15 C16 1.335 . S
C16 C15 1.335 . S
C16 C17 1.398 . S
C16 H38 0.931 . S
C17 C12 1.382 . S
C17 C16 1.398 . S
C17 H39 0.929 1_554 S
C18 O28 1.271 . S
C18 O29 1.251 1_455 S
C19 O30 1.252 . S
C19 O31 1.272 . S
O20 Sm0 2.543 . S
O20 C2 1.261 . S
O21 Sm0 2.450 . S
O21 C2 1.242 . S
O22 Sm0 2.681 1_655 S
O22 Sm1 2.386 . S
O22 C9 1.271 1_655 S
O23 Sm0 2.464 . S
O23 C9 1.251 . S
O24 Sm0 2.396 . S
O24 C10 1.252 . S
O25 Sm1 2.408 1_455 S
O25 C10 1.272 . S
O26 Sm1 2.543 . S
O26 C11 1.261 . S
O27 Sm1 2.450 . S
O27 C11 1.242 . S
O28 Sm0 2.386 1_556 S
O28 Sm1 2.681 1_456 S
O28 C18 1.271 . S
O29 Sm1 2.464 1_556 S
O29 C18 1.251 1_655 S
O30 Sm1 2.396 . S
O30 C19 1.252 . S
O31 Sm0 2.408 1_655 S
O31 C19 1.272 . S
H32 C4 0.930 1_556 S
H33 C5 0.929 . S
H34 C7 0.930 . S
H35 C8 0.929 . S
H36 C13 0.930 . S
H37 C14 0.929 . S
H38 C16 0.931 . S
H39 C17 0.929 1_556 S
Sm40 C42 2.846 1_545 S
Sm40 O60 2.543 . S
Sm40 O61 2.450 . S
Sm40 O62 2.681 . S
Sm40 O63 2.464 . S
Sm40 O64 2.396 1_545 S
Sm40 O68 2.386 . S
Sm40 O71 2.408 . S
Sm41 C51 2.846 . S
Sm41 O62 2.386 . S
Sm41 O65 2.408 1_545 S
Sm41 O66 2.543 . S
Sm41 O67 2.450 . S
Sm41 O68 2.681 . S
Sm41 O69 2.464 . S
Sm41 O70 2.396 . S
C42 Sm40 2.846 1_565 S
C42 C43 1.506 . S
C42 O60 1.261 1_565 S
C42 O61 1.242 1_565 S
C43 C42 1.506 . S
C43 C44 1.358 . S
C43 C48 1.382 . S
C44 C43 1.358 . S
C44 C45 1.385 . S
C44 H72 0.930 . S
C45 C44 1.385 . S
C45 C46 1.395 . S
C45 H73 0.929 . S
C46 C45 1.395 . S
C46 C47 1.335 . S
C47 C46 1.335 . S
C47 C48 1.398 . S
C47 H74 0.930 . S
C48 C43 1.382 . S
C48 C47 1.398 . S
C48 H75 0.929 . S
C49 O62 1.271 . S
C49 O63 1.251 . S
C50 O64 1.252 . S
C50 O65 1.272 . S
C51 Sm41 2.846 . S
C51 C52 1.506 . S
C51 O66 1.261 . S
C51 O67 1.242 . S
C52 C51 1.506 . S
C52 C53 1.358 . S
C52 C57 1.382 . S
C53 C52 1.358 . S
C53 C54 1.385 . S
C53 H76 0.930 . S
C54 C53 1.385 . S
C54 C55 1.395 . S
C54 H77 0.929 . S
C55 C54 1.395 . S
C55 C56 1.335 . S
C56 C55 1.335 . S
C56 C57 1.398 . S
C56 H78 0.930 . S
C57 C52 1.382 . S
C57 C56 1.398 . S
C57 H79 0.929 . S
C58 O68 1.271 . S
C58 O69 1.251 . S
C59 O70 1.252 . S
C59 O71 1.272 . S
O60 Sm40 2.543 . S
O60 C42 1.261 1_545 S
O61 Sm40 2.450 . S
O61 C42 1.242 1_545 S
O62 Sm40 2.681 . S
O62 Sm41 2.386 . S
O62 C49 1.271 . S
O63 Sm40 2.464 . S
O63 C49 1.251 . S
O64 Sm40 2.396 1_565 S
O64 C50 1.252 . S
O65 Sm41 2.408 1_565 S
O65 C50 1.272 . S
O66 Sm41 2.543 . S
O66 C51 1.261 . S
O67 Sm41 2.450 . S
O67 C51 1.242 . S
O68 Sm40 2.386 . S
O68 Sm41 2.681 . S
O68 C58 1.271 . S
O69 Sm41 2.464 . S
O69 C58 1.251 . S
O70 Sm41 2.396 . S
O70 C59 1.252 . S
O71 Sm40 2.408 . S
O71 C59 1.272 . S
H72 C44 0.930 . S
H73 C45 0.929 . S
H74 C47 0.930 . S
H75 C48 0.929 . S
H76 C53 0.930 . S
H77 C54 0.929 . S
H78 C56 0.930 . S
H79 C57 0.929 . S
Sm80 C82 2.846 . S
Sm80 O100 2.543 . S
Sm80 O101 2.450 . S
Sm80 O102 2.681 1_556 S
Sm80 O103 2.464 1_556 S
Sm80 O104 2.396 . S
Sm80 O108 2.386 . S
Sm80 O111 2.408 . S
Sm81 C91 2.846 . S
Sm81 O102 2.386 1_556 S
Sm81 O105 2.408 . S
Sm81 O106 2.543 . S
Sm81 O107 2.450 . S
Sm81 O108 2.681 . S
Sm81 O109 2.464 . S
Sm81 O110 2.396 . S
C82 Sm80 2.846 . S
C82 C83 1.506 . S
C82 O100 1.261 . S
C82 O101 1.242 . S
C83 C82 1.506 . S
C83 C84 1.358 . S
C83 C88 1.382 . S
C84 C83 1.358 . S
C84 C85 1.385 . S
C84 H112 0.930 . S
C85 C84 1.385 . S
C85 C86 1.395 . S
C85 H113 0.929 . S
C86 C85 1.395 . S
C86 C87 1.335 . S
C87 C86 1.335 . S
C87 C88 1.398 . S
C87 H114 0.930 1_556 S
C88 C83 1.382 . S
C88 C87 1.398 . S
C88 H115 0.929 1_556 S
C89 O102 1.271 . S
C89 O103 1.251 . S
C90 O104 1.252 . S
C90 O105 1.272 . S
C91 Sm81 2.846 . S
C91 C92 1.506 . S
C91 O106 1.261 . S
C91 O107 1.242 . S
C92 C91 1.506 . S
C92 C93 1.358 . S
C92 C97 1.382 . S
C93 C92 1.358 . S
C93 C94 1.385 . S
C93 H116 0.930 1_556 S
C94 C93 1.385 . S
C94 C95 1.395 . S
C94 H117 0.929 1_556 S
C95 C94 1.395 . S
C95 C96 1.335 . S
C96 C95 1.335 . S
C96 C97 1.398 . S
C96 H118 0.930 . S
C97 C92 1.382 . S
C97 C96 1.398 . S
C97 H119 0.929 . S
C98 O108 1.271 . S
C98 O109 1.251 . S
C99 O110 1.252 . S
C99 O111 1.272 . S
O100 Sm80 2.543 . S
O100 C82 1.261 . S
O101 Sm80 2.450 . S
O101 C82 1.242 . S
O102 Sm80 2.681 1_554 S
O102 Sm81 2.386 1_554 S
O102 C89 1.271 . S
O103 Sm80 2.464 1_554 S
O103 C89 1.251 . S
O104 Sm80 2.396 . S
O104 C90 1.252 . S
O105 Sm81 2.408 . S
O105 C90 1.272 . S
O106 Sm81 2.543 . S
O106 C91 1.261 . S
O107 Sm81 2.450 . S
O107 C91 1.242 . S
O108 Sm80 2.386 . S
O108 Sm81 2.681 . S
O108 C98 1.271 . S
O109 Sm81 2.464 . S
O109 C98 1.251 . S
O110 Sm81 2.396 . S
O110 C99 1.252 . S
O111 Sm80 2.408 . S
O111 C99 1.272 . S
H112 C84 0.930 . S
H113 C85 0.929 . S
H114 C87 0.930 1_554 S
H115 C88 0.929 1_554 S
H116 C93 0.930 1_554 S
H117 C94 0.929 1_554 S
H118 C96 0.930 . S
H119 C97 0.929 . S
C120 C121 1.369 . S
C120 C122 1.419 1_554 S
C120 H124 0.930 . S
C121 C120 1.369 . S
C121 C130 1.429 1_554 S
C122 C120 1.419 1_556 S
C122 C123 1.363 . S
C122 H125 0.929 1_556 S
C123 C122 1.363 . S
C123 C129 1.428 . S
H124 C120 0.930 . S
H125 C122 0.929 1_554 S
S126 N127 1.613 . S
S126 N128 1.610 . S
N127 S126 1.613 . S
N127 C130 1.350 . S
N128 S126 1.610 . S
N128 C129 1.351 . S
C129 C123 1.428 . S
C129 N128 1.351 . S
C129 C130 1.434 . S
C130 C121 1.429 1_556 S
C130 N127 1.350 . S
C130 C129 1.434 . S
C131 C132 1.369 . S
C131 C133 1.419 . S
C131 H135 0.930 . S
C132 C131 1.369 . S
C132 C141 1.429 . S
C133 C131 1.419 . S
C133 C134 1.363 . S
C133 H136 0.929 . S
C134 C133 1.363 . S
C134 C140 1.428 . S
H135 C131 0.930 . S
H136 C133 0.929 . S
S137 N138 1.613 . S
S137 N139 1.610 . S
N138 S137 1.613 . S
N138 C141 1.350 . S
N139 S137 1.610 . S
N139 C140 1.351 . S
C140 C134 1.428 . S
C140 N139 1.351 . S
C140 C141 1.434 . S
C141 C132 1.429 . S
C141 N138 1.350 . S
C141 C140 1.434 . S
C142 C143 1.369 . S
C142 C144 1.419 . S
C142 H146 0.930 . S
C143 C142 1.369 . S
C143 C152 1.429 . S
C144 C142 1.419 . S
C144 C145 1.363 . S
C144 H147 0.929 . S
C145 C144 1.363 . S
C145 C151 1.428 . S
H146 C142 0.930 . S
H147 C144 0.929 . S
S148 N149 1.613 . S
S148 N150 1.610 . S
N149 S148 1.613 . S
N149 C152 1.350 . S
N150 S148 1.610 . S
N150 C151 1.351 . S
C151 C145 1.428 . S
C151 N150 1.351 . S
C151 C152 1.434 . S
C152 C143 1.429 . S
C152 N149 1.350 . S
C152 C151 1.434 . S
C153 C154 1.369 1_554 S
C153 C155 1.419 . S
C153 H157 0.930 . S
C154 C153 1.369 1_556 S
C154 C163 1.429 . S
C155 C153 1.419 . S
C155 C156 1.363 . S
C155 H158 0.929 . S
C156 C155 1.363 . S
C156 C162 1.428 1_554 S
H157 C153 0.930 . S
H158 C155 0.929 . S
S159 N160 1.613 . S
S159 N161 1.610 . S
N160 S159 1.613 . S
N160 C163 1.350 . S
N161 S159 1.610 . S
N161 C162 1.351 . S
C162 C156 1.428 1_556 S
C162 N161 1.351 . S
C162 C163 1.434 . S
C163 C154 1.429 . S
C163 N160 1.350 . S
C163 C162 1.434 . S
C164 C165 1.369 . S
C164 C166 1.419 . S
C164 H168 0.930 . S
C165 C164 1.369 . S
C165 C174 1.429 . S
C166 C164 1.419 . S
C166 C167 1.363 . S
C166 H169 0.929 . S
C167 C166 1.363 . S
C167 C173 1.428 . S
H168 C164 0.930 . S
H169 C166 0.929 . S
S170 N171 1.613 . S
S170 N172 1.610 . S
N171 S170 1.613 . S
N171 C174 1.350 . S
N172 S170 1.610 . S
N172 C173 1.351 . S
C173 C167 1.428 . S
C173 N172 1.351 . S
C173 C174 1.434 . S
C174 C165 1.429 . S
C174 N171 1.350 . S
C174 C173 1.434 . S
C175 C176 1.369 . S
C175 C177 1.419 . S
C175 H179 0.930 . S
C176 C175 1.369 . S
C176 C185 1.429 . S
C177 C175 1.419 . S
C177 C178 1.363 . S
C177 H180 0.929 . S
C178 C177 1.363 . S
C178 C184 1.428 . S
H179 C175 0.930 . S
H180 C177 0.929 . S
S181 N182 1.613 . S
S181 N183 1.610 . S
N182 S181 1.613 . S
N182 C185 1.350 . S
N183 S181 1.610 . S
N183 C184 1.351 . S
C184 C178 1.428 . S
C184 N183 1.351 . S
C184 C185 1.434 . S
C185 C176 1.429 . S
C185 N182 1.350 . S
C185 C184 1.434 . S
C186 C187 1.369 1_655 S
C186 C188 1.419 . S
C186 H190 0.930 . S
C187 C186 1.369 1_455 S
C187 C196 1.429 . S
C188 C186 1.419 . S
C188 C189 1.363 1_655 S
C188 H191 0.929 . S
C189 C188 1.363 1_455 S
C189 C195 1.428 . S
H190 C186 0.930 . S
H191 C188 0.929 . S
S192 N193 1.613 . S
S192 N194 1.610 . S
N193 S192 1.613 . S
N193 C196 1.350 . S
N194 S192 1.610 . S
N194 C195 1.351 . S
C195 C189 1.428 . S
C195 N194 1.351 . S
C195 C196 1.434 . S
C196 C187 1.429 . S
C196 N193 1.350 . S
C196 C195 1.434 . S
C197 C198 1.369 . S
C197 C199 1.419 1_554 S
C197 H201 0.930 . S
C198 C197 1.369 . S
C198 C207 1.429 1_554 S
C199 C197 1.419 1_556 S
C199 C200 1.363 . S
C199 H202 0.929 . S
C200 C199 1.363 . S
C200 C206 1.428 . S
H201 C197 0.930 . S
H202 C199 0.929 . S
S203 N204 1.613 1_556 S
S203 N205 1.610 . S
N204 S203 1.613 1_554 S
N204 C207 1.350 1_564 S
N205 S203 1.610 . S
N205 C206 1.351 1_565 S
C206 C200 1.428 . S
C206 N205 1.351 1_545 S
C206 C207 1.434 . S
C207 C198 1.429 1_556 S
C207 N204 1.350 1_546 S
C207 C206 1.434 . S
C208 C209 1.369 . S
C208 C210 1.419 . S
C208 H212 0.930 . S
C209 C208 1.369 . S
C209 C218 1.429 . S
C210 C208 1.419 . S
C210 C211 1.363 . S
C210 H213 0.929 . S
C211 C210 1.363 . S
C211 C217 1.428 . S
H212 C208 0.930 . S
H213 C210 0.929 . S
S214 N215 1.613 . S
S214 N216 1.610 . S
N215 S214 1.613 . S
N215 C218 1.350 . S
N216 S214 1.610 . S
N216 C217 1.351 . S
C217 C211 1.428 . S
C217 N216 1.351 . S
C217 C218 1.434 . S
C218 C209 1.429 . S
C218 N215 1.350 . S
C218 C217 1.434 . S
C121 C6 2.319 . S
C123 C90 2.350 . S
C132 C59 2.961 . S
C134 C19 2.884 . S
C143 C46 1.671 . S
C145 C86 1.659 . S
C154 C99 2.776 . S
C156 C15 2.581 . S
C165 C50 2.677 . S
C167 C10 2.611 . S
C176 C95 1.698 . S
C178 C55 1.685 . S
C187 C18 0.765 . S
C189 C9 0.771 . S
C198 C49 0.756 . S
C200 C58 0.765 . S
C209 C98 0.756 . S
C211 C89 0.771 . S
