# Generated by pormake.
# Topology vme, (6)-cn, num edge types: 1
# Building blocks:
#     Node 0, Type 0, BuildingBlock: MIDCAF_clean_sbu_0, # of connection points: 6
#     Node 1, Type 0, BuildingBlock: MIDCAF_clean_sbu_0, # of connection points: 6
#     Node 2, Type 0, BuildingBlock: MIDCAF_clean_sbu_0, # of connection points: 6
#     Node 3, Type 0, BuildingBlock: MIDCAF_clean_sbu_0, # of connection points: 6
#     Edge 4, Type (0, 0), None
#     Edge 5, Type (0, 0), None
#     Edge 6, Type (0, 0), None
#     Edge 7, Type (0, 0), None
#     Edge 8, Type (0, 0), None
#     Edge 9, Type (0, 0), None
#     Edge 10, Type (0, 0), None
#     Edge 11, Type (0, 0), None
#     Edge 12, Type (0, 0), None
#     Edge 13, Type (0, 0), None
#     Edge 14, Type (0, 0), None
#     Edge 15, Type (0, 0), None
# Relax obj value: 0.250
# Max RMSD: 0.206
# Mean RMSD: 0.206
data_MOF--net-vme--node1-MIDCAF_clean_sbu_0--edge1-none
_symmetry_space_group_name_H-M    P1
_symmetry_Int_Tables_number       1
_symmetry_cell_setting            triclinic
loop_
_symmetry_equiv_pos_as_xyz
'x, y, z'
_cell_length_a     8.6481198
_cell_length_b     12.107717
_cell_length_c     13.199394
_cell_angle_alpha  89.99974
_cell_angle_beta   102.94812
_cell_angle_gamma 90.000381
loop_
_atom_site_label
_atom_site_type_symbol
_atom_site_fract_x
_atom_site_fract_y
_atom_site_fract_z
_atom_type_partial_charge
Zn0 Zn 0.65819 0.48761 0.2233 0.0
Zn1 Zn 0.1758 0.21354 0.45297 0.0
Zn2 Zn 0.34334 0.29306 0.33657 0.0
C3 C 0.441 0.19708 0.57776 0.0
C4 C 1.0766 0.10177 0.26895 0.0
O5 O 0.2189 0.44832 0.2641 0.0
O6 O 0.41164 0.52885 0.19973 0.0
C7 C 0.64336 0.45952 0.41074 0.0
O8 O 0.46639 0.24801 0.49765 0.0
O9 O 0.30978 0.1506 0.57448 0.0
O10 O 1.03421 0.12623 0.35142 0.0
O11 O 0.20282 0.14668 0.24927 0.0
O12 O 0.75295 0.5062 0.37772 0.0
O13 O 0.56856 0.37935 0.35483 0.0
O14 O 0.5374 0.31045 0.25757 0.0
O15 O 0.69045 0.34213 0.15015 0.0
C16 C 0.56886 0.29461 0.16772 0.0
O17 O 0.20014 0.41821 0.36487 0.0
O18 O 1.10849 0.35179 0.49625 0.0
C19 C 0.26728 0.52481 0.20949 0.0
C20 C 0.13601 0.43115 0.44198 0.0
Zn21 Zn 1.05748 0.71355 -0.043 0.0
Zn22 Zn 0.57509 -0.01239 0.18665 0.0
Zn23 Zn 0.88995 0.79306 0.07339 0.0
C24 C 0.66444 0.79461 0.24224 0.0
C25 C 0.58993 0.95952 -0.00078 0.0
O26 O 1.03317 0.91821 0.04509 0.0
O27 O 0.12478 0.8518 0.91369 0.0
C28 C 0.15669 0.60178 0.141 0.0
O29 O 0.6959 0.81045 0.15239 0.0
O30 O 0.54285 0.84213 0.25981 0.0
O31 O 0.48034 0.00619 0.03223 0.0
O32 O 0.66473 0.87934 0.05512 0.0
O33 O 0.19909 0.62626 0.05854 0.0
O34 O 1.03046 0.64667 0.16068 0.0
O35 O 0.76689 0.74802 0.91231 0.0
O36 O 0.9235 0.6506 0.83549 0.0
C37 C 0.79228 0.69708 0.8322 0.0
O38 O 1.01438 0.94832 0.14585 0.0
O39 O 0.82164 0.02887 0.21023 0.0
C40 C 1.09728 0.93115 -0.03203 0.0
C41 C 0.96599 0.02483 0.20045 0.0
Zn42 Zn 0.57516 0.48236 0.68668 0.0
Zn43 Zn 1.05751 0.75651 0.45696 0.0
Zn44 Zn 0.88998 0.67696 0.57339 0.0
C45 C 0.7923 0.77288 0.33217 0.0
C46 C 0.1566 0.8683 0.64099 0.0
O47 O 1.01446 0.52172 0.64585 0.0
O48 O 0.82173 0.44119 0.71023 0.0
C49 C 0.59003 0.51043 0.49927 0.0
O50 O 0.76691 0.72197 0.4123 0.0
O51 O 0.9235 0.81937 0.33543 0.0
O52 O 0.19897 0.8439 0.5585 0.0
O53 O 1.03044 0.82334 0.66069 0.0
O54 O 0.48042 0.46377 0.53226 0.0
O55 O 0.6648 0.59064 0.55515 0.0
O56 O 0.69597 0.65953 0.65242 0.0
O57 O 0.54287 0.62781 0.75987 0.0
C58 C 0.66444 0.67533 0.74226 0.0
O59 O 1.03325 0.55184 0.54509 0.0
O60 O 0.12498 0.61828 0.41374 0.0
C61 C 0.96609 0.44523 0.70047 0.0
C62 C 1.09746 0.53892 0.46801 0.0
Zn63 Zn 0.1758 0.2565 0.95299 0.0
Zn64 Zn 0.65814 0.98236 0.72328 0.0
Zn65 Zn 0.34332 0.17696 0.83657 0.0
C66 C 0.56885 0.17533 0.6677 0.0
C67 C 0.64327 0.01044 0.91069 0.0
O68 O 0.20003 0.05185 0.86486 0.0
O69 O 1.10834 0.11828 -0.00377 0.0
C70 C 1.07669 0.36829 0.76897 0.0
O71 O 0.53732 0.15953 0.75754 0.0
O72 O 0.69042 0.12781 0.65008 0.0
O73 O 0.75289 0.96378 0.8777 0.0
O74 O 0.5685 0.09064 0.85482 0.0
O75 O 1.03432 0.34388 0.85145 0.0
O76 O 0.20287 0.32335 0.74928 0.0
O77 O 0.46639 0.22197 -0.00234 0.0
O78 O 0.3098 0.31937 0.07452 0.0
C79 C 0.44101 0.27288 0.07778 0.0
O80 O 0.21885 0.02172 0.76411 0.0
O81 O 0.41158 0.94117 0.69974 0.0
C82 C 0.13584 0.03892 0.94195 0.0
C83 C 0.26723 0.94522 0.70951 0.0
loop_
_geom_bond_atom_site_label_1
_geom_bond_atom_site_label_2
_geom_bond_distance
_geom_bond_site_symmetry_2
_ccdc_geom_bond_type
Zn0 O6 1.920 . S
Zn0 O12 1.898 . S
Zn0 O15 1.905 . S
Zn1 O9 1.905 . S
Zn1 O10 1.898 1_455 S
Zn1 O18 1.920 1_455 S
Zn2 O5 2.080 . S
Zn2 O8 2.114 . S
Zn2 O11 2.120 . S
Zn2 O13 2.120 . S
Zn2 O14 2.114 . S
Zn2 O17 2.080 . S
C3 O8 1.166 . S
C3 O9 1.182 . S
C4 O10 1.167 . S
C4 O11 1.299 1_655 S
O5 Zn2 2.080 . S
O5 C19 1.305 . S
O6 Zn0 1.920 . S
O6 C19 1.234 . S
C7 O12 1.167 . S
C7 O13 1.299 . S
O8 Zn2 2.114 . S
O8 C3 1.166 . S
O9 Zn1 1.905 . S
O9 C3 1.182 . S
O10 Zn1 1.898 1_655 S
O10 C4 1.167 . S
O11 Zn2 2.120 . S
O11 C4 1.299 1_455 S
O12 Zn0 1.898 . S
O12 C7 1.167 . S
O13 Zn2 2.120 . S
O13 C7 1.299 . S
O14 Zn2 2.114 . S
O14 C16 1.166 . S
O15 Zn0 1.905 . S
O15 C16 1.182 . S
C16 O14 1.166 . S
C16 O15 1.182 . S
O17 Zn2 2.080 . S
O17 C20 1.305 1_455 S
O18 Zn1 1.920 1_655 S
O18 C20 1.234 . S
C19 O5 1.305 . S
C19 O6 1.234 . S
C20 O17 1.305 1_655 S
C20 O18 1.234 . S
Zn21 O27 1.920 1_655 S
Zn21 O33 1.898 1_656 S
Zn21 O36 1.905 . S
Zn22 O30 1.905 1_545 S
Zn22 O31 1.898 . S
Zn22 O39 1.920 . S
Zn23 O26 2.080 . S
Zn23 O29 2.114 . S
Zn23 O32 2.120 . S
Zn23 O34 2.120 . S
Zn23 O35 2.114 . S
Zn23 O38 2.080 1_565 S
C24 O29 1.166 . S
C24 O30 1.182 . S
C25 O31 1.167 . S
C25 O32 1.299 1_545 S
O26 Zn23 2.080 . S
O26 C40 1.305 1_654 S
O27 Zn21 1.920 1_455 S
O27 C40 1.234 . S
C28 O33 1.167 . S
C28 O34 1.299 1_455 S
O29 Zn23 2.114 . S
O29 C24 1.166 . S
O30 Zn22 1.905 1_565 S
O30 C24 1.182 . S
O31 Zn22 1.898 . S
O31 C25 1.167 . S
O32 Zn23 2.120 . S
O32 C25 1.299 1_565 S
O33 Zn21 1.898 1_454 S
O33 C28 1.167 . S
O34 Zn23 2.120 . S
O34 C28 1.299 1_655 S
O35 Zn23 2.114 . S
O35 C37 1.166 1_554 S
O36 Zn21 1.905 . S
O36 C37 1.182 . S
C37 O35 1.166 1_556 S
C37 O36 1.182 . S
O38 Zn23 2.080 1_545 S
O38 C41 1.306 . S
O39 Zn22 1.920 . S
O39 C41 1.234 . S
C40 O26 1.305 1_456 S
C40 O27 1.234 . S
C41 O38 1.306 . S
C41 O39 1.234 . S
Zn42 O48 1.920 . S
Zn42 O54 1.898 . S
Zn42 O57 1.905 . S
Zn43 O51 1.905 . S
Zn43 O52 1.898 1_655 S
Zn43 O60 1.920 1_655 S
Zn44 O47 2.080 . S
Zn44 O50 2.114 . S
Zn44 O53 2.120 . S
Zn44 O55 2.120 . S
Zn44 O56 2.114 . S
Zn44 O59 2.080 . S
C45 O50 1.166 . S
C45 O51 1.182 . S
C46 O52 1.167 . S
C46 O53 1.299 1_455 S
O47 Zn44 2.080 . S
O47 C61 1.305 . S
O48 Zn42 1.920 . S
O48 C61 1.234 . S
C49 O54 1.167 . S
C49 O55 1.299 . S
O50 Zn44 2.114 . S
O50 C45 1.166 . S
O51 Zn43 1.905 . S
O51 C45 1.182 . S
O52 Zn43 1.898 1_455 S
O52 C46 1.167 . S
O53 Zn44 2.120 . S
O53 C46 1.299 1_655 S
O54 Zn42 1.898 . S
O54 C49 1.167 . S
O55 Zn44 2.120 . S
O55 C49 1.299 . S
O56 Zn44 2.114 . S
O56 C58 1.166 . S
O57 Zn42 1.905 . S
O57 C58 1.182 . S
C58 O56 1.166 . S
C58 O57 1.182 . S
O59 Zn44 2.080 . S
O59 C62 1.305 1_655 S
O60 Zn43 1.920 1_455 S
O60 C62 1.234 . S
C61 O47 1.305 . S
C61 O48 1.234 . S
C62 O59 1.305 1_455 S
C62 O60 1.234 . S
Zn63 O69 1.920 1_455 S
Zn63 O75 1.898 1_454 S
Zn63 O78 1.905 . S
Zn64 O72 1.905 1_565 S
Zn64 O73 1.898 . S
Zn64 O81 1.920 . S
Zn65 O68 2.080 . S
Zn65 O71 2.114 . S
Zn65 O74 2.120 . S
Zn65 O76 2.120 . S
Zn65 O77 2.114 . S
Zn65 O80 2.080 1_545 S
C66 O71 1.166 . S
C66 O72 1.182 . S
C67 O73 1.167 . S
C67 O74 1.299 1_565 S
O68 Zn65 2.080 . S
O68 C82 1.305 1_456 S
O69 Zn63 1.920 1_655 S
O69 C82 1.234 . S
C70 O75 1.167 . S
C70 O76 1.299 1_655 S
O71 Zn65 2.114 . S
O71 C66 1.166 . S
O72 Zn64 1.905 1_545 S
O72 C66 1.182 . S
O73 Zn64 1.898 . S
O73 C67 1.167 . S
O74 Zn65 2.120 . S
O74 C67 1.299 1_545 S
O75 Zn63 1.898 1_656 S
O75 C70 1.167 . S
O76 Zn65 2.120 . S
O76 C70 1.299 1_455 S
O77 Zn65 2.114 . S
O77 C79 1.166 1_556 S
O78 Zn63 1.905 . S
O78 C79 1.182 . S
C79 O77 1.166 1_554 S
C79 O78 1.182 . S
O80 Zn65 2.080 1_565 S
O80 C83 1.306 . S
O81 Zn64 1.920 . S
O81 C83 1.234 . S
C82 O68 1.305 1_654 S
C82 O69 1.234 . S
C83 O80 1.306 . S
C83 O81 1.234 . S
C41 C4 1.585 . S
C19 C28 1.585 . S
C83 C46 1.585 . S
C61 C70 1.585 . S
C62 C20 0.943 1_455 S
C40 C82 0.943 1_466 S
C79 C16 1.202 . S
C24 C45 1.202 . S
C37 C58 1.202 . S
C66 C3 1.202 . S
C7 C49 1.436 . S
C67 C25 1.436 1_566 S
