# Generated by pormake.
# Topology dmp, (4)-cn, num edge types: 1
# Building blocks:
#     Node 0, Type 0, BuildingBlock: QUQFOY_clean_sbu_3, # of connection points: 4
#     Node 1, Type 0, BuildingBlock: QUQFOY_clean_sbu_3, # of connection points: 4
#     Node 2, Type 0, BuildingBlock: QUQFOY_clean_sbu_3, # of connection points: 4
#     Node 3, Type 0, BuildingBlock: QUQFOY_clean_sbu_3, # of connection points: 4
#     Edge 4, Type (0, 0), BuildingBlock: FUNLAD_clean_linker_0, # of connection points: 2
#     Edge 5, Type (0, 0), BuildingBlock: FUNLAD_clean_linker_0, # of connection points: 2
#     Edge 6, Type (0, 0), BuildingBlock: FUNLAD_clean_linker_0, # of connection points: 2
#     Edge 7, Type (0, 0), BuildingBlock: FUNLAD_clean_linker_0, # of connection points: 2
#     Edge 8, Type (0, 0), BuildingBlock: FUNLAD_clean_linker_0, # of connection points: 2
#     Edge 9, Type (0, 0), BuildingBlock: FUNLAD_clean_linker_0, # of connection points: 2
#     Edge 10, Type (0, 0), BuildingBlock: FUNLAD_clean_linker_0, # of connection points: 2
#     Edge 11, Type (0, 0), BuildingBlock: FUNLAD_clean_linker_0, # of connection points: 2
# Relax obj value: 0.085
# Max RMSD: 0.188
# Mean RMSD: 0.188
data_MOF--net-dmp--node1-QUQFOY_clean_sbu_3--edge1-FUNLAD_clean_linker_0
_symmetry_space_group_name_H-M    P1
_symmetry_Int_Tables_number       1
_symmetry_cell_setting            triclinic
loop_
_symmetry_equiv_pos_as_xyz
'x, y, z'
_cell_length_a     48.607669
_cell_length_b     22.883573
_cell_length_c     18.682779
_cell_angle_alpha  89.854625
_cell_angle_beta   93.464665
_cell_angle_gamma 89.910005
loop_
_atom_site_label
_atom_site_type_symbol
_atom_site_fract_x
_atom_site_fract_y
_atom_site_fract_z
_atom_type_partial_charge
C0 C 0.05446 0.17787 0.07618 0.0
O1 O 0.0749 0.19014 0.03967 0.0
Cd2 Cd 0.11317 0.25198 0.07818 0.0
O3 O 0.05222 0.20097 0.13755 0.0
Cd4 Cd 0.07865 0.27149 0.21578 0.0
C5 C 0.13367 0.18325 0.23716 0.0
O6 O 0.09912 0.34047 0.13094 0.0
O7 O 0.11699 0.33585 0.23938 0.0
O8 O 0.03857 0.33079 0.24079 0.0
C9 C 0.11684 0.35957 0.17803 0.0
O10 O 0.13898 0.20131 0.17495 0.0
C11 C 0.0408 0.32362 0.30832 0.0
O12 O 0.11097 0.19579 0.26451 0.0
O13 O 0.05999 0.28994 0.33273 0.0
C14 C 0.38984 0.67558 0.39309 0.0
O15 O 0.36985 0.68583 0.4319 0.0
Cd16 Cd 0.32945 0.73633 0.38262 0.0
O17 O 0.38996 0.69729 0.33031 0.0
Cd18 Cd 0.36266 0.76378 0.24906 0.0
C19 C 0.31572 0.65712 0.22769 0.0
O20 O 0.3392 0.82999 0.33136 0.0
O21 O 0.32442 0.82688 0.21955 0.0
O22 O 0.40403 0.822 0.23857 0.0
C23 C 0.32321 0.85018 0.28072 0.0
O24 O 0.31023 0.67008 0.29147 0.0
C25 C 0.40411 0.81961 0.17074 0.0
O26 O 0.33491 0.68288 0.19648 0.0
O27 O 0.38511 0.78973 0.1386 0.0
C28 C 0.88178 0.79383 0.90052 0.0
O29 O 0.8615 0.78057 0.93719 0.0
Cd30 Cd 0.82643 0.70895 0.90436 0.0
O31 O 0.88531 0.76787 0.84149 0.0
Cd32 Cd 0.86171 0.69044 0.76802 0.0
C33 C 0.80142 0.76438 0.74277 0.0
O34 O 0.84696 0.62221 0.86207 0.0
O35 O 0.83127 0.60821 0.75259 0.0
O36 O 0.90506 0.6434 0.74117 0.0
C37 C 0.8329 0.5911 0.81716 0.0
O38 O 0.79707 0.7491 0.80667 0.0
C39 C 0.90125 0.64766 0.6735 0.0
O40 O 0.82451 0.75424 0.7162 0.0
O41 O 0.87971 0.67467 0.64985 0.0
C42 C 0.55618 0.28726 0.58751 0.0
O43 O 0.57409 0.27627 0.54272 0.0
Cd44 Cd 0.61516 0.22067 0.57319 0.0
O45 O 0.55805 0.26385 0.64951 0.0
Cd46 Cd 0.58759 0.19178 0.71752 0.0
C47 C 0.63812 0.29009 0.73132 0.0
O48 O 0.6072 0.12808 0.62635 0.0
O49 O 0.6291 0.13495 0.73033 0.0
O50 O 0.54801 0.13016 0.73405 0.0
C51 C 0.62722 0.11173 0.66874 0.0
O52 O 0.64046 0.27642 0.66585 0.0
C53 C 0.55008 0.12966 0.80206 0.0
O54 O 0.61847 0.26954 0.76612 0.0
O55 O 0.56963 0.15938 0.8321 0.0
C56 C 0.29258 0.90995 0.35631 0.0
C57 C 0.3042 0.8994 0.29044 0.0
C58 C 0.27288 0.95438 0.36193 0.0
C59 C 0.26506 -0.01065 0.30199 0.0
C60 C 0.27752 -0.02015 0.23729 0.0
C61 C 0.29658 0.935 0.23129 0.0
C62 C 0.24422 0.03652 0.30357 0.0
C63 C 0.22187 0.03486 0.34291 0.0
C64 C 0.19898 0.07756 0.3298 0.0
C65 C 0.17151 0.05935 0.33448 0.0
C66 C 0.14967 0.09536 0.30881 0.0
C67 C 0.1552 0.14971 0.2779 0.0
H68 H 0.22488 0.15128 0.30452 0.0
C69 C 0.18244 0.16981 0.27893 0.0
C70 C 0.20408 0.13459 0.3057 0.0
H71 H 0.18709 0.21221 0.25668 0.0
H72 H 0.29817 0.88297 0.40267 0.0
H73 H 0.26397 0.96148 0.41293 0.0
H74 H 0.27201 0.00643 0.19048 0.0
H75 H 0.30536 0.92815 0.18002 0.0
H76 H 0.24574 0.07066 0.26349 0.0
H77 H 0.21869 -0.00232 0.3777 0.0
H78 H 0.16701 0.01593 0.35378 0.0
H79 H 0.12873 0.07922 0.30876 0.0
C80 C 0.16225 0.40514 0.21052 0.0
C81 C 0.13986 0.39816 0.16013 0.0
C82 C 0.18496 0.43843 0.19431 0.0
C83 C 0.18595 0.46602 0.12728 0.0
C84 C 0.16327 0.4609 0.07741 0.0
C85 C 0.14049 0.42651 0.09332 0.0
C86 C 0.20999 0.50302 0.11208 0.0
C87 C 0.2357 0.48699 0.13542 0.0
C88 C 0.25916 0.52811 0.1467 0.0
C89 C 0.27946 0.51418 0.20077 0.0
C90 C 0.29912 0.55532 0.22379 0.0
C91 C 0.29944 0.61063 0.1917 0.0
H92 H 0.24567 0.59415 0.06827 0.0
C93 C 0.28075 0.62332 0.13354 0.0
C94 C 0.26057 0.58237 0.11125 0.0
H95 H 0.2806 0.6661 0.10855 0.0
H96 H 0.16246 0.38431 0.26269 0.0
H97 H 0.20163 0.44327 0.23504 0.0
H98 H 0.16336 0.48272 0.02592 0.0
H99 H 0.12347 0.42211 0.05357 0.0
H100 H 0.20595 0.54561 0.08804 0.0
H101 H 0.2387 0.44324 0.15751 0.0
H102 H 0.279 0.47268 0.22878 0.0
H103 H 0.3133 0.54491 0.26906 0.0
C104 C 0.64554 0.02905 0.59711 0.0
C105 C 0.6501 0.07576 0.64491 0.0
C106 C 0.66736 -0.00817 0.58172 0.0
C107 C 0.69407 0.00185 0.61284 0.0
C108 C 0.69876 0.0509 0.65658 0.0
C109 C 0.67697 0.08697 0.67327 0.0
C110 C 0.71708 0.95993 0.60666 0.0
C111 C 0.71321 0.90183 0.61017 0.0
C112 C 0.73596 0.86155 0.63368 0.0
C113 C 0.73021 0.81643 0.68135 0.0
C114 C 0.75154 0.78382 0.71496 0.0
C115 C 0.77908 0.79467 0.70027 0.0
H116 H 0.76837 0.90411 0.57787 0.0
C117 C 0.78478 0.83677 0.64839 0.0
C118 C 0.76337 0.87037 0.61567 0.0
H119 H 0.80582 0.84563 0.63568 0.0
H120 H 0.625 0.01991 0.57421 0.0
H121 H 0.66326 0.9548 0.54674 0.0
H122 H 0.71913 0.05972 0.68094 0.0
H123 H 0.68112 0.1233 0.70941 0.0
H124 H 0.73786 -0.02276 0.61411 0.0
H125 H 0.69232 0.88492 0.61007 0.0
H126 H 0.70927 0.8085 0.6958 0.0
H127 H 0.7465 0.75095 0.7539 0.0
C128 C 0.79808 0.54539 0.89307 0.0
C129 C 0.81648 0.54077 0.83822 0.0
C130 C 0.7781 0.50208 0.90124 0.0
C131 C 0.77676 0.45329 0.85535 0.0
C132 C 0.79678 0.44684 0.80483 0.0
C133 C 0.81613 0.49056 0.79553 0.0
C134 C 0.75361 0.41107 0.85207 0.0
C135 C 0.72753 0.42507 0.86603 0.0
C136 C 0.70413 0.39091 0.83315 0.0
C137 C 0.68074 0.3783 0.871 0.0
C138 C 0.65887 0.34594 0.83835 0.0
C139 C 0.6599 0.32715 0.76682 0.0
H140 H 0.72196 0.38435 0.72976 0.0
C141 C 0.68295 0.34209 0.72869 0.0
C142 C 0.7047 0.37337 0.76132 0.0
H143 H 0.68451 0.32899 0.67341 0.0
H144 H 0.79796 0.58413 0.92626 0.0
H145 H 0.76329 0.50781 0.94166 0.0
H146 H 0.79633 0.40963 0.76899 0.0
H147 H 0.83014 0.48625 0.75285 0.0
H148 H 0.75713 0.36994 0.82492 0.0
H149 H 0.72291 0.4651 0.89395 0.0
H150 H 0.67965 0.39244 0.92604 0.0
H151 H 0.64134 0.3354 0.86906 0.0
C152 C 0.0124 0.11607 0.09066 0.0
C153 C 0.03398 0.13396 0.04878 0.0
C154 C -0.00579 0.0719 0.06674 0.0
C155 C -0.00295 0.04478 -9e-05 0.0
C156 C 0.01845 0.0632 0.95793 0.0
C157 C 0.03662 0.10727 0.98183 0.0
C158 C -0.02085 -0.00442 0.97321 0.0
C159 C 0.95425 -0.01681 -0.0023 0.0
C160 C 0.93655 0.93342 0.97161 0.0
C161 C 0.91513 0.91512 0.01361 0.0
C162 C 0.89761 0.86946 -0.00893 0.0
C163 C 0.90097 0.841 0.92556 0.0
H164 H 0.95549 0.91846 0.87044 0.0
C165 C 0.92237 0.85925 0.88333 0.0
C166 C 0.93988 0.90502 0.90581 0.0
H167 H 0.92541 0.83872 0.83222 0.0
H168 H 0.00988 0.1353 0.14278 0.0
H169 H -0.02143 0.0583 0.10197 0.0
H170 H 0.02128 0.04308 0.90644 0.0
H171 H 0.05301 0.11975 0.94813 0.0
H172 H -0.01285 0.96875 0.93143 0.0
H173 H 0.94626 0.01009 0.03943 0.0
H174 H 0.9119 0.93623 0.06427 0.0
H175 H 0.88131 0.85677 0.02495 0.0
C176 C 0.53483 0.0886 0.91819 0.0
C177 C 0.53093 0.09455 0.84339 0.0
C178 C 0.51718 0.05325 0.9561 0.0
C179 C 0.4953 0.02305 0.91975 0.0
C180 C 0.49115 0.03024 0.84528 0.0
C181 C 0.50879 0.06523 0.80749 0.0
C182 C 0.47589 -0.01515 0.95699 0.0
C183 C 0.48183 0.95947 0.02128 0.0
C184 C 0.4621 0.92148 0.05766 0.0
C185 C 0.46454 0.91686 0.13267 0.0
C186 C 0.44599 0.88303 0.16921 0.0
C187 C 0.42471 0.85237 0.13141 0.0
H188 H 0.4393 0.88997 0.9616 0.0
C189 C 0.42279 0.85527 0.05615 0.0
C190 C 0.44129 0.88938 0.01958 0.0
H191 H 0.40677 0.83176 0.02546 0.0
H192 H 0.5516 0.11094 0.94743 0.0
H193 H 0.52063 0.05051 0.01373 0.0
H194 H 0.47434 0.00805 0.8159 0.0
H195 H 0.50511 0.06904 0.7499 0.0
H196 H 0.456 -0.02318 0.92919 0.0
H197 H 0.50158 0.96762 0.04968 0.0
H198 H 0.48055 0.94047 0.16333 0.0
H199 H 0.44816 0.88147 0.22723 0.0
C200 C 0.94113 0.58172 0.65239 0.0
C201 C 0.91972 0.61816 0.62468 0.0
C202 C 0.95668 0.54876 0.6065 0.0
C203 C 0.95111 0.55146 0.53174 0.0
C204 C 0.93056 0.58992 0.50403 0.0
C205 C 0.9149 0.62264 0.54995 0.0
C206 C 0.96634 0.51534 0.48107 0.0
C207 C -0.02223 0.46309 0.49879 0.0
C208 C -0.00722 0.42624 0.44829 0.0
C209 C 0.01181 0.38469 0.47655 0.0
C210 C 0.02693 0.35025 0.4312 0.0
C211 C 0.02315 0.35621 0.35639 0.0
H212 H 0.97313 0.4605 0.34909 0.0
C213 C 0.00339 0.39623 0.32796 0.0
C214 C -0.01169 0.43076 0.3733 0.0
H215 H -0.00019 0.40154 0.27052 0.0
H216 H 0.94551 0.57761 0.70972 0.0
H217 H 0.97303 0.5214 0.62994 0.0
H218 H 0.92609 0.5935 0.44666 0.0
H219 H 0.89863 0.65048 0.52685 0.0
H220 H 0.96738 0.53209 0.42693 0.0
H221 H -0.02345 0.44649 0.55299 0.0
H222 H 0.01543 0.37967 0.53404 0.0
H223 H 0.04193 0.3197 0.45484 0.0
C224 C 0.41083 0.60401 0.48305 0.0
C225 C 0.41237 0.63554 0.4187 0.0
C226 C 0.43109 0.5628 0.50393 0.0
C227 C 0.45333 0.5522 0.46071 0.0
C228 C 0.45532 0.58531 0.39791 0.0
C229 C 0.43506 0.62624 0.37691 0.0
C230 C 0.47495 0.50754 0.47878 0.0
C231 C 0.47142 0.46112 0.52187 0.0
C232 C 0.49299 0.41576 0.53663 0.0
C233 C 0.4933 0.38428 0.60126 0.0
C234 C 0.51354 0.34196 0.61745 0.0
C235 C 0.53375 0.32966 0.56881 0.0
H236 H 0.51258 0.42386 0.43543 0.0
C237 C 0.53289 0.35984 0.50306 0.0
C238 C 0.51274 0.40229 0.48705 0.0
H239 H 0.54797 0.35111 0.46403 0.0
H240 H 0.39373 0.61041 0.51679 0.0
H241 H 0.42921 0.53976 0.55399 0.0
H242 H 0.47236 0.57863 0.36397 0.0
H243 H 0.43703 0.64997 0.32724 0.0
H244 H 0.49433 0.51256 0.45345 0.0
H245 H 0.45228 0.45593 0.54818 0.0
H246 H 0.47812 0.39317 0.63997 0.0
H247 H 0.51347 0.31933 0.66842 0.0
loop_
_geom_bond_atom_site_label_1
_geom_bond_atom_site_label_2
_geom_bond_distance
_geom_bond_site_symmetry_2
_ccdc_geom_bond_type
C0 O1 1.306 . S
C0 O3 1.160 . S
O1 C0 1.306 . S
O1 Cd2 2.228 . S
Cd2 O1 2.228 . S
Cd2 O6 2.273 . S
Cd2 O10 2.277 . S
O3 C0 1.160 . S
O3 Cd4 2.203 . S
Cd4 O3 2.203 . S
Cd4 O6 2.411 . S
Cd4 O7 2.333 . S
Cd4 O8 2.352 . S
Cd4 O12 2.277 . S
Cd4 O13 2.356 . S
C5 O10 1.209 . S
C5 O12 1.226 . S
O6 Cd2 2.273 . S
O6 Cd4 2.411 . S
O6 C9 1.320 . S
O7 Cd4 2.333 . S
O7 C9 1.214 . S
O8 Cd4 2.352 . S
O8 C11 1.258 . S
C9 O6 1.320 . S
C9 O7 1.214 . S
O10 Cd2 2.277 . S
O10 C5 1.209 . S
C11 O8 1.258 . S
C11 O13 1.282 . S
O12 Cd4 2.277 . S
O12 C5 1.226 . S
O13 Cd4 2.356 . S
O13 C11 1.282 . S
C14 O15 1.306 . S
C14 O17 1.160 . S
O15 C14 1.306 . S
O15 Cd16 2.228 . S
Cd16 O15 2.228 . S
Cd16 O20 2.273 . S
Cd16 O24 2.277 . S
O17 C14 1.160 . S
O17 Cd18 2.203 . S
Cd18 O17 2.203 . S
Cd18 O20 2.411 . S
Cd18 O21 2.333 . S
Cd18 O22 2.352 . S
Cd18 O26 2.277 . S
Cd18 O27 2.356 . S
C19 O24 1.209 . S
C19 O26 1.226 . S
O20 Cd16 2.273 . S
O20 Cd18 2.411 . S
O20 C23 1.320 . S
O21 Cd18 2.333 . S
O21 C23 1.214 . S
O22 Cd18 2.352 . S
O22 C25 1.258 . S
C23 O20 1.320 . S
C23 O21 1.214 . S
O24 Cd16 2.277 . S
O24 C19 1.209 . S
C25 O22 1.258 . S
C25 O27 1.282 . S
O26 Cd18 2.277 . S
O26 C19 1.226 . S
O27 Cd18 2.356 . S
O27 C25 1.282 . S
C28 O29 1.306 . S
C28 O31 1.160 . S
O29 C28 1.306 . S
O29 Cd30 2.228 . S
Cd30 O29 2.228 . S
Cd30 O34 2.273 . S
Cd30 O38 2.277 . S
O31 C28 1.160 . S
O31 Cd32 2.203 . S
Cd32 O31 2.203 . S
Cd32 O34 2.411 . S
Cd32 O35 2.333 . S
Cd32 O36 2.352 . S
Cd32 O40 2.277 . S
Cd32 O41 2.356 . S
C33 O38 1.209 . S
C33 O40 1.226 . S
O34 Cd30 2.273 . S
O34 Cd32 2.411 . S
O34 C37 1.320 . S
O35 Cd32 2.333 . S
O35 C37 1.214 . S
O36 Cd32 2.352 . S
O36 C39 1.258 . S
C37 O34 1.320 . S
C37 O35 1.214 . S
O38 Cd30 2.277 . S
O38 C33 1.209 . S
C39 O36 1.258 . S
C39 O41 1.282 . S
O40 Cd32 2.277 . S
O40 C33 1.226 . S
O41 Cd32 2.356 . S
O41 C39 1.282 . S
C42 O43 1.306 . S
C42 O45 1.160 . S
O43 C42 1.306 . S
O43 Cd44 2.228 . S
Cd44 O43 2.228 . S
Cd44 O48 2.273 . S
Cd44 O52 2.277 . S
O45 C42 1.160 . S
O45 Cd46 2.203 . S
Cd46 O45 2.203 . S
Cd46 O48 2.411 . S
Cd46 O49 2.333 . S
Cd46 O50 2.352 . S
Cd46 O54 2.277 . S
Cd46 O55 2.356 . S
C47 O52 1.209 . S
C47 O54 1.226 . S
O48 Cd44 2.273 . S
O48 Cd46 2.411 . S
O48 C51 1.320 . S
O49 Cd46 2.333 . S
O49 C51 1.214 . S
O50 Cd46 2.352 . S
O50 C53 1.258 . S
C51 O48 1.320 . S
C51 O49 1.214 . S
O52 Cd44 2.277 . S
O52 C47 1.209 . S
C53 O50 1.258 . S
C53 O55 1.282 . S
O54 Cd46 2.277 . S
O54 C47 1.226 . S
O55 Cd46 2.356 . S
O55 C53 1.282 . S
C56 C57 1.386 . S
C56 C58 1.383 . S
C56 H72 0.951 . S
C57 C56 1.386 . S
C57 C61 1.383 . S
C58 C56 1.383 . S
C58 C59 1.402 . S
C58 H73 0.951 . S
C59 C58 1.402 . S
C59 C60 1.375 . S
C59 C62 1.481 1_565 S
C60 C59 1.375 . S
C60 C61 1.367 . S
C60 H74 0.951 1_565 S
C61 C57 1.383 . S
C61 C60 1.367 . S
C61 H75 0.950 . S
C62 C59 1.481 1_545 S
C62 C63 1.297 . S
C62 H76 0.950 . S
C63 C62 1.297 . S
C63 C64 1.479 . S
C63 H77 0.950 1_545 S
C64 C63 1.479 . S
C64 C65 1.375 . S
C64 C70 1.404 . S
C65 C64 1.375 . S
C65 C66 1.369 . S
C65 H78 0.950 1_545 S
C66 C65 1.369 . S
C66 C67 1.392 . S
C66 H79 0.951 . S
C67 C66 1.392 . S
C67 C69 1.384 . S
H68 C70 0.949 . S
C69 C67 1.384 . S
C69 C70 1.385 . S
C69 H71 0.950 . S
C70 C64 1.404 . S
C70 H68 0.949 . S
C70 C69 1.385 . S
H71 C69 0.950 . S
H72 C56 0.951 . S
H73 C58 0.951 . S
H74 C60 0.951 1_545 S
H75 C61 0.950 . S
H76 C62 0.950 . S
H77 C63 0.950 1_565 S
H78 C65 0.950 1_565 S
H79 C66 0.951 . S
C80 C81 1.386 . S
C80 C82 1.383 . S
C80 H96 0.951 . S
C81 C80 1.386 . S
C81 C85 1.383 . S
C82 C80 1.383 . S
C82 C83 1.402 . S
C82 H97 0.951 . S
C83 C82 1.402 . S
C83 C84 1.375 . S
C83 C86 1.481 . S
C84 C83 1.375 . S
C84 C85 1.367 . S
C84 H98 0.951 . S
C85 C81 1.383 . S
C85 C84 1.367 . S
C85 H99 0.950 . S
C86 C83 1.481 . S
C86 C87 1.297 . S
C86 H100 0.950 . S
C87 C86 1.297 . S
C87 C88 1.479 . S
C87 H101 0.950 . S
C88 C87 1.479 . S
C88 C89 1.375 . S
C88 C94 1.404 . S
C89 C88 1.375 . S
C89 C90 1.369 . S
C89 H102 0.950 . S
C90 C89 1.369 . S
C90 C91 1.392 . S
C90 H103 0.951 . S
C91 C90 1.392 . S
C91 C93 1.384 . S
H92 C94 0.949 . S
C93 C91 1.384 . S
C93 C94 1.385 . S
C93 H95 0.950 . S
C94 C88 1.404 . S
C94 H92 0.949 . S
C94 C93 1.385 . S
H95 C93 0.950 . S
H96 C80 0.951 . S
H97 C82 0.951 . S
H98 C84 0.951 . S
H99 C85 0.950 . S
H100 C86 0.950 . S
H101 C87 0.950 . S
H102 C89 0.950 . S
H103 C90 0.951 . S
C104 C105 1.386 . S
C104 C106 1.383 . S
C104 H120 0.951 . S
C105 C104 1.386 . S
C105 C109 1.383 . S
C106 C104 1.383 . S
C106 C107 1.402 . S
C106 H121 0.951 . S
C107 C106 1.402 . S
C107 C108 1.375 . S
C107 C110 1.481 . S
C108 C107 1.375 . S
C108 C109 1.367 . S
C108 H122 0.951 . S
C109 C105 1.383 . S
C109 C108 1.367 . S
C109 H123 0.950 . S
C110 C107 1.481 . S
C110 C111 1.297 . S
C110 H124 0.950 . S
C111 C110 1.297 . S
C111 C112 1.479 1_545 S
C111 H125 0.950 . S
C112 C111 1.479 1_565 S
C112 C113 1.375 . S
C112 C118 1.404 . S
C113 C112 1.375 . S
C113 C114 1.369 . S
C113 H126 0.950 . S
C114 C113 1.369 . S
C114 C115 1.392 . S
C114 H127 0.951 . S
C115 C114 1.392 . S
C115 C117 1.384 . S
H116 C118 0.949 . S
C117 C115 1.384 . S
C117 C118 1.385 . S
C117 H119 0.950 . S
C118 C112 1.404 . S
C118 H116 0.949 . S
C118 C117 1.385 . S
H119 C117 0.950 . S
H120 C104 0.951 . S
H121 C106 0.951 . S
H122 C108 0.951 . S
H123 C109 0.950 . S
H124 C110 0.950 . S
H125 C111 0.950 . S
H126 C113 0.950 . S
H127 C114 0.951 . S
C128 C129 1.386 . S
C128 C130 1.383 . S
C128 H144 0.951 . S
C129 C128 1.386 . S
C129 C133 1.383 . S
C130 C128 1.383 . S
C130 C131 1.402 . S
C130 H145 0.951 . S
C131 C130 1.402 . S
C131 C132 1.375 . S
C131 C134 1.481 . S
C132 C131 1.375 . S
C132 C133 1.367 . S
C132 H146 0.951 . S
C133 C129 1.383 . S
C133 C132 1.367 . S
C133 H147 0.950 . S
C134 C131 1.481 . S
C134 C135 1.297 . S
C134 H148 0.950 . S
C135 C134 1.297 . S
C135 C136 1.479 . S
C135 H149 0.950 . S
C136 C135 1.479 . S
C136 C137 1.375 . S
C136 C142 1.404 . S
C137 C136 1.375 . S
C137 C138 1.369 . S
C137 H150 0.950 . S
C138 C137 1.369 . S
C138 C139 1.392 . S
C138 H151 0.951 . S
C139 C138 1.392 . S
C139 C141 1.384 . S
H140 C142 0.949 . S
C141 C139 1.384 . S
C141 C142 1.385 . S
C141 H143 0.950 . S
C142 C136 1.404 . S
C142 H140 0.949 . S
C142 C141 1.385 . S
H143 C141 0.950 . S
H144 C128 0.951 . S
H145 C130 0.951 . S
H146 C132 0.951 . S
H147 C133 0.950 . S
H148 C134 0.950 . S
H149 C135 0.950 . S
H150 C137 0.950 . S
H151 C138 0.951 . S
C152 C153 1.386 . S
C152 C154 1.383 . S
C152 H168 0.951 . S
C153 C152 1.386 . S
C153 C157 1.383 . S
C154 C152 1.383 . S
C154 C155 1.402 . S
C154 H169 0.951 1_455 S
C155 C154 1.402 . S
C155 C156 1.375 . S
C155 C158 1.481 1_554 S
C156 C155 1.375 . S
C156 C157 1.367 . S
C156 H170 0.951 1_554 S
C157 C153 1.383 . S
C157 C156 1.367 . S
C157 H171 0.950 . S
C158 C155 1.481 1_556 S
C158 C159 1.297 1_455 S
C158 H172 0.950 1_545 S
C159 C158 1.297 1_655 S
C159 C160 1.479 1_545 S
C159 H173 0.950 1_556 S
C160 C159 1.479 1_565 S
C160 C161 1.375 . S
C160 C166 1.404 . S
C161 C160 1.375 . S
C161 C162 1.369 . S
C161 H174 0.950 . S
C162 C161 1.369 . S
C162 C163 1.392 . S
C162 H175 0.951 . S
C163 C162 1.392 . S
C163 C165 1.384 . S
H164 C166 0.949 . S
C165 C163 1.384 . S
C165 C166 1.385 . S
C165 H167 0.950 . S
C166 C160 1.404 . S
C166 H164 0.949 . S
C166 C165 1.385 . S
H167 C165 0.950 . S
H168 C152 0.951 . S
H169 C154 0.951 1_655 S
H170 C156 0.951 1_556 S
H171 C157 0.950 . S
H172 C158 0.950 1_565 S
H173 C159 0.950 1_554 S
H174 C161 0.950 . S
H175 C162 0.951 . S
C176 C177 1.386 . S
C176 C178 1.383 . S
C176 H192 0.951 . S
C177 C176 1.386 . S
C177 C181 1.383 . S
C178 C176 1.383 . S
C178 C179 1.402 . S
C178 H193 0.951 1_556 S
C179 C178 1.402 . S
C179 C180 1.375 . S
C179 C182 1.481 . S
C180 C179 1.375 . S
C180 C181 1.367 . S
C180 H194 0.951 . S
C181 C177 1.383 . S
C181 C180 1.367 . S
C181 H195 0.950 . S
C182 C179 1.481 . S
C182 C183 1.297 1_546 S
C182 H196 0.950 . S
C183 C182 1.297 1_564 S
C183 C184 1.479 . S
C183 H197 0.950 . S
C184 C183 1.479 . S
C184 C185 1.375 . S
C184 C190 1.404 . S
C185 C184 1.375 . S
C185 C186 1.369 . S
C185 H198 0.950 . S
C186 C185 1.369 . S
C186 C187 1.392 . S
C186 H199 0.951 . S
C187 C186 1.392 . S
C187 C189 1.384 . S
H188 C190 0.949 . S
C189 C187 1.384 . S
C189 C190 1.385 . S
C189 H191 0.950 . S
C190 C184 1.404 . S
C190 H188 0.949 . S
C190 C189 1.385 . S
H191 C189 0.950 . S
H192 C176 0.951 . S
H193 C178 0.951 1_554 S
H194 C180 0.951 . S
H195 C181 0.950 . S
H196 C182 0.950 . S
H197 C183 0.950 . S
H198 C185 0.950 . S
H199 C186 0.951 . S
C200 C201 1.386 . S
C200 C202 1.383 . S
C200 H216 0.951 . S
C201 C200 1.386 . S
C201 C205 1.383 . S
C202 C200 1.383 . S
C202 C203 1.402 . S
C202 H217 0.951 . S
C203 C202 1.402 . S
C203 C204 1.375 . S
C203 C206 1.481 . S
C204 C203 1.375 . S
C204 C205 1.367 . S
C204 H218 0.951 . S
C205 C201 1.383 . S
C205 C204 1.367 . S
C205 H219 0.950 . S
C206 C203 1.481 . S
C206 C207 1.297 . S
C206 H220 0.950 . S
C207 C206 1.297 . S
C207 C208 1.479 1_655 S
C207 H221 0.950 . S
C208 C207 1.479 1_455 S
C208 C209 1.375 . S
C208 C214 1.404 . S
C209 C208 1.375 . S
C209 C210 1.369 . S
C209 H222 0.950 . S
C210 C209 1.369 . S
C210 C211 1.392 . S
C210 H223 0.951 . S
C211 C210 1.392 . S
C211 C213 1.384 . S
H212 C214 0.949 . S
C213 C211 1.384 . S
C213 C214 1.385 . S
C213 H215 0.950 . S
C214 C208 1.404 . S
C214 H212 0.949 . S
C214 C213 1.385 . S
H215 C213 0.950 . S
H216 C200 0.951 . S
H217 C202 0.951 . S
H218 C204 0.951 . S
H219 C205 0.950 . S
H220 C206 0.950 . S
H221 C207 0.950 . S
H222 C209 0.950 . S
H223 C210 0.951 . S
C224 C225 1.386 . S
C224 C226 1.383 . S
C224 H240 0.951 . S
C225 C224 1.386 . S
C225 C229 1.383 . S
C226 C224 1.383 . S
C226 C227 1.402 . S
C226 H241 0.951 . S
C227 C226 1.402 . S
C227 C228 1.375 . S
C227 C230 1.481 . S
C228 C227 1.375 . S
C228 C229 1.367 . S
C228 H242 0.951 . S
C229 C225 1.383 . S
C229 C228 1.367 . S
C229 H243 0.950 . S
C230 C227 1.481 . S
C230 C231 1.297 . S
C230 H244 0.950 . S
C231 C230 1.297 . S
C231 C232 1.479 . S
C231 H245 0.950 . S
C232 C231 1.479 . S
C232 C233 1.375 . S
C232 C238 1.404 . S
C233 C232 1.375 . S
C233 C234 1.369 . S
C233 H246 0.950 . S
C234 C233 1.369 . S
C234 C235 1.392 . S
C234 H247 0.951 . S
C235 C234 1.392 . S
C235 C237 1.384 . S
H236 C238 0.949 . S
C237 C235 1.384 . S
C237 C238 1.385 . S
C237 H239 0.950 . S
C238 C232 1.404 . S
C238 H236 0.949 . S
C238 C237 1.385 . S
H239 C237 0.950 . S
H240 C224 0.951 . S
H241 C226 0.951 . S
H242 C228 0.951 . S
H243 C229 0.950 . S
H244 C230 0.950 . S
H245 C231 0.950 . S
H246 C233 0.950 . S
H247 C234 0.951 . S
C57 C23 0.957 . S
C67 C5 0.957 . S
C81 C9 0.925 . S
C91 C19 0.914 . S
C105 C51 0.920 . S
C115 C33 0.985 . S
C129 C37 0.920 . S
C139 C47 0.985 . S
C153 C0 1.516 . S
C163 C28 1.481 . S
C177 C53 1.542 . S
C187 C25 1.503 . S
C201 C39 1.533 . S
C211 C11 1.537 . S
C225 C14 1.498 . S
C235 C42 1.525 . S
