# Generated by pormake.
# Topology vme, (6)-cn, num edge types: 1
# Building blocks:
#     Node 0, Type 0, BuildingBlock: VOLQOD_clean_sbu_1, # of connection points: 6
#     Node 1, Type 0, BuildingBlock: VOLQOD_clean_sbu_1, # of connection points: 6
#     Node 2, Type 0, BuildingBlock: VOLQOD_clean_sbu_1, # of connection points: 6
#     Node 3, Type 0, BuildingBlock: VOLQOD_clean_sbu_1, # of connection points: 6
#     Edge 4, Type (0, 0), BuildingBlock: OJICUG_clean_linker_0, # of connection points: 2
#     Edge 5, Type (0, 0), BuildingBlock: OJICUG_clean_linker_0, # of connection points: 2
#     Edge 6, Type (0, 0), BuildingBlock: OJICUG_clean_linker_0, # of connection points: 2
#     Edge 7, Type (0, 0), BuildingBlock: OJICUG_clean_linker_0, # of connection points: 2
#     Edge 8, Type (0, 0), BuildingBlock: OJICUG_clean_linker_0, # of connection points: 2
#     Edge 9, Type (0, 0), BuildingBlock: OJICUG_clean_linker_0, # of connection points: 2
#     Edge 10, Type (0, 0), BuildingBlock: OJICUG_clean_linker_0, # of connection points: 2
#     Edge 11, Type (0, 0), BuildingBlock: OJICUG_clean_linker_0, # of connection points: 2
#     Edge 12, Type (0, 0), BuildingBlock: OJICUG_clean_linker_0, # of connection points: 2
#     Edge 13, Type (0, 0), BuildingBlock: OJICUG_clean_linker_0, # of connection points: 2
#     Edge 14, Type (0, 0), BuildingBlock: OJICUG_clean_linker_0, # of connection points: 2
#     Edge 15, Type (0, 0), BuildingBlock: OJICUG_clean_linker_0, # of connection points: 2
# Relax obj value: 0.302
# Max RMSD: 0.247
# Mean RMSD: 0.247
data_MOF--net-vme--node1-VOLQOD_clean_sbu_1--edge1-OJICUG_clean_linker_0
_symmetry_space_group_name_H-M    P1
_symmetry_Int_Tables_number       1
_symmetry_cell_setting            triclinic
loop_
_symmetry_equiv_pos_as_xyz
'x, y, z'
_cell_length_a     20.86988
_cell_length_b     20.887809
_cell_length_c     21.973449
_cell_angle_alpha  89.987677
_cell_angle_beta   115.19206
_cell_angle_gamma 90.008874
loop_
_atom_site_label
_atom_site_type_symbol
_atom_site_fract_x
_atom_site_fract_y
_atom_site_fract_z
_atom_type_partial_charge
O0 O 0.05371 0.3908 0.40796 0.0
Zn1 Zn 0.08322 0.36303 0.33733 0.0
O2 O 0.18464 0.36293 0.37486 0.0
Zn3 Zn 0.22183 0.27793 0.38049 0.0
Zn4 Zn 0.22005 0.40347 0.46059 0.0
Zn5 Zn 0.21468 0.41778 0.3232 0.0
O6 O 0.26987 0.27385 0.31499 0.0
O7 O 0.2308 0.36437 0.25632 0.0
O8 O 0.04153 0.27427 0.30759 0.0
O9 O 0.13978 0.21573 0.3451 0.0
O10 O 0.27596 0.25173 0.4811 0.0
O11 O 0.24998 0.33606 0.52849 0.0
O12 O 0.30926 0.45233 0.48155 0.0
O13 O 0.04319 0.4346 0.26928 0.0
O14 O 0.31061 0.45368 0.38149 0.0
O15 O 0.14099 0.48752 0.28292 0.0
C16 C 0.08012 0.43368 0.45289 0.0
C17 C 0.26098 0.30987 0.26446 0.0
C18 C 0.27498 0.28003 0.53257 0.0
C19 C 0.0724 0.2199 0.31804 0.0
C20 C 0.34071 0.46433 0.44443 0.0
C21 C 0.07375 0.48509 0.26184 0.0
O22 O 0.14394 0.45243 0.47246 0.0
O23 O 0.92782 0.89078 0.10712 0.0
Zn24 Zn 0.89831 0.86302 0.17776 0.0
O25 O 0.79689 0.8629 0.14021 0.0
Zn26 Zn 0.75971 0.7779 0.13459 0.0
Zn27 Zn 0.76148 0.90343 0.05446 0.0
Zn28 Zn 0.76687 0.91775 0.19184 0.0
O29 O 0.71164 0.77381 0.20007 0.0
O30 O 0.75071 0.86433 0.25872 0.0
O31 O 0.94001 0.77427 0.20752 0.0
O32 O 0.84177 0.71571 0.17002 0.0
O33 O 0.70562 0.75168 0.03399 0.0
O34 O 0.73158 0.83602 0.98657 0.0
O35 O 0.67227 0.95227 0.03348 0.0
O36 O 0.93835 0.93459 0.24577 0.0
O37 O 0.67095 0.95367 0.13356 0.0
O38 O 0.84056 0.98749 0.23214 0.0
C39 C 0.90141 0.93367 0.06218 0.0
C40 C 0.72053 0.80983 0.25059 0.0
C41 C 0.70661 0.77998 0.98252 0.0
C42 C 0.90915 0.71989 0.19708 0.0
C43 C 0.64084 0.96429 0.07061 0.0
C44 C 0.9078 0.98507 0.25322 0.0
O45 O 0.83759 0.95241 0.0426 0.0
O46 O 0.92783 0.59118 0.60708 0.0
Zn47 Zn 0.89833 0.61893 0.67773 0.0
O48 O 0.79691 0.61902 0.64021 0.0
Zn49 Zn 0.75973 0.70402 0.63459 0.0
Zn50 Zn 0.76149 0.57849 0.55447 0.0
Zn51 Zn 0.76689 0.56417 0.69187 0.0
O52 O 0.71169 0.7081 0.70009 0.0
O53 O 0.75076 0.61757 0.75876 0.0
O54 O 0.94002 0.70768 0.70748 0.0
O55 O 0.84178 0.76623 0.66999 0.0
O56 O 0.70559 0.73023 0.53398 0.0
O57 O 0.73155 0.64591 0.48657 0.0
O58 O 0.6723 0.52962 0.53353 0.0
O59 O 0.93837 0.54735 0.74576 0.0
O60 O 0.67095 0.52826 0.63359 0.0
O61 O 0.84058 0.49444 0.73215 0.0
C62 C 0.90142 0.5483 0.56215 0.0
C63 C 0.72059 0.67207 0.75062 0.0
C64 C 0.70656 0.70193 0.48251 0.0
C65 C 0.90916 0.76206 0.69704 0.0
C66 C 0.64085 0.51762 0.57065 0.0
C67 C 0.90782 0.49686 0.75322 0.0
O68 O 0.8376 0.52955 0.54258 0.0
O69 O 0.05376 0.09119 0.908 0.0
Zn70 Zn 0.08326 0.11894 0.83735 0.0
O71 O 0.18468 0.11905 0.87489 0.0
Zn72 Zn 0.22186 0.20406 0.8805 0.0
Zn73 Zn 0.22009 0.07852 0.96063 0.0
Zn74 Zn 0.21469 0.06421 0.82324 0.0
O75 O 0.26992 0.20815 0.81502 0.0
O76 O 0.23084 0.11762 0.75637 0.0
O77 O 0.04156 0.20768 0.80757 0.0
O78 O 0.1398 0.26625 0.84507 0.0
O79 O 0.27595 0.23027 0.9811 0.0
O80 O 0.25 0.14593 0.02852 0.0
O81 O 0.30929 0.02967 0.9816 0.0
O82 O 0.04321 0.04736 0.76934 0.0
O83 O 0.31061 0.02828 0.88152 0.0
O84 O 0.141 -0.00553 0.78295 0.0
C85 C 0.08016 0.0483 0.95294 0.0
C86 C 0.26103 0.17212 0.7645 0.0
C87 C 0.27497 0.20197 0.03258 0.0
C88 C 0.07242 0.26206 0.81801 0.0
C89 C 0.34072 0.01765 0.94447 0.0
C90 C 0.07376 -0.00312 0.76188 0.0
O91 O 0.14398 0.02955 0.97251 0.0
C92 C 0.91692 0.10464 0.26952 0.0
C93 C 0.95031 0.04472 0.27668 0.0
H94 H 0.92865 0.20674 0.27569 0.0
C95 C 0.02419 0.0432 0.29858 0.0
H96 H 0.86006 0.10782 0.25216 0.0
C97 C 0.0634 0.09993 0.31152 0.0
C98 C 0.02988 0.15991 0.30271 0.0
H99 H 0.05182 -0.00189 0.30434 0.0
H100 H 0.12011 0.09661 0.32785 0.0
C101 C 0.95619 0.16152 0.28222 0.0
C102 C 0.95736 0.5432 0.2165 0.0
C103 C 0.03124 0.54473 0.23839 0.0
H104 H 0.86143 0.59659 0.18726 0.0
C105 C 0.06462 0.60466 0.24557 0.0
H106 H 0.92973 0.49811 0.21074 0.0
C107 C 0.02536 0.66153 0.23289 0.0
C108 C 0.95167 0.65991 0.2124 0.0
H109 H 0.12149 0.60786 0.26291 0.0
H110 H 0.05289 0.70676 0.23942 0.0
C111 C 0.91815 0.59992 0.20358 0.0
C112 C 0.95737 0.93875 0.71654 0.0
C113 C 0.03125 0.93724 0.73841 0.0
H114 H 0.86145 0.88534 0.68728 0.0
C115 C 0.06463 0.87732 0.74555 0.0
H116 H 0.92975 0.98384 0.7108 0.0
C117 C 0.02536 0.82044 0.73285 0.0
C118 C 0.95168 0.82205 0.71237 0.0
H119 H 0.12149 0.87414 0.76289 0.0
H120 H 0.0529 0.77522 0.73935 0.0
C121 C 0.91816 0.88202 0.70359 0.0
C122 C 0.91695 0.3773 0.76952 0.0
C123 C 0.95034 0.43722 0.77667 0.0
H124 H 0.92868 0.2752 0.77569 0.0
C125 C 0.02421 0.43875 0.79854 0.0
H126 H 0.86009 0.3741 0.75218 0.0
C127 C 0.06342 0.38203 0.81148 0.0
C128 C 0.0299 0.32205 0.80268 0.0
H129 H 0.05184 0.48384 0.80429 0.0
H130 H 0.12013 0.38536 0.82778 0.0
C131 C 0.95622 0.32042 0.78221 0.0
C132 C 0.01774 0.53866 0.55642 0.0
C133 C 0.94679 0.51921 0.53372 0.0
H134 H 0.11571 0.52673 0.54886 0.0
C135 C 0.9202 0.4713 0.48457 0.0
H136 H 0.03989 0.57546 0.59443 0.0
C137 C 0.96379 0.44334 0.45859 0.0
C138 C 0.03475 0.46279 0.4813 0.0
H139 H 0.86582 0.45527 0.46615 0.0
H140 H 0.94164 0.40654 0.42059 0.0
C141 C 0.06133 0.5107 0.53045 0.0
C142 C 0.01775 0.94332 0.05648 0.0
C143 C 0.9468 0.96278 0.03377 0.0
H144 H 0.11573 0.95524 0.04893 0.0
C145 C 0.92024 0.0107 0.98461 0.0
H146 H 0.03989 0.90651 0.09449 0.0
C147 C 0.96383 0.03866 0.95865 0.0
C148 C 0.03478 0.0192 0.98135 0.0
H149 H 0.86585 0.02674 0.9662 0.0
H150 H 0.9417 0.07548 0.92064 0.0
C151 C 0.06134 0.97128 0.03051 0.0
C152 C 0.2746 0.30007 0.09777 0.0
C153 C 0.29272 0.2356 0.097 0.0
H154 H 0.25031 0.37428 0.15161 0.0
C155 C 0.31194 0.19903 0.1561 0.0
H156 H 0.25906 0.32925 0.05297 0.0
C157 C 0.30601 0.22426 0.21236 0.0
C158 C 0.28081 0.28674 0.21081 0.0
H159 H 0.32661 0.14914 0.1571 0.0
H160 H 0.31701 0.19346 0.25533 0.0
C161 C 0.26866 0.32542 0.15418 0.0
C162 C 0.71282 0.82539 0.36084 0.0
C163 C 0.70068 0.78671 0.30424 0.0
H164 H 0.72242 0.82924 0.46204 0.0
C165 C 0.67549 0.72422 0.30272 0.0
H166 H 0.73116 0.87425 0.36338 0.0
C167 C 0.66955 0.69899 0.35899 0.0
C168 C 0.68877 0.73557 0.41807 0.0
H169 H 0.66449 0.69341 0.25977 0.0
H170 H 0.6549 0.6491 0.35801 0.0
C171 C 0.70687 0.80005 0.41726 0.0
C172 C 0.70699 0.68188 0.91732 0.0
C173 C 0.68886 0.74635 0.9181 0.0
H174 H 0.73128 0.60767 0.86348 0.0
C175 C 0.66964 0.78292 0.85899 0.0
H176 H 0.72253 0.6527 0.96212 0.0
C177 C 0.67557 0.75769 0.80273 0.0
C178 C 0.70077 0.6952 0.80428 0.0
H179 H 0.65496 0.83281 0.85799 0.0
H180 H 0.66455 0.78849 0.75976 0.0
C181 C 0.71292 0.65653 0.86091 0.0
C182 C 0.30605 0.25775 0.71236 0.0
C183 C 0.28087 0.19526 0.71084 0.0
H184 H 0.32663 0.33288 0.65707 0.0
C185 C 0.26873 0.15657 0.65424 0.0
H186 H 0.31706 0.28855 0.75532 0.0
C187 C 0.27467 0.18192 0.59781 0.0
C188 C 0.29276 0.2464 0.59701 0.0
H189 H 0.2504 0.10771 0.6517 0.0
H190 H 0.25912 0.15273 0.55303 0.0
C191 C 0.31198 0.28298 0.65609 0.0
C192 C 0.45301 0.48614 0.54676 0.0
C193 C 0.4167 0.48154 0.47636 0.0
H194 H 0.55231 0.49949 0.63184 0.0
C195 C 0.45534 0.48653 0.43752 0.0
H196 H 0.42508 0.4818 0.57832 0.0
C197 C 0.52855 0.49579 0.46832 0.0
C198 C 0.56486 0.5004 0.53872 0.0
H199 H 0.42926 0.48245 0.38324 0.0
H200 H 0.55648 0.50014 0.43676 0.0
C201 C 0.52622 0.49541 0.57756 0.0
C202 C 0.45531 -0.00462 0.93751 0.0
C203 C 0.41671 0.00042 0.97638 0.0
H204 H 0.55642 0.98172 0.93671 0.0
C205 C 0.45304 -0.00416 0.04678 0.0
H206 H 0.4292 -0.00056 0.88323 0.0
C207 C 0.52625 0.98655 0.07756 0.0
C208 C 0.56485 0.98152 0.03869 0.0
H209 H 0.42514 0.00021 0.07836 0.0
H210 H 0.55235 0.9825 0.13184 0.0
C211 C 0.52852 0.9861 0.9683 0.0
loop_
_geom_bond_atom_site_label_1
_geom_bond_atom_site_label_2
_geom_bond_distance
_geom_bond_site_symmetry_2
_ccdc_geom_bond_type
O0 Zn1 1.953 . S
O0 C16 1.225 . S
Zn1 O0 1.953 . S
Zn1 O2 1.949 . S
Zn1 O8 1.919 . S
Zn1 O13 1.924 . S
O2 Zn1 1.949 . S
O2 Zn3 1.923 . S
O2 Zn4 1.950 . S
O2 Zn5 1.945 . S
Zn3 O2 1.923 . S
Zn3 O6 1.933 . S
Zn3 O9 1.941 . S
Zn3 O10 1.965 . S
Zn4 O2 1.950 . S
Zn4 O11 1.938 . S
Zn4 O12 1.906 . S
Zn4 O22 1.953 . S
Zn5 O2 1.945 . S
Zn5 O7 1.932 . S
Zn5 O14 1.977 . S
Zn5 O15 1.910 . S
O6 Zn3 1.933 . S
O6 C17 1.226 . S
O7 Zn5 1.932 . S
O7 C17 1.307 . S
O8 Zn1 1.919 . S
O8 C19 1.253 . S
O9 Zn3 1.941 . S
O9 C19 1.283 . S
O10 Zn3 1.965 . S
O10 C18 1.303 . S
O11 Zn4 1.938 . S
O11 C18 1.247 . S
O12 Zn4 1.906 . S
O12 C20 1.304 . S
O13 Zn1 1.924 . S
O13 C21 1.311 . S
O14 Zn5 1.977 . S
O14 C20 1.272 . S
O15 Zn5 1.910 . S
O15 C21 1.231 . S
C16 O0 1.225 . S
C16 O22 1.298 . S
C17 O6 1.226 . S
C17 O7 1.307 . S
C18 O10 1.303 . S
C18 O11 1.247 . S
C19 O8 1.253 . S
C19 O9 1.283 . S
C20 O12 1.304 . S
C20 O14 1.272 . S
C21 O13 1.311 . S
C21 O15 1.231 . S
O22 Zn4 1.953 . S
O22 C16 1.298 . S
O23 Zn24 1.953 . S
O23 C39 1.225 . S
Zn24 O23 1.953 . S
Zn24 O25 1.949 . S
Zn24 O31 1.919 . S
Zn24 O36 1.924 . S
O25 Zn24 1.949 . S
O25 Zn26 1.923 . S
O25 Zn27 1.950 . S
O25 Zn28 1.945 . S
Zn26 O25 1.923 . S
Zn26 O29 1.933 . S
Zn26 O32 1.941 . S
Zn26 O33 1.965 . S
Zn27 O25 1.950 . S
Zn27 O34 1.938 1_554 S
Zn27 O35 1.906 . S
Zn27 O45 1.953 1_554 S
Zn28 O25 1.945 . S
Zn28 O30 1.932 . S
Zn28 O37 1.977 . S
Zn28 O38 1.910 . S
O29 Zn26 1.933 . S
O29 C40 1.226 . S
O30 Zn28 1.932 . S
O30 C40 1.307 . S
O31 Zn24 1.919 . S
O31 C42 1.253 . S
O32 Zn26 1.941 . S
O32 C42 1.283 . S
O33 Zn26 1.965 . S
O33 C41 1.303 1_554 S
O34 Zn27 1.938 1_556 S
O34 C41 1.247 . S
O35 Zn27 1.906 . S
O35 C43 1.304 . S
O36 Zn24 1.924 . S
O36 C44 1.311 1_565 S
O37 Zn28 1.977 . S
O37 C43 1.272 . S
O38 Zn28 1.910 . S
O38 C44 1.231 1_565 S
C39 O23 1.225 . S
C39 O45 1.298 1_554 S
C40 O29 1.226 . S
C40 O30 1.307 . S
C41 O33 1.303 1_556 S
C41 O34 1.247 . S
C42 O31 1.253 . S
C42 O32 1.283 . S
C43 O35 1.304 . S
C43 O37 1.272 . S
C44 O36 1.311 1_545 S
C44 O38 1.231 1_545 S
O45 Zn27 1.953 1_556 S
O45 C39 1.298 1_556 S
O46 Zn47 1.953 . S
O46 C62 1.225 . S
Zn47 O46 1.953 . S
Zn47 O48 1.949 . S
Zn47 O54 1.919 . S
Zn47 O59 1.924 . S
O48 Zn47 1.949 . S
O48 Zn49 1.923 . S
O48 Zn50 1.950 . S
O48 Zn51 1.945 . S
Zn49 O48 1.923 . S
Zn49 O52 1.933 . S
Zn49 O55 1.941 . S
Zn49 O56 1.965 . S
Zn50 O48 1.950 . S
Zn50 O57 1.938 . S
Zn50 O58 1.906 . S
Zn50 O68 1.953 . S
Zn51 O48 1.945 . S
Zn51 O53 1.932 . S
Zn51 O60 1.977 . S
Zn51 O61 1.910 . S
O52 Zn49 1.933 . S
O52 C63 1.226 . S
O53 Zn51 1.932 . S
O53 C63 1.307 . S
O54 Zn47 1.919 . S
O54 C65 1.253 . S
O55 Zn49 1.941 . S
O55 C65 1.283 . S
O56 Zn49 1.965 . S
O56 C64 1.303 . S
O57 Zn50 1.938 . S
O57 C64 1.247 . S
O58 Zn50 1.906 . S
O58 C66 1.304 . S
O59 Zn47 1.924 . S
O59 C67 1.311 . S
O60 Zn51 1.977 . S
O60 C66 1.272 . S
O61 Zn51 1.910 . S
O61 C67 1.231 . S
C62 O46 1.225 . S
C62 O68 1.298 . S
C63 O52 1.226 . S
C63 O53 1.307 . S
C64 O56 1.303 . S
C64 O57 1.247 . S
C65 O54 1.253 . S
C65 O55 1.283 . S
C66 O58 1.304 . S
C66 O60 1.272 . S
C67 O59 1.311 . S
C67 O61 1.231 . S
O68 Zn50 1.953 . S
O68 C62 1.298 . S
O69 Zn70 1.953 . S
O69 C85 1.225 . S
Zn70 O69 1.953 . S
Zn70 O71 1.949 . S
Zn70 O77 1.919 . S
Zn70 O82 1.924 . S
O71 Zn70 1.949 . S
O71 Zn72 1.923 . S
O71 Zn73 1.950 . S
O71 Zn74 1.945 . S
Zn72 O71 1.923 . S
Zn72 O75 1.933 . S
Zn72 O78 1.941 . S
Zn72 O79 1.965 . S
Zn73 O71 1.950 . S
Zn73 O80 1.938 1_556 S
Zn73 O81 1.906 . S
Zn73 O91 1.953 1_556 S
Zn74 O71 1.945 . S
Zn74 O76 1.932 . S
Zn74 O83 1.977 . S
Zn74 O84 1.910 . S
O75 Zn72 1.933 . S
O75 C86 1.226 . S
O76 Zn74 1.932 . S
O76 C86 1.307 . S
O77 Zn70 1.919 . S
O77 C88 1.253 . S
O78 Zn72 1.941 . S
O78 C88 1.283 . S
O79 Zn72 1.965 . S
O79 C87 1.303 1_556 S
O80 Zn73 1.938 1_554 S
O80 C87 1.247 . S
O81 Zn73 1.906 . S
O81 C89 1.304 . S
O82 Zn70 1.924 . S
O82 C90 1.311 1_545 S
O83 Zn74 1.977 . S
O83 C89 1.272 . S
O84 Zn74 1.910 . S
O84 C90 1.231 1_545 S
C85 O69 1.225 . S
C85 O91 1.298 1_556 S
C86 O75 1.226 . S
C86 O76 1.307 . S
C87 O79 1.303 1_554 S
C87 O80 1.247 . S
C88 O77 1.253 . S
C88 O78 1.283 . S
C89 O81 1.304 . S
C89 O83 1.272 . S
C90 O82 1.311 1_565 S
C90 O84 1.231 1_565 S
O91 Zn73 1.953 1_554 S
O91 C85 1.298 1_554 S
C92 C93 1.387 . S
C92 H96 0.950 . S
C92 C101 1.390 . S
C93 C92 1.387 . S
C93 C95 1.387 . S
H94 C101 0.950 . S
C95 C93 1.387 . S
C95 C97 1.390 . S
C95 H99 0.950 . S
H96 C92 0.950 . S
C97 C95 1.390 . S
C97 C98 1.391 1_655 S
C97 H100 0.950 1_655 S
C98 C97 1.391 1_455 S
C98 C101 1.379 1_455 S
H99 C95 0.950 . S
H100 C97 0.950 1_455 S
C101 C92 1.390 . S
C101 H94 0.950 . S
C101 C98 1.379 1_655 S
C102 C103 1.387 . S
C102 H106 0.950 . S
C102 C111 1.390 1_455 S
C103 C102 1.387 . S
C103 C105 1.387 . S
H104 C111 0.950 . S
C105 C103 1.387 . S
C105 C107 1.390 . S
C105 H109 0.950 . S
H106 C102 0.950 . S
C107 C105 1.390 . S
C107 C108 1.387 1_455 S
C107 H110 0.950 . S
C108 C107 1.387 1_655 S
C108 C111 1.383 . S
H109 C105 0.950 . S
H110 C107 0.950 . S
C111 C102 1.390 1_655 S
C111 H104 0.950 . S
C111 C108 1.383 . S
C112 C113 1.387 . S
C112 H116 0.950 . S
C112 C121 1.390 . S
C113 C112 1.387 . S
C113 C115 1.387 . S
H114 C121 0.950 . S
C115 C113 1.387 . S
C115 C117 1.390 . S
C115 H119 0.950 . S
H116 C112 0.950 . S
C117 C115 1.390 . S
C117 C118 1.381 1_455 S
C117 H120 0.950 1_455 S
C118 C117 1.381 1_655 S
C118 C121 1.389 1_655 S
H119 C115 0.950 . S
H120 C117 0.950 1_655 S
C121 C112 1.390 . S
C121 H114 0.950 . S
C121 C118 1.389 1_455 S
C122 C123 1.387 . S
C122 H126 0.950 . S
C122 C131 1.390 . S
C123 C122 1.387 . S
C123 C125 1.387 . S
H124 C131 0.950 . S
C125 C123 1.387 . S
C125 C127 1.390 . S
C125 H129 0.950 . S
H126 C122 0.950 . S
C127 C125 1.390 . S
C127 C128 1.388 1_655 S
C127 H130 0.950 . S
C128 C127 1.388 1_455 S
C128 C131 1.386 1_455 S
H129 C125 0.950 . S
H130 C127 0.950 . S
C131 C122 1.390 . S
C131 H124 0.950 . S
C131 C128 1.386 1_655 S
C132 C133 1.387 . S
C132 H136 0.950 . S
C132 C141 1.390 1_655 S
C133 C132 1.387 . S
C133 C135 1.387 . S
H134 C141 0.950 . S
C135 C133 1.387 . S
C135 C137 1.390 1_655 S
C135 H139 0.950 . S
H136 C132 0.950 . S
C137 C135 1.390 1_455 S
C137 C138 1.387 . S
C137 H140 0.950 . S
C138 C137 1.387 . S
C138 C141 1.387 . S
H139 C135 0.950 . S
H140 C137 0.950 . S
C141 C132 1.390 1_455 S
C141 H134 0.950 . S
C141 C138 1.387 . S
C142 C143 1.387 . S
C142 H146 0.950 . S
C142 C151 1.390 1_655 S
C143 C142 1.387 . S
C143 C145 1.387 1_566 S
H144 C151 0.950 . S
C145 C143 1.387 1_544 S
C145 C147 1.390 1_655 S
C145 H149 0.950 . S
H146 C142 0.950 . S
C147 C145 1.390 1_455 S
C147 C148 1.387 . S
C147 H150 0.950 . S
C148 C147 1.387 . S
C148 C151 1.387 1_544 S
H149 C145 0.950 . S
H150 C147 0.950 . S
C151 C142 1.390 1_455 S
C151 H144 0.950 . S
C151 C148 1.387 1_566 S
C152 C153 1.387 . S
C152 H156 0.950 . S
C152 C161 1.390 . S
C153 C152 1.387 . S
C153 C155 1.387 . S
H154 C161 0.950 . S
C155 C153 1.387 . S
C155 C157 1.390 . S
C155 H159 0.950 . S
H156 C152 0.950 . S
C157 C155 1.390 . S
C157 C158 1.387 . S
C157 H160 0.950 . S
C158 C157 1.387 . S
C158 C161 1.387 . S
H159 C155 0.950 . S
H160 C157 0.950 . S
C161 C152 1.390 . S
C161 H154 0.950 . S
C161 C158 1.387 . S
C162 C163 1.387 . S
C162 H166 0.950 . S
C162 C171 1.390 . S
C163 C162 1.387 . S
C163 C165 1.387 . S
H164 C171 0.950 . S
C165 C163 1.387 . S
C165 C167 1.390 . S
C165 H169 0.950 . S
H166 C162 0.950 . S
C167 C165 1.390 . S
C167 C168 1.387 . S
C167 H170 0.950 . S
C168 C167 1.387 . S
C168 C171 1.387 . S
H169 C165 0.950 . S
H170 C167 0.950 . S
C171 C162 1.390 . S
C171 H164 0.950 . S
C171 C168 1.387 . S
C172 C173 1.387 . S
C172 H176 0.950 . S
C172 C181 1.390 . S
C173 C172 1.387 . S
C173 C175 1.387 . S
H174 C181 0.950 . S
C175 C173 1.387 . S
C175 C177 1.390 . S
C175 H179 0.950 . S
H176 C172 0.950 . S
C177 C175 1.390 . S
C177 C178 1.387 . S
C177 H180 0.950 . S
C178 C177 1.387 . S
C178 C181 1.387 . S
H179 C175 0.950 . S
H180 C177 0.950 . S
C181 C172 1.390 . S
C181 H174 0.950 . S
C181 C178 1.387 . S
C182 C183 1.387 . S
C182 H186 0.950 . S
C182 C191 1.390 . S
C183 C182 1.387 . S
C183 C185 1.387 . S
H184 C191 0.950 . S
C185 C183 1.387 . S
C185 C187 1.390 . S
C185 H189 0.950 . S
H186 C182 0.950 . S
C187 C185 1.390 . S
C187 C188 1.387 . S
C187 H190 0.950 . S
C188 C187 1.387 . S
C188 C191 1.387 . S
H189 C185 0.950 . S
H190 C187 0.950 . S
C191 C182 1.390 . S
C191 H184 0.950 . S
C191 C188 1.387 . S
C192 C193 1.387 . S
C192 H196 0.950 . S
C192 C201 1.390 . S
C193 C192 1.387 . S
C193 C195 1.387 . S
H194 C201 0.950 . S
C195 C193 1.387 . S
C195 C197 1.390 . S
C195 H199 0.950 . S
H196 C192 0.950 . S
C197 C195 1.390 . S
C197 C198 1.387 . S
C197 H200 0.950 . S
C198 C197 1.387 . S
C198 C201 1.387 . S
H199 C195 0.950 . S
H200 C197 0.950 . S
C201 C192 1.390 . S
C201 H194 0.950 . S
C201 C198 1.387 . S
C202 C203 1.387 1_565 S
C202 H206 0.950 . S
C202 C211 1.390 . S
C203 C202 1.387 1_545 S
C203 C205 1.387 1_556 S
H204 C211 0.950 . S
C205 C203 1.387 1_554 S
C205 C207 1.390 . S
C205 H209 0.950 . S
H206 C202 0.950 . S
C207 C205 1.390 . S
C207 C208 1.387 1_545 S
C207 H210 0.950 . S
C208 C207 1.387 1_565 S
C208 C211 1.387 1_554 S
H209 C205 0.950 . S
H210 C207 0.950 . S
C211 C202 1.390 . S
C211 H204 0.950 . S
C211 C208 1.387 1_556 S
C93 C44 1.705 . S
C98 C19 1.638 . S
C103 C21 1.705 . S
C108 C42 1.639 . S
C113 C90 1.705 . S
C118 C65 1.638 . S
C123 C67 1.705 . S
C128 C88 1.636 . S
C133 C62 1.106 . S
C138 C16 1.106 . S
C143 C39 1.101 1_556 S
C148 C85 1.101 1_554 S
C153 C87 1.666 . S
C158 C17 1.654 . S
C163 C40 1.654 . S
C168 C64 1.667 . S
C173 C41 1.667 . S
C178 C63 1.655 . S
C183 C86 1.655 . S
C188 C18 1.668 . S
C193 C20 1.403 . S
C198 C66 1.403 . S
C203 C89 1.403 . S
C208 C43 1.403 . S
