# Generated by pormake.
# Topology sma, (6)-cn, num edge types: 1
# Building blocks:
#     Node 0, Type 0, BuildingBlock: PAMTUU_clean_sbu_0, # of connection points: 6
#     Node 1, Type 0, BuildingBlock: PAMTUU_clean_sbu_0, # of connection points: 6
#     Node 2, Type 0, BuildingBlock: PAMTUU_clean_sbu_0, # of connection points: 6
#     Edge 3, Type (0, 0), BuildingBlock: AJUNOK_clean_linker_0, # of connection points: 2
#     Edge 4, Type (0, 0), BuildingBlock: AJUNOK_clean_linker_0, # of connection points: 2
#     Edge 5, Type (0, 0), BuildingBlock: AJUNOK_clean_linker_0, # of connection points: 2
#     Edge 6, Type (0, 0), BuildingBlock: AJUNOK_clean_linker_0, # of connection points: 2
#     Edge 7, Type (0, 0), BuildingBlock: AJUNOK_clean_linker_0, # of connection points: 2
#     Edge 8, Type (0, 0), BuildingBlock: AJUNOK_clean_linker_0, # of connection points: 2
#     Edge 9, Type (0, 0), BuildingBlock: AJUNOK_clean_linker_0, # of connection points: 2
#     Edge 10, Type (0, 0), BuildingBlock: AJUNOK_clean_linker_0, # of connection points: 2
#     Edge 11, Type (0, 0), BuildingBlock: AJUNOK_clean_linker_0, # of connection points: 2
# Relax obj value: 0.049
# Max RMSD: 0.161
# Mean RMSD: 0.156
data_MOF--net-sma--node1-PAMTUU_clean_sbu_0--edge1-AJUNOK_clean_linker_0
_symmetry_space_group_name_H-M    P1
_symmetry_Int_Tables_number       1
_symmetry_cell_setting            triclinic
loop_
_symmetry_equiv_pos_as_xyz
'x, y, z'
_cell_length_a     32.071986
_cell_length_b     31.673524
_cell_length_c     10.992863
_cell_angle_alpha  96.290487
_cell_angle_beta   89.900025
_cell_angle_gamma 120.1489
loop_
_atom_site_label
_atom_site_type_symbol
_atom_site_fract_x
_atom_site_fract_y
_atom_site_fract_z
_atom_type_partial_charge
Tb0 Tb 1.04282 0.56339 0.14892 0.0
Tb1 Tb 0.1212 0.52217 0.13407 0.0
C2 C 0.0779 0.53735 0.90182 0.0
C3 C 0.93979 0.5861 0.08417 0.0
C4 C 0.8562 0.57812 -0.02803 0.0
C5 C 0.90237 0.61752 -0.04472 0.0
C6 C 0.94369 0.62149 0.01083 0.0
C7 C 0.8936 0.54636 0.09946 0.0
C8 C 0.85237 0.54243 0.04405 0.0
C9 C 0.98305 0.59361 0.15425 0.0
O10 O 1.00262 0.48416 0.0931 0.0
O11 O 1.05278 0.46404 0.18817 0.0
O12 O 0.1205 0.54542 0.32466 0.0
O13 O 1.05009 0.54836 0.33089 0.0
O14 O 0.14076 0.47086 0.05871 0.0
O15 O 0.18673 0.53046 0.19764 0.0
O16 O 0.15892 0.59845 0.09841 0.0
O17 O 0.1144 0.62372 0.21537 0.0
O18 O 0.06556 0.56639 -0.03505 0.0
O19 O 0.09006 0.50921 -0.04823 0.0
C20 C 1.00942 0.4527 0.14665 0.0
O21 O 0.97835 0.55743 0.21037 0.0
O22 O 1.02449 0.61538 0.10454 0.0
C23 C 0.08576 0.54689 0.38397 0.0
C24 C 0.22528 0.5023 0.05653 0.0
C25 C 0.31343 0.5231 -0.04573 0.0
C26 C 0.28873 0.48274 0.02054 0.0
C27 C 0.24517 0.47254 0.07127 0.0
C28 C 0.24887 0.54184 -0.01263 0.0
C29 C 0.29265 0.55214 -0.06356 0.0
C30 C 0.18214 0.49353 0.12211 0.0
C31 C 0.15491 0.63333 0.16421 0.0
H32 H 0.90647 0.64566 0.90053 0.0
H33 H 0.97864 0.65296 -0.0012 0.0
H34 H 0.88905 0.51896 0.15731 0.0
H35 H 0.8173 0.51233 0.0615 0.0
H36 H 0.3039 0.45987 0.03646 0.0
H37 H 0.2276 0.44206 0.12492 0.0
H38 H 0.23396 0.56523 -0.02498 0.0
H39 H 0.31042 0.58295 0.88403 0.0
Tb40 Tb 0.54144 1.01533 0.49675 0.0
Tb41 Tb 0.66053 0.09919 0.51252 0.0
C42 C 0.5986 0.0548 0.26584 0.0
C43 C 0.41046 0.90819 0.42953 0.0
C44 C 0.3276 0.82188 0.32078 0.0
C45 C 0.36904 0.84586 0.25406 0.0
C46 C 0.41026 0.88899 0.30801 0.0
C47 C 0.36954 0.8838 0.4963 0.0
C48 C 0.32863 0.84109 0.44282 0.0
C49 C 0.45192 0.95358 0.4911 0.0
O50 O 0.5808 0.97681 0.45273 0.0
O51 O 0.65066 1.03115 0.56838 0.0
O52 O 0.64169 0.09817 0.70076 0.0
O53 O 0.56465 1.02945 0.68682 0.0
O54 O 0.73017 0.11635 0.46281 0.0
O55 O 0.71851 0.17 0.57224 0.0
O56 O 0.62042 0.13552 0.4746 0.0
O57 O 0.55174 0.08666 0.56922 0.0
O58 O 0.55816 0.04056 0.32004 0.0
O59 O 0.63917 0.06675 0.32475 0.0
C60 C 0.61982 0.98633 0.5169 0.0
O61 O 0.48497 0.94939 0.54813 0.0
O62 O 0.47036 0.99296 0.43575 0.0
C63 C 0.60298 0.0657 0.7493 0.0
C64 C 0.78473 0.20055 0.44638 0.0
C65 C 0.85358 0.27767 0.32264 0.0
C66 C 0.86633 0.26851 0.43506 0.0
C67 C 0.83228 0.23042 0.49611 0.0
C68 C 0.77156 0.20905 0.33373 0.0
C69 C 0.8058 0.24734 0.27215 0.0
C70 C 0.74987 0.16161 0.51569 0.0
C71 C 0.58125 0.12863 0.5288 0.0
H72 H 0.36928 0.83158 0.16009 0.0
H73 H 0.44168 0.90731 0.25522 0.0
H74 H 0.36919 0.89789 0.59048 0.0
H75 H 0.29784 0.82277 0.49761 0.0
H76 H 0.90261 0.29141 0.47706 0.0
H77 H 0.84307 0.22451 0.5831 0.0
H78 H 0.73494 0.18623 0.29382 0.0
H79 H 0.79502 0.25297 0.18487 0.0
Tb80 Tb 0.56223 0.5029 0.78743 0.0
Tb81 Tb 0.6173 0.62505 0.82315 0.0
C82 C 0.5915 0.56353 0.57129 0.0
C83 C 0.53171 0.37187 0.70751 0.0
C84 C 0.54858 0.294 0.63207 0.0
C85 C 0.50622 0.29223 0.59073 0.0
C86 C 0.49782 0.33076 0.6285 0.0
C87 C 0.57497 0.37463 0.74524 0.0
C88 C 0.58336 0.33604 0.70755 0.0
C89 C 0.52013 0.41008 0.7535 0.0
O90 O 0.63689 0.52507 0.82905 0.0
O91 O 0.67583 0.6085 0.81318 0.0
O92 O 0.62531 0.60524 -0.00041 0.0
O93 O 0.55854 0.52726 -0.02232 0.0
O94 O 0.66792 0.6891 0.75199 0.0
O95 O 0.62815 0.69297 0.90774 0.0
O96 O 0.54274 0.60012 0.86553 0.0
O97 O 0.50574 0.521 0.76661 0.0
O98 O 0.5954 0.52957 0.61927 0.0
O99 O 0.58431 0.59525 0.64018 0.0
C100 C 0.67636 0.56789 0.8266 0.0
O101 O 0.54206 0.43672 0.85712 0.0
O102 O 0.51792 0.43651 0.67349 0.0
C103 C 0.59249 0.56635 0.04612 0.0
C104 C 0.64885 0.75253 0.76814 0.0
C105 C 0.63828 0.82515 0.6666 0.0
C106 C 0.60529 0.79637 0.74894 0.0
C107 C 0.61056 0.76047 0.79954 0.0
C108 C 0.68089 0.78034 0.6831 0.0
C109 C 0.67553 0.81604 0.6324 0.0
C110 C 0.6574 0.71714 0.82569 0.0
C111 C 0.50364 0.55883 0.82194 0.0
H112 H 0.47926 0.2607 0.53047 0.0
H113 H 0.46437 0.32803 0.59777 0.0
H114 H 0.60174 0.406 0.80613 0.0
H115 H 0.61631 0.33833 0.74073 0.0
H116 H 0.57626 0.80266 0.77697 0.0
H117 H 0.58514 0.73961 0.86461 0.0
H118 H 0.71062 0.77491 0.6569 0.0
H119 H 0.7009 0.83695 0.56729 0.0
C120 C 0.3676 0.49748 0.8465 0.0
C121 C 0.36139 0.53506 0.90822 0.0
C122 C 0.41333 0.50616 0.81455 0.0
C123 C 0.45509 0.55279 0.84367 0.0
H124 H 0.33686 0.46065 0.82482 0.0
H125 H 0.41594 0.4754 0.77002 0.0
S126 S 0.45792 0.66463 -0.00109 0.0
N127 N 0.40044 0.62128 -0.00704 0.0
N128 N 0.48642 0.63796 -0.06784 0.0
C129 C 0.44909 0.5913 0.90119 0.0
C130 C 0.40231 0.58238 -0.06653 0.0
C131 C 0.93736 0.32626 0.25205 0.0
C132 C 0.89059 0.31933 0.26103 0.0
C133 C 0.97481 0.36832 0.20932 0.0
C134 C 0.96721 0.40535 0.17314 0.0
H135 H 0.94544 0.29942 0.28124 0.0
H136 H 1.01041 0.37236 0.20787 0.0
S137 S 0.85069 0.40403 0.17367 0.0
N138 N 0.83825 0.35232 0.22629 0.0
N139 N 0.90835 0.43106 0.1442 0.0
C140 C 0.92001 0.39785 0.17623 0.0
C141 C 0.88182 0.35497 0.22049 0.0
C142 C 0.58677 0.89657 0.53232 0.0
C143 C 0.62646 0.94502 0.54416 0.0
C144 C 0.59092 0.85788 0.57067 0.0
C145 C 0.63505 0.86599 0.62083 0.0
H146 H 0.55175 0.88861 0.49678 0.0
H147 H 0.55926 0.82138 0.56175 0.0
S148 S 0.75033 0.98537 0.66801 0.0
N149 N 0.71185 0.99836 0.60646 0.0
N150 N 0.71936 0.92584 0.67888 0.0
C151 C 0.67527 0.91391 0.63037 0.0
C152 C 0.67105 0.95332 0.59202 0.0
C153 C 0.76355 0.61539 0.90345 0.0
C154 C 0.72362 0.57102 0.84913 0.0
C155 C 0.80679 0.61775 -0.06082 0.0
C156 C 0.81189 0.57589 0.9216 0.0
H157 H 0.76084 0.64816 0.92323 0.0
H158 H 0.83577 0.65222 -0.01476 0.0
S159 S 0.72086 0.45269 0.76667 0.0
N160 N 0.69389 0.48548 0.76814 0.0
N161 N 0.77513 0.49012 0.83433 0.0
C162 C 0.77317 0.53197 0.86167 0.0
C163 C 0.72911 0.5295 0.82564 0.0
C164 C 0.28664 0.73563 0.21166 0.0
C165 C 0.28347 0.77611 0.26629 0.0
C166 C 0.24486 0.69006 0.17456 0.0
C167 C 0.19833 0.68325 0.19091 0.0
H168 H 0.3216 0.73856 0.20228 0.0
H169 H 0.24923 0.65951 0.13718 0.0
S170 S 0.17079 0.78006 0.31265 0.0
N171 N 0.23036 0.80813 0.32231 0.0
N172 N 0.15198 0.72269 0.25391 0.0
C173 C 0.19483 0.7243 0.2394 0.0
C174 C 0.23732 0.77062 0.27671 0.0
C175 C 0.59893 0.25762 0.55493 0.0
C176 C 0.5555 0.25116 0.60148 0.0
C177 C 0.60656 0.2177 0.5292 0.0
C178 C 0.57124 0.16982 0.5503 0.0
H179 H 0.62723 0.29385 0.53821 0.0
H180 H 0.64078 0.22471 0.49436 0.0
S181 S 0.45139 0.13384 0.67373 0.0
N182 N 0.47698 0.19364 0.6693 0.0
N183 N 0.4908 0.11858 0.62044 0.0
C184 C 0.52746 0.16296 0.59635 0.0
C185 C 0.51973 0.20359 0.62199 0.0
C186 C 1.05252 0.55371 0.70972 0.0
C187 C 0.08002 0.5382 0.76986 0.0
C188 C 1.05517 0.55697 0.58478 0.0
C189 C 0.08561 0.54502 0.51608 0.0
H190 H 1.02856 0.56328 0.75929 0.0
H191 H 1.0332 0.56904 0.54216 0.0
S192 S 0.16593 0.50336 0.63244 0.0
N193 N 0.13936 0.51166 0.75384 0.0
N194 N 0.14408 0.51717 0.51712 0.0
C195 C 0.11358 0.52961 0.57534 0.0
C196 C 0.11074 0.52618 0.70287 0.0
C197 C 0.6422 0.07322 0.07467 0.0
C198 C 0.59915 0.0593 0.13456 0.0
C199 C 0.64394 0.07761 -0.05009 0.0
C200 C 0.60263 0.06791 0.88166 0.0
H201 H 0.67475 0.08015 0.12366 0.0
H202 H 0.6772 0.08677 0.90585 0.0
S203 S 0.4827 1.03575 -0.00475 0.0
N204 N 0.51522 0.03975 0.11674 0.0
N205 N 0.51891 0.04791 0.88119 0.0
C206 C 0.55995 0.05586 -0.05972 0.0
C207 C 0.55806 0.05152 0.06727 0.0
C208 C 0.57807 0.52188 0.35733 0.0
C209 C 0.59335 0.56525 0.43811 0.0
C210 C 0.57752 0.52251 0.23023 0.0
C211 C 0.59325 0.5667 0.18002 0.0
H212 H 0.56554 0.48706 0.39241 0.0
H213 H 0.56514 0.48823 0.17093 0.0
S214 S 0.63794 0.69051 0.35268 0.0
N215 N 0.62515 0.65367 0.45941 0.0
N216 N 0.62488 0.65494 0.22047 0.0
C217 C 0.60935 0.61045 0.25984 0.0
C218 C 0.60916 0.60969 0.38904 0.0
loop_
_geom_bond_atom_site_label_1
_geom_bond_atom_site_label_2
_geom_bond_distance
_geom_bond_site_symmetry_2
_ccdc_geom_bond_type
Tb0 C9 2.764 . S
Tb0 O10 2.325 . S
Tb0 O13 2.303 1_655 S
Tb0 O17 2.322 1_655 S
Tb0 O18 2.349 1_654 S
Tb0 O21 2.415 . S
Tb0 O22 2.399 . S
Tb1 O11 2.322 1_455 S
Tb1 O12 2.349 . S
Tb1 O14 2.415 . S
Tb1 O15 2.399 . S
Tb1 O16 2.325 . S
Tb1 O19 2.303 1_554 S
Tb1 C30 2.764 . S
C2 O18 1.261 . S
C2 O19 1.257 . S
C3 C6 1.358 . S
C3 C7 1.332 . S
C3 C9 1.504 . S
C4 C5 1.373 . S
C4 C8 1.308 . S
C5 C4 1.373 . S
C5 C6 1.429 . S
C5 H32 0.932 . S
C6 C3 1.358 . S
C6 C5 1.429 . S
C6 H33 0.930 . S
C7 C3 1.332 . S
C7 C8 1.394 . S
C7 H34 0.932 . S
C8 C4 1.308 . S
C8 C7 1.394 . S
C8 H35 0.929 . S
C9 Tb0 2.764 . S
C9 C3 1.504 . S
C9 O21 1.239 . S
C9 O22 1.263 . S
O10 Tb0 2.325 . S
O10 C20 1.236 . S
O11 Tb1 2.322 1_655 S
O11 C20 1.257 . S
O12 Tb1 2.349 . S
O12 C23 1.261 . S
O13 Tb0 2.303 1_455 S
O13 C23 1.257 . S
O14 Tb1 2.415 . S
O14 C30 1.239 . S
O15 Tb1 2.399 . S
O15 C30 1.263 . S
O16 Tb1 2.325 . S
O16 C31 1.236 . S
O17 Tb0 2.322 1_455 S
O17 C31 1.257 . S
O18 Tb0 2.349 1_456 S
O18 C2 1.261 . S
O19 Tb1 2.303 1_556 S
O19 C2 1.257 . S
C20 O10 1.236 . S
C20 O11 1.257 . S
O21 Tb0 2.415 . S
O21 C9 1.239 . S
O22 Tb0 2.399 . S
O22 C9 1.263 . S
C23 O12 1.261 . S
C23 O13 1.257 . S
C24 C27 1.358 . S
C24 C28 1.332 . S
C24 C30 1.504 . S
C25 C26 1.373 . S
C25 C29 1.308 1_554 S
C26 C25 1.373 . S
C26 C27 1.429 . S
C26 H36 0.932 . S
C27 C24 1.358 . S
C27 C26 1.429 . S
C27 H37 0.930 . S
C28 C24 1.332 . S
C28 C29 1.394 1_554 S
C28 H38 0.932 1_554 S
C29 C25 1.308 1_556 S
C29 C28 1.394 1_556 S
C29 H39 0.929 . S
C30 Tb1 2.764 . S
C30 O14 1.239 . S
C30 O15 1.263 . S
C30 C24 1.504 . S
C31 O16 1.236 . S
C31 O17 1.257 . S
H32 C5 0.932 . S
H33 C6 0.930 . S
H34 C7 0.932 . S
H35 C8 0.929 . S
H36 C26 0.932 . S
H37 C27 0.930 . S
H38 C28 0.932 1_556 S
H39 C29 0.929 . S
Tb40 C49 2.764 . S
Tb40 O50 2.325 . S
Tb40 O53 2.303 1_565 S
Tb40 O57 2.322 1_565 S
Tb40 O58 2.349 . S
Tb40 O61 2.415 . S
Tb40 O62 2.399 . S
Tb41 O51 2.322 1_545 S
Tb41 O52 2.349 . S
Tb41 O54 2.415 . S
Tb41 O55 2.399 . S
Tb41 O56 2.325 . S
Tb41 O59 2.303 . S
Tb41 C70 2.764 . S
C42 O58 1.261 1_545 S
C42 O59 1.257 . S
C43 C46 1.358 . S
C43 C47 1.332 . S
C43 C49 1.504 . S
C44 C45 1.373 . S
C44 C48 1.308 . S
C45 C44 1.373 . S
C45 C46 1.429 . S
C45 H72 0.932 . S
C46 C43 1.358 . S
C46 C45 1.429 . S
C46 H73 0.930 . S
C47 C43 1.332 . S
C47 C48 1.394 . S
C47 H74 0.932 . S
C48 C44 1.308 . S
C48 C47 1.394 . S
C48 H75 0.929 . S
C49 Tb40 2.764 . S
C49 C43 1.504 . S
C49 O61 1.239 . S
C49 O62 1.263 . S
O50 Tb40 2.325 . S
O50 C60 1.236 . S
O51 Tb41 2.322 1_565 S
O51 C60 1.257 . S
O52 Tb41 2.349 . S
O52 C63 1.261 . S
O53 Tb40 2.303 1_545 S
O53 C63 1.257 . S
O54 Tb41 2.415 . S
O54 C70 1.239 . S
O55 Tb41 2.399 . S
O55 C70 1.263 . S
O56 Tb41 2.325 . S
O56 C71 1.236 . S
O57 Tb40 2.322 1_545 S
O57 C71 1.257 . S
O58 Tb40 2.349 . S
O58 C42 1.261 1_565 S
O59 Tb41 2.303 . S
O59 C42 1.257 . S
C60 O50 1.236 . S
C60 O51 1.257 . S
O61 Tb40 2.415 . S
O61 C49 1.239 . S
O62 Tb40 2.399 . S
O62 C49 1.263 . S
C63 O52 1.261 . S
C63 O53 1.257 . S
C64 C67 1.358 . S
C64 C68 1.332 . S
C64 C70 1.504 . S
C65 C66 1.373 . S
C65 C69 1.308 . S
C66 C65 1.373 . S
C66 C67 1.429 . S
C66 H76 0.932 . S
C67 C64 1.358 . S
C67 C66 1.429 . S
C67 H77 0.930 . S
C68 C64 1.332 . S
C68 C69 1.394 . S
C68 H78 0.932 . S
C69 C65 1.308 . S
C69 C68 1.394 . S
C69 H79 0.929 . S
C70 Tb41 2.764 . S
C70 O54 1.239 . S
C70 O55 1.263 . S
C70 C64 1.504 . S
C71 O56 1.236 . S
C71 O57 1.257 . S
H72 C45 0.932 . S
H73 C46 0.930 . S
H74 C47 0.932 . S
H75 C48 0.929 . S
H76 C66 0.932 . S
H77 C67 0.930 . S
H78 C68 0.932 . S
H79 C69 0.929 . S
Tb80 C89 2.764 . S
Tb80 O90 2.325 . S
Tb80 O93 2.303 . S
Tb80 O97 2.322 . S
Tb80 O98 2.349 . S
Tb80 O101 2.415 . S
Tb80 O102 2.399 . S
Tb81 O91 2.322 . S
Tb81 O92 2.349 1_556 S
Tb81 O94 2.415 . S
Tb81 O95 2.399 . S
Tb81 O96 2.325 . S
Tb81 O99 2.303 . S
Tb81 C110 2.764 . S
C82 O98 1.261 . S
C82 O99 1.257 . S
C83 C86 1.358 . S
C83 C87 1.332 . S
C83 C89 1.504 . S
C84 C85 1.373 . S
C84 C88 1.308 . S
C85 C84 1.373 . S
C85 C86 1.429 . S
C85 H112 0.932 . S
C86 C83 1.358 . S
C86 C85 1.429 . S
C86 H113 0.930 . S
C87 C83 1.332 . S
C87 C88 1.394 . S
C87 H114 0.932 1_556 S
C88 C84 1.308 . S
C88 C87 1.394 . S
C88 H115 0.929 1_556 S
C89 Tb80 2.764 . S
C89 C83 1.504 . S
C89 O101 1.239 . S
C89 O102 1.263 . S
O90 Tb80 2.325 . S
O90 C100 1.236 . S
O91 Tb81 2.322 . S
O91 C100 1.257 . S
O92 Tb81 2.349 1_554 S
O92 C103 1.261 . S
O93 Tb80 2.303 . S
O93 C103 1.257 1_556 S
O94 Tb81 2.415 . S
O94 C110 1.239 . S
O95 Tb81 2.399 . S
O95 C110 1.263 . S
O96 Tb81 2.325 . S
O96 C111 1.236 . S
O97 Tb80 2.322 . S
O97 C111 1.257 . S
O98 Tb80 2.349 . S
O98 C82 1.261 . S
O99 Tb81 2.303 . S
O99 C82 1.257 . S
C100 O90 1.236 . S
C100 O91 1.257 . S
O101 Tb80 2.415 . S
O101 C89 1.239 . S
O102 Tb80 2.399 . S
O102 C89 1.263 . S
C103 O92 1.261 . S
C103 O93 1.257 1_554 S
C104 C107 1.358 . S
C104 C108 1.332 . S
C104 C110 1.504 . S
C105 C106 1.373 . S
C105 C109 1.308 . S
C106 C105 1.373 . S
C106 C107 1.429 . S
C106 H116 0.932 1_556 S
C107 C104 1.358 . S
C107 C106 1.429 . S
C107 H117 0.930 1_556 S
C108 C104 1.332 . S
C108 C109 1.394 . S
C108 H118 0.932 . S
C109 C105 1.308 . S
C109 C108 1.394 . S
C109 H119 0.929 . S
C110 Tb81 2.764 . S
C110 O94 1.239 . S
C110 O95 1.263 . S
C110 C104 1.504 . S
C111 O96 1.236 . S
C111 O97 1.257 . S
H112 C85 0.932 . S
H113 C86 0.930 . S
H114 C87 0.932 1_554 S
H115 C88 0.929 1_554 S
H116 C106 0.932 1_554 S
H117 C107 0.930 1_554 S
H118 C108 0.932 . S
H119 C109 0.929 . S
C120 C121 1.369 1_556 S
C120 C122 1.419 . S
C120 H124 0.930 . S
C121 C120 1.369 1_554 S
C121 C130 1.429 . S
C122 C120 1.419 . S
C122 C123 1.363 . S
C122 H125 0.929 . S
C123 C122 1.363 . S
C123 C129 1.428 . S
H124 C120 0.930 . S
H125 C122 0.929 . S
S126 N127 1.613 . S
S126 N128 1.610 1_554 S
N127 S126 1.613 . S
N127 C130 1.350 . S
N128 S126 1.610 1_556 S
N128 C129 1.351 . S
C129 C123 1.428 . S
C129 N128 1.351 . S
C129 C130 1.434 1_556 S
C130 C121 1.429 . S
C130 N127 1.350 . S
C130 C129 1.434 1_554 S
C131 C132 1.369 . S
C131 C133 1.419 . S
C131 H135 0.930 . S
C132 C131 1.369 . S
C132 C141 1.429 . S
C133 C131 1.419 . S
C133 C134 1.363 . S
C133 H136 0.929 . S
C134 C133 1.363 . S
C134 C140 1.428 . S
H135 C131 0.930 . S
H136 C133 0.929 . S
S137 N138 1.613 . S
S137 N139 1.610 . S
N138 S137 1.613 . S
N138 C141 1.350 . S
N139 S137 1.610 . S
N139 C140 1.351 . S
C140 C134 1.428 . S
C140 N139 1.351 . S
C140 C141 1.434 . S
C141 C132 1.429 . S
C141 N138 1.350 . S
C141 C140 1.434 . S
C142 C143 1.369 . S
C142 C144 1.419 . S
C142 H146 0.930 . S
C143 C142 1.369 . S
C143 C152 1.429 . S
C144 C142 1.419 . S
C144 C145 1.363 . S
C144 H147 0.929 . S
C145 C144 1.363 . S
C145 C151 1.428 . S
H146 C142 0.930 . S
H147 C144 0.929 . S
S148 N149 1.613 . S
S148 N150 1.610 . S
N149 S148 1.613 . S
N149 C152 1.350 . S
N150 S148 1.610 . S
N150 C151 1.351 . S
C151 C145 1.428 . S
C151 N150 1.351 . S
C151 C152 1.434 . S
C152 C143 1.429 . S
C152 N149 1.350 . S
C152 C151 1.434 . S
C153 C154 1.369 1_554 S
C153 C155 1.419 . S
C153 H157 0.930 . S
C154 C153 1.369 1_556 S
C154 C163 1.429 . S
C155 C153 1.419 . S
C155 C156 1.363 . S
C155 H158 0.929 . S
C156 C155 1.363 . S
C156 C162 1.428 . S
H157 C153 0.930 . S
H158 C155 0.929 . S
S159 N160 1.613 . S
S159 N161 1.610 1_556 S
N160 S159 1.613 . S
N160 C163 1.350 . S
N161 S159 1.610 1_554 S
N161 C162 1.351 . S
C162 C156 1.428 . S
C162 N161 1.351 . S
C162 C163 1.434 1_554 S
C163 C154 1.429 . S
C163 N160 1.350 . S
C163 C162 1.434 1_556 S
C164 C165 1.369 . S
C164 C166 1.419 . S
C164 H168 0.930 . S
C165 C164 1.369 . S
C165 C174 1.429 . S
C166 C164 1.419 . S
C166 C167 1.363 . S
C166 H169 0.929 . S
C167 C166 1.363 . S
C167 C173 1.428 . S
H168 C164 0.930 . S
H169 C166 0.929 . S
S170 N171 1.613 . S
S170 N172 1.610 . S
N171 S170 1.613 . S
N171 C174 1.350 . S
N172 S170 1.610 . S
N172 C173 1.351 . S
C173 C167 1.428 . S
C173 N172 1.351 . S
C173 C174 1.434 . S
C174 C165 1.429 . S
C174 N171 1.350 . S
C174 C173 1.434 . S
C175 C176 1.369 . S
C175 C177 1.419 . S
C175 H179 0.930 . S
C176 C175 1.369 . S
C176 C185 1.429 . S
C177 C175 1.419 . S
C177 C178 1.363 . S
C177 H180 0.929 . S
C178 C177 1.363 . S
C178 C184 1.428 . S
H179 C175 0.930 . S
H180 C177 0.929 . S
S181 N182 1.613 . S
S181 N183 1.610 . S
N182 S181 1.613 . S
N182 C185 1.350 . S
N183 S181 1.610 . S
N183 C184 1.351 . S
C184 C178 1.428 . S
C184 N183 1.351 . S
C184 C185 1.434 . S
C185 C176 1.429 . S
C185 N182 1.350 . S
C185 C184 1.434 . S
C186 C187 1.369 . S
C186 C188 1.419 1_455 S
C186 H190 0.930 1_455 S
C187 C186 1.369 . S
C187 C196 1.429 . S
C188 C186 1.419 1_655 S
C188 C189 1.363 1_655 S
C188 H191 0.929 . S
C189 C188 1.363 1_455 S
C189 C195 1.428 . S
H190 C186 0.930 1_655 S
H191 C188 0.929 . S
S192 N193 1.613 . S
S192 N194 1.610 . S
N193 S192 1.613 . S
N193 C196 1.350 . S
N194 S192 1.610 . S
N194 C195 1.351 . S
C195 C189 1.428 . S
C195 N194 1.351 . S
C195 C196 1.434 . S
C196 C187 1.429 . S
C196 N193 1.350 . S
C196 C195 1.434 . S
C197 C198 1.369 . S
C197 C199 1.419 1_554 S
C197 H201 0.930 . S
C198 C197 1.369 . S
C198 C207 1.429 . S
C199 C197 1.419 1_556 S
C199 C200 1.363 . S
C199 H202 0.929 . S
C200 C199 1.363 . S
C200 C206 1.428 . S
H201 C197 0.930 . S
H202 C199 0.929 . S
S203 N204 1.613 1_556 S
S203 N205 1.610 . S
N204 S203 1.613 1_554 S
N204 C207 1.350 1_565 S
N205 S203 1.610 . S
N205 C206 1.351 1_565 S
C206 C200 1.428 . S
C206 N205 1.351 1_545 S
C206 C207 1.434 1_556 S
C207 C198 1.429 . S
C207 N204 1.350 1_545 S
C207 C206 1.434 1_554 S
C208 C209 1.369 . S
C208 C210 1.419 . S
C208 H212 0.930 . S
C209 C208 1.369 . S
C209 C218 1.429 . S
C210 C208 1.419 . S
C210 C211 1.363 . S
C210 H213 0.929 . S
C211 C210 1.363 . S
C211 C217 1.428 . S
H212 C208 0.930 . S
H213 C210 0.929 . S
S214 N215 1.613 . S
S214 N216 1.610 . S
N215 S214 1.613 . S
N215 C218 1.350 . S
N216 S214 1.610 . S
N216 C217 1.351 . S
C217 C211 1.428 . S
C217 N216 1.351 . S
C217 C218 1.434 . S
C218 C209 1.429 . S
C218 N215 1.350 . S
C218 C217 1.434 . S
C121 C25 1.786 . S
C123 C111 1.729 . S
C132 C65 1.960 . S
C134 C20 1.991 . S
C143 C60 2.003 . S
C145 C105 1.957 . S
C154 C100 2.074 . S
C156 C4 2.005 . S
C165 C44 1.790 . S
C167 C31 1.749 . S
C176 C84 1.785 . S
C178 C71 1.741 . S
C187 C2 0.793 . S
C189 C23 0.777 . S
C198 C42 0.757 . S
C200 C63 0.771 . S
C209 C82 0.788 . S
C211 C103 0.784 . S
