# Generated by pormake.
# Topology sxc, (6)-cn, num edge types: 1
# Building blocks:
#     Node 0, Type 0, BuildingBlock: PAMTUU_clean_sbu_0, # of connection points: 6
#     Node 1, Type 0, BuildingBlock: PAMTUU_clean_sbu_0, # of connection points: 6
#     Node 2, Type 0, BuildingBlock: PAMTUU_clean_sbu_0, # of connection points: 6
#     Edge 3, Type (0, 0), BuildingBlock: OJICUG_clean_linker_0, # of connection points: 2
#     Edge 4, Type (0, 0), BuildingBlock: OJICUG_clean_linker_0, # of connection points: 2
#     Edge 5, Type (0, 0), BuildingBlock: OJICUG_clean_linker_0, # of connection points: 2
#     Edge 6, Type (0, 0), BuildingBlock: OJICUG_clean_linker_0, # of connection points: 2
#     Edge 7, Type (0, 0), BuildingBlock: OJICUG_clean_linker_0, # of connection points: 2
#     Edge 8, Type (0, 0), BuildingBlock: OJICUG_clean_linker_0, # of connection points: 2
#     Edge 9, Type (0, 0), BuildingBlock: OJICUG_clean_linker_0, # of connection points: 2
#     Edge 10, Type (0, 0), BuildingBlock: OJICUG_clean_linker_0, # of connection points: 2
#     Edge 11, Type (0, 0), BuildingBlock: OJICUG_clean_linker_0, # of connection points: 2
# Relax obj value: 0.552
# Max RMSD: 0.157
# Mean RMSD: 0.117
data_MOF--net-sxc--node1-PAMTUU_clean_sbu_0--edge1-OJICUG_clean_linker_0
_symmetry_space_group_name_H-M    P1
_symmetry_Int_Tables_number       1
_symmetry_cell_setting            triclinic
loop_
_symmetry_equiv_pos_as_xyz
'x, y, z'
_cell_length_a     18.071299
_cell_length_b     11.657455
_cell_length_c     33.856803
_cell_angle_alpha  85.032786
_cell_angle_beta   98.146206
_cell_angle_gamma 134.47025
loop_
_atom_site_label
_atom_site_type_symbol
_atom_site_fract_x
_atom_site_fract_y
_atom_site_fract_z
_atom_type_partial_charge
Tb0 Tb 1.06592 1.13684 0.95515 0.0
Tb1 Tb 0.30944 0.39259 0.96737 0.0
C2 C 0.19083 0.28659 0.87884 0.0
C3 C 0.84814 0.87507 0.00521 0.0
C4 C 0.84763 0.88352 0.08854 0.0
C5 C 0.80544 0.92866 0.06115 0.0
C6 C 0.80465 0.92273 0.02017 0.0
C7 C 0.88785 0.82546 0.03234 0.0
C8 C 0.88687 0.82856 0.07348 0.0
C9 C 0.87767 0.91954 0.96413 0.0
O10 O 1.10709 0.9937 0.96498 0.0
O11 O 0.27674 1.17877 0.9523 0.0
O12 O 0.25965 0.27798 0.02497 0.0
O13 O 1.11246 0.22353 0.01691 0.0
O14 O 0.44453 0.63606 -0.01869 0.0
O15 O 0.45442 0.46357 -0.02077 0.0
O16 O 0.2678 0.53225 0.9713 0.0
O17 O 1.09932 0.35801 0.94237 0.0
O18 O 1.09976 1.17929 0.8932 0.0
O19 O 0.28049 0.38457 0.90212 0.0
C20 C 0.19094 1.02779 0.95787 0.0
O21 O 0.92136 1.06446 0.95445 0.0
O22 O 0.92882 0.88898 0.95334 0.0
C23 C 0.18618 0.24858 0.04066 0.0
C24 C 0.52818 0.62045 0.03849 0.0
C25 C 0.58151 0.65321 0.12261 0.0
C26 C 0.55161 0.52486 0.10112 0.0
C27 C 0.52823 0.51163 0.05975 0.0
C28 C 0.54268 0.73349 0.0602 0.0
C29 C 0.56699 0.74772 0.10171 0.0
C30 C 0.49649 0.5989 -0.00518 0.0
C31 C 0.18434 0.50367 0.9562 0.0
H32 H 0.77164 0.96772 0.07113 0.0
H33 H 0.77504 0.96396 0.00024 0.0
H34 H 0.92419 0.79104 0.02201 0.0
H35 H 0.91869 0.79105 0.09352 0.0
H36 H 0.55429 0.44111 0.11549 0.0
H37 H 0.51126 0.41638 0.04444 0.0
H38 H 0.53747 0.81368 0.04502 0.0
H39 H 0.58297 0.84241 0.11675 0.0
Tb40 Tb 0.29611 0.35518 0.30262 0.0
Tb41 Tb 1.04901 1.09026 0.28724 0.0
C42 C 1.16249 0.20621 0.37338 0.0
C43 C 0.56755 0.55989 0.31905 0.0
C44 C 0.68058 0.4769 0.32286 0.0
C45 C 0.68368 0.54248 0.35662 0.0
C46 C 0.62735 0.58396 0.35469 0.0
C47 C 0.57063 0.50504 0.2846 0.0
C48 C 0.62736 0.46502 0.28646 0.0
C49 C 0.49093 0.56843 0.31965 0.0
O50 O 0.26872 1.14057 0.29501 0.0
O51 O 1.08984 0.94823 0.29187 0.0
O52 O 1.09197 1.14754 0.22669 0.0
O53 O 0.26978 0.31295 0.23812 0.0
O54 O 0.9132 0.87759 0.30945 0.0
O55 O 0.90529 0.97568 0.25367 0.0
O56 O 1.0788 0.3102 0.2852 0.0
O57 O 0.2561 0.49726 0.30201 0.0
O58 O 0.23847 0.23696 0.35935 0.0
O59 O 1.08989 1.18064 0.34834 0.0
C60 C 0.17889 0.98756 0.29311 0.0
O61 O 0.44348 0.55747 0.28526 0.0
O62 O 0.42585 0.47708 0.34595 0.0
C63 C 0.183 0.23333 0.21367 0.0
C64 C 0.79296 0.90077 0.29852 0.0
C65 C 0.73655 1.05717 0.3172 0.0
C66 C 0.69527 0.97185 0.28093 0.0
C67 C 0.72302 0.89309 0.27175 0.0
C68 C 0.8237 0.96962 0.33678 0.0
C69 C 0.79503 1.04695 0.34614 0.0
C70 C 0.85443 0.88006 0.28293 0.0
C71 C 1.16797 0.46091 0.29321 0.0
H72 H 0.72495 0.55346 0.38489 0.0
H73 H 0.62583 0.62648 0.3815 0.0
H74 H 0.52495 0.48477 0.2567 0.0
H75 H 0.62267 0.41294 0.26007 0.0
H76 H 0.64812 0.9764 0.2586 0.0
H77 H 0.69697 0.83777 0.24259 0.0
H78 H 0.8773 0.97658 0.35822 0.0
H79 H 0.82683 1.11162 0.37437 0.0
Tb80 Tb 0.17997 0.38453 0.61918 0.0
Tb81 Tb 0.17491 1.12768 0.63377 0.0
C82 C 1.16724 0.22592 0.54594 0.0
C83 C 1.0939 0.57949 0.61594 0.0
C84 C 0.89679 0.45515 0.62401 0.0
C85 C 0.93785 0.51598 0.58729 0.0
C86 C 1.03616 0.57846 0.58331 0.0
C87 C 1.0562 0.53103 0.65347 0.0
C88 C 0.95857 0.4701 0.65747 0.0
C89 C 0.18093 0.59994 0.60907 0.0
O90 O 0.99831 1.17611 0.62094 0.0
O91 O 0.99315 0.97703 0.6318 0.0
O92 O 0.22981 0.24447 0.69205 0.0
O93 O 1.14175 0.31563 0.68074 0.0
O94 O 1.12768 0.91643 0.61432 0.0
O95 O 0.19478 1.00362 0.67498 0.0
O96 O 0.35599 0.33493 0.63053 0.0
O97 O 0.36189 0.53517 0.62178 0.0
O98 O 1.13312 0.28123 0.55959 0.0
O99 O 0.20603 1.1839 0.57132 0.0
C100 C 0.93678 1.01645 0.62637 0.0
O101 O 0.22988 0.59572 0.64053 0.0
O102 O 1.1591 0.51132 0.5799 0.0
C103 C 0.18799 0.28621 0.70611 0.0
C104 C 0.26399 0.93641 0.64135 0.0
C105 C 0.46226 1.06098 0.63558 0.0
C106 C 0.41936 1.00115 0.672 0.0
C107 C 0.32043 0.93847 0.67482 0.0
C108 C 0.30387 0.9847 0.60427 0.0
C109 C 0.40198 1.04576 0.60142 0.0
C110 C 0.17552 0.91447 0.64666 0.0
C111 C 0.41788 0.49511 0.62613 0.0
H112 H 0.89175 0.50758 0.56124 0.0
H113 H 1.064 0.61579 0.55419 0.0
H114 H 1.09888 0.53044 0.67926 0.0
H115 H 0.92836 0.42357 0.68607 0.0
H116 H 0.46426 1.00984 0.6986 0.0
H117 H 0.29097 0.90153 0.70364 0.0
H118 H 0.26236 0.98474 0.57785 0.0
H119 H 0.43354 1.09175 0.57304 0.0
C120 C 0.28031 0.80268 0.96103 0.0
C121 C 0.18584 0.63803 0.95605 0.0
H122 H 0.35682 1.05025 0.96482 0.0
C123 C 1.09302 0.60458 0.95159 0.0
H124 H 0.35406 0.83653 0.96463 0.0
C125 C 1.0946 0.72853 0.95255 0.0
C126 C 0.1891 0.89331 0.95711 0.0
H127 H 1.01814 0.48116 0.94787 0.0
H128 H 1.02085 0.69463 0.94932 0.0
C129 C 0.28191 0.92685 0.96108 0.0
C130 C 0.76503 0.40611 0.29568 0.0
C131 C 0.71595 0.3949 0.32644 0.0
H132 H 0.80785 0.30361 0.26851 0.0
C133 C 0.68302 0.28182 0.35666 0.0
H134 H 0.79204 0.49368 0.27237 0.0
C135 C 0.69227 1.17362 0.35448 0.0
C136 C 0.73336 1.17693 0.32189 0.0
H137 H 0.64375 0.26973 0.38043 0.0
H138 H 0.66283 1.08278 0.37705 0.0
C139 C 0.77302 0.29695 0.29328 0.0
C140 C 0.74096 0.92006 0.62178 0.0
C141 C 0.80349 0.88194 0.62637 0.0
H142 H 0.59186 0.85435 0.61797 0.0
C143 C 0.73003 0.70774 0.63085 0.0
H144 H 0.78298 1.04558 0.6181 0.0
C145 C 0.61371 0.59143 0.63072 0.0
C146 C 0.55118 0.62956 0.62614 0.0
H147 H 0.76283 0.65714 0.63461 0.0
H148 H 0.5717 0.46591 0.63441 0.0
C149 C 0.62466 0.80377 0.6217 0.0
C150 C 0.70979 0.23445 0.59827 0.0
C151 C 0.78584 0.35814 0.6265 0.0
H152 H 0.54688 1.03942 0.57977 0.0
C153 C 0.75491 0.37938 0.65859 0.0
H154 H 0.73193 0.21321 0.57383 0.0
C155 C 0.64929 0.27915 0.66217 0.0
C156 C 0.57323 1.15594 0.63381 0.0
H157 H 0.81242 0.47417 0.68067 0.0
H158 H 0.62712 0.30064 0.68654 0.0
C159 C 0.60427 1.13414 0.60189 0.0
C160 C 0.82213 0.96523 0.14684 0.0
C161 C 0.83473 0.87128 0.13165 0.0
H162 H 0.71102 0.95005 0.16969 0.0
C163 C 0.78496 0.72281 0.15031 0.0
H164 H 0.86741 1.08814 0.13756 0.0
C165 C 0.69734 0.65069 0.16966 0.0
C166 C 0.65431 0.71583 0.16119 0.0
H167 H 0.79909 0.65072 0.14368 0.0
H168 H 0.64862 0.52647 0.17839 0.0
C169 C 0.73145 0.88495 0.16478 0.0
C170 C 0.26568 0.75983 0.29743 0.0
C171 C 0.17038 0.59561 0.29291 0.0
H172 H 0.34403 1.00822 0.3008 0.0
C173 C 1.07817 0.5634 0.2883 0.0
H174 H 0.33905 0.79249 0.30106 0.0
C175 C 1.08114 0.68869 0.28836 0.0
C176 C 0.17647 0.85299 0.29278 0.0
H177 H 1.00286 0.44033 0.28486 0.0
H178 H 1.00778 0.65598 0.28487 0.0
C179 C 0.26867 0.88519 0.29723 0.0
C180 C 1.10953 0.2185 0.14324 0.0
C181 C 0.18667 0.24108 0.16953 0.0
H182 H 1.05025 0.20715 0.08269 0.0
C183 C 0.2656 0.26979 0.15303 0.0
H184 H 1.04911 1.19998 0.15485 0.0
C185 C 0.2653 0.27119 0.11134 0.0
C186 C 0.18724 0.24691 0.08506 0.0
H187 H 0.32651 0.2882 0.1723 0.0
H188 H 0.32602 0.29057 0.0997 0.0
C189 C 1.11029 0.22276 0.10174 0.0
C190 C 0.22399 1.19686 0.4445 0.0
C191 C 1.16069 0.20483 0.41755 0.0
H192 H 0.27455 1.19434 0.50575 0.0
C193 C 1.0976 0.21533 0.43336 0.0
H194 H 0.2734 1.18818 0.43352 0.0
C195 C 1.09962 0.22155 0.47484 0.0
C196 C 1.16324 0.21433 0.50181 0.0
H197 H 1.04795 0.22191 0.41367 0.0
H198 H 1.05104 0.23202 0.48579 0.0
C199 C 0.22449 1.19997 0.48602 0.0
C200 C 1.11071 0.26207 0.7667 0.0
C201 C 0.19105 0.29491 0.75019 0.0
H202 H 1.04631 0.23003 0.82008 0.0
C203 C 0.27277 0.32986 0.77642 0.0
H204 H 1.04638 0.23395 0.74742 0.0
C205 C 0.27426 0.33204 0.81799 0.0
C206 C 0.19234 0.29425 0.83458 0.0
H207 H 0.33597 0.3559 0.76476 0.0
H208 H 0.33822 0.35882 0.83722 0.0
C209 C 1.11049 0.25917 0.80836 0.0
loop_
_geom_bond_atom_site_label_1
_geom_bond_atom_site_label_2
_geom_bond_distance
_geom_bond_site_symmetry_2
_ccdc_geom_bond_type
Tb0 C9 2.764 . S
Tb0 O10 2.325 . S
Tb0 O13 2.303 1_666 S
Tb0 O17 2.322 1_565 S
Tb0 O18 2.349 1_565 S
Tb0 O21 2.415 1_556 S
Tb0 O22 2.399 . S
Tb1 O11 2.322 1_545 S
Tb1 O12 2.349 . S
Tb1 O14 2.415 1_554 S
Tb1 O15 2.399 . S
Tb1 O16 2.325 . S
Tb1 O19 2.303 1_554 S
Tb1 C30 2.764 . S
C2 O18 1.261 1_455 S
C2 O19 1.257 . S
C3 C6 1.358 . S
C3 C7 1.332 1_556 S
C3 C9 1.504 . S
C4 C5 1.373 1_554 S
C4 C8 1.308 . S
C5 C4 1.373 1_556 S
C5 C6 1.429 . S
C5 H32 0.932 . S
C6 C3 1.358 . S
C6 C5 1.429 . S
C6 H33 0.930 . S
C7 C3 1.332 1_554 S
C7 C8 1.394 . S
C7 H34 0.932 . S
C8 C4 1.308 . S
C8 C7 1.394 . S
C8 H35 0.929 . S
C9 Tb0 2.764 . S
C9 C3 1.504 . S
C9 O21 1.239 1_556 S
C9 O22 1.263 . S
O10 Tb0 2.325 . S
O10 C20 1.222 1_656 S
O11 Tb1 2.322 1_565 S
O11 C20 1.267 . S
O12 Tb1 2.349 . S
O12 C23 1.261 . S
O13 Tb0 2.303 1_444 S
O13 C23 1.257 . S
O14 Tb1 2.415 1_556 S
O14 C30 1.239 1_556 S
O15 Tb1 2.399 . S
O15 C30 1.263 . S
O16 Tb1 2.325 . S
O16 C31 1.236 . S
O17 Tb0 2.322 1_545 S
O17 C31 1.257 1_656 S
O18 Tb0 2.349 1_545 S
O18 C2 1.261 1_655 S
O19 Tb1 2.303 1_556 S
O19 C2 1.257 . S
C20 O10 1.222 1_454 S
C20 O11 1.267 . S
O21 Tb0 2.415 1_554 S
O21 C9 1.239 1_554 S
O22 Tb0 2.399 . S
O22 C9 1.263 . S
C23 O12 1.261 . S
C23 O13 1.257 . S
C24 C27 1.358 . S
C24 C28 1.332 1_554 S
C24 C30 1.504 . S
C25 C26 1.373 . S
C25 C29 1.308 1_554 S
C26 C25 1.373 . S
C26 C27 1.429 . S
C26 H36 0.932 . S
C27 C24 1.358 . S
C27 C26 1.429 . S
C27 H37 0.930 . S
C28 C24 1.332 1_556 S
C28 C29 1.394 . S
C28 H38 0.932 . S
C29 C25 1.308 1_556 S
C29 C28 1.394 . S
C29 H39 0.929 . S
C30 Tb1 2.764 . S
C30 O14 1.239 1_554 S
C30 O15 1.263 . S
C30 C24 1.504 . S
C31 O16 1.236 . S
C31 O17 1.257 1_454 S
H32 C5 0.932 . S
H33 C6 0.930 . S
H34 C7 0.932 . S
H35 C8 0.929 . S
H36 C26 0.932 . S
H37 C27 0.930 . S
H38 C28 0.932 . S
H39 C29 0.929 . S
Tb40 C49 2.764 . S
Tb40 O50 2.325 1_545 S
Tb40 O53 2.303 . S
Tb40 O57 2.322 . S
Tb40 O58 2.349 . S
Tb40 O61 2.415 . S
Tb40 O62 2.399 . S
Tb41 O51 2.322 . S
Tb41 O52 2.349 . S
Tb41 O54 2.415 . S
Tb41 O55 2.399 . S
Tb41 O56 2.325 1_565 S
Tb41 O59 2.303 . S
Tb41 C70 2.764 . S
C42 O58 1.261 . S
C42 O59 1.257 1_445 S
C43 C46 1.358 . S
C43 C47 1.332 1_545 S
C43 C49 1.504 . S
C44 C45 1.373 . S
C44 C48 1.308 1_545 S
C45 C44 1.373 . S
C45 C46 1.429 . S
C45 H72 0.932 . S
C46 C43 1.358 . S
C46 C45 1.429 . S
C46 H73 0.930 . S
C47 C43 1.332 1_565 S
C47 C48 1.394 . S
C47 H74 0.932 . S
C48 C44 1.308 1_565 S
C48 C47 1.394 . S
C48 H75 0.929 . S
C49 Tb40 2.764 . S
C49 C43 1.504 . S
C49 O61 1.239 . S
C49 O62 1.263 . S
O50 Tb40 2.325 1_565 S
O50 C60 1.236 1_455 S
O51 Tb41 2.322 . S
O51 C60 1.257 . S
O52 Tb41 2.349 . S
O52 C63 1.261 . S
O53 Tb40 2.303 . S
O53 C63 1.257 1_445 S
O54 Tb41 2.415 . S
O54 C70 1.239 . S
O55 Tb41 2.399 . S
O55 C70 1.263 . S
O56 Tb41 2.325 1_545 S
O56 C71 1.236 1_655 S
O57 Tb40 2.322 . S
O57 C71 1.257 . S
O58 Tb40 2.349 . S
O58 C42 1.261 . S
O59 Tb41 2.303 . S
O59 C42 1.257 1_665 S
C60 O50 1.236 1_655 S
C60 O51 1.257 . S
O61 Tb40 2.415 . S
O61 C49 1.239 . S
O62 Tb40 2.399 . S
O62 C49 1.263 . S
C63 O52 1.261 . S
C63 O53 1.257 1_665 S
C64 C67 1.358 . S
C64 C68 1.332 1_565 S
C64 C70 1.504 . S
C65 C66 1.373 . S
C65 C69 1.308 1_565 S
C66 C65 1.373 . S
C66 C67 1.429 . S
C66 H76 0.932 . S
C67 C64 1.358 . S
C67 C66 1.429 . S
C67 H77 0.930 . S
C68 C64 1.332 1_545 S
C68 C69 1.394 . S
C68 H78 0.932 . S
C69 C65 1.308 1_545 S
C69 C68 1.394 . S
C69 H79 0.929 . S
C70 Tb41 2.764 . S
C70 O54 1.239 . S
C70 O55 1.263 . S
C70 C64 1.504 . S
C71 O56 1.236 1_455 S
C71 O57 1.257 . S
H72 C45 0.932 . S
H73 C46 0.930 . S
H74 C47 0.932 . S
H75 C48 0.929 . S
H76 C66 0.932 . S
H77 C67 0.930 . S
H78 C68 0.932 . S
H79 C69 0.929 . S
Tb80 C89 2.764 . S
Tb80 O90 2.325 . S
Tb80 O93 2.303 1_655 S
Tb80 O97 2.322 1_655 S
Tb80 O98 2.349 . S
Tb80 O101 2.415 . S
Tb80 O102 2.399 . S
Tb81 O91 2.322 1_455 S
Tb81 O92 2.349 1_565 S
Tb81 O94 2.415 1_565 S
Tb81 O95 2.399 . S
Tb81 O96 2.325 1_565 S
Tb81 O99 2.303 1_565 S
Tb81 C110 2.764 . S
C82 O98 1.261 1_455 S
C82 O99 1.257 . S
C83 C86 1.358 . S
C83 C87 1.332 . S
C83 C89 1.504 . S
C84 C85 1.373 . S
C84 C88 1.308 . S
C85 C84 1.373 . S
C85 C86 1.429 . S
C85 H112 0.932 . S
C86 C83 1.358 . S
C86 C85 1.429 . S
C86 H113 0.930 . S
C87 C83 1.332 . S
C87 C88 1.394 . S
C87 H114 0.932 . S
C88 C84 1.308 . S
C88 C87 1.394 . S
C88 H115 0.929 . S
C89 Tb80 2.764 . S
C89 C83 1.504 . S
C89 O101 1.239 . S
C89 O102 1.263 . S
O90 Tb80 2.325 . S
O90 C100 1.236 1_545 S
O91 Tb81 2.322 1_655 S
O91 C100 1.257 . S
O92 Tb81 2.349 1_545 S
O92 C103 1.261 . S
O93 Tb80 2.303 1_455 S
O93 C103 1.257 . S
O94 Tb81 2.415 1_545 S
O94 C110 1.239 1_545 S
O95 Tb81 2.399 . S
O95 C110 1.263 . S
O96 Tb81 2.325 1_545 S
O96 C111 1.236 . S
O97 Tb80 2.322 1_455 S
O97 C111 1.257 . S
O98 Tb80 2.349 . S
O98 C82 1.261 1_655 S
O99 Tb81 2.303 1_545 S
O99 C82 1.257 . S
C100 O90 1.236 1_565 S
C100 O91 1.257 . S
O101 Tb80 2.415 . S
O101 C89 1.239 . S
O102 Tb80 2.399 . S
O102 C89 1.263 . S
C103 O92 1.261 . S
C103 O93 1.257 . S
C104 C107 1.358 . S
C104 C108 1.332 1_565 S
C104 C110 1.504 . S
C105 C106 1.373 . S
C105 C109 1.308 1_565 S
C106 C105 1.373 . S
C106 C107 1.429 . S
C106 H116 0.932 . S
C107 C104 1.358 . S
C107 C106 1.429 . S
C107 H117 0.930 . S
C108 C104 1.332 1_545 S
C108 C109 1.394 . S
C108 H118 0.932 . S
C109 C105 1.308 1_545 S
C109 C108 1.394 . S
C109 H119 0.929 . S
C110 Tb81 2.764 . S
C110 O94 1.239 1_565 S
C110 O95 1.263 . S
C110 C104 1.504 . S
C111 O96 1.236 . S
C111 O97 1.257 . S
H112 C85 0.932 . S
H113 C86 0.930 . S
H114 C87 0.932 . S
H115 C88 0.929 . S
H116 C106 0.932 . S
H117 C107 0.930 . S
H118 C108 0.932 . S
H119 C109 0.929 . S
C120 C121 1.387 . S
C120 H124 0.950 . S
C120 C129 1.390 . S
C121 C120 1.387 . S
C121 C123 1.387 1_554 S
H122 C129 0.950 . S
C123 C121 1.387 1_556 S
C123 C125 1.390 . S
C123 H127 0.950 . S
H124 C120 0.950 . S
C125 C123 1.390 . S
C125 C126 1.387 1_556 S
C125 H128 0.950 . S
C126 C125 1.387 1_554 S
C126 C129 1.387 . S
H127 C123 0.950 . S
H128 C125 0.950 . S
C129 C120 1.390 . S
C129 H122 0.950 . S
C129 C126 1.387 . S
C130 C131 1.387 . S
C130 H134 0.950 . S
C130 C139 1.390 . S
C131 C130 1.387 . S
C131 C133 1.387 1_545 S
H132 C139 0.950 . S
C133 C131 1.387 1_565 S
C133 C135 1.390 . S
C133 H137 0.950 . S
H134 C130 0.950 . S
C135 C133 1.390 . S
C135 C136 1.387 . S
C135 H138 0.950 . S
C136 C135 1.387 . S
C136 C139 1.387 1_565 S
H137 C133 0.950 . S
H138 C135 0.950 . S
C139 C130 1.390 . S
C139 H132 0.950 . S
C139 C136 1.387 1_545 S
C140 C141 1.387 . S
C140 H144 0.950 . S
C140 C149 1.390 . S
C141 C140 1.387 . S
C141 C143 1.387 . S
H142 C149 0.950 . S
C143 C141 1.387 . S
C143 C145 1.390 . S
C143 H147 0.950 . S
H144 C140 0.950 . S
C145 C143 1.390 . S
C145 C146 1.387 . S
C145 H148 0.950 . S
C146 C145 1.387 . S
C146 C149 1.387 . S
H147 C143 0.950 . S
H148 C145 0.950 . S
C149 C140 1.390 . S
C149 H142 0.950 . S
C149 C146 1.387 . S
C150 C151 1.387 . S
C150 H154 0.950 . S
C150 C159 1.390 . S
C151 C150 1.387 . S
C151 C153 1.387 . S
H152 C159 0.950 . S
C153 C151 1.387 . S
C153 C155 1.390 . S
C153 H157 0.950 . S
H154 C150 0.950 . S
C155 C153 1.390 . S
C155 C156 1.387 . S
C155 H158 0.950 . S
C156 C155 1.387 . S
C156 C159 1.387 . S
H157 C153 0.950 . S
H158 C155 0.950 . S
C159 C150 1.390 . S
C159 H152 0.950 . S
C159 C156 1.387 . S
C160 C161 1.387 1_556 S
C160 H164 0.950 . S
C160 C169 1.390 . S
C161 C160 1.387 1_554 S
C161 C163 1.387 . S
H162 C169 0.950 . S
C163 C161 1.387 . S
C163 C165 1.390 . S
C163 H167 0.950 . S
H164 C160 0.950 . S
C165 C163 1.390 . S
C165 C166 1.387 . S
C165 H168 0.950 . S
C166 C165 1.387 . S
C166 C169 1.387 1_554 S
H167 C163 0.950 . S
H168 C165 0.950 . S
C169 C160 1.390 . S
C169 H162 0.950 . S
C169 C166 1.387 1_556 S
C170 C171 1.387 . S
C170 H174 0.950 . S
C170 C179 1.390 . S
C171 C170 1.387 . S
C171 C173 1.387 1_455 S
H172 C179 0.950 . S
C173 C171 1.387 1_655 S
C173 C175 1.390 . S
C173 H177 0.950 . S
H174 C170 0.950 . S
C175 C173 1.390 . S
C175 C176 1.387 . S
C175 H178 0.950 . S
C176 C175 1.387 . S
C176 C179 1.387 1_655 S
H177 C173 0.950 . S
H178 C175 0.950 . S
C179 C170 1.390 . S
C179 H172 0.950 . S
C179 C176 1.387 1_455 S
C180 C181 1.387 1_655 S
C180 H184 0.950 . S
C180 C189 1.390 . S
C181 C180 1.387 1_455 S
C181 C183 1.387 1_565 S
H182 C189 0.950 . S
C183 C181 1.387 1_545 S
C183 C185 1.390 . S
C183 H187 0.950 . S
H184 C180 0.950 . S
C185 C183 1.390 . S
C185 C186 1.387 . S
C185 H188 0.950 . S
C186 C185 1.387 . S
C186 C189 1.387 1_445 S
H187 C183 0.950 . S
H188 C185 0.950 . S
C189 C180 1.390 . S
C189 H182 0.950 . S
C189 C186 1.387 1_665 S
C190 C191 1.387 1_565 S
C190 H194 0.950 . S
C190 C199 1.390 1_565 S
C191 C190 1.387 1_545 S
C191 C193 1.387 1_455 S
H192 C199 0.950 1_565 S
C193 C191 1.387 1_655 S
C193 C195 1.390 . S
C193 H197 0.950 . S
H194 C190 0.950 . S
C195 C193 1.390 . S
C195 C196 1.387 1_655 S
C195 H198 0.950 . S
C196 C195 1.387 1_455 S
C196 C199 1.387 . S
H197 C193 0.950 . S
H198 C195 0.950 . S
C199 C190 1.390 1_545 S
C199 H192 0.950 1_545 S
C199 C196 1.387 . S
C200 C201 1.387 1_655 S
C200 H204 0.950 . S
C200 C209 1.390 . S
C201 C200 1.387 1_455 S
C201 C203 1.387 . S
H202 C209 0.950 . S
C203 C201 1.387 . S
C203 C205 1.390 . S
C203 H207 0.950 . S
H204 C200 0.950 . S
C205 C203 1.390 . S
C205 C206 1.387 . S
C205 H208 0.950 . S
C206 C205 1.387 . S
C206 C209 1.387 1_455 S
H207 C203 0.950 . S
H208 C205 0.950 . S
C209 C200 1.390 . S
C209 H202 0.950 . S
C209 C206 1.387 1_655 S
C121 C31 2.999 . S
C126 C20 3.009 . S
C131 C44 0.524 . S
C136 C65 0.524 . S
C141 C100 4.935 . S
C146 C111 4.935 . S
C151 C84 1.163 . S
C156 C105 1.163 1_545 S
C161 C4 0.707 . S
C166 C25 0.707 . S
C171 C71 2.927 . S
C176 C60 2.927 . S
C181 C63 1.503 1_455 S
C186 C23 1.508 . S
C191 C42 1.484 . S
C196 C82 1.502 . S
C201 C103 1.463 . S
C206 C2 1.481 . S
