# Generated by pormake.
# Topology pcu, (6)-cn, num edge types: 1
# Building blocks:
#     Node 0, Type 0, BuildingBlock: VOLQOD_clean_sbu_1, # of connection points: 6
#     Edge 1, Type (0, 0), BuildingBlock: ZUJKAS_clean_linker_0, # of connection points: 2
#     Edge 2, Type (0, 0), BuildingBlock: ZUJKAS_clean_linker_0, # of connection points: 2
#     Edge 3, Type (0, 0), BuildingBlock: ZUJKAS_clean_linker_0, # of connection points: 2
# Relax obj value: 0.082
# Max RMSD: 0.143
# Mean RMSD: 0.143
data_MOF--net-pcu--node1-VOLQOD_clean_sbu_1--edge1-ZUJKAS_clean_linker_0
_symmetry_space_group_name_H-M    P1
_symmetry_Int_Tables_number       1
_symmetry_cell_setting            triclinic
loop_
_symmetry_equiv_pos_as_xyz
'x, y, z'
_cell_length_a     21.80645
_cell_length_b     21.816371
_cell_length_c     21.827226
_cell_angle_alpha  90.838802
_cell_angle_beta   90.054289
_cell_angle_gamma 91.336446
loop_
_atom_site_label
_atom_site_type_symbol
_atom_site_fract_x
_atom_site_fract_y
_atom_site_fract_z
_atom_type_partial_charge
O0 O 0.01952 0.01963 0.13745 0.0
Zn1 Zn 0.03568 0.03526 0.04791 0.0
O2 O 0.98314 -0.01764 -0.00448 0.0
Zn3 Zn 0.03407 0.9306 0.94329 0.0
Zn4 Zn 0.93037 0.93039 0.04671 0.0
Zn5 Zn 0.93221 0.03312 0.94381 0.0
O6 O 0.01743 0.94436 0.8537 0.0
O7 O 0.94906 0.01813 0.85416 0.0
O8 O 0.12521 0.02001 0.03197 0.0
O9 O 0.12374 0.94884 0.95817 0.0
O10 O 0.01848 0.841 0.95991 0.0
O11 O 0.94449 0.84078 0.02968 0.0
O12 O 0.84088 0.94607 0.03157 0.0
O13 O 0.02078 0.1248 0.03275 0.0
O14 O 0.84246 0.01537 0.9581 0.0
O15 O 0.94768 0.1228 0.96185 0.0
C16 C -0.0164 -0.01728 0.16552 0.0
C17 C 0.98329 0.98108 0.82529 0.0
C18 C 0.9813 0.81224 -0.0052 0.0
C19 C 0.15311 -0.01521 -0.0052 0.0
C20 C 0.81302 0.98051 -0.0054 0.0
C21 C -0.01587 0.15244 -0.00233 0.0
O22 O 0.94744 0.94605 0.13634 0.0
H23 H 0.04103 0.06449 0.24427 0.0
H24 H 0.04121 0.06323 0.3562 0.0
H25 H 0.92865 0.89799 0.3525 0.0
H26 H 0.92684 0.89971 0.24065 0.0
H27 H 0.88752 0.97974 0.43521 0.0
H28 H 0.1378 0.95327 0.4657 0.0
H29 H 0.11926 0.01901 0.42149 0.0
H30 H 0.10049 0.9433 0.39231 0.0
C31 C 0.01647 0.02773 0.26721 0.0
C32 C -0.01588 -0.01795 0.23341 0.0
C33 C 0.01697 0.02687 0.33124 0.0
C34 C -0.01407 0.97987 0.36271 0.0
C35 C 0.95319 0.93453 0.32915 0.0
H36 H 0.03481 0.89707 0.74772 0.0
H37 H 0.03355 0.8959 0.63573 0.0
C38 C 0.95223 0.9356 0.26517 0.0
C39 C -0.01385 0.9787 0.43065 0.0
H40 H 0.0805 0.97676 0.55549 0.0
C41 C 0.9297 0.97882 0.46153 0.0
C42 C 0.04118 0.97655 0.46491 0.0
C43 C 0.10308 0.97239 0.43444 0.0
C44 C 0.92677 0.97776 0.52574 0.0
C45 C 0.98189 0.97821 0.56005 0.0
C46 C 0.03831 0.97712 0.52916 0.0
C47 C 0.9821 0.97909 0.62803 0.0
C48 C 0.86459 0.9749 0.55603 0.0
C49 C 0.95424 0.02665 0.66094 0.0
C50 C 0.95436 0.02716 0.72497 0.0
C51 C 0.98324 0.98059 0.75739 0.0
C52 C 0.01211 0.93362 0.72425 0.0
C53 C 0.01148 0.93288 0.66021 0.0
H54 H 0.82861 0.9567 0.52411 0.0
H55 H 0.86509 0.94564 0.59721 0.0
H56 H 0.85163 0.02182 0.57046 0.0
H57 H 0.93273 0.06367 0.63711 0.0
H58 H 0.93226 0.06438 0.74901 0.0
H59 H 0.23191 0.04003 0.07758 0.0
H60 H 0.34396 0.03944 0.07689 0.0
H61 H 0.34021 0.93153 0.90971 0.0
H62 H 0.2282 0.93043 0.91083 0.0
H63 H 0.41964 0.88718 0.99133 0.0
H64 H 0.45908 0.13784 0.96966 0.0
H65 H 0.41282 0.11795 0.03465 0.0
H66 H 0.38462 0.1016 0.9585 0.0
C67 C 0.25489 0.0164 0.04047 0.0
C68 C 0.22104 -0.01454 -0.00587 0.0
C69 C 0.31898 0.01643 0.03997 0.0
C70 C 0.35046 -0.01361 -0.00735 0.0
C71 C 0.31683 0.95523 0.94652 0.0
H72 H 0.73786 0.03353 0.91121 0.0
H73 H 0.62584 0.03278 0.91017 0.0
C74 C 0.25278 0.9547 0.94725 0.0
C75 C 0.41844 -0.01412 0.99199 0.0
H76 H 0.54652 0.07887 0.99229 0.0
C77 C 0.44742 0.92908 0.99129 0.0
C78 C 0.45457 0.04058 0.99104 0.0
C79 C 0.42625 0.10293 0.98787 0.0
C80 C 0.51157 0.92545 0.99045 0.0
C81 C 0.54771 0.98017 0.99196 0.0
C82 C 0.51873 0.03697 0.99183 0.0
C83 C 0.61568 0.97965 -0.00735 0.0
C84 C 0.53988 0.86304 0.98663 0.0
C85 C 0.64721 0.9505 0.0397 0.0
C86 C 0.7113 0.95033 0.04015 0.0
C87 C 0.74509 0.98017 -0.00598 0.0
C88 C 0.71331 0.0101 0.94744 0.0
C89 C 0.64926 0.00977 0.94677 0.0
H90 H 0.50699 0.82778 0.96807 0.0
H91 H 0.58143 0.8638 0.95726 0.0
H92 H 0.55343 0.8489 0.03326 0.0
H93 H 0.62227 0.9283 0.07643 0.0
H94 H 0.7343 0.92738 0.07703 0.0
H95 H 0.0645 0.73605 0.94158 0.0
H96 H 0.06447 0.62413 0.94288 0.0
H97 H 0.89754 0.62252 0.04873 0.0
H98 H 0.89799 0.73457 0.0491 0.0
H99 H 0.9799 0.54447 0.09383 0.0
H100 H 0.95669 0.50755 0.84303 0.0
H101 H 0.02172 0.55541 0.86359 0.0
H102 H 0.94548 0.58122 0.87941 0.0
C103 C 0.02758 0.71195 0.96494 0.0
C104 C 0.98105 0.74433 -0.00503 0.0
C105 C 0.02748 0.64791 0.96533 0.0
C106 C 0.98038 0.61493 -0.0051 0.0
C107 C 0.93417 0.64707 0.02536 0.0
H108 H 0.9005 0.22632 0.9442 0.0
H109 H 0.89908 0.33819 0.94608 0.0
C110 C 0.93449 0.71113 0.02546 0.0
C111 C 0.97991 0.54695 -0.00478 0.0
H112 H 0.98049 0.42017 0.90174 0.0
C113 C 0.97976 0.51724 0.05184 0.0
C114 C 0.97885 0.51149 0.9404 0.0
C115 C 0.97506 0.54048 0.87818 0.0
C116 C 0.9794 0.45302 0.05518 0.0
C117 C 0.98079 0.41764 0.00035 0.0
C118 C 0.98012 0.44736 0.94374 0.0
C119 C 0.98168 0.34968 0.00048 0.0
C120 C 0.9762 0.42379 0.11738 0.0
C121 C 0.02893 0.31891 0.02999 0.0
C122 C 0.0296 0.25483 0.0295 0.0
C123 C -0.01648 0.22034 -0.00138 0.0
C124 C 0.93675 0.2514 0.96838 0.0
C125 C 0.93584 0.31539 0.96938 0.0
H126 H 0.9577 0.45565 0.1526 0.0
H127 H 0.94702 0.3814 0.11616 0.0
H128 H 0.02306 0.41146 0.13184 0.0
H129 H 0.06566 0.34443 0.05294 0.0
H130 H 0.0666 0.2324 0.05275 0.0
loop_
_geom_bond_atom_site_label_1
_geom_bond_atom_site_label_2
_geom_bond_distance
_geom_bond_site_symmetry_2
_ccdc_geom_bond_type
O0 Zn1 1.953 . S
O0 C16 1.225 . S
Zn1 O0 1.953 . S
Zn1 O2 1.941 1_454 S
Zn1 O8 1.919 . S
Zn1 O13 1.924 . S
O2 Zn1 1.941 1_656 S
O2 Zn3 1.931 1_645 S
O2 Zn4 1.942 1_546 S
O2 Zn5 1.953 . S
Zn3 O2 1.931 1_465 S
Zn3 O6 1.933 . S
Zn3 O9 1.941 . S
Zn3 O10 1.965 . S
Zn4 O2 1.942 1_564 S
Zn4 O11 1.938 . S
Zn4 O12 1.906 . S
Zn4 O22 1.953 . S
Zn5 O2 1.953 . S
Zn5 O7 1.932 . S
Zn5 O14 1.977 . S
Zn5 O15 1.910 . S
O6 Zn3 1.933 . S
O6 C17 1.230 . S
O7 Zn5 1.932 . S
O7 C17 1.303 1_645 S
O8 Zn1 1.919 . S
O8 C19 1.253 1_544 S
O9 Zn3 1.941 . S
O9 C19 1.283 . S
O10 Zn3 1.965 . S
O10 C18 1.303 1_456 S
O11 Zn4 1.938 . S
O11 C18 1.247 . S
O12 Zn4 1.906 . S
O12 C20 1.304 1_564 S
O13 Zn1 1.924 . S
O13 C21 1.311 . S
O14 Zn5 1.977 . S
O14 C20 1.272 . S
O15 Zn5 1.910 . S
O15 C21 1.231 1_656 S
C16 O0 1.225 . S
C16 O22 1.298 1_445 S
C17 O6 1.230 . S
C17 O7 1.303 1_465 S
C18 O10 1.303 1_654 S
C18 O11 1.247 . S
C19 O8 1.253 1_566 S
C19 O9 1.283 . S
C20 O12 1.304 1_546 S
C20 O14 1.272 . S
C21 O13 1.311 . S
C21 O15 1.231 1_454 S
O22 Zn4 1.953 . S
O22 C16 1.298 1_665 S
H23 C31 0.929 1_655 S
H24 C33 0.930 1_655 S
H25 C35 0.930 . S
H26 C38 0.929 . S
H27 C41 0.930 . S
H28 C43 0.960 . S
H29 C43 0.960 . S
H30 C43 0.960 . S
C31 H23 0.929 1_455 S
C31 C32 1.378 . S
C31 C33 1.384 . S
C32 C31 1.378 . S
C32 C38 1.390 1_545 S
C33 H24 0.930 1_455 S
C33 C31 1.384 . S
C33 C34 1.372 . S
C34 C33 1.372 . S
C34 C35 1.400 1_545 S
C34 C39 1.490 . S
C35 H25 0.930 . S
C35 C34 1.400 1_565 S
C35 C38 1.386 . S
H36 C52 0.930 . S
H37 C53 0.931 . S
C38 H26 0.929 . S
C38 C32 1.390 1_565 S
C38 C35 1.386 . S
C39 C34 1.490 . S
C39 C41 1.390 1_455 S
C39 C42 1.407 1_545 S
H40 C46 0.930 . S
C41 H27 0.930 . S
C41 C39 1.390 1_655 S
C41 C44 1.403 . S
C42 C39 1.407 1_565 S
C42 C43 1.524 . S
C42 C46 1.400 . S
C43 H28 0.960 . S
C43 H29 0.960 . S
C43 H30 0.960 . S
C43 C42 1.524 . S
C44 C41 1.403 . S
C44 C45 1.392 . S
C44 C48 1.495 . S
C45 C44 1.392 . S
C45 C46 1.385 1_645 S
C45 C47 1.478 . S
C46 H40 0.930 . S
C46 C42 1.400 . S
C46 C45 1.385 1_465 S
C47 C45 1.478 . S
C47 C49 1.381 . S
C47 C53 1.383 1_545 S
C48 C44 1.495 . S
C48 H54 0.959 . S
C48 H55 0.961 . S
C48 H56 0.960 . S
C49 C47 1.381 . S
C49 C50 1.395 . S
C49 H57 0.930 . S
C50 C49 1.395 . S
C50 C51 1.383 . S
C50 H58 0.929 1_655 S
C51 C50 1.383 . S
C51 C52 1.377 1_545 S
C52 H36 0.930 . S
C52 C51 1.377 1_565 S
C52 C53 1.379 . S
C53 H37 0.931 . S
C53 C47 1.383 1_565 S
C53 C52 1.379 . S
H54 C48 0.959 . S
H55 C48 0.961 . S
H56 C48 0.960 . S
H57 C49 0.930 . S
H58 C50 0.929 1_455 S
H59 C67 0.929 . S
H60 C69 0.930 . S
H61 C71 0.930 . S
H62 C74 0.929 . S
H63 C77 0.930 . S
H64 C79 0.960 . S
H65 C79 0.960 1_554 S
H66 C79 0.960 . S
C67 H59 0.929 . S
C67 C68 1.377 1_554 S
C67 C69 1.384 . S
C68 C67 1.377 1_556 S
C68 C74 1.390 1_565 S
C69 H60 0.930 . S
C69 C67 1.384 . S
C69 C70 1.372 1_554 S
C70 C69 1.372 1_556 S
C70 C71 1.400 1_565 S
C70 C75 1.490 . S
C71 H61 0.930 . S
C71 C70 1.400 1_545 S
C71 C74 1.386 . S
H72 C88 0.930 . S
H73 C89 0.931 . S
C74 H62 0.929 . S
C74 C68 1.390 1_545 S
C74 C71 1.386 . S
C75 C70 1.490 . S
C75 C77 1.395 . S
C75 C78 1.403 1_565 S
H76 C82 0.930 . S
C77 H63 0.930 . S
C77 C75 1.395 . S
C77 C80 1.403 . S
C78 C75 1.403 1_545 S
C78 C79 1.524 . S
C78 C82 1.400 . S
C79 H64 0.960 . S
C79 H65 0.960 1_556 S
C79 H66 0.960 . S
C79 C78 1.524 . S
C80 C77 1.403 . S
C80 C81 1.392 . S
C80 C84 1.495 . S
C81 C80 1.392 . S
C81 C82 1.385 1_565 S
C81 C83 1.478 . S
C82 H76 0.930 . S
C82 C78 1.400 . S
C82 C81 1.385 1_545 S
C83 C81 1.478 . S
C83 C85 1.381 1_556 S
C83 C89 1.383 1_565 S
C84 C80 1.495 . S
C84 H90 0.959 . S
C84 H91 0.961 . S
C84 H92 0.960 . S
C85 C83 1.381 1_554 S
C85 C86 1.394 . S
C85 H93 0.930 . S
C86 C85 1.394 . S
C86 C87 1.383 1_554 S
C86 H94 0.929 . S
C87 C86 1.383 1_556 S
C87 C88 1.377 1_565 S
C88 H72 0.930 . S
C88 C87 1.377 1_545 S
C88 C89 1.379 . S
C89 H73 0.931 . S
C89 C83 1.383 1_545 S
C89 C88 1.379 . S
H90 C84 0.959 . S
H91 C84 0.961 . S
H92 C84 0.960 . S
H93 C85 0.930 . S
H94 C86 0.929 . S
H95 C103 0.929 . S
H96 C105 0.930 . S
H97 C107 0.930 1_556 S
H98 C110 0.919 1_556 S
H99 C113 0.930 . S
H100 C115 0.960 . S
H101 C115 0.960 . S
H102 C115 0.960 1_655 S
C103 H95 0.929 . S
C103 C104 1.377 . S
C103 C105 1.384 . S
C104 C103 1.377 . S
C104 C110 1.400 1_455 S
C105 H96 0.930 . S
C105 C103 1.384 . S
C105 C106 1.372 . S
C106 C105 1.372 . S
C106 C107 1.400 1_455 S
C106 C111 1.490 . S
C107 H97 0.930 1_554 S
C107 C106 1.400 1_655 S
C107 C110 1.386 . S
H108 C124 0.930 1_556 S
H109 C125 0.931 . S
C110 H98 0.919 1_554 S
C110 C104 1.400 1_655 S
C110 C107 1.386 . S
C111 C106 1.490 . S
C111 C113 1.395 1_455 S
C111 C114 1.403 1_554 S
H112 C118 0.930 . S
C113 H99 0.930 . S
C113 C111 1.395 1_655 S
C113 C116 1.403 . S
C114 C111 1.403 1_556 S
C114 C115 1.524 . S
C114 C118 1.400 . S
C115 H100 0.960 . S
C115 H101 0.960 . S
C115 H102 0.960 1_455 S
C115 C114 1.524 . S
C116 C113 1.403 . S
C116 C117 1.392 1_655 S
C116 C120 1.495 . S
C117 C116 1.392 1_455 S
C117 C118 1.385 1_554 S
C117 C119 1.478 1_455 S
C118 H112 0.930 . S
C118 C114 1.400 . S
C118 C117 1.385 1_556 S
C119 C117 1.478 1_655 S
C119 C121 1.379 1_655 S
C119 C125 1.384 . S
C120 C116 1.495 . S
C120 H126 0.959 . S
C120 H127 0.961 . S
C120 H128 0.960 1_655 S
C121 C119 1.379 1_455 S
C121 C122 1.394 . S
C121 H129 0.930 . S
C122 C121 1.394 . S
C122 C123 1.385 . S
C122 H130 0.929 . S
C123 C122 1.385 . S
C123 C124 1.375 1_455 S
C124 H108 0.930 1_554 S
C124 C123 1.375 1_655 S
C124 C125 1.379 . S
C125 H109 0.931 . S
C125 C119 1.384 . S
C125 C124 1.379 . S
H126 C120 0.959 . S
H127 C120 0.961 . S
H128 C120 0.960 1_455 S
H129 C121 0.930 . S
H130 C122 0.929 . S
C32 C16 1.499 . S
C51 C17 1.494 1_645 S
C68 C19 1.412 . S
C87 C20 1.437 1_565 S
C104 C18 1.414 1_455 S
C123 C21 1.438 . S
