# Generated by pormake.
# Topology pcu, (6)-cn, num edge types: 1
# Building blocks:
#     Node 0, Type 0, BuildingBlock: MIDCAF_clean_sbu_0, # of connection points: 6
#     Edge 1, Type (0, 0), BuildingBlock: ZUJKAS_clean_linker_0, # of connection points: 2
#     Edge 2, Type (0, 0), BuildingBlock: ZUJKAS_clean_linker_0, # of connection points: 2
#     Edge 3, Type (0, 0), BuildingBlock: ZUJKAS_clean_linker_0, # of connection points: 2
# Relax obj value: 0.148
# Max RMSD: 0.201
# Mean RMSD: 0.201
data_MOF--net-pcu--node1-MIDCAF_clean_sbu_0--edge1-ZUJKAS_clean_linker_0
_symmetry_space_group_name_H-M    P1
_symmetry_Int_Tables_number       1
_symmetry_cell_setting            triclinic
loop_
_symmetry_equiv_pos_as_xyz
'x, y, z'
_cell_length_a     19.520001
_cell_length_b     19.535631
_cell_length_c     19.530249
_cell_angle_alpha  92.993562
_cell_angle_beta   93.086634
_cell_angle_gamma 93.557894
loop_
_atom_site_label
_atom_site_type_symbol
_atom_site_fract_x
_atom_site_fract_y
_atom_site_fract_z
_atom_type_partial_charge
Zn0 Zn 0.92658 0.9322 0.9239 0.0
Zn1 Zn 0.08658 0.07653 0.08175 0.0
Zn2 Zn 1.00559 1.00473 1.00395 0.0
C3 C 0.15408 0.07126 0.96489 0.0
C4 C 0.07306 0.95852 0.14794 0.0
O5 O 0.90993 0.06037 0.98501 0.0
O6 O 0.86077 0.9993 0.89533 0.0
C7 C 0.0433 0.93898 0.85552 0.0
O8 O 0.1039 0.02549 0.95131 0.0
O9 O 0.15535 0.10937 0.01903 0.0
O10 O 0.11608 0.00927 0.14733 0.0
O11 O 0.02465 0.94912 0.10006 0.0
O12 O 0.98877 0.90087 0.85452 0.0
O13 O 0.05758 0.98436 0.90554 0.0
O14 O 0.9803 0.90563 0.05345 0.0
O15 O 0.89316 0.86204 0.98504 0.0
C16 C 0.93201 0.85822 0.03821 0.0
O17 O 0.95691 0.10364 0.0291 0.0
O18 O 0.02597 0.1458 0.11619 0.0
C19 C 0.86132 0.05052 0.93738 0.0
C20 C 0.97274 0.15031 0.07762 0.0
H21 H 0.96528 0.93146 0.22676 0.0
H22 H 0.97533 0.91266 0.34982 0.0
H23 H 0.19121 0.88204 0.3355 0.0
H24 H 0.18193 0.90518 0.2135 0.0
H25 H 0.01254 0.82441 0.43844 0.0
H26 H 0.20408 0.04715 0.46481 0.0
H27 H 0.15738 0.02128 0.38468 0.0
H28 H 0.23158 0.97723 0.41224 0.0
C29 C 0.01424 0.91818 0.24945 0.0
C30 C 0.07293 0.92022 0.21098 0.0
C31 C 0.0202 0.90812 0.32 0.0
C32 C 0.08476 0.8989 0.35271 0.0
C33 C 0.1415 0.892 0.31219 0.0
H34 H 0.09315 0.82733 0.79225 0.0
H35 H 0.11709 0.81532 0.6706 0.0
C36 C 0.13591 0.90384 0.24218 0.0
C37 C 0.09353 0.90259 0.42922 0.0
H38 H 0.18212 0.99052 0.5659 0.0
C39 C 0.04984 0.86051 0.46627 0.0
C40 C 0.14113 0.95098 0.46586 0.0
C41 C 0.18568 1.00222 0.42995 0.0
C42 C 0.05188 0.86566 0.53845 0.0
C43 C 0.10121 0.91226 0.57512 0.0
C44 C 0.14524 0.95398 0.53807 0.0
C45 C 0.10411 0.92206 0.65154 0.0
C46 C 0.99868 0.82336 0.57423 0.0
C47 C 0.09671 0.98743 0.68313 0.0
C48 C 0.08625 0.99486 0.75351 0.0
C49 C 0.08211 0.93689 0.79293 0.0
C50 C 0.0964 0.87284 0.76284 0.0
C51 C 0.10863 0.86573 0.69303 0.0
H52 H 0.95369 0.80597 0.53895 0.0
H53 H 0.02184 0.77688 0.59297 0.0
H54 H 0.97996 0.85294 0.61878 0.0
H55 H 0.09395 0.03197 0.65255 0.0
H56 H 0.07439 0.04459 0.77532 0.0
H57 H 0.23301 0.96577 0.93342 0.0
H58 H 0.356 0.97846 0.91393 0.0
H59 H 0.34042 0.19555 0.89125 0.0
H60 H 0.21856 0.18342 0.91508 0.0
H61 H 0.44353 0.02106 0.8261 0.0
H62 H 0.47151 0.20264 0.05505 0.0
H63 H 0.39125 0.15597 0.02839 0.0
H64 H 0.41802 0.23263 0.98693 0.0
C65 C 0.25541 0.01564 0.92165 0.0
C66 C 0.21663 0.07367 0.92595 0.0
C67 C 0.32591 0.0231 0.91122 0.0
C68 C 0.35826 0.08856 0.90401 0.0
C69 C 0.3174 0.14503 0.89956 0.0
H70 H 0.79731 0.10553 0.82848 0.0
H71 H 0.6756 0.1292 0.81857 0.0
C72 C 0.24746 0.13787 0.91174 0.0
C73 C 0.43482 0.09827 0.90719 0.0
H74 H 0.57215 0.18478 0.99667 0.0
C75 C 0.47162 0.05709 0.86318 0.0
C76 C 0.4718 0.14418 0.95679 0.0
C77 C 0.43622 0.18582 0.00995 0.0
C78 C 0.54389 0.05994 0.86759 0.0
C79 C 0.58088 0.10764 0.91551 0.0
C80 C 0.54407 0.14921 0.95915 0.0
C81 C 0.65743 0.11102 0.92469 0.0
C82 C 0.57945 0.00921 0.82304 0.0
C83 C 0.6896 0.10089 0.98931 0.0
C84 C 0.76003 0.09057 0.99565 0.0
C85 C 0.79889 0.0892 0.93727 0.0
C86 C 0.76832 0.10643 0.87426 0.0
C87 C 0.69846 0.11855 0.86831 0.0
H88 H 0.54411 0.96458 0.80428 0.0
H89 H 0.59775 0.03485 0.77743 0.0
H90 H 0.62434 0.98963 0.85141 0.0
H91 H 0.6594 0.09584 0.03392 0.0
H92 H 0.78222 0.07657 0.04461 0.0
H93 H 0.81697 0.77534 0.04844 0.0
H94 H 0.81189 0.65462 0.0739 0.0
H95 H 0.02874 0.67154 0.13253 0.0
H96 H 0.03434 0.79313 0.10564 0.0
H97 H 0.99588 0.57259 0.03136 0.0
H98 H 0.81608 0.5379 0.23789 0.0
H99 H 0.7802 0.5846 0.16944 0.0
H100 H 0.85473 0.62099 0.22004 0.0
C101 C 0.86319 0.75409 0.06912 0.0
C102 C 0.92617 0.79371 0.07472 0.0
C103 C 0.8601 0.68488 0.08396 0.0
C104 C 0.91982 0.65371 0.10528 0.0
C105 C 0.9819 0.69453 0.11623 0.0
H106 H 0.96338 0.23123 0.19323 0.0
H107 H 0.94041 0.35252 0.19911 0.0
C108 C 0.98499 0.76421 0.10153 0.0
C109 C 0.91889 0.57746 0.10605 0.0
H110 H 0.83583 0.43654 0.16842 0.0
C111 C 0.9613 0.54292 0.06185 0.0
C112 C 0.87364 0.53857 0.14561 0.0
C113 C 0.82909 0.57246 0.19641 0.0
C114 C 0.95924 0.47086 0.05544 0.0
C115 C 0.91223 0.43189 0.09308 0.0
C116 C 0.87062 0.46634 0.13828 0.0
C117 C 0.91092 0.35552 0.09104 0.0
C118 C 0.0087 0.43718 0.00951 0.0
C119 C 0.89749 0.31549 0.02914 0.0
C120 C 0.9105 0.24552 0.02561 0.0
C121 C 0.9371 0.21491 0.08402 0.0
C122 C 0.94345 0.25354 0.14719 0.0
C123 C 0.93043 0.32304 0.15066 0.0
H124 H 0.0512 0.47387 0.99646 0.0
H125 H 0.03136 0.3933 0.03434 0.0
H126 H 0.9807 0.41732 0.96087 0.0
H127 H 0.88085 0.33923 0.98274 0.0
H128 H 0.90524 0.2172 0.97623 0.0
loop_
_geom_bond_atom_site_label_1
_geom_bond_atom_site_label_2
_geom_bond_distance
_geom_bond_site_symmetry_2
_ccdc_geom_bond_type
Zn0 O6 1.920 . S
Zn0 O12 1.898 . S
Zn0 O15 1.905 . S
Zn1 O9 1.905 . S
Zn1 O10 1.898 . S
Zn1 O18 1.920 . S
Zn2 O5 2.075 1_455 S
Zn2 O8 2.120 . S
Zn2 O11 2.119 1_465 S
Zn2 O13 2.120 1_464 S
Zn2 O14 2.116 1_554 S
Zn2 O17 2.079 1_564 S
C3 O8 1.166 1_545 S
C3 O9 1.182 . S
C4 O10 1.175 . S
C4 O11 1.300 1_455 S
O5 Zn2 2.075 1_655 S
O5 C19 1.305 1_554 S
O6 Zn0 1.920 . S
O6 C19 1.234 . S
C7 O12 1.173 . S
C7 O13 1.300 1_565 S
O8 Zn2 2.120 . S
O8 C3 1.166 1_565 S
O9 Zn1 1.905 . S
O9 C3 1.182 . S
O10 Zn1 1.898 . S
O10 C4 1.175 . S
O11 Zn2 2.119 1_645 S
O11 C4 1.300 1_655 S
O12 Zn0 1.898 . S
O12 C7 1.173 . S
O13 Zn2 2.120 1_646 S
O13 C7 1.300 1_545 S
O14 Zn2 2.116 1_556 S
O14 C16 1.166 1_455 S
O15 Zn0 1.905 . S
O15 C16 1.182 . S
C16 O14 1.166 1_655 S
C16 O15 1.182 . S
O17 Zn2 2.079 1_546 S
O17 C20 1.305 1_556 S
O18 Zn1 1.920 . S
O18 C20 1.234 . S
C19 O5 1.305 1_556 S
C19 O6 1.234 . S
C20 O17 1.305 1_554 S
C20 O18 1.234 . S
H21 C29 0.929 . S
H22 C31 0.930 . S
H23 C33 0.930 . S
H24 C36 0.929 . S
H25 C39 0.930 . S
H26 C41 0.960 . S
H27 C41 0.960 . S
H28 C41 0.960 . S
C29 H21 0.929 . S
C29 C30 1.377 1_655 S
C29 C31 1.384 . S
C30 C29 1.377 1_455 S
C30 C36 1.390 . S
C31 H22 0.930 . S
C31 C29 1.384 . S
C31 C32 1.372 1_655 S
C32 C31 1.372 1_455 S
C32 C33 1.400 . S
C32 C37 1.490 . S
C33 H23 0.930 . S
C33 C32 1.400 . S
C33 C36 1.386 . S
H34 C50 0.930 . S
H35 C51 0.931 . S
C36 H24 0.929 . S
C36 C30 1.390 . S
C36 C33 1.386 . S
C37 C32 1.490 . S
C37 C39 1.395 1_455 S
C37 C40 1.403 1_565 S
H38 C44 0.930 . S
C39 H25 0.930 . S
C39 C37 1.395 1_655 S
C39 C42 1.403 . S
C40 C37 1.403 1_545 S
C40 C41 1.524 . S
C40 C44 1.400 . S
C41 H26 0.960 . S
C41 H27 0.960 . S
C41 H28 0.960 . S
C41 C40 1.524 . S
C42 C39 1.403 . S
C42 C43 1.392 1_655 S
C42 C46 1.495 . S
C43 C42 1.392 1_455 S
C43 C44 1.385 1_565 S
C43 C45 1.478 . S
C44 H38 0.930 . S
C44 C40 1.400 . S
C44 C43 1.385 1_545 S
C45 C43 1.478 . S
C45 C47 1.381 1_455 S
C45 C51 1.383 . S
C46 C42 1.495 . S
C46 H52 0.959 . S
C46 H53 0.961 . S
C46 H54 0.960 . S
C47 C45 1.381 1_655 S
C47 C48 1.394 . S
C47 H55 0.930 . S
C48 C47 1.394 . S
C48 C49 1.383 1_655 S
C48 H56 0.929 1_565 S
C49 C48 1.383 1_455 S
C49 C50 1.377 . S
C50 H34 0.930 . S
C50 C49 1.377 . S
C50 C51 1.379 . S
C51 H35 0.931 . S
C51 C45 1.383 . S
C51 C50 1.379 . S
H52 C46 0.959 . S
H53 C46 0.961 . S
H54 C46 0.960 . S
H55 C47 0.930 . S
H56 C48 0.929 1_545 S
H57 C65 0.929 . S
H58 C67 0.930 . S
H59 C69 0.930 . S
H60 C72 0.929 . S
H61 C75 0.930 . S
H62 C77 0.960 . S
H63 C77 0.960 . S
H64 C77 0.960 . S
C65 H57 0.929 . S
C65 C66 1.377 1_565 S
C65 C67 1.384 . S
C66 C65 1.377 1_545 S
C66 C72 1.390 . S
C67 H58 0.930 . S
C67 C65 1.384 . S
C67 C68 1.372 1_565 S
C68 C67 1.372 1_545 S
C68 C69 1.400 . S
C68 C73 1.490 . S
C69 H59 0.930 . S
C69 C68 1.400 . S
C69 C72 1.386 . S
H70 C86 0.930 . S
H71 C87 0.931 . S
C72 H60 0.929 . S
C72 C66 1.390 . S
C72 C69 1.386 . S
C73 C68 1.490 . S
C73 C75 1.395 1_545 S
C73 C76 1.403 1_556 S
H74 C80 0.930 . S
C75 H61 0.930 . S
C75 C73 1.395 1_565 S
C75 C78 1.403 . S
C76 C73 1.403 1_554 S
C76 C77 1.524 . S
C76 C80 1.400 . S
C77 H62 0.960 . S
C77 H63 0.960 . S
C77 H64 0.960 . S
C77 C76 1.524 . S
C78 C75 1.403 . S
C78 C79 1.392 1_565 S
C78 C82 1.495 . S
C79 C78 1.392 1_545 S
C79 C80 1.385 1_556 S
C79 C81 1.478 . S
C80 H74 0.930 . S
C80 C76 1.400 . S
C80 C79 1.385 1_554 S
C81 C79 1.478 . S
C81 C83 1.381 1_545 S
C81 C87 1.383 . S
C82 C78 1.495 . S
C82 H88 0.959 . S
C82 H89 0.961 . S
C82 H90 0.960 . S
C83 C81 1.381 1_565 S
C83 C84 1.394 . S
C83 H91 0.930 . S
C84 C83 1.394 . S
C84 C85 1.383 1_565 S
C84 H92 0.929 . S
C85 C84 1.383 1_545 S
C85 C86 1.377 . S
C86 H70 0.930 . S
C86 C85 1.377 . S
C86 C87 1.379 . S
C87 H71 0.931 . S
C87 C81 1.383 . S
C87 C86 1.379 . S
H88 C82 0.959 . S
H89 C82 0.961 . S
H90 C82 0.960 . S
H91 C83 0.930 . S
H92 C84 0.929 . S
H93 C101 0.929 . S
H94 C103 0.930 . S
H95 C105 0.930 . S
H96 C108 0.929 . S
H97 C111 0.930 1_455 S
H98 C113 0.960 . S
H99 C113 0.960 . S
H100 C113 0.960 . S
C101 H93 0.929 . S
C101 C102 1.377 1_556 S
C101 C103 1.384 . S
C102 C101 1.377 1_554 S
C102 C108 1.390 1_655 S
C103 H94 0.930 . S
C103 C101 1.384 . S
C103 C104 1.372 1_556 S
C104 C103 1.372 1_554 S
C104 C105 1.400 1_655 S
C104 C109 1.490 . S
C105 H95 0.930 . S
C105 C104 1.400 1_455 S
C105 C108 1.386 . S
H106 C122 0.930 . S
H107 C123 0.931 . S
C108 H96 0.929 . S
C108 C102 1.390 1_455 S
C108 C105 1.386 . S
C109 C104 1.490 . S
C109 C111 1.395 1_554 S
C109 C112 1.403 . S
H110 C116 0.930 . S
C111 H97 0.930 1_655 S
C111 C109 1.395 1_556 S
C111 C114 1.403 . S
C112 C109 1.403 . S
C112 C113 1.524 . S
C112 C116 1.400 . S
C113 H98 0.960 . S
C113 H99 0.960 . S
C113 H100 0.960 . S
C113 C112 1.524 . S
C114 C111 1.403 . S
C114 C115 1.392 1_556 S
C114 C118 1.495 1_655 S
C115 C114 1.392 1_554 S
C115 C116 1.385 . S
C115 C117 1.478 . S
C116 H110 0.930 . S
C116 C112 1.400 . S
C116 C115 1.385 . S
C117 C115 1.478 . S
C117 C119 1.381 1_554 S
C117 C123 1.383 1_655 S
C118 C114 1.495 1_455 S
C118 H124 0.959 . S
C118 H125 0.961 . S
C118 H126 0.960 1_455 S
C119 C117 1.381 1_556 S
C119 C120 1.394 . S
C119 H127 0.930 . S
C120 C119 1.394 . S
C120 C121 1.383 1_556 S
C120 H128 0.929 . S
C121 C120 1.383 1_554 S
C121 C122 1.377 1_655 S
C122 H106 0.930 . S
C122 C121 1.377 1_455 S
C122 C123 1.379 . S
C123 H107 0.931 . S
C123 C117 1.383 1_455 S
C123 C122 1.379 . S
H124 C118 0.959 . S
H125 C118 0.961 . S
H126 C118 0.960 1_655 S
H127 C119 0.930 . S
H128 C120 0.929 . S
C30 C4 1.273 1_565 S
C49 C7 1.238 1_455 S
C66 C3 1.302 1_556 S
C85 C19 1.269 1_545 S
C102 C16 1.303 1_554 S
C121 C20 1.300 1_655 S
