# Generated by pormake.
# Topology cds, (4)-cn, num edge types: 1
# Building blocks:
#     Node 0, Type 0, BuildingBlock: MUDLON_clean_sbu_0, # of connection points: 4
#     Node 1, Type 0, BuildingBlock: MUDLON_clean_sbu_0, # of connection points: 4
#     Edge 2, Type (0, 0), BuildingBlock: AJUNOK_clean_linker_0, # of connection points: 2
#     Edge 3, Type (0, 0), BuildingBlock: AJUNOK_clean_linker_0, # of connection points: 2
#     Edge 4, Type (0, 0), BuildingBlock: AJUNOK_clean_linker_0, # of connection points: 2
#     Edge 5, Type (0, 0), BuildingBlock: AJUNOK_clean_linker_0, # of connection points: 2
# Relax obj value: 0.001
# Max RMSD: 0.016
# Mean RMSD: 0.016
data_MOF--net-cds--node1-MUDLON_clean_sbu_0--edge1-AJUNOK_clean_linker_0
_symmetry_space_group_name_H-M    P1
_symmetry_Int_Tables_number       1
_symmetry_cell_setting            triclinic
loop_
_symmetry_equiv_pos_as_xyz
'x, y, z'
_cell_length_a     11.136396
_cell_length_b     11.036357
_cell_length_c     21.573616
_cell_angle_alpha  91.529755
_cell_angle_beta   89.472024
_cell_angle_gamma 84.902261
loop_
_atom_site_label
_atom_site_type_symbol
_atom_site_fract_x
_atom_site_fract_y
_atom_site_fract_z
_atom_type_partial_charge
Mg0 Mg 0.16614 0.17586 0.04393 0.0
C1 C 0.41745 0.21532 0.07142 0.0
O2 O 0.40927 0.09991 0.08249 0.0
C3 C 0.9211 0.28857 0.09024 0.0
O4 O 0.97304 0.26857 0.14384 0.0
C5 C 0.10555 0.04082 0.92396 0.0
O6 O 1.00364 1.03127 0.95387 0.0
O7 O 0.19077 0.08745 0.95225 0.0
O8 O 0.32387 0.28004 0.05425 0.0
O9 O 0.16036 0.05524 0.12321 0.0
C10 C 0.18949 0.09648 0.17627 0.0
O11 O 0.22935 0.20498 0.17981 0.0
O12 O 0.98518 0.27213 1.04105 0.0
Mg13 Mg 0.93351 0.93544 0.53911 0.0
C14 C 0.82104 0.18481 0.50405 0.0
O15 O 0.86397 0.14627 0.44944 0.0
C16 C 0.81761 0.70045 0.56228 0.0
O17 O 0.84218 0.72991 0.6199 0.0
C18 C 0.03021 0.90258 0.40838 0.0
O19 O 0.9391 0.83488 0.40662 0.0
O20 O 0.0558 0.95222 0.4601 0.0
O21 O 0.82675 0.11087 0.54845 0.0
O22 O 1.01687 0.91256 0.62997 0.0
C23 C 0.07629 0.99329 0.65544 0.0
O24 O 0.09982 0.08813 0.6234 0.0
O25 O 0.8366 0.77504 0.52008 0.0
C26 C 0.19066 0.08693 0.29224 0.0
C27 C 0.1635 1.03337 0.23453 0.0
C28 C 0.15319 0.04013 0.34836 0.0
C29 C 0.08659 0.93772 0.34935 0.0
H30 H 0.23774 0.16868 0.29432 0.0
H31 H 0.17212 0.08817 0.39111 0.0
S32 S 1.00582 0.75314 0.21177 0.0
N33 N 0.07599 0.86451 0.18242 0.0
N34 N 1.0059 0.77634 0.28768 0.0
C35 C 0.06517 0.87865 0.29222 0.0
C36 C 0.10351 0.92637 0.23496 0.0
C37 C 0.03054 0.94254 0.82735 0.0
C38 C 0.11329 1.01508 0.85581 0.0
C39 C 0.0242 0.93014 0.76252 0.0
C40 C 0.09884 0.99167 0.72334 0.0
H41 H 0.96758 0.89748 0.85533 0.0
H42 H 0.95601 0.87662 0.74309 0.0
S43 S 0.33852 0.1842 0.77405 0.0
N44 N 0.27833 0.14177 0.83934 0.0
N45 N 0.26444 0.12042 0.71777 0.0
C46 C 0.18568 0.06007 0.75108 0.0
C47 C 0.19353 0.07114 0.81716 0.0
C48 C 0.71971 0.26708 0.13889 0.0
C49 C 0.78694 0.29821 0.08685 0.0
C50 C 0.59718 0.24866 0.13433 0.0
C51 C 0.53581 0.26428 0.0782 0.0
H52 H 0.76344 0.24869 0.18271 0.0
H53 H 0.55132 0.21648 0.17441 0.0
S54 S 0.66419 0.35939 0.93013 0.0
N55 N 0.77888 0.3537 0.97836 0.0
N56 N 0.54716 0.32209 0.97078 0.0
C57 C 0.59858 0.30437 1.02705 0.0
C58 C 0.72446 0.32081 1.03117 0.0
C59 C 0.78749 0.48763 0.59293 0.0
C60 C 0.79244 0.57313 0.54582 0.0
C61 C 0.7878 0.36272 0.57893 0.0
C62 C 0.79348 0.31767 0.51718 0.0
H63 H 0.78953 0.51636 0.64128 0.0
H64 H 0.79061 0.30075 0.6171 0.0
S65 S 0.78588 0.50464 0.37634 0.0
N66 N 0.78652 0.60468 0.43456 0.0
N67 N 0.78761 0.37031 0.40834 0.0
C68 C 0.7883 0.40286 0.46955 0.0
C69 C 0.78758 0.53033 0.48382 0.0
loop_
_geom_bond_atom_site_label_1
_geom_bond_atom_site_label_2
_geom_bond_distance
_geom_bond_site_symmetry_2
_ccdc_geom_bond_type
Mg0 O7 2.146 . S
Mg0 O8 2.038 1_655 S
Mg0 O9 2.044 1_556 S
Mg0 O12 2.152 . S
C1 O2 1.313 1_545 S
C1 O8 1.195 1_554 S
O2 C1 1.313 1_565 S
C3 O4 1.245 1_545 S
C3 O12 1.289 1_554 S
O4 C3 1.245 1_565 S
C5 O6 1.245 1_545 S
C5 O7 1.289 1_455 S
O6 C5 1.245 1_565 S
O7 Mg0 2.146 . S
O7 C5 1.289 1_655 S
O8 Mg0 2.038 1_455 S
O8 C1 1.195 1_556 S
O9 Mg0 2.044 1_554 S
O9 C10 1.195 1_655 S
C10 O9 1.195 1_455 S
C10 O11 1.313 1_545 S
O11 C10 1.313 1_565 S
O12 Mg0 2.152 . S
O12 C3 1.289 1_556 S
Mg13 O20 2.142 . S
Mg13 O21 2.037 1_565 S
Mg13 O22 2.048 . S
Mg13 O25 2.152 . S
C14 O15 1.313 . S
C14 O21 1.195 1_455 S
O15 C14 1.313 . S
C16 O17 1.245 . S
C16 O25 1.289 1_455 S
O17 C16 1.245 . S
C18 O19 1.245 . S
C18 O20 1.289 1_445 S
O19 C18 1.245 . S
O20 Mg13 2.142 . S
O20 C18 1.289 1_665 S
O21 Mg13 2.037 1_545 S
O21 C14 1.195 1_655 S
O22 Mg13 2.048 . S
O22 C23 1.195 1_665 S
C23 O22 1.195 1_445 S
C23 O24 1.313 . S
O24 C23 1.313 . S
O25 Mg13 2.152 . S
O25 C16 1.289 1_655 S
C26 C27 1.369 1_665 S
C26 C28 1.419 . S
C26 H30 0.930 . S
C27 C26 1.369 1_445 S
C27 C36 1.429 . S
C28 C26 1.419 . S
C28 C29 1.363 1_665 S
C28 H31 0.929 . S
C29 C28 1.363 1_445 S
C29 C35 1.428 . S
H30 C26 0.930 . S
H31 C28 0.929 . S
S32 N33 1.613 . S
S32 N34 1.610 . S
N33 S32 1.613 . S
N33 C36 1.350 . S
N34 S32 1.610 . S
N34 C35 1.351 . S
C35 C29 1.428 . S
C35 N34 1.351 . S
C35 C36 1.434 . S
C36 C27 1.429 . S
C36 N33 1.350 . S
C36 C35 1.434 . S
C37 C38 1.369 1_665 S
C37 C39 1.419 . S
C37 H41 0.930 . S
C38 C37 1.369 1_445 S
C38 C47 1.429 . S
C39 C37 1.419 . S
C39 C40 1.363 1_665 S
C39 H42 0.929 . S
C40 C39 1.363 1_445 S
C40 C46 1.428 . S
H41 C37 0.930 . S
H42 C39 0.929 . S
S43 N44 1.613 . S
S43 N45 1.610 . S
N44 S43 1.613 . S
N44 C47 1.350 . S
N45 S43 1.610 . S
N45 C46 1.351 . S
C46 C40 1.428 . S
C46 N45 1.351 . S
C46 C47 1.434 . S
C47 C38 1.429 . S
C47 N44 1.350 . S
C47 C46 1.434 . S
C48 C49 1.369 1_565 S
C48 C50 1.419 . S
C48 H52 0.930 . S
C49 C48 1.369 1_545 S
C49 C58 1.429 1_554 S
C50 C48 1.419 . S
C50 C51 1.363 1_565 S
C50 H53 0.929 . S
C51 C50 1.363 1_545 S
C51 C57 1.428 1_554 S
H52 C48 0.930 . S
H53 C50 0.929 . S
S54 N55 1.613 . S
S54 N56 1.610 . S
N55 S54 1.613 . S
N55 C58 1.350 . S
N56 S54 1.610 . S
N56 C57 1.351 . S
C57 C51 1.428 1_556 S
C57 N56 1.351 . S
C57 C58 1.434 . S
C58 C49 1.429 1_556 S
C58 N55 1.350 . S
C58 C57 1.434 . S
C59 C60 1.369 1_655 S
C59 C61 1.419 . S
C59 H63 0.930 . S
C60 C59 1.369 1_455 S
C60 C69 1.429 . S
C61 C59 1.419 . S
C61 C62 1.363 1_655 S
C61 H64 0.929 . S
C62 C61 1.363 1_455 S
C62 C68 1.428 . S
H63 C59 0.930 . S
H64 C61 0.929 . S
S65 N66 1.613 . S
S65 N67 1.610 . S
N66 S65 1.613 . S
N66 C69 1.350 . S
N67 S65 1.610 . S
N67 C68 1.351 . S
C68 C62 1.428 . S
C68 N67 1.351 . S
C68 C69 1.434 . S
C69 C60 1.429 . S
C69 N66 1.350 . S
C69 C68 1.434 . S
C27 C10 1.491 . S
C29 C18 1.490 . S
C38 C5 1.490 . S
C40 C23 1.497 . S
C49 C3 1.491 . S
C51 C1 1.495 . S
C60 C16 1.488 . S
C62 C14 1.493 . S
