# Generated by pormake.
# Topology pcu, (6)-cn, num edge types: 1
# Building blocks:
#     Node 0, Type 0, BuildingBlock: LEVNOQ01_clean_sbu_1, # of connection points: 6
#     Edge 1, Type (0, 0), BuildingBlock: XIVTED_clean_linker_0, # of connection points: 2
#     Edge 2, Type (0, 0), BuildingBlock: XIVTED_clean_linker_0, # of connection points: 2
#     Edge 3, Type (0, 0), BuildingBlock: XIVTED_clean_linker_0, # of connection points: 2
# Relax obj value: 0.007
# Max RMSD: 0.050
# Mean RMSD: 0.050
data_MOF--net-pcu--node1-LEVNOQ01_clean_sbu_1--edge1-XIVTED_clean_linker_0
_symmetry_space_group_name_H-M    P1
_symmetry_Int_Tables_number       1
_symmetry_cell_setting            triclinic
loop_
_symmetry_equiv_pos_as_xyz
'x, y, z'
_cell_length_a     16.076138
_cell_length_b     16.073013
_cell_length_c     16.047459
_cell_angle_alpha  75.513509
_cell_angle_beta   103.9544
_cell_angle_gamma 99.524491
loop_
_atom_site_label
_atom_site_type_symbol
_atom_site_fract_x
_atom_site_fract_y
_atom_site_fract_z
_atom_type_partial_charge
O0 O 0.82635 0.10157 0.92532 0.0
Mg1 Mg 0.93502 0.09742 0.87313 0.0
O2 O 0.83103 0.9656 -0.0042 0.0
Mg3 Mg 0.97621 0.97526 -0.00376 0.0
O4 O 0.94684 0.98741 0.84019 0.0
O5 O 0.89426 0.10439 0.74393 0.0
O6 O 0.12188 -0.00494 0.97727 0.0
O7 O 0.96446 0.82986 -0.00377 0.0
Mg8 Mg 0.09652 0.93007 0.11992 0.0
O9 O 0.98682 0.94479 0.15215 0.0
O10 O 0.18507 0.04071 0.09607 0.0
O11 O 0.09923 0.82198 0.06711 0.0
O12 O 0.10034 0.8868 0.24876 0.0
C13 C 0.03743 0.1862 0.9729 0.0
C14 C 0.79168 0.03306 0.9684 0.0
C15 C 0.9161 0.02739 0.75994 0.0
C16 C 0.18798 0.03268 0.02084 0.0
C17 C 0.03076 0.78892 0.02367 0.0
C18 C 0.02462 0.91151 0.2324 0.0
O19 O 0.04746 0.18311 0.89841 0.0
O20 O -0.00259 0.12064 0.01571 0.0
H21 H 0.88529 0.98884 0.23402 0.0
H22 H 0.98579 0.88323 0.75818 0.0
H23 H 0.07069 0.81912 0.40016 0.0
H24 H 0.82794 0.07915 0.59182 0.0
H25 H 0.98855 0.83165 0.62781 0.0
H26 H 0.83476 -0.00536 0.3644 0.0
C27 C 0.91442 0.95181 0.29765 0.0
C28 C 0.98374 0.90535 0.30679 0.0
C29 C 0.95235 0.88519 0.62016 0.0
C30 C 0.92675 0.91176 0.45558 0.0
C31 C 0.95077 0.91455 0.6945 0.0
C32 C 0.90852 0.98691 0.68532 0.0
C33 C 0.91139 0.92866 0.53658 0.0
C34 C 0.86318 0.02444 0.60153 0.0
C35 C 0.88569 0.95517 0.37201 0.0
C36 C 0.01848 0.85759 0.39052 0.0
N37 N 0.86677 -0.0044 0.53021 0.0
N38 N 0.99042 0.86299 0.46188 0.0
H39 H 0.2413 0.94315 0.9233 0.0
H40 H 0.72412 0.1673 0.99096 0.0
H41 H 0.32756 0.14513 0.06845 0.0
H42 H 0.66075 0.90016 0.97232 0.0
H43 H 0.57431 0.17339 0.99529 0.0
H44 H 0.39037 0.94271 0.91113 0.0
C45 C 0.29128 0.98886 0.95064 0.0
C46 C 0.27251 0.04433 -0.00302 0.0
C47 C 0.59333 0.11335 0.99075 0.0
C48 C 0.44207 0.04331 0.98415 0.0
C49 C 0.67857 0.10972 0.98848 0.0
C50 C 0.7044 0.03297 0.98162 0.0
C51 C 0.53319 0.04029 0.9841 0.0
C52 C 0.64322 0.9602 0.97852 0.0
C53 C 0.37623 0.98763 0.94478 0.0
C54 C 0.33967 0.10134 0.03235 0.0
N55 N 0.5598 0.96586 0.9788 0.0
N56 N 0.4217 0.09936 0.02526 0.0
H57 H 0.89433 0.66196 0.01275 0.0
H58 H 0.15526 0.32322 0.93011 0.0
H59 H 0.16505 0.71723 0.00679 0.0
H60 H 0.94152 0.24284 0.06191 0.0
H61 H 0.15364 0.47203 0.94152 0.0
H62 H 0.90085 0.51107 0.0091 0.0
C63 C 0.9546 0.64254 0.00935 0.0
C64 C 0.02927 0.70153 0.01019 0.0
C65 C 0.10792 0.42153 0.96898 0.0
C66 C 0.0373 0.53068 0.00648 0.0
C67 C 0.10917 0.33681 0.96296 0.0
C68 C 0.04879 0.27101 -0.00445 0.0
C69 C 0.0445 0.44059 0.00589 0.0
C70 C 0.98979 0.29177 0.03685 0.0
C71 C 0.95858 0.5566 0.00838 0.0
C72 C 0.10616 0.67333 0.00668 0.0
N73 N 0.98819 0.37525 0.03967 0.0
N74 N 0.10817 0.58991 0.00465 0.0
loop_
_geom_bond_atom_site_label_1
_geom_bond_atom_site_label_2
_geom_bond_distance
_geom_bond_site_symmetry_2
_ccdc_geom_bond_type
O0 Mg1 1.990 . S
O0 C14 1.253 . S
Mg1 O0 1.990 . S
Mg1 O4 2.180 . S
Mg1 O5 2.117 . S
Mg1 O19 2.030 . S
O2 Mg3 2.072 1_665 S
O2 C14 1.260 1_564 S
Mg3 O2 2.072 1_445 S
Mg3 O4 2.099 1_454 S
Mg3 O6 2.079 1_554 S
Mg3 O7 2.072 1_444 S
Mg3 O9 2.099 1_545 S
Mg3 O20 2.079 . S
O4 Mg1 2.180 . S
O4 Mg3 2.099 1_656 S
O4 C15 1.279 . S
O5 Mg1 2.117 . S
O5 C15 1.250 . S
O6 Mg3 2.079 1_556 S
O6 C16 1.264 1_546 S
O7 Mg3 2.072 1_666 S
O7 C17 1.260 1_656 S
Mg8 O9 2.180 . S
Mg8 O10 2.030 . S
Mg8 O11 1.990 . S
Mg8 O12 2.117 . S
O9 Mg3 2.099 1_565 S
O9 Mg8 2.180 . S
O9 C18 1.279 . S
O10 Mg8 2.030 . S
O10 C16 1.248 . S
O11 Mg8 1.990 . S
O11 C17 1.253 . S
O12 Mg8 2.117 . S
O12 C18 1.250 . S
C13 O19 1.248 . S
C13 O20 1.264 1_656 S
C14 O0 1.253 . S
C14 O2 1.260 1_546 S
C15 O4 1.279 . S
C15 O5 1.250 . S
C16 O6 1.264 1_564 S
C16 O10 1.248 . S
C17 O7 1.260 1_454 S
C17 O11 1.253 . S
C18 O9 1.279 . S
C18 O12 1.250 . S
O19 Mg1 2.030 . S
O19 C13 1.248 . S
O20 Mg3 2.079 . S
O20 C13 1.264 1_454 S
H21 C27 0.930 . S
H22 C31 0.930 . S
H23 C36 0.929 . S
H24 C34 0.929 . S
H25 C29 0.929 . S
H26 C35 0.929 . S
C27 H21 0.930 . S
C27 C28 1.367 1_545 S
C27 C35 1.378 . S
C28 C27 1.367 1_565 S
C28 C36 1.433 1_655 S
C29 H25 0.929 . S
C29 C31 1.378 . S
C29 C33 1.350 1_455 S
C30 C33 1.463 . S
C30 C35 1.350 1_565 S
C30 N38 1.427 1_655 S
C31 H22 0.930 . S
C31 C29 1.378 . S
C31 C32 1.367 1_455 S
C32 C31 1.367 1_655 S
C32 C34 1.433 1_565 S
C33 C29 1.350 1_655 S
C33 C30 1.463 . S
C33 N37 1.427 1_565 S
C34 H24 0.929 . S
C34 C32 1.433 1_545 S
C34 N37 1.384 . S
C35 H26 0.929 . S
C35 C27 1.378 . S
C35 C30 1.350 1_545 S
C36 H23 0.929 . S
C36 C28 1.433 1_455 S
C36 N38 1.384 . S
N37 C33 1.427 1_545 S
N37 C34 1.384 . S
N38 C30 1.427 1_455 S
N38 C36 1.384 . S
H39 C45 0.930 . S
H40 C49 0.930 . S
H41 C54 0.929 . S
H42 C52 0.929 . S
H43 C47 0.929 . S
H44 C53 0.929 . S
C45 H39 0.930 . S
C45 C46 1.367 1_565 S
C45 C53 1.378 . S
C46 C45 1.367 1_545 S
C46 C54 1.433 1_554 S
C47 H43 0.929 . S
C47 C49 1.378 . S
C47 C51 1.350 1_556 S
C48 C51 1.463 . S
C48 C53 1.350 1_545 S
C48 N56 1.427 1_554 S
C49 H40 0.930 . S
C49 C47 1.378 . S
C49 C50 1.367 1_556 S
C50 C49 1.367 1_554 S
C50 C52 1.433 1_545 S
C51 C47 1.350 1_554 S
C51 C48 1.463 . S
C51 N55 1.427 1_545 S
C52 H42 0.929 . S
C52 C50 1.433 1_565 S
C52 N55 1.384 . S
C53 H44 0.929 . S
C53 C45 1.378 . S
C53 C48 1.350 1_565 S
C54 H41 0.929 . S
C54 C46 1.433 1_556 S
C54 N56 1.384 . S
N55 C51 1.427 1_565 S
N55 C52 1.384 . S
N56 C48 1.427 1_556 S
N56 C54 1.384 . S
H57 C63 0.930 . S
H58 C67 0.930 . S
H59 C72 0.929 . S
H60 C70 0.929 . S
H61 C65 0.929 . S
H62 C71 0.929 . S
C63 H57 0.930 . S
C63 C64 1.367 1_654 S
C63 C71 1.378 . S
C64 C63 1.367 1_456 S
C64 C72 1.433 . S
C65 H61 0.929 . S
C65 C67 1.378 . S
C65 C69 1.350 . S
C66 C69 1.463 . S
C66 C71 1.350 1_456 S
C66 N74 1.427 . S
C67 H58 0.930 . S
C67 C65 1.378 . S
C67 C68 1.367 . S
C68 C67 1.367 . S
C68 C70 1.433 1_456 S
C69 C65 1.350 . S
C69 C66 1.463 . S
C69 N73 1.427 1_456 S
C70 H60 0.929 . S
C70 C68 1.433 1_654 S
C70 N73 1.384 . S
C71 H62 0.929 . S
C71 C63 1.378 . S
C71 C66 1.350 1_654 S
C72 H59 0.929 . S
C72 C64 1.433 . S
C72 N74 1.384 . S
N73 C69 1.427 1_654 S
N73 C70 1.384 . S
N74 C66 1.427 . S
N74 C72 1.384 . S
C28 C18 1.315 1_655 S
C32 C15 1.315 1_565 S
C46 C16 1.446 1_545 S
C50 C14 1.443 1_554 S
C64 C17 1.441 1_556 S
C68 C13 1.449 1_455 S
