# Generated by pormake.
# Topology bnn, (5)-cn, num edge types: 1
# Building blocks:
#     Node 0, Type 0, BuildingBlock: XOMCOT_clean_sbu_0, # of connection points: 5
#     Node 1, Type 0, BuildingBlock: XOMCOT_clean_sbu_0, # of connection points: 5
#     Edge 2, Type (0, 0), BuildingBlock: FUNLAD_clean_linker_0, # of connection points: 2
#     Edge 3, Type (0, 0), BuildingBlock: FUNLAD_clean_linker_0, # of connection points: 2
#     Edge 4, Type (0, 0), BuildingBlock: FUNLAD_clean_linker_0, # of connection points: 2
#     Edge 5, Type (0, 0), BuildingBlock: FUNLAD_clean_linker_0, # of connection points: 2
#     Edge 6, Type (0, 0), BuildingBlock: FUNLAD_clean_linker_0, # of connection points: 2
# Relax obj value: 0.022
# Max RMSD: 0.079
# Mean RMSD: 0.079
data_MOF--net-bnn--node1-XOMCOT_clean_sbu_0--edge1-FUNLAD_clean_linker_0
_symmetry_space_group_name_H-M    P1
_symmetry_Int_Tables_number       1
_symmetry_cell_setting            triclinic
loop_
_symmetry_equiv_pos_as_xyz
'x, y, z'
_cell_length_a     34.001182
_cell_length_b     31.349828
_cell_length_c     20.297438
_cell_angle_alpha  101.6626
_cell_angle_beta   90.709934
_cell_angle_gamma 122.19008
loop_
_atom_site_label
_atom_site_type_symbol
_atom_site_fract_x
_atom_site_fract_y
_atom_site_fract_z
_atom_type_partial_charge
Co0 Co 0.32735 0.69333 0.03008 0.0
C1 C 0.33412 0.69769 0.17733 0.0
C2 C 0.34273 0.76669 0.15734 0.0
C3 C 0.34554 0.77174 0.22635 0.0
N4 N 0.33587 0.7205 0.12683 0.0
N5 N 0.34021 0.72842 0.23904 0.0
H6 H 0.32862 0.65957 0.16885 0.0
H7 H 0.34462 0.79437 0.13108 0.0
C8 C 0.4165 0.78677 1.00163 0.0
O9 O 0.43181 0.7581 0.97215 0.0
N10 N 0.31748 0.66637 0.93146 0.0
C11 C 0.28763 0.61634 0.89646 0.0
C12 C 0.28626 0.61334 0.82807 0.0
C13 C 0.33234 0.69324 0.88284 0.0
N14 N 0.31439 0.66169 0.81948 0.0
C15 C 0.35783 0.62362 0.01637 0.0
C16 C 0.44572 0.6913 0.09255 0.0
C17 C 0.43191 0.64015 0.06156 0.0
C18 C 0.38716 0.60615 0.02387 0.0
C19 C 0.41522 0.70759 0.08265 0.0
N20 N 0.37244 0.67421 0.04272 0.0
H21 H 0.3227 0.59562 0.99082 0.0
H22 H 0.42584 0.74682 0.10744 0.0
H23 H 0.26639 0.58384 0.91844 0.0
H24 H 0.35347 0.73508 0.89287 0.0
O25 O 0.2711 0.62956 0.03747 0.0
O26 O 0.27352 0.69846 0.02007 0.0
O27 O 0.37698 0.76595 0.02374 0.0
C28 C 0.24852 0.65117 0.02769 0.0
H29 H 0.34976 0.80427 0.26399 0.0
H30 H 0.26557 0.57824 0.7878 0.0
H31 H 0.47973 0.7184 0.12349 0.0
H32 H 0.37436 0.56574 1.00161 0.0
Co33 Co 0.66517 0.35815 0.0416 0.0
C34 C 0.66426 0.35281 0.89421 0.0
C35 C 0.60381 0.2857 0.91528 0.0
C36 C 0.60007 0.28072 0.84622 0.0
N37 N 0.64409 0.3307 0.94512 0.0
N38 N 0.63809 0.3229 0.83285 0.0
H39 H 0.6973 0.38997 0.90221 0.0
H40 H 0.57844 0.2589 0.94205 0.0
C41 C 0.66153 0.26722 0.07809 0.0
O42 O 0.70383 0.29896 0.11308 0.0
N43 N 0.68485 0.38551 0.13976 0.0
C44 C 0.71229 0.43597 0.1743 0.0
C45 C 0.71311 0.43931 0.24288 0.0
C46 C 0.66762 0.35929 0.18861 0.0
N47 N 0.68514 0.39103 0.25187 0.0
C48 C 0.76376 0.42453 0.04283 0.0
C49 C 0.78005 0.34997 0.97891 0.0
C50 C 0.81778 0.40213 0.99905 0.0
C51 C 0.80897 0.43949 0.03087 0.0
C52 C 0.7348 0.33666 0.99129 0.0
N53 N 0.7275 0.37356 0.02591 0.0
H54 H 0.75796 0.45467 0.06363 0.0
H55 H 0.70565 0.2969 0.97195 0.0
H56 H 0.7286 0.46896 0.15217 0.0
H57 H 0.64095 0.31821 0.17841 0.0
O58 O 0.67452 0.42302 0.03382 0.0
O59 O 0.60813 0.35738 0.05386 0.0
O60 O 0.64183 0.28509 0.04896 0.0
C61 C 0.6314 0.40429 0.0445 0.0
H62 H 0.57078 0.24908 0.80908 0.0
H63 H 0.73227 0.47476 0.28297 0.0
H64 H 0.78524 0.32011 0.95231 0.0
H65 H 0.83689 0.48033 0.04638 0.0
C66 C 0.46873 0.59291 1.01069 0.0
C67 C 0.46252 0.62053 0.06876 0.0
C68 C 0.49184 0.56781 0.01669 0.0
C69 C 0.50934 0.56971 0.08113 0.0
C70 C 0.50398 0.59825 0.13923 0.0
C71 C 0.48116 0.62392 0.13312 0.0
C72 C 0.53052 0.53956 0.08877 0.0
C73 C 0.55371 0.52934 0.04133 0.0
C74 C 0.57347 0.4975 0.04581 0.0
C75 C 0.61334 0.50821 0.01495 0.0
C76 C 0.63205 0.47799 0.01521 0.0
C77 C 0.61064 0.43547 0.04496 0.0
H78 H 0.52046 0.445 0.0988 0.0
C79 C 0.57027 0.42406 0.07516 0.0
C80 C 0.55197 0.45506 0.07602 0.0
H81 H 0.55308 0.39148 0.09841 0.0
H82 H 0.45445 0.58949 0.96047 0.0
H83 H 0.49413 0.54519 0.97077 0.0
H84 H 0.51684 0.60005 0.18947 0.0
H85 H 0.47625 0.64439 0.1787 0.0
H86 H 0.52788 0.52662 0.13525 0.0
H87 H 0.56038 0.5468 0.99828 0.0
H88 H 0.63026 0.54027 0.99069 0.0
H89 H 0.66305 0.48761 0.99115 0.0
C90 C 0.89342 0.46313 0.96167 0.0
C91 C 0.86635 0.4189 0.98701 0.0
C92 C 0.94123 0.48436 0.95995 0.0
C93 C 0.96327 0.46208 0.98419 0.0
C94 C 0.93556 0.41576 1.00507 0.0
C95 C 0.88748 0.39437 1.00666 0.0
C96 C 1.01501 0.48681 0.98927 0.0
C97 C 0.04541 0.5388 1.00064 0.0
C98 C 0.09752 0.56611 1.00785 0.0
C99 C 0.12394 0.61825 1.00385 0.0
C100 C 0.17294 0.64603 1.0108 0.0
C101 C 0.19677 0.62237 0.0224 0.0
H102 H 0.10295 0.50306 0.02557 0.0
C103 C 0.17059 0.57045 0.02734 0.0
C104 C 0.12151 0.54258 0.02028 0.0
H105 H 0.18799 0.55119 0.03654 0.0
H106 H 0.87775 0.48209 0.94456 0.0
H107 H 0.96082 0.51854 0.94027 0.0
H108 H 0.9515 0.39729 0.02288 0.0
H109 H 0.8674 0.36019 0.02631 0.0
H110 H 0.02786 0.46148 0.98618 0.0
H111 H 0.03159 0.56336 1.00528 0.0
H112 H 0.10657 0.63761 0.99483 0.0
H113 H 0.19209 0.68599 1.0068 0.0
C114 C 0.49042 0.87058 0.99383 0.0
C115 C 0.44397 0.84382 1.00808 0.0
C116 C 0.5159 0.92466 1.00146 0.0
C117 C 0.49528 0.95298 0.02327 0.0
C118 C 0.44874 0.92595 0.03653 0.0
C119 C 0.42355 0.8723 0.02953 0.0
C120 C 0.51991 1.01013 0.0305 0.0
C121 C 0.56701 0.04364 0.04198 0.0
C122 C 0.59037 0.10094 0.05121 0.0
C123 C 0.63553 0.13496 0.08885 0.0
C124 C 0.65848 0.18892 0.0984 0.0
C125 C 0.63695 0.21014 0.06984 0.0
H126 H 0.535 0.0975 0.99083 0.0
C127 C 0.59198 0.17605 0.0315 0.0
C128 C 0.56904 0.12221 0.02209 0.0
H129 H 0.57448 0.19087 1.00806 0.0
H130 H 0.50715 0.84983 0.977 0.0
H131 H 0.5513 0.94383 0.98909 0.0
H132 H 0.43174 0.94651 0.05285 0.0
H133 H 0.38781 0.85314 0.04068 0.0
H134 H 0.49781 0.02541 0.03019 0.0
H135 H 0.58929 0.02931 0.04864 0.0
H136 H 0.65304 0.11978 0.1114 0.0
H137 H 0.6932 0.21393 0.12784 0.0
C138 C 0.28729 0.64582 0.69842 0.0
C139 C 0.32214 0.6762 0.7556 0.0
C140 C 0.29524 0.6583 0.63563 0.0
C141 C 0.33858 0.70127 0.62824 0.0
C142 C 0.37296 0.73247 0.68585 0.0
C143 C 0.36489 0.72006 0.74887 0.0
C144 C 0.34838 0.71572 0.56207 0.0
C145 C 0.32573 0.6815 0.50137 0.0
C146 C 0.33288 0.69525 0.43445 0.0
C147 C 0.31268 0.6548 0.3748 0.0
C148 C 0.31582 0.6655 0.31075 0.0
C149 C 0.33922 0.71709 0.30474 0.0
H150 H 0.37244 0.77957 0.47235 0.0
C151 C 0.36027 0.75762 0.36435 0.0
C152 C 0.35694 0.74695 0.42834 0.0
H153 H 0.37916 0.79785 0.36181 0.0
H154 H 0.2535 0.61261 0.7023 0.0
H155 H 0.26694 0.63454 0.59353 0.0
H156 H 0.40643 0.7662 0.68192 0.0
H157 H 0.39247 0.74411 0.79193 0.0
H158 H 0.37619 0.75555 0.5642 0.0
H159 H 0.30082 0.64083 0.49997 0.0
H160 H 0.29366 0.61457 0.37769 0.0
H161 H 0.29875 0.63324 0.26618 0.0
C162 C 0.67859 0.41217 0.37378 0.0
C163 C 0.67569 0.37678 0.31586 0.0
C164 C 0.67142 0.39936 0.43653 0.0
C165 C 0.66168 0.35089 0.44312 0.0
C166 C 0.65767 0.31507 0.3848 0.0
C167 C 0.66464 0.32783 0.32192 0.0
C168 C 0.65409 0.33564 0.5091 0.0
C169 C 0.67006 0.37016 0.57039 0.0
C170 C 0.66224 0.35601 0.63722 0.0
C171 C 0.68455 0.39614 0.6971 0.0
C172 C 0.67724 0.38542 0.76109 0.0
C173 C 0.64732 0.33409 0.76699 0.0
H174 H 0.61406 0.27205 0.59922 0.0
C175 C 0.62547 0.2938 0.70717 0.0
C176 C 0.63257 0.30451 0.6432 0.0
H177 H 0.60271 0.2537 0.70949 0.0
H178 H 0.68591 0.44971 0.37051 0.0
H179 H 0.67291 0.4274 0.47919 0.0
H180 H 0.6497 0.27723 0.38803 0.0
H181 H 0.66242 0.29981 0.27839 0.0
H182 H 0.63602 0.29442 0.50609 0.0
H183 H 0.69083 0.41141 0.57246 0.0
H184 H 0.70744 0.43624 0.69449 0.0
H185 H 0.69429 0.41759 0.80576 0.0
loop_
_geom_bond_atom_site_label_1
_geom_bond_atom_site_label_2
_geom_bond_distance
_geom_bond_site_symmetry_2
_ccdc_geom_bond_type
Co0 N4 2.148 . S
Co0 N10 2.128 1_554 S
Co0 N20 2.194 . S
Co0 O25 2.351 . S
Co0 O26 2.155 . S
Co0 O27 2.096 . S
C1 N4 1.301 . S
C1 N5 1.328 . S
C1 H6 0.930 . S
C2 C3 1.333 . S
C2 N4 1.317 . S
C2 H7 0.930 . S
C3 C2 1.333 . S
C3 N5 1.350 . S
C3 H29 0.931 . S
N4 Co0 2.148 . S
N4 C1 1.301 . S
N4 C2 1.317 . S
N5 C1 1.328 . S
N5 C3 1.350 . S
H6 C1 0.930 . S
H7 C2 0.930 . S
C8 O9 1.224 . S
C8 O27 1.247 . S
O9 C8 1.224 . S
N10 Co0 2.128 1_556 S
N10 C11 1.355 . S
N10 C13 1.311 . S
C11 N10 1.355 . S
C11 C12 1.363 . S
C11 H23 0.929 . S
C12 C11 1.363 . S
C12 N14 1.375 . S
C12 H30 0.931 . S
C13 N10 1.311 . S
C13 N14 1.347 . S
C13 H24 0.929 . S
N14 C12 1.375 . S
N14 C13 1.347 . S
C15 C18 1.365 . S
C15 N20 1.328 . S
C15 H21 0.929 . S
C16 C17 1.362 . S
C16 C19 1.378 . S
C16 H31 0.929 . S
C17 C16 1.362 . S
C17 C18 1.366 . S
C18 C15 1.365 . S
C18 C17 1.366 . S
C18 H32 0.930 . S
C19 C16 1.378 . S
C19 N20 1.315 . S
C19 H22 0.930 . S
N20 Co0 2.194 . S
N20 C15 1.328 . S
N20 C19 1.315 . S
H21 C15 0.929 . S
H22 C19 0.930 . S
H23 C11 0.929 . S
H24 C13 0.929 . S
O25 Co0 2.351 . S
O25 C28 1.244 . S
O26 Co0 2.155 . S
O26 C28 1.240 . S
O27 Co0 2.096 . S
O27 C8 1.247 . S
C28 O25 1.244 . S
C28 O26 1.240 . S
H29 C3 0.931 . S
H30 C12 0.931 . S
H31 C16 0.929 . S
H32 C18 0.930 . S
Co33 N37 2.148 1_554 S
Co33 N43 2.128 . S
Co33 N53 2.194 . S
Co33 O58 2.351 . S
Co33 O59 2.155 . S
Co33 O60 2.096 . S
C34 N37 1.301 . S
C34 N38 1.328 . S
C34 H39 0.930 . S
C35 C36 1.333 . S
C35 N37 1.317 . S
C35 H40 0.930 . S
C36 C35 1.333 . S
C36 N38 1.350 . S
C36 H62 0.931 . S
N37 Co33 2.148 1_556 S
N37 C34 1.301 . S
N37 C35 1.317 . S
N38 C34 1.328 . S
N38 C36 1.350 . S
H39 C34 0.930 . S
H40 C35 0.930 . S
C41 O42 1.224 . S
C41 O60 1.247 . S
O42 C41 1.224 . S
N43 Co33 2.128 . S
N43 C44 1.355 . S
N43 C46 1.311 . S
C44 N43 1.355 . S
C44 C45 1.363 . S
C44 H56 0.929 . S
C45 C44 1.363 . S
C45 N47 1.375 . S
C45 H63 0.931 . S
C46 N43 1.311 . S
C46 N47 1.347 . S
C46 H57 0.929 . S
N47 C45 1.375 . S
N47 C46 1.347 . S
C48 C51 1.365 . S
C48 N53 1.328 . S
C48 H54 0.929 1_554 S
C49 C50 1.362 . S
C49 C52 1.378 . S
C49 H64 0.929 . S
C50 C49 1.362 . S
C50 C51 1.366 . S
C51 C48 1.365 . S
C51 C50 1.366 . S
C51 H65 0.930 . S
C52 C49 1.378 . S
C52 N53 1.315 . S
C52 H55 0.930 . S
N53 Co33 2.194 . S
N53 C48 1.328 . S
N53 C52 1.315 . S
H54 C48 0.929 1_556 S
H55 C52 0.930 . S
H56 C44 0.929 . S
H57 C46 0.929 . S
O58 Co33 2.351 . S
O58 C61 1.244 . S
O59 Co33 2.155 . S
O59 C61 1.240 . S
O60 Co33 2.096 . S
O60 C41 1.247 . S
C61 O58 1.244 . S
C61 O59 1.240 . S
H62 C36 0.931 . S
H63 C45 0.931 . S
H64 C49 0.929 . S
H65 C51 0.930 . S
C66 C67 1.386 1_556 S
C66 C68 1.383 . S
C66 H82 0.951 . S
C67 C66 1.386 1_554 S
C67 C71 1.383 . S
C68 C66 1.383 . S
C68 C69 1.402 1_556 S
C68 H83 0.951 . S
C69 C68 1.402 1_554 S
C69 C70 1.375 . S
C69 C72 1.481 . S
C70 C69 1.375 . S
C70 C71 1.367 . S
C70 H84 0.951 . S
C71 C67 1.383 . S
C71 C70 1.367 . S
C71 H85 0.950 . S
C72 C69 1.481 . S
C72 C73 1.297 1_554 S
C72 H86 0.950 . S
C73 C72 1.297 1_556 S
C73 C74 1.479 1_556 S
C73 H87 0.950 . S
C74 C73 1.479 1_554 S
C74 C75 1.375 1_554 S
C74 C80 1.404 . S
C75 C74 1.375 1_556 S
C75 C76 1.369 . S
C75 H88 0.950 . S
C76 C75 1.369 . S
C76 C77 1.392 1_556 S
C76 H89 0.951 . S
C77 C76 1.392 1_554 S
C77 C79 1.384 . S
H78 C80 0.949 . S
C79 C77 1.384 . S
C79 C80 1.385 . S
C79 H81 0.950 . S
C80 C74 1.404 . S
C80 H78 0.949 . S
C80 C79 1.385 . S
H81 C79 0.950 . S
H82 C66 0.951 . S
H83 C68 0.951 . S
H84 C70 0.951 . S
H85 C71 0.950 . S
H86 C72 0.950 . S
H87 C73 0.950 . S
H88 C75 0.950 . S
H89 C76 0.951 . S
C90 C91 1.386 1_556 S
C90 C92 1.383 1_556 S
C90 H106 0.951 . S
C91 C90 1.386 1_554 S
C91 C95 1.383 . S
C92 C90 1.383 1_554 S
C92 C93 1.402 . S
C92 H107 0.951 1_554 S
C93 C92 1.402 . S
C93 C94 1.375 . S
C93 C96 1.481 1_655 S
C94 C93 1.375 . S
C94 C95 1.367 . S
C94 H108 0.951 . S
C95 C91 1.383 . S
C95 C94 1.367 . S
C95 H109 0.950 . S
C96 C93 1.481 1_455 S
C96 C97 1.297 . S
C96 H110 0.950 . S
C97 C96 1.297 . S
C97 C98 1.479 . S
C97 H111 0.950 . S
C98 C97 1.479 . S
C98 C99 1.375 1_554 S
C98 C104 1.404 . S
C99 C98 1.375 1_556 S
C99 C100 1.369 . S
C99 H112 0.950 . S
C100 C99 1.369 . S
C100 C101 1.392 1_556 S
C100 H113 0.951 . S
C101 C100 1.392 1_554 S
C101 C103 1.384 . S
H102 C104 0.949 . S
C103 C101 1.384 . S
C103 C104 1.385 . S
C103 H105 0.950 . S
C104 C98 1.404 . S
C104 H102 0.949 . S
C104 C103 1.385 . S
H105 C103 0.950 . S
H106 C90 0.951 . S
H107 C92 0.951 1_556 S
H108 C94 0.951 . S
H109 C95 0.950 . S
H110 C96 0.950 . S
H111 C97 0.950 . S
H112 C99 0.950 . S
H113 C100 0.951 . S
C114 C115 1.386 . S
C114 C116 1.383 . S
C114 H130 0.951 . S
C115 C114 1.386 . S
C115 C119 1.383 . S
C116 C114 1.383 . S
C116 C117 1.402 . S
C116 H131 0.951 . S
C117 C116 1.402 . S
C117 C118 1.375 . S
C117 C120 1.481 1_554 S
C118 C117 1.375 . S
C118 C119 1.367 . S
C118 H132 0.951 . S
C119 C115 1.383 . S
C119 C118 1.367 . S
C119 H133 0.950 . S
C120 C117 1.481 1_556 S
C120 C121 1.297 1_565 S
C120 H134 0.950 1_556 S
C121 C120 1.297 1_545 S
C121 C122 1.479 . S
C121 H135 0.950 1_545 S
C122 C121 1.479 . S
C122 C123 1.375 . S
C122 C128 1.404 . S
C123 C122 1.375 . S
C123 C124 1.369 1_556 S
C123 H136 0.950 . S
C124 C123 1.369 1_554 S
C124 C125 1.392 . S
C124 H137 0.951 . S
C125 C124 1.392 . S
C125 C127 1.384 . S
H126 C128 0.949 . S
C127 C125 1.384 . S
C127 C128 1.386 1_554 S
C127 H129 0.949 . S
C128 C122 1.404 . S
C128 H126 0.949 . S
C128 C127 1.386 1_556 S
H129 C127 0.949 . S
H130 C114 0.951 . S
H131 C116 0.951 . S
H132 C118 0.951 . S
H133 C119 0.950 . S
H134 C120 0.950 1_554 S
H135 C121 0.950 1_565 S
H136 C123 0.950 . S
H137 C124 0.951 . S
C138 C139 1.386 . S
C138 C140 1.383 . S
C138 H154 0.951 . S
C139 C138 1.386 . S
C139 C143 1.383 . S
C140 C138 1.383 . S
C140 C141 1.402 . S
C140 H155 0.951 . S
C141 C140 1.402 . S
C141 C142 1.375 . S
C141 C144 1.481 . S
C142 C141 1.375 . S
C142 C143 1.367 . S
C142 H156 0.951 . S
C143 C139 1.383 . S
C143 C142 1.367 . S
C143 H157 0.950 . S
C144 C141 1.481 . S
C144 C145 1.297 . S
C144 H158 0.950 . S
C145 C144 1.297 . S
C145 C146 1.479 . S
C145 H159 0.950 . S
C146 C145 1.479 . S
C146 C147 1.375 . S
C146 C152 1.404 . S
C147 C146 1.375 . S
C147 C148 1.369 . S
C147 H160 0.950 . S
C148 C147 1.369 . S
C148 C149 1.392 . S
C148 H161 0.951 . S
C149 C148 1.392 . S
C149 C151 1.384 . S
H150 C152 0.949 . S
C151 C149 1.384 . S
C151 C152 1.385 . S
C151 H153 0.950 . S
C152 C146 1.404 . S
C152 H150 0.949 . S
C152 C151 1.385 . S
H153 C151 0.950 . S
H154 C138 0.951 . S
H155 C140 0.951 . S
H156 C142 0.951 . S
H157 C143 0.950 . S
H158 C144 0.950 . S
H159 C145 0.950 . S
H160 C147 0.950 . S
H161 C148 0.951 . S
C162 C163 1.386 . S
C162 C164 1.383 . S
C162 H178 0.951 . S
C163 C162 1.386 . S
C163 C167 1.383 . S
C164 C162 1.383 . S
C164 C165 1.402 . S
C164 H179 0.951 . S
C165 C164 1.402 . S
C165 C166 1.375 . S
C165 C168 1.481 . S
C166 C165 1.375 . S
C166 C167 1.367 . S
C166 H180 0.951 . S
C167 C163 1.383 . S
C167 C166 1.367 . S
C167 H181 0.950 . S
C168 C165 1.481 . S
C168 C169 1.297 . S
C168 H182 0.950 . S
C169 C168 1.297 . S
C169 C170 1.479 . S
C169 H183 0.950 . S
C170 C169 1.479 . S
C170 C171 1.375 . S
C170 C176 1.404 . S
C171 C170 1.375 . S
C171 C172 1.369 . S
C171 H184 0.950 . S
C172 C171 1.369 . S
C172 C173 1.392 . S
C172 H185 0.951 . S
C173 C172 1.392 . S
C173 C175 1.384 . S
H174 C176 0.949 . S
C175 C173 1.384 . S
C175 C176 1.385 . S
C175 H177 0.950 . S
C176 C170 1.404 . S
C176 H174 0.949 . S
C176 C175 1.385 . S
H177 C175 0.950 . S
H178 C162 0.951 . S
H179 C164 0.951 . S
H180 C166 0.951 . S
H181 C167 0.950 . S
H182 C168 0.950 . S
H183 C169 0.950 . S
H184 C171 0.950 . S
H185 C172 0.951 . S
C67 C17 1.489 . S
C77 C61 1.498 . S
C91 C50 1.503 . S
C101 C28 1.486 . S
C115 C8 1.497 . S
C125 C41 1.492 . S
C139 N14 1.479 . S
C149 N5 1.427 . S
C163 N47 1.478 . S
C173 N38 1.424 . S
