# Generated by pormake.
# Topology lon, (4)-cn, num edge types: 1
# Building blocks:
#     Node 0, Type 0, BuildingBlock: CEKHIL_clean_sbu_0, # of connection points: 4
#     Node 1, Type 0, BuildingBlock: CEKHIL_clean_sbu_0, # of connection points: 4
#     Node 2, Type 0, BuildingBlock: CEKHIL_clean_sbu_0, # of connection points: 4
#     Node 3, Type 0, BuildingBlock: CEKHIL_clean_sbu_0, # of connection points: 4
#     Edge 4, Type (0, 0), BuildingBlock: AJUNOK_clean_linker_0, # of connection points: 2
#     Edge 5, Type (0, 0), BuildingBlock: AJUNOK_clean_linker_0, # of connection points: 2
#     Edge 6, Type (0, 0), BuildingBlock: AJUNOK_clean_linker_0, # of connection points: 2
#     Edge 7, Type (0, 0), BuildingBlock: AJUNOK_clean_linker_0, # of connection points: 2
#     Edge 8, Type (0, 0), BuildingBlock: AJUNOK_clean_linker_0, # of connection points: 2
#     Edge 9, Type (0, 0), BuildingBlock: AJUNOK_clean_linker_0, # of connection points: 2
#     Edge 10, Type (0, 0), BuildingBlock: AJUNOK_clean_linker_0, # of connection points: 2
#     Edge 11, Type (0, 0), BuildingBlock: AJUNOK_clean_linker_0, # of connection points: 2
# Relax obj value: 0.141
# Max RMSD: 0.174
# Mean RMSD: 0.173
data_MOF--net-lon--node1-CEKHIL_clean_sbu_0--edge1-AJUNOK_clean_linker_0
_symmetry_space_group_name_H-M    P1
_symmetry_Int_Tables_number       1
_symmetry_cell_setting            triclinic
loop_
_symmetry_equiv_pos_as_xyz
'x, y, z'
_cell_length_a     16.498541
_cell_length_b     17.928069
_cell_length_c     29.270294
_cell_angle_alpha  91.194356
_cell_angle_beta   90.341115
_cell_angle_gamma 117.49628
loop_
_atom_site_label
_atom_site_type_symbol
_atom_site_fract_x
_atom_site_fract_y
_atom_site_fract_z
_atom_type_partial_charge
Co0 Co 0.3999 0.73199 0.1011 0.0
O1 O 0.35702 0.77636 0.15178 0.0
O2 O 0.41002 0.68435 0.15799 0.0
C3 C 0.4841 0.85859 0.06881 0.0
O4 O 0.45298 0.67128 0.06119 0.0
Co5 Co 0.37467 0.74545 0.99766 0.0
O6 O 0.45892 0.69622 0.98642 0.0
C7 C 0.22184 0.61889 0.05189 0.0
C8 C 0.37832 0.73027 0.17819 0.0
C9 C 0.47557 0.66195 1.02029 0.0
O10 O 0.27187 0.63765 0.08862 0.0
O11 O 0.24927 0.65825 1.01454 0.0
O12 O 0.51762 0.83536 0.10281 0.0
O13 O 0.40208 0.80634 0.05595 0.0
Co14 Co 0.65971 0.35237 0.60089 0.0
O15 O 0.57844 0.30531 0.65234 0.0
O16 O 0.72714 0.34916 0.65428 0.0
C17 C 0.60055 0.43873 0.5806 0.0
O18 O 0.77014 0.40822 0.55934 0.0
Co19 Co 0.60279 0.3467 0.49948 0.0
O20 O 0.73356 0.41491 0.48622 0.0
C21 C 0.60139 0.19602 0.54054 0.0
C22 C 0.65111 0.31994 0.67638 0.0
C23 C 0.79262 0.42909 0.51772 0.0
O24 O 0.63719 0.23645 0.57848 0.0
O25 O 0.5776 0.22767 0.50749 0.0
O26 O 0.66049 0.46035 0.61374 0.0
O27 O 0.57606 0.3658 0.56173 0.0
Co28 Co 0.3248 0.68222 0.45267 0.0
O29 O 0.29266 0.73156 0.40124 0.0
O30 O 0.39691 0.68716 0.40009 0.0
C31 C 0.17784 0.59574 0.47123 0.0
O32 O 0.37745 0.62442 0.49433 0.0
Co33 Co 0.27098 0.68395 0.55361 0.0
O34 O 0.32359 0.6069 0.56533 0.0
C35 C 0.42039 0.83715 0.5144 0.0
C36 C 0.35137 0.71777 0.37775 0.0
C37 C 0.37226 0.59632 0.5349 0.0
O38 O 0.4181 0.79719 0.47674 0.0
O39 O 0.36384 0.80397 0.54669 0.0
O40 O 0.21676 0.57471 0.43842 0.0
O41 O 0.2273 0.66792 0.49084 0.0
Co42 Co 0.68899 0.31278 0.95343 0.0
O43 O 0.60043 0.26888 0.90276 0.0
O44 O 0.74534 0.36174 0.89669 0.0
C45 C 0.64874 0.18603 0.98489 0.0
O46 O 0.80472 0.37128 0.99303 0.0
Co47 Co 0.65204 0.29843 0.05656 0.0
O48 O 0.78572 0.35022 0.06807 0.0
C49 C 0.60874 0.41343 1.00128 0.0
C50 C 0.66735 0.31537 0.87641 0.0
C51 C 0.83714 0.38041 0.03402 0.0
O52 O 0.65302 0.4055 0.96679 0.0
O53 O 0.59632 0.3714 0.03767 0.0
O54 O 0.70423 0.21016 0.95067 0.0
O55 O 0.61815 0.23709 0.99822 0.0
C56 C 0.41479 0.69499 0.25536 0.0
C57 C 0.37105 0.7312 0.22903 0.0
C58 C 0.40999 0.6936 0.30317 0.0
C59 C 0.36033 0.7275 0.32718 0.0
H60 H 0.45347 0.66719 0.23896 0.0
H61 H 0.44435 0.66393 0.32133 0.0
S62 S 0.23399 0.83102 0.27481 0.0
N63 N 0.27755 0.80358 0.23079 0.0
N64 N 0.2672 0.79972 0.32075 0.0
C65 C 0.3167 0.76468 0.30144 0.0
C66 C 0.32242 0.76689 0.25247 0.0
C67 C 0.73461 0.3473 0.75147 0.0
C68 C 0.65071 0.31277 0.72718 0.0
C69 C 0.73846 0.348 0.79935 0.0
C70 C 0.65862 0.31333 0.82551 0.0
H71 H 0.79858 0.37569 0.73344 0.0
H72 H 0.80519 0.37595 0.81596 0.0
S73 S 0.42095 0.21352 0.77906 0.0
N74 N 0.48514 0.24232 0.73321 0.0
N75 N 0.49247 0.24221 0.82333 0.0
C76 C 0.57395 0.27733 0.80183 0.0
C77 C 0.56998 0.27746 0.75276 0.0
C78 C 0.57973 0.61081 0.98286 0.0
C79 C 0.50716 0.59767 1.01221 0.0
C80 C 0.6109 0.54978 0.97753 0.0
C81 C 0.5695 0.47348 1.00094 0.0
H82 H 0.61435 0.66951 0.96517 0.0
H83 H 0.66948 0.56364 0.95632 0.0
S84 S 0.36607 0.40335 0.07496 0.0
N85 N 0.38846 0.49928 0.0605 0.0
N86 N 0.44413 0.38461 0.04968 0.0
C87 C 0.49305 0.45809 0.02792 0.0
C88 C 0.4627 0.52015 0.0338 0.0
C89 C 0.05109 0.55866 0.52659 0.0
C90 C 0.08054 0.54564 0.48344 0.0
C91 C 0.95818 0.51971 0.53771 0.0
C92 C 0.89077 0.4678 0.5057 0.0
H93 H 0.10018 0.60017 0.55193 0.0
H94 H 0.93891 0.53216 0.57123 0.0
S95 S 0.93201 0.40957 0.38879 0.0
N96 N 0.03504 0.47371 0.40934 0.0
N97 N 0.86034 0.40172 0.42977 0.0
C98 C 0.91941 0.45276 0.46274 0.0
C99 C 1.01425 0.49121 0.45176 0.0
C100 C 0.51689 0.057 1.01102 0.0
C101 C 0.61154 0.10139 1.00444 0.0
C102 C 0.47743 0.97854 0.03146 0.0
C103 C 0.53114 0.94201 0.04752 0.0
H104 H 0.47257 0.08305 1.00003 0.0
H105 H 0.40396 0.94689 0.03546 0.0
S106 S 0.78297 0.03339 0.03929 0.0
N107 N 0.75862 0.10342 1.01517 0.0
N108 N 0.6845 0.95648 0.05556 0.0
C109 C 0.62625 0.98594 0.04161 0.0
C110 C 0.66642 0.06541 1.01946 0.0
C111 C 0.55398 0.52093 0.52842 0.0
C112 C 0.54823 0.48469 0.57106 0.0
C113 C 0.49663 0.55646 0.51695 0.0
C114 C 0.43002 0.55543 0.5474 0.0
H115 H 0.60281 0.52137 0.50368 0.0
H116 H 0.50472 0.58481 0.48387 0.0
S117 S 0.38283 0.45914 0.66184 0.0
N118 N 0.46892 0.44506 0.64283 0.0
N119 N 0.35949 0.50967 0.62147 0.0
C120 C 0.42288 0.51737 0.58995 0.0
C121 C 0.48229 0.48247 0.6017 0.0
C122 C 0.06743 0.53572 0.08719 0.0
C123 C 0.1276 0.54825 0.05093 0.0
C124 C 0.97378 0.47825 0.08247 0.0
C125 C 0.93748 0.43167 0.04133 0.0
H126 H 0.09176 0.57357 0.11838 0.0
H127 H 0.92894 0.47337 0.11038 0.0
S128 S 0.07026 0.43111 0.93949 0.0
N129 N 0.14661 0.50147 0.97503 0.0
N130 N 0.97193 0.39469 0.9661 0.0
C131 C 0.99851 0.43982 1.00618 0.0
C132 C 0.09317 0.49771 1.01102 0.0
C133 C 0.54549 0.05267 0.57211 0.0
C134 C 0.57802 0.10607 0.53494 0.0
C135 C 0.50043 0.96514 0.56524 0.0
C136 C 0.48639 0.92769 0.52097 0.0
H137 H 0.54867 0.07843 0.60628 0.0
H138 H 0.47201 0.92676 0.5948 0.0
S139 S 0.57667 0.04079 0.41352 0.0
N140 N 0.60709 0.11595 0.45329 0.0
N141 N 0.52162 0.95143 0.44037 0.0
C142 C 0.52702 0.98043 0.48413 0.0
C143 C 0.57288 0.06963 0.49114 0.0
loop_
_geom_bond_atom_site_label_1
_geom_bond_atom_site_label_2
_geom_bond_distance
_geom_bond_site_symmetry_2
_ccdc_geom_bond_type
Co0 O1 2.216 . S
Co0 O2 2.091 . S
Co0 O4 2.004 . S
Co0 O10 2.021 . S
Co0 O12 2.137 . S
Co0 O13 2.244 . S
O1 Co0 2.216 . S
O1 C8 1.247 . S
O2 Co0 2.091 . S
O2 C8 1.261 . S
C3 O12 1.247 . S
C3 O13 1.272 . S
O4 Co0 2.004 . S
O4 C9 1.259 . S
Co5 O6 2.061 . S
Co5 O11 2.040 1_556 S
Co5 O13 2.135 1_556 S
O6 Co5 2.061 . S
O6 C9 1.235 1_556 S
C7 O10 1.238 . S
C7 O11 1.261 . S
C8 O1 1.247 . S
C8 O2 1.261 . S
C9 O4 1.259 . S
C9 O6 1.235 1_554 S
O10 Co0 2.021 . S
O10 C7 1.238 . S
O11 Co5 2.040 1_554 S
O11 C7 1.261 . S
O12 Co0 2.137 . S
O12 C3 1.247 . S
O13 Co0 2.244 . S
O13 C3 1.272 . S
O13 Co5 2.135 1_554 S
Co14 O15 2.216 . S
Co14 O16 2.091 . S
Co14 O18 2.004 . S
Co14 O24 2.021 . S
Co14 O26 2.137 . S
Co14 O27 2.244 . S
O15 Co14 2.216 . S
O15 C22 1.247 . S
O16 Co14 2.091 . S
O16 C22 1.261 . S
C17 O26 1.247 . S
C17 O27 1.272 . S
O18 Co14 2.004 . S
O18 C23 1.259 . S
Co19 O20 2.061 . S
Co19 O25 2.052 . S
Co19 O27 2.135 . S
O20 Co19 2.061 . S
O20 C23 1.235 . S
C21 O24 1.238 . S
C21 O25 1.241 . S
C22 O15 1.247 . S
C22 O16 1.261 . S
C23 O18 1.259 . S
C23 O20 1.235 . S
O24 Co14 2.021 . S
O24 C21 1.238 . S
O25 Co19 2.052 . S
O25 C21 1.241 . S
O26 Co14 2.137 . S
O26 C17 1.247 . S
O27 Co14 2.244 . S
O27 C17 1.272 . S
O27 Co19 2.135 . S
Co28 O29 2.216 . S
Co28 O30 2.091 . S
Co28 O32 2.004 . S
Co28 O38 2.021 . S
Co28 O40 2.137 . S
Co28 O41 2.244 . S
O29 Co28 2.216 . S
O29 C36 1.247 . S
O30 Co28 2.091 . S
O30 C36 1.261 . S
C31 O40 1.247 . S
C31 O41 1.272 . S
O32 Co28 2.004 . S
O32 C37 1.259 . S
Co33 O34 2.061 . S
Co33 O39 2.052 . S
Co33 O41 2.135 . S
O34 Co33 2.061 . S
O34 C37 1.235 . S
C35 O38 1.238 . S
C35 O39 1.241 . S
C36 O29 1.247 . S
C36 O30 1.261 . S
C37 O32 1.259 . S
C37 O34 1.235 . S
O38 Co28 2.021 . S
O38 C35 1.238 . S
O39 Co33 2.052 . S
O39 C35 1.241 . S
O40 Co28 2.137 . S
O40 C31 1.247 . S
O41 Co28 2.244 . S
O41 C31 1.272 . S
O41 Co33 2.135 . S
Co42 O43 2.216 . S
Co42 O44 2.091 . S
Co42 O46 2.004 . S
Co42 O52 2.021 . S
Co42 O54 2.137 . S
Co42 O55 2.244 . S
O43 Co42 2.216 . S
O43 C50 1.247 . S
O44 Co42 2.091 . S
O44 C50 1.261 . S
C45 O54 1.247 . S
C45 O55 1.272 . S
O46 Co42 2.004 . S
O46 C51 1.259 . S
Co47 O48 2.061 . S
Co47 O53 2.040 1_554 S
Co47 O55 2.135 1_554 S
O48 Co47 2.061 . S
O48 C51 1.235 1_554 S
C49 O52 1.238 . S
C49 O53 1.261 . S
C50 O43 1.247 . S
C50 O44 1.261 . S
C51 O46 1.259 . S
C51 O48 1.235 1_556 S
O52 Co42 2.021 . S
O52 C49 1.238 . S
O53 Co47 2.040 1_556 S
O53 C49 1.261 . S
O54 Co42 2.137 . S
O54 C45 1.247 . S
O55 Co42 2.244 . S
O55 C45 1.272 . S
O55 Co47 2.135 1_556 S
C56 C57 1.369 . S
C56 C58 1.419 . S
C56 H60 0.930 . S
C57 C56 1.369 . S
C57 C66 1.429 . S
C58 C56 1.419 . S
C58 C59 1.363 . S
C58 H61 0.929 . S
C59 C58 1.363 . S
C59 C65 1.428 . S
H60 C56 0.930 . S
H61 C58 0.929 . S
S62 N63 1.613 . S
S62 N64 1.610 . S
N63 S62 1.613 . S
N63 C66 1.350 . S
N64 S62 1.610 . S
N64 C65 1.351 . S
C65 C59 1.428 . S
C65 N64 1.351 . S
C65 C66 1.434 . S
C66 C57 1.429 . S
C66 N63 1.350 . S
C66 C65 1.434 . S
C67 C68 1.369 . S
C67 C69 1.419 . S
C67 H71 0.930 . S
C68 C67 1.369 . S
C68 C77 1.429 . S
C69 C67 1.419 . S
C69 C70 1.363 . S
C69 H72 0.929 . S
C70 C69 1.363 . S
C70 C76 1.428 . S
H71 C67 0.930 . S
H72 C69 0.929 . S
S73 N74 1.613 . S
S73 N75 1.610 . S
N74 S73 1.613 . S
N74 C77 1.350 . S
N75 S73 1.610 . S
N75 C76 1.351 . S
C76 C70 1.428 . S
C76 N75 1.351 . S
C76 C77 1.434 . S
C77 C68 1.429 . S
C77 N74 1.350 . S
C77 C76 1.434 . S
C78 C79 1.369 . S
C78 C80 1.419 . S
C78 H82 0.930 . S
C79 C78 1.369 . S
C79 C88 1.429 1_556 S
C80 C78 1.419 . S
C80 C81 1.363 . S
C80 H83 0.929 . S
C81 C80 1.363 . S
C81 C87 1.428 1_556 S
H82 C78 0.930 . S
H83 C80 0.929 . S
S84 N85 1.613 . S
S84 N86 1.610 . S
N85 S84 1.613 . S
N85 C88 1.350 . S
N86 S84 1.610 . S
N86 C87 1.351 . S
C87 C81 1.428 1_554 S
C87 N86 1.351 . S
C87 C88 1.434 . S
C88 C79 1.429 1_554 S
C88 N85 1.350 . S
C88 C87 1.434 . S
C89 C90 1.369 . S
C89 C91 1.419 1_455 S
C89 H93 0.930 . S
C90 C89 1.369 . S
C90 C99 1.429 . S
C91 C89 1.419 1_655 S
C91 C92 1.363 . S
C91 H94 0.929 . S
C92 C91 1.363 . S
C92 C98 1.428 . S
H93 C89 0.930 . S
H94 C91 0.929 . S
S95 N96 1.613 1_655 S
S95 N97 1.610 . S
N96 S95 1.613 1_455 S
N96 C99 1.350 . S
N97 S95 1.610 . S
N97 C98 1.351 . S
C98 C92 1.428 . S
C98 N97 1.351 . S
C98 C99 1.434 1_655 S
C99 C90 1.429 . S
C99 N96 1.350 . S
C99 C98 1.434 1_455 S
C100 C101 1.369 . S
C100 C102 1.419 1_546 S
C100 H104 0.930 . S
C101 C100 1.369 . S
C101 C110 1.429 . S
C102 C100 1.419 1_564 S
C102 C103 1.363 . S
C102 H105 0.929 . S
C103 C102 1.363 . S
C103 C109 1.428 . S
H104 C100 0.930 . S
H105 C102 0.929 . S
S106 N107 1.613 1_554 S
S106 N108 1.610 1_545 S
N107 S106 1.613 1_556 S
N107 C110 1.350 . S
N108 S106 1.610 1_565 S
N108 C109 1.351 . S
C109 C103 1.428 . S
C109 N108 1.351 . S
C109 C110 1.434 1_564 S
C110 C101 1.429 . S
C110 N107 1.350 . S
C110 C109 1.434 1_546 S
C111 C112 1.369 . S
C111 C113 1.419 . S
C111 H115 0.930 . S
C112 C111 1.369 . S
C112 C121 1.429 . S
C113 C111 1.419 . S
C113 C114 1.363 . S
C113 H116 0.929 . S
C114 C113 1.363 . S
C114 C120 1.428 . S
H115 C111 0.930 . S
H116 C113 0.929 . S
S117 N118 1.613 . S
S117 N119 1.610 . S
N118 S117 1.613 . S
N118 C121 1.350 . S
N119 S117 1.610 . S
N119 C120 1.351 . S
C120 C114 1.428 . S
C120 N119 1.351 . S
C120 C121 1.434 . S
C121 C112 1.429 . S
C121 N118 1.350 . S
C121 C120 1.434 . S
C122 C123 1.369 . S
C122 C124 1.419 1_455 S
C122 H126 0.930 . S
C123 C122 1.369 . S
C123 C132 1.429 1_554 S
C124 C122 1.419 1_655 S
C124 C125 1.363 . S
C124 H127 0.929 . S
C125 C124 1.363 . S
C125 C131 1.428 1_554 S
H126 C122 0.930 . S
H127 C124 0.929 . S
S128 N129 1.613 . S
S128 N130 1.610 1_455 S
N129 S128 1.613 . S
N129 C132 1.350 . S
N130 S128 1.610 1_655 S
N130 C131 1.351 . S
C131 C125 1.428 1_556 S
C131 N130 1.351 . S
C131 C132 1.434 1_655 S
C132 C123 1.429 1_556 S
C132 N129 1.350 . S
C132 C131 1.434 1_455 S
C133 C134 1.369 . S
C133 C135 1.419 1_545 S
C133 H137 0.930 . S
C134 C133 1.369 . S
C134 C143 1.429 . S
C135 C133 1.419 1_565 S
C135 C136 1.363 . S
C135 H138 0.929 . S
C136 C135 1.363 . S
C136 C142 1.428 . S
H137 C133 0.930 . S
H138 C135 0.929 . S
S139 N140 1.613 . S
S139 N141 1.610 1_545 S
N140 S139 1.613 . S
N140 C143 1.350 . S
N141 S139 1.610 1_565 S
N141 C142 1.351 . S
C142 C136 1.428 . S
C142 N141 1.351 . S
C142 C143 1.434 1_565 S
C143 C134 1.429 . S
C143 N140 1.350 . S
C143 C142 1.434 1_545 S
C57 C8 1.569 . S
C59 C36 1.568 . S
C68 C22 1.566 . S
C70 C50 1.569 . S
C79 C9 1.548 1_556 S
C81 C49 1.512 . S
C90 C31 1.565 . S
C92 C23 1.563 . S
C101 C45 1.584 . S
C103 C3 1.584 . S
C112 C17 1.566 . S
C114 C37 1.562 . S
C123 C7 1.511 . S
C125 C51 1.548 1_554 S
C134 C21 1.467 . S
C136 C35 1.471 . S
