# Generated by pormake.
# Topology pcu, (6)-cn, num edge types: 1
# Building blocks:
#     Node 0, Type 0, BuildingBlock: FUNLAD_clean_sbu_0, # of connection points: 6
#     Edge 1, Type (0, 0), BuildingBlock: CIFDUS_clean_linker_0, # of connection points: 2
#     Edge 2, Type (0, 0), BuildingBlock: CIFDUS_clean_linker_0, # of connection points: 2
#     Edge 3, Type (0, 0), BuildingBlock: CIFDUS_clean_linker_0, # of connection points: 2
# Relax obj value: 0.000
# Max RMSD: 0.000
# Mean RMSD: 0.000
data_MOF--net-pcu--node1-FUNLAD_clean_sbu_0--edge1-CIFDUS_clean_linker_0
_symmetry_space_group_name_H-M    P1
_symmetry_Int_Tables_number       1
_symmetry_cell_setting            triclinic
loop_
_symmetry_equiv_pos_as_xyz
'x, y, z'
_cell_length_a     13.48227
_cell_length_b     13.487359
_cell_length_c     19.841762
_cell_angle_alpha  88.895609
_cell_angle_beta   95.520313
_cell_angle_gamma 92.364882
loop_
_atom_site_label
_atom_site_type_symbol
_atom_site_fract_x
_atom_site_fract_y
_atom_site_fract_z
_atom_type_partial_charge
C0 C 0.19571 -0.01166 0.02908 0.0
N1 N 0.98536 0.97115 0.85891 0.0
C2 C 0.04568 0.03435 0.82554 0.0
C3 C 0.0402 0.03514 0.7549 0.0
C4 C 0.972 0.97021 0.71811 0.0
C5 C 0.91188 0.90457 0.754 0.0
C6 C 0.91977 0.90634 0.82467 0.0
Zn7 Zn 0.98915 0.97831 0.96196 0.0
C8 C 0.98758 0.77974 0.02853 0.0
N9 N -0.0057 -0.00256 0.17686 0.0
C10 C 0.05989 0.06225 0.2111 0.0
C11 C 0.93397 0.93424 0.21023 0.0
C12 C 0.93946 0.93345 0.28086 0.0
C13 C 0.00766 -0.00162 0.31765 0.0
C14 C 0.06777 0.06402 0.28176 0.0
Zn15 Zn -0.0095 -0.00972 0.0738 0.0
O16 O 0.14716 0.98157 0.97106 0.0
C17 C -0.00793 0.18885 1.00723 0.0
O18 O 0.14845 -0.00655 0.08125 0.0
H19 H 0.88262 0.88304 0.18206 0.0
H20 H 0.09704 0.08555 0.85371 0.0
H21 H 0.10713 0.1119 0.18358 0.0
O22 O -0.00899 0.13537 0.9551 0.0
O23 O -0.00767 0.14724 0.06529 0.0
H24 H 0.87253 0.85669 0.85218 0.0
O25 O 0.8325 -0.01298 0.06471 0.0
O26 O 0.8312 0.97514 0.95452 0.0
O27 O 0.98865 0.83322 0.08066 0.0
O28 O 0.98733 0.82135 0.97048 0.0
C29 C 0.78395 0.98025 1.00669 0.0
H30 H 0.08714 0.08785 0.72939 0.0
H31 H 0.85927 0.85231 0.72777 0.0
H32 H 0.89251 0.88075 0.30637 0.0
H33 H 0.12039 0.11628 0.30799 0.0
H34 H 0.85897 0.9795 0.40142 0.0
H35 H 0.17908 0.01141 0.4032 0.0
H36 H 0.19622 0.00592 0.52676 0.0
H37 H 0.12069 -0.0109 0.63434 0.0
H38 H 0.80057 0.95718 0.63257 0.0
H39 H 0.78344 0.96267 0.509 0.0
C40 C 0.93256 -0.01556 0.4288 0.0
C41 C 0.01753 -0.00394 0.39295 0.0
C42 C 0.94201 0.98035 0.49989 0.0
C43 C 0.11225 0.0039 0.4294 0.0
C44 C 0.12223 5e-05 0.50011 0.0
C45 C 0.0471 0.98416 0.60697 0.0
C46 C 0.96213 0.97253 0.64281 0.0
C47 C 0.03765 -0.01176 0.53587 0.0
C48 C 0.86741 0.96469 0.60637 0.0
C49 C 0.85743 0.96855 0.53566 0.0
H50 H 0.31851 0.97292 0.92897 0.0
H51 H 0.32106 0.00556 0.14523 0.0
H52 H 0.50285 0.00533 0.15735 0.0
H53 H 0.66114 -0.00433 0.10679 0.0
H54 H 0.6586 0.96303 0.89054 0.0
H55 H 0.47681 0.96326 0.87842 0.0
C56 C 0.35875 0.98009 0.97878 0.0
C57 C 0.30606 -0.01078 0.03605 0.0
C58 C 0.46337 0.97975 0.98549 0.0
C59 C 0.35957 -0.00164 0.10022 0.0
C60 C 0.46363 -0.00179 0.10726 0.0
C61 C 0.62091 -0.01149 0.05699 0.0
C62 C 0.6736 0.97937 0.99971 0.0
C63 C 0.51629 -0.01116 0.05027 0.0
C64 C 0.62008 0.97023 0.93555 0.0
C65 C 0.51602 0.97038 0.9285 0.0
H66 H -0.00971 0.64467 0.9286 0.0
H67 H 0.98496 0.66867 0.14493 0.0
H68 H 0.98641 0.48843 0.15742 0.0
H69 H 0.98937 0.32392 0.10717 0.0
H70 H -0.0053 0.29992 0.89083 0.0
H71 H -0.00675 0.48016 0.87835 0.0
C72 C 0.98936 0.61055 0.9785 0.0
C73 C 0.98754 0.67027 0.03568 0.0
C74 C -0.00966 0.50677 0.98543 0.0
C75 C 0.98642 0.62464 0.09998 0.0
C76 C 0.98727 0.52147 0.10723 0.0
C77 C -0.00971 0.35804 0.05726 0.0
C78 C -0.00789 0.29832 1.00008 0.0
C79 C 0.98932 0.46182 0.05034 0.0
C80 C -0.00676 0.34395 0.93579 0.0
C81 C -0.00761 0.44712 0.92853 0.0
loop_
_geom_bond_atom_site_label_1
_geom_bond_atom_site_label_2
_geom_bond_distance
_geom_bond_site_symmetry_2
_ccdc_geom_bond_type
C0 O16 1.243 1_544 S
C0 O18 1.263 . S
N1 C2 1.333 1_665 S
N1 C6 1.307 . S
N1 Zn7 2.020 . S
C2 N1 1.333 1_445 S
C2 C3 1.379 . S
C2 H20 0.952 . S
C3 C2 1.379 . S
C3 C4 1.391 1_455 S
C3 H30 0.949 . S
C4 C3 1.391 1_655 S
C4 C5 1.355 1_545 S
C5 C4 1.355 1_565 S
C5 C6 1.370 . S
C5 H31 0.950 . S
C6 N1 1.307 . S
C6 C5 1.370 . S
C6 H24 0.948 . S
Zn7 N1 2.020 . S
Zn7 O16 2.039 1_655 S
Zn7 O22 2.034 1_665 S
Zn7 O26 2.025 . S
Zn7 O28 2.024 . S
C8 O27 1.246 1_556 S
C8 O28 1.249 . S
N9 C10 1.307 . S
N9 C11 1.333 1_445 S
N9 Zn15 2.020 . S
C10 N9 1.307 . S
C10 C14 1.370 . S
C10 H21 0.948 . S
C11 N9 1.333 1_665 S
C11 C12 1.379 . S
C11 H19 0.952 . S
C12 C11 1.379 . S
C12 C13 1.391 1_655 S
C12 H32 0.949 . S
C13 C12 1.391 1_455 S
C13 C14 1.356 1_565 S
C14 C10 1.370 . S
C14 C13 1.356 1_545 S
C14 H33 0.950 . S
Zn15 N9 2.020 . S
Zn15 O18 2.025 . S
Zn15 O23 2.024 . S
Zn15 O25 2.039 1_455 S
Zn15 O27 2.034 1_445 S
O16 C0 1.243 1_566 S
O16 Zn7 2.039 1_455 S
C17 O22 1.246 1_554 S
C17 O23 1.249 . S
O18 C0 1.263 . S
O18 Zn15 2.025 . S
H19 C11 0.952 . S
H20 C2 0.952 . S
H21 C10 0.948 . S
O22 Zn7 2.034 1_445 S
O22 C17 1.246 1_556 S
O23 Zn15 2.024 . S
O23 C17 1.249 . S
H24 C6 0.948 . S
O25 Zn15 2.039 1_655 S
O25 C29 1.246 1_544 S
O26 Zn7 2.025 . S
O26 C29 1.259 . S
O27 C8 1.246 1_554 S
O27 Zn15 2.034 1_665 S
O28 Zn7 2.024 . S
O28 C8 1.249 . S
C29 O25 1.246 1_566 S
C29 O26 1.259 . S
H30 C3 0.949 . S
H31 C5 0.950 . S
H32 C12 0.949 . S
H33 C14 0.950 . S
H34 C40 0.930 . S
H35 C43 0.930 . S
H36 C44 0.930 . S
H37 C45 0.930 . S
H38 C48 0.930 . S
H39 C49 0.930 . S
C40 H34 0.930 . S
C40 C41 1.355 1_665 S
C40 C42 1.415 . S
C41 C40 1.355 1_445 S
C41 C43 1.419 . S
C42 C40 1.415 . S
C42 C47 1.425 1_665 S
C42 C49 1.409 . S
C43 H35 0.930 . S
C43 C41 1.419 . S
C43 C44 1.362 . S
C44 H36 0.930 . S
C44 C43 1.362 . S
C44 C47 1.409 . S
C45 H37 0.930 . S
C45 C46 1.355 1_445 S
C45 C47 1.415 . S
C46 C45 1.355 1_665 S
C46 C48 1.419 . S
C47 C42 1.425 1_445 S
C47 C44 1.409 . S
C47 C45 1.415 . S
C48 H38 0.930 . S
C48 C46 1.419 . S
C48 C49 1.362 . S
C49 H39 0.930 . S
C49 C42 1.409 . S
C49 C48 1.362 . S
H50 C56 0.930 . S
H51 C59 0.930 . S
H52 C60 0.930 . S
H53 C61 0.930 . S
H54 C64 0.930 . S
H55 C65 0.930 . S
C56 H50 0.930 . S
C56 C57 1.355 1_566 S
C56 C58 1.415 . S
C57 C56 1.355 1_544 S
C57 C59 1.419 . S
C58 C56 1.415 . S
C58 C63 1.425 1_566 S
C58 C65 1.409 . S
C59 H51 0.930 . S
C59 C57 1.419 . S
C59 C60 1.362 . S
C60 H52 0.930 . S
C60 C59 1.362 . S
C60 C63 1.409 . S
C61 H53 0.930 . S
C61 C62 1.355 1_544 S
C61 C63 1.415 . S
C62 C61 1.355 1_566 S
C62 C64 1.419 . S
C63 C58 1.425 1_544 S
C63 C60 1.409 . S
C63 C61 1.415 . S
C64 H54 0.930 . S
C64 C62 1.419 . S
C64 C65 1.362 . S
C65 H55 0.930 . S
C65 C58 1.409 . S
C65 C64 1.362 . S
H66 C72 0.930 . S
H67 C75 0.930 . S
H68 C76 0.930 . S
H69 C77 0.930 . S
H70 C80 0.930 . S
H71 C81 0.930 . S
C72 H66 0.930 . S
C72 C73 1.355 1_656 S
C72 C74 1.415 . S
C73 C72 1.355 1_454 S
C73 C75 1.419 . S
C74 C72 1.415 . S
C74 C79 1.425 1_656 S
C74 C81 1.409 . S
C75 H67 0.930 . S
C75 C73 1.419 . S
C75 C76 1.362 . S
C76 H68 0.930 . S
C76 C75 1.362 . S
C76 C79 1.409 . S
C77 H69 0.930 . S
C77 C78 1.355 1_454 S
C77 C79 1.415 . S
C78 C77 1.355 1_656 S
C78 C80 1.419 . S
C79 C74 1.425 1_454 S
C79 C76 1.409 . S
C79 C77 1.415 . S
C80 H70 0.930 . S
C80 C78 1.419 . S
C80 C81 1.362 . S
C81 H71 0.930 . S
C81 C74 1.409 . S
C81 C80 1.362 . S
C41 C13 1.487 1_545 S
C46 C4 1.487 1_565 S
C57 C0 1.492 . S
C62 C29 1.492 . S
C73 C8 1.499 1_454 S
C78 C17 1.499 1_656 S
