# Generated by pormake.
# Topology qtz-x, (6)-cn, num edge types: 1
# Building blocks:
#     Node 0, Type 0, BuildingBlock: BETDEL_clean_sbu_0, # of connection points: 6
#     Node 1, Type 0, BuildingBlock: BETDEL_clean_sbu_0, # of connection points: 6
#     Node 2, Type 0, BuildingBlock: BETDEL_clean_sbu_0, # of connection points: 6
#     Edge 3, Type (0, 0), None
#     Edge 4, Type (0, 0), None
#     Edge 5, Type (0, 0), None
#     Edge 6, Type (0, 0), None
#     Edge 7, Type (0, 0), None
#     Edge 8, Type (0, 0), None
#     Edge 9, Type (0, 0), None
#     Edge 10, Type (0, 0), None
#     Edge 11, Type (0, 0), None
# Relax obj value: 0.207
# Max RMSD: 0.249
# Mean RMSD: 0.236
data_MOF--net-qtz-x--node1-BETDEL_clean_sbu_0--edge1-none
_symmetry_space_group_name_H-M    P1
_symmetry_Int_Tables_number       1
_symmetry_cell_setting            triclinic
loop_
_symmetry_equiv_pos_as_xyz
'x, y, z'
_cell_length_a     6.782077
_cell_length_b     6.8217013
_cell_length_c     19.834382
_cell_angle_alpha  84.192715
_cell_angle_beta   98.944727
_cell_angle_gamma 119.8317
loop_
_atom_site_label
_atom_site_type_symbol
_atom_site_fract_x
_atom_site_fract_y
_atom_site_fract_z
_atom_type_partial_charge
Dy0 Dy 0.92514 0.51781 0.24243 0.0
C1 C 0.47936 0.92445 0.0784 0.0
C2 C 0.70192 0.40538 0.35514 0.0
Dy3 Dy 0.27791 0.65221 0.18404 0.0
O4 O 0.88653 0.59136 0.34581 0.0
O5 O 0.63047 0.28323 0.3009 0.0
O6 O 0.86767 0.80831 0.20788 0.0
O7 O 0.20566 0.87648 0.23622 0.0
C8 C 0.07916 -0.03568 0.21354 0.0
C9 C 0.14956 0.21265 0.21087 0.0
O10 O 0.46065 0.73839 0.28977 0.0
O11 O 0.14478 0.43421 0.32079 0.0
O12 O 0.56989 0.82894 0.1229 0.0
O13 O 0.28251 0.87881 0.0938 0.0
O14 O 0.36103 0.37335 0.20964 0.0
O15 O 0.00908 0.28988 0.19427 0.0
O16 O 0.7261 0.45152 0.13601 0.0
O17 O 0.03822 0.50421 0.09154 0.0
C18 C 0.35507 0.58913 0.33732 0.0
C19 C 0.82673 0.46066 0.08266 0.0
Dy20 Dy 0.72647 0.24009 0.57969 0.0
C21 C 0.42382 0.63976 0.40942 0.0
C22 C 0.95192 0.52754 0.68441 0.0
Dy23 Dy 0.45955 0.86957 0.5187 0.0
O24 O 0.9707 0.35466 0.67428 0.0
O25 O 0.81868 0.55328 0.63395 0.0
O26 O 0.03904 0.28427 0.54072 0.0
O27 O 0.80207 0.95938 0.57245 0.0
C28 C -0.00615 0.07678 0.54882 0.0
C29 C 0.17195 0.0065 0.54739 0.0
O30 O 0.46144 0.71913 0.62497 0.0
O31 O 0.52042 0.04477 0.66447 0.0
O32 O 0.27241 0.56845 0.4523 0.0
O33 O 0.60118 0.82685 0.42994 0.0
O34 O 0.12171 0.79617 0.54605 0.0
O35 O 0.37233 0.13887 0.5297 0.0
O36 O 0.75923 0.42447 0.47854 0.0
O37 O 0.50192 0.09462 0.42689 0.0
C38 C 0.46781 0.834 0.67596 0.0
C39 C 0.64289 0.31075 0.42295 0.0
Dy40 Dy 0.60388 0.7736 0.90703 0.0
C41 C 0.94905 0.57427 0.75311 0.0
C42 C 0.52758 0.95652 1.00881 0.0
Dy43 Dy 0.71331 0.54279 0.8552 0.0
O44 O 0.72316 -0.01057 0.99734 0.0
O45 O 0.37188 0.83602 0.96038 0.0
O46 O 0.87497 0.09757 0.86785 0.0
O47 O 0.96738 0.85557 0.90747 0.0
C48 C 0.0415 0.05498 0.88169 0.0
C49 C 0.28745 0.23567 0.88046 0.0
O50 O 0.84731 0.48512 0.96124 0.0
O51 O 0.58339 0.54217 0.99751 0.0
O52 O 0.87243 0.40846 0.79764 0.0
O53 O 0.90509 0.72888 0.76646 0.0
O54 O 0.45401 0.19166 0.88132 0.0
O55 O 0.34891 0.44199 0.86197 0.0
O56 O 0.49162 0.8632 0.80003 0.0
O57 O 0.52956 0.58945 0.75813 0.0
C58 C 0.73524 0.47589 1.0112 0.0
C59 C 0.48037 0.75194 0.74734 0.0
loop_
_geom_bond_atom_site_label_1
_geom_bond_atom_site_label_2
_geom_bond_distance
_geom_bond_site_symmetry_2
_ccdc_geom_bond_type
Dy0 O4 2.398 . S
Dy0 O5 2.491 . S
Dy0 O6 2.403 . S
Dy0 O7 2.664 1_655 S
Dy0 O11 2.326 1_655 S
Dy0 O15 2.310 . S
Dy0 O16 2.351 . S
C1 O12 1.185 . S
C1 O13 1.355 1_565 S
C2 O4 1.185 . S
C2 O5 1.355 . S
Dy3 O7 2.310 . S
Dy3 O10 2.351 . S
Dy3 O12 2.398 . S
Dy3 O13 2.491 1_565 S
Dy3 O14 2.403 . S
Dy3 O15 2.664 1_455 S
Dy3 O17 2.326 1_455 S
O4 Dy0 2.398 . S
O4 C2 1.185 . S
O5 Dy0 2.491 . S
O5 C2 1.355 . S
O6 Dy0 2.403 . S
O6 C8 1.254 1_565 S
O7 Dy0 2.664 1_455 S
O7 Dy3 2.310 . S
O7 C8 1.268 1_465 S
C8 O6 1.254 1_545 S
C8 O7 1.268 1_645 S
C9 O14 1.254 . S
C9 O15 1.268 1_455 S
O10 Dy3 2.351 . S
O10 C18 1.249 . S
O11 Dy0 2.326 1_455 S
O11 C18 1.267 . S
O12 C1 1.185 . S
O12 Dy3 2.398 . S
O13 C1 1.355 1_545 S
O13 Dy3 2.491 1_545 S
O14 Dy3 2.403 . S
O14 C9 1.254 . S
O15 Dy0 2.310 . S
O15 Dy3 2.664 1_655 S
O15 C9 1.268 1_655 S
O16 Dy0 2.351 . S
O16 C19 1.249 . S
O17 Dy3 2.326 1_655 S
O17 C19 1.267 . S
C18 O10 1.249 . S
C18 O11 1.267 . S
C19 O16 1.249 . S
C19 O17 1.267 . S
Dy20 O24 2.398 1_655 S
Dy20 O25 2.491 . S
Dy20 O26 2.403 1_655 S
Dy20 O27 2.664 1_545 S
Dy20 O31 2.326 1_545 S
Dy20 O35 2.310 . S
Dy20 O36 2.351 . S
C21 O32 1.185 . S
C21 O33 1.355 . S
C22 O24 1.185 1_655 S
C22 O25 1.355 . S
Dy23 O27 2.310 . S
Dy23 O30 2.351 . S
Dy23 O32 2.398 . S
Dy23 O33 2.491 . S
Dy23 O34 2.403 . S
Dy23 O35 2.664 1_565 S
Dy23 O37 2.326 1_565 S
O24 Dy20 2.398 1_455 S
O24 C22 1.185 1_455 S
O25 Dy20 2.491 . S
O25 C22 1.355 . S
O26 Dy20 2.403 1_455 S
O26 C28 1.254 . S
O27 Dy20 2.664 1_565 S
O27 Dy23 2.310 . S
O27 C28 1.268 1_665 S
C28 O26 1.254 . S
C28 O27 1.268 1_445 S
C29 O34 1.254 . S
C29 O35 1.268 1_565 S
O30 Dy23 2.351 . S
O30 C38 1.249 . S
O31 Dy20 2.326 1_565 S
O31 C38 1.267 . S
O32 C21 1.185 . S
O32 Dy23 2.398 . S
O33 C21 1.355 . S
O33 Dy23 2.491 . S
O34 Dy23 2.403 . S
O34 C29 1.254 . S
O35 Dy20 2.310 . S
O35 Dy23 2.664 1_545 S
O35 C29 1.268 1_545 S
O36 Dy20 2.351 . S
O36 C39 1.249 . S
O37 Dy23 2.326 1_545 S
O37 C39 1.267 . S
C38 O30 1.249 . S
C38 O31 1.267 . S
C39 O36 1.249 . S
C39 O37 1.267 . S
Dy40 O44 2.398 . S
Dy40 O45 2.491 1_545 S
Dy40 O46 2.403 1_655 S
Dy40 O47 2.664 1_655 S
Dy40 O51 2.326 1_545 S
Dy40 O55 2.310 1_545 S
Dy40 O56 2.351 . S
C41 O52 1.185 1_455 S
C41 O53 1.355 . S
C42 O44 1.185 . S
C42 O45 1.355 1_545 S
Dy43 O47 2.310 1_665 S
Dy43 O50 2.351 . S
Dy43 O52 2.398 . S
Dy43 O53 2.491 1_655 S
Dy43 O54 2.403 . S
Dy43 O55 2.664 . S
Dy43 O57 2.326 . S
O44 Dy40 2.398 . S
O44 C42 1.185 . S
O45 Dy40 2.491 1_565 S
O45 C42 1.355 1_565 S
O46 Dy40 2.403 1_455 S
O46 C48 1.254 . S
O47 Dy40 2.664 1_455 S
O47 Dy43 2.310 1_445 S
O47 C48 1.268 . S
C48 O46 1.254 . S
C48 O47 1.268 . S
C49 O54 1.254 . S
C49 O55 1.268 . S
O50 Dy43 2.351 . S
O50 C58 1.249 . S
O51 Dy40 2.326 1_565 S
O51 C58 1.267 . S
O52 C41 1.185 1_655 S
O52 Dy43 2.398 . S
O53 C41 1.355 . S
O53 Dy43 2.491 1_455 S
O54 Dy43 2.403 . S
O54 C49 1.254 . S
O55 Dy40 2.310 1_565 S
O55 Dy43 2.664 . S
O55 C49 1.268 . S
O56 Dy40 2.351 . S
O56 C59 1.249 1_545 S
O57 Dy43 2.326 . S
O57 C59 1.267 . S
C58 O50 1.249 . S
C58 O51 1.267 . S
C59 O56 1.249 1_565 S
C59 O57 1.267 . S
C8 C9 1.495 1_655 S
C29 C28 1.704 1_565 S
C48 C49 1.405 . S
C42 C1 1.345 1_546 S
C39 C2 2.068 . S
C59 C38 2.282 . S
C58 C19 2.210 1_556 S
C18 C21 2.056 . S
C41 C22 1.207 1_455 S
