# Generated by pormake.
# Topology kag, (6)-cn, num edge types: 1
# Building blocks:
#     Node 0, Type 0, BuildingBlock: INOVEN_clean_sbu_0, # of connection points: 6
#     Node 1, Type 0, BuildingBlock: INOVEN_clean_sbu_0, # of connection points: 6
#     Node 2, Type 0, BuildingBlock: INOVEN_clean_sbu_0, # of connection points: 6
#     Edge 3, Type (0, 0), BuildingBlock: AJUNOK_clean_linker_0, # of connection points: 2
#     Edge 4, Type (0, 0), BuildingBlock: AJUNOK_clean_linker_0, # of connection points: 2
#     Edge 5, Type (0, 0), BuildingBlock: AJUNOK_clean_linker_0, # of connection points: 2
#     Edge 6, Type (0, 0), BuildingBlock: AJUNOK_clean_linker_0, # of connection points: 2
#     Edge 7, Type (0, 0), BuildingBlock: AJUNOK_clean_linker_0, # of connection points: 2
#     Edge 8, Type (0, 0), BuildingBlock: AJUNOK_clean_linker_0, # of connection points: 2
#     Edge 9, Type (0, 0), BuildingBlock: AJUNOK_clean_linker_0, # of connection points: 2
#     Edge 10, Type (0, 0), BuildingBlock: AJUNOK_clean_linker_0, # of connection points: 2
#     Edge 11, Type (0, 0), BuildingBlock: AJUNOK_clean_linker_0, # of connection points: 2
# Relax obj value: 0.113
# Max RMSD: 0.240
# Mean RMSD: 0.126
data_MOF--net-kag--node1-INOVEN_clean_sbu_0--edge1-AJUNOK_clean_linker_0
_symmetry_space_group_name_H-M    P1
_symmetry_Int_Tables_number       1
_symmetry_cell_setting            triclinic
loop_
_symmetry_equiv_pos_as_xyz
'x, y, z'
_cell_length_a     23.175836
_cell_length_b     34.117802
_cell_length_c     10.560205
_cell_angle_alpha  96.40687
_cell_angle_beta   92.982843
_cell_angle_gamma 90.301501
loop_
_atom_site_label
_atom_site_type_symbol
_atom_site_fract_x
_atom_site_fract_y
_atom_site_fract_z
_atom_type_partial_charge
Gd0 Gd 0.08284 0.47162 0.99958 0.0
Gd1 Gd 0.084 0.56854 1.00627 0.0
C2 C 0.96107 0.51874 0.99116 0.0
C3 C 1.08031 0.40073 0.06332 0.0
C4 C 1.04216 0.36534 0.04085 0.0
C5 C 1.04515 0.3384 0.93039 0.0
C6 C 1.00384 0.35734 0.13384 0.0
C7 C 0.97262 0.2962 1.00737 0.0
C8 C 0.96933 0.3233 0.11706 0.0
C9 C 1.01073 0.30417 0.91389 0.0
C10 C 1.07394 0.49629 0.76016 0.0
C11 C 0.20591 0.52128 0.01527 0.0
C12 C 0.08801 0.63856 0.93604 0.0
C13 C 0.12445 0.67471 0.96079 0.0
C14 C 0.10089 0.70968 0.0185 0.0
C15 C 0.18167 0.67536 0.92232 0.0
C16 C 0.19026 0.74548 0.99577 0.0
C17 C 0.21425 0.71037 0.93992 0.0
C18 C 0.13354 0.74465 0.03643 0.0
C19 C 0.08972 0.54466 0.24657 0.0
O20 O 0.98801 0.48551 1.01119 0.0
O21 O 0.98906 0.55176 0.97322 0.0
O22 O 0.10902 0.4105 0.96742 0.0
O23 O 1.06012 0.43128 0.13285 0.0
O24 O 1.07157 0.45948 0.7809 0.0
O25 O 1.07865 0.51624 0.86788 0.0
O26 O 0.17846 0.55448 0.99834 0.0
O27 O 0.17846 0.48772 0.02956 0.0
O28 O 1.05663 0.62959 0.02893 0.0
O29 O 0.11072 0.60765 0.8728 0.0
O30 O 0.09206 0.58139 0.22475 0.0
O31 O 0.08752 0.52411 0.13935 0.0
H32 H 1.07473 0.34337 0.85757 0.0
H33 H 1.00098 0.37718 0.2207 0.0
H34 H 0.94032 0.31799 0.19068 0.0
H35 H 1.01519 0.2834 0.8297 0.0
H36 H 1.05683 0.7101 0.04823 0.0
H37 H 0.20123 0.64897 0.8774 0.0
H38 H 0.25824 0.70998 0.90981 0.0
H39 H 0.11397 0.77131 0.07954 0.0
Gd40 Gd 0.65318 1.01807 0.02183 0.0
Gd41 Gd 0.51695 1.01754 0.02969 0.0
C42 C 0.58 0.10148 0.03657 0.0
C43 C 0.75816 0.03631 0.98103 0.0
C44 C 0.78705 0.07484 0.97807 0.0
C45 C 0.77764 0.1063 0.07239 0.0
C46 C 0.82372 0.08067 0.88006 0.0
C47 C 0.84337 0.14817 0.97441 0.0
C48 C 0.85163 0.1171 0.87805 0.0
C49 C 0.80583 0.14247 0.071 0.0
C50 C 0.61007 1.00984 0.25102 0.0
C51 C 0.5892 0.93474 0.98466 0.0
C52 C 0.41668 1.00349 0.11034 0.0
C53 C 0.3803 0.9671 0.09731 0.0
C54 C 0.33789 0.95976 0.99713 0.0
C55 C 0.38953 0.93838 0.18206 0.0
C56 C 0.31742 0.895 0.06241 0.0
C57 C 0.35853 0.90278 0.16465 0.0
C58 C 0.30682 0.92407 0.97983 0.0
C59 C 0.5492 1.01139 0.78234 0.0
O60 O 0.62901 0.08217 0.01947 0.0
O61 O 0.53064 0.08343 0.05403 0.0
O62 O 0.74164 0.02871 0.09247 0.0
O63 O 0.7196 0.02579 0.88833 0.0
O64 O 0.657 0.9932 0.21101 0.0
O65 O 0.59016 0.03217 0.17116 0.0
O66 O 0.54272 0.95354 0.02645 0.0
O67 O 0.63637 0.95381 0.95873 0.0
O68 O 0.4233 0.02078 1.00698 0.0
O69 O 0.46473 1.00245 0.18062 0.0
O70 O 0.49584 1.01141 0.81391 0.0
O71 O 0.58052 1.01374 0.88396 0.0
H72 H 0.74867 0.10297 0.14783 0.0
H73 H 0.83115 0.05694 0.8058 0.0
H74 H 0.88075 0.1207 0.80311 0.0
H75 H 0.79824 0.16609 0.1455 0.0
H76 H 0.32921 0.98136 0.93101 0.0
H77 H 0.42149 0.94303 0.26094 0.0
H78 H 0.36753 0.88095 0.22987 0.0
H79 H 0.27439 0.91923 0.90193 0.0
Gd80 Gd 0.58575 0.56242 0.01327 0.0
Gd81 Gd 0.58037 0.4741 0.99747 0.0
C82 C 0.45996 0.51883 1.00579 0.0
C83 C 0.5811 0.63695 0.99013 0.0
C84 C 0.57817 0.67996 0.98016 0.0
C85 C 0.56862 0.70644 0.08869 0.0
C86 C 0.58822 0.69521 0.86481 0.0
C87 C 0.58102 0.76257 0.96819 0.0
C88 C 0.58972 0.73611 0.85893 0.0
C89 C 0.56978 0.74719 0.08263 0.0
C90 C 0.59761 0.53352 0.2417 0.0
C91 C 0.70683 0.51868 1.00302 0.0
C92 C 0.58445 0.39934 0.01866 0.0
C93 C 0.58669 0.35604 0.02501 0.0
C94 C 0.58582 0.32999 0.91186 0.0
C95 C 0.58685 0.34015 0.14237 0.0
C96 C 0.58539 0.27312 0.03271 0.0
C97 C 0.58587 0.29909 0.14612 0.0
C98 C 0.58523 0.28912 0.91567 0.0
C99 C 0.57103 0.50357 0.76886 0.0
O100 O 0.48945 0.54986 0.97798 0.0
O101 O 0.48706 0.48671 0.03443 0.0
O102 O 0.58234 0.6229 0.10037 0.0
O103 O 0.58051 0.61018 0.89093 0.0
O104 O 0.62747 0.56277 0.21004 0.0
O105 O 0.56219 0.52095 0.1511 0.0
O106 O 0.67819 0.48631 0.02416 0.0
O107 O 0.67885 0.55099 0.98109 0.0
O108 O 0.57345 0.41373 0.91058 0.0
O109 O 0.59485 0.4259 0.11698 0.0
O110 O 0.54061 0.47416 0.79745 0.0
O111 O 0.60521 0.51549 0.86189 0.0
H112 H 0.56091 0.6957 0.17912 0.0
H113 H 0.59592 0.67556 0.77965 0.0
H114 H 0.59751 0.74703 0.76884 0.0
H115 H 0.56302 0.76679 0.16847 0.0
H116 H 0.58522 0.34116 0.81974 0.0
H117 H 0.587 0.35942 0.23113 0.0
H118 H 0.58601 0.2876 0.23771 0.0
H119 H 0.58389 0.26995 0.82656 0.0
C120 C 0.11271 0.54055 0.60659 0.0
C121 C 1.07475 0.51027 0.63105 0.0
C122 C 0.11772 0.551 0.48178 0.0
C123 C 0.08545 0.53137 0.37616 0.0
H124 H 0.14007 0.55542 0.68355 0.0
H125 H 0.14773 0.57437 0.46758 0.0
S126 S 0.97329 0.45447 0.3926 0.0
N127 N 1.00085 0.46313 0.5406 0.0
N128 N 1.00861 0.48392 0.30877 0.0
C129 C 1.04579 0.50218 0.40047 0.0
C130 C 1.04102 0.4913 0.52702 0.0
C131 C 0.54902 0.98813 0.42069 0.0
C132 C 0.59435 1.01166 0.38635 0.0
C133 C 0.53523 0.98816 0.5491 0.0
C134 C 0.56744 1.01069 0.64876 0.0
H135 H 0.52455 0.96908 0.3482 0.0
H136 H 0.4994 0.96994 0.57071 0.0
S137 S 0.69034 0.0775 0.60917 0.0
N138 N 0.67144 0.05821 0.46217 0.0
N139 N 0.64586 0.05801 0.70296 0.0
C140 C 0.61329 0.03403 0.61568 0.0
C141 C 0.62679 0.03443 0.4847 0.0
C142 C 0.54259 0.49304 0.53519 0.0
C143 C 0.578 0.51233 0.63583 0.0
C144 C 0.54985 0.49945 0.40778 0.0
C145 C 0.59278 0.52543 0.37608 0.0
H146 H 0.50901 0.4727 0.55478 0.0
H147 H 0.52127 0.48413 0.33378 0.0
S148 S 0.6976 0.58278 0.60388 0.0
N149 N 0.65803 0.55825 0.69464 0.0
N150 N 0.67186 0.57018 0.45613 0.0
C151 C 0.62873 0.54474 0.47579 0.0
C152 C 0.62122 0.53829 0.60538 0.0
C153 C 0.30226 0.48683 0.02654 0.0
C154 C 0.27082 0.5217 0.01569 0.0
C155 C 0.36296 0.48624 0.02336 0.0
C156 C 0.39534 0.52042 1.00866 0.0
H157 H 0.2799 0.45952 0.0369 0.0
H158 H 0.38457 0.4585 0.03173 0.0
S159 S 0.33488 0.61997 0.97998 0.0
N160 N 0.27781 0.59185 0.99249 0.0
N161 N 0.39096 0.59054 0.98599 0.0
C162 C 0.36461 0.55559 0.99863 0.0
C163 C 0.30281 0.55628 1.00233 0.0
C164 C 0.90741 0.20069 0.09128 0.0
C165 C 0.87572 0.18595 0.97876 0.0
C166 C 0.93844 0.23626 0.09922 0.0
C167 C 0.93879 0.25868 0.99515 0.0
H168 H 0.90882 0.1843 0.17354 0.0
H169 H 0.96299 0.24605 0.18729 0.0
S170 S 0.85905 0.23442 0.68199 0.0
N171 N 0.84442 0.19712 0.76272 0.0
N172 N 0.90219 0.26446 0.77798 0.0
C173 C 0.90664 0.24452 0.8824 0.0
C174 C 0.87524 0.20807 0.87414 0.0
C175 C 0.54087 0.87103 0.01922 0.0
C176 C 0.58787 0.89064 0.97296 0.0
C177 C 0.53879 0.82982 0.01552 0.0
C178 C 0.58329 0.80616 0.96439 0.0
H179 H 0.5054 0.88756 0.06075 0.0
H180 H 0.50191 0.81635 0.05336 0.0
S181 S 0.7157 0.84198 0.82871 0.0
N182 N 0.67987 0.88256 0.87226 0.0
N183 N 0.67574 0.80512 0.86576 0.0
C184 C 0.63011 0.82507 0.91576 0.0
C185 C 0.63249 0.86721 0.92012 0.0
C186 C 0.86496 0.4856 0.01821 0.0
C187 C 0.89617 0.51908 0.99076 0.0
C188 C 0.80418 0.48554 0.02195 0.0
C189 C 0.77156 0.51897 0.99859 0.0
H190 H 0.88759 0.45908 0.03798 0.0
H191 H 0.78271 0.45903 0.04384 0.0
S192 S 0.83161 0.61434 0.92008 0.0
N193 N 0.88881 0.58659 0.93821 0.0
N194 N 0.77581 0.58663 0.94536 0.0
C195 C 0.80223 0.55262 0.97032 0.0
C196 C 0.86398 0.55263 0.9664 0.0
C197 C 0.22819 0.80642 0.12954 0.0
C198 C 0.22387 0.7831 1.01075 0.0
C199 C 0.25879 0.84238 0.14555 0.0
C200 C 0.28563 0.85664 0.04297 0.0
H201 H 0.20802 0.79666 0.21102 0.0
H202 H 0.26084 0.85941 0.23864 0.0
S203 S 0.28758 0.80666 0.71269 0.0
N204 N 0.24908 0.7768 0.78883 0.0
N205 N 0.30702 0.84418 0.81922 0.0
C206 C 0.28185 0.83354 0.92383 0.0
C207 C 0.25099 0.79681 0.90773 0.0
C208 C 0.54345 0.2109 0.10161 0.0
C209 C 0.5852 0.22944 0.03547 0.0
C210 C 0.54136 0.16956 0.10045 0.0
C211 C 0.58161 0.14519 0.03499 0.0
H212 H 0.51154 0.22846 0.15291 0.0
H213 H 0.50836 0.15667 0.15238 0.0
S214 S 0.69992 0.17934 0.84762 0.0
N215 N 0.66791 0.22027 0.90367 0.0
N216 N 0.6643 0.1431 0.90117 0.0
C217 C 0.62381 0.16354 0.96921 0.0
C218 C 0.62551 0.20545 0.96948 0.0
loop_
_geom_bond_atom_site_label_1
_geom_bond_atom_site_label_2
_geom_bond_distance
_geom_bond_site_symmetry_2
_ccdc_geom_bond_type
Gd0 C3 2.818 . S
Gd0 O20 2.377 . S
Gd0 O22 2.448 . S
Gd0 O23 2.506 1_556 S
Gd0 O24 2.435 . S
Gd0 O25 2.717 1_655 S
Gd0 O27 2.395 1_655 S
Gd0 O31 2.327 1_556 S
Gd1 C12 2.818 . S
Gd1 O21 2.395 1_455 S
Gd1 O25 2.327 1_554 S
Gd1 O26 2.377 . S
Gd1 O28 2.448 . S
Gd1 O29 2.506 1_554 S
Gd1 O30 2.435 . S
Gd1 O31 2.717 1_455 S
C2 O20 1.243 . S
C2 O21 1.239 1_556 S
C3 Gd0 2.818 . S
C3 C4 1.510 . S
C3 O22 1.249 . S
C3 O23 1.252 1_556 S
C4 C3 1.510 . S
C4 C5 1.404 . S
C4 C6 1.352 1_556 S
C5 C4 1.404 . S
C5 C9 1.389 . S
C5 H32 0.930 . S
C6 C4 1.352 1_554 S
C6 C8 1.374 . S
C6 H33 0.931 . S
C7 C8 1.353 1_556 S
C7 C9 1.371 . S
C8 C6 1.374 . S
C8 C7 1.353 1_554 S
C8 H34 0.931 . S
C9 C5 1.389 . S
C9 C7 1.371 . S
C9 H35 0.931 . S
C10 O24 1.256 1_455 S
C10 O25 1.257 . S
C11 O26 1.240 . S
C11 O27 1.240 1_554 S
C12 Gd1 2.818 . S
C12 C13 1.510 . S
C12 O28 1.249 . S
C12 O29 1.252 1_554 S
C13 C12 1.510 . S
C13 C14 1.404 . S
C13 C15 1.352 1_554 S
C14 C13 1.404 . S
C14 C18 1.389 . S
C14 H36 0.930 . S
C15 C13 1.352 1_556 S
C15 C17 1.374 . S
C15 H37 0.931 . S
C16 C17 1.359 1_554 S
C16 C18 1.364 . S
C17 C15 1.374 . S
C17 C16 1.359 1_556 S
C17 H38 0.931 . S
C18 C14 1.389 . S
C18 C16 1.364 . S
C18 H39 0.931 . S
C19 O30 1.256 . S
C19 O31 1.257 1_455 S
O20 Gd0 2.377 . S
O20 C2 1.243 . S
O21 Gd1 2.395 1_655 S
O21 C2 1.239 1_554 S
O22 Gd0 2.448 . S
O22 C3 1.249 . S
O23 Gd0 2.506 1_554 S
O23 C3 1.252 1_554 S
O24 Gd0 2.435 . S
O24 C10 1.256 1_655 S
O25 Gd0 2.717 1_455 S
O25 Gd1 2.327 1_556 S
O25 C10 1.257 . S
O26 Gd1 2.377 . S
O26 C11 1.240 . S
O27 Gd0 2.395 1_455 S
O27 C11 1.240 1_556 S
O28 Gd1 2.448 . S
O28 C12 1.249 . S
O29 Gd1 2.506 1_556 S
O29 C12 1.252 1_556 S
O30 Gd1 2.435 . S
O30 C19 1.256 . S
O31 Gd0 2.327 1_554 S
O31 Gd1 2.717 1_655 S
O31 C19 1.257 1_655 S
H32 C5 0.930 . S
H33 C6 0.931 . S
H34 C8 0.931 . S
H35 C9 0.931 . S
H36 C14 0.930 . S
H37 C15 0.931 . S
H38 C17 0.931 . S
H39 C18 0.931 . S
Gd40 C43 2.818 . S
Gd40 O60 2.377 . S
Gd40 O62 2.448 . S
Gd40 O63 2.506 1_554 S
Gd40 O64 2.435 . S
Gd40 O65 2.717 1_545 S
Gd40 O67 2.395 1_545 S
Gd40 O71 2.327 1_554 S
Gd41 C52 2.818 . S
Gd41 O61 2.395 1_565 S
Gd41 O65 2.327 1_556 S
Gd41 O66 2.377 . S
Gd41 O68 2.448 . S
Gd41 O69 2.506 1_556 S
Gd41 O70 2.435 . S
Gd41 O71 2.717 1_565 S
C42 O60 1.240 . S
C42 O61 1.240 1_554 S
C43 Gd40 2.818 . S
C43 C44 1.510 1_554 S
C43 O62 1.249 . S
C43 O63 1.252 1_554 S
C44 C43 1.510 1_556 S
C44 C45 1.404 1_556 S
C44 C46 1.352 . S
C45 C44 1.404 1_554 S
C45 C49 1.389 . S
C45 H72 0.930 . S
C46 C44 1.352 . S
C46 C48 1.374 . S
C46 H73 0.931 . S
C47 C48 1.359 . S
C47 C49 1.364 1_556 S
C48 C46 1.374 . S
C48 C47 1.359 . S
C48 H74 0.931 . S
C49 C45 1.389 . S
C49 C47 1.364 1_554 S
C49 H75 0.931 . S
C50 O64 1.256 . S
C50 O65 1.257 1_545 S
C51 O66 1.240 . S
C51 O67 1.240 1_556 S
C52 Gd41 2.818 . S
C52 C53 1.510 1_556 S
C52 O68 1.249 . S
C52 O69 1.252 1_556 S
C53 C52 1.510 1_554 S
C53 C54 1.404 1_554 S
C53 C55 1.352 . S
C54 C53 1.404 1_556 S
C54 C58 1.389 . S
C54 H76 0.930 . S
C55 C53 1.352 . S
C55 C57 1.374 . S
C55 H77 0.931 . S
C56 C57 1.359 . S
C56 C58 1.364 1_554 S
C57 C55 1.374 . S
C57 C56 1.359 . S
C57 H78 0.931 . S
C58 C54 1.389 . S
C58 C56 1.364 1_556 S
C58 H79 0.931 . S
C59 O70 1.256 . S
C59 O71 1.257 1_565 S
O60 Gd40 2.377 . S
O60 C42 1.240 . S
O61 Gd41 2.395 1_545 S
O61 C42 1.240 1_556 S
O62 Gd40 2.448 . S
O62 C43 1.249 . S
O63 Gd40 2.506 1_556 S
O63 C43 1.252 1_556 S
O64 Gd40 2.435 . S
O64 C50 1.256 . S
O65 Gd40 2.717 1_565 S
O65 Gd41 2.327 1_554 S
O65 C50 1.257 1_565 S
O66 Gd41 2.377 . S
O66 C51 1.240 . S
O67 Gd40 2.395 1_565 S
O67 C51 1.240 1_554 S
O68 Gd41 2.448 . S
O68 C52 1.249 . S
O69 Gd41 2.506 1_554 S
O69 C52 1.252 1_554 S
O70 Gd41 2.435 . S
O70 C59 1.256 . S
O71 Gd40 2.327 1_556 S
O71 Gd41 2.717 1_545 S
O71 C59 1.257 1_545 S
H72 C45 0.930 . S
H73 C46 0.931 . S
H74 C48 0.931 . S
H75 C49 0.931 . S
H76 C54 0.930 . S
H77 C55 0.931 . S
H78 C57 0.931 . S
H79 C58 0.931 . S
Gd80 C83 2.818 . S
Gd80 O100 2.377 . S
Gd80 O102 2.448 . S
Gd80 O103 2.506 1_554 S
Gd80 O104 2.435 . S
Gd80 O105 2.717 . S
Gd80 O107 2.395 . S
Gd80 O111 2.327 1_554 S
Gd81 C92 2.818 . S
Gd81 O101 2.395 . S
Gd81 O105 2.327 1_556 S
Gd81 O106 2.377 . S
Gd81 O108 2.448 . S
Gd81 O109 2.506 1_556 S
Gd81 O110 2.435 . S
Gd81 O111 2.717 . S
C82 O100 1.239 1_556 S
C82 O101 1.241 . S
C83 Gd80 2.818 . S
C83 C84 1.510 . S
C83 O102 1.249 . S
C83 O103 1.252 1_554 S
C84 C83 1.510 . S
C84 C85 1.404 . S
C84 C86 1.352 1_554 S
C85 C84 1.404 . S
C85 C89 1.389 . S
C85 H112 0.930 . S
C86 C84 1.352 1_556 S
C86 C88 1.374 . S
C86 H113 0.931 . S
C87 C88 1.359 . S
C87 C89 1.364 1_556 S
C88 C86 1.374 . S
C88 C87 1.359 . S
C88 H114 0.931 . S
C89 C85 1.389 . S
C89 C87 1.364 1_554 S
C89 H115 0.931 . S
C90 O104 1.256 . S
C90 O105 1.257 . S
C91 O106 1.240 1_554 S
C91 O107 1.240 . S
C92 Gd81 2.818 . S
C92 C93 1.510 . S
C92 O108 1.249 . S
C92 O109 1.252 1_556 S
C93 C92 1.510 . S
C93 C94 1.404 . S
C93 C95 1.352 1_556 S
C94 C93 1.404 . S
C94 C98 1.389 . S
C94 H116 0.930 . S
C95 C93 1.352 1_554 S
C95 C97 1.374 . S
C95 H117 0.931 . S
C96 C97 1.359 . S
C96 C98 1.364 1_554 S
C97 C95 1.374 . S
C97 C96 1.359 . S
C97 H118 0.931 . S
C98 C94 1.389 . S
C98 C96 1.364 1_556 S
C98 H119 0.931 . S
C99 O110 1.256 . S
C99 O111 1.257 . S
O100 Gd80 2.377 . S
O100 C82 1.239 1_554 S
O101 Gd81 2.395 . S
O101 C82 1.241 . S
O102 Gd80 2.448 . S
O102 C83 1.249 . S
O103 Gd80 2.506 1_556 S
O103 C83 1.252 1_556 S
O104 Gd80 2.435 . S
O104 C90 1.256 . S
O105 Gd80 2.717 . S
O105 Gd81 2.327 1_554 S
O105 C90 1.257 . S
O106 Gd81 2.377 . S
O106 C91 1.240 1_556 S
O107 Gd80 2.395 . S
O107 C91 1.240 . S
O108 Gd81 2.448 . S
O108 C92 1.249 . S
O109 Gd81 2.506 1_554 S
O109 C92 1.252 1_554 S
O110 Gd81 2.435 . S
O110 C99 1.256 . S
O111 Gd80 2.327 1_556 S
O111 Gd81 2.717 . S
O111 C99 1.257 . S
H112 C85 0.930 . S
H113 C86 0.931 . S
H114 C88 0.931 . S
H115 C89 0.931 . S
H116 C94 0.930 . S
H117 C95 0.931 . S
H118 C97 0.931 . S
H119 C98 0.931 . S
C120 C121 1.369 . S
C120 C122 1.419 . S
C120 H124 0.930 . S
C121 C120 1.369 . S
C121 C130 1.429 1_455 S
C122 C120 1.419 . S
C122 C123 1.378 . S
C122 H125 0.929 . S
C123 C122 1.378 . S
C123 C129 1.414 1_455 S
H124 C120 0.930 . S
H125 C122 0.929 . S
S126 N127 1.613 . S
S126 N128 1.610 . S
N127 S126 1.613 . S
N127 C130 1.350 . S
N128 S126 1.610 . S
N128 C129 1.351 . S
C129 C123 1.414 1_655 S
C129 N128 1.351 . S
C129 C130 1.434 . S
C130 C121 1.429 1_655 S
C130 N127 1.350 . S
C130 C129 1.434 . S
C131 C132 1.343 1_565 S
C131 C133 1.419 . S
C131 H135 0.930 . S
C132 C131 1.343 1_545 S
C132 C141 1.450 . S
C133 C131 1.419 . S
C133 C134 1.365 . S
C133 H136 0.929 . S
C134 C133 1.365 . S
C134 C140 1.427 1_565 S
H135 C131 0.930 . S
H136 C133 0.929 . S
S137 N138 1.613 . S
S137 N139 1.610 . S
N138 S137 1.613 . S
N138 C141 1.350 . S
N139 S137 1.610 . S
N139 C140 1.351 . S
C140 C134 1.427 1_545 S
C140 N139 1.351 . S
C140 C141 1.434 . S
C141 C132 1.450 . S
C141 N138 1.350 . S
C141 C140 1.434 . S
C142 C143 1.369 . S
C142 C144 1.419 . S
C142 H146 0.930 . S
C143 C142 1.369 . S
C143 C152 1.429 . S
C144 C142 1.419 . S
C144 C145 1.363 . S
C144 H147 0.929 . S
C145 C144 1.363 . S
C145 C151 1.428 . S
H146 C142 0.930 . S
H147 C144 0.929 . S
S148 N149 1.613 . S
S148 N150 1.610 . S
N149 S148 1.613 . S
N149 C152 1.350 . S
N150 S148 1.610 . S
N150 C151 1.351 . S
C151 C145 1.428 . S
C151 N150 1.351 . S
C151 C152 1.434 . S
C152 C143 1.429 . S
C152 N149 1.350 . S
C152 C151 1.434 . S
C153 C154 1.369 1_554 S
C153 C155 1.419 . S
C153 H157 0.930 . S
C154 C153 1.369 1_556 S
C154 C163 1.429 . S
C155 C153 1.419 . S
C155 C156 1.363 1_554 S
C155 H158 0.929 . S
C156 C155 1.363 1_556 S
C156 C162 1.428 . S
H157 C153 0.930 . S
H158 C155 0.929 . S
S159 N160 1.613 . S
S159 N161 1.610 . S
N160 S159 1.613 . S
N160 C163 1.350 . S
N161 S159 1.610 . S
N161 C162 1.351 . S
C162 C156 1.428 . S
C162 N161 1.351 . S
C162 C163 1.434 . S
C163 C154 1.429 . S
C163 N160 1.350 . S
C163 C162 1.434 . S
C164 C165 1.369 1_554 S
C164 C166 1.419 . S
C164 H168 0.930 . S
C165 C164 1.369 1_556 S
C165 C174 1.429 . S
C166 C164 1.419 . S
C166 C167 1.363 1_554 S
C166 H169 0.929 . S
C167 C166 1.363 1_556 S
C167 C173 1.428 . S
H168 C164 0.930 . S
H169 C166 0.929 . S
S170 N171 1.613 . S
S170 N172 1.610 . S
N171 S170 1.613 . S
N171 C174 1.350 . S
N172 S170 1.610 . S
N172 C173 1.351 . S
C173 C167 1.428 . S
C173 N172 1.351 . S
C173 C174 1.434 . S
C174 C165 1.429 . S
C174 N171 1.350 . S
C174 C173 1.434 . S
C175 C176 1.369 1_554 S
C175 C177 1.419 . S
C175 H179 0.930 . S
C176 C175 1.369 1_556 S
C176 C185 1.429 . S
C177 C175 1.419 . S
C177 C178 1.363 1_554 S
C177 H180 0.929 . S
C178 C177 1.363 1_556 S
C178 C184 1.428 . S
H179 C175 0.930 . S
H180 C177 0.929 . S
S181 N182 1.613 . S
S181 N183 1.610 . S
N182 S181 1.613 . S
N182 C185 1.350 . S
N183 S181 1.610 . S
N183 C184 1.351 . S
C184 C178 1.428 . S
C184 N183 1.351 . S
C184 C185 1.434 . S
C185 C176 1.429 . S
C185 N182 1.350 . S
C185 C184 1.434 . S
C186 C187 1.369 . S
C186 C188 1.419 . S
C186 H190 0.930 . S
C187 C186 1.369 . S
C187 C196 1.429 1_554 S
C188 C186 1.419 . S
C188 C189 1.363 . S
C188 H191 0.929 . S
C189 C188 1.363 . S
C189 C195 1.428 1_554 S
H190 C186 0.930 . S
H191 C188 0.929 . S
S192 N193 1.613 . S
S192 N194 1.610 . S
N193 S192 1.613 . S
N193 C196 1.350 . S
N194 S192 1.610 . S
N194 C195 1.351 . S
C195 C189 1.428 1_556 S
C195 N194 1.351 . S
C195 C196 1.434 . S
C196 C187 1.429 1_556 S
C196 N193 1.350 . S
C196 C195 1.434 . S
C197 C198 1.369 . S
C197 C199 1.419 . S
C197 H201 0.930 . S
C198 C197 1.369 . S
C198 C207 1.429 1_554 S
C199 C197 1.419 . S
C199 C200 1.363 . S
C199 H202 0.929 . S
C200 C199 1.363 . S
C200 C206 1.428 1_554 S
H201 C197 0.930 . S
H202 C199 0.929 . S
S203 N204 1.613 . S
S203 N205 1.610 . S
N204 S203 1.613 . S
N204 C207 1.350 . S
N205 S203 1.610 . S
N205 C206 1.351 . S
C206 C200 1.428 1_556 S
C206 N205 1.351 . S
C206 C207 1.434 . S
C207 C198 1.429 1_556 S
C207 N204 1.350 . S
C207 C206 1.434 . S
C208 C209 1.369 . S
C208 C210 1.419 . S
C208 H212 0.930 . S
C209 C208 1.369 . S
C209 C218 1.429 1_554 S
C210 C208 1.419 . S
C210 C211 1.363 . S
C210 H213 0.929 . S
C211 C210 1.363 . S
C211 C217 1.428 1_554 S
H212 C208 0.930 . S
H213 C210 0.929 . S
S214 N215 1.613 . S
S214 N216 1.610 . S
N215 S214 1.613 . S
N215 C218 1.350 . S
N216 S214 1.610 . S
N216 C217 1.351 . S
C217 C211 1.428 1_556 S
C217 N216 1.351 . S
C217 C218 1.434 . S
C218 C209 1.429 1_556 S
C218 N215 1.350 . S
C218 C217 1.434 . S
C121 C10 1.457 . S
C123 C19 1.465 . S
C132 C50 1.458 . S
C134 C59 1.459 . S
C143 C99 1.468 . S
C145 C90 1.462 . S
C154 C11 2.660 1_556 S
C156 C82 2.587 . S
C165 C47 0.967 . S
C167 C7 0.963 . S
C176 C51 2.298 . S
C178 C87 2.186 . S
C187 C2 2.659 1_554 S
C189 C91 2.583 . S
C198 C16 0.965 . S
C200 C56 0.966 . S
C209 C96 2.191 . S
C211 C42 2.294 . S
