# Generated by pormake.
# Topology pcu, (6)-cn, num edge types: 1
# Building blocks:
#     Node 0, Type 0, BuildingBlock: BETDIP_clean_sbu_0, # of connection points: 6
#     Edge 1, Type (0, 0), BuildingBlock: EYOCIG_clean_linker_4, # of connection points: 2
#     Edge 2, Type (0, 0), BuildingBlock: EYOCIG_clean_linker_4, # of connection points: 2
#     Edge 3, Type (0, 0), BuildingBlock: EYOCIG_clean_linker_4, # of connection points: 2
# Relax obj value: 0.000
# Max RMSD: 0.000
# Mean RMSD: 0.000
data_MOF--net-pcu--node1-BETDIP_clean_sbu_0--edge1-EYOCIG_clean_linker_4
_symmetry_space_group_name_H-M    P1
_symmetry_Int_Tables_number       1
_symmetry_cell_setting            triclinic
loop_
_symmetry_equiv_pos_as_xyz
'x, y, z'
_cell_length_a     22.343066
_cell_length_b     12.13441
_cell_length_c     11.284444
_cell_angle_alpha  90.830406
_cell_angle_beta   100.04466
_cell_angle_gamma 117.49559
loop_
_atom_site_label
_atom_site_type_symbol
_atom_site_fract_x
_atom_site_fract_y
_atom_site_fract_z
_atom_type_partial_charge
Tb0 Tb 0.94616 0.89544 0.99674 0.0
Tb1 Tb 0.10134 0.01022 0.04105 0.0
C2 C 0.82647 0.84471 0.02062 0.0
C3 C 0.77783 0.89709 1.01286 0.0
C4 C 0.77131 0.94949 0.11892 0.0
C5 C 0.71621 -0.02553 0.11853 0.0
C6 C 0.66681 0.94714 1.01238 0.0
C7 C 0.6751 0.90267 0.90445 0.0
C8 C 0.73028 0.87758 0.90458 0.0
C9 C 0.99677 0.91495 0.80047 0.0
C10 C 0.03917 0.19344 1.01765 0.0
C11 C 0.2209 0.06085 1.01654 0.0
C12 C 0.2699 0.00922 0.02571 0.0
C13 C 0.27749 -0.04218 0.9202 0.0
C14 C 0.33334 0.93478 0.92185 0.0
C15 C 0.3824 -0.03688 0.02873 0.0
C16 C 0.37285 0.00593 0.13618 0.0
C17 C 0.31691 0.02901 0.1348 0.0
C18 C 0.05135 -0.00788 0.23763 0.0
C19 C 1.00752 0.71167 0.02064 0.0
O20 O 0.88052 0.89249 0.10963 0.0
O21 O 0.84047 0.81667 0.91994 0.0
O22 O 1.02315 -0.00672 0.89327 0.0
O23 O 0.93681 0.82809 0.81099 0.0
O24 O 0.97827 0.09581 1.01356 0.0
O25 O 0.09557 0.18323 1.01718 0.0
O26 O 0.16661 0.01129 0.92803 0.0
O27 O 0.20716 0.09062 0.11675 0.0
O28 O 0.02471 0.91326 0.14504 0.0
O29 O 0.11135 0.07842 0.22659 0.0
O30 O 0.06856 0.80918 0.02479 0.0
O31 O 0.95122 0.72215 0.02068 0.0
H32 H 0.80659 -0.03517 0.20398 0.0
H33 H 0.71031 0.009 0.20254 0.0
H34 H 0.63714 0.8814 0.82156 0.0
H35 H 0.7335 0.83672 0.8215 0.0
H36 H 0.24253 0.9421 0.83463 0.0
H37 H 0.34013 0.90119 0.83825 0.0
H38 H 0.41045 0.02764 0.21967 0.0
H39 H 0.31277 0.06883 0.21758 0.0
C40 C 0.02698 -0.04249 0.4579 0.0
C41 C 0.03407 -0.034 0.35433 0.0
C42 C 1.02305 0.95121 0.58146 0.0
C43 C 1.01497 0.94178 0.68446 0.0
C44 C 0.49857 -0.04236 0.02281 0.0
C45 C 0.44558 -0.03993 0.02529 0.0
C46 C 0.55194 -0.04307 0.01993 0.0
C47 C 0.60443 0.9527 1.01717 0.0
C48 C 1.01443 0.50141 0.01991 0.0
C49 C 1.00496 0.59146 0.02015 0.0
C50 C 0.03115 0.4026 1.01856 0.0
C51 C 0.04124 0.31325 1.01822 0.0
loop_
_geom_bond_atom_site_label_1
_geom_bond_atom_site_label_2
_geom_bond_distance
_geom_bond_site_symmetry_2
_ccdc_geom_bond_type
Tb0 C2 2.809 . S
Tb0 O20 2.484 1_556 S
Tb0 O21 2.440 . S
Tb0 O22 2.658 1_655 S
Tb0 O23 2.409 . S
Tb0 O24 2.378 1_565 S
Tb0 O28 2.325 1_566 S
Tb0 O31 2.341 . S
Tb1 C11 2.809 . S
Tb1 O22 2.325 1_544 S
Tb1 O25 2.341 . S
Tb1 O26 2.484 1_554 S
Tb1 O27 2.440 . S
Tb1 O28 2.658 1_455 S
Tb1 O29 2.409 . S
Tb1 O30 2.378 1_545 S
C2 Tb0 2.809 . S
C2 C3 1.514 . S
C2 O20 1.248 1_556 S
C2 O21 1.266 . S
C3 C2 1.514 . S
C3 C4 1.355 1_566 S
C3 C8 1.348 . S
C4 C3 1.355 1_544 S
C4 C5 1.386 . S
C4 H32 0.927 . S
C5 C4 1.386 . S
C5 C6 1.347 1_544 S
C5 H33 0.931 . S
C6 C5 1.347 1_566 S
C6 C7 1.369 . S
C7 C6 1.369 . S
C7 C8 1.408 . S
C7 H34 0.930 . S
C8 C3 1.348 . S
C8 C7 1.408 . S
C8 H35 0.930 . S
C9 O22 1.281 1_655 S
C9 O23 1.254 . S
C10 O24 1.236 1_455 S
C10 O25 1.266 1_556 S
C11 Tb1 2.809 . S
C11 C12 1.514 . S
C11 O26 1.248 1_554 S
C11 O27 1.266 . S
C12 C11 1.514 . S
C12 C13 1.356 1_544 S
C12 C17 1.348 . S
C13 C12 1.356 1_566 S
C13 C14 1.385 . S
C13 H36 0.927 . S
C14 C13 1.385 . S
C14 C15 1.347 1_566 S
C14 H37 0.931 . S
C15 C14 1.347 1_544 S
C15 C16 1.369 . S
C16 C15 1.369 . S
C16 C17 1.408 . S
C16 H38 0.930 . S
C17 C12 1.348 . S
C17 C16 1.408 . S
C17 H39 0.930 . S
C18 O28 1.281 1_455 S
C18 O29 1.254 . S
C19 O30 1.236 1_655 S
C19 O31 1.266 1_554 S
O20 Tb0 2.484 1_554 S
O20 C2 1.248 1_554 S
O21 Tb0 2.440 . S
O21 C2 1.266 . S
O22 Tb0 2.658 1_455 S
O22 Tb1 2.325 1_566 S
O22 C9 1.281 1_455 S
O23 Tb0 2.409 . S
O23 C9 1.254 . S
O24 Tb0 2.378 1_545 S
O24 C10 1.236 1_655 S
O25 Tb1 2.341 . S
O25 C10 1.266 1_554 S
O26 Tb1 2.484 1_556 S
O26 C11 1.248 1_556 S
O27 Tb1 2.440 . S
O27 C11 1.266 . S
O28 Tb0 2.325 1_544 S
O28 Tb1 2.658 1_655 S
O28 C18 1.281 1_655 S
O29 Tb1 2.409 . S
O29 C18 1.254 . S
O30 Tb1 2.378 1_565 S
O30 C19 1.236 1_455 S
O31 Tb0 2.341 . S
O31 C19 1.266 1_556 S
H32 C4 0.927 . S
H33 C5 0.931 . S
H34 C7 0.930 . S
H35 C8 0.930 . S
H36 C13 0.927 . S
H37 C14 0.931 . S
H38 C16 0.930 . S
H39 C17 0.930 . S
C40 C41 1.170 . S
C40 C42 1.380 . S
C41 C40 1.170 . S
C42 C40 1.380 . S
C42 C43 1.170 . S
C43 C42 1.170 . S
C44 C45 1.170 . S
C44 C46 1.380 . S
C45 C44 1.170 . S
C46 C44 1.380 . S
C46 C47 1.170 . S
C47 C46 1.170 . S
C48 C49 1.170 . S
C48 C50 1.380 . S
C49 C48 1.170 . S
C50 C48 1.380 . S
C50 C51 1.170 1_556 S
C51 C50 1.170 1_554 S
C41 C18 1.432 . S
C43 C9 1.468 1_445 S
C45 C15 1.496 . S
C47 C6 1.500 1_544 S
C49 C19 1.489 1_556 S
C51 C10 1.493 1_654 S
