# Generated by pormake.
# Topology crr, (4)-cn, num edge types: 1
# Building blocks:
#     Node 0, Type 0, BuildingBlock: MUDLON_clean_sbu_0, # of connection points: 4
#     Node 1, Type 0, BuildingBlock: MUDLON_clean_sbu_0, # of connection points: 4
#     Node 2, Type 0, BuildingBlock: MUDLON_clean_sbu_0, # of connection points: 4
#     Node 3, Type 0, BuildingBlock: MUDLON_clean_sbu_0, # of connection points: 4
#     Node 4, Type 0, BuildingBlock: MUDLON_clean_sbu_0, # of connection points: 4
#     Node 5, Type 0, BuildingBlock: MUDLON_clean_sbu_0, # of connection points: 4
#     Node 6, Type 0, BuildingBlock: MUDLON_clean_sbu_0, # of connection points: 4
#     Node 7, Type 0, BuildingBlock: MUDLON_clean_sbu_0, # of connection points: 4
#     Node 8, Type 0, BuildingBlock: MUDLON_clean_sbu_0, # of connection points: 4
#     Node 9, Type 0, BuildingBlock: MUDLON_clean_sbu_0, # of connection points: 4
#     Node 10, Type 0, BuildingBlock: MUDLON_clean_sbu_0, # of connection points: 4
#     Node 11, Type 0, BuildingBlock: MUDLON_clean_sbu_0, # of connection points: 4
#     Edge 12, Type (0, 0), None
#     Edge 13, Type (0, 0), None
#     Edge 14, Type (0, 0), None
#     Edge 15, Type (0, 0), None
#     Edge 16, Type (0, 0), None
#     Edge 17, Type (0, 0), None
#     Edge 18, Type (0, 0), None
#     Edge 19, Type (0, 0), None
#     Edge 20, Type (0, 0), None
#     Edge 21, Type (0, 0), None
#     Edge 22, Type (0, 0), None
#     Edge 23, Type (0, 0), None
#     Edge 24, Type (0, 0), None
#     Edge 25, Type (0, 0), None
#     Edge 26, Type (0, 0), None
#     Edge 27, Type (0, 0), None
#     Edge 28, Type (0, 0), None
#     Edge 29, Type (0, 0), None
#     Edge 30, Type (0, 0), None
#     Edge 31, Type (0, 0), None
#     Edge 32, Type (0, 0), None
#     Edge 33, Type (0, 0), None
#     Edge 34, Type (0, 0), None
#     Edge 35, Type (0, 0), None
# Relax obj value: 0.144
# Max RMSD: 0.146
# Mean RMSD: 0.141
data_MOF--net-crr--node1-MUDLON_clean_sbu_0--edge1-none
_symmetry_space_group_name_H-M    P1
_symmetry_Int_Tables_number       1
_symmetry_cell_setting            triclinic
loop_
_symmetry_equiv_pos_as_xyz
'x, y, z'
_cell_length_a     17.839309
_cell_length_b     18.783006
_cell_length_c     18.047365
_cell_angle_alpha  90.274372
_cell_angle_beta   89.993829
_cell_angle_gamma 93.3149
loop_
_atom_site_label
_atom_site_type_symbol
_atom_site_fract_x
_atom_site_fract_y
_atom_site_fract_z
_atom_type_partial_charge
Mg0 Mg 0.18023 0.34048 0.39956 0.0
C1 C 0.29735 0.26676 0.49755 0.0
O2 O 0.24201 0.25671 0.54494 0.0
C3 C 0.10877 0.47932 0.40764 0.0
O4 O 0.04901 0.43526 0.41035 0.0
C5 C 0.17854 0.27334 0.24101 0.0
O6 O 0.16984 0.21132 0.27416 0.0
O7 O 0.18061 0.33023 0.27946 0.0
O8 O 0.28663 0.30054 0.43786 0.0
O9 O 0.07854 0.29245 0.44938 0.0
C10 C 0.06358 0.30499 0.51695 0.0
O11 O 0.11446 0.33909 0.55848 0.0
O12 O 0.17374 0.45477 0.40901 0.0
Mg13 Mg 0.30488 0.94736 0.71039 0.0
C14 C 0.34248 0.87612 0.85954 0.0
O15 O 0.29004 0.91447 0.88748 0.0
C16 C 0.34646 0.97961 0.55034 0.0
O17 O 0.27396 0.98712 0.54465 0.0
C18 C 0.15616 0.85944 0.72847 0.0
O19 O 0.16615 0.8754 0.79874 0.0
O20 O 0.20078 0.88773 0.68052 0.0
O21 O 0.36099 0.88326 0.79171 0.0
O22 O 0.2931 0.05703 0.74382 0.0
C23 C 0.34944 0.10183 0.74064 0.0
O24 O 0.33947 0.16994 0.75045 0.0
O25 O 0.37323 0.95871 0.61123 0.0
Mg26 Mg 1.01408 0.68368 0.34598 0.0
C27 C 0.92357 0.80359 0.41122 0.0
O28 O 0.96208 0.84345 0.36342 0.0
C29 C 0.10024 0.55389 0.38825 0.0
O30 O 0.15661 0.59066 0.35745 0.0
C31 C 0.92179 0.71067 0.20779 0.0
O32 O 0.94384 0.77739 0.221 0.0
O33 O 0.94921 0.66163 0.24571 0.0
O34 O 0.93678 0.73807 0.4177 0.0
O35 O 0.12181 0.74183 0.33033 0.0
C36 C 0.16716 0.74531 0.3848 0.0
O37 O 0.23657 0.77068 0.3752 0.0
O38 O 0.03578 0.57946 0.391 0.0
Mg39 Mg 0.59505 0.0972 0.69743 0.0
C40 C 0.58599 0.94024 0.63284 0.0
O41 O 0.51733 0.9338 0.65867 0.0
C42 C 0.69781 0.11527 0.83117 0.0
O43 O 0.74901 0.10088 0.78188 0.0
C44 C 0.42574 0.07803 0.7289 0.0
O45 O 0.44541 0.01902 0.76009 0.0
O46 O 0.47531 0.11858 0.69689 0.0
O47 O 0.62596 0.99752 0.64451 0.0
O48 O 0.66129 0.18398 0.64134 0.0
C49 C 0.72151 0.16922 0.60812 0.0
O50 O 0.73846 0.10227 0.60348 0.0
O51 O 0.62897 0.10906 0.81276 0.0
Mg52 Mg 0.13577 0.66839 0.60933 0.0
C53 C 0.98287 0.5677 0.58846 0.0
O54 O 0.95843 0.6063 0.53408 0.0
C55 C 0.11294 0.79331 0.70827 0.0
O56 O 0.10394 0.74324 0.75856 0.0
C57 C 0.14171 0.72063 0.45799 0.0
O58 O 0.07578 0.7375 0.48228 0.0
O59 O 0.18303 0.6851 0.49961 0.0
O60 O 0.0453 0.58471 0.62017 0.0
O61 O 0.21775 0.64561 0.69415 0.0
C62 C 0.28747 0.63471 0.69402 0.0
O63 O 0.32483 0.6326 0.63144 0.0
O64 O 0.1104 0.7757 0.64032 0.0
Mg65 Mg 0.70664 0.89505 0.4383 0.0
C66 C 0.85553 0.82961 0.44531 0.0
O67 O 0.81708 0.78881 0.49235 0.0
C68 C 0.64106 0.01262 0.34849 0.0
O69 O 0.64896 0.96701 0.29407 0.0
C70 C 0.65927 0.75267 0.35859 0.0
O71 O 0.69596 0.72291 0.41212 0.0
O72 O 0.64943 0.81922 0.36139 0.0
O73 O 0.8257 0.88367 0.41835 0.0
O74 O 0.67776 0.89441 0.55489 0.0
C75 C 0.60888 0.89265 0.57314 0.0
O76 O 0.55807 0.8695 0.52476 0.0
O77 O 0.66766 0.99931 0.41175 0.0
Mg78 Mg 0.86002 0.36611 0.62156 0.0
C79 C 0.94205 0.50102 0.61173 0.0
O80 O 0.9699 0.46525 0.66664 0.0
C81 C 0.7817 0.22504 0.59602 0.0
O82 O 0.85105 0.20889 0.609 0.0
C83 C 0.98491 0.30156 0.54096 0.0
O84 O 0.93172 0.2966 0.49057 0.0
O85 O 0.96879 0.32165 0.60615 0.0
O86 O 0.88465 0.47363 0.57753 0.0
O87 O 0.82629 0.37833 0.73517 0.0
C88 C 0.86183 0.36236 0.79294 0.0
O89 O 0.93087 0.34215 0.78773 0.0
O90 O 0.76785 0.29035 0.5879 0.0
Mg91 Mg 0.44659 0.13223 0.39561 0.0
C92 C 0.44036 0.22374 0.26521 0.0
O93 O 0.47446 0.26604 0.31429 0.0
C94 C 0.39795 0.01242 0.49515 0.0
O95 O 0.46986 0.02007 0.51074 0.0
C96 C 0.3629 0.22285 0.5027 0.0
O97 O 0.35646 0.16433 0.54216 0.0
O98 O 0.41214 0.22808 0.45168 0.0
O99 O 0.42223 0.15936 0.28227 0.0
O100 O 0.56036 0.09594 0.40047 0.0
C101 C 0.58423 0.06585 0.34232 0.0
O102 O 0.54498 0.06821 0.28095 0.0
O103 O 0.37202 0.04839 0.44243 0.0
Mg104 Mg 0.34255 0.35969 0.09999 0.0
C105 C 0.43797 0.33776 0.9688 0.0
O106 O 0.43976 0.40764 0.97128 0.0
C107 C 0.20754 0.27758 0.16474 0.0
O108 O 0.2366 0.22104 0.13616 0.0
C109 C 0.33653 0.51233 0.04369 0.0
O110 O 0.27631 0.48553 1.0094 0.0
O111 O 0.37126 0.4733 0.08792 0.0
O112 O 0.38941 0.30236 1.00756 0.0
O113 O 0.40563 0.32028 0.19176 0.0
C114 C 0.41383 0.25359 0.19614 0.0
O115 O 0.38941 0.21096 0.14247 0.0
O116 O 0.22863 0.33898 0.14031 0.0
Mg117 Mg 0.43205 0.66559 0.88325 0.0
C118 C 0.32631 0.63674 0.76591 0.0
O119 O 0.28793 0.6532 0.82506 0.0
C120 C 0.57319 0.67817 0.97367 0.0
O121 O 0.53874 0.7335 0.99836 0.0
C122 C 0.36651 0.81342 0.89951 0.0
O123 O 0.3227 0.78344 0.95035 0.0
O124 O 0.41879 0.77897 0.87156 0.0
O125 O 0.39699 0.63202 0.7719 0.0
O126 O 0.35392 0.60473 0.95562 0.0
C127 C 0.37557 0.57786 1.01595 0.0
O128 O 0.44242 0.59687 0.04201 0.0
O129 O 0.54466 0.64219 0.9196 0.0
Mg130 Mg 0.70095 0.61346 0.16886 0.0
C131 C 0.63112 0.64769 1.01988 0.0
O132 O 0.65741 0.58614 1.00159 0.0
C133 C 0.85066 0.69457 0.16853 0.0
O134 O 0.80759 0.74691 0.15307 0.0
C135 C 0.71259 0.45569 0.12801 0.0
O136 O 0.7846 0.47407 0.12368 0.0
O137 O 0.66728 0.5013 0.14994 0.0
O138 O 0.64448 0.67349 0.08423 0.0
O139 O 0.67259 0.65286 0.27916 0.0
C140 C 0.64801 0.7147 0.28743 0.0
O141 O 0.62945 0.75057 0.22857 0.0
O142 O 0.82208 0.63102 0.16927 0.0
Mg143 Mg 0.67793 0.30627 0.94796 0.0
C144 C 0.81915 0.35173 0.86165 0.0
O145 O 0.8531 0.33428 0.92293 0.0
C146 C 0.50663 0.30401 0.94653 0.0
O147 O 0.51235 0.23546 0.95742 0.0
C148 C 0.71931 0.16127 0.89478 0.0
O149 O 0.78783 0.19064 0.8967 0.0
O150 O 0.66749 0.1916 0.92901 0.0
O151 O 0.74775 0.3476 0.85827 0.0
O152 O 0.72527 0.35644 0.04813 0.0
C153 C 0.68218 0.39131 0.08917 0.0
O154 O 0.60921 0.38218 0.08037 0.0
O155 O 0.56573 0.34398 0.93617 0.0
loop_
_geom_bond_atom_site_label_1
_geom_bond_atom_site_label_2
_geom_bond_distance
_geom_bond_site_symmetry_2
_ccdc_geom_bond_type
Mg0 O7 2.141 . S
Mg0 O8 2.048 . S
Mg0 O9 2.048 . S
Mg0 O12 2.141 . S
C1 O2 1.313 . S
C1 O8 1.195 . S
O2 C1 1.313 . S
C3 O4 1.245 . S
C3 O12 1.289 1_655 S
O4 C3 1.245 . S
C5 O6 1.245 . S
C5 O7 1.289 . S
O6 C5 1.245 . S
O7 Mg0 2.141 . S
O7 C5 1.289 . S
O8 Mg0 2.048 . S
O8 C1 1.195 . S
O9 Mg0 2.048 . S
O9 C10 1.195 1_455 S
C10 O9 1.195 1_655 S
C10 O11 1.313 . S
O11 C10 1.313 . S
O12 Mg0 2.141 . S
O12 C3 1.289 1_455 S
Mg13 O20 2.141 . S
Mg13 O21 2.048 . S
Mg13 O22 2.048 . S
Mg13 O25 2.141 . S
C14 O15 1.313 . S
C14 O21 1.195 . S
O15 C14 1.313 . S
C16 O17 1.245 . S
C16 O25 1.289 1_545 S
O17 C16 1.245 . S
C18 O19 1.245 . S
C18 O20 1.289 . S
O19 C18 1.245 . S
O20 Mg13 2.141 . S
O20 C18 1.289 . S
O21 Mg13 2.048 . S
O21 C14 1.195 . S
O22 Mg13 2.048 . S
O22 C23 1.195 1_565 S
C23 O22 1.195 1_545 S
C23 O24 1.313 . S
O24 C23 1.313 . S
O25 Mg13 2.141 . S
O25 C16 1.289 1_565 S
Mg26 O33 2.141 . S
Mg26 O34 2.048 . S
Mg26 O35 2.048 . S
Mg26 O38 2.141 . S
C27 O28 1.313 . S
C27 O34 1.195 . S
O28 C27 1.313 . S
C29 O30 1.245 . S
C29 O38 1.289 1_455 S
O30 C29 1.245 . S
C31 O32 1.245 . S
C31 O33 1.289 . S
O32 C31 1.245 . S
O33 Mg26 2.141 . S
O33 C31 1.289 . S
O34 Mg26 2.048 . S
O34 C27 1.195 . S
O35 Mg26 2.048 . S
O35 C36 1.195 1_655 S
C36 O35 1.195 1_455 S
C36 O37 1.313 . S
O37 C36 1.313 . S
O38 Mg26 2.141 . S
O38 C29 1.289 1_655 S
Mg39 O46 2.141 . S
Mg39 O47 2.048 . S
Mg39 O48 2.048 . S
Mg39 O51 2.141 . S
C40 O41 1.313 . S
C40 O47 1.195 1_565 S
O41 C40 1.313 . S
C42 O43 1.245 . S
C42 O51 1.289 . S
O43 C42 1.245 . S
C44 O45 1.245 . S
C44 O46 1.289 1_565 S
O45 C44 1.245 . S
O46 Mg39 2.141 . S
O46 C44 1.289 1_545 S
O47 Mg39 2.048 . S
O47 C40 1.195 1_545 S
O48 Mg39 2.048 . S
O48 C49 1.195 . S
C49 O48 1.195 . S
C49 O50 1.313 . S
O50 C49 1.313 . S
O51 Mg39 2.141 . S
O51 C42 1.289 . S
Mg52 O59 2.141 . S
Mg52 O60 2.048 . S
Mg52 O61 2.048 . S
Mg52 O64 2.141 . S
C53 O54 1.313 . S
C53 O60 1.195 1_655 S
O54 C53 1.313 . S
C55 O56 1.245 . S
C55 O64 1.289 . S
O56 C55 1.245 . S
C57 O58 1.245 . S
C57 O59 1.289 1_655 S
O58 C57 1.245 . S
O59 Mg52 2.141 . S
O59 C57 1.289 1_455 S
O60 Mg52 2.048 . S
O60 C53 1.195 1_455 S
O61 Mg52 2.048 . S
O61 C62 1.195 . S
C62 O61 1.195 . S
C62 O63 1.313 . S
O63 C62 1.313 . S
O64 Mg52 2.141 . S
O64 C55 1.289 . S
Mg65 O72 2.141 . S
Mg65 O73 2.048 . S
Mg65 O74 2.048 1_565 S
Mg65 O77 2.141 1_565 S
C66 O67 1.313 . S
C66 O73 1.195 . S
O67 C66 1.313 . S
C68 O69 1.245 1_545 S
C68 O77 1.289 . S
O69 C68 1.245 1_565 S
C70 O71 1.245 . S
C70 O72 1.289 . S
O71 C70 1.245 . S
O72 Mg65 2.141 . S
O72 C70 1.289 . S
O73 Mg65 2.048 . S
O73 C66 1.195 . S
O74 Mg65 2.048 1_545 S
O74 C75 1.195 . S
C75 O74 1.195 . S
C75 O76 1.313 1_545 S
O76 C75 1.313 1_565 S
O77 Mg65 2.141 1_545 S
O77 C68 1.289 . S
Mg78 O85 2.141 . S
Mg78 O86 2.048 . S
Mg78 O87 2.048 . S
Mg78 O90 2.141 . S
C79 O80 1.313 . S
C79 O86 1.195 1_455 S
O80 C79 1.313 . S
C81 O82 1.245 . S
C81 O90 1.289 . S
O82 C81 1.245 . S
C83 O84 1.245 . S
C83 O85 1.289 1_455 S
O84 C83 1.245 . S
O85 Mg78 2.141 . S
O85 C83 1.289 1_655 S
O86 Mg78 2.048 . S
O86 C79 1.195 1_655 S
O87 Mg78 2.048 . S
O87 C88 1.195 . S
C88 O87 1.195 . S
C88 O89 1.313 . S
O89 C88 1.313 . S
O90 Mg78 2.141 . S
O90 C81 1.289 . S
Mg91 O98 2.141 . S
Mg91 O99 2.048 . S
Mg91 O100 2.048 . S
Mg91 O103 2.141 . S
C92 O93 1.313 . S
C92 O99 1.195 . S
O93 C92 1.313 . S
C94 O95 1.245 . S
C94 O103 1.289 1_565 S
O95 C94 1.245 . S
C96 O97 1.245 . S
C96 O98 1.289 . S
O97 C96 1.245 . S
O98 Mg91 2.141 . S
O98 C96 1.289 . S
O99 Mg91 2.048 . S
O99 C92 1.195 . S
O100 Mg91 2.048 . S
O100 C101 1.195 1_545 S
C101 O100 1.195 1_565 S
C101 O102 1.313 . S
O102 C101 1.313 . S
O103 Mg91 2.141 . S
O103 C94 1.289 1_545 S
Mg104 O111 2.141 . S
Mg104 O112 2.048 . S
Mg104 O113 2.048 . S
Mg104 O116 2.141 . S
C105 O106 1.313 . S
C105 O112 1.195 1_556 S
O106 C105 1.313 . S
C107 O108 1.245 . S
C107 O116 1.289 . S
O108 C107 1.245 . S
C109 O110 1.245 . S
C109 O111 1.289 1_556 S
O110 C109 1.245 . S
O111 Mg104 2.141 . S
O111 C109 1.289 1_554 S
O112 Mg104 2.048 . S
O112 C105 1.195 1_554 S
O113 Mg104 2.048 . S
O113 C114 1.195 . S
C114 O113 1.195 . S
C114 O115 1.313 . S
O115 C114 1.313 . S
O116 Mg104 2.141 . S
O116 C107 1.289 . S
Mg117 O124 2.141 . S
Mg117 O125 2.048 . S
Mg117 O126 2.048 . S
Mg117 O129 2.141 . S
C118 O119 1.313 . S
C118 O125 1.195 . S
O119 C118 1.313 . S
C120 O121 1.245 . S
C120 O129 1.289 1_554 S
O121 C120 1.245 . S
C122 O123 1.245 . S
C122 O124 1.289 . S
O123 C122 1.245 . S
O124 Mg117 2.141 . S
O124 C122 1.289 . S
O125 Mg117 2.048 . S
O125 C118 1.195 . S
O126 Mg117 2.048 . S
O126 C127 1.195 1_556 S
C127 O126 1.195 1_554 S
C127 O128 1.313 . S
O128 C127 1.313 . S
O129 Mg117 2.141 . S
O129 C120 1.289 1_556 S
Mg130 O137 2.141 . S
Mg130 O138 2.048 . S
Mg130 O139 2.048 . S
Mg130 O142 2.141 . S
C131 O132 1.313 . S
C131 O138 1.195 1_556 S
O132 C131 1.313 . S
C133 O134 1.245 . S
C133 O142 1.289 . S
O134 C133 1.245 . S
C135 O136 1.245 . S
C135 O137 1.289 1_556 S
O136 C135 1.245 . S
O137 Mg130 2.141 . S
O137 C135 1.289 1_554 S
O138 Mg130 2.048 . S
O138 C131 1.195 1_554 S
O139 Mg130 2.048 . S
O139 C140 1.195 . S
C140 O139 1.195 . S
C140 O141 1.313 . S
O141 C140 1.313 . S
O142 Mg130 2.141 . S
O142 C133 1.289 . S
Mg143 O150 2.141 . S
Mg143 O151 2.048 . S
Mg143 O152 2.048 . S
Mg143 O155 2.141 . S
C144 O145 1.313 . S
C144 O151 1.195 . S
O145 C144 1.313 . S
C146 O147 1.245 . S
C146 O155 1.289 1_554 S
O147 C146 1.245 . S
C148 O149 1.245 . S
C148 O150 1.289 . S
O149 C148 1.245 . S
O150 Mg143 2.141 . S
O150 C148 1.289 . S
O151 Mg143 2.048 . S
O151 C144 1.195 . S
O152 Mg143 2.048 . S
O152 C153 1.195 1_556 S
C153 O152 1.195 1_554 S
C153 O154 1.313 . S
O154 C153 1.313 . S
O155 Mg143 2.141 . S
O155 C146 1.289 1_556 S
C1 C96 1.708 . S
C18 C55 1.668 . S
C66 C27 1.751 . S
C81 C49 1.776 . S
C114 C92 1.820 . S
C118 C62 1.856 . S
C140 C70 1.717 . S
C144 C88 1.824 . S
C14 C122 1.691 . S
C133 C31 1.623 . S
C42 C148 1.654 . S
C107 C5 1.649 . S
C83 C10 2.527 1_455 S
C94 C16 2.519 1_565 S
C57 C36 2.532 1_655 S
C40 C75 2.348 1_565 S
C101 C68 2.243 1_565 S
C53 C79 2.522 1_655 S
C44 C23 2.568 1_565 S
C29 C3 2.533 1_455 S
C109 C127 2.501 1_556 S
C120 C131 2.526 1_554 S
C153 C135 2.556 1_554 S
C105 C146 2.527 1_556 S
