# Generated by pormake.
# Topology umw, (4)-cn, num edge types: 1
# Building blocks:
#     Node 0, Type 0, BuildingBlock: CEKHIL_clean_sbu_0, # of connection points: 4
#     Node 1, Type 0, BuildingBlock: CEKHIL_clean_sbu_0, # of connection points: 4
#     Node 2, Type 0, BuildingBlock: CEKHIL_clean_sbu_0, # of connection points: 4
#     Node 3, Type 0, BuildingBlock: CEKHIL_clean_sbu_0, # of connection points: 4
#     Node 4, Type 0, BuildingBlock: CEKHIL_clean_sbu_0, # of connection points: 4
#     Node 5, Type 0, BuildingBlock: CEKHIL_clean_sbu_0, # of connection points: 4
#     Node 6, Type 0, BuildingBlock: CEKHIL_clean_sbu_0, # of connection points: 4
#     Node 7, Type 0, BuildingBlock: CEKHIL_clean_sbu_0, # of connection points: 4
#     Edge 8, Type (0, 0), None
#     Edge 9, Type (0, 0), None
#     Edge 10, Type (0, 0), None
#     Edge 11, Type (0, 0), None
#     Edge 12, Type (0, 0), None
#     Edge 13, Type (0, 0), None
#     Edge 14, Type (0, 0), None
#     Edge 15, Type (0, 0), None
#     Edge 16, Type (0, 0), None
#     Edge 17, Type (0, 0), None
#     Edge 18, Type (0, 0), None
#     Edge 19, Type (0, 0), None
#     Edge 20, Type (0, 0), None
#     Edge 21, Type (0, 0), None
#     Edge 22, Type (0, 0), None
#     Edge 23, Type (0, 0), None
# Relax obj value: 0.122
# Max RMSD: 0.102
# Mean RMSD: 0.102
data_MOF--net-umw--node1-CEKHIL_clean_sbu_0--edge1-none
_symmetry_space_group_name_H-M    P1
_symmetry_Int_Tables_number       1
_symmetry_cell_setting            triclinic
loop_
_symmetry_equiv_pos_as_xyz
'x, y, z'
_cell_length_a     17.408563
_cell_length_b     17.409076
_cell_length_c     11.290144
_cell_angle_alpha  89.999771
_cell_angle_beta   89.997973
_cell_angle_gamma 90.001918
loop_
_atom_site_label
_atom_site_type_symbol
_atom_site_fract_x
_atom_site_fract_y
_atom_site_fract_z
_atom_type_partial_charge
Co0 Co 0.45138 0.24013 0.29725 0.0
O1 O 0.41553 0.34391 0.33636 0.0
O2 O 0.34713 0.24015 0.36842 0.0
C3 C 0.51664 0.26036 0.11784 0.0
O4 O 0.47295 0.12362 0.28502 0.0
Co5 Co 0.63251 0.22463 0.30096 0.0
O6 O 0.60143 0.11473 0.31458 0.0
C7 C 0.54114 0.27388 0.50067 0.0
C8 C 0.35691 0.31309 0.3903 0.0
C9 C 0.53465 0.08419 0.30709 0.0
O10 O 0.48774 0.23375 0.45774 0.0
O11 O 0.60435 0.2857 0.44586 0.0
O12 O 0.44191 0.25172 0.11957 0.0
O13 O 0.54458 0.26668 0.22161 0.0
Co14 Co 0.84291 0.4514 0.54724 0.0
O15 O 0.73913 0.41554 0.58635 0.0
O16 O 0.8429 0.34715 0.6184 0.0
C17 C 0.82268 0.51665 0.36782 0.0
O18 O 0.95942 0.47297 0.535 0.0
Co19 Co 0.85842 0.63253 0.55095 0.0
O20 O 0.96833 0.60145 0.56457 0.0
C21 C 0.80916 0.54115 0.75065 0.0
C22 C 0.76995 0.35693 0.64029 0.0
C23 C 0.99886 0.53467 0.55707 0.0
O24 O 0.84929 0.48775 0.70772 0.0
O25 O 0.79734 0.60436 0.69585 0.0
O26 O 0.83132 0.44193 0.36955 0.0
O27 O 0.81636 0.54459 0.4716 0.0
Co28 Co 0.63165 0.84292 0.79724 0.0
O29 O 0.66751 0.73915 0.83635 0.0
O30 O 0.73591 0.8429 0.8684 0.0
C31 C 0.5664 0.82269 0.61783 0.0
O32 O 0.61008 0.95943 0.78501 0.0
Co33 Co 0.45052 0.85842 0.80097 0.0
O34 O 0.48161 0.96833 0.81458 0.0
C35 C 0.54189 0.80917 0.00067 0.0
C36 C 0.72612 0.76996 0.89029 0.0
C37 C 0.54838 0.99886 0.80708 0.0
O38 O 0.5953 0.8493 0.95773 0.0
O39 O 0.47868 0.79735 0.94587 0.0
O40 O 0.64112 0.83133 0.61956 0.0
O41 O 0.53846 0.81637 0.72161 0.0
Co42 Co 0.24013 0.63166 0.04725 0.0
O43 O 0.3439 0.66752 0.08635 0.0
O44 O 0.24014 0.73591 0.11841 0.0
C45 C 0.26036 0.56641 0.86783 0.0
O46 O 0.12361 0.61009 0.03501 0.0
Co47 Co 0.22462 0.45053 0.05095 0.0
O48 O 0.11471 0.48162 0.06457 0.0
C49 C 0.27388 0.5419 0.25065 0.0
C50 C 0.31309 0.72613 0.1403 0.0
C51 C 0.08418 0.54839 0.05707 0.0
O52 O 0.23374 0.5953 0.20773 0.0
O53 O 0.28569 0.47869 0.19585 0.0
O54 O 0.25172 0.64113 0.86956 0.0
O55 O 0.26668 0.53847 0.97161 0.0
Co56 Co 0.45135 0.84288 0.32883 0.0
O57 O 0.41548 0.7391 0.28976 0.0
O58 O 0.34709 0.84287 0.25769 0.0
C59 C 0.51663 0.82269 0.50823 0.0
O60 O 0.47294 0.95939 0.34102 0.0
Co61 Co 0.6325 0.85835 0.325 0.0
O62 O 0.60141 0.96826 0.31139 0.0
C63 C 0.54106 0.80907 0.12541 0.0
C64 C 0.35689 0.76993 0.23579 0.0
C65 C 0.53464 0.9988 0.3189 0.0
O66 O 0.48769 0.84924 0.16833 0.0
O67 O 0.60434 0.79733 0.18006 0.0
O68 O 0.4419 0.83131 0.50651 0.0
O69 O 0.54456 0.81634 0.40444 0.0
Co70 Co 0.24017 0.45136 0.57882 0.0
O71 O 0.34394 0.41549 0.53976 0.0
O72 O 0.24017 0.34711 0.50769 0.0
C73 C 0.26035 0.51664 0.75822 0.0
O74 O 0.12366 0.47296 0.59101 0.0
Co75 Co 0.22471 0.63251 0.575 0.0
O76 O 0.1148 0.60143 0.56138 0.0
C77 C 0.27399 0.54107 0.37539 0.0
C78 C 0.31311 0.3569 0.48579 0.0
C79 C 0.08425 0.53466 0.56889 0.0
O80 O 0.23382 0.4877 0.41833 0.0
O81 O 0.28573 0.60435 0.43004 0.0
O82 O 0.25172 0.44192 0.75651 0.0
O83 O 0.26671 0.54457 0.65444 0.0
Co84 Co 0.63168 0.24017 0.82882 0.0
O85 O 0.66755 0.34395 0.78975 0.0
O86 O 0.73594 0.24019 0.75768 0.0
C87 C 0.5664 0.26036 0.00822 0.0
O88 O 0.6101 0.12366 0.84101 0.0
Co89 Co 0.45054 0.2247 0.82501 0.0
O90 O 0.48162 0.11479 0.81139 0.0
C91 C 0.54197 0.27398 0.62541 0.0
C92 C 0.72615 0.31313 0.73578 0.0
C93 C 0.54839 0.08425 0.8189 0.0
O94 O 0.59534 0.23381 0.66833 0.0
O95 O 0.47869 0.28573 0.68006 0.0
O96 O 0.64113 0.25173 0.0065 0.0
O97 O 0.53847 0.26671 0.90444 0.0
Co98 Co 0.84286 0.6317 0.07881 0.0
O99 O 0.73909 0.66757 0.03975 0.0
O100 O 0.84286 0.73595 0.00768 0.0
C101 C 0.82268 0.56642 0.25821 0.0
O102 O 0.95938 0.61011 0.091 0.0
Co103 Co 0.85832 0.45055 0.07499 0.0
O104 O 0.96824 0.48163 0.06138 0.0
C105 C 0.80905 0.54198 0.87539 0.0
C106 C 0.76992 0.72616 0.98577 0.0
C107 C 0.99879 0.5484 0.06889 0.0
O108 O 0.84922 0.59536 0.91832 0.0
O109 O 0.7973 0.4787 0.93005 0.0
O110 O 0.8313 0.64114 0.2565 0.0
O111 O 0.81632 0.53849 0.15443 0.0
loop_
_geom_bond_atom_site_label_1
_geom_bond_atom_site_label_2
_geom_bond_distance
_geom_bond_site_symmetry_2
_ccdc_geom_bond_type
Co0 O1 2.216 . S
Co0 O2 2.091 . S
Co0 O4 2.004 . S
Co0 O10 2.021 . S
Co0 O12 2.137 . S
Co0 O13 2.244 . S
O1 Co0 2.216 . S
O1 C8 1.247 . S
O2 Co0 2.091 . S
O2 C8 1.261 . S
C3 O12 1.247 . S
C3 O13 1.272 . S
O4 Co0 2.004 . S
O4 C9 1.259 . S
Co5 O6 2.061 . S
Co5 O11 2.052 . S
Co5 O13 2.135 . S
O6 Co5 2.061 . S
O6 C9 1.235 . S
C7 O10 1.238 . S
C7 O11 1.241 . S
C8 O1 1.247 . S
C8 O2 1.261 . S
C9 O4 1.259 . S
C9 O6 1.235 . S
O10 Co0 2.021 . S
O10 C7 1.238 . S
O11 Co5 2.052 . S
O11 C7 1.241 . S
O12 Co0 2.137 . S
O12 C3 1.247 . S
O13 Co0 2.244 . S
O13 C3 1.272 . S
O13 Co5 2.135 . S
Co14 O15 2.216 . S
Co14 O16 2.091 . S
Co14 O18 2.004 . S
Co14 O24 2.021 . S
Co14 O26 2.137 . S
Co14 O27 2.244 . S
O15 Co14 2.216 . S
O15 C22 1.247 . S
O16 Co14 2.091 . S
O16 C22 1.261 . S
C17 O26 1.247 . S
C17 O27 1.272 . S
O18 Co14 2.004 . S
O18 C23 1.259 . S
Co19 O20 2.061 . S
Co19 O25 2.052 . S
Co19 O27 2.135 . S
O20 Co19 2.061 . S
O20 C23 1.235 . S
C21 O24 1.238 . S
C21 O25 1.241 . S
C22 O15 1.247 . S
C22 O16 1.261 . S
C23 O18 1.259 . S
C23 O20 1.235 . S
O24 Co14 2.021 . S
O24 C21 1.238 . S
O25 Co19 2.052 . S
O25 C21 1.241 . S
O26 Co14 2.137 . S
O26 C17 1.247 . S
O27 Co14 2.244 . S
O27 C17 1.272 . S
O27 Co19 2.135 . S
Co28 O29 2.216 . S
Co28 O30 2.091 . S
Co28 O32 2.004 . S
Co28 O38 2.021 . S
Co28 O40 2.137 . S
Co28 O41 2.244 . S
O29 Co28 2.216 . S
O29 C36 1.247 . S
O30 Co28 2.091 . S
O30 C36 1.261 . S
C31 O40 1.247 . S
C31 O41 1.272 . S
O32 Co28 2.004 . S
O32 C37 1.259 . S
Co33 O34 2.061 . S
Co33 O39 2.052 . S
Co33 O41 2.135 . S
O34 Co33 2.061 . S
O34 C37 1.235 . S
C35 O38 1.238 1_554 S
C35 O39 1.241 1_554 S
C36 O29 1.247 . S
C36 O30 1.261 . S
C37 O32 1.259 . S
C37 O34 1.235 . S
O38 Co28 2.021 . S
O38 C35 1.238 1_556 S
O39 Co33 2.052 . S
O39 C35 1.241 1_556 S
O40 Co28 2.137 . S
O40 C31 1.247 . S
O41 Co28 2.244 . S
O41 C31 1.272 . S
O41 Co33 2.135 . S
Co42 O43 2.216 . S
Co42 O44 2.091 . S
Co42 O46 2.004 . S
Co42 O52 2.021 . S
Co42 O54 2.137 1_554 S
Co42 O55 2.244 1_554 S
O43 Co42 2.216 . S
O43 C50 1.247 . S
O44 Co42 2.091 . S
O44 C50 1.261 . S
C45 O54 1.247 . S
C45 O55 1.272 . S
O46 Co42 2.004 . S
O46 C51 1.259 . S
Co47 O48 2.061 . S
Co47 O53 2.052 . S
Co47 O55 2.135 1_554 S
O48 Co47 2.061 . S
O48 C51 1.235 . S
C49 O52 1.238 . S
C49 O53 1.241 . S
C50 O43 1.247 . S
C50 O44 1.261 . S
C51 O46 1.259 . S
C51 O48 1.235 . S
O52 Co42 2.021 . S
O52 C49 1.238 . S
O53 Co47 2.052 . S
O53 C49 1.241 . S
O54 Co42 2.137 1_556 S
O54 C45 1.247 . S
O55 Co42 2.244 1_556 S
O55 C45 1.272 . S
O55 Co47 2.135 1_556 S
Co56 O57 2.216 . S
Co56 O58 2.091 . S
Co56 O60 2.004 . S
Co56 O66 2.021 . S
Co56 O68 2.137 . S
Co56 O69 2.244 . S
O57 Co56 2.216 . S
O57 C64 1.247 . S
O58 Co56 2.091 . S
O58 C64 1.261 . S
C59 O68 1.247 . S
C59 O69 1.272 . S
O60 Co56 2.004 . S
O60 C65 1.259 . S
Co61 O62 2.061 . S
Co61 O67 2.052 . S
Co61 O69 2.135 . S
O62 Co61 2.061 . S
O62 C65 1.235 . S
C63 O66 1.238 . S
C63 O67 1.241 . S
C64 O57 1.247 . S
C64 O58 1.261 . S
C65 O60 1.259 . S
C65 O62 1.235 . S
O66 Co56 2.021 . S
O66 C63 1.238 . S
O67 Co61 2.052 . S
O67 C63 1.241 . S
O68 Co56 2.137 . S
O68 C59 1.247 . S
O69 Co56 2.244 . S
O69 C59 1.272 . S
O69 Co61 2.135 . S
Co70 O71 2.216 . S
Co70 O72 2.091 . S
Co70 O74 2.004 . S
Co70 O80 2.021 . S
Co70 O82 2.137 . S
Co70 O83 2.244 . S
O71 Co70 2.216 . S
O71 C78 1.247 . S
O72 Co70 2.091 . S
O72 C78 1.261 . S
C73 O82 1.247 . S
C73 O83 1.272 . S
O74 Co70 2.004 . S
O74 C79 1.259 . S
Co75 O76 2.061 . S
Co75 O81 2.052 . S
Co75 O83 2.135 . S
O76 Co75 2.061 . S
O76 C79 1.235 . S
C77 O80 1.238 . S
C77 O81 1.241 . S
C78 O71 1.247 . S
C78 O72 1.261 . S
C79 O74 1.259 . S
C79 O76 1.235 . S
O80 Co70 2.021 . S
O80 C77 1.238 . S
O81 Co75 2.052 . S
O81 C77 1.241 . S
O82 Co70 2.137 . S
O82 C73 1.247 . S
O83 Co70 2.244 . S
O83 C73 1.272 . S
O83 Co75 2.135 . S
Co84 O85 2.216 . S
Co84 O86 2.091 . S
Co84 O88 2.004 . S
Co84 O94 2.021 . S
Co84 O96 2.137 1_556 S
Co84 O97 2.244 . S
O85 Co84 2.216 . S
O85 C92 1.247 . S
O86 Co84 2.091 . S
O86 C92 1.261 . S
C87 O96 1.247 . S
C87 O97 1.272 1_554 S
O88 Co84 2.004 . S
O88 C93 1.259 . S
Co89 O90 2.061 . S
Co89 O95 2.052 . S
Co89 O97 2.135 . S
O90 Co89 2.061 . S
O90 C93 1.235 . S
C91 O94 1.238 . S
C91 O95 1.241 . S
C92 O85 1.247 . S
C92 O86 1.261 . S
C93 O88 1.259 . S
C93 O90 1.235 . S
O94 Co84 2.021 . S
O94 C91 1.238 . S
O95 Co89 2.052 . S
O95 C91 1.241 . S
O96 Co84 2.137 1_554 S
O96 C87 1.247 . S
O97 Co84 2.244 . S
O97 C87 1.272 1_556 S
O97 Co89 2.135 . S
Co98 O99 2.216 . S
Co98 O100 2.091 . S
Co98 O102 2.004 . S
Co98 O108 2.021 1_554 S
Co98 O110 2.137 . S
Co98 O111 2.244 . S
O99 Co98 2.216 . S
O99 C106 1.247 . S
O100 Co98 2.091 . S
O100 C106 1.261 . S
C101 O110 1.247 . S
C101 O111 1.272 . S
O102 Co98 2.004 . S
O102 C107 1.259 . S
Co103 O104 2.061 . S
Co103 O109 2.052 1_554 S
Co103 O111 2.135 . S
O104 Co103 2.061 . S
O104 C107 1.235 . S
C105 O108 1.238 . S
C105 O109 1.241 . S
C106 O99 1.247 . S
C106 O100 1.261 . S
C107 O102 1.259 . S
C107 O104 1.235 . S
O108 Co98 2.021 1_556 S
O108 C105 1.238 . S
O109 Co103 2.052 1_556 S
O109 C105 1.241 . S
O110 Co98 2.137 . S
O110 C101 1.247 . S
O111 Co98 2.244 . S
O111 C101 1.272 . S
O111 Co103 2.135 . S
C7 C91 1.074 . S
C21 C105 1.074 . S
C63 C35 1.074 . S
C77 C49 1.074 . S
C8 C78 1.966 . S
C22 C92 1.966 . S
C106 C36 1.966 1_554 S
C50 C64 1.966 . S
C65 C9 1.461 1_565 S
C23 C79 1.461 1_655 S
C37 C93 1.461 1_565 S
C107 C51 1.461 1_655 S
C87 C3 1.625 . S
C101 C17 1.625 . S
C31 C59 1.625 . S
C45 C73 1.625 . S
