# Generated by pormake.
# Topology bcu, (8)-cn, num edge types: 1
# Building blocks:
#     Node 0, Type 0, BuildingBlock: TAGTUT_clean_sbu_1, # of connection points: 8
#     Node 1, Type 0, BuildingBlock: TAGTUT_clean_sbu_1, # of connection points: 8
#     Edge 2, Type (0, 0), BuildingBlock: EYOCIG_clean_linker_4, # of connection points: 2
#     Edge 3, Type (0, 0), BuildingBlock: EYOCIG_clean_linker_4, # of connection points: 2
#     Edge 4, Type (0, 0), BuildingBlock: EYOCIG_clean_linker_4, # of connection points: 2
#     Edge 5, Type (0, 0), BuildingBlock: EYOCIG_clean_linker_4, # of connection points: 2
#     Edge 6, Type (0, 0), BuildingBlock: EYOCIG_clean_linker_4, # of connection points: 2
#     Edge 7, Type (0, 0), BuildingBlock: EYOCIG_clean_linker_4, # of connection points: 2
#     Edge 8, Type (0, 0), BuildingBlock: EYOCIG_clean_linker_4, # of connection points: 2
#     Edge 9, Type (0, 0), BuildingBlock: EYOCIG_clean_linker_4, # of connection points: 2
# Relax obj value: 0.014
# Max RMSD: 0.072
# Mean RMSD: 0.072
data_MOF--net-bcu--node1-TAGTUT_clean_sbu_1--edge1-EYOCIG_clean_linker_4
_symmetry_space_group_name_H-M    P1
_symmetry_Int_Tables_number       1
_symmetry_cell_setting            triclinic
loop_
_symmetry_equiv_pos_as_xyz
'x, y, z'
_cell_length_a     16.458357
_cell_length_b     16.094501
_cell_length_c     17.983516
_cell_angle_alpha  89.97794
_cell_angle_beta   92.042504
_cell_angle_gamma 110.42306
loop_
_atom_site_label
_atom_site_type_symbol
_atom_site_fract_x
_atom_site_fract_y
_atom_site_fract_z
_atom_type_partial_charge
C0 C 0.80617 0.13603 0.06753 0.0
C1 C 0.86423 0.14626 0.83859 0.0
C2 C 0.85366 0.80585 0.87248 0.0
Mg3 Mg 0.97327 0.1614 -0.0174 0.0
O4 O 0.92826 0.03914 -0.00157 0.0
Mg5 Mg 0.81051 -0.02928 0.95478 0.0
Mg6 Mg -0.00299 -0.0317 0.96544 0.0
O7 O 0.06559 0.89737 0.93237 0.0
Mg8 Mg 0.02044 0.77498 0.94779 0.0
Mg9 Mg 0.18333 0.96562 -0.02407 0.0
C10 C 0.14016 0.13078 0.05818 0.0
C11 C 0.14141 0.09039 0.85111 0.0
O12 O 0.76586 0.06098 0.03457 0.0
O13 O 0.88452 0.18406 0.05549 0.0
O14 O 0.81805 0.07019 0.8617 0.0
O15 O 0.93524 0.19314 0.87209 0.0
O16 O 0.10177 0.18345 0.03435 0.0
O17 O 0.11254 0.04735 0.04224 0.0
C18 C 0.85257 0.84621 0.07977 0.0
O19 O 0.93184 0.86958 0.06066 0.0
O20 O 0.79835 0.87521 0.04719 0.0
O21 O 0.22786 0.87546 0.89593 0.0
O22 O 0.10917 0.75248 0.8748 0.0
O23 O 0.17567 0.86591 0.06884 0.0
C24 C 0.18754 0.80051 0.86283 0.0
O25 O 0.05851 0.74294 0.0582 0.0
O26 O 0.89193 0.75293 0.89597 0.0
C27 C 0.12948 0.78975 0.09179 0.0
O28 O 0.88161 0.88917 0.88877 0.0
O29 O 0.06214 0.06703 0.87022 0.0
O30 O 0.1956 0.06132 0.88365 0.0
C31 C 0.30201 0.63172 0.56684 0.0
C32 C 0.36067 0.64299 0.33798 0.0
C33 C 0.3556 0.30407 0.37267 0.0
Mg34 Mg 0.46987 0.65996 0.4822 0.0
O35 O 0.42663 0.53766 0.49792 0.0
Mg36 Mg 0.30937 0.46754 0.45428 0.0
Mg37 Mg 0.49701 0.46831 0.46544 0.0
O38 O 0.56721 0.39885 0.43288 0.0
Mg39 Mg 0.52386 0.27643 0.44819 0.0
Mg40 Mg 0.68448 0.46881 0.47644 0.0
C41 C 0.63823 0.63256 0.558 0.0
C42 C 0.64041 0.59154 0.35094 0.0
O43 O 0.26275 0.55652 0.53377 0.0
O44 O 0.38008 0.68079 0.55497 0.0
O45 O 0.31547 0.56648 0.36095 0.0
O46 O 0.43117 0.69082 0.37166 0.0
O47 O 0.59868 0.68417 0.5341 0.0
O48 O 0.61182 0.54911 0.54224 0.0
C49 C 0.35357 0.34507 0.57994 0.0
O50 O 0.43296 0.36957 0.56098 0.0
O51 O 0.2986 0.37272 0.54699 0.0
O52 O 0.73097 0.37992 0.39674 0.0
O53 O 0.61361 0.25576 0.37531 0.0
O54 O 0.67826 0.36962 0.56959 0.0
C55 C 0.69169 0.30482 0.36353 0.0
O56 O 0.56258 0.24526 0.55862 0.0
O57 O 0.39503 0.25221 0.39622 0.0
C58 C 0.63304 0.29303 0.5924 0.0
O59 O 0.38233 0.38742 0.38878 0.0
O60 O 0.56102 0.56705 0.3699 0.0
O61 O 0.69535 0.56382 0.38386 0.0
C62 C 0.22954 0.19556 0.18164 0.0
C63 C 0.19085 0.15958 0.12575 0.0
C64 C 0.26571 0.23842 0.24963 0.0
C65 C 0.30453 0.27475 0.30536 0.0
C66 C 0.75384 0.19903 0.18296 0.0
C67 C 0.76881 0.16304 0.12929 0.0
C68 C 0.74519 0.24336 0.24796 0.0
C69 C 0.72983 0.27888 0.30173 0.0
C70 C 0.77543 0.74334 0.18849 0.0
C71 C 0.82034 0.78824 0.14121 0.0
C72 C 0.71662 0.694 0.24173 0.0
C73 C 0.67196 0.64915 0.28915 0.0
C74 C 0.21517 0.7276 0.19098 0.0
C75 C 0.17025 0.74974 0.14619 0.0
C76 C 0.27394 0.70397 0.23875 0.0
C77 C 0.31904 0.68216 0.28361 0.0
C78 C 0.23991 0.73767 0.74734 0.0
C79 C 0.22494 0.7736 0.80105 0.0
C80 C 0.24855 0.69333 0.68234 0.0
C81 C 0.26392 0.65775 0.62861 0.0
C82 C 0.27739 0.24268 0.68921 0.0
C83 C 0.32205 0.28751 0.64176 0.0
C84 C 0.21858 0.19334 0.74245 0.0
C85 C 0.17367 0.14841 0.7897 0.0
C86 C 0.77847 0.20823 0.73931 0.0
C87 C 0.82341 0.18615 0.78413 0.0
C88 C 0.71971 0.23186 0.69154 0.0
C89 C 0.67463 0.25373 0.64671 0.0
C90 C 0.7278 0.6988 0.68107 0.0
C91 C 0.68908 0.66233 0.62535 0.0
C92 C 0.76398 0.74167 0.74906 0.0
C93 C 0.80276 0.77749 0.80497 0.0
loop_
_geom_bond_atom_site_label_1
_geom_bond_atom_site_label_2
_geom_bond_distance
_geom_bond_site_symmetry_2
_ccdc_geom_bond_type
C0 O12 1.241 . S
C0 O13 1.280 . S
C1 O14 1.277 . S
C1 O15 1.245 . S
C2 O26 1.247 . S
C2 O28 1.289 . S
Mg3 O4 1.926 . S
Mg3 O13 1.984 . S
Mg3 O15 1.988 1_554 S
Mg3 O16 2.061 1_655 S
O4 Mg3 1.926 . S
O4 Mg5 1.986 1_544 S
O4 Mg6 1.917 1_655 S
Mg5 O4 1.986 1_566 S
Mg5 O12 2.042 1_566 S
Mg5 O14 2.041 1_565 S
Mg5 O20 2.038 1_556 S
Mg5 O28 2.238 . S
Mg6 O4 1.917 1_455 S
Mg6 O7 1.917 1_544 S
Mg6 O17 2.106 . S
Mg6 O19 2.079 1_445 S
Mg6 O28 2.106 1_444 S
Mg6 O29 2.079 1_554 S
O7 Mg6 1.917 1_566 S
O7 Mg8 1.926 . S
O7 Mg9 1.986 1_566 S
Mg8 O7 1.926 . S
Mg8 O22 1.984 . S
Mg8 O25 1.988 1_556 S
Mg8 O26 2.061 1_455 S
Mg9 O7 1.986 1_544 S
Mg9 O17 2.238 . S
Mg9 O21 2.042 1_544 S
Mg9 O23 2.041 1_545 S
Mg9 O30 2.038 1_554 S
C10 O16 1.247 . S
C10 O17 1.289 . S
C11 O29 1.245 . S
C11 O30 1.274 . S
O12 C0 1.241 . S
O12 Mg5 2.042 1_544 S
O13 C0 1.280 . S
O13 Mg3 1.984 . S
O14 C1 1.277 . S
O14 Mg5 2.041 1_545 S
O15 C1 1.245 . S
O15 Mg3 1.988 1_556 S
O16 Mg3 2.061 1_455 S
O16 C10 1.247 . S
O17 Mg6 2.106 . S
O17 Mg9 2.238 . S
O17 C10 1.289 . S
C18 O19 1.245 . S
C18 O20 1.274 . S
O19 Mg6 2.079 1_665 S
O19 C18 1.245 . S
O20 Mg5 2.038 1_554 S
O20 C18 1.274 . S
O21 Mg9 2.042 1_566 S
O21 C24 1.241 . S
O22 Mg8 1.984 . S
O22 C24 1.280 . S
O23 Mg9 2.041 1_565 S
O23 C27 1.277 . S
C24 O21 1.241 . S
C24 O22 1.280 . S
O25 Mg8 1.988 1_554 S
O25 C27 1.245 . S
O26 C2 1.247 . S
O26 Mg8 2.061 1_655 S
C27 O23 1.277 . S
C27 O25 1.245 . S
O28 C2 1.289 . S
O28 Mg5 2.238 . S
O28 Mg6 2.106 1_666 S
O29 Mg6 2.079 1_556 S
O29 C11 1.245 . S
O30 Mg9 2.038 1_556 S
O30 C11 1.274 . S
C31 O43 1.241 . S
C31 O44 1.280 . S
C32 O45 1.277 . S
C32 O46 1.245 . S
C33 O57 1.247 . S
C33 O59 1.289 . S
Mg34 O35 1.926 . S
Mg34 O44 1.984 . S
Mg34 O46 1.988 . S
Mg34 O47 2.061 . S
O35 Mg34 1.926 . S
O35 Mg36 1.986 . S
O35 Mg37 1.917 . S
Mg36 O35 1.986 . S
Mg36 O43 2.042 . S
Mg36 O45 2.041 . S
Mg36 O51 2.038 . S
Mg36 O59 2.238 . S
Mg37 O35 1.917 . S
Mg37 O38 1.917 . S
Mg37 O48 2.106 . S
Mg37 O50 2.079 . S
Mg37 O59 2.106 . S
Mg37 O60 2.079 . S
O38 Mg37 1.917 . S
O38 Mg39 1.926 . S
O38 Mg40 1.986 . S
Mg39 O38 1.926 . S
Mg39 O53 1.984 . S
Mg39 O56 1.988 . S
Mg39 O57 2.061 . S
Mg40 O38 1.986 . S
Mg40 O48 2.238 . S
Mg40 O52 2.042 . S
Mg40 O54 2.041 . S
Mg40 O61 2.038 . S
C41 O47 1.247 . S
C41 O48 1.289 . S
C42 O60 1.245 . S
C42 O61 1.274 . S
O43 C31 1.241 . S
O43 Mg36 2.042 . S
O44 C31 1.280 . S
O44 Mg34 1.984 . S
O45 C32 1.277 . S
O45 Mg36 2.041 . S
O46 C32 1.245 . S
O46 Mg34 1.988 . S
O47 Mg34 2.061 . S
O47 C41 1.247 . S
O48 Mg37 2.106 . S
O48 Mg40 2.238 . S
O48 C41 1.289 . S
C49 O50 1.245 . S
C49 O51 1.274 . S
O50 Mg37 2.079 . S
O50 C49 1.245 . S
O51 Mg36 2.038 . S
O51 C49 1.274 . S
O52 Mg40 2.042 . S
O52 C55 1.241 . S
O53 Mg39 1.984 . S
O53 C55 1.280 . S
O54 Mg40 2.041 . S
O54 C58 1.277 . S
C55 O52 1.241 . S
C55 O53 1.280 . S
O56 Mg39 1.988 . S
O56 C58 1.245 . S
O57 C33 1.247 . S
O57 Mg39 2.061 . S
C58 O54 1.277 . S
C58 O56 1.245 . S
O59 C33 1.289 . S
O59 Mg36 2.238 . S
O59 Mg37 2.106 . S
O60 Mg37 2.079 . S
O60 C42 1.245 . S
O61 Mg40 2.038 . S
O61 C42 1.274 . S
C62 C63 1.170 . S
C62 C64 1.380 . S
C63 C62 1.170 . S
C64 C62 1.380 . S
C64 C65 1.170 . S
C65 C64 1.170 . S
C66 C67 1.170 . S
C66 C68 1.380 . S
C67 C66 1.170 . S
C68 C66 1.380 . S
C68 C69 1.170 . S
C69 C68 1.170 . S
C70 C71 1.170 . S
C70 C72 1.380 . S
C71 C70 1.170 . S
C72 C70 1.380 . S
C72 C73 1.170 . S
C73 C72 1.170 . S
C74 C75 1.170 . S
C74 C76 1.380 . S
C75 C74 1.170 . S
C76 C74 1.380 . S
C76 C77 1.170 . S
C77 C76 1.170 . S
C78 C79 1.170 . S
C78 C80 1.380 . S
C79 C78 1.170 . S
C80 C78 1.380 . S
C80 C81 1.170 . S
C81 C80 1.170 . S
C82 C83 1.170 . S
C82 C84 1.380 . S
C83 C82 1.170 . S
C84 C82 1.380 . S
C84 C85 1.170 . S
C85 C84 1.170 . S
C86 C87 1.170 . S
C86 C88 1.380 . S
C87 C86 1.170 . S
C88 C86 1.380 . S
C88 C89 1.170 . S
C89 C88 1.170 . S
C90 C91 1.170 . S
C90 C92 1.380 . S
C91 C90 1.170 . S
C92 C90 1.380 . S
C92 C93 1.170 . S
C93 C92 1.170 . S
C63 C10 1.022 . S
C65 C33 1.046 . S
C67 C0 1.492 . S
C69 C55 1.521 . S
C71 C18 1.590 . S
C73 C42 1.568 . S
C75 C27 1.673 . S
C77 C32 1.640 . S
C79 C24 1.525 . S
C81 C31 1.505 . S
C83 C49 1.588 . S
C85 C11 1.554 . S
C87 C1 1.673 . S
C89 C58 1.648 . S
C91 C41 1.016 . S
C93 C2 1.068 . S
