# Generated by pormake.
# Topology bcu, (8)-cn, num edge types: 1
# Building blocks:
#     Node 0, Type 0, BuildingBlock: TAGTUT_clean_sbu_3, # of connection points: 8
#     Node 1, Type 0, BuildingBlock: TAGTUT_clean_sbu_3, # of connection points: 8
#     Edge 2, Type (0, 0), BuildingBlock: EYOCIG_clean_linker_4, # of connection points: 2
#     Edge 3, Type (0, 0), BuildingBlock: EYOCIG_clean_linker_4, # of connection points: 2
#     Edge 4, Type (0, 0), BuildingBlock: EYOCIG_clean_linker_4, # of connection points: 2
#     Edge 5, Type (0, 0), BuildingBlock: EYOCIG_clean_linker_4, # of connection points: 2
#     Edge 6, Type (0, 0), BuildingBlock: EYOCIG_clean_linker_4, # of connection points: 2
#     Edge 7, Type (0, 0), BuildingBlock: EYOCIG_clean_linker_4, # of connection points: 2
#     Edge 8, Type (0, 0), BuildingBlock: EYOCIG_clean_linker_4, # of connection points: 2
#     Edge 9, Type (0, 0), BuildingBlock: EYOCIG_clean_linker_4, # of connection points: 2
# Relax obj value: 0.009
# Max RMSD: 0.056
# Mean RMSD: 0.056
data_MOF--net-bcu--node1-TAGTUT_clean_sbu_3--edge1-EYOCIG_clean_linker_4
_symmetry_space_group_name_H-M    P1
_symmetry_Int_Tables_number       1
_symmetry_cell_setting            triclinic
loop_
_symmetry_equiv_pos_as_xyz
'x, y, z'
_cell_length_a     16.623642
_cell_length_b     16.637309
_cell_length_c     17.669864
_cell_angle_alpha  90.862463
_cell_angle_beta   89.142712
_cell_angle_gamma 109.60361
loop_
_atom_site_label
_atom_site_type_symbol
_atom_site_fract_x
_atom_site_fract_y
_atom_site_fract_z
_atom_type_partial_charge
C0 C 0.11631 0.09709 0.07426 0.0
C1 C 0.20119 0.84115 0.07714 0.0
C2 C 0.10468 0.77977 0.85108 0.0
Mg3 Mg 0.973 0.15248 -0.01101 0.0
Mg4 Mg 0.78812 0.01519 0.93351 0.0
O5 O 0.90564 0.04123 0.93999 0.0
Mg6 Mg 0.97016 0.9647 0.9694 0.0
O7 O 0.04709 0.90067 -0.00112 0.0
Mg8 Mg 0.15829 0.96801 0.94968 0.0
Mg9 Mg 0.02149 0.78338 0.00617 0.0
C10 C 0.8106 0.84925 0.85848 0.0
O11 O 0.87221 0.88349 0.05917 0.0
O12 O 0.90843 0.21997 0.90736 0.0
O13 O 0.8984 0.75784 0.06059 0.0
O14 O 0.86454 0.14132 0.07804 0.0
O15 O 0.7922 0.11829 0.86105 0.0
O16 O 0.74269 0.0407 0.04263 0.0
O17 O 0.07587 0.03144 0.88112 0.0
O18 O 0.07295 0.16386 0.89715 0.0
C19 C 0.10165 0.11052 0.8638 0.0
C20 C 0.84494 0.19454 0.86222 0.0
O21 O 0.88857 0.86639 0.88005 0.0
O22 O 0.22634 0.90427 0.03165 0.0
O23 O 0.76257 0.8921 0.87924 0.0
O24 O 0.14702 0.85912 0.86112 0.0
O25 O 0.12497 0.7883 0.0786 0.0
O26 O 0.04676 0.7374 0.89724 0.0
O27 O 0.03711 0.07053 0.05718 0.0
O28 O 0.16988 0.06856 0.04105 0.0
C29 C 0.78523 0.09888 0.08848 0.0
C30 C 0.85534 0.80575 0.0811 0.0
C31 C 0.61628 0.59596 0.57482 0.0
C32 C 0.70007 0.33925 0.57512 0.0
C33 C 0.60368 0.28036 0.34899 0.0
Mg34 Mg 0.47333 0.65275 0.49035 0.0
Mg35 Mg 0.28822 0.51647 0.43413 0.0
O36 O 0.40566 0.54202 0.44068 0.0
Mg37 Mg 0.46983 0.4649 0.46932 0.0
O38 O 0.54644 0.40022 0.49802 0.0
Mg39 Mg 0.65771 0.46771 0.44902 0.0
Mg40 Mg 0.52037 0.28278 0.50421 0.0
C41 C 0.31016 0.35088 0.35786 0.0
O42 O 0.37176 0.38307 0.55873 0.0
O43 O 0.40912 0.72135 0.40939 0.0
O44 O 0.39737 0.25709 0.55885 0.0
O45 O 0.3649 0.64105 0.57955 0.0
O46 O 0.29276 0.62038 0.36249 0.0
O47 O 0.24288 0.54107 0.54357 0.0
O48 O 0.5756 0.53214 0.38129 0.0
O49 O 0.57324 0.66462 0.39835 0.0
C50 C 0.60167 0.61137 0.36453 0.0
C51 C 0.34568 0.69654 0.36416 0.0
O52 O 0.38806 0.36757 0.37945 0.0
O53 O 0.72541 0.40284 0.53016 0.0
O54 O 0.26232 0.3938 0.37897 0.0
O55 O 0.64621 0.35957 0.3596 0.0
O56 O 0.62375 0.28657 0.57633 0.0
O57 O 0.54556 0.23772 0.39485 0.0
O58 O 0.53708 0.56984 0.55775 0.0
O59 O 0.66966 0.56749 0.54121 0.0
C60 C 0.28554 0.59869 0.58982 0.0
C61 C 0.35462 0.30506 0.58002 0.0
C62 C 0.18421 0.19304 0.19185 0.0
C63 C 0.14607 0.15036 0.13961 0.0
C64 C 0.23445 0.24096 0.25142 0.0
C65 C 0.27577 0.28822 0.29972 0.0
C66 C 0.70171 0.15693 0.19246 0.0
C67 C 0.73876 0.12955 0.14473 0.0
C68 C 0.66157 0.19709 0.2447 0.0
C69 C 0.6343 0.23407 0.29256 0.0
C70 C 0.74487 0.73033 0.18723 0.0
C71 C 0.79229 0.77164 0.13902 0.0
C72 C 0.69701 0.67997 0.24677 0.0
C73 C 0.6546 0.64162 0.29905 0.0
C74 C 0.29354 0.81832 0.18839 0.0
C75 C 0.25718 0.83438 0.13543 0.0
C76 C 0.32251 0.78933 0.25349 0.0
C77 C 0.33875 0.75278 0.3062 0.0
C78 C 0.16224 0.69608 0.74694 0.0
C79 C 0.13507 0.73319 0.79475 0.0
C80 C 0.20223 0.65603 0.69448 0.0
C81 C 0.23918 0.62898 0.64643 0.0
C82 C 0.24449 0.2292 0.68628 0.0
C83 C 0.2918 0.2707 0.63808 0.0
C84 C 0.19682 0.17875 0.74586 0.0
C85 C 0.15455 0.14045 0.79824 0.0
C86 C 0.82135 0.28647 0.75106 0.0
C87 C 0.83768 0.25021 0.80392 0.0
C88 C 0.7923 0.31546 0.68601 0.0
C89 C 0.7559 0.33187 0.63327 0.0
C90 C 0.68455 0.69105 0.6928 0.0
C91 C 0.64629 0.64876 0.64041 0.0
C92 C 0.73494 0.73883 0.75238 0.0
C93 C 0.77637 0.78626 0.80055 0.0
loop_
_geom_bond_atom_site_label_1
_geom_bond_atom_site_label_2
_geom_bond_distance
_geom_bond_site_symmetry_2
_ccdc_geom_bond_type
C0 O27 1.312 . S
C0 O28 1.208 . S
C1 O22 1.331 . S
C1 O25 1.244 . S
C2 O24 1.264 . S
C2 O26 1.273 . S
Mg3 O5 1.936 1_455 S
Mg3 O12 2.082 1_455 S
Mg3 O14 2.011 1_456 S
Mg3 O18 2.043 . S
Mg3 O27 2.291 1_556 S
Mg4 O5 1.963 . S
Mg4 O15 1.942 . S
Mg4 O16 1.955 1_556 S
Mg4 O23 1.986 1_545 S
O5 Mg3 1.936 1_655 S
O5 Mg4 1.963 . S
O5 Mg6 1.915 1_546 S
Mg6 O5 1.915 1_564 S
Mg6 O7 1.915 1_655 S
Mg6 O11 2.013 . S
Mg6 O17 2.114 1_664 S
Mg6 O21 2.013 1_554 S
Mg6 O27 2.114 1_665 S
O7 Mg6 1.915 1_455 S
O7 Mg8 1.937 1_565 S
O7 Mg9 1.963 . S
Mg8 O7 1.937 1_545 S
Mg8 O17 2.289 1_554 S
Mg8 O22 2.085 1_545 S
Mg8 O24 2.009 1_544 S
Mg8 O28 2.045 . S
Mg9 O7 1.963 . S
Mg9 O13 1.986 1_455 S
Mg9 O25 1.942 . S
Mg9 O26 1.955 1_554 S
C10 O21 1.191 . S
C10 O23 1.307 . S
O11 Mg6 2.013 . S
O11 C30 1.191 . S
O12 Mg3 2.082 1_655 S
O12 C20 1.331 . S
O13 Mg9 1.986 1_655 S
O13 C30 1.307 . S
O14 Mg3 2.011 1_654 S
O14 C29 1.264 . S
O15 Mg4 1.942 . S
O15 C20 1.244 . S
O16 Mg4 1.955 1_554 S
O16 C29 1.273 . S
O17 Mg6 2.114 1_446 S
O17 Mg8 2.289 1_556 S
O17 C19 1.312 . S
O18 Mg3 2.043 . S
O18 C19 1.208 . S
C19 O17 1.312 . S
C19 O18 1.208 . S
C20 O12 1.331 . S
C20 O15 1.244 . S
O21 Mg6 2.013 1_556 S
O21 C10 1.191 . S
O22 C1 1.331 . S
O22 Mg8 2.085 1_565 S
O23 Mg4 1.986 1_565 S
O23 C10 1.307 . S
O24 C2 1.264 . S
O24 Mg8 2.009 1_566 S
O25 C1 1.244 . S
O25 Mg9 1.942 . S
O26 C2 1.273 . S
O26 Mg9 1.955 1_556 S
O27 C0 1.312 . S
O27 Mg3 2.291 1_554 S
O27 Mg6 2.114 1_445 S
O28 C0 1.208 . S
O28 Mg8 2.045 . S
C29 O14 1.264 . S
C29 O16 1.273 . S
C30 O11 1.191 . S
C30 O13 1.307 . S
C31 O58 1.312 . S
C31 O59 1.208 . S
C32 O53 1.331 . S
C32 O56 1.244 . S
C33 O55 1.264 . S
C33 O57 1.273 . S
Mg34 O36 1.936 . S
Mg34 O43 2.081 . S
Mg34 O45 2.023 . S
Mg34 O49 2.031 . S
Mg34 O58 2.291 . S
Mg35 O36 1.963 . S
Mg35 O46 1.942 . S
Mg35 O47 1.955 . S
Mg35 O54 1.986 . S
O36 Mg34 1.936 . S
O36 Mg35 1.963 . S
O36 Mg37 1.915 . S
Mg37 O36 1.915 . S
Mg37 O38 1.915 . S
Mg37 O42 2.013 . S
Mg37 O48 2.114 . S
Mg37 O52 2.013 . S
Mg37 O58 2.114 . S
O38 Mg37 1.915 . S
O38 Mg39 1.936 . S
O38 Mg40 1.963 . S
Mg39 O38 1.936 . S
Mg39 O48 2.291 . S
Mg39 O53 2.081 . S
Mg39 O55 2.023 . S
Mg39 O59 2.031 . S
Mg40 O38 1.963 . S
Mg40 O44 1.986 . S
Mg40 O56 1.942 . S
Mg40 O57 1.955 . S
C41 O52 1.191 . S
C41 O54 1.307 . S
O42 Mg37 2.013 . S
O42 C61 1.191 . S
O43 Mg34 2.081 . S
O43 C51 1.331 . S
O44 Mg40 1.986 . S
O44 C61 1.307 . S
O45 Mg34 2.023 . S
O45 C60 1.264 . S
O46 Mg35 1.942 . S
O46 C51 1.244 . S
O47 Mg35 1.955 . S
O47 C60 1.273 . S
O48 Mg37 2.114 . S
O48 Mg39 2.291 . S
O48 C50 1.312 . S
O49 Mg34 2.031 . S
O49 C50 1.208 . S
C50 O48 1.312 . S
C50 O49 1.208 . S
C51 O43 1.331 . S
C51 O46 1.244 . S
O52 Mg37 2.013 . S
O52 C41 1.191 . S
O53 C32 1.331 . S
O53 Mg39 2.081 . S
O54 Mg35 1.986 . S
O54 C41 1.307 . S
O55 C33 1.264 . S
O55 Mg39 2.023 . S
O56 C32 1.244 . S
O56 Mg40 1.942 . S
O57 C33 1.273 . S
O57 Mg40 1.955 . S
O58 C31 1.312 . S
O58 Mg34 2.291 . S
O58 Mg37 2.114 . S
O59 C31 1.208 . S
O59 Mg39 2.031 . S
C60 O45 1.264 . S
C60 O47 1.273 . S
C61 O42 1.191 . S
C61 O44 1.307 . S
C62 C63 1.170 . S
C62 C64 1.380 . S
C63 C62 1.170 . S
C64 C62 1.380 . S
C64 C65 1.170 . S
C65 C64 1.170 . S
C66 C67 1.170 . S
C66 C68 1.380 . S
C67 C66 1.170 . S
C68 C66 1.380 . S
C68 C69 1.170 . S
C69 C68 1.170 . S
C70 C71 1.170 . S
C70 C72 1.380 . S
C71 C70 1.170 . S
C72 C70 1.380 . S
C72 C73 1.170 . S
C73 C72 1.170 . S
C74 C75 1.170 . S
C74 C76 1.380 . S
C75 C74 1.170 . S
C76 C74 1.380 . S
C76 C77 1.170 . S
C77 C76 1.170 . S
C78 C79 1.170 . S
C78 C80 1.380 . S
C79 C78 1.170 . S
C80 C78 1.380 . S
C80 C81 1.170 . S
C81 C80 1.170 . S
C82 C83 1.170 . S
C82 C84 1.380 . S
C83 C82 1.170 . S
C84 C82 1.380 . S
C84 C85 1.170 . S
C85 C84 1.170 . S
C86 C87 1.170 . S
C86 C88 1.380 . S
C87 C86 1.170 . S
C88 C86 1.380 . S
C88 C89 1.170 . S
C89 C88 1.170 . S
C90 C91 1.170 . S
C90 C92 1.380 . S
C91 C90 1.170 . S
C92 C90 1.380 . S
C92 C93 1.170 . S
C93 C92 1.170 . S
C63 C0 1.334 . S
C65 C41 1.326 . S
C67 C29 1.624 . S
C69 C33 1.643 . S
C71 C30 1.351 . S
C73 C50 1.305 . S
C75 C1 1.504 . S
C77 C51 1.507 . S
C79 C2 1.620 . S
C81 C60 1.646 . S
C83 C61 1.320 . S
C85 C19 1.329 . S
C87 C20 1.512 . S
C89 C32 1.494 . S
C91 C31 1.301 . S
C93 C10 1.356 . S
