# Generated by pormake.
# Topology pcu, (6)-cn, num edge types: 1
# Building blocks:
#     Node 0, Type 0, BuildingBlock: CUKXOW_clean_sbu_0, # of connection points: 6
#     Edge 1, Type (0, 0), BuildingBlock: TEMPAE_clean_linker_10, # of connection points: 2
#     Edge 2, Type (0, 0), BuildingBlock: TEMPAE_clean_linker_10, # of connection points: 2
#     Edge 3, Type (0, 0), BuildingBlock: TEMPAE_clean_linker_10, # of connection points: 2
# Relax obj value: 0.000
# Max RMSD: 0.000
# Mean RMSD: 0.000
data_MOF--net-pcu--node1-CUKXOW_clean_sbu_0--edge1-TEMPAE_clean_linker_10
_symmetry_space_group_name_H-M    P1
_symmetry_Int_Tables_number       1
_symmetry_cell_setting            triclinic
loop_
_symmetry_equiv_pos_as_xyz
'x, y, z'
_cell_length_a     13.930978
_cell_length_b     18.347948
_cell_length_c     15.552253
_cell_angle_alpha  84.373711
_cell_angle_beta   105.82324
_cell_angle_gamma 124.92313
loop_
_atom_site_label
_atom_site_type_symbol
_atom_site_fract_x
_atom_site_fract_y
_atom_site_fract_z
_atom_type_partial_charge
Tb0 Tb 0.06365 0.08986 0.98316 0.0
C1 C 1.01162 0.9896 0.80531 0.0
Tb2 Tb 0.99304 0.89595 0.99075 0.0
O3 O 0.24566 0.14248 0.97079 0.0
O4 O 0.15125 0.02546 0.03369 0.0
O5 O 1.03043 0.06068 0.84186 0.0
C6 C 1.00321 0.7549 0.9927 0.0
O7 O 0.99623 0.9197 0.85037 0.0
C8 C 0.81506 0.91403 0.97203 0.0
C9 C 1.02832 0.99067 0.16213 0.0
O10 O 0.90772 0.75168 0.99298 0.0
O11 O 0.092 0.83706 0.99126 0.0
O12 O 0.81525 0.84743 0.00934 0.0
O13 O 0.90558 0.96046 0.94039 0.0
O14 O 0.04421 0.93397 0.13233 0.0
O15 O 1.01504 0.0481 0.11051 0.0
C16 C 0.06326 0.2348 0.98555 0.0
O17 O 0.1282 0.21654 0.04835 0.0
O18 O 1.00052 0.1724 0.92124 0.0
C19 C 0.24328 0.0739 0.00401 0.0
C20 C 0.93938 -0.00036 0.27599 0.0
C21 C 1.02237 0.98867 0.25539 0.0
C22 C 0.93136 0.99676 0.3644 0.0
C23 C 1.01128 0.98577 0.43393 0.0
C24 C 0.09611 0.97554 0.41328 0.0
C25 C 0.0991 0.97552 0.32382 0.0
C26 C 0.83714 0.00507 0.38327 0.0
C27 C 0.1851 0.96621 0.48582 0.0
C28 C 0.07497 0.06842 0.67061 0.0
C29 C 1.00794 0.98833 0.70968 0.0
C30 C 0.07709 0.06851 0.58094 0.0
C31 C 1.00792 0.98662 0.52854 0.0
C32 C 0.93782 0.90562 0.56713 0.0
C33 C 0.9401 0.90736 0.65775 0.0
C34 C 0.1554 0.15608 0.54287 0.0
C35 C 0.86053 0.81718 0.51273 0.0
H36 H 0.87899 0.00867 0.22257 0.0
H37 H 0.16364 0.96751 0.3076 0.0
H38 H 0.77984 0.94757 0.41947 0.0
H39 H 0.88236 0.06624 0.42722 0.0
H40 H 0.77737 0.00797 0.32099 0.0
H41 H 0.24685 0.9607 0.45868 0.0
H42 H 0.24081 0.02474 0.5354 0.0
H43 H 0.13559 0.90627 0.5223 0.0
H44 H 0.1286 0.13109 0.71092 0.0
H45 H 0.8876 0.84536 0.6877 0.0
H46 H 0.09875 0.16612 0.48422 0.0
H47 H 0.22286 0.1551 0.51901 0.0
H48 H 0.20471 0.21379 0.59283 0.0
H49 H 0.79768 0.81859 0.45189 0.0
H50 H 0.80629 0.76078 0.55141 0.0
H51 H 0.91898 0.80463 0.48994 0.0
C52 C 0.29897 0.99247 0.93315 0.0
C53 C 0.32957 0.05307 0.00037 0.0
C54 C 0.37859 0.97003 0.92945 0.0
C55 C 0.49364 0.01193 0.99277 0.0
C56 C 0.52683 0.07598 0.05896 0.0
C57 C 0.44376 0.09549 0.06223 0.0
C58 C 0.33946 0.90175 0.85743 0.0
C59 C 0.65004 0.12406 0.12585 0.0
C60 C 0.65416 0.89494 0.03287 0.0
C61 C 0.73176 0.93799 0.9766 0.0
C62 C 0.57657 0.91868 0.03924 0.0
C63 C 0.57855 0.98826 0.98936 0.0
C64 C 0.65766 0.03233 0.93297 0.0
C65 C 0.73153 0.00536 0.92605 0.0
C66 C 0.49274 0.86936 0.09945 0.0
C67 C 0.6646 0.10807 0.88012 0.0
H68 H 0.21239 0.96214 0.88348 0.0
H69 H 0.46789 0.1438 0.11309 0.0
H70 H 0.39261 0.9352 0.80743 0.0
H71 H 0.35756 0.85177 0.8865 0.0
H72 H 0.24141 0.86634 0.82204 0.0
H73 H 0.66291 0.17363 0.17152 0.0
H74 H 0.66194 0.07537 0.16673 0.0
H75 H 0.72244 0.15899 0.09015 0.0
H76 H 0.65425 0.84278 0.07215 0.0
H77 H 0.78843 0.03648 0.88032 0.0
H78 H 0.39865 0.8467 0.06293 0.0
H79 H 0.522 0.91485 0.1573 0.0
H80 H 0.49208 0.8105 0.12538 0.0
H81 H 0.57513 0.08438 0.83257 0.0
H82 H 0.73382 0.13716 0.84169 0.0
H83 H 0.68739 0.16157 0.92605 0.0
C84 C 0.91653 0.59324 0.0085 0.0
C85 C 1.01095 0.67811 0.99351 0.0
C86 C 0.92437 0.52013 0.0099 0.0
C87 C 1.02836 0.53245 0.99464 0.0
C88 C 0.12376 0.61821 0.97929 0.0
C89 C 0.11408 0.69012 0.97944 0.0
C90 C 0.82168 0.42982 0.02777 0.0
C91 C 0.23546 0.63383 0.9618 0.0
C92 C 0.10425 0.36357 0.06825 0.0
C93 C 0.05611 0.31147 0.98815 0.0
C94 C 0.09413 0.435 0.07179 0.0
C95 C 0.03656 0.45541 0.99289 0.0
C96 C 0.98848 0.40308 0.91172 0.0
C97 C 0.99785 0.3311 0.91058 0.0
C98 C 0.14432 0.48827 0.1599 0.0
C99 C 0.92819 0.42363 0.82592 0.0
H100 H 0.83697 0.58415 0.01976 0.0
H101 H 0.18681 0.75576 0.96753 0.0
H102 H 0.78132 0.3816 0.96948 0.0
H103 H 0.85676 0.404 0.08637 0.0
H104 H 0.74887 0.43201 0.04096 0.0
H105 H 0.28258 0.61541 0.0198 0.0
H106 H 0.20886 0.5908 0.90254 0.0
H107 H 0.30062 0.70433 0.94975 0.0
H108 H 0.14826 0.34768 0.12845 0.0
H109 H 0.96044 0.29058 0.84863 0.0
H110 H 0.07149 0.48731 0.17731 0.0
H111 H 0.21616 0.55888 0.15407 0.0
H112 H 0.18324 0.46214 0.21559 0.0
H113 H 0.84909 0.42003 0.83439 0.0
H114 H 0.8966 0.3769 0.76834 0.0
H115 H 0.99269 0.49258 0.80962 0.0
loop_
_geom_bond_atom_site_label_1
_geom_bond_atom_site_label_2
_geom_bond_distance
_geom_bond_site_symmetry_2
_ccdc_geom_bond_type
Tb0 O3 2.453 . S
Tb0 O4 2.596 1_545 S
Tb0 O5 2.374 1_554 S
Tb0 O13 2.343 1_454 S
Tb0 O15 2.353 . S
Tb0 O17 2.427 . S
Tb0 O18 2.513 1_554 S
C1 O5 1.251 1_655 S
C1 O7 1.263 1_545 S
Tb2 O4 2.343 1_656 S
Tb2 O7 2.353 . S
Tb2 O10 2.427 . S
Tb2 O11 2.513 1_556 S
Tb2 O12 2.453 . S
Tb2 O13 2.596 1_565 S
Tb2 O14 2.374 1_556 S
O3 Tb0 2.453 . S
O3 C19 1.245 . S
O4 Tb0 2.596 1_565 S
O4 Tb2 2.343 1_454 S
O4 C19 1.259 1_565 S
O5 Tb0 2.374 1_556 S
O5 C1 1.251 1_455 S
C6 O10 1.273 1_554 S
C6 O11 1.247 . S
O7 C1 1.263 1_565 S
O7 Tb2 2.353 . S
C8 O12 1.245 . S
C8 O13 1.259 1_565 S
C9 O14 1.250 1_455 S
C9 O15 1.263 1_565 S
O10 Tb2 2.427 . S
O10 C6 1.273 1_556 S
O11 Tb2 2.513 1_554 S
O11 C6 1.247 . S
O12 Tb2 2.453 . S
O12 C8 1.245 . S
O13 Tb0 2.343 1_656 S
O13 Tb2 2.596 1_545 S
O13 C8 1.259 1_545 S
O14 Tb2 2.374 1_554 S
O14 C9 1.250 1_655 S
O15 Tb0 2.353 . S
O15 C9 1.263 1_545 S
C16 O17 1.276 1_556 S
C16 O18 1.245 . S
O17 Tb0 2.427 . S
O17 C16 1.276 1_554 S
O18 Tb0 2.513 1_556 S
O18 C16 1.245 . S
C19 O3 1.245 . S
C19 O4 1.259 1_545 S
C20 C21 1.391 . S
C20 C22 1.394 . S
C20 H36 0.931 . S
C21 C20 1.391 . S
C21 C25 1.376 1_665 S
C22 C20 1.394 . S
C22 C23 1.369 . S
C22 C26 1.531 . S
C23 C22 1.369 . S
C23 C24 1.410 1_665 S
C23 C31 1.503 . S
C24 C23 1.410 1_445 S
C24 C25 1.392 . S
C24 C27 1.511 . S
C25 C21 1.376 1_445 S
C25 C24 1.392 . S
C25 H37 0.929 . S
C26 C22 1.531 . S
C26 H38 0.960 . S
C26 H39 0.962 . S
C26 H40 0.960 . S
C27 C24 1.511 . S
C27 H41 0.961 . S
C27 H42 0.961 . S
C27 H43 0.961 1_545 S
C28 C29 1.370 1_445 S
C28 C30 1.363 . S
C28 H44 0.931 . S
C29 C28 1.370 1_665 S
C29 C33 1.409 . S
C30 C28 1.363 . S
C30 C31 1.370 1_445 S
C30 C34 1.524 . S
C31 C23 1.503 . S
C31 C30 1.370 1_665 S
C31 C32 1.403 . S
C32 C31 1.403 . S
C32 C33 1.404 . S
C32 C35 1.539 . S
C33 C29 1.409 . S
C33 C32 1.404 . S
C33 H45 0.930 . S
C34 C30 1.524 . S
C34 H46 0.956 1_455 S
C34 H47 0.961 . S
C34 H48 0.961 . S
C35 C32 1.539 . S
C35 H49 0.958 . S
C35 H50 0.961 . S
C35 H51 0.960 . S
H36 C20 0.931 . S
H37 C25 0.929 . S
H38 C26 0.960 . S
H39 C26 0.962 . S
H40 C26 0.960 . S
H41 C27 0.961 . S
H42 C27 0.961 . S
H43 C27 0.961 1_565 S
H44 C28 0.931 . S
H45 C33 0.930 . S
H46 C34 0.956 1_655 S
H47 C34 0.961 . S
H48 C34 0.961 . S
H49 C35 0.958 . S
H50 C35 0.961 . S
H51 C35 0.960 . S
C52 C53 1.391 1_565 S
C52 C54 1.394 . S
C52 H68 0.931 . S
C53 C52 1.391 1_545 S
C53 C57 1.376 1_556 S
C54 C52 1.394 . S
C54 C55 1.369 1_565 S
C54 C58 1.531 . S
C55 C54 1.369 1_545 S
C55 C56 1.410 1_556 S
C55 C63 1.503 . S
C56 C55 1.410 1_554 S
C56 C57 1.392 . S
C56 C59 1.511 . S
C57 C53 1.376 1_554 S
C57 C56 1.392 . S
C57 H69 0.929 . S
C58 C54 1.531 . S
C58 H70 0.960 . S
C58 H71 0.962 . S
C58 H72 0.960 . S
C59 C56 1.511 . S
C59 H73 0.961 . S
C59 H74 0.961 . S
C59 H75 0.961 1_554 S
C60 C61 1.370 1_564 S
C60 C62 1.363 . S
C60 H76 0.931 . S
C61 C60 1.370 1_546 S
C61 C65 1.408 . S
C62 C60 1.363 . S
C62 C63 1.370 1_564 S
C62 C66 1.524 . S
C63 C55 1.503 . S
C63 C62 1.370 1_546 S
C63 C64 1.403 . S
C64 C63 1.403 . S
C64 C65 1.404 . S
C64 C67 1.539 . S
C65 C61 1.408 . S
C65 C64 1.404 . S
C65 H77 0.930 . S
C66 C62 1.524 . S
C66 H78 0.956 . S
C66 H79 0.961 . S
C66 H80 0.961 . S
C67 C64 1.539 . S
C67 H81 0.958 . S
C67 H82 0.961 . S
C67 H83 0.960 . S
H68 C52 0.931 . S
H69 C57 0.929 . S
H70 C58 0.960 . S
H71 C58 0.962 . S
H72 C58 0.960 . S
H73 C59 0.961 . S
H74 C59 0.961 . S
H75 C59 0.961 1_556 S
H76 C60 0.931 . S
H77 C65 0.930 . S
H78 C66 0.956 . S
H79 C66 0.961 . S
H80 C66 0.961 . S
H81 C67 0.958 . S
H82 C67 0.961 . S
H83 C67 0.960 . S
C84 C85 1.391 1_554 S
C84 C86 1.394 . S
C84 H100 0.931 . S
C85 C84 1.391 1_556 S
C85 C89 1.376 1_655 S
C86 C84 1.394 . S
C86 C87 1.369 1_554 S
C86 C90 1.531 . S
C87 C86 1.369 1_556 S
C87 C88 1.410 1_655 S
C87 C95 1.503 . S
C88 C87 1.410 1_455 S
C88 C89 1.392 . S
C88 C91 1.511 . S
C89 C85 1.376 1_455 S
C89 C88 1.392 . S
C89 H101 0.929 . S
C90 C86 1.531 . S
C90 H102 0.960 1_554 S
C90 H103 0.962 . S
C90 H104 0.960 . S
C91 C88 1.511 . S
C91 H105 0.961 . S
C91 H106 0.961 . S
C91 H107 0.961 . S
C92 C93 1.370 1_454 S
C92 C94 1.363 . S
C92 H108 0.931 . S
C93 C92 1.370 1_656 S
C93 C97 1.408 . S
C94 C92 1.363 . S
C94 C95 1.370 1_454 S
C94 C98 1.524 . S
C95 C87 1.503 . S
C95 C94 1.370 1_656 S
C95 C96 1.403 . S
C96 C95 1.403 . S
C96 C97 1.404 . S
C96 C99 1.539 . S
C97 C93 1.408 . S
C97 C96 1.404 . S
C97 H109 0.930 . S
C98 C94 1.524 . S
C98 H110 0.956 . S
C98 H111 0.961 . S
C98 H112 0.961 . S
C99 C96 1.539 . S
C99 H113 0.958 . S
C99 H114 0.961 . S
C99 H115 0.960 . S
H100 C84 0.931 . S
H101 C89 0.929 . S
H102 C90 0.960 1_556 S
H103 C90 0.962 . S
H104 C90 0.960 . S
H105 C91 0.961 . S
H106 C91 0.961 . S
H107 C91 0.961 . S
H108 C92 0.931 . S
H109 C97 0.930 . S
H110 C98 0.956 . S
H111 C98 0.961 . S
H112 C98 0.961 . S
H113 C99 0.958 . S
H114 C99 0.961 . S
H115 C99 0.960 . S
C21 C9 1.475 1_655 S
C29 C1 1.491 1_565 S
C53 C19 1.442 1_556 S
C61 C8 1.446 1_545 S
C85 C6 1.466 1_556 S
C93 C16 1.477 1_655 S
