# Generated by pormake.
# Topology sxa, (6)-cn, num edge types: 1
# Building blocks:
#     Node 0, Type 0, BuildingBlock: CIFDUS_clean_sbu_1, # of connection points: 6
#     Node 1, Type 0, BuildingBlock: CIFDUS_clean_sbu_1, # of connection points: 6
#     Node 2, Type 0, BuildingBlock: CIFDUS_clean_sbu_1, # of connection points: 6
#     Node 3, Type 0, BuildingBlock: CIFDUS_clean_sbu_1, # of connection points: 6
#     Edge 4, Type (0, 0), None
#     Edge 5, Type (0, 0), None
#     Edge 6, Type (0, 0), None
#     Edge 7, Type (0, 0), None
#     Edge 8, Type (0, 0), None
#     Edge 9, Type (0, 0), None
#     Edge 10, Type (0, 0), None
#     Edge 11, Type (0, 0), None
#     Edge 12, Type (0, 0), None
#     Edge 13, Type (0, 0), None
#     Edge 14, Type (0, 0), None
#     Edge 15, Type (0, 0), None
# Relax obj value: 0.187
# Max RMSD: 0.230
# Mean RMSD: 0.230
data_MOF--net-sxa--node1-CIFDUS_clean_sbu_1--edge1-none
_symmetry_space_group_name_H-M    P1
_symmetry_Int_Tables_number       1
_symmetry_cell_setting            triclinic
loop_
_symmetry_equiv_pos_as_xyz
'x, y, z'
_cell_length_a     11.448017
_cell_length_b     12.591097
_cell_length_c     8.3017502
_cell_angle_alpha  89.999998
_cell_angle_beta   89.999968
_cell_angle_gamma 89.992142
loop_
_atom_site_label
_atom_site_type_symbol
_atom_site_fract_x
_atom_site_fract_y
_atom_site_fract_z
_atom_type_partial_charge
O0 O 0.9029 0.82096 0.01545 0.0
Mn1 Mn 0.02625 0.80968 0.17681 0.0
O2 O 0.80926 0.96271 0.12455 0.0
Mn3 Mn 0.92144 1.0266 0.24905 0.0
O4 O 0.17035 0.81172 0.34879 0.0
O5 O 1.00732 0.6467 0.15637 0.0
Mn6 Mn 0.13106 0.59276 0.24904 0.0
O7 O 0.14959 0.7984 0.01544 0.0
O8 O 0.15735 0.65328 0.45136 0.0
O9 O 0.88216 0.80764 0.3488 0.0
O10 O 0.89517 0.96608 0.45137 0.0
O11 O 0.05762 0.48296 0.13477 0.0
O12 O 0.24323 0.65665 0.12453 0.0
C13 C 0.04951 1.05906 0.0649 0.0
C14 C 0.81679 0.88302 0.03112 0.0
C15 C 0.21166 0.74092 0.445 0.0
C16 C 1.00298 0.56029 0.06491 0.0
C17 C 0.2357 0.73634 0.0311 0.0
C18 C 0.84085 0.87844 0.44501 0.0
O19 O 0.04518 0.97266 0.15637 0.0
O20 O 0.99488 0.1364 0.13477 0.0
O21 O 0.40291 0.32096 0.01544 0.0
Mn22 Mn 0.52624 0.30968 0.17681 0.0
O23 O 0.30926 0.46271 0.12453 0.0
Mn24 Mn 0.42144 0.5266 0.24903 0.0
O25 O 0.67033 0.31172 0.3488 0.0
O26 O 0.50731 0.1467 0.15637 0.0
Mn27 Mn 0.63105 0.09276 0.24905 0.0
O28 O 0.64959 0.29841 0.01545 0.0
O29 O 0.65732 0.15328 0.45137 0.0
O30 O 0.38215 0.30764 0.34879 0.0
O31 O 0.39514 0.46609 0.45136 0.0
O32 O 0.55762 0.98297 0.13477 0.0
O33 O 0.74323 0.15666 0.12455 0.0
C34 C 0.54951 0.55907 0.06491 0.0
C35 C 0.31679 0.38302 0.0311 0.0
C36 C 0.71164 0.24092 0.44501 0.0
C37 C 0.50298 0.0603 0.0649 0.0
C38 C 0.73571 0.23634 0.03112 0.0
C39 C 0.34083 0.37845 0.445 0.0
O40 O 0.54518 0.47266 0.15637 0.0
O41 O 0.49487 0.6364 0.13477 0.0
O42 O 0.90289 0.29835 0.92829 0.0
Mn43 Mn 0.02624 0.30968 0.76693 0.0
O44 O 0.80934 0.15662 0.81904 0.0
Mn45 Mn 0.92159 0.09274 0.69462 0.0
O46 O 0.17031 0.30765 0.5949 0.0
O47 O 1.00722 0.47265 0.78734 0.0
Mn48 Mn 0.13089 0.52662 0.69461 0.0
O49 O 0.14961 0.32101 0.92827 0.0
O50 O 0.15726 0.46612 0.49229 0.0
O51 O 0.88218 0.31171 0.59491 0.0
O52 O 0.8952 0.15324 0.4923 0.0
O53 O 0.0576 0.63648 0.80895 0.0
O54 O 0.24315 0.46274 0.81901 0.0
C55 C 0.04939 0.06029 0.87879 0.0
C56 C 0.81671 0.23641 0.91229 0.0
C57 C 0.21157 0.37846 0.49869 0.0
C58 C 1.0031 0.55907 0.87879 0.0
C59 C 0.23579 0.38295 0.91227 0.0
C60 C 0.8409 0.2409 0.49871 0.0
O61 O 0.04527 0.14671 0.78734 0.0
O62 O 0.99489 0.98288 0.80895 0.0
O63 O 0.40289 0.79835 0.92827 0.0
Mn64 Mn 0.52625 0.80968 0.76693 0.0
O65 O 0.30934 0.65662 0.81901 0.0
Mn66 Mn 0.4216 0.59274 0.69461 0.0
O67 O 0.67032 0.80765 0.59491 0.0
O68 O 0.50722 0.97265 0.78734 0.0
Mn69 Mn 0.6309 1.02663 0.69462 0.0
O70 O 0.6496 0.82101 0.92829 0.0
O71 O 0.65729 0.96613 0.4923 0.0
O72 O 0.38219 0.81171 0.5949 0.0
O73 O 0.39523 0.65324 0.49229 0.0
O74 O 0.55761 0.13649 0.80895 0.0
O75 O 0.74315 0.96274 0.81904 0.0
C76 C 0.54939 0.56029 0.87879 0.0
C77 C 0.31671 0.73641 0.91227 0.0
C78 C 0.71159 0.87847 0.49871 0.0
C79 C 0.50311 1.05908 0.87879 0.0
C80 C 0.73578 0.88296 0.91229 0.0
C81 C 0.34092 0.7409 0.49869 0.0
O82 O 0.54527 0.64671 0.78734 0.0
O83 O 0.49489 0.48288 0.80895 0.0
loop_
_geom_bond_atom_site_label_1
_geom_bond_atom_site_label_2
_geom_bond_distance
_geom_bond_site_symmetry_2
_ccdc_geom_bond_type
O0 Mn1 2.163 1_655 S
O0 C14 1.244 1_554 S
Mn1 O0 2.163 1_455 S
Mn1 O4 2.160 . S
Mn1 O5 2.221 . S
Mn1 O7 2.163 . S
Mn1 O9 2.160 1_455 S
Mn1 O19 2.221 1_455 S
O2 Mn3 2.087 1_556 S
O2 C14 1.256 . S
Mn3 O2 2.087 1_554 S
Mn3 O10 2.089 . S
Mn3 O19 2.290 . S
Mn3 O20 2.251 1_565 S
O4 Mn1 2.160 . S
O4 C15 1.239 . S
O5 Mn1 2.221 . S
O5 Mn6 2.290 . S
O5 C16 1.278 . S
Mn6 O5 2.290 . S
Mn6 O8 2.089 . S
Mn6 O11 2.251 . S
Mn6 O12 2.087 1_554 S
O7 Mn1 2.163 . S
O7 C17 1.244 1_554 S
O8 Mn6 2.089 . S
O8 C15 1.256 . S
O9 Mn1 2.160 1_655 S
O9 C18 1.239 . S
O10 Mn3 2.089 . S
O10 C18 1.256 . S
O11 Mn6 2.251 . S
O11 C16 1.241 . S
O12 Mn6 2.087 1_556 S
O12 C17 1.256 . S
C13 O19 1.278 . S
C13 O20 1.241 1_565 S
C14 O0 1.244 1_556 S
C14 O2 1.256 . S
C15 O4 1.239 . S
C15 O8 1.256 . S
C16 O5 1.278 . S
C16 O11 1.241 . S
C17 O7 1.244 1_556 S
C17 O12 1.256 . S
C18 O9 1.239 . S
C18 O10 1.256 . S
O19 Mn1 2.221 1_655 S
O19 Mn3 2.290 . S
O19 C13 1.278 . S
O20 Mn3 2.251 1_545 S
O20 C13 1.241 1_545 S
O21 Mn22 2.163 . S
O21 C35 1.244 1_554 S
Mn22 O21 2.163 . S
Mn22 O25 2.160 . S
Mn22 O26 2.221 . S
Mn22 O28 2.163 . S
Mn22 O30 2.160 . S
Mn22 O40 2.221 . S
O23 Mn24 2.087 1_556 S
O23 C35 1.256 . S
Mn24 O23 2.087 1_554 S
Mn24 O31 2.089 . S
Mn24 O40 2.290 . S
Mn24 O41 2.251 . S
O25 Mn22 2.160 . S
O25 C36 1.239 . S
O26 Mn22 2.221 . S
O26 Mn27 2.290 . S
O26 C37 1.278 . S
Mn27 O26 2.290 . S
Mn27 O29 2.089 . S
Mn27 O32 2.251 1_545 S
Mn27 O33 2.087 1_554 S
O28 Mn22 2.163 . S
O28 C38 1.244 1_554 S
O29 Mn27 2.089 . S
O29 C36 1.256 . S
O30 Mn22 2.160 . S
O30 C39 1.239 . S
O31 Mn24 2.089 . S
O31 C39 1.256 . S
O32 Mn27 2.251 1_565 S
O32 C37 1.241 1_565 S
O33 Mn27 2.087 1_556 S
O33 C38 1.256 . S
C34 O40 1.278 . S
C34 O41 1.241 . S
C35 O21 1.244 1_556 S
C35 O23 1.256 . S
C36 O25 1.239 . S
C36 O29 1.256 . S
C37 O26 1.278 . S
C37 O32 1.241 1_545 S
C38 O28 1.244 1_556 S
C38 O33 1.256 . S
C39 O30 1.239 . S
C39 O31 1.256 . S
O40 Mn22 2.221 . S
O40 Mn24 2.290 . S
O40 C34 1.278 . S
O41 Mn24 2.251 . S
O41 C34 1.241 . S
O42 Mn43 2.163 1_655 S
O42 C56 1.244 1_556 S
Mn43 O42 2.163 1_455 S
Mn43 O46 2.160 . S
Mn43 O47 2.221 . S
Mn43 O49 2.163 . S
Mn43 O51 2.160 1_455 S
Mn43 O61 2.221 1_455 S
O44 Mn45 2.087 1_554 S
O44 C56 1.256 . S
Mn45 O44 2.087 1_556 S
Mn45 O52 2.089 . S
Mn45 O61 2.290 . S
Mn45 O62 2.251 1_545 S
O46 Mn43 2.160 . S
O46 C57 1.239 . S
O47 Mn43 2.221 . S
O47 Mn48 2.290 . S
O47 C58 1.278 . S
Mn48 O47 2.290 . S
Mn48 O50 2.089 . S
Mn48 O53 2.251 . S
Mn48 O54 2.087 1_556 S
O49 Mn43 2.163 . S
O49 C59 1.244 1_556 S
O50 Mn48 2.089 . S
O50 C57 1.256 . S
O51 Mn43 2.160 1_655 S
O51 C60 1.239 . S
O52 Mn45 2.089 . S
O52 C60 1.256 . S
O53 Mn48 2.251 . S
O53 C58 1.241 . S
O54 Mn48 2.087 1_554 S
O54 C59 1.256 . S
C55 O61 1.278 . S
C55 O62 1.241 1_545 S
C56 O42 1.244 1_554 S
C56 O44 1.256 . S
C57 O46 1.239 . S
C57 O50 1.256 . S
C58 O47 1.278 . S
C58 O53 1.241 . S
C59 O49 1.244 1_554 S
C59 O54 1.256 . S
C60 O51 1.239 . S
C60 O52 1.256 . S
O61 Mn43 2.221 1_655 S
O61 Mn45 2.290 . S
O61 C55 1.278 . S
O62 Mn45 2.251 1_565 S
O62 C55 1.241 1_565 S
O63 Mn64 2.163 . S
O63 C77 1.244 1_556 S
Mn64 O63 2.163 . S
Mn64 O67 2.160 . S
Mn64 O68 2.221 . S
Mn64 O70 2.163 . S
Mn64 O72 2.160 . S
Mn64 O82 2.221 . S
O65 Mn66 2.087 1_554 S
O65 C77 1.256 . S
Mn66 O65 2.087 1_556 S
Mn66 O73 2.089 . S
Mn66 O82 2.290 . S
Mn66 O83 2.251 . S
O67 Mn64 2.160 . S
O67 C78 1.239 . S
O68 Mn64 2.221 . S
O68 Mn69 2.290 . S
O68 C79 1.278 . S
Mn69 O68 2.290 . S
Mn69 O71 2.089 . S
Mn69 O74 2.251 1_565 S
Mn69 O75 2.087 1_556 S
O70 Mn64 2.163 . S
O70 C80 1.244 1_556 S
O71 Mn69 2.089 . S
O71 C78 1.256 . S
O72 Mn64 2.160 . S
O72 C81 1.239 . S
O73 Mn66 2.089 . S
O73 C81 1.256 . S
O74 Mn69 2.251 1_545 S
O74 C79 1.241 1_545 S
O75 Mn69 2.087 1_554 S
O75 C80 1.256 . S
C76 O82 1.278 . S
C76 O83 1.241 . S
C77 O63 1.244 1_554 S
C77 O65 1.256 . S
C78 O67 1.239 . S
C78 O71 1.256 . S
C79 O68 1.278 . S
C79 O74 1.241 1_565 S
C80 O70 1.244 1_554 S
C80 O75 1.256 . S
C81 O72 1.239 . S
C81 O73 1.256 . S
O82 Mn64 2.221 . S
O82 Mn66 2.290 . S
O82 C76 1.278 . S
O83 Mn66 2.251 . S
O83 C76 1.241 . S
C58 C16 2.100 1_556 S
C34 C76 2.100 1_554 S
C79 C37 2.100 1_566 S
C13 C55 2.100 1_564 S
C81 C15 1.333 . S
C57 C39 1.333 . S
C60 C36 1.333 . S
C18 C78 1.333 . S
C77 C17 1.422 1_554 S
C59 C35 1.422 1_554 S
C38 C56 1.422 1_556 S
C14 C80 1.422 1_556 S
