# Generated by pormake.
# Topology dmp, (4)-cn, num edge types: 1
# Building blocks:
#     Node 0, Type 0, BuildingBlock: GALJAG_clean_sbu_0, # of connection points: 4
#     Node 1, Type 0, BuildingBlock: GALJAG_clean_sbu_0, # of connection points: 4
#     Node 2, Type 0, BuildingBlock: GALJAG_clean_sbu_0, # of connection points: 4
#     Node 3, Type 0, BuildingBlock: GALJAG_clean_sbu_0, # of connection points: 4
#     Edge 4, Type (0, 0), BuildingBlock: EZIPEK_clean_linker_0, # of connection points: 2
#     Edge 5, Type (0, 0), BuildingBlock: EZIPEK_clean_linker_0, # of connection points: 2
#     Edge 6, Type (0, 0), BuildingBlock: EZIPEK_clean_linker_0, # of connection points: 2
#     Edge 7, Type (0, 0), BuildingBlock: EZIPEK_clean_linker_0, # of connection points: 2
#     Edge 8, Type (0, 0), BuildingBlock: EZIPEK_clean_linker_0, # of connection points: 2
#     Edge 9, Type (0, 0), BuildingBlock: EZIPEK_clean_linker_0, # of connection points: 2
#     Edge 10, Type (0, 0), BuildingBlock: EZIPEK_clean_linker_0, # of connection points: 2
#     Edge 11, Type (0, 0), BuildingBlock: EZIPEK_clean_linker_0, # of connection points: 2
# Relax obj value: 0.059
# Max RMSD: 0.179
# Mean RMSD: 0.179
data_MOF--net-dmp--node1-GALJAG_clean_sbu_0--edge1-EZIPEK_clean_linker_0
_symmetry_space_group_name_H-M    P1
_symmetry_Int_Tables_number       1
_symmetry_cell_setting            triclinic
loop_
_symmetry_equiv_pos_as_xyz
'x, y, z'
_cell_length_a     26.743644
_cell_length_b     15.614198
_cell_length_c     9.1517978
_cell_angle_alpha  89.983857
_cell_angle_beta   90.818224
_cell_angle_gamma 90.02607
loop_
_atom_site_label
_atom_site_type_symbol
_atom_site_fract_x
_atom_site_fract_y
_atom_site_fract_z
_atom_type_partial_charge
In0 In 0.11573 0.24569 0.23683 0.0
O1 O 0.14648 0.32834 0.05138 0.0
O2 O 0.176 0.34532 0.26753 0.0
C3 C 0.06352 0.1253 0.09126 0.0
C4 C 0.04889 0.35388 0.35004 0.0
C5 C 0.17979 0.13879 0.37195 0.0
O6 O 0.09615 0.17086 0.03005 0.0
O7 O 0.05628 0.14209 0.2241 0.0
O8 O 0.14452 0.17393 0.44019 0.0
O9 O 0.18316 0.1595 0.23933 0.0
C10 C 0.17631 0.36812 0.13549 0.0
O11 O 0.07765 0.30911 0.42975 0.0
O12 O 0.05241 0.34161 0.21444 0.0
In13 In 0.37555 0.75477 0.27065 0.0
O14 O 0.34579 0.82989 0.4665 0.0
O15 O 0.31449 0.85357 0.25425 0.0
C16 C 0.43522 0.63765 0.39695 0.0
C17 C 0.43741 0.86683 0.14364 0.0
C18 C 0.31011 0.64312 0.15452 0.0
O19 O 0.40877 0.68806 0.47127 0.0
O20 O 0.43247 0.64759 0.26033 0.0
O21 O 0.34259 0.67964 0.07709 0.0
O22 O 0.30993 0.66481 0.28724 0.0
C23 C 0.31501 0.87167 0.38839 0.0
O24 O 0.40478 0.82568 0.07131 0.0
O25 O 0.44008 0.84916 0.2779 0.0
In26 In 0.87669 0.74373 0.72955 0.0
O27 O 0.89622 0.66951 0.52335 0.0
O28 O 0.93664 0.64269 0.72184 0.0
C29 C 0.81261 0.8626 0.62865 0.0
C30 C 0.81945 0.62966 0.86857 0.0
C31 C 0.94624 0.85438 0.83051 0.0
O32 O 0.84067 0.82186 0.54296 0.0
O33 O 0.81675 0.84277 0.76168 0.0
O34 O 0.91106 0.82721 0.90898 0.0
O35 O 0.94741 0.82275 0.70399 0.0
C36 C 0.92948 0.6255 0.58848 0.0
O37 O 0.85599 0.66565 0.93275 0.0
O38 O 0.81156 0.65254 0.73827 0.0
In39 In 0.61737 0.25169 0.77108 0.0
O40 O 0.64648 0.17604 0.57522 0.0
O41 O 0.68046 0.15675 0.78538 0.0
C42 C 0.55586 0.367 0.64623 0.0
C43 C 0.55729 0.13721 0.89857 0.0
C44 C 0.68401 0.36227 0.88586 0.0
O45 O 0.58599 0.32296 0.57249 0.0
O46 O 0.55578 0.3514 0.78138 0.0
O47 O 0.6533 0.32305 0.96562 0.0
O48 O 0.6814 0.34456 0.75165 0.0
C49 C 0.67876 0.13668 0.65196 0.0
O50 O 0.58477 0.18745 0.97241 0.0
O51 O 0.55902 0.1465 0.76189 0.0
C52 C 0.23491 0.92657 0.48631 0.0
C53 C 0.28464 0.94292 0.44375 0.0
C54 C 0.26706 0.09613 0.42745 0.0
C55 C 0.21548 0.07728 0.43799 0.0
N56 N 0.14943 0.97874 0.49775 0.0
N57 N 0.35098 0.04165 0.39027 0.0
C58 C 0.19918 0.99404 0.47779 0.0
C59 C 0.30189 0.0277 0.42273 0.0
N60 N 0.22215 0.84609 0.53115 0.0
N61 N 0.28211 0.17969 0.42047 0.0
H62 H 0.37761 0.9928 0.39319 0.0
H63 H 0.36516 0.10033 0.35642 0.0
H64 H 0.25673 0.23039 0.42587 0.0
H65 H 0.31932 0.19914 0.42197 0.0
H66 H 0.18739 0.82984 0.57252 0.0
H67 H 0.24819 0.79636 0.53715 0.0
H68 H 0.13404 0.91807 0.51059 0.0
H69 H 0.1228 0.02743 0.49826 0.0
C70 C 0.257 0.42696 0.0482 0.0
C71 C 0.20687 0.44136 0.08862 0.0
C72 C 0.22283 0.5951 0.10951 0.0
C73 C 0.27464 0.57822 0.09801 0.0
N74 N 0.34213 0.48097 0.04569 0.0
N75 N 0.13948 0.53745 0.14436 0.0
C76 C 0.29203 0.49531 0.06022 0.0
C77 C 0.18876 0.52537 0.11239 0.0
N78 N 0.27084 0.34754 1.00083 0.0
N79 N 0.2067 0.67802 0.11785 0.0
H80 H 0.11328 0.48794 0.13919 0.0
H81 H 0.12468 0.59521 0.18031 0.0
H82 H 0.2313 0.72991 0.11389 0.0
H83 H 0.16925 0.696 0.11628 0.0
H84 H 0.30583 0.33345 0.95883 0.0
H85 H 0.24549 0.29685 0.99236 0.0
H86 H 0.35796 0.42044 0.03574 0.0
H87 H 0.36861 0.52992 0.04948 0.0
C88 C 0.76551 0.08974 0.60897 0.0
C89 C 0.71378 0.07292 0.59306 0.0
C90 C 0.73165 0.9227 0.53685 0.0
C91 C 0.78169 0.93641 0.58343 0.0
N92 N 0.84797 0.03182 0.65878 0.0
N93 N 0.6463 0.97603 0.5336 0.0
C94 C 0.79939 0.02006 0.61506 0.0
C95 C 0.69644 0.99054 0.55062 0.0
N96 N 0.7818 0.17256 0.61931 0.0
N97 N 0.71793 0.84442 0.48302 0.0
H98 H 0.61977 0.02475 0.53971 0.0
H99 H 0.63065 0.91552 0.51929 0.0
H100 H 0.74332 0.79401 0.47383 0.0
H101 H 0.683 0.83149 0.43648 0.0
H102 H 0.81935 0.19014 0.61998 0.0
H103 H 0.75729 0.22454 0.61342 0.0
H104 H 0.86197 0.08917 0.70045 0.0
H105 H 0.8739 0.98208 0.65977 0.0
C106 C 0.80729 0.47349 0.9072 0.0
C107 C 0.7908 0.5584 0.93186 0.0
C108 C 0.70635 0.50749 0.98358 0.0
C109 C 0.72149 0.42414 0.94136 0.0
N110 N 0.78722 0.32153 0.90902 0.0
N111 N 0.73085 0.65525 0.03245 0.0
C112 C 0.77257 0.40514 0.91948 0.0
C113 C 0.74228 0.57482 0.98458 0.0
N114 N 0.85525 0.45931 0.86345 0.0
N115 N 0.65725 0.52287 0.01338 0.0
H116 H 0.75715 0.70471 0.03361 0.0
H117 H 0.69724 0.67153 0.08104 0.0
H118 H 0.63073 0.47406 0.01895 0.0
H119 H 0.6423 0.5836 0.02903 0.0
H120 H 0.86831 0.40058 0.82629 0.0
H121 H 0.88197 0.50795 0.86018 0.0
H122 H 0.8243 0.30194 0.90237 0.0
H123 H 0.76201 0.27088 0.91956 0.0
C124 C 0.01159 0.06803 0.88258 0.0
C125 C 0.03773 0.05366 0.01598 0.0
C126 C 0.00838 0.90489 0.01962 0.0
C127 C 0.98298 0.91883 0.8843 0.0
N128 N 0.97458 0.00593 0.66539 0.0
N129 N 0.0729 0.9531 0.18913 0.0
C130 C 0.98928 0.99763 0.80831 0.0
C131 C 0.0395 0.9705 0.0785 0.0
N132 N 0.00543 0.14955 0.83059 0.0
N133 N 0.00339 0.8285 0.09106 0.0
H134 H 0.0981 0.99847 0.22971 0.0
H135 H 0.07942 0.89188 0.23025 0.0
H136 H 0.98592 0.77523 0.04424 0.0
H137 H 0.0151 0.81883 0.19884 0.0
H138 H 0.98167 0.16461 0.74309 0.0
H139 H 0.02004 0.20343 0.88318 0.0
H140 H 0.98344 0.05916 0.6021 0.0
H141 H 0.95815 0.9571 0.6044 0.0
C142 C 0.55041 0.99871 0.03492 0.0
C143 C 0.52659 0.06958 0.96585 0.0
C144 C 0.44428 0.00949 0.02063 0.0
C145 C 0.46805 0.93542 0.07888 0.0
N146 N 0.54281 0.85301 0.1246 0.0
N147 N 0.45154 0.13966 0.87814 0.0
C148 C 0.52092 0.92845 0.08243 0.0
C149 C 0.4737 0.07391 0.95372 0.0
N150 N 0.60123 0.99829 0.05437 0.0
N151 N 0.39388 0.02051 0.03645 0.0
H152 H 0.47141 0.19157 0.83673 0.0
H153 H 0.41377 0.14049 0.849 0.0
H154 H 0.37091 0.97545 0.0861 0.0
H155 H 0.37528 0.0774 0.01202 0.0
H156 H 0.62017 0.95405 0.11979 0.0
H157 H 0.62463 0.04539 0.0124 0.0
H158 H 0.58081 0.8402 0.11505 0.0
H159 H 0.52237 0.79979 0.15824 0.0
C160 C 0.01121 0.56951 0.50398 0.0
C161 C 0.95884 0.55849 0.51547 0.0
C162 C 0.96485 0.41551 0.4065 0.0
C163 C 0.0177 0.42329 0.40914 0.0
N164 N 0.09224 0.50366 0.47171 0.0
N165 N 0.88563 0.46874 0.49515 0.0
C166 C 0.04122 0.49908 0.46155 0.0
C167 C 0.93543 0.48114 0.4703 0.0
N168 N 0.03194 0.64848 0.52812 0.0
N169 N 0.94283 0.34548 0.34301 0.0
H170 H 0.86275 0.51553 0.54045 0.0
H171 H 0.8676 0.41016 0.48095 0.0
H172 H 0.96323 0.29403 0.30222 0.0
H173 H 0.90455 0.34059 0.32239 0.0
H174 H 0.06904 0.66336 0.50633 0.0
H175 H 0.01088 0.70189 0.55725 0.0
H176 H 0.11133 0.55283 0.52532 0.0
H177 H 0.11589 0.4556 0.43451 0.0
C178 C 0.45237 0.4821 0.43642 0.0
C179 C 0.46554 0.56875 0.46394 0.0
C180 C 0.53647 0.52283 0.61696 0.0
C181 C 0.52526 0.43626 0.58119 0.0
N182 N 0.47681 0.33255 0.44462 0.0
N183 N 0.52286 0.6734 0.56326 0.0
C184 C 0.4846 0.41563 0.48654 0.0
C185 C 0.50815 0.58974 0.55053 0.0
N186 N 0.40774 0.46342 0.36866 0.0
N187 N 0.57443 0.541 0.71385 0.0
H188 H 0.50299 0.72411 0.51622 0.0
H189 H 0.55655 0.69265 0.61117 0.0
H190 H 0.59891 0.49465 0.75481 0.0
H191 H 0.5804 0.60128 0.75939 0.0
H192 H 0.39343 0.40171 0.35797 0.0
H193 H 0.38255 0.51044 0.33399 0.0
H194 H 0.45164 0.31457 0.36239 0.0
H195 H 0.49785 0.28143 0.48544 0.0
loop_
_geom_bond_atom_site_label_1
_geom_bond_atom_site_label_2
_geom_bond_distance
_geom_bond_site_symmetry_2
_ccdc_geom_bond_type
In0 O1 2.294 . S
In0 O2 2.326 . S
In0 O6 2.266 . S
In0 O7 2.326 . S
In0 O8 2.266 . S
In0 O9 2.326 . S
In0 O11 2.294 . S
In0 O12 2.326 . S
O1 In0 2.294 . S
O1 C10 1.240 . S
O2 In0 2.326 . S
O2 C10 1.252 . S
C3 O6 1.252 . S
C3 O7 1.260 . S
C4 O11 1.240 . S
C4 O12 1.252 . S
C5 O8 1.252 . S
C5 O9 1.260 . S
O6 In0 2.266 . S
O6 C3 1.252 . S
O7 In0 2.326 . S
O7 C3 1.260 . S
O8 In0 2.266 . S
O8 C5 1.252 . S
O9 In0 2.326 . S
O9 C5 1.260 . S
C10 O1 1.240 . S
C10 O2 1.252 . S
O11 In0 2.294 . S
O11 C4 1.240 . S
O12 In0 2.326 . S
O12 C4 1.252 . S
In13 O14 2.294 . S
In13 O15 2.326 . S
In13 O19 2.266 . S
In13 O20 2.326 . S
In13 O21 2.266 . S
In13 O22 2.326 . S
In13 O24 2.294 . S
In13 O25 2.326 . S
O14 In13 2.294 . S
O14 C23 1.240 . S
O15 In13 2.326 . S
O15 C23 1.252 . S
C16 O19 1.252 . S
C16 O20 1.260 . S
C17 O24 1.240 . S
C17 O25 1.252 . S
C18 O21 1.252 . S
C18 O22 1.260 . S
O19 In13 2.266 . S
O19 C16 1.252 . S
O20 In13 2.326 . S
O20 C16 1.260 . S
O21 In13 2.266 . S
O21 C18 1.252 . S
O22 In13 2.326 . S
O22 C18 1.260 . S
C23 O14 1.240 . S
C23 O15 1.252 . S
O24 In13 2.294 . S
O24 C17 1.240 . S
O25 In13 2.326 . S
O25 C17 1.252 . S
In26 O27 2.294 . S
In26 O28 2.326 . S
In26 O32 2.266 . S
In26 O33 2.326 . S
In26 O34 2.266 . S
In26 O35 2.326 . S
In26 O37 2.294 . S
In26 O38 2.326 . S
O27 In26 2.294 . S
O27 C36 1.240 . S
O28 In26 2.326 . S
O28 C36 1.252 . S
C29 O32 1.252 . S
C29 O33 1.260 . S
C30 O37 1.240 . S
C30 O38 1.252 . S
C31 O34 1.252 . S
C31 O35 1.260 . S
O32 In26 2.266 . S
O32 C29 1.252 . S
O33 In26 2.326 . S
O33 C29 1.260 . S
O34 In26 2.266 . S
O34 C31 1.252 . S
O35 In26 2.326 . S
O35 C31 1.260 . S
C36 O27 1.240 . S
C36 O28 1.252 . S
O37 In26 2.294 . S
O37 C30 1.240 . S
O38 In26 2.326 . S
O38 C30 1.252 . S
In39 O40 2.294 . S
In39 O41 2.326 . S
In39 O45 2.266 . S
In39 O46 2.326 . S
In39 O47 2.266 . S
In39 O48 2.326 . S
In39 O50 2.294 . S
In39 O51 2.326 . S
O40 In39 2.294 . S
O40 C49 1.240 . S
O41 In39 2.326 . S
O41 C49 1.252 . S
C42 O45 1.252 . S
C42 O46 1.260 . S
C43 O50 1.240 . S
C43 O51 1.252 . S
C44 O47 1.252 . S
C44 O48 1.260 . S
O45 In39 2.266 . S
O45 C42 1.252 . S
O46 In39 2.326 . S
O46 C42 1.260 . S
O47 In39 2.266 . S
O47 C44 1.252 . S
O48 In39 2.326 . S
O48 C44 1.260 . S
C49 O40 1.240 . S
C49 O41 1.252 . S
O50 In39 2.294 . S
O50 C43 1.240 . S
O51 In39 2.326 . S
O51 C43 1.252 . S
C52 C53 1.363 . S
C52 C58 1.379 . S
C52 N60 1.356 . S
C53 C52 1.363 . S
C53 C59 1.363 1_565 S
C54 C55 1.363 . S
C54 C59 1.379 . S
C54 N61 1.356 . S
C55 C54 1.363 . S
C55 C58 1.363 1_545 S
N56 C58 1.356 1_545 S
N56 H68 0.984 1_545 S
N56 H69 0.985 . S
N57 C59 1.356 1_565 S
N57 H62 0.984 . S
N57 H63 0.985 1_565 S
C58 C52 1.379 . S
C58 C55 1.363 1_565 S
C58 N56 1.356 1_565 S
C59 C53 1.363 1_545 S
C59 C54 1.379 . S
C59 N57 1.356 1_545 S
N60 C52 1.356 . S
N60 H66 0.984 . S
N60 H67 0.984 . S
N61 C54 1.356 . S
N61 H64 0.984 . S
N61 H65 0.985 . S
H62 N57 0.984 . S
H63 N57 0.985 1_545 S
H64 N61 0.984 . S
H65 N61 0.985 . S
H66 N60 0.984 . S
H67 N60 0.984 . S
H68 N56 0.984 1_565 S
H69 N56 0.985 . S
C70 C71 1.363 . S
C70 C76 1.379 . S
C70 N78 1.353 1_554 S
C71 C70 1.363 . S
C71 C77 1.363 . S
C72 C73 1.363 . S
C72 C77 1.379 . S
C72 N79 1.356 . S
C73 C72 1.363 . S
C73 C76 1.363 . S
N74 C76 1.360 . S
N74 H86 0.979 1_554 S
N74 H87 0.986 . S
N75 C77 1.356 . S
N75 H80 0.984 . S
N75 H81 0.985 . S
C76 C70 1.379 . S
C76 C73 1.363 . S
C76 N74 1.360 . S
C77 C71 1.363 . S
C77 C72 1.379 . S
C77 N75 1.356 . S
N78 C70 1.353 1_556 S
N78 H84 0.990 . S
N78 H85 0.983 1_556 S
N79 C72 1.356 . S
N79 H82 0.984 . S
N79 H83 0.985 . S
H80 N75 0.984 . S
H81 N75 0.985 . S
H82 N79 0.984 . S
H83 N79 0.985 . S
H84 N78 0.990 . S
H85 N78 0.983 1_554 S
H86 N74 0.979 1_556 S
H87 N74 0.986 . S
C88 C89 1.363 . S
C88 C94 1.379 . S
C88 N96 1.356 . S
C89 C88 1.363 . S
C89 C95 1.363 1_545 S
C90 C91 1.363 . S
C90 C95 1.379 . S
C90 N97 1.356 . S
C91 C90 1.363 . S
C91 C94 1.363 1_565 S
N92 C94 1.356 1_565 S
N92 H104 0.984 1_565 S
N92 H105 0.985 . S
N93 C95 1.356 1_545 S
N93 H98 0.984 . S
N93 H99 0.985 1_545 S
C94 C88 1.379 . S
C94 C91 1.363 1_545 S
C94 N92 1.356 1_545 S
C95 C89 1.363 1_565 S
C95 C90 1.379 . S
C95 N93 1.356 1_565 S
N96 C88 1.356 . S
N96 H102 0.984 . S
N96 H103 0.984 . S
N97 C90 1.356 . S
N97 H100 0.984 . S
N97 H101 0.985 . S
H98 N93 0.984 . S
H99 N93 0.985 1_565 S
H100 N97 0.984 . S
H101 N97 0.985 . S
H102 N96 0.984 . S
H103 N96 0.984 . S
H104 N92 0.984 1_545 S
H105 N92 0.985 . S
C106 C107 1.363 . S
C106 C112 1.379 . S
C106 N114 1.356 1_556 S
C107 C106 1.363 . S
C107 C113 1.363 . S
C108 C109 1.363 . S
C108 C113 1.379 . S
C108 N115 1.356 . S
C109 C108 1.363 . S
C109 C112 1.363 . S
N110 C112 1.358 . S
N110 H122 0.983 1_556 S
N110 H123 0.985 . S
N111 C113 1.356 . S
N111 H116 0.984 . S
N111 H117 0.985 . S
C112 C106 1.379 . S
C112 C109 1.363 . S
C112 N110 1.358 . S
C113 C107 1.363 . S
C113 C108 1.379 . S
C113 N111 1.356 . S
N114 C106 1.356 1_554 S
N114 H120 0.984 . S
N114 H121 0.984 1_554 S
N115 C108 1.356 . S
N115 H118 0.984 . S
N115 H119 0.985 . S
H116 N111 0.984 . S
H117 N111 0.985 . S
H118 N115 0.984 . S
H119 N115 0.985 . S
H120 N114 0.984 . S
H121 N114 0.984 1_556 S
H122 N110 0.983 1_554 S
H123 N110 0.985 . S
C124 C125 1.363 1_556 S
C124 C130 1.379 1_445 S
C124 N132 1.356 . S
C125 C124 1.363 1_554 S
C125 C131 1.363 . S
C126 C127 1.363 1_554 S
C126 C131 1.379 1_665 S
C126 N133 1.356 . S
C127 C126 1.363 1_556 S
C127 C130 1.363 . S
N128 C130 1.356 . S
N128 H140 0.984 . S
N128 H141 0.985 . S
N129 C131 1.356 . S
N129 H134 0.984 . S
N129 H135 0.985 . S
C130 C124 1.379 1_665 S
C130 C127 1.363 . S
C130 N128 1.356 . S
C131 C125 1.363 . S
C131 C126 1.379 1_445 S
C131 N129 1.356 . S
N132 C124 1.356 . S
N132 H138 0.984 . S
N132 H139 0.984 . S
N133 C126 1.356 . S
N133 H136 0.984 . S
N133 H137 0.985 . S
H134 N129 0.984 . S
H135 N129 0.985 . S
H136 N133 0.984 . S
H137 N133 0.985 . S
H138 N132 0.984 . S
H139 N132 0.984 . S
H140 N128 0.984 . S
H141 N128 0.985 . S
C142 C143 1.363 1_554 S
C142 C148 1.379 1_545 S
C142 N150 1.356 . S
C143 C142 1.363 1_556 S
C143 C149 1.363 . S
C144 C145 1.363 1_556 S
C144 C149 1.379 1_565 S
C144 N151 1.356 . S
C145 C144 1.363 1_554 S
C145 C148 1.363 . S
N146 C148 1.356 . S
N146 H158 0.984 . S
N146 H159 0.985 . S
N147 C149 1.356 . S
N147 H152 0.984 . S
N147 H153 0.985 . S
C148 C142 1.379 1_565 S
C148 C145 1.363 . S
C148 N146 1.356 . S
C149 C143 1.363 . S
C149 C144 1.379 1_545 S
C149 N147 1.356 . S
N150 C142 1.356 . S
N150 H156 0.984 . S
N150 H157 0.984 . S
N151 C144 1.356 . S
N151 H154 0.984 . S
N151 H155 0.985 . S
H152 N147 0.984 . S
H153 N147 0.985 . S
H154 N151 0.984 . S
H155 N151 0.985 . S
H156 N150 0.984 . S
H157 N150 0.984 . S
H158 N146 0.984 . S
H159 N146 0.985 . S
C160 C161 1.363 1_455 S
C160 C166 1.379 . S
C160 N168 1.356 . S
C161 C160 1.363 1_655 S
C161 C167 1.363 . S
C162 C163 1.363 1_655 S
C162 C167 1.379 . S
C162 N169 1.356 . S
C163 C162 1.363 1_455 S
C163 C166 1.363 . S
N164 C166 1.356 . S
N164 H176 0.984 . S
N164 H177 0.985 . S
N165 C167 1.356 . S
N165 H170 0.984 . S
N165 H171 0.985 . S
C166 C160 1.379 . S
C166 C163 1.363 . S
C166 N164 1.356 . S
C167 C161 1.363 . S
C167 C162 1.379 . S
C167 N165 1.356 . S
N168 C160 1.356 . S
N168 H174 0.984 . S
N168 H175 0.984 1_455 S
N169 C162 1.356 . S
N169 H172 0.984 1_655 S
N169 H173 0.985 . S
H170 N165 0.984 . S
H171 N165 0.985 . S
H172 N169 0.984 1_455 S
H173 N169 0.985 . S
H174 N168 0.984 . S
H175 N168 0.984 1_655 S
H176 N164 0.984 . S
H177 N164 0.985 . S
C178 C179 1.363 . S
C178 C184 1.379 . S
C178 N186 1.356 . S
C179 C178 1.363 . S
C179 C185 1.363 . S
C180 C181 1.363 . S
C180 C185 1.379 . S
C180 N187 1.356 . S
C181 C180 1.363 . S
C181 C184 1.363 . S
N182 C184 1.356 . S
N182 H194 0.984 . S
N182 H195 0.985 . S
N183 C185 1.356 . S
N183 H188 0.984 . S
N183 H189 0.985 . S
C184 C178 1.379 . S
C184 C181 1.363 . S
C184 N182 1.356 . S
C185 C179 1.363 . S
C185 C180 1.379 . S
C185 N183 1.356 . S
N186 C178 1.356 . S
N186 H192 0.984 . S
N186 H193 0.984 . S
N187 C180 1.356 . S
N187 H190 0.984 . S
N187 H191 0.985 . S
H188 N183 0.984 . S
H189 N183 0.985 . S
H190 N187 0.984 . S
H191 N187 0.985 . S
H192 N186 0.984 . S
H193 N186 0.984 . S
H194 N182 0.984 . S
H195 N182 0.985 . S
C53 C23 1.233 . S
C55 C5 1.230 . S
C71 C10 1.233 . S
C73 C18 1.230 . S
C89 C49 1.233 . S
C91 C29 1.230 . S
C107 C30 1.233 . S
C109 C44 1.230 . S
C125 C3 1.556 . S
C127 C31 1.556 . S
C143 C43 1.555 . S
C145 C17 1.555 . S
C161 C36 1.555 . S
C163 C4 1.555 . S
C179 C16 1.556 . S
C181 C42 1.556 . S
