# Generated by pormake.
# Topology npo, (4)-cn, num edge types: 1
# Building blocks:
#     Node 0, Type 0, BuildingBlock: QUQFOY_clean_sbu_1, # of connection points: 4
#     Node 1, Type 0, BuildingBlock: QUQFOY_clean_sbu_1, # of connection points: 4
#     Node 2, Type 0, BuildingBlock: QUQFOY_clean_sbu_1, # of connection points: 4
#     Node 3, Type 0, BuildingBlock: QUQFOY_clean_sbu_1, # of connection points: 4
#     Node 4, Type 0, BuildingBlock: QUQFOY_clean_sbu_1, # of connection points: 4
#     Node 5, Type 0, BuildingBlock: QUQFOY_clean_sbu_1, # of connection points: 4
#     Edge 6, Type (0, 0), BuildingBlock: AJUNOK_clean_linker_0, # of connection points: 2
#     Edge 7, Type (0, 0), BuildingBlock: AJUNOK_clean_linker_0, # of connection points: 2
#     Edge 8, Type (0, 0), BuildingBlock: AJUNOK_clean_linker_0, # of connection points: 2
#     Edge 9, Type (0, 0), BuildingBlock: AJUNOK_clean_linker_0, # of connection points: 2
#     Edge 10, Type (0, 0), BuildingBlock: AJUNOK_clean_linker_0, # of connection points: 2
#     Edge 11, Type (0, 0), BuildingBlock: AJUNOK_clean_linker_0, # of connection points: 2
#     Edge 12, Type (0, 0), BuildingBlock: AJUNOK_clean_linker_0, # of connection points: 2
#     Edge 13, Type (0, 0), BuildingBlock: AJUNOK_clean_linker_0, # of connection points: 2
#     Edge 14, Type (0, 0), BuildingBlock: AJUNOK_clean_linker_0, # of connection points: 2
#     Edge 15, Type (0, 0), BuildingBlock: AJUNOK_clean_linker_0, # of connection points: 2
#     Edge 16, Type (0, 0), BuildingBlock: AJUNOK_clean_linker_0, # of connection points: 2
#     Edge 17, Type (0, 0), BuildingBlock: AJUNOK_clean_linker_0, # of connection points: 2
# Relax obj value: 0.257
# Max RMSD: 0.247
# Mean RMSD: 0.247
data_MOF--net-npo--node1-QUQFOY_clean_sbu_1--edge1-AJUNOK_clean_linker_0
_symmetry_space_group_name_H-M    P1
_symmetry_Int_Tables_number       1
_symmetry_cell_setting            triclinic
loop_
_symmetry_equiv_pos_as_xyz
'x, y, z'
_cell_length_a     33.864131
_cell_length_b     33.841011
_cell_length_c     20.170647
_cell_angle_alpha  89.983935
_cell_angle_beta   90.050197
_cell_angle_gamma 120.27919
loop_
_atom_site_label
_atom_site_type_symbol
_atom_site_fract_x
_atom_site_fract_y
_atom_site_fract_z
_atom_type_partial_charge
O0 O 0.60127 0.1444 0.33452 0.0
Cd1 Cd 0.53175 0.10701 0.34995 0.0
Cd2 Cd 0.52873 0.10703 0.21441 0.0
O3 O 0.59867 0.14509 0.2255 0.0
O4 O 0.52513 0.08988 0.4454 0.0
O5 O 0.49884 0.03904 0.36437 0.0
C6 C 0.50416 0.04762 0.4272 0.0
C7 C 0.50097 0.05111 0.13147 0.0
C8 C 0.62159 0.15705 0.27901 0.0
C9 C 0.48539 0.15329 0.28652 0.0
O10 O 0.49375 0.14129 0.23102 0.0
O11 O 0.49727 0.14234 0.34004 0.0
O12 O 0.5209 0.09402 0.11753 0.0
O13 O 0.49651 0.03973 0.19334 0.0
O14 O 0.43019 0.60851 0.84318 0.0
Cd15 Cd 0.3953 0.53852 0.85529 0.0
Cd16 Cd 0.39921 0.53994 0.71962 0.0
O17 O 0.43366 0.6097 0.73416 0.0
O18 O 0.39996 0.53043 0.95221 0.0
O19 O 0.42794 0.50421 0.87647 0.0
C20 C 0.42144 0.50913 0.93833 0.0
C21 C 0.42936 0.51076 0.64253 0.0
C22 C 0.4421 0.6308 0.7891 0.0
C23 C 0.3059 0.49679 0.7818 0.0
O24 O 0.32911 0.50712 0.72862 0.0
O25 O 0.32593 0.50559 0.83767 0.0
O26 O 0.40932 0.53274 0.62423 0.0
O27 O 0.43234 0.50532 0.70538 0.0
O28 O 0.79945 0.34916 0.2173 0.0
Cd29 Cd 0.83529 0.41898 0.2037 0.0
Cd30 Cd 0.83762 0.42008 0.33795 0.0
O31 O 0.80171 0.35007 0.32634 0.0
O32 O 0.8524 0.42746 0.10823 0.0
O33 O 0.90319 0.45339 0.18937 0.0
C34 C 0.89463 0.44881 0.1265 0.0
C35 C 0.89718 0.45027 0.41515 0.0
C36 C 0.78883 0.32791 0.27222 0.0
C37 C 0.78746 0.46169 0.27219 0.0
O38 O 0.80049 0.4526 0.32624 0.0
O39 O 0.79867 0.45187 0.21714 0.0
O40 O 0.85498 0.42885 0.43338 0.0
O41 O 0.90565 0.45475 0.3523 0.0
O42 O 0.43889 0.81378 0.73067 0.0
Cd43 Cd 0.40615 0.85022 0.71384 0.0
Cd44 Cd 0.40355 0.85079 0.84939 0.0
O45 O 0.4361 0.81355 0.83972 0.0
O46 O 0.4145 0.86335 0.61704 0.0
O47 O 0.44033 0.91757 0.69312 0.0
C48 C 0.43562 0.90628 0.63119 0.0
C49 C 0.43255 0.91011 0.92687 0.0
C50 C 0.44694 0.80156 0.78622 0.0
C51 C 0.31339 0.80314 0.77844 0.0
O52 O 0.33395 0.81527 0.83388 0.0
O53 O 0.33617 0.81434 0.72486 0.0
O54 O 0.4105 0.86784 0.9449 0.0
O55 O 0.43822 0.91876 0.86409 0.0
O56 O 0.49488 0.34279 0.34357 0.0
Cd57 Cd 0.52769 0.41271 0.35576 0.0
Cd58 Cd 0.52327 0.41119 0.22014 0.0
O59 O 0.49043 0.34148 0.23463 0.0
O60 O 0.52277 0.42067 0.45265 0.0
O61 O 0.49323 0.4452 0.3767 0.0
C62 C 0.50017 0.44082 0.43859 0.0
C63 C 0.49197 0.43916 0.14286 0.0
C64 C 0.48309 0.32048 0.28953 0.0
C65 C 0.61691 0.45686 0.28198 0.0
O66 O 0.59345 0.44566 0.22892 0.0
O67 O 0.59705 0.4477 0.33795 0.0
O68 O 0.51273 0.41787 0.1247 0.0
O69 O 0.4888 0.44447 0.20568 0.0
O70 O 0.12691 0.50933 0.8268 0.0
Cd71 Cd 0.09196 0.54398 0.83993 0.0
Cd72 Cd 0.09402 0.54479 0.70267 0.0
O73 O 0.12834 0.50969 0.71763 0.0
O74 O 0.07881 0.53778 0.93684 0.0
O75 O 0.02464 0.51138 0.86072 0.0
C76 C 0.03592 0.51706 0.92267 0.0
C77 C 0.03831 0.51832 0.61952 0.0
C78 C 0.13903 0.49934 0.77271 0.0
C79 C 0.14278 0.63573 0.77243 0.0
O80 O 0.13157 0.61442 0.71755 0.0
O81 O 0.12947 0.61379 0.82667 0.0
O82 O 0.08124 0.53884 0.60564 0.0
O83 O 0.02685 0.51263 0.68139 0.0
C84 C 0.46908 0.20878 0.22865 0.0
C85 C 0.47004 0.18738 0.28802 0.0
C86 C 0.46856 0.24987 0.22939 0.0
C87 C 0.46896 0.27118 0.28952 0.0
H88 H 0.47248 0.19585 0.18116 0.0
H89 H 0.47157 0.26672 0.18244 0.0
S90 S 0.45768 0.22211 0.45786 0.0
N91 N 0.46118 0.18533 0.40798 0.0
N92 N 0.46019 0.26261 0.40936 0.0
C93 C 0.46371 0.24702 0.34882 0.0
C94 C 0.46424 0.20509 0.34806 0.0
C95 C 0.23795 0.48584 0.7177 0.0
C96 C 0.25669 0.48271 0.77847 0.0
C97 C 0.19693 0.48642 0.71545 0.0
C98 C 0.17305 0.48391 0.77388 0.0
H99 H 0.25676 0.4916 0.67189 0.0
H100 H 0.18603 0.49264 0.66802 0.0
S101 S 0.20054 0.46157 0.94308 0.0
N102 N 0.24307 0.46692 0.8966 0.0
N103 N 0.16592 0.46802 0.89236 0.0
C104 C 0.18821 0.47461 0.83376 0.0
C105 C 0.23006 0.47401 0.83606 0.0
C106 C 0.69263 0.21573 0.33611 0.0
C107 C 0.67077 0.19271 0.27724 0.0
C108 C 0.73367 0.25768 0.33441 0.0
C109 C 0.75447 0.27827 0.27379 0.0
H110 H 0.67626 0.20326 0.38374 0.0
H111 H 0.74708 0.27562 0.38084 0.0
S112 S 0.71803 0.22554 0.10707 0.0
N113 N 0.67808 0.18877 0.15769 0.0
N114 N 0.75526 0.2677 0.1545 0.0
C115 C 0.73615 0.25276 0.21526 0.0
C116 C 0.69428 0.20994 0.21699 0.0
C117 C 0.45614 0.74285 0.84833 0.0
C118 C 0.46047 0.76611 0.78846 0.0
C119 C 0.45486 0.70087 0.84901 0.0
C120 C 0.45788 0.68048 0.78984 0.0
H121 H 0.44995 0.75513 0.89453 0.0
H122 H 0.44778 0.68274 0.89572 0.0
S123 S 0.48328 0.73396 0.62286 0.0
N124 N 0.47789 0.77054 0.67067 0.0
N125 N 0.47548 0.69156 0.67193 0.0
C126 C 0.46835 0.70626 0.73101 0.0
C127 C 0.46965 0.74911 0.73032 0.0
C128 C 0.68552 0.47018 0.21756 0.0
C129 C 0.6665 0.47264 0.2784 0.0
C130 C 0.72746 0.47146 0.21513 0.0
C131 C 0.75202 0.47523 0.27343 0.0
H132 H 0.66636 0.46354 0.17186 0.0
H133 H 0.73867 0.4657 0.16768 0.0
S134 S 0.72365 0.49641 0.44266 0.0
N135 N 0.68022 0.48909 0.39639 0.0
N136 N 0.7591 0.49149 0.3918 0.0
C137 C 0.73636 0.48383 0.33334 0.0
C138 C 0.69356 0.48253 0.33583 0.0
C139 C 0.24159 0.74638 0.83583 0.0
C140 C 0.26378 0.76882 0.77686 0.0
C141 C 0.19969 0.70528 0.83434 0.0
C142 C 0.17833 0.685 0.77382 0.0
H143 H 0.25826 0.75851 0.8834 0.0
H144 H 0.18597 0.68762 0.88085 0.0
S145 S 0.21569 0.73696 0.60688 0.0
N146 N 0.25644 0.77291 0.65731 0.0
N147 N 0.17764 0.6956 0.6545 0.0
C148 C 0.19714 0.71016 0.71518 0.0
C149 C 0.23989 0.7521 0.71671 0.0
C150 C 0.4447 0.93559 0.04525 0.0
C151 C 0.45051 0.94705 0.9774 0.0
C152 C 0.46108 0.96938 0.0945 0.0
C153 C 0.48393 0.01612 0.07808 0.0
H154 H 0.42734 0.90012 0.06078 0.0
H155 H 0.45569 0.95861 0.14589 0.0
S156 S 0.50809 0.06458 0.90763 0.0
N157 N 0.48081 0.00867 0.89635 0.0
N158 N 0.51159 0.07221 0.9887 0.0
C159 C 0.49001 0.02817 1.01036 0.0
C160 C 0.47333 -0.00633 0.96014 0.0
C161 C 0.45923 0.4813 0.47522 0.0
C162 C 0.48271 0.45827 0.49186 0.0
C163 C 0.44229 0.49808 0.52431 0.0
C164 C 0.44801 0.49251 0.59221 0.0
H165 H 0.45382 0.48652 0.42378 0.0
H166 H 0.42446 0.51553 0.50859 0.0
S167 S 0.50709 0.43471 0.66255 0.0
N168 N 0.51091 0.43078 0.58151 0.0
N169 N 0.47899 0.4623 0.67357 0.0
C170 C 0.47144 0.46956 0.6097 0.0
C171 C 0.48879 0.45247 0.55964 0.0
C172 C 0.95417 0.47631 0.95924 0.0
C173 C 0.00086 0.50036 0.97588 0.0
C174 C 0.92031 0.45998 1.0083 0.0
C175 C 0.93164 0.467 0.07617 0.0
H176 H 0.94351 0.46985 0.90783 0.0
H177 H 0.88489 0.44157 0.9926 0.0
S178 S 0.04898 0.52846 0.14649 0.0
N179 N 0.05676 0.53078 0.0655 0.0
N180 N -0.00693 0.50006 0.15749 0.0
C181 C -0.02179 0.49114 0.09365 0.0
C182 C 0.01278 0.50781 0.04363 0.0
C183 C 0.49145 0.02193 0.54546 0.0
C184 C 0.48675 0.01062 0.47758 0.0
C185 C 0.47509 -0.01194 0.59458 0.0
C186 C 0.45334 0.94139 0.57798 0.0
H187 H 0.50776 0.05734 0.56113 0.0
H188 H 0.47942 -0.0013 0.64599 0.0
S189 S 0.43311 0.89336 0.40738 0.0
N190 N 0.45922 0.94925 0.39631 0.0
N191 N 0.42849 0.88555 0.4884 0.0
C192 C 0.44865 0.9295 0.51023 0.0
C193 C 0.46532 0.96408 0.46014 0.0
C194 C 0.46091 0.46724 0.97532 0.0
C195 C 0.4384 0.49125 0.99175 0.0
C196 C 0.47779 0.45046 1.02456 0.0
C197 C 0.47295 0.45698 0.0924 0.0
H198 H 0.46572 0.46136 0.92394 0.0
H199 H 0.49495 0.43232 1.009 0.0
S200 S 0.41638 0.51736 0.1622 0.0
N201 N 0.41189 0.52052 0.08114 0.0
N202 N 0.44368 0.48898 0.17347 0.0
C203 C 0.45033 0.48076 0.10968 0.0
C204 C 0.43306 0.49787 0.05947 0.0
C205 C 0.95664 0.47815 0.58258 0.0
C206 C 0.00334 0.50179 0.56612 0.0
C207 C 0.92282 0.46188 0.5334 0.0
C208 C 0.9342 0.46854 0.46555 0.0
H209 H 0.94592 0.47196 0.63395 0.0
H210 H 0.88739 0.44379 0.54899 0.0
S211 S 0.05158 0.52888 0.39564 0.0
N212 N 0.05931 0.53147 0.47668 0.0
N213 N -0.00433 0.50085 0.38443 0.0
C214 C -0.01923 0.49231 0.44822 0.0
C215 C 0.01531 0.50892 0.4984 0.0
loop_
_geom_bond_atom_site_label_1
_geom_bond_atom_site_label_2
_geom_bond_distance
_geom_bond_site_symmetry_2
_ccdc_geom_bond_type
O0 Cd1 2.223 . S
O0 C8 1.315 . S
Cd1 O0 2.223 . S
Cd1 O4 2.297 . S
Cd1 O5 2.439 . S
Cd1 O11 2.240 . S
Cd2 O3 2.240 . S
Cd2 O10 2.223 . S
Cd2 O12 2.297 . S
Cd2 O13 2.439 . S
O3 Cd2 2.240 . S
O3 C8 1.279 . S
O4 Cd1 2.297 . S
O4 C6 1.247 . S
O5 Cd1 2.439 . S
O5 C6 1.208 . S
C6 O4 1.247 . S
C6 O5 1.208 . S
C7 O12 1.247 . S
C7 O13 1.208 . S
C8 O0 1.315 . S
C8 O3 1.279 . S
C9 O10 1.315 . S
C9 O11 1.279 . S
O10 Cd2 2.223 . S
O10 C9 1.315 . S
O11 Cd1 2.240 . S
O11 C9 1.279 . S
O12 Cd2 2.297 . S
O12 C7 1.247 . S
O13 Cd2 2.439 . S
O13 C7 1.208 . S
O14 Cd15 2.223 . S
O14 C22 1.315 . S
Cd15 O14 2.223 . S
Cd15 O18 2.297 . S
Cd15 O19 2.439 . S
Cd15 O25 2.240 . S
Cd16 O17 2.240 . S
Cd16 O24 2.223 . S
Cd16 O26 2.297 . S
Cd16 O27 2.439 . S
O17 Cd16 2.240 . S
O17 C22 1.279 . S
O18 Cd15 2.297 . S
O18 C20 1.247 . S
O19 Cd15 2.439 . S
O19 C20 1.208 . S
C20 O18 1.247 . S
C20 O19 1.208 . S
C21 O26 1.247 . S
C21 O27 1.208 . S
C22 O14 1.315 . S
C22 O17 1.279 . S
C23 O24 1.315 . S
C23 O25 1.279 . S
O24 Cd16 2.223 . S
O24 C23 1.315 . S
O25 Cd15 2.240 . S
O25 C23 1.279 . S
O26 Cd16 2.297 . S
O26 C21 1.247 . S
O27 Cd16 2.439 . S
O27 C21 1.208 . S
O28 Cd29 2.223 . S
O28 C36 1.315 . S
Cd29 O28 2.223 . S
Cd29 O32 2.297 . S
Cd29 O33 2.439 . S
Cd29 O39 2.240 . S
Cd30 O31 2.240 . S
Cd30 O38 2.223 . S
Cd30 O40 2.297 . S
Cd30 O41 2.439 . S
O31 Cd30 2.240 . S
O31 C36 1.279 . S
O32 Cd29 2.297 . S
O32 C34 1.247 . S
O33 Cd29 2.439 . S
O33 C34 1.208 . S
C34 O32 1.247 . S
C34 O33 1.208 . S
C35 O40 1.247 . S
C35 O41 1.208 . S
C36 O28 1.315 . S
C36 O31 1.279 . S
C37 O38 1.315 . S
C37 O39 1.279 . S
O38 Cd30 2.223 . S
O38 C37 1.315 . S
O39 Cd29 2.240 . S
O39 C37 1.279 . S
O40 Cd30 2.297 . S
O40 C35 1.247 . S
O41 Cd30 2.439 . S
O41 C35 1.208 . S
O42 Cd43 2.223 . S
O42 C50 1.315 . S
Cd43 O42 2.223 . S
Cd43 O46 2.297 . S
Cd43 O47 2.439 . S
Cd43 O53 2.240 . S
Cd44 O45 2.240 . S
Cd44 O52 2.223 . S
Cd44 O54 2.297 . S
Cd44 O55 2.439 . S
O45 Cd44 2.240 . S
O45 C50 1.279 . S
O46 Cd43 2.297 . S
O46 C48 1.247 . S
O47 Cd43 2.439 . S
O47 C48 1.208 . S
C48 O46 1.247 . S
C48 O47 1.208 . S
C49 O54 1.247 . S
C49 O55 1.208 . S
C50 O42 1.315 . S
C50 O45 1.279 . S
C51 O52 1.315 . S
C51 O53 1.279 . S
O52 Cd44 2.223 . S
O52 C51 1.315 . S
O53 Cd43 2.240 . S
O53 C51 1.279 . S
O54 Cd44 2.297 . S
O54 C49 1.247 . S
O55 Cd44 2.439 . S
O55 C49 1.208 . S
O56 Cd57 2.223 . S
O56 C64 1.315 . S
Cd57 O56 2.223 . S
Cd57 O60 2.297 . S
Cd57 O61 2.439 . S
Cd57 O67 2.240 . S
Cd58 O59 2.240 . S
Cd58 O66 2.223 . S
Cd58 O68 2.297 . S
Cd58 O69 2.439 . S
O59 Cd58 2.240 . S
O59 C64 1.279 . S
O60 Cd57 2.297 . S
O60 C62 1.247 . S
O61 Cd57 2.439 . S
O61 C62 1.208 . S
C62 O60 1.247 . S
C62 O61 1.208 . S
C63 O68 1.247 . S
C63 O69 1.208 . S
C64 O56 1.315 . S
C64 O59 1.279 . S
C65 O66 1.315 . S
C65 O67 1.279 . S
O66 Cd58 2.223 . S
O66 C65 1.315 . S
O67 Cd57 2.240 . S
O67 C65 1.279 . S
O68 Cd58 2.297 . S
O68 C63 1.247 . S
O69 Cd58 2.439 . S
O69 C63 1.208 . S
O70 Cd71 2.223 . S
O70 C78 1.315 . S
Cd71 O70 2.223 . S
Cd71 O74 2.297 . S
Cd71 O75 2.439 . S
Cd71 O81 2.240 . S
Cd72 O73 2.240 . S
Cd72 O80 2.223 . S
Cd72 O82 2.297 . S
Cd72 O83 2.439 . S
O73 Cd72 2.240 . S
O73 C78 1.279 . S
O74 Cd71 2.297 . S
O74 C76 1.247 . S
O75 Cd71 2.439 . S
O75 C76 1.208 . S
C76 O74 1.247 . S
C76 O75 1.208 . S
C77 O82 1.247 . S
C77 O83 1.208 . S
C78 O70 1.315 . S
C78 O73 1.279 . S
C79 O80 1.315 . S
C79 O81 1.279 . S
O80 Cd72 2.223 . S
O80 C79 1.315 . S
O81 Cd71 2.240 . S
O81 C79 1.279 . S
O82 Cd72 2.297 . S
O82 C77 1.247 . S
O83 Cd72 2.439 . S
O83 C77 1.208 . S
C84 C85 1.369 . S
C84 C86 1.419 . S
C84 H88 0.930 . S
C85 C84 1.369 . S
C85 C94 1.429 . S
C86 C84 1.419 . S
C86 C87 1.363 . S
C86 H89 0.929 . S
C87 C86 1.363 . S
C87 C93 1.428 . S
H88 C84 0.930 . S
H89 C86 0.929 . S
S90 N91 1.613 . S
S90 N92 1.610 . S
N91 S90 1.613 . S
N91 C94 1.350 . S
N92 S90 1.610 . S
N92 C93 1.351 . S
C93 C87 1.428 . S
C93 N92 1.351 . S
C93 C94 1.434 . S
C94 C85 1.429 . S
C94 N91 1.350 . S
C94 C93 1.434 . S
C95 C96 1.369 . S
C95 C97 1.419 . S
C95 H99 0.930 . S
C96 C95 1.369 . S
C96 C105 1.429 . S
C97 C95 1.419 . S
C97 C98 1.363 . S
C97 H100 0.929 . S
C98 C97 1.363 . S
C98 C104 1.428 . S
H99 C95 0.930 . S
H100 C97 0.929 . S
S101 N102 1.613 . S
S101 N103 1.610 . S
N102 S101 1.613 . S
N102 C105 1.350 . S
N103 S101 1.610 . S
N103 C104 1.351 . S
C104 C98 1.428 . S
C104 N103 1.351 . S
C104 C105 1.434 . S
C105 C96 1.429 . S
C105 N102 1.350 . S
C105 C104 1.434 . S
C106 C107 1.369 . S
C106 C108 1.419 . S
C106 H110 0.930 . S
C107 C106 1.369 . S
C107 C116 1.429 . S
C108 C106 1.419 . S
C108 C109 1.363 . S
C108 H111 0.929 . S
C109 C108 1.363 . S
C109 C115 1.428 . S
H110 C106 0.930 . S
H111 C108 0.929 . S
S112 N113 1.613 . S
S112 N114 1.610 . S
N113 S112 1.613 . S
N113 C116 1.350 . S
N114 S112 1.610 . S
N114 C115 1.351 . S
C115 C109 1.428 . S
C115 N114 1.351 . S
C115 C116 1.434 . S
C116 C107 1.429 . S
C116 N113 1.350 . S
C116 C115 1.434 . S
C117 C118 1.369 . S
C117 C119 1.419 . S
C117 H121 0.930 . S
C118 C117 1.369 . S
C118 C127 1.429 . S
C119 C117 1.419 . S
C119 C120 1.363 . S
C119 H122 0.929 . S
C120 C119 1.363 . S
C120 C126 1.428 . S
H121 C117 0.930 . S
H122 C119 0.929 . S
S123 N124 1.613 . S
S123 N125 1.610 . S
N124 S123 1.613 . S
N124 C127 1.350 . S
N125 S123 1.610 . S
N125 C126 1.351 . S
C126 C120 1.428 . S
C126 N125 1.351 . S
C126 C127 1.434 . S
C127 C118 1.429 . S
C127 N124 1.350 . S
C127 C126 1.434 . S
C128 C129 1.369 . S
C128 C130 1.419 . S
C128 H132 0.930 . S
C129 C128 1.369 . S
C129 C138 1.429 . S
C130 C128 1.419 . S
C130 C131 1.363 . S
C130 H133 0.929 . S
C131 C130 1.363 . S
C131 C137 1.428 . S
H132 C128 0.930 . S
H133 C130 0.929 . S
S134 N135 1.613 . S
S134 N136 1.610 . S
N135 S134 1.613 . S
N135 C138 1.350 . S
N136 S134 1.610 . S
N136 C137 1.351 . S
C137 C131 1.428 . S
C137 N136 1.351 . S
C137 C138 1.434 . S
C138 C129 1.429 . S
C138 N135 1.350 . S
C138 C137 1.434 . S
C139 C140 1.369 . S
C139 C141 1.419 . S
C139 H143 0.930 . S
C140 C139 1.369 . S
C140 C149 1.429 . S
C141 C139 1.419 . S
C141 C142 1.363 . S
C141 H144 0.929 . S
C142 C141 1.363 . S
C142 C148 1.428 . S
H143 C139 0.930 . S
H144 C141 0.929 . S
S145 N146 1.613 . S
S145 N147 1.610 . S
N146 S145 1.613 . S
N146 C149 1.350 . S
N147 S145 1.610 . S
N147 C148 1.351 . S
C148 C142 1.428 . S
C148 N147 1.351 . S
C148 C149 1.434 . S
C149 C140 1.429 . S
C149 N146 1.350 . S
C149 C148 1.434 . S
C150 C151 1.369 . S
C150 C152 1.419 1_556 S
C150 H154 0.930 . S
C151 C150 1.369 . S
C151 C160 1.429 1_565 S
C152 C150 1.419 1_554 S
C152 C153 1.363 1_565 S
C152 H155 0.929 . S
C153 C152 1.363 1_545 S
C153 C159 1.428 . S
H154 C150 0.930 . S
H155 C152 0.929 . S
S156 N157 1.613 . S
S156 N158 1.609 1_556 S
N157 S156 1.613 . S
N157 C160 1.350 . S
N158 S156 1.609 1_554 S
N158 C159 1.351 . S
C159 C153 1.428 . S
C159 N158 1.351 . S
C159 C160 1.434 1_554 S
C160 C151 1.429 1_545 S
C160 N157 1.350 . S
C160 C159 1.434 1_556 S
C161 C162 1.369 . S
C161 C163 1.419 . S
C161 H165 0.930 . S
C162 C161 1.369 . S
C162 C171 1.429 . S
C163 C161 1.419 . S
C163 C164 1.363 . S
C163 H166 0.929 . S
C164 C163 1.363 . S
C164 C170 1.428 . S
H165 C161 0.930 . S
H166 C163 0.929 . S
S167 N168 1.613 . S
S167 N169 1.610 . S
N168 S167 1.613 . S
N168 C171 1.350 . S
N169 S167 1.610 . S
N169 C170 1.351 . S
C170 C164 1.428 . S
C170 N169 1.351 . S
C170 C171 1.434 . S
C171 C162 1.429 . S
C171 N168 1.350 . S
C171 C170 1.434 . S
C172 C173 1.369 . S
C172 C174 1.419 1_456 S
C172 H176 0.930 . S
C173 C172 1.369 . S
C173 C182 1.429 . S
C174 C172 1.419 1_654 S
C174 C175 1.363 . S
C174 H177 0.929 . S
C175 C174 1.363 . S
C175 C181 1.428 . S
H176 C172 0.930 . S
H177 C174 0.929 . S
S178 N179 1.613 1_554 S
S178 N180 1.610 1_455 S
N179 S178 1.613 1_556 S
N179 C182 1.350 . S
N180 S178 1.610 1_655 S
N180 C181 1.351 . S
C181 C175 1.428 . S
C181 N180 1.351 . S
C181 C182 1.434 1_654 S
C182 C173 1.429 . S
C182 N179 1.350 . S
C182 C181 1.434 1_456 S
C183 C184 1.369 . S
C183 C185 1.419 . S
C183 H187 0.930 . S
C184 C183 1.369 . S
C184 C193 1.429 1_545 S
C185 C183 1.419 . S
C185 C186 1.363 1_545 S
C185 H188 0.929 . S
C186 C185 1.363 1_565 S
C186 C192 1.428 . S
H187 C183 0.930 . S
H188 C185 0.929 . S
S189 N190 1.613 . S
S189 N191 1.610 . S
N190 S189 1.613 . S
N190 C193 1.350 . S
N191 S189 1.610 . S
N191 C192 1.351 . S
C192 C186 1.428 . S
C192 N191 1.351 . S
C192 C193 1.434 . S
C193 C184 1.429 1_565 S
C193 N190 1.350 . S
C193 C192 1.434 . S
C194 C195 1.369 . S
C194 C196 1.419 1_556 S
C194 H198 0.930 . S
C195 C194 1.369 . S
C195 C204 1.429 . S
C196 C194 1.419 1_554 S
C196 C197 1.363 . S
C196 H199 0.929 . S
C197 C196 1.363 . S
C197 C203 1.428 . S
H198 C194 0.930 . S
H199 C196 0.929 . S
S200 N201 1.613 1_554 S
S200 N202 1.610 . S
N201 S200 1.613 1_556 S
N201 C204 1.350 . S
N202 S200 1.610 . S
N202 C203 1.351 . S
C203 C197 1.428 . S
C203 N202 1.351 . S
C203 C204 1.434 1_554 S
C204 C195 1.429 . S
C204 N201 1.350 . S
C204 C203 1.434 1_556 S
C205 C206 1.369 1_655 S
C205 C207 1.419 . S
C205 H209 0.930 . S
C206 C205 1.369 1_455 S
C206 C215 1.429 . S
C207 C205 1.419 . S
C207 C208 1.363 . S
C207 H210 0.929 . S
C208 C207 1.363 . S
C208 C214 1.428 1_655 S
H209 C205 0.930 . S
H210 C207 0.929 . S
S211 N212 1.613 . S
S211 N213 1.610 . S
N212 S211 1.613 . S
N212 C215 1.350 . S
N213 S211 1.610 . S
N213 C214 1.351 . S
C214 C208 1.428 1_455 S
C214 N213 1.351 . S
C214 C215 1.434 . S
C215 C206 1.429 . S
C215 N212 1.350 . S
C215 C214 1.434 . S
C85 C9 1.478 . S
C87 C64 1.483 . S
C96 C23 1.482 . S
C98 C78 1.484 . S
C107 C8 1.478 . S
C109 C36 1.481 . S
C118 C50 1.485 . S
C120 C22 1.482 . S
C129 C65 1.483 . S
C131 C37 1.484 . S
C140 C51 1.481 . S
C142 C79 1.484 . S
C151 C49 1.461 . S
C153 C7 1.457 . S
C162 C62 1.459 . S
C164 C21 1.464 . S
C173 C76 1.456 . S
C175 C34 1.460 . S
C184 C6 1.465 . S
C186 C48 1.459 . S
C195 C20 1.464 . S
C197 C63 1.464 . S
C206 C77 1.462 . S
C208 C35 1.464 . S
