# Generated by pormake.
# Topology pcu, (6)-cn, num edge types: 1
# Building blocks:
#     Node 0, Type 0, BuildingBlock: MIDCAF_clean_sbu_0, # of connection points: 6
#     Edge 1, Type (0, 0), BuildingBlock: MIFKUJ_clean_linker_0, # of connection points: 2
#     Edge 2, Type (0, 0), BuildingBlock: MIFKUJ_clean_linker_0, # of connection points: 2
#     Edge 3, Type (0, 0), BuildingBlock: MIFKUJ_clean_linker_0, # of connection points: 2
# Relax obj value: 0.148
# Max RMSD: 0.201
# Mean RMSD: 0.201
data_MOF--net-pcu--node1-MIDCAF_clean_sbu_0--edge1-MIFKUJ_clean_linker_0
_symmetry_space_group_name_H-M    P1
_symmetry_Int_Tables_number       1
_symmetry_cell_setting            triclinic
loop_
_symmetry_equiv_pos_as_xyz
'x, y, z'
_cell_length_a     19.370875
_cell_length_b     19.414325
_cell_length_c     19.39021
_cell_angle_alpha  97.045368
_cell_angle_beta   98.483325
_cell_angle_gamma 98.442944
loop_
_atom_site_label
_atom_site_type_symbol
_atom_site_fract_x
_atom_site_fract_y
_atom_site_fract_z
_atom_type_partial_charge
Zn0 Zn 0.92355 0.93256 0.93121 0.0
Zn1 Zn 0.1041 0.09707 0.10982 0.0
Zn2 Zn 1.01616 1.01439 1.01885 0.0
C3 C 0.16766 0.08682 0.99188 0.0
C4 C 0.08899 0.97762 0.16909 0.0
O5 O 0.92161 0.06782 0.99529 0.0
O6 O 0.85835 0.99682 0.9029 0.0
C7 C 0.04123 0.94107 0.8678 0.0
O8 O 0.11381 0.03711 0.97186 0.0
O9 O 0.1726 0.12717 0.04919 0.0
O10 O 0.13301 0.03369 0.17602 0.0
O11 O 0.03844 0.96259 0.11543 0.0
O12 O 0.98203 0.90203 0.86218 0.0
O13 O 0.0628 0.98954 0.92166 0.0
O14 O 0.98701 0.91649 0.06468 0.0
O15 O 0.89129 0.86284 0.99041 0.0
C16 C 0.93459 0.865 0.04628 0.0
O17 O 0.97565 0.11432 0.04424 0.0
O18 O 0.04701 0.16706 0.14198 0.0
C19 C 0.86716 0.05308 0.94558 0.0
C20 C 0.99339 0.16549 0.09598 0.0
H21 H 0.97856 0.90726 0.22016 0.0
H22 H 0.98418 0.87738 0.33989 0.0
H23 H 0.21183 0.9325 0.37471 0.0
H24 H 0.20657 0.96015 0.25501 0.0
H25 H 0.1728 0.83515 0.45505 0.0
H26 H 0.1133 0.05858 0.40415 0.0
H27 H 0.04256 0.1342 0.34063 0.0
H28 H 0.8568 0.04112 0.41367 0.0
H29 H 0.92631 0.96409 0.47669 0.0
H30 H 0.11681 0.04667 0.81456 0.0
H31 H 0.14613 0.03881 0.69523 0.0
H32 H 0.07405 0.81436 0.66243 0.0
H33 H 0.04558 0.82196 0.78116 0.0
H34 H 0.04408 0.99897 0.58217 0.0
H35 H 0.14954 0.7346 0.53185 0.0
H36 H 0.22818 0.66585 0.59562 0.0
H37 H 0.33704 0.85433 0.73054 0.0
H38 H 0.25986 0.92441 0.6669 0.0
C39 C 0.02987 0.90959 0.25214 0.0
C40 C 0.09207 0.93695 0.22875 0.0
C41 C 0.03306 0.89319 0.32083 0.0
C42 C 0.09836 0.90486 0.36694 0.0
C43 C 0.16086 0.92372 0.34047 0.0
C44 C 0.15773 0.93974 0.272 0.0
C45 C 0.10137 0.90981 0.44448 0.0
C46 C 0.1441 0.87032 0.48291 0.0
C47 C 0.06636 0.95798 0.48118 0.0
C48 C 0.02481 1.00519 0.44455 0.0
C49 C 0.0573 0.05405 0.40637 0.0
C50 C 0.01744 0.09712 0.37045 0.0
C51 C 0.9452 0.09236 0.37299 0.0
C52 C 0.91273 0.04466 0.41166 0.0
C53 C 0.95232 1.00128 0.44748 0.0
C54 C 0.11016 0.9954 0.78292 0.0
C55 C 0.0788 0.93496 0.80693 0.0
C56 C 0.12617 0.99099 0.7145 0.0
C57 C 0.11183 0.92602 0.66964 0.0
C58 C 0.08618 0.86493 0.69602 0.0
C59 C 0.06984 0.86938 0.76396 0.0
C60 C 0.11408 0.92288 0.59303 0.0
C61 C 0.07248 0.96323 0.55462 0.0
C62 C 0.15103 0.87629 0.5568 0.0
C63 C 0.19836 0.83468 0.59491 0.0
C64 C 0.19045 0.76147 0.57488 0.0
C65 C 0.23477 0.72223 0.61106 0.0
C66 C 0.28744 0.75566 0.66722 0.0
C67 C 0.29606 0.82845 0.68719 0.0
C68 C 0.25194 0.86794 0.65114 0.0
H69 H 0.32165 0.72518 0.69519 0.0
H70 H 0.91442 0.12573 0.34512 0.0
H71 H 0.2206 0.98199 0.91892 0.0
H72 H 0.34115 0.99148 0.89159 0.0
H73 H 0.37543 0.21577 0.95948 0.0
H74 H 0.25539 0.2067 0.98508 0.0
H75 H 0.44955 0.18842 0.85874 0.0
H76 H 0.41301 0.10338 0.07607 0.0
H77 H 0.3574 0.02251 0.14844 0.0
H78 H 0.43237 0.84991 0.03891 0.0
H79 H 0.4875 0.92967 0.9651 0.0
H80 H 0.8198 0.12563 0.0548 0.0
H81 H 0.70086 0.15622 0.05012 0.0
H82 H 0.661 0.0981 0.82419 0.0
H83 H 0.77934 0.06908 0.82849 0.0
H84 H 0.59032 0.04825 1.00437 0.0
H85 H 0.57118 0.15831 0.75671 0.0
H86 H 0.61777 0.25538 0.69604 0.0
H87 H 0.65038 0.39942 0.8891 0.0
H88 H 0.60575 0.3026 0.95105 0.0
C89 C 0.25292 0.03355 0.92508 0.0
C90 C 0.2291 0.09351 0.95485 0.0
C91 C 0.32202 0.03889 0.91022 0.0
C92 C 0.36796 0.10414 0.92536 0.0
C93 C 0.34134 0.16484 0.94788 0.0
C94 C 0.27265 0.15955 0.96262 0.0
C95 C 0.44546 0.10882 0.92699 0.0
C96 C 0.48018 0.15721 0.89005 0.0
C97 C 0.48609 0.07016 0.96983 0.0
C98 C 0.45368 0.02229 1.01461 0.0
C99 C 0.41723 0.04809 0.06715 0.0
C100 C 0.38583 1.00248 0.10842 0.0
C101 C 0.39118 0.93108 0.09815 0.0
C102 C 0.42814 0.9052 0.0467 0.0
C103 C 0.45947 0.95057 1.00513 0.0
C104 C 0.78696 0.12288 1.00391 0.0
C105 C 0.80859 0.0944 0.94208 0.0
C106 C 0.71872 0.1398 1.00127 0.0
C107 C 0.67172 0.12948 0.93671 0.0
C108 C 0.69626 0.10792 0.8744 0.0
C109 C 0.76404 0.09083 0.87704 0.0
C110 C 0.59448 0.12727 0.93537 0.0
C111 C 0.55969 0.07907 0.97256 0.0
C112 C 0.55401 0.16715 0.8941 0.0
C113 C 0.58693 0.2232 0.85863 0.0
C114 C 0.5896 0.21047 0.78632 0.0
C115 C 0.61537 0.26542 0.75171 0.0
C116 C 0.63711 0.33351 0.78871 0.0
C117 C 0.63353 0.34668 0.86049 0.0
C118 C 0.60875 0.29168 0.89552 0.0
H119 H 0.65678 0.37605 0.7618 0.0
H120 H 0.36684 0.89584 0.13017 0.0
H121 H 0.8146 0.77817 0.05653 0.0
H122 H 0.80624 0.65886 0.08618 0.0
H123 H 0.03369 0.68917 0.14304 0.0
H124 H 0.04214 0.80889 0.114 0.0
H125 H 0.85746 0.56155 1.01278 0.0
H126 H 0.08101 0.57454 0.25328 0.0
H127 H 0.13269 0.65432 0.36377 0.0
H128 H 0.93792 0.73495 0.36397 0.0
H129 H 0.88451 0.65477 0.25439 0.0
H130 H 0.99839 0.24995 0.99715 0.0
H131 H 0.9771 0.3711 1.00723 0.0
H132 H 0.89932 0.3486 0.20232 0.0
H133 H 0.92785 0.22883 0.19533 0.0
H134 H 0.97772 0.46945 0.21735 0.0
H135 H 0.79263 0.34432 0.03335 0.0
H136 H 0.75416 0.26084 0.92341 0.0
H137 H 0.86339 0.40569 0.80982 0.0
H138 H 0.90657 0.48851 0.91979 0.0
C139 C 0.86263 0.76015 0.07765 0.0
C140 C 0.92904 0.80267 0.08294 0.0
C141 C 0.85779 0.69188 0.09423 0.0
C142 C 0.91927 0.6648 0.11629 0.0
C143 C 0.9854 0.70912 0.12685 0.0
C144 C 0.99023 0.77773 0.11055 0.0
C145 C 0.91506 0.5882 0.11898 0.0
C146 C 0.88289 0.54126 0.05788 0.0
C147 C 0.9477 0.56178 0.17801 0.0
C148 C 0.97886 0.60876 0.24523 0.0
C149 C 0.04897 0.60883 0.27716 0.0
C150 C 0.07861 0.65423 0.3396 0.0
C151 C 0.03859 0.69966 0.37076 0.0
C152 C 0.96885 0.69976 0.33969 0.0
C153 C 0.93888 0.65437 0.2774 0.0
C154 C 0.97496 0.2704 0.04113 0.0
C155 C 0.96268 0.22994 0.09444 0.0
C156 C 0.96299 0.33977 0.04712 0.0
C157 C 0.93477 0.36886 0.10468 0.0
C158 C 0.92063 0.32741 0.1572 0.0
C159 C 0.93566 0.25877 0.15268 0.0
C160 C 0.92181 0.44294 0.11033 0.0
C161 C 0.9508 0.48943 0.17285 0.0
C162 C 0.88555 0.46905 0.05266 0.0
C163 C 0.85333 0.42262 0.98524 0.0
C164 C 0.80862 0.35849 0.98503 0.0
C165 C 0.78671 0.31084 0.92282 0.0
C166 C 0.80649 0.32774 0.85977 0.0
C167 C 0.84825 0.39254 0.85877 0.0
C168 C 0.87189 0.43974 0.92117 0.0
H169 H 0.78907 0.29077 0.81165 0.0
H170 H 0.06147 0.73458 0.41911 0.0
loop_
_geom_bond_atom_site_label_1
_geom_bond_atom_site_label_2
_geom_bond_distance
_geom_bond_site_symmetry_2
_ccdc_geom_bond_type
Zn0 O6 1.920 . S
Zn0 O12 1.898 . S
Zn0 O15 1.905 . S
Zn1 O9 1.905 . S
Zn1 O10 1.898 . S
Zn1 O18 1.920 . S
Zn2 O5 2.075 1_455 S
Zn2 O8 2.120 . S
Zn2 O11 2.119 1_465 S
Zn2 O13 2.120 1_464 S
Zn2 O14 2.116 1_554 S
Zn2 O17 2.079 1_564 S
C3 O8 1.166 1_545 S
C3 O9 1.182 . S
C4 O10 1.175 . S
C4 O11 1.300 1_455 S
O5 Zn2 2.075 1_655 S
O5 C19 1.305 1_554 S
O6 Zn0 1.920 . S
O6 C19 1.234 . S
C7 O12 1.173 . S
C7 O13 1.300 1_565 S
O8 Zn2 2.120 . S
O8 C3 1.166 1_565 S
O9 Zn1 1.905 . S
O9 C3 1.182 . S
O10 Zn1 1.898 . S
O10 C4 1.175 . S
O11 Zn2 2.119 1_645 S
O11 C4 1.300 1_655 S
O12 Zn0 1.898 . S
O12 C7 1.173 . S
O13 Zn2 2.120 1_646 S
O13 C7 1.300 1_545 S
O14 Zn2 2.116 1_556 S
O14 C16 1.166 1_455 S
O15 Zn0 1.905 . S
O15 C16 1.182 . S
C16 O14 1.166 1_655 S
C16 O15 1.182 . S
O17 Zn2 2.079 1_546 S
O17 C20 1.305 1_556 S
O18 Zn1 1.920 . S
O18 C20 1.234 . S
C19 O5 1.305 1_556 S
C19 O6 1.234 . S
C20 O17 1.305 1_554 S
C20 O18 1.234 . S
H21 C39 0.951 . S
H22 C41 0.951 . S
H23 C43 0.950 . S
H24 C44 0.950 . S
H25 C46 0.950 . S
H26 C49 0.950 . S
H27 C50 0.950 . S
H28 C52 0.950 . S
H29 C53 0.950 . S
H30 C54 0.951 . S
H31 C56 0.951 . S
H32 C58 0.950 . S
H33 C59 0.950 . S
H34 C61 0.950 . S
H35 C64 0.950 . S
H36 C65 0.950 . S
H37 C67 0.950 . S
H38 C68 0.950 1_545 S
C39 H21 0.951 . S
C39 C40 1.366 1_655 S
C39 C41 1.388 . S
C40 C39 1.366 1_455 S
C40 C44 1.385 1_565 S
C41 H22 0.951 . S
C41 C39 1.388 . S
C41 C42 1.366 1_655 S
C42 C41 1.366 1_455 S
C42 C43 1.414 1_565 S
C42 C45 1.499 . S
C43 H23 0.950 . S
C43 C42 1.414 1_545 S
C43 C44 1.374 . S
C44 H24 0.950 . S
C44 C40 1.385 1_545 S
C44 C43 1.374 . S
C45 C42 1.499 . S
C45 C46 1.373 . S
C45 C47 1.389 1_455 S
C46 H25 0.950 . S
C46 C45 1.373 . S
C46 C62 1.377 . S
C47 C45 1.389 1_655 S
C47 C48 1.524 1_565 S
C47 C61 1.377 . S
C48 C47 1.524 1_545 S
C48 C49 1.397 . S
C48 C53 1.363 1_545 S
C49 H26 0.950 . S
C49 C48 1.397 . S
C49 C50 1.334 . S
C50 H27 0.950 . S
C50 C49 1.334 . S
C50 C51 1.287 . S
C51 C50 1.287 . S
C51 C52 1.524 1_545 S
C51 H70 0.913 . S
C52 H28 0.950 . S
C52 C51 1.524 1_565 S
C52 C53 1.415 . S
C53 H29 0.950 . S
C53 C48 1.363 1_565 S
C53 C52 1.415 . S
C54 H30 0.951 . S
C54 C55 1.366 1_545 S
C54 C56 1.388 . S
C55 C54 1.366 1_565 S
C55 C59 1.385 1_455 S
C56 H31 0.951 . S
C56 C54 1.388 . S
C56 C57 1.366 1_545 S
C57 C56 1.366 1_565 S
C57 C58 1.414 1_455 S
C57 C60 1.499 . S
C58 H32 0.950 . S
C58 C57 1.414 1_655 S
C58 C59 1.374 . S
C59 H33 0.950 . S
C59 C55 1.385 1_655 S
C59 C58 1.374 . S
C60 C57 1.499 . S
C60 C61 1.373 1_455 S
C60 C62 1.389 . S
C61 H34 0.950 . S
C61 C47 1.377 . S
C61 C60 1.373 1_655 S
C62 C46 1.377 . S
C62 C60 1.389 . S
C62 C63 1.524 . S
C63 C62 1.524 . S
C63 C64 1.397 . S
C63 C68 1.363 . S
C64 H35 0.950 . S
C64 C63 1.397 . S
C64 C65 1.334 . S
C65 H36 0.950 . S
C65 C64 1.334 . S
C65 C66 1.287 . S
C66 C65 1.287 . S
C66 C67 1.524 . S
C66 H69 0.999 . S
C67 H37 0.950 . S
C67 C66 1.524 . S
C67 C68 1.415 . S
C68 H38 0.950 1_565 S
C68 C63 1.363 . S
C68 C67 1.415 . S
H69 C66 0.999 . S
H70 C51 0.913 . S
H71 C89 0.951 . S
H72 C91 0.951 . S
H73 C93 0.950 . S
H74 C94 0.950 . S
H75 C96 0.950 . S
H76 C99 0.950 . S
H77 C100 0.950 . S
H78 C102 0.950 . S
H79 C103 0.950 . S
H80 C104 0.951 . S
H81 C106 0.951 . S
H82 C108 0.950 . S
H83 C109 0.950 . S
H84 C111 0.950 . S
H85 C114 0.950 . S
H86 C115 0.950 . S
H87 C117 0.950 . S
H88 C118 0.950 . S
C89 H71 0.951 . S
C89 C90 1.366 1_565 S
C89 C91 1.388 . S
C90 C89 1.366 1_545 S
C90 C94 1.385 1_556 S
C91 H72 0.951 . S
C91 C89 1.388 . S
C91 C92 1.366 1_565 S
C92 C91 1.366 1_545 S
C92 C93 1.414 1_556 S
C92 C95 1.499 . S
C93 H73 0.950 . S
C93 C92 1.414 1_554 S
C93 C94 1.374 . S
C94 H74 0.950 . S
C94 C90 1.385 1_554 S
C94 C93 1.374 . S
C95 C92 1.499 . S
C95 C96 1.373 . S
C95 C97 1.389 1_545 S
C96 H75 0.950 . S
C96 C95 1.373 . S
C96 C112 1.377 . S
C97 C95 1.389 1_565 S
C97 C98 1.524 1_556 S
C97 C111 1.377 . S
C98 C97 1.524 1_554 S
C98 C99 1.397 . S
C98 C103 1.363 1_554 S
C99 H76 0.950 . S
C99 C98 1.397 . S
C99 C100 1.334 . S
C100 H77 0.950 . S
C100 C99 1.334 . S
C100 C101 1.287 . S
C101 C100 1.287 . S
C101 C102 1.524 . S
C101 H120 0.913 . S
C102 H78 0.950 . S
C102 C101 1.524 . S
C102 C103 1.415 1_554 S
C103 H79 0.950 . S
C103 C98 1.363 1_556 S
C103 C102 1.415 1_556 S
C104 H80 0.951 . S
C104 C105 1.366 1_554 S
C104 C106 1.388 . S
C105 C104 1.366 1_556 S
C105 C109 1.385 1_545 S
C106 H81 0.951 . S
C106 C104 1.388 . S
C106 C107 1.366 1_554 S
C107 C106 1.366 1_556 S
C107 C108 1.414 1_545 S
C107 C110 1.499 . S
C108 H82 0.950 . S
C108 C107 1.414 1_565 S
C108 C109 1.374 . S
C109 H83 0.950 . S
C109 C105 1.385 1_565 S
C109 C108 1.374 . S
C110 C107 1.499 . S
C110 C111 1.373 1_545 S
C110 C112 1.389 . S
C111 H84 0.950 . S
C111 C97 1.377 . S
C111 C110 1.373 1_565 S
C112 C96 1.377 . S
C112 C110 1.389 . S
C112 C113 1.524 . S
C113 C112 1.524 . S
C113 C114 1.397 . S
C113 C118 1.363 . S
C114 H85 0.950 . S
C114 C113 1.397 . S
C114 C115 1.334 . S
C115 H86 0.950 . S
C115 C114 1.334 . S
C115 C116 1.287 . S
C116 C115 1.287 . S
C116 C117 1.524 . S
C116 H119 0.999 . S
C117 H87 0.950 . S
C117 C116 1.524 . S
C117 C118 1.415 . S
C118 H88 0.950 . S
C118 C113 1.363 . S
C118 C117 1.415 . S
H119 C116 0.999 . S
H120 C101 0.913 . S
H121 C139 0.951 . S
H122 C141 0.951 . S
H123 C143 0.950 . S
H124 C144 0.950 . S
H125 C146 0.950 . S
H126 C149 0.950 . S
H127 C150 0.950 . S
H128 C152 0.950 . S
H129 C153 0.950 . S
H130 C154 0.951 . S
H131 C156 0.951 . S
H132 C158 0.950 . S
H133 C159 0.950 . S
H134 C161 0.950 . S
H135 C164 0.950 . S
H136 C165 0.950 . S
H137 C167 0.950 1_455 S
H138 C168 0.950 1_455 S
C139 H121 0.951 . S
C139 C140 1.366 . S
C139 C141 1.388 . S
C140 C139 1.366 . S
C140 C144 1.385 1_654 S
C141 H122 0.951 . S
C141 C139 1.388 . S
C141 C142 1.366 . S
C142 C141 1.366 . S
C142 C143 1.414 1_654 S
C142 C145 1.499 . S
C143 H123 0.950 . S
C143 C142 1.414 1_456 S
C143 C144 1.374 . S
C144 H124 0.950 . S
C144 C140 1.385 1_456 S
C144 C143 1.374 . S
C145 C142 1.499 . S
C145 C146 1.373 1_554 S
C145 C147 1.389 . S
C146 H125 0.950 . S
C146 C145 1.373 1_556 S
C146 C162 1.377 . S
C147 C145 1.389 . S
C147 C148 1.524 . S
C147 C161 1.377 . S
C148 C147 1.524 . S
C148 C149 1.397 1_655 S
C148 C153 1.363 . S
C149 H126 0.950 . S
C149 C148 1.397 1_455 S
C149 C150 1.334 . S
C150 H127 0.950 . S
C150 C149 1.334 . S
C150 C151 1.287 . S
C151 C150 1.287 . S
C151 C152 1.524 1_455 S
C151 H170 0.913 . S
C152 H128 0.950 . S
C152 C151 1.524 1_655 S
C152 C153 1.415 . S
C153 H129 0.950 . S
C153 C148 1.363 . S
C153 C152 1.415 . S
C154 H130 0.951 . S
C154 C155 1.366 1_456 S
C154 C156 1.388 . S
C155 C154 1.366 1_654 S
C155 C159 1.385 . S
C156 H131 0.951 . S
C156 C154 1.388 . S
C156 C157 1.366 1_456 S
C157 C156 1.366 1_654 S
C157 C158 1.414 . S
C157 C160 1.499 . S
C158 H132 0.950 . S
C158 C157 1.414 . S
C158 C159 1.374 . S
C159 H133 0.950 . S
C159 C155 1.385 . S
C159 C158 1.374 . S
C160 C157 1.499 . S
C160 C161 1.373 . S
C160 C162 1.389 1_554 S
C161 H134 0.950 . S
C161 C147 1.377 . S
C161 C160 1.373 . S
C162 C146 1.377 . S
C162 C160 1.389 1_556 S
C162 C163 1.524 . S
C163 C162 1.524 . S
C163 C164 1.397 . S
C163 C168 1.363 . S
C164 H135 0.950 . S
C164 C163 1.397 . S
C164 C165 1.334 . S
C165 H136 0.950 . S
C165 C164 1.334 . S
C165 C166 1.287 . S
C166 C165 1.287 . S
C166 C167 1.524 . S
C166 H169 0.999 . S
C167 H137 0.950 1_655 S
C167 C166 1.524 . S
C167 C168 1.415 . S
C168 H138 0.950 1_655 S
C168 C163 1.363 . S
C168 C167 1.415 . S
H169 C166 0.999 . S
H170 C151 0.913 . S
C40 C4 1.280 1_565 S
C55 C7 1.281 1_455 S
C90 C3 1.306 1_556 S
C105 C19 1.303 1_545 S
C140 C16 1.305 1_554 S
C155 C20 1.302 1_655 S
