# Generated by pormake.
# Topology hex, (8)-cn, num edge types: 1
# Building blocks:
#     Node 0, Type 0, BuildingBlock: XADDAJ01_clean_sbu_3, # of connection points: 8
#     Edge 1, Type (0, 0), BuildingBlock: ZUJKAS_clean_linker_0, # of connection points: 2
#     Edge 2, Type (0, 0), BuildingBlock: ZUJKAS_clean_linker_0, # of connection points: 2
#     Edge 3, Type (0, 0), BuildingBlock: ZUJKAS_clean_linker_0, # of connection points: 2
#     Edge 4, Type (0, 0), BuildingBlock: ZUJKAS_clean_linker_0, # of connection points: 2
# Relax obj value: 0.037
# Max RMSD: 0.102
# Mean RMSD: 0.102
data_MOF--net-hex--node1-XADDAJ01_clean_sbu_3--edge1-ZUJKAS_clean_linker_0
_symmetry_space_group_name_H-M    P1
_symmetry_Int_Tables_number       1
_symmetry_cell_setting            triclinic
loop_
_symmetry_equiv_pos_as_xyz
'x, y, z'
_cell_length_a     27.416176
_cell_length_b     21.507002
_cell_length_c     19.015195
_cell_angle_alpha  113.30819
_cell_angle_beta   100.00196
_cell_angle_gamma 111.18798
loop_
_atom_site_label
_atom_site_type_symbol
_atom_site_fract_x
_atom_site_fract_y
_atom_site_fract_z
_atom_type_partial_charge
C0 C 0.79506 0.85151 0.94142 0.0
C1 C 0.76966 0.79022 0.95623 0.0
C2 C 0.72463 0.78288 0.98373 0.0
C3 C 0.70496 0.83638 0.99601 0.0
C4 C 0.72756 0.89513 0.97788 0.0
C5 C 0.77257 0.90257 0.95037 0.0
O6 O 0.97626 0.01195 0.09541 0.0
Tb7 Tb 0.94699 0.91393 0.97412 0.0
Tb8 Tb 0.08958 0.09783 0.06382 0.0
O9 O 0.96618 0.84072 0.01376 0.0
O10 O 0.07127 0.06327 0.153 0.0
O11 O 0.86681 0.81799 0.91533 0.0
C12 C 0.17693 0.09389 0.04607 0.0
O13 O 0.879 0.9305 0.93387 0.0
O14 O 0.02498 0.05264 0.94661 0.0
O15 O 0.98742 0.92208 0.88697 0.0
C16 C 0.84253 0.85998 0.91191 0.0
C17 C 0.0528 0.22179 0.09891 0.0
O18 O 1.00455 0.16354 0.0798 0.0
C19 C 0.02097 0.03206 0.15489 0.0
C20 C 1.00885 0.98538 0.88273 0.0
O21 O 0.09745 0.21161 0.1012 0.0
C22 C 0.2143 0.10622 0.00029 0.0
C23 C 0.27869 0.07097 0.94082 0.0
C24 C 0.2385 0.05735 0.97713 0.0
C25 C 0.23146 0.17028 0.98823 0.0
C26 C 0.27137 0.1837 0.95117 0.0
C27 C 0.29335 0.13265 0.92589 0.0
C28 C 0.01663 0.84628 0.03176 0.0
O29 O 0.0574 0.89881 0.02742 0.0
O30 O 0.17706 0.15506 0.10118 0.0
O31 O 0.12656 0.03335 0.00425 0.0
H32 H 0.78412 0.74778 0.94549 0.0
H33 H 0.66851 0.82841 0.01366 0.0
H34 H 0.78943 0.94736 0.93498 0.0
H35 H 0.22793 0.01075 0.99072 0.0
H36 H 0.21562 0.2109 0.01016 0.0
H37 H 0.32672 0.14584 0.90218 0.0
H38 H 0.14303 0.34897 0.12334 0.0
H39 H 0.14428 0.46499 0.12792 0.0
H40 H 0.9693 0.37537 0.09894 0.0
H41 H 0.96778 0.25987 0.09525 0.0
H42 H 0.07854 0.46926 0.00313 0.0
H43 H 0.03855 0.59512 0.28935 0.0
H44 H 0.06052 0.52192 0.26552 0.0
H45 H 0.98809 0.4959 0.2189 0.0
C46 C 0.10503 0.35445 0.11925 0.0
C47 C 0.05532 0.29511 0.1091 0.0
C48 C 0.10581 0.42076 0.12171 0.0
C49 C 0.0571 0.42939 0.11486 0.0
C50 C 1.00773 0.37084 0.10616 0.0
H51 H 0.94035 0.72858 0.04123 0.0
H52 H 0.9544 0.63195 0.06583 0.0
C53 C 1.00687 0.30453 0.10357 0.0
C54 C 0.05663 0.49682 0.11085 0.0
H55 H 0.02747 0.64497 0.19897 0.0
C56 C 0.06807 0.50829 0.04653 0.0
C57 C 0.04269 0.54747 0.1673 0.0
C58 C 0.03227 0.54009 0.23964 0.0
C59 C 0.06405 0.56732 0.03538 0.0
C60 C 0.04927 0.61728 0.0911 0.0
C61 C 0.03877 0.60665 0.15629 0.0
C62 C 0.04224 0.67887 0.08068 0.0
C63 C 0.07354 0.57374 0.96213 0.0
C64 C 0.08732 0.73852 0.08271 0.0
C65 C 0.07938 0.79383 0.06831 0.0
C66 C 0.02626 0.79079 0.05213 0.0
C67 C 0.98173 0.73246 0.05296 0.0
C68 C 0.98969 0.67718 0.0672 0.0
H69 H 0.07115 0.52042 0.91499 0.0
H70 H 0.04208 0.58582 0.93274 0.0
H71 H 0.11605 0.62194 0.98301 0.0
H72 H 0.12856 0.74196 0.09478 0.0
H73 H 0.11471 0.83833 0.06884 0.0
H74 H 0.70224 0.97594 0.10365 0.0
H75 H 0.62704 0.01095 0.08967 0.0
H76 H 0.60792 0.94781 0.83729 0.0
H77 H 0.68259 0.91114 0.85066 0.0
H78 H 0.60052 0.10547 0.04043 0.0
H79 H 0.45637 0.79419 0.81866 0.0
H80 H 0.5282 0.8299 0.88129 0.0
H81 H 0.51321 0.83951 0.79143 0.0
C82 C 0.68327 0.9721 0.04611 0.0
C83 C 0.69774 0.94031 0.97801 0.0
C84 C 0.64019 0.99173 0.03804 0.0
C85 C 0.61092 0.97981 0.96177 0.0
C86 C 0.62927 0.95576 0.89614 0.0
H87 H 0.3062 0.00866 0.80796 0.0
H88 H 0.38507 0.98007 0.80938 0.0
C89 C 0.67245 0.93599 0.90417 0.0
C90 C 0.55802 0.98506 0.94947 0.0
H91 H 0.41527 0.87601 0.84863 0.0
C92 C 0.56005 0.05547 0.99822 0.0
C93 C 0.50521 0.91934 0.89491 0.0
C94 C 0.50022 0.84122 0.84399 0.0
C95 C 0.51067 0.06207 0.99365 0.0
C96 C 0.45794 0.99622 0.9398 0.0
C97 C 0.45585 0.92611 0.89006 0.0
C98 C 0.40468 -9e-05 0.93397 0.0
C99 C 0.51523 0.13955 0.04609 0.0
C100 C 0.38779 0.01599 0.00182 0.0
C101 C 0.34257 0.03174 0.00094 0.0
C102 C 0.31377 0.03176 0.93219 0.0
C103 C 0.32782 0.00914 0.86173 0.0
C104 C 0.3729 0.99314 0.86258 0.0
H105 H 0.55875 0.18712 0.07064 0.0
H106 H 0.48612 0.15057 0.01022 0.0
H107 H 0.50328 0.14028 0.09915 0.0
H108 H 0.41142 0.02028 0.05701 0.0
H109 H 0.33308 0.04976 0.05637 0.0
H110 H 0.32612 0.32803 0.08392 0.0
H111 H 0.40178 0.43968 0.09401 0.0
H112 H 0.36092 0.31371 0.83196 0.0
H113 H 0.28479 0.20306 0.82166 0.0
H114 H 0.48971 0.42422 0.05623 0.0
H115 H 0.40053 0.52698 0.86911 0.0
H116 H 0.35833 0.46726 0.90334 0.0
H117 H 0.37418 0.42481 0.81371 0.0
C118 C 0.33132 0.32587 0.02794 0.0
C119 C 0.29961 0.25716 0.95196 0.0
C120 C 0.37503 0.38926 0.03388 0.0
C121 C 0.3872 0.38502 0.96381 0.0
C122 C 0.35191 0.31897 0.88667 0.0
H123 H 0.66584 0.63396 0.86063 0.0
H124 H 0.58682 0.53123 0.85873 0.0
C125 C 0.30827 0.25573 0.88074 0.0
C126 C 0.44122 0.44347 0.97265 0.0
H127 H 0.49833 0.56198 0.89863 0.0
C128 C 0.4916 0.45512 0.0226 0.0
C129 C 0.44367 0.48301 0.928 0.0
C130 C 0.39127 0.47549 0.87616 0.0
C131 C 0.54426 0.50395 0.02768 0.0
C132 C 0.54658 0.54247 0.98205 0.0
C133 C 0.49633 0.53147 0.93273 0.0
C134 C 0.60065 0.59746 0.9873 0.0
C135 C 0.59694 0.51268 0.08028 0.0
C136 C 0.63588 0.66722 0.06104 0.0
C137 C 0.68103 0.72553 0.06224 0.0
C138 C 0.69163 0.71489 0.98974 0.0
C139 C 0.65917 0.64288 0.91762 0.0
C140 C 0.6137 0.58467 0.91627 0.0
H141 H 0.58764 0.46575 0.09536 0.0
H142 H 0.6275 0.51319 0.04878 0.0
H143 H 0.61722 0.56824 0.13897 0.0
H144 H 0.62614 0.67864 0.11622 0.0
H145 H 0.70496 0.78109 0.11816 0.0
H146 H 0.05266 0.10451 0.85393 0.0
H147 H 0.04752 0.09835 0.72191 0.0
H148 H 0.9579 0.85045 0.59762 0.0
H149 H 0.9632 0.85583 0.73019 0.0
H150 H 0.04414 0.90999 0.54368 0.0
H151 H 0.90409 0.04233 0.54656 0.0
H152 H 0.96599 0.09856 0.63879 0.0
H153 H 0.91497 0.00461 0.61406 0.0
C154 C 0.03171 0.04851 0.79866 0.0
C155 C 1.00768 0.98062 0.80256 0.0
C156 C 0.02864 0.04519 0.72317 0.0
C157 C 1.00125 0.97403 0.64991 0.0
C158 C 0.97872 0.90596 0.65352 0.0
H159 H 0.92363 0.95728 0.17357 0.0
H160 H 0.91474 0.93316 0.28747 0.0
C161 C 0.9818 0.90918 0.72928 0.0
C162 C 0.9967 0.97148 0.56996 0.0
H163 H 0.95069 0.03792 0.45071 0.0
C164 C 0.02318 0.93714 0.52273 0.0
C165 C 0.96842 0.00567 0.54205 0.0
C166 C 0.93625 0.0392 0.58754 0.0
C167 C 0.0244 0.93933 0.45019 0.0
C168 C 0.99928 0.97804 0.42528 0.0
C169 C 0.97052 0.0091 0.47044 0.0
C170 C 1.00452 0.99014 0.35487 0.0
C171 C 0.05272 0.90045 0.4011 0.0
C172 C 0.05788 0.03114 0.35567 0.0
C173 C 0.06312 0.04509 0.29094 0.0
C174 C 0.01502 0.01902 0.22444 0.0
C175 C 0.96151 0.97852 0.22408 0.0
C176 C 0.95634 0.96441 0.28891 0.0
H177 H 0.0538 0.85427 0.41298 0.0
H178 H 0.03096 0.87512 0.33394 0.0
H179 H 0.09685 0.94357 0.41952 0.0
H180 H 0.09558 0.05325 0.40696 0.0
H181 H 0.10496 0.07661 0.29331 0.0
loop_
_geom_bond_atom_site_label_1
_geom_bond_atom_site_label_2
_geom_bond_distance
_geom_bond_site_symmetry_2
_ccdc_geom_bond_type
C0 C1 1.386 . S
C0 C5 1.384 . S
C0 C16 1.497 . S
C1 C0 1.386 . S
C1 C2 1.393 1_556 S
C1 H32 0.932 . S
C2 C1 1.393 1_554 S
C2 C3 1.387 . S
C3 C2 1.387 . S
C3 C4 1.392 1_554 S
C3 H33 0.930 . S
C4 C3 1.392 1_556 S
C4 C5 1.402 . S
C5 C0 1.384 . S
C5 C4 1.402 . S
C5 H34 0.930 . S
O6 Tb7 2.288 1_554 S
O6 C19 1.257 1_665 S
Tb7 O6 2.288 1_556 S
Tb7 O9 2.303 . S
Tb7 O11 2.430 . S
Tb7 O13 2.459 . S
Tb7 O15 2.301 . S
Tb7 C16 2.808 . S
Tb8 O10 2.301 . S
Tb8 C12 2.808 . S
Tb8 O14 2.288 1_554 S
Tb8 O21 2.303 . S
Tb8 O30 2.430 . S
Tb8 O31 2.459 . S
O9 Tb7 2.303 . S
O9 C28 1.255 1_655 S
O10 Tb8 2.301 . S
O10 C19 1.237 . S
O11 Tb7 2.430 . S
O11 C16 1.248 . S
C12 Tb8 2.808 . S
C12 C22 1.497 . S
C12 O30 1.248 . S
C12 O31 1.260 . S
O13 Tb7 2.459 . S
O13 C16 1.260 . S
O14 Tb8 2.288 1_556 S
O14 C20 1.257 1_445 S
O15 Tb7 2.301 . S
O15 C20 1.237 . S
C16 C0 1.497 . S
C16 Tb7 2.808 . S
C16 O11 1.248 . S
C16 O13 1.260 . S
C17 O18 1.255 . S
C17 O21 1.255 1_655 S
O18 C17 1.255 . S
C19 O6 1.257 1_445 S
C19 O10 1.237 . S
C20 O14 1.257 1_665 S
C20 O15 1.237 . S
O21 Tb8 2.303 . S
O21 C17 1.255 1_455 S
C22 C12 1.497 . S
C22 C24 1.384 . S
C22 C25 1.386 . S
C23 C24 1.402 . S
C23 C27 1.392 1_554 S
C24 C22 1.384 . S
C24 C23 1.402 . S
C24 H35 0.930 . S
C25 C22 1.386 . S
C25 C26 1.393 1_554 S
C25 H36 0.932 . S
C26 C25 1.393 1_556 S
C26 C27 1.387 . S
C27 C23 1.392 1_556 S
C27 C26 1.387 . S
C27 H37 0.930 . S
C28 O9 1.255 1_455 S
C28 O29 1.255 . S
O29 C28 1.255 . S
O30 Tb8 2.430 . S
O30 C12 1.248 . S
O31 Tb8 2.459 . S
O31 C12 1.260 . S
H32 C1 0.932 . S
H33 C3 0.930 . S
H34 C5 0.930 . S
H35 C24 0.930 . S
H36 C25 0.932 . S
H37 C27 0.930 . S
H38 C46 0.929 . S
H39 C48 0.930 . S
H40 C50 0.930 . S
H41 C53 0.929 . S
H42 C56 0.930 . S
H43 C58 0.960 . S
H44 C58 0.960 . S
H45 C58 0.960 . S
C46 H38 0.929 . S
C46 C47 1.377 1_455 S
C46 C48 1.384 . S
C47 C46 1.377 1_655 S
C47 C53 1.390 1_554 S
C48 H39 0.930 . S
C48 C46 1.384 . S
C48 C49 1.390 . S
C49 C48 1.390 . S
C49 C50 1.389 1_454 S
C49 C54 1.483 . S
C50 H40 0.930 . S
C50 C49 1.389 1_656 S
C50 C53 1.386 . S
H51 C67 0.930 . S
H52 C68 0.931 . S
C53 H41 0.929 . S
C53 C47 1.390 1_556 S
C53 C50 1.386 . S
C54 C49 1.483 . S
C54 C56 1.395 1_554 S
C54 C57 1.403 1_455 S
H55 C61 0.930 . S
C56 H42 0.930 . S
C56 C54 1.395 1_556 S
C56 C59 1.403 . S
C57 C54 1.403 1_655 S
C57 C58 1.524 . S
C57 C61 1.400 . S
C58 H43 0.960 . S
C58 H44 0.960 . S
C58 H45 0.960 . S
C58 C57 1.524 . S
C59 C56 1.403 . S
C59 C60 1.392 . S
C59 C63 1.495 . S
C60 C59 1.392 . S
C60 C61 1.385 1_456 S
C60 C62 1.478 . S
C61 H55 0.930 . S
C61 C57 1.400 . S
C61 C60 1.385 1_654 S
C62 C60 1.478 . S
C62 C64 1.381 1_556 S
C62 C68 1.383 1_455 S
C63 C59 1.495 . S
C63 H69 0.959 . S
C63 H70 0.961 . S
C63 H71 0.960 . S
C64 C62 1.381 1_554 S
C64 C65 1.394 . S
C64 H72 0.930 . S
C65 C64 1.394 . S
C65 C66 1.383 1_554 S
C65 H73 0.929 . S
C66 C65 1.383 1_556 S
C66 C67 1.377 1_455 S
C67 H51 0.930 . S
C67 C66 1.377 1_655 S
C67 C68 1.379 . S
C68 H52 0.931 . S
C68 C62 1.383 1_655 S
C68 C67 1.379 . S
H69 C63 0.959 . S
H70 C63 0.961 . S
H71 C63 0.960 . S
H72 C64 0.930 . S
H73 C65 0.929 . S
H74 C82 0.929 . S
H75 C84 0.930 . S
H76 C86 0.930 . S
H77 C89 0.929 . S
H78 C92 0.930 . S
H79 C94 0.960 . S
H80 C94 0.960 . S
H81 C94 0.960 . S
C82 H74 0.929 . S
C82 C83 1.377 1_554 S
C82 C84 1.384 . S
C83 C82 1.377 1_556 S
C83 C89 1.389 1_565 S
C84 H75 0.930 . S
C84 C82 1.384 . S
C84 C85 1.372 1_554 S
C85 C84 1.372 1_556 S
C85 C86 1.400 1_565 S
C85 C90 1.490 1_556 S
C86 H76 0.930 . S
C86 C85 1.400 1_545 S
C86 C89 1.386 . S
H87 C103 0.930 . S
H88 C104 0.931 . S
C89 H77 0.929 . S
C89 C83 1.389 1_545 S
C89 C86 1.386 . S
C90 C85 1.490 1_554 S
C90 C92 1.395 1_565 S
C90 C93 1.403 1_554 S
H91 C97 0.930 . S
C92 H78 0.930 . S
C92 C90 1.395 1_545 S
C92 C95 1.403 . S
C93 C90 1.403 1_556 S
C93 C94 1.524 . S
C93 C97 1.400 . S
C94 H79 0.960 . S
C94 H80 0.960 . S
C94 H81 0.960 . S
C94 C93 1.524 . S
C95 C92 1.403 . S
C95 C96 1.392 . S
C95 C99 1.495 . S
C96 C95 1.392 . S
C96 C97 1.385 1_544 S
C96 C98 1.478 . S
C97 H91 0.930 . S
C97 C93 1.400 . S
C97 C96 1.385 1_566 S
C98 C96 1.478 . S
C98 C100 1.381 1_545 S
C98 C104 1.383 1_554 S
C99 C95 1.495 . S
C99 H105 0.959 . S
C99 H106 0.961 . S
C99 H107 0.960 . S
C100 C98 1.381 1_565 S
C100 C101 1.394 . S
C100 H108 0.930 . S
C101 C100 1.394 . S
C101 C102 1.383 1_565 S
C101 H109 0.929 . S
C102 C101 1.383 1_545 S
C102 C103 1.377 1_554 S
C103 H87 0.930 . S
C103 C102 1.377 1_556 S
C103 C104 1.379 . S
C104 H88 0.931 . S
C104 C98 1.383 1_556 S
C104 C103 1.379 . S
H105 C99 0.959 . S
H106 C99 0.961 . S
H107 C99 0.960 . S
H108 C100 0.930 . S
H109 C101 0.929 . S
H110 C118 0.929 . S
H111 C120 0.930 . S
H112 C122 0.930 . S
H113 C125 0.929 . S
H114 C128 0.930 . S
H115 C130 0.960 . S
H116 C130 0.960 . S
H117 C130 0.960 . S
C118 H110 0.929 . S
C118 C119 1.377 1_554 S
C118 C120 1.384 . S
C119 C118 1.377 1_556 S
C119 C125 1.390 . S
C120 H111 0.930 . S
C120 C118 1.384 . S
C120 C121 1.372 1_554 S
C121 C120 1.372 1_556 S
C121 C122 1.400 . S
C121 C126 1.490 1_556 S
C122 H112 0.930 . S
C122 C121 1.400 . S
C122 C125 1.386 . S
H123 C139 0.930 . S
H124 C140 0.931 . S
C125 H113 0.929 . S
C125 C119 1.390 . S
C125 C122 1.386 . S
C126 C121 1.490 1_554 S
C126 C128 1.395 . S
C126 C129 1.403 1_554 S
H127 C133 0.930 . S
C128 H114 0.930 . S
C128 C126 1.395 . S
C128 C131 1.403 . S
C129 C126 1.403 1_556 S
C129 C130 1.524 . S
C129 C133 1.400 . S
C130 H115 0.960 . S
C130 H116 0.960 . S
C130 H117 0.960 . S
C130 C129 1.524 . S
C131 C128 1.403 . S
C131 C132 1.392 . S
C131 C135 1.495 . S
C132 C131 1.392 . S
C132 C133 1.385 1_554 S
C132 C134 1.478 . S
C133 H127 0.930 . S
C133 C129 1.400 . S
C133 C132 1.385 1_556 S
C134 C132 1.478 . S
C134 C136 1.381 . S
C134 C140 1.383 1_554 S
C135 C131 1.495 . S
C135 H141 0.959 . S
C135 H142 0.961 . S
C135 H143 0.960 . S
C136 C134 1.381 . S
C136 C137 1.394 . S
C136 H144 0.930 . S
C137 C136 1.394 . S
C137 C138 1.383 . S
C137 H145 0.929 . S
C138 C137 1.383 . S
C138 C139 1.377 1_554 S
C139 H123 0.930 . S
C139 C138 1.377 1_556 S
C139 C140 1.379 . S
C140 H124 0.931 . S
C140 C134 1.383 1_556 S
C140 C139 1.379 . S
H141 C135 0.959 . S
H142 C135 0.961 . S
H143 C135 0.960 . S
H144 C136 0.930 . S
H145 C137 0.929 . S
H146 C154 0.929 . S
H147 C156 0.930 . S
H148 C158 0.930 . S
H149 C161 0.929 . S
H150 C164 0.930 . S
H151 C166 0.960 . S
H152 C166 0.960 . S
H153 C166 0.960 . S
C154 H146 0.929 . S
C154 C155 1.392 1_455 S
C154 C156 1.384 . S
C155 C154 1.392 1_655 S
C155 C161 1.380 1_545 S
C156 H147 0.930 . S
C156 C154 1.384 . S
C156 C157 1.370 . S
C157 C156 1.370 . S
C157 C158 1.400 1_445 S
C157 C162 1.492 . S
C158 H148 0.930 . S
C158 C157 1.400 1_665 S
C158 C161 1.386 . S
H159 C175 0.930 . S
H160 C176 0.928 . S
C161 H149 0.929 . S
C161 C155 1.380 1_565 S
C161 C158 1.386 . S
C162 C157 1.492 . S
C162 C164 1.395 . S
C162 C165 1.403 1_445 S
H163 C169 0.930 . S
C164 H150 0.930 . S
C164 C162 1.395 . S
C164 C167 1.403 . S
C165 C162 1.403 1_665 S
C165 C166 1.524 . S
C165 C169 1.400 . S
C166 H151 0.960 . S
C166 H152 0.960 . S
C166 H153 0.960 . S
C166 C165 1.524 . S
C167 C164 1.403 . S
C167 C168 1.392 . S
C167 C171 1.495 . S
C168 C167 1.392 . S
C168 C169 1.385 1_445 S
C168 C170 1.478 . S
C169 H163 0.930 . S
C169 C165 1.400 . S
C169 C168 1.385 1_665 S
C170 C168 1.478 . S
C170 C172 1.381 . S
C170 C176 1.388 1_445 S
C171 C167 1.495 . S
C171 H177 0.959 . S
C171 H178 0.961 . S
C171 H179 0.960 . S
C172 C170 1.381 . S
C172 C173 1.394 . S
C172 H180 0.930 . S
C173 C172 1.394 . S
C173 C174 1.383 . S
C173 H181 0.929 . S
C174 C173 1.383 . S
C174 C175 1.377 1_445 S
C175 H159 0.930 . S
C175 C174 1.377 1_665 S
C175 C176 1.377 . S
C176 H160 0.928 . S
C176 C170 1.388 1_665 S
C176 C175 1.377 . S
H177 C171 0.959 . S
H178 C171 0.961 . S
H179 C171 0.960 . S
H180 C172 0.930 . S
H181 C173 0.929 . S
C47 C17 0.406 . S
C66 C28 0.362 . S
C83 C4 2.156 . S
C102 C23 2.156 . S
C119 C26 1.903 . S
C138 C2 1.912 . S
C155 C20 1.486 1_545 S
C174 C19 1.477 . S
