# Generated by pormake.
# Topology sml, (6)-cn, num edge types: 1
# Building blocks:
#     Node 0, Type 0, BuildingBlock: FUNLAD_clean_sbu_0, # of connection points: 6
#     Node 1, Type 0, BuildingBlock: FUNLAD_clean_sbu_0, # of connection points: 6
#     Node 2, Type 0, BuildingBlock: FUNLAD_clean_sbu_0, # of connection points: 6
#     Node 3, Type 0, BuildingBlock: FUNLAD_clean_sbu_0, # of connection points: 6
#     Node 4, Type 0, BuildingBlock: FUNLAD_clean_sbu_0, # of connection points: 6
#     Node 5, Type 0, BuildingBlock: FUNLAD_clean_sbu_0, # of connection points: 6
#     Edge 6, Type (0, 0), None
#     Edge 7, Type (0, 0), None
#     Edge 8, Type (0, 0), None
#     Edge 9, Type (0, 0), None
#     Edge 10, Type (0, 0), None
#     Edge 11, Type (0, 0), None
#     Edge 12, Type (0, 0), None
#     Edge 13, Type (0, 0), None
#     Edge 14, Type (0, 0), None
#     Edge 15, Type (0, 0), None
#     Edge 16, Type (0, 0), None
#     Edge 17, Type (0, 0), None
#     Edge 18, Type (0, 0), None
#     Edge 19, Type (0, 0), None
#     Edge 20, Type (0, 0), None
#     Edge 21, Type (0, 0), None
#     Edge 22, Type (0, 0), None
#     Edge 23, Type (0, 0), None
# Relax obj value: 0.558
# Max RMSD: 0.249
# Mean RMSD: 0.248
data_MOF--net-sml--node1-FUNLAD_clean_sbu_0--edge1-none
_symmetry_space_group_name_H-M    P1
_symmetry_Int_Tables_number       1
_symmetry_cell_setting            triclinic
loop_
_symmetry_equiv_pos_as_xyz
'x, y, z'
_cell_length_a     25.59304
_cell_length_b     25.593321
_cell_length_c     6.890577
_cell_angle_alpha  90.085554
_cell_angle_beta   89.913477
_cell_angle_gamma 120.02505
loop_
_atom_site_label
_atom_site_type_symbol
_atom_site_fract_x
_atom_site_fract_y
_atom_site_fract_z
_atom_type_partial_charge
C0 C 0.28879 0.53979 0.81539 0.0
N1 N 0.29548 0.41695 0.17973 0.0
C2 C 0.26045 0.3796 0.03448 0.0
C3 C 0.2768 0.34137 -0.05947 0.0
C4 C 0.32826 0.34012 0.00178 0.0
C5 C 0.35936 0.37359 0.16647 0.0
C6 C 0.34238 0.41238 0.25317 0.0
Zn7 Zn 0.29515 0.49697 0.21347 0.0
C8 C 0.41528 0.60281 0.15424 0.0
N9 N 0.29571 0.66586 0.2626 0.0
C10 C 0.25725 0.68676 0.2202 0.0
C11 C 0.34287 0.69758 0.38636 0.0
C12 C 0.35361 0.75128 0.46919 0.0
C13 C 0.31645 0.77512 0.42571 0.0
C14 C 0.26721 0.74215 0.29965 0.0
Zn15 Zn 0.28744 0.58108 0.20761 0.0
O16 O 0.29032 0.49907 0.91361 0.0
C17 C 0.16713 0.47797 0.25414 0.0
O18 O 0.28415 0.58202 0.8987 0.0
H19 H 0.3719 0.68045 0.42987 0.0
H20 H 0.22373 0.38425 -0.02347 0.0
H21 H 0.21869 0.66051 0.12752 0.0
O22 O 0.19712 0.45032 0.24488 0.0
O23 O 0.19395 0.53502 0.23348 0.0
H24 H 0.37039 0.44315 0.36569 0.0
O25 O 0.2896 0.57686 0.50773 0.0
O26 O 0.30036 0.49707 0.52276 0.0
O27 O 0.38106 0.6249 0.17407 0.0
O28 O 0.39303 0.54623 0.17434 0.0
C29 C 0.2934 0.53767 0.60631 0.0
H30 H 0.25201 0.31628 0.81348 0.0
H31 H 0.39963 0.37388 0.21639 0.0
H32 H 0.39193 0.77458 0.56576 0.0
H33 H 0.23786 0.75951 0.25967 0.0
C34 C 0.98007 0.38553 0.73036 0.0
N35 N 0.97316 0.25581 0.36526 0.0
C36 C 1.00835 0.25364 0.50997 0.0
C37 C 0.99196 0.19918 0.60438 0.0
C38 C 0.94026 0.14641 0.54424 0.0
C39 C 0.90894 0.14859 0.3801 0.0
C40 C 0.926 0.20426 0.29284 0.0
Zn41 Zn 0.97366 0.33629 0.33189 0.0
C42 C 0.85362 0.32211 0.39159 0.0
N43 N 0.97324 0.5048 0.28405 0.0
C44 C 1.01175 0.56422 0.32646 0.0
C45 C 0.92603 0.48929 0.16055 0.0
C46 C 0.91528 0.53222 0.07806 0.0
C47 C 0.9525 0.59327 0.12151 0.0
C48 C 1.00179 0.60962 0.2473 0.0
Zn49 Zn 0.98146 0.42821 0.33849 0.0
O50 O 0.9785 0.34325 0.6317 0.0
C51 C 0.10172 0.44528 0.29155 0.0
O52 O 0.98476 0.43243 0.64753 0.0
H53 H 0.89697 0.44309 0.11693 0.0
H54 H 0.04524 0.29508 0.56727 0.0
H55 H 0.05036 0.5766 0.41888 0.0
O56 O 0.07168 0.38763 0.3005 0.0
O57 O 0.07497 0.47557 0.31254 0.0
H58 H 0.89785 0.2069 0.18079 0.0
O59 O 0.97927 0.42178 0.03841 0.0
O60 O 0.96844 0.33118 0.02248 0.0
O61 O 0.88787 0.37844 0.37208 0.0
O62 O 0.87581 0.28775 0.37103 0.0
C63 C 0.97544 0.37878 0.93941 0.0
H64 H 1.01693 0.19902 0.73099 0.0
H65 H 0.86849 0.10858 0.331 0.0
H66 H 0.87692 0.51713 -0.0183 0.0
H67 H 1.0312 0.65637 0.28725 0.0
C68 C 0.71382 0.85258 0.48261 0.0
N69 N 0.83658 0.98238 0.84715 0.0
C70 C 0.874 0.98464 0.70208 0.0
C71 C 0.91203 0.03912 0.60752 0.0
C72 C 0.91299 0.09182 0.66789 0.0
C73 C 0.87945 0.08957 0.83236 0.0
C74 C 0.84089 0.03389 0.91977 0.0
Zn75 Zn 0.75661 0.90183 0.8809 0.0
C76 C 0.65062 0.91587 0.82183 0.0
N77 N 0.5877 0.73325 0.9293 0.0
C78 C 0.56677 0.67388 0.88621 0.0
C79 C 0.55596 0.74866 0.05335 0.0
C80 C 0.5022 0.70567 0.13574 0.0
C81 C 0.47832 0.64466 0.0915 0.0
C82 C 0.51132 0.62841 -0.03479 0.0
Zn83 Zn 0.6725 0.80991 0.87468 0.0
O84 O 0.75456 0.89485 0.58105 0.0
C85 C 0.77577 0.79294 0.92128 0.0
O86 O 0.67161 0.80567 0.56565 0.0
H87 H 0.5731 0.79483 0.09732 0.0
H88 H 0.86952 0.94324 0.64465 0.0
H89 H 0.59302 0.66158 0.79328 0.0
O90 O 0.80339 0.85059 0.91212 0.0
O91 O 0.71872 0.76263 0.90026 0.0
H92 H 0.81006 0.03117 0.03211 0.0
O93 O 0.67671 0.81634 0.17478 0.0
O94 O 0.75646 0.90699 0.19032 0.0
O95 O 0.62855 0.85955 0.84158 0.0
O96 O 0.7072 0.95027 0.84204 0.0
C97 C 0.71589 0.85936 0.27359 0.0
H98 H 0.93719 0.03934 0.48066 0.0
H99 H 0.87894 0.12954 0.88164 0.0
H100 H 0.47889 0.72067 0.23252 0.0
H101 H 0.49394 0.5817 0.92468 0.0
C102 C 0.86809 0.69831 0.39775 0.0
N103 N 0.9979 0.82107 0.03319 0.0
C104 C 1.00015 0.85849 0.17827 0.0
C105 C 0.05464 0.89651 0.27282 0.0
C106 C 0.10734 0.89748 0.21245 0.0
C107 C 0.10509 0.86394 0.04798 0.0
C108 C 0.0494 0.82538 -0.03942 0.0
Zn109 Zn 0.91735 0.7411 -0.00055 0.0
C110 C 0.93138 0.63511 0.05854 0.0
N111 N 0.74876 0.57219 -0.04893 0.0
C112 C 0.68939 0.55125 -0.00583 0.0
C113 C 0.76417 0.54045 0.82702 0.0
C114 C 0.72117 0.48669 0.74463 0.0
C115 C 0.66017 0.46281 0.78885 0.0
C116 C 0.64392 0.4958 0.91518 0.0
Zn117 Zn 0.82542 0.65698 0.00569 0.0
O118 O 0.91037 0.73905 0.2993 0.0
C119 C 0.80845 0.76026 -0.04092 0.0
O120 O 0.82118 0.65609 0.31471 0.0
H121 H 0.81034 0.55759 0.78304 0.0
H122 H 0.95875 0.85401 0.2357 0.0
H123 H 0.67709 0.5775 0.08711 0.0
O124 O 0.8661 0.78788 -0.03177 0.0
O125 O 0.77815 0.70321 -0.0199 0.0
H126 H 0.04669 0.79455 0.84824 0.0
O127 O 0.83185 0.66119 0.70558 0.0
O128 O 0.9225 0.74095 0.69003 0.0
O129 O 0.87506 0.61303 0.03879 0.0
O130 O 0.96578 0.69169 0.0383 0.0
C131 C 0.87487 0.70038 0.60677 0.0
H132 H 0.05485 0.92167 0.39968 0.0
H133 H 0.14505 0.86343 -0.0013 0.0
H134 H 0.73618 0.46338 0.64785 0.0
H135 H 0.59721 0.47842 -0.04427 0.0
C136 C 0.40104 0.96456 0.15 0.0
N137 N 0.27132 0.95765 0.51511 0.0
C138 C 0.26915 0.99284 0.3704 0.0
C139 C 0.21469 0.97645 0.27597 0.0
C140 C 0.16193 0.92475 0.33611 0.0
C141 C 0.1641 0.89342 0.50024 0.0
C142 C 0.21976 0.91048 0.58752 0.0
Zn143 Zn 0.3518 0.95815 0.54848 0.0
C144 C 0.33762 0.83811 0.48877 0.0
N145 N 0.52031 0.95773 0.59631 0.0
C146 C 0.57973 0.99624 0.55392 0.0
C147 C 0.5048 0.91052 0.7198 0.0
C148 C 0.54773 0.89976 0.80228 0.0
C149 C 0.60878 0.93698 0.75882 0.0
C150 C 0.62513 0.98628 0.63307 0.0
Zn151 Zn 0.44372 0.96595 0.54187 0.0
O152 O 0.35876 0.96298 0.24867 0.0
C153 C 0.4608 0.08621 0.58882 0.0
O154 O 0.44794 0.96925 0.23283 0.0
H155 H 0.4586 0.88145 0.76342 0.0
H156 H 0.31059 0.02973 0.31312 0.0
H157 H 0.59212 0.03485 0.46152 0.0
O158 O 0.40314 0.05616 0.57986 0.0
O159 O 0.49108 0.05945 0.56783 0.0
H160 H 0.22241 0.88234 0.69958 0.0
O161 O 0.43729 0.96376 0.84196 0.0
O162 O 0.34669 0.95293 0.85789 0.0
O163 O 0.39395 0.87236 0.50828 0.0
O164 O 0.30326 0.8603 0.50935 0.0
C165 C 0.39429 0.95993 -0.05904 0.0
H166 H 0.21454 1.00142 0.14937 0.0
H167 H 0.12409 0.85298 0.54933 0.0
H168 H 0.53264 0.8614 0.89864 0.0
H169 H 0.67189 1.01569 0.59314 0.0
C170 C 0.5553 0.27327 0.06499 0.0
N171 N 0.43245 0.27997 0.70066 0.0
C172 C 0.3951 0.24493 0.84592 0.0
C173 C 0.35688 0.26128 0.93987 0.0
C174 C 0.35564 0.31275 0.87863 0.0
C175 C 0.3891 0.34385 0.71393 0.0
C176 C 0.42788 0.32686 0.62722 0.0
Zn177 Zn 0.51248 0.27963 0.66691 0.0
C178 C 0.61831 0.39977 0.72616 0.0
N179 N 0.68137 0.2802 0.61778 0.0
C180 C 0.70227 0.24173 0.66016 0.0
C181 C 0.71309 0.32736 0.49403 0.0
C182 C 0.7668 0.3381 0.41119 0.0
C183 C 0.79063 0.30095 0.45469 0.0
C184 C 0.75766 0.2517 0.58072 0.0
Zn185 Zn 0.59659 0.27193 0.67277 0.0
O186 O 0.51458 0.27481 -0.03323 0.0
C187 C 0.49348 0.15162 0.62624 0.0
O188 O 0.59753 0.26863 -0.01832 0.0
H189 H 0.69596 0.35639 0.45052 0.0
H190 H 0.39976 0.20822 0.90386 0.0
H191 H 0.67602 0.20317 0.75282 0.0
O192 O 0.46583 0.1816 0.63551 0.0
O193 O 0.55053 0.17844 0.64689 0.0
H194 H 0.45866 0.35487 0.51469 0.0
O195 O 0.59237 0.27409 0.37265 0.0
O196 O 0.51258 0.28485 0.35762 0.0
O197 O 0.64041 0.36555 0.70632 0.0
O198 O 0.56173 0.37751 0.70603 0.0
C199 C 0.55318 0.27788 0.27407 0.0
H200 H 0.33179 0.2365 0.06693 0.0
H201 H 0.38939 0.38411 0.664 0.0
H202 H 0.79009 0.37642 0.31463 0.0
H203 H 0.77502 0.22234 0.62067 0.0
loop_
_geom_bond_atom_site_label_1
_geom_bond_atom_site_label_2
_geom_bond_distance
_geom_bond_site_symmetry_2
_ccdc_geom_bond_type
C0 O16 1.251 1_556 S
C0 O18 1.254 1_556 S
N1 C2 1.333 . S
N1 C6 1.307 . S
N1 Zn7 2.020 . S
C2 N1 1.333 . S
C2 C3 1.379 . S
C2 H20 0.949 1_554 S
C3 C2 1.379 . S
C3 C4 1.390 . S
C3 H30 0.949 1_554 S
C4 C3 1.390 . S
C4 C5 1.357 . S
C5 C4 1.357 . S
C5 C6 1.370 . S
C5 H31 0.950 . S
C6 N1 1.307 . S
C6 C5 1.370 . S
C6 H24 0.948 . S
Zn7 N1 2.020 . S
Zn7 O16 2.039 . S
Zn7 O22 2.034 . S
Zn7 O26 2.025 . S
Zn7 O28 2.024 . S
C8 O27 1.246 . S
C8 O28 1.249 . S
N9 C10 1.307 . S
N9 C11 1.333 . S
N9 Zn15 2.020 . S
C10 N9 1.307 . S
C10 C14 1.370 . S
C10 H21 0.948 . S
C11 N9 1.333 . S
C11 C12 1.379 . S
C11 H19 0.952 . S
C12 C11 1.379 . S
C12 C13 1.390 . S
C12 H32 0.949 . S
C13 C12 1.390 . S
C13 C14 1.357 . S
C14 C10 1.370 . S
C14 C13 1.357 . S
C14 H33 0.950 . S
Zn15 N9 2.020 . S
Zn15 O18 2.025 . S
Zn15 O23 2.024 . S
Zn15 O25 2.039 . S
Zn15 O27 2.034 . S
O16 C0 1.251 1_554 S
O16 Zn7 2.039 . S
C17 O22 1.246 . S
C17 O23 1.249 . S
O18 C0 1.254 1_554 S
O18 Zn15 2.025 . S
H19 C11 0.952 . S
H20 C2 0.949 1_556 S
H21 C10 0.948 . S
O22 Zn7 2.034 . S
O22 C17 1.246 . S
O23 Zn15 2.024 . S
O23 C17 1.249 . S
H24 C6 0.948 . S
O25 Zn15 2.039 . S
O25 C29 1.251 . S
O26 Zn7 2.025 . S
O26 C29 1.254 . S
O27 C8 1.246 . S
O27 Zn15 2.034 . S
O28 Zn7 2.024 . S
O28 C8 1.249 . S
C29 O25 1.251 . S
C29 O26 1.254 . S
H30 C3 0.949 1_556 S
H31 C5 0.950 . S
H32 C12 0.949 . S
H33 C14 0.950 . S
C34 O50 1.251 . S
C34 O52 1.254 . S
N35 C36 1.333 . S
N35 C40 1.307 . S
N35 Zn41 2.020 . S
C36 N35 1.333 . S
C36 C37 1.379 . S
C36 H54 0.952 . S
C37 C36 1.379 . S
C37 C38 1.390 . S
C37 H64 0.949 . S
C38 C37 1.390 . S
C38 C39 1.357 . S
C39 C38 1.357 . S
C39 C40 1.370 . S
C39 H65 0.950 . S
C40 N35 1.307 . S
C40 C39 1.370 . S
C40 H58 0.948 . S
Zn41 N35 2.020 . S
Zn41 O50 2.039 . S
Zn41 O56 2.034 1_655 S
Zn41 O60 2.025 1_554 S
Zn41 O62 2.024 . S
C42 O61 1.246 . S
C42 O62 1.249 . S
N43 C44 1.307 . S
N43 C45 1.333 . S
N43 Zn49 2.020 . S
C44 N43 1.307 . S
C44 C48 1.370 . S
C44 H55 0.948 1_655 S
C45 N43 1.333 . S
C45 C46 1.379 1_554 S
C45 H53 0.952 1_554 S
C46 C45 1.379 1_556 S
C46 C47 1.390 1_556 S
C46 H66 0.949 . S
C47 C46 1.390 1_554 S
C47 C48 1.357 . S
C48 C44 1.370 . S
C48 C47 1.357 . S
C48 H67 0.950 1_655 S
Zn49 N43 2.020 . S
Zn49 O52 2.025 . S
Zn49 O57 2.024 1_655 S
Zn49 O59 2.039 1_554 S
Zn49 O61 2.034 . S
O50 C34 1.251 . S
O50 Zn41 2.039 . S
C51 O56 1.246 . S
C51 O57 1.249 . S
O52 C34 1.254 . S
O52 Zn49 2.025 . S
H53 C45 0.952 1_556 S
H54 C36 0.952 . S
H55 C44 0.948 1_455 S
O56 Zn41 2.034 1_455 S
O56 C51 1.246 . S
O57 Zn49 2.024 1_455 S
O57 C51 1.249 . S
H58 C40 0.948 . S
O59 Zn49 2.039 1_556 S
O59 C63 1.251 . S
O60 Zn41 2.025 1_556 S
O60 C63 1.254 . S
O61 C42 1.246 . S
O61 Zn49 2.034 . S
O62 Zn41 2.024 . S
O62 C42 1.249 . S
C63 O59 1.251 . S
C63 O60 1.254 . S
H64 C37 0.949 . S
H65 C39 0.950 . S
H66 C46 0.949 . S
H67 C48 0.950 1_455 S
C68 O84 1.251 . S
C68 O86 1.254 . S
N69 C70 1.333 . S
N69 C74 1.307 1_566 S
N69 Zn75 2.020 . S
C70 N69 1.333 . S
C70 C71 1.379 1_565 S
C70 H88 0.952 . S
C71 C70 1.379 1_545 S
C71 C72 1.390 . S
C71 H98 0.949 . S
C72 C71 1.390 . S
C72 C73 1.357 1_556 S
C73 C72 1.357 1_554 S
C73 C74 1.370 . S
C73 H99 0.950 . S
C74 N69 1.307 1_544 S
C74 C73 1.370 . S
C74 H92 0.948 1_545 S
Zn75 N69 2.020 . S
Zn75 O84 2.039 . S
Zn75 O90 2.034 . S
Zn75 O94 2.025 1_556 S
Zn75 O96 2.024 . S
C76 O95 1.246 1_556 S
C76 O96 1.249 . S
N77 C78 1.307 1_554 S
N77 C79 1.333 . S
N77 Zn83 2.020 . S
C78 N77 1.307 1_556 S
C78 C82 1.370 . S
C78 H89 0.948 . S
C79 N77 1.333 . S
C79 C80 1.379 . S
C79 H87 0.952 . S
C80 C79 1.379 . S
C80 C81 1.390 . S
C80 H100 0.949 . S
C81 C80 1.390 . S
C81 C82 1.357 1_554 S
C82 C78 1.370 . S
C82 C81 1.357 1_556 S
C82 H101 0.950 . S
Zn83 N77 2.020 . S
Zn83 O86 2.025 1_554 S
Zn83 O91 2.024 . S
Zn83 O93 2.039 . S
Zn83 O95 2.034 . S
O84 C68 1.251 . S
O84 Zn75 2.039 . S
C85 O90 1.246 1_554 S
C85 O91 1.249 . S
O86 C68 1.254 . S
O86 Zn83 2.025 1_556 S
H87 C79 0.952 . S
H88 C70 0.952 . S
H89 C78 0.948 . S
O90 Zn75 2.034 . S
O90 C85 1.246 1_556 S
O91 Zn83 2.024 . S
O91 C85 1.249 . S
H92 C74 0.948 1_565 S
O93 Zn83 2.039 . S
O93 C97 1.251 . S
O94 Zn75 2.025 1_554 S
O94 C97 1.254 . S
O95 C76 1.246 1_554 S
O95 Zn83 2.034 . S
O96 Zn75 2.024 . S
O96 C76 1.249 . S
C97 O93 1.251 . S
C97 O94 1.254 . S
H98 C71 0.949 . S
H99 C73 0.950 . S
H100 C80 0.949 . S
H101 C82 0.950 . S
C102 O118 1.251 . S
C102 O120 1.254 . S
N103 C104 1.333 . S
N103 C108 1.307 1_654 S
N103 Zn109 2.020 . S
C104 N103 1.333 . S
C104 C105 1.379 1_655 S
C104 H122 0.952 . S
C105 C104 1.379 1_455 S
C105 C106 1.390 . S
C105 H132 0.949 . S
C106 C105 1.390 . S
C106 C107 1.357 1_554 S
C107 C106 1.357 1_556 S
C107 C108 1.370 . S
C107 H133 0.950 . S
C108 N103 1.307 1_456 S
C108 C107 1.370 . S
C108 H126 0.944 . S
Zn109 N103 2.020 . S
Zn109 O118 2.039 . S
Zn109 O124 2.034 . S
Zn109 O128 2.025 1_554 S
Zn109 O130 2.024 . S
C110 O129 1.246 1_554 S
C110 O130 1.249 . S
N111 C112 1.307 1_556 S
N111 C113 1.333 . S
N111 Zn117 2.020 . S
C112 N111 1.307 1_554 S
C112 C116 1.370 . S
C112 H123 0.948 . S
C113 N111 1.333 . S
C113 C114 1.379 . S
C113 H121 0.952 . S
C114 C113 1.379 . S
C114 C115 1.390 . S
C114 H134 0.949 . S
C115 C114 1.390 . S
C115 C116 1.357 1_556 S
C116 C112 1.370 . S
C116 C115 1.357 1_554 S
C116 H135 0.950 . S
Zn117 N111 2.020 . S
Zn117 O120 2.025 1_556 S
Zn117 O125 2.024 . S
Zn117 O127 2.039 . S
Zn117 O129 2.034 . S
O118 C102 1.251 . S
O118 Zn109 2.039 . S
C119 O124 1.246 1_556 S
C119 O125 1.249 . S
O120 C102 1.254 . S
O120 Zn117 2.025 1_554 S
H121 C113 0.952 . S
H122 C104 0.952 . S
H123 C112 0.948 . S
O124 Zn109 2.034 . S
O124 C119 1.246 1_554 S
O125 Zn117 2.024 . S
O125 C119 1.249 . S
H126 C108 0.944 . S
O127 Zn117 2.039 . S
O127 C131 1.251 . S
O128 Zn109 2.025 1_556 S
O128 C131 1.254 . S
O129 C110 1.246 1_556 S
O129 Zn117 2.034 . S
O130 Zn109 2.024 . S
O130 C110 1.249 . S
C131 O127 1.251 . S
C131 O128 1.254 . S
H132 C105 0.949 . S
H133 C107 0.950 . S
H134 C114 0.949 . S
H135 C116 0.950 . S
C136 O152 1.251 . S
C136 O154 1.254 . S
N137 C138 1.333 . S
N137 C142 1.307 . S
N137 Zn143 2.020 . S
C138 N137 1.333 . S
C138 C139 1.379 . S
C138 H156 0.952 . S
C139 C138 1.379 . S
C139 C140 1.390 . S
C139 H166 0.949 . S
C140 C139 1.390 . S
C140 C141 1.357 . S
C141 C140 1.357 . S
C141 C142 1.370 . S
C141 H167 0.950 . S
C142 N137 1.307 . S
C142 C141 1.370 . S
C142 H160 0.948 . S
Zn143 N137 2.020 . S
Zn143 O152 2.039 . S
Zn143 O158 2.034 1_565 S
Zn143 O162 2.025 1_556 S
Zn143 O164 2.024 . S
C144 O163 1.246 . S
C144 O164 1.249 . S
N145 C146 1.307 . S
N145 C147 1.333 . S
N145 Zn151 2.020 . S
C146 N145 1.307 . S
C146 C150 1.370 . S
C146 H157 0.948 1_565 S
C147 N145 1.333 . S
C147 C148 1.379 1_556 S
C147 H155 0.952 1_556 S
C148 C147 1.379 1_554 S
C148 C149 1.390 1_554 S
C148 H168 0.949 . S
C149 C148 1.390 1_556 S
C149 C150 1.357 . S
C150 C146 1.370 . S
C150 C149 1.357 . S
C150 H169 0.950 1_565 S
Zn151 N145 2.020 . S
Zn151 O154 2.025 . S
Zn151 O159 2.024 1_565 S
Zn151 O161 2.039 1_556 S
Zn151 O163 2.034 . S
O152 C136 1.251 . S
O152 Zn143 2.039 . S
C153 O158 1.246 . S
C153 O159 1.249 . S
O154 C136 1.254 . S
O154 Zn151 2.025 . S
H155 C147 0.952 1_554 S
H156 C138 0.952 . S
H157 C146 0.948 1_545 S
O158 Zn143 2.034 1_545 S
O158 C153 1.246 . S
O159 Zn151 2.024 1_545 S
O159 C153 1.249 . S
H160 C142 0.948 . S
O161 Zn151 2.039 1_554 S
O161 C165 1.251 . S
O162 Zn143 2.025 1_554 S
O162 C165 1.254 . S
O163 C144 1.246 . S
O163 Zn151 2.034 . S
O164 Zn143 2.024 . S
O164 C144 1.249 . S
C165 O161 1.251 . S
C165 O162 1.254 . S
H166 C139 0.949 . S
H167 C141 0.950 . S
H168 C148 0.949 . S
H169 C150 0.950 1_545 S
C170 O186 1.251 1_554 S
C170 O188 1.254 1_554 S
N171 C172 1.333 . S
N171 C176 1.307 . S
N171 Zn177 2.020 . S
C172 N171 1.333 . S
C172 C173 1.379 . S
C172 H190 0.949 1_556 S
C173 C172 1.379 . S
C173 C174 1.390 . S
C173 H200 0.949 1_556 S
C174 C173 1.390 . S
C174 C175 1.357 . S
C175 C174 1.357 . S
C175 C176 1.370 . S
C175 H201 0.950 . S
C176 N171 1.307 . S
C176 C175 1.370 . S
C176 H194 0.948 . S
Zn177 N171 2.020 . S
Zn177 O186 2.039 . S
Zn177 O192 2.034 . S
Zn177 O196 2.025 . S
Zn177 O198 2.024 . S
C178 O197 1.246 . S
C178 O198 1.249 . S
N179 C180 1.307 . S
N179 C181 1.333 . S
N179 Zn185 2.020 . S
C180 N179 1.307 . S
C180 C184 1.370 . S
C180 H191 0.948 . S
C181 N179 1.333 . S
C181 C182 1.379 . S
C181 H189 0.952 . S
C182 C181 1.379 . S
C182 C183 1.390 . S
C182 H202 0.949 . S
C183 C182 1.390 . S
C183 C184 1.357 . S
C184 C180 1.370 . S
C184 C183 1.357 . S
C184 H203 0.950 . S
Zn185 N179 2.020 . S
Zn185 O188 2.025 . S
Zn185 O193 2.024 . S
Zn185 O195 2.039 . S
Zn185 O197 2.034 . S
O186 C170 1.251 1_556 S
O186 Zn177 2.039 . S
C187 O192 1.246 . S
C187 O193 1.249 . S
O188 C170 1.254 1_556 S
O188 Zn185 2.025 . S
H189 C181 0.952 . S
H190 C172 0.949 1_554 S
H191 C180 0.948 . S
O192 Zn177 2.034 . S
O192 C187 1.246 . S
O193 Zn185 2.024 . S
O193 C187 1.249 . S
H194 C176 0.948 . S
O195 Zn185 2.039 . S
O195 C199 1.251 . S
O196 Zn177 2.025 . S
O196 C199 1.254 . S
O197 C178 1.246 . S
O197 Zn185 2.034 . S
O198 Zn177 2.024 . S
O198 C178 1.249 . S
C199 O195 1.251 . S
C199 O196 1.254 . S
H200 C173 0.949 1_554 S
H201 C175 0.950 . S
H202 C182 0.949 . S
H203 C184 0.950 . S
C174 C4 2.508 1_556 S
C17 C51 2.570 . S
C38 C72 2.521 . S
C85 C119 2.381 1_554 S
C140 C106 2.522 . S
C187 C153 2.570 . S
C0 C29 1.144 . S
C63 C34 1.126 . S
C68 C97 1.159 . S
C131 C102 1.159 . S
C165 C136 1.126 . S
C199 C170 1.144 . S
C13 C144 2.896 . S
C42 C183 2.896 . S
C8 C81 2.959 . S
C47 C110 2.895 . S
C149 C76 2.895 . S
C115 C178 2.959 . S
