# Generated by pormake.
# Topology qtz-x, (6)-cn, num edge types: 1
# Building blocks:
#     Node 0, Type 0, BuildingBlock: MIFKUJ_clean_sbu_0, # of connection points: 6
#     Node 1, Type 0, BuildingBlock: MIFKUJ_clean_sbu_0, # of connection points: 6
#     Node 2, Type 0, BuildingBlock: MIFKUJ_clean_sbu_0, # of connection points: 6
#     Edge 3, Type (0, 0), BuildingBlock: EYOCIG_clean_linker_4, # of connection points: 2
#     Edge 4, Type (0, 0), BuildingBlock: EYOCIG_clean_linker_4, # of connection points: 2
#     Edge 5, Type (0, 0), BuildingBlock: EYOCIG_clean_linker_4, # of connection points: 2
#     Edge 6, Type (0, 0), BuildingBlock: EYOCIG_clean_linker_4, # of connection points: 2
#     Edge 7, Type (0, 0), BuildingBlock: EYOCIG_clean_linker_4, # of connection points: 2
#     Edge 8, Type (0, 0), BuildingBlock: EYOCIG_clean_linker_4, # of connection points: 2
#     Edge 9, Type (0, 0), BuildingBlock: EYOCIG_clean_linker_4, # of connection points: 2
#     Edge 10, Type (0, 0), BuildingBlock: EYOCIG_clean_linker_4, # of connection points: 2
#     Edge 11, Type (0, 0), BuildingBlock: EYOCIG_clean_linker_4, # of connection points: 2
# Relax obj value: 0.182
# Max RMSD: 0.245
# Mean RMSD: 0.244
data_MOF--net-qtz-x--node1-MIFKUJ_clean_sbu_0--edge1-EYOCIG_clean_linker_4
_symmetry_space_group_name_H-M    P1
_symmetry_Int_Tables_number       1
_symmetry_cell_setting            triclinic
loop_
_symmetry_equiv_pos_as_xyz
'x, y, z'
_cell_length_a     11.44027
_cell_length_b     11.421497
_cell_length_c     38.000374
_cell_angle_alpha  96.677616
_cell_angle_beta   87.541819
_cell_angle_gamma 119.96936
loop_
_atom_site_label
_atom_site_type_symbol
_atom_site_fract_x
_atom_site_fract_y
_atom_site_fract_z
_atom_type_partial_charge
Zn0 Zn 0.09301 0.50843 0.21204 0.0
Zn1 Zn 0.91985 0.41409 0.14048 0.0
C2 C 0.89232 0.47427 0.26168 0.0
O3 O -0.03043 0.6069 0.26626 0.0
C4 C 0.0941 0.45314 0.08219 0.0
O5 O 0.00962 0.32235 0.07555 0.0
O6 O 0.21951 0.58373 0.25426 0.0
O7 O 0.13042 0.37312 0.18281 0.0
O8 O 0.9225 0.25945 0.16112 0.0
C9 C 0.21828 0.50176 0.27441 0.0
O10 O 0.1483 0.37023 0.26513 0.0
O11 O 0.9147 0.40644 0.2361 0.0
C12 C 0.76423 0.39691 0.08222 0.0
O13 O 0.85179 0.52762 0.08499 0.0
O14 O 0.76755 0.32387 0.10444 0.0
O15 O 0.89412 0.55514 0.17154 0.0
O16 O 0.10596 0.66746 0.19028 0.0
O17 O 0.08489 0.51687 0.11087 0.0
C18 C 0.02779 0.26181 0.17142 0.0
C19 C 8e-05 0.66656 0.18115 0.0
Zn20 Zn 0.44921 0.94726 0.54264 0.0
Zn21 Zn 0.54385 0.10038 0.47546 0.0
C22 C 0.58937 0.14072 0.60122 0.0
O23 O 0.64585 0.06515 0.60133 0.0
C24 C 0.38993 0.87678 0.4248 0.0
O25 O 0.34551 0.95825 0.41834 0.0
O26 O 0.37581 0.81183 0.57807 0.0
O27 O 0.28961 0.91398 0.51362 0.0
O28 O 0.39656 0.12423 0.50002 0.0
C29 C 0.28457 0.81246 0.59819 0.0
O30 O 0.23049 0.88603 0.59202 0.0
O31 O 0.51149 0.1208 0.57556 0.0
C32 C 0.66316 0.1919 0.40965 0.0
O33 O 0.69957 0.10059 0.41157 0.0
O34 O 0.6006 0.21709 0.43509 0.0
O35 O 0.71025 0.14496 0.50285 0.0
O36 O 0.60893 0.93935 0.52021 0.0
O37 O 0.47056 0.90977 0.45073 0.0
C38 C 0.28791 0.01911 0.50675 0.0
C39 C 0.7154 0.04422 0.51202 0.0
Zn40 Zn 0.45677 0.43451 0.87585 0.0
Zn41 Zn 0.36995 0.51615 0.80875 0.0
C42 C 0.42644 0.5962 0.93383 0.0
O43 O 0.55852 0.65518 0.93368 0.0
C44 C 0.4166 0.37031 0.74913 0.0
O45 O 0.28911 0.3297 0.74324 0.0
O46 O 0.53122 0.37222 0.91166 0.0
O47 O 0.32074 0.26551 0.8462 0.0
O48 O 0.21137 0.36596 0.8314 0.0
C49 C 0.44767 0.28877 0.93195 0.0
O50 O 0.31758 0.23505 0.92628 0.0
O51 O 0.35821 0.5084 0.90825 0.0
C52 C 0.3651 0.64755 0.75092 0.0
O53 O 0.49507 0.69168 0.75275 0.0
O54 O 0.2875 0.57441 0.77384 0.0
O55 O 0.50623 0.68521 0.83841 0.0
O56 O 0.61598 0.58492 0.8534 0.0
O57 O 0.47446 0.44444 0.77759 0.0
C58 C 0.21145 0.26016 0.83839 0.0
C59 C 0.61568 0.6905 0.84619 0.0
C60 C 0.00989 0.90103 0.17755 0.0
C61 C 0.00375 0.79314 0.17905 0.0
C62 C 0.01924 0.02809 0.17527 0.0
C63 C 0.02506 0.1358 0.17371 0.0
C64 C 0.0617 0.02845 0.50903 0.0
C65 C 0.16375 0.02184 0.50814 0.0
C66 C 0.94341 0.03841 0.51016 0.0
C67 C 0.84083 0.04399 0.51077 0.0
C68 C 0.8498 0.91633 0.84315 0.0
C69 C 0.74175 0.81441 0.84437 0.0
C70 C -0.0226 0.03418 0.84134 0.0
C71 C 0.08539 0.1362 0.84015 0.0
C72 C 0.30831 0.59452 0.9952 0.0
C73 C 0.36166 0.59486 0.96711 0.0
C74 C 0.24366 0.56808 0.0282 0.0
C75 C 0.1799 0.52547 0.0544 0.0
C76 C 0.71108 0.30229 0.34972 0.0
C77 C 0.68628 0.25552 0.37771 0.0
C78 C 0.75667 0.35619 0.31709 0.0
C79 C 0.81736 0.40634 0.29123 0.0
C80 C 0.27738 0.68726 0.69315 0.0
C81 C 0.30982 0.66517 0.72022 0.0
C82 C 0.26056 0.72107 0.66003 0.0
C83 C 0.26822 0.7641 0.63211 0.0
C84 C 0.54272 0.27673 0.99247 0.0
C85 C 0.49489 0.27915 0.96516 0.0
C86 C 0.60897 0.29883 0.02499 0.0
C87 C 0.67617 0.33563 0.05178 0.0
C88 C 0.30749 0.60578 0.33971 0.0
C89 C 0.26502 0.55134 0.31037 0.0
C90 C 0.34406 0.68497 0.37291 0.0
C91 C 0.3708 0.76852 0.39823 0.0
C92 C 0.54007 0.31729 0.69475 0.0
C93 C 0.49298 0.34653 0.72104 0.0
C94 C 0.57332 0.27013 0.66193 0.0
C95 C 0.58037 0.21117 0.63416 0.0
loop_
_geom_bond_atom_site_label_1
_geom_bond_atom_site_label_2
_geom_bond_distance
_geom_bond_site_symmetry_2
_ccdc_geom_bond_type
Zn0 O6 1.969 . S
Zn0 O7 1.965 . S
Zn0 O11 2.024 1_455 S
Zn0 O16 1.969 . S
Zn1 O8 1.969 . S
Zn1 O14 1.969 1_455 S
Zn1 O15 1.965 1_455 S
Zn1 O17 2.024 . S
C2 O3 1.229 . S
C2 O11 1.058 . S
O3 C2 1.229 . S
C4 O5 1.229 . S
C4 O17 1.058 . S
O5 C4 1.229 . S
O6 Zn0 1.969 . S
O6 C9 1.267 . S
O7 Zn0 1.965 . S
O7 C18 1.260 . S
O8 Zn1 1.969 . S
O8 C18 1.258 . S
C9 O6 1.267 . S
C9 O10 1.228 . S
O10 C9 1.228 . S
O11 Zn0 2.024 1_655 S
O11 C2 1.058 . S
C12 O13 1.228 . S
C12 O14 1.267 . S
O13 C12 1.228 . S
O14 Zn1 1.969 1_655 S
O14 C12 1.267 . S
O15 Zn1 1.965 1_655 S
O15 C19 1.260 1_655 S
O16 Zn0 1.969 . S
O16 C19 1.258 . S
O17 Zn1 2.024 . S
O17 C4 1.058 . S
C18 O7 1.260 . S
C18 O8 1.258 . S
C19 O15 1.260 1_455 S
C19 O16 1.258 . S
Zn20 O26 1.969 1_545 S
Zn20 O27 1.965 1_545 S
Zn20 O31 2.024 . S
Zn20 O36 1.969 . S
Zn21 O28 1.969 . S
Zn21 O34 1.969 . S
Zn21 O35 1.965 . S
Zn21 O37 2.024 1_545 S
C22 O23 1.229 . S
C22 O31 1.058 . S
O23 C22 1.229 . S
C24 O25 1.229 . S
C24 O37 1.058 . S
O25 C24 1.229 . S
O26 Zn20 1.969 1_565 S
O26 C29 1.267 . S
O27 Zn20 1.965 1_565 S
O27 C38 1.256 1_565 S
O28 Zn21 1.969 . S
O28 C38 1.259 . S
C29 O26 1.267 . S
C29 O30 1.228 . S
O30 C29 1.228 . S
O31 Zn20 2.024 . S
O31 C22 1.058 . S
C32 O33 1.228 . S
C32 O34 1.267 . S
O33 C32 1.228 . S
O34 Zn21 1.969 . S
O34 C32 1.267 . S
O35 Zn21 1.965 . S
O35 C39 1.260 . S
O36 Zn20 1.969 . S
O36 C39 1.258 . S
O37 Zn21 2.024 1_565 S
O37 C24 1.058 . S
C38 O27 1.256 1_545 S
C38 O28 1.259 . S
C39 O35 1.260 . S
C39 O36 1.258 . S
Zn40 O46 1.969 . S
Zn40 O47 1.965 . S
Zn40 O51 2.024 . S
Zn40 O56 1.969 . S
Zn41 O48 1.969 . S
Zn41 O54 1.969 . S
Zn41 O55 1.965 . S
Zn41 O57 2.024 . S
C42 O43 1.229 . S
C42 O51 1.058 . S
O43 C42 1.229 . S
C44 O45 1.229 . S
C44 O57 1.058 . S
O45 C44 1.229 . S
O46 Zn40 1.969 . S
O46 C49 1.267 . S
O47 Zn40 1.965 . S
O47 C58 1.260 . S
O48 Zn41 1.969 . S
O48 C58 1.258 . S
C49 O46 1.267 . S
C49 O50 1.228 . S
O50 C49 1.228 . S
O51 Zn40 2.024 . S
O51 C42 1.058 . S
C52 O53 1.228 . S
C52 O54 1.267 . S
O53 C52 1.228 . S
O54 Zn41 1.969 . S
O54 C52 1.267 . S
O55 Zn41 1.965 . S
O55 C59 1.260 . S
O56 Zn40 1.969 . S
O56 C59 1.258 . S
O57 Zn41 2.024 . S
O57 C44 1.058 . S
C58 O47 1.260 . S
C58 O48 1.258 . S
C59 O55 1.260 . S
C59 O56 1.258 . S
C60 C61 1.170 . S
C60 C62 1.380 1_565 S
C61 C60 1.170 . S
C62 C60 1.380 1_545 S
C62 C63 1.170 . S
C63 C62 1.170 . S
C64 C65 1.170 . S
C64 C66 1.380 1_455 S
C65 C64 1.170 . S
C66 C64 1.380 1_655 S
C66 C67 1.170 . S
C67 C66 1.170 . S
C68 C69 1.170 . S
C68 C70 1.380 1_665 S
C69 C68 1.170 . S
C70 C68 1.380 1_445 S
C70 C71 1.170 . S
C71 C70 1.170 . S
C72 C73 1.170 . S
C72 C74 1.380 1_556 S
C73 C72 1.170 . S
C74 C72 1.380 1_554 S
C74 C75 1.170 . S
C75 C74 1.170 . S
C76 C77 1.170 . S
C76 C78 1.380 . S
C77 C76 1.170 . S
C78 C76 1.380 . S
C78 C79 1.170 . S
C79 C78 1.170 . S
C80 C81 1.170 . S
C80 C82 1.380 . S
C81 C80 1.170 . S
C82 C80 1.380 . S
C82 C83 1.170 . S
C83 C82 1.170 . S
C84 C85 1.170 . S
C84 C86 1.380 1_556 S
C85 C84 1.170 . S
C86 C84 1.380 1_554 S
C86 C87 1.170 . S
C87 C86 1.170 . S
C88 C89 1.170 . S
C88 C90 1.380 . S
C89 C88 1.170 . S
C90 C88 1.380 . S
C90 C91 1.170 . S
C91 C90 1.170 . S
C92 C93 1.170 . S
C92 C94 1.380 . S
C93 C92 1.170 . S
C94 C92 1.380 . S
C94 C95 1.170 . S
C95 C94 1.170 . S
C61 C19 1.580 . S
C63 C18 1.599 . S
C65 C38 1.594 . S
C67 C39 1.567 . S
C69 C59 1.593 . S
C71 C58 1.584 . S
C73 C42 1.173 . S
C75 C4 1.168 . S
C77 C32 1.255 . S
C79 C2 1.216 . S
C81 C52 1.197 . S
C83 C29 1.162 . S
C85 C49 1.151 . S
C87 C12 1.191 . S
C89 C9 1.127 . S
C91 C24 1.095 . S
C93 C44 1.182 . S
C95 C22 1.162 . S
