# Generated by pormake.
# Topology unj, (4)-cn, num edge types: 1
# Building blocks:
#     Node 0, Type 0, BuildingBlock: CEKHIL_clean_sbu_0, # of connection points: 4
#     Node 1, Type 0, BuildingBlock: CEKHIL_clean_sbu_0, # of connection points: 4
#     Node 2, Type 0, BuildingBlock: CEKHIL_clean_sbu_0, # of connection points: 4
#     Node 3, Type 0, BuildingBlock: CEKHIL_clean_sbu_0, # of connection points: 4
#     Node 4, Type 0, BuildingBlock: CEKHIL_clean_sbu_0, # of connection points: 4
#     Node 5, Type 0, BuildingBlock: CEKHIL_clean_sbu_0, # of connection points: 4
#     Edge 6, Type (0, 0), BuildingBlock: OJICUG_clean_linker_0, # of connection points: 2
#     Edge 7, Type (0, 0), BuildingBlock: OJICUG_clean_linker_0, # of connection points: 2
#     Edge 8, Type (0, 0), BuildingBlock: OJICUG_clean_linker_0, # of connection points: 2
#     Edge 9, Type (0, 0), BuildingBlock: OJICUG_clean_linker_0, # of connection points: 2
#     Edge 10, Type (0, 0), BuildingBlock: OJICUG_clean_linker_0, # of connection points: 2
#     Edge 11, Type (0, 0), BuildingBlock: OJICUG_clean_linker_0, # of connection points: 2
#     Edge 12, Type (0, 0), BuildingBlock: OJICUG_clean_linker_0, # of connection points: 2
#     Edge 13, Type (0, 0), BuildingBlock: OJICUG_clean_linker_0, # of connection points: 2
#     Edge 14, Type (0, 0), BuildingBlock: OJICUG_clean_linker_0, # of connection points: 2
#     Edge 15, Type (0, 0), BuildingBlock: OJICUG_clean_linker_0, # of connection points: 2
#     Edge 16, Type (0, 0), BuildingBlock: OJICUG_clean_linker_0, # of connection points: 2
#     Edge 17, Type (0, 0), BuildingBlock: OJICUG_clean_linker_0, # of connection points: 2
# Relax obj value: 0.027
# Max RMSD: 0.079
# Mean RMSD: 0.079
data_MOF--net-unj--node1-CEKHIL_clean_sbu_0--edge1-OJICUG_clean_linker_0
_symmetry_space_group_name_H-M    P1
_symmetry_Int_Tables_number       1
_symmetry_cell_setting            triclinic
loop_
_symmetry_equiv_pos_as_xyz
'x, y, z'
_cell_length_a     22.660821
_cell_length_b     22.711261
_cell_length_c     27.399966
_cell_angle_alpha  89.961699
_cell_angle_beta   90.035952
_cell_angle_gamma 119.97248
loop_
_atom_site_label
_atom_site_type_symbol
_atom_site_fract_x
_atom_site_fract_y
_atom_site_fract_z
_atom_type_partial_charge
Co0 Co 0.55649 0.29462 0.56729 0.0
O1 O 0.57528 0.38045 0.59355 0.0
O2 O 0.47932 0.28396 0.60577 0.0
C3 C 0.59299 0.33529 0.49159 0.0
O4 O 0.51808 0.19627 0.54391 0.0
Co5 Co 0.67477 0.27748 0.52557 0.0
O6 O 0.60012 0.18896 0.50268 0.0
C7 C 0.65691 0.27894 0.63212 0.0
C8 C 0.51491 0.3494 0.6126 0.0
C9 C 0.53894 0.16299 0.51776 0.0
O10 O 0.60038 0.27878 0.62622 0.0
O11 O 0.69566 0.28268 0.59687 0.0
O12 O 0.53119 0.31727 0.50483 0.0
O13 O 0.6314 0.33215 0.52498 0.0
Co14 Co 0.29774 0.53763 0.73406 0.0
O15 O 0.23046 0.55629 0.76039 0.0
O16 O 0.23139 0.46056 0.77252 0.0
C17 C 0.29344 0.5742 0.65839 0.0
O18 O 0.35787 0.4993 0.7106 0.0
Co19 Co 0.43311 0.65557 0.69222 0.0
O20 O 0.44708 0.58105 0.6692 0.0
C21 C 0.4138 0.63783 0.79879 0.0
C22 C 0.20131 0.496 0.7794 0.0
C23 C 0.41195 0.52001 0.68433 0.0
O24 O 0.3575 0.58138 0.79296 0.0
O25 O 0.44874 0.67647 0.7635 0.0
O26 O 0.24975 0.51251 0.67161 0.0
O27 O 0.335 0.61244 0.69177 0.0
Co28 Co 0.79565 0.27832 0.90087 0.0
O29 O 0.70977 0.21114 0.92726 0.0
O30 O 0.80669 0.21218 0.9394 0.0
C31 C 0.75473 0.27391 0.82519 0.0
O32 O 0.89412 0.33847 0.87737 0.0
Co33 Co 0.81234 0.41325 0.85894 0.0
O34 O 0.90106 0.42738 0.83594 0.0
C35 C 0.81122 0.39419 0.96552 0.0
C36 C 0.74111 0.18211 0.9463 0.0
C37 C 0.92728 0.39246 0.85108 0.0
O38 O 0.81146 0.33797 0.95972 0.0
O39 O 0.80732 0.42901 0.93022 0.0
O40 O 0.77297 0.23039 0.83847 0.0
O41 O 0.75779 0.31534 0.85853 0.0
Co42 Co 0.55317 0.77687 0.06735 0.0
O43 O 0.53435 0.691 0.09363 0.0
O44 O 0.63032 0.78747 0.10587 0.0
C45 C 0.51669 0.73627 -0.00836 0.0
O46 O 0.59162 0.87524 0.04396 0.0
Co47 Co 0.43496 0.79411 0.02552 0.0
O48 O 0.50962 0.88266 0.00267 0.0
C49 C 0.45279 0.79259 0.13208 0.0
C50 C 0.59472 0.72202 0.1127 0.0
C51 C 0.5708 0.90858 0.01779 0.0
O52 O 0.50929 0.79267 0.12623 0.0
O53 O 0.41406 0.78892 0.09681 0.0
O54 O 0.57849 0.75428 0.00493 0.0
O55 O 0.47827 0.73939 0.02498 0.0
Co56 Co 0.8121 0.53371 0.23401 0.0
O57 O 0.87942 0.51508 0.26039 0.0
O58 O 0.87844 0.61077 0.27246 0.0
C59 C 0.81639 0.49721 0.15836 0.0
O60 O 0.75193 0.57202 0.21051 0.0
Co61 Co 0.67674 0.41578 0.19215 0.0
O62 O 0.66269 0.49029 0.16913 0.0
C63 C 0.69601 0.4335 0.29872 0.0
C64 C 0.90856 0.57536 0.27937 0.0
C65 C 0.69782 0.55131 0.18425 0.0
O66 O 0.75236 0.48991 0.2929 0.0
O67 O 0.66106 0.39489 0.26344 0.0
O68 O 0.86006 0.5589 0.17158 0.0
O69 O 0.77485 0.45893 0.19173 0.0
Co70 Co 0.31434 0.79334 0.40078 0.0
O71 O 0.40019 0.86057 0.42719 0.0
O72 O 0.30323 0.85942 0.43925 0.0
C73 C 0.35526 0.7978 0.32512 0.0
O74 O 0.21587 0.73314 0.37725 0.0
Co75 Co 0.29775 0.65847 0.35893 0.0
O76 O 0.20898 0.64426 0.33589 0.0
C77 C 0.29879 0.67744 0.4655 0.0
C78 C 0.36881 0.88953 0.44619 0.0
C79 C 0.18273 0.67914 0.35099 0.0
O80 O 0.29855 0.73367 0.45966 0.0
O81 O 0.30272 0.64265 0.43023 0.0
O82 O 0.33698 0.84129 0.33835 0.0
O83 O 0.35223 0.75638 0.3585 0.0
C84 C 0.42113 0.06352 0.50044 0.0
C85 C 0.49193 0.09069 0.50513 0.0
H86 H 0.32574 0.97784 0.47777 0.0
C87 C 0.51953 0.04871 0.495 0.0
H88 H 0.3984 0.09462 0.50813 0.0
C89 C 0.47844 0.98259 0.4783 0.0
C90 C 0.40839 0.95629 0.47082 0.0
H91 H 0.5736 0.06741 0.49908 0.0
H92 H 0.50235 0.95277 0.46979 0.0
C93 C 0.37962 0.99676 0.48313 0.0
C94 C 0.41869 0.36068 0.64983 0.0
C95 C 0.48787 0.38918 0.63719 0.0
H96 H 0.33974 0.37976 0.67514 0.0
C97 C 0.53167 0.45911 0.64437 0.0
H98 H 0.38369 0.3069 0.6447 0.0
C99 C 0.50673 0.50031 0.66111 0.0
C100 C 0.4372 0.47296 0.67159 0.0
H101 H 0.58537 0.48282 0.63561 0.0
H102 H 0.54214 0.55427 0.66496 0.0
C103 C 0.39354 0.40231 0.66717 0.0
C104 C 1.0416 0.48729 0.82784 0.0
C105 C 0.99971 0.41788 0.83835 0.0
H106 H 0.13761 0.56596 0.80233 0.0
C107 C 1.02711 0.3745 0.83397 0.0
H108 H 1.02273 0.52248 0.83166 0.0
C109 C 0.09399 0.39979 0.81664 0.0
C110 C 0.13439 0.46885 0.80398 0.0
H111 H 0.99608 0.32079 0.84195 0.0
H112 H 0.11309 0.365 0.81155 0.0
C113 C 0.10786 0.51238 0.81112 0.0
C114 C 0.59029 1.02292 -0.00498 0.0
C115 C 0.61784 0.98089 0.00518 0.0
H116 H 0.60755 0.11892 0.9698 0.0
C117 C 0.68864 1.00803 0.00055 0.0
H118 H 0.53622 1.00424 -0.00096 0.0
C119 C 0.7302 0.07481 -0.01672 0.0
C120 C 0.70148 0.11533 0.97092 0.0
H121 H 0.71133 0.97688 0.00828 0.0
H122 H 0.78408 0.09371 0.97796 0.0
C123 C 0.63143 0.08907 0.97834 0.0
C124 C 0.71615 0.66903 0.16719 0.0
C125 C 0.67252 0.59836 0.17154 0.0
H126 H 0.72595 0.76449 0.14484 0.0
C127 C 0.60299 0.57101 0.16103 0.0
H128 H 0.76996 0.69158 0.17518 0.0
C129 C 0.57801 0.61224 0.14436 0.0
C130 C 0.62178 0.68219 0.13725 0.0
H131 H 0.56761 0.51703 0.16483 0.0
H132 H 0.52432 0.58852 0.13557 0.0
C133 C 0.69098 0.71069 0.14991 0.0
C134 C 0.06844 0.58424 0.32776 0.0
C135 C 0.11027 0.65365 0.33826 0.0
H136 H 0.97243 0.50551 0.30227 0.0
C137 C 0.08279 0.69697 0.33388 0.0
H138 H 0.08737 0.5491 0.33157 0.0
C139 C 1.01587 0.67161 0.31657 0.0
C140 C 0.97552 0.60256 0.30393 0.0
H141 H 0.11377 0.75067 0.34186 0.0
H142 H 0.9967 0.70636 0.31149 0.0
C143 C 1.00214 0.55909 0.31106 0.0
C144 C 0.68961 0.40126 0.43444 0.0
C145 C 0.61912 0.36088 0.44237 0.0
H146 H 0.76931 0.45743 0.38269 0.0
C147 C 0.57415 0.34627 0.40317 0.0
H148 H 0.72535 0.41365 0.46424 0.0
C149 C 0.59933 0.37041 0.3565 0.0
C150 C 0.66984 0.41088 0.3485 0.0
H151 H 0.51962 0.31537 0.4084 0.0
H152 H 0.56356 0.35761 0.32667 0.0
C153 C 0.71475 0.42675 0.38797 0.0
C154 C 0.32386 0.69592 0.55479 0.0
C155 C 0.29508 0.6512 0.51527 0.0
H156 H 0.34723 0.7063 0.63111 0.0
C157 C 0.26512 0.58083 0.52324 0.0
H158 H 0.34766 0.75036 0.54954 0.0
C159 C 0.26391 0.55558 0.56992 0.0
C160 C 0.29404 0.60036 0.60917 0.0
H161 H 0.24234 0.54521 0.49337 0.0
H162 H 0.24036 0.50116 0.57513 0.0
C163 C 0.32406 0.67071 0.60127 0.0
C164 C 0.74411 0.2444 0.73675 0.0
C165 C 0.72922 0.27447 0.77591 0.0
H166 H 0.73311 0.22277 0.66023 0.0
C167 C 0.68869 0.30439 0.76788 0.0
H168 H 0.77514 0.22093 0.74206 0.0
C169 C 0.66333 0.30412 0.72136 0.0
C170 C 0.67948 0.27537 0.68193 0.0
H171 H 0.67609 0.32752 0.79766 0.0
H172 H 0.63252 0.32783 0.71602 0.0
C173 C 0.7201 0.24553 0.69003 0.0
C174 C 0.51043 0.70101 0.85661 0.0
C175 C 0.43994 0.66049 0.84857 0.0
H176 H 0.59011 0.75616 0.90854 0.0
C177 C 0.395 0.64465 0.88798 0.0
H178 H 0.54623 0.7138 0.82682 0.0
C179 C 0.4201 0.67022 0.93444 0.0
C180 C 0.49058 0.71064 0.94242 0.0
H181 H 0.34045 0.61393 0.88267 0.0
H182 H 0.38435 0.65784 0.96421 0.0
C183 C 0.53558 0.72523 0.90327 0.0
C184 C 0.8448 0.49074 0.02324 0.0
C185 C 0.81488 0.42038 0.01528 0.0
H186 H 0.86948 0.57035 0.07511 0.0
C187 C 0.78608 0.37562 0.05479 0.0
H188 H 0.86759 0.52639 -0.00662 0.0
C189 C 0.78584 0.40076 0.10126 0.0
C190 C 0.81582 0.4711 0.10915 0.0
H191 H 0.76231 0.32118 0.04956 0.0
H192 H 0.76266 0.36514 0.13109 0.0
C193 C 0.84596 0.51593 0.0699 0.0
C194 C 0.4212 0.76727 0.26788 0.0
C195 C 0.3807 0.7972 0.27586 0.0
H196 H 0.47728 0.74376 0.21606 0.0
C197 C 0.36574 0.82723 0.23664 0.0
H198 H 0.43385 0.74417 0.29768 0.0
C199 C 0.38967 0.82604 0.18993 0.0
C200 C 0.43027 0.79619 0.18188 0.0
H201 H 0.33472 0.85071 0.24191 0.0
H202 H 0.37662 0.84877 0.1601 0.0
C203 C 0.44648 0.76747 0.22135 0.0
loop_
_geom_bond_atom_site_label_1
_geom_bond_atom_site_label_2
_geom_bond_distance
_geom_bond_site_symmetry_2
_ccdc_geom_bond_type
Co0 O1 2.216 . S
Co0 O2 2.091 . S
Co0 O4 2.004 . S
Co0 O10 2.021 . S
Co0 O12 2.137 . S
Co0 O13 2.244 . S
O1 Co0 2.216 . S
O1 C8 1.247 . S
O2 Co0 2.091 . S
O2 C8 1.261 . S
C3 O12 1.247 . S
C3 O13 1.272 . S
O4 Co0 2.004 . S
O4 C9 1.259 . S
Co5 O6 2.061 . S
Co5 O11 2.052 . S
Co5 O13 2.135 . S
O6 Co5 2.061 . S
O6 C9 1.235 . S
C7 O10 1.238 . S
C7 O11 1.241 . S
C8 O1 1.247 . S
C8 O2 1.261 . S
C9 O4 1.259 . S
C9 O6 1.235 . S
O10 Co0 2.021 . S
O10 C7 1.238 . S
O11 Co5 2.052 . S
O11 C7 1.241 . S
O12 Co0 2.137 . S
O12 C3 1.247 . S
O13 Co0 2.244 . S
O13 C3 1.272 . S
O13 Co5 2.135 . S
Co14 O15 2.216 . S
Co14 O16 2.091 . S
Co14 O18 2.004 . S
Co14 O24 2.021 . S
Co14 O26 2.137 . S
Co14 O27 2.244 . S
O15 Co14 2.216 . S
O15 C22 1.247 . S
O16 Co14 2.091 . S
O16 C22 1.261 . S
C17 O26 1.247 . S
C17 O27 1.272 . S
O18 Co14 2.004 . S
O18 C23 1.259 . S
Co19 O20 2.061 . S
Co19 O25 2.052 . S
Co19 O27 2.135 . S
O20 Co19 2.061 . S
O20 C23 1.235 . S
C21 O24 1.238 . S
C21 O25 1.241 . S
C22 O15 1.247 . S
C22 O16 1.261 . S
C23 O18 1.259 . S
C23 O20 1.235 . S
O24 Co14 2.021 . S
O24 C21 1.238 . S
O25 Co19 2.052 . S
O25 C21 1.241 . S
O26 Co14 2.137 . S
O26 C17 1.247 . S
O27 Co14 2.244 . S
O27 C17 1.272 . S
O27 Co19 2.135 . S
Co28 O29 2.216 . S
Co28 O30 2.091 . S
Co28 O32 2.004 . S
Co28 O38 2.021 . S
Co28 O40 2.137 . S
Co28 O41 2.244 . S
O29 Co28 2.216 . S
O29 C36 1.247 . S
O30 Co28 2.091 . S
O30 C36 1.261 . S
C31 O40 1.247 . S
C31 O41 1.272 . S
O32 Co28 2.004 . S
O32 C37 1.259 . S
Co33 O34 2.061 . S
Co33 O39 2.052 . S
Co33 O41 2.135 . S
O34 Co33 2.061 . S
O34 C37 1.235 . S
C35 O38 1.238 . S
C35 O39 1.241 . S
C36 O29 1.247 . S
C36 O30 1.261 . S
C37 O32 1.259 . S
C37 O34 1.235 . S
O38 Co28 2.021 . S
O38 C35 1.238 . S
O39 Co33 2.052 . S
O39 C35 1.241 . S
O40 Co28 2.137 . S
O40 C31 1.247 . S
O41 Co28 2.244 . S
O41 C31 1.272 . S
O41 Co33 2.135 . S
Co42 O43 2.216 . S
Co42 O44 2.091 . S
Co42 O46 2.004 . S
Co42 O52 2.021 . S
Co42 O54 2.137 . S
Co42 O55 2.244 . S
O43 Co42 2.216 . S
O43 C50 1.247 . S
O44 Co42 2.091 . S
O44 C50 1.261 . S
C45 O54 1.247 . S
C45 O55 1.272 . S
O46 Co42 2.004 . S
O46 C51 1.259 . S
Co47 O48 2.061 . S
Co47 O53 2.052 . S
Co47 O55 2.135 . S
O48 Co47 2.061 . S
O48 C51 1.235 . S
C49 O52 1.238 . S
C49 O53 1.241 . S
C50 O43 1.247 . S
C50 O44 1.261 . S
C51 O46 1.259 . S
C51 O48 1.235 . S
O52 Co42 2.021 . S
O52 C49 1.238 . S
O53 Co47 2.052 . S
O53 C49 1.241 . S
O54 Co42 2.137 . S
O54 C45 1.247 . S
O55 Co42 2.244 . S
O55 C45 1.272 . S
O55 Co47 2.135 . S
Co56 O57 2.216 . S
Co56 O58 2.091 . S
Co56 O60 2.004 . S
Co56 O66 2.021 . S
Co56 O68 2.137 . S
Co56 O69 2.244 . S
O57 Co56 2.216 . S
O57 C64 1.247 . S
O58 Co56 2.091 . S
O58 C64 1.261 . S
C59 O68 1.247 . S
C59 O69 1.272 . S
O60 Co56 2.004 . S
O60 C65 1.259 . S
Co61 O62 2.061 . S
Co61 O67 2.052 . S
Co61 O69 2.135 . S
O62 Co61 2.061 . S
O62 C65 1.235 . S
C63 O66 1.238 . S
C63 O67 1.241 . S
C64 O57 1.247 . S
C64 O58 1.261 . S
C65 O60 1.259 . S
C65 O62 1.235 . S
O66 Co56 2.021 . S
O66 C63 1.238 . S
O67 Co61 2.052 . S
O67 C63 1.241 . S
O68 Co56 2.137 . S
O68 C59 1.247 . S
O69 Co56 2.244 . S
O69 C59 1.272 . S
O69 Co61 2.135 . S
Co70 O71 2.216 . S
Co70 O72 2.091 . S
Co70 O74 2.004 . S
Co70 O80 2.021 . S
Co70 O82 2.137 . S
Co70 O83 2.244 . S
O71 Co70 2.216 . S
O71 C78 1.247 . S
O72 Co70 2.091 . S
O72 C78 1.261 . S
C73 O82 1.247 . S
C73 O83 1.272 . S
O74 Co70 2.004 . S
O74 C79 1.259 . S
Co75 O76 2.061 . S
Co75 O81 2.052 . S
Co75 O83 2.135 . S
O76 Co75 2.061 . S
O76 C79 1.235 . S
C77 O80 1.238 . S
C77 O81 1.241 . S
C78 O71 1.247 . S
C78 O72 1.261 . S
C79 O74 1.259 . S
C79 O76 1.235 . S
O80 Co70 2.021 . S
O80 C77 1.238 . S
O81 Co75 2.052 . S
O81 C77 1.241 . S
O82 Co70 2.137 . S
O82 C73 1.247 . S
O83 Co70 2.244 . S
O83 C73 1.272 . S
O83 Co75 2.135 . S
C84 C85 1.387 . S
C84 H88 0.950 . S
C84 C93 1.390 1_545 S
C85 C84 1.387 . S
C85 C87 1.387 . S
H86 C93 0.950 . S
C87 C85 1.387 . S
C87 C89 1.390 1_545 S
C87 H91 0.950 . S
H88 C84 0.950 . S
C89 C87 1.390 1_565 S
C89 C90 1.387 . S
C89 H92 0.950 . S
C90 C89 1.387 . S
C90 C93 1.387 . S
H91 C87 0.950 . S
H92 C89 0.950 . S
C93 C84 1.390 1_565 S
C93 H86 0.950 . S
C93 C90 1.387 . S
C94 C95 1.387 . S
C94 H98 0.950 . S
C94 C103 1.390 . S
C95 C94 1.387 . S
C95 C97 1.387 . S
H96 C103 0.950 . S
C97 C95 1.387 . S
C97 C99 1.390 . S
C97 H101 0.950 . S
H98 C94 0.950 . S
C99 C97 1.390 . S
C99 C100 1.387 . S
C99 H102 0.950 . S
C100 C99 1.387 . S
C100 C103 1.387 . S
H101 C97 0.950 . S
H102 C99 0.950 . S
C103 C94 1.390 . S
C103 H96 0.950 . S
C103 C100 1.387 . S
C104 C105 1.387 . S
C104 H108 0.950 . S
C104 C113 1.390 1_655 S
C105 C104 1.387 . S
C105 C107 1.387 . S
H106 C113 0.950 . S
C107 C105 1.387 . S
C107 C109 1.390 1_655 S
C107 H111 0.950 . S
H108 C104 0.950 . S
C109 C107 1.390 1_455 S
C109 C110 1.387 . S
C109 H112 0.950 . S
C110 C109 1.387 . S
C110 C113 1.387 . S
H111 C107 0.950 . S
H112 C109 0.950 . S
C113 C104 1.390 1_455 S
C113 H106 0.950 . S
C113 C110 1.387 . S
C114 C115 1.387 . S
C114 H118 0.950 . S
C114 C123 1.390 1_564 S
C115 C114 1.387 . S
C115 C117 1.387 . S
H116 C123 0.950 . S
C117 C115 1.387 . S
C117 C119 1.390 1_564 S
C117 H121 0.950 . S
H118 C114 0.950 . S
C119 C117 1.390 1_546 S
C119 C120 1.387 . S
C119 H122 0.950 . S
C120 C119 1.387 . S
C120 C123 1.387 . S
H121 C117 0.950 . S
H122 C119 0.950 . S
C123 C114 1.390 1_546 S
C123 H116 0.950 . S
C123 C120 1.387 . S
C124 C125 1.387 . S
C124 H128 0.950 . S
C124 C133 1.390 . S
C125 C124 1.387 . S
C125 C127 1.387 . S
H126 C133 0.950 . S
C127 C125 1.387 . S
C127 C129 1.390 . S
C127 H131 0.950 . S
H128 C124 0.950 . S
C129 C127 1.390 . S
C129 C130 1.387 . S
C129 H132 0.950 . S
C130 C129 1.387 . S
C130 C133 1.387 . S
H131 C127 0.950 . S
H132 C129 0.950 . S
C133 C124 1.390 . S
C133 H126 0.950 . S
C133 C130 1.387 . S
C134 C135 1.387 . S
C134 H138 0.950 . S
C134 C143 1.390 1_455 S
C135 C134 1.387 . S
C135 C137 1.387 . S
H136 C143 0.950 . S
C137 C135 1.387 . S
C137 C139 1.390 1_455 S
C137 H141 0.950 . S
H138 C134 0.950 . S
C139 C137 1.390 1_655 S
C139 C140 1.387 . S
C139 H142 0.950 . S
C140 C139 1.387 . S
C140 C143 1.387 . S
H141 C137 0.950 . S
H142 C139 0.950 . S
C143 C134 1.390 1_655 S
C143 H136 0.950 . S
C143 C140 1.387 . S
C144 C145 1.387 . S
C144 H148 0.950 . S
C144 C153 1.390 . S
C145 C144 1.387 . S
C145 C147 1.387 . S
H146 C153 0.950 . S
C147 C145 1.387 . S
C147 C149 1.390 . S
C147 H151 0.950 . S
H148 C144 0.950 . S
C149 C147 1.390 . S
C149 C150 1.387 . S
C149 H152 0.950 . S
C150 C149 1.387 . S
C150 C153 1.387 . S
H151 C147 0.950 . S
H152 C149 0.950 . S
C153 C144 1.390 . S
C153 H146 0.950 . S
C153 C150 1.387 . S
C154 C155 1.387 . S
C154 H158 0.950 . S
C154 C163 1.390 . S
C155 C154 1.387 . S
C155 C157 1.387 . S
H156 C163 0.950 . S
C157 C155 1.387 . S
C157 C159 1.390 . S
C157 H161 0.950 . S
H158 C154 0.950 . S
C159 C157 1.390 . S
C159 C160 1.387 . S
C159 H162 0.950 . S
C160 C159 1.387 . S
C160 C163 1.387 . S
H161 C157 0.950 . S
H162 C159 0.950 . S
C163 C154 1.390 . S
C163 H156 0.950 . S
C163 C160 1.387 . S
C164 C165 1.387 . S
C164 H168 0.950 . S
C164 C173 1.390 . S
C165 C164 1.387 . S
C165 C167 1.387 . S
H166 C173 0.950 . S
C167 C165 1.387 . S
C167 C169 1.390 . S
C167 H171 0.950 . S
H168 C164 0.950 . S
C169 C167 1.390 . S
C169 C170 1.387 . S
C169 H172 0.950 . S
C170 C169 1.387 . S
C170 C173 1.387 . S
H171 C167 0.950 . S
H172 C169 0.950 . S
C173 C164 1.390 . S
C173 H166 0.950 . S
C173 C170 1.387 . S
C174 C175 1.387 . S
C174 H178 0.950 . S
C174 C183 1.390 . S
C175 C174 1.387 . S
C175 C177 1.387 . S
H176 C183 0.950 . S
C177 C175 1.387 . S
C177 C179 1.390 . S
C177 H181 0.950 . S
H178 C174 0.950 . S
C179 C177 1.390 . S
C179 C180 1.387 . S
C179 H182 0.950 . S
C180 C179 1.387 . S
C180 C183 1.387 . S
H181 C177 0.950 . S
H182 C179 0.950 . S
C183 C174 1.390 . S
C183 H176 0.950 . S
C183 C180 1.387 . S
C184 C185 1.387 . S
C184 H188 0.950 . S
C184 C193 1.390 . S
C185 C184 1.387 . S
C185 C187 1.387 . S
H186 C193 0.950 . S
C187 C185 1.387 . S
C187 C189 1.390 . S
C187 H191 0.950 . S
H188 C184 0.950 . S
C189 C187 1.390 . S
C189 C190 1.387 . S
C189 H192 0.950 . S
C190 C189 1.387 . S
C190 C193 1.387 . S
H191 C187 0.950 . S
H192 C189 0.950 . S
C193 C184 1.390 . S
C193 H186 0.950 . S
C193 C190 1.387 . S
C194 C195 1.387 . S
C194 H198 0.950 . S
C194 C203 1.390 . S
C195 C194 1.387 . S
C195 C197 1.387 . S
H196 C203 0.950 . S
C197 C195 1.387 . S
C197 C199 1.390 . S
C197 H201 0.950 . S
H198 C194 0.950 . S
C199 C197 1.390 . S
C199 C200 1.387 . S
C199 H202 0.950 . S
C200 C199 1.387 . S
C200 C203 1.387 . S
H201 C197 0.950 . S
H202 C199 0.950 . S
C203 C194 1.390 . S
C203 H196 0.950 . S
C203 C200 1.387 . S
C85 C9 1.580 . S
C90 C78 1.589 . S
C95 C8 1.588 . S
C100 C23 1.579 . S
C105 C37 1.578 . S
C110 C22 1.588 . S
C115 C51 1.579 . S
C120 C36 1.589 . S
C125 C65 1.579 . S
C130 C50 1.588 . S
C135 C79 1.579 . S
C140 C64 1.589 . S
C145 C3 1.472 . S
C150 C63 1.438 . S
C155 C77 1.437 . S
C160 C17 1.472 . S
C165 C31 1.472 . S
C170 C7 1.439 . S
C175 C21 1.437 . S
C180 C45 1.472 1_556 S
C185 C35 1.438 1_554 S
C190 C59 1.472 . S
C195 C73 1.472 . S
C200 C49 1.436 . S
