# Generated by pormake.
# Topology unc, (4)-cn, num edge types: 1
# Building blocks:
#     Node 0, Type 0, BuildingBlock: NAHDIM_clean_sbu_0, # of connection points: 4
#     Node 1, Type 0, BuildingBlock: NAHDIM_clean_sbu_0, # of connection points: 4
#     Node 2, Type 0, BuildingBlock: NAHDIM_clean_sbu_0, # of connection points: 4
#     Node 3, Type 0, BuildingBlock: NAHDIM_clean_sbu_0, # of connection points: 4
#     Edge 4, Type (0, 0), BuildingBlock: AJUNOK_clean_linker_0, # of connection points: 2
#     Edge 5, Type (0, 0), BuildingBlock: AJUNOK_clean_linker_0, # of connection points: 2
#     Edge 6, Type (0, 0), BuildingBlock: AJUNOK_clean_linker_0, # of connection points: 2
#     Edge 7, Type (0, 0), BuildingBlock: AJUNOK_clean_linker_0, # of connection points: 2
#     Edge 8, Type (0, 0), BuildingBlock: AJUNOK_clean_linker_0, # of connection points: 2
#     Edge 9, Type (0, 0), BuildingBlock: AJUNOK_clean_linker_0, # of connection points: 2
#     Edge 10, Type (0, 0), BuildingBlock: AJUNOK_clean_linker_0, # of connection points: 2
#     Edge 11, Type (0, 0), BuildingBlock: AJUNOK_clean_linker_0, # of connection points: 2
# Relax obj value: 0.112
# Max RMSD: 0.174
# Mean RMSD: 0.174
data_MOF--net-unc--node1-NAHDIM_clean_sbu_0--edge1-AJUNOK_clean_linker_0
_symmetry_space_group_name_H-M    P1
_symmetry_Int_Tables_number       1
_symmetry_cell_setting            triclinic
loop_
_symmetry_equiv_pos_as_xyz
'x, y, z'
_cell_length_a     22.228769
_cell_length_b     22.301899
_cell_length_c     16.129402
_cell_angle_alpha  89.824781
_cell_angle_beta   90.26324
_cell_angle_gamma 97.588463
loop_
_atom_site_label
_atom_site_type_symbol
_atom_site_fract_x
_atom_site_fract_y
_atom_site_fract_z
_atom_type_partial_charge
C0 C 0.93711 0.76114 0.91579 0.0
O1 O 0.98465 0.76161 0.86762 0.0
O2 O 0.033 0.65303 0.90838 0.0
Zn3 Zn 0.01255 0.69646 0.01126 0.0
O4 O 0.07928 0.76244 0.04261 0.0
C5 C 0.96851 0.58545 0.09899 0.0
O6 O 0.94032 0.57054 0.02878 0.0
O7 O 0.93744 0.73482 0.98585 0.0
C8 C 0.13466 0.7545 0.04889 0.0
O9 O 0.15027 0.7012 0.03143 0.0
C10 C 0.05977 0.60618 0.90586 0.0
O11 O 0.07933 0.58425 0.97516 0.0
O12 O -0.00023 0.6372 0.10542 0.0
C13 C 0.29783 0.12872 0.33863 0.0
O14 O 0.30195 0.08422 0.391 0.0
O15 O 0.41028 0.03692 0.35254 0.0
Zn16 Zn 0.36944 0.05743 0.24621 0.0
O17 O 0.30812 0.98809 0.20925 0.0
C18 C 0.48502 0.06488 0.16152 0.0
O19 O 0.50137 0.03854 0.22931 0.0
O20 O 0.32407 0.12801 0.26884 0.0
C21 C 0.32069 0.94616 0.16177 0.0
O22 O 0.37696 0.94607 0.13726 0.0
C23 C 0.42667 0.986 0.37084 0.0
O24 O 0.41686 0.94109 0.31796 0.0
O25 O 0.43131 0.07829 0.15548 0.0
C26 C 0.13301 0.30459 0.40694 0.0
O27 O 0.11006 0.33179 0.34421 0.0
O28 O 0.0267 0.41153 0.40882 0.0
Zn29 Zn 0.04292 0.35739 0.50417 0.0
O30 O 0.97055 0.29697 0.53225 0.0
C31 C 0.03939 0.45909 0.60839 0.0
O32 O 0.00181 0.47137 0.54964 0.0
O33 O 0.11225 0.31082 0.47923 0.0
C34 C 0.91639 0.3087 0.5391 0.0
O35 O 0.90454 0.36392 0.52453 0.0
C36 C 0.98889 0.40074 0.34979 0.0
O37 O 0.9571 0.34692 0.34365 0.0
O38 O 0.06345 0.41057 0.60383 0.0
C39 C 0.74509 0.90484 0.83092 0.0
O40 O 0.70382 0.91247 0.88656 0.0
O41 O 0.65649 0.02142 0.85288 0.0
Zn42 Zn 0.69619 0.00304 0.7455 0.0
O43 O 0.7513 0.07617 0.70533 0.0
C44 C 0.57864 0.98897 0.66389 0.0
O45 O 0.56211 0.01412 0.73208 0.0
O46 O 0.74849 0.93708 0.76552 0.0
C47 C 0.73398 0.11635 0.65804 0.0
O48 O 0.67683 0.1115 0.63487 0.0
C49 C 0.63782 0.07131 0.87041 0.0
O50 O 0.64525 0.116 0.8167 0.0
O51 O 0.63315 0.97818 0.65681 0.0
C52 C 0.94646 0.47913 0.1524 0.0
C53 C 0.9699 0.5401 0.16633 0.0
C54 C 0.95186 0.43449 0.21246 0.0
C55 C 0.98115 0.449 0.28865 0.0
H56 H 0.92491 0.46534 0.0939 0.0
H57 H 0.93409 0.38807 0.19816 0.0
S58 S 0.04515 0.60287 0.35936 0.0
N59 N 0.01969 0.61319 0.26484 0.0
N60 N 0.03017 0.52955 0.37706 0.0
C61 C 0.00305 0.51011 0.30449 0.0
C62 C -0.00268 0.55555 0.24358 0.0
C63 C 0.45326 0.01776 0.51559 0.0
C64 C 0.4617 0.98029 0.44786 0.0
C65 C 0.48967 0.01812 0.58658 0.0
C66 C 0.53678 0.98189 0.592 0.0
H67 H 0.41879 0.04787 0.51326 0.0
H68 H 0.48221 0.04888 0.6362 0.0
S69 S 0.57559 0.87326 0.43342 0.0
N70 N 0.51851 0.90361 0.39214 0.0
N71 N 0.58794 0.90518 0.52526 0.0
C72 C 0.54463 0.94285 0.52573 0.0
C73 C 0.50677 0.94174 0.45379 0.0
C74 C 0.07751 0.51341 0.82746 0.0
C75 C 0.06126 0.57232 0.82707 0.0
C76 C 0.07229 0.47771 0.75574 0.0
C77 C 0.05036 0.49949 0.68104 0.0
H78 H 0.09251 0.49378 0.88418 0.0
H79 H 0.08352 0.43197 0.75978 0.0
S80 S 0.00934 0.65346 0.64394 0.0
N81 N 0.02798 0.65288 0.74305 0.0
N82 N 0.01792 0.58571 0.60879 0.0
C83 C 0.03685 0.55933 0.67864 0.0
C84 C 0.0424 0.59577 0.75147 0.0
C85 C 0.57332 0.03551 0.08416 0.0
C86 C 0.52656 0.07208 0.08973 0.0
C87 C 0.61006 0.0369 0.01383 0.0
C88 C 0.60224 0.07567 0.94687 0.0
H89 H 0.58042 0.00391 0.13326 0.0
H90 H 0.64432 0.0066 0.01147 0.0
S91 S 0.48923 0.18387 0.93317 0.0
N92 N 0.47629 0.1504 0.02401 0.0
N93 N 0.54616 0.15375 0.89208 0.0
C94 C 0.55735 0.11437 0.95294 0.0
C95 C 0.51923 0.1123 0.02423 0.0
C96 C 0.28783 0.8449 0.09781 0.0
C97 C 0.2723 0.89821 0.1336 0.0
C98 C 0.24308 0.7988 0.07073 0.0
C99 C 0.18095 0.80438 0.07746 0.0
H100 H 0.33499 0.83836 0.09117 0.0
H101 H 0.25749 0.75857 0.04396 0.0
S102 S 0.11606 0.93558 0.16538 0.0
N103 N 0.19018 0.95419 0.17365 0.0
N104 N 0.10623 0.86794 0.12236 0.0
C105 C 0.16474 0.8577 0.11262 0.0
C106 C 0.21032 0.90443 0.14084 0.0
C107 C 0.23947 0.21226 0.295 0.0
C108 C 0.25989 0.17659 0.35865 0.0
C109 C 0.19967 0.25451 0.31155 0.0
C110 C 0.17899 0.26311 0.39251 0.0
H111 H 0.25292 0.2064 0.23138 0.0
H112 H 0.18416 0.27974 0.25997 0.0
S113 S 0.22398 0.18516 0.58258 0.0
N114 N 0.25991 0.15558 0.50674 0.0
N115 N 0.18552 0.235 0.53806 0.0
C116 C 0.20107 0.22938 0.4573 0.0
C117 C 0.24133 0.18613 0.4403 0.0
C118 C 0.84114 0.16191 0.63357 0.0
C119 C 0.77879 0.16655 0.62716 0.0
C120 C 0.88488 0.20779 0.60411 0.0
C121 C 0.8683 0.26071 0.56778 0.0
H122 H 0.85655 0.1222 0.66098 0.0
H123 H 0.93223 0.20176 0.61078 0.0
S124 S 0.71101 0.2956 0.53651 0.0
N125 N 0.7025 0.22846 0.58157 0.0
N126 N 0.78492 0.31511 0.52684 0.0
C127 C 0.8061 0.26621 0.56115 0.0
C128 C 0.76135 0.21904 0.59056 0.0
C129 C 0.79524 0.83885 0.9282 0.0
C130 C 0.79111 0.86381 0.84838 0.0
C131 C 0.84162 0.80448 0.94887 0.0
C132 C 0.8858 0.79364 0.89059 0.0
H133 H 0.76339 0.84719 0.97608 0.0
H134 H 0.84362 0.78762 0.01175 0.0
S135 S 0.89157 0.84305 0.67019 0.0
N136 N 0.83263 0.87114 0.70877 0.0
N137 N 0.91957 0.80659 0.74747 0.0
C138 C 0.88078 0.81619 0.80951 0.0
C139 C 0.83353 0.8512 0.78845 0.0
loop_
_geom_bond_atom_site_label_1
_geom_bond_atom_site_label_2
_geom_bond_distance
_geom_bond_site_symmetry_2
_ccdc_geom_bond_type
C0 O1 1.160 . S
C0 O7 1.185 1_556 S
O1 C0 1.160 . S
O2 Zn3 1.900 1_656 S
O2 C10 1.281 1_655 S
Zn3 O2 1.900 1_454 S
Zn3 O4 2.032 . S
Zn3 O7 2.086 1_455 S
Zn3 O12 1.977 1_455 S
O4 Zn3 2.032 . S
O4 C8 1.278 . S
C5 O6 1.203 . S
C5 O12 1.267 1_455 S
O6 C5 1.203 . S
O7 C0 1.185 1_554 S
O7 Zn3 2.086 1_655 S
C8 O4 1.278 . S
C8 O9 1.211 . S
O9 C8 1.211 . S
C10 O2 1.281 1_455 S
C10 O11 1.273 . S
O11 C10 1.273 . S
O12 Zn3 1.977 1_655 S
O12 C5 1.267 1_655 S
C13 O14 1.160 . S
C13 O20 1.185 . S
O14 C13 1.160 . S
O15 Zn16 1.899 . S
O15 C23 1.284 . S
Zn16 O15 1.899 . S
Zn16 O17 2.032 1_545 S
Zn16 O20 2.086 . S
Zn16 O25 1.977 . S
O17 Zn16 2.032 1_565 S
O17 C21 1.278 . S
C18 O19 1.203 . S
C18 O25 1.267 . S
O19 C18 1.203 . S
O20 C13 1.185 . S
O20 Zn16 2.086 . S
C21 O17 1.278 . S
C21 O22 1.211 . S
O22 C21 1.211 . S
C23 O15 1.284 . S
C23 O24 1.273 1_545 S
O24 C23 1.273 1_565 S
O25 Zn16 1.977 . S
O25 C18 1.267 . S
C26 O27 1.160 . S
C26 O33 1.185 . S
O27 C26 1.160 . S
O28 Zn29 1.899 . S
O28 C36 1.284 . S
Zn29 O28 1.899 . S
Zn29 O30 2.032 1_455 S
Zn29 O33 2.086 . S
Zn29 O38 1.977 . S
O30 Zn29 2.032 1_655 S
O30 C34 1.278 . S
C31 O32 1.203 . S
C31 O38 1.267 . S
O32 C31 1.203 . S
O33 C26 1.185 . S
O33 Zn29 2.086 . S
C34 O30 1.278 . S
C34 O35 1.211 . S
O35 C34 1.211 . S
C36 O28 1.284 . S
C36 O37 1.273 1_455 S
O37 C36 1.273 1_655 S
O38 Zn29 1.977 . S
O38 C31 1.267 . S
C39 O40 1.160 . S
C39 O46 1.185 . S
O40 C39 1.160 . S
O41 Zn42 1.900 1_565 S
O41 C49 1.281 1_565 S
Zn42 O41 1.900 1_545 S
Zn42 O43 2.032 . S
Zn42 O46 2.086 1_545 S
Zn42 O51 1.977 1_545 S
O43 Zn42 2.032 . S
O43 C47 1.278 . S
C44 O45 1.203 . S
C44 O51 1.267 1_545 S
O45 C44 1.203 . S
O46 C39 1.185 . S
O46 Zn42 2.086 1_565 S
C47 O43 1.278 . S
C47 O48 1.211 . S
O48 C47 1.211 . S
C49 O41 1.281 1_545 S
C49 O50 1.273 . S
O50 C49 1.273 . S
O51 Zn42 1.977 1_565 S
O51 C44 1.267 1_565 S
C52 C53 1.368 . S
C52 C54 1.419 1_655 S
C52 H56 0.930 . S
C53 C52 1.368 . S
C53 C62 1.428 1_655 S
C54 C52 1.419 1_455 S
C54 C55 1.363 . S
C54 H57 0.929 . S
C55 C54 1.363 . S
C55 C61 1.428 . S
H56 C52 0.930 . S
H57 C54 0.929 . S
S58 N59 1.613 . S
S58 N60 1.610 . S
N59 S58 1.613 . S
N59 C62 1.350 . S
N60 S58 1.610 . S
N60 C61 1.351 . S
C61 C55 1.428 . S
C61 N60 1.351 . S
C61 C62 1.434 . S
C62 C53 1.428 1_455 S
C62 N59 1.350 . S
C62 C61 1.434 . S
C63 C64 1.369 . S
C63 C65 1.419 . S
C63 H67 0.930 . S
C64 C63 1.369 . S
C64 C73 1.429 1_545 S
C65 C63 1.419 . S
C65 C66 1.363 1_545 S
C65 H68 0.929 . S
C66 C65 1.363 1_565 S
C66 C72 1.428 . S
H67 C63 0.930 . S
H68 C65 0.929 . S
S69 N70 1.613 . S
S69 N71 1.610 . S
N70 S69 1.613 . S
N70 C73 1.350 . S
N71 S69 1.610 . S
N71 C72 1.351 . S
C72 C66 1.428 . S
C72 N71 1.351 . S
C72 C73 1.434 . S
C73 C64 1.429 1_565 S
C73 N70 1.350 . S
C73 C72 1.434 . S
C74 C75 1.369 . S
C74 C76 1.419 . S
C74 H78 0.930 . S
C75 C74 1.369 . S
C75 C84 1.417 1_455 S
C76 C74 1.419 . S
C76 C77 1.363 . S
C76 H79 0.929 . S
C77 C76 1.363 . S
C77 C83 1.428 . S
H78 C74 0.930 . S
H79 C76 0.929 . S
S80 N81 1.613 . S
S80 N82 1.610 . S
N81 S80 1.613 . S
N81 C84 1.365 . S
N82 S80 1.610 . S
N82 C83 1.351 1_655 S
C83 C77 1.428 . S
C83 N82 1.351 1_455 S
C83 C84 1.431 1_455 S
C84 C75 1.417 1_655 S
C84 N81 1.365 . S
C84 C83 1.431 1_655 S
C85 C86 1.369 . S
C85 C87 1.419 1_554 S
C85 H89 0.930 1_545 S
C86 C85 1.369 . S
C86 C95 1.429 1_554 S
C87 C85 1.419 1_556 S
C87 C88 1.363 . S
C87 H90 0.929 1_545 S
C88 C87 1.363 . S
C88 C94 1.428 . S
H89 C85 0.930 1_565 S
H90 C87 0.929 1_565 S
S91 N92 1.613 . S
S91 N93 1.610 . S
N92 S91 1.613 . S
N92 C95 1.350 . S
N93 S91 1.610 . S
N93 C94 1.351 . S
C94 C88 1.428 . S
C94 N93 1.351 . S
C94 C95 1.434 . S
C95 C86 1.429 1_556 S
C95 N92 1.350 . S
C95 C94 1.434 . S
C96 C97 1.369 . S
C96 C98 1.419 . S
C96 H100 0.930 . S
C97 C96 1.369 . S
C97 C106 1.429 . S
C98 C96 1.419 . S
C98 C99 1.363 . S
C98 H101 0.929 . S
C99 C98 1.363 . S
C99 C105 1.428 . S
H100 C96 0.930 . S
H101 C98 0.929 . S
S102 N103 1.613 . S
S102 N104 1.610 . S
N103 S102 1.613 . S
N103 C106 1.350 . S
N104 S102 1.610 . S
N104 C105 1.351 . S
C105 C99 1.428 . S
C105 N104 1.351 . S
C105 C106 1.434 . S
C106 C97 1.429 . S
C106 N103 1.350 . S
C106 C105 1.434 . S
C107 C108 1.369 . S
C107 C109 1.419 . S
C107 H111 0.930 . S
C108 C107 1.369 . S
C108 C117 1.429 . S
C109 C107 1.419 . S
C109 C110 1.363 . S
C109 H112 0.929 . S
C110 C109 1.363 . S
C110 C116 1.428 . S
H111 C107 0.930 . S
H112 C109 0.929 . S
S113 N114 1.613 . S
S113 N115 1.610 . S
N114 S113 1.613 . S
N114 C117 1.350 . S
N115 S113 1.610 . S
N115 C116 1.351 . S
C116 C110 1.428 . S
C116 N115 1.351 . S
C116 C117 1.434 . S
C117 C108 1.429 . S
C117 N114 1.350 . S
C117 C116 1.434 . S
C118 C119 1.369 . S
C118 C120 1.419 . S
C118 H122 0.930 . S
C119 C118 1.369 . S
C119 C128 1.429 . S
C120 C118 1.419 . S
C120 C121 1.363 . S
C120 H123 0.929 . S
C121 C120 1.363 . S
C121 C127 1.428 . S
H122 C118 0.930 . S
H123 C120 0.929 . S
S124 N125 1.613 . S
S124 N126 1.610 . S
N125 S124 1.613 . S
N125 C128 1.350 . S
N126 S124 1.610 . S
N126 C127 1.351 . S
C127 C121 1.428 . S
C127 N126 1.351 . S
C127 C128 1.434 . S
C128 C119 1.429 . S
C128 N125 1.350 . S
C128 C127 1.434 . S
C129 C130 1.369 . S
C129 C131 1.419 . S
C129 H133 0.930 . S
C130 C129 1.369 . S
C130 C139 1.429 . S
C131 C129 1.419 . S
C131 C132 1.363 . S
C131 H134 0.929 . S
C132 C131 1.363 . S
C132 C138 1.428 . S
H133 C129 0.930 . S
H134 C131 0.929 . S
S135 N136 1.613 . S
S135 N137 1.610 . S
N136 S135 1.613 . S
N136 C139 1.350 . S
N137 S135 1.610 . S
N137 C138 1.351 . S
C138 C132 1.428 . S
C138 N137 1.351 . S
C138 C139 1.434 . S
C139 C130 1.429 . S
C139 N136 1.350 . S
C139 C138 1.434 . S
C53 C5 1.191 1_655 S
C55 C36 1.244 . S
C64 C23 1.243 . S
C66 C44 1.194 1_565 S
C75 C10 1.246 . S
C77 C31 1.187 . S
C86 C18 1.196 . S
C88 C49 1.243 . S
C97 C21 1.468 . S
C99 C8 1.460 . S
C108 C13 1.451 . S
C110 C26 1.460 . S
C119 C47 1.463 . S
C121 C34 1.461 . S
C130 C39 1.461 . S
C132 C0 1.453 . S
