# Generated by pormake.
# Topology pcu, (6)-cn, num edge types: 1
# Building blocks:
#     Node 0, Type 0, BuildingBlock: FUNLAD_clean_sbu_0, # of connection points: 6
#     Edge 1, Type (0, 0), BuildingBlock: ZUJKAS_clean_linker_0, # of connection points: 2
#     Edge 2, Type (0, 0), BuildingBlock: ZUJKAS_clean_linker_0, # of connection points: 2
#     Edge 3, Type (0, 0), BuildingBlock: ZUJKAS_clean_linker_0, # of connection points: 2
# Relax obj value: 0.000
# Max RMSD: 0.000
# Mean RMSD: 0.000
data_MOF--net-pcu--node1-FUNLAD_clean_sbu_0--edge1-ZUJKAS_clean_linker_0
_symmetry_space_group_name_H-M    P1
_symmetry_Int_Tables_number       1
_symmetry_cell_setting            triclinic
loop_
_symmetry_equiv_pos_as_xyz
'x, y, z'
_cell_length_a     19.894374
_cell_length_b     19.875461
_cell_length_c     26.265753
_cell_angle_alpha  91.130103
_cell_angle_beta   93.461143
_cell_angle_gamma 95.562276
loop_
_atom_site_label
_atom_site_type_symbol
_atom_site_fract_x
_atom_site_fract_y
_atom_site_fract_z
_atom_type_partial_charge
C0 C 0.12942 -0.00474 0.01374 0.0
N1 N 0.98393 0.9877 0.89107 0.0
C2 C 0.02837 0.03177 0.86802 0.0
C3 C 0.02919 0.03208 0.81495 0.0
C4 C 0.98382 0.98662 0.78515 0.0
C5 C 0.93808 0.94203 0.80995 0.0
C6 C 0.93907 0.94337 0.86321 0.0
Zn7 Zn 0.98667 0.98825 0.96901 0.0
C8 C 0.98355 0.85026 1.01024 0.0
N9 N -0.00392 -0.00854 0.13188 0.0
C10 C 0.04094 0.03578 0.15974 0.0
C11 C 0.95164 0.94738 0.15494 0.0
C12 C 0.95082 0.94707 0.20801 0.0
C13 C -0.00381 -0.00747 0.2378 0.0
C14 C 0.04193 0.03712 0.21301 0.0
Zn15 Zn -0.00666 -0.0091 0.05395 0.0
O16 O 0.09368 -0.00725 0.97185 0.0
C17 C -0.00354 0.12889 0.01272 0.0
O18 O 0.10039 -0.00455 0.05554 0.0
H19 H 0.91653 0.91241 0.13211 0.0
H20 H 0.06348 0.06674 0.89084 0.0
H21 H 0.0757 0.0705 0.14062 0.0
O22 O -0.00817 0.09515 0.97084 0.0
O23 O -0.00156 0.09784 0.05454 0.0
H24 H 0.90431 0.90865 0.88234 0.0
O25 O 0.88632 0.9864 0.05111 0.0
O26 O 0.87962 0.9837 0.96741 0.0
O27 O 0.98818 0.884 0.05212 0.0
O28 O 0.98157 0.88131 0.96841 0.0
C29 C 0.85059 0.98389 1.00922 0.0
H30 H 0.06462 0.06802 0.79745 0.0
H31 H 0.9027 0.90568 0.78848 0.0
H32 H 0.91538 0.91113 0.22551 0.0
H33 H 0.07731 0.07347 0.23447 0.0
H34 H 0.8859 0.982 0.29558 0.0
H35 H 0.88457 0.98169 0.38862 0.0
H36 H 0.10275 0.00479 0.40104 0.0
H37 H 0.10461 0.00477 0.30795 0.0
H38 H 0.94139 0.89223 0.45607 0.0
H39 H 0.05273 0.15666 0.49531 0.0
H40 H 0.0197 0.12652 0.43257 0.0
H41 H 0.10191 0.10711 0.45663 0.0
C42 C 0.93364 0.98673 0.31808 0.0
C43 C -0.0046 -0.00649 0.29435 0.0
C44 C 0.93275 0.98685 0.37122 0.0
C45 C -0.00649 -0.00587 0.40168 0.0
C46 C 0.05526 0.00059 0.37822 0.0
H47 H 0.09411 -0.00285 0.72737 0.0
H48 H 0.09544 -0.00253 0.63434 0.0
C49 C 0.05623 0.00057 0.32504 0.0
C50 C -0.00788 -0.00694 0.45798 0.0
H51 H 0.03861 0.08693 0.56689 0.0
C52 C 0.96236 0.93486 0.48035 0.0
C53 C 0.01963 0.04877 0.48944 0.0
C54 C 0.04979 0.11359 0.46738 0.0
C55 C 0.96038 0.93039 0.53351 0.0
C56 C 0.98788 0.9861 0.56498 0.0
C57 C 0.01765 0.0443 0.54261 0.0
C58 C 0.9865 0.98503 0.62128 0.0
C59 C 0.93022 0.86557 0.55558 0.0
C60 C 0.92474 0.97856 0.64474 0.0
C61 C 0.92378 0.97859 0.69792 0.0
C62 C 0.98461 0.98564 0.72861 0.0
C63 C 0.04636 -0.00757 0.70488 0.0
C64 C 0.04725 -0.00769 0.65174 0.0
H65 H 0.92727 0.8225 0.52765 0.0
H66 H 0.96031 0.85264 0.59038 0.0
H67 H 0.87809 0.87204 0.56632 0.0
H68 H 0.87726 0.97437 0.62192 0.0
H69 H 0.87539 0.97439 0.715 0.0
H70 H 0.2212 -0.00254 0.09596 0.0
H71 H 0.34416 -0.00299 0.09493 0.0
H72 H 0.32884 -0.00598 0.93043 0.0
H73 H 0.20624 -0.00477 0.93096 0.0
H74 H 0.41601 0.89876 0.04948 0.0
H75 H 0.47438 0.15101 0.96661 0.0
H76 H 0.39444 0.1258 0.99317 0.0
H77 H 0.41075 0.09674 0.93028 0.0
C78 C 0.24402 -0.00281 0.05956 0.0
C79 C 0.20393 -0.00338 0.01354 0.0
C80 C 0.31423 -0.00317 0.05906 0.0
C81 C 0.34559 -0.0036 0.01263 0.0
C82 C 0.30575 -0.0043 0.96668 0.0
H83 H 0.75881 0.98169 0.927 0.0
H84 H 0.63585 0.98214 0.92803 0.0
C85 C 0.23562 -0.00397 0.9671 0.0
C86 C 0.41977 -0.00561 0.01215 0.0
H87 H 0.564 0.0804 0.97347 0.0
C88 C 0.4485 0.9386 0.03314 0.0
C89 C 0.46183 0.04636 0.99058 0.0
C90 C 0.43403 0.1087 0.96927 0.0
C91 C 0.51818 0.9328 0.03238 0.0
C92 C 0.56024 0.98476 0.01081 0.0
C93 C 0.53151 0.04055 0.98982 0.0
C94 C 0.63442 0.98275 1.01033 0.0
C95 C 0.54598 0.87045 0.05369 0.0
C96 C 0.67425 0.98345 0.05628 0.0
C97 C 0.74439 0.98313 0.05586 0.0
C98 C 0.77608 0.98253 1.00942 0.0
C99 C 0.73599 0.98197 0.9634 0.0
C100 C 0.66577 0.98232 0.9639 0.0
H101 H 0.50562 0.82815 0.05635 0.0
H102 H 0.58556 0.85335 0.02978 0.0
H103 H 0.56926 0.88242 0.09267 0.0
H104 H 0.65117 0.98513 0.09253 0.0
H105 H 0.77377 0.98392 0.092 0.0
H106 H 0.97824 0.76293 0.9279 0.0
H107 H 0.97893 0.63988 0.92862 0.0
H108 H 0.98762 0.64616 0.09311 0.0
H109 H 0.98625 0.76894 0.09288 0.0
H110 H 0.0796 0.56636 0.9751 0.0
H111 H 0.8297 0.5017 0.05458 0.0
H112 H 0.85362 0.58319 0.0283 0.0
H113 H 0.88469 0.5639 0.09147 0.0
C114 C 0.9798 0.73811 0.96424 0.0
C115 C 0.98199 0.77571 1.01034 0.0
C116 C 0.98029 0.66786 0.96455 0.0
C117 C 0.98247 0.63398 0.01088 0.0
C118 C 0.98465 0.67128 0.05693 0.0
H119 H 0.00177 0.21622 0.09506 0.0
H120 H 0.00107 0.33928 0.09433 0.0
C121 C 0.98421 0.74149 0.0567 0.0
C122 C 0.98488 0.55982 0.01113 0.0
H123 H 0.90041 0.41279 0.04785 0.0
C124 C 0.0403 0.53266 0.99074 0.0
C125 C 0.9336 0.51622 0.03176 0.0
C126 C 0.87169 0.54249 0.05239 0.0
C127 C 0.0464 0.46293 0.9912 0.0
C128 C -0.00488 0.41933 0.01183 0.0
C129 C 0.9397 0.44649 0.03221 0.0
C130 C -0.00247 0.34517 0.01208 0.0
C131 C 0.10832 0.43666 0.97057 0.0
C132 C -0.00464 0.30787 0.96603 0.0
C133 C -0.00421 0.23766 0.96626 0.0
C134 C -0.00199 0.20344 0.01262 0.0
C135 C 0.00021 0.24104 0.05872 0.0
C136 C -0.00028 0.31129 0.0584 0.0
H137 H 0.15031 0.47745 0.96838 0.0
H138 H 0.12638 0.39596 0.99466 0.0
H139 H 0.09531 0.41525 0.93148 0.0
H140 H -0.00761 0.33299 0.92985 0.0
H141 H -0.00624 0.21021 0.93007 0.0
loop_
_geom_bond_atom_site_label_1
_geom_bond_atom_site_label_2
_geom_bond_distance
_geom_bond_site_symmetry_2
_ccdc_geom_bond_type
C0 O16 1.243 1_544 S
C0 O18 1.263 . S
N1 C2 1.333 1_665 S
N1 C6 1.307 . S
N1 Zn7 2.020 . S
C2 N1 1.333 1_445 S
C2 C3 1.379 . S
C2 H20 0.952 . S
C3 C2 1.379 . S
C3 C4 1.391 1_455 S
C3 H30 0.949 . S
C4 C3 1.391 1_655 S
C4 C5 1.355 1_545 S
C5 C4 1.355 1_565 S
C5 C6 1.370 . S
C5 H31 0.950 . S
C6 N1 1.307 . S
C6 C5 1.370 . S
C6 H24 0.948 . S
Zn7 N1 2.020 . S
Zn7 O16 2.039 1_655 S
Zn7 O22 2.034 1_665 S
Zn7 O26 2.025 . S
Zn7 O28 2.024 . S
C8 O27 1.246 1_556 S
C8 O28 1.249 . S
N9 C10 1.307 . S
N9 C11 1.333 1_445 S
N9 Zn15 2.020 . S
C10 N9 1.307 . S
C10 C14 1.370 . S
C10 H21 0.948 . S
C11 N9 1.333 1_665 S
C11 C12 1.379 . S
C11 H19 0.952 . S
C12 C11 1.379 . S
C12 C13 1.390 1_655 S
C12 H32 0.949 . S
C13 C12 1.390 1_455 S
C13 C14 1.356 1_565 S
C14 C10 1.370 . S
C14 C13 1.356 1_545 S
C14 H33 0.950 . S
Zn15 N9 2.020 . S
Zn15 O18 2.025 . S
Zn15 O23 2.024 . S
Zn15 O25 2.039 1_455 S
Zn15 O27 2.034 1_445 S
O16 C0 1.243 1_566 S
O16 Zn7 2.039 1_455 S
C17 O22 1.246 1_554 S
C17 O23 1.249 . S
O18 C0 1.263 . S
O18 Zn15 2.025 . S
H19 C11 0.952 . S
H20 C2 0.952 . S
H21 C10 0.948 . S
O22 Zn7 2.034 1_445 S
O22 C17 1.246 1_556 S
O23 Zn15 2.024 . S
O23 C17 1.249 . S
H24 C6 0.948 . S
O25 Zn15 2.039 1_655 S
O25 C29 1.248 1_544 S
O26 Zn7 2.025 . S
O26 C29 1.259 . S
O27 C8 1.246 1_554 S
O27 Zn15 2.034 1_665 S
O28 Zn7 2.024 . S
O28 C8 1.249 . S
C29 O25 1.248 1_566 S
C29 O26 1.259 . S
H30 C3 0.949 . S
H31 C5 0.950 . S
H32 C12 0.949 . S
H33 C14 0.950 . S
H34 C42 0.929 . S
H35 C44 0.930 . S
H36 C46 0.930 . S
H37 C49 0.929 . S
H38 C52 0.930 . S
H39 C54 0.960 . S
H40 C54 0.960 . S
H41 C54 0.960 . S
C42 H34 0.929 . S
C42 C43 1.379 . S
C42 C44 1.384 . S
C43 C42 1.379 . S
C43 C49 1.388 1_645 S
C44 H35 0.930 . S
C44 C42 1.384 . S
C44 C45 1.372 . S
C45 C44 1.372 . S
C45 C46 1.400 1_645 S
C45 C50 1.490 1_545 S
C46 H36 0.930 . S
C46 C45 1.400 1_465 S
C46 C49 1.386 . S
H47 C63 0.930 . S
H48 C64 0.931 . S
C49 H37 0.929 . S
C49 C43 1.388 1_465 S
C49 C46 1.386 . S
C50 C45 1.490 1_565 S
C50 C52 1.393 . S
C50 C53 1.404 1_665 S
H51 C57 0.930 . S
C52 H38 0.930 . S
C52 C50 1.393 . S
C52 C55 1.403 . S
C53 C50 1.404 1_445 S
C53 C54 1.524 . S
C53 C57 1.400 . S
C54 H39 0.960 . S
C54 H40 0.960 . S
C54 H41 0.960 . S
C54 C53 1.524 . S
C55 C52 1.403 . S
C55 C56 1.392 . S
C55 C59 1.495 . S
C56 C55 1.392 . S
C56 C57 1.385 1_665 S
C56 C58 1.478 . S
C57 H51 0.930 . S
C57 C53 1.400 . S
C57 C56 1.385 1_445 S
C58 C56 1.478 . S
C58 C60 1.381 1_565 S
C58 C64 1.383 1_655 S
C59 C55 1.495 . S
C59 H65 0.959 . S
C59 H66 0.961 . S
C59 H67 0.960 . S
C60 C58 1.381 1_545 S
C60 C61 1.394 . S
C60 H68 0.930 . S
C61 C60 1.394 . S
C61 C62 1.383 1_545 S
C61 H69 0.929 . S
C62 C61 1.383 1_565 S
C62 C63 1.377 1_655 S
C63 H47 0.930 . S
C63 C62 1.377 1_455 S
C63 C64 1.379 . S
C64 H48 0.931 . S
C64 C58 1.383 1_455 S
C64 C63 1.379 . S
H65 C59 0.959 . S
H66 C59 0.961 . S
H67 C59 0.960 . S
H68 C60 0.930 . S
H69 C61 0.929 . S
H70 C78 0.929 . S
H71 C80 0.930 . S
H72 C82 0.930 . S
H73 C85 0.929 . S
H74 C88 0.930 . S
H75 C90 0.960 . S
H76 C90 0.960 . S
H77 C90 0.960 1_565 S
C78 H70 0.929 . S
C78 C79 1.378 1_554 S
C78 C80 1.384 . S
C79 C78 1.378 1_556 S
C79 C85 1.389 1_545 S
C80 H71 0.930 . S
C80 C78 1.384 . S
C80 C81 1.372 . S
C81 C80 1.372 . S
C81 C82 1.400 1_544 S
C81 C86 1.490 . S
C82 H72 0.930 . S
C82 C81 1.400 1_566 S
C82 C85 1.386 . S
H83 C99 0.930 . S
H84 C100 0.931 . S
C85 H73 0.929 . S
C85 C79 1.389 1_565 S
C85 C82 1.386 . S
C86 C81 1.490 . S
C86 C88 1.395 1_545 S
C86 C89 1.403 1_554 S
H87 C93 0.930 . S
C88 H74 0.930 . S
C88 C86 1.395 1_565 S
C88 C91 1.403 . S
C89 C86 1.403 1_556 S
C89 C90 1.524 . S
C89 C93 1.400 . S
C90 H75 0.960 . S
C90 H76 0.960 . S
C90 H77 0.960 1_545 S
C90 C89 1.524 . S
C91 C88 1.403 . S
C91 C92 1.393 . S
C91 C95 1.495 . S
C92 C91 1.393 . S
C92 C93 1.383 1_564 S
C92 C94 1.479 . S
C93 H87 0.930 . S
C93 C89 1.400 . S
C93 C92 1.383 1_546 S
C94 C92 1.479 . S
C94 C96 1.381 1_565 S
C94 C100 1.383 1_554 S
C95 C91 1.495 . S
C95 H101 0.959 . S
C95 H102 0.961 . S
C95 H103 0.960 1_565 S
C96 C94 1.381 1_545 S
C96 C97 1.394 . S
C96 H104 0.930 . S
C97 C96 1.394 . S
C97 C98 1.383 1_545 S
C97 H105 0.929 . S
C98 C97 1.383 1_565 S
C98 C99 1.377 1_554 S
C99 H83 0.930 . S
C99 C98 1.377 1_556 S
C99 C100 1.379 . S
C100 H84 0.931 . S
C100 C94 1.383 1_556 S
C100 C99 1.379 . S
H101 C95 0.959 . S
H102 C95 0.961 . S
H103 C95 0.960 1_545 S
H104 C96 0.930 . S
H105 C97 0.929 . S
H106 C114 0.929 . S
H107 C116 0.930 . S
H108 C118 0.930 . S
H109 C121 0.929 . S
H110 C124 0.930 . S
H111 C126 0.960 . S
H112 C126 0.960 1_556 S
H113 C126 0.960 . S
C114 H106 0.929 . S
C114 C115 1.385 1_455 S
C114 C116 1.384 . S
C115 C114 1.385 1_655 S
C115 C121 1.382 1_556 S
C116 H107 0.930 . S
C116 C114 1.384 . S
C116 C117 1.373 . S
C117 C116 1.373 . S
C117 C118 1.397 1_456 S
C117 C122 1.491 . S
C118 H108 0.930 . S
C118 C117 1.397 1_654 S
C118 C121 1.386 . S
H119 C135 0.930 . S
H120 C136 0.931 1_655 S
C121 H109 0.929 . S
C121 C115 1.382 1_554 S
C121 C118 1.386 . S
C122 C117 1.491 . S
C122 C124 1.395 . S
C122 C125 1.403 1_456 S
H123 C129 0.930 . S
C124 H110 0.930 . S
C124 C122 1.395 . S
C124 C127 1.403 . S
C125 C122 1.403 1_654 S
C125 C126 1.524 . S
C125 C129 1.400 . S
C126 H111 0.960 . S
C126 H112 0.960 1_554 S
C126 H113 0.960 . S
C126 C125 1.524 . S
C127 C124 1.403 . S
C127 C128 1.392 . S
C127 C131 1.495 . S
C128 C127 1.392 . S
C128 C129 1.385 1_456 S
C128 C130 1.478 . S
C129 H123 0.930 . S
C129 C125 1.400 . S
C129 C128 1.385 1_654 S
C130 C128 1.478 . S
C130 C132 1.381 . S
C130 C136 1.383 1_556 S
C131 C127 1.495 . S
C131 H137 0.959 . S
C131 H138 0.961 1_556 S
C131 H139 0.960 . S
C132 C130 1.381 . S
C132 C133 1.394 . S
C132 H140 0.930 . S
C133 C132 1.394 . S
C133 C134 1.386 . S
C133 H141 0.929 . S
C134 C133 1.386 . S
C134 C135 1.374 1_456 S
C135 H119 0.930 . S
C135 C134 1.374 1_654 S
C135 C136 1.379 1_655 S
C136 H120 0.931 1_455 S
C136 C130 1.383 1_554 S
C136 C135 1.379 1_455 S
H137 C131 0.959 . S
H138 C131 0.961 1_554 S
H139 C131 0.960 . S
H140 C132 0.930 . S
H141 C133 0.929 . S
C43 C13 1.498 1_645 S
C62 C4 1.492 1_565 S
C79 C0 1.499 1_556 S
C98 C29 1.495 1_554 S
C115 C8 1.498 . S
C134 C17 1.488 1_556 S
