# Generated by pormake.
# Topology qtz, (4)-cn, num edge types: 1
# Building blocks:
#     Node 0, Type 0, BuildingBlock: CEKHIL_clean_sbu_0, # of connection points: 4
#     Node 1, Type 0, BuildingBlock: CEKHIL_clean_sbu_0, # of connection points: 4
#     Node 2, Type 0, BuildingBlock: CEKHIL_clean_sbu_0, # of connection points: 4
#     Edge 3, Type (0, 0), BuildingBlock: ZUJKAS_clean_linker_0, # of connection points: 2
#     Edge 4, Type (0, 0), BuildingBlock: ZUJKAS_clean_linker_0, # of connection points: 2
#     Edge 5, Type (0, 0), BuildingBlock: ZUJKAS_clean_linker_0, # of connection points: 2
#     Edge 6, Type (0, 0), BuildingBlock: ZUJKAS_clean_linker_0, # of connection points: 2
#     Edge 7, Type (0, 0), BuildingBlock: ZUJKAS_clean_linker_0, # of connection points: 2
#     Edge 8, Type (0, 0), BuildingBlock: ZUJKAS_clean_linker_0, # of connection points: 2
# Relax obj value: 0.004
# Max RMSD: 0.040
# Mean RMSD: 0.038
data_MOF--net-qtz--node1-CEKHIL_clean_sbu_0--edge1-ZUJKAS_clean_linker_0
_symmetry_space_group_name_H-M    P1
_symmetry_Int_Tables_number       1
_symmetry_cell_setting            triclinic
loop_
_symmetry_equiv_pos_as_xyz
'x, y, z'
_cell_length_a     29.912143
_cell_length_b     30.092215
_cell_length_c     37.016025
_cell_angle_alpha  91.518737
_cell_angle_beta   89.942732
_cell_angle_gamma 120.56183
loop_
_atom_site_label
_atom_site_type_symbol
_atom_site_fract_x
_atom_site_fract_y
_atom_site_fract_z
_atom_type_partial_charge
Co0 Co 0.00612 0.52258 0.15997 0.0
O1 O 0.06038 0.55862 0.12562 0.0
O2 O 0.04705 0.48947 0.15436 0.0
C3 C 0.94255 0.52037 0.12547 0.0
O4 O 0.95305 0.47364 0.19608 0.0
Co5 Co 0.94757 0.57286 0.19408 0.0
O6 O 0.89987 0.50288 0.21195 0.0
C7 C 0.05443 0.60682 0.21886 0.0
C8 C 0.07367 0.52441 0.13082 0.0
C9 C 0.91255 0.46837 0.21234 0.0
O10 O 0.0534 0.56944 0.20036 0.0
O11 O 0.01773 0.61695 0.21761 0.0
O12 O 0.95616 0.48599 0.12066 0.0
O13 O 0.96988 0.55674 0.14906 0.0
Co14 Co 0.52355 0.0247 0.52012 0.0
O15 O 0.49155 0.9776 0.55852 0.0
O16 O 0.55493 0.98194 0.52522 0.0
C17 C 0.53324 0.09374 0.5527 0.0
O18 O 0.56743 0.0714 0.47924 0.0
Co19 Co 0.46867 0.08012 0.4896 0.0
O20 O 0.5371 0.12439 0.46746 0.0
C21 C 0.43047 0.9711 0.46836 0.0
C22 C 0.52377 0.9617 0.55232 0.0
C23 C 0.57092 0.11085 0.46351 0.0
O24 O 0.46987 0.97319 0.48425 0.0
O25 O 0.42118 0.00822 0.47003 0.0
O26 O 0.56726 0.07934 0.55539 0.0
O27 O 0.49311 0.06407 0.53266 0.0
Co28 Co 0.5049 0.52345 0.82608 0.0
O29 O 0.471 0.54134 0.79016 0.0
O30 O 0.53518 0.59805 0.8257 0.0
C31 C 0.51566 0.46867 0.78926 0.0
O32 O 0.55082 0.51845 0.86493 0.0
Co33 Co 0.4536 0.41018 0.85038 0.0
O34 O 0.52358 0.43427 0.87096 0.0
C35 C 0.4154 0.47706 0.87954 0.0
C36 C 0.50321 0.58928 0.79892 0.0
C37 C 0.55644 0.48187 0.87737 0.0
O38 O 0.45213 0.51608 0.86345 0.0
O39 O 0.40755 0.43119 0.87565 0.0
O40 O 0.54824 0.51799 0.78895 0.0
O41 O 0.4756 0.45454 0.80941 0.0
H42 H 0.41578 0.56718 0.89592 0.0
H43 H 0.36237 0.5801 0.94054 0.0
H44 H 0.28583 0.41896 0.96575 0.0
H45 H 0.33853 0.40549 0.9216 0.0
H46 H 0.249 0.52589 0.94378 0.0
H47 H 0.339 0.49681 0.06518 0.0
H48 H 0.37009 0.51173 0.02173 0.0
H49 H 0.3186 0.44731 0.03035 0.0
C50 C 0.38753 0.53444 0.91089 0.0
C51 C 0.38176 0.48533 0.90516 0.0
C52 C 0.35711 0.54194 0.9364 0.0
C53 C 0.32084 0.50065 0.95686 0.0
C54 C 0.31431 0.45154 0.95075 0.0
H55 H 0.0944 0.44596 0.12184 0.0
H56 H 0.15642 0.44259 0.08008 0.0
C57 C 0.34437 0.44392 0.92524 0.0
C58 C 0.28879 0.50822 0.98416 0.0
H59 H 0.26155 0.49907 0.07424 0.0
C60 C 0.252 0.52056 0.97236 0.0
C61 C 0.2926 0.50078 0.02136 0.0
C62 C 0.33247 0.48883 0.03559 0.0
C63 C 0.21775 0.52416 0.99664 0.0
C64 C 0.22141 0.51659 0.03392 0.0
C65 C 0.25872 0.50486 0.04573 0.0
C66 C 0.18633 0.51995 0.06095 0.0
C67 C 0.17675 0.53414 0.98184 0.0
C68 C 0.18372 0.56507 0.06499 0.0
C69 C 0.14806 0.56687 0.0885 0.0
C70 C 0.11491 0.5239 0.109 0.0
C71 C 0.1194 0.47966 0.10639 0.0
C72 C 0.15476 0.47768 0.0825 0.0
H73 H 0.16968 0.52431 0.95246 0.0
H74 H 0.13945 0.51152 0.9961 0.0
H75 H 0.18999 0.57575 0.98562 0.0
H76 H 0.20877 0.59873 0.04954 0.0
H77 H 0.14597 0.60176 0.09023 0.0
H78 H 0.93261 0.39178 0.2307 0.0
H79 H 0.88041 0.31807 0.26931 0.0
H80 H 0.76831 0.36683 0.28194 0.0
H81 H 0.81932 0.43963 0.24353 0.0
H82 H 0.85111 0.32092 0.34205 0.0
H83 H 0.67782 0.21394 0.25319 0.0
H84 H 0.73975 0.26348 0.23669 0.0
H85 H 0.69686 0.28067 0.25895 0.0
C86 C 0.89652 0.38643 0.24135 0.0
C87 C 0.88022 0.42172 0.23385 0.0
C88 C 0.86684 0.34437 0.26349 0.0
C89 C 0.82006 0.3365 0.27808 0.0
C90 C 0.80368 0.37145 0.27041 0.0
H91 H 0.59563 0.20208 0.43351 0.0
H92 H 0.66048 0.24925 0.38833 0.0
C93 C 0.83321 0.41337 0.24853 0.0
C94 C 0.78892 0.29352 0.30276 0.0
H95 H 0.66434 0.19719 0.317 0.0
C96 C 0.81062 0.29291 0.33627 0.0
C97 C 0.73618 0.25675 0.29511 0.0
C98 C 0.71142 0.25332 0.25886 0.0
C99 C 0.77982 0.25912 0.36331 0.0
C100 C 0.72627 0.22517 0.3565 0.0
C101 C 0.70544 0.22345 0.3222 0.0
C102 C 0.68975 0.19678 0.38582 0.0
C103 C 0.80367 0.26212 0.3998 0.0
C104 C 0.68511 0.1517 0.39986 0.0
C105 C 0.64754 0.12409 0.42598 0.0
C106 C 0.61406 0.1412 0.43826 0.0
C107 C 0.62021 0.18724 0.42463 0.0
C108 C 0.65739 0.21448 0.39873 0.0
H109 H 0.84591 0.29097 0.40095 0.0
H110 H 0.78394 0.27254 0.42095 0.0
H111 H 0.79791 0.22374 0.40624 0.0
H112 H 0.70969 0.13734 0.39007 0.0
H113 H 0.64388 0.08883 0.43582 0.0
H114 H 0.48921 0.94396 0.62079 0.0
H115 H 0.49211 0.88559 0.66347 0.0
H116 H 0.56536 0.83729 0.5837 0.0
H117 H 0.56478 0.89833 0.54097 0.0
H118 H 0.44499 0.78684 0.66072 0.0
H119 H 0.65609 0.85903 0.66947 0.0
H120 H 0.6303 0.89411 0.64736 0.0
H121 H 0.63038 0.84075 0.62426 0.0
C122 C 0.50624 0.92117 0.61223 0.0
C123 C 0.52658 0.92559 0.57739 0.0
C124 C 0.50794 0.88776 0.63679 0.0
C125 C 0.52936 0.85718 0.62714 0.0
C126 C 0.54976 0.86133 0.59223 0.0
H127 H 0.44795 0.57737 0.73769 0.0
H128 H 0.45607 0.64346 0.69744 0.0
C129 C 0.54899 0.89582 0.56768 0.0
C130 C 0.52721 0.81932 0.65333 0.0
H131 H 0.60026 0.77952 0.69787 0.0
C132 C 0.47913 0.78557 0.6689 0.0
C133 C 0.57174 0.81797 0.66462 0.0
C134 C 0.62514 0.85525 0.65086 0.0
C135 C 0.47419 0.75056 0.69509 0.0
C136 C 0.51816 0.74749 0.70514 0.0
C137 C 0.56646 0.78157 0.68999 0.0
C138 C 0.51407 0.70769 0.73016 0.0
C139 C 0.42191 0.71795 0.71221 0.0
C140 C 0.54511 0.72146 0.76168 0.0
C141 C 0.54105 0.68332 0.78478 0.0
C142 C 0.50586 0.63083 0.77668 0.0
C143 C 0.47495 0.61741 0.74512 0.0
C144 C 0.47939 0.65528 0.72203 0.0
H145 H 0.39823 0.7368 0.7111 0.0
H146 H 0.40025 0.68038 0.69714 0.0
H147 H 0.42599 0.71045 0.74087 0.0
H148 H 0.57241 0.76169 0.76841 0.0
H149 H 0.56574 0.69485 0.80868 0.0
H150 H 0.62482 0.57464 0.91199 0.0
H151 H 0.69276 0.59064 0.95645 0.0
H152 H 0.65639 0.433 0.94207 0.0
H153 H 0.58875 0.41654 0.89833 0.0
H154 H 0.65879 0.46298 0.01414 0.0
H155 H 0.83621 0.60499 0.94238 0.0
H156 H 0.78557 0.62025 0.94686 0.0
H157 H 0.77455 0.56544 0.91938 0.0
C158 C 0.6318 0.54362 0.91798 0.0
C159 C 0.60103 0.49423 0.90169 0.0
C160 C 0.67071 0.55286 0.94333 0.0
C161 C 0.67972 0.51301 0.95249 0.0
C162 C 0.65 0.46425 0.93553 0.0
H163 H 0.87434 0.44443 0.07866 0.0
H164 H 0.80963 0.44629 0.03928 0.0
C165 C 0.61126 0.45497 0.91046 0.0
C166 C 0.71814 0.52043 0.9809 0.0
H167 H 0.84813 0.58149 1.00034 0.0
C168 C 0.70016 0.48919 0.01122 0.0
C169 C 0.77208 0.55474 0.97711 0.0
C170 C 0.79357 0.5881 0.94461 0.0
C171 C 0.73469 0.49042 0.0374 0.0
C172 C 0.78861 0.52348 0.03305 0.0
C173 C 0.80666 0.55615 1.00349 0.0
C174 C 0.82683 0.52224 0.05778 0.0
C175 C 0.7134 0.45593 0.06938 0.0
C176 C 0.85787 0.56437 0.0812 0.0
C177 C 0.89459 0.56323 0.10398 0.0
C178 C 0.90133 0.52022 0.10329 0.0
C179 C 0.86998 0.47804 0.07988 0.0
C180 C 0.83299 0.47902 0.05739 0.0
H181 H 0.67129 0.44116 0.0729 0.0
H182 H 0.71888 0.42234 0.06525 0.0
H183 H 0.73451 0.47693 0.0946 0.0
H184 H 0.85369 0.59809 0.08179 0.0
H185 H 0.91835 0.59642 0.12161 0.0
H186 H 0.33781 0.94823 0.43815 0.0
H187 H 0.28378 0.87845 0.39534 0.0
H188 H 0.38833 0.81991 0.40229 0.0
H189 H 0.4433 0.89018 0.44567 0.0
H190 H 0.32417 0.86285 0.32695 0.0
H191 H 0.23737 0.69081 0.41392 0.0
H192 H 0.26279 0.75535 0.43278 0.0
H193 H 0.30642 0.7353 0.41649 0.0
C194 C 0.34937 0.92042 0.43099 0.0
C195 C 0.39526 0.92518 0.44528 0.0
C196 C 0.3183 0.88047 0.40646 0.0
C197 C 0.33205 0.84409 0.39567 0.0
C198 C 0.37686 0.84743 0.41055 0.0
H199 H 0.13619 0.59343 0.23686 0.0
H200 H 0.20989 0.64844 0.27761 0.0
C201 C 0.40821 0.88763 0.43529 0.0
C202 C 0.30045 0.80496 0.3672 0.0
H203 H 0.20572 0.67861 0.3541 0.0
C204 C 0.29889 0.82237 0.33269 0.0
C205 C 0.2679 0.75218 0.37471 0.0
C206 C 0.26822 0.7319 0.41146 0.0
C207 C 0.26383 0.78892 0.30601 0.0
C208 C 0.22887 0.73689 0.31424 0.0
C209 C 0.2325 0.71862 0.34799 0.0
C210 C 0.18472 0.70297 0.28968 0.0
C211 C 0.26331 0.80991 0.26955 0.0
C212 C 0.14605 0.71517 0.28341 0.0
C213 C 0.10406 0.68401 0.26041 0.0
C214 C 0.09966 0.63972 0.24309 0.0
C215 C 0.13844 0.62734 0.24959 0.0
C216 C 0.18049 0.6586 0.27291 0.0
H217 H 0.30105 0.84514 0.264 0.0
H218 H 0.25456 0.7806 0.24761 0.0
H219 H 0.23271 0.8204 0.26902 0.0
H220 H 0.14826 0.74889 0.29651 0.0
H221 H 0.07507 0.69484 0.25623 0.0
H222 H 0.45448 0.36349 0.78587 0.0
H223 H 0.46399 0.30304 0.74552 0.0
H224 H 0.60216 0.42978 0.70125 0.0
H225 H 0.59281 0.49044 0.7413 0.0
H226 H 0.52917 0.36268 0.64885 0.0
H227 H 0.5715 0.2559 0.75029 0.0
H228 H 0.5146 0.25989 0.75938 0.0
H229 H 0.57738 0.31771 0.76041 0.0
C230 C 0.48715 0.37839 0.76779 0.0
C231 C 0.52291 0.43166 0.76673 0.0
C232 C 0.49266 0.34383 0.74488 0.0
C233 C 0.53406 0.36196 0.72068 0.0
C234 C 0.57006 0.41505 0.71985 0.0
H235 H 0.61395 0.16275 0.59614 0.0
H236 H 0.61757 0.23169 0.63502 0.0
C237 C 0.5647 0.4496 0.74279 0.0
C238 C 0.53845 0.32587 0.69501 0.0
H239 H 0.55234 0.22015 0.69033 0.0
C240 C 0.53457 0.33168 0.65785 0.0
C241 C 0.54617 0.28598 0.70688 0.0
C242 C 0.55315 0.27961 0.74639 0.0
C243 C 0.53691 0.29779 0.63219 0.0
C244 C 0.54249 0.25656 0.64411 0.0
C245 C 0.54771 0.25158 0.68126 0.0
C246 C 0.54183 0.2174 0.61864 0.0
C247 C 0.53377 0.30671 0.59258 0.0
C248 C 0.49818 0.18672 0.59642 0.0
C249 C 0.49619 0.14765 0.57402 0.0
C250 C 0.53755 0.1381 0.57381 0.0
C251 C 0.58154 0.16928 0.59569 0.0
C252 C 0.58361 0.20856 0.61797 0.0
H253 H 0.54522 0.34743 0.58782 0.0
H254 H 0.55902 0.29697 0.57633 0.0
H255 H 0.49313 0.28175 0.58279 0.0
H256 H 0.46501 0.19207 0.59709 0.0
H257 H 0.4616 0.124 0.55765 0.0
loop_
_geom_bond_atom_site_label_1
_geom_bond_atom_site_label_2
_geom_bond_distance
_geom_bond_site_symmetry_2
_ccdc_geom_bond_type
Co0 O1 2.216 . S
Co0 O2 2.091 . S
Co0 O4 2.004 1_455 S
Co0 O10 2.021 . S
Co0 O12 2.137 1_455 S
Co0 O13 2.244 1_455 S
O1 Co0 2.216 . S
O1 C8 1.247 . S
O2 Co0 2.091 . S
O2 C8 1.261 . S
C3 O12 1.247 . S
C3 O13 1.272 . S
O4 Co0 2.004 1_655 S
O4 C9 1.259 . S
Co5 O6 2.061 . S
Co5 O11 2.052 1_655 S
Co5 O13 2.135 . S
O6 Co5 2.061 . S
O6 C9 1.235 . S
C7 O10 1.238 . S
C7 O11 1.241 . S
C8 O1 1.247 . S
C8 O2 1.261 . S
C9 O4 1.259 . S
C9 O6 1.235 . S
O10 Co0 2.021 . S
O10 C7 1.238 . S
O11 Co5 2.052 1_455 S
O11 C7 1.241 . S
O12 Co0 2.137 1_655 S
O12 C3 1.247 . S
O13 Co0 2.244 1_655 S
O13 C3 1.272 . S
O13 Co5 2.135 . S
Co14 O15 2.216 1_545 S
Co14 O16 2.091 1_545 S
Co14 O18 2.004 . S
Co14 O24 2.021 1_545 S
Co14 O26 2.137 . S
Co14 O27 2.244 . S
O15 Co14 2.216 1_565 S
O15 C22 1.247 . S
O16 Co14 2.091 1_565 S
O16 C22 1.261 . S
C17 O26 1.247 . S
C17 O27 1.272 . S
O18 Co14 2.004 . S
O18 C23 1.259 . S
Co19 O20 2.061 . S
Co19 O25 2.052 1_545 S
Co19 O27 2.135 . S
O20 Co19 2.061 . S
O20 C23 1.235 . S
C21 O24 1.238 . S
C21 O25 1.241 . S
C22 O15 1.247 . S
C22 O16 1.261 . S
C23 O18 1.259 . S
C23 O20 1.235 . S
O24 Co14 2.021 1_565 S
O24 C21 1.238 . S
O25 Co19 2.052 1_565 S
O25 C21 1.241 . S
O26 Co14 2.137 . S
O26 C17 1.247 . S
O27 Co14 2.244 . S
O27 C17 1.272 . S
O27 Co19 2.135 . S
Co28 O29 2.216 . S
Co28 O30 2.091 . S
Co28 O32 2.004 . S
Co28 O38 2.021 . S
Co28 O40 2.137 . S
Co28 O41 2.244 . S
O29 Co28 2.216 . S
O29 C36 1.247 . S
O30 Co28 2.091 . S
O30 C36 1.261 . S
C31 O40 1.247 . S
C31 O41 1.272 . S
O32 Co28 2.004 . S
O32 C37 1.259 . S
Co33 O34 2.061 . S
Co33 O39 2.052 . S
Co33 O41 2.135 . S
O34 Co33 2.061 . S
O34 C37 1.235 . S
C35 O38 1.238 . S
C35 O39 1.241 . S
C36 O29 1.247 . S
C36 O30 1.261 . S
C37 O32 1.259 . S
C37 O34 1.235 . S
O38 Co28 2.021 . S
O38 C35 1.238 . S
O39 Co33 2.052 . S
O39 C35 1.241 . S
O40 Co28 2.137 . S
O40 C31 1.247 . S
O41 Co28 2.244 . S
O41 C31 1.272 . S
O41 Co33 2.135 . S
H42 C50 0.929 . S
H43 C52 0.930 . S
H44 C54 0.930 . S
H45 C57 0.929 . S
H46 C60 0.930 . S
H47 C62 0.960 . S
H48 C62 0.960 . S
H49 C62 0.960 1_556 S
C50 H42 0.929 . S
C50 C51 1.377 . S
C50 C52 1.384 . S
C51 C50 1.377 . S
C51 C57 1.390 . S
C52 H43 0.930 . S
C52 C50 1.384 . S
C52 C53 1.372 . S
C53 C52 1.372 . S
C53 C54 1.400 . S
C53 C58 1.490 . S
C54 H44 0.930 . S
C54 C53 1.400 . S
C54 C57 1.386 . S
H55 C71 0.930 . S
H56 C72 0.931 . S
C57 H45 0.929 . S
C57 C51 1.390 . S
C57 C54 1.386 . S
C58 C53 1.490 . S
C58 C60 1.395 . S
C58 C61 1.408 . S
H59 C65 0.930 . S
C60 H46 0.930 . S
C60 C58 1.395 . S
C60 C63 1.403 . S
C61 C58 1.408 . S
C61 C62 1.522 1_556 S
C61 C65 1.395 1_556 S
C62 H47 0.960 . S
C62 H48 0.960 . S
C62 H49 0.960 1_554 S
C62 C61 1.522 1_554 S
C63 C60 1.403 . S
C63 C64 1.392 1_556 S
C63 C67 1.495 . S
C64 C63 1.392 1_554 S
C64 C65 1.385 . S
C64 C66 1.478 . S
C65 H59 0.930 . S
C65 C61 1.395 1_554 S
C65 C64 1.385 . S
C66 C64 1.478 . S
C66 C68 1.381 . S
C66 C72 1.383 . S
C67 C63 1.495 . S
C67 H73 0.959 . S
C67 H74 0.961 . S
C67 H75 0.960 1_556 S
C68 C66 1.381 . S
C68 C69 1.394 . S
C68 H76 0.930 . S
C69 C68 1.394 . S
C69 C70 1.383 . S
C69 H77 0.929 . S
C70 C69 1.383 . S
C70 C71 1.377 . S
C71 H55 0.930 . S
C71 C70 1.377 . S
C71 C72 1.379 . S
C72 H56 0.931 . S
C72 C66 1.383 . S
C72 C71 1.379 . S
H73 C67 0.959 . S
H74 C67 0.961 . S
H75 C67 0.960 1_554 S
H76 C68 0.930 . S
H77 C69 0.929 . S
H78 C86 0.929 . S
H79 C88 0.930 . S
H80 C90 0.930 . S
H81 C93 0.929 . S
H82 C96 0.930 . S
H83 C98 0.960 . S
H84 C98 0.960 . S
H85 C98 0.960 . S
C86 H78 0.929 . S
C86 C87 1.377 . S
C86 C88 1.384 . S
C87 C86 1.377 . S
C87 C93 1.390 . S
C88 H79 0.930 . S
C88 C86 1.384 . S
C88 C89 1.372 . S
C89 C88 1.372 . S
C89 C90 1.400 . S
C89 C94 1.490 . S
C90 H80 0.930 . S
C90 C89 1.400 . S
C90 C93 1.386 . S
H91 C107 0.930 . S
H92 C108 0.931 . S
C93 H81 0.929 . S
C93 C87 1.390 . S
C93 C90 1.386 . S
C94 C89 1.490 . S
C94 C96 1.395 . S
C94 C97 1.403 . S
H95 C101 0.930 . S
C96 H82 0.930 . S
C96 C94 1.395 . S
C96 C99 1.403 . S
C97 C94 1.403 . S
C97 C98 1.524 . S
C97 C101 1.400 . S
C98 H83 0.960 . S
C98 H84 0.960 . S
C98 H85 0.960 . S
C98 C97 1.524 . S
C99 C96 1.403 . S
C99 C100 1.392 . S
C99 C103 1.495 . S
C100 C99 1.392 . S
C100 C101 1.385 . S
C100 C102 1.478 . S
C101 H95 0.930 . S
C101 C97 1.400 . S
C101 C100 1.385 . S
C102 C100 1.478 . S
C102 C104 1.381 . S
C102 C108 1.383 . S
C103 C99 1.495 . S
C103 H109 0.959 . S
C103 H110 0.961 . S
C103 H111 0.960 . S
C104 C102 1.381 . S
C104 C105 1.394 . S
C104 H112 0.930 . S
C105 C104 1.394 . S
C105 C106 1.383 . S
C105 H113 0.929 . S
C106 C105 1.383 . S
C106 C107 1.377 . S
C107 H91 0.930 . S
C107 C106 1.377 . S
C107 C108 1.379 . S
C108 H92 0.931 . S
C108 C102 1.383 . S
C108 C107 1.379 . S
H109 C103 0.959 . S
H110 C103 0.961 . S
H111 C103 0.960 . S
H112 C104 0.930 . S
H113 C105 0.929 . S
H114 C122 0.929 . S
H115 C124 0.930 . S
H116 C126 0.930 . S
H117 C129 0.929 . S
H118 C132 0.930 . S
H119 C134 0.960 . S
H120 C134 0.960 . S
H121 C134 0.960 . S
C122 H114 0.929 . S
C122 C123 1.377 . S
C122 C124 1.384 . S
C123 C122 1.377 . S
C123 C129 1.390 . S
C124 H115 0.930 . S
C124 C122 1.384 . S
C124 C125 1.372 . S
C125 C124 1.372 . S
C125 C126 1.400 . S
C125 C130 1.490 . S
C126 H116 0.930 . S
C126 C125 1.400 . S
C126 C129 1.386 . S
H127 C143 0.930 . S
H128 C144 0.931 . S
C129 H117 0.929 . S
C129 C123 1.390 . S
C129 C126 1.386 . S
C130 C125 1.490 . S
C130 C132 1.395 . S
C130 C133 1.403 . S
H131 C137 0.930 . S
C132 H118 0.930 . S
C132 C130 1.395 . S
C132 C135 1.403 . S
C133 C130 1.403 . S
C133 C134 1.524 . S
C133 C137 1.400 . S
C134 H119 0.960 . S
C134 H120 0.960 . S
C134 H121 0.960 . S
C134 C133 1.524 . S
C135 C132 1.403 . S
C135 C136 1.392 . S
C135 C139 1.495 . S
C136 C135 1.392 . S
C136 C137 1.385 . S
C136 C138 1.478 . S
C137 H131 0.930 . S
C137 C133 1.400 . S
C137 C136 1.385 . S
C138 C136 1.478 . S
C138 C140 1.381 . S
C138 C144 1.383 . S
C139 C135 1.495 . S
C139 H145 0.959 . S
C139 H146 0.961 . S
C139 H147 0.960 . S
C140 C138 1.381 . S
C140 C141 1.394 . S
C140 H148 0.930 . S
C141 C140 1.394 . S
C141 C142 1.383 . S
C141 H149 0.929 . S
C142 C141 1.383 . S
C142 C143 1.377 . S
C143 H127 0.930 . S
C143 C142 1.377 . S
C143 C144 1.379 . S
C144 H128 0.931 . S
C144 C138 1.383 . S
C144 C143 1.379 . S
H145 C139 0.959 . S
H146 C139 0.961 . S
H147 C139 0.960 . S
H148 C140 0.930 . S
H149 C141 0.929 . S
H150 C158 0.929 . S
H151 C160 0.930 . S
H152 C162 0.930 . S
H153 C165 0.929 . S
H154 C168 0.930 . S
H155 C170 0.960 . S
H156 C170 0.960 . S
H157 C170 0.960 . S
C158 H150 0.929 . S
C158 C159 1.377 . S
C158 C160 1.384 . S
C159 C158 1.377 . S
C159 C165 1.390 . S
C160 H151 0.930 . S
C160 C158 1.384 . S
C160 C161 1.372 . S
C161 C160 1.372 . S
C161 C162 1.400 . S
C161 C166 1.490 . S
C162 H152 0.930 . S
C162 C161 1.400 . S
C162 C165 1.386 . S
H163 C179 0.930 . S
H164 C180 0.931 . S
C165 H153 0.929 . S
C165 C159 1.390 . S
C165 C162 1.386 . S
C166 C161 1.490 . S
C166 C168 1.395 1_556 S
C166 C169 1.403 . S
H167 C173 0.930 . S
C168 H154 0.930 . S
C168 C166 1.395 1_554 S
C168 C171 1.403 . S
C169 C166 1.403 . S
C169 C170 1.524 . S
C169 C173 1.400 1_556 S
C170 H155 0.960 . S
C170 H156 0.960 . S
C170 H157 0.960 . S
C170 C169 1.524 . S
C171 C168 1.403 . S
C171 C172 1.392 . S
C171 C175 1.495 . S
C172 C171 1.392 . S
C172 C173 1.385 . S
C172 C174 1.478 . S
C173 H167 0.930 . S
C173 C169 1.400 1_554 S
C173 C172 1.385 . S
C174 C172 1.478 . S
C174 C176 1.381 . S
C174 C180 1.383 . S
C175 C171 1.495 . S
C175 H181 0.959 . S
C175 H182 0.961 . S
C175 H183 0.960 . S
C176 C174 1.381 . S
C176 C177 1.394 . S
C176 H184 0.930 . S
C177 C176 1.394 . S
C177 C178 1.383 . S
C177 H185 0.929 . S
C178 C177 1.383 . S
C178 C179 1.377 . S
C179 H163 0.930 . S
C179 C178 1.377 . S
C179 C180 1.379 . S
C180 H164 0.931 . S
C180 C174 1.383 . S
C180 C179 1.379 . S
H181 C175 0.959 . S
H182 C175 0.961 . S
H183 C175 0.960 . S
H184 C176 0.930 . S
H185 C177 0.929 . S
H186 C194 0.929 . S
H187 C196 0.930 . S
H188 C198 0.930 . S
H189 C201 0.929 . S
H190 C204 0.930 . S
H191 C206 0.960 . S
H192 C206 0.960 . S
H193 C206 0.960 . S
C194 H186 0.929 . S
C194 C195 1.377 . S
C194 C196 1.384 . S
C195 C194 1.377 . S
C195 C201 1.390 . S
C196 H187 0.930 . S
C196 C194 1.384 . S
C196 C197 1.372 . S
C197 C196 1.372 . S
C197 C198 1.400 . S
C197 C202 1.490 . S
C198 H188 0.930 . S
C198 C197 1.400 . S
C198 C201 1.386 . S
H199 C215 0.930 . S
H200 C216 0.931 . S
C201 H189 0.929 . S
C201 C195 1.390 . S
C201 C198 1.386 . S
C202 C197 1.490 . S
C202 C204 1.395 . S
C202 C205 1.403 . S
H203 C209 0.930 . S
C204 H190 0.930 . S
C204 C202 1.395 . S
C204 C207 1.403 . S
C205 C202 1.403 . S
C205 C206 1.524 . S
C205 C209 1.400 . S
C206 H191 0.960 . S
C206 H192 0.960 . S
C206 H193 0.960 . S
C206 C205 1.524 . S
C207 C204 1.403 . S
C207 C208 1.392 . S
C207 C211 1.495 . S
C208 C207 1.392 . S
C208 C209 1.385 . S
C208 C210 1.478 . S
C209 H203 0.930 . S
C209 C205 1.400 . S
C209 C208 1.385 . S
C210 C208 1.478 . S
C210 C212 1.381 . S
C210 C216 1.383 . S
C211 C207 1.495 . S
C211 H217 0.959 . S
C211 H218 0.961 . S
C211 H219 0.960 . S
C212 C210 1.381 . S
C212 C213 1.394 . S
C212 H220 0.930 . S
C213 C212 1.394 . S
C213 C214 1.383 . S
C213 H221 0.929 . S
C214 C213 1.383 . S
C214 C215 1.377 . S
C215 H199 0.930 . S
C215 C214 1.377 . S
C215 C216 1.379 . S
C216 H200 0.931 . S
C216 C210 1.383 . S
C216 C215 1.379 . S
H217 C211 0.959 . S
H218 C211 0.961 . S
H219 C211 0.960 . S
H220 C212 0.930 . S
H221 C213 0.929 . S
H222 C230 0.929 . S
H223 C232 0.930 . S
H224 C234 0.930 . S
H225 C237 0.929 . S
H226 C240 0.930 . S
H227 C242 0.960 . S
H228 C242 0.960 . S
H229 C242 0.960 . S
C230 H222 0.929 . S
C230 C231 1.377 . S
C230 C232 1.384 . S
C231 C230 1.377 . S
C231 C237 1.390 . S
C232 H223 0.930 . S
C232 C230 1.384 . S
C232 C233 1.372 . S
C233 C232 1.372 . S
C233 C234 1.400 . S
C233 C238 1.490 . S
C234 H224 0.930 . S
C234 C233 1.400 . S
C234 C237 1.386 . S
H235 C251 0.930 . S
H236 C252 0.931 . S
C237 H225 0.929 . S
C237 C231 1.390 . S
C237 C234 1.386 . S
C238 C233 1.490 . S
C238 C240 1.395 . S
C238 C241 1.403 . S
H239 C245 0.930 . S
C240 H226 0.930 . S
C240 C238 1.395 . S
C240 C243 1.403 . S
C241 C238 1.403 . S
C241 C242 1.524 . S
C241 C245 1.400 . S
C242 H227 0.960 . S
C242 H228 0.960 . S
C242 H229 0.960 . S
C242 C241 1.524 . S
C243 C240 1.403 . S
C243 C244 1.392 . S
C243 C247 1.495 . S
C244 C243 1.392 . S
C244 C245 1.385 . S
C244 C246 1.478 . S
C245 H239 0.930 . S
C245 C241 1.400 . S
C245 C244 1.385 . S
C246 C244 1.478 . S
C246 C248 1.381 . S
C246 C252 1.383 . S
C247 C243 1.495 . S
C247 H253 0.959 . S
C247 H254 0.961 . S
C247 H255 0.960 . S
C248 C246 1.381 . S
C248 C249 1.394 . S
C248 H256 0.930 . S
C249 C248 1.394 . S
C249 C250 1.383 . S
C249 H257 0.929 . S
C250 C249 1.383 . S
C250 C251 1.377 . S
C251 H235 0.930 . S
C251 C250 1.377 . S
C251 C252 1.379 . S
C252 H236 0.931 . S
C252 C246 1.383 . S
C252 C251 1.379 . S
H253 C247 0.959 . S
H254 C247 0.961 . S
H255 C247 0.960 . S
H256 C248 0.930 . S
H257 C249 0.929 . S
C51 C35 1.410 . S
C70 C8 1.429 . S
C87 C9 1.491 . S
C106 C23 1.498 . S
C123 C22 1.449 . S
C142 C36 1.450 . S
C159 C37 1.450 . S
C178 C3 1.456 . S
C195 C21 1.396 . S
C214 C7 1.392 . S
C231 C31 1.420 . S
C250 C17 1.424 . S
