# Generated by pormake.
# Topology kag, (6)-cn, num edge types: 1
# Building blocks:
#     Node 0, Type 0, BuildingBlock: NUHQIS_clean_sbu_0, # of connection points: 6
#     Node 1, Type 0, BuildingBlock: NUHQIS_clean_sbu_0, # of connection points: 6
#     Node 2, Type 0, BuildingBlock: NUHQIS_clean_sbu_0, # of connection points: 6
#     Edge 3, Type (0, 0), BuildingBlock: OJICUG_clean_linker_0, # of connection points: 2
#     Edge 4, Type (0, 0), BuildingBlock: OJICUG_clean_linker_0, # of connection points: 2
#     Edge 5, Type (0, 0), BuildingBlock: OJICUG_clean_linker_0, # of connection points: 2
#     Edge 6, Type (0, 0), BuildingBlock: OJICUG_clean_linker_0, # of connection points: 2
#     Edge 7, Type (0, 0), BuildingBlock: OJICUG_clean_linker_0, # of connection points: 2
#     Edge 8, Type (0, 0), BuildingBlock: OJICUG_clean_linker_0, # of connection points: 2
#     Edge 9, Type (0, 0), BuildingBlock: OJICUG_clean_linker_0, # of connection points: 2
#     Edge 10, Type (0, 0), BuildingBlock: OJICUG_clean_linker_0, # of connection points: 2
#     Edge 11, Type (0, 0), BuildingBlock: OJICUG_clean_linker_0, # of connection points: 2
# Relax obj value: 0.122
# Max RMSD: 0.234
# Mean RMSD: 0.132
data_MOF--net-kag--node1-NUHQIS_clean_sbu_0--edge1-OJICUG_clean_linker_0
_symmetry_space_group_name_H-M    P1
_symmetry_Int_Tables_number       1
_symmetry_cell_setting            triclinic
loop_
_symmetry_equiv_pos_as_xyz
'x, y, z'
_cell_length_a     40.890704
_cell_length_b     22.777074
_cell_length_c     11.195896
_cell_angle_alpha  87.619592
_cell_angle_beta   95.516311
_cell_angle_gamma 122.79524
loop_
_atom_site_label
_atom_site_type_symbol
_atom_site_fract_x
_atom_site_fract_y
_atom_site_fract_z
_atom_type_partial_charge
Tb0 Tb 0.05542 0.49687 0.01954 0.0
Eu1 Eu 1.04936 0.63474 0.00329 0.0
C2 C 0.05377 0.5657 0.25129 0.0
C3 C 0.97168 0.47745 0.00404 0.0
C4 C 0.10399 0.40027 0.02126 0.0
C5 C 0.15754 0.39034 0.10934 0.0
C6 C 0.12165 0.3831 0.11805 0.0
C7 C 0.1224 0.42305 0.91403 0.0
C8 C 0.15814 0.42967 0.90486 0.0
C9 C 0.17649 0.41443 0.00304 0.0
C10 C 0.06878 0.40087 0.03853 0.0
O11 O 0.06576 0.53329 0.83511 0.0
O12 O 1.03213 0.58773 0.81726 0.0
O13 O 0.11081 0.67556 0.96363 0.0
O14 O 0.11538 0.58763 0.05351 0.0
C15 C 1.04849 0.55952 0.7686 0.0
O16 O 1.04777 0.71825 0.9055 0.0
O17 O 1.04351 0.7101 0.09717 0.0
O18 O 0.06923 0.62516 0.19427 0.0
O19 O 1.03819 0.50672 0.19192 0.0
O20 O 0.99208 0.45001 0.98392 0.0
O21 O 0.98848 0.54431 0.02778 0.0
C22 C 0.13163 0.65005 0.00531 0.0
O23 O 0.07269 0.43941 0.12822 0.0
O24 O 0.05036 0.4089 0.94376 0.0
C25 C 1.00275 0.73722 0.98366 0.0
C26 C 0.93022 0.72362 -0.0145 0.0
C27 C 0.93319 0.67448 0.92372 0.0
C28 C 0.96912 0.68105 0.9233 0.0
C29 C 1.00017 0.78738 0.04267 0.0
C30 C 0.96415 0.78069 0.04356 0.0
C31 C 1.03904 0.73817 -0.00162 0.0
H32 H 0.17094 0.37905 0.1874 0.0
H33 H 0.10825 0.36617 0.20209 0.0
H34 H 0.10968 0.4372 0.83797 0.0
H35 H 0.17148 0.44714 0.82087 0.0
H36 H 0.90751 0.62952 0.87955 0.0
H37 H 0.97038 0.6409 0.8793 0.0
H38 H 1.02575 0.83047 0.09106 0.0
H39 H 0.96273 0.8197 0.09084 0.0
Tb40 Tb 0.60106 0.11758 -0.01427 0.0
Eu41 Eu 0.50153 1.02256 0.96427 0.0
C42 C 0.55347 0.07626 0.21621 0.0
C43 C 0.55195 0.95056 0.96562 0.0
C44 C 0.71834 0.2293 -0.00041 0.0
C45 C 0.78148 0.24393 0.06043 0.0
C46 C 0.74057 0.20532 0.06081 0.0
C47 C 0.73805 0.2928 0.9381 0.0
C48 C 0.77883 0.33141 0.93791 0.0
C49 C 0.80126 0.30771 -0.00088 0.0
C50 C 0.67483 0.18732 -0.00481 0.0
O51 O 0.58254 0.11215 0.79585 0.0
O52 O 0.51785 1.02022 0.77956 0.0
O53 O 0.52052 0.13535 0.93913 0.0
O54 O 0.58493 0.19319 0.01844 0.0
C55 C 0.55043 1.06588 0.73202 0.0
O56 O 0.44386 0.99974 0.88919 0.0
O57 O 0.44837 0.93538 0.03316 0.0
O58 O 0.52222 1.06553 0.1514 0.0
O59 O 0.58451 0.08737 0.16841 0.0
O60 O 0.58335 1.01075 0.93963 0.0
O61 O 0.52029 0.94606 -0.0052 0.0
C62 C 0.55326 0.1928 0.97864 0.0
O63 O 0.65465 0.12885 0.05205 0.0
O64 O 0.65342 0.20709 0.93619 0.0
C65 C 0.38247 0.90287 0.96023 0.0
C66 C 0.30021 0.81924 0.97208 0.0
C67 C 0.31922 0.89068 0.94286 0.0
C68 C 0.35975 0.93173 0.93596 0.0
C69 C 0.36383 0.83183 -0.01093 0.0
C70 C 0.32323 0.79039 -0.00625 0.0
C71 C 0.42558 0.9472 0.96117 0.0
H72 H 0.79764 0.22424 0.10967 0.0
H73 H 0.72634 0.15647 0.1087 0.0
H74 H 0.72191 0.31262 0.88904 0.0
H75 H 0.79276 0.37958 0.88811 0.0
H76 H 0.30302 0.91568 0.92776 0.0
H77 H 0.37346 0.98658 0.9148 0.0
H78 H 0.38066 0.80815 0.00768 0.0
H79 H 0.30998 0.73554 0.01376 0.0
Tb80 Tb 0.50512 0.52515 0.94658 0.0
Eu81 Eu 0.60153 0.62105 0.97211 0.0
C82 C 0.55178 0.57332 0.7201 0.0
C83 C 0.5542 0.4515 0.96739 0.0
C84 C 0.39736 0.45845 0.93869 0.0
C85 C 0.34288 0.46715 0.85561 0.0
C86 C 0.37719 0.46977 0.84102 0.0
C87 C 0.38265 0.44524 0.05192 0.0
C88 C 0.34814 0.44224 0.06637 0.0
C89 C 0.32764 0.45237 0.96802 0.0
C90 C 0.43127 0.4542 0.91803 0.0
O91 O 0.52123 0.56035 0.13355 0.0
O92 O 0.58308 0.581 0.15664 0.0
O93 O 0.58456 0.69803 -0.00139 0.0
O94 O 0.51964 0.63335 0.92704 0.0
C95 C 0.55183 0.57014 0.20207 0.0
O96 O 0.65807 0.68638 0.07555 0.0
O97 O 0.65524 0.67057 0.88419 0.0
O98 O 0.58022 0.62725 0.78203 0.0
O99 O 0.52417 0.51961 0.77448 0.0
O100 O 0.52153 0.44819 0.98197 0.0
O101 O 0.58685 0.51099 0.94839 0.0
C102 C 0.55169 0.69333 0.96277 0.0
O103 O 0.45378 0.49558 0.83744 0.0
O104 O 0.45138 0.44914 0.01108 0.0
C105 C 0.71173 0.69096 0.00075 0.0
C106 C 0.78086 0.69138 0.01126 0.0
C107 C 0.77998 0.74353 0.07101 0.0
C108 C 0.74569 0.74335 0.06545 0.0
C109 C 0.71192 0.63688 0.94566 0.0
C110 C 0.74629 0.63724 0.95057 0.0
C111 C 0.67773 0.6973 0.98318 0.0
H112 H 0.32752 0.47422 0.77773 0.0
H113 H 0.38741 0.47889 0.75225 0.0
H114 H 0.39728 0.43576 0.1289 0.0
H115 H 0.3373 0.43139 0.15436 0.0
H116 H 0.80621 0.78619 0.1177 0.0
H117 H 0.74606 0.78553 0.10827 0.0
H118 H 0.68589 0.59554 0.89589 0.0
H119 H 0.746 0.59585 0.90522 0.0
C120 C 1.04883 0.61338 0.56769 0.0
C121 C 1.04936 0.56059 0.63605 0.0
H122 H 0.05079 0.65738 0.39308 0.0
C123 C 0.05164 0.50986 0.57676 0.0
H124 H 1.04738 0.65354 0.61078 0.0
C125 C 0.05273 0.51122 0.45179 0.0
C126 C 0.05275 0.56455 0.3837 0.0
H127 H 0.0521 0.46855 0.62684 0.0
H128 H 0.05409 0.471 0.40859 0.0
C129 C 0.05106 0.61589 0.44315 0.0
C130 C 0.58776 0.10213 0.42342 0.0
C131 C 0.55294 0.07367 0.34825 0.0
H132 H 0.61426 0.12229 0.60375 0.0
C133 C 0.51721 1.04143 0.40037 0.0
H134 H 0.61572 0.1272 0.38603 0.0
C135 C 0.5163 1.03771 0.52495 0.0
C136 C 0.55114 1.0671 0.60014 0.0
H137 H 0.48979 1.01842 0.34492 0.0
H138 H 0.48833 1.01278 0.56223 0.0
C139 C 0.58689 0.09939 0.54812 0.0
C140 C 0.51638 0.53264 0.51475 0.0
C141 C 0.55156 0.57233 0.58754 0.0
H142 H 0.48876 0.50192 0.33558 0.0
C143 C 0.58671 0.61116 0.53247 0.0
H144 H 0.48882 0.50238 0.55458 0.0
C145 C 0.58676 0.60962 0.40758 0.0
C146 C 0.55157 0.57069 0.33455 0.0
H147 H 0.61431 0.64201 0.58611 0.0
H148 H 0.61438 0.63981 0.36804 0.0
C149 C 0.51633 0.53259 0.38942 0.0
C150 C 0.24418 0.48165 0.93278 0.0
C151 C 0.21552 0.42483 -0.00446 0.0
H152 H 0.30209 0.5354 0.87617 0.0
C153 C 0.22461 0.37837 0.05186 0.0
H154 H 0.23862 0.51941 0.89047 0.0
C155 C 0.26121 0.38817 0.04493 0.0
C156 C 0.28957 0.44436 0.98078 0.0
H157 H 0.20317 0.33347 0.09951 0.0
H158 H 0.26694 0.35062 0.08726 0.0
C159 C 0.28068 0.49112 0.92509 0.0
C160 C 0.86586 0.42348 0.00956 0.0
C161 C 0.84501 0.35022 0.00028 0.0
H162 H 0.92121 0.52011 0.01779 0.0
C163 C 0.86638 0.31866 -0.00828 0.0
H164 H 0.85075 0.44991 0.01813 0.0
C165 C 0.90737 0.35937 -0.00822 0.0
C166 C 0.92807 0.43268 0.00134 0.0
H167 H 0.85139 0.26245 0.98331 0.0
H168 H 0.92279 0.33335 -0.0151 0.0
C169 C 0.90659 0.46392 0.01017 0.0
C170 C 0.58694 0.88687 0.96601 0.0
C171 C 0.55183 0.88475 0.96169 0.0
H172 H 0.61447 0.82901 0.97113 0.0
C173 C 0.51646 0.81872 0.956 0.0
H174 H 0.61474 0.93646 0.97088 0.0
C175 C 0.51623 0.75675 0.95459 0.0
C176 C 0.5514 0.7589 0.96101 0.0
H177 H 0.48877 0.81478 0.95213 0.0
H178 H 0.48847 0.70711 0.95024 0.0
C179 C 0.58674 0.82495 0.96669 0.0
C180 C 0.86487 0.69364 0.8905 0.0
C181 C 0.89163 0.714 -0.00742 0.0
H182 H 0.80897 0.67104 0.81635 0.0
C183 C 0.88113 0.72426 0.10203 0.0
H184 H 0.87231 0.68593 0.80475 0.0
C185 C 0.84481 0.71542 0.10885 0.0
C186 C 0.81828 0.69612 0.00636 0.0
H187 H 0.90087 0.73856 0.18272 0.0
H188 H 0.83746 0.72359 0.19441 0.0
C189 C 0.82856 0.68483 0.8973 0.0
C190 C 0.19957 0.67867 0.06964 0.0
C191 C 0.17466 0.69314 -0.00201 0.0
H192 H 0.25825 0.70784 0.12141 0.0
C193 C 0.19121 0.74888 0.91732 0.0
H194 H 0.18784 0.63627 0.13304 0.0
C195 C 0.23158 0.78896 0.90804 0.0
C196 C 0.25682 0.77537 0.98072 0.0
H197 H 0.17286 0.76097 0.85948 0.0
H198 H 0.24282 0.83005 0.84229 0.0
C199 C 0.24009 0.71958 0.06199 0.0
C200 C 0.51888 0.31958 0.96546 0.0
C201 C 0.55418 0.38544 0.9726 0.0
H202 H 0.49086 0.20824 0.96094 0.0
C203 C 0.58939 0.38725 -0.01592 0.0
H204 H 0.49116 0.31568 0.95645 0.0
C205 C 0.58924 0.32517 -0.01173 0.0
C206 C 0.55389 0.25936 0.97916 0.0
H207 H 0.61723 0.43677 -0.00971 0.0
H208 H 0.61691 0.32886 -0.00329 0.0
C209 C 0.51874 0.25767 0.96776 0.0
loop_
_geom_bond_atom_site_label_1
_geom_bond_atom_site_label_2
_geom_bond_distance
_geom_bond_site_symmetry_2
_ccdc_geom_bond_type
Tb0 C10 2.825 . S
Tb0 O11 2.347 1_554 S
Tb0 O14 2.366 . S
Tb0 O19 2.418 . S
Tb0 O20 2.384 1_455 S
Tb0 O23 2.479 . S
Tb0 O24 2.471 1_554 S
Eu1 O12 2.418 . S
Eu1 O13 2.384 1_655 S
Eu1 O16 2.479 . S
Eu1 O17 2.471 1_556 S
Eu1 O18 2.347 1_556 S
Eu1 O21 2.366 . S
Eu1 C31 2.825 . S
C2 O18 1.259 1_455 S
C2 O19 1.265 . S
C3 O20 1.255 1_556 S
C3 O21 1.265 . S
C4 C6 1.380 1_556 S
C4 C7 1.374 . S
C4 C10 1.507 1_556 S
C5 C6 1.384 . S
C5 C9 1.387 1_554 S
C5 H32 0.930 . S
C6 C4 1.380 1_554 S
C6 C5 1.384 . S
C6 H33 0.931 . S
C7 C4 1.374 . S
C7 C8 1.390 . S
C7 H34 0.930 . S
C8 C7 1.390 . S
C8 C9 1.391 . S
C8 H35 0.930 . S
C9 C5 1.387 1_556 S
C9 C8 1.391 . S
C10 Tb0 2.825 . S
C10 C4 1.507 1_554 S
C10 O23 1.238 . S
C10 O24 1.247 1_554 S
O11 Tb0 2.347 1_556 S
O11 C15 1.259 1_455 S
O12 Eu1 2.418 . S
O12 C15 1.265 . S
O13 Eu1 2.384 1_455 S
O13 C22 1.255 1_556 S
O14 Tb0 2.366 . S
O14 C22 1.265 . S
C15 O11 1.259 1_655 S
C15 O12 1.265 . S
O16 Eu1 2.479 . S
O16 C31 1.238 . S
O17 Eu1 2.471 1_554 S
O17 C31 1.247 1_554 S
O18 Eu1 2.347 1_554 S
O18 C2 1.259 1_655 S
O19 Tb0 2.418 . S
O19 C2 1.265 . S
O20 Tb0 2.384 1_655 S
O20 C3 1.255 1_554 S
O21 Eu1 2.366 . S
O21 C3 1.265 . S
C22 O13 1.255 1_554 S
C22 O14 1.265 . S
O23 Tb0 2.479 . S
O23 C10 1.238 . S
O24 Tb0 2.471 1_556 S
O24 C10 1.247 1_556 S
C25 C28 1.380 1_554 S
C25 C29 1.374 . S
C25 C31 1.507 1_554 S
C26 C27 1.387 1_554 S
C26 C30 1.391 . S
C27 C26 1.387 1_556 S
C27 C28 1.384 . S
C27 H36 0.930 . S
C28 C25 1.380 1_556 S
C28 C27 1.384 . S
C28 H37 0.931 . S
C29 C25 1.374 . S
C29 C30 1.390 . S
C29 H38 0.930 . S
C30 C26 1.391 . S
C30 C29 1.390 . S
C30 H39 0.930 . S
C31 Eu1 2.825 . S
C31 O16 1.238 . S
C31 O17 1.247 1_556 S
C31 C25 1.507 1_556 S
H32 C5 0.930 . S
H33 C6 0.931 . S
H34 C7 0.930 . S
H35 C8 0.930 . S
H36 C27 0.930 . S
H37 C28 0.931 . S
H38 C29 0.930 . S
H39 C30 0.930 . S
Tb40 C50 2.825 . S
Tb40 O51 2.347 1_554 S
Tb40 O54 2.366 . S
Tb40 O59 2.418 . S
Tb40 O60 2.384 1_545 S
Tb40 O63 2.479 . S
Tb40 O64 2.471 1_554 S
Eu41 O52 2.418 . S
Eu41 O53 2.384 1_565 S
Eu41 O56 2.479 . S
Eu41 O57 2.471 1_556 S
Eu41 O58 2.347 1_556 S
Eu41 O61 2.366 . S
Eu41 C71 2.825 . S
C42 O58 1.259 1_545 S
C42 O59 1.265 . S
C43 O60 1.254 1_556 S
C43 O61 1.266 . S
C44 C46 1.380 . S
C44 C47 1.374 1_554 S
C44 C50 1.507 . S
C45 C46 1.384 . S
C45 C49 1.387 1_554 S
C45 H72 0.930 . S
C46 C44 1.380 . S
C46 C45 1.384 . S
C46 H73 0.931 . S
C47 C44 1.374 1_556 S
C47 C48 1.390 . S
C47 H74 0.930 . S
C48 C47 1.390 . S
C48 C49 1.391 . S
C48 H75 0.930 . S
C49 C45 1.387 1_556 S
C49 C48 1.391 . S
C50 Tb40 2.825 . S
C50 C44 1.507 . S
C50 O63 1.238 . S
C50 O64 1.247 1_554 S
O51 Tb40 2.347 1_556 S
O51 C55 1.259 1_545 S
O52 Eu41 2.418 . S
O52 C55 1.265 . S
O53 Eu41 2.384 1_545 S
O53 C62 1.255 1_556 S
O54 Tb40 2.366 . S
O54 C62 1.265 . S
C55 O51 1.259 1_565 S
C55 O52 1.265 . S
O56 Eu41 2.479 . S
O56 C71 1.238 . S
O57 Eu41 2.471 1_554 S
O57 C71 1.247 1_554 S
O58 Eu41 2.347 1_554 S
O58 C42 1.259 1_565 S
O59 Tb40 2.418 . S
O59 C42 1.265 . S
O60 Tb40 2.384 1_565 S
O60 C43 1.254 1_554 S
O61 Eu41 2.366 . S
O61 C43 1.266 . S
C62 O53 1.255 1_554 S
C62 O54 1.265 . S
O63 Tb40 2.479 . S
O63 C50 1.238 . S
O64 Tb40 2.471 1_556 S
O64 C50 1.247 1_556 S
C65 C68 1.380 . S
C65 C69 1.374 1_556 S
C65 C71 1.507 . S
C66 C67 1.387 1_554 S
C66 C70 1.391 . S
C67 C66 1.387 1_556 S
C67 C68 1.384 . S
C67 H76 0.930 . S
C68 C65 1.380 . S
C68 C67 1.384 . S
C68 H77 0.931 . S
C69 C65 1.374 1_554 S
C69 C70 1.390 . S
C69 H78 0.930 . S
C70 C66 1.391 . S
C70 C69 1.390 . S
C70 H79 0.930 . S
C71 Eu41 2.825 . S
C71 O56 1.238 . S
C71 O57 1.247 1_556 S
C71 C65 1.507 . S
H72 C45 0.930 . S
H73 C46 0.931 . S
H74 C47 0.930 . S
H75 C48 0.930 . S
H76 C67 0.930 . S
H77 C68 0.931 . S
H78 C69 0.930 . S
H79 C70 0.930 . S
Tb80 C90 2.825 . S
Tb80 O91 2.347 1_556 S
Tb80 O94 2.366 . S
Tb80 O99 2.418 . S
Tb80 O100 2.384 . S
Tb80 O103 2.479 . S
Tb80 O104 2.471 1_556 S
Eu81 O92 2.418 . S
Eu81 O93 2.384 . S
Eu81 O96 2.479 . S
Eu81 O97 2.471 1_554 S
Eu81 O98 2.347 1_554 S
Eu81 O101 2.366 . S
Eu81 C111 2.825 . S
C82 O98 1.259 . S
C82 O99 1.265 . S
C83 O100 1.255 1_554 S
C83 O101 1.265 . S
C84 C86 1.380 . S
C84 C87 1.374 1_556 S
C84 C90 1.507 . S
C85 C86 1.384 . S
C85 C89 1.387 1_556 S
C85 H112 0.930 . S
C86 C84 1.380 . S
C86 C85 1.384 . S
C86 H113 0.931 . S
C87 C84 1.374 1_554 S
C87 C88 1.390 . S
C87 H114 0.930 . S
C88 C87 1.390 . S
C88 C89 1.391 . S
C88 H115 0.930 . S
C89 C85 1.387 1_554 S
C89 C88 1.391 . S
C90 Tb80 2.825 . S
C90 C84 1.507 . S
C90 O103 1.238 . S
C90 O104 1.247 1_556 S
O91 Tb80 2.347 1_554 S
O91 C95 1.259 . S
O92 Eu81 2.418 . S
O92 C95 1.265 . S
O93 Eu81 2.384 . S
O93 C102 1.255 1_554 S
O94 Tb80 2.366 . S
O94 C102 1.265 . S
C95 O91 1.259 . S
C95 O92 1.265 . S
O96 Eu81 2.479 . S
O96 C111 1.238 . S
O97 Eu81 2.471 1_556 S
O97 C111 1.247 1_556 S
O98 Eu81 2.347 1_556 S
O98 C82 1.259 . S
O99 Tb80 2.418 . S
O99 C82 1.265 . S
O100 Tb80 2.384 . S
O100 C83 1.255 1_556 S
O101 Eu81 2.366 . S
O101 C83 1.265 . S
C102 O93 1.255 1_556 S
C102 O94 1.265 . S
O103 Tb80 2.479 . S
O103 C90 1.238 . S
O104 Tb80 2.471 1_554 S
O104 C90 1.247 1_554 S
C105 C108 1.380 . S
C105 C109 1.374 1_554 S
C105 C111 1.507 . S
C106 C107 1.387 1_556 S
C106 C110 1.391 . S
C107 C106 1.387 1_554 S
C107 C108 1.384 . S
C107 H116 0.930 . S
C108 C105 1.380 . S
C108 C107 1.384 . S
C108 H117 0.931 . S
C109 C105 1.374 1_556 S
C109 C110 1.390 . S
C109 H118 0.930 . S
C110 C106 1.391 . S
C110 C109 1.390 . S
C110 H119 0.930 . S
C111 Eu81 2.825 . S
C111 O96 1.238 . S
C111 O97 1.247 1_554 S
C111 C105 1.507 . S
H112 C85 0.930 . S
H113 C86 0.931 . S
H114 C87 0.930 . S
H115 C88 0.930 . S
H116 C107 0.930 . S
H117 C108 0.931 . S
H118 C109 0.930 . S
H119 C110 0.930 . S
C120 C121 1.374 1_655 S
C120 H124 0.950 . S
C120 C129 1.390 . S
C121 C120 1.374 1_455 S
C121 C123 1.404 . S
H122 C129 0.950 . S
C123 C121 1.404 . S
C123 C125 1.390 . S
C123 H127 0.950 . S
H124 C120 0.950 . S
C125 C123 1.390 . S
C125 C126 1.387 . S
C125 H128 0.950 . S
C126 C125 1.387 . S
C126 C129 1.387 1_455 S
H127 C123 0.950 . S
H128 C125 0.950 . S
C129 C120 1.390 . S
C129 H122 0.950 . S
C129 C126 1.387 1_655 S
C130 C131 1.387 1_545 S
C130 H134 0.950 . S
C130 C139 1.390 . S
C131 C130 1.387 1_565 S
C131 C133 1.387 . S
H132 C139 0.950 . S
C133 C131 1.387 . S
C133 C135 1.390 . S
C133 H137 0.950 . S
H134 C130 0.950 . S
C135 C133 1.390 . S
C135 C136 1.387 1_565 S
C135 H138 0.950 . S
C136 C135 1.387 1_545 S
C136 C139 1.387 . S
H137 C133 0.950 . S
H138 C135 0.950 . S
C139 C130 1.390 . S
C139 H132 0.950 . S
C139 C136 1.387 . S
C140 C141 1.387 . S
C140 H144 0.950 . S
C140 C149 1.390 . S
C141 C140 1.387 . S
C141 C143 1.387 . S
H142 C149 0.950 . S
C143 C141 1.387 . S
C143 C145 1.390 . S
C143 H147 0.950 . S
H144 C140 0.950 . S
C145 C143 1.390 . S
C145 C146 1.387 . S
C145 H148 0.950 . S
C146 C145 1.387 . S
C146 C149 1.387 . S
H147 C143 0.950 . S
H148 C145 0.950 . S
C149 C140 1.390 . S
C149 H142 0.950 . S
C149 C146 1.387 . S
C150 C151 1.387 . S
C150 H154 0.950 . S
C150 C159 1.390 . S
C151 C150 1.387 . S
C151 C153 1.387 1_556 S
H152 C159 0.950 . S
C153 C151 1.387 1_554 S
C153 C155 1.390 . S
C153 H157 0.950 . S
H154 C150 0.950 . S
C155 C153 1.390 . S
C155 C156 1.387 . S
C155 H158 0.950 . S
C156 C155 1.387 . S
C156 C159 1.387 1_554 S
H157 C153 0.950 . S
H158 C155 0.950 . S
C159 C150 1.390 . S
C159 H152 0.950 . S
C159 C156 1.387 1_556 S
C160 C161 1.387 . S
C160 H164 0.950 . S
C160 C169 1.390 . S
C161 C160 1.387 . S
C161 C163 1.387 . S
H162 C169 0.950 . S
C163 C161 1.387 . S
C163 C165 1.390 . S
C163 H167 0.950 . S
H164 C160 0.950 . S
C165 C163 1.390 . S
C165 C166 1.387 . S
C165 H168 0.950 . S
C166 C165 1.387 . S
C166 C169 1.387 . S
H167 C163 0.950 . S
H168 C165 0.950 . S
C169 C160 1.390 . S
C169 H162 0.950 . S
C169 C166 1.387 . S
C170 C171 1.387 . S
C170 H174 0.950 1_556 S
C170 C179 1.390 . S
C171 C170 1.387 . S
C171 C173 1.387 . S
H172 C179 0.950 1_554 S
C173 C171 1.387 . S
C173 C175 1.390 . S
C173 H177 0.950 . S
H174 C170 0.950 1_554 S
C175 C173 1.390 . S
C175 C176 1.387 . S
C175 H178 0.950 . S
C176 C175 1.387 . S
C176 C179 1.387 . S
H177 C173 0.950 . S
H178 C175 0.950 . S
C179 C170 1.390 . S
C179 H172 0.950 1_556 S
C179 C176 1.387 . S
C180 C181 1.387 1_556 S
C180 H184 0.950 . S
C180 C189 1.390 . S
C181 C180 1.387 1_554 S
C181 C183 1.387 . S
H182 C189 0.950 . S
C183 C181 1.387 . S
C183 C185 1.390 . S
C183 H187 0.950 . S
H184 C180 0.950 . S
C185 C183 1.390 . S
C185 C186 1.387 1_554 S
C185 H188 0.950 . S
C186 C185 1.387 1_556 S
C186 C189 1.387 . S
H187 C183 0.950 . S
H188 C185 0.950 . S
C189 C180 1.390 . S
C189 H182 0.950 . S
C189 C186 1.387 . S
C190 C191 1.387 . S
C190 H194 0.950 . S
C190 C199 1.390 . S
C191 C190 1.387 . S
C191 C193 1.387 1_554 S
H192 C199 0.950 . S
C193 C191 1.387 1_556 S
C193 C195 1.390 . S
C193 H197 0.950 . S
H194 C190 0.950 . S
C195 C193 1.390 . S
C195 C196 1.387 1_556 S
C195 H198 0.950 . S
C196 C195 1.387 1_554 S
C196 C199 1.387 . S
H197 C193 0.950 . S
H198 C195 0.950 . S
C199 C190 1.390 . S
C199 H192 0.950 . S
C199 C196 1.387 . S
C200 C201 1.387 1_556 S
C200 H204 0.950 . S
C200 C209 1.390 . S
C201 C200 1.387 1_554 S
C201 C203 1.387 . S
H202 C209 0.950 . S
C203 C201 1.387 . S
C203 C205 1.390 . S
C203 H207 0.950 . S
H204 C200 0.950 . S
C205 C203 1.390 . S
C205 C206 1.387 . S
C205 H208 0.950 . S
C206 C205 1.387 . S
C206 C209 1.387 1_554 S
H207 C203 0.950 . S
H208 C205 0.950 . S
C209 C200 1.390 . S
C209 H202 0.950 . S
C209 C206 1.387 1_556 S
C121 C15 1.466 1_455 S
C126 C2 1.471 . S
C131 C42 1.459 1_565 S
C136 C55 1.459 1_545 S
C141 C82 1.467 . S
C146 C95 1.467 . S
C151 C9 0.988 . S
C156 C89 0.970 . S
C161 C49 2.132 . S
C166 C3 2.276 . S
C171 C43 2.598 . S
C176 C102 2.654 . S
C181 C26 0.988 . S
C186 C106 0.970 . S
C191 C22 2.277 . S
C196 C66 2.134 . S
C201 C83 2.654 . S
C206 C62 2.598 . S
