# Generated by pormake.
# Topology npo, (4)-cn, num edge types: 1
# Building blocks:
#     Node 0, Type 0, BuildingBlock: AZAVOO_clean_sbu_0, # of connection points: 4
#     Node 1, Type 0, BuildingBlock: AZAVOO_clean_sbu_0, # of connection points: 4
#     Node 2, Type 0, BuildingBlock: AZAVOO_clean_sbu_0, # of connection points: 4
#     Node 3, Type 0, BuildingBlock: AZAVOO_clean_sbu_0, # of connection points: 4
#     Node 4, Type 0, BuildingBlock: AZAVOO_clean_sbu_0, # of connection points: 4
#     Node 5, Type 0, BuildingBlock: AZAVOO_clean_sbu_0, # of connection points: 4
#     Edge 6, Type (0, 0), BuildingBlock: AJUNOK_clean_linker_0, # of connection points: 2
#     Edge 7, Type (0, 0), BuildingBlock: AJUNOK_clean_linker_0, # of connection points: 2
#     Edge 8, Type (0, 0), BuildingBlock: AJUNOK_clean_linker_0, # of connection points: 2
#     Edge 9, Type (0, 0), BuildingBlock: AJUNOK_clean_linker_0, # of connection points: 2
#     Edge 10, Type (0, 0), BuildingBlock: AJUNOK_clean_linker_0, # of connection points: 2
#     Edge 11, Type (0, 0), BuildingBlock: AJUNOK_clean_linker_0, # of connection points: 2
#     Edge 12, Type (0, 0), BuildingBlock: AJUNOK_clean_linker_0, # of connection points: 2
#     Edge 13, Type (0, 0), BuildingBlock: AJUNOK_clean_linker_0, # of connection points: 2
#     Edge 14, Type (0, 0), BuildingBlock: AJUNOK_clean_linker_0, # of connection points: 2
#     Edge 15, Type (0, 0), BuildingBlock: AJUNOK_clean_linker_0, # of connection points: 2
#     Edge 16, Type (0, 0), BuildingBlock: AJUNOK_clean_linker_0, # of connection points: 2
#     Edge 17, Type (0, 0), BuildingBlock: AJUNOK_clean_linker_0, # of connection points: 2
# Relax obj value: 0.260
# Max RMSD: 0.257
# Mean RMSD: 0.232
data_MOF--net-npo--node1-AZAVOO_clean_sbu_0--edge1-AJUNOK_clean_linker_0
_symmetry_space_group_name_H-M    P1
_symmetry_Int_Tables_number       1
_symmetry_cell_setting            triclinic
loop_
_symmetry_equiv_pos_as_xyz
'x, y, z'
_cell_length_a     33.438028
_cell_length_b     29.957836
_cell_length_c     19.766576
_cell_angle_alpha  90.002856
_cell_angle_beta   90.060828
_cell_angle_gamma 132.13026
loop_
_atom_site_label
_atom_site_type_symbol
_atom_site_fract_x
_atom_site_fract_y
_atom_site_fract_z
_atom_type_partial_charge
Mg0 Mg 0.52013 0.10619 0.3159 0.0
O1 O 0.60855 0.16692 0.28312 0.0
O2 O 0.63279 0.11356 0.28912 0.0
Mg3 Mg 0.56144 0.02023 0.33135 0.0
C4 C 0.64335 0.16206 0.27466 0.0
C5 C 0.48725 0.17913 0.31244 0.0
O6 O 0.45866 0.14043 0.36183 0.0
O7 O 0.49465 0.05665 0.21514 0.0
O8 O 0.51535 1.00035 0.23357 0.0
O9 O 0.54256 0.13133 0.42401 0.0
O10 O 0.52622 0.054 0.37638 0.0
C11 C 0.49481 0.01579 0.19701 0.0
C12 C 0.53896 0.08568 0.42976 0.0
O13 O 0.51728 0.17582 0.27793 0.0
Mg14 Mg 0.40606 0.47042 0.7493 0.0
O15 O 0.44631 0.56748 0.76894 0.0
O16 O 0.53075 0.62182 0.80482 0.0
Mg17 Mg 0.54499 0.55673 0.80839 0.0
C18 C 0.4913 0.61729 0.78804 0.0
C19 C 0.30132 0.44772 0.73504 0.0
O20 O 0.30099 0.43774 0.79978 0.0
O21 O 0.45443 0.49939 0.65159 0.0
O22 O 0.53659 0.54669 0.69313 0.0
O23 O 0.38177 0.44709 0.85804 0.0
O24 O 0.45802 0.47767 0.81748 0.0
C25 C 0.50418 0.52677 0.64327 0.0
C26 C 0.42749 0.46177 0.86881 0.0
O27 O 0.33858 0.45959 0.69804 0.0
Mg28 Mg 0.9286 0.51281 0.11485 0.0
O29 O 0.85775 0.41459 0.14332 0.0
O30 O 0.88368 0.36313 0.13362 0.0
Mg31 Mg 0.96967 0.42705 0.09093 0.0
C32 C 0.84842 0.36592 0.1495 0.0
C33 C 0.84125 0.52013 0.1301 0.0
O34 O 0.8259 0.48792 0.07475 0.0
O35 O 0.96978 0.52553 0.21459 0.0
O36 O 0.99957 0.479 0.19065 0.0
O37 O 0.90565 0.49612 0.00546 0.0
O38 O 0.96092 0.48851 0.051 0.0
C39 C 0.99693 0.51093 0.22967 0.0
C40 C 0.93658 0.48484 -0.00197 0.0
O41 O 0.8833 0.53792 0.16067 0.0
Mg42 Mg 0.48168 0.90233 0.81668 0.0
O43 O 0.3935 0.83885 0.78416 0.0
O44 O 0.36378 0.88666 0.78825 0.0
Mg45 Mg 0.43345 0.98138 0.83027 0.0
C46 C 0.35638 0.83986 0.77502 0.0
C47 C 0.51135 0.8253 0.81504 0.0
O48 O 0.53717 0.85966 0.86849 0.0
O49 O 0.50541 0.95095 0.71579 0.0
O50 O 0.4805 0.00336 0.73276 0.0
O51 O 0.45941 0.8771 0.92454 0.0
O52 O 0.47288 0.9526 0.87638 0.0
C53 C 0.50287 0.98982 0.69694 0.0
C54 C 0.46093 0.92131 0.92982 0.0
O55 O 0.48589 0.83392 0.77815 0.0
Mg56 Mg 0.59871 0.5358 0.25013 0.0
O57 O 0.55585 0.43779 0.27056 0.0
O58 O 0.47161 0.38738 0.30449 0.0
Mg59 Mg 0.46064 0.4553 0.30702 0.0
C60 C 0.50982 0.3892 0.28954 0.0
C61 C 0.70439 0.56033 0.23353 0.0
O62 O 0.70787 0.5754 0.29704 0.0
O63 O 0.55071 0.50744 0.15297 0.0
O64 O 0.46854 0.46373 0.19112 0.0
O65 O 0.62412 0.55898 0.35762 0.0
O66 O 0.54828 0.53095 0.31892 0.0
C67 C 0.50163 0.48174 0.14265 0.0
C68 C 0.57893 0.54513 0.36981 0.0
O69 O 0.66475 0.54442 0.19829 0.0
Mg70 Mg 0.07186 0.48657 0.6129 0.0
O71 O 0.14195 0.58396 0.64229 0.0
O72 O 0.11971 0.63886 0.63068 0.0
Mg73 Mg 0.03319 0.57461 0.58767 0.0
C74 C 0.15334 0.63377 0.64784 0.0
C75 C 0.16168 0.48425 0.63241 0.0
O76 O 0.17842 0.5197 0.57982 0.0
O77 O 0.03087 0.47501 0.71143 0.0
O78 O 0.00379 0.52461 0.68927 0.0
O79 O 0.097 0.50439 0.50516 0.0
O80 O 0.04122 0.51229 0.54846 0.0
C81 C 0.00609 0.49222 0.72805 0.0
C82 C 0.06732 0.51726 0.49683 0.0
O83 O 0.11726 0.46193 0.66 0.0
C84 C 0.53192 0.28103 0.26626 0.0
C85 C 0.48932 0.22984 0.30294 0.0
C86 C 0.5378 0.33188 0.26192 0.0
C87 C 0.50104 0.33357 0.29349 0.0
H88 H 0.56192 0.28264 0.24208 0.0
H89 H 0.57181 0.37035 0.23378 0.0
S90 S 0.3806 0.20978 0.39266 0.0
N91 N 0.40839 0.18297 0.36929 0.0
N92 N 0.41928 0.27832 0.36082 0.0
C93 C 0.45733 0.28198 0.32875 0.0
C94 C 0.45155 0.23028 0.33357 0.0
C95 C 0.27494 0.48416 0.64745 0.0
C96 C 0.26285 0.4523 0.7077 0.0
C97 C 0.24178 0.49379 0.62359 0.0
C98 C 0.19484 0.47155 0.65862 0.0
H99 H 0.31112 0.50332 0.61925 0.0
H100 H 0.25351 0.51945 0.57744 0.0
S101 S 0.14356 0.38233 0.81733 0.0
N102 N 0.19952 0.39649 0.80079 0.0
N103 N 0.13709 0.41432 0.75576 0.0
C104 C 0.18157 0.43838 0.7182 0.0
C105 C 0.21557 0.42885 0.74274 0.0
C106 C 0.7073 0.26591 0.22474 0.0
C107 C 0.69643 0.21336 0.24378 0.0
C108 C 0.75595 0.31423 0.19356 0.0
C109 C 0.79616 0.3124 0.17975 0.0
H110 H 0.67791 0.26999 0.23371 0.0
H111 H 0.76196 0.35347 0.18037 0.0
S112 S 0.78842 0.1855 0.2197 0.0
N113 N 0.73053 0.16264 0.24657 0.0
N114 N 0.82177 0.25329 0.18807 0.0
C115 C 0.78593 0.2601 0.19837 0.0
C116 C 0.73629 0.2108 0.23036 0.0
C117 C 0.5423 0.77047 0.83831 0.0
C118 C 0.50793 0.77391 0.8027 0.0
C119 C 0.53744 0.72037 0.8322 0.0
C120 C 0.49751 0.67123 0.79088 0.0
H121 H 0.57297 0.80651 0.87199 0.0
H122 H 0.56439 0.71962 0.86147 0.0
S123 S 0.39898 0.65887 0.68386 0.0
N124 N 0.43391 0.72458 0.72216 0.0
N125 N 0.42447 0.63034 0.71107 0.0
C126 C 0.46356 0.67456 0.75374 0.0
C127 C 0.46889 0.7259 0.75945 0.0
C128 C 0.73042 0.52421 0.14482 0.0
C129 C 0.74245 0.55515 0.20594 0.0
C130 C 0.76296 0.51386 0.12061 0.0
C131 C 0.8091 0.53419 0.15627 0.0
H132 H 0.69479 0.50643 0.11605 0.0
H133 H 0.75124 0.48893 0.07382 0.0
S134 S 0.86067 0.62139 0.31666 0.0
N135 N 0.80549 0.60886 0.29999 0.0
N136 N 0.86659 0.58944 0.25442 0.0
C137 C 0.82255 0.56676 0.21649 0.0
C138 C 0.78929 0.57722 0.24129 0.0
C139 C 0.26781 0.79066 0.71864 0.0
C140 C 0.30435 0.78624 0.74443 0.0
C141 C 0.21968 0.74166 0.68673 0.0
C142 C 0.20583 0.68594 0.67927 0.0
H143 H 0.27661 0.83257 0.72239 0.0
H144 H 0.19312 0.74766 0.66793 0.0
S145 S 0.28662 0.64973 0.74026 0.0
N146 N 0.32251 0.72076 0.76172 0.0
N147 N 0.23258 0.62909 0.70199 0.0
C148 C 0.24191 0.68076 0.70526 0.0
C149 C 0.29089 0.73066 0.73775 0.0
C150 C 0.44749 0.90668 0.05432 0.0
C151 C 0.45707 0.9403 -0.00316 0.0
C152 C 0.45631 0.93002 0.11938 0.0
C153 C 0.47452 0.98761 0.12959 0.0
H154 H 0.43621 0.86346 0.04917 0.0
H155 H 0.45126 0.90381 0.16192 0.0
S156 S 0.4978 0.09026 -0.00307 0.0
N157 N 0.48003 0.03164 0.95493 0.0
N158 N 0.4958 0.07489 0.07768 0.0
C159 C 0.4795 0.01946 0.07317 0.0
C160 C 0.47098 0.99594 0.0066 0.0
C161 C 0.51284 0.52867 0.4514 0.0
C162 C 0.56141 0.54191 0.4399 0.0
C163 C 0.4948 0.52427 0.51712 0.0
C164 C 0.52487 0.53353 0.57407 0.0
H165 H 0.48836 0.52164 0.40939 0.0
H166 H 0.45702 0.51367 0.5232 0.0
S167 S 0.65536 0.56996 0.57159 0.0
N168 N 0.63954 0.56466 0.49114 0.0
N169 N 0.60606 0.55682 0.61439 0.0
C170 C 0.57395 0.54755 0.56325 0.0
C171 C 0.59211 0.55166 0.49632 0.0
C172 C 0.93996 0.47687 0.80748 0.0
C173 C 0.98275 0.47897 0.79643 0.0
C174 C 0.9228 0.47452 0.87298 0.0
C175 C 0.94823 0.47497 0.93005 0.0
H176 H 0.92073 0.47916 0.76521 0.0
H177 H 0.89105 0.47528 0.87879 0.0
S178 S 0.06 0.47582 0.92782 0.0
N179 N 0.04767 0.47694 0.84731 0.0
N180 N 0.01664 0.47413 0.97054 0.0
C181 C 0.98924 0.47379 0.91945 0.0
C182 C 0.00618 0.47535 0.85258 0.0
C183 C 0.55066 0.09929 0.55462 0.0
C184 C 0.54155 0.06592 0.49705 0.0
C185 C 0.54119 0.07562 0.61961 0.0
C186 C 0.52297 0.01804 0.62967 0.0
H187 H 0.56218 0.14263 0.54954 0.0
H188 H 0.54597 0.10165 0.6622 0.0
S189 S 0.49975 0.91538 0.49707 0.0
N190 N 0.51807 0.97426 0.45516 0.0
N191 N 0.50147 0.93065 0.57779 0.0
C192 C 0.5181 0.98624 0.5733 0.0
C193 C 0.5271 0.00998 0.5068 0.0
C194 C 0.41986 0.46394 -0.00575 0.0
C195 C 0.44601 0.4647 0.93804 0.0
C196 C 0.4377 0.46858 0.06018 0.0
C197 C 0.4825 0.47438 0.07246 0.0
H198 H 0.38582 0.46066 -0.01262 0.0
H199 H 0.41675 0.46882 0.10174 0.0
S200 S 0.56159 0.47235 0.94307 0.0
N201 N 0.51635 0.46677 0.89925 0.0
N202 N 0.55042 0.47663 0.02309 0.0
C203 C 0.50822 0.4737 0.0168 0.0
C204 C 0.48981 0.46854 0.94965 0.0
C205 C 0.01554 0.52833 0.41906 0.0
C206 C 0.05833 0.53008 0.42905 0.0
C207 C 0.99816 0.52675 0.35384 0.0
C208 C 0.02289 0.52662 0.29659 0.0
H209 H 0.99299 0.5243 0.4617 0.0
H210 H 0.9629 0.52141 0.34847 0.0
S211 S 0.14386 0.54431 0.29494 0.0
N212 N 0.13046 0.54165 0.37595 0.0
N213 N 0.09758 0.53835 0.25347 0.0
C214 C 0.06881 0.53411 0.30577 0.0
C215 C 0.08664 0.53599 0.37204 0.0
loop_
_geom_bond_atom_site_label_1
_geom_bond_atom_site_label_2
_geom_bond_distance
_geom_bond_site_symmetry_2
_ccdc_geom_bond_type
Mg0 O1 2.028 . S
Mg0 O7 1.986 . S
Mg0 O9 2.114 . S
Mg0 O10 2.251 . S
Mg0 O13 2.010 . S
O1 Mg0 2.028 . S
O1 C4 1.250 . S
O2 Mg3 2.028 . S
O2 C4 1.248 . S
Mg3 O2 2.028 . S
Mg3 O8 2.032 . S
Mg3 O10 2.079 . S
C4 O1 1.250 . S
C4 O2 1.248 . S
C5 O6 1.264 . S
C5 O13 1.249 . S
O6 C5 1.264 . S
O7 Mg0 1.986 . S
O7 C11 1.246 . S
O8 Mg3 2.032 . S
O8 C11 1.259 . S
O9 Mg0 2.114 . S
O9 C12 1.252 . S
O10 Mg0 2.251 . S
O10 Mg3 2.079 . S
O10 C12 1.273 . S
C11 O7 1.246 . S
C11 O8 1.259 . S
C12 O9 1.252 . S
C12 O10 1.273 . S
O13 Mg0 2.010 . S
O13 C5 1.249 . S
Mg14 O15 2.028 . S
Mg14 O21 1.986 . S
Mg14 O23 2.114 . S
Mg14 O24 2.251 . S
Mg14 O27 2.010 . S
O15 Mg14 2.028 . S
O15 C18 1.250 . S
O16 Mg17 2.028 . S
O16 C18 1.248 . S
Mg17 O16 2.028 . S
Mg17 O22 2.032 . S
Mg17 O24 2.079 . S
C18 O15 1.250 . S
C18 O16 1.248 . S
C19 O20 1.264 . S
C19 O27 1.249 . S
O20 C19 1.264 . S
O21 Mg14 1.986 . S
O21 C25 1.246 . S
O22 Mg17 2.032 . S
O22 C25 1.259 . S
O23 Mg14 2.114 . S
O23 C26 1.252 . S
O24 Mg14 2.251 . S
O24 Mg17 2.079 . S
O24 C26 1.273 . S
C25 O21 1.246 . S
C25 O22 1.259 . S
C26 O23 1.252 . S
C26 O24 1.273 . S
O27 Mg14 2.010 . S
O27 C19 1.249 . S
Mg28 O29 2.028 . S
Mg28 O35 1.986 . S
Mg28 O37 2.114 . S
Mg28 O38 2.251 . S
Mg28 O41 2.010 . S
O29 Mg28 2.028 . S
O29 C32 1.250 . S
O30 Mg31 2.028 . S
O30 C32 1.248 . S
Mg31 O30 2.028 . S
Mg31 O36 2.032 . S
Mg31 O38 2.079 . S
C32 O29 1.250 . S
C32 O30 1.248 . S
C33 O34 1.264 . S
C33 O41 1.249 . S
O34 C33 1.264 . S
O35 Mg28 1.986 . S
O35 C39 1.246 . S
O36 Mg31 2.032 . S
O36 C39 1.259 . S
O37 Mg28 2.114 . S
O37 C40 1.252 . S
O38 Mg28 2.251 . S
O38 Mg31 2.079 . S
O38 C40 1.273 . S
C39 O35 1.246 . S
C39 O36 1.259 . S
C40 O37 1.252 . S
C40 O38 1.273 . S
O41 Mg28 2.010 . S
O41 C33 1.249 . S
Mg42 O43 2.028 . S
Mg42 O49 1.986 . S
Mg42 O51 2.114 . S
Mg42 O52 2.251 . S
Mg42 O55 2.010 . S
O43 Mg42 2.028 . S
O43 C46 1.250 . S
O44 Mg45 2.028 . S
O44 C46 1.248 . S
Mg45 O44 2.028 . S
Mg45 O50 2.032 . S
Mg45 O52 2.079 . S
C46 O43 1.250 . S
C46 O44 1.248 . S
C47 O48 1.264 . S
C47 O55 1.249 . S
O48 C47 1.264 . S
O49 Mg42 1.986 . S
O49 C53 1.246 . S
O50 Mg45 2.032 . S
O50 C53 1.259 . S
O51 Mg42 2.114 . S
O51 C54 1.252 . S
O52 Mg42 2.251 . S
O52 Mg45 2.079 . S
O52 C54 1.273 . S
C53 O49 1.246 . S
C53 O50 1.259 . S
C54 O51 1.252 . S
C54 O52 1.273 . S
O55 Mg42 2.010 . S
O55 C47 1.249 . S
Mg56 O57 2.028 . S
Mg56 O63 1.986 . S
Mg56 O65 2.114 . S
Mg56 O66 2.251 . S
Mg56 O69 2.010 . S
O57 Mg56 2.028 . S
O57 C60 1.250 . S
O58 Mg59 2.028 . S
O58 C60 1.248 . S
Mg59 O58 2.028 . S
Mg59 O64 2.032 . S
Mg59 O66 2.079 . S
C60 O57 1.250 . S
C60 O58 1.248 . S
C61 O62 1.264 . S
C61 O69 1.249 . S
O62 C61 1.264 . S
O63 Mg56 1.986 . S
O63 C67 1.246 . S
O64 Mg59 2.032 . S
O64 C67 1.259 . S
O65 Mg56 2.114 . S
O65 C68 1.252 . S
O66 Mg56 2.251 . S
O66 Mg59 2.079 . S
O66 C68 1.273 . S
C67 O63 1.246 . S
C67 O64 1.259 . S
C68 O65 1.252 . S
C68 O66 1.273 . S
O69 Mg56 2.010 . S
O69 C61 1.249 . S
Mg70 O71 2.028 . S
Mg70 O77 1.986 . S
Mg70 O79 2.114 . S
Mg70 O80 2.251 . S
Mg70 O83 2.010 . S
O71 Mg70 2.028 . S
O71 C74 1.250 . S
O72 Mg73 2.028 . S
O72 C74 1.248 . S
Mg73 O72 2.028 . S
Mg73 O78 2.032 . S
Mg73 O80 2.079 . S
C74 O71 1.250 . S
C74 O72 1.248 . S
C75 O76 1.264 . S
C75 O83 1.249 . S
O76 C75 1.264 . S
O77 Mg70 1.986 . S
O77 C81 1.246 . S
O78 Mg73 2.032 . S
O78 C81 1.259 . S
O79 Mg70 2.114 . S
O79 C82 1.252 . S
O80 Mg70 2.251 . S
O80 Mg73 2.079 . S
O80 C82 1.273 . S
C81 O77 1.246 . S
C81 O78 1.259 . S
C82 O79 1.252 . S
C82 O80 1.273 . S
O83 Mg70 2.010 . S
O83 C75 1.249 . S
C84 C85 1.369 . S
C84 C86 1.419 . S
C84 H88 0.930 . S
C85 C84 1.369 . S
C85 C94 1.429 . S
C86 C84 1.419 . S
C86 C87 1.363 . S
C86 H89 0.929 . S
C87 C86 1.363 . S
C87 C93 1.428 . S
H88 C84 0.930 . S
H89 C86 0.929 . S
S90 N91 1.613 . S
S90 N92 1.610 . S
N91 S90 1.613 . S
N91 C94 1.350 . S
N92 S90 1.610 . S
N92 C93 1.351 . S
C93 C87 1.428 . S
C93 N92 1.351 . S
C93 C94 1.434 . S
C94 C85 1.429 . S
C94 N91 1.350 . S
C94 C93 1.434 . S
C95 C96 1.369 . S
C95 C97 1.419 . S
C95 H99 0.930 . S
C96 C95 1.369 . S
C96 C105 1.429 . S
C97 C95 1.419 . S
C97 C98 1.363 . S
C97 H100 0.929 . S
C98 C97 1.363 . S
C98 C104 1.428 . S
H99 C95 0.930 . S
H100 C97 0.929 . S
S101 N102 1.613 . S
S101 N103 1.610 . S
N102 S101 1.613 . S
N102 C105 1.350 . S
N103 S101 1.610 . S
N103 C104 1.351 . S
C104 C98 1.428 . S
C104 N103 1.351 . S
C104 C105 1.434 . S
C105 C96 1.429 . S
C105 N102 1.350 . S
C105 C104 1.434 . S
C106 C107 1.369 . S
C106 C108 1.419 . S
C106 H110 0.930 . S
C107 C106 1.369 . S
C107 C116 1.429 . S
C108 C106 1.419 . S
C108 C109 1.363 . S
C108 H111 0.929 . S
C109 C108 1.363 . S
C109 C115 1.428 . S
H110 C106 0.930 . S
H111 C108 0.929 . S
S112 N113 1.613 . S
S112 N114 1.610 . S
N113 S112 1.613 . S
N113 C116 1.350 . S
N114 S112 1.610 . S
N114 C115 1.351 . S
C115 C109 1.428 . S
C115 N114 1.351 . S
C115 C116 1.434 . S
C116 C107 1.429 . S
C116 N113 1.350 . S
C116 C115 1.434 . S
C117 C118 1.369 . S
C117 C119 1.419 . S
C117 H121 0.930 . S
C118 C117 1.369 . S
C118 C127 1.429 . S
C119 C117 1.419 . S
C119 C120 1.363 . S
C119 H122 0.929 . S
C120 C119 1.363 . S
C120 C126 1.428 . S
H121 C117 0.930 . S
H122 C119 0.929 . S
S123 N124 1.613 . S
S123 N125 1.610 . S
N124 S123 1.613 . S
N124 C127 1.350 . S
N125 S123 1.610 . S
N125 C126 1.351 . S
C126 C120 1.428 . S
C126 N125 1.351 . S
C126 C127 1.434 . S
C127 C118 1.429 . S
C127 N124 1.350 . S
C127 C126 1.434 . S
C128 C129 1.369 . S
C128 C130 1.419 . S
C128 H132 0.930 . S
C129 C128 1.369 . S
C129 C138 1.429 . S
C130 C128 1.419 . S
C130 C131 1.363 . S
C130 H133 0.929 . S
C131 C130 1.363 . S
C131 C137 1.428 . S
H132 C128 0.930 . S
H133 C130 0.929 . S
S134 N135 1.613 . S
S134 N136 1.610 . S
N135 S134 1.613 . S
N135 C138 1.350 . S
N136 S134 1.610 . S
N136 C137 1.351 . S
C137 C131 1.428 . S
C137 N136 1.351 . S
C137 C138 1.434 . S
C138 C129 1.429 . S
C138 N135 1.350 . S
C138 C137 1.434 . S
C139 C140 1.369 . S
C139 C141 1.419 . S
C139 H143 0.930 . S
C140 C139 1.369 . S
C140 C149 1.429 . S
C141 C139 1.419 . S
C141 C142 1.363 . S
C141 H144 0.929 . S
C142 C141 1.363 . S
C142 C148 1.428 . S
H143 C139 0.930 . S
H144 C141 0.929 . S
S145 N146 1.613 . S
S145 N147 1.610 . S
N146 S145 1.613 . S
N146 C149 1.350 . S
N147 S145 1.610 . S
N147 C148 1.351 . S
C148 C142 1.428 . S
C148 N147 1.351 . S
C148 C149 1.434 . S
C149 C140 1.429 . S
C149 N146 1.350 . S
C149 C148 1.434 . S
C150 C151 1.369 . S
C150 C152 1.419 1_556 S
C150 H154 0.930 . S
C151 C150 1.369 . S
C151 C160 1.429 1_565 S
C152 C150 1.419 1_554 S
C152 C153 1.363 1_565 S
C152 H155 0.929 . S
C153 C152 1.363 1_545 S
C153 C159 1.428 1_554 S
H154 C150 0.930 . S
H155 C152 0.929 . S
S156 N157 1.613 . S
S156 N158 1.610 . S
N157 S156 1.613 . S
N157 C160 1.350 . S
N158 S156 1.610 . S
N158 C159 1.351 . S
C159 C153 1.428 1_556 S
C159 N158 1.351 . S
C159 C160 1.434 . S
C160 C151 1.429 1_545 S
C160 N157 1.350 . S
C160 C159 1.434 . S
C161 C162 1.369 . S
C161 C163 1.419 . S
C161 H165 0.930 . S
C162 C161 1.369 . S
C162 C171 1.429 . S
C163 C161 1.419 . S
C163 C164 1.363 . S
C163 H166 0.929 . S
C164 C163 1.363 . S
C164 C170 1.428 . S
H165 C161 0.930 . S
H166 C163 0.929 . S
S167 N168 1.613 . S
S167 N169 1.610 . S
N168 S167 1.613 . S
N168 C171 1.350 . S
N169 S167 1.610 . S
N169 C170 1.351 . S
C170 C164 1.428 . S
C170 N169 1.351 . S
C170 C171 1.434 . S
C171 C162 1.429 . S
C171 N168 1.350 . S
C171 C170 1.434 . S
C172 C173 1.369 1_655 S
C172 C174 1.419 1_556 S
C172 H176 0.930 . S
C173 C172 1.369 1_455 S
C173 C182 1.429 1_556 S
C174 C172 1.419 1_554 S
C174 C175 1.363 . S
C174 H177 0.929 . S
C175 C174 1.363 . S
C175 C181 1.428 1_655 S
H176 C172 0.930 . S
H177 C174 0.929 . S
S178 N179 1.613 . S
S178 N180 1.610 . S
N179 S178 1.613 . S
N179 C182 1.350 . S
N180 S178 1.610 . S
N180 C181 1.351 . S
C181 C175 1.428 1_455 S
C181 N180 1.351 . S
C181 C182 1.434 . S
C182 C173 1.429 1_554 S
C182 N179 1.350 . S
C182 C181 1.434 . S
C183 C184 1.369 . S
C183 C185 1.419 . S
C183 H187 0.930 . S
C184 C183 1.369 . S
C184 C193 1.429 1_545 S
C185 C183 1.419 . S
C185 C186 1.363 1_545 S
C185 H188 0.929 . S
C186 C185 1.363 1_565 S
C186 C192 1.428 . S
H187 C183 0.930 . S
H188 C185 0.929 . S
S189 N190 1.613 . S
S189 N191 1.610 . S
N190 S189 1.613 . S
N190 C193 1.350 . S
N191 S189 1.610 . S
N191 C192 1.351 . S
C192 C186 1.428 . S
C192 N191 1.351 . S
C192 C193 1.434 . S
C193 C184 1.429 1_565 S
C193 N190 1.350 . S
C193 C192 1.434 . S
C194 C195 1.369 . S
C194 C196 1.419 1_556 S
C194 H198 0.930 . S
C195 C194 1.369 . S
C195 C204 1.429 . S
C196 C194 1.419 1_554 S
C196 C197 1.363 . S
C196 H199 0.929 . S
C197 C196 1.363 . S
C197 C203 1.428 . S
H198 C194 0.930 . S
H199 C196 0.929 . S
S200 N201 1.613 . S
S200 N202 1.610 1_556 S
N201 S200 1.613 . S
N201 C204 1.350 . S
N202 S200 1.610 1_554 S
N202 C203 1.351 . S
C203 C197 1.428 . S
C203 N202 1.351 . S
C203 C204 1.434 1_554 S
C204 C195 1.429 . S
C204 N201 1.350 . S
C204 C203 1.434 1_556 S
C205 C206 1.369 1_655 S
C205 C207 1.419 . S
C205 H209 0.930 . S
C206 C205 1.369 1_455 S
C206 C215 1.429 . S
C207 C205 1.419 . S
C207 C208 1.363 . S
C207 H210 0.929 . S
C208 C207 1.363 . S
C208 C214 1.428 1_655 S
H209 C205 0.930 . S
H210 C207 0.929 . S
S211 N212 1.613 . S
S211 N213 1.610 . S
N212 S211 1.613 . S
N212 C215 1.350 . S
N213 S211 1.610 . S
N213 C214 1.351 . S
C214 C208 1.428 1_455 S
C214 N213 1.351 . S
C214 C215 1.434 . S
C215 C206 1.429 . S
C215 N212 1.350 . S
C215 C214 1.434 . S
C85 C5 1.176 . S
C87 C60 1.210 . S
C96 C19 1.255 . S
C98 C75 1.228 . S
C107 C4 1.222 . S
C109 C32 1.226 . S
C118 C47 1.186 . S
C120 C18 1.214 . S
C129 C61 1.255 . S
C131 C33 1.227 . S
C140 C46 1.226 . S
C142 C74 1.228 . S
C151 C54 1.453 . S
C153 C11 1.412 . S
C162 C68 1.488 . S
C164 C25 1.427 . S
C173 C81 1.424 . S
C175 C40 1.472 . S
C184 C12 1.454 . S
C186 C53 1.409 . S
C195 C26 1.491 . S
C197 C67 1.425 . S
C206 C82 1.470 . S
C208 C39 1.424 . S
