# Generated by pormake.
# Topology ofo, (3)-cn, num edge types: 1
# Building blocks:
#     Node 0, Type 0, BuildingBlock: OLANEW_clean_sbu_2, # of connection points: 3
#     Node 1, Type 0, BuildingBlock: OLANEW_clean_sbu_2, # of connection points: 3
#     Node 2, Type 0, BuildingBlock: OLANEW_clean_sbu_2, # of connection points: 3
#     Node 3, Type 0, BuildingBlock: OLANEW_clean_sbu_2, # of connection points: 3
#     Node 4, Type 0, BuildingBlock: OLANEW_clean_sbu_2, # of connection points: 3
#     Node 5, Type 0, BuildingBlock: OLANEW_clean_sbu_2, # of connection points: 3
#     Node 6, Type 0, BuildingBlock: OLANEW_clean_sbu_2, # of connection points: 3
#     Node 7, Type 0, BuildingBlock: OLANEW_clean_sbu_2, # of connection points: 3
#     Node 8, Type 0, BuildingBlock: OLANEW_clean_sbu_2, # of connection points: 3
#     Node 9, Type 0, BuildingBlock: OLANEW_clean_sbu_2, # of connection points: 3
#     Node 10, Type 0, BuildingBlock: OLANEW_clean_sbu_2, # of connection points: 3
#     Node 11, Type 0, BuildingBlock: OLANEW_clean_sbu_2, # of connection points: 3
#     Edge 12, Type (0, 0), None
#     Edge 13, Type (0, 0), None
#     Edge 14, Type (0, 0), None
#     Edge 15, Type (0, 0), None
#     Edge 16, Type (0, 0), None
#     Edge 17, Type (0, 0), None
#     Edge 18, Type (0, 0), None
#     Edge 19, Type (0, 0), None
#     Edge 20, Type (0, 0), None
#     Edge 21, Type (0, 0), None
#     Edge 22, Type (0, 0), None
#     Edge 23, Type (0, 0), None
#     Edge 24, Type (0, 0), None
#     Edge 25, Type (0, 0), None
#     Edge 26, Type (0, 0), None
#     Edge 27, Type (0, 0), None
#     Edge 28, Type (0, 0), None
#     Edge 29, Type (0, 0), None
# Relax obj value: 0.000
# Max RMSD: 0.001
# Mean RMSD: 0.001
data_MOF--net-ofo--node1-OLANEW_clean_sbu_2--edge1-none
_symmetry_space_group_name_H-M    P1
_symmetry_Int_Tables_number       1
_symmetry_cell_setting            triclinic
loop_
_symmetry_equiv_pos_as_xyz
'x, y, z'
_cell_length_a     10.784234
_cell_length_b     10.784318
_cell_length_c     43.809511
_cell_angle_alpha  89.998053
_cell_angle_beta   89.999829
_cell_angle_gamma 120.00645
loop_
_atom_site_label
_atom_site_type_symbol
_atom_site_fract_x
_atom_site_fract_y
_atom_site_fract_z
_atom_type_partial_charge
O0 O 0.48683 0.12289 -0.02058 0.0
Cd1 Cd 0.48396 0.34907 -0.0213 0.0
O2 O 0.4974 0.12182 0.02968 0.0
Cd3 Cd 0.49094 0.31332 0.04227 0.0
O4 O 0.53886 0.39493 0.08888 0.0
C5 C 0.61006 0.3503 0.10371 0.0
O6 O 0.64924 0.26706 0.09 0.0
C7 C 0.49582 0.06595 0.00408 0.0
C8 C 0.22983 0.33073 -0.04166 0.0
O9 O 0.32549 0.3425 0.93935 0.0
O10 O 0.2523 0.32469 -0.01312 0.0
O11 O 0.36408 0.48714 0.64608 0.0
Cd12 Cd 0.13501 0.48424 0.64537 0.0
O13 O 0.37519 0.49651 0.69636 0.0
Cd14 Cd 0.17733 0.49024 0.70895 0.0
O15 O 0.1438 0.53837 0.75556 0.0
C16 C 0.25969 0.60971 0.77036 0.0
O17 O 0.38209 0.64892 0.75663 0.0
C18 C 0.42972 0.49548 0.67075 0.0
C19 C 0.89921 0.23007 0.62501 0.0
O20 O 0.9831 0.32574 0.60602 0.0
O21 O 0.92772 0.25255 0.65355 0.0
O22 O 0.87708 0.36416 0.31275 0.0
Cd23 Cd 0.65092 0.13504 0.31205 0.0
O24 O 0.87853 0.37551 0.36302 0.0
Cd25 Cd 0.68705 0.17751 0.37562 0.0
O26 O 0.60538 0.14392 0.42222 0.0
C27 C 0.6494 0.25982 0.43699 0.0
O28 O 0.7321 0.38226 0.42323 0.0
C29 C 0.93421 0.42996 0.33742 0.0
C30 C 0.66929 0.89929 0.29168 0.0
O31 O 0.6575 0.98317 0.2727 0.0
O32 O 0.67534 0.92779 0.32022 0.0
O33 O 0.51277 0.87699 -0.02058 0.0
Cd34 Cd 0.51568 0.65084 -0.02129 0.0
O35 O 0.503 0.87853 0.02969 0.0
Cd36 Cd 0.50938 0.68699 0.04229 0.0
O37 O 0.46131 0.60527 0.08889 0.0
C38 C 0.39003 0.64982 0.10371 0.0
O39 O 0.35086 0.73307 0.09 0.0
C40 C 0.5042 0.93418 0.00409 0.0
C41 C 0.76984 0.66925 -0.04165 0.0
O42 O 0.67416 0.65745 0.93936 0.0
O43 O 0.74737 0.67528 -0.01311 0.0
O44 O 0.63592 0.5131 0.64609 0.0
Cd45 Cd 0.86498 0.51597 0.64537 0.0
O46 O 0.62402 0.50196 0.69635 0.0
Cd47 Cd 0.82195 0.50837 0.70895 0.0
O48 O 0.85581 0.46056 0.75555 0.0
C49 C 0.74008 0.39021 0.77047 0.0
O50 O 0.61763 0.35177 0.75684 0.0
C51 C 0.56986 0.50382 0.67075 0.0
C52 C 0.10081 0.7701 0.62501 0.0
O53 O 0.01691 0.67444 0.60602 0.0
O54 O 0.07229 0.74763 0.65355 0.0
O55 O 0.12298 0.63604 0.31275 0.0
Cd56 Cd 0.34914 0.86516 0.31204 0.0
O57 O 0.12174 0.62453 0.36302 0.0
Cd58 Cd 0.3132 0.82255 0.37561 0.0
O59 O 0.39481 0.85618 0.42222 0.0
C60 C 0.35065 0.74029 0.437 0.0
O61 O 0.26785 0.61784 0.42325 0.0
C62 C 0.06596 0.57016 0.33742 0.0
C63 C 0.33077 0.10092 0.29168 0.0
O64 O 0.34255 0.01704 0.27269 0.0
O65 O 0.32473 0.07241 0.32022 0.0
O66 O 0.87708 0.51307 0.25998 0.0
Cd67 Cd 0.6509 0.51595 0.2607 0.0
O68 O 0.87824 0.50268 0.20971 0.0
Cd69 Cd 0.6867 0.50905 0.19712 0.0
O70 O 0.60508 0.46112 0.15051 0.0
C71 C 0.64989 0.39013 0.13567 0.0
O72 O 0.73333 0.35115 0.14936 0.0
C73 C 0.93407 0.50418 0.23531 0.0
C74 C 0.66928 0.77009 0.28106 0.0
O75 O 0.65751 0.67442 0.30005 0.0
O76 O 0.67531 0.74762 0.25252 0.0
O77 O 0.36392 0.8771 0.92665 0.0
Cd78 Cd 0.13482 0.65093 0.92736 0.0
O79 O 0.37583 0.87783 0.87639 0.0
Cd80 Cd 0.17783 0.68636 0.86379 0.0
O81 O 0.14402 0.60474 0.81719 0.0
C82 C 0.25979 0.64962 0.80232 0.0
O83 O 0.38226 0.73314 0.81599 0.0
C84 C 0.43001 0.93386 0.90198 0.0
C85 C 0.89904 0.66926 0.94772 0.0
O86 O 0.98294 0.6575 -0.03329 0.0
O87 O 0.92755 0.6753 0.91918 0.0
O88 O 0.48709 0.36415 0.59331 0.0
Cd89 Cd 0.48421 0.1351 0.59403 0.0
O90 O 0.49743 0.37571 0.54305 0.0
Cd91 Cd 0.4912 0.17787 0.53045 0.0
O92 O 0.53916 0.14413 0.48385 0.0
C93 C 0.60954 0.25988 0.46894 0.0
O94 O 0.64792 0.3823 0.48258 0.0
C95 C 0.49592 0.43002 0.56865 0.0
C96 C 0.23004 0.8993 0.61439 0.0
O97 O 0.3257 0.98319 0.63338 0.0
O98 O 0.25253 0.92781 0.58585 0.0
O99 O 0.12298 0.48715 0.25998 0.0
Cd100 Cd 0.34916 0.48427 0.26069 0.0
O101 O 0.1216 0.49718 0.20971 0.0
Cd102 Cd 0.31317 0.49087 0.19711 0.0
O103 O 0.39491 0.53891 0.15051 0.0
C104 C 0.3501 0.60991 0.13566 0.0
O105 O 0.2666 0.64883 0.14935 0.0
C106 C 0.06587 0.49584 0.23531 0.0
C107 C 0.33078 0.23012 0.28105 0.0
O108 O 0.34255 0.32578 0.30004 0.0
O109 O 0.32475 0.2526 0.25251 0.0
O110 O 0.63579 0.12301 0.92665 0.0
Cd111 Cd 0.8649 0.34917 0.92736 0.0
O112 O 0.62477 0.12114 0.87637 0.0
Cd113 Cd 0.82268 0.31272 0.86377 0.0
O114 O 0.85616 0.39442 0.81718 0.0
C115 C 0.74022 0.35039 0.80242 0.0
O116 O 0.61782 0.26767 0.81619 0.0
C117 C 0.57018 0.06564 0.90198 0.0
C118 C 0.10065 0.33076 0.94771 0.0
O119 O 0.01677 0.34255 -0.0333 0.0
O120 O 0.07214 0.32473 0.91917 0.0
O121 O 0.51303 0.63599 0.59332 0.0
Cd122 Cd 0.51587 0.86502 0.59403 0.0
O123 O 0.50271 0.62445 0.54305 0.0
Cd124 Cd 0.50894 0.8223 0.53045 0.0
O125 O 0.46099 0.85602 0.48385 0.0
C126 C 0.39048 0.74024 0.46896 0.0
O127 O 0.35197 0.61782 0.48261 0.0
C128 C 0.50421 0.57013 0.56865 0.0
C129 C 0.77001 0.10085 0.61439 0.0
O130 O 0.67435 0.01694 0.63338 0.0
O131 O 0.74753 0.07234 0.58585 0.0
loop_
_geom_bond_atom_site_label_1
_geom_bond_atom_site_label_2
_geom_bond_distance
_geom_bond_site_symmetry_2
_ccdc_geom_bond_type
O0 Cd1 2.300 . S
O0 C7 1.275 . S
Cd1 O0 2.300 . S
Cd1 O9 2.381 . S
Cd1 O10 2.378 . S
O2 Cd3 2.385 . S
O2 C7 1.255 . S
Cd3 O2 2.385 . S
Cd3 O4 2.317 . S
O4 Cd3 2.317 . S
O4 C5 1.232 . S
C5 O4 1.232 . S
C5 O6 1.218 . S
O6 C5 1.218 . S
C7 O0 1.275 . S
C7 O2 1.255 . S
C8 O9 1.258 . S
C8 O10 1.256 . S
O9 Cd1 2.381 . S
O9 C8 1.258 . S
O10 Cd1 2.378 . S
O10 C8 1.256 . S
O11 Cd12 2.300 . S
O11 C18 1.275 . S
Cd12 O11 2.300 . S
Cd12 O20 2.381 . S
Cd12 O21 2.378 1_455 S
O13 Cd14 2.385 . S
O13 C18 1.255 . S
Cd14 O13 2.385 . S
Cd14 O15 2.317 . S
O15 Cd14 2.317 . S
O15 C16 1.232 . S
C16 O15 1.232 . S
C16 O17 1.218 . S
O17 C16 1.218 . S
C18 O11 1.275 . S
C18 O13 1.255 . S
C19 O20 1.258 1_655 S
C19 O21 1.256 . S
O20 Cd12 2.381 . S
O20 C19 1.258 1_455 S
O21 Cd12 2.378 1_655 S
O21 C19 1.256 . S
O22 Cd23 2.300 . S
O22 C29 1.275 . S
Cd23 O22 2.300 . S
Cd23 O31 2.381 . S
Cd23 O32 2.378 1_545 S
O24 Cd25 2.385 . S
O24 C29 1.255 . S
Cd25 O24 2.385 . S
Cd25 O26 2.317 . S
O26 Cd25 2.317 . S
O26 C27 1.232 . S
C27 O26 1.232 . S
C27 O28 1.218 . S
O28 C27 1.218 . S
C29 O22 1.275 . S
C29 O24 1.255 . S
C30 O31 1.258 1_565 S
C30 O32 1.256 . S
O31 Cd23 2.381 . S
O31 C30 1.258 1_545 S
O32 Cd23 2.378 1_565 S
O32 C30 1.256 . S
O33 Cd34 2.300 . S
O33 C40 1.275 . S
Cd34 O33 2.300 . S
Cd34 O42 2.381 . S
Cd34 O43 2.378 . S
O35 Cd36 2.385 . S
O35 C40 1.255 . S
Cd36 O35 2.385 . S
Cd36 O37 2.317 . S
O37 Cd36 2.317 . S
O37 C38 1.232 . S
C38 O37 1.232 . S
C38 O39 1.218 . S
O39 C38 1.218 . S
C40 O33 1.275 . S
C40 O35 1.255 . S
C41 O42 1.258 . S
C41 O43 1.256 . S
O42 Cd34 2.381 . S
O42 C41 1.258 . S
O43 Cd34 2.378 . S
O43 C41 1.256 . S
O44 Cd45 2.300 . S
O44 C51 1.275 . S
Cd45 O44 2.300 . S
Cd45 O53 2.381 . S
Cd45 O54 2.378 1_655 S
O46 Cd47 2.385 . S
O46 C51 1.255 . S
Cd47 O46 2.385 . S
Cd47 O48 2.317 . S
O48 Cd47 2.317 . S
O48 C49 1.232 . S
C49 O48 1.232 . S
C49 O50 1.218 . S
O50 C49 1.218 . S
C51 O44 1.275 . S
C51 O46 1.255 . S
C52 O53 1.258 1_455 S
C52 O54 1.256 . S
O53 Cd45 2.381 . S
O53 C52 1.258 1_655 S
O54 Cd45 2.378 1_455 S
O54 C52 1.256 . S
O55 Cd56 2.300 . S
O55 C62 1.275 . S
Cd56 O55 2.300 . S
Cd56 O64 2.381 . S
Cd56 O65 2.378 1_565 S
O57 Cd58 2.385 . S
O57 C62 1.255 . S
Cd58 O57 2.385 . S
Cd58 O59 2.317 . S
O59 Cd58 2.317 . S
O59 C60 1.232 . S
C60 O59 1.232 . S
C60 O61 1.218 . S
O61 C60 1.218 . S
C62 O55 1.275 . S
C62 O57 1.255 . S
C63 O64 1.258 1_545 S
C63 O65 1.256 . S
O64 Cd56 2.381 . S
O64 C63 1.258 1_565 S
O65 Cd56 2.378 1_545 S
O65 C63 1.256 . S
O66 Cd67 2.300 . S
O66 C73 1.275 . S
Cd67 O66 2.300 . S
Cd67 O75 2.381 . S
Cd67 O76 2.378 . S
O68 Cd69 2.385 . S
O68 C73 1.255 . S
Cd69 O68 2.385 . S
Cd69 O70 2.317 . S
O70 Cd69 2.317 . S
O70 C71 1.232 . S
C71 O70 1.232 . S
C71 O72 1.218 . S
O72 C71 1.218 . S
C73 O66 1.275 . S
C73 O68 1.255 . S
C74 O75 1.258 . S
C74 O76 1.256 . S
O75 Cd67 2.381 . S
O75 C74 1.258 . S
O76 Cd67 2.378 . S
O76 C74 1.256 . S
O77 Cd78 2.300 . S
O77 C84 1.275 . S
Cd78 O77 2.300 . S
Cd78 O86 2.381 . S
Cd78 O87 2.378 1_455 S
O79 Cd80 2.385 . S
O79 C84 1.255 . S
Cd80 O79 2.385 . S
Cd80 O81 2.317 . S
O81 Cd80 2.317 . S
O81 C82 1.232 . S
C82 O81 1.232 . S
C82 O83 1.218 . S
O83 C82 1.218 . S
C84 O77 1.275 . S
C84 O79 1.255 . S
C85 O86 1.258 1_655 S
C85 O87 1.256 . S
O86 Cd78 2.381 . S
O86 C85 1.258 1_455 S
O87 Cd78 2.378 1_655 S
O87 C85 1.256 . S
O88 Cd89 2.300 . S
O88 C95 1.275 . S
Cd89 O88 2.300 . S
Cd89 O97 2.381 . S
Cd89 O98 2.378 1_545 S
O90 Cd91 2.385 . S
O90 C95 1.255 . S
Cd91 O90 2.385 . S
Cd91 O92 2.317 . S
O92 Cd91 2.317 . S
O92 C93 1.232 . S
C93 O92 1.232 . S
C93 O94 1.218 . S
O94 C93 1.218 . S
C95 O88 1.275 . S
C95 O90 1.255 . S
C96 O97 1.258 1_565 S
C96 O98 1.256 . S
O97 Cd89 2.381 . S
O97 C96 1.258 1_545 S
O98 Cd89 2.378 1_565 S
O98 C96 1.256 . S
O99 Cd100 2.300 . S
O99 C106 1.275 . S
Cd100 O99 2.300 . S
Cd100 O108 2.381 . S
Cd100 O109 2.378 . S
O101 Cd102 2.385 . S
O101 C106 1.255 . S
Cd102 O101 2.385 . S
Cd102 O103 2.317 . S
O103 Cd102 2.317 . S
O103 C104 1.232 . S
C104 O103 1.232 . S
C104 O105 1.218 . S
O105 C104 1.218 . S
C106 O99 1.275 . S
C106 O101 1.255 . S
C107 O108 1.258 . S
C107 O109 1.256 . S
O108 Cd100 2.381 . S
O108 C107 1.258 . S
O109 Cd100 2.378 . S
O109 C107 1.256 . S
O110 Cd111 2.300 . S
O110 C117 1.275 . S
Cd111 O110 2.300 . S
Cd111 O119 2.381 . S
Cd111 O120 2.378 1_655 S
O112 Cd113 2.385 . S
O112 C117 1.255 . S
Cd113 O112 2.385 . S
Cd113 O114 2.317 . S
O114 Cd113 2.317 . S
O114 C115 1.232 . S
C115 O114 1.232 . S
C115 O116 1.218 . S
O116 C115 1.218 . S
C117 O110 1.275 . S
C117 O112 1.255 . S
C118 O119 1.258 1_455 S
C118 O120 1.256 . S
O119 Cd111 2.381 . S
O119 C118 1.258 1_655 S
O120 Cd111 2.378 1_455 S
O120 C118 1.256 . S
O121 Cd122 2.300 . S
O121 C128 1.275 . S
Cd122 O121 2.300 . S
Cd122 O130 2.381 . S
Cd122 O131 2.378 1_565 S
O123 Cd124 2.385 . S
O123 C128 1.255 . S
Cd124 O123 2.385 . S
Cd124 O125 2.317 . S
O125 Cd124 2.317 . S
O125 C126 1.232 . S
C126 O125 1.232 . S
C126 O127 1.218 . S
O127 C126 1.218 . S
C128 O121 1.275 . S
C128 O123 1.255 . S
C129 O130 1.258 1_545 S
C129 O131 1.256 . S
O130 Cd122 2.381 . S
O130 C129 1.258 1_565 S
O131 Cd122 2.378 1_545 S
O131 C129 1.256 . S
C5 C71 1.208 . S
C16 C82 1.209 . S
C27 C93 1.209 . S
C104 C38 1.208 . S
C49 C115 1.210 . S
C126 C60 1.209 . S
C7 C40 1.398 1_545 S
C18 C51 1.398 . S
C62 C29 1.399 1_455 S
C73 C106 1.398 1_655 S
C117 C84 1.399 1_545 S
C128 C95 1.398 . S
C118 C8 1.458 1_556 S
C129 C19 1.458 . S
C30 C74 1.458 . S
C41 C85 1.458 1_554 S
C96 C52 1.458 . S
C63 C107 1.458 . S
