# Generated by pormake.
# Topology snp, (6)-cn, num edge types: 1
# Building blocks:
#     Node 0, Type 0, BuildingBlock: BETFAJ_clean_sbu_0, # of connection points: 6
#     Node 1, Type 0, BuildingBlock: BETFAJ_clean_sbu_0, # of connection points: 6
#     Node 2, Type 0, BuildingBlock: BETFAJ_clean_sbu_0, # of connection points: 6
#     Node 3, Type 0, BuildingBlock: BETFAJ_clean_sbu_0, # of connection points: 6
#     Edge 4, Type (0, 0), None
#     Edge 5, Type (0, 0), None
#     Edge 6, Type (0, 0), None
#     Edge 7, Type (0, 0), None
#     Edge 8, Type (0, 0), None
#     Edge 9, Type (0, 0), None
#     Edge 10, Type (0, 0), None
#     Edge 11, Type (0, 0), None
#     Edge 12, Type (0, 0), None
#     Edge 13, Type (0, 0), None
#     Edge 14, Type (0, 0), None
#     Edge 15, Type (0, 0), None
# Relax obj value: 0.358
# Max RMSD: 0.308
# Mean RMSD: 0.298
data_MOF--net-snp--node1-BETFAJ_clean_sbu_0--edge1-none
_symmetry_space_group_name_H-M    P1
_symmetry_Int_Tables_number       1
_symmetry_cell_setting            triclinic
loop_
_symmetry_equiv_pos_as_xyz
'x, y, z'
_cell_length_a     11.825781
_cell_length_b     12.041619
_cell_length_c     20.007087
_cell_angle_alpha  74.461939
_cell_angle_beta   110.88806
_cell_angle_gamma 102.46749
loop_
_atom_site_label
_atom_site_type_symbol
_atom_site_fract_x
_atom_site_fract_y
_atom_site_fract_z
_atom_type_partial_charge
Sm0 Sm 0.38549 0.18906 0.19423 0.0
Sm1 Sm 0.31757 0.93266 0.17654 0.0
C2 C 0.40693 0.38896 0.23066 0.0
C3 C 0.44415 0.40927 0.30621 0.0
C4 C 0.37839 0.47539 0.32367 0.0
C5 C 0.39858 0.47793 0.39688 0.0
C6 C 0.48503 0.41405 0.45471 0.0
C7 C 0.5537 0.35116 0.43664 0.0
C8 C 0.53324 0.34846 0.36354 0.0
C9 C 0.57525 0.06572 0.22266 0.0
C10 C 0.41008 -0.01265 0.33979 0.0
C11 C 0.30049 0.73648 0.13744 0.0
C12 C 0.30184 0.71783 1.06834 0.0
C13 C 0.37176 0.7991 1.02855 0.0
C14 C 0.34618 0.80323 0.95429 0.0
C15 C 0.2493 0.72723 0.91882 0.0
C16 C 0.1868 0.63956 0.96032 0.0
C17 C 0.21308 0.63488 1.03463 0.0
C18 C 0.15444 0.00164 0.21901 0.0
C19 C 0.28671 0.15168 1.02617 0.0
O20 O 0.30152 0.32398 0.21064 0.0
O21 O 0.4907 0.36235 0.21088 0.0
O22 O 0.47741 0.06477 0.17053 0.0
O23 O 0.57942 0.13809 0.26135 0.0
O24 O 0.3792 0.09101 0.30599 0.0
O25 O 0.41439 0.91183 0.30312 0.0
O26 O 0.40315 0.78418 0.17867 0.0
O27 O 0.20489 0.78186 0.13088 0.0
O28 O 0.20649 0.06533 0.1733 0.0
O29 O 0.17919 0.89572 0.23824 0.0
O30 O 0.26543 0.03872 1.05471 0.0
O31 O 0.33457 0.22993 1.06787 0.0
H32 H 0.30763 0.52124 0.28083 0.0
H33 H 0.34226 0.52598 0.40814 0.0
H34 H 0.62207 0.30206 0.47908 0.0
H35 H 0.58428 0.29507 0.35217 0.0
H36 H 0.43993 0.86498 1.05331 0.0
H37 H 0.39629 0.87118 0.9238 0.0
H38 H 0.11274 0.57858 0.93462 0.0
H39 H 0.15762 0.57232 1.06432 0.0
Sm40 Sm 1.00876 0.2332 0.78959 0.0
Sm41 Sm 0.26906 0.28521 0.77894 0.0
C42 C 0.8086 0.1806 0.8281 0.0
C43 C 0.79099 0.13766 0.90048 0.0
C44 C 0.8429 0.03997 0.94756 0.0
C45 C 0.84996 0.01371 1.02075 0.0
C46 C 0.80712 0.08535 1.04953 0.0
C47 C 0.75056 0.18074 1.00198 0.0
C48 C 0.7415 0.20591 0.92767 0.0
C49 C 0.09164 0.46342 0.74958 0.0
C50 C 0.24243 0.19181 0.94455 0.0
C51 C 0.47345 0.37491 0.74884 0.0
C52 C 0.49742 0.38927 0.67824 0.0
C53 C 0.4848 0.49535 0.62685 0.0
C54 C 0.48481 0.50448 0.55543 0.0
C55 C 0.49819 0.40791 0.53318 0.0
C56 C 0.51786 0.30346 0.58594 0.0
C57 C 0.51739 0.29422 0.65734 0.0
C58 C 0.14772 0.07735 0.7437 0.0
C59 C 1.02998 0.29696 0.63026 0.0
O60 O 0.84349 0.10961 0.80164 0.0
O61 O 0.8688 0.28507 0.82015 0.0
O62 O 0.15407 0.39003 0.79912 0.0
O63 O 0.98132 0.4174 0.72061 0.0
O64 O 0.12302 0.1805 0.91181 0.0
O65 O 0.32057 0.23442 0.9068 0.0
O66 O 0.39565 0.43932 0.74719 0.0
O67 O 0.45756 0.26836 0.78644 0.0
O68 O 0.14166 0.11646 0.79514 0.0
O69 O 0.22438 0.14366 0.71287 0.0
O70 O 0.14144 0.34606 0.6617 0.0
O71 O 0.96269 0.22767 0.66935 0.0
H72 H 0.88342 -0.01353 0.92889 0.0
H73 H 0.89391 0.93881 1.05533 0.0
H74 H 0.71511 0.23627 1.02219 0.0
H75 H 0.70061 0.2816 0.89202 0.0
H76 H 0.46985 0.57039 0.64106 0.0
H77 H 0.47194 0.58693 0.51714 0.0
H78 H 0.52823 0.22679 0.57137 0.0
H79 H 0.52757 0.21093 0.69514 0.0
Sm80 Sm 0.91626 0.1108 0.2921 0.0
Sm81 Sm 0.84801 0.85423 0.27452 0.0
C82 C 0.93344 0.30703 0.3312 0.0
C83 C 0.93222 0.32585 0.4003 0.0
C84 C 0.86198 0.24493 0.44003 0.0
C85 C 0.88754 0.24087 0.51427 0.0
C86 C 0.98471 0.31658 0.5498 0.0
C87 C 0.04759 0.40393 0.50836 0.0
C88 C 1.02132 0.40854 0.43405 0.0
C89 C 0.0796 0.04176 0.24997 0.0
C90 C 0.94674 0.89176 0.44252 0.0
C91 C 0.82602 0.65427 0.23803 0.0
C92 C 0.78889 0.63398 0.16247 0.0
C93 C 0.85445 0.56754 0.1451 0.0
C94 C 0.83437 0.56494 0.07191 0.0
C95 C 0.74824 0.62909 1.01402 0.0
C96 C 0.67976 0.69231 1.032 0.0
C97 C 0.70012 0.69507 0.10508 0.0
C98 C 0.6587 -0.02148 0.24568 0.0
C99 C 0.82424 0.05594 0.12896 0.0
O100 O 0.83074 0.25931 0.29001 0.0
O101 O 1.029 0.26159 0.33775 0.0
O102 O 1.02715 -0.02226 0.29544 0.0
O103 O 0.05502 0.14773 0.23081 0.0
O104 O 0.96824 0.00469 0.41396 0.0
O105 O 0.89875 0.81348 0.40085 0.0
O106 O 0.93159 0.71893 0.25819 0.0
O107 O 0.74228 0.6812 0.2577 0.0
O108 O 0.75628 -0.02122 0.29799 0.0
O109 O 0.65434 0.90594 0.20707 0.0
O110 O 0.85498 -0.04776 0.16285 0.0
O111 O 0.81982 0.13156 0.16552 0.0
H112 H 0.79353 0.17924 0.41523 0.0
H113 H 0.83713 0.17318 0.54471 0.0
H114 H 0.1219 0.46467 0.53411 0.0
H115 H 0.07703 0.47083 0.40441 0.0
H116 H 0.92497 0.52146 0.188 0.0
H117 H 0.89052 0.51662 1.06072 0.0
H118 H 0.61164 0.74162 0.9895 0.0
H119 H 0.64924 0.7487 0.11637 0.0
Sm120 Sm 0.96457 0.75791 0.68982 0.0
Sm121 Sm 0.22492 0.80999 0.67898 0.0
C122 C 0.76034 0.66782 0.72003 0.0
C123 C 0.73628 0.65365 0.79059 0.0
C124 C 0.74845 0.54751 0.84195 0.0
C125 C 0.7483 0.53845 0.91333 0.0
C126 C 0.73524 0.63517 0.93557 0.0
C127 C 0.71605 0.7397 0.88284 0.0
C128 C 0.71665 0.74886 0.81148 0.0
C129 C 0.08533 -0.03406 0.72474 0.0
C130 C 0.20388 0.74681 0.83837 0.0
C131 C 0.42512 0.86198 0.64052 0.0
C132 C 0.44303 0.90508 0.56823 0.0
C133 C 0.3916 0.00307 0.52127 0.0
C134 C 0.38474 0.02955 0.44811 0.0
C135 C 0.42728 -0.04219 0.41923 0.0
C136 C 0.48344 0.86214 0.46668 0.0
C137 C 0.49233 0.83676 0.54097 0.0
C138 C 0.14172 0.57981 0.71939 0.0
C139 C 0.9911 0.85163 0.52415 0.0
O140 O 0.83845 0.6036 0.72186 0.0
O141 O 0.7759 0.77428 0.68224 0.0
O142 O 0.09211 0.92665 0.67355 0.0
O143 O 1.00855 0.89973 0.7555 0.0
O144 O 0.09239 0.69763 0.80706 0.0
O145 O 0.2711 0.81595 0.79918 0.0
O146 O 0.3906 0.93305 0.66711 0.0
O147 O 0.36439 0.75772 0.6482 0.0
O148 O 0.0797 0.65321 0.66961 0.0
O149 O 0.25211 0.62578 0.74828 0.0
O150 O 0.11052 0.86313 0.55684 0.0
O151 O 0.91303 0.80869 0.56194 0.0
H152 H 0.76316 0.47236 0.82773 0.0
H153 H 0.7608 0.45594 0.95159 0.0
H154 H 0.70595 0.81649 0.89741 0.0
H155 H 0.70683 0.83221 0.7737 0.0
H156 H 0.35126 0.05664 0.54 0.0
H157 H 0.34111 0.10468 0.41363 0.0
H158 H 0.51866 0.80653 0.4464 0.0
H159 H 0.5329 0.76088 0.57654 0.0
loop_
_geom_bond_atom_site_label_1
_geom_bond_atom_site_label_2
_geom_bond_distance
_geom_bond_site_symmetry_2
_ccdc_geom_bond_type
Sm0 C2 2.846 . S
Sm0 O20 2.543 . S
Sm0 O21 2.450 . S
Sm0 O22 2.681 . S
Sm0 O23 2.464 . S
Sm0 O24 2.396 . S
Sm0 O28 2.386 . S
Sm0 O31 2.408 . S
Sm1 C11 2.846 1_554 S
Sm1 O22 2.386 1_565 S
Sm1 O25 2.408 . S
Sm1 O26 2.543 1_554 S
Sm1 O27 2.450 1_554 S
Sm1 O28 2.681 1_565 S
Sm1 O29 2.464 1_565 S
Sm1 O30 2.396 1_564 S
C2 Sm0 2.846 . S
C2 C3 1.506 . S
C2 O20 1.261 . S
C2 O21 1.242 . S
C3 C2 1.506 . S
C3 C4 1.358 . S
C3 C8 1.382 . S
C4 C3 1.358 . S
C4 C5 1.385 . S
C4 H32 0.930 . S
C5 C4 1.385 . S
C5 C6 1.395 . S
C5 H33 0.929 . S
C6 C5 1.395 . S
C6 C7 1.335 . S
C7 C6 1.335 . S
C7 C8 1.398 . S
C7 H34 0.930 . S
C8 C3 1.382 . S
C8 C7 1.398 . S
C8 H35 0.929 . S
C9 O22 1.271 . S
C9 O23 1.251 . S
C10 O24 1.252 . S
C10 O25 1.272 1_545 S
C11 Sm1 2.846 1_556 S
C11 C12 1.506 . S
C11 O26 1.261 . S
C11 O27 1.242 . S
C12 C11 1.506 . S
C12 C13 1.358 . S
C12 C17 1.382 . S
C13 C12 1.358 . S
C13 C14 1.385 . S
C13 H36 0.930 . S
C14 C13 1.385 . S
C14 C15 1.395 . S
C14 H37 0.929 . S
C15 C14 1.395 . S
C15 C16 1.335 . S
C16 C15 1.335 . S
C16 C17 1.398 . S
C16 H38 0.930 1_455 S
C17 C12 1.382 . S
C17 C16 1.398 . S
C17 H39 0.929 . S
C18 O28 1.271 . S
C18 O29 1.251 . S
C19 O30 1.252 . S
C19 O31 1.272 1_556 S
O20 Sm0 2.543 . S
O20 C2 1.261 . S
O21 Sm0 2.450 . S
O21 C2 1.242 . S
O22 Sm0 2.681 . S
O22 Sm1 2.386 1_545 S
O22 C9 1.271 . S
O23 Sm0 2.464 . S
O23 C9 1.251 . S
O24 Sm0 2.396 . S
O24 C10 1.252 . S
O25 Sm1 2.408 . S
O25 C10 1.272 1_565 S
O26 Sm1 2.543 1_556 S
O26 C11 1.261 . S
O27 Sm1 2.450 1_556 S
O27 C11 1.242 . S
O28 Sm0 2.386 . S
O28 Sm1 2.681 1_545 S
O28 C18 1.271 . S
O29 Sm1 2.464 1_545 S
O29 C18 1.251 . S
O30 Sm1 2.396 1_546 S
O30 C19 1.252 . S
O31 Sm0 2.408 . S
O31 C19 1.272 1_554 S
H32 C4 0.930 . S
H33 C5 0.929 . S
H34 C7 0.930 . S
H35 C8 0.929 . S
H36 C13 0.930 . S
H37 C14 0.929 . S
H38 C16 0.930 1_655 S
H39 C17 0.929 . S
Sm40 C42 2.846 . S
Sm40 O60 2.543 . S
Sm40 O61 2.450 . S
Sm40 O62 2.681 1_655 S
Sm40 O63 2.464 . S
Sm40 O64 2.396 1_655 S
Sm40 O68 2.386 1_655 S
Sm40 O71 2.408 . S
Sm41 C51 2.846 . S
Sm41 O62 2.386 . S
Sm41 O65 2.408 . S
Sm41 O66 2.543 . S
Sm41 O67 2.450 . S
Sm41 O68 2.681 . S
Sm41 O69 2.464 . S
Sm41 O70 2.396 . S
C42 Sm40 2.846 . S
C42 C43 1.506 . S
C42 O60 1.261 . S
C42 O61 1.242 . S
C43 C42 1.506 . S
C43 C44 1.358 . S
C43 C48 1.382 . S
C44 C43 1.358 . S
C44 C45 1.385 1_556 S
C44 H72 0.930 . S
C45 C44 1.385 1_554 S
C45 C46 1.395 . S
C45 H73 0.929 1_545 S
C46 C45 1.395 . S
C46 C47 1.335 1_554 S
C47 C46 1.335 1_556 S
C47 C48 1.398 . S
C47 H74 0.930 . S
C48 C43 1.382 . S
C48 C47 1.398 . S
C48 H75 0.929 . S
C49 O62 1.271 . S
C49 O63 1.251 1_455 S
C50 O64 1.252 . S
C50 O65 1.272 . S
C51 Sm41 2.846 . S
C51 C52 1.506 . S
C51 O66 1.261 . S
C51 O67 1.242 . S
C52 C51 1.506 . S
C52 C53 1.358 . S
C52 C57 1.382 . S
C53 C52 1.358 . S
C53 C54 1.385 . S
C53 H76 0.930 . S
C54 C53 1.385 . S
C54 C55 1.395 . S
C54 H77 0.929 . S
C55 C54 1.395 . S
C55 C56 1.335 . S
C56 C55 1.335 . S
C56 C57 1.398 . S
C56 H78 0.930 . S
C57 C52 1.382 . S
C57 C56 1.398 . S
C57 H79 0.929 . S
C58 O68 1.271 . S
C58 O69 1.251 . S
C59 O70 1.252 1_655 S
C59 O71 1.272 . S
O60 Sm40 2.543 . S
O60 C42 1.261 . S
O61 Sm40 2.450 . S
O61 C42 1.242 . S
O62 Sm40 2.681 1_455 S
O62 Sm41 2.386 . S
O62 C49 1.271 . S
O63 Sm40 2.464 . S
O63 C49 1.251 1_655 S
O64 Sm40 2.396 1_455 S
O64 C50 1.252 . S
O65 Sm41 2.408 . S
O65 C50 1.272 . S
O66 Sm41 2.543 . S
O66 C51 1.261 . S
O67 Sm41 2.450 . S
O67 C51 1.242 . S
O68 Sm40 2.386 1_455 S
O68 Sm41 2.681 . S
O68 C58 1.271 . S
O69 Sm41 2.464 . S
O69 C58 1.251 . S
O70 Sm41 2.396 . S
O70 C59 1.252 1_455 S
O71 Sm40 2.408 . S
O71 C59 1.272 . S
H72 C44 0.930 . S
H73 C45 0.929 1_565 S
H74 C47 0.930 . S
H75 C48 0.929 . S
H76 C53 0.930 . S
H77 C54 0.929 . S
H78 C56 0.930 . S
H79 C57 0.929 . S
Sm80 C82 2.846 . S
Sm80 O100 2.543 . S
Sm80 O101 2.450 1_655 S
Sm80 O102 2.681 1_545 S
Sm80 O103 2.464 1_655 S
Sm80 O104 2.396 1_545 S
Sm80 O108 2.386 . S
Sm80 O111 2.408 . S
Sm81 C91 2.846 . S
Sm81 O102 2.386 . S
Sm81 O105 2.408 . S
Sm81 O106 2.543 . S
Sm81 O107 2.450 . S
Sm81 O108 2.681 1_565 S
Sm81 O109 2.464 . S
Sm81 O110 2.396 1_565 S
C82 Sm80 2.846 . S
C82 C83 1.506 . S
C82 O100 1.261 . S
C82 O101 1.242 1_655 S
C83 C82 1.506 . S
C83 C84 1.358 . S
C83 C88 1.382 1_655 S
C84 C83 1.358 . S
C84 C85 1.385 . S
C84 H112 0.930 . S
C85 C84 1.385 . S
C85 C86 1.395 . S
C85 H113 0.929 . S
C86 C85 1.395 . S
C86 C87 1.335 1_655 S
C87 C86 1.335 1_455 S
C87 C88 1.398 . S
C87 H114 0.930 . S
C88 C83 1.382 1_455 S
C88 C87 1.398 . S
C88 H115 0.929 . S
C89 O102 1.271 1_445 S
C89 O103 1.251 . S
C90 O104 1.252 . S
C90 O105 1.272 . S
C91 Sm81 2.846 . S
C91 C92 1.506 . S
C91 O106 1.261 . S
C91 O107 1.242 . S
C92 C91 1.506 . S
C92 C93 1.358 1_554 S
C92 C97 1.382 1_554 S
C93 C92 1.358 1_556 S
C93 C94 1.385 . S
C93 H116 0.930 1_556 S
C94 C93 1.385 . S
C94 C95 1.395 . S
C94 H117 0.929 . S
C95 C94 1.395 . S
C95 C96 1.335 . S
C96 C95 1.335 . S
C96 C97 1.398 . S
C96 H118 0.930 . S
C97 C92 1.382 1_556 S
C97 C96 1.398 . S
C97 H119 0.929 . S
C98 O108 1.271 1_565 S
C98 O109 1.251 . S
C99 O110 1.252 . S
C99 O111 1.272 . S
O100 Sm80 2.543 . S
O100 C82 1.261 . S
O101 Sm80 2.450 1_455 S
O101 C82 1.242 1_455 S
O102 Sm80 2.681 1_565 S
O102 Sm81 2.386 . S
O102 C89 1.271 1_665 S
O103 Sm80 2.464 1_455 S
O103 C89 1.251 . S
O104 Sm80 2.396 1_565 S
O104 C90 1.252 . S
O105 Sm81 2.408 . S
O105 C90 1.272 . S
O106 Sm81 2.543 . S
O106 C91 1.261 . S
O107 Sm81 2.450 . S
O107 C91 1.242 . S
O108 Sm80 2.386 . S
O108 Sm81 2.681 1_545 S
O108 C98 1.271 1_545 S
O109 Sm81 2.464 . S
O109 C98 1.251 . S
O110 Sm81 2.396 1_545 S
O110 C99 1.252 . S
O111 Sm80 2.408 . S
O111 C99 1.272 . S
H112 C84 0.930 . S
H113 C85 0.929 . S
H114 C87 0.930 . S
H115 C88 0.929 . S
H116 C93 0.930 1_554 S
H117 C94 0.929 . S
H118 C96 0.930 . S
H119 C97 0.929 . S
Sm120 C122 2.846 . S
Sm120 O140 2.543 . S
Sm120 O141 2.450 . S
Sm120 O142 2.681 1_655 S
Sm120 O143 2.464 1_565 S
Sm120 O144 2.396 1_655 S
Sm120 O148 2.386 1_655 S
Sm120 O151 2.408 . S
Sm121 C131 2.846 . S
Sm121 O142 2.386 . S
Sm121 O145 2.408 . S
Sm121 O146 2.543 1_565 S
Sm121 O147 2.450 . S
Sm121 O148 2.681 . S
Sm121 O149 2.464 . S
Sm121 O150 2.396 . S
C122 Sm120 2.846 . S
C122 C123 1.506 . S
C122 O140 1.261 . S
C122 O141 1.242 . S
C123 C122 1.506 . S
C123 C124 1.358 . S
C123 C128 1.382 . S
C124 C123 1.358 . S
C124 C125 1.385 . S
C124 H152 0.930 . S
C125 C124 1.385 . S
C125 C126 1.395 . S
C125 H153 0.929 . S
C126 C125 1.395 . S
C126 C127 1.335 . S
C127 C126 1.335 . S
C127 C128 1.398 . S
C127 H154 0.930 . S
C128 C123 1.382 . S
C128 C127 1.398 . S
C128 H155 0.929 . S
C129 O142 1.271 1_545 S
C129 O143 1.251 1_455 S
C130 O144 1.252 . S
C130 O145 1.272 . S
C131 Sm121 2.846 . S
C131 C132 1.506 . S
C131 O146 1.261 1_565 S
C131 O147 1.242 . S
C132 C131 1.506 . S
C132 C133 1.358 1_565 S
C132 C137 1.382 . S
C133 C132 1.358 1_545 S
C133 C134 1.385 . S
C133 H156 0.930 . S
C134 C133 1.385 . S
C134 C135 1.395 . S
C134 H157 0.929 . S
C135 C134 1.395 . S
C135 C136 1.335 1_545 S
C136 C135 1.335 1_565 S
C136 C137 1.398 . S
C136 H158 0.930 . S
C137 C132 1.382 . S
C137 C136 1.398 . S
C137 H159 0.929 . S
C138 O148 1.271 . S
C138 O149 1.251 . S
C139 O150 1.252 1_655 S
C139 O151 1.272 . S
O140 Sm120 2.543 . S
O140 C122 1.261 . S
O141 Sm120 2.450 . S
O141 C122 1.242 . S
O142 Sm120 2.681 1_455 S
O142 Sm121 2.386 . S
O142 C129 1.271 1_565 S
O143 Sm120 2.464 1_545 S
O143 C129 1.251 1_655 S
O144 Sm120 2.396 1_455 S
O144 C130 1.252 . S
O145 Sm121 2.408 . S
O145 C130 1.272 . S
O146 Sm121 2.543 1_545 S
O146 C131 1.261 1_545 S
O147 Sm121 2.450 . S
O147 C131 1.242 . S
O148 Sm120 2.386 1_455 S
O148 Sm121 2.681 . S
O148 C138 1.271 . S
O149 Sm121 2.464 . S
O149 C138 1.251 . S
O150 Sm121 2.396 . S
O150 C139 1.252 1_455 S
O151 Sm120 2.408 . S
O151 C139 1.272 . S
H152 C124 0.930 . S
H153 C125 0.929 . S
H154 C127 0.930 . S
H155 C128 0.929 . S
H156 C133 0.930 . S
H157 C134 0.929 . S
H158 C136 0.930 . S
H159 C137 0.929 . S
C89 C18 3.982 . S
C129 C58 3.929 . S
C98 C9 2.438 1_565 S
C49 C138 1.678 . S
C55 C6 1.070 . S
C46 C99 1.874 . S
C139 C90 2.722 . S
C130 C15 1.540 . S
C95 C126 1.070 . S
C10 C135 1.874 . S
C50 C19 2.721 . S
C86 C59 1.540 . S
