# Generated by pormake.
# Topology hex, (8)-cn, num edge types: 1
# Building blocks:
#     Node 0, Type 0, BuildingBlock: LIZSOE_clean_sbu_0, # of connection points: 8
#     Edge 1, Type (0, 0), BuildingBlock: ZUJKAS_clean_linker_0, # of connection points: 2
#     Edge 2, Type (0, 0), BuildingBlock: ZUJKAS_clean_linker_0, # of connection points: 2
#     Edge 3, Type (0, 0), BuildingBlock: ZUJKAS_clean_linker_0, # of connection points: 2
#     Edge 4, Type (0, 0), BuildingBlock: ZUJKAS_clean_linker_0, # of connection points: 2
# Relax obj value: 0.108
# Max RMSD: 0.228
# Mean RMSD: 0.228
data_MOF--net-hex--node1-LIZSOE_clean_sbu_0--edge1-ZUJKAS_clean_linker_0
_symmetry_space_group_name_H-M    P1
_symmetry_Int_Tables_number       1
_symmetry_cell_setting            triclinic
loop_
_symmetry_equiv_pos_as_xyz
'x, y, z'
_cell_length_a     19.676813
_cell_length_b     27.367695
_cell_length_c     20.023751
_cell_angle_alpha  106.01471
_cell_angle_beta   80.448154
_cell_angle_gamma 133.29891
loop_
_atom_site_label
_atom_site_type_symbol
_atom_site_fract_x
_atom_site_fract_y
_atom_site_fract_z
_atom_type_partial_charge
Co0 Co 0.07512 0.91794 0.02904 0.0
N1 N 0.04576 0.85397 0.07249 0.0
C2 C 0.95908 0.79595 0.08283 0.0
N3 N 0.05627 0.79065 0.11316 0.0
C4 C 0.10375 0.85058 0.09391 0.0
C5 C 0.96537 0.75695 0.10695 0.0
Co6 Co 0.94712 0.06946 0.95089 0.0
N7 N 0.97039 0.13733 0.91837 0.0
N8 N 0.9971 0.23073 0.9155 0.0
C9 C 0.05334 0.22757 0.87039 0.0
C10 C 0.03635 0.17021 0.87168 0.0
C11 C 0.94612 0.17481 0.94321 0.0
Co12 Co 1.01187 0.99634 0.98691 0.0
C13 C 0.88657 0.02941 0.03159 0.0
H14 H 0.07632 0.15725 0.84492 0.0
O15 O 0.10249 0.98213 0.98502 0.0
O16 O 0.12718 0.09784 0.0082 0.0
O17 O 0.99465 0.00169 0.08946 0.0
O18 O 0.89843 0.89408 0.96618 0.0
O19 O 0.95629 0.85269 0.98773 0.0
O20 O 0.07065 0.13519 0.9777 0.0
O21 O 0.92124 0.00768 0.98549 0.0
O22 O 0.97301 0.03791 0.8642 0.0
O23 O 0.03659 0.94824 0.10736 0.0
O24 O 0.10452 0.98192 0.9849 0.0
O25 O 0.0272 0.99202 0.88364 0.0
O26 O 0.92326 0.09218 0.03823 0.0
C27 C 1.00734 0.97895 0.12894 0.0
C28 C 0.87742 0.15968 -0.00053 0.0
H29 H 0.91451 0.18585 0.05089 0.0
H30 H 0.84403 0.17886 0.99564 0.0
H31 H 0.82193 0.10342 0.99602 0.0
C32 C 0.13729 0.14661 -0.00023 0.0
C33 C 0.89083 0.8438 0.96615 0.0
H34 H 0.89458 0.78093 0.07089 0.0
H35 H 0.24853 0.90038 0.07794 0.0
H36 H 0.22294 0.92374 0.16358 0.0
H37 H 0.22684 0.9572 0.09538 0.0
C38 C 0.20641 0.91157 0.10779 0.0
C39 C 0.18059 0.01646 0.95409 0.0
C40 C 1.00545 0.00903 0.84319 0.0
H41 H 0.90712 0.70513 0.11409 0.0
H42 H 0.10824 0.26711 0.84275 0.0
H43 H 0.87276 0.24368 0.9168 0.0
H44 H 0.90052 0.34934 0.96362 0.0
H45 H 0.18486 0.46105 0.01964 0.0
H46 H 0.15556 0.35477 0.9753 0.0
H47 H 0.10171 0.49379 0.12248 0.0
H48 H 0.05263 0.50756 0.86565 0.0
H49 H 0.95413 0.42752 0.88918 0.0
H50 H 0.06459 0.45005 0.87502 0.0
C51 C 0.94049 0.29078 0.93998 0.0
C52 C 1.01199 0.29173 0.94307 0.0
C53 C 0.9567 0.35102 0.96602 0.0
C54 C 0.04515 0.41311 0.99423 0.0
C55 C 0.11625 0.41372 -0.00199 0.0
H56 H 0.17936 0.79152 0.02861 0.0
H57 H 0.20038 0.71147 0.01211 0.0
C58 C 0.0998 0.35345 0.97243 0.0
C59 C 0.06432 0.47782 0.01838 0.0
H60 H 0.06037 0.58336 0.96429 0.0
C61 C 0.09348 0.51388 0.08792 0.0
C62 C 0.05549 0.50454 0.97275 0.0
C63 C 0.03095 0.47085 0.89634 0.0
C64 C 0.11149 0.57517 0.11361 0.0
C65 C 0.09798 0.59998 0.06876 0.0
C66 C 0.07087 0.56452 -0.00117 0.0
C67 C 0.10669 0.66045 0.09284 0.0
C68 C 0.14547 0.61279 0.18817 0.0
C69 C 0.05154 0.66138 0.14659 0.0
C70 C 0.04329 0.70985 0.15847 0.0
C71 C 0.08817 0.7571 0.11582 0.0
C72 C 0.14777 0.75867 0.0649 0.0
C73 C 0.15802 0.71151 0.05427 0.0
H74 H 0.18341 0.60214 0.20692 0.0
H75 H 0.19237 0.66933 0.19478 0.0
H76 H 0.08446 0.59458 0.22147 0.0
H77 H 1.00928 0.62157 0.17592 0.0
H78 H 0.99575 0.70688 0.1972 0.0
H79 H 0.76897 0.0109 0.13805 0.0
H80 H 0.62141 0.98022 0.12473 0.0
H81 H 0.63766 0.93167 0.90167 0.0
H82 H 0.77643 0.95355 0.91552 0.0
H83 H 0.60692 0.04698 0.08422 0.0
H84 H 0.37138 0.7985 0.89956 0.0
H85 H 0.47141 0.82507 0.93842 0.0
H86 H 0.48166 0.84929 0.85932 0.0
C87 C 0.73681 0.98861 0.08661 0.0
C88 C 0.78365 0.9834 0.02811 0.0
C89 C 0.65339 0.97258 0.07864 0.0
C90 C 0.61689 0.95354 0.01191 0.0
C91 C 0.66044 0.94346 0.95387 0.0
H92 H 0.36943 0.11033 0.95753 0.0
H93 H 0.47458 0.09304 0.96485 0.0
C94 C 0.74089 0.95615 0.96196 0.0
C95 C 0.54408 0.95505 0.00264 0.0
H96 H 0.36303 0.88284 0.89587 0.0
C97 C 0.55229 0.00977 0.04398 0.0
C98 C 0.47095 0.90666 0.95101 0.0
C99 C 0.4479 0.84127 0.91035 0.0
C100 C 0.49206 0.01831 0.03433 0.0
C101 C 0.42578 0.97431 0.97783 0.0
C102 C 0.41542 0.91832 0.93782 0.0
C103 C 0.36396 0.98366 0.96169 0.0
C104 C 0.49885 0.07327 0.08675 0.0
C105 C 0.26735 0.9271 0.94925 0.0
C106 C 0.20751 0.93689 0.94395 0.0
C107 C 0.24302 0.00347 0.95046 0.0
C108 C 0.34008 0.05888 0.95508 0.0
C109 C 0.40006 0.04905 0.96022 0.0
H110 H 0.52665 0.08403 0.13794 0.0
H111 H 0.54794 0.12198 0.06843 0.0
H112 H 0.42976 0.05795 0.09471 0.0
H113 H 0.23707 0.87556 0.94743 0.0
H114 H 0.13328 0.89243 0.93622 0.0
H115 H 0.16013 0.25726 0.06389 0.0
H116 H 0.29328 0.37633 0.05646 0.0
H117 H 0.4482 0.31939 0.95393 0.0
H118 H 0.31317 0.19865 0.96088 0.0
H119 H 0.48427 0.47521 0.09848 0.0
H120 H 0.42971 0.39487 0.81088 0.0
H121 H 0.3446 0.33872 0.86761 0.0
H122 H 0.4487 0.35281 0.84937 0.0
C123 C 0.22371 0.27048 0.0418 0.0
C124 C 0.22669 0.21893 0.01316 0.0
C125 C 0.29956 0.3385 0.03726 0.0
C126 C 0.37988 0.35648 0.00348 0.0
C127 C 0.38608 0.30622 0.97931 0.0
H128 H 0.86836 0.73513 0.89125 0.0
H129 H 0.73682 0.61475 0.89545 0.0
C130 C 0.30974 0.23763 0.98422 0.0
C131 C 0.45287 0.42659 0.98957 0.0
H132 H 0.5486 0.51353 0.85909 0.0
C133 C 0.49871 0.48369 0.04617 0.0
C134 C 0.4706 0.43739 0.92125 0.0
C135 C 0.42051 0.37789 0.85861 0.0
C136 C 0.56288 0.55136 0.03634 0.0
C137 C 0.57986 0.56222 0.96804 0.0
C138 C 0.53447 0.50508 0.91139 0.0
C139 C 0.65043 0.6326 0.9544 0.0
C140 C 0.61369 0.61065 0.09913 0.0
C141 C 0.64328 0.68209 0.98228 0.0
C142 C 0.71865 0.75134 0.97942 0.0
C143 C 0.80166 0.77156 0.94855 0.0
C144 C 0.80487 0.72076 0.91509 0.0
C145 C 0.72996 0.65199 0.91782 0.0
H146 H 0.60822 0.59369 0.14572 0.0
H147 H 0.6888 0.65128 0.08892 0.0
H148 H 0.58261 0.63379 0.11126 0.0
H149 H 0.58155 0.66784 0.0095 0.0
H150 H 0.71486 0.78959 0.00633 0.0
H151 H 0.16315 0.07934 0.76951 0.0
H152 H 0.16827 0.07351 0.64409 0.0
H153 H 0.86988 0.90187 0.62455 0.0
H154 H 0.86496 0.9077 0.74935 0.0
H155 H 0.97784 0.89415 0.50951 0.0
H156 H 0.05655 0.14053 0.58085 0.0
H157 H 0.13417 0.14047 0.61716 0.0
H158 H 1.01487 0.08873 0.64281 0.0
C159 C 0.09961 0.03874 0.73759 0.0
C160 C 1.01391 0.99321 0.76805 0.0
C161 C 0.10229 0.03594 0.66644 0.0
C162 C 1.01917 0.98788 0.62557 0.0
C163 C 0.93464 0.93925 0.65529 0.0
H164 H 0.85263 0.89671 0.20078 0.0
H165 H 0.8509 0.9015 0.32534 0.0
C166 C 0.93194 0.94227 0.72625 0.0
C167 C 1.01796 0.99218 0.55386 0.0
H168 H 0.04181 0.0908 0.46144 0.0
C169 C 0.99208 0.93714 0.49877 0.0
C170 C 0.03604 0.04828 0.54047 0.0
C171 C 0.06133 0.10777 0.59831 0.0
C172 C 0.98508 0.93709 0.43012 0.0
C173 C 1.00169 0.99272 0.41676 0.0
C174 C 0.02819 0.04798 0.47196 0.0
C175 C 0.99631 0.99593 0.34534 0.0
C176 C 0.96217 0.87825 0.37247 0.0
C177 C 0.07624 0.05015 0.31685 0.0
C178 C 0.07631 0.04834 0.24648 0.0
C179 C 0.99633 0.9926 0.20392 0.0
C180 C 0.91432 0.94091 0.2333 0.0
C181 C 0.91395 0.94301 0.30393 0.0
H182 H 0.97588 0.85007 0.38908 0.0
H183 H 0.88693 0.8411 0.3574 0.0
H184 H 1.00346 0.89694 0.3259 0.0
H185 H 0.14036 0.09161 0.34793 0.0
H186 H 0.14091 0.08773 0.22419 0.0
loop_
_geom_bond_atom_site_label_1
_geom_bond_atom_site_label_2
_geom_bond_distance
_geom_bond_site_symmetry_2
_ccdc_geom_bond_type
Co0 N1 2.034 . S
Co0 O15 2.262 1_654 S
Co0 O19 1.958 1_554 S
Co0 O23 1.950 1_655 S
Co0 O24 2.057 1_654 S
N1 Co0 2.034 . S
N1 C2 1.366 . S
N1 C4 1.332 1_655 S
C2 N1 1.366 . S
C2 C5 1.377 . S
C2 H34 0.931 . S
N3 C4 1.344 . S
N3 C5 1.335 1_455 S
C4 N1 1.332 1_455 S
C4 N3 1.344 . S
C4 C38 1.361 . S
C5 C2 1.377 . S
C5 N3 1.335 1_655 S
C5 H41 0.930 . S
Co6 N7 2.034 1_655 S
Co6 O20 1.950 1_655 S
Co6 O21 2.256 1_556 S
Co6 O22 1.958 . S
Co6 O26 2.058 . S
N7 Co6 2.034 1_455 S
N7 C10 1.366 . S
N7 C11 1.332 . S
N8 C9 1.337 . S
N8 C11 1.346 . S
C9 N8 1.337 . S
C9 C10 1.377 . S
C9 H42 0.930 . S
C10 N7 1.366 . S
C10 C9 1.377 . S
C10 H14 0.931 . S
C11 N7 1.332 . S
C11 N8 1.346 . S
C11 C28 1.361 1_556 S
Co12 O15 2.097 1_655 S
Co12 O16 2.065 1_666 S
Co12 O17 2.070 1_566 S
Co12 O18 2.042 . S
Co12 O21 2.099 1_566 S
Co12 O25 2.042 1_655 S
C13 O21 1.253 . S
C13 O26 1.262 1_554 S
H14 C10 0.931 . S
O15 Co0 2.262 1_456 S
O15 Co12 2.097 1_455 S
O15 C39 1.253 . S
O16 Co12 2.065 1_444 S
O16 C32 1.221 . S
O17 Co12 2.070 1_544 S
O17 C27 1.203 1_545 S
O18 Co12 2.042 . S
O18 C33 1.237 . S
O19 Co0 1.958 1_556 S
O19 C33 1.278 . S
O20 Co6 1.950 1_455 S
O20 C32 1.277 1_556 S
O21 Co6 2.256 1_554 S
O21 Co12 2.099 1_544 S
O21 C13 1.253 . S
O22 Co6 1.958 . S
O22 C40 1.278 . S
O23 Co0 1.950 1_455 S
O23 C27 1.277 1_455 S
O24 Co0 2.057 1_456 S
O24 C39 1.263 . S
O25 Co12 2.042 1_455 S
O25 C40 1.237 1_465 S
O26 Co6 2.058 . S
O26 C13 1.262 1_556 S
C27 O17 1.203 1_565 S
C27 O23 1.277 1_655 S
C28 C11 1.361 1_554 S
C28 H29 0.960 . S
C28 H30 0.961 . S
C28 H31 0.961 1_455 S
H29 C28 0.960 . S
H30 C28 0.961 . S
H31 C28 0.961 1_655 S
C32 O16 1.221 . S
C32 O20 1.277 1_554 S
C33 O18 1.237 . S
C33 O19 1.278 . S
H34 C2 0.931 . S
H35 C38 0.961 . S
H36 C38 0.961 . S
H37 C38 0.960 . S
C38 C4 1.361 . S
C38 H35 0.961 . S
C38 H36 0.961 . S
C38 H37 0.960 . S
C39 O15 1.253 . S
C39 O24 1.263 . S
C40 O22 1.278 . S
C40 O25 1.237 1_645 S
H41 C5 0.930 . S
H42 C9 0.930 . S
H43 C51 0.929 . S
H44 C53 0.930 . S
H45 C55 0.930 . S
H46 C58 0.929 . S
H47 C61 0.930 . S
H48 C63 0.960 . S
H49 C63 0.960 . S
H50 C63 0.960 . S
C51 H43 0.929 . S
C51 C52 1.369 1_655 S
C51 C53 1.384 . S
C52 C51 1.369 1_455 S
C52 C58 1.392 . S
C53 H44 0.930 . S
C53 C51 1.384 . S
C53 C54 1.372 1_655 S
C54 C53 1.372 1_455 S
C54 C55 1.400 . S
C54 C59 1.490 . S
C55 H45 0.930 . S
C55 C54 1.400 . S
C55 C58 1.386 . S
H56 C72 0.930 . S
H57 C73 0.931 . S
C58 H46 0.929 . S
C58 C52 1.392 . S
C58 C55 1.386 . S
C59 C54 1.490 . S
C59 C61 1.395 1_456 S
C59 C62 1.403 . S
H60 C66 0.930 . S
C61 H47 0.930 . S
C61 C59 1.395 1_654 S
C61 C64 1.403 . S
C62 C59 1.403 . S
C62 C63 1.524 . S
C62 C66 1.400 . S
C63 H48 0.960 . S
C63 H49 0.960 . S
C63 H50 0.960 . S
C63 C62 1.524 . S
C64 C61 1.403 . S
C64 C65 1.392 1_655 S
C64 C68 1.495 . S
C65 C64 1.392 1_455 S
C65 C66 1.385 1_554 S
C65 C67 1.478 . S
C66 H60 0.930 . S
C66 C62 1.400 . S
C66 C65 1.385 1_556 S
C67 C65 1.478 . S
C67 C69 1.381 1_455 S
C67 C73 1.383 . S
C68 C64 1.495 . S
C68 H74 0.959 . S
C68 H75 0.961 . S
C68 H76 0.960 . S
C69 C67 1.381 1_655 S
C69 C70 1.394 . S
C69 H77 0.930 . S
C70 C69 1.394 . S
C70 C71 1.383 1_655 S
C70 H78 0.929 . S
C71 C70 1.383 1_455 S
C71 C72 1.377 . S
C72 H56 0.930 . S
C72 C71 1.377 . S
C72 C73 1.379 . S
C73 H57 0.931 . S
C73 C67 1.383 . S
C73 C72 1.379 . S
H74 C68 0.959 . S
H75 C68 0.961 . S
H76 C68 0.960 . S
H77 C69 0.930 . S
H78 C70 0.929 . S
H79 C87 0.929 . S
H80 C89 0.930 . S
H81 C91 0.930 . S
H82 C94 0.929 1_556 S
H83 C97 0.930 . S
H84 C99 0.960 . S
H85 C99 0.960 . S
H86 C99 0.960 1_545 S
C87 H79 0.929 . S
C87 C88 1.377 1_565 S
C87 C89 1.384 . S
C88 C87 1.377 1_545 S
C88 C94 1.390 . S
C89 H80 0.930 . S
C89 C87 1.384 . S
C89 C90 1.372 . S
C90 C89 1.372 . S
C90 C91 1.400 1_564 S
C90 C95 1.490 . S
C91 H81 0.930 . S
C91 C90 1.400 1_546 S
C91 C94 1.386 1_556 S
H92 C108 0.930 . S
H93 C109 0.931 . S
C94 H82 0.929 1_554 S
C94 C88 1.390 . S
C94 C91 1.386 1_554 S
C95 C90 1.490 . S
C95 C97 1.395 1_565 S
C95 C98 1.403 1_554 S
H96 C102 0.930 . S
C97 H83 0.930 . S
C97 C95 1.395 1_545 S
C97 C100 1.403 . S
C98 C95 1.403 1_556 S
C98 C99 1.524 . S
C98 C102 1.400 . S
C99 H84 0.960 . S
C99 H85 0.960 . S
C99 H86 0.960 1_565 S
C99 C98 1.524 . S
C100 C97 1.403 . S
C100 C101 1.392 1_545 S
C100 C104 1.495 . S
C101 C100 1.392 1_565 S
C101 C102 1.385 1_554 S
C101 C103 1.478 1_554 S
C102 H96 0.930 . S
C102 C98 1.400 . S
C102 C101 1.385 1_556 S
C103 C101 1.478 1_556 S
C103 C105 1.381 1_556 S
C103 C109 1.383 1_565 S
C104 C100 1.495 . S
C104 H110 0.959 . S
C104 H111 0.961 . S
C104 H112 0.960 1_545 S
C105 C103 1.381 1_554 S
C105 C106 1.394 1_554 S
C105 H113 0.930 . S
C106 C105 1.394 1_556 S
C106 C107 1.383 . S
C106 H114 0.929 1_556 S
C107 C106 1.383 . S
C107 C108 1.377 1_565 S
C108 H92 0.930 . S
C108 C107 1.377 1_545 S
C108 C109 1.379 . S
C109 H93 0.931 . S
C109 C103 1.383 1_545 S
C109 C108 1.379 . S
H110 C104 0.959 . S
H111 C104 0.961 . S
H112 C104 0.960 1_565 S
H113 C105 0.930 . S
H114 C106 0.929 1_554 S
H115 C123 0.929 . S
H116 C125 0.930 1_556 S
H117 C127 0.930 . S
H118 C130 0.929 . S
H119 C133 0.930 . S
H120 C135 0.960 . S
H121 C135 0.960 . S
H122 C135 0.960 . S
C123 H115 0.929 . S
C123 C124 1.377 . S
C123 C125 1.384 . S
C124 C123 1.377 . S
C124 C130 1.390 . S
C125 H116 0.930 1_554 S
C125 C123 1.384 . S
C125 C126 1.372 . S
C126 C125 1.372 . S
C126 C127 1.400 . S
C126 C131 1.490 . S
C127 H117 0.930 . S
C127 C126 1.400 . S
C127 C130 1.386 . S
H128 C144 0.930 . S
H129 C145 0.924 1_554 S
C130 H118 0.929 . S
C130 C124 1.390 . S
C130 C127 1.386 . S
C131 C126 1.490 . S
C131 C133 1.395 . S
C131 C134 1.403 1_554 S
H132 C138 0.930 . S
C133 H119 0.930 . S
C133 C131 1.395 . S
C133 C136 1.403 . S
C134 C131 1.403 1_556 S
C134 C135 1.524 . S
C134 C138 1.400 . S
C135 H120 0.960 . S
C135 H121 0.960 . S
C135 H122 0.960 . S
C135 C134 1.524 . S
C136 C133 1.403 . S
C136 C137 1.392 1_554 S
C136 C140 1.495 . S
C137 C136 1.392 1_556 S
C137 C138 1.385 . S
C137 C139 1.478 . S
C138 H132 0.930 . S
C138 C134 1.400 . S
C138 C137 1.385 . S
C139 C137 1.478 . S
C139 C141 1.381 . S
C139 C145 1.385 . S
C140 C136 1.495 . S
C140 H146 0.959 . S
C140 H147 0.961 . S
C140 H148 0.960 . S
C141 C139 1.381 . S
C141 C142 1.394 . S
C141 H149 0.930 . S
C142 C141 1.394 . S
C142 C143 1.383 . S
C142 H150 0.929 . S
C143 C142 1.383 . S
C143 C144 1.377 . S
C144 H128 0.930 . S
C144 C143 1.377 . S
C144 C145 1.383 . S
C145 H129 0.924 1_556 S
C145 C139 1.385 . S
C145 C144 1.383 . S
H146 C140 0.959 . S
H147 C140 0.961 . S
H148 C140 0.960 . S
H149 C141 0.930 . S
H150 C142 0.929 . S
H151 C159 0.929 . S
H152 C161 0.930 . S
H153 C163 0.930 1_545 S
H154 C166 0.929 . S
H155 C169 0.930 . S
H156 C171 0.960 . S
H157 C171 0.960 . S
H158 C171 0.960 . S
C159 H151 0.929 . S
C159 C160 1.377 . S
C159 C161 1.384 . S
C160 C159 1.377 . S
C160 C166 1.390 1_455 S
C161 H152 0.930 . S
C161 C159 1.384 . S
C161 C162 1.372 . S
C162 C161 1.372 . S
C162 C163 1.400 1_455 S
C162 C167 1.490 . S
C163 H153 0.930 1_565 S
C163 C162 1.400 1_655 S
C163 C166 1.386 . S
H164 C180 0.930 . S
H165 C181 0.931 . S
C166 H154 0.929 . S
C166 C160 1.390 1_655 S
C166 C163 1.386 . S
C167 C162 1.490 . S
C167 C169 1.395 1_455 S
C167 C170 1.403 1_565 S
H168 C174 0.930 . S
C169 H155 0.930 . S
C169 C167 1.395 1_655 S
C169 C172 1.403 . S
C170 C167 1.403 1_545 S
C170 C171 1.524 . S
C170 C174 1.400 . S
C171 H156 0.960 . S
C171 H157 0.960 . S
C171 H158 0.960 . S
C171 C170 1.524 . S
C172 C169 1.403 . S
C172 C173 1.392 . S
C172 C176 1.495 . S
C173 C172 1.392 . S
C173 C174 1.385 1_665 S
C173 C175 1.478 . S
C174 H168 0.930 . S
C174 C170 1.400 . S
C174 C173 1.385 1_445 S
C175 C173 1.478 . S
C175 C177 1.381 1_655 S
C175 C181 1.383 . S
C176 C172 1.495 . S
C176 H182 0.959 . S
C176 H183 0.961 . S
C176 H184 0.960 . S
C177 C175 1.381 1_455 S
C177 C178 1.394 . S
C177 H185 0.930 . S
C178 C177 1.394 . S
C178 C179 1.382 1_465 S
C178 H186 0.929 1_565 S
C179 C178 1.382 1_645 S
C179 C180 1.377 1_545 S
C180 H164 0.930 . S
C180 C179 1.377 1_565 S
C180 C181 1.379 . S
C181 H165 0.931 . S
C181 C175 1.383 . S
C181 C180 1.379 . S
H182 C176 0.959 . S
H183 C176 0.961 . S
H184 C176 0.960 . S
H185 C177 0.930 . S
H186 C178 0.929 1_545 S
C52 N8 1.458 . S
C71 N3 1.372 . S
C88 C13 1.514 . S
C107 C39 1.499 . S
C124 C32 1.388 . S
C143 C33 1.405 . S
C160 C40 1.426 1_465 S
C179 C27 1.392 1_545 S
