# Generated by pormake.
# Topology qtz, (4)-cn, num edge types: 1
# Building blocks:
#     Node 0, Type 0, BuildingBlock: QUQFOY_clean_sbu_1, # of connection points: 4
#     Node 1, Type 0, BuildingBlock: QUQFOY_clean_sbu_1, # of connection points: 4
#     Node 2, Type 0, BuildingBlock: QUQFOY_clean_sbu_1, # of connection points: 4
#     Edge 3, Type (0, 0), BuildingBlock: XUDNAN_clean_linker_2, # of connection points: 2
#     Edge 4, Type (0, 0), BuildingBlock: XUDNAN_clean_linker_2, # of connection points: 2
#     Edge 5, Type (0, 0), BuildingBlock: XUDNAN_clean_linker_2, # of connection points: 2
#     Edge 6, Type (0, 0), BuildingBlock: XUDNAN_clean_linker_2, # of connection points: 2
#     Edge 7, Type (0, 0), BuildingBlock: XUDNAN_clean_linker_2, # of connection points: 2
#     Edge 8, Type (0, 0), BuildingBlock: XUDNAN_clean_linker_2, # of connection points: 2
# Relax obj value: 0.039
# Max RMSD: 0.133
# Mean RMSD: 0.103
data_MOF--net-qtz--node1-QUQFOY_clean_sbu_1--edge1-XUDNAN_clean_linker_2
_symmetry_space_group_name_H-M    P1
_symmetry_Int_Tables_number       1
_symmetry_cell_setting            triclinic
loop_
_symmetry_equiv_pos_as_xyz
'x, y, z'
_cell_length_a     22.802192
_cell_length_b     25.689211
_cell_length_c     29.288466
_cell_angle_alpha  90.668266
_cell_angle_beta   89.22234
_cell_angle_gamma 121.09634
loop_
_atom_site_label
_atom_site_type_symbol
_atom_site_fract_x
_atom_site_fract_y
_atom_site_fract_z
_atom_type_partial_charge
O0 O 0.89333 0.47188 0.12579 0.0
Cd1 Cd 0.95261 0.44917 0.1635 0.0
Cd2 Cd 0.02225 0.56747 0.18546 0.0
O3 O 0.94645 0.56767 0.14849 0.0
O4 O 0.89928 0.36075 0.1774 0.0
O5 O 0.93258 0.43275 0.23045 0.0
C6 C 0.90097 0.37567 0.2198 0.0
C7 C 0.05842 0.62335 0.25355 0.0
C8 C 0.90037 0.5243 0.1249 0.0
C9 C 0.09547 0.51964 0.12826 0.0
O10 O 0.09692 0.5652 0.14691 0.0
O11 O 0.0429 0.46683 0.13258 0.0
O12 O 0.07155 0.64968 0.21446 0.0
O13 O 0.02317 0.56466 0.25421 0.0
O14 O 0.54777 0.10495 0.45986 0.0
Cd15 Cd 0.45942 0.05644 0.49821 0.0
Cd16 Cd 0.5071 0.97805 0.50894 0.0
O17 O 0.58107 0.03824 0.46353 0.0
O18 O 0.43363 0.11468 0.52308 0.0
O19 O 0.46337 0.06198 0.56646 0.0
C20 C 0.44441 0.10134 0.56327 0.0
C21 C 0.5417 0.93943 0.56775 0.0
C22 C 0.58947 0.08802 0.44869 0.0
C23 C 0.36526 0.92863 0.46927 0.0
O24 O 0.4096 0.91856 0.48584 0.0
O25 O 0.37577 0.98227 0.46813 0.0
O26 O 0.53789 0.9211 0.5262 0.0
O27 O 0.52765 0.98134 0.57597 0.0
O28 O 0.45606 0.56576 0.87427 0.0
Cd29 Cd 0.53613 0.58117 0.83229 0.0
Cd30 Cd 0.46509 0.45261 0.84989 0.0
O31 O 0.39295 0.46626 0.88247 0.0
O32 O 0.57936 0.67104 0.82681 0.0
O33 O 0.53944 0.60987 0.76731 0.0
C34 C 0.56698 0.66421 0.78385 0.0
C35 C 0.43555 0.37062 0.8005 0.0
C36 C 0.4036 0.51917 0.89063 0.0
C37 C 0.60908 0.533 0.88579 0.0
O38 O 0.5539 0.48149 0.88572 0.0
O39 O 0.61408 0.57713 0.86327 0.0
O40 O 0.42546 0.36321 0.84396 0.0
O41 O 0.45944 0.42469 0.78453 0.0
H42 H 0.28849 0.43321 0.93849 0.0
H43 H 0.42072 0.62784 0.9175 0.0
H44 H 0.35953 0.64747 0.97816 0.0
H45 H 0.13288 0.43824 0.96068 0.0
H46 H 0.10079 0.37951 1.00331 0.0
H47 H 0.15448 0.37995 0.95744 0.0
H48 H 0.23759 0.3795 0.01666 0.0
H49 H 0.18473 0.38007 0.06271 0.0
H50 H 0.27412 0.43832 0.05971 0.0
H51 H 0.29093 0.64791 0.04336 0.0
H52 H 0.20564 0.62867 0.10317 0.0
H53 H 0.11215 0.43403 0.08137 0.0
C54 C 0.30395 0.47986 0.94629 0.0
C55 C 0.35985 0.52887 0.92325 0.0
C56 C 0.37835 0.58933 0.93456 0.0
C57 C 0.34411 0.60115 0.96921 0.0
C58 C 0.29081 0.55215 0.99207 0.0
C59 C 0.26965 0.49268 0.98068 0.0
C60 C 0.20943 0.44875 1.01037 0.0
C61 C 0.14561 0.40929 0.98121 0.0
C62 C 0.22759 0.40934 0.03906 0.0
C63 C 0.20074 0.49309 0.0402 0.0
C64 C 0.24895 0.55242 0.02926 0.0
C65 C 0.25242 0.60167 0.05211 0.0
C66 C 0.20386 0.59017 0.08626 0.0
C67 C 0.1519 0.52983 0.09696 0.0
C68 C 0.15119 0.48065 0.07404 0.0
H69 H 0.83052 0.37824 0.29525 0.0
H70 H 0.89046 0.26539 0.22162 0.0
H71 H 0.82554 0.18249 0.27702 0.0
H72 H 0.82748 0.32281 0.41133 0.0
H73 H 0.75168 0.32395 0.42777 0.0
H74 H 0.81023 0.37719 0.38614 0.0
H75 H 0.71081 0.34022 0.32868 0.0
H76 H 0.65209 0.28687 0.37003 0.0
H77 H 0.66034 0.26053 0.31436 0.0
H78 H 0.75061 0.1107 0.33832 0.0
H79 H 0.6626 0.0515 0.39687 0.0
H80 H 0.64395 0.20823 0.42703 0.0
C81 C 0.83112 0.33651 0.29154 0.0
C82 C 0.86619 0.32824 0.25476 0.0
C83 C 0.86418 0.2725 0.24988 0.0
C84 C 0.82774 0.22537 0.28123 0.0
C85 C 0.79276 0.23447 0.31682 0.0
C86 C 0.79353 0.28842 0.3219 0.0
C87 C 0.746 0.28424 0.36025 0.0
C88 C 0.78627 0.32975 0.39865 0.0
C89 C 0.68894 0.29349 0.34224 0.0
C90 C 0.7178 0.21934 0.37552 0.0
C91 C 0.74647 0.19186 0.35063 0.0
C92 C 0.7279 0.13175 0.35812 0.0
C93 C 0.67794 0.09853 0.39151 0.0
C94 C 0.64624 0.12514 0.41641 0.0
C95 C 0.66711 0.18656 0.40847 0.0
H96 H 0.53197 0.82896 0.56582 0.0
H97 H 0.58738 0.98464 0.65359 0.0
H98 H 0.61043 0.93417 0.71638 0.0
H99 H 0.44101 0.71859 0.64994 0.0
H100 H 0.46692 0.66679 0.62988 0.0
H101 H 0.46237 0.71785 0.59054 0.0
H102 H 0.58902 0.76031 0.56695 0.0
H103 H 0.59399 0.70936 0.60632 0.0
H104 H 0.6542 0.78999 0.61016 0.0
H105 H 0.6225 0.86522 0.77014 0.0
H106 H 0.61434 0.78014 0.81343 0.0
H107 H 0.54547 0.66678 0.69162 0.0
C108 C 0.55018 0.85293 0.59801 0.0
C109 C 0.55873 0.91103 0.60478 0.0
C110 C 0.58089 0.94026 0.64769 0.0
C111 C 0.59436 0.91206 0.68341 0.0
C112 C 0.58486 0.85451 0.67569 0.0
C113 C 0.5628 0.82506 0.63416 0.0
C114 C 0.55114 0.76141 0.63586 0.0
C115 C 0.47589 0.71334 0.62599 0.0
C116 C 0.60002 0.75491 0.60286 0.0
C117 C 0.56905 0.75923 0.68512 0.0
C118 C 0.58947 0.81379 0.70721 0.0
C119 C 0.60691 0.82242 0.75316 0.0
C120 C 0.60213 0.7737 0.77743 0.0
C121 C 0.57926 0.71668 0.75593 0.0
C122 C 0.56351 0.70983 0.70895 0.0
H123 H 0.6238 0.44769 0.93131 0.0
H124 H 0.71885 0.6424 0.91188 0.0
H125 H 0.80173 0.66084 0.97234 0.0
H126 H 0.63686 0.45039 0.05105 0.0
H127 H 0.65691 0.39121 0.05392 0.0
H128 H 0.60691 0.39244 1.00734 0.0
H129 H 0.69364 0.393 0.94893 0.0
H130 H 0.74326 0.39061 0.99531 0.0
H131 H 0.78317 0.45028 0.95352 0.0
H132 H 0.86757 0.65849 0.03887 0.0
H133 H 0.92364 0.63565 0.10016 0.0
H134 H 0.7886 0.44232 0.07475 0.0
C135 C 0.66269 0.49421 0.93925 0.0
C136 C 0.66474 0.54361 0.9169 0.0
C137 C 0.71645 0.60379 0.92833 0.0
C138 C 0.76349 0.61478 0.96284 0.0
C139 C 0.75859 0.56511 0.98518 0.0
C140 C 0.71047 0.50601 0.97329 0.0
C141 C 0.71643 0.46081 1.00262 0.0
C142 C 0.65034 0.42141 0.03037 0.0
C143 C 0.73527 0.42136 0.97335 0.0
C144 C 0.77493 0.50382 0.03324 0.0
C145 C 0.798 0.56375 0.02284 0.0
C146 C 0.85048 0.61176 0.04707 0.0
C147 C 0.88163 0.59823 0.08207 0.0
C148 C 0.86065 0.53715 0.09223 0.0
C149 C 0.8059 0.48944 0.06778 0.0
H150 H 0.30182 0.92742 0.39038 0.0
H151 H 0.29246 0.81317 0.50133 0.0
H152 H 0.19952 0.72295 0.46224 0.0
H153 H 0.11556 0.83878 0.3591 0.0
H154 H 0.13548 0.85034 0.29895 0.0
H155 H 0.19108 0.90722 0.33965 0.0
H156 H 0.29398 0.90162 0.30719 0.0
H157 H 0.23881 0.84462 0.2667 0.0
H158 H 0.28917 0.82933 0.3051 0.0
H159 H 0.11796 0.64408 0.40747 0.0
H160 H 0.0581 0.58214 0.33956 0.0
H161 H 0.12477 0.74708 0.26246 0.0
C162 C 0.27825 0.88369 0.40711 0.0
C163 C 0.30311 0.87714 0.44917 0.0
C164 C 0.27334 0.81897 0.4693 0.0
C165 C 0.22044 0.76759 0.44744 0.0
C166 C 0.19832 0.77509 0.40527 0.0
C167 C 0.2263 0.83168 0.38523 0.0
C168 C 0.1999 0.82632 0.33718 0.0
C169 C 0.158 0.85751 0.33353 0.0
C170 C 0.25898 0.85197 0.302 0.0
C171 C 0.15453 0.75791 0.33287 0.0
C172 C 0.15313 0.72924 0.37282 0.0
C173 C 0.11786 0.66603 0.37617 0.0
C174 C 0.08406 0.6312 0.33742 0.0
C175 C 0.08669 0.65973 0.29575 0.0
C176 C 0.12141 0.72389 0.2939 0.0
H177 H 0.44254 0.36726 0.70646 0.0
H178 H 0.40648 0.25841 0.82757 0.0
H179 H 0.40071 0.17635 0.77981 0.0
H180 H 0.32836 0.23889 0.63135 0.0
H181 H 0.38396 0.27127 0.58233 0.0
H182 H 0.38141 0.32028 0.62583 0.0
H183 H 0.51272 0.37238 0.63558 0.0
H184 H 0.51562 0.32329 0.59241 0.0
H185 H 0.54938 0.32666 0.64837 0.0
H186 H 0.41004 0.1102 0.72011 0.0
H187 H 0.42346 0.06058 0.65122 0.0
H188 H 0.4472 0.20923 0.56824 0.0
C189 C 0.4324 0.3258 0.72284 0.0
C190 C 0.42498 0.31937 0.77081 0.0
C191 C 0.41206 0.26443 0.79091 0.0
C192 C 0.40884 0.21751 0.76407 0.0
C193 C 0.41772 0.22573 0.71705 0.0
C194 C 0.42819 0.27807 0.69646 0.0
C195 C 0.43716 0.27561 0.64523 0.0
C196 C 0.37926 0.27655 0.61968 0.0
C197 C 0.50793 0.32757 0.6295 0.0
C198 C 0.43158 0.21437 0.64047 0.0
C199 C 0.42063 0.18646 0.68235 0.0
C200 C 0.41757 0.13114 0.68701 0.0
C201 C 0.42555 0.10344 0.64776 0.0
C202 C 0.43571 0.13075 0.60441 0.0
C203 C 0.43842 0.18681 0.60085 0.0
loop_
_geom_bond_atom_site_label_1
_geom_bond_atom_site_label_2
_geom_bond_distance
_geom_bond_site_symmetry_2
_ccdc_geom_bond_type
O0 Cd1 2.223 . S
O0 C8 1.315 . S
Cd1 O0 2.223 . S
Cd1 O4 2.297 . S
Cd1 O5 2.439 . S
Cd1 O11 2.240 1_655 S
Cd2 O3 2.240 1_455 S
Cd2 O10 2.223 . S
Cd2 O12 2.297 . S
Cd2 O13 2.439 . S
O3 Cd2 2.240 1_655 S
O3 C8 1.279 . S
O4 Cd1 2.297 . S
O4 C6 1.247 . S
O5 Cd1 2.439 . S
O5 C6 1.208 . S
C6 O4 1.247 . S
C6 O5 1.208 . S
C7 O12 1.247 . S
C7 O13 1.208 . S
C8 O0 1.315 . S
C8 O3 1.279 . S
C9 O10 1.315 . S
C9 O11 1.279 . S
O10 Cd2 2.223 . S
O10 C9 1.315 . S
O11 Cd1 2.240 1_455 S
O11 C9 1.279 . S
O12 Cd2 2.297 . S
O12 C7 1.247 . S
O13 Cd2 2.439 . S
O13 C7 1.208 . S
O14 Cd15 2.223 . S
O14 C22 1.315 . S
Cd15 O14 2.223 . S
Cd15 O18 2.297 . S
Cd15 O19 2.439 . S
Cd15 O25 2.240 1_545 S
Cd16 O17 2.240 1_565 S
Cd16 O24 2.223 . S
Cd16 O26 2.297 . S
Cd16 O27 2.439 . S
O17 Cd16 2.240 1_545 S
O17 C22 1.279 . S
O18 Cd15 2.297 . S
O18 C20 1.247 . S
O19 Cd15 2.439 . S
O19 C20 1.208 . S
C20 O18 1.247 . S
C20 O19 1.208 . S
C21 O26 1.247 . S
C21 O27 1.208 . S
C22 O14 1.315 . S
C22 O17 1.279 . S
C23 O24 1.315 . S
C23 O25 1.279 . S
O24 Cd16 2.223 . S
O24 C23 1.315 . S
O25 Cd15 2.240 1_565 S
O25 C23 1.279 . S
O26 Cd16 2.297 . S
O26 C21 1.247 . S
O27 Cd16 2.439 . S
O27 C21 1.208 . S
O28 Cd29 2.223 . S
O28 C36 1.315 . S
Cd29 O28 2.223 . S
Cd29 O32 2.297 . S
Cd29 O33 2.439 . S
Cd29 O39 2.240 . S
Cd30 O31 2.240 . S
Cd30 O38 2.223 . S
Cd30 O40 2.297 . S
Cd30 O41 2.439 . S
O31 Cd30 2.240 . S
O31 C36 1.279 . S
O32 Cd29 2.297 . S
O32 C34 1.247 . S
O33 Cd29 2.439 . S
O33 C34 1.208 . S
C34 O32 1.247 . S
C34 O33 1.208 . S
C35 O40 1.247 . S
C35 O41 1.208 . S
C36 O28 1.315 . S
C36 O31 1.279 . S
C37 O38 1.315 . S
C37 O39 1.279 . S
O38 Cd30 2.223 . S
O38 C37 1.315 . S
O39 Cd29 2.240 . S
O39 C37 1.279 . S
O40 Cd30 2.297 . S
O40 C35 1.247 . S
O41 Cd30 2.439 . S
O41 C35 1.208 . S
H42 C54 0.930 . S
H43 C56 0.930 . S
H44 C57 0.930 . S
H45 C61 0.959 . S
H46 C61 0.959 . S
H47 C61 0.961 . S
H48 C62 0.960 . S
H49 C62 0.961 . S
H50 C62 0.959 . S
H51 C65 0.929 . S
H52 C66 0.931 . S
H53 C68 0.930 . S
C54 H42 0.930 . S
C54 C55 1.399 . S
C54 C59 1.399 . S
C55 C54 1.399 . S
C55 C56 1.376 . S
C56 H43 0.930 . S
C56 C55 1.376 . S
C56 C57 1.388 . S
C57 H44 0.930 . S
C57 C56 1.388 . S
C57 C58 1.390 . S
C58 C57 1.390 . S
C58 C59 1.394 . S
C58 C64 1.465 1_556 S
C59 C54 1.399 . S
C59 C58 1.394 . S
C59 C60 1.516 . S
C60 C59 1.516 . S
C60 C61 1.502 . S
C60 C62 1.561 1_556 S
C60 C63 1.526 1_556 S
C61 H45 0.959 . S
C61 H46 0.959 . S
C61 H47 0.961 . S
C61 C60 1.502 . S
C62 H48 0.960 . S
C62 H49 0.961 . S
C62 H50 0.959 . S
C62 C60 1.561 1_554 S
C63 C60 1.526 1_554 S
C63 C64 1.396 . S
C63 C68 1.390 . S
C64 C58 1.465 1_554 S
C64 C63 1.396 . S
C64 C65 1.399 . S
C65 H51 0.929 . S
C65 C64 1.399 . S
C65 C66 1.385 . S
C66 H52 0.931 . S
C66 C65 1.385 . S
C66 C67 1.389 . S
C67 C66 1.389 . S
C67 C68 1.387 . S
C68 H53 0.930 . S
C68 C63 1.390 . S
C68 C67 1.387 . S
H69 C81 0.930 . S
H70 C83 0.930 . S
H71 C84 0.930 . S
H72 C88 0.959 . S
H73 C88 0.959 . S
H74 C88 0.961 . S
H75 C89 0.960 . S
H76 C89 0.961 . S
H77 C89 0.959 . S
H78 C92 0.929 . S
H79 C93 0.931 . S
H80 C95 0.930 . S
C81 H69 0.930 . S
C81 C82 1.399 . S
C81 C86 1.399 . S
C82 C81 1.399 . S
C82 C83 1.376 . S
C83 H70 0.930 . S
C83 C82 1.376 . S
C83 C84 1.388 . S
C84 H71 0.930 . S
C84 C83 1.388 . S
C84 C85 1.390 . S
C85 C84 1.390 . S
C85 C86 1.394 . S
C85 C91 1.465 . S
C86 C81 1.399 . S
C86 C85 1.394 . S
C86 C87 1.516 . S
C87 C86 1.516 . S
C87 C88 1.502 . S
C87 C89 1.561 . S
C87 C90 1.526 . S
C88 H72 0.959 . S
C88 H73 0.959 . S
C88 H74 0.961 . S
C88 C87 1.502 . S
C89 H75 0.960 . S
C89 H76 0.961 . S
C89 H77 0.959 . S
C89 C87 1.561 . S
C90 C87 1.526 . S
C90 C91 1.396 . S
C90 C95 1.390 . S
C91 C85 1.465 . S
C91 C90 1.396 . S
C91 C92 1.399 . S
C92 H78 0.929 . S
C92 C91 1.399 . S
C92 C93 1.385 . S
C93 H79 0.931 . S
C93 C92 1.385 . S
C93 C94 1.389 . S
C94 C93 1.389 . S
C94 C95 1.387 . S
C95 H80 0.930 . S
C95 C90 1.390 . S
C95 C94 1.387 . S
H96 C108 0.930 . S
H97 C110 0.930 . S
H98 C111 0.930 . S
H99 C115 0.959 . S
H100 C115 0.959 . S
H101 C115 0.961 . S
H102 C116 0.960 . S
H103 C116 0.961 . S
H104 C116 0.959 . S
H105 C119 0.929 . S
H106 C120 0.931 . S
H107 C122 0.930 . S
C108 H96 0.930 . S
C108 C109 1.399 . S
C108 C113 1.399 . S
C109 C108 1.399 . S
C109 C110 1.376 . S
C110 H97 0.930 . S
C110 C109 1.376 . S
C110 C111 1.388 . S
C111 H98 0.930 . S
C111 C110 1.388 . S
C111 C112 1.390 . S
C112 C111 1.390 . S
C112 C113 1.394 . S
C112 C118 1.465 . S
C113 C108 1.399 . S
C113 C112 1.394 . S
C113 C114 1.516 . S
C114 C113 1.516 . S
C114 C115 1.502 . S
C114 C116 1.561 . S
C114 C117 1.526 . S
C115 H99 0.959 . S
C115 H100 0.959 . S
C115 H101 0.961 . S
C115 C114 1.502 . S
C116 H102 0.960 . S
C116 H103 0.961 . S
C116 H104 0.959 . S
C116 C114 1.561 . S
C117 C114 1.526 . S
C117 C118 1.396 . S
C117 C122 1.390 . S
C118 C112 1.465 . S
C118 C117 1.396 . S
C118 C119 1.399 . S
C119 H105 0.929 . S
C119 C118 1.399 . S
C119 C120 1.385 . S
C120 H106 0.931 . S
C120 C119 1.385 . S
C120 C121 1.389 . S
C121 C120 1.389 . S
C121 C122 1.387 . S
C122 H107 0.930 . S
C122 C117 1.390 . S
C122 C121 1.387 . S
H123 C135 0.930 . S
H124 C137 0.930 . S
H125 C138 0.930 . S
H126 C142 0.959 . S
H127 C142 0.959 . S
H128 C142 0.961 . S
H129 C143 0.960 . S
H130 C143 0.961 . S
H131 C143 0.959 . S
H132 C146 0.929 . S
H133 C147 0.931 . S
H134 C149 0.930 . S
C135 H123 0.930 . S
C135 C136 1.399 . S
C135 C140 1.399 . S
C136 C135 1.399 . S
C136 C137 1.376 . S
C137 H124 0.930 . S
C137 C136 1.376 . S
C137 C138 1.388 . S
C138 H125 0.930 . S
C138 C137 1.388 . S
C138 C139 1.390 . S
C139 C138 1.390 . S
C139 C140 1.394 . S
C139 C145 1.465 1_556 S
C140 C135 1.399 . S
C140 C139 1.394 . S
C140 C141 1.517 1_556 S
C141 C140 1.517 1_554 S
C141 C142 1.501 . S
C141 C143 1.562 1_554 S
C141 C144 1.525 . S
C142 H126 0.959 . S
C142 H127 0.959 . S
C142 H128 0.961 . S
C142 C141 1.501 . S
C143 H129 0.960 . S
C143 H130 0.961 . S
C143 H131 0.959 . S
C143 C141 1.562 1_556 S
C144 C141 1.525 . S
C144 C145 1.396 . S
C144 C149 1.390 . S
C145 C139 1.465 1_554 S
C145 C144 1.396 . S
C145 C146 1.399 . S
C146 H132 0.929 . S
C146 C145 1.399 . S
C146 C147 1.385 . S
C147 H133 0.931 . S
C147 C146 1.385 . S
C147 C148 1.389 . S
C148 C147 1.389 . S
C148 C149 1.387 . S
C149 H134 0.930 . S
C149 C144 1.390 . S
C149 C148 1.387 . S
H150 C162 0.930 . S
H151 C164 0.930 . S
H152 C165 0.930 . S
H153 C169 0.959 . S
H154 C169 0.959 . S
H155 C169 0.961 . S
H156 C170 0.960 . S
H157 C170 0.961 . S
H158 C170 0.959 . S
H159 C173 0.929 . S
H160 C174 0.931 . S
H161 C176 0.930 . S
C162 H150 0.930 . S
C162 C163 1.399 . S
C162 C167 1.399 . S
C163 C162 1.399 . S
C163 C164 1.376 . S
C164 H151 0.930 . S
C164 C163 1.376 . S
C164 C165 1.388 . S
C165 H152 0.930 . S
C165 C164 1.388 . S
C165 C166 1.390 . S
C166 C165 1.390 . S
C166 C167 1.394 . S
C166 C172 1.465 . S
C167 C162 1.399 . S
C167 C166 1.394 . S
C167 C168 1.516 . S
C168 C167 1.516 . S
C168 C169 1.502 . S
C168 C170 1.561 . S
C168 C171 1.526 . S
C169 H153 0.959 . S
C169 H154 0.959 . S
C169 H155 0.961 . S
C169 C168 1.502 . S
C170 H156 0.960 . S
C170 H157 0.961 . S
C170 H158 0.959 . S
C170 C168 1.561 . S
C171 C168 1.526 . S
C171 C172 1.396 . S
C171 C176 1.390 . S
C172 C166 1.465 . S
C172 C171 1.396 . S
C172 C173 1.399 . S
C173 H159 0.929 . S
C173 C172 1.399 . S
C173 C174 1.385 . S
C174 H160 0.931 . S
C174 C173 1.385 . S
C174 C175 1.389 . S
C175 C174 1.389 . S
C175 C176 1.387 . S
C176 H161 0.930 . S
C176 C171 1.390 . S
C176 C175 1.387 . S
H177 C189 0.930 . S
H178 C191 0.930 . S
H179 C192 0.930 . S
H180 C196 0.959 . S
H181 C196 0.959 . S
H182 C196 0.961 . S
H183 C197 0.960 . S
H184 C197 0.961 . S
H185 C197 0.959 . S
H186 C200 0.929 . S
H187 C201 0.931 . S
H188 C203 0.930 . S
C189 H177 0.930 . S
C189 C190 1.399 . S
C189 C194 1.399 . S
C190 C189 1.399 . S
C190 C191 1.376 . S
C191 H178 0.930 . S
C191 C190 1.376 . S
C191 C192 1.388 . S
C192 H179 0.930 . S
C192 C191 1.388 . S
C192 C193 1.390 . S
C193 C192 1.390 . S
C193 C194 1.394 . S
C193 C199 1.465 . S
C194 C189 1.399 . S
C194 C193 1.394 . S
C194 C195 1.516 . S
C195 C194 1.516 . S
C195 C196 1.502 . S
C195 C197 1.561 . S
C195 C198 1.526 . S
C196 H180 0.959 . S
C196 H181 0.959 . S
C196 H182 0.961 . S
C196 C195 1.502 . S
C197 H183 0.960 . S
C197 H184 0.961 . S
C197 H185 0.959 . S
C197 C195 1.561 . S
C198 C195 1.526 . S
C198 C199 1.396 . S
C198 C203 1.390 . S
C199 C193 1.465 . S
C199 C198 1.396 . S
C199 C200 1.399 . S
C200 H186 0.929 . S
C200 C199 1.399 . S
C200 C201 1.385 . S
C201 H187 0.931 . S
C201 C200 1.385 . S
C201 C202 1.389 . S
C202 C201 1.389 . S
C202 C203 1.387 . S
C203 H188 0.930 . S
C203 C198 1.390 . S
C203 C202 1.387 . S
C55 C36 1.636 . S
C67 C9 1.651 . S
C82 C6 1.499 . S
C94 C22 1.550 . S
C109 C21 1.359 . S
C121 C34 1.336 . S
C136 C37 1.667 . S
C148 C8 1.687 . S
C163 C23 1.486 . S
C175 C7 1.555 . S
C190 C35 1.375 . S
C202 C20 1.391 . S
