# Generated by pormake.
# Topology pcu, (6)-cn, num edge types: 1
# Building blocks:
#     Node 0, Type 0, BuildingBlock: HISSIN_clean_sbu_0, # of connection points: 6
#     Edge 1, Type (0, 0), BuildingBlock: FUNLAD_clean_linker_1, # of connection points: 2
#     Edge 2, Type (0, 0), BuildingBlock: FUNLAD_clean_linker_1, # of connection points: 2
#     Edge 3, Type (0, 0), BuildingBlock: FUNLAD_clean_linker_1, # of connection points: 2
# Relax obj value: 0.000
# Max RMSD: 0.000
# Mean RMSD: 0.000
data_MOF--net-pcu--node1-HISSIN_clean_sbu_0--edge1-FUNLAD_clean_linker_1
_symmetry_space_group_name_H-M    P1
_symmetry_Int_Tables_number       1
_symmetry_cell_setting            triclinic
loop_
_symmetry_equiv_pos_as_xyz
'x, y, z'
_cell_length_a     15.795291
_cell_length_b     26.240437
_cell_length_c     15.752747
_cell_angle_alpha  123.22661
_cell_angle_beta   90.827079
_cell_angle_gamma 98.577512
loop_
_atom_site_label
_atom_site_type_symbol
_atom_site_fract_x
_atom_site_fract_y
_atom_site_fract_z
_atom_type_partial_charge
Eu0 Eu 0.97152 0.95304 0.94842 0.0
Eu1 Eu 0.03655 0.10539 0.05292 0.0
C2 C 0.17118 1.01407 0.99813 0.0
C3 C 0.94384 0.79272 0.90434 0.0
C4 C 0.0086 0.81221 0.98344 0.0
C5 C 0.91389 0.69099 0.87724 0.0
C6 C 0.02627 0.7711 0.00881 0.0
C7 C 0.89659 0.73203 0.85167 0.0
C8 C 0.97883 0.71018 0.95654 0.0
C9 C 0.92535 0.83497 0.87558 0.0
O10 O 0.98566 0.06523 0.89107 0.0
O11 O 0.99574 0.96263 0.81663 0.0
C12 C 0.98934 1.01 0.81082 0.0
O13 O 0.85357 0.98686 0.93246 0.0
O14 O 0.12068 0.18004 0.05514 0.0
O15 O 0.03003 0.20235 0.1667 0.0
O16 O 0.89357 0.09007 0.06244 0.0
C17 C 0.83455 0.04142 0.99816 0.0
O18 O 0.96305 1.00266 0.11716 0.0
O19 O 0.06544 0.0905 0.17722 0.0
O20 O 0.15165 0.05987 0.99483 0.0
O21 O 0.88157 0.87698 0.93637 0.0
O22 O 0.98932 0.85741 0.84678 0.0
O23 O 0.11259 0.97546 0.00401 0.0
C24 C 0.06043 0.26812 0.10789 0.0
C25 C 0.99266 0.24964 0.03249 0.0
C26 C 0.08504 0.37158 0.14172 0.0
C27 C 0.97126 0.29196 0.01179 0.0
C28 C 0.10615 0.32928 0.16256 0.0
C29 C 0.01786 0.35315 0.06515 0.0
C30 C 0.08573 0.22362 0.12791 0.0
C31 C 0.01707 0.05103 0.19106 0.0
H32 H 0.0457 0.85904 0.0251 0.0
H33 H 0.8776 0.64401 0.83304 0.0
H34 H 0.07693 0.78701 0.06971 0.0
H35 H 0.84669 0.71618 0.79003 0.0
H36 H 0.95678 0.20243 0.98927 0.0
H37 H 0.12075 0.41872 0.18676 0.0
H38 H 0.91892 0.27661 0.95294 0.0
H39 H 0.15845 0.34433 0.22127 0.0
H40 H 0.06988 0.10086 0.35317 0.0
C41 C 0.02439 0.06105 0.29261 0.0
H42 H 0.93398 0.98054 0.25046 0.0
H43 H 0.11033 0.96177 0.59398 0.0
H44 H 0.16104 0.87989 0.44352 0.0
H45 H 0.13268 0.86449 0.27579 0.0
H46 H 0.05506 0.93189 0.25834 0.0
C47 C 0.97764 1.02167 0.31103 0.0
C48 C 0.98981 0.02933 0.41117 0.0
C49 C 0.03217 0.98793 0.41911 0.0
C50 C 0.04522 0.99513 0.51485 0.0
C51 C 0.09396 0.95622 0.52217 0.0
C52 C 0.12454 0.90946 0.4365 0.0
C53 C 0.10882 0.90091 0.34216 0.0
C54 C 0.06388 0.93985 0.33323 0.0
H55 H 0.95787 0.95548 0.64321 0.0
C56 C 0.98583 1.00095 0.71015 0.0
H57 H 0.04832 0.09239 0.7679 0.0
H58 H 0.90424 0.11558 0.42079 0.0
H59 H 0.85281 0.19744 0.57089 0.0
H60 H 0.87191 0.20858 0.73631 0.0
H61 H 0.94219 0.13806 0.75261 0.0
C62 C 0.01905 0.04749 0.70043 0.0
C63 C 0.01143 0.04167 0.60111 0.0
C64 C 0.96987 0.08357 0.59324 0.0
C65 C 0.95906 0.07736 0.49806 0.0
C66 C 0.91572 0.1189 0.49165 0.0
C67 C 0.88535 0.16592 0.57712 0.0
C68 C 0.89605 0.17217 0.67021 0.0
C69 C 0.93707 0.13138 0.6785 0.0
H70 H 0.27634 0.96768 -0.00022 0.0
C71 C 0.2613 1.00503 0.9945 0.0
H72 H 0.30988 0.07694 0.9746 0.0
H73 H 0.66417 0.03052 0.13573 0.0
H74 H 0.60479 0.07204 0.29717 0.0
H75 H 0.45879 0.09682 0.31474 0.0
H76 H 0.37078 0.07905 0.17038 0.0
C77 C 0.32436 0.04092 0.98383 0.0
C78 C 0.41426 0.02955 0.97578 0.0
C79 C 0.46597 0.04246 0.0621 0.0
C80 C 0.55167 0.03098 0.05324 0.0
C81 C 0.60014 0.04096 0.13914 0.0
C82 C 0.56657 0.06435 0.23219 0.0
C83 C 0.48427 0.07808 0.24199 0.0
C84 C 0.43426 0.06734 0.15825 0.0
H85 H 0.73025 0.09536 0.05328 0.0
C86 C 0.74376 0.04896 0.00272 0.0
H87 H 0.69018 0.95397 0.89856 0.0
H88 H 0.33153 0.99848 0.7952 0.0
H89 H 0.39215 0.9594 0.63467 0.0
H90 H 0.54261 0.94332 0.62096 0.0
H91 H 0.63324 0.96588 0.7675 0.0
C92 C 0.67796 1.00055 0.9507 0.0
C93 C 0.58678 1.00937 0.95929 0.0
C94 C 0.5349 0.99628 0.873 0.0
C95 C 0.44852 1.00632 0.88124 0.0
C96 C 0.39788 0.99236 0.79356 0.0
C97 C 0.4318 0.9698 0.70085 0.0
C98 C 0.51648 0.96069 0.69311 0.0
C99 C 0.56776 0.97376 0.77788 0.0
H100 H 0.06589 0.67713 0.02003 0.0
C101 C 0.00113 0.66726 0.98365 0.0
H102 H 0.87927 0.60758 0.93367 0.0
H103 H 0.02054 0.37496 0.85756 0.0
H104 H 0.97522 0.34208 0.68465 0.0
H105 H 0.9277 0.41482 0.64955 0.0
H106 H 0.92559 0.52096 0.78727 0.0
C107 C 0.94484 0.61821 0.96815 0.0
C108 C 0.97117 0.57433 0.99122 0.0
C109 C 0.97041 0.51196 0.91001 0.0
C110 C 0.99649 0.46967 0.93043 0.0
C111 C 0.99869 0.40851 0.84716 0.0
C112 C 0.97353 0.38911 0.7472 0.0
C113 C 0.94686 0.43007 0.72743 0.0
C114 C 0.94568 0.49088 0.8074 0.0
H115 H 0.928 0.38703 0.00614 0.0
C116 C 0.99341 0.39678 0.04083 0.0
H117 H 0.11526 0.4563 0.08793 0.0
H118 H 0.9715 0.68866 0.16619 0.0
H119 H 0.01689 0.72154 0.33912 0.0
H120 H 0.06495 0.6489 0.37412 0.0
H121 H 0.06737 0.54282 0.23629 0.0
C122 C 0.04904 0.44582 0.05533 0.0
C123 C 0.02161 0.48949 0.03247 0.0
C124 C 0.02223 0.55182 0.11367 0.0
C125 C 0.99603 0.59408 0.09328 0.0
C126 C 0.99359 0.65517 0.17658 0.0
C127 C 0.01877 0.67456 0.27654 0.0
C128 C 0.04572 0.63365 0.29625 0.0
C129 C 0.04708 0.57289 0.21625 0.0
loop_
_geom_bond_atom_site_label_1
_geom_bond_atom_site_label_2
_geom_bond_distance
_geom_bond_site_symmetry_2
_ccdc_geom_bond_type
Eu0 C9 2.828 . S
Eu0 O11 2.392 . S
Eu0 O13 2.418 . S
Eu0 O18 2.373 1_556 S
Eu0 O21 2.488 . S
Eu0 O22 2.471 1_655 S
Eu0 O23 2.349 1_655 S
Eu1 O10 2.373 1_554 S
Eu1 O14 2.488 . S
Eu1 O15 2.471 1_455 S
Eu1 O16 2.349 1_455 S
Eu1 O19 2.392 . S
Eu1 O20 2.418 . S
Eu1 C30 2.828 . S
C2 O20 1.244 . S
C2 O23 1.265 1_544 S
C3 C4 1.379 1_656 S
C3 C7 1.373 . S
C3 C9 1.505 . S
C4 C3 1.379 1_454 S
C4 C6 1.369 . S
C4 H32 0.930 . S
C5 C7 1.383 . S
C5 C8 1.382 . S
C5 H33 0.930 . S
C6 C4 1.369 . S
C6 C8 1.392 1_454 S
C6 H34 0.930 . S
C7 C3 1.373 . S
C7 C5 1.383 . S
C7 H35 0.931 . S
C8 C5 1.382 . S
C8 C6 1.392 1_656 S
C9 Eu0 2.828 . S
C9 C3 1.505 . S
C9 O21 1.249 . S
C9 O22 1.244 1_655 S
O10 Eu1 2.373 1_556 S
O10 C12 1.258 1_545 S
O11 Eu0 2.392 . S
O11 C12 1.242 1_655 S
C12 O10 1.258 1_565 S
C12 O11 1.242 1_455 S
O13 Eu0 2.418 . S
O13 C17 1.244 . S
O14 Eu1 2.488 . S
O14 C30 1.249 . S
O15 Eu1 2.471 1_655 S
O15 C30 1.244 1_655 S
O16 Eu1 2.349 1_655 S
O16 C17 1.265 1_544 S
C17 O13 1.244 . S
C17 O16 1.265 1_566 S
O18 Eu0 2.373 1_554 S
O18 C31 1.258 1_665 S
O19 Eu1 2.392 . S
O19 C31 1.242 . S
O20 Eu1 2.418 . S
O20 C2 1.244 . S
O21 Eu0 2.488 . S
O21 C9 1.249 . S
O22 Eu0 2.471 1_455 S
O22 C9 1.244 1_455 S
O23 Eu0 2.349 1_455 S
O23 C2 1.265 1_566 S
C24 C25 1.379 1_454 S
C24 C28 1.373 . S
C24 C30 1.505 . S
C25 C24 1.379 1_656 S
C25 C27 1.369 . S
C25 H36 0.930 . S
C26 C28 1.383 . S
C26 C29 1.382 . S
C26 H37 0.930 . S
C27 C25 1.369 . S
C27 C29 1.392 1_656 S
C27 H38 0.930 . S
C28 C24 1.373 . S
C28 C26 1.383 . S
C28 H39 0.931 . S
C29 C26 1.382 . S
C29 C27 1.392 1_454 S
C30 Eu1 2.828 . S
C30 O14 1.249 . S
C30 O15 1.244 1_455 S
C30 C24 1.505 . S
C31 O18 1.258 1_445 S
C31 O19 1.242 . S
H32 C4 0.930 . S
H33 C5 0.930 . S
H34 C6 0.930 . S
H35 C7 0.931 . S
H36 C25 0.930 . S
H37 C26 0.930 . S
H38 C27 0.930 . S
H39 C28 0.931 . S
H40 C41 0.951 . S
C41 H40 0.951 . S
C41 C47 1.265 1_465 S
H42 C47 0.950 . S
H43 C51 0.949 . S
H44 C52 0.950 . S
H45 C53 0.951 . S
H46 C54 0.951 . S
C47 C41 1.265 1_645 S
C47 H42 0.950 . S
C47 C48 1.478 . S
C48 C47 1.478 . S
C48 C49 1.397 1_545 S
C48 C65 1.394 1_655 S
C49 C48 1.397 1_565 S
C49 C50 1.438 . S
C49 C54 1.429 . S
C50 C49 1.438 . S
C50 C51 1.428 . S
C50 C63 1.394 1_655 S
C51 H43 0.949 . S
C51 C50 1.428 . S
C51 C52 1.345 . S
C52 H44 0.950 . S
C52 C51 1.345 . S
C52 C53 1.424 . S
C53 H45 0.951 . S
C53 C52 1.424 . S
C53 C54 1.347 . S
C54 H46 0.951 . S
C54 C49 1.429 . S
C54 C53 1.347 . S
H55 C56 0.951 . S
C56 H55 0.951 . S
C56 C62 1.265 1_645 S
H57 C62 0.950 . S
H58 C66 0.949 . S
H59 C67 0.950 . S
H60 C68 0.951 . S
H61 C69 0.951 . S
C62 C56 1.265 1_465 S
C62 H57 0.950 . S
C62 C63 1.478 . S
C63 C50 1.394 1_455 S
C63 C62 1.478 . S
C63 C64 1.397 1_565 S
C64 C63 1.397 1_545 S
C64 C65 1.438 . S
C64 C69 1.429 . S
C65 C48 1.394 1_455 S
C65 C64 1.438 . S
C65 C66 1.428 . S
C66 H58 0.949 . S
C66 C65 1.428 . S
C66 C67 1.345 . S
C67 H59 0.950 . S
C67 C66 1.345 . S
C67 C68 1.424 . S
C68 H60 0.951 . S
C68 C67 1.424 . S
C68 C69 1.347 . S
C69 H61 0.951 . S
C69 C64 1.429 . S
C69 C68 1.347 . S
H70 C71 0.951 . S
C71 H70 0.951 . S
C71 C77 1.265 1_566 S
H72 C77 0.950 . S
H73 C81 0.949 . S
H74 C82 0.950 . S
H75 C83 0.951 . S
H76 C84 0.951 . S
C77 C71 1.265 1_544 S
C77 H72 0.950 . S
C77 C78 1.478 . S
C78 C77 1.478 . S
C78 C79 1.397 . S
C78 C95 1.394 1_544 S
C79 C78 1.397 . S
C79 C80 1.438 . S
C79 C84 1.429 . S
C80 C79 1.438 . S
C80 C81 1.428 . S
C80 C93 1.394 1_544 S
C81 H73 0.949 . S
C81 C80 1.428 . S
C81 C82 1.345 . S
C82 H74 0.950 . S
C82 C81 1.345 . S
C82 C83 1.424 . S
C83 H75 0.951 . S
C83 C82 1.424 . S
C83 C84 1.347 . S
C84 H76 0.951 . S
C84 C79 1.429 . S
C84 C83 1.347 . S
H85 C86 0.949 . S
C86 H85 0.949 . S
C86 C92 1.266 1_544 S
H87 C92 0.950 . S
H88 C96 0.949 . S
H89 C97 0.950 . S
H90 C98 0.951 . S
H91 C99 0.951 . S
C92 C86 1.266 1_566 S
C92 H87 0.950 . S
C92 C93 1.478 . S
C93 C80 1.394 1_566 S
C93 C92 1.478 . S
C93 C94 1.397 . S
C94 C93 1.397 . S
C94 C95 1.438 . S
C94 C99 1.429 . S
C95 C78 1.394 1_566 S
C95 C94 1.438 . S
C95 C96 1.428 . S
C96 H88 0.949 . S
C96 C95 1.428 . S
C96 C97 1.345 . S
C97 H89 0.950 . S
C97 C96 1.345 . S
C97 C98 1.424 . S
C98 H90 0.951 . S
C98 C97 1.424 . S
C98 C99 1.347 . S
C99 H91 0.951 . S
C99 C94 1.429 . S
C99 C98 1.347 . S
H100 C101 0.951 . S
C101 H100 0.951 . S
C101 C107 1.265 1_454 S
H102 C107 0.950 . S
H103 C111 0.949 . S
H104 C112 0.950 . S
H105 C113 0.951 . S
H106 C114 0.951 . S
C107 C101 1.265 1_656 S
C107 H102 0.950 . S
C107 C108 1.478 . S
C108 C107 1.478 . S
C108 C109 1.397 . S
C108 C125 1.394 1_656 S
C109 C108 1.397 . S
C109 C110 1.438 . S
C109 C114 1.429 . S
C110 C109 1.438 . S
C110 C111 1.428 . S
C110 C123 1.394 1_656 S
C111 H103 0.949 . S
C111 C110 1.428 . S
C111 C112 1.345 . S
C112 H104 0.950 . S
C112 C111 1.345 . S
C112 C113 1.424 . S
C113 H105 0.951 . S
C113 C112 1.424 . S
C113 C114 1.347 . S
C114 H106 0.951 . S
C114 C109 1.429 . S
C114 C113 1.347 . S
H115 C116 0.953 . S
C116 H115 0.953 . S
C116 C122 1.271 1_656 S
H117 C122 0.950 . S
H118 C126 0.949 . S
H119 C127 0.950 . S
H120 C128 0.951 . S
H121 C129 0.951 . S
C122 C116 1.271 1_454 S
C122 H117 0.950 . S
C122 C123 1.478 . S
C123 C110 1.394 1_454 S
C123 C122 1.478 . S
C123 C124 1.397 . S
C124 C123 1.397 . S
C124 C125 1.438 . S
C124 C129 1.429 . S
C125 C108 1.394 1_454 S
C125 C124 1.438 . S
C125 C126 1.428 . S
C126 H118 0.949 . S
C126 C125 1.428 . S
C126 C127 1.345 . S
C127 H119 0.950 . S
C127 C126 1.345 . S
C127 C128 1.424 . S
C128 H120 0.951 . S
C128 C127 1.424 . S
C128 C129 1.347 . S
C129 H121 0.951 . S
C129 C124 1.429 . S
C129 C128 1.347 . S
C41 C31 1.491 1_565 S
C56 C12 1.491 1_645 S
C71 C2 1.488 1_566 S
C86 C17 1.488 1_544 S
C101 C8 1.489 1_454 S
C116 C29 1.480 1_656 S
