# Generated by pormake.
# Topology cdl, (4)-cn, num edge types: 1
# Building blocks:
#     Node 0, Type 0, BuildingBlock: MUDLON_clean_sbu_0, # of connection points: 4
#     Node 1, Type 0, BuildingBlock: MUDLON_clean_sbu_0, # of connection points: 4
#     Node 2, Type 0, BuildingBlock: MUDLON_clean_sbu_0, # of connection points: 4
#     Node 3, Type 0, BuildingBlock: MUDLON_clean_sbu_0, # of connection points: 4
#     Edge 4, Type (0, 0), None
#     Edge 5, Type (0, 0), None
#     Edge 6, Type (0, 0), None
#     Edge 7, Type (0, 0), None
#     Edge 8, Type (0, 0), None
#     Edge 9, Type (0, 0), None
#     Edge 10, Type (0, 0), None
#     Edge 11, Type (0, 0), None
# Relax obj value: 0.001
# Max RMSD: 0.021
# Mean RMSD: 0.019
data_MOF--net-cdl--node1-MUDLON_clean_sbu_0--edge1-none
_symmetry_space_group_name_H-M    P1
_symmetry_Int_Tables_number       1
_symmetry_cell_setting            triclinic
loop_
_symmetry_equiv_pos_as_xyz
'x, y, z'
_cell_length_a     6.2874349
_cell_length_b     6.9197213
_cell_length_c     26.208624
_cell_angle_alpha  90.496085
_cell_angle_beta   89.656017
_cell_angle_gamma 90.445523
loop_
_atom_site_label
_atom_site_type_symbol
_atom_site_fract_x
_atom_site_fract_y
_atom_site_fract_z
_atom_type_partial_charge
Mg0 Mg 0.32706 0.29498 0.19453 0.0
C1 C 0.59132 0.68714 0.18046 0.0
O2 O 0.69939 0.59057 0.14581 0.0
C3 C 0.59428 0.90259 0.17894 0.0
O4 O 0.69652 0.9891 0.14168 0.0
C5 C 0.31226 0.2918 0.07917 0.0
O6 O 0.51908 0.29241 0.0854 0.0
O7 O 0.19052 0.29256 0.11809 0.0
O8 O 0.45354 0.59734 0.20763 0.0
O9 O 1.06687 0.25928 0.24861 0.0
C10 C 0.10831 0.28119 0.29573 0.0
O11 O 0.29207 0.35775 0.30874 0.0
O12 O 0.46526 0.99976 0.20661 0.0
Mg13 Mg 1.00364 0.83241 0.6914 0.0
C14 C 0.37814 0.65254 0.74548 0.0
O15 O 0.27557 0.70886 0.78672 0.0
C16 C 0.61055 0.65335 0.74521 0.0
O17 O 0.71536 0.6835 0.78777 0.0
C18 C 1.00719 0.75807 0.58336 0.0
O19 O 0.99903 0.5891 0.60578 0.0
O20 O 1.01164 0.9099 0.61099 0.0
O21 O 0.28793 0.66298 0.70239 0.0
O22 O 1.03879 0.07273 0.74488 0.0
C23 C 0.88773 0.14622 0.7708 0.0
O24 O 0.69032 0.09671 0.76073 0.0
O25 O 0.7002 0.6862 0.70262 0.0
Mg26 Mg 0.90901 0.27454 0.93741 0.0
C27 C 0.08176 0.67166 0.92185 0.0
O28 O 0.25166 0.57162 0.90989 0.0
C29 C 0.08428 0.87822 0.92341 0.0
O30 O 0.24877 0.9792 0.90737 0.0
C31 C 0.93911 0.24122 0.81951 0.0
O32 O 0.13922 0.27308 0.83117 0.0
O33 O 0.79891 0.2487 0.8546 0.0
O34 O 0.90954 0.58882 0.93404 0.0
O35 O 1.02561 0.29144 1.01992 0.0
C36 C 0.22502 0.28704 1.02736 0.0
O37 O 0.35479 0.27589 0.98803 0.0
O38 O 0.91848 0.96007 0.93983 0.0
Mg39 Mg 1.01883 0.88295 0.41946 0.0
C40 C 0.40312 0.58822 0.40781 0.0
O41 O 0.30232 0.45482 0.43397 0.0
C42 C 0.63451 0.59331 0.40561 0.0
O43 O 0.7469 0.45675 0.42666 0.0
C44 C 0.98936 0.16587 0.3333 0.0
O45 O 0.8515 0.03623 0.31698 0.0
O46 O 1.06305 0.15158 0.3782 0.0
O47 O 0.31333 0.74596 0.39715 0.0
O48 O 1.0174 0.92102 0.50265 0.0
C49 C 1.01038 0.7638 0.52738 0.0
O50 O 1.00525 0.59984 0.50204 0.0
O51 O 0.7167 0.75774 0.39652 0.0
loop_
_geom_bond_atom_site_label_1
_geom_bond_atom_site_label_2
_geom_bond_distance
_geom_bond_site_symmetry_2
_ccdc_geom_bond_type
Mg0 O7 2.141 1_545 S
Mg0 O8 2.048 . S
Mg0 O9 2.048 1_545 S
Mg0 O12 2.141 1_545 S
C1 O2 1.313 . S
C1 O8 1.195 1_455 S
O2 C1 1.313 . S
C3 O4 1.245 . S
C3 O12 1.289 1_455 S
O4 C3 1.245 . S
C5 O6 1.245 . S
C5 O7 1.289 1_445 S
O6 C5 1.245 . S
O7 Mg0 2.141 1_565 S
O7 C5 1.289 1_665 S
O8 Mg0 2.048 . S
O8 C1 1.195 1_655 S
O9 Mg0 2.048 1_565 S
O9 C10 1.195 1_665 S
C10 O9 1.195 1_445 S
C10 O11 1.313 . S
O11 C10 1.313 . S
O12 Mg0 2.141 1_565 S
O12 C3 1.289 1_655 S
Mg13 O20 2.141 1_455 S
Mg13 O21 2.048 . S
Mg13 O22 2.048 1_455 S
Mg13 O25 2.141 1_455 S
C14 O15 1.313 1_545 S
C14 O21 1.195 . S
O15 C14 1.313 1_565 S
C16 O17 1.245 1_545 S
C16 O25 1.289 . S
O17 C16 1.245 1_565 S
C18 O19 1.245 1_545 S
C18 O20 1.289 1_455 S
O19 C18 1.245 1_565 S
O20 Mg13 2.141 1_655 S
O20 C18 1.289 1_655 S
O21 Mg13 2.048 . S
O21 C14 1.195 . S
O22 Mg13 2.048 1_655 S
O22 C23 1.195 1_655 S
C23 O22 1.195 1_455 S
C23 O24 1.313 1_545 S
O24 C23 1.313 1_565 S
O25 Mg13 2.141 1_655 S
O25 C16 1.289 . S
Mg26 O33 2.141 . S
Mg26 O34 2.048 . S
Mg26 O35 2.048 1_545 S
Mg26 O38 2.141 1_545 S
C27 O28 1.313 . S
C27 O34 1.195 1_455 S
O28 C27 1.313 . S
C29 O30 1.245 . S
C29 O38 1.289 1_455 S
O30 C29 1.245 . S
C31 O32 1.245 . S
C31 O33 1.289 1_455 S
O32 C31 1.245 . S
O33 Mg26 2.141 . S
O33 C31 1.289 1_655 S
O34 Mg26 2.048 . S
O34 C27 1.195 1_655 S
O35 Mg26 2.048 1_565 S
O35 C36 1.195 1_665 S
C36 O35 1.195 1_445 S
C36 O37 1.313 . S
O37 C36 1.313 . S
O38 Mg26 2.141 1_565 S
O38 C29 1.289 1_655 S
Mg39 O46 2.141 . S
Mg39 O47 2.048 . S
Mg39 O48 2.048 . S
Mg39 O51 2.141 1_455 S
C40 O41 1.313 . S
C40 O47 1.195 1_565 S
O41 C40 1.313 . S
C42 O43 1.245 . S
C42 O51 1.289 1_565 S
O43 C42 1.245 . S
C44 O45 1.245 . S
C44 O46 1.289 1_565 S
O45 C44 1.245 . S
O46 Mg39 2.141 . S
O46 C44 1.289 1_545 S
O47 Mg39 2.048 . S
O47 C40 1.195 1_545 S
O48 Mg39 2.048 . S
O48 C49 1.195 . S
C49 O48 1.195 . S
C49 O50 1.313 1_545 S
O50 C49 1.313 1_565 S
O51 Mg39 2.141 1_655 S
O51 C42 1.289 1_545 S
C1 C3 1.467 . S
C14 C16 1.467 . S
C27 C29 1.470 . S
C40 C42 1.470 . S
C36 C5 1.481 1_556 S
C49 C18 1.467 . S
C44 C10 1.514 1_565 S
C23 C31 1.464 . S
