# Generated by pormake.
# Topology pcu, (6)-cn, num edge types: 1
# Building blocks:
#     Node 0, Type 0, BuildingBlock: KUMBUR_clean_sbu_0, # of connection points: 6
#     Edge 1, Type (0, 0), BuildingBlock: OJICUG_clean_linker_0, # of connection points: 2
#     Edge 2, Type (0, 0), BuildingBlock: OJICUG_clean_linker_0, # of connection points: 2
#     Edge 3, Type (0, 0), BuildingBlock: OJICUG_clean_linker_0, # of connection points: 2
# Relax obj value: 0.000
# Max RMSD: 0.000
# Mean RMSD: 0.000
data_MOF--net-pcu--node1-KUMBUR_clean_sbu_0--edge1-OJICUG_clean_linker_0
_symmetry_space_group_name_H-M    P1
_symmetry_Int_Tables_number       1
_symmetry_cell_setting            triclinic
loop_
_symmetry_equiv_pos_as_xyz
'x, y, z'
_cell_length_a     9.8152281
_cell_length_b     20.288995
_cell_length_c     11.02855
_cell_angle_alpha  115.36154
_cell_angle_beta   76.167152
_cell_angle_gamma 113.13897
loop_
_atom_site_label
_atom_site_type_symbol
_atom_site_fract_x
_atom_site_fract_y
_atom_site_fract_z
_atom_type_partial_charge
Tb0 Tb 0.12928 0.10026 0.05779 0.0
C1 C 0.72111 0.78106 0.72362 0.0
C2 C 0.4751 0.77456 0.83576 0.0
C3 C 0.50507 0.7049 0.5941 0.0
C4 C 0.63077 0.80271 0.83932 0.0
C5 C 0.65975 0.73077 0.59976 0.0
C6 C 0.41279 0.72688 0.71203 0.0
C7 C 0.90764 0.73183 0.49923 0.0
N8 N 0.86958 0.80754 0.73375 0.0
C9 C 0.96294 0.7815 0.62466 0.0
C10 C 0.75553 0.70697 0.48628 0.0
Tb11 Tb 0.95038 0.89112 0.94206 0.0
N12 N 0.69547 0.84858 0.95655 0.0
C13 C 0.60923 0.86341 0.07608 0.0
C14 C 0.38694 0.79375 0.95698 0.0
C15 C 0.45411 0.83714 0.07793 0.0
H16 H 0.08079 0.80077 0.63327 0.0
H17 H 0.38663 0.85103 0.17255 0.0
H18 H 0.29342 0.70534 0.70702 0.0
H19 H 0.98244 0.71289 0.41265 0.0
H20 H 0.65922 0.89752 0.17045 0.0
H21 H 0.69294 0.14039 0.82701 0.0
H22 H 0.26727 0.77419 0.95839 0.0
H23 H 0.99905 0.19056 0.36672 0.0
H24 H 0.42035 0.09391 0.82924 0.0
H25 H 0.09753 0.27837 0.5873 0.0
H26 H 0.4556 0.66676 0.49972 0.0
H27 H 0.81242 0.21715 0.04111 0.0
H28 H 0.78642 0.28596 0.2925 0.0
H29 H 0.71301 0.66841 0.38907 0.0
H30 H 0.62435 0.32449 0.4999 0.0
N31 N 0.3842 0.14282 0.04316 0.0
C32 C 0.47039 0.12801 0.92359 0.0
C33 C 0.69275 0.19762 0.04258 0.0
C34 C 0.60466 0.21679 0.16385 0.0
C35 C 0.62551 0.15426 0.92167 0.0
C36 C 0.44898 0.18865 0.16037 0.0
H37 H 0.367 0.32283 0.61071 0.0
N38 N 0.21021 0.18378 0.26609 0.0
C39 C 0.17228 0.25945 0.50066 0.0
C40 C 0.3587 0.21026 0.27613 0.0
C41 C 0.1169 0.20981 0.37525 0.0
C42 C 0.32442 0.2843 0.51352 0.0
C43 C 0.42013 0.26052 0.39997 0.0
O44 O 0.04213 0.18779 0.09733 0.0
O45 O 0.93083 0.0026 0.99869 0.0
O46 O 0.95402 0.92647 0.78003 0.0
O47 O 0.15076 0.04339 0.83542 0.0
O48 O 0.90245 0.10048 0.14471 0.0
O49 O 0.2095 0.16435 0.93304 0.0
O50 O 1.03745 0.80359 0.90266 0.0
O51 O 0.14872 0.98876 0.00087 0.0
O52 O 0.1258 0.06486 0.21968 0.0
O53 O 0.9289 0.94802 0.1644 0.0
O54 O 0.17732 0.89085 0.85541 0.0
O55 O 0.87007 0.82709 0.06692 0.0
C56 C 0.83215 0.03081 0.07146 0.0
C57 C 0.20212 0.29202 0.03419 0.0
C58 C 0.19609 0.41309 0.04251 0.0
C59 C 0.13168 0.33286 0.00991 0.0
C60 C 0.33414 0.45187 0.09838 0.0
C61 C 0.33958 0.33152 0.09002 0.0
C62 C 0.40535 0.41113 0.12146 0.0
C63 C 0.05364 0.98547 0.75054 0.0
C64 C 0.12847 0.20854 0.00102 0.0
C65 C 0.57483 0.28638 0.40554 0.0
C66 C 0.66704 0.26443 0.28755 0.0
C67 C 0.24757 0.96058 0.92845 0.0
C68 C 0.8774 0.69941 0.96589 0.0
C69 C 0.94789 0.65857 0.99011 0.0
C70 C 0.88347 0.57834 0.95756 0.0
C71 C 0.74537 0.53956 0.90178 0.0
C72 C 0.73988 0.65991 0.91016 0.0
C73 C 0.67411 0.58031 0.87875 0.0
C74 C 1.02616 0.00587 0.2492 0.0
C75 C 0.95107 0.78288 0.999 0.0
H76 H 1.02524 0.30215 0.9673 0.0
H77 H 0.38775 0.51346 0.12292 0.0
H78 H 0.39601 0.30105 0.10897 0.0
H79 H 0.51179 0.44139 0.16401 0.0
H80 H 0.05438 0.68928 0.03265 0.0
H81 H 0.69176 0.47797 0.87727 0.0
H82 H 0.68342 0.69038 0.89125 0.0
H83 H 0.56764 0.55004 0.83627 0.0
C84 C 0.14622 0.05515 0.46226 0.0
C85 C 1.03045 0.00186 0.3793 0.0
H86 H 0.24595 0.09129 0.64272 0.0
C87 C 0.92436 0.94225 0.41834 0.0
H88 H 0.23126 0.10121 0.43473 0.0
C89 C 0.93364 0.93617 0.53744 0.0
C90 C 0.0494 0.98946 0.62041 0.0
H91 H 0.8339 0.90003 0.35699 0.0
H92 H 0.8486 0.8901 0.56498 0.0
C93 C 0.15549 0.04907 0.58137 0.0
C94 C 0.50945 0.96201 0.86495 0.0
C95 C 0.39804 0.98106 0.96591 0.0
H96 H 0.73506 0.96513 0.81812 0.0
C97 C 0.42909 0.01371 0.10142 0.0
H98 H 0.48782 0.93586 0.75978 0.0
C99 C 0.57031 0.02952 0.13504 0.0
C100 C 0.68171 0.01047 0.03407 0.0
H101 H 0.34466 0.02635 0.18187 0.0
H102 H 0.59192 0.05565 0.24022 0.0
C103 C 0.65065 0.97781 0.89857 0.0
C104 C 1.03557 0.56723 0.09739 0.0
C105 C 0.96196 0.53552 0.98006 0.0
H106 H 0.16586 0.55338 0.20962 0.0
C107 C 0.96703 0.4635 0.88295 0.0
H108 H 1.03221 0.62211 0.17495 0.0
C109 C 0.04403 0.42422 0.90265 0.0
C110 C 0.11763 0.45593 0.01999 0.0
H111 H 0.91372 0.43807 0.79043 0.0
H112 H 0.04739 0.36933 0.82508 0.0
C113 C 0.11257 0.52794 0.11709 0.0
loop_
_geom_bond_atom_site_label_1
_geom_bond_atom_site_label_2
_geom_bond_distance
_geom_bond_site_symmetry_2
_ccdc_geom_bond_type
Tb0 N31 2.660 1_554 S
Tb0 N38 2.600 . S
Tb0 O44 2.546 . S
Tb0 O45 2.610 1_444 S
Tb0 O47 2.320 1_554 S
Tb0 O48 2.552 1_455 S
Tb0 O49 2.413 . S
Tb0 O51 2.362 . S
Tb0 O52 2.421 1_455 S
Tb0 C64 2.833 . S
C1 C4 1.432 . S
C1 C5 1.414 . S
C1 N8 1.359 . S
C2 C4 1.417 . S
C2 C6 1.432 . S
C2 C14 1.410 1_556 S
C3 C5 1.444 . S
C3 C6 1.317 . S
C3 H26 0.929 . S
C4 C1 1.432 . S
C4 C2 1.417 . S
C4 N12 1.360 1_556 S
C5 C1 1.414 . S
C5 C3 1.444 . S
C5 C10 1.385 . S
C6 C2 1.432 . S
C6 C3 1.317 . S
C6 H18 0.930 . S
C7 C9 1.392 . S
C7 C10 1.370 . S
C7 H19 0.931 . S
N8 C1 1.359 . S
N8 C9 1.327 . S
N8 Tb11 2.600 . S
C9 C7 1.392 . S
C9 N8 1.327 . S
C9 H16 0.930 . S
C10 C5 1.385 . S
C10 C7 1.370 . S
C10 H29 0.930 . S
Tb11 N8 2.600 . S
Tb11 N12 2.660 1_556 S
Tb11 O45 2.362 . S
Tb11 O46 2.421 1_655 S
Tb11 O50 2.546 . S
Tb11 O51 2.610 1_666 S
Tb11 O53 2.320 1_556 S
Tb11 O54 2.552 1_655 S
Tb11 O55 2.413 . S
Tb11 C75 2.833 . S
N12 C4 1.360 1_554 S
N12 Tb11 2.660 1_554 S
N12 C13 1.305 . S
C13 N12 1.305 . S
C13 C15 1.407 . S
C13 H20 0.930 . S
C14 C2 1.410 1_554 S
C14 C15 1.345 . S
C14 H22 0.930 . S
C15 C13 1.407 . S
C15 C14 1.345 . S
C15 H17 0.930 . S
H16 C9 0.930 . S
H17 C15 0.930 . S
H18 C6 0.930 . S
H19 C7 0.931 . S
H20 C13 0.930 . S
H21 C35 0.930 . S
H22 C14 0.930 . S
H23 C41 0.930 . S
H24 C32 0.930 . S
H25 C39 0.931 . S
H26 C3 0.929 . S
H27 C33 0.930 . S
H28 C66 0.930 . S
H29 C10 0.930 . S
H30 C65 0.929 . S
N31 Tb0 2.660 1_556 S
N31 C32 1.305 . S
N31 C36 1.360 1_556 S
C32 H24 0.930 . S
C32 N31 1.305 . S
C32 C35 1.407 . S
C33 H27 0.930 . S
C33 C34 1.410 1_556 S
C33 C35 1.345 . S
C34 C33 1.410 1_554 S
C34 C36 1.417 . S
C34 C66 1.432 . S
C35 H21 0.930 . S
C35 C32 1.407 . S
C35 C33 1.345 . S
C36 N31 1.360 1_554 S
C36 C34 1.417 . S
C36 C40 1.432 . S
H37 C42 0.930 . S
N38 Tb0 2.600 . S
N38 C40 1.359 . S
N38 C41 1.327 . S
C39 H25 0.931 . S
C39 C41 1.392 . S
C39 C42 1.370 . S
C40 C36 1.432 . S
C40 N38 1.359 . S
C40 C43 1.414 . S
C41 H23 0.930 . S
C41 N38 1.327 . S
C41 C39 1.392 . S
C42 H37 0.930 . S
C42 C39 1.370 . S
C42 C43 1.385 . S
C43 C40 1.414 . S
C43 C42 1.385 . S
C43 C65 1.444 . S
O44 Tb0 2.546 . S
O44 C64 1.251 . S
O45 Tb0 2.610 1_666 S
O45 Tb11 2.362 . S
O45 C56 1.283 1_566 S
O46 Tb11 2.421 1_455 S
O46 C63 1.262 . S
O47 Tb0 2.320 1_556 S
O47 C63 1.260 1_545 S
O48 Tb0 2.552 1_655 S
O48 C56 1.243 . S
O49 Tb0 2.413 . S
O49 C64 1.256 . S
O50 Tb11 2.546 . S
O50 C75 1.251 . S
O51 Tb0 2.362 . S
O51 Tb11 2.610 1_444 S
O51 C67 1.283 1_544 S
O52 Tb0 2.421 1_655 S
O52 C74 1.262 . S
O53 Tb11 2.320 1_554 S
O53 C74 1.260 1_565 S
O54 Tb11 2.552 1_455 S
O54 C67 1.243 . S
O55 Tb11 2.413 . S
O55 C75 1.256 . S
C56 O45 1.283 1_544 S
C56 O48 1.243 . S
C57 C59 1.382 . S
C57 C61 1.393 . S
C57 C64 1.500 . S
C58 C59 1.400 . S
C58 C60 1.384 . S
C59 C57 1.382 . S
C59 C58 1.400 . S
C59 H76 0.930 1_554 S
C60 C58 1.384 . S
C60 C62 1.392 . S
C60 H77 0.931 . S
C61 C57 1.393 . S
C61 C62 1.401 . S
C61 H78 0.930 . S
C62 C60 1.392 . S
C62 C61 1.401 . S
C62 H79 0.930 . S
C63 O46 1.262 . S
C63 O47 1.260 1_565 S
C64 Tb0 2.833 . S
C64 O44 1.251 . S
C64 O49 1.256 . S
C64 C57 1.500 . S
C65 H30 0.929 . S
C65 C43 1.444 . S
C65 C66 1.317 . S
C66 H28 0.930 . S
C66 C34 1.432 . S
C66 C65 1.317 . S
C67 O51 1.283 1_566 S
C67 O54 1.243 . S
C68 C69 1.382 . S
C68 C72 1.393 . S
C68 C75 1.500 . S
C69 C68 1.382 . S
C69 C70 1.400 . S
C69 H80 0.930 1_556 S
C70 C69 1.400 . S
C70 C71 1.384 . S
C71 C70 1.384 . S
C71 C73 1.392 . S
C71 H81 0.931 . S
C72 C68 1.393 . S
C72 C73 1.401 . S
C72 H82 0.930 . S
C73 C71 1.392 . S
C73 C72 1.401 . S
C73 H83 0.930 . S
C74 O52 1.262 . S
C74 O53 1.260 1_545 S
C75 Tb11 2.833 . S
C75 O50 1.251 . S
C75 O55 1.256 . S
C75 C68 1.500 . S
H76 C59 0.930 1_556 S
H77 C60 0.931 . S
H78 C61 0.930 . S
H79 C62 0.930 . S
H80 C69 0.930 1_554 S
H81 C71 0.931 . S
H82 C72 0.930 . S
H83 C73 0.930 . S
C84 C85 1.389 1_545 S
C84 H88 0.950 . S
C84 C93 1.390 . S
C85 C84 1.389 1_565 S
C85 C87 1.387 1_455 S
H86 C93 0.950 . S
C87 C85 1.387 1_655 S
C87 C89 1.390 . S
C87 H91 0.950 . S
H88 C84 0.950 . S
C89 C87 1.390 . S
C89 C90 1.387 1_565 S
C89 H92 0.950 . S
C90 C89 1.387 1_545 S
C90 C93 1.390 1_655 S
H91 C87 0.950 . S
H92 C89 0.950 . S
C93 C84 1.390 . S
C93 H86 0.950 . S
C93 C90 1.390 1_455 S
C94 C95 1.388 1_556 S
C94 H98 0.950 . S
C94 C103 1.390 . S
C95 C94 1.388 1_554 S
C95 C97 1.388 1_565 S
H96 C103 0.950 . S
C97 C95 1.388 1_545 S
C97 C99 1.390 . S
C97 H101 0.950 . S
H98 C94 0.950 . S
C99 C97 1.390 . S
C99 C100 1.389 . S
C99 H102 0.950 . S
C100 C99 1.389 . S
C100 C103 1.389 1_544 S
H101 C97 0.950 . S
H102 C99 0.950 . S
C103 C94 1.390 . S
C103 H96 0.950 . S
C103 C100 1.389 1_566 S
C104 C105 1.389 1_655 S
C104 H108 0.950 . S
C104 C113 1.390 . S
C105 C104 1.389 1_455 S
C105 C107 1.389 1_554 S
H106 C113 0.950 . S
C107 C105 1.389 1_556 S
C107 C109 1.390 . S
C107 H111 0.950 . S
H108 C104 0.950 . S
C109 C107 1.390 . S
C109 C110 1.389 1_456 S
C109 H112 0.950 . S
C110 C109 1.389 1_654 S
C110 C113 1.389 . S
H111 C107 0.950 . S
H112 C109 0.950 . S
C113 C104 1.390 . S
C113 H106 0.950 . S
C113 C110 1.389 . S
C85 C74 1.472 1_465 S
C90 C63 1.470 1_645 S
C95 C67 1.433 1_554 S
C100 C56 1.432 . S
C105 C70 1.318 1_454 S
C110 C58 1.319 1_655 S
