# Generated by pormake.
# Topology wfa, (4)-cn, num edge types: 1
# Building blocks:
#     Node 0, Type 0, BuildingBlock: NAWXER_clean_sbu_0, # of connection points: 4
#     Node 1, Type 0, BuildingBlock: NAWXER_clean_sbu_0, # of connection points: 4
#     Node 2, Type 0, BuildingBlock: NAWXER_clean_sbu_0, # of connection points: 4
#     Node 3, Type 0, BuildingBlock: NAWXER_clean_sbu_0, # of connection points: 4
#     Node 4, Type 0, BuildingBlock: NAWXER_clean_sbu_0, # of connection points: 4
#     Node 5, Type 0, BuildingBlock: NAWXER_clean_sbu_0, # of connection points: 4
#     Node 6, Type 0, BuildingBlock: NAWXER_clean_sbu_0, # of connection points: 4
#     Node 7, Type 0, BuildingBlock: NAWXER_clean_sbu_0, # of connection points: 4
#     Node 8, Type 0, BuildingBlock: NAWXER_clean_sbu_0, # of connection points: 4
#     Node 9, Type 0, BuildingBlock: NAWXER_clean_sbu_0, # of connection points: 4
#     Node 10, Type 0, BuildingBlock: NAWXER_clean_sbu_0, # of connection points: 4
#     Node 11, Type 0, BuildingBlock: NAWXER_clean_sbu_0, # of connection points: 4
#     Node 12, Type 0, BuildingBlock: NAWXER_clean_sbu_0, # of connection points: 4
#     Node 13, Type 0, BuildingBlock: NAWXER_clean_sbu_0, # of connection points: 4
#     Node 14, Type 0, BuildingBlock: NAWXER_clean_sbu_0, # of connection points: 4
#     Node 15, Type 0, BuildingBlock: NAWXER_clean_sbu_0, # of connection points: 4
#     Edge 16, Type (0, 0), None
#     Edge 17, Type (0, 0), None
#     Edge 18, Type (0, 0), None
#     Edge 19, Type (0, 0), None
#     Edge 20, Type (0, 0), None
#     Edge 21, Type (0, 0), None
#     Edge 22, Type (0, 0), None
#     Edge 23, Type (0, 0), None
#     Edge 24, Type (0, 0), None
#     Edge 25, Type (0, 0), None
#     Edge 26, Type (0, 0), None
#     Edge 27, Type (0, 0), None
#     Edge 28, Type (0, 0), None
#     Edge 29, Type (0, 0), None
#     Edge 30, Type (0, 0), None
#     Edge 31, Type (0, 0), None
#     Edge 32, Type (0, 0), None
#     Edge 33, Type (0, 0), None
#     Edge 34, Type (0, 0), None
#     Edge 35, Type (0, 0), None
#     Edge 36, Type (0, 0), None
#     Edge 37, Type (0, 0), None
#     Edge 38, Type (0, 0), None
#     Edge 39, Type (0, 0), None
#     Edge 40, Type (0, 0), None
#     Edge 41, Type (0, 0), None
#     Edge 42, Type (0, 0), None
#     Edge 43, Type (0, 0), None
#     Edge 44, Type (0, 0), None
#     Edge 45, Type (0, 0), None
#     Edge 46, Type (0, 0), None
#     Edge 47, Type (0, 0), None
# Relax obj value: 0.153
# Max RMSD: 0.233
# Mean RMSD: 0.221
data_MOF--net-wfa--node1-NAWXER_clean_sbu_0--edge1-none
_symmetry_space_group_name_H-M    P1
_symmetry_Int_Tables_number       1
_symmetry_cell_setting            triclinic
loop_
_symmetry_equiv_pos_as_xyz
'x, y, z'
_cell_length_a     21.51838
_cell_length_b     21.448912
_cell_length_c     10.049731
_cell_angle_alpha  90.161957
_cell_angle_beta   89.938585
_cell_angle_gamma 89.067594
loop_
_atom_site_label
_atom_site_type_symbol
_atom_site_fract_x
_atom_site_fract_y
_atom_site_fract_z
_atom_type_partial_charge
C0 C 0.63934 0.12414 0.19841 0.0
C1 C 0.71077 0.01569 0.79443 0.0
O2 O 0.65405 0.15334 0.09248 0.0
Zn3 Zn 0.66545 0.07654 0.98795 0.0
O4 O 0.63504 0.06498 0.19783 0.0
Zn5 Zn 0.65336 0.98635 0.07608 0.0
O6 O 0.71721 0.95434 0.19865 0.0
O7 O 0.74169 0.04392 0.10503 0.0
O8 O 0.69898 0.97741 0.88803 0.0
O9 O 0.69573 0.07293 0.80865 0.0
O10 O 0.57095 0.05159 0.97787 0.0
O11 O 0.56661 0.95709 0.06113 0.0
C12 C 0.7541 1.00021 0.18745 0.0
C13 C 0.53891 1.00488 0.0124 0.0
C14 C 0.51002 0.75927 0.16129 0.0
C15 C 0.50512 0.54124 0.00544 0.0
O16 O 0.55601 0.72095 0.17223 0.0
Zn17 Zn 0.52627 0.65816 0.05249 0.0
O18 O 0.46486 0.74745 0.08066 0.0
Zn19 Zn 0.41644 0.67239 0.94929 0.0
O20 O 0.36007 0.66083 0.11158 0.0
O21 O 0.45362 0.64348 0.18754 0.0
O22 O 0.45589 0.57284 0.97477 0.0
O23 O 0.55426 0.5701 0.03833 0.0
O24 O 0.54926 0.70748 0.87993 0.0
O25 O 0.465 0.68611 0.77391 0.0
C26 C 0.39564 0.64937 0.20799 0.0
C27 C 0.51849 0.70878 0.77284 0.0
C28 C 0.75318 0.51767 0.17924 0.0
C29 C 0.9702 0.50837 0.01107 0.0
O30 O 0.79067 0.56302 0.19187 0.0
Zn31 Zn 0.85477 0.52959 0.07065 0.0
O32 O 0.76537 0.47387 0.0964 0.0
Zn33 Zn 0.84228 0.43899 0.98405 0.0
O34 O 0.85031 0.36327 0.09252 0.0
O35 O 0.87022 0.452 0.19576 0.0
O36 O 0.9377 0.46178 0.97702 0.0
O37 O 0.94261 0.55701 0.05685 0.0
O38 O 0.80923 0.53715 0.88209 0.0
O39 O 0.81265 0.44115 0.80395 0.0
C40 C 0.86404 0.39307 0.1986 0.0
C41 C 0.79724 0.49824 0.78929 0.0
C42 C 0.11585 0.86073 0.19755 0.0
C43 C 0.00627 0.79992 0.79145 0.0
O44 O 0.14459 0.84511 0.09079 0.0
Zn45 Zn 0.06811 0.84042 0.98531 0.0
O46 O 0.05722 0.86974 0.19652 0.0
Zn47 Zn 0.97862 0.85792 0.07433 0.0
O48 O 0.94527 0.79553 0.19674 0.0
O49 O 0.03282 0.76527 0.09855 0.0
O50 O 0.96834 0.81319 0.88571 0.0
O51 O 0.06362 0.81185 0.80555 0.0
O52 O 0.04738 0.93684 0.97769 0.0
O53 O 0.95326 0.9474 0.06053 0.0
C54 C 0.98972 0.75562 0.18313 0.0
C55 C 1.00193 0.97207 0.01229 0.0
C56 C 0.14633 0.89017 0.30801 0.0
C57 C 0.21187 0.99638 0.71517 0.0
O58 O 0.16114 0.86062 0.41397 0.0
Zn59 Zn 0.1684 0.93681 0.52091 0.0
O60 O 0.13908 0.94921 0.31032 0.0
Zn61 Zn 0.15352 0.02725 0.43415 0.0
O62 O 0.21654 0.05959 0.31188 0.0
O63 O 0.24412 0.97027 0.40623 0.0
O64 O 0.19895 0.03509 0.6223 0.0
O65 O 0.19825 0.93929 0.70034 0.0
O66 O 0.07263 0.961 0.53064 0.0
O67 O 0.06522 0.05588 0.4498 0.0
C68 C 0.25505 0.01383 0.32341 0.0
C69 C 0.03897 0.00787 0.49736 0.0
C70 C 0.47791 0.25912 0.34478 0.0
C71 C 0.50133 0.04095 0.50144 0.0
O72 O 0.43498 0.21888 0.33507 0.0
Zn73 Zn 0.47533 0.15633 0.45191 0.0
O74 O 0.52362 0.24888 0.42391 0.0
Zn75 Zn 0.56612 0.17212 0.52902 0.0
O76 O 0.63978 0.16891 0.41485 0.0
O77 O 0.55109 0.14502 0.31764 0.0
O78 O 0.54733 0.07493 0.53219 0.0
O79 O 0.45094 0.06737 0.46321 0.0
O80 O 0.47268 0.19935 0.6473 0.0
O81 O 0.57036 0.19846 0.71198 0.0
C82 C 0.60944 0.15401 0.31069 0.0
C83 C 0.51361 0.21102 0.73645 0.0
C84 C 0.47057 0.50353 0.50125 0.0
C85 C 0.25605 0.49836 0.32769 0.0
O86 O 0.44509 0.45496 0.45342 0.0
Zn87 Zn 0.35716 0.48256 0.44125 0.0
O88 O 0.43663 0.54909 0.54002 0.0
Zn89 Zn 0.34203 0.57306 0.53082 0.0
O90 O 0.31203 0.56903 0.70963 0.0
O91 O 0.31214 0.47347 0.62917 0.0
O92 O 0.26739 0.54199 0.41055 0.0
O93 O 0.29396 0.45207 0.31668 0.0
O94 O 0.37512 0.56057 0.32257 0.0
O95 O 0.35362 0.64943 0.42895 0.0
C96 C 0.29906 0.51174 0.7232 0.0
C97 C 0.37141 0.61975 0.32466 0.0
C98 C 0.89425 0.36363 0.31042 0.0
C99 C 1.00247 0.29998 0.71849 0.0
O100 O 0.86512 0.34923 0.41671 0.0
Zn101 Zn 0.94116 0.34258 0.52411 0.0
O102 O 0.95283 0.37098 0.3126 0.0
Zn103 Zn 0.03094 0.357 0.43634 0.0
O104 O 0.06469 0.29342 0.31406 0.0
O105 O 0.97706 0.2661 0.41178 0.0
O106 O 0.04061 0.31201 0.62477 0.0
O107 O 0.94517 0.31396 0.70405 0.0
O108 O 0.96181 0.43832 0.53189 0.0
O109 O 0.05624 0.44561 0.45064 0.0
C110 C 0.02026 0.25496 0.32736 0.0
C111 C 0.00737 0.47197 0.49791 0.0
C112 C 0.36986 0.88857 0.8115 0.0
C113 C 0.29854 0.99705 0.21549 0.0
O114 O 0.3742 0.94772 0.81208 0.0
Zn115 Zn 0.35593 0.02637 0.93383 0.0
O116 O 0.3552 0.85938 0.91748 0.0
Zn117 Zn 0.34383 0.93618 0.02199 0.0
O118 O 0.26758 0.96884 0.90494 0.0
O119 O 0.2921 0.05841 0.81128 0.0
O120 O 0.31358 0.9398 0.2013 0.0
O121 O 0.31031 0.03532 0.12188 0.0
O122 O 0.44269 0.05561 0.94875 0.0
O123 O 0.43834 0.96111 0.03201 0.0
C124 C 0.25518 0.01256 0.82256 0.0
C125 C 0.47038 0.00781 0.99746 0.0
C126 C 0.49916 0.25352 0.84865 0.0
C127 C 0.50413 0.47155 1.00439 0.0
O128 O 0.54434 0.26532 0.92927 0.0
Zn129 Zn 0.59277 0.34038 0.06063 0.0
O130 O 0.4532 0.29186 0.83763 0.0
Zn131 Zn 0.48296 0.35463 0.95737 0.0
O132 O 0.55564 0.36927 0.82235 0.0
O133 O 0.64917 0.35189 0.89837 0.0
O134 O 0.455 0.44269 0.97152 0.0
O135 O 0.55337 0.43995 0.03507 0.0
O136 O 0.54419 0.32671 0.23601 0.0
O137 O 0.45995 0.30529 0.12991 0.0
C138 C 0.61361 0.36335 0.80193 0.0
C139 C 0.4907 0.30404 0.23702 0.0
C140 C 0.212 0.51448 0.22063 0.0
C141 C 0.14523 0.61966 0.81134 0.0
O142 O 0.20003 0.47557 0.12783 0.0
Zn143 Zn 0.1545 0.48314 0.93927 0.0
O144 O 0.1966 0.57157 0.20599 0.0
Zn145 Zn 0.16698 0.57374 0.02589 0.0
O146 O 0.07156 0.55095 0.03289 0.0
O147 O 0.06665 0.45572 0.95304 0.0
O148 O 0.15896 0.64947 0.91743 0.0
O149 O 0.13906 0.56074 0.81417 0.0
O150 O 0.21859 0.44971 0.81804 0.0
O151 O 0.2439 0.53886 0.91356 0.0
C152 C 0.03907 0.50437 0.99882 0.0
C153 C 0.25609 0.49505 0.83075 0.0
C154 C 1.00299 0.21278 0.21849 0.0
C155 C 0.89337 0.15201 0.81245 0.0
O156 O 0.04091 0.19953 0.12422 0.0
Zn157 Zn 0.03061 0.1548 0.93559 0.0
O158 O 0.94564 0.20084 0.20443 0.0
Zn159 Zn 0.94113 0.1723 0.02466 0.0
O160 O 0.96185 0.07588 0.03224 0.0
O161 O 0.05596 0.06531 0.94938 0.0
O162 O 0.86464 0.16763 0.91923 0.0
O163 O 0.952 0.143 0.81343 0.0
O164 O 0.06398 0.21718 0.81319 0.0
O165 O 0.97642 0.24746 0.91144 0.0
C166 C 0.0073 0.04064 0.99762 0.0
C167 C 0.01954 0.25709 0.82687 0.0
C168 C 0.75422 0.99887 0.68647 0.0
C169 C 0.97032 1.00491 0.51269 0.0
O170 O 0.76514 0.04246 0.6037 0.0
Zn171 Zn 0.84087 0.07594 0.48906 0.0
O172 O 0.79276 0.95313 0.69808 0.0
Zn173 Zn 0.85577 0.98551 0.57583 0.0
O174 O 0.87015 0.06355 0.69968 0.0
O175 O 0.8481 0.15213 0.59599 0.0
O176 O 0.94407 0.9569 0.56022 0.0
O177 O 0.93665 0.05177 0.47939 0.0
O178 O 0.81105 0.07345 0.30962 0.0
O179 O 0.81034 0.97765 0.38768 0.0
C180 C 0.86287 0.1226 0.70199 0.0
C181 C 0.79744 0.01636 0.2948 0.0
C182 C 0.53134 0.75366 0.66503 0.0
C183 C 0.50786 0.97184 0.50857 0.0
O184 O 0.48562 0.76389 0.58593 0.0
Zn185 Zn 0.44311 0.84066 0.48088 0.0
O186 O 0.57426 0.79391 0.67483 0.0
Zn187 Zn 0.53388 0.85646 0.55802 0.0
O188 O 0.45811 0.86771 0.6923 0.0
O189 O 0.36944 0.84383 0.59502 0.0
O190 O 0.55825 0.94543 0.54678 0.0
O191 O 0.46187 0.93786 0.4778 0.0
O192 O 0.43887 0.81436 0.29791 0.0
O193 O 0.53655 0.81344 0.36262 0.0
C194 C 0.39976 0.85869 0.69923 0.0
C195 C 0.49561 0.8018 0.27346 0.0
C196 C 0.63784 0.39297 0.68527 0.0
C197 C 0.71018 0.50099 0.28676 0.0
O198 O 0.63414 0.45215 0.68737 0.0
Zn199 Zn 0.6521 0.53017 0.56871 0.0
O200 O 0.65563 0.3633 0.58097 0.0
Zn201 Zn 0.66721 0.43967 0.47911 0.0
O202 O 0.74187 0.47074 0.59937 0.0
O203 O 0.71529 0.56067 0.69328 0.0
O204 O 0.69721 0.4437 0.3003 0.0
O205 O 0.69711 0.53926 0.38079 0.0
O206 O 0.56416 0.55777 0.55654 0.0
O207 O 0.57262 0.46364 0.46993 0.0
C208 C 0.7532 0.51437 0.68222 0.0
C209 C 0.53868 0.5092 0.50871 0.0
C210 C 0.00679 0.71272 0.29149 0.0
C211 C 0.11502 0.64911 0.69953 0.0
O212 O 0.96864 0.70071 0.38522 0.0
Zn213 Zn 0.97833 0.65572 0.57365 0.0
O214 O 0.06408 0.69874 0.3059 0.0
Zn215 Zn 0.0681 0.67014 0.48585 0.0
O216 O 0.04745 0.57439 0.47811 0.0
O217 O 0.95302 0.56711 0.55937 0.0
O218 O 0.14415 0.6635 0.59324 0.0
O219 O 0.05644 0.64176 0.69737 0.0
O220 O 0.94456 0.71929 0.69593 0.0
O221 O 0.0322 0.74663 0.59816 0.0
C222 C 1.0019 0.54074 0.5121 0.0
C223 C 0.98899 0.75776 0.68255 0.0
loop_
_geom_bond_atom_site_label_1
_geom_bond_atom_site_label_2
_geom_bond_distance
_geom_bond_site_symmetry_2
_ccdc_geom_bond_type
C0 O2 1.247 . S
C0 O4 1.258 1_545 S
C1 O8 1.247 . S
C1 O9 1.258 1_565 S
O2 C0 1.247 . S
O2 Zn3 2.028 . S
Zn3 O2 2.028 . S
Zn3 O7 2.035 . S
Zn3 O9 2.035 1_554 S
Zn3 O10 2.028 1_554 S
O4 C0 1.258 1_565 S
O4 Zn5 2.035 . S
Zn5 O4 2.035 . S
Zn5 O6 2.028 . S
Zn5 O8 2.028 1_554 S
Zn5 O11 2.035 . S
O6 Zn5 2.028 . S
O6 C12 1.247 1_565 S
O7 Zn3 2.035 . S
O7 C12 1.258 . S
O8 C1 1.247 . S
O8 Zn5 2.028 1_556 S
O9 C1 1.258 1_545 S
O9 Zn3 2.035 1_556 S
O10 Zn3 2.028 1_556 S
O10 C13 1.247 1_545 S
O11 Zn5 2.035 . S
O11 C13 1.258 1_554 S
C12 O6 1.247 1_545 S
C12 O7 1.258 . S
C13 O10 1.247 1_565 S
C13 O11 1.258 1_556 S
C14 O16 1.247 . S
C14 O18 1.258 . S
C15 O22 1.247 . S
C15 O23 1.262 . S
O16 C14 1.247 . S
O16 Zn17 2.028 . S
Zn17 O16 2.028 . S
Zn17 O21 2.035 . S
Zn17 O23 2.030 1_554 S
Zn17 O24 2.028 1_554 S
O18 C14 1.258 . S
O18 Zn19 2.035 . S
Zn19 O18 2.035 . S
Zn19 O20 2.028 . S
Zn19 O22 2.028 1_554 S
Zn19 O25 2.035 1_554 S
O20 Zn19 2.028 . S
O20 C26 1.247 . S
O21 Zn17 2.035 . S
O21 C26 1.258 . S
O22 C15 1.247 . S
O22 Zn19 2.028 1_556 S
O23 C15 1.262 . S
O23 Zn17 2.030 1_556 S
O24 Zn17 2.028 1_556 S
O24 C27 1.247 . S
O25 Zn19 2.035 1_556 S
O25 C27 1.258 . S
C26 O20 1.247 . S
C26 O21 1.258 . S
C27 O24 1.247 . S
C27 O25 1.258 . S
C28 O30 1.247 . S
C28 O32 1.258 . S
C29 O36 1.247 . S
C29 O37 1.258 . S
O30 C28 1.247 . S
O30 Zn31 2.028 . S
Zn31 O30 2.028 . S
Zn31 O35 2.035 . S
Zn31 O37 2.035 1_554 S
Zn31 O38 2.028 1_554 S
O32 C28 1.258 . S
O32 Zn33 2.035 . S
Zn33 O32 2.035 . S
Zn33 O34 2.028 . S
Zn33 O36 2.028 1_554 S
Zn33 O39 2.035 1_554 S
O34 Zn33 2.028 . S
O34 C40 1.247 . S
O35 Zn31 2.035 . S
O35 C40 1.258 . S
O36 C29 1.247 . S
O36 Zn33 2.028 1_556 S
O37 C29 1.258 . S
O37 Zn31 2.035 1_556 S
O38 Zn31 2.028 1_556 S
O38 C41 1.247 . S
O39 Zn33 2.035 1_556 S
O39 C41 1.258 . S
C40 O34 1.247 . S
C40 O35 1.258 . S
C41 O38 1.247 . S
C41 O39 1.258 . S
C42 O44 1.247 . S
C42 O46 1.258 1_455 S
C43 O50 1.247 . S
C43 O51 1.258 1_655 S
O44 C42 1.247 . S
O44 Zn45 2.028 . S
Zn45 O44 2.028 . S
Zn45 O49 2.035 . S
Zn45 O51 2.035 1_554 S
Zn45 O52 2.028 1_554 S
O46 C42 1.258 1_655 S
O46 Zn47 2.035 . S
Zn47 O46 2.035 . S
Zn47 O48 2.028 . S
Zn47 O50 2.028 1_554 S
Zn47 O53 2.035 . S
O48 Zn47 2.028 . S
O48 C54 1.247 1_655 S
O49 Zn45 2.035 . S
O49 C54 1.258 . S
O50 C43 1.247 . S
O50 Zn47 2.028 1_556 S
O51 C43 1.258 1_455 S
O51 Zn45 2.035 1_556 S
O52 Zn45 2.028 1_556 S
O52 C55 1.247 1_455 S
O53 Zn47 2.035 . S
O53 C55 1.258 1_554 S
C54 O48 1.247 1_455 S
C54 O49 1.258 . S
C55 O52 1.247 1_655 S
C55 O53 1.258 1_556 S
C56 O58 1.247 . S
C56 O60 1.258 1_565 S
C57 O64 1.247 . S
C57 O65 1.258 1_545 S
O58 C56 1.247 . S
O58 Zn59 2.028 . S
Zn59 O58 2.028 . S
Zn59 O63 2.035 . S
Zn59 O65 2.035 . S
Zn59 O66 2.028 . S
O60 C56 1.258 1_545 S
O60 Zn61 2.035 . S
Zn61 O60 2.035 . S
Zn61 O62 2.028 . S
Zn61 O64 2.028 . S
Zn61 O67 2.035 . S
O62 Zn61 2.028 . S
O62 C68 1.247 1_545 S
O63 Zn59 2.035 . S
O63 C68 1.258 . S
O64 C57 1.247 . S
O64 Zn61 2.028 . S
O65 C57 1.258 1_565 S
O65 Zn59 2.035 . S
O66 Zn59 2.028 . S
O66 C69 1.247 1_565 S
O67 Zn61 2.035 . S
O67 C69 1.258 . S
C68 O62 1.247 1_565 S
C68 O63 1.258 . S
C69 O66 1.247 1_545 S
C69 O67 1.258 . S
C70 O72 1.247 . S
C70 O74 1.258 . S
C71 O78 1.247 . S
C71 O79 1.258 . S
O72 C70 1.247 . S
O72 Zn73 2.028 . S
Zn73 O72 2.028 . S
Zn73 O77 2.035 . S
Zn73 O79 2.035 . S
Zn73 O80 2.028 . S
O74 C70 1.258 . S
O74 Zn75 2.035 . S
Zn75 O74 2.035 . S
Zn75 O76 2.028 . S
Zn75 O78 2.028 . S
Zn75 O81 2.035 . S
O76 Zn75 2.028 . S
O76 C82 1.247 . S
O77 Zn73 2.035 . S
O77 C82 1.258 . S
O78 C71 1.247 . S
O78 Zn75 2.028 . S
O79 C71 1.258 . S
O79 Zn73 2.035 . S
O80 Zn73 2.028 . S
O80 C83 1.247 . S
O81 Zn75 2.035 . S
O81 C83 1.258 . S
C82 O76 1.247 . S
C82 O77 1.258 . S
C83 O80 1.247 . S
C83 O81 1.258 . S
C84 O86 1.247 . S
C84 O88 1.258 . S
C85 O92 1.247 . S
C85 O93 1.258 . S
O86 C84 1.247 . S
O86 Zn87 2.028 . S
Zn87 O86 2.028 . S
Zn87 O91 2.035 . S
Zn87 O93 2.035 . S
Zn87 O94 2.028 . S
O88 C84 1.258 . S
O88 Zn89 2.035 . S
Zn89 O88 2.035 . S
Zn89 O90 2.028 . S
Zn89 O92 2.028 . S
Zn89 O95 2.035 . S
O90 Zn89 2.028 . S
O90 C96 1.247 . S
O91 Zn87 2.035 . S
O91 C96 1.258 . S
O92 C85 1.247 . S
O92 Zn89 2.028 . S
O93 C85 1.258 . S
O93 Zn87 2.035 . S
O94 Zn87 2.028 . S
O94 C97 1.247 . S
O95 Zn89 2.035 . S
O95 C97 1.258 . S
C96 O90 1.247 . S
C96 O91 1.258 . S
C97 O94 1.247 . S
C97 O95 1.258 . S
C98 O100 1.247 . S
C98 O102 1.258 1_655 S
C99 O106 1.247 . S
C99 O107 1.258 1_455 S
O100 C98 1.247 . S
O100 Zn101 2.028 . S
Zn101 O100 2.028 . S
Zn101 O105 2.035 . S
Zn101 O107 2.035 . S
Zn101 O108 2.028 . S
O102 C98 1.258 1_455 S
O102 Zn103 2.035 . S
Zn103 O102 2.035 . S
Zn103 O104 2.028 . S
Zn103 O106 2.028 . S
Zn103 O109 2.035 . S
O104 Zn103 2.028 . S
O104 C110 1.247 1_455 S
O105 Zn101 2.035 . S
O105 C110 1.258 . S
O106 C99 1.247 . S
O106 Zn103 2.028 . S
O107 C99 1.258 1_655 S
O107 Zn101 2.035 . S
O108 Zn101 2.028 . S
O108 C111 1.247 1_655 S
O109 Zn103 2.035 . S
O109 C111 1.258 . S
C110 O104 1.247 1_655 S
C110 O105 1.258 . S
C111 O108 1.247 1_455 S
C111 O109 1.258 . S
C112 O114 1.247 1_565 S
C112 O116 1.258 . S
C113 O120 1.247 1_545 S
C113 O121 1.258 . S
O114 C112 1.247 1_545 S
O114 Zn115 2.028 . S
Zn115 O114 2.028 . S
Zn115 O119 2.035 . S
Zn115 O121 2.035 1_556 S
Zn115 O122 2.028 . S
O116 C112 1.258 . S
O116 Zn117 2.035 . S
Zn117 O116 2.035 . S
Zn117 O118 2.028 . S
Zn117 O120 2.028 1_556 S
Zn117 O123 2.035 1_556 S
O118 Zn117 2.028 . S
O118 C124 1.247 . S
O119 Zn115 2.035 . S
O119 C124 1.258 1_545 S
O120 C113 1.247 1_565 S
O120 Zn117 2.028 1_554 S
O121 C113 1.258 . S
O121 Zn115 2.035 1_554 S
O122 Zn115 2.028 . S
O122 C125 1.247 1_556 S
O123 Zn117 2.035 1_554 S
O123 C125 1.258 1_565 S
C124 O118 1.247 . S
C124 O119 1.258 1_565 S
C125 O122 1.247 1_554 S
C125 O123 1.258 1_545 S
C126 O128 1.247 . S
C126 O130 1.258 . S
C127 O134 1.247 . S
C127 O135 1.258 . S
O128 C126 1.247 . S
O128 Zn129 2.028 . S
Zn129 O128 2.028 . S
Zn129 O133 2.035 . S
Zn129 O135 2.035 1_556 S
Zn129 O136 2.028 1_556 S
O130 C126 1.258 . S
O130 Zn131 2.035 . S
Zn131 O130 2.035 . S
Zn131 O132 2.028 . S
Zn131 O134 2.028 1_556 S
Zn131 O137 2.035 1_556 S
O132 Zn131 2.028 . S
O132 C138 1.247 . S
O133 Zn129 2.035 . S
O133 C138 1.258 . S
O134 C127 1.247 . S
O134 Zn131 2.028 1_554 S
O135 C127 1.258 . S
O135 Zn129 2.035 1_554 S
O136 Zn129 2.028 1_554 S
O136 C139 1.247 . S
O137 Zn131 2.035 1_554 S
O137 C139 1.258 . S
C138 O132 1.247 . S
C138 O133 1.258 . S
C139 O136 1.247 . S
C139 O137 1.258 . S
C140 O142 1.247 . S
C140 O144 1.258 . S
C141 O148 1.247 . S
C141 O149 1.258 . S
O142 C140 1.247 . S
O142 Zn143 2.028 1_554 S
Zn143 O142 2.028 1_556 S
Zn143 O147 2.035 1_556 S
Zn143 O149 2.035 . S
Zn143 O150 2.028 . S
O144 C140 1.258 . S
O144 Zn145 2.035 1_554 S
Zn145 O144 2.035 1_556 S
Zn145 O146 2.028 1_556 S
Zn145 O148 2.028 . S
Zn145 O151 2.035 . S
O146 Zn145 2.028 1_554 S
O146 C152 1.247 . S
O147 Zn143 2.035 1_554 S
O147 C152 1.258 . S
O148 C141 1.247 . S
O148 Zn145 2.028 . S
O149 C141 1.258 . S
O149 Zn143 2.035 . S
O150 Zn143 2.028 . S
O150 C153 1.247 . S
O151 Zn145 2.035 . S
O151 C153 1.258 . S
C152 O146 1.247 . S
C152 O147 1.258 . S
C153 O150 1.247 . S
C153 O151 1.258 . S
C154 O156 1.247 . S
C154 O158 1.258 1_455 S
C155 O162 1.247 . S
C155 O163 1.258 1_655 S
O156 C154 1.247 . S
O156 Zn157 2.028 1_554 S
Zn157 O156 2.028 1_556 S
Zn157 O161 2.035 . S
Zn157 O163 2.035 . S
Zn157 O164 2.028 . S
O158 C154 1.258 1_655 S
O158 Zn159 2.035 1_554 S
Zn159 O158 2.035 1_556 S
Zn159 O160 2.028 1_556 S
Zn159 O162 2.028 . S
Zn159 O165 2.035 . S
O160 Zn159 2.028 1_554 S
O160 C166 1.247 1_655 S
O161 Zn157 2.035 . S
O161 C166 1.258 1_556 S
O162 C155 1.247 . S
O162 Zn159 2.028 . S
O163 C155 1.258 1_455 S
O163 Zn157 2.035 . S
O164 Zn157 2.028 . S
O164 C167 1.247 1_455 S
O165 Zn159 2.035 . S
O165 C167 1.258 . S
C166 O160 1.247 1_455 S
C166 O161 1.258 1_554 S
C167 O164 1.247 1_655 S
C167 O165 1.258 . S
C168 O170 1.247 . S
C168 O172 1.258 1_545 S
C169 O176 1.247 . S
C169 O177 1.258 1_565 S
O170 C168 1.247 . S
O170 Zn171 2.028 . S
Zn171 O170 2.028 . S
Zn171 O175 2.035 . S
Zn171 O177 2.035 . S
Zn171 O178 2.028 . S
O172 C168 1.258 1_565 S
O172 Zn173 2.035 . S
Zn173 O172 2.035 . S
Zn173 O174 2.028 . S
Zn173 O176 2.028 . S
Zn173 O179 2.035 . S
O174 Zn173 2.028 . S
O174 C180 1.247 1_565 S
O175 Zn171 2.035 . S
O175 C180 1.258 . S
O176 C169 1.247 . S
O176 Zn173 2.028 . S
O177 C169 1.258 1_545 S
O177 Zn171 2.035 . S
O178 Zn171 2.028 . S
O178 C181 1.247 1_545 S
O179 Zn173 2.035 . S
O179 C181 1.258 . S
C180 O174 1.247 1_545 S
C180 O175 1.258 . S
C181 O178 1.247 1_565 S
C181 O179 1.258 . S
C182 O184 1.247 . S
C182 O186 1.258 . S
C183 O190 1.247 . S
C183 O191 1.258 . S
O184 C182 1.247 . S
O184 Zn185 2.028 . S
Zn185 O184 2.028 . S
Zn185 O189 2.035 . S
Zn185 O191 2.035 . S
Zn185 O192 2.028 . S
O186 C182 1.258 . S
O186 Zn187 2.035 . S
Zn187 O186 2.035 . S
Zn187 O188 2.028 . S
Zn187 O190 2.028 . S
Zn187 O193 2.035 . S
O188 Zn187 2.028 . S
O188 C194 1.247 . S
O189 Zn185 2.035 . S
O189 C194 1.258 . S
O190 C183 1.247 . S
O190 Zn187 2.028 . S
O191 C183 1.258 . S
O191 Zn185 2.035 . S
O192 Zn185 2.028 . S
O192 C195 1.247 . S
O193 Zn187 2.035 . S
O193 C195 1.258 . S
C194 O188 1.247 . S
C194 O189 1.258 . S
C195 O192 1.247 . S
C195 O193 1.258 . S
C196 O198 1.247 . S
C196 O200 1.258 . S
C197 O204 1.247 . S
C197 O205 1.258 . S
O198 C196 1.247 . S
O198 Zn199 2.028 . S
Zn199 O198 2.028 . S
Zn199 O203 2.035 . S
Zn199 O205 2.035 . S
Zn199 O206 2.028 . S
O200 C196 1.258 . S
O200 Zn201 2.035 . S
Zn201 O200 2.035 . S
Zn201 O202 2.028 . S
Zn201 O204 2.028 . S
Zn201 O207 2.035 . S
O202 Zn201 2.028 . S
O202 C208 1.247 . S
O203 Zn199 2.035 . S
O203 C208 1.258 . S
O204 C197 1.247 . S
O204 Zn201 2.028 . S
O205 C197 1.258 . S
O205 Zn199 2.035 . S
O206 Zn199 2.028 . S
O206 C209 1.247 . S
O207 Zn201 2.035 . S
O207 C209 1.258 . S
C208 O202 1.247 . S
C208 O203 1.258 . S
C209 O206 1.247 . S
C209 O207 1.258 . S
C210 O212 1.247 . S
C210 O214 1.258 1_655 S
C211 O218 1.247 . S
C211 O219 1.258 1_455 S
O212 C210 1.247 . S
O212 Zn213 2.028 . S
Zn213 O212 2.028 . S
Zn213 O217 2.035 . S
Zn213 O219 2.035 . S
Zn213 O220 2.028 . S
O214 C210 1.258 1_455 S
O214 Zn215 2.035 . S
Zn215 O214 2.035 . S
Zn215 O216 2.028 . S
Zn215 O218 2.028 . S
Zn215 O221 2.035 . S
O216 Zn215 2.028 . S
O216 C222 1.247 1_455 S
O217 Zn213 2.035 . S
O217 C222 1.258 . S
O218 C211 1.247 . S
O218 Zn215 2.028 . S
O219 C211 1.258 1_655 S
O219 Zn213 2.035 . S
O220 Zn213 2.028 . S
O220 C223 1.247 1_655 S
O221 Zn215 2.035 . S
O221 C223 1.258 . S
C222 O216 1.247 1_655 S
C222 O217 1.258 . S
C223 O220 1.247 1_455 S
C223 O221 1.258 . S
C82 C0 1.647 . S
C97 C26 1.903 . S
C40 C98 1.647 . S
C42 C56 1.259 . S
C112 C194 1.658 . S
C196 C138 1.907 . S
C211 C141 1.647 . S
C155 C180 1.265 . S
C1 C168 2.123 1_565 S
C182 C27 2.135 . S
C41 C208 2.275 . S
C43 C223 2.176 1_655 S
C57 C124 2.181 1_545 S
C83 C126 2.275 . S
C96 C153 2.127 . S
C99 C167 2.118 1_455 S
C68 C113 2.112 1_565 S
C70 C139 2.127 . S
C85 C140 2.275 . S
C154 C110 2.176 1_455 S
C12 C181 2.170 1_545 S
C195 C14 2.266 . S
C197 C28 2.127 . S
C54 C210 2.118 1_455 S
C125 C13 2.221 1_544 S
C127 C15 2.401 1_554 S
C29 C152 2.640 1_656 S
C166 C55 2.432 1_444 S
C69 C169 2.430 1_445 S
C183 C71 2.641 1_565 S
C209 C84 2.402 . S
C222 C111 2.223 1_655 S
