# Generated by pormake.
# Topology unm, (4)-cn, num edge types: 1
# Building blocks:
#     Node 0, Type 0, BuildingBlock: NAHDIM_clean_sbu_0, # of connection points: 4
#     Node 1, Type 0, BuildingBlock: NAHDIM_clean_sbu_0, # of connection points: 4
#     Node 2, Type 0, BuildingBlock: NAHDIM_clean_sbu_0, # of connection points: 4
#     Node 3, Type 0, BuildingBlock: NAHDIM_clean_sbu_0, # of connection points: 4
#     Node 4, Type 0, BuildingBlock: NAHDIM_clean_sbu_0, # of connection points: 4
#     Node 5, Type 0, BuildingBlock: NAHDIM_clean_sbu_0, # of connection points: 4
#     Node 6, Type 0, BuildingBlock: NAHDIM_clean_sbu_0, # of connection points: 4
#     Node 7, Type 0, BuildingBlock: NAHDIM_clean_sbu_0, # of connection points: 4
#     Edge 8, Type (0, 0), None
#     Edge 9, Type (0, 0), None
#     Edge 10, Type (0, 0), None
#     Edge 11, Type (0, 0), None
#     Edge 12, Type (0, 0), None
#     Edge 13, Type (0, 0), None
#     Edge 14, Type (0, 0), None
#     Edge 15, Type (0, 0), None
#     Edge 16, Type (0, 0), None
#     Edge 17, Type (0, 0), None
#     Edge 18, Type (0, 0), None
#     Edge 19, Type (0, 0), None
#     Edge 20, Type (0, 0), None
#     Edge 21, Type (0, 0), None
#     Edge 22, Type (0, 0), None
#     Edge 23, Type (0, 0), None
# Relax obj value: 0.229
# Max RMSD: 0.178
# Mean RMSD: 0.178
data_MOF--net-unm--node1-NAHDIM_clean_sbu_0--edge1-none
_symmetry_space_group_name_H-M    P1
_symmetry_Int_Tables_number       1
_symmetry_cell_setting            triclinic
loop_
_symmetry_equiv_pos_as_xyz
'x, y, z'
_cell_length_a     12.139545
_cell_length_b     12.228265
_cell_length_c     19.272822
_cell_angle_alpha  90.293961
_cell_angle_beta   91.125121
_cell_angle_gamma 86.820053
loop_
_atom_site_label
_atom_site_type_symbol
_atom_site_fract_x
_atom_site_fract_y
_atom_site_fract_z
_atom_type_partial_charge
C0 C 0.26013 0.22964 0.20912 0.0
O1 O 0.29101 0.264 0.14844 0.0
O2 O 0.89578 0.23102 0.16347 0.0
Zn3 Zn 0.05496 0.24597 0.13733 0.0
O4 O 0.10302 0.14834 0.05741 0.0
C5 C 0.98915 0.46999 0.10113 0.0
O6 O 0.89179 0.4302 0.09129 0.0
O7 O 0.15904 0.21253 0.21837 0.0
C8 C 0.0817 0.16992 -0.00598 0.0
O9 O 0.0202 0.25803 -0.02246 0.0
C10 C 0.85768 0.16298 0.20508 0.0
O11 O 0.92388 0.08667 0.23364 0.0
O12 O 0.07184 0.40572 0.11635 0.0
C13 C 0.22192 0.75869 0.70271 0.0
O14 O 0.13239 0.71419 0.72361 0.0
O15 O 0.26813 0.44466 0.69089 0.0
Zn16 Zn 0.25144 0.5614 0.6169 0.0
O17 O 0.35599 0.53715 0.53756 0.0
C18 C 0.04217 0.48808 0.56714 0.0
O19 O 0.09669 0.39269 0.56415 0.0
O20 O 0.28415 0.70808 0.65941 0.0
C21 C 0.32669 0.51917 0.47505 0.0
O22 O 0.2236 0.49958 0.46047 0.0
C23 C 0.27827 0.3423 0.67902 0.0
O24 O 0.28934 0.30595 0.6152 0.0
O25 O 0.09241 0.57256 0.5846 0.0
C26 C 0.71252 0.75697 0.23137 0.0
O27 O 0.77817 0.67734 0.25666 0.0
O28 O 0.0161 0.82309 0.22374 0.0
Zn29 Zn 0.90006 0.80604 0.14839 0.0
O30 O 0.89751 0.91678 0.07149 0.0
C31 C -0.00206 0.58844 0.10923 0.0
O32 O 0.09332 0.62736 0.12636 0.0
O33 O 0.74869 0.8233 0.18799 0.0
C34 C 0.93818 0.89404 0.01274 0.0
O35 O 0.00148 0.80422 0.00559 0.0
C36 C 0.11737 0.83582 0.21247 0.0
O37 O 0.15011 0.84911 0.14867 0.0
O38 O 0.91037 0.65018 0.1118 0.0
C39 C 0.78072 0.20432 0.6998 0.0
O40 O 0.80224 0.17235 0.6361 0.0
O41 O 0.68492 0.55835 0.66627 0.0
Zn42 Zn 0.72683 0.40753 0.63049 0.0
O43 O 0.61793 0.35648 0.5593 0.0
C44 C 0.92219 0.49192 0.56921 0.0
O45 O 0.86554 0.5865 0.56688 0.0
O46 O 0.74289 0.3018 0.71078 0.0
C47 C 0.62711 0.37951 0.49554 0.0
O48 O 0.70524 0.44227 0.47633 0.0
C49 C 0.75577 0.60144 0.70561 0.0
O50 O 0.84805 0.54554 0.722 0.0
O51 O 0.87715 0.40709 0.58988 0.0
C52 C 0.74398 0.18201 0.22902 0.0
O53 O 0.68435 0.2683 0.20701 0.0
O54 O 0.44469 0.21508 0.25246 0.0
Zn55 Zn 0.56623 0.17843 0.32353 0.0
O56 O 0.60434 0.30794 0.38249 0.0
C57 C 0.46483 0.98378 0.37427 0.0
O58 O 0.43664 0.96606 0.3094 0.0
O59 O 0.70801 0.12486 0.27764 0.0
C60 C 0.56688 0.3176 0.44349 0.0
O61 O 0.4903 0.25365 0.46352 0.0
C62 C 0.34255 0.20981 0.26498 0.0
O63 O 0.31139 0.18413 0.32739 0.0
O64 O 0.51939 0.06581 0.39011 0.0
C65 C 0.2696 0.26523 0.73632 0.0
O66 O 0.28429 0.29824 0.80061 0.0
O67 O 0.1918 0.91722 0.77403 0.0
Zn68 Zn 0.23564 0.06715 0.80648 0.0
O69 O 0.13226 0.13621 0.87715 0.0
C70 C 0.44856 0.9744 0.86054 0.0
O71 O 0.40521 0.87853 0.85651 0.0
O72 O 0.24289 0.16772 0.72453 0.0
C73 C 0.13866 0.105 0.93992 0.0
O74 O 0.20765 0.02275 0.95735 0.0
C75 C 0.24948 0.86761 0.72793 0.0
O76 O 0.33485 0.91451 0.70285 0.0
O77 O 0.39016 0.0606 0.84567 0.0
C78 C 0.1987 0.8141 0.26874 0.0
O79 O 0.16522 0.80054 0.33236 0.0
O80 O 0.56164 0.71444 0.30119 0.0
Zn81 Zn 0.40259 0.73187 0.33076 0.0
O82 O 0.34917 0.58977 0.36365 0.0
C83 C 0.42212 0.91847 0.42973 0.0
O84 O 0.41556 0.95919 0.4928 0.0
O85 O 0.29939 0.79209 0.25479 0.0
C86 C 0.39597 0.55859 0.4202 0.0
O87 O 0.49014 0.5997 0.4382 0.0
C88 C 0.59606 0.7668 0.24993 0.0
O89 O 0.52648 0.82926 0.21267 0.0
O90 O 0.39116 0.82275 0.41824 0.0
C91 C 0.73615 0.71273 0.73225 0.0
O92 O 0.63921 0.76452 0.7237 0.0
O93 O 0.79682 0.02376 0.74424 0.0
Zn94 Zn 0.78605 0.90164 0.81439 0.0
O95 O 0.89728 0.8964 0.89333 0.0
C96 C 0.56834 0.98135 0.86409 0.0
O97 O 0.61002 0.07787 0.86743 0.0
O98 O 0.8124 0.7577 0.76604 0.0
C99 C 0.88498 0.94514 0.95111 0.0
O100 O 0.80253 0.01809 0.95858 0.0
C101 C 0.79402 0.12595 0.75715 0.0
O102 O 0.79521 0.16101 0.82161 0.0
O103 O 0.62919 0.89803 0.84749 0.0
loop_
_geom_bond_atom_site_label_1
_geom_bond_atom_site_label_2
_geom_bond_distance
_geom_bond_site_symmetry_2
_ccdc_geom_bond_type
C0 O1 1.160 . S
C0 O7 1.185 . S
O1 C0 1.160 . S
O2 Zn3 1.899 . S
O2 C10 1.284 1_455 S
Zn3 O2 1.899 . S
Zn3 O4 2.032 . S
Zn3 O7 2.086 . S
Zn3 O12 1.977 . S
O4 Zn3 2.032 . S
O4 C8 1.278 . S
C5 O6 1.203 1_455 S
C5 O12 1.267 . S
O6 C5 1.203 1_655 S
O7 C0 1.185 . S
O7 Zn3 2.086 . S
C8 O4 1.278 . S
C8 O9 1.211 . S
O9 C8 1.211 . S
C10 O2 1.284 1_655 S
C10 O11 1.273 . S
O11 C10 1.273 . S
O12 Zn3 1.977 . S
O12 C5 1.267 . S
C13 O14 1.160 . S
C13 O20 1.185 . S
O14 C13 1.160 . S
O15 Zn16 1.899 . S
O15 C23 1.284 . S
Zn16 O15 1.899 . S
Zn16 O17 2.032 . S
Zn16 O20 2.086 . S
Zn16 O25 1.977 . S
O17 Zn16 2.032 . S
O17 C21 1.278 . S
C18 O19 1.203 . S
C18 O25 1.267 . S
O19 C18 1.203 . S
O20 C13 1.185 . S
O20 Zn16 2.086 . S
C21 O17 1.278 . S
C21 O22 1.211 . S
O22 C21 1.211 . S
C23 O15 1.284 . S
C23 O24 1.273 . S
O24 C23 1.273 . S
O25 Zn16 1.977 . S
O25 C18 1.267 . S
C26 O27 1.160 . S
C26 O33 1.185 . S
O27 C26 1.160 . S
O28 Zn29 1.899 . S
O28 C36 1.284 1_655 S
Zn29 O28 1.899 . S
Zn29 O30 2.032 . S
Zn29 O33 2.086 . S
Zn29 O38 1.977 . S
O30 Zn29 2.032 . S
O30 C34 1.278 . S
C31 O32 1.203 1_655 S
C31 O38 1.267 . S
O32 C31 1.203 1_455 S
O33 C26 1.185 . S
O33 Zn29 2.086 . S
C34 O30 1.278 . S
C34 O35 1.211 . S
O35 C34 1.211 . S
C36 O28 1.284 1_455 S
C36 O37 1.273 . S
O37 C36 1.273 . S
O38 Zn29 1.977 . S
O38 C31 1.267 . S
C39 O40 1.160 . S
C39 O46 1.185 . S
O40 C39 1.160 . S
O41 Zn42 1.899 . S
O41 C49 1.284 . S
Zn42 O41 1.899 . S
Zn42 O43 2.032 . S
Zn42 O46 2.086 . S
Zn42 O51 1.977 . S
O43 Zn42 2.032 . S
O43 C47 1.278 . S
C44 O45 1.203 . S
C44 O51 1.267 . S
O45 C44 1.203 . S
O46 C39 1.185 . S
O46 Zn42 2.086 . S
C47 O43 1.278 . S
C47 O48 1.211 . S
O48 C47 1.211 . S
C49 O41 1.284 . S
C49 O50 1.273 . S
O50 C49 1.273 . S
O51 Zn42 1.977 . S
O51 C44 1.267 . S
C52 O53 1.160 . S
C52 O59 1.185 . S
O53 C52 1.160 . S
O54 Zn55 1.899 . S
O54 C62 1.284 . S
Zn55 O54 1.899 . S
Zn55 O56 2.032 . S
Zn55 O59 2.086 . S
Zn55 O64 1.977 . S
O56 Zn55 2.032 . S
O56 C60 1.278 . S
C57 O58 1.203 . S
C57 O64 1.267 . S
O58 C57 1.203 . S
O59 C52 1.185 . S
O59 Zn55 2.086 . S
C60 O56 1.278 . S
C60 O61 1.211 . S
O61 C60 1.211 . S
C62 O54 1.284 . S
C62 O63 1.273 . S
O63 C62 1.273 . S
O64 Zn55 1.977 . S
O64 C57 1.267 . S
C65 O66 1.160 . S
C65 O72 1.185 . S
O66 C65 1.160 . S
O67 Zn68 1.899 . S
O67 C75 1.284 1_545 S
Zn68 O67 1.899 . S
Zn68 O69 2.032 . S
Zn68 O72 2.086 . S
Zn68 O77 1.977 . S
O69 Zn68 2.032 . S
O69 C73 1.278 . S
C70 O71 1.203 1_545 S
C70 O77 1.267 . S
O71 C70 1.203 1_565 S
O72 C65 1.185 . S
O72 Zn68 2.086 . S
C73 O69 1.278 . S
C73 O74 1.211 . S
O74 C73 1.211 . S
C75 O67 1.284 1_565 S
C75 O76 1.273 . S
O76 C75 1.273 . S
O77 Zn68 1.977 . S
O77 C70 1.267 . S
C78 O79 1.160 . S
C78 O85 1.185 . S
O79 C78 1.160 . S
O80 Zn81 1.899 . S
O80 C88 1.284 . S
Zn81 O80 1.899 . S
Zn81 O82 2.032 . S
Zn81 O85 2.086 . S
Zn81 O90 1.977 . S
O82 Zn81 2.032 . S
O82 C86 1.278 . S
C83 O84 1.203 . S
C83 O90 1.267 . S
O84 C83 1.203 . S
O85 C78 1.185 . S
O85 Zn81 2.086 . S
C86 O82 1.278 . S
C86 O87 1.211 . S
O87 C86 1.211 . S
C88 O80 1.284 . S
C88 O89 1.273 . S
O89 C88 1.273 . S
O90 Zn81 1.977 . S
O90 C83 1.267 . S
C91 O92 1.160 . S
C91 O98 1.185 . S
O92 C91 1.160 . S
O93 Zn94 1.899 . S
O93 C101 1.284 1_565 S
Zn94 O93 1.899 . S
Zn94 O95 2.032 . S
Zn94 O98 2.086 . S
Zn94 O103 1.977 . S
O95 Zn94 2.032 . S
O95 C99 1.278 . S
C96 O97 1.203 1_565 S
C96 O103 1.267 . S
O97 C96 1.203 1_545 S
O98 C91 1.185 . S
O98 Zn94 2.086 . S
C99 O95 1.278 . S
C99 O100 1.211 . S
O100 C99 1.211 . S
C101 O93 1.284 1_545 S
C101 O102 1.273 . S
O102 C101 1.273 . S
O103 Zn94 1.977 . S
O103 C96 1.267 . S
C8 C73 1.326 1_554 S
C21 C86 1.326 . S
C34 C99 1.326 1_554 S
C60 C47 1.326 . S
C0 C62 2.164 . S
C13 C75 2.164 . S
C88 C26 2.164 . S
C39 C101 2.164 . S
C52 C10 2.164 . S
C23 C65 2.164 . S
C78 C36 2.164 . S
C49 C91 2.164 . S
C31 C5 0.532 1_655 S
C44 C18 0.532 1_655 S
C57 C83 0.532 1_545 S
C70 C96 0.532 1_545 S
