# Generated by pormake.
# Topology sxc, (6)-cn, num edge types: 1
# Building blocks:
#     Node 0, Type 0, BuildingBlock: BETDEL_clean_sbu_0, # of connection points: 6
#     Node 1, Type 0, BuildingBlock: BETDEL_clean_sbu_0, # of connection points: 6
#     Node 2, Type 0, BuildingBlock: BETDEL_clean_sbu_0, # of connection points: 6
#     Edge 3, Type (0, 0), None
#     Edge 4, Type (0, 0), None
#     Edge 5, Type (0, 0), None
#     Edge 6, Type (0, 0), None
#     Edge 7, Type (0, 0), None
#     Edge 8, Type (0, 0), None
#     Edge 9, Type (0, 0), None
#     Edge 10, Type (0, 0), None
#     Edge 11, Type (0, 0), None
# Relax obj value: 0.197
# Max RMSD: 0.093
# Mean RMSD: 0.065
data_MOF--net-sxc--node1-BETDEL_clean_sbu_0--edge1-none
_symmetry_space_group_name_H-M    P1
_symmetry_Int_Tables_number       1
_symmetry_cell_setting            triclinic
loop_
_symmetry_equiv_pos_as_xyz
'x, y, z'
_cell_length_a     7.7691834
_cell_length_b     7.3095674
_cell_length_c     19.580923
_cell_angle_alpha  91.620634
_cell_angle_beta   95.350722
_cell_angle_gamma 109.00245
loop_
_atom_site_label
_atom_site_type_symbol
_atom_site_fract_x
_atom_site_fract_y
_atom_site_fract_z
_atom_type_partial_charge
Dy0 Dy 0.25992 0.08559 -0.00473 0.0
C1 C 0.60034 0.60622 0.9859 0.0
C2 C 0.53242 0.41676 -0.0077 0.0
Dy3 Dy 0.87051 0.9396 0.98491 0.0
O4 O 0.47308 0.34438 0.04847 0.0
O5 O 0.48002 0.28644 0.94076 0.0
O6 O 0.28766 0.99073 0.1021 0.0
O7 O 0.06846 0.09105 0.06894 0.0
C8 C 0.13853 1.01937 0.11741 0.0
C9 C 0.98595 1.02003 0.86353 0.0
O10 O 0.9022 0.26515 0.00703 0.0
O11 O 0.17588 0.34538 0.96345 0.0
O12 O 0.66259 0.67914 0.93013 0.0
O13 O 0.64857 0.73647 0.03752 0.0
O14 O 0.84105 0.05107 0.88242 0.0
O15 O 1.06032 0.94222 0.90937 0.0
O16 O 0.22886 0.76048 0.97444 0.0
O17 O 0.95679 0.68279 0.01869 0.0
C18 C 1.05063 0.4034 0.98861 0.0
C19 C 0.08057 0.62332 -0.00688 0.0
Dy20 Dy 0.98309 1.01458 0.31103 0.0
C21 C 0.52513 0.08899 0.33199 0.0
C22 C 0.67109 0.04939 0.32931 0.0
Dy23 Dy 0.20539 0.11027 0.34539 0.0
O24 O 0.68931 0.9307 0.28198 0.0
O25 O 0.8171 0.13724 0.36948 0.0
O26 O 0.95224 0.8772 0.20672 0.0
O27 O 0.16209 0.1516 0.23387 0.0
C28 C 0.08612 1.01704 0.18712 0.0
C29 C 0.08508 0.066 0.46856 0.0
O30 O 0.24562 0.42734 0.35361 0.0
O31 O 0.97468 0.31784 0.29403 0.0
O32 O 0.50028 0.20306 0.37949 0.0
O33 O 0.38299 1.00115 0.29022 0.0
O34 O 0.19842 0.22757 0.45161 0.0
O35 O 1.03259 0.94086 0.41827 0.0
O36 O 0.94535 0.69738 0.30173 0.0
O37 O 0.2209 0.80782 0.35809 0.0
C38 C 0.10526 0.46547 0.32447 0.0
C39 C 0.08949 0.6602 0.32791 0.0
Dy40 Dy 0.99926 0.86889 0.65739 0.0
C41 C 0.48544 0.517 0.66925 0.0
C42 C 0.67094 0.59412 0.67514 0.0
Dy43 Dy 0.15574 0.24444 0.68627 0.0
O44 O 0.77647 0.57753 0.62824 0.0
O45 O 0.76479 0.73291 0.72018 0.0
O46 O 0.07374 0.8388 0.5545 0.0
O47 O 1.01913 0.09965 0.58622 0.0
C48 C 0.07409 1.01159 0.53955 0.0
C49 C 1.06494 0.10129 0.80197 0.0
O50 O 0.83616 0.22964 0.68925 0.0
O51 O 0.72747 0.93583 0.63503 0.0
O52 O 0.38001 0.53405 0.71618 0.0
O53 O 0.39108 0.37932 0.62383 0.0
O54 O 1.06361 0.27288 0.78605 0.0
O55 O 0.13016 1.0158 0.75779 0.0
O56 O 0.31863 0.88502 0.65374 0.0
O57 O 0.42602 0.17526 0.71032 0.0
C58 C 0.68534 0.07201 0.66758 0.0
C59 C 0.46909 0.04151 0.67659 0.0
loop_
_geom_bond_atom_site_label_1
_geom_bond_atom_site_label_2
_geom_bond_distance
_geom_bond_site_symmetry_2
_ccdc_geom_bond_type
Dy0 O4 2.398 . S
Dy0 O5 2.491 1_554 S
Dy0 O6 2.403 . S
Dy0 O7 2.664 1_445 S
Dy0 O11 2.326 . S
Dy0 O15 2.310 1_554 S
Dy0 O16 2.351 1_545 S
C1 O12 1.178 1_554 S
C1 O13 1.361 . S
C2 O4 1.185 . S
C2 O5 1.355 1_554 S
Dy3 O7 2.310 1_556 S
Dy3 O10 2.351 1_565 S
Dy3 O12 2.398 . S
Dy3 O13 2.491 1_556 S
Dy3 O14 2.403 . S
Dy3 O15 2.664 1_665 S
Dy3 O17 2.326 . S
O4 Dy0 2.398 . S
O4 C2 1.185 . S
O5 Dy0 2.491 1_556 S
O5 C2 1.355 1_556 S
O6 Dy0 2.403 . S
O6 C8 1.254 . S
O7 Dy0 2.664 1_665 S
O7 Dy3 2.310 1_554 S
O7 C8 1.268 1_665 S
C8 O6 1.254 . S
C8 O7 1.268 1_445 S
C9 O14 1.254 1_545 S
C9 O15 1.268 1_655 S
O10 Dy3 2.351 1_545 S
O10 C18 1.249 1_656 S
O11 Dy0 2.326 . S
O11 C18 1.267 . S
O12 C1 1.178 1_556 S
O12 Dy3 2.398 . S
O13 C1 1.361 . S
O13 Dy3 2.491 1_554 S
O14 Dy3 2.403 . S
O14 C9 1.254 1_565 S
O15 Dy0 2.310 1_556 S
O15 Dy3 2.664 1_445 S
O15 C9 1.268 1_455 S
O16 Dy0 2.351 1_565 S
O16 C19 1.248 1_554 S
O17 Dy3 2.326 . S
O17 C19 1.269 1_655 S
C18 O10 1.249 1_454 S
C18 O11 1.267 . S
C19 O16 1.248 1_556 S
C19 O17 1.269 1_455 S
Dy20 O24 2.398 . S
Dy20 O25 2.491 1_565 S
Dy20 O26 2.403 . S
Dy20 O27 2.664 1_655 S
Dy20 O31 2.326 1_565 S
Dy20 O35 2.310 1_565 S
Dy20 O36 2.351 . S
C21 O32 1.185 1_565 S
C21 O33 1.355 . S
C22 O24 1.185 1_545 S
C22 O25 1.355 . S
Dy23 O27 2.310 1_545 S
Dy23 O30 2.351 . S
Dy23 O32 2.398 . S
Dy23 O33 2.491 1_545 S
Dy23 O34 2.403 . S
Dy23 O35 2.664 1_455 S
Dy23 O37 2.326 1_545 S
O24 Dy20 2.398 . S
O24 C22 1.185 1_565 S
O25 Dy20 2.491 1_545 S
O25 C22 1.355 . S
O26 Dy20 2.403 . S
O26 C28 1.254 . S
O27 Dy20 2.664 1_455 S
O27 Dy23 2.310 1_565 S
O27 C28 1.268 1_455 S
C28 O26 1.254 . S
C28 O27 1.268 1_655 S
C29 O34 1.254 . S
C29 O35 1.268 1_455 S
O30 Dy23 2.351 . S
O30 C38 1.249 1_455 S
O31 Dy20 2.326 1_545 S
O31 C38 1.267 . S
O32 C21 1.185 1_545 S
O32 Dy23 2.398 . S
O33 C21 1.355 . S
O33 Dy23 2.491 1_565 S
O34 Dy23 2.403 . S
O34 C29 1.254 . S
O35 Dy20 2.310 1_545 S
O35 Dy23 2.664 1_655 S
O35 C29 1.268 1_655 S
O36 Dy20 2.351 . S
O36 C39 1.249 1_655 S
O37 Dy23 2.326 1_565 S
O37 C39 1.267 . S
C38 O30 1.249 1_655 S
C38 O31 1.267 . S
C39 O36 1.249 1_455 S
C39 O37 1.267 . S
Dy40 O44 2.398 . S
Dy40 O45 2.491 . S
Dy40 O46 2.403 . S
Dy40 O47 2.664 1_665 S
Dy40 O51 2.326 . S
Dy40 O55 2.310 . S
Dy40 O56 2.351 1_655 S
C41 O52 1.185 . S
C41 O53 1.355 . S
C42 O44 1.185 . S
C42 O45 1.355 . S
Dy43 O47 2.310 . S
Dy43 O50 2.351 1_455 S
Dy43 O52 2.398 . S
Dy43 O53 2.491 . S
Dy43 O54 2.403 . S
Dy43 O55 2.664 1_445 S
Dy43 O57 2.326 . S
O44 Dy40 2.398 . S
O44 C42 1.185 . S
O45 Dy40 2.491 . S
O45 C42 1.355 . S
O46 Dy40 2.403 . S
O46 C48 1.254 . S
O47 Dy40 2.664 1_445 S
O47 Dy43 2.310 . S
O47 C48 1.268 1_445 S
C48 O46 1.254 . S
C48 O47 1.268 1_665 S
C49 O54 1.254 . S
C49 O55 1.268 1_445 S
O50 Dy43 2.351 1_655 S
O50 C58 1.249 . S
O51 Dy40 2.326 . S
O51 C58 1.267 1_565 S
O52 C41 1.185 . S
O52 Dy43 2.398 . S
O53 C41 1.355 . S
O53 Dy43 2.491 . S
O54 Dy43 2.403 . S
O54 C49 1.254 . S
O55 Dy40 2.310 . S
O55 Dy43 2.664 1_665 S
O55 C49 1.268 1_665 S
O56 Dy40 2.351 1_455 S
O56 C59 1.249 . S
O57 Dy43 2.326 . S
O57 C59 1.267 1_545 S
C58 O50 1.249 . S
C58 O51 1.267 1_545 S
C59 O56 1.249 . S
C59 O57 1.267 1_565 S
C18 C19 2.267 1_554 S
C21 C22 0.627 1_565 S
C42 C41 1.605 . S
C58 C59 3.503 1_545 S
C1 C2 0.956 . S
C38 C39 2.326 1_655 S
C28 C8 1.558 1_665 S
C29 C48 1.436 1_445 S
C49 C9 1.461 1_455 S
