# Generated by pormake.
# Topology wjd, (6)-cn, num edge types: 1
# Building blocks:
#     Node 0, Type 0, BuildingBlock: MIFKUJ_clean_sbu_0, # of connection points: 6
#     Node 1, Type 0, BuildingBlock: MIFKUJ_clean_sbu_0, # of connection points: 6
#     Node 2, Type 0, BuildingBlock: MIFKUJ_clean_sbu_0, # of connection points: 6
#     Node 3, Type 0, BuildingBlock: MIFKUJ_clean_sbu_0, # of connection points: 6
#     Node 4, Type 0, BuildingBlock: MIFKUJ_clean_sbu_0, # of connection points: 6
#     Node 5, Type 0, BuildingBlock: MIFKUJ_clean_sbu_0, # of connection points: 6
#     Node 6, Type 0, BuildingBlock: MIFKUJ_clean_sbu_0, # of connection points: 6
#     Node 7, Type 0, BuildingBlock: MIFKUJ_clean_sbu_0, # of connection points: 6
#     Node 8, Type 0, BuildingBlock: MIFKUJ_clean_sbu_0, # of connection points: 6
#     Node 9, Type 0, BuildingBlock: MIFKUJ_clean_sbu_0, # of connection points: 6
#     Node 10, Type 0, BuildingBlock: MIFKUJ_clean_sbu_0, # of connection points: 6
#     Node 11, Type 0, BuildingBlock: MIFKUJ_clean_sbu_0, # of connection points: 6
#     Edge 12, Type (0, 0), None
#     Edge 13, Type (0, 0), None
#     Edge 14, Type (0, 0), None
#     Edge 15, Type (0, 0), None
#     Edge 16, Type (0, 0), None
#     Edge 17, Type (0, 0), None
#     Edge 18, Type (0, 0), None
#     Edge 19, Type (0, 0), None
#     Edge 20, Type (0, 0), None
#     Edge 21, Type (0, 0), None
#     Edge 22, Type (0, 0), None
#     Edge 23, Type (0, 0), None
#     Edge 24, Type (0, 0), None
#     Edge 25, Type (0, 0), None
#     Edge 26, Type (0, 0), None
#     Edge 27, Type (0, 0), None
#     Edge 28, Type (0, 0), None
#     Edge 29, Type (0, 0), None
#     Edge 30, Type (0, 0), None
#     Edge 31, Type (0, 0), None
#     Edge 32, Type (0, 0), None
#     Edge 33, Type (0, 0), None
#     Edge 34, Type (0, 0), None
#     Edge 35, Type (0, 0), None
#     Edge 36, Type (0, 0), None
#     Edge 37, Type (0, 0), None
#     Edge 38, Type (0, 0), None
#     Edge 39, Type (0, 0), None
#     Edge 40, Type (0, 0), None
#     Edge 41, Type (0, 0), None
#     Edge 42, Type (0, 0), None
#     Edge 43, Type (0, 0), None
#     Edge 44, Type (0, 0), None
#     Edge 45, Type (0, 0), None
#     Edge 46, Type (0, 0), None
#     Edge 47, Type (0, 0), None
# Relax obj value: 0.110
# Max RMSD: 0.243
# Mean RMSD: 0.243
data_MOF--net-wjd--node1-MIFKUJ_clean_sbu_0--edge1-none
_symmetry_space_group_name_H-M    P1
_symmetry_Int_Tables_number       1
_symmetry_cell_setting            triclinic
loop_
_symmetry_equiv_pos_as_xyz
'x, y, z'
_cell_length_a     19.572857
_cell_length_b     19.57283
_cell_length_c     22.859228
_cell_angle_alpha  89.996294
_cell_angle_beta   90.00175
_cell_angle_gamma 119.99964
loop_
_atom_site_label
_atom_site_type_symbol
_atom_site_fract_x
_atom_site_fract_y
_atom_site_fract_z
_atom_type_partial_charge
Zn0 Zn 0.1967 0.03959 0.04127 0.0
Zn1 Zn 0.42541 0.11622 0.03714 0.0
C2 C 0.11628 0.12279 0.04743 0.0
O3 O 0.10655 0.0929 0.10027 0.0
C4 C 0.5875 0.15171 0.01898 0.0
O5 O 0.57438 0.16 -0.03619 0.0
O6 O 0.09352 0.94181 0.06085 0.0
O7 O 0.24979 0.00972 -0.01956 0.0
O8 O 0.37302 0.03393 -0.0266 0.0
C9 C 0.04645 0.88721 0.02674 0.0
O10 O 0.06489 0.88838 -0.02861 0.0
O11 O 0.16182 0.11468 0.01204 0.0
C12 C 0.47656 0.28073 0.04055 0.0
O13 O 0.47299 0.26726 0.09706 0.0
O14 O 0.45306 0.22323 0.00519 0.0
O15 O 0.375 0.09858 0.11725 0.0
O16 O 0.24936 0.06889 0.1189 0.0
O17 O 0.53177 0.129 0.05584 0.0
C18 C 0.30288 0.00266 -0.04603 0.0
C19 C 0.31323 0.08571 0.14475 0.0
Zn20 Zn 0.65033 0.52401 0.31653 0.0
Zn21 Zn 0.80242 0.75273 0.31238 0.0
C22 C 0.52372 0.36192 0.33467 0.0
O23 O 0.54514 0.37502 0.38984 0.0
C24 C 0.96605 0.83316 0.30622 0.0
O25 O 0.94588 0.84289 0.25339 0.0
O26 O 0.72966 0.49632 0.34847 0.0
O27 O 0.68312 0.57443 0.23641 0.0
O28 O 0.77907 0.70006 0.23475 0.0
C29 C 0.7637 0.47286 0.31311 0.0
O30 O 0.75385 0.47649 0.2566 0.0
O31 O 0.55673 0.41765 0.29782 0.0
C32 C 0.8003 0.90298 0.32692 0.0
O33 O 0.78304 0.88454 0.38227 0.0
O34 O 0.80782 0.85591 0.2928 0.0
O35 O 0.71946 0.69962 0.37321 0.0
O36 O 0.62042 0.57639 0.38027 0.0
O37 O 0.91239 0.78761 0.34161 0.0
C38 C 0.73202 0.6362 0.20891 0.0
C39 C 0.6593 0.64654 0.39969 0.0
Zn40 Zn 0.90985 0.147 0.04128 0.0
Zn41 Zn 0.83322 0.2991 0.03713 0.0
C42 C 0.82666 -0.01663 0.04744 0.0
O43 O 0.85656 0.00353 0.10027 0.0
C44 C 0.79777 0.42574 0.01899 0.0
O45 O 0.78949 0.40434 -0.03619 0.0
O46 O 0.00763 0.14161 0.06086 0.0
O47 O 0.9397 0.22997 -0.01954 0.0
O48 O 0.91551 0.32901 -0.02661 0.0
C49 C 0.06223 0.14915 0.02674 0.0
O50 O 0.06105 0.1664 -0.02862 0.0
O51 O 0.83477 0.03704 0.01205 0.0
C52 C 0.66871 0.18573 0.04055 0.0
O53 O 0.68216 0.19555 0.09706 0.0
O54 O 0.72621 0.21978 0.00519 0.0
O55 O 0.85085 0.2663 0.11725 0.0
O56 O 0.88054 0.17036 0.11891 0.0
O57 O 0.82047 0.3927 0.05585 0.0
C58 C 0.94677 0.29012 -0.04603 0.0
C59 C 0.86371 0.2174 0.14475 0.0
Zn60 Zn 0.42541 0.1162 0.31652 0.0
Zn61 Zn 0.19669 0.03959 0.31238 0.0
C62 C 0.5875 0.15166 0.33466 0.0
O63 O 0.57438 0.15995 0.38984 0.0
C64 C 0.11626 0.12278 0.30622 0.0
O65 O 0.10652 0.09288 0.25339 0.0
O66 O 0.4531 0.22322 0.34845 0.0
O67 O 0.37499 0.09858 0.2364 0.0
O68 O 0.24936 0.06889 0.23475 0.0
C69 C 0.47654 0.28072 0.3131 0.0
O70 O 0.47288 0.26727 0.25658 0.0
O71 O 0.53177 0.12895 0.29781 0.0
C72 C 0.04644 0.88722 0.32692 0.0
O73 O 0.06487 0.88838 0.38227 0.0
O74 O 0.09351 0.94181 0.2928 0.0
O75 O 0.24979 0.00973 0.3732 0.0
O76 O 0.37302 0.03392 0.38026 0.0
O77 O 0.16181 0.11467 0.3416 0.0
C78 C 0.31323 0.08572 0.2089 0.0
C79 C 0.30288 0.00266 0.39968 0.0
Zn80 Zn 0.80243 0.75273 0.04128 0.0
Zn81 Zn 0.65035 0.52403 0.03715 0.0
C82 C 0.96605 0.83316 0.04744 0.0
O83 O 0.9459 0.8429 0.10028 0.0
C84 C 0.52372 0.36194 0.01898 0.0
O85 O 0.54508 0.37506 -0.0362 0.0
O86 O 0.80783 0.85591 0.06085 0.0
O87 O 0.71948 0.69964 -0.01955 0.0
O88 O 0.62044 0.57641 -0.02659 0.0
C89 C 0.8003 0.90297 0.02674 0.0
O90 O 0.78304 0.88455 -0.02862 0.0
O91 O 0.9124 0.78761 0.01205 0.0
C92 C 0.76375 0.47291 0.04056 0.0
O93 O 0.75391 0.47651 0.09707 0.0
O94 O 0.72971 0.49637 0.0052 0.0
O95 O 0.68312 0.57443 0.11727 0.0
O96 O 0.77906 0.70006 0.11891 0.0
O97 O 0.55677 0.41765 0.05585 0.0
C98 C 0.65932 0.64655 -0.04602 0.0
C99 C 0.73203 0.63619 0.14476 0.0
Zn100 Zn 0.83321 0.29908 0.31651 0.0
Zn101 Zn 0.90983 0.14699 0.31239 0.0
C102 C 0.79773 0.42569 0.33468 0.0
O103 O 0.78944 0.40429 0.38985 0.0
C104 C 0.82664 -0.01663 0.30622 0.0
O105 O 0.85652 0.00354 0.25338 0.0
O106 O 0.72619 0.21973 0.34845 0.0
O107 O 0.85084 0.26631 0.23639 0.0
O108 O 0.88053 0.17036 0.23476 0.0
C109 C 0.6687 0.18568 0.31309 0.0
O110 O 0.68215 0.19551 0.25658 0.0
O111 O 0.82043 0.39267 0.29781 0.0
C112 C 0.0622 0.14912 0.32692 0.0
O113 O 0.06106 0.1664 0.38227 0.0
O114 O 0.0076 0.14159 0.29281 0.0
O115 O 0.9397 0.22994 0.37322 0.0
O116 O 0.9155 0.32898 0.38025 0.0
O117 O 0.83475 0.03703 0.34162 0.0
C118 C 0.8637 0.2174 0.2089 0.0
C119 C 0.94676 0.29011 0.39969 0.0
Zn120 Zn 0.10608 0.43553 0.53713 0.0
Zn121 Zn 0.02946 0.20681 0.54128 0.0
C122 C 0.14155 0.59762 0.51899 0.0
O123 O 0.14985 0.58451 0.46382 0.0
C124 C 0.11265 0.12637 0.54744 0.0
O125 O 0.08275 0.11664 0.60028 0.0
O126 O 0.2131 0.46322 0.50519 0.0
O127 O 0.08846 0.38511 0.61725 0.0
O128 O 0.05877 0.25947 0.61891 0.0
C129 C 0.27061 0.48668 0.54055 0.0
O130 O 0.25714 0.48305 0.59706 0.0
O131 O 0.11883 0.54188 0.55585 0.0
C132 C 0.8771 0.05656 0.52674 0.0
O133 O 0.87828 0.075 0.47139 0.0
O134 O 0.93168 0.10363 0.56086 0.0
O135 O -0.00039 0.25992 0.48046 0.0
O136 O 0.0238 0.38315 0.47339 0.0
O137 O 0.10454 0.17192 0.51205 0.0
C138 C 0.07559 0.32334 0.64475 0.0
C139 C -0.00746 0.313 0.45397 0.0
Zn140 Zn 0.13688 0.91996 0.81238 0.0
Zn141 Zn 0.28897 0.84333 0.81653 0.0
C142 C -0.02675 0.83676 0.80622 0.0
O143 O -0.00658 0.86666 0.75339 0.0
C144 C 0.4156 0.80786 0.83468 0.0
O145 O 0.39419 0.79958 0.88985 0.0
O146 O 0.13149 0.01774 0.7928 0.0
O147 O 0.21984 0.94982 0.87321 0.0
O148 O 0.31888 0.92562 0.88027 0.0
C149 C 0.13902 0.07234 0.82692 0.0
O150 O 0.15629 0.07116 0.88227 0.0
O151 O 0.02692 0.84488 0.84161 0.0
C152 C 0.17563 0.67881 0.81312 0.0
O153 O 0.18551 0.69228 0.75661 0.0
O154 O 0.20963 0.73632 0.84847 0.0
O155 O 0.25618 0.86096 0.73641 0.0
O156 O 0.16024 0.89065 0.73475 0.0
O157 O 0.38257 0.83057 0.79782 0.0
C158 C 0.28 0.95689 0.89969 0.0
C159 C 0.20728 0.87383 0.70891 0.0
Zn160 Zn 0.5139 0.66046 0.53714 0.0
Zn161 Zn 0.74261 0.81254 0.54127 0.0
C162 C 0.35181 0.53385 0.51898 0.0
O163 O 0.36491 0.55525 0.4638 0.0
C164 C 0.82303 0.97616 0.54744 0.0
O165 O 0.83275 0.956 0.60028 0.0
O166 O 0.48624 0.73981 0.5052 0.0
O167 O 0.56431 0.69323 0.61726 0.0
O168 O 0.68994 0.78918 0.6189 0.0
C169 C 0.46276 0.77384 0.54055 0.0
O170 O 0.46636 0.76397 0.59707 0.0
O171 O 0.40753 0.56687 0.55584 0.0
C172 C 0.89286 0.81042 0.52675 0.0
O173 O 0.87442 0.79315 0.4714 0.0
O174 O 0.84578 0.81794 0.56086 0.0
O175 O 0.68952 0.72959 0.48044 0.0
O176 O 0.56628 0.63056 0.4734 0.0
O177 O 0.7775 0.92251 0.51204 0.0
C178 C 0.62608 0.74214 0.64475 0.0
C179 C 0.63642 0.66943 0.45397 0.0
Zn180 Zn 0.02948 0.20682 0.81239 0.0
Zn181 Zn 0.10611 0.43551 0.81652 0.0
C182 C 0.11267 0.12639 0.80622 0.0
O183 O 0.08278 0.11666 0.75338 0.0
C184 C 0.14158 0.59761 0.83468 0.0
O185 O 0.14983 0.58449 0.88987 0.0
O186 O 0.93171 0.10364 0.79281 0.0
O187 O -0.0004 0.25989 0.87322 0.0
O188 O 0.02381 0.38313 0.88025 0.0
C189 C 0.8771 0.05656 0.82692 0.0
O190 O 0.87827 0.075 0.88227 0.0
O191 O 0.10456 0.17193 0.84161 0.0
C192 C 0.27062 0.48665 0.81311 0.0
O193 O 0.25716 0.48309 0.7566 0.0
O194 O 0.21311 0.46315 0.84846 0.0
O195 O 0.08847 0.38512 0.73639 0.0
O196 O 0.05878 0.25949 0.73476 0.0
O197 O 0.11891 0.54189 0.79782 0.0
C198 C -0.00746 0.31299 0.89968 0.0
C199 C 0.07561 0.32335 0.7089 0.0
Zn200 Zn 0.28896 0.84333 0.53715 0.0
Zn201 Zn 0.13687 0.91994 0.54128 0.0
C202 C 0.41559 0.80788 0.51899 0.0
O203 O 0.39422 0.79961 0.46381 0.0
C204 C -0.02675 0.83676 0.54745 0.0
O205 O -0.00659 0.86664 0.60028 0.0
O206 O 0.20962 0.73632 0.50521 0.0
O207 O 0.25619 0.86096 0.61727 0.0
O208 O 0.16024 0.89064 0.61891 0.0
C209 C 0.17557 0.67882 0.54056 0.0
O210 O 0.18538 0.69227 0.59708 0.0
O211 O 0.38256 0.83055 0.55585 0.0
C212 C 0.13899 0.07232 0.52674 0.0
O213 O 0.15626 0.07117 0.47139 0.0
O214 O 0.13147 0.01772 0.56086 0.0
O215 O 0.21983 0.94982 0.48045 0.0
O216 O 0.31887 0.92562 0.47341 0.0
O217 O 0.02691 0.84487 0.51205 0.0
C218 C 0.20728 0.87382 0.64476 0.0
C219 C 0.27999 0.95688 0.45398 0.0
Zn220 Zn 0.74261 0.81255 0.81238 0.0
Zn221 Zn 0.5139 0.66046 0.81652 0.0
C222 C 0.82306 0.97617 0.80621 0.0
O223 O 0.8328 0.95602 0.75338 0.0
C224 C 0.35182 0.53381 0.83468 0.0
O225 O 0.36493 0.55516 0.88986 0.0
O226 O 0.84579 0.81794 0.7928 0.0
O227 O 0.68951 0.72958 0.8732 0.0
O228 O 0.56628 0.63054 0.88026 0.0
C229 C 0.89286 0.81041 0.82692 0.0
O230 O 0.87443 0.79316 0.88228 0.0
O231 O 0.7775 0.92251 0.8416 0.0
C232 C 0.46277 0.77384 0.81311 0.0
O233 O 0.46638 0.76401 0.75659 0.0
O234 O 0.48623 0.73979 0.84846 0.0
O235 O 0.56431 0.69324 0.7364 0.0
O236 O 0.68995 0.78919 0.73474 0.0
O237 O 0.40754 0.56687 0.79781 0.0
C238 C 0.63643 0.66943 0.89969 0.0
C239 C 0.62608 0.74215 0.7089 0.0
loop_
_geom_bond_atom_site_label_1
_geom_bond_atom_site_label_2
_geom_bond_distance
_geom_bond_site_symmetry_2
_ccdc_geom_bond_type
Zn0 O6 1.969 1_545 S
Zn0 O7 1.965 . S
Zn0 O11 2.024 . S
Zn0 O16 1.969 . S
Zn1 O8 1.969 . S
Zn1 O14 1.969 . S
Zn1 O15 1.965 . S
Zn1 O17 2.024 . S
C2 O3 1.229 . S
C2 O11 1.058 . S
O3 C2 1.229 . S
C4 O5 1.229 . S
C4 O17 1.058 . S
O5 C4 1.229 . S
O6 Zn0 1.969 1_565 S
O6 C9 1.267 . S
O7 Zn0 1.965 . S
O7 C18 1.260 . S
O8 Zn1 1.969 . S
O8 C18 1.258 . S
C9 O6 1.267 . S
C9 O10 1.228 . S
O10 C9 1.228 . S
O11 Zn0 2.024 . S
O11 C2 1.058 . S
C12 O13 1.228 . S
C12 O14 1.267 . S
O13 C12 1.228 . S
O14 Zn1 1.969 . S
O14 C12 1.267 . S
O15 Zn1 1.965 . S
O15 C19 1.260 . S
O16 Zn0 1.969 . S
O16 C19 1.258 . S
O17 Zn1 2.024 . S
O17 C4 1.058 . S
C18 O7 1.260 . S
C18 O8 1.258 . S
C19 O15 1.260 . S
C19 O16 1.258 . S
Zn20 O26 1.969 . S
Zn20 O27 1.965 . S
Zn20 O31 2.024 . S
Zn20 O36 1.969 . S
Zn21 O28 1.969 . S
Zn21 O34 1.969 . S
Zn21 O35 1.965 . S
Zn21 O37 2.024 . S
C22 O23 1.229 . S
C22 O31 1.058 . S
O23 C22 1.229 . S
C24 O25 1.229 . S
C24 O37 1.058 1_455 S
O25 C24 1.229 . S
O26 Zn20 1.969 . S
O26 C29 1.267 . S
O27 Zn20 1.965 . S
O27 C38 1.260 . S
O28 Zn21 1.969 . S
O28 C38 1.258 . S
C29 O26 1.267 . S
C29 O30 1.228 . S
O30 C29 1.228 . S
O31 Zn20 2.024 . S
O31 C22 1.058 . S
C32 O33 1.228 . S
C32 O34 1.267 . S
O33 C32 1.228 . S
O34 Zn21 1.969 . S
O34 C32 1.267 . S
O35 Zn21 1.965 . S
O35 C39 1.260 . S
O36 Zn20 1.969 . S
O36 C39 1.258 . S
O37 Zn21 2.024 . S
O37 C24 1.058 1_655 S
C38 O27 1.260 . S
C38 O28 1.258 . S
C39 O35 1.260 . S
C39 O36 1.258 . S
Zn40 O46 1.969 1_655 S
Zn40 O47 1.965 . S
Zn40 O51 2.024 . S
Zn40 O56 1.969 . S
Zn41 O48 1.969 . S
Zn41 O54 1.969 . S
Zn41 O55 1.965 . S
Zn41 O57 2.024 . S
C42 O43 1.229 . S
C42 O51 1.058 1_565 S
O43 C42 1.229 . S
C44 O45 1.229 . S
C44 O57 1.058 . S
O45 C44 1.229 . S
O46 Zn40 1.969 1_455 S
O46 C49 1.267 . S
O47 Zn40 1.965 . S
O47 C58 1.260 . S
O48 Zn41 1.969 . S
O48 C58 1.258 . S
C49 O46 1.267 . S
C49 O50 1.228 . S
O50 C49 1.228 . S
O51 Zn40 2.024 . S
O51 C42 1.058 1_545 S
C52 O53 1.228 . S
C52 O54 1.267 . S
O53 C52 1.228 . S
O54 Zn41 1.969 . S
O54 C52 1.267 . S
O55 Zn41 1.965 . S
O55 C59 1.260 . S
O56 Zn40 1.969 . S
O56 C59 1.258 . S
O57 Zn41 2.024 . S
O57 C44 1.058 . S
C58 O47 1.260 . S
C58 O48 1.258 . S
C59 O55 1.260 . S
C59 O56 1.258 . S
Zn60 O66 1.969 . S
Zn60 O67 1.965 . S
Zn60 O71 2.024 . S
Zn60 O76 1.969 . S
Zn61 O68 1.969 . S
Zn61 O74 1.969 1_545 S
Zn61 O75 1.965 . S
Zn61 O77 2.024 . S
C62 O63 1.229 . S
C62 O71 1.058 . S
O63 C62 1.229 . S
C64 O65 1.229 . S
C64 O77 1.058 . S
O65 C64 1.229 . S
O66 Zn60 1.969 . S
O66 C69 1.267 . S
O67 Zn60 1.965 . S
O67 C78 1.260 . S
O68 Zn61 1.969 . S
O68 C78 1.258 . S
C69 O66 1.267 . S
C69 O70 1.228 . S
O70 C69 1.228 . S
O71 Zn60 2.024 . S
O71 C62 1.058 . S
C72 O73 1.228 . S
C72 O74 1.267 . S
O73 C72 1.228 . S
O74 Zn61 1.969 1_565 S
O74 C72 1.267 . S
O75 Zn61 1.965 . S
O75 C79 1.260 . S
O76 Zn60 1.969 . S
O76 C79 1.258 . S
O77 Zn61 2.024 . S
O77 C64 1.058 . S
C78 O67 1.260 . S
C78 O68 1.258 . S
C79 O75 1.260 . S
C79 O76 1.258 . S
Zn80 O86 1.969 . S
Zn80 O87 1.965 . S
Zn80 O91 2.024 . S
Zn80 O96 1.969 . S
Zn81 O88 1.969 . S
Zn81 O94 1.969 . S
Zn81 O95 1.965 . S
Zn81 O97 2.024 . S
C82 O83 1.229 . S
C82 O91 1.058 1_455 S
O83 C82 1.229 . S
C84 O85 1.229 . S
C84 O97 1.058 . S
O85 C84 1.229 . S
O86 Zn80 1.969 . S
O86 C89 1.267 . S
O87 Zn80 1.965 . S
O87 C98 1.260 . S
O88 Zn81 1.969 . S
O88 C98 1.258 . S
C89 O86 1.267 . S
C89 O90 1.228 . S
O90 C89 1.228 . S
O91 Zn80 2.024 . S
O91 C82 1.058 1_655 S
C92 O93 1.228 . S
C92 O94 1.267 . S
O93 C92 1.228 . S
O94 Zn81 1.969 . S
O94 C92 1.267 . S
O95 Zn81 1.965 . S
O95 C99 1.260 . S
O96 Zn80 1.969 . S
O96 C99 1.258 . S
O97 Zn81 2.024 . S
O97 C84 1.058 . S
C98 O87 1.260 . S
C98 O88 1.258 . S
C99 O95 1.260 . S
C99 O96 1.258 . S
Zn100 O106 1.969 . S
Zn100 O107 1.965 . S
Zn100 O111 2.024 . S
Zn100 O116 1.969 . S
Zn101 O108 1.969 . S
Zn101 O114 1.969 1_655 S
Zn101 O115 1.965 . S
Zn101 O117 2.024 . S
C102 O103 1.229 . S
C102 O111 1.058 . S
O103 C102 1.229 . S
C104 O105 1.229 . S
C104 O117 1.058 1_565 S
O105 C104 1.229 . S
O106 Zn100 1.969 . S
O106 C109 1.267 . S
O107 Zn100 1.965 . S
O107 C118 1.260 . S
O108 Zn101 1.969 . S
O108 C118 1.258 . S
C109 O106 1.267 . S
C109 O110 1.228 . S
O110 C109 1.228 . S
O111 Zn100 2.024 . S
O111 C102 1.058 . S
C112 O113 1.228 . S
C112 O114 1.267 . S
O113 C112 1.228 . S
O114 Zn101 1.969 1_455 S
O114 C112 1.267 . S
O115 Zn101 1.965 . S
O115 C119 1.260 . S
O116 Zn100 1.969 . S
O116 C119 1.258 . S
O117 Zn101 2.024 . S
O117 C104 1.058 1_545 S
C118 O107 1.260 . S
C118 O108 1.258 . S
C119 O115 1.260 . S
C119 O116 1.258 . S
Zn120 O126 1.969 . S
Zn120 O127 1.965 . S
Zn120 O131 2.024 . S
Zn120 O136 1.969 . S
Zn121 O128 1.969 . S
Zn121 O134 1.969 1_455 S
Zn121 O135 1.965 . S
Zn121 O137 2.024 . S
C122 O123 1.229 . S
C122 O131 1.058 . S
O123 C122 1.229 . S
C124 O125 1.229 . S
C124 O137 1.058 . S
O125 C124 1.229 . S
O126 Zn120 1.969 . S
O126 C129 1.267 . S
O127 Zn120 1.965 . S
O127 C138 1.260 . S
O128 Zn121 1.969 . S
O128 C138 1.258 . S
C129 O126 1.267 . S
C129 O130 1.228 . S
O130 C129 1.228 . S
O131 Zn120 2.024 . S
O131 C122 1.058 . S
C132 O133 1.228 . S
C132 O134 1.267 . S
O133 C132 1.228 . S
O134 Zn121 1.969 1_655 S
O134 C132 1.267 . S
O135 Zn121 1.965 . S
O135 C139 1.260 . S
O136 Zn120 1.969 . S
O136 C139 1.258 . S
O137 Zn121 2.024 . S
O137 C124 1.058 . S
C138 O127 1.260 . S
C138 O128 1.258 . S
C139 O135 1.260 . S
C139 O136 1.258 . S
Zn140 O146 1.969 1_565 S
Zn140 O147 1.965 . S
Zn140 O151 2.024 . S
Zn140 O156 1.969 . S
Zn141 O148 1.969 . S
Zn141 O154 1.969 . S
Zn141 O155 1.965 . S
Zn141 O157 2.024 . S
C142 O143 1.229 . S
C142 O151 1.058 1_655 S
O143 C142 1.229 . S
C144 O145 1.229 . S
C144 O157 1.058 . S
O145 C144 1.229 . S
O146 Zn140 1.969 1_545 S
O146 C149 1.267 . S
O147 Zn140 1.965 . S
O147 C158 1.260 . S
O148 Zn141 1.969 . S
O148 C158 1.258 . S
C149 O146 1.267 . S
C149 O150 1.228 . S
O150 C149 1.228 . S
O151 Zn140 2.024 . S
O151 C142 1.058 1_455 S
C152 O153 1.228 . S
C152 O154 1.267 . S
O153 C152 1.228 . S
O154 Zn141 1.969 . S
O154 C152 1.267 . S
O155 Zn141 1.965 . S
O155 C159 1.260 . S
O156 Zn140 1.969 . S
O156 C159 1.258 . S
O157 Zn141 2.024 . S
O157 C144 1.058 . S
C158 O147 1.260 . S
C158 O148 1.258 . S
C159 O155 1.260 . S
C159 O156 1.258 . S
Zn160 O166 1.969 . S
Zn160 O167 1.965 . S
Zn160 O171 2.024 . S
Zn160 O176 1.969 . S
Zn161 O168 1.969 . S
Zn161 O174 1.969 . S
Zn161 O175 1.965 . S
Zn161 O177 2.024 . S
C162 O163 1.229 . S
C162 O171 1.058 . S
O163 C162 1.229 . S
C164 O165 1.229 . S
C164 O177 1.058 1_545 S
O165 C164 1.229 . S
O166 Zn160 1.969 . S
O166 C169 1.267 . S
O167 Zn160 1.965 . S
O167 C178 1.260 . S
O168 Zn161 1.969 . S
O168 C178 1.258 . S
C169 O166 1.267 . S
C169 O170 1.228 . S
O170 C169 1.228 . S
O171 Zn160 2.024 . S
O171 C162 1.058 . S
C172 O173 1.228 . S
C172 O174 1.267 . S
O173 C172 1.228 . S
O174 Zn161 1.969 . S
O174 C172 1.267 . S
O175 Zn161 1.965 . S
O175 C179 1.260 . S
O176 Zn160 1.969 . S
O176 C179 1.258 . S
O177 Zn161 2.024 . S
O177 C164 1.058 1_565 S
C178 O167 1.260 . S
C178 O168 1.258 . S
C179 O175 1.260 . S
C179 O176 1.258 . S
Zn180 O186 1.969 1_455 S
Zn180 O187 1.965 . S
Zn180 O191 2.024 . S
Zn180 O196 1.969 . S
Zn181 O188 1.969 . S
Zn181 O194 1.969 . S
Zn181 O195 1.965 . S
Zn181 O197 2.024 . S
C182 O183 1.229 . S
C182 O191 1.058 . S
O183 C182 1.229 . S
C184 O185 1.229 . S
C184 O197 1.058 . S
O185 C184 1.229 . S
O186 Zn180 1.969 1_655 S
O186 C189 1.267 . S
O187 Zn180 1.965 . S
O187 C198 1.260 . S
O188 Zn181 1.969 . S
O188 C198 1.258 . S
C189 O186 1.267 . S
C189 O190 1.228 . S
O190 C189 1.228 . S
O191 Zn180 2.024 . S
O191 C182 1.058 . S
C192 O193 1.228 . S
C192 O194 1.267 . S
O193 C192 1.228 . S
O194 Zn181 1.969 . S
O194 C192 1.267 . S
O195 Zn181 1.965 . S
O195 C199 1.260 . S
O196 Zn180 1.969 . S
O196 C199 1.258 . S
O197 Zn181 2.024 . S
O197 C184 1.058 . S
C198 O187 1.260 . S
C198 O188 1.258 . S
C199 O195 1.260 . S
C199 O196 1.258 . S
Zn200 O206 1.969 . S
Zn200 O207 1.965 . S
Zn200 O211 2.024 . S
Zn200 O216 1.969 . S
Zn201 O208 1.969 . S
Zn201 O214 1.969 1_565 S
Zn201 O215 1.965 . S
Zn201 O217 2.024 . S
C202 O203 1.229 . S
C202 O211 1.058 . S
O203 C202 1.229 . S
C204 O205 1.229 . S
C204 O217 1.058 1_655 S
O205 C204 1.229 . S
O206 Zn200 1.969 . S
O206 C209 1.267 . S
O207 Zn200 1.965 . S
O207 C218 1.260 . S
O208 Zn201 1.969 . S
O208 C218 1.258 . S
C209 O206 1.267 . S
C209 O210 1.228 . S
O210 C209 1.228 . S
O211 Zn200 2.024 . S
O211 C202 1.058 . S
C212 O213 1.228 . S
C212 O214 1.267 . S
O213 C212 1.228 . S
O214 Zn201 1.969 1_545 S
O214 C212 1.267 . S
O215 Zn201 1.965 . S
O215 C219 1.260 . S
O216 Zn200 1.969 . S
O216 C219 1.258 . S
O217 Zn201 2.024 . S
O217 C204 1.058 1_455 S
C218 O207 1.260 . S
C218 O208 1.258 . S
C219 O215 1.260 . S
C219 O216 1.258 . S
Zn220 O226 1.969 . S
Zn220 O227 1.965 . S
Zn220 O231 2.024 . S
Zn220 O236 1.969 . S
Zn221 O228 1.969 . S
Zn221 O234 1.969 . S
Zn221 O235 1.965 . S
Zn221 O237 2.024 . S
C222 O223 1.229 . S
C222 O231 1.058 1_545 S
O223 C222 1.229 . S
C224 O225 1.229 . S
C224 O237 1.058 . S
O225 C224 1.229 . S
O226 Zn220 1.969 . S
O226 C229 1.267 . S
O227 Zn220 1.965 . S
O227 C238 1.260 . S
O228 Zn221 1.969 . S
O228 C238 1.258 . S
C229 O226 1.267 . S
C229 O230 1.228 . S
O230 C229 1.228 . S
O231 Zn220 2.024 . S
O231 C222 1.058 1_565 S
C232 O233 1.228 . S
C232 O234 1.267 . S
O233 C232 1.228 . S
O234 Zn221 1.969 . S
O234 C232 1.267 . S
O235 Zn221 1.965 . S
O235 C239 1.260 . S
O236 Zn220 1.969 . S
O236 C239 1.258 . S
O237 Zn221 2.024 . S
O237 C224 1.058 . S
C238 O227 1.260 . S
C238 O228 1.258 . S
C239 O235 1.260 . S
C239 O236 1.258 . S
C49 C2 1.213 . S
C72 C24 1.213 . S
C42 C89 1.213 . S
C64 C112 1.213 . S
C9 C82 1.213 . S
C32 C104 1.213 . S
C212 C124 1.213 . S
C142 C229 1.213 . S
C164 C132 1.213 . S
C182 C149 1.213 . S
C204 C172 1.213 . S
C189 C222 1.213 . S
C78 C19 1.883 . S
C38 C99 1.883 . S
C59 C118 1.883 . S
C138 C199 1.883 . S
C159 C218 1.883 . S
C178 C239 1.883 . S
C158 C18 3.121 1_566 S
C39 C179 3.121 . S
C198 C58 3.121 1_456 S
C79 C219 3.121 1_545 S
C98 C238 3.121 1_554 S
C139 C119 3.121 1_455 S
C52 C4 1.338 . S
C22 C69 1.338 . S
C44 C92 1.338 . S
C62 C109 1.338 . S
C12 C84 1.338 . S
C29 C102 1.338 . S
C209 C122 1.338 . S
C144 C232 1.338 . S
C162 C129 1.338 . S
C152 C184 1.338 . S
C202 C169 1.338 . S
C224 C192 1.338 . S
