# Generated by pormake.
# Topology smu, (6)-cn, num edge types: 1
# Building blocks:
#     Node 0, Type 0, BuildingBlock: MIFKUJ_clean_sbu_0, # of connection points: 6
#     Node 1, Type 0, BuildingBlock: MIFKUJ_clean_sbu_0, # of connection points: 6
#     Node 2, Type 0, BuildingBlock: MIFKUJ_clean_sbu_0, # of connection points: 6
#     Node 3, Type 0, BuildingBlock: MIFKUJ_clean_sbu_0, # of connection points: 6
#     Node 4, Type 0, BuildingBlock: MIFKUJ_clean_sbu_0, # of connection points: 6
#     Node 5, Type 0, BuildingBlock: MIFKUJ_clean_sbu_0, # of connection points: 6
#     Edge 6, Type (0, 0), None
#     Edge 7, Type (0, 0), None
#     Edge 8, Type (0, 0), None
#     Edge 9, Type (0, 0), None
#     Edge 10, Type (0, 0), None
#     Edge 11, Type (0, 0), None
#     Edge 12, Type (0, 0), None
#     Edge 13, Type (0, 0), None
#     Edge 14, Type (0, 0), None
#     Edge 15, Type (0, 0), None
#     Edge 16, Type (0, 0), None
#     Edge 17, Type (0, 0), None
#     Edge 18, Type (0, 0), None
#     Edge 19, Type (0, 0), None
#     Edge 20, Type (0, 0), None
#     Edge 21, Type (0, 0), None
#     Edge 22, Type (0, 0), None
#     Edge 23, Type (0, 0), None
# Relax obj value: 0.267
# Max RMSD: 0.357
# Mean RMSD: 0.357
data_MOF--net-smu--node1-MIFKUJ_clean_sbu_0--edge1-none
_symmetry_space_group_name_H-M    P1
_symmetry_Int_Tables_number       1
_symmetry_cell_setting            triclinic
loop_
_symmetry_equiv_pos_as_xyz
'x, y, z'
_cell_length_a     18.109242
_cell_length_b     18.10927
_cell_length_c     11.595698
_cell_angle_alpha  89.998719
_cell_angle_beta   89.99878
_cell_angle_gamma 120.00052
loop_
_atom_site_label
_atom_site_type_symbol
_atom_site_fract_x
_atom_site_fract_y
_atom_site_fract_z
_atom_type_partial_charge
Zn0 Zn 0.24434 0.04604 0.20706 0.0
Zn1 Zn 0.45787 0.10671 0.18297 0.0
C2 C 0.1695 0.14909 0.22924 0.0
O3 O 0.15144 0.11096 0.33007 0.0
C4 C 0.64805 0.15268 0.17609 0.0
O5 O 0.63812 0.09599 0.09791 0.0
O6 O 0.12792 0.94855 0.25139 0.0
O7 O 0.28269 0.00709 0.06676 0.0
O8 O 0.41573 0.03461 0.04227 0.0
C9 C 0.07412 0.88789 0.18859 0.0
O10 O 0.09366 0.88053 0.08181 0.0
O11 O 0.21759 0.13779 0.16034 0.0
C12 C 0.49015 0.27442 0.21662 0.0
O13 O 0.53709 0.26871 0.29857 0.0
O14 O 0.43992 0.20791 0.15999 0.0
O15 O 0.4082 0.03866 0.32609 0.0
O16 O 0.30853 0.07237 0.35854 0.0
O17 O 0.58508 0.16005 0.20865 0.0
C18 C 0.33882 1.00093 0.00823 0.0
C19 C 0.35575 0.04351 0.39326 0.0
Zn20 Zn 0.80776 0.7632 0.20706 0.0
Zn21 Zn 0.65491 0.54968 0.18299 0.0
C22 C 0.98565 0.83806 0.22925 0.0
O23 O 0.96559 0.85611 0.33009 0.0
C24 C 0.51069 0.3595 0.17609 0.0
O25 O 0.46396 0.36943 0.09787 0.0
O26 O 0.82669 0.87962 0.2514 0.0
O27 O 0.73047 0.72486 0.06677 0.0
O28 O 0.62494 0.59182 0.04229 0.0
C29 C 0.81984 0.93343 0.1886 0.0
O30 O 0.79295 0.91389 0.08182 0.0
O31 O 0.92627 0.78997 0.16034 0.0
C32 C 0.79034 0.51738 0.21662 0.0
O33 O 0.73768 0.47043 0.29856 0.0
O34 O 0.77406 0.56762 0.16 0.0
O35 O 0.63653 0.59935 0.32611 0.0
O36 O 0.76992 0.69901 0.35854 0.0
O37 O 0.58102 0.42246 0.20869 0.0
C38 C 0.66818 0.66873 0.00824 0.0
C39 C 0.69383 0.6518 0.39327 0.0
Zn40 Zn 0.96151 0.19978 0.20706 0.0
Zn41 Zn 0.90084 0.35264 0.18298 0.0
C42 C 0.85848 0.02189 0.22926 0.0
O43 O 0.89659 0.04195 0.3301 0.0
C44 C 0.85488 0.49686 0.17609 0.0
O45 O 0.91155 0.5436 0.09786 0.0
O46 O 0.05901 0.18086 0.25139 0.0
O47 O 1.00046 0.27707 0.06676 0.0
O48 O 0.97295 0.3826 0.04227 0.0
C49 C 0.11967 0.18773 0.18859 0.0
O50 O 0.12705 0.21463 0.0818 0.0
O51 O 0.86977 0.08128 0.16035 0.0
C52 C 0.73312 0.21722 0.21662 0.0
O53 O 0.73881 0.26987 0.29856 0.0
O54 O 0.79963 0.23349 0.16 0.0
O55 O 0.9689 0.37102 0.32609 0.0
O56 O 0.93517 0.23763 0.35854 0.0
O57 O 0.84752 0.42652 0.20867 0.0
C58 C 0.00662 0.33937 0.00822 0.0
C59 C 0.96404 0.31371 0.39326 0.0
Zn60 Zn 0.10824 0.45634 0.68297 0.0
Zn61 Zn 0.04758 0.24282 0.70708 0.0
C62 C 0.27595 0.48862 0.71662 0.0
O63 O 0.27024 0.53556 0.79858 0.0
C64 C 0.88946 0.07259 0.68861 0.0
O65 O 0.88214 0.09211 0.5818 0.0
O66 O 0.16157 0.58355 0.70867 0.0
O67 O 0.03614 0.41421 0.54226 0.0
O68 O 0.00864 0.28117 0.56678 0.0
C69 C 0.15421 0.64653 0.67609 0.0
O70 O 0.09755 0.6366 0.59786 0.0
O71 O 0.20944 0.4384 0.65998 0.0
C72 C 0.15062 0.16796 0.72926 0.0
O73 O 0.11251 0.14992 0.83011 0.0
O74 O 0.13931 0.21604 0.66035 0.0
O75 O 0.07395 0.30703 0.85854 0.0
O76 O 0.04018 0.40666 0.82608 0.0
O77 O 0.95008 0.12641 0.75144 0.0
C78 C 1.00247 0.33729 0.50823 0.0
C79 C 0.04508 0.35424 0.89326 0.0
Zn80 Zn 0.35418 0.89931 0.68298 0.0
Zn81 Zn 0.20131 0.95997 0.70708 0.0
C82 C 0.21876 0.73159 0.71662 0.0
O83 O 0.2714 0.73728 0.79857 0.0
C84 C 0.18923 0.1181 0.6886 0.0
O85 O 0.21608 0.12544 0.5818 0.0
O86 O 0.42806 0.84598 0.70868 0.0
O87 O 0.38415 0.97141 0.54227 0.0
O88 O 0.2786 0.99891 0.56678 0.0
C89 C 0.49839 0.85334 0.6761 0.0
O90 O 0.54512 0.90999 0.59785 0.0
O91 O 0.23503 0.79811 0.66 0.0
C92 C 0.02341 0.85693 0.72927 0.0
O93 O 0.04348 0.89503 0.83012 0.0
O94 O 0.0828 0.86824 0.66036 0.0
O95 O 0.23916 0.9336 0.85855 0.0
O96 O 0.37256 0.96737 0.82609 0.0
O97 O 0.18241 0.05747 0.75143 0.0
C98 C 0.3409 0.00508 0.50824 0.0
C99 C 0.31524 0.96247 0.89327 0.0
Zn100 Zn 0.5512 0.65336 0.68299 0.0
Zn101 Zn 0.76473 0.80623 0.70708 0.0
C102 C 0.5189 0.78878 0.71662 0.0
O103 O 0.47195 0.73614 0.79858 0.0
C104 C 0.93495 0.81832 0.68861 0.0
O105 O 0.91544 0.79147 0.58181 0.0
O106 O 0.42399 0.57948 0.70871 0.0
O107 O 0.59334 0.6234 0.54228 0.0
O108 O 0.72638 0.72894 0.56679 0.0
C109 C 0.36103 0.50915 0.6761 0.0
O110 O 0.37095 0.46245 0.59782 0.0
O111 O 0.56914 0.77251 0.66 0.0
C112 C 0.8396 0.98412 0.72927 0.0
O113 O 0.85763 0.96406 0.83013 0.0
O114 O 0.79153 0.92474 0.66035 0.0
O115 O 0.70051 0.76839 0.85855 0.0
O116 O 0.60088 0.63499 0.8261 0.0
O117 O 0.88113 0.82513 0.75144 0.0
C118 C 0.67025 0.66664 0.50825 0.0
C119 C 0.6533 0.69231 0.89328 0.0
loop_
_geom_bond_atom_site_label_1
_geom_bond_atom_site_label_2
_geom_bond_distance
_geom_bond_site_symmetry_2
_ccdc_geom_bond_type
Zn0 O6 1.969 1_545 S
Zn0 O7 1.965 . S
Zn0 O11 2.024 . S
Zn0 O16 1.969 . S
Zn1 O8 1.969 . S
Zn1 O14 1.969 . S
Zn1 O15 1.965 . S
Zn1 O17 2.024 . S
C2 O3 1.229 . S
C2 O11 1.058 . S
O3 C2 1.229 . S
C4 O5 1.229 . S
C4 O17 1.058 . S
O5 C4 1.229 . S
O6 Zn0 1.969 1_565 S
O6 C9 1.267 . S
O7 Zn0 1.965 . S
O7 C18 1.260 . S
O8 Zn1 1.969 . S
O8 C18 1.258 . S
C9 O6 1.267 . S
C9 O10 1.228 . S
O10 C9 1.228 . S
O11 Zn0 2.024 . S
O11 C2 1.058 . S
C12 O13 1.228 . S
C12 O14 1.267 . S
O13 C12 1.228 . S
O14 Zn1 1.969 . S
O14 C12 1.267 . S
O15 Zn1 1.965 . S
O15 C19 1.260 . S
O16 Zn0 1.969 . S
O16 C19 1.258 . S
O17 Zn1 2.024 . S
O17 C4 1.058 . S
C18 O7 1.260 . S
C18 O8 1.258 . S
C19 O15 1.260 . S
C19 O16 1.258 . S
Zn20 O26 1.969 . S
Zn20 O27 1.965 . S
Zn20 O31 2.024 . S
Zn20 O36 1.969 . S
Zn21 O28 1.969 . S
Zn21 O34 1.969 . S
Zn21 O35 1.965 . S
Zn21 O37 2.024 . S
C22 O23 1.229 . S
C22 O31 1.058 . S
O23 C22 1.229 . S
C24 O25 1.229 . S
C24 O37 1.058 . S
O25 C24 1.229 . S
O26 Zn20 1.969 . S
O26 C29 1.267 . S
O27 Zn20 1.965 . S
O27 C38 1.260 . S
O28 Zn21 1.969 . S
O28 C38 1.258 . S
C29 O26 1.267 . S
C29 O30 1.228 . S
O30 C29 1.228 . S
O31 Zn20 2.024 . S
O31 C22 1.058 . S
C32 O33 1.228 . S
C32 O34 1.267 . S
O33 C32 1.228 . S
O34 Zn21 1.969 . S
O34 C32 1.267 . S
O35 Zn21 1.965 . S
O35 C39 1.260 . S
O36 Zn20 1.969 . S
O36 C39 1.258 . S
O37 Zn21 2.024 . S
O37 C24 1.058 . S
C38 O27 1.260 . S
C38 O28 1.258 . S
C39 O35 1.260 . S
C39 O36 1.258 . S
Zn40 O46 1.969 1_655 S
Zn40 O47 1.965 . S
Zn40 O51 2.024 . S
Zn40 O56 1.969 . S
Zn41 O48 1.969 . S
Zn41 O54 1.969 . S
Zn41 O55 1.965 . S
Zn41 O57 2.024 . S
C42 O43 1.229 . S
C42 O51 1.058 . S
O43 C42 1.229 . S
C44 O45 1.229 . S
C44 O57 1.058 . S
O45 C44 1.229 . S
O46 Zn40 1.969 1_455 S
O46 C49 1.267 . S
O47 Zn40 1.965 . S
O47 C58 1.260 . S
O48 Zn41 1.969 . S
O48 C58 1.258 . S
C49 O46 1.267 . S
C49 O50 1.228 . S
O50 C49 1.228 . S
O51 Zn40 2.024 . S
O51 C42 1.058 . S
C52 O53 1.228 . S
C52 O54 1.267 . S
O53 C52 1.228 . S
O54 Zn41 1.969 . S
O54 C52 1.267 . S
O55 Zn41 1.965 . S
O55 C59 1.260 . S
O56 Zn40 1.969 . S
O56 C59 1.258 . S
O57 Zn41 2.024 . S
O57 C44 1.058 . S
C58 O47 1.260 . S
C58 O48 1.258 . S
C59 O55 1.260 . S
C59 O56 1.258 . S
Zn60 O66 1.969 . S
Zn60 O67 1.965 . S
Zn60 O71 2.024 . S
Zn60 O76 1.969 . S
Zn61 O68 1.969 . S
Zn61 O74 1.969 . S
Zn61 O75 1.965 . S
Zn61 O77 2.024 1_455 S
C62 O63 1.229 . S
C62 O71 1.058 . S
O63 C62 1.229 . S
C64 O65 1.229 . S
C64 O77 1.058 . S
O65 C64 1.229 . S
O66 Zn60 1.969 . S
O66 C69 1.267 . S
O67 Zn60 1.965 . S
O67 C78 1.260 . S
O68 Zn61 1.969 . S
O68 C78 1.258 . S
C69 O66 1.267 . S
C69 O70 1.228 . S
O70 C69 1.228 . S
O71 Zn60 2.024 . S
O71 C62 1.058 . S
C72 O73 1.228 . S
C72 O74 1.267 . S
O73 C72 1.228 . S
O74 Zn61 1.969 . S
O74 C72 1.267 . S
O75 Zn61 1.965 . S
O75 C79 1.260 . S
O76 Zn60 1.969 . S
O76 C79 1.258 . S
O77 Zn61 2.024 1_655 S
O77 C64 1.058 . S
C78 O67 1.260 . S
C78 O68 1.258 . S
C79 O75 1.260 . S
C79 O76 1.258 . S
Zn80 O86 1.969 . S
Zn80 O87 1.965 . S
Zn80 O91 2.024 . S
Zn80 O96 1.969 . S
Zn81 O88 1.969 . S
Zn81 O94 1.969 . S
Zn81 O95 1.965 . S
Zn81 O97 2.024 1_565 S
C82 O83 1.229 . S
C82 O91 1.058 . S
O83 C82 1.229 . S
C84 O85 1.229 . S
C84 O97 1.058 . S
O85 C84 1.229 . S
O86 Zn80 1.969 . S
O86 C89 1.267 . S
O87 Zn80 1.965 . S
O87 C98 1.260 . S
O88 Zn81 1.969 . S
O88 C98 1.258 . S
C89 O86 1.267 . S
C89 O90 1.228 . S
O90 C89 1.228 . S
O91 Zn80 2.024 . S
O91 C82 1.058 . S
C92 O93 1.228 1_655 S
C92 O94 1.267 1_655 S
O93 C92 1.228 1_455 S
O94 Zn81 1.969 . S
O94 C92 1.267 1_455 S
O95 Zn81 1.965 . S
O95 C99 1.260 . S
O96 Zn80 1.969 . S
O96 C99 1.258 . S
O97 Zn81 2.024 1_545 S
O97 C84 1.058 . S
C98 O87 1.260 . S
C98 O88 1.258 . S
C99 O95 1.260 . S
C99 O96 1.258 . S
Zn100 O106 1.969 . S
Zn100 O107 1.965 . S
Zn100 O111 2.024 . S
Zn100 O116 1.969 . S
Zn101 O108 1.969 . S
Zn101 O114 1.969 . S
Zn101 O115 1.965 . S
Zn101 O117 2.024 . S
C102 O103 1.229 . S
C102 O111 1.058 . S
O103 C102 1.229 . S
C104 O105 1.229 . S
C104 O117 1.058 . S
O105 C104 1.229 . S
O106 Zn100 1.969 . S
O106 C109 1.267 . S
O107 Zn100 1.965 . S
O107 C118 1.260 . S
O108 Zn101 1.969 . S
O108 C118 1.258 . S
C109 O106 1.267 . S
C109 O110 1.228 . S
O110 C109 1.228 . S
O111 Zn100 2.024 . S
O111 C102 1.058 . S
C112 O113 1.228 1_545 S
C112 O114 1.267 1_545 S
O113 C112 1.228 1_565 S
O114 Zn101 1.969 . S
O114 C112 1.267 1_565 S
O115 Zn101 1.965 . S
O115 C119 1.260 . S
O116 Zn100 1.969 . S
O116 C119 1.258 . S
O117 Zn101 2.024 . S
O117 C104 1.058 . S
C118 O107 1.260 . S
C118 O108 1.258 . S
C119 O115 1.260 . S
C119 O116 1.258 . S
C99 C18 3.449 1_566 S
C118 C39 3.329 . S
C58 C79 3.450 1_654 S
C19 C98 3.329 1_545 S
C119 C38 3.450 1_556 S
C59 C78 3.329 1_655 S
C4 C52 2.180 . S
C24 C12 2.180 . S
C44 C32 2.180 . S
C69 C82 2.454 . S
C89 C102 2.454 . S
C62 C109 2.454 . S
C2 C49 2.041 . S
C22 C9 2.041 1_655 S
C42 C29 2.041 1_545 S
C72 C84 1.747 . S
C92 C104 1.748 . S
C64 C112 1.748 . S
