# Generated by pormake.
# Topology qtz-x, (6)-cn, num edge types: 1
# Building blocks:
#     Node 0, Type 0, BuildingBlock: MIFKUJ_clean_sbu_0, # of connection points: 6
#     Node 1, Type 0, BuildingBlock: MIFKUJ_clean_sbu_0, # of connection points: 6
#     Node 2, Type 0, BuildingBlock: MIFKUJ_clean_sbu_0, # of connection points: 6
#     Edge 3, Type (0, 0), None
#     Edge 4, Type (0, 0), None
#     Edge 5, Type (0, 0), None
#     Edge 6, Type (0, 0), None
#     Edge 7, Type (0, 0), None
#     Edge 8, Type (0, 0), None
#     Edge 9, Type (0, 0), None
#     Edge 10, Type (0, 0), None
#     Edge 11, Type (0, 0), None
# Relax obj value: 0.226
# Max RMSD: 0.267
# Mean RMSD: 0.265
data_MOF--net-qtz-x--node1-MIFKUJ_clean_sbu_0--edge1-none
_symmetry_space_group_name_H-M    P1
_symmetry_Int_Tables_number       1
_symmetry_cell_setting            triclinic
loop_
_symmetry_equiv_pos_as_xyz
'x, y, z'
_cell_length_a     6.3674531
_cell_length_b     6.3591163
_cell_length_c     24.592987
_cell_angle_alpha  97.599154
_cell_angle_beta   83.626294
_cell_angle_gamma 120.03622
loop_
_atom_site_label
_atom_site_type_symbol
_atom_site_fract_x
_atom_site_fract_y
_atom_site_fract_z
_atom_type_partial_charge
Zn0 Zn 0.18566 0.54426 0.26779 0.0
Zn1 Zn 0.87752 0.35473 0.16875 0.0
C2 C 0.78909 0.45221 0.34209 0.0
O3 O 0.87635 0.68872 0.35124 0.0
C4 C 0.10833 0.45084 0.05842 0.0
O5 O 0.91755 0.2424 0.04423 0.0
O6 O 0.3379 0.71014 0.33885 0.0
O7 O 0.2667 0.28 0.23576 0.0
O8 O 0.90604 0.0867 0.20052 0.0
C9 C 0.32247 0.62545 0.38403 0.0
O10 O 0.25389 0.39449 0.38576 0.0
O11 O 0.83841 0.36608 0.29594 0.0
C12 C 0.53205 0.28758 0.09957 0.0
O13 O 0.66467 0.52584 0.1075 0.0
O14 O 0.57064 0.159 0.12769 0.0
O15 O 0.86763 0.64798 0.21272 0.0
O16 O 0.25696 0.83026 0.22606 0.0
O17 O 0.14536 0.52001 0.10917 0.0
C18 C 0.08433 0.08258 0.21804 0.0
C19 C 0.07003 0.84385 0.21899 0.0
Zn20 Zn 0.4455 0.94968 0.60582 0.0
Zn21 Zn 0.61455 0.18555 0.50285 0.0
C22 C 0.64878 0.33394 0.6865 0.0
O23 O 0.7757 0.24033 0.70047 0.0
C24 C 0.32578 0.77895 0.43411 0.0
O25 O 0.2327 0.92167 0.43296 0.0
O26 O 0.36467 0.78951 0.67543 0.0
O27 O 0.13628 0.87144 0.57043 0.0
O28 O 0.34104 0.23831 0.54197 0.0
C29 C 0.22629 0.79373 0.71648 0.0
O30 O 0.06566 0.86182 0.71246 0.0
O31 O 0.59054 0.29761 0.63695 0.0
C32 C 0.73833 0.31105 0.38912 0.0
O33 O 0.75672 0.11294 0.3815 0.0
O34 O 0.70821 0.39251 0.43777 0.0
O35 O 0.91708 0.25463 0.54054 0.0
O36 O 0.71057 0.88452 0.56763 0.0
O37 O 0.4849 0.83883 0.46827 0.0
C38 C 0.13965 0.05808 0.55594 0.0
C39 C 0.9128 0.06687 0.55487 0.0
Zn40 Zn 0.44005 0.32082 0.93501 0.0
Zn41 Zn 0.30949 0.47364 0.8385 0.0
C42 C 0.2915 0.57947 0.0154 0.0
O43 O 0.51826 0.71796 0.02867 0.0
C44 C 0.4877 0.37457 0.72857 0.0
O45 O 0.29333 0.36572 0.71292 0.0
O46 O 0.55241 0.29181 1.0046 0.0
O47 O 0.19506 -0.01127 0.90083 0.0
O48 O 0.01946 0.17111 0.87061 0.0
C49 C 0.4268 0.18342 0.04622 0.0
O50 O 0.19647 0.01912 0.0427 0.0
O51 O 0.24725 0.48267 0.9664 0.0
C52 C 0.29108 0.77522 0.77005 0.0
O53 O 0.52289 0.8812 0.77939 0.0
O54 O 0.14353 0.59647 0.79673 0.0
O55 O 0.57415 0.76487 0.88299 0.0
O56 O 0.75098 0.55449 0.89435 0.0
O57 O 0.51508 0.38589 0.77962 0.0
C58 C 0.00611 0.98139 0.886 0.0
C59 C 0.76712 0.75685 0.88788 0.0
loop_
_geom_bond_atom_site_label_1
_geom_bond_atom_site_label_2
_geom_bond_distance
_geom_bond_site_symmetry_2
_ccdc_geom_bond_type
Zn0 O6 1.969 . S
Zn0 O7 1.965 . S
Zn0 O11 2.024 1_455 S
Zn0 O16 1.969 . S
Zn1 O8 1.969 . S
Zn1 O14 1.969 1_455 S
Zn1 O15 1.965 1_455 S
Zn1 O17 2.024 . S
C2 O3 1.229 . S
C2 O11 1.058 . S
O3 C2 1.229 . S
C4 O5 1.229 . S
C4 O17 1.058 . S
O5 C4 1.229 . S
O6 Zn0 1.969 . S
O6 C9 1.267 . S
O7 Zn0 1.965 . S
O7 C18 1.260 . S
O8 Zn1 1.969 . S
O8 C18 1.258 . S
C9 O6 1.267 . S
C9 O10 1.228 . S
O10 C9 1.228 . S
O11 Zn0 2.024 1_655 S
O11 C2 1.058 . S
C12 O13 1.228 . S
C12 O14 1.267 . S
O13 C12 1.228 . S
O14 Zn1 1.969 1_655 S
O14 C12 1.267 . S
O15 Zn1 1.965 1_655 S
O15 C19 1.260 1_655 S
O16 Zn0 1.969 . S
O16 C19 1.258 . S
O17 Zn1 2.024 . S
O17 C4 1.058 . S
C18 O7 1.260 . S
C18 O8 1.258 . S
C19 O15 1.260 1_455 S
C19 O16 1.258 . S
Zn20 O26 1.969 1_545 S
Zn20 O27 1.965 1_545 S
Zn20 O31 2.024 . S
Zn20 O36 1.969 . S
Zn21 O28 1.969 . S
Zn21 O34 1.969 . S
Zn21 O35 1.965 . S
Zn21 O37 2.024 1_545 S
C22 O23 1.229 . S
C22 O31 1.058 . S
O23 C22 1.229 . S
C24 O25 1.229 . S
C24 O37 1.058 . S
O25 C24 1.229 . S
O26 Zn20 1.969 1_565 S
O26 C29 1.267 . S
O27 Zn20 1.965 1_565 S
O27 C38 1.260 1_565 S
O28 Zn21 1.969 . S
O28 C38 1.258 . S
C29 O26 1.267 . S
C29 O30 1.228 . S
O30 C29 1.228 . S
O31 Zn20 2.024 . S
O31 C22 1.058 . S
C32 O33 1.228 . S
C32 O34 1.267 . S
O33 C32 1.228 . S
O34 Zn21 1.969 . S
O34 C32 1.267 . S
O35 Zn21 1.965 . S
O35 C39 1.260 . S
O36 Zn20 1.969 . S
O36 C39 1.258 . S
O37 Zn21 2.024 1_565 S
O37 C24 1.058 . S
C38 O27 1.260 1_545 S
C38 O28 1.258 . S
C39 O35 1.260 . S
C39 O36 1.258 . S
Zn40 O46 1.969 . S
Zn40 O47 1.965 . S
Zn40 O51 2.024 . S
Zn40 O56 1.969 . S
Zn41 O48 1.969 . S
Zn41 O54 1.969 . S
Zn41 O55 1.965 . S
Zn41 O57 2.024 . S
C42 O43 1.229 . S
C42 O51 1.058 1_554 S
O43 C42 1.229 . S
C44 O45 1.229 . S
C44 O57 1.058 . S
O45 C44 1.229 . S
O46 Zn40 1.969 . S
O46 C49 1.267 1_556 S
O47 Zn40 1.965 . S
O47 C58 1.260 . S
O48 Zn41 1.969 . S
O48 C58 1.258 . S
C49 O46 1.267 1_554 S
C49 O50 1.228 . S
O50 C49 1.228 . S
O51 Zn40 2.024 . S
O51 C42 1.058 1_556 S
C52 O53 1.228 . S
C52 O54 1.267 . S
O53 C52 1.228 . S
O54 Zn41 1.969 . S
O54 C52 1.267 . S
O55 Zn41 1.965 . S
O55 C59 1.260 . S
O56 Zn40 1.969 . S
O56 C59 1.258 . S
O57 Zn41 2.024 . S
O57 C44 1.058 . S
C58 O47 1.260 . S
C58 O48 1.258 . S
C59 O55 1.260 . S
C59 O56 1.258 . S
C19 C18 2.060 1_565 S
C38 C39 1.989 1_455 S
C59 C58 2.033 1_665 S
C42 C4 1.350 . S
C32 C2 1.178 . S
C52 C29 1.149 . S
C49 C12 1.134 . S
C9 C24 1.396 . S
C44 C22 1.245 . S
