# Generated by pormake.
# Topology fcu, (12)-cn, num edge types: 1
# Building blocks:
#     Node 0, Type 0, BuildingBlock: ENOWUB_clean_sbu_0, # of connection points: 12
#     Node 1, Type 0, BuildingBlock: ENOWUB_clean_sbu_0, # of connection points: 12
#     Node 2, Type 0, BuildingBlock: ENOWUB_clean_sbu_0, # of connection points: 12
#     Node 3, Type 0, BuildingBlock: ENOWUB_clean_sbu_0, # of connection points: 12
#     Edge 4, Type (0, 0), None
#     Edge 5, Type (0, 0), None
#     Edge 6, Type (0, 0), None
#     Edge 7, Type (0, 0), None
#     Edge 8, Type (0, 0), None
#     Edge 9, Type (0, 0), None
#     Edge 10, Type (0, 0), None
#     Edge 11, Type (0, 0), None
#     Edge 12, Type (0, 0), None
#     Edge 13, Type (0, 0), None
#     Edge 14, Type (0, 0), None
#     Edge 15, Type (0, 0), None
#     Edge 16, Type (0, 0), None
#     Edge 17, Type (0, 0), None
#     Edge 18, Type (0, 0), None
#     Edge 19, Type (0, 0), None
#     Edge 20, Type (0, 0), None
#     Edge 21, Type (0, 0), None
#     Edge 22, Type (0, 0), None
#     Edge 23, Type (0, 0), None
#     Edge 24, Type (0, 0), None
#     Edge 25, Type (0, 0), None
#     Edge 26, Type (0, 0), None
#     Edge 27, Type (0, 0), None
# Relax obj value: 0.000
# Max RMSD: 0.000
# Mean RMSD: 0.000
data_MOF--net-fcu--node1-ENOWUB_clean_sbu_0--edge1-none
_symmetry_space_group_name_H-M    P1
_symmetry_Int_Tables_number       1
_symmetry_cell_setting            triclinic
loop_
_symmetry_equiv_pos_as_xyz
'x, y, z'
_cell_length_a     15.69809
_cell_length_b     15.697865
_cell_length_c     15.697997
_cell_angle_alpha  90.0
_cell_angle_beta   90.0
_cell_angle_gamma 90.0
loop_
_atom_site_label
_atom_site_type_symbol
_atom_site_fract_x
_atom_site_fract_y
_atom_site_fract_z
_atom_type_partial_charge
O0 O 0.20894 0.8286 -0.03293 0.0
O1 O 0.05348 0.88063 0.05349 0.0
O2 O 0.05348 0.05349 0.88062 0.0
O3 O 0.05349 0.88062 0.88062 0.0
O4 O 0.05348 0.05349 0.05349 0.0
Zr5 Zr 0.13877 -0.03294 -0.03295 0.0
Zr6 Zr -0.03295 -0.03294 0.13878 0.0
Zr7 Zr -0.03295 0.79533 -0.03295 0.0
O8 O 0.88062 0.05349 0.05349 0.0
O9 O 0.88062 0.88062 0.88062 0.0
O10 O 0.88062 0.88062 0.05349 0.0
Zr11 Zr -0.03295 0.13878 -0.03295 0.0
Zr12 Zr -0.03295 -0.03294 0.79533 0.0
Zr13 Zr 0.79533 -0.03294 -0.03295 0.0
O14 O 0.88062 0.05349 0.88062 0.0
O15 O 0.72516 0.10551 -0.03293 0.0
O16 O 0.72516 0.8286 -0.03293 0.0
O17 O 0.20894 0.10551 -0.03293 0.0
O18 O -0.03293 0.20895 0.8286 0.0
O19 O -0.03293 0.72516 0.10551 0.0
O20 O -0.03293 0.72517 0.8286 0.0
O21 O -0.03293 0.20895 0.10551 0.0
O22 O 0.8286 -0.03292 0.20894 0.0
O23 O 0.1055 -0.03292 0.72516 0.0
O24 O 0.8286 -0.03292 0.72516 0.0
O25 O 0.1055 -0.03292 0.20894 0.0
O26 O 0.8286 0.20895 -0.03293 0.0
O27 O 0.1055 0.72517 -0.03293 0.0
O28 O 0.8286 0.72517 -0.03293 0.0
O29 O 0.10551 0.20895 -0.03293 0.0
O30 O 0.20894 -0.03292 0.10551 0.0
O31 O 0.72516 -0.03292 0.8286 0.0
O32 O 0.72516 -0.03292 0.10551 0.0
O33 O 0.20894 -0.03292 0.8286 0.0
C34 C 0.18391 0.75019 -0.03292 0.0
O35 O -0.03293 0.10551 0.20894 0.0
O36 O -0.03293 0.8286 0.20894 0.0
C37 C 0.75019 0.18392 -0.03292 0.0
C38 C 0.75019 0.75019 -0.03292 0.0
C39 C 0.18391 0.18392 -0.03292 0.0
C40 C -0.03292 0.18392 0.75019 0.0
C41 C -0.03292 0.75019 0.18392 0.0
C42 C -0.03292 0.75019 0.75019 0.0
C43 C -0.03292 0.18392 0.18392 0.0
C44 C 0.75019 -0.03292 0.18391 0.0
C45 C 0.18391 -0.03292 0.75019 0.0
C46 C 0.75019 -0.03292 0.75019 0.0
C47 C 0.18391 -0.03292 0.18392 0.0
O48 O -0.03293 0.8286 0.72516 0.0
O49 O -0.03293 0.10551 0.72516 0.0
O50 O 0.20894 0.3286 0.46703 0.0
O51 O 0.05348 0.38062 0.55348 0.0
O52 O 0.05348 0.55349 0.38062 0.0
O53 O 0.05348 0.38062 0.38062 0.0
O54 O 0.05349 0.55349 0.55348 0.0
Zr55 Zr 0.13877 0.46705 0.46705 0.0
Zr56 Zr -0.03295 0.46705 0.63877 0.0
Zr57 Zr -0.03295 0.29533 0.46705 0.0
O58 O 0.88062 0.55349 0.55349 0.0
O59 O 0.88062 0.38062 0.38062 0.0
O60 O 0.88062 0.38062 0.55348 0.0
Zr61 Zr -0.03295 0.63878 0.46705 0.0
Zr62 Zr -0.03295 0.46705 0.29533 0.0
Zr63 Zr 0.79533 0.46705 0.46705 0.0
O64 O 0.88062 0.55349 0.38062 0.0
O65 O 0.72516 0.60551 0.46703 0.0
O66 O 0.72516 0.3286 0.46703 0.0
O67 O 0.20894 0.60551 0.46703 0.0
O68 O -0.03293 0.70895 0.3286 0.0
O69 O -0.03293 0.22516 0.60551 0.0
O70 O -0.03293 0.22516 0.3286 0.0
O71 O -0.03293 0.70895 0.60551 0.0
O72 O 0.8286 0.46703 0.70894 0.0
O73 O 0.1055 0.46703 0.22516 0.0
O74 O 0.8286 0.46703 0.22516 0.0
O75 O 0.1055 0.46703 0.70894 0.0
O76 O 0.8286 0.70895 0.46703 0.0
O77 O 0.10551 0.22516 0.46703 0.0
O78 O 0.8286 0.22516 0.46703 0.0
O79 O 0.1055 0.70895 0.46703 0.0
O80 O 0.20894 0.46703 0.60551 0.0
O81 O 0.72516 0.46703 0.3286 0.0
O82 O 0.72516 0.46703 0.60551 0.0
O83 O 0.20894 0.46703 0.3286 0.0
C84 C 0.18391 0.25019 0.46702 0.0
O85 O -0.03293 0.60551 0.70894 0.0
O86 O -0.03293 0.3286 0.70894 0.0
C87 C 0.75019 0.68392 0.46702 0.0
C88 C 0.75019 0.25019 0.46702 0.0
C89 C 0.18391 0.68392 0.46702 0.0
C90 C -0.03292 0.68392 0.25019 0.0
C91 C -0.03292 0.25019 0.68391 0.0
C92 C -0.03292 0.25019 0.25019 0.0
C93 C -0.03292 0.68392 0.68391 0.0
C94 C 0.75019 0.46703 0.68391 0.0
C95 C 0.18391 0.46703 0.25019 0.0
C96 C 0.75019 0.46703 0.25019 0.0
C97 C 0.18391 0.46703 0.68391 0.0
O98 O -0.03293 0.3286 0.22516 0.0
O99 O -0.03293 0.60551 0.22516 0.0
O100 O 0.70894 -0.03292 0.3286 0.0
O101 O 0.55348 0.05349 0.38062 0.0
O102 O 0.55348 0.88062 0.55349 0.0
O103 O 0.55348 0.88062 0.38062 0.0
O104 O 0.55348 0.05349 0.55348 0.0
Zr105 Zr 0.63877 -0.03294 0.46705 0.0
Zr106 Zr 0.46705 0.13878 0.46705 0.0
Zr107 Zr 0.46705 -0.03294 0.29533 0.0
O108 O 0.38061 0.05349 0.55348 0.0
O109 O 0.38061 0.88063 0.38062 0.0
O110 O 0.38062 0.05349 0.38062 0.0
Zr111 Zr 0.46705 -0.03294 0.63877 0.0
Zr112 Zr 0.46705 0.79533 0.46705 0.0
Zr113 Zr 0.29533 -0.03294 0.46705 0.0
O114 O 0.38061 0.88062 0.55348 0.0
O115 O 0.22516 -0.03292 0.60551 0.0
O116 O 0.22516 -0.03292 0.3286 0.0
O117 O 0.70894 -0.03292 0.60551 0.0
O118 O 0.46703 0.8286 0.70894 0.0
O119 O 0.46703 0.10551 0.22516 0.0
O120 O 0.46703 0.8286 0.22516 0.0
O121 O 0.46703 0.10551 0.70894 0.0
O122 O 0.32859 0.20895 0.46703 0.0
O123 O 0.6055 0.72517 0.46703 0.0
O124 O 0.32859 0.72517 0.46703 0.0
O125 O 0.6055 0.20895 0.46703 0.0
O126 O 0.32859 -0.03292 0.70894 0.0
O127 O 0.6055 -0.03292 0.22516 0.0
O128 O 0.32859 -0.03292 0.22516 0.0
O129 O 0.6055 -0.03292 0.70894 0.0
O130 O 0.70894 0.10551 0.46703 0.0
O131 O 0.22516 0.8286 0.46703 0.0
O132 O 0.22516 0.10551 0.46703 0.0
O133 O 0.70894 0.8286 0.46703 0.0
C134 C 0.68391 -0.03292 0.25019 0.0
O135 O 0.46703 0.20895 0.60551 0.0
O136 O 0.46703 0.20895 0.3286 0.0
C137 C 0.25019 -0.03292 0.68391 0.0
C138 C 0.25019 -0.03292 0.25019 0.0
C139 C 0.68391 -0.03292 0.68391 0.0
C140 C 0.46702 0.75019 0.68391 0.0
C141 C 0.46702 0.18392 0.25019 0.0
C142 C 0.46702 0.75019 0.25019 0.0
C143 C 0.46702 0.18392 0.68391 0.0
C144 C 0.25019 0.18392 0.46702 0.0
C145 C 0.68391 0.75019 0.46702 0.0
C146 C 0.25019 0.75019 0.46702 0.0
C147 C 0.68391 0.18392 0.46702 0.0
O148 O 0.46703 0.72516 0.3286 0.0
O149 O 0.46703 0.72517 0.60551 0.0
O150 O 0.70894 0.3286 -0.03293 0.0
O151 O 0.55348 0.38062 0.05349 0.0
O152 O 0.55348 0.55349 0.88062 0.0
O153 O 0.55348 0.38062 0.88062 0.0
O154 O 0.55348 0.55349 0.05349 0.0
Zr155 Zr 0.63877 0.46705 -0.03295 0.0
Zr156 Zr 0.46705 0.46705 0.13878 0.0
Zr157 Zr 0.46705 0.29533 -0.03295 0.0
O158 O 0.38061 0.55349 0.05349 0.0
O159 O 0.38061 0.38062 0.88062 0.0
O160 O 0.38062 0.38062 0.05349 0.0
Zr161 Zr 0.46705 0.63878 -0.03295 0.0
Zr162 Zr 0.46705 0.46705 0.79533 0.0
Zr163 Zr 0.29533 0.46705 -0.03295 0.0
O164 O 0.38061 0.55349 0.88062 0.0
O165 O 0.22516 0.60551 -0.03293 0.0
O166 O 0.22516 0.3286 -0.03293 0.0
O167 O 0.70894 0.60551 -0.03293 0.0
O168 O 0.46703 0.70895 0.8286 0.0
O169 O 0.46703 0.22516 0.10551 0.0
O170 O 0.46703 0.22516 0.8286 0.0
O171 O 0.46703 0.70895 0.10551 0.0
O172 O 0.32859 0.46703 0.20894 0.0
O173 O 0.6055 0.46703 0.72516 0.0
O174 O 0.32859 0.46703 0.72516 0.0
O175 O 0.6055 0.46703 0.20894 0.0
O176 O 0.32859 0.70895 -0.03293 0.0
O177 O 0.6055 0.22516 -0.03293 0.0
O178 O 0.32859 0.22516 -0.03293 0.0
O179 O 0.6055 0.70895 -0.03293 0.0
O180 O 0.70894 0.46703 0.10551 0.0
O181 O 0.22516 0.46703 0.8286 0.0
O182 O 0.22516 0.46703 0.10551 0.0
O183 O 0.70894 0.46703 0.8286 0.0
C184 C 0.68391 0.25019 -0.03292 0.0
O185 O 0.46703 0.60551 0.20894 0.0
O186 O 0.46703 0.3286 0.20894 0.0
C187 C 0.25019 0.68392 -0.03292 0.0
C188 C 0.25019 0.25019 -0.03292 0.0
C189 C 0.68391 0.68392 -0.03292 0.0
C190 C 0.46702 0.68392 0.75019 0.0
C191 C 0.46702 0.25019 0.18392 0.0
C192 C 0.46702 0.25019 0.75019 0.0
C193 C 0.46702 0.68392 0.18392 0.0
C194 C 0.25019 0.46703 0.18392 0.0
C195 C 0.68391 0.46703 0.75019 0.0
C196 C 0.25019 0.46703 0.75019 0.0
C197 C 0.68391 0.46703 0.18391 0.0
O198 O 0.46703 0.3286 0.72516 0.0
O199 O 0.46703 0.60551 0.72516 0.0
loop_
_geom_bond_atom_site_label_1
_geom_bond_atom_site_label_2
_geom_bond_distance
_geom_bond_site_symmetry_2
_ccdc_geom_bond_type
O0 Zr5 2.207 1_565 S
O0 C34 1.295 . S
O1 Zr5 2.133 1_565 S
O1 Zr6 2.133 1_565 S
O1 Zr7 2.133 . S
O2 Zr5 2.133 1_556 S
O2 Zr11 2.133 1_556 S
O2 Zr12 2.133 . S
O3 Zr5 2.133 1_566 S
O3 Zr7 2.133 1_556 S
O3 Zr12 2.133 1_565 S
O4 Zr5 2.133 . S
O4 Zr6 2.133 . S
O4 Zr11 2.133 . S
Zr5 O0 2.207 1_545 S
Zr5 O1 2.133 1_545 S
Zr5 O2 2.133 1_554 S
Zr5 O3 2.133 1_544 S
Zr5 O4 2.133 . S
Zr5 O17 2.207 . S
Zr5 O30 2.207 . S
Zr5 O33 2.207 1_554 S
Zr6 O1 2.133 1_545 S
Zr6 O4 2.133 . S
Zr6 O8 2.133 1_455 S
Zr6 O10 2.133 1_445 S
Zr6 O22 2.207 1_455 S
Zr6 O25 2.207 . S
Zr6 O35 2.207 . S
Zr6 O36 2.207 1_545 S
Zr7 O1 2.133 . S
Zr7 O3 2.133 1_554 S
Zr7 O9 2.133 1_454 S
Zr7 O10 2.133 1_455 S
Zr7 O19 2.207 . S
Zr7 O20 2.207 1_554 S
Zr7 O27 2.207 . S
Zr7 O28 2.207 1_455 S
O8 Zr6 2.133 1_655 S
O8 Zr11 2.133 1_655 S
O8 Zr13 2.133 . S
O9 Zr7 2.133 1_656 S
O9 Zr12 2.133 1_665 S
O9 Zr13 2.133 1_566 S
O10 Zr6 2.133 1_665 S
O10 Zr7 2.133 1_655 S
O10 Zr13 2.133 1_565 S
Zr11 O2 2.133 1_554 S
Zr11 O4 2.133 . S
Zr11 O8 2.133 1_455 S
Zr11 O14 2.133 1_454 S
Zr11 O18 2.207 1_554 S
Zr11 O21 2.207 . S
Zr11 O26 2.207 1_455 S
Zr11 O29 2.207 . S
Zr12 O2 2.133 . S
Zr12 O3 2.133 1_545 S
Zr12 O9 2.133 1_445 S
Zr12 O14 2.133 1_455 S
Zr12 O23 2.207 . S
Zr12 O24 2.207 1_455 S
Zr12 O48 2.207 1_545 S
Zr12 O49 2.207 . S
Zr13 O8 2.133 . S
Zr13 O9 2.133 1_544 S
Zr13 O10 2.133 1_545 S
Zr13 O14 2.133 1_554 S
Zr13 O15 2.207 . S
Zr13 O16 2.207 1_545 S
Zr13 O31 2.207 1_554 S
Zr13 O32 2.207 . S
O14 Zr11 2.133 1_656 S
O14 Zr12 2.133 1_655 S
O14 Zr13 2.133 1_556 S
O15 Zr13 2.207 . S
O15 C37 1.295 . S
O16 Zr13 2.207 1_565 S
O16 C38 1.295 . S
O17 Zr5 2.207 . S
O17 C39 1.295 . S
O18 Zr11 2.207 1_556 S
O18 C40 1.295 . S
O19 Zr7 2.207 . S
O19 C41 1.295 . S
O20 Zr7 2.207 1_556 S
O20 C42 1.295 . S
O21 Zr11 2.207 . S
O21 C43 1.295 . S
O22 Zr6 2.207 1_655 S
O22 C44 1.295 . S
O23 Zr12 2.207 . S
O23 C45 1.295 . S
O24 Zr12 2.207 1_655 S
O24 C46 1.295 . S
O25 Zr6 2.207 . S
O25 C47 1.295 . S
O26 Zr11 2.207 1_655 S
O26 C37 1.295 . S
O27 Zr7 2.207 . S
O27 C34 1.295 . S
O28 Zr7 2.207 1_655 S
O28 C38 1.295 . S
O29 Zr11 2.207 . S
O29 C39 1.295 . S
O30 Zr5 2.207 . S
O30 C47 1.295 . S
O31 Zr13 2.207 1_556 S
O31 C46 1.295 . S
O32 Zr13 2.207 . S
O32 C44 1.295 . S
O33 Zr5 2.207 1_556 S
O33 C45 1.295 . S
C34 O0 1.295 . S
C34 O27 1.295 . S
O35 Zr6 2.207 . S
O35 C43 1.295 . S
O36 Zr6 2.207 1_565 S
O36 C41 1.295 . S
C37 O15 1.295 . S
C37 O26 1.295 . S
C38 O16 1.295 . S
C38 O28 1.295 . S
C39 O17 1.295 . S
C39 O29 1.295 . S
C40 O18 1.295 . S
C40 O49 1.295 . S
C41 O19 1.295 . S
C41 O36 1.295 . S
C42 O20 1.295 . S
C42 O48 1.295 . S
C43 O21 1.295 . S
C43 O35 1.295 . S
C44 O22 1.295 . S
C44 O32 1.295 . S
C45 O23 1.295 . S
C45 O33 1.295 . S
C46 O24 1.295 . S
C46 O31 1.295 . S
C47 O25 1.295 . S
C47 O30 1.295 . S
O48 Zr12 2.207 1_565 S
O48 C42 1.295 . S
O49 Zr12 2.207 . S
O49 C40 1.295 . S
O50 Zr55 2.207 . S
O50 C84 1.295 . S
O51 Zr55 2.133 . S
O51 Zr56 2.133 . S
O51 Zr57 2.133 . S
O52 Zr55 2.133 . S
O52 Zr61 2.133 . S
O52 Zr62 2.133 . S
O53 Zr55 2.133 . S
O53 Zr57 2.133 . S
O53 Zr62 2.133 . S
O54 Zr55 2.133 . S
O54 Zr56 2.133 . S
O54 Zr61 2.133 . S
Zr55 O50 2.207 . S
Zr55 O51 2.133 . S
Zr55 O52 2.133 . S
Zr55 O53 2.133 . S
Zr55 O54 2.133 . S
Zr55 O67 2.207 . S
Zr55 O80 2.207 . S
Zr55 O83 2.207 . S
Zr56 O51 2.133 . S
Zr56 O54 2.133 . S
Zr56 O58 2.133 1_455 S
Zr56 O60 2.133 1_455 S
Zr56 O72 2.207 1_455 S
Zr56 O75 2.207 . S
Zr56 O85 2.207 . S
Zr56 O86 2.207 . S
Zr57 O51 2.133 . S
Zr57 O53 2.133 . S
Zr57 O59 2.133 1_455 S
Zr57 O60 2.133 1_455 S
Zr57 O69 2.207 . S
Zr57 O70 2.207 . S
Zr57 O77 2.207 . S
Zr57 O78 2.207 1_455 S
O58 Zr56 2.133 1_655 S
O58 Zr61 2.133 1_655 S
O58 Zr63 2.133 . S
O59 Zr57 2.133 1_655 S
O59 Zr62 2.133 1_655 S
O59 Zr63 2.133 . S
O60 Zr56 2.133 1_655 S
O60 Zr57 2.133 1_655 S
O60 Zr63 2.133 . S
Zr61 O52 2.133 . S
Zr61 O54 2.133 . S
Zr61 O58 2.133 1_455 S
Zr61 O64 2.133 1_455 S
Zr61 O68 2.207 . S
Zr61 O71 2.207 . S
Zr61 O76 2.207 1_455 S
Zr61 O79 2.207 . S
Zr62 O52 2.133 . S
Zr62 O53 2.133 . S
Zr62 O59 2.133 1_455 S
Zr62 O64 2.133 1_455 S
Zr62 O73 2.207 . S
Zr62 O74 2.207 1_455 S
Zr62 O98 2.207 . S
Zr62 O99 2.207 . S
Zr63 O58 2.133 . S
Zr63 O59 2.133 . S
Zr63 O60 2.133 . S
Zr63 O64 2.133 . S
Zr63 O65 2.207 . S
Zr63 O66 2.207 . S
Zr63 O81 2.207 . S
Zr63 O82 2.207 . S
O64 Zr61 2.133 1_655 S
O64 Zr62 2.133 1_655 S
O64 Zr63 2.133 . S
O65 Zr63 2.207 . S
O65 C87 1.295 . S
O66 Zr63 2.207 . S
O66 C88 1.295 . S
O67 Zr55 2.207 . S
O67 C89 1.295 . S
O68 Zr61 2.207 . S
O68 C90 1.295 . S
O69 Zr57 2.207 . S
O69 C91 1.295 . S
O70 Zr57 2.207 . S
O70 C92 1.295 . S
O71 Zr61 2.207 . S
O71 C93 1.295 . S
O72 Zr56 2.207 1_655 S
O72 C94 1.295 . S
O73 Zr62 2.207 . S
O73 C95 1.295 . S
O74 Zr62 2.207 1_655 S
O74 C96 1.295 . S
O75 Zr56 2.207 . S
O75 C97 1.295 . S
O76 Zr61 2.207 1_655 S
O76 C87 1.295 . S
O77 Zr57 2.207 . S
O77 C84 1.295 . S
O78 Zr57 2.207 1_655 S
O78 C88 1.295 . S
O79 Zr61 2.207 . S
O79 C89 1.295 . S
O80 Zr55 2.207 . S
O80 C97 1.295 . S
O81 Zr63 2.207 . S
O81 C96 1.295 . S
O82 Zr63 2.207 . S
O82 C94 1.295 . S
O83 Zr55 2.207 . S
O83 C95 1.295 . S
C84 O50 1.295 . S
C84 O77 1.295 . S
O85 Zr56 2.207 . S
O85 C93 1.295 . S
O86 Zr56 2.207 . S
O86 C91 1.295 . S
C87 O65 1.295 . S
C87 O76 1.295 . S
C88 O66 1.295 . S
C88 O78 1.295 . S
C89 O67 1.295 . S
C89 O79 1.295 . S
C90 O68 1.295 . S
C90 O99 1.295 . S
C91 O69 1.295 . S
C91 O86 1.295 . S
C92 O70 1.295 . S
C92 O98 1.295 . S
C93 O71 1.295 . S
C93 O85 1.295 . S
C94 O72 1.295 . S
C94 O82 1.295 . S
C95 O73 1.295 . S
C95 O83 1.295 . S
C96 O74 1.295 . S
C96 O81 1.295 . S
C97 O75 1.295 . S
C97 O80 1.295 . S
O98 Zr62 2.207 . S
O98 C92 1.295 . S
O99 Zr62 2.207 . S
O99 C90 1.295 . S
O100 Zr105 2.207 . S
O100 C134 1.295 . S
O101 Zr105 2.133 . S
O101 Zr106 2.133 . S
O101 Zr107 2.133 . S
O102 Zr105 2.133 1_565 S
O102 Zr111 2.133 1_565 S
O102 Zr112 2.133 . S
O103 Zr105 2.133 1_565 S
O103 Zr107 2.133 1_565 S
O103 Zr112 2.133 . S
O104 Zr105 2.133 . S
O104 Zr106 2.133 . S
O104 Zr111 2.133 . S
Zr105 O100 2.207 . S
Zr105 O101 2.133 . S
Zr105 O102 2.133 1_545 S
Zr105 O103 2.133 1_545 S
Zr105 O104 2.133 . S
Zr105 O117 2.207 . S
Zr105 O130 2.207 . S
Zr105 O133 2.207 1_545 S
Zr106 O101 2.133 . S
Zr106 O104 2.133 . S
Zr106 O108 2.133 . S
Zr106 O110 2.133 . S
Zr106 O122 2.207 . S
Zr106 O125 2.207 . S
Zr106 O135 2.207 . S
Zr106 O136 2.207 . S
Zr107 O101 2.133 . S
Zr107 O103 2.133 1_545 S
Zr107 O109 2.133 1_545 S
Zr107 O110 2.133 . S
Zr107 O119 2.207 . S
Zr107 O120 2.207 1_545 S
Zr107 O127 2.207 . S
Zr107 O128 2.207 . S
O108 Zr106 2.133 . S
O108 Zr111 2.133 . S
O108 Zr113 2.133 . S
O109 Zr107 2.133 1_565 S
O109 Zr112 2.133 . S
O109 Zr113 2.133 1_565 S
O110 Zr106 2.133 . S
O110 Zr107 2.133 . S
O110 Zr113 2.133 . S
Zr111 O102 2.133 1_545 S
Zr111 O104 2.133 . S
Zr111 O108 2.133 . S
Zr111 O114 2.133 1_545 S
Zr111 O118 2.207 1_545 S
Zr111 O121 2.207 . S
Zr111 O126 2.207 . S
Zr111 O129 2.207 . S
Zr112 O102 2.133 . S
Zr112 O103 2.133 . S
Zr112 O109 2.133 . S
Zr112 O114 2.133 . S
Zr112 O123 2.207 . S
Zr112 O124 2.207 . S
Zr112 O148 2.207 . S
Zr112 O149 2.207 . S
Zr113 O108 2.133 . S
Zr113 O109 2.133 1_545 S
Zr113 O110 2.133 . S
Zr113 O114 2.133 1_545 S
Zr113 O115 2.207 . S
Zr113 O116 2.207 . S
Zr113 O131 2.207 1_545 S
Zr113 O132 2.207 . S
O114 Zr111 2.133 1_565 S
O114 Zr112 2.133 . S
O114 Zr113 2.133 1_565 S
O115 Zr113 2.207 . S
O115 C137 1.295 . S
O116 Zr113 2.207 . S
O116 C138 1.295 . S
O117 Zr105 2.207 . S
O117 C139 1.295 . S
O118 Zr111 2.207 1_565 S
O118 C140 1.295 . S
O119 Zr107 2.207 . S
O119 C141 1.295 . S
O120 Zr107 2.207 1_565 S
O120 C142 1.295 . S
O121 Zr111 2.207 . S
O121 C143 1.295 . S
O122 Zr106 2.207 . S
O122 C144 1.295 . S
O123 Zr112 2.207 . S
O123 C145 1.295 . S
O124 Zr112 2.207 . S
O124 C146 1.295 . S
O125 Zr106 2.207 . S
O125 C147 1.295 . S
O126 Zr111 2.207 . S
O126 C137 1.295 . S
O127 Zr107 2.207 . S
O127 C134 1.295 . S
O128 Zr107 2.207 . S
O128 C138 1.295 . S
O129 Zr111 2.207 . S
O129 C139 1.295 . S
O130 Zr105 2.207 . S
O130 C147 1.295 . S
O131 Zr113 2.207 1_565 S
O131 C146 1.295 . S
O132 Zr113 2.207 . S
O132 C144 1.295 . S
O133 Zr105 2.207 1_565 S
O133 C145 1.295 . S
C134 O100 1.295 . S
C134 O127 1.295 . S
O135 Zr106 2.207 . S
O135 C143 1.295 . S
O136 Zr106 2.207 . S
O136 C141 1.295 . S
C137 O115 1.295 . S
C137 O126 1.295 . S
C138 O116 1.295 . S
C138 O128 1.295 . S
C139 O117 1.295 . S
C139 O129 1.295 . S
C140 O118 1.295 . S
C140 O149 1.295 . S
C141 O119 1.295 . S
C141 O136 1.295 . S
C142 O120 1.295 . S
C142 O148 1.295 . S
C143 O121 1.295 . S
C143 O135 1.295 . S
C144 O122 1.295 . S
C144 O132 1.295 . S
C145 O123 1.295 . S
C145 O133 1.295 . S
C146 O124 1.295 . S
C146 O131 1.295 . S
C147 O125 1.295 . S
C147 O130 1.295 . S
O148 Zr112 2.207 . S
O148 C142 1.295 . S
O149 Zr112 2.207 . S
O149 C140 1.295 . S
O150 Zr155 2.207 . S
O150 C184 1.295 . S
O151 Zr155 2.133 . S
O151 Zr156 2.133 . S
O151 Zr157 2.133 . S
O152 Zr155 2.133 1_556 S
O152 Zr161 2.133 1_556 S
O152 Zr162 2.133 . S
O153 Zr155 2.133 1_556 S
O153 Zr157 2.133 1_556 S
O153 Zr162 2.133 . S
O154 Zr155 2.133 . S
O154 Zr156 2.133 . S
O154 Zr161 2.133 . S
Zr155 O150 2.207 . S
Zr155 O151 2.133 . S
Zr155 O152 2.133 1_554 S
Zr155 O153 2.133 1_554 S
Zr155 O154 2.133 . S
Zr155 O167 2.207 . S
Zr155 O180 2.207 . S
Zr155 O183 2.207 1_554 S
Zr156 O151 2.133 . S
Zr156 O154 2.133 . S
Zr156 O158 2.133 . S
Zr156 O160 2.133 . S
Zr156 O172 2.207 . S
Zr156 O175 2.207 . S
Zr156 O185 2.207 . S
Zr156 O186 2.207 . S
Zr157 O151 2.133 . S
Zr157 O153 2.133 1_554 S
Zr157 O159 2.133 1_554 S
Zr157 O160 2.133 . S
Zr157 O169 2.207 . S
Zr157 O170 2.207 1_554 S
Zr157 O177 2.207 . S
Zr157 O178 2.207 . S
O158 Zr156 2.133 . S
O158 Zr161 2.133 . S
O158 Zr163 2.133 . S
O159 Zr157 2.133 1_556 S
O159 Zr162 2.133 . S
O159 Zr163 2.133 1_556 S
O160 Zr156 2.133 . S
O160 Zr157 2.133 . S
O160 Zr163 2.133 . S
Zr161 O152 2.133 1_554 S
Zr161 O154 2.133 . S
Zr161 O158 2.133 . S
Zr161 O164 2.133 1_554 S
Zr161 O168 2.207 1_554 S
Zr161 O171 2.207 . S
Zr161 O176 2.207 . S
Zr161 O179 2.207 . S
Zr162 O152 2.133 . S
Zr162 O153 2.133 . S
Zr162 O159 2.133 . S
Zr162 O164 2.133 . S
Zr162 O173 2.207 . S
Zr162 O174 2.207 . S
Zr162 O198 2.207 . S
Zr162 O199 2.207 . S
Zr163 O158 2.133 . S
Zr163 O159 2.133 1_554 S
Zr163 O160 2.133 . S
Zr163 O164 2.133 1_554 S
Zr163 O165 2.207 . S
Zr163 O166 2.207 . S
Zr163 O181 2.207 1_554 S
Zr163 O182 2.207 . S
O164 Zr161 2.133 1_556 S
O164 Zr162 2.133 . S
O164 Zr163 2.133 1_556 S
O165 Zr163 2.207 . S
O165 C187 1.295 . S
O166 Zr163 2.207 . S
O166 C188 1.295 . S
O167 Zr155 2.207 . S
O167 C189 1.295 . S
O168 Zr161 2.207 1_556 S
O168 C190 1.295 . S
O169 Zr157 2.207 . S
O169 C191 1.295 . S
O170 Zr157 2.207 1_556 S
O170 C192 1.295 . S
O171 Zr161 2.207 . S
O171 C193 1.295 . S
O172 Zr156 2.207 . S
O172 C194 1.295 . S
O173 Zr162 2.207 . S
O173 C195 1.295 . S
O174 Zr162 2.207 . S
O174 C196 1.295 . S
O175 Zr156 2.207 . S
O175 C197 1.295 . S
O176 Zr161 2.207 . S
O176 C187 1.295 . S
O177 Zr157 2.207 . S
O177 C184 1.295 . S
O178 Zr157 2.207 . S
O178 C188 1.295 . S
O179 Zr161 2.207 . S
O179 C189 1.295 . S
O180 Zr155 2.207 . S
O180 C197 1.295 . S
O181 Zr163 2.207 1_556 S
O181 C196 1.295 . S
O182 Zr163 2.207 . S
O182 C194 1.295 . S
O183 Zr155 2.207 1_556 S
O183 C195 1.295 . S
C184 O150 1.295 . S
C184 O177 1.295 . S
O185 Zr156 2.207 . S
O185 C193 1.295 . S
O186 Zr156 2.207 . S
O186 C191 1.295 . S
C187 O165 1.295 . S
C187 O176 1.295 . S
C188 O166 1.295 . S
C188 O178 1.295 . S
C189 O167 1.295 . S
C189 O179 1.295 . S
C190 O168 1.295 . S
C190 O199 1.295 . S
C191 O169 1.295 . S
C191 O186 1.295 . S
C192 O170 1.295 . S
C192 O198 1.295 . S
C193 O171 1.295 . S
C193 O185 1.295 . S
C194 O172 1.295 . S
C194 O182 1.295 . S
C195 O173 1.295 . S
C195 O183 1.295 . S
C196 O174 1.295 . S
C196 O181 1.295 . S
C197 O175 1.295 . S
C197 O180 1.295 . S
O198 Zr162 2.207 . S
O198 C192 1.295 . S
O199 Zr162 2.207 . S
O199 C190 1.295 . S
C43 C92 1.498 . S
C44 C134 1.500 . S
C41 C90 1.500 . S
C138 C47 1.498 . S
C42 C93 1.502 . S
C45 C137 1.500 . S
C91 C40 1.500 . S
C139 C46 1.502 . S
C188 C39 1.498 . S
C187 C34 1.500 . S
C184 C37 1.500 . S
C38 C189 1.502 . S
C195 C94 1.502 . S
C97 C196 1.500 . S
C95 C194 1.498 . S
C197 C96 1.500 . S
C146 C89 1.500 . S
C84 C144 1.498 . S
C87 C145 1.502 . S
C147 C88 1.500 . S
C192 C143 1.500 . S
C140 C190 1.502 . S
C193 C142 1.500 . S
C141 C191 1.498 . S
