# Generated by pormake.
# Topology pcu, (6)-cn, num edge types: 1
# Building blocks:
#     Node 0, Type 0, BuildingBlock: BETFEN_clean_sbu_0, # of connection points: 6
#     Edge 1, Type (0, 0), BuildingBlock: FUNLAD_clean_linker_0, # of connection points: 2
#     Edge 2, Type (0, 0), BuildingBlock: FUNLAD_clean_linker_0, # of connection points: 2
#     Edge 3, Type (0, 0), BuildingBlock: FUNLAD_clean_linker_0, # of connection points: 2
# Relax obj value: 0.000
# Max RMSD: 0.000
# Mean RMSD: 0.000
data_MOF--net-pcu--node1-BETFEN_clean_sbu_0--edge1-FUNLAD_clean_linker_0
_symmetry_space_group_name_H-M    P1
_symmetry_Int_Tables_number       1
_symmetry_cell_setting            triclinic
loop_
_symmetry_equiv_pos_as_xyz
'x, y, z'
_cell_length_a     28.067787
_cell_length_b     18.098196
_cell_length_c     17.002738
_cell_angle_alpha  86.899205
_cell_angle_beta   97.251535
_cell_angle_gamma 124.51063
loop_
_atom_site_label
_atom_site_type_symbol
_atom_site_fract_x
_atom_site_fract_y
_atom_site_fract_z
_atom_type_partial_charge
Pr0 Pr 0.95763 0.92553 0.02737 0.0
Pr1 Pr 0.08622 0.03448 1.00442 0.0
C2 C 0.85179 0.86231 0.07118 0.0
C3 C 0.80842 0.8846 0.0612 0.0
C4 C 0.81295 0.94853 1.00642 0.0
C5 C 0.77092 0.96817 0.99713 0.0
C6 C 0.72366 0.92434 0.04261 0.0
C7 C 0.71987 0.86091 0.09792 0.0
C8 C 0.76182 0.84129 0.10702 0.0
C9 C 0.97874 0.93063 0.87044 0.0
C10 C 0.0282 0.14595 0.99722 0.0
C11 C 0.19225 0.09797 0.96116 0.0
C12 C 0.23555 0.07556 0.97104 0.0
C13 C 0.23095 0.01147 0.02567 0.0
C14 C 0.27294 -0.00823 0.03491 0.0
C15 C 0.32025 0.03568 0.98949 0.0
C16 C 0.32411 0.09925 0.93431 0.0
C17 C 0.28219 0.11894 0.92527 0.0
C18 C 0.06472 0.02922 0.16128 0.0
C19 C 1.0156 0.81402 0.03419 0.0
O20 O 0.9006 0.91774 0.11527 0.0
O21 O 0.85928 0.83397 1.00776 0.0
O22 O 1.00585 -0.00288 0.91799 0.0
O23 O 0.93763 0.85936 0.90234 0.0
O24 O 0.06989 0.14497 0.97039 0.0
O25 O 0.98534 0.07457 0.02928 0.0
O26 O 0.14355 0.04294 0.91667 0.0
O27 O 0.18456 0.12579 0.02473 0.0
O28 O 0.03804 0.96276 0.11376 0.0
O29 O 0.10569 0.10068 0.12939 0.0
O30 O 0.97395 0.81499 0.06116 0.0
O31 O 0.05847 0.88544 1.00216 0.0
H32 H 0.84877 0.98283 0.97058 0.0
H33 H 0.77501 0.01664 0.95341 0.0
H34 H 0.68477 0.82699 0.13492 0.0
H35 H 0.75785 0.79217 0.14997 0.0
H36 H 0.1951 0.97711 0.06147 0.0
H37 H 0.2688 0.94318 0.07853 0.0
H38 H 0.35923 0.13324 0.89735 0.0
H39 H 0.28621 0.16818 0.88242 0.0
C40 C 1.01358 0.94316 0.27822 0.0
C41 C 0.05528 0.02457 0.2455 0.0
C42 C 1.00566 0.93917 0.35845 0.0
C43 C 0.03954 0.01676 0.40766 0.0
C44 C 0.08032 0.09828 0.3741 0.0
C45 C 0.08831 0.10214 0.29411 0.0
C46 C 0.0329 0.01658 0.49336 0.0
C47 C 1.01019 0.94278 0.53826 0.0
C48 C 1.00362 0.94268 0.62397 0.0
C49 C 0.96265 0.86131 0.65753 0.0
C50 C 0.95474 0.85757 0.73755 0.0
C51 C 0.98805 0.93512 0.78617 0.0
H52 H 0.07121 0.08375 0.65072 0.0
C53 C 0.02993 0.01637 0.75344 0.0
C54 C 0.03776 0.02024 0.67319 0.0
H55 H 0.0567 0.07701 0.78985 0.0
H56 H 0.98703 0.88249 0.24182 0.0
H57 H 0.97236 0.87552 0.3809 0.0
H58 H 0.10659 0.15928 0.41012 0.0
H59 H 0.12051 0.16602 0.2704 0.0
H60 H 0.04835 0.0806 0.5202 0.0
H61 H 0.99472 0.87873 0.51145 0.0
H62 H 0.93617 0.80034 0.6215 0.0
H63 H 0.9224 0.79381 0.76127 0.0
C64 C 0.42462 0.0846 0.99696 0.0
C65 C 0.36546 0.01562 0.99956 0.0
C66 C 0.46708 0.06597 1.00578 0.0
C67 C 0.45142 0.97748 0.01709 0.0
C68 C 0.39242 0.90886 0.02079 0.0
C69 C 0.34998 0.92749 0.01187 0.0
C70 C 0.49499 0.95396 0.02766 0.0
C71 C 0.54886 0.00593 1.00435 0.0
C72 C 0.59243 0.98243 0.01492 0.0
C73 C 0.65142 0.05105 1.01112 0.0
C74 C 0.69388 0.03245 0.02006 0.0
C75 C 0.67843 0.94435 0.03251 0.0
H76 H 0.53187 0.83832 0.02696 0.0
C77 C 0.61928 0.87537 0.03521 0.0
C78 C 0.57681 0.89397 0.02636 0.0
H79 H 0.60554 0.80641 0.04283 0.0
H80 H 0.43838 0.15358 0.98943 0.0
H81 H 0.51203 0.12162 1.00527 0.0
H82 H 0.37893 0.84016 0.02994 0.0
H83 H 0.30487 0.87246 0.01353 0.0
H84 H 0.48128 0.89043 0.05526 0.0
H85 H 0.56255 0.06945 0.97674 0.0
H86 H 0.66489 0.11973 1.00188 0.0
H87 H 0.73897 0.08749 0.01833 0.0
C88 C 0.06207 0.73296 0.01815 0.0
C89 C 1.01459 0.73148 0.03873 0.0
C90 C 0.06053 0.65458 0.01875 0.0
C91 C 1.01114 0.57267 0.03924 0.0
C92 C 0.96448 0.57174 0.0622 0.0
C93 C 0.96604 0.65031 0.06174 0.0
C94 C 1.00716 0.48745 0.03868 0.0
C95 C 0.03655 0.47246 0.9923 0.0
C96 C 0.03259 0.38723 0.99177 0.0
C97 C 0.07928 0.38818 0.96893 0.0
C98 C 0.07774 0.30963 0.9695 0.0
C99 C 0.02918 0.22846 0.99251 0.0
H100 H 0.94526 0.3009 0.02696 0.0
C101 C 0.98166 0.22697 0.01294 0.0
C102 C 0.98318 0.30533 0.01223 0.0
H103 H 0.94311 0.1652 0.02965 0.0
H104 H 0.10061 0.79473 1.00143 0.0
H105 H 0.09842 0.65901 1.00392 0.0
H106 H 0.92622 0.5097 0.07919 0.0
H107 H 0.92887 0.64704 0.07824 0.0
H108 H 0.97809 0.43514 0.07696 0.0
H109 H 0.06563 0.52476 0.95402 0.0
H110 H 0.11755 0.45022 0.95197 0.0
H111 H 0.11494 0.3129 0.95311 0.0
loop_
_geom_bond_atom_site_label_1
_geom_bond_atom_site_label_2
_geom_bond_distance
_geom_bond_site_symmetry_2
_ccdc_geom_bond_type
Pr0 C2 2.880 . S
Pr0 O20 2.562 1_556 S
Pr0 O21 2.490 . S
Pr0 O22 2.695 1_655 S
Pr0 O23 2.512 . S
Pr0 O25 2.437 1_565 S
Pr0 O28 2.436 1_566 S
Pr0 O30 2.438 . S
Pr1 C11 2.880 . S
Pr1 O22 2.436 1_544 S
Pr1 O24 2.438 . S
Pr1 O26 2.562 1_554 S
Pr1 O27 2.490 . S
Pr1 O28 2.695 1_455 S
Pr1 O29 2.512 . S
Pr1 O31 2.437 1_545 S
C2 Pr0 2.880 . S
C2 C3 1.491 . S
C2 O20 1.254 1_556 S
C2 O21 1.225 . S
C3 C2 1.491 . S
C3 C4 1.392 . S
C3 C8 1.356 1_566 S
C4 C3 1.392 . S
C4 C5 1.368 . S
C4 H32 0.929 . S
C5 C4 1.368 . S
C5 C6 1.398 . S
C5 H33 0.929 . S
C6 C5 1.398 . S
C6 C7 1.362 1_566 S
C7 C6 1.362 1_544 S
C7 C8 1.409 . S
C7 H34 0.931 . S
C8 C3 1.356 1_544 S
C8 C7 1.409 . S
C8 H35 0.930 . S
C9 O22 1.270 1_655 S
C9 O23 1.248 . S
C10 O24 1.267 1_556 S
C10 O25 1.278 1_455 S
C11 Pr1 2.880 . S
C11 C12 1.491 . S
C11 O26 1.254 1_554 S
C11 O27 1.225 . S
C12 C11 1.491 . S
C12 C13 1.392 . S
C12 C17 1.356 1_544 S
C13 C12 1.392 . S
C13 C14 1.368 . S
C13 H36 0.929 . S
C14 C13 1.368 . S
C14 C15 1.386 . S
C14 H37 0.929 . S
C15 C14 1.386 . S
C15 C16 1.373 1_544 S
C16 C15 1.373 1_566 S
C16 C17 1.409 . S
C16 H38 0.931 . S
C17 C12 1.356 1_566 S
C17 C16 1.409 . S
C17 H39 0.930 . S
C18 O28 1.270 1_455 S
C18 O29 1.248 . S
C19 O30 1.267 1_554 S
C19 O31 1.278 1_655 S
O20 Pr0 2.562 1_554 S
O20 C2 1.254 1_554 S
O21 Pr0 2.490 . S
O21 C2 1.225 . S
O22 Pr0 2.695 1_455 S
O22 Pr1 2.436 1_566 S
O22 C9 1.270 1_455 S
O23 Pr0 2.512 . S
O23 C9 1.248 . S
O24 Pr1 2.438 . S
O24 C10 1.267 1_554 S
O25 Pr0 2.437 1_545 S
O25 C10 1.278 1_655 S
O26 Pr1 2.562 1_556 S
O26 C11 1.254 1_556 S
O27 Pr1 2.490 . S
O27 C11 1.225 . S
O28 Pr0 2.436 1_544 S
O28 Pr1 2.695 1_655 S
O28 C18 1.270 1_655 S
O29 Pr1 2.512 . S
O29 C18 1.248 . S
O30 Pr0 2.438 . S
O30 C19 1.267 1_556 S
O31 Pr1 2.437 1_565 S
O31 C19 1.278 1_455 S
H32 C4 0.929 . S
H33 C5 0.929 . S
H34 C7 0.931 . S
H35 C8 0.930 . S
H36 C13 0.929 . S
H37 C14 0.929 . S
H38 C16 0.931 . S
H39 C17 0.930 . S
C40 C41 1.386 1_655 S
C40 C42 1.383 . S
C40 H56 0.957 . S
C41 C40 1.386 1_455 S
C41 C45 1.383 . S
C42 C40 1.383 . S
C42 C43 1.402 1_655 S
C42 H57 0.951 . S
C43 C42 1.402 1_455 S
C43 C44 1.375 . S
C43 C46 1.481 . S
C44 C43 1.375 . S
C44 C45 1.367 . S
C44 H58 0.951 . S
C45 C41 1.383 . S
C45 C44 1.367 . S
C45 H59 0.950 . S
C46 C43 1.481 . S
C46 C47 1.297 1_455 S
C46 H60 0.950 . S
C47 C46 1.297 1_655 S
C47 C48 1.479 . S
C47 H61 0.950 . S
C48 C47 1.479 . S
C48 C49 1.375 . S
C48 C54 1.404 1_655 S
C49 C48 1.375 . S
C49 C50 1.369 . S
C49 H62 0.950 . S
C50 C49 1.369 . S
C50 C51 1.392 . S
C50 H63 0.951 . S
C51 C50 1.392 . S
C51 C53 1.384 1_655 S
H52 C54 0.949 . S
C53 C51 1.384 1_455 S
C53 C54 1.385 . S
C53 H55 0.950 . S
C54 C48 1.404 1_455 S
C54 H52 0.949 . S
C54 C53 1.385 . S
H55 C53 0.950 . S
H56 C40 0.957 . S
H57 C42 0.951 . S
H58 C44 0.951 . S
H59 C45 0.950 . S
H60 C46 0.950 . S
H61 C47 0.950 . S
H62 C49 0.950 . S
H63 C50 0.951 . S
C64 C65 1.385 1_546 S
C64 C66 1.383 . S
C64 H80 0.951 . S
C65 C64 1.385 1_564 S
C65 C69 1.389 . S
C66 C64 1.383 . S
C66 C67 1.402 1_546 S
C66 H81 0.951 . S
C67 C66 1.402 1_564 S
C67 C68 1.375 . S
C67 C70 1.481 . S
C68 C67 1.375 . S
C68 C69 1.367 . S
C68 H82 0.951 . S
C69 C65 1.389 . S
C69 C68 1.367 . S
C69 H83 0.950 . S
C70 C67 1.481 . S
C70 C71 1.297 1_565 S
C70 H84 0.950 . S
C71 C70 1.297 1_545 S
C71 C72 1.479 . S
C71 H85 0.950 1_554 S
C72 C71 1.479 . S
C72 C73 1.375 1_554 S
C72 C78 1.404 1_545 S
C73 C72 1.375 1_556 S
C73 C74 1.369 . S
C73 H86 0.950 . S
C74 C73 1.369 . S
C74 C75 1.392 1_556 S
C74 H87 0.951 . S
C75 C74 1.392 1_554 S
C75 C77 1.384 1_545 S
H76 C78 0.949 . S
C77 C75 1.384 1_565 S
C77 C78 1.385 . S
C77 H79 0.950 . S
C78 C72 1.404 1_565 S
C78 H76 0.949 . S
C78 C77 1.385 . S
H79 C77 0.950 . S
H80 C64 0.951 . S
H81 C66 0.951 . S
H82 C68 0.951 . S
H83 C69 0.950 . S
H84 C70 0.950 . S
H85 C71 0.950 1_556 S
H86 C73 0.950 . S
H87 C74 0.951 . S
C88 C89 1.386 1_454 S
C88 C90 1.383 . S
C88 H104 0.951 . S
C89 C88 1.386 1_656 S
C89 C93 1.383 . S
C90 C88 1.383 . S
C90 C91 1.402 1_454 S
C90 H105 0.951 . S
C91 C90 1.402 1_656 S
C91 C92 1.375 . S
C91 C94 1.481 . S
C92 C91 1.375 . S
C92 C93 1.367 . S
C92 H106 0.951 . S
C93 C89 1.383 . S
C93 C92 1.367 . S
C93 H107 0.950 . S
C94 C91 1.481 . S
C94 C95 1.297 1_556 S
C94 H108 0.950 . S
C95 C94 1.297 1_554 S
C95 C96 1.479 . S
C95 H109 0.950 . S
C96 C95 1.479 . S
C96 C97 1.375 1_655 S
C96 C102 1.404 1_554 S
C97 C96 1.375 1_455 S
C97 C98 1.369 . S
C97 H110 0.950 . S
C98 C97 1.369 . S
C98 C99 1.392 1_455 S
C98 H111 0.951 . S
C99 C98 1.392 1_655 S
C99 C101 1.384 1_554 S
H100 C102 0.949 . S
C101 C99 1.384 1_556 S
C101 C102 1.385 . S
C101 H103 0.950 . S
C102 C96 1.404 1_556 S
C102 H100 0.949 . S
C102 C101 1.385 . S
H103 C101 0.950 . S
H104 C88 0.951 . S
H105 C90 0.951 . S
H106 C92 0.951 . S
H107 C93 0.950 . S
H108 C94 0.950 . S
H109 C95 0.950 . S
H110 C97 0.950 . S
H111 C98 0.951 . S
C41 C18 1.441 1_565 S
C51 C9 1.407 . S
C65 C15 1.489 1_565 S
C75 C6 1.490 1_544 S
C89 C19 1.487 1_556 S
C99 C10 1.496 1_654 S
