# Generated by pormake.
# Topology afw, (4)-cn, num edge types: 1
# Building blocks:
#     Node 0, Type 0, BuildingBlock: NAHDIM_clean_sbu_0, # of connection points: 4
#     Node 1, Type 0, BuildingBlock: NAHDIM_clean_sbu_0, # of connection points: 4
#     Node 2, Type 0, BuildingBlock: NAHDIM_clean_sbu_0, # of connection points: 4
#     Node 3, Type 0, BuildingBlock: NAHDIM_clean_sbu_0, # of connection points: 4
#     Node 4, Type 0, BuildingBlock: NAHDIM_clean_sbu_0, # of connection points: 4
#     Node 5, Type 0, BuildingBlock: NAHDIM_clean_sbu_0, # of connection points: 4
#     Node 6, Type 0, BuildingBlock: NAHDIM_clean_sbu_0, # of connection points: 4
#     Node 7, Type 0, BuildingBlock: NAHDIM_clean_sbu_0, # of connection points: 4
#     Node 8, Type 0, BuildingBlock: NAHDIM_clean_sbu_0, # of connection points: 4
#     Edge 9, Type (0, 0), BuildingBlock: EYOCIG_clean_linker_4, # of connection points: 2
#     Edge 10, Type (0, 0), BuildingBlock: EYOCIG_clean_linker_4, # of connection points: 2
#     Edge 11, Type (0, 0), BuildingBlock: EYOCIG_clean_linker_4, # of connection points: 2
#     Edge 12, Type (0, 0), BuildingBlock: EYOCIG_clean_linker_4, # of connection points: 2
#     Edge 13, Type (0, 0), BuildingBlock: EYOCIG_clean_linker_4, # of connection points: 2
#     Edge 14, Type (0, 0), BuildingBlock: EYOCIG_clean_linker_4, # of connection points: 2
#     Edge 15, Type (0, 0), BuildingBlock: EYOCIG_clean_linker_4, # of connection points: 2
#     Edge 16, Type (0, 0), BuildingBlock: EYOCIG_clean_linker_4, # of connection points: 2
#     Edge 17, Type (0, 0), BuildingBlock: EYOCIG_clean_linker_4, # of connection points: 2
#     Edge 18, Type (0, 0), BuildingBlock: EYOCIG_clean_linker_4, # of connection points: 2
#     Edge 19, Type (0, 0), BuildingBlock: EYOCIG_clean_linker_4, # of connection points: 2
#     Edge 20, Type (0, 0), BuildingBlock: EYOCIG_clean_linker_4, # of connection points: 2
#     Edge 21, Type (0, 0), BuildingBlock: EYOCIG_clean_linker_4, # of connection points: 2
#     Edge 22, Type (0, 0), BuildingBlock: EYOCIG_clean_linker_4, # of connection points: 2
#     Edge 23, Type (0, 0), BuildingBlock: EYOCIG_clean_linker_4, # of connection points: 2
#     Edge 24, Type (0, 0), BuildingBlock: EYOCIG_clean_linker_4, # of connection points: 2
#     Edge 25, Type (0, 0), BuildingBlock: EYOCIG_clean_linker_4, # of connection points: 2
#     Edge 26, Type (0, 0), BuildingBlock: EYOCIG_clean_linker_4, # of connection points: 2
# Relax obj value: 0.262
# Max RMSD: 0.264
# Mean RMSD: 0.246
data_MOF--net-afw--node1-NAHDIM_clean_sbu_0--edge1-EYOCIG_clean_linker_4
_symmetry_space_group_name_H-M    P1
_symmetry_Int_Tables_number       1
_symmetry_cell_setting            triclinic
loop_
_symmetry_equiv_pos_as_xyz
'x, y, z'
_cell_length_a     31.782753
_cell_length_b     34.031904
_cell_length_c     28.662659
_cell_angle_alpha  93.410787
_cell_angle_beta   90.901605
_cell_angle_gamma 118.67323
loop_
_atom_site_label
_atom_site_type_symbol
_atom_site_fract_x
_atom_site_fract_y
_atom_site_fract_z
_atom_type_partial_charge
C0 C 0.02859 0.25752 0.91926 0.0
O1 O 0.05698 0.27444 0.95715 0.0
O2 O 0.0397 0.17354 -0.01591 0.0
Zn3 Zn -0.01672 0.18474 0.97607 0.0
O4 O -0.02485 0.22028 0.03093 0.0
C5 C 0.92511 0.09315 -0.00821 0.0
O6 O 0.96268 0.10302 0.0194 0.0
O7 O -0.00733 0.21841 0.91829 0.0
C8 C 0.9742 0.21019 0.07297 0.0
O9 O -0.01875 0.17665 0.08302 0.0
C10 C 0.07862 0.19475 0.00879 0.0
O11 O 0.08787 0.23115 0.03505 0.0
O12 O 0.92424 0.12321 0.96812 0.0
C13 C 0.76317 0.71272 0.05782 0.0
O14 O 0.7775 0.69752 0.02174 0.0
O15 O 0.86219 0.8001 -0.00029 0.0
Zn16 Zn 0.79276 0.78589 0.00146 0.0
O17 O 0.75176 0.74863 0.94406 0.0
C18 C 0.82557 0.87807 -0.01182 0.0
O19 O 0.85828 0.87235 0.96612 0.0
O20 O 0.76559 0.75106 0.05792 0.0
C21 C 0.75273 0.76586 0.90572 0.0
O22 O 0.78289 0.80833 0.90153 0.0
C23 C 0.88181 0.78731 0.96854 0.0
O24 O 0.85617 0.76048 0.93234 0.0
O25 O 0.79226 0.84544 0.00729 0.0
C26 C 0.24198 0.95426 0.90983 0.0
O27 O 0.2341 0.93007 0.9459 0.0
O28 O 0.13377 0.94245 0.96985 0.0
Zn29 Zn 0.20127 -0.00564 0.96946 0.0
O30 O 0.24405 -0.00141 0.02461 0.0
C31 C 0.16331 0.05366 -0.0084 0.0
O32 O 0.13166 0.01828 0.01138 0.0
O33 O 0.23083 -0.01453 0.91082 0.0
C34 C 0.23944 0.01108 0.06593 0.0
O35 O 0.20409 0.01948 0.07491 0.0
C36 C 0.11927 0.90824 -0.00664 0.0
O37 O 0.14929 0.90359 0.02147 0.0
O38 O 0.19731 0.05208 0.97031 0.0
C39 C 0.70513 0.58551 0.23935 0.0
O40 O 0.73695 0.60132 0.27473 0.0
O41 O 0.71959 0.49842 0.29558 0.0
Zn42 Zn 0.6641 0.51189 0.29569 0.0
O43 O 0.66412 0.54882 0.35402 0.0
C44 C 0.60391 0.41962 0.30929 0.0
O45 O 0.64367 0.42589 0.33066 0.0
O46 O 0.66896 0.54668 0.2397 0.0
C47 C 0.64468 0.53055 0.39087 0.0
O48 O 0.62628 0.48706 0.39287 0.0
C49 C 0.75181 0.50918 0.32787 0.0
O50 O 0.7526 0.53309 0.36583 0.0
O51 O 0.60267 0.45199 0.29052 0.0
C52 C 0.41908 0.04173 0.38815 0.0
O53 O 0.42754 0.02356 0.3503 0.0
O54 O 0.51739 0.12588 0.32321 0.0
Zn55 Zn 0.44957 0.11452 0.33078 0.0
O56 O 0.40361 0.07867 0.27594 0.0
C57 C 0.48352 0.20489 0.31192 0.0
O58 O 0.50882 0.1939 0.2836 0.0
O59 O 0.42547 0.08157 0.38887 0.0
C60 C 0.4134 0.08556 0.23346 0.0
O61 O 0.45635 0.11584 0.2228 0.0
C62 C 0.5338 0.10346 0.30062 0.0
O63 O 0.50481 0.06544 0.27678 0.0
O64 O 0.45377 0.17592 0.33748 0.0
C65 C 0.94631 0.34777 0.39571 0.0
O66 O 0.9631 0.37132 0.35932 0.0
O67 O 0.84835 0.35733 0.33205 0.0
Zn68 Zn 0.86326 0.30598 0.3347 0.0
O69 O 0.90066 0.30092 0.28032 0.0
C70 C 0.7637 0.24567 0.31331 0.0
O71 O 0.76733 0.28029 0.2923 0.0
O72 O 0.90309 0.31647 0.39421 0.0
C73 C 0.88139 0.28549 0.23957 0.0
O74 O 0.8363 0.27443 0.2308 0.0
C75 C 0.86679 0.39008 0.30642 0.0
O76 O 0.89971 0.39355 0.2774 0.0
O77 O 0.80023 0.24809 0.33483 0.0
C78 C 0.3651 0.92172 0.5753 0.0
O79 O 0.39538 0.93996 0.61176 0.0
O80 O 0.38263 0.83901 0.63805 0.0
Zn81 Zn 0.32573 0.84999 0.63393 0.0
O82 O 0.32197 0.88739 0.68962 0.0
C83 C 0.26937 0.75836 0.65139 0.0
O84 O 0.30965 0.76758 0.6739 0.0
O85 O 0.33046 0.88204 0.57585 0.0
C86 C 0.31533 0.87373 0.73048 0.0
O87 O 0.31352 0.83541 0.73829 0.0
C88 C 0.42133 0.85961 0.66315 0.0
O89 O 0.42971 0.89471 0.69128 0.0
O90 O 0.26622 0.78866 0.63012 0.0
C91 C 0.10243 0.38068 0.73495 0.0
O92 O 0.11578 0.36362 0.69964 0.0
O93 O 0.20675 0.4679 0.67841 0.0
Zn94 Zn 0.13722 0.4539 0.67779 0.0
O95 O 0.0979 0.41601 0.61987 0.0
C96 C 0.17057 0.54581 0.66264 0.0
O97 O 0.20445 0.54015 0.64297 0.0
O98 O 0.10776 0.42007 0.73423 0.0
C99 C 0.09858 0.43344 0.58173 0.0
O100 O 0.12729 0.47637 0.57828 0.0
C101 C 0.22691 0.45599 0.647 0.0
O102 O 0.20186 0.43042 0.6099 0.0
O103 O 0.13648 0.51332 0.68112 0.0
C104 C 0.58541 0.61697 0.57626 0.0
O105 O 0.57901 0.59404 0.61315 0.0
O106 O 0.4791 0.608 0.63887 0.0
Zn107 Zn 0.5464 0.65972 0.63553 0.0
O108 O 0.59039 0.66674 0.69097 0.0
C109 C 0.50754 0.71925 0.65297 0.0
O110 O 0.476 0.68485 0.67411 0.0
O111 O 0.57424 0.64816 0.57685 0.0
C112 C 0.58654 0.68217 0.73115 0.0
O113 O 0.55184 0.69193 0.73827 0.0
C114 C 0.46485 0.57656 0.66621 0.0
O115 O 0.49512 0.57482 0.69657 0.0
O116 O 0.5418 0.71701 0.63295 0.0
C117 C 0.14965 0.12419 -0.00089 0.0
C118 C 0.15858 0.09358 -0.00594 0.0
C119 C 0.1321 0.15508 0.00546 0.0
C120 C 0.11064 0.17612 0.00957 0.0
C121 C 0.8395 0.9607 -0.01019 0.0
C122 C 0.82925 0.92183 -0.00865 0.0
C123 C 0.86118 0.00763 -0.01273 0.0
C124 C 0.88749 0.04742 -0.01364 0.0
C125 C -0.02373 0.82452 0.97678 0.0
C126 C 0.93314 0.8064 0.9711 0.0
C127 C 0.02666 0.85022 -0.01588 0.0
C128 C 0.06922 0.87545 -0.01019 0.0
C129 C 0.83268 0.44718 0.31301 0.0
C130 C 0.84974 0.42232 0.30841 0.0
C131 C 0.80824 0.47238 0.31946 0.0
C132 C 0.78335 0.48998 0.3249 0.0
C133 C 0.50737 0.29027 0.31382 0.0
C134 C 0.49316 0.25066 0.31599 0.0
C135 C 0.53338 0.33701 0.30988 0.0
C136 C 0.56269 0.37583 0.30735 0.0
C137 C 0.62813 0.1436 0.30288 0.0
C138 C 0.58492 0.12222 0.2995 0.0
C139 C 0.67757 0.17484 0.30809 0.0
C140 C 0.718 0.20569 0.31213 0.0
C141 C 0.47484 0.81986 0.66018 0.0
C142 C 0.45299 0.84057 0.66391 0.0
C143 C 0.49297 0.78928 0.65554 0.0
C144 C 0.50242 0.75891 0.65264 0.0
C145 C 0.2041 0.67391 0.65333 0.0
C146 C 0.23046 0.71329 0.64973 0.0
C147 C 0.1828 0.62747 0.65892 0.0
C148 C 0.1731 0.58902 0.6628 0.0
C149 C 0.32146 0.49345 0.65492 0.0
C150 C 0.2783 0.47551 0.64977 0.0
C151 C 0.372 0.51903 0.66084 0.0
C152 C 0.41469 0.5442 0.66494 0.0
C153 C 0.05117 0.30533 0.84552 0.0
C154 C 0.03979 0.28259 0.87851 0.0
C155 C 0.06743 0.33237 0.80734 0.0
C156 C 0.08329 0.35517 0.77477 0.0
C157 C 0.6877 0.72204 0.83673 0.0
C158 C 0.71671 0.74073 0.86907 0.0
C159 C 0.65282 0.70464 0.79917 0.0
C160 C 0.62325 0.69393 0.76732 0.0
C161 C 0.29359 0.91551 0.79859 0.0
C162 C 0.30365 0.89723 0.76679 0.0
C163 C 0.2776 0.93276 0.83619 0.0
C164 C 0.26131 0.9439 0.86892 0.0
C165 C 0.34408 0.04717 0.16729 0.0
C166 C 0.3756 0.06461 0.19763 0.0
C167 C 0.30712 0.03127 0.13184 0.0
C168 C 0.27653 0.02188 0.10135 0.0
C169 C 0.94648 0.24907 0.1389 0.0
C170 C 0.9591 0.23159 0.10847 0.0
C171 C 0.92702 0.26515 0.17436 0.0
C172 C 0.907 0.27478 0.20473 0.0
C173 C 0.72081 0.63511 0.16755 0.0
C174 C 0.71253 0.61159 0.19973 0.0
C175 C 0.73359 0.66307 0.12999 0.0
C176 C 0.74686 0.68664 0.0977 0.0
C177 C 0.03644 0.38883 0.51085 0.0
C178 C 0.06408 0.40769 0.54414 0.0
C179 C 0.00367 0.37096 0.4716 0.0
C180 C -0.02371 0.35925 0.43771 0.0
C181 C 0.63046 0.57513 0.46184 0.0
C182 C 0.63795 0.55641 0.42854 0.0
C183 C 0.61701 0.59301 0.50099 0.0
C184 C 0.60253 0.60493 0.53466 0.0
C185 C 0.38035 0.96839 0.5012 0.0
C186 C 0.37242 0.94623 0.53448 0.0
C187 C 0.39232 -0.00522 0.46241 0.0
C188 C 0.40449 0.01702 0.42907 0.0
loop_
_geom_bond_atom_site_label_1
_geom_bond_atom_site_label_2
_geom_bond_distance
_geom_bond_site_symmetry_2
_ccdc_geom_bond_type
C0 O1 1.160 . S
C0 O7 1.185 . S
O1 C0 1.160 . S
O2 Zn3 1.899 1_556 S
O2 C10 1.284 1_556 S
Zn3 O2 1.899 1_554 S
Zn3 O4 2.032 . S
Zn3 O7 2.086 1_554 S
Zn3 O12 1.977 1_454 S
O4 Zn3 2.032 . S
O4 C8 1.278 1_455 S
C5 O6 1.203 . S
C5 O12 1.267 1_554 S
O6 C5 1.203 . S
O7 C0 1.185 . S
O7 Zn3 2.086 1_556 S
C8 O4 1.278 1_655 S
C8 O9 1.211 . S
O9 C8 1.211 . S
C10 O2 1.284 1_554 S
C10 O11 1.273 . S
O11 C10 1.273 . S
O12 Zn3 1.977 1_656 S
O12 C5 1.267 1_556 S
C13 O14 1.160 . S
C13 O20 1.185 . S
O14 C13 1.160 . S
O15 Zn16 1.899 . S
O15 C23 1.284 1_554 S
Zn16 O15 1.899 . S
Zn16 O17 2.032 1_554 S
Zn16 O20 2.086 . S
Zn16 O25 1.977 . S
O17 Zn16 2.032 1_556 S
O17 C21 1.278 . S
C18 O19 1.203 1_554 S
C18 O25 1.267 . S
O19 C18 1.203 1_556 S
O20 C13 1.185 . S
O20 Zn16 2.086 . S
C21 O17 1.278 . S
C21 O22 1.211 . S
O22 C21 1.211 . S
C23 O15 1.284 1_556 S
C23 O24 1.273 . S
O24 C23 1.273 . S
O25 Zn16 1.977 . S
O25 C18 1.267 . S
C26 O27 1.160 . S
C26 O33 1.185 1_565 S
O27 C26 1.160 . S
O28 Zn29 1.899 1_565 S
O28 C36 1.284 1_556 S
Zn29 O28 1.899 1_545 S
Zn29 O30 2.032 1_556 S
Zn29 O33 2.086 . S
Zn29 O38 1.977 . S
O30 Zn29 2.032 1_554 S
O30 C34 1.278 . S
C31 O32 1.203 . S
C31 O38 1.267 1_554 S
O32 C31 1.203 . S
O33 C26 1.185 1_545 S
O33 Zn29 2.086 . S
C34 O30 1.278 . S
C34 O35 1.211 . S
O35 C34 1.211 . S
C36 O28 1.284 1_554 S
C36 O37 1.273 . S
O37 C36 1.273 . S
O38 Zn29 1.977 . S
O38 C31 1.267 1_556 S
C39 O40 1.160 . S
C39 O46 1.185 . S
O40 C39 1.160 . S
O41 Zn42 1.899 . S
O41 C49 1.284 . S
Zn42 O41 1.899 . S
Zn42 O43 2.032 . S
Zn42 O46 2.086 . S
Zn42 O51 1.977 . S
O43 Zn42 2.032 . S
O43 C47 1.278 . S
C44 O45 1.203 . S
C44 O51 1.267 . S
O45 C44 1.203 . S
O46 C39 1.185 . S
O46 Zn42 2.086 . S
C47 O43 1.278 . S
C47 O48 1.211 . S
O48 C47 1.211 . S
C49 O41 1.284 . S
C49 O50 1.273 . S
O50 C49 1.273 . S
O51 Zn42 1.977 . S
O51 C44 1.267 . S
C52 O53 1.160 . S
C52 O59 1.185 . S
O53 C52 1.160 . S
O54 Zn55 1.899 . S
O54 C62 1.284 . S
Zn55 O54 1.899 . S
Zn55 O56 2.032 . S
Zn55 O59 2.086 . S
Zn55 O64 1.977 . S
O56 Zn55 2.032 . S
O56 C60 1.278 . S
C57 O58 1.203 . S
C57 O64 1.267 . S
O58 C57 1.203 . S
O59 C52 1.185 . S
O59 Zn55 2.086 . S
C60 O56 1.278 . S
C60 O61 1.211 . S
O61 C60 1.211 . S
C62 O54 1.284 . S
C62 O63 1.273 . S
O63 C62 1.273 . S
O64 Zn55 1.977 . S
O64 C57 1.267 . S
C65 O66 1.160 . S
C65 O72 1.185 . S
O66 C65 1.160 . S
O67 Zn68 1.899 . S
O67 C75 1.284 . S
Zn68 O67 1.899 . S
Zn68 O69 2.032 . S
Zn68 O72 2.086 . S
Zn68 O77 1.977 . S
O69 Zn68 2.032 . S
O69 C73 1.278 . S
C70 O71 1.203 . S
C70 O77 1.267 . S
O71 C70 1.203 . S
O72 C65 1.185 . S
O72 Zn68 2.086 . S
C73 O69 1.278 . S
C73 O74 1.211 . S
O74 C73 1.211 . S
C75 O67 1.284 . S
C75 O76 1.273 . S
O76 C75 1.273 . S
O77 Zn68 1.977 . S
O77 C70 1.267 . S
C78 O79 1.160 . S
C78 O85 1.185 . S
O79 C78 1.160 . S
O80 Zn81 1.899 . S
O80 C88 1.284 . S
Zn81 O80 1.899 . S
Zn81 O82 2.032 . S
Zn81 O85 2.086 . S
Zn81 O90 1.977 . S
O82 Zn81 2.032 . S
O82 C86 1.278 . S
C83 O84 1.203 . S
C83 O90 1.267 . S
O84 C83 1.203 . S
O85 C78 1.185 . S
O85 Zn81 2.086 . S
C86 O82 1.278 . S
C86 O87 1.211 . S
O87 C86 1.211 . S
C88 O80 1.284 . S
C88 O89 1.273 . S
O89 C88 1.273 . S
O90 Zn81 1.977 . S
O90 C83 1.267 . S
C91 O92 1.160 . S
C91 O98 1.185 . S
O92 C91 1.160 . S
O93 Zn94 1.899 . S
O93 C101 1.284 . S
Zn94 O93 1.899 . S
Zn94 O95 2.032 . S
Zn94 O98 2.086 . S
Zn94 O103 1.977 . S
O95 Zn94 2.032 . S
O95 C99 1.278 . S
C96 O97 1.203 . S
C96 O103 1.267 . S
O97 C96 1.203 . S
O98 C91 1.185 . S
O98 Zn94 2.086 . S
C99 O95 1.278 . S
C99 O100 1.211 . S
O100 C99 1.211 . S
C101 O93 1.284 . S
C101 O102 1.273 . S
O102 C101 1.273 . S
O103 Zn94 1.977 . S
O103 C96 1.267 . S
C104 O105 1.160 . S
C104 O111 1.185 . S
O105 C104 1.160 . S
O106 Zn107 1.899 . S
O106 C114 1.284 . S
Zn107 O106 1.899 . S
Zn107 O108 2.032 . S
Zn107 O111 2.086 . S
Zn107 O116 1.977 . S
O108 Zn107 2.032 . S
O108 C112 1.278 . S
C109 O110 1.203 . S
C109 O116 1.267 . S
O110 C109 1.203 . S
O111 C104 1.185 . S
O111 Zn107 2.086 . S
C112 O108 1.278 . S
C112 O113 1.211 . S
O113 C112 1.211 . S
C114 O106 1.284 . S
C114 O115 1.273 . S
O115 C114 1.273 . S
O116 Zn107 1.977 . S
O116 C109 1.267 . S
C117 C118 1.170 . S
C117 C119 1.380 . S
C118 C117 1.170 . S
C119 C117 1.380 . S
C119 C120 1.170 . S
C120 C119 1.170 . S
C121 C122 1.170 . S
C121 C123 1.380 1_565 S
C122 C121 1.170 . S
C123 C121 1.380 1_545 S
C123 C124 1.170 1_554 S
C124 C123 1.170 1_556 S
C125 C126 1.170 1_454 S
C125 C127 1.380 . S
C126 C125 1.170 1_656 S
C127 C125 1.380 . S
C127 C128 1.170 . S
C128 C127 1.170 . S
C129 C130 1.170 . S
C129 C131 1.380 . S
C130 C129 1.170 . S
C131 C129 1.380 . S
C131 C132 1.170 . S
C132 C131 1.170 . S
C133 C134 1.170 . S
C133 C135 1.380 . S
C134 C133 1.170 . S
C135 C133 1.380 . S
C135 C136 1.170 . S
C136 C135 1.170 . S
C137 C138 1.170 . S
C137 C139 1.380 . S
C138 C137 1.170 . S
C139 C137 1.380 . S
C139 C140 1.170 . S
C140 C139 1.170 . S
C141 C142 1.170 . S
C141 C143 1.380 . S
C142 C141 1.170 . S
C143 C141 1.380 . S
C143 C144 1.170 . S
C144 C143 1.170 . S
C145 C146 1.170 . S
C145 C147 1.380 . S
C146 C145 1.170 . S
C147 C145 1.380 . S
C147 C148 1.170 . S
C148 C147 1.170 . S
C149 C150 1.170 . S
C149 C151 1.380 . S
C150 C149 1.170 . S
C151 C149 1.380 . S
C151 C152 1.170 . S
C152 C151 1.170 . S
C153 C154 1.170 . S
C153 C155 1.380 . S
C154 C153 1.170 . S
C155 C153 1.380 . S
C155 C156 1.170 . S
C156 C155 1.170 . S
C157 C158 1.170 . S
C157 C159 1.380 . S
C158 C157 1.170 . S
C159 C157 1.380 . S
C159 C160 1.170 . S
C160 C159 1.170 . S
C161 C162 1.170 . S
C161 C163 1.380 . S
C162 C161 1.170 . S
C163 C161 1.380 . S
C163 C164 1.170 . S
C164 C163 1.170 . S
C165 C166 1.170 . S
C165 C167 1.380 . S
C166 C165 1.170 . S
C167 C165 1.380 . S
C167 C168 1.170 . S
C168 C167 1.170 . S
C169 C170 1.170 . S
C169 C171 1.380 . S
C170 C169 1.170 . S
C171 C169 1.380 . S
C171 C172 1.170 . S
C172 C171 1.170 . S
C173 C174 1.170 . S
C173 C175 1.380 . S
C174 C173 1.170 . S
C175 C173 1.380 . S
C175 C176 1.170 . S
C176 C175 1.170 . S
C177 C178 1.170 . S
C177 C179 1.380 . S
C178 C177 1.170 . S
C179 C177 1.380 . S
C179 C180 1.170 1_455 S
C180 C179 1.170 1_655 S
C181 C182 1.170 . S
C181 C183 1.380 . S
C182 C181 1.170 . S
C183 C181 1.380 . S
C183 C184 1.170 . S
C184 C183 1.170 . S
C185 C186 1.170 . S
C185 C187 1.380 1_565 S
C186 C185 1.170 . S
C187 C185 1.380 1_545 S
C187 C188 1.170 . S
C188 C187 1.170 . S
C118 C31 1.115 . S
C120 C10 1.201 . S
C122 C18 1.149 . S
C124 C5 1.127 1_556 S
C126 C23 1.186 . S
C128 C36 1.187 . S
C130 C75 1.201 . S
C132 C49 1.201 . S
C134 C57 1.033 . S
C136 C44 1.075 . S
C138 C62 1.193 . S
C140 C70 1.130 . S
C142 C88 1.172 . S
C144 C109 1.105 . S
C146 C83 1.004 . S
C148 C96 1.004 . S
C150 C101 1.188 . S
C152 C114 1.188 . S
C154 C0 1.340 . S
C156 C91 1.345 . S
C158 C21 1.360 . S
C160 C112 1.355 . S
C162 C86 1.291 . S
C164 C26 1.289 . S
C166 C60 1.313 . S
C168 C34 1.315 . S
C170 C8 1.340 . S
C172 C73 1.351 . S
C174 C39 1.345 . S
C176 C13 1.321 . S
C178 C99 1.331 . S
C180 C65 1.322 . S
C182 C47 1.361 . S
C184 C104 1.358 . S
C186 C78 1.371 . S
C188 C52 1.357 . S
