# Generated by pormake.
# Topology kag, (6)-cn, num edge types: 1
# Building blocks:
#     Node 0, Type 0, BuildingBlock: PAMTOO_clean_sbu_0, # of connection points: 6
#     Node 1, Type 0, BuildingBlock: PAMTOO_clean_sbu_0, # of connection points: 6
#     Node 2, Type 0, BuildingBlock: PAMTOO_clean_sbu_0, # of connection points: 6
#     Edge 3, Type (0, 0), BuildingBlock: OJICUG_clean_linker_0, # of connection points: 2
#     Edge 4, Type (0, 0), BuildingBlock: OJICUG_clean_linker_0, # of connection points: 2
#     Edge 5, Type (0, 0), BuildingBlock: OJICUG_clean_linker_0, # of connection points: 2
#     Edge 6, Type (0, 0), BuildingBlock: OJICUG_clean_linker_0, # of connection points: 2
#     Edge 7, Type (0, 0), BuildingBlock: OJICUG_clean_linker_0, # of connection points: 2
#     Edge 8, Type (0, 0), BuildingBlock: OJICUG_clean_linker_0, # of connection points: 2
#     Edge 9, Type (0, 0), BuildingBlock: OJICUG_clean_linker_0, # of connection points: 2
#     Edge 10, Type (0, 0), BuildingBlock: OJICUG_clean_linker_0, # of connection points: 2
#     Edge 11, Type (0, 0), BuildingBlock: OJICUG_clean_linker_0, # of connection points: 2
# Relax obj value: 0.150
# Max RMSD: 0.202
# Mean RMSD: 0.145
data_MOF--net-kag--node1-PAMTOO_clean_sbu_0--edge1-OJICUG_clean_linker_0
_symmetry_space_group_name_H-M    P1
_symmetry_Int_Tables_number       1
_symmetry_cell_setting            triclinic
loop_
_symmetry_equiv_pos_as_xyz
'x, y, z'
_cell_length_a     22.602578
_cell_length_b     33.613809
_cell_length_c     11.19523
_cell_angle_alpha  100.69652
_cell_angle_beta   92.794247
_cell_angle_gamma 87.801149
loop_
_atom_site_label
_atom_site_type_symbol
_atom_site_fract_x
_atom_site_fract_y
_atom_site_fract_z
_atom_type_partial_charge
Dy0 Dy 0.08562 0.5637 0.01881 0.0
Dy1 Dy 0.09138 0.46254 0.9609 0.0
C2 C 0.09128 0.51499 0.74903 0.0
O3 O 0.9934 0.54334 0.96677 0.0
O4 O 0.99886 0.47988 0.01597 0.0
O5 O 1.05609 0.62073 0.97064 0.0
O6 O 0.10446 0.61967 0.14227 0.0
O7 O 0.11095 0.48141 0.16016 0.0
O8 O 1.06354 0.54381 0.18987 0.0
O9 O 0.18274 0.48098 0.93033 0.0
O10 O 0.18138 0.54622 0.03971 0.0
O11 O 0.11908 0.40455 0.00613 0.0
O12 O 1.06929 0.40712 0.83775 0.0
C13 C 0.96785 0.51149 -0.0085 0.0
O14 O 0.11097 0.54648 0.82592 0.0
O15 O 1.07021 0.48371 0.78585 0.0
C16 C 0.11638 0.67662 0.05128 0.0
C17 C 0.18096 0.74447 0.02534 0.0
C18 C 0.17588 0.71111 0.92906 0.0
C19 C 0.14405 0.67735 0.94207 0.0
C20 C 0.12169 0.70971 0.14744 0.0
C21 C 0.15375 0.74327 0.13483 0.0
C22 C 0.0814 0.6421 0.06763 0.0
C23 C 0.08784 0.51288 0.23204 0.0
C24 C 0.21012 0.51391 -0.0165 0.0
C25 C 1.05653 0.34964 0.92538 0.0
C26 C 0.98804 0.28289 0.94654 0.0
C27 C 0.99223 0.31648 0.04244 0.0
C28 C 1.02599 0.3497 0.03176 0.0
C29 C 1.05248 0.31621 0.83005 0.0
C30 C 1.0186 0.28322 0.8403 0.0
C31 C 0.09236 0.38392 0.9098 0.0
H32 H 0.19691 0.711 0.8441 0.0
H33 H 0.14095 0.65197 0.86687 0.0
H34 H 0.10063 0.7097 0.23236 0.0
H35 H 0.15625 0.76864 0.21012 0.0
H36 H 0.96876 0.31731 0.12497 0.0
H37 H 1.02808 0.37537 0.10619 0.0
H38 H 1.0757 0.31559 0.74724 0.0
H39 H 1.01701 0.25767 0.76545 0.0
Dy40 Dy 0.50183 1.01189 0.95954 0.0
Dy41 Dy 0.64826 0.02073 -0.01713 0.0
C42 C 0.57322 0.01853 0.21426 0.0
O43 O 0.51396 0.07886 0.01291 0.0
O44 O 0.61156 0.08162 0.96357 0.0
O45 O 0.41554 0.01804 0.03749 0.0
O46 O 0.42492 0.99009 0.84861 0.0
O47 O 0.62225 1.00412 0.78472 0.0
O48 O 0.52695 0.03007 0.78845 0.0
O49 O 0.63295 0.95723 0.00584 0.0
O50 O 0.54274 0.95007 0.90246 0.0
O51 O 0.73367 1.01502 0.90072 0.0
O52 O 0.72749 0.03896 0.09231 0.0
C53 C 0.56027 0.09926 -0.00544 0.0
O54 O 0.53111 0.99993 0.14307 0.0
O55 O 0.61556 0.03656 0.17094 0.0
C56 C 0.35903 0.96092 0.95899 0.0
C57 C 0.30177 0.88967 0.98016 0.0
C58 C 0.36161 0.89493 0.01848 0.0
C59 C 0.39001 0.93019 0.00768 0.0
C60 C 0.29936 0.95603 0.92129 0.0
C61 C 0.27089 0.92066 0.93177 0.0
C62 C 0.3903 0.99663 0.94042 0.0
C63 C 0.57479 0.01728 0.72965 0.0
C64 C 0.58956 0.93446 0.95296 0.0
C65 C 0.79447 0.06949 -0.01326 0.0
C66 C 0.85621 0.14022 0.97641 0.0
C67 C 0.79806 0.13519 0.9263 0.0
C68 C 0.76749 0.10022 0.93161 0.0
C69 C 0.8524 0.07424 0.03661 0.0
C70 C 0.88306 0.10927 0.03149 0.0
C71 C 0.76093 0.03385 -0.00092 0.0
H72 H 0.38685 0.87143 0.0545 0.0
H73 H 0.43645 0.93325 0.03567 0.0
H74 H 0.275 0.97934 0.88265 0.0
H75 H 0.22462 0.91766 0.90262 0.0
H76 H 0.77573 0.15862 0.88478 0.0
H77 H 0.7225 0.09737 0.89381 0.0
H78 H 0.87375 0.05098 0.08036 0.0
H79 H 0.92798 0.11197 0.06975 0.0
Dy80 Dy 0.59133 0.46407 0.95238 0.0
Dy81 Dy 0.58989 0.56566 0.00796 0.0
C82 C 0.58728 0.51388 0.22115 0.0
O83 O 0.49526 0.48158 0.94634 0.0
O84 O 0.49368 0.55149 0.00467 0.0
O85 O 0.55957 0.40715 0.84857 0.0
O86 O 0.63266 0.40779 0.98161 0.0
O87 O 0.56381 0.54814 0.81135 0.0
O88 O 0.60915 0.4848 0.77931 0.0
O89 O 0.68141 0.5439 0.95719 0.0
O90 O 0.6837 0.48186 0.01281 0.0
O91 O 0.63146 0.61962 0.98154 0.0
O92 O 0.56154 0.62444 0.11029 0.0
C93 C 0.46672 0.5167 0.97442 0.0
O94 O 0.56648 0.48256 0.14497 0.0
O95 O 0.61081 0.54426 0.18341 0.0
C96 C 0.57469 0.34866 0.94178 0.0
C97 C 0.55289 0.27079 -0.01206 0.0
C98 C 0.58299 0.29916 0.07574 0.0
C99 C 0.59369 0.33772 0.05312 0.0
C100 C 0.54148 0.32116 0.85713 0.0
C101 C 0.53035 0.28265 0.88026 0.0
C102 C 0.59642 0.38553 0.90553 0.0
C103 C 0.58501 0.51615 0.73827 0.0
C104 C 0.71099 0.51263 -0.01328 0.0
C105 C 0.58622 0.68495 0.03936 0.0
C106 C 0.58281 0.7659 0.00214 0.0
C107 C 0.57457 0.73369 0.9032 0.0
C108 C 0.5767 0.69345 0.92155 0.0
C109 C 0.59137 0.71713 0.13837 0.0
C110 C 0.58983 0.75715 0.12008 0.0
C111 C 0.60018 0.64361 0.06113 0.0
H112 H 0.60041 0.29093 0.15999 0.0
H113 H 0.61936 0.35814 0.12055 0.0
H114 H 0.52679 0.32863 0.77017 0.0
H115 H 0.50747 0.2613 0.8105 0.0
H116 H 0.56912 0.7395 0.81127 0.0
H117 H 0.57319 0.66904 0.84359 0.0
H118 H 0.59921 0.71124 0.22986 0.0
H119 H 0.59527 0.7813 0.19827 0.0
C120 C 0.09222 0.47771 0.53427 0.0
C121 C 0.09148 0.51469 0.61703 0.0
H122 H 0.09242 0.44818 0.34751 0.0
C123 C 0.08986 0.55109 0.57231 0.0
H124 H 0.09371 0.44917 0.56624 0.0
C125 C 0.08796 0.5505 0.44695 0.0
C126 C 0.08904 0.5135 0.3643 0.0
H127 H 0.08903 0.58002 0.63405 0.0
H128 H 0.08633 0.57901 0.41479 0.0
C129 C 0.09168 0.47712 0.40915 0.0
C130 C 0.62711 0.02223 0.41661 0.0
C131 C 0.57369 0.01844 0.34622 0.0
H132 H 0.66949 0.02405 0.59313 0.0
C133 C 0.52083 1.01407 0.40278 0.0
H134 H 0.66859 0.02539 0.37521 0.0
C135 C 0.52123 1.01407 0.52765 0.0
C136 C 0.5747 0.0174 0.5978 0.0
H137 H 0.47901 1.01115 0.35081 0.0
H138 H 0.47972 1.01092 0.569 0.0
C139 C 0.6277 0.02122 0.54104 0.0
C140 C 0.58373 0.55215 0.56118 0.0
C141 C 0.58405 0.51577 0.60597 0.0
H142 H 0.58555 0.58001 0.40405 0.0
C143 C 0.58473 0.4788 0.5232 0.0
H144 H 0.58348 0.58108 0.6229 0.0
C145 C 0.58487 0.4782 0.39804 0.0
C146 C 0.58574 0.51453 0.35332 0.0
H147 H 0.58474 0.45029 0.55513 0.0
H148 H 0.58536 0.44924 0.33643 0.0
C149 C 0.58527 0.55152 0.43606 0.0
C150 C 0.30582 0.55099 0.02258 0.0
C151 C 0.27567 0.5149 0.97933 0.0
H152 H 0.38934 0.58006 0.05434 0.0
C153 C 0.30888 0.47978 0.93224 0.0
H154 H 0.28173 0.57871 0.05901 0.0
C155 C 0.37063 0.48056 0.92984 0.0
C156 C 0.4009 0.51654 0.97382 0.0
H157 H 0.28728 0.45146 0.89802 0.0
H158 H 0.39459 0.45276 0.8936 0.0
C159 C 0.36765 0.55182 0.01953 0.0
C160 C 0.88531 0.19414 0.86395 0.0
C161 C 0.88876 0.17748 0.97045 0.0
H162 H 0.9132 0.24055 0.77346 0.0
C163 C 0.92379 0.19655 0.07061 0.0
H164 H 0.85911 0.18011 0.78483 0.0
C165 C 0.95509 0.23117 0.06388 0.0
C166 C 0.95241 0.24737 0.95654 0.0
H167 H 0.92683 0.1848 0.15454 0.0
H168 H 0.9824 0.24475 0.14188 0.0
C169 C 0.91679 0.22859 0.85703 0.0
C170 C 0.54665 0.86525 0.89442 0.0
C171 C 0.59086 0.89049 0.95707 0.0
H172 H 0.50945 0.8062 0.8593 0.0
C173 C 0.63363 0.87386 0.03052 0.0
H174 H 0.51281 0.87702 0.83733 0.0
C175 C 0.63125 0.83337 0.04378 0.0
C176 C 0.58637 0.80841 -0.01682 0.0
H177 H 0.66816 0.89234 0.08039 0.0
H178 H 0.66454 0.82159 0.10202 0.0
C179 C 0.54466 0.82461 0.90676 0.0
C180 C 0.87245 0.47822 0.0167 0.0
C181 C 0.90215 0.51149 -0.00894 0.0
H182 H 0.78896 0.45238 0.03559 0.0
C183 C 0.86836 0.54502 0.96455 0.0
H184 H 0.89703 0.45187 0.03749 0.0
C185 C 0.80653 0.54529 0.96339 0.0
C186 C 0.77673 0.51206 -0.0112 0.0
H187 H 0.88958 0.57122 0.94442 0.0
H188 H 0.78214 0.57169 0.94247 0.0
C189 C 0.81042 0.47851 0.01564 0.0
C190 C 0.2516 0.79986 0.10649 0.0
C191 C 0.2136 0.78078 0.01168 0.0
H192 H 0.30887 0.84924 0.17118 0.0
C193 C 0.20564 0.79735 0.90542 0.0
H194 H 0.25909 0.7876 0.18903 0.0
C195 C 0.23427 0.83263 0.89507 0.0
C196 C 0.27181 0.85194 -0.00959 0.0
H197 H 0.1763 0.78351 0.83118 0.0
H198 H 0.22726 0.84469 0.81207 0.0
C199 C 0.2805 0.83497 0.09585 0.0
C200 C 0.60484 0.2081 0.03288 0.0
C201 C 0.55193 0.2277 0.00155 0.0
H202 H 0.64868 0.15235 0.055 0.0
C203 C 0.50023 0.2051 0.97509 0.0
H204 H 0.64556 0.22452 0.05213 0.0
C205 C 0.50184 0.1635 0.97803 0.0
C206 C 0.55549 0.14377 0.00468 0.0
H207 H 0.45886 0.21951 0.95062 0.0
H208 H 0.4618 0.14654 0.95479 0.0
C209 C 0.60669 0.16665 0.03361 0.0
loop_
_geom_bond_atom_site_label_1
_geom_bond_atom_site_label_2
_geom_bond_distance
_geom_bond_site_symmetry_2
_ccdc_geom_bond_type
Dy0 O3 2.307 1_455 S
Dy0 O5 2.395 1_554 S
Dy0 O6 2.379 . S
Dy0 O8 2.339 . S
Dy0 O10 2.298 . S
Dy0 O14 2.275 1_554 S
Dy0 C22 2.738 . S
Dy1 O4 2.298 . S
Dy1 O7 2.275 1_656 S
Dy1 O9 2.307 1_655 S
Dy1 O11 2.395 1_556 S
Dy1 O12 2.379 . S
Dy1 O15 2.339 . S
Dy1 C31 2.738 . S
C2 O14 1.254 . S
C2 O15 1.257 1_455 S
O3 Dy0 2.307 1_655 S
O3 C13 1.266 . S
O4 Dy1 2.298 . S
O4 C13 1.236 1_556 S
O5 Dy0 2.395 1_556 S
O5 C22 1.255 1_556 S
O6 Dy0 2.379 . S
O6 C22 1.249 . S
O7 Dy1 2.275 1_454 S
O7 C23 1.254 . S
O8 Dy0 2.339 . S
O8 C23 1.257 . S
O9 Dy1 2.307 1_455 S
O9 C24 1.266 . S
O10 Dy0 2.298 . S
O10 C24 1.236 1_554 S
O11 Dy1 2.395 1_554 S
O11 C31 1.255 1_554 S
O12 Dy1 2.379 . S
O12 C31 1.249 . S
C13 O3 1.266 . S
C13 O4 1.236 1_554 S
O14 Dy0 2.275 1_556 S
O14 C2 1.254 . S
O15 Dy1 2.339 . S
O15 C2 1.257 1_655 S
C16 C19 1.344 1_554 S
C16 C20 1.328 . S
C16 C22 1.516 . S
C17 C18 1.304 1_554 S
C17 C21 1.323 . S
C18 C17 1.304 1_556 S
C18 C19 1.371 . S
C18 H32 0.930 . S
C19 C16 1.344 1_556 S
C19 C18 1.371 . S
C19 H33 0.931 . S
C20 C16 1.328 . S
C20 C21 1.433 . S
C20 H34 0.931 . S
C21 C17 1.323 . S
C21 C20 1.433 . S
C21 H35 0.933 . S
C22 Dy0 2.738 . S
C22 O5 1.255 1_554 S
C22 O6 1.249 . S
C22 C16 1.516 . S
C23 O7 1.254 . S
C23 O8 1.257 . S
C24 O9 1.266 . S
C24 O10 1.236 1_556 S
C25 C28 1.344 1_556 S
C25 C29 1.328 . S
C25 C31 1.516 . S
C26 C27 1.304 1_556 S
C26 C30 1.323 . S
C27 C26 1.304 1_554 S
C27 C28 1.371 . S
C27 H36 0.930 . S
C28 C25 1.344 1_554 S
C28 C27 1.371 . S
C28 H37 0.931 . S
C29 C25 1.328 . S
C29 C30 1.433 . S
C29 H38 0.931 . S
C30 C26 1.323 . S
C30 C29 1.433 . S
C30 H39 0.933 . S
C31 Dy1 2.738 . S
C31 O11 1.255 1_556 S
C31 O12 1.249 . S
C31 C25 1.516 . S
H32 C18 0.930 . S
H33 C19 0.931 . S
H34 C20 0.931 . S
H35 C21 0.933 . S
H36 C27 0.930 . S
H37 C28 0.931 . S
H38 C29 0.931 . S
H39 C30 0.933 . S
Dy40 O43 2.307 1_565 S
Dy40 O45 2.395 1_556 S
Dy40 O46 2.379 . S
Dy40 O48 2.339 . S
Dy40 O50 2.298 . S
Dy40 O54 2.275 1_556 S
Dy40 C62 2.738 . S
Dy41 O44 2.298 . S
Dy41 O47 2.275 1_554 S
Dy41 O49 2.307 1_545 S
Dy41 O51 2.395 1_554 S
Dy41 O52 2.379 . S
Dy41 O55 2.339 . S
Dy41 C71 2.738 . S
C42 O54 1.254 1_545 S
C42 O55 1.257 . S
O43 Dy40 2.307 1_545 S
O43 C53 1.266 1_556 S
O44 Dy41 2.298 . S
O44 C53 1.236 . S
O45 Dy40 2.395 1_554 S
O45 C62 1.255 1_554 S
O46 Dy40 2.379 . S
O46 C62 1.249 . S
O47 Dy41 2.275 1_556 S
O47 C63 1.254 1_545 S
O48 Dy40 2.339 . S
O48 C63 1.257 . S
O49 Dy41 2.307 1_565 S
O49 C64 1.266 1_554 S
O50 Dy40 2.298 . S
O50 C64 1.236 . S
O51 Dy41 2.395 1_556 S
O51 C71 1.255 1_556 S
O52 Dy41 2.379 . S
O52 C71 1.249 . S
C53 O43 1.266 1_554 S
C53 O44 1.236 . S
O54 Dy40 2.275 1_554 S
O54 C42 1.254 1_565 S
O55 Dy41 2.339 . S
O55 C42 1.257 . S
C56 C59 1.344 1_556 S
C56 C60 1.328 . S
C56 C62 1.516 . S
C57 C58 1.304 . S
C57 C61 1.323 1_554 S
C58 C57 1.304 . S
C58 C59 1.371 . S
C58 H72 0.930 . S
C59 C56 1.344 1_554 S
C59 C58 1.371 . S
C59 H73 0.931 . S
C60 C56 1.328 . S
C60 C61 1.433 . S
C60 H74 0.931 . S
C61 C57 1.323 1_556 S
C61 C60 1.433 . S
C61 H75 0.933 . S
C62 Dy40 2.738 . S
C62 O45 1.255 1_556 S
C62 O46 1.249 . S
C62 C56 1.516 . S
C63 O47 1.254 1_565 S
C63 O48 1.257 . S
C64 O49 1.266 1_556 S
C64 O50 1.236 . S
C65 C68 1.344 1_554 S
C65 C69 1.328 . S
C65 C71 1.516 . S
C66 C67 1.304 . S
C66 C70 1.323 1_556 S
C67 C66 1.304 . S
C67 C68 1.371 . S
C67 H76 0.930 . S
C68 C65 1.344 1_556 S
C68 C67 1.371 . S
C68 H77 0.931 . S
C69 C65 1.328 . S
C69 C70 1.433 . S
C69 H78 0.931 . S
C70 C66 1.323 1_554 S
C70 C69 1.433 . S
C70 H79 0.933 . S
C71 Dy41 2.738 . S
C71 O51 1.255 1_554 S
C71 O52 1.249 . S
C71 C65 1.516 . S
H72 C58 0.930 . S
H73 C59 0.931 . S
H74 C60 0.931 . S
H75 C61 0.933 . S
H76 C67 0.930 . S
H77 C68 0.931 . S
H78 C69 0.931 . S
H79 C70 0.933 . S
Dy80 O83 2.307 . S
Dy80 O85 2.395 1_556 S
Dy80 O86 2.379 . S
Dy80 O88 2.339 . S
Dy80 O90 2.298 . S
Dy80 O94 2.275 1_556 S
Dy80 C102 2.738 . S
Dy81 O84 2.298 . S
Dy81 O87 2.275 1_554 S
Dy81 O89 2.307 . S
Dy81 O91 2.395 1_554 S
Dy81 O92 2.379 . S
Dy81 O95 2.339 . S
Dy81 C111 2.738 . S
C82 O94 1.254 . S
C82 O95 1.257 . S
O83 Dy80 2.307 . S
O83 C93 1.266 . S
O84 Dy81 2.298 . S
O84 C93 1.236 1_554 S
O85 Dy80 2.395 1_554 S
O85 C102 1.255 1_554 S
O86 Dy80 2.379 . S
O86 C102 1.249 . S
O87 Dy81 2.275 1_556 S
O87 C103 1.254 . S
O88 Dy80 2.339 . S
O88 C103 1.257 . S
O89 Dy81 2.307 . S
O89 C104 1.266 . S
O90 Dy80 2.298 . S
O90 C104 1.236 1_556 S
O91 Dy81 2.395 1_556 S
O91 C111 1.255 1_556 S
O92 Dy81 2.379 . S
O92 C111 1.249 . S
C93 O83 1.266 . S
C93 O84 1.236 1_556 S
O94 Dy80 2.275 1_554 S
O94 C82 1.254 . S
O95 Dy81 2.339 . S
O95 C82 1.257 . S
C96 C99 1.344 1_556 S
C96 C100 1.328 . S
C96 C102 1.516 . S
C97 C98 1.304 . S
C97 C101 1.323 1_554 S
C98 C97 1.304 . S
C98 C99 1.371 . S
C98 H112 0.930 . S
C99 C96 1.344 1_554 S
C99 C98 1.371 . S
C99 H113 0.931 . S
C100 C96 1.328 . S
C100 C101 1.433 . S
C100 H114 0.931 . S
C101 C97 1.323 1_556 S
C101 C100 1.433 . S
C101 H115 0.933 . S
C102 Dy80 2.738 . S
C102 O85 1.255 1_556 S
C102 O86 1.249 . S
C102 C96 1.516 . S
C103 O87 1.254 . S
C103 O88 1.257 . S
C104 O89 1.266 . S
C104 O90 1.236 1_554 S
C105 C108 1.344 1_554 S
C105 C109 1.328 . S
C105 C111 1.516 . S
C106 C107 1.304 . S
C106 C110 1.323 1_556 S
C107 C106 1.304 . S
C107 C108 1.371 . S
C107 H116 0.930 . S
C108 C105 1.344 1_556 S
C108 C107 1.371 . S
C108 H117 0.931 . S
C109 C105 1.328 . S
C109 C110 1.433 . S
C109 H118 0.931 . S
C110 C106 1.323 1_554 S
C110 C109 1.433 . S
C110 H119 0.933 . S
C111 Dy81 2.738 . S
C111 O91 1.255 1_554 S
C111 O92 1.249 . S
C111 C105 1.516 . S
H112 C98 0.930 . S
H113 C99 0.931 . S
H114 C100 0.931 . S
H115 C101 0.933 . S
H116 C107 0.930 . S
H117 C108 0.931 . S
H118 C109 0.931 . S
H119 C110 0.933 . S
C120 C121 1.387 . S
C120 H124 0.950 . S
C120 C129 1.390 . S
C121 C120 1.387 . S
C121 C123 1.387 1_455 S
H122 C129 0.950 . S
C123 C121 1.387 1_655 S
C123 C125 1.390 . S
C123 H127 0.950 . S
H124 C120 0.950 . S
C125 C123 1.390 . S
C125 C126 1.387 . S
C125 H128 0.950 . S
C126 C125 1.387 . S
C126 C129 1.387 1_655 S
H127 C123 0.950 . S
H128 C125 0.950 . S
C129 C120 1.390 . S
C129 H122 0.950 . S
C129 C126 1.387 1_455 S
C130 C131 1.387 . S
C130 H134 0.950 . S
C130 C139 1.390 . S
C131 C130 1.387 . S
C131 C133 1.387 1_545 S
H132 C139 0.950 . S
C133 C131 1.387 1_565 S
C133 C135 1.390 . S
C133 H137 0.950 . S
H134 C130 0.950 . S
C135 C133 1.390 . S
C135 C136 1.388 1_565 S
C135 H138 0.950 . S
C136 C135 1.388 1_545 S
C136 C139 1.388 . S
H137 C133 0.950 . S
H138 C135 0.950 . S
C139 C130 1.390 . S
C139 H132 0.950 . S
C139 C136 1.388 . S
C140 C141 1.387 . S
C140 H144 0.950 . S
C140 C149 1.390 . S
C141 C140 1.387 . S
C141 C143 1.387 . S
H142 C149 0.950 . S
C143 C141 1.387 . S
C143 C145 1.390 . S
C143 H147 0.950 . S
H144 C140 0.950 . S
C145 C143 1.390 . S
C145 C146 1.387 . S
C145 H148 0.950 . S
C146 C145 1.387 . S
C146 C149 1.387 . S
H147 C143 0.950 . S
H148 C145 0.950 . S
C149 C140 1.390 . S
C149 H142 0.950 . S
C149 C146 1.387 . S
C150 C151 1.387 1_554 S
C150 H154 0.950 . S
C150 C159 1.390 . S
C151 C150 1.387 1_556 S
C151 C153 1.387 . S
H152 C159 0.950 . S
C153 C151 1.387 . S
C153 C155 1.390 . S
C153 H157 0.950 . S
H154 C150 0.950 . S
C155 C153 1.390 . S
C155 C156 1.387 . S
C155 H158 0.950 . S
C156 C155 1.387 . S
C156 C159 1.387 1_556 S
H157 C153 0.950 . S
H158 C155 0.950 . S
C159 C150 1.390 . S
C159 H152 0.950 . S
C159 C156 1.387 1_554 S
C160 C161 1.387 . S
C160 H164 0.950 . S
C160 C169 1.390 . S
C161 C160 1.387 . S
C161 C163 1.387 1_556 S
H162 C169 0.950 . S
C163 C161 1.387 1_554 S
C163 C165 1.390 . S
C163 H167 0.950 . S
H164 C160 0.950 . S
C165 C163 1.390 . S
C165 C166 1.387 1_554 S
C165 H168 0.950 . S
C166 C165 1.387 1_556 S
C166 C169 1.387 . S
H167 C163 0.950 . S
H168 C165 0.950 . S
C169 C160 1.390 . S
C169 H162 0.950 . S
C169 C166 1.387 . S
C170 C171 1.387 . S
C170 H174 0.950 . S
C170 C179 1.390 . S
C171 C170 1.387 . S
C171 C173 1.387 1_556 S
H172 C179 0.950 . S
C173 C171 1.387 1_554 S
C173 C175 1.390 . S
C173 H177 0.950 . S
H174 C170 0.950 . S
C175 C173 1.390 . S
C175 C176 1.387 . S
C175 H178 0.950 . S
C176 C175 1.387 . S
C176 C179 1.387 1_554 S
H177 C173 0.950 . S
H178 C175 0.950 . S
C179 C170 1.390 . S
C179 H172 0.950 . S
C179 C176 1.387 1_556 S
C180 C181 1.387 1_556 S
C180 H184 0.950 . S
C180 C189 1.390 . S
C181 C180 1.387 1_554 S
C181 C183 1.387 . S
H182 C189 0.950 . S
C183 C181 1.387 . S
C183 C185 1.390 . S
C183 H187 0.950 . S
H184 C180 0.950 . S
C185 C183 1.390 . S
C185 C186 1.387 . S
C185 H188 0.950 . S
C186 C185 1.387 . S
C186 C189 1.387 1_554 S
H187 C183 0.950 . S
H188 C185 0.950 . S
C189 C180 1.390 . S
C189 H182 0.950 . S
C189 C186 1.387 1_556 S
C190 C191 1.387 . S
C190 H194 0.950 . S
C190 C199 1.390 . S
C191 C190 1.387 . S
C191 C193 1.387 1_554 S
H192 C199 0.950 . S
C193 C191 1.387 1_556 S
C193 C195 1.390 . S
C193 H197 0.950 . S
H194 C190 0.950 . S
C195 C193 1.390 . S
C195 C196 1.387 1_556 S
C195 H198 0.950 . S
C196 C195 1.387 1_554 S
C196 C199 1.387 . S
H197 C193 0.950 . S
H198 C195 0.950 . S
C199 C190 1.390 . S
C199 H192 0.950 . S
C199 C196 1.387 . S
C200 C201 1.387 1_554 S
C200 H204 0.950 . S
C200 C209 1.390 . S
C201 C200 1.387 1_556 S
C201 C203 1.387 . S
H202 C209 0.950 . S
C203 C201 1.387 . S
C203 C205 1.390 . S
C203 H207 0.950 . S
H204 C200 0.950 . S
C205 C203 1.390 . S
C205 C206 1.387 1_556 S
C205 H208 0.950 . S
C206 C205 1.387 1_554 S
C206 C209 1.387 . S
H207 C203 0.950 . S
H208 C205 0.950 . S
C209 C200 1.390 . S
C209 H202 0.950 . S
C209 C206 1.387 . S
C121 C2 1.474 . S
C126 C23 1.474 1_655 S
C131 C42 1.466 . S
C136 C63 1.464 1_545 S
C141 C103 1.480 . S
C146 C82 1.480 . S
C151 C24 2.593 . S
C156 C93 2.552 . S
C161 C66 0.872 . S
C166 C26 0.891 . S
C171 C64 2.050 . S
C176 C106 2.045 1_554 S
C181 C13 2.593 . S
C186 C104 2.553 . S
C191 C17 0.888 . S
C196 C57 0.865 . S
C201 C97 2.048 1_556 S
C206 C53 2.053 . S
