# Generated by pormake.
# Topology qtz, (4)-cn, num edge types: 1
# Building blocks:
#     Node 0, Type 0, BuildingBlock: AZAVOO_clean_sbu_0, # of connection points: 4
#     Node 1, Type 0, BuildingBlock: AZAVOO_clean_sbu_0, # of connection points: 4
#     Node 2, Type 0, BuildingBlock: AZAVOO_clean_sbu_0, # of connection points: 4
#     Edge 3, Type (0, 0), BuildingBlock: EYOCIG_clean_linker_4, # of connection points: 2
#     Edge 4, Type (0, 0), BuildingBlock: EYOCIG_clean_linker_4, # of connection points: 2
#     Edge 5, Type (0, 0), BuildingBlock: EYOCIG_clean_linker_4, # of connection points: 2
#     Edge 6, Type (0, 0), BuildingBlock: EYOCIG_clean_linker_4, # of connection points: 2
#     Edge 7, Type (0, 0), BuildingBlock: EYOCIG_clean_linker_4, # of connection points: 2
#     Edge 8, Type (0, 0), BuildingBlock: EYOCIG_clean_linker_4, # of connection points: 2
# Relax obj value: 0.163
# Max RMSD: 0.230
# Mean RMSD: 0.199
data_MOF--net-qtz--node1-AZAVOO_clean_sbu_0--edge1-EYOCIG_clean_linker_4
_symmetry_space_group_name_H-M    P1
_symmetry_Int_Tables_number       1
_symmetry_cell_setting            triclinic
loop_
_symmetry_equiv_pos_as_xyz
'x, y, z'
_cell_length_a     18.867034
_cell_length_b     19.853464
_cell_length_c     22.653281
_cell_angle_alpha  91.120471
_cell_angle_beta   95.49882
_cell_angle_gamma 125.42037
loop_
_atom_site_label
_atom_site_type_symbol
_atom_site_fract_x
_atom_site_fract_y
_atom_site_fract_z
_atom_type_partial_charge
Mg0 Mg 0.9636 0.47786 0.12261 0.0
O1 O 0.05581 0.59196 0.18939 0.0
O2 O 0.97294 0.60956 0.2428 0.0
Mg3 Mg 0.82852 0.50341 0.21298 0.0
C4 C 0.04735 0.63152 0.22974 0.0
C5 C 0.07515 0.45059 0.05359 0.0
O6 O 0.00892 0.37548 0.06215 0.0
O7 O 0.92673 0.54959 0.0657 0.0
O8 O 0.83373 0.55024 0.12 0.0
O9 O 0.96124 0.39377 0.18787 0.0
O10 O 0.86626 0.42548 0.17881 0.0
C11 C 0.87131 0.56531 0.0731 0.0
C12 C 0.89383 0.38641 0.20502 0.0
O13 O 0.07733 0.51258 0.07214 0.0
Mg14 Mg 0.56739 0.06405 0.49029 0.0
O15 O 0.44689 0.97136 0.42299 0.0
O16 O 0.41625 0.04404 0.3654 0.0
Mg17 Mg 0.51964 0.18253 0.39361 0.0
C18 C 0.40028 0.97553 0.38069 0.0
C19 C 0.6117 0.96597 0.56751 0.0
O20 O 0.68955 0.03257 0.56133 0.0
O21 O 0.48499 0.08738 0.54331 0.0
O22 O 0.47016 0.1694 0.48472 0.0
O23 O 0.65812 0.07684 0.42717 0.0
O24 O 0.61188 0.15655 0.43204 0.0
C25 C 0.45965 0.13376 0.5327 0.0
C26 C 0.65725 0.13719 0.40769 0.0
O27 O 0.54347 0.95894 0.5443 0.0
Mg28 Mg 0.4276 0.49099 0.7898 0.0
O29 O 0.5544 0.53854 0.85152 0.0
O30 O 0.58809 0.64883 0.90907 0.0
Mg31 Mg 0.48185 0.66986 0.8855 0.0
C32 C 0.60412 0.59785 0.89216 0.0
C33 C 0.37715 0.33917 0.71112 0.0
O34 O 0.30038 0.32137 0.71953 0.0
O35 O 0.50214 0.59947 0.73281 0.0
O36 O 0.52243 0.70278 0.79197 0.0
O37 O 0.34605 0.41009 0.858 0.0
O38 O 0.38859 0.53913 0.85088 0.0
C39 C 0.52826 0.67453 0.74298 0.0
C40 C 0.34786 0.4727 0.87777 0.0
O41 O 0.44672 0.40797 0.73352 0.0
C42 C 0.25632 0.466 0.96127 0.0
C43 C 0.29705 0.46574 0.92353 0.0
C44 C 0.19897 0.46524 -0.00262 0.0
C45 C 0.14396 0.46142 0.02324 0.0
C46 C 0.80499 0.28466 0.28507 0.0
C47 C 0.84643 0.33081 0.24863 0.0
C48 C 0.75333 0.22938 0.3262 0.0
C49 C 0.71041 0.18574 0.36321 0.0
C50 C 0.5957 0.8459 0.62711 0.0
C51 C 0.60412 0.90127 0.60004 0.0
C52 C 0.57899 0.78125 0.66202 0.0
C53 C 0.55565 0.72786 0.69562 0.0
C54 C 0.73929 0.60897 0.95018 0.0
C55 C 0.6775 0.60363 0.92355 0.0
C56 C 0.80046 0.60445 -0.01245 0.0
C57 C 0.83802 0.58758 0.0235 0.0
C58 C 0.26368 0.83729 0.32161 0.0
C59 C 0.32625 0.89987 0.349 0.0
C60 C 0.18934 0.76504 0.28936 0.0
C61 C 0.12493 0.70399 0.26187 0.0
C62 C 0.38917 0.23323 0.64873 0.0
C63 C 0.38214 0.28066 0.67706 0.0
C64 C 0.40539 0.18576 0.61289 0.0
C65 C 0.42998 0.15763 0.57941 0.0
loop_
_geom_bond_atom_site_label_1
_geom_bond_atom_site_label_2
_geom_bond_distance
_geom_bond_site_symmetry_2
_ccdc_geom_bond_type
Mg0 O1 2.028 1_655 S
Mg0 O7 1.986 . S
Mg0 O9 2.114 . S
Mg0 O10 2.251 . S
Mg0 O13 2.010 1_655 S
O1 Mg0 2.028 1_455 S
O1 C4 1.250 . S
O2 Mg3 2.028 1_455 S
O2 C4 1.248 . S
Mg3 O2 2.028 1_655 S
Mg3 O8 2.032 . S
Mg3 O10 2.079 . S
C4 O1 1.250 . S
C4 O2 1.248 . S
C5 O6 1.264 . S
C5 O13 1.249 . S
O6 C5 1.264 . S
O7 Mg0 1.986 . S
O7 C11 1.246 . S
O8 Mg3 2.032 . S
O8 C11 1.259 . S
O9 Mg0 2.114 . S
O9 C12 1.252 . S
O10 Mg0 2.251 . S
O10 Mg3 2.079 . S
O10 C12 1.273 . S
C11 O7 1.246 . S
C11 O8 1.259 . S
C12 O9 1.252 . S
C12 O10 1.273 . S
O13 Mg0 2.010 1_455 S
O13 C5 1.249 . S
Mg14 O15 2.028 1_545 S
Mg14 O21 1.986 . S
Mg14 O23 2.114 . S
Mg14 O24 2.251 . S
Mg14 O27 2.007 1_545 S
O15 Mg14 2.028 1_565 S
O15 C18 1.250 . S
O16 Mg17 2.028 . S
O16 C18 1.248 1_545 S
Mg17 O16 2.028 . S
Mg17 O22 2.032 . S
Mg17 O24 2.079 . S
C18 O15 1.250 . S
C18 O16 1.248 1_565 S
C19 O20 1.264 . S
C19 O27 1.254 . S
O20 C19 1.264 . S
O21 Mg14 1.986 . S
O21 C25 1.246 . S
O22 Mg17 2.032 . S
O22 C25 1.259 . S
O23 Mg14 2.114 . S
O23 C26 1.252 . S
O24 Mg14 2.251 . S
O24 Mg17 2.079 . S
O24 C26 1.273 . S
C25 O21 1.246 . S
C25 O22 1.259 . S
C26 O23 1.252 . S
C26 O24 1.273 . S
O27 Mg14 2.007 1_565 S
O27 C19 1.254 . S
Mg28 O29 2.028 . S
Mg28 O35 1.986 . S
Mg28 O37 2.114 . S
Mg28 O38 2.251 . S
Mg28 O41 2.010 . S
O29 Mg28 2.028 . S
O29 C32 1.250 . S
O30 Mg31 2.028 . S
O30 C32 1.248 . S
Mg31 O30 2.028 . S
Mg31 O36 2.032 . S
Mg31 O38 2.079 . S
C32 O29 1.250 . S
C32 O30 1.248 . S
C33 O34 1.264 . S
C33 O41 1.249 . S
O34 C33 1.264 . S
O35 Mg28 1.986 . S
O35 C39 1.246 . S
O36 Mg31 2.032 . S
O36 C39 1.259 . S
O37 Mg28 2.114 . S
O37 C40 1.252 . S
O38 Mg28 2.251 . S
O38 Mg31 2.079 . S
O38 C40 1.273 . S
C39 O35 1.246 . S
C39 O36 1.259 . S
C40 O37 1.252 . S
C40 O38 1.273 . S
O41 Mg28 2.010 . S
O41 C33 1.249 . S
C42 C43 1.170 . S
C42 C44 1.380 1_556 S
C43 C42 1.170 . S
C44 C42 1.380 1_554 S
C44 C45 1.170 . S
C45 C44 1.170 . S
C46 C47 1.170 . S
C46 C48 1.380 . S
C47 C46 1.170 . S
C48 C46 1.380 . S
C48 C49 1.170 . S
C49 C48 1.170 . S
C50 C51 1.170 . S
C50 C52 1.380 . S
C51 C50 1.170 . S
C52 C50 1.380 . S
C52 C53 1.170 . S
C53 C52 1.170 . S
C54 C55 1.170 . S
C54 C56 1.380 1_556 S
C55 C54 1.170 . S
C56 C54 1.380 1_554 S
C56 C57 1.170 . S
C57 C56 1.170 . S
C58 C59 1.170 . S
C58 C60 1.380 . S
C59 C58 1.170 . S
C60 C58 1.380 . S
C60 C61 1.170 . S
C61 C60 1.170 . S
C62 C63 1.170 . S
C62 C64 1.380 . S
C63 C62 1.170 . S
C64 C62 1.380 . S
C64 C65 1.170 . S
C65 C64 1.170 . S
C43 C40 1.377 . S
C45 C5 1.111 . S
C47 C12 1.396 . S
C49 C26 1.385 . S
C51 C19 1.078 . S
C53 C39 1.299 . S
C55 C32 1.292 . S
C57 C11 1.315 . S
C59 C18 1.351 . S
C61 C4 1.357 . S
C63 C33 1.120 . S
C65 C25 1.300 . S
