# Generated by pormake.
# Topology acs, (6)-cn, num edge types: 1
# Building blocks:
#     Node 0, Type 0, BuildingBlock: OJICUG_clean_sbu_0, # of connection points: 6
#     Node 1, Type 0, BuildingBlock: OJICUG_clean_sbu_0, # of connection points: 6
#     Edge 2, Type (0, 0), BuildingBlock: AJUNOK_clean_linker_0, # of connection points: 2
#     Edge 3, Type (0, 0), BuildingBlock: AJUNOK_clean_linker_0, # of connection points: 2
#     Edge 4, Type (0, 0), BuildingBlock: AJUNOK_clean_linker_0, # of connection points: 2
#     Edge 5, Type (0, 0), BuildingBlock: AJUNOK_clean_linker_0, # of connection points: 2
#     Edge 6, Type (0, 0), BuildingBlock: AJUNOK_clean_linker_0, # of connection points: 2
#     Edge 7, Type (0, 0), BuildingBlock: AJUNOK_clean_linker_0, # of connection points: 2
# Relax obj value: 0.000
# Max RMSD: 0.000
# Mean RMSD: 0.000
data_MOF--net-acs--node1-OJICUG_clean_sbu_0--edge1-AJUNOK_clean_linker_0
_symmetry_space_group_name_H-M    P1
_symmetry_Int_Tables_number       1
_symmetry_cell_setting            triclinic
loop_
_symmetry_equiv_pos_as_xyz
'x, y, z'
_cell_length_a     16.236989
_cell_length_b     16.245274
_cell_length_c     16.840066
_cell_angle_alpha  90.048678
_cell_angle_beta   90.000403
_cell_angle_gamma 120.05165
loop_
_atom_site_label
_atom_site_type_symbol
_atom_site_fract_x
_atom_site_fract_y
_atom_site_fract_z
_atom_type_partial_charge
Sc0 Sc 0.73101 0.48256 0.2474 0.0
Sc1 Sc 0.51739 0.26099 0.2439 0.0
Sc2 Sc 0.73818 0.26936 0.24148 0.0
O3 O 0.66218 0.33773 0.24423 0.0
C4 C 0.86075 0.44545 0.12644 0.0
C5 C 0.55905 0.43387 0.12849 0.0
C6 C 0.5696 0.14447 0.12055 0.0
C7 C 0.55716 0.42756 0.36603 0.0
C8 C 0.85728 0.43702 0.36512 0.0
C9 C 0.56875 0.13738 0.3596 0.0
O10 O 0.83017 0.49732 0.15559 0.0
O11 O 0.50678 0.34989 0.1546 0.0
O12 O 0.65288 0.17512 0.14788 0.0
O13 O 0.63988 0.48477 0.33949 0.0
O14 O 0.83166 0.35608 0.3348 0.0
O15 O 0.51216 0.16394 0.33373 0.0
O16 O 0.82752 0.49122 0.33966 0.0
O17 O 0.5054 0.34459 0.3377 0.0
O18 O 0.65188 0.16911 0.33155 0.0
O19 O 0.64192 0.48973 0.15565 0.0
O20 O 0.83335 0.36178 0.15126 0.0
O21 O 0.51239 0.16852 0.14958 0.0
Sc22 Sc 0.25301 0.52645 0.7475 0.0
Sc23 Sc 0.47392 0.73915 0.74423 0.0
Sc24 Sc 0.26036 0.74685 0.74173 0.0
O25 O 0.32911 0.67091 0.74448 0.0
C26 C 0.13008 0.57308 0.62674 0.0
C27 C 0.42093 0.56387 0.62793 0.0
C28 C 0.4327 0.86439 0.62149 0.0
C29 C 0.42316 0.57071 0.86709 0.0
C30 C 0.13355 0.58135 0.86485 0.0
C31 C 0.43359 0.87159 0.85922 0.0
O32 O 0.15676 0.51838 0.65634 0.0
O33 O 0.47824 0.64645 0.65471 0.0
O34 O 0.35023 0.83915 0.64853 0.0
O35 O 0.34018 0.51771 0.83933 0.0
O36 O 0.16312 0.66327 0.83491 0.0
O37 O 0.48571 0.83968 0.8332 0.0
O38 O 0.16 0.5245 0.83945 0.0
O39 O 0.4798 0.65261 0.83885 0.0
O40 O 0.35058 0.84423 0.83239 0.0
O41 O 0.33754 0.51262 0.65561 0.0
O42 O 0.162 0.658 0.65077 0.0
O43 O 0.48473 0.83368 0.65002 0.0
C44 C 0.4073 0.95823 0.97065 0.0
C45 C 0.47062 0.94296 0.92432 0.0
C46 C 0.43996 0.02377 0.03339 0.0
C47 C 0.53738 0.07698 0.05254 0.0
H48 H 0.33147 0.9183 0.9592 0.0
H49 H 0.38796 0.03176 0.06771 0.0
S50 S 0.73373 0.0692 0.94569 0.0
N51 N 0.63623 0.99019 0.89949 0.0
N52 N 0.69759 0.1133 0.01706 0.0
C53 C 0.6018 0.0637 0.00574 0.0
C54 C 0.56848 0.99681 0.94186 0.0
C55 C 0.54949 0.57459 0.53867 0.0
C56 C 0.45307 0.52637 0.56141 0.0
C57 C 0.58213 0.54194 0.47588 0.0
C58 C 0.51993 0.45949 0.43285 0.0
H59 H 0.6008 0.63827 0.56971 0.0
H60 H 0.65716 0.58182 0.46134 0.0
S61 S 0.25956 0.30842 0.46625 0.0
N62 N 0.29492 0.39253 0.53431 0.0
N63 N 0.35625 0.3312 0.4165 0.0
C64 C 0.4231 0.41047 0.45469 0.0
C65 C 0.38975 0.44383 0.51876 0.0
C66 C 0.95019 0.42067 0.0167 0.0
C67 C 0.93072 0.48306 0.0602 0.0
C68 C 0.01561 0.45323 0.95408 0.0
C69 C 0.06465 0.54973 0.93184 0.0
H70 H 0.91417 0.34548 0.03061 0.0
H71 H 0.02714 0.40171 0.92255 0.0
S72 S 0.04295 0.74377 0.02849 0.0
N73 N 0.96807 0.64705 0.07774 0.0
N74 N 0.09105 0.70822 0.96004 0.0
C75 C 0.04645 0.61329 0.97502 0.0
C76 C 0.97961 0.58003 0.03903 0.0
C77 C 0.4102 0.96195 0.51754 0.0
C78 C 0.46958 0.93306 0.55419 0.0
C79 C 0.44277 0.02732 0.45484 0.0
C80 C 0.53634 0.06705 0.42569 0.0
H81 H 0.33751 0.93398 0.53729 0.0
H82 H 0.39371 0.04678 0.42921 0.0
S83 S 0.72147 0.01589 0.50092 0.0
N84 N 0.62733 0.94983 0.55643 0.0
N85 N 0.68848 0.07254 0.43887 0.0
C86 C 0.5967 0.03872 0.46158 0.0
C87 C 0.56342 0.97193 0.52557 0.0
C88 C 0.55227 0.58197 0.95632 0.0
C89 C 0.45542 0.53517 0.93486 0.0
C90 C 0.58488 0.54912 0.01906 0.0
C91 C 0.5221 0.46795 0.06311 0.0
H92 H 0.6039 0.64414 0.92393 0.0
H93 H 0.66029 0.58727 0.0324 0.0
S94 S 0.26027 0.32289 0.03477 0.0
N95 N 0.29615 0.40548 0.96548 0.0
N96 N 0.35736 0.34388 0.08297 0.0
C97 C 0.42475 0.42118 0.04314 0.0
C98 C 0.39149 0.4547 0.97927 0.0
C99 C 0.04161 0.59917 0.51641 0.0
C100 C 0.05903 0.53626 0.5612 0.0
C101 C 0.97598 0.56651 0.45366 0.0
C102 C 0.92506 0.46955 0.43286 0.0
H103 H 0.07961 0.67467 0.52923 0.0
H104 H 0.9661 0.6181 0.42061 0.0
S105 S 0.93924 0.27399 0.53452 0.0
N106 N 0.01626 0.37111 0.58223 0.0
N107 N 0.89329 0.31005 0.46472 0.0
C108 C 0.9406 0.4055 0.4779 0.0
C109 C 0.00736 0.43871 0.54183 0.0
loop_
_geom_bond_atom_site_label_1
_geom_bond_atom_site_label_2
_geom_bond_distance
_geom_bond_site_symmetry_2
_ccdc_geom_bond_type
Sc0 O3 2.025 . S
Sc0 O10 2.105 . S
Sc0 O13 2.105 . S
Sc0 O16 2.105 . S
Sc0 O19 2.105 . S
Sc1 O3 2.025 . S
Sc1 O11 2.105 . S
Sc1 O15 2.105 . S
Sc1 O17 2.105 . S
Sc1 O21 2.105 . S
Sc2 O3 2.025 . S
Sc2 O12 2.105 . S
Sc2 O14 2.105 . S
Sc2 O18 2.105 . S
Sc2 O20 2.105 . S
O3 Sc0 2.025 . S
O3 Sc1 2.025 . S
O3 Sc2 2.025 . S
C4 O10 1.268 . S
C4 O20 1.268 . S
C5 O11 1.268 . S
C5 O19 1.268 . S
C6 O12 1.268 . S
C6 O21 1.268 . S
C7 O13 1.268 . S
C7 O17 1.268 . S
C8 O14 1.268 . S
C8 O16 1.268 . S
C9 O15 1.268 . S
C9 O18 1.268 . S
O10 Sc0 2.105 . S
O10 C4 1.268 . S
O11 Sc1 2.105 . S
O11 C5 1.268 . S
O12 Sc2 2.105 . S
O12 C6 1.268 . S
O13 Sc0 2.105 . S
O13 C7 1.268 . S
O14 Sc2 2.105 . S
O14 C8 1.268 . S
O15 Sc1 2.105 . S
O15 C9 1.268 . S
O16 Sc0 2.105 . S
O16 C8 1.268 . S
O17 Sc1 2.105 . S
O17 C7 1.268 . S
O18 Sc2 2.105 . S
O18 C9 1.268 . S
O19 Sc0 2.105 . S
O19 C5 1.268 . S
O20 Sc2 2.105 . S
O20 C4 1.268 . S
O21 Sc1 2.105 . S
O21 C6 1.268 . S
Sc22 O25 2.025 . S
Sc22 O32 2.105 . S
Sc22 O35 2.105 . S
Sc22 O38 2.105 . S
Sc22 O41 2.105 . S
Sc23 O25 2.025 . S
Sc23 O33 2.105 . S
Sc23 O37 2.105 . S
Sc23 O39 2.105 . S
Sc23 O43 2.105 . S
Sc24 O25 2.025 . S
Sc24 O34 2.105 . S
Sc24 O36 2.105 . S
Sc24 O40 2.105 . S
Sc24 O42 2.105 . S
O25 Sc22 2.025 . S
O25 Sc23 2.025 . S
O25 Sc24 2.025 . S
C26 O32 1.268 . S
C26 O42 1.268 . S
C27 O33 1.268 . S
C27 O41 1.268 . S
C28 O34 1.268 . S
C28 O43 1.268 . S
C29 O35 1.268 . S
C29 O39 1.268 . S
C30 O36 1.268 . S
C30 O38 1.268 . S
C31 O37 1.268 . S
C31 O40 1.268 . S
O32 Sc22 2.105 . S
O32 C26 1.268 . S
O33 Sc23 2.105 . S
O33 C27 1.268 . S
O34 Sc24 2.105 . S
O34 C28 1.268 . S
O35 Sc22 2.105 . S
O35 C29 1.268 . S
O36 Sc24 2.105 . S
O36 C30 1.268 . S
O37 Sc23 2.105 . S
O37 C31 1.268 . S
O38 Sc22 2.105 . S
O38 C30 1.268 . S
O39 Sc23 2.105 . S
O39 C29 1.268 . S
O40 Sc24 2.105 . S
O40 C31 1.268 . S
O41 Sc22 2.105 . S
O41 C27 1.268 . S
O42 Sc24 2.105 . S
O42 C26 1.268 . S
O43 Sc23 2.105 . S
O43 C28 1.268 . S
C44 C45 1.369 1_554 S
C44 C46 1.419 . S
C44 H48 0.930 . S
C45 C44 1.369 1_556 S
C45 C54 1.429 1_565 S
C46 C44 1.419 . S
C46 C47 1.363 1_565 S
C46 H49 0.929 . S
C47 C46 1.363 1_545 S
C47 C53 1.428 1_554 S
H48 C44 0.930 . S
H49 C46 0.929 . S
S50 N51 1.613 . S
S50 N52 1.610 . S
N51 S50 1.613 . S
N51 C54 1.350 . S
N52 S50 1.610 . S
N52 C53 1.351 . S
C53 C47 1.428 1_556 S
C53 N52 1.351 . S
C53 C54 1.434 . S
C54 C45 1.429 1_545 S
C54 N51 1.350 . S
C54 C53 1.434 . S
C55 C56 1.369 . S
C55 C57 1.419 . S
C55 H59 0.930 . S
C56 C55 1.369 . S
C56 C65 1.429 . S
C57 C55 1.419 . S
C57 C58 1.363 . S
C57 H60 0.929 . S
C58 C57 1.363 . S
C58 C64 1.428 . S
H59 C55 0.930 . S
H60 C57 0.929 . S
S61 N62 1.613 . S
S61 N63 1.610 . S
N62 S61 1.613 . S
N62 C65 1.350 . S
N63 S61 1.610 . S
N63 C64 1.351 . S
C64 C58 1.428 . S
C64 N63 1.351 . S
C64 C65 1.434 . S
C65 C56 1.429 . S
C65 N62 1.350 . S
C65 C64 1.434 . S
C66 C67 1.369 1_556 S
C66 C68 1.419 . S
C66 H70 0.930 . S
C67 C66 1.369 1_554 S
C67 C76 1.429 1_655 S
C68 C66 1.419 . S
C68 C69 1.363 1_655 S
C68 H71 0.929 . S
C69 C68 1.363 1_455 S
C69 C75 1.428 1_556 S
H70 C66 0.930 . S
H71 C68 0.929 . S
S72 N73 1.613 . S
S72 N74 1.610 . S
N73 S72 1.613 . S
N73 C76 1.350 . S
N74 S72 1.610 . S
N74 C75 1.351 . S
C75 C69 1.428 1_554 S
C75 N74 1.351 . S
C75 C76 1.434 . S
C76 C67 1.429 1_455 S
C76 N73 1.350 . S
C76 C75 1.434 . S
C77 C78 1.369 . S
C77 C79 1.419 1_565 S
C77 H81 0.930 . S
C78 C77 1.369 . S
C78 C87 1.429 1_565 S
C79 C77 1.419 1_545 S
C79 C80 1.363 . S
C79 H82 0.929 1_545 S
C80 C79 1.363 . S
C80 C86 1.428 . S
H81 C77 0.930 . S
H82 C79 0.929 1_565 S
S83 N84 1.613 . S
S83 N85 1.610 . S
N84 S83 1.613 . S
N84 C87 1.350 . S
N85 S83 1.610 . S
N85 C86 1.351 . S
C86 C80 1.428 . S
C86 N85 1.351 . S
C86 C87 1.434 . S
C87 C78 1.429 1_545 S
C87 N84 1.350 . S
C87 C86 1.434 . S
C88 C89 1.369 . S
C88 C90 1.419 . S
C88 H92 0.930 . S
C89 C88 1.369 . S
C89 C98 1.429 1_556 S
C90 C88 1.419 . S
C90 C91 1.363 1_556 S
C90 H93 0.929 . S
C91 C90 1.363 1_554 S
C91 C97 1.428 . S
H92 C88 0.930 . S
H93 C90 0.929 . S
S94 N95 1.613 . S
S94 N96 1.610 . S
N95 S94 1.613 . S
N95 C98 1.350 . S
N96 S94 1.610 . S
N96 C97 1.351 . S
C97 C91 1.428 . S
C97 N96 1.351 . S
C97 C98 1.434 . S
C98 C89 1.429 1_554 S
C98 N95 1.350 . S
C98 C97 1.434 . S
C99 C100 1.369 . S
C99 C101 1.419 . S
C99 H103 0.930 . S
C100 C99 1.369 . S
C100 C109 1.429 1_455 S
C101 C99 1.419 . S
C101 C102 1.363 1_455 S
C101 H104 0.929 . S
C102 C101 1.363 1_655 S
C102 C108 1.428 . S
H103 C99 0.930 . S
H104 C101 0.929 . S
S105 N106 1.613 . S
S105 N107 1.610 . S
N106 S105 1.613 . S
N106 C109 1.350 . S
N107 S105 1.610 . S
N107 C108 1.351 . S
C108 C102 1.428 . S
C108 N107 1.351 . S
C108 C109 1.434 . S
C109 C100 1.429 1_655 S
C109 N106 1.350 . S
C109 C108 1.434 . S
C45 C31 1.477 . S
C47 C6 1.482 . S
C56 C27 1.480 . S
C58 C7 1.480 . S
C67 C4 1.478 . S
C69 C30 1.481 . S
C78 C28 1.477 . S
C80 C9 1.482 . S
C89 C29 1.483 . S
C91 C5 1.478 . S
C100 C26 1.477 . S
C102 C8 1.482 . S
