# Generated by pormake.
# Topology lon, (4)-cn, num edge types: 1
# Building blocks:
#     Node 0, Type 0, BuildingBlock: QUQFOY_clean_sbu_3, # of connection points: 4
#     Node 1, Type 0, BuildingBlock: QUQFOY_clean_sbu_3, # of connection points: 4
#     Node 2, Type 0, BuildingBlock: QUQFOY_clean_sbu_3, # of connection points: 4
#     Node 3, Type 0, BuildingBlock: QUQFOY_clean_sbu_3, # of connection points: 4
#     Edge 4, Type (0, 0), BuildingBlock: KIFKEQ_clean_linker_1, # of connection points: 2
#     Edge 5, Type (0, 0), BuildingBlock: KIFKEQ_clean_linker_1, # of connection points: 2
#     Edge 6, Type (0, 0), BuildingBlock: KIFKEQ_clean_linker_1, # of connection points: 2
#     Edge 7, Type (0, 0), BuildingBlock: KIFKEQ_clean_linker_1, # of connection points: 2
#     Edge 8, Type (0, 0), BuildingBlock: KIFKEQ_clean_linker_1, # of connection points: 2
#     Edge 9, Type (0, 0), BuildingBlock: KIFKEQ_clean_linker_1, # of connection points: 2
#     Edge 10, Type (0, 0), BuildingBlock: KIFKEQ_clean_linker_1, # of connection points: 2
#     Edge 11, Type (0, 0), BuildingBlock: KIFKEQ_clean_linker_1, # of connection points: 2
# Relax obj value: 0.136
# Max RMSD: 0.173
# Mean RMSD: 0.169
data_MOF--net-lon--node1-QUQFOY_clean_sbu_3--edge1-KIFKEQ_clean_linker_1
_symmetry_space_group_name_H-M    P1
_symmetry_Int_Tables_number       1
_symmetry_cell_setting            triclinic
loop_
_symmetry_equiv_pos_as_xyz
'x, y, z'
_cell_length_a     24.665392
_cell_length_b     27.102551
_cell_length_c     42.949301
_cell_angle_alpha  89.862284
_cell_angle_beta   90.426462
_cell_angle_gamma 117.2843
loop_
_atom_site_label
_atom_site_type_symbol
_atom_site_fract_x
_atom_site_fract_y
_atom_site_fract_z
_atom_type_partial_charge
C0 C 0.15167 0.62349 0.04332 0.0
O1 O 0.15794 0.67046 0.05229 0.0
Cd2 Cd 0.25298 0.74799 0.06553 0.0
O3 O 0.19789 0.61423 0.04155 0.0
Cd4 Cd 0.31054 0.6665 0.05183 0.0
C5 C 0.29479 0.69458 0.12799 0.0
O6 O 0.32004 0.74908 0.02514 0.0
O7 O 0.40293 0.75782 0.04661 0.0
O8 O 0.32157 0.60967 0.01043 0.0
C9 C 0.37653 0.77885 0.02973 0.0
O10 O 0.27885 0.73021 0.11787 0.0
C11 C 0.35793 0.59705 0.02551 0.0
O12 O 0.30554 0.664 0.10911 0.0
O13 O 0.37194 0.61639 0.05293 0.0
C14 C 0.60153 0.35037 0.50671 0.0
O15 O 0.60125 0.32094 0.48369 0.0
Cd16 Cd 0.63313 0.2504 0.48554 0.0
O17 O 0.61858 0.34283 0.53367 0.0
Cd18 Cd 0.65414 0.27896 0.55822 0.0
C19 C 0.77908 0.32888 0.51172 0.0
O20 O 0.58222 0.19796 0.53043 0.0
O21 O 0.65156 0.18618 0.555 0.0
O22 O 0.59779 0.2778 0.60519 0.0
C23 C 0.60269 0.16509 0.53905 0.0
O24 O 0.74447 0.29994 0.48964 0.0
C25 C 0.64118 0.28671 0.62408 0.0
O26 O 0.75714 0.33068 0.53819 0.0
O27 O 0.69103 0.29302 0.61231 0.0
C28 C 0.22344 0.58782 0.47634 0.0
O29 O 0.25267 0.61411 0.50035 0.0
Cd30 Cd 0.35347 0.68834 0.5013 0.0
O31 O 0.24771 0.59977 0.44942 0.0
Cd32 Cd 0.34875 0.66658 0.4273 0.0
C33 C 0.42539 0.61616 0.47335 0.0
O34 O 0.35615 0.74421 0.45764 0.0
O35 O 0.4374 0.7601 0.43239 0.0
O36 O 0.2961 0.67147 0.37962 0.0
C37 C 0.40942 0.77863 0.44966 0.0
O38 O 0.4165 0.64124 0.49624 0.0
C39 C 0.33099 0.66311 0.36111 0.0
O40 O 0.4035 0.61686 0.4465 0.0
O41 O 0.37356 0.65554 0.3734 0.0
C42 C 0.50279 0.33051 0.9416 0.0
O43 O 0.46164 0.28363 0.93241 0.0
Cd44 Cd 0.47817 0.2061 0.91878 0.0
O45 O 0.5584 0.33983 0.94342 0.0
Cd46 Cd 0.61848 0.28791 0.933 0.0
C47 C 0.57325 0.26034 0.85668 0.0
O48 O 0.54505 0.20458 0.95908 0.0
O49 O 0.6198 0.1972 0.93794 0.0
O50 O 0.68753 0.34409 0.97464 0.0
C51 C 0.57223 0.17544 0.95449 0.0
O52 O 0.52149 0.22466 0.86659 0.0
C53 C 0.73625 0.35718 0.9595 0.0
O54 O 0.61505 0.29074 0.87574 0.0
O55 O 0.73016 0.33844 0.93194 0.0
H56 H 0.3235 0.62066 0.15882 0.0
H57 H 0.27781 0.75464 0.17452 0.0
H58 H 0.33011 0.61007 0.21498 0.0
H59 H 0.28567 0.74479 0.23041 0.0
H60 H 0.40216 0.65139 0.3161 0.0
H61 H 0.39303 0.65764 0.2598 0.0
H62 H 0.2332 0.68186 0.27238 0.0
H63 H 0.24315 0.67684 0.32866 0.0
C64 C 0.31512 0.64801 0.1742 0.0
C65 C 0.30001 0.68844 0.16209 0.0
C66 C 0.31918 0.64209 0.20641 0.0
C67 C 0.30819 0.67643 0.22725 0.0
C68 C 0.29338 0.71698 0.21509 0.0
C69 C 0.2893 0.72288 0.18296 0.0
C70 C 0.36492 0.65782 0.30684 0.0
C71 C 0.32354 0.66387 0.32687 0.0
C72 C 0.3595 0.66111 0.27454 0.0
C73 C 0.31255 0.67052 0.26153 0.0
C74 C 0.27052 0.67551 0.28161 0.0
C75 C 0.27598 0.67228 0.31389 0.0
H76 H 0.54029 0.27594 0.65535 0.0
H77 H 0.72395 0.29913 0.67002 0.0
H78 H 0.52527 0.27274 0.71148 0.0
H79 H 0.70849 0.29471 0.72621 0.0
H80 H 0.49517 0.20093 0.80979 0.0
H81 H 0.51309 0.21018 0.75401 0.0
H82 H 0.69414 0.34355 0.77029 0.0
H83 H 0.67672 0.33355 0.82634 0.0
C84 C 0.57752 0.28044 0.67056 0.0
C85 C 0.63324 0.2876 0.65821 0.0
C86 C 0.56878 0.27825 0.70275 0.0
C87 C 0.61551 0.28306 0.72339 0.0
C88 C 0.67172 0.2914 0.71102 0.0
C89 C 0.68049 0.29365 0.67879 0.0
C90 C 0.53886 0.2323 0.80156 0.0
C91 C 0.5845 0.26648 0.82264 0.0
C92 C 0.54897 0.23786 0.76949 0.0
C93 C 0.60496 0.27779 0.75761 0.0
C94 C 0.65071 0.31199 0.77866 0.0
C95 C 0.64059 0.30641 0.8108 0.0
H96 H 0.43856 0.56559 0.0519 0.0
H97 H 0.333 0.54785 0.96816 0.0
H98 H 0.47661 0.50451 0.02991 0.0
H99 H 0.37173 0.48747 0.94602 0.0
H100 H 0.39072 0.327 0.93624 0.0
H101 H 0.35885 0.3939 0.95537 0.0
H102 H 0.54203 0.49862 0.98844 0.0
H103 H 0.57406 0.43102 0.96962 0.0
C104 C 0.42375 0.54892 0.02873 0.0
C105 C 0.38246 0.56131 0.01185 0.0
C106 C 0.44592 0.51425 0.01604 0.0
C107 C 0.42714 0.49104 0.98623 0.0
C108 C 0.38651 0.50412 0.9692 0.0
C109 C 0.36449 0.53889 0.98184 0.0
C110 C 0.42445 0.3644 0.94741 0.0
C111 C 0.48498 0.37347 0.95146 0.0
C112 C 0.40617 0.40297 0.95823 0.0
C113 C 0.44785 0.45159 0.97346 0.0
C114 C 0.50866 0.46124 0.9771 0.0
C115 C 0.52709 0.42268 0.96612 0.0
H116 H 0.1331 0.54419 0.43198 0.0
H117 H 0.17069 0.53212 0.52934 0.0
H118 H 0.02606 0.4782 0.44011 0.0
H119 H 0.06491 0.46493 0.53722 0.0
H120 H 0.86265 0.40808 0.54974 0.0
H121 H 0.97015 0.46678 0.54002 0.0
H122 H 0.95379 0.38411 0.45192 0.0
H123 H 0.84516 0.32639 0.46121 0.0
C124 C 0.1187 0.52676 0.45497 0.0
C125 C 0.16007 0.54387 0.4801 0.0
C126 C 0.05745 0.48877 0.45963 0.0
C127 C 0.03665 0.46677 0.48943 0.0
C128 C 0.0789 0.48211 0.51415 0.0
C129 C 0.1397 0.52044 0.50959 0.0
C130 C 0.88192 0.40212 0.52835 0.0
C131 C 0.84525 0.36251 0.50627 0.0
C132 C 0.9438 0.43563 0.52283 0.0
C133 C 0.97084 0.43004 0.49523 0.0
C134 C 0.93432 0.38998 0.47325 0.0
C135 C 0.87213 0.35667 0.47867 0.0
H136 H 0.62066 0.10258 0.94951 0.0
H137 H 0.46617 0.11789 0.98589 0.0
H138 H 0.57569 0.00618 0.96758 0.0
H139 H 0.42189 0.02236 0.00403 0.0
H140 H 0.32647 0.83449 -0.00253 0.0
H141 H 0.37639 0.93 0.97927 0.0
H142 H 0.54796 0.94988 0.01712 0.0
H143 H 0.49783 0.85345 0.03527 0.0
C144 C 0.57732 0.08548 0.96144 0.0
C145 C 0.5468 0.11773 0.9661 0.0
C146 C 0.55177 0.03044 0.97192 0.0
C147 C 0.49506 0.00661 0.98701 0.0
C148 C 0.46517 0.03925 0.99204 0.0
C149 C 0.49075 0.09413 0.98176 0.0
C150 C 0.37488 0.85906 0.00189 0.0
C151 C 0.40814 0.83649 0.01797 0.0
C152 C 0.40342 0.91392 0.99158 0.0
C153 C 0.46599 0.94761 -0.003 0.0
C154 C 0.49972 0.9248 0.01249 0.0
C155 C 0.47098 0.86975 0.02299 0.0
H156 H 0.61935 0.43746 0.54492 0.0
H157 H 0.536 0.35927 0.45773 0.0
H158 H 0.5841 0.50722 0.53656 0.0
H159 H 0.49856 0.42695 0.45004 0.0
H160 H 0.44787 0.57893 0.52862 0.0
H161 H 0.49431 0.51778 0.53672 0.0
H162 H 0.52708 0.51995 0.43782 0.0
H163 H 0.47789 0.57899 0.42964 0.0
C164 C 0.59323 0.43501 0.52408 0.0
C165 C 0.58055 0.39293 0.50198 0.0
C166 C 0.57278 0.47482 0.51932 0.0
C167 C 0.53854 0.47292 0.49256 0.0
C168 C 0.52594 0.43065 0.47056 0.0
C169 C 0.54703 0.39144 0.4751 0.0
C170 C 0.46542 0.56667 0.50864 0.0
C171 C 0.45873 0.58335 0.47845 0.0
C172 C 0.49243 0.53181 0.5133 0.0
C173 C 0.51412 0.51346 0.48791 0.0
C174 C 0.50959 0.53211 0.45785 0.0
C175 C 0.48175 0.56627 0.45315 0.0
H176 H 0.1211 0.52304 0.01528 0.0
H177 H 0.04315 0.62658 0.04909 0.0
H178 H 0.02044 0.4553 -0.00344 0.0
H179 H 0.94336 0.55954 0.03008 0.0
H180 H 0.76227 0.40552 0.01708 0.0
H181 H 0.86239 0.46568 0.03932 0.0
H182 H 0.94799 0.44991 0.95514 0.0
H183 H 0.84787 0.38908 0.93304 0.0
C184 C 0.08256 0.53123 0.0189 0.0
C185 C 0.09032 0.58036 0.03362 0.0
C186 C 0.02498 0.49259 0.00799 0.0
C187 C 0.97392 0.50209 0.01177 0.0
C188 C -0.01846 0.55061 0.02711 0.0
C189 C 0.03897 0.58925 0.03785 0.0
C190 C 0.80245 0.41471 0.00335 0.0
C191 C 0.7971 0.39275 0.97323 0.0
C192 C 0.85981 0.44934 0.01606 0.0
C193 C 0.91317 0.4627 -0.00103 0.0
C194 C 0.90784 0.43993 0.96905 0.0
C195 C 0.85043 0.40541 0.9563 0.0
H196 H 0.49456 0.11013 0.50862 0.0
H197 H 0.64878 0.09032 0.54266 0.0
H198 H 0.44967 0.01667 0.4872 0.0
H199 H 0.60327 -0.00399 0.52116 0.0
H200 H 0.5291 0.85676 0.44479 0.0
H201 H 0.57735 0.94993 0.46771 0.0
H202 H 0.40499 0.92029 0.50779 0.0
H203 H 0.35685 0.82783 0.48492 0.0
C204 C 0.51877 0.08568 0.51165 0.0
C205 C 0.57516 0.1075 0.52735 0.0
C206 C 0.49291 0.03207 0.49947 0.0
C207 C 0.52297 -0.00088 0.50256 0.0
C208 C 0.57942 0.02078 0.51826 0.0
C209 C 0.60518 0.07449 0.53073 0.0
C210 C 0.50162 0.87028 0.45847 0.0
C211 C 0.43917 0.83515 0.46296 0.0
C212 C 0.5293 0.92334 0.47175 0.0
C213 C 0.49483 0.94225 0.48947 0.0
C214 C 0.43251 0.90699 0.49397 0.0
C215 C 0.40502 0.854 0.48093 0.0
loop_
_geom_bond_atom_site_label_1
_geom_bond_atom_site_label_2
_geom_bond_distance
_geom_bond_site_symmetry_2
_ccdc_geom_bond_type
C0 O1 1.306 . S
C0 O3 1.160 . S
O1 C0 1.306 . S
O1 Cd2 2.228 . S
Cd2 O1 2.228 . S
Cd2 O6 2.273 . S
Cd2 O10 2.277 . S
O3 C0 1.160 . S
O3 Cd4 2.203 . S
Cd4 O3 2.203 . S
Cd4 O6 2.411 . S
Cd4 O7 2.333 . S
Cd4 O8 2.352 . S
Cd4 O12 2.277 . S
Cd4 O13 2.356 . S
C5 O10 1.209 . S
C5 O12 1.226 . S
O6 Cd2 2.273 . S
O6 Cd4 2.411 . S
O6 C9 1.320 . S
O7 Cd4 2.333 . S
O7 C9 1.214 . S
O8 Cd4 2.352 . S
O8 C11 1.258 . S
C9 O6 1.320 . S
C9 O7 1.214 . S
O10 Cd2 2.277 . S
O10 C5 1.209 . S
C11 O8 1.258 . S
C11 O13 1.282 . S
O12 Cd4 2.277 . S
O12 C5 1.226 . S
O13 Cd4 2.356 . S
O13 C11 1.282 . S
C14 O15 1.306 . S
C14 O17 1.160 . S
O15 C14 1.306 . S
O15 Cd16 2.228 . S
Cd16 O15 2.228 . S
Cd16 O20 2.273 . S
Cd16 O24 2.277 . S
O17 C14 1.160 . S
O17 Cd18 2.203 . S
Cd18 O17 2.203 . S
Cd18 O20 2.411 . S
Cd18 O21 2.333 . S
Cd18 O22 2.352 . S
Cd18 O26 2.277 . S
Cd18 O27 2.356 . S
C19 O24 1.209 . S
C19 O26 1.226 . S
O20 Cd16 2.273 . S
O20 Cd18 2.411 . S
O20 C23 1.320 . S
O21 Cd18 2.333 . S
O21 C23 1.214 . S
O22 Cd18 2.352 . S
O22 C25 1.258 . S
C23 O20 1.320 . S
C23 O21 1.214 . S
O24 Cd16 2.277 . S
O24 C19 1.209 . S
C25 O22 1.258 . S
C25 O27 1.282 . S
O26 Cd18 2.277 . S
O26 C19 1.226 . S
O27 Cd18 2.356 . S
O27 C25 1.282 . S
C28 O29 1.306 . S
C28 O31 1.160 . S
O29 C28 1.306 . S
O29 Cd30 2.228 . S
Cd30 O29 2.228 . S
Cd30 O34 2.273 . S
Cd30 O38 2.277 . S
O31 C28 1.160 . S
O31 Cd32 2.203 . S
Cd32 O31 2.203 . S
Cd32 O34 2.411 . S
Cd32 O35 2.333 . S
Cd32 O36 2.352 . S
Cd32 O40 2.277 . S
Cd32 O41 2.356 . S
C33 O38 1.209 . S
C33 O40 1.226 . S
O34 Cd30 2.273 . S
O34 Cd32 2.411 . S
O34 C37 1.320 . S
O35 Cd32 2.333 . S
O35 C37 1.214 . S
O36 Cd32 2.352 . S
O36 C39 1.258 . S
C37 O34 1.320 . S
C37 O35 1.214 . S
O38 Cd30 2.277 . S
O38 C33 1.209 . S
C39 O36 1.258 . S
C39 O41 1.282 . S
O40 Cd32 2.277 . S
O40 C33 1.226 . S
O41 Cd32 2.356 . S
O41 C39 1.282 . S
C42 O43 1.306 . S
C42 O45 1.160 . S
O43 C42 1.306 . S
O43 Cd44 2.228 . S
Cd44 O43 2.228 . S
Cd44 O48 2.273 . S
Cd44 O52 2.277 . S
O45 C42 1.160 . S
O45 Cd46 2.203 . S
Cd46 O45 2.203 . S
Cd46 O48 2.411 . S
Cd46 O49 2.333 . S
Cd46 O50 2.352 . S
Cd46 O54 2.277 . S
Cd46 O55 2.356 . S
C47 O52 1.209 . S
C47 O54 1.226 . S
O48 Cd44 2.273 . S
O48 Cd46 2.411 . S
O48 C51 1.320 . S
O49 Cd46 2.333 . S
O49 C51 1.214 . S
O50 Cd46 2.352 . S
O50 C53 1.258 . S
C51 O48 1.320 . S
C51 O49 1.214 . S
O52 Cd44 2.277 . S
O52 C47 1.209 . S
C53 O50 1.258 . S
C53 O55 1.282 . S
O54 Cd46 2.277 . S
O54 C47 1.226 . S
O55 Cd46 2.356 . S
O55 C53 1.282 . S
H56 C64 0.950 . S
H57 C69 0.950 . S
H58 C66 0.950 . S
H59 C68 0.950 . S
H60 C70 0.950 . S
H61 C72 0.950 . S
H62 C74 0.950 . S
H63 C75 0.950 . S
C64 H56 0.950 . S
C64 C65 1.386 . S
C64 C66 1.391 . S
C65 C64 1.386 . S
C65 C69 1.393 . S
C66 H58 0.950 . S
C66 C64 1.391 . S
C66 C67 1.400 . S
C67 C66 1.400 . S
C67 C68 1.398 . S
C67 C73 1.491 . S
C68 H59 0.950 . S
C68 C67 1.398 . S
C68 C69 1.391 . S
C69 H57 0.950 . S
C69 C65 1.393 . S
C69 C68 1.391 . S
C70 H60 0.950 . S
C70 C71 1.386 . S
C70 C72 1.391 . S
C71 C70 1.386 . S
C71 C75 1.393 . S
C72 H61 0.950 . S
C72 C70 1.391 . S
C72 C73 1.400 . S
C73 C67 1.491 . S
C73 C72 1.400 . S
C73 C74 1.398 . S
C74 H62 0.950 . S
C74 C73 1.398 . S
C74 C75 1.391 . S
C75 H63 0.950 . S
C75 C71 1.393 . S
C75 C74 1.391 . S
H76 C84 0.950 . S
H77 C89 0.950 . S
H78 C86 0.950 . S
H79 C88 0.950 . S
H80 C90 0.950 . S
H81 C92 0.950 . S
H82 C94 0.950 . S
H83 C95 0.950 . S
C84 H76 0.950 . S
C84 C85 1.386 . S
C84 C86 1.391 . S
C85 C84 1.386 . S
C85 C89 1.393 . S
C86 H78 0.950 . S
C86 C84 1.391 . S
C86 C87 1.400 . S
C87 C86 1.400 . S
C87 C88 1.398 . S
C87 C93 1.491 . S
C88 H79 0.950 . S
C88 C87 1.398 . S
C88 C89 1.391 . S
C89 H77 0.950 . S
C89 C85 1.393 . S
C89 C88 1.391 . S
C90 H80 0.950 . S
C90 C91 1.386 . S
C90 C92 1.391 . S
C91 C90 1.386 . S
C91 C95 1.393 . S
C92 H81 0.950 . S
C92 C90 1.391 . S
C92 C93 1.400 . S
C93 C87 1.491 . S
C93 C92 1.400 . S
C93 C94 1.398 . S
C94 H82 0.950 . S
C94 C93 1.398 . S
C94 C95 1.391 . S
C95 H83 0.950 . S
C95 C91 1.393 . S
C95 C94 1.391 . S
H96 C104 0.950 . S
H97 C109 0.950 . S
H98 C106 0.950 . S
H99 C108 0.950 . S
H100 C110 0.950 . S
H101 C112 0.950 . S
H102 C114 0.955 . S
H103 C115 0.950 1_554 S
C104 H96 0.950 . S
C104 C105 1.386 . S
C104 C106 1.391 . S
C105 C104 1.386 . S
C105 C109 1.393 1_554 S
C106 H98 0.950 . S
C106 C104 1.391 . S
C106 C107 1.400 1_554 S
C107 C106 1.400 1_556 S
C107 C108 1.398 . S
C107 C113 1.491 . S
C108 H99 0.950 . S
C108 C107 1.398 . S
C108 C109 1.391 . S
C109 H97 0.950 . S
C109 C105 1.393 1_556 S
C109 C108 1.391 . S
C110 H100 0.950 . S
C110 C111 1.386 . S
C110 C112 1.391 . S
C111 C110 1.386 . S
C111 C115 1.393 . S
C112 H101 0.950 . S
C112 C110 1.391 . S
C112 C113 1.400 . S
C113 C107 1.491 . S
C113 C112 1.400 . S
C113 C114 1.395 1_556 S
C114 H102 0.955 . S
C114 C113 1.395 1_554 S
C114 C115 1.389 1_554 S
C115 H103 0.950 1_556 S
C115 C111 1.393 . S
C115 C114 1.389 1_556 S
H116 C124 0.950 . S
H117 C129 0.950 . S
H118 C126 0.950 1_655 S
H119 C128 0.950 . S
H120 C130 0.950 . S
H121 C132 0.950 . S
H122 C134 0.950 . S
H123 C135 0.950 . S
C124 H116 0.950 . S
C124 C125 1.386 . S
C124 C126 1.391 . S
C125 C124 1.386 . S
C125 C129 1.393 . S
C126 H118 0.950 1_455 S
C126 C124 1.391 . S
C126 C127 1.400 . S
C127 C126 1.400 . S
C127 C128 1.398 . S
C127 C133 1.491 1_455 S
C128 H119 0.950 . S
C128 C127 1.398 . S
C128 C129 1.391 . S
C129 H117 0.950 . S
C129 C125 1.393 . S
C129 C128 1.391 . S
C130 H120 0.950 . S
C130 C131 1.386 . S
C130 C132 1.391 . S
C131 C130 1.386 . S
C131 C135 1.393 . S
C132 H121 0.950 . S
C132 C130 1.391 . S
C132 C133 1.400 . S
C133 C127 1.491 1_655 S
C133 C132 1.400 . S
C133 C134 1.398 . S
C134 H122 0.950 . S
C134 C133 1.398 . S
C134 C135 1.391 . S
C135 H123 0.950 . S
C135 C131 1.393 . S
C135 C134 1.391 . S
H136 C144 0.950 . S
H137 C149 0.950 . S
H138 C146 0.950 . S
H139 C148 0.950 . S
H140 C150 0.950 . S
H141 C152 0.950 . S
H142 C154 0.950 . S
H143 C155 0.950 . S
C144 H136 0.950 . S
C144 C145 1.386 . S
C144 C146 1.391 . S
C145 C144 1.386 . S
C145 C149 1.393 . S
C146 H138 0.950 . S
C146 C144 1.391 . S
C146 C147 1.400 . S
C147 C146 1.400 . S
C147 C148 1.398 . S
C147 C153 1.491 1_546 S
C148 H139 0.950 . S
C148 C147 1.398 . S
C148 C149 1.391 . S
C149 H137 0.950 . S
C149 C145 1.393 . S
C149 C148 1.391 . S
C150 H140 0.950 . S
C150 C151 1.386 . S
C150 C152 1.391 . S
C151 C150 1.386 . S
C151 C155 1.393 . S
C152 H141 0.950 . S
C152 C150 1.391 . S
C152 C153 1.400 . S
C153 C147 1.491 1_564 S
C153 C152 1.400 . S
C153 C154 1.398 . S
C154 H142 0.950 . S
C154 C153 1.398 . S
C154 C155 1.391 . S
C155 H143 0.950 . S
C155 C151 1.393 . S
C155 C154 1.391 . S
H156 C164 0.950 . S
H157 C169 0.950 . S
H158 C166 0.950 . S
H159 C168 0.950 . S
H160 C170 0.950 . S
H161 C172 0.950 . S
H162 C174 0.950 . S
H163 C175 0.950 . S
C164 H156 0.950 . S
C164 C165 1.386 . S
C164 C166 1.391 . S
C165 C164 1.386 . S
C165 C169 1.393 . S
C166 H158 0.950 . S
C166 C164 1.391 . S
C166 C167 1.400 . S
C167 C166 1.400 . S
C167 C168 1.398 . S
C167 C173 1.491 . S
C168 H159 0.950 . S
C168 C167 1.398 . S
C168 C169 1.391 . S
C169 H157 0.950 . S
C169 C165 1.393 . S
C169 C168 1.391 . S
C170 H160 0.950 . S
C170 C171 1.386 . S
C170 C172 1.391 . S
C171 C170 1.386 . S
C171 C175 1.393 . S
C172 H161 0.950 . S
C172 C170 1.391 . S
C172 C173 1.400 . S
C173 C167 1.491 . S
C173 C172 1.400 . S
C173 C174 1.398 . S
C174 H162 0.950 . S
C174 C173 1.398 . S
C174 C175 1.391 . S
C175 H163 0.950 . S
C175 C171 1.393 . S
C175 C174 1.391 . S
H176 C184 0.950 1_556 S
H177 C189 0.950 . S
H178 C186 0.950 . S
H179 C188 0.950 . S
H180 C190 0.950 . S
H181 C192 0.950 . S
H182 C194 0.950 . S
H183 C195 0.950 . S
C184 H176 0.950 1_554 S
C184 C185 1.386 . S
C184 C186 1.391 1_554 S
C185 C184 1.386 . S
C185 C189 1.393 . S
C186 H178 0.950 . S
C186 C184 1.391 1_556 S
C186 C187 1.400 1_556 S
C187 C186 1.400 1_554 S
C187 C188 1.398 . S
C187 C193 1.491 1_455 S
C188 H179 0.950 . S
C188 C187 1.398 . S
C188 C189 1.391 . S
C189 H177 0.950 . S
C189 C185 1.393 . S
C189 C188 1.391 . S
C190 H180 0.950 . S
C190 C191 1.386 1_554 S
C190 C192 1.391 . S
C191 C190 1.386 1_556 S
C191 C195 1.393 . S
C192 H181 0.950 . S
C192 C190 1.391 . S
C192 C193 1.400 . S
C193 C187 1.491 1_655 S
C193 C192 1.400 . S
C193 C194 1.398 1_554 S
C194 H182 0.950 . S
C194 C193 1.398 1_556 S
C194 C195 1.391 . S
C195 H183 0.950 . S
C195 C191 1.393 . S
C195 C194 1.391 . S
H196 C204 0.950 . S
H197 C209 0.950 . S
H198 C206 0.950 . S
H199 C208 0.950 . S
H200 C210 0.950 . S
H201 C212 0.950 . S
H202 C214 0.950 . S
H203 C215 0.950 . S
C204 H196 0.950 . S
C204 C205 1.386 . S
C204 C206 1.391 . S
C205 C204 1.386 . S
C205 C209 1.393 . S
C206 H198 0.950 . S
C206 C204 1.391 . S
C206 C207 1.400 . S
C207 C206 1.400 . S
C207 C208 1.398 . S
C207 C213 1.491 1_545 S
C208 H199 0.950 . S
C208 C207 1.398 . S
C208 C209 1.391 . S
C209 H197 0.950 . S
C209 C205 1.393 . S
C209 C208 1.391 . S
C210 H200 0.950 . S
C210 C211 1.386 . S
C210 C212 1.391 . S
C211 C210 1.386 . S
C211 C215 1.393 . S
C212 H201 0.950 . S
C212 C210 1.391 . S
C212 C213 1.400 . S
C213 C207 1.491 1_565 S
C213 C212 1.400 . S
C213 C214 1.398 . S
C214 H202 0.950 . S
C214 C213 1.398 . S
C214 C215 1.391 . S
C215 H203 0.950 . S
C215 C211 1.393 . S
C215 C214 1.391 . S
C65 C5 1.573 . S
C71 C39 1.569 . S
C85 C25 1.569 . S
C91 C47 1.573 . S
C105 C11 1.428 . S
C111 C42 1.446 . S
C125 C28 1.651 . S
C131 C19 1.650 . S
C145 C51 1.517 . S
C151 C9 1.517 . S
C165 C14 1.642 . S
C171 C33 1.656 . S
C185 C0 1.447 . S
C191 C53 1.433 . S
C205 C23 1.587 . S
C211 C37 1.584 . S
