# Generated by pormake.
# Topology npo, (4)-cn, num edge types: 1
# Building blocks:
#     Node 0, Type 0, BuildingBlock: CEKHIL_clean_sbu_0, # of connection points: 4
#     Node 1, Type 0, BuildingBlock: CEKHIL_clean_sbu_0, # of connection points: 4
#     Node 2, Type 0, BuildingBlock: CEKHIL_clean_sbu_0, # of connection points: 4
#     Node 3, Type 0, BuildingBlock: CEKHIL_clean_sbu_0, # of connection points: 4
#     Node 4, Type 0, BuildingBlock: CEKHIL_clean_sbu_0, # of connection points: 4
#     Node 5, Type 0, BuildingBlock: CEKHIL_clean_sbu_0, # of connection points: 4
#     Edge 6, Type (0, 0), BuildingBlock: AJUNOK_clean_linker_0, # of connection points: 2
#     Edge 7, Type (0, 0), BuildingBlock: AJUNOK_clean_linker_0, # of connection points: 2
#     Edge 8, Type (0, 0), BuildingBlock: AJUNOK_clean_linker_0, # of connection points: 2
#     Edge 9, Type (0, 0), BuildingBlock: AJUNOK_clean_linker_0, # of connection points: 2
#     Edge 10, Type (0, 0), BuildingBlock: AJUNOK_clean_linker_0, # of connection points: 2
#     Edge 11, Type (0, 0), BuildingBlock: AJUNOK_clean_linker_0, # of connection points: 2
#     Edge 12, Type (0, 0), BuildingBlock: AJUNOK_clean_linker_0, # of connection points: 2
#     Edge 13, Type (0, 0), BuildingBlock: AJUNOK_clean_linker_0, # of connection points: 2
#     Edge 14, Type (0, 0), BuildingBlock: AJUNOK_clean_linker_0, # of connection points: 2
#     Edge 15, Type (0, 0), BuildingBlock: AJUNOK_clean_linker_0, # of connection points: 2
#     Edge 16, Type (0, 0), BuildingBlock: AJUNOK_clean_linker_0, # of connection points: 2
#     Edge 17, Type (0, 0), BuildingBlock: AJUNOK_clean_linker_0, # of connection points: 2
# Relax obj value: 0.295
# Max RMSD: 0.247
# Mean RMSD: 0.244
data_MOF--net-npo--node1-CEKHIL_clean_sbu_0--edge1-AJUNOK_clean_linker_0
_symmetry_space_group_name_H-M    P1
_symmetry_Int_Tables_number       1
_symmetry_cell_setting            triclinic
loop_
_symmetry_equiv_pos_as_xyz
'x, y, z'
_cell_length_a     33.048766
_cell_length_b     32.99098
_cell_length_c     16.697564
_cell_angle_alpha  90.294875
_cell_angle_beta   90.129846
_cell_angle_gamma 120.62566
loop_
_atom_site_label
_atom_site_type_symbol
_atom_site_fract_x
_atom_site_fract_y
_atom_site_fract_z
_atom_type_partial_charge
Co0 Co 0.52564 0.09584 0.29693 0.0
O1 O 0.46999 0.04178 0.33963 0.0
O2 O 0.54321 0.06466 0.3747 0.0
C3 C 0.49842 0.14612 0.30676 0.0
O4 O 0.59169 0.14962 0.27443 0.0
Co5 Co 0.52974 0.1521 0.14573 0.0
O6 O 0.58902 0.20258 0.19423 0.0
C7 C 0.52781 0.06127 0.12873 0.0
C8 C 0.49857 0.0363 0.38589 0.0
C9 C 0.61058 0.19069 0.24317 0.0
O10 O 0.52942 0.05736 0.20548 0.0
O11 O 0.52557 0.09495 0.09536 0.0
O12 O 0.51573 0.13674 0.36924 0.0
O13 O 0.49553 0.12282 0.24272 0.0
Co14 Co 0.44332 0.55112 0.78616 0.0
O15 O 0.5012 0.5565 0.74722 0.0
O16 O 0.42937 0.50447 0.705 0.0
C17 C 0.46603 0.62803 0.78066 0.0
O18 O 0.3759 0.53585 0.80091 0.0
Co19 Co 0.43226 0.59729 0.94055 0.0
O20 O 0.37461 0.58771 0.8868 0.0
C21 C 0.43814 0.51126 0.95351 0.0
C22 C 0.47439 0.52329 0.69662 0.0
C23 C 0.35606 0.5573 0.83085 0.0
O24 O 0.43891 0.50753 0.87636 0.0
O25 O 0.43754 0.54526 0.98938 0.0
O26 O 0.45317 0.60226 0.71606 0.0
O27 O 0.46942 0.60779 0.84435 0.0
Co28 Co 0.86597 0.40208 0.2434 0.0
O29 O 0.9169 0.39658 0.28881 0.0
O30 O 0.90474 0.456 0.30971 0.0
C31 C 0.80709 0.32912 0.2718 0.0
O32 O 0.8166 0.41921 0.21553 0.0
Co33 Co 0.80384 0.34071 0.10087 0.0
O34 O 0.7603 0.36089 0.14055 0.0
C35 C 0.90074 0.41772 0.07136 0.0
C36 C 0.92841 0.43557 0.32665 0.0
C37 C 0.77482 0.39697 0.18569 0.0
O38 O 0.90438 0.43351 0.1436 0.0
O39 O 0.86523 0.37949 0.04572 0.0
O40 O 0.82392 0.36167 0.32682 0.0
O41 O 0.82982 0.34017 0.20498 0.0
Co42 Co 0.41525 0.85817 0.75961 0.0
O43 O 0.40844 0.90824 0.71388 0.0
O44 O 0.4611 0.88943 0.6769 0.0
C45 C 0.33791 0.80288 0.7577 0.0
O46 O 0.43213 0.80815 0.78309 0.0
Co47 Co 0.37177 0.80756 0.91947 0.0
O48 O 0.39093 0.76241 0.8863 0.0
C49 C 0.45708 0.90205 0.9223 0.0
C50 C 0.44204 0.91493 0.66535 0.0
C51 C 0.41913 0.77223 0.82818 0.0
O52 O 0.46003 0.90227 0.84517 0.0
O53 O 0.42319 0.86905 0.96135 0.0
O54 O 0.36308 0.81264 0.69319 0.0
O55 O 0.35919 0.82894 0.81941 0.0
Co56 Co 0.52623 0.40005 0.28577 0.0
O57 O 0.46736 0.39455 0.25055 0.0
O58 O 0.53784 0.44373 0.20154 0.0
C59 C 0.50084 0.32243 0.28689 0.0
O60 O 0.59403 0.41555 0.2941 0.0
Co61 Co 0.54486 0.36028 0.44007 0.0
O62 O 0.60245 0.37088 0.38558 0.0
C63 C 0.53446 0.44394 0.45008 0.0
C64 C 0.49283 0.42614 0.19741 0.0
C65 C 0.6175 0.39856 0.32617 0.0
O66 O 0.53401 0.44689 0.37289 0.0
O67 O 0.5363 0.41105 0.48689 0.0
O68 O 0.51239 0.34555 0.21995 0.0
O69 O 0.50206 0.34595 0.34983 0.0
Co70 Co 0.10487 0.55219 0.74434 0.0
O71 O 0.04995 0.55102 0.78947 0.0
O72 O 0.07264 0.49974 0.81449 0.0
C73 C 0.1568 0.6296 0.76249 0.0
O74 O 0.15884 0.54113 0.72177 0.0
Co75 Co 0.16258 0.60763 0.59684 0.0
O76 O 0.21202 0.5972 0.64181 0.0
C77 C 0.07021 0.5218 0.57279 0.0
C78 C 0.04331 0.51392 0.82827 0.0
C79 C 0.20018 0.56404 0.69161 0.0
O80 O 0.06659 0.51307 0.64859 0.0
O81 O 0.10453 0.5584 0.54146 0.0
O82 O 0.14504 0.6005 0.82208 0.0
O83 O 0.13406 0.61177 0.69637 0.0
C84 C 0.50444 0.21774 0.3704 0.0
C85 C 0.49254 0.18767 0.30357 0.0
C86 C 0.50504 0.26041 0.36544 0.0
C87 C 0.49467 0.27498 0.29305 0.0
H88 H 0.5147 0.20902 0.42641 0.0
H89 H 0.51545 0.2828 0.41807 0.0
S90 S 0.45363 0.20563 0.10455 0.0
N91 N 0.4636 0.17252 0.1658 0.0
N92 N 0.46684 0.25373 0.15599 0.0
C93 C 0.48018 0.24415 0.22713 0.0
C94 C 0.47853 0.20021 0.23254 0.0
C95 C 0.27598 0.54657 0.84056 0.0
C96 C 0.31281 0.55062 0.79303 0.0
C97 C 0.23799 0.54788 0.80603 0.0
C98 C 0.23645 0.55489 0.72321 0.0
H99 H 0.2772 0.54367 0.90502 0.0
H100 H 0.21101 0.54608 0.84514 0.0
S101 S 0.32364 0.56591 0.57275 0.0
N102 N 0.34446 0.5595 0.65877 0.0
N103 N 0.27394 0.564 0.59431 0.0
C104 C 0.27245 0.55774 0.67485 0.0
C105 C 0.31043 0.55503 0.70969 0.0
C106 C 0.67589 0.26381 0.304 0.0
C107 C 0.66075 0.22323 0.25689 0.0
C108 C 0.72395 0.29648 0.31372 0.0
C109 C 0.758 0.29008 0.27448 0.0
H110 H 0.65046 0.27064 0.33237 0.0
H111 H 0.7343 0.32808 0.34859 0.0
S112 S 0.73549 0.18813 0.14752 0.0
N113 N 0.68267 0.17669 0.17471 0.0
N114 N 0.77313 0.2392 0.1897 0.0
C115 C 0.74305 0.24894 0.22892 0.0
C116 C 0.69428 0.2152 0.22083 0.0
C117 C 0.45364 0.72518 0.87545 0.0
C118 C 0.43724 0.7406 0.81184 0.0
C119 C 0.46651 0.69132 0.86315 0.0
C120 C 0.462 0.67057 0.78723 0.0
H121 H 0.4557 0.73876 0.93549 0.0
H122 H 0.47793 0.67979 0.91458 0.0
S123 S 0.42341 0.70158 0.60002 0.0
N124 N 0.42007 0.73558 0.66946 0.0
N125 N 0.44285 0.6706 0.64624 0.0
C126 C 0.44768 0.68744 0.72226 0.0
C127 C 0.43548 0.72271 0.73467 0.0
C128 C 0.70056 0.41674 0.33351 0.0
C129 C 0.66123 0.40755 0.28721 0.0
C130 C 0.73959 0.41791 0.29821 0.0
C131 C 0.73977 0.40826 0.21598 0.0
H132 H 0.70048 0.42146 0.39776 0.0
H133 H 0.76821 0.42285 0.33673 0.0
S134 S 0.64649 0.3852 0.06818 0.0
N135 N 0.62614 0.3922 0.1542 0.0
N136 N 0.69868 0.39233 0.08854 0.0
C137 C 0.70156 0.4012 0.16856 0.0
C138 C 0.66244 0.40133 0.20406 0.0
C139 C 0.26567 0.73974 0.69037 0.0
C140 C 0.28962 0.76155 0.76176 0.0
C141 C 0.22156 0.69849 0.6915 0.0
C142 C 0.2002 0.67654 0.76405 0.0
H143 H 0.28131 0.75431 0.63287 0.0
H144 H 0.205 0.68303 0.63465 0.0
S145 S 0.24509 0.72271 0.968 0.0
N146 N 0.28588 0.76117 0.90749 0.0
N147 N 0.20402 0.68215 0.90925 0.0
C148 C 0.22262 0.69909 0.83599 0.0
C149 C 0.26708 0.74194 0.83493 0.0
C150 C 0.5047 -0.01092 0.93928 0.0
C151 C 0.49015 0.94417 0.96946 0.0
C152 C 0.52114 0.02793 0.99102 0.0
C153 C 0.52346 0.02318 0.07479 0.0
H154 H 0.49926 -0.00642 0.8767 0.0
H155 H 0.52873 0.06115 0.96537 0.0
S156 S 0.5035 0.91544 0.1789 0.0
N157 N 0.48957 0.89894 0.08446 0.0
N158 N 0.52016 0.97187 0.18208 0.0
C159 C 0.51532 0.97973 0.10376 0.0
C160 C 0.4987 0.9402 0.05092 0.0
C161 C 0.55197 0.49306 0.57328 0.0
C162 C 0.52616 0.47548 0.50142 0.0
C163 C 0.53633 0.51067 0.63514 0.0
C164 C 0.49356 0.50981 0.62812 0.0
H165 H 0.58323 0.49092 0.5833 0.0
H166 H 0.55645 0.52249 0.69036 0.0
S167 S 0.41541 0.47184 0.44905 0.0
N168 N 0.45821 0.46231 0.42412 0.0
N169 N 0.42799 0.49416 0.54066 0.0
C170 C 0.46883 0.49479 0.5548 0.0
C171 C 0.4854 0.47801 0.49126 0.0
C172 C -0.00991 0.51408 0.93582 0.0
C173 C 0.00583 0.48939 0.88849 0.0
C174 C 0.95754 0.49147 0.99801 0.0
C175 C 0.93921 0.44335 1.01354 0.0
H176 H 0.00363 0.55121 0.92572 0.0
H177 H 0.94576 0.51135 0.03264 0.0
S178 S 0.9687 0.36299 0.90668 0.0
N179 N 0.00049 0.41422 0.86202 0.0
N180 N 0.93916 0.37197 0.97721 0.0
C181 C 0.9546 0.41845 0.96649 0.0
C182 C -0.01207 0.44139 0.90436 0.0
C183 C 0.51244 -0.0095 0.48993 0.0
C184 C 0.48189 0.00314 0.45413 0.0
C185 C 0.49942 0.96253 0.55875 0.0
C186 C 0.4557 0.94683 0.59559 0.0
H187 H 0.54684 0.00237 0.46468 0.0
H188 H 0.52405 0.9534 0.58354 0.0
S189 S 0.36271 0.96996 0.52566 0.0
N190 N 0.40558 -0.00265 0.46034 0.0
N191 N 0.38148 0.94547 0.59051 0.0
C192 C 0.42477 0.95924 0.56061 0.0
C193 C 0.43772 -0.01291 0.48958 0.0
C194 C 0.48225 0.47243 0.99587 0.0
C195 C 0.4435 0.4784 1.00609 0.0
C196 C 0.49681 0.45394 0.05757 0.0
C197 C 0.47263 0.43994 0.13104 0.0
H198 H 0.50356 0.48538 0.94245 0.0
H199 H 0.52824 0.45201 0.04853 0.0
S200 S 0.36545 0.44307 0.18333 0.0
N201 N 0.37883 0.46543 0.09232 0.0
N202 N 0.40545 0.42923 0.20725 0.0
C203 C 0.43173 0.44236 0.13955 0.0
C204 C 0.41739 0.46201 0.07731 0.0
C205 C 0.04046 0.47555 0.44597 0.0
C206 C 0.03116 0.49142 0.51824 0.0
C207 C 0.00643 0.45573 0.38481 0.0
C208 C 0.96287 0.45307 0.39295 0.0
H209 H 0.07481 0.47987 0.43578 0.0
H210 H 0.01504 0.4445 0.32958 0.0
S211 S 0.92058 0.48751 0.57177 0.0
N212 N 0.97438 0.50052 0.59618 0.0
N213 N 0.9111 0.46516 0.48023 0.0
C214 C 0.9527 0.46753 0.46576 0.0
C215 C -0.01328 0.48624 0.52878 0.0
loop_
_geom_bond_atom_site_label_1
_geom_bond_atom_site_label_2
_geom_bond_distance
_geom_bond_site_symmetry_2
_ccdc_geom_bond_type
Co0 O1 2.216 . S
Co0 O2 2.091 . S
Co0 O4 2.004 . S
Co0 O10 2.021 . S
Co0 O12 2.137 . S
Co0 O13 2.244 . S
O1 Co0 2.216 . S
O1 C8 1.247 . S
O2 Co0 2.091 . S
O2 C8 1.261 . S
C3 O12 1.247 . S
C3 O13 1.272 . S
O4 Co0 2.004 . S
O4 C9 1.259 . S
Co5 O6 2.061 . S
Co5 O11 2.052 . S
Co5 O13 2.135 . S
O6 Co5 2.061 . S
O6 C9 1.235 . S
C7 O10 1.238 . S
C7 O11 1.241 . S
C8 O1 1.247 . S
C8 O2 1.261 . S
C9 O4 1.259 . S
C9 O6 1.235 . S
O10 Co0 2.021 . S
O10 C7 1.238 . S
O11 Co5 2.052 . S
O11 C7 1.241 . S
O12 Co0 2.137 . S
O12 C3 1.247 . S
O13 Co0 2.244 . S
O13 C3 1.272 . S
O13 Co5 2.135 . S
Co14 O15 2.216 . S
Co14 O16 2.091 . S
Co14 O18 2.004 . S
Co14 O24 2.021 . S
Co14 O26 2.137 . S
Co14 O27 2.244 . S
O15 Co14 2.216 . S
O15 C22 1.247 . S
O16 Co14 2.091 . S
O16 C22 1.261 . S
C17 O26 1.247 . S
C17 O27 1.272 . S
O18 Co14 2.004 . S
O18 C23 1.259 . S
Co19 O20 2.061 . S
Co19 O25 2.052 . S
Co19 O27 2.135 . S
O20 Co19 2.061 . S
O20 C23 1.235 . S
C21 O24 1.238 . S
C21 O25 1.241 . S
C22 O15 1.247 . S
C22 O16 1.261 . S
C23 O18 1.259 . S
C23 O20 1.235 . S
O24 Co14 2.021 . S
O24 C21 1.238 . S
O25 Co19 2.052 . S
O25 C21 1.241 . S
O26 Co14 2.137 . S
O26 C17 1.247 . S
O27 Co14 2.244 . S
O27 C17 1.272 . S
O27 Co19 2.135 . S
Co28 O29 2.216 . S
Co28 O30 2.091 . S
Co28 O32 2.004 . S
Co28 O38 2.021 . S
Co28 O40 2.137 . S
Co28 O41 2.244 . S
O29 Co28 2.216 . S
O29 C36 1.247 . S
O30 Co28 2.091 . S
O30 C36 1.261 . S
C31 O40 1.247 . S
C31 O41 1.272 . S
O32 Co28 2.004 . S
O32 C37 1.259 . S
Co33 O34 2.061 . S
Co33 O39 2.052 . S
Co33 O41 2.135 . S
O34 Co33 2.061 . S
O34 C37 1.235 . S
C35 O38 1.238 . S
C35 O39 1.241 . S
C36 O29 1.247 . S
C36 O30 1.261 . S
C37 O32 1.259 . S
C37 O34 1.235 . S
O38 Co28 2.021 . S
O38 C35 1.238 . S
O39 Co33 2.052 . S
O39 C35 1.241 . S
O40 Co28 2.137 . S
O40 C31 1.247 . S
O41 Co28 2.244 . S
O41 C31 1.272 . S
O41 Co33 2.135 . S
Co42 O43 2.216 . S
Co42 O44 2.091 . S
Co42 O46 2.004 . S
Co42 O52 2.021 . S
Co42 O54 2.137 . S
Co42 O55 2.244 . S
O43 Co42 2.216 . S
O43 C50 1.247 . S
O44 Co42 2.091 . S
O44 C50 1.261 . S
C45 O54 1.247 . S
C45 O55 1.272 . S
O46 Co42 2.004 . S
O46 C51 1.259 . S
Co47 O48 2.061 . S
Co47 O53 2.052 . S
Co47 O55 2.135 . S
O48 Co47 2.061 . S
O48 C51 1.235 . S
C49 O52 1.238 . S
C49 O53 1.241 . S
C50 O43 1.247 . S
C50 O44 1.261 . S
C51 O46 1.259 . S
C51 O48 1.235 . S
O52 Co42 2.021 . S
O52 C49 1.238 . S
O53 Co47 2.052 . S
O53 C49 1.241 . S
O54 Co42 2.137 . S
O54 C45 1.247 . S
O55 Co42 2.244 . S
O55 C45 1.272 . S
O55 Co47 2.135 . S
Co56 O57 2.216 . S
Co56 O58 2.091 . S
Co56 O60 2.004 . S
Co56 O66 2.021 . S
Co56 O68 2.137 . S
Co56 O69 2.244 . S
O57 Co56 2.216 . S
O57 C64 1.247 . S
O58 Co56 2.091 . S
O58 C64 1.261 . S
C59 O68 1.247 . S
C59 O69 1.272 . S
O60 Co56 2.004 . S
O60 C65 1.259 . S
Co61 O62 2.061 . S
Co61 O67 2.052 . S
Co61 O69 2.135 . S
O62 Co61 2.061 . S
O62 C65 1.235 . S
C63 O66 1.238 . S
C63 O67 1.241 . S
C64 O57 1.247 . S
C64 O58 1.261 . S
C65 O60 1.259 . S
C65 O62 1.235 . S
O66 Co56 2.021 . S
O66 C63 1.238 . S
O67 Co61 2.052 . S
O67 C63 1.241 . S
O68 Co56 2.137 . S
O68 C59 1.247 . S
O69 Co56 2.244 . S
O69 C59 1.272 . S
O69 Co61 2.135 . S
Co70 O71 2.216 . S
Co70 O72 2.091 . S
Co70 O74 2.004 . S
Co70 O80 2.021 . S
Co70 O82 2.137 . S
Co70 O83 2.244 . S
O71 Co70 2.216 . S
O71 C78 1.247 . S
O72 Co70 2.091 . S
O72 C78 1.261 . S
C73 O82 1.247 . S
C73 O83 1.272 . S
O74 Co70 2.004 . S
O74 C79 1.259 . S
Co75 O76 2.061 . S
Co75 O81 2.052 . S
Co75 O83 2.135 . S
O76 Co75 2.061 . S
O76 C79 1.235 . S
C77 O80 1.238 . S
C77 O81 1.241 . S
C78 O71 1.247 . S
C78 O72 1.261 . S
C79 O74 1.259 . S
C79 O76 1.235 . S
O80 Co70 2.021 . S
O80 C77 1.238 . S
O81 Co75 2.052 . S
O81 C77 1.241 . S
O82 Co70 2.137 . S
O82 C73 1.247 . S
O83 Co70 2.244 . S
O83 C73 1.272 . S
O83 Co75 2.135 . S
C84 C85 1.369 . S
C84 C86 1.419 . S
C84 H88 0.930 . S
C85 C84 1.369 . S
C85 C94 1.429 . S
C86 C84 1.419 . S
C86 C87 1.363 . S
C86 H89 0.929 . S
C87 C86 1.363 . S
C87 C93 1.428 . S
H88 C84 0.930 . S
H89 C86 0.929 . S
S90 N91 1.613 . S
S90 N92 1.610 . S
N91 S90 1.613 . S
N91 C94 1.350 . S
N92 S90 1.610 . S
N92 C93 1.351 . S
C93 C87 1.428 . S
C93 N92 1.351 . S
C93 C94 1.434 . S
C94 C85 1.429 . S
C94 N91 1.350 . S
C94 C93 1.434 . S
C95 C96 1.369 . S
C95 C97 1.419 . S
C95 H99 0.930 . S
C96 C95 1.369 . S
C96 C105 1.429 . S
C97 C95 1.419 . S
C97 C98 1.363 . S
C97 H100 0.929 . S
C98 C97 1.363 . S
C98 C104 1.428 . S
H99 C95 0.930 . S
H100 C97 0.929 . S
S101 N102 1.613 . S
S101 N103 1.610 . S
N102 S101 1.613 . S
N102 C105 1.350 . S
N103 S101 1.610 . S
N103 C104 1.351 . S
C104 C98 1.428 . S
C104 N103 1.351 . S
C104 C105 1.434 . S
C105 C96 1.429 . S
C105 N102 1.350 . S
C105 C104 1.434 . S
C106 C107 1.369 . S
C106 C108 1.419 . S
C106 H110 0.930 . S
C107 C106 1.369 . S
C107 C116 1.429 . S
C108 C106 1.419 . S
C108 C109 1.363 . S
C108 H111 0.929 . S
C109 C108 1.363 . S
C109 C115 1.428 . S
H110 C106 0.930 . S
H111 C108 0.929 . S
S112 N113 1.613 . S
S112 N114 1.610 . S
N113 S112 1.613 . S
N113 C116 1.350 . S
N114 S112 1.610 . S
N114 C115 1.351 . S
C115 C109 1.428 . S
C115 N114 1.351 . S
C115 C116 1.434 . S
C116 C107 1.429 . S
C116 N113 1.350 . S
C116 C115 1.434 . S
C117 C118 1.369 . S
C117 C119 1.419 . S
C117 H121 0.930 . S
C118 C117 1.369 . S
C118 C127 1.429 . S
C119 C117 1.419 . S
C119 C120 1.363 . S
C119 H122 0.929 . S
C120 C119 1.363 . S
C120 C126 1.428 . S
H121 C117 0.930 . S
H122 C119 0.929 . S
S123 N124 1.613 . S
S123 N125 1.610 . S
N124 S123 1.613 . S
N124 C127 1.350 . S
N125 S123 1.610 . S
N125 C126 1.351 . S
C126 C120 1.428 . S
C126 N125 1.351 . S
C126 C127 1.434 . S
C127 C118 1.429 . S
C127 N124 1.350 . S
C127 C126 1.434 . S
C128 C129 1.369 . S
C128 C130 1.419 . S
C128 H132 0.930 . S
C129 C128 1.369 . S
C129 C138 1.429 . S
C130 C128 1.419 . S
C130 C131 1.363 . S
C130 H133 0.929 . S
C131 C130 1.363 . S
C131 C137 1.428 . S
H132 C128 0.930 . S
H133 C130 0.929 . S
S134 N135 1.613 . S
S134 N136 1.610 . S
N135 S134 1.613 . S
N135 C138 1.350 . S
N136 S134 1.610 . S
N136 C137 1.351 . S
C137 C131 1.428 . S
C137 N136 1.351 . S
C137 C138 1.434 . S
C138 C129 1.429 . S
C138 N135 1.350 . S
C138 C137 1.434 . S
C139 C140 1.369 . S
C139 C141 1.419 . S
C139 H143 0.930 . S
C140 C139 1.369 . S
C140 C149 1.429 . S
C141 C139 1.419 . S
C141 C142 1.363 . S
C141 H144 0.929 . S
C142 C141 1.363 . S
C142 C148 1.428 . S
H143 C139 0.930 . S
H144 C141 0.929 . S
S145 N146 1.613 . S
S145 N147 1.610 . S
N146 S145 1.613 . S
N146 C149 1.350 . S
N147 S145 1.610 . S
N147 C148 1.351 . S
C148 C142 1.428 . S
C148 N147 1.351 . S
C148 C149 1.434 . S
C149 C140 1.429 . S
C149 N146 1.350 . S
C149 C148 1.434 . S
C150 C151 1.369 1_545 S
C150 C152 1.419 1_556 S
C150 H154 0.930 . S
C151 C150 1.369 1_565 S
C151 C160 1.429 . S
C152 C150 1.419 1_554 S
C152 C153 1.363 . S
C152 H155 0.929 . S
C153 C152 1.363 . S
C153 C159 1.428 1_545 S
H154 C150 0.930 . S
H155 C152 0.929 . S
S156 N157 1.613 . S
S156 N158 1.610 . S
N157 S156 1.613 . S
N157 C160 1.350 1_554 S
N158 S156 1.610 . S
N158 C159 1.351 . S
C159 C153 1.428 1_565 S
C159 N158 1.351 . S
C159 C160 1.434 1_554 S
C160 C151 1.429 . S
C160 N157 1.350 1_556 S
C160 C159 1.434 1_556 S
C161 C162 1.369 . S
C161 C163 1.419 . S
C161 H165 0.930 . S
C162 C161 1.369 . S
C162 C171 1.429 . S
C163 C161 1.419 . S
C163 C164 1.363 . S
C163 H166 0.929 . S
C164 C163 1.363 . S
C164 C170 1.428 . S
H165 C161 0.930 . S
H166 C163 0.929 . S
S167 N168 1.613 . S
S167 N169 1.610 . S
N168 S167 1.613 . S
N168 C171 1.350 . S
N169 S167 1.610 . S
N169 C170 1.351 . S
C170 C164 1.428 . S
C170 N169 1.351 . S
C170 C171 1.434 . S
C171 C162 1.429 . S
C171 N168 1.350 . S
C171 C170 1.434 . S
C172 C173 1.369 1_554 S
C172 C174 1.419 . S
C172 H176 0.930 . S
C173 C172 1.369 1_556 S
C173 C182 1.429 1_455 S
C174 C172 1.419 . S
C174 C175 1.363 1_455 S
C174 H177 0.929 . S
C175 C174 1.363 1_655 S
C175 C181 1.428 . S
H176 C172 0.930 . S
H177 C174 0.929 . S
S178 N179 1.613 . S
S178 N180 1.610 1_556 S
N179 S178 1.613 . S
N179 C182 1.350 . S
N180 S178 1.610 1_554 S
N180 C181 1.351 . S
C181 C175 1.428 . S
C181 N180 1.351 . S
C181 C182 1.434 1_554 S
C182 C173 1.429 1_655 S
C182 N179 1.350 . S
C182 C181 1.434 1_556 S
C183 C184 1.369 . S
C183 C185 1.419 . S
C183 H187 0.930 . S
C184 C183 1.369 . S
C184 C193 1.429 1_545 S
C185 C183 1.419 . S
C185 C186 1.363 1_545 S
C185 H188 0.929 . S
C186 C185 1.363 1_565 S
C186 C192 1.428 . S
H187 C183 0.930 . S
H188 C185 0.929 . S
S189 N190 1.613 . S
S189 N191 1.610 . S
N190 S189 1.613 . S
N190 C193 1.350 . S
N191 S189 1.610 . S
N191 C192 1.351 . S
C192 C186 1.428 . S
C192 N191 1.351 . S
C192 C193 1.434 . S
C193 C184 1.429 1_565 S
C193 N190 1.350 . S
C193 C192 1.434 . S
C194 C195 1.369 . S
C194 C196 1.419 . S
C194 H198 0.930 . S
C195 C194 1.369 . S
C195 C204 1.429 . S
C196 C194 1.419 . S
C196 C197 1.363 1_556 S
C196 H199 0.929 . S
C197 C196 1.363 1_554 S
C197 C203 1.428 . S
H198 C194 0.930 . S
H199 C196 0.929 . S
S200 N201 1.613 1_554 S
S200 N202 1.610 . S
N201 S200 1.613 1_556 S
N201 C204 1.350 . S
N202 S200 1.610 . S
N202 C203 1.351 . S
C203 C197 1.428 . S
C203 N202 1.351 . S
C203 C204 1.434 1_554 S
C204 C195 1.429 . S
C204 N201 1.350 . S
C204 C203 1.434 1_556 S
C205 C206 1.369 . S
C205 C207 1.419 . S
C205 H209 0.930 . S
C206 C205 1.369 . S
C206 C215 1.429 1_455 S
C207 C205 1.419 . S
C207 C208 1.363 1_455 S
C207 H210 0.929 . S
C208 C207 1.363 1_655 S
C208 C214 1.428 . S
H209 C205 0.930 . S
H210 C207 0.929 . S
S211 N212 1.613 . S
S211 N213 1.610 . S
N212 S211 1.613 . S
N212 C215 1.350 . S
N213 S211 1.610 . S
N213 C214 1.351 . S
C214 C208 1.428 . S
C214 N213 1.351 . S
C214 C215 1.434 . S
C215 C206 1.429 1_655 S
C215 N212 1.350 . S
C215 C214 1.434 . S
C85 C3 1.295 . S
C87 C59 1.292 . S
C96 C23 1.238 . S
C98 C79 1.259 . S
C107 C9 1.277 . S
C109 C31 1.288 . S
C118 C51 1.267 . S
C120 C17 1.284 . S
C129 C65 1.254 . S
C131 C37 1.238 . S
C140 C45 1.291 . S
C142 C73 1.286 . S
C151 C49 1.392 . S
C153 C7 1.398 . S
C162 C63 1.388 . S
C164 C22 1.426 . S
C173 C78 1.428 . S
C175 C35 1.389 . S
C184 C8 1.458 . S
C186 C50 1.456 . S
C195 C21 1.388 . S
C197 C64 1.427 . S
C206 C77 1.389 . S
C208 C36 1.427 . S
