# Generated by pormake.
# Topology ure, (4)-cn, num edge types: 1
# Building blocks:
#     Node 0, Type 0, BuildingBlock: NAHDIM_clean_sbu_0, # of connection points: 4
#     Node 1, Type 0, BuildingBlock: NAHDIM_clean_sbu_0, # of connection points: 4
#     Node 2, Type 0, BuildingBlock: NAHDIM_clean_sbu_0, # of connection points: 4
#     Node 3, Type 0, BuildingBlock: NAHDIM_clean_sbu_0, # of connection points: 4
#     Node 4, Type 0, BuildingBlock: NAHDIM_clean_sbu_0, # of connection points: 4
#     Node 5, Type 0, BuildingBlock: NAHDIM_clean_sbu_0, # of connection points: 4
#     Node 6, Type 0, BuildingBlock: NAHDIM_clean_sbu_0, # of connection points: 4
#     Node 7, Type 0, BuildingBlock: NAHDIM_clean_sbu_0, # of connection points: 4
#     Node 8, Type 0, BuildingBlock: NAHDIM_clean_sbu_0, # of connection points: 4
#     Node 9, Type 0, BuildingBlock: NAHDIM_clean_sbu_0, # of connection points: 4
#     Node 10, Type 0, BuildingBlock: NAHDIM_clean_sbu_0, # of connection points: 4
#     Node 11, Type 0, BuildingBlock: NAHDIM_clean_sbu_0, # of connection points: 4
#     Node 12, Type 0, BuildingBlock: NAHDIM_clean_sbu_0, # of connection points: 4
#     Node 13, Type 0, BuildingBlock: NAHDIM_clean_sbu_0, # of connection points: 4
#     Node 14, Type 0, BuildingBlock: NAHDIM_clean_sbu_0, # of connection points: 4
#     Node 15, Type 0, BuildingBlock: NAHDIM_clean_sbu_0, # of connection points: 4
#     Edge 16, Type (0, 0), None
#     Edge 17, Type (0, 0), None
#     Edge 18, Type (0, 0), None
#     Edge 19, Type (0, 0), None
#     Edge 20, Type (0, 0), None
#     Edge 21, Type (0, 0), None
#     Edge 22, Type (0, 0), None
#     Edge 23, Type (0, 0), None
#     Edge 24, Type (0, 0), None
#     Edge 25, Type (0, 0), None
#     Edge 26, Type (0, 0), None
#     Edge 27, Type (0, 0), None
#     Edge 28, Type (0, 0), None
#     Edge 29, Type (0, 0), None
#     Edge 30, Type (0, 0), None
#     Edge 31, Type (0, 0), None
#     Edge 32, Type (0, 0), None
#     Edge 33, Type (0, 0), None
#     Edge 34, Type (0, 0), None
#     Edge 35, Type (0, 0), None
#     Edge 36, Type (0, 0), None
#     Edge 37, Type (0, 0), None
#     Edge 38, Type (0, 0), None
#     Edge 39, Type (0, 0), None
#     Edge 40, Type (0, 0), None
#     Edge 41, Type (0, 0), None
#     Edge 42, Type (0, 0), None
#     Edge 43, Type (0, 0), None
#     Edge 44, Type (0, 0), None
#     Edge 45, Type (0, 0), None
#     Edge 46, Type (0, 0), None
#     Edge 47, Type (0, 0), None
# Relax obj value: 0.087
# Max RMSD: 0.079
# Mean RMSD: 0.073
data_MOF--net-ure--node1-NAHDIM_clean_sbu_0--edge1-none
_symmetry_space_group_name_H-M    P1
_symmetry_Int_Tables_number       1
_symmetry_cell_setting            triclinic
loop_
_symmetry_equiv_pos_as_xyz
'x, y, z'
_cell_length_a     14.089703
_cell_length_b     14.811672
_cell_length_c     15.442838
_cell_angle_alpha  89.081235
_cell_angle_beta   89.903405
_cell_angle_gamma 88.218053
loop_
_atom_site_label
_atom_site_type_symbol
_atom_site_fract_x
_atom_site_fract_y
_atom_site_fract_z
_atom_type_partial_charge
C0 C 0.17009 0.1465 0.12776 0.0
O1 O 0.19582 0.22068 0.08767 0.0
O2 O 0.39716 0.21295 0.27316 0.0
Zn3 Zn 0.25285 0.22164 0.28329 0.0
O4 O 0.19548 0.35092 0.26593 0.0
C5 C 0.23458 0.23369 0.46644 0.0
O6 O 0.25314 0.31754 0.44659 0.0
O7 O 0.18929 0.13405 0.20727 0.0
C8 C 0.23596 0.41315 0.22322 0.0
O9 O 0.31826 0.39532 0.18677 0.0
C10 C 0.46167 0.22771 0.21735 0.0
O11 O 0.43933 0.25409 0.13823 0.0
O12 O 0.22659 0.17745 0.40608 0.0
C13 C 0.06907 0.85408 0.39588 0.0
O14 O 0.10859 0.82949 0.46986 0.0
O15 O 0.8217 0.00512 0.5116 0.0
Zn16 Zn 0.96525 -0.0086 0.49941 0.0
O17 O 0.02278 0.94705 0.61377 0.0
C18 C -0.00371 0.16606 0.41326 0.0
O19 O 0.97209 0.12586 0.34184 0.0
O20 O 0.00655 0.91802 0.39409 0.0
C21 C 0.00251 0.00017 0.67546 0.0
O22 O 0.94882 0.07214 0.65909 0.0
C23 C 0.75225 0.95541 0.49519 0.0
O24 O 0.76767 0.87407 0.46468 0.0
O25 O 0.00403 0.12079 0.48359 0.0
C26 C 0.32339 0.88331 0.64873 0.0
O27 O 0.23248 0.89391 0.63178 0.0
O28 O 0.12832 0.75086 0.70035 0.0
Zn29 Zn 0.26258 0.7307 0.74849 0.0
O30 O 0.30475 0.60683 0.70829 0.0
C31 C 0.23424 0.77314 0.94197 0.0
O32 O 0.17926 0.84388 0.92468 0.0
O33 O 0.35224 0.81956 0.69871 0.0
C34 C 0.2833 0.54288 0.75957 0.0
O35 O 0.24113 0.56198 0.83279 0.0
C36 C 0.0616 0.71785 0.74464 0.0
O37 O 0.08243 0.6787 0.819 0.0
O38 O 0.27184 0.72774 0.88094 0.0
C39 C 0.41069 0.07295 0.89046 0.0
O40 O 0.4942 0.10982 0.88984 0.0
O41 O 0.63412 0.97817 0.94693 0.0
Zn42 Zn 0.50888 0.94061 -0.00361 0.0
O43 O 0.50895 0.97289 0.12174 0.0
C44 C 0.50355 0.76471 0.91465 0.0
O45 O 0.50317 0.812 0.84203 0.0
O46 O 0.39881 0.00026 0.93313 0.0
C47 C 0.44272 0.97464 0.17755 0.0
O48 O 0.35543 0.95685 0.15537 0.0
C49 C 0.69356 0.02536 -0.01324 0.0
O50 O 0.67198 0.05856 0.06281 0.0
O51 O 0.50401 0.80501 -0.01327 0.0
C52 C 0.10373 0.81401 0.31447 0.0
O53 O 0.0683 0.84244 0.23997 0.0
O54 O 0.37781 0.75101 0.21131 0.0
Zn55 Zn 0.24314 0.70981 0.20871 0.0
O56 O 0.25418 0.57114 0.20486 0.0
C57 C 0.25322 0.74419 0.03181 0.0
O58 O 0.32772 0.6916 0.04804 0.0
O59 O 0.17363 0.75743 0.31566 0.0
C60 C 0.19873 0.50759 0.22464 0.0
O61 O 0.11317 0.52664 0.2541 0.0
C62 C 0.44171 0.73601 0.26793 0.0
O63 O 0.42104 0.69549 0.34144 0.0
O64 O 0.19621 0.76309 0.09348 0.0
C65 C 0.39234 0.93397 0.59881 0.0
O66 O 0.48353 0.92034 0.61294 0.0
O67 O 0.46029 0.16275 0.44597 0.0
Zn68 Zn 0.45665 0.02565 0.44602 0.0
O69 O 0.58722 0.96087 0.45965 0.0
C70 C 0.46823 -0.00975 0.26776 0.0
O71 O 0.55796 -0.002 0.28751 0.0
O72 O 0.36449 0.98012 0.53331 0.0
C73 C 0.65533 -0.00448 0.49981 0.0
O74 O 0.64142 0.07417 0.53603 0.0
C75 C 0.47856 0.22519 0.49843 0.0
O76 O 0.49943 0.2058 0.57955 0.0
O77 O 0.40622 -0.00409 0.32725 0.0
C78 C 0.33105 0.11739 0.84455 0.0
O79 O 0.24515 0.08622 0.85202 0.0
O80 O 0.24532 0.26419 0.61486 0.0
Zn81 Zn 0.23811 0.26149 0.74537 0.0
O82 O 0.10944 0.22497 0.79003 0.0
C83 C 0.2927 0.44868 0.734 0.0
O84 O 0.33369 0.42663 0.66061 0.0
O85 O 0.34468 0.18864 0.80014 0.0
C86 C 0.04009 0.25506 0.74477 0.0
O87 O 0.05749 0.29833 0.67209 0.0
C88 C 0.22608 0.20678 0.55785 0.0
O89 O 0.19831 0.12604 0.58078 0.0
O90 O 0.25164 0.38939 0.77964 0.0
C91 C 0.11053 0.08187 0.08452 0.0
O92 O 0.07648 0.01382 0.12894 0.0
O93 O 0.00801 0.88318 0.00922 0.0
Zn94 Zn 0.98905 0.0112 0.95932 0.0
O95 O 0.85868 0.05076 0.00251 0.0
C96 C 0.03064 0.97936 0.76534 0.0
O97 O 0.0967 0.91776 0.78267 0.0
O98 O 0.08473 0.09506 0.00662 0.0
C99 C 0.79112 0.02748 0.95434 0.0
O100 O 0.81158 -0.01137 0.88101 0.0
C101 C 0.97463 0.8193 0.96612 0.0
O102 O 0.93791 0.83786 0.88986 0.0
O103 O 0.9871 0.01983 0.82644 0.0
C104 C 0.60374 0.31401 0.81447 0.0
O105 O 0.56833 0.34246 0.73997 0.0
O106 O 0.87781 0.25101 0.71131 0.0
Zn107 Zn 0.74314 0.20981 0.70871 0.0
O108 O 0.75419 0.07113 0.70486 0.0
C109 C 0.75323 0.2442 0.53181 0.0
O110 O 0.82773 0.19161 0.54804 0.0
O111 O 0.67362 0.25742 0.81566 0.0
C112 C 0.69874 0.00759 0.72464 0.0
O113 O 0.61318 0.02664 0.75411 0.0
C114 C 0.94171 0.23601 0.76793 0.0
O115 O 0.92104 0.19549 0.84145 0.0
O116 O 0.69621 0.26309 0.59348 0.0
C117 C 0.89234 0.43396 0.0988 0.0
O118 O 0.98353 0.42033 0.11293 0.0
O119 O 0.9603 0.66275 0.94596 0.0
Zn120 Zn 0.95666 0.52565 0.94602 0.0
O121 O 0.08723 0.46086 0.95965 0.0
C122 C 0.96824 0.49025 0.76775 0.0
O123 O 0.05797 0.49799 0.7875 0.0
O124 O 0.8645 0.48011 0.0333 0.0
C125 C 0.15533 0.4955 -0.00019 0.0
O126 O 0.14143 0.57416 0.03602 0.0
C127 C 0.97857 0.72518 -0.00157 0.0
O128 O -0.00056 0.7058 0.07955 0.0
O129 O 0.90623 0.49591 0.82725 0.0
C130 C 0.83105 0.61739 0.34455 0.0
O131 O 0.74516 0.58621 0.35201 0.0
O132 O 0.74533 0.76419 0.11486 0.0
Zn133 Zn 0.73811 0.76149 0.24537 0.0
O134 O 0.60944 0.72497 0.29002 0.0
C135 C 0.79269 0.94869 0.234 0.0
O136 O 0.83369 0.92663 0.16062 0.0
O137 O 0.84468 0.68864 0.30015 0.0
C138 C 0.54009 0.75505 0.24477 0.0
O139 O 0.55749 0.79833 0.17209 0.0
C140 C 0.72608 0.70678 0.05786 0.0
O141 O 0.69831 0.62604 0.08078 0.0
O142 O 0.75163 0.8894 0.27964 0.0
C143 C 0.91069 0.57295 0.39046 0.0
O144 O -0.0058 0.60983 0.38985 0.0
O145 O 0.13412 0.47817 0.44692 0.0
Zn146 Zn 0.00889 0.44061 0.49639 0.0
O147 O 0.00896 0.47288 0.62173 0.0
C148 C 0.00355 0.2647 0.41464 0.0
O149 O 0.00317 0.31199 0.34203 0.0
O150 O 0.89882 0.50025 0.43312 0.0
C151 C 0.94273 0.47464 0.67754 0.0
O152 O 0.85543 0.45685 0.65537 0.0
C153 C 0.19356 0.52537 0.48676 0.0
O154 O 0.17198 0.55857 0.56281 0.0
O155 O 0.00402 0.30501 0.48673 0.0
C156 C 0.56907 0.35408 0.89588 0.0
O157 O 0.60857 0.32946 0.96986 0.0
O158 O 0.3217 0.50511 0.0116 0.0
Zn159 Zn 0.46526 0.4914 -0.00059 0.0
O160 O 0.52279 0.44705 0.11376 0.0
C161 C 0.49629 0.66606 0.91326 0.0
O162 O 0.47209 0.62587 0.84183 0.0
O163 O 0.50656 0.41803 0.89408 0.0
C164 C 0.50252 0.50017 0.17546 0.0
O165 O 0.44881 0.57213 0.15908 0.0
C166 C 0.25226 0.4554 -0.00481 0.0
O167 O 0.26767 0.37406 0.96467 0.0
O168 O 0.50403 0.6208 -0.01641 0.0
C169 C 0.67009 0.64651 0.62776 0.0
O170 O 0.69584 0.72067 0.58767 0.0
O171 O 0.89716 0.71294 0.77316 0.0
Zn172 Zn 0.75285 0.72163 0.78329 0.0
O173 O 0.69548 0.85092 0.76594 0.0
C174 C 0.73458 0.73369 0.96645 0.0
O175 O 0.75314 0.81754 0.9466 0.0
O176 O 0.68928 0.63405 0.70727 0.0
C177 C 0.73597 0.91314 0.72322 0.0
O178 O 0.81825 0.89532 0.68675 0.0
C179 C 0.96166 0.7277 0.71734 0.0
O180 O 0.93932 0.75408 0.63823 0.0
O181 O 0.72659 0.67745 0.90608 0.0
C182 C 0.82339 0.38331 0.14873 0.0
O183 O 0.73248 0.39392 0.13177 0.0
O184 O 0.62833 0.25086 0.20036 0.0
Zn185 Zn 0.76259 0.2307 0.24849 0.0
O186 O 0.80476 0.10683 0.20829 0.0
C187 C 0.73424 0.27313 0.44197 0.0
O188 O 0.67925 0.34386 0.42467 0.0
O189 O 0.85225 0.31956 0.1987 0.0
C190 C 0.78329 0.04289 0.25957 0.0
O191 O 0.74112 0.06198 0.33279 0.0
C192 C 0.56161 0.21787 0.24465 0.0
O193 O 0.58244 0.17871 0.31901 0.0
O194 O 0.77186 0.22774 0.38094 0.0
C195 C 0.61052 0.58188 0.58452 0.0
O196 O 0.57645 0.51384 0.62895 0.0
O197 O 0.50801 0.38319 0.50922 0.0
Zn198 Zn 0.48905 0.51121 0.45931 0.0
O199 O 0.35868 0.55076 0.50251 0.0
C200 C 0.53064 0.47937 0.26533 0.0
O201 O 0.59672 0.41777 0.28267 0.0
O202 O 0.58474 0.59506 0.50661 0.0
C203 C 0.29112 0.52749 0.45433 0.0
O204 O 0.31158 0.48863 0.381 0.0
C205 C 0.47463 0.31931 0.46612 0.0
O206 O 0.43791 0.33786 0.38986 0.0
O207 O 0.4871 0.51983 0.32644 0.0
loop_
_geom_bond_atom_site_label_1
_geom_bond_atom_site_label_2
_geom_bond_distance
_geom_bond_site_symmetry_2
_ccdc_geom_bond_type
C0 O1 1.160 . S
C0 O7 1.185 . S
O1 C0 1.160 . S
O2 Zn3 1.899 . S
O2 C10 1.284 . S
Zn3 O2 1.899 . S
Zn3 O4 2.032 . S
Zn3 O7 2.086 . S
Zn3 O12 1.977 . S
O4 Zn3 2.032 . S
O4 C8 1.278 . S
C5 O6 1.203 . S
C5 O12 1.267 . S
O6 C5 1.203 . S
O7 C0 1.185 . S
O7 Zn3 2.086 . S
C8 O4 1.278 . S
C8 O9 1.211 . S
O9 C8 1.211 . S
C10 O2 1.284 . S
C10 O11 1.273 . S
O11 C10 1.273 . S
O12 Zn3 1.977 . S
O12 C5 1.267 . S
C13 O14 1.160 1_455 S
C13 O20 1.185 . S
O14 C13 1.160 1_655 S
O15 Zn16 1.899 1_565 S
O15 C23 1.284 . S
Zn16 O15 1.899 1_545 S
Zn16 O17 2.032 1_645 S
Zn16 O20 2.086 1_645 S
Zn16 O25 1.977 1_655 S
O17 Zn16 2.032 1_465 S
O17 C21 1.278 1_455 S
C18 O19 1.203 . S
C18 O25 1.267 1_655 S
O19 C18 1.203 . S
O20 C13 1.185 . S
O20 Zn16 2.086 1_465 S
C21 O17 1.278 1_655 S
C21 O22 1.211 1_565 S
O22 C21 1.211 1_545 S
C23 O15 1.284 . S
C23 O24 1.273 . S
O24 C23 1.273 . S
O25 Zn16 1.977 1_455 S
O25 C18 1.267 1_455 S
C26 O27 1.160 . S
C26 O33 1.185 . S
O27 C26 1.160 . S
O28 Zn29 1.899 . S
O28 C36 1.284 . S
Zn29 O28 1.899 . S
Zn29 O30 2.032 . S
Zn29 O33 2.086 . S
Zn29 O38 1.977 . S
O30 Zn29 2.032 . S
O30 C34 1.278 . S
C31 O32 1.203 . S
C31 O38 1.267 . S
O32 C31 1.203 . S
O33 C26 1.185 . S
O33 Zn29 2.086 . S
C34 O30 1.278 . S
C34 O35 1.211 . S
O35 C34 1.211 . S
C36 O28 1.284 . S
C36 O37 1.273 . S
O37 C36 1.273 . S
O38 Zn29 1.977 . S
O38 C31 1.267 . S
C39 O40 1.160 . S
C39 O46 1.185 . S
O40 C39 1.160 . S
O41 Zn42 1.899 . S
O41 C49 1.284 . S
Zn42 O41 1.899 . S
Zn42 O43 2.032 1_566 S
Zn42 O46 2.086 1_565 S
Zn42 O51 1.977 . S
O43 Zn42 2.032 1_544 S
O43 C47 1.278 . S
C44 O45 1.203 . S
C44 O51 1.267 1_554 S
O45 C44 1.203 . S
O46 C39 1.185 . S
O46 Zn42 2.086 1_545 S
C47 O43 1.278 . S
C47 O48 1.211 1_545 S
O48 C47 1.211 1_565 S
C49 O41 1.284 . S
C49 O50 1.273 1_556 S
O50 C49 1.273 1_554 S
O51 Zn42 1.977 . S
O51 C44 1.267 1_556 S
C52 O53 1.160 . S
C52 O59 1.185 . S
O53 C52 1.160 . S
O54 Zn55 1.899 . S
O54 C62 1.284 . S
Zn55 O54 1.899 . S
Zn55 O56 2.032 . S
Zn55 O59 2.086 . S
Zn55 O64 1.977 . S
O56 Zn55 2.032 . S
O56 C60 1.278 . S
C57 O58 1.203 . S
C57 O64 1.267 . S
O58 C57 1.203 . S
O59 C52 1.185 . S
O59 Zn55 2.086 . S
C60 O56 1.278 . S
C60 O61 1.211 . S
O61 C60 1.211 . S
C62 O54 1.284 . S
C62 O63 1.273 . S
O63 C62 1.273 . S
O64 Zn55 1.977 . S
O64 C57 1.267 . S
C65 O66 1.160 . S
C65 O72 1.185 . S
O66 C65 1.160 . S
O67 Zn68 1.899 . S
O67 C75 1.284 . S
Zn68 O67 1.899 . S
Zn68 O69 2.032 1_545 S
Zn68 O72 2.086 1_545 S
Zn68 O77 1.977 1_545 S
O69 Zn68 2.032 1_565 S
O69 C73 1.278 1_565 S
C70 O71 1.203 . S
C70 O77 1.267 1_545 S
O71 C70 1.203 . S
O72 C65 1.185 . S
O72 Zn68 2.086 1_565 S
C73 O69 1.278 1_545 S
C73 O74 1.211 . S
O74 C73 1.211 . S
C75 O67 1.284 . S
C75 O76 1.273 . S
O76 C75 1.273 . S
O77 Zn68 1.977 1_565 S
O77 C70 1.267 1_565 S
C78 O79 1.160 . S
C78 O85 1.185 . S
O79 C78 1.160 . S
O80 Zn81 1.899 . S
O80 C88 1.284 . S
Zn81 O80 1.899 . S
Zn81 O82 2.032 . S
Zn81 O85 2.086 . S
Zn81 O90 1.977 . S
O82 Zn81 2.032 . S
O82 C86 1.278 . S
C83 O84 1.203 . S
C83 O90 1.267 . S
O84 C83 1.203 . S
O85 C78 1.185 . S
O85 Zn81 2.086 . S
C86 O82 1.278 . S
C86 O87 1.211 . S
O87 C86 1.211 . S
C88 O80 1.284 . S
C88 O89 1.273 . S
O89 C88 1.273 . S
O90 Zn81 1.977 . S
O90 C83 1.267 . S
C91 O92 1.160 . S
C91 O98 1.185 . S
O92 C91 1.160 . S
O93 Zn94 1.899 . S
O93 C101 1.284 . S
Zn94 O93 1.899 . S
Zn94 O95 2.032 1_466 S
Zn94 O98 2.086 1_566 S
Zn94 O103 1.977 1_565 S
O95 Zn94 2.032 1_644 S
O95 C99 1.278 1_544 S
C96 O97 1.203 . S
C96 O103 1.267 1_665 S
O97 C96 1.203 . S
O98 C91 1.185 . S
O98 Zn94 2.086 1_544 S
C99 O95 1.278 1_566 S
C99 O100 1.211 . S
O100 C99 1.211 . S
C101 O93 1.284 . S
C101 O102 1.273 1_455 S
O102 C101 1.273 1_655 S
O103 Zn94 1.977 1_545 S
O103 C96 1.267 1_445 S
C104 O105 1.160 . S
C104 O111 1.185 . S
O105 C104 1.160 . S
O106 Zn107 1.899 . S
O106 C114 1.284 . S
Zn107 O106 1.899 . S
Zn107 O108 2.032 . S
Zn107 O111 2.086 . S
Zn107 O116 1.977 . S
O108 Zn107 2.032 . S
O108 C112 1.278 . S
C109 O110 1.203 . S
C109 O116 1.267 . S
O110 C109 1.203 . S
O111 C104 1.185 . S
O111 Zn107 2.086 . S
C112 O108 1.278 . S
C112 O113 1.211 . S
O113 C112 1.211 . S
C114 O106 1.284 . S
C114 O115 1.273 . S
O115 C114 1.273 . S
O116 Zn107 1.977 . S
O116 C109 1.267 . S
C117 O118 1.160 . S
C117 O124 1.185 . S
O118 C117 1.160 . S
O119 Zn120 1.899 . S
O119 C127 1.284 . S
Zn120 O119 1.899 . S
Zn120 O121 2.032 1_656 S
Zn120 O124 2.086 1_556 S
Zn120 O129 1.977 . S
O121 Zn120 2.032 1_454 S
O121 C125 1.278 1_554 S
C122 O123 1.203 . S
C122 O129 1.267 1_455 S
O123 C122 1.203 . S
O124 C117 1.185 . S
O124 Zn120 2.086 1_554 S
C125 O121 1.278 1_556 S
C125 O126 1.211 . S
O126 C125 1.211 . S
C127 O119 1.284 . S
C127 O128 1.273 1_655 S
O128 C127 1.273 1_455 S
O129 Zn120 1.977 . S
O129 C122 1.267 1_655 S
C130 O131 1.160 . S
C130 O137 1.185 . S
O131 C130 1.160 . S
O132 Zn133 1.899 . S
O132 C140 1.284 . S
Zn133 O132 1.899 . S
Zn133 O134 2.032 . S
Zn133 O137 2.086 . S
Zn133 O142 1.977 . S
O134 Zn133 2.032 . S
O134 C138 1.278 . S
C135 O136 1.203 . S
C135 O142 1.267 . S
O136 C135 1.203 . S
O137 C130 1.185 . S
O137 Zn133 2.086 . S
C138 O134 1.278 . S
C138 O139 1.211 . S
O139 C138 1.211 . S
C140 O132 1.284 . S
C140 O141 1.273 . S
O141 C140 1.273 . S
O142 Zn133 1.977 . S
O142 C135 1.267 . S
C143 O144 1.160 . S
C143 O150 1.185 . S
O144 C143 1.160 . S
O145 Zn146 1.899 . S
O145 C153 1.284 . S
Zn146 O145 1.899 . S
Zn146 O147 2.032 1_455 S
Zn146 O150 2.086 1_455 S
Zn146 O155 1.977 1_455 S
O147 Zn146 2.032 1_655 S
O147 C151 1.278 1_655 S
C148 O149 1.211 . S
C148 O155 1.262 1_455 S
O149 C148 1.211 . S
O150 C143 1.185 . S
O150 Zn146 2.086 1_655 S
C151 O147 1.278 1_455 S
C151 O152 1.211 . S
O152 C151 1.211 . S
C153 O145 1.284 . S
C153 O154 1.273 . S
O154 C153 1.273 . S
O155 Zn146 1.977 1_655 S
O155 C148 1.262 1_655 S
C156 O157 1.160 . S
C156 O163 1.185 . S
O157 C156 1.160 . S
O158 Zn159 1.899 1_556 S
O158 C166 1.284 . S
Zn159 O158 1.899 1_554 S
Zn159 O160 2.032 . S
Zn159 O163 2.086 1_554 S
Zn159 O168 1.977 . S
O160 Zn159 2.032 . S
O160 C164 1.278 . S
C161 O162 1.203 . S
C161 O168 1.267 . S
O162 C161 1.203 . S
O163 C156 1.185 . S
O163 Zn159 2.086 1_556 S
C164 O160 1.278 . S
C164 O165 1.211 . S
O165 C164 1.211 . S
C166 O158 1.284 . S
C166 O167 1.273 1_556 S
O167 C166 1.273 1_554 S
O168 Zn159 1.977 . S
O168 C161 1.267 . S
C169 O170 1.160 . S
C169 O176 1.185 . S
O170 C169 1.160 . S
O171 Zn172 1.899 . S
O171 C179 1.284 . S
Zn172 O171 1.899 . S
Zn172 O173 2.032 . S
Zn172 O176 2.086 . S
Zn172 O181 1.977 . S
O173 Zn172 2.032 . S
O173 C177 1.278 . S
C174 O175 1.203 . S
C174 O181 1.267 . S
O175 C174 1.203 . S
O176 C169 1.185 . S
O176 Zn172 2.086 . S
C177 O173 1.278 . S
C177 O178 1.211 . S
O178 C177 1.211 . S
C179 O171 1.284 . S
C179 O180 1.273 . S
O180 C179 1.273 . S
O181 Zn172 1.977 . S
O181 C174 1.267 . S
C182 O183 1.160 . S
C182 O189 1.185 . S
O183 C182 1.160 . S
O184 Zn185 1.899 . S
O184 C192 1.284 . S
Zn185 O184 1.899 . S
Zn185 O186 2.032 . S
Zn185 O189 2.086 . S
Zn185 O194 1.977 . S
O186 Zn185 2.032 . S
O186 C190 1.278 . S
C187 O188 1.203 . S
C187 O194 1.267 . S
O188 C187 1.203 . S
O189 C182 1.185 . S
O189 Zn185 2.086 . S
C190 O186 1.278 . S
C190 O191 1.211 . S
O191 C190 1.211 . S
C192 O184 1.284 . S
C192 O193 1.273 . S
O193 C192 1.273 . S
O194 Zn185 1.977 . S
O194 C187 1.267 . S
C195 O196 1.160 . S
C195 O202 1.185 . S
O196 C195 1.160 . S
O197 Zn198 1.899 . S
O197 C205 1.284 . S
Zn198 O197 1.899 . S
Zn198 O199 2.032 . S
Zn198 O202 2.086 . S
Zn198 O207 1.977 . S
O199 Zn198 2.032 . S
O199 C203 1.278 . S
C200 O201 1.203 . S
C200 O207 1.267 . S
O201 C200 1.203 . S
O202 C195 1.185 . S
O202 Zn198 2.086 . S
C203 O199 1.278 . S
C203 O204 1.211 . S
O204 C203 1.211 . S
C205 O197 1.284 . S
C205 O206 1.273 . S
O206 C205 1.273 . S
O207 Zn198 1.977 . S
O207 C200 1.267 . S
C0 C91 1.637 . S
C13 C52 1.685 . S
C65 C26 1.576 . S
C39 C78 1.604 . S
C104 C156 1.685 . S
C117 C182 1.576 . S
C143 C130 1.604 . S
C195 C169 1.637 . S
C5 C88 1.145 . S
C96 C21 1.061 . S
C31 C57 1.132 1_556 S
C70 C47 1.130 . S
C10 C192 1.221 . S
C148 C18 1.056 1_455 S
C179 C36 1.221 1_655 S
C161 C44 1.056 . S
C138 C62 1.211 . S
C75 C205 1.262 . S
C86 C114 1.211 1_455 S
C101 C127 1.262 1_455 S
C8 C60 1.139 . S
C112 C177 1.139 1_545 S
C166 C125 1.159 . S
C190 C135 1.029 1_545 S
C99 C49 1.189 . S
C34 C83 1.029 . S
C153 C203 1.189 . S
C174 C140 1.145 1_556 S
C200 C164 1.062 . S
C187 C109 1.132 . S
C151 C122 1.130 . S
C23 C73 1.159 1_565 S
