# Generated by pormake.
# Topology wje, (4)-cn, num edge types: 1
# Building blocks:
#     Node 0, Type 0, BuildingBlock: QUQFOY_clean_sbu_3, # of connection points: 4
#     Node 1, Type 0, BuildingBlock: QUQFOY_clean_sbu_3, # of connection points: 4
#     Node 2, Type 0, BuildingBlock: QUQFOY_clean_sbu_3, # of connection points: 4
#     Node 3, Type 0, BuildingBlock: QUQFOY_clean_sbu_3, # of connection points: 4
#     Node 4, Type 0, BuildingBlock: QUQFOY_clean_sbu_3, # of connection points: 4
#     Node 5, Type 0, BuildingBlock: QUQFOY_clean_sbu_3, # of connection points: 4
#     Node 6, Type 0, BuildingBlock: QUQFOY_clean_sbu_3, # of connection points: 4
#     Node 7, Type 0, BuildingBlock: QUQFOY_clean_sbu_3, # of connection points: 4
#     Node 8, Type 0, BuildingBlock: QUQFOY_clean_sbu_3, # of connection points: 4
#     Node 9, Type 0, BuildingBlock: QUQFOY_clean_sbu_3, # of connection points: 4
#     Node 10, Type 0, BuildingBlock: QUQFOY_clean_sbu_3, # of connection points: 4
#     Node 11, Type 0, BuildingBlock: QUQFOY_clean_sbu_3, # of connection points: 4
#     Edge 12, Type (0, 0), None
#     Edge 13, Type (0, 0), None
#     Edge 14, Type (0, 0), None
#     Edge 15, Type (0, 0), None
#     Edge 16, Type (0, 0), None
#     Edge 17, Type (0, 0), None
#     Edge 18, Type (0, 0), None
#     Edge 19, Type (0, 0), None
#     Edge 20, Type (0, 0), None
#     Edge 21, Type (0, 0), None
#     Edge 22, Type (0, 0), None
#     Edge 23, Type (0, 0), None
#     Edge 24, Type (0, 0), None
#     Edge 25, Type (0, 0), None
#     Edge 26, Type (0, 0), None
#     Edge 27, Type (0, 0), None
#     Edge 28, Type (0, 0), None
#     Edge 29, Type (0, 0), None
#     Edge 30, Type (0, 0), None
#     Edge 31, Type (0, 0), None
#     Edge 32, Type (0, 0), None
#     Edge 33, Type (0, 0), None
#     Edge 34, Type (0, 0), None
#     Edge 35, Type (0, 0), None
# Relax obj value: 0.127
# Max RMSD: 0.092
# Mean RMSD: 0.092
data_MOF--net-wje--node1-QUQFOY_clean_sbu_3--edge1-none
_symmetry_space_group_name_H-M    P1
_symmetry_Int_Tables_number       1
_symmetry_cell_setting            triclinic
loop_
_symmetry_equiv_pos_as_xyz
'x, y, z'
_cell_length_a     20.254069
_cell_length_b     20.249446
_cell_length_c     16.418685
_cell_angle_alpha  89.908235
_cell_angle_beta   90.057605
_cell_angle_gamma 119.99715
loop_
_atom_site_label
_atom_site_type_symbol
_atom_site_fract_x
_atom_site_fract_y
_atom_site_fract_z
_atom_type_partial_charge
C0 C 0.1058 0.77437 0.3388 0.0
O1 O 0.13611 0.74129 0.30181 0.0
Cd2 Cd 0.26405 0.77498 0.33557 0.0
O3 O 0.1129 0.83421 0.30527 0.0
Cd4 Cd 0.24538 0.94504 0.29459 0.0
C5 C 0.29057 0.90408 0.48835 0.0
O6 O 0.30641 0.87606 0.24299 0.0
O7 O 0.3804 -0.00357 0.25538 0.0
O8 O 0.22558 0.01641 0.18431 0.0
C9 C 0.37364 0.93169 0.24214 0.0
O10 O 0.29499 0.84702 0.4627 0.0
C11 C 0.23462 0.07149 0.22925 0.0
O12 O 0.27198 0.94335 0.44233 0.0
O13 O 0.24706 0.06738 0.30457 0.0
C14 C 0.33195 0.19033 0.70714 0.0
O15 O 0.39597 0.25001 0.71843 0.0
Cd16 Cd 0.44179 0.3802 0.71047 0.0
O17 O 0.27353 0.19322 0.68226 0.0
Cd18 Cd 0.25791 0.30726 0.65224 0.0
C19 C 0.30904 0.35968 0.85128 0.0
O20 O 0.38011 0.37667 0.58863 0.0
O21 O 0.33223 0.44721 0.61382 0.0
O22 O 0.17119 0.26253 0.53394 0.0
C23 C 0.38651 0.44146 0.58293 0.0
O24 O 0.37878 0.38876 0.83176 0.0
C25 C 0.1192 0.27023 0.56826 0.0
O26 O 0.25561 0.32596 0.79952 0.0
O27 O 0.12951 0.29045 0.64246 0.0
C28 C 0.10974 0.30995 0.99748 0.0
O29 O 0.14448 0.37472 0.96315 0.0
Cd30 Cd 0.10885 0.46726 0.999 0.0
O31 O 0.0504 0.2591 0.96154 0.0
Cd32 Cd -0.06175 0.27873 0.95834 0.0
C33 C -0.01875 0.36328 0.1527 0.0
O34 O 0.00652 0.4091 0.90797 0.0
O35 O 0.88617 0.36237 0.92074 0.0
O36 O 0.86492 0.18807 0.84868 0.0
C37 C -0.04915 0.42063 0.90796 0.0
O38 O 0.03802 0.42503 0.12695 0.0
C39 C 0.81117 0.14126 0.89461 0.0
O40 O -0.05839 0.30583 0.10648 0.0
O41 O 0.81685 0.15723 0.97014 0.0
C42 C 0.69285 0.11743 0.37247 0.0
O43 O 0.63361 0.12242 0.3844 0.0
Cd44 Cd 0.50314 0.03912 0.3786 0.0
O45 O 0.68915 0.05565 0.34808 0.0
Cd46 Cd 0.57417 0.9262 0.31964 0.0
C47 C 0.52304 0.92575 0.51917 0.0
O48 O 0.505 -0.02008 0.25714 0.0
O49 O 0.43431 0.86119 0.28123 0.0
O50 O 0.61773 0.88358 0.20104 0.0
C51 C 0.44017 0.92168 0.25129 0.0
O52 O 0.49535 -0.03222 0.50003 0.0
C53 C 0.61011 0.82391 0.23555 0.0
O54 O 0.55539 0.90485 0.46703 0.0
O55 O 0.59041 0.81426 0.30993 0.0
C56 C 0.57472 0.77685 0.66716 0.0
O57 O 0.51049 0.74685 0.63175 0.0
Cd58 Cd 0.41663 0.61889 0.66672 0.0
O59 O 0.62619 0.7685 0.63252 0.0
Cd60 Cd 0.60482 0.63605 0.62574 0.0
C61 C 0.51951 0.59303 0.81997 0.0
O62 O 0.47467 0.57531 0.57495 0.0
O63 O 0.52107 0.5012 0.58545 0.0
O64 O 0.6967 0.65535 0.51672 0.0
C65 C 0.46296 0.50805 0.57343 0.0
O66 O 0.45819 0.58913 0.79446 0.0
C67 C 0.74221 0.6461 0.5625 0.0
O68 O 0.57682 0.61048 0.77363 0.0
O69 O 0.725 0.63372 0.63765 0.0
C70 C 0.76552 0.5527 1.04231 0.0
O71 O 0.7613 0.48882 0.05459 0.0
Cd72 Cd 0.84526 0.4425 0.04738 0.0
O73 O 0.82674 0.61094 1.01694 0.0
Cd74 Cd -0.04364 0.62612 0.98778 0.0
C75 C -0.04107 0.5758 0.1871 0.0
O76 O 0.90248 0.50344 0.92497 0.0
O77 O 0.02126 0.55139 0.94833 0.0
O78 O -0.00127 0.71267 0.86918 0.0
C79 C -0.03926 0.49701 0.9183 0.0
O80 O 0.91761 0.50604 0.16802 0.0
C81 C 0.0585 0.76457 0.90353 0.0
O82 O -0.02139 0.62907 0.13506 0.0
O83 O 0.06823 0.75433 0.97786 0.0
C84 C 0.10904 0.7758 0.42833 0.0
O85 O 0.14406 0.74588 0.4623 0.0
Cd86 Cd 0.10765 0.61743 0.42657 0.0
O87 O 0.0496 0.76695 0.46433 0.0
Cd88 Cd -0.06294 0.63544 0.46611 0.0
C89 C -0.01896 0.59457 0.27196 0.0
O90 O 0.00488 0.57311 0.51697 0.0
O91 O 0.8846 0.49957 0.5032 0.0
O92 O 0.86348 0.65263 0.57551 0.0
C93 C -0.05082 0.50592 0.51653 0.0
O94 O 0.03757 0.58937 0.29812 0.0
C95 C 0.80995 0.64598 0.52939 0.0
O96 O -0.05881 0.6123 0.31792 0.0
O97 O 0.81586 0.63595 0.45385 0.0
C98 C 0.33211 0.11891 0.71685 0.0
O99 O 0.39622 0.1235 0.70534 0.0
Cd100 Cd 0.44269 0.03966 0.71321 0.0
O101 O 0.27393 0.05754 0.74201 0.0
Cd102 Cd 0.25884 0.92812 0.77227 0.0
C103 C 0.30957 0.92638 0.57311 0.0
O104 O 0.38143 -0.01846 0.83519 0.0
O105 O 0.33339 0.86289 0.81115 0.0
O106 O 0.17237 0.88599 0.89076 0.0
C107 C 0.38789 0.92323 0.84132 0.0
O108 O 0.37935 -0.03236 0.59224 0.0
C109 C 0.12037 0.82627 0.85644 0.0
O110 O 0.25633 0.90645 0.62512 0.0
O111 O 0.13055 0.81644 0.78218 0.0
C112 C 0.10649 0.30846 0.08701 0.0
O113 O 0.1368 0.37206 0.12361 0.0
Cd114 Cd 0.26508 0.4655 0.08988 0.0
O115 O 0.11367 0.25587 0.12082 0.0
Cd116 Cd 0.2458 0.27646 0.12974 0.0
C117 C 0.29035 0.36282 0.93619 0.0
O118 O 0.30742 0.40628 0.18181 0.0
O119 O 0.38118 0.35978 0.16788 0.0
O120 O 0.22644 0.1855 0.24005 0.0
C121 C 0.37462 0.41777 0.18189 0.0
O122 O 0.29536 0.42443 0.96229 0.0
C123 C 0.23469 0.13904 0.19499 0.0
O124 O 0.27154 0.30472 0.9819 0.0
O125 O 0.24647 0.15524 0.11955 0.0
C126 C 0.76464 0.18879 0.38101 0.0
O127 O 0.76043 0.24844 0.3686 0.0
Cd128 Cd 0.84422 0.37876 0.37639 0.0
O129 O 0.82573 0.19179 0.40687 0.0
Cd130 Cd -0.04481 0.30622 0.43669 0.0
C131 C -0.0413 0.35973 0.23741 0.0
O132 O 0.90089 0.37478 0.49912 0.0
O133 O 0.01982 0.4457 0.47669 0.0
O134 O -0.00249 0.26209 0.55543 0.0
C135 C -0.04088 0.43945 0.50624 0.0
O136 O 0.91721 0.38805 0.2562 0.0
C137 C 0.0573 0.27 0.52113 0.0
O138 O -0.02186 0.32603 0.28958 0.0
O139 O 0.06703 0.28992 0.44679 0.0
C140 C 0.57498 0.77507 0.75673 0.0
O141 O 0.51091 0.74102 0.79243 0.0
Cd142 Cd 0.41737 0.77572 0.75807 0.0
O143 O 0.62673 0.83501 0.79096 0.0
Cd144 Cd 0.60585 0.9464 0.79791 0.0
C145 C 0.51987 0.9037 0.60408 0.0
O146 O 0.47601 0.87753 0.84956 0.0
O147 O 0.52242 -0.00204 0.83761 0.0
O148 O 0.69778 0.01874 0.90702 0.0
C149 C 0.46439 0.93315 0.85052 0.0
O150 O 0.45853 0.84659 0.63004 0.0
C151 C 0.74342 0.0735 0.86133 0.0
O152 O 0.57751 0.94356 0.65005 0.0
O153 O 0.7263 0.06876 0.78614 0.0
C154 C 0.69369 0.55222 0.05066 0.0
O155 O 0.63452 0.488 1.03838 0.0
Cd156 Cd 0.50396 0.44033 1.04438 0.0
O157 O 0.68989 0.6101 0.07557 0.0
Cd158 Cd 0.57471 0.62415 0.10431 0.0
C159 C 0.52297 0.5739 0.90472 0.0
O160 O 0.50591 0.50094 0.1662 0.0
O161 O 0.4351 0.54908 0.14347 0.0
O162 O 0.61795 0.71018 0.22311 0.0
C163 C 0.44112 0.49432 0.17271 0.0
O164 O 0.49571 0.50417 0.92347 0.0
C165 C 0.61022 0.76217 0.18862 0.0
O166 O 0.55524 0.627 0.95707 0.0
O167 O 0.5907 0.75221 0.11418 0.0
loop_
_geom_bond_atom_site_label_1
_geom_bond_atom_site_label_2
_geom_bond_distance
_geom_bond_site_symmetry_2
_ccdc_geom_bond_type
C0 O1 1.306 . S
C0 O3 1.160 . S
O1 C0 1.306 . S
O1 Cd2 2.228 . S
Cd2 O1 2.228 . S
Cd2 O6 2.273 . S
Cd2 O10 2.277 . S
O3 C0 1.160 . S
O3 Cd4 2.203 1_565 S
Cd4 O3 2.203 1_545 S
Cd4 O6 2.411 1_545 S
Cd4 O7 2.333 . S
Cd4 O8 2.352 . S
Cd4 O12 2.277 . S
Cd4 O13 2.356 . S
C5 O10 1.209 1_545 S
C5 O12 1.226 . S
O6 Cd2 2.273 . S
O6 Cd4 2.411 1_565 S
O6 C9 1.320 1_565 S
O7 Cd4 2.333 . S
O7 C9 1.214 . S
O8 Cd4 2.352 . S
O8 C11 1.258 . S
C9 O6 1.320 1_545 S
C9 O7 1.214 . S
O10 Cd2 2.277 . S
O10 C5 1.209 1_565 S
C11 O8 1.258 . S
C11 O13 1.282 . S
O12 Cd4 2.277 . S
O12 C5 1.226 . S
O13 Cd4 2.356 . S
O13 C11 1.282 . S
C14 O15 1.306 . S
C14 O17 1.160 . S
O15 C14 1.306 . S
O15 Cd16 2.228 . S
Cd16 O15 2.228 . S
Cd16 O20 2.273 . S
Cd16 O24 2.277 . S
O17 C14 1.160 . S
O17 Cd18 2.203 . S
Cd18 O17 2.203 . S
Cd18 O20 2.411 . S
Cd18 O21 2.333 . S
Cd18 O22 2.352 . S
Cd18 O26 2.277 . S
Cd18 O27 2.356 . S
C19 O24 1.209 . S
C19 O26 1.226 . S
O20 Cd16 2.273 . S
O20 Cd18 2.411 . S
O20 C23 1.320 . S
O21 Cd18 2.333 . S
O21 C23 1.214 . S
O22 Cd18 2.352 . S
O22 C25 1.258 . S
C23 O20 1.320 . S
C23 O21 1.214 . S
O24 Cd16 2.277 . S
O24 C19 1.209 . S
C25 O22 1.258 . S
C25 O27 1.282 . S
O26 Cd18 2.277 . S
O26 C19 1.226 . S
O27 Cd18 2.356 . S
O27 C25 1.282 . S
C28 O29 1.306 . S
C28 O31 1.160 . S
O29 C28 1.306 . S
O29 Cd30 2.228 1_556 S
Cd30 O29 2.228 1_554 S
Cd30 O34 2.273 1_554 S
Cd30 O38 2.277 . S
O31 C28 1.160 . S
O31 Cd32 2.203 1_455 S
Cd32 O31 2.203 1_655 S
Cd32 O34 2.411 1_655 S
Cd32 O35 2.333 . S
Cd32 O36 2.352 . S
Cd32 O40 2.277 1_556 S
Cd32 O41 2.356 . S
C33 O38 1.209 1_655 S
C33 O40 1.226 . S
O34 Cd30 2.273 1_556 S
O34 Cd32 2.411 1_455 S
O34 C37 1.320 1_455 S
O35 Cd32 2.333 . S
O35 C37 1.214 . S
O36 Cd32 2.352 . S
O36 C39 1.258 . S
C37 O34 1.320 1_655 S
C37 O35 1.214 . S
O38 Cd30 2.277 . S
O38 C33 1.209 1_455 S
C39 O36 1.258 . S
C39 O41 1.282 . S
O40 Cd32 2.277 1_554 S
O40 C33 1.226 . S
O41 Cd32 2.356 . S
O41 C39 1.282 . S
C42 O43 1.306 . S
C42 O45 1.160 . S
O43 C42 1.306 . S
O43 Cd44 2.228 . S
Cd44 O43 2.228 . S
Cd44 O48 2.273 . S
Cd44 O52 2.277 . S
O45 C42 1.160 . S
O45 Cd46 2.203 1_545 S
Cd46 O45 2.203 1_565 S
Cd46 O48 2.411 1_565 S
Cd46 O49 2.333 . S
Cd46 O50 2.352 . S
Cd46 O54 2.277 . S
Cd46 O55 2.356 . S
C47 O52 1.209 1_565 S
C47 O54 1.226 . S
O48 Cd44 2.273 . S
O48 Cd46 2.411 1_545 S
O48 C51 1.320 1_545 S
O49 Cd46 2.333 . S
O49 C51 1.214 . S
O50 Cd46 2.352 . S
O50 C53 1.258 . S
C51 O48 1.320 1_565 S
C51 O49 1.214 . S
O52 Cd44 2.277 . S
O52 C47 1.209 1_545 S
C53 O50 1.258 . S
C53 O55 1.282 . S
O54 Cd46 2.277 . S
O54 C47 1.226 . S
O55 Cd46 2.356 . S
O55 C53 1.282 . S
C56 O57 1.306 . S
C56 O59 1.160 . S
O57 C56 1.306 . S
O57 Cd58 2.228 . S
Cd58 O57 2.228 . S
Cd58 O62 2.273 . S
Cd58 O66 2.277 . S
O59 C56 1.160 . S
O59 Cd60 2.203 . S
Cd60 O59 2.203 . S
Cd60 O62 2.411 . S
Cd60 O63 2.333 . S
Cd60 O64 2.352 . S
Cd60 O68 2.277 . S
Cd60 O69 2.356 . S
C61 O66 1.209 . S
C61 O68 1.226 . S
O62 Cd58 2.273 . S
O62 Cd60 2.411 . S
O62 C65 1.320 . S
O63 Cd60 2.333 . S
O63 C65 1.214 . S
O64 Cd60 2.352 . S
O64 C67 1.258 . S
C65 O62 1.320 . S
C65 O63 1.214 . S
O66 Cd58 2.277 . S
O66 C61 1.209 . S
C67 O64 1.258 . S
C67 O69 1.282 . S
O68 Cd60 2.277 . S
O68 C61 1.226 . S
O69 Cd60 2.356 . S
O69 C67 1.282 . S
C70 O71 1.306 . S
C70 O73 1.160 . S
O71 C70 1.306 . S
O71 Cd72 2.228 1_556 S
Cd72 O71 2.228 1_554 S
Cd72 O76 2.273 1_554 S
Cd72 O80 2.277 . S
O73 C70 1.160 . S
O73 Cd74 2.203 1_655 S
Cd74 O73 2.203 1_455 S
Cd74 O76 2.411 1_455 S
Cd74 O77 2.333 . S
Cd74 O78 2.352 . S
Cd74 O82 2.277 1_556 S
Cd74 O83 2.356 . S
C75 O80 1.209 1_455 S
C75 O82 1.226 . S
O76 Cd72 2.273 1_556 S
O76 Cd74 2.411 1_655 S
O76 C79 1.320 1_655 S
O77 Cd74 2.333 . S
O77 C79 1.214 . S
O78 Cd74 2.352 . S
O78 C81 1.258 . S
C79 O76 1.320 1_455 S
C79 O77 1.214 . S
O80 Cd72 2.277 . S
O80 C75 1.209 1_655 S
C81 O78 1.258 . S
C81 O83 1.282 . S
O82 Cd74 2.277 1_554 S
O82 C75 1.226 . S
O83 Cd74 2.356 . S
O83 C81 1.282 . S
C84 O85 1.306 . S
C84 O87 1.160 . S
O85 C84 1.306 . S
O85 Cd86 2.228 . S
Cd86 O85 2.228 . S
Cd86 O90 2.273 . S
Cd86 O94 2.277 . S
O87 C84 1.160 . S
O87 Cd88 2.203 1_455 S
Cd88 O87 2.203 1_655 S
Cd88 O90 2.411 1_655 S
Cd88 O91 2.333 . S
Cd88 O92 2.352 . S
Cd88 O96 2.277 . S
Cd88 O97 2.356 . S
C89 O94 1.209 1_655 S
C89 O96 1.226 . S
O90 Cd86 2.273 . S
O90 Cd88 2.411 1_455 S
O90 C93 1.320 1_455 S
O91 Cd88 2.333 . S
O91 C93 1.214 . S
O92 Cd88 2.352 . S
O92 C95 1.258 . S
C93 O90 1.320 1_655 S
C93 O91 1.214 . S
O94 Cd86 2.277 . S
O94 C89 1.209 1_455 S
C95 O92 1.258 . S
C95 O97 1.282 . S
O96 Cd88 2.277 . S
O96 C89 1.226 . S
O97 Cd88 2.356 . S
O97 C95 1.282 . S
C98 O99 1.306 . S
C98 O101 1.160 . S
O99 C98 1.306 . S
O99 Cd100 2.228 . S
Cd100 O99 2.228 . S
Cd100 O104 2.273 . S
Cd100 O108 2.277 . S
O101 C98 1.160 . S
O101 Cd102 2.203 1_545 S
Cd102 O101 2.203 1_565 S
Cd102 O104 2.411 1_565 S
Cd102 O105 2.333 . S
Cd102 O106 2.352 . S
Cd102 O110 2.277 . S
Cd102 O111 2.356 . S
C103 O108 1.209 1_565 S
C103 O110 1.226 . S
O104 Cd100 2.273 . S
O104 Cd102 2.411 1_545 S
O104 C107 1.320 1_545 S
O105 Cd102 2.333 . S
O105 C107 1.214 . S
O106 Cd102 2.352 . S
O106 C109 1.258 . S
C107 O104 1.320 1_565 S
C107 O105 1.214 . S
O108 Cd100 2.277 . S
O108 C103 1.209 1_545 S
C109 O106 1.258 . S
C109 O111 1.282 . S
O110 Cd102 2.277 . S
O110 C103 1.226 . S
O111 Cd102 2.356 . S
O111 C109 1.282 . S
C112 O113 1.306 . S
C112 O115 1.160 . S
O113 C112 1.306 . S
O113 Cd114 2.228 1_554 S
Cd114 O113 2.228 1_556 S
Cd114 O118 2.273 1_556 S
Cd114 O122 2.277 . S
O115 C112 1.160 . S
O115 Cd116 2.203 . S
Cd116 O115 2.203 . S
Cd116 O118 2.411 . S
Cd116 O119 2.333 . S
Cd116 O120 2.352 . S
Cd116 O124 2.277 1_554 S
Cd116 O125 2.356 . S
C117 O122 1.209 . S
C117 O124 1.226 . S
O118 Cd114 2.273 1_554 S
O118 Cd116 2.411 . S
O118 C121 1.320 . S
O119 Cd116 2.333 . S
O119 C121 1.214 . S
O120 Cd116 2.352 . S
O120 C123 1.258 . S
C121 O118 1.320 . S
C121 O119 1.214 . S
O122 Cd114 2.277 . S
O122 C117 1.209 . S
C123 O120 1.258 . S
C123 O125 1.282 . S
O124 Cd116 2.277 1_556 S
O124 C117 1.226 . S
O125 Cd116 2.356 . S
O125 C123 1.282 . S
C126 O127 1.306 . S
C126 O129 1.160 . S
O127 C126 1.306 . S
O127 Cd128 2.228 . S
Cd128 O127 2.228 . S
Cd128 O132 2.273 . S
Cd128 O136 2.277 . S
O129 C126 1.160 . S
O129 Cd130 2.203 1_655 S
Cd130 O129 2.203 1_455 S
Cd130 O132 2.411 1_455 S
Cd130 O133 2.333 . S
Cd130 O134 2.352 . S
Cd130 O138 2.277 . S
Cd130 O139 2.356 . S
C131 O136 1.209 1_455 S
C131 O138 1.226 . S
O132 Cd128 2.273 . S
O132 Cd130 2.411 1_655 S
O132 C135 1.320 1_655 S
O133 Cd130 2.333 . S
O133 C135 1.214 . S
O134 Cd130 2.352 . S
O134 C137 1.258 . S
C135 O132 1.320 1_455 S
C135 O133 1.214 . S
O136 Cd128 2.277 . S
O136 C131 1.209 1_655 S
C137 O134 1.258 . S
C137 O139 1.282 . S
O138 Cd130 2.277 . S
O138 C131 1.226 . S
O139 Cd130 2.356 . S
O139 C137 1.282 . S
C140 O141 1.306 . S
C140 O143 1.160 . S
O141 C140 1.306 . S
O141 Cd142 2.228 . S
Cd142 O141 2.228 . S
Cd142 O146 2.273 . S
Cd142 O150 2.277 . S
O143 C140 1.160 . S
O143 Cd144 2.203 1_565 S
Cd144 O143 2.203 1_545 S
Cd144 O146 2.411 1_545 S
Cd144 O147 2.333 . S
Cd144 O148 2.352 . S
Cd144 O152 2.277 . S
Cd144 O153 2.356 . S
C145 O150 1.209 1_545 S
C145 O152 1.226 . S
O146 Cd142 2.273 . S
O146 Cd144 2.411 1_565 S
O146 C149 1.320 1_565 S
O147 Cd144 2.333 . S
O147 C149 1.214 . S
O148 Cd144 2.352 . S
O148 C151 1.258 . S
C149 O146 1.320 1_545 S
C149 O147 1.214 . S
O150 Cd142 2.277 . S
O150 C145 1.209 1_565 S
C151 O148 1.258 . S
C151 O153 1.282 . S
O152 Cd144 2.277 . S
O152 C145 1.226 . S
O153 Cd144 2.356 . S
O153 C151 1.282 . S
C154 O155 1.306 . S
C154 O157 1.160 . S
O155 C154 1.306 . S
O155 Cd156 2.228 1_554 S
Cd156 O155 2.228 1_556 S
Cd156 O160 2.273 1_556 S
Cd156 O164 2.277 . S
O157 C154 1.160 . S
O157 Cd158 2.203 . S
Cd158 O157 2.203 . S
Cd158 O160 2.411 . S
Cd158 O161 2.333 . S
Cd158 O162 2.352 . S
Cd158 O166 2.277 1_554 S
Cd158 O167 2.356 . S
C159 O164 1.209 . S
C159 O166 1.226 . S
O160 Cd156 2.273 1_554 S
O160 Cd158 2.411 . S
O160 C163 1.320 . S
O161 Cd158 2.333 . S
O161 C163 1.214 . S
O162 Cd158 2.352 . S
O162 C165 1.258 . S
C163 O160 1.320 . S
C163 O161 1.214 . S
O164 Cd156 2.277 . S
O164 C159 1.209 . S
C165 O162 1.258 . S
C165 O167 1.282 . S
O166 Cd158 2.277 1_556 S
O166 C159 1.226 . S
O167 Cd158 2.356 . S
O167 C165 1.282 . S
C11 C123 1.727 . S
C25 C137 1.727 . S
C151 C39 1.727 . S
C165 C53 1.727 . S
C95 C67 1.727 . S
C109 C81 1.727 . S
C9 C51 1.815 1_545 S
C65 C23 1.815 . S
C79 C37 1.815 1_455 S
C93 C135 1.815 1_655 S
C149 C107 1.815 1_545 S
C121 C163 1.815 . S
C84 C0 1.191 . S
C14 C98 1.191 . S
C112 C28 1.191 1_554 S
C126 C42 1.191 . S
C56 C140 1.191 . S
C154 C70 1.191 1_554 S
C5 C103 1.295 1_545 S
C117 C19 1.295 . S
C131 C33 1.295 1_455 S
C47 C145 1.295 1_565 S
C159 C61 1.295 . S
C89 C75 1.295 1_655 S
