# Generated by pormake.
# Topology vby, (6)-cn, num edge types: 1
# Building blocks:
#     Node 0, Type 0, BuildingBlock: VOLQOD_clean_sbu_1, # of connection points: 6
#     Node 1, Type 0, BuildingBlock: VOLQOD_clean_sbu_1, # of connection points: 6
#     Node 2, Type 0, BuildingBlock: VOLQOD_clean_sbu_1, # of connection points: 6
#     Node 3, Type 0, BuildingBlock: VOLQOD_clean_sbu_1, # of connection points: 6
#     Node 4, Type 0, BuildingBlock: VOLQOD_clean_sbu_1, # of connection points: 6
#     Node 5, Type 0, BuildingBlock: VOLQOD_clean_sbu_1, # of connection points: 6
#     Node 6, Type 0, BuildingBlock: VOLQOD_clean_sbu_1, # of connection points: 6
#     Node 7, Type 0, BuildingBlock: VOLQOD_clean_sbu_1, # of connection points: 6
#     Edge 8, Type (0, 0), None
#     Edge 9, Type (0, 0), None
#     Edge 10, Type (0, 0), None
#     Edge 11, Type (0, 0), None
#     Edge 12, Type (0, 0), None
#     Edge 13, Type (0, 0), None
#     Edge 14, Type (0, 0), None
#     Edge 15, Type (0, 0), None
#     Edge 16, Type (0, 0), None
#     Edge 17, Type (0, 0), None
#     Edge 18, Type (0, 0), None
#     Edge 19, Type (0, 0), None
#     Edge 20, Type (0, 0), None
#     Edge 21, Type (0, 0), None
#     Edge 22, Type (0, 0), None
#     Edge 23, Type (0, 0), None
#     Edge 24, Type (0, 0), None
#     Edge 25, Type (0, 0), None
#     Edge 26, Type (0, 0), None
#     Edge 27, Type (0, 0), None
#     Edge 28, Type (0, 0), None
#     Edge 29, Type (0, 0), None
#     Edge 30, Type (0, 0), None
#     Edge 31, Type (0, 0), None
# Relax obj value: 0.085
# Max RMSD: 0.108
# Mean RMSD: 0.108
data_MOF--net-vby--node1-VOLQOD_clean_sbu_1--edge1-none
_symmetry_space_group_name_H-M    P1
_symmetry_Int_Tables_number       1
_symmetry_cell_setting            triclinic
loop_
_symmetry_equiv_pos_as_xyz
'x, y, z'
_cell_length_a     8.5040011
_cell_length_b     33.944079
_cell_length_c     17.446501
_cell_angle_alpha  89.989172
_cell_angle_beta   90.0
_cell_angle_gamma 89.999227
loop_
_atom_site_label
_atom_site_type_symbol
_atom_site_fract_x
_atom_site_fract_y
_atom_site_fract_z
_atom_type_partial_charge
O0 O 0.3989 0.36347 0.92593 0.0
Zn1 Zn 0.16327 0.37852 0.91998 0.0
O2 O 0.06503 0.34449 -0.00671 0.0
Zn3 Zn 0.95446 0.30171 0.94323 0.0
Zn4 Zn 0.21108 0.32463 0.06828 0.0
Zn5 Zn 0.92403 0.37564 0.052 0.0
O6 O 0.71469 0.31117 0.96557 0.0
O7 O 0.72182 0.37369 0.00374 0.0
O8 O 0.08425 0.36573 0.81447 0.0
O9 O 0.96401 0.308 0.82823 0.0
O10 O 0.07776 0.24902 0.96658 0.0
O11 O 0.26064 0.2688 0.04931 0.0
O12 O 0.14153 0.33281 0.17856 0.0
O13 O 0.09065 0.43638 0.93835 0.0
O14 O 0.90297 0.35775 0.16068 0.0
O15 O 0.964 0.43247 0.04955 0.0
C16 C 0.47824 0.34875 -0.0185 0.0
C17 C 0.64795 0.34484 0.97634 0.0
C18 C 0.20434 0.24281 0.0053 0.0
C19 C 0.01164 0.33631 0.78656 0.0
C20 C 0.00801 0.34355 0.20437 0.0
C21 C 0.01069 0.45225 -0.00758 0.0
O22 O 0.41979 0.34485 0.04798 0.0
O23 O 0.58839 0.5834 0.92595 0.0
Zn24 Zn 0.82402 0.56834 0.92001 0.0
O25 O 0.92228 0.60235 -0.00669 0.0
Zn26 Zn 0.03284 0.64514 0.94322 0.0
Zn27 Zn 0.77622 0.62221 0.06828 0.0
Zn28 Zn 0.06327 0.5712 0.05204 0.0
O29 O 0.27261 0.63568 0.96556 0.0
O30 O 0.26549 0.57316 0.0038 0.0
O31 O 0.90304 0.58113 0.8145 0.0
O32 O 0.02328 0.63885 0.82822 0.0
O33 O 0.90955 0.69783 0.96657 0.0
O34 O 0.72665 0.67804 0.04929 0.0
O35 O 0.84578 0.61404 0.17857 0.0
O36 O 0.89664 0.51048 0.93838 0.0
O37 O 0.0843 0.58908 0.16071 0.0
O38 O 0.02335 0.51436 0.04956 0.0
C39 C 0.50906 0.5981 -0.01847 0.0
C40 C 0.33935 0.60201 0.97637 0.0
C41 C 0.78297 0.70403 0.0053 0.0
C42 C 0.97566 0.61055 0.78657 0.0
C43 C 0.97929 0.6033 0.20439 0.0
C44 C 0.97665 0.4946 -0.00758 0.0
O45 O 0.56753 0.60198 0.04801 0.0
O46 O 0.39894 0.58338 0.56539 0.0
Zn47 Zn 0.16329 0.56833 0.57135 0.0
O48 O 0.06507 0.60236 0.49804 0.0
Zn49 Zn 0.95448 0.64514 0.5481 0.0
Zn50 Zn 0.21111 0.62222 0.42305 0.0
Zn51 Zn 0.92407 0.57122 0.43933 0.0
O52 O 0.71472 0.63568 0.52575 0.0
O53 O 0.72187 0.57316 0.48761 0.0
O54 O 0.0843 0.58112 0.67686 0.0
O55 O 0.96404 0.63885 0.66309 0.0
O56 O 0.07777 0.69783 0.52475 0.0
O57 O 0.26064 0.67806 0.44201 0.0
O58 O 0.14156 0.61404 0.31277 0.0
O59 O 0.09064 0.51047 0.55298 0.0
O60 O 0.90297 0.58912 0.33066 0.0
O61 O 0.96407 0.51438 0.44176 0.0
C62 C 0.47828 0.5981 0.50983 0.0
C63 C 0.64799 0.60201 0.51499 0.0
C64 C 0.20434 0.70404 0.48602 0.0
C65 C 0.0117 0.61055 0.70477 0.0
C66 C 0.00801 0.60331 0.28696 0.0
C67 C 0.01071 0.4946 0.4989 0.0
O68 O 0.41983 0.60201 0.44335 0.0
O69 O 0.58836 0.36347 0.56537 0.0
Zn70 Zn 0.82399 0.37852 0.57132 0.0
O71 O 0.92224 0.3445 0.49802 0.0
Zn72 Zn 0.03282 0.30171 0.5481 0.0
Zn73 Zn 0.77619 0.32465 0.42305 0.0
Zn74 Zn 0.06323 0.37566 0.4393 0.0
O75 O 0.27258 0.31118 0.52576 0.0
O76 O 0.26544 0.3737 0.48755 0.0
O77 O 0.90299 0.36573 0.67683 0.0
O78 O 0.02325 0.308 0.6631 0.0
O79 O 0.90953 0.24903 0.52475 0.0
O80 O 0.72665 0.26881 0.44202 0.0
O81 O 0.84575 0.33282 0.31276 0.0
O82 O 0.89665 0.43638 0.55295 0.0
O83 O 0.08429 0.35777 0.33062 0.0
O84 O 0.02328 0.43249 0.44175 0.0
C85 C 0.50902 0.34876 0.5098 0.0
C86 C 0.33931 0.34485 0.51497 0.0
C87 C 0.78297 0.24282 0.48603 0.0
C88 C 0.9756 0.33631 0.70476 0.0
C89 C 0.97928 0.34355 0.28695 0.0
C90 C 0.97663 0.45226 0.49889 0.0
O91 O 0.56748 0.34486 0.44333 0.0
O92 O 0.8989 0.86346 0.92593 0.0
Zn93 Zn 0.66327 0.87851 0.91998 0.0
O94 O 0.56503 0.84449 -0.00671 0.0
Zn95 Zn 0.45446 0.80171 0.94323 0.0
Zn96 Zn 0.71108 0.82463 0.06828 0.0
Zn97 Zn 0.42403 0.87564 0.052 0.0
O98 O 0.21469 0.81117 0.96557 0.0
O99 O 0.22182 0.87369 0.00375 0.0
O100 O 0.58425 0.86573 0.81447 0.0
O101 O 0.46402 0.808 0.82823 0.0
O102 O 0.57777 0.74902 0.96658 0.0
O103 O 0.76065 0.7688 0.04931 0.0
O104 O 0.64153 0.83281 0.17856 0.0
O105 O 0.59065 0.93638 0.93835 0.0
O106 O 0.40297 0.85775 0.16068 0.0
O107 O 0.464 0.93247 0.04955 0.0
C108 C 0.97824 0.84875 -0.0185 0.0
C109 C 0.14795 0.84484 0.97634 0.0
C110 C 0.70435 0.74282 0.0053 0.0
C111 C 0.51164 0.83631 0.78656 0.0
C112 C 0.50801 0.84355 0.20437 0.0
C113 C 0.51069 0.95225 -0.00758 0.0
O114 O 0.91978 0.84485 0.04799 0.0
O115 O 0.0884 0.0834 0.92595 0.0
Zn116 Zn 0.32402 0.06834 0.92001 0.0
O117 O 0.42229 0.10235 -0.00669 0.0
Zn118 Zn 0.53284 0.14514 0.94322 0.0
Zn119 Zn 0.27622 0.12221 0.06828 0.0
Zn120 Zn 0.56327 0.0712 0.05204 0.0
O121 O 0.77261 0.13568 0.96556 0.0
O122 O 0.76549 0.07317 0.00381 0.0
O123 O 0.40304 0.08113 0.8145 0.0
O124 O 0.52328 0.13886 0.82822 0.0
O125 O 0.40954 0.19783 0.96658 0.0
O126 O 0.22664 0.17804 0.04929 0.0
O127 O 0.34578 0.11404 0.17857 0.0
O128 O 0.39664 0.01048 0.93838 0.0
O129 O 0.5843 0.08908 0.16071 0.0
O130 O 0.52335 0.01436 0.04956 0.0
C131 C 0.00907 0.0981 -0.01847 0.0
C132 C 0.83936 0.10201 0.97637 0.0
C133 C 0.28296 0.20403 0.00529 0.0
C134 C 0.47566 0.11055 0.78657 0.0
C135 C 0.47929 0.1033 0.20439 0.0
C136 C 0.47665 -0.0054 -0.00758 0.0
O137 O 0.06753 0.10198 0.04801 0.0
O138 O 0.89894 0.08338 0.5654 0.0
Zn139 Zn 0.66329 0.06833 0.57135 0.0
O140 O 0.56507 0.10236 0.49804 0.0
Zn141 Zn 0.45448 0.14514 0.5481 0.0
Zn142 Zn 0.71111 0.12222 0.42305 0.0
Zn143 Zn 0.42406 0.07122 0.43933 0.0
O144 O 0.21472 0.13568 0.52575 0.0
O145 O 0.22187 0.07316 0.48761 0.0
O146 O 0.58429 0.08112 0.67686 0.0
O147 O 0.46405 0.13885 0.66309 0.0
O148 O 0.57778 0.19783 0.52475 0.0
O149 O 0.76065 0.17806 0.44201 0.0
O150 O 0.64156 0.11404 0.31277 0.0
O151 O 0.59064 0.01047 0.55298 0.0
O152 O 0.40297 0.08911 0.33066 0.0
O153 O 0.46407 0.01438 0.44176 0.0
C154 C 0.97828 0.0981 0.50983 0.0
C155 C 0.14799 0.10201 0.51499 0.0
C156 C 0.70436 0.20404 0.48603 0.0
C157 C 0.5117 0.11055 0.70477 0.0
C158 C 0.50801 0.10331 0.28696 0.0
C159 C 0.5107 -0.0054 0.4989 0.0
O160 O 0.91983 0.10201 0.44335 0.0
O161 O 0.08836 0.86347 0.56537 0.0
Zn162 Zn 0.32399 0.87852 0.57132 0.0
O163 O 0.42224 0.8445 0.49802 0.0
Zn164 Zn 0.53281 0.80171 0.5481 0.0
Zn165 Zn 0.27619 0.82465 0.42305 0.0
Zn166 Zn 0.56323 0.87566 0.4393 0.0
O167 O 0.77258 0.81118 0.52576 0.0
O168 O 0.76544 0.8737 0.48755 0.0
O169 O 0.40299 0.86573 0.67683 0.0
O170 O 0.52325 0.808 0.6631 0.0
O171 O 0.40953 0.74903 0.52475 0.0
O172 O 0.22664 0.76882 0.44202 0.0
O173 O 0.34575 0.83282 0.31276 0.0
O174 O 0.39665 0.93638 0.55295 0.0
O175 O 0.58429 0.85777 0.33063 0.0
O176 O 0.52328 0.93249 0.44175 0.0
C177 C 0.00902 0.84876 0.5098 0.0
C178 C 0.83931 0.84485 0.51497 0.0
C179 C 0.28295 0.74283 0.48603 0.0
C180 C 0.4756 0.83631 0.70476 0.0
C181 C 0.47928 0.84355 0.28695 0.0
C182 C 0.47663 0.95226 0.4989 0.0
O183 O 0.06748 0.84487 0.44333 0.0
loop_
_geom_bond_atom_site_label_1
_geom_bond_atom_site_label_2
_geom_bond_distance
_geom_bond_site_symmetry_2
_ccdc_geom_bond_type
O0 Zn1 1.953 . S
O0 C16 1.225 1_556 S
Zn1 O0 1.953 . S
Zn1 O2 1.949 1_556 S
Zn1 O8 1.919 . S
Zn1 O13 1.924 . S
O2 Zn1 1.949 1_554 S
O2 Zn3 1.923 1_454 S
O2 Zn4 1.950 . S
O2 Zn5 1.945 1_455 S
Zn3 O2 1.923 1_656 S
Zn3 O6 1.933 . S
Zn3 O9 1.941 . S
Zn3 O10 1.965 1_655 S
Zn4 O2 1.950 . S
Zn4 O11 1.938 . S
Zn4 O12 1.906 . S
Zn4 O22 1.953 . S
Zn5 O2 1.945 1_655 S
Zn5 O7 1.932 . S
Zn5 O14 1.977 . S
Zn5 O15 1.910 . S
O6 Zn3 1.933 . S
O6 C17 1.226 1_556 S
O7 Zn5 1.932 . S
O7 C17 1.307 . S
O8 Zn1 1.919 . S
O8 C19 1.253 . S
O9 Zn3 1.941 . S
O9 C19 1.283 1_655 S
O10 Zn3 1.965 1_455 S
O10 C18 1.303 1_556 S
O11 Zn4 1.938 . S
O11 C18 1.247 . S
O12 Zn4 1.906 . S
O12 C20 1.304 . S
O13 Zn1 1.924 . S
O13 C21 1.311 1_556 S
O14 Zn5 1.977 . S
O14 C20 1.272 1_655 S
O15 Zn5 1.910 . S
O15 C21 1.231 1_655 S
C16 O0 1.225 1_554 S
C16 O22 1.298 . S
C17 O6 1.226 1_554 S
C17 O7 1.307 . S
C18 O10 1.303 1_554 S
C18 O11 1.247 . S
C19 O8 1.253 . S
C19 O9 1.283 1_455 S
C20 O12 1.304 . S
C20 O14 1.272 1_455 S
C21 O13 1.311 1_554 S
C21 O15 1.231 1_455 S
O22 Zn4 1.953 . S
O22 C16 1.298 . S
O23 Zn24 1.953 . S
O23 C39 1.225 1_556 S
Zn24 O23 1.953 . S
Zn24 O25 1.949 1_556 S
Zn24 O31 1.919 . S
Zn24 O36 1.924 . S
O25 Zn24 1.949 1_554 S
O25 Zn26 1.923 1_654 S
O25 Zn27 1.950 . S
O25 Zn28 1.945 1_655 S
Zn26 O25 1.923 1_456 S
Zn26 O29 1.933 . S
Zn26 O32 1.941 . S
Zn26 O33 1.965 1_455 S
Zn27 O25 1.950 . S
Zn27 O34 1.938 . S
Zn27 O35 1.906 . S
Zn27 O45 1.953 . S
Zn28 O25 1.945 1_455 S
Zn28 O30 1.932 . S
Zn28 O37 1.977 . S
Zn28 O38 1.910 . S
O29 Zn26 1.933 . S
O29 C40 1.226 1_556 S
O30 Zn28 1.932 . S
O30 C40 1.307 . S
O31 Zn24 1.919 . S
O31 C42 1.253 . S
O32 Zn26 1.941 . S
O32 C42 1.283 1_455 S
O33 Zn26 1.965 1_655 S
O33 C41 1.303 1_556 S
O34 Zn27 1.938 . S
O34 C41 1.247 . S
O35 Zn27 1.906 . S
O35 C43 1.304 . S
O36 Zn24 1.924 . S
O36 C44 1.311 1_556 S
O37 Zn28 1.977 . S
O37 C43 1.272 1_455 S
O38 Zn28 1.910 . S
O38 C44 1.231 1_455 S
C39 O23 1.225 1_554 S
C39 O45 1.298 . S
C40 O29 1.226 1_554 S
C40 O30 1.307 . S
C41 O33 1.303 1_554 S
C41 O34 1.247 . S
C42 O31 1.253 . S
C42 O32 1.283 1_655 S
C43 O35 1.304 . S
C43 O37 1.272 1_655 S
C44 O36 1.311 1_554 S
C44 O38 1.231 1_655 S
O45 Zn27 1.953 . S
O45 C39 1.298 . S
O46 Zn47 1.953 . S
O46 C62 1.225 . S
Zn47 O46 1.953 . S
Zn47 O48 1.949 . S
Zn47 O54 1.919 . S
Zn47 O59 1.924 . S
O48 Zn47 1.949 . S
O48 Zn49 1.923 1_455 S
O48 Zn50 1.950 . S
O48 Zn51 1.945 1_455 S
Zn49 O48 1.923 1_655 S
Zn49 O52 1.933 . S
Zn49 O55 1.941 . S
Zn49 O56 1.965 1_655 S
Zn50 O48 1.950 . S
Zn50 O57 1.938 . S
Zn50 O58 1.906 . S
Zn50 O68 1.953 . S
Zn51 O48 1.945 1_655 S
Zn51 O53 1.932 . S
Zn51 O60 1.977 . S
Zn51 O61 1.910 . S
O52 Zn49 1.933 . S
O52 C63 1.226 . S
O53 Zn51 1.932 . S
O53 C63 1.307 . S
O54 Zn47 1.919 . S
O54 C65 1.253 . S
O55 Zn49 1.941 . S
O55 C65 1.283 1_655 S
O56 Zn49 1.965 1_455 S
O56 C64 1.303 . S
O57 Zn50 1.938 . S
O57 C64 1.247 . S
O58 Zn50 1.906 . S
O58 C66 1.304 . S
O59 Zn47 1.924 . S
O59 C67 1.311 . S
O60 Zn51 1.977 . S
O60 C66 1.272 1_655 S
O61 Zn51 1.910 . S
O61 C67 1.231 1_655 S
C62 O46 1.225 . S
C62 O68 1.298 . S
C63 O52 1.226 . S
C63 O53 1.307 . S
C64 O56 1.303 . S
C64 O57 1.247 . S
C65 O54 1.253 . S
C65 O55 1.283 1_455 S
C66 O58 1.304 . S
C66 O60 1.272 1_455 S
C67 O59 1.311 . S
C67 O61 1.231 1_455 S
O68 Zn50 1.953 . S
O68 C62 1.298 . S
O69 Zn70 1.953 . S
O69 C85 1.225 . S
Zn70 O69 1.953 . S
Zn70 O71 1.949 . S
Zn70 O77 1.919 . S
Zn70 O82 1.924 . S
O71 Zn70 1.949 . S
O71 Zn72 1.923 1_655 S
O71 Zn73 1.950 . S
O71 Zn74 1.945 1_655 S
Zn72 O71 1.923 1_455 S
Zn72 O75 1.933 . S
Zn72 O78 1.941 . S
Zn72 O79 1.965 1_455 S
Zn73 O71 1.950 . S
Zn73 O80 1.938 . S
Zn73 O81 1.906 . S
Zn73 O91 1.953 . S
Zn74 O71 1.945 1_455 S
Zn74 O76 1.932 . S
Zn74 O83 1.977 . S
Zn74 O84 1.910 . S
O75 Zn72 1.933 . S
O75 C86 1.226 . S
O76 Zn74 1.932 . S
O76 C86 1.307 . S
O77 Zn70 1.919 . S
O77 C88 1.253 . S
O78 Zn72 1.941 . S
O78 C88 1.283 1_455 S
O79 Zn72 1.965 1_655 S
O79 C87 1.303 . S
O80 Zn73 1.938 . S
O80 C87 1.247 . S
O81 Zn73 1.906 . S
O81 C89 1.304 . S
O82 Zn70 1.924 . S
O82 C90 1.311 . S
O83 Zn74 1.977 . S
O83 C89 1.272 1_455 S
O84 Zn74 1.910 . S
O84 C90 1.231 1_455 S
C85 O69 1.225 . S
C85 O91 1.298 . S
C86 O75 1.226 . S
C86 O76 1.307 . S
C87 O79 1.303 . S
C87 O80 1.247 . S
C88 O77 1.253 . S
C88 O78 1.283 1_655 S
C89 O81 1.304 . S
C89 O83 1.272 1_655 S
C90 O82 1.311 . S
C90 O84 1.231 1_655 S
O91 Zn73 1.953 . S
O91 C85 1.298 . S
O92 Zn93 1.953 . S
O92 C108 1.225 1_556 S
Zn93 O92 1.953 . S
Zn93 O94 1.949 1_556 S
Zn93 O100 1.919 . S
Zn93 O105 1.924 . S
O94 Zn93 1.949 1_554 S
O94 Zn95 1.923 1_554 S
O94 Zn96 1.950 . S
O94 Zn97 1.945 . S
Zn95 O94 1.923 1_556 S
Zn95 O98 1.933 . S
Zn95 O101 1.941 . S
Zn95 O102 1.965 . S
Zn96 O94 1.950 . S
Zn96 O103 1.938 . S
Zn96 O104 1.906 . S
Zn96 O114 1.953 . S
Zn97 O94 1.945 . S
Zn97 O99 1.932 . S
Zn97 O106 1.977 . S
Zn97 O107 1.910 . S
O98 Zn95 1.933 . S
O98 C109 1.226 1_556 S
O99 Zn97 1.932 . S
O99 C109 1.307 . S
O100 Zn93 1.919 . S
O100 C111 1.253 . S
O101 Zn95 1.941 . S
O101 C111 1.283 . S
O102 Zn95 1.965 . S
O102 C110 1.303 1_556 S
O103 Zn96 1.938 . S
O103 C110 1.247 . S
O104 Zn96 1.906 . S
O104 C112 1.304 . S
O105 Zn93 1.924 . S
O105 C113 1.311 1_556 S
O106 Zn97 1.977 . S
O106 C112 1.272 . S
O107 Zn97 1.910 . S
O107 C113 1.231 . S
C108 O92 1.225 1_554 S
C108 O114 1.298 . S
C109 O98 1.226 1_554 S
C109 O99 1.307 . S
C110 O102 1.303 1_554 S
C110 O103 1.247 . S
C111 O100 1.253 . S
C111 O101 1.283 . S
C112 O104 1.304 . S
C112 O106 1.272 . S
C113 O105 1.311 1_554 S
C113 O107 1.231 . S
O114 Zn96 1.953 . S
O114 C108 1.298 . S
O115 Zn116 1.953 . S
O115 C131 1.225 1_556 S
Zn116 O115 1.953 . S
Zn116 O117 1.949 1_556 S
Zn116 O123 1.919 . S
Zn116 O128 1.924 . S
O117 Zn116 1.949 1_554 S
O117 Zn118 1.923 1_554 S
O117 Zn119 1.950 . S
O117 Zn120 1.945 . S
Zn118 O117 1.923 1_556 S
Zn118 O121 1.933 . S
Zn118 O124 1.941 . S
Zn118 O125 1.965 . S
Zn119 O117 1.950 . S
Zn119 O126 1.938 . S
Zn119 O127 1.906 . S
Zn119 O137 1.953 . S
Zn120 O117 1.945 . S
Zn120 O122 1.932 . S
Zn120 O129 1.977 . S
Zn120 O130 1.910 . S
O121 Zn118 1.933 . S
O121 C132 1.226 1_556 S
O122 Zn120 1.932 . S
O122 C132 1.307 . S
O123 Zn116 1.919 . S
O123 C134 1.253 . S
O124 Zn118 1.941 . S
O124 C134 1.283 . S
O125 Zn118 1.965 . S
O125 C133 1.303 1_556 S
O126 Zn119 1.938 . S
O126 C133 1.247 . S
O127 Zn119 1.906 . S
O127 C135 1.304 . S
O128 Zn116 1.924 . S
O128 C136 1.311 1_556 S
O129 Zn120 1.977 . S
O129 C135 1.272 . S
O130 Zn120 1.910 . S
O130 C136 1.231 . S
C131 O115 1.225 1_554 S
C131 O137 1.298 . S
C132 O121 1.226 1_554 S
C132 O122 1.307 . S
C133 O125 1.303 1_554 S
C133 O126 1.247 . S
C134 O123 1.253 . S
C134 O124 1.283 . S
C135 O127 1.304 . S
C135 O129 1.272 . S
C136 O128 1.311 1_554 S
C136 O130 1.231 . S
O137 Zn119 1.953 . S
O137 C131 1.298 . S
O138 Zn139 1.953 . S
O138 C154 1.225 . S
Zn139 O138 1.953 . S
Zn139 O140 1.949 . S
Zn139 O146 1.919 . S
Zn139 O151 1.924 . S
O140 Zn139 1.949 . S
O140 Zn141 1.923 . S
O140 Zn142 1.950 . S
O140 Zn143 1.945 . S
Zn141 O140 1.923 . S
Zn141 O144 1.933 . S
Zn141 O147 1.941 . S
Zn141 O148 1.965 . S
Zn142 O140 1.950 . S
Zn142 O149 1.938 . S
Zn142 O150 1.906 . S
Zn142 O160 1.953 . S
Zn143 O140 1.945 . S
Zn143 O145 1.932 . S
Zn143 O152 1.977 . S
Zn143 O153 1.910 . S
O144 Zn141 1.933 . S
O144 C155 1.226 . S
O145 Zn143 1.932 . S
O145 C155 1.307 . S
O146 Zn139 1.919 . S
O146 C157 1.253 . S
O147 Zn141 1.941 . S
O147 C157 1.283 . S
O148 Zn141 1.965 . S
O148 C156 1.303 . S
O149 Zn142 1.938 . S
O149 C156 1.247 . S
O150 Zn142 1.906 . S
O150 C158 1.304 . S
O151 Zn139 1.924 . S
O151 C159 1.311 . S
O152 Zn143 1.977 . S
O152 C158 1.272 . S
O153 Zn143 1.910 . S
O153 C159 1.231 . S
C154 O138 1.225 . S
C154 O160 1.298 . S
C155 O144 1.226 . S
C155 O145 1.307 . S
C156 O148 1.303 . S
C156 O149 1.247 . S
C157 O146 1.253 . S
C157 O147 1.283 . S
C158 O150 1.304 . S
C158 O152 1.272 . S
C159 O151 1.311 . S
C159 O153 1.231 . S
O160 Zn142 1.953 . S
O160 C154 1.298 . S
O161 Zn162 1.953 . S
O161 C177 1.225 . S
Zn162 O161 1.953 . S
Zn162 O163 1.949 . S
Zn162 O169 1.919 . S
Zn162 O174 1.924 . S
O163 Zn162 1.949 . S
O163 Zn164 1.923 . S
O163 Zn165 1.950 . S
O163 Zn166 1.945 . S
Zn164 O163 1.923 . S
Zn164 O167 1.933 . S
Zn164 O170 1.941 . S
Zn164 O171 1.965 . S
Zn165 O163 1.950 . S
Zn165 O172 1.938 . S
Zn165 O173 1.906 . S
Zn165 O183 1.953 . S
Zn166 O163 1.945 . S
Zn166 O168 1.932 . S
Zn166 O175 1.977 . S
Zn166 O176 1.910 . S
O167 Zn164 1.933 . S
O167 C178 1.226 . S
O168 Zn166 1.932 . S
O168 C178 1.307 . S
O169 Zn162 1.919 . S
O169 C180 1.253 . S
O170 Zn164 1.941 . S
O170 C180 1.283 . S
O171 Zn164 1.965 . S
O171 C179 1.303 . S
O172 Zn165 1.938 . S
O172 C179 1.247 . S
O173 Zn165 1.906 . S
O173 C181 1.304 . S
O174 Zn162 1.924 . S
O174 C182 1.311 . S
O175 Zn166 1.977 . S
O175 C181 1.272 . S
O176 Zn166 1.910 . S
O176 C182 1.231 . S
C177 O161 1.225 . S
C177 O183 1.298 . S
C178 O167 1.226 . S
C178 O168 1.307 . S
C179 O171 1.303 . S
C179 O172 1.247 . S
C180 O169 1.253 . S
C180 O170 1.283 . S
C181 O173 1.304 . S
C181 O175 1.272 . S
C182 O174 1.311 . S
C182 O176 1.231 . S
O183 Zn165 1.953 . S
O183 C177 1.298 . S
C16 C17 1.582 . S
C40 C39 1.582 . S
C63 C62 1.582 . S
C85 C86 1.582 . S
C108 C109 1.582 1_655 S
C131 C132 1.582 1_455 S
C155 C154 1.582 1_455 S
C178 C177 1.582 1_655 S
C44 C21 1.625 1_655 S
C90 C67 1.625 1_655 S
C113 C136 1.625 1_565 S
C159 C182 1.625 1_545 S
C18 C133 1.670 . S
C110 C41 1.670 . S
C64 C179 1.670 . S
C87 C156 1.670 . S
C20 C89 1.402 1_455 S
C43 C66 1.402 1_655 S
C42 C65 1.383 1_655 S
C88 C19 1.383 1_655 S
C112 C181 1.402 . S
C135 C158 1.402 . S
C134 C157 1.383 . S
C180 C111 1.383 . S
