# Generated by pormake.
# Topology qtz, (4)-cn, num edge types: 1
# Building blocks:
#     Node 0, Type 0, BuildingBlock: QUQFOY_clean_sbu_3, # of connection points: 4
#     Node 1, Type 0, BuildingBlock: QUQFOY_clean_sbu_3, # of connection points: 4
#     Node 2, Type 0, BuildingBlock: QUQFOY_clean_sbu_3, # of connection points: 4
#     Edge 3, Type (0, 0), BuildingBlock: OJICUG_clean_linker_0, # of connection points: 2
#     Edge 4, Type (0, 0), BuildingBlock: OJICUG_clean_linker_0, # of connection points: 2
#     Edge 5, Type (0, 0), BuildingBlock: OJICUG_clean_linker_0, # of connection points: 2
#     Edge 6, Type (0, 0), BuildingBlock: OJICUG_clean_linker_0, # of connection points: 2
#     Edge 7, Type (0, 0), BuildingBlock: OJICUG_clean_linker_0, # of connection points: 2
#     Edge 8, Type (0, 0), BuildingBlock: OJICUG_clean_linker_0, # of connection points: 2
# Relax obj value: 0.008
# Max RMSD: 0.056
# Mean RMSD: 0.047
data_MOF--net-qtz--node1-QUQFOY_clean_sbu_3--edge1-OJICUG_clean_linker_0
_symmetry_space_group_name_H-M    P1
_symmetry_Int_Tables_number       1
_symmetry_cell_setting            triclinic
loop_
_symmetry_equiv_pos_as_xyz
'x, y, z'
_cell_length_a     18.282585
_cell_length_b     17.658813
_cell_length_c     22.161391
_cell_angle_alpha  89.974557
_cell_angle_beta   92.749942
_cell_angle_gamma 122.40542
loop_
_atom_site_label
_atom_site_type_symbol
_atom_site_fract_x
_atom_site_fract_y
_atom_site_fract_z
_atom_type_partial_charge
C0 C 0.89658 0.54844 0.08248 0.0
O1 O 0.91257 0.5997 0.12806 0.0
Cd2 Cd -0.00899 0.60654 0.21994 0.0
O3 O 0.92581 0.49721 0.08074 0.0
Cd4 Cd 0.02276 0.4664 0.14397 0.0
C5 C 0.88277 0.38106 0.25431 0.0
O6 O 0.11527 0.61854 0.18336 0.0
O7 O 0.14044 0.5232 0.22312 0.0
O8 O 0.07554 0.46099 0.04692 0.0
C9 C 0.15961 0.60342 0.22114 0.0
O10 O 0.90716 0.46165 0.26816 0.0
C11 C 0.09354 0.40303 0.06138 0.0
O12 O 0.90857 0.36206 0.2076 0.0
O13 O 0.07452 0.37058 0.11357 0.0
C14 C 0.43339 0.15267 0.5265 0.0
O15 O 0.402 0.14721 0.47313 0.0
Cd16 Cd 0.38717 0.04096 0.39673 0.0
O17 O 0.46164 0.10338 0.54241 0.0
Cd18 Cd 0.48322 -0.01045 0.5012 0.0
C19 C 0.60352 0.12273 0.39016 0.0
O20 O 0.34816 0.90224 0.44079 0.0
O21 O 0.4457 0.87049 0.42838 0.0
O22 O 0.43374 0.90978 0.5934 0.0
C23 C 0.37035 0.85414 0.4147 0.0
O24 O 0.53218 0.10382 0.36356 0.0
C25 C 0.50121 0.90825 0.60665 0.0
O26 O 0.60702 0.09835 0.44388 0.0
O27 O 0.56328 0.94801 0.57146 0.0
C28 C 0.69416 0.56602 0.88293 0.0
O29 O 0.73011 0.61901 0.83992 0.0
Cd30 Cd 0.65528 0.64415 0.75735 0.0
O31 O 0.61216 0.52212 0.88682 0.0
Cd32 Cd 0.4854 0.50946 0.83127 0.0
C33 C 0.51393 0.42916 0.70211 0.0
O34 O 0.55758 0.66894 0.8073 0.0
O35 O 0.42605 0.58168 0.77142 0.0
O36 O 0.42445 0.48843 0.92987 0.0
C37 C 0.4928 0.66018 0.77709 0.0
O38 O 0.5756 0.50873 0.69192 0.0
C39 C 0.34758 0.4292 0.91089 0.0
O40 O 0.47601 0.41025 0.75157 0.0
O41 O 0.33582 0.40467 0.85562 0.0
C42 C 0.28412 0.39831 0.01187 0.0
C43 C 0.2739 0.40082 0.9489 0.0
H44 H 0.23149 0.39273 0.09729 0.0
C45 C 0.19666 0.38898 0.923 0.0
H46 H 0.34324 0.40737 0.03271 0.0
C47 C 0.13425 0.38349 0.95983 0.0
C48 C 0.14683 0.3863 0.02289 0.0
H49 H 0.18762 0.3913 0.87451 0.0
H50 H 0.07832 0.38156 0.93918 0.0
C51 C 0.22013 0.38945 0.04864 0.0
C52 C 0.81917 0.32307 0.35366 0.0
C53 C 0.81913 0.30855 0.2913 0.0
H54 H 0.75119 0.27265 0.43487 0.0
C55 C 0.7534 0.22701 0.26372 0.0
H56 H 0.86967 0.38539 0.37588 0.0
C57 C 0.68507 0.16385 0.29707 0.0
C58 C 0.68314 0.18015 0.35877 0.0
H59 H 0.75196 0.21446 0.21569 0.0
H60 H 0.63205 0.10369 0.2742 0.0
C61 C 0.75211 0.25857 0.38743 0.0
C62 C 0.57981 0.85968 0.67638 0.0
C63 C 0.50292 0.85466 0.65714 0.0
H64 H 0.63721 0.80249 0.73111 0.0
C65 C 0.42494 0.79168 0.68294 0.0
H66 H 0.64084 0.90783 0.65739 0.0
C67 C 0.42268 0.73087 0.72405 0.0
C68 C 0.49861 0.73306 0.74118 0.0
H69 H 0.3646 0.78624 0.66917 0.0
H70 H 0.36095 0.68031 0.74111 0.0
C71 C 0.5778 0.79977 0.71866 0.0
C72 C 0.82282 0.63858 0.95566 0.0
C73 C 0.74839 0.56008 0.93152 0.0
H74 H 0.9268 0.69609 0.02405 0.0
C75 C 0.72406 0.47703 0.95627 0.0
H76 H 0.84231 0.70339 0.93754 0.0
C77 C 0.77392 0.47263 0.00441 0.0
C78 C 0.84655 0.55157 0.02979 0.0
H79 H 0.66674 0.41572 0.93826 0.0
H80 H 0.75437 0.40806 0.02297 0.0
C81 C 0.87066 0.6345 0.00515 0.0
C82 C 0.32807 0.72044 0.34963 0.0
C83 C 0.316 0.78983 0.36547 0.0
H84 H 0.28711 0.60623 0.29137 0.0
C85 C 0.25388 0.79907 0.33254 0.0
H86 H 0.37579 0.71217 0.37438 0.0
C87 C 0.20481 0.73997 0.28422 0.0
C88 C 0.21582 0.66959 0.26904 0.0
H89 H 0.24404 0.85264 0.34356 0.0
H90 H 0.15703 0.74828 0.25961 0.0
C91 C 0.27764 0.66012 0.3022 0.0
C92 C 0.49449 0.376 0.59458 0.0
C93 C 0.48697 0.3572 0.65639 0.0
H94 H 0.48015 0.32423 0.50426 0.0
C95 C 0.45496 0.26911 0.67449 0.0
H96 H 0.51834 0.44337 0.57955 0.0
C97 C 0.43484 0.20182 0.63174 0.0
C98 C 0.44388 0.22089 0.57008 0.0
H99 H 0.44853 0.25292 0.72187 0.0
H100 H 0.41349 0.13507 0.64696 0.0
C101 C 0.47189 0.30793 0.55159 0.0
loop_
_geom_bond_atom_site_label_1
_geom_bond_atom_site_label_2
_geom_bond_distance
_geom_bond_site_symmetry_2
_ccdc_geom_bond_type
C0 O1 1.306 . S
C0 O3 1.160 . S
O1 C0 1.306 . S
O1 Cd2 2.228 . S
Cd2 O1 2.228 . S
Cd2 O6 2.273 1_655 S
Cd2 O10 2.277 . S
O3 C0 1.160 . S
O3 Cd4 2.203 1_655 S
Cd4 O3 2.203 1_455 S
Cd4 O6 2.411 . S
Cd4 O7 2.333 . S
Cd4 O8 2.352 . S
Cd4 O12 2.277 1_455 S
Cd4 O13 2.356 . S
C5 O10 1.209 . S
C5 O12 1.226 . S
O6 Cd2 2.273 1_455 S
O6 Cd4 2.411 . S
O6 C9 1.320 . S
O7 Cd4 2.333 . S
O7 C9 1.214 . S
O8 Cd4 2.352 . S
O8 C11 1.258 . S
C9 O6 1.320 . S
C9 O7 1.214 . S
O10 Cd2 2.277 . S
O10 C5 1.209 . S
C11 O8 1.258 . S
C11 O13 1.282 . S
O12 Cd4 2.277 1_655 S
O12 C5 1.226 . S
O13 Cd4 2.356 . S
O13 C11 1.282 . S
C14 O15 1.306 . S
C14 O17 1.160 . S
O15 C14 1.306 . S
O15 Cd16 2.228 . S
Cd16 O15 2.228 . S
Cd16 O20 2.273 1_545 S
Cd16 O24 2.277 . S
O17 C14 1.160 . S
O17 Cd18 2.203 . S
Cd18 O17 2.203 . S
Cd18 O20 2.411 1_545 S
Cd18 O21 2.333 1_545 S
Cd18 O22 2.352 1_545 S
Cd18 O26 2.277 . S
Cd18 O27 2.356 1_545 S
C19 O24 1.209 . S
C19 O26 1.226 . S
O20 Cd16 2.273 1_565 S
O20 Cd18 2.411 1_565 S
O20 C23 1.320 . S
O21 Cd18 2.333 1_565 S
O21 C23 1.214 . S
O22 Cd18 2.352 1_565 S
O22 C25 1.258 . S
C23 O20 1.320 . S
C23 O21 1.214 . S
O24 Cd16 2.277 . S
O24 C19 1.209 . S
C25 O22 1.258 . S
C25 O27 1.282 . S
O26 Cd18 2.277 . S
O26 C19 1.226 . S
O27 Cd18 2.356 1_565 S
O27 C25 1.282 . S
C28 O29 1.306 . S
C28 O31 1.160 . S
O29 C28 1.306 . S
O29 Cd30 2.228 . S
Cd30 O29 2.228 . S
Cd30 O34 2.273 . S
Cd30 O38 2.277 . S
O31 C28 1.160 . S
O31 Cd32 2.203 . S
Cd32 O31 2.203 . S
Cd32 O34 2.411 . S
Cd32 O35 2.333 . S
Cd32 O36 2.352 . S
Cd32 O40 2.277 . S
Cd32 O41 2.356 . S
C33 O38 1.209 . S
C33 O40 1.226 . S
O34 Cd30 2.273 . S
O34 Cd32 2.411 . S
O34 C37 1.320 . S
O35 Cd32 2.333 . S
O35 C37 1.214 . S
O36 Cd32 2.352 . S
O36 C39 1.258 . S
C37 O34 1.320 . S
C37 O35 1.214 . S
O38 Cd30 2.277 . S
O38 C33 1.209 . S
C39 O36 1.258 . S
C39 O41 1.282 . S
O40 Cd32 2.277 . S
O40 C33 1.226 . S
O41 Cd32 2.356 . S
O41 C39 1.282 . S
C42 C43 1.387 . S
C42 H46 0.950 . S
C42 C51 1.390 1_556 S
C43 C42 1.387 . S
C43 C45 1.387 . S
H44 C51 0.950 . S
C45 C43 1.387 . S
C45 C47 1.390 1_556 S
C45 H49 0.950 . S
H46 C42 0.950 . S
C47 C45 1.390 1_554 S
C47 C48 1.387 . S
C47 H50 0.950 . S
C48 C47 1.387 . S
C48 C51 1.387 . S
H49 C45 0.950 . S
H50 C47 0.950 . S
C51 C42 1.390 1_554 S
C51 H44 0.950 . S
C51 C48 1.387 . S
C52 C53 1.387 . S
C52 H56 0.950 . S
C52 C61 1.390 . S
C53 C52 1.387 . S
C53 C55 1.387 . S
H54 C61 0.950 . S
C55 C53 1.387 . S
C55 C57 1.390 . S
C55 H59 0.950 . S
H56 C52 0.950 . S
C57 C55 1.390 . S
C57 C58 1.387 . S
C57 H60 0.950 . S
C58 C57 1.387 . S
C58 C61 1.387 . S
H59 C55 0.950 . S
H60 C57 0.950 . S
C61 C52 1.390 . S
C61 H54 0.950 . S
C61 C58 1.387 . S
C62 C63 1.387 . S
C62 H66 0.950 . S
C62 C71 1.390 . S
C63 C62 1.387 . S
C63 C65 1.387 . S
H64 C71 0.950 . S
C65 C63 1.387 . S
C65 C67 1.390 . S
C65 H69 0.950 . S
H66 C62 0.950 . S
C67 C65 1.390 . S
C67 C68 1.387 . S
C67 H70 0.950 . S
C68 C67 1.387 . S
C68 C71 1.387 . S
H69 C65 0.950 . S
H70 C67 0.950 . S
C71 C62 1.390 . S
C71 H64 0.950 . S
C71 C68 1.387 . S
C72 C73 1.387 . S
C72 H76 0.950 . S
C72 C81 1.390 1_556 S
C73 C72 1.387 . S
C73 C75 1.387 . S
H74 C81 0.950 . S
C75 C73 1.387 . S
C75 C77 1.390 1_556 S
C75 H79 0.950 . S
H76 C72 0.950 . S
C77 C75 1.390 1_554 S
C77 C78 1.387 . S
C77 H80 0.950 . S
C78 C77 1.387 . S
C78 C81 1.387 . S
H79 C75 0.950 . S
H80 C77 0.950 . S
C81 C72 1.390 1_554 S
C81 H74 0.950 . S
C81 C78 1.387 . S
C82 C83 1.387 . S
C82 H86 0.950 . S
C82 C91 1.390 . S
C83 C82 1.387 . S
C83 C85 1.387 . S
H84 C91 0.950 . S
C85 C83 1.387 . S
C85 C87 1.390 . S
C85 H89 0.950 . S
H86 C82 0.950 . S
C87 C85 1.390 . S
C87 C88 1.387 . S
C87 H90 0.950 . S
C88 C87 1.387 . S
C88 C91 1.387 . S
H89 C85 0.950 . S
H90 C87 0.950 . S
C91 C82 1.390 . S
C91 H84 0.950 . S
C91 C88 1.387 . S
C92 C93 1.387 . S
C92 H96 0.950 . S
C92 C101 1.390 . S
C93 C92 1.387 . S
C93 C95 1.387 . S
H94 C101 0.950 . S
C95 C93 1.387 . S
C95 C97 1.390 . S
C95 H99 0.950 . S
H96 C92 0.950 . S
C97 C95 1.390 . S
C97 C98 1.387 . S
C97 H100 0.950 . S
C98 C97 1.387 . S
C98 C101 1.387 . S
H99 C95 0.950 . S
H100 C97 0.950 . S
C101 C92 1.390 . S
C101 H94 0.950 . S
C101 C98 1.387 . S
C43 C39 1.438 . S
C48 C11 1.437 . S
C53 C5 1.518 . S
C58 C19 1.518 . S
C63 C25 1.445 . S
C68 C37 1.436 . S
C73 C28 1.451 . S
C78 C0 1.452 . S
C83 C23 1.447 . S
C88 C9 1.444 . S
C93 C33 1.486 . S
C98 C14 1.486 . S
