# Generated by pormake.
# Topology qtz, (4)-cn, num edge types: 1
# Building blocks:
#     Node 0, Type 0, BuildingBlock: GALJAG_clean_sbu_0, # of connection points: 4
#     Node 1, Type 0, BuildingBlock: GALJAG_clean_sbu_0, # of connection points: 4
#     Node 2, Type 0, BuildingBlock: GALJAG_clean_sbu_0, # of connection points: 4
#     Edge 3, Type (0, 0), BuildingBlock: KIFKEQ_clean_linker_1, # of connection points: 2
#     Edge 4, Type (0, 0), BuildingBlock: KIFKEQ_clean_linker_1, # of connection points: 2
#     Edge 5, Type (0, 0), BuildingBlock: KIFKEQ_clean_linker_1, # of connection points: 2
#     Edge 6, Type (0, 0), BuildingBlock: KIFKEQ_clean_linker_1, # of connection points: 2
#     Edge 7, Type (0, 0), BuildingBlock: KIFKEQ_clean_linker_1, # of connection points: 2
#     Edge 8, Type (0, 0), BuildingBlock: KIFKEQ_clean_linker_1, # of connection points: 2
# Relax obj value: 0.004
# Max RMSD: 0.037
# Mean RMSD: 0.037
data_MOF--net-qtz--node1-GALJAG_clean_sbu_0--edge1-KIFKEQ_clean_linker_1
_symmetry_space_group_name_H-M    P1
_symmetry_Int_Tables_number       1
_symmetry_cell_setting            triclinic
loop_
_symmetry_equiv_pos_as_xyz
'x, y, z'
_cell_length_a     25.194623
_cell_length_b     25.216839
_cell_length_c     26.790579
_cell_angle_alpha  90.10194
_cell_angle_beta   90.096554
_cell_angle_gamma 119.93324
loop_
_atom_site_label
_atom_site_type_symbol
_atom_site_fract_x
_atom_site_fract_y
_atom_site_fract_z
_atom_type_partial_charge
In0 In 0.00784 0.50585 0.1694 0.0
O1 O 0.96145 0.40853 0.20126 0.0
O2 O 0.93245 0.46918 0.22797 0.0
C3 C 0.08697 0.497 0.10694 0.0
C4 C 0.93149 0.51981 0.10673 0.0
C5 C 0.08973 0.59286 0.23168 0.0
O6 O 0.05021 0.45299 0.13404 0.0
O7 O 0.08322 0.54488 0.11109 0.0
O8 O 0.05864 0.60333 0.20041 0.0
O9 O 0.07898 0.53837 0.232 0.0
C10 C 0.92614 0.41642 0.22976 0.0
O11 O 0.95583 0.55378 0.14424 0.0
O12 O 0.94578 0.4789 0.10067 0.0
In13 In 0.50936 0.00651 0.50459 0.0
O14 O 0.60827 0.05686 0.47588 0.0
O15 O 0.5442 0.07704 0.44215 0.0
C16 C 0.51865 0.92766 0.56696 0.0
C17 C 0.49568 0.08387 0.56621 0.0
C18 C 0.42115 0.92325 0.44391 0.0
O19 O 0.56097 0.9613 0.53717 0.0
O20 O 0.47226 0.93435 0.56546 0.0
O21 O 0.41131 0.95526 0.47469 0.0
O22 O 0.47561 0.93374 0.4433 0.0
C23 C 0.59861 0.0876 0.44374 0.0
O24 O 0.46181 0.05932 0.52868 0.0
O25 O 0.53639 0.06938 0.57274 0.0
In26 In 0.50823 0.50554 0.83668 0.0
O27 O 0.56115 0.60349 0.80638 0.0
O28 O 0.47113 0.54441 0.77898 0.0
C29 C 0.60619 0.525 0.89222 0.0
C30 C 0.41736 0.49561 0.89609 0.0
C31 C 0.48838 0.40779 0.78077 0.0
O32 O 0.61003 0.53576 0.846 0.0
O33 O 0.55356 0.50552 0.91025 0.0
O34 O 0.47798 0.40387 0.82705 0.0
O35 O 0.50765 0.46039 0.76286 0.0
C36 C 0.51817 0.59685 0.77793 0.0
O37 O 0.41 0.45328 0.86658 0.0
O38 O 0.47031 0.54198 0.89578 0.0
H39 H 0.42464 0.58225 0.96063 0.0
H40 H 0.29835 0.40243 0.9026 0.0
H41 H 0.34314 0.58001 0.01077 0.0
H42 H 0.21609 0.40053 0.95253 0.0
H43 H 0.10492 0.39969 0.09179 0.0
H44 H 0.18383 0.39697 0.04054 0.0
H45 H 0.24959 0.58427 0.99644 0.0
H46 H 0.17162 0.58724 0.04801 0.0
C47 C 0.37939 0.54218 0.95859 0.0
C48 C 0.36783 0.49257 0.92758 0.0
C49 C 0.33257 0.54108 0.98709 0.0
C50 C 0.27302 0.49033 0.98529 0.0
C51 C 0.2616 0.44013 0.95492 0.0
C52 C 0.30858 0.4413 0.92622 0.0
C53 C 0.13613 0.44013 0.07095 0.0
C54 C 0.13234 0.49378 0.0741 0.0
C55 C 0.18109 0.43848 0.04144 0.0
C56 C 0.22323 0.49055 0.01474 0.0
C57 C 0.21848 0.54372 0.01723 0.0
C58 C 0.17357 0.54531 0.04654 0.0
H59 H 0.90781 0.30105 0.24458 0.0
H60 H 0.84018 0.42176 0.28747 0.0
H61 H 0.82906 0.2199 0.29608 0.0
H62 H 0.76208 0.34113 0.33898 0.0
H63 H 0.58834 0.1631 0.37688 0.0
H64 H 0.6685 0.24138 0.32514 0.0
H65 H 0.79908 0.19505 0.3858 0.0
H66 H 0.71845 0.11606 0.43751 0.0
C67 C 0.8763 0.31028 0.26514 0.0
C68 C 0.88 0.36765 0.26189 0.0
C69 C 0.83145 0.26397 0.29477 0.0
C70 C 0.78918 0.27404 0.32135 0.0
C71 C 0.79342 0.33167 0.31838 0.0
C72 C 0.83839 0.37797 0.28909 0.0
C73 C 0.63409 0.16944 0.3791 0.0
C74 C 0.64717 0.13358 0.41136 0.0
C75 C 0.68008 0.21453 0.34966 0.0
C76 C 0.74019 0.22465 0.35164 0.0
C77 C 0.7531 0.18802 0.38325 0.0
C78 C 0.70705 0.14304 0.41298 0.0
H79 H 0.43137 0.84899 0.63114 0.0
H80 H 0.61306 0.90408 0.5771 0.0
H81 H 0.43398 0.77103 0.68291 0.0
H82 H 0.61537 0.82524 0.62868 0.0
H83 H 0.61434 0.71374 0.76741 0.0
H84 H 0.61692 0.7963 0.71748 0.0
H85 H 0.43166 0.6739 0.66795 0.0
H86 H 0.42885 0.5921 0.71795 0.0
C87 C 0.47195 0.84452 0.63041 0.0
C88 C 0.5219 0.88244 0.5999 0.0
C89 C 0.47331 0.79962 0.65986 0.0
C90 C 0.52468 0.79165 0.65956 0.0
C91 C 0.57531 0.83055 0.62993 0.0
C92 C 0.57386 0.87546 0.60025 0.0
C93 C 0.57431 0.7046 0.74572 0.0
C94 C 0.52134 0.64657 0.74669 0.0
C95 C 0.57587 0.75172 0.71702 0.0
C96 C 0.52433 0.7417 0.68908 0.0
C97 C 0.47174 0.68338 0.68971 0.0
C98 C 0.47028 0.63638 0.71813 0.0
H99 H 0.61171 0.5197 0.99338 0.0
H100 H 0.71735 0.54441 0.85982 0.0
H101 H 0.69429 0.52361 0.04385 0.0
H102 H 0.80013 0.54811 0.91053 0.0
H103 H 0.88644 0.46355 0.01705 0.0
H104 H 0.8115 0.47087 0.96374 0.0
H105 H 0.80398 0.59769 0.06803 0.0
H106 H 0.87907 0.59061 0.12128 0.0
C107 C 0.65282 0.52648 0.97486 0.0
C108 C 0.6581 0.53166 0.92268 0.0
C109 C 0.70019 0.529 0.00378 0.0
C110 C 0.75356 0.53609 0.98109 0.0
C111 C 0.75926 0.54216 0.92892 0.0
C112 C 0.7121 0.54037 0.89999 0.0
C113 C 0.86905 0.49328 0.02839 0.0
C114 C 0.88837 0.52633 0.07338 0.0
C115 C 0.82649 0.49775 0.99775 0.0
C116 C 0.80191 0.53479 0.01181 0.0
C117 C 0.82186 0.56845 0.05649 0.0
C118 C 0.86496 0.56455 0.08683 0.0
H119 H 0.42917 0.84117 0.38252 0.0
H120 H 0.30306 0.89844 0.43389 0.0
H121 H 0.34802 0.76129 0.33172 0.0
H122 H 0.22176 0.81826 0.38322 0.0
H123 H 0.11507 0.71096 0.24217 0.0
H124 H 0.19511 0.79157 0.29341 0.0
H125 H 0.25012 0.66408 0.34543 0.0
H126 H 0.17035 0.5836 0.29405 0.0
C127 C 0.38414 0.83675 0.38288 0.0
C128 C 0.37243 0.87602 0.41216 0.0
C129 C 0.33759 0.79077 0.35405 0.0
C130 C 0.27848 0.78339 0.35363 0.0
C131 C 0.26698 0.82317 0.38248 0.0
C132 C 0.31344 0.86888 0.41162 0.0
C133 C 0.14413 0.70014 0.26471 0.0
C134 C 0.13653 0.64103 0.26409 0.0
C135 C 0.18976 0.74621 0.29417 0.0
C136 C 0.22901 0.73418 0.32329 0.0
C137 C 0.22105 0.6749 0.3229 0.0
C138 C 0.17515 0.62875 0.29375 0.0
H139 H 0.49379 0.40269 0.67957 0.0
H140 H 0.46901 0.29665 0.81282 0.0
H141 H 0.49045 0.3206 0.62888 0.0
H142 H 0.46582 0.21436 0.76191 0.0
H143 H 0.55152 0.1291 0.65596 0.0
H144 H 0.5436 0.20372 0.70911 0.0
H145 H 0.41726 0.21113 0.60409 0.0
H146 H 0.425 0.13634 0.55097 0.0
C147 C 0.48709 0.36158 0.69797 0.0
C148 C 0.48178 0.35608 0.75014 0.0
C149 C 0.48489 0.31449 0.66892 0.0
C150 C 0.47799 0.26118 0.69148 0.0
C151 C 0.47168 0.2552 0.74362 0.0
C152 C 0.47316 0.30209 0.77267 0.0
C153 C 0.52181 0.14642 0.64439 0.0
C154 C 0.48905 0.12712 0.59927 0.0
C155 C 0.51697 0.1888 0.67495 0.0
C156 C 0.47984 0.2132 0.66069 0.0
C157 C 0.44656 0.19337 0.61581 0.0
C158 C 0.45083 0.15045 0.58553 0.0
loop_
_geom_bond_atom_site_label_1
_geom_bond_atom_site_label_2
_geom_bond_distance
_geom_bond_site_symmetry_2
_ccdc_geom_bond_type
In0 O1 2.294 1_455 S
In0 O2 2.326 1_455 S
In0 O6 2.266 . S
In0 O7 2.326 . S
In0 O8 2.266 . S
In0 O9 2.326 . S
In0 O11 2.294 1_455 S
In0 O12 2.326 1_455 S
O1 In0 2.294 1_655 S
O1 C10 1.240 . S
O2 In0 2.326 1_655 S
O2 C10 1.252 . S
C3 O6 1.252 . S
C3 O7 1.260 . S
C4 O11 1.240 . S
C4 O12 1.252 . S
C5 O8 1.252 . S
C5 O9 1.260 . S
O6 In0 2.266 . S
O6 C3 1.252 . S
O7 In0 2.326 . S
O7 C3 1.260 . S
O8 In0 2.266 . S
O8 C5 1.252 . S
O9 In0 2.326 . S
O9 C5 1.260 . S
C10 O1 1.240 . S
C10 O2 1.252 . S
O11 In0 2.294 1_655 S
O11 C4 1.240 . S
O12 In0 2.326 1_655 S
O12 C4 1.252 . S
In13 O14 2.294 . S
In13 O15 2.326 . S
In13 O19 2.266 1_545 S
In13 O20 2.326 1_545 S
In13 O21 2.266 1_545 S
In13 O22 2.326 1_545 S
In13 O24 2.294 . S
In13 O25 2.326 . S
O14 In13 2.294 . S
O14 C23 1.240 . S
O15 In13 2.326 . S
O15 C23 1.252 . S
C16 O19 1.252 . S
C16 O20 1.260 . S
C17 O24 1.240 . S
C17 O25 1.252 . S
C18 O21 1.252 . S
C18 O22 1.260 . S
O19 In13 2.266 1_565 S
O19 C16 1.252 . S
O20 In13 2.326 1_565 S
O20 C16 1.260 . S
O21 In13 2.266 1_565 S
O21 C18 1.252 . S
O22 In13 2.326 1_565 S
O22 C18 1.260 . S
C23 O14 1.240 . S
C23 O15 1.252 . S
O24 In13 2.294 . S
O24 C17 1.240 . S
O25 In13 2.326 . S
O25 C17 1.252 . S
In26 O27 2.294 . S
In26 O28 2.326 . S
In26 O32 2.266 . S
In26 O33 2.326 . S
In26 O34 2.266 . S
In26 O35 2.326 . S
In26 O37 2.294 . S
In26 O38 2.326 . S
O27 In26 2.294 . S
O27 C36 1.240 . S
O28 In26 2.326 . S
O28 C36 1.252 . S
C29 O32 1.252 . S
C29 O33 1.260 . S
C30 O37 1.240 . S
C30 O38 1.252 . S
C31 O34 1.252 . S
C31 O35 1.260 . S
O32 In26 2.266 . S
O32 C29 1.252 . S
O33 In26 2.326 . S
O33 C29 1.260 . S
O34 In26 2.266 . S
O34 C31 1.252 . S
O35 In26 2.326 . S
O35 C31 1.260 . S
C36 O27 1.240 . S
C36 O28 1.252 . S
O37 In26 2.294 . S
O37 C30 1.240 . S
O38 In26 2.326 . S
O38 C30 1.252 . S
H39 C47 0.950 . S
H40 C52 0.950 . S
H41 C49 0.950 . S
H42 C51 0.950 . S
H43 C53 0.950 . S
H44 C55 0.950 . S
H45 C57 0.950 . S
H46 C58 0.950 . S
C47 H39 0.950 . S
C47 C48 1.386 . S
C47 C49 1.391 . S
C48 C47 1.386 . S
C48 C52 1.393 . S
C49 H41 0.950 . S
C49 C47 1.391 . S
C49 C50 1.400 . S
C50 C49 1.400 . S
C50 C51 1.398 . S
C50 C56 1.491 1_556 S
C51 H42 0.950 . S
C51 C50 1.398 . S
C51 C52 1.391 . S
C52 H40 0.950 . S
C52 C48 1.393 . S
C52 C51 1.391 . S
C53 H43 0.950 . S
C53 C54 1.386 . S
C53 C55 1.391 . S
C54 C53 1.386 . S
C54 C58 1.393 . S
C55 H44 0.950 . S
C55 C53 1.391 . S
C55 C56 1.400 . S
C56 C50 1.491 1_554 S
C56 C55 1.400 . S
C56 C57 1.398 . S
C57 H45 0.950 . S
C57 C56 1.398 . S
C57 C58 1.391 . S
C58 H46 0.950 . S
C58 C54 1.393 . S
C58 C57 1.391 . S
H59 C67 0.950 . S
H60 C72 0.950 . S
H61 C69 0.950 . S
H62 C71 0.950 . S
H63 C73 0.950 . S
H64 C75 0.950 . S
H65 C77 0.950 . S
H66 C78 0.950 . S
C67 H59 0.950 . S
C67 C68 1.386 . S
C67 C69 1.391 . S
C68 C67 1.386 . S
C68 C72 1.393 . S
C69 H61 0.950 . S
C69 C67 1.391 . S
C69 C70 1.400 . S
C70 C69 1.400 . S
C70 C71 1.398 . S
C70 C76 1.491 . S
C71 H62 0.950 . S
C71 C70 1.398 . S
C71 C72 1.391 . S
C72 H60 0.950 . S
C72 C68 1.393 . S
C72 C71 1.391 . S
C73 H63 0.950 . S
C73 C74 1.386 . S
C73 C75 1.391 . S
C74 C73 1.386 . S
C74 C78 1.393 . S
C75 H64 0.950 . S
C75 C73 1.391 . S
C75 C76 1.400 . S
C76 C70 1.491 . S
C76 C75 1.400 . S
C76 C77 1.398 . S
C77 H65 0.950 . S
C77 C76 1.398 . S
C77 C78 1.391 . S
C78 H66 0.950 . S
C78 C74 1.393 . S
C78 C77 1.391 . S
H79 C87 0.950 . S
H80 C92 0.950 . S
H81 C89 0.950 . S
H82 C91 0.950 . S
H83 C93 0.950 . S
H84 C95 0.950 . S
H85 C97 0.950 . S
H86 C98 0.950 . S
C87 H79 0.950 . S
C87 C88 1.386 . S
C87 C89 1.391 . S
C88 C87 1.386 . S
C88 C92 1.393 . S
C89 H81 0.950 . S
C89 C87 1.391 . S
C89 C90 1.400 . S
C90 C89 1.400 . S
C90 C91 1.398 . S
C90 C96 1.491 . S
C91 H82 0.950 . S
C91 C90 1.398 . S
C91 C92 1.391 . S
C92 H80 0.950 . S
C92 C88 1.393 . S
C92 C91 1.391 . S
C93 H83 0.950 . S
C93 C94 1.386 . S
C93 C95 1.391 . S
C94 C93 1.386 . S
C94 C98 1.393 . S
C95 H84 0.950 . S
C95 C93 1.391 . S
C95 C96 1.400 . S
C96 C90 1.491 . S
C96 C95 1.400 . S
C96 C97 1.398 . S
C97 H85 0.950 . S
C97 C96 1.398 . S
C97 C98 1.391 . S
C98 H86 0.950 . S
C98 C94 1.393 . S
C98 C97 1.391 . S
H99 C107 0.950 . S
H100 C112 0.950 . S
H101 C109 0.950 . S
H102 C111 0.950 . S
H103 C113 0.950 . S
H104 C115 0.950 . S
H105 C117 0.950 . S
H106 C118 0.950 . S
C107 H99 0.950 . S
C107 C108 1.386 . S
C107 C109 1.391 1_556 S
C108 C107 1.386 . S
C108 C112 1.393 . S
C109 H101 0.950 . S
C109 C107 1.391 1_554 S
C109 C110 1.400 1_554 S
C110 C109 1.400 1_556 S
C110 C111 1.398 . S
C110 C116 1.491 1_556 S
C111 H102 0.950 . S
C111 C110 1.398 . S
C111 C112 1.391 . S
C112 H100 0.950 . S
C112 C108 1.393 . S
C112 C111 1.391 . S
C113 H103 0.950 . S
C113 C114 1.386 . S
C113 C115 1.391 1_554 S
C114 C113 1.386 . S
C114 C118 1.393 . S
C115 H104 0.950 . S
C115 C113 1.391 1_556 S
C115 C116 1.400 1_556 S
C116 C110 1.491 1_554 S
C116 C115 1.400 1_554 S
C116 C117 1.398 . S
C117 H105 0.950 . S
C117 C116 1.398 . S
C117 C118 1.391 . S
C118 H106 0.950 . S
C118 C114 1.393 . S
C118 C117 1.391 . S
H119 C127 0.950 . S
H120 C132 0.950 . S
H121 C129 0.950 . S
H122 C131 0.950 . S
H123 C133 0.950 . S
H124 C135 0.950 . S
H125 C137 0.950 . S
H126 C138 0.950 . S
C127 H119 0.950 . S
C127 C128 1.386 . S
C127 C129 1.391 . S
C128 C127 1.386 . S
C128 C132 1.393 . S
C129 H121 0.950 . S
C129 C127 1.391 . S
C129 C130 1.400 . S
C130 C129 1.400 . S
C130 C131 1.398 . S
C130 C136 1.491 . S
C131 H122 0.950 . S
C131 C130 1.398 . S
C131 C132 1.391 . S
C132 H120 0.950 . S
C132 C128 1.393 . S
C132 C131 1.391 . S
C133 H123 0.950 . S
C133 C134 1.386 . S
C133 C135 1.391 . S
C134 C133 1.386 . S
C134 C138 1.393 . S
C135 H124 0.950 . S
C135 C133 1.391 . S
C135 C136 1.400 . S
C136 C130 1.491 . S
C136 C135 1.400 . S
C136 C137 1.398 . S
C137 H125 0.950 . S
C137 C136 1.398 . S
C137 C138 1.391 . S
C138 H126 0.950 . S
C138 C134 1.393 . S
C138 C137 1.391 . S
H139 C147 0.950 . S
H140 C152 0.950 . S
H141 C149 0.950 . S
H142 C151 0.950 . S
H143 C153 0.950 . S
H144 C155 0.950 . S
H145 C157 0.950 . S
H146 C158 0.950 . S
C147 H139 0.950 . S
C147 C148 1.386 . S
C147 C149 1.391 . S
C148 C147 1.386 . S
C148 C152 1.393 . S
C149 H141 0.950 . S
C149 C147 1.391 . S
C149 C150 1.400 . S
C150 C149 1.400 . S
C150 C151 1.398 . S
C150 C156 1.491 . S
C151 H142 0.950 . S
C151 C150 1.398 . S
C151 C152 1.391 . S
C152 H140 0.950 . S
C152 C148 1.393 . S
C152 C151 1.391 . S
C153 H143 0.950 . S
C153 C154 1.386 . S
C153 C155 1.391 . S
C154 C153 1.386 . S
C154 C158 1.393 . S
C155 H144 0.950 . S
C155 C153 1.391 . S
C155 C156 1.400 . S
C156 C150 1.491 . S
C156 C155 1.400 . S
C156 C157 1.398 . S
C157 H145 0.950 . S
C157 C156 1.398 . S
C157 C158 1.391 . S
C158 H146 0.950 . S
C158 C154 1.393 . S
C158 C157 1.391 . S
C48 C30 1.546 . S
C54 C3 1.548 . S
C68 C10 1.543 . S
C74 C23 1.543 . S
C88 C16 1.548 . S
C94 C36 1.546 . S
C108 C29 1.547 . S
C114 C4 1.547 . S
C128 C18 1.553 . S
C134 C5 1.553 . S
C148 C31 1.547 . S
C154 C17 1.547 . S
