# Generated by pormake.
# Topology sma, (6)-cn, num edge types: 1
# Building blocks:
#     Node 0, Type 0, BuildingBlock: BETFEN_clean_sbu_0, # of connection points: 6
#     Node 1, Type 0, BuildingBlock: BETFEN_clean_sbu_0, # of connection points: 6
#     Node 2, Type 0, BuildingBlock: BETFEN_clean_sbu_0, # of connection points: 6
#     Edge 3, Type (0, 0), None
#     Edge 4, Type (0, 0), None
#     Edge 5, Type (0, 0), None
#     Edge 6, Type (0, 0), None
#     Edge 7, Type (0, 0), None
#     Edge 8, Type (0, 0), None
#     Edge 9, Type (0, 0), None
#     Edge 10, Type (0, 0), None
#     Edge 11, Type (0, 0), None
# Relax obj value: 0.245
# Max RMSD: 0.331
# Mean RMSD: 0.225
data_MOF--net-sma--node1-BETFEN_clean_sbu_0--edge1-none
_symmetry_space_group_name_H-M    P1
_symmetry_Int_Tables_number       1
_symmetry_cell_setting            triclinic
loop_
_symmetry_equiv_pos_as_xyz
'x, y, z'
_cell_length_a     14.661417
_cell_length_b     25.653866
_cell_length_c     6.1654877
_cell_angle_alpha  90.824139
_cell_angle_beta   96.580111
_cell_angle_gamma 80.821597
loop_
_atom_site_label
_atom_site_type_symbol
_atom_site_fract_x
_atom_site_fract_y
_atom_site_fract_z
_atom_type_partial_charge
Pr0 Pr 0.15291 0.48476 0.80078 0.0
Pr1 Pr 1.11512 0.60843 0.81052 0.0
C2 C 0.17135 0.38005 0.87761 0.0
C3 C 0.12918 0.33118 0.85185 0.0
C4 C 0.14209 0.29861 0.66871 0.0
C5 C 1.11183 0.24954 0.6556 0.0
C6 C 1.06877 0.23164 0.82625 0.0
C7 C 1.0544 0.26456 0.00768 0.0
C8 C 1.08447 0.31371 0.0206 0.0
C9 C 0.13649 0.53355 0.39821 0.0
C10 C 0.93235 0.54822 0.7795 0.0
C11 C 1.09657 0.71318 0.73454 0.0
C12 C 0.13878 0.76204 0.7597 0.0
C13 C 0.12592 0.7947 0.94259 0.0
C14 C 0.15619 0.84377 0.95522 0.0
C15 C 0.19922 0.86158 0.78433 0.0
C16 C 0.21354 0.82857 0.60314 0.0
C17 C 0.18346 0.77942 0.5907 0.0
C18 C 0.1313 0.55941 0.21283 0.0
C19 C 0.33565 0.54498 0.83152 0.0
O20 O 0.14045 0.4159 0.01662 0.0
O21 O 0.19649 0.40005 0.70393 0.0
O22 O 1.08582 0.54811 0.54635 0.0
O23 O 0.19353 0.4902 0.44613 0.0
O24 O 0.96186 0.59293 0.74271 0.0
O25 O 0.99021 0.50323 0.81802 0.0
O26 O 0.12693 0.6774 0.59467 0.0
O27 O 1.07204 0.69309 0.90876 0.0
O28 O 0.18217 0.54512 0.06485 0.0
O29 O 1.0742 0.60276 0.16499 0.0
O30 O 0.30616 0.50028 0.86855 0.0
O31 O 0.27778 0.58996 0.79286 0.0
H32 H 0.17783 0.31035 0.53761 0.0
H33 H 0.12468 0.22492 0.51466 0.0
H34 H 1.01999 0.25227 0.14013 0.0
H35 H 1.0743 0.33754 0.1649 0.0
H36 H 1.09019 0.78304 0.07386 0.0
H37 H 0.14337 0.86846 0.096 0.0
H38 H 0.24792 0.84079 0.4705 0.0
H39 H 0.1936 0.75552 0.44657 0.0
Pr40 Pr 0.74139 0.03228 0.83992 0.0
Pr41 Pr 0.52669 0.06088 0.76966 0.0
C42 C 0.92153 0.03548 0.81029 0.0
C43 C 0.97097 0.08155 0.80444 0.0
C44 C 1.02082 0.09771 -0.00468 0.0
C45 C 1.05412 0.14591 0.00123 0.0
C46 C 1.03915 0.17879 0.81572 0.0
C47 C 0.9939 0.16128 0.62141 0.0
C48 C 0.96016 0.11325 0.61573 0.0
C49 C 0.65628 0.04379 0.21725 0.0
C50 C 0.63707 0.16077 0.78159 0.0
C51 C 0.34647 0.05772 0.79848 0.0
C52 C 0.29705 1.01165 0.80479 0.0
C53 C 0.24716 0.99542 0.61412 0.0
C54 C 0.21386 0.94722 0.60863 0.0
C55 C 0.22886 0.91443 0.79438 0.0
C56 C 0.27416 0.93201 -0.01151 0.0
C57 C 0.30791 0.98003 -0.00626 0.0
C58 C 0.6122 0.04947 0.39262 0.0
C59 C 0.63099 0.93242 0.82844 0.0
O60 O 0.86222 0.02903 0.64 0.0
O61 O 0.89032 0.02704 -0.00466 0.0
O62 O 0.63425 0.07373 0.05359 0.0
O63 O 0.72744 1.00746 0.19684 0.0
O64 O 0.55525 0.14783 0.80776 0.0
O65 O 0.71084 0.12419 0.76593 0.0
O66 O 0.40561 0.06434 -0.0311 0.0
O67 O 0.37789 0.06597 0.61349 0.0
O68 O 0.63375 1.01944 0.55603 0.0
O69 O 0.54105 0.08582 0.41291 0.0
O70 O 0.71278 0.94534 0.80191 0.0
O71 O 0.55725 0.96901 0.84432 0.0
H72 H 1.03122 0.07397 0.14265 0.0
H73 H 1.09067 0.15776 0.15202 0.0
H74 H 0.98112 0.1857 0.47584 0.0
H75 H 0.92237 0.1021 0.46538 0.0
H76 H 0.23673 1.01911 0.46662 0.0
H77 H 0.17727 0.93532 0.458 0.0
H78 H 0.28697 0.90764 0.13423 0.0
H79 H 0.34573 0.99123 0.14393 0.0
Pr80 Pr 0.65027 0.48353 0.81436 0.0
Pr81 Pr 0.61771 0.60966 0.79615 0.0
C82 C 0.69606 0.37887 0.74184 0.0
C83 C 0.67756 0.3241 0.759 0.0
C84 C 0.58744 0.31186 0.75952 0.0
C85 C 0.57352 0.25889 0.76788 0.0
C86 C 0.64944 0.21735 0.77444 0.0
C87 C 0.73937 0.23024 0.77537 0.0
C88 C 0.7531 0.28283 0.76809 0.0
C89 C 0.63806 0.53354 0.21266 0.0
C90 C 0.83163 0.54923 0.78357 0.0
C91 C 0.57188 0.71434 0.86802 0.0
C92 C 0.59041 0.76911 0.85104 0.0
C93 C 0.68052 0.78132 0.84994 0.0
C94 C 0.69447 0.83429 0.84164 0.0
C95 C 0.61859 0.87585 0.83571 0.0
C96 C 0.52868 0.86298 0.8354 0.0
C97 C 0.51492 0.81039 0.84262 0.0
C98 C 0.63025 0.55945 0.39811 0.0
C99 C 0.43637 0.54397 0.82731 0.0
O100 O 0.64187 0.41119 0.60178 0.0
O101 O 0.72678 0.40213 0.91957 0.0
O102 O 0.67896 0.54832 0.06119 0.0
O103 O 0.60696 0.48937 0.16968 0.0
O104 O 0.77952 0.59483 0.8197 0.0
O105 O 0.79754 0.50441 0.75716 0.0
O106 O 0.62586 0.68205 0.00853 0.0
O107 O 0.54144 0.69105 0.69011 0.0
O108 O 0.58909 0.54492 0.54954 0.0
O109 O 0.66136 0.60363 0.44091 0.0
O110 O 0.48847 0.49836 0.7913 0.0
O111 O 0.47046 0.58879 0.85346 0.0
H112 H 0.52803 0.34312 0.7524 0.0
H113 H 0.50341 0.25051 0.76742 0.0
H114 H 0.7998 0.19966 0.78202 0.0
H115 H 0.82323 0.29126 0.76765 0.0
H116 H 0.73989 0.75004 0.85653 0.0
H117 H 0.76457 0.84265 0.8416 0.0
H118 H 0.46828 0.89357 0.82924 0.0
H119 H 0.4448 0.80198 0.84351 0.0
loop_
_geom_bond_atom_site_label_1
_geom_bond_atom_site_label_2
_geom_bond_distance
_geom_bond_site_symmetry_2
_ccdc_geom_bond_type
Pr0 C2 2.880 1_455 S
Pr0 O20 2.562 1_455 S
Pr0 O21 2.490 1_454 S
Pr0 O22 2.695 1_554 S
Pr0 O23 2.512 1_554 S
Pr0 O25 2.437 1_454 S
Pr0 O28 2.436 . S
Pr0 O30 2.438 . S
Pr1 C11 2.880 . S
Pr1 O22 2.436 1_554 S
Pr1 O24 2.438 1_455 S
Pr1 O26 2.562 1_554 S
Pr1 O27 2.490 . S
Pr1 O28 2.695 . S
Pr1 O29 2.512 . S
Pr1 O31 2.437 . S
C2 Pr0 2.880 1_655 S
C2 C3 1.491 . S
C2 O20 1.254 . S
C2 O21 1.225 1_554 S
C3 C2 1.491 . S
C3 C4 1.392 1_554 S
C3 C8 1.356 . S
C4 C3 1.392 1_556 S
C4 C5 1.368 . S
C4 H32 0.929 . S
C5 C4 1.368 . S
C5 C6 1.386 1_556 S
C5 H33 0.929 . S
C6 C5 1.386 1_554 S
C6 C7 1.373 . S
C7 C6 1.373 . S
C7 C8 1.409 . S
C7 H34 0.931 . S
C8 C3 1.356 . S
C8 C7 1.409 . S
C8 H35 0.930 . S
C9 O22 1.270 . S
C9 O23 1.248 . S
C10 O24 1.267 . S
C10 O25 1.278 1_554 S
C11 Pr1 2.880 . S
C11 C12 1.491 . S
C11 O26 1.254 1_554 S
C11 O27 1.225 . S
C12 C11 1.491 . S
C12 C13 1.392 . S
C12 C17 1.356 1_554 S
C13 C12 1.392 . S
C13 C14 1.368 . S
C13 H36 0.929 . S
C14 C13 1.368 . S
C14 C15 1.386 . S
C14 H37 0.929 . S
C15 C14 1.386 . S
C15 C16 1.373 1_554 S
C16 C15 1.373 1_556 S
C16 C17 1.409 . S
C16 H38 0.931 . S
C17 C12 1.356 1_556 S
C17 C16 1.409 . S
C17 H39 0.930 . S
C18 O28 1.270 . S
C18 O29 1.248 . S
C19 O30 1.267 . S
C19 O31 1.278 . S
O20 Pr0 2.562 1_655 S
O20 C2 1.254 . S
O21 Pr0 2.490 1_656 S
O21 C2 1.225 1_556 S
O22 Pr0 2.695 1_556 S
O22 Pr1 2.436 1_556 S
O22 C9 1.270 . S
O23 Pr0 2.512 1_556 S
O23 C9 1.248 . S
O24 Pr1 2.438 1_655 S
O24 C10 1.267 . S
O25 Pr0 2.437 1_656 S
O25 C10 1.278 1_556 S
O26 Pr1 2.562 1_556 S
O26 C11 1.254 1_556 S
O27 Pr1 2.490 . S
O27 C11 1.225 . S
O28 Pr0 2.436 . S
O28 Pr1 2.695 . S
O28 C18 1.270 . S
O29 Pr1 2.512 . S
O29 C18 1.248 . S
O30 Pr0 2.438 . S
O30 C19 1.267 . S
O31 Pr1 2.437 . S
O31 C19 1.278 . S
H32 C4 0.929 . S
H33 C5 0.929 . S
H34 C7 0.931 . S
H35 C8 0.930 . S
H36 C13 0.929 . S
H37 C14 0.929 . S
H38 C16 0.931 . S
H39 C17 0.930 . S
Pr40 C42 2.880 . S
Pr40 O60 2.562 . S
Pr40 O61 2.490 . S
Pr40 O62 2.695 . S
Pr40 O63 2.512 1_556 S
Pr40 O65 2.437 . S
Pr40 O68 2.436 . S
Pr40 O70 2.438 1_545 S
Pr41 C51 2.880 1_545 S
Pr41 O62 2.436 . S
Pr41 O64 2.438 . S
Pr41 O66 2.562 1_545 S
Pr41 O67 2.490 1_545 S
Pr41 O68 2.695 . S
Pr41 O69 2.512 . S
Pr41 O71 2.437 1_545 S
C42 Pr40 2.880 . S
C42 C43 1.491 . S
C42 O60 1.254 . S
C42 O61 1.225 . S
C43 C42 1.491 . S
C43 C44 1.392 . S
C43 C48 1.356 . S
C44 C43 1.392 . S
C44 C45 1.368 . S
C44 H72 0.929 . S
C45 C44 1.368 . S
C45 C46 1.386 . S
C45 H73 0.929 . S
C46 C45 1.386 . S
C46 C47 1.373 . S
C47 C46 1.373 . S
C47 C48 1.409 . S
C47 H74 0.931 . S
C48 C43 1.356 . S
C48 C47 1.409 . S
C48 H75 0.930 . S
C49 O62 1.270 1_554 S
C49 O63 1.248 . S
C50 O64 1.267 . S
C50 O65 1.278 . S
C51 Pr41 2.880 1_565 S
C51 C52 1.491 . S
C51 O66 1.254 . S
C51 O67 1.225 . S
C52 C51 1.491 . S
C52 C53 1.392 . S
C52 C57 1.356 . S
C53 C52 1.392 . S
C53 C54 1.368 . S
C53 H76 0.929 . S
C54 C53 1.368 . S
C54 C55 1.386 . S
C54 H77 0.929 . S
C55 C54 1.386 . S
C55 C56 1.373 . S
C56 C55 1.373 . S
C56 C57 1.409 . S
C56 H78 0.931 . S
C57 C52 1.356 . S
C57 C56 1.409 . S
C57 H79 0.930 . S
C58 O68 1.270 . S
C58 O69 1.248 . S
C59 O70 1.267 . S
C59 O71 1.278 . S
O60 Pr40 2.562 . S
O60 C42 1.254 . S
O61 Pr40 2.490 . S
O61 C42 1.225 . S
O62 Pr40 2.695 . S
O62 Pr41 2.436 . S
O62 C49 1.270 1_556 S
O63 Pr40 2.512 1_554 S
O63 C49 1.248 . S
O64 Pr41 2.438 . S
O64 C50 1.267 . S
O65 Pr40 2.437 . S
O65 C50 1.278 . S
O66 Pr41 2.562 1_565 S
O66 C51 1.254 . S
O67 Pr41 2.490 1_565 S
O67 C51 1.225 . S
O68 Pr40 2.436 . S
O68 Pr41 2.695 . S
O68 C58 1.270 . S
O69 Pr41 2.512 . S
O69 C58 1.248 . S
O70 Pr40 2.438 1_565 S
O70 C59 1.267 . S
O71 Pr41 2.437 1_565 S
O71 C59 1.278 . S
H72 C44 0.929 . S
H73 C45 0.929 . S
H74 C47 0.931 . S
H75 C48 0.930 . S
H76 C53 0.929 . S
H77 C54 0.929 . S
H78 C56 0.931 . S
H79 C57 0.930 . S
Pr80 C82 2.880 . S
Pr80 O100 2.562 . S
Pr80 O101 2.490 1_556 S
Pr80 O102 2.695 1_556 S
Pr80 O103 2.512 1_556 S
Pr80 O105 2.437 . S
Pr80 O108 2.436 . S
Pr80 O110 2.438 . S
Pr81 C91 2.880 . S
Pr81 O102 2.436 1_556 S
Pr81 O104 2.438 . S
Pr81 O106 2.562 1_556 S
Pr81 O107 2.490 . S
Pr81 O108 2.695 . S
Pr81 O109 2.512 . S
Pr81 O111 2.437 . S
C82 Pr80 2.880 . S
C82 C83 1.491 . S
C82 O100 1.254 . S
C82 O101 1.225 1_556 S
C83 C82 1.491 . S
C83 C84 1.392 1_556 S
C83 C88 1.356 . S
C84 C83 1.392 1_554 S
C84 C85 1.368 1_554 S
C84 H112 0.929 . S
C85 C84 1.368 1_556 S
C85 C86 1.386 . S
C85 H113 0.929 1_556 S
C86 C85 1.386 . S
C86 C87 1.373 . S
C87 C86 1.373 . S
C87 C88 1.409 . S
C87 H114 0.931 . S
C88 C83 1.356 . S
C88 C87 1.409 . S
C88 H115 0.930 . S
C89 O102 1.270 . S
C89 O103 1.248 . S
C90 O104 1.267 . S
C90 O105 1.278 . S
C91 Pr81 2.880 . S
C91 C92 1.491 . S
C91 O106 1.254 1_556 S
C91 O107 1.225 . S
C92 C91 1.491 . S
C92 C93 1.392 . S
C92 C97 1.356 1_556 S
C93 C92 1.392 . S
C93 C94 1.368 . S
C93 H116 0.929 . S
C94 C93 1.368 . S
C94 C95 1.386 . S
C94 H117 0.929 . S
C95 C94 1.386 . S
C95 C96 1.373 1_556 S
C96 C95 1.373 1_554 S
C96 C97 1.409 . S
C96 H118 0.931 . S
C97 C92 1.356 1_554 S
C97 C96 1.409 . S
C97 H119 0.930 . S
C98 O108 1.270 . S
C98 O109 1.248 . S
C99 O110 1.267 . S
C99 O111 1.278 . S
O100 Pr80 2.562 . S
O100 C82 1.254 . S
O101 Pr80 2.490 1_554 S
O101 C82 1.225 1_554 S
O102 Pr80 2.695 1_554 S
O102 Pr81 2.436 1_554 S
O102 C89 1.270 . S
O103 Pr80 2.512 1_554 S
O103 C89 1.248 . S
O104 Pr81 2.438 . S
O104 C90 1.267 . S
O105 Pr80 2.437 . S
O105 C90 1.278 . S
O106 Pr81 2.562 1_554 S
O106 C91 1.254 1_554 S
O107 Pr81 2.490 . S
O107 C91 1.225 . S
O108 Pr80 2.436 . S
O108 Pr81 2.695 . S
O108 C98 1.270 . S
O109 Pr81 2.512 . S
O109 C98 1.248 . S
O110 Pr80 2.438 . S
O110 C99 1.267 . S
O111 Pr81 2.437 . S
O111 C99 1.278 . S
H112 C84 0.929 . S
H113 C85 0.929 1_554 S
H114 C87 0.931 . S
H115 C88 0.930 . S
H116 C93 0.929 . S
H117 C94 0.929 . S
H118 C96 0.931 . S
H119 C97 0.930 . S
C19 C99 4.359 1_554 S
C46 C6 3.073 1_556 S
C59 C95 5.304 . S
C90 C10 3.893 1_556 S
C55 C15 2.707 1_556 S
C86 C50 4.603 . S
C9 C18 0.768 . S
C58 C49 0.833 . S
C98 C89 0.629 . S
