# Generated by pormake.
# Topology uoy, (4)-cn, num edge types: 1
# Building blocks:
#     Node 0, Type 0, BuildingBlock: AZAVOO_clean_sbu_0, # of connection points: 4
#     Node 1, Type 0, BuildingBlock: AZAVOO_clean_sbu_0, # of connection points: 4
#     Node 2, Type 0, BuildingBlock: AZAVOO_clean_sbu_0, # of connection points: 4
#     Node 3, Type 0, BuildingBlock: AZAVOO_clean_sbu_0, # of connection points: 4
#     Node 4, Type 0, BuildingBlock: AZAVOO_clean_sbu_0, # of connection points: 4
#     Node 5, Type 0, BuildingBlock: AZAVOO_clean_sbu_0, # of connection points: 4
#     Node 6, Type 0, BuildingBlock: AZAVOO_clean_sbu_0, # of connection points: 4
#     Node 7, Type 0, BuildingBlock: AZAVOO_clean_sbu_0, # of connection points: 4
#     Node 8, Type 0, BuildingBlock: AZAVOO_clean_sbu_0, # of connection points: 4
#     Node 9, Type 0, BuildingBlock: AZAVOO_clean_sbu_0, # of connection points: 4
#     Node 10, Type 0, BuildingBlock: AZAVOO_clean_sbu_0, # of connection points: 4
#     Node 11, Type 0, BuildingBlock: AZAVOO_clean_sbu_0, # of connection points: 4
#     Node 12, Type 0, BuildingBlock: AZAVOO_clean_sbu_0, # of connection points: 4
#     Node 13, Type 0, BuildingBlock: AZAVOO_clean_sbu_0, # of connection points: 4
#     Node 14, Type 0, BuildingBlock: AZAVOO_clean_sbu_0, # of connection points: 4
#     Node 15, Type 0, BuildingBlock: AZAVOO_clean_sbu_0, # of connection points: 4
#     Edge 16, Type (0, 0), None
#     Edge 17, Type (0, 0), None
#     Edge 18, Type (0, 0), None
#     Edge 19, Type (0, 0), None
#     Edge 20, Type (0, 0), None
#     Edge 21, Type (0, 0), None
#     Edge 22, Type (0, 0), None
#     Edge 23, Type (0, 0), None
#     Edge 24, Type (0, 0), None
#     Edge 25, Type (0, 0), None
#     Edge 26, Type (0, 0), None
#     Edge 27, Type (0, 0), None
#     Edge 28, Type (0, 0), None
#     Edge 29, Type (0, 0), None
#     Edge 30, Type (0, 0), None
#     Edge 31, Type (0, 0), None
#     Edge 32, Type (0, 0), None
#     Edge 33, Type (0, 0), None
#     Edge 34, Type (0, 0), None
#     Edge 35, Type (0, 0), None
#     Edge 36, Type (0, 0), None
#     Edge 37, Type (0, 0), None
#     Edge 38, Type (0, 0), None
#     Edge 39, Type (0, 0), None
#     Edge 40, Type (0, 0), None
#     Edge 41, Type (0, 0), None
#     Edge 42, Type (0, 0), None
#     Edge 43, Type (0, 0), None
#     Edge 44, Type (0, 0), None
#     Edge 45, Type (0, 0), None
#     Edge 46, Type (0, 0), None
#     Edge 47, Type (0, 0), None
# Relax obj value: 0.184
# Max RMSD: 0.210
# Mean RMSD: 0.210
data_MOF--net-uoy--node1-AZAVOO_clean_sbu_0--edge1-none
_symmetry_space_group_name_H-M    P1
_symmetry_Int_Tables_number       1
_symmetry_cell_setting            triclinic
loop_
_symmetry_equiv_pos_as_xyz
'x, y, z'
_cell_length_a     11.878238
_cell_length_b     11.878068
_cell_length_c     52.38936
_cell_angle_alpha  90.016056
_cell_angle_beta   90.014354
_cell_angle_gamma 90.052959
loop_
_atom_site_label
_atom_site_type_symbol
_atom_site_fract_x
_atom_site_fract_y
_atom_site_fract_z
_atom_type_partial_charge
Mg0 Mg 0.20171 0.19415 0.15646 0.0
O1 O 0.36067 0.09073 0.16415 0.0
O2 O 0.3553 0.94152 0.13838 0.0
Mg3 Mg 0.21519 0.96914 0.10867 0.0
C4 C 0.40186 -0.00162 0.15616 0.0
C5 C 0.13338 0.28944 0.21099 0.0
O6 O 0.03327 0.30505 0.20099 0.0
O7 O 0.07034 0.06733 0.1706 0.0
O8 O 0.06364 0.96444 0.13517 0.0
O9 O 0.30113 0.30335 0.12884 0.0
O10 O 0.21129 0.1498 0.11782 0.0
C11 C 0.0196 -0.00178 0.15599 0.0
C12 C 0.27397 0.23195 0.11121 0.0
O13 O 0.21508 0.2573 0.19713 0.0
Mg14 Mg 0.80022 0.70119 0.40633 0.0
O15 O 0.90354 0.86044 0.41405 0.0
O16 O 0.05258 0.85555 0.38824 0.0
Mg17 Mg 0.02505 0.71544 0.35851 0.0
C18 C 0.99582 0.9019 0.40604 0.0
C19 C 0.70478 0.63225 0.4608 0.0
O20 O 0.68934 0.53219 0.45074 0.0
O21 O 0.92724 0.57012 0.42044 0.0
O22 O 0.03006 0.56393 0.385 0.0
O23 O 0.69084 0.80037 0.37873 0.0
O24 O 0.84448 0.71104 0.36769 0.0
C25 C 0.99643 0.5197 0.40583 0.0
C26 C 0.76223 0.77349 0.36109 0.0
O27 O 0.73697 0.71415 0.44699 0.0
Mg28 Mg 0.29204 0.29963 0.65647 0.0
O29 O 0.13311 0.40308 0.66417 0.0
O30 O 0.13845 0.55228 0.63842 0.0
Mg31 Mg 0.2785 0.52464 0.6087 0.0
C32 C 0.09191 0.49543 0.65619 0.0
C33 C 0.36045 0.20454 0.71101 0.0
O34 O 0.46063 0.18925 0.70103 0.0
O35 O 0.42346 0.42645 0.67062 0.0
O36 O 0.4301 0.52932 0.6352 0.0
O37 O 0.19257 0.19045 0.62884 0.0
O38 O 0.28241 0.34398 0.61784 0.0
C39 C 0.47418 0.49554 0.65603 0.0
C40 C 0.21971 0.26183 0.61121 0.0
O41 O 0.2787 0.23645 0.69713 0.0
Mg42 Mg 0.6932 0.79226 0.90634 0.0
O43 O 0.58993 0.63303 0.91406 0.0
O44 O 0.44078 0.63785 0.88827 0.0
Mg45 Mg 0.4682 0.77788 0.85854 0.0
C46 C 0.49762 0.59155 0.90606 0.0
C47 C 0.78871 0.86131 0.96082 0.0
O48 O 0.80402 0.96139 0.95077 0.0
O49 O 0.56622 0.92334 0.92046 0.0
O50 O 0.46328 0.92948 0.88503 0.0
O51 O 0.80249 0.69304 0.87873 0.0
O52 O 0.64881 0.78233 0.8677 0.0
C53 C 0.49699 0.97374 0.90585 0.0
C54 C 0.73105 0.71989 0.86109 0.0
O55 O 0.75659 0.77937 0.94699 0.0
Mg56 Mg 0.20167 0.30078 0.03907 0.0
O57 O 0.36093 0.404 0.03135 0.0
O58 O 0.35611 0.55318 0.05713 0.0
Mg59 Mg 0.21606 0.52581 0.08686 0.0
C60 C 0.40242 0.49631 0.03934 0.0
C61 C 0.13263 0.20526 -0.01541 0.0
O62 O 0.03253 0.19003 -0.00536 0.0
O63 O 0.07064 0.42779 0.02494 0.0
O64 O 0.06449 0.53074 0.06037 0.0
O65 O 0.30085 0.19145 0.06668 0.0
O66 O 0.21155 0.34519 0.0777 0.0
C67 C 0.02023 0.49703 0.03954 0.0
C68 C 0.27396 0.26291 0.08431 0.0
O69 O 0.21457 0.23735 -0.00158 0.0
Mg70 Mg 0.69348 0.70123 0.28893 0.0
O71 O 0.59003 0.86016 0.28124 0.0
O72 O 0.44078 0.8548 0.30698 0.0
Mg73 Mg 0.4684 0.71474 0.33669 0.0
C74 C 0.49766 0.90135 0.28921 0.0
C75 C 0.78855 0.63288 0.23439 0.0
O76 O 0.8036 0.53262 0.24435 0.0
O77 O 0.56669 0.5698 0.27477 0.0
O78 O 0.46376 0.56315 0.31019 0.0
O79 O 0.80263 0.80071 0.31657 0.0
O80 O 0.64907 0.7108 0.32756 0.0
C81 C 0.49758 0.51907 0.28936 0.0
C82 C 0.73123 0.7735 0.33419 0.0
O83 O 0.75677 0.71464 0.24828 0.0
Mg84 Mg 0.29195 0.19281 0.53908 0.0
O85 O 0.13268 0.08953 0.53136 0.0
O86 O 0.13756 0.94047 0.55716 0.0
Mg87 Mg 0.27767 0.96795 0.58689 0.0
C88 C 0.09121 -0.00274 0.53936 0.0
C89 C 0.3609 0.28823 0.48461 0.0
O90 O 0.46098 0.30356 0.49466 0.0
O91 O 0.42298 0.06577 0.52496 0.0
O92 O 0.42918 0.96293 0.56039 0.0
O93 O 0.1928 0.30222 0.56668 0.0
O94 O 0.28214 0.14853 0.57771 0.0
C95 C 0.4734 0.99656 0.53956 0.0
C96 C 0.21973 0.23082 0.58431 0.0
O97 O 0.27898 0.25612 0.49842 0.0
Mg98 Mg 0.79977 0.79207 0.78894 0.0
O99 O 0.9032 0.63312 0.78126 0.0
O100 O 0.05243 0.63851 0.80702 0.0
Mg101 Mg 0.02483 0.77864 0.83673 0.0
C102 C 0.99557 0.59193 0.78924 0.0
C103 C 0.70452 0.86034 0.73441 0.0
O104 O 0.68913 0.96052 0.74439 0.0
O105 O 0.92657 0.92346 0.7748 0.0
O106 O 0.0295 0.93016 0.81023 0.0
O107 O 0.6906 0.69265 0.81657 0.0
O108 O 0.84417 0.78256 0.82758 0.0
C109 C 0.9957 0.9742 0.7894 0.0
C110 C 0.76201 0.71988 0.83419 0.0
O111 O 0.73654 0.77864 0.74828 0.0
Mg112 Mg 0.77003 0.70164 0.65698 0.0
O113 O 0.94365 0.622 0.66389 0.0
O114 O 0.90187 0.44746 0.65376 0.0
Mg115 Mg 0.81067 0.46357 0.6152 0.0
C116 C 0.97294 0.51971 0.66159 0.0
C117 C 0.70177 0.84414 0.70674 0.0
O118 O 0.62726 0.89602 0.69248 0.0
O119 O 0.65077 0.56265 0.67144 0.0
O120 O 0.64248 0.4626 0.63543 0.0
O121 O 0.85379 0.81505 0.62771 0.0
O122 O 0.78682 0.64732 0.61938 0.0
C123 C 0.59766 0.49843 0.65603 0.0
C124 C 0.83763 0.73497 0.61135 0.0
O125 O 0.77008 0.77416 0.69696 0.0
Mg126 Mg 0.2908 0.2697 0.90704 0.0
O127 O 0.37108 0.44322 0.9139 0.0
O128 O 0.54532 0.40156 0.90356 0.0
Mg129 Mg 0.52814 0.31037 0.86501 0.0
C130 C 0.47336 0.47256 0.91149 0.0
C131 C 0.14849 0.20217 0.95693 0.0
O132 O 0.09538 0.12827 0.94269 0.0
O133 O 0.42972 0.15009 0.92132 0.0
O134 O 0.52924 0.14219 0.88524 0.0
O135 O 0.17706 0.35366 0.87784 0.0
O136 O 0.3445 0.2866 0.86941 0.0
C137 C 0.49373 0.0972 0.90585 0.0
C138 C 0.2569 0.33752 0.86144 0.0
O139 O 0.21909 0.26978 0.94709 0.0
Mg140 Mg 0.72371 0.7921 0.15697 0.0
O141 O 0.55011 0.87181 0.16387 0.0
O142 O 0.59191 0.04631 0.15373 0.0
Mg143 Mg 0.683 0.03003 0.11517 0.0
C144 C 0.52084 0.9741 0.16156 0.0
C145 C 0.79142 0.64915 0.20673 0.0
O146 O 0.86531 0.59651 0.19244 0.0
O147 O 0.84306 0.93112 0.17142 0.0
O148 O 0.85124 0.03105 0.1354 0.0
O149 O 0.6399 0.67861 0.1277 0.0
O150 O 0.70687 0.84631 0.11938 0.0
C151 C 0.89613 0.99528 0.156 0.0
C152 C 0.65605 0.75865 0.11134 0.0
O153 O 0.72369 0.71973 0.19696 0.0
Mg154 Mg 0.20268 0.22375 0.40703 0.0
O155 O 0.12238 0.05024 0.41387 0.0
O156 O 0.94813 0.09187 0.40351 0.0
Mg157 Mg 0.96534 0.183 0.36497 0.0
C158 C 0.0201 0.0209 0.41146 0.0
C159 C 0.34501 0.29131 0.45694 0.0
O160 O 0.39816 0.36516 0.44271 0.0
O161 O 0.06376 0.3434 0.4213 0.0
O162 O 0.96422 0.3512 0.38521 0.0
O163 O 0.31643 0.13978 0.37784 0.0
O164 O 0.14897 0.2068 0.3694 0.0
C165 C -0.00027 0.39624 0.40582 0.0
C166 C 0.23657 0.1559 0.36143 0.0
O167 O 0.27438 0.22372 0.44709 0.0
Mg168 Mg 0.76938 0.79036 0.53838 0.0
O169 O 0.94286 0.8707 0.53153 0.0
O170 O 0.90125 0.04496 0.5419 0.0
Mg171 Mg 0.81006 0.02775 0.58043 0.0
C172 C 0.97221 0.97299 0.53395 0.0
C173 C 0.70172 0.64812 0.48847 0.0
O174 O 0.62772 0.59516 0.50269 0.0
O175 O 0.6497 0.92923 0.5241 0.0
O176 O 0.64188 0.02883 0.56018 0.0
O177 O 0.85344 0.67665 0.56756 0.0
O178 O 0.7863 0.84411 0.57601 0.0
C179 C 0.59685 0.99328 0.53957 0.0
C180 C 0.83725 0.75652 0.58396 0.0
O181 O 0.76945 0.71862 0.49833 0.0
Mg182 Mg 0.20181 0.27006 0.78844 0.0
O183 O 0.12212 0.44366 0.78154 0.0
O184 O 0.94762 0.40189 0.79168 0.0
Mg185 Mg 0.96389 0.31078 0.83024 0.0
C186 C 0.01983 0.47295 0.78384 0.0
C187 C 0.34429 0.20183 0.73867 0.0
O188 O 0.39636 0.12748 0.75295 0.0
O189 O 0.06279 0.15074 0.77398 0.0
O190 O 0.96285 0.14255 0.81 0.0
O191 O 0.31534 0.35391 0.81769 0.0
O192 O 0.14761 0.2869 0.82603 0.0
C193 C -0.00139 0.09767 0.7894 0.0
C194 C 0.2353 0.33773 0.83405 0.0
O195 O 0.2742 0.27004 0.74845 0.0
Mg196 Mg 0.72424 0.70318 0.03837 0.0
O197 O 0.55075 0.62284 0.03151 0.0
O198 O 0.59239 0.4486 0.04186 0.0
Mg199 Mg 0.68363 0.46581 0.08039 0.0
C200 C 0.52141 0.52056 0.03392 0.0
C201 C 0.7918 0.84545 -0.01152 0.0
O202 O 0.86577 0.89847 0.00271 0.0
O203 O 0.84389 0.56431 0.02408 0.0
O204 O 0.85179 0.46474 0.06016 0.0
O205 O 0.64019 0.8169 0.06755 0.0
O206 O 0.70736 0.64946 0.07599 0.0
C207 C 0.89678 0.50028 0.03955 0.0
C208 C 0.65639 0.73705 0.08395 0.0
O209 O 0.72412 0.77491 -0.00167 0.0
Mg210 Mg 0.29148 0.22326 0.28843 0.0
O211 O 0.3711 0.04963 0.28151 0.0
O212 O 0.54565 0.09139 0.29165 0.0
Mg213 Mg 0.52955 0.18261 0.3302 0.0
C214 C 0.4734 0.02033 0.28381 0.0
C215 C 0.14946 0.29203 0.23866 0.0
O216 O 0.09817 0.367 0.25291 0.0
O217 O 0.43048 0.34247 0.27396 0.0
O218 O 0.53054 0.35079 0.30996 0.0
O219 O 0.17805 0.13945 0.31768 0.0
O220 O 0.3458 0.20647 0.32603 0.0
C221 C 0.49471 0.3956 0.28937 0.0
C222 C 0.25813 0.15565 0.33404 0.0
O223 O 0.21894 0.22324 0.24845 0.0
loop_
_geom_bond_atom_site_label_1
_geom_bond_atom_site_label_2
_geom_bond_distance
_geom_bond_site_symmetry_2
_ccdc_geom_bond_type
Mg0 O1 2.028 . S
Mg0 O7 1.986 . S
Mg0 O9 2.114 . S
Mg0 O10 2.251 . S
Mg0 O13 2.010 . S
O1 Mg0 2.028 . S
O1 C4 1.250 1_545 S
O2 Mg3 2.028 1_565 S
O2 C4 1.248 . S
Mg3 O2 2.028 1_545 S
Mg3 O8 2.031 1_545 S
Mg3 O10 2.081 . S
C4 O1 1.250 1_565 S
C4 O2 1.248 . S
C5 O6 1.264 . S
C5 O13 1.249 . S
O6 C5 1.264 . S
O7 Mg0 1.986 . S
O7 C11 1.246 1_545 S
O8 Mg3 2.031 1_565 S
O8 C11 1.259 . S
O9 Mg0 2.114 . S
O9 C12 1.252 . S
O10 Mg0 2.251 . S
O10 Mg3 2.081 . S
O10 C12 1.273 . S
C11 O7 1.246 1_565 S
C11 O8 1.259 . S
C12 O9 1.252 . S
C12 O10 1.273 . S
O13 Mg0 2.010 . S
O13 C5 1.249 . S
Mg14 O15 2.028 . S
Mg14 O21 1.986 . S
Mg14 O23 2.114 . S
Mg14 O24 2.251 . S
Mg14 O27 2.010 . S
O15 Mg14 2.028 . S
O15 C18 1.250 1_655 S
O16 Mg17 2.028 1_455 S
O16 C18 1.248 . S
Mg17 O16 2.028 1_655 S
Mg17 O22 2.032 1_655 S
Mg17 O24 2.081 . S
C18 O15 1.250 1_455 S
C18 O16 1.248 . S
C19 O20 1.264 . S
C19 O27 1.249 . S
O20 C19 1.264 . S
O21 Mg14 1.986 . S
O21 C25 1.246 1_655 S
O22 Mg17 2.032 1_455 S
O22 C25 1.259 . S
O23 Mg14 2.114 . S
O23 C26 1.252 . S
O24 Mg14 2.251 . S
O24 Mg17 2.081 . S
O24 C26 1.273 . S
C25 O21 1.246 1_455 S
C25 O22 1.259 . S
C26 O23 1.252 . S
C26 O24 1.273 . S
O27 Mg14 2.010 . S
O27 C19 1.249 . S
Mg28 O29 2.028 . S
Mg28 O35 1.986 . S
Mg28 O37 2.114 . S
Mg28 O38 2.251 . S
Mg28 O41 2.010 . S
O29 Mg28 2.028 . S
O29 C32 1.250 . S
O30 Mg31 2.028 . S
O30 C32 1.248 . S
Mg31 O30 2.028 . S
Mg31 O36 2.032 . S
Mg31 O38 2.079 . S
C32 O29 1.250 . S
C32 O30 1.248 . S
C33 O34 1.264 . S
C33 O41 1.249 . S
O34 C33 1.264 . S
O35 Mg28 1.986 . S
O35 C39 1.246 . S
O36 Mg31 2.032 . S
O36 C39 1.259 . S
O37 Mg28 2.114 . S
O37 C40 1.252 . S
O38 Mg28 2.251 . S
O38 Mg31 2.079 . S
O38 C40 1.273 . S
C39 O35 1.246 . S
C39 O36 1.259 . S
C40 O37 1.252 . S
C40 O38 1.273 . S
O41 Mg28 2.010 . S
O41 C33 1.249 . S
Mg42 O43 2.028 . S
Mg42 O49 1.986 . S
Mg42 O51 2.114 . S
Mg42 O52 2.251 . S
Mg42 O55 2.010 . S
O43 Mg42 2.028 . S
O43 C46 1.250 . S
O44 Mg45 2.028 . S
O44 C46 1.248 . S
Mg45 O44 2.028 . S
Mg45 O50 2.032 . S
Mg45 O52 2.079 . S
C46 O43 1.250 . S
C46 O44 1.248 . S
C47 O48 1.248 1_556 S
C47 O55 1.249 . S
O48 C47 1.248 1_554 S
O49 Mg42 1.986 . S
O49 C53 1.246 . S
O50 Mg45 2.032 . S
O50 C53 1.259 . S
O51 Mg42 2.114 . S
O51 C54 1.252 . S
O52 Mg42 2.251 . S
O52 Mg45 2.079 . S
O52 C54 1.273 . S
C53 O49 1.246 . S
C53 O50 1.259 . S
C54 O51 1.252 . S
C54 O52 1.273 . S
O55 Mg42 2.010 . S
O55 C47 1.249 . S
Mg56 O57 2.028 . S
Mg56 O63 1.986 . S
Mg56 O65 2.114 . S
Mg56 O66 2.251 . S
Mg56 O69 2.010 . S
O57 Mg56 2.028 . S
O57 C60 1.250 . S
O58 Mg59 2.028 . S
O58 C60 1.248 . S
Mg59 O58 2.028 . S
Mg59 O64 2.032 . S
Mg59 O66 2.079 . S
C60 O57 1.250 . S
C60 O58 1.248 . S
C61 O62 1.248 1_554 S
C61 O69 1.249 . S
O62 C61 1.248 1_556 S
O63 Mg56 1.986 . S
O63 C67 1.246 . S
O64 Mg59 2.032 . S
O64 C67 1.259 . S
O65 Mg56 2.114 . S
O65 C68 1.252 . S
O66 Mg56 2.251 . S
O66 Mg59 2.079 . S
O66 C68 1.273 . S
C67 O63 1.246 . S
C67 O64 1.259 . S
C68 O65 1.252 . S
C68 O66 1.273 . S
O69 Mg56 2.010 . S
O69 C61 1.249 . S
Mg70 O71 2.028 . S
Mg70 O77 1.986 . S
Mg70 O79 2.114 . S
Mg70 O80 2.251 . S
Mg70 O83 2.010 . S
O71 Mg70 2.028 . S
O71 C74 1.250 . S
O72 Mg73 2.028 . S
O72 C74 1.248 . S
Mg73 O72 2.028 . S
Mg73 O78 2.032 . S
Mg73 O80 2.079 . S
C74 O71 1.250 . S
C74 O72 1.248 . S
C75 O76 1.264 . S
C75 O83 1.249 . S
O76 C75 1.264 . S
O77 Mg70 1.986 . S
O77 C81 1.246 . S
O78 Mg73 2.032 . S
O78 C81 1.259 . S
O79 Mg70 2.114 . S
O79 C82 1.252 . S
O80 Mg70 2.251 . S
O80 Mg73 2.079 . S
O80 C82 1.273 . S
C81 O77 1.246 . S
C81 O78 1.259 . S
C82 O79 1.252 . S
C82 O80 1.273 . S
O83 Mg70 2.010 . S
O83 C75 1.249 . S
Mg84 O85 2.028 . S
Mg84 O91 1.986 . S
Mg84 O93 2.114 . S
Mg84 O94 2.251 . S
Mg84 O97 2.010 . S
O85 Mg84 2.028 . S
O85 C88 1.250 1_545 S
O86 Mg87 2.028 1_565 S
O86 C88 1.248 . S
Mg87 O86 2.028 1_545 S
Mg87 O92 2.032 1_545 S
Mg87 O94 2.081 . S
C88 O85 1.250 1_565 S
C88 O86 1.248 . S
C89 O90 1.264 . S
C89 O97 1.249 . S
O90 C89 1.264 . S
O91 Mg84 1.986 . S
O91 C95 1.246 1_545 S
O92 Mg87 2.032 1_565 S
O92 C95 1.259 . S
O93 Mg84 2.114 . S
O93 C96 1.252 . S
O94 Mg84 2.251 . S
O94 Mg87 2.081 . S
O94 C96 1.273 . S
C95 O91 1.246 1_565 S
C95 O92 1.259 . S
C96 O93 1.252 . S
C96 O94 1.273 . S
O97 Mg84 2.010 . S
O97 C89 1.249 . S
Mg98 O99 2.028 . S
Mg98 O105 1.986 . S
Mg98 O107 2.114 . S
Mg98 O108 2.251 . S
Mg98 O111 2.010 . S
O99 Mg98 2.028 . S
O99 C102 1.250 1_655 S
O100 Mg101 2.028 1_455 S
O100 C102 1.248 . S
Mg101 O100 2.028 1_655 S
Mg101 O106 2.031 1_655 S
Mg101 O108 2.081 . S
C102 O99 1.250 1_455 S
C102 O100 1.248 . S
C103 O104 1.264 . S
C103 O111 1.249 . S
O104 C103 1.264 . S
O105 Mg98 1.986 . S
O105 C109 1.246 1_655 S
O106 Mg101 2.031 1_455 S
O106 C109 1.259 . S
O107 Mg98 2.114 . S
O107 C110 1.252 . S
O108 Mg98 2.251 . S
O108 Mg101 2.081 . S
O108 C110 1.273 . S
C109 O105 1.246 1_455 S
C109 O106 1.259 . S
C110 O107 1.252 . S
C110 O108 1.273 . S
O111 Mg98 2.010 . S
O111 C103 1.249 . S
Mg112 O113 2.028 . S
Mg112 O119 1.986 . S
Mg112 O121 2.114 . S
Mg112 O122 2.251 . S
Mg112 O125 2.010 . S
O113 Mg112 2.028 . S
O113 C116 1.250 . S
O114 Mg115 2.028 . S
O114 C116 1.248 . S
Mg115 O114 2.028 . S
Mg115 O120 2.032 . S
Mg115 O122 2.079 . S
C116 O113 1.250 . S
C116 O114 1.248 . S
C117 O118 1.264 . S
C117 O125 1.249 . S
O118 C117 1.264 . S
O119 Mg112 1.986 . S
O119 C123 1.246 . S
O120 Mg115 2.032 . S
O120 C123 1.259 . S
O121 Mg112 2.114 . S
O121 C124 1.252 . S
O122 Mg112 2.251 . S
O122 Mg115 2.079 . S
O122 C124 1.273 . S
C123 O119 1.246 . S
C123 O120 1.259 . S
C124 O121 1.252 . S
C124 O122 1.273 . S
O125 Mg112 2.010 . S
O125 C117 1.249 . S
Mg126 O127 2.028 . S
Mg126 O133 1.986 . S
Mg126 O135 2.114 . S
Mg126 O136 2.251 . S
Mg126 O139 2.010 . S
O127 Mg126 2.028 . S
O127 C130 1.250 . S
O128 Mg129 2.028 . S
O128 C130 1.248 . S
Mg129 O128 2.028 . S
Mg129 O134 2.032 . S
Mg129 O136 2.079 . S
C130 O127 1.250 . S
C130 O128 1.248 . S
C131 O132 1.247 1_556 S
C131 O139 1.249 . S
O132 C131 1.247 1_554 S
O133 Mg126 1.986 . S
O133 C137 1.246 . S
O134 Mg129 2.032 . S
O134 C137 1.259 . S
O135 Mg126 2.114 . S
O135 C138 1.252 . S
O136 Mg126 2.251 . S
O136 Mg129 2.079 . S
O136 C138 1.273 . S
C137 O133 1.246 . S
C137 O134 1.259 . S
C138 O135 1.252 . S
C138 O136 1.273 . S
O139 Mg126 2.010 . S
O139 C131 1.249 . S
Mg140 O141 2.028 . S
Mg140 O147 1.986 . S
Mg140 O149 2.114 . S
Mg140 O150 2.251 . S
Mg140 O153 2.010 . S
O141 Mg140 2.028 . S
O141 C144 1.250 1_565 S
O142 Mg143 2.028 1_545 S
O142 C144 1.248 . S
Mg143 O142 2.028 1_565 S
Mg143 O148 2.032 1_565 S
Mg143 O150 2.080 . S
C144 O141 1.250 1_545 S
C144 O142 1.248 . S
C145 O146 1.264 . S
C145 O153 1.249 . S
O146 C145 1.264 . S
O147 Mg140 1.986 . S
O147 C151 1.246 1_565 S
O148 Mg143 2.032 1_545 S
O148 C151 1.259 . S
O149 Mg140 2.114 . S
O149 C152 1.252 . S
O150 Mg140 2.251 . S
O150 Mg143 2.080 . S
O150 C152 1.273 . S
C151 O147 1.246 1_545 S
C151 O148 1.259 . S
C152 O149 1.252 . S
C152 O150 1.273 . S
O153 Mg140 2.010 . S
O153 C145 1.249 . S
Mg154 O155 2.028 . S
Mg154 O161 1.986 . S
Mg154 O163 2.114 . S
Mg154 O164 2.251 . S
Mg154 O167 2.010 . S
O155 Mg154 2.028 . S
O155 C158 1.250 1_455 S
O156 Mg157 2.028 1_655 S
O156 C158 1.248 . S
Mg157 O156 2.028 1_455 S
Mg157 O162 2.032 1_455 S
Mg157 O164 2.081 . S
C158 O155 1.250 1_655 S
C158 O156 1.248 . S
C159 O160 1.264 . S
C159 O167 1.249 . S
O160 C159 1.264 . S
O161 Mg154 1.986 . S
O161 C165 1.246 1_455 S
O162 Mg157 2.032 1_655 S
O162 C165 1.259 . S
O163 Mg154 2.114 . S
O163 C166 1.252 . S
O164 Mg154 2.251 . S
O164 Mg157 2.081 . S
O164 C166 1.273 . S
C165 O161 1.246 1_655 S
C165 O162 1.259 . S
C166 O163 1.252 . S
C166 O164 1.273 . S
O167 Mg154 2.010 . S
O167 C159 1.249 . S
Mg168 O169 2.028 . S
Mg168 O175 1.986 . S
Mg168 O177 2.114 . S
Mg168 O178 2.251 . S
Mg168 O181 2.010 . S
O169 Mg168 2.028 . S
O169 C172 1.250 1_565 S
O170 Mg171 2.028 1_545 S
O170 C172 1.248 . S
Mg171 O170 2.028 1_565 S
Mg171 O176 2.032 1_565 S
Mg171 O178 2.081 . S
C172 O169 1.250 1_545 S
C172 O170 1.248 . S
C173 O174 1.264 . S
C173 O181 1.249 . S
O174 C173 1.264 . S
O175 Mg168 1.986 . S
O175 C179 1.246 1_565 S
O176 Mg171 2.032 1_545 S
O176 C179 1.259 . S
O177 Mg168 2.114 . S
O177 C180 1.252 . S
O178 Mg168 2.251 . S
O178 Mg171 2.081 . S
O178 C180 1.273 . S
C179 O175 1.246 1_545 S
C179 O176 1.259 . S
C180 O177 1.252 . S
C180 O178 1.273 . S
O181 Mg168 2.010 . S
O181 C173 1.249 . S
Mg182 O183 2.028 . S
Mg182 O189 1.986 . S
Mg182 O191 2.114 . S
Mg182 O192 2.251 . S
Mg182 O195 2.010 . S
O183 Mg182 2.028 . S
O183 C186 1.250 1_455 S
O184 Mg185 2.028 1_655 S
O184 C186 1.248 . S
Mg185 O184 2.028 1_455 S
Mg185 O190 2.032 1_455 S
Mg185 O192 2.080 . S
C186 O183 1.250 1_655 S
C186 O184 1.248 . S
C187 O188 1.264 . S
C187 O195 1.249 . S
O188 C187 1.264 . S
O189 Mg182 1.986 . S
O189 C193 1.246 1_455 S
O190 Mg185 2.032 1_655 S
O190 C193 1.259 . S
O191 Mg182 2.114 . S
O191 C194 1.252 . S
O192 Mg182 2.251 . S
O192 Mg185 2.080 . S
O192 C194 1.273 . S
C193 O189 1.246 1_655 S
C193 O190 1.259 . S
C194 O191 1.252 . S
C194 O192 1.273 . S
O195 Mg182 2.010 . S
O195 C187 1.249 . S
Mg196 O197 2.028 . S
Mg196 O203 1.986 . S
Mg196 O205 2.114 . S
Mg196 O206 2.251 . S
Mg196 O209 2.010 . S
O197 Mg196 2.028 . S
O197 C200 1.250 . S
O198 Mg199 2.028 . S
O198 C200 1.248 . S
Mg199 O198 2.028 . S
Mg199 O204 2.032 . S
Mg199 O206 2.079 . S
C200 O197 1.250 . S
C200 O198 1.248 . S
C201 O202 1.247 1_554 S
C201 O209 1.249 . S
O202 C201 1.247 1_556 S
O203 Mg196 1.986 . S
O203 C207 1.246 . S
O204 Mg199 2.032 . S
O204 C207 1.259 . S
O205 Mg196 2.114 . S
O205 C208 1.252 . S
O206 Mg196 2.251 . S
O206 Mg199 2.079 . S
O206 C208 1.273 . S
C207 O203 1.246 . S
C207 O204 1.259 . S
C208 O205 1.252 . S
C208 O206 1.273 . S
O209 Mg196 2.010 . S
O209 C201 1.249 . S
Mg210 O211 2.028 . S
Mg210 O217 1.986 . S
Mg210 O219 2.114 . S
Mg210 O220 2.251 . S
Mg210 O223 2.010 . S
O211 Mg210 2.028 . S
O211 C214 1.250 . S
O212 Mg213 2.028 . S
O212 C214 1.248 . S
Mg213 O212 2.028 . S
Mg213 O218 2.032 . S
Mg213 O220 2.079 . S
C214 O211 1.250 . S
C214 O212 1.248 . S
C215 O216 1.264 . S
C215 O223 1.249 . S
O216 C215 1.264 . S
O217 Mg210 1.986 . S
O217 C221 1.246 . S
O218 Mg213 2.032 . S
O218 C221 1.259 . S
O219 Mg210 2.114 . S
O219 C222 1.252 . S
O220 Mg210 2.251 . S
O220 Mg213 2.079 . S
O220 C222 1.273 . S
C221 O217 1.246 . S
C221 O218 1.259 . S
C222 O219 1.252 . S
C222 O220 1.273 . S
O223 Mg210 2.010 . S
O223 C215 1.249 . S
C68 C12 1.344 . S
C26 C82 1.345 . S
C96 C40 1.345 . S
C110 C54 1.344 . S
C180 C124 1.344 . S
C138 C194 1.345 . S
C208 C152 1.345 . S
C166 C222 1.344 . S
C5 C215 1.133 . S
C19 C173 1.134 . S
C33 C187 1.133 . S
C201 C47 1.134 1_554 S
C61 C131 1.134 1_554 S
C75 C145 1.133 . S
C159 C89 1.134 . S
C117 C103 1.133 . S
C11 C151 1.968 1_465 S
C165 C25 1.968 1_655 S
C39 C123 1.968 . S
C137 C53 1.968 1_545 S
C67 C207 1.968 1_455 S
C81 C221 1.968 . S
C179 C95 1.968 1_545 S
C193 C109 1.968 1_645 S
C144 C4 1.950 1_545 S
C18 C158 1.950 1_465 S
C32 C116 1.950 1_455 S
C130 C46 1.950 . S
C200 C60 1.950 . S
C214 C74 1.950 1_545 S
C172 C88 1.950 1_645 S
C102 C186 1.950 1_455 S
