# Generated by pormake.
# Topology uom, (4)-cn, num edge types: 1
# Building blocks:
#     Node 0, Type 0, BuildingBlock: NAWXER_clean_sbu_0, # of connection points: 4
#     Node 1, Type 0, BuildingBlock: NAWXER_clean_sbu_0, # of connection points: 4
#     Node 2, Type 0, BuildingBlock: NAWXER_clean_sbu_0, # of connection points: 4
#     Node 3, Type 0, BuildingBlock: NAWXER_clean_sbu_0, # of connection points: 4
#     Node 4, Type 0, BuildingBlock: NAWXER_clean_sbu_0, # of connection points: 4
#     Node 5, Type 0, BuildingBlock: NAWXER_clean_sbu_0, # of connection points: 4
#     Edge 6, Type (0, 0), BuildingBlock: AJUNOK_clean_linker_0, # of connection points: 2
#     Edge 7, Type (0, 0), BuildingBlock: AJUNOK_clean_linker_0, # of connection points: 2
#     Edge 8, Type (0, 0), BuildingBlock: AJUNOK_clean_linker_0, # of connection points: 2
#     Edge 9, Type (0, 0), BuildingBlock: AJUNOK_clean_linker_0, # of connection points: 2
#     Edge 10, Type (0, 0), BuildingBlock: AJUNOK_clean_linker_0, # of connection points: 2
#     Edge 11, Type (0, 0), BuildingBlock: AJUNOK_clean_linker_0, # of connection points: 2
#     Edge 12, Type (0, 0), BuildingBlock: AJUNOK_clean_linker_0, # of connection points: 2
#     Edge 13, Type (0, 0), BuildingBlock: AJUNOK_clean_linker_0, # of connection points: 2
#     Edge 14, Type (0, 0), BuildingBlock: AJUNOK_clean_linker_0, # of connection points: 2
#     Edge 15, Type (0, 0), BuildingBlock: AJUNOK_clean_linker_0, # of connection points: 2
#     Edge 16, Type (0, 0), BuildingBlock: AJUNOK_clean_linker_0, # of connection points: 2
#     Edge 17, Type (0, 0), BuildingBlock: AJUNOK_clean_linker_0, # of connection points: 2
# Relax obj value: 0.104
# Max RMSD: 0.115
# Mean RMSD: 0.115
data_MOF--net-uom--node1-NAWXER_clean_sbu_0--edge1-AJUNOK_clean_linker_0
_symmetry_space_group_name_H-M    P1
_symmetry_Int_Tables_number       1
_symmetry_cell_setting            triclinic
loop_
_symmetry_equiv_pos_as_xyz
'x, y, z'
_cell_length_a     21.308393
_cell_length_b     20.60685
_cell_length_c     26.988285
_cell_angle_alpha  88.211534
_cell_angle_beta   90.361822
_cell_angle_gamma 118.94671
loop_
_atom_site_label
_atom_site_type_symbol
_atom_site_fract_x
_atom_site_fract_y
_atom_site_fract_z
_atom_type_partial_charge
C0 C 0.28792 0.05837 0.99651 0.0
C1 C 0.36561 0.23056 0.13368 0.0
O2 O 0.32544 0.12874 0.9921 0.0
Zn3 Zn 0.34183 0.15014 0.06265 0.0
O4 O 0.27842 0.02687 1.03949 0.0
Zn5 Zn 0.30304 0.05698 0.11489 0.0
O6 O 0.20507 0.01195 0.14156 0.0
O7 O 0.23367 0.10407 0.0863 0.0
O8 O 0.3427 0.1626 0.1471 0.0
O9 O 0.37533 0.24956 0.0878 0.0
O10 O 0.42089 0.11948 0.0833 0.0
O11 O 0.36939 0.02128 0.13394 0.0
C12 C 0.18794 0.05368 0.11555 0.0
C13 C 0.42463 0.0691 0.11018 0.0
C14 C 0.38074 0.43065 0.43357 0.0
C15 C 0.15867 0.19725 0.41307 0.0
O16 O 0.36645 0.36662 0.45051 0.0
Zn17 Zn 0.27413 0.31138 0.42011 0.0
O18 O 0.33581 0.43756 0.40499 0.0
Zn19 Zn 0.23242 0.36751 0.37341 0.0
O20 O 0.17398 0.4072 0.4018 0.0
O21 O 0.21358 0.35315 0.45633 0.0
O22 O 0.15997 0.25194 0.38824 0.0
O23 O 0.21493 0.20623 0.43545 0.0
O24 O 0.30106 0.31663 0.34406 0.0
O25 O 0.25301 0.37437 0.30197 0.0
C26 C 0.178 0.38704 0.4463 0.0
C27 C 0.29089 0.34196 0.30264 0.0
C28 C 0.05525 0.32389 0.63646 0.0
C29 C 0.96349 0.20278 0.79944 0.0
O30 O 0.9906 0.27852 0.64862 0.0
Zn31 Zn 0.01087 0.2638 0.7168 0.0
O32 O 0.1049 0.34126 0.6688 0.0
Zn33 Zn 0.11434 0.31587 0.74661 0.0
O34 O 0.17625 0.27223 0.74208 0.0
O35 O 0.07243 0.20729 0.70546 0.0
O36 O 0.03169 0.24589 0.8003 0.0
O37 O 0.93069 0.19695 0.75908 0.0
O38 O 0.04779 0.37485 0.74304 0.0
O39 O 0.15693 0.41397 0.7721 0.0
C40 C 0.13527 0.2175 0.71621 0.0
C41 C 0.10526 0.4262 0.76196 0.0
C42 C 0.68762 0.04916 0.09944 0.0
C43 C 0.91654 0.04955 0.10504 0.0
O44 O 0.74656 0.09747 0.11724 0.0
Zn45 Zn 0.80614 0.05444 0.10031 0.0
O46 O 0.68541 0.99429 0.07675 0.0
Zn47 Zn 0.76036 0.95744 0.05677 0.0
O48 O 0.72261 0.85899 0.08937 0.0
O49 O 0.76131 0.95101 0.14148 0.0
O50 O 0.86928 0.99882 0.07854 0.0
O51 O 0.90273 0.0957 0.12617 0.0
O52 O 0.82883 0.0778 1.02226 0.0
O53 O 0.77218 0.97184 0.98439 0.0
C54 C 0.73393 0.88164 0.1336 0.0
C55 C 0.81339 0.04175 0.9821 0.0
C56 C 0.8862 0.92366 0.42757 0.0
C57 C 0.65692 0.69399 0.44739 0.0
O58 O 0.82778 0.91916 0.4429 0.0
Zn59 Zn 0.76788 0.81201 0.43653 0.0
O60 O 0.88687 0.86584 0.41237 0.0
Zn61 Zn 0.8161 0.75098 0.40439 0.0
O62 O 0.80902 0.74029 0.33146 0.0
O63 O 0.7563 0.80131 0.35906 0.0
O64 O 0.70728 0.68591 0.42794 0.0
O65 O 0.66795 0.7585 0.45793 0.0
O66 O 0.81695 0.77034 0.48798 0.0
O67 O 0.86409 0.71155 0.44849 0.0
C68 C 0.77235 0.77321 0.32295 0.0
C69 C 0.85155 0.73398 0.4889 0.0
C70 C 0.14135 0.72382 0.7427 0.0
C71 C 0.17328 0.96919 0.6925 0.0
O72 O 0.09158 0.73684 0.75689 0.0
Zn73 Zn 0.06379 0.82159 0.75354 0.0
O74 O 0.19507 0.77432 0.71885 0.0
Zn75 Zn 0.16365 0.84951 0.71569 0.0
O76 O 0.17558 0.88619 0.78967 0.0
O77 O 0.06872 0.84967 0.82267 0.0
O78 O 0.21811 0.9472 0.68207 0.0
O79 O 0.1166 0.92731 0.71771 0.0
O80 O 0.97519 0.77601 0.71611 0.0
O81 O 0.06979 0.79968 0.67045 0.0
C82 C 0.1368 0.88423 0.82628 0.0
C83 C 0.0019 0.77455 0.6743 0.0
C84 C 0.3894 0.27512 0.21946 0.0
C85 C 0.365 0.2802 0.17183 0.0
C86 C 0.36859 0.29972 0.26084 0.0
C87 C 0.32138 0.32944 0.25658 0.0
H88 H 0.42114 0.24741 0.22526 0.0
H89 H 0.38684 0.29155 0.29687 0.0
S90 S 0.24755 0.36111 0.13894 0.0
N91 N 0.29602 0.32267 0.12178 0.0
N92 N 0.25621 0.3687 0.19968 0.0
C93 C 0.30073 0.33983 0.20856 0.0
C94 C 0.32271 0.31527 0.16617 0.0
C95 C 0.17279 0.43439 0.52759 0.0
C96 C 0.13554 0.39172 0.48716 0.0
C97 C 0.14329 0.41569 0.5755 0.0
C98 C 0.07577 0.35303 0.58475 0.0
H99 H 0.22788 0.47802 0.52293 0.0
H100 H 0.17602 0.4474 0.60596 0.0
S101 S 0.95368 0.2285 0.48994 0.0
N102 N 0.02532 0.28904 0.45816 0.0
N103 N 0.96927 0.25336 0.54826 0.0
C104 C 0.03511 0.31428 0.54383 0.0
C105 C 0.06526 0.33378 0.49494 0.0
C106 C 0.91498 0.14797 0.93595 0.0
C107 C 0.84894 0.08161 0.93463 0.0
C108 C 0.95171 0.18611 0.89228 0.0
C109 C 0.92348 0.16053 0.84518 0.0
H110 H 0.93939 0.17024 0.97115 0.0
H111 H 0.00242 0.23657 0.89555 0.0
S112 S 0.75238 0.98958 0.82085 0.0
N113 N 0.75728 0.99163 0.88193 0.0
N114 N 0.82515 0.06397 0.79996 0.0
C115 C 0.85721 0.09447 0.84323 0.0
C116 C 0.82039 0.05487 0.88782 0.0
C117 C 0.77568 0.80542 0.18269 0.0
C118 C 0.72661 0.83241 0.17663 0.0
C119 C 0.78722 0.78122 0.22965 0.0
C120 C 0.75022 0.78365 0.27203 0.0
H121 H 0.80952 0.8087 0.15184 0.0
H122 H 0.8287 0.7654 0.23324 0.0
S123 S 0.60771 0.83872 0.27342 0.0
N124 N 0.63571 0.85281 0.21521 0.0
N125 N 0.65496 0.80568 0.30281 0.0
C126 C 0.69657 0.80462 0.26519 0.0
C127 C 0.68552 0.82959 0.21769 0.0
C128 C 0.9892 0.7482 0.58344 0.0
C129 C 0.95738 0.75025 0.62876 0.0
C130 C 0.95251 0.73663 0.53835 0.0
C131 C 0.88272 0.72712 0.53676 0.0
H132 H 0.04416 0.75877 0.58231 0.0
H133 H 0.98074 0.74003 0.50429 0.0
S134 S 0.771 0.71661 0.6449 0.0
N135 N 0.84845 0.73316 0.6692 0.0
N136 N 0.77999 0.71203 0.58459 0.0
C137 C 0.84845 0.72386 0.58195 0.0
C138 C 0.88556 0.73518 0.62789 0.0
C139 C 0.27536 0.03629 0.90509 0.0
C140 C 0.24916 0.01267 0.95364 0.0
C141 C 0.2386 0.99388 0.86437 0.0
C142 C 0.17313 0.92732 0.87044 0.0
H143 H 0.32503 0.08744 0.89852 0.0
H144 H 0.26128 0.01401 0.82765 0.0
S145 S 0.07981 0.84235 0.98953 0.0
N146 N 0.15303 0.91798 1.00539 0.0
N147 N 0.08292 0.84067 0.92849 0.0
C148 C 0.14552 0.9038 0.91856 0.0
C149 C 0.18386 0.94577 0.96022 0.0
C150 C 0.08198 0.04993 0.15785 0.0
C151 C 0.11516 0.04395 0.11469 0.0
C152 C 0.01847 0.05491 0.15483 0.0
C153 C 0.98678 0.05324 0.10865 0.0
H154 H 0.10643 0.05332 0.19367 0.0
H155 H 0.99352 0.05889 0.18861 0.0
S156 S 0.05351 0.03866 0.98528 0.0
N157 N 0.11236 0.0376 1.02487 0.0
N158 N 0.99287 0.04514 1.01937 0.0
C159 C 0.01931 0.04653 0.06559 0.0
C160 C 0.08363 0.04231 0.06858 0.0
C161 C 0.95869 0.06018 0.40928 0.0
C162 C 0.95463 0.99395 0.42784 0.0
C163 C 0.02508 0.12516 0.40422 0.0
C164 C 0.08976 0.1267 0.41838 0.0
H165 H 0.91063 0.06122 0.39712 0.0
H166 H 0.02548 0.17466 0.38907 0.0
S167 S 0.10594 0.96839 0.47389 0.0
N168 N 0.01942 0.93398 0.4632 0.0
N169 N 0.14391 0.0563 0.45489 0.0
C170 C 0.0857 0.06112 0.43879 0.0
C171 C 0.01824 0.99476 0.44319 0.0
C172 C 0.21316 0.15774 0.7256 0.0
C173 C 0.15856 0.16424 0.69997 0.0
C174 C 0.22675 0.0988 0.71704 0.0
C175 C 0.18673 0.04509 0.68228 0.0
H176 H 0.24175 0.19486 0.75516 0.0
H177 H 0.26332 0.09092 0.74139 0.0
S178 S 0.04949 0.04588 0.59785 0.0
N179 N 0.07318 0.11893 0.63228 0.0
N180 N 0.09841 0.00786 0.61708 0.0
C181 C 0.13785 0.05559 0.65273 0.0
C182 C 0.1237 0.11522 0.66141 0.0
C183 C 0.55409 0.99146 0.10847 0.0
C184 C 0.62163 0.05572 0.10468 0.0
C185 C 0.49066 0.99616 0.11232 0.0
C186 C 0.49235 0.06529 0.11116 0.0
H187 H 0.55018 0.93704 0.10857 0.0
H188 H 0.43984 0.94528 0.11458 0.0
S189 S 0.65529 0.25009 0.10266 0.0
N190 N 0.68629 0.19058 0.10151 0.0
N191 N 0.56718 0.19935 0.10709 0.0
C192 C 0.55951 0.1299 0.10781 0.0
C193 C 0.62411 0.12515 0.10505 0.0
C194 C 0.52343 0.63284 0.44161 0.0
C195 C 0.58537 0.62797 0.45314 0.0
C196 C 0.45688 0.56858 0.43705 0.0
C197 C 0.44975 0.49725 0.44461 0.0
H198 H 0.52705 0.68633 0.43325 0.0
H199 H 0.41107 0.5749 0.42614 0.0
S200 S 0.59492 0.45565 0.48162 0.0
N201 N 0.6348 0.54704 0.47627 0.0
N202 N 0.50979 0.42642 0.46849 0.0
C203 C 0.51063 0.49207 0.45934 0.0
C204 C 0.57843 0.55741 0.46335 0.0
C205 C 0.19186 0.636 0.74991 0.0
C206 C 0.13264 0.64847 0.75207 0.0
C207 C 0.18319 0.56417 0.7564 0.0
C208 C 0.11484 0.50211 0.76442 0.0
H209 H 0.24512 0.68183 0.74252 0.0
H210 H 0.23 0.5569 0.75281 0.0
S211 S 0.94282 0.50473 0.77567 0.0
N212 N 0.00334 0.59234 0.76515 0.0
N213 N 0.98765 0.45812 0.77654 0.0
C214 C 0.05561 0.51404 0.7681 0.0
C215 C 0.06435 0.58697 0.76213 0.0
loop_
_geom_bond_atom_site_label_1
_geom_bond_atom_site_label_2
_geom_bond_distance
_geom_bond_site_symmetry_2
_ccdc_geom_bond_type
C0 O2 1.247 . S
C0 O4 1.257 1_545 S
C1 O8 1.247 . S
C1 O9 1.258 . S
O2 C0 1.247 . S
O2 Zn3 2.026 . S
Zn3 O2 2.026 . S
Zn3 O7 2.035 1_556 S
Zn3 O9 2.038 1_556 S
Zn3 O10 2.028 1_556 S
O4 C0 1.257 1_565 S
O4 Zn5 2.035 1_566 S
Zn5 O4 2.035 1_544 S
Zn5 O6 2.028 . S
Zn5 O8 2.028 . S
Zn5 O11 2.035 . S
O6 Zn5 2.028 . S
O6 C12 1.247 . S
O7 Zn3 2.035 1_554 S
O7 C12 1.258 . S
O8 C1 1.247 . S
O8 Zn5 2.028 . S
O9 C1 1.258 . S
O9 Zn3 2.038 1_554 S
O10 Zn3 2.028 1_554 S
O10 C13 1.247 . S
O11 Zn5 2.035 . S
O11 C13 1.258 . S
C12 O6 1.247 . S
C12 O7 1.258 . S
C13 O10 1.247 . S
C13 O11 1.258 . S
C14 O16 1.247 . S
C14 O18 1.258 . S
C15 O22 1.247 . S
C15 O23 1.258 . S
O16 C14 1.247 . S
O16 Zn17 2.028 . S
Zn17 O16 2.028 . S
Zn17 O21 2.035 . S
Zn17 O23 2.035 . S
Zn17 O24 2.028 . S
O18 C14 1.258 . S
O18 Zn19 2.035 . S
Zn19 O18 2.035 . S
Zn19 O20 2.028 . S
Zn19 O22 2.028 . S
Zn19 O25 2.035 . S
O20 Zn19 2.028 . S
O20 C26 1.247 . S
O21 Zn17 2.035 . S
O21 C26 1.258 . S
O22 C15 1.247 . S
O22 Zn19 2.028 . S
O23 C15 1.258 . S
O23 Zn17 2.035 . S
O24 Zn17 2.028 . S
O24 C27 1.247 . S
O25 Zn19 2.035 . S
O25 C27 1.258 . S
C26 O20 1.247 . S
C26 O21 1.258 . S
C27 O24 1.247 . S
C27 O25 1.258 . S
C28 O30 1.247 1_455 S
C28 O32 1.258 . S
C29 O36 1.247 1_655 S
C29 O37 1.258 . S
O30 C28 1.247 1_655 S
O30 Zn31 2.028 . S
Zn31 O30 2.028 . S
Zn31 O35 2.035 . S
Zn31 O37 2.035 . S
Zn31 O38 2.028 . S
O32 C28 1.258 . S
O32 Zn33 2.035 . S
Zn33 O32 2.035 . S
Zn33 O34 2.028 . S
Zn33 O36 2.028 . S
Zn33 O39 2.035 . S
O34 Zn33 2.028 . S
O34 C40 1.247 . S
O35 Zn31 2.035 . S
O35 C40 1.258 1_655 S
O36 C29 1.247 1_455 S
O36 Zn33 2.028 . S
O37 C29 1.258 . S
O37 Zn31 2.035 . S
O38 Zn31 2.028 . S
O38 C41 1.247 1_655 S
O39 Zn33 2.035 . S
O39 C41 1.258 . S
C40 O34 1.247 . S
C40 O35 1.258 1_455 S
C41 O38 1.247 1_455 S
C41 O39 1.258 . S
C42 O44 1.247 . S
C42 O46 1.258 1_545 S
C43 O50 1.247 1_545 S
C43 O51 1.258 . S
O44 C42 1.247 . S
O44 Zn45 2.028 . S
Zn45 O44 2.028 . S
Zn45 O49 2.035 . S
Zn45 O51 2.035 . S
Zn45 O52 2.028 1_554 S
O46 C42 1.258 1_565 S
O46 Zn47 2.036 . S
Zn47 O46 2.036 . S
Zn47 O48 2.037 . S
Zn47 O50 2.028 . S
Zn47 O53 2.027 1_554 S
O48 Zn47 2.037 . S
O48 C54 1.247 . S
O49 Zn45 2.035 . S
O49 C54 1.258 1_545 S
O50 C43 1.247 1_565 S
O50 Zn47 2.028 . S
O51 C43 1.258 . S
O51 Zn45 2.035 . S
O52 Zn45 2.028 1_556 S
O52 C55 1.247 . S
O53 Zn47 2.027 1_556 S
O53 C55 1.258 1_565 S
C54 O48 1.247 . S
C54 O49 1.258 1_565 S
C55 O52 1.247 . S
C55 O53 1.258 1_545 S
C56 O58 1.247 . S
C56 O60 1.258 . S
C57 O64 1.247 . S
C57 O65 1.258 . S
O58 C56 1.247 . S
O58 Zn59 2.028 . S
Zn59 O58 2.028 . S
Zn59 O63 2.035 . S
Zn59 O65 2.035 . S
Zn59 O66 2.028 . S
O60 C56 1.258 . S
O60 Zn61 2.035 . S
Zn61 O60 2.035 . S
Zn61 O62 2.028 . S
Zn61 O64 2.028 . S
Zn61 O67 2.035 . S
O62 Zn61 2.028 . S
O62 C68 1.247 . S
O63 Zn59 2.035 . S
O63 C68 1.258 . S
O64 C57 1.247 . S
O64 Zn61 2.028 . S
O65 C57 1.258 . S
O65 Zn59 2.035 . S
O66 Zn59 2.028 . S
O66 C69 1.247 . S
O67 Zn61 2.035 . S
O67 C69 1.258 . S
C68 O62 1.247 . S
C68 O63 1.258 . S
C69 O66 1.247 . S
C69 O67 1.258 . S
C70 O72 1.247 . S
C70 O74 1.258 . S
C71 O78 1.247 . S
C71 O79 1.258 . S
O72 C70 1.247 . S
O72 Zn73 2.028 . S
Zn73 O72 2.028 . S
Zn73 O77 2.035 . S
Zn73 O79 2.035 . S
Zn73 O80 2.028 . S
O74 C70 1.258 . S
O74 Zn75 2.035 . S
Zn75 O74 2.035 . S
Zn75 O76 2.028 . S
Zn75 O78 2.028 . S
Zn75 O81 2.035 . S
O76 Zn75 2.028 . S
O76 C82 1.247 . S
O77 Zn73 2.035 . S
O77 C82 1.258 . S
O78 C71 1.247 . S
O78 Zn75 2.028 . S
O79 C71 1.258 . S
O79 Zn73 2.035 . S
O80 Zn73 2.028 . S
O80 C83 1.247 . S
O81 Zn75 2.035 . S
O81 C83 1.258 . S
C82 O76 1.247 . S
C82 O77 1.258 . S
C83 O80 1.247 . S
C83 O81 1.258 . S
C84 C85 1.369 . S
C84 C86 1.419 . S
C84 H88 0.930 . S
C85 C84 1.369 . S
C85 C94 1.429 . S
C86 C84 1.419 . S
C86 C87 1.363 . S
C86 H89 0.929 . S
C87 C86 1.363 . S
C87 C93 1.428 . S
H88 C84 0.930 . S
H89 C86 0.929 . S
S90 N91 1.613 . S
S90 N92 1.610 . S
N91 S90 1.613 . S
N91 C94 1.350 . S
N92 S90 1.610 . S
N92 C93 1.351 . S
C93 C87 1.428 . S
C93 N92 1.351 . S
C93 C94 1.434 . S
C94 C85 1.429 . S
C94 N91 1.350 . S
C94 C93 1.434 . S
C95 C96 1.369 . S
C95 C97 1.419 . S
C95 H99 0.930 . S
C96 C95 1.369 . S
C96 C105 1.429 . S
C97 C95 1.419 . S
C97 C98 1.363 . S
C97 H100 0.929 . S
C98 C97 1.363 . S
C98 C104 1.428 . S
H99 C95 0.930 . S
H100 C97 0.929 . S
S101 N102 1.613 . S
S101 N103 1.610 . S
N102 S101 1.613 . S
N102 C105 1.350 . S
N103 S101 1.610 . S
N103 C104 1.351 . S
C104 C98 1.428 . S
C104 N103 1.351 . S
C104 C105 1.434 . S
C105 C96 1.429 . S
C105 N102 1.350 . S
C105 C104 1.434 . S
C106 C107 1.369 . S
C106 C108 1.419 . S
C106 H110 0.930 . S
C107 C106 1.369 . S
C107 C116 1.429 . S
C108 C106 1.419 . S
C108 C109 1.363 . S
C108 H111 0.929 . S
C109 C108 1.363 . S
C109 C115 1.428 . S
H110 C106 0.930 . S
H111 C108 0.929 . S
S112 N113 1.613 . S
S112 N114 1.610 . S
N113 S112 1.613 . S
N113 C116 1.350 . S
N114 S112 1.610 . S
N114 C115 1.351 . S
C115 C109 1.428 . S
C115 N114 1.351 . S
C115 C116 1.434 . S
C116 C107 1.429 . S
C116 N113 1.350 . S
C116 C115 1.434 . S
C117 C118 1.369 . S
C117 C119 1.419 . S
C117 H121 0.930 . S
C118 C117 1.369 . S
C118 C127 1.429 . S
C119 C117 1.419 . S
C119 C120 1.363 . S
C119 H122 0.929 . S
C120 C119 1.363 . S
C120 C126 1.428 . S
H121 C117 0.930 . S
H122 C119 0.929 . S
S123 N124 1.613 . S
S123 N125 1.610 . S
N124 S123 1.613 . S
N124 C127 1.350 . S
N125 S123 1.610 . S
N125 C126 1.351 . S
C126 C120 1.428 . S
C126 N125 1.351 . S
C126 C127 1.434 . S
C127 C118 1.429 . S
C127 N124 1.350 . S
C127 C126 1.434 . S
C128 C129 1.370 . S
C128 C130 1.419 1_455 S
C128 H132 0.930 . S
C129 C128 1.370 . S
C129 C138 1.425 1_455 S
C130 C128 1.419 1_655 S
C130 C131 1.363 . S
C130 H133 0.929 1_655 S
C131 C130 1.363 . S
C131 C137 1.428 . S
H132 C128 0.930 . S
H133 C130 0.929 1_455 S
S134 N135 1.613 . S
S134 N136 1.610 . S
N135 S134 1.613 . S
N135 C138 1.350 . S
N136 S134 1.610 . S
N136 C137 1.351 . S
C137 C131 1.428 . S
C137 N136 1.351 . S
C137 C138 1.434 . S
C138 C129 1.425 1_655 S
C138 N135 1.350 . S
C138 C137 1.434 . S
C139 C140 1.369 . S
C139 C141 1.419 . S
C139 H143 0.930 . S
C140 C139 1.369 . S
C140 C149 1.429 . S
C141 C139 1.419 . S
C141 C142 1.363 . S
C141 H144 0.929 . S
C142 C141 1.363 . S
C142 C148 1.428 . S
H143 C139 0.930 . S
H144 C141 0.929 . S
S145 N146 1.613 . S
S145 N147 1.610 . S
N146 S145 1.613 . S
N146 C149 1.350 . S
N147 S145 1.610 . S
N147 C148 1.351 . S
C148 C142 1.428 . S
C148 N147 1.351 . S
C148 C149 1.434 . S
C149 C140 1.429 . S
C149 N146 1.350 . S
C149 C148 1.434 . S
C150 C151 1.369 . S
C150 C152 1.419 . S
C150 H154 0.930 . S
C151 C150 1.369 . S
C151 C160 1.429 1_554 S
C152 C150 1.419 . S
C152 C153 1.363 1_455 S
C152 H155 0.929 1_445 S
C153 C152 1.363 1_655 S
C153 C159 1.428 1_654 S
H154 C150 0.930 . S
H155 C152 0.929 1_665 S
S156 N157 1.613 . S
S156 N158 1.610 1_455 S
N157 S156 1.613 . S
N157 C160 1.350 . S
N158 S156 1.610 1_655 S
N158 C159 1.351 1_655 S
C159 C153 1.428 1_456 S
C159 N158 1.351 1_455 S
C159 C160 1.434 . S
C160 C151 1.429 1_556 S
C160 N157 1.350 . S
C160 C159 1.434 . S
C161 C162 1.369 1_545 S
C161 C163 1.419 . S
C161 H165 0.930 1_445 S
C162 C161 1.369 1_565 S
C162 C171 1.429 1_565 S
C163 C161 1.419 . S
C163 C164 1.363 . S
C163 H166 0.929 . S
C164 C163 1.363 . S
C164 C170 1.428 . S
H165 C161 0.930 1_665 S
H166 C163 0.929 . S
S167 N168 1.613 1_545 S
S167 N169 1.610 . S
N168 S167 1.613 1_565 S
N168 C171 1.350 1_565 S
N169 S167 1.610 . S
N169 C170 1.351 . S
C170 C164 1.428 . S
C170 N169 1.351 . S
C170 C171 1.434 . S
C171 C162 1.429 1_545 S
C171 N168 1.350 1_545 S
C171 C170 1.434 . S
C172 C173 1.369 1_655 S
C172 C174 1.419 1_645 S
C172 H176 0.930 . S
C173 C172 1.369 1_455 S
C173 C182 1.429 . S
C174 C172 1.419 1_465 S
C174 C175 1.363 1_565 S
C174 H177 0.929 1_455 S
C175 C174 1.363 1_545 S
C175 C181 1.428 . S
H176 C172 0.930 . S
H177 C174 0.929 1_655 S
S178 N179 1.613 . S
S178 N180 1.610 . S
N179 S178 1.613 . S
N179 C182 1.350 . S
N180 S178 1.610 . S
N180 C181 1.351 . S
C181 C175 1.428 . S
C181 N180 1.351 . S
C181 C182 1.434 . S
C182 C173 1.429 . S
C182 N179 1.350 . S
C182 C181 1.434 . S
C183 C184 1.369 1_556 S
C183 C185 1.419 . S
C183 H187 0.930 1_545 S
C184 C183 1.369 1_554 S
C184 C193 1.429 . S
C185 C183 1.419 . S
C185 C186 1.363 1_556 S
C185 H188 0.929 . S
C186 C185 1.363 1_554 S
C186 C192 1.428 . S
H187 C183 0.930 1_565 S
H188 C185 0.929 . S
S189 N190 1.613 . S
S189 N191 1.610 . S
N190 S189 1.613 . S
N190 C193 1.350 . S
N191 S189 1.610 . S
N191 C192 1.351 . S
C192 C186 1.428 . S
C192 N191 1.351 . S
C192 C193 1.434 . S
C193 C184 1.429 . S
C193 N190 1.350 . S
C193 C192 1.434 . S
C194 C195 1.369 . S
C194 C196 1.419 . S
C194 H198 0.930 . S
C195 C194 1.369 . S
C195 C204 1.429 . S
C196 C194 1.419 . S
C196 C197 1.363 . S
C196 H199 0.929 . S
C197 C196 1.363 . S
C197 C203 1.428 . S
H198 C194 0.930 . S
H199 C196 0.929 . S
S200 N201 1.613 . S
S200 N202 1.610 . S
N201 S200 1.613 . S
N201 C204 1.350 . S
N202 S200 1.610 . S
N202 C203 1.351 . S
C203 C197 1.428 . S
C203 N202 1.351 . S
C203 C204 1.434 . S
C204 C195 1.429 . S
C204 N201 1.350 . S
C204 C203 1.434 . S
C205 C206 1.369 . S
C205 C207 1.419 . S
C205 H209 0.930 . S
C206 C205 1.369 . S
C206 C215 1.429 . S
C207 C205 1.419 . S
C207 C208 1.363 . S
C207 H210 0.929 . S
C208 C207 1.363 . S
C208 C214 1.428 . S
H209 C205 0.930 . S
H210 C207 0.929 . S
S211 N212 1.613 1_655 S
S211 N213 1.610 . S
N212 S211 1.613 1_455 S
N212 C215 1.350 . S
N213 S211 1.610 . S
N213 C214 1.351 1_655 S
C214 C208 1.428 . S
C214 N213 1.351 1_455 S
C214 C215 1.434 . S
C215 C206 1.429 . S
C215 N212 1.350 . S
C215 C214 1.434 . S
C85 C1 1.708 . S
C87 C27 1.673 . S
C96 C26 1.708 . S
C98 C28 1.675 . S
C107 C55 1.674 . S
C109 C29 1.709 . S
C118 C54 1.707 . S
C120 C68 1.672 . S
C129 C83 1.674 . S
C131 C69 1.710 . S
C140 C0 1.669 1_565 S
C142 C82 1.709 . S
C151 C12 1.262 . S
C153 C43 1.257 . S
C162 C56 1.261 1_455 S
C164 C15 1.261 . S
C173 C40 1.255 . S
C175 C71 1.262 1_545 S
C184 C42 1.573 . S
C186 C13 1.575 . S
C195 C57 1.579 . S
C197 C14 1.573 . S
C206 C70 1.572 . S
C208 C41 1.576 . S
