# Generated by pormake.
# Topology sxb, (6)-cn, num edge types: 1
# Building blocks:
#     Node 0, Type 0, BuildingBlock: CIFDUS_clean_sbu_1, # of connection points: 6
#     Node 1, Type 0, BuildingBlock: CIFDUS_clean_sbu_1, # of connection points: 6
#     Node 2, Type 0, BuildingBlock: CIFDUS_clean_sbu_1, # of connection points: 6
#     Node 3, Type 0, BuildingBlock: CIFDUS_clean_sbu_1, # of connection points: 6
#     Edge 4, Type (0, 0), None
#     Edge 5, Type (0, 0), None
#     Edge 6, Type (0, 0), None
#     Edge 7, Type (0, 0), None
#     Edge 8, Type (0, 0), None
#     Edge 9, Type (0, 0), None
#     Edge 10, Type (0, 0), None
#     Edge 11, Type (0, 0), None
#     Edge 12, Type (0, 0), None
#     Edge 13, Type (0, 0), None
#     Edge 14, Type (0, 0), None
#     Edge 15, Type (0, 0), None
# Relax obj value: 0.098
# Max RMSD: 0.134
# Mean RMSD: 0.134
data_MOF--net-sxb--node1-CIFDUS_clean_sbu_1--edge1-none
_symmetry_space_group_name_H-M    P1
_symmetry_Int_Tables_number       1
_symmetry_cell_setting            triclinic
loop_
_symmetry_equiv_pos_as_xyz
'x, y, z'
_cell_length_a     7.3490049
_cell_length_b     13.350953
_cell_length_c     14.20235
_cell_angle_alpha  90.003072
_cell_angle_beta   100.88279
_cell_angle_gamma 89.99922
loop_
_atom_site_label
_atom_site_type_symbol
_atom_site_fract_x
_atom_site_fract_y
_atom_site_fract_z
_atom_type_partial_charge
O0 O 0.08291 0.86243 1.00152 0.0
Mn1 Mn -0.0027 0.01192 0.02005 0.0
O2 O 0.31448 0.8259 0.1275 0.0
Mn3 Mn 0.32036 0.94703 0.19174 0.0
O4 O 0.91169 0.16141 0.03857 0.0
O5 O 0.89987 0.02675 0.87755 0.0
Mn6 Mn 0.67424 0.07681 0.84835 0.0
O7 O 0.73438 0.98135 0.04658 0.0
O8 O 0.68013 0.19794 0.91259 0.0
O9 O 0.26022 0.04249 0.99351 0.0
O10 O 0.45447 0.03551 0.13464 0.0
O11 O 0.76004 0.06288 0.73445 0.0
O12 O 0.54012 0.98833 0.90545 0.0
C13 C 0.0839 0.99162 0.25207 0.0
C14 C 0.22008 0.80703 0.04435 0.0
C15 C 0.77453 0.21681 0.99575 0.0
C16 C 0.91069 0.03222 0.78802 0.0
C17 C 0.5713 0.99289 0.9963 0.0
C18 C 0.4233 0.03095 0.0438 0.0
O19 O 0.09473 0.99708 0.16255 0.0
O20 O 0.23455 0.96095 0.30565 0.0
O21 O 0.26021 0.98134 0.49351 0.0
Mn22 Mn -0.00271 0.01192 0.52004 0.0
O23 O 0.45446 0.98836 0.63464 0.0
Mn24 Mn 0.32034 0.07684 0.69175 0.0
O25 O 0.73437 0.04251 0.54657 0.0
O26 O 0.89987 0.99705 0.37755 0.0
Mn27 Mn 0.67424 0.94701 0.34834 0.0
O28 O 0.91167 0.86244 0.53857 0.0
O29 O 0.54012 0.03549 0.40544 0.0
O30 O 0.0829 0.16141 0.50151 0.0
O31 O 0.31444 0.19796 0.62751 0.0
O32 O 0.76004 0.96091 0.23442 0.0
O33 O 0.68013 0.82588 0.41258 0.0
C34 C 0.08389 0.03231 0.75206 0.0
C35 C 0.42328 0.99291 0.5438 0.0
C36 C 0.5713 0.03094 0.49629 0.0
C37 C 0.9107 0.99153 0.28803 0.0
C38 C 0.77451 0.80703 0.49575 0.0
C39 C 0.22006 0.21682 0.54434 0.0
O40 O 0.09471 0.02679 0.66254 0.0
O41 O 0.23455 0.06292 0.80567 0.0
O42 O 0.58291 0.36243 1.00153 0.0
Mn43 Mn 0.4973 0.51192 0.02005 0.0
O44 O 0.81448 0.3259 0.12751 0.0
Mn45 Mn 0.82036 0.44703 0.19174 0.0
O46 O 0.4117 0.66141 0.03857 0.0
O47 O 0.39987 0.52675 0.87755 0.0
Mn48 Mn 0.17424 0.57681 0.84835 0.0
O49 O 0.23438 0.48135 0.04658 0.0
O50 O 0.18013 0.69794 0.91259 0.0
O51 O 0.76022 0.54249 0.99351 0.0
O52 O 0.95447 0.53552 0.13464 0.0
O53 O 0.26004 0.56288 0.73445 0.0
O54 O 0.04012 0.48833 0.90545 0.0
C55 C 0.5839 0.49162 0.25207 0.0
C56 C 0.72007 0.30703 0.04435 0.0
C57 C 0.27453 0.71681 0.99575 0.0
C58 C 0.41069 0.53221 0.78802 0.0
C59 C 0.0713 0.49289 0.9963 0.0
C60 C 0.9233 0.53095 0.0438 0.0
O61 O 0.59473 0.49709 0.16255 0.0
O62 O 0.73455 0.46095 0.30565 0.0
O63 O 0.76021 0.48134 0.49351 0.0
Mn64 Mn 0.49729 0.51192 0.52004 0.0
O65 O 0.95446 0.48836 0.63464 0.0
Mn66 Mn 0.82034 0.57684 0.69175 0.0
O67 O 0.23437 0.5425 0.54657 0.0
O68 O 0.39987 0.49705 0.37755 0.0
Mn69 Mn 0.17424 0.44701 0.34834 0.0
O70 O 0.41167 0.36244 0.53857 0.0
O71 O 0.04012 0.53549 0.40544 0.0
O72 O 0.5829 0.66141 0.50151 0.0
O73 O 0.81444 0.69796 0.62751 0.0
O74 O 0.26004 0.46092 0.23442 0.0
O75 O 0.18013 0.32588 0.41258 0.0
C76 C 0.58389 0.5323 0.75206 0.0
C77 C 0.92328 0.49291 0.5438 0.0
C78 C 0.0713 0.53094 0.49629 0.0
C79 C 0.4107 0.49153 0.28803 0.0
C80 C 0.27452 0.30703 0.49574 0.0
C81 C 0.72006 0.71682 0.54434 0.0
O82 O 0.59471 0.52679 0.66254 0.0
O83 O 0.73455 0.56292 0.80567 0.0
loop_
_geom_bond_atom_site_label_1
_geom_bond_atom_site_label_2
_geom_bond_distance
_geom_bond_site_symmetry_2
_ccdc_geom_bond_type
O0 Mn1 2.163 1_566 S
O0 C14 1.244 1_556 S
Mn1 O0 2.163 1_544 S
Mn1 O4 2.160 1_455 S
Mn1 O5 2.221 1_454 S
Mn1 O7 2.163 1_445 S
Mn1 O9 2.160 . S
Mn1 O19 2.221 . S
O2 Mn3 2.087 . S
O2 C14 1.256 . S
Mn3 O2 2.087 . S
Mn3 O10 2.089 . S
Mn3 O19 2.290 1_565 S
Mn3 O20 2.251 . S
O4 Mn1 2.160 1_655 S
O4 C15 1.239 . S
O5 Mn1 2.221 1_656 S
O5 Mn6 2.290 . S
O5 C16 1.278 1_545 S
Mn6 O5 2.290 . S
Mn6 O8 2.089 . S
Mn6 O11 2.252 . S
Mn6 O12 2.087 . S
O7 Mn1 2.163 1_665 S
O7 C17 1.244 1_554 S
O8 Mn6 2.089 . S
O8 C15 1.256 1_556 S
O9 Mn1 2.160 . S
O9 C18 1.239 . S
O10 Mn3 2.089 . S
O10 C18 1.256 1_565 S
O11 Mn6 2.252 . S
O11 C16 1.241 1_545 S
O12 Mn6 2.087 . S
O12 C17 1.256 1_545 S
C13 O19 1.278 1_565 S
C13 O20 1.241 . S
C14 O0 1.244 1_554 S
C14 O2 1.256 . S
C15 O4 1.239 . S
C15 O8 1.256 1_554 S
C16 O5 1.278 1_565 S
C16 O11 1.241 1_565 S
C17 O7 1.244 1_556 S
C17 O12 1.256 1_565 S
C18 O9 1.239 . S
C18 O10 1.256 1_545 S
O19 Mn1 2.221 . S
O19 Mn3 2.290 1_545 S
O19 C13 1.278 1_545 S
O20 Mn3 2.251 . S
O20 C13 1.241 . S
O21 Mn22 2.163 1_465 S
O21 C35 1.244 . S
Mn22 O21 2.163 1_645 S
Mn22 O25 2.160 . S
Mn22 O26 2.221 . S
Mn22 O28 2.163 1_545 S
Mn22 O30 2.160 1_655 S
Mn22 O40 2.221 1_655 S
O23 Mn24 2.087 . S
O23 C35 1.256 1_545 S
Mn24 O23 2.087 . S
Mn24 O31 2.089 . S
Mn24 O40 2.290 . S
Mn24 O41 2.252 . S
O25 Mn22 2.160 . S
O25 C36 1.239 . S
O26 Mn22 2.221 . S
O26 Mn27 2.290 1_545 S
O26 C37 1.278 1_545 S
Mn27 O26 2.290 1_565 S
Mn27 O29 2.089 . S
Mn27 O32 2.251 . S
Mn27 O33 2.087 . S
O28 Mn22 2.163 1_565 S
O28 C38 1.244 . S
O29 Mn27 2.089 . S
O29 C36 1.256 1_565 S
O30 Mn22 2.160 1_455 S
O30 C39 1.239 . S
O31 Mn24 2.089 . S
O31 C39 1.256 . S
O32 Mn27 2.251 . S
O32 C37 1.241 . S
O33 Mn27 2.087 . S
O33 C38 1.256 . S
C34 O40 1.278 1_565 S
C34 O41 1.241 1_565 S
C35 O21 1.244 . S
C35 O23 1.256 1_565 S
C36 O25 1.239 . S
C36 O29 1.256 1_545 S
C37 O26 1.278 1_565 S
C37 O32 1.241 . S
C38 O28 1.244 . S
C38 O33 1.256 . S
C39 O30 1.239 . S
C39 O31 1.256 . S
O40 Mn22 2.221 1_455 S
O40 Mn24 2.290 . S
O40 C34 1.278 1_545 S
O41 Mn24 2.252 . S
O41 C34 1.241 1_545 S
O42 Mn43 2.163 1_556 S
O42 C56 1.244 1_556 S
Mn43 O42 2.163 1_554 S
Mn43 O46 2.160 . S
Mn43 O47 2.221 1_554 S
Mn43 O49 2.163 . S
Mn43 O51 2.160 . S
Mn43 O61 2.221 . S
O44 Mn45 2.087 . S
O44 C56 1.256 . S
Mn45 O44 2.087 . S
Mn45 O52 2.089 1_655 S
Mn45 O61 2.290 . S
Mn45 O62 2.251 . S
O46 Mn43 2.160 . S
O46 C57 1.239 . S
O47 Mn43 2.221 1_556 S
O47 Mn48 2.290 . S
O47 C58 1.278 . S
Mn48 O47 2.290 . S
Mn48 O50 2.089 . S
Mn48 O53 2.251 . S
Mn48 O54 2.087 . S
O49 Mn43 2.163 . S
O49 C59 1.244 1_554 S
O50 Mn48 2.089 . S
O50 C57 1.256 1_556 S
O51 Mn43 2.160 . S
O51 C60 1.239 1_655 S
O52 Mn45 2.089 1_455 S
O52 C60 1.256 . S
O53 Mn48 2.251 . S
O53 C58 1.241 . S
O54 Mn48 2.087 . S
O54 C59 1.256 . S
C55 O61 1.278 . S
C55 O62 1.241 . S
C56 O42 1.244 1_554 S
C56 O44 1.256 . S
C57 O46 1.239 . S
C57 O50 1.256 1_554 S
C58 O47 1.278 . S
C58 O53 1.241 . S
C59 O49 1.244 1_556 S
C59 O54 1.256 . S
C60 O51 1.239 1_455 S
C60 O52 1.256 . S
O61 Mn43 2.221 . S
O61 Mn45 2.290 . S
O61 C55 1.278 . S
O62 Mn45 2.251 . S
O62 C55 1.241 . S
O63 Mn64 2.163 . S
O63 C77 1.244 . S
Mn64 O63 2.163 . S
Mn64 O67 2.160 . S
Mn64 O68 2.221 . S
Mn64 O70 2.163 . S
Mn64 O72 2.160 . S
Mn64 O82 2.221 . S
O65 Mn66 2.087 . S
O65 C77 1.256 . S
Mn66 O65 2.087 . S
Mn66 O73 2.089 . S
Mn66 O82 2.290 . S
Mn66 O83 2.251 . S
O67 Mn64 2.160 . S
O67 C78 1.239 . S
O68 Mn64 2.221 . S
O68 Mn69 2.290 . S
O68 C79 1.278 . S
Mn69 O68 2.290 . S
Mn69 O71 2.089 1_455 S
Mn69 O74 2.251 . S
Mn69 O75 2.087 . S
O70 Mn64 2.163 . S
O70 C80 1.244 . S
O71 Mn69 2.089 1_655 S
O71 C78 1.256 1_655 S
O72 Mn64 2.160 . S
O72 C81 1.239 . S
O73 Mn66 2.089 . S
O73 C81 1.256 . S
O74 Mn69 2.251 . S
O74 C79 1.241 . S
O75 Mn69 2.087 . S
O75 C80 1.256 . S
C76 O82 1.278 . S
C76 O83 1.241 . S
C77 O63 1.244 . S
C77 O65 1.256 . S
C78 O67 1.239 . S
C78 O71 1.256 1_455 S
C79 O68 1.278 . S
C79 O74 1.241 . S
C80 O70 1.244 . S
C80 O75 1.256 . S
C81 O72 1.239 . S
C81 O73 1.256 . S
O82 Mn64 2.221 . S
O82 Mn66 2.290 . S
O82 C76 1.278 . S
O83 Mn66 2.251 . S
O83 C76 1.241 . S
C57 C14 1.504 . S
C56 C15 1.504 . S
C39 C80 1.504 . S
C38 C81 1.504 . S
C18 C17 1.295 1_544 S
C35 C36 1.296 1_565 S
C60 C59 1.295 1_554 S
C78 C77 1.296 1_455 S
C37 C13 1.252 1_655 S
C16 C34 1.525 1_655 S
C79 C55 1.252 . S
C76 C58 1.525 . S
