# Generated by pormake.
# Topology sxc, (6)-cn, num edge types: 1
# Building blocks:
#     Node 0, Type 0, BuildingBlock: INOVEN_clean_sbu_0, # of connection points: 6
#     Node 1, Type 0, BuildingBlock: INOVEN_clean_sbu_0, # of connection points: 6
#     Node 2, Type 0, BuildingBlock: INOVEN_clean_sbu_0, # of connection points: 6
#     Edge 3, Type (0, 0), BuildingBlock: AJUNOK_clean_linker_0, # of connection points: 2
#     Edge 4, Type (0, 0), BuildingBlock: AJUNOK_clean_linker_0, # of connection points: 2
#     Edge 5, Type (0, 0), BuildingBlock: AJUNOK_clean_linker_0, # of connection points: 2
#     Edge 6, Type (0, 0), BuildingBlock: AJUNOK_clean_linker_0, # of connection points: 2
#     Edge 7, Type (0, 0), BuildingBlock: AJUNOK_clean_linker_0, # of connection points: 2
#     Edge 8, Type (0, 0), BuildingBlock: AJUNOK_clean_linker_0, # of connection points: 2
#     Edge 9, Type (0, 0), BuildingBlock: AJUNOK_clean_linker_0, # of connection points: 2
#     Edge 10, Type (0, 0), BuildingBlock: AJUNOK_clean_linker_0, # of connection points: 2
#     Edge 11, Type (0, 0), BuildingBlock: AJUNOK_clean_linker_0, # of connection points: 2
# Relax obj value: 0.483
# Max RMSD: 0.193
# Mean RMSD: 0.107
data_MOF--net-sxc--node1-INOVEN_clean_sbu_0--edge1-AJUNOK_clean_linker_0
_symmetry_space_group_name_H-M    P1
_symmetry_Int_Tables_number       1
_symmetry_cell_setting            triclinic
loop_
_symmetry_equiv_pos_as_xyz
'x, y, z'
_cell_length_a     13.076351
_cell_length_b     11.833669
_cell_length_c     33.017289
_cell_angle_alpha  90.534445
_cell_angle_beta   94.319233
_cell_angle_gamma 87.392273
loop_
_atom_site_label
_atom_site_type_symbol
_atom_site_fract_x
_atom_site_fract_y
_atom_site_fract_z
_atom_type_partial_charge
Gd0 Gd 0.3347 1.09312 0.98894 0.0
Gd1 Gd 1.11933 0.11394 0.98596 0.0
C2 C 0.22584 0.34842 -0.0087 0.0
C3 C 0.52348 0.10759 0.97276 0.0
C4 C 0.57447 0.18914 0.94895 0.0
C5 C 0.66322 0.23737 0.96617 0.0
C6 C 0.52866 0.22985 0.91165 0.0
C7 C 0.65229 0.37645 0.91214 0.0
C8 C 0.56784 0.32263 0.89322 0.0
C9 C 0.70204 0.33006 0.9479 0.0
C10 C 0.267 1.07162 0.06436 0.0
C11 C 0.22936 0.85479 0.98753 0.0
C12 C 0.9246 1.09447 -0.01004 0.0
C13 C 0.85834 1.00569 0.97259 0.0
C14 C 0.80976 1.01703 0.93311 0.0
C15 C 0.85532 0.90227 -0.00716 0.0
C16 C 0.77169 0.81897 0.93251 0.0
C17 C 0.813 0.80963 0.97284 0.0
C18 C 0.76629 0.92399 0.91319 0.0
C19 C 0.19007 0.14034 0.91123 0.0
O20 O 0.30417 0.2849 0.97903 0.0
O21 O 1.14512 0.29745 0.00283 0.0
O22 O 0.48785 0.14788 0.00617 0.0
O23 O 0.45944 1.04305 0.9523 0.0
O24 O 0.34472 1.01474 0.05113 0.0
O25 O 0.23112 0.14294 0.03799 0.0
O26 O 1.14304 0.91843 0.98847 0.0
O27 O 0.31688 0.90456 0.98558 0.0
O28 O 0.96297 0.15847 0.96355 0.0
O29 O 0.99253 1.06359 0.01936 0.0
O30 O 1.11864 0.20252 0.92632 0.0
O31 O 0.22208 1.06463 0.93666 0.0
H32 H 0.69916 0.20737 -0.00504 0.0
H33 H 0.45954 0.1941 0.89783 0.0
H34 H 0.52894 0.35589 0.86544 0.0
H35 H 0.76667 0.3704 0.96349 0.0
H36 H 0.80997 1.09611 0.91687 0.0
H37 H 0.89074 0.8908 0.02333 0.0
H38 H 0.81579 0.72916 0.9884 0.0
H39 H 0.73315 0.93259 0.88224 0.0
Gd40 Gd 1.0785 1.08131 0.30452 0.0
Gd41 Gd 0.28617 1.07841 0.32423 0.0
C42 C 0.19033 0.32479 0.30853 0.0
C43 C 0.89135 0.14728 0.31124 0.0
C44 C 0.86619 0.24909 0.33522 0.0
C45 C 0.77958 0.31918 0.325 0.0
C46 C 0.93707 0.28282 0.36657 0.0
C47 C 0.8313 0.4501 0.38035 0.0
C48 C 0.92207 0.38348 0.38776 0.0
C49 C 0.76154 0.41805 0.34752 0.0
C50 C 1.17275 1.0478 0.23496 0.0
C51 C 1.18371 0.83257 0.30773 0.0
C52 C 0.4777 1.08354 0.34839 0.0
C53 C 0.51739 0.1737 0.37571 0.0
C54 C 0.45313 0.26884 0.38303 0.0
C55 C 0.61453 0.16453 0.3964 0.0
C56 C 0.58357 0.35006 0.42868 0.0
C57 C 0.64799 0.25241 0.42224 0.0
C58 C 0.48374 0.35319 0.41021 0.0
C59 C 1.17287 0.10641 0.39084 0.0
O60 O 1.10697 0.27074 0.31464 0.0
O61 O 0.27513 0.2631 0.30499 0.0
O62 O 0.93806 0.16653 0.27858 0.0
O63 O 0.93496 1.06277 0.33229 0.0
O64 O 1.08867 1.00166 0.24339 0.0
O65 O 0.20353 0.11375 0.26366 0.0
O66 O 0.26974 0.88902 0.30757 0.0
O67 O 1.09516 0.8906 0.30959 0.0
O68 O 0.44229 0.11626 0.31212 0.0
O69 O 0.4154 1.01745 0.36471 0.0
O70 O 0.23894 0.17525 0.38043 0.0
O71 O 1.16163 1.03439 0.36291 0.0
H72 H 0.72487 0.29632 0.30034 0.0
H73 H 1.00491 0.23092 0.37489 0.0
H74 H 0.97875 0.40508 0.41184 0.0
H75 H 0.68987 0.4652 0.34023 0.0
H76 H 0.37944 0.28082 0.36699 0.0
H77 H 0.66551 1.09168 0.39163 0.0
H78 H 0.72653 0.24581 0.43519 0.0
H79 H 0.43061 0.42411 0.41475 0.0
Gd80 Gd 1.18552 1.04217 0.6496 0.0
Gd81 Gd 1.18189 0.14239 0.65092 0.0
C82 C 0.92628 1.05431 0.63988 0.0
C83 C 1.15992 0.83293 0.67 0.0
C84 C 1.07254 0.77234 0.68198 0.0
C85 C 1.0637 0.65828 0.67142 0.0
C86 C 0.99416 0.83011 0.70164 0.0
C87 C 0.89302 0.66395 0.69571 0.0
C88 C 0.90465 0.77649 0.70822 0.0
C89 C 0.97433 0.60401 0.67838 0.0
C90 C 1.16505 1.05101 0.56624 0.0
C91 C 0.44177 0.12793 0.65952 0.0
C92 C 0.21522 0.35158 0.63462 0.0
C93 C 0.29314 0.42477 0.65245 0.0
C94 C 0.34764 0.39332 0.68915 0.0
C95 C 0.32509 0.51425 0.62989 0.0
C96 C 0.47527 0.52779 0.67718 0.0
C97 C 0.41578 0.56612 0.64234 0.0
C98 C 0.43851 0.44446 0.70145 0.0
C99 C 0.20378 0.14496 0.73411 0.0
O100 O 1.00807 0.10958 0.65647 0.0
O101 O 1.00348 0.11373 0.65782 0.0
O102 O 1.15434 0.86754 0.63286 0.0
O103 O 0.19138 0.91069 0.69501 0.0
O104 O 0.24242 1.00154 0.58684 0.0
O105 O 1.10758 1.09998 0.59054 0.0
O106 O 0.3594 1.06921 0.64577 0.0
O107 O 0.36522 1.06272 0.6442 0.0
O108 O 1.14738 0.32223 0.65862 0.0
O109 O 0.25143 0.26586 0.61457 0.0
O110 O 1.1282 0.19365 0.71278 0.0
O111 O 0.26004 1.09191 0.71035 0.0
H112 H 1.12392 0.61277 0.65637 0.0
H113 H 1.00012 0.91819 0.71031 0.0
H114 H 0.84218 0.82538 0.72066 0.0
H115 H 0.96659 0.51709 0.66843 0.0
H116 H 0.32423 0.32347 0.70669 0.0
H117 H 0.2837 0.53891 0.60144 0.0
H118 H 0.44304 0.63092 0.62337 0.0
H119 H 0.48391 0.4124 0.72802 0.0
C120 C 1.13617 0.54649 0.98773 0.0
C121 C 0.22777 0.47736 -0.00903 0.0
C122 C 1.13687 0.66681 0.98653 0.0
C123 C 0.22925 0.72536 0.98897 0.0
H124 H 1.06271 0.50727 0.98549 0.0
H125 H 1.0639 0.71422 0.98351 0.0
S126 S 0.49099 0.58539 0.00187 0.0
N127 N 0.41367 0.47874 -0.00148 0.0
N128 N 0.41562 0.70116 -0.00227 0.0
C129 C 0.32134 0.65683 -0.00675 0.0
C130 C 0.32045 0.53461 -0.00618 0.0
C131 C 0.7228 0.44513 0.46864 0.0
C132 C 0.62775 0.45665 0.44561 0.0
C133 C 0.80998 0.48607 0.45224 0.0
C134 C 0.79852 0.53146 0.41256 0.0
H135 H 0.73387 0.38348 0.49281 0.0
H136 H 0.88434 0.45538 0.46532 0.0
S137 S 0.56442 0.69001 0.3724 0.0
N138 N 0.52493 0.59941 0.40508 0.0
N139 N 0.69095 0.67259 0.37454 0.0
C140 C 0.70551 0.59287 0.40396 0.0
C141 C 0.61644 0.55254 0.42017 0.0
C142 C 0.74882 0.57528 0.65687 0.0
C143 C 0.79062 0.6171 0.69414 0.0
C144 C 0.64646 0.54717 0.65192 0.0
C145 C 0.58231 0.56003 0.68404 0.0
H146 H 0.79428 0.56862 0.63076 0.0
H147 H 0.61712 0.51567 0.62258 0.0
S148 S 0.65703 0.6565 0.78878 0.0
N149 N 0.7628 0.66261 0.76461 0.0
N150 N 0.56841 0.61045 0.75506 0.0
C151 C 0.62382 0.59745 0.72199 0.0
C152 C 0.72853 0.62616 0.72707 0.0
C153 C 0.75243 0.17043 0.66501 0.0
C154 C 0.80332 1.07466 0.64685 0.0
C155 C 0.64051 0.18362 0.66815 0.0
C156 C 0.56489 0.10373 0.65372 0.0
H157 H 0.79929 0.23811 0.67679 0.0
H158 H 0.61239 0.26046 0.68244 0.0
S159 S 0.65071 0.83324 0.60474 0.0
N160 N 0.76039 0.89558 0.61486 0.0
N161 N 0.55963 0.91997 0.6209 0.0
C162 C 0.6149 1.00725 0.6359 0.0
C163 C 0.72879 0.9937 0.63259 0.0
C164 C 0.81316 0.62705 0.90699 0.0
C165 C 0.73953 0.7157 0.91114 0.0
C166 C 0.78341 0.51595 0.90106 0.0
C167 C 0.67926 0.49046 0.89979 0.0
H168 H 0.89422 0.64224 0.91226 0.0
H169 H 0.84247 0.44853 0.90189 0.0
S170 S 0.45743 0.69797 0.89849 0.0
N171 N 0.55926 0.77553 0.90536 0.0
N172 N 0.50214 0.56583 0.89468 0.0
C173 C 0.60488 0.58064 0.89803 0.0
C174 C 0.63547 0.69399 0.90384 0.0
C175 C 0.27943 0.51509 0.31087 0.0
C176 C 0.18828 0.45418 0.30715 0.0
C177 C 0.27796 0.63573 0.31057 0.0
C178 C 1.18525 0.70287 0.30646 0.0
H179 H 0.35309 0.46925 0.31459 0.0
H180 H 0.35051 0.67663 0.31405 0.0
S181 S 0.92464 0.58681 0.29312 0.0
N182 N 1.0024 0.4731 0.29742 0.0
N183 N 0.99936 0.69561 0.29703 0.0
C184 C 1.09379 0.6426 0.30214 0.0
C185 C 1.09536 0.52025 0.30245 0.0
C186 C 1.12167 1.05119 0.15982 0.0
C187 C 0.19899 1.05916 0.19187 0.0
C188 C 1.14349 1.05995 0.11882 0.0
C189 C 0.24404 1.07369 0.10799 0.0
H190 H 1.04313 1.03848 0.16642 0.0
H191 H 1.0816 1.05232 0.09542 0.0
S192 S 0.47415 0.10124 0.17982 0.0
N193 N 0.37974 1.08577 0.2096 0.0
N194 N 0.42168 1.09668 0.13272 0.0
C195 C 0.32206 1.08203 0.13962 0.0
C196 C 0.29931 1.07639 0.18145 0.0
C197 C 1.12832 0.17715 0.45975 0.0
C198 C 1.15732 1.08638 0.43449 0.0
C199 C 1.12487 0.16351 0.50207 0.0
C200 C 1.15438 1.05965 0.52101 0.0
H201 H 1.10997 0.25999 0.44679 0.0
H202 H 1.10396 0.23631 0.52032 0.0
S203 S 0.23605 0.79547 0.46874 0.0
N204 N 0.21268 0.88794 0.43163 0.0
N205 N 0.21175 0.86408 0.51102 0.0
C206 C 1.18252 0.96811 0.49605 0.0
C207 C 1.18258 0.98095 0.45288 0.0
C208 C 1.14845 0.22201 0.79986 0.0
C209 C 0.21324 0.14619 0.77956 0.0
C210 C 1.14488 0.2203 0.84217 0.0
C211 C 0.20501 0.14171 0.86664 0.0
H212 H 1.09808 0.28264 0.7828 0.0
H213 H 1.09208 0.28022 0.85566 0.0
S214 S 0.39437 0.93018 0.82907 0.0
N215 N 0.34456 0.99444 0.78744 0.0
N216 N 0.33684 0.98991 0.86729 0.0
C217 C 0.27313 1.06748 0.84703 0.0
C218 C 0.2775 1.07007 0.80352 0.0
loop_
_geom_bond_atom_site_label_1
_geom_bond_atom_site_label_2
_geom_bond_distance
_geom_bond_site_symmetry_2
_ccdc_geom_bond_type
Gd0 C3 2.818 . S
Gd0 O20 2.377 . S
Gd0 O22 2.448 . S
Gd0 O23 2.506 1_554 S
Gd0 O24 2.435 . S
Gd0 O25 2.717 1_545 S
Gd0 O27 2.395 1_545 S
Gd0 O31 2.327 1_554 S
Gd1 C12 2.818 . S
Gd1 O21 2.395 1_565 S
Gd1 O25 2.327 1_656 S
Gd1 O26 2.377 . S
Gd1 O28 2.448 . S
Gd1 O29 2.506 1_556 S
Gd1 O30 2.435 . S
Gd1 O31 2.717 1_665 S
C2 O20 1.240 . S
C2 O21 1.240 1_454 S
C3 Gd0 2.818 . S
C3 C4 1.510 . S
C3 O22 1.249 . S
C3 O23 1.252 1_554 S
C4 C3 1.510 . S
C4 C5 1.404 . S
C4 C6 1.352 1_554 S
C5 C4 1.404 . S
C5 C9 1.389 . S
C5 H32 0.930 . S
C6 C4 1.352 1_556 S
C6 C8 1.374 . S
C6 H33 0.931 . S
C7 C8 1.359 1_554 S
C7 C9 1.364 . S
C8 C6 1.374 . S
C8 C7 1.359 1_556 S
C8 H34 0.931 . S
C9 C5 1.389 . S
C9 C7 1.364 . S
C9 H35 0.931 . S
C10 O24 1.256 . S
C10 O25 1.257 1_545 S
C11 O26 1.236 1_454 S
C11 O27 1.242 . S
C12 Gd1 2.818 . S
C12 C13 1.510 . S
C12 O28 1.249 . S
C12 O29 1.252 1_556 S
C13 C12 1.510 . S
C13 C14 1.404 . S
C13 C15 1.352 1_556 S
C14 C13 1.404 . S
C14 C18 1.389 . S
C14 H36 0.930 . S
C15 C13 1.352 1_554 S
C15 C17 1.374 . S
C15 H37 0.931 . S
C16 C17 1.364 . S
C16 C18 1.357 1_554 S
C17 C15 1.374 . S
C17 C16 1.364 . S
C17 H38 0.931 . S
C18 C14 1.389 . S
C18 C16 1.357 1_556 S
C18 H39 0.931 . S
C19 O30 1.256 1_445 S
C19 O31 1.257 . S
O20 Gd0 2.377 . S
O20 C2 1.240 . S
O21 Gd1 2.395 1_545 S
O21 C2 1.240 1_656 S
O22 Gd0 2.448 . S
O22 C3 1.249 . S
O23 Gd0 2.506 1_556 S
O23 C3 1.252 1_556 S
O24 Gd0 2.435 . S
O24 C10 1.256 . S
O25 Gd0 2.717 1_565 S
O25 Gd1 2.327 1_454 S
O25 C10 1.257 1_565 S
O26 Gd1 2.377 . S
O26 C11 1.236 1_656 S
O27 Gd0 2.395 1_565 S
O27 C11 1.242 . S
O28 Gd1 2.448 . S
O28 C12 1.249 . S
O29 Gd1 2.506 1_554 S
O29 C12 1.252 1_554 S
O30 Gd1 2.435 . S
O30 C19 1.256 1_665 S
O31 Gd0 2.327 1_556 S
O31 Gd1 2.717 1_445 S
O31 C19 1.257 . S
H32 C5 0.930 . S
H33 C6 0.931 . S
H34 C8 0.931 . S
H35 C9 0.931 . S
H36 C14 0.930 . S
H37 C15 0.931 . S
H38 C17 0.931 . S
H39 C18 0.931 . S
Gd40 C43 2.818 1_565 S
Gd40 O60 2.377 1_565 S
Gd40 O62 2.448 1_565 S
Gd40 O63 2.506 1_565 S
Gd40 O64 2.435 . S
Gd40 O65 2.717 1_665 S
Gd40 O67 2.395 . S
Gd40 O71 2.327 1_565 S
Gd41 C52 2.818 . S
Gd41 O61 2.395 . S
Gd41 O65 2.327 . S
Gd41 O66 2.377 1_545 S
Gd41 O68 2.448 . S
Gd41 O69 2.506 . S
Gd41 O70 2.435 . S
Gd41 O71 2.717 1_455 S
C42 O60 1.240 . S
C42 O61 1.240 1_655 S
C43 Gd40 2.818 1_545 S
C43 C44 1.510 . S
C43 O62 1.249 . S
C43 O63 1.252 . S
C44 C43 1.510 . S
C44 C45 1.404 . S
C44 C46 1.352 . S
C45 C44 1.404 . S
C45 C49 1.389 . S
C45 H72 0.930 . S
C46 C44 1.352 . S
C46 C48 1.374 . S
C46 H73 0.931 . S
C47 C48 1.359 . S
C47 C49 1.364 . S
C48 C46 1.374 . S
C48 C47 1.359 . S
C48 H74 0.931 . S
C49 C45 1.389 . S
C49 C47 1.364 . S
C49 H75 0.931 . S
C50 O64 1.256 1_545 S
C50 O65 1.257 1_655 S
C51 O66 1.240 . S
C51 O67 1.240 1_455 S
C52 Gd41 2.818 . S
C52 C53 1.510 1_545 S
C52 O68 1.249 . S
C52 O69 1.252 . S
C53 C52 1.510 1_565 S
C53 C54 1.404 . S
C53 C55 1.352 . S
C54 C53 1.404 . S
C54 C58 1.389 . S
C54 H76 0.930 1_565 S
C55 C53 1.352 . S
C55 C57 1.374 . S
C55 H77 0.931 . S
C56 C57 1.359 . S
C56 C58 1.364 . S
C57 C55 1.374 . S
C57 C56 1.359 . S
C57 H78 0.931 . S
C58 C54 1.389 . S
C58 C56 1.364 . S
C58 H79 0.931 . S
C59 O70 1.256 . S
C59 O71 1.257 1_455 S
O60 Gd40 2.377 1_545 S
O60 C42 1.240 . S
O61 Gd41 2.395 . S
O61 C42 1.240 1_455 S
O62 Gd40 2.448 1_545 S
O62 C43 1.249 . S
O63 Gd40 2.506 1_545 S
O63 C43 1.252 . S
O64 Gd40 2.435 . S
O64 C50 1.256 1_565 S
O65 Gd40 2.717 1_445 S
O65 Gd41 2.327 . S
O65 C50 1.257 1_455 S
O66 Gd41 2.377 1_565 S
O66 C51 1.240 . S
O67 Gd40 2.395 . S
O67 C51 1.240 1_655 S
O68 Gd41 2.448 . S
O68 C52 1.249 . S
O69 Gd41 2.506 . S
O69 C52 1.252 . S
O70 Gd41 2.435 . S
O70 C59 1.256 . S
O71 Gd40 2.327 1_545 S
O71 Gd41 2.717 1_655 S
O71 C59 1.257 1_655 S
H72 C45 0.930 . S
H73 C46 0.931 . S
H74 C48 0.931 . S
H75 C49 0.931 . S
H76 C54 0.930 1_545 S
H77 C55 0.931 . S
H78 C57 0.931 . S
H79 C58 0.931 . S
Gd80 C83 2.818 . S
Gd80 O100 2.377 1_565 S
Gd80 O102 2.448 . S
Gd80 O103 2.506 . S
Gd80 O104 2.435 . S
Gd80 O105 2.717 1_665 S
Gd80 O107 2.395 1_655 S
Gd80 O111 2.327 1_565 S
Gd81 C92 2.818 . S
Gd81 O101 2.395 1_455 S
Gd81 O105 2.327 . S
Gd81 O106 2.377 . S
Gd81 O108 2.448 . S
Gd81 O109 2.506 . S
Gd81 O110 2.435 . S
Gd81 O111 2.717 1_455 S
C82 O100 1.240 . S
C82 O101 1.240 . S
C83 Gd80 2.818 . S
C83 C84 1.510 . S
C83 O102 1.249 . S
C83 O103 1.252 . S
C84 C83 1.510 . S
C84 C85 1.404 . S
C84 C86 1.352 . S
C85 C84 1.404 . S
C85 C89 1.389 . S
C85 H112 0.930 . S
C86 C84 1.352 . S
C86 C88 1.374 . S
C86 H113 0.931 . S
C87 C88 1.359 . S
C87 C89 1.364 . S
C88 C86 1.374 . S
C88 C87 1.359 . S
C88 H114 0.931 . S
C89 C85 1.389 . S
C89 C87 1.364 . S
C89 H115 0.931 . S
C90 O104 1.256 1_545 S
C90 O105 1.257 1_655 S
C91 O106 1.240 . S
C91 O107 1.240 1_545 S
C92 Gd81 2.818 . S
C92 C93 1.510 . S
C92 O108 1.249 . S
C92 O109 1.252 . S
C93 C92 1.510 . S
C93 C94 1.404 . S
C93 C95 1.352 . S
C94 C93 1.404 . S
C94 C98 1.389 . S
C94 H116 0.930 . S
C95 C93 1.352 . S
C95 C97 1.374 . S
C95 H117 0.931 . S
C96 C97 1.359 . S
C96 C98 1.364 . S
C97 C95 1.374 . S
C97 C96 1.359 . S
C97 H118 0.931 . S
C98 C94 1.389 . S
C98 C96 1.364 . S
C98 H119 0.931 . S
C99 O110 1.256 . S
C99 O111 1.257 1_455 S
O100 Gd80 2.377 1_545 S
O100 C82 1.240 . S
O101 Gd81 2.395 1_655 S
O101 C82 1.240 . S
O102 Gd80 2.448 . S
O102 C83 1.249 . S
O103 Gd80 2.506 . S
O103 C83 1.252 . S
O104 Gd80 2.435 . S
O104 C90 1.256 1_565 S
O105 Gd80 2.717 1_445 S
O105 Gd81 2.327 . S
O105 C90 1.257 1_455 S
O106 Gd81 2.377 . S
O106 C91 1.240 . S
O107 Gd80 2.395 1_455 S
O107 C91 1.240 1_565 S
O108 Gd81 2.448 . S
O108 C92 1.249 . S
O109 Gd81 2.506 . S
O109 C92 1.252 . S
O110 Gd81 2.435 . S
O110 C99 1.256 . S
O111 Gd80 2.327 1_545 S
O111 Gd81 2.717 1_655 S
O111 C99 1.257 1_655 S
H112 C85 0.930 . S
H113 C86 0.931 . S
H114 C88 0.931 . S
H115 C89 0.931 . S
H116 C94 0.930 . S
H117 C95 0.931 . S
H118 C97 0.931 . S
H119 C98 0.931 . S
C120 C121 1.369 1_656 S
C120 C122 1.419 . S
C120 H124 0.930 . S
C121 C120 1.369 1_454 S
C121 C130 1.429 . S
C122 C120 1.419 . S
C122 C123 1.363 1_656 S
C122 H125 0.929 . S
C123 C122 1.363 1_454 S
C123 C129 1.428 . S
H124 C120 0.930 . S
H125 C122 0.929 . S
S126 N127 1.613 . S
S126 N128 1.610 . S
N127 S126 1.613 . S
N127 C130 1.350 . S
N128 S126 1.610 . S
N128 C129 1.351 . S
C129 C123 1.428 . S
C129 N128 1.351 . S
C129 C130 1.434 . S
C130 C121 1.429 . S
C130 N127 1.350 . S
C130 C129 1.434 . S
C131 C132 1.369 . S
C131 C133 1.419 1_565 S
C131 H135 0.930 . S
C132 C131 1.369 . S
C132 C141 1.429 . S
C133 C131 1.419 1_545 S
C133 C134 1.363 . S
C133 H136 0.929 . S
C134 C133 1.363 . S
C134 C140 1.428 . S
H135 C131 0.930 . S
H136 C133 0.929 . S
S137 N138 1.613 1_545 S
S137 N139 1.610 . S
N138 S137 1.613 1_565 S
N138 C141 1.350 . S
N139 S137 1.610 . S
N139 C140 1.351 . S
C140 C134 1.428 . S
C140 N139 1.351 . S
C140 C141 1.434 1_545 S
C141 C132 1.429 . S
C141 N138 1.350 . S
C141 C140 1.434 1_565 S
C142 C143 1.369 . S
C142 C144 1.419 . S
C142 H146 0.930 . S
C143 C142 1.369 . S
C143 C152 1.429 . S
C144 C142 1.419 . S
C144 C145 1.363 . S
C144 H147 0.929 . S
C145 C144 1.363 . S
C145 C151 1.428 . S
H146 C142 0.930 . S
H147 C144 0.929 . S
S148 N149 1.613 . S
S148 N150 1.610 . S
N149 S148 1.613 . S
N149 C152 1.350 . S
N150 S148 1.610 . S
N150 C151 1.351 . S
C151 C145 1.428 . S
C151 N150 1.351 . S
C151 C152 1.434 . S
C152 C143 1.429 . S
C152 N149 1.350 . S
C152 C151 1.434 . S
C153 C154 1.369 . S
C153 C155 1.419 . S
C153 H157 0.930 . S
C154 C153 1.369 . S
C154 C163 1.429 1_545 S
C155 C153 1.419 . S
C155 C156 1.363 . S
C155 H158 0.929 . S
C156 C155 1.363 . S
C156 C162 1.428 1_545 S
H157 C153 0.930 . S
H158 C155 0.929 . S
S159 N160 1.613 . S
S159 N161 1.610 . S
N160 S159 1.613 . S
N160 C163 1.350 . S
N161 S159 1.610 . S
N161 C162 1.351 . S
C162 C156 1.428 1_565 S
C162 N161 1.351 . S
C162 C163 1.434 . S
C163 C154 1.429 1_565 S
C163 N160 1.350 . S
C163 C162 1.434 . S
C164 C165 1.367 1_554 S
C164 C166 1.419 . S
C164 H168 0.930 1_554 S
C165 C164 1.367 1_556 S
C165 C174 1.426 1_556 S
C166 C164 1.419 . S
C166 C167 1.363 . S
C166 H169 0.929 . S
C167 C166 1.363 . S
C167 C173 1.428 . S
H168 C164 0.930 1_556 S
H169 C166 0.929 . S
S170 N171 1.613 . S
S170 N172 1.610 . S
N171 S170 1.613 . S
N171 C174 1.350 . S
N172 S170 1.610 . S
N172 C173 1.351 . S
C173 C167 1.428 . S
C173 N172 1.351 . S
C173 C174 1.434 . S
C174 C165 1.426 1_554 S
C174 N171 1.350 . S
C174 C173 1.434 . S
C175 C176 1.369 1_455 S
C175 C177 1.419 . S
C175 H179 0.930 . S
C176 C175 1.369 1_655 S
C176 C185 1.429 . S
C177 C175 1.419 . S
C177 C178 1.363 . S
C177 H180 0.929 . S
C178 C177 1.363 . S
C178 C184 1.428 1_455 S
H179 C175 0.930 . S
H180 C177 0.929 . S
S181 N182 1.613 . S
S181 N183 1.610 . S
N182 S181 1.613 . S
N182 C185 1.350 . S
N183 S181 1.610 . S
N183 C184 1.351 . S
C184 C178 1.428 1_655 S
C184 N183 1.351 . S
C184 C185 1.434 . S
C185 C176 1.429 . S
C185 N182 1.350 . S
C185 C184 1.434 . S
C186 C187 1.369 1_665 S
C186 C188 1.419 . S
C186 H190 0.930 . S
C187 C186 1.369 1_445 S
C187 C196 1.429 . S
C188 C186 1.419 . S
C188 C189 1.363 1_665 S
C188 H191 0.929 . S
C189 C188 1.363 1_445 S
C189 C195 1.428 . S
H190 C186 0.930 . S
H191 C188 0.929 . S
S192 N193 1.613 . S
S192 N194 1.610 . S
N193 S192 1.613 . S
N193 C196 1.350 . S
N194 S192 1.610 . S
N194 C195 1.351 . S
C195 C189 1.428 . S
C195 N194 1.351 . S
C195 C196 1.434 . S
C196 C187 1.429 . S
C196 N193 1.350 . S
C196 C195 1.434 . S
C197 C198 1.369 1_655 S
C197 C199 1.419 . S
C197 H201 0.930 . S
C198 C197 1.369 1_455 S
C198 C207 1.429 1_545 S
C199 C197 1.419 . S
C199 C200 1.362 1_655 S
C199 H202 0.929 . S
C200 C199 1.362 1_455 S
C200 C206 1.429 1_545 S
H201 C197 0.930 . S
H202 C199 0.929 . S
S203 N204 1.613 . S
S203 N205 1.610 . S
N204 S203 1.613 . S
N204 C207 1.350 . S
N205 S203 1.610 . S
N205 C206 1.351 . S
C206 C200 1.429 1_565 S
C206 N205 1.351 . S
C206 C207 1.434 . S
C207 C198 1.429 1_565 S
C207 N204 1.350 . S
C207 C206 1.434 . S
C208 C209 1.369 1_655 S
C208 C210 1.419 . S
C208 H212 0.930 . S
C209 C208 1.369 1_455 S
C209 C218 1.429 1_545 S
C210 C208 1.419 . S
C210 C211 1.363 1_655 S
C210 H213 0.929 . S
C211 C210 1.363 1_455 S
C211 C217 1.428 1_545 S
H212 C208 0.930 . S
H213 C210 0.929 . S
S214 N215 1.613 . S
S214 N216 1.610 . S
N215 S214 1.613 . S
N215 C218 1.350 . S
N216 S214 1.610 . S
N216 C217 1.351 . S
C217 C211 1.428 1_565 S
C217 N216 1.351 . S
C217 C218 1.434 . S
C218 C209 1.429 1_565 S
C218 N215 1.350 . S
C218 C217 1.434 . S
C121 C2 3.007 . S
C123 C11 3.009 . S
C132 C56 0.840 . S
C134 C47 0.866 . S
C143 C87 0.885 . S
C145 C96 0.886 . S
C154 C82 4.910 . S
C156 C91 4.911 . S
C165 C16 0.599 1_556 S
C167 C7 0.609 . S
C176 C42 3.111 . S
C178 C51 3.113 . S
C187 C50 1.488 1_455 S
C189 C10 1.481 . S
C198 C59 1.467 . S
C200 C90 1.447 1_455 S
C209 C99 1.488 . S
C211 C19 1.463 . S
