# Generated by pormake.
# Topology unc, (4)-cn, num edge types: 1
# Building blocks:
#     Node 0, Type 0, BuildingBlock: CEKHIL_clean_sbu_0, # of connection points: 4
#     Node 1, Type 0, BuildingBlock: CEKHIL_clean_sbu_0, # of connection points: 4
#     Node 2, Type 0, BuildingBlock: CEKHIL_clean_sbu_0, # of connection points: 4
#     Node 3, Type 0, BuildingBlock: CEKHIL_clean_sbu_0, # of connection points: 4
#     Edge 4, Type (0, 0), BuildingBlock: OJICUG_clean_linker_0, # of connection points: 2
#     Edge 5, Type (0, 0), BuildingBlock: OJICUG_clean_linker_0, # of connection points: 2
#     Edge 6, Type (0, 0), BuildingBlock: OJICUG_clean_linker_0, # of connection points: 2
#     Edge 7, Type (0, 0), BuildingBlock: OJICUG_clean_linker_0, # of connection points: 2
#     Edge 8, Type (0, 0), BuildingBlock: OJICUG_clean_linker_0, # of connection points: 2
#     Edge 9, Type (0, 0), BuildingBlock: OJICUG_clean_linker_0, # of connection points: 2
#     Edge 10, Type (0, 0), BuildingBlock: OJICUG_clean_linker_0, # of connection points: 2
#     Edge 11, Type (0, 0), BuildingBlock: OJICUG_clean_linker_0, # of connection points: 2
# Relax obj value: 0.004
# Max RMSD: 0.039
# Mean RMSD: 0.039
data_MOF--net-unc--node1-CEKHIL_clean_sbu_0--edge1-OJICUG_clean_linker_0
_symmetry_space_group_name_H-M    P1
_symmetry_Int_Tables_number       1
_symmetry_cell_setting            triclinic
loop_
_symmetry_equiv_pos_as_xyz
'x, y, z'
_cell_length_a     21.567008
_cell_length_b     21.564836
_cell_length_c     15.83325
_cell_angle_alpha  90.020777
_cell_angle_beta   89.980667
_cell_angle_gamma 93.6707
loop_
_atom_site_label
_atom_site_type_symbol
_atom_site_fract_x
_atom_site_fract_y
_atom_site_fract_z
_atom_type_partial_charge
Co0 Co 0.02547 0.70338 0.95237 0.0
O1 O 0.00778 0.77079 0.8774 0.0
O2 O 0.96237 0.75395 1.00075 0.0
C3 C 0.01924 0.62939 0.8489 0.0
O4 O 0.02977 0.63634 0.04477 0.0
Co5 Co 0.14352 0.63183 0.9236 0.0
O6 O 0.10892 0.57683 0.01398 0.0
C7 C 0.15318 0.74999 0.02047 0.0
C8 C 0.96637 0.7863 0.93126 0.0
C9 C 0.06317 0.58993 0.06017 0.0
O10 O 0.09437 0.75598 1.01159 0.0
O11 O 0.18128 0.70603 0.98571 0.0
O12 O 0.97001 0.64721 0.88647 0.0
O13 O 0.07038 0.66015 0.86974 0.0
Co14 Co 0.35167 0.02915 0.32393 0.0
O15 O 0.28453 0.04715 0.39926 0.0
O16 O 0.30093 0.09204 0.27548 0.0
C17 C 0.42603 0.03576 0.42682 0.0
O18 O 0.41837 0.02452 0.23112 0.0
Co19 Co 0.42323 0.91116 0.35284 0.0
O20 O 0.47776 0.94523 0.26157 0.0
C21 C 0.30417 0.90091 0.25831 0.0
C22 C 0.26881 0.08832 0.34521 0.0
C23 C 0.46461 0.99095 0.21541 0.0
O24 O 0.29885 0.95996 0.2656 0.0
O25 O 0.348 0.87295 0.29352 0.0
O26 O 0.40809 0.08488 0.38912 0.0
O27 O 0.39518 0.98456 0.40645 0.0
Co28 Co 0.03001 0.35101 0.45225 0.0
O29 O 0.04777 0.28357 0.37728 0.0
O30 O 0.09313 0.30052 0.50063 0.0
C31 C 0.0362 0.42496 0.34879 0.0
O32 O 0.02565 0.41808 0.54466 0.0
Co33 Co 0.91191 0.42246 0.42358 0.0
O34 O 0.94647 0.47752 0.51395 0.0
C35 C 0.90233 0.30437 0.52047 0.0
C36 C 0.08917 0.26811 0.43115 0.0
C37 C 0.99222 0.46446 0.5601 0.0
O38 O 0.96113 0.29839 0.5115 0.0
O39 O 0.8742 0.34829 0.48577 0.0
O40 O 0.08544 0.40719 0.38632 0.0
O41 O 0.98508 0.39417 0.36966 0.0
Co42 Co 0.70391 0.02516 0.82381 0.0
O43 O 0.77102 0.00722 0.89915 0.0
O44 O 0.75472 0.96228 0.77536 0.0
C45 C 0.62952 0.01852 0.92672 0.0
O46 O 0.63723 0.02974 0.73101 0.0
Co47 Co 0.63228 0.14311 0.85283 0.0
O48 O 0.57779 0.109 0.76155 0.0
C49 C 0.75139 0.15341 0.75832 0.0
C50 C 0.78678 0.96603 0.84511 0.0
C51 C 0.59099 0.06328 0.71535 0.0
O52 O 0.75672 0.09437 0.76553 0.0
O53 O 0.70753 0.18135 0.79357 0.0
O54 O 0.64749 0.96941 0.88898 0.0
O55 O 0.66034 0.06973 0.90638 0.0
C56 C 0.10592 0.5315 0.17966 0.0
C57 C 0.05348 0.55238 0.13831 0.0
H58 H 0.14145 0.47657 0.27826 0.0
C59 C 0.99419 0.53434 0.17031 0.0
H60 H 0.15233 0.54517 0.15743 0.0
C61 C 0.98782 0.49365 0.23997 0.0
C62 C 0.0407 0.4716 0.27952 0.0
H63 H 0.95297 0.54974 0.13975 0.0
H64 H 0.9417 0.47873 0.26195 0.0
C65 C 0.09967 0.49222 0.24942 0.0
C66 C 0.49325 0.09952 0.52596 0.0
C67 C 0.47277 0.04048 0.49595 0.0
H68 H 0.54607 0.15235 0.61795 0.0
C69 C 0.49497 0.98768 0.53553 0.0
H70 H 0.47748 0.14123 0.49708 0.0
C71 C 0.53566 0.99419 0.60516 0.0
C72 C 0.55354 0.05354 0.63712 0.0
H73 H 0.48015 0.94152 0.51362 0.0
H74 H 0.55115 0.95303 0.63577 0.0
C75 C 0.53253 0.1059 0.59572 0.0
C76 C 0.06758 0.56064 0.74001 0.0
C77 C 0.01471 0.58278 0.77955 0.0
H78 H 0.10241 0.50449 0.63976 0.0
C79 C 0.95573 0.56229 0.74938 0.0
H80 H 0.1137 0.57547 0.76204 0.0
C81 C 0.94948 0.52303 0.67957 0.0
C82 C 1.0019 0.50205 0.63824 0.0
H83 H 0.91397 0.578 0.77822 0.0
H84 H 0.90307 0.50944 0.6573 0.0
C85 C 0.0612 0.51997 0.6703 0.0
C86 C 0.51987 0.06004 0.10519 0.0
C87 C 0.50208 1.00069 0.13718 0.0
H88 H 0.57527 0.11273 0.01356 0.0
C89 C 0.52316 0.94833 0.09579 0.0
H90 H 0.5043 0.10119 0.13579 0.0
C91 C 0.56242 0.95473 0.02597 0.0
C92 C 0.5828 0.01377 0.99591 0.0
H93 H 0.5097 0.90189 0.11803 0.0
H94 H 0.57825 0.91302 0.99708 0.0
C95 C 0.56053 0.06656 0.03551 0.0
C96 C 0.28016 0.80479 0.17327 0.0
C97 C 0.26227 0.86325 0.19996 0.0
H98 H 0.2612 0.72499 0.09633 0.0
C99 C 0.20727 0.88523 0.16619 0.0
H100 H 0.32227 0.78606 0.19672 0.0
C101 C 0.17112 0.84908 0.1077 0.0
C102 C 0.1902 0.79104 0.08038 0.0
H103 H 0.19218 0.93017 0.18491 0.0
H104 H 0.1288 0.86676 0.08331 0.0
C105 C 0.24517 0.76971 0.11435 0.0
C106 C 0.20696 0.14475 0.45168 0.0
C107 C 0.22045 0.13203 0.3665 0.0
H108 H 0.15596 0.19838 0.53916 0.0
C109 C 0.1891 0.16316 0.30327 0.0
H110 H 0.23067 0.12187 0.50204 0.0
C111 C 0.14517 0.20582 0.32473 0.0
C112 C 0.13285 0.21971 0.4099 0.0
H113 H 0.19846 0.15449 0.23723 0.0
H114 H 0.12202 0.22925 0.27436 0.0
C115 C 0.16432 0.18871 0.47313 0.0
C116 C 0.84822 0.16905 0.66598 0.0
C117 C 0.7933 0.19109 0.70002 0.0
H118 H 0.9266 0.18748 0.58288 0.0
C119 C 0.77551 0.24964 0.67361 0.0
H120 H 0.86323 0.12406 0.68448 0.0
C121 C 0.81048 0.28474 0.61469 0.0
C122 C 0.86534 0.26332 0.58043 0.0
H123 H 0.73348 0.26844 0.69729 0.0
H124 H 0.79453 0.32953 0.59689 0.0
C125 C 0.88435 0.20522 0.60749 0.0
C126 C 0.86653 0.89116 0.80326 0.0
C127 C 0.83513 0.92234 0.86645 0.0
H128 H 0.93364 0.82504 0.77444 0.0
C129 C 0.84856 0.90969 0.95165 0.0
H130 H 0.85722 0.89977 0.73721 0.0
C131 C 0.89118 0.86574 0.97316 0.0
C132 C 0.92271 0.83469 0.90996 0.0
H133 H 0.82481 0.9326 1.00198 0.0
H134 H 0.89949 0.85613 0.03919 0.0
C135 C 0.91044 0.84851 0.82477 0.0
loop_
_geom_bond_atom_site_label_1
_geom_bond_atom_site_label_2
_geom_bond_distance
_geom_bond_site_symmetry_2
_ccdc_geom_bond_type
Co0 O1 2.216 1_554 S
Co0 O2 2.091 . S
Co0 O4 2.004 . S
Co0 O10 2.021 1_655 S
Co0 O12 2.137 1_554 S
Co0 O13 2.244 1_654 S
O1 Co0 2.216 1_556 S
O1 C8 1.247 . S
O2 Co0 2.091 . S
O2 C8 1.261 1_554 S
C3 O12 1.247 1_455 S
C3 O13 1.272 . S
O4 Co0 2.004 . S
O4 C9 1.259 1_655 S
Co5 O6 2.061 . S
Co5 O11 2.052 . S
Co5 O13 2.135 1_554 S
O6 Co5 2.061 . S
O6 C9 1.235 . S
C7 O10 1.238 . S
C7 O11 1.241 . S
C8 O1 1.247 . S
C8 O2 1.261 1_556 S
C9 O4 1.259 1_455 S
C9 O6 1.235 . S
O10 Co0 2.021 1_455 S
O10 C7 1.238 . S
O11 Co5 2.052 . S
O11 C7 1.241 . S
O12 Co0 2.137 1_556 S
O12 C3 1.247 1_655 S
O13 Co0 2.244 1_456 S
O13 C3 1.272 . S
O13 Co5 2.135 1_556 S
Co14 O15 2.216 . S
Co14 O16 2.091 . S
Co14 O18 2.004 . S
Co14 O24 2.021 1_545 S
Co14 O26 2.137 . S
Co14 O27 2.244 1_545 S
O15 Co14 2.216 . S
O15 C22 1.247 . S
O16 Co14 2.091 . S
O16 C22 1.261 . S
C17 O26 1.247 . S
C17 O27 1.272 1_545 S
O18 Co14 2.004 . S
O18 C23 1.259 . S
Co19 O20 2.061 . S
Co19 O25 2.052 . S
Co19 O27 2.135 . S
O20 Co19 2.061 . S
O20 C23 1.235 1_565 S
C21 O24 1.238 . S
C21 O25 1.241 . S
C22 O15 1.247 . S
C22 O16 1.261 . S
C23 O18 1.259 . S
C23 O20 1.235 1_545 S
O24 Co14 2.021 1_565 S
O24 C21 1.238 . S
O25 Co19 2.052 . S
O25 C21 1.241 . S
O26 Co14 2.137 . S
O26 C17 1.247 . S
O27 Co14 2.244 1_565 S
O27 C17 1.272 1_565 S
O27 Co19 2.135 . S
Co28 O29 2.216 . S
Co28 O30 2.091 . S
Co28 O32 2.004 . S
Co28 O38 2.021 1_455 S
Co28 O40 2.137 . S
Co28 O41 2.244 1_455 S
O29 Co28 2.216 . S
O29 C36 1.247 . S
O30 Co28 2.091 . S
O30 C36 1.261 . S
C31 O40 1.247 . S
C31 O41 1.272 1_455 S
O32 Co28 2.004 . S
O32 C37 1.259 . S
Co33 O34 2.061 . S
Co33 O39 2.052 . S
Co33 O41 2.135 . S
O34 Co33 2.061 . S
O34 C37 1.235 1_655 S
C35 O38 1.238 . S
C35 O39 1.241 . S
C36 O29 1.247 . S
C36 O30 1.261 . S
C37 O32 1.259 . S
C37 O34 1.235 1_455 S
O38 Co28 2.021 1_655 S
O38 C35 1.238 . S
O39 Co33 2.052 . S
O39 C35 1.241 . S
O40 Co28 2.137 . S
O40 C31 1.247 . S
O41 Co28 2.244 1_655 S
O41 C31 1.272 1_655 S
O41 Co33 2.135 . S
Co42 O43 2.216 . S
Co42 O44 2.091 . S
Co42 O46 2.004 . S
Co42 O52 2.021 1_565 S
Co42 O54 2.137 . S
Co42 O55 2.244 1_565 S
O43 Co42 2.216 . S
O43 C50 1.247 . S
O44 Co42 2.091 . S
O44 C50 1.261 . S
C45 O54 1.247 1_545 S
C45 O55 1.272 . S
O46 Co42 2.004 . S
O46 C51 1.259 1_565 S
Co47 O48 2.061 . S
Co47 O53 2.052 . S
Co47 O55 2.135 . S
O48 Co47 2.061 . S
O48 C51 1.235 . S
C49 O52 1.238 . S
C49 O53 1.241 . S
C50 O43 1.247 . S
C50 O44 1.261 . S
C51 O46 1.259 1_545 S
C51 O48 1.235 . S
O52 Co42 2.021 1_545 S
O52 C49 1.238 . S
O53 Co47 2.052 . S
O53 C49 1.241 . S
O54 Co42 2.137 . S
O54 C45 1.247 1_565 S
O55 Co42 2.244 1_545 S
O55 C45 1.272 . S
O55 Co47 2.135 . S
C56 C57 1.387 . S
C56 H60 0.950 . S
C56 C65 1.390 . S
C57 C56 1.387 . S
C57 C59 1.387 1_455 S
H58 C65 0.950 . S
C59 C57 1.387 1_655 S
C59 C61 1.390 . S
C59 H63 0.950 . S
H60 C56 0.950 . S
C61 C59 1.390 . S
C61 C62 1.387 1_655 S
C61 H64 0.950 . S
C62 C61 1.387 1_455 S
C62 C65 1.387 . S
H63 C59 0.950 . S
H64 C61 0.950 . S
C65 C56 1.390 . S
C65 H58 0.950 . S
C65 C62 1.387 . S
C66 C67 1.387 . S
C66 H70 0.950 . S
C66 C75 1.390 . S
C67 C66 1.387 . S
C67 C69 1.387 1_545 S
H68 C75 0.950 . S
C69 C67 1.387 1_565 S
C69 C71 1.390 . S
C69 H73 0.950 . S
H70 C66 0.950 . S
C71 C69 1.390 . S
C71 C72 1.387 1_565 S
C71 H74 0.950 . S
C72 C71 1.387 1_545 S
C72 C75 1.387 . S
H73 C69 0.950 . S
H74 C71 0.950 . S
C75 C66 1.390 . S
C75 H68 0.950 . S
C75 C72 1.387 . S
C76 C77 1.387 . S
C76 H80 0.950 . S
C76 C85 1.390 . S
C77 C76 1.387 . S
C77 C79 1.387 1_455 S
H78 C85 0.950 . S
C79 C77 1.387 1_655 S
C79 C81 1.390 . S
C79 H83 0.950 . S
H80 C76 0.950 . S
C81 C79 1.390 . S
C81 C82 1.387 1_655 S
C81 H84 0.950 . S
C82 C81 1.387 1_455 S
C82 C85 1.387 . S
H83 C79 0.950 . S
H84 C81 0.950 . S
C85 C76 1.390 . S
C85 H78 0.950 . S
C85 C82 1.387 . S
C86 C87 1.387 . S
C86 H90 0.950 . S
C86 C95 1.390 1_554 S
C87 C86 1.387 . S
C87 C89 1.387 1_545 S
H88 C95 0.950 . S
C89 C87 1.387 1_565 S
C89 C91 1.390 1_554 S
C89 H93 0.950 . S
H90 C86 0.950 . S
C91 C89 1.390 1_556 S
C91 C92 1.387 1_565 S
C91 H94 0.950 . S
C92 C91 1.387 1_545 S
C92 C95 1.387 . S
H93 C89 0.950 . S
H94 C91 0.950 . S
C95 C86 1.390 1_556 S
C95 H88 0.950 . S
C95 C92 1.387 . S
C96 C97 1.387 . S
C96 H100 0.950 . S
C96 C105 1.390 . S
C97 C96 1.387 . S
C97 C99 1.387 . S
H98 C105 0.950 . S
C99 C97 1.387 . S
C99 C101 1.390 . S
C99 H103 0.950 . S
H100 C96 0.950 . S
C101 C99 1.390 . S
C101 C102 1.387 . S
C101 H104 0.950 . S
C102 C101 1.387 . S
C102 C105 1.387 . S
H103 C99 0.950 . S
H104 C101 0.950 . S
C105 C96 1.390 . S
C105 H98 0.950 . S
C105 C102 1.387 . S
C106 C107 1.387 . S
C106 H110 0.950 . S
C106 C115 1.390 . S
C107 C106 1.387 . S
C107 C109 1.387 . S
H108 C115 0.950 . S
C109 C107 1.387 . S
C109 C111 1.390 . S
C109 H113 0.950 . S
H110 C106 0.950 . S
C111 C109 1.390 . S
C111 C112 1.387 . S
C111 H114 0.950 . S
C112 C111 1.387 . S
C112 C115 1.387 . S
H113 C109 0.950 . S
H114 C111 0.950 . S
C115 C106 1.390 . S
C115 H108 0.950 . S
C115 C112 1.387 . S
C116 C117 1.387 . S
C116 H120 0.950 . S
C116 C125 1.390 . S
C117 C116 1.387 . S
C117 C119 1.387 . S
H118 C125 0.950 . S
C119 C117 1.387 . S
C119 C121 1.390 . S
C119 H123 0.950 . S
H120 C116 0.950 . S
C121 C119 1.390 . S
C121 C122 1.387 . S
C121 H124 0.950 . S
C122 C121 1.387 . S
C122 C125 1.387 . S
H123 C119 0.950 . S
H124 C121 0.950 . S
C125 C116 1.390 . S
C125 H118 0.950 . S
C125 C122 1.387 . S
C126 C127 1.387 . S
C126 H130 0.950 . S
C126 C135 1.390 . S
C127 C126 1.387 . S
C127 C129 1.387 . S
H128 C135 0.950 . S
C129 C127 1.387 . S
C129 C131 1.390 . S
C129 H133 0.950 . S
H130 C126 0.950 . S
C131 C129 1.390 . S
C131 C132 1.387 . S
C131 H134 0.950 . S
C132 C131 1.387 . S
C132 C135 1.387 . S
H133 C129 0.950 . S
H134 C131 0.950 . S
C135 C126 1.390 . S
C135 H128 0.950 . S
C135 C132 1.387 . S
C57 C9 1.424 . S
C62 C31 1.440 . S
C67 C17 1.441 . S
C72 C51 1.424 . S
C77 C3 1.441 . S
C82 C37 1.425 . S
C87 C23 1.425 . S
C92 C45 1.441 . S
C97 C21 1.468 . S
C102 C7 1.470 . S
C107 C22 1.493 . S
C112 C36 1.493 . S
C117 C49 1.470 . S
C122 C35 1.468 . S
C127 C50 1.493 . S
C132 C8 1.493 . S
