# Generated by pormake.
# Topology upa, (4)-cn, num edge types: 1
# Building blocks:
#     Node 0, Type 0, BuildingBlock: NAHDIM_clean_sbu_0, # of connection points: 4
#     Node 1, Type 0, BuildingBlock: NAHDIM_clean_sbu_0, # of connection points: 4
#     Node 2, Type 0, BuildingBlock: NAHDIM_clean_sbu_0, # of connection points: 4
#     Node 3, Type 0, BuildingBlock: NAHDIM_clean_sbu_0, # of connection points: 4
#     Node 4, Type 0, BuildingBlock: NAHDIM_clean_sbu_0, # of connection points: 4
#     Node 5, Type 0, BuildingBlock: NAHDIM_clean_sbu_0, # of connection points: 4
#     Node 6, Type 0, BuildingBlock: NAHDIM_clean_sbu_0, # of connection points: 4
#     Node 7, Type 0, BuildingBlock: NAHDIM_clean_sbu_0, # of connection points: 4
#     Edge 8, Type (0, 0), BuildingBlock: OJICUG_clean_linker_0, # of connection points: 2
#     Edge 9, Type (0, 0), BuildingBlock: OJICUG_clean_linker_0, # of connection points: 2
#     Edge 10, Type (0, 0), BuildingBlock: OJICUG_clean_linker_0, # of connection points: 2
#     Edge 11, Type (0, 0), BuildingBlock: OJICUG_clean_linker_0, # of connection points: 2
#     Edge 12, Type (0, 0), BuildingBlock: OJICUG_clean_linker_0, # of connection points: 2
#     Edge 13, Type (0, 0), BuildingBlock: OJICUG_clean_linker_0, # of connection points: 2
#     Edge 14, Type (0, 0), BuildingBlock: OJICUG_clean_linker_0, # of connection points: 2
#     Edge 15, Type (0, 0), BuildingBlock: OJICUG_clean_linker_0, # of connection points: 2
#     Edge 16, Type (0, 0), BuildingBlock: OJICUG_clean_linker_0, # of connection points: 2
#     Edge 17, Type (0, 0), BuildingBlock: OJICUG_clean_linker_0, # of connection points: 2
#     Edge 18, Type (0, 0), BuildingBlock: OJICUG_clean_linker_0, # of connection points: 2
#     Edge 19, Type (0, 0), BuildingBlock: OJICUG_clean_linker_0, # of connection points: 2
#     Edge 20, Type (0, 0), BuildingBlock: OJICUG_clean_linker_0, # of connection points: 2
#     Edge 21, Type (0, 0), BuildingBlock: OJICUG_clean_linker_0, # of connection points: 2
#     Edge 22, Type (0, 0), BuildingBlock: OJICUG_clean_linker_0, # of connection points: 2
#     Edge 23, Type (0, 0), BuildingBlock: OJICUG_clean_linker_0, # of connection points: 2
# Relax obj value: 0.275
# Max RMSD: 0.207
# Mean RMSD: 0.207
data_MOF--net-upa--node1-NAHDIM_clean_sbu_0--edge1-OJICUG_clean_linker_0
_symmetry_space_group_name_H-M    P1
_symmetry_Int_Tables_number       1
_symmetry_cell_setting            triclinic
loop_
_symmetry_equiv_pos_as_xyz
'x, y, z'
_cell_length_a     19.516396
_cell_length_b     19.531954
_cell_length_c     30.248384
_cell_angle_alpha  90.053998
_cell_angle_beta   90.10995
_cell_angle_gamma 90.075666
loop_
_atom_site_label
_atom_site_type_symbol
_atom_site_fract_x
_atom_site_fract_y
_atom_site_fract_z
_atom_type_partial_charge
C0 C 0.34616 0.21027 0.3115 0.0
O1 O 0.35191 0.20009 0.35424 0.0
O2 O 0.12913 0.28887 0.30974 0.0
Zn3 Zn 0.19963 0.22056 0.33097 0.0
O4 O 0.21663 0.22959 0.39691 0.0
C5 C 0.10781 0.12158 0.29173 0.0
O6 O 0.09839 0.16975 0.26208 0.0
O7 O 0.28723 0.22168 0.29493 0.0
C8 C 0.23063 0.17437 0.41729 0.0
O9 O 0.23824 0.1178 0.39429 0.0
C10 C 0.0747 0.29216 0.33276 0.0
O11 O 0.07374 0.26191 0.37153 0.0
O12 O 0.1519 0.13045 0.32219 0.0
C13 C 0.33543 0.84435 0.80083 0.0
O14 O 0.34066 0.8391 0.84398 0.0
O15 O 0.23293 0.64339 0.77517 0.0
Zn16 Zn 0.30755 0.69791 0.80598 0.0
O17 O 0.2912 0.70544 0.87221 0.0
C18 C 0.38774 0.57844 0.81088 0.0
O19 O 0.33549 0.56126 0.83579 0.0
O20 O 0.32132 0.79128 0.77807 0.0
C21 C 0.34153 0.6972 0.89845 0.0
O22 O 0.40303 0.68691 0.88227 0.0
C23 C 0.19741 0.59929 0.79597 0.0
O24 O 0.19704 0.60102 0.83939 0.0
O25 O 0.39039 0.63867 0.79496 0.0
C26 C 0.66083 0.83888 0.28747 0.0
O27 O 0.66343 0.85921 0.32885 0.0
O28 O 0.87037 0.74053 0.27165 0.0
Zn29 Zn 0.80702 0.80992 0.29969 0.0
O30 O 0.80202 0.7988 0.36593 0.0
C31 C 0.91653 0.89832 0.31025 0.0
O32 O 0.93277 0.84654 0.33586 0.0
O33 O 0.71464 0.8154 0.26923 0.0
C34 C 0.76433 0.76389 0.39167 0.0
O35 O 0.71573 0.72476 0.37527 0.0
C36 C 0.91095 0.70313 0.29402 0.0
O37 O 0.90165 0.69769 0.33688 0.0
O38 O 0.85912 0.89743 0.29026 0.0
C39 C 0.68234 0.19159 0.74629 0.0
O40 O 0.66418 0.24536 0.72304 0.0
O41 O 0.77274 0.35956 0.78872 0.0
Zn42 Zn 0.70615 0.29214 0.81567 0.0
O43 O 0.7231 0.28141 0.88128 0.0
C44 C 0.60258 0.38245 0.77964 0.0
O45 O 0.64748 0.39167 0.7479 0.0
O46 O 0.70347 0.19976 0.78574 0.0
C47 C 0.67097 0.26472 0.90403 0.0
O48 O 0.61325 0.25085 0.88344 0.0
C49 C 0.77078 0.41807 0.80727 0.0
O50 O 0.73716 0.42404 0.84469 0.0
O51 O 0.6147 0.3388 0.80982 0.0
C52 C 0.80912 0.33009 0.25292 0.0
O53 O 0.75493 0.3436 0.27709 0.0
O54 O 0.64233 0.24723 0.21802 0.0
Zn55 Zn 0.70691 0.31017 0.18438 0.0
O56 O 0.71443 0.28398 0.11934 0.0
C57 C 0.61551 0.41617 0.21531 0.0
O58 O 0.60409 0.37289 0.24766 0.0
O59 O 0.80103 0.31416 0.21247 0.0
C60 C 0.67063 0.30868 0.0925 0.0
O61 O 0.62243 0.3493 0.10757 0.0
C62 C 0.58569 0.22953 0.20044 0.0
O63 O 0.57666 0.23984 0.15798 0.0
O64 O 0.66169 0.40283 0.18694 0.0
C65 C 0.16709 0.34128 0.70583 0.0
O66 O 0.16239 0.33775 0.66256 0.0
O67 O 0.26698 0.14134 0.73182 0.0
Zn68 Zn 0.19354 0.19429 0.69867 0.0
O69 O 0.21532 0.20586 0.63317 0.0
C70 C 0.11306 0.0714 0.70757 0.0
O71 O 0.17428 0.04385 0.70757 0.0
O72 O 0.17939 0.28698 0.72771 0.0
C73 C 0.21117 0.15469 0.60724 0.0
O74 O 0.19484 0.09461 0.62349 0.0
C75 C 0.31248 0.10416 0.71369 0.0
O76 O 0.3234 0.11022 0.67107 0.0
O77 O 0.10708 0.13623 0.70447 0.0
C78 C 0.18686 0.66729 0.23061 0.0
O79 O 0.2313 0.6277 0.25086 0.0
O80 O 0.36002 0.78617 0.20981 0.0
Zn81 Zn 0.30476 0.71356 0.17776 0.0
O82 O 0.30292 0.7281 0.11135 0.0
C83 C 0.41965 0.62783 0.17454 0.0
O84 O 0.43762 0.67744 0.14771 0.0
O85 O 0.20735 0.70702 0.20006 0.0
C86 C 0.3038 0.67539 0.08665 0.0
O87 O 0.30373 0.6143 0.10475 0.0
C88 C 0.40775 0.81792 0.18985 0.0
O89 O 0.40876 0.81709 0.14642 0.0
O90 O 0.35978 0.62841 0.19119 0.0
C91 C 0.80923 0.66078 0.70126 0.0
O92 O 0.84491 0.65971 0.66448 0.0
O93 O 0.71249 0.87092 0.69245 0.0
Zn94 Zn 0.78075 0.79923 0.67322 0.0
O95 O 0.76613 0.77537 0.60836 0.0
C96 C 0.87834 0.89238 0.71115 0.0
O97 O 0.82731 0.90447 0.73823 0.0
O98 O 0.7766 0.71484 0.7116 0.0
C99 C 0.80912 0.7963 0.57982 0.0
O100 O 0.86263 0.83153 0.59321 0.0
C101 C 0.70786 0.92405 0.66832 0.0
O102 O 0.73613 0.92314 0.62895 0.0
O103 O 0.8724 0.84572 0.68198 0.0
C104 C 0.07402 0.00888 0.32365 0.0
C105 C 0.06111 0.06221 0.29372 0.0
H106 H 0.03846 0.9157 0.35235 0.0
C107 C 0.00067 0.06068 0.26834 0.0
H108 H 0.12009 0.0086 0.3437 0.0
C109 C 0.95331 0.00753 0.2736 0.0
C110 C 0.96584 0.95485 0.30414 0.0
H111 H 0.98909 0.10135 0.24519 0.0
H112 H 0.90683 0.00794 0.25398 0.0
C113 C 0.02702 0.95573 0.32871 0.0
C114 C 0.49283 0.54107 0.77005 0.0
C115 C 0.44173 0.52772 0.80151 0.0
H116 H 0.58334 0.50482 0.73782 0.0
C117 C 0.44179 0.4646 0.82377 0.0
H118 H 0.49378 0.58906 0.75215 0.0
C119 C 0.49289 0.41645 0.8156 0.0
C120 C 0.54466 0.43015 0.7847 0.0
H121 H 0.40289 0.4526 0.84807 0.0
H122 H 0.49237 0.36888 0.83399 0.0
C123 C 0.5437 0.49255 0.76156 0.0
C124 C 0.58127 0.5216 0.17429 0.0
C125 C 0.5676 0.47331 0.20745 0.0
H126 H 0.54517 0.60788 0.13785 0.0
C127 C 0.505 0.47669 0.23034 0.0
H128 H 0.6289 0.52023 0.15598 0.0
C129 C 0.45643 0.52654 0.21956 0.0
C130 C 0.46985 0.5742 0.18595 0.0
H131 H 0.4927 0.4398 0.25585 0.0
H132 H 0.40843 0.52762 0.23747 0.0
C133 C 0.53305 0.57164 0.16378 0.0
C134 C 0.98947 0.0497 0.72485 0.0
C135 C 0.05259 0.0262 0.70881 0.0
H136 H 0.88488 0.0248 0.73909 0.0
C137 C 0.05829 0.95807 0.69419 0.0
H138 H 0.98386 0.10189 0.73643 0.0
C139 C 0.00167 0.91442 0.69501 0.0
C140 C 0.93877 0.93758 0.7115 0.0
H141 H 0.10635 0.93868 0.68145 0.0
H142 H 0.00722 0.86244 0.683 0.0
C143 C 0.93317 0.00545 0.72668 0.0
C144 C 0.23781 0.10788 0.48745 0.0
C145 C 0.23212 0.17155 0.4662 0.0
H146 H 0.23572 0.0529 0.54838 0.0
C147 C 0.22402 0.23087 0.49209 0.0
H148 H 0.24433 0.06114 0.46863 0.0
C149 C 0.2196 0.2261 0.53825 0.0
C150 C 0.22242 0.16188 0.55915 0.0
H151 H 0.21965 0.2807 0.47668 0.0
H152 H 0.21173 0.27232 0.55739 0.0
C153 C 0.23268 0.10308 0.53328 0.0
C154 C 0.36638 0.64287 0.97081 0.0
C155 C 0.33072 0.69253 0.94649 0.0
H156 H 0.38422 0.59775 0.03425 0.0
C157 C 0.28562 0.73698 0.96845 0.0
H158 H 0.40118 0.60784 0.95451 0.0
C159 C 0.27751 0.73256 0.01441 0.0
C160 C 0.31243 0.68198 0.03851 0.0
H161 H 0.2578 0.77578 0.95024 0.0
H162 H 0.24319 0.76774 0.03096 0.0
C163 C 0.35645 0.63691 0.01629 0.0
C164 C 0.7415 0.74705 0.51613 0.0
C165 C 0.7979 0.78488 0.53192 0.0
H166 H 0.68651 0.71026 0.45926 0.0
C167 C 0.84352 0.81373 0.50128 0.0
H168 H 0.70547 0.72408 0.53892 0.0
C169 C 0.8326 0.80609 0.45601 0.0
C170 C 0.77585 0.76914 0.44 0.0
H171 H 0.88754 0.84312 0.51216 0.0
H172 H 0.86875 0.82968 0.43354 0.0
C173 C 0.73067 0.73909 0.47053 0.0
C174 C 0.6101 0.2796 0.97561 0.0
C175 C 0.67193 0.26989 0.95279 0.0
H176 H 0.56168 0.30015 0.03753 0.0
C177 C 0.73375 0.26907 0.97676 0.0
H178 H 0.56161 0.28077 0.95813 0.0
C179 C 0.73358 0.27887 0.02271 0.0
C180 C 0.67177 0.29143 0.04502 0.0
H181 H 0.78215 0.26157 0.95998 0.0
H182 H 0.78182 0.27914 0.04048 0.0
C183 C 0.61011 0.29103 0.0211 0.0
C184 C 0.45948 0.21278 0.20992 0.0
C185 C 0.52549 0.2146 0.22867 0.0
H186 H 0.3513 0.2108 0.22124 0.0
C187 C 0.53207 0.21053 0.27488 0.0
H188 H 0.45237 0.21592 0.17446 0.0
C189 C 0.47384 0.2075 0.30175 0.0
C190 C 0.40783 0.20905 0.28301 0.0
H191 H 0.58211 0.21197 0.2904 0.0
H192 H 0.48064 0.20598 0.33728 0.0
C193 C 0.40135 0.21039 0.23677 0.0
C194 C 0.35029 0.91738 0.73341 0.0
C195 C 0.34058 0.91221 0.7793 0.0
H196 H 0.35165 0.98282 0.67676 0.0
C197 C 0.33196 0.97246 0.80412 0.0
H198 H 0.3579 0.87192 0.71348 0.0
C199 C 0.32783 0.03605 0.78306 0.0
C200 C 0.3335 0.04079 0.73685 0.0
H201 H 0.32477 0.97024 0.83959 0.0
H202 H 0.31697 0.08112 0.80273 0.0
C203 C 0.34747 0.9811 0.71245 0.0
C204 C 0.53234 0.84381 0.28468 0.0
C205 C 0.59554 0.84154 0.26249 0.0
H206 H 0.42287 0.83844 0.27904 0.0
C207 C 0.59583 0.8396 0.21608 0.0
H208 H 0.53049 0.84561 0.32045 0.0
C209 C 0.53434 0.83717 0.19238 0.0
C210 C 0.47111 0.83523 0.21458 0.0
H211 H 0.6437 0.83863 0.19801 0.0
H212 H 0.53668 0.83312 0.1567 0.0
C213 C 0.47072 0.84001 0.26097 0.0
C214 C 0.68383 0.06382 0.7533 0.0
C215 C 0.68034 0.12236 0.72641 0.0
H216 H 0.69253 0.95475 0.75607 0.0
C217 C 0.67709 0.11413 0.68031 0.0
H218 H 0.68539 0.06846 0.78898 0.0
C219 C 0.68179 0.04895 0.6614 0.0
C220 C 0.68877 0.99062 0.68822 0.0
H221 H 0.67383 0.15822 0.65872 0.0
H222 H 0.68258 0.04453 0.6257 0.0
C223 C 0.6873 0.99857 0.73441 0.0
C224 C 0.00212 0.3172 0.26616 0.0
C225 C 0.00912 0.31384 0.31239 0.0
H226 H 0.93332 0.32412 0.21106 0.0
C227 C 0.95051 0.32205 0.33879 0.0
H228 H 0.04619 0.31079 0.24485 0.0
C229 C 0.8859 0.33008 0.31943 0.0
C230 C 0.87833 0.32915 0.27322 0.0
H231 H 0.95419 0.31981 0.3745 0.0
H232 H 0.84159 0.3342 0.34078 0.0
C233 C 0.93733 0.32427 0.24678 0.0
C234 C 0.17047 0.46972 0.70438 0.0
C235 C 0.16427 0.40855 0.72855 0.0
H236 H 0.1851 0.57843 0.70671 0.0
C237 C 0.15957 0.41222 0.77484 0.0
H238 H 0.17382 0.46876 0.66864 0.0
C239 C 0.16485 0.47523 0.79662 0.0
C240 C 0.17599 0.5359 0.77263 0.0
H241 H 0.15399 0.36614 0.79441 0.0
H242 H 0.16415 0.47568 0.83242 0.0
C243 C 0.17672 0.53267 0.72619 0.0
C244 C 0.09335 0.63863 0.28455 0.0
C245 C 0.11403 0.66837 0.24441 0.0
H246 H 0.01244 0.62554 0.33161 0.0
C247 C 0.06483 0.70195 0.21831 0.0
H248 H 0.12989 0.61195 0.30528 0.0
C249 C 0.99738 0.70883 0.23304 0.0
C250 C 0.97766 0.68302 0.27452 0.0
H251 H 0.07881 0.72463 0.18692 0.0
H252 H 0.96168 0.73748 0.21281 0.0
C253 C 0.02593 0.64618 0.29956 0.0
C254 C 0.82035 0.47643 0.74044 0.0
C255 C 0.78973 0.48063 0.78239 0.0
H256 H 0.85085 0.53015 0.68192 0.0
C257 C 0.76986 0.54525 0.79842 0.0
H258 H 0.83608 0.42745 0.72708 0.0
C259 C 0.7773 0.60375 0.77237 0.0
C260 C 0.80555 0.59928 0.72981 0.0
H261 H 0.74598 0.55052 0.83053 0.0
H262 H 0.75976 0.65235 0.78535 0.0
C263 C 0.82853 0.53526 0.71451 0.0
loop_
_geom_bond_atom_site_label_1
_geom_bond_atom_site_label_2
_geom_bond_distance
_geom_bond_site_symmetry_2
_ccdc_geom_bond_type
C0 O1 1.160 . S
C0 O7 1.185 . S
O1 C0 1.160 . S
O2 Zn3 1.899 . S
O2 C10 1.284 . S
Zn3 O2 1.899 . S
Zn3 O4 2.032 . S
Zn3 O7 2.086 . S
Zn3 O12 1.977 . S
O4 Zn3 2.032 . S
O4 C8 1.278 . S
C5 O6 1.203 . S
C5 O12 1.267 . S
O6 C5 1.203 . S
O7 C0 1.185 . S
O7 Zn3 2.086 . S
C8 O4 1.278 . S
C8 O9 1.211 . S
O9 C8 1.211 . S
C10 O2 1.284 . S
C10 O11 1.273 . S
O11 C10 1.273 . S
O12 Zn3 1.977 . S
O12 C5 1.267 . S
C13 O14 1.160 . S
C13 O20 1.185 . S
O14 C13 1.160 . S
O15 Zn16 1.899 . S
O15 C23 1.284 . S
Zn16 O15 1.899 . S
Zn16 O17 2.032 . S
Zn16 O20 2.086 . S
Zn16 O25 1.977 . S
O17 Zn16 2.032 . S
O17 C21 1.278 . S
C18 O19 1.203 . S
C18 O25 1.267 . S
O19 C18 1.203 . S
O20 C13 1.185 . S
O20 Zn16 2.086 . S
C21 O17 1.278 . S
C21 O22 1.211 . S
O22 C21 1.211 . S
C23 O15 1.284 . S
C23 O24 1.273 . S
O24 C23 1.273 . S
O25 Zn16 1.977 . S
O25 C18 1.267 . S
C26 O27 1.160 . S
C26 O33 1.185 . S
O27 C26 1.160 . S
O28 Zn29 1.899 . S
O28 C36 1.284 . S
Zn29 O28 1.899 . S
Zn29 O30 2.032 . S
Zn29 O33 2.086 . S
Zn29 O38 1.977 . S
O30 Zn29 2.032 . S
O30 C34 1.278 . S
C31 O32 1.203 . S
C31 O38 1.267 . S
O32 C31 1.203 . S
O33 C26 1.185 . S
O33 Zn29 2.086 . S
C34 O30 1.278 . S
C34 O35 1.211 . S
O35 C34 1.211 . S
C36 O28 1.284 . S
C36 O37 1.273 . S
O37 C36 1.273 . S
O38 Zn29 1.977 . S
O38 C31 1.267 . S
C39 O40 1.160 . S
C39 O46 1.185 . S
O40 C39 1.160 . S
O41 Zn42 1.899 . S
O41 C49 1.284 . S
Zn42 O41 1.899 . S
Zn42 O43 2.032 . S
Zn42 O46 2.086 . S
Zn42 O51 1.977 . S
O43 Zn42 2.032 . S
O43 C47 1.278 . S
C44 O45 1.203 . S
C44 O51 1.267 . S
O45 C44 1.203 . S
O46 C39 1.185 . S
O46 Zn42 2.086 . S
C47 O43 1.278 . S
C47 O48 1.211 . S
O48 C47 1.211 . S
C49 O41 1.284 . S
C49 O50 1.273 . S
O50 C49 1.273 . S
O51 Zn42 1.977 . S
O51 C44 1.267 . S
C52 O53 1.160 . S
C52 O59 1.185 . S
O53 C52 1.160 . S
O54 Zn55 1.899 . S
O54 C62 1.284 . S
Zn55 O54 1.899 . S
Zn55 O56 2.032 . S
Zn55 O59 2.086 . S
Zn55 O64 1.977 . S
O56 Zn55 2.032 . S
O56 C60 1.278 . S
C57 O58 1.203 . S
C57 O64 1.267 . S
O58 C57 1.203 . S
O59 C52 1.185 . S
O59 Zn55 2.086 . S
C60 O56 1.278 . S
C60 O61 1.211 . S
O61 C60 1.211 . S
C62 O54 1.284 . S
C62 O63 1.273 . S
O63 C62 1.273 . S
O64 Zn55 1.977 . S
O64 C57 1.267 . S
C65 O66 1.160 . S
C65 O72 1.185 . S
O66 C65 1.160 . S
O67 Zn68 1.899 . S
O67 C75 1.284 . S
Zn68 O67 1.899 . S
Zn68 O69 2.032 . S
Zn68 O72 2.086 . S
Zn68 O77 1.977 . S
O69 Zn68 2.032 . S
O69 C73 1.278 . S
C70 O71 1.203 . S
C70 O77 1.267 . S
O71 C70 1.203 . S
O72 C65 1.185 . S
O72 Zn68 2.086 . S
C73 O69 1.278 . S
C73 O74 1.211 . S
O74 C73 1.211 . S
C75 O67 1.284 . S
C75 O76 1.273 . S
O76 C75 1.273 . S
O77 Zn68 1.977 . S
O77 C70 1.267 . S
C78 O79 1.160 . S
C78 O85 1.185 . S
O79 C78 1.160 . S
O80 Zn81 1.899 . S
O80 C88 1.284 . S
Zn81 O80 1.899 . S
Zn81 O82 2.032 . S
Zn81 O85 2.086 . S
Zn81 O90 1.977 . S
O82 Zn81 2.032 . S
O82 C86 1.278 . S
C83 O84 1.203 . S
C83 O90 1.267 . S
O84 C83 1.203 . S
O85 C78 1.185 . S
O85 Zn81 2.086 . S
C86 O82 1.278 . S
C86 O87 1.211 . S
O87 C86 1.211 . S
C88 O80 1.284 . S
C88 O89 1.273 . S
O89 C88 1.273 . S
O90 Zn81 1.977 . S
O90 C83 1.267 . S
C91 O92 1.160 . S
C91 O98 1.185 . S
O92 C91 1.160 . S
O93 Zn94 1.899 . S
O93 C101 1.284 . S
Zn94 O93 1.899 . S
Zn94 O95 2.032 . S
Zn94 O98 2.086 . S
Zn94 O103 1.977 . S
O95 Zn94 2.032 . S
O95 C99 1.278 . S
C96 O97 1.203 . S
C96 O103 1.267 . S
O97 C96 1.203 . S
O98 C91 1.185 . S
O98 Zn94 2.086 . S
C99 O95 1.278 . S
C99 O100 1.211 . S
O100 C99 1.211 . S
C101 O93 1.284 . S
C101 O102 1.273 . S
O102 C101 1.273 . S
O103 Zn94 1.977 . S
O103 C96 1.267 . S
C104 C105 1.387 . S
C104 H108 0.950 . S
C104 C113 1.390 1_445 S
C105 C104 1.387 . S
C105 C107 1.387 . S
H106 C113 0.950 . S
C107 C105 1.387 . S
C107 C109 1.390 1_445 S
C107 H111 0.950 . S
H108 C104 0.950 . S
C109 C107 1.390 1_665 S
C109 C110 1.387 . S
C109 H112 0.950 . S
C110 C109 1.387 . S
C110 C113 1.387 . S
H111 C107 0.950 . S
H112 C109 0.950 . S
C113 C104 1.390 1_665 S
C113 H106 0.950 . S
C113 C110 1.387 . S
C114 C115 1.387 . S
C114 H118 0.950 . S
C114 C123 1.390 . S
C115 C114 1.387 . S
C115 C117 1.387 . S
H116 C123 0.950 . S
C117 C115 1.387 . S
C117 C119 1.390 . S
C117 H121 0.950 . S
H118 C114 0.950 . S
C119 C117 1.390 . S
C119 C120 1.387 . S
C119 H122 0.950 . S
C120 C119 1.387 . S
C120 C123 1.387 . S
H121 C117 0.950 . S
H122 C119 0.950 . S
C123 C114 1.390 . S
C123 H116 0.950 . S
C123 C120 1.387 . S
C124 C125 1.387 . S
C124 H128 0.950 . S
C124 C133 1.390 . S
C125 C124 1.387 . S
C125 C127 1.387 . S
H126 C133 0.950 . S
C127 C125 1.387 . S
C127 C129 1.390 . S
C127 H131 0.950 . S
H128 C124 0.950 . S
C129 C127 1.390 . S
C129 C130 1.387 . S
C129 H132 0.950 . S
C130 C129 1.387 . S
C130 C133 1.387 . S
H131 C127 0.950 . S
H132 C129 0.950 . S
C133 C124 1.390 . S
C133 H126 0.950 . S
C133 C130 1.387 . S
C134 C135 1.387 . S
C134 H138 0.950 . S
C134 C143 1.390 1_445 S
C135 C134 1.387 . S
C135 C137 1.387 . S
H136 C143 0.950 . S
C137 C135 1.387 . S
C137 C139 1.390 1_445 S
C137 H141 0.950 . S
H138 C134 0.950 . S
C139 C137 1.390 1_665 S
C139 C140 1.387 . S
C139 H142 0.950 . S
C140 C139 1.387 . S
C140 C143 1.387 . S
H141 C137 0.950 . S
H142 C139 0.950 . S
C143 C134 1.390 1_665 S
C143 H136 0.950 . S
C143 C140 1.387 . S
C144 C145 1.387 . S
C144 H148 0.950 . S
C144 C153 1.390 . S
C145 C144 1.387 . S
C145 C147 1.387 . S
H146 C153 0.950 . S
C147 C145 1.387 . S
C147 C149 1.390 . S
C147 H151 0.950 . S
H148 C144 0.950 . S
C149 C147 1.390 . S
C149 C150 1.387 . S
C149 H152 0.950 . S
C150 C149 1.387 . S
C150 C153 1.387 . S
H151 C147 0.950 . S
H152 C149 0.950 . S
C153 C144 1.390 . S
C153 H146 0.950 . S
C153 C150 1.387 . S
C154 C155 1.387 . S
C154 H158 0.950 . S
C154 C163 1.390 1_556 S
C155 C154 1.387 . S
C155 C157 1.387 . S
H156 C163 0.950 . S
C157 C155 1.387 . S
C157 C159 1.390 1_556 S
C157 H161 0.950 . S
H158 C154 0.950 . S
C159 C157 1.390 1_554 S
C159 C160 1.387 . S
C159 H162 0.950 . S
C160 C159 1.387 . S
C160 C163 1.387 . S
H161 C157 0.950 . S
H162 C159 0.950 . S
C163 C154 1.390 1_554 S
C163 H156 0.950 . S
C163 C160 1.387 . S
C164 C165 1.387 . S
C164 H168 0.950 . S
C164 C173 1.390 . S
C165 C164 1.387 . S
C165 C167 1.387 . S
H166 C173 0.950 . S
C167 C165 1.387 . S
C167 C169 1.390 . S
C167 H171 0.950 . S
H168 C164 0.950 . S
C169 C167 1.390 . S
C169 C170 1.387 . S
C169 H172 0.950 . S
C170 C169 1.387 . S
C170 C173 1.387 . S
H171 C167 0.950 . S
H172 C169 0.950 . S
C173 C164 1.390 . S
C173 H166 0.950 . S
C173 C170 1.387 . S
C174 C175 1.387 . S
C174 H178 0.950 . S
C174 C183 1.390 1_556 S
C175 C174 1.387 . S
C175 C177 1.387 . S
H176 C183 0.950 . S
C177 C175 1.387 . S
C177 C179 1.390 1_556 S
C177 H181 0.950 . S
H178 C174 0.950 . S
C179 C177 1.390 1_554 S
C179 C180 1.387 . S
C179 H182 0.950 . S
C180 C179 1.387 . S
C180 C183 1.387 . S
H181 C177 0.950 . S
H182 C179 0.950 . S
C183 C174 1.390 1_554 S
C183 H176 0.950 . S
C183 C180 1.387 . S
C184 C185 1.387 . S
C184 H188 0.950 . S
C184 C193 1.390 . S
C185 C184 1.387 . S
C185 C187 1.387 . S
H186 C193 0.950 . S
C187 C185 1.387 . S
C187 C189 1.390 . S
C187 H191 0.950 . S
H188 C184 0.950 . S
C189 C187 1.390 . S
C189 C190 1.387 . S
C189 H192 0.950 . S
C190 C189 1.387 . S
C190 C193 1.387 . S
H191 C187 0.950 . S
H192 C189 0.950 . S
C193 C184 1.390 . S
C193 H186 0.950 . S
C193 C190 1.387 . S
C194 C195 1.387 . S
C194 H198 0.950 . S
C194 C203 1.390 . S
C195 C194 1.387 . S
C195 C197 1.387 . S
H196 C203 0.950 . S
C197 C195 1.387 . S
C197 C199 1.390 . S
C197 H201 0.950 . S
H198 C194 0.950 . S
C199 C197 1.390 . S
C199 C200 1.387 . S
C199 H202 0.950 . S
C200 C199 1.387 . S
C200 C203 1.387 . S
H201 C197 0.950 . S
H202 C199 0.950 . S
C203 C194 1.390 . S
C203 H196 0.950 . S
C203 C200 1.387 . S
C204 C205 1.387 . S
C204 H208 0.950 . S
C204 C213 1.390 . S
C205 C204 1.387 . S
C205 C207 1.387 . S
H206 C213 0.950 . S
C207 C205 1.387 . S
C207 C209 1.390 . S
C207 H211 0.950 . S
H208 C204 0.950 . S
C209 C207 1.390 . S
C209 C210 1.387 . S
C209 H212 0.950 . S
C210 C209 1.387 . S
C210 C213 1.387 . S
H211 C207 0.950 . S
H212 C209 0.950 . S
C213 C204 1.390 . S
C213 H206 0.950 . S
C213 C210 1.387 . S
C214 C215 1.387 . S
C214 H218 0.950 . S
C214 C223 1.390 . S
C215 C214 1.387 . S
C215 C217 1.387 . S
H216 C223 0.950 . S
C217 C215 1.387 . S
C217 C219 1.390 . S
C217 H221 0.950 . S
H218 C214 0.950 . S
C219 C217 1.390 . S
C219 C220 1.387 . S
C219 H222 0.950 . S
C220 C219 1.387 . S
C220 C223 1.387 . S
H221 C217 0.950 . S
H222 C219 0.950 . S
C223 C214 1.390 . S
C223 H216 0.950 . S
C223 C220 1.387 . S
C224 C225 1.387 . S
C224 H228 0.950 . S
C224 C233 1.390 . S
C225 C224 1.387 . S
C225 C227 1.387 . S
H226 C233 0.950 . S
C227 C225 1.387 . S
C227 C229 1.390 . S
C227 H231 0.950 . S
H228 C224 0.950 . S
C229 C227 1.390 . S
C229 C230 1.387 . S
C229 H232 0.950 . S
C230 C229 1.387 . S
C230 C233 1.387 . S
H231 C227 0.950 . S
H232 C229 0.950 . S
C233 C224 1.390 . S
C233 H226 0.950 . S
C233 C230 1.387 . S
C234 C235 1.387 . S
C234 H238 0.950 . S
C234 C243 1.390 . S
C235 C234 1.387 . S
C235 C237 1.387 . S
H236 C243 0.950 . S
C237 C235 1.387 . S
C237 C239 1.390 . S
C237 H241 0.950 . S
H238 C234 0.950 . S
C239 C237 1.390 . S
C239 C240 1.387 . S
C239 H242 0.950 . S
C240 C239 1.387 . S
C240 C243 1.387 . S
H241 C237 0.950 . S
H242 C239 0.950 . S
C243 C234 1.390 . S
C243 H236 0.950 . S
C243 C240 1.387 . S
C244 C245 1.387 . S
C244 H248 0.950 . S
C244 C253 1.390 . S
C245 C244 1.387 . S
C245 C247 1.387 . S
H246 C253 0.950 . S
C247 C245 1.387 . S
C247 C249 1.390 . S
C247 H251 0.950 . S
H248 C244 0.950 . S
C249 C247 1.390 . S
C249 C250 1.387 . S
C249 H252 0.950 . S
C250 C249 1.387 . S
C250 C253 1.387 . S
H251 C247 0.950 . S
H252 C249 0.950 . S
C253 C244 1.390 . S
C253 H246 0.950 . S
C253 C250 1.387 . S
C254 C255 1.387 . S
C254 H258 0.950 . S
C254 C263 1.390 . S
C255 C254 1.387 . S
C255 C257 1.387 . S
H256 C263 0.950 . S
C257 C255 1.387 . S
C257 C259 1.390 . S
C257 H261 0.950 . S
H258 C254 0.950 . S
C259 C257 1.390 . S
C259 C260 1.387 . S
C259 H262 0.950 . S
C260 C259 1.387 . S
C260 C263 1.387 . S
H261 C257 0.950 . S
H262 C259 0.950 . S
C263 C254 1.390 . S
C263 H256 0.950 . S
C263 C260 1.387 . S
C105 C5 0.769 . S
C110 C31 0.769 . S
C115 C18 0.758 . S
C120 C44 0.758 . S
C125 C57 0.769 . S
C130 C83 0.769 . S
C135 C70 0.758 . S
C140 C96 0.758 . S
C145 C8 1.457 . S
C150 C73 1.461 . S
C155 C21 1.460 . S
C160 C86 1.459 . S
C165 C99 1.456 . S
C170 C34 1.458 . S
C175 C47 1.460 . S
C180 C60 1.460 . S
C185 C62 1.582 . S
C190 C0 1.659 . S
C195 C13 1.658 . S
C200 C75 1.581 1_565 S
C205 C26 1.658 . S
C210 C88 1.583 . S
C215 C39 1.659 . S
C220 C101 1.584 1_545 S
C225 C10 1.583 1_655 S
C230 C52 1.659 . S
C235 C65 1.658 . S
C240 C23 1.584 . S
C245 C78 1.658 . S
C250 C36 1.582 1_455 S
C255 C49 1.584 . S
C260 C91 1.659 . S
