# Generated by pormake.
# Topology pcu, (6)-cn, num edge types: 1
# Building blocks:
#     Node 0, Type 0, BuildingBlock: KUMBOL_clean_sbu_1, # of connection points: 6
#     Edge 1, Type (0, 0), BuildingBlock: OJICUG_clean_linker_0, # of connection points: 2
#     Edge 2, Type (0, 0), BuildingBlock: OJICUG_clean_linker_0, # of connection points: 2
#     Edge 3, Type (0, 0), BuildingBlock: OJICUG_clean_linker_0, # of connection points: 2
# Relax obj value: 0.000
# Max RMSD: 0.000
# Mean RMSD: 0.000
data_MOF--net-pcu--node1-KUMBOL_clean_sbu_1--edge1-OJICUG_clean_linker_0
_symmetry_space_group_name_H-M    P1
_symmetry_Int_Tables_number       1
_symmetry_cell_setting            triclinic
loop_
_symmetry_equiv_pos_as_xyz
'x, y, z'
_cell_length_a     10.848212
_cell_length_b     20.251747
_cell_length_c     10.852531
_cell_angle_alpha  113.61814
_cell_angle_beta   89.27056
_cell_angle_gamma 115.91738
loop_
_atom_site_label
_atom_site_type_symbol
_atom_site_fract_x
_atom_site_fract_y
_atom_site_fract_z
_atom_type_partial_charge
C0 C 0.45086 0.24859 0.251 0.0
C1 C 0.59554 0.27056 0.08447 0.0
C2 C 0.46227 0.23834 0.11735 0.0
C3 C 0.71599 0.31171 0.18638 0.0
C4 C 0.57183 0.29013 0.35364 0.0
C5 C 0.70431 0.32145 0.32044 0.0
N6 N 0.32141 0.21599 0.27973 0.0
C7 C 0.30514 0.22455 0.40915 0.0
C8 C 0.55594 0.29848 0.4865 0.0
C9 C 0.42192 0.26579 0.51438 0.0
Gd10 Gd 0.93714 0.90306 0.89963 0.0
Gd11 Gd 0.1322 0.15102 0.09842 0.0
N12 N 0.34351 0.19712 0.01996 0.0
C13 C 0.60403 0.26129 0.95036 0.0
C14 C 0.35178 0.19286 0.8916 0.0
C15 C 0.48159 0.22304 0.854 0.0
H16 H 0.25976 0.16902 0.81857 0.0
H17 H 0.48718 0.21802 0.75125 0.0
H18 H 0.80957 0.88507 0.17947 0.0
H19 H 0.20194 0.20137 0.43199 0.0
H20 H 0.58215 0.83607 0.24679 0.0
H21 H 0.70444 0.2852 0.92113 0.0
H22 H 0.81871 0.33656 0.16255 0.0
H23 H 0.86741 0.85271 0.56605 0.0
H24 H 0.64627 0.33031 0.56825 0.0
H25 H 0.40837 0.27294 0.61711 0.0
H26 H 0.25063 0.71753 0.83548 0.0
H27 H 0.79846 0.35327 0.3976 0.0
H28 H 0.42308 0.72378 0.42978 0.0
H29 H 0.66098 0.78115 0.38093 0.0
N30 N 0.74794 0.83809 0.71831 0.0
C31 C 0.61848 0.80549 0.74703 0.0
C32 C 0.76421 0.82954 0.58889 0.0
C33 C 0.51341 0.7556 0.51154 0.0
C34 C 0.64743 0.78829 0.48366 0.0
C35 C 0.49752 0.76395 0.6444 0.0
H36 H 0.27088 0.70082 0.60043 0.0
N37 N 0.72583 0.85695 0.97807 0.0
C38 C 0.60706 0.81574 0.88068 0.0
C39 C 0.46531 0.7928 0.04767 0.0
C40 C 0.4738 0.78353 0.91356 0.0
C41 C 0.71756 0.86123 0.10644 0.0
C42 C 0.58775 0.83105 0.14403 0.0
O43 O 0.2557 0.08544 0.10212 0.0
O44 O 0.16487 0.97151 0.89456 0.0
O45 O 0.9554 0.81213 0.94856 0.0
O46 O 0.92541 0.79342 0.7359 0.0
O47 O 0.03851 0.08995 0.87106 0.0
O48 O 0.05693 0.97073 0.78041 0.0
O49 O 0.81364 0.96864 0.89593 0.0
O50 O 0.90447 0.08257 0.10349 0.0
O51 O 0.11395 0.24195 0.04948 0.0
O52 O 0.14394 0.26066 0.26214 0.0
O53 O 1.03083 0.96413 0.12698 0.0
O54 O 1.01242 0.08335 0.21764 0.0
C55 C 0.26754 1.02687 0.0002 0.0
C56 C 0.04239 0.02873 0.76656 0.0
C57 C 0.93999 0.68523 0.76927 0.0
C58 C 0.97002 0.58281 0.81241 0.0
C59 C 0.9097 0.55992 0.57862 0.0
C60 C 0.91068 0.63522 0.62751 0.0
C61 C 0.93944 0.53386 0.67007 0.0
C62 C 0.96864 0.65837 0.8614 0.0
C63 C 0.93965 0.76473 0.81936 0.0
C64 C 0.35335 0.74238 0.81165 0.0
C65 C 0.36503 0.73263 0.67759 0.0
H66 H 0.36489 0.76889 0.0769 0.0
C67 C 0.8018 0.02721 0.99785 0.0
C68 C 1.02695 1.02535 0.23149 0.0
C69 C 0.12936 0.36885 0.22877 0.0
C70 C 0.09933 0.47127 0.18564 0.0
C71 C 0.15965 0.49416 0.41942 0.0
C72 C 0.15867 0.41886 0.37053 0.0
C73 C 0.12991 0.52023 0.32797 0.0
C74 C 0.10071 0.39571 0.13665 0.0
C75 C 0.12969 0.28935 0.17868 0.0
H76 H 0.88567 0.52154 0.46928 0.0
H77 H 0.88763 0.654 0.55408 0.0
H78 H 0.93724 0.47493 0.62933 0.0
H79 H 0.99323 0.69705 0.97078 0.0
H80 H 0.18368 0.53254 0.52876 0.0
H81 H 0.18172 0.40008 0.44396 0.0
H82 H 0.1321 0.57915 0.36871 0.0
H83 H 0.07611 0.35703 0.02726 0.0
C84 C 0.07933 0.97879 0.39658 0.0
C85 C 1.03098 1.02625 0.36843 0.0
H86 H 0.12244 0.94304 0.54474 0.0
C87 C 0.98595 0.07432 0.47213 0.0
H88 H 0.11517 0.94131 0.31902 0.0
C89 C 0.99001 0.0753 0.60146 0.0
C90 C 0.03836 0.02783 0.62961 0.0
H91 H 0.9469 0.11105 0.45331 0.0
H92 H 0.95417 0.11277 0.67902 0.0
C93 C 0.08339 0.97976 0.52592 0.0
C94 C 0.4322 0.97903 0.87909 0.0
C95 C 0.40394 1.02662 -0.00012 0.0
H96 H 0.58077 0.94356 0.78278 0.0
C97 C 0.50769 0.07433 0.11991 0.0
H98 H 0.35491 0.94178 0.78456 0.0
C99 C 0.63715 0.07505 0.11896 0.0
C100 C 0.6654 0.02746 0.99817 0.0
H101 H 0.48857 0.11052 0.21527 0.0
H102 H 0.71443 0.1123 0.21349 0.0
C103 C 0.56165 0.97975 0.87814 0.0
C104 C 0.09045 0.51737 0.8801 0.0
C105 C 1.00397 0.55489 0.90876 0.0
H106 H 0.1892 0.46223 0.94515 0.0
C107 C 0.94874 0.56434 0.02886 0.0
H108 H 0.13641 0.51026 0.78946 0.0
C109 C 0.9789 0.53671 0.11794 0.0
C110 C 0.06537 0.49919 0.08928 0.0
H111 H 0.88015 0.59185 0.05289 0.0
H112 H 0.93294 0.54382 0.20858 0.0
C113 C 0.1206 0.48973 0.96918 0.0
loop_
_geom_bond_atom_site_label_1
_geom_bond_atom_site_label_2
_geom_bond_distance
_geom_bond_site_symmetry_2
_ccdc_geom_bond_type
C0 C2 1.422 . S
C0 C4 1.415 . S
C0 N6 1.369 . S
C1 C2 1.421 . S
C1 C3 1.417 . S
C1 C13 1.422 . S
C2 C0 1.422 . S
C2 C1 1.421 . S
C2 N12 1.359 . S
C3 C1 1.417 . S
C3 C5 1.329 . S
C3 H22 0.930 . S
C4 C0 1.415 . S
C4 C5 1.437 . S
C4 C8 1.413 . S
C5 C3 1.329 . S
C5 C4 1.437 . S
C5 H27 0.929 . S
N6 C0 1.369 . S
N6 C7 1.338 . S
N6 Gd11 2.622 . S
C7 N6 1.338 . S
C7 C9 1.378 . S
C7 H19 0.929 . S
C8 C4 1.413 . S
C8 C9 1.348 . S
C8 H24 0.931 . S
C9 C7 1.378 . S
C9 C8 1.348 . S
C9 H25 0.930 . S
Gd10 N30 2.622 . S
Gd10 N37 2.570 . S
Gd10 O44 2.353 1_655 S
Gd10 O45 2.468 . S
Gd10 O46 2.427 . S
Gd10 O48 2.388 . S
Gd10 O49 2.386 . S
Gd10 O53 2.307 1_556 S
Gd10 C63 2.805 . S
Gd11 N6 2.622 . S
Gd11 N12 2.570 . S
Gd11 O43 2.386 . S
Gd11 O47 2.307 1_554 S
Gd11 O50 2.353 1_455 S
Gd11 O51 2.468 . S
Gd11 O52 2.427 . S
Gd11 O54 2.388 . S
Gd11 C75 2.805 . S
N12 C2 1.359 . S
N12 Gd11 2.570 . S
N12 C14 1.343 1_554 S
C13 C1 1.422 . S
C13 C15 1.321 1_554 S
C13 H21 0.931 1_554 S
C14 N12 1.343 1_556 S
C14 C15 1.390 . S
C14 H16 0.931 . S
C15 C13 1.321 1_556 S
C15 C14 1.390 . S
C15 H17 0.930 . S
H16 C14 0.931 . S
H17 C15 0.930 . S
H18 C41 0.931 . S
H19 C7 0.929 . S
H20 C42 0.930 . S
H21 C13 0.931 1_556 S
H22 C3 0.930 . S
H23 C32 0.929 . S
H24 C8 0.931 . S
H25 C9 0.930 . S
H26 C64 0.930 . S
H27 C5 0.929 . S
H28 C33 0.931 . S
H29 C34 0.930 . S
N30 Gd10 2.622 . S
N30 C31 1.369 . S
N30 C32 1.338 . S
C31 N30 1.369 . S
C31 C35 1.415 . S
C31 C38 1.422 . S
C32 H23 0.929 . S
C32 N30 1.338 . S
C32 C34 1.378 . S
C33 H28 0.931 . S
C33 C34 1.348 . S
C33 C35 1.413 . S
C34 H29 0.930 . S
C34 C32 1.378 . S
C34 C33 1.348 . S
C35 C31 1.415 . S
C35 C33 1.413 . S
C35 C65 1.437 . S
H36 C65 0.929 . S
N37 Gd10 2.570 . S
N37 C38 1.359 . S
N37 C41 1.343 1_556 S
C38 C31 1.422 . S
C38 N37 1.359 . S
C38 C40 1.421 . S
C39 C40 1.422 . S
C39 C42 1.321 1_556 S
C39 H66 0.931 1_556 S
C40 C38 1.421 . S
C40 C39 1.422 . S
C40 C64 1.417 . S
C41 H18 0.931 . S
C41 N37 1.343 1_554 S
C41 C42 1.390 . S
C42 H20 0.930 . S
C42 C39 1.321 1_554 S
C42 C41 1.390 . S
O43 Gd11 2.386 . S
O43 C55 1.263 1_545 S
O44 Gd10 2.353 1_455 S
O44 C55 1.243 1_556 S
O45 Gd10 2.468 . S
O45 C63 1.263 . S
O46 Gd10 2.427 . S
O46 C63 1.252 . S
O47 Gd11 2.307 1_556 S
O47 C56 1.261 1_545 S
O48 Gd10 2.388 . S
O48 C56 1.252 1_655 S
O49 Gd10 2.386 . S
O49 C67 1.259 1_565 S
O50 Gd11 2.353 1_655 S
O50 C67 1.245 1_554 S
O51 Gd11 2.468 . S
O51 C75 1.263 . S
O52 Gd11 2.427 . S
O52 C75 1.252 . S
O53 Gd10 2.307 1_554 S
O53 C68 1.261 1_565 S
O54 Gd11 2.388 . S
O54 C68 1.252 1_455 S
C55 O43 1.263 1_565 S
C55 O44 1.243 1_554 S
C56 O47 1.261 1_565 S
C56 O48 1.252 1_455 S
C57 C60 1.394 . S
C57 C62 1.370 . S
C57 C63 1.500 . S
C58 C61 1.383 . S
C58 C62 1.395 . S
C59 C60 1.396 . S
C59 C61 1.365 . S
C59 H76 0.929 . S
C60 C57 1.394 . S
C60 C59 1.396 . S
C60 H77 0.930 . S
C61 C58 1.383 . S
C61 C59 1.365 . S
C61 H78 0.931 . S
C62 C57 1.370 . S
C62 C58 1.395 . S
C62 H79 0.930 1_556 S
C63 Gd10 2.805 . S
C63 O45 1.263 . S
C63 O46 1.252 . S
C63 C57 1.500 . S
C64 H26 0.930 . S
C64 C40 1.417 . S
C64 C65 1.329 . S
C65 C35 1.437 . S
C65 H36 0.929 . S
C65 C64 1.329 . S
H66 C39 0.931 1_554 S
C67 O49 1.259 1_545 S
C67 O50 1.245 1_556 S
C68 O53 1.261 1_545 S
C68 O54 1.252 1_655 S
C69 C72 1.394 . S
C69 C74 1.370 . S
C69 C75 1.500 . S
C70 C73 1.383 . S
C70 C74 1.395 . S
C71 C72 1.396 . S
C71 C73 1.365 . S
C71 H80 0.929 . S
C72 C69 1.394 . S
C72 C71 1.396 . S
C72 H81 0.930 . S
C73 C70 1.383 . S
C73 C71 1.365 . S
C73 H82 0.931 . S
C74 C69 1.370 . S
C74 C70 1.395 . S
C74 H83 0.930 1_554 S
C75 Gd11 2.805 . S
C75 O51 1.263 . S
C75 O52 1.252 . S
C75 C69 1.500 . S
H76 C59 0.929 . S
H77 C60 0.930 . S
H78 C61 0.931 . S
H79 C62 0.930 1_554 S
H80 C71 0.929 . S
H81 C72 0.930 . S
H82 C73 0.931 . S
H83 C74 0.930 1_556 S
C84 C85 1.386 1_455 S
C84 H88 0.950 . S
C84 C93 1.390 . S
C85 C84 1.386 1_655 S
C85 C87 1.389 1_565 S
H86 C93 0.950 . S
C87 C85 1.389 1_545 S
C87 C89 1.390 . S
C87 H91 0.950 . S
H88 C84 0.950 . S
C89 C87 1.390 . S
C89 C90 1.389 1_655 S
C89 H92 0.950 . S
C90 C89 1.389 1_455 S
C90 C93 1.389 1_545 S
H91 C87 0.950 . S
H92 C89 0.950 . S
C93 C84 1.390 . S
C93 H86 0.950 . S
C93 C90 1.389 1_565 S
C94 C95 1.387 . S
C94 H98 0.950 . S
C94 C103 1.390 . S
C95 C94 1.387 . S
C95 C97 1.389 1_566 S
H96 C103 0.950 . S
C97 C95 1.389 1_544 S
C97 C99 1.390 . S
C97 H101 0.950 . S
H98 C94 0.950 . S
C99 C97 1.390 . S
C99 C100 1.389 . S
C99 H102 0.950 . S
C100 C99 1.389 . S
C100 C103 1.389 1_544 S
H101 C97 0.950 . S
H102 C99 0.950 . S
C103 C94 1.390 . S
C103 H96 0.950 . S
C103 C100 1.389 1_566 S
C104 C105 1.385 1_455 S
C104 H108 0.950 . S
C104 C113 1.390 . S
C105 C104 1.385 1_655 S
C105 C107 1.388 1_556 S
H106 C113 0.950 . S
C107 C105 1.388 1_554 S
C107 C109 1.390 . S
C107 H111 0.950 . S
H108 C104 0.950 . S
C109 C107 1.390 . S
C109 C110 1.386 1_655 S
C109 H112 0.950 . S
C110 C109 1.386 1_455 S
C110 C113 1.386 1_554 S
H111 C107 0.950 . S
H112 C109 0.950 . S
C113 C104 1.390 . S
C113 H106 0.950 . S
C113 C110 1.386 1_556 S
C85 C68 1.480 1_565 S
C90 C56 1.478 1_545 S
C95 C55 1.496 1_556 S
C100 C67 1.495 1_554 S
C105 C58 1.357 . S
C110 C70 1.359 . S
