# Generated by pormake.
# Topology pcu, (6)-cn, num edge types: 1
# Building blocks:
#     Node 0, Type 0, BuildingBlock: BETDEL_clean_sbu_0, # of connection points: 6
#     Edge 1, Type (0, 0), BuildingBlock: XUDNAN_clean_linker_2, # of connection points: 2
#     Edge 2, Type (0, 0), BuildingBlock: XUDNAN_clean_linker_2, # of connection points: 2
#     Edge 3, Type (0, 0), BuildingBlock: XUDNAN_clean_linker_2, # of connection points: 2
# Relax obj value: 0.000
# Max RMSD: 0.000
# Mean RMSD: 0.000
data_MOF--net-pcu--node1-BETDEL_clean_sbu_0--edge1-XUDNAN_clean_linker_2
_symmetry_space_group_name_H-M    P1
_symmetry_Int_Tables_number       1
_symmetry_cell_setting            triclinic
loop_
_symmetry_equiv_pos_as_xyz
'x, y, z'
_cell_length_a     15.280416
_cell_length_b     17.713789
_cell_length_c     14.388129
_cell_angle_alpha  98.332298
_cell_angle_beta   86.869723
_cell_angle_gamma 114.84483
loop_
_atom_site_label
_atom_site_type_symbol
_atom_site_fract_x
_atom_site_fract_y
_atom_site_fract_z
_atom_type_partial_charge
Dy0 Dy 0.03784 0.09314 1.01606 0.0
C1 C 0.92187 0.74307 0.02469 0.0
C2 C 0.05899 0.24551 0.97353 0.0
Dy3 Dy 0.95603 0.90687 1.01676 0.0
O4 O 0.07706 0.23141 0.0548 0.0
O5 O 0.03434 0.17716 0.91427 0.0
O6 O 0.10163 0.12104 0.15724 0.0
O7 O 0.97108 0.01191 0.12664 0.0
C8 C 0.03908 0.05251 0.18606 0.0
C9 C 0.97608 0.95807 0.84591 0.0
O10 O 0.8254 0.92502 0.06676 0.0
O11 O 0.877 0.05026 1.0059 0.0
O12 O 0.87806 0.76821 0.96986 0.0
O13 O 0.98131 0.80746 0.07897 0.0
O14 O 0.90379 0.89231 0.86831 0.0
O15 O 0.03444 0.9901 0.91341 0.0
O16 O 0.1778 0.08006 0.99797 0.0
O17 O 0.112 0.94779 0.04622 0.0
C18 C 0.80816 0.98585 0.04016 0.0
C19 C 0.18713 0.01652 0.02843 0.0
H20 H 0.89372 0.95198 0.29718 0.0
H21 H 0.19988 0.1132 0.29025 0.0
H22 H 0.21587 0.10255 0.45598 0.0
H23 H 0.85099 0.03474 0.52444 0.0
H24 H 0.76799 0.93625 0.56032 0.0
H25 H 0.77952 0.94929 0.43777 0.0
H26 H 0.81918 0.81971 0.39919 0.0
H27 H 0.80662 0.80562 0.52157 0.0
H28 H 0.91649 0.81572 0.46073 0.0
H29 H 0.19852 0.08923 0.62322 0.0
H30 H 0.15118 0.05949 0.78472 0.0
H31 H 0.85749 0.9014 0.68949 0.0
C32 C 0.96415 0.98332 0.33044 0.0
C33 C 0.04551 0.0339 0.28133 0.0
C34 C 0.13649 0.07483 0.32697 0.0
C35 C 0.14649 0.06912 0.42109 0.0
C36 C 0.06491 0.0216 0.46882 0.0
C37 C 0.97567 0.97816 0.4254 0.0
C38 C 0.89987 0.93367 0.49534 0.0
C39 C 0.81988 0.96541 0.50501 0.0
C40 C 0.85808 0.83799 0.46755 0.0
C41 C 0.96051 0.9607 0.58451 0.0
C42 C 0.05538 0.01163 0.56698 0.0
C43 C 0.12482 0.04829 0.63791 0.0
C44 C 0.09711 0.0314 0.72948 0.0
C45 C 0.00104 0.97767 0.74923 0.0
C46 C 0.93169 0.94202 0.67586 0.0
H47 H 0.3615 0.08484 0.93643 0.0
H48 H 0.22396 0.95742 0.1758 0.0
H49 H 0.37087 0.94164 0.20842 0.0
H50 H 0.48073 0.95824 0.85708 0.0
H51 H 0.59101 0.04025 0.82305 0.0
H52 H 0.47953 0.05193 0.82331 0.0
H53 H 0.55472 0.19207 0.93503 0.0
H54 H 0.66707 0.18148 0.93397 0.0
H55 H 0.6095 0.19472 0.04401 0.0
H56 H 0.52023 0.92139 0.2036 0.0
H57 H 0.67724 0.91414 0.17275 0.0
H58 H 0.72458 0.05917 0.94145 0.0
C59 C 0.36386 0.05597 0.99708 0.0
C60 C 0.28166 0.0218 0.0532 0.0
C61 C 0.28616 0.9831 0.13128 0.0
C62 C 0.36924 0.97401 0.15071 0.0
C63 C 0.44776 1.00475 0.09197 0.0
C64 C 0.44706 0.04636 0.0178 0.0
C65 C 0.54048 0.06929 0.9634 0.0
C66 C 0.52176 0.02741 0.86064 0.0
C67 C 0.59625 0.16509 0.96951 0.0
C68 C 0.59175 0.03202 0.01732 0.0
C69 C 0.53663 0.99497 0.091 0.0
C70 C 0.56524 0.95148 0.14724 0.0
C71 C 0.65384 0.94696 0.12871 0.0
C72 C 0.71267 0.98642 0.05525 0.0
C73 C 0.68119 0.02939 0.99889 0.0
H74 H 0.01811 0.68162 0.12719 0.0
H75 H 0.83173 0.61704 0.88426 0.0
H76 H 0.85428 0.48649 0.84063 0.0
H77 H 0.18608 0.60634 0.02158 0.0
H78 H 0.20152 0.56375 0.12275 0.0
H79 H 0.1687 0.65126 0.13797 0.0
H80 H 0.01766 0.56838 0.23236 0.0
H81 H 0.05116 0.48132 0.21918 0.0
H82 H 0.93338 0.46564 0.18171 0.0
H83 H 0.90675 0.36898 0.81619 0.0
H84 H 0.96361 0.25903 0.82704 0.0
H85 H 0.10934 0.39472 0.08987 0.0
C86 C 0.98069 0.63912 0.06587 0.0
C87 C 0.92312 0.65928 1.00905 0.0
C88 C 0.87574 0.60254 0.92901 0.0
C89 C 0.8887 0.52856 0.90323 0.0
C90 C 0.94839 0.51173 0.95886 0.0
C91 C 0.99186 0.56425 0.03971 0.0
C92 C 0.05088 0.53028 0.08789 0.0
C93 C 0.15815 0.59158 0.0928 0.0
C94 C 0.01085 0.51019 0.18609 0.0
C95 C 0.03438 0.45095 0.02101 0.0
C96 C 0.97612 0.44219 0.94639 0.0
C97 C 0.95183 0.37477 0.87464 0.0
C98 C 0.98518 0.31303 0.88095 0.0
C99 C 0.04102 0.31861 0.95906 0.0
C100 C 0.0672 0.38922 0.02909 0.0
loop_
_geom_bond_atom_site_label_1
_geom_bond_atom_site_label_2
_geom_bond_distance
_geom_bond_site_symmetry_2
_ccdc_geom_bond_type
Dy0 O4 2.398 . S
Dy0 O5 2.491 1_554 S
Dy0 O6 2.403 . S
Dy0 O7 2.663 1_545 S
Dy0 O11 2.326 1_455 S
Dy0 O15 2.309 1_454 S
Dy0 O16 2.351 . S
C1 O12 1.185 . S
C1 O13 1.355 1_556 S
C2 O4 1.185 . S
C2 O5 1.355 1_554 S
Dy3 O7 2.309 1_656 S
Dy3 O10 2.351 . S
Dy3 O12 2.398 . S
Dy3 O13 2.491 1_556 S
Dy3 O14 2.403 . S
Dy3 O15 2.663 1_565 S
Dy3 O17 2.326 1_655 S
O4 Dy0 2.398 . S
O4 C2 1.185 . S
O5 Dy0 2.491 1_556 S
O5 C2 1.355 1_556 S
O6 Dy0 2.403 . S
O6 C8 1.254 . S
O7 Dy0 2.663 1_565 S
O7 Dy3 2.309 1_454 S
O7 C8 1.267 1_565 S
C8 O6 1.254 . S
C8 O7 1.267 1_545 S
C9 O14 1.254 . S
C9 O15 1.267 1_565 S
O10 Dy3 2.351 . S
O10 C18 1.249 1_556 S
O11 Dy0 2.326 1_655 S
O11 C18 1.267 1_545 S
O12 C1 1.185 . S
O12 Dy3 2.398 . S
O13 C1 1.355 1_554 S
O13 Dy3 2.491 1_554 S
O14 Dy3 2.403 . S
O14 C9 1.254 . S
O15 Dy0 2.309 1_656 S
O15 Dy3 2.663 1_545 S
O15 C9 1.267 1_545 S
O16 Dy0 2.351 . S
O16 C19 1.249 1_554 S
O17 Dy3 2.326 1_455 S
O17 C19 1.267 1_565 S
C18 O10 1.249 1_554 S
C18 O11 1.267 1_565 S
C19 O16 1.249 1_556 S
C19 O17 1.267 1_545 S
H20 C32 0.930 . S
H21 C34 0.930 . S
H22 C35 0.930 . S
H23 C39 0.959 . S
H24 C39 0.959 . S
H25 C39 0.961 . S
H26 C40 0.960 . S
H27 C40 0.961 1_655 S
H28 C40 0.959 . S
H29 C43 0.929 . S
H30 C44 0.931 . S
H31 C46 0.930 . S
C32 H20 0.930 . S
C32 C33 1.399 1_665 S
C32 C37 1.399 . S
C33 C32 1.399 1_445 S
C33 C34 1.376 . S
C34 H21 0.930 . S
C34 C33 1.376 . S
C34 C35 1.388 . S
C35 H22 0.930 . S
C35 C34 1.388 . S
C35 C36 1.390 . S
C36 C35 1.390 . S
C36 C37 1.394 1_445 S
C36 C42 1.465 . S
C37 C32 1.399 . S
C37 C36 1.394 1_665 S
C37 C38 1.516 . S
C38 C37 1.516 . S
C38 C39 1.502 . S
C38 C40 1.561 1_655 S
C38 C41 1.526 . S
C39 H23 0.959 . S
C39 H24 0.959 . S
C39 H25 0.961 . S
C39 C38 1.502 . S
C40 H26 0.960 . S
C40 H27 0.961 1_455 S
C40 H28 0.959 . S
C40 C38 1.561 1_455 S
C41 C38 1.526 . S
C41 C42 1.396 1_665 S
C41 C46 1.390 . S
C42 C36 1.465 . S
C42 C41 1.396 1_445 S
C42 C43 1.399 . S
C43 H29 0.929 . S
C43 C42 1.399 . S
C43 C44 1.385 . S
C44 H30 0.931 . S
C44 C43 1.385 . S
C44 C45 1.389 . S
C45 C44 1.389 . S
C45 C46 1.387 1_445 S
C46 H31 0.930 . S
C46 C41 1.390 . S
C46 C45 1.387 1_665 S
H47 C59 0.930 . S
H48 C61 0.930 . S
H49 C62 0.930 . S
H50 C66 0.959 . S
H51 C66 0.959 . S
H52 C66 0.961 . S
H53 C67 0.960 . S
H54 C67 0.961 . S
H55 C67 0.959 . S
H56 C70 0.929 . S
H57 C71 0.931 . S
H58 C73 0.930 . S
C59 H47 0.930 . S
C59 C60 1.399 1_566 S
C59 C64 1.399 . S
C60 C59 1.399 1_544 S
C60 C61 1.376 . S
C61 H48 0.930 . S
C61 C60 1.376 . S
C61 C62 1.388 . S
C62 H49 0.930 . S
C62 C61 1.388 . S
C62 C63 1.390 . S
C63 C62 1.390 . S
C63 C64 1.394 1_544 S
C63 C69 1.465 . S
C64 C59 1.399 . S
C64 C63 1.394 1_566 S
C64 C65 1.516 . S
C65 C64 1.516 . S
C65 C66 1.502 . S
C65 C67 1.561 1_565 S
C65 C68 1.526 . S
C66 H50 0.959 . S
C66 H51 0.959 . S
C66 H52 0.961 . S
C66 C65 1.502 . S
C67 H53 0.960 . S
C67 H54 0.961 . S
C67 H55 0.959 . S
C67 C65 1.561 1_545 S
C68 C65 1.526 . S
C68 C69 1.396 1_566 S
C68 C73 1.390 . S
C69 C63 1.465 . S
C69 C68 1.396 1_544 S
C69 C70 1.399 . S
C70 H56 0.929 . S
C70 C69 1.399 . S
C70 C71 1.385 . S
C71 H57 0.931 . S
C71 C70 1.385 . S
C71 C72 1.389 . S
C72 C71 1.389 . S
C72 C73 1.387 1_544 S
C73 H58 0.930 . S
C73 C68 1.390 . S
C73 C72 1.387 1_566 S
H74 C86 0.930 . S
H75 C88 0.930 . S
H76 C89 0.930 . S
H77 C93 0.959 . S
H78 C93 0.959 . S
H79 C93 0.961 . S
H80 C94 0.960 . S
H81 C94 0.961 . S
H82 C94 0.959 . S
H83 C97 0.929 . S
H84 C98 0.931 . S
H85 C100 0.930 . S
C86 H74 0.930 . S
C86 C87 1.399 1_454 S
C86 C91 1.399 . S
C87 C86 1.399 1_656 S
C87 C88 1.376 . S
C88 H75 0.930 . S
C88 C87 1.376 . S
C88 C89 1.388 . S
C89 H76 0.930 . S
C89 C88 1.388 . S
C89 C90 1.390 . S
C90 C89 1.390 . S
C90 C91 1.394 1_656 S
C90 C96 1.465 . S
C91 C86 1.399 . S
C91 C90 1.394 1_454 S
C91 C92 1.516 . S
C92 C91 1.516 . S
C92 C93 1.502 . S
C92 C94 1.561 1_455 S
C92 C95 1.526 . S
C93 H77 0.959 . S
C93 H78 0.959 . S
C93 H79 0.961 . S
C93 C92 1.502 . S
C94 H80 0.960 . S
C94 H81 0.961 . S
C94 H82 0.959 . S
C94 C92 1.561 1_655 S
C95 C92 1.526 . S
C95 C96 1.396 1_454 S
C95 C100 1.390 . S
C96 C90 1.465 . S
C96 C95 1.396 1_656 S
C96 C97 1.399 . S
C97 H83 0.929 . S
C97 C96 1.399 . S
C97 C98 1.385 . S
C98 H84 0.931 . S
C98 C97 1.385 . S
C98 C99 1.389 . S
C99 C98 1.389 . S
C99 C100 1.387 1_656 S
C100 H85 0.930 . S
C100 C95 1.390 . S
C100 C99 1.387 1_454 S
C33 C8 1.418 . S
C45 C9 1.485 1_445 S
C60 C19 1.492 1_554 S
C72 C18 1.472 1_545 S
C87 C1 1.455 . S
C99 C2 1.491 1_656 S
