# Generated by pormake.
# Topology unc, (4)-cn, num edge types: 1
# Building blocks:
#     Node 0, Type 0, BuildingBlock: AZAVOO_clean_sbu_0, # of connection points: 4
#     Node 1, Type 0, BuildingBlock: AZAVOO_clean_sbu_0, # of connection points: 4
#     Node 2, Type 0, BuildingBlock: AZAVOO_clean_sbu_0, # of connection points: 4
#     Node 3, Type 0, BuildingBlock: AZAVOO_clean_sbu_0, # of connection points: 4
#     Edge 4, Type (0, 0), BuildingBlock: AJUNOK_clean_linker_0, # of connection points: 2
#     Edge 5, Type (0, 0), BuildingBlock: AJUNOK_clean_linker_0, # of connection points: 2
#     Edge 6, Type (0, 0), BuildingBlock: AJUNOK_clean_linker_0, # of connection points: 2
#     Edge 7, Type (0, 0), BuildingBlock: AJUNOK_clean_linker_0, # of connection points: 2
#     Edge 8, Type (0, 0), BuildingBlock: AJUNOK_clean_linker_0, # of connection points: 2
#     Edge 9, Type (0, 0), BuildingBlock: AJUNOK_clean_linker_0, # of connection points: 2
#     Edge 10, Type (0, 0), BuildingBlock: AJUNOK_clean_linker_0, # of connection points: 2
#     Edge 11, Type (0, 0), BuildingBlock: AJUNOK_clean_linker_0, # of connection points: 2
# Relax obj value: 0.169
# Max RMSD: 0.210
# Mean RMSD: 0.210
data_MOF--net-unc--node1-AZAVOO_clean_sbu_0--edge1-AJUNOK_clean_linker_0
_symmetry_space_group_name_H-M    P1
_symmetry_Int_Tables_number       1
_symmetry_cell_setting            triclinic
loop_
_symmetry_equiv_pos_as_xyz
'x, y, z'
_cell_length_a     18.937513
_cell_length_b     20.47399
_cell_length_c     19.063889
_cell_angle_alpha  90.08337
_cell_angle_beta   90.13534
_cell_angle_gamma 104.58641
loop_
_atom_site_label
_atom_site_type_symbol
_atom_site_fract_x
_atom_site_fract_y
_atom_site_fract_z
_atom_type_partial_charge
Mg0 Mg 1.04328 0.66346 -0.0529 0.0
O1 O 0.14862 0.73131 -0.0047 0.0
O2 O 0.2084 0.661 0.04273 0.0
Mg3 Mg 0.14617 0.55169 0.02438 0.0
C4 C 0.20275 0.72061 0.02969 0.0
C5 C 1.00368 0.8027 0.90822 0.0
O6 O 1.00233 0.81017 -0.02339 0.0
O7 O 0.10767 0.63485 0.85631 0.0
O8 O 0.16472 0.56334 0.9054 0.0
O9 O 0.98923 0.66433 0.05117 0.0
O10 O 1.04683 0.58804 0.01891 0.0
C11 C 0.14912 0.5945 0.85189 0.0
C12 C 1.0156 0.61382 0.06773 0.0
O13 O 1.02085 0.75112 0.88328 0.0
Mg14 Mg 0.49041 0.11304 0.17145 0.0
O15 O 0.41742 1.00734 0.14317 0.0
O16 O 0.49545 0.9476 0.10876 0.0
Mg17 Mg 0.61132 1.01465 0.09913 0.0
C18 C 0.43093 0.95213 0.12265 0.0
C19 C 0.37551 0.18912 0.2191 0.0
O20 O 0.39544 0.21695 0.15785 0.0
O21 O 0.53663 0.06918 0.26597 0.0
O22 O 0.61699 1.01925 0.2177 0.0
O23 O 0.47756 0.15038 0.06202 0.0
O24 O 0.56319 0.10102 0.09549 0.0
C25 C 0.58695 0.03787 0.27124 0.0
C26 C 0.53189 0.12557 0.04595 0.0
O27 O 0.40182 0.1408 0.23896 0.0
Mg28 Mg 0.18989 0.47742 0.4468 0.0
O29 O 0.08431 0.40828 0.49235 0.0
O30 O 1.02296 0.47745 0.53943 0.0
Mg31 Mg 0.08484 0.58726 0.52416 0.0
C32 C 1.02924 0.41816 0.52556 0.0
C33 C 0.23314 0.3403 0.40767 0.0
O34 O 0.23582 0.33388 0.4761 0.0
O35 O 0.12595 0.50634 0.35556 0.0
O36 O 1.06773 0.57686 0.40485 0.0
O37 O 0.24308 0.47617 0.55161 0.0
O38 O 0.18478 0.55193 0.5194 0.0
C39 C 0.08411 0.54636 0.35118 0.0
C40 C 0.2162 0.52635 0.56829 0.0
O41 O 0.21391 0.39072 0.38246 0.0
Mg42 Mg 0.74419 0.02739 0.67348 0.0
O43 O 0.8149 0.13223 0.63937 0.0
O44 O 0.73568 0.18765 0.59803 0.0
Mg45 Mg 0.61968 0.12202 0.59988 0.0
C46 C 0.80057 0.18499 0.6131 0.0
C47 C 0.86045 0.95321 0.71984 0.0
O48 O 0.83616 0.92255 0.66072 0.0
O49 O 0.70055 0.07324 0.76676 0.0
O50 O 0.62038 0.12496 0.71962 0.0
O51 O 0.75202 0.98694 0.56555 0.0
O52 O 0.66535 0.03376 0.60107 0.0
C53 C 0.65231 0.10675 0.77233 0.0
C54 C 0.69461 1.00798 0.55103 0.0
O55 O 0.83678 1.00344 0.73868 0.0
C56 C 1.04423 0.53419 0.15583 0.0
C57 C 1.02167 0.5933 0.1416 0.0
C58 C 1.06197 0.51838 0.22395 0.0
C59 C 1.0571 0.56062 0.28102 0.0
H60 H 1.05018 0.50045 0.11373 0.0
H61 H 0.08111 0.47328 0.23155 0.0
S62 S 0.9935 0.71812 0.27305 0.0
N63 N 0.99016 0.69181 0.19095 0.0
N64 N 1.02249 0.66188 0.31932 0.0
C65 C 1.03038 0.61793 0.26819 0.0
C66 C 1.01278 0.63424 0.19848 0.0
C67 C 0.57321 0.03285 0.40125 0.0
C68 C 0.61338 1.02457 0.34157 0.0
C69 C 0.59902 1.02483 0.46849 0.0
C70 C 0.66649 1.00909 0.47895 0.0
H71 H 0.5216 0.04622 0.39624 0.0
H72 H 0.56583 0.03186 0.51263 0.0
S73 S 0.79083 0.9775 0.34028 0.0
N74 N 0.72255 0.99568 0.29719 0.0
N75 N 0.77115 0.98162 0.42418 0.0
C76 C 0.70611 0.99814 0.41992 0.0
C77 C 0.67961 1.00579 0.35112 0.0
C78 C 0.17019 0.62202 0.72462 0.0
C79 C 0.17607 0.58028 0.78174 0.0
C80 C 0.18734 0.60593 0.65644 0.0
C81 C 0.21036 0.54706 0.64218 0.0
H82 H 0.1506 0.66688 0.7322 0.0
H83 H 0.18057 0.63927 0.61432 0.0
S84 S 0.24154 0.42375 0.77368 0.0
N85 N 0.21236 0.47987 0.82 0.0
N86 N 0.24363 0.44946 0.69153 0.0
C87 C 0.22037 0.50669 0.69908 0.0
C88 C 0.20333 0.52327 0.76886 0.0
C89 C 0.58017 0.17853 -0.0677 0.0
C90 C 0.55482 0.12033 -0.02681 0.0
C91 C 0.61258 0.17455 0.86671 0.0
C92 C 0.62163 0.11254 0.84167 0.0
H93 H 0.5769 0.22735 -0.04804 0.0
H94 H 0.63188 0.22011 0.83616 0.0
S95 S 0.55254 0.94474 0.92332 0.0
N96 N 0.53119 0.99839 -0.02094 0.0
N97 N 0.59547 0.99133 0.85836 0.0
C98 C 0.59385 0.05403 0.88088 0.0
C99 C 0.55953 0.05786 -0.05381 0.0
C100 C 0.30368 0.9004 0.08011 0.0
C101 C 0.37018 0.89245 0.10713 0.0
C102 C 0.24983 0.84473 0.05523 0.0
C103 C 0.26016 0.77889 0.05705 0.0
H104 H 0.29424 0.95027 0.07562 0.0
H105 H 0.20002 0.8536 0.03385 0.0
S106 S 0.42311 0.73099 0.12849 0.0
N107 N 0.44188 0.81365 0.13821 0.0
N108 N 0.34144 0.70923 0.09202 0.0
C109 C 0.32568 0.77026 0.0864 0.0
C110 C 0.3804 0.82691 0.11126 0.0
C111 C 0.30237 0.27298 0.24246 0.0
C112 C 0.33084 0.21999 0.26706 0.0
C113 C 0.26819 0.30939 0.28774 0.0
C114 C 0.26106 0.29476 0.35994 0.0
H115 H 0.30831 0.28806 0.18791 0.0
H116 H 0.24944 0.35094 0.26603 0.0
S117 S 0.31892 0.15586 0.44998 0.0
N118 N 0.34401 0.15091 0.36767 0.0
N119 N 0.27991 0.2194 0.45284 0.0
C120 C 0.28579 0.23954 0.38474 0.0
C121 C 0.32054 0.20218 0.33838 0.0
C122 C 0.92835 0.2377 0.57279 0.0
C123 C 0.86047 0.24492 0.59653 0.0
C124 C 0.98256 0.29379 0.54965 0.0
C125 C 0.97121 0.3593 0.55024 0.0
H126 H 0.93888 0.18814 0.57 0.0
H127 H 1.03364 0.28558 0.53101 0.0
S128 S 0.80399 0.40522 0.61268 0.0
N129 N 0.78601 0.32267 0.62274 0.0
N130 N 0.88708 0.42775 0.57984 0.0
C131 C 0.90401 0.36712 0.57591 0.0
C132 C 0.84893 0.31008 0.59888 0.0
C133 C 0.93319 0.86905 0.74303 0.0
C134 C 0.90621 0.92304 0.76739 0.0
C135 C 0.96751 0.83272 0.78831 0.0
C136 C 0.97622 0.8484 0.86029 0.0
H137 H 0.92582 0.85308 0.68873 0.0
H138 H 0.98495 0.79036 0.76683 0.0
S139 S 0.92293 0.99023 -0.05056 0.0
N140 N 0.89639 0.99426 0.86736 0.0
N141 N 0.96074 0.92591 -0.04744 0.0
C142 C 0.95321 0.9047 0.88474 0.0
C143 C 0.91835 0.94201 0.83835 0.0
loop_
_geom_bond_atom_site_label_1
_geom_bond_atom_site_label_2
_geom_bond_distance
_geom_bond_site_symmetry_2
_ccdc_geom_bond_type
Mg0 O1 2.029 . S
Mg0 O7 1.981 1_554 S
Mg0 O9 2.119 1_455 S
Mg0 O10 2.255 . S
Mg0 O13 2.008 1_454 S
O1 Mg0 2.029 . S
O1 C4 1.250 . S
O2 Mg3 2.028 . S
O2 C4 1.248 . S
Mg3 O2 2.028 . S
Mg3 O8 2.032 1_554 S
Mg3 O10 2.079 . S
C4 O1 1.250 . S
C4 O2 1.248 . S
C5 O6 1.264 . S
C5 O13 1.249 . S
O6 C5 1.264 . S
O7 Mg0 1.981 1_556 S
O7 C11 1.246 . S
O8 Mg3 2.032 1_556 S
O8 C11 1.259 . S
O9 Mg0 2.119 1_655 S
O9 C12 1.252 1_655 S
O10 Mg0 2.255 . S
O10 Mg3 2.079 . S
O10 C12 1.273 . S
C11 O7 1.246 . S
C11 O8 1.259 . S
C12 O9 1.252 1_455 S
C12 O10 1.273 . S
O13 Mg0 2.008 1_656 S
O13 C5 1.249 . S
Mg14 O15 2.028 . S
Mg14 O21 1.986 . S
Mg14 O23 2.114 . S
Mg14 O24 2.251 . S
Mg14 O27 2.010 . S
O15 Mg14 2.028 . S
O15 C18 1.250 1_545 S
O16 Mg17 2.028 . S
O16 C18 1.248 . S
Mg17 O16 2.028 . S
Mg17 O22 2.032 . S
Mg17 O24 2.079 1_565 S
C18 O15 1.250 1_565 S
C18 O16 1.248 . S
C19 O20 1.264 . S
C19 O27 1.249 . S
O20 C19 1.264 . S
O21 Mg14 1.986 . S
O21 C25 1.246 . S
O22 Mg17 2.032 . S
O22 C25 1.259 1_565 S
O23 Mg14 2.114 . S
O23 C26 1.252 . S
O24 Mg14 2.251 . S
O24 Mg17 2.079 1_545 S
O24 C26 1.273 . S
C25 O21 1.246 . S
C25 O22 1.259 1_545 S
C26 O23 1.252 . S
C26 O24 1.273 . S
O27 Mg14 2.010 . S
O27 C19 1.249 . S
Mg28 O29 2.028 . S
Mg28 O35 1.986 . S
Mg28 O37 2.114 . S
Mg28 O38 2.251 . S
Mg28 O41 2.010 . S
O29 Mg28 2.028 . S
O29 C32 1.250 1_455 S
O30 Mg31 2.028 . S
O30 C32 1.248 . S
Mg31 O30 2.028 . S
Mg31 O36 2.032 . S
Mg31 O38 2.079 1_655 S
C32 O29 1.250 1_655 S
C32 O30 1.248 . S
C33 O34 1.264 . S
C33 O41 1.249 . S
O34 C33 1.264 . S
O35 Mg28 1.986 . S
O35 C39 1.246 . S
O36 Mg31 2.032 . S
O36 C39 1.259 1_655 S
O37 Mg28 2.114 . S
O37 C40 1.252 . S
O38 Mg28 2.251 . S
O38 Mg31 2.079 1_455 S
O38 C40 1.273 . S
C39 O35 1.246 . S
C39 O36 1.259 1_455 S
C40 O37 1.252 . S
C40 O38 1.273 . S
O41 Mg28 2.010 . S
O41 C33 1.249 . S
Mg42 O43 2.028 . S
Mg42 O49 1.986 . S
Mg42 O51 2.114 1_545 S
Mg42 O52 2.251 . S
Mg42 O55 2.010 1_545 S
O43 Mg42 2.028 . S
O43 C46 1.250 . S
O44 Mg45 2.028 . S
O44 C46 1.248 . S
Mg45 O44 2.028 . S
Mg45 O50 2.032 . S
Mg45 O52 2.079 . S
C46 O43 1.250 . S
C46 O44 1.248 . S
C47 O48 1.264 . S
C47 O55 1.249 . S
O48 C47 1.264 . S
O49 Mg42 1.986 . S
O49 C53 1.246 . S
O50 Mg45 2.032 . S
O50 C53 1.259 . S
O51 Mg42 2.114 1_565 S
O51 C54 1.252 1_565 S
O52 Mg42 2.251 . S
O52 Mg45 2.079 . S
O52 C54 1.273 . S
C53 O49 1.246 . S
C53 O50 1.259 . S
C54 O51 1.252 1_545 S
C54 O52 1.273 . S
O55 Mg42 2.010 1_565 S
O55 C47 1.249 . S
C56 C57 1.369 . S
C56 C58 1.419 . S
C56 H60 0.930 . S
C57 C56 1.369 . S
C57 C66 1.429 . S
C58 C56 1.419 . S
C58 C59 1.363 . S
C58 H61 0.929 . S
C59 C58 1.363 . S
C59 C65 1.428 . S
H60 C56 0.930 . S
H61 C58 0.929 . S
S62 N63 1.613 . S
S62 N64 1.610 . S
N63 S62 1.613 . S
N63 C66 1.350 . S
N64 S62 1.610 . S
N64 C65 1.351 . S
C65 C59 1.428 . S
C65 N64 1.351 . S
C65 C66 1.434 . S
C66 C57 1.429 . S
C66 N63 1.350 . S
C66 C65 1.434 . S
C67 C68 1.369 . S
C67 C69 1.419 . S
C67 H71 0.930 . S
C68 C67 1.369 . S
C68 C77 1.429 1_545 S
C69 C67 1.419 . S
C69 C70 1.363 . S
C69 H72 0.929 . S
C70 C69 1.363 . S
C70 C76 1.428 1_545 S
H71 C67 0.930 . S
H72 C69 0.929 . S
S73 N74 1.613 . S
S73 N75 1.610 . S
N74 S73 1.613 . S
N74 C77 1.350 . S
N75 S73 1.610 . S
N75 C76 1.351 . S
C76 C70 1.428 1_565 S
C76 N75 1.351 . S
C76 C77 1.434 . S
C77 C68 1.429 1_565 S
C77 N74 1.350 . S
C77 C76 1.434 . S
C78 C79 1.369 . S
C78 C80 1.419 . S
C78 H82 0.930 1_455 S
C79 C78 1.369 . S
C79 C88 1.429 . S
C80 C78 1.419 . S
C80 C81 1.363 . S
C80 H83 0.929 . S
C81 C80 1.363 . S
C81 C87 1.428 . S
H82 C78 0.930 1_655 S
H83 C80 0.929 . S
S84 N85 1.613 . S
S84 N86 1.610 . S
N85 S84 1.613 . S
N85 C88 1.350 . S
N86 S84 1.610 . S
N86 C87 1.351 . S
C87 C81 1.428 . S
C87 N86 1.351 . S
C87 C88 1.434 . S
C88 C79 1.429 . S
C88 N85 1.350 . S
C88 C87 1.434 . S
C89 C90 1.369 . S
C89 C91 1.419 1_554 S
C89 H93 0.930 . S
C90 C89 1.369 . S
C90 C99 1.429 . S
C91 C89 1.419 1_556 S
C91 C92 1.363 . S
C91 H94 0.929 . S
C92 C91 1.363 . S
C92 C98 1.428 1_556 S
H93 C89 0.930 . S
H94 C91 0.929 . S
S95 N96 1.613 . S
S95 N97 1.610 . S
N96 S95 1.613 . S
N96 C99 1.350 1_565 S
N97 S95 1.610 . S
N97 C98 1.351 1_565 S
C98 C92 1.428 1_554 S
C98 N97 1.351 1_545 S
C98 C99 1.434 . S
C99 C90 1.429 . S
C99 N96 1.350 1_545 S
C99 C98 1.434 . S
C100 C101 1.369 . S
C100 C102 1.419 . S
C100 H104 0.930 . S
C101 C100 1.369 . S
C101 C110 1.429 . S
C102 C100 1.419 . S
C102 C103 1.363 . S
C102 H105 0.929 . S
C103 C102 1.363 . S
C103 C109 1.428 . S
H104 C100 0.930 . S
H105 C102 0.929 . S
S106 N107 1.613 . S
S106 N108 1.610 . S
N107 S106 1.613 . S
N107 C110 1.350 . S
N108 S106 1.610 . S
N108 C109 1.351 . S
C109 C103 1.428 . S
C109 N108 1.351 . S
C109 C110 1.434 . S
C110 C101 1.429 . S
C110 N107 1.350 . S
C110 C109 1.434 . S
C111 C112 1.369 . S
C111 C113 1.419 . S
C111 H115 0.930 . S
C112 C111 1.369 . S
C112 C121 1.429 . S
C113 C111 1.419 . S
C113 C114 1.363 . S
C113 H116 0.929 . S
C114 C113 1.363 . S
C114 C120 1.428 . S
H115 C111 0.930 . S
H116 C113 0.929 . S
S117 N118 1.613 . S
S117 N119 1.610 . S
N118 S117 1.613 . S
N118 C121 1.350 . S
N119 S117 1.610 . S
N119 C120 1.351 . S
C120 C114 1.428 . S
C120 N119 1.351 . S
C120 C121 1.434 . S
C121 C112 1.429 . S
C121 N118 1.350 . S
C121 C120 1.434 . S
C122 C123 1.369 . S
C122 C124 1.419 . S
C122 H126 0.930 . S
C123 C122 1.369 . S
C123 C132 1.429 . S
C124 C122 1.419 . S
C124 C125 1.363 . S
C124 H127 0.929 . S
C125 C124 1.363 . S
C125 C131 1.428 . S
H126 C122 0.930 . S
H127 C124 0.929 . S
S128 N129 1.613 . S
S128 N130 1.610 . S
N129 S128 1.613 . S
N129 C132 1.350 . S
N130 S128 1.610 . S
N130 C131 1.351 . S
C131 C125 1.428 . S
C131 N130 1.351 . S
C131 C132 1.434 . S
C132 C123 1.429 . S
C132 N129 1.350 . S
C132 C131 1.434 . S
C133 C134 1.369 . S
C133 C135 1.419 . S
C133 H137 0.930 . S
C134 C133 1.369 . S
C134 C143 1.429 . S
C135 C133 1.419 . S
C135 C136 1.363 . S
C135 H138 0.929 . S
C136 C135 1.363 . S
C136 C142 1.428 . S
H137 C133 0.930 . S
H138 C135 0.929 . S
S139 N140 1.613 1_554 S
S139 N141 1.610 . S
N140 S139 1.613 1_556 S
N140 C143 1.350 . S
N141 S139 1.610 . S
N141 C142 1.351 1_554 S
C142 C136 1.428 . S
C142 N141 1.351 1_556 S
C142 C143 1.434 . S
C143 C134 1.429 . S
C143 N140 1.350 . S
C143 C142 1.434 . S
C57 C12 1.196 . S
C59 C39 1.176 . S
C68 C25 1.182 . S
C70 C54 1.195 . S
C79 C11 1.178 . S
C81 C40 1.197 . S
C90 C26 1.192 . S
C92 C53 1.182 . S
C101 C18 1.508 . S
C103 C4 1.507 . S
C112 C19 1.338 . S
C114 C33 1.343 . S
C123 C46 1.506 . S
C125 C32 1.509 . S
C134 C47 1.343 . S
C136 C5 1.345 . S
