# Generated by pormake.
# Topology smk, (6)-cn, num edge types: 1
# Building blocks:
#     Node 0, Type 0, BuildingBlock: UKALOJ_clean_sbu_0, # of connection points: 6
#     Node 1, Type 0, BuildingBlock: UKALOJ_clean_sbu_0, # of connection points: 6
#     Node 2, Type 0, BuildingBlock: UKALOJ_clean_sbu_0, # of connection points: 6
#     Node 3, Type 0, BuildingBlock: UKALOJ_clean_sbu_0, # of connection points: 6
#     Node 4, Type 0, BuildingBlock: UKALOJ_clean_sbu_0, # of connection points: 6
#     Node 5, Type 0, BuildingBlock: UKALOJ_clean_sbu_0, # of connection points: 6
#     Edge 6, Type (0, 0), None
#     Edge 7, Type (0, 0), None
#     Edge 8, Type (0, 0), None
#     Edge 9, Type (0, 0), None
#     Edge 10, Type (0, 0), None
#     Edge 11, Type (0, 0), None
#     Edge 12, Type (0, 0), None
#     Edge 13, Type (0, 0), None
#     Edge 14, Type (0, 0), None
#     Edge 15, Type (0, 0), None
#     Edge 16, Type (0, 0), None
#     Edge 17, Type (0, 0), None
#     Edge 18, Type (0, 0), None
#     Edge 19, Type (0, 0), None
#     Edge 20, Type (0, 0), None
#     Edge 21, Type (0, 0), None
#     Edge 22, Type (0, 0), None
#     Edge 23, Type (0, 0), None
# Relax obj value: 0.277
# Max RMSD: 0.198
# Mean RMSD: 0.198
data_MOF--net-smk--node1-UKALOJ_clean_sbu_0--edge1-none
_symmetry_space_group_name_H-M    P1
_symmetry_Int_Tables_number       1
_symmetry_cell_setting            triclinic
loop_
_symmetry_equiv_pos_as_xyz
'x, y, z'
_cell_length_a     24.76026
_cell_length_b     24.758012
_cell_length_c     6.7893842
_cell_angle_alpha  89.998007
_cell_angle_beta   89.996185
_cell_angle_gamma 120.00675
loop_
_atom_site_label
_atom_site_type_symbol
_atom_site_fract_x
_atom_site_fract_y
_atom_site_fract_z
_atom_type_partial_charge
Zn0 Zn 0.42032 0.24374 0.4567 0.0
O1 O 0.35005 0.14762 0.44872 0.0
C2 C 0.45757 0.23073 0.85956 0.0
Zn3 Zn 0.49411 0.21613 0.45564 0.0
C4 C 0.36533 0.10559 0.44655 0.0
O5 O 0.42248 0.12152 0.46442 0.0
C6 C 0.54785 0.35362 0.40224 0.0
O7 O 0.49212 0.21287 0.14434 0.0
O8 O 0.42104 0.24273 0.14722 0.0
N9 N 0.55894 0.18685 0.50206 0.0
C10 C 0.61963 0.22157 0.55286 0.0
C11 C 0.58769 0.13019 0.66489 0.0
N12 N 0.53931 0.13016 0.57321 0.0
N13 N 0.63836 0.18769 0.66069 0.0
C14 C 0.35402 0.3187 0.56353 0.0
C15 C 0.25975 0.25693 0.47943 0.0
N16 N 0.35236 0.26879 0.47585 0.0
N17 N 0.29357 0.23025 0.42597 0.0
N18 N 0.29657 0.31258 0.56593 0.0
H19 H 0.39624 0.38861 0.79243 0.0
H20 H 0.43728 0.40818 0.5607 0.0
H21 H 0.44048 0.35258 0.72477 0.0
C22 C 0.41016 0.36976 0.66639 0.0
C23 C 0.66242 0.28157 0.45272 0.0
H24 H 0.64369 0.28059 0.30411 0.0
H25 H 0.70973 0.28805 0.43347 0.0
H26 H 0.66464 0.32073 0.53811 0.0
O27 O 0.56352 0.31211 0.42186 0.0
O28 O 0.49183 0.33925 0.43807 0.0
C29 C 0.45691 0.22868 0.05348 0.0
O30 O 0.42069 0.24326 0.7682 0.0
O31 O 0.49507 0.22009 0.76482 0.0
Zn32 Zn 0.19641 0.41049 0.62357 0.0
O33 O 0.22224 0.3402 0.61555 0.0
C34 C 0.24668 0.44773 0.02643 0.0
Zn35 Zn 0.29784 0.48426 0.62253 0.0
C36 C 0.27954 0.35548 0.61337 0.0
O37 O 0.32079 0.41262 0.63125 0.0
C38 C 0.21411 0.53802 0.56921 0.0
O39 O 0.29909 0.48227 0.3112 0.0
O40 O 0.19814 0.41121 0.3141 0.0
N41 N 0.39196 0.54912 0.66899 0.0
C42 C 0.41793 0.6098 0.71999 0.0
C43 C 0.47739 0.57785 0.83175 0.0
N44 N 0.42904 0.52949 0.73997 0.0
N45 N 0.47055 0.62852 0.82778 0.0
C46 C 0.05513 0.34418 0.73021 0.0
C47 C 1.02259 0.24992 0.6459 0.0
N48 N 0.10338 0.34252 0.64263 0.0
N49 N 0.08311 0.28373 0.59262 0.0
N50 N 1.00377 0.28674 0.73241 0.0
H51 H 1.02742 0.38636 -0.04081 0.0
H52 H 0.04895 0.42746 0.72757 0.0
H53 H 0.10771 0.43061 0.89165 0.0
C54 C 0.06022 0.40031 0.83319 0.0
C55 C 0.40067 0.65259 0.62018 0.0
H56 H 0.38293 0.63391 0.47153 0.0
H57 H 0.44147 0.69993 0.60107 0.0
H58 H 0.36371 0.65473 0.70573 0.0
O59 O 0.27128 0.55367 0.58882 0.0
O60 O 0.17243 0.48199 0.60498 0.0
C61 C 0.24808 0.44707 0.22035 0.0
O62 O 0.19725 0.41085 0.93508 0.0
O63 O 0.29483 0.48522 0.93168 0.0
Zn64 Zn 0.80568 0.18662 0.78986 0.0
O65 O 0.90178 0.21243 0.78185 0.0
C66 C 0.81873 0.2369 0.19271 0.0
Zn67 Zn 0.83338 0.28807 0.78878 0.0
C68 C 0.94384 0.26973 0.7797 0.0
O69 O 0.92796 0.31099 0.79754 0.0
C70 C 0.69588 0.20436 0.7355 0.0
O71 O 0.83663 0.28932 0.47747 0.0
O72 O 0.8067 0.18836 0.48038 0.0
N73 N 0.8627 0.3822 0.83532 0.0
C74 C 0.82803 0.40833 0.88487 0.0
C75 C 0.91911 0.46738 -0.00035 0.0
N76 N 0.91922 0.41905 0.9081 0.0
N77 N 0.86173 0.46079 -0.00645 0.0
C78 C 0.7307 0.04533 0.89675 0.0
C79 C 0.79245 1.01282 0.81261 0.0
N80 N 0.78059 0.09357 0.809 0.0
N81 N 0.81913 0.07332 0.7591 0.0
N82 N 0.73681 0.99399 0.89918 0.0
H83 H 0.6608 1.01766 0.1257 0.0
H84 H 0.64123 0.0391 0.89395 0.0
H85 H 0.69683 0.09793 0.05792 0.0
C86 C 0.67965 0.05042 -0.00039 0.0
C87 C 0.7681 0.39108 0.7842 0.0
H88 H 0.76916 0.37319 0.63591 0.0
H89 H 0.76162 0.43189 0.76426 0.0
H90 H 0.72887 0.35424 0.8697 0.0
O91 O 0.73741 0.26154 0.7551 0.0
O92 O 0.71019 0.16266 0.77129 0.0
C93 C 0.82079 0.2383 0.38662 0.0
O94 O 0.80616 0.18746 0.10136 0.0
O95 O 0.82941 0.28505 0.09795 0.0
Zn96 Zn 0.6389 0.79588 -0.04295 0.0
O97 O 0.70918 0.89202 0.94889 0.0
C98 C 0.60168 0.80893 0.35992 0.0
Zn99 Zn 0.56516 0.82355 0.95601 0.0
C100 C 0.69392 0.93406 0.94672 0.0
O101 O 0.63678 0.91815 -0.0353 0.0
C102 C 0.51138 0.68602 0.90272 0.0
O103 O 0.56714 0.8268 0.64471 0.0
O104 O 0.63817 0.79688 0.64756 0.0
N105 N 0.50032 0.85282 0.00245 0.0
C106 C 0.43964 0.81811 0.05334 0.0
C107 C 0.47157 0.90951 0.16516 0.0
N108 N 0.51995 0.90953 0.07347 0.0
N109 N 0.4209 0.852 0.16109 0.0
C110 C 0.70535 0.72113 0.0648 0.0
C111 C 0.79937 0.78248 -0.0227 0.0
N112 N 0.70685 0.77081 -0.02397 0.0
N113 N 0.76549 0.8091 0.92404 0.0
N114 N 0.76276 0.72712 0.06583 0.0
H115 H 0.66352 0.65203 0.29605 0.0
H116 H 0.62244 0.63138 0.06442 0.0
H117 H 0.61879 0.68731 0.22568 0.0
C118 C 0.64937 0.67024 0.16884 0.0
C119 C 0.39686 0.75807 0.95341 0.0
H120 H 0.41557 0.75905 0.80477 0.0
H121 H 0.34952 0.75153 0.93427 0.0
H122 H 0.39469 0.71894 0.03887 0.0
O123 O 0.49576 0.72756 0.92232 0.0
O124 O 0.5674 0.70034 0.93857 0.0
C125 C 0.60233 0.81097 0.55383 0.0
O126 O 0.63856 0.7964 0.26855 0.0
O127 O 0.56419 0.81959 0.26518 0.0
Zn128 Zn 0.76136 0.55548 0.12227 0.0
O129 O 0.7595 0.55859 0.8173 0.0
C130 C 0.84497 0.50157 0.06832 0.0
Zn131 Zn 0.86289 0.62913 0.12332 0.0
C132 C 0.81098 0.59272 0.72814 0.0
O133 O 0.86138 0.62748 0.82032 0.0
C134 C 0.81272 0.59184 0.51814 0.0
O135 O 0.83713 0.6994 0.11201 0.0
O136 O 0.73863 0.62732 0.13562 0.0
N137 N 0.95596 0.69703 0.14213 0.0
C138 C 1.00414 0.69542 0.23043 0.0
C139 C 0.03678 0.78961 0.14497 0.0
N140 N 0.97629 0.75578 0.09142 0.0
N141 N 0.05552 0.75285 0.23237 0.0
C142 C 0.64131 0.42995 0.21965 0.0
C143 C 0.58179 0.46179 0.33162 0.0
N144 N 0.66726 0.49066 0.16901 0.0
N145 N 0.63015 0.51023 0.2401 0.0
N146 N 0.58865 0.41114 0.3273 0.0
H147 H 0.67649 0.40591 -0.02868 0.0
H148 H 0.618 0.33986 0.10091 0.0
H149 H 0.69573 0.38521 0.20569 0.0
C150 C 0.65874 0.38725 0.12001 0.0
C151 C 0.9989 0.63942 0.3347 0.0
H152 H 0.03188 0.6535 0.4602 0.0
H153 H 1.00977 0.61183 0.22961 0.0
H154 H 0.95145 0.60949 0.39414 0.0
O155 O 0.86181 0.62984 0.42837 0.0
O156 O 0.76497 0.55326 0.42493 0.0
C157 C 0.77987 0.68432 0.11369 0.0
O158 O 0.78779 0.48621 0.08424 0.0
O159 O 0.88667 0.5573 0.108 0.0
Zn160 Zn 0.25358 0.85302 0.29022 0.0
O161 O 0.15747 0.82717 0.28209 0.0
C162 C 0.24053 0.80274 0.69315 0.0
Zn163 Zn 0.22589 0.75159 0.28931 0.0
C164 C 0.11542 0.76987 0.28004 0.0
O165 O 0.13129 0.72861 0.2981 0.0
C166 C 0.36339 0.83533 0.23593 0.0
O167 O 0.22264 0.75034 -0.02203 0.0
O168 O 0.25258 0.8513 -0.01923 0.0
N169 N 0.19662 0.65747 0.33575 0.0
C170 C 0.23133 0.63149 0.38659 0.0
C171 C 0.13993 0.572 0.49843 0.0
N172 N 0.13991 0.62037 0.40679 0.0
N173 N 0.19743 0.57884 0.49425 0.0
C174 C 0.32856 0.99432 0.3968 0.0
C175 C 0.26677 0.0268 0.31274 0.0
N176 N 0.27863 0.94605 0.3093 0.0
N177 N 0.24007 0.96628 0.25948 0.0
N178 N 0.32246 0.04567 0.39897 0.0
H179 H 0.39848 0.02206 0.62566 0.0
H180 H 0.41802 1.00053 0.39401 0.0
H181 H 0.36242 0.94176 0.55823 0.0
C182 C 0.37961 0.98926 0.4997 0.0
C183 C 0.29138 0.64878 0.28671 0.0
H184 H 0.29042 0.66652 0.13808 0.0
H185 H 0.29793 0.60798 0.26756 0.0
H186 H 0.33049 0.68574 0.37223 0.0
O187 O 0.32186 0.77816 0.25557 0.0
O188 O 0.34908 0.87703 0.27168 0.0
C189 C 0.23848 0.80136 0.88707 0.0
O190 O 0.25309 0.85217 0.60175 0.0
O191 O 0.22985 0.75458 0.59845 0.0
loop_
_geom_bond_atom_site_label_1
_geom_bond_atom_site_label_2
_geom_bond_distance
_geom_bond_site_symmetry_2
_ccdc_geom_bond_type
Zn0 O1 2.055 . S
Zn0 O8 2.046 . S
Zn0 N16 2.036 . S
Zn0 O28 2.053 . S
Zn0 O30 2.066 . S
O1 Zn0 2.055 . S
O1 C4 1.259 . S
C2 O30 1.256 . S
C2 O31 1.244 . S
Zn3 O5 2.046 . S
Zn3 O7 2.055 . S
Zn3 N9 2.036 . S
Zn3 O27 2.066 . S
Zn3 O31 2.053 . S
C4 O1 1.259 . S
C4 O5 1.254 . S
O5 Zn3 2.046 . S
O5 C4 1.254 . S
C6 O27 1.256 . S
C6 O28 1.244 . S
O7 Zn3 2.055 . S
O7 C29 1.259 . S
O8 Zn0 2.046 . S
O8 C29 1.254 . S
N9 Zn3 2.036 . S
N9 C10 1.298 . S
N9 N12 1.398 . S
C10 N9 1.298 . S
C10 N13 1.367 . S
C10 C23 1.481 . S
C11 N12 1.299 . S
C11 N13 1.379 . S
N12 N9 1.398 . S
N12 C11 1.299 . S
N13 C10 1.367 . S
N13 C11 1.379 . S
C14 N16 1.298 . S
C14 N18 1.367 . S
C14 C22 1.481 . S
C15 N17 1.299 . S
C15 N18 1.379 . S
N16 Zn0 2.036 . S
N16 C14 1.298 . S
N16 N17 1.398 . S
N17 C15 1.299 . S
N17 N16 1.398 . S
N18 C14 1.367 . S
N18 C15 1.379 . S
H19 C22 0.980 . S
H20 C22 0.981 . S
H21 C22 0.981 . S
C22 C14 1.481 . S
C22 H19 0.980 . S
C22 H20 0.981 . S
C22 H21 0.981 . S
C23 C10 1.481 . S
C23 H24 0.980 . S
C23 H25 0.981 . S
C23 H26 0.981 . S
H24 C23 0.980 . S
H25 C23 0.981 . S
H26 C23 0.981 . S
O27 Zn3 2.066 . S
O27 C6 1.256 . S
O28 Zn0 2.053 . S
O28 C6 1.244 . S
C29 O7 1.259 . S
C29 O8 1.254 . S
O30 Zn0 2.066 . S
O30 C2 1.256 . S
O31 C2 1.244 . S
O31 Zn3 2.053 . S
Zn32 O33 2.055 . S
Zn32 O40 2.046 . S
Zn32 N48 2.036 . S
Zn32 O60 2.053 . S
Zn32 O62 2.066 1_556 S
O33 Zn32 2.055 . S
O33 C36 1.259 . S
C34 O62 1.256 . S
C34 O63 1.244 . S
Zn35 O37 2.046 . S
Zn35 O39 2.055 . S
Zn35 N41 2.036 . S
Zn35 O59 2.066 . S
Zn35 O63 2.053 1_556 S
C36 O33 1.259 . S
C36 O37 1.254 . S
O37 Zn35 2.046 . S
O37 C36 1.254 . S
C38 O59 1.256 . S
C38 O60 1.244 . S
O39 Zn35 2.055 . S
O39 C61 1.259 . S
O40 Zn32 2.046 . S
O40 C61 1.254 . S
N41 Zn35 2.036 . S
N41 C42 1.298 . S
N41 N44 1.398 . S
C42 N41 1.298 . S
C42 N45 1.367 . S
C42 C55 1.481 . S
C43 N44 1.299 . S
C43 N45 1.379 . S
N44 N41 1.398 . S
N44 C43 1.299 . S
N45 C42 1.367 . S
N45 C43 1.379 . S
C46 N48 1.298 . S
C46 N50 1.367 1_455 S
C46 C54 1.481 . S
C47 N49 1.299 1_655 S
C47 N50 1.379 . S
N48 Zn32 2.036 . S
N48 C46 1.298 . S
N48 N49 1.398 . S
N49 C47 1.299 1_455 S
N49 N48 1.398 . S
N50 C46 1.367 1_655 S
N50 C47 1.379 . S
H51 C54 0.980 . S
H52 C54 0.981 . S
H53 C54 0.981 1_554 S
C54 C46 1.481 . S
C54 H51 0.980 . S
C54 H52 0.981 . S
C54 H53 0.981 1_556 S
C55 C42 1.481 . S
C55 H56 0.980 . S
C55 H57 0.981 . S
C55 H58 0.981 . S
H56 C55 0.980 . S
H57 C55 0.981 . S
H58 C55 0.981 . S
O59 Zn35 2.066 . S
O59 C38 1.256 . S
O60 Zn32 2.053 . S
O60 C38 1.244 . S
C61 O39 1.259 . S
C61 O40 1.254 . S
O62 Zn32 2.066 1_554 S
O62 C34 1.256 . S
O63 C34 1.244 . S
O63 Zn35 2.053 1_554 S
Zn64 O65 2.055 . S
Zn64 O72 2.046 . S
Zn64 N80 2.036 . S
Zn64 O92 2.053 . S
Zn64 O94 2.066 1_556 S
O65 Zn64 2.055 . S
O65 C68 1.259 . S
C66 O94 1.256 . S
C66 O95 1.244 . S
Zn67 O69 2.046 . S
Zn67 O71 2.055 . S
Zn67 N73 2.036 . S
Zn67 O91 2.066 . S
Zn67 O95 2.053 1_556 S
C68 O65 1.259 . S
C68 O69 1.254 . S
O69 Zn67 2.046 . S
O69 C68 1.254 . S
C70 O91 1.256 . S
C70 O92 1.244 . S
O71 Zn67 2.055 . S
O71 C93 1.259 . S
O72 Zn64 2.046 . S
O72 C93 1.254 . S
N73 Zn67 2.036 . S
N73 C74 1.298 . S
N73 N76 1.398 1_556 S
C74 N73 1.298 . S
C74 N77 1.367 . S
C74 C87 1.481 . S
C75 N76 1.299 . S
C75 N77 1.379 1_554 S
N76 N73 1.398 1_554 S
N76 C75 1.299 . S
N77 C74 1.367 . S
N77 C75 1.379 1_556 S
C78 N80 1.298 . S
C78 N82 1.367 1_545 S
C78 C86 1.481 1_556 S
C79 N81 1.299 1_565 S
C79 N82 1.379 . S
N80 Zn64 2.036 . S
N80 C78 1.298 . S
N80 N81 1.398 . S
N81 C79 1.299 1_545 S
N81 N80 1.398 . S
N82 C78 1.367 1_565 S
N82 C79 1.379 . S
H83 C86 0.980 1_556 S
H84 C86 0.981 . S
H85 C86 0.981 . S
C86 C78 1.481 1_554 S
C86 H83 0.980 1_554 S
C86 H84 0.981 . S
C86 H85 0.981 . S
C87 C74 1.481 . S
C87 H88 0.980 . S
C87 H89 0.981 . S
C87 H90 0.981 . S
H88 C87 0.980 . S
H89 C87 0.981 . S
H90 C87 0.981 . S
O91 Zn67 2.066 . S
O91 C70 1.256 . S
O92 Zn64 2.053 . S
O92 C70 1.244 . S
C93 O71 1.259 . S
C93 O72 1.254 . S
O94 Zn64 2.066 1_554 S
O94 C66 1.256 . S
O95 C66 1.244 . S
O95 Zn67 2.053 1_554 S
Zn96 O97 2.055 . S
Zn96 O104 2.046 1_554 S
Zn96 N112 2.036 . S
Zn96 O124 2.053 . S
Zn96 O126 2.066 . S
O97 Zn96 2.055 . S
O97 C100 1.259 . S
C98 O126 1.256 . S
C98 O127 1.244 . S
Zn99 O101 2.046 . S
Zn99 O103 2.055 1_554 S
Zn99 N105 2.036 . S
Zn99 O123 2.066 . S
Zn99 O127 2.053 . S
C100 O97 1.259 . S
C100 O101 1.254 . S
O101 Zn99 2.046 . S
O101 C100 1.254 . S
C102 O123 1.256 . S
C102 O124 1.244 . S
O103 Zn99 2.055 1_556 S
O103 C125 1.259 . S
O104 Zn96 2.046 1_556 S
O104 C125 1.254 . S
N105 Zn99 2.036 . S
N105 C106 1.298 . S
N105 N108 1.398 . S
C106 N105 1.298 . S
C106 N109 1.367 . S
C106 C119 1.481 1_554 S
C107 N108 1.299 . S
C107 N109 1.379 . S
N108 N105 1.398 . S
N108 C107 1.299 . S
N109 C106 1.367 . S
N109 C107 1.379 . S
C110 N112 1.298 . S
C110 N114 1.367 . S
C110 C118 1.481 . S
C111 N113 1.299 1_554 S
C111 N114 1.379 . S
N112 Zn96 2.036 . S
N112 C110 1.298 . S
N112 N113 1.398 1_554 S
N113 C111 1.299 1_556 S
N113 N112 1.398 1_556 S
N114 C110 1.367 . S
N114 C111 1.379 . S
H115 C118 0.980 . S
H116 C118 0.981 . S
H117 C118 0.981 . S
C118 C110 1.481 . S
C118 H115 0.980 . S
C118 H116 0.981 . S
C118 H117 0.981 . S
C119 C106 1.481 1_556 S
C119 H120 0.980 . S
C119 H121 0.981 . S
C119 H122 0.981 . S
H120 C119 0.980 . S
H121 C119 0.981 . S
H122 C119 0.981 . S
O123 Zn99 2.066 . S
O123 C102 1.256 . S
O124 Zn96 2.053 . S
O124 C102 1.244 . S
C125 O103 1.259 . S
C125 O104 1.254 . S
O126 Zn96 2.066 . S
O126 C98 1.256 . S
O127 C98 1.244 . S
O127 Zn99 2.053 . S
Zn128 O129 2.055 1_554 S
Zn128 O136 2.046 . S
Zn128 N144 2.036 . S
Zn128 O156 2.053 . S
Zn128 O158 2.066 . S
O129 Zn128 2.055 1_556 S
O129 C132 1.259 . S
C130 O158 1.256 . S
C130 O159 1.244 . S
Zn131 O133 2.046 1_554 S
Zn131 O135 2.055 . S
Zn131 N137 2.036 . S
Zn131 O155 2.066 . S
Zn131 O159 2.053 . S
C132 O129 1.259 . S
C132 O133 1.254 . S
O133 Zn131 2.046 1_556 S
O133 C132 1.254 . S
C134 O155 1.256 . S
C134 O156 1.244 . S
O135 Zn131 2.055 . S
O135 C157 1.259 . S
O136 Zn128 2.046 . S
O136 C157 1.254 . S
N137 Zn131 2.036 . S
N137 C138 1.298 . S
N137 N140 1.398 . S
C138 N137 1.298 . S
C138 N141 1.367 1_655 S
C138 C151 1.481 . S
C139 N140 1.299 1_455 S
C139 N141 1.379 . S
N140 N137 1.398 . S
N140 C139 1.299 1_655 S
N141 C138 1.367 1_455 S
N141 C139 1.379 . S
C142 N144 1.298 . S
C142 N146 1.367 . S
C142 C150 1.481 1_554 S
C143 N145 1.299 . S
C143 N146 1.379 . S
N144 Zn128 2.036 . S
N144 C142 1.298 . S
N144 N145 1.398 . S
N145 C143 1.299 . S
N145 N144 1.398 . S
N146 C142 1.367 . S
N146 C143 1.379 . S
H147 C150 0.980 . S
H148 C150 0.981 . S
H149 C150 0.981 . S
C150 C142 1.481 1_556 S
C150 H147 0.980 . S
C150 H148 0.981 . S
C150 H149 0.981 . S
C151 C138 1.481 . S
C151 H152 0.980 . S
C151 H153 0.981 . S
C151 H154 0.981 . S
H152 C151 0.980 . S
H153 C151 0.981 . S
H154 C151 0.981 . S
O155 Zn131 2.066 . S
O155 C134 1.256 . S
O156 Zn128 2.053 . S
O156 C134 1.244 . S
C157 O135 1.259 . S
C157 O136 1.254 . S
O158 Zn128 2.066 . S
O158 C130 1.256 . S
O159 C130 1.244 . S
O159 Zn131 2.053 . S
Zn160 O161 2.055 . S
Zn160 O168 2.046 . S
Zn160 N176 2.036 . S
Zn160 O188 2.053 . S
Zn160 O190 2.066 . S
O161 Zn160 2.055 . S
O161 C164 1.259 . S
C162 O190 1.256 . S
C162 O191 1.244 . S
Zn163 O165 2.046 . S
Zn163 O167 2.055 . S
Zn163 N169 2.036 . S
Zn163 O187 2.066 . S
Zn163 O191 2.053 . S
C164 O161 1.259 . S
C164 O165 1.254 . S
O165 Zn163 2.046 . S
O165 C164 1.254 . S
C166 O187 1.256 . S
C166 O188 1.244 . S
O167 Zn163 2.055 . S
O167 C189 1.259 1_554 S
O168 Zn160 2.046 . S
O168 C189 1.254 1_554 S
N169 Zn163 2.036 . S
N169 C170 1.298 . S
N169 N172 1.398 . S
C170 N169 1.298 . S
C170 N173 1.367 . S
C170 C183 1.481 . S
C171 N172 1.299 . S
C171 N173 1.379 . S
N172 N169 1.398 . S
N172 C171 1.299 . S
N173 C170 1.367 . S
N173 C171 1.379 . S
C174 N176 1.298 . S
C174 N178 1.367 1_565 S
C174 C182 1.481 . S
C175 N177 1.299 1_545 S
C175 N178 1.379 . S
N176 Zn160 2.036 . S
N176 C174 1.298 . S
N176 N177 1.398 . S
N177 C175 1.299 1_565 S
N177 N176 1.398 . S
N178 C174 1.367 1_545 S
N178 C175 1.379 . S
H179 C182 0.980 . S
H180 C182 0.981 . S
H181 C182 0.981 . S
C182 C174 1.481 . S
C182 H179 0.980 . S
C182 H180 0.981 . S
C182 H181 0.981 . S
C183 C170 1.481 . S
C183 H184 0.980 . S
C183 H185 0.981 . S
C183 H186 0.981 . S
H184 C183 0.980 . S
H185 C183 0.981 . S
H186 C183 0.981 . S
O187 Zn163 2.066 . S
O187 C166 1.256 . S
O188 Zn160 2.053 . S
O188 C166 1.244 . S
C189 O167 1.259 1_556 S
C189 O168 1.254 1_556 S
O190 Zn160 2.066 . S
O190 C162 1.256 . S
O191 C162 1.244 . S
O191 Zn163 2.053 . S
C29 C2 1.211 1_554 S
C61 C34 1.211 . S
C66 C93 1.211 . S
C98 C125 1.211 . S
C134 C132 1.211 . S
C189 C162 1.211 . S
C4 N178 1.771 . S
N18 C36 1.771 . S
C68 N50 1.771 . S
C100 N82 1.771 1_554 S
C157 N114 1.771 . S
N141 C164 1.771 . S
C6 N146 2.198 . S
C38 N173 2.198 . S
C70 N13 2.199 . S
C102 N45 2.198 1_554 S
C130 N77 2.198 1_554 S
N109 C166 2.199 . S
