# Generated by pormake.
# Topology twt, (3)-cn, num edge types: 1
# Building blocks:
#     Node 0, Type 0, BuildingBlock: OLANEW_clean_sbu_2, # of connection points: 3
#     Node 1, Type 0, BuildingBlock: OLANEW_clean_sbu_2, # of connection points: 3
#     Node 2, Type 0, BuildingBlock: OLANEW_clean_sbu_2, # of connection points: 3
#     Node 3, Type 0, BuildingBlock: OLANEW_clean_sbu_2, # of connection points: 3
#     Node 4, Type 0, BuildingBlock: OLANEW_clean_sbu_2, # of connection points: 3
#     Node 5, Type 0, BuildingBlock: OLANEW_clean_sbu_2, # of connection points: 3
#     Edge 6, Type (0, 0), None
#     Edge 7, Type (0, 0), None
#     Edge 8, Type (0, 0), None
#     Edge 9, Type (0, 0), None
#     Edge 10, Type (0, 0), None
#     Edge 11, Type (0, 0), None
#     Edge 12, Type (0, 0), None
#     Edge 13, Type (0, 0), None
#     Edge 14, Type (0, 0), None
# Relax obj value: 0.004
# Max RMSD: 0.054
# Mean RMSD: 0.037
data_MOF--net-twt--node1-OLANEW_clean_sbu_2--edge1-none
_symmetry_space_group_name_H-M    P1
_symmetry_Int_Tables_number       1
_symmetry_cell_setting            triclinic
loop_
_symmetry_equiv_pos_as_xyz
'x, y, z'
_cell_length_a     16.194241
_cell_length_b     19.050362
_cell_length_c     19.020676
_cell_angle_alpha  96.911005
_cell_angle_beta   87.350024
_cell_angle_gamma 122.92545
loop_
_atom_site_label
_atom_site_type_symbol
_atom_site_fract_x
_atom_site_fract_y
_atom_site_fract_z
_atom_type_partial_charge
O0 O 0.43742 0.0067 0.1142 0.0
Cd1 Cd 0.27325 0.97421 0.1449 0.0
O2 O 0.50978 0.08183 0.2156 0.0
Cd3 Cd 0.38822 0.09638 0.2474 0.0
O4 O 0.34145 0.18482 0.26699 0.0
C5 C 0.37305 0.23646 0.32294 0.0
O6 O 0.42554 0.23051 0.36968 0.0
C7 C 0.51268 0.04635 0.15539 0.0
C8 C 0.13664 0.81234 0.08189 0.0
O9 O 0.15727 0.877 0.05257 0.0
O10 O 0.17854 0.82387 0.14142 0.0
O11 O 0.53219 0.55567 0.27202 0.0
Cd12 Cd 0.37932 0.46249 0.33108 0.0
O13 O 0.61898 0.61532 0.3717 0.0
Cd14 Cd 0.48756 0.56187 0.4367 0.0
O15 O 0.35273 0.53056 0.49338 0.0
C16 C 0.32357 0.58063 0.49476 0.0
O17 O 0.375 0.64918 0.46302 0.0
C18 C 0.61466 0.60487 0.30435 0.0
C19 C 0.36673 0.31082 0.32901 0.0
O20 O 0.40849 0.36836 0.38126 0.0
O21 O 0.32724 0.32329 0.27913 0.0
O22 O 0.03752 0.57342 0.69912 0.0
Cd23 Cd 0.04522 0.51407 0.5788 0.0
O24 O 0.01155 0.45965 0.73785 0.0
Cd25 Cd 0.96513 0.36867 0.81414 0.0
O26 O 0.89244 0.25342 0.86545 0.0
C27 C 0.91497 0.25161 0.92795 0.0
O28 O -0.01552 0.32105 0.96412 0.0
C29 C 0.01808 0.52959 0.74999 0.0
C30 C 0.22972 0.55948 0.52696 0.0
O31 O 0.19517 0.60524 0.52137 0.0
O32 O 0.17881 0.4935 0.55901 0.0
O33 O 0.60446 0.01354 0.07329 0.0
Cd34 Cd 0.75094 0.02348 0.02193 0.0
O35 O 0.6783 0.08853 0.17434 0.0
Cd36 Cd 0.80293 0.07662 0.14828 0.0
O37 O 0.84294 0.98473 0.12024 0.0
C38 C 0.88713 0.97024 0.1641 0.0
O39 O 0.91732 0.01648 0.22571 0.0
C40 C 0.60273 0.05 0.13338 0.0
C41 C 0.86059 0.17262 0.96017 0.0
O42 O 0.87772 0.17019 0.0246 0.0
O43 O 0.79333 0.10471 0.92471 0.0
O44 O 0.69946 0.64445 0.19641 0.0
Cd45 Cd 0.8544 0.73285 0.13764 0.0
O46 O 0.78814 0.69926 0.29451 0.0
Cd47 Cd 0.81292 0.71232 0.40834 0.0
O48 O 0.85312 0.70381 0.51321 0.0
C49 C 0.8116 0.63146 0.53422 0.0
O50 O 0.74438 0.56522 0.49357 0.0
C51 C 0.70448 0.65138 0.26356 0.0
C52 C 0.8856 0.89218 0.1517 0.0
O53 O 0.84142 0.83995 0.09669 0.0
O54 O 0.91931 0.87079 0.19878 0.0
O55 O -0.004 0.52375 0.87451 0.0
Cd56 Cd 0.9369 0.5645 0.98328 0.0
O57 O 0.97211 0.61049 0.82701 0.0
Cd58 Cd 0.95409 0.66181 0.73661 0.0
O59 O 0.91095 0.68427 0.63915 0.0
C60 C 0.84132 0.62127 0.60186 0.0
O61 O 0.79837 0.5462 0.62312 0.0
C62 C -0.00358 0.55685 0.8203 0.0
C63 C 0.06781 0.727 0.04771 0.0
O64 O 0.0623 0.66338 0.06917 0.0
O65 O 0.01261 0.7144 0.99534 0.0
loop_
_geom_bond_atom_site_label_1
_geom_bond_atom_site_label_2
_geom_bond_distance
_geom_bond_site_symmetry_2
_ccdc_geom_bond_type
O0 Cd1 2.300 1_545 S
O0 C7 1.275 . S
Cd1 O0 2.300 1_565 S
Cd1 O9 2.381 1_554 S
Cd1 O10 2.378 . S
O2 Cd3 2.385 1_545 S
O2 C7 1.255 . S
Cd3 O2 2.385 1_565 S
Cd3 O4 2.317 1_565 S
O4 Cd3 2.317 1_545 S
O4 C5 1.232 . S
C5 O4 1.232 . S
C5 O6 1.218 . S
O6 C5 1.218 . S
C7 O0 1.275 . S
C7 O2 1.255 . S
C8 O9 1.258 . S
C8 O10 1.256 1_556 S
O9 Cd1 2.381 1_556 S
O9 C8 1.258 . S
O10 Cd1 2.378 . S
O10 C8 1.256 1_554 S
O11 Cd12 2.300 . S
O11 C18 1.275 . S
Cd12 O11 2.300 . S
Cd12 O20 2.381 . S
Cd12 O21 2.378 . S
O13 Cd14 2.385 . S
O13 C18 1.255 . S
Cd14 O13 2.385 . S
Cd14 O15 2.317 . S
O15 Cd14 2.317 . S
O15 C16 1.232 . S
C16 O15 1.232 . S
C16 O17 1.218 . S
O17 C16 1.218 . S
C18 O11 1.275 . S
C18 O13 1.255 . S
C19 O20 1.258 . S
C19 O21 1.256 . S
O20 Cd12 2.381 . S
O20 C19 1.258 . S
O21 Cd12 2.378 . S
O21 C19 1.256 . S
O22 Cd23 2.300 . S
O22 C29 1.275 . S
Cd23 O22 2.300 . S
Cd23 O31 2.381 . S
Cd23 O32 2.378 . S
O24 Cd25 2.385 . S
O24 C29 1.255 . S
Cd25 O24 2.385 . S
Cd25 O26 2.317 . S
O26 Cd25 2.317 . S
O26 C27 1.232 1_455 S
C27 O26 1.232 1_655 S
C27 O28 1.218 . S
O28 C27 1.218 . S
C29 O22 1.275 . S
C29 O24 1.255 . S
C30 O31 1.258 . S
C30 O32 1.256 . S
O31 Cd23 2.381 . S
O31 C30 1.258 . S
O32 Cd23 2.378 . S
O32 C30 1.256 . S
O33 Cd34 2.300 . S
O33 C40 1.275 . S
Cd34 O33 2.300 . S
Cd34 O42 2.381 1_554 S
Cd34 O43 2.378 1_554 S
O35 Cd36 2.385 . S
O35 C40 1.255 . S
Cd36 O35 2.385 . S
Cd36 O37 2.317 . S
O37 Cd36 2.317 . S
O37 C38 1.232 . S
C38 O37 1.232 . S
C38 O39 1.218 . S
O39 C38 1.218 . S
C40 O33 1.275 . S
C40 O35 1.255 . S
C41 O42 1.258 . S
C41 O43 1.256 . S
O42 Cd34 2.381 1_556 S
O42 C41 1.258 . S
O43 Cd34 2.378 1_556 S
O43 C41 1.256 . S
O44 Cd45 2.300 . S
O44 C51 1.275 . S
Cd45 O44 2.300 . S
Cd45 O53 2.381 . S
Cd45 O54 2.378 . S
O46 Cd47 2.385 . S
O46 C51 1.255 . S
Cd47 O46 2.385 . S
Cd47 O48 2.317 . S
O48 Cd47 2.317 . S
O48 C49 1.232 . S
C49 O48 1.232 . S
C49 O50 1.218 . S
O50 C49 1.218 . S
C51 O44 1.275 . S
C51 O46 1.255 . S
C52 O53 1.258 . S
C52 O54 1.256 . S
O53 Cd45 2.381 . S
O53 C52 1.258 . S
O54 Cd45 2.378 . S
O54 C52 1.256 . S
O55 Cd56 2.300 . S
O55 C62 1.275 . S
Cd56 O55 2.300 . S
Cd56 O64 2.381 . S
Cd56 O65 2.378 . S
O57 Cd58 2.385 . S
O57 C62 1.255 . S
Cd58 O57 2.385 . S
Cd58 O59 2.317 1_455 S
O59 Cd58 2.317 1_655 S
O59 C60 1.232 . S
C60 O59 1.232 . S
C60 O61 1.218 . S
O61 C60 1.218 . S
C62 O55 1.275 . S
C62 O57 1.255 . S
C63 O64 1.258 . S
C63 O65 1.256 . S
O64 Cd56 2.381 . S
O64 C63 1.258 . S
O65 Cd56 2.378 . S
O65 C63 1.256 . S
C5 C19 1.356 . S
C16 C30 1.487 . S
C27 C41 1.158 . S
C52 C38 1.728 1_565 S
C49 C60 1.195 . S
C63 C8 1.491 . S
C40 C7 1.808 . S
C18 C51 1.594 . S
C29 C62 1.408 . S
