# Generated by pormake.
# Topology kag, (6)-cn, num edge types: 1
# Building blocks:
#     Node 0, Type 0, BuildingBlock: NUHQIS_clean_sbu_0, # of connection points: 6
#     Node 1, Type 0, BuildingBlock: NUHQIS_clean_sbu_0, # of connection points: 6
#     Node 2, Type 0, BuildingBlock: NUHQIS_clean_sbu_0, # of connection points: 6
#     Edge 3, Type (0, 0), None
#     Edge 4, Type (0, 0), None
#     Edge 5, Type (0, 0), None
#     Edge 6, Type (0, 0), None
#     Edge 7, Type (0, 0), None
#     Edge 8, Type (0, 0), None
#     Edge 9, Type (0, 0), None
#     Edge 10, Type (0, 0), None
#     Edge 11, Type (0, 0), None
# Relax obj value: 0.231
# Max RMSD: 0.315
# Mean RMSD: 0.180
data_MOF--net-kag--node1-NUHQIS_clean_sbu_0--edge1-none
_symmetry_space_group_name_H-M    P1
_symmetry_Int_Tables_number       1
_symmetry_cell_setting            triclinic
loop_
_symmetry_equiv_pos_as_xyz
'x, y, z'
_cell_length_a     30.97552
_cell_length_b     14.0373
_cell_length_c     6.7673041
_cell_angle_alpha  86.8143
_cell_angle_beta   95.885117
_cell_angle_gamma 125.40506
loop_
_atom_site_label
_atom_site_type_symbol
_atom_site_fract_x
_atom_site_fract_y
_atom_site_fract_z
_atom_type_partial_charge
Tb0 Tb 1.08069 0.47177 -0.00579 0.0
Eu1 Eu 0.10477 0.73645 0.97034 0.0
C2 C 0.09269 0.6013 0.38468 0.0
C3 C 0.98267 0.48858 0.97109 0.0
C4 C 0.12735 0.28855 0.98435 0.0
C5 C 0.19304 0.25364 0.11816 0.0
C6 C 0.14484 0.24001 0.12985 0.0
C7 C 0.15813 0.34798 0.82375 0.0
C8 C 0.20608 0.36126 0.81169 0.0
C9 C 0.22468 0.31622 0.96054 0.0
C10 C 1.08254 0.2944 0.01806 0.0
O11 O 1.07048 0.50199 0.67755 0.0
O12 O 0.11706 0.70243 0.66945 0.0
O13 O 0.18739 0.78499 0.97537 0.0
O14 O 0.16725 0.59886 0.001 0.0
C15 C 0.09343 0.60144 0.58097 0.0
O16 O 0.09528 0.85923 0.7953 0.0
O17 O 0.12938 0.90182 0.09989 0.0
O18 O 0.11535 0.702 0.29351 0.0
O19 O 1.06887 0.50159 0.29031 0.0
O20 O 0.99916 0.42017 -0.01224 0.0
O21 O 1.01558 0.60332 0.96155 0.0
C22 C 0.2017 0.71325 -0.00888 0.0
O23 O 0.09143 0.35781 0.17042 0.0
O24 O 1.0606 0.31641 0.86429 0.0
C25 C 1.0672 0.94383 -0.0137 0.0
C26 C 0.97408 0.931 0.0192 0.0
C27 C 1.00361 0.98458 0.85356 0.0
C28 C 1.04986 0.99103 0.83744 0.0
C29 C 1.03926 0.89589 0.15661 0.0
C30 C 0.99328 0.88992 0.17313 0.0
C31 C 0.10805 0.92641 0.94741 0.0
H32 H 0.20583 0.21637 0.23371 0.0
H33 H 0.12212 0.19506 0.25627 0.0
H34 H 0.14639 0.38879 0.7115 0.0
H35 H 0.22966 0.41114 0.68959 0.0
H36 H 0.9902 1.01871 0.73419 0.0
H37 H 1.07069 1.02783 0.70442 0.0
H38 H 1.05121 0.85722 0.27264 0.0
H39 H 0.97124 0.84727 0.30182 0.0
Tb40 Tb 0.6632 0.19192 0.00688 0.0
Eu41 Eu 0.52397 1.01815 0.96367 0.0
C42 C 0.59504 1.10845 0.38825 0.0
C43 C 0.59341 0.90862 0.9784 0.0
C44 C 0.81678 0.35146 0.00097 0.0
C45 C 0.88741 0.32078 0.02649 0.0
C46 C 0.83412 0.27862 0.0436 0.0
C47 C 0.85347 0.46561 0.93531 0.0
C48 C 0.90647 0.50781 0.9196 0.0
C49 C 0.92466 0.43713 0.96915 0.0
C50 C 0.76434 0.31938 0.05386 0.0
O51 O 0.64205 0.16211 0.68903 0.0
O52 O 0.54955 1.05015 0.65651 0.0
O53 O 0.54879 0.20317 -0.01275 0.0
O54 O 0.64128 0.31555 0.0042 0.0
C55 C 0.59581 1.10747 0.58336 0.0
O56 O 0.44916 0.97772 0.8146 0.0
O57 O 0.44769 0.86193 0.04455 0.0
O58 O 0.54822 1.05309 0.28798 0.0
O59 O 0.6407 0.16454 0.30948 0.0
O60 O 0.63947 1.01239 0.98124 0.0
O61 O 0.54718 0.89283 0.97276 0.0
C62 C 0.59573 0.30445 -0.00465 0.0
O63 O 0.73395 0.22307 0.15064 0.0
O64 O 0.73664 0.34283 0.92974 0.0
C65 C 0.36651 0.84661 0.96152 0.0
C66 C 0.25907 0.7614 -0.00875 0.0
C67 C 0.29747 0.88048 0.95307 0.0
C68 C 0.35064 0.92261 0.93753 0.0
C69 C 0.32866 0.72894 0.00675 0.0
C70 C 0.2757 0.68682 0.02164 0.0
C71 C 0.41972 0.8823 0.91541 0.0
H72 H 0.89981 0.26369 0.06586 0.0
H73 H 0.80711 0.19057 0.09707 0.0
H74 H 0.84173 0.52456 0.90426 0.0
H75 H 0.93356 0.59758 0.8736 0.0
H76 H 0.28624 0.94059 0.9292 0.0
H77 H 0.37886 1.01365 0.901 0.0
H78 H 0.33966 0.66815 0.02363 0.0
H79 H 0.24757 0.59485 0.05246 0.0
Tb80 Tb 0.52859 0.52051 0.9675 0.0
Eu81 Eu 0.66458 0.69864 0.01253 0.0
C82 C 0.5954 0.60789 0.5872 0.0
C83 C 0.59693 0.41191 -0.00701 0.0
C84 C 0.37791 0.3791 0.9318 0.0
C85 C 0.29339 0.32956 0.76999 0.0
C86 C 0.34295 0.35017 0.76023 0.0
C87 C 0.36236 0.38729 0.11449 0.0
C88 C 0.31255 0.36653 0.12444 0.0
C89 C 0.2774 0.337 0.95217 0.0
C90 C 0.42778 0.38972 0.91534 0.0
O91 O 0.54962 0.53335 0.28692 0.0
O92 O 0.63865 0.6874 0.31376 0.0
O93 O 0.6408 0.82197 -0.00479 0.0
O94 O 0.54865 0.69861 0.97844 0.0
C95 C 0.59432 0.60907 0.39133 0.0
O96 O 0.73842 0.76332 0.19833 0.0
O97 O 0.74097 0.83723 0.90599 0.0
O98 O 0.64081 0.68389 0.68629 0.0
O99 O 0.55178 0.52981 0.6705 0.0
O100 O 0.55089 0.39836 0.97995 0.0
O101 O 0.64327 0.51481 0.00074 0.0
C102 C 0.59409 0.80382 0.98286 0.0
O103 O 0.45865 0.46211 0.78357 0.0
O104 O 0.45493 0.3908 0.07647 0.0
C105 C 0.8199 0.85893 0.05017 0.0
C106 C 0.92174 0.91084 0.02724 0.0
C107 C 0.90716 0.92574 0.2067 0.0
C108 C 0.85676 0.90011 0.21777 0.0
C109 C 0.83428 0.84459 0.86985 0.0
C110 C 0.88487 0.87036 0.85856 0.0
C111 C 0.76834 0.83903 0.06732 0.0
H112 H 0.26716 0.3056 0.63498 0.0
H113 H 0.35363 0.34136 0.61818 0.0
H114 H 0.38835 0.40866 0.24953 0.0
H115 H 0.30175 0.37459 0.26667 0.0
H116 H 0.93481 0.9578 0.33857 0.0
H117 H 0.84664 0.91328 0.3576 0.0
H118 H 0.80658 0.81352 0.73815 0.0
H119 H 0.8947 0.85635 0.71893 0.0
loop_
_geom_bond_atom_site_label_1
_geom_bond_atom_site_label_2
_geom_bond_distance
_geom_bond_site_symmetry_2
_ccdc_geom_bond_type
Tb0 C10 2.825 . S
Tb0 O11 2.347 1_554 S
Tb0 O14 2.366 . S
Tb0 O19 2.418 . S
Tb0 O20 2.384 1_455 S
Tb0 O23 2.479 . S
Tb0 O24 2.471 1_554 S
Eu1 O12 2.418 1_455 S
Eu1 O13 2.384 . S
Eu1 O16 2.479 1_455 S
Eu1 O17 2.471 1_456 S
Eu1 O18 2.347 1_556 S
Eu1 O21 2.366 1_455 S
Eu1 C31 2.825 1_455 S
C2 O18 1.259 . S
C2 O19 1.265 . S
C3 O20 1.255 1_556 S
C3 O21 1.265 . S
C4 C6 1.380 1_556 S
C4 C7 1.374 . S
C4 C10 1.507 1_556 S
C5 C6 1.384 . S
C5 C9 1.387 1_554 S
C5 H32 0.930 . S
C6 C4 1.380 1_554 S
C6 C5 1.384 . S
C6 H33 0.931 . S
C7 C4 1.374 . S
C7 C8 1.390 . S
C7 H34 0.930 . S
C8 C7 1.390 . S
C8 C9 1.391 . S
C8 H35 0.930 . S
C9 C5 1.387 1_556 S
C9 C8 1.391 . S
C10 Tb0 2.825 . S
C10 C4 1.507 1_554 S
C10 O23 1.238 . S
C10 O24 1.247 1_554 S
O11 Tb0 2.347 1_556 S
O11 C15 1.259 . S
O12 Eu1 2.418 1_655 S
O12 C15 1.265 1_655 S
O13 Eu1 2.384 . S
O13 C22 1.255 1_556 S
O14 Tb0 2.366 . S
O14 C22 1.265 . S
C15 O11 1.259 . S
C15 O12 1.265 1_455 S
O16 Eu1 2.479 1_655 S
O16 C31 1.238 . S
O17 Eu1 2.471 1_654 S
O17 C31 1.247 1_554 S
O18 Eu1 2.347 1_554 S
O18 C2 1.259 . S
O19 Tb0 2.418 . S
O19 C2 1.265 . S
O20 Tb0 2.384 1_655 S
O20 C3 1.255 1_554 S
O21 Eu1 2.366 1_655 S
O21 C3 1.265 . S
C22 O13 1.255 1_554 S
C22 O14 1.265 . S
O23 Tb0 2.479 . S
O23 C10 1.238 . S
O24 Tb0 2.471 1_556 S
O24 C10 1.247 1_556 S
C25 C28 1.380 1_554 S
C25 C29 1.374 . S
C25 C31 1.507 1_554 S
C26 C27 1.387 1_554 S
C26 C30 1.391 . S
C27 C26 1.387 1_556 S
C27 C28 1.384 . S
C27 H36 0.930 . S
C28 C25 1.380 1_556 S
C28 C27 1.384 . S
C28 H37 0.931 . S
C29 C25 1.374 . S
C29 C30 1.390 . S
C29 H38 0.930 . S
C30 C26 1.391 . S
C30 C29 1.390 . S
C30 H39 0.930 . S
C31 Eu1 2.825 1_655 S
C31 O16 1.238 . S
C31 O17 1.247 1_556 S
C31 C25 1.507 1_556 S
H32 C5 0.930 . S
H33 C6 0.931 . S
H34 C7 0.930 . S
H35 C8 0.930 . S
H36 C27 0.930 . S
H37 C28 0.931 . S
H38 C29 0.930 . S
H39 C30 0.930 . S
Tb40 C50 2.825 . S
Tb40 O51 2.347 1_554 S
Tb40 O54 2.366 . S
Tb40 O59 2.418 . S
Tb40 O60 2.384 1_545 S
Tb40 O63 2.479 . S
Tb40 O64 2.471 1_554 S
Eu41 O52 2.418 . S
Eu41 O53 2.384 1_565 S
Eu41 O56 2.479 . S
Eu41 O57 2.471 1_556 S
Eu41 O58 2.347 1_556 S
Eu41 O61 2.366 . S
Eu41 C71 2.825 . S
C42 O58 1.259 1_545 S
C42 O59 1.265 . S
C43 O60 1.255 1_556 S
C43 O61 1.264 . S
C44 C46 1.380 . S
C44 C47 1.374 1_554 S
C44 C50 1.507 . S
C45 C46 1.384 . S
C45 C49 1.387 1_554 S
C45 H72 0.930 . S
C46 C44 1.380 . S
C46 C45 1.384 . S
C46 H73 0.931 . S
C47 C44 1.374 1_556 S
C47 C48 1.390 . S
C47 H74 0.930 . S
C48 C47 1.390 . S
C48 C49 1.391 . S
C48 H75 0.930 . S
C49 C45 1.387 1_556 S
C49 C48 1.391 . S
C50 Tb40 2.825 . S
C50 C44 1.507 . S
C50 O63 1.238 . S
C50 O64 1.247 1_554 S
O51 Tb40 2.347 1_556 S
O51 C55 1.259 1_545 S
O52 Eu41 2.418 . S
O52 C55 1.265 . S
O53 Eu41 2.384 1_545 S
O53 C62 1.255 1_556 S
O54 Tb40 2.366 . S
O54 C62 1.265 . S
C55 O51 1.259 1_565 S
C55 O52 1.265 . S
O56 Eu41 2.479 . S
O56 C71 1.238 . S
O57 Eu41 2.471 1_554 S
O57 C71 1.247 1_554 S
O58 Eu41 2.347 1_554 S
O58 C42 1.259 1_565 S
O59 Tb40 2.418 . S
O59 C42 1.265 . S
O60 Tb40 2.384 1_565 S
O60 C43 1.255 1_554 S
O61 Eu41 2.366 . S
O61 C43 1.264 . S
C62 O53 1.255 1_554 S
C62 O54 1.265 . S
O63 Tb40 2.479 . S
O63 C50 1.238 . S
O64 Tb40 2.471 1_556 S
O64 C50 1.247 1_556 S
C65 C68 1.380 . S
C65 C69 1.374 1_556 S
C65 C71 1.507 . S
C66 C67 1.387 1_554 S
C66 C70 1.391 . S
C67 C66 1.387 1_556 S
C67 C68 1.384 . S
C67 H76 0.930 . S
C68 C65 1.380 . S
C68 C67 1.384 . S
C68 H77 0.931 . S
C69 C65 1.374 1_554 S
C69 C70 1.390 . S
C69 H78 0.930 . S
C70 C66 1.391 . S
C70 C69 1.390 . S
C70 H79 0.930 . S
C71 Eu41 2.825 . S
C71 O56 1.238 . S
C71 O57 1.247 1_556 S
C71 C65 1.507 . S
H72 C45 0.930 . S
H73 C46 0.931 . S
H74 C47 0.930 . S
H75 C48 0.930 . S
H76 C67 0.930 . S
H77 C68 0.931 . S
H78 C69 0.930 . S
H79 C70 0.930 . S
Tb80 C90 2.825 . S
Tb80 O91 2.347 1_556 S
Tb80 O94 2.366 . S
Tb80 O99 2.418 . S
Tb80 O100 2.384 . S
Tb80 O103 2.479 . S
Tb80 O104 2.471 1_556 S
Eu81 O92 2.418 . S
Eu81 O93 2.384 . S
Eu81 O96 2.479 . S
Eu81 O97 2.471 1_554 S
Eu81 O98 2.347 1_554 S
Eu81 O101 2.366 . S
Eu81 C111 2.825 . S
C82 O98 1.259 . S
C82 O99 1.265 . S
C83 O100 1.255 1_554 S
C83 O101 1.265 . S
C84 C86 1.380 . S
C84 C87 1.374 1_556 S
C84 C90 1.507 . S
C85 C86 1.384 . S
C85 C89 1.387 1_556 S
C85 H112 0.930 . S
C86 C84 1.380 . S
C86 C85 1.384 . S
C86 H113 0.931 . S
C87 C84 1.374 1_554 S
C87 C88 1.390 . S
C87 H114 0.930 . S
C88 C87 1.390 . S
C88 C89 1.391 . S
C88 H115 0.930 . S
C89 C85 1.387 1_554 S
C89 C88 1.391 . S
C90 Tb80 2.825 . S
C90 C84 1.507 . S
C90 O103 1.238 . S
C90 O104 1.247 1_556 S
O91 Tb80 2.347 1_554 S
O91 C95 1.259 . S
O92 Eu81 2.418 . S
O92 C95 1.265 . S
O93 Eu81 2.384 . S
O93 C102 1.255 1_554 S
O94 Tb80 2.366 . S
O94 C102 1.265 . S
C95 O91 1.259 . S
C95 O92 1.265 . S
O96 Eu81 2.479 . S
O96 C111 1.238 . S
O97 Eu81 2.471 1_556 S
O97 C111 1.247 1_556 S
O98 Eu81 2.347 1_556 S
O98 C82 1.259 . S
O99 Tb80 2.418 . S
O99 C82 1.265 . S
O100 Tb80 2.384 . S
O100 C83 1.255 1_556 S
O101 Eu81 2.366 . S
O101 C83 1.265 . S
C102 O93 1.255 1_556 S
C102 O94 1.265 . S
O103 Tb80 2.479 . S
O103 C90 1.238 . S
O104 Tb80 2.471 1_554 S
O104 C90 1.247 1_554 S
C105 C108 1.380 . S
C105 C109 1.374 1_554 S
C105 C111 1.507 . S
C106 C107 1.387 1_556 S
C106 C110 1.391 . S
C107 C106 1.387 1_554 S
C107 C108 1.384 . S
C107 H116 0.930 . S
C108 C105 1.380 . S
C108 C107 1.384 . S
C108 H117 0.931 . S
C109 C105 1.374 1_556 S
C109 C110 1.390 . S
C109 H118 0.930 . S
C110 C106 1.391 . S
C110 C109 1.390 . S
C110 H119 0.930 . S
C111 Eu81 2.825 . S
C111 O96 1.238 . S
C111 O97 1.247 1_554 S
C111 C105 1.507 . S
H112 C85 0.930 . S
H113 C86 0.931 . S
H114 C87 0.930 . S
H115 C88 0.930 . S
H116 C107 0.930 . S
H117 C108 0.931 . S
H118 C109 0.930 . S
H119 C110 0.930 . S
C15 C2 1.494 . S
C42 C55 1.426 1_545 S
C82 C95 1.474 . S
C9 C89 1.468 1_556 S
C49 C3 4.567 . S
C43 C102 4.007 . S
C26 C106 1.470 1_554 S
C22 C66 4.567 . S
C83 C62 4.006 . S
