# Generated by pormake.
# Topology acs, (6)-cn, num edge types: 1
# Building blocks:
#     Node 0, Type 0, BuildingBlock: IZENUY_clean_sbu_0, # of connection points: 6
#     Node 1, Type 0, BuildingBlock: IZENUY_clean_sbu_0, # of connection points: 6
#     Edge 2, Type (0, 0), BuildingBlock: ZUJKAS_clean_linker_0, # of connection points: 2
#     Edge 3, Type (0, 0), BuildingBlock: ZUJKAS_clean_linker_0, # of connection points: 2
#     Edge 4, Type (0, 0), BuildingBlock: ZUJKAS_clean_linker_0, # of connection points: 2
#     Edge 5, Type (0, 0), BuildingBlock: ZUJKAS_clean_linker_0, # of connection points: 2
#     Edge 6, Type (0, 0), BuildingBlock: ZUJKAS_clean_linker_0, # of connection points: 2
#     Edge 7, Type (0, 0), BuildingBlock: ZUJKAS_clean_linker_0, # of connection points: 2
# Relax obj value: 0.000
# Max RMSD: 0.012
# Mean RMSD: 0.012
data_MOF--net-acs--node1-IZENUY_clean_sbu_0--edge1-ZUJKAS_clean_linker_0
_symmetry_space_group_name_H-M    P1
_symmetry_Int_Tables_number       1
_symmetry_cell_setting            triclinic
loop_
_symmetry_equiv_pos_as_xyz
'x, y, z'
_cell_length_a     26.9059
_cell_length_b     26.844735
_cell_length_c     26.186024
_cell_angle_alpha  89.98637
_cell_angle_beta   89.989799
_cell_angle_gamma 119.81694
loop_
_atom_site_label
_atom_site_type_symbol
_atom_site_fract_x
_atom_site_fract_y
_atom_site_fract_z
_atom_type_partial_charge
Fe0 Fe 0.6372 0.3274 0.2336 0.0
Fe1 Fe 0.75118 0.3271 0.23352 0.0
O2 O 0.71315 0.3653 0.23348 0.0
Fe3 Fe 0.75102 0.44142 0.2333 0.0
O4 O 0.71834 0.4443 0.29312 0.0
O5 O 0.63025 0.3812 0.27114 0.0
O6 O 0.63468 0.29203 0.29346 0.0
C7 C 0.6585 0.26231 0.30088 0.0
C8 C 0.65812 0.41359 0.1663 0.0
O9 O 0.69787 0.26675 0.2715 0.0
C10 C 0.81592 0.41988 0.1661 0.0
O11 O 0.63017 0.26662 0.19612 0.0
O12 O 0.7182 0.29134 0.17389 0.0
O13 O 0.69741 0.44843 0.19568 0.0
O14 O 0.63443 0.36014 0.17373 0.0
C15 C 0.81645 0.41366 0.30027 0.0
O16 O 0.81143 0.38045 0.19554 0.0
O17 O 0.78636 0.44386 0.17348 0.0
C18 C 0.66486 0.26178 0.1667 0.0
O19 O 0.7869 0.36018 0.29314 0.0
O20 O 0.8116 0.44841 0.27085 0.0
C21 C 0.66501 0.4206 0.30051 0.0
Fe22 Fe 0.45446 0.73638 0.73343 0.0
Fe23 Fe 0.34044 0.73661 0.73361 0.0
O24 O 0.37851 0.69844 0.73358 0.0
Fe25 Fe 0.34067 0.62233 0.73373 0.0
O26 O 0.39431 0.61533 0.77131 0.0
O27 O 0.45728 0.70362 0.79328 0.0
O28 O 0.46147 0.79713 0.77097 0.0
C29 C 0.42678 0.80192 0.80042 0.0
C30 C 0.42667 0.64323 0.66647 0.0
O31 O 0.37344 0.77234 0.79324 0.0
C32 C 0.27518 0.65008 0.66684 0.0
O33 O 0.45693 0.77178 0.6736 0.0
O34 O 0.39372 0.797 0.69564 0.0
O35 O 0.37334 0.6195 0.67388 0.0
O36 O 0.46143 0.68262 0.69584 0.0
C37 C 0.27577 0.64378 0.80099 0.0
O38 O 0.30471 0.70356 0.67399 0.0
O39 O 0.28006 0.61533 0.69622 0.0
C40 C 0.43308 0.80147 0.66623 0.0
O41 O 0.28022 0.68322 0.77158 0.0
O42 O 0.30535 0.61983 0.79358 0.0
C43 C 0.43362 0.65017 0.80068 0.0
H44 H 0.53889 0.87189 0.82602 0.0
H45 H 0.57816 0.94891 0.88901 0.0
H46 H 0.40757 0.91267 0.92762 0.0
H47 H 0.36749 0.8347 0.86485 0.0
H48 H 0.56602 0.04626 0.89071 0.0
H49 H 0.47883 0.91626 0.06711 0.0
H50 H 0.48054 0.88494 0.00659 0.0
H51 H 0.42634 0.9039 0.01899 0.0
C52 C 0.5095 0.8799 0.84804 0.0
C53 C 0.44993 0.84706 0.84029 0.0
C54 C 0.53214 0.92405 0.88402 0.0
C55 C 0.49581 0.93616 0.91326 0.0
C56 C 0.43631 0.90336 0.90601 0.0
H57 H 0.55275 0.19179 0.14111 0.0
H58 H 0.51348 0.11474 0.07815 0.0
C59 C 0.41351 0.859 0.86996 0.0
C60 C 0.52067 0.98447 0.95002 0.0
H61 H 0.52563 1.01738 0.07647 0.0
C62 C 0.55739 0.04 0.93137 0.0
C63 C 0.50929 0.97604 0.00297 0.0
C64 C 0.47202 0.91705 0.02534 0.0
C65 C 0.58236 0.08759 0.96421 0.0
C66 C 0.57098 0.07917 0.01716 0.0
C67 C 0.53426 1.02363 0.03581 0.0
C68 C 0.59584 0.12748 0.05392 0.0
C69 C 0.61964 0.14659 0.94184 0.0
C70 C 0.65534 0.16028 0.06117 0.0
C71 C 0.67814 0.20466 0.0972 0.0
C72 C 0.64171 0.21662 0.12685 0.0
C73 C 0.58214 0.18376 0.1191 0.0
C74 C 0.55951 0.1396 0.08314 0.0
H75 H 0.61283 0.14737 0.90007 0.0
H76 H 0.6111 0.17869 0.96058 0.0
H77 H 0.66531 0.15975 0.9482 0.0
H78 H 0.68407 0.15096 0.03957 0.0
H79 H 0.72415 0.22896 0.10232 0.0
H80 H 0.53851 0.68654 0.63914 0.0
H81 H 0.57783 0.64865 0.57618 0.0
H82 H 0.40761 0.51186 0.54086 0.0
H83 H 0.36748 0.5499 0.60357 0.0
H84 H 0.56811 0.54043 0.57603 0.0
H85 H 0.47528 0.57654 0.39988 0.0
H86 H 0.47726 0.61054 0.45992 0.0
H87 H 0.42403 0.53685 0.44898 0.0
C88 C 0.50921 0.64857 0.61783 0.0
C89 C 0.44975 0.62121 0.6265 0.0
C90 C 0.53187 0.62699 0.58186 0.0
C91 C 0.49565 0.5778 0.55357 0.0
C92 C 0.43624 0.55048 0.56171 0.0
H93 H 0.55317 0.37733 0.32781 0.0
H94 H 0.51386 0.41525 0.39076 0.0
C95 C 0.41341 0.57213 0.59772 0.0
C96 C 0.52059 0.55423 0.51693 0.0
H97 H 0.5236 0.52347 0.39091 0.0
C98 C 0.55857 0.53687 0.5355 0.0
C99 C 0.50803 0.54972 0.46415 0.0
C100 C 0.46933 0.56983 0.44181 0.0
C101 C 0.58367 0.51419 0.50278 0.0
C102 C 0.57111 0.50967 0.45001 0.0
C103 C 0.53313 0.52704 0.43143 0.0
C104 C 0.59605 0.48609 0.41337 0.0
C105 C 0.62237 0.49407 0.52513 0.0
C106 C 0.65546 0.5134 0.40523 0.0
C107 C 0.67828 0.49172 0.36923 0.0
C108 C 0.64193 0.44265 0.34046 0.0
C109 C 0.58247 0.4153 0.34912 0.0
C110 C 0.55982 0.43691 0.38508 0.0
H111 H 0.61641 0.48736 0.56705 0.0
H112 H 0.61444 0.45336 0.50702 0.0
H113 H 0.66767 0.52705 0.51796 0.0
H114 H 0.68409 0.55202 0.42609 0.0
H115 H 0.72421 0.51394 0.36339 0.0
H116 H 0.84986 0.51342 0.10333 0.0
H117 H 0.92731 0.55078 0.04006 0.0
H118 H 0.96134 0.41379 0.07586 0.0
H119 H 0.88412 0.37587 0.13851 0.0
H120 H 0.0444 0.58678 0.05913 0.0
H121 H 0.94901 0.40776 0.91939 0.0
H122 H 0.90704 0.41787 0.96782 0.0
H123 H 0.94969 0.38566 0.98401 0.0
C124 C 0.87348 0.49095 0.0974 0.0
C125 C 0.86076 0.44166 0.12604 0.0
C126 C 0.91774 0.51241 0.06133 0.0
C127 C 0.94953 0.48462 0.05292 0.0
C128 C 0.93666 0.43527 0.08112 0.0
H129 H 0.24189 0.55021 0.86373 0.0
H130 H 0.16448 0.51279 0.92703 0.0
C131 C 0.89265 0.41389 0.11717 0.0
C132 C 0.99785 0.50841 0.01629 0.0
H133 H 0.04738 0.47675 0.90805 0.0
C134 C 0.04496 0.56296 0.02589 0.0
C135 C 0.99852 0.47695 0.97323 0.0
C136 C 0.94818 0.41902 0.9601 0.0
C137 C 0.09325 0.58659 -0.00605 0.0
C138 C 0.09392 0.55513 0.95088 0.0
C139 C 0.04681 0.50057 0.94129 0.0
C140 C 0.14222 0.57894 0.91423 0.0
C141 C 0.1436 0.64451 0.00709 0.0
C142 C 0.15506 0.6283 0.88606 0.0
C143 C 0.19904 0.64971 0.84999 0.0
C144 C 0.23095 0.62197 0.84108 0.0
C145 C 0.21826 0.57266 0.86969 0.0
C146 C 0.17402 0.55117 0.90578 0.0
H147 H 0.14279 0.65575 0.0478 0.0
H148 H 0.18474 0.64567 -0.00066 0.0
H149 H 0.14207 0.67788 0.98321 0.0
H150 H 0.13036 0.64976 0.89136 0.0
H151 H 0.20755 0.68773 0.82868 0.0
H152 H 0.3905 0.87129 0.63963 0.0
H153 H 0.42865 0.9487 0.57699 0.0
H154 H 0.56304 0.91182 0.53928 0.0
H155 H 0.52548 0.83422 0.60256 0.0
H156 H 0.60114 0.02935 0.55827 0.0
H157 H 0.42029 0.93638 0.42072 0.0
H158 H 0.39944 0.93782 0.48561 0.0
H159 H 0.42996 0.89377 0.46886 0.0
C160 C 0.42799 0.87923 0.61787 0.0
C161 C 0.45497 0.84648 0.62621 0.0
C162 C 0.4495 0.92335 0.58182 0.0
C163 C 0.49818 0.93547 0.55308 0.0
C164 C 0.52519 0.90285 0.56098 0.0
H165 H 0.70101 0.19247 0.32757 0.0
H166 H 0.66281 0.11509 0.39025 0.0
C167 C 0.50362 0.8585 0.59706 0.0
C168 C 0.52211 0.98386 0.51639 0.0
H169 H 0.4903 0.03452 0.40893 0.0
C170 C 0.57713 0.03039 0.52541 0.0
C171 C 0.49042 0.98516 0.47382 0.0
C172 C 0.43195 0.93542 0.46127 0.0
C173 C 0.60102 0.07872 0.49338 0.0
C174 C 0.56933 0.08001 0.4508 0.0
C175 C 0.51431 0.03349 0.44179 0.0
C176 C 0.59329 0.12838 0.41409 0.0
C177 C 0.65949 0.12846 0.50594 0.0
C178 C 0.56631 0.16102 0.40614 0.0
C179 C 0.58792 0.20535 0.37004 0.0
C180 C 0.63657 0.21732 0.34092 0.0
C181 C 0.66352 0.18456 0.3493 0.0
C182 C 0.64198 0.14046 0.38537 0.0
H183 H 0.67112 0.12752 0.5465 0.0
H184 H 0.692 0.12604 0.48163 0.0
H185 H 0.66148 0.17011 0.49831 0.0
H186 H 0.52846 0.15208 0.42782 0.0
H187 H 0.56607 0.22965 0.36451 0.0
H188 H 0.39108 0.53797 0.82735 0.0
H189 H 0.42914 0.49862 0.89005 0.0
H190 H 0.56355 0.66945 0.92764 0.0
H191 H 0.52607 0.7096 0.86427 0.0
H192 H 0.60156 0.58972 0.90885 0.0
H193 H 0.4205 0.50276 0.04627 0.0
H194 H 0.39968 0.4805 0.98139 0.0
H195 H 0.43033 0.55501 -0.00194 0.0
C196 C 0.42856 0.56741 0.84908 0.0
C197 C 0.45556 0.62704 0.84069 0.0
C198 C 0.45002 0.54474 0.88517 0.0
C199 C 0.49866 0.58115 0.91391 0.0
C200 C 0.52572 0.64069 0.90595 0.0
H201 H 0.70071 0.52578 0.13959 0.0
H202 H 0.66268 0.56513 0.07686 0.0
C203 C 0.5042 0.66353 0.86981 0.0
C204 C 0.52247 0.55658 0.95067 0.0
H205 H 0.49024 0.47404 0.05807 0.0
C206 C 0.57745 0.56475 0.94169 0.0
C207 C 0.49064 0.52369 -0.0068 0.0
C208 C 0.43221 0.51529 0.00571 0.0
C209 C 0.60115 0.54006 0.97372 0.0
C210 C 0.56932 0.50717 0.01626 0.0
C211 C 0.51435 0.499 0.02523 0.0
C212 C 0.59314 0.48261 0.05302 0.0
C213 C 0.65959 0.54846 0.96121 0.0
C214 C 0.56606 0.42306 0.06099 0.0
C215 C 0.58757 0.40022 0.09714 0.0
C216 C 0.6362 0.43671 0.12627 0.0
C217 C 0.66322 0.49634 0.11786 0.0
C218 C 0.64178 0.51901 0.08175 0.0
H219 H 0.67129 0.56098 0.92065 0.0
H220 H 0.69212 0.58326 -0.01448 0.0
H221 H 0.66147 0.50874 0.96887 0.0
H222 H 0.52822 0.39431 0.0393 0.0
H223 H 0.56568 0.35415 0.1027 0.0
H224 H 0.24077 0.70929 0.60386 0.0
H225 H 0.16199 0.66882 0.54194 0.0
H226 H 0.12908 0.49831 0.5779 0.0
H227 H 0.20686 0.53791 0.63995 0.0
H228 H 0.14549 0.59869 0.45566 0.0
H229 H 0.97241 0.48639 0.59865 0.0
H230 H 0.04386 0.54133 0.61604 0.0
H231 H 1.02903 0.46952 0.60273 0.0
C232 C 0.21679 0.66319 0.59856 0.0
C233 C 0.22977 0.62684 0.62731 0.0
C234 C 0.17182 0.64017 0.56321 0.0
C235 C 0.13903 0.58052 0.55619 0.0
C236 C 0.15296 0.54435 0.58367 0.0
H237 H 0.85084 0.35445 0.36327 0.0
H238 H 0.92961 0.39494 0.4252 0.0
C239 C 0.19771 0.5672 0.61896 0.0
C240 C 0.09054 0.55585 0.51974 0.0
H241 H 0.94612 0.46507 0.51145 0.0
C242 C 0.10184 0.56975 0.46783 0.0
C243 C 1.03371 0.5179 0.53581 0.0
C244 C 1.01875 0.50321 0.59139 0.0
C245 C 0.0579 0.54587 0.43131 0.0
C246 C 1.00107 0.50791 0.44738 0.0
C247 C 0.98977 0.49401 0.49929 0.0
C248 C 0.95259 0.48323 0.41093 0.0
C249 C 0.07287 0.56055 0.37572 0.0
C250 C 0.93866 0.5194 0.38343 0.0
C251 C 0.89392 0.49655 0.34814 0.0
C252 C 0.86185 0.43691 0.3398 0.0
C253 C 0.87482 0.40056 0.36856 0.0
C254 C 0.91979 0.42358 0.40392 0.0
H255 H 0.11921 0.57736 0.36847 0.0
H256 H 0.04775 0.52243 0.35108 0.0
H257 H 0.0626 0.59424 0.36438 0.0
H258 H 0.96254 0.56544 0.38919 0.0
H259 H 0.88477 0.52583 0.32714 0.0
loop_
_geom_bond_atom_site_label_1
_geom_bond_atom_site_label_2
_geom_bond_distance
_geom_bond_site_symmetry_2
_ccdc_geom_bond_type
Fe0 O2 1.918 . S
Fe0 O5 1.997 . S
Fe0 O6 2.002 . S
Fe0 O11 1.976 . S
Fe0 O14 1.996 . S
Fe1 O2 1.918 . S
Fe1 O9 1.997 . S
Fe1 O12 1.996 . S
Fe1 O16 1.976 . S
Fe1 O19 2.002 . S
O2 Fe0 1.918 . S
O2 Fe1 1.918 . S
O2 Fe3 1.918 . S
Fe3 O2 1.918 . S
Fe3 O4 2.002 . S
Fe3 O13 1.976 . S
Fe3 O17 1.996 . S
Fe3 O20 1.997 . S
O4 Fe3 2.002 . S
O4 C21 1.295 . S
O5 Fe0 1.997 . S
O5 C21 1.235 . S
O6 Fe0 2.002 . S
O6 C7 1.295 . S
C7 O6 1.295 . S
C7 O9 1.235 . S
C8 O13 1.287 . S
C8 O14 1.255 . S
O9 Fe1 1.997 . S
O9 C7 1.235 . S
C10 O16 1.287 . S
C10 O17 1.255 . S
O11 Fe0 1.976 . S
O11 C18 1.287 . S
O12 Fe1 1.996 . S
O12 C18 1.255 . S
O13 Fe3 1.976 . S
O13 C8 1.287 . S
O14 Fe0 1.996 . S
O14 C8 1.255 . S
C15 O19 1.295 . S
C15 O20 1.235 . S
O16 Fe1 1.976 . S
O16 C10 1.287 . S
O17 Fe3 1.996 . S
O17 C10 1.255 . S
C18 O11 1.287 . S
C18 O12 1.255 . S
O19 Fe1 2.002 . S
O19 C15 1.295 . S
O20 Fe3 1.997 . S
O20 C15 1.235 . S
C21 O4 1.295 . S
C21 O5 1.235 . S
Fe22 O24 1.918 . S
Fe22 O27 1.997 . S
Fe22 O28 2.002 . S
Fe22 O33 1.976 . S
Fe22 O36 1.996 . S
Fe23 O24 1.918 . S
Fe23 O31 1.997 . S
Fe23 O34 1.996 . S
Fe23 O38 1.976 . S
Fe23 O41 2.002 . S
O24 Fe22 1.918 . S
O24 Fe23 1.918 . S
O24 Fe25 1.918 . S
Fe25 O24 1.918 . S
Fe25 O26 2.002 . S
Fe25 O35 1.976 . S
Fe25 O39 1.996 . S
Fe25 O42 1.997 . S
O26 Fe25 2.002 . S
O26 C43 1.295 . S
O27 Fe22 1.997 . S
O27 C43 1.235 . S
O28 Fe22 2.002 . S
O28 C29 1.295 . S
C29 O28 1.295 . S
C29 O31 1.235 . S
C30 O35 1.287 . S
C30 O36 1.255 . S
O31 Fe23 1.997 . S
O31 C29 1.235 . S
C32 O38 1.287 . S
C32 O39 1.255 . S
O33 Fe22 1.976 . S
O33 C40 1.287 . S
O34 Fe23 1.996 . S
O34 C40 1.255 . S
O35 Fe25 1.976 . S
O35 C30 1.287 . S
O36 Fe22 1.996 . S
O36 C30 1.255 . S
C37 O41 1.295 . S
C37 O42 1.235 . S
O38 Fe23 1.976 . S
O38 C32 1.287 . S
O39 Fe25 1.996 . S
O39 C32 1.255 . S
C40 O33 1.287 . S
C40 O34 1.255 . S
O41 Fe23 2.002 . S
O41 C37 1.295 . S
O42 Fe25 1.997 . S
O42 C37 1.235 . S
C43 O26 1.295 . S
C43 O27 1.235 . S
H44 C52 0.929 . S
H45 C54 0.930 . S
H46 C56 0.930 . S
H47 C59 0.929 . S
H48 C62 0.926 . S
H49 C64 0.960 . S
H50 C64 0.960 . S
H51 C64 0.960 . S
C52 H44 0.929 . S
C52 C53 1.377 . S
C52 C54 1.384 . S
C53 C52 1.377 . S
C53 C59 1.390 . S
C54 H45 0.930 . S
C54 C52 1.384 . S
C54 C55 1.372 . S
C55 C54 1.372 . S
C55 C56 1.400 . S
C55 C60 1.490 . S
C56 H46 0.930 . S
C56 C55 1.400 . S
C56 C59 1.386 . S
H57 C73 0.930 . S
H58 C74 0.931 . S
C59 H47 0.929 . S
C59 C53 1.390 . S
C59 C56 1.386 . S
C60 C55 1.490 . S
C60 C62 1.395 1_565 S
C60 C63 1.403 1_556 S
H61 C67 0.930 . S
C62 H48 0.926 . S
C62 C60 1.395 1_545 S
C62 C65 1.403 . S
C63 C60 1.403 1_554 S
C63 C64 1.524 . S
C63 C67 1.400 1_565 S
C64 H49 0.960 . S
C64 H50 0.960 . S
C64 H51 0.960 . S
C64 C63 1.524 . S
C65 C62 1.403 . S
C65 C66 1.392 1_556 S
C65 C69 1.495 . S
C66 C65 1.392 1_554 S
C66 C67 1.385 . S
C66 C68 1.478 . S
C67 H61 0.930 . S
C67 C63 1.400 1_545 S
C67 C66 1.385 . S
C68 C66 1.478 . S
C68 C70 1.381 . S
C68 C74 1.383 . S
C69 C65 1.495 . S
C69 H75 0.959 . S
C69 H76 0.961 . S
C69 H77 0.960 . S
C70 C68 1.381 . S
C70 C71 1.394 . S
C70 H78 0.930 . S
C71 C70 1.394 . S
C71 C72 1.383 . S
C71 H79 0.929 . S
C72 C71 1.383 . S
C72 C73 1.377 . S
C73 H57 0.930 . S
C73 C72 1.377 . S
C73 C74 1.379 . S
C74 H58 0.931 . S
C74 C68 1.383 . S
C74 C73 1.379 . S
H75 C69 0.959 . S
H76 C69 0.961 . S
H77 C69 0.960 . S
H78 C70 0.930 . S
H79 C71 0.929 . S
H80 C88 0.929 . S
H81 C90 0.930 . S
H82 C92 0.930 . S
H83 C95 0.929 . S
H84 C98 0.930 . S
H85 C100 0.960 . S
H86 C100 0.960 . S
H87 C100 0.960 . S
C88 H80 0.929 . S
C88 C89 1.377 . S
C88 C90 1.384 . S
C89 C88 1.377 . S
C89 C95 1.390 . S
C90 H81 0.930 . S
C90 C88 1.384 . S
C90 C91 1.372 . S
C91 C90 1.372 . S
C91 C92 1.400 . S
C91 C96 1.490 . S
C92 H82 0.930 . S
C92 C91 1.400 . S
C92 C95 1.386 . S
H93 C109 0.930 . S
H94 C110 0.931 . S
C95 H83 0.929 . S
C95 C89 1.390 . S
C95 C92 1.386 . S
C96 C91 1.490 . S
C96 C98 1.395 . S
C96 C99 1.403 . S
H97 C103 0.930 . S
C98 H84 0.930 . S
C98 C96 1.395 . S
C98 C101 1.403 . S
C99 C96 1.403 . S
C99 C100 1.524 . S
C99 C103 1.400 . S
C100 H85 0.960 . S
C100 H86 0.960 . S
C100 H87 0.960 . S
C100 C99 1.524 . S
C101 C98 1.403 . S
C101 C102 1.392 . S
C101 C105 1.495 . S
C102 C101 1.392 . S
C102 C103 1.385 . S
C102 C104 1.478 . S
C103 H97 0.930 . S
C103 C99 1.400 . S
C103 C102 1.385 . S
C104 C102 1.478 . S
C104 C106 1.381 . S
C104 C110 1.383 . S
C105 C101 1.495 . S
C105 H111 0.959 . S
C105 H112 0.961 . S
C105 H113 0.960 . S
C106 C104 1.381 . S
C106 C107 1.394 . S
C106 H114 0.930 . S
C107 C106 1.394 . S
C107 C108 1.383 . S
C107 H115 0.929 . S
C108 C107 1.383 . S
C108 C109 1.377 . S
C109 H93 0.930 . S
C109 C108 1.377 . S
C109 C110 1.379 . S
C110 H94 0.931 . S
C110 C104 1.383 . S
C110 C109 1.379 . S
H111 C105 0.959 . S
H112 C105 0.961 . S
H113 C105 0.960 . S
H114 C106 0.930 . S
H115 C107 0.929 . S
H116 C124 0.929 . S
H117 C126 0.930 . S
H118 C128 0.930 . S
H119 C131 0.929 . S
H120 C134 0.930 . S
H121 C136 0.960 . S
H122 C136 0.960 . S
H123 C136 0.960 1_554 S
C124 H116 0.929 . S
C124 C125 1.377 . S
C124 C126 1.384 . S
C125 C124 1.377 . S
C125 C131 1.390 . S
C126 H117 0.930 . S
C126 C124 1.384 . S
C126 C127 1.372 . S
C127 C126 1.372 . S
C127 C128 1.400 . S
C127 C132 1.490 . S
C128 H118 0.930 . S
C128 C127 1.400 . S
C128 C131 1.386 . S
H129 C145 0.930 . S
H130 C146 0.931 . S
C131 H119 0.929 . S
C131 C125 1.390 . S
C131 C128 1.386 . S
C132 C127 1.490 . S
C132 C134 1.395 . S
C132 C135 1.403 1_554 S
H133 C139 0.930 . S
C134 H120 0.930 . S
C134 C132 1.395 . S
C134 C137 1.403 1_655 S
C135 C132 1.403 1_556 S
C135 C136 1.524 . S
C135 C139 1.400 1_655 S
C136 H121 0.960 . S
C136 H122 0.960 . S
C136 H123 0.960 1_556 S
C136 C135 1.524 . S
C137 C134 1.403 1_455 S
C137 C138 1.392 1_554 S
C137 C141 1.495 . S
C138 C137 1.392 1_556 S
C138 C139 1.385 . S
C138 C140 1.478 . S
C139 H133 0.930 . S
C139 C135 1.400 1_455 S
C139 C138 1.385 . S
C140 C138 1.478 . S
C140 C142 1.381 . S
C140 C146 1.383 . S
C141 C137 1.495 . S
C141 H147 0.959 . S
C141 H148 0.961 . S
C141 H149 0.960 1_554 S
C142 C140 1.381 . S
C142 C143 1.394 . S
C142 H150 0.930 . S
C143 C142 1.394 . S
C143 C144 1.383 . S
C143 H151 0.929 . S
C144 C143 1.383 . S
C144 C145 1.377 . S
C145 H129 0.930 . S
C145 C144 1.377 . S
C145 C146 1.379 . S
C146 H130 0.931 . S
C146 C140 1.383 . S
C146 C145 1.379 . S
H147 C141 0.959 . S
H148 C141 0.961 . S
H149 C141 0.960 1_556 S
H150 C142 0.930 . S
H151 C143 0.929 . S
H152 C160 0.929 . S
H153 C162 0.930 . S
H154 C164 0.930 . S
H155 C167 0.929 . S
H156 C170 0.930 . S
H157 C172 0.960 . S
H158 C172 0.960 . S
H159 C172 0.960 . S
C160 H152 0.929 . S
C160 C161 1.377 . S
C160 C162 1.384 . S
C161 C160 1.377 . S
C161 C167 1.390 . S
C162 H153 0.930 . S
C162 C160 1.384 . S
C162 C163 1.372 . S
C163 C162 1.372 . S
C163 C164 1.400 . S
C163 C168 1.490 . S
C164 H154 0.930 . S
C164 C163 1.400 . S
C164 C167 1.386 . S
H165 C181 0.930 . S
H166 C182 0.931 . S
C167 H155 0.929 . S
C167 C161 1.390 . S
C167 C164 1.386 . S
C168 C163 1.490 . S
C168 C170 1.395 . S
C168 C171 1.403 . S
H169 C175 0.930 . S
C170 H156 0.930 . S
C170 C168 1.395 . S
C170 C173 1.403 1_565 S
C171 C168 1.403 . S
C171 C172 1.524 . S
C171 C175 1.400 1_565 S
C172 H157 0.960 . S
C172 H158 0.960 . S
C172 H159 0.960 . S
C172 C171 1.524 . S
C173 C170 1.403 1_545 S
C173 C174 1.392 . S
C173 C177 1.495 . S
C174 C173 1.392 . S
C174 C175 1.385 . S
C174 C176 1.478 . S
C175 H169 0.930 . S
C175 C171 1.400 1_545 S
C175 C174 1.385 . S
C176 C174 1.478 . S
C176 C178 1.381 . S
C176 C182 1.383 . S
C177 C173 1.495 . S
C177 H183 0.959 . S
C177 H184 0.961 . S
C177 H185 0.960 . S
C178 C176 1.381 . S
C178 C179 1.394 . S
C178 H186 0.930 . S
C179 C178 1.394 . S
C179 C180 1.383 . S
C179 H187 0.929 . S
C180 C179 1.383 . S
C180 C181 1.377 . S
C181 H165 0.930 . S
C181 C180 1.377 . S
C181 C182 1.379 . S
C182 H166 0.931 . S
C182 C176 1.383 . S
C182 C181 1.379 . S
H183 C177 0.959 . S
H184 C177 0.961 . S
H185 C177 0.960 . S
H186 C178 0.930 . S
H187 C179 0.929 . S
H188 C196 0.929 . S
H189 C198 0.930 . S
H190 C200 0.930 . S
H191 C203 0.929 . S
H192 C206 0.930 . S
H193 C208 0.960 1_554 S
H194 C208 0.960 . S
H195 C208 0.963 . S
C196 H188 0.929 . S
C196 C197 1.377 . S
C196 C198 1.384 . S
C197 C196 1.377 . S
C197 C203 1.390 . S
C198 H189 0.930 . S
C198 C196 1.384 . S
C198 C199 1.372 . S
C199 C198 1.372 . S
C199 C200 1.400 . S
C199 C204 1.490 . S
C200 H190 0.930 . S
C200 C199 1.400 . S
C200 C203 1.386 . S
H201 C217 0.930 . S
H202 C218 0.931 . S
C203 H191 0.929 . S
C203 C197 1.390 . S
C203 C200 1.386 . S
C204 C199 1.490 . S
C204 C206 1.395 . S
C204 C207 1.403 . S
H205 C211 0.930 . S
C206 H192 0.930 . S
C206 C204 1.395 . S
C206 C209 1.400 1_556 S
C207 C204 1.403 . S
C207 C208 1.524 . S
C207 C211 1.400 1_556 S
C208 H193 0.960 1_556 S
C208 H194 0.960 . S
C208 H195 0.963 . S
C208 C207 1.524 . S
C209 C206 1.400 1_554 S
C209 C210 1.395 . S
C209 C213 1.495 . S
C210 C209 1.395 . S
C210 C211 1.385 . S
C210 C212 1.478 . S
C211 H205 0.930 . S
C211 C207 1.400 1_554 S
C211 C210 1.385 . S
C212 C210 1.478 . S
C212 C214 1.381 . S
C212 C218 1.383 . S
C213 C209 1.495 . S
C213 H219 0.959 1_554 S
C213 H220 0.961 . S
C213 H221 0.960 1_554 S
C214 C212 1.381 . S
C214 C215 1.394 . S
C214 H222 0.930 . S
C215 C214 1.394 . S
C215 C216 1.383 . S
C215 H223 0.929 . S
C216 C215 1.383 . S
C216 C217 1.377 . S
C217 H201 0.930 . S
C217 C216 1.377 . S
C217 C218 1.379 . S
C218 H202 0.931 . S
C218 C212 1.383 . S
C218 C217 1.379 . S
H219 C213 0.959 1_556 S
H220 C213 0.961 . S
H221 C213 0.960 1_556 S
H222 C214 0.930 . S
H223 C215 0.929 . S
H224 C232 0.929 . S
H225 C234 0.930 . S
H226 C236 0.930 . S
H227 C239 0.929 . S
H228 C242 0.930 . S
H229 C244 0.960 . S
H230 C244 0.960 . S
H231 C244 0.960 1_455 S
C232 H224 0.929 . S
C232 C233 1.377 . S
C232 C234 1.384 . S
C233 C232 1.377 . S
C233 C239 1.390 . S
C234 H225 0.930 . S
C234 C232 1.384 . S
C234 C235 1.372 . S
C235 C234 1.372 . S
C235 C236 1.400 . S
C235 C240 1.490 . S
C236 H226 0.930 . S
C236 C235 1.400 . S
C236 C239 1.386 . S
H237 C253 0.930 . S
H238 C254 0.931 . S
C239 H227 0.929 . S
C239 C233 1.390 . S
C239 C236 1.386 . S
C240 C235 1.490 . S
C240 C242 1.395 . S
C240 C243 1.403 1_455 S
H241 C247 0.930 . S
C242 H228 0.930 . S
C242 C240 1.395 . S
C242 C245 1.403 . S
C243 C240 1.403 1_655 S
C243 C244 1.524 . S
C243 C247 1.400 . S
C244 H229 0.960 . S
C244 H230 0.960 . S
C244 H231 0.960 1_655 S
C244 C243 1.524 . S
C245 C242 1.403 . S
C245 C246 1.392 1_455 S
C245 C249 1.495 . S
C246 C245 1.392 1_655 S
C246 C247 1.385 . S
C246 C248 1.478 . S
C247 H241 0.930 . S
C247 C243 1.400 . S
C247 C246 1.385 . S
C248 C246 1.478 . S
C248 C250 1.381 . S
C248 C254 1.383 . S
C249 C245 1.495 . S
C249 H255 0.959 . S
C249 H256 0.961 . S
C249 H257 0.960 1_455 S
C250 C248 1.381 . S
C250 C251 1.394 . S
C250 H258 0.930 . S
C251 C250 1.394 . S
C251 C252 1.383 . S
C251 H259 0.929 . S
C252 C251 1.383 . S
C252 C253 1.377 . S
C253 H237 0.930 . S
C253 C252 1.377 . S
C253 C254 1.379 . S
C254 H238 0.931 . S
C254 C248 1.383 . S
C254 C253 1.379 . S
H255 C249 0.959 . S
H256 C249 0.961 . S
H257 C249 0.960 1_655 S
H258 C250 0.930 . S
H259 C251 0.929 . S
C53 C29 1.487 . S
C72 C18 1.499 . S
C89 C30 1.498 . S
C108 C21 1.497 . S
C125 C10 1.499 . S
C144 C37 1.493 . S
C161 C40 1.497 . S
C180 C7 1.490 . S
C197 C43 1.486 . S
C216 C8 1.497 . S
C233 C32 1.497 . S
C252 C15 1.474 . S
