# Generated by pormake.
# Topology uob, (4)-cn, num edge types: 1
# Building blocks:
#     Node 0, Type 0, BuildingBlock: QUQFOY_clean_sbu_1, # of connection points: 4
#     Node 1, Type 0, BuildingBlock: QUQFOY_clean_sbu_1, # of connection points: 4
#     Node 2, Type 0, BuildingBlock: QUQFOY_clean_sbu_1, # of connection points: 4
#     Node 3, Type 0, BuildingBlock: QUQFOY_clean_sbu_1, # of connection points: 4
#     Node 4, Type 0, BuildingBlock: QUQFOY_clean_sbu_1, # of connection points: 4
#     Node 5, Type 0, BuildingBlock: QUQFOY_clean_sbu_1, # of connection points: 4
#     Node 6, Type 0, BuildingBlock: QUQFOY_clean_sbu_1, # of connection points: 4
#     Node 7, Type 0, BuildingBlock: QUQFOY_clean_sbu_1, # of connection points: 4
#     Node 8, Type 0, BuildingBlock: QUQFOY_clean_sbu_1, # of connection points: 4
#     Node 9, Type 0, BuildingBlock: QUQFOY_clean_sbu_1, # of connection points: 4
#     Node 10, Type 0, BuildingBlock: QUQFOY_clean_sbu_1, # of connection points: 4
#     Node 11, Type 0, BuildingBlock: QUQFOY_clean_sbu_1, # of connection points: 4
#     Node 12, Type 0, BuildingBlock: QUQFOY_clean_sbu_1, # of connection points: 4
#     Node 13, Type 0, BuildingBlock: QUQFOY_clean_sbu_1, # of connection points: 4
#     Node 14, Type 0, BuildingBlock: QUQFOY_clean_sbu_1, # of connection points: 4
#     Node 15, Type 0, BuildingBlock: QUQFOY_clean_sbu_1, # of connection points: 4
#     Edge 16, Type (0, 0), None
#     Edge 17, Type (0, 0), None
#     Edge 18, Type (0, 0), None
#     Edge 19, Type (0, 0), None
#     Edge 20, Type (0, 0), None
#     Edge 21, Type (0, 0), None
#     Edge 22, Type (0, 0), None
#     Edge 23, Type (0, 0), None
#     Edge 24, Type (0, 0), None
#     Edge 25, Type (0, 0), None
#     Edge 26, Type (0, 0), None
#     Edge 27, Type (0, 0), None
#     Edge 28, Type (0, 0), None
#     Edge 29, Type (0, 0), None
#     Edge 30, Type (0, 0), None
#     Edge 31, Type (0, 0), None
#     Edge 32, Type (0, 0), None
#     Edge 33, Type (0, 0), None
#     Edge 34, Type (0, 0), None
#     Edge 35, Type (0, 0), None
#     Edge 36, Type (0, 0), None
#     Edge 37, Type (0, 0), None
#     Edge 38, Type (0, 0), None
#     Edge 39, Type (0, 0), None
#     Edge 40, Type (0, 0), None
#     Edge 41, Type (0, 0), None
#     Edge 42, Type (0, 0), None
#     Edge 43, Type (0, 0), None
#     Edge 44, Type (0, 0), None
#     Edge 45, Type (0, 0), None
#     Edge 46, Type (0, 0), None
#     Edge 47, Type (0, 0), None
# Relax obj value: 0.027
# Max RMSD: 0.120
# Mean RMSD: 0.120
data_MOF--net-uob--node1-QUQFOY_clean_sbu_1--edge1-none
_symmetry_space_group_name_H-M    P1
_symmetry_Int_Tables_number       1
_symmetry_cell_setting            triclinic
loop_
_symmetry_equiv_pos_as_xyz
'x, y, z'
_cell_length_a     25.310741
_cell_length_b     25.310385
_cell_length_c     12.57105
_cell_angle_alpha  89.977265
_cell_angle_beta   90.00887
_cell_angle_gamma 89.998642
loop_
_atom_site_label
_atom_site_type_symbol
_atom_site_fract_x
_atom_site_fract_y
_atom_site_fract_z
_atom_type_partial_charge
O0 O 0.17498 0.10309 0.54064 0.0
Cd1 Cd 0.17652 0.04649 0.42642 0.0
Cd2 Cd 0.13613 0.13639 0.32922 0.0
O3 O 0.16345 0.17851 0.45766 0.0
O4 O 0.21922 0.9948 0.51162 0.0
O5 O 0.24733 1.03195 0.36268 0.0
C6 C 0.25765 1.00509 0.44772 0.0
C7 C 0.15286 0.15229 0.15088 0.0
C8 C 0.17288 0.153 0.54258 0.0
C9 C 0.06169 0.04633 0.36936 0.0
O10 O 0.06685 0.09581 0.35645 0.0
O11 O 0.1021 1.01681 0.38423 0.0
O12 O 0.121 0.18225 0.20371 0.0
O13 O 0.17859 0.11601 0.20165 0.0
O14 O 0.96661 0.67532 0.79036 0.0
Cd15 Cd 1.02323 0.67676 0.67615 0.0
Cd16 Cd 0.93327 0.63639 0.5791 0.0
O17 O 0.89118 0.66373 0.70755 0.0
O18 O 0.07497 0.71931 0.76144 0.0
O19 O 0.03796 0.74756 0.61246 0.0
C20 C 0.06478 0.7578 0.69757 0.0
C21 C 0.91744 0.65319 0.40075 0.0
C22 C 0.91671 0.67322 0.7924 0.0
C23 C 1.02329 0.56189 0.61929 0.0
O24 O 0.97381 0.56707 0.60639 0.0
O25 O 0.05283 0.60229 0.6341 0.0
O26 O 0.88745 0.62134 0.45354 0.0
O27 O 0.95372 0.67888 0.45157 0.0
O28 O 0.39479 0.4668 1.04064 0.0
Cd29 Cd 0.39326 0.52342 0.92635 0.0
Cd30 Cd 0.43366 0.4335 0.82931 0.0
O31 O 0.40634 0.39139 0.95781 0.0
O32 O 0.35061 0.57513 1.01151 0.0
O33 O 0.32244 0.53803 0.86261 0.0
C34 C 0.31216 0.56488 0.94762 0.0
C35 C 0.41693 0.41759 0.65099 0.0
C36 C 0.3969 0.4169 1.04268 0.0
C37 C 0.5081 0.52356 0.86934 0.0
O38 O 0.50294 0.47408 0.85651 0.0
O39 O 0.46769 0.55308 0.88415 0.0
O40 O 0.44879 0.38763 0.70389 0.0
O41 O 0.3912 0.45387 0.70168 0.0
O42 O 0.60306 0.89483 0.29076 0.0
Cd43 Cd 0.54647 0.8933 0.17645 0.0
Cd44 Cd 0.63638 0.93369 0.0794 0.0
O45 O 0.67848 0.90636 0.20791 0.0
O46 O 0.49476 0.85061 0.26157 0.0
O47 O 0.53193 0.8225 0.11269 0.0
C48 C 0.50506 0.81218 0.19769 0.0
C49 C 0.65226 0.91695 0.90108 0.0
C50 C 0.65295 0.89693 0.29279 0.0
C51 C 0.54633 1.00814 0.11938 0.0
O52 O 0.59581 1.00298 0.10656 0.0
O53 O 0.5168 0.96774 0.1342 0.0
O54 O 0.68223 0.9488 0.95392 0.0
O55 O 0.61598 0.89123 0.95184 0.0
O56 O 0.17482 0.46711 0.8944 0.0
Cd57 Cd 0.17646 0.52373 1.00858 0.0
Cd58 Cd 0.13606 0.43387 0.10588 0.0
O59 O 0.16333 0.39172 0.97747 0.0
O60 O 0.21923 0.57535 0.92341 0.0
O61 O 0.24729 0.53812 0.07238 0.0
C62 C 0.25764 0.56496 0.98733 0.0
C63 C 0.15273 0.4179 0.28423 0.0
C64 C 0.17271 0.41721 0.89251 0.0
C65 C 0.06166 0.52397 0.06567 0.0
O66 O 0.0668 0.4745 0.0786 0.0
O67 O 0.10207 0.55348 0.05079 0.0
O68 O 0.12086 0.38799 0.23131 0.0
O69 O 0.17851 0.45417 0.23355 0.0
O70 O 0.60298 0.67501 0.14432 0.0
Cd71 Cd 0.54642 0.67653 0.25863 0.0
Cd72 Cd 0.63633 0.63616 0.35569 0.0
O73 O 0.67842 0.66351 0.2272 0.0
O74 O 0.4947 0.71924 0.17354 0.0
O75 O 0.53193 0.74733 0.32245 0.0
C76 C 0.50505 0.75766 0.23744 0.0
C77 C 0.65221 0.65291 0.53401 0.0
C78 C 0.65288 0.67294 0.14231 0.0
C79 C 0.5463 0.56169 0.31567 0.0
O80 O 0.59578 0.56686 0.32849 0.0
O81 O 0.51676 0.6021 0.30087 0.0
O82 O 0.68218 0.62106 0.48121 0.0
O83 O 0.61592 0.67862 0.48322 0.0
O84 O 0.39484 0.10303 0.39427 0.0
Cd85 Cd 0.3933 0.04644 0.50861 0.0
Cd86 Cd 0.43368 0.13635 0.60562 0.0
O87 O 0.40634 0.17845 0.4771 0.0
O88 O 0.35059 0.99474 0.42355 0.0
O89 O 0.32249 1.03195 0.57244 0.0
C90 C 0.31217 1.00508 0.48745 0.0
C91 C 0.41695 0.15224 0.78393 0.0
C92 C 0.39692 0.15293 0.39223 0.0
C93 C 0.50813 0.0463 0.56565 0.0
O94 O 0.50297 0.09578 0.57844 0.0
O95 O 0.46772 1.01677 0.55087 0.0
O96 O 0.4488 0.18221 0.73106 0.0
O97 O 0.39122 0.11596 0.73322 0.0
O98 O 0.96679 0.89489 0.64448 0.0
Cd99 Cd 1.02341 0.89337 0.75873 0.0
Cd100 Cd 0.93348 0.93374 0.8558 0.0
O101 O 0.89137 0.9064 0.72734 0.0
O102 O 0.07511 0.85075 0.67352 0.0
O103 O 0.038 0.82255 0.82247 0.0
C104 C 0.06483 0.81229 0.7374 0.0
C105 C 0.91759 0.91699 1.03414 0.0
C106 C 0.91689 0.89697 0.64246 0.0
C107 C 1.02352 1.0082 0.81567 0.0
O108 O 0.97404 1.00303 0.82852 0.0
O109 O 0.05305 0.9678 0.80089 0.0
O110 O 0.88763 0.94884 0.98125 0.0
O111 O 0.95388 0.89127 0.98342 0.0
O112 O 0.67505 0.6031 1.04044 0.0
Cd113 Cd 0.67654 0.5465 0.92622 0.0
Cd114 Cd 0.63606 0.63646 0.82911 0.0
O115 O 0.66337 0.67856 0.95758 0.0
O116 O 0.71923 0.49482 1.01145 0.0
O117 O 0.74735 0.53194 0.86249 0.0
C118 C 0.75768 0.50512 0.94758 0.0
C119 C 0.65278 0.65233 0.65078 0.0
C120 C 0.67291 0.653 1.0424 0.0
C121 C 0.56168 0.54635 0.86929 0.0
O122 O 0.56682 0.59583 0.85638 0.0
O123 O 0.60209 0.51683 0.88413 0.0
O124 O 0.62091 0.68229 0.70358 0.0
O125 O 0.67854 0.61607 0.70157 0.0
O126 O 0.46677 0.17512 0.29035 0.0
Cd127 Cd 0.52341 0.1766 0.17618 0.0
Cd128 Cd 0.43344 0.13612 0.07904 0.0
O129 O 0.39133 0.16342 0.20749 0.0
O130 O 0.5751 0.2192 0.26148 0.0
O131 O 0.53808 0.24742 0.11248 0.0
C132 C 0.56488 0.25768 0.19759 0.0
C133 C 0.41754 0.15283 0.9007 0.0
C134 C 0.41687 0.17297 0.2923 0.0
C135 C 0.52355 0.06173 0.1193 0.0
O136 O 0.47407 0.06688 0.10636 0.0
O137 O 0.55306 0.10214 0.13414 0.0
O138 O 0.38759 0.12096 0.95357 0.0
O139 O 0.4538 0.17859 0.95142 0.0
O140 O 0.89469 0.9668 0.54047 0.0
Cd141 Cd 0.89323 1.02342 0.4262 0.0
Cd142 Cd 0.93372 0.93344 0.32922 0.0
O143 O 0.9064 0.89135 0.45774 0.0
O144 O 0.85061 0.07513 0.51142 0.0
O145 O 0.82242 0.03808 0.36248 0.0
C146 C 0.81214 0.06489 0.44755 0.0
C147 C 0.91701 0.91756 0.1509 0.0
C148 C 0.89685 0.9169 0.54251 0.0
C149 C 1.00811 1.02355 0.36933 0.0
O150 O 1.00296 0.97407 0.35648 0.0
O151 O 0.96769 0.05307 0.38412 0.0
O152 O 0.94887 0.88761 0.20378 0.0
O153 O 0.89125 0.95382 0.20161 0.0
O154 O 0.10284 0.39501 0.7907 0.0
Cd155 Cd 0.04624 0.39346 0.67641 0.0
Cd156 Cd 0.13617 0.43391 0.5793 0.0
O157 O 0.17828 0.40661 0.70782 0.0
O158 O 0.99458 0.3507 0.7615 0.0
O159 O 1.03178 0.32265 0.61262 0.0
C160 C 1.00493 0.31228 0.69762 0.0
C161 C 0.15212 0.41727 0.40099 0.0
C162 C 0.15274 0.39713 0.79266 0.0
C163 C 0.04606 0.50831 0.61933 0.0
O164 O 0.09554 0.50316 0.60649 0.0
O165 O 1.01654 0.46789 0.63417 0.0
O166 O 0.18205 0.44912 0.45391 0.0
O167 O 0.11585 0.39148 0.45166 0.0
O168 O 0.67513 0.96677 0.39465 0.0
Cd169 Cd 0.67659 1.02341 0.50879 0.0
Cd170 Cd 0.63612 0.93342 0.60598 0.0
O171 O 0.66343 0.89132 0.47753 0.0
O172 O 0.71918 0.07512 0.42346 0.0
O173 O 0.74739 0.03808 0.5725 0.0
C174 C 0.75765 0.06488 0.48737 0.0
C175 C 0.65284 0.91754 0.78432 0.0
C176 C 0.67298 0.91687 0.39271 0.0
C177 C 0.56171 1.02352 0.56571 0.0
O178 O 0.56687 0.97404 0.57867 0.0
O179 O 0.60212 0.05304 0.55084 0.0
O180 O 0.62097 0.88758 0.73149 0.0
O181 O 0.67859 0.9538 0.73355 0.0
O182 O 0.10304 0.1752 0.64443 0.0
Cd183 Cd 0.04641 0.17667 0.75865 0.0
Cd184 Cd 0.13638 0.13619 0.8558 0.0
O185 O 0.17848 0.1635 0.72729 0.0
O186 O 0.9947 0.21933 0.67343 0.0
O187 O 1.03182 0.24746 0.82242 0.0
C188 C 1.00497 0.25776 0.73735 0.0
C189 C 0.15228 0.15289 1.03411 0.0
C190 C 0.15293 0.17304 0.64247 0.0
C191 C 0.04629 0.06179 0.81567 0.0
O192 O 0.09577 0.06694 0.82858 0.0
O193 O 1.01677 0.1022 0.80079 0.0
O194 O 0.18223 0.12103 0.98128 0.0
O195 O 0.11602 0.17865 0.98336 0.0
O196 O 0.89454 0.60343 0.8945 0.0
Cd197 Cd 0.89317 0.54681 1.00879 0.0
Cd198 Cd 0.93366 0.63684 0.10568 0.0
O199 O 0.90631 0.6789 0.97713 0.0
O200 O 0.85064 0.49504 0.92354 0.0
O201 O 0.82239 0.53204 0.0725 0.0
C202 C 0.81217 0.50521 0.98741 0.0
C203 C 0.91689 0.65266 0.28399 0.0
C204 C 0.8967 0.65333 0.8924 0.0
C205 C 1.00808 0.54676 0.06566 0.0
O206 O 1.00293 0.59624 0.07848 0.0
O207 O 0.96767 0.51724 0.05088 0.0
O208 O 0.94875 0.68265 0.2312 0.0
O209 O 0.89117 0.61639 0.23319 0.0
O210 O 0.46676 0.39472 0.14459 0.0
Cd211 Cd 0.52341 0.39324 0.25878 0.0
Cd212 Cd 0.43343 0.4337 0.3559 0.0
O213 O 0.39132 0.40641 0.22741 0.0
O214 O 0.57511 0.35064 0.1735 0.0
O215 O 0.53807 0.32242 0.32251 0.0
C216 C 0.56488 0.31218 0.2374 0.0
C217 C 0.41752 0.417 0.53422 0.0
C218 C 0.41686 0.39687 0.14262 0.0
C219 C 0.52352 0.50811 0.31571 0.0
O220 O 0.47405 0.50295 0.32862 0.0
O221 O 0.55305 0.4677 0.30087 0.0
O222 O 0.38758 0.44886 0.48132 0.0
O223 O 0.45378 0.39123 0.48353 0.0
loop_
_geom_bond_atom_site_label_1
_geom_bond_atom_site_label_2
_geom_bond_distance
_geom_bond_site_symmetry_2
_ccdc_geom_bond_type
O0 Cd1 2.223 1_545 S
O0 C8 1.315 . S
Cd1 O0 2.223 1_565 S
Cd1 O4 2.297 1_565 S
Cd1 O5 2.439 1_565 S
Cd1 O11 2.240 1_565 S
Cd2 O3 2.240 . S
Cd2 O10 2.213 1_455 S
Cd2 O12 2.297 . S
Cd2 O13 2.439 . S
O3 Cd2 2.240 . S
O3 C8 1.279 . S
O4 Cd1 2.297 1_545 S
O4 C6 1.247 . S
O5 Cd1 2.439 1_545 S
O5 C6 1.208 . S
C6 O4 1.247 . S
C6 O5 1.208 . S
C7 O12 1.247 . S
C7 O13 1.208 . S
C8 O0 1.315 . S
C8 O3 1.279 . S
C9 O10 1.309 1_455 S
C9 O11 1.280 . S
O10 Cd2 2.213 1_655 S
O10 C9 1.309 1_655 S
O11 Cd1 2.240 1_545 S
O11 C9 1.280 . S
O12 Cd2 2.297 . S
O12 C7 1.247 . S
O13 Cd2 2.439 . S
O13 C7 1.208 . S
O14 Cd15 2.223 1_655 S
O14 C22 1.315 . S
Cd15 O14 2.223 1_455 S
Cd15 O18 2.297 1_455 S
Cd15 O19 2.439 1_455 S
Cd15 O25 2.240 1_455 S
Cd16 O17 2.240 . S
Cd16 O24 2.223 . S
Cd16 O26 2.297 . S
Cd16 O27 2.439 . S
O17 Cd16 2.240 . S
O17 C22 1.279 . S
O18 Cd15 2.297 1_655 S
O18 C20 1.247 . S
O19 Cd15 2.439 1_655 S
O19 C20 1.208 . S
C20 O18 1.247 . S
C20 O19 1.208 . S
C21 O26 1.247 . S
C21 O27 1.208 . S
C22 O14 1.315 . S
C22 O17 1.279 . S
C23 O24 1.315 . S
C23 O25 1.280 . S
O24 Cd16 2.223 . S
O24 C23 1.315 . S
O25 Cd15 2.240 1_655 S
O25 C23 1.280 . S
O26 Cd16 2.297 . S
O26 C21 1.247 . S
O27 Cd16 2.439 . S
O27 C21 1.208 . S
O28 Cd29 2.223 1_554 S
O28 C36 1.315 . S
Cd29 O28 2.223 1_556 S
Cd29 O32 2.297 . S
Cd29 O33 2.439 . S
Cd29 O39 2.240 . S
Cd30 O31 2.240 . S
Cd30 O38 2.223 . S
Cd30 O40 2.297 . S
Cd30 O41 2.439 . S
O31 Cd30 2.240 . S
O31 C36 1.279 1_556 S
O32 Cd29 2.297 . S
O32 C34 1.247 . S
O33 Cd29 2.439 . S
O33 C34 1.208 . S
C34 O32 1.247 . S
C34 O33 1.208 . S
C35 O40 1.247 . S
C35 O41 1.208 . S
C36 O28 1.315 . S
C36 O31 1.279 1_554 S
C37 O38 1.315 . S
C37 O39 1.279 . S
O38 Cd30 2.223 . S
O38 C37 1.315 . S
O39 Cd29 2.240 . S
O39 C37 1.279 . S
O40 Cd30 2.297 . S
O40 C35 1.247 . S
O41 Cd30 2.439 . S
O41 C35 1.208 . S
O42 Cd43 2.223 . S
O42 C50 1.315 . S
Cd43 O42 2.223 . S
Cd43 O46 2.297 . S
Cd43 O47 2.439 . S
Cd43 O53 2.240 . S
Cd44 O45 2.240 . S
Cd44 O52 2.213 1_565 S
Cd44 O54 2.297 1_554 S
Cd44 O55 2.439 1_554 S
O45 Cd44 2.240 . S
O45 C50 1.279 . S
O46 Cd43 2.297 . S
O46 C48 1.247 . S
O47 Cd43 2.439 . S
O47 C48 1.208 . S
C48 O46 1.247 . S
C48 O47 1.208 . S
C49 O54 1.247 . S
C49 O55 1.208 . S
C50 O42 1.315 . S
C50 O45 1.279 . S
C51 O52 1.309 1_565 S
C51 O53 1.279 . S
O52 Cd44 2.213 1_545 S
O52 C51 1.309 1_545 S
O53 Cd43 2.240 . S
O53 C51 1.279 . S
O54 Cd44 2.297 1_556 S
O54 C49 1.247 . S
O55 Cd44 2.439 1_556 S
O55 C49 1.208 . S
O56 Cd57 2.223 . S
O56 C64 1.315 . S
Cd57 O56 2.223 . S
Cd57 O60 2.297 . S
Cd57 O61 2.439 . S
Cd57 O67 2.240 1_556 S
Cd58 O59 2.240 1_554 S
Cd58 O66 2.213 1_455 S
Cd58 O68 2.297 . S
Cd58 O69 2.439 . S
O59 Cd58 2.240 1_556 S
O59 C64 1.279 . S
O60 Cd57 2.297 . S
O60 C62 1.247 . S
O61 Cd57 2.439 . S
O61 C62 1.208 . S
C62 O60 1.247 . S
C62 O61 1.208 . S
C63 O68 1.247 . S
C63 O69 1.208 . S
C64 O56 1.315 . S
C64 O59 1.279 . S
C65 O66 1.309 1_455 S
C65 O67 1.279 . S
O66 Cd58 2.213 1_655 S
O66 C65 1.309 1_655 S
O67 Cd57 2.240 1_554 S
O67 C65 1.279 . S
O68 Cd58 2.297 . S
O68 C63 1.247 . S
O69 Cd58 2.439 . S
O69 C63 1.208 . S
O70 Cd71 2.223 . S
O70 C78 1.315 . S
Cd71 O70 2.223 . S
Cd71 O74 2.297 . S
Cd71 O75 2.439 . S
Cd71 O81 2.240 . S
Cd72 O73 2.240 . S
Cd72 O80 2.223 . S
Cd72 O82 2.297 . S
Cd72 O83 2.439 . S
O73 Cd72 2.240 . S
O73 C78 1.279 . S
O74 Cd71 2.297 . S
O74 C76 1.247 . S
O75 Cd71 2.439 . S
O75 C76 1.208 . S
C76 O74 1.247 . S
C76 O75 1.208 . S
C77 O82 1.247 . S
C77 O83 1.208 . S
C78 O70 1.315 . S
C78 O73 1.279 . S
C79 O80 1.315 . S
C79 O81 1.279 . S
O80 Cd72 2.223 . S
O80 C79 1.315 . S
O81 Cd71 2.240 . S
O81 C79 1.279 . S
O82 Cd72 2.297 . S
O82 C77 1.247 . S
O83 Cd72 2.439 . S
O83 C77 1.208 . S
O84 Cd85 2.223 1_545 S
O84 C92 1.315 . S
Cd85 O84 2.223 1_565 S
Cd85 O88 2.297 1_565 S
Cd85 O89 2.439 1_565 S
Cd85 O95 2.240 1_565 S
Cd86 O87 2.240 . S
Cd86 O94 2.223 . S
Cd86 O96 2.297 . S
Cd86 O97 2.439 . S
O87 Cd86 2.240 . S
O87 C92 1.279 . S
O88 Cd85 2.297 1_545 S
O88 C90 1.247 . S
O89 Cd85 2.439 1_545 S
O89 C90 1.208 . S
C90 O88 1.247 . S
C90 O89 1.208 . S
C91 O96 1.247 . S
C91 O97 1.208 . S
C92 O84 1.315 . S
C92 O87 1.279 . S
C93 O94 1.315 . S
C93 O95 1.280 . S
O94 Cd86 2.223 . S
O94 C93 1.315 . S
O95 Cd85 2.240 1_545 S
O95 C93 1.280 . S
O96 Cd86 2.297 . S
O96 C91 1.247 . S
O97 Cd86 2.439 . S
O97 C91 1.208 . S
O98 Cd99 2.223 1_655 S
O98 C106 1.315 . S
Cd99 O98 2.223 1_455 S
Cd99 O102 2.297 1_455 S
Cd99 O103 2.439 1_455 S
Cd99 O109 2.240 1_455 S
Cd100 O101 2.240 . S
Cd100 O108 2.213 1_565 S
Cd100 O110 2.297 . S
Cd100 O111 2.439 . S
O101 Cd100 2.240 . S
O101 C106 1.279 . S
O102 Cd99 2.297 1_655 S
O102 C104 1.247 . S
O103 Cd99 2.439 1_655 S
O103 C104 1.208 . S
C104 O102 1.247 . S
C104 O103 1.208 . S
C105 O110 1.247 . S
C105 O111 1.208 . S
C106 O98 1.315 . S
C106 O101 1.279 . S
C107 O108 1.309 1_565 S
C107 O109 1.280 . S
O108 Cd100 2.213 1_545 S
O108 C107 1.309 1_545 S
O109 Cd99 2.240 1_655 S
O109 C107 1.280 . S
O110 Cd100 2.297 . S
O110 C105 1.247 . S
O111 Cd100 2.439 . S
O111 C105 1.208 . S
O112 Cd113 2.223 1_554 S
O112 C120 1.315 . S
Cd113 O112 2.223 1_556 S
Cd113 O116 2.297 . S
Cd113 O117 2.439 . S
Cd113 O123 2.240 . S
Cd114 O115 2.240 . S
Cd114 O122 2.223 . S
Cd114 O124 2.297 . S
Cd114 O125 2.439 . S
O115 Cd114 2.240 . S
O115 C120 1.279 1_556 S
O116 Cd113 2.297 . S
O116 C118 1.247 . S
O117 Cd113 2.439 . S
O117 C118 1.208 . S
C118 O116 1.247 . S
C118 O117 1.208 . S
C119 O124 1.247 . S
C119 O125 1.208 . S
C120 O112 1.315 . S
C120 O115 1.279 1_554 S
C121 O122 1.315 . S
C121 O123 1.279 . S
O122 Cd114 2.223 . S
O122 C121 1.315 . S
O123 Cd113 2.240 . S
O123 C121 1.279 . S
O124 Cd114 2.297 . S
O124 C119 1.247 . S
O125 Cd114 2.439 . S
O125 C119 1.208 . S
O126 Cd127 2.223 . S
O126 C134 1.315 . S
Cd127 O126 2.223 . S
Cd127 O130 2.297 . S
Cd127 O131 2.439 . S
Cd127 O137 2.240 . S
Cd128 O129 2.240 . S
Cd128 O136 2.213 1_545 S
Cd128 O138 2.297 1_554 S
Cd128 O139 2.439 1_554 S
O129 Cd128 2.240 . S
O129 C134 1.279 . S
O130 Cd127 2.297 . S
O130 C132 1.247 . S
O131 Cd127 2.439 . S
O131 C132 1.208 . S
C132 O130 1.247 . S
C132 O131 1.208 . S
C133 O138 1.247 . S
C133 O139 1.208 . S
C134 O126 1.315 . S
C134 O129 1.279 . S
C135 O136 1.309 1_545 S
C135 O137 1.279 . S
O136 Cd128 2.213 1_565 S
O136 C135 1.309 1_565 S
O137 Cd127 2.240 . S
O137 C135 1.279 . S
O138 Cd128 2.297 1_556 S
O138 C133 1.247 . S
O139 Cd128 2.439 1_556 S
O139 C133 1.208 . S
O140 Cd141 2.223 1_565 S
O140 C148 1.315 . S
Cd141 O140 2.223 1_545 S
Cd141 O144 2.297 1_545 S
Cd141 O145 2.439 1_545 S
Cd141 O151 2.240 1_545 S
Cd142 O143 2.240 . S
Cd142 O150 2.213 1_655 S
Cd142 O152 2.297 . S
Cd142 O153 2.439 . S
O143 Cd142 2.240 . S
O143 C148 1.279 . S
O144 Cd141 2.297 1_565 S
O144 C146 1.247 . S
O145 Cd141 2.439 1_565 S
O145 C146 1.208 . S
C146 O144 1.247 . S
C146 O145 1.208 . S
C147 O152 1.247 . S
C147 O153 1.208 . S
C148 O140 1.315 . S
C148 O143 1.279 . S
C149 O150 1.309 1_655 S
C149 O151 1.280 . S
O150 Cd142 2.213 1_455 S
O150 C149 1.309 1_455 S
O151 Cd141 2.240 1_565 S
O151 C149 1.280 . S
O152 Cd142 2.297 . S
O152 C147 1.247 . S
O153 Cd142 2.439 . S
O153 C147 1.208 . S
O154 Cd155 2.223 1_455 S
O154 C162 1.315 . S
Cd155 O154 2.223 1_655 S
Cd155 O158 2.297 1_655 S
Cd155 O159 2.439 1_655 S
Cd155 O165 2.240 1_655 S
Cd156 O157 2.240 . S
Cd156 O164 2.223 . S
Cd156 O166 2.297 . S
Cd156 O167 2.439 . S
O157 Cd156 2.240 . S
O157 C162 1.279 . S
O158 Cd155 2.297 1_455 S
O158 C160 1.247 . S
O159 Cd155 2.439 1_455 S
O159 C160 1.208 . S
C160 O158 1.247 . S
C160 O159 1.208 . S
C161 O166 1.247 . S
C161 O167 1.208 . S
C162 O154 1.315 . S
C162 O157 1.279 . S
C163 O164 1.315 . S
C163 O165 1.280 . S
O164 Cd156 2.223 . S
O164 C163 1.315 . S
O165 Cd155 2.240 1_455 S
O165 C163 1.280 . S
O166 Cd156 2.297 . S
O166 C161 1.247 . S
O167 Cd156 2.439 . S
O167 C161 1.208 . S
O168 Cd169 2.223 1_565 S
O168 C176 1.315 . S
Cd169 O168 2.223 1_545 S
Cd169 O172 2.297 1_545 S
Cd169 O173 2.439 1_545 S
Cd169 O179 2.240 1_545 S
Cd170 O171 2.240 . S
Cd170 O178 2.223 . S
Cd170 O180 2.297 . S
Cd170 O181 2.439 . S
O171 Cd170 2.240 . S
O171 C176 1.279 . S
O172 Cd169 2.297 1_565 S
O172 C174 1.247 . S
O173 Cd169 2.439 1_565 S
O173 C174 1.208 . S
C174 O172 1.247 . S
C174 O173 1.208 . S
C175 O180 1.247 . S
C175 O181 1.208 . S
C176 O168 1.315 . S
C176 O171 1.279 . S
C177 O178 1.315 . S
C177 O179 1.280 . S
O178 Cd170 2.223 . S
O178 C177 1.315 . S
O179 Cd169 2.240 1_565 S
O179 C177 1.280 . S
O180 Cd170 2.297 . S
O180 C175 1.247 . S
O181 Cd170 2.439 . S
O181 C175 1.208 . S
O182 Cd183 2.223 1_455 S
O182 C190 1.315 . S
Cd183 O182 2.223 1_655 S
Cd183 O186 2.297 1_655 S
Cd183 O187 2.439 1_655 S
Cd183 O193 2.240 1_655 S
Cd184 O185 2.240 . S
Cd184 O192 2.213 1_545 S
Cd184 O194 2.297 . S
Cd184 O195 2.439 . S
O185 Cd184 2.240 . S
O185 C190 1.279 . S
O186 Cd183 2.297 1_455 S
O186 C188 1.247 . S
O187 Cd183 2.439 1_455 S
O187 C188 1.208 . S
C188 O186 1.247 . S
C188 O187 1.208 . S
C189 O194 1.247 . S
C189 O195 1.208 . S
C190 O182 1.315 . S
C190 O185 1.279 . S
C191 O192 1.309 1_545 S
C191 O193 1.280 . S
O192 Cd184 2.213 1_565 S
O192 C191 1.309 1_565 S
O193 Cd183 2.240 1_455 S
O193 C191 1.280 . S
O194 Cd184 2.297 . S
O194 C189 1.247 . S
O195 Cd184 2.439 . S
O195 C189 1.208 . S
O196 Cd197 2.223 . S
O196 C204 1.315 . S
Cd197 O196 2.223 . S
Cd197 O200 2.297 . S
Cd197 O201 2.439 . S
Cd197 O207 2.240 1_556 S
Cd198 O199 2.240 1_554 S
Cd198 O206 2.213 1_655 S
Cd198 O208 2.297 . S
Cd198 O209 2.439 . S
O199 Cd198 2.240 1_556 S
O199 C204 1.279 . S
O200 Cd197 2.297 . S
O200 C202 1.247 . S
O201 Cd197 2.439 . S
O201 C202 1.208 . S
C202 O200 1.247 . S
C202 O201 1.208 . S
C203 O208 1.247 . S
C203 O209 1.208 . S
C204 O196 1.315 . S
C204 O199 1.279 . S
C205 O206 1.309 1_655 S
C205 O207 1.279 . S
O206 Cd198 2.213 1_455 S
O206 C205 1.309 1_455 S
O207 Cd197 2.240 1_554 S
O207 C205 1.279 . S
O208 Cd198 2.297 . S
O208 C203 1.247 . S
O209 Cd198 2.439 . S
O209 C203 1.208 . S
O210 Cd211 2.223 . S
O210 C218 1.315 . S
Cd211 O210 2.223 . S
Cd211 O214 2.297 . S
Cd211 O215 2.439 . S
Cd211 O221 2.240 . S
Cd212 O213 2.240 . S
Cd212 O220 2.223 . S
Cd212 O222 2.297 . S
Cd212 O223 2.439 . S
O213 Cd212 2.240 . S
O213 C218 1.279 . S
O214 Cd211 2.297 . S
O214 C216 1.247 . S
O215 Cd211 2.439 . S
O215 C216 1.208 . S
C216 O214 1.247 . S
C216 O215 1.208 . S
C217 O222 1.247 . S
C217 O223 1.208 . S
C218 O210 1.315 . S
C218 O213 1.279 . S
C219 O220 1.315 . S
C219 O221 1.279 . S
O220 Cd212 2.223 . S
O220 C219 1.315 . S
O221 Cd211 2.240 . S
O221 C219 1.279 . S
O222 Cd212 2.297 . S
O222 C217 1.247 . S
O223 Cd212 2.439 . S
O223 C217 1.208 . S
C90 C6 1.381 . S
C104 C20 1.380 . S
C34 C62 1.380 . S
C48 C76 1.381 . S
C118 C202 1.380 . S
C216 C132 1.381 . S
C146 C174 1.381 . S
C160 C188 1.380 . S
C9 C149 1.197 1_445 S
C23 C163 1.197 1_655 S
C37 C121 1.197 . S
C51 C135 1.197 1_565 S
C65 C205 1.197 1_455 S
C219 C79 1.197 . S
C93 C177 1.197 1_545 S
C191 C107 1.197 1_445 S
C190 C8 0.918 . S
C22 C204 0.918 . S
C218 C36 0.918 . S
C176 C50 0.918 . S
C162 C64 0.918 . S
C78 C120 0.918 . S
C92 C134 0.918 . S
C106 C148 0.918 . S
C189 C7 1.729 1_556 S
C21 C203 1.729 . S
C35 C217 1.729 . S
C175 C49 1.729 . S
C161 C63 1.729 . S
C119 C77 1.729 . S
C91 C133 1.729 . S
C147 C105 1.729 1_554 S
