# Generated by pormake.
# Topology sml, (6)-cn, num edge types: 1
# Building blocks:
#     Node 0, Type 0, BuildingBlock: LEVNOQ01_clean_sbu_1, # of connection points: 6
#     Node 1, Type 0, BuildingBlock: LEVNOQ01_clean_sbu_1, # of connection points: 6
#     Node 2, Type 0, BuildingBlock: LEVNOQ01_clean_sbu_1, # of connection points: 6
#     Node 3, Type 0, BuildingBlock: LEVNOQ01_clean_sbu_1, # of connection points: 6
#     Node 4, Type 0, BuildingBlock: LEVNOQ01_clean_sbu_1, # of connection points: 6
#     Node 5, Type 0, BuildingBlock: LEVNOQ01_clean_sbu_1, # of connection points: 6
#     Edge 6, Type (0, 0), BuildingBlock: EYOCIG_clean_linker_4, # of connection points: 2
#     Edge 7, Type (0, 0), BuildingBlock: EYOCIG_clean_linker_4, # of connection points: 2
#     Edge 8, Type (0, 0), BuildingBlock: EYOCIG_clean_linker_4, # of connection points: 2
#     Edge 9, Type (0, 0), BuildingBlock: EYOCIG_clean_linker_4, # of connection points: 2
#     Edge 10, Type (0, 0), BuildingBlock: EYOCIG_clean_linker_4, # of connection points: 2
#     Edge 11, Type (0, 0), BuildingBlock: EYOCIG_clean_linker_4, # of connection points: 2
#     Edge 12, Type (0, 0), BuildingBlock: EYOCIG_clean_linker_4, # of connection points: 2
#     Edge 13, Type (0, 0), BuildingBlock: EYOCIG_clean_linker_4, # of connection points: 2
#     Edge 14, Type (0, 0), BuildingBlock: EYOCIG_clean_linker_4, # of connection points: 2
#     Edge 15, Type (0, 0), BuildingBlock: EYOCIG_clean_linker_4, # of connection points: 2
#     Edge 16, Type (0, 0), BuildingBlock: EYOCIG_clean_linker_4, # of connection points: 2
#     Edge 17, Type (0, 0), BuildingBlock: EYOCIG_clean_linker_4, # of connection points: 2
#     Edge 18, Type (0, 0), BuildingBlock: EYOCIG_clean_linker_4, # of connection points: 2
#     Edge 19, Type (0, 0), BuildingBlock: EYOCIG_clean_linker_4, # of connection points: 2
#     Edge 20, Type (0, 0), BuildingBlock: EYOCIG_clean_linker_4, # of connection points: 2
#     Edge 21, Type (0, 0), BuildingBlock: EYOCIG_clean_linker_4, # of connection points: 2
#     Edge 22, Type (0, 0), BuildingBlock: EYOCIG_clean_linker_4, # of connection points: 2
#     Edge 23, Type (0, 0), BuildingBlock: EYOCIG_clean_linker_4, # of connection points: 2
# Relax obj value: 0.144
# Max RMSD: 0.170
# Mean RMSD: 0.170
data_MOF--net-sml--node1-LEVNOQ01_clean_sbu_1--edge1-EYOCIG_clean_linker_4
_symmetry_space_group_name_H-M    P1
_symmetry_Int_Tables_number       1
_symmetry_cell_setting            triclinic
loop_
_symmetry_equiv_pos_as_xyz
'x, y, z'
_cell_length_a     31.369539
_cell_length_b     31.35471
_cell_length_c     12.971932
_cell_angle_alpha  89.943306
_cell_angle_beta   90.057926
_cell_angle_gamma 119.99841
loop_
_atom_site_label
_atom_site_type_symbol
_atom_site_fract_x
_atom_site_fract_y
_atom_site_fract_z
_atom_type_partial_charge
O0 O 0.1709 0.35758 0.73916 0.0
Mg1 Mg 0.16011 0.32037 0.8823 0.0
O2 O 0.23073 0.43093 0.79367 0.0
Mg3 Mg 0.23691 0.43367 -0.02687 0.0
O4 O 0.16209 0.36697 -0.00737 0.0
O5 O 0.09633 0.29391 -0.02528 0.0
O6 O 0.24146 0.43433 0.15327 0.0
O7 O 0.19909 0.48218 -0.01954 0.0
Mg8 Mg 0.31244 0.54121 0.07466 0.0
O9 O 0.31293 0.50071 0.95297 0.0
O10 O 0.30373 0.50371 0.21522 0.0
O11 O 0.25443 0.55549 0.04416 0.0
O12 O 0.37694 0.57389 -0.01172 0.0
C13 C 0.26362 0.34156 0.94111 0.0
C14 C 0.20471 0.40154 0.72167 0.0
C15 C 0.11852 0.33524 0.02304 0.0
C16 C 0.26765 0.46068 0.22848 0.0
C17 C 0.21194 0.52615 0.00826 0.0
C18 C 0.35633 0.53593 0.92891 0.0
O19 O 0.22028 0.30909 0.91495 0.0
O20 O 0.27503 0.38582 0.96284 0.0
O21 O 0.81955 0.16828 0.07275 0.0
Mg22 Mg 0.84586 0.15736 0.21593 0.0
O23 O 0.80616 0.2282 0.1271 0.0
Mg24 Mg 0.8096 0.23438 0.30655 0.0
O25 O 0.80131 0.15949 0.32613 0.0
O26 O 0.80835 0.09357 0.30859 0.0
O27 O 0.81349 0.23893 0.48667 0.0
O28 O 0.72331 0.1967 0.31401 0.0
Mg29 Mg 0.77787 0.31016 0.40796 0.0
O30 O 0.81875 0.31048 0.28628 0.0
O31 O 0.80663 0.30135 0.54848 0.0
O32 O 0.70553 0.25217 0.37767 0.0
O33 O 0.80982 0.37465 0.32122 0.0
C34 C 0.9283 0.26086 0.2746 0.0
C35 C 0.80949 0.20215 0.05518 0.0
C36 C 0.78933 0.11589 0.35675 0.0
C37 C 0.81343 0.26517 0.56182 0.0
C38 C 0.69228 0.20965 0.34185 0.0
C39 C 0.82705 0.35391 0.26195 0.0
O40 O 0.91734 0.21747 0.24855 0.0
O41 O 0.89553 0.27236 0.29621 0.0
O42 O 0.65744 0.8172 0.40658 0.0
Mg43 Mg 0.6946 0.84348 0.54977 0.0
O44 O 0.58408 0.80357 0.46096 0.0
Mg45 Mg 0.58131 0.80693 0.64039 0.0
O46 O 0.64796 0.79875 0.65998 0.0
O47 O 0.72098 0.80601 0.64223 0.0
O48 O 0.58062 0.81076 0.82051 0.0
O49 O 0.53282 0.7206 0.64783 0.0
Mg50 Mg 0.47377 0.77496 0.74183 0.0
O51 O 0.51431 0.81594 0.62011 0.0
O52 O 0.51129 0.80375 0.88231 0.0
O53 O 0.45955 0.70265 0.71155 0.0
O54 O 0.44118 0.80686 0.65505 0.0
C55 C 0.67339 0.92578 0.60855 0.0
C56 C 0.61349 0.80702 0.38902 0.0
C57 C 0.67964 0.78683 0.69043 0.0
C58 C 0.55429 0.81063 0.89565 0.0
C59 C 0.48887 0.68949 0.67568 0.0
C60 C 0.47915 0.82418 0.59576 0.0
O61 O 0.70587 0.91492 0.58251 0.0
O62 O 0.62913 0.89291 0.63009 0.0
O63 O 0.84667 0.65481 0.73873 0.0
Mg64 Mg 0.85754 0.69196 0.88186 0.0
O65 O 0.78698 0.58139 0.7933 0.0
Mg66 Mg 0.78088 0.5786 -0.02725 0.0
O67 O 0.85569 0.64533 -0.00783 0.0
O68 O 0.9214 0.71841 -0.0258 0.0
O69 O 0.77638 0.57787 0.15286 0.0
O70 O 0.81875 0.53015 -0.01985 0.0
Mg71 Mg 0.7054 0.47095 0.07429 0.0
O72 O 0.70489 0.51155 0.95264 0.0
O73 O 0.71417 0.50842 0.21478 0.0
O74 O 0.76348 0.45678 0.04383 0.0
O75 O 0.6409 0.43834 -0.01229 0.0
C76 C 0.75407 0.67067 0.94091 0.0
C77 C 0.81292 0.61082 0.72128 0.0
C78 C 0.89927 0.67706 0.02253 0.0
C79 C 0.75022 0.55147 0.22805 0.0
C80 C 0.80594 0.48617 0.00795 0.0
C81 C 0.6615 0.47636 0.92843 0.0
O82 O 0.79738 0.70318 0.91469 0.0
O83 O 0.7427 0.6264 0.96252 0.0
O84 O 0.1984 0.84419 0.07166 0.0
Mg85 Mg 0.17206 0.85502 0.21469 0.0
O86 O 0.21186 0.78433 0.1264 0.0
Mg87 Mg 0.20847 0.77817 0.30586 0.0
O88 O 0.21668 0.85306 0.32521 0.0
O89 O 0.20943 0.91886 0.30704 0.0
O90 O 0.20463 0.77363 0.48599 0.0
O91 O 0.29476 0.81596 0.3134 0.0
Mg92 Mg 0.24039 0.70253 0.40763 0.0
O93 O 0.1994 0.7021 0.28583 0.0
O94 O 0.21165 0.71128 0.54805 0.0
O95 O 0.31268 0.76057 0.37729 0.0
O96 O 0.20849 0.63802 0.32116 0.0
C97 C 0.08972 0.75152 0.27364 0.0
C98 C 0.2085 0.81034 0.05431 0.0
C99 C 0.22855 0.89666 0.35553 0.0
C100 C 0.20477 0.74741 0.56124 0.0
C101 C 0.32585 0.80308 0.34134 0.0
C102 C 0.19116 0.65867 0.26174 0.0
O103 O 0.10062 0.79487 0.24732 0.0
O104 O 0.12254 0.74008 0.29547 0.0
O105 O 0.36031 0.19577 0.40525 0.0
Mg106 Mg 0.32315 0.1694 0.54836 0.0
O107 O 0.4336 0.20919 0.45988 0.0
Mg108 Mg 0.43638 0.20576 0.63934 0.0
O109 O 0.36975 0.214 0.65878 0.0
O110 O 0.29675 0.20679 0.64074 0.0
O111 O 0.43704 0.20187 0.81949 0.0
O112 O 0.48492 0.29209 0.64676 0.0
Mg113 Mg 0.54374 0.23755 0.74119 0.0
O114 O 0.50336 0.19666 0.61919 0.0
O115 O 0.50628 0.20872 0.88163 0.0
O116 O 0.55811 0.30993 0.71091 0.0
O117 O 0.57648 0.20578 0.65495 0.0
C118 C 0.34424 0.08697 0.60724 0.0
C119 C 0.40423 0.20585 0.38783 0.0
C120 C 0.33806 0.22589 0.68915 0.0
C121 C 0.46331 0.20191 0.89478 0.0
C122 C 0.52886 0.32315 0.67481 0.0
C123 C 0.5386 0.18849 0.59531 0.0
O124 O 0.31181 0.0979 0.58101 0.0
O125 O 0.38849 0.11979 0.62902 0.0
C126 C 0.34222 0.28402 0.83843 0.0
C127 C 0.34663 0.25874 0.77396 0.0
C128 C 0.32515 0.31073 0.89625 0.0
C129 C 0.30191 0.33002 0.92274 0.0
C130 C 0.06451 0.33939 0.17216 0.0
C131 C 0.09421 0.3438 0.10775 0.0
C132 C 0.0207 0.32232 0.22987 0.0
C133 C 0.97816 0.2991 0.25626 0.0
C134 C 0.73108 0.06202 0.50604 0.0
C135 C 0.75643 0.09168 0.44153 0.0
C136 C 0.70428 0.01822 0.56386 0.0
C137 C 0.68495 0.97565 0.59028 0.0
C138 C 0.67539 0.72839 0.83932 0.0
C139 C 0.67101 0.7538 0.77503 0.0
C140 C 0.69248 0.70156 0.89681 0.0
C141 C 0.71576 0.68223 0.92295 0.0
C142 C 0.99729 0.68998 0.2292 0.0
C143 C 0.03985 0.71323 0.2555 0.0
C144 C 0.95343 0.67288 0.17157 0.0
C145 C 0.92366 0.66848 0.10721 0.0
C146 C 0.31337 0.99454 0.56256 0.0
C147 C 0.33266 0.0371 0.58895 0.0
C148 C 0.28667 0.95071 0.50482 0.0
C149 C 0.2614 0.92099 0.44036 0.0
C150 C 0.2282 0.42511 0.52652 0.0
C151 C 0.21852 0.41567 0.61647 0.0
C152 C 0.24087 0.43451 0.42134 0.0
C153 C 0.25171 0.44485 0.33208 0.0
C154 C 0.80947 0.22567 0.85996 0.0
C155 C 0.8092 0.21597 0.94993 0.0
C156 C 0.81277 0.23835 0.75474 0.0
C157 C 0.81329 0.2492 0.66546 0.0
C158 C 0.58991 0.80688 0.19381 0.0
C159 C 0.59936 0.80666 0.28378 0.0
C160 C 0.58049 0.81011 0.08857 0.0
C161 C 0.57014 0.81057 -0.00071 0.0
C162 C 0.78951 0.58718 0.52614 0.0
C163 C 0.79917 0.59666 0.61607 0.0
C164 C 0.77689 0.57772 0.42092 0.0
C165 C 0.76609 0.56734 0.33166 0.0
C166 C 0.20535 0.77417 0.75405 0.0
C167 C 0.20486 0.76333 0.66481 0.0
C168 C 0.2086 0.78684 0.85922 0.0
C169 C 0.20883 0.79653 0.94914 0.0
C170 C 0.42775 0.20587 0.19272 0.0
C171 C 0.41832 0.20614 0.28264 0.0
C172 C 0.43714 0.20258 0.08756 0.0
C173 C 0.44749 0.20206 -0.00166 0.0
C174 C 0.16078 0.56908 0.03781 0.0
C175 C 0.17666 0.54251 0.01382 0.0
C176 C 0.1583 0.60561 0.09678 0.0
C177 C 0.16982 0.63538 0.16521 0.0
C178 C 0.59819 0.15852 0.37152 0.0
C179 C 0.64063 0.17442 0.34755 0.0
C180 C 0.55912 0.15593 0.43038 0.0
C181 C 0.54073 0.16731 0.49876 0.0
C182 C 0.40943 0.55626 0.76407 0.0
C183 C 0.37964 0.53793 0.83245 0.0
C184 C 0.44595 0.59535 0.7052 0.0
C185 C 0.4725 0.63783 0.68127 0.0
C186 C 0.85978 0.40684 0.09673 0.0
C187 C 0.84832 0.37711 0.16532 0.0
C188 C 0.85721 0.44333 0.03761 0.0
C189 C 0.84127 0.46986 0.01357 0.0
C190 C 0.41992 0.85431 0.37123 0.0
C191 C 0.37748 0.83838 0.34709 0.0
C192 C 0.45893 0.85689 0.43044 0.0
C193 C 0.4772 0.84544 0.49909 0.0
C194 C 0.6084 0.45625 0.76346 0.0
C195 C 0.63819 0.47448 0.83193 0.0
C196 C 0.57186 0.41727 0.70442 0.0
C197 C 0.54527 0.37482 0.68038 0.0
loop_
_geom_bond_atom_site_label_1
_geom_bond_atom_site_label_2
_geom_bond_distance
_geom_bond_site_symmetry_2
_ccdc_geom_bond_type
O0 Mg1 1.990 . S
O0 C14 1.253 . S
Mg1 O0 1.990 . S
Mg1 O4 2.180 1_556 S
Mg1 O5 2.117 . S
Mg1 O19 2.030 . S
O2 Mg3 2.072 1_556 S
O2 C14 1.260 . S
Mg3 O2 2.072 1_554 S
Mg3 O4 2.099 . S
Mg3 O6 2.079 . S
Mg3 O7 2.072 . S
Mg3 O9 2.099 . S
Mg3 O20 2.079 1_554 S
O4 Mg1 2.180 1_554 S
O4 Mg3 2.099 . S
O4 C15 1.279 . S
O5 Mg1 2.117 . S
O5 C15 1.250 1_556 S
O6 Mg3 2.079 . S
O6 C16 1.264 . S
O7 Mg3 2.072 . S
O7 C17 1.260 . S
Mg8 O9 2.180 . S
Mg8 O10 2.030 . S
Mg8 O11 1.990 . S
Mg8 O12 2.118 1_554 S
O9 Mg3 2.099 . S
O9 Mg8 2.180 . S
O9 C18 1.279 1_554 S
O10 Mg8 2.030 . S
O10 C16 1.248 . S
O11 Mg8 1.990 . S
O11 C17 1.253 . S
O12 Mg8 2.118 1_556 S
O12 C18 1.250 . S
C13 O19 1.248 . S
C13 O20 1.264 . S
C14 O0 1.253 . S
C14 O2 1.260 . S
C15 O4 1.279 . S
C15 O5 1.250 1_554 S
C16 O6 1.264 . S
C16 O10 1.248 . S
C17 O7 1.260 . S
C17 O11 1.253 . S
C18 O9 1.279 1_556 S
C18 O12 1.250 . S
O19 Mg1 2.030 . S
O19 C13 1.248 . S
O20 Mg3 2.079 1_556 S
O20 C13 1.264 . S
O21 Mg22 1.990 . S
O21 C35 1.253 . S
Mg22 O21 1.990 . S
Mg22 O25 2.180 . S
Mg22 O26 2.117 . S
Mg22 O40 2.030 . S
O23 Mg24 2.072 . S
O23 C35 1.260 . S
Mg24 O23 2.072 . S
Mg24 O25 2.099 . S
Mg24 O27 2.079 . S
Mg24 O28 2.072 . S
Mg24 O30 2.099 . S
Mg24 O41 2.079 . S
O25 Mg22 2.180 . S
O25 Mg24 2.099 . S
O25 C36 1.279 . S
O26 Mg22 2.117 . S
O26 C36 1.250 . S
O27 Mg24 2.079 . S
O27 C37 1.264 . S
O28 Mg24 2.072 . S
O28 C38 1.260 . S
Mg29 O30 2.180 . S
Mg29 O31 2.030 . S
Mg29 O32 1.990 . S
Mg29 O33 2.117 . S
O30 Mg24 2.099 . S
O30 Mg29 2.180 . S
O30 C39 1.279 . S
O31 Mg29 2.030 . S
O31 C37 1.248 . S
O32 Mg29 1.990 . S
O32 C38 1.253 . S
O33 Mg29 2.117 . S
O33 C39 1.250 . S
C34 O40 1.248 . S
C34 O41 1.264 . S
C35 O21 1.253 . S
C35 O23 1.260 . S
C36 O25 1.279 . S
C36 O26 1.250 . S
C37 O27 1.264 . S
C37 O31 1.248 . S
C38 O28 1.260 . S
C38 O32 1.253 . S
C39 O30 1.279 . S
C39 O33 1.250 . S
O40 Mg22 2.030 . S
O40 C34 1.248 . S
O41 Mg24 2.079 . S
O41 C34 1.264 . S
O42 Mg43 1.990 . S
O42 C56 1.253 . S
Mg43 O42 1.990 . S
Mg43 O46 2.180 . S
Mg43 O47 2.117 . S
Mg43 O61 2.030 . S
O44 Mg45 2.072 . S
O44 C56 1.260 . S
Mg45 O44 2.072 . S
Mg45 O46 2.099 . S
Mg45 O48 2.079 . S
Mg45 O49 2.072 . S
Mg45 O51 2.099 . S
Mg45 O62 2.079 . S
O46 Mg43 2.180 . S
O46 Mg45 2.099 . S
O46 C57 1.279 . S
O47 Mg43 2.117 . S
O47 C57 1.250 . S
O48 Mg45 2.079 . S
O48 C58 1.264 . S
O49 Mg45 2.072 . S
O49 C59 1.260 . S
Mg50 O51 2.180 . S
Mg50 O52 2.030 . S
Mg50 O53 1.990 . S
Mg50 O54 2.117 . S
O51 Mg45 2.099 . S
O51 Mg50 2.180 . S
O51 C60 1.279 . S
O52 Mg50 2.030 . S
O52 C58 1.248 . S
O53 Mg50 1.990 . S
O53 C59 1.253 . S
O54 Mg50 2.117 . S
O54 C60 1.250 . S
C55 O61 1.248 . S
C55 O62 1.264 . S
C56 O42 1.253 . S
C56 O44 1.260 . S
C57 O46 1.279 . S
C57 O47 1.250 . S
C58 O48 1.264 . S
C58 O52 1.248 . S
C59 O49 1.260 . S
C59 O53 1.253 . S
C60 O51 1.279 . S
C60 O54 1.250 . S
O61 Mg43 2.030 . S
O61 C55 1.248 . S
O62 Mg45 2.079 . S
O62 C55 1.264 . S
O63 Mg64 1.990 . S
O63 C77 1.253 . S
Mg64 O63 1.990 . S
Mg64 O67 2.180 1_556 S
Mg64 O68 2.117 . S
Mg64 O82 2.030 . S
O65 Mg66 2.072 1_556 S
O65 C77 1.260 . S
Mg66 O65 2.072 1_554 S
Mg66 O67 2.099 . S
Mg66 O69 2.079 . S
Mg66 O70 2.072 . S
Mg66 O72 2.099 . S
Mg66 O83 2.079 1_554 S
O67 Mg64 2.180 1_554 S
O67 Mg66 2.099 . S
O67 C78 1.279 . S
O68 Mg64 2.117 . S
O68 C78 1.250 1_556 S
O69 Mg66 2.079 . S
O69 C79 1.264 . S
O70 Mg66 2.072 . S
O70 C80 1.260 . S
Mg71 O72 2.180 . S
Mg71 O73 2.030 . S
Mg71 O74 1.990 . S
Mg71 O75 2.118 1_554 S
O72 Mg66 2.099 . S
O72 Mg71 2.180 . S
O72 C81 1.279 1_554 S
O73 Mg71 2.030 . S
O73 C79 1.248 . S
O74 Mg71 1.990 . S
O74 C80 1.253 . S
O75 Mg71 2.118 1_556 S
O75 C81 1.250 . S
C76 O82 1.248 . S
C76 O83 1.264 . S
C77 O63 1.253 . S
C77 O65 1.260 . S
C78 O67 1.279 . S
C78 O68 1.250 1_554 S
C79 O69 1.264 . S
C79 O73 1.248 . S
C80 O70 1.260 . S
C80 O74 1.253 . S
C81 O72 1.279 1_556 S
C81 O75 1.250 . S
O82 Mg64 2.030 . S
O82 C76 1.248 . S
O83 Mg66 2.079 1_556 S
O83 C76 1.264 . S
O84 Mg85 1.990 . S
O84 C98 1.253 . S
Mg85 O84 1.990 . S
Mg85 O88 2.180 . S
Mg85 O89 2.117 . S
Mg85 O103 2.030 . S
O86 Mg87 2.072 . S
O86 C98 1.260 . S
Mg87 O86 2.072 . S
Mg87 O88 2.099 . S
Mg87 O90 2.079 . S
Mg87 O91 2.072 . S
Mg87 O93 2.099 . S
Mg87 O104 2.079 . S
O88 Mg85 2.180 . S
O88 Mg87 2.099 . S
O88 C99 1.279 . S
O89 Mg85 2.117 . S
O89 C99 1.250 . S
O90 Mg87 2.079 . S
O90 C100 1.264 . S
O91 Mg87 2.072 . S
O91 C101 1.260 . S
Mg92 O93 2.180 . S
Mg92 O94 2.030 . S
Mg92 O95 1.990 . S
Mg92 O96 2.117 . S
O93 Mg87 2.099 . S
O93 Mg92 2.180 . S
O93 C102 1.279 . S
O94 Mg92 2.030 . S
O94 C100 1.248 . S
O95 Mg92 1.990 . S
O95 C101 1.253 . S
O96 Mg92 2.117 . S
O96 C102 1.250 . S
C97 O103 1.248 . S
C97 O104 1.264 . S
C98 O84 1.253 . S
C98 O86 1.260 . S
C99 O88 1.279 . S
C99 O89 1.250 . S
C100 O90 1.264 . S
C100 O94 1.248 . S
C101 O91 1.260 . S
C101 O95 1.253 . S
C102 O93 1.279 . S
C102 O96 1.250 . S
O103 Mg85 2.030 . S
O103 C97 1.248 . S
O104 Mg87 2.079 . S
O104 C97 1.264 . S
O105 Mg106 1.990 . S
O105 C119 1.253 . S
Mg106 O105 1.990 . S
Mg106 O109 2.180 . S
Mg106 O110 2.117 . S
Mg106 O124 2.030 . S
O107 Mg108 2.072 . S
O107 C119 1.260 . S
Mg108 O107 2.072 . S
Mg108 O109 2.099 . S
Mg108 O111 2.079 . S
Mg108 O112 2.072 . S
Mg108 O114 2.099 . S
Mg108 O125 2.079 . S
O109 Mg106 2.180 . S
O109 Mg108 2.099 . S
O109 C120 1.279 . S
O110 Mg106 2.117 . S
O110 C120 1.250 . S
O111 Mg108 2.079 . S
O111 C121 1.264 . S
O112 Mg108 2.072 . S
O112 C122 1.260 . S
Mg113 O114 2.180 . S
Mg113 O115 2.030 . S
Mg113 O116 1.990 . S
Mg113 O117 2.117 . S
O114 Mg108 2.099 . S
O114 Mg113 2.180 . S
O114 C123 1.279 . S
O115 Mg113 2.030 . S
O115 C121 1.248 . S
O116 Mg113 1.990 . S
O116 C122 1.253 . S
O117 Mg113 2.117 . S
O117 C123 1.250 . S
C118 O124 1.248 . S
C118 O125 1.264 . S
C119 O105 1.253 . S
C119 O107 1.260 . S
C120 O109 1.279 . S
C120 O110 1.250 . S
C121 O111 1.264 . S
C121 O115 1.248 . S
C122 O112 1.260 . S
C122 O116 1.253 . S
C123 O114 1.279 . S
C123 O117 1.250 . S
O124 Mg106 2.030 . S
O124 C118 1.248 . S
O125 Mg108 2.079 . S
O125 C118 1.264 . S
C126 C127 1.170 . S
C126 C128 1.380 . S
C127 C126 1.170 . S
C128 C126 1.380 . S
C128 C129 1.170 . S
C129 C128 1.170 . S
C130 C131 1.170 . S
C130 C132 1.380 1_455 S
C131 C130 1.170 . S
C132 C130 1.380 1_655 S
C132 C133 1.170 . S
C133 C132 1.170 . S
C134 C135 1.170 . S
C134 C136 1.380 1_545 S
C135 C134 1.170 . S
C136 C134 1.380 1_565 S
C136 C137 1.170 . S
C137 C136 1.170 . S
C138 C139 1.170 . S
C138 C140 1.380 . S
C139 C138 1.170 . S
C140 C138 1.380 . S
C140 C141 1.170 . S
C141 C140 1.170 . S
C142 C143 1.170 . S
C142 C144 1.380 1_455 S
C143 C142 1.170 . S
C144 C142 1.380 1_655 S
C144 C145 1.170 . S
C145 C144 1.170 . S
C146 C147 1.170 . S
C146 C148 1.380 1_545 S
C147 C146 1.170 . S
C148 C146 1.380 1_565 S
C148 C149 1.170 . S
C149 C148 1.170 . S
C150 C151 1.170 . S
C150 C152 1.380 . S
C151 C150 1.170 . S
C152 C150 1.380 . S
C152 C153 1.170 . S
C153 C152 1.170 . S
C154 C155 1.165 1_556 S
C154 C156 1.380 . S
C155 C154 1.165 1_554 S
C156 C154 1.380 . S
C156 C157 1.170 . S
C157 C156 1.170 . S
C158 C159 1.170 . S
C158 C160 1.380 . S
C159 C158 1.170 . S
C160 C158 1.380 . S
C160 C161 1.170 . S
C161 C160 1.170 . S
C162 C163 1.170 . S
C162 C164 1.380 . S
C163 C162 1.170 . S
C164 C162 1.380 . S
C164 C165 1.170 . S
C165 C164 1.170 . S
C166 C167 1.170 . S
C166 C168 1.380 . S
C167 C166 1.170 . S
C168 C166 1.380 . S
C168 C169 1.170 1_556 S
C169 C168 1.170 1_554 S
C170 C171 1.170 . S
C170 C172 1.380 . S
C171 C170 1.170 . S
C172 C170 1.380 . S
C172 C173 1.170 . S
C173 C172 1.170 . S
C174 C175 1.170 . S
C174 C176 1.380 . S
C175 C174 1.170 . S
C176 C174 1.380 . S
C176 C177 1.170 . S
C177 C176 1.170 . S
C178 C179 1.170 . S
C178 C180 1.380 . S
C179 C178 1.170 . S
C180 C178 1.380 . S
C180 C181 1.170 . S
C181 C180 1.170 . S
C182 C183 1.170 . S
C182 C184 1.380 . S
C183 C182 1.170 . S
C184 C182 1.380 . S
C184 C185 1.170 . S
C185 C184 1.170 . S
C186 C187 1.170 . S
C186 C188 1.380 . S
C187 C186 1.170 . S
C188 C186 1.380 . S
C188 C189 1.170 . S
C189 C188 1.170 . S
C190 C191 1.170 . S
C190 C192 1.380 . S
C191 C190 1.170 . S
C192 C190 1.380 . S
C192 C193 1.170 . S
C193 C192 1.170 . S
C194 C195 1.170 . S
C194 C196 1.380 . S
C195 C194 1.170 . S
C196 C194 1.380 . S
C196 C197 1.170 . S
C197 C196 1.170 . S
C127 C120 1.374 . S
C129 C13 1.461 . S
C131 C15 1.395 . S
C133 C34 1.474 . S
C135 C36 1.421 . S
C137 C55 1.481 . S
C139 C57 1.403 . S
C141 C76 1.478 . S
C143 C97 1.451 . S
C145 C78 1.365 . S
C147 C118 1.450 . S
C149 C99 1.377 . S
C151 C14 1.271 . S
C153 C16 1.244 . S
C155 C35 1.257 . S
C157 C37 1.274 . S
C159 C56 1.271 . S
C161 C58 1.244 1_554 S
C163 C77 1.257 . S
C165 C79 1.263 . S
C167 C100 1.230 . S
C169 C98 1.286 . S
C171 C119 1.267 . S
C173 C121 1.249 1_554 S
C175 C17 1.392 . S
C177 C102 1.290 . S
C179 C38 1.333 . S
C181 C123 1.211 . S
C183 C18 1.222 . S
C185 C59 1.345 . S
C187 C39 1.288 . S
C189 C80 1.385 . S
C191 C101 1.332 . S
C193 C60 1.212 . S
C195 C81 1.286 . S
C197 C122 1.383 . S
