# Generated by pormake.
# Topology lcy, (6)-cn, num edge types: 1
# Building blocks:
#     Node 0, Type 0, BuildingBlock: IZENUY_clean_sbu_0, # of connection points: 6
#     Node 1, Type 0, BuildingBlock: IZENUY_clean_sbu_0, # of connection points: 6
#     Node 2, Type 0, BuildingBlock: IZENUY_clean_sbu_0, # of connection points: 6
#     Node 3, Type 0, BuildingBlock: IZENUY_clean_sbu_0, # of connection points: 6
#     Edge 4, Type (0, 0), None
#     Edge 5, Type (0, 0), None
#     Edge 6, Type (0, 0), None
#     Edge 7, Type (0, 0), None
#     Edge 8, Type (0, 0), None
#     Edge 9, Type (0, 0), None
#     Edge 10, Type (0, 0), None
#     Edge 11, Type (0, 0), None
#     Edge 12, Type (0, 0), None
#     Edge 13, Type (0, 0), None
#     Edge 14, Type (0, 0), None
#     Edge 15, Type (0, 0), None
# Relax obj value: 0.233
# Max RMSD: 0.227
# Mean RMSD: 0.227
data_MOF--net-lcy--node1-IZENUY_clean_sbu_0--edge1-none
_symmetry_space_group_name_H-M    P1
_symmetry_Int_Tables_number       1
_symmetry_cell_setting            triclinic
loop_
_symmetry_equiv_pos_as_xyz
'x, y, z'
_cell_length_a     12.019509
_cell_length_b     12.019509
_cell_length_c     12.019509
_cell_angle_alpha  89.99968
_cell_angle_beta   89.999684
_cell_angle_gamma 89.999743
loop_
_atom_site_label
_atom_site_type_symbol
_atom_site_fract_x
_atom_site_fract_y
_atom_site_fract_z
_atom_type_partial_charge
Fe0 Fe 0.49847 0.39598 0.29415 0.0
Fe1 Fe 0.39598 0.29415 0.49847 0.0
O2 O 0.39625 0.39625 0.39625 0.0
Fe3 Fe 0.29415 0.49847 0.39598 0.0
O4 O 0.24021 0.44983 0.27 0.0
O5 O 0.40054 0.46499 0.18531 0.0
O6 O 0.44983 0.27 0.24022 0.0
C7 C 0.47738 0.18673 0.29301 0.0
C8 C 0.50005 0.60528 0.31468 0.0
O9 O 0.465 0.18531 0.40054 0.0
C10 C 0.31468 0.50005 0.60528 0.0
O11 O 0.60695 0.32695 0.3925 0.0
O12 O 0.52196 0.34243 0.55269 0.0
O13 O 0.3925 0.60695 0.32695 0.0
O14 O 0.55269 0.52196 0.34243 0.0
C15 C 0.18673 0.29301 0.47738 0.0
O16 O 0.32695 0.3925 0.60695 0.0
O17 O 0.34243 0.55269 0.52197 0.0
C18 C 0.60528 0.31468 0.50005 0.0
O19 O 0.27 0.24022 0.44983 0.0
O20 O 0.18531 0.40054 0.465 0.0
C21 C 0.29301 0.47738 0.18673 0.0
Fe22 Fe 0.79415 0.04427 0.64676 0.0
Fe23 Fe 0.89598 0.24859 0.54426 0.0
O24 O 0.89625 0.14648 0.64648 0.0
Fe25 Fe 0.99847 0.14676 0.74859 0.0
O26 O 0.0527 0.02077 0.70032 0.0
O27 O 0.8925 0.93579 0.71578 0.0
O28 O 0.84241 0.99004 0.52077 0.0
C29 C 0.81471 0.04268 0.43744 0.0
C30 C 0.79302 0.06533 0.85599 0.0
O31 O 0.82695 0.15024 0.43579 0.0
C32 C 0.97741 0.35599 0.74972 0.0
O33 O 0.68531 0.14219 0.57775 0.0
O34 O 0.77 0.30252 0.5929 0.0
O35 O 0.90055 0.07774 0.85743 0.0
O36 O 0.74023 0.09293 0.77274 0.0
C37 C 0.10529 0.22801 0.54267 0.0
O38 O 0.965 0.35743 0.64219 0.0
O39 O 0.94982 0.27274 0.80251 0.0
C40 C 0.68676 0.24972 0.56533 0.0
O41 O 0.02196 0.20031 0.49003 0.0
O42 O 0.10695 0.21578 0.65023 0.0
C43 C 1.00006 0.93744 0.72802 0.0
Fe44 Fe 0.04427 0.64676 0.79415 0.0
Fe45 Fe 0.24859 0.54426 0.89598 0.0
O46 O 0.14648 0.64648 0.89625 0.0
Fe47 Fe 0.14676 0.74859 0.99847 0.0
O48 O 0.02077 0.70033 0.0527 0.0
O49 O 0.93579 0.71579 0.8925 0.0
O50 O 0.99003 0.52078 0.84241 0.0
C51 C 0.04268 0.43745 0.81471 0.0
C52 C 0.06533 0.85598 0.79302 0.0
O53 O 0.15024 0.43579 0.82696 0.0
C54 C 0.35599 0.74972 0.97741 0.0
O55 O 0.14219 0.57775 0.68531 0.0
O56 O 0.30252 0.5929 0.77 0.0
O57 O 0.07774 0.85743 0.90055 0.0
O58 O 0.09293 0.77274 0.74022 0.0
C59 C 0.22801 0.54267 0.10529 0.0
O60 O 0.35743 0.64219 0.965 0.0
O61 O 0.27274 0.80251 0.94982 0.0
C62 C 0.24971 0.56532 0.68676 0.0
O63 O 0.20031 0.49004 0.02196 0.0
O64 O 0.21578 0.65024 0.10695 0.0
C65 C 0.93744 0.72803 1.00006 0.0
Fe66 Fe 0.54426 0.89598 0.24859 0.0
Fe67 Fe 0.74859 0.99847 0.14676 0.0
O68 O 0.64648 0.89625 0.14648 0.0
Fe69 Fe 0.64676 0.79415 0.04427 0.0
O70 O 0.52077 0.84241 0.99003 0.0
O71 O 0.43579 0.82696 0.15024 0.0
O72 O 0.49004 0.02196 0.20031 0.0
C73 C 0.54267 0.10529 0.22801 0.0
C74 C 0.56532 0.68676 0.24971 0.0
O75 O 0.65024 0.10695 0.21579 0.0
C76 C 0.85598 0.79302 0.06533 0.0
O77 O 0.64219 0.965 0.35743 0.0
O78 O 0.80252 0.94982 0.27274 0.0
O79 O 0.57775 0.68531 0.14219 0.0
O80 O 0.5929 0.77 0.30252 0.0
C81 C 0.72802 1.00006 0.93745 0.0
O82 O 0.85743 0.90055 0.07774 0.0
O83 O 0.77274 0.74022 0.09292 0.0
C84 C 0.74971 0.97741 0.35598 0.0
O85 O 0.70033 0.05271 0.02078 0.0
O86 O 0.71578 0.8925 0.93579 0.0
C87 C 0.43745 0.81471 0.04268 0.0
loop_
_geom_bond_atom_site_label_1
_geom_bond_atom_site_label_2
_geom_bond_distance
_geom_bond_site_symmetry_2
_ccdc_geom_bond_type
Fe0 O2 1.918 . S
Fe0 O5 1.997 . S
Fe0 O6 2.002 . S
Fe0 O11 1.976 . S
Fe0 O14 1.996 . S
Fe1 O2 1.918 . S
Fe1 O9 1.997 . S
Fe1 O12 1.996 . S
Fe1 O16 1.976 . S
Fe1 O19 2.002 . S
O2 Fe0 1.918 . S
O2 Fe1 1.918 . S
O2 Fe3 1.918 . S
Fe3 O2 1.918 . S
Fe3 O4 2.002 . S
Fe3 O13 1.976 . S
Fe3 O17 1.996 . S
Fe3 O20 1.997 . S
O4 Fe3 2.002 . S
O4 C21 1.295 . S
O5 Fe0 1.997 . S
O5 C21 1.235 . S
O6 Fe0 2.002 . S
O6 C7 1.295 . S
C7 O6 1.295 . S
C7 O9 1.235 . S
C8 O13 1.287 . S
C8 O14 1.255 . S
O9 Fe1 1.997 . S
O9 C7 1.235 . S
C10 O16 1.287 . S
C10 O17 1.255 . S
O11 Fe0 1.976 . S
O11 C18 1.287 . S
O12 Fe1 1.996 . S
O12 C18 1.255 . S
O13 Fe3 1.976 . S
O13 C8 1.287 . S
O14 Fe0 1.996 . S
O14 C8 1.255 . S
C15 O19 1.295 . S
C15 O20 1.235 . S
O16 Fe1 1.976 . S
O16 C10 1.287 . S
O17 Fe3 1.996 . S
O17 C10 1.255 . S
C18 O11 1.287 . S
C18 O12 1.255 . S
O19 Fe1 2.002 . S
O19 C15 1.295 . S
O20 Fe3 1.997 . S
O20 C15 1.235 . S
C21 O4 1.295 . S
C21 O5 1.235 . S
Fe22 O24 1.918 . S
Fe22 O27 1.997 1_545 S
Fe22 O28 2.002 1_545 S
Fe22 O33 1.976 . S
Fe22 O36 1.996 . S
Fe23 O24 1.918 . S
Fe23 O31 1.997 . S
Fe23 O34 1.996 . S
Fe23 O38 1.976 . S
Fe23 O41 2.002 1_655 S
O24 Fe22 1.918 . S
O24 Fe23 1.918 . S
O24 Fe25 1.918 . S
Fe25 O24 1.918 . S
Fe25 O26 2.002 1_645 S
Fe25 O35 1.976 . S
Fe25 O39 1.996 . S
Fe25 O42 1.997 1_655 S
O26 Fe25 2.002 1_465 S
O26 C43 1.295 1_455 S
O27 Fe22 1.997 1_565 S
O27 C43 1.235 . S
O28 Fe22 2.002 1_565 S
O28 C29 1.295 1_565 S
C29 O28 1.295 1_545 S
C29 O31 1.235 . S
C30 O35 1.287 . S
C30 O36 1.255 . S
O31 Fe23 1.997 . S
O31 C29 1.235 . S
C32 O38 1.287 . S
C32 O39 1.255 . S
O33 Fe22 1.976 . S
O33 C40 1.287 . S
O34 Fe23 1.996 . S
O34 C40 1.255 . S
O35 Fe25 1.976 . S
O35 C30 1.287 . S
O36 Fe22 1.996 . S
O36 C30 1.255 . S
C37 O41 1.295 . S
C37 O42 1.235 . S
O38 Fe23 1.976 . S
O38 C32 1.287 . S
O39 Fe25 1.996 . S
O39 C32 1.255 . S
C40 O33 1.287 . S
C40 O34 1.255 . S
O41 Fe23 2.002 1_455 S
O41 C37 1.295 . S
O42 Fe25 1.997 1_455 S
O42 C37 1.235 . S
C43 O26 1.295 1_655 S
C43 O27 1.235 . S
Fe44 O46 1.918 . S
Fe44 O49 1.997 1_455 S
Fe44 O50 2.002 1_455 S
Fe44 O55 1.976 . S
Fe44 O58 1.996 . S
Fe45 O46 1.918 . S
Fe45 O53 1.997 . S
Fe45 O56 1.996 . S
Fe45 O60 1.976 . S
Fe45 O63 2.002 1_556 S
O46 Fe44 1.918 . S
O46 Fe45 1.918 . S
O46 Fe47 1.918 . S
Fe47 O46 1.918 . S
Fe47 O48 2.002 1_456 S
Fe47 O57 1.976 . S
Fe47 O61 1.996 . S
Fe47 O64 1.997 1_556 S
O48 Fe47 2.002 1_654 S
O48 C65 1.295 1_554 S
O49 Fe44 1.997 1_655 S
O49 C65 1.235 . S
O50 Fe44 2.002 1_655 S
O50 C51 1.295 1_655 S
C51 O50 1.295 1_455 S
C51 O53 1.235 . S
C52 O57 1.287 . S
C52 O58 1.255 . S
O53 Fe45 1.997 . S
O53 C51 1.235 . S
C54 O60 1.287 . S
C54 O61 1.255 . S
O55 Fe44 1.976 . S
O55 C62 1.287 . S
O56 Fe45 1.996 . S
O56 C62 1.255 . S
O57 Fe47 1.976 . S
O57 C52 1.287 . S
O58 Fe44 1.996 . S
O58 C52 1.255 . S
C59 O63 1.295 . S
C59 O64 1.235 . S
O60 Fe45 1.976 . S
O60 C54 1.287 . S
O61 Fe47 1.996 . S
O61 C54 1.255 . S
C62 O55 1.287 . S
C62 O56 1.255 . S
O63 Fe45 2.002 1_554 S
O63 C59 1.295 . S
O64 Fe47 1.997 1_554 S
O64 C59 1.235 . S
C65 O48 1.295 1_556 S
C65 O49 1.235 . S
Fe66 O68 1.918 . S
Fe66 O71 1.997 . S
Fe66 O72 2.002 1_565 S
Fe66 O77 1.976 . S
Fe66 O80 1.996 . S
Fe67 O68 1.918 . S
Fe67 O75 1.997 1_565 S
Fe67 O78 1.996 . S
Fe67 O82 1.976 . S
Fe67 O85 2.002 1_564 S
O68 Fe66 1.918 . S
O68 Fe67 1.918 . S
O68 Fe69 1.918 . S
Fe69 O68 1.918 . S
Fe69 O70 2.002 1_554 S
Fe69 O79 1.976 . S
Fe69 O83 1.996 . S
Fe69 O86 1.997 1_554 S
O70 Fe69 2.002 1_556 S
O70 C87 1.295 1_556 S
O71 Fe66 1.997 . S
O71 C87 1.235 . S
O72 Fe66 2.002 1_545 S
O72 C73 1.295 . S
C73 O72 1.295 . S
C73 O75 1.235 . S
C74 O79 1.287 . S
C74 O80 1.255 . S
O75 Fe67 1.997 1_545 S
O75 C73 1.235 . S
C76 O82 1.287 . S
C76 O83 1.255 . S
O77 Fe66 1.976 . S
O77 C84 1.287 . S
O78 Fe67 1.996 . S
O78 C84 1.255 . S
O79 Fe69 1.976 . S
O79 C74 1.287 . S
O80 Fe66 1.996 . S
O80 C74 1.255 . S
C81 O85 1.295 1_565 S
C81 O86 1.235 . S
O82 Fe67 1.976 . S
O82 C76 1.287 . S
O83 Fe69 1.996 . S
O83 C76 1.255 . S
C84 O77 1.287 . S
C84 O78 1.255 . S
O85 Fe67 2.002 1_546 S
O85 C81 1.295 1_545 S
O86 Fe69 1.997 1_556 S
O86 C81 1.235 . S
C87 O70 1.295 1_554 S
C87 O71 1.235 . S
C59 C21 1.816 . S
C84 C29 1.774 1_565 S
C62 C10 1.736 . S
C81 C30 1.774 1_565 S
C37 C15 1.816 . S
C52 C43 1.774 1_455 S
C54 C87 1.774 1_556 S
C7 C73 1.816 . S
C40 C18 1.736 . S
C51 C32 1.774 1_455 S
C65 C76 1.774 1_556 S
C74 C8 1.736 . S
