# Generated by pormake.
# Topology sxa, (6)-cn, num edge types: 1
# Building blocks:
#     Node 0, Type 0, BuildingBlock: LEVNOQ01_clean_sbu_1, # of connection points: 6
#     Node 1, Type 0, BuildingBlock: LEVNOQ01_clean_sbu_1, # of connection points: 6
#     Node 2, Type 0, BuildingBlock: LEVNOQ01_clean_sbu_1, # of connection points: 6
#     Node 3, Type 0, BuildingBlock: LEVNOQ01_clean_sbu_1, # of connection points: 6
#     Edge 4, Type (0, 0), None
#     Edge 5, Type (0, 0), None
#     Edge 6, Type (0, 0), None
#     Edge 7, Type (0, 0), None
#     Edge 8, Type (0, 0), None
#     Edge 9, Type (0, 0), None
#     Edge 10, Type (0, 0), None
#     Edge 11, Type (0, 0), None
#     Edge 12, Type (0, 0), None
#     Edge 13, Type (0, 0), None
#     Edge 14, Type (0, 0), None
#     Edge 15, Type (0, 0), None
# Relax obj value: 0.185
# Max RMSD: 0.235
# Mean RMSD: 0.235
data_MOF--net-sxa--node1-LEVNOQ01_clean_sbu_1--edge1-none
_symmetry_space_group_name_H-M    P1
_symmetry_Int_Tables_number       1
_symmetry_cell_setting            triclinic
loop_
_symmetry_equiv_pos_as_xyz
'x, y, z'
_cell_length_a     11.783116
_cell_length_b     13.079661
_cell_length_c     8.885222
_cell_angle_alpha  89.961942
_cell_angle_beta   89.995768
_cell_angle_gamma 90.00863
loop_
_atom_site_label
_atom_site_type_symbol
_atom_site_fract_x
_atom_site_fract_y
_atom_site_fract_z
_atom_type_partial_charge
O0 O 0.20918 0.61396 0.10979 0.0
Mg1 Mg 0.07372 0.54371 0.22473 0.0
O2 O 0.14218 0.75336 -0.00895 0.0
Mg3 Mg 0.99426 0.77933 0.12504 0.0
O4 O 0.95592 0.6075 0.09437 0.0
O5 O 0.98212 0.44364 0.07141 0.0
O6 O 0.8198 0.79399 0.27724 0.0
O7 O 0.88318 0.79705 -0.06512 0.0
Mg8 Mg 0.90018 1.01089 0.18313 0.0
O9 O 0.03915 0.9519 0.10034 0.0
O10 O 0.82113 0.94666 0.38077 0.0
O11 O 0.80201 0.94076 0.01934 0.0
O12 O 0.00921 0.11619 0.068 0.0
C13 C 0.15337 0.70038 0.42687 0.0
C14 C 0.22029 0.69043 0.02288 0.0
C15 C 0.94976 0.527 0.00775 0.0
C16 C 0.77267 0.86073 0.36318 0.0
C17 C 0.80883 0.86629 -0.07039 0.0
C18 C 0.05262 0.03305 0.0147 0.0
O19 O 0.08723 0.6234 0.43502 0.0
O20 O 0.13274 0.76699 0.32526 0.0
O21 O 0.70894 0.11004 0.02574 0.0
Mg22 Mg 0.60783 0.04036 0.18648 0.0
O23 O 0.62609 0.25119 -0.06484 0.0
Mg24 Mg 0.51487 0.26933 0.12492 0.0
O25 O 0.46827 0.09683 0.10037 0.0
O26 O 0.5037 0.93319 0.06814 0.0
O27 O 0.37607 0.28225 0.32441 0.0
O28 O 0.36761 0.29578 -0.00936 0.0
Mg29 Mg 0.43636 0.50619 0.22393 0.0
O30 O 0.55296 0.44104 0.09385 0.0
O31 O 0.42114 0.42602 0.43399 0.0
O32 O 0.30141 0.43627 0.10753 0.0
O33 O 0.52987 0.60512 0.0704 0.0
C34 C 0.73449 0.18861 0.36666 0.0
C35 C 0.70195 0.18323 -0.06627 0.0
C36 C 0.45839 1.01544 0.01438 0.0
C37 C 0.35511 0.34896 0.42561 0.0
C38 C 0.29009 0.35952 0.02129 0.0
C39 C 0.56086 0.52132 0.00695 0.0
O40 O 0.68452 0.10354 0.38616 0.0
O41 O 0.68892 0.25464 0.27803 0.0
O42 O 0.2086 0.43977 0.82784 0.0
Mg43 Mg 0.108 0.50906 0.66628 0.0
O44 O 0.12669 0.29752 0.91647 0.0
Mg45 Mg 0.01513 0.27931 0.72718 0.0
O46 O 0.96869 0.45175 0.75165 0.0
O47 O 1.00291 0.61568 0.78404 0.0
O48 O 0.87596 0.26646 0.52806 0.0
O49 O 0.86806 0.25312 0.8622 0.0
Mg50 Mg 0.93596 0.04259 0.62856 0.0
O51 O 0.05323 0.10747 0.758 0.0
O52 O 0.92043 0.12255 0.41838 0.0
O53 O 0.80136 0.11283 0.74543 0.0
O54 O 0.02981 0.94334 0.78128 0.0
C55 C 0.23506 0.36043 0.48612 0.0
C56 C 0.20181 0.36614 0.91915 0.0
C57 C 0.95834 0.53306 0.83768 0.0
C58 C 0.85467 0.19977 0.42693 0.0
C59 C 0.79024 0.18969 0.83146 0.0
C60 C 0.06125 0.02705 0.84464 0.0
O61 O 0.18564 0.44581 0.46732 0.0
O62 O 0.18899 0.29409 0.57384 0.0
O63 O 0.30116 0.60961 0.82957 0.0
Mg64 Mg 0.40072 0.53971 0.66732 0.0
O65 O 0.38414 0.75148 0.9173 0.0
Mg66 Mg 0.49475 0.76913 0.72646 0.0
O67 O 0.54094 0.59655 0.75086 0.0
O68 O 0.50623 0.43276 0.78399 0.0
O69 O 0.63267 0.7817 0.52572 0.0
O70 O 0.64296 0.79552 0.85936 0.0
Mg71 Mg 0.57327 1.00579 0.6262 0.0
O72 O 0.45735 0.9409 0.75778 0.0
O73 O 0.58638 0.9253 0.4164 0.0
O74 O 0.70897 0.93554 0.74078 0.0
O75 O 0.48081 0.10499 0.78048 0.0
C76 C 0.2734 0.68847 0.48734 0.0
C77 C 0.30853 0.6833 0.92055 0.0
C78 C 0.55151 0.51522 0.83697 0.0
C79 C 0.65283 0.84852 0.42427 0.0
C80 C 0.72062 0.85891 0.82732 0.0
C81 C 0.44969 1.0213 0.84429 0.0
O82 O 0.32239 0.6029 0.46868 0.0
O83 O 0.32 0.75472 0.57459 0.0
loop_
_geom_bond_atom_site_label_1
_geom_bond_atom_site_label_2
_geom_bond_distance
_geom_bond_site_symmetry_2
_ccdc_geom_bond_type
O0 Mg1 1.990 1_556 S
O0 C14 1.253 . S
Mg1 O0 1.990 1_554 S
Mg1 O4 2.180 . S
Mg1 O5 2.117 . S
Mg1 O19 2.030 . S
O2 Mg3 2.072 . S
O2 C14 1.260 1_554 S
Mg3 O2 2.072 . S
Mg3 O4 2.099 . S
Mg3 O6 2.079 1_455 S
Mg3 O7 2.072 1_455 S
Mg3 O9 2.099 1_455 S
Mg3 O20 2.079 . S
O4 Mg1 2.180 . S
O4 Mg3 2.099 . S
O4 C15 1.279 . S
O5 Mg1 2.117 . S
O5 C15 1.250 . S
O6 Mg3 2.079 1_655 S
O6 C16 1.264 . S
O7 Mg3 2.072 1_655 S
O7 C17 1.260 1_554 S
Mg8 O9 2.180 . S
Mg8 O10 2.030 . S
Mg8 O11 1.990 1_554 S
Mg8 O12 2.117 1_565 S
O9 Mg3 2.099 1_655 S
O9 Mg8 2.180 . S
O9 C18 1.279 . S
O10 Mg8 2.030 . S
O10 C16 1.248 . S
O11 Mg8 1.990 1_556 S
O11 C17 1.253 . S
O12 Mg8 2.117 1_545 S
O12 C18 1.250 1_545 S
C13 O19 1.248 . S
C13 O20 1.264 . S
C14 O0 1.253 . S
C14 O2 1.260 1_556 S
C15 O4 1.279 . S
C15 O5 1.250 . S
C16 O6 1.264 . S
C16 O10 1.248 . S
C17 O7 1.260 1_556 S
C17 O11 1.253 . S
C18 O9 1.279 . S
C18 O12 1.250 1_565 S
O19 Mg1 2.030 . S
O19 C13 1.248 . S
O20 Mg3 2.079 . S
O20 C13 1.264 . S
O21 Mg22 1.990 1_556 S
O21 C35 1.253 . S
Mg22 O21 1.990 1_554 S
Mg22 O25 2.180 . S
Mg22 O26 2.117 1_545 S
Mg22 O40 2.030 . S
O23 Mg24 2.072 . S
O23 C35 1.260 1_554 S
Mg24 O23 2.072 . S
Mg24 O25 2.099 . S
Mg24 O27 2.079 . S
Mg24 O28 2.072 . S
Mg24 O30 2.099 . S
Mg24 O41 2.079 . S
O25 Mg22 2.180 . S
O25 Mg24 2.099 . S
O25 C36 1.279 . S
O26 Mg22 2.117 1_565 S
O26 C36 1.250 1_565 S
O27 Mg24 2.079 . S
O27 C37 1.264 . S
O28 Mg24 2.072 . S
O28 C38 1.260 1_554 S
Mg29 O30 2.180 . S
Mg29 O31 2.030 . S
Mg29 O32 1.990 1_554 S
Mg29 O33 2.117 . S
O30 Mg24 2.099 . S
O30 Mg29 2.180 . S
O30 C39 1.279 . S
O31 Mg29 2.030 . S
O31 C37 1.248 . S
O32 Mg29 1.990 1_556 S
O32 C38 1.253 . S
O33 Mg29 2.117 . S
O33 C39 1.250 . S
C34 O40 1.248 . S
C34 O41 1.264 . S
C35 O21 1.253 . S
C35 O23 1.260 1_556 S
C36 O25 1.279 . S
C36 O26 1.250 1_545 S
C37 O27 1.264 . S
C37 O31 1.248 . S
C38 O28 1.260 1_556 S
C38 O32 1.253 . S
C39 O30 1.279 . S
C39 O33 1.250 . S
O40 Mg22 2.030 . S
O40 C34 1.248 . S
O41 Mg24 2.079 . S
O41 C34 1.264 . S
O42 Mg43 1.990 1_554 S
O42 C56 1.253 . S
Mg43 O42 1.990 1_556 S
Mg43 O46 2.180 . S
Mg43 O47 2.117 . S
Mg43 O61 2.030 . S
O44 Mg45 2.072 . S
O44 C56 1.260 1_556 S
Mg45 O44 2.072 . S
Mg45 O46 2.099 . S
Mg45 O48 2.079 1_455 S
Mg45 O49 2.072 1_455 S
Mg45 O51 2.099 1_455 S
Mg45 O62 2.079 . S
O46 Mg43 2.180 . S
O46 Mg45 2.099 . S
O46 C57 1.279 . S
O47 Mg43 2.117 . S
O47 C57 1.250 . S
O48 Mg45 2.079 1_655 S
O48 C58 1.264 . S
O49 Mg45 2.072 1_655 S
O49 C59 1.260 1_556 S
Mg50 O51 2.180 . S
Mg50 O52 2.030 . S
Mg50 O53 1.990 1_556 S
Mg50 O54 2.117 1_545 S
O51 Mg45 2.099 1_655 S
O51 Mg50 2.180 . S
O51 C60 1.279 . S
O52 Mg50 2.030 . S
O52 C58 1.248 . S
O53 Mg50 1.990 1_554 S
O53 C59 1.253 . S
O54 Mg50 2.117 1_565 S
O54 C60 1.250 1_565 S
C55 O61 1.248 . S
C55 O62 1.264 . S
C56 O42 1.253 . S
C56 O44 1.260 1_554 S
C57 O46 1.279 . S
C57 O47 1.250 . S
C58 O48 1.264 . S
C58 O52 1.248 . S
C59 O49 1.260 1_554 S
C59 O53 1.253 . S
C60 O51 1.279 . S
C60 O54 1.250 1_545 S
O61 Mg43 2.030 . S
O61 C55 1.248 . S
O62 Mg45 2.079 . S
O62 C55 1.264 . S
O63 Mg64 1.990 1_554 S
O63 C77 1.253 . S
Mg64 O63 1.990 1_556 S
Mg64 O67 2.180 . S
Mg64 O68 2.117 . S
Mg64 O82 2.030 . S
O65 Mg66 2.072 . S
O65 C77 1.260 1_556 S
Mg66 O65 2.072 . S
Mg66 O67 2.099 . S
Mg66 O69 2.079 . S
Mg66 O70 2.072 . S
Mg66 O72 2.099 . S
Mg66 O83 2.079 . S
O67 Mg64 2.180 . S
O67 Mg66 2.099 . S
O67 C78 1.279 . S
O68 Mg64 2.117 . S
O68 C78 1.250 . S
O69 Mg66 2.079 . S
O69 C79 1.264 . S
O70 Mg66 2.072 . S
O70 C80 1.260 1_556 S
Mg71 O72 2.180 . S
Mg71 O73 2.030 . S
Mg71 O74 1.990 1_556 S
Mg71 O75 2.117 1_565 S
O72 Mg66 2.099 . S
O72 Mg71 2.180 . S
O72 C81 1.279 . S
O73 Mg71 2.030 . S
O73 C79 1.248 . S
O74 Mg71 1.990 1_554 S
O74 C80 1.253 . S
O75 Mg71 2.117 1_545 S
O75 C81 1.250 1_545 S
C76 O82 1.248 . S
C76 O83 1.264 . S
C77 O63 1.253 . S
C77 O65 1.260 1_554 S
C78 O67 1.279 . S
C78 O68 1.250 . S
C79 O69 1.264 . S
C79 O73 1.248 . S
C80 O70 1.260 1_554 S
C80 O74 1.253 . S
C81 O72 1.279 . S
C81 O75 1.250 1_565 S
O82 Mg64 2.030 . S
O82 C76 1.248 . S
O83 Mg66 2.079 . S
O83 C76 1.264 . S
C57 C15 2.076 1_556 S
C39 C78 2.076 1_554 S
C81 C36 2.076 1_566 S
C18 C60 2.076 1_564 S
C76 C13 1.324 . S
C55 C37 1.324 . S
C58 C34 1.324 . S
C16 C79 1.324 . S
C77 C14 1.459 1_554 S
C56 C38 1.459 1_554 S
C35 C59 1.459 1_556 S
C17 C80 1.459 1_556 S
