# Generated by pormake.
# Topology acs, (6)-cn, num edge types: 1
# Building blocks:
#     Node 0, Type 0, BuildingBlock: IZENUY_clean_sbu_0, # of connection points: 6
#     Node 1, Type 0, BuildingBlock: IZENUY_clean_sbu_0, # of connection points: 6
#     Edge 2, Type (0, 0), BuildingBlock: CIFDUS_clean_linker_0, # of connection points: 2
#     Edge 3, Type (0, 0), BuildingBlock: CIFDUS_clean_linker_0, # of connection points: 2
#     Edge 4, Type (0, 0), BuildingBlock: CIFDUS_clean_linker_0, # of connection points: 2
#     Edge 5, Type (0, 0), BuildingBlock: CIFDUS_clean_linker_0, # of connection points: 2
#     Edge 6, Type (0, 0), BuildingBlock: CIFDUS_clean_linker_0, # of connection points: 2
#     Edge 7, Type (0, 0), BuildingBlock: CIFDUS_clean_linker_0, # of connection points: 2
# Relax obj value: 0.000
# Max RMSD: 0.012
# Mean RMSD: 0.012
data_MOF--net-acs--node1-IZENUY_clean_sbu_0--edge1-CIFDUS_clean_linker_0
_symmetry_space_group_name_H-M    P1
_symmetry_Int_Tables_number       1
_symmetry_cell_setting            triclinic
loop_
_symmetry_equiv_pos_as_xyz
'x, y, z'
_cell_length_a     19.249967
_cell_length_b     18.844124
_cell_length_c     17.222967
_cell_angle_alpha  90.510909
_cell_angle_beta   89.668225
_cell_angle_gamma 121.19819
loop_
_atom_site_label
_atom_site_type_symbol
_atom_site_fract_x
_atom_site_fract_y
_atom_site_fract_z
_atom_type_partial_charge
Fe0 Fe 0.59127 0.31305 0.26145 0.0
Fe1 Fe 0.75498 0.32146 0.26527 0.0
O2 O 0.6986 0.37141 0.26014 0.0
Fe3 Fe 0.75028 0.48074 0.25337 0.0
O4 O 0.70823 0.48822 0.34432 0.0
O5 O 0.58186 0.39253 0.31671 0.0
O6 O 0.58917 0.26819 0.3541 0.0
C7 C 0.62227 0.22719 0.36862 0.0
C8 C 0.61455 0.42939 0.15518 0.0
O9 O 0.68046 0.23502 0.32695 0.0
C10 C 0.84029 0.44868 0.15398 0.0
O11 O 0.5828 0.22377 0.20678 0.0
O12 O 0.70925 0.26365 0.17742 0.0
O13 O 0.67064 0.48383 0.19763 0.0
O14 O 0.58504 0.35357 0.16862 0.0
C15 C 0.84827 0.45514 0.35777 0.0
O16 O 0.83881 0.39825 0.20348 0.0
O17 O 0.79522 0.47845 0.16198 0.0
C18 C 0.63426 0.21781 0.16499 0.0
O19 O 0.80542 0.37706 0.35367 0.0
O20 O 0.83988 0.49941 0.30826 0.0
C21 C 0.63341 0.4527 0.35869 0.0
Fe22 Fe 0.46779 0.74955 0.75912 0.0
Fe23 Fe 0.30408 0.74114 0.75529 0.0
O24 O 0.36046 0.69119 0.76043 0.0
Fe25 Fe 0.30878 0.58187 0.76719 0.0
O26 O 0.38843 0.57877 0.82294 0.0
O27 O 0.47402 0.70903 0.85194 0.0
O28 O 0.47626 0.83883 0.81378 0.0
C29 C 0.4248 0.8448 0.85558 0.0
C30 C 0.42566 0.6099 0.66187 0.0
O31 O 0.34981 0.79896 0.84314 0.0
C32 C 0.21079 0.60747 0.66279 0.0
O33 O 0.46989 0.79441 0.66647 0.0
O34 O 0.3786 0.82759 0.69361 0.0
O35 O 0.35083 0.57438 0.67625 0.0
O36 O 0.4772 0.67007 0.70386 0.0
C37 C 0.21878 0.61392 0.86658 0.0
O38 O 0.25364 0.68555 0.66689 0.0
O39 O 0.21918 0.56319 0.7123 0.0
C40 C 0.43679 0.83541 0.65195 0.0
O41 O 0.22026 0.66435 0.81708 0.0
O42 O 0.26384 0.58416 0.85859 0.0
C43 C 0.44451 0.63321 0.86539 0.0
H44 H 0.58012 0.96482 0.89435 0.0
H45 H 0.32943 0.87098 0.95535 0.0
H46 H 0.37134 0.97744 0.05535 0.0
H47 H 0.47894 0.09778 0.12621 0.0
H48 H 0.72964 0.19163 0.06521 0.0
H49 H 0.68772 0.08517 0.96521 0.0
C50 C 0.53464 0.96757 0.9295 0.0
C51 C 0.45178 0.90982 0.91684 0.0
C52 C 0.55903 1.02925 0.98728 0.0
C53 C 0.39376 0.91457 0.96328 0.0
C54 C 0.41758 0.97556 0.02075 0.0
C55 C 0.52442 0.09503 0.09106 0.0
C56 C 0.60729 0.15278 0.10372 0.0
C57 C 0.50003 0.03335 0.03328 0.0
C58 C 0.6653 0.14803 0.05728 0.0
C59 C 0.64148 0.08705 0.99982 0.0
H60 H 0.5797 0.64622 0.63052 0.0
H61 H 0.3311 0.49252 0.55441 0.0
H62 H 0.37269 0.42905 0.45533 0.0
H63 H 0.47936 0.41638 0.39004 0.0
H64 H 0.72796 0.57008 0.46615 0.0
H65 H 0.68637 0.63355 0.56524 0.0
C66 C 0.53468 0.5991 0.5921 0.0
C67 C 0.4525 0.5742 0.60021 0.0
C68 C 0.55882 0.56233 0.53521 0.0
C69 C 0.39489 0.51276 0.54989 0.0
C70 C 0.4185 0.47626 0.49306 0.0
C71 C 0.52438 0.46351 0.42847 0.0
C72 C 0.60656 0.48841 0.42036 0.0
C73 C 0.50024 0.50028 0.48535 0.0
C74 C 0.66417 0.54984 0.47067 0.0
C75 C 0.64056 0.58635 0.5275 0.0
H76 H 0.97133 0.43092 0.13989 0.0
H77 H 0.85148 0.54457 0.03123 0.0
H78 H 0.95922 0.60785 0.93429 0.0
H79 H 0.08773 0.63168 0.88068 0.0
H80 H 0.20758 0.51803 0.98934 0.0
H81 H 0.09984 0.45475 0.08627 0.0
C82 C 0.96847 0.4691 0.09475 0.0
C83 C 0.90345 0.48296 0.09294 0.0
C84 C 0.03094 0.50593 0.03948 0.0
C85 C 0.90098 0.53302 0.0342 0.0
C86 C 0.96263 0.56941 0.97874 0.0
C87 C 0.09059 0.5935 0.92581 0.0
C88 C 0.15561 0.57964 0.92762 0.0
C89 C 1.02812 0.55668 0.98109 0.0
C90 C 0.15808 0.52958 0.98637 0.0
C91 C 0.09643 0.49319 0.04182 0.0
H92 H 0.41798 0.9682 0.63113 0.0
H93 H 0.54213 0.85023 0.53782 0.0
H94 H 0.61308 0.96211 0.44457 0.0
H95 H 0.64108 0.0944 0.38944 0.0
H96 H 0.51693 0.21237 0.48274 0.0
H97 H 0.44598 0.10049 0.57599 0.0
C98 C 0.45996 0.96656 0.58994 0.0
C99 C 0.47441 0.90067 0.59164 0.0
C100 C 0.50151 0.03178 0.53673 0.0
C101 C 0.52977 0.90016 0.53812 0.0
C102 C 0.57068 0.96431 0.48475 0.0
C103 C 0.5991 0.09604 0.43062 0.0
C104 C 0.58465 0.16194 0.42893 0.0
C105 C 0.55755 1.03082 0.48383 0.0
C106 C 0.52929 0.16244 0.48244 0.0
C107 C 0.48838 0.09829 0.53581 0.0
H108 H 0.41306 0.47751 0.89492 0.0
H109 H 0.56259 0.73267 0.96963 0.0
H110 H 0.62943 0.69237 0.06433 0.0
H111 H 0.64601 0.58509 0.12564 0.0
H112 H 0.49647 0.32993 0.05093 0.0
H113 H 0.42963 0.37024 0.95623 0.0
C114 C 0.46004 0.52437 0.93207 0.0
C115 C 0.48267 0.60802 0.92498 0.0
C116 C 0.49865 0.50092 0.98619 0.0
C117 C 0.54392 0.66782 0.97361 0.0
C118 C 0.58234 0.64488 0.02779 0.0
C119 C 0.59902 0.53823 0.08849 0.0
C120 C 0.57639 0.45458 0.09559 0.0
C121 C 0.56042 0.56168 0.03438 0.0
C122 C 0.51514 0.39479 0.04695 0.0
C123 C 0.47673 0.41772 0.99277 0.0
H124 H 0.15305 0.68129 0.56894 0.0
H125 H 0.11438 0.44204 0.63165 0.0
H126 H 0.99773 0.37366 0.5449 0.0
H127 H 0.90601 0.38131 0.45162 0.0
H128 H 0.94468 0.62056 0.38891 0.0
H129 H 0.06133 0.68894 0.47566 0.0
C130 C 0.11942 0.61423 0.56339 0.0
C131 C 0.14258 0.56704 0.60692 0.0
C132 C 0.05189 0.57504 0.51372 0.0
C133 C 0.09792 0.48007 0.59908 0.0
C134 C 0.03101 0.44076 0.54952 0.0
C135 C 0.93964 0.44837 0.45718 0.0
C136 C 0.91648 0.49556 0.41365 0.0
C137 C 1.00718 0.48756 0.50684 0.0
C138 C 0.96114 0.58253 0.42149 0.0
C139 C 1.02805 0.62185 0.47105 0.0
loop_
_geom_bond_atom_site_label_1
_geom_bond_atom_site_label_2
_geom_bond_distance
_geom_bond_site_symmetry_2
_ccdc_geom_bond_type
Fe0 O2 1.918 . S
Fe0 O5 1.997 . S
Fe0 O6 2.002 . S
Fe0 O11 1.976 . S
Fe0 O14 1.996 . S
Fe1 O2 1.918 . S
Fe1 O9 1.997 . S
Fe1 O12 1.996 . S
Fe1 O16 1.976 . S
Fe1 O19 2.002 . S
O2 Fe0 1.918 . S
O2 Fe1 1.918 . S
O2 Fe3 1.918 . S
Fe3 O2 1.918 . S
Fe3 O4 2.002 . S
Fe3 O13 1.976 . S
Fe3 O17 1.996 . S
Fe3 O20 1.997 . S
O4 Fe3 2.002 . S
O4 C21 1.295 . S
O5 Fe0 1.997 . S
O5 C21 1.235 . S
O6 Fe0 2.002 . S
O6 C7 1.295 . S
C7 O6 1.295 . S
C7 O9 1.235 . S
C8 O13 1.287 . S
C8 O14 1.255 . S
O9 Fe1 1.997 . S
O9 C7 1.235 . S
C10 O16 1.287 . S
C10 O17 1.255 . S
O11 Fe0 1.976 . S
O11 C18 1.287 . S
O12 Fe1 1.996 . S
O12 C18 1.255 . S
O13 Fe3 1.976 . S
O13 C8 1.287 . S
O14 Fe0 1.996 . S
O14 C8 1.255 . S
C15 O19 1.295 . S
C15 O20 1.235 . S
O16 Fe1 1.976 . S
O16 C10 1.287 . S
O17 Fe3 1.996 . S
O17 C10 1.255 . S
C18 O11 1.287 . S
C18 O12 1.255 . S
O19 Fe1 2.002 . S
O19 C15 1.295 . S
O20 Fe3 1.997 . S
O20 C15 1.235 . S
C21 O4 1.295 . S
C21 O5 1.235 . S
Fe22 O24 1.918 . S
Fe22 O27 1.997 . S
Fe22 O28 2.002 . S
Fe22 O33 1.976 . S
Fe22 O36 1.996 . S
Fe23 O24 1.918 . S
Fe23 O31 1.997 . S
Fe23 O34 1.996 . S
Fe23 O38 1.976 . S
Fe23 O41 2.002 . S
O24 Fe22 1.918 . S
O24 Fe23 1.918 . S
O24 Fe25 1.918 . S
Fe25 O24 1.918 . S
Fe25 O26 2.002 . S
Fe25 O35 1.976 . S
Fe25 O39 1.996 . S
Fe25 O42 1.997 . S
O26 Fe25 2.002 . S
O26 C43 1.295 . S
O27 Fe22 1.997 . S
O27 C43 1.235 . S
O28 Fe22 2.002 . S
O28 C29 1.295 . S
C29 O28 1.295 . S
C29 O31 1.235 . S
C30 O35 1.287 . S
C30 O36 1.255 . S
O31 Fe23 1.997 . S
O31 C29 1.235 . S
C32 O38 1.287 . S
C32 O39 1.255 . S
O33 Fe22 1.976 . S
O33 C40 1.287 . S
O34 Fe23 1.996 . S
O34 C40 1.255 . S
O35 Fe25 1.976 . S
O35 C30 1.287 . S
O36 Fe22 1.996 . S
O36 C30 1.255 . S
C37 O41 1.295 . S
C37 O42 1.235 . S
O38 Fe23 1.976 . S
O38 C32 1.287 . S
O39 Fe25 1.996 . S
O39 C32 1.255 . S
C40 O33 1.287 . S
C40 O34 1.255 . S
O41 Fe23 2.002 . S
O41 C37 1.295 . S
O42 Fe25 1.997 . S
O42 C37 1.235 . S
C43 O26 1.295 . S
C43 O27 1.235 . S
H44 C50 0.930 . S
H45 C53 0.930 . S
H46 C54 0.930 . S
H47 C55 0.930 . S
H48 C58 0.930 . S
H49 C59 0.930 . S
C50 H44 0.930 . S
C50 C51 1.355 . S
C50 C52 1.415 1_556 S
C51 C50 1.355 . S
C51 C53 1.419 . S
C52 C50 1.415 1_554 S
C52 C57 1.425 1_564 S
C52 C59 1.409 . S
C53 H45 0.930 . S
C53 C51 1.419 . S
C53 C54 1.362 1_565 S
C54 H46 0.930 . S
C54 C53 1.362 1_545 S
C54 C57 1.409 . S
C55 H47 0.930 . S
C55 C56 1.355 . S
C55 C57 1.415 1_554 S
C56 C55 1.355 . S
C56 C58 1.419 . S
C57 C52 1.425 1_546 S
C57 C54 1.409 . S
C57 C55 1.415 1_556 S
C58 H48 0.930 . S
C58 C56 1.419 . S
C58 C59 1.362 1_545 S
C59 H49 0.930 . S
C59 C52 1.409 . S
C59 C58 1.362 1_565 S
H60 C66 0.930 . S
H61 C69 0.930 . S
H62 C70 0.930 . S
H63 C71 0.930 . S
H64 C74 0.930 . S
H65 C75 0.930 . S
C66 H60 0.930 . S
C66 C67 1.355 . S
C66 C68 1.415 . S
C67 C66 1.355 . S
C67 C69 1.419 . S
C68 C66 1.415 . S
C68 C73 1.425 . S
C68 C75 1.409 . S
C69 H61 0.930 . S
C69 C67 1.419 . S
C69 C70 1.362 . S
C70 H62 0.930 . S
C70 C69 1.362 . S
C70 C73 1.409 . S
C71 H63 0.930 . S
C71 C72 1.355 . S
C71 C73 1.415 . S
C72 C71 1.355 . S
C72 C74 1.419 . S
C73 C68 1.425 . S
C73 C70 1.409 . S
C73 C71 1.415 . S
C74 H64 0.930 . S
C74 C72 1.419 . S
C74 C75 1.362 . S
C75 H65 0.930 . S
C75 C68 1.409 . S
C75 C74 1.362 . S
H76 C82 0.930 . S
H77 C85 0.930 . S
H78 C86 0.930 . S
H79 C87 0.930 . S
H80 C90 0.930 . S
H81 C91 0.930 . S
C82 H76 0.930 . S
C82 C83 1.355 . S
C82 C84 1.415 1_655 S
C83 C82 1.355 . S
C83 C85 1.419 . S
C84 C82 1.415 1_455 S
C84 C89 1.425 1_454 S
C84 C91 1.409 . S
C85 H77 0.930 . S
C85 C83 1.419 . S
C85 C86 1.362 1_554 S
C86 H78 0.930 . S
C86 C85 1.362 1_556 S
C86 C89 1.409 . S
C87 H79 0.930 . S
C87 C88 1.355 . S
C87 C89 1.415 1_455 S
C88 C87 1.355 . S
C88 C90 1.419 . S
C89 C84 1.425 1_656 S
C89 C86 1.409 . S
C89 C87 1.415 1_655 S
C90 H80 0.930 . S
C90 C88 1.419 . S
C90 C91 1.362 1_556 S
C91 H81 0.930 . S
C91 C84 1.409 . S
C91 C90 1.362 1_554 S
H92 C98 0.930 . S
H93 C101 0.930 . S
H94 C102 0.930 . S
H95 C103 0.930 . S
H96 C106 0.930 . S
H97 C107 0.930 . S
C98 H92 0.930 . S
C98 C99 1.355 . S
C98 C100 1.415 . S
C99 C98 1.355 . S
C99 C101 1.419 . S
C100 C98 1.415 . S
C100 C105 1.425 1_565 S
C100 C107 1.409 . S
C101 H93 0.930 . S
C101 C99 1.419 . S
C101 C102 1.362 1_565 S
C102 H94 0.930 . S
C102 C101 1.362 1_545 S
C102 C105 1.409 . S
C103 H95 0.930 . S
C103 C104 1.355 . S
C103 C105 1.415 . S
C104 C103 1.355 . S
C104 C106 1.419 . S
C105 C100 1.425 1_545 S
C105 C102 1.409 . S
C105 C103 1.415 . S
C106 H96 0.930 . S
C106 C104 1.419 . S
C106 C107 1.362 1_545 S
C107 H97 0.930 . S
C107 C100 1.409 . S
C107 C106 1.362 1_565 S
H108 C114 0.930 . S
H109 C117 0.930 . S
H110 C118 0.930 . S
H111 C119 0.930 . S
H112 C122 0.930 . S
H113 C123 0.930 . S
C114 H108 0.930 . S
C114 C115 1.355 . S
C114 C116 1.415 1_556 S
C115 C114 1.355 . S
C115 C117 1.419 . S
C116 C114 1.415 1_554 S
C116 C121 1.425 1_554 S
C116 C123 1.409 . S
C117 H109 0.930 . S
C117 C115 1.419 . S
C117 C118 1.362 . S
C118 H110 0.930 . S
C118 C117 1.362 . S
C118 C121 1.409 . S
C119 H111 0.930 . S
C119 C120 1.355 . S
C119 C121 1.415 1_554 S
C120 C119 1.355 . S
C120 C122 1.419 . S
C121 C116 1.425 1_556 S
C121 C118 1.409 . S
C121 C119 1.415 1_556 S
C122 H112 0.930 . S
C122 C120 1.419 . S
C122 C123 1.362 . S
C123 H113 0.930 . S
C123 C116 1.409 . S
C123 C122 1.362 . S
H124 C130 0.930 . S
H125 C133 0.930 . S
H126 C134 0.930 . S
H127 C135 0.930 . S
H128 C138 0.930 . S
H129 C139 0.930 . S
C130 H124 0.930 . S
C130 C131 1.355 . S
C130 C132 1.415 . S
C131 C130 1.355 . S
C131 C133 1.419 . S
C132 C130 1.415 . S
C132 C137 1.425 1_455 S
C132 C139 1.409 . S
C133 H125 0.930 . S
C133 C131 1.419 . S
C133 C134 1.362 1_455 S
C134 H126 0.930 . S
C134 C133 1.362 1_655 S
C134 C137 1.409 . S
C135 H127 0.930 . S
C135 C136 1.355 . S
C135 C137 1.415 . S
C136 C135 1.355 . S
C136 C138 1.419 . S
C137 C132 1.425 1_655 S
C137 C134 1.409 . S
C137 C135 1.415 . S
C138 H128 0.930 . S
C138 C136 1.419 . S
C138 C139 1.362 1_655 S
C139 H129 0.930 . S
C139 C132 1.409 . S
C139 C138 1.362 1_455 S
C51 C29 1.475 . S
C56 C18 1.487 . S
C67 C30 1.490 . S
C72 C21 1.470 . S
C83 C10 1.492 . S
C88 C37 1.491 . S
C99 C40 1.489 . S
C104 C7 1.469 . S
C115 C43 1.481 . S
C120 C8 1.488 . S
C131 C32 1.487 . S
C136 C15 1.466 . S
