# Generated by pormake.
# Topology kag, (6)-cn, num edge types: 1
# Building blocks:
#     Node 0, Type 0, BuildingBlock: FUNLAD_clean_sbu_0, # of connection points: 6
#     Node 1, Type 0, BuildingBlock: FUNLAD_clean_sbu_0, # of connection points: 6
#     Node 2, Type 0, BuildingBlock: FUNLAD_clean_sbu_0, # of connection points: 6
#     Edge 3, Type (0, 0), None
#     Edge 4, Type (0, 0), None
#     Edge 5, Type (0, 0), None
#     Edge 6, Type (0, 0), None
#     Edge 7, Type (0, 0), None
#     Edge 8, Type (0, 0), None
#     Edge 9, Type (0, 0), None
#     Edge 10, Type (0, 0), None
#     Edge 11, Type (0, 0), None
# Relax obj value: 0.055
# Max RMSD: 0.178
# Mean RMSD: 0.176
data_MOF--net-kag--node1-FUNLAD_clean_sbu_0--edge1-none
_symmetry_space_group_name_H-M    P1
_symmetry_Int_Tables_number       1
_symmetry_cell_setting            triclinic
loop_
_symmetry_equiv_pos_as_xyz
'x, y, z'
_cell_length_a     13.650921
_cell_length_b     13.650989
_cell_length_c     13.426489
_cell_angle_alpha  89.693429
_cell_angle_beta   91.088084
_cell_angle_gamma 119.99929
loop_
_atom_site_label
_atom_site_type_symbol
_atom_site_fract_x
_atom_site_fract_y
_atom_site_fract_z
_atom_type_partial_charge
C0 C 0.76673 0.5102 0.02134 0.0
N1 N -0.05924 0.45806 0.25823 0.0
C2 C 0.91737 0.53087 0.30701 0.0
C3 C 0.91343 0.53036 0.4108 0.0
C4 C -0.06253 0.45677 0.46617 0.0
C5 C -0.03598 0.38436 0.4135 0.0
C6 C -0.0365 0.38523 0.30944 0.0
Zn7 Zn -0.0619 0.45654 0.10516 0.0
C8 C 0.76694 0.23228 0.02347 0.0
N9 N 0.93122 0.45415 0.78549 0.0
C10 C -0.04559 0.55015 0.73558 0.0
C11 C 0.90894 0.35859 0.73544 0.0
C12 C 0.90856 0.35693 0.63142 0.0
C13 C 0.93479 0.45562 0.57756 0.0
C14 C -0.04157 0.5533 0.63175 0.0
Zn15 Zn 0.93382 0.45518 0.93854 0.0
O16 O 0.80787 0.49753 0.10271 0.0
C17 C 0.10511 0.67946 0.02189 0.0
O18 O 0.80658 0.50152 0.93915 0.0
H19 H 0.8915 0.28316 0.77607 0.0
H20 H 0.90051 0.58907 0.26552 0.0
H21 H -0.02891 0.62523 0.7762 0.0
O22 O 0.06497 0.62967 0.10385 0.0
O23 O 0.06424 0.62689 0.94028 0.0
H24 H -0.01873 0.32737 0.26972 0.0
O25 O 0.06093 0.40895 0.93949 0.0
O26 O 0.0682 0.41526 0.10313 0.0
O27 O 0.80357 0.28338 0.94141 0.0
O28 O 0.81127 0.28352 0.10505 0.0
C29 C 0.10507 0.40146 0.02129 0.0
H30 H 0.8901 0.58637 0.44656 0.0
H31 H -0.01411 0.32773 0.45168 0.0
H32 H 0.88706 0.27843 0.59418 0.0
H33 H -0.01848 0.63248 0.59503 0.0
C34 C 0.21245 0.78676 0.02196 0.0
N35 N 0.43829 -0.04275 0.26031 0.0
C36 C 0.34232 0.93488 0.30811 0.0
C37 C 0.33925 0.93257 0.41197 0.0
C38 C 0.43699 -0.04288 0.46827 0.0
C39 C 0.53556 -0.01792 0.41651 0.0
C40 C 0.53382 -0.01998 0.31247 0.0
Zn41 Zn 0.43773 -0.04359 0.10732 0.0
C42 C 0.49039 0.78665 0.02598 0.0
N43 N 0.43392 0.95484 0.78766 0.0
C44 C 0.36187 -0.02129 0.73582 0.0
C45 C 0.50694 0.93174 0.73951 0.0
C46 C 0.5081 0.93029 0.6356 0.0
C47 C 0.43596 -0.04356 0.57969 0.0
C48 C 0.36269 -0.01829 0.63184 0.0
Zn49 Zn 0.43441 0.95533 0.94071 0.0
O50 O 0.26606 0.82608 0.10373 0.0
C51 C 0.38165 0.125 0.02314 0.0
O52 O 0.26119 0.82839 0.94012 0.0
H53 H 0.56461 0.91409 0.78155 0.0
H54 H 0.26735 0.91813 0.2658 0.0
H55 H 0.30389 -0.00367 0.77497 0.0
O56 O 0.39141 0.08348 0.10516 0.0
O57 O 0.39326 0.08554 0.94158 0.0
H58 H 0.60931 -0.00285 0.27351 0.0
O59 O 0.6074 0.08209 0.9427 0.0
O60 O 0.60961 0.0868 0.10632 0.0
O61 O 0.47551 0.82519 0.94434 0.0
O62 O 0.48403 0.82916 0.10794 0.0
C63 C 0.65967 0.12493 0.0244 0.0
H64 H 0.2602 0.91039 0.44712 0.0
H65 H 0.61412 0.00418 0.45537 0.0
H66 H 0.56459 0.90772 0.60008 0.0
H67 H 0.30701 0.00497 0.59337 0.0
C68 C 0.65945 0.51024 0.02235 0.0
N69 N 0.43291 0.4562 0.78653 0.0
C70 C 0.50554 0.55225 0.73748 0.0
C71 C 0.50697 0.55429 0.6335 0.0
C72 C 0.43532 0.45554 0.5786 0.0
C73 C 0.36208 0.35727 0.63168 0.0
C74 C 0.36109 0.35997 0.73559 0.0
Zn75 Zn 0.43415 0.4556 0.93962 0.0
C76 C 0.38157 0.23228 0.02291 0.0
N77 N 0.43873 0.45493 0.2593 0.0
C78 C 0.5344 0.52736 0.31122 0.0
C79 C 0.34245 0.38204 0.30735 0.0
C80 C 0.3391 0.38191 0.41117 0.0
C81 C 0.43682 0.45505 0.46723 0.0
C82 C 0.53579 0.52772 0.4153 0.0
Zn83 Zn 0.43774 0.456 0.10624 0.0
O84 O 0.60729 0.50232 0.94077 0.0
C85 C 0.49037 0.67932 0.02542 0.0
O86 O 0.60934 0.49689 0.10439 0.0
H87 H 0.26736 0.32412 0.26527 0.0
H88 H 0.56287 0.62783 0.77887 0.0
H89 H 0.61012 0.58517 0.27205 0.0
O90 O 0.47498 0.62707 0.94341 0.0
O91 O 0.48449 0.62928 0.10702 0.0
H92 H 0.30333 0.28445 0.77542 0.0
O93 O 0.26634 0.41537 0.10274 0.0
O94 O 0.26071 0.40878 0.93917 0.0
O95 O 0.39096 0.28274 0.10479 0.0
O96 O 0.39347 0.28412 0.94123 0.0
C97 C 0.21237 0.40143 0.02107 0.0
H98 H 0.56337 0.63313 0.59707 0.0
H99 H 0.3067 0.27809 0.59399 0.0
H100 H 0.2598 0.32571 0.44649 0.0
H101 H 0.61429 0.58406 0.45412 0.0
loop_
_geom_bond_atom_site_label_1
_geom_bond_atom_site_label_2
_geom_bond_distance
_geom_bond_site_symmetry_2
_ccdc_geom_bond_type
C0 O16 1.251 . S
C0 O18 1.254 1_554 S
N1 C2 1.333 1_455 S
N1 C6 1.307 . S
N1 Zn7 2.020 . S
C2 N1 1.333 1_655 S
C2 C3 1.379 . S
C2 H20 0.952 . S
C3 C2 1.379 . S
C3 C4 1.390 1_655 S
C3 H30 0.949 . S
C4 C3 1.390 1_455 S
C4 C5 1.357 . S
C5 C4 1.357 . S
C5 C6 1.370 . S
C5 H31 0.950 . S
C6 N1 1.307 . S
C6 C5 1.370 . S
C6 H24 0.948 . S
Zn7 N1 2.020 . S
Zn7 O16 2.039 1_455 S
Zn7 O22 2.034 . S
Zn7 O26 2.025 . S
Zn7 O28 2.024 1_455 S
C8 O27 1.246 . S
C8 O28 1.249 1_556 S
N9 C10 1.307 . S
N9 C11 1.333 1_655 S
N9 Zn15 2.020 . S
C10 N9 1.307 . S
C10 C14 1.370 . S
C10 H21 0.948 . S
C11 N9 1.333 1_455 S
C11 C12 1.379 . S
C11 H19 0.952 . S
C12 C11 1.379 . S
C12 C13 1.390 1_455 S
C12 H32 0.949 . S
C13 C12 1.390 1_655 S
C13 C14 1.357 . S
C14 C10 1.370 . S
C14 C13 1.357 . S
C14 H33 0.950 . S
Zn15 N9 2.020 . S
Zn15 O18 2.025 . S
Zn15 O23 2.024 1_655 S
Zn15 O25 2.039 1_655 S
Zn15 O27 2.034 . S
O16 C0 1.251 . S
O16 Zn7 2.039 1_655 S
C17 O22 1.246 . S
C17 O23 1.249 1_554 S
O18 C0 1.254 1_556 S
O18 Zn15 2.025 . S
H19 C11 0.952 . S
H20 C2 0.952 . S
H21 C10 0.948 . S
O22 Zn7 2.034 . S
O22 C17 1.246 . S
O23 Zn15 2.024 1_455 S
O23 C17 1.249 1_556 S
H24 C6 0.948 . S
O25 Zn15 2.039 1_455 S
O25 C29 1.241 1_556 S
O26 Zn7 2.025 . S
O26 C29 1.264 . S
O27 C8 1.246 . S
O27 Zn15 2.034 . S
O28 Zn7 2.024 1_655 S
O28 C8 1.249 1_554 S
C29 O25 1.241 1_554 S
C29 O26 1.264 . S
H30 C3 0.949 . S
H31 C5 0.950 . S
H32 C12 0.949 . S
H33 C14 0.950 . S
C34 O50 1.251 . S
C34 O52 1.254 1_554 S
N35 C36 1.333 1_545 S
N35 C40 1.307 . S
N35 Zn41 2.020 . S
C36 N35 1.333 1_565 S
C36 C37 1.379 . S
C36 H54 0.952 . S
C37 C36 1.379 . S
C37 C38 1.390 1_565 S
C37 H64 0.949 . S
C38 C37 1.390 1_545 S
C38 C39 1.356 . S
C39 C38 1.356 . S
C39 C40 1.370 . S
C39 H65 0.950 . S
C40 N35 1.307 . S
C40 C39 1.370 . S
C40 H58 0.948 . S
Zn41 N35 2.020 . S
Zn41 O50 2.039 1_545 S
Zn41 O56 2.034 . S
Zn41 O60 2.025 . S
Zn41 O62 2.024 1_545 S
C42 O61 1.246 1_554 S
C42 O62 1.249 . S
N43 C44 1.307 . S
N43 C45 1.333 1_565 S
N43 Zn49 2.020 . S
C44 N43 1.307 . S
C44 C48 1.370 . S
C44 H55 0.948 . S
C45 N43 1.333 1_545 S
C45 C46 1.379 . S
C45 H53 0.952 . S
C46 C45 1.379 . S
C46 C47 1.390 1_545 S
C46 H66 0.949 . S
C47 C46 1.390 1_565 S
C47 C48 1.357 . S
C48 C44 1.370 . S
C48 C47 1.357 . S
C48 H67 0.950 . S
Zn49 N43 2.020 . S
Zn49 O52 2.028 . S
Zn49 O57 2.015 1_565 S
Zn49 O59 2.036 1_565 S
Zn49 O61 2.043 . S
O50 C34 1.251 . S
O50 Zn41 2.039 1_565 S
C51 O56 1.244 1_556 S
C51 O57 1.251 . S
O52 C34 1.254 1_556 S
O52 Zn49 2.028 . S
H53 C45 0.952 . S
H54 C36 0.952 . S
H55 C44 0.948 . S
O56 Zn41 2.034 . S
O56 C51 1.244 1_554 S
O57 Zn49 2.015 1_545 S
O57 C51 1.251 . S
H58 C40 0.948 . S
O59 Zn49 2.036 1_545 S
O59 C63 1.251 1_556 S
O60 Zn41 2.025 . S
O60 C63 1.254 . S
O61 C42 1.246 1_556 S
O61 Zn49 2.043 . S
O62 Zn41 2.024 1_565 S
O62 C42 1.249 . S
C63 O59 1.251 1_554 S
C63 O60 1.254 . S
H64 C37 0.949 . S
H65 C39 0.950 . S
H66 C46 0.949 . S
H67 C48 0.950 . S
C68 O84 1.251 1_554 S
C68 O86 1.254 . S
N69 C70 1.333 . S
N69 C74 1.307 . S
N69 Zn75 2.020 . S
C70 N69 1.333 . S
C70 C71 1.379 . S
C70 H88 0.952 . S
C71 C70 1.379 . S
C71 C72 1.390 . S
C71 H98 0.949 . S
C72 C71 1.390 . S
C72 C73 1.357 . S
C73 C72 1.357 . S
C73 C74 1.370 . S
C73 H99 0.950 . S
C74 N69 1.307 . S
C74 C73 1.370 . S
C74 H92 0.948 . S
Zn75 N69 2.020 . S
Zn75 O84 2.039 . S
Zn75 O90 2.034 . S
Zn75 O94 2.025 . S
Zn75 O96 2.024 . S
C76 O95 1.246 . S
C76 O96 1.249 1_554 S
N77 C78 1.307 . S
N77 C79 1.333 . S
N77 Zn83 2.020 . S
C78 N77 1.307 . S
C78 C82 1.370 . S
C78 H89 0.948 . S
C79 N77 1.333 . S
C79 C80 1.379 . S
C79 H87 0.952 . S
C80 C79 1.379 . S
C80 C81 1.390 . S
C80 H100 0.949 . S
C81 C80 1.390 . S
C81 C82 1.357 . S
C82 C78 1.370 . S
C82 C81 1.357 . S
C82 H101 0.950 . S
Zn83 N77 2.020 . S
Zn83 O86 2.025 . S
Zn83 O91 2.024 . S
Zn83 O93 2.039 . S
Zn83 O95 2.034 . S
O84 C68 1.251 1_556 S
O84 Zn75 2.039 . S
C85 O90 1.246 1_554 S
C85 O91 1.249 . S
O86 C68 1.254 . S
O86 Zn83 2.025 . S
H87 C79 0.952 . S
H88 C70 0.952 . S
H89 C78 0.948 . S
O90 Zn75 2.034 . S
O90 C85 1.246 1_556 S
O91 Zn83 2.024 . S
O91 C85 1.249 . S
H92 C74 0.948 . S
O93 Zn83 2.039 . S
O93 C97 1.251 . S
O94 Zn75 2.025 . S
O94 C97 1.254 1_556 S
O95 C76 1.246 . S
O95 Zn83 2.034 . S
O96 Zn75 2.024 . S
O96 C76 1.249 1_556 S
C97 O93 1.251 . S
C97 O94 1.254 1_554 S
H98 C71 0.949 . S
H99 C73 0.950 . S
H100 C80 0.949 . S
H101 C82 0.950 . S
C13 C4 1.530 1_655 S
C38 C47 1.492 1_545 S
C72 C81 1.506 . S
C29 C97 1.222 . S
C63 C8 1.240 1_554 S
C42 C85 1.251 . S
C0 C68 1.223 . S
C17 C34 1.240 . S
C76 C51 1.251 1_554 S
