# Generated by pormake.
# Topology sow, (4)-cn, num edge types: 1
# Building blocks:
#     Node 0, Type 0, BuildingBlock: CEKHIL_clean_sbu_0, # of connection points: 4
#     Node 1, Type 0, BuildingBlock: CEKHIL_clean_sbu_0, # of connection points: 4
#     Node 2, Type 0, BuildingBlock: CEKHIL_clean_sbu_0, # of connection points: 4
#     Node 3, Type 0, BuildingBlock: CEKHIL_clean_sbu_0, # of connection points: 4
#     Node 4, Type 0, BuildingBlock: CEKHIL_clean_sbu_0, # of connection points: 4
#     Node 5, Type 0, BuildingBlock: CEKHIL_clean_sbu_0, # of connection points: 4
#     Node 6, Type 0, BuildingBlock: CEKHIL_clean_sbu_0, # of connection points: 4
#     Node 7, Type 0, BuildingBlock: CEKHIL_clean_sbu_0, # of connection points: 4
#     Edge 8, Type (0, 0), None
#     Edge 9, Type (0, 0), None
#     Edge 10, Type (0, 0), None
#     Edge 11, Type (0, 0), None
#     Edge 12, Type (0, 0), None
#     Edge 13, Type (0, 0), None
#     Edge 14, Type (0, 0), None
#     Edge 15, Type (0, 0), None
#     Edge 16, Type (0, 0), None
#     Edge 17, Type (0, 0), None
#     Edge 18, Type (0, 0), None
#     Edge 19, Type (0, 0), None
#     Edge 20, Type (0, 0), None
#     Edge 21, Type (0, 0), None
#     Edge 22, Type (0, 0), None
#     Edge 23, Type (0, 0), None
# Relax obj value: 0.174
# Max RMSD: 0.215
# Mean RMSD: 0.215
data_MOF--net-sow--node1-CEKHIL_clean_sbu_0--edge1-none
_symmetry_space_group_name_H-M    P1
_symmetry_Int_Tables_number       1
_symmetry_cell_setting            triclinic
loop_
_symmetry_equiv_pos_as_xyz
'x, y, z'
_cell_length_a     17.775235
_cell_length_b     9.430421
_cell_length_c     9.9553699
_cell_angle_alpha  90.00095
_cell_angle_beta   89.99947
_cell_angle_gamma 90.476433
loop_
_atom_site_label
_atom_site_type_symbol
_atom_site_fract_x
_atom_site_fract_y
_atom_site_fract_z
_atom_type_partial_charge
Co0 Co 0.11749 0.19882 1.01044 0.0
O1 O 0.17859 0.13786 0.85728 0.0
O2 O 0.14401 0.35721 0.89417 0.0
C3 C 0.0221 0.03146 1.01257 0.0
O4 O 0.05358 0.30152 0.14468 0.0
Co5 Co 0.10904 0.00856 0.26502 0.0
O6 O 0.05388 0.17522 0.33606 0.0
C7 C 0.24441 0.15144 0.21155 0.0
C8 C 0.17946 0.26862 0.81737 0.0
C9 C 0.03267 0.28099 0.26641 0.0
O10 O 0.2103 0.23698 0.13077 0.0
O11 O 0.21915 0.02741 0.23128 0.0
O12 O 0.02222 0.13365 0.92461 0.0
O13 O 0.08512 0.01923 0.07591 0.0
Co14 Co 0.35872 0.27364 0.51044 0.0
O15 O 0.29763 0.33463 0.3573 0.0
O16 O 0.33218 0.11524 0.39419 0.0
C17 C 0.45413 0.44096 0.51257 0.0
O18 O 0.42262 0.1709 0.64467 0.0
Co19 Co 0.36719 0.4639 0.76503 0.0
O20 O 0.42234 0.29723 0.83606 0.0
C21 C 0.23179 0.32107 0.71154 0.0
C22 C 0.29672 0.20386 0.31742 0.0
C23 C 0.44353 0.19143 0.7664 0.0
O24 O 0.26591 0.23551 0.63078 0.0
O25 O 0.25707 0.44507 0.73141 0.0
O26 O 0.454 0.33877 0.42461 0.0
O27 O 0.39111 0.45321 0.57591 0.0
Co28 Co 0.61273 0.26843 1.01345 0.0
O29 O 0.68872 0.35363 0.12777 0.0
O30 O 0.65284 0.12926 0.13497 0.0
C31 C 0.52121 0.43838 0.0297 0.0
O32 O 0.53385 0.14357 0.92418 0.0
Co33 Co 0.56455 0.4029 0.74458 0.0
O34 O 0.56458 0.19213 0.71956 0.0
C35 C 0.71315 0.28081 0.75906 0.0
C36 C 0.69543 0.22954 0.18301 0.0
C37 C 0.51775 0.13887 0.79961 0.0
O38 O 0.69519 0.22222 0.87278 0.0
O39 O 0.67031 0.36562 0.69706 0.0
O40 O 0.53068 0.34532 0.12455 0.0
O41 O 0.57241 0.43784 0.93756 0.0
Co42 Co 0.86348 0.20393 0.51347 0.0
O43 O 0.7875 0.11869 0.62778 0.0
O44 O 0.82337 0.34311 0.63499 0.0
C45 C 0.95502 0.03402 0.52971 0.0
O46 O 0.94235 0.32882 0.42419 0.0
Co47 Co 0.91167 0.06949 0.24459 0.0
O48 O 0.91162 0.28025 0.21958 0.0
C49 C 0.76305 0.19151 0.2591 0.0
C50 C 0.78077 0.2428 0.68296 0.0
C51 C 0.95845 0.33352 0.29962 0.0
O52 O 0.78102 0.25012 0.37281 0.0
O53 O 0.8059 0.10673 0.19707 0.0
O54 O 0.94554 0.12708 0.62457 0.0
O55 O 0.90382 0.03455 0.43757 0.0
Co56 Co 0.85875 0.77359 0.04397 0.0
O57 O 0.79765 0.83456 0.19713 0.0
O58 O 0.83223 0.6152 0.16024 0.0
C59 C 0.95414 0.94093 0.04183 0.0
O60 O 0.92266 0.67088 0.90973 0.0
Co61 Co 0.86719 0.96384 0.78938 0.0
O62 O 0.92235 0.79717 0.71834 0.0
C63 C 0.73182 0.82097 0.84286 0.0
C64 C 0.79677 0.7038 0.23704 0.0
C65 C 0.94356 0.6914 0.788 0.0
O66 O 0.76594 0.73544 0.92364 0.0
O67 O 0.75709 0.94501 0.82313 0.0
O68 O 0.95402 0.83875 0.1298 0.0
O69 O 0.89112 0.95318 0.9785 0.0
Co70 Co 0.61751 0.69879 0.54396 0.0
O71 O 0.67861 0.63779 0.69711 0.0
O72 O 0.64405 0.85718 0.66022 0.0
C73 C 0.5221 0.53148 0.54182 0.0
O74 O 0.55361 0.80153 0.40973 0.0
Co75 Co 0.60905 0.50854 0.28937 0.0
O76 O 0.5539 0.67522 0.21835 0.0
C77 C 0.74444 0.65136 0.34287 0.0
C78 C 0.67952 0.76856 0.73699 0.0
C79 C 0.53271 0.78101 0.28801 0.0
O80 O 0.71033 0.73691 0.42363 0.0
O81 O 0.71916 0.52736 0.32301 0.0
O82 O 0.52223 0.63366 0.6298 0.0
O83 O 0.58512 0.51922 0.47849 0.0
Co84 Co 0.36351 0.704 0.04096 0.0
O85 O 0.28752 0.6188 0.92663 0.0
O86 O 0.3234 0.84317 0.91943 0.0
C87 C 0.45503 0.53406 1.02471 0.0
O88 O 0.44239 0.82887 0.13023 0.0
Co89 Co 0.41169 0.56955 0.30982 0.0
O90 O 0.41166 0.78031 0.33484 0.0
C91 C 0.26308 0.69161 0.29534 0.0
C92 C 0.2808 0.74289 0.87139 0.0
C93 C 0.45848 0.83357 0.2548 0.0
O94 O 0.28105 0.75021 0.18162 0.0
O95 O 0.30593 0.60681 0.35735 0.0
O96 O 0.44556 0.62712 0.92985 0.0
O97 O 0.40383 0.5346 0.11684 0.0
Co98 Co 0.11275 0.76848 0.54093 0.0
O99 O 0.18874 0.85373 0.42662 0.0
O100 O 0.15287 0.6293 0.41942 0.0
C101 C 0.02121 0.93837 0.5247 0.0
O102 O 0.03388 0.64358 0.63021 0.0
Co103 Co 0.06457 0.90291 0.80981 0.0
O104 O 0.06461 0.69215 0.83482 0.0
C105 C 0.21319 0.78091 0.79531 0.0
C106 C 0.19547 0.72961 0.37144 0.0
C107 C 0.01779 0.63888 0.75478 0.0
O108 O 0.19521 0.72229 0.6816 0.0
O109 O 0.17034 0.86568 0.85734 0.0
O110 O 0.03069 0.84533 0.42984 0.0
O111 O 0.07241 0.93786 0.61683 0.0
loop_
_geom_bond_atom_site_label_1
_geom_bond_atom_site_label_2
_geom_bond_distance
_geom_bond_site_symmetry_2
_ccdc_geom_bond_type
Co0 O1 2.216 1_554 S
Co0 O2 2.091 1_554 S
Co0 O4 2.004 . S
Co0 O10 2.021 . S
Co0 O12 2.137 1_554 S
Co0 O13 2.244 . S
O1 Co0 2.216 1_556 S
O1 C8 1.247 . S
O2 Co0 2.091 1_556 S
O2 C8 1.261 . S
C3 O12 1.247 . S
C3 O13 1.272 1_556 S
O4 Co0 2.004 . S
O4 C9 1.259 . S
Co5 O6 2.061 . S
Co5 O11 2.052 . S
Co5 O13 2.135 . S
O6 Co5 2.061 . S
O6 C9 1.235 . S
C7 O10 1.238 . S
C7 O11 1.241 . S
C8 O1 1.247 . S
C8 O2 1.261 . S
C9 O4 1.259 . S
C9 O6 1.235 . S
O10 Co0 2.021 . S
O10 C7 1.238 . S
O11 Co5 2.052 . S
O11 C7 1.241 . S
O12 Co0 2.137 1_556 S
O12 C3 1.247 . S
O13 Co0 2.244 . S
O13 C3 1.272 1_554 S
O13 Co5 2.135 . S
Co14 O15 2.216 . S
Co14 O16 2.091 . S
Co14 O18 2.004 . S
Co14 O24 2.021 . S
Co14 O26 2.137 . S
Co14 O27 2.244 . S
O15 Co14 2.216 . S
O15 C22 1.247 . S
O16 Co14 2.091 . S
O16 C22 1.261 . S
C17 O26 1.247 . S
C17 O27 1.272 . S
O18 Co14 2.004 . S
O18 C23 1.259 . S
Co19 O20 2.061 . S
Co19 O25 2.052 . S
Co19 O27 2.135 . S
O20 Co19 2.061 . S
O20 C23 1.235 . S
C21 O24 1.238 . S
C21 O25 1.241 . S
C22 O15 1.247 . S
C22 O16 1.261 . S
C23 O18 1.259 . S
C23 O20 1.235 . S
O24 Co14 2.021 . S
O24 C21 1.238 . S
O25 Co19 2.052 . S
O25 C21 1.241 . S
O26 Co14 2.137 . S
O26 C17 1.247 . S
O27 Co14 2.244 . S
O27 C17 1.272 . S
O27 Co19 2.135 . S
Co28 O29 2.216 1_556 S
Co28 O30 2.091 1_556 S
Co28 O32 2.004 . S
Co28 O38 2.021 . S
Co28 O40 2.137 1_556 S
Co28 O41 2.244 . S
O29 Co28 2.216 1_554 S
O29 C36 1.247 . S
O30 Co28 2.091 1_554 S
O30 C36 1.261 . S
C31 O40 1.247 . S
C31 O41 1.272 1_554 S
O32 Co28 2.004 . S
O32 C37 1.259 . S
Co33 O34 2.061 . S
Co33 O39 2.052 . S
Co33 O41 2.135 . S
O34 Co33 2.061 . S
O34 C37 1.235 . S
C35 O38 1.238 . S
C35 O39 1.241 . S
C36 O29 1.247 . S
C36 O30 1.261 . S
C37 O32 1.259 . S
C37 O34 1.235 . S
O38 Co28 2.021 . S
O38 C35 1.238 . S
O39 Co33 2.052 . S
O39 C35 1.241 . S
O40 Co28 2.137 1_554 S
O40 C31 1.247 . S
O41 Co28 2.244 . S
O41 C31 1.272 1_556 S
O41 Co33 2.135 . S
Co42 O43 2.216 . S
Co42 O44 2.091 . S
Co42 O46 2.004 . S
Co42 O52 2.021 . S
Co42 O54 2.137 . S
Co42 O55 2.244 . S
O43 Co42 2.216 . S
O43 C50 1.247 . S
O44 Co42 2.091 . S
O44 C50 1.261 . S
C45 O54 1.247 . S
C45 O55 1.272 . S
O46 Co42 2.004 . S
O46 C51 1.259 . S
Co47 O48 2.061 . S
Co47 O53 2.052 . S
Co47 O55 2.135 . S
O48 Co47 2.061 . S
O48 C51 1.235 . S
C49 O52 1.238 . S
C49 O53 1.241 . S
C50 O43 1.247 . S
C50 O44 1.261 . S
C51 O46 1.259 . S
C51 O48 1.235 . S
O52 Co42 2.021 . S
O52 C49 1.238 . S
O53 Co47 2.052 . S
O53 C49 1.241 . S
O54 Co42 2.137 . S
O54 C45 1.247 . S
O55 Co42 2.244 . S
O55 C45 1.272 . S
O55 Co47 2.135 . S
Co56 O57 2.216 1_556 S
Co56 O58 2.091 1_556 S
Co56 O60 2.004 . S
Co56 O66 2.021 . S
Co56 O68 2.137 1_556 S
Co56 O69 2.244 . S
O57 Co56 2.216 1_554 S
O57 C64 1.247 . S
O58 Co56 2.091 1_554 S
O58 C64 1.261 . S
C59 O68 1.247 . S
C59 O69 1.272 1_554 S
O60 Co56 2.004 . S
O60 C65 1.259 . S
Co61 O62 2.061 . S
Co61 O67 2.052 . S
Co61 O69 2.135 . S
O62 Co61 2.061 . S
O62 C65 1.235 . S
C63 O66 1.238 . S
C63 O67 1.241 . S
C64 O57 1.247 . S
C64 O58 1.261 . S
C65 O60 1.259 . S
C65 O62 1.235 . S
O66 Co56 2.021 . S
O66 C63 1.238 . S
O67 Co61 2.052 . S
O67 C63 1.241 . S
O68 Co56 2.137 1_554 S
O68 C59 1.247 . S
O69 Co56 2.244 . S
O69 C59 1.272 1_556 S
O69 Co61 2.135 . S
Co70 O71 2.216 . S
Co70 O72 2.091 . S
Co70 O74 2.004 . S
Co70 O80 2.021 . S
Co70 O82 2.137 . S
Co70 O83 2.244 . S
O71 Co70 2.216 . S
O71 C78 1.247 . S
O72 Co70 2.091 . S
O72 C78 1.261 . S
C73 O82 1.247 . S
C73 O83 1.272 . S
O74 Co70 2.004 . S
O74 C79 1.259 . S
Co75 O76 2.061 . S
Co75 O81 2.052 . S
Co75 O83 2.135 . S
O76 Co75 2.061 . S
O76 C79 1.235 . S
C77 O80 1.238 . S
C77 O81 1.241 . S
C78 O71 1.247 . S
C78 O72 1.261 . S
C79 O74 1.259 . S
C79 O76 1.235 . S
O80 Co70 2.021 . S
O80 C77 1.238 . S
O81 Co75 2.052 . S
O81 C77 1.241 . S
O82 Co70 2.137 . S
O82 C73 1.247 . S
O83 Co70 2.244 . S
O83 C73 1.272 . S
O83 Co75 2.135 . S
Co84 O85 2.216 1_554 S
Co84 O86 2.091 1_554 S
Co84 O88 2.004 . S
Co84 O94 2.021 . S
Co84 O96 2.137 1_554 S
Co84 O97 2.244 . S
O85 Co84 2.216 1_556 S
O85 C92 1.247 . S
O86 Co84 2.091 1_556 S
O86 C92 1.261 . S
C87 O96 1.247 . S
C87 O97 1.272 1_556 S
O88 Co84 2.004 . S
O88 C93 1.259 . S
Co89 O90 2.061 . S
Co89 O95 2.052 . S
Co89 O97 2.135 . S
O90 Co89 2.061 . S
O90 C93 1.235 . S
C91 O94 1.238 . S
C91 O95 1.241 . S
C92 O85 1.247 . S
C92 O86 1.261 . S
C93 O88 1.259 . S
C93 O90 1.235 . S
O94 Co84 2.021 . S
O94 C91 1.238 . S
O95 Co89 2.052 . S
O95 C91 1.241 . S
O96 Co84 2.137 1_556 S
O96 C87 1.247 . S
O97 Co84 2.244 . S
O97 C87 1.272 1_554 S
O97 Co89 2.135 . S
Co98 O99 2.216 . S
Co98 O100 2.091 . S
Co98 O102 2.004 . S
Co98 O108 2.021 . S
Co98 O110 2.137 . S
Co98 O111 2.244 . S
O99 Co98 2.216 . S
O99 C106 1.247 . S
O100 Co98 2.091 . S
O100 C106 1.261 . S
C101 O110 1.247 . S
C101 O111 1.272 . S
O102 Co98 2.004 . S
O102 C107 1.259 . S
Co103 O104 2.061 . S
Co103 O109 2.052 . S
Co103 O111 2.135 . S
O104 Co103 2.061 . S
O104 C107 1.235 . S
C105 O108 1.238 . S
C105 O109 1.241 . S
C106 O99 1.247 . S
C106 O100 1.261 . S
C107 O102 1.259 . S
C107 O104 1.235 . S
O108 Co98 2.021 . S
O108 C105 1.238 . S
O109 Co103 2.052 . S
O109 C105 1.241 . S
O110 Co98 2.137 . S
O110 C101 1.247 . S
O111 Co98 2.244 . S
O111 C101 1.272 . S
O111 Co103 2.135 . S
C21 C8 1.787 . S
C7 C22 1.787 . S
C49 C36 1.787 . S
C35 C50 1.787 . S
C64 C77 1.787 . S
C78 C63 1.787 . S
C92 C105 1.787 . S
C91 C106 1.787 . S
C9 C51 0.676 1_455 S
C23 C37 0.676 . S
C107 C65 0.676 1_455 S
C93 C79 0.676 . S
C3 C59 1.813 1_446 S
C73 C17 1.813 . S
C87 C31 1.813 1_556 S
C101 C45 1.813 1_465 S
