# Generated by pormake.
# Topology hex, (8)-cn, num edge types: 1
# Building blocks:
#     Node 0, Type 0, BuildingBlock: TAGTUT_clean_sbu_1, # of connection points: 8
#     Edge 1, Type (0, 0), BuildingBlock: OJICUG_clean_linker_0, # of connection points: 2
#     Edge 2, Type (0, 0), BuildingBlock: OJICUG_clean_linker_0, # of connection points: 2
#     Edge 3, Type (0, 0), BuildingBlock: OJICUG_clean_linker_0, # of connection points: 2
#     Edge 4, Type (0, 0), BuildingBlock: OJICUG_clean_linker_0, # of connection points: 2
# Relax obj value: 0.060
# Max RMSD: 0.160
# Mean RMSD: 0.160
data_MOF--net-hex--node1-TAGTUT_clean_sbu_1--edge1-OJICUG_clean_linker_0
_symmetry_space_group_name_H-M    P1
_symmetry_Int_Tables_number       1
_symmetry_cell_setting            triclinic
loop_
_symmetry_equiv_pos_as_xyz
'x, y, z'
_cell_length_a     15.067006
_cell_length_b     16.454107
_cell_length_c     11.957742
_cell_angle_alpha  83.300675
_cell_angle_beta   102.55605
_cell_angle_gamma 136.41433
loop_
_atom_site_label
_atom_site_type_symbol
_atom_site_fract_x
_atom_site_fract_y
_atom_site_fract_z
_atom_type_partial_charge
C0 C 0.93596 0.31836 0.96191 0.0
C1 C 0.62896 0.97875 -0.006 0.0
C2 C -0.00812 0.98257 0.26343 0.0
Mg3 Mg 0.82439 0.09824 0.8376 0.0
O4 O 0.9322 0.10872 0.9585 0.0
Mg5 Mg 0.94893 0.14457 0.11878 0.0
Mg6 Mg -0.04589 0.00255 -0.01886 0.0
O7 O -0.02416 0.89631 0.00362 0.0
Mg8 Mg 0.08071 0.90371 0.12509 0.0
Mg9 Mg -0.04159 0.85962 0.84356 0.0
C10 C 0.91458 0.02076 0.69893 0.0
C11 C 0.67864 0.72771 0.90208 0.0
O12 O -0.0436 0.284 0.05595 0.0
O13 O 0.8945 0.2656 0.86417 0.0
O14 O 0.72065 0.02248 0.08373 0.0
O15 O 0.64303 0.97457 0.89388 0.0
O16 O 0.863 0.05761 0.69908 0.0
O17 O -0.04444 1.00022 0.7924 0.0
C18 C 0.22911 0.27747 0.06 0.0
O19 O 0.17297 0.18161 0.00836 0.0
O20 O 0.16891 0.279 0.11934 0.0
O21 O 0.94889 0.71886 0.9061 0.0
O22 O 0.00779 0.73525 0.09807 0.0
O23 O 0.18657 0.98055 0.87948 0.0
C24 C -0.03278 0.68316 0.00016 0.0
O25 O 0.26264 0.02561 0.06992 0.0
O26 O 0.04213 0.94445 0.26342 0.0
C27 C 0.27752 0.02293 0.96961 0.0
O28 O 0.95313 0.00498 0.16993 0.0
O29 O 0.73517 0.82356 0.95405 0.0
O30 O 0.73851 0.72605 0.84244 0.0
C31 C 0.90019 0.43986 0.87473 0.0
C32 C 0.94886 0.41501 0.96987 0.0
H33 H 0.86443 0.54205 0.81058 0.0
C34 C -0.00017 0.47642 0.07628 0.0
H35 H 0.85875 0.39295 0.7921 0.0
C36 C 0.00182 0.56094 0.0874 0.0
C37 C -0.04663 0.58595 -0.00778 0.0
H38 H 0.03773 0.45892 0.15156 0.0
H39 H 0.04335 0.6079 0.17002 0.0
C40 C 0.90223 0.52444 0.88584 0.0
C41 C 0.42873 0.93112 0.89827 0.0
C42 C 0.52921 0.97743 -0.00474 0.0
H43 H 0.27543 0.914 0.81071 0.0
C44 C 0.55254 0.04775 0.07849 0.0
H45 H 0.40924 0.87846 0.8311 0.0
C46 C 0.47824 0.07131 0.06488 0.0
C47 C 0.37768 0.02491 0.96795 0.0
H48 H 0.63145 0.08836 0.15251 0.0
H49 H 0.49764 0.1239 0.13209 0.0
C50 C 0.35444 0.9547 0.88467 0.0
C51 C 0.40463 0.3976 0.94029 0.0
C52 C 0.35151 0.3932 0.02702 0.0
H53 H 0.54456 0.5045 0.82981 0.0
C54 C 0.40249 0.50006 0.06703 0.0
H55 H 0.36681 0.31748 0.90539 0.0
C56 C 0.50305 0.60763 0.02177 0.0
C57 C 0.55617 0.61202 0.93504 0.0
H58 H 0.36307 0.5007 0.13224 0.0
H59 H 0.5409 0.68776 0.05667 0.0
C60 C 0.50516 0.50515 0.89501 0.0
C61 C 0.87853 0.02194 0.48469 0.0
C62 C 0.93097 0.00698 0.58749 0.0
H63 H 0.85727 0.02699 0.30204 0.0
C64 C 0.00593 0.98677 0.58272 0.0
H65 H 0.82051 0.03806 0.48517 0.0
C66 C 0.02791 0.98155 0.47756 0.0
C67 C -0.02453 0.99649 0.37476 0.0
H68 H 0.04923 0.97652 0.66015 0.0
H69 H 0.08595 0.96545 0.47711 0.0
C70 C 0.90055 0.01676 0.37951 0.0
loop_
_geom_bond_atom_site_label_1
_geom_bond_atom_site_label_2
_geom_bond_distance
_geom_bond_site_symmetry_2
_ccdc_geom_bond_type
C0 O12 1.241 1_656 S
C0 O13 1.280 . S
C1 O14 1.277 . S
C1 O15 1.245 1_544 S
C2 O26 1.247 . S
C2 O28 1.289 . S
Mg3 O4 1.926 . S
Mg3 O13 1.984 . S
Mg3 O15 1.988 1_545 S
Mg3 O16 2.061 1_545 S
O4 Mg3 1.926 . S
O4 Mg5 1.989 1_656 S
O4 Mg6 1.917 1_656 S
Mg5 O4 1.989 1_454 S
Mg5 O12 2.038 . S
Mg5 O14 2.032 1_455 S
Mg5 O20 2.047 . S
Mg5 O28 2.244 . S
Mg6 O4 1.917 1_454 S
Mg6 O7 1.917 1_545 S
Mg6 O17 2.106 1_444 S
Mg6 O19 2.079 . S
Mg6 O28 2.106 . S
Mg6 O29 2.079 1_444 S
O7 Mg6 1.917 1_565 S
O7 Mg8 1.926 . S
O7 Mg9 1.988 1_454 S
Mg8 O7 1.926 . S
Mg8 O22 1.984 . S
Mg8 O25 1.988 1_565 S
Mg8 O26 2.061 1_565 S
Mg9 O7 1.988 1_656 S
Mg9 O17 2.242 . S
Mg9 O21 2.039 . S
Mg9 O23 2.035 1_655 S
Mg9 O30 2.045 . S
C10 O16 1.247 . S
C10 O17 1.289 . S
C11 O29 1.245 . S
C11 O30 1.274 . S
O12 C0 1.241 1_454 S
O12 Mg5 2.038 . S
O13 C0 1.280 . S
O13 Mg3 1.984 . S
O14 C1 1.277 . S
O14 Mg5 2.032 1_655 S
O15 C1 1.245 1_566 S
O15 Mg3 1.988 1_565 S
O16 Mg3 2.061 1_565 S
O16 C10 1.247 . S
O17 Mg6 2.106 1_666 S
O17 Mg9 2.242 . S
O17 C10 1.289 . S
C18 O19 1.245 . S
C18 O20 1.274 . S
O19 Mg6 2.079 . S
O19 C18 1.245 . S
O20 Mg5 2.047 . S
O20 C18 1.274 . S
O21 Mg9 2.039 . S
O21 C24 1.241 1_656 S
O22 Mg8 1.984 . S
O22 C24 1.280 . S
O23 Mg9 2.035 1_455 S
O23 C27 1.277 . S
C24 O21 1.241 1_454 S
C24 O22 1.280 . S
O25 Mg8 1.988 1_545 S
O25 C27 1.245 1_544 S
O26 C2 1.247 . S
O26 Mg8 2.061 1_545 S
C27 O23 1.277 . S
C27 O25 1.245 1_566 S
O28 C2 1.289 . S
O28 Mg5 2.244 . S
O28 Mg6 2.106 . S
O29 Mg6 2.079 1_666 S
O29 C11 1.245 . S
O30 Mg9 2.045 . S
O30 C11 1.274 . S
C31 C32 1.387 1_655 S
C31 H35 0.950 . S
C31 C40 1.390 . S
C32 C31 1.387 1_455 S
C32 C34 1.387 1_556 S
H33 C40 0.950 . S
C34 C32 1.387 1_554 S
C34 C36 1.390 . S
C34 H38 0.950 . S
H35 C31 0.950 . S
C36 C34 1.390 . S
C36 C37 1.387 1_455 S
C36 H39 0.950 . S
C37 C36 1.387 1_655 S
C37 C40 1.387 1_554 S
H38 C34 0.950 . S
H39 C36 0.950 . S
C40 C31 1.390 . S
C40 H33 0.950 . S
C40 C37 1.387 1_556 S
C41 C42 1.387 1_556 S
C41 H45 0.950 . S
C41 C50 1.390 . S
C42 C41 1.387 1_554 S
C42 C44 1.387 1_565 S
H43 C50 0.950 . S
C44 C42 1.387 1_545 S
C44 C46 1.390 . S
C44 H48 0.950 . S
H45 C41 0.950 . S
C46 C44 1.390 . S
C46 C47 1.387 1_554 S
C46 H49 0.950 . S
C47 C46 1.387 1_556 S
C47 C50 1.387 1_545 S
H48 C44 0.950 . S
H49 C46 0.950 . S
C50 C41 1.390 . S
C50 H43 0.950 . S
C50 C47 1.387 1_565 S
C51 C52 1.387 1_556 S
C51 H55 0.950 . S
C51 C60 1.390 . S
C52 C51 1.387 1_554 S
C52 C54 1.387 . S
H53 C60 0.950 . S
C54 C52 1.387 . S
C54 C56 1.390 . S
C54 H58 0.950 . S
H55 C51 0.950 . S
C56 C54 1.390 . S
C56 C57 1.387 1_554 S
C56 H59 0.950 . S
C57 C56 1.387 1_556 S
C57 C60 1.387 . S
H58 C54 0.950 . S
H59 C56 0.950 . S
C60 C51 1.390 . S
C60 H53 0.950 . S
C60 C57 1.387 . S
C61 C62 1.387 1_445 S
C61 H65 0.950 . S
C61 C70 1.390 . S
C62 C61 1.387 1_665 S
C62 C64 1.387 . S
H63 C70 0.950 . S
C64 C62 1.387 . S
C64 C66 1.390 . S
C64 H68 0.950 . S
H65 C61 0.950 . S
C66 C64 1.390 . S
C66 C67 1.387 1_665 S
C66 H69 0.950 . S
C67 C66 1.387 1_445 S
C67 C70 1.387 . S
H68 C64 0.950 . S
H69 C66 0.950 . S
C70 C61 1.390 . S
C70 H63 0.950 . S
C70 C67 1.387 . S
C32 C0 1.334 1_455 S
C37 C24 1.334 1_655 S
C42 C1 1.342 1_565 S
C47 C27 1.342 1_545 S
C52 C18 1.940 . S
C57 C11 1.940 . S
C62 C10 1.465 . S
C67 C2 1.465 . S
