# Generated by pormake.
# Topology qtz, (4)-cn, num edge types: 1
# Building blocks:
#     Node 0, Type 0, BuildingBlock: CEKHIL_clean_sbu_0, # of connection points: 4
#     Node 1, Type 0, BuildingBlock: CEKHIL_clean_sbu_0, # of connection points: 4
#     Node 2, Type 0, BuildingBlock: CEKHIL_clean_sbu_0, # of connection points: 4
#     Edge 3, Type (0, 0), None
#     Edge 4, Type (0, 0), None
#     Edge 5, Type (0, 0), None
#     Edge 6, Type (0, 0), None
#     Edge 7, Type (0, 0), None
#     Edge 8, Type (0, 0), None
# Relax obj value: 0.004
# Max RMSD: 0.042
# Mean RMSD: 0.037
data_MOF--net-qtz--node1-CEKHIL_clean_sbu_0--edge1-none
_symmetry_space_group_name_H-M    P1
_symmetry_Int_Tables_number       1
_symmetry_cell_setting            triclinic
loop_
_symmetry_equiv_pos_as_xyz
'x, y, z'
_cell_length_a     10.413354
_cell_length_b     10.328682
_cell_length_c     11.27144
_cell_angle_alpha  88.932392
_cell_angle_beta   89.635179
_cell_angle_gamma 118.80086
loop_
_atom_site_label
_atom_site_type_symbol
_atom_site_fract_x
_atom_site_fract_y
_atom_site_fract_z
_atom_type_partial_charge
Co0 Co 0.03506 0.48651 0.21172 0.0
O1 O 0.19769 0.56113 0.10056 0.0
O2 O 0.15315 0.39076 0.24038 0.0
C3 C 0.86226 0.44327 0.07565 0.0
O4 O 0.86915 0.37933 0.33715 0.0
Co5 Co 0.86221 0.6637 0.2299 0.0
O6 O 0.72108 0.4812 0.31537 0.0
C7 C 0.14543 0.76723 0.35268 0.0
C8 C 0.23152 0.46719 0.14842 0.0
C9 C 0.74891 0.38304 0.35971 0.0
O10 O 0.15441 0.65125 0.32534 0.0
O11 O 0.04523 0.79469 0.31459 0.0
O12 O 0.90691 0.34765 0.09536 0.0
O13 O 0.93513 0.56777 0.12701 0.0
Co14 Co 0.50576 -0.0072 0.60329 0.0
O15 O 0.41749 0.83162 0.71954 0.0
O16 O 0.60549 0.87357 0.60322 0.0
C17 C 0.51936 0.16918 0.72577 0.0
O18 O 0.62952 0.15395 0.47712 0.0
Co19 Co 0.34029 0.17112 0.53748 0.0
O20 O 0.5346 0.30958 0.46911 0.0
C21 C 0.24932 0.87737 0.43411 0.0
C22 C 0.5153 0.79503 0.68885 0.0
C23 C 0.63387 0.27602 0.44203 0.0
O24 O 0.35819 0.8668 0.47899 0.0
O25 O 0.22135 0.98242 0.45602 0.0
O26 O 0.62162 0.1315 0.72701 0.0
O27 O 0.40941 0.09216 0.66057 0.0
Co28 Co 0.5381 0.4969 0.86961 0.0
O29 O 0.42655 0.53969 0.75199 0.0
O30 O 0.63329 0.7071 0.82919 0.0
C31 C 0.53193 0.3011 0.78112 0.0
O32 O 0.68849 0.49876 0.9857 0.0
Co33 Co 0.41479 0.2042 1.01782 0.0
O34 O 0.62533 0.26252 1.02975 0.0
C35 C 0.33145 0.42831 0.08512 0.0
C36 C 0.52783 0.67697 0.75536 0.0
C37 C 0.71931 0.39901 1.024 0.0
O38 O 0.41693 0.51782 1.00267 0.0
O39 O 0.31219 0.2975 0.10316 0.0
O40 O 0.6274 0.43407 0.7461 0.0
O41 O 0.43634 0.29022 0.85949 0.0
loop_
_geom_bond_atom_site_label_1
_geom_bond_atom_site_label_2
_geom_bond_distance
_geom_bond_site_symmetry_2
_ccdc_geom_bond_type
Co0 O1 2.216 . S
Co0 O2 2.091 . S
Co0 O4 2.004 1_455 S
Co0 O10 2.021 . S
Co0 O12 2.137 1_455 S
Co0 O13 2.244 1_455 S
O1 Co0 2.216 . S
O1 C8 1.247 . S
O2 Co0 2.091 . S
O2 C8 1.261 . S
C3 O12 1.247 . S
C3 O13 1.272 . S
O4 Co0 2.004 1_655 S
O4 C9 1.259 . S
Co5 O6 2.061 . S
Co5 O11 2.052 1_655 S
Co5 O13 2.135 . S
O6 Co5 2.061 . S
O6 C9 1.235 . S
C7 O10 1.238 . S
C7 O11 1.241 . S
C8 O1 1.247 . S
C8 O2 1.261 . S
C9 O4 1.259 . S
C9 O6 1.235 . S
O10 Co0 2.021 . S
O10 C7 1.238 . S
O11 Co5 2.052 1_455 S
O11 C7 1.241 . S
O12 Co0 2.137 1_655 S
O12 C3 1.247 . S
O13 Co0 2.244 1_655 S
O13 C3 1.272 . S
O13 Co5 2.135 . S
Co14 O15 2.216 1_545 S
Co14 O16 2.091 1_545 S
Co14 O18 2.004 . S
Co14 O24 2.021 1_545 S
Co14 O26 2.137 . S
Co14 O27 2.244 . S
O15 Co14 2.216 1_565 S
O15 C22 1.247 . S
O16 Co14 2.091 1_565 S
O16 C22 1.261 . S
C17 O26 1.247 . S
C17 O27 1.272 . S
O18 Co14 2.004 . S
O18 C23 1.259 . S
Co19 O20 2.061 . S
Co19 O25 2.052 1_545 S
Co19 O27 2.135 . S
O20 Co19 2.061 . S
O20 C23 1.235 . S
C21 O24 1.238 . S
C21 O25 1.241 . S
C22 O15 1.247 . S
C22 O16 1.261 . S
C23 O18 1.259 . S
C23 O20 1.235 . S
O24 Co14 2.021 1_565 S
O24 C21 1.238 . S
O25 Co19 2.052 1_565 S
O25 C21 1.241 . S
O26 Co14 2.137 . S
O26 C17 1.247 . S
O27 Co14 2.244 . S
O27 C17 1.272 . S
O27 Co19 2.135 . S
Co28 O29 2.216 . S
Co28 O30 2.091 . S
Co28 O32 2.004 . S
Co28 O38 2.021 . S
Co28 O40 2.137 . S
Co28 O41 2.244 . S
O29 Co28 2.216 . S
O29 C36 1.247 . S
O30 Co28 2.091 . S
O30 C36 1.261 . S
C31 O40 1.247 . S
C31 O41 1.272 . S
O32 Co28 2.004 . S
O32 C37 1.259 . S
Co33 O34 2.061 . S
Co33 O39 2.052 . S
Co33 O41 2.135 . S
O34 Co33 2.061 . S
O34 C37 1.235 . S
C35 O38 1.238 . S
C35 O39 1.241 . S
C36 O29 1.247 . S
C36 O30 1.261 . S
C37 O32 1.259 . S
C37 O34 1.235 . S
O38 Co28 2.021 . S
O38 C35 1.238 . S
O39 Co33 2.052 . S
O39 C35 1.241 . S
O40 Co28 2.137 . S
O40 C31 1.247 . S
O41 Co28 2.244 . S
O41 C31 1.272 . S
O41 Co33 2.135 . S
C35 C8 1.438 1_556 S
C9 C23 1.451 . S
C22 C36 1.456 . S
C37 C3 1.442 1_556 S
C21 C7 1.399 . S
C31 C17 1.432 . S
