# Generated by pormake.
# Topology qtz-x, (6)-cn, num edge types: 1
# Building blocks:
#     Node 0, Type 0, BuildingBlock: CIFDUS_clean_sbu_1, # of connection points: 6
#     Node 1, Type 0, BuildingBlock: CIFDUS_clean_sbu_1, # of connection points: 6
#     Node 2, Type 0, BuildingBlock: CIFDUS_clean_sbu_1, # of connection points: 6
#     Edge 3, Type (0, 0), None
#     Edge 4, Type (0, 0), None
#     Edge 5, Type (0, 0), None
#     Edge 6, Type (0, 0), None
#     Edge 7, Type (0, 0), None
#     Edge 8, Type (0, 0), None
#     Edge 9, Type (0, 0), None
#     Edge 10, Type (0, 0), None
#     Edge 11, Type (0, 0), None
# Relax obj value: 0.268
# Max RMSD: 0.256
# Mean RMSD: 0.254
data_MOF--net-qtz-x--node1-CIFDUS_clean_sbu_1--edge1-none
_symmetry_space_group_name_H-M    P1
_symmetry_Int_Tables_number       1
_symmetry_cell_setting            triclinic
loop_
_symmetry_equiv_pos_as_xyz
'x, y, z'
_cell_length_a     7.836524
_cell_length_b     7.8103436
_cell_length_c     16.771306
_cell_angle_alpha  94.214013
_cell_angle_beta   85.950057
_cell_angle_gamma 120.15684
loop_
_atom_site_label
_atom_site_type_symbol
_atom_site_fract_x
_atom_site_fract_y
_atom_site_fract_z
_atom_type_partial_charge
O0 O 0.91913 0.20611 0.18094 0.0
Mn1 Mn -0.01904 0.50878 0.17546 0.0
O2 O 0.21517 0.22969 0.17193 0.0
Mn3 Mn 0.36685 0.5139 0.16675 0.0
O4 O 0.04093 0.81087 0.17065 0.0
O5 O 0.74482 0.43562 0.24436 0.0
Mn6 Mn 0.59574 0.50707 0.20339 0.0
O7 O 0.84461 0.43272 0.06745 0.0
O8 O 0.74854 0.79106 0.19768 0.0
O9 O 0.10855 0.58413 0.28126 0.0
O10 O 0.41696 0.6548 0.26665 0.0
O11 O 0.47366 0.38226 0.30099 0.0
O12 O 0.53936 0.35657 0.10646 0.0
C13 C 0.3569 0.64549 0.05677 0.0
C14 C 0.02734 0.12276 0.1779 0.0
C15 C 0.93416 0.89578 0.18207 0.0
C16 C 0.62918 0.36948 0.30628 0.0
C17 C 0.66384 0.36204 0.05309 0.0
C18 C 0.27541 0.64744 0.30973 0.0
O19 O 0.2256 0.58227 0.11354 0.0
O20 O 0.51177 0.64171 0.07331 0.0
O21 O 0.23263 0.0555 0.51497 0.0
Mn22 Mn 0.47573 -0.00374 0.50997 0.0
O23 O 0.96523 0.75476 0.51382 0.0
Mn24 Mn 0.10774 0.60969 0.50795 0.0
O25 O 0.71679 0.93125 0.5055 0.0
O26 O 0.62806 0.24282 0.57263 0.0
Mn27 Mn 0.85855 0.38431 0.52798 0.0
O28 O 0.55861 0.1266 0.39948 0.0
O29 O -0.01501 0.22516 0.52589 0.0
O30 O 0.39361 0.87268 0.61957 0.0
O31 O 0.18717 0.5542 0.60026 0.0
O32 O 0.84437 0.50211 0.63056 0.0
O33 O 0.78377 0.43799 0.43072 0.0
C34 C 0.25877 0.61301 0.39405 0.0
C35 C 0.04159 0.94377 0.5145 0.0
C36 C 0.90598 0.03724 0.51538 0.0
C37 C 0.67556 0.34538 0.63873 0.0
C38 C 0.6698 0.30624 0.38045 0.0
C39 C 0.3045 0.69768 0.64372 0.0
O40 O 0.32456 0.74788 0.4498 0.0
O41 O 0.10273 0.45697 0.41652 0.0
O42 O 0.16072 0.25282 0.84717 0.0
Mn43 Mn 0.46456 0.49208 0.84481 0.0
O44 O 0.19071 0.98345 0.84565 0.0
Mn45 Mn 0.47531 0.11547 0.83122 0.0
O46 O 0.77035 0.73154 0.84283 0.0
O47 O 0.38711 0.65804 0.91288 0.0
Mn48 Mn 0.46332 0.88064 0.87078 0.0
O49 O 0.41578 0.57168 0.73808 0.0
O50 O 0.74613 0.00503 0.85646 0.0
O51 O 0.50894 0.41388 0.95173 0.0
O52 O 0.62917 0.2165 0.92221 0.0
O53 O 0.35412 0.88476 0.9757 0.0
O54 O 0.31382 0.78233 0.77887 0.0
C55 C 0.60392 0.25747 0.71747 0.0
C56 C 0.08054 0.06104 0.84688 0.0
C57 C 0.85325 0.92397 0.8487 0.0
C58 C 0.34167 0.71555 0.98022 0.0
C59 C 0.33229 0.66986 0.72535 0.0
C60 C 0.60301 0.33183 0.97084 0.0
O61 O 0.54215 0.32556 0.77735 0.0
O62 O 0.6005 0.09797 0.73321 0.0
loop_
_geom_bond_atom_site_label_1
_geom_bond_atom_site_label_2
_geom_bond_distance
_geom_bond_site_symmetry_2
_ccdc_geom_bond_type
O0 Mn1 2.163 1_655 S
O0 C14 1.244 1_655 S
Mn1 O0 2.163 1_455 S
Mn1 O4 2.160 . S
Mn1 O5 2.221 1_455 S
Mn1 O7 2.163 1_455 S
Mn1 O9 2.160 . S
Mn1 O19 2.221 . S
O2 Mn3 2.087 . S
O2 C14 1.256 . S
Mn3 O2 2.087 . S
Mn3 O10 2.089 . S
Mn3 O19 2.290 . S
Mn3 O20 2.251 . S
O4 Mn1 2.160 . S
O4 C15 1.239 1_455 S
O5 Mn1 2.221 1_655 S
O5 Mn6 2.290 . S
O5 C16 1.278 . S
Mn6 O5 2.290 . S
Mn6 O8 2.089 . S
Mn6 O11 2.251 . S
Mn6 O12 2.087 . S
O7 Mn1 2.163 1_655 S
O7 C17 1.244 . S
O8 Mn6 2.089 . S
O8 C15 1.256 . S
O9 Mn1 2.160 . S
O9 C18 1.239 . S
O10 Mn3 2.089 . S
O10 C18 1.256 . S
O11 Mn6 2.251 . S
O11 C16 1.241 . S
O12 Mn6 2.087 . S
O12 C17 1.256 . S
C13 O19 1.278 . S
C13 O20 1.241 . S
C14 O0 1.244 1_455 S
C14 O2 1.256 . S
C15 O4 1.239 1_655 S
C15 O8 1.256 . S
C16 O5 1.278 . S
C16 O11 1.241 . S
C17 O7 1.244 . S
C17 O12 1.256 . S
C18 O9 1.239 . S
C18 O10 1.256 . S
O19 Mn1 2.221 . S
O19 Mn3 2.290 . S
O19 C13 1.278 . S
O20 Mn3 2.251 . S
O20 C13 1.241 . S
O21 Mn22 2.161 1_545 S
O21 C35 1.244 1_545 S
Mn22 O21 2.161 1_565 S
Mn22 O25 2.161 . S
Mn22 O26 2.220 1_565 S
Mn22 O28 2.161 1_565 S
Mn22 O30 2.162 . S
Mn22 O40 2.223 . S
O23 Mn24 2.087 . S
O23 C35 1.256 . S
Mn24 O23 2.087 . S
Mn24 O31 2.089 . S
Mn24 O40 2.290 . S
Mn24 O41 2.251 . S
O25 Mn22 2.161 . S
O25 C36 1.239 1_665 S
O26 Mn22 2.220 1_545 S
O26 Mn27 2.290 1_655 S
O26 C37 1.278 . S
Mn27 O26 2.290 1_455 S
Mn27 O29 2.089 . S
Mn27 O32 2.251 1_455 S
Mn27 O33 2.087 1_455 S
O28 Mn22 2.161 1_545 S
O28 C38 1.244 . S
O29 Mn27 2.089 . S
O29 C36 1.256 . S
O30 Mn22 2.162 . S
O30 C39 1.239 . S
O31 Mn24 2.089 . S
O31 C39 1.256 . S
O32 Mn27 2.251 1_655 S
O32 C37 1.241 . S
O33 Mn27 2.087 1_655 S
O33 C38 1.256 . S
C34 O40 1.278 . S
C34 O41 1.241 . S
C35 O21 1.244 1_565 S
C35 O23 1.256 . S
C36 O25 1.239 1_445 S
C36 O29 1.256 . S
C37 O26 1.278 . S
C37 O32 1.241 . S
C38 O28 1.244 . S
C38 O33 1.256 . S
C39 O30 1.239 . S
C39 O31 1.256 . S
O40 Mn22 2.223 . S
O40 Mn24 2.290 . S
O40 C34 1.278 . S
O41 Mn24 2.251 . S
O41 C34 1.241 . S
O42 Mn43 2.163 . S
O42 C56 1.244 . S
Mn43 O42 2.163 . S
Mn43 O46 2.160 . S
Mn43 O47 2.221 . S
Mn43 O49 2.163 . S
Mn43 O51 2.160 . S
Mn43 O61 2.221 . S
O44 Mn45 2.087 1_565 S
O44 C56 1.256 1_565 S
Mn45 O44 2.087 1_545 S
Mn45 O52 2.089 . S
Mn45 O61 2.290 . S
Mn45 O62 2.251 . S
O46 Mn43 2.160 . S
O46 C57 1.239 1_565 S
O47 Mn43 2.221 . S
O47 Mn48 2.290 1_565 S
O47 C58 1.278 . S
Mn48 O47 2.290 1_545 S
Mn48 O50 2.089 . S
Mn48 O53 2.251 1_545 S
Mn48 O54 2.087 1_545 S
O49 Mn43 2.163 . S
O49 C59 1.244 . S
O50 Mn48 2.089 . S
O50 C57 1.256 . S
O51 Mn43 2.160 . S
O51 C60 1.239 . S
O52 Mn45 2.089 . S
O52 C60 1.256 . S
O53 Mn48 2.251 1_565 S
O53 C58 1.241 . S
O54 Mn48 2.087 1_565 S
O54 C59 1.256 . S
C55 O61 1.278 . S
C55 O62 1.241 . S
C56 O42 1.244 . S
C56 O44 1.256 1_545 S
C57 O46 1.239 1_545 S
C57 O50 1.256 . S
C58 O47 1.278 . S
C58 O53 1.241 . S
C59 O49 1.244 . S
C59 O54 1.256 . S
C60 O51 1.239 . S
C60 O52 1.256 . S
O61 Mn43 2.221 . S
O61 Mn45 2.290 . S
O61 C55 1.278 . S
O62 Mn45 2.251 . S
O62 C55 1.241 . S
C15 C14 1.474 1_665 S
C35 C36 1.521 1_565 S
C57 C56 1.477 1_655 S
C58 C13 2.201 1_556 S
C38 C16 2.197 . S
C59 C39 1.719 . S
C60 C17 1.374 1_556 S
C18 C34 1.221 . S
C55 C37 1.814 . S
