# Generated by pormake.
# Topology bnn, (5)-cn, num edge types: 1
# Building blocks:
#     Node 0, Type 0, BuildingBlock: XOMCOT_clean_sbu_0, # of connection points: 5
#     Node 1, Type 0, BuildingBlock: XOMCOT_clean_sbu_0, # of connection points: 5
#     Edge 2, Type (0, 0), BuildingBlock: OJICUG_clean_linker_0, # of connection points: 2
#     Edge 3, Type (0, 0), BuildingBlock: OJICUG_clean_linker_0, # of connection points: 2
#     Edge 4, Type (0, 0), BuildingBlock: OJICUG_clean_linker_0, # of connection points: 2
#     Edge 5, Type (0, 0), BuildingBlock: OJICUG_clean_linker_0, # of connection points: 2
#     Edge 6, Type (0, 0), BuildingBlock: OJICUG_clean_linker_0, # of connection points: 2
# Relax obj value: 0.023
# Max RMSD: 0.077
# Mean RMSD: 0.077
data_MOF--net-bnn--node1-XOMCOT_clean_sbu_0--edge1-OJICUG_clean_linker_0
_symmetry_space_group_name_H-M    P1
_symmetry_Int_Tables_number       1
_symmetry_cell_setting            triclinic
loop_
_symmetry_equiv_pos_as_xyz
'x, y, z'
_cell_length_a     23.072249
_cell_length_b     20.130904
_cell_length_c     13.576889
_cell_angle_alpha  99.52367
_cell_angle_beta   92.02023
_cell_angle_gamma 125.41488
loop_
_atom_site_label
_atom_site_type_symbol
_atom_site_fract_x
_atom_site_fract_y
_atom_site_fract_z
_atom_type_partial_charge
Co0 Co 0.33282 0.71688 0.04697 0.0
C1 C 0.32254 0.7112 0.26398 0.0
C2 C 0.34787 0.82566 0.23353 0.0
C3 C 0.34314 0.82815 0.33464 0.0
N4 N 0.33559 0.75267 0.18945 0.0
N5 N 0.32735 0.75613 0.35394 0.0
H6 H 0.30987 0.64964 0.25303 0.0
H7 H 0.35866 0.87349 0.19451 0.0
C8 C 0.45997 0.87396 0.98999 0.0
O9 O 0.45842 0.83145 0.90424 0.0
N10 N 0.3281 0.6807 0.9036 0.0
C11 C 0.33121 0.61837 0.85744 0.0
C12 C 0.32306 0.61154 0.75453 0.0
C13 C 0.31549 0.70878 0.82788 0.0
N14 N 0.3139 0.66898 0.73627 0.0
C15 C 0.36018 0.60505 0.10144 0.0
C16 C 0.50298 0.69285 0.07758 0.0
C17 C 0.46847 0.61236 0.0959 0.0
C18 C 0.3967 0.57 0.11164 0.0
C19 C 0.46495 0.72685 0.071 0.0
N20 N 0.39349 0.68201 0.07945 0.0
H21 H 0.30386 0.56811 0.10808 0.0
H22 H 0.49342 0.7879 0.05561 0.0
H23 H 0.33915 0.5804 0.89515 0.0
H24 H 0.30981 0.75913 0.84 0.0
O25 O 0.23935 0.61266 0.03964 0.0
O26 O 0.25705 0.72877 1.01545 0.0
O27 O 0.4183 0.83674 0.05246 0.0
C28 C 0.21184 0.65065 1.01934 0.0
H29 H 0.34984 0.87882 0.38906 0.0
H30 H 0.32608 0.56946 0.69781 0.0
H31 H 0.55821 0.72852 0.06424 0.0
H32 H 0.36783 0.50897 0.12934 0.0
Co33 Co 0.66739 0.38912 0.03805 0.0
C34 C 0.66347 0.39473 0.82115 0.0
C35 C 0.56671 0.28564 0.84917 0.0
C36 C 0.56034 0.28248 0.7471 0.0
N37 N 0.6314 0.35571 0.8952 0.0
N38 N 0.6213 0.35102 0.72946 0.0
H39 H 0.71694 0.45296 0.83388 0.0
H40 H 0.52695 0.23991 0.88734 0.0
C41 C 0.6463 0.23542 0.08932 0.0
O42 O 0.69604 0.27997 0.1703 0.0
N43 N 0.70183 0.42223 0.1827 0.0
C44 C 0.76797 0.48632 0.23394 0.0
C45 C 0.76723 0.49072 0.33584 0.0
C46 C 0.66149 0.38974 0.2549 0.0
N47 N 0.70037 0.4299 0.34895 0.0
C48 C 0.81241 0.50991 1.01198 0.0
C49 C 0.85241 0.40434 0.96977 0.0
C50 C 0.9052 0.49091 0.98264 0.0
C51 C 0.88357 0.54337 1.0014 0.0
C52 C 0.78147 0.37333 0.98184 0.0
N53 N 0.76301 0.42655 1.0082 0.0
H54 H 0.79848 0.55272 0.029 0.0
H55 H 0.74225 0.30664 0.96962 0.0
H56 H 0.81415 0.52839 0.20158 0.0
H57 H 0.6048 0.33775 0.23868 0.0
O58 O 0.67764 0.49242 0.04711 0.0
O59 O 0.57883 0.37337 0.06512 0.0
O60 O 0.63306 0.27033 0.03096 0.0
C61 C 0.61153 0.45175 0.06362 0.0
H62 H 0.5141 0.23367 0.69058 0.0
H63 H 0.8128 0.53471 0.39563 0.0
H64 H 0.86573 0.36077 0.95108 0.0
H65 H 0.92177 0.61058 1.01238 0.0
C66 C 0.58056 0.61818 0.12142 0.0
C67 C 0.50532 0.57094 0.09308 0.0
H68 H 0.67311 0.61747 0.1333 0.0
C69 C 0.46558 0.48343 0.0581 0.0
H70 H 0.61312 0.68525 0.15066 0.0
C71 C 0.49993 0.44454 0.05154 0.0
C72 C 0.57499 0.49228 0.07709 0.0
H73 H 0.40796 0.44462 0.03287 0.0
H74 H 0.46791 0.37732 1.02314 0.0
C75 C 0.61505 0.57935 0.11229 0.0
C76 C 0.02849 0.60091 0.94745 0.0
C77 C 0.98288 0.52744 0.98257 0.0
H78 H 0.13659 0.69791 0.93252 0.0
C79 C 1.01335 0.49288 1.02492 0.0
H80 H 1.00698 0.62846 0.91227 0.0
C81 C 0.08752 0.532 0.03459 0.0
C82 C 0.1331 0.60714 1.00339 0.0
H83 H 0.98045 0.43725 0.05422 0.0
H84 H 0.10942 0.50468 0.06949 0.0
C85 C 0.10282 0.6407 0.95862 0.0
C86 C 0.5384 1.01107 0.11754 0.0
C87 C 0.51191 0.96631 1.01597 0.0
H88 H 0.60366 0.13184 0.22037 0.0
C89 C 0.53314 1.01079 0.93896 0.0
H90 H 0.52297 0.9783 0.17841 0.0
C91 C 0.5778 0.09834 0.963 0.0
C92 C 0.60381 0.14314 0.06447 0.0
H93 H 0.51321 0.97795 0.86008 0.0
H94 H 0.59161 0.13107 0.90212 0.0
C95 C 0.58483 0.09876 0.14154 0.0
C96 C 0.28193 0.62804 0.54996 0.0
C97 C 0.31208 0.6899 0.64034 0.0
H98 H 0.26107 0.5997 0.38857 0.0
C99 C 0.34438 0.77332 0.63526 0.0
H100 H 0.25591 0.5631 0.55174 0.0
C101 C 0.34841 0.79479 0.54168 0.0
C102 C 0.31969 0.73323 0.45073 0.0
H103 H 0.36909 0.82257 0.70359 0.0
H104 H 0.37608 0.86014 0.54111 0.0
C105 C 0.28529 0.6493 0.45632 0.0
C106 C 0.6234 0.32782 0.44935 0.0
C107 C 0.67714 0.41054 0.44387 0.0
H108 H 0.56451 0.24365 0.54436 0.0
C109 C 0.71027 0.47376 0.53333 0.0
H110 H 0.59761 0.27762 0.38193 0.0
C111 C 0.69122 0.45452 0.62654 0.0
C112 C 0.6387 0.37147 0.63265 0.0
H113 H 0.75101 0.53832 0.53129 0.0
H114 H 0.71763 0.50491 0.6937 0.0
C115 C 0.6045 0.30844 0.5427 0.0
loop_
_geom_bond_atom_site_label_1
_geom_bond_atom_site_label_2
_geom_bond_distance
_geom_bond_site_symmetry_2
_ccdc_geom_bond_type
Co0 N4 2.148 . S
Co0 N10 2.128 1_554 S
Co0 N20 2.194 . S
Co0 O25 2.351 . S
Co0 O26 2.155 . S
Co0 O27 2.096 . S
C1 N4 1.301 . S
C1 N5 1.328 . S
C1 H6 0.930 . S
C2 C3 1.333 . S
C2 N4 1.317 . S
C2 H7 0.930 . S
C3 C2 1.333 . S
C3 N5 1.350 . S
C3 H29 0.931 . S
N4 Co0 2.148 . S
N4 C1 1.301 . S
N4 C2 1.317 . S
N5 C1 1.328 . S
N5 C3 1.350 . S
H6 C1 0.930 . S
H7 C2 0.930 . S
C8 O9 1.224 . S
C8 O27 1.247 . S
O9 C8 1.224 . S
N10 Co0 2.128 1_556 S
N10 C11 1.355 . S
N10 C13 1.311 . S
C11 N10 1.355 . S
C11 C12 1.363 . S
C11 H23 0.929 . S
C12 C11 1.363 . S
C12 N14 1.375 . S
C12 H30 0.931 . S
C13 N10 1.311 . S
C13 N14 1.347 . S
C13 H24 0.929 . S
N14 C12 1.375 . S
N14 C13 1.347 . S
C15 C18 1.365 . S
C15 N20 1.328 . S
C15 H21 0.929 . S
C16 C17 1.362 . S
C16 C19 1.378 . S
C16 H31 0.929 . S
C17 C16 1.362 . S
C17 C18 1.366 . S
C18 C15 1.365 . S
C18 C17 1.366 . S
C18 H32 0.930 . S
C19 C16 1.378 . S
C19 N20 1.315 . S
C19 H22 0.930 . S
N20 Co0 2.194 . S
N20 C15 1.328 . S
N20 C19 1.315 . S
H21 C15 0.929 . S
H22 C19 0.930 . S
H23 C11 0.929 . S
H24 C13 0.929 . S
O25 Co0 2.351 . S
O25 C28 1.244 . S
O26 Co0 2.155 . S
O26 C28 1.240 . S
O27 Co0 2.096 . S
O27 C8 1.247 . S
C28 O25 1.244 . S
C28 O26 1.240 . S
H29 C3 0.931 . S
H30 C12 0.931 . S
H31 C16 0.929 . S
H32 C18 0.930 . S
Co33 N37 2.148 1_554 S
Co33 N43 2.128 . S
Co33 N53 2.194 . S
Co33 O58 2.351 . S
Co33 O59 2.155 . S
Co33 O60 2.096 . S
C34 N37 1.301 . S
C34 N38 1.328 . S
C34 H39 0.930 . S
C35 C36 1.333 . S
C35 N37 1.317 . S
C35 H40 0.930 . S
C36 C35 1.333 . S
C36 N38 1.350 . S
C36 H62 0.931 . S
N37 Co33 2.148 1_556 S
N37 C34 1.301 . S
N37 C35 1.317 . S
N38 C34 1.328 . S
N38 C36 1.350 . S
H39 C34 0.930 . S
H40 C35 0.930 . S
C41 O42 1.224 . S
C41 O60 1.247 . S
O42 C41 1.224 . S
N43 Co33 2.128 . S
N43 C44 1.355 . S
N43 C46 1.311 . S
C44 N43 1.355 . S
C44 C45 1.363 . S
C44 H56 0.929 . S
C45 C44 1.363 . S
C45 N47 1.375 . S
C45 H63 0.931 . S
C46 N43 1.311 . S
C46 N47 1.347 . S
C46 H57 0.929 . S
N47 C45 1.375 . S
N47 C46 1.347 . S
C48 C51 1.365 1_556 S
C48 N53 1.328 1_556 S
C48 H54 0.929 . S
C49 C50 1.362 . S
C49 C52 1.378 . S
C49 H64 0.929 . S
C50 C49 1.362 . S
C50 C51 1.366 . S
C51 C48 1.365 1_554 S
C51 C50 1.366 . S
C51 H65 0.930 . S
C52 C49 1.378 . S
C52 N53 1.315 . S
C52 H55 0.930 . S
N53 Co33 2.194 . S
N53 C48 1.328 1_554 S
N53 C52 1.315 . S
H54 C48 0.929 . S
H55 C52 0.930 . S
H56 C44 0.929 . S
H57 C46 0.929 . S
O58 Co33 2.351 . S
O58 C61 1.244 . S
O59 Co33 2.155 . S
O59 C61 1.240 . S
O60 Co33 2.096 . S
O60 C41 1.247 . S
C61 O58 1.244 . S
C61 O59 1.240 . S
H62 C36 0.931 . S
H63 C45 0.931 . S
H64 C49 0.929 . S
H65 C51 0.930 . S
C66 C67 1.387 . S
C66 H70 0.950 . S
C66 C75 1.390 . S
C67 C66 1.387 . S
C67 C69 1.387 1_554 S
H68 C75 0.950 . S
C69 C67 1.387 1_556 S
C69 C71 1.390 . S
C69 H73 0.950 . S
H70 C66 0.950 . S
C71 C69 1.390 . S
C71 C72 1.387 1_556 S
C71 H74 0.950 . S
C72 C71 1.387 1_554 S
C72 C75 1.387 . S
H73 C69 0.950 . S
H74 C71 0.950 . S
C75 C66 1.390 . S
C75 H68 0.950 . S
C75 C72 1.387 . S
C76 C77 1.387 1_556 S
C76 H80 0.950 . S
C76 C85 1.390 1_655 S
C77 C76 1.387 1_554 S
C77 C79 1.387 1_655 S
H78 C85 0.950 . S
C79 C77 1.387 1_455 S
C79 C81 1.390 . S
C79 H83 0.950 1_455 S
H80 C76 0.950 . S
C81 C79 1.390 . S
C81 C82 1.387 . S
C81 H84 0.950 . S
C82 C81 1.387 . S
C82 C85 1.387 1_554 S
H83 C79 0.950 1_655 S
H84 C81 0.950 . S
C85 C76 1.390 1_455 S
C85 H78 0.950 . S
C85 C82 1.387 1_556 S
C86 C87 1.387 . S
C86 H90 0.950 . S
C86 C95 1.390 1_565 S
C87 C86 1.387 . S
C87 C89 1.387 . S
H88 C95 0.950 . S
C89 C87 1.387 . S
C89 C91 1.390 1_565 S
C89 H93 0.950 . S
H90 C86 0.950 . S
C91 C89 1.390 1_545 S
C91 C92 1.387 . S
C91 H94 0.950 . S
C92 C91 1.387 . S
C92 C95 1.387 . S
H93 C89 0.950 . S
H94 C91 0.950 . S
C95 C86 1.390 1_545 S
C95 H88 0.950 . S
C95 C92 1.387 . S
C96 C97 1.387 . S
C96 H100 0.950 . S
C96 C105 1.390 . S
C97 C96 1.387 . S
C97 C99 1.387 . S
H98 C105 0.950 . S
C99 C97 1.387 . S
C99 C101 1.390 . S
C99 H103 0.950 . S
H100 C96 0.950 . S
C101 C99 1.390 . S
C101 C102 1.387 . S
C101 H104 0.950 . S
C102 C101 1.387 . S
C102 C105 1.387 . S
H103 C99 0.950 . S
H104 C101 0.950 . S
C105 C96 1.390 . S
C105 H98 0.950 . S
C105 C102 1.387 . S
C106 C107 1.387 . S
C106 H110 0.950 . S
C106 C115 1.390 . S
C107 C106 1.387 . S
C107 C109 1.387 . S
H108 C115 0.950 . S
C109 C107 1.387 . S
C109 C111 1.390 . S
C109 H113 0.950 . S
H110 C106 0.950 . S
C111 C109 1.390 . S
C111 C112 1.387 . S
C111 H114 0.950 . S
C112 C111 1.387 . S
C112 C115 1.387 . S
H113 C109 0.950 . S
H114 C111 0.950 . S
C115 C106 1.390 . S
C115 H108 0.950 . S
C115 C112 1.387 . S
C67 C17 1.499 . S
C72 C61 1.501 . S
C77 C50 1.499 . S
C82 C28 1.501 . S
C87 C8 1.501 . S
C92 C41 1.501 . S
C97 N14 1.476 . S
C102 N5 1.480 . S
C107 N47 1.477 . S
C112 N38 1.481 . S
