# Generated by pormake.
# Topology kag, (6)-cn, num edge types: 1
# Building blocks:
#     Node 0, Type 0, BuildingBlock: BETDAH_clean_sbu_0, # of connection points: 6
#     Node 1, Type 0, BuildingBlock: BETDAH_clean_sbu_0, # of connection points: 6
#     Node 2, Type 0, BuildingBlock: BETDAH_clean_sbu_0, # of connection points: 6
#     Edge 3, Type (0, 0), None
#     Edge 4, Type (0, 0), None
#     Edge 5, Type (0, 0), None
#     Edge 6, Type (0, 0), None
#     Edge 7, Type (0, 0), None
#     Edge 8, Type (0, 0), None
#     Edge 9, Type (0, 0), None
#     Edge 10, Type (0, 0), None
#     Edge 11, Type (0, 0), None
# Relax obj value: 0.230
# Max RMSD: 0.328
# Mean RMSD: 0.176
data_MOF--net-kag--node1-BETDAH_clean_sbu_0--edge1-none
_symmetry_space_group_name_H-M    P1
_symmetry_Int_Tables_number       1
_symmetry_cell_setting            triclinic
loop_
_symmetry_equiv_pos_as_xyz
'x, y, z'
_cell_length_a     14.306591
_cell_length_b     25.116882
_cell_length_c     6.0353217
_cell_angle_alpha  96.2138
_cell_angle_beta   91.039176
_cell_angle_gamma 80.045971
loop_
_atom_site_label
_atom_site_type_symbol
_atom_site_fract_x
_atom_site_fract_y
_atom_site_fract_z
_atom_type_partial_charge
Ho0 Ho 0.14042 0.46805 0.99843 0.0
Ho1 Ho 1.10181 0.59359 0.06567 0.0
C2 C 0.92203 0.53334 0.04876 0.0
C3 C 0.16025 0.36493 0.03774 0.0
C4 C 1.1146 0.31595 1.00737 0.0
C5 C 1.06819 0.30017 0.18653 0.0
C6 C 1.03774 0.24987 0.16873 0.0
C7 C 1.05316 0.21421 0.97163 0.0
C8 C 1.0972 0.23053 0.79046 0.0
C9 C 0.12817 0.28068 0.80859 0.0
C10 C 0.12429 0.51745 0.62186 0.0
C11 C 0.32017 0.52831 1.01513 0.0
C12 C 1.08187 0.69675 1.02722 0.0
C13 C 0.12757 0.74572 0.05695 0.0
C14 C 0.17393 0.76141 0.8775 0.0
C15 C 0.2044 0.8117 0.89482 0.0
C16 C 0.18904 0.84745 0.0917 0.0
C17 C 0.14504 0.83122 0.27314 0.0
C18 C 1.11406 0.78108 0.2555 0.0
C19 C 1.11773 0.54398 0.44195 0.0
O20 O 0.98113 0.48683 0.06337 0.0
O21 O 0.95257 0.57856 1.01499 0.0
O22 O 0.18341 0.38472 0.85868 0.0
O23 O 0.13011 0.40285 0.19945 0.0
O24 O 0.17973 0.47162 0.6398 0.0
O25 O 1.07531 0.5326 0.79541 0.0
O26 O 0.26106 0.57481 1.00029 0.0
O27 O 0.28964 0.48311 0.0492 0.0
O28 O 1.05932 0.67687 0.20659 0.0
O29 O 1.11149 0.65891 0.86484 0.0
O30 O 1.06225 0.58981 0.42416 0.0
O31 O 0.16682 0.52908 0.26849 0.0
H32 H 1.05759 0.32602 0.34284 0.0
H33 H 1.00246 0.23873 0.30976 0.0
H34 H 1.11075 0.2037 0.63729 0.0
H35 H 0.16554 0.29096 0.66906 0.0
H36 H 0.18449 0.7355 0.72135 0.0
H37 H 0.23964 0.82278 0.75358 0.0
H38 H 0.13153 0.85811 0.42615 0.0
H39 H 1.07671 0.77087 0.39523 0.0
Ho40 Ho 0.72936 1.0144 0.03698 0.0
Ho41 Ho 0.51292 0.04718 1.02527 0.0
C42 C 0.62761 0.14393 0.04267 0.0
C43 C 0.90569 1.01396 0.95668 0.0
C44 C 0.95563 0.06064 0.94368 0.0
C45 C 0.94065 0.09212 0.76262 0.0
C46 C 0.97471 0.14118 0.76884 0.0
C47 C 1.02405 0.15998 0.9564 0.0
C48 C 1.04337 0.12721 0.13202 0.0
C49 C 1.01004 0.0779 0.12509 0.0
C50 C 0.64375 1.02734 0.43427 0.0
C51 C 0.61465 0.91767 1.02001 0.0
C52 C 0.33651 0.04765 0.1048 0.0
C53 C 0.28659 1.00099 0.11829 0.0
C54 C 0.30163 0.96959 0.29956 0.0
C55 C 0.26757 0.92053 0.29378 0.0
C56 C 0.21817 0.90167 0.10644 0.0
C57 C 0.19879 0.93437 0.9306 0.0
C58 C 0.23212 0.98366 0.93709 0.0
C59 C 0.59891 0.03432 0.62821 0.0
O60 O 0.70312 0.10518 1.00435 0.0
O61 O 0.54281 0.13236 0.07959 0.0
O62 O 0.87428 1.00881 0.15432 0.0
O63 O 0.84375 1.00597 0.7993 0.0
O64 O 0.71823 0.99079 0.38392 0.0
O65 O 0.62164 0.05682 0.2788 0.0
O66 O 0.53918 0.95644 0.05857 0.0
O67 O 0.69943 0.92923 0.98273 0.0
O68 O 0.36813 0.0526 0.90715 0.0
O69 O 0.39827 0.05582 0.26241 0.0
O70 O 0.52441 0.07087 0.67838 0.0
O71 O 0.62057 1.00481 0.78368 0.0
H72 H 0.89932 0.0801 0.61954 0.0
H73 H 0.95887 0.16554 0.63093 0.0
H74 H 1.08322 0.14007 0.27636 0.0
H75 H 1.02381 0.05428 0.26573 0.0
H76 H 0.34301 0.98165 0.44247 0.0
H77 H 0.28345 0.89623 0.43185 0.0
H78 H 0.1589 0.92145 0.78643 0.0
H79 H 0.21831 1.00723 0.79629 0.0
Ho80 Ho 0.60302 0.59418 0.06876 0.0
Ho81 Ho 0.63917 0.46748 0.99469 0.0
C82 C 0.4237 0.52726 1.01065 0.0
C83 C 0.54572 0.69722 0.04097 0.0
C84 C 0.56813 0.75191 1.02274 0.0
C85 C 0.49208 0.79485 1.00967 0.0
C86 C 0.50791 0.8481 1.00641 0.0
C87 C 0.60062 0.86002 1.01564 0.0
C88 C 0.67738 0.81667 1.02434 0.0
C89 C 0.66122 0.76299 1.02903 0.0
C90 C 0.61883 0.54352 0.44054 0.0
C91 C 0.8185 0.5344 0.05309 0.0
C92 C 0.69644 0.3644 1.02172 0.0
C93 C 0.67406 0.30971 0.04009 0.0
C94 C 0.75012 0.26679 0.05353 0.0
C95 C 0.73431 0.21354 0.05677 0.0
C96 C 0.64162 0.20159 0.04717 0.0
C97 C 0.56484 0.24492 0.03815 0.0
C98 C 0.58098 0.29861 0.03348 0.0
C99 C 0.62309 0.51833 0.62318 0.0
O100 O 0.45588 0.57325 0.99477 0.0
O101 O 0.48114 0.48098 0.03727 0.0
O102 O 0.56558 0.67632 0.22889 0.0
O103 O 0.55883 0.6608 0.86688 0.0
O104 O 0.64981 0.58859 0.42585 0.0
O105 O 0.57832 0.52874 0.2637 0.0
O106 O 0.78631 0.48839 0.06867 0.0
O107 O 0.76107 0.58069 1.0267 0.0
O108 O 0.67624 0.38537 0.83405 0.0
O109 O 0.6837 0.40077 0.19599 0.0
O110 O 0.59214 0.47324 0.63765 0.0
O111 O 0.66382 0.53287 0.79999 0.0
H112 H 0.41968 0.78731 1.00528 0.0
H113 H 0.44691 0.88001 0.99726 0.0
H114 H 0.74963 0.82433 0.03178 0.0
H115 H 0.72098 0.73041 0.04025 0.0
H116 H 0.8225 0.27435 0.05816 0.0
H117 H 0.79532 0.18164 0.06614 0.0
H118 H 0.49261 0.23724 1.03042 0.0
H119 H 0.52122 0.33117 1.02196 0.0
loop_
_geom_bond_atom_site_label_1
_geom_bond_atom_site_label_2
_geom_bond_distance
_geom_bond_site_symmetry_2
_ccdc_geom_bond_type
Ho0 C3 2.811 1_455 S
Ho0 O20 2.322 1_455 S
Ho0 O22 2.378 1_455 S
Ho0 O23 2.524 1_456 S
Ho0 O24 2.381 . S
Ho0 O25 2.669 . S
Ho0 O27 2.346 . S
Ho0 O31 2.305 1_456 S
Ho1 C12 2.811 1_655 S
Ho1 O21 2.346 . S
Ho1 O25 2.305 1_654 S
Ho1 O26 2.322 1_655 S
Ho1 O28 2.378 1_655 S
Ho1 O29 2.524 1_654 S
Ho1 O30 2.381 . S
Ho1 O31 2.669 . S
C2 O20 1.259 . S
C2 O21 1.268 1_556 S
C3 Ho0 2.811 1_655 S
C3 C4 1.488 . S
C3 O22 1.215 . S
C3 O23 1.289 1_556 S
C4 C3 1.488 . S
C4 C5 1.348 1_556 S
C4 C9 1.413 . S
C5 C4 1.348 1_554 S
C5 C6 1.442 . S
C5 H32 0.930 . S
C6 C5 1.442 . S
C6 C7 1.381 1_554 S
C6 H33 0.931 . S
C7 C6 1.381 1_556 S
C7 C8 1.321 . S
C8 C7 1.321 . S
C8 C9 1.403 . S
C8 H34 0.934 . S
C9 C4 1.413 . S
C9 C8 1.403 . S
C9 H35 0.930 . S
C10 O24 1.275 . S
C10 O25 1.256 . S
C11 O26 1.259 . S
C11 O27 1.268 1_554 S
C12 Ho1 2.811 1_455 S
C12 C13 1.488 . S
C12 O28 1.215 . S
C12 O29 1.289 1_554 S
C13 C12 1.488 . S
C13 C14 1.348 1_554 S
C13 C18 1.413 . S
C14 C13 1.348 1_556 S
C14 C15 1.442 . S
C14 H36 0.930 . S
C15 C14 1.442 . S
C15 C16 1.381 1_556 S
C15 H37 0.931 . S
C16 C15 1.381 1_554 S
C16 C17 1.321 . S
C17 C16 1.321 . S
C17 C18 1.403 . S
C17 H38 0.934 . S
C18 C13 1.413 . S
C18 C17 1.403 . S
C18 H39 0.930 . S
C19 O30 1.276 . S
C19 O31 1.256 . S
O20 Ho0 2.322 1_655 S
O20 C2 1.259 . S
O21 Ho1 2.346 . S
O21 C2 1.268 1_554 S
O22 Ho0 2.378 1_655 S
O22 C3 1.215 . S
O23 Ho0 2.524 1_654 S
O23 C3 1.289 1_554 S
O24 Ho0 2.381 . S
O24 C10 1.275 . S
O25 Ho0 2.669 . S
O25 Ho1 2.305 1_456 S
O25 C10 1.256 . S
O26 Ho1 2.322 1_455 S
O26 C11 1.259 . S
O27 Ho0 2.346 . S
O27 C11 1.268 1_556 S
O28 Ho1 2.378 1_455 S
O28 C12 1.215 . S
O29 Ho1 2.524 1_456 S
O29 C12 1.289 1_556 S
O30 Ho1 2.381 . S
O30 C19 1.276 . S
O31 Ho0 2.305 1_654 S
O31 Ho1 2.669 . S
O31 C19 1.256 . S
H32 C5 0.930 . S
H33 C6 0.931 . S
H34 C8 0.934 . S
H35 C9 0.930 . S
H36 C14 0.930 . S
H37 C15 0.931 . S
H38 C17 0.934 . S
H39 C18 0.930 . S
Ho40 C43 2.811 1_554 S
Ho40 O60 2.322 . S
Ho40 O62 2.378 . S
Ho40 O63 2.524 1_554 S
Ho40 O64 2.381 . S
Ho40 O65 2.669 1_545 S
Ho40 O67 2.346 1_545 S
Ho40 O71 2.305 1_554 S
Ho41 C52 2.811 1_556 S
Ho41 O61 2.346 1_565 S
Ho41 O65 2.305 1_556 S
Ho41 O66 2.322 . S
Ho41 O68 2.378 . S
Ho41 O69 2.524 1_556 S
Ho41 O70 2.381 . S
Ho41 O71 2.669 1_565 S
C42 O60 1.259 . S
C42 O61 1.268 1_554 S
C43 Ho40 2.811 1_556 S
C43 C44 1.488 . S
C43 O62 1.215 1_556 S
C43 O63 1.289 . S
C44 C43 1.488 . S
C44 C45 1.348 . S
C44 C49 1.413 1_556 S
C45 C44 1.348 . S
C45 C46 1.442 . S
C45 H72 0.930 . S
C46 C45 1.442 . S
C46 C47 1.381 . S
C46 H73 0.931 . S
C47 C46 1.381 . S
C47 C48 1.321 1_556 S
C48 C47 1.321 1_554 S
C48 C49 1.403 . S
C48 H74 0.934 . S
C49 C44 1.413 1_554 S
C49 C48 1.403 . S
C49 H75 0.930 . S
C50 O64 1.275 . S
C50 O65 1.256 1_545 S
C51 O66 1.259 . S
C51 O67 1.268 1_556 S
C52 Ho41 2.811 1_554 S
C52 C53 1.488 . S
C52 O68 1.215 1_554 S
C52 O69 1.289 . S
C53 C52 1.488 . S
C53 C54 1.348 . S
C53 C58 1.413 1_554 S
C54 C53 1.348 . S
C54 C55 1.442 . S
C54 H76 0.930 . S
C55 C54 1.442 . S
C55 C56 1.381 . S
C55 H77 0.931 . S
C56 C55 1.381 . S
C56 C57 1.321 1_554 S
C57 C56 1.321 1_556 S
C57 C58 1.403 . S
C57 H78 0.934 . S
C58 C53 1.413 1_556 S
C58 C57 1.403 . S
C58 H79 0.930 . S
C59 O70 1.275 . S
C59 O71 1.256 1_565 S
O60 Ho40 2.322 . S
O60 C42 1.259 . S
O61 Ho41 2.346 1_545 S
O61 C42 1.268 1_556 S
O62 Ho40 2.378 . S
O62 C43 1.215 1_554 S
O63 Ho40 2.524 1_556 S
O63 C43 1.289 . S
O64 Ho40 2.381 . S
O64 C50 1.275 . S
O65 Ho40 2.669 1_565 S
O65 Ho41 2.305 1_554 S
O65 C50 1.256 1_565 S
O66 Ho41 2.322 . S
O66 C51 1.259 . S
O67 Ho40 2.346 1_565 S
O67 C51 1.268 1_554 S
O68 Ho41 2.378 . S
O68 C52 1.215 1_556 S
O69 Ho41 2.524 1_554 S
O69 C52 1.289 . S
O70 Ho41 2.381 . S
O70 C59 1.275 . S
O71 Ho40 2.305 1_556 S
O71 Ho41 2.669 1_545 S
O71 C59 1.256 1_545 S
H72 C45 0.930 . S
H73 C46 0.931 . S
H74 C48 0.934 . S
H75 C49 0.930 . S
H76 C54 0.930 . S
H77 C55 0.931 . S
H78 C57 0.934 . S
H79 C58 0.930 . S
Ho80 C83 2.811 . S
Ho80 O100 2.322 . S
Ho80 O102 2.378 . S
Ho80 O103 2.524 1_554 S
Ho80 O104 2.381 . S
Ho80 O105 2.669 . S
Ho80 O107 2.346 . S
Ho80 O111 2.305 1_554 S
Ho81 C92 2.811 . S
Ho81 O101 2.346 . S
Ho81 O105 2.305 1_556 S
Ho81 O106 2.322 . S
Ho81 O108 2.378 . S
Ho81 O109 2.524 1_556 S
Ho81 O110 2.381 . S
Ho81 O111 2.669 . S
C82 O100 1.259 . S
C82 O101 1.268 1_554 S
C83 Ho80 2.811 . S
C83 C84 1.488 . S
C83 O102 1.215 . S
C83 O103 1.289 1_554 S
C84 C83 1.488 . S
C84 C85 1.348 1_554 S
C84 C89 1.413 . S
C85 C84 1.348 1_556 S
C85 C86 1.442 . S
C85 H112 0.930 . S
C86 C85 1.442 . S
C86 C87 1.381 1_556 S
C86 H113 0.931 . S
C87 C86 1.381 1_554 S
C87 C88 1.321 . S
C88 C87 1.321 . S
C88 C89 1.403 . S
C88 H114 0.934 . S
C89 C84 1.413 . S
C89 C88 1.403 . S
C89 H115 0.930 . S
C90 O104 1.275 . S
C90 O105 1.256 . S
C91 O106 1.259 . S
C91 O107 1.268 1_556 S
C92 Ho81 2.811 . S
C92 C93 1.488 . S
C92 O108 1.215 . S
C92 O109 1.289 1_556 S
C93 C92 1.488 . S
C93 C94 1.348 1_556 S
C93 C98 1.413 . S
C94 C93 1.348 1_554 S
C94 C95 1.442 . S
C94 H116 0.930 . S
C95 C94 1.442 . S
C95 C96 1.381 1_554 S
C95 H117 0.931 . S
C96 C95 1.381 1_556 S
C96 C97 1.321 . S
C97 C96 1.321 . S
C97 C98 1.403 . S
C97 H118 0.934 . S
C98 C93 1.413 . S
C98 C97 1.403 . S
C98 H119 0.930 . S
C99 O110 1.275 . S
C99 O111 1.256 . S
O100 Ho80 2.322 . S
O100 C82 1.259 . S
O101 Ho81 2.346 . S
O101 C82 1.268 1_556 S
O102 Ho80 2.378 . S
O102 C83 1.215 . S
O103 Ho80 2.524 1_556 S
O103 C83 1.289 1_556 S
O104 Ho80 2.381 . S
O104 C90 1.275 . S
O105 Ho80 2.669 . S
O105 Ho81 2.305 1_554 S
O105 C90 1.256 . S
O106 Ho81 2.322 . S
O106 C91 1.259 . S
O107 Ho80 2.346 . S
O107 C91 1.268 1_554 S
O108 Ho81 2.378 . S
O108 C92 1.215 . S
O109 Ho81 2.524 1_554 S
O109 C92 1.289 1_554 S
O110 Ho81 2.381 . S
O110 C99 1.275 . S
O111 Ho80 2.305 1_556 S
O111 Ho81 2.669 . S
O111 C99 1.256 . S
H112 C85 0.930 . S
H113 C86 0.931 . S
H114 C88 0.934 . S
H115 C89 0.930 . S
H116 C94 0.930 . S
H117 C95 0.931 . S
H118 C97 0.934 . S
H119 C98 0.930 . S
C10 C19 1.513 1_455 S
C50 C59 1.483 1_545 S
C99 C90 1.539 . S
C11 C82 3.980 . S
C47 C7 1.387 . S
C51 C87 4.795 1_556 S
C2 C91 3.980 . S
C16 C56 1.387 . S
C96 C42 4.795 1_556 S
