# Generated by pormake.
# Topology pcu, (6)-cn, num edge types: 1
# Building blocks:
#     Node 0, Type 0, BuildingBlock: NUHQIS_clean_sbu_0, # of connection points: 6
#     Edge 1, Type (0, 0), BuildingBlock: KIFKEQ_clean_linker_1, # of connection points: 2
#     Edge 2, Type (0, 0), BuildingBlock: KIFKEQ_clean_linker_1, # of connection points: 2
#     Edge 3, Type (0, 0), BuildingBlock: KIFKEQ_clean_linker_1, # of connection points: 2
# Relax obj value: 0.000
# Max RMSD: 0.000
# Mean RMSD: 0.000
data_MOF--net-pcu--node1-NUHQIS_clean_sbu_0--edge1-KIFKEQ_clean_linker_1
_symmetry_space_group_name_H-M    P1
_symmetry_Int_Tables_number       1
_symmetry_cell_setting            triclinic
loop_
_symmetry_equiv_pos_as_xyz
'x, y, z'
_cell_length_a     25.548019
_cell_length_b     15.526551
_cell_length_c     15.406776
_cell_angle_alpha  92.413697
_cell_angle_beta   96.599437
_cell_angle_gamma 122.89152
loop_
_atom_site_label
_atom_site_type_symbol
_atom_site_fract_x
_atom_site_fract_y
_atom_site_fract_z
_atom_type_partial_charge
Tb0 Tb 0.95404 0.91921 0.98969 0.0
Eu1 Eu 0.11276 0.0565 0.02256 0.0
C2 C 1.0299 0.97968 0.83171 0.0
C3 C 1.02626 0.8057 -0.00501 0.0
C4 C 0.78844 0.85419 0.96027 0.0
C5 C 0.67885 0.8015 0.92808 0.0
C6 C 0.72437 0.77716 0.93236 0.0
C7 C 0.80665 0.95664 0.98164 0.0
C8 C 0.76122 0.98117 0.97726 0.0
C9 C 0.69657 0.90358 0.95176 0.0
C10 C 0.83494 0.8255 0.97327 0.0
O11 O 0.98893 0.91179 0.12291 0.0
O12 O 0.08078 0.07126 0.14885 0.0
O13 O 0.08723 0.17132 -0.00452 0.0
O14 O 0.98356 0.07882 0.01957 0.0
C15 C 0.03381 -0.00787 0.17774 0.0
O16 O 0.20067 0.10198 0.10716 0.0
O17 O 0.20376 0.16069 0.98132 0.0
O18 O 0.07753 0.98622 0.88126 0.0
O19 O 0.98397 0.97617 0.8658 0.0
O20 O 0.9747 0.80238 0.96502 0.0
O21 O 0.07975 0.89116 0.03052 0.0
C22 C 0.03493 0.16482 0.00622 0.0
O23 O 0.86471 0.83164 0.90813 0.0
O24 O 0.87317 0.8633 0.04827 0.0
C25 C 0.28268 0.1294 0.03161 0.0
C26 C 0.37227 0.08164 0.00364 0.0
C27 C 0.38523 0.15476 0.07418 0.0
C28 C 0.34093 0.17836 0.08785 0.0
C29 C 0.26921 0.05623 0.96119 0.0
C30 C 0.31364 0.03286 0.94715 0.0
C31 C 0.23594 0.15301 0.04934 0.0
H32 H 0.62966 0.74012 0.90689 0.0
H33 H 0.70934 0.69762 0.91569 0.0
H34 H 0.85581 0.01712 0.00423 0.0
H35 H 0.77661 0.06031 -0.00311 0.0
H36 H 0.42919 0.1925 0.12008 0.0
H37 H 0.35195 0.23424 0.14311 0.0
H38 H 0.22427 0.01689 0.91727 0.0
H39 H 0.30216 0.97706 0.89163 0.0
H40 H 0.93805 0.85249 0.25987 0.0
H41 H 0.12671 0.12967 0.31244 0.0
H42 H 0.93648 0.84931 0.41775 0.0
H43 H 0.12478 0.12656 0.47029 0.0
H44 H 0.12395 0.01279 0.74125 0.0
H45 H 0.12411 0.01614 0.58339 0.0
H46 H 0.93551 0.95208 0.54607 0.0
H47 H 0.93493 0.948 0.70428 0.0
C48 C 0.97916 0.91282 0.30503 0.0
C49 C 0.0326 -0.00881 0.27353 0.0
C50 C 0.97805 0.91128 0.39545 0.0
C51 C 1.03052 0.98758 0.45635 0.0
C52 C 0.08389 0.06609 0.4249 0.0
C53 C 0.08483 0.06813 0.33447 0.0
C54 C 0.08238 -0.00082 0.69955 0.0
C55 C 1.02939 0.98014 0.73551 0.0
C56 C 0.0827 0.00181 0.60911 0.0
C57 C 1.02992 0.98472 0.55242 0.0
C58 C 0.97669 0.96476 0.58811 0.0
C59 C 0.97652 0.96291 0.67878 0.0
H60 H 0.50161 0.21228 0.02589 0.0
H61 H 0.34998 0.89158 0.95105 0.0
H62 H 0.57855 0.16843 0.01111 0.0
H63 H 0.42686 0.84868 0.93177 0.0
H64 H 0.58287 0.79052 0.00959 0.0
H65 H 0.50471 0.83301 0.01784 0.0
H66 H 0.62128 0.11539 0.90641 0.0
H67 H 0.69984 0.07306 0.89884 0.0
C68 C 0.48456 0.13239 0.00607 0.0
C69 C 0.41935 0.05551 0.9902 0.0
C70 C 0.5288 0.10742 -0.00361 0.0
C71 C 0.50914 0.00489 0.97025 0.0
C72 C 0.44391 0.92824 0.95311 0.0
C73 C 0.39966 0.95316 0.96305 0.0
C74 C 0.59153 0.86105 0.98572 0.0
C75 C 0.64774 0.92823 0.95341 0.0
C76 C 0.54658 0.88548 0.99044 0.0
C77 C 0.55646 0.97773 0.9628 0.0
C78 C 0.61242 0.04448 0.92963 0.0
C79 C 0.6575 0.02014 0.92513 0.0
H80 H 0.12204 0.78501 0.96829 0.0
H81 H 0.928 0.61081 0.01001 0.0
H82 H 0.12311 0.62946 0.9658 0.0
H83 H 0.9298 0.45551 0.01363 0.0
H84 H 0.93433 0.17369 0.944 0.0
H85 H 0.93084 0.32651 0.93502 0.0
H86 H 0.12773 0.51836 0.05572 0.0
H87 H 0.13155 0.36523 0.05941 0.0
C88 C 0.07968 0.71313 0.9776 0.0
C89 C 1.02496 0.70964 0.98952 0.0
C90 C 0.08039 0.62394 0.97705 0.0
C91 C 1.02683 0.52944 0.99068 0.0
C92 C 0.97173 0.52613 0.00158 0.0
C93 C 0.97061 0.61514 -4e-05 0.0
C94 C 0.97671 0.2487 0.96879 0.0
C95 C 0.03315 0.25786 0.00268 0.0
C96 C 0.97474 0.33652 0.96403 0.0
C97 C 1.02895 0.43554 -0.00529 0.0
C98 C 0.08531 0.44404 0.02948 0.0
C99 C 0.08755 0.35626 0.03236 0.0
loop_
_geom_bond_atom_site_label_1
_geom_bond_atom_site_label_2
_geom_bond_distance
_geom_bond_site_symmetry_2
_ccdc_geom_bond_type
Tb0 C10 2.825 . S
Tb0 O11 2.347 1_556 S
Tb0 O14 2.366 1_565 S
Tb0 O19 2.418 . S
Tb0 O20 2.384 . S
Tb0 O23 2.479 . S
Tb0 O24 2.471 1_556 S
Eu1 O12 2.418 . S
Eu1 O13 2.384 . S
Eu1 O16 2.479 . S
Eu1 O17 2.471 1_554 S
Eu1 O18 2.347 1_554 S
Eu1 O21 2.366 1_545 S
Eu1 C31 2.825 . S
C2 O18 1.259 1_665 S
C2 O19 1.265 . S
C3 O20 1.255 1_554 S
C3 O21 1.265 1_655 S
C4 C6 1.380 . S
C4 C7 1.374 1_566 S
C4 C10 1.507 . S
C5 C6 1.384 . S
C5 C9 1.387 . S
C5 H32 0.930 . S
C6 C4 1.380 . S
C6 C5 1.384 . S
C6 H33 0.931 . S
C7 C4 1.374 1_544 S
C7 C8 1.390 . S
C7 H34 0.930 . S
C8 C7 1.390 . S
C8 C9 1.391 1_544 S
C8 H35 0.930 . S
C9 C5 1.387 . S
C9 C8 1.391 1_566 S
C10 Tb0 2.825 . S
C10 C4 1.507 . S
C10 O23 1.238 . S
C10 O24 1.247 1_556 S
O11 Tb0 2.347 1_554 S
O11 C15 1.259 1_665 S
O12 Eu1 2.418 . S
O12 C15 1.265 . S
O13 Eu1 2.384 . S
O13 C22 1.255 . S
O14 Tb0 2.366 1_545 S
O14 C22 1.265 1_656 S
C15 O11 1.259 1_445 S
C15 O12 1.265 . S
O16 Eu1 2.479 . S
O16 C31 1.238 . S
O17 Eu1 2.471 1_556 S
O17 C31 1.247 1_556 S
O18 Eu1 2.347 1_556 S
O18 C2 1.259 1_445 S
O19 Tb0 2.418 . S
O19 C2 1.265 . S
O20 Tb0 2.384 . S
O20 C3 1.255 1_556 S
O21 Eu1 2.366 1_565 S
O21 C3 1.265 1_455 S
C22 O13 1.255 . S
C22 O14 1.265 1_454 S
O23 Tb0 2.479 . S
O23 C10 1.238 . S
O24 Tb0 2.471 1_554 S
O24 C10 1.247 1_554 S
C25 C28 1.380 . S
C25 C29 1.374 1_544 S
C25 C31 1.507 . S
C26 C27 1.387 . S
C26 C30 1.391 1_544 S
C27 C26 1.387 . S
C27 C28 1.384 . S
C27 H36 0.930 . S
C28 C25 1.380 . S
C28 C27 1.384 . S
C28 H37 0.931 . S
C29 C25 1.374 1_566 S
C29 C30 1.390 . S
C29 H38 0.930 . S
C30 C26 1.391 1_566 S
C30 C29 1.390 . S
C30 H39 0.930 . S
C31 Eu1 2.825 . S
C31 O16 1.238 . S
C31 O17 1.247 1_554 S
C31 C25 1.507 . S
H32 C5 0.930 . S
H33 C6 0.931 . S
H34 C7 0.930 . S
H35 C8 0.930 . S
H36 C27 0.930 . S
H37 C28 0.931 . S
H38 C29 0.930 . S
H39 C30 0.930 . S
H40 C48 0.950 . S
H41 C53 0.950 . S
H42 C50 0.950 . S
H43 C52 0.950 . S
H44 C54 0.950 . S
H45 C56 0.950 . S
H46 C58 0.950 . S
H47 C59 0.950 . S
C48 H40 0.950 . S
C48 C49 1.378 1_655 S
C48 C50 1.391 . S
C49 C48 1.378 1_455 S
C49 C53 1.399 1_565 S
C50 H42 0.950 . S
C50 C48 1.391 . S
C50 C51 1.398 1_655 S
C51 C50 1.398 1_455 S
C51 C52 1.402 1_565 S
C51 C57 1.490 1_465 S
C52 H43 0.950 . S
C52 C51 1.402 1_545 S
C52 C53 1.391 . S
C53 H41 0.950 . S
C53 C49 1.399 1_545 S
C53 C52 1.391 . S
C54 H44 0.950 . S
C54 C55 1.382 1_455 S
C54 C56 1.391 . S
C55 C54 1.382 1_655 S
C55 C59 1.395 1_545 S
C56 H45 0.950 . S
C56 C54 1.391 . S
C56 C57 1.401 1_455 S
C57 C51 1.490 1_645 S
C57 C56 1.401 1_655 S
C57 C58 1.397 1_545 S
C58 H46 0.950 . S
C58 C57 1.397 1_565 S
C58 C59 1.391 . S
C59 H47 0.950 . S
C59 C55 1.395 1_565 S
C59 C58 1.391 . S
H60 C68 0.950 . S
H61 C73 0.950 . S
H62 C70 0.950 . S
H63 C72 0.950 . S
H64 C74 0.950 . S
H65 C76 0.950 . S
H66 C78 0.950 . S
H67 C79 0.950 . S
C68 H60 0.950 . S
C68 C69 1.386 1_545 S
C68 C70 1.391 . S
C69 C68 1.386 1_565 S
C69 C73 1.393 1_554 S
C70 H62 0.950 . S
C70 C68 1.391 . S
C70 C71 1.400 1_545 S
C71 C70 1.400 1_565 S
C71 C72 1.398 1_554 S
C71 C77 1.488 1_564 S
C72 H63 0.950 . S
C72 C71 1.398 1_556 S
C72 C73 1.391 . S
C73 H61 0.950 . S
C73 C69 1.393 1_556 S
C73 C72 1.391 . S
C74 H64 0.950 . S
C74 C75 1.386 1_565 S
C74 C76 1.391 . S
C75 C74 1.386 1_545 S
C75 C79 1.393 1_556 S
C76 H65 0.950 . S
C76 C74 1.391 . S
C76 C77 1.408 1_565 S
C77 C71 1.488 1_546 S
C77 C76 1.408 1_545 S
C77 C78 1.393 1_556 S
C78 H66 0.950 . S
C78 C77 1.393 1_554 S
C78 C79 1.391 . S
C79 H67 0.950 . S
C79 C75 1.393 1_554 S
C79 C78 1.391 . S
H80 C88 0.950 . S
H81 C93 0.950 . S
H82 C90 0.950 . S
H83 C92 0.950 . S
H84 C94 0.950 . S
H85 C96 0.950 . S
H86 C98 0.950 . S
H87 C99 0.950 . S
C88 H80 0.950 . S
C88 C89 1.385 1_455 S
C88 C90 1.391 . S
C89 C88 1.385 1_655 S
C89 C93 1.393 1_554 S
C90 H82 0.950 . S
C90 C88 1.391 . S
C90 C91 1.399 . S
C91 C90 1.399 . S
C91 C92 1.401 1_454 S
C91 C97 1.488 1_554 S
C92 H83 0.950 . S
C92 C91 1.401 1_656 S
C92 C93 1.391 . S
C93 H81 0.950 . S
C93 C89 1.393 1_556 S
C93 C92 1.391 . S
C94 H84 0.950 . S
C94 C95 1.379 1_655 S
C94 C96 1.391 . S
C95 C94 1.379 1_455 S
C95 C99 1.395 1_556 S
C96 H85 0.950 . S
C96 C94 1.391 . S
C96 C97 1.399 1_655 S
C97 C91 1.488 1_556 S
C97 C96 1.399 1_455 S
C97 C98 1.401 1_556 S
C98 H86 0.950 . S
C98 C97 1.401 1_554 S
C98 C99 1.391 . S
C99 H87 0.950 . S
C99 C95 1.395 1_554 S
C99 C98 1.391 . S
C49 C15 1.469 1_565 S
C55 C2 1.467 1_545 S
C69 C26 1.495 1_565 S
C75 C9 1.495 1_545 S
C89 C3 1.499 . S
C95 C22 1.503 1_556 S
