# Generated by pormake.
# Topology ung, (4)-cn, num edge types: 1
# Building blocks:
#     Node 0, Type 0, BuildingBlock: MUDLON_clean_sbu_0, # of connection points: 4
#     Node 1, Type 0, BuildingBlock: MUDLON_clean_sbu_0, # of connection points: 4
#     Node 2, Type 0, BuildingBlock: MUDLON_clean_sbu_0, # of connection points: 4
#     Node 3, Type 0, BuildingBlock: MUDLON_clean_sbu_0, # of connection points: 4
#     Node 4, Type 0, BuildingBlock: MUDLON_clean_sbu_0, # of connection points: 4
#     Node 5, Type 0, BuildingBlock: MUDLON_clean_sbu_0, # of connection points: 4
#     Node 6, Type 0, BuildingBlock: MUDLON_clean_sbu_0, # of connection points: 4
#     Node 7, Type 0, BuildingBlock: MUDLON_clean_sbu_0, # of connection points: 4
#     Node 8, Type 0, BuildingBlock: MUDLON_clean_sbu_0, # of connection points: 4
#     Node 9, Type 0, BuildingBlock: MUDLON_clean_sbu_0, # of connection points: 4
#     Node 10, Type 0, BuildingBlock: MUDLON_clean_sbu_0, # of connection points: 4
#     Node 11, Type 0, BuildingBlock: MUDLON_clean_sbu_0, # of connection points: 4
#     Node 12, Type 0, BuildingBlock: MUDLON_clean_sbu_0, # of connection points: 4
#     Node 13, Type 0, BuildingBlock: MUDLON_clean_sbu_0, # of connection points: 4
#     Node 14, Type 0, BuildingBlock: MUDLON_clean_sbu_0, # of connection points: 4
#     Node 15, Type 0, BuildingBlock: MUDLON_clean_sbu_0, # of connection points: 4
#     Node 16, Type 0, BuildingBlock: MUDLON_clean_sbu_0, # of connection points: 4
#     Node 17, Type 0, BuildingBlock: MUDLON_clean_sbu_0, # of connection points: 4
#     Edge 18, Type (0, 0), None
#     Edge 19, Type (0, 0), None
#     Edge 20, Type (0, 0), None
#     Edge 21, Type (0, 0), None
#     Edge 22, Type (0, 0), None
#     Edge 23, Type (0, 0), None
#     Edge 24, Type (0, 0), None
#     Edge 25, Type (0, 0), None
#     Edge 26, Type (0, 0), None
#     Edge 27, Type (0, 0), None
#     Edge 28, Type (0, 0), None
#     Edge 29, Type (0, 0), None
#     Edge 30, Type (0, 0), None
#     Edge 31, Type (0, 0), None
#     Edge 32, Type (0, 0), None
#     Edge 33, Type (0, 0), None
#     Edge 34, Type (0, 0), None
#     Edge 35, Type (0, 0), None
#     Edge 36, Type (0, 0), None
#     Edge 37, Type (0, 0), None
#     Edge 38, Type (0, 0), None
#     Edge 39, Type (0, 0), None
#     Edge 40, Type (0, 0), None
#     Edge 41, Type (0, 0), None
#     Edge 42, Type (0, 0), None
#     Edge 43, Type (0, 0), None
#     Edge 44, Type (0, 0), None
#     Edge 45, Type (0, 0), None
#     Edge 46, Type (0, 0), None
#     Edge 47, Type (0, 0), None
#     Edge 48, Type (0, 0), None
#     Edge 49, Type (0, 0), None
#     Edge 50, Type (0, 0), None
#     Edge 51, Type (0, 0), None
#     Edge 52, Type (0, 0), None
#     Edge 53, Type (0, 0), None
# Relax obj value: 0.034
# Max RMSD: 0.248
# Mean RMSD: 0.244
data_MOF--net-ung--node1-MUDLON_clean_sbu_0--edge1-none
_symmetry_space_group_name_H-M    P1
_symmetry_Int_Tables_number       1
_symmetry_cell_setting            triclinic
loop_
_symmetry_equiv_pos_as_xyz
'x, y, z'
_cell_length_a     35.582219
_cell_length_b     35.519002
_cell_length_c     10.714847
_cell_angle_alpha  89.206365
_cell_angle_beta   88.847303
_cell_angle_gamma 120.34778
loop_
_atom_site_label
_atom_site_type_symbol
_atom_site_fract_x
_atom_site_fract_y
_atom_site_fract_z
_atom_type_partial_charge
Mg0 Mg 0.05579 0.65394 0.29174 0.0
C1 C 1.02098 0.59758 0.53321 0.0
O2 O 0.98819 0.60462 0.52835 0.0
C3 C 0.99182 0.66708 0.14542 0.0
O4 O 1.0113 0.65867 0.05378 0.0
C5 C 0.02655 0.57989 0.12719 0.0
O6 O 0.99359 0.56693 0.20714 0.0
O7 O 0.05998 0.61776 0.13645 0.0
O8 O 0.05096 0.61367 0.44958 0.0
O9 O 0.10964 0.71915 0.32986 0.0
C10 C 0.11749 0.73014 0.44351 0.0
O11 O 0.09691 0.70063 0.533 0.0
O12 O 1.00139 0.66417 0.25779 0.0
Mg13 Mg 0.48555 0.50775 0.25426 0.0
C14 C 0.40852 0.5133 0.38756 0.0
O15 O 0.42925 0.55528 0.36016 0.0
C16 C 0.54345 0.56511 0.04654 0.0
O17 O 0.56742 0.55058 0.09548 0.0
C18 C 0.47353 0.43414 0.08351 0.0
O19 O 0.47884 0.46214 0.99385 0.0
O20 O 0.47748 0.44569 0.19663 0.0
O21 O 0.42371 0.48966 0.35004 0.0
O22 O 0.53425 0.53769 0.39398 0.0
C23 C 0.5406 0.57343 0.43789 0.0
O24 O 0.51917 0.59158 0.39388 0.0
O25 O 0.50575 0.55265 0.09407 0.0
Mg26 Mg 0.6135 0.08056 0.27375 0.0
C27 C 0.55552 0.04805 0.04793 0.0
O28 O 0.55498 1.01144 0.07214 0.0
C29 C 0.62962 1.01734 0.41104 0.0
O30 O 0.61893 0.03477 0.50226 0.0
C31 C 0.53637 0.04607 0.44555 0.0
O32 O 0.52295 1.01409 0.36685 0.0
O33 O 0.57439 0.07932 0.4314 0.0
O34 O 0.5776 0.08093 0.11402 0.0
O35 O 0.67896 0.13655 0.25479 0.0
C36 C 0.69389 0.14963 0.144 0.0
O37 O 0.66744 0.13369 0.05058 0.0
O38 O 0.62632 0.02715 0.29864 0.0
Mg39 Mg 0.05709 0.52676 0.7933 0.0
C40 C 1.02399 0.57165 0.63525 0.0
O41 O 0.9931 0.55389 0.7226 0.0
C42 C 0.1275 0.51771 0.91058 0.0
O43 O 0.11479 0.53229 1.00475 0.0
C44 C 1.02385 0.55132 1.0263 0.0
O45 O 0.9872 0.51503 1.00702 0.0
O46 O 0.05682 0.56232 0.95526 0.0
O47 O 0.05657 0.56602 0.63929 0.0
O48 O 1.00333 0.46059 0.76786 0.0
C49 C 0.99514 0.44951 0.65464 0.0
O50 O 1.01467 0.47934 0.56531 0.0
O51 O 0.1123 0.51659 0.80338 0.0
Mg52 Mg 0.62211 0.65372 0.73336 0.0
C53 C 0.571 0.59394 0.53846 0.0
O54 O 0.59434 0.57719 0.57752 0.0
C55 C 0.64396 0.72722 0.90979 0.0
O56 O 0.63659 0.69633 0.99212 0.0
C57 C 0.56032 0.59541 0.93809 0.0
O58 O 0.5368 0.61059 0.88987 0.0
O59 O 0.59803 0.60758 0.89117 0.0
O60 O 0.57482 0.62774 0.5895 0.0
O61 O 0.68167 0.66379 0.64267 0.0
C62 C 0.70957 0.65674 0.69301 0.0
O63 O 0.70203 0.6399 0.80694 0.0
O64 O 0.63789 0.71814 0.79486 0.0
Mg65 Mg 0.48603 0.08074 0.77875 0.0
C66 C 0.52984 0.05085 0.94706 0.0
O67 O 0.50933 0.01784 0.87283 0.0
C68 C 0.47236 0.14376 0.62352 0.0
O69 O 0.48159 0.12428 0.53494 0.0
C70 C 0.50784 0.0437 0.54905 0.0
O71 O 0.46928 1.00889 0.56914 0.0
O72 O 0.52089 0.076 0.61943 0.0
O73 O 0.52618 0.08451 0.93228 0.0
O74 O 0.42096 0.02603 0.82163 0.0
C75 C 0.40817 1.01693 0.93573 0.0
O76 O 0.436 0.03718 1.02372 0.0
O77 O 0.47517 0.13482 0.73747 0.0
Mg78 Mg 0.71888 0.98692 0.60756 0.0
C79 C 0.72968 0.93322 0.80999 0.0
O80 O 0.76784 0.94911 0.75244 0.0
C81 C 0.65526 0.99654 0.43956 0.0
O82 O 0.67669 0.99 0.3494 0.0
C83 C 0.71447 0.92492 0.41343 0.0
O84 O 0.67561 0.90109 0.46655 0.0
O85 O 0.74017 0.96275 0.45331 0.0
O86 O 0.70242 0.94331 0.76991 0.0
O87 O 0.76817 0.05311 0.65313 0.0
C88 C 0.77817 0.06464 0.76509 0.0
O89 O 0.76155 0.03514 0.85625 0.0
O90 O 0.66417 0.99402 0.55274 0.0
Mg91 Mg 0.15463 0.85307 0.62649 0.0
C92 C 0.07818 0.84093 0.78298 0.0
O93 O 0.10616 0.84831 0.87065 0.0
C94 C 0.17731 0.90888 0.38546 0.0
O95 O 0.13747 0.90202 0.39525 0.0
C96 C 0.14097 0.77654 0.47482 0.0
O97 O 0.15226 0.80615 0.38503 0.0
O98 O 0.14234 0.78756 0.58829 0.0
O99 O 0.09035 0.84389 0.66874 0.0
O100 O 0.19499 0.88988 0.77798 0.0
C101 C 0.20072 0.92823 0.78488 0.0
O102 O 0.1823 0.94146 0.704 0.0
O103 O 0.19095 0.89281 0.46639 0.0
Mg104 Mg 0.28907 0.40944 0.59673 0.0
C105 C 0.2317 0.41224 0.79879 0.0
O106 O 0.20532 0.37432 0.75051 0.0
C107 C 0.36796 0.49298 0.46431 0.0
O108 O 0.3494 0.51544 0.49648 0.0
C109 C 0.23673 0.42174 0.40798 0.0
O110 O 0.2601 0.46145 0.44911 0.0
O111 O 0.24062 0.39104 0.45612 0.0
O112 O 0.27026 0.43546 0.75304 0.0
O113 O 0.29651 0.35523 0.66022 0.0
C114 C 0.2992 0.34674 0.77435 0.0
O115 O 0.29252 0.36833 0.8621 0.0
O116 O 0.35095 0.4531 0.49866 0.0
Mg117 Mg 0.72608 0.84712 0.11681 0.0
C118 C 0.72811 0.90804 0.30869 0.0
O119 O 0.76708 0.93187 0.25623 0.0
C120 C 0.66684 0.77297 0.94711 0.0
O121 O 0.68283 0.80436 0.86122 0.0
C122 C 0.7185 0.90383 0.91963 0.0
O123 O 0.68027 0.88793 0.97679 0.0
O124 O 0.74522 0.89278 0.95833 0.0
O125 O 0.70265 0.87012 0.26898 0.0
O126 O 0.77941 0.83903 0.18078 0.0
C127 C 0.78603 0.83577 0.29577 0.0
O128 O 0.76281 0.84169 0.38161 0.0
O129 O 0.67736 0.78199 0.0602 0.0
Mg130 Mg 0.28334 0.98047 0.11461 0.0
C131 C 0.20653 0.93484 0.28141 0.0
O132 O 0.1935 0.9526 0.19715 0.0
C133 C 0.36135 0.99297 0.96776 0.0
O134 O 0.33347 0.98298 0.87819 0.0
C135 C 0.22681 0.95725 0.88336 0.0
O136 O 0.23077 0.99584 0.89476 0.0
O137 O 0.24521 0.94454 0.95898 0.0
O138 O 0.24489 0.94069 0.27252 0.0
O139 O 0.29543 0.04595 0.14968 0.0
C140 C 0.29865 0.05743 0.26308 0.0
O141 O 0.28921 0.02823 0.35293 0.0
O142 O 0.34839 0.99074 0.08081 0.0
Mg143 Mg 0.15892 0.42909 0.10876 0.0
C144 C 0.20702 0.41337 0.30614 0.0
O145 O 0.18209 0.37343 0.26821 0.0
C146 C 0.1482 0.49179 0.93669 0.0
O147 O 0.15055 0.46739 0.84947 0.0
C148 C 0.21669 0.42731 0.9053 0.0
O149 O 0.24305 0.46521 0.95378 0.0
O150 O 0.17819 0.40393 0.95132 0.0
O151 O 0.20533 0.44474 0.25358 0.0
O152 O 0.09586 0.38572 0.19992 0.0
C153 C 0.07542 0.34461 0.21905 0.0
O154 O 0.09108 0.32093 0.17425 0.0
O155 O 0.15389 0.48507 0.04977 0.0
Mg156 Mg 0.3853 0.30788 0.93531 0.0
C157 C 0.35404 0.25184 0.1753 0.0
O158 O 0.31874 0.25434 0.16236 0.0
C159 C 0.32053 0.32166 0.80397 0.0
O160 O 0.3379 0.31086 0.7121 0.0
C161 C 0.35221 0.23074 0.77691 0.0
O162 O 0.32088 0.21705 0.86277 0.0
O163 O 0.38492 0.26927 0.78098 0.0
O164 O 0.38549 0.2711 0.09686 0.0
O165 O 0.43998 0.37414 0.94827 0.0
C166 C 0.45241 0.38742 0.05776 0.0
O167 O 0.43713 0.35919 0.15214 0.0
O168 O 0.33098 0.3192 0.91545 0.0
Mg169 Mg 0.81882 0.18757 0.95493 0.0
C170 C 0.74104 0.17244 0.11793 0.0
O171 O 0.76759 0.17845 0.20877 0.0
C172 C 0.88415 0.24259 0.74763 0.0
O173 O 0.90655 0.22615 0.79608 0.0
C174 C 0.80052 0.1112 0.79387 0.0
O175 O 0.80798 0.14015 0.70488 0.0
O176 O 0.80543 0.12268 0.907 0.0
O177 O 0.75483 0.1772 1.00513 0.0
O178 O 0.86099 0.21302 0.11236 0.0
C179 C 0.87035 0.24993 0.1545 0.0
O180 O 0.85459 0.2724 0.10161 0.0
O181 O 0.84702 0.23227 0.79502 0.0
Mg182 Mg 0.9534 0.75312 0.96951 0.0
C183 C 0.90734 0.72681 0.72076 0.0
O184 O 0.92319 0.70058 0.71336 0.0
C185 C 0.96805 0.68986 0.11727 0.0
O186 O 0.95937 0.70914 0.2077 0.0
C187 C 0.87731 0.7209 0.13921 0.0
O188 O 0.86452 0.68932 0.0593 0.0
O189 O 0.91546 0.75418 0.12728 0.0
O190 O 0.91455 0.75028 0.81497 0.0
O191 O 1.01889 0.80797 0.93046 0.0
C192 C 0.03152 0.81899 0.81677 0.0
O193 O 1.00313 0.80193 0.72836 0.0
O194 O 0.96449 0.69901 1.00425 0.0
Mg195 Mg 0.38577 0.18012 0.44237 0.0
C196 C 0.35701 0.22602 0.27801 0.0
O197 O 0.3248 0.20657 0.36105 0.0
C198 C 0.44918 0.16694 0.59196 0.0
O199 O 0.43018 0.17666 0.68186 0.0
C200 C 0.34952 0.20189 0.6771 0.0
O201 O 0.31511 0.16285 0.66817 0.0
O202 O 0.3811 0.21506 0.59909 0.0
O203 O 0.38999 0.22113 0.28593 0.0
O204 O 0.3315 0.11516 0.40584 0.0
C205 C 0.32258 0.10391 0.29281 0.0
O206 O 0.34266 0.13308 0.20218 0.0
O207 O 0.43977 0.16924 0.47888 0.0
Mg208 Mg 0.9606 0.33198 0.43798 0.0
C209 C 0.89967 0.26784 0.25911 0.0
O210 O 0.9147 0.24485 0.31267 0.0
C211 C 0.97304 0.40335 0.62154 0.0
O212 O 0.96372 0.37312 0.7081 0.0
C213 C 0.90176 0.27299 0.63965 0.0
O214 O 0.87888 0.28906 0.59222 0.0
O215 O 0.93934 0.28486 0.59262 0.0
O216 O 0.91211 0.30619 0.29543 0.0
O217 O 1.02235 0.34882 0.34448 0.0
C218 C 0.03388 0.32432 0.29106 0.0
O219 O 1.00819 0.28177 0.29595 0.0
O220 O 0.97145 0.39403 0.5067 0.0
Mg221 Mg 0.82547 0.75159 0.47823 0.0
C222 C 0.88118 0.7293 0.62126 0.0
O223 O 0.86961 0.70197 0.52923 0.0
C224 C 0.81153 0.81533 0.33036 0.0
O225 O 0.82535 0.79966 0.24187 0.0
C226 C 0.84809 0.71741 0.2423 0.0
O227 O 0.81 0.68187 0.26119 0.0
O228 O 0.86036 0.74899 0.31496 0.0
O229 O 0.86785 0.75652 0.626 0.0
O230 O 0.76122 0.69666 0.52988 0.0
C231 C 0.75364 0.67729 0.6363 0.0
O232 O 0.78625 0.68475 0.70696 0.0
O233 O 0.8121 0.80437 0.44375 0.0
loop_
_geom_bond_atom_site_label_1
_geom_bond_atom_site_label_2
_geom_bond_distance
_geom_bond_site_symmetry_2
_ccdc_geom_bond_type
Mg0 O7 2.141 . S
Mg0 O8 2.048 . S
Mg0 O9 2.048 . S
Mg0 O12 2.141 . S
C1 O2 1.313 . S
C1 O8 1.195 . S
O2 C1 1.313 . S
C3 O4 1.245 . S
C3 O12 1.289 1_655 S
O4 C3 1.245 . S
C5 O6 1.245 . S
C5 O7 1.289 1_655 S
O6 C5 1.245 . S
O7 Mg0 2.141 . S
O7 C5 1.289 1_455 S
O8 Mg0 2.048 . S
O8 C1 1.195 . S
O9 Mg0 2.048 . S
O9 C10 1.195 . S
C10 O9 1.195 . S
C10 O11 1.313 . S
O11 C10 1.313 . S
O12 Mg0 2.141 . S
O12 C3 1.289 1_455 S
Mg13 O20 2.141 . S
Mg13 O21 2.048 . S
Mg13 O22 2.048 . S
Mg13 O25 2.141 . S
C14 O15 1.313 . S
C14 O21 1.195 . S
O15 C14 1.313 . S
C16 O17 1.245 . S
C16 O25 1.289 . S
O17 C16 1.245 . S
C18 O19 1.245 . S
C18 O20 1.289 . S
O19 C18 1.245 . S
O20 Mg13 2.141 . S
O20 C18 1.289 . S
O21 Mg13 2.048 . S
O21 C14 1.195 . S
O22 Mg13 2.048 . S
O22 C23 1.195 . S
C23 O22 1.195 . S
C23 O24 1.313 . S
O24 C23 1.313 . S
O25 Mg13 2.141 . S
O25 C16 1.289 . S
Mg26 O33 2.141 . S
Mg26 O34 2.048 . S
Mg26 O35 2.048 . S
Mg26 O38 2.141 . S
C27 O28 1.313 . S
C27 O34 1.195 . S
O28 C27 1.313 . S
C29 O30 1.245 . S
C29 O38 1.289 . S
O30 C29 1.245 . S
C31 O32 1.245 . S
C31 O33 1.289 . S
O32 C31 1.245 . S
O33 Mg26 2.141 . S
O33 C31 1.289 . S
O34 Mg26 2.048 . S
O34 C27 1.195 . S
O35 Mg26 2.048 . S
O35 C36 1.195 . S
C36 O35 1.195 . S
C36 O37 1.313 . S
O37 C36 1.313 . S
O38 Mg26 2.141 . S
O38 C29 1.289 . S
Mg39 O46 2.141 . S
Mg39 O47 2.048 . S
Mg39 O48 2.048 . S
Mg39 O51 2.141 . S
C40 O41 1.313 1_455 S
C40 O47 1.195 . S
O41 C40 1.313 1_655 S
C42 O43 1.245 . S
C42 O51 1.289 . S
O43 C42 1.245 . S
C44 O45 1.245 . S
C44 O46 1.289 . S
O45 C44 1.245 . S
O46 Mg39 2.141 . S
O46 C44 1.289 . S
O47 Mg39 2.048 . S
O47 C40 1.195 . S
O48 Mg39 2.048 . S
O48 C49 1.195 . S
C49 O48 1.195 . S
C49 O50 1.313 1_455 S
O50 C49 1.313 1_655 S
O51 Mg39 2.141 . S
O51 C42 1.289 . S
Mg52 O59 2.141 . S
Mg52 O60 2.048 . S
Mg52 O61 2.048 . S
Mg52 O64 2.141 . S
C53 O54 1.313 . S
C53 O60 1.195 . S
O54 C53 1.313 . S
C55 O56 1.245 . S
C55 O64 1.289 . S
O56 C55 1.245 . S
C57 O58 1.245 . S
C57 O59 1.289 . S
O58 C57 1.245 . S
O59 Mg52 2.141 . S
O59 C57 1.289 . S
O60 Mg52 2.048 . S
O60 C53 1.195 . S
O61 Mg52 2.048 . S
O61 C62 1.195 . S
C62 O61 1.195 . S
C62 O63 1.313 . S
O63 C62 1.313 . S
O64 Mg52 2.141 . S
O64 C55 1.289 . S
Mg65 O72 2.141 . S
Mg65 O73 2.048 . S
Mg65 O74 2.048 . S
Mg65 O77 2.141 . S
C66 O67 1.313 . S
C66 O73 1.195 . S
O67 C66 1.313 . S
C68 O69 1.245 . S
C68 O77 1.289 . S
O69 C68 1.245 . S
C70 O71 1.245 . S
C70 O72 1.289 . S
O71 C70 1.245 . S
O72 Mg65 2.141 . S
O72 C70 1.289 . S
O73 Mg65 2.048 . S
O73 C66 1.195 . S
O74 Mg65 2.048 . S
O74 C75 1.195 . S
C75 O74 1.195 . S
C75 O76 1.313 . S
O76 C75 1.313 . S
O77 Mg65 2.141 . S
O77 C68 1.289 . S
Mg78 O85 2.141 . S
Mg78 O86 2.048 . S
Mg78 O87 2.048 1_565 S
Mg78 O90 2.141 1_565 S
C79 O80 1.313 . S
C79 O86 1.195 . S
O80 C79 1.313 . S
C81 O82 1.245 1_545 S
C81 O90 1.289 . S
O82 C81 1.245 1_565 S
C83 O84 1.245 . S
C83 O85 1.289 . S
O84 C83 1.245 . S
O85 Mg78 2.141 . S
O85 C83 1.289 . S
O86 Mg78 2.048 . S
O86 C79 1.195 . S
O87 Mg78 2.048 1_545 S
O87 C88 1.195 . S
C88 O87 1.195 . S
C88 O89 1.313 1_545 S
O89 C88 1.313 1_565 S
O90 Mg78 2.141 1_545 S
O90 C81 1.289 . S
Mg91 O98 2.141 . S
Mg91 O99 2.048 . S
Mg91 O100 2.048 . S
Mg91 O103 2.141 . S
C92 O93 1.313 . S
C92 O99 1.195 . S
O93 C92 1.313 . S
C94 O95 1.245 . S
C94 O103 1.289 . S
O95 C94 1.245 . S
C96 O97 1.245 . S
C96 O98 1.289 . S
O97 C96 1.245 . S
O98 Mg91 2.141 . S
O98 C96 1.289 . S
O99 Mg91 2.048 . S
O99 C92 1.195 . S
O100 Mg91 2.048 . S
O100 C101 1.195 . S
C101 O100 1.195 . S
C101 O102 1.313 . S
O102 C101 1.313 . S
O103 Mg91 2.141 . S
O103 C94 1.289 . S
Mg104 O111 2.141 . S
Mg104 O112 2.048 . S
Mg104 O113 2.048 . S
Mg104 O116 2.141 . S
C105 O106 1.313 . S
C105 O112 1.195 . S
O106 C105 1.313 . S
C107 O108 1.245 . S
C107 O116 1.289 . S
O108 C107 1.245 . S
C109 O110 1.245 . S
C109 O111 1.289 . S
O110 C109 1.245 . S
O111 Mg104 2.141 . S
O111 C109 1.289 . S
O112 Mg104 2.048 . S
O112 C105 1.195 . S
O113 Mg104 2.048 . S
O113 C114 1.195 . S
C114 O113 1.195 . S
C114 O115 1.313 . S
O115 C114 1.313 . S
O116 Mg104 2.141 . S
O116 C107 1.289 . S
Mg117 O124 2.141 1_554 S
Mg117 O125 2.048 . S
Mg117 O126 2.048 . S
Mg117 O129 2.141 1_554 S
C118 O119 1.313 . S
C118 O125 1.195 . S
O119 C118 1.313 . S
C120 O121 1.245 . S
C120 O129 1.289 . S
O121 C120 1.245 . S
C122 O123 1.245 . S
C122 O124 1.289 . S
O123 C122 1.245 . S
O124 Mg117 2.141 1_556 S
O124 C122 1.289 . S
O125 Mg117 2.048 . S
O125 C118 1.195 . S
O126 Mg117 2.048 . S
O126 C127 1.195 . S
C127 O126 1.195 . S
C127 O128 1.313 . S
O128 C127 1.313 . S
O129 Mg117 2.141 1_556 S
O129 C120 1.289 . S
Mg130 O137 2.141 1_554 S
Mg130 O138 2.048 . S
Mg130 O139 2.048 1_565 S
Mg130 O142 2.141 1_554 S
C131 O132 1.313 . S
C131 O138 1.195 . S
O132 C131 1.313 . S
C133 O134 1.245 . S
C133 O142 1.289 1_545 S
O134 C133 1.245 . S
C135 O136 1.245 . S
C135 O137 1.289 . S
O136 C135 1.245 . S
O137 Mg130 2.141 1_556 S
O137 C135 1.289 . S
O138 Mg130 2.048 . S
O138 C131 1.195 . S
O139 Mg130 2.048 1_545 S
O139 C140 1.195 . S
C140 O139 1.195 . S
C140 O141 1.313 . S
O141 C140 1.313 . S
O142 Mg130 2.141 1_556 S
O142 C133 1.289 1_565 S
Mg143 O150 2.141 1_554 S
Mg143 O151 2.048 . S
Mg143 O152 2.048 . S
Mg143 O155 2.141 1_554 S
C144 O145 1.313 . S
C144 O151 1.195 . S
O145 C144 1.313 . S
C146 O147 1.245 . S
C146 O155 1.289 . S
O147 C146 1.245 . S
C148 O149 1.245 . S
C148 O150 1.289 . S
O149 C148 1.245 . S
O150 Mg143 2.141 1_556 S
O150 C148 1.289 . S
O151 Mg143 2.048 . S
O151 C144 1.195 . S
O152 Mg143 2.048 . S
O152 C153 1.195 . S
C153 O152 1.195 . S
C153 O154 1.313 . S
O154 C153 1.313 . S
O155 Mg143 2.141 1_556 S
O155 C146 1.289 . S
Mg156 O163 2.141 . S
Mg156 O164 2.048 1_556 S
Mg156 O165 2.048 1_556 S
Mg156 O168 2.141 . S
C157 O158 1.313 . S
C157 O164 1.195 . S
O158 C157 1.313 . S
C159 O160 1.245 . S
C159 O168 1.289 . S
O160 C159 1.245 . S
C161 O162 1.245 . S
C161 O163 1.289 . S
O162 C161 1.245 . S
O163 Mg156 2.141 . S
O163 C161 1.289 . S
O164 Mg156 2.048 1_554 S
O164 C157 1.195 . S
O165 Mg156 2.048 1_554 S
O165 C166 1.195 . S
C166 O165 1.195 . S
C166 O167 1.313 . S
O167 C166 1.313 . S
O168 Mg156 2.141 . S
O168 C159 1.289 . S
Mg169 O176 2.141 . S
Mg169 O177 2.048 1_556 S
Mg169 O178 2.048 1_556 S
Mg169 O181 2.141 . S
C170 O171 1.313 . S
C170 O177 1.195 . S
O171 C170 1.313 . S
C172 O173 1.245 . S
C172 O181 1.289 . S
O173 C172 1.245 . S
C174 O175 1.245 . S
C174 O176 1.289 . S
O175 C174 1.245 . S
O176 Mg169 2.141 . S
O176 C174 1.289 . S
O177 Mg169 2.048 1_554 S
O177 C170 1.195 . S
O178 Mg169 2.048 1_554 S
O178 C179 1.195 . S
C179 O178 1.195 . S
C179 O180 1.313 . S
O180 C179 1.313 . S
O181 Mg169 2.141 . S
O181 C172 1.289 . S
Mg182 O189 2.141 1_556 S
Mg182 O190 2.048 . S
Mg182 O191 2.048 . S
Mg182 O194 2.141 1_556 S
C183 O184 1.313 . S
C183 O190 1.195 . S
O184 C183 1.313 . S
C185 O186 1.245 . S
C185 O194 1.289 . S
O186 C185 1.245 . S
C187 O188 1.245 . S
C187 O189 1.289 . S
O188 C187 1.245 . S
O189 Mg182 2.141 1_554 S
O189 C187 1.289 . S
O190 Mg182 2.048 . S
O190 C183 1.195 . S
O191 Mg182 2.048 . S
O191 C192 1.195 . S
C192 O191 1.195 . S
C192 O193 1.313 . S
O193 C192 1.313 . S
O194 Mg182 2.141 1_554 S
O194 C185 1.289 . S
Mg195 O202 2.141 . S
Mg195 O203 2.048 . S
Mg195 O204 2.048 . S
Mg195 O207 2.141 . S
C196 O197 1.313 . S
C196 O203 1.195 . S
O197 C196 1.313 . S
C198 O199 1.245 . S
C198 O207 1.289 . S
O199 C198 1.245 . S
C200 O201 1.245 . S
C200 O202 1.289 . S
O201 C200 1.245 . S
O202 Mg195 2.141 . S
O202 C200 1.289 . S
O203 Mg195 2.048 . S
O203 C196 1.195 . S
O204 Mg195 2.048 . S
O204 C205 1.195 . S
C205 O204 1.195 . S
C205 O206 1.313 . S
O206 C205 1.313 . S
O207 Mg195 2.141 . S
O207 C198 1.289 . S
Mg208 O215 2.141 . S
Mg208 O216 2.048 . S
Mg208 O217 2.048 . S
Mg208 O220 2.141 . S
C209 O210 1.313 . S
C209 O216 1.195 . S
O210 C209 1.313 . S
C211 O212 1.245 . S
C211 O220 1.289 . S
O212 C211 1.245 . S
C213 O214 1.245 . S
C213 O215 1.289 . S
O214 C213 1.245 . S
O215 Mg208 2.141 . S
O215 C213 1.289 . S
O216 Mg208 2.048 . S
O216 C209 1.195 . S
O217 Mg208 2.048 . S
O217 C218 1.195 . S
C218 O217 1.195 . S
C218 O219 1.313 1_655 S
O219 C218 1.313 1_455 S
O220 Mg208 2.141 . S
O220 C211 1.289 . S
Mg221 O228 2.141 . S
Mg221 O229 2.048 . S
Mg221 O230 2.048 . S
Mg221 O233 2.141 . S
C222 O223 1.313 . S
C222 O229 1.195 . S
O223 C222 1.313 . S
C224 O225 1.245 . S
C224 O233 1.289 . S
O225 C224 1.245 . S
C226 O227 1.245 . S
C226 O228 1.289 . S
O227 C226 1.245 . S
O228 Mg221 2.141 . S
O228 C226 1.289 . S
O229 Mg221 2.048 . S
O229 C222 1.195 . S
O230 Mg221 2.048 . S
O230 C231 1.195 . S
C231 O230 1.195 . S
C231 O232 1.313 . S
O232 C231 1.313 . S
O233 Mg221 2.141 . S
O233 C224 1.289 . S
C44 C5 2.467 1_456 S
C57 C16 2.202 1_556 S
C27 C66 2.277 1_554 S
C31 C70 2.470 . S
C1 C40 2.271 . S
C53 C23 2.496 . S
C118 C83 2.639 . S
C94 C131 2.395 . S
C109 C144 2.615 . S
C148 C105 2.165 . S
C122 C79 2.107 . S
C135 C101 2.345 . S
C161 C200 2.486 . S
C172 C213 2.217 . S
C183 C222 2.309 . S
C226 C187 2.483 . S
C196 C157 2.306 . S
C209 C179 2.525 . S
C10 C96 2.161 . S
C14 C107 1.864 . S
C81 C29 1.677 . S
C36 C170 2.121 . S
C185 C3 1.654 . S
C166 C18 2.123 . S
C211 C49 2.000 1_655 S
C62 C231 1.977 . S
C198 C68 1.976 . S
C133 C75 2.057 . S
C42 C146 1.997 . S
C55 C120 2.023 . S
C88 C174 2.082 . S
C92 C192 2.092 1_455 S
C114 C159 1.912 . S
C218 C153 1.953 1_655 S
C224 C127 1.955 . S
C140 C205 1.932 . S
