# Generated by pormake.
# Topology pcu, (6)-cn, num edge types: 1
# Building blocks:
#     Node 0, Type 0, BuildingBlock: PAMTOO_clean_sbu_0, # of connection points: 6
#     Edge 1, Type (0, 0), None
#     Edge 2, Type (0, 0), None
#     Edge 3, Type (0, 0), None
# Relax obj value: 0.000
# Max RMSD: 0.000
# Mean RMSD: 0.000
data_MOF--net-pcu--node1-PAMTOO_clean_sbu_0--edge1-none
_symmetry_space_group_name_H-M    P1
_symmetry_Int_Tables_number       1
_symmetry_cell_setting            triclinic
loop_
_symmetry_equiv_pos_as_xyz
'x, y, z'
_cell_length_a     17.191425
_cell_length_b     6.9664764
_cell_length_c     6.9042958
_cell_angle_alpha  85.823607
_cell_angle_beta   98.186154
_cell_angle_gamma 115.41949
loop_
_atom_site_label
_atom_site_type_symbol
_atom_site_fract_x
_atom_site_fract_y
_atom_site_fract_z
_atom_type_partial_charge
Dy0 Dy 0.15299 0.08465 -0.00272 0.0
Dy1 Dy 0.92932 0.85973 0.93585 0.0
C2 C 1.04143 0.972 0.57133 0.0
O3 O 0.11554 0.35589 -0.01798 0.0
O4 O 0.96464 0.20405 0.95082 0.0
O5 O 0.27586 0.28483 0.89283 0.0
O6 O 0.27296 0.14616 0.1839 0.0
O7 O 0.96891 0.94779 0.24944 0.0
O8 O 0.11263 0.00083 0.29514 0.0
O9 O 0.96693 0.58861 0.9537 0.0
O10 O 0.11767 0.74098 -0.02412 0.0
O11 O 0.80715 0.6653 0.0461 0.0
O12 O 0.80851 0.79137 0.75083 0.0
C13 C 1.04059 0.36759 0.96567 0.0
O14 O 0.11393 0.00141 0.68255 0.0
O15 O 0.96914 0.94052 0.63725 0.0
C16 C 0.3875 0.17767 0.01678 0.0
C17 C 0.51038 0.01875 -0.02214 0.0
C18 C 0.43892 -0.02041 0.83332 0.0
C19 C 0.37785 0.05754 0.85297 0.0
C20 C 0.45913 0.21941 0.15981 0.0
C21 C 0.51992 0.14061 0.1409 0.0
C22 C 0.32105 0.24889 0.04783 0.0
C23 C 1.04089 0.97352 0.361 0.0
C24 C 0.0418 0.57719 0.96511 0.0
C25 C 0.69696 0.77255 0.92049 0.0
C26 C 0.57463 0.93276 0.95913 0.0
C27 C 0.66373 0.0557 0.01446 0.0
C28 C 0.72428 -0.02378 -0.00457 0.0
C29 C 0.60839 0.64845 0.86611 0.0
C30 C 0.54763 0.72761 0.88551 0.0
C31 C 0.76107 0.69443 0.88955 0.0
H32 H 0.43026 0.88924 0.70449 0.0
H33 H 0.32267 0.02182 0.74125 0.0
H34 H 0.46726 0.31016 0.28814 0.0
H35 H 0.57345 0.17173 0.25618 0.0
H36 H 0.68696 0.21512 0.06902 0.0
H37 H 0.79261 0.07494 0.03665 0.0
H38 H 0.58631 0.49118 0.80712 0.0
H39 H 0.47952 0.62766 0.84379 0.0
loop_
_geom_bond_atom_site_label_1
_geom_bond_atom_site_label_2
_geom_bond_distance
_geom_bond_site_symmetry_2
_ccdc_geom_bond_type
Dy0 O3 2.307 . S
Dy0 O5 2.395 1_554 S
Dy0 O6 2.379 . S
Dy0 O8 2.339 . S
Dy0 O10 2.298 1_545 S
Dy0 O14 2.275 1_554 S
Dy0 C22 2.738 . S
Dy1 O4 2.298 1_565 S
Dy1 O7 2.275 1_556 S
Dy1 O9 2.307 . S
Dy1 O11 2.395 1_556 S
Dy1 O12 2.379 . S
Dy1 O15 2.339 . S
Dy1 C31 2.738 . S
C2 O14 1.254 1_665 S
C2 O15 1.257 . S
O3 Dy0 2.307 . S
O3 C13 1.275 1_554 S
O4 Dy1 2.298 1_545 S
O4 C13 1.232 1_655 S
O5 Dy0 2.395 1_556 S
O5 C22 1.255 1_556 S
O6 Dy0 2.379 . S
O6 C22 1.249 . S
O7 Dy1 2.275 1_554 S
O7 C23 1.254 1_665 S
O8 Dy0 2.339 . S
O8 C23 1.257 . S
O9 Dy1 2.307 . S
O9 C24 1.271 1_556 S
O10 Dy0 2.298 1_565 S
O10 C24 1.233 1_455 S
O11 Dy1 2.395 1_554 S
O11 C31 1.255 1_554 S
O12 Dy1 2.379 . S
O12 C31 1.249 . S
C13 O3 1.275 1_556 S
C13 O4 1.232 1_455 S
O14 Dy0 2.275 1_556 S
O14 C2 1.254 1_445 S
O15 Dy1 2.339 . S
O15 C2 1.257 . S
C16 C19 1.344 1_544 S
C16 C20 1.328 . S
C16 C22 1.516 . S
C17 C18 1.304 . S
C17 C21 1.323 1_566 S
C18 C17 1.304 . S
C18 C19 1.371 . S
C18 H32 0.930 . S
C19 C16 1.344 1_566 S
C19 C18 1.371 . S
C19 H33 0.931 . S
C20 C16 1.328 . S
C20 C21 1.433 . S
C20 H34 0.931 . S
C21 C17 1.323 1_544 S
C21 C20 1.433 . S
C21 H35 0.933 . S
C22 Dy0 2.738 . S
C22 O5 1.255 1_554 S
C22 O6 1.249 . S
C22 C16 1.516 . S
C23 O7 1.254 1_445 S
C23 O8 1.257 . S
C24 O9 1.271 1_554 S
C24 O10 1.233 1_655 S
C25 C28 1.344 1_566 S
C25 C29 1.328 . S
C25 C31 1.516 . S
C26 C27 1.304 . S
C26 C30 1.323 1_544 S
C27 C26 1.304 . S
C27 C28 1.371 . S
C27 H36 0.930 . S
C28 C25 1.344 1_544 S
C28 C27 1.371 . S
C28 H37 0.931 . S
C29 C25 1.328 . S
C29 C30 1.433 . S
C29 H38 0.931 . S
C30 C26 1.323 1_566 S
C30 C29 1.433 . S
C30 H39 0.933 . S
C31 Dy1 2.738 . S
C31 O11 1.255 1_556 S
C31 O12 1.249 . S
C31 C25 1.516 . S
H32 C18 0.930 . S
H33 C19 0.931 . S
H34 C20 0.931 . S
H35 C21 0.933 . S
H36 C27 0.930 . S
H37 C28 0.931 . S
H38 C29 0.931 . S
H39 C30 0.933 . S
C23 C2 1.500 1_445 S
C17 C26 1.500 1_566 S
C24 C13 1.493 1_654 S
