# Generated by pormake.
# Topology zfu, (5)-cn, num edge types: 1
# Building blocks:
#     Node 0, Type 0, BuildingBlock: XOMCOT_clean_sbu_1, # of connection points: 5
#     Node 1, Type 0, BuildingBlock: XOMCOT_clean_sbu_1, # of connection points: 5
#     Node 2, Type 0, BuildingBlock: XOMCOT_clean_sbu_1, # of connection points: 5
#     Node 3, Type 0, BuildingBlock: XOMCOT_clean_sbu_1, # of connection points: 5
#     Node 4, Type 0, BuildingBlock: XOMCOT_clean_sbu_1, # of connection points: 5
#     Node 5, Type 0, BuildingBlock: XOMCOT_clean_sbu_1, # of connection points: 5
#     Node 6, Type 0, BuildingBlock: XOMCOT_clean_sbu_1, # of connection points: 5
#     Node 7, Type 0, BuildingBlock: XOMCOT_clean_sbu_1, # of connection points: 5
#     Edge 8, Type (0, 0), None
#     Edge 9, Type (0, 0), None
#     Edge 10, Type (0, 0), None
#     Edge 11, Type (0, 0), None
#     Edge 12, Type (0, 0), None
#     Edge 13, Type (0, 0), None
#     Edge 14, Type (0, 0), None
#     Edge 15, Type (0, 0), None
#     Edge 16, Type (0, 0), None
#     Edge 17, Type (0, 0), None
#     Edge 18, Type (0, 0), None
#     Edge 19, Type (0, 0), None
#     Edge 20, Type (0, 0), None
#     Edge 21, Type (0, 0), None
#     Edge 22, Type (0, 0), None
#     Edge 23, Type (0, 0), None
#     Edge 24, Type (0, 0), None
#     Edge 25, Type (0, 0), None
#     Edge 26, Type (0, 0), None
#     Edge 27, Type (0, 0), None
# Relax obj value: 0.157
# Max RMSD: 0.162
# Mean RMSD: 0.162
data_MOF--net-zfu--node1-XOMCOT_clean_sbu_1--edge1-none
_symmetry_space_group_name_H-M    P1
_symmetry_Int_Tables_number       1
_symmetry_cell_setting            triclinic
loop_
_symmetry_equiv_pos_as_xyz
'x, y, z'
_cell_length_a     20.653271
_cell_length_b     20.65158
_cell_length_c     13.086692
_cell_angle_alpha  89.999783
_cell_angle_beta   90.000197
_cell_angle_gamma 89.999789
loop_
_atom_site_label
_atom_site_type_symbol
_atom_site_fract_x
_atom_site_fract_y
_atom_site_fract_z
_atom_type_partial_charge
C0 C 0.52372 0.64746 0.90346 0.0
C1 C 0.5687 0.60474 0.94132 0.0
N2 N 0.60997 0.63721 1.00227 0.0
N3 N 0.53516 0.70715 0.94168 0.0
C4 C 0.59171 0.69973 0.99455 0.0
H5 H 0.48153 0.63316 0.86091 0.0
Co6 Co 0.47437 0.7778 0.95463 0.0
C7 C 0.54192 0.83284 0.1435 0.0
O8 O 0.49694 0.811 0.20516 0.0
N9 N 0.41813 0.85105 0.96529 0.0
C10 C 0.36874 0.93538 0.03715 0.0
C11 C 0.40205 0.88001 0.05455 0.0
C12 C 0.39338 0.89169 0.89313 0.0
N13 N 0.36314 0.9435 0.93594 0.0
O14 O 0.41388 0.73518 0.85317 0.0
H15 H 0.41142 0.86201 0.1296 0.0
H16 H 0.39921 0.88454 0.8117 0.0
O17 O 0.53713 0.82374 0.04687 0.0
C18 C 0.37007 0.6907 0.84773 0.0
O19 O 0.35436 0.6571 0.92907 0.0
N20 N 0.43084 0.7344 0.06838 0.0
C21 C 0.37545 0.688 0.24916 0.0
C22 C 0.43919 0.67356 0.22426 0.0
C23 C 0.4652 0.69579 0.13399 0.0
C24 C 0.36614 0.744 0.08786 0.0
C25 C 0.33776 0.7225 0.17912 0.0
H26 H 0.51558 0.688 0.12738 0.0
H27 H 0.33604 0.76971 0.03383 0.0
H28 H 0.61205 0.73635 0.04378 0.0
H29 H 0.56554 0.5525 0.93645 0.0
H30 H 0.34971 0.96739 0.09552 0.0
H31 H 0.47022 0.64712 0.27654 0.0
H32 H 0.28708 0.73206 0.19405 0.0
C33 C 0.88985 0.02375 0.15348 0.0
C34 C 0.93256 0.06873 0.19135 0.0
N35 N 0.90009 0.11 0.25231 0.0
N36 N 0.83016 0.03519 0.19171 0.0
C37 C 0.83758 0.09173 0.24459 0.0
H38 H 0.90415 0.98157 0.11092 0.0
Co39 Co 0.75952 0.97438 0.20466 0.0
C40 C 0.70442 0.04192 0.3935 0.0
O41 O 0.72622 0.99692 0.45516 0.0
N42 N 0.68629 0.91812 0.21532 0.0
C43 C 0.60199 0.86867 0.28717 0.0
C44 C 0.65736 0.90198 0.30457 0.0
C45 C 0.64564 0.8934 0.14316 0.0
N46 N 0.59385 0.86313 0.18595 0.0
O47 O 0.80215 0.91388 0.10321 0.0
H48 H 0.67537 0.91131 0.37963 0.0
H49 H 0.65277 0.89928 0.06173 0.0
O50 O 0.71356 0.03715 0.29687 0.0
C51 C 0.84665 0.87009 0.09778 0.0
O52 O 0.88029 0.85443 0.1791 0.0
N53 N 0.80292 0.93087 0.31842 0.0
C54 C 0.84932 0.87548 0.4992 0.0
C55 C 0.86369 0.93925 0.47435 0.0
C56 C 0.84146 0.96526 0.38408 0.0
C57 C 0.79337 0.86614 0.33786 0.0
C58 C 0.81488 0.83777 0.42912 0.0
H59 H 0.84918 1.01566 0.37752 0.0
H60 H 0.7677 0.83604 0.2838 0.0
H61 H 0.80096 0.11207 0.29382 0.0
H62 H 0.9848 0.06558 0.18648 0.0
H63 H 0.57 0.8496 0.34553 0.0
H64 H 0.89008 0.97029 0.52666 0.0
H65 H 0.80536 0.78707 0.44402 0.0
C66 C 0.51355 0.38989 0.40346 0.0
C67 C 0.46857 0.43261 0.44132 0.0
N68 N 0.4273 0.40015 0.50227 0.0
N69 N 0.50211 0.3302 0.44168 0.0
C70 C 0.44556 0.33762 0.49456 0.0
H71 H 0.55574 0.40419 0.36091 0.0
Co72 Co 0.5629 0.25955 0.45463 0.0
C73 C 0.49536 0.2045 0.6435 0.0
O74 O 0.54034 0.22634 0.70516 0.0
N75 N 0.61914 0.18631 0.46529 0.0
C76 C 0.66854 0.10198 0.53715 0.0
C77 C 0.63523 0.15735 0.55455 0.0
C78 C 0.64389 0.14566 0.39313 0.0
N79 N 0.67413 0.09385 0.43594 0.0
O80 O 0.62339 0.30218 0.35317 0.0
H81 H 0.62587 0.17535 0.6296 0.0
H82 H 0.63805 0.15281 0.3117 0.0
O83 O 0.50014 0.21361 0.54687 0.0
C84 C 0.6672 0.34666 0.34774 0.0
O85 O 0.68291 0.38026 0.42907 0.0
N86 N 0.60643 0.30296 0.56838 0.0
C87 C 0.66182 0.34935 0.74916 0.0
C88 C 0.59807 0.36378 0.72427 0.0
C89 C 0.57206 0.34156 0.634 0.0
C90 C 0.67114 0.29336 0.58785 0.0
C91 C 0.69951 0.31486 0.67912 0.0
H92 H 0.52168 0.34934 0.6274 0.0
H93 H 0.70123 0.26765 0.53382 0.0
H94 H 0.42523 0.301 0.54378 0.0
H95 H 0.47173 0.48486 0.43645 0.0
H96 H 0.68757 0.06997 0.59552 0.0
H97 H 0.56705 0.39021 0.77655 0.0
H98 H 0.75019 0.3053 0.69405 0.0
C99 C 0.14742 1.01361 0.65349 0.0
C100 C 0.10471 0.96862 0.69137 0.0
N101 N 0.13718 0.92735 0.75232 0.0
N102 N 0.20711 1.00217 0.69171 0.0
C103 C 0.19969 0.94562 0.74459 0.0
H104 H 0.13312 0.05579 0.61093 0.0
Co105 Co 0.27775 0.06297 0.70466 0.0
C106 C 0.33286 0.99544 0.8935 0.0
O107 O 0.31106 0.04043 0.95517 0.0
N108 N 0.35098 0.11923 0.71532 0.0
C109 C 0.43528 0.16868 0.78717 0.0
C110 C 0.37991 0.13537 0.80457 0.0
C111 C 0.39163 0.14395 0.64316 0.0
N112 N 0.44343 0.17422 0.68595 0.0
O113 O 0.23511 0.12347 0.60322 0.0
H114 H 0.36189 0.12606 0.87963 0.0
H115 H 0.3845 0.13807 0.56173 0.0
O116 O 0.32371 1.00021 0.79688 0.0
C117 C 0.19061 0.16726 0.59778 0.0
O118 O 0.15697 0.18292 0.6791 0.0
N119 N 0.23435 0.10648 0.81843 0.0
C120 C 0.18795 0.16187 0.9992 0.0
C121 C 0.17359 0.0981 0.97436 0.0
C122 C 0.19581 0.07209 0.88409 0.0
C123 C 0.2439 0.17121 0.83786 0.0
C124 C 0.22239 0.19958 0.92912 0.0
H125 H 0.1881 0.02169 0.87753 0.0
H126 H 0.26957 0.20132 0.7838 0.0
H127 H 0.23631 0.92529 0.79382 0.0
H128 H 0.05247 0.97178 0.68649 0.0
H129 H 0.46727 0.18775 0.84553 0.0
H130 H 0.1472 0.06706 0.02668 0.0
H131 H 0.2319 0.25029 0.94402 0.0
C132 C 0.02344 0.89004 0.94041 0.0
C133 C 0.06837 0.93272 0.90225 0.0
N134 N 0.10964 0.90007 0.84157 0.0
N135 N 0.03497 0.83023 0.90266 0.0
C136 C 0.09154 0.83754 0.84982 0.0
H137 H 0.98121 0.90442 0.98278 0.0
Co138 Co 0.97414 0.75958 0.88982 0.0
C139 C 0.04163 0.70419 0.70109 0.0
O140 O 0.99651 0.72572 0.63942 0.0
N141 N 0.91784 0.68637 0.87923 0.0
C142 C 0.86843 0.60203 0.80744 0.0
C143 C 0.9015 0.65753 0.79 0.0
C144 C 0.89339 0.64556 0.95143 0.0
N145 N 0.86316 0.59373 0.90866 0.0
O146 O 0.91365 0.8023 0.9912 0.0
H147 H 0.91054 0.67567 0.71494 0.0
H148 H 0.8995 0.65258 0.03284 0.0
O149 O 0.03691 0.71352 0.79769 0.0
C150 C 0.86991 0.84685 0.99664 0.0
O151 O 0.85432 0.88056 0.91536 0.0
N152 N 0.93072 0.80293 0.77597 0.0
C153 C 0.87538 0.84939 0.59519 0.0
C154 C 0.93926 0.86343 0.61979 0.0
C155 C 0.96525 0.84117 0.71005 0.0
C156 C 0.86594 0.79364 0.7567 0.0
C157 C 0.83758 0.81519 0.66545 0.0
H158 H 1.01572 0.84852 0.71638 0.0
H159 H 0.83579 0.76811 0.81087 0.0
H160 H 0.11197 0.80079 0.80093 0.0
H161 H 0.06516 0.98497 0.90671 0.0
H162 H 0.84929 0.57007 0.74909 0.0
H163 H 0.97038 0.88956 0.56729 0.0
H164 H 0.78683 0.80589 0.65069 0.0
C165 C 0.64728 0.52346 0.19037 0.0
C166 C 0.6046 0.56839 0.15221 0.0
N167 N 0.63725 0.60967 0.09153 0.0
N168 N 0.70708 0.53499 0.15263 0.0
C169 C 0.69978 0.59156 0.09978 0.0
H170 H 0.63289 0.48124 0.23276 0.0
Co171 Co 0.77772 0.47415 0.13979 0.0
C172 C 0.83317 0.54163 0.9511 0.0
O173 O 0.81168 0.4965 0.88942 0.0
N174 N 0.85092 0.41783 0.1292 0.0
C175 C 0.93523 0.36837 0.05742 0.0
C176 C 0.87973 0.40145 0.03997 0.0
C177 C 0.89173 0.39341 0.20141 0.0
N178 N 0.94355 0.36315 0.15865 0.0
O179 O 0.73499 0.41365 0.24116 0.0
H180 H 0.86157 0.41044 0.96491 0.0
H181 H 0.88474 0.39956 0.28281 0.0
O182 O 0.82379 0.53693 0.04768 0.0
C183 C 0.69043 0.36993 0.2466 0.0
O184 O 0.65668 0.35439 0.16533 0.0
N185 N 0.73437 0.43075 0.02592 0.0
C186 C 0.68792 0.37541 0.84515 0.0
C187 C 0.67393 0.43932 0.8697 0.0
C188 C 0.6962 0.46531 0.95996 0.0
C189 C 0.74361 0.36595 1.0067 0.0
C190 C 0.72205 0.33759 0.91545 0.0
H191 H 0.68891 0.51579 0.96625 0.0
H192 H 0.76911 0.33579 0.06089 0.0
H193 H 0.73653 0.61199 0.0509 0.0
H194 H 0.55236 0.56518 0.15667 0.0
H195 H 0.96717 0.3492 0.99908 0.0
H196 H 0.64785 0.47046 0.81717 0.0
H197 H 0.73131 0.28682 0.90073 0.0
C198 C 1.01384 0.14731 0.4404 0.0
C199 C 0.96891 0.10464 0.40224 0.0
N200 N 0.92763 0.13728 0.34156 0.0
N201 N 1.0023 0.20712 0.40266 0.0
C202 C 0.94573 0.19981 0.34981 0.0
H203 H 0.05606 0.13293 0.48277 0.0
Co204 Co 0.06313 0.27778 0.38982 0.0
C205 C 0.99564 0.33316 0.20109 0.0
O206 O 0.04076 0.31163 0.13942 0.0
N207 N 0.11943 0.35099 0.37924 0.0
C208 C 0.16883 0.43533 0.30744 0.0
C209 C 0.13576 0.37983 0.29 0.0
C210 C 0.14388 0.39179 0.45143 0.0
N211 N 0.1741 0.44362 0.40867 0.0
O212 O 0.12362 0.23505 0.4912 0.0
H213 H 0.12673 0.36168 0.21494 0.0
H214 H 0.13777 0.38477 0.53284 0.0
O215 O 1.00036 0.32383 0.29769 0.0
C216 C 0.16736 0.19051 0.49664 0.0
O217 O 0.18295 0.1568 0.41536 0.0
N218 N 0.10655 0.23442 0.27597 0.0
C219 C 0.16189 0.18797 0.09519 0.0
C220 C 0.09801 0.17392 0.11979 0.0
C221 C 0.07202 0.19619 0.21005 0.0
C222 C 0.17133 0.24371 0.2567 0.0
C223 C 0.19969 0.22216 0.16545 0.0
H224 H 0.02155 0.18883 0.21638 0.0
H225 H 0.20148 0.26925 0.31087 0.0
H226 H 0.9253 0.23657 0.30093 0.0
H227 H 0.97212 0.05238 0.4067 0.0
H228 H 0.18797 0.46729 0.24909 0.0
H229 H 0.06689 0.14779 0.06729 0.0
H230 H 0.25044 0.23147 0.1507 0.0
C231 C 0.38999 0.51389 0.69037 0.0
C232 C 0.43266 0.46896 0.65221 0.0
N233 N 0.40002 0.42768 0.59152 0.0
N234 N 0.33019 0.50237 0.65263 0.0
C235 C 0.33749 0.44579 0.59978 0.0
H236 H 0.40438 0.55611 0.73276 0.0
Co237 Co 0.25955 0.5632 0.63979 0.0
C238 C 0.20409 0.49573 0.4511 0.0
O239 O 0.22558 0.54087 0.38942 0.0
N240 N 0.18635 0.61953 0.6292 0.0
C241 C 0.10204 0.66899 0.55742 0.0
C242 C 0.15754 0.63592 0.53997 0.0
C243 C 0.14554 0.64394 0.70141 0.0
N244 N 0.09372 0.6742 0.65865 0.0
O245 O 0.30228 0.62371 0.74115 0.0
H246 H 0.1757 0.62693 0.46491 0.0
H247 H 0.15253 0.63779 0.78281 0.0
O248 O 0.21348 0.50042 0.54768 0.0
C249 C 0.34685 0.66743 0.74659 0.0
O250 O 0.3806 0.68296 0.66533 0.0
N251 N 0.30289 0.60661 0.52592 0.0
C252 C 0.34935 0.66194 0.34515 0.0
C253 C 0.36333 0.59803 0.3697 0.0
C254 C 0.34106 0.57204 0.45995 0.0
C255 C 0.29366 0.6714 0.5067 0.0
C256 C 0.31522 0.69977 0.41546 0.0
H257 H 0.34834 0.52156 0.46623 0.0
H258 H 0.26817 0.70156 0.5609 0.0
H259 H 0.30074 0.42536 0.5509 0.0
H260 H 0.48491 0.47217 0.65667 0.0
H261 H 0.0701 0.68817 0.49908 0.0
H262 H 0.38941 0.56689 0.31715 0.0
H263 H 0.30597 0.75054 0.40073 0.0
loop_
_geom_bond_atom_site_label_1
_geom_bond_atom_site_label_2
_geom_bond_distance
_geom_bond_site_symmetry_2
_ccdc_geom_bond_type
C0 C1 1.351 . S
C0 N3 1.368 . S
C0 H5 0.931 . S
C1 C0 1.351 . S
C1 N2 1.373 1_556 S
C1 H29 0.930 . S
N2 C1 1.373 1_554 S
N2 C4 1.340 1_554 S
N3 C0 1.368 . S
N3 C4 1.321 . S
N3 Co6 2.135 . S
C4 N2 1.340 1_556 S
C4 N3 1.321 . S
C4 H28 0.930 1_556 S
H5 C0 0.931 . S
Co6 N3 2.135 . S
Co6 N9 2.121 . S
Co6 O14 2.055 . S
Co6 O17 2.039 . S
Co6 N20 2.140 1_556 S
C7 O8 1.227 . S
C7 O17 1.265 1_554 S
O8 C7 1.227 . S
N9 Co6 2.121 . S
N9 C11 1.375 1_556 S
N9 C12 1.313 . S
C10 C11 1.338 1_556 S
C10 N13 1.377 . S
C10 H30 0.930 1_556 S
C11 N9 1.375 1_554 S
C11 C10 1.338 1_554 S
C11 H15 0.931 . S
C12 N9 1.313 . S
C12 N13 1.344 . S
C12 H16 0.930 . S
N13 C10 1.377 . S
N13 C12 1.344 . S
O14 Co6 2.055 . S
O14 C18 1.253 . S
H15 C11 0.931 . S
H16 C12 0.930 . S
O17 Co6 2.039 . S
O17 C7 1.265 1_556 S
C18 O14 1.253 . S
C18 O19 1.227 . S
O19 C18 1.227 . S
N20 Co6 2.140 1_554 S
N20 C23 1.346 . S
N20 C24 1.345 . S
C21 C22 1.387 . S
C21 C25 1.391 . S
C22 C21 1.387 . S
C22 C23 1.369 . S
C22 H31 0.929 . S
C23 N20 1.346 . S
C23 C22 1.369 . S
C23 H26 0.928 . S
C24 N20 1.345 . S
C24 C25 1.371 . S
C24 H27 0.931 . S
C25 C21 1.391 . S
C25 C24 1.371 . S
C25 H32 0.930 . S
H26 C23 0.928 . S
H27 C24 0.931 . S
H28 C4 0.930 1_554 S
H29 C1 0.930 . S
H30 C10 0.930 1_554 S
H31 C22 0.929 . S
H32 C25 0.930 . S
C33 C34 1.351 1_565 S
C33 N36 1.368 . S
C33 H38 0.931 . S
C34 C33 1.351 1_545 S
C34 N35 1.373 . S
C34 H62 0.930 1_545 S
N35 C34 1.373 . S
N35 C37 1.340 . S
N36 C33 1.368 . S
N36 C37 1.321 1_565 S
N36 Co39 2.135 . S
C37 N35 1.340 . S
C37 N36 1.321 1_545 S
C37 H61 0.930 . S
H38 C33 0.931 . S
Co39 N36 2.135 . S
Co39 N42 2.121 . S
Co39 O47 2.055 . S
Co39 O50 2.039 1_565 S
Co39 N53 2.140 . S
C40 O41 1.227 . S
C40 O50 1.265 . S
O41 C40 1.227 . S
N42 Co39 2.121 . S
N42 C44 1.375 . S
N42 C45 1.313 . S
C43 C44 1.338 . S
C43 N46 1.377 . S
C43 H63 0.930 . S
C44 N42 1.375 . S
C44 C43 1.338 . S
C44 H48 0.931 . S
C45 N42 1.313 . S
C45 N46 1.344 . S
C45 H49 0.930 . S
N46 C43 1.377 . S
N46 C45 1.344 . S
O47 Co39 2.055 . S
O47 C51 1.253 . S
H48 C44 0.931 . S
H49 C45 0.930 . S
O50 Co39 2.039 1_545 S
O50 C40 1.265 . S
C51 O47 1.253 . S
C51 O52 1.227 . S
O52 C51 1.227 . S
N53 Co39 2.140 . S
N53 C56 1.346 . S
N53 C57 1.345 . S
C54 C55 1.387 . S
C54 C58 1.391 . S
C55 C54 1.387 . S
C55 C56 1.369 . S
C55 H64 0.929 . S
C56 N53 1.346 . S
C56 C55 1.369 . S
C56 H59 0.928 . S
C57 N53 1.345 . S
C57 C58 1.371 . S
C57 H60 0.931 . S
C58 C54 1.391 . S
C58 C57 1.371 . S
C58 H65 0.930 . S
H59 C56 0.928 . S
H60 C57 0.931 . S
H61 C37 0.930 . S
H62 C34 0.930 1_565 S
H63 C43 0.930 . S
H64 C55 0.929 . S
H65 C58 0.930 . S
C66 C67 1.351 . S
C66 N69 1.368 . S
C66 H71 0.931 . S
C67 C66 1.351 . S
C67 N68 1.373 . S
C67 H95 0.930 . S
N68 C67 1.373 . S
N68 C70 1.340 . S
N69 C66 1.368 . S
N69 C70 1.321 . S
N69 Co72 2.135 . S
C70 N68 1.340 . S
C70 N69 1.321 . S
C70 H94 0.930 . S
H71 C66 0.931 . S
Co72 N69 2.135 . S
Co72 N75 2.121 . S
Co72 O80 2.055 . S
Co72 O83 2.039 . S
Co72 N86 2.140 . S
C73 O74 1.227 . S
C73 O83 1.265 . S
O74 C73 1.227 . S
N75 Co72 2.121 . S
N75 C77 1.375 . S
N75 C78 1.313 . S
C76 C77 1.338 . S
C76 N79 1.377 . S
C76 H96 0.930 . S
C77 N75 1.375 . S
C77 C76 1.338 . S
C77 H81 0.931 . S
C78 N75 1.313 . S
C78 N79 1.344 . S
C78 H82 0.930 . S
N79 C76 1.377 . S
N79 C78 1.344 . S
O80 Co72 2.055 . S
O80 C84 1.253 . S
H81 C77 0.931 . S
H82 C78 0.930 . S
O83 Co72 2.039 . S
O83 C73 1.265 . S
C84 O80 1.253 . S
C84 O85 1.227 . S
O85 C84 1.227 . S
N86 Co72 2.140 . S
N86 C89 1.346 . S
N86 C90 1.345 . S
C87 C88 1.387 . S
C87 C91 1.391 . S
C88 C87 1.387 . S
C88 C89 1.369 . S
C88 H97 0.929 . S
C89 N86 1.346 . S
C89 C88 1.369 . S
C89 H92 0.928 . S
C90 N86 1.345 . S
C90 C91 1.371 . S
C90 H93 0.931 . S
C91 C87 1.391 . S
C91 C90 1.371 . S
C91 H98 0.930 . S
H92 C89 0.928 . S
H93 C90 0.931 . S
H94 C70 0.930 . S
H95 C67 0.930 . S
H96 C76 0.930 . S
H97 C88 0.929 . S
H98 C91 0.930 . S
C99 C100 1.351 1_545 S
C99 N102 1.368 . S
C99 H104 0.931 . S
C100 C99 1.351 1_565 S
C100 N101 1.373 . S
C100 H128 0.930 1_565 S
N101 C100 1.373 . S
N101 C103 1.340 . S
N102 C99 1.368 . S
N102 C103 1.321 1_545 S
N102 Co105 2.135 . S
C103 N101 1.340 . S
C103 N102 1.321 1_565 S
C103 H127 0.930 . S
H104 C99 0.931 . S
Co105 N102 2.135 . S
Co105 N108 2.121 . S
Co105 O113 2.055 . S
Co105 O116 2.039 1_545 S
Co105 N119 2.140 . S
C106 O107 1.227 . S
C106 O116 1.265 . S
O107 C106 1.227 . S
N108 Co105 2.121 . S
N108 C110 1.375 . S
N108 C111 1.313 . S
C109 C110 1.338 . S
C109 N112 1.377 . S
C109 H129 0.930 . S
C110 N108 1.375 . S
C110 C109 1.338 . S
C110 H114 0.931 . S
C111 N108 1.313 . S
C111 N112 1.344 . S
C111 H115 0.930 . S
N112 C109 1.377 . S
N112 C111 1.344 . S
O113 Co105 2.055 . S
O113 C117 1.253 . S
H114 C110 0.931 . S
H115 C111 0.930 . S
O116 Co105 2.039 1_565 S
O116 C106 1.265 . S
C117 O113 1.253 . S
C117 O118 1.227 . S
O118 C117 1.227 . S
N119 Co105 2.140 . S
N119 C122 1.346 . S
N119 C123 1.345 . S
C120 C121 1.387 1_554 S
C120 C124 1.391 1_554 S
C121 C120 1.387 1_556 S
C121 C122 1.375 . S
C121 H130 0.924 1_556 S
C122 N119 1.346 . S
C122 C121 1.375 . S
C122 H125 0.928 . S
C123 N119 1.345 . S
C123 C124 1.371 . S
C123 H126 0.931 . S
C124 C120 1.391 1_556 S
C124 C123 1.371 . S
C124 H131 0.930 . S
H125 C122 0.928 . S
H126 C123 0.931 . S
H127 C103 0.930 . S
H128 C100 0.930 1_545 S
H129 C109 0.930 . S
H130 C121 0.924 1_554 S
H131 C124 0.930 . S
C132 C133 1.351 1_655 S
C132 N135 1.368 . S
C132 H137 0.931 . S
C133 C132 1.351 1_455 S
C133 N134 1.373 . S
C133 H161 0.930 1_455 S
N134 C133 1.373 . S
N134 C136 1.340 . S
N135 C132 1.368 . S
N135 C136 1.321 1_655 S
N135 Co138 2.135 . S
C136 N134 1.340 . S
C136 N135 1.321 1_455 S
C136 H160 0.930 . S
H137 C132 0.931 . S
Co138 N135 2.135 . S
Co138 N141 2.121 . S
Co138 O146 2.055 1_556 S
Co138 O149 2.039 1_655 S
Co138 N152 2.140 . S
C139 O140 1.227 . S
C139 O149 1.265 . S
O140 C139 1.227 . S
N141 Co138 2.121 . S
N141 C143 1.375 . S
N141 C144 1.313 . S
C142 C143 1.338 . S
C142 N145 1.377 . S
C142 H162 0.930 . S
C143 N141 1.375 . S
C143 C142 1.338 . S
C143 H147 0.931 . S
C144 N141 1.313 . S
C144 N145 1.344 . S
C144 H148 0.930 . S
N145 C142 1.377 . S
N145 C144 1.344 . S
O146 Co138 2.055 1_554 S
O146 C150 1.253 . S
H147 C143 0.931 . S
H148 C144 0.930 . S
O149 Co138 2.039 1_455 S
O149 C139 1.265 . S
C150 O146 1.253 . S
C150 O151 1.227 1_554 S
O151 C150 1.227 1_556 S
N152 Co138 2.140 . S
N152 C155 1.346 . S
N152 C156 1.345 . S
C153 C154 1.387 . S
C153 C157 1.391 . S
C154 C153 1.387 . S
C154 C155 1.369 . S
C154 H163 0.929 . S
C155 N152 1.346 . S
C155 C154 1.369 . S
C155 H158 0.928 . S
C156 N152 1.345 . S
C156 C157 1.371 . S
C156 H159 0.931 . S
C157 C153 1.391 . S
C157 C156 1.371 . S
C157 H164 0.930 . S
H158 C155 0.928 . S
H159 C156 0.931 . S
H160 C136 0.930 . S
H161 C133 0.930 1_655 S
H162 C142 0.930 . S
H163 C154 0.929 . S
H164 C157 0.930 . S
C165 C166 1.351 . S
C165 N168 1.368 . S
C165 H170 0.931 . S
C166 C165 1.351 . S
C166 N167 1.373 . S
C166 H194 0.930 . S
N167 C166 1.373 . S
N167 C169 1.340 . S
N168 C165 1.368 . S
N168 C169 1.321 . S
N168 Co171 2.135 . S
C169 N167 1.340 . S
C169 N168 1.321 . S
C169 H193 0.930 . S
H170 C165 0.931 . S
Co171 N168 2.135 . S
Co171 N174 2.121 . S
Co171 O179 2.055 . S
Co171 O182 2.039 . S
Co171 N185 2.140 1_554 S
C172 O173 1.227 1_554 S
C172 O182 1.265 . S
O173 C172 1.227 1_556 S
N174 Co171 2.121 . S
N174 C176 1.375 . S
N174 C177 1.313 . S
C175 C176 1.338 . S
C175 N178 1.377 . S
C175 H195 0.930 . S
C176 N174 1.375 . S
C176 C175 1.338 . S
C176 H180 0.931 1_554 S
C177 N174 1.313 . S
C177 N178 1.344 . S
C177 H181 0.930 . S
N178 C175 1.377 . S
N178 C177 1.344 . S
O179 Co171 2.055 . S
O179 C183 1.253 . S
H180 C176 0.931 1_556 S
H181 C177 0.930 . S
O182 Co171 2.039 . S
O182 C172 1.265 . S
C183 O179 1.253 . S
C183 O184 1.227 . S
O184 C183 1.227 . S
N185 Co171 2.140 1_556 S
N185 C188 1.346 . S
N185 C189 1.345 . S
C186 C187 1.387 . S
C186 C190 1.391 . S
C187 C186 1.387 . S
C187 C188 1.369 . S
C187 H196 0.929 . S
C188 N185 1.346 . S
C188 C187 1.369 . S
C188 H191 0.928 . S
C189 N185 1.345 . S
C189 C190 1.371 . S
C189 H192 0.931 1_556 S
C190 C186 1.391 . S
C190 C189 1.371 . S
C190 H197 0.930 . S
H191 C188 0.928 . S
H192 C189 0.931 1_554 S
H193 C169 0.930 . S
H194 C166 0.930 . S
H195 C175 0.930 . S
H196 C187 0.929 . S
H197 C190 0.930 . S
C198 C199 1.351 1_455 S
C198 N201 1.368 . S
C198 H203 0.931 . S
C199 C198 1.351 1_655 S
C199 N200 1.373 . S
C199 H227 0.930 1_655 S
N200 C199 1.373 . S
N200 C202 1.340 . S
N201 C198 1.368 . S
N201 C202 1.321 1_455 S
N201 Co204 2.135 . S
C202 N200 1.340 . S
C202 N201 1.321 1_655 S
C202 H226 0.930 . S
H203 C198 0.931 . S
Co204 N201 2.135 . S
Co204 N207 2.121 . S
Co204 O212 2.055 . S
Co204 O215 2.039 1_455 S
Co204 N218 2.140 . S
C205 O206 1.227 . S
C205 O215 1.265 . S
O206 C205 1.227 . S
N207 Co204 2.121 . S
N207 C209 1.375 . S
N207 C210 1.313 . S
C208 C209 1.338 . S
C208 N211 1.377 . S
C208 H228 0.930 . S
C209 N207 1.375 . S
C209 C208 1.338 . S
C209 H213 0.931 . S
C210 N207 1.313 . S
C210 N211 1.344 . S
C210 H214 0.930 . S
N211 C208 1.377 . S
N211 C210 1.344 . S
O212 Co204 2.055 . S
O212 C216 1.253 . S
H213 C209 0.931 . S
H214 C210 0.930 . S
O215 Co204 2.039 1_655 S
O215 C205 1.265 . S
C216 O212 1.253 . S
C216 O217 1.227 . S
O217 C216 1.227 . S
N218 Co204 2.140 . S
N218 C221 1.346 . S
N218 C222 1.345 . S
C219 C220 1.387 . S
C219 C223 1.391 . S
C220 C219 1.387 . S
C220 C221 1.369 . S
C220 H229 0.929 . S
C221 N218 1.346 . S
C221 C220 1.369 . S
C221 H224 0.928 . S
C222 N218 1.345 . S
C222 C223 1.371 . S
C222 H225 0.931 . S
C223 C219 1.391 . S
C223 C222 1.371 . S
C223 H230 0.930 . S
H224 C221 0.928 . S
H225 C222 0.931 . S
H226 C202 0.930 . S
H227 C199 0.930 1_455 S
H228 C208 0.930 . S
H229 C220 0.929 . S
H230 C223 0.930 . S
C231 C232 1.351 . S
C231 N234 1.368 . S
C231 H236 0.931 . S
C232 C231 1.351 . S
C232 N233 1.373 . S
C232 H260 0.930 . S
N233 C232 1.373 . S
N233 C235 1.340 . S
N234 C231 1.368 . S
N234 C235 1.321 . S
N234 Co237 2.135 . S
C235 N233 1.340 . S
C235 N234 1.321 . S
C235 H259 0.930 . S
H236 C231 0.931 . S
Co237 N234 2.135 . S
Co237 N240 2.121 . S
Co237 O245 2.055 . S
Co237 O248 2.039 . S
Co237 N251 2.140 . S
C238 O239 1.227 . S
C238 O248 1.265 . S
O239 C238 1.227 . S
N240 Co237 2.121 . S
N240 C242 1.375 . S
N240 C243 1.313 . S
C241 C242 1.338 . S
C241 N244 1.377 . S
C241 H261 0.930 . S
C242 N240 1.375 . S
C242 C241 1.338 . S
C242 H246 0.931 . S
C243 N240 1.313 . S
C243 N244 1.344 . S
C243 H247 0.930 . S
N244 C241 1.377 . S
N244 C243 1.344 . S
O245 Co237 2.055 . S
O245 C249 1.253 . S
H246 C242 0.931 . S
H247 C243 0.930 . S
O248 Co237 2.039 . S
O248 C238 1.265 . S
C249 O245 1.253 . S
C249 O250 1.227 . S
O250 C249 1.227 . S
N251 Co237 2.140 . S
N251 C254 1.346 . S
N251 C255 1.345 . S
C252 C253 1.387 . S
C252 C256 1.391 . S
C253 C252 1.387 . S
C253 C254 1.369 . S
C253 H262 0.929 . S
C254 N251 1.346 . S
C254 C253 1.369 . S
C254 H257 0.928 . S
C255 N251 1.345 . S
C255 C256 1.371 . S
C255 H258 0.931 . S
C256 C252 1.391 . S
C256 C255 1.371 . S
C256 H263 0.930 . S
H257 C254 0.928 . S
H258 C255 0.931 . S
H259 C235 0.930 . S
H260 C232 0.930 . S
H261 C241 0.930 . S
H262 C253 0.929 . S
H263 C256 0.930 . S
N167 N2 1.293 . S
N200 N35 1.293 . S
N68 N233 1.293 . S
N134 N101 1.293 . S
C252 C21 0.806 . S
C54 C153 0.806 . S
C186 C87 0.806 . S
C120 C219 0.806 . S
C249 C18 2.541 . S
C51 C150 2.541 . S
C183 C84 2.541 . S
C216 C117 2.541 . S
N13 C106 2.045 . S
C7 N46 2.045 . S
C40 N79 2.045 . S
C73 N112 2.045 . S
N145 C172 2.045 1_556 S
C205 N178 2.045 . S
C238 N211 2.045 . S
N244 C139 2.045 . S
