# Generated by pormake.
# Topology bsn, (6)-cn, num edge types: 1
# Building blocks:
#     Node 0, Type 0, BuildingBlock: CIFDUS_clean_sbu_1, # of connection points: 6
#     Node 1, Type 0, BuildingBlock: CIFDUS_clean_sbu_1, # of connection points: 6
#     Node 2, Type 0, BuildingBlock: CIFDUS_clean_sbu_1, # of connection points: 6
#     Node 3, Type 0, BuildingBlock: CIFDUS_clean_sbu_1, # of connection points: 6
#     Edge 4, Type (0, 0), BuildingBlock: EYOCIG_clean_linker_4, # of connection points: 2
#     Edge 5, Type (0, 0), BuildingBlock: EYOCIG_clean_linker_4, # of connection points: 2
#     Edge 6, Type (0, 0), BuildingBlock: EYOCIG_clean_linker_4, # of connection points: 2
#     Edge 7, Type (0, 0), BuildingBlock: EYOCIG_clean_linker_4, # of connection points: 2
#     Edge 8, Type (0, 0), BuildingBlock: EYOCIG_clean_linker_4, # of connection points: 2
#     Edge 9, Type (0, 0), BuildingBlock: EYOCIG_clean_linker_4, # of connection points: 2
#     Edge 10, Type (0, 0), BuildingBlock: EYOCIG_clean_linker_4, # of connection points: 2
#     Edge 11, Type (0, 0), BuildingBlock: EYOCIG_clean_linker_4, # of connection points: 2
#     Edge 12, Type (0, 0), BuildingBlock: EYOCIG_clean_linker_4, # of connection points: 2
#     Edge 13, Type (0, 0), BuildingBlock: EYOCIG_clean_linker_4, # of connection points: 2
#     Edge 14, Type (0, 0), BuildingBlock: EYOCIG_clean_linker_4, # of connection points: 2
#     Edge 15, Type (0, 0), BuildingBlock: EYOCIG_clean_linker_4, # of connection points: 2
# Relax obj value: 0.175
# Max RMSD: 0.187
# Mean RMSD: 0.187
data_MOF--net-bsn--node1-CIFDUS_clean_sbu_1--edge1-EYOCIG_clean_linker_4
_symmetry_space_group_name_H-M    P1
_symmetry_Int_Tables_number       1
_symmetry_cell_setting            triclinic
loop_
_symmetry_equiv_pos_as_xyz
'x, y, z'
_cell_length_a     24.305193
_cell_length_b     22.532462
_cell_length_c     12.466745
_cell_angle_alpha  89.978774
_cell_angle_beta   90.816573
_cell_angle_gamma 89.990047
loop_
_atom_site_label
_atom_site_type_symbol
_atom_site_fract_x
_atom_site_fract_y
_atom_site_fract_z
_atom_type_partial_charge
O0 O 0.12762 0.27207 0.33035 0.0
Mn1 Mn 0.04324 0.29272 0.33587 0.0
O2 O 0.16699 0.35298 0.25474 0.0
Mn3 Mn 0.10441 0.39853 0.23098 0.0
O4 O 0.96049 0.32123 0.32915 0.0
O5 O 0.02836 0.20214 0.34578 0.0
Mn6 Mn 0.96259 0.2062 0.40677 0.0
O7 O 0.04482 0.29603 0.50218 0.0
O8 O 0.91053 0.23994 0.31872 0.0
O9 O 0.03969 0.28866 0.16794 0.0
O10 O 0.06603 0.37832 0.10712 0.0
O11 O 0.97176 0.12819 0.38962 0.0
O12 O 0.97294 0.23786 0.54356 0.0
C13 C 0.06031 0.43409 0.3651 0.0
C14 C 0.16931 0.30031 0.29236 0.0
C15 C 0.91562 0.29477 0.30436 0.0
C16 C 1.01868 0.14485 0.35216 0.0
C17 C 1.01181 0.27312 0.57006 0.0
C18 C 0.04559 0.32693 0.09242 0.0
O19 O 0.06028 0.37941 0.33514 0.0
O20 O 0.09033 0.46794 0.30623 0.0
O21 O 0.9601 0.77204 0.62044 0.0
Mn22 Mn 0.04447 0.79273 0.61499 0.0
O23 O 0.92062 0.85295 0.69578 0.0
Mn24 Mn 0.98317 0.89852 0.71965 0.0
O25 O 0.1272 0.8213 0.62177 0.0
O26 O 0.05943 0.70217 0.60515 0.0
Mn27 Mn 0.12523 0.70628 0.54426 0.0
O28 O 0.04293 0.79606 0.44867 0.0
O29 O 0.17722 0.74004 0.63237 0.0
O30 O 0.04798 0.78867 0.78293 0.0
O31 O 1.02149 0.8783 0.84361 0.0
O32 O 0.11612 0.62826 0.56145 0.0
O33 O 0.11489 0.73797 0.40742 0.0
C34 C 0.02735 0.93407 0.58557 0.0
C35 C 0.91836 0.80027 0.65828 0.0
C36 C 0.17208 0.79487 0.64667 0.0
C37 C 0.06916 0.64488 0.59881 0.0
C38 C 0.07598 0.7732 0.38084 0.0
C39 C 0.042 0.82693 0.85839 0.0
O40 O 0.02737 0.8794 0.61563 0.0
O41 O 0.99728 0.96793 0.64431 0.0
O42 O 0.62797 0.77183 0.83105 0.0
Mn43 Mn 0.54358 0.79252 0.83651 0.0
O44 O 0.66744 0.85282 0.75591 0.0
Mn45 Mn 0.60488 0.89836 0.73189 0.0
O46 O 0.46085 0.82109 0.82976 0.0
O47 O 0.52862 0.70196 0.8463 0.0
Mn48 Mn 0.46289 0.70604 0.90751 0.0
O49 O 0.54517 0.79581 0.00284 0.0
O50 O 0.41078 0.73986 0.81968 0.0
O51 O 0.54008 0.78852 0.6686 0.0
O52 O 0.56663 0.87814 0.60788 0.0
O53 O 0.47199 0.62804 0.89021 0.0
O54 O 0.47333 0.73761 0.04434 0.0
C55 C 0.56058 0.93383 0.86588 0.0
C56 C 0.66971 0.80011 0.79333 0.0
C57 C 0.41593 0.79468 0.8052 0.0
C58 C 0.51889 0.64467 0.8526 0.0
C59 C 0.51221 0.77289 0.07078 0.0
C60 C 0.54611 0.82678 0.59311 0.0
O61 O 0.56065 0.87917 0.83584 0.0
O62 O 0.59065 0.96773 0.80721 0.0
O63 O 0.45974 0.27176 0.11973 0.0
Mn64 Mn 0.54412 0.29242 0.11434 0.0
O65 O 0.42025 0.35274 0.19482 0.0
Mn66 Mn 0.4828 0.39825 0.21885 0.0
O67 O 0.62685 0.32096 0.12115 0.0
O68 O 0.55909 0.20186 0.10465 0.0
Mn69 Mn 0.62484 0.20592 0.04353 0.0
O70 O 0.54258 0.29573 0.94801 0.0
O71 O 0.67692 0.23971 0.13141 0.0
O72 O 0.54759 0.28839 0.28227 0.0
O73 O 0.52104 0.37801 0.34291 0.0
O74 O 0.61572 0.12791 0.06091 0.0
O75 O 0.61443 0.2375 0.90665 0.0
C76 C 0.52711 0.43376 0.08488 0.0
C77 C 0.41798 0.30004 0.1574 0.0
C78 C 0.67176 0.29453 0.14581 0.0
C79 C 0.5688 0.14457 0.09841 0.0
C80 C 0.57556 0.27279 0.88013 0.0
C81 C 0.54156 0.32664 0.35772 0.0
O82 O 0.52705 0.37909 0.11493 0.0
O83 O 0.49702 0.46765 0.14354 0.0
C84 C 1.01649 0.49519 0.51965 0.0
C85 C 0.03169 0.45838 0.45575 0.0
C86 C 1.01327 0.54998 0.57565 0.0
C87 C 0.02727 0.59986 0.5996 0.0
C88 C 0.76724 0.7591 0.74749 0.0
C89 C 0.72104 0.76996 0.77639 0.0
C90 C 0.82087 0.75916 0.70415 0.0
C91 C 0.86705 0.7701 0.67524 0.0
C92 C 0.57132 0.49481 0.93068 0.0
C93 C 0.55595 0.458 -0.00555 0.0
C94 C 0.57469 0.54967 0.8749 0.0
C95 C 0.56075 0.59962 0.85126 0.0
C96 C 0.82159 0.34073 0.24166 0.0
C97 C 0.86751 0.32709 0.27033 0.0
C98 C 0.76571 0.34065 0.20853 0.0
C99 C 0.71983 0.32689 0.17986 0.0
C100 C 0.32044 0.25909 0.20313 0.0
C101 C 0.36665 0.26992 0.17427 0.0
C102 C 0.2668 0.25918 0.24646 0.0
C103 C 0.22063 0.27015 0.27538 0.0
C104 C 0.32194 0.84081 0.74254 0.0
C105 C 0.36784 0.82705 0.77117 0.0
C106 C 0.26607 0.84087 0.70942 0.0
C107 C 0.22016 0.82721 0.68072 0.0
C108 C 0.51636 0.99481 0.02011 0.0
C109 C 0.53174 0.95804 0.95632 0.0
C110 C 0.51297 0.04963 0.07594 0.0
C111 C 0.52692 0.09956 0.09964 0.0
C112 C 0.07133 0.99514 0.43111 0.0
C113 C 0.05607 0.95835 0.495 0.0
C114 C 0.0746 0.04995 0.37512 0.0
C115 C 0.0606 0.09985 0.35122 0.0
C116 C 0.02622 0.30195 0.88922 0.0
C117 C 0.03392 0.31004 -0.01628 0.0
C118 C 1.02197 0.29425 0.77719 0.0
C119 C 1.01904 0.28603 0.68184 0.0
C120 C 0.06146 0.802 0.06163 0.0
C121 C 0.05372 0.81007 0.96712 0.0
C122 C 0.06577 0.7943 0.17368 0.0
C123 C 0.06873 0.78608 0.26904 0.0
C124 C 0.52246 0.79407 0.27787 0.0
C125 C 0.51948 0.78581 0.18254 0.0
C126 C 0.52675 0.80182 0.38989 0.0
C127 C 0.53445 0.80993 0.48439 0.0
C128 C 0.56097 0.30167 0.56096 0.0
C129 C 0.55325 0.30978 0.46646 0.0
C130 C 0.56529 0.29393 0.67299 0.0
C131 C 0.56829 0.28569 0.76834 0.0
loop_
_geom_bond_atom_site_label_1
_geom_bond_atom_site_label_2
_geom_bond_distance
_geom_bond_site_symmetry_2
_ccdc_geom_bond_type
O0 Mn1 2.163 . S
O0 C14 1.244 . S
Mn1 O0 2.163 . S
Mn1 O4 2.160 1_455 S
Mn1 O5 2.220 1_455 S
Mn1 O7 2.163 . S
Mn1 O9 2.160 . S
Mn1 O19 2.221 . S
O2 Mn3 2.087 . S
O2 C14 1.256 . S
Mn3 O2 2.087 . S
Mn3 O10 2.089 . S
Mn3 O19 2.290 . S
Mn3 O20 2.251 . S
O4 Mn1 2.160 1_655 S
O4 C15 1.239 . S
O5 Mn1 2.220 1_655 S
O5 Mn6 2.297 . S
O5 C16 1.274 1_655 S
Mn6 O5 2.297 . S
Mn6 O8 2.089 . S
Mn6 O11 2.251 1_655 S
Mn6 O12 2.087 . S
O7 Mn1 2.163 . S
O7 C17 1.244 . S
O8 Mn6 2.089 . S
O8 C15 1.256 . S
O9 Mn1 2.160 . S
O9 C18 1.239 . S
O10 Mn3 2.089 . S
O10 C18 1.256 . S
O11 Mn6 2.251 1_455 S
O11 C16 1.241 . S
O12 Mn6 2.087 . S
O12 C17 1.256 1_655 S
C13 O19 1.278 . S
C13 O20 1.241 . S
C14 O0 1.244 . S
C14 O2 1.256 . S
C15 O4 1.239 . S
C15 O8 1.256 . S
C16 O5 1.274 1_455 S
C16 O11 1.241 . S
C17 O7 1.244 . S
C17 O12 1.256 1_455 S
C18 O9 1.239 . S
C18 O10 1.256 . S
O19 Mn1 2.221 . S
O19 Mn3 2.290 . S
O19 C13 1.278 . S
O20 Mn3 2.251 . S
O20 C13 1.241 . S
O21 Mn22 2.163 1_655 S
O21 C35 1.244 . S
Mn22 O21 2.163 1_455 S
Mn22 O25 2.160 . S
Mn22 O26 2.221 . S
Mn22 O28 2.163 . S
Mn22 O30 2.160 . S
Mn22 O40 2.221 . S
O23 Mn24 2.087 . S
O23 C35 1.256 . S
Mn24 O23 2.087 . S
Mn24 O31 2.089 . S
Mn24 O40 2.290 1_655 S
Mn24 O41 2.251 . S
O25 Mn22 2.160 . S
O25 C36 1.239 . S
O26 Mn22 2.221 . S
O26 Mn27 2.290 . S
O26 C37 1.278 . S
Mn27 O26 2.290 . S
Mn27 O29 2.089 . S
Mn27 O32 2.251 . S
Mn27 O33 2.087 . S
O28 Mn22 2.163 . S
O28 C38 1.244 . S
O29 Mn27 2.089 . S
O29 C36 1.256 . S
O30 Mn22 2.160 . S
O30 C39 1.239 . S
O31 Mn24 2.089 . S
O31 C39 1.256 1_655 S
O32 Mn27 2.251 . S
O32 C37 1.241 . S
O33 Mn27 2.087 . S
O33 C38 1.256 . S
C34 O40 1.278 . S
C34 O41 1.241 1_455 S
C35 O21 1.244 . S
C35 O23 1.256 . S
C36 O25 1.239 . S
C36 O29 1.256 . S
C37 O26 1.278 . S
C37 O32 1.241 . S
C38 O28 1.244 . S
C38 O33 1.256 . S
C39 O30 1.239 . S
C39 O31 1.256 1_455 S
O40 Mn22 2.221 . S
O40 Mn24 2.290 1_455 S
O40 C34 1.278 . S
O41 Mn24 2.251 . S
O41 C34 1.241 1_655 S
O42 Mn43 2.163 . S
O42 C56 1.244 . S
Mn43 O42 2.163 . S
Mn43 O46 2.160 . S
Mn43 O47 2.221 . S
Mn43 O49 2.163 1_556 S
Mn43 O51 2.160 . S
Mn43 O61 2.221 . S
O44 Mn45 2.087 . S
O44 C56 1.256 . S
Mn45 O44 2.087 . S
Mn45 O52 2.089 . S
Mn45 O61 2.290 . S
Mn45 O62 2.251 . S
O46 Mn43 2.160 . S
O46 C57 1.239 . S
O47 Mn43 2.221 . S
O47 Mn48 2.290 1_556 S
O47 C58 1.278 . S
Mn48 O47 2.290 1_554 S
Mn48 O50 2.089 1_554 S
Mn48 O53 2.251 1_554 S
Mn48 O54 2.087 . S
O49 Mn43 2.163 1_554 S
O49 C59 1.244 . S
O50 Mn48 2.089 1_556 S
O50 C57 1.256 . S
O51 Mn43 2.160 . S
O51 C60 1.239 . S
O52 Mn45 2.089 . S
O52 C60 1.256 . S
O53 Mn48 2.251 1_556 S
O53 C58 1.241 . S
O54 Mn48 2.087 . S
O54 C59 1.256 . S
C55 O61 1.278 . S
C55 O62 1.241 . S
C56 O42 1.244 . S
C56 O44 1.256 . S
C57 O46 1.239 . S
C57 O50 1.256 . S
C58 O47 1.278 . S
C58 O53 1.241 . S
C59 O49 1.244 . S
C59 O54 1.256 . S
C60 O51 1.239 . S
C60 O52 1.256 . S
O61 Mn43 2.221 . S
O61 Mn45 2.290 . S
O61 C55 1.278 . S
O62 Mn45 2.251 . S
O62 C55 1.241 . S
O63 Mn64 2.163 . S
O63 C77 1.244 . S
Mn64 O63 2.163 . S
Mn64 O67 2.160 . S
Mn64 O68 2.221 . S
Mn64 O70 2.163 1_554 S
Mn64 O72 2.160 . S
Mn64 O82 2.221 . S
O65 Mn66 2.087 . S
O65 C77 1.256 . S
Mn66 O65 2.087 . S
Mn66 O73 2.089 . S
Mn66 O82 2.290 . S
Mn66 O83 2.251 . S
O67 Mn64 2.160 . S
O67 C78 1.239 . S
O68 Mn64 2.221 . S
O68 Mn69 2.290 1_554 S
O68 C79 1.278 . S
Mn69 O68 2.290 1_556 S
Mn69 O71 2.089 1_556 S
Mn69 O74 2.251 1_556 S
Mn69 O75 2.087 . S
O70 Mn64 2.163 1_556 S
O70 C80 1.244 . S
O71 Mn69 2.089 1_554 S
O71 C78 1.256 . S
O72 Mn64 2.160 . S
O72 C81 1.239 . S
O73 Mn66 2.089 . S
O73 C81 1.256 . S
O74 Mn69 2.251 1_554 S
O74 C79 1.241 . S
O75 Mn69 2.087 . S
O75 C80 1.256 . S
C76 O82 1.278 . S
C76 O83 1.241 . S
C77 O63 1.244 . S
C77 O65 1.256 . S
C78 O67 1.239 . S
C78 O71 1.256 . S
C79 O68 1.278 . S
C79 O74 1.241 . S
C80 O70 1.244 . S
C80 O75 1.256 . S
C81 O72 1.239 . S
C81 O73 1.256 . S
O82 Mn64 2.221 . S
O82 Mn66 2.290 . S
O82 C76 1.278 . S
O83 Mn66 2.251 . S
O83 C76 1.241 . S
C84 C85 1.170 . S
C84 C86 1.380 . S
C85 C84 1.170 . S
C86 C84 1.380 . S
C86 C87 1.170 . S
C87 C86 1.170 . S
C88 C89 1.170 . S
C88 C90 1.380 . S
C89 C88 1.170 . S
C90 C88 1.380 . S
C90 C91 1.170 . S
C91 C90 1.170 . S
C92 C93 1.170 1_556 S
C92 C94 1.380 . S
C93 C92 1.170 1_554 S
C94 C92 1.380 . S
C94 C95 1.170 . S
C95 C94 1.170 . S
C96 C97 1.170 . S
C96 C98 1.380 . S
C97 C96 1.170 . S
C98 C96 1.380 . S
C98 C99 1.170 . S
C99 C98 1.170 . S
C100 C101 1.170 . S
C100 C102 1.380 . S
C101 C100 1.170 . S
C102 C100 1.380 . S
C102 C103 1.170 . S
C103 C102 1.170 . S
C104 C105 1.170 . S
C104 C106 1.380 . S
C105 C104 1.170 . S
C106 C104 1.380 . S
C106 C107 1.170 . S
C107 C106 1.170 . S
C108 C109 1.170 1_554 S
C108 C110 1.380 1_565 S
C109 C108 1.170 1_556 S
C110 C108 1.380 1_545 S
C110 C111 1.170 . S
C111 C110 1.170 . S
C112 C113 1.170 . S
C112 C114 1.380 1_565 S
C113 C112 1.170 . S
C114 C112 1.380 1_545 S
C114 C115 1.170 . S
C115 C114 1.170 . S
C116 C117 1.170 1_556 S
C116 C118 1.380 . S
C117 C116 1.170 1_554 S
C118 C116 1.380 . S
C118 C119 1.170 . S
C119 C118 1.170 . S
C120 C121 1.170 1_554 S
C120 C122 1.380 . S
C121 C120 1.170 1_556 S
C122 C120 1.380 . S
C122 C123 1.170 . S
C123 C122 1.170 . S
C124 C125 1.170 . S
C124 C126 1.380 . S
C125 C124 1.170 . S
C126 C124 1.380 . S
C126 C127 1.170 . S
C127 C126 1.170 . S
C128 C129 1.170 . S
C128 C130 1.380 . S
C129 C128 1.170 . S
C130 C128 1.380 . S
C130 C131 1.170 . S
C131 C130 1.170 . S
C85 C13 1.688 . S
C87 C37 1.251 . S
C89 C56 1.931 . S
C91 C35 1.900 . S
C93 C76 1.721 . S
C95 C58 1.337 . S
C97 C15 1.450 . S
C99 C78 1.425 . S
C101 C77 1.931 . S
C103 C14 1.899 . S
C105 C57 1.456 . S
C107 C36 1.440 . S
C109 C55 1.701 . S
C111 C79 1.324 . S
C113 C34 1.682 . S
C115 C16 1.265 . S
C117 C18 1.061 . S
C119 C17 1.047 . S
C121 C39 1.032 . S
C123 C38 1.057 . S
C125 C59 1.078 . S
C127 C60 1.026 . S
C129 C81 1.066 . S
C131 C80 1.041 . S
