# Generated by pormake.
# Topology uoq, (4)-cn, num edge types: 1
# Building blocks:
#     Node 0, Type 0, BuildingBlock: QUQFOY_clean_sbu_1, # of connection points: 4
#     Node 1, Type 0, BuildingBlock: QUQFOY_clean_sbu_1, # of connection points: 4
#     Node 2, Type 0, BuildingBlock: QUQFOY_clean_sbu_1, # of connection points: 4
#     Node 3, Type 0, BuildingBlock: QUQFOY_clean_sbu_1, # of connection points: 4
#     Node 4, Type 0, BuildingBlock: QUQFOY_clean_sbu_1, # of connection points: 4
#     Node 5, Type 0, BuildingBlock: QUQFOY_clean_sbu_1, # of connection points: 4
#     Node 6, Type 0, BuildingBlock: QUQFOY_clean_sbu_1, # of connection points: 4
#     Node 7, Type 0, BuildingBlock: QUQFOY_clean_sbu_1, # of connection points: 4
#     Node 8, Type 0, BuildingBlock: QUQFOY_clean_sbu_1, # of connection points: 4
#     Node 9, Type 0, BuildingBlock: QUQFOY_clean_sbu_1, # of connection points: 4
#     Node 10, Type 0, BuildingBlock: QUQFOY_clean_sbu_1, # of connection points: 4
#     Node 11, Type 0, BuildingBlock: QUQFOY_clean_sbu_1, # of connection points: 4
#     Edge 12, Type (0, 0), None
#     Edge 13, Type (0, 0), None
#     Edge 14, Type (0, 0), None
#     Edge 15, Type (0, 0), None
#     Edge 16, Type (0, 0), None
#     Edge 17, Type (0, 0), None
#     Edge 18, Type (0, 0), None
#     Edge 19, Type (0, 0), None
#     Edge 20, Type (0, 0), None
#     Edge 21, Type (0, 0), None
#     Edge 22, Type (0, 0), None
#     Edge 23, Type (0, 0), None
#     Edge 24, Type (0, 0), None
#     Edge 25, Type (0, 0), None
#     Edge 26, Type (0, 0), None
#     Edge 27, Type (0, 0), None
#     Edge 28, Type (0, 0), None
#     Edge 29, Type (0, 0), None
#     Edge 30, Type (0, 0), None
#     Edge 31, Type (0, 0), None
#     Edge 32, Type (0, 0), None
#     Edge 33, Type (0, 0), None
#     Edge 34, Type (0, 0), None
#     Edge 35, Type (0, 0), None
# Relax obj value: 0.129
# Max RMSD: 0.197
# Mean RMSD: 0.197
data_MOF--net-uoq--node1-QUQFOY_clean_sbu_1--edge1-none
_symmetry_space_group_name_H-M    P1
_symmetry_Int_Tables_number       1
_symmetry_cell_setting            triclinic
loop_
_symmetry_equiv_pos_as_xyz
'x, y, z'
_cell_length_a     30.200159
_cell_length_b     30.201912
_cell_length_c     11.413335
_cell_angle_alpha  90.003764
_cell_angle_beta   89.992481
_cell_angle_gamma 119.99798
loop_
_atom_site_label
_atom_site_type_symbol
_atom_site_fract_x
_atom_site_fract_y
_atom_site_fract_z
_atom_type_partial_charge
O0 O 0.25731 0.47935 0.34521 0.0
Cd1 Cd 0.30268 0.48939 0.20135 0.0
Cd2 Cd 0.33634 0.44605 0.37239 0.0
O3 O 0.26895 0.42542 0.45398 0.0
O4 O 0.28124 0.52724 0.09274 0.0
O5 O 0.26434 0.44838 0.05791 0.0
C6 C 0.25995 0.48718 0.02779 0.0
C7 C 0.36441 0.39 0.32398 0.0
C8 C 0.24521 0.4491 0.43178 0.0
C9 C 0.40777 0.55132 0.3036 0.0
O10 O 0.3924 0.52113 0.39042 0.0
O11 O 0.38111 0.54057 0.2106 0.0
O12 O 0.36464 0.40335 0.43148 0.0
O13 O 0.34551 0.40635 0.24454 0.0
O14 O 0.78091 0.25584 0.67855 0.0
Cd15 Cd 0.81625 0.30121 0.53468 0.0
Cd16 Cd 0.89325 0.33487 0.70573 0.0
O17 O 0.84651 0.26749 0.7873 0.0
O18 O 0.75695 0.27977 0.42608 0.0
O19 O 0.81892 0.26286 0.39123 0.0
C20 C 0.77574 0.25848 0.36112 0.0
C21 C 0.97737 0.36295 0.65731 0.0
C22 C 0.79908 0.24374 0.7651 0.0
C23 C 0.85939 0.40629 0.63694 0.0
O24 O 0.87421 0.39092 0.72378 0.0
O25 O 0.8435 0.37964 0.54394 0.0
O26 O 0.96425 0.36319 0.76482 0.0
O27 O 0.94213 0.34406 0.57787 0.0
O28 O 0.52806 0.77948 0.01186 0.0
Cd29 Cd 0.51801 0.81481 0.86803 0.0
Cd30 Cd 0.56134 0.89181 0.0391 0.0
O31 O 0.58198 0.84507 0.12067 0.0
O32 O 0.48016 0.75552 0.75942 0.0
O33 O 0.55902 0.81748 0.72456 0.0
C34 C 0.52023 0.7743 0.69445 0.0
C35 C 0.61738 0.97592 0.99066 0.0
C36 C 0.55831 0.79765 0.09844 0.0
C37 C 0.45606 0.85795 0.97031 0.0
O38 O 0.48625 0.87278 0.05713 0.0
O39 O 0.46682 0.84205 0.87731 0.0
O40 O 0.60403 0.96281 0.09817 0.0
O41 O 0.60104 0.94067 0.91122 0.0
O42 O 0.75155 0.52662 0.34519 0.0
Cd43 Cd 0.70616 0.51657 0.20138 0.0
Cd44 Cd 0.67248 0.55988 0.37248 0.0
O45 O 0.73985 0.58051 0.45407 0.0
O46 O 0.72761 0.47872 0.09276 0.0
O47 O 0.74449 0.55757 0.05791 0.0
C48 C 0.74888 0.51878 0.02779 0.0
C49 C 0.64442 0.61593 0.324 0.0
C50 C 0.76362 0.55686 0.4318 0.0
C51 C 0.60106 0.45461 0.30368 0.0
O52 O 0.61642 0.4848 0.3905 0.0
O53 O 0.62773 0.46536 0.21068 0.0
O54 O 0.64417 0.60258 0.43152 0.0
O55 O 0.66332 0.59957 0.24458 0.0
O56 O 0.22788 0.75009 0.67857 0.0
Cd57 Cd 0.19255 0.70471 0.53474 0.0
Cd58 Cd 0.11555 0.67105 0.70581 0.0
O59 O 0.1623 0.73844 0.78738 0.0
O60 O 0.25184 0.72615 0.4261 0.0
O61 O 0.18988 0.74305 0.39129 0.0
C62 C 0.23306 0.74743 0.36115 0.0
C63 C 0.03145 0.64298 0.65733 0.0
C64 C 0.20972 0.76218 0.76515 0.0
C65 C 0.14941 0.59963 0.63702 0.0
O66 O 0.13459 0.615 0.72386 0.0
O67 O 0.1653 0.62628 0.54401 0.0
O68 O 0.04454 0.64274 0.76485 0.0
O69 O 0.0667 0.66188 0.57791 0.0
O70 O 0.48079 0.22644 0.0119 0.0
Cd71 Cd 0.49082 0.1911 0.86804 0.0
Cd72 Cd 0.44747 0.11411 0.03909 0.0
O73 O 0.42683 0.16086 0.12066 0.0
O74 O 0.52868 0.25039 0.75941 0.0
O75 O 0.44981 0.18844 0.72461 0.0
C76 C 0.48861 0.23161 0.69447 0.0
C77 C 0.39143 0.03 0.99065 0.0
C78 C 0.45052 0.20828 0.09847 0.0
C79 C 0.55275 0.14795 0.9703 0.0
O80 O 0.52255 0.13313 0.05713 0.0
O81 O 0.542 0.16385 0.8773 0.0
O82 O 0.40477 0.04311 0.09816 0.0
O83 O 0.40778 0.06525 0.91121 0.0
O84 O 0.52806 0.75009 0.27017 0.0
Cd85 Cd 0.51802 0.7047 0.41398 0.0
Cd86 Cd 0.56135 0.67106 0.24286 0.0
O87 O 0.58199 0.73845 0.16132 0.0
O88 O 0.48016 0.72613 0.52264 0.0
O89 O 0.55903 0.74303 0.55744 0.0
C90 C 0.52023 0.74741 0.58759 0.0
C91 C 0.61738 0.64298 0.29133 0.0
C92 C 0.55833 0.7622 0.1836 0.0
C93 C 0.45608 0.59963 0.31166 0.0
O94 O 0.48626 0.61501 0.22482 0.0
O95 O 0.46684 0.62627 0.40468 0.0
O96 O 0.60406 0.64275 0.18381 0.0
O97 O 0.60102 0.66188 0.37076 0.0
O98 O 0.78093 0.52663 0.60354 0.0
Cd99 Cd 0.81628 0.51657 0.74733 0.0
Cd100 Cd 0.89326 0.55988 0.57617 0.0
O101 O 0.8465 0.58051 0.49461 0.0
O102 O 0.75698 0.47872 0.85596 0.0
O103 O 0.81895 0.55757 0.89081 0.0
C104 C 0.77577 0.51878 0.92093 0.0
C105 C 0.97736 0.61592 0.62465 0.0
C106 C 0.79909 0.55687 0.51694 0.0
C107 C 0.8594 0.45461 0.645 0.0
O108 O 0.87423 0.48479 0.55817 0.0
O109 O 0.8435 0.46537 0.738 0.0
O110 O 0.96427 0.60258 0.51713 0.0
O111 O 0.9421 0.59957 0.70407 0.0
O112 O 0.25726 0.77948 0.93689 0.0
Cd113 Cd 0.30266 0.81482 0.0807 0.0
Cd114 Cd 0.33632 0.89181 0.90957 0.0
O115 O 0.26893 0.84505 0.82802 0.0
O116 O 0.28122 0.75553 0.18932 0.0
O117 O 0.26433 0.8175 0.22418 0.0
C118 C 0.25995 0.77432 0.2543 0.0
C119 C 0.36439 0.97591 0.958 0.0
C120 C 0.24517 0.79764 0.85031 0.0
C121 C 0.40775 0.85795 0.97837 0.0
O122 O 0.39238 0.87277 0.89154 0.0
O123 O 0.38109 0.84206 0.07138 0.0
O124 O 0.36463 0.96281 0.85049 0.0
O125 O 0.34549 0.94067 0.03744 0.0
O126 O 0.48078 0.25583 0.27019 0.0
Cd127 Cd 0.49082 0.30122 0.41403 0.0
Cd128 Cd 0.44749 0.33487 0.24293 0.0
O129 O 0.42684 0.26748 0.16139 0.0
O130 O 0.52867 0.27978 0.52265 0.0
O131 O 0.44981 0.26288 0.5575 0.0
C132 C 0.48861 0.2585 0.58762 0.0
C133 C 0.39145 0.36295 0.29135 0.0
C134 C 0.45051 0.24373 0.18364 0.0
C135 C 0.55276 0.40629 0.31173 0.0
O136 O 0.52258 0.39092 0.22489 0.0
O137 O 0.54199 0.37965 0.40475 0.0
O138 O 0.4048 0.36318 0.18384 0.0
O139 O 0.40779 0.34406 0.37079 0.0
O140 O 0.22791 0.47935 0.60352 0.0
Cd141 Cd 0.19256 0.48938 0.74736 0.0
Cd142 Cd 0.11557 0.44605 0.57626 0.0
O143 O 0.16233 0.42542 0.4947 0.0
O144 O 0.25184 0.52724 0.85599 0.0
O145 O 0.18989 0.44838 0.89082 0.0
C146 C 0.23306 0.48718 0.92094 0.0
C147 C 0.03146 0.39001 0.62468 0.0
C148 C 0.20975 0.44909 0.51696 0.0
C149 C 0.14941 0.55132 0.64508 0.0
O150 O 0.1346 0.52114 0.55825 0.0
O151 O 0.1653 0.54057 0.73808 0.0
O152 O 0.04457 0.40336 0.51717 0.0
O153 O 0.0667 0.40636 0.70412 0.0
O154 O 0.75152 0.22644 0.93684 0.0
Cd155 Cd 0.70614 0.19109 0.08068 0.0
Cd156 Cd 0.6725 0.11411 0.90957 0.0
O157 O 0.7399 0.16087 0.82802 0.0
O158 O 0.72756 0.25037 0.18932 0.0
O159 O 0.74448 0.18842 0.22412 0.0
C160 C 0.74885 0.23159 0.25427 0.0
C161 C 0.64443 0.03001 0.95801 0.0
C162 C 0.76364 0.20829 0.85028 0.0
C163 C 0.60106 0.14795 0.97837 0.0
O164 O 0.61644 0.13314 0.89154 0.0
O165 O 0.6277 0.16384 0.07139 0.0
O166 O 0.6442 0.04311 0.8505 0.0
O167 O 0.66332 0.06525 0.03745 0.0
loop_
_geom_bond_atom_site_label_1
_geom_bond_atom_site_label_2
_geom_bond_distance
_geom_bond_site_symmetry_2
_ccdc_geom_bond_type
O0 Cd1 2.223 . S
O0 C8 1.315 . S
Cd1 O0 2.223 . S
Cd1 O4 2.297 . S
Cd1 O5 2.439 . S
Cd1 O11 2.240 . S
Cd2 O3 2.240 . S
Cd2 O10 2.223 . S
Cd2 O12 2.297 . S
Cd2 O13 2.439 . S
O3 Cd2 2.240 . S
O3 C8 1.279 . S
O4 Cd1 2.297 . S
O4 C6 1.247 . S
O5 Cd1 2.439 . S
O5 C6 1.208 . S
C6 O4 1.247 . S
C6 O5 1.208 . S
C7 O12 1.247 . S
C7 O13 1.208 . S
C8 O0 1.315 . S
C8 O3 1.279 . S
C9 O10 1.315 . S
C9 O11 1.279 . S
O10 Cd2 2.223 . S
O10 C9 1.315 . S
O11 Cd1 2.240 . S
O11 C9 1.279 . S
O12 Cd2 2.297 . S
O12 C7 1.247 . S
O13 Cd2 2.439 . S
O13 C7 1.208 . S
O14 Cd15 2.223 . S
O14 C22 1.315 . S
Cd15 O14 2.223 . S
Cd15 O18 2.297 . S
Cd15 O19 2.439 . S
Cd15 O25 2.240 . S
Cd16 O17 2.240 . S
Cd16 O24 2.223 . S
Cd16 O26 2.297 . S
Cd16 O27 2.439 . S
O17 Cd16 2.240 . S
O17 C22 1.279 . S
O18 Cd15 2.297 . S
O18 C20 1.247 . S
O19 Cd15 2.439 . S
O19 C20 1.208 . S
C20 O18 1.247 . S
C20 O19 1.208 . S
C21 O26 1.247 . S
C21 O27 1.208 . S
C22 O14 1.315 . S
C22 O17 1.279 . S
C23 O24 1.315 . S
C23 O25 1.279 . S
O24 Cd16 2.223 . S
O24 C23 1.315 . S
O25 Cd15 2.240 . S
O25 C23 1.279 . S
O26 Cd16 2.297 . S
O26 C21 1.247 . S
O27 Cd16 2.439 . S
O27 C21 1.208 . S
O28 Cd29 2.223 1_554 S
O28 C36 1.315 . S
Cd29 O28 2.223 1_556 S
Cd29 O32 2.297 . S
Cd29 O33 2.439 . S
Cd29 O39 2.240 . S
Cd30 O31 2.240 . S
Cd30 O38 2.223 . S
Cd30 O40 2.297 . S
Cd30 O41 2.439 1_554 S
O31 Cd30 2.240 . S
O31 C36 1.279 . S
O32 Cd29 2.297 . S
O32 C34 1.247 . S
O33 Cd29 2.439 . S
O33 C34 1.208 . S
C34 O32 1.247 . S
C34 O33 1.208 . S
C35 O40 1.247 1_556 S
C35 O41 1.208 . S
C36 O28 1.315 . S
C36 O31 1.279 . S
C37 O38 1.315 . S
C37 O39 1.279 1_554 S
O38 Cd30 2.223 . S
O38 C37 1.315 . S
O39 Cd29 2.240 . S
O39 C37 1.279 1_556 S
O40 Cd30 2.297 . S
O40 C35 1.247 1_554 S
O41 Cd30 2.439 1_556 S
O41 C35 1.208 . S
O42 Cd43 2.223 . S
O42 C50 1.315 . S
Cd43 O42 2.223 . S
Cd43 O46 2.297 . S
Cd43 O47 2.439 . S
Cd43 O53 2.240 . S
Cd44 O45 2.240 . S
Cd44 O52 2.223 . S
Cd44 O54 2.297 . S
Cd44 O55 2.439 . S
O45 Cd44 2.240 . S
O45 C50 1.279 . S
O46 Cd43 2.297 . S
O46 C48 1.247 . S
O47 Cd43 2.439 . S
O47 C48 1.208 . S
C48 O46 1.247 . S
C48 O47 1.208 . S
C49 O54 1.247 . S
C49 O55 1.208 . S
C50 O42 1.315 . S
C50 O45 1.279 . S
C51 O52 1.315 . S
C51 O53 1.279 . S
O52 Cd44 2.223 . S
O52 C51 1.315 . S
O53 Cd43 2.240 . S
O53 C51 1.279 . S
O54 Cd44 2.297 . S
O54 C49 1.247 . S
O55 Cd44 2.439 . S
O55 C49 1.208 . S
O56 Cd57 2.223 . S
O56 C64 1.315 . S
Cd57 O56 2.223 . S
Cd57 O60 2.297 . S
Cd57 O61 2.439 . S
Cd57 O67 2.240 . S
Cd58 O59 2.240 . S
Cd58 O66 2.223 . S
Cd58 O68 2.297 . S
Cd58 O69 2.439 . S
O59 Cd58 2.240 . S
O59 C64 1.279 . S
O60 Cd57 2.297 . S
O60 C62 1.247 . S
O61 Cd57 2.439 . S
O61 C62 1.208 . S
C62 O60 1.247 . S
C62 O61 1.208 . S
C63 O68 1.247 . S
C63 O69 1.208 . S
C64 O56 1.315 . S
C64 O59 1.279 . S
C65 O66 1.315 . S
C65 O67 1.279 . S
O66 Cd58 2.223 . S
O66 C65 1.315 . S
O67 Cd57 2.240 . S
O67 C65 1.279 . S
O68 Cd58 2.297 . S
O68 C63 1.247 . S
O69 Cd58 2.439 . S
O69 C63 1.208 . S
O70 Cd71 2.223 1_554 S
O70 C78 1.315 . S
Cd71 O70 2.223 1_556 S
Cd71 O74 2.297 . S
Cd71 O75 2.439 . S
Cd71 O81 2.240 . S
Cd72 O73 2.240 . S
Cd72 O80 2.223 . S
Cd72 O82 2.297 . S
Cd72 O83 2.439 1_554 S
O73 Cd72 2.240 . S
O73 C78 1.279 . S
O74 Cd71 2.297 . S
O74 C76 1.247 . S
O75 Cd71 2.439 . S
O75 C76 1.208 . S
C76 O74 1.247 . S
C76 O75 1.208 . S
C77 O82 1.247 1_556 S
C77 O83 1.208 . S
C78 O70 1.315 . S
C78 O73 1.279 . S
C79 O80 1.315 . S
C79 O81 1.279 1_554 S
O80 Cd72 2.223 . S
O80 C79 1.315 . S
O81 Cd71 2.240 . S
O81 C79 1.279 1_556 S
O82 Cd72 2.297 . S
O82 C77 1.247 1_554 S
O83 Cd72 2.439 1_556 S
O83 C77 1.208 . S
O84 Cd85 2.223 . S
O84 C92 1.315 . S
Cd85 O84 2.223 . S
Cd85 O88 2.297 . S
Cd85 O89 2.439 . S
Cd85 O95 2.240 . S
Cd86 O87 2.240 . S
Cd86 O94 2.223 . S
Cd86 O96 2.297 . S
Cd86 O97 2.439 . S
O87 Cd86 2.240 . S
O87 C92 1.279 . S
O88 Cd85 2.297 . S
O88 C90 1.247 . S
O89 Cd85 2.439 . S
O89 C90 1.208 . S
C90 O88 1.247 . S
C90 O89 1.208 . S
C91 O96 1.247 . S
C91 O97 1.208 . S
C92 O84 1.315 . S
C92 O87 1.279 . S
C93 O94 1.315 . S
C93 O95 1.279 . S
O94 Cd86 2.223 . S
O94 C93 1.315 . S
O95 Cd85 2.240 . S
O95 C93 1.279 . S
O96 Cd86 2.297 . S
O96 C91 1.247 . S
O97 Cd86 2.439 . S
O97 C91 1.208 . S
O98 Cd99 2.223 . S
O98 C106 1.315 . S
Cd99 O98 2.223 . S
Cd99 O102 2.297 . S
Cd99 O103 2.439 . S
Cd99 O109 2.240 . S
Cd100 O101 2.240 . S
Cd100 O108 2.223 . S
Cd100 O110 2.297 . S
Cd100 O111 2.439 . S
O101 Cd100 2.240 . S
O101 C106 1.279 . S
O102 Cd99 2.297 . S
O102 C104 1.247 . S
O103 Cd99 2.439 . S
O103 C104 1.208 . S
C104 O102 1.247 . S
C104 O103 1.208 . S
C105 O110 1.247 . S
C105 O111 1.208 . S
C106 O98 1.315 . S
C106 O101 1.279 . S
C107 O108 1.315 . S
C107 O109 1.279 . S
O108 Cd100 2.223 . S
O108 C107 1.315 . S
O109 Cd99 2.240 . S
O109 C107 1.279 . S
O110 Cd100 2.297 . S
O110 C105 1.247 . S
O111 Cd100 2.439 . S
O111 C105 1.208 . S
O112 Cd113 2.223 1_556 S
O112 C120 1.315 . S
Cd113 O112 2.223 1_554 S
Cd113 O116 2.297 . S
Cd113 O117 2.439 . S
Cd113 O123 2.240 . S
Cd114 O115 2.240 . S
Cd114 O122 2.223 . S
Cd114 O124 2.297 . S
Cd114 O125 2.439 1_556 S
O115 Cd114 2.240 . S
O115 C120 1.279 . S
O116 Cd113 2.297 . S
O116 C118 1.247 . S
O117 Cd113 2.439 . S
O117 C118 1.208 . S
C118 O116 1.247 . S
C118 O117 1.208 . S
C119 O124 1.247 1_554 S
C119 O125 1.208 . S
C120 O112 1.315 . S
C120 O115 1.279 . S
C121 O122 1.315 . S
C121 O123 1.279 1_556 S
O122 Cd114 2.223 . S
O122 C121 1.315 . S
O123 Cd113 2.240 . S
O123 C121 1.279 1_554 S
O124 Cd114 2.297 . S
O124 C119 1.247 1_556 S
O125 Cd114 2.439 1_554 S
O125 C119 1.208 . S
O126 Cd127 2.223 . S
O126 C134 1.315 . S
Cd127 O126 2.223 . S
Cd127 O130 2.297 . S
Cd127 O131 2.439 . S
Cd127 O137 2.240 . S
Cd128 O129 2.240 . S
Cd128 O136 2.223 . S
Cd128 O138 2.297 . S
Cd128 O139 2.439 . S
O129 Cd128 2.240 . S
O129 C134 1.279 . S
O130 Cd127 2.297 . S
O130 C132 1.247 . S
O131 Cd127 2.439 . S
O131 C132 1.208 . S
C132 O130 1.247 . S
C132 O131 1.208 . S
C133 O138 1.247 . S
C133 O139 1.208 . S
C134 O126 1.315 . S
C134 O129 1.279 . S
C135 O136 1.315 . S
C135 O137 1.279 . S
O136 Cd128 2.223 . S
O136 C135 1.315 . S
O137 Cd127 2.240 . S
O137 C135 1.279 . S
O138 Cd128 2.297 . S
O138 C133 1.247 . S
O139 Cd128 2.439 . S
O139 C133 1.208 . S
O140 Cd141 2.223 . S
O140 C148 1.315 . S
Cd141 O140 2.223 . S
Cd141 O144 2.297 . S
Cd141 O145 2.439 . S
Cd141 O151 2.240 . S
Cd142 O143 2.240 . S
Cd142 O150 2.223 . S
Cd142 O152 2.297 . S
Cd142 O153 2.439 . S
O143 Cd142 2.240 . S
O143 C148 1.279 . S
O144 Cd141 2.297 . S
O144 C146 1.247 . S
O145 Cd141 2.439 . S
O145 C146 1.208 . S
C146 O144 1.247 . S
C146 O145 1.208 . S
C147 O152 1.247 . S
C147 O153 1.208 . S
C148 O140 1.315 . S
C148 O143 1.279 . S
C149 O150 1.315 . S
C149 O151 1.279 . S
O150 Cd142 2.223 . S
O150 C149 1.315 . S
O151 Cd141 2.240 . S
O151 C149 1.279 . S
O152 Cd142 2.297 . S
O152 C147 1.247 . S
O153 Cd142 2.439 . S
O153 C147 1.208 . S
O154 Cd155 2.223 1_556 S
O154 C162 1.315 . S
Cd155 O154 2.223 1_554 S
Cd155 O158 2.297 . S
Cd155 O159 2.439 . S
Cd155 O165 2.240 . S
Cd156 O157 2.240 . S
Cd156 O164 2.223 . S
Cd156 O166 2.297 . S
Cd156 O167 2.439 1_556 S
O157 Cd156 2.240 . S
O157 C162 1.279 . S
O158 Cd155 2.297 . S
O158 C160 1.247 . S
O159 Cd155 2.439 . S
O159 C160 1.208 . S
C160 O158 1.247 . S
C160 O159 1.208 . S
C161 O166 1.247 1_554 S
C161 O167 1.208 . S
C162 O154 1.315 . S
C162 O157 1.279 . S
C163 O164 1.315 . S
C163 O165 1.279 1_556 S
O164 Cd156 2.223 . S
O164 C163 1.315 . S
O165 Cd155 2.240 . S
O165 C163 1.279 1_554 S
O166 Cd156 2.297 . S
O166 C161 1.247 1_556 S
O167 Cd156 2.439 1_554 S
O167 C161 1.208 . S
C7 C133 1.352 . S
C21 C147 1.352 1_655 S
C35 C161 1.352 1_566 S
C49 C91 1.352 . S
C105 C63 1.352 1_655 S
C119 C77 1.352 1_564 S
C146 C6 1.412 1_556 S
C20 C160 1.412 . S
C34 C90 1.413 . S
C48 C104 1.413 1_554 S
C62 C118 1.412 . S
C76 C132 1.413 . S
C148 C8 1.829 . S
C22 C162 1.830 . S
C36 C92 1.829 . S
C50 C106 1.829 . S
C64 C120 1.830 . S
C78 C134 1.829 . S
C9 C93 2.432 . S
C107 C23 2.433 . S
C37 C121 2.432 1_554 S
C51 C135 2.432 . S
C65 C149 2.433 . S
C163 C79 2.432 1_556 S
