# Generated by pormake.
# Topology cds, (4)-cn, num edge types: 1
# Building blocks:
#     Node 0, Type 0, BuildingBlock: NAWXER_clean_sbu_0, # of connection points: 4
#     Node 1, Type 0, BuildingBlock: NAWXER_clean_sbu_0, # of connection points: 4
#     Edge 2, Type (0, 0), None
#     Edge 3, Type (0, 0), None
#     Edge 4, Type (0, 0), None
#     Edge 5, Type (0, 0), None
# Relax obj value: 0.000
# Max RMSD: 0.000
# Mean RMSD: 0.000
data_MOF--net-cds--node1-NAWXER_clean_sbu_0--edge1-none
_symmetry_space_group_name_H-M    P1
_symmetry_Int_Tables_number       1
_symmetry_cell_setting            triclinic
loop_
_symmetry_equiv_pos_as_xyz
'x, y, z'
_cell_length_a     6.2155239
_cell_length_b     6.2155076
_cell_length_c     12.586357
_cell_angle_alpha  90.001012
_cell_angle_beta   90.00024
_cell_angle_gamma 94.739685
loop_
_atom_site_label
_atom_site_type_symbol
_atom_site_fract_x
_atom_site_fract_y
_atom_site_fract_z
_atom_type_partial_charge
C0 C 0.51232 0.78202 0.01695 0.0
C1 C 0.72468 0.78116 0.01695 0.0
O2 O 0.3842 0.61171 0.01694 0.0
Zn3 Zn 0.11543 0.76314 0.01695 0.0
O4 O 0.43896 0.96758 0.01695 0.0
Zn5 Zn 0.14791 0.11397 0.01695 0.0
O6 O 0.15853 0.27054 0.1491 0.0
O7 O 0.11828 0.91585 0.1711 0.0
O8 O 0.82957 0.9666 0.01695 0.0
O9 O 0.8235 0.6095 0.01694 0.0
O10 O 0.11828 0.91586 0.86279 0.0
O11 O 0.15853 0.27055 0.88481 0.0
C12 C 0.13618 0.10733 0.20993 0.0
C13 C 0.13619 0.10735 0.82397 0.0
C14 C 0.7832 0.51113 0.51695 0.0
C15 C 0.78234 0.72349 0.51695 0.0
O16 O 0.96876 0.43778 0.51695 0.0
Zn17 Zn 0.11515 0.14672 0.51695 0.0
O18 O 0.61289 0.38301 0.51695 0.0
Zn19 Zn 0.76432 0.11425 0.51695 0.0
O20 O 0.91703 0.11711 0.67111 0.0
O21 O 0.27173 0.15735 0.6491 0.0
O22 O 0.61068 0.82231 0.51696 0.0
O23 O 0.96778 0.82839 0.51695 0.0
O24 O 0.27172 0.15734 0.38481 0.0
O25 O 0.91702 0.11709 0.3628 0.0
C26 C 0.10852 0.13502 0.70993 0.0
C27 C 0.10851 0.135 0.32397 0.0
loop_
_geom_bond_atom_site_label_1
_geom_bond_atom_site_label_2
_geom_bond_distance
_geom_bond_site_symmetry_2
_ccdc_geom_bond_type
C0 O2 1.250 1_554 S
C0 O4 1.255 1_565 S
C1 O8 1.251 1_556 S
C1 O9 1.254 1_545 S
O2 C0 1.250 1_556 S
O2 Zn3 2.028 1_455 S
Zn3 O2 2.028 1_655 S
Zn3 O7 2.035 1_656 S
Zn3 O9 2.035 . S
Zn3 O10 2.028 . S
O4 C0 1.255 1_545 S
O4 Zn5 2.036 . S
Zn5 O4 2.036 . S
Zn5 O6 2.028 . S
Zn5 O8 2.027 1_455 S
Zn5 O11 2.035 1_454 S
O6 Zn5 2.028 . S
O6 C12 1.251 . S
O7 Zn3 2.035 1_454 S
O7 C12 1.254 1_565 S
O8 C1 1.251 1_554 S
O8 Zn5 2.027 1_655 S
O9 C1 1.254 1_565 S
O9 Zn3 2.035 . S
O10 Zn3 2.028 . S
O10 C13 1.250 . S
O11 Zn5 2.035 1_656 S
O11 C13 1.255 1_545 S
C12 O6 1.251 . S
C12 O7 1.254 1_545 S
C13 O10 1.250 . S
C13 O11 1.255 1_565 S
C14 O16 1.251 . S
C14 O18 1.254 1_455 S
C15 O22 1.250 . S
C15 O23 1.255 1_655 S
O16 C14 1.251 . S
O16 Zn17 2.028 . S
Zn17 O16 2.028 . S
Zn17 O21 2.035 . S
Zn17 O23 2.035 1_545 S
Zn17 O24 2.028 1_545 S
O18 C14 1.254 1_655 S
O18 Zn19 2.035 1_545 S
Zn19 O18 2.035 1_565 S
Zn19 O20 2.028 1_565 S
Zn19 O22 2.028 . S
Zn19 O25 2.035 . S
O20 Zn19 2.028 1_545 S
O20 C26 1.250 . S
O21 Zn17 2.035 . S
O21 C26 1.255 1_455 S
O22 C15 1.250 . S
O22 Zn19 2.028 . S
O23 C15 1.255 1_455 S
O23 Zn17 2.035 1_565 S
O24 Zn17 2.028 1_565 S
O24 C27 1.251 . S
O25 Zn19 2.035 . S
O25 C27 1.254 1_655 S
C26 O20 1.250 . S
C26 O21 1.255 1_655 S
C27 O24 1.251 . S
C27 O25 1.254 1_455 S
C12 C27 1.496 1_545 S
C13 C26 1.498 1_565 S
C1 C0 1.500 1_546 S
C15 C14 1.500 1_655 S
