# Generated by pormake.
# Topology unh, (4)-cn, num edge types: 1
# Building blocks:
#     Node 0, Type 0, BuildingBlock: QUQFOY_clean_sbu_3, # of connection points: 4
#     Node 1, Type 0, BuildingBlock: QUQFOY_clean_sbu_3, # of connection points: 4
#     Node 2, Type 0, BuildingBlock: QUQFOY_clean_sbu_3, # of connection points: 4
#     Node 3, Type 0, BuildingBlock: QUQFOY_clean_sbu_3, # of connection points: 4
#     Node 4, Type 0, BuildingBlock: QUQFOY_clean_sbu_3, # of connection points: 4
#     Node 5, Type 0, BuildingBlock: QUQFOY_clean_sbu_3, # of connection points: 4
#     Edge 6, Type (0, 0), BuildingBlock: AJUNOK_clean_linker_0, # of connection points: 2
#     Edge 7, Type (0, 0), BuildingBlock: AJUNOK_clean_linker_0, # of connection points: 2
#     Edge 8, Type (0, 0), BuildingBlock: AJUNOK_clean_linker_0, # of connection points: 2
#     Edge 9, Type (0, 0), BuildingBlock: AJUNOK_clean_linker_0, # of connection points: 2
#     Edge 10, Type (0, 0), BuildingBlock: AJUNOK_clean_linker_0, # of connection points: 2
#     Edge 11, Type (0, 0), BuildingBlock: AJUNOK_clean_linker_0, # of connection points: 2
#     Edge 12, Type (0, 0), BuildingBlock: AJUNOK_clean_linker_0, # of connection points: 2
#     Edge 13, Type (0, 0), BuildingBlock: AJUNOK_clean_linker_0, # of connection points: 2
#     Edge 14, Type (0, 0), BuildingBlock: AJUNOK_clean_linker_0, # of connection points: 2
#     Edge 15, Type (0, 0), BuildingBlock: AJUNOK_clean_linker_0, # of connection points: 2
#     Edge 16, Type (0, 0), BuildingBlock: AJUNOK_clean_linker_0, # of connection points: 2
#     Edge 17, Type (0, 0), BuildingBlock: AJUNOK_clean_linker_0, # of connection points: 2
# Relax obj value: 0.078
# Max RMSD: 0.192
# Mean RMSD: 0.192
data_MOF--net-unh--node1-QUQFOY_clean_sbu_3--edge1-AJUNOK_clean_linker_0
_symmetry_space_group_name_H-M    P1
_symmetry_Int_Tables_number       1
_symmetry_cell_setting            triclinic
loop_
_symmetry_equiv_pos_as_xyz
'x, y, z'
_cell_length_a     33.143267
_cell_length_b     32.976998
_cell_length_c     17.721157
_cell_angle_alpha  89.823378
_cell_angle_beta   90.23782
_cell_angle_gamma 120.44772
loop_
_atom_site_label
_atom_site_type_symbol
_atom_site_fract_x
_atom_site_fract_y
_atom_site_fract_z
_atom_type_partial_charge
C0 C 0.16041 0.5097 0.1019 0.0
O1 O 0.15094 0.48875 0.03865 0.0
Cd2 Cd 0.09717 0.49328 0.94989 0.0
O3 O 0.13869 0.53034 0.12233 0.0
Cd4 Cd 0.07493 0.54308 0.08159 0.0
C5 C 0.14407 0.61362 0.94262 0.0
O6 O 0.02348 0.47199 0.00569 0.0
O7 O 0.01251 0.53124 -0.0009 0.0
O8 O 0.04518 0.5107 0.20363 0.0
C9 C -0.00031 0.48945 -0.02033 0.0
O10 O 0.13365 0.57506 0.91024 0.0
C11 C 0.0358 0.54166 0.22517 0.0
O12 O 0.13101 0.61417 0.01016 0.0
O13 O 0.04606 0.57561 0.18005 0.0
C14 C 0.64918 0.18738 0.25675 0.0
O15 O 0.66036 0.18061 0.19153 0.0
Cd16 Cd 0.60195 0.12656 0.10178 0.0
O17 O 0.60686 0.16413 0.27799 0.0
Cd18 Cd 0.5312 0.10081 0.23172 0.0
C19 C 0.5274 0.17022 0.09655 0.0
O20 O 0.54633 0.04946 0.14719 0.0
O21 O 0.47894 0.04518 0.14384 0.0
O22 O 0.53141 0.06295 0.3465 0.0
C23 C 0.50483 0.02986 0.12054 0.0
O24 O 0.55564 0.16095 0.06289 0.0
C25 C 0.49244 0.0555 0.3715 0.0
O26 O 0.51531 0.15755 0.16492 0.0
O27 O 0.47019 0.06977 0.33112 0.0
C28 C 0.41994 0.64247 0.43446 0.0
O29 O 0.44645 0.65835 0.37728 0.0
Cd30 Cd 0.43937 0.60189 0.28224 0.0
O31 O 0.39721 0.59856 0.44755 0.0
Cd32 Cd 0.38894 0.5242 0.40469 0.0
C33 C 0.31891 0.53042 0.2741 0.0
O34 O 0.4597 0.54611 0.32852 0.0
O35 O 0.39968 0.47579 0.31677 0.0
O36 O 0.42165 0.52762 0.52628 0.0
C37 C 0.44166 0.5053 0.29926 0.0
O38 O 0.35708 0.56089 0.24329 0.0
C39 C 0.39149 0.48657 0.54799 0.0
O40 O 0.31851 0.51188 0.3376 0.0
O41 O 0.35836 0.46141 0.50227 0.0
C42 C 0.74729 0.45484 0.58918 0.0
O43 O 0.75594 0.47244 0.52328 0.0
Cd44 Cd 0.8127 0.47059 0.43939 0.0
O45 O 0.77031 0.4367 0.61573 0.0
Cd46 Cd 0.83508 0.4243 0.57938 0.0
C47 C 0.77049 0.35115 0.43714 0.0
O48 O 0.88517 0.4952 0.50257 0.0
O49 O 0.90035 0.43874 0.50227 0.0
O50 O 0.86417 0.45736 0.70172 0.0
C51 C 0.91118 0.47957 0.48016 0.0
O52 O 0.78021 0.38891 0.40244 0.0
C53 C 0.87373 0.42671 0.72468 0.0
O54 O 0.78226 0.35203 0.50621 0.0
O55 O 0.86358 0.39249 0.6804 0.0
C56 C 0.27203 0.77136 0.75776 0.0
O57 O 0.26056 0.77857 0.69285 0.0
Cd58 Cd 0.31976 0.82452 0.6003 0.0
O59 O 0.3149 0.7918 0.77695 0.0
Cd60 Cd 0.39243 0.85172 0.7285 0.0
C61 C 0.38581 0.77075 0.60678 0.0
O62 O 0.3773 0.90206 0.64211 0.0
O63 O 0.44481 0.90642 0.63808 0.0
O64 O 0.39453 0.89497 0.83672 0.0
C65 C 0.41896 0.92236 0.61671 0.0
O66 O 0.35603 0.77816 0.5736 0.0
C67 C 0.43235 0.90124 0.86548 0.0
O68 O 0.40533 0.79159 0.66835 0.0
O69 O 0.45261 0.88259 0.83111 0.0
C70 C 0.48367 0.29065 0.91851 0.0
O71 O 0.46505 0.28 0.85338 0.0
Cd72 Cd 0.46528 0.33735 0.76697 0.0
O73 O 0.50148 0.33252 0.9427 0.0
Cd74 Cd 0.51146 0.40857 0.90315 0.0
C75 C 0.58379 0.41668 0.76222 0.0
O76 O 0.44009 0.38538 0.82688 0.0
O77 O 0.49624 0.45802 0.82357 0.0
O78 O 0.47796 0.40365 0.02456 0.0
C79 C 0.4552 0.42718 0.80363 0.0
O80 O 0.5461 0.38748 0.72852 0.0
C81 C 0.50756 0.44466 0.04722 0.0
O82 O 0.58335 0.42835 0.83079 0.0
O83 O 0.54156 0.46978 0.00319 0.0
C84 C 0.93162 0.48276 0.90947 0.0
C85 C -0.03795 0.46547 0.9227 0.0
C86 C 0.90092 0.46739 0.84801 0.0
C87 C 0.89927 0.43405 0.79688 0.0
H88 H 0.93277 0.50993 0.94521 0.0
H89 H 0.87974 0.48343 0.83877 0.0
S90 S -0.03227 0.37355 0.81097 0.0
N91 N -0.01439 0.40985 0.88371 0.0
N92 N 0.92766 0.38084 0.76745 0.0
C93 C 0.927 0.41382 0.81231 0.0
C94 C 0.95847 0.42958 0.8754 0.0
C95 C 0.4283 0.95356 0.96136 0.0
C96 C 0.45185 0.93134 0.93342 0.0
C97 C 0.44573 -0.01555 0.02212 0.0
C98 C 0.48775 -0.00508 0.05838 0.0
H99 H 0.39613 0.94778 0.93541 0.0
H100 H 0.42611 0.00086 0.03975 0.0
S101 S 0.56194 0.94411 0.01087 0.0
N102 N 0.5187 0.92033 0.9488 0.0
N103 N 0.5518 -0.02097 0.06414 0.0
C104 C 0.51152 0.9724 0.03246 0.0
C105 C 0.4935 0.94048 0.96985 0.0
C106 C 0.44948 0.44447 0.22975 0.0
C107 C 0.46615 0.49241 0.24298 0.0
C108 C 0.46572 0.4298 0.16915 0.0
C109 C 0.49923 0.4624 0.11878 0.0
H110 H 0.42225 0.41776 0.26491 0.0
H111 H 0.45023 0.39234 0.15994 0.0
S112 S 0.55795 0.59237 0.13312 0.0
N113 N 0.52116 0.57285 0.20487 0.0
N114 N 0.5517 0.54515 0.09 0.0
C115 C 0.51869 0.51064 0.13418 0.0
C116 C 0.50212 0.52568 0.19652 0.0
C117 C -0.01946 0.48843 0.41232 0.0
C118 C 0.94844 0.50388 0.42305 0.0
C119 C 0.01089 0.50363 0.35075 0.0
C120 C 0.01059 0.53497 0.29716 0.0
H121 H -0.01909 0.46272 0.4501 0.0
H122 H 0.03339 0.48895 0.34341 0.0
S123 S 0.93735 0.59049 0.30402 0.0
N124 N 0.92123 0.55588 0.37893 0.0
N125 N -0.02136 0.58458 0.26254 0.0
C126 C -0.01877 0.55359 0.31 0.0
C127 C 0.95008 0.53794 0.37318 0.0
C128 C 0.42465 -0.00135 0.45128 0.0
C129 C 0.47324 0.02817 0.44173 0.0
C130 C 0.40673 0.96587 0.51077 0.0
C131 C 0.43694 0.96171 0.56218 0.0
H132 H 0.40049 -0.00104 0.41025 0.0
H133 H 0.36928 0.94202 0.51403 0.0
S134 S 0.56631 0.03725 0.56982 0.0
N135 N 0.55065 0.05568 0.49464 0.0
N136 N 0.51721 -0.00563 0.60574 0.0
C137 C 0.48529 -0.00643 0.55636 0.0
C138 C 0.50339 0.02676 0.49629 0.0
C139 C 0.40149 0.40689 0.69201 0.0
C140 C 0.42977 0.43931 0.74779 0.0
C141 C 0.38575 0.42144 0.62936 0.0
C142 C 0.3979 0.46877 0.621 0.0
H143 H 0.39417 0.37094 0.69407 0.0
H144 H 0.36679 0.3963 0.58495 0.0
S145 S 0.46263 0.56466 0.75958 0.0
N146 N 0.46294 0.51879 0.79644 0.0
N147 N 0.4335 0.54601 0.67934 0.0
C148 C 0.42246 0.50027 0.67989 0.0
C149 C 0.43838 0.48556 0.7432 0.0
C150 C 0.22172 0.48815 0.12958 0.0
C151 C 0.19802 0.51174 0.15103 0.0
C152 C 0.25973 0.49258 0.17173 0.0
C153 C 0.27486 0.52005 0.23743 0.0
H154 H 0.21172 0.46706 0.07875 0.0
H155 H 0.27812 0.47533 0.15183 0.0
S156 S 0.22571 0.58882 0.31938 0.0
N157 N 0.19311 0.56359 0.24401 0.0
N158 N 0.26412 0.57101 0.32273 0.0
C159 C 0.25112 0.54282 0.26086 0.0
C160 C 0.21273 0.53881 0.21788 0.0
C161 C 0.72129 0.2661 0.27309 0.0
C162 C 0.68416 0.22551 0.30583 0.0
C163 C 0.75021 0.30582 0.31689 0.0
C164 C 0.74384 0.30623 0.39539 0.0
H165 H 0.72657 0.2682 0.21259 0.0
H166 H 0.77706 0.33701 0.28859 0.0
S167 S 0.65511 0.20688 0.50989 0.0
N168 N 0.64484 0.18672 0.4225 0.0
N169 N 0.70002 0.2612 0.50492 0.0
C170 C 0.70882 0.26486 0.42963 0.0
C171 C 0.67874 0.22459 0.38481 0.0
C172 C 0.44114 0.75004 0.54633 0.0
C173 C 0.396 0.7363 0.57253 0.0
C174 C 0.44906 0.71953 0.50167 0.0
C175 C 0.41225 0.6741 0.48359 0.0
H176 H 0.46996 0.78521 0.55753 0.0
H177 H 0.48403 0.73161 0.48081 0.0
S178 S 0.28796 0.62154 0.54062 0.0
N179 N 0.31439 0.67469 0.57809 0.0
N180 N 0.32926 0.61689 0.49668 0.0
C181 C 0.36732 0.65968 0.51173 0.0
C182 C 0.3592 0.69095 0.55555 0.0
C183 C 0.66717 0.43608 0.75539 0.0
C184 C 0.62824 0.4345 0.72062 0.0
C185 C 0.70632 0.44439 0.71281 0.0
C186 C 0.70831 0.45229 0.63424 0.0
H187 H 0.66632 0.42826 0.81499 0.0
H188 H 0.73472 0.44333 0.74144 0.0
S189 S 0.61722 0.45728 0.51861 0.0
N190 N 0.59534 0.44522 0.6047 0.0
N191 N 0.66906 0.4618 0.52502 0.0
C192 C 0.67069 0.45375 0.59991 0.0
C193 C 0.63063 0.44455 0.64305 0.0
C194 C 0.19632 0.69655 0.77698 0.0
C195 C 0.23614 0.73538 0.80836 0.0
C196 C 0.16562 0.65823 0.82182 0.0
C197 C 0.17286 0.65768 0.90003 0.0
H198 H 0.1901 0.69452 0.71667 0.0
H199 H 0.13661 0.62811 0.79461 0.0
S200 S 0.26894 0.75281 0.01128 0.0
N201 N 0.27935 0.77245 0.9235 0.0
N202 N 0.22069 0.70068 0.008 0.0
C203 C 0.21078 0.69747 0.93303 0.0
C204 C 0.24271 0.73622 0.88711 0.0
C205 C 0.49772 0.26349 0.04315 0.0
C206 C 0.48799 0.25552 0.96519 0.0
C207 C 0.50773 0.23406 0.08696 0.0
C208 C 0.50922 0.19622 0.05399 0.0
H209 H 0.49881 0.29343 0.07025 0.0
H210 H 0.51668 0.24243 0.14597 0.0
S211 S 0.48202 0.15714 0.85471 0.0
N212 N 0.47678 0.20427 0.85884 0.0
N213 N 0.49644 0.14976 0.9408 0.0
C214 C 0.49746 0.1865 -0.02281 0.0
C215 C 0.48656 0.21591 0.9329 0.0
loop_
_geom_bond_atom_site_label_1
_geom_bond_atom_site_label_2
_geom_bond_distance
_geom_bond_site_symmetry_2
_ccdc_geom_bond_type
C0 O1 1.306 . S
C0 O3 1.160 . S
O1 C0 1.306 . S
O1 Cd2 2.228 1_554 S
Cd2 O1 2.228 1_556 S
Cd2 O6 2.273 . S
Cd2 O10 2.277 . S
O3 C0 1.160 . S
O3 Cd4 2.203 . S
Cd4 O3 2.203 . S
Cd4 O6 2.411 1_554 S
Cd4 O7 2.337 . S
Cd4 O8 2.352 . S
Cd4 O12 2.277 . S
Cd4 O13 2.356 . S
C5 O10 1.209 1_554 S
C5 O12 1.226 . S
O6 Cd2 2.273 . S
O6 Cd4 2.411 1_556 S
O6 C9 1.320 . S
O7 Cd4 2.337 . S
O7 C9 1.211 1_554 S
O8 Cd4 2.352 . S
O8 C11 1.258 . S
C9 O6 1.320 . S
C9 O7 1.211 1_556 S
O10 Cd2 2.277 . S
O10 C5 1.209 1_556 S
C11 O8 1.258 . S
C11 O13 1.282 . S
O12 Cd4 2.277 . S
O12 C5 1.226 . S
O13 Cd4 2.356 . S
O13 C11 1.282 . S
C14 O15 1.306 . S
C14 O17 1.160 . S
O15 C14 1.306 . S
O15 Cd16 2.228 . S
Cd16 O15 2.228 . S
Cd16 O20 2.273 . S
Cd16 O24 2.277 . S
O17 C14 1.160 . S
O17 Cd18 2.203 . S
Cd18 O17 2.203 . S
Cd18 O20 2.411 . S
Cd18 O21 2.333 . S
Cd18 O22 2.352 . S
Cd18 O26 2.277 . S
Cd18 O27 2.356 . S
C19 O24 1.209 . S
C19 O26 1.226 . S
O20 Cd16 2.273 . S
O20 Cd18 2.411 . S
O20 C23 1.320 . S
O21 Cd18 2.333 . S
O21 C23 1.214 . S
O22 Cd18 2.352 . S
O22 C25 1.258 . S
C23 O20 1.320 . S
C23 O21 1.214 . S
O24 Cd16 2.277 . S
O24 C19 1.209 . S
C25 O22 1.258 . S
C25 O27 1.282 . S
O26 Cd18 2.277 . S
O26 C19 1.226 . S
O27 Cd18 2.356 . S
O27 C25 1.282 . S
C28 O29 1.306 . S
C28 O31 1.160 . S
O29 C28 1.306 . S
O29 Cd30 2.228 . S
Cd30 O29 2.228 . S
Cd30 O34 2.273 . S
Cd30 O38 2.277 . S
O31 C28 1.160 . S
O31 Cd32 2.203 . S
Cd32 O31 2.203 . S
Cd32 O34 2.411 . S
Cd32 O35 2.333 . S
Cd32 O36 2.352 . S
Cd32 O40 2.277 . S
Cd32 O41 2.356 . S
C33 O38 1.209 . S
C33 O40 1.226 . S
O34 Cd30 2.273 . S
O34 Cd32 2.411 . S
O34 C37 1.320 . S
O35 Cd32 2.333 . S
O35 C37 1.214 . S
O36 Cd32 2.352 . S
O36 C39 1.258 . S
C37 O34 1.320 . S
C37 O35 1.214 . S
O38 Cd30 2.277 . S
O38 C33 1.209 . S
C39 O36 1.258 . S
C39 O41 1.282 . S
O40 Cd32 2.277 . S
O40 C33 1.226 . S
O41 Cd32 2.356 . S
O41 C39 1.282 . S
C42 O43 1.306 . S
C42 O45 1.160 . S
O43 C42 1.306 . S
O43 Cd44 2.228 . S
Cd44 O43 2.228 . S
Cd44 O48 2.273 . S
Cd44 O52 2.277 . S
O45 C42 1.160 . S
O45 Cd46 2.203 . S
Cd46 O45 2.203 . S
Cd46 O48 2.411 . S
Cd46 O49 2.333 . S
Cd46 O50 2.352 . S
Cd46 O54 2.277 . S
Cd46 O55 2.356 . S
C47 O52 1.209 . S
C47 O54 1.226 . S
O48 Cd44 2.273 . S
O48 Cd46 2.411 . S
O48 C51 1.320 . S
O49 Cd46 2.333 . S
O49 C51 1.214 . S
O50 Cd46 2.352 . S
O50 C53 1.258 . S
C51 O48 1.320 . S
C51 O49 1.214 . S
O52 Cd44 2.277 . S
O52 C47 1.209 . S
C53 O50 1.258 . S
C53 O55 1.282 . S
O54 Cd46 2.277 . S
O54 C47 1.226 . S
O55 Cd46 2.356 . S
O55 C53 1.282 . S
C56 O57 1.306 . S
C56 O59 1.160 . S
O57 C56 1.306 . S
O57 Cd58 2.228 . S
Cd58 O57 2.228 . S
Cd58 O62 2.273 . S
Cd58 O66 2.277 . S
O59 C56 1.160 . S
O59 Cd60 2.203 . S
Cd60 O59 2.203 . S
Cd60 O62 2.411 . S
Cd60 O63 2.333 . S
Cd60 O64 2.352 . S
Cd60 O68 2.277 . S
Cd60 O69 2.356 . S
C61 O66 1.209 . S
C61 O68 1.226 . S
O62 Cd58 2.273 . S
O62 Cd60 2.411 . S
O62 C65 1.320 . S
O63 Cd60 2.333 . S
O63 C65 1.214 . S
O64 Cd60 2.352 . S
O64 C67 1.258 . S
C65 O62 1.320 . S
C65 O63 1.214 . S
O66 Cd58 2.277 . S
O66 C61 1.209 . S
C67 O64 1.258 . S
C67 O69 1.282 . S
O68 Cd60 2.277 . S
O68 C61 1.226 . S
O69 Cd60 2.356 . S
O69 C67 1.282 . S
C70 O71 1.306 . S
C70 O73 1.160 . S
O71 C70 1.306 . S
O71 Cd72 2.228 . S
Cd72 O71 2.228 . S
Cd72 O76 2.273 . S
Cd72 O80 2.277 . S
O73 C70 1.160 . S
O73 Cd74 2.204 . S
Cd74 O73 2.204 . S
Cd74 O76 2.411 . S
Cd74 O77 2.333 . S
Cd74 O78 2.352 1_556 S
Cd74 O82 2.277 . S
Cd74 O83 2.356 1_556 S
C75 O80 1.209 . S
C75 O82 1.226 . S
O76 Cd72 2.273 . S
O76 Cd74 2.411 . S
O76 C79 1.320 . S
O77 Cd74 2.333 . S
O77 C79 1.214 . S
O78 Cd74 2.352 1_554 S
O78 C81 1.258 . S
C79 O76 1.320 . S
C79 O77 1.214 . S
O80 Cd72 2.277 . S
O80 C75 1.209 . S
C81 O78 1.258 . S
C81 O83 1.282 . S
O82 Cd74 2.277 . S
O82 C75 1.226 . S
O83 Cd74 2.356 1_554 S
O83 C81 1.282 . S
C84 C85 1.369 . S
C84 C86 1.419 . S
C84 H88 0.930 . S
C85 C84 1.369 . S
C85 C94 1.429 1_455 S
C86 C84 1.419 . S
C86 C87 1.363 1_455 S
C86 H89 0.929 . S
C87 C86 1.363 1_655 S
C87 C93 1.428 . S
H88 C84 0.930 . S
H89 C86 0.929 . S
S90 N91 1.613 . S
S90 N92 1.610 . S
N91 S90 1.613 . S
N91 C94 1.350 . S
N92 S90 1.610 . S
N92 C93 1.351 . S
C93 C87 1.428 . S
C93 N92 1.351 . S
C93 C94 1.434 . S
C94 C85 1.429 1_655 S
C94 N91 1.350 . S
C94 C93 1.434 . S
C95 C96 1.369 1_545 S
C95 C97 1.419 . S
C95 H99 0.930 . S
C96 C95 1.369 1_565 S
C96 C105 1.429 1_556 S
C97 C95 1.419 . S
C97 C98 1.363 1_556 S
C97 H100 0.929 . S
C98 C97 1.363 1_554 S
C98 C104 1.428 1_545 S
H99 C95 0.930 . S
H100 C97 0.929 . S
S101 N102 1.613 . S
S101 N103 1.610 . S
N102 S101 1.613 . S
N102 C105 1.350 . S
N103 S101 1.610 . S
N103 C104 1.351 . S
C104 C98 1.428 1_565 S
C104 N103 1.351 . S
C104 C105 1.434 . S
C105 C96 1.429 1_554 S
C105 N102 1.350 . S
C105 C104 1.434 . S
C106 C107 1.369 . S
C106 C108 1.419 . S
C106 H110 0.930 . S
C107 C106 1.369 . S
C107 C116 1.429 . S
C108 C106 1.419 . S
C108 C109 1.363 . S
C108 H111 0.929 . S
C109 C108 1.363 . S
C109 C115 1.428 . S
H110 C106 0.930 . S
H111 C108 0.929 . S
S112 N113 1.613 . S
S112 N114 1.610 . S
N113 S112 1.613 . S
N113 C116 1.350 . S
N114 S112 1.610 . S
N114 C115 1.351 . S
C115 C109 1.428 . S
C115 N114 1.351 . S
C115 C116 1.434 . S
C116 C107 1.429 . S
C116 N113 1.350 . S
C116 C115 1.434 . S
C117 C118 1.369 . S
C117 C119 1.419 1_655 S
C117 H121 0.930 . S
C118 C117 1.369 . S
C118 C127 1.429 . S
C119 C117 1.419 1_455 S
C119 C120 1.363 . S
C119 H122 0.929 . S
C120 C119 1.363 . S
C120 C126 1.428 1_455 S
H121 C117 0.930 . S
H122 C119 0.929 . S
S123 N124 1.613 . S
S123 N125 1.610 . S
N124 S123 1.613 . S
N124 C127 1.350 . S
N125 S123 1.610 . S
N125 C126 1.351 . S
C126 C120 1.428 1_655 S
C126 N125 1.351 . S
C126 C127 1.434 . S
C127 C118 1.429 . S
C127 N124 1.350 . S
C127 C126 1.434 . S
C128 C129 1.369 . S
C128 C130 1.419 1_545 S
C128 H132 0.930 . S
C129 C128 1.369 . S
C129 C138 1.429 . S
C130 C128 1.419 1_565 S
C130 C131 1.363 . S
C130 H133 0.929 . S
C131 C130 1.363 . S
C131 C137 1.428 . S
H132 C128 0.930 . S
H133 C130 0.929 . S
S134 N135 1.613 1_565 S
S134 N136 1.610 . S
N135 S134 1.613 1_545 S
N135 C138 1.350 . S
N136 S134 1.610 . S
N136 C137 1.351 . S
C137 C131 1.428 . S
C137 N136 1.351 . S
C137 C138 1.434 1_565 S
C138 C129 1.429 . S
C138 N135 1.350 . S
C138 C137 1.434 1_545 S
C139 C140 1.369 . S
C139 C141 1.419 . S
C139 H143 0.930 . S
C140 C139 1.369 . S
C140 C149 1.429 . S
C141 C139 1.419 . S
C141 C142 1.363 . S
C141 H144 0.929 . S
C142 C141 1.363 . S
C142 C148 1.428 . S
H143 C139 0.930 . S
H144 C141 0.929 . S
S145 N146 1.613 . S
S145 N147 1.610 . S
N146 S145 1.613 . S
N146 C149 1.350 . S
N147 S145 1.610 . S
N147 C148 1.351 . S
C148 C142 1.428 . S
C148 N147 1.351 . S
C148 C149 1.434 . S
C149 C140 1.429 . S
C149 N146 1.350 . S
C149 C148 1.434 . S
C150 C151 1.369 . S
C150 C152 1.419 . S
C150 H154 0.930 . S
C151 C150 1.369 . S
C151 C160 1.429 . S
C152 C150 1.419 . S
C152 C153 1.363 . S
C152 H155 0.929 . S
C153 C152 1.363 . S
C153 C159 1.428 . S
H154 C150 0.930 . S
H155 C152 0.929 . S
S156 N157 1.613 . S
S156 N158 1.610 . S
N157 S156 1.613 . S
N157 C160 1.350 . S
N158 S156 1.610 . S
N158 C159 1.351 . S
C159 C153 1.428 . S
C159 N158 1.351 . S
C159 C160 1.434 . S
C160 C151 1.429 . S
C160 N157 1.350 . S
C160 C159 1.434 . S
C161 C162 1.369 . S
C161 C163 1.419 . S
C161 H165 0.930 . S
C162 C161 1.369 . S
C162 C171 1.429 . S
C163 C161 1.419 . S
C163 C164 1.363 . S
C163 H166 0.929 . S
C164 C163 1.363 . S
C164 C170 1.428 . S
H165 C161 0.930 . S
H166 C163 0.929 . S
S167 N168 1.613 . S
S167 N169 1.610 . S
N168 S167 1.613 . S
N168 C171 1.350 . S
N169 S167 1.610 . S
N169 C170 1.351 . S
C170 C164 1.428 . S
C170 N169 1.351 . S
C170 C171 1.434 . S
C171 C162 1.429 . S
C171 N168 1.350 . S
C171 C170 1.434 . S
C172 C173 1.369 . S
C172 C174 1.419 . S
C172 H176 0.930 . S
C173 C172 1.369 . S
C173 C182 1.429 . S
C174 C172 1.419 . S
C174 C175 1.363 . S
C174 H177 0.929 . S
C175 C174 1.363 . S
C175 C181 1.428 . S
H176 C172 0.930 . S
H177 C174 0.929 . S
S178 N179 1.613 . S
S178 N180 1.610 . S
N179 S178 1.613 . S
N179 C182 1.350 . S
N180 S178 1.610 . S
N180 C181 1.351 . S
C181 C175 1.428 . S
C181 N180 1.351 . S
C181 C182 1.434 . S
C182 C173 1.429 . S
C182 N179 1.350 . S
C182 C181 1.434 . S
C183 C184 1.369 . S
C183 C185 1.419 . S
C183 H187 0.930 . S
C184 C183 1.369 . S
C184 C193 1.429 . S
C185 C183 1.419 . S
C185 C186 1.363 . S
C185 H188 0.929 . S
C186 C185 1.363 . S
C186 C192 1.428 . S
H187 C183 0.930 . S
H188 C185 0.929 . S
S189 N190 1.613 . S
S189 N191 1.610 . S
N190 S189 1.613 . S
N190 C193 1.350 . S
N191 S189 1.610 . S
N191 C192 1.351 . S
C192 C186 1.428 . S
C192 N191 1.351 . S
C192 C193 1.434 . S
C193 C184 1.429 . S
C193 N190 1.350 . S
C193 C192 1.434 . S
C194 C195 1.369 . S
C194 C196 1.419 . S
C194 H198 0.930 . S
C195 C194 1.369 . S
C195 C204 1.429 . S
C196 C194 1.419 . S
C196 C197 1.363 . S
C196 H199 0.929 . S
C197 C196 1.363 . S
C197 C203 1.428 . S
H198 C194 0.930 . S
H199 C196 0.929 . S
S200 N201 1.613 1_554 S
S200 N202 1.610 . S
N201 S200 1.613 1_556 S
N201 C204 1.350 . S
N202 S200 1.610 . S
N202 C203 1.351 1_554 S
C203 C197 1.428 . S
C203 N202 1.351 1_556 S
C203 C204 1.434 . S
C204 C195 1.429 . S
C204 N201 1.350 . S
C204 C203 1.434 . S
C205 C206 1.369 . S
C205 C207 1.419 . S
C205 H209 0.930 . S
C206 C205 1.369 . S
C206 C215 1.429 . S
C207 C205 1.419 . S
C207 C208 1.363 . S
C207 H210 0.929 . S
C208 C207 1.363 . S
C208 C214 1.428 . S
H209 C205 0.930 . S
H210 C207 0.929 . S
S211 N212 1.613 . S
S211 N213 1.610 1_556 S
N212 S211 1.613 . S
N212 C215 1.350 1_556 S
N213 S211 1.610 1_554 S
N213 C214 1.351 . S
C214 C208 1.428 . S
C214 N213 1.351 . S
C214 C215 1.434 . S
C215 C206 1.429 . S
C215 N212 1.350 1_554 S
C215 C214 1.434 . S
C85 C9 1.348 . S
C87 C53 1.368 . S
C96 C67 1.368 . S
C98 C23 1.346 . S
C107 C37 1.349 . S
C109 C81 1.368 . S
C118 C51 1.350 . S
C120 C11 1.368 . S
C129 C25 1.367 . S
C131 C65 1.346 . S
C140 C79 1.344 . S
C142 C39 1.368 . S
C151 C0 1.348 . S
C153 C33 1.348 . S
C162 C14 1.349 . S
C164 C47 1.350 . S
C173 C61 1.349 . S
C175 C28 1.349 . S
C184 C75 1.348 . S
C186 C42 1.351 . S
C195 C56 1.351 . S
C197 C5 1.351 1_556 S
C206 C70 1.353 1_554 S
C208 C19 1.350 . S
