# Generated by pormake.
# Topology sod, (4)-cn, num edge types: 1
# Building blocks:
#     Node 0, Type 0, BuildingBlock: QUQFOY_clean_sbu_1, # of connection points: 4
#     Node 1, Type 0, BuildingBlock: QUQFOY_clean_sbu_1, # of connection points: 4
#     Node 2, Type 0, BuildingBlock: QUQFOY_clean_sbu_1, # of connection points: 4
#     Node 3, Type 0, BuildingBlock: QUQFOY_clean_sbu_1, # of connection points: 4
#     Node 4, Type 0, BuildingBlock: QUQFOY_clean_sbu_1, # of connection points: 4
#     Node 5, Type 0, BuildingBlock: QUQFOY_clean_sbu_1, # of connection points: 4
#     Node 6, Type 0, BuildingBlock: QUQFOY_clean_sbu_1, # of connection points: 4
#     Node 7, Type 0, BuildingBlock: QUQFOY_clean_sbu_1, # of connection points: 4
#     Node 8, Type 0, BuildingBlock: QUQFOY_clean_sbu_1, # of connection points: 4
#     Node 9, Type 0, BuildingBlock: QUQFOY_clean_sbu_1, # of connection points: 4
#     Node 10, Type 0, BuildingBlock: QUQFOY_clean_sbu_1, # of connection points: 4
#     Node 11, Type 0, BuildingBlock: QUQFOY_clean_sbu_1, # of connection points: 4
#     Edge 12, Type (0, 0), None
#     Edge 13, Type (0, 0), None
#     Edge 14, Type (0, 0), None
#     Edge 15, Type (0, 0), None
#     Edge 16, Type (0, 0), None
#     Edge 17, Type (0, 0), None
#     Edge 18, Type (0, 0), None
#     Edge 19, Type (0, 0), None
#     Edge 20, Type (0, 0), None
#     Edge 21, Type (0, 0), None
#     Edge 22, Type (0, 0), None
#     Edge 23, Type (0, 0), None
#     Edge 24, Type (0, 0), None
#     Edge 25, Type (0, 0), None
#     Edge 26, Type (0, 0), None
#     Edge 27, Type (0, 0), None
#     Edge 28, Type (0, 0), None
#     Edge 29, Type (0, 0), None
#     Edge 30, Type (0, 0), None
#     Edge 31, Type (0, 0), None
#     Edge 32, Type (0, 0), None
#     Edge 33, Type (0, 0), None
#     Edge 34, Type (0, 0), None
#     Edge 35, Type (0, 0), None
# Relax obj value: 0.201
# Max RMSD: 0.240
# Mean RMSD: 0.227
data_MOF--net-sod--node1-QUQFOY_clean_sbu_1--edge1-none
_symmetry_space_group_name_H-M    P1
_symmetry_Int_Tables_number       1
_symmetry_cell_setting            triclinic
loop_
_symmetry_equiv_pos_as_xyz
'x, y, z'
_cell_length_a     20.42382
_cell_length_b     20.449349
_cell_length_c     20.682272
_cell_angle_alpha  90.605586
_cell_angle_beta   88.716323
_cell_angle_gamma 90.860618
loop_
_atom_site_label
_atom_site_type_symbol
_atom_site_fract_x
_atom_site_fract_y
_atom_site_fract_z
_atom_type_partial_charge
O0 O 0.0259 0.22522 0.4797 0.0
Cd1 Cd 0.11495 0.27619 0.47478 0.0
Cd2 Cd 0.05558 0.34675 0.56565 0.0
O3 O 1.00723 0.2596 0.57952 0.0
O4 O 0.18884 0.21542 0.45668 0.0
O5 O 0.1694 0.26292 0.55228 0.0
C6 C 0.20295 0.22236 0.51699 0.0
C7 C 0.06428 0.41242 0.65682 0.0
C8 C 0.99465 0.22064 0.53343 0.0
C9 C 0.0792 0.40495 0.43372 0.0
O10 O 0.0424 0.40132 0.48379 0.0
O11 O 0.12205 0.36178 0.42238 0.0
O12 O 1.00929 0.40383 0.62878 0.0
O13 O 0.11502 0.38226 0.63414 0.0
O14 O 0.7549 0.15534 0.59364 0.0
Cd15 Cd 0.81082 0.12267 0.51483 0.0
Cd16 Cd 0.87023 0.06597 0.60737 0.0
O17 O 0.78142 0.07483 0.65734 0.0
O18 O 0.75674 0.13924 0.43815 0.0
O19 O 0.78057 0.03995 0.47214 0.0
C20 C 0.75043 0.07663 0.43249 0.0
C21 C 0.92224 0.97066 0.5756 0.0
C22 C 0.74496 0.1228 0.64506 0.0
C23 C 0.94119 0.17315 0.54224 0.0
O24 O 0.92995 0.14817 0.59754 0.0
O25 O 0.90289 0.16126 0.49609 0.0
O26 O 0.92343 0.9902 0.63519 0.0
O27 O 0.88711 0.00226 0.53569 0.0
O28 O 0.1481 0.92138 0.53879 0.0
Cd29 Cd 0.0644 0.86795 0.51956 0.0
Cd30 Cd 0.12815 0.77235 0.5829 0.0
O31 O 0.20016 0.845 0.59116 0.0
O32 O 0.99871 0.93378 0.49573 0.0
O33 O 0.99278 0.8785 0.58733 0.0
C34 C 0.97037 0.92368 0.55107 0.0
C35 C 0.09104 0.71385 0.67323 0.0
C36 C 0.19737 0.90292 0.56974 0.0
C37 C 0.09122 0.74346 0.44481 0.0
O38 O 0.11823 0.72296 0.4954 0.0
O39 O 0.06616 0.79998 0.4439 0.0
O40 O 0.14867 0.70509 0.64828 0.0
O41 O 0.05479 0.75794 0.64855 0.0
O42 O 0.24286 0.00732 0.594 0.0
Cd43 Cd 0.30384 0.09083 0.59169 0.0
Cd44 Cd 0.38772 0.99382 0.55796 0.0
O45 O 0.30961 0.93044 0.55821 0.0
O46 O 0.24191 0.16427 0.60736 0.0
O47 O 0.28994 0.14442 0.51223 0.0
C48 C 0.2486 0.17767 0.54684 0.0
C49 C 0.44824 0.01337 0.46401 0.0
C50 C 0.25306 0.94835 0.57656 0.0
C51 C 0.42615 0.07074 0.67085 0.0
O52 O 0.43164 0.01529 0.64359 0.0
O53 O 0.38283 0.11047 0.653 0.0
O54 O 0.45634 0.96126 0.49741 0.0
O55 O 0.40424 0.05445 0.48318 0.0
O56 O 0.52058 0.99499 0.22418 0.0
Cd57 Cd 0.52776 0.07821 0.28064 0.0
Cd58 Cd 0.61481 0.0054 0.3342 0.0
O59 O 0.61944 0.95994 0.24547 0.0
O60 O 0.50327 0.15543 0.22737 0.0
O61 O 0.605 0.13355 0.25472 0.0
C62 C 0.56529 0.1684 0.22237 0.0
C63 C 0.70326 0.04834 0.38791 0.0
C64 C 0.56841 0.95746 0.21164 0.0
C65 C 0.49019 0.02543 0.40684 0.0
O66 O 0.53563 0.98541 0.39385 0.0
O67 O 0.48283 0.07547 0.37179 0.0
O68 O 0.69317 0.98591 0.38559 0.0
O69 O 0.66561 0.08587 0.35611 0.0
O70 O 0.07419 0.63978 0.39567 0.0
Cd71 Cd 0.06111 0.5586 0.33437 0.0
Cd72 Cd 0.09574 0.66412 0.24997 0.0
O73 O 0.09726 0.723 0.33134 0.0
O74 O 0.02154 0.49753 0.39864 0.0
O75 O 0.11732 0.47941 0.35053 0.0
C76 C 0.07231 0.46155 0.39167 0.0
C77 C 0.18938 0.63968 0.18834 0.0
C78 C 0.0873 0.70021 0.38763 0.0
C79 C 0.97582 0.59105 0.21744 0.0
O80 O 1.00687 0.64449 0.2088 0.0
O81 O 0.9935 0.55087 0.25998 0.0
O82 O 0.15857 0.69366 0.18059 0.0
O83 O 0.16834 0.60018 0.23285 0.0
O84 O 0.57419 0.13978 0.89567 0.0
Cd85 Cd 0.5611 0.0586 0.83437 0.0
Cd86 Cd 0.59572 0.16412 0.74997 0.0
O87 O 0.59725 0.223 0.83135 0.0
O88 O 0.52154 0.99752 0.89864 0.0
O89 O 0.61732 0.97941 0.85052 0.0
C90 C 0.5723 0.96154 0.89166 0.0
C91 C 0.68936 0.13969 0.68833 0.0
C92 C 0.5873 0.2002 0.88763 0.0
C93 C 0.4758 0.09106 0.71745 0.0
O94 O 0.50686 0.1445 0.7088 0.0
O95 O 0.49349 0.05087 0.75998 0.0
O96 O 0.65855 0.19367 0.68059 0.0
O97 O 0.66833 0.10018 0.73284 0.0
O98 O 0.0206 0.49498 0.72418 0.0
Cd99 Cd 0.02778 0.57821 0.78064 0.0
Cd100 Cd 0.11483 0.50539 0.8342 0.0
O101 O 0.11945 0.45993 0.74547 0.0
O102 O 1.00328 0.65542 0.72738 0.0
O103 O 0.10501 0.63355 0.75472 0.0
C104 C 0.06529 0.66839 0.72237 0.0
C105 C 0.20329 0.54833 0.88791 0.0
C106 C 0.06842 0.45745 0.71164 0.0
C107 C 0.99021 0.52542 0.90684 0.0
O108 O 0.03565 0.48541 0.89386 0.0
O109 O 0.98285 0.57547 0.8718 0.0
O110 O 0.19319 0.4859 0.88559 0.0
O111 O 0.16563 0.58586 0.85611 0.0
O112 O 0.42996 0.64817 0.09755 0.0
Cd113 Cd 0.37025 0.56597 0.10737 0.0
Cd114 Cd 0.31084 0.62266 0.01483 0.0
O115 O 0.40291 0.66125 0.99609 0.0
O116 O 0.42345 0.4902 0.1352 0.0
O117 O 0.38713 0.50226 0.0357 0.0
C118 C 0.42226 0.47066 0.07561 0.0
C119 C 0.25045 0.57662 0.9325 0.0
C120 C 0.44121 0.67315 0.04224 0.0
C121 C 0.24498 0.62279 0.14506 0.0
O122 O 0.25491 0.65533 0.09364 0.0
O123 O 0.28144 0.57483 0.15735 0.0
O124 O 0.25676 0.63923 0.93815 0.0
O125 O 0.28059 0.53994 0.97215 0.0
O126 O 0.64811 0.42137 0.03879 0.0
Cd127 Cd 0.56441 0.36794 0.01956 0.0
Cd128 Cd 0.62816 0.27234 0.0829 0.0
O129 O 0.70017 0.34499 0.09116 0.0
O130 O 0.49872 0.43378 0.99573 0.0
O131 O 0.49279 0.3785 0.08733 0.0
C132 C 0.47039 0.42368 0.05108 0.0
C133 C 0.59103 0.21385 0.17322 0.0
C134 C 0.69739 0.40291 0.06974 0.0
C135 C 0.59123 0.24346 0.94481 0.0
O136 O 0.61824 0.22295 0.9954 0.0
O137 O 0.56617 0.29998 0.94391 0.0
O138 O 0.64867 0.20508 0.14828 0.0
O139 O 0.55479 0.25795 0.14855 0.0
O140 O 0.74288 0.50731 0.09399 0.0
Cd141 Cd 0.80386 0.59083 0.09168 0.0
Cd142 Cd 0.88773 0.49381 0.05796 0.0
O143 O 0.80963 0.43043 0.05821 0.0
O144 O 0.74193 0.66427 0.10735 0.0
O145 O 0.78995 0.64442 0.01222 0.0
C146 C 0.74861 0.67768 0.04683 0.0
C147 C 0.94826 0.51336 0.96401 0.0
C148 C 0.75308 0.44835 0.07656 0.0
C149 C 0.92616 0.57073 0.17085 0.0
O150 O 0.93165 0.51528 0.14359 0.0
O151 O 0.88286 0.61046 0.15299 0.0
O152 O 0.95637 0.46125 0.99741 0.0
O153 O 0.90426 0.55444 0.98318 0.0
O154 O 0.52591 0.72522 0.97971 0.0
Cd155 Cd 0.61497 0.77619 0.97478 0.0
Cd156 Cd 0.55559 0.84676 0.06564 0.0
O157 O 0.50725 0.7596 0.07952 0.0
O158 O 0.68886 0.71542 0.95668 0.0
O159 O 0.66942 0.76292 0.05228 0.0
C160 C 0.70296 0.72236 0.01698 0.0
C161 C 0.56428 0.91243 0.15681 0.0
C162 C 0.49466 0.72064 0.03343 0.0
C163 C 0.57921 0.90495 0.93372 0.0
O164 O 0.54241 0.90131 0.98378 0.0
O165 O 0.62205 0.86178 0.92238 0.0
O166 O 0.50929 0.90384 0.12877 0.0
O167 O 0.61502 0.88227 0.13414 0.0
loop_
_geom_bond_atom_site_label_1
_geom_bond_atom_site_label_2
_geom_bond_distance
_geom_bond_site_symmetry_2
_ccdc_geom_bond_type
O0 Cd1 2.223 . S
O0 C8 1.315 1_455 S
Cd1 O0 2.223 . S
Cd1 O4 2.297 . S
Cd1 O5 2.439 . S
Cd1 O11 2.240 . S
Cd2 O3 2.240 . S
Cd2 O10 2.223 . S
Cd2 O12 2.297 1_655 S
Cd2 O13 2.439 1_655 S
O3 Cd2 2.240 . S
O3 C8 1.279 . S
O4 Cd1 2.297 . S
O4 C6 1.247 . S
O5 Cd1 2.439 . S
O5 C6 1.208 . S
C6 O4 1.247 . S
C6 O5 1.208 . S
C7 O12 1.247 . S
C7 O13 1.208 . S
C8 O0 1.315 1_655 S
C8 O3 1.279 . S
C9 O10 1.315 1_455 S
C9 O11 1.279 . S
O10 Cd2 2.223 . S
O10 C9 1.315 1_655 S
O11 Cd1 2.240 . S
O11 C9 1.279 . S
O12 Cd2 2.297 1_455 S
O12 C7 1.247 . S
O13 Cd2 2.439 1_455 S
O13 C7 1.208 . S
O14 Cd15 2.223 . S
O14 C22 1.315 . S
Cd15 O14 2.223 . S
Cd15 O18 2.297 . S
Cd15 O19 2.439 . S
Cd15 O25 2.240 . S
Cd16 O17 2.240 . S
Cd16 O24 2.223 . S
Cd16 O26 2.295 1_545 S
Cd16 O27 2.439 1_545 S
O17 Cd16 2.240 . S
O17 C22 1.279 . S
O18 Cd15 2.297 . S
O18 C20 1.247 . S
O19 Cd15 2.439 . S
O19 C20 1.208 . S
C20 O18 1.247 . S
C20 O19 1.208 . S
C21 O26 1.248 . S
C21 O27 1.208 . S
C22 O14 1.315 . S
C22 O17 1.279 . S
C23 O24 1.315 . S
C23 O25 1.279 . S
O24 Cd16 2.223 . S
O24 C23 1.315 . S
O25 Cd15 2.240 . S
O25 C23 1.279 . S
O26 Cd16 2.295 1_565 S
O26 C21 1.248 . S
O27 Cd16 2.439 1_565 S
O27 C21 1.208 . S
O28 Cd29 2.223 . S
O28 C36 1.315 . S
Cd29 O28 2.223 . S
Cd29 O32 2.297 . S
Cd29 O33 2.439 . S
Cd29 O39 2.240 . S
Cd30 O31 2.240 . S
Cd30 O38 2.223 . S
Cd30 O40 2.297 . S
Cd30 O41 2.439 . S
O31 Cd30 2.240 . S
O31 C36 1.279 . S
O32 Cd29 2.297 . S
O32 C34 1.247 1_455 S
O33 Cd29 2.439 . S
O33 C34 1.208 1_455 S
C34 O32 1.247 1_655 S
C34 O33 1.208 1_655 S
C35 O40 1.247 . S
C35 O41 1.208 . S
C36 O28 1.315 . S
C36 O31 1.279 . S
C37 O38 1.315 . S
C37 O39 1.279 . S
O38 Cd30 2.223 . S
O38 C37 1.315 . S
O39 Cd29 2.240 . S
O39 C37 1.279 . S
O40 Cd30 2.297 . S
O40 C35 1.247 . S
O41 Cd30 2.439 . S
O41 C35 1.208 . S
O42 Cd43 2.237 . S
O42 C50 1.307 1_545 S
Cd43 O42 2.237 . S
Cd43 O46 2.297 . S
Cd43 O47 2.439 . S
Cd43 O53 2.240 . S
Cd44 O45 2.240 . S
Cd44 O52 2.223 . S
Cd44 O54 2.297 1_565 S
Cd44 O55 2.439 1_565 S
O45 Cd44 2.240 . S
O45 C50 1.279 . S
O46 Cd43 2.297 . S
O46 C48 1.247 . S
O47 Cd43 2.439 . S
O47 C48 1.208 . S
C48 O46 1.247 . S
C48 O47 1.208 . S
C49 O54 1.247 . S
C49 O55 1.208 . S
C50 O42 1.307 1_565 S
C50 O45 1.279 . S
C51 O52 1.315 1_545 S
C51 O53 1.279 . S
O52 Cd44 2.223 . S
O52 C51 1.315 1_565 S
O53 Cd43 2.240 . S
O53 C51 1.279 . S
O54 Cd44 2.297 1_545 S
O54 C49 1.247 . S
O55 Cd44 2.439 1_545 S
O55 C49 1.208 . S
O56 Cd57 2.223 . S
O56 C64 1.315 1_545 S
Cd57 O56 2.223 . S
Cd57 O60 2.297 . S
Cd57 O61 2.439 . S
Cd57 O67 2.240 . S
Cd58 O59 2.240 . S
Cd58 O66 2.223 1_545 S
Cd58 O68 2.297 . S
Cd58 O69 2.439 . S
O59 Cd58 2.240 . S
O59 C64 1.279 1_545 S
O60 Cd57 2.297 . S
O60 C62 1.247 . S
O61 Cd57 2.439 . S
O61 C62 1.208 . S
C62 O60 1.247 . S
C62 O61 1.208 . S
C63 O68 1.247 . S
C63 O69 1.208 . S
C64 O56 1.315 1_565 S
C64 O59 1.279 1_565 S
C65 O66 1.315 1_545 S
C65 O67 1.279 . S
O66 Cd58 2.223 1_565 S
O66 C65 1.315 1_565 S
O67 Cd57 2.240 . S
O67 C65 1.279 . S
O68 Cd58 2.297 . S
O68 C63 1.247 . S
O69 Cd58 2.439 . S
O69 C63 1.208 . S
O70 Cd71 2.223 . S
O70 C78 1.315 1_655 S
Cd71 O70 2.223 . S
Cd71 O74 2.297 1_655 S
Cd71 O75 2.439 1_655 S
Cd71 O81 2.240 1_655 S
Cd72 O73 2.240 . S
Cd72 O80 2.223 . S
Cd72 O82 2.297 . S
Cd72 O83 2.439 . S
O73 Cd72 2.240 . S
O73 C78 1.279 . S
O74 Cd71 2.297 1_455 S
O74 C76 1.247 . S
O75 Cd71 2.439 1_455 S
O75 C76 1.208 . S
C76 O74 1.247 . S
C76 O75 1.208 . S
C77 O82 1.247 . S
C77 O83 1.208 . S
C78 O70 1.315 1_455 S
C78 O73 1.279 . S
C79 O80 1.315 1_655 S
C79 O81 1.279 1_655 S
O80 Cd72 2.223 . S
O80 C79 1.315 1_455 S
O81 Cd71 2.240 1_455 S
O81 C79 1.279 1_455 S
O82 Cd72 2.297 . S
O82 C77 1.247 . S
O83 Cd72 2.439 . S
O83 C77 1.208 . S
O84 Cd85 2.223 . S
O84 C92 1.315 . S
Cd85 O84 2.223 . S
Cd85 O88 2.297 1_545 S
Cd85 O89 2.439 1_545 S
Cd85 O95 2.240 . S
Cd86 O87 2.240 . S
Cd86 O94 2.223 . S
Cd86 O96 2.297 . S
Cd86 O97 2.439 . S
O87 Cd86 2.240 . S
O87 C92 1.279 . S
O88 Cd85 2.297 1_565 S
O88 C90 1.247 . S
O89 Cd85 2.439 1_565 S
O89 C90 1.208 . S
C90 O88 1.247 . S
C90 O89 1.208 . S
C91 O96 1.247 . S
C91 O97 1.208 . S
C92 O84 1.315 . S
C92 O87 1.279 . S
C93 O94 1.315 . S
C93 O95 1.279 . S
O94 Cd86 2.223 . S
O94 C93 1.315 . S
O95 Cd85 2.240 . S
O95 C93 1.279 . S
O96 Cd86 2.297 . S
O96 C91 1.247 . S
O97 Cd86 2.439 . S
O97 C91 1.208 . S
O98 Cd99 2.223 1_655 S
O98 C106 1.315 1_655 S
Cd99 O98 2.223 1_455 S
Cd99 O102 2.297 . S
Cd99 O103 2.439 . S
Cd99 O109 2.240 . S
Cd100 O101 2.240 . S
Cd100 O108 2.223 . S
Cd100 O110 2.297 . S
Cd100 O111 2.439 . S
O101 Cd100 2.240 . S
O101 C106 1.279 . S
O102 Cd99 2.297 . S
O102 C104 1.247 . S
O103 Cd99 2.439 . S
O103 C104 1.208 . S
C104 O102 1.247 . S
C104 O103 1.208 . S
C105 O110 1.247 . S
C105 O111 1.208 . S
C106 O98 1.315 1_455 S
C106 O101 1.279 . S
C107 O108 1.315 1_655 S
C107 O109 1.279 1_655 S
O108 Cd100 2.223 . S
O108 C107 1.315 1_455 S
O109 Cd99 2.240 . S
O109 C107 1.279 1_455 S
O110 Cd100 2.297 . S
O110 C105 1.247 . S
O111 Cd100 2.439 . S
O111 C105 1.208 . S
O112 Cd113 2.223 . S
O112 C120 1.315 . S
Cd113 O112 2.223 . S
Cd113 O116 2.297 . S
Cd113 O117 2.439 . S
Cd113 O123 2.240 . S
Cd114 O115 2.240 . S
Cd114 O122 2.223 . S
Cd114 O124 2.297 1_554 S
Cd114 O125 2.439 1_554 S
O115 Cd114 2.240 . S
O115 C120 1.279 . S
O116 Cd113 2.297 . S
O116 C118 1.247 . S
O117 Cd113 2.439 . S
O117 C118 1.208 . S
C118 O116 1.247 . S
C118 O117 1.208 . S
C119 O124 1.247 . S
C119 O125 1.208 . S
C120 O112 1.315 . S
C120 O115 1.279 . S
C121 O122 1.315 . S
C121 O123 1.279 . S
O122 Cd114 2.223 . S
O122 C121 1.315 . S
O123 Cd113 2.240 . S
O123 C121 1.279 . S
O124 Cd114 2.297 1_556 S
O124 C119 1.247 . S
O125 Cd114 2.439 1_556 S
O125 C119 1.208 . S
O126 Cd127 2.223 . S
O126 C134 1.315 . S
Cd127 O126 2.223 . S
Cd127 O130 2.297 . S
Cd127 O131 2.439 1_556 S
Cd127 O137 2.240 . S
Cd128 O129 2.240 . S
Cd128 O136 2.223 1_554 S
Cd128 O138 2.297 . S
Cd128 O139 2.439 . S
O129 Cd128 2.240 . S
O129 C134 1.279 1_554 S
O130 Cd127 2.297 . S
O130 C132 1.247 1_556 S
O131 Cd127 2.439 1_554 S
O131 C132 1.208 . S
C132 O130 1.247 1_554 S
C132 O131 1.208 . S
C133 O138 1.247 . S
C133 O139 1.208 . S
C134 O126 1.315 . S
C134 O129 1.279 1_556 S
C135 O136 1.315 . S
C135 O137 1.279 . S
O136 Cd128 2.223 1_556 S
O136 C135 1.315 . S
O137 Cd127 2.240 . S
O137 C135 1.279 . S
O138 Cd128 2.297 . S
O138 C133 1.247 . S
O139 Cd128 2.439 . S
O139 C133 1.208 . S
O140 Cd141 2.223 . S
O140 C148 1.315 . S
Cd141 O140 2.223 . S
Cd141 O144 2.297 . S
Cd141 O145 2.439 . S
Cd141 O151 2.240 . S
Cd142 O143 2.240 1_556 S
Cd142 O150 2.223 1_556 S
Cd142 O152 2.297 . S
Cd142 O153 2.439 . S
O143 Cd142 2.240 1_554 S
O143 C148 1.279 . S
O144 Cd141 2.297 . S
O144 C146 1.247 . S
O145 Cd141 2.439 . S
O145 C146 1.208 . S
C146 O144 1.247 . S
C146 O145 1.208 . S
C147 O152 1.247 . S
C147 O153 1.208 . S
C148 O140 1.315 . S
C148 O143 1.279 . S
C149 O150 1.315 . S
C149 O151 1.279 . S
O150 Cd142 2.223 1_554 S
O150 C149 1.315 . S
O151 Cd141 2.240 . S
O151 C149 1.279 . S
O152 Cd142 2.297 . S
O152 C147 1.247 . S
O153 Cd142 2.439 . S
O153 C147 1.208 . S
O154 Cd155 2.223 . S
O154 C162 1.315 1_556 S
Cd155 O154 2.223 . S
Cd155 O158 2.297 1_556 S
Cd155 O159 2.439 1_556 S
Cd155 O165 2.240 1_556 S
Cd156 O157 2.240 . S
Cd156 O164 2.223 . S
Cd156 O166 2.297 . S
Cd156 O167 2.439 . S
O157 Cd156 2.240 . S
O157 C162 1.279 . S
O158 Cd155 2.297 1_554 S
O158 C160 1.247 . S
O159 Cd155 2.439 1_554 S
O159 C160 1.208 . S
C160 O158 1.247 . S
C160 O159 1.208 . S
C161 O166 1.247 . S
C161 O167 1.208 . S
C162 O154 1.315 1_554 S
C162 O157 1.279 . S
C163 O164 1.315 1_556 S
C163 O165 1.279 1_556 S
O164 Cd156 2.223 . S
O164 C163 1.315 1_554 S
O165 Cd155 2.240 1_554 S
O165 C163 1.279 1_554 S
O166 Cd156 2.297 . S
O166 C161 1.247 . S
O167 Cd156 2.439 . S
O167 C161 1.208 . S
C9 C76 2.150 . S
C20 C63 0.916 . S
C78 C37 2.763 . S
C49 C65 1.681 . S
C104 C35 1.070 . S
C93 C51 2.834 . S
C7 C106 1.552 . S
C91 C22 2.084 . S
C132 C118 1.292 . S
C120 C162 2.235 . S
C134 C148 2.716 1_556 S
C146 C160 1.572 . S
C163 C90 2.150 . S
C119 C105 0.916 . S
C92 C135 2.763 . S
C107 C147 1.681 . S
C62 C133 1.070 . S
C79 C149 2.834 . S
C161 C64 1.552 . S
C121 C77 2.084 . S
C21 C34 1.292 . S
C8 C23 2.235 . S
C36 C50 2.716 . S
C6 C48 1.572 . S
