# Generated by pormake.
# Topology bnn, (5)-cn, num edge types: 1
# Building blocks:
#     Node 0, Type 0, BuildingBlock: BEQFEK_clean_sbu_0, # of connection points: 5
#     Node 1, Type 0, BuildingBlock: BEQFEK_clean_sbu_0, # of connection points: 5
#     Edge 2, Type (0, 0), BuildingBlock: EZIPEK_clean_linker_0, # of connection points: 2
#     Edge 3, Type (0, 0), BuildingBlock: EZIPEK_clean_linker_0, # of connection points: 2
#     Edge 4, Type (0, 0), BuildingBlock: EZIPEK_clean_linker_0, # of connection points: 2
#     Edge 5, Type (0, 0), BuildingBlock: EZIPEK_clean_linker_0, # of connection points: 2
#     Edge 6, Type (0, 0), BuildingBlock: EZIPEK_clean_linker_0, # of connection points: 2
# Relax obj value: 0.093
# Max RMSD: 0.192
# Mean RMSD: 0.179
data_MOF--net-bnn--node1-BEQFEK_clean_sbu_0--edge1-EZIPEK_clean_linker_0
_symmetry_space_group_name_H-M    P1
_symmetry_Int_Tables_number       1
_symmetry_cell_setting            triclinic
loop_
_symmetry_equiv_pos_as_xyz
'x, y, z'
_cell_length_a     18.849196
_cell_length_b     19.705519
_cell_length_c     15.586957
_cell_angle_alpha  90.52624
_cell_angle_beta   86.8347
_cell_angle_gamma 110.62046
loop_
_atom_site_label
_atom_site_type_symbol
_atom_site_fract_x
_atom_site_fract_y
_atom_site_fract_z
_atom_type_partial_charge
Co0 Co 0.36071 0.68877 0.12002 0.0
Co1 Co 0.35053 0.68602 0.92083 0.0
C2 C 0.4269 0.82367 0.00629 0.0
O3 O 0.41293 0.7908 0.07872 0.0
O4 O 0.40583 0.79047 0.93653 0.0
C5 C 0.3125 0.70687 0.2984 0.0
O6 O 0.25867 0.7259 0.2676 0.0
C7 C 0.34388 0.70508 0.73364 0.0
C8 C 0.28004 0.59185 0.69794 0.0
C9 C 0.31387 0.66139 0.66459 0.0
N10 N 0.32702 0.66323 0.80484 0.0
N11 N 0.28982 0.59559 0.78276 0.0
C12 C 0.39133 0.78399 0.73177 0.0
H13 H 0.44445 0.79232 0.76465 0.0
H14 H 0.35998 0.81442 0.76783 0.0
H15 H 0.40548 0.8055 0.66502 0.0
C16 C 0.19295 0.60661 0.10847 0.0
N17 N 0.26278 0.64649 0.07484 0.0
N18 N 0.25871 0.65417 0.99152 0.0
C19 C 0.18557 0.62444 0.97128 0.0
C20 C 0.14217 0.59239 0.04407 0.0
C21 C 0.17589 0.57395 0.19673 0.0
H22 H 0.2285 0.57453 0.22514 0.0
H23 H 0.1481 0.60478 0.23762 0.0
H24 H 0.13558 0.51721 0.19445 0.0
O25 O 0.42117 0.62882 0.08746 0.0
O26 O 0.41577 0.6289 0.94565 0.0
H27 H 0.14996 0.57409 0.85128 0.0
H28 H 0.09914 0.63025 0.89064 0.0
C29 C 0.1563 0.62581 0.88429 0.0
H30 H 0.19502 0.6722 0.84536 0.0
H31 H 0.27141 0.55181 0.82584 0.0
O32 O 0.35888 0.69144 0.24682 0.0
C33 C 0.43805 0.60941 0.01364 0.0
Co34 Co 0.67562 0.33221 0.12029 0.0
Co35 Co 0.69864 0.33972 0.91759 0.0
C36 C 0.60783 0.41654 0.01163 0.0
O37 O 0.6195 0.39514 0.08475 0.0
O38 O 0.63411 0.39867 0.94145 0.0
C39 C 0.65232 0.36016 0.29804 0.0
O40 O 0.64582 0.41943 0.26733 0.0
C41 C 0.66979 0.33606 0.73249 0.0
C42 C 0.76953 0.31448 0.67519 0.0
C43 C 0.7048 0.32726 0.65478 0.0
N44 N 0.7118 0.32846 0.79629 0.0
N45 N 0.77107 0.31515 0.76146 0.0
C46 C 0.59959 0.35454 0.74578 0.0
H47 H 0.61604 0.41314 0.76025 0.0
H48 H 0.56446 0.32355 0.8017 0.0
H49 H 0.5661 0.34282 0.68756 0.0
C50 C 0.60909 0.17557 0.083 0.0
N51 N 0.64517 0.2449 0.05757 0.0
N52 N 0.65429 0.24772 0.97311 0.0
C53 C 0.6237 0.1801 0.94219 0.0
C54 C 0.59424 0.13225 0.01077 0.0
C55 C 0.58655 0.15206 0.17451 0.0
H56 H 0.63737 0.17145 0.21329 0.0
H57 H 0.5459 0.17744 0.20037 0.0
H58 H 0.56007 0.09221 0.18069 0.0
O59 O 0.78535 0.38551 0.10054 0.0
O60 O 0.80111 0.39447 0.95825 0.0
H61 H 0.67664 0.17614 0.81847 0.0
H62 H 0.58635 0.10383 0.83862 0.0
C63 C 0.61858 0.16219 0.84875 0.0
H64 H 0.59035 0.19518 0.81698 0.0
H65 H 0.81342 0.30789 0.79667 0.0
O66 O 0.6608 0.31291 0.24643 0.0
C67 C 0.82725 0.40819 0.03255 0.0
C68 C 0.55956 0.58768 0.03086 0.0
C69 C 0.48295 0.56118 0.00741 0.0
C70 C 0.4881 0.43927 0.98692 0.0
C71 C 0.56517 0.46637 0.0082 0.0
N72 N 0.6788 0.56691 0.03627 0.0
N73 N 0.3756 0.46493 0.95413 0.0
C74 C 0.6022 0.54078 0.0264 0.0
C75 C 0.44774 0.48794 0.98216 0.0
N76 N 0.59131 0.65764 0.05791 0.0
N77 N 0.45289 0.36645 0.97472 0.0
H78 H 0.34204 0.4972 0.95528 0.0
H79 H 0.34989 0.4151 0.92526 0.0
H80 H 0.48119 0.32955 0.97621 0.0
H81 H 0.39482 0.34143 0.96839 0.0
H82 H 0.64326 0.67783 0.08629 0.0
H83 H 0.56401 0.69531 0.05583 0.0
H84 H 0.71111 0.62171 0.04084 0.0
H85 H 0.71173 0.53401 0.03335 0.0
C86 C 0.92694 0.52319 0.07881 0.0
C87 C 0.90804 0.45375 0.04019 0.0
C88 C 0.04326 0.47169 0.01645 0.0
C89 C 0.06173 0.54332 0.04778 0.0
N90 N 0.02365 0.64063 0.10246 0.0
N91 N 0.94657 0.36232 0.96825 0.0
C92 C 0.00427 0.56981 0.07803 0.0
C93 C 0.96582 0.42816 0.00774 0.0
N94 N 0.87096 0.54476 0.1159 0.0
N95 N 0.09991 0.44465 -0.00229 0.0
H96 H 0.89081 0.32623 0.96658 0.0
H97 H 0.98525 0.34455 0.93335 0.0
H98 H 0.15727 0.475 0.0033 0.0
H99 H 0.09041 0.39064 0.98311 0.0
H100 H 0.88134 0.59023 0.15451 0.0
H101 H 0.81328 0.51517 0.1124 0.0
H102 H 0.9846 0.66633 0.11524 0.0
H103 H 0.0798 0.67574 0.10489 0.0
C104 C 0.43111 0.9508 0.0303 0.0
C105 C 0.46894 0.90274 0.00375 0.0
C106 C 0.58959 0.00478 0.98531 0.0
C107 C 0.5509 0.05318 0.00708 0.0
N108 N 0.4335 0.07466 0.03489 0.0
N109 N 0.58097 0.88305 0.94459 0.0
C110 C 0.47121 0.02687 0.02541 0.0
C111 C 0.54723 0.92954 0.97741 0.0
N112 N 0.35703 0.92365 0.06109 0.0
N113 N 0.66712 0.03045 0.97556 0.0
H114 H 0.55266 0.82716 0.94129 0.0
H115 H 0.63538 0.90011 0.91515 0.0
H116 H 0.70003 0.08523 0.98047 0.0
H117 H 0.69945 0.99723 0.96906 0.0
H118 H 0.32901 0.95519 0.09121 0.0
H119 H 0.32454 0.86846 0.06153 0.0
H120 H 0.3746 0.05901 0.03922 0.0
H121 H 0.46086 0.13076 0.03118 0.0
C122 C 0.29139 0.73146 0.54041 0.0
C123 C 0.32109 0.68027 0.57196 0.0
C124 C 0.33805 0.64175 0.42562 0.0
C125 C 0.31674 0.69868 0.39273 0.0
N126 N 0.29581 0.81138 0.42217 0.0
N127 N 0.39519 0.60396 0.54218 0.0
C128 C 0.30002 0.74774 0.45101 0.0
C129 C 0.35183 0.64111 0.51375 0.0
N130 N 0.25243 0.76251 0.59455 0.0
N131 N 0.34052 0.58542 0.37521 0.0
H132 H 0.40933 0.60477 0.60606 0.0
H133 H 0.42424 0.57977 0.50052 0.0
H134 H 0.32445 0.5786 0.3121 0.0
H135 H 0.34931 0.54016 0.3998 0.0
H136 H 0.22351 0.79478 0.57262 0.0
H137 H 0.2429 0.75056 0.66012 0.0
H138 H 0.28983 0.85112 0.46355 0.0
H139 H 0.30777 0.8285 0.35822 0.0
C140 C 0.61241 0.29226 0.43902 0.0
C141 C 0.66145 0.35346 0.39126 0.0
C142 C 0.7272 0.40324 0.52168 0.0
C143 C 0.68471 0.3382 0.56658 0.0
N144 N 0.59117 0.21758 0.56775 0.0
N145 N 0.77504 0.46067 0.38357 0.0
C146 C 0.62816 0.28182 0.52532 0.0
C147 C 0.72111 0.40758 0.43169 0.0
N148 N 0.54962 0.24539 0.4027 0.0
N149 N 0.77272 0.46137 0.56533 0.0
H150 H 0.77513 0.46448 0.3169 0.0
H151 H 0.82416 0.49668 0.40858 0.0
H152 H 0.77854 0.4602 0.63143 0.0
H153 H 0.79876 0.51271 0.53767 0.0
H154 H 0.50762 0.20377 0.43665 0.0
H155 H 0.536 0.25192 0.34008 0.0
H156 H 0.55576 0.17141 0.53819 0.0
H157 H 0.59974 0.2089 0.63168 0.0
loop_
_geom_bond_atom_site_label_1
_geom_bond_atom_site_label_2
_geom_bond_distance
_geom_bond_site_symmetry_2
_ccdc_geom_bond_type
Co0 O3 1.970 . S
Co0 N17 1.989 . S
Co0 O25 1.967 . S
Co0 O32 1.920 . S
Co1 O4 1.966 . S
Co1 N10 2.022 . S
Co1 N18 1.993 . S
Co1 O26 1.941 . S
C2 O3 1.258 . S
C2 O4 1.263 1_554 S
O3 Co0 1.970 . S
O3 C2 1.258 . S
O4 Co1 1.966 . S
O4 C2 1.263 1_556 S
C5 O6 1.235 . S
C5 O32 1.289 . S
O6 C5 1.235 . S
C7 C9 1.400 . S
C7 N10 1.351 . S
C7 C12 1.501 . S
C8 C9 1.387 . S
C8 N11 1.341 . S
C9 C7 1.400 . S
C9 C8 1.387 . S
N10 Co1 2.022 . S
N10 C7 1.351 . S
N10 N11 1.365 . S
N11 C8 1.341 . S
N11 N10 1.365 . S
N11 H31 0.862 . S
C12 C7 1.501 . S
C12 H13 0.961 . S
C12 H14 0.961 . S
C12 H15 0.960 . S
H13 C12 0.961 . S
H14 C12 0.961 . S
H15 C12 0.960 . S
C16 N17 1.342 . S
C16 C20 1.401 . S
C16 C21 1.499 . S
N17 Co0 1.989 . S
N17 C16 1.342 . S
N17 N18 1.388 1_554 S
N18 Co1 1.993 . S
N18 N17 1.388 1_556 S
N18 C19 1.346 . S
C19 N18 1.346 . S
C19 C20 1.396 1_556 S
C19 C29 1.510 . S
C20 C16 1.401 . S
C20 C19 1.396 1_554 S
C21 C16 1.499 . S
C21 H22 0.959 . S
C21 H23 0.960 . S
C21 H24 0.961 . S
H22 C21 0.959 . S
H23 C21 0.960 . S
H24 C21 0.961 . S
O25 Co0 1.967 . S
O25 C33 1.258 . S
O26 Co1 1.941 . S
O26 C33 1.266 1_556 S
H27 C29 0.959 . S
H28 C29 0.961 . S
C29 C19 1.510 . S
C29 H27 0.959 . S
C29 H28 0.961 . S
C29 H30 0.960 . S
H30 C29 0.960 . S
H31 N11 0.862 . S
O32 Co0 1.920 . S
O32 C5 1.289 . S
C33 O25 1.258 . S
C33 O26 1.266 1_554 S
Co34 O37 1.970 . S
Co34 N51 1.989 . S
Co34 O59 1.967 . S
Co34 O66 1.920 . S
Co35 O38 1.966 . S
Co35 N44 2.022 . S
Co35 N52 1.993 . S
Co35 O60 1.941 . S
C36 O37 1.258 . S
C36 O38 1.263 1_554 S
O37 Co34 1.970 . S
O37 C36 1.258 . S
O38 Co35 1.966 . S
O38 C36 1.263 1_556 S
C39 O40 1.235 . S
C39 O66 1.289 . S
O40 C39 1.235 . S
C41 C43 1.400 . S
C41 N44 1.351 . S
C41 C46 1.501 . S
C42 C43 1.387 . S
C42 N45 1.341 . S
C43 C41 1.400 . S
C43 C42 1.387 . S
N44 Co35 2.022 . S
N44 C41 1.351 . S
N44 N45 1.365 . S
N45 C42 1.341 . S
N45 N44 1.365 . S
N45 H65 0.862 . S
C46 C41 1.501 . S
C46 H47 0.961 . S
C46 H48 0.961 . S
C46 H49 0.960 . S
H47 C46 0.961 . S
H48 C46 0.961 . S
H49 C46 0.960 . S
C50 N51 1.342 . S
C50 C54 1.401 . S
C50 C55 1.499 . S
N51 Co34 1.989 . S
N51 C50 1.342 . S
N51 N52 1.388 1_554 S
N52 Co35 1.993 . S
N52 N51 1.388 1_556 S
N52 C53 1.346 . S
C53 N52 1.346 . S
C53 C54 1.396 1_556 S
C53 C63 1.510 . S
C54 C50 1.401 . S
C54 C53 1.396 1_554 S
C55 C50 1.499 . S
C55 H56 0.959 . S
C55 H57 0.960 . S
C55 H58 0.961 . S
H56 C55 0.959 . S
H57 C55 0.960 . S
H58 C55 0.961 . S
O59 Co34 1.967 . S
O59 C67 1.258 . S
O60 Co35 1.941 . S
O60 C67 1.266 1_556 S
H61 C63 0.959 . S
H62 C63 0.961 . S
C63 C53 1.510 . S
C63 H61 0.959 . S
C63 H62 0.961 . S
C63 H64 0.960 . S
H64 C63 0.960 . S
H65 N45 0.862 . S
O66 Co34 1.920 . S
O66 C39 1.289 . S
C67 O59 1.258 . S
C67 O60 1.266 1_554 S
C68 C69 1.363 . S
C68 C74 1.379 . S
C68 N76 1.356 . S
C69 C68 1.363 . S
C69 C75 1.363 1_554 S
C70 C71 1.363 1_556 S
C70 C75 1.379 . S
C70 N77 1.356 . S
C71 C70 1.363 1_554 S
C71 C74 1.363 . S
N72 C74 1.356 . S
N72 H84 0.984 . S
N72 H85 0.985 . S
N73 C75 1.356 . S
N73 H78 0.984 . S
N73 H79 0.985 . S
C74 C68 1.379 . S
C74 C71 1.363 . S
C74 N72 1.356 . S
C75 C69 1.363 1_556 S
C75 C70 1.379 . S
C75 N73 1.356 . S
N76 C68 1.356 . S
N76 H82 0.984 . S
N76 H83 0.984 . S
N77 C70 1.356 . S
N77 H80 0.984 . S
N77 H81 0.985 . S
H78 N73 0.984 . S
H79 N73 0.985 . S
H80 N77 0.984 . S
H81 N77 0.985 . S
H82 N76 0.984 . S
H83 N76 0.984 . S
H84 N72 0.984 . S
H85 N72 0.985 . S
C86 C87 1.363 . S
C86 C92 1.379 1_655 S
C86 N94 1.356 . S
C87 C86 1.363 . S
C87 C93 1.363 1_554 S
C88 C89 1.363 1_556 S
C88 C93 1.379 1_455 S
C88 N95 1.356 . S
C89 C88 1.363 1_554 S
C89 C92 1.363 . S
N90 C92 1.356 . S
N90 H102 0.984 . S
N90 H103 0.985 . S
N91 C93 1.356 . S
N91 H96 0.984 . S
N91 H97 0.985 . S
C92 C86 1.379 1_455 S
C92 C89 1.363 . S
C92 N90 1.356 . S
C93 C87 1.363 1_556 S
C93 C88 1.379 1_655 S
C93 N91 1.356 . S
N94 C86 1.356 . S
N94 H100 0.984 . S
N94 H101 0.984 . S
N95 C88 1.356 . S
N95 H98 0.984 . S
N95 H99 0.985 . S
H96 N91 0.984 . S
H97 N91 0.985 . S
H98 N95 0.984 . S
H99 N95 0.985 . S
H100 N94 0.984 . S
H101 N94 0.984 . S
H102 N90 0.984 . S
H103 N90 0.985 . S
C104 C105 1.363 . S
C104 C110 1.379 1_565 S
C104 N112 1.356 . S
C105 C104 1.363 . S
C105 C111 1.363 1_554 S
C106 C107 1.363 1_566 S
C106 C111 1.379 . S
C106 N113 1.356 1_565 S
C107 C106 1.363 1_544 S
C107 C110 1.363 . S
N108 C110 1.356 . S
N108 H120 0.984 . S
N108 H121 0.985 . S
N109 C111 1.356 . S
N109 H114 0.984 . S
N109 H115 0.985 . S
C110 C104 1.379 1_545 S
C110 C107 1.363 . S
C110 N108 1.356 . S
C111 C105 1.363 1_556 S
C111 C106 1.379 . S
C111 N109 1.356 . S
N112 C104 1.356 . S
N112 H118 0.984 . S
N112 H119 0.984 . S
N113 C106 1.356 1_545 S
N113 H116 0.984 . S
N113 H117 0.985 . S
H114 N109 0.984 . S
H115 N109 0.985 . S
H116 N113 0.984 . S
H117 N113 0.985 . S
H118 N112 0.984 . S
H119 N112 0.984 . S
H120 N108 0.984 . S
H121 N108 0.985 . S
C122 C123 1.363 . S
C122 C128 1.379 . S
C122 N130 1.356 . S
C123 C122 1.363 . S
C123 C129 1.363 . S
C124 C125 1.363 . S
C124 C129 1.379 . S
C124 N131 1.356 . S
C125 C124 1.363 . S
C125 C128 1.363 . S
N126 C128 1.356 . S
N126 H138 0.984 . S
N126 H139 0.985 . S
N127 C129 1.356 . S
N127 H132 0.984 . S
N127 H133 0.985 . S
C128 C122 1.379 . S
C128 C125 1.363 . S
C128 N126 1.356 . S
C129 C123 1.363 . S
C129 C124 1.379 . S
C129 N127 1.356 . S
N130 C122 1.356 . S
N130 H136 0.984 . S
N130 H137 0.984 . S
N131 C124 1.356 . S
N131 H134 0.984 . S
N131 H135 0.985 . S
H132 N127 0.984 . S
H133 N127 0.985 . S
H134 N131 0.984 . S
H135 N131 0.985 . S
H136 N130 0.984 . S
H137 N130 0.984 . S
H138 N126 0.984 . S
H139 N126 0.985 . S
C140 C141 1.363 . S
C140 C146 1.379 . S
C140 N148 1.356 . S
C141 C140 1.363 . S
C141 C147 1.363 . S
C142 C143 1.363 . S
C142 C147 1.379 . S
C142 N149 1.356 . S
C143 C142 1.363 . S
C143 C146 1.363 . S
N144 C146 1.356 . S
N144 H156 0.984 . S
N144 H157 0.985 . S
N145 C147 1.356 . S
N145 H150 0.984 . S
N145 H151 0.985 . S
C146 C140 1.379 . S
C146 C143 1.363 . S
C146 N144 1.356 . S
C147 C141 1.363 . S
C147 C142 1.379 . S
C147 N145 1.356 . S
N148 C140 1.356 . S
N148 H154 0.984 . S
N148 H155 0.984 . S
N149 C142 1.356 . S
N149 H152 0.984 . S
N149 H153 0.985 . S
H150 N145 0.984 . S
H151 N145 0.985 . S
H152 N149 0.984 . S
H153 N149 0.985 . S
H154 N148 0.984 . S
H155 N148 0.984 . S
H156 N144 0.984 . S
H157 N144 0.985 . S
C69 C33 1.569 . S
C71 C36 1.569 . S
C87 C67 1.468 . S
C89 C20 1.470 . S
C105 C2 1.574 . S
C107 C54 1.546 . S
C123 C9 1.402 . S
C125 C5 1.501 . S
C141 C39 1.503 . S
C143 C43 1.417 . S
