# Generated by pormake.
# Topology und, (4)-cn, num edge types: 1
# Building blocks:
#     Node 0, Type 0, BuildingBlock: AZAVOO_clean_sbu_0, # of connection points: 4
#     Node 1, Type 0, BuildingBlock: AZAVOO_clean_sbu_0, # of connection points: 4
#     Node 2, Type 0, BuildingBlock: AZAVOO_clean_sbu_0, # of connection points: 4
#     Node 3, Type 0, BuildingBlock: AZAVOO_clean_sbu_0, # of connection points: 4
#     Node 4, Type 0, BuildingBlock: AZAVOO_clean_sbu_0, # of connection points: 4
#     Node 5, Type 0, BuildingBlock: AZAVOO_clean_sbu_0, # of connection points: 4
#     Node 6, Type 0, BuildingBlock: AZAVOO_clean_sbu_0, # of connection points: 4
#     Node 7, Type 0, BuildingBlock: AZAVOO_clean_sbu_0, # of connection points: 4
#     Node 8, Type 0, BuildingBlock: AZAVOO_clean_sbu_0, # of connection points: 4
#     Node 9, Type 0, BuildingBlock: AZAVOO_clean_sbu_0, # of connection points: 4
#     Node 10, Type 0, BuildingBlock: AZAVOO_clean_sbu_0, # of connection points: 4
#     Node 11, Type 0, BuildingBlock: AZAVOO_clean_sbu_0, # of connection points: 4
#     Node 12, Type 0, BuildingBlock: AZAVOO_clean_sbu_0, # of connection points: 4
#     Node 13, Type 0, BuildingBlock: AZAVOO_clean_sbu_0, # of connection points: 4
#     Node 14, Type 0, BuildingBlock: AZAVOO_clean_sbu_0, # of connection points: 4
#     Node 15, Type 0, BuildingBlock: AZAVOO_clean_sbu_0, # of connection points: 4
#     Edge 16, Type (0, 0), None
#     Edge 17, Type (0, 0), None
#     Edge 18, Type (0, 0), None
#     Edge 19, Type (0, 0), None
#     Edge 20, Type (0, 0), None
#     Edge 21, Type (0, 0), None
#     Edge 22, Type (0, 0), None
#     Edge 23, Type (0, 0), None
#     Edge 24, Type (0, 0), None
#     Edge 25, Type (0, 0), None
#     Edge 26, Type (0, 0), None
#     Edge 27, Type (0, 0), None
#     Edge 28, Type (0, 0), None
#     Edge 29, Type (0, 0), None
#     Edge 30, Type (0, 0), None
#     Edge 31, Type (0, 0), None
#     Edge 32, Type (0, 0), None
#     Edge 33, Type (0, 0), None
#     Edge 34, Type (0, 0), None
#     Edge 35, Type (0, 0), None
#     Edge 36, Type (0, 0), None
#     Edge 37, Type (0, 0), None
#     Edge 38, Type (0, 0), None
#     Edge 39, Type (0, 0), None
#     Edge 40, Type (0, 0), None
#     Edge 41, Type (0, 0), None
#     Edge 42, Type (0, 0), None
#     Edge 43, Type (0, 0), None
#     Edge 44, Type (0, 0), None
#     Edge 45, Type (0, 0), None
#     Edge 46, Type (0, 0), None
#     Edge 47, Type (0, 0), None
# Relax obj value: 0.167
# Max RMSD: 0.211
# Mean RMSD: 0.200
data_MOF--net-und--node1-AZAVOO_clean_sbu_0--edge1-none
_symmetry_space_group_name_H-M    P1
_symmetry_Int_Tables_number       1
_symmetry_cell_setting            triclinic
loop_
_symmetry_equiv_pos_as_xyz
'x, y, z'
_cell_length_a     25.26728
_cell_length_b     25.27203
_cell_length_c     10.523177
_cell_angle_alpha  94.270731
_cell_angle_beta   94.323136
_cell_angle_gamma 98.814127
loop_
_atom_site_label
_atom_site_type_symbol
_atom_site_fract_x
_atom_site_fract_y
_atom_site_fract_z
_atom_type_partial_charge
Mg0 Mg 0.30421 0.47585 0.18524 0.0
O1 O 0.30329 0.4053 0.03887 0.0
O2 O 0.25249 0.32835 0.07903 0.0
Mg3 Mg 0.19404 0.3604 0.21341 0.0
C4 C 0.28824 0.35466 0.01813 0.0
C5 C 0.37054 0.54632 0.95603 0.0
O6 O 0.40816 0.58677 0.94211 0.0
O7 O 0.22976 0.50514 0.09672 0.0
O8 O 0.18813 0.42337 0.07521 0.0
O9 O 0.35052 0.43128 0.32821 0.0
O10 O 0.26249 0.42083 0.30404 0.0
C11 C 0.18868 0.47194 0.11629 0.0
C12 C 0.30467 0.40793 0.35927 0.0
O13 O 0.36233 0.53384 0.07013 0.0
Mg14 Mg 0.91989 0.06128 0.11421 0.0
O15 O 0.98428 0.08711 0.27979 0.0
O16 O 0.04377 0.15871 0.2425 0.0
Mg17 Mg 0.99237 0.19988 0.10131 0.0
C18 C 0.02958 0.11774 0.30364 0.0
C19 C 0.86594 0.97787 0.33372 0.0
O20 O 0.84789 0.92786 0.35128 0.0
O21 O 0.85683 0.11312 0.17161 0.0
O22 O 0.9247 0.17644 0.22309 0.0
O23 O 0.98742 0.03953 -0.00523 0.0
O24 O 0.96247 0.11897 0.00211 0.0
C25 C 0.87622 0.16276 0.17734 0.0
C26 C 0.99375 0.08795 -0.04002 0.0
O27 O 0.88272 0.9883 0.22451 0.0
Mg28 Mg 0.31853 0.75777 0.31422 0.0
O29 O 0.33186 0.82906 0.45988 0.0
O30 O 0.27372 0.88605 0.43328 0.0
Mg31 Mg 0.22184 0.85137 0.24542 0.0
C32 C 0.31459 0.87214 0.49289 0.0
C33 C 0.39581 0.73267 0.55624 0.0
O34 O 0.42127 0.7814 0.5473 0.0
O35 O 0.23922 0.72284 0.37572 0.0
O36 O 0.17846 0.77601 0.3273 0.0
O37 O 0.3716 0.80636 0.18209 0.0
O38 O 0.28476 0.80457 0.18554 0.0
C39 C 0.19125 0.73279 0.36737 0.0
C40 C 0.32832 0.82348 0.14115 0.0
O41 O 0.3589 0.71159 0.46968 0.0
Mg42 Mg 0.5779 1.00899 0.92963 0.0
O43 O 0.52001 1.00437 0.757 0.0
O44 O 0.4566 0.05362 0.80543 0.0
Mg45 Mg 0.47294 0.08895 0.01523 0.0
C46 C 0.47657 1.0222 0.72857 0.0
C47 C 0.63354 0.95548 0.70298 0.0
O48 O 0.58643 0.92445 0.6891 0.0
O49 O 0.60854 0.09752 0.92605 0.0
O50 O 0.5476 0.14863 -0.0185 0.0
O51 O 0.60875 1.02256 0.13826 0.0
O52 O 0.52665 0.03018 0.05995 0.0
C53 C 0.59471 0.14319 0.9525 0.0
C54 C 0.56255 0.03721 0.15424 0.0
O55 O 0.64436 0.99109 0.7979 0.0
Mg56 Mg 0.8104 0.77036 0.16666 0.0
O57 O 0.72235 0.72462 0.13277 0.0
O58 O 0.66862 0.7854 0.17447 0.0
Mg59 Mg 0.71925 0.86865 0.2258 0.0
C60 C 0.67568 0.73708 0.14647 0.0
C61 C 0.89528 0.71218 0.05663 0.0
O62 O 0.92109 0.7591 0.10643 0.0
O63 O 0.81008 0.81403 -0.01893 0.0
O64 O 0.75526 0.87216 0.03481 0.0
O65 O 0.80448 0.75739 0.37857 0.0
O66 O 0.78516 0.82797 0.28496 0.0
C67 C 0.78641 0.85399 0.95852 0.0
C68 C 0.7869 0.80293 0.38517 0.0
O69 O 0.845 0.70084 0.06672 0.0
Mg70 Mg 0.10033 0.07964 0.62733 0.0
O71 O 0.15715 0.16254 0.65948 0.0
O72 O 0.10288 0.22427 0.64625 0.0
Mg73 Mg 1.01459 0.18454 0.60798 0.0
C74 C 0.14987 0.21151 0.65797 0.0
C75 C 0.15646 0.98546 0.70664 0.0
O76 O 0.10971 0.96055 0.65356 0.0
O77 O 0.06373 0.0801 0.82149 0.0
O78 O 1.00936 0.14086 0.7905 0.0
O79 O 0.10394 0.08472 0.41296 0.0
O80 O 0.04224 0.11341 0.52466 0.0
C81 C 1.02642 0.1054 0.85609 0.0
C82 C 0.0619 0.1081 0.41745 0.0
O83 O 0.16738 0.03636 0.70764 0.0
Mg84 Mg 0.7365 0.40316 0.47741 0.0
O85 O 0.80196 0.46923 0.57535 0.0
O86 O 0.86227 0.43083 0.48067 0.0
Mg87 Mg 0.85856 0.34166 0.49742 0.0
C88 C 0.8506 0.46293 0.56935 0.0
C89 C 0.64904 0.44184 0.31695 0.0
O90 O 0.64031 0.38938 0.2924 0.0
O91 O 0.76769 0.39766 0.28226 0.0
O92 O 0.81071 0.32714 0.30097 0.0
O93 O 0.71855 0.37725 0.67319 0.0
O94 O 0.77931 0.34779 0.5617 0.0
C95 C 0.78066 0.35378 0.23638 0.0
C96 C 0.75632 0.34816 0.6649 0.0
O97 O 0.68531 0.46317 0.40392 0.0
Mg98 Mg 0.48093 0.09621 0.41571 0.0
O99 O 0.42124 0.07549 0.23484 0.0
O100 O 0.39762 0.99692 0.30038 0.0
Mg101 Mg 0.46999 0.95418 0.31914 0.0
C102 C 0.39457 0.02853 0.21323 0.0
C103 C 0.44657 0.18543 0.59242 0.0
O104 O 0.48127 0.16635 0.66857 0.0
O105 O 0.43039 0.04507 0.54423 0.0
O106 O 0.47053 0.97254 0.53232 0.0
O107 O 0.54497 0.11394 0.27885 0.0
O108 O 0.52308 0.03459 0.34755 0.0
C109 C 0.45243 1.00934 0.59781 0.0
C110 C 0.54971 0.06353 0.27265 0.0
O111 O 0.43939 0.16786 0.47492 0.0
Mg112 Mg 0.79183 0.95064 0.66836 0.0
O113 O 0.78441 0.87967 0.51766 0.0
O114 O 0.73695 0.80253 0.56793 0.0
Mg115 Mg 0.68075 0.83699 0.70364 0.0
C116 C 0.76996 0.82875 0.50029 0.0
C117 C 0.86835 1.01934 0.4416 0.0
O118 O 0.89424 0.06775 0.43118 0.0
O119 O 0.71437 0.98361 0.60857 0.0
O120 O 0.67683 0.9006 0.56691 0.0
O121 O 0.83847 0.90354 0.80771 0.0
O122 O 0.75101 0.89612 0.7898 0.0
C123 C 0.67291 0.94806 0.60861 0.0
C124 C 0.79276 0.88192 0.84243 0.0
O125 O 0.84611 1.01011 0.54571 0.0
Mg126 Mg 0.40213 0.58983 0.60755 0.0
O127 O 0.47437 0.59136 0.74927 0.0
O128 O 0.55066 0.64354 0.71148 0.0
Mg129 Mg 0.51696 0.7011 0.57645 0.0
C130 C 0.52483 0.6071 0.77128 0.0
C131 C 0.3382 0.51828 0.84083 0.0
O132 O 0.29838 0.48004 0.85556 0.0
O133 O 0.37321 0.66466 0.69545 0.0
O134 O 0.45478 0.70701 0.71657 0.0
O135 O 0.44546 0.5449 0.46035 0.0
O136 O 0.45525 0.63291 0.48717 0.0
C137 C 0.40625 0.70565 0.67394 0.0
C138 C 0.46756 0.59119 0.42901 0.0
O139 O 0.34695 0.53018 0.72649 0.0
Mg140 Mg 0.76038 0.22949 0.89193 0.0
O141 O 0.77352 0.28889 0.0641 0.0
O142 O 0.71313 0.34458 0.06246 0.0
Mg143 Mg 0.65717 0.31983 0.87656 0.0
C144 C 0.75508 0.32895 0.11245 0.0
C145 C 0.85184 0.19745 0.09021 0.0
O146 O 0.86964 0.24932 0.1008 0.0
O147 O 0.68444 0.1828 0.95065 0.0
O148 O 0.62081 0.23532 0.926 0.0
O149 O 0.80814 0.29041 0.77823 0.0
O150 O 0.7211 0.28262 0.79357 0.0
C151 C 0.63556 0.19042 0.94751 0.0
C152 C 0.76306 0.30742 0.75252 0.0
O153 O 0.81266 0.17795 0.00779 0.0
Mg154 Mg 0.12994 0.56372 0.45807 0.0
O155 O 0.06019 0.54558 0.30756 0.0
O156 O 0.99999 0.60074 0.32883 0.0
Mg157 Mg 0.03083 0.65516 0.51506 0.0
C158 C 1.0162 0.56062 0.27174 0.0
C159 C 0.16029 0.48307 0.23093 0.0
O160 O 0.11229 0.45603 0.24052 0.0
O161 O 0.16213 0.64278 0.39104 0.0
O162 O 0.10555 0.70075 0.43474 0.0
O163 O 0.08324 0.50909 0.58696 0.0
O164 O 0.08022 0.59544 0.5806 0.0
C165 C 0.14979 0.68988 0.3967 0.0
C166 C 0.0631 0.55112 0.6245 0.0
O167 O 0.17911 0.52266 0.31247 0.0
Mg168 Mg 0.33018 0.29858 0.68528 0.0
O169 O 0.24402 0.24618 0.65467 0.0
O170 O 0.18673 0.3033 0.69663 0.0
Mg171 Mg 0.23148 0.38908 0.74226 0.0
C172 C 0.19637 0.25578 0.67006 0.0
C173 C 0.41607 0.22582 0.64514 0.0
O174 O 0.4346 0.25438 0.75306 0.0
O175 O 0.32549 0.34114 0.49794 0.0
O176 O 0.26611 0.3948 0.54962 0.0
O177 O 0.32692 0.28637 0.89724 0.0
O178 O 0.30169 0.35448 0.80211 0.0
C179 C 0.29851 0.37868 0.47374 0.0
C180 C 0.306 0.33007 0.90297 0.0
O181 O 0.3708 0.23195 0.59154 0.0
Mg182 Mg 0.57638 0.56324 0.10707 0.0
O183 O 0.63301 0.64568 0.1418 0.0
O184 O 0.58201 0.70883 0.10425 0.0
Mg185 Mg 0.49452 0.66887 0.05223 0.0
C186 C 0.62774 0.69473 0.13036 0.0
C187 C 0.61722 0.47452 0.24251 0.0
O188 O 0.56805 0.45397 0.19619 0.0
O189 O 0.53278 0.56926 0.28975 0.0
O190 O 0.48383 0.6331 0.24333 0.0
O191 O 0.59078 0.56617 0.89515 0.0
O192 O 0.5246 0.59601 -0.01163 0.0
C193 C 0.49733 0.59826 0.31599 0.0
C194 C 0.54901 0.59012 0.88818 0.0
O195 O 0.63721 0.52125 0.21565 0.0
Mg196 Mg 0.3022 0.92542 0.8788 0.0
O197 O 0.34461 1.00124 0.01194 0.0
O198 O 0.42248 0.9746 0.04939 0.0
Mg199 Mg 0.40194 0.93096 0.85959 0.0
C200 C 0.38863 1.00386 0.08153 0.0
C201 C 0.19644 0.95396 0.75668 0.0
O202 O 0.19261 0.90299 0.71605 0.0
O203 O 0.31837 0.93818 0.66921 0.0
O204 O 0.37734 0.88377 0.67319 0.0
O205 O 0.29018 0.89538 0.06173 0.0
O206 O 0.35523 0.86623 0.95667 0.0
C207 C 0.3399 0.9019 0.61265 0.0
C208 C 0.32707 0.86556 0.054 0.0
O209 O 0.23585 0.97565 0.83526 0.0
Mg210 Mg 0.9594 0.57033 0.88524 0.0
O211 O 0.88542 0.51812 0.76117 0.0
O212 O 0.92254 0.44718 0.7094 0.0
Mg213 Mg 0.96409 0.46966 0.90218 0.0
C214 C 0.88785 0.47694 0.68488 0.0
C215 C 0.92605 0.67256 0.00147 0.0
O216 O 0.97805 0.6783 0.03269 0.0
O217 O 0.95007 0.55338 0.09496 0.0
O218 O 1.00831 0.49792 0.0916 0.0
O219 O 0.98711 0.58332 0.69961 0.0
O220 O 1.0237 0.52426 0.81144 0.0
C221 C 0.98793 0.534 0.15153 0.0
C222 C 1.02072 0.54997 0.71064 0.0
O223 O 0.90348 0.6318 0.9281 0.0
loop_
_geom_bond_atom_site_label_1
_geom_bond_atom_site_label_2
_geom_bond_distance
_geom_bond_site_symmetry_2
_ccdc_geom_bond_type
Mg0 O1 2.028 1_554 S
Mg0 O7 1.986 . S
Mg0 O9 2.114 . S
Mg0 O10 2.251 . S
Mg0 O13 2.010 . S
O1 Mg0 2.028 1_556 S
O1 C4 1.250 . S
O2 Mg3 2.028 1_556 S
O2 C4 1.248 . S
Mg3 O2 2.028 1_554 S
Mg3 O8 2.032 . S
Mg3 O10 2.079 . S
C4 O1 1.250 . S
C4 O2 1.248 . S
C5 O6 1.264 . S
C5 O13 1.249 . S
O6 C5 1.264 . S
O7 Mg0 1.986 . S
O7 C11 1.246 . S
O8 Mg3 2.032 . S
O8 C11 1.259 . S
O9 Mg0 2.114 . S
O9 C12 1.252 . S
O10 Mg0 2.251 . S
O10 Mg3 2.079 . S
O10 C12 1.273 . S
C11 O7 1.246 . S
C11 O8 1.259 . S
C12 O9 1.252 . S
C12 O10 1.273 . S
O13 Mg0 2.010 . S
O13 C5 1.249 . S
Mg14 O15 2.028 . S
Mg14 O21 1.986 . S
Mg14 O23 2.114 . S
Mg14 O24 2.251 . S
Mg14 O27 2.010 . S
O15 Mg14 2.028 . S
O15 C18 1.250 . S
O16 Mg17 2.028 . S
O16 C18 1.248 1_455 S
Mg17 O16 2.028 . S
Mg17 O22 2.032 1_455 S
Mg17 O24 2.079 1_455 S
C18 O15 1.250 . S
C18 O16 1.248 1_655 S
C19 O20 1.264 . S
C19 O27 1.249 1_565 S
O20 C19 1.264 . S
O21 Mg14 1.986 . S
O21 C25 1.246 . S
O22 Mg17 2.032 1_655 S
O22 C25 1.259 . S
O23 Mg14 2.114 . S
O23 C26 1.252 . S
O24 Mg14 2.251 . S
O24 Mg17 2.079 1_655 S
O24 C26 1.273 . S
C25 O21 1.246 . S
C25 O22 1.259 . S
C26 O23 1.252 . S
C26 O24 1.273 . S
O27 Mg14 2.010 . S
O27 C19 1.249 1_545 S
Mg28 O29 2.028 . S
Mg28 O35 1.986 . S
Mg28 O37 2.114 . S
Mg28 O38 2.251 . S
Mg28 O41 2.010 . S
O29 Mg28 2.028 . S
O29 C32 1.250 . S
O30 Mg31 2.028 . S
O30 C32 1.248 . S
Mg31 O30 2.028 . S
Mg31 O36 2.032 . S
Mg31 O38 2.079 . S
C32 O29 1.250 . S
C32 O30 1.248 . S
C33 O34 1.264 . S
C33 O41 1.249 . S
O34 C33 1.264 . S
O35 Mg28 1.986 . S
O35 C39 1.246 . S
O36 Mg31 2.032 . S
O36 C39 1.259 . S
O37 Mg28 2.114 . S
O37 C40 1.252 . S
O38 Mg28 2.251 . S
O38 Mg31 2.079 . S
O38 C40 1.273 . S
C39 O35 1.246 . S
C39 O36 1.259 . S
C40 O37 1.252 . S
C40 O38 1.273 . S
O41 Mg28 2.010 . S
O41 C33 1.249 . S
Mg42 O43 2.028 . S
Mg42 O49 1.986 . S
Mg42 O51 2.114 1_545 S
Mg42 O52 2.251 1_556 S
Mg42 O55 2.010 1_545 S
O43 Mg42 2.028 . S
O43 C46 1.250 . S
O44 Mg45 2.028 . S
O44 C46 1.248 . S
Mg45 O44 2.028 . S
Mg45 O50 2.032 . S
Mg45 O52 2.079 1_556 S
C46 O43 1.250 . S
C46 O44 1.248 . S
C47 O48 1.264 . S
C47 O55 1.249 . S
O48 C47 1.264 . S
O49 Mg42 1.986 . S
O49 C53 1.246 . S
O50 Mg45 2.032 . S
O50 C53 1.259 . S
O51 Mg42 2.114 1_565 S
O51 C54 1.252 1_566 S
O52 Mg42 2.251 1_554 S
O52 Mg45 2.079 1_554 S
O52 C54 1.273 . S
C53 O49 1.246 . S
C53 O50 1.259 . S
C54 O51 1.252 1_544 S
C54 O52 1.273 . S
O55 Mg42 2.010 1_565 S
O55 C47 1.249 . S
Mg56 O57 2.028 . S
Mg56 O63 1.986 1_554 S
Mg56 O65 2.114 . S
Mg56 O66 2.251 . S
Mg56 O69 2.010 . S
O57 Mg56 2.028 . S
O57 C60 1.250 . S
O58 Mg59 2.028 . S
O58 C60 1.248 . S
Mg59 O58 2.028 . S
Mg59 O64 2.032 1_554 S
Mg59 O66 2.079 . S
C60 O57 1.250 . S
C60 O58 1.248 . S
C61 O62 1.264 . S
C61 O69 1.249 . S
O62 C61 1.264 . S
O63 Mg56 1.986 1_556 S
O63 C67 1.246 . S
O64 Mg59 2.032 1_556 S
O64 C67 1.259 . S
O65 Mg56 2.114 . S
O65 C68 1.252 . S
O66 Mg56 2.251 . S
O66 Mg59 2.079 . S
O66 C68 1.273 . S
C67 O63 1.246 . S
C67 O64 1.259 . S
C68 O65 1.252 . S
C68 O66 1.273 . S
O69 Mg56 2.010 . S
O69 C61 1.249 . S
Mg70 O71 2.028 . S
Mg70 O77 1.986 . S
Mg70 O79 2.114 . S
Mg70 O80 2.251 . S
Mg70 O83 2.007 1_545 S
O71 Mg70 2.028 . S
O71 C74 1.250 . S
O72 Mg73 2.028 . S
O72 C74 1.248 . S
Mg73 O72 2.028 . S
Mg73 O78 2.032 . S
Mg73 O80 2.079 . S
C74 O71 1.250 . S
C74 O72 1.248 . S
C75 O76 1.264 . S
C75 O83 1.252 . S
O76 C75 1.264 . S
O77 Mg70 1.986 . S
O77 C81 1.246 1_556 S
O78 Mg73 2.032 . S
O78 C81 1.259 1_556 S
O79 Mg70 2.114 . S
O79 C82 1.252 . S
O80 Mg70 2.251 . S
O80 Mg73 2.079 . S
O80 C82 1.273 . S
C81 O77 1.246 1_554 S
C81 O78 1.259 1_554 S
C82 O79 1.252 . S
C82 O80 1.273 . S
O83 Mg70 2.007 1_565 S
O83 C75 1.252 . S
Mg84 O85 2.028 . S
Mg84 O91 1.986 . S
Mg84 O93 2.114 . S
Mg84 O94 2.251 . S
Mg84 O97 2.010 . S
O85 Mg84 2.028 . S
O85 C88 1.250 . S
O86 Mg87 2.028 . S
O86 C88 1.248 . S
Mg87 O86 2.028 . S
Mg87 O92 2.032 . S
Mg87 O94 2.079 . S
C88 O85 1.250 . S
C88 O86 1.248 . S
C89 O90 1.264 . S
C89 O97 1.249 . S
O90 C89 1.264 . S
O91 Mg84 1.986 . S
O91 C95 1.246 . S
O92 Mg87 2.032 . S
O92 C95 1.259 . S
O93 Mg84 2.114 . S
O93 C96 1.252 . S
O94 Mg84 2.251 . S
O94 Mg87 2.079 . S
O94 C96 1.273 . S
C95 O91 1.246 . S
C95 O92 1.259 . S
C96 O93 1.252 . S
C96 O94 1.273 . S
O97 Mg84 2.010 . S
O97 C89 1.249 . S
Mg98 O99 2.028 . S
Mg98 O105 1.986 . S
Mg98 O107 2.114 . S
Mg98 O108 2.251 . S
Mg98 O111 2.010 . S
O99 Mg98 2.028 . S
O99 C102 1.250 1_545 S
O100 Mg101 2.028 . S
O100 C102 1.248 . S
Mg101 O100 2.028 . S
Mg101 O106 2.032 . S
Mg101 O108 2.079 1_565 S
C102 O99 1.250 1_565 S
C102 O100 1.248 . S
C103 O104 1.264 . S
C103 O111 1.249 . S
O104 C103 1.264 . S
O105 Mg98 1.986 . S
O105 C109 1.246 . S
O106 Mg101 2.032 . S
O106 C109 1.259 1_565 S
O107 Mg98 2.114 . S
O107 C110 1.252 . S
O108 Mg98 2.251 . S
O108 Mg101 2.079 1_545 S
O108 C110 1.273 . S
C109 O105 1.246 . S
C109 O106 1.259 1_545 S
C110 O107 1.252 . S
C110 O108 1.273 . S
O111 Mg98 2.010 . S
O111 C103 1.249 . S
Mg112 O113 2.028 . S
Mg112 O119 1.986 . S
Mg112 O121 2.114 . S
Mg112 O122 2.251 . S
Mg112 O125 2.010 . S
O113 Mg112 2.028 . S
O113 C116 1.250 . S
O114 Mg115 2.028 . S
O114 C116 1.248 . S
Mg115 O114 2.028 . S
Mg115 O120 2.032 . S
Mg115 O122 2.079 . S
C116 O113 1.250 . S
C116 O114 1.248 . S
C117 O118 1.264 1_565 S
C117 O125 1.249 . S
O118 C117 1.264 1_545 S
O119 Mg112 1.986 . S
O119 C123 1.246 . S
O120 Mg115 2.032 . S
O120 C123 1.259 . S
O121 Mg112 2.114 . S
O121 C124 1.252 . S
O122 Mg112 2.251 . S
O122 Mg115 2.079 . S
O122 C124 1.273 . S
C123 O119 1.246 . S
C123 O120 1.259 . S
C124 O121 1.252 . S
C124 O122 1.273 . S
O125 Mg112 2.010 . S
O125 C117 1.249 . S
Mg126 O127 2.028 . S
Mg126 O133 1.986 . S
Mg126 O135 2.114 . S
Mg126 O136 2.251 . S
Mg126 O139 2.010 . S
O127 Mg126 2.028 . S
O127 C130 1.250 . S
O128 Mg129 2.028 . S
O128 C130 1.248 . S
Mg129 O128 2.028 . S
Mg129 O134 2.032 . S
Mg129 O136 2.079 . S
C130 O127 1.250 . S
C130 O128 1.248 . S
C131 O132 1.264 . S
C131 O139 1.249 . S
O132 C131 1.264 . S
O133 Mg126 1.986 . S
O133 C137 1.246 . S
O134 Mg129 2.032 . S
O134 C137 1.259 . S
O135 Mg126 2.114 . S
O135 C138 1.252 . S
O136 Mg126 2.251 . S
O136 Mg129 2.079 . S
O136 C138 1.273 . S
C137 O133 1.246 . S
C137 O134 1.259 . S
C138 O135 1.252 . S
C138 O136 1.273 . S
O139 Mg126 2.010 . S
O139 C131 1.249 . S
Mg140 O141 2.022 1_556 S
Mg140 O147 1.985 1_556 S
Mg140 O149 2.117 . S
Mg140 O150 2.256 . S
Mg140 O153 2.008 1_556 S
O141 Mg140 2.022 1_554 S
O141 C144 1.250 . S
O142 Mg143 2.028 1_554 S
O142 C144 1.248 . S
Mg143 O142 2.028 1_556 S
Mg143 O148 2.032 . S
Mg143 O150 2.079 . S
C144 O141 1.250 . S
C144 O142 1.248 . S
C145 O146 1.264 . S
C145 O153 1.249 . S
O146 C145 1.264 . S
O147 Mg140 1.985 1_554 S
O147 C151 1.246 1_554 S
O148 Mg143 2.032 . S
O148 C151 1.259 . S
O149 Mg140 2.117 . S
O149 C152 1.252 . S
O150 Mg140 2.256 . S
O150 Mg143 2.079 . S
O150 C152 1.273 . S
C151 O147 1.246 1_556 S
C151 O148 1.259 . S
C152 O149 1.252 . S
C152 O150 1.273 . S
O153 Mg140 2.008 1_554 S
O153 C145 1.249 . S
Mg154 O155 2.028 . S
Mg154 O161 1.986 . S
Mg154 O163 2.114 . S
Mg154 O164 2.251 . S
Mg154 O167 2.010 . S
O155 Mg154 2.028 . S
O155 C158 1.250 . S
O156 Mg157 2.028 1_655 S
O156 C158 1.248 1_655 S
Mg157 O156 2.028 1_455 S
Mg157 O162 2.032 . S
Mg157 O164 2.079 . S
C158 O155 1.250 . S
C158 O156 1.248 1_455 S
C159 O160 1.264 . S
C159 O167 1.249 . S
O160 C159 1.264 . S
O161 Mg154 1.986 . S
O161 C165 1.246 . S
O162 Mg157 2.032 . S
O162 C165 1.259 . S
O163 Mg154 2.114 . S
O163 C166 1.252 . S
O164 Mg154 2.251 . S
O164 Mg157 2.079 . S
O164 C166 1.273 . S
C165 O161 1.246 . S
C165 O162 1.259 . S
C166 O163 1.252 . S
C166 O164 1.273 . S
O167 Mg154 2.010 . S
O167 C159 1.249 . S
Mg168 O169 2.028 . S
Mg168 O175 1.986 . S
Mg168 O177 2.114 . S
Mg168 O178 2.251 . S
Mg168 O181 2.010 . S
O169 Mg168 2.028 . S
O169 C172 1.250 . S
O170 Mg171 2.028 . S
O170 C172 1.248 . S
Mg171 O170 2.028 . S
Mg171 O176 2.032 . S
Mg171 O178 2.079 . S
C172 O169 1.250 . S
C172 O170 1.248 . S
C173 O174 1.264 . S
C173 O181 1.249 . S
O174 C173 1.264 . S
O175 Mg168 1.986 . S
O175 C179 1.246 . S
O176 Mg171 2.032 . S
O176 C179 1.259 . S
O177 Mg168 2.114 . S
O177 C180 1.252 . S
O178 Mg168 2.251 . S
O178 Mg171 2.079 . S
O178 C180 1.273 . S
C179 O175 1.246 . S
C179 O176 1.259 . S
C180 O177 1.252 . S
C180 O178 1.273 . S
O181 Mg168 2.010 . S
O181 C173 1.249 . S
Mg182 O183 2.028 . S
Mg182 O189 1.986 . S
Mg182 O191 2.114 . S
Mg182 O192 2.251 . S
Mg182 O195 2.010 . S
O183 Mg182 2.028 . S
O183 C186 1.250 . S
O184 Mg185 2.028 . S
O184 C186 1.248 . S
Mg185 O184 2.028 . S
Mg185 O190 2.032 . S
Mg185 O192 2.079 . S
C186 O183 1.250 . S
C186 O184 1.248 . S
C187 O188 1.264 . S
C187 O195 1.249 . S
O188 C187 1.264 . S
O189 Mg182 1.986 . S
O189 C193 1.246 . S
O190 Mg185 2.032 . S
O190 C193 1.259 . S
O191 Mg182 2.114 . S
O191 C194 1.252 . S
O192 Mg182 2.251 . S
O192 Mg185 2.079 . S
O192 C194 1.273 . S
C193 O189 1.246 . S
C193 O190 1.259 . S
C194 O191 1.252 . S
C194 O192 1.273 . S
O195 Mg182 2.010 . S
O195 C187 1.249 . S
Mg196 O197 2.028 . S
Mg196 O203 1.986 1_554 S
Mg196 O205 2.114 . S
Mg196 O206 2.251 . S
Mg196 O209 2.010 1_554 S
O197 Mg196 2.028 . S
O197 C200 1.250 . S
O198 Mg199 2.028 . S
O198 C200 1.248 . S
Mg199 O198 2.028 . S
Mg199 O204 2.032 1_554 S
Mg199 O206 2.079 . S
C200 O197 1.250 . S
C200 O198 1.248 . S
C201 O202 1.264 . S
C201 O209 1.249 . S
O202 C201 1.264 . S
O203 Mg196 1.986 1_556 S
O203 C207 1.246 . S
O204 Mg199 2.032 1_556 S
O204 C207 1.259 . S
O205 Mg196 2.114 . S
O205 C208 1.252 . S
O206 Mg196 2.251 . S
O206 Mg199 2.079 . S
O206 C208 1.273 . S
C207 O203 1.246 . S
C207 O204 1.259 . S
C208 O205 1.252 . S
C208 O206 1.273 . S
O209 Mg196 2.010 1_556 S
O209 C201 1.249 . S
Mg210 O211 2.028 . S
Mg210 O217 1.986 1_556 S
Mg210 O219 2.114 . S
Mg210 O220 2.251 . S
Mg210 O223 2.010 . S
O211 Mg210 2.028 . S
O211 C214 1.250 . S
O212 Mg213 2.028 . S
O212 C214 1.248 . S
Mg213 O212 2.028 . S
Mg213 O218 2.032 . S
Mg213 O220 2.079 . S
C214 O211 1.250 . S
C214 O212 1.248 . S
C215 O216 1.264 . S
C215 O223 1.249 . S
O216 C215 1.264 . S
O217 Mg210 1.986 1_554 S
O217 C221 1.246 . S
O218 Mg213 2.032 . S
O218 C221 1.259 1_556 S
O219 Mg210 2.114 . S
O219 C222 1.252 . S
O220 Mg210 2.251 . S
O220 Mg213 2.079 . S
O220 C222 1.273 . S
C221 O217 1.246 . S
C221 O218 1.259 1_554 S
C222 O219 1.252 . S
C222 O220 1.273 . S
O223 Mg210 2.010 . S
O223 C215 1.249 . S
C12 C179 1.656 . S
C18 C82 1.773 1_655 S
C32 C207 1.730 . S
C110 C54 1.530 . S
C208 C40 1.530 . S
C109 C46 1.730 . S
C180 C4 1.773 . S
C81 C26 1.656 1_455 S
C67 C124 1.656 . S
C95 C144 1.730 . S
C152 C96 1.529 . S
C68 C116 1.773 . S
C194 C130 1.773 1_554 S
C166 C222 1.530 1_455 S
C158 C221 1.730 1_455 S
C138 C193 1.656 . S
C159 C11 1.808 . S
C117 C19 1.921 . S
C33 C137 1.807 . S
C151 C53 1.624 . S
C165 C39 1.624 . S
C47 C123 1.807 . S
C131 C5 1.921 1_556 S
C145 C25 1.807 . S
C61 C215 1.092 1_554 S
C172 C74 1.576 . S
C89 C187 1.092 . S
C102 C200 1.612 . S
C88 C214 1.612 . S
C173 C103 1.092 . S
C186 C60 1.576 . S
C201 C75 1.092 . S
