# Generated by pormake.
# Topology pcu, (6)-cn, num edge types: 1
# Building blocks:
#     Node 0, Type 0, BuildingBlock: BETDAH_clean_sbu_0, # of connection points: 6
#     Edge 1, Type (0, 0), BuildingBlock: OJICUG_clean_linker_0, # of connection points: 2
#     Edge 2, Type (0, 0), BuildingBlock: OJICUG_clean_linker_0, # of connection points: 2
#     Edge 3, Type (0, 0), BuildingBlock: OJICUG_clean_linker_0, # of connection points: 2
# Relax obj value: 0.000
# Max RMSD: 0.000
# Mean RMSD: 0.000
data_MOF--net-pcu--node1-BETDAH_clean_sbu_0--edge1-OJICUG_clean_linker_0
_symmetry_space_group_name_H-M    P1
_symmetry_Int_Tables_number       1
_symmetry_cell_setting            triclinic
loop_
_symmetry_equiv_pos_as_xyz
'x, y, z'
_cell_length_a     21.085923
_cell_length_b     11.443372
_cell_length_c     10.256183
_cell_angle_alpha  87.915501
_cell_angle_beta   97.790194
_cell_angle_gamma 121.59191
loop_
_atom_site_label
_atom_site_type_symbol
_atom_site_fract_x
_atom_site_fract_y
_atom_site_fract_z
_atom_type_partial_charge
Ho0 Ho 0.94967 0.87434 0.02769 0.0
Ho1 Ho 0.11945 0.04484 1.01948 0.0
C2 C 0.0367 0.20886 1.01987 0.0
C3 C 0.81436 0.77194 0.08219 0.0
C4 C 0.75798 0.81252 0.07218 0.0
C5 C 0.77718 0.94393 0.11427 0.0
C6 C 0.72275 -0.01995 0.10258 0.0
C7 C 0.64799 0.88547 0.04863 0.0
C8 C 0.62905 0.75386 1.00703 0.0
C9 C 0.6835 0.71789 1.01881 0.0
C10 C 0.99158 0.91137 0.78503 0.0
C11 C 1.0324 0.71032 0.02697 0.0
C12 C 0.25491 0.14752 0.96564 0.0
C13 C 0.31127 0.10691 0.97554 0.0
C14 C 0.29203 -0.0245 0.93338 0.0
C15 C 0.34645 0.93933 0.94502 0.0
C16 C 0.42121 0.03386 0.999 0.0
C17 C 0.44018 0.16548 0.04064 0.0
C18 C 0.38575 0.20149 0.02891 0.0
C19 C 0.07714 0.00772 0.26199 0.0
O20 O 0.97816 0.09325 0.05275 0.0
O21 O 0.09523 0.21207 0.98285 0.0
O22 O 0.82932 0.74661 0.97073 0.0
O23 O 0.87464 0.84063 0.16843 0.0
O24 O 0.93388 0.80004 0.81856 0.0
O25 O 1.02097 7e-05 0.87853 0.0
O26 O 0.09093 0.82595 0.99409 0.0
O27 O 0.9739 0.7071 0.06412 0.0
O28 O 0.23975 0.17222 0.07717 0.0
O29 O 0.19476 0.07927 0.87904 0.0
O30 O 0.13479 0.11921 0.22855 0.0
O31 O 0.0482 0.91915 0.16846 0.0
H32 H 0.83421 0.01883 0.15602 0.0
H33 H 0.73949 0.08274 0.13424 0.0
H34 H 0.57187 0.67786 0.9668 0.0
H35 H 0.66737 0.61575 0.98624 0.0
H36 H 0.235 0.90064 0.89163 0.0
H37 H 0.32968 0.83664 0.91333 0.0
H38 H 0.49737 0.24144 0.08089 0.0
H39 H 0.4019 0.30362 0.06154 0.0
C40 C 0.0926 0.0886 0.4937 0.0
C41 C 0.05488 -0.01706 0.39543 0.0
H42 H 0.10208 0.14876 0.69439 0.0
C43 C 0.99641 0.85355 0.42631 0.0
H44 H 0.1379 0.18938 0.47251 0.0
C45 C 0.976 0.8303 0.55325 0.0
C46 C 1.01374 0.93597 0.65151 0.0
H47 H 0.96657 0.77015 0.35253 0.0
H48 H 0.93071 0.72953 0.57445 0.0
C49 C 0.07222 0.06535 0.62063 0.0
C50 C 0.53303 0.03632 0.12493 0.0
C51 C 0.47923 -0.00442 1.01179 0.0
H52 H 0.6275 0.03209 0.22615 0.0
C53 C 0.48148 0.9184 0.91085 0.0
H54 H 0.53223 0.09399 0.20546 0.0
C55 C 0.53615 0.88293 0.92272 0.0
C56 C 0.58995 0.92369 0.03585 0.0
H57 H 0.44168 0.88717 0.8215 0.0
H58 H 0.53694 0.82527 0.84219 0.0
C59 C 0.5877 0.00086 0.13679 0.0
C60 C 0.97181 0.45712 0.05705 0.0
C61 C 1.03357 0.5821 0.02548 0.0
H62 H 0.92419 0.24178 0.0796 0.0
C63 C 0.0963 0.58311 0.99179 0.0
H64 H 0.92246 0.45236 0.08324 0.0
C65 C 0.09727 0.46205 0.98967 0.0
C66 C 0.03552 0.33707 1.02126 0.0
H67 H 0.14489 0.67739 0.96712 0.0
H68 H 0.14662 0.4668 0.96349 0.0
C69 C 0.97278 0.33606 0.05493 0.0
loop_
_geom_bond_atom_site_label_1
_geom_bond_atom_site_label_2
_geom_bond_distance
_geom_bond_site_symmetry_2
_ccdc_geom_bond_type
Ho0 C3 2.811 . S
Ho0 O20 2.322 1_565 S
Ho0 O22 2.378 . S
Ho0 O23 2.524 1_556 S
Ho0 O24 2.381 . S
Ho0 O25 2.669 1_665 S
Ho0 O27 2.346 . S
Ho0 O31 2.305 1_556 S
Ho1 C12 2.811 . S
Ho1 O21 2.346 . S
Ho1 O25 2.305 1_554 S
Ho1 O26 2.322 1_545 S
Ho1 O28 2.378 . S
Ho1 O29 2.524 1_554 S
Ho1 O30 2.381 . S
Ho1 O31 2.669 1_445 S
C2 O20 1.259 1_455 S
C2 O21 1.268 1_556 S
C3 Ho0 2.811 . S
C3 C4 1.488 . S
C3 O22 1.215 . S
C3 O23 1.289 1_556 S
C4 C3 1.488 . S
C4 C5 1.348 1_566 S
C4 C9 1.413 . S
C5 C4 1.348 1_544 S
C5 C6 1.442 . S
C5 H32 0.930 . S
C6 C5 1.442 . S
C6 C7 1.381 1_544 S
C6 H33 0.931 . S
C7 C6 1.381 1_566 S
C7 C8 1.321 . S
C8 C7 1.321 . S
C8 C9 1.403 . S
C8 H34 0.934 . S
C9 C4 1.413 . S
C9 C8 1.403 . S
C9 H35 0.930 . S
C10 O24 1.275 . S
C10 O25 1.256 1_665 S
C11 O26 1.259 1_655 S
C11 O27 1.268 1_554 S
C12 Ho1 2.811 . S
C12 C13 1.488 . S
C12 O28 1.215 . S
C12 O29 1.289 1_554 S
C13 C12 1.488 . S
C13 C14 1.348 1_544 S
C13 C18 1.413 . S
C14 C13 1.348 1_566 S
C14 C15 1.442 . S
C14 H36 0.930 . S
C15 C14 1.442 . S
C15 C16 1.381 1_566 S
C15 H37 0.931 . S
C16 C15 1.381 1_544 S
C16 C17 1.321 . S
C17 C16 1.321 . S
C17 C18 1.403 . S
C17 H38 0.934 . S
C18 C13 1.413 . S
C18 C17 1.403 . S
C18 H39 0.930 . S
C19 O30 1.275 . S
C19 O31 1.256 1_445 S
O20 Ho0 2.322 1_545 S
O20 C2 1.259 1_655 S
O21 Ho1 2.346 . S
O21 C2 1.268 1_554 S
O22 Ho0 2.378 . S
O22 C3 1.215 . S
O23 Ho0 2.524 1_554 S
O23 C3 1.289 1_554 S
O24 Ho0 2.381 . S
O24 C10 1.275 . S
O25 Ho0 2.669 1_445 S
O25 Ho1 2.305 1_556 S
O25 C10 1.256 1_445 S
O26 Ho1 2.322 1_565 S
O26 C11 1.259 1_455 S
O27 Ho0 2.346 . S
O27 C11 1.268 1_556 S
O28 Ho1 2.378 . S
O28 C12 1.215 . S
O29 Ho1 2.524 1_556 S
O29 C12 1.289 1_556 S
O30 Ho1 2.381 . S
O30 C19 1.275 . S
O31 Ho0 2.305 1_554 S
O31 Ho1 2.669 1_665 S
O31 C19 1.256 1_665 S
H32 C5 0.930 . S
H33 C6 0.931 . S
H34 C8 0.934 . S
H35 C9 0.930 . S
H36 C14 0.930 . S
H37 C15 0.931 . S
H38 C17 0.934 . S
H39 C18 0.930 . S
C40 C41 1.390 1_445 S
C40 H44 0.950 . S
C40 C49 1.390 . S
C41 C40 1.390 1_665 S
C41 C43 1.384 . S
H42 C49 0.950 . S
C43 C41 1.384 . S
C43 C45 1.390 . S
C43 H47 0.950 . S
H44 C40 0.950 . S
C45 C43 1.390 . S
C45 C46 1.387 1_665 S
C45 H48 0.950 . S
C46 C45 1.387 1_445 S
C46 C49 1.387 . S
H47 C43 0.950 . S
H48 C45 0.950 . S
C49 C40 1.390 . S
C49 H42 0.950 . S
C49 C46 1.387 . S
C50 C51 1.385 1_565 S
C50 H54 0.950 . S
C50 C59 1.390 . S
C51 C50 1.385 1_545 S
C51 C53 1.385 1_554 S
H52 C59 0.950 . S
C53 C51 1.385 1_556 S
C53 C55 1.390 . S
C53 H57 0.950 . S
H54 C50 0.950 . S
C55 C53 1.390 . S
C55 C56 1.385 1_545 S
C55 H58 0.950 . S
C56 C55 1.385 1_565 S
C56 C59 1.387 1_556 S
H57 C53 0.950 . S
H58 C55 0.950 . S
C59 C50 1.390 . S
C59 H52 0.950 . S
C59 C56 1.387 1_554 S
C60 C61 1.390 . S
C60 H64 0.950 . S
C60 C69 1.390 . S
C61 C60 1.390 . S
C61 C63 1.390 1_454 S
H62 C69 0.950 . S
C63 C61 1.390 1_656 S
C63 C65 1.390 . S
C63 H67 0.950 . S
H64 C60 0.950 . S
C65 C63 1.390 . S
C65 C66 1.388 1_556 S
C65 H68 0.950 . S
C66 C65 1.388 1_554 S
C66 C69 1.389 1_655 S
H67 C63 0.950 . S
H68 C65 0.950 . S
C69 C60 1.390 . S
C69 H62 0.950 . S
C69 C66 1.389 1_455 S
C41 C19 1.462 1_665 S
C46 C10 1.461 1_445 S
C51 C16 1.504 . S
C56 C7 1.502 . S
C61 C11 1.487 1_455 S
C66 C2 1.490 1_654 S
