# Generated by pormake.
# Topology pcu, (6)-cn, num edge types: 1
# Building blocks:
#     Node 0, Type 0, BuildingBlock: HISSIN_clean_sbu_0, # of connection points: 6
#     Edge 1, Type (0, 0), BuildingBlock: CIFDUS_clean_linker_0, # of connection points: 2
#     Edge 2, Type (0, 0), BuildingBlock: CIFDUS_clean_linker_0, # of connection points: 2
#     Edge 3, Type (0, 0), BuildingBlock: CIFDUS_clean_linker_0, # of connection points: 2
# Relax obj value: 0.000
# Max RMSD: 0.000
# Mean RMSD: 0.000
data_MOF--net-pcu--node1-HISSIN_clean_sbu_0--edge1-CIFDUS_clean_linker_0
_symmetry_space_group_name_H-M    P1
_symmetry_Int_Tables_number       1
_symmetry_cell_setting            triclinic
loop_
_symmetry_equiv_pos_as_xyz
'x, y, z'
_cell_length_a     13.378
_cell_length_b     23.552509
_cell_length_c     13.448395
_cell_angle_alpha  123.31846
_cell_angle_beta   91.233171
_cell_angle_gamma 96.301013
loop_
_atom_site_label
_atom_site_type_symbol
_atom_site_fract_x
_atom_site_fract_y
_atom_site_fract_z
_atom_type_partial_charge
Eu0 Eu 0.9618 0.94671 0.92473 0.0
Eu1 Eu 0.0202 0.11792 0.06547 0.0
C2 C 0.19065 1.01897 0.9902 0.0
C3 C 0.92821 0.76211 0.84805 0.0
C4 C 0.99099 0.77827 0.94781 0.0
C5 C 0.88106 0.64663 0.80039 0.0
C6 C -0.00128 0.72871 0.97367 0.0
C7 C 0.87373 0.69603 0.77447 0.0
C8 C 0.9432 0.66239 0.90063 0.0
C9 C 0.91581 0.81385 0.82133 0.0
O10 O 0.97185 0.07922 0.87516 0.0
O11 O 0.99418 0.96559 0.78067 0.0
C12 C 0.98208 1.01959 0.77844 0.0
O13 O 0.81938 0.98591 0.91215 0.0
O14 O 0.13015 0.20877 0.122 0.0
O15 O 0.97675 0.22053 0.16755 0.0
O16 O 0.85565 0.09498 0.08066 0.0
C17 C 0.79058 0.04319 -0.0023 0.0
O18 O 0.95185 0.99105 0.1202 0.0
O19 O 0.04774 0.09781 0.20844 0.0
O20 O 0.16066 0.07082 -0.00766 0.0
O21 O 0.85583 0.85804 0.88563 0.0
O22 O -0.00251 0.84268 0.80572 0.0
O23 O 0.12667 0.97284 0.9909 0.0
C24 C 0.06238 0.30029 0.13282 0.0
C25 C 0.00325 0.28333 0.03009 0.0
C26 C 0.11757 0.41369 0.17424 0.0
C27 C 0.00053 0.3316 0.00034 0.0
C28 C 0.11984 0.36554 0.20416 0.0
C29 C 0.05742 0.39749 0.07237 0.0
C30 C 0.06407 0.25103 0.16768 0.0
C31 C 0.00182 0.0474 0.2139 0.0
H32 H 0.03306 0.82933 0.00621 0.0
H33 H 0.83834 0.59589 0.74146 0.0
H34 H 0.04639 0.74274 0.05221 0.0
H35 H 0.82482 0.68272 0.69718 0.0
H36 H 0.95887 0.23295 0.97332 0.0
H37 H 0.16145 0.46411 0.23226 0.0
H38 H 0.95451 0.31718 0.92046 0.0
H39 H 0.16589 0.37951 0.28376 0.0
H40 H 0.96614 0.94491 0.25019 0.0
H41 H 0.04438 0.1649 0.43794 0.0
H42 H 0.04293 0.17576 0.62945 0.0
H43 H 0.01808 0.12273 0.74312 0.0
H44 H 0.94615 0.90228 0.55441 0.0
H45 H 0.94623 0.89173 0.36334 0.0
C46 C 0.98272 0.99531 0.33298 0.0
C47 C 0.00475 0.05407 0.32984 0.0
C48 C 0.98268 1.00108 0.44244 0.0
C49 C 0.02743 0.11885 0.43788 0.0
C50 C 0.02627 0.12511 0.54739 0.0
C51 C 0.00194 0.07238 0.66019 0.0
C52 C 0.98149 1.01339 0.66296 0.0
C53 C 0.00362 0.06659 0.55067 0.0
C54 C 0.96218 0.94848 0.55475 0.0
C55 C 0.96212 0.9424 0.44548 0.0
H56 H 0.34896 0.11963 0.06111 0.0
H57 H 0.27548 0.90217 0.90589 0.0
H58 H 0.45468 0.88989 0.89006 0.0
H59 H 0.63253 0.94118 0.92034 0.0
H60 H 0.70586 0.15982 0.08771 0.0
H61 H 0.52642 0.17144 0.09834 0.0
C62 C 0.37218 0.06953 0.02363 0.0
C63 C 0.29912 1.01185 0.98412 0.0
C64 C 0.47526 0.06308 0.01675 0.0
C65 C 0.33037 0.94741 0.93727 0.0
C66 C 0.43275 0.94031 0.9278 0.0
C67 C 0.60897 0.99124 0.95849 0.0
C68 C 0.68199 0.04949 0.00239 0.0
C69 C 0.50584 0.99777 0.96703 0.0
C70 C 0.65086 0.11426 0.05347 0.0
C71 C 0.54837 0.12093 0.05947 0.0
H72 H 0.11032 0.63227 0.97312 0.0
H73 H 0.78698 0.57464 0.89299 0.0
H74 H 0.79396 0.48707 0.93615 0.0
H75 H 0.89135 0.42744 -0.00114 0.0
H76 H 0.21459 0.48493 0.07971 0.0
H77 H 0.20794 0.5724 0.03588 0.0
C78 C 0.04132 0.60091 0.96603 0.0
C79 C 0.94834 0.60997 0.92938 0.0
C80 C 0.04577 0.55059 0.99133 0.0
C81 C 0.85978 0.56822 0.91932 0.0
C82 C 0.86359 0.51828 0.94457 0.0
C83 C 0.96048 0.45863 0.00574 0.0
C84 C 0.0533 0.44955 0.04259 0.0
C85 C 0.95615 0.50886 0.98034 0.0
C86 C 0.14196 0.49127 0.05284 0.0
C87 C 0.13829 0.54116 0.02731 0.0
loop_
_geom_bond_atom_site_label_1
_geom_bond_atom_site_label_2
_geom_bond_distance
_geom_bond_site_symmetry_2
_ccdc_geom_bond_type
Eu0 C9 2.828 . S
Eu0 O11 2.392 . S
Eu0 O13 2.418 . S
Eu0 O18 2.373 1_556 S
Eu0 O21 2.488 . S
Eu0 O22 2.471 1_655 S
Eu0 O23 2.349 1_655 S
Eu1 O10 2.373 1_554 S
Eu1 O14 2.488 . S
Eu1 O15 2.471 1_455 S
Eu1 O16 2.349 1_455 S
Eu1 O19 2.392 . S
Eu1 O20 2.418 . S
Eu1 C30 2.828 . S
C2 O20 1.244 . S
C2 O23 1.265 1_544 S
C3 C4 1.379 1_656 S
C3 C7 1.373 . S
C3 C9 1.505 . S
C4 C3 1.379 1_454 S
C4 C6 1.369 . S
C4 H32 0.930 . S
C5 C7 1.383 . S
C5 C8 1.382 . S
C5 H33 0.930 . S
C6 C4 1.369 . S
C6 C8 1.392 1_454 S
C6 H34 0.930 . S
C7 C3 1.373 . S
C7 C5 1.383 . S
C7 H35 0.931 . S
C8 C5 1.382 . S
C8 C6 1.392 1_656 S
C9 Eu0 2.828 . S
C9 C3 1.505 . S
C9 O21 1.249 . S
C9 O22 1.244 1_655 S
O10 Eu1 2.373 1_556 S
O10 C12 1.258 1_545 S
O11 Eu0 2.392 . S
O11 C12 1.242 1_655 S
C12 O10 1.258 1_565 S
C12 O11 1.242 1_455 S
O13 Eu0 2.418 . S
O13 C17 1.244 . S
O14 Eu1 2.488 . S
O14 C30 1.249 . S
O15 Eu1 2.471 1_655 S
O15 C30 1.244 1_655 S
O16 Eu1 2.349 1_655 S
O16 C17 1.265 1_544 S
C17 O13 1.244 . S
C17 O16 1.265 1_566 S
O18 Eu0 2.373 1_554 S
O18 C31 1.258 1_665 S
O19 Eu1 2.392 . S
O19 C31 1.242 . S
O20 Eu1 2.418 . S
O20 C2 1.244 . S
O21 Eu0 2.488 . S
O21 C9 1.249 . S
O22 Eu0 2.471 1_455 S
O22 C9 1.244 1_455 S
O23 Eu0 2.349 1_455 S
O23 C2 1.265 1_566 S
C24 C25 1.379 1_454 S
C24 C28 1.373 . S
C24 C30 1.505 . S
C25 C24 1.379 1_656 S
C25 C27 1.369 . S
C25 H36 0.930 . S
C26 C28 1.383 . S
C26 C29 1.382 . S
C26 H37 0.930 . S
C27 C25 1.369 . S
C27 C29 1.392 1_656 S
C27 H38 0.930 . S
C28 C24 1.373 . S
C28 C26 1.383 . S
C28 H39 0.931 . S
C29 C26 1.382 . S
C29 C27 1.392 1_454 S
C30 Eu1 2.828 . S
C30 O14 1.249 . S
C30 O15 1.244 1_455 S
C30 C24 1.505 . S
C31 O18 1.258 1_445 S
C31 O19 1.242 . S
H32 C4 0.930 . S
H33 C5 0.930 . S
H34 C6 0.930 . S
H35 C7 0.931 . S
H36 C25 0.930 . S
H37 C26 0.930 . S
H38 C27 0.930 . S
H39 C28 0.931 . S
H40 C46 0.930 . S
H41 C49 0.930 . S
H42 C50 0.930 . S
H43 C51 0.930 . S
H44 C54 0.930 . S
H45 C55 0.930 . S
C46 H40 0.930 . S
C46 C47 1.355 1_655 S
C46 C48 1.419 . S
C47 C46 1.355 1_455 S
C47 C49 1.419 . S
C48 C46 1.419 . S
C48 C53 1.422 1_645 S
C48 C55 1.407 1_545 S
C49 H41 0.930 . S
C49 C47 1.419 . S
C49 C50 1.362 . S
C50 H42 0.930 . S
C50 C49 1.362 . S
C50 C53 1.408 1_545 S
C51 H43 0.930 . S
C51 C52 1.355 1_455 S
C51 C53 1.416 . S
C52 C51 1.355 1_655 S
C52 C54 1.419 . S
C53 C48 1.422 1_465 S
C53 C50 1.408 1_565 S
C53 C51 1.416 . S
C54 H44 0.930 . S
C54 C52 1.419 . S
C54 C55 1.362 . S
C55 H45 0.930 . S
C55 C48 1.407 1_565 S
C55 C54 1.362 . S
H56 C62 0.930 . S
H57 C65 0.930 . S
H58 C66 0.930 . S
H59 C67 0.930 . S
H60 C70 0.930 . S
H61 C71 0.930 . S
C62 H56 0.930 . S
C62 C63 1.355 1_554 S
C62 C64 1.415 . S
C63 C62 1.355 1_556 S
C63 C65 1.419 1_545 S
C64 C62 1.415 . S
C64 C69 1.425 1_544 S
C64 C71 1.409 . S
C65 H57 0.930 . S
C65 C63 1.419 1_565 S
C65 C66 1.362 . S
C66 H58 0.930 . S
C66 C65 1.362 . S
C66 C69 1.409 . S
C67 H59 0.930 . S
C67 C68 1.355 1_556 S
C67 C69 1.415 . S
C68 C67 1.355 1_554 S
C68 C70 1.419 1_565 S
C69 C64 1.425 1_566 S
C69 C66 1.409 . S
C69 C67 1.415 . S
C70 H60 0.930 . S
C70 C68 1.419 1_545 S
C70 C71 1.362 . S
C71 H61 0.930 . S
C71 C64 1.409 . S
C71 C70 1.362 . S
H72 C78 0.930 . S
H73 C81 0.930 . S
H74 C82 0.930 . S
H75 C83 0.930 . S
H76 C86 0.930 . S
H77 C87 0.930 . S
C78 H72 0.930 . S
C78 C79 1.355 1_454 S
C78 C80 1.415 . S
C79 C78 1.355 1_656 S
C79 C81 1.419 . S
C80 C78 1.415 . S
C80 C85 1.425 1_454 S
C80 C87 1.409 . S
C81 H73 0.930 . S
C81 C79 1.419 . S
C81 C82 1.362 . S
C82 H74 0.930 . S
C82 C81 1.362 . S
C82 C85 1.409 . S
C83 H75 0.930 . S
C83 C84 1.355 1_656 S
C83 C85 1.415 . S
C84 C83 1.355 1_454 S
C84 C86 1.419 . S
C85 C80 1.425 1_656 S
C85 C82 1.409 . S
C85 C83 1.415 . S
C86 H76 0.930 . S
C86 C84 1.419 . S
C86 C87 1.362 . S
C87 H77 0.930 . S
C87 C80 1.409 . S
C87 C86 1.362 . S
C47 C31 1.493 . S
C52 C12 1.493 1_655 S
C63 C2 1.452 1_556 S
C68 C17 1.452 1_554 S
C79 C8 1.476 . S
C84 C29 1.476 . S
