# Generated by pormake.
# Topology afw, (4)-cn, num edge types: 1
# Building blocks:
#     Node 0, Type 0, BuildingBlock: AZAVOO_clean_sbu_0, # of connection points: 4
#     Node 1, Type 0, BuildingBlock: AZAVOO_clean_sbu_0, # of connection points: 4
#     Node 2, Type 0, BuildingBlock: AZAVOO_clean_sbu_0, # of connection points: 4
#     Node 3, Type 0, BuildingBlock: AZAVOO_clean_sbu_0, # of connection points: 4
#     Node 4, Type 0, BuildingBlock: AZAVOO_clean_sbu_0, # of connection points: 4
#     Node 5, Type 0, BuildingBlock: AZAVOO_clean_sbu_0, # of connection points: 4
#     Node 6, Type 0, BuildingBlock: AZAVOO_clean_sbu_0, # of connection points: 4
#     Node 7, Type 0, BuildingBlock: AZAVOO_clean_sbu_0, # of connection points: 4
#     Node 8, Type 0, BuildingBlock: AZAVOO_clean_sbu_0, # of connection points: 4
#     Edge 9, Type (0, 0), None
#     Edge 10, Type (0, 0), None
#     Edge 11, Type (0, 0), None
#     Edge 12, Type (0, 0), None
#     Edge 13, Type (0, 0), None
#     Edge 14, Type (0, 0), None
#     Edge 15, Type (0, 0), None
#     Edge 16, Type (0, 0), None
#     Edge 17, Type (0, 0), None
#     Edge 18, Type (0, 0), None
#     Edge 19, Type (0, 0), None
#     Edge 20, Type (0, 0), None
#     Edge 21, Type (0, 0), None
#     Edge 22, Type (0, 0), None
#     Edge 23, Type (0, 0), None
#     Edge 24, Type (0, 0), None
#     Edge 25, Type (0, 0), None
#     Edge 26, Type (0, 0), None
# Relax obj value: 0.304
# Max RMSD: 0.311
# Mean RMSD: 0.265
data_MOF--net-afw--node1-AZAVOO_clean_sbu_0--edge1-none
_symmetry_space_group_name_H-M    P1
_symmetry_Int_Tables_number       1
_symmetry_cell_setting            triclinic
loop_
_symmetry_equiv_pos_as_xyz
'x, y, z'
_cell_length_a     17.354453
_cell_length_b     15.097747
_cell_length_c     18.379037
_cell_angle_alpha  87.780448
_cell_angle_beta   91.815572
_cell_angle_gamma 117.81761
loop_
_atom_site_label
_atom_site_type_symbol
_atom_site_fract_x
_atom_site_fract_y
_atom_site_fract_z
_atom_type_partial_charge
Mg0 Mg 0.08813 0.30572 -0.03554 0.0
O1 O 0.96269 0.15812 -0.04771 0.0
O2 O 0.84717 0.18531 0.93744 0.0
Mg3 Mg 0.90109 0.35667 0.94227 0.0
C4 C 0.88097 0.12618 0.94272 0.0
C5 C 0.24983 0.26166 -0.0502 0.0
O6 O 0.29343 0.3598 -0.04841 0.0
O7 O 0.08722 0.34458 0.84208 0.0
O8 O 0.97692 0.38294 0.83575 0.0
O9 O 0.07004 0.30134 0.08488 0.0
O10 O 1.01722 0.37395 0.0061 0.0
C11 C 1.03993 0.37635 0.80653 0.0
C12 C 1.02562 0.34954 0.07261 0.0
O13 O 0.16694 0.21903 -0.04903 0.0
Mg14 Mg 0.82122 0.79537 -0.03787 0.0
O15 O 0.86116 0.96097 -0.05144 0.0
O16 O 0.74242 0.98087 0.93276 0.0
Mg17 Mg 0.62771 0.82066 0.92242 0.0
C18 C 0.82482 1.01694 0.94037 0.0
C19 C 1.00199 0.81632 -0.02151 0.0
O20 O 0.97367 0.76252 0.91987 0.0
O21 O 0.7675 0.79011 0.07324 0.0
O22 O 0.6375 0.77908 0.04394 0.0
O23 O 0.83725 0.78436 0.84366 0.0
O24 O 0.71263 0.75319 0.89441 0.0
C25 C 0.69252 0.77673 0.09091 0.0
C26 C 0.75485 0.75697 0.83689 0.0
O27 O 0.95188 0.83956 0.01207 0.0
Mg28 Mg 0.28742 0.97477 -0.02625 0.0
O29 O 0.25466 0.10672 -0.03865 0.0
O30 O 0.3802 0.24739 -0.04984 0.0
Mg31 Mg 0.4912 0.20463 -0.0413 0.0
C32 C 0.29721 0.20174 -0.04727 0.0
C33 C 0.09411 0.86575 -0.00328 0.0
O34 O 0.12212 0.92153 0.05439 0.0
O35 O 0.31683 0.98356 0.85498 0.0
O36 O 0.44851 0.11723 0.85169 0.0
O37 O 0.29627 0.98665 0.09288 0.0
O38 O 0.40962 0.06429 0.02033 0.0
C39 C 0.38517 1.04325 0.82115 0.0
C40 C 0.37868 1.0454 0.08514 0.0
O41 O 0.148 0.86876 -0.04926 0.0
Mg42 Mg 0.63487 0.62033 0.27401 0.0
O43 O 0.76377 0.61483 0.25675 0.0
O44 O 0.87451 0.77043 0.25005 0.0
Mg45 Mg 0.81503 0.87483 0.26734 0.0
C46 C 0.84472 0.67564 0.24942 0.0
C47 C 0.49293 0.3989 0.27364 0.0
O48 O 0.44614 0.44044 0.24666 0.0
O49 O 0.67363 0.65382 0.39147 0.0
O50 O 0.78175 0.81123 0.3867 0.0
O51 O 0.61101 0.62708 0.15728 0.0
O52 O 0.6878 0.76221 0.22248 0.0
C53 C 0.73105 0.73158 0.4225 0.0
C54 C 0.65901 0.72297 0.15963 0.0
O55 O 0.57057 0.45358 0.29542 0.0
Mg56 Mg 0.52334 0.11192 0.26496 0.0
O57 O 0.51676 0.25845 0.272 0.0
O58 O 0.3792 0.23352 0.26224 0.0
Mg59 Mg 0.29442 0.06385 0.25764 0.0
C60 C 0.46075 0.29084 0.26999 0.0
C61 C 0.72161 0.15879 0.28608 0.0
O62 O 0.6901 0.06253 0.27525 0.0
O63 O 0.48069 0.07798 0.38285 0.0
O64 O 0.34185 0.05069 0.37339 0.0
O65 O 0.51976 0.12111 0.14374 0.0
O66 O 0.40287 1.04764 0.21283 0.0
C67 C 0.40733 0.05689 0.41091 0.0
C68 C 0.43581 0.07504 0.14919 0.0
O69 O 0.66985 0.19646 0.29037 0.0
Mg70 Mg 0.96421 0.46293 0.24262 0.0
O71 O 0.84027 0.31868 0.26688 0.0
O72 O 0.86893 0.18955 0.28018 0.0
Mg73 Mg 1.0171 0.25447 0.2635 0.0
C74 C 0.81572 0.22599 0.27949 0.0
C75 C 0.90589 0.63472 0.24108 0.0
O76 O 0.98357 0.69106 0.21419 0.0
O77 O 1.01063 0.47311 0.36322 0.0
O78 O 0.05192 0.35278 0.36407 0.0
O79 O 0.95007 0.43309 0.12217 0.0
O80 O 1.02341 0.38311 0.19838 0.0
C81 C 0.04642 0.42414 0.39468 0.0
C82 C 0.99612 0.38663 0.13314 0.0
O83 O 0.88331 0.54416 0.25985 0.0
Mg84 Mg 0.45349 0.97086 0.64086 0.0
O85 O 0.32705 0.82061 0.6269 0.0
O86 O 0.21275 0.85066 0.62242 0.0
Mg87 Mg 0.26877 1.02123 0.63224 0.0
C88 C 0.24507 0.79032 0.62044 0.0
C89 C 0.61256 0.93615 0.63435 0.0
O90 O 0.65023 1.02965 0.65472 0.0
O91 O 0.44769 1.01005 0.52312 0.0
O92 O 0.33397 1.04212 0.52028 0.0
O93 O 0.44546 0.95761 0.75852 0.0
O94 O 0.38909 1.03926 0.69073 0.0
C95 C 0.39622 1.03606 0.48914 0.0
C96 C 0.40327 1.00915 0.7541 0.0
O97 O 0.53162 0.8922 0.61938 0.0
Mg98 Mg 0.17264 0.45647 0.58288 0.0
O99 O 0.21933 0.62398 0.60102 0.0
O100 O 0.1042 0.65149 0.60304 0.0
Mg101 Mg 0.98372 0.49837 0.58391 0.0
C102 C 0.18627 0.68278 0.60795 0.0
C103 C 0.33861 0.44078 0.65305 0.0
O104 O 0.28277 0.36198 0.69021 0.0
O105 O 0.12735 0.41604 0.70079 0.0
O106 O 1.00719 0.43564 0.69489 0.0
O107 O 0.17704 0.48072 0.46403 0.0
O108 O 0.05612 0.43423 0.52535 0.0
C109 C 0.05914 0.4102 0.72975 0.0
C110 C 0.09527 0.45743 0.4636 0.0
O111 O 0.31177 0.48874 0.61018 0.0
Mg112 Mg 0.62884 0.64186 0.65376 0.0
O113 O 0.614 0.78242 0.63913 0.0
O114 O 0.74207 0.92129 0.64711 0.0
Mg115 Mg 0.84247 0.86353 0.6519 0.0
C116 C 0.65939 0.87733 0.63916 0.0
C117 C 0.43267 0.48026 0.66499 0.0
O118 O 0.46262 0.44936 0.72157 0.0
O119 O 0.66851 0.66179 0.53594 0.0
O120 O 0.79491 0.80371 0.53565 0.0
O121 O 0.62458 0.65385 0.77166 0.0
O122 O 0.74731 0.72427 0.70886 0.0
C123 C 0.73289 0.73137 0.50249 0.0
C124 C 0.70761 0.71252 0.76966 0.0
O125 O 0.48505 0.55239 0.62466 0.0
loop_
_geom_bond_atom_site_label_1
_geom_bond_atom_site_label_2
_geom_bond_distance
_geom_bond_site_symmetry_2
_ccdc_geom_bond_type
Mg0 O1 2.028 1_455 S
Mg0 O7 1.986 1_554 S
Mg0 O9 2.114 . S
Mg0 O10 2.251 1_455 S
Mg0 O13 2.010 . S
O1 Mg0 2.028 1_655 S
O1 C4 1.250 1_554 S
O2 Mg3 2.028 . S
O2 C4 1.248 . S
Mg3 O2 2.028 . S
Mg3 O8 2.032 . S
Mg3 O10 2.079 1_556 S
C4 O1 1.250 1_556 S
C4 O2 1.248 . S
C5 O6 1.264 . S
C5 O13 1.249 . S
O6 C5 1.264 . S
O7 Mg0 1.986 1_556 S
O7 C11 1.246 . S
O8 Mg3 2.032 . S
O8 C11 1.259 1_655 S
O9 Mg0 2.114 . S
O9 C12 1.252 1_455 S
O10 Mg0 2.251 1_655 S
O10 Mg3 2.079 1_554 S
O10 C12 1.273 . S
C11 O7 1.246 . S
C11 O8 1.259 1_455 S
C12 O9 1.252 1_655 S
C12 O10 1.273 . S
O13 Mg0 2.010 . S
O13 C5 1.249 . S
Mg14 O15 2.028 1_556 S
Mg14 O21 1.986 1_556 S
Mg14 O23 2.114 . S
Mg14 O24 2.251 . S
Mg14 O27 2.010 . S
O15 Mg14 2.028 1_554 S
O15 C18 1.250 . S
O16 Mg17 2.028 . S
O16 C18 1.248 . S
Mg17 O16 2.028 . S
Mg17 O22 2.032 . S
Mg17 O24 2.079 1_554 S
C18 O15 1.250 . S
C18 O16 1.248 . S
C19 O20 1.264 1_655 S
C19 O27 1.249 . S
O20 C19 1.264 1_455 S
O21 Mg14 1.986 1_554 S
O21 C25 1.246 . S
O22 Mg17 2.032 . S
O22 C25 1.259 . S
O23 Mg14 2.114 . S
O23 C26 1.252 . S
O24 Mg14 2.251 . S
O24 Mg17 2.079 1_556 S
O24 C26 1.273 . S
C25 O21 1.246 . S
C25 O22 1.259 . S
C26 O23 1.252 . S
C26 O24 1.273 . S
O27 Mg14 2.010 . S
O27 C19 1.249 . S
Mg28 O29 2.028 1_564 S
Mg28 O35 1.986 1_554 S
Mg28 O37 2.114 1_565 S
Mg28 O38 2.251 1_565 S
Mg28 O41 2.010 . S
O29 Mg28 2.028 1_546 S
O29 C32 1.250 . S
O30 Mg31 2.028 . S
O30 C32 1.248 . S
Mg31 O30 2.028 . S
Mg31 O36 2.032 . S
Mg31 O38 2.079 1_556 S
C32 O29 1.250 . S
C32 O30 1.248 . S
C33 O34 1.264 . S
C33 O41 1.249 . S
O34 C33 1.264 . S
O35 Mg28 1.986 1_556 S
O35 C39 1.246 . S
O36 Mg31 2.032 . S
O36 C39 1.259 1_545 S
O37 Mg28 2.114 1_545 S
O37 C40 1.252 . S
O38 Mg28 2.251 1_545 S
O38 Mg31 2.079 1_554 S
O38 C40 1.273 . S
C39 O35 1.246 . S
C39 O36 1.259 1_565 S
C40 O37 1.252 . S
C40 O38 1.273 . S
O41 Mg28 2.010 . S
O41 C33 1.249 . S
Mg42 O43 2.028 . S
Mg42 O49 1.986 . S
Mg42 O51 2.114 . S
Mg42 O52 2.251 . S
Mg42 O55 2.010 . S
O43 Mg42 2.028 . S
O43 C46 1.250 . S
O44 Mg45 2.028 . S
O44 C46 1.248 . S
Mg45 O44 2.028 . S
Mg45 O50 2.032 . S
Mg45 O52 2.079 . S
C46 O43 1.250 . S
C46 O44 1.248 . S
C47 O48 1.264 . S
C47 O55 1.249 . S
O48 C47 1.264 . S
O49 Mg42 1.986 . S
O49 C53 1.246 . S
O50 Mg45 2.032 . S
O50 C53 1.259 . S
O51 Mg42 2.114 . S
O51 C54 1.252 . S
O52 Mg42 2.251 . S
O52 Mg45 2.079 . S
O52 C54 1.273 . S
C53 O49 1.246 . S
C53 O50 1.259 . S
C54 O51 1.252 . S
C54 O52 1.273 . S
O55 Mg42 2.010 . S
O55 C47 1.249 . S
Mg56 O57 2.028 . S
Mg56 O63 1.986 . S
Mg56 O65 2.114 . S
Mg56 O66 2.251 . S
Mg56 O69 2.010 . S
O57 Mg56 2.028 . S
O57 C60 1.250 . S
O58 Mg59 2.028 . S
O58 C60 1.248 . S
Mg59 O58 2.028 . S
Mg59 O64 2.032 . S
Mg59 O66 2.079 . S
C60 O57 1.250 . S
C60 O58 1.248 . S
C61 O62 1.264 . S
C61 O69 1.249 . S
O62 C61 1.264 . S
O63 Mg56 1.986 . S
O63 C67 1.246 . S
O64 Mg59 2.032 . S
O64 C67 1.259 . S
O65 Mg56 2.114 . S
O65 C68 1.252 . S
O66 Mg56 2.251 . S
O66 Mg59 2.079 . S
O66 C68 1.273 . S
C67 O63 1.246 . S
C67 O64 1.259 . S
C68 O65 1.252 . S
C68 O66 1.273 . S
O69 Mg56 2.010 . S
O69 C61 1.249 . S
Mg70 O71 2.028 . S
Mg70 O77 1.986 . S
Mg70 O79 2.114 . S
Mg70 O80 2.251 . S
Mg70 O83 2.010 . S
O71 Mg70 2.028 . S
O71 C74 1.250 . S
O72 Mg73 2.028 . S
O72 C74 1.248 . S
Mg73 O72 2.028 . S
Mg73 O78 2.032 . S
Mg73 O80 2.079 . S
C74 O71 1.250 . S
C74 O72 1.248 . S
C75 O76 1.264 . S
C75 O83 1.249 . S
O76 C75 1.264 . S
O77 Mg70 1.986 . S
O77 C81 1.246 . S
O78 Mg73 2.032 . S
O78 C81 1.259 . S
O79 Mg70 2.114 . S
O79 C82 1.252 . S
O80 Mg70 2.251 . S
O80 Mg73 2.079 . S
O80 C82 1.273 . S
C81 O77 1.246 . S
C81 O78 1.259 . S
C82 O79 1.252 . S
C82 O80 1.273 . S
O83 Mg70 2.010 . S
O83 C75 1.249 . S
Mg84 O85 2.028 . S
Mg84 O91 1.986 . S
Mg84 O93 2.114 . S
Mg84 O94 2.251 . S
Mg84 O97 2.010 . S
O85 Mg84 2.028 . S
O85 C88 1.250 . S
O86 Mg87 2.028 . S
O86 C88 1.248 . S
Mg87 O86 2.028 . S
Mg87 O92 2.032 . S
Mg87 O94 2.079 . S
C88 O85 1.250 . S
C88 O86 1.248 . S
C89 O90 1.264 . S
C89 O97 1.249 . S
O90 C89 1.264 . S
O91 Mg84 1.986 . S
O91 C95 1.246 . S
O92 Mg87 2.032 . S
O92 C95 1.259 . S
O93 Mg84 2.114 . S
O93 C96 1.252 . S
O94 Mg84 2.251 . S
O94 Mg87 2.079 . S
O94 C96 1.273 . S
C95 O91 1.246 . S
C95 O92 1.259 . S
C96 O93 1.252 . S
C96 O94 1.273 . S
O97 Mg84 2.010 . S
O97 C89 1.249 . S
Mg98 O99 2.028 . S
Mg98 O105 1.986 . S
Mg98 O107 2.114 . S
Mg98 O108 2.251 . S
Mg98 O111 2.010 . S
O99 Mg98 2.028 . S
O99 C102 1.250 . S
O100 Mg101 2.028 1_455 S
O100 C102 1.248 . S
Mg101 O100 2.028 1_655 S
Mg101 O106 2.032 . S
Mg101 O108 2.079 1_655 S
C102 O99 1.250 . S
C102 O100 1.248 . S
C103 O104 1.264 . S
C103 O111 1.249 . S
O104 C103 1.264 . S
O105 Mg98 1.986 . S
O105 C109 1.246 . S
O106 Mg101 2.032 . S
O106 C109 1.259 1_655 S
O107 Mg98 2.114 . S
O107 C110 1.252 . S
O108 Mg98 2.251 . S
O108 Mg101 2.079 1_455 S
O108 C110 1.273 . S
C109 O105 1.246 . S
C109 O106 1.259 1_455 S
C110 O107 1.252 . S
C110 O108 1.273 . S
O111 Mg98 2.010 . S
O111 C103 1.249 . S
Mg112 O113 2.028 . S
Mg112 O119 1.986 . S
Mg112 O121 2.114 . S
Mg112 O122 2.251 . S
Mg112 O125 2.010 . S
O113 Mg112 2.028 . S
O113 C116 1.250 . S
O114 Mg115 2.028 . S
O114 C116 1.248 . S
Mg115 O114 2.028 . S
Mg115 O120 2.032 . S
Mg115 O122 2.079 . S
C116 O113 1.250 . S
C116 O114 1.248 . S
C117 O118 1.264 . S
C117 O125 1.249 . S
O118 C117 1.264 . S
O119 Mg112 1.986 . S
O119 C123 1.246 . S
O120 Mg115 2.032 . S
O120 C123 1.259 . S
O121 Mg112 2.114 . S
O121 C124 1.252 . S
O122 Mg112 2.251 . S
O122 Mg115 2.079 . S
O122 C124 1.273 . S
C123 O119 1.246 . S
C123 O120 1.259 . S
C124 O121 1.252 . S
C124 O122 1.273 . S
O125 Mg112 2.010 . S
O125 C117 1.249 . S
C32 C5 1.665 1_556 S
C18 C4 1.746 1_564 S
C19 C33 1.409 1_656 S
C75 C46 1.784 . S
C60 C47 1.689 . S
C61 C74 1.823 . S
C89 C116 1.379 . S
C88 C102 1.909 . S
C103 C117 1.577 . S
C11 C109 1.528 . S
C26 C124 1.341 . S
C96 C39 1.456 . S
C68 C40 1.361 . S
C12 C82 1.497 . S
C54 C25 1.487 . S
C110 C81 1.467 1_455 S
C53 C123 1.279 . S
C95 C67 1.452 1_565 S
