# Generated by pormake.
# Topology unj, (4)-cn, num edge types: 1
# Building blocks:
#     Node 0, Type 0, BuildingBlock: GALJAG_clean_sbu_0, # of connection points: 4
#     Node 1, Type 0, BuildingBlock: GALJAG_clean_sbu_0, # of connection points: 4
#     Node 2, Type 0, BuildingBlock: GALJAG_clean_sbu_0, # of connection points: 4
#     Node 3, Type 0, BuildingBlock: GALJAG_clean_sbu_0, # of connection points: 4
#     Node 4, Type 0, BuildingBlock: GALJAG_clean_sbu_0, # of connection points: 4
#     Node 5, Type 0, BuildingBlock: GALJAG_clean_sbu_0, # of connection points: 4
#     Edge 6, Type (0, 0), BuildingBlock: OJICUG_clean_linker_0, # of connection points: 2
#     Edge 7, Type (0, 0), BuildingBlock: OJICUG_clean_linker_0, # of connection points: 2
#     Edge 8, Type (0, 0), BuildingBlock: OJICUG_clean_linker_0, # of connection points: 2
#     Edge 9, Type (0, 0), BuildingBlock: OJICUG_clean_linker_0, # of connection points: 2
#     Edge 10, Type (0, 0), BuildingBlock: OJICUG_clean_linker_0, # of connection points: 2
#     Edge 11, Type (0, 0), BuildingBlock: OJICUG_clean_linker_0, # of connection points: 2
#     Edge 12, Type (0, 0), BuildingBlock: OJICUG_clean_linker_0, # of connection points: 2
#     Edge 13, Type (0, 0), BuildingBlock: OJICUG_clean_linker_0, # of connection points: 2
#     Edge 14, Type (0, 0), BuildingBlock: OJICUG_clean_linker_0, # of connection points: 2
#     Edge 15, Type (0, 0), BuildingBlock: OJICUG_clean_linker_0, # of connection points: 2
#     Edge 16, Type (0, 0), BuildingBlock: OJICUG_clean_linker_0, # of connection points: 2
#     Edge 17, Type (0, 0), BuildingBlock: OJICUG_clean_linker_0, # of connection points: 2
# Relax obj value: 0.013
# Max RMSD: 0.059
# Mean RMSD: 0.059
data_MOF--net-unj--node1-GALJAG_clean_sbu_0--edge1-OJICUG_clean_linker_0
_symmetry_space_group_name_H-M    P1
_symmetry_Int_Tables_number       1
_symmetry_cell_setting            triclinic
loop_
_symmetry_equiv_pos_as_xyz
'x, y, z'
_cell_length_a     23.24719
_cell_length_b     23.191429
_cell_length_c     28.736126
_cell_angle_alpha  89.963956
_cell_angle_beta   89.930555
_cell_angle_gamma 120.5104
loop_
_atom_site_label
_atom_site_type_symbol
_atom_site_fract_x
_atom_site_fract_y
_atom_site_fract_z
_atom_type_partial_charge
In0 In 0.47834 0.2375 0.59596 0.0
O1 O 0.5651 0.27819 0.54421 0.0
O2 O 0.48708 0.29818 0.53096 0.0
C3 C 0.54155 0.23588 0.67428 0.0
C4 C 0.41342 0.1143 0.55849 0.0
C5 C 0.41287 0.2928 0.63544 0.0
O6 O 0.56592 0.28519 0.6468 0.0
O7 O 0.48651 0.1868 0.66158 0.0
O8 O 0.38319 0.23199 0.6234 0.0
O9 O 0.47451 0.32531 0.62642 0.0
C10 C 0.54144 0.30411 0.51748 0.0
O11 O 0.38438 0.14677 0.56696 0.0
O12 O 0.47422 0.14353 0.56983 0.0
In13 In 0.22925 0.48686 0.76338 0.0
O14 O 0.22275 0.39393 0.72994 0.0
O15 O 0.31849 0.47535 0.74688 0.0
C16 C 0.10558 0.42523 0.79935 0.0
C17 C 0.22777 0.55104 0.68491 0.0
C18 C 0.29161 0.54955 0.8429 0.0
O19 O 0.13512 0.3939 0.78867 0.0
O20 O 0.13806 0.48738 0.79091 0.0
O21 O 0.29605 0.58131 0.80606 0.0
O22 O 0.25692 0.4868 0.83938 0.0
C23 C 0.28505 0.41799 0.72918 0.0
O24 O 0.2789 0.5721 0.71013 0.0
O25 O 0.17701 0.4991 0.69999 0.0
In26 In 0.72641 0.24251 0.92922 0.0
O27 O 0.68663 0.28904 0.87757 0.0
O28 O 0.66594 0.1902 0.86443 0.0
C29 C 0.72961 0.30865 1.00739 0.0
C30 C 0.84852 0.29923 0.89032 0.0
C31 C 0.66968 0.12025 0.96833 0.0
O32 O 0.67976 0.28247 0.98062 0.0
O33 O 0.7783 0.30322 0.99405 0.0
O34 O 0.73144 0.15391 0.95933 0.0
O35 O 0.63698 0.14783 0.95675 0.0
C36 C 0.66049 0.23891 0.85093 0.0
O37 O 0.81483 0.23734 0.89934 0.0
O38 O 0.82104 0.33209 0.90176 0.0
In39 In 0.48081 0.7387 0.09534 0.0
O40 O 0.38656 0.67147 0.05275 0.0
O41 O 0.48076 0.71165 0.01915 0.0
C42 C 0.4154 0.73907 0.17342 0.0
C43 C 0.54309 0.86277 0.05955 0.0
C44 C 0.55 0.68336 0.12964 0.0
O45 O 0.39624 0.6875 0.14883 0.0
O46 O 0.46601 0.79075 0.15789 0.0
O47 O 0.57266 0.74559 0.13052 0.0
O48 O 0.49398 0.6499 0.11025 0.0
C49 C 0.41819 0.67644 0.01577 0.0
O50 O 0.57406 0.8329 0.07033 0.0
O51 O 0.48104 0.83043 0.06781 0.0
In52 In 0.72867 0.48858 0.2631 0.0
O53 O 0.68174 0.40127 0.21185 0.0
O54 O 0.77978 0.48139 0.19743 0.0
C55 C 0.66155 0.42468 0.34125 0.0
C56 C 0.67386 0.55455 0.22369 0.0
C57 C 0.85153 0.55301 0.30065 0.0
O58 O 0.68771 0.40123 0.31454 0.0
O59 O 0.66748 0.47921 0.32791 0.0
O60 O 0.81934 0.58239 0.29236 0.0
O61 O 0.82217 0.49213 0.28913 0.0
C62 C 0.73107 0.42621 0.18447 0.0
O63 O 0.73402 0.58443 0.23692 0.0
O64 O 0.64169 0.49243 0.23155 0.0
In65 In 0.23086 0.73461 0.42908 0.0
O66 O 0.14186 0.74001 0.4008 0.0
O67 O 0.13621 0.64547 0.40157 0.0
C68 C 0.2873 0.85729 0.46725 0.0
C69 C 0.29612 0.73753 0.35023 0.0
C70 C 0.2282 0.66895 0.5077 0.0
O71 O 0.22569 0.82366 0.45805 0.0
O72 O 0.32004 0.82947 0.45634 0.0
O73 O 0.27796 0.69526 0.48073 0.0
O74 O 0.17932 0.67395 0.49434 0.0
C75 C 0.10834 0.67837 0.39122 0.0
O76 O 0.27067 0.68787 0.37741 0.0
O77 O 0.29036 0.78614 0.36347 0.0
C78 C 0.41699 0.01725 0.52476 0.0
C79 C 0.38011 0.04817 0.5357 0.0
H80 H 0.41661 0.93303 0.49433 0.0
C81 C 0.31218 0.01602 0.52374 0.0
H82 H 0.4695 0.04088 0.53341 0.0
C83 C 0.28173 0.95392 0.50126 0.0
C84 C 0.31886 0.92323 0.49025 0.0
H85 H 0.28261 0.03883 0.53168 0.0
H86 H 0.22925 0.93002 0.4925 0.0
C87 C 0.38673 0.95553 0.50222 0.0
C88 C 0.41735 0.38889 0.67738 0.0
C89 C 0.37926 0.3237 0.65966 0.0
H90 H 0.41742 0.46924 0.71371 0.0
C91 C 0.30968 0.28867 0.66602 0.0
H92 H 0.47112 0.41702 0.67325 0.0
C93 C 0.27874 0.31884 0.68917 0.0
C94 C 0.31703 0.3842 0.70668 0.0
H95 H 0.27917 0.23824 0.65282 0.0
H96 H 0.22496 0.29118 0.69317 0.0
C97 C 0.38661 0.4187 0.70079 0.0
C98 C 0.94341 0.29304 0.85425 0.0
C99 C 0.9143 0.33096 0.86713 0.0
H100 H 0.0269 0.29318 0.82243 0.0
C101 C 0.9481 0.39975 0.85695 0.0
H102 H 0.91836 0.23988 0.86155 0.0
C103 C 0.00991 0.43012 0.83447 0.0
C104 C 0.03922 0.39235 0.82174 0.0
H105 H 0.92682 0.43025 0.86633 0.0
H106 H 0.03487 0.48332 0.82731 0.0
C107 C 0.00538 0.32349 0.83176 0.0
C108 C 0.53875 0.95887 0.02436 0.0
C109 C 0.5762 0.9293 0.03717 0.0
H110 H 0.53897 0.04223 0.99238 0.0
C111 C 0.64491 0.96298 0.02717 0.0
H112 H 0.48568 0.93405 0.0315 0.0
C113 C 0.67551 0.02506 1.00461 0.0
C114 C 0.63787 0.05441 0.99164 0.0
H115 H 0.67498 0.94126 0.03656 0.0
H116 H 0.72853 0.04999 0.99732 0.0
C117 C 0.56925 0.02076 1.00182 0.0
C118 C 0.5796 0.55026 0.1797 0.0
C119 C 0.64337 0.58848 0.19938 0.0
H120 H 0.50072 0.55034 0.14174 0.0
C121 C 0.67741 0.65849 0.19489 0.0
H122 H 0.55229 0.49617 0.18235 0.0
C123 C 0.64758 0.68971 0.17166 0.0
C124 C 0.58362 0.65128 0.15219 0.0
H125 H 0.72674 0.68911 0.20963 0.0
H126 H 0.67439 0.7438 0.16914 0.0
C127 C 0.55018 0.58129 0.1562 0.0
C128 C 0.01005 0.57903 0.35617 0.0
C129 C 0.04242 0.64697 0.36844 0.0
H130 H 0.92469 0.4964 0.3249 0.0
C131 C 0.01181 0.68434 0.35794 0.0
H132 H 0.03248 0.54897 0.36368 0.0
C133 C 0.94975 0.65409 0.33563 0.0
C134 C 0.91755 0.58609 0.32335 0.0
H135 H 0.03575 0.73688 0.36694 0.0
H136 H 0.92702 0.68385 0.32806 0.0
C137 C 0.94836 0.54895 0.33381 0.0
C138 C 0.55679 0.37984 0.45073 0.0
C139 C 0.57291 0.33582 0.47279 0.0
H140 H 0.57298 0.4432 0.39184 0.0
C141 C 0.61761 0.3205 0.45098 0.0
H142 H 0.52235 0.39236 0.46679 0.0
C143 C 0.64521 0.34821 0.40764 0.0
C144 C 0.62975 0.39289 0.38585 0.0
H145 H 0.63047 0.28629 0.46709 0.0
H146 H 0.67951 0.33552 0.39154 0.0
C147 C 0.58562 0.40879 0.40789 0.0
C148 C 0.16774 0.59543 0.57566 0.0
C149 C 0.22815 0.63784 0.55259 0.0
H150 H 0.12031 0.53424 0.63554 0.0
C151 C 0.28852 0.65227 0.57365 0.0
H152 H 0.12048 0.58357 0.56024 0.0
C153 C 0.2885 0.62527 0.61721 0.0
C154 C 0.22803 0.5823 0.64004 0.0
H155 H 0.33584 0.68524 0.55678 0.0
H156 H 0.33575 0.63724 0.63268 0.0
C157 C 0.16765 0.56735 0.61875 0.0
C158 C 0.58458 0.17723 0.78466 0.0
C159 C 0.62905 0.23823 0.80624 0.0
H160 H 0.52137 0.12876 0.72601 0.0
C161 C 0.64524 0.29848 0.78386 0.0
H162 H 0.5714 0.13007 0.80116 0.0
C163 C 0.61798 0.29772 0.74035 0.0
C164 C 0.57292 0.2367 0.71903 0.0
H165 H 0.67982 0.34618 0.79961 0.0
H166 H 0.63132 0.34487 0.72376 0.0
C167 C 0.55611 0.17647 0.74169 0.0
C168 C 0.38369 0.64432 0.88695 0.0
C169 C 0.32351 0.58274 0.88702 0.0
H170 H 0.46175 0.72147 0.92806 0.0
C171 C 0.29406 0.55253 0.92972 0.0
H172 H 0.40738 0.66846 0.85445 0.0
C173 C 0.32403 0.58372 0.97173 0.0
C174 C 0.38504 0.64448 0.97166 0.0
H175 H 0.24742 0.50514 0.93062 0.0
H176 H 0.30026 0.55966 1.00423 0.0
C177 C 0.41479 0.6744 0.92895 0.0
C178 C 0.79058 0.38444 0.07394 0.0
C179 C 0.72991 0.3399 0.05213 0.0
H180 H 0.8384 0.44733 0.13289 0.0
C181 C 0.66961 0.32332 0.07438 0.0
H182 H 0.83777 0.39791 0.05753 0.0
C183 C 0.66999 0.3502 0.118 0.0
C184 C 0.73067 0.39529 0.13956 0.0
H185 H 0.62216 0.28866 0.05846 0.0
H186 H 0.62281 0.33653 0.1345 0.0
C187 C 0.79095 0.41256 0.11702 0.0
C188 C 0.36821 0.79838 0.28182 0.0
C189 C 0.32738 0.73785 0.30536 0.0
H190 H 0.42851 0.8462 0.2217 0.0
C191 C 0.31481 0.67757 0.28485 0.0
H192 H 0.37862 0.84557 0.2968 0.0
C193 C 0.34218 0.67782 0.2414 0.0
C194 C 0.38362 0.73844 0.21812 0.0
H195 H 0.2831 0.63015 0.30208 0.0
H196 H 0.33172 0.63064 0.22637 0.0
C197 C 0.39662 0.79873 0.23884 0.0
loop_
_geom_bond_atom_site_label_1
_geom_bond_atom_site_label_2
_geom_bond_distance
_geom_bond_site_symmetry_2
_ccdc_geom_bond_type
In0 O1 2.294 . S
In0 O2 2.326 . S
In0 O6 2.266 . S
In0 O7 2.326 . S
In0 O8 2.266 . S
In0 O9 2.326 . S
In0 O11 2.294 . S
In0 O12 2.326 . S
O1 In0 2.294 . S
O1 C10 1.240 . S
O2 In0 2.326 . S
O2 C10 1.252 . S
C3 O6 1.252 . S
C3 O7 1.260 . S
C4 O11 1.240 . S
C4 O12 1.252 . S
C5 O8 1.252 . S
C5 O9 1.260 . S
O6 In0 2.266 . S
O6 C3 1.252 . S
O7 In0 2.326 . S
O7 C3 1.260 . S
O8 In0 2.266 . S
O8 C5 1.252 . S
O9 In0 2.326 . S
O9 C5 1.260 . S
C10 O1 1.240 . S
C10 O2 1.252 . S
O11 In0 2.294 . S
O11 C4 1.240 . S
O12 In0 2.326 . S
O12 C4 1.252 . S
In13 O14 2.294 . S
In13 O15 2.326 . S
In13 O19 2.266 . S
In13 O20 2.326 . S
In13 O21 2.266 . S
In13 O22 2.326 . S
In13 O24 2.294 . S
In13 O25 2.326 . S
O14 In13 2.294 . S
O14 C23 1.240 . S
O15 In13 2.326 . S
O15 C23 1.252 . S
C16 O19 1.252 . S
C16 O20 1.260 . S
C17 O24 1.240 . S
C17 O25 1.252 . S
C18 O21 1.252 . S
C18 O22 1.260 . S
O19 In13 2.266 . S
O19 C16 1.252 . S
O20 In13 2.326 . S
O20 C16 1.260 . S
O21 In13 2.266 . S
O21 C18 1.252 . S
O22 In13 2.326 . S
O22 C18 1.260 . S
C23 O14 1.240 . S
C23 O15 1.252 . S
O24 In13 2.294 . S
O24 C17 1.240 . S
O25 In13 2.326 . S
O25 C17 1.252 . S
In26 O27 2.294 . S
In26 O28 2.326 . S
In26 O32 2.266 . S
In26 O33 2.326 . S
In26 O34 2.266 . S
In26 O35 2.326 . S
In26 O37 2.294 . S
In26 O38 2.326 . S
O27 In26 2.294 . S
O27 C36 1.240 . S
O28 In26 2.326 . S
O28 C36 1.252 . S
C29 O32 1.252 . S
C29 O33 1.260 . S
C30 O37 1.240 . S
C30 O38 1.252 . S
C31 O34 1.252 . S
C31 O35 1.260 . S
O32 In26 2.266 . S
O32 C29 1.252 . S
O33 In26 2.326 . S
O33 C29 1.260 . S
O34 In26 2.266 . S
O34 C31 1.252 . S
O35 In26 2.326 . S
O35 C31 1.260 . S
C36 O27 1.240 . S
C36 O28 1.252 . S
O37 In26 2.294 . S
O37 C30 1.240 . S
O38 In26 2.326 . S
O38 C30 1.252 . S
In39 O40 2.294 . S
In39 O41 2.326 . S
In39 O45 2.266 . S
In39 O46 2.326 . S
In39 O47 2.266 . S
In39 O48 2.326 . S
In39 O50 2.294 . S
In39 O51 2.326 . S
O40 In39 2.294 . S
O40 C49 1.240 . S
O41 In39 2.326 . S
O41 C49 1.252 . S
C42 O45 1.252 . S
C42 O46 1.260 . S
C43 O50 1.240 . S
C43 O51 1.252 . S
C44 O47 1.252 . S
C44 O48 1.260 . S
O45 In39 2.266 . S
O45 C42 1.252 . S
O46 In39 2.326 . S
O46 C42 1.260 . S
O47 In39 2.266 . S
O47 C44 1.252 . S
O48 In39 2.326 . S
O48 C44 1.260 . S
C49 O40 1.240 . S
C49 O41 1.252 . S
O50 In39 2.294 . S
O50 C43 1.240 . S
O51 In39 2.326 . S
O51 C43 1.252 . S
In52 O53 2.294 . S
In52 O54 2.326 . S
In52 O58 2.266 . S
In52 O59 2.326 . S
In52 O60 2.266 . S
In52 O61 2.326 . S
In52 O63 2.294 . S
In52 O64 2.326 . S
O53 In52 2.294 . S
O53 C62 1.240 . S
O54 In52 2.326 . S
O54 C62 1.252 . S
C55 O58 1.252 . S
C55 O59 1.260 . S
C56 O63 1.240 . S
C56 O64 1.252 . S
C57 O60 1.252 . S
C57 O61 1.260 . S
O58 In52 2.266 . S
O58 C55 1.252 . S
O59 In52 2.326 . S
O59 C55 1.260 . S
O60 In52 2.266 . S
O60 C57 1.252 . S
O61 In52 2.326 . S
O61 C57 1.260 . S
C62 O53 1.240 . S
C62 O54 1.252 . S
O63 In52 2.294 . S
O63 C56 1.240 . S
O64 In52 2.326 . S
O64 C56 1.252 . S
In65 O66 2.294 . S
In65 O67 2.326 . S
In65 O71 2.266 . S
In65 O72 2.326 . S
In65 O73 2.266 . S
In65 O74 2.326 . S
In65 O76 2.294 . S
In65 O77 2.326 . S
O66 In65 2.294 . S
O66 C75 1.240 . S
O67 In65 2.326 . S
O67 C75 1.252 . S
C68 O71 1.252 . S
C68 O72 1.260 . S
C69 O76 1.240 . S
C69 O77 1.252 . S
C70 O73 1.252 . S
C70 O74 1.260 . S
O71 In65 2.266 . S
O71 C68 1.252 . S
O72 In65 2.326 . S
O72 C68 1.260 . S
O73 In65 2.266 . S
O73 C70 1.252 . S
O74 In65 2.326 . S
O74 C70 1.260 . S
C75 O66 1.240 . S
C75 O67 1.252 . S
O76 In65 2.294 . S
O76 C69 1.240 . S
O77 In65 2.326 . S
O77 C69 1.252 . S
C78 C79 1.387 . S
C78 H82 0.950 . S
C78 C87 1.390 1_545 S
C79 C78 1.387 . S
C79 C81 1.387 . S
H80 C87 0.950 . S
C81 C79 1.387 . S
C81 C83 1.390 1_545 S
C81 H85 0.950 . S
H82 C78 0.950 . S
C83 C81 1.390 1_565 S
C83 C84 1.387 . S
C83 H86 0.950 . S
C84 C83 1.387 . S
C84 C87 1.387 . S
H85 C81 0.950 . S
H86 C83 0.950 . S
C87 C78 1.390 1_565 S
C87 H80 0.950 . S
C87 C84 1.387 . S
C88 C89 1.387 . S
C88 H92 0.950 . S
C88 C97 1.390 . S
C89 C88 1.387 . S
C89 C91 1.387 . S
H90 C97 0.950 . S
C91 C89 1.387 . S
C91 C93 1.390 . S
C91 H95 0.950 . S
H92 C88 0.950 . S
C93 C91 1.390 . S
C93 C94 1.387 . S
C93 H96 0.950 . S
C94 C93 1.387 . S
C94 C97 1.387 . S
H95 C91 0.950 . S
H96 C93 0.950 . S
C97 C88 1.390 . S
C97 H90 0.950 . S
C97 C94 1.387 . S
C98 C99 1.387 . S
C98 H102 0.950 . S
C98 C107 1.390 1_655 S
C99 C98 1.387 . S
C99 C101 1.387 . S
H100 C107 0.950 . S
C101 C99 1.387 . S
C101 C103 1.390 1_655 S
C101 H105 0.950 . S
H102 C98 0.950 . S
C103 C101 1.390 1_455 S
C103 C104 1.387 . S
C103 H106 0.950 . S
C104 C103 1.387 . S
C104 C107 1.387 . S
H105 C101 0.950 . S
H106 C103 0.950 . S
C107 C98 1.390 1_455 S
C107 H100 0.950 . S
C107 C104 1.387 . S
C108 C109 1.387 . S
C108 H112 0.950 . S
C108 C117 1.390 1_564 S
C109 C108 1.387 . S
C109 C111 1.387 . S
H110 C117 0.950 . S
C111 C109 1.387 . S
C111 C113 1.390 1_564 S
C111 H115 0.950 . S
H112 C108 0.950 . S
C113 C111 1.390 1_546 S
C113 C114 1.387 . S
C113 H116 0.950 . S
C114 C113 1.387 . S
C114 C117 1.387 . S
H115 C111 0.950 . S
H116 C113 0.950 . S
C117 C108 1.390 1_546 S
C117 H110 0.950 . S
C117 C114 1.387 . S
C118 C119 1.387 . S
C118 H122 0.950 . S
C118 C127 1.390 . S
C119 C118 1.387 . S
C119 C121 1.387 . S
H120 C127 0.950 . S
C121 C119 1.387 . S
C121 C123 1.390 . S
C121 H125 0.950 . S
H122 C118 0.950 . S
C123 C121 1.390 . S
C123 C124 1.387 . S
C123 H126 0.950 . S
C124 C123 1.387 . S
C124 C127 1.387 . S
H125 C121 0.950 . S
H126 C123 0.950 . S
C127 C118 1.390 . S
C127 H120 0.950 . S
C127 C124 1.387 . S
C128 C129 1.387 . S
C128 H132 0.950 . S
C128 C137 1.390 1_455 S
C129 C128 1.387 . S
C129 C131 1.387 . S
H130 C137 0.950 . S
C131 C129 1.387 . S
C131 C133 1.390 1_455 S
C131 H135 0.950 . S
H132 C128 0.950 . S
C133 C131 1.390 1_655 S
C133 C134 1.387 . S
C133 H136 0.950 . S
C134 C133 1.387 . S
C134 C137 1.387 . S
H135 C131 0.950 . S
H136 C133 0.950 . S
C137 C128 1.390 1_655 S
C137 H130 0.950 . S
C137 C134 1.387 . S
C138 C139 1.387 . S
C138 H142 0.950 . S
C138 C147 1.390 . S
C139 C138 1.387 . S
C139 C141 1.387 . S
H140 C147 0.950 . S
C141 C139 1.387 . S
C141 C143 1.390 . S
C141 H145 0.950 . S
H142 C138 0.950 . S
C143 C141 1.390 . S
C143 C144 1.387 . S
C143 H146 0.950 . S
C144 C143 1.387 . S
C144 C147 1.387 . S
H145 C141 0.950 . S
H146 C143 0.950 . S
C147 C138 1.390 . S
C147 H140 0.950 . S
C147 C144 1.387 . S
C148 C149 1.387 . S
C148 H152 0.950 . S
C148 C157 1.390 . S
C149 C148 1.387 . S
C149 C151 1.387 . S
H150 C157 0.950 . S
C151 C149 1.387 . S
C151 C153 1.390 . S
C151 H155 0.950 . S
H152 C148 0.950 . S
C153 C151 1.390 . S
C153 C154 1.387 . S
C153 H156 0.950 . S
C154 C153 1.387 . S
C154 C157 1.387 . S
H155 C151 0.950 . S
H156 C153 0.950 . S
C157 C148 1.390 . S
C157 H150 0.950 . S
C157 C154 1.387 . S
C158 C159 1.387 . S
C158 H162 0.950 . S
C158 C167 1.390 . S
C159 C158 1.387 . S
C159 C161 1.387 . S
H160 C167 0.950 . S
C161 C159 1.387 . S
C161 C163 1.390 . S
C161 H165 0.950 . S
H162 C158 0.950 . S
C163 C161 1.390 . S
C163 C164 1.387 . S
C163 H166 0.950 . S
C164 C163 1.387 . S
C164 C167 1.387 . S
H165 C161 0.950 . S
H166 C163 0.950 . S
C167 C158 1.390 . S
C167 H160 0.950 . S
C167 C164 1.387 . S
C168 C169 1.387 . S
C168 H172 0.950 . S
C168 C177 1.390 . S
C169 C168 1.387 . S
C169 C171 1.387 . S
H170 C177 0.950 . S
C171 C169 1.387 . S
C171 C173 1.390 . S
C171 H175 0.950 . S
H172 C168 0.950 . S
C173 C171 1.390 . S
C173 C174 1.387 . S
C173 H176 0.950 . S
C174 C173 1.387 . S
C174 C177 1.387 . S
H175 C171 0.950 . S
H176 C173 0.950 . S
C177 C168 1.390 . S
C177 H170 0.950 . S
C177 C174 1.387 . S
C178 C179 1.387 . S
C178 H182 0.950 . S
C178 C187 1.390 . S
C179 C178 1.387 . S
C179 C181 1.387 . S
H180 C187 0.950 . S
C181 C179 1.387 . S
C181 C183 1.390 . S
C181 H185 0.950 . S
H182 C178 0.950 . S
C183 C181 1.390 . S
C183 C184 1.387 . S
C183 H186 0.950 . S
C184 C183 1.387 . S
C184 C187 1.387 . S
H185 C181 0.950 . S
H186 C183 0.950 . S
C187 C178 1.390 . S
C187 H180 0.950 . S
C187 C184 1.387 . S
C188 C189 1.387 . S
C188 H192 0.950 . S
C188 C197 1.390 . S
C189 C188 1.387 . S
C189 C191 1.387 . S
H190 C197 0.950 . S
C191 C189 1.387 . S
C191 C193 1.390 . S
C191 H195 0.950 . S
H192 C188 0.950 . S
C193 C191 1.390 . S
C193 C194 1.387 . S
C193 H196 0.950 . S
C194 C193 1.387 . S
C194 C197 1.387 . S
H195 C191 0.950 . S
H196 C193 0.950 . S
C197 C188 1.390 . S
C197 H190 0.950 . S
C197 C194 1.387 . S
C79 C4 1.585 . S
C84 C68 1.586 . S
C89 C5 1.587 . S
C94 C23 1.585 . S
C99 C30 1.585 . S
C104 C16 1.587 . S
C109 C43 1.585 . S
C114 C31 1.586 . S
C119 C56 1.585 . S
C124 C44 1.587 . S
C129 C75 1.585 . S
C134 C57 1.587 . S
C139 C10 1.470 . S
C144 C55 1.471 . S
C149 C70 1.471 . S
C154 C17 1.470 . S
C159 C36 1.470 . S
C164 C3 1.471 . S
C169 C18 1.471 . S
C174 C49 1.470 1_556 S
C179 C29 1.471 1_554 S
C184 C62 1.470 . S
C189 C69 1.470 . S
C194 C42 1.471 . S
