# Generated by pormake.
# Topology sxb, (6)-cn, num edge types: 1
# Building blocks:
#     Node 0, Type 0, BuildingBlock: JUFBIX_clean_sbu_0, # of connection points: 6
#     Node 1, Type 0, BuildingBlock: JUFBIX_clean_sbu_0, # of connection points: 6
#     Node 2, Type 0, BuildingBlock: JUFBIX_clean_sbu_0, # of connection points: 6
#     Node 3, Type 0, BuildingBlock: JUFBIX_clean_sbu_0, # of connection points: 6
#     Edge 4, Type (0, 0), BuildingBlock: OJICUG_clean_linker_0, # of connection points: 2
#     Edge 5, Type (0, 0), BuildingBlock: OJICUG_clean_linker_0, # of connection points: 2
#     Edge 6, Type (0, 0), BuildingBlock: OJICUG_clean_linker_0, # of connection points: 2
#     Edge 7, Type (0, 0), BuildingBlock: OJICUG_clean_linker_0, # of connection points: 2
#     Edge 8, Type (0, 0), BuildingBlock: OJICUG_clean_linker_0, # of connection points: 2
#     Edge 9, Type (0, 0), BuildingBlock: OJICUG_clean_linker_0, # of connection points: 2
#     Edge 10, Type (0, 0), BuildingBlock: OJICUG_clean_linker_0, # of connection points: 2
#     Edge 11, Type (0, 0), BuildingBlock: OJICUG_clean_linker_0, # of connection points: 2
#     Edge 12, Type (0, 0), BuildingBlock: OJICUG_clean_linker_0, # of connection points: 2
#     Edge 13, Type (0, 0), BuildingBlock: OJICUG_clean_linker_0, # of connection points: 2
#     Edge 14, Type (0, 0), BuildingBlock: OJICUG_clean_linker_0, # of connection points: 2
#     Edge 15, Type (0, 0), BuildingBlock: OJICUG_clean_linker_0, # of connection points: 2
# Relax obj value: 0.038
# Max RMSD: 0.065
# Mean RMSD: 0.065
data_MOF--net-sxb--node1-JUFBIX_clean_sbu_0--edge1-OJICUG_clean_linker_0
_symmetry_space_group_name_H-M    P1
_symmetry_Int_Tables_number       1
_symmetry_cell_setting            triclinic
loop_
_symmetry_equiv_pos_as_xyz
'x, y, z'
_cell_length_a     10.859307
_cell_length_b     28.953349
_cell_length_c     21.725736
_cell_angle_alpha  90.005977
_cell_angle_beta   93.310257
_cell_angle_gamma 90.001553
loop_
_atom_site_label
_atom_site_type_symbol
_atom_site_fract_x
_atom_site_fract_y
_atom_site_fract_z
_atom_type_partial_charge
Co0 Co -0.02987 1.01622 0.00585 0.0
C1 C -0.02674 0.0594 0.12131 0.0
Co2 Co 0.96963 0.09273 1.00296 0.0
C3 C 0.06659 0.92361 0.99493 0.0
C4 C 0.9003 0.92476 0.04306 0.0
N5 N -0.02337 0.95215 0.01256 0.0
N6 N 0.05078 0.87968 0.01404 0.0
C7 C 0.94543 0.88031 0.044 0.0
H8 H 0.14565 0.93535 0.97119 0.0
H9 H 0.81961 0.93666 0.06535 0.0
C10 C 0.9665 1.04955 0.88751 0.0
N11 N 0.96313 0.15681 0.99626 0.0
C12 C 0.87316 0.18535 0.01388 0.0
C13 C 0.03946 0.18419 0.96576 0.0
N14 N 0.88898 0.22927 0.99477 0.0
C15 C -0.00567 0.22864 0.96481 0.0
C16 C 0.20423 0.05619 0.0081 0.0
O17 O 0.96721 1.01222 0.91842 0.0
O18 O 0.9666 0.08802 0.9158 0.0
O19 O 0.14513 0.0941 0.00617 0.0
O20 O 0.14482 1.01849 0.00908 0.0
O21 O -0.02745 0.09674 0.0904 0.0
H22 H 0.12015 0.1723 0.94347 0.0
H23 H 0.7941 0.17361 0.03762 0.0
O24 O -0.02684 1.02093 0.09302 0.0
O25 O 0.79463 1.01486 1.00265 0.0
O26 O 0.79494 0.09047 0.99974 0.0
C27 C 0.73552 1.05277 1.00071 0.0
H28 H 0.90485 0.85101 0.06619 0.0
H29 H 0.03491 0.25794 0.94263 0.0
Co30 Co 0.96962 1.01622 0.50295 0.0
C31 C 0.9665 0.0594 0.38751 0.0
Co32 Co -0.02987 0.09273 0.50586 0.0
C33 C 0.87316 0.92361 0.51386 0.0
C34 C 0.03942 0.92477 0.46571 0.0
N35 N 0.96312 0.95215 0.49623 0.0
N36 N 0.88897 0.87968 0.49475 0.0
C37 C -0.00571 0.88031 0.46477 0.0
H38 H 0.79412 0.93535 0.53762 0.0
H39 H 0.1201 0.93666 0.44341 0.0
C40 C -0.02674 1.04955 0.62131 0.0
N41 N -0.02336 0.15681 0.51258 0.0
C42 C 0.06659 0.18534 0.49495 0.0
C43 C 0.90034 0.18419 0.5431 0.0
N44 N 0.05079 0.22927 0.51407 0.0
C45 C 0.94547 0.22864 0.54405 0.0
C46 C 0.73552 0.05619 0.50071 0.0
O47 O -0.02745 1.01222 0.59039 0.0
O48 O -0.02683 0.08802 0.59303 0.0
O49 O 0.79464 0.0941 0.50266 0.0
O50 O 0.79493 1.01849 0.49973 0.0
O51 O 0.96721 0.09674 0.41843 0.0
H52 H 0.81966 0.17229 0.56541 0.0
H53 H 0.14563 0.1736 0.47118 0.0
O54 O 0.96659 1.02093 0.41579 0.0
O55 O 0.14512 1.01486 0.50615 0.0
O56 O 0.14482 0.09047 0.50909 0.0
C57 C 0.20423 1.05277 0.5081 0.0
H58 H 0.03485 0.85101 0.44257 0.0
H59 H 0.90491 0.25794 0.56624 0.0
Co60 Co 0.47012 0.51622 0.00584 0.0
C61 C 0.47325 0.5594 0.1213 0.0
Co62 Co 0.46962 0.59273 1.00295 0.0
C63 C 0.56659 0.42361 0.99492 0.0
C64 C 0.4003 0.42476 0.04305 0.0
N65 N 0.47662 0.45215 0.01255 0.0
N66 N 0.55077 0.37968 0.01404 0.0
C67 C 0.44542 0.38031 0.04399 0.0
H68 H 0.64566 0.43535 0.97118 0.0
H69 H 0.3196 0.43666 0.06534 0.0
C70 C 0.46649 0.54955 0.88749 0.0
N71 N 0.46312 0.65681 0.99624 0.0
C72 C 0.37316 0.68535 0.01387 0.0
C73 C 0.53945 0.68419 0.96574 0.0
N74 N 0.38897 0.72927 0.99476 0.0
C75 C 0.49432 0.72864 0.9648 0.0
C76 C 0.70423 0.55619 0.00809 0.0
O77 O 0.4672 0.51222 0.9184 0.0
O78 O 0.46659 0.58802 0.91578 0.0
O79 O 0.64512 0.5941 0.00615 0.0
O80 O 0.64481 0.51849 0.00907 0.0
O81 O 0.47254 0.59674 0.09039 0.0
H82 H 0.62014 0.6723 0.94345 0.0
H83 H 0.2941 0.67361 0.03761 0.0
O84 O 0.47315 0.52093 0.09301 0.0
O85 O 0.29463 0.51485 1.00264 0.0
O86 O 0.29493 0.59047 0.99972 0.0
C87 C 0.23552 0.55277 1.0007 0.0
H88 H 0.40485 0.35101 0.06618 0.0
H89 H 0.53489 0.75794 0.94261 0.0
Co90 Co 0.46962 0.51622 0.50294 0.0
C91 C 0.46649 0.5594 0.38749 0.0
Co92 Co 0.47013 0.59273 0.50585 0.0
C93 C 0.37316 0.42361 0.51385 0.0
C94 C 0.53941 0.42477 0.4657 0.0
N95 N 0.46311 0.45215 0.49622 0.0
N96 N 0.38896 0.37969 0.49473 0.0
C97 C 0.49428 0.38031 0.46475 0.0
H98 H 0.29412 0.43535 0.53762 0.0
H99 H 0.62008 0.43666 0.44339 0.0
C100 C 0.47325 0.54955 0.62129 0.0
N101 N 0.47663 0.65681 0.51257 0.0
C102 C 0.56659 0.68535 0.49494 0.0
C103 C 0.40033 0.68419 0.54309 0.0
N104 N 0.55078 0.72927 0.51406 0.0
C105 C 0.44546 0.72864 0.54404 0.0
C106 C 0.23552 0.55619 0.5007 0.0
O107 O 0.47254 0.51222 0.59037 0.0
O108 O 0.47316 0.58802 0.59302 0.0
O109 O 0.29463 0.5941 0.50265 0.0
O110 O 0.29493 0.51849 0.49971 0.0
O111 O 0.4672 0.59674 0.41841 0.0
H112 H 0.31965 0.67229 0.56539 0.0
H113 H 0.64563 0.67361 0.47118 0.0
O114 O 0.46658 0.52093 0.41577 0.0
O115 O 0.64511 0.51486 0.50614 0.0
O116 O 0.64482 0.59047 0.50907 0.0
C117 C 0.70423 0.55277 0.50809 0.0
H118 H 0.53484 0.35101 0.44256 0.0
H119 H 0.4049 0.75794 0.56623 0.0
C120 C 0.22146 0.76851 0.04731 0.0
C121 C 0.30464 0.76751 1.00007 0.0
H122 H 0.07695 0.80486 0.08926 0.0
C123 C 0.30191 0.804 0.95722 0.0
H124 H 0.22189 0.74141 0.0816 0.0
C125 C 0.21828 0.84045 0.96149 0.0
C126 C 0.1351 0.84144 0.00873 0.0
H127 H 0.3628 0.80409 0.91954 0.0
H128 H 0.21786 0.86755 0.9272 0.0
C129 C 0.13783 0.80496 0.05158 0.0
C130 C 0.71829 0.34045 0.96149 0.0
C131 C 0.6351 0.34144 0.00873 0.0
H132 H 0.86282 0.30409 0.91955 0.0
C133 C 0.63783 0.30496 0.05158 0.0
H134 H 0.71787 0.36754 0.9272 0.0
C135 C 0.72146 0.26851 0.04731 0.0
C136 C 0.80465 0.26751 1.00008 0.0
H137 H 0.57694 0.30486 0.08926 0.0
H138 H 0.72188 0.24141 0.08161 0.0
C139 C 0.80193 0.304 0.95722 0.0
C140 C 0.21824 0.26851 0.46148 0.0
C141 C 0.13511 0.26751 0.50874 0.0
H142 H 0.36271 0.30486 0.4195 0.0
C143 C 0.13788 0.304 0.5516 0.0
H144 H 0.21778 0.24141 0.42718 0.0
C145 C 0.22151 0.34045 0.54732 0.0
C146 C 0.30464 0.34144 0.50006 0.0
H147 H 0.07703 0.30409 0.5893 0.0
H148 H 0.22197 0.36755 0.58162 0.0
C149 C 0.30187 0.30496 0.4572 0.0
C150 C 0.7215 0.84045 0.54732 0.0
C151 C 0.80464 0.84144 0.50006 0.0
H152 H 0.57702 0.80409 0.58929 0.0
C153 C 0.80188 0.80496 0.4572 0.0
H154 H 0.72196 0.86755 0.58162 0.0
C155 C 0.71825 0.76851 0.46148 0.0
C156 C 0.63511 0.76751 0.50874 0.0
H157 H 0.86273 0.80486 0.41951 0.0
H158 H 0.71779 0.74141 0.42718 0.0
C159 C 0.63787 0.804 0.5516 0.0
C160 C 0.40724 0.09674 1.00308 0.0
C161 C 0.34027 0.05547 0.00703 0.0
H162 H 0.58431 0.12824 0.9976 0.0
C163 C 0.4043 1.01319 0.00833 0.0
H164 H 0.36068 0.12985 1.00176 0.0
C165 C 0.53252 1.01221 0.00573 0.0
C166 C 0.59949 1.05349 1.00178 0.0
H167 H 0.35545 0.98071 0.01122 0.0
H168 H 0.57908 0.97911 0.00705 0.0
C169 C 0.53545 0.09577 1.00049 0.0
C170 C 0.40723 1.01221 0.50307 0.0
C171 C 0.34027 1.05349 0.50703 0.0
H172 H 0.5843 0.98071 0.49759 0.0
C173 C 0.40431 0.09577 0.50833 0.0
H174 H 0.36067 0.97911 0.50175 0.0
C175 C 0.53253 0.09674 0.50574 0.0
C176 C 0.59949 0.05546 0.50178 0.0
H177 H 0.35546 0.12824 0.51123 0.0
H178 H 0.57909 0.12985 0.50707 0.0
C179 C 0.53545 1.01319 0.50048 0.0
C180 C 0.9043 0.51319 0.00831 0.0
C181 C 0.84026 0.55547 0.00702 0.0
H182 H 0.07907 0.47911 0.00704 0.0
C183 C 0.90723 0.59674 1.00307 0.0
H184 H 0.85544 0.48071 0.0112 0.0
C185 C 0.03545 0.59577 1.00047 0.0
C186 C 0.09948 0.55349 1.00177 0.0
H187 H 0.86068 0.62985 1.00175 0.0
H188 H 0.0843 0.62824 0.99758 0.0
C189 C 0.03251 0.51221 0.00572 0.0
C190 C 0.03544 0.51319 0.50047 0.0
C191 C 0.09948 0.55546 0.50177 0.0
H192 H 0.86066 0.47911 0.50173 0.0
C193 C 0.03252 0.59674 0.50573 0.0
H194 H 0.08429 0.48071 0.49757 0.0
C195 C 0.9043 0.59577 0.50832 0.0
C196 C 0.84026 0.55349 0.50702 0.0
H197 H 0.07908 0.62985 0.50706 0.0
H198 H 0.85545 0.62824 0.51122 0.0
C199 C 0.90722 0.51221 0.50306 0.0
C200 C 0.96875 0.10199 0.28662 0.0
C201 C 0.96752 0.06011 0.31939 0.0
H202 H -0.02832 0.13475 0.19817 0.0
C203 C 0.9687 1.01835 0.28645 0.0
H204 H 0.96808 0.13475 0.31067 0.0
C205 C -0.02896 1.01835 0.22235 0.0
C206 C -0.02777 0.06011 0.18942 0.0
H207 H 0.96801 0.98544 0.31015 0.0
H208 H -0.02827 0.98544 0.19864 0.0
C209 C -0.02899 0.10199 0.22221 0.0
C210 C 0.96874 1.00697 0.78661 0.0
C211 C 0.96753 1.04884 0.81939 0.0
H212 H -0.02833 0.9742 0.69814 0.0
C213 C 0.96871 0.0906 0.78646 0.0
H214 H 0.96807 0.9742 0.81065 0.0
C215 C -0.02895 0.0906 0.72236 0.0
C216 C -0.02777 1.04884 0.68942 0.0
H217 H 0.96802 0.12351 0.81018 0.0
H218 H -0.02825 0.12351 0.69866 0.0
C219 C -0.02899 1.00697 0.72219 0.0
C220 C 0.4687 0.51836 0.28644 0.0
C221 C 0.46751 0.56011 0.31938 0.0
H222 H 0.47173 0.48544 0.19863 0.0
C223 C 0.46874 0.60199 0.28661 0.0
H224 H 0.468 0.48544 0.31014 0.0
C225 C 0.47101 0.60199 0.22219 0.0
C226 C 0.47222 0.56011 0.18941 0.0
H227 H 0.46808 0.63475 0.31066 0.0
H228 H 0.47168 0.63475 0.19815 0.0
C229 C 0.47104 0.51836 0.22234 0.0
C230 C 0.471 0.50697 0.72218 0.0
C231 C 0.47223 0.54884 0.68941 0.0
H232 H 0.46807 0.4742 0.81063 0.0
C233 C 0.47105 0.5906 0.72235 0.0
H234 H 0.47166 0.4742 0.69813 0.0
C235 C 0.46871 0.5906 0.78645 0.0
C236 C 0.46752 0.54884 0.81938 0.0
H237 H 0.47174 0.62351 0.69865 0.0
H238 H 0.46802 0.62351 0.81016 0.0
C239 C 0.46874 0.50697 0.78659 0.0
loop_
_geom_bond_atom_site_label_1
_geom_bond_atom_site_label_2
_geom_bond_distance
_geom_bond_site_symmetry_2
_ccdc_geom_bond_type
Co0 N5 2.057 1_556 S
Co0 O17 2.021 . S
Co0 O20 2.062 . S
Co0 O24 2.117 1_556 S
Co0 O25 2.020 1_455 S
C1 O21 1.259 1_455 S
C1 O24 1.258 1_545 S
Co2 N11 2.057 1_554 S
Co2 O18 2.117 1_554 S
Co2 O19 2.020 1_655 S
Co2 O21 2.021 . S
Co2 O26 2.062 . S
C3 N5 1.316 1_556 S
C3 N6 1.347 1_556 S
C3 H8 0.931 . S
C4 N5 1.375 . S
C4 C7 1.350 . S
C4 H9 0.930 . S
N5 Co0 2.057 1_554 S
N5 C3 1.316 1_554 S
N5 C4 1.375 . S
N6 C3 1.347 1_554 S
N6 C7 1.373 . S
C7 C4 1.350 . S
C7 N6 1.373 . S
C7 H28 0.931 . S
H8 C3 0.931 . S
H9 C4 0.930 . S
C10 O17 1.259 1_655 S
C10 O18 1.258 1_565 S
N11 Co2 2.057 1_556 S
N11 C12 1.316 1_556 S
N11 C13 1.375 . S
C12 N11 1.316 1_554 S
C12 N14 1.347 1_554 S
C12 H23 0.931 . S
C13 N11 1.375 . S
C13 C15 1.350 . S
C13 H22 0.930 . S
N14 C12 1.347 1_556 S
N14 C15 1.373 . S
C15 C13 1.350 . S
C15 N14 1.373 . S
C15 H29 0.931 . S
C16 O19 1.258 . S
C16 O20 1.254 1_544 S
O17 Co0 2.021 . S
O17 C10 1.259 1_455 S
O18 Co2 2.117 1_556 S
O18 C10 1.258 1_545 S
O19 Co2 2.020 1_455 S
O19 C16 1.258 . S
O20 Co0 2.062 . S
O20 C16 1.254 1_566 S
O21 C1 1.259 1_655 S
O21 Co2 2.021 . S
H22 C13 0.930 . S
H23 C12 0.931 . S
O24 Co0 2.117 1_554 S
O24 C1 1.258 1_565 S
O25 Co0 2.020 1_655 S
O25 C27 1.257 . S
O26 Co2 2.062 . S
O26 C27 1.254 1_544 S
C27 O25 1.257 . S
C27 O26 1.254 1_566 S
H28 C7 0.931 . S
H29 C15 0.931 . S
Co30 N35 2.057 . S
Co30 O47 2.021 . S
Co30 O50 2.062 . S
Co30 O54 2.117 . S
Co30 O55 2.020 1_655 S
C31 O51 1.259 1_655 S
C31 O54 1.258 1_545 S
Co32 N41 2.057 . S
Co32 O48 2.117 . S
Co32 O49 2.020 1_455 S
Co32 O51 2.021 . S
Co32 O56 2.062 . S
C33 N35 1.316 . S
C33 N36 1.347 . S
C33 H38 0.931 . S
C34 N35 1.375 . S
C34 C37 1.350 . S
C34 H39 0.930 . S
N35 Co30 2.057 . S
N35 C33 1.316 . S
N35 C34 1.375 . S
N36 C33 1.347 . S
N36 C37 1.373 . S
C37 C34 1.350 . S
C37 N36 1.373 . S
C37 H58 0.931 . S
H38 C33 0.931 . S
H39 C34 0.930 . S
C40 O47 1.259 1_455 S
C40 O48 1.258 1_565 S
N41 Co32 2.057 . S
N41 C42 1.316 . S
N41 C43 1.375 . S
C42 N41 1.316 . S
C42 N44 1.347 . S
C42 H53 0.931 . S
C43 N41 1.375 . S
C43 C45 1.350 . S
C43 H52 0.930 . S
N44 C42 1.347 . S
N44 C45 1.373 . S
C45 C43 1.350 . S
C45 N44 1.373 . S
C45 H59 0.931 . S
C46 O49 1.256 . S
C46 O50 1.255 1_545 S
O47 Co30 2.021 . S
O47 C40 1.259 1_655 S
O48 Co32 2.117 . S
O48 C40 1.258 1_545 S
O49 Co32 2.020 1_655 S
O49 C46 1.256 . S
O50 Co30 2.062 . S
O50 C46 1.255 1_565 S
O51 C31 1.259 1_455 S
O51 Co32 2.021 . S
H52 C43 0.930 . S
H53 C42 0.931 . S
O54 Co30 2.117 . S
O54 C31 1.258 1_565 S
O55 Co30 2.020 1_455 S
O55 C57 1.256 . S
O56 Co32 2.062 . S
O56 C57 1.255 1_545 S
C57 O55 1.256 . S
C57 O56 1.255 1_565 S
H58 C37 0.931 . S
H59 C45 0.931 . S
Co60 N65 2.057 1_556 S
Co60 O77 2.021 . S
Co60 O80 2.062 . S
Co60 O84 2.117 1_556 S
Co60 O85 2.020 . S
C61 O81 1.259 . S
C61 O84 1.258 . S
Co62 N71 2.057 1_554 S
Co62 O78 2.117 1_554 S
Co62 O79 2.020 . S
Co62 O81 2.021 . S
Co62 O86 2.062 . S
C63 N65 1.316 1_556 S
C63 N66 1.347 1_556 S
C63 H68 0.931 . S
C64 N65 1.375 . S
C64 C67 1.350 . S
C64 H69 0.930 . S
N65 Co60 2.057 1_554 S
N65 C63 1.316 1_554 S
N65 C64 1.375 . S
N66 C63 1.347 1_554 S
N66 C67 1.373 . S
C67 C64 1.350 . S
C67 N66 1.373 . S
C67 H88 0.931 . S
H68 C63 0.931 . S
H69 C64 0.930 . S
C70 O77 1.259 . S
C70 O78 1.258 . S
N71 Co62 2.057 1_556 S
N71 C72 1.316 1_556 S
N71 C73 1.375 . S
C72 N71 1.316 1_554 S
C72 N74 1.347 1_554 S
C72 H83 0.931 . S
C73 N71 1.375 . S
C73 C75 1.350 . S
C73 H82 0.930 . S
N74 C72 1.347 1_556 S
N74 C75 1.373 . S
C75 C73 1.350 . S
C75 N74 1.373 . S
C75 H89 0.931 . S
C76 O79 1.258 . S
C76 O80 1.254 1_554 S
O77 Co60 2.021 . S
O77 C70 1.259 . S
O78 Co62 2.117 1_556 S
O78 C70 1.258 . S
O79 Co62 2.020 . S
O79 C76 1.258 . S
O80 Co60 2.062 . S
O80 C76 1.254 1_556 S
O81 C61 1.259 . S
O81 Co62 2.021 . S
H82 C73 0.930 . S
H83 C72 0.931 . S
O84 Co60 2.117 1_554 S
O84 C61 1.258 . S
O85 Co60 2.020 . S
O85 C87 1.257 . S
O86 Co62 2.062 . S
O86 C87 1.254 1_554 S
C87 O85 1.257 . S
C87 O86 1.254 1_556 S
H88 C67 0.931 . S
H89 C75 0.931 . S
Co90 N95 2.057 . S
Co90 O107 2.021 . S
Co90 O110 2.062 . S
Co90 O114 2.117 . S
Co90 O115 2.020 . S
C91 O111 1.259 . S
C91 O114 1.258 . S
Co92 N101 2.057 . S
Co92 O108 2.117 . S
Co92 O109 2.020 . S
Co92 O111 2.021 . S
Co92 O116 2.062 . S
C93 N95 1.316 . S
C93 N96 1.347 . S
C93 H98 0.931 . S
C94 N95 1.375 . S
C94 C97 1.350 . S
C94 H99 0.930 . S
N95 Co90 2.057 . S
N95 C93 1.316 . S
N95 C94 1.375 . S
N96 C93 1.347 . S
N96 C97 1.373 . S
C97 C94 1.350 . S
C97 N96 1.373 . S
C97 H118 0.931 . S
H98 C93 0.931 . S
H99 C94 0.930 . S
C100 O107 1.259 . S
C100 O108 1.258 . S
N101 Co92 2.057 . S
N101 C102 1.316 . S
N101 C103 1.375 . S
C102 N101 1.316 . S
C102 N104 1.347 . S
C102 H113 0.931 . S
C103 N101 1.375 . S
C103 C105 1.350 . S
C103 H112 0.930 . S
N104 C102 1.347 . S
N104 C105 1.373 . S
C105 C103 1.350 . S
C105 N104 1.373 . S
C105 H119 0.931 . S
C106 O109 1.256 . S
C106 O110 1.255 . S
O107 Co90 2.021 . S
O107 C100 1.259 . S
O108 Co92 2.117 . S
O108 C100 1.258 . S
O109 Co92 2.020 . S
O109 C106 1.256 . S
O110 Co90 2.062 . S
O110 C106 1.255 . S
O111 C91 1.259 . S
O111 Co92 2.021 . S
H112 C103 0.930 . S
H113 C102 0.931 . S
O114 Co90 2.117 . S
O114 C91 1.258 . S
O115 Co90 2.020 . S
O115 C117 1.256 . S
O116 Co92 2.062 . S
O116 C117 1.255 . S
C117 O115 1.256 . S
C117 O116 1.255 . S
H118 C97 0.931 . S
H119 C105 0.931 . S
C120 C121 1.387 . S
C120 H124 0.950 . S
C120 C129 1.390 . S
C121 C120 1.387 . S
C121 C123 1.387 1_554 S
H122 C129 0.950 . S
C123 C121 1.387 1_556 S
C123 C125 1.390 . S
C123 H127 0.950 . S
H124 C120 0.950 . S
C125 C123 1.390 . S
C125 C126 1.387 . S
C125 H128 0.950 . S
C126 C125 1.387 . S
C126 C129 1.387 1_556 S
H127 C123 0.950 . S
H128 C125 0.950 . S
C129 C120 1.390 . S
C129 H122 0.950 . S
C129 C126 1.387 1_554 S
C130 C131 1.387 . S
C130 H134 0.950 . S
C130 C139 1.390 . S
C131 C130 1.387 . S
C131 C133 1.387 1_556 S
H132 C139 0.950 . S
C133 C131 1.387 1_554 S
C133 C135 1.390 . S
C133 H137 0.950 . S
H134 C130 0.950 . S
C135 C133 1.390 . S
C135 C136 1.387 . S
C135 H138 0.950 . S
C136 C135 1.387 . S
C136 C139 1.387 1_554 S
H137 C133 0.950 . S
H138 C135 0.950 . S
C139 C130 1.390 . S
C139 H132 0.950 . S
C139 C136 1.387 1_556 S
C140 C141 1.387 . S
C140 H144 0.950 . S
C140 C149 1.390 . S
C141 C140 1.387 . S
C141 C143 1.387 . S
H142 C149 0.950 . S
C143 C141 1.387 . S
C143 C145 1.390 . S
C143 H147 0.950 . S
H144 C140 0.950 . S
C145 C143 1.390 . S
C145 C146 1.387 . S
C145 H148 0.950 . S
C146 C145 1.387 . S
C146 C149 1.387 . S
H147 C143 0.950 . S
H148 C145 0.950 . S
C149 C140 1.390 . S
C149 H142 0.950 . S
C149 C146 1.387 . S
C150 C151 1.387 . S
C150 H154 0.950 . S
C150 C159 1.390 . S
C151 C150 1.387 . S
C151 C153 1.387 . S
H152 C159 0.950 . S
C153 C151 1.387 . S
C153 C155 1.390 . S
C153 H157 0.950 . S
H154 C150 0.950 . S
C155 C153 1.390 . S
C155 C156 1.387 . S
C155 H158 0.950 . S
C156 C155 1.387 . S
C156 C159 1.387 . S
H157 C153 0.950 . S
H158 C155 0.950 . S
C159 C150 1.390 . S
C159 H152 0.950 . S
C159 C156 1.387 . S
C160 C161 1.387 1_556 S
C160 H164 0.950 . S
C160 C169 1.390 . S
C161 C160 1.387 1_554 S
C161 C163 1.387 1_545 S
H162 C169 0.950 . S
C163 C161 1.387 1_565 S
C163 C165 1.390 . S
C163 H167 0.950 . S
H164 C160 0.950 . S
C165 C163 1.390 . S
C165 C166 1.387 1_554 S
C165 H168 0.950 . S
C166 C165 1.387 1_556 S
C166 C169 1.387 1_565 S
H167 C163 0.950 . S
H168 C165 0.950 . S
C169 C160 1.390 . S
C169 H162 0.950 . S
C169 C166 1.387 1_545 S
C170 C171 1.387 . S
C170 H174 0.950 . S
C170 C179 1.390 . S
C171 C170 1.387 . S
C171 C173 1.387 1_565 S
H172 C179 0.950 . S
C173 C171 1.387 1_545 S
C173 C175 1.390 . S
C173 H177 0.950 . S
H174 C170 0.950 . S
C175 C173 1.390 . S
C175 C176 1.387 . S
C175 H178 0.950 . S
C176 C175 1.387 . S
C176 C179 1.387 1_545 S
H177 C173 0.950 . S
H178 C175 0.950 . S
C179 C170 1.390 . S
C179 H172 0.950 . S
C179 C176 1.387 1_565 S
C180 C181 1.387 . S
C180 H184 0.950 . S
C180 C189 1.390 1_655 S
C181 C180 1.387 . S
C181 C183 1.387 1_554 S
H182 C189 0.950 . S
C183 C181 1.387 1_556 S
C183 C185 1.390 1_655 S
C183 H187 0.950 . S
H184 C180 0.950 . S
C185 C183 1.390 1_455 S
C185 C186 1.387 . S
C185 H188 0.950 . S
C186 C185 1.387 . S
C186 C189 1.387 1_556 S
H187 C183 0.950 . S
H188 C185 0.950 . S
C189 C180 1.390 1_455 S
C189 H182 0.950 . S
C189 C186 1.387 1_554 S
C190 C191 1.387 . S
C190 H194 0.950 . S
C190 C199 1.390 1_455 S
C191 C190 1.387 . S
C191 C193 1.387 . S
H192 C199 0.950 . S
C193 C191 1.387 . S
C193 C195 1.390 1_455 S
C193 H197 0.950 . S
H194 C190 0.950 . S
C195 C193 1.390 1_655 S
C195 C196 1.387 . S
C195 H198 0.950 . S
C196 C195 1.387 . S
C196 C199 1.387 . S
H197 C193 0.950 . S
H198 C195 0.950 . S
C199 C190 1.390 1_655 S
C199 H192 0.950 . S
C199 C196 1.387 . S
C200 C201 1.387 . S
C200 H204 0.950 . S
C200 C209 1.390 1_655 S
C201 C200 1.387 . S
C201 C203 1.387 1_545 S
H202 C209 0.950 . S
C203 C201 1.387 1_565 S
C203 C205 1.390 1_655 S
C203 H207 0.950 . S
H204 C200 0.950 . S
C205 C203 1.390 1_455 S
C205 C206 1.387 1_565 S
C205 H208 0.950 . S
C206 C205 1.387 1_545 S
C206 C209 1.387 . S
H207 C203 0.950 . S
H208 C205 0.950 . S
C209 C200 1.390 1_455 S
C209 H202 0.950 . S
C209 C206 1.387 . S
C210 C211 1.388 . S
C210 H214 0.950 . S
C210 C219 1.389 1_655 S
C211 C210 1.388 . S
C211 C213 1.388 1_565 S
H212 C219 0.950 . S
C213 C211 1.388 1_545 S
C213 C215 1.389 1_655 S
C213 H217 0.950 . S
H214 C210 0.950 . S
C215 C213 1.389 1_455 S
C215 C216 1.388 1_545 S
C215 H218 0.950 . S
C216 C215 1.388 1_565 S
C216 C219 1.388 . S
H217 C213 0.950 . S
H218 C215 0.950 . S
C219 C210 1.389 1_455 S
C219 H212 0.950 . S
C219 C216 1.388 . S
C220 C221 1.387 . S
C220 H224 0.950 . S
C220 C229 1.390 . S
C221 C220 1.387 . S
C221 C223 1.387 . S
H222 C229 0.950 . S
C223 C221 1.387 . S
C223 C225 1.390 . S
C223 H227 0.950 . S
H224 C220 0.950 . S
C225 C223 1.390 . S
C225 C226 1.387 . S
C225 H228 0.950 . S
C226 C225 1.387 . S
C226 C229 1.387 . S
H227 C223 0.950 . S
H228 C225 0.950 . S
C229 C220 1.390 . S
C229 H222 0.950 . S
C229 C226 1.387 . S
C230 C231 1.387 . S
C230 H234 0.950 . S
C230 C239 1.390 . S
C231 C230 1.387 . S
C231 C233 1.387 . S
H232 C239 0.950 . S
C233 C231 1.387 . S
C233 C235 1.390 . S
C233 H237 0.950 . S
H234 C230 0.950 . S
C235 C233 1.390 . S
C235 C236 1.387 . S
C235 H238 0.950 . S
C236 C235 1.387 . S
C236 C239 1.387 . S
H237 C233 0.950 . S
H238 C235 0.950 . S
C239 C230 1.390 . S
C239 H232 0.950 . S
C239 C236 1.387 . S
C121 N74 1.539 1_554 S
C126 N6 1.542 1_556 S
C131 N66 1.540 1_556 S
C136 N14 1.537 1_554 S
C141 N44 1.539 . S
C146 N96 1.536 . S
C151 N36 1.540 . S
C156 N104 1.543 . S
C161 C16 1.144 . S
C166 C27 1.144 . S
C171 C57 1.147 . S
C176 C46 1.147 . S
C181 C76 1.146 . S
C186 C87 1.146 . S
C191 C106 1.147 . S
C196 C117 1.147 . S
C201 C31 1.498 . S
C206 C1 1.495 . S
C211 C10 1.498 . S
C216 C40 1.500 . S
C221 C91 1.498 . S
C226 C61 1.495 . S
C231 C100 1.498 . S
C236 C70 1.500 . S
