# Generated by pormake.
# Topology ukf, (4)-cn, num edge types: 1
# Building blocks:
#     Node 0, Type 0, BuildingBlock: QUQFOY_clean_sbu_3, # of connection points: 4
#     Node 1, Type 0, BuildingBlock: QUQFOY_clean_sbu_3, # of connection points: 4
#     Node 2, Type 0, BuildingBlock: QUQFOY_clean_sbu_3, # of connection points: 4
#     Node 3, Type 0, BuildingBlock: QUQFOY_clean_sbu_3, # of connection points: 4
#     Node 4, Type 0, BuildingBlock: QUQFOY_clean_sbu_3, # of connection points: 4
#     Node 5, Type 0, BuildingBlock: QUQFOY_clean_sbu_3, # of connection points: 4
#     Node 6, Type 0, BuildingBlock: QUQFOY_clean_sbu_3, # of connection points: 4
#     Node 7, Type 0, BuildingBlock: QUQFOY_clean_sbu_3, # of connection points: 4
#     Node 8, Type 0, BuildingBlock: QUQFOY_clean_sbu_3, # of connection points: 4
#     Node 9, Type 0, BuildingBlock: QUQFOY_clean_sbu_3, # of connection points: 4
#     Node 10, Type 0, BuildingBlock: QUQFOY_clean_sbu_3, # of connection points: 4
#     Node 11, Type 0, BuildingBlock: QUQFOY_clean_sbu_3, # of connection points: 4
#     Edge 12, Type (0, 0), None
#     Edge 13, Type (0, 0), None
#     Edge 14, Type (0, 0), None
#     Edge 15, Type (0, 0), None
#     Edge 16, Type (0, 0), None
#     Edge 17, Type (0, 0), None
#     Edge 18, Type (0, 0), None
#     Edge 19, Type (0, 0), None
#     Edge 20, Type (0, 0), None
#     Edge 21, Type (0, 0), None
#     Edge 22, Type (0, 0), None
#     Edge 23, Type (0, 0), None
#     Edge 24, Type (0, 0), None
#     Edge 25, Type (0, 0), None
#     Edge 26, Type (0, 0), None
#     Edge 27, Type (0, 0), None
#     Edge 28, Type (0, 0), None
#     Edge 29, Type (0, 0), None
#     Edge 30, Type (0, 0), None
#     Edge 31, Type (0, 0), None
#     Edge 32, Type (0, 0), None
#     Edge 33, Type (0, 0), None
#     Edge 34, Type (0, 0), None
#     Edge 35, Type (0, 0), None
# Relax obj value: 0.131
# Max RMSD: 0.098
# Mean RMSD: 0.098
data_MOF--net-ukf--node1-QUQFOY_clean_sbu_3--edge1-none
_symmetry_space_group_name_H-M    P1
_symmetry_Int_Tables_number       1
_symmetry_cell_setting            triclinic
loop_
_symmetry_equiv_pos_as_xyz
'x, y, z'
_cell_length_a     15.376586
_cell_length_b     15.371671
_cell_length_c     35.6293
_cell_angle_alpha  89.998271
_cell_angle_beta   89.998306
_cell_angle_gamma 120.00488
loop_
_atom_site_label
_atom_site_type_symbol
_atom_site_fract_x
_atom_site_fract_y
_atom_site_fract_z
_atom_type_partial_charge
C0 C 0.17724 0.0116 -0.04788 0.0
O1 O 0.19219 0.07613 0.92709 0.0
Cd2 Cd 0.32178 0.24785 0.93651 0.0
O3 O 0.22483 0.03893 -0.01688 0.0
Cd4 Cd 0.35277 0.19801 0.01439 0.0
C5 C 0.5134 0.20162 -0.04697 0.0
O6 O 0.32899 0.33732 -0.00609 0.0
O7 O 0.48122 0.37388 0.00696 0.0
O8 O 0.26461 0.14872 0.07549 0.0
C9 C 0.41991 0.40411 0.00034 0.0
O10 O 0.47225 0.2341 0.93034 0.0
C11 C 0.343 0.16671 0.09361 0.0
O12 O 0.48128 0.17578 -0.01372 0.0
O13 O 0.42342 0.19749 0.07506 0.0
C14 C 0.12348 0.19827 0.28547 0.0
O15 O 0.07394 0.2132 0.26043 0.0
Cd16 Cd 0.03193 0.34287 0.26984 0.0
O17 O 0.14371 0.24588 0.31646 0.0
Cd18 Cd 0.11259 0.37387 0.34771 0.0
C19 C 0.26978 0.5345 0.28639 0.0
O20 O -0.05044 0.35012 0.3272 0.0
O21 O 0.06527 0.50238 0.34025 0.0
O22 O 0.07369 0.2857 0.40881 0.0
C23 C -0.02627 0.44107 0.33363 0.0
O24 O 0.1962 0.49336 0.26368 0.0
C25 C 0.13412 0.36412 0.42692 0.0
O26 O 0.26341 0.50237 0.31964 0.0
O27 O 0.18375 0.44456 0.40837 0.0
C28 C 0.88311 0.14459 0.61876 0.0
O29 O 0.81865 0.09507 0.59371 0.0
Cd30 Cd 0.647 0.05305 0.6031 0.0
O31 O 0.85573 0.16482 0.64975 0.0
Cd32 Cd 0.69663 0.1337 0.68098 0.0
C33 C 0.69326 0.29095 0.61967 0.0
O34 O 0.5573 -0.02934 0.66045 0.0
O35 O 0.52087 0.08646 0.67348 0.0
O36 O 0.74572 0.09468 0.74209 0.0
C37 C 0.49058 -0.00511 0.66686 0.0
O38 O 0.66081 0.21736 0.59695 0.0
C39 C 0.72775 0.15512 0.7602 0.0
O40 O 0.71902 0.28459 0.65292 0.0
O41 O 0.69705 0.20483 0.74164 0.0
C42 C 0.69628 0.90424 -0.04789 0.0
O43 O 0.68134 0.83972 0.92708 0.0
Cd44 Cd 0.55174 0.668 0.9365 0.0
O45 O 0.6487 0.8769 -0.0169 0.0
Cd46 Cd 0.52075 0.71782 0.01438 0.0
C47 C 0.36013 0.71422 -0.04697 0.0
O48 O 0.54452 0.57851 -0.0061 0.0
O49 O 0.3923 0.54195 0.00696 0.0
O50 O 0.60892 0.76711 0.07547 0.0
C51 C 0.45361 0.51172 0.00034 0.0
O52 O 0.40128 0.68175 0.93033 0.0
C53 C 0.53054 0.74913 0.0936 0.0
O54 O 0.39224 0.74005 -0.01373 0.0
O55 O 0.45012 0.71835 0.07505 0.0
C56 C 0.75011 0.71758 0.28545 0.0
O57 O 0.79965 0.70265 0.26041 0.0
Cd58 Cd 0.84166 0.57297 0.26983 0.0
O59 O 0.72988 0.66997 0.31644 0.0
Cd60 Cd 0.761 0.54199 0.3477 0.0
C61 C 0.60381 0.38135 0.28639 0.0
O62 O 0.92403 0.56574 0.32719 0.0
O63 O 0.80832 0.41347 0.34026 0.0
O64 O 0.7999 0.63018 0.40879 0.0
C65 C 0.89985 0.47479 0.33362 0.0
O66 O 0.67739 0.42249 0.26367 0.0
C67 C 0.73947 0.55177 0.42692 0.0
O68 O 0.61018 0.41348 0.31964 0.0
O69 O 0.68984 0.47132 0.40837 0.0
C70 C -0.00952 0.77133 0.61875 0.0
O71 O 0.05494 0.82085 0.5937 0.0
Cd72 Cd 0.22659 0.86287 0.6031 0.0
O73 O 0.01784 0.7511 0.64975 0.0
Cd74 Cd 0.17693 0.78221 0.68098 0.0
C75 C 0.18032 0.62497 0.61967 0.0
O76 O 0.31626 0.94526 0.66045 0.0
O77 O 0.35269 0.82945 0.67348 0.0
O78 O 0.12783 0.82122 0.74208 0.0
C79 C 0.38298 0.92103 0.66686 0.0
O80 O 0.21279 0.69857 0.59695 0.0
C81 C 0.14579 0.76077 0.7602 0.0
O82 O 0.15455 0.63133 0.65292 0.0
O83 O 0.17649 0.71107 0.74164 0.0
C84 C 0.88311 0.71766 0.60912 0.0
O85 O 0.81867 0.70272 0.63417 0.0
Cd86 Cd 0.647 0.57304 0.62477 0.0
O87 O 0.85573 0.67005 0.57813 0.0
Cd88 Cd 0.69664 0.54205 0.54689 0.0
C89 C 0.69326 0.38143 0.6082 0.0
O90 O 0.55735 0.56579 0.56742 0.0
O91 O 0.52083 0.41352 0.55436 0.0
O92 O 0.74586 0.63021 0.48579 0.0
C93 C 0.49059 0.47483 0.56099 0.0
O94 O 0.6608 0.42255 0.63092 0.0
C95 C 0.72787 0.55178 0.46767 0.0
O96 O 0.719 0.41355 0.57495 0.0
O97 O 0.69709 0.47135 0.48623 0.0
C98 C 0.12355 0.90423 0.94246 0.0
O99 O 0.07399 0.83971 -0.03251 0.0
Cd100 Cd 0.03187 0.66799 -0.04194 0.0
O101 O 0.14381 0.87691 0.91146 0.0
Cd102 Cd 0.1127 0.71784 0.88017 0.0
C103 C 0.26971 0.71423 0.94153 0.0
O104 O -0.05039 0.57854 0.90066 0.0
O105 O 0.06525 0.54194 0.88759 0.0
O106 O 0.07384 0.76718 0.81909 0.0
C107 C -0.02627 0.51174 0.89422 0.0
O108 O 0.19609 0.68174 -0.03577 0.0
C109 C 0.13423 0.74919 0.80096 0.0
O110 O 0.26342 0.74005 0.90828 0.0
O111 O 0.18386 0.71838 0.8195 0.0
C112 C 0.17716 0.14458 0.27583 0.0
O113 O 0.19211 0.09506 0.30088 0.0
Cd114 Cd 0.32172 0.053 0.29148 0.0
O115 O 0.22475 0.16483 0.24483 0.0
Cd116 Cd 0.35272 0.13372 0.21359 0.0
C117 C 0.51334 0.2909 0.27492 0.0
O118 O 0.32899 -0.02934 0.23411 0.0
O119 O 0.48121 0.08643 0.22106 0.0
O120 O 0.2646 0.09472 0.15249 0.0
C121 C 0.41993 -0.00514 0.22769 0.0
O122 O 0.4722 0.21729 0.29762 0.0
C123 C 0.34299 0.15515 0.13437 0.0
O124 O 0.48122 0.28457 0.24167 0.0
O125 O 0.42339 0.20486 0.15292 0.0
C126 C -0.00952 0.19826 0.60913 0.0
O127 O 0.05491 0.2132 0.63418 0.0
Cd128 Cd 0.22658 0.34288 0.62478 0.0
O129 O 0.01786 0.24588 0.57814 0.0
Cd130 Cd 0.17696 0.37388 0.5469 0.0
C131 C 0.18033 0.5345 0.60821 0.0
O132 O 0.31624 0.35015 0.56742 0.0
O133 O 0.35277 0.50241 0.55436 0.0
O134 O 0.12774 0.2857 0.4858 0.0
C135 C 0.383 0.4411 0.561 0.0
O136 O 0.21277 0.49337 0.63092 0.0
C137 C 0.14572 0.36412 0.46768 0.0
O138 O 0.15459 0.50238 0.57495 0.0
O139 O 0.1765 0.44456 0.48623 0.0
C140 C 0.74998 0.01162 0.94245 0.0
O141 O 0.79954 0.07612 -0.03252 0.0
Cd142 Cd 0.84166 0.24785 -0.04195 0.0
O143 O 0.72972 0.03895 0.91145 0.0
Cd144 Cd 0.76084 0.19803 0.88017 0.0
C145 C 0.60382 0.20161 0.94154 0.0
O146 O 0.92392 0.33732 0.90065 0.0
O147 O 0.80828 0.37392 0.88759 0.0
O148 O 0.7997 0.14871 0.81908 0.0
C149 C 0.8998 0.40413 0.89422 0.0
O150 O 0.67744 0.23409 -0.03577 0.0
C151 C 0.73931 0.1667 0.80096 0.0
O152 O 0.61011 0.1758 0.90828 0.0
O153 O 0.68968 0.1975 0.81951 0.0
C154 C 0.69643 0.77127 0.27581 0.0
O155 O 0.68149 0.82079 0.30086 0.0
Cd156 Cd 0.55187 0.86285 0.29147 0.0
O157 O 0.64884 0.75102 0.24481 0.0
Cd158 Cd 0.52086 0.78213 0.21358 0.0
C159 C 0.36025 0.62494 0.27491 0.0
O160 O 0.54459 0.94519 0.2341 0.0
O161 O 0.39237 0.82942 0.22107 0.0
O162 O 0.60896 0.82112 0.15247 0.0
C163 C 0.45366 0.92099 0.22769 0.0
O164 O 0.40139 0.69856 0.29762 0.0
C165 C 0.53056 0.76069 0.13436 0.0
O166 O 0.39237 0.63128 0.24166 0.0
O167 O 0.45016 0.71099 0.15292 0.0
loop_
_geom_bond_atom_site_label_1
_geom_bond_atom_site_label_2
_geom_bond_distance
_geom_bond_site_symmetry_2
_ccdc_geom_bond_type
C0 O1 1.306 1_554 S
C0 O3 1.160 . S
O1 C0 1.306 1_556 S
O1 Cd2 2.228 . S
Cd2 O1 2.228 . S
Cd2 O6 2.273 1_556 S
Cd2 O10 2.277 . S
O3 C0 1.160 . S
O3 Cd4 2.203 . S
Cd4 O3 2.203 . S
Cd4 O6 2.411 . S
Cd4 O7 2.333 . S
Cd4 O8 2.352 . S
Cd4 O12 2.277 . S
Cd4 O13 2.356 . S
C5 O10 1.202 1_554 S
C5 O12 1.241 . S
O6 Cd2 2.273 1_554 S
O6 Cd4 2.411 . S
O6 C9 1.320 . S
O7 Cd4 2.333 . S
O7 C9 1.214 . S
O8 Cd4 2.352 . S
O8 C11 1.258 . S
C9 O6 1.320 . S
C9 O7 1.214 . S
O10 Cd2 2.277 . S
O10 C5 1.202 1_556 S
C11 O8 1.258 . S
C11 O13 1.282 . S
O12 Cd4 2.277 . S
O12 C5 1.241 . S
O13 Cd4 2.356 . S
O13 C11 1.282 . S
C14 O15 1.306 . S
C14 O17 1.160 . S
O15 C14 1.306 . S
O15 Cd16 2.228 . S
Cd16 O15 2.228 . S
Cd16 O20 2.273 . S
Cd16 O24 2.277 . S
O17 C14 1.160 . S
O17 Cd18 2.203 . S
Cd18 O17 2.203 . S
Cd18 O20 2.411 . S
Cd18 O21 2.333 . S
Cd18 O22 2.352 . S
Cd18 O26 2.277 . S
Cd18 O27 2.356 . S
C19 O24 1.209 . S
C19 O26 1.226 . S
O20 Cd16 2.273 . S
O20 Cd18 2.411 . S
O20 C23 1.318 1_455 S
O21 Cd18 2.333 . S
O21 C23 1.211 1_455 S
O22 Cd18 2.352 . S
O22 C25 1.258 . S
C23 O20 1.318 1_655 S
C23 O21 1.211 1_655 S
O24 Cd16 2.277 . S
O24 C19 1.209 . S
C25 O22 1.258 . S
C25 O27 1.282 . S
O26 Cd18 2.277 . S
O26 C19 1.226 . S
O27 Cd18 2.356 . S
O27 C25 1.282 . S
C28 O29 1.306 . S
C28 O31 1.160 . S
O29 C28 1.306 . S
O29 Cd30 2.228 . S
Cd30 O29 2.228 . S
Cd30 O34 2.273 . S
Cd30 O38 2.277 . S
O31 C28 1.160 . S
O31 Cd32 2.203 . S
Cd32 O31 2.203 . S
Cd32 O34 2.411 . S
Cd32 O35 2.333 . S
Cd32 O36 2.352 . S
Cd32 O40 2.277 . S
Cd32 O41 2.356 . S
C33 O38 1.209 . S
C33 O40 1.226 . S
O34 Cd30 2.273 . S
O34 Cd32 2.411 . S
O34 C37 1.322 1_545 S
O35 Cd32 2.333 . S
O35 C37 1.210 1_545 S
O36 Cd32 2.352 . S
O36 C39 1.258 . S
C37 O34 1.322 1_565 S
C37 O35 1.210 1_565 S
O38 Cd30 2.277 . S
O38 C33 1.209 . S
C39 O36 1.258 . S
C39 O41 1.282 . S
O40 Cd32 2.277 . S
O40 C33 1.226 . S
O41 Cd32 2.356 . S
O41 C39 1.282 . S
C42 O43 1.306 1_554 S
C42 O45 1.160 . S
O43 C42 1.306 1_556 S
O43 Cd44 2.228 . S
Cd44 O43 2.228 . S
Cd44 O48 2.273 1_556 S
Cd44 O52 2.277 . S
O45 C42 1.160 . S
O45 Cd46 2.203 . S
Cd46 O45 2.203 . S
Cd46 O48 2.411 . S
Cd46 O49 2.333 . S
Cd46 O50 2.352 . S
Cd46 O54 2.277 . S
Cd46 O55 2.356 . S
C47 O52 1.202 1_554 S
C47 O54 1.241 . S
O48 Cd44 2.273 1_554 S
O48 Cd46 2.411 . S
O48 C51 1.320 . S
O49 Cd46 2.333 . S
O49 C51 1.214 . S
O50 Cd46 2.352 . S
O50 C53 1.258 . S
C51 O48 1.320 . S
C51 O49 1.214 . S
O52 Cd44 2.277 . S
O52 C47 1.202 1_556 S
C53 O50 1.258 . S
C53 O55 1.282 . S
O54 Cd46 2.277 . S
O54 C47 1.241 . S
O55 Cd46 2.356 . S
O55 C53 1.282 . S
C56 O57 1.306 . S
C56 O59 1.160 . S
O57 C56 1.306 . S
O57 Cd58 2.228 . S
Cd58 O57 2.228 . S
Cd58 O62 2.273 . S
Cd58 O66 2.277 . S
O59 C56 1.160 . S
O59 Cd60 2.203 . S
Cd60 O59 2.203 . S
Cd60 O62 2.411 . S
Cd60 O63 2.333 . S
Cd60 O64 2.352 . S
Cd60 O68 2.277 . S
Cd60 O69 2.356 . S
C61 O66 1.209 . S
C61 O68 1.226 . S
O62 Cd58 2.273 . S
O62 Cd60 2.411 . S
O62 C65 1.318 1_655 S
O63 Cd60 2.333 . S
O63 C65 1.211 1_655 S
O64 Cd60 2.352 . S
O64 C67 1.258 . S
C65 O62 1.318 1_455 S
C65 O63 1.211 1_455 S
O66 Cd58 2.277 . S
O66 C61 1.209 . S
C67 O64 1.258 . S
C67 O69 1.282 . S
O68 Cd60 2.277 . S
O68 C61 1.226 . S
O69 Cd60 2.356 . S
O69 C67 1.282 . S
C70 O71 1.306 . S
C70 O73 1.160 . S
O71 C70 1.306 . S
O71 Cd72 2.228 . S
Cd72 O71 2.228 . S
Cd72 O76 2.273 . S
Cd72 O80 2.277 . S
O73 C70 1.160 . S
O73 Cd74 2.203 . S
Cd74 O73 2.203 . S
Cd74 O76 2.411 . S
Cd74 O77 2.333 . S
Cd74 O78 2.352 . S
Cd74 O82 2.277 . S
Cd74 O83 2.356 . S
C75 O80 1.209 . S
C75 O82 1.226 . S
O76 Cd72 2.273 . S
O76 Cd74 2.411 . S
O76 C79 1.322 1_565 S
O77 Cd74 2.333 . S
O77 C79 1.210 1_565 S
O78 Cd74 2.352 . S
O78 C81 1.258 . S
C79 O76 1.322 1_545 S
C79 O77 1.210 1_545 S
O80 Cd72 2.277 . S
O80 C75 1.209 . S
C81 O78 1.258 . S
C81 O83 1.282 . S
O82 Cd74 2.277 . S
O82 C75 1.226 . S
O83 Cd74 2.356 . S
O83 C81 1.282 . S
C84 O85 1.306 . S
C84 O87 1.160 . S
O85 C84 1.306 . S
O85 Cd86 2.228 . S
Cd86 O85 2.228 . S
Cd86 O90 2.273 . S
Cd86 O94 2.277 . S
O87 C84 1.160 . S
O87 Cd88 2.203 . S
Cd88 O87 2.203 . S
Cd88 O90 2.411 . S
Cd88 O91 2.333 . S
Cd88 O92 2.352 . S
Cd88 O96 2.277 . S
Cd88 O97 2.356 . S
C89 O94 1.209 . S
C89 O96 1.226 . S
O90 Cd86 2.273 . S
O90 Cd88 2.411 . S
O90 C93 1.320 . S
O91 Cd88 2.333 . S
O91 C93 1.214 . S
O92 Cd88 2.352 . S
O92 C95 1.258 . S
C93 O90 1.320 . S
C93 O91 1.214 . S
O94 Cd86 2.277 . S
O94 C89 1.209 . S
C95 O92 1.258 . S
C95 O97 1.282 . S
O96 Cd88 2.277 . S
O96 C89 1.226 . S
O97 Cd88 2.356 . S
O97 C95 1.282 . S
C98 O99 1.306 1_556 S
C98 O101 1.160 . S
O99 C98 1.306 1_554 S
O99 Cd100 2.228 . S
Cd100 O99 2.228 . S
Cd100 O104 2.273 1_554 S
Cd100 O108 2.277 . S
O101 C98 1.160 . S
O101 Cd102 2.203 . S
Cd102 O101 2.203 . S
Cd102 O104 2.411 . S
Cd102 O105 2.333 . S
Cd102 O106 2.352 . S
Cd102 O110 2.277 . S
Cd102 O111 2.356 . S
C103 O108 1.202 1_556 S
C103 O110 1.241 . S
O104 Cd100 2.273 1_556 S
O104 Cd102 2.411 . S
O104 C107 1.322 1_455 S
O105 Cd102 2.333 . S
O105 C107 1.210 1_455 S
O106 Cd102 2.352 . S
O106 C109 1.258 . S
C107 O104 1.322 1_655 S
C107 O105 1.210 1_655 S
O108 Cd100 2.277 . S
O108 C103 1.202 1_554 S
C109 O106 1.258 . S
C109 O111 1.282 . S
O110 Cd102 2.277 . S
O110 C103 1.241 . S
O111 Cd102 2.356 . S
O111 C109 1.282 . S
C112 O113 1.306 . S
C112 O115 1.160 . S
O113 C112 1.306 . S
O113 Cd114 2.228 . S
Cd114 O113 2.228 . S
Cd114 O118 2.273 . S
Cd114 O122 2.277 . S
O115 C112 1.160 . S
O115 Cd116 2.203 . S
Cd116 O115 2.203 . S
Cd116 O118 2.411 . S
Cd116 O119 2.333 . S
Cd116 O120 2.352 . S
Cd116 O124 2.277 . S
Cd116 O125 2.356 . S
C117 O122 1.209 . S
C117 O124 1.226 . S
O118 Cd114 2.273 . S
O118 Cd116 2.411 . S
O118 C121 1.318 1_545 S
O119 Cd116 2.333 . S
O119 C121 1.211 1_545 S
O120 Cd116 2.352 . S
O120 C123 1.258 . S
C121 O118 1.318 1_565 S
C121 O119 1.211 1_565 S
O122 Cd114 2.277 . S
O122 C117 1.209 . S
C123 O120 1.258 . S
C123 O125 1.282 . S
O124 Cd116 2.277 . S
O124 C117 1.226 . S
O125 Cd116 2.356 . S
O125 C123 1.282 . S
C126 O127 1.306 . S
C126 O129 1.160 . S
O127 C126 1.306 . S
O127 Cd128 2.228 . S
Cd128 O127 2.228 . S
Cd128 O132 2.273 . S
Cd128 O136 2.277 . S
O129 C126 1.160 . S
O129 Cd130 2.203 . S
Cd130 O129 2.203 . S
Cd130 O132 2.411 . S
Cd130 O133 2.333 . S
Cd130 O134 2.352 . S
Cd130 O138 2.277 . S
Cd130 O139 2.356 . S
C131 O136 1.209 . S
C131 O138 1.226 . S
O132 Cd128 2.273 . S
O132 Cd130 2.411 . S
O132 C135 1.320 . S
O133 Cd130 2.333 . S
O133 C135 1.214 . S
O134 Cd130 2.352 . S
O134 C137 1.258 . S
C135 O132 1.320 . S
C135 O133 1.214 . S
O136 Cd128 2.277 . S
O136 C131 1.209 . S
C137 O134 1.258 . S
C137 O139 1.282 . S
O138 Cd130 2.277 . S
O138 C131 1.226 . S
O139 Cd130 2.356 . S
O139 C137 1.282 . S
C140 O141 1.306 1_556 S
C140 O143 1.160 . S
O141 C140 1.306 1_554 S
O141 Cd142 2.228 . S
Cd142 O141 2.228 . S
Cd142 O146 2.273 1_554 S
Cd142 O150 2.277 . S
O143 C140 1.160 . S
O143 Cd144 2.203 . S
Cd144 O143 2.203 . S
Cd144 O146 2.411 . S
Cd144 O147 2.333 . S
Cd144 O148 2.352 . S
Cd144 O152 2.277 . S
Cd144 O153 2.356 . S
C145 O150 1.202 1_556 S
C145 O152 1.241 . S
O146 Cd142 2.273 1_556 S
O146 Cd144 2.411 . S
O146 C149 1.322 1_655 S
O147 Cd144 2.333 . S
O147 C149 1.210 1_655 S
O148 Cd144 2.352 . S
O148 C151 1.258 . S
C149 O146 1.322 1_455 S
C149 O147 1.210 1_455 S
O150 Cd142 2.277 . S
O150 C145 1.202 1_554 S
C151 O148 1.258 . S
C151 O153 1.282 . S
O152 Cd144 2.277 . S
O152 C145 1.241 . S
O153 Cd144 2.356 . S
O153 C151 1.282 . S
C154 O155 1.306 . S
C154 O157 1.160 . S
O155 C154 1.306 . S
O155 Cd156 2.228 . S
Cd156 O155 2.228 . S
Cd156 O160 2.273 . S
Cd156 O164 2.277 . S
O157 C154 1.160 . S
O157 Cd158 2.203 . S
Cd158 O157 2.203 . S
Cd158 O160 2.411 . S
Cd158 O161 2.333 . S
Cd158 O162 2.352 . S
Cd158 O166 2.277 . S
Cd158 O167 2.356 . S
C159 O164 1.209 . S
C159 O166 1.226 . S
O160 Cd156 2.273 . S
O160 Cd158 2.411 . S
O160 C163 1.318 1_565 S
O161 Cd158 2.333 . S
O161 C163 1.211 1_565 S
O162 Cd158 2.352 . S
O162 C165 1.258 . S
C163 O160 1.318 1_545 S
C163 O161 1.211 1_545 S
O164 Cd156 2.277 . S
O164 C159 1.209 . S
C165 O162 1.258 . S
C165 O167 1.282 . S
O166 Cd158 2.277 . S
O166 C159 1.226 . S
O167 Cd158 2.356 . S
O167 C165 1.282 . S
C98 C0 1.514 1_566 S
C14 C112 1.515 . S
C28 C126 1.515 1_655 S
C42 C140 1.514 1_564 S
C154 C56 1.515 . S
C84 C70 1.515 1_655 S
C145 C5 1.595 1_556 S
C19 C159 1.596 . S
C33 C89 1.596 . S
C103 C47 1.595 1_556 S
C117 C61 1.596 . S
C131 C75 1.596 . S
C11 C123 1.765 . S
C25 C137 1.765 . S
C151 C39 1.765 . S
C53 C165 1.765 . S
C95 C67 1.765 . S
C109 C81 1.765 . S
C51 C9 1.760 . S
C65 C23 1.766 1_455 S
C37 C79 1.755 1_565 S
C93 C135 1.761 . S
C107 C149 1.755 1_655 S
C163 C121 1.766 1_545 S
