# Generated by pormake.
# Topology qtz, (4)-cn, num edge types: 1
# Building blocks:
#     Node 0, Type 0, BuildingBlock: AZAVOO_clean_sbu_0, # of connection points: 4
#     Node 1, Type 0, BuildingBlock: AZAVOO_clean_sbu_0, # of connection points: 4
#     Node 2, Type 0, BuildingBlock: AZAVOO_clean_sbu_0, # of connection points: 4
#     Edge 3, Type (0, 0), BuildingBlock: FUNLAD_clean_linker_1, # of connection points: 2
#     Edge 4, Type (0, 0), BuildingBlock: FUNLAD_clean_linker_1, # of connection points: 2
#     Edge 5, Type (0, 0), BuildingBlock: FUNLAD_clean_linker_1, # of connection points: 2
#     Edge 6, Type (0, 0), BuildingBlock: FUNLAD_clean_linker_1, # of connection points: 2
#     Edge 7, Type (0, 0), BuildingBlock: FUNLAD_clean_linker_1, # of connection points: 2
#     Edge 8, Type (0, 0), BuildingBlock: FUNLAD_clean_linker_1, # of connection points: 2
# Relax obj value: 0.162
# Max RMSD: 0.226
# Mean RMSD: 0.200
data_MOF--net-qtz--node1-AZAVOO_clean_sbu_0--edge1-FUNLAD_clean_linker_1
_symmetry_space_group_name_H-M    P1
_symmetry_Int_Tables_number       1
_symmetry_cell_setting            triclinic
loop_
_symmetry_equiv_pos_as_xyz
'x, y, z'
_cell_length_a     23.970469
_cell_length_b     24.89794
_cell_length_c     29.134682
_cell_angle_alpha  91.019343
_cell_angle_beta   95.75247
_cell_angle_gamma 123.17281
loop_
_atom_site_label
_atom_site_type_symbol
_atom_site_fract_x
_atom_site_fract_y
_atom_site_fract_z
_atom_type_partial_charge
Mg0 Mg 0.97911 0.49984 0.14926 0.0
O1 O 0.06204 0.59069 0.19483 0.0
O2 O 0.01604 0.616 0.24705 0.0
Mg3 Mg 0.90268 0.54009 0.23505 0.0
C4 C 0.06711 0.6266 0.22889 0.0
C5 C 0.11148 0.53169 0.11464 0.0
O6 O 0.13089 0.54373 0.15943 0.0
O7 O 0.94291 0.55609 0.11004 0.0
O8 O 0.89277 0.57434 0.16349 0.0
O9 O 0.98861 0.43756 0.19857 0.0
O10 O 0.92027 0.47085 0.20273 0.0
C11 C 0.90872 0.57778 0.12258 0.0
C12 C 0.94487 0.43968 0.21987 0.0
O13 O 0.05225 0.51511 0.09883 0.0
Mg14 Mg 0.61491 0.04526 0.50423 0.0
O15 O 0.52644 0.99908 0.44555 0.0
O16 O 0.52739 0.07734 0.40839 0.0
Mg17 Mg 0.61906 0.17353 0.44156 0.0
C18 C 0.50149 0.01792 0.41409 0.0
C19 C 0.55564 0.89954 0.50921 0.0
O20 O 0.56083 0.90398 0.46483 0.0
O21 O 0.55931 0.0753 0.54676 0.0
O22 O 0.5692 0.15611 0.50767 0.0
O23 O 0.6828 0.04602 0.45671 0.0
O24 O 0.66842 0.12549 0.46813 0.0
C25 C 0.54979 0.12067 0.54141 0.0
C26 C 0.69588 0.10191 0.44683 0.0
O27 O 0.57131 0.94895 0.53488 0.0
Mg28 Mg 0.40939 0.46221 0.80025 0.0
O29 O 0.50602 0.49401 0.84861 0.0
O30 O 0.53561 0.58201 0.89308 0.0
Mg31 Mg 0.45694 0.60569 0.87403 0.0
C32 C 0.54564 0.53905 0.88016 0.0
C33 C 0.41134 0.38839 0.71354 0.0
O34 O 0.38848 0.42045 0.69309 0.0
O35 O 0.46804 0.54538 0.75603 0.0
O36 O 0.49055 0.62983 0.80202 0.0
O37 O 0.3451 0.40227 0.85303 0.0
O38 O 0.38227 0.50472 0.84734 0.0
C39 C 0.49239 0.6054 0.76376 0.0
C40 C 0.34919 0.45352 0.86852 0.0
O41 O 0.42505 0.39532 0.75735 0.0
H42 H 0.27668 0.40559 0.91853 0.0
C43 C 0.31333 0.4521 0.90715 0.0
H44 H 0.35582 0.55208 0.91294 0.0
H45 H 0.11557 0.55373 0.97377 0.0
H46 H 0.12599 0.59652 0.89882 0.0
H47 H 0.20213 0.59573 0.84822 0.0
H48 H 0.26885 0.553 0.87248 0.0
C49 C 0.32031 0.50588 0.9251 0.0
C50 C 0.27295 0.50367 0.95552 0.0
C51 C 0.23296 0.52751 0.94016 0.0
C52 C 0.18769 0.52639 0.96873 0.0
C53 C 0.14988 0.55227 0.95315 0.0
C54 C 0.15542 0.57713 0.91018 0.0
C55 C 0.19837 0.57679 0.88175 0.0
C56 C 0.23668 0.55229 0.89629 0.0
H57 H 0.21042 0.55878 0.09706 0.0
C58 C 0.15729 0.53342 0.08384 0.0
H59 H 0.08159 0.47473 0.02851 0.0
H60 H 0.34847 0.46228 -0.0016 0.0
H61 H 0.33251 0.41274 0.07095 0.0
H62 H 0.24419 0.39862 0.11599 0.0
H63 H 0.17286 0.43579 0.08944 0.0
C64 C 0.13466 0.50043 0.04198 0.0
C65 C 0.1813 0.50011 0.01209 0.0
C66 C 0.21956 0.4742 0.02676 0.0
C67 C 0.26729 0.47824 -0.00076 0.0
C68 C 0.30888 0.45715 0.01659 0.0
C69 C 0.30064 0.42908 0.05842 0.0
C70 C 0.25117 0.42144 0.08389 0.0
C71 C 0.21094 0.44357 0.06841 0.0
H72 H 0.88778 0.41249 0.27928 0.0
C73 C 0.92049 0.40474 0.26094 0.0
H74 H 0.95874 0.34667 0.25249 0.0
H75 H 0.85431 0.28374 0.4597 0.0
H76 H 0.95955 0.3847 0.48646 0.0
H77 H 0.03431 0.45383 0.43098 0.0
H78 H 0.00426 0.42208 0.34831 0.0
C79 C 0.92976 0.35795 0.27226 0.0
C80 C 0.88987 0.31304 0.30608 0.0
C81 C 0.90825 0.33213 0.35407 0.0
C82 C 0.86499 0.29241 0.38589 0.0
C83 C 0.88481 0.31243 0.43384 0.0
C84 C 0.94523 0.37018 0.4497 0.0
C85 C 0.98733 0.4091 0.41848 0.0
C86 C 0.96939 0.39048 0.37116 0.0
H87 H 0.75981 0.11411 0.39306 0.0
C88 C 0.73958 0.13673 0.41151 0.0
H89 H 0.73845 0.22009 0.42268 0.0
H90 H 0.84364 0.26017 0.21637 0.0
H91 H 0.73755 0.16039 0.18891 0.0
H92 H 0.65903 0.09419 0.24348 0.0
H93 H 0.68639 0.12678 0.32564 0.0
C94 C 0.75595 0.1961 0.40278 0.0
C95 C 0.80327 0.23394 0.36946 0.0
C96 C 0.78557 0.21418 0.32135 0.0
C97 C 0.82977 0.25328 0.28973 0.0
C98 C 0.81149 0.23257 0.24185 0.0
C99 C 0.75075 0.17542 0.22561 0.0
C100 C 0.70664 0.13809 0.25634 0.0
C101 C 0.72335 0.15716 0.30361 0.0
H102 H 0.52158 0.79709 0.50592 0.0
C103 C 0.53711 0.83886 0.52923 0.0
H104 H 0.562 0.87765 0.5988 0.0
H105 H 0.38074 0.57475 0.64159 0.0
H106 H 0.28543 0.57233 0.60183 0.0
H107 H 0.30197 0.66346 0.55887 0.0
H108 H 0.41388 0.75747 0.55541 0.0
C109 C 0.54313 0.8353 0.57516 0.0
C110 C 0.53266 0.77662 0.59537 0.0
C111 C 0.46684 0.72174 0.59643 0.0
C112 C 0.4573 0.66945 0.62151 0.0
C113 C 0.39097 0.61584 0.62308 0.0
C114 C 0.33576 0.61381 0.60039 0.0
C115 C 0.34507 0.66508 0.57617 0.0
C116 C 0.40968 0.7187 0.57431 0.0
H117 H 0.54307 0.6998 0.73588 0.0
C118 C 0.51799 0.64845 0.72646 0.0
H119 H 0.47399 0.57564 0.67107 0.0
H120 H 0.66565 0.87079 0.59462 0.0
H121 H 0.76116 0.87057 0.63116 0.0
H122 H 0.74431 0.77902 0.67375 0.0
H123 H 0.63164 0.68719 0.68021 0.0
C124 C 0.50274 0.62697 0.68146 0.0
C125 C 0.51354 0.67284 0.64595 0.0
C126 C 0.57945 0.72515 0.64143 0.0
C127 C 0.58904 0.77743 0.61646 0.0
C128 C 0.65548 0.82984 0.61336 0.0
C129 C 0.71072 0.83023 0.63402 0.0
C130 C 0.70124 0.77871 0.65804 0.0
C131 C 0.63646 0.72659 0.66176 0.0
H132 H 0.61158 0.50289 0.89119 0.0
C133 C 0.60388 0.53974 0.90309 0.0
H134 H 0.63927 0.62009 0.95087 0.0
H135 H 0.76479 0.46417 0.05331 0.0
H136 H 0.6491 0.37561 0.05401 0.0
H137 H 0.55561 0.38041 0.01561 0.0
H138 H 0.57721 0.47301 0.97571 0.0
C139 C 0.64523 0.58199 0.93926 0.0
C140 C 0.70113 0.57939 0.96404 0.0
C141 C 0.68718 0.52534 -0.01153 0.0
C142 C 0.74093 0.52366 0.01224 0.0
C143 C 0.72585 0.46849 0.03536 0.0
C144 C 0.65964 0.41725 0.03604 0.0
C145 C 0.60705 0.41987 0.01431 0.0
C146 C 0.62029 0.47323 -0.00898 0.0
H147 H 0.8552 0.62374 0.10056 0.0
C148 C 0.87755 0.59927 0.08786 0.0
H149 H 0.88007 0.54849 0.03008 0.0
H150 H 0.74572 0.68989 0.92044 0.0
H151 H 0.86158 0.78006 0.92267 0.0
H152 H 0.9541 0.77841 0.96656 0.0
H153 H 0.93129 0.6862 0.00837 0.0
C154 C 0.86276 0.57743 0.04295 0.0
C155 C 0.80816 0.57725 0.01363 0.0
C156 C 0.82215 0.63134 -0.01034 0.0
C157 C 0.76863 0.63235 0.96464 0.0
C158 C 0.78426 0.68679 0.94045 0.0
C159 C 0.85057 0.73882 0.94134 0.0
C160 C 0.90269 0.7379 0.96605 0.0
C161 C 0.88895 0.68485 -0.01004 0.0
H162 H 0.41105 0.98722 0.36495 0.0
C163 C 0.43853 0.97004 0.38447 0.0
H164 H 0.44079 0.88919 0.40129 0.0
H165 H 0.1308 0.68098 0.36431 0.0
H166 H 0.15726 0.67658 0.446 0.0
H167 H 0.26979 0.75598 0.48769 0.0
H168 H 0.35666 0.8398 0.44786 0.0
C169 C 0.41385 0.90671 0.38154 0.0
C170 C 0.34635 0.85844 0.35559 0.0
C171 C 0.29553 0.81046 0.37972 0.0
C172 C 0.23008 0.76563 0.35593 0.0
C173 C 0.18096 0.71716 0.38071 0.0
C174 C 0.1955 0.7139 0.42768 0.0
C175 C 0.25886 0.75852 0.45112 0.0
C176 C 0.3084 0.80637 0.42769 0.0
H177 H 0.17791 0.68263 0.23664 0.0
C178 C 0.13522 0.67962 0.24933 0.0
H179 H 0.10374 0.7184 0.29771 0.0
H180 H 0.43479 0.9357 0.29662 0.0
H181 H 0.40716 0.94352 0.21575 0.0
H182 H 0.29051 0.87476 0.17694 0.0
H183 H 0.20135 0.79646 0.21843 0.0
C184 C 0.14606 0.72203 0.28394 0.0
C185 C 0.21499 0.76955 0.30823 0.0
C186 C 0.26564 0.81793 0.28418 0.0
C187 C 0.33197 0.86074 0.30743 0.0
C188 C 0.38279 0.90469 0.28151 0.0
C189 C 0.36774 0.90926 0.23489 0.0
C190 C 0.30216 0.87032 0.21299 0.0
C191 C 0.25152 0.82515 0.23715 0.0
H192 H 0.42041 0.35025 0.6479 0.0
C193 C 0.42451 0.34788 0.68522 0.0
H194 H 0.44581 0.30544 0.74087 0.0
H195 H 0.38972 0.08287 0.58964 0.0
H196 H 0.28563 0.02519 0.62358 0.0
H197 H 0.26124 0.08072 0.68138 0.0
H198 H 0.34076 0.19461 0.70537 0.0
C199 C 0.443 0.31004 0.70383 0.0
C200 C 0.46143 0.27457 0.67399 0.0
C201 C 0.41552 0.20774 0.66147 0.0
C202 C 0.43011 0.17549 0.62868 0.0
C203 C 0.38189 0.10942 0.6151 0.0
C204 C 0.3218 0.0758 0.63418 0.0
C205 C 0.30803 0.10709 0.6667 0.0
C206 C 0.35403 0.17238 0.68017 0.0
H207 H 0.51595 0.11584 0.61026 0.0
C208 C 0.52029 0.13655 0.57724 0.0
H209 H 0.51013 0.20195 0.53815 0.0
H210 H 0.56421 0.40084 0.69588 0.0
H211 H 0.67022 0.45794 0.66435 0.0
H212 H 0.69602 0.40226 0.60774 0.0
H213 H 0.6161 0.28924 0.58241 0.0
C214 C 0.50441 0.18028 0.57086 0.0
C215 C 0.49126 0.21018 0.60931 0.0
C216 C 0.53881 0.27626 0.62394 0.0
C217 C 0.52395 0.30843 0.65641 0.0
C218 C 0.5725 0.37432 0.67068 0.0
C219 C 0.63373 0.4076 0.65305 0.0
C220 C 0.64825 0.37626 0.62119 0.0
C221 C 0.60169 0.31139 0.60678 0.0
loop_
_geom_bond_atom_site_label_1
_geom_bond_atom_site_label_2
_geom_bond_distance
_geom_bond_site_symmetry_2
_ccdc_geom_bond_type
Mg0 O1 2.028 1_655 S
Mg0 O7 1.986 . S
Mg0 O9 2.114 . S
Mg0 O10 2.251 . S
Mg0 O13 2.010 1_655 S
O1 Mg0 2.028 1_455 S
O1 C4 1.250 . S
O2 Mg3 2.028 1_455 S
O2 C4 1.248 . S
Mg3 O2 2.028 1_655 S
Mg3 O8 2.032 . S
Mg3 O10 2.079 . S
C4 O1 1.250 . S
C4 O2 1.248 . S
C5 O6 1.264 . S
C5 O13 1.249 . S
O6 C5 1.264 . S
O7 Mg0 1.986 . S
O7 C11 1.246 . S
O8 Mg3 2.032 . S
O8 C11 1.259 . S
O9 Mg0 2.114 . S
O9 C12 1.252 . S
O10 Mg0 2.251 . S
O10 Mg3 2.079 . S
O10 C12 1.273 . S
C11 O7 1.246 . S
C11 O8 1.259 . S
C12 O9 1.252 . S
C12 O10 1.273 . S
O13 Mg0 2.010 1_455 S
O13 C5 1.249 . S
Mg14 O15 2.028 1_545 S
Mg14 O21 1.986 . S
Mg14 O23 2.114 . S
Mg14 O24 2.251 . S
Mg14 O27 2.010 1_545 S
O15 Mg14 2.028 1_565 S
O15 C18 1.250 . S
O16 Mg17 2.028 . S
O16 C18 1.248 1_545 S
Mg17 O16 2.028 . S
Mg17 O22 2.032 . S
Mg17 O24 2.079 . S
C18 O15 1.250 . S
C18 O16 1.248 1_565 S
C19 O20 1.264 . S
C19 O27 1.249 . S
O20 C19 1.264 . S
O21 Mg14 1.986 . S
O21 C25 1.246 . S
O22 Mg17 2.032 . S
O22 C25 1.259 . S
O23 Mg14 2.114 . S
O23 C26 1.252 . S
O24 Mg14 2.251 . S
O24 Mg17 2.079 . S
O24 C26 1.273 . S
C25 O21 1.246 . S
C25 O22 1.259 . S
C26 O23 1.252 . S
C26 O24 1.273 . S
O27 Mg14 2.010 1_565 S
O27 C19 1.249 . S
Mg28 O29 2.028 . S
Mg28 O35 1.986 . S
Mg28 O37 2.114 . S
Mg28 O38 2.251 . S
Mg28 O41 2.010 . S
O29 Mg28 2.028 . S
O29 C32 1.250 . S
O30 Mg31 2.028 . S
O30 C32 1.248 . S
Mg31 O30 2.028 . S
Mg31 O36 2.032 . S
Mg31 O38 2.079 . S
C32 O29 1.250 . S
C32 O30 1.248 . S
C33 O34 1.264 . S
C33 O41 1.249 . S
O34 C33 1.264 . S
O35 Mg28 1.986 . S
O35 C39 1.246 . S
O36 Mg31 2.032 . S
O36 C39 1.259 . S
O37 Mg28 2.114 . S
O37 C40 1.252 . S
O38 Mg28 2.251 . S
O38 Mg31 2.079 . S
O38 C40 1.273 . S
C39 O35 1.246 . S
C39 O36 1.259 . S
C40 O37 1.252 . S
C40 O38 1.273 . S
O41 Mg28 2.010 . S
O41 C33 1.249 . S
H42 C43 0.951 . S
C43 H42 0.951 . S
C43 C49 1.265 . S
H44 C49 0.950 . S
H45 C53 0.949 . S
H46 C54 0.950 . S
H47 C55 0.951 . S
H48 C56 0.944 1_556 S
C49 C43 1.265 . S
C49 H44 0.950 . S
C49 C50 1.478 . S
C50 C49 1.478 . S
C50 C51 1.397 1_556 S
C50 C67 1.394 . S
C51 C50 1.397 1_554 S
C51 C52 1.438 . S
C51 C56 1.429 . S
C52 C51 1.438 . S
C52 C53 1.428 . S
C52 C65 1.394 . S
C53 H45 0.949 . S
C53 C52 1.428 . S
C53 C54 1.345 . S
C54 H46 0.950 . S
C54 C53 1.345 . S
C54 C55 1.424 . S
C55 H47 0.951 . S
C55 C54 1.424 . S
C55 C56 1.347 . S
C56 H48 0.944 1_554 S
C56 C51 1.429 . S
C56 C55 1.347 . S
H57 C58 0.951 . S
C58 H57 0.951 . S
C58 C64 1.265 . S
H59 C64 0.950 . S
H60 C68 0.949 . S
H61 C69 0.950 . S
H62 C70 0.951 . S
H63 C71 0.951 . S
C64 C58 1.265 . S
C64 H59 0.950 . S
C64 C65 1.478 . S
C65 C52 1.394 . S
C65 C64 1.478 . S
C65 C66 1.397 1_554 S
C66 C65 1.397 1_556 S
C66 C67 1.438 . S
C66 C71 1.429 . S
C67 C50 1.394 . S
C67 C66 1.438 . S
C67 C68 1.428 . S
C68 H60 0.949 . S
C68 C67 1.428 . S
C68 C69 1.345 . S
C69 H61 0.950 . S
C69 C68 1.345 . S
C69 C70 1.424 . S
C70 H62 0.951 . S
C70 C69 1.424 . S
C70 C71 1.347 . S
C71 H63 0.951 . S
C71 C66 1.429 . S
C71 C70 1.347 . S
H72 C73 0.951 . S
C73 H72 0.951 . S
C73 C79 1.265 . S
H74 C79 0.950 . S
H75 C83 0.949 . S
H76 C84 0.950 . S
H77 C85 0.951 . S
H78 C86 0.951 . S
C79 C73 1.265 . S
C79 H74 0.950 . S
C79 C80 1.478 . S
C80 C79 1.478 . S
C80 C81 1.397 . S
C80 C97 1.394 . S
C81 C80 1.397 . S
C81 C82 1.438 . S
C81 C86 1.429 . S
C82 C81 1.438 . S
C82 C83 1.428 . S
C82 C95 1.394 . S
C83 H75 0.949 . S
C83 C82 1.428 . S
C83 C84 1.345 . S
C84 H76 0.950 . S
C84 C83 1.345 . S
C84 C85 1.424 . S
C85 H77 0.951 . S
C85 C84 1.424 . S
C85 C86 1.347 . S
C86 H78 0.951 . S
C86 C81 1.429 . S
C86 C85 1.347 . S
H87 C88 0.951 . S
C88 H87 0.951 . S
C88 C94 1.265 . S
H89 C94 0.950 . S
H90 C98 0.949 . S
H91 C99 0.950 . S
H92 C100 0.951 . S
H93 C101 0.951 . S
C94 C88 1.265 . S
C94 H89 0.950 . S
C94 C95 1.478 . S
C95 C82 1.394 . S
C95 C94 1.478 . S
C95 C96 1.397 . S
C96 C95 1.397 . S
C96 C97 1.438 . S
C96 C101 1.429 . S
C97 C80 1.394 . S
C97 C96 1.438 . S
C97 C98 1.428 . S
C98 H90 0.949 . S
C98 C97 1.428 . S
C98 C99 1.345 . S
C99 H91 0.950 . S
C99 C98 1.345 . S
C99 C100 1.424 . S
C100 H92 0.951 . S
C100 C99 1.424 . S
C100 C101 1.347 . S
C101 H93 0.951 . S
C101 C96 1.429 . S
C101 C100 1.347 . S
H102 C103 0.951 . S
C103 H102 0.951 . S
C103 C109 1.265 . S
H104 C109 0.950 . S
H105 C113 0.949 . S
H106 C114 0.950 . S
H107 C115 0.951 . S
H108 C116 0.951 . S
C109 C103 1.265 . S
C109 H104 0.950 . S
C109 C110 1.478 . S
C110 C109 1.478 . S
C110 C111 1.397 . S
C110 C127 1.394 . S
C111 C110 1.397 . S
C111 C112 1.438 . S
C111 C116 1.429 . S
C112 C111 1.438 . S
C112 C113 1.428 . S
C112 C125 1.394 . S
C113 H105 0.949 . S
C113 C112 1.428 . S
C113 C114 1.345 . S
C114 H106 0.950 . S
C114 C113 1.345 . S
C114 C115 1.424 . S
C115 H107 0.951 . S
C115 C114 1.424 . S
C115 C116 1.347 . S
C116 H108 0.951 . S
C116 C111 1.429 . S
C116 C115 1.347 . S
H117 C118 0.951 . S
C118 H117 0.951 . S
C118 C124 1.265 . S
H119 C124 0.950 . S
H120 C128 0.949 . S
H121 C129 0.950 . S
H122 C130 0.951 . S
H123 C131 0.951 . S
C124 C118 1.265 . S
C124 H119 0.950 . S
C124 C125 1.478 . S
C125 C112 1.394 . S
C125 C124 1.478 . S
C125 C126 1.397 . S
C126 C125 1.397 . S
C126 C127 1.438 . S
C126 C131 1.429 . S
C127 C110 1.394 . S
C127 C126 1.438 . S
C127 C128 1.428 . S
C128 H120 0.949 . S
C128 C127 1.428 . S
C128 C129 1.345 . S
C129 H121 0.950 . S
C129 C128 1.345 . S
C129 C130 1.424 . S
C130 H122 0.951 . S
C130 C129 1.424 . S
C130 C131 1.347 . S
C131 H123 0.951 . S
C131 C126 1.429 . S
C131 C130 1.347 . S
H132 C133 0.951 . S
C133 H132 0.951 . S
C133 C139 1.265 . S
H134 C139 0.950 . S
H135 C143 0.949 . S
H136 C144 0.950 . S
H137 C145 0.951 . S
H138 C146 0.951 . S
C139 C133 1.265 . S
C139 H134 0.950 . S
C139 C140 1.478 . S
C140 C139 1.478 . S
C140 C141 1.397 . S
C140 C157 1.394 . S
C141 C140 1.397 . S
C141 C142 1.438 1_556 S
C141 C146 1.429 . S
C142 C141 1.438 1_554 S
C142 C143 1.428 . S
C142 C155 1.394 . S
C143 H135 0.949 . S
C143 C142 1.428 . S
C143 C144 1.345 . S
C144 H136 0.950 . S
C144 C143 1.345 . S
C144 C145 1.424 . S
C145 H137 0.951 . S
C145 C144 1.424 . S
C145 C146 1.347 1_554 S
C146 H138 0.951 . S
C146 C141 1.429 . S
C146 C145 1.347 1_556 S
H147 C148 0.951 . S
C148 H147 0.951 . S
C148 C154 1.265 . S
H149 C154 0.950 . S
H150 C158 0.949 . S
H151 C159 0.950 . S
H152 C160 0.951 . S
H153 C161 0.951 . S
C154 C148 1.265 . S
C154 H149 0.950 . S
C154 C155 1.478 . S
C155 C142 1.394 . S
C155 C154 1.478 . S
C155 C156 1.399 . S
C156 C155 1.399 . S
C156 C157 1.435 1_554 S
C156 C161 1.429 . S
C157 C140 1.394 . S
C157 C156 1.435 1_556 S
C157 C158 1.428 . S
C158 H150 0.949 . S
C158 C157 1.428 . S
C158 C159 1.345 . S
C159 H151 0.950 . S
C159 C158 1.345 . S
C159 C160 1.424 . S
C160 H152 0.951 . S
C160 C159 1.424 . S
C160 C161 1.347 1_556 S
C161 H153 0.951 . S
C161 C156 1.429 . S
C161 C160 1.347 1_554 S
H162 C163 0.951 . S
C163 H162 0.951 . S
C163 C169 1.265 . S
H164 C169 0.950 . S
H165 C173 0.949 . S
H166 C174 0.950 . S
H167 C175 0.951 . S
H168 C176 0.951 . S
C169 C163 1.265 . S
C169 H164 0.950 . S
C169 C170 1.478 . S
C170 C169 1.478 . S
C170 C171 1.397 . S
C170 C187 1.394 . S
C171 C170 1.397 . S
C171 C172 1.438 . S
C171 C176 1.429 . S
C172 C171 1.438 . S
C172 C173 1.428 . S
C172 C185 1.394 . S
C173 H165 0.949 . S
C173 C172 1.428 . S
C173 C174 1.345 . S
C174 H166 0.950 . S
C174 C173 1.345 . S
C174 C175 1.424 . S
C175 H167 0.951 . S
C175 C174 1.424 . S
C175 C176 1.347 . S
C176 H168 0.951 . S
C176 C171 1.429 . S
C176 C175 1.347 . S
H177 C178 0.951 . S
C178 H177 0.951 . S
C178 C184 1.265 . S
H179 C184 0.950 . S
H180 C188 0.949 . S
H181 C189 0.950 . S
H182 C190 0.951 . S
H183 C191 0.951 . S
C184 C178 1.265 . S
C184 H179 0.950 . S
C184 C185 1.478 . S
C185 C172 1.394 . S
C185 C184 1.478 . S
C185 C186 1.397 . S
C186 C185 1.397 . S
C186 C187 1.438 . S
C186 C191 1.429 . S
C187 C170 1.394 . S
C187 C186 1.438 . S
C187 C188 1.428 . S
C188 H180 0.949 . S
C188 C187 1.428 . S
C188 C189 1.345 . S
C189 H181 0.950 . S
C189 C188 1.345 . S
C189 C190 1.424 . S
C190 H182 0.951 . S
C190 C189 1.424 . S
C190 C191 1.347 . S
C191 H183 0.951 . S
C191 C186 1.429 . S
C191 C190 1.347 . S
H192 C193 0.951 . S
C193 H192 0.951 . S
C193 C199 1.265 . S
H194 C199 0.950 . S
H195 C203 0.949 . S
H196 C204 0.950 . S
H197 C205 0.951 . S
H198 C206 0.951 . S
C199 C193 1.265 . S
C199 H194 0.950 . S
C199 C200 1.478 . S
C200 C199 1.478 . S
C200 C201 1.397 . S
C200 C217 1.394 . S
C201 C200 1.397 . S
C201 C202 1.438 . S
C201 C206 1.429 . S
C202 C201 1.438 . S
C202 C203 1.428 . S
C202 C215 1.394 . S
C203 H195 0.949 . S
C203 C202 1.428 . S
C203 C204 1.345 . S
C204 H196 0.950 . S
C204 C203 1.345 . S
C204 C205 1.424 . S
C205 H197 0.951 . S
C205 C204 1.424 . S
C205 C206 1.347 . S
C206 H198 0.951 . S
C206 C201 1.429 . S
C206 C205 1.347 . S
H207 C208 0.951 . S
C208 H207 0.951 . S
C208 C214 1.265 . S
H209 C214 0.950 . S
H210 C218 0.949 . S
H211 C219 0.950 . S
H212 C220 0.951 . S
H213 C221 0.951 . S
C214 C208 1.265 . S
C214 H209 0.950 . S
C214 C215 1.478 . S
C215 C202 1.394 . S
C215 C214 1.478 . S
C215 C216 1.397 . S
C216 C215 1.397 . S
C216 C217 1.438 . S
C216 C221 1.429 . S
C217 C200 1.394 . S
C217 C216 1.438 . S
C217 C218 1.428 . S
C218 H210 0.949 . S
C218 C217 1.428 . S
C218 C219 1.345 . S
C219 H211 0.950 . S
C219 C218 1.345 . S
C219 C220 1.424 . S
C220 H212 0.951 . S
C220 C219 1.424 . S
C220 C221 1.347 . S
C221 H213 0.951 . S
C221 C216 1.429 . S
C221 C220 1.347 . S
C43 C40 1.299 . S
C58 C5 1.177 . S
C73 C12 1.321 . S
C88 C26 1.347 . S
C103 C19 1.015 . S
C118 C39 1.176 . S
C133 C32 1.246 . S
C148 C11 1.189 . S
C163 C18 1.267 . S
C178 C4 1.294 . S
C193 C33 1.000 . S
C208 C25 1.182 . S
