# Generated by pormake.
# Topology ume, (4)-cn, num edge types: 1
# Building blocks:
#     Node 0, Type 0, BuildingBlock: NAWXER_clean_sbu_0, # of connection points: 4
#     Node 1, Type 0, BuildingBlock: NAWXER_clean_sbu_0, # of connection points: 4
#     Node 2, Type 0, BuildingBlock: NAWXER_clean_sbu_0, # of connection points: 4
#     Node 3, Type 0, BuildingBlock: NAWXER_clean_sbu_0, # of connection points: 4
#     Node 4, Type 0, BuildingBlock: NAWXER_clean_sbu_0, # of connection points: 4
#     Node 5, Type 0, BuildingBlock: NAWXER_clean_sbu_0, # of connection points: 4
#     Node 6, Type 0, BuildingBlock: NAWXER_clean_sbu_0, # of connection points: 4
#     Node 7, Type 0, BuildingBlock: NAWXER_clean_sbu_0, # of connection points: 4
#     Node 8, Type 0, BuildingBlock: NAWXER_clean_sbu_0, # of connection points: 4
#     Node 9, Type 0, BuildingBlock: NAWXER_clean_sbu_0, # of connection points: 4
#     Node 10, Type 0, BuildingBlock: NAWXER_clean_sbu_0, # of connection points: 4
#     Node 11, Type 0, BuildingBlock: NAWXER_clean_sbu_0, # of connection points: 4
#     Node 12, Type 0, BuildingBlock: NAWXER_clean_sbu_0, # of connection points: 4
#     Node 13, Type 0, BuildingBlock: NAWXER_clean_sbu_0, # of connection points: 4
#     Node 14, Type 0, BuildingBlock: NAWXER_clean_sbu_0, # of connection points: 4
#     Node 15, Type 0, BuildingBlock: NAWXER_clean_sbu_0, # of connection points: 4
#     Edge 16, Type (0, 0), None
#     Edge 17, Type (0, 0), None
#     Edge 18, Type (0, 0), None
#     Edge 19, Type (0, 0), None
#     Edge 20, Type (0, 0), None
#     Edge 21, Type (0, 0), None
#     Edge 22, Type (0, 0), None
#     Edge 23, Type (0, 0), None
#     Edge 24, Type (0, 0), None
#     Edge 25, Type (0, 0), None
#     Edge 26, Type (0, 0), None
#     Edge 27, Type (0, 0), None
#     Edge 28, Type (0, 0), None
#     Edge 29, Type (0, 0), None
#     Edge 30, Type (0, 0), None
#     Edge 31, Type (0, 0), None
#     Edge 32, Type (0, 0), None
#     Edge 33, Type (0, 0), None
#     Edge 34, Type (0, 0), None
#     Edge 35, Type (0, 0), None
#     Edge 36, Type (0, 0), None
#     Edge 37, Type (0, 0), None
#     Edge 38, Type (0, 0), None
#     Edge 39, Type (0, 0), None
#     Edge 40, Type (0, 0), None
#     Edge 41, Type (0, 0), None
#     Edge 42, Type (0, 0), None
#     Edge 43, Type (0, 0), None
#     Edge 44, Type (0, 0), None
#     Edge 45, Type (0, 0), None
#     Edge 46, Type (0, 0), None
#     Edge 47, Type (0, 0), None
# Relax obj value: 0.054
# Max RMSD: 0.243
# Mean RMSD: 0.243
data_MOF--net-ume--node1-NAWXER_clean_sbu_0--edge1-none
_symmetry_space_group_name_H-M    P1
_symmetry_Int_Tables_number       1
_symmetry_cell_setting            triclinic
loop_
_symmetry_equiv_pos_as_xyz
'x, y, z'
_cell_length_a     12.563119
_cell_length_b     12.563196
_cell_length_c     49.804906
_cell_angle_alpha  90.001271
_cell_angle_beta   89.998828
_cell_angle_gamma 89.99586
loop_
_atom_site_label
_atom_site_type_symbol
_atom_site_fract_x
_atom_site_fract_y
_atom_site_fract_z
_atom_type_partial_charge
C0 C 0.25299 0.15831 0.37461 0.0
C1 C 0.27262 0.20668 0.27804 0.0
O2 O 0.25131 0.24496 0.36152 0.0
Zn3 Zn 0.25334 0.18206 0.32609 0.0
O4 O 0.25334 0.06922 0.36207 0.0
Zn5 Zn 0.25541 0.01577 0.32107 0.0
O6 O 0.38368 0.93447 0.32065 0.0
O7 O 0.40965 0.10784 0.32517 0.0
O8 O 0.27103 0.10788 0.28455 0.0
O9 O 0.26211 0.27787 0.2959 0.0
O10 O 0.09781 0.10883 0.32228 0.0
O11 O 0.12575 0.93646 0.3174 0.0
C12 C 0.4466 0.01292 0.32309 0.0
C13 C 0.06167 0.01394 0.31923 0.0
C14 C 0.99527 0.94654 0.57309 0.0
C15 C 0.99424 0.56161 0.56924 0.0
O16 O 0.07372 0.88361 0.57066 0.0
Zn17 Zn 0.99242 0.75534 0.57107 0.0
O18 O 0.90035 0.9096 0.57517 0.0
Zn19 Zn 0.82612 0.7533 0.57609 0.0
O20 O 0.76322 0.7513 0.61152 0.0
O21 O 0.93896 0.75331 0.61208 0.0
O22 O 0.89935 0.59777 0.57228 0.0
O23 O 0.07172 0.62567 0.56741 0.0
O24 O 0.90032 0.77096 0.53455 0.0
O25 O 0.73032 0.76208 0.54589 0.0
C26 C 0.84987 0.75298 0.62461 0.0
C27 C 0.80153 0.77258 0.52803 0.0
C28 C 0.06165 0.4953 0.82309 0.0
C29 C 0.44658 0.49427 0.81923 0.0
O30 O 0.12457 0.57375 0.82066 0.0
Zn31 Zn 0.25284 0.49244 0.82107 0.0
O32 O 0.09859 0.40038 0.82517 0.0
Zn33 Zn 0.25491 0.32615 0.82608 0.0
O34 O 0.25692 0.26325 0.86151 0.0
O35 O 0.25488 0.43899 0.86207 0.0
O36 O 0.41044 0.39938 0.82228 0.0
O37 O 0.3825 0.57175 0.81741 0.0
O38 O 0.23722 0.40034 0.78455 0.0
O39 O 0.24614 0.23035 0.79589 0.0
C40 C 0.25523 0.34989 0.87461 0.0
C41 C 0.23562 0.30155 0.77803 0.0
C42 C 0.51288 0.56161 0.07309 0.0
C43 C 0.5139 0.94654 0.06924 0.0
O44 O 0.43442 0.62454 0.07066 0.0
Zn45 Zn 0.51572 0.7528 0.07107 0.0
O46 O 0.6078 0.59854 0.07517 0.0
Zn47 Zn 0.68202 0.75485 0.07609 0.0
O48 O 0.74493 0.75686 0.11151 0.0
O49 O 0.56919 0.75486 0.11208 0.0
O50 O 0.60879 0.91038 0.07228 0.0
O51 O 0.43641 0.88247 0.06741 0.0
O52 O 0.60782 0.73718 0.03455 0.0
O53 O 0.77782 0.74607 0.04589 0.0
C54 C 0.65829 0.75519 0.12461 0.0
C55 C 0.70662 0.73557 0.02804 0.0
C56 C 0.25312 0.3499 0.90404 0.0
C57 C 0.27268 0.30163 1.00062 0.0
O58 O 0.25143 0.26327 0.91714 0.0
Zn59 Zn 0.25343 0.32619 0.95257 0.0
O60 O 0.25345 0.43901 0.91657 0.0
Zn61 Zn 0.25548 0.49249 0.95757 0.0
O62 O 0.38374 0.5738 0.95799 0.0
O63 O 0.40974 0.40042 0.95348 0.0
O64 O 0.27108 0.40042 0.9941 0.0
O65 O 0.2622 0.23041 0.98276 0.0
O66 O 0.0979 0.39943 0.95637 0.0
O67 O 0.12581 0.57181 0.96123 0.0
C68 C 0.44667 0.49534 0.95556 0.0
C69 C 0.06174 0.49432 0.95941 0.0
C70 C 0.65828 0.75311 0.15404 0.0
C71 C 0.70659 0.77273 0.25062 0.0
O72 O 0.74492 0.75142 0.16714 0.0
Zn73 Zn 0.682 0.75345 0.20257 0.0
O74 O 0.56918 0.75346 0.16657 0.0
Zn75 Zn 0.5157 0.75552 0.20758 0.0
O76 O 0.4344 0.8838 0.20799 0.0
O77 O 0.60778 0.90977 0.20348 0.0
O78 O 0.60779 0.77113 0.2441 0.0
O79 O 0.7778 0.76222 0.23276 0.0
O80 O 0.60876 0.59793 0.20638 0.0
O81 O 0.43639 0.62587 0.21124 0.0
C82 C 0.51286 0.94672 0.20556 0.0
C83 C 0.51387 0.56179 0.20942 0.0
C84 C 0.23545 0.20653 0.50062 0.0
C85 C 0.25507 0.15829 0.40404 0.0
O86 O 0.24595 0.27775 0.48276 0.0
Zn87 Zn 0.25473 0.18198 0.45257 0.0
O88 O 0.23707 0.10774 0.4941 0.0
Zn89 Zn 0.25268 0.01567 0.45757 0.0
O90 O 0.38235 0.93636 0.46123 0.0
O91 O 0.41026 0.10874 0.45638 0.0
O92 O 0.25474 0.06917 0.41657 0.0
O93 O 0.25675 0.24492 0.41714 0.0
O94 O 0.09842 0.10776 0.45348 0.0
O95 O 0.12442 0.93437 0.45798 0.0
C96 C 0.44641 0.01385 0.45941 0.0
C97 C 0.06148 0.01283 0.45556 0.0
C98 C 0.99433 0.94642 0.70942 0.0
C99 C 0.99534 0.56149 0.70556 0.0
O100 O 0.07181 0.88234 0.71123 0.0
Zn101 Zn 0.9925 0.75269 0.70757 0.0
O102 O 0.89943 0.91028 0.70638 0.0
Zn103 Zn 0.8262 0.75476 0.70257 0.0
O104 O 0.73042 0.746 0.73276 0.0
O105 O 0.90043 0.73709 0.7441 0.0
O106 O 0.90042 0.59844 0.70348 0.0
O107 O 0.0738 0.62441 0.70798 0.0
O108 O 0.939 0.75473 0.66657 0.0
O109 O 0.76326 0.75678 0.66714 0.0
C110 C 0.80164 0.73549 0.75062 0.0
C111 C 0.84989 0.75508 0.65404 0.0
C112 C 0.9467 0.5128 0.82309 0.0
C113 C 0.56177 0.5138 0.81924 0.0
O114 O 0.88378 0.43434 0.82066 0.0
Zn115 Zn 0.7555 0.51564 0.82108 0.0
O116 O 0.90975 0.60772 0.82517 0.0
Zn117 Zn 0.75342 0.68194 0.82609 0.0
O118 O 0.7514 0.74486 0.86151 0.0
O119 O 0.75345 0.56912 0.86208 0.0
O120 O 0.5979 0.60869 0.82228 0.0
O121 O 0.62585 0.43632 0.81742 0.0
O122 O 0.77108 0.60772 0.78456 0.0
O123 O 0.76218 0.77773 0.7959 0.0
C124 C 0.7531 0.65822 0.87461 0.0
C125 C 0.77267 0.70651 0.77804 0.0
C126 C 0.34996 0.25312 0.12461 0.0
C127 C 0.30166 0.27265 0.02804 0.0
O128 O 0.26332 0.25143 0.11152 0.0
Zn129 Zn 0.32624 0.25342 0.07609 0.0
O130 O 0.43906 0.25344 0.11208 0.0
Zn131 Zn 0.49254 0.25546 0.07108 0.0
O132 O 0.57384 0.38373 0.07066 0.0
O133 O 0.40046 0.40972 0.07517 0.0
O134 O 0.40046 0.27105 0.03455 0.0
O135 O 0.23045 0.26218 0.04589 0.0
O136 O 0.39947 0.09788 0.07228 0.0
O137 O 0.57185 0.12579 0.06742 0.0
C138 C 0.49538 0.44666 0.07309 0.0
C139 C 0.49437 0.06173 0.06924 0.0
C140 C 0.56155 0.99542 0.32309 0.0
C141 C 0.94648 0.99441 0.31924 0.0
O142 O 0.62448 0.07388 0.32066 0.0
Zn143 Zn 0.75275 0.99258 0.32108 0.0
O144 O 0.5985 0.9005 0.32517 0.0
Zn145 Zn 0.75482 0.82628 0.32608 0.0
O146 O 0.75683 0.76334 0.36151 0.0
O147 O 0.75478 0.93909 0.36208 0.0
O148 O 0.91035 0.89952 0.32228 0.0
O149 O 0.88241 0.07189 0.31742 0.0
O150 O 0.73716 0.9005 0.28455 0.0
O151 O 0.74607 0.73049 0.29589 0.0
C152 C 0.75512 0.84997 0.37461 0.0
C153 C 0.73557 0.80171 0.27804 0.0
C154 C 0.1582 0.25505 0.62461 0.0
C155 C 0.20648 0.2355 0.52804 0.0
O156 O 0.24483 0.25674 0.61151 0.0
Zn157 Zn 0.1819 0.25473 0.57609 0.0
O158 O 0.06909 0.25472 0.61209 0.0
Zn159 Zn 0.0156 0.25268 0.57108 0.0
O160 O 0.9343 0.12442 0.57067 0.0
O161 O 0.10769 0.09842 0.57517 0.0
O162 O 0.10768 0.23709 0.53456 0.0
O163 O 0.27769 0.24597 0.5459 0.0
O164 O 0.10866 0.41026 0.57228 0.0
O165 O 0.93628 0.38235 0.56743 0.0
C166 C 0.01277 0.06149 0.57309 0.0
C167 C 0.01377 0.44641 0.56924 0.0
C168 C 0.77255 0.80158 0.50062 0.0
C169 C 0.753 0.84995 0.40404 0.0
O170 O 0.76206 0.73038 0.48276 0.0
Zn171 Zn 0.7533 0.82619 0.45257 0.0
O172 O 0.77094 0.90038 0.4941 0.0
Zn173 Zn 0.75534 0.99249 0.45759 0.0
O174 O 0.62567 0.0718 0.46125 0.0
O175 O 0.59776 0.89943 0.45637 0.0
O176 O 0.75332 0.93905 0.41658 0.0
O177 O 0.75131 0.7633 0.41713 0.0
O178 O 0.9096 0.90042 0.45348 0.0
O179 O 0.88361 0.07379 0.458 0.0
C180 C 0.56161 0.99431 0.45942 0.0
C181 C 0.94654 0.99534 0.45557 0.0
C182 C 0.01386 0.06161 0.70942 0.0
C183 C 0.01284 0.44654 0.70557 0.0
O184 O 0.93638 0.12568 0.71125 0.0
Zn185 Zn 0.01569 0.25534 0.70759 0.0
O186 O 0.10875 0.09775 0.70638 0.0
Zn187 Zn 0.18198 0.25327 0.70257 0.0
O188 O 0.2778 0.26204 0.73276 0.0
O189 O 0.1078 0.27096 0.74411 0.0
O190 O 0.10776 0.40959 0.70348 0.0
O191 O 0.93438 0.38362 0.708 0.0
O192 O 0.06913 0.25329 0.66658 0.0
O193 O 0.24487 0.25126 0.66714 0.0
C194 C 0.20661 0.27255 0.75062 0.0
C195 C 0.15822 0.25295 0.65404 0.0
C196 C 0.56162 0.51284 0.95556 0.0
C197 C 0.94655 0.51385 0.95942 0.0
O198 O 0.62455 0.43438 0.958 0.0
Zn199 Zn 0.75282 0.51568 0.95758 0.0
O200 O 0.59856 0.60776 0.95348 0.0
Zn201 Zn 0.75486 0.68198 0.95257 0.0
O202 O 0.75687 0.74488 0.91714 0.0
O203 O 0.75486 0.56914 0.91658 0.0
O204 O 0.9104 0.60874 0.95637 0.0
O205 O 0.88249 0.43637 0.96124 0.0
O206 O 0.73721 0.60778 0.9941 0.0
O207 O 0.74609 0.77778 0.98276 0.0
C208 C 0.75519 0.65823 0.90404 0.0
C209 C 0.7356 0.70658 1.00062 0.0
C210 C 0.49536 0.06167 0.20556 0.0
C211 C 0.49434 0.4466 0.20942 0.0
O212 O 0.57382 0.12459 0.208 0.0
Zn213 Zn 0.49251 0.25287 0.20758 0.0
O214 O 0.40044 0.09862 0.20348 0.0
Zn215 Zn 0.32622 0.25494 0.20257 0.0
O216 O 0.26331 0.25694 0.16714 0.0
O217 O 0.43905 0.2549 0.16658 0.0
O218 O 0.39945 0.41046 0.20638 0.0
O219 O 0.57182 0.38252 0.21124 0.0
O220 O 0.40042 0.23726 0.2441 0.0
O221 O 0.23041 0.24618 0.23276 0.0
C222 C 0.34995 0.25524 0.15404 0.0
C223 C 0.30162 0.23567 0.25062 0.0
loop_
_geom_bond_atom_site_label_1
_geom_bond_atom_site_label_2
_geom_bond_distance
_geom_bond_site_symmetry_2
_ccdc_geom_bond_type
C0 O2 1.247 . S
C0 O4 1.258 1_545 S
C1 O8 1.247 . S
C1 O9 1.258 . S
O2 C0 1.247 . S
O2 Zn3 2.028 . S
Zn3 O2 2.028 . S
Zn3 O7 2.035 . S
Zn3 O9 2.035 . S
Zn3 O10 2.028 . S
O4 C0 1.258 1_565 S
O4 Zn5 2.035 . S
Zn5 O4 2.035 . S
Zn5 O6 2.028 . S
Zn5 O8 2.028 1_565 S
Zn5 O11 2.035 1_565 S
O6 Zn5 2.028 . S
O6 C12 1.247 1_565 S
O7 Zn3 2.035 . S
O7 C12 1.258 . S
O8 C1 1.247 . S
O8 Zn5 2.028 1_545 S
O9 C1 1.258 . S
O9 Zn3 2.035 . S
O10 Zn3 2.028 . S
O10 C13 1.247 . S
O11 Zn5 2.035 1_545 S
O11 C13 1.261 . S
C12 O6 1.247 1_545 S
C12 O7 1.258 . S
C13 O10 1.247 . S
C13 O11 1.261 . S
C14 O16 1.247 1_655 S
C14 O18 1.258 . S
C15 O22 1.247 . S
C15 O23 1.261 . S
O16 C14 1.247 1_455 S
O16 Zn17 2.028 . S
Zn17 O16 2.028 . S
Zn17 O21 2.035 . S
Zn17 O23 2.035 1_455 S
Zn17 O24 2.028 1_455 S
O18 C14 1.258 . S
O18 Zn19 2.035 . S
Zn19 O18 2.035 . S
Zn19 O20 2.028 . S
Zn19 O22 2.028 . S
Zn19 O25 2.035 . S
O20 Zn19 2.028 . S
O20 C26 1.247 . S
O21 Zn17 2.035 . S
O21 C26 1.258 1_455 S
O22 C15 1.247 . S
O22 Zn19 2.028 . S
O23 C15 1.261 . S
O23 Zn17 2.035 1_655 S
O24 Zn17 2.028 1_655 S
O24 C27 1.247 . S
O25 Zn19 2.035 . S
O25 C27 1.258 . S
C26 O20 1.247 . S
C26 O21 1.258 1_655 S
C27 O24 1.247 . S
C27 O25 1.258 . S
C28 O30 1.247 . S
C28 O32 1.258 . S
C29 O36 1.247 . S
C29 O37 1.258 . S
O30 C28 1.247 . S
O30 Zn31 2.028 . S
Zn31 O30 2.028 . S
Zn31 O35 2.035 . S
Zn31 O37 2.035 . S
Zn31 O38 2.028 . S
O32 C28 1.258 . S
O32 Zn33 2.035 . S
Zn33 O32 2.035 . S
Zn33 O34 2.028 . S
Zn33 O36 2.028 . S
Zn33 O39 2.035 . S
O34 Zn33 2.028 . S
O34 C40 1.247 . S
O35 Zn31 2.035 . S
O35 C40 1.258 . S
O36 C29 1.247 . S
O36 Zn33 2.028 . S
O37 C29 1.258 . S
O37 Zn31 2.035 . S
O38 Zn31 2.028 . S
O38 C41 1.247 . S
O39 Zn33 2.035 . S
O39 C41 1.258 . S
C40 O34 1.247 . S
C40 O35 1.258 . S
C41 O38 1.247 . S
C41 O39 1.258 . S
C42 O44 1.247 . S
C42 O46 1.258 . S
C43 O50 1.247 . S
C43 O51 1.258 . S
O44 C42 1.247 . S
O44 Zn45 2.028 . S
Zn45 O44 2.028 . S
Zn45 O49 2.035 . S
Zn45 O51 2.035 . S
Zn45 O52 2.028 . S
O46 C42 1.258 . S
O46 Zn47 2.035 . S
Zn47 O46 2.035 . S
Zn47 O48 2.028 . S
Zn47 O50 2.028 . S
Zn47 O53 2.035 . S
O48 Zn47 2.028 . S
O48 C54 1.247 . S
O49 Zn45 2.035 . S
O49 C54 1.258 . S
O50 C43 1.247 . S
O50 Zn47 2.028 . S
O51 C43 1.258 . S
O51 Zn45 2.035 . S
O52 Zn45 2.028 . S
O52 C55 1.247 . S
O53 Zn47 2.035 . S
O53 C55 1.258 . S
C54 O48 1.247 . S
C54 O49 1.258 . S
C55 O52 1.247 . S
C55 O53 1.258 . S
C56 O58 1.247 . S
C56 O60 1.258 . S
C57 O64 1.247 . S
C57 O65 1.258 . S
O58 C56 1.247 . S
O58 Zn59 2.028 . S
Zn59 O58 2.028 . S
Zn59 O63 2.035 . S
Zn59 O65 2.035 . S
Zn59 O66 2.028 . S
O60 C56 1.258 . S
O60 Zn61 2.035 . S
Zn61 O60 2.035 . S
Zn61 O62 2.028 . S
Zn61 O64 2.028 . S
Zn61 O67 2.035 . S
O62 Zn61 2.028 . S
O62 C68 1.247 . S
O63 Zn59 2.035 . S
O63 C68 1.258 . S
O64 C57 1.247 . S
O64 Zn61 2.028 . S
O65 C57 1.258 . S
O65 Zn59 2.035 . S
O66 Zn59 2.028 . S
O66 C69 1.247 . S
O67 Zn61 2.035 . S
O67 C69 1.258 . S
C68 O62 1.247 . S
C68 O63 1.258 . S
C69 O66 1.247 . S
C69 O67 1.258 . S
C70 O72 1.247 . S
C70 O74 1.258 . S
C71 O78 1.247 . S
C71 O79 1.258 . S
O72 C70 1.247 . S
O72 Zn73 2.028 . S
Zn73 O72 2.028 . S
Zn73 O77 2.035 . S
Zn73 O79 2.035 . S
Zn73 O80 2.028 . S
O74 C70 1.258 . S
O74 Zn75 2.035 . S
Zn75 O74 2.035 . S
Zn75 O76 2.028 . S
Zn75 O78 2.028 . S
Zn75 O81 2.035 . S
O76 Zn75 2.028 . S
O76 C82 1.247 . S
O77 Zn73 2.035 . S
O77 C82 1.258 . S
O78 C71 1.247 . S
O78 Zn75 2.028 . S
O79 C71 1.258 . S
O79 Zn73 2.035 . S
O80 Zn73 2.028 . S
O80 C83 1.247 . S
O81 Zn75 2.035 . S
O81 C83 1.258 . S
C82 O76 1.247 . S
C82 O77 1.258 . S
C83 O80 1.247 . S
C83 O81 1.258 . S
C84 O86 1.247 . S
C84 O88 1.258 . S
C85 O92 1.247 1_545 S
C85 O93 1.258 . S
O86 C84 1.247 . S
O86 Zn87 2.028 . S
Zn87 O86 2.028 . S
Zn87 O91 2.035 . S
Zn87 O93 2.035 . S
Zn87 O94 2.028 . S
O88 C84 1.258 . S
O88 Zn89 2.035 1_545 S
Zn89 O88 2.035 1_565 S
Zn89 O90 2.027 1_565 S
Zn89 O92 2.028 . S
Zn89 O95 2.035 . S
O90 Zn89 2.027 1_545 S
O90 C96 1.251 . S
O91 Zn87 2.035 . S
O91 C96 1.258 . S
O92 C85 1.247 1_565 S
O92 Zn89 2.028 . S
O93 C85 1.258 . S
O93 Zn87 2.035 . S
O94 Zn87 2.028 . S
O94 C97 1.247 . S
O95 Zn89 2.035 . S
O95 C97 1.258 1_565 S
C96 O90 1.251 . S
C96 O91 1.258 . S
C97 O94 1.247 . S
C97 O95 1.258 1_545 S
C98 O100 1.251 . S
C98 O102 1.258 . S
C99 O106 1.247 . S
C99 O107 1.258 1_655 S
O100 C98 1.251 . S
O100 Zn101 2.027 1_655 S
Zn101 O100 2.027 1_455 S
Zn101 O105 2.035 1_455 S
Zn101 O107 2.035 . S
Zn101 O108 2.028 . S
O102 C98 1.258 . S
O102 Zn103 2.035 . S
Zn103 O102 2.035 . S
Zn103 O104 2.028 . S
Zn103 O106 2.028 . S
Zn103 O109 2.035 . S
O104 Zn103 2.028 . S
O104 C110 1.247 . S
O105 Zn101 2.035 1_655 S
O105 C110 1.258 . S
O106 C99 1.247 . S
O106 Zn103 2.028 . S
O107 C99 1.258 1_455 S
O107 Zn101 2.035 . S
O108 Zn101 2.028 . S
O108 C111 1.247 1_455 S
O109 Zn103 2.035 . S
O109 C111 1.258 . S
C110 O104 1.247 . S
C110 O105 1.258 . S
C111 O108 1.247 1_655 S
C111 O109 1.258 . S
C112 O114 1.247 . S
C112 O116 1.258 . S
C113 O120 1.247 . S
C113 O121 1.258 . S
O114 C112 1.247 . S
O114 Zn115 2.028 . S
Zn115 O114 2.028 . S
Zn115 O119 2.035 . S
Zn115 O121 2.035 . S
Zn115 O122 2.028 . S
O116 C112 1.258 . S
O116 Zn117 2.035 . S
Zn117 O116 2.035 . S
Zn117 O118 2.028 . S
Zn117 O120 2.028 . S
Zn117 O123 2.035 . S
O118 Zn117 2.028 . S
O118 C124 1.247 . S
O119 Zn115 2.035 . S
O119 C124 1.258 . S
O120 C113 1.247 . S
O120 Zn117 2.028 . S
O121 C113 1.258 . S
O121 Zn115 2.035 . S
O122 Zn115 2.028 . S
O122 C125 1.247 . S
O123 Zn117 2.035 . S
O123 C125 1.258 . S
C124 O118 1.247 . S
C124 O119 1.258 . S
C125 O122 1.247 . S
C125 O123 1.258 . S
C126 O128 1.247 . S
C126 O130 1.258 . S
C127 O134 1.247 . S
C127 O135 1.258 . S
O128 C126 1.247 . S
O128 Zn129 2.028 . S
Zn129 O128 2.028 . S
Zn129 O133 2.035 . S
Zn129 O135 2.035 . S
Zn129 O136 2.028 . S
O130 C126 1.258 . S
O130 Zn131 2.035 . S
Zn131 O130 2.035 . S
Zn131 O132 2.028 . S
Zn131 O134 2.028 . S
Zn131 O137 2.035 . S
O132 Zn131 2.028 . S
O132 C138 1.247 . S
O133 Zn129 2.035 . S
O133 C138 1.258 . S
O134 C127 1.247 . S
O134 Zn131 2.028 . S
O135 C127 1.258 . S
O135 Zn129 2.035 . S
O136 Zn129 2.028 . S
O136 C139 1.247 . S
O137 Zn131 2.035 . S
O137 C139 1.258 . S
C138 O132 1.247 . S
C138 O133 1.258 . S
C139 O136 1.247 . S
C139 O137 1.258 . S
C140 O142 1.247 1_565 S
C140 O144 1.258 . S
C141 O148 1.247 . S
C141 O149 1.261 . S
O142 C140 1.247 1_545 S
O142 Zn143 2.028 . S
Zn143 O142 2.028 . S
Zn143 O147 2.035 . S
Zn143 O149 2.035 1_545 S
Zn143 O150 2.028 1_545 S
O144 C140 1.258 . S
O144 Zn145 2.035 . S
Zn145 O144 2.035 . S
Zn145 O146 2.028 . S
Zn145 O148 2.028 . S
Zn145 O151 2.035 . S
O146 Zn145 2.028 . S
O146 C152 1.247 . S
O147 Zn143 2.035 . S
O147 C152 1.258 1_545 S
O148 C141 1.247 . S
O148 Zn145 2.028 . S
O149 C141 1.261 . S
O149 Zn143 2.035 1_565 S
O150 Zn143 2.028 1_565 S
O150 C153 1.247 . S
O151 Zn145 2.035 . S
O151 C153 1.258 . S
C152 O146 1.247 . S
C152 O147 1.258 1_565 S
C153 O150 1.247 . S
C153 O151 1.258 . S
C154 O156 1.247 . S
C154 O158 1.258 1_455 S
C155 O162 1.247 . S
C155 O163 1.258 . S
O156 C154 1.247 . S
O156 Zn157 2.028 . S
Zn157 O156 2.028 . S
Zn157 O161 2.035 . S
Zn157 O163 2.035 . S
Zn157 O164 2.028 . S
O158 C154 1.258 1_655 S
O158 Zn159 2.035 . S
Zn159 O158 2.035 . S
Zn159 O160 2.028 . S
Zn159 O162 2.028 1_655 S
Zn159 O165 2.035 1_655 S
O160 Zn159 2.028 . S
O160 C166 1.247 1_655 S
O161 Zn157 2.035 . S
O161 C166 1.258 . S
O162 C155 1.247 . S
O162 Zn159 2.028 1_455 S
O163 C155 1.258 . S
O163 Zn157 2.035 . S
O164 Zn157 2.028 . S
O164 C167 1.247 . S
O165 Zn159 2.035 1_455 S
O165 C167 1.261 . S
C166 O160 1.247 1_455 S
C166 O161 1.258 . S
C167 O164 1.247 . S
C167 O165 1.261 . S
C168 O170 1.247 . S
C168 O172 1.258 . S
C169 O176 1.247 1_565 S
C169 O177 1.258 . S
O170 C168 1.247 . S
O170 Zn171 2.028 . S
Zn171 O170 2.028 . S
Zn171 O175 2.035 . S
Zn171 O177 2.035 . S
Zn171 O178 2.028 . S
O172 C168 1.258 . S
O172 Zn173 2.035 1_565 S
Zn173 O172 2.035 1_545 S
Zn173 O174 2.027 1_545 S
Zn173 O176 2.028 . S
Zn173 O179 2.035 . S
O174 Zn173 2.027 1_565 S
O174 C180 1.251 . S
O175 Zn171 2.035 . S
O175 C180 1.258 . S
O176 C169 1.247 1_545 S
O176 Zn173 2.028 . S
O177 C169 1.258 . S
O177 Zn171 2.035 . S
O178 Zn171 2.028 . S
O178 C181 1.247 . S
O179 Zn173 2.035 . S
O179 C181 1.258 1_545 S
C180 O174 1.251 . S
C180 O175 1.258 . S
C181 O178 1.247 . S
C181 O179 1.258 1_565 S
C182 O184 1.251 . S
C182 O186 1.258 . S
C183 O190 1.247 . S
C183 O191 1.258 1_455 S
O184 C182 1.251 . S
O184 Zn185 2.027 1_455 S
Zn185 O184 2.027 1_655 S
Zn185 O189 2.035 1_655 S
Zn185 O191 2.035 . S
Zn185 O192 2.028 . S
O186 C182 1.258 . S
O186 Zn187 2.035 . S
Zn187 O186 2.035 . S
Zn187 O188 2.028 . S
Zn187 O190 2.028 . S
Zn187 O193 2.035 . S
O188 Zn187 2.028 . S
O188 C194 1.247 . S
O189 Zn185 2.035 1_455 S
O189 C194 1.258 . S
O190 C183 1.247 . S
O190 Zn187 2.028 . S
O191 C183 1.258 1_655 S
O191 Zn185 2.035 . S
O192 Zn185 2.028 . S
O192 C195 1.247 1_655 S
O193 Zn187 2.035 . S
O193 C195 1.258 . S
C194 O188 1.247 . S
C194 O189 1.258 . S
C195 O192 1.247 1_455 S
C195 O193 1.258 . S
C196 O198 1.247 . S
C196 O200 1.258 . S
C197 O204 1.247 . S
C197 O205 1.258 . S
O198 C196 1.247 . S
O198 Zn199 2.028 . S
Zn199 O198 2.028 . S
Zn199 O203 2.035 . S
Zn199 O205 2.035 . S
Zn199 O206 2.028 . S
O200 C196 1.258 . S
O200 Zn201 2.035 . S
Zn201 O200 2.035 . S
Zn201 O202 2.028 . S
Zn201 O204 2.028 . S
Zn201 O207 2.035 . S
O202 Zn201 2.028 . S
O202 C208 1.247 . S
O203 Zn199 2.035 . S
O203 C208 1.258 . S
O204 C197 1.247 . S
O204 Zn201 2.028 . S
O205 C197 1.258 . S
O205 Zn199 2.035 . S
O206 Zn199 2.028 . S
O206 C209 1.247 . S
O207 Zn201 2.035 . S
O207 C209 1.258 . S
C208 O202 1.247 . S
C208 O203 1.258 . S
C209 O206 1.247 . S
C209 O207 1.258 . S
C210 O212 1.247 . S
C210 O214 1.258 . S
C211 O218 1.247 . S
C211 O219 1.258 . S
O212 C210 1.247 . S
O212 Zn213 2.028 . S
Zn213 O212 2.028 . S
Zn213 O217 2.035 . S
Zn213 O219 2.035 . S
Zn213 O220 2.028 . S
O214 C210 1.258 . S
O214 Zn215 2.035 . S
Zn215 O214 2.035 . S
Zn215 O216 2.028 . S
Zn215 O218 2.028 . S
Zn215 O221 2.035 . S
O216 Zn215 2.028 . S
O216 C222 1.247 . S
O217 Zn213 2.035 . S
O217 C222 1.258 . S
O218 C211 1.247 . S
O218 Zn215 2.028 . S
O219 C211 1.258 . S
O219 Zn213 2.035 . S
O220 Zn213 2.028 . S
O220 C223 1.247 . S
O221 Zn215 2.035 . S
O221 C223 1.258 . S
C222 O216 1.247 . S
C222 O217 1.258 . S
C223 O220 1.247 . S
C223 O221 1.258 . S
C141 C13 2.688 1_665 S
C15 C167 2.688 1_655 S
C113 C29 2.688 . S
C139 C43 2.688 1_545 S
C69 C197 2.688 1_455 S
C211 C83 2.688 . S
C96 C180 2.672 1_545 S
C182 C98 2.672 1_445 S
C140 C12 2.149 1_565 S
C14 C166 2.149 1_665 S
C28 C112 2.149 1_455 S
C42 C138 2.149 . S
C68 C196 2.149 . S
C82 C210 2.149 1_565 S
C181 C97 2.166 1_665 S
C183 C99 2.166 1_455 S
C0 C85 1.704 . S
C26 C111 1.704 . S
C40 C56 1.703 . S
C54 C70 1.703 . S
C124 C208 1.703 . S
C222 C126 1.703 . S
C152 C169 1.704 . S
C195 C154 1.704 . S
C1 C223 2.115 . S
C168 C27 2.109 . S
C194 C41 2.109 . S
C209 C55 2.115 1_556 S
C127 C57 2.115 1_554 S
C153 C71 2.115 . S
C84 C155 2.109 . S
C110 C125 2.109 . S
