# Generated by pormake.
# Topology qtz, (4)-cn, num edge types: 1
# Building blocks:
#     Node 0, Type 0, BuildingBlock: GALJAG_clean_sbu_0, # of connection points: 4
#     Node 1, Type 0, BuildingBlock: GALJAG_clean_sbu_0, # of connection points: 4
#     Node 2, Type 0, BuildingBlock: GALJAG_clean_sbu_0, # of connection points: 4
#     Edge 3, Type (0, 0), BuildingBlock: ZUJKAS_clean_linker_0, # of connection points: 2
#     Edge 4, Type (0, 0), BuildingBlock: ZUJKAS_clean_linker_0, # of connection points: 2
#     Edge 5, Type (0, 0), BuildingBlock: ZUJKAS_clean_linker_0, # of connection points: 2
#     Edge 6, Type (0, 0), BuildingBlock: ZUJKAS_clean_linker_0, # of connection points: 2
#     Edge 7, Type (0, 0), BuildingBlock: ZUJKAS_clean_linker_0, # of connection points: 2
#     Edge 8, Type (0, 0), BuildingBlock: ZUJKAS_clean_linker_0, # of connection points: 2
# Relax obj value: 0.004
# Max RMSD: 0.037
# Mean RMSD: 0.037
data_MOF--net-qtz--node1-GALJAG_clean_sbu_0--edge1-ZUJKAS_clean_linker_0
_symmetry_space_group_name_H-M    P1
_symmetry_Int_Tables_number       1
_symmetry_cell_setting            triclinic
loop_
_symmetry_equiv_pos_as_xyz
'x, y, z'
_cell_length_a     32.134928
_cell_length_b     32.139634
_cell_length_c     34.317341
_cell_angle_alpha  90.247835
_cell_angle_beta   90.033496
_cell_angle_gamma 119.98872
loop_
_atom_site_label
_atom_site_type_symbol
_atom_site_fract_x
_atom_site_fract_y
_atom_site_fract_z
_atom_type_partial_charge
In0 In 0.00514 0.50475 0.1663 0.0
O1 O 0.97024 0.42895 0.19145 0.0
O2 O 0.9508 0.47752 0.216 0.0
C3 C 0.06464 0.4959 0.11564 0.0
C4 C 0.94367 0.51368 0.11782 0.0
C5 C 0.06788 0.57369 0.21541 0.0
O6 O 0.03815 0.46303 0.13899 0.0
O7 O 0.0608 0.53305 0.1176 0.0
O8 O 0.03388 0.57597 0.19914 0.0
O9 O 0.06996 0.53648 0.20723 0.0
C10 C 0.94519 0.4358 0.21614 0.0
O11 O 0.97601 0.54866 0.13673 0.0
O12 O 0.9427 0.47441 0.12301 0.0
In13 In 0.50717 0.00675 0.50031 0.0
O14 O 0.58521 0.04826 0.48029 0.0
O15 O 0.53427 0.0587 0.44892 0.0
C16 C 0.51609 0.94469 0.54777 0.0
C17 C 0.49885 0.06855 0.54886 0.0
C18 C 0.43599 0.94356 0.45298 0.0
O19 O 0.54165 0.96244 0.51789 0.0
O20 O 0.48636 0.95868 0.55409 0.0
O21 O 0.43194 0.97412 0.47334 0.0
O22 O 0.47595 0.94541 0.45614 0.0
C23 C 0.57754 0.06938 0.45272 0.0
O24 O 0.46433 0.0383 0.52818 0.0
O25 O 0.53727 0.06728 0.54526 0.0
In26 In 0.50673 0.50798 0.83388 0.0
O27 O 0.54031 0.58666 0.81635 0.0
O28 O 0.49126 0.53401 0.77673 0.0
C29 C 0.57751 0.5207 0.88359 0.0
C30 C 0.43336 0.4981 0.87904 0.0
C31 C 0.49833 0.43589 0.7876 0.0
O32 O 0.58523 0.54549 0.85326 0.0
O33 O 0.53398 0.48993 0.88921 0.0
O34 O 0.46223 0.43728 0.80045 0.0
O35 O 0.5383 0.47088 0.79783 0.0
C36 C 0.51851 0.57802 0.78415 0.0
O37 O 0.43573 0.46243 0.86634 0.0
O38 O 0.46798 0.5383 0.86926 0.0
H39 H 0.41783 0.56996 0.90319 0.0
H40 H 0.35095 0.56297 0.94215 0.0
H41 H 0.29093 0.4095 0.94792 0.0
H42 H 0.35786 0.41611 0.9087 0.0
H43 H 0.24697 0.50141 0.92268 0.0
H44 H 0.30169 0.45865 0.06423 0.0
H45 H 0.34377 0.48768 0.02499 0.0
H46 H 0.30069 0.42477 0.02196 0.0
C47 C 0.3905 0.5347 0.91282 0.0
C48 C 0.39312 0.49357 0.903 0.0
C49 C 0.35231 0.5308 0.93499 0.0
C50 C 0.31632 0.48581 0.94806 0.0
C51 C 0.3187 0.44459 0.93836 0.0
H52 H 0.0754 0.41776 0.10337 0.0
H53 H 0.13331 0.41204 0.06052 0.0
C54 C 0.35682 0.44842 0.91592 0.0
C55 C 0.27607 0.48233 0.97144 0.0
H56 H 0.23071 0.46292 0.06365 0.0
C57 C 0.24318 0.49279 0.95347 0.0
C58 C 0.27123 0.47077 0.01146 0.0
C59 C 0.30625 0.46004 0.03209 0.0
C60 C 0.20553 0.49224 0.97459 0.0
C61 C 0.20153 0.48222 0.01498 0.0
C62 C 0.23389 0.47072 0.03273 0.0
C63 C 0.16514 0.48508 0.03966 0.0
C64 C 0.17015 0.50194 0.95332 0.0
C65 C 0.16403 0.52812 0.04237 0.0
C66 C 0.13082 0.53137 0.06658 0.0
C67 C 0.09852 0.49181 0.08896 0.0
C68 C 0.09978 0.4488 0.08638 0.0
C69 C 0.13285 0.44549 0.06196 0.0
H70 H 0.16891 0.49379 0.9217 0.0
H71 H 0.13341 0.48037 0.96546 0.0
H72 H 0.18144 0.54055 0.95639 0.0
H73 H 0.18942 0.55952 0.02623 0.0
H74 H 0.13099 0.56512 0.06823 0.0
H75 H 0.88629 0.44219 0.27007 0.0
H76 H 0.82662 0.37797 0.311 0.0
H77 H 0.86633 0.27896 0.26197 0.0
H78 H 0.92574 0.34293 0.22049 0.0
H79 H 0.7679 0.24286 0.26314 0.0
H80 H 0.84864 0.31752 0.40767 0.0
H81 H 0.84017 0.35864 0.37806 0.0
H82 H 0.88155 0.33954 0.36274 0.0
C83 C 0.8826 0.40684 0.26823 0.0
C84 C 0.91076 0.39759 0.24217 0.0
C85 C 0.84867 0.37026 0.29178 0.0
C86 C 0.84255 0.3239 0.28991 0.0
C87 C 0.87071 0.31458 0.26398 0.0
H88 H 0.67248 0.09578 0.45458 0.0
H89 H 0.73709 0.15544 0.4138 0.0
C90 C 0.90465 0.35115 0.24039 0.0
C91 C 0.80533 0.28468 0.31381 0.0
H92 H 0.76816 0.25187 0.4075 0.0
C93 C 0.76808 0.24463 0.29472 0.0
C94 C 0.80602 0.28683 0.355 0.0
C95 C 0.84647 0.32771 0.37715 0.0
C96 C 0.73079 0.20718 0.3157 0.0
C97 C 0.73038 0.21033 0.35682 0.0
C98 C 0.76829 0.24979 0.37595 0.0
C99 C 0.69087 0.1732 0.38059 0.0
C100 C 0.69244 0.16439 0.29367 0.0
C101 C 0.64352 0.16365 0.37559 0.0
C102 C 0.60653 0.12947 0.39873 0.0
C103 C 0.61635 0.10457 0.42752 0.0
C104 C 0.66381 0.11432 0.43257 0.0
C105 C 0.70075 0.14841 0.40934 0.0
H106 H 0.70495 0.16112 0.26423 0.0
H107 H 0.68119 0.13055 0.30981 0.0
H108 H 0.66052 0.16873 0.2899 0.0
H109 H 0.63527 0.18313 0.35415 0.0
H110 H 0.57036 0.12296 0.39437 0.0
H111 H 0.56653 0.89887 0.5331 0.0
H112 H 0.56858 0.8364 0.57215 0.0
H113 H 0.47656 0.84832 0.65756 0.0
H114 H 0.47314 0.90973 0.618 0.0
H115 H 0.59974 0.83686 0.64469 0.0
H116 H 0.4047 0.70612 0.63541 0.0
H117 H 0.43333 0.75931 0.6057 0.0
H118 H 0.41729 0.76294 0.65534 0.0
C119 C 0.54673 0.88815 0.56021 0.0
C120 C 0.51936 0.90886 0.57239 0.0
C121 C 0.54794 0.85248 0.58249 0.0
C122 C 0.52195 0.83699 0.61738 0.0
C123 C 0.49581 0.85874 0.6302 0.0
H124 H 0.56277 0.67413 0.79952 0.0
H125 H 0.56533 0.73702 0.75806 0.0
C126 C 0.49417 0.89407 0.60773 0.0
C127 C 0.52252 0.79831 0.64041 0.0
H128 H 0.44972 0.6884 0.68073 0.0
C129 C 0.56696 0.80428 0.65243 0.0
C130 C 0.47978 0.75542 0.64987 0.0
C131 C 0.43112 0.74524 0.63558 0.0
C132 C 0.56981 0.76894 0.67427 0.0
C133 C 0.52694 0.72705 0.68525 0.0
C134 C 0.48256 0.72072 0.67263 0.0
C135 C 0.52707 0.68928 0.70988 0.0
C136 C 0.61876 0.7765 0.68469 0.0
C137 C 0.50375 0.64131 0.697 0.0
C138 C 0.50157 0.60518 0.72091 0.0
C139 C 0.52279 0.61642 0.75811 0.0
C140 C 0.54651 0.66448 0.77083 0.0
C141 C 0.54827 0.70052 0.74705 0.0
H142 H 0.64679 0.80191 0.66437 0.0
H143 H 0.62862 0.79208 0.71445 0.0
H144 H 0.61901 0.74208 0.68424 0.0
H145 H 0.48695 0.63177 0.66849 0.0
H146 H 0.48297 0.56843 0.71038 0.0
H147 H 0.56946 0.47048 0.94982 0.0
H148 H 0.63462 0.47514 0.99002 0.0
H149 H 0.73884 0.58608 0.91563 0.0
H150 H 0.67389 0.58133 0.87504 0.0
H151 H 0.75772 0.51156 0.92974 0.0
H152 H 0.72327 0.58001 0.06756 0.0
H153 H 0.67156 0.52764 0.04825 0.0
H154 H 0.69775 0.58292 0.02145 0.0
C155 C 0.60624 0.49622 0.94227 0.0
C156 C 0.6166 0.52561 0.90934 0.0
C157 C 0.6434 0.499 0.96537 0.0
C158 C 0.69151 0.53137 0.95606 0.0
C159 C 0.70193 0.56104 0.92339 0.0
H160 H 0.93758 0.59403 0.10352 0.0
H161 H 0.87836 0.60034 0.06274 0.0
C162 C 0.6648 0.55833 0.90031 0.0
C163 C 0.73097 0.53245 0.97919 0.0
H164 H 0.77815 0.55062 0.07097 0.0
C165 C 0.76243 0.52041 0.96057 0.0
C166 C 0.7373 0.54453 0.01926 0.0
C167 C 0.70599 0.55996 0.04031 0.0
C168 C 0.79936 0.51892 0.98121 0.0
C169 C 0.80447 0.5291 0.02163 0.0
C170 C 0.77384 0.54241 0.04004 0.0
C171 C 0.84096 0.52548 0.04546 0.0
C172 C 0.83276 0.50673 0.95954 0.0
C173 C 0.83929 0.48123 0.04942 0.0
C174 C 0.87304 0.47753 0.0726 0.0
C175 C 0.90889 0.518 0.09243 0.0
C176 C 0.91046 0.56227 0.08848 0.0
C177 C 0.87665 0.56593 0.06528 0.0
H178 H 0.83235 0.51264 0.92769 0.0
H179 H 0.87021 0.52854 0.97042 0.0
H180 H 0.82105 0.46826 0.96409 0.0
H181 H 0.81146 0.44938 0.03497 0.0
H182 H 0.87074 0.44288 0.07529 0.0
H183 H 0.34821 0.93483 0.43839 0.0
H184 H 0.28245 0.87269 0.39906 0.0
H185 H 0.36937 0.80858 0.37302 0.0
H186 H 0.43514 0.87039 0.41202 0.0
H187 H 0.28728 0.84721 0.31588 0.0
H188 H 0.24011 0.6983 0.42014 0.0
H189 H 0.27329 0.7608 0.43452 0.0
H190 H 0.30283 0.73436 0.40847 0.0
C191 C 0.35329 0.90754 0.42419 0.0
C192 C 0.39673 0.90734 0.42836 0.0
C193 C 0.31578 0.87216 0.40178 0.0
C194 C 0.321 0.83586 0.38361 0.0
C195 C 0.36452 0.83599 0.38728 0.0
H196 H 0.15056 0.5823 0.24504 0.0
H197 H 0.21054 0.64724 0.28582 0.0
C198 C 0.40208 0.87143 0.40943 0.0
C199 C 0.28116 0.79778 0.36057 0.0
H200 H 0.2031 0.67695 0.35796 0.0
C201 C 0.2685 0.81 0.3251 0.0
C202 C 0.25706 0.74939 0.37279 0.0
C203 C 0.2686 0.73472 0.4112 0.0
C204 C 0.23325 0.7747 0.30077 0.0
C205 C 0.20927 0.72612 0.31285 0.0
C206 C 0.22151 0.71416 0.34872 0.0
C207 C 0.17242 0.68686 0.28827 0.0
C208 C 0.22336 0.78959 0.26177 0.0
C209 C 0.1307 0.68717 0.27656 0.0
C210 C 0.09658 0.65029 0.25293 0.0
C211 C 0.10324 0.61209 0.24114 0.0
C212 C 0.14446 0.61128 0.25365 0.0
C213 C 0.17874 0.64835 0.27696 0.0
H214 H 0.25334 0.82511 0.25258 0.0
H215 H 0.21749 0.7627 0.23884 0.0
H216 H 0.19045 0.79249 0.26389 0.0
H217 H 0.12444 0.71583 0.28577 0.0
H218 H 0.06494 0.65164 0.24399 0.0
H219 H 0.57117 0.42253 0.76243 0.0
H220 H 0.56518 0.35658 0.72242 0.0
H221 H 0.41124 0.29368 0.71715 0.0
H222 H 0.41687 0.35968 0.75735 0.0
H223 H 0.50733 0.25354 0.74085 0.0
H224 H 0.45699 0.30403 0.60084 0.0
H225 H 0.48551 0.34651 0.64024 0.0
H226 H 0.42319 0.30162 0.64342 0.0
C227 C 0.53603 0.39478 0.75265 0.0
C228 C 0.49447 0.3963 0.76293 0.0
C229 C 0.5327 0.35713 0.72987 0.0
C230 C 0.48785 0.32059 0.71663 0.0
C231 C 0.44623 0.32192 0.72676 0.0
H232 H 0.41942 0.07657 0.56313 0.0
H233 H 0.41381 0.13509 0.60562 0.0
C234 C 0.44949 0.3595 0.74979 0.0
C235 C 0.4849 0.28068 0.69287 0.0
H236 H 0.46258 0.23369 0.60081 0.0
C237 C 0.49739 0.24901 0.71026 0.0
C238 C 0.47161 0.27485 0.65311 0.0
C239 C 0.4588 0.30861 0.63302 0.0
C240 C 0.49718 0.21162 0.68882 0.0
C241 C 0.48528 0.20659 0.64871 0.0
C242 C 0.47179 0.23769 0.63154 0.0
C243 C 0.48832 0.17044 0.62374 0.0
C244 C 0.50925 0.17761 0.70946 0.0
C245 C 0.53217 0.17125 0.61952 0.0
C246 C 0.53541 0.13783 0.59547 0.0
C247 C 0.49496 0.10324 0.57483 0.0
C248 C 0.45115 0.1027 0.57879 0.0
C249 C 0.4479 0.1361 0.60299 0.0
H250 H 0.50294 0.17702 0.74134 0.0
H251 H 0.48767 0.14048 0.69783 0.0
H252 H 0.54783 0.18966 0.70504 0.0
H253 H 0.5641 0.19816 0.63449 0.0
H254 H 0.56975 0.1394 0.59276 0.0
loop_
_geom_bond_atom_site_label_1
_geom_bond_atom_site_label_2
_geom_bond_distance
_geom_bond_site_symmetry_2
_ccdc_geom_bond_type
In0 O1 2.294 1_455 S
In0 O2 2.326 1_455 S
In0 O6 2.266 . S
In0 O7 2.326 . S
In0 O8 2.266 . S
In0 O9 2.326 . S
In0 O11 2.294 1_455 S
In0 O12 2.326 1_455 S
O1 In0 2.294 1_655 S
O1 C10 1.240 . S
O2 In0 2.326 1_655 S
O2 C10 1.252 . S
C3 O6 1.252 . S
C3 O7 1.260 . S
C4 O11 1.240 . S
C4 O12 1.252 . S
C5 O8 1.252 . S
C5 O9 1.260 . S
O6 In0 2.266 . S
O6 C3 1.252 . S
O7 In0 2.326 . S
O7 C3 1.260 . S
O8 In0 2.266 . S
O8 C5 1.252 . S
O9 In0 2.326 . S
O9 C5 1.260 . S
C10 O1 1.240 . S
C10 O2 1.252 . S
O11 In0 2.294 1_655 S
O11 C4 1.240 . S
O12 In0 2.326 1_655 S
O12 C4 1.252 . S
In13 O14 2.294 . S
In13 O15 2.326 . S
In13 O19 2.266 1_545 S
In13 O20 2.326 1_545 S
In13 O21 2.266 1_545 S
In13 O22 2.326 1_545 S
In13 O24 2.294 . S
In13 O25 2.326 . S
O14 In13 2.294 . S
O14 C23 1.240 . S
O15 In13 2.326 . S
O15 C23 1.252 . S
C16 O19 1.252 . S
C16 O20 1.260 . S
C17 O24 1.240 . S
C17 O25 1.252 . S
C18 O21 1.252 . S
C18 O22 1.260 . S
O19 In13 2.266 1_565 S
O19 C16 1.252 . S
O20 In13 2.326 1_565 S
O20 C16 1.260 . S
O21 In13 2.266 1_565 S
O21 C18 1.252 . S
O22 In13 2.326 1_565 S
O22 C18 1.260 . S
C23 O14 1.240 . S
C23 O15 1.252 . S
O24 In13 2.294 . S
O24 C17 1.240 . S
O25 In13 2.326 . S
O25 C17 1.252 . S
In26 O27 2.294 . S
In26 O28 2.326 . S
In26 O32 2.266 . S
In26 O33 2.326 . S
In26 O34 2.266 . S
In26 O35 2.326 . S
In26 O37 2.294 . S
In26 O38 2.326 . S
O27 In26 2.294 . S
O27 C36 1.240 . S
O28 In26 2.326 . S
O28 C36 1.252 . S
C29 O32 1.252 . S
C29 O33 1.260 . S
C30 O37 1.240 . S
C30 O38 1.252 . S
C31 O34 1.252 . S
C31 O35 1.260 . S
O32 In26 2.266 . S
O32 C29 1.252 . S
O33 In26 2.326 . S
O33 C29 1.260 . S
O34 In26 2.266 . S
O34 C31 1.252 . S
O35 In26 2.326 . S
O35 C31 1.260 . S
C36 O27 1.240 . S
C36 O28 1.252 . S
O37 In26 2.294 . S
O37 C30 1.240 . S
O38 In26 2.326 . S
O38 C30 1.252 . S
H39 C47 0.929 . S
H40 C49 0.930 . S
H41 C51 0.930 . S
H42 C54 0.929 . S
H43 C57 0.930 . S
H44 C59 0.960 . S
H45 C59 0.960 . S
H46 C59 0.960 . S
C47 H39 0.929 . S
C47 C48 1.377 . S
C47 C49 1.384 . S
C48 C47 1.377 . S
C48 C54 1.390 . S
C49 H40 0.930 . S
C49 C47 1.384 . S
C49 C50 1.372 . S
C50 C49 1.372 . S
C50 C51 1.400 . S
C50 C55 1.490 . S
C51 H41 0.930 . S
C51 C50 1.400 . S
C51 C54 1.386 . S
H52 C68 0.930 . S
H53 C69 0.931 . S
C54 H42 0.929 . S
C54 C48 1.390 . S
C54 C51 1.386 . S
C55 C50 1.490 . S
C55 C57 1.395 . S
C55 C58 1.403 1_556 S
H56 C62 0.930 . S
C57 H43 0.930 . S
C57 C55 1.395 . S
C57 C60 1.403 . S
C58 C55 1.403 1_554 S
C58 C59 1.524 . S
C58 C62 1.400 . S
C59 H44 0.960 . S
C59 H45 0.960 . S
C59 H46 0.960 . S
C59 C58 1.524 . S
C60 C57 1.403 . S
C60 C61 1.392 1_556 S
C60 C64 1.495 . S
C61 C60 1.392 1_554 S
C61 C62 1.385 . S
C61 C63 1.478 . S
C62 H56 0.930 . S
C62 C58 1.400 . S
C62 C61 1.385 . S
C63 C61 1.478 . S
C63 C65 1.381 . S
C63 C69 1.383 . S
C64 C60 1.495 . S
C64 H70 0.959 . S
C64 H71 0.961 . S
C64 H72 0.960 . S
C65 C63 1.381 . S
C65 C66 1.394 . S
C65 H73 0.930 . S
C66 C65 1.394 . S
C66 C67 1.383 . S
C66 H74 0.929 . S
C67 C66 1.383 . S
C67 C68 1.377 . S
C68 H52 0.930 . S
C68 C67 1.377 . S
C68 C69 1.379 . S
C69 H53 0.931 . S
C69 C63 1.383 . S
C69 C68 1.379 . S
H70 C64 0.959 . S
H71 C64 0.961 . S
H72 C64 0.960 . S
H73 C65 0.930 . S
H74 C66 0.929 . S
H75 C83 0.929 . S
H76 C85 0.930 . S
H77 C87 0.930 . S
H78 C90 0.929 . S
H79 C93 0.930 . S
H80 C95 0.960 . S
H81 C95 0.960 . S
H82 C95 0.960 . S
C83 H75 0.929 . S
C83 C84 1.377 . S
C83 C85 1.384 . S
C84 C83 1.377 . S
C84 C90 1.390 . S
C85 H76 0.930 . S
C85 C83 1.384 . S
C85 C86 1.372 . S
C86 C85 1.372 . S
C86 C87 1.400 . S
C86 C91 1.490 . S
C87 H77 0.930 . S
C87 C86 1.400 . S
C87 C90 1.386 . S
H88 C104 0.930 . S
H89 C105 0.931 . S
C90 H78 0.929 . S
C90 C84 1.390 . S
C90 C87 1.386 . S
C91 C86 1.490 . S
C91 C93 1.395 . S
C91 C94 1.403 . S
H92 C98 0.930 . S
C93 H79 0.930 . S
C93 C91 1.395 . S
C93 C96 1.403 . S
C94 C91 1.403 . S
C94 C95 1.524 . S
C94 C98 1.400 . S
C95 H80 0.960 . S
C95 H81 0.960 . S
C95 H82 0.960 . S
C95 C94 1.524 . S
C96 C93 1.403 . S
C96 C97 1.392 . S
C96 C100 1.495 . S
C97 C96 1.392 . S
C97 C98 1.385 . S
C97 C99 1.478 . S
C98 H92 0.930 . S
C98 C94 1.400 . S
C98 C97 1.385 . S
C99 C97 1.478 . S
C99 C101 1.381 . S
C99 C105 1.383 . S
C100 C96 1.495 . S
C100 H106 0.959 . S
C100 H107 0.961 . S
C100 H108 0.960 . S
C101 C99 1.381 . S
C101 C102 1.394 . S
C101 H109 0.930 . S
C102 C101 1.394 . S
C102 C103 1.383 . S
C102 H110 0.929 . S
C103 C102 1.383 . S
C103 C104 1.377 . S
C104 H88 0.930 . S
C104 C103 1.377 . S
C104 C105 1.379 . S
C105 H89 0.931 . S
C105 C99 1.383 . S
C105 C104 1.379 . S
H106 C100 0.959 . S
H107 C100 0.961 . S
H108 C100 0.960 . S
H109 C101 0.930 . S
H110 C102 0.929 . S
H111 C119 0.929 . S
H112 C121 0.930 . S
H113 C123 0.930 . S
H114 C126 0.929 . S
H115 C129 0.930 . S
H116 C131 0.960 . S
H117 C131 0.960 . S
H118 C131 0.960 . S
C119 H111 0.929 . S
C119 C120 1.377 . S
C119 C121 1.384 . S
C120 C119 1.377 . S
C120 C126 1.390 . S
C121 H112 0.930 . S
C121 C119 1.384 . S
C121 C122 1.372 . S
C122 C121 1.372 . S
C122 C123 1.400 . S
C122 C127 1.490 . S
C123 H113 0.930 . S
C123 C122 1.400 . S
C123 C126 1.386 . S
H124 C140 0.930 . S
H125 C141 0.931 . S
C126 H114 0.929 . S
C126 C120 1.390 . S
C126 C123 1.386 . S
C127 C122 1.490 . S
C127 C129 1.395 . S
C127 C130 1.403 . S
H128 C134 0.930 . S
C129 H115 0.930 . S
C129 C127 1.395 . S
C129 C132 1.403 . S
C130 C127 1.403 . S
C130 C131 1.524 . S
C130 C134 1.400 . S
C131 H116 0.960 . S
C131 H117 0.960 . S
C131 H118 0.960 . S
C131 C130 1.524 . S
C132 C129 1.403 . S
C132 C133 1.392 . S
C132 C136 1.495 . S
C133 C132 1.392 . S
C133 C134 1.385 . S
C133 C135 1.478 . S
C134 H128 0.930 . S
C134 C130 1.400 . S
C134 C133 1.385 . S
C135 C133 1.478 . S
C135 C137 1.381 . S
C135 C141 1.383 . S
C136 C132 1.495 . S
C136 H142 0.959 . S
C136 H143 0.961 . S
C136 H144 0.960 . S
C137 C135 1.381 . S
C137 C138 1.394 . S
C137 H145 0.930 . S
C138 C137 1.394 . S
C138 C139 1.383 . S
C138 H146 0.929 . S
C139 C138 1.383 . S
C139 C140 1.377 . S
C140 H124 0.930 . S
C140 C139 1.377 . S
C140 C141 1.379 . S
C141 H125 0.931 . S
C141 C135 1.383 . S
C141 C140 1.379 . S
H142 C136 0.959 . S
H143 C136 0.961 . S
H144 C136 0.960 . S
H145 C137 0.930 . S
H146 C138 0.929 . S
H147 C155 0.929 . S
H148 C157 0.930 . S
H149 C159 0.930 . S
H150 C162 0.929 . S
H151 C165 0.930 . S
H152 C167 0.960 . S
H153 C167 0.960 . S
H154 C167 0.960 . S
C155 H147 0.929 . S
C155 C156 1.377 . S
C155 C157 1.384 . S
C156 C155 1.377 . S
C156 C162 1.390 . S
C157 H148 0.930 . S
C157 C155 1.384 . S
C157 C158 1.372 . S
C158 C157 1.372 . S
C158 C159 1.400 . S
C158 C163 1.490 . S
C159 H149 0.930 . S
C159 C158 1.400 . S
C159 C162 1.386 . S
H160 C176 0.930 . S
H161 C177 0.931 . S
C162 H150 0.929 . S
C162 C156 1.390 . S
C162 C159 1.386 . S
C163 C158 1.490 . S
C163 C165 1.395 . S
C163 C166 1.403 1_556 S
H164 C170 0.930 . S
C165 H151 0.930 . S
C165 C163 1.395 . S
C165 C168 1.403 . S
C166 C163 1.403 1_554 S
C166 C167 1.524 . S
C166 C170 1.400 . S
C167 H152 0.960 . S
C167 H153 0.960 . S
C167 H154 0.960 . S
C167 C166 1.524 . S
C168 C165 1.403 . S
C168 C169 1.392 1_556 S
C168 C172 1.495 . S
C169 C168 1.392 1_554 S
C169 C170 1.385 . S
C169 C171 1.478 . S
C170 H164 0.930 . S
C170 C166 1.400 . S
C170 C169 1.385 . S
C171 C169 1.478 . S
C171 C173 1.381 . S
C171 C177 1.383 . S
C172 C168 1.495 . S
C172 H178 0.959 . S
C172 H179 0.961 . S
C172 H180 0.960 . S
C173 C171 1.381 . S
C173 C174 1.394 . S
C173 H181 0.930 . S
C174 C173 1.394 . S
C174 C175 1.383 . S
C174 H182 0.929 . S
C175 C174 1.383 . S
C175 C176 1.377 . S
C176 H160 0.930 . S
C176 C175 1.377 . S
C176 C177 1.379 . S
C177 H161 0.931 . S
C177 C171 1.383 . S
C177 C176 1.379 . S
H178 C172 0.959 . S
H179 C172 0.961 . S
H180 C172 0.960 . S
H181 C173 0.930 . S
H182 C174 0.929 . S
H183 C191 0.929 . S
H184 C193 0.930 . S
H185 C195 0.930 . S
H186 C198 0.929 . S
H187 C201 0.930 . S
H188 C203 0.960 . S
H189 C203 0.960 . S
H190 C203 0.960 . S
C191 H183 0.929 . S
C191 C192 1.377 . S
C191 C193 1.384 . S
C192 C191 1.377 . S
C192 C198 1.390 . S
C193 H184 0.930 . S
C193 C191 1.384 . S
C193 C194 1.372 . S
C194 C193 1.372 . S
C194 C195 1.400 . S
C194 C199 1.490 . S
C195 H185 0.930 . S
C195 C194 1.400 . S
C195 C198 1.386 . S
H196 C212 0.930 . S
H197 C213 0.931 . S
C198 H186 0.929 . S
C198 C192 1.390 . S
C198 C195 1.386 . S
C199 C194 1.490 . S
C199 C201 1.395 . S
C199 C202 1.403 . S
H200 C206 0.930 . S
C201 H187 0.930 . S
C201 C199 1.395 . S
C201 C204 1.403 . S
C202 C199 1.403 . S
C202 C203 1.524 . S
C202 C206 1.400 . S
C203 H188 0.960 . S
C203 H189 0.960 . S
C203 H190 0.960 . S
C203 C202 1.524 . S
C204 C201 1.403 . S
C204 C205 1.392 . S
C204 C208 1.495 . S
C205 C204 1.392 . S
C205 C206 1.385 . S
C205 C207 1.478 . S
C206 H200 0.930 . S
C206 C202 1.400 . S
C206 C205 1.385 . S
C207 C205 1.478 . S
C207 C209 1.381 . S
C207 C213 1.383 . S
C208 C204 1.495 . S
C208 H214 0.959 . S
C208 H215 0.961 . S
C208 H216 0.960 . S
C209 C207 1.381 . S
C209 C210 1.394 . S
C209 H217 0.930 . S
C210 C209 1.394 . S
C210 C211 1.383 . S
C210 H218 0.929 . S
C211 C210 1.383 . S
C211 C212 1.377 . S
C212 H196 0.930 . S
C212 C211 1.377 . S
C212 C213 1.379 . S
C213 H197 0.931 . S
C213 C207 1.383 . S
C213 C212 1.379 . S
H214 C208 0.959 . S
H215 C208 0.961 . S
H216 C208 0.960 . S
H217 C209 0.930 . S
H218 C210 0.929 . S
H219 C227 0.929 . S
H220 C229 0.930 . S
H221 C231 0.930 . S
H222 C234 0.929 . S
H223 C237 0.930 . S
H224 C239 0.960 . S
H225 C239 0.960 . S
H226 C239 0.960 . S
C227 H219 0.929 . S
C227 C228 1.377 . S
C227 C229 1.384 . S
C228 C227 1.377 . S
C228 C234 1.390 . S
C229 H220 0.930 . S
C229 C227 1.384 . S
C229 C230 1.372 . S
C230 C229 1.372 . S
C230 C231 1.400 . S
C230 C235 1.490 . S
C231 H221 0.930 . S
C231 C230 1.400 . S
C231 C234 1.386 . S
H232 C248 0.930 . S
H233 C249 0.931 . S
C234 H222 0.929 . S
C234 C228 1.390 . S
C234 C231 1.386 . S
C235 C230 1.490 . S
C235 C237 1.395 . S
C235 C238 1.403 . S
H236 C242 0.930 . S
C237 H223 0.930 . S
C237 C235 1.395 . S
C237 C240 1.403 . S
C238 C235 1.403 . S
C238 C239 1.524 . S
C238 C242 1.400 . S
C239 H224 0.960 . S
C239 H225 0.960 . S
C239 H226 0.960 . S
C239 C238 1.524 . S
C240 C237 1.403 . S
C240 C241 1.392 . S
C240 C244 1.495 . S
C241 C240 1.392 . S
C241 C242 1.385 . S
C241 C243 1.478 . S
C242 H236 0.930 . S
C242 C238 1.400 . S
C242 C241 1.385 . S
C243 C241 1.478 . S
C243 C245 1.381 . S
C243 C249 1.383 . S
C244 C240 1.495 . S
C244 H250 0.959 . S
C244 H251 0.961 . S
C244 H252 0.960 . S
C245 C243 1.381 . S
C245 C246 1.394 . S
C245 H253 0.930 . S
C246 C245 1.394 . S
C246 C247 1.383 . S
C246 H254 0.929 . S
C247 C246 1.383 . S
C247 C248 1.377 . S
C248 H232 0.930 . S
C248 C247 1.377 . S
C248 C249 1.379 . S
C249 H233 0.931 . S
C249 C243 1.383 . S
C249 C248 1.379 . S
H250 C244 0.959 . S
H251 C244 0.961 . S
H252 C244 0.960 . S
H253 C245 0.930 . S
H254 C246 0.929 . S
C48 C30 1.561 . S
C67 C3 1.559 . S
C84 C10 1.553 . S
C103 C23 1.552 . S
C120 C16 1.561 . S
C139 C36 1.558 . S
C156 C29 1.561 . S
C175 C4 1.559 . S
C192 C18 1.568 . S
C211 C5 1.565 . S
C228 C31 1.561 . S
C247 C17 1.560 . S
