# Generated by pormake.
# Topology umg, (4)-cn, num edge types: 1
# Building blocks:
#     Node 0, Type 0, BuildingBlock: CEKHIL_clean_sbu_0, # of connection points: 4
#     Node 1, Type 0, BuildingBlock: CEKHIL_clean_sbu_0, # of connection points: 4
#     Node 2, Type 0, BuildingBlock: CEKHIL_clean_sbu_0, # of connection points: 4
#     Node 3, Type 0, BuildingBlock: CEKHIL_clean_sbu_0, # of connection points: 4
#     Node 4, Type 0, BuildingBlock: CEKHIL_clean_sbu_0, # of connection points: 4
#     Node 5, Type 0, BuildingBlock: CEKHIL_clean_sbu_0, # of connection points: 4
#     Node 6, Type 0, BuildingBlock: CEKHIL_clean_sbu_0, # of connection points: 4
#     Node 7, Type 0, BuildingBlock: CEKHIL_clean_sbu_0, # of connection points: 4
#     Node 8, Type 0, BuildingBlock: CEKHIL_clean_sbu_0, # of connection points: 4
#     Node 9, Type 0, BuildingBlock: CEKHIL_clean_sbu_0, # of connection points: 4
#     Node 10, Type 0, BuildingBlock: CEKHIL_clean_sbu_0, # of connection points: 4
#     Node 11, Type 0, BuildingBlock: CEKHIL_clean_sbu_0, # of connection points: 4
#     Edge 12, Type (0, 0), None
#     Edge 13, Type (0, 0), None
#     Edge 14, Type (0, 0), None
#     Edge 15, Type (0, 0), None
#     Edge 16, Type (0, 0), None
#     Edge 17, Type (0, 0), None
#     Edge 18, Type (0, 0), None
#     Edge 19, Type (0, 0), None
#     Edge 20, Type (0, 0), None
#     Edge 21, Type (0, 0), None
#     Edge 22, Type (0, 0), None
#     Edge 23, Type (0, 0), None
#     Edge 24, Type (0, 0), None
#     Edge 25, Type (0, 0), None
#     Edge 26, Type (0, 0), None
#     Edge 27, Type (0, 0), None
#     Edge 28, Type (0, 0), None
#     Edge 29, Type (0, 0), None
#     Edge 30, Type (0, 0), None
#     Edge 31, Type (0, 0), None
#     Edge 32, Type (0, 0), None
#     Edge 33, Type (0, 0), None
#     Edge 34, Type (0, 0), None
#     Edge 35, Type (0, 0), None
# Relax obj value: 0.082
# Max RMSD: 0.192
# Mean RMSD: 0.192
data_MOF--net-umg--node1-CEKHIL_clean_sbu_0--edge1-none
_symmetry_space_group_name_H-M    P1
_symmetry_Int_Tables_number       1
_symmetry_cell_setting            triclinic
loop_
_symmetry_equiv_pos_as_xyz
'x, y, z'
_cell_length_a     12.981654
_cell_length_b     12.98676
_cell_length_c     35.566239
_cell_angle_alpha  89.991196
_cell_angle_beta   89.990962
_cell_angle_gamma 120.04025
loop_
_atom_site_label
_atom_site_type_symbol
_atom_site_fract_x
_atom_site_fract_y
_atom_site_fract_z
_atom_type_partial_charge
Co0 Co 0.32446 0.57848 0.09814 0.0
O1 O 0.49034 0.62652 0.09925 0.0
O2 O 0.34639 0.44956 0.08059 0.0
C3 C 0.31686 0.63858 0.15614 0.0
O4 O 0.14207 0.50525 0.09478 0.0
Co5 Co 0.27179 0.78145 0.09711 0.0
O6 O 0.10183 0.65474 0.10074 0.0
C7 C 0.36315 0.73497 0.029 0.0
C8 C 0.45946 0.52179 0.08682 0.0
C9 C 0.06795 0.54458 0.0975 0.0
O10 O 0.34484 0.63979 0.04548 0.0
O11 O 0.34909 0.81442 0.04557 0.0
O12 O 0.30759 0.53595 0.15073 0.0
O13 O 0.3455 0.70847 0.12694 0.0
Co14 Co 0.74776 0.32338 0.43146 0.0
O15 O 0.86558 0.48922 0.43257 0.0
O16 O 0.89869 0.34544 0.41388 0.0
C17 C 0.68 0.31565 0.48946 0.0
O18 O 0.63868 0.14108 0.4281 0.0
Co19 Co 0.49187 0.27035 0.43047 0.0
O20 O 0.44877 0.10055 0.4341 0.0
C21 C 0.62978 0.36188 0.36235 0.0
C22 C 0.93951 0.45844 0.42013 0.0
C23 C 0.52518 0.06686 0.43084 0.0
O24 O 0.70675 0.34368 0.37881 0.0
O25 O 0.53617 0.34767 0.37893 0.0
O26 O 0.77348 0.30655 0.48404 0.0
O27 O 0.63868 0.34421 0.46028 0.0
Co28 Co 0.4265 0.7468 0.76479 0.0
O29 O 0.37839 0.86449 0.76594 0.0
O30 O 0.55539 0.89787 0.74721 0.0
C31 C 0.36651 0.67904 0.8228 0.0
O32 O 0.49972 0.63772 0.76139 0.0
Co33 Co 0.22341 0.49093 0.76382 0.0
O34 O 0.35014 0.44786 0.76742 0.0
C35 C 0.26981 0.62876 0.6957 0.0
C36 C 0.48312 0.93855 0.75348 0.0
C37 C 0.46034 0.52424 0.76413 0.0
O38 O 0.36505 0.70577 0.71215 0.0
O39 O 0.19036 0.53516 0.71229 0.0
O40 O 0.46916 0.77253 0.81736 0.0
O41 O 0.29652 0.63769 0.79362 0.0
Co42 Co 0.68147 0.42551 0.09813 0.0
O43 O 0.51559 0.37746 0.09927 0.0
O44 O 0.65955 0.55442 0.08056 0.0
C45 C 0.68909 0.36548 0.15614 0.0
O46 O 0.86386 0.49873 0.09475 0.0
Co47 Co 0.73414 0.22253 0.09715 0.0
O48 O 0.90409 0.34926 0.10077 0.0
C49 C 0.64274 0.26892 0.02904 0.0
C50 C 0.54648 0.4822 0.08682 0.0
C51 C 0.93798 0.45942 0.0975 0.0
O52 O 0.66109 0.36414 0.04549 0.0
O53 O 0.6568 0.18949 0.04563 0.0
O54 O 0.69835 0.46809 0.15071 0.0
O55 O 0.66044 0.29556 0.12695 0.0
Co56 Co 0.2579 0.68049 0.43147 0.0
O57 O 0.14007 0.51466 0.43258 0.0
O58 O 0.10702 0.65849 0.41389 0.0
C59 C 0.32559 0.68813 0.48947 0.0
O60 O 0.367 0.86279 0.4281 0.0
Co61 Co 0.5138 0.73351 0.43046 0.0
O62 O 0.5569 0.90331 0.4341 0.0
C63 C 0.37596 0.64207 0.36235 0.0
C64 C 0.06618 0.54548 0.42014 0.0
C65 C 0.48049 0.93701 0.43084 0.0
O66 O 0.29899 0.66027 0.37882 0.0
O67 O 0.46954 0.65624 0.37893 0.0
O68 O 0.23212 0.69724 0.48405 0.0
O69 O 0.36695 0.65962 0.46028 0.0
Co70 Co 0.57931 0.25692 0.7648 0.0
O71 O 0.6274 0.13921 0.76593 0.0
O72 O 0.45038 0.10588 0.74725 0.0
C73 C 0.63937 0.32465 0.8228 0.0
O74 O 0.5061 0.36601 0.76142 0.0
Co75 Co 0.78239 0.51277 0.76378 0.0
O76 O 0.65569 0.55588 0.76738 0.0
C77 C 0.7359 0.37498 0.69567 0.0
C78 C 0.52265 0.06519 0.7535 0.0
C79 C 0.54548 0.47949 0.76413 0.0
O80 O 0.64069 0.29797 0.71215 0.0
O81 O 0.81538 0.46857 0.71224 0.0
O82 O 0.53671 0.23117 0.81739 0.0
O83 O 0.70932 0.36601 0.79361 0.0
Co84 Co 0.42638 0.68046 0.58557 0.0
O85 O 0.37829 0.51462 0.58444 0.0
O86 O 0.5553 0.65842 0.60312 0.0
C87 C 0.36631 0.6881 0.52757 0.0
O88 O 0.4996 0.86282 0.58895 0.0
Co89 Co 0.22331 0.73309 0.58659 0.0
O90 O 0.35002 0.903 0.58298 0.0
C91 C 0.26977 0.6417 0.6547 0.0
C92 C 0.48303 0.5454 0.59687 0.0
C93 C 0.46023 0.9369 0.58623 0.0
O94 O 0.365 0.66003 0.63822 0.0
O95 O 0.19032 0.65583 0.63814 0.0
O96 O 0.46898 0.69739 0.53298 0.0
O97 O 0.29636 0.65945 0.55677 0.0
Co98 Co 0.74786 0.4254 0.91891 0.0
O99 O 0.8656 0.37735 0.91779 0.0
O100 O 0.89888 0.5543 0.93646 0.0
C101 C 0.68013 0.36535 0.86091 0.0
O102 O 0.6388 0.49862 0.92228 0.0
Co103 Co 0.4919 0.22243 0.91993 0.0
O104 O 0.44885 0.34913 0.91631 0.0
C105 C 0.62978 0.26888 0.98804 0.0
C106 C 0.93961 0.48207 0.93023 0.0
C107 C 0.52529 0.45929 0.91956 0.0
O108 O 0.70679 0.36407 0.97156 0.0
O109 O 0.53611 0.18945 0.97148 0.0
O110 O 0.77363 0.46799 0.86632 0.0
O111 O 0.63872 0.29543 0.8901 0.0
Co112 Co 0.32447 0.74701 0.25223 0.0
O113 O 0.49034 0.86488 0.25112 0.0
O114 O 0.34638 0.8978 0.26979 0.0
C115 C 0.31692 0.67936 0.19424 0.0
O116 O 0.14211 0.63787 0.25559 0.0
Co117 Co 0.27158 0.49125 0.25325 0.0
O118 O 0.10169 0.44807 0.24961 0.0
C119 C 0.36302 0.62912 0.32135 0.0
C120 C 0.45945 0.9387 0.26356 0.0
C121 C 0.06791 0.5244 0.25286 0.0
O122 O 0.34473 0.70599 0.30489 0.0
O123 O 0.34887 0.53555 0.30479 0.0
O124 O 0.30771 0.77274 0.19964 0.0
O125 O 0.34545 0.63804 0.22343 0.0
Co126 Co 0.57923 0.3233 0.58557 0.0
O127 O 0.62733 0.48914 0.58443 0.0
O128 O 0.4503 0.34532 0.60314 0.0
C129 C 0.63929 0.31569 0.52757 0.0
O130 O 0.50601 0.14094 0.58897 0.0
Co131 Co 0.78231 0.27066 0.58656 0.0
O132 O 0.65559 0.10077 0.58295 0.0
C133 C 0.73589 0.36205 0.65467 0.0
C134 C 0.52257 0.45833 0.59687 0.0
C135 C 0.54538 0.06686 0.58623 0.0
O136 O 0.64063 0.34371 0.63822 0.0
O137 O 0.81533 0.34793 0.63809 0.0
O138 O 0.53661 0.30639 0.533 0.0
O139 O 0.70924 0.34432 0.55675 0.0
Co140 Co 0.25805 0.57832 0.91892 0.0
O141 O 0.1403 0.62638 0.91778 0.0
O142 O 0.107 0.44943 0.9365 0.0
C143 C 0.32578 0.63833 0.86091 0.0
O144 O 0.36711 0.50511 0.9223 0.0
Co145 Co 0.51401 0.7813 0.91989 0.0
O146 O 0.55705 0.65459 0.91627 0.0
C147 C 0.3761 0.73494 0.988 0.0
C148 C 0.06628 0.52164 0.93023 0.0
C149 C 0.48061 0.54444 0.91955 0.0
O150 O 0.2991 0.63971 0.97156 0.0
O151 O 0.46977 0.81435 0.97142 0.0
O152 O 0.23229 0.53569 0.86634 0.0
O153 O 0.36718 0.70827 0.89009 0.0
Co154 Co 0.68144 0.25704 0.25224 0.0
O155 O 0.51557 0.13917 0.25113 0.0
O156 O 0.65951 0.10623 0.26981 0.0
C157 C 0.68907 0.32474 0.19424 0.0
O158 O 0.8638 0.36619 0.2556 0.0
Co159 Co 0.73433 0.51279 0.25324 0.0
O160 O 0.90423 0.55599 0.2496 0.0
C161 C 0.64277 0.37486 0.32135 0.0
C162 C 0.54646 0.06534 0.26356 0.0
C163 C 0.93799 0.47965 0.25286 0.0
O164 O 0.66108 0.29799 0.30489 0.0
O165 O 0.65697 0.46845 0.30477 0.0
O166 O 0.69831 0.23137 0.19966 0.0
O167 O 0.66049 0.36603 0.22343 0.0
loop_
_geom_bond_atom_site_label_1
_geom_bond_atom_site_label_2
_geom_bond_distance
_geom_bond_site_symmetry_2
_ccdc_geom_bond_type
Co0 O1 2.216 . S
Co0 O2 2.091 . S
Co0 O4 2.004 . S
Co0 O10 2.021 . S
Co0 O12 2.137 . S
Co0 O13 2.244 . S
O1 Co0 2.216 . S
O1 C8 1.247 . S
O2 Co0 2.091 . S
O2 C8 1.261 . S
C3 O12 1.247 . S
C3 O13 1.272 . S
O4 Co0 2.004 . S
O4 C9 1.259 . S
Co5 O6 2.061 . S
Co5 O11 2.052 . S
Co5 O13 2.135 . S
O6 Co5 2.061 . S
O6 C9 1.235 . S
C7 O10 1.238 . S
C7 O11 1.241 . S
C8 O1 1.247 . S
C8 O2 1.261 . S
C9 O4 1.259 . S
C9 O6 1.235 . S
O10 Co0 2.021 . S
O10 C7 1.238 . S
O11 Co5 2.052 . S
O11 C7 1.241 . S
O12 Co0 2.137 . S
O12 C3 1.247 . S
O13 Co0 2.244 . S
O13 C3 1.272 . S
O13 Co5 2.135 . S
Co14 O15 2.216 . S
Co14 O16 2.091 . S
Co14 O18 2.004 . S
Co14 O24 2.021 . S
Co14 O26 2.137 . S
Co14 O27 2.244 . S
O15 Co14 2.216 . S
O15 C22 1.247 . S
O16 Co14 2.091 . S
O16 C22 1.261 . S
C17 O26 1.247 . S
C17 O27 1.272 . S
O18 Co14 2.004 . S
O18 C23 1.259 . S
Co19 O20 2.061 . S
Co19 O25 2.052 . S
Co19 O27 2.135 . S
O20 Co19 2.061 . S
O20 C23 1.235 . S
C21 O24 1.238 . S
C21 O25 1.241 . S
C22 O15 1.247 . S
C22 O16 1.261 . S
C23 O18 1.259 . S
C23 O20 1.235 . S
O24 Co14 2.021 . S
O24 C21 1.238 . S
O25 Co19 2.052 . S
O25 C21 1.241 . S
O26 Co14 2.137 . S
O26 C17 1.247 . S
O27 Co14 2.244 . S
O27 C17 1.272 . S
O27 Co19 2.135 . S
Co28 O29 2.216 . S
Co28 O30 2.091 . S
Co28 O32 2.004 . S
Co28 O38 2.021 . S
Co28 O40 2.137 . S
Co28 O41 2.244 . S
O29 Co28 2.216 . S
O29 C36 1.247 . S
O30 Co28 2.091 . S
O30 C36 1.261 . S
C31 O40 1.247 . S
C31 O41 1.272 . S
O32 Co28 2.004 . S
O32 C37 1.259 . S
Co33 O34 2.061 . S
Co33 O39 2.052 . S
Co33 O41 2.135 . S
O34 Co33 2.061 . S
O34 C37 1.235 . S
C35 O38 1.238 . S
C35 O39 1.241 . S
C36 O29 1.247 . S
C36 O30 1.261 . S
C37 O32 1.259 . S
C37 O34 1.235 . S
O38 Co28 2.021 . S
O38 C35 1.238 . S
O39 Co33 2.052 . S
O39 C35 1.241 . S
O40 Co28 2.137 . S
O40 C31 1.247 . S
O41 Co28 2.244 . S
O41 C31 1.272 . S
O41 Co33 2.135 . S
Co42 O43 2.216 . S
Co42 O44 2.091 . S
Co42 O46 2.004 . S
Co42 O52 2.021 . S
Co42 O54 2.137 . S
Co42 O55 2.244 . S
O43 Co42 2.216 . S
O43 C50 1.247 . S
O44 Co42 2.091 . S
O44 C50 1.261 . S
C45 O54 1.247 . S
C45 O55 1.272 . S
O46 Co42 2.004 . S
O46 C51 1.259 . S
Co47 O48 2.061 . S
Co47 O53 2.052 . S
Co47 O55 2.135 . S
O48 Co47 2.061 . S
O48 C51 1.235 . S
C49 O52 1.238 . S
C49 O53 1.241 . S
C50 O43 1.247 . S
C50 O44 1.261 . S
C51 O46 1.259 . S
C51 O48 1.235 . S
O52 Co42 2.021 . S
O52 C49 1.238 . S
O53 Co47 2.052 . S
O53 C49 1.241 . S
O54 Co42 2.137 . S
O54 C45 1.247 . S
O55 Co42 2.244 . S
O55 C45 1.272 . S
O55 Co47 2.135 . S
Co56 O57 2.216 . S
Co56 O58 2.091 . S
Co56 O60 2.004 . S
Co56 O66 2.021 . S
Co56 O68 2.137 . S
Co56 O69 2.244 . S
O57 Co56 2.216 . S
O57 C64 1.247 . S
O58 Co56 2.091 . S
O58 C64 1.261 . S
C59 O68 1.247 . S
C59 O69 1.272 . S
O60 Co56 2.004 . S
O60 C65 1.259 . S
Co61 O62 2.061 . S
Co61 O67 2.052 . S
Co61 O69 2.135 . S
O62 Co61 2.061 . S
O62 C65 1.235 . S
C63 O66 1.238 . S
C63 O67 1.241 . S
C64 O57 1.247 . S
C64 O58 1.261 . S
C65 O60 1.259 . S
C65 O62 1.235 . S
O66 Co56 2.021 . S
O66 C63 1.238 . S
O67 Co61 2.052 . S
O67 C63 1.241 . S
O68 Co56 2.137 . S
O68 C59 1.247 . S
O69 Co56 2.244 . S
O69 C59 1.272 . S
O69 Co61 2.135 . S
Co70 O71 2.216 . S
Co70 O72 2.091 . S
Co70 O74 2.004 . S
Co70 O80 2.021 . S
Co70 O82 2.137 . S
Co70 O83 2.244 . S
O71 Co70 2.216 . S
O71 C78 1.247 . S
O72 Co70 2.091 . S
O72 C78 1.261 . S
C73 O82 1.247 . S
C73 O83 1.272 . S
O74 Co70 2.004 . S
O74 C79 1.259 . S
Co75 O76 2.061 . S
Co75 O81 2.052 . S
Co75 O83 2.135 . S
O76 Co75 2.061 . S
O76 C79 1.235 . S
C77 O80 1.238 . S
C77 O81 1.241 . S
C78 O71 1.247 . S
C78 O72 1.261 . S
C79 O74 1.259 . S
C79 O76 1.235 . S
O80 Co70 2.021 . S
O80 C77 1.238 . S
O81 Co75 2.052 . S
O81 C77 1.241 . S
O82 Co70 2.137 . S
O82 C73 1.247 . S
O83 Co70 2.244 . S
O83 C73 1.272 . S
O83 Co75 2.135 . S
Co84 O85 2.216 . S
Co84 O86 2.091 . S
Co84 O88 2.004 . S
Co84 O94 2.021 . S
Co84 O96 2.137 . S
Co84 O97 2.244 . S
O85 Co84 2.216 . S
O85 C92 1.247 . S
O86 Co84 2.091 . S
O86 C92 1.261 . S
C87 O96 1.247 . S
C87 O97 1.272 . S
O88 Co84 2.004 . S
O88 C93 1.259 . S
Co89 O90 2.061 . S
Co89 O95 2.052 . S
Co89 O97 2.135 . S
O90 Co89 2.061 . S
O90 C93 1.235 . S
C91 O94 1.238 . S
C91 O95 1.241 . S
C92 O85 1.247 . S
C92 O86 1.261 . S
C93 O88 1.259 . S
C93 O90 1.235 . S
O94 Co84 2.021 . S
O94 C91 1.238 . S
O95 Co89 2.052 . S
O95 C91 1.241 . S
O96 Co84 2.137 . S
O96 C87 1.247 . S
O97 Co84 2.244 . S
O97 C87 1.272 . S
O97 Co89 2.135 . S
Co98 O99 2.216 . S
Co98 O100 2.091 . S
Co98 O102 2.004 . S
Co98 O108 2.021 . S
Co98 O110 2.137 . S
Co98 O111 2.244 . S
O99 Co98 2.216 . S
O99 C106 1.247 . S
O100 Co98 2.091 . S
O100 C106 1.261 . S
C101 O110 1.247 . S
C101 O111 1.272 . S
O102 Co98 2.004 . S
O102 C107 1.259 . S
Co103 O104 2.061 . S
Co103 O109 2.052 . S
Co103 O111 2.135 . S
O104 Co103 2.061 . S
O104 C107 1.235 . S
C105 O108 1.238 . S
C105 O109 1.241 . S
C106 O99 1.247 . S
C106 O100 1.261 . S
C107 O102 1.259 . S
C107 O104 1.235 . S
O108 Co98 2.021 . S
O108 C105 1.238 . S
O109 Co103 2.052 . S
O109 C105 1.241 . S
O110 Co98 2.137 . S
O110 C101 1.247 . S
O111 Co98 2.244 . S
O111 C101 1.272 . S
O111 Co103 2.135 . S
Co112 O113 2.216 . S
Co112 O114 2.091 . S
Co112 O116 2.004 . S
Co112 O122 2.021 . S
Co112 O124 2.137 . S
Co112 O125 2.244 . S
O113 Co112 2.216 . S
O113 C120 1.247 . S
O114 Co112 2.091 . S
O114 C120 1.261 . S
C115 O124 1.247 . S
C115 O125 1.272 . S
O116 Co112 2.004 . S
O116 C121 1.259 . S
Co117 O118 2.061 . S
Co117 O123 2.052 . S
Co117 O125 2.135 . S
O118 Co117 2.061 . S
O118 C121 1.235 . S
C119 O122 1.238 . S
C119 O123 1.241 . S
C120 O113 1.247 . S
C120 O114 1.261 . S
C121 O116 1.259 . S
C121 O118 1.235 . S
O122 Co112 2.021 . S
O122 C119 1.238 . S
O123 Co117 2.052 . S
O123 C119 1.241 . S
O124 Co112 2.137 . S
O124 C115 1.247 . S
O125 Co112 2.244 . S
O125 C115 1.272 . S
O125 Co117 2.135 . S
Co126 O127 2.216 . S
Co126 O128 2.091 . S
Co126 O130 2.004 . S
Co126 O136 2.021 . S
Co126 O138 2.137 . S
Co126 O139 2.244 . S
O127 Co126 2.216 . S
O127 C134 1.247 . S
O128 Co126 2.091 . S
O128 C134 1.261 . S
C129 O138 1.247 . S
C129 O139 1.272 . S
O130 Co126 2.004 . S
O130 C135 1.259 . S
Co131 O132 2.061 . S
Co131 O137 2.052 . S
Co131 O139 2.135 . S
O132 Co131 2.061 . S
O132 C135 1.235 . S
C133 O136 1.238 . S
C133 O137 1.241 . S
C134 O127 1.247 . S
C134 O128 1.261 . S
C135 O130 1.259 . S
C135 O132 1.235 . S
O136 Co126 2.021 . S
O136 C133 1.238 . S
O137 Co131 2.052 . S
O137 C133 1.241 . S
O138 Co126 2.137 . S
O138 C129 1.247 . S
O139 Co126 2.244 . S
O139 C129 1.272 . S
O139 Co131 2.135 . S
Co140 O141 2.216 . S
Co140 O142 2.091 . S
Co140 O144 2.004 . S
Co140 O150 2.021 . S
Co140 O152 2.137 . S
Co140 O153 2.244 . S
O141 Co140 2.216 . S
O141 C148 1.247 . S
O142 Co140 2.091 . S
O142 C148 1.261 . S
C143 O152 1.247 . S
C143 O153 1.272 . S
O144 Co140 2.004 . S
O144 C149 1.259 . S
Co145 O146 2.061 . S
Co145 O151 2.052 . S
Co145 O153 2.135 . S
O146 Co145 2.061 . S
O146 C149 1.235 . S
C147 O150 1.238 . S
C147 O151 1.241 . S
C148 O141 1.247 . S
C148 O142 1.261 . S
C149 O144 1.259 . S
C149 O146 1.235 . S
O150 Co140 2.021 . S
O150 C147 1.238 . S
O151 Co145 2.052 . S
O151 C147 1.241 . S
O152 Co140 2.137 . S
O152 C143 1.247 . S
O153 Co140 2.244 . S
O153 C143 1.272 . S
O153 Co145 2.135 . S
Co154 O155 2.216 . S
Co154 O156 2.091 . S
Co154 O158 2.004 . S
Co154 O164 2.021 . S
Co154 O166 2.137 . S
Co154 O167 2.244 . S
O155 Co154 2.216 . S
O155 C162 1.247 . S
O156 Co154 2.091 . S
O156 C162 1.261 . S
C157 O166 1.247 . S
C157 O167 1.272 . S
O158 Co154 2.004 . S
O158 C163 1.259 . S
Co159 O160 2.061 . S
Co159 O165 2.052 . S
Co159 O167 2.135 . S
O160 Co159 2.061 . S
O160 C163 1.235 . S
C161 O164 1.238 . S
C161 O165 1.241 . S
C162 O155 1.247 . S
C162 O156 1.261 . S
C163 O158 1.259 . S
C163 O160 1.235 . S
O164 Co154 2.021 . S
O164 C161 1.238 . S
O165 Co159 2.052 . S
O165 C161 1.241 . S
O166 Co154 2.137 . S
O166 C157 1.247 . S
O167 Co154 2.244 . S
O167 C157 1.272 . S
O167 Co159 2.135 . S
C147 C7 1.543 1_556 S
C21 C161 1.543 . S
C35 C91 1.543 . S
C49 C105 1.544 1_554 S
C119 C63 1.544 . S
C77 C133 1.544 . S
C115 C3 1.919 . S
C17 C129 1.914 . S
C31 C143 1.912 . S
C45 C157 1.914 . S
C87 C59 1.919 . S
C101 C73 1.922 . S
C51 C9 1.461 1_655 S
C23 C65 1.461 1_545 S
C79 C37 1.461 . S
C135 C93 1.461 1_545 S
C149 C107 1.461 . S
C121 C163 1.461 1_455 S
C50 C8 1.446 . S
C22 C64 1.446 1_655 S
C78 C36 1.446 1_545 S
C92 C134 1.446 . S
C148 C106 1.446 1_455 S
C120 C162 1.446 1_565 S
