# Generated by pormake.
# Topology snp, (6)-cn, num edge types: 1
# Building blocks:
#     Node 0, Type 0, BuildingBlock: BETDEL_clean_sbu_0, # of connection points: 6
#     Node 1, Type 0, BuildingBlock: BETDEL_clean_sbu_0, # of connection points: 6
#     Node 2, Type 0, BuildingBlock: BETDEL_clean_sbu_0, # of connection points: 6
#     Node 3, Type 0, BuildingBlock: BETDEL_clean_sbu_0, # of connection points: 6
#     Edge 4, Type (0, 0), BuildingBlock: AJUNOK_clean_linker_0, # of connection points: 2
#     Edge 5, Type (0, 0), BuildingBlock: AJUNOK_clean_linker_0, # of connection points: 2
#     Edge 6, Type (0, 0), BuildingBlock: AJUNOK_clean_linker_0, # of connection points: 2
#     Edge 7, Type (0, 0), BuildingBlock: AJUNOK_clean_linker_0, # of connection points: 2
#     Edge 8, Type (0, 0), BuildingBlock: AJUNOK_clean_linker_0, # of connection points: 2
#     Edge 9, Type (0, 0), BuildingBlock: AJUNOK_clean_linker_0, # of connection points: 2
#     Edge 10, Type (0, 0), BuildingBlock: AJUNOK_clean_linker_0, # of connection points: 2
#     Edge 11, Type (0, 0), BuildingBlock: AJUNOK_clean_linker_0, # of connection points: 2
#     Edge 12, Type (0, 0), BuildingBlock: AJUNOK_clean_linker_0, # of connection points: 2
#     Edge 13, Type (0, 0), BuildingBlock: AJUNOK_clean_linker_0, # of connection points: 2
#     Edge 14, Type (0, 0), BuildingBlock: AJUNOK_clean_linker_0, # of connection points: 2
#     Edge 15, Type (0, 0), BuildingBlock: AJUNOK_clean_linker_0, # of connection points: 2
# Relax obj value: 0.380
# Max RMSD: 0.194
# Mean RMSD: 0.191
data_MOF--net-snp--node1-BETDEL_clean_sbu_0--edge1-AJUNOK_clean_linker_0
_symmetry_space_group_name_H-M    P1
_symmetry_Int_Tables_number       1
_symmetry_cell_setting            triclinic
loop_
_symmetry_equiv_pos_as_xyz
'x, y, z'
_cell_length_a     19.834842
_cell_length_b     19.450966
_cell_length_c     18.727982
_cell_angle_alpha  93.597057
_cell_angle_beta   89.88784
_cell_angle_gamma 96.09047
loop_
_atom_site_label
_atom_site_type_symbol
_atom_site_fract_x
_atom_site_fract_y
_atom_site_fract_z
_atom_type_partial_charge
Dy0 Dy 0.21267 0.06724 0.14629 0.0
C1 C 0.23268 0.82548 0.972 0.0
C2 C 0.23478 0.16906 0.2528 0.0
Dy3 Dy 0.19383 0.92656 1.06466 0.0
O4 O 0.19407 0.17107 0.19868 0.0
O5 O 0.26323 0.11221 0.24722 0.0
O6 O 0.30883 0.08882 1.0844 0.0
O7 O 0.27862 -0.01111 0.11484 0.0
C8 C 0.3226 0.02499 1.0815 0.0
C9 C 0.08415 0.95661 0.13155 0.0
O10 O 0.20986 0.89194 0.17629 0.0
O11 O 0.18304 -0.00563 0.23334 0.0
O12 O 0.18329 0.81709 1.01746 0.0
O13 O 0.25853 0.88974 0.97551 0.0
O14 O 0.09336 0.89286 0.11104 0.0
O15 O 0.12702 -0.00095 1.10337 0.0
O16 O 0.16028 0.10262 1.04963 0.0
O17 O 0.16282 -0.00054 0.97959 0.0
C18 C 0.1915 0.92756 0.235 0.0
C19 C 0.14922 0.0658 0.9874 0.0
Dy20 Dy 0.87914 0.2382 0.66805 0.0
C21 C 0.12472 0.23872 0.51441 0.0
C22 C 0.75534 0.24677 0.72957 0.0
Dy23 Dy 0.00421 0.21483 0.5822 0.0
O24 O 0.80475 0.29602 0.73124 0.0
O25 O 0.77435 0.19231 0.69479 0.0
O26 O 0.93427 0.33829 0.71121 0.0
O27 O -0.05119 0.30332 0.60536 0.0
C28 C -0.03347 0.35061 0.6524 0.0
C29 C 0.91327 0.10567 0.59164 0.0
O30 O 0.04505 0.20431 0.69421 0.0
O31 O 0.94207 0.19346 0.75367 0.0
O32 O 0.09964 0.17917 0.53624 0.0
O33 O 0.08441 0.28537 0.53144 0.0
O34 O -0.04612 0.11355 0.53711 0.0
O35 O 0.93102 0.15065 0.64064 0.0
O36 O 0.83459 0.21839 0.55381 0.0
O37 O 0.93461 0.21882 0.48894 0.0
C38 C 0.00919 0.1894 0.75263 0.0
C39 C 0.86737 0.21264 0.49151 0.0
Dy40 Dy 0.71145 0.92426 0.13582 0.0
C41 C 0.66711 0.14873 0.97326 0.0
C42 C 0.70229 0.8265 0.23304 0.0
Dy43 Dy 0.71668 0.06033 1.06151 0.0
O44 O 0.66832 0.87979 0.23473 0.0
O45 O 0.74237 0.82658 0.17786 0.0
O46 O 0.61383 0.89117 1.07801 0.0
O47 O 0.63814 -0.00459 0.11202 0.0
C48 C 0.59547 0.95317 1.07848 0.0
C49 C 0.83266 0.0385 0.11533 0.0
O50 O 0.70862 0.10148 0.17808 0.0
O51 O 0.74476 0.00406 0.22529 0.0
O52 O 0.71467 0.166 1.02081 0.0
O53 O 0.64812 0.08286 0.97346 0.0
O54 O 0.82116 0.10091 1.1003 0.0
O55 O 0.78786 -0.00603 1.08905 0.0
O56 O 0.75881 0.88442 1.03367 0.0
O57 O 0.74838 -0.01765 0.97033 0.0
C58 C 0.73337 0.0703 0.23247 0.0
C59 C 0.76519 0.91709 0.97311 0.0
Dy60 Dy 0.92354 0.74361 0.55749 0.0
C61 C 0.1644 0.72996 0.71404 0.0
C62 C 0.80724 0.73025 0.47879 0.0
Dy63 Dy 0.05216 0.76451 0.64788 0.0
O64 O 0.85346 0.68816 0.47502 0.0
O65 O 0.82412 0.77993 0.5272 0.0
O66 O -0.04771 0.6395 0.5224 0.0
O67 O -0.02541 0.67894 0.62668 0.0
C68 C -0.01823 0.62973 0.58164 0.0
C69 C -0.00422 0.87732 0.6264 0.0
O70 O 0.09663 0.76649 0.53449 0.0
O71 O -0.00146 0.78453 0.47475 0.0
O72 O 0.15752 0.79035 0.69028 0.0
O73 O 0.10927 0.68878 0.70143 0.0
O74 O 0.03184 0.87223 0.68382 0.0
O75 O -2e-05 0.82697 0.58244 0.0
O76 O 0.87895 0.77429 0.66605 0.0
O77 O -0.02472 0.77576 0.73753 0.0
C78 C 0.06527 0.78149 0.47523 0.0
C79 C 0.90968 0.78447 0.72988 0.0
C80 C 0.90049 0.94879 0.15167 0.0
C81 C 0.893 0.01956 0.14874 0.0
C82 C -0.0355 0.92731 0.15788 0.0
C83 C 0.02122 -0.02339 0.16117 0.0
H84 H 0.85816 0.90957 0.14113 0.0
H85 H -0.0302 0.87243 0.15066 0.0
S86 S 0.02293 0.16668 0.19198 0.0
N87 N 0.94273 0.13804 0.17553 0.0
N88 N 0.06439 0.09723 0.18839 0.0
C89 C 0.01254 0.04686 0.1745 0.0
C90 C 0.9474 0.06878 0.16762 0.0
C91 C 0.9252 0.96246 0.68259 0.0
C92 C 0.94334 0.92333 0.62146 0.0
C93 C 0.88791 0.01833 0.67516 0.0
C94 C 0.87702 0.03913 0.60606 0.0
H95 H 0.94435 0.95367 0.73503 0.0
H96 H 0.88296 0.05355 0.72161 0.0
S97 S 0.88048 0.93418 0.43623 0.0
N98 N 0.92152 0.89323 0.49422 0.0
N99 N 0.85297 0.00052 0.48263 0.0
C100 C 0.87536 -0.01049 0.54909 0.0
C101 C 0.91263 0.93232 0.55546 0.0
C102 C 0.51207 0.03727 1.06189 0.0
C103 C 0.52566 -0.0318 1.06641 0.0
C104 C 0.44558 0.05467 1.0611 0.0
C105 C 0.39066 0.00391 1.06828 0.0
H106 H 0.55294 0.07873 1.06228 0.0
H107 H 0.43753 0.10878 1.05949 0.0
S108 S 0.39937 0.81544 1.08298 0.0
N109 N 0.47897 0.84828 1.07479 0.0
N110 N 0.35413 0.88169 1.08065 0.0
C111 C 0.40352 0.9344 1.07176 0.0
C112 C 0.4711 0.91634 1.06914 0.0
C113 C -0.00492 0.47515 0.68866 0.0
C114 C -0.00941 0.42139 0.63451 0.0
C115 C -0.00138 0.54433 0.67145 0.0
C116 C -0.00213 0.56121 0.59968 0.0
H117 H -0.00935 0.46361 0.74443 0.0
H118 H -0.00351 0.58404 0.7144 0.0
S119 S 0.00118 0.44082 0.43877 0.0
N120 N -0.00382 0.39046 0.50668 0.0
N121 N 0.00433 0.52069 0.47472 0.0
C122 C 0.0016 0.50867 0.54549 0.0
C123 C -0.00237 0.43841 0.56284 0.0
C124 C 0.2218 0.19583 0.45015 0.0
C125 C 0.17423 0.24418 0.45638 0.0
C126 C 0.24991 0.17888 0.38381 0.0
C127 C 0.22935 0.20831 0.3217 0.0
H128 H 0.23216 0.16601 0.49511 0.0
H129 H 0.28147 0.13662 0.38021 0.0
S130 S 0.11992 0.35022 0.31349 0.0
N131 N 0.11933 0.3322 0.39852 0.0
N132 N 0.17015 0.29785 0.27277 0.0
C133 C 0.18946 0.26353 0.32903 0.0
C134 C 0.16219 0.28212 0.39703 0.0
C135 C 0.71252 0.28357 0.84743 0.0
C136 C 0.70136 0.24278 0.78305 0.0
C137 C 0.69034 0.25717 0.91208 0.0
C138 C 0.65566 0.19044 0.91276 0.0
H139 H 0.74733 0.33052 0.84951 0.0
H140 H 0.70867 0.28474 0.96152 0.0
S141 S 0.58702 0.08034 0.75549 0.0
N142 N 0.63451 0.14514 0.72143 0.0
N143 N 0.59028 0.0964 0.84316 0.0
C144 C 0.6304 0.15767 0.84783 0.0
C145 C 0.65405 0.18393 0.7822 0.0
C146 C 0.71785 0.78959 0.4248 0.0
C147 C 0.75972 0.7358 0.42019 0.0
C148 C 0.69212 0.81378 0.3629 0.0
C149 C 0.70885 0.78556 0.295 0.0
H150 H 0.71018 0.81739 0.47565 0.0
H151 H 0.66498 0.85931 0.36824 0.0
S152 S 0.80125 0.63217 0.25581 0.0
N153 N 0.80409 0.64499 0.34382 0.0
N154 N 0.75776 0.69289 0.22706 0.0
C155 C 0.74301 0.72615 0.29025 0.0
C156 C 0.7679 0.7004 0.35333 0.0
C157 C 0.26537 0.77442 0.78398 0.0
C158 C 0.21134 0.72218 0.77252 0.0
C159 C 0.28161 0.80152 0.85333 0.0
C160 C 0.24388 0.77649 0.91161 0.0
H161 H 0.28703 0.80213 0.73949 0.0
H162 H 0.31624 0.84849 0.8598 0.0
S163 S 0.12299 0.61786 0.91003 0.0
N164 N 0.13995 0.62901 0.82488 0.0
N165 N 0.16944 0.68114 0.95582 0.0
C166 C 0.20235 0.71369 0.90163 0.0
C167 C 0.18662 0.68553 0.83107 0.0
C168 C 0.78055 0.88461 0.83936 0.0
C169 C 0.80158 0.8829 0.91112 0.0
C170 C 0.81392 0.85072 0.78204 0.0
C171 C 0.87132 0.81477 0.79303 0.0
H172 H 0.73737 0.91168 0.82733 0.0
H173 H 0.79537 0.85433 0.72821 0.0
S174 S -0.04982 0.79902 0.97046 0.0
N175 N 0.88533 0.84359 0.98919 0.0
N176 N -0.05149 0.78277 0.88283 0.0
C177 C 0.89349 0.81404 0.86458 0.0
C178 C 0.85868 0.84716 0.9229 0.0
C179 C 0.16233 0.81722 0.30102 0.0
C180 C 0.16817 0.89042 0.30077 0.0
C181 C 0.13159 0.78152 0.35852 0.0
C182 C 0.10553 0.81752 0.41822 0.0
H183 H 0.17948 0.78695 0.25535 0.0
H184 H 0.1263 0.72542 0.35513 0.0
S185 S 0.10946 0.00828 0.4472 0.0
N186 N 0.14659 -0.00316 0.36904 0.0
N187 N 0.08909 0.92987 0.47478 0.0
C188 C 0.1126 0.89023 0.41973 0.0
C189 C 0.14388 0.92659 0.36188 0.0
C190 C 0.10584 0.12919 0.80272 0.0
C191 C 0.04437 0.15942 0.81415 0.0
C192 C 0.13873 0.09815 0.85786 0.0
C193 C 0.11307 0.09728 0.9281 0.0
H194 H 0.12852 0.12834 0.75008 0.0
H195 H 0.18531 0.07555 0.84551 0.0
S196 S -0.04697 0.16615 0.98752 0.0
N197 N -0.04161 0.18309 0.90223 0.0
N198 N 0.02095 0.12774 1.00521 0.0
C199 C 0.05184 0.12714 0.94044 0.0
C200 C 0.01744 0.15722 0.88395 0.0
C201 C 0.8289 0.09775 0.32036 0.0
C202 C 0.76436 0.11167 0.29749 0.0
C203 C 0.8615 0.13291 0.38069 0.0
C204 C 0.83051 0.18228 0.42425 0.0
H205 H 0.85511 0.05889 0.2912 0.0
H206 H 0.91108 0.11907 0.39459 0.0
S207 S 0.66073 0.23792 0.39002 0.0
N208 N 0.6707 0.18021 0.32316 0.0
N209 N 0.73009 0.24307 0.43984 0.0
C210 C 0.7654 0.19658 0.40293 0.0
C211 C 0.73298 0.16232 0.33899 0.0
loop_
_geom_bond_atom_site_label_1
_geom_bond_atom_site_label_2
_geom_bond_distance
_geom_bond_site_symmetry_2
_ccdc_geom_bond_type
Dy0 O4 2.398 . S
Dy0 O5 2.491 . S
Dy0 O6 2.403 . S
Dy0 O7 2.664 1_554 S
Dy0 O11 2.326 . S
Dy0 O15 2.310 . S
Dy0 O16 2.351 1_554 S
C1 O12 1.185 . S
C1 O13 1.355 . S
C2 O4 1.185 . S
C2 O5 1.355 . S
Dy3 O7 2.310 1_565 S
Dy3 O10 2.351 1_556 S
Dy3 O12 2.398 . S
Dy3 O13 2.491 . S
Dy3 O14 2.403 . S
Dy3 O15 2.664 1_566 S
Dy3 O17 2.326 1_565 S
O4 Dy0 2.398 . S
O4 C2 1.185 . S
O5 Dy0 2.491 . S
O5 C2 1.355 . S
O6 Dy0 2.403 . S
O6 C8 1.254 . S
O7 Dy0 2.664 1_556 S
O7 Dy3 2.310 1_545 S
O7 C8 1.268 1_556 S
C8 O6 1.254 . S
C8 O7 1.268 1_554 S
C9 O14 1.254 1_544 S
C9 O15 1.268 . S
O10 Dy3 2.351 1_554 S
O10 C18 1.249 . S
O11 Dy0 2.326 . S
O11 C18 1.267 1_545 S
O12 C1 1.185 . S
O12 Dy3 2.398 . S
O13 C1 1.355 . S
O13 Dy3 2.491 . S
O14 Dy3 2.403 . S
O14 C9 1.254 1_566 S
O15 Dy0 2.310 . S
O15 Dy3 2.664 1_544 S
O15 C9 1.268 . S
O16 Dy0 2.351 1_556 S
O16 C19 1.249 . S
O17 Dy3 2.326 1_545 S
O17 C19 1.267 . S
C18 O10 1.249 . S
C18 O11 1.267 1_565 S
C19 O16 1.249 . S
C19 O17 1.267 . S
Dy20 O24 2.398 . S
Dy20 O25 2.491 . S
Dy20 O26 2.403 . S
Dy20 O27 2.664 1_655 S
Dy20 O31 2.326 1_655 S
Dy20 O35 2.310 1_655 S
Dy20 O36 2.351 . S
C21 O32 1.185 . S
C21 O33 1.355 . S
C22 O24 1.185 . S
C22 O25 1.355 . S
Dy23 O27 2.310 . S
Dy23 O30 2.351 . S
Dy23 O32 2.398 . S
Dy23 O33 2.491 . S
Dy23 O34 2.403 . S
Dy23 O35 2.664 . S
Dy23 O37 2.326 . S
O24 Dy20 2.398 . S
O24 C22 1.185 . S
O25 Dy20 2.491 . S
O25 C22 1.355 . S
O26 Dy20 2.403 . S
O26 C28 1.254 1_655 S
O27 Dy20 2.664 1_455 S
O27 Dy23 2.310 . S
O27 C28 1.268 . S
C28 O26 1.254 1_455 S
C28 O27 1.268 . S
C29 O34 1.254 . S
C29 O35 1.268 . S
O30 Dy23 2.351 . S
O30 C38 1.249 . S
O31 Dy20 2.326 1_455 S
O31 C38 1.267 . S
O32 C21 1.185 . S
O32 Dy23 2.398 . S
O33 C21 1.355 . S
O33 Dy23 2.491 . S
O34 Dy23 2.403 . S
O34 C29 1.254 . S
O35 Dy20 2.310 1_455 S
O35 Dy23 2.664 . S
O35 C29 1.268 . S
O36 Dy20 2.351 . S
O36 C39 1.249 . S
O37 Dy23 2.326 . S
O37 C39 1.267 1_455 S
C38 O30 1.249 . S
C38 O31 1.267 . S
C39 O36 1.249 . S
C39 O37 1.267 1_655 S
Dy40 O44 2.398 . S
Dy40 O45 2.491 . S
Dy40 O46 2.403 . S
Dy40 O47 2.664 1_564 S
Dy40 O51 2.326 1_565 S
Dy40 O55 2.310 . S
Dy40 O56 2.351 1_554 S
C41 O52 1.185 . S
C41 O53 1.355 . S
C42 O44 1.185 . S
C42 O45 1.355 . S
Dy43 O47 2.310 . S
Dy43 O50 2.351 1_556 S
Dy43 O52 2.398 . S
Dy43 O53 2.491 . S
Dy43 O54 2.403 . S
Dy43 O55 2.664 1_546 S
Dy43 O57 2.326 1_545 S
O44 Dy40 2.398 . S
O44 C42 1.185 . S
O45 Dy40 2.491 . S
O45 C42 1.355 . S
O46 Dy40 2.403 . S
O46 C48 1.254 . S
O47 Dy40 2.664 1_546 S
O47 Dy43 2.310 . S
O47 C48 1.268 1_546 S
C48 O46 1.254 . S
C48 O47 1.268 1_564 S
C49 O54 1.255 . S
C49 O55 1.267 1_546 S
O50 Dy43 2.351 1_554 S
O50 C58 1.249 . S
O51 Dy40 2.326 1_545 S
O51 C58 1.267 . S
O52 C41 1.185 . S
O52 Dy43 2.398 . S
O53 C41 1.355 . S
O53 Dy43 2.491 . S
O54 Dy43 2.403 . S
O54 C49 1.255 . S
O55 Dy40 2.310 . S
O55 Dy43 2.664 1_564 S
O55 C49 1.267 1_564 S
O56 Dy40 2.351 1_556 S
O56 C59 1.249 . S
O57 Dy43 2.326 1_565 S
O57 C59 1.267 . S
C58 O50 1.249 . S
C58 O51 1.267 . S
C59 O56 1.249 . S
C59 O57 1.267 . S
Dy60 O64 2.398 . S
Dy60 O65 2.491 . S
Dy60 O66 2.403 . S
Dy60 O67 2.664 1_655 S
Dy60 O71 2.326 1_655 S
Dy60 O75 2.310 . S
Dy60 O76 2.351 . S
C61 O72 1.185 . S
C61 O73 1.355 . S
C62 O64 1.185 . S
C62 O65 1.355 . S
Dy63 O67 2.310 . S
Dy63 O70 2.351 . S
Dy63 O72 2.398 . S
Dy63 O73 2.491 . S
Dy63 O74 2.403 . S
Dy63 O75 2.664 1_455 S
Dy63 O77 2.326 1_455 S
O64 Dy60 2.398 . S
O64 C62 1.185 . S
O65 Dy60 2.491 . S
O65 C62 1.355 . S
O66 Dy60 2.403 . S
O66 C68 1.254 . S
O67 Dy60 2.664 1_455 S
O67 Dy63 2.310 . S
O67 C68 1.268 1_455 S
C68 O66 1.254 . S
C68 O67 1.268 1_655 S
C69 O74 1.254 . S
C69 O75 1.268 1_455 S
O70 Dy63 2.351 . S
O70 C78 1.249 . S
O71 Dy60 2.326 1_455 S
O71 C78 1.267 . S
O72 C61 1.185 . S
O72 Dy63 2.398 . S
O73 C61 1.355 . S
O73 Dy63 2.491 . S
O74 Dy63 2.403 . S
O74 C69 1.254 . S
O75 Dy60 2.310 . S
O75 Dy63 2.664 1_655 S
O75 C69 1.268 1_655 S
O76 Dy60 2.351 . S
O76 C79 1.249 . S
O77 Dy63 2.326 1_655 S
O77 C79 1.267 . S
C78 O70 1.249 . S
C78 O71 1.267 . S
C79 O76 1.249 . S
C79 O77 1.267 . S
C80 C81 1.369 . S
C80 C82 1.419 1_655 S
C80 H84 0.930 . S
C81 C80 1.369 . S
C81 C90 1.430 1_565 S
C82 C80 1.419 1_455 S
C82 C83 1.363 1_565 S
C82 H85 0.929 . S
C83 C82 1.363 1_545 S
C83 C89 1.428 . S
H84 C80 0.930 . S
H85 C82 0.929 . S
S86 N87 1.613 . S
S86 N88 1.610 1_655 S
N87 S86 1.613 . S
N87 C90 1.348 1_556 S
N88 S86 1.610 1_455 S
N88 C89 1.351 1_556 S
C89 C83 1.428 . S
C89 N88 1.351 1_554 S
C89 C90 1.434 1_455 S
C90 C81 1.430 1_545 S
C90 N87 1.348 1_554 S
C90 C89 1.434 1_655 S
C91 C92 1.369 . S
C91 C93 1.419 1_565 S
C91 H95 0.930 . S
C92 C91 1.369 . S
C92 C101 1.429 1_455 S
C93 C91 1.419 1_545 S
C93 C94 1.363 . S
C93 H96 0.929 . S
C94 C93 1.363 . S
C94 C100 1.428 1_455 S
H95 C91 0.930 . S
H96 C93 0.929 . S
S97 N98 1.613 1_545 S
S97 N99 1.610 . S
N98 S97 1.613 1_565 S
N98 C101 1.350 . S
N99 S97 1.610 . S
N99 C100 1.351 . S
C100 C94 1.428 1_655 S
C100 N99 1.351 . S
C100 C101 1.434 1_545 S
C101 C92 1.429 1_655 S
C101 N98 1.350 . S
C101 C100 1.434 1_565 S
C102 C103 1.384 . S
C102 C104 1.419 . S
C102 H106 0.930 . S
C103 C102 1.384 . S
C103 C112 1.419 1_546 S
C104 C102 1.419 . S
C104 C105 1.363 . S
C104 H107 0.929 . S
C105 C104 1.363 . S
C105 C111 1.428 1_546 S
H106 C102 0.930 . S
H107 C104 0.929 . S
S108 N109 1.613 . S
S108 N110 1.610 . S
N109 S108 1.613 . S
N109 C112 1.350 . S
N110 S108 1.610 . S
N110 C111 1.351 . S
C111 C105 1.428 1_564 S
C111 N110 1.351 . S
C111 C112 1.434 . S
C112 C103 1.419 1_564 S
C112 N109 1.350 . S
C112 C111 1.434 . S
C113 C114 1.369 . S
C113 C115 1.419 . S
C113 H117 0.930 . S
C114 C113 1.369 . S
C114 C123 1.429 1_455 S
C115 C113 1.419 . S
C115 C116 1.363 . S
C115 H118 0.929 . S
C116 C115 1.363 . S
C116 C122 1.428 1_455 S
H117 C113 0.930 . S
H118 C115 0.929 . S
S119 N120 1.613 . S
S119 N121 1.610 . S
N120 S119 1.613 . S
N120 C123 1.350 . S
N121 S119 1.610 . S
N121 C122 1.351 . S
C122 C116 1.428 1_655 S
C122 N121 1.351 . S
C122 C123 1.434 . S
C123 C114 1.429 1_655 S
C123 N120 1.350 . S
C123 C122 1.434 . S
C124 C125 1.369 . S
C124 C126 1.419 . S
C124 H128 0.930 . S
C125 C124 1.369 . S
C125 C134 1.429 . S
C126 C124 1.419 . S
C126 C127 1.363 . S
C126 H129 0.929 . S
C127 C126 1.363 . S
C127 C133 1.428 . S
H128 C124 0.930 . S
H129 C126 0.929 . S
S130 N131 1.613 . S
S130 N132 1.610 . S
N131 S130 1.613 . S
N131 C134 1.350 . S
N132 S130 1.610 . S
N132 C133 1.351 . S
C133 C127 1.428 . S
C133 N132 1.351 . S
C133 C134 1.434 . S
C134 C125 1.429 . S
C134 N131 1.350 . S
C134 C133 1.434 . S
C135 C136 1.369 . S
C135 C137 1.419 . S
C135 H139 0.930 . S
C136 C135 1.369 . S
C136 C145 1.429 . S
C137 C135 1.419 . S
C137 C138 1.363 . S
C137 H140 0.929 . S
C138 C137 1.363 . S
C138 C144 1.428 . S
H139 C135 0.930 . S
H140 C137 0.929 . S
S141 N142 1.613 . S
S141 N143 1.610 . S
N142 S141 1.613 . S
N142 C145 1.350 . S
N143 S141 1.610 . S
N143 C144 1.351 . S
C144 C138 1.428 . S
C144 N143 1.351 . S
C144 C145 1.434 . S
C145 C136 1.429 . S
C145 N142 1.350 . S
C145 C144 1.434 . S
C146 C147 1.369 . S
C146 C148 1.419 . S
C146 H150 0.930 . S
C147 C146 1.369 . S
C147 C156 1.429 . S
C148 C146 1.419 . S
C148 C149 1.363 . S
C148 H151 0.929 . S
C149 C148 1.363 . S
C149 C155 1.428 . S
H150 C146 0.930 . S
H151 C148 0.929 . S
S152 N153 1.613 . S
S152 N154 1.610 . S
N153 S152 1.613 . S
N153 C156 1.350 . S
N154 S152 1.610 . S
N154 C155 1.351 . S
C155 C149 1.428 . S
C155 N154 1.351 . S
C155 C156 1.434 . S
C156 C147 1.429 . S
C156 N153 1.350 . S
C156 C155 1.434 . S
C157 C158 1.369 . S
C157 C159 1.419 . S
C157 H161 0.930 . S
C158 C157 1.369 . S
C158 C167 1.429 . S
C159 C157 1.419 . S
C159 C160 1.363 . S
C159 H162 0.929 . S
C160 C159 1.363 . S
C160 C166 1.428 . S
H161 C157 0.930 . S
H162 C159 0.929 . S
S163 N164 1.613 . S
S163 N165 1.610 . S
N164 S163 1.613 . S
N164 C167 1.350 . S
N165 S163 1.610 . S
N165 C166 1.351 . S
C166 C160 1.428 . S
C166 N165 1.351 . S
C166 C167 1.434 . S
C167 C158 1.429 . S
C167 N164 1.350 . S
C167 C166 1.434 . S
C168 C169 1.369 . S
C168 C170 1.419 . S
C168 H172 0.930 . S
C169 C168 1.369 . S
C169 C178 1.429 . S
C170 C168 1.419 . S
C170 C171 1.363 . S
C170 H173 0.929 . S
C171 C170 1.363 . S
C171 C177 1.428 . S
H172 C168 0.930 . S
H173 C170 0.929 . S
S174 N175 1.613 1_455 S
S174 N176 1.610 1_455 S
N175 S174 1.613 1_655 S
N175 C178 1.350 . S
N176 S174 1.610 1_655 S
N176 C177 1.351 . S
C177 C171 1.428 . S
C177 N176 1.351 . S
C177 C178 1.434 . S
C178 C169 1.429 . S
C178 N175 1.350 . S
C178 C177 1.434 . S
C179 C180 1.369 . S
C179 C181 1.419 . S
C179 H183 0.930 . S
C180 C179 1.369 . S
C180 C189 1.429 . S
C181 C179 1.419 . S
C181 C182 1.363 . S
C181 H184 0.929 . S
C182 C181 1.363 . S
C182 C188 1.428 . S
H183 C179 0.930 . S
H184 C181 0.929 . S
S185 N186 1.613 . S
S185 N187 1.610 1_545 S
N186 S185 1.613 . S
N186 C189 1.350 1_545 S
N187 S185 1.610 1_565 S
N187 C188 1.351 . S
C188 C182 1.428 . S
C188 N187 1.351 . S
C188 C189 1.434 . S
C189 C180 1.429 . S
C189 N186 1.350 1_565 S
C189 C188 1.434 . S
C190 C191 1.369 . S
C190 C192 1.419 . S
C190 H194 0.930 . S
C191 C190 1.369 . S
C191 C200 1.429 . S
C192 C190 1.419 . S
C192 C193 1.363 . S
C192 H195 0.929 . S
C193 C192 1.363 . S
C193 C199 1.428 . S
H194 C190 0.930 . S
H195 C192 0.929 . S
S196 N197 1.610 1_655 S
S196 N198 1.599 1_655 S
N197 S196 1.610 1_455 S
N197 C200 1.350 . S
N198 S196 1.599 1_455 S
N198 C199 1.351 . S
C199 C193 1.428 . S
C199 N198 1.351 . S
C199 C200 1.434 . S
C200 C191 1.429 . S
C200 N197 1.350 . S
C200 C199 1.434 . S
C201 C202 1.369 . S
C201 C203 1.419 . S
C201 H205 0.930 . S
C202 C201 1.369 . S
C202 C211 1.429 . S
C203 C201 1.419 . S
C203 C204 1.363 . S
C203 H206 0.929 . S
C204 C203 1.363 . S
C204 C210 1.428 . S
H205 C201 0.930 . S
H206 C203 0.929 . S
S207 N208 1.613 1_565 S
S207 N209 1.610 1_565 S
N208 S207 1.613 1_545 S
N208 C211 1.350 . S
N209 S207 1.610 1_545 S
N209 C210 1.351 . S
C210 C204 1.428 . S
C210 N209 1.351 . S
C210 C211 1.434 . S
C211 C202 1.429 . S
C211 N208 1.350 . S
C211 C210 1.434 . S
C81 C49 0.556 1_564 S
C83 C9 0.583 . S
C92 C69 0.492 . S
C94 C29 0.382 . S
C103 C48 1.140 1_546 S
C105 C8 1.150 1_556 S
C114 C28 1.070 . S
C116 C68 1.080 1_455 S
C125 C21 0.811 . S
C127 C2 0.811 . S
C136 C22 0.871 . S
C138 C41 0.872 . S
C147 C62 0.859 . S
C149 C42 0.850 . S
C158 C61 0.838 . S
C160 C1 0.822 . S
C169 C59 2.361 . S
C171 C79 2.384 . S
C180 C18 2.512 . S
C182 C78 2.506 . S
C191 C38 2.545 . S
C193 C19 2.446 . S
C202 C58 2.428 . S
C204 C39 2.345 . S
