# Generated by pormake.
# Topology vme, (6)-cn, num edge types: 1
# Building blocks:
#     Node 0, Type 0, BuildingBlock: IZENUY_clean_sbu_0, # of connection points: 6
#     Node 1, Type 0, BuildingBlock: IZENUY_clean_sbu_0, # of connection points: 6
#     Node 2, Type 0, BuildingBlock: IZENUY_clean_sbu_0, # of connection points: 6
#     Node 3, Type 0, BuildingBlock: IZENUY_clean_sbu_0, # of connection points: 6
#     Edge 4, Type (0, 0), BuildingBlock: EYOCIG_clean_linker_4, # of connection points: 2
#     Edge 5, Type (0, 0), BuildingBlock: EYOCIG_clean_linker_4, # of connection points: 2
#     Edge 6, Type (0, 0), BuildingBlock: EYOCIG_clean_linker_4, # of connection points: 2
#     Edge 7, Type (0, 0), BuildingBlock: EYOCIG_clean_linker_4, # of connection points: 2
#     Edge 8, Type (0, 0), BuildingBlock: EYOCIG_clean_linker_4, # of connection points: 2
#     Edge 9, Type (0, 0), BuildingBlock: EYOCIG_clean_linker_4, # of connection points: 2
#     Edge 10, Type (0, 0), BuildingBlock: EYOCIG_clean_linker_4, # of connection points: 2
#     Edge 11, Type (0, 0), BuildingBlock: EYOCIG_clean_linker_4, # of connection points: 2
#     Edge 12, Type (0, 0), BuildingBlock: EYOCIG_clean_linker_4, # of connection points: 2
#     Edge 13, Type (0, 0), BuildingBlock: EYOCIG_clean_linker_4, # of connection points: 2
#     Edge 14, Type (0, 0), BuildingBlock: EYOCIG_clean_linker_4, # of connection points: 2
#     Edge 15, Type (0, 0), BuildingBlock: EYOCIG_clean_linker_4, # of connection points: 2
# Relax obj value: 0.239
# Max RMSD: 0.244
# Mean RMSD: 0.244
data_MOF--net-vme--node1-IZENUY_clean_sbu_0--edge1-EYOCIG_clean_linker_4
_symmetry_space_group_name_H-M    P1
_symmetry_Int_Tables_number       1
_symmetry_cell_setting            triclinic
loop_
_symmetry_equiv_pos_as_xyz
'x, y, z'
_cell_length_a     20.571352
_cell_length_b     20.277711
_cell_length_c     22.241155
_cell_angle_alpha  89.999596
_cell_angle_beta   117.30071
_cell_angle_gamma 89.99917
loop_
_atom_site_label
_atom_site_type_symbol
_atom_site_fract_x
_atom_site_fract_y
_atom_site_fract_z
_atom_type_partial_charge
Fe0 Fe 0.12839 0.39697 0.3341 0.0
Fe1 Fe 0.27213 0.3237 0.41947 0.0
O2 O 0.2133 0.39137 0.40752 0.0
Fe3 Fe 0.239 0.45322 0.47016 0.0
O4 O 0.16235 0.43459 0.48439 0.0
O5 O 0.08058 0.43872 0.37746 0.0
O6 O 0.09748 0.32044 0.35277 0.0
C7 C 0.12921 0.26637 0.35809 0.0
C8 C 0.16254 0.52504 0.34611 0.0
O9 O 0.19676 0.26392 0.37305 0.0
C10 C 0.36823 0.43465 0.46951 0.0
O11 O 0.16165 0.35568 0.27872 0.0
O12 O 0.28007 0.34367 0.3442 0.0
O13 O 0.1885 0.52044 0.40993 0.0
O14 O 0.1541 0.4743 0.31101 0.0
C15 C 0.28051 0.33563 0.54446 0.0
O16 O 0.35763 0.37252 0.46774 0.0
O17 O 0.3177 0.47465 0.45943 0.0
C18 C 0.22596 0.34484 0.2864 0.0
O19 O 0.26588 0.29913 0.49441 0.0
O20 O 0.29147 0.39687 0.54176 0.0
C21 C 0.09764 0.44184 0.44009 0.0
Fe22 Fe 0.77981 0.82371 0.13155 0.0
Fe23 Fe 0.81294 0.95323 0.08087 0.0
O24 O 0.83864 0.89138 0.1435 0.0
Fe25 Fe 0.92355 0.89698 0.21693 0.0
O26 O 0.95447 0.82045 0.19826 0.0
O27 O 0.85519 0.76393 0.17798 0.0
O28 O 0.78607 0.79914 0.05661 0.0
C29 C 0.77143 0.83564 1.00657 0.0
C30 C 0.82598 0.84485 0.26463 0.0
O31 O 0.76047 0.89688 1.00926 0.0
C32 C 0.8894 0.02504 0.20492 0.0
O33 O 0.69431 0.87252 0.08329 0.0
O34 O 0.73424 0.97466 0.09159 0.0
O35 O 0.89029 0.85569 0.2723 0.0
O36 O 0.77187 0.84368 0.20682 0.0
C37 C 0.9543 0.94185 0.11094 0.0
O38 O 0.86344 0.02045 0.1411 0.0
O39 O 0.89784 0.9743 0.24001 0.0
C40 C 0.68371 0.93466 0.08151 0.0
O41 O 0.88959 0.93459 0.06663 0.0
O42 O 0.97136 0.93872 0.17357 0.0
C43 C 0.92273 0.76638 0.19294 0.0
Fe44 Fe 0.81292 0.5805 0.58086 0.0
Fe45 Fe 0.92355 0.63675 0.71691 0.0
O46 O 0.83863 0.64234 0.64349 0.0
Fe47 Fe 0.77979 0.71001 0.63155 0.0
O48 O 0.78604 0.73458 0.5566 0.0
O49 O 0.76045 0.63684 0.50925 0.0
O50 O 0.88957 0.59913 0.56661 0.0
C51 C 0.95428 0.59188 0.61091 0.0
C52 C 0.68371 0.59906 0.58152 0.0
O53 O 0.97135 0.59501 0.67355 0.0
C54 C 0.82599 0.68887 0.76463 0.0
O55 O 0.86344 0.51328 0.64109 0.0
O56 O 0.89785 0.55942 0.74 0.0
O57 O 0.6943 0.66119 0.58329 0.0
O58 O 0.73423 0.55906 0.59159 0.0
C59 C 0.92271 0.76735 0.69292 0.0
O60 O 0.89029 0.67804 0.77229 0.0
O61 O 0.77187 0.69003 0.70682 0.0
C62 C 0.8894 0.50868 0.70491 0.0
O63 O 0.95445 0.71328 0.69823 0.0
O64 O 0.85517 0.76979 0.67797 0.0
C65 C 0.7714 0.69808 0.50656 0.0
Fe66 Fe 0.27213 0.21 0.91947 0.0
Fe67 Fe 0.239 0.08049 0.97016 0.0
O68 O 0.21329 0.14234 0.90752 0.0
Fe69 Fe 0.12838 0.13674 0.8341 0.0
O70 O 0.09748 0.21328 0.85278 0.0
O71 O 0.19676 0.26979 0.87305 0.0
O72 O 0.26588 0.23458 0.99441 0.0
C73 C 0.28052 0.19807 0.04446 0.0
C74 C 0.22594 0.18887 0.78639 0.0
O75 O 0.29148 0.13683 0.04176 0.0
C76 C 0.16252 1.00868 0.84611 0.0
O77 O 0.35763 0.16118 0.96773 0.0
O78 O 0.31769 0.05905 0.95942 0.0
O79 O 0.16163 0.17803 0.77872 0.0
O80 O 0.28005 0.19003 0.8442 0.0
C81 C 0.09764 0.09188 0.9401 0.0
O82 O 0.18849 1.01327 0.90993 0.0
O83 O 0.15408 0.05942 0.81101 0.0
C84 C 0.36822 0.09905 0.9695 0.0
O85 O 0.16235 0.09913 0.9844 0.0
O86 O 0.08057 0.095 0.87747 0.0
C87 C 0.12921 0.26734 0.85809 0.0
C88 C 0.97888 0.12262 0.27094 0.0
C89 C 0.93715 0.0794 0.23854 0.0
C90 C 0.03563 0.16837 0.30655 0.0
C91 C 0.08278 0.20977 0.33118 0.0
C92 C 0.07307 0.62262 0.28008 0.0
C93 C 0.11479 0.5794 0.31248 0.0
C94 C 1.01631 0.66838 0.24447 0.0
C95 C 0.96917 0.70977 0.21984 0.0
C96 C 0.07304 0.9111 0.78008 0.0
C97 C 0.11477 0.95432 0.81248 0.0
C98 C 1.01629 0.86535 0.74447 0.0
C99 C 0.96914 0.82396 0.71983 0.0
C100 C 0.97888 0.4111 0.77093 0.0
C101 C 0.93715 0.45432 0.73853 0.0
C102 C 0.03563 0.36535 0.80655 0.0
C103 C 0.08278 0.32395 0.83118 0.0
C104 C 1.0197 0.53335 0.55023 0.0
C105 C 1.00026 0.55997 0.58759 0.0
C106 C 0.03222 0.50038 0.50076 0.0
C107 C 0.05166 0.47376 0.4634 0.0
C108 C 1.01971 1.00038 0.05026 0.0
C109 C 1.00028 0.97377 0.08762 0.0
C110 C 0.03223 0.03335 1.00079 0.0
C111 C 0.05167 0.05997 0.96342 0.0
C112 C 0.26761 0.25614 0.14457 0.0
C113 C 0.27487 0.22587 0.10129 0.0
C114 C 0.25112 0.29126 0.19084 0.0
C115 C 0.23609 0.31615 0.23221 0.0
C116 C 0.80082 0.79127 0.36018 0.0
C117 C 0.81584 0.81616 0.31882 0.0
C118 C 0.78432 0.75614 0.40645 0.0
C119 C 0.77706 0.72588 0.44973 0.0
C120 C 0.78434 0.77758 0.90646 0.0
C121 C 0.77709 0.80784 0.94974 0.0
C122 C 0.80083 0.74245 0.86018 0.0
C123 C 0.81585 0.71756 0.81882 0.0
C124 C 0.2511 0.24245 0.69083 0.0
C125 C 0.23608 0.21756 0.7322 0.0
C126 C 0.2676 0.27757 0.64456 0.0
C127 C 0.27485 0.30784 0.60129 0.0
C128 C 0.4953 0.49543 0.51374 0.0
C129 C 0.44055 0.46211 0.49415 0.0
C130 C 0.55664 0.53827 0.5373 0.0
C131 C 0.61139 0.57159 0.55688 0.0
C132 C 0.49529 0.03827 1.01372 0.0
C133 C 0.44054 0.07158 0.99414 0.0
C134 C 0.55664 0.99543 0.03729 0.0
C135 C 0.61139 0.96212 0.05687 0.0
loop_
_geom_bond_atom_site_label_1
_geom_bond_atom_site_label_2
_geom_bond_distance
_geom_bond_site_symmetry_2
_ccdc_geom_bond_type
Fe0 O2 1.918 . S
Fe0 O5 1.997 . S
Fe0 O6 2.002 . S
Fe0 O11 1.976 . S
Fe0 O14 1.996 . S
Fe1 O2 1.918 . S
Fe1 O9 1.997 . S
Fe1 O12 1.996 . S
Fe1 O16 1.976 . S
Fe1 O19 2.002 . S
O2 Fe0 1.918 . S
O2 Fe1 1.918 . S
O2 Fe3 1.918 . S
Fe3 O2 1.918 . S
Fe3 O4 2.002 . S
Fe3 O13 1.976 . S
Fe3 O17 1.996 . S
Fe3 O20 1.997 . S
O4 Fe3 2.002 . S
O4 C21 1.295 . S
O5 Fe0 1.997 . S
O5 C21 1.235 . S
O6 Fe0 2.002 . S
O6 C7 1.295 . S
C7 O6 1.295 . S
C7 O9 1.235 . S
C8 O13 1.287 . S
C8 O14 1.255 . S
O9 Fe1 1.997 . S
O9 C7 1.235 . S
C10 O16 1.287 . S
C10 O17 1.255 . S
O11 Fe0 1.976 . S
O11 C18 1.287 . S
O12 Fe1 1.996 . S
O12 C18 1.255 . S
O13 Fe3 1.976 . S
O13 C8 1.287 . S
O14 Fe0 1.996 . S
O14 C8 1.255 . S
C15 O19 1.295 . S
C15 O20 1.235 . S
O16 Fe1 1.976 . S
O16 C10 1.287 . S
O17 Fe3 1.996 . S
O17 C10 1.255 . S
C18 O11 1.287 . S
C18 O12 1.255 . S
O19 Fe1 2.002 . S
O19 C15 1.295 . S
O20 Fe3 1.997 . S
O20 C15 1.235 . S
C21 O4 1.295 . S
C21 O5 1.235 . S
Fe22 O24 1.918 . S
Fe22 O27 1.997 . S
Fe22 O28 2.002 . S
Fe22 O33 1.976 . S
Fe22 O36 1.996 . S
Fe23 O24 1.918 . S
Fe23 O31 1.997 1_554 S
Fe23 O34 1.996 . S
Fe23 O38 1.976 1_565 S
Fe23 O41 2.002 . S
O24 Fe22 1.918 . S
O24 Fe23 1.918 . S
O24 Fe25 1.918 . S
Fe25 O24 1.918 . S
Fe25 O26 2.002 . S
Fe25 O35 1.976 . S
Fe25 O39 1.996 . S
Fe25 O42 1.997 . S
O26 Fe25 2.002 . S
O26 C43 1.295 . S
O27 Fe22 1.997 . S
O27 C43 1.235 . S
O28 Fe22 2.002 . S
O28 C29 1.295 1_554 S
C29 O28 1.295 1_556 S
C29 O31 1.235 . S
C30 O35 1.287 . S
C30 O36 1.255 . S
O31 Fe23 1.997 1_556 S
O31 C29 1.235 . S
C32 O38 1.287 . S
C32 O39 1.255 1_545 S
O33 Fe22 1.976 . S
O33 C40 1.287 . S
O34 Fe23 1.996 . S
O34 C40 1.255 . S
O35 Fe25 1.976 . S
O35 C30 1.287 . S
O36 Fe22 1.996 . S
O36 C30 1.255 . S
C37 O41 1.295 . S
C37 O42 1.235 . S
O38 Fe23 1.976 1_545 S
O38 C32 1.287 . S
O39 Fe25 1.996 . S
O39 C32 1.255 1_565 S
C40 O33 1.287 . S
C40 O34 1.255 . S
O41 Fe23 2.002 . S
O41 C37 1.295 . S
O42 Fe25 1.997 . S
O42 C37 1.235 . S
C43 O26 1.295 . S
C43 O27 1.235 . S
Fe44 O46 1.918 . S
Fe44 O49 1.997 . S
Fe44 O50 2.002 . S
Fe44 O55 1.976 . S
Fe44 O58 1.996 . S
Fe45 O46 1.918 . S
Fe45 O53 1.997 . S
Fe45 O56 1.996 . S
Fe45 O60 1.976 . S
Fe45 O63 2.002 . S
O46 Fe44 1.918 . S
O46 Fe45 1.918 . S
O46 Fe47 1.918 . S
Fe47 O46 1.918 . S
Fe47 O48 2.002 . S
Fe47 O57 1.976 . S
Fe47 O61 1.996 . S
Fe47 O64 1.997 . S
O48 Fe47 2.002 . S
O48 C65 1.295 . S
O49 Fe44 1.997 . S
O49 C65 1.235 . S
O50 Fe44 2.002 . S
O50 C51 1.295 . S
C51 O50 1.295 . S
C51 O53 1.235 . S
C52 O57 1.287 . S
C52 O58 1.255 . S
O53 Fe45 1.997 . S
O53 C51 1.235 . S
C54 O60 1.287 . S
C54 O61 1.255 . S
O55 Fe44 1.976 . S
O55 C62 1.287 . S
O56 Fe45 1.996 . S
O56 C62 1.255 . S
O57 Fe47 1.976 . S
O57 C52 1.287 . S
O58 Fe44 1.996 . S
O58 C52 1.255 . S
C59 O63 1.295 . S
C59 O64 1.235 . S
O60 Fe45 1.976 . S
O60 C54 1.287 . S
O61 Fe47 1.996 . S
O61 C54 1.255 . S
C62 O55 1.287 . S
C62 O56 1.255 . S
O63 Fe45 2.002 . S
O63 C59 1.295 . S
O64 Fe47 1.997 . S
O64 C59 1.235 . S
C65 O48 1.295 . S
C65 O49 1.235 . S
Fe66 O68 1.918 . S
Fe66 O71 1.997 . S
Fe66 O72 2.002 . S
Fe66 O77 1.976 . S
Fe66 O80 1.996 . S
Fe67 O68 1.918 . S
Fe67 O75 1.997 1_556 S
Fe67 O78 1.996 . S
Fe67 O82 1.976 1_545 S
Fe67 O85 2.002 . S
O68 Fe66 1.918 . S
O68 Fe67 1.918 . S
O68 Fe69 1.918 . S
Fe69 O68 1.918 . S
Fe69 O70 2.002 . S
Fe69 O79 1.976 . S
Fe69 O83 1.996 . S
Fe69 O86 1.997 . S
O70 Fe69 2.002 . S
O70 C87 1.295 . S
O71 Fe66 1.997 . S
O71 C87 1.235 . S
O72 Fe66 2.002 . S
O72 C73 1.295 1_556 S
C73 O72 1.295 1_554 S
C73 O75 1.235 . S
C74 O79 1.287 . S
C74 O80 1.255 . S
O75 Fe67 1.997 1_554 S
O75 C73 1.235 . S
C76 O82 1.287 . S
C76 O83 1.255 1_565 S
O77 Fe66 1.976 . S
O77 C84 1.287 . S
O78 Fe67 1.996 . S
O78 C84 1.255 . S
O79 Fe69 1.976 . S
O79 C74 1.287 . S
O80 Fe66 1.996 . S
O80 C74 1.255 . S
C81 O85 1.295 . S
C81 O86 1.235 . S
O82 Fe67 1.976 1_565 S
O82 C76 1.287 . S
O83 Fe69 1.996 . S
O83 C76 1.255 1_545 S
C84 O77 1.287 . S
C84 O78 1.255 . S
O85 Fe67 2.002 . S
O85 C81 1.295 . S
O86 Fe69 1.997 . S
O86 C81 1.235 . S
C87 O70 1.295 . S
C87 O71 1.235 . S
C88 C89 1.170 . S
C88 C90 1.380 . S
C89 C88 1.170 . S
C90 C88 1.380 . S
C90 C91 1.170 1_655 S
C91 C90 1.170 1_455 S
C92 C93 1.170 . S
C92 C94 1.380 1_455 S
C93 C92 1.170 . S
C94 C92 1.380 1_655 S
C94 C95 1.170 . S
C95 C94 1.170 . S
C96 C97 1.170 . S
C96 C98 1.380 . S
C97 C96 1.170 . S
C98 C96 1.380 . S
C98 C99 1.170 1_455 S
C99 C98 1.170 1_655 S
C100 C101 1.170 . S
C100 C102 1.389 . S
C101 C100 1.170 . S
C102 C100 1.389 . S
C102 C103 1.162 1_655 S
C103 C102 1.162 1_455 S
C104 C105 1.170 . S
C104 C106 1.380 1_655 S
C105 C104 1.170 . S
C106 C104 1.380 1_455 S
C106 C107 1.170 . S
C107 C106 1.170 . S
C108 C109 1.170 . S
C108 C110 1.380 1_664 S
C109 C108 1.170 . S
C110 C108 1.380 1_446 S
C110 C111 1.170 . S
C111 C110 1.170 . S
C112 C113 1.170 . S
C112 C114 1.380 . S
C113 C112 1.170 . S
C114 C112 1.380 . S
C114 C115 1.170 . S
C115 C114 1.170 . S
C116 C117 1.170 . S
C116 C118 1.380 . S
C117 C116 1.170 . S
C118 C116 1.380 . S
C118 C119 1.170 . S
C119 C118 1.170 . S
C120 C121 1.170 . S
C120 C122 1.380 . S
C121 C120 1.170 . S
C122 C120 1.380 . S
C122 C123 1.170 . S
C123 C122 1.170 . S
C124 C125 1.170 . S
C124 C126 1.380 . S
C125 C124 1.170 . S
C126 C124 1.380 . S
C126 C127 1.170 . S
C127 C126 1.170 . S
C128 C129 1.170 . S
C128 C130 1.380 . S
C129 C128 1.170 . S
C130 C128 1.380 . S
C130 C131 1.170 . S
C131 C130 1.170 . S
C132 C133 1.170 . S
C132 C134 1.380 1_546 S
C133 C132 1.170 . S
C134 C132 1.380 1_564 S
C134 C135 1.170 . S
C135 C134 1.170 . S
C89 C32 1.541 . S
C91 C7 1.542 . S
C93 C8 1.515 . S
C95 C43 1.558 . S
C97 C76 1.521 . S
C99 C59 1.541 . S
C101 C62 1.516 . S
C103 C87 1.542 . S
C105 C51 1.170 . S
C107 C21 1.188 . S
C109 C37 1.190 . S
C111 C81 1.136 . S
C113 C73 1.611 . S
C115 C18 1.601 . S
C117 C30 1.586 . S
C119 C65 1.629 . S
C121 C29 1.620 . S
C123 C54 1.587 . S
C125 C74 1.618 . S
C127 C15 1.610 . S
C129 C10 1.566 . S
C131 C52 1.563 . S
C133 C84 1.562 . S
C135 C40 1.567 . S
