# Generated by pormake.
# Topology uoz, (4)-cn, num edge types: 1
# Building blocks:
#     Node 0, Type 0, BuildingBlock: GALJAG_clean_sbu_0, # of connection points: 4
#     Node 1, Type 0, BuildingBlock: GALJAG_clean_sbu_0, # of connection points: 4
#     Node 2, Type 0, BuildingBlock: GALJAG_clean_sbu_0, # of connection points: 4
#     Node 3, Type 0, BuildingBlock: GALJAG_clean_sbu_0, # of connection points: 4
#     Node 4, Type 0, BuildingBlock: GALJAG_clean_sbu_0, # of connection points: 4
#     Node 5, Type 0, BuildingBlock: GALJAG_clean_sbu_0, # of connection points: 4
#     Node 6, Type 0, BuildingBlock: GALJAG_clean_sbu_0, # of connection points: 4
#     Node 7, Type 0, BuildingBlock: GALJAG_clean_sbu_0, # of connection points: 4
#     Node 8, Type 0, BuildingBlock: GALJAG_clean_sbu_0, # of connection points: 4
#     Node 9, Type 0, BuildingBlock: GALJAG_clean_sbu_0, # of connection points: 4
#     Node 10, Type 0, BuildingBlock: GALJAG_clean_sbu_0, # of connection points: 4
#     Node 11, Type 0, BuildingBlock: GALJAG_clean_sbu_0, # of connection points: 4
#     Node 12, Type 0, BuildingBlock: GALJAG_clean_sbu_0, # of connection points: 4
#     Node 13, Type 0, BuildingBlock: GALJAG_clean_sbu_0, # of connection points: 4
#     Node 14, Type 0, BuildingBlock: GALJAG_clean_sbu_0, # of connection points: 4
#     Node 15, Type 0, BuildingBlock: GALJAG_clean_sbu_0, # of connection points: 4
#     Edge 16, Type (0, 0), None
#     Edge 17, Type (0, 0), None
#     Edge 18, Type (0, 0), None
#     Edge 19, Type (0, 0), None
#     Edge 20, Type (0, 0), None
#     Edge 21, Type (0, 0), None
#     Edge 22, Type (0, 0), None
#     Edge 23, Type (0, 0), None
#     Edge 24, Type (0, 0), None
#     Edge 25, Type (0, 0), None
#     Edge 26, Type (0, 0), None
#     Edge 27, Type (0, 0), None
#     Edge 28, Type (0, 0), None
#     Edge 29, Type (0, 0), None
#     Edge 30, Type (0, 0), None
#     Edge 31, Type (0, 0), None
#     Edge 32, Type (0, 0), None
#     Edge 33, Type (0, 0), None
#     Edge 34, Type (0, 0), None
#     Edge 35, Type (0, 0), None
#     Edge 36, Type (0, 0), None
#     Edge 37, Type (0, 0), None
#     Edge 38, Type (0, 0), None
#     Edge 39, Type (0, 0), None
#     Edge 40, Type (0, 0), None
#     Edge 41, Type (0, 0), None
#     Edge 42, Type (0, 0), None
#     Edge 43, Type (0, 0), None
#     Edge 44, Type (0, 0), None
#     Edge 45, Type (0, 0), None
#     Edge 46, Type (0, 0), None
#     Edge 47, Type (0, 0), None
# Relax obj value: 0.136
# Max RMSD: 0.158
# Mean RMSD: 0.158
data_MOF--net-uoz--node1-GALJAG_clean_sbu_0--edge1-none
_symmetry_space_group_name_H-M    P1
_symmetry_Int_Tables_number       1
_symmetry_cell_setting            triclinic
loop_
_symmetry_equiv_pos_as_xyz
'x, y, z'
_cell_length_a     28.686264
_cell_length_b     28.685677
_cell_length_c     8.9993934
_cell_angle_alpha  89.995156
_cell_angle_beta   90.003996
_cell_angle_gamma 89.999997
loop_
_atom_site_label
_atom_site_type_symbol
_atom_site_fract_x
_atom_site_fract_y
_atom_site_fract_z
_atom_type_partial_charge
In0 In 0.00092 0.58888 0.24525 0.0
O1 O 0.96326 0.53821 0.10732 0.0
O2 O 0.03862 0.53821 0.10738 0.0
C3 C 0.93145 0.64708 0.16615 0.0
C4 C 0.00092 0.5221 0.46646 0.0
C5 C 0.07036 0.64712 0.16611 0.0
O6 O 0.95094 0.61967 0.07682 0.0
O7 O 0.94539 0.64423 0.30017 0.0
O8 O 0.05644 0.64426 0.30015 0.0
O9 O 0.05087 0.61971 0.07679 0.0
C10 C 0.00094 0.52037 0.06333 0.0
O11 O 0.03775 0.5414 0.41987 0.0
O12 O 0.96409 0.5414 0.41983 0.0
In13 In 0.66298 0.75092 0.49523 0.0
O14 O 0.71365 0.71326 0.35731 0.0
O15 O 0.71364 0.78862 0.35732 0.0
C16 C 0.60478 0.68145 0.41612 0.0
C17 C 0.72976 0.75092 0.71643 0.0
C18 C 0.60474 0.82037 0.41613 0.0
O19 O 0.63219 0.70096 0.3268 0.0
O20 O 0.60763 0.69539 0.55015 0.0
O21 O 0.60761 0.80643 0.55016 0.0
O22 O 0.63215 0.80088 0.3268 0.0
C23 C 0.73149 0.75094 0.31329 0.0
O24 O 0.71046 0.78776 0.66982 0.0
O25 O 0.71047 0.71409 0.66982 0.0
In26 In 0.50093 0.41299 0.74525 0.0
O27 O 0.5386 0.46365 0.60731 0.0
O28 O 0.46324 0.46365 0.60733 0.0
C29 C 0.57041 0.35479 0.66613 0.0
C30 C 0.50093 0.47977 0.96643 0.0
C31 C 0.43149 0.35475 0.66614 0.0
O32 O 0.5509 0.3822 0.57681 0.0
O33 O 0.55647 0.35763 0.80015 0.0
O34 O 0.44543 0.35761 0.80017 0.0
O35 O 0.45098 0.38217 0.57682 0.0
C36 C 0.50091 0.4815 0.56329 0.0
O37 O 0.4641 0.46046 0.91983 0.0
O38 O 0.53777 0.46047 0.91983 0.0
In39 In 0.83887 0.25094 -0.00477 0.0
O40 O 0.78821 0.2886 0.85725 0.0
O41 O 0.78821 0.21324 0.85732 0.0
C42 C 0.89707 0.32041 0.91615 0.0
C43 C 0.77208 0.25094 0.21639 0.0
C44 C 0.89711 0.18149 0.91612 0.0
O45 O 0.86966 0.30092 0.82681 0.0
O46 O 0.89422 0.30647 0.05017 0.0
O47 O 0.89425 0.19542 0.05015 0.0
O48 O 0.8697 0.20099 0.82679 0.0
C49 C 0.77037 0.25092 0.81325 0.0
O50 O 0.79139 0.21411 0.16981 0.0
O51 O 0.79139 0.28777 0.16978 0.0
In52 In 0.00092 0.41299 0.78562 0.0
O53 O 0.03775 0.46047 0.61105 0.0
O54 O 0.96409 0.46047 0.61103 0.0
C55 C 0.07036 0.35475 0.86471 0.0
C56 C 0.00094 0.48149 0.96758 0.0
C57 C 0.93145 0.35479 0.86472 0.0
O58 O 0.05643 0.35761 0.73068 0.0
O59 O 0.05087 0.38215 0.95405 0.0
O60 O 0.95095 0.38219 0.95405 0.0
O61 O 0.94538 0.35764 0.73069 0.0
C62 C 0.00092 0.47978 0.56445 0.0
O63 O 0.96326 0.46365 0.92356 0.0
O64 O 0.03862 0.46365 0.92354 0.0
In65 In 0.83887 0.75093 0.0356 0.0
O66 O 0.78821 0.71326 0.17355 0.0
O67 O 0.78821 0.78862 0.17348 0.0
C68 C 0.89707 0.68146 0.11471 0.0
C69 C 0.77209 0.75093 0.81442 0.0
C70 C 0.89711 0.82037 0.11472 0.0
O71 O 0.86966 0.70095 0.20403 0.0
O72 O 0.89422 0.6954 -0.01932 0.0
O73 O 0.89425 0.80644 -0.01931 0.0
O74 O 0.8697 0.80087 0.20405 0.0
C75 C 0.77037 0.75094 0.21754 0.0
O76 O 0.79139 0.78776 0.861 0.0
O77 O 0.79139 0.71409 0.86102 0.0
In78 In 0.50093 0.58888 0.28555 0.0
O79 O 0.53859 0.53822 0.42352 0.0
O80 O 0.46324 0.53822 0.42346 0.0
C81 C 0.5704 0.64708 0.36468 0.0
C82 C 0.50093 0.52209 0.0644 0.0
C83 C 0.43149 0.64712 0.36467 0.0
O84 O 0.5509 0.61966 0.45399 0.0
O85 O 0.55646 0.64424 0.23065 0.0
O86 O 0.44542 0.64426 0.23064 0.0
O87 O 0.45098 0.6197 0.454 0.0
C88 C 0.50091 0.52038 0.46752 0.0
O89 O 0.4641 0.5414 0.11098 0.0
O90 O 0.53776 0.5414 0.11099 0.0
In91 In 0.66298 0.25094 0.53553 0.0
O92 O 0.71045 0.21411 0.36096 0.0
O93 O 0.71046 0.28778 0.36095 0.0
C94 C 0.60474 0.1815 0.61465 0.0
C95 C 0.73149 0.25092 0.71749 0.0
C96 C 0.60478 0.32041 0.61467 0.0
O97 O 0.6076 0.19543 0.48062 0.0
O98 O 0.63216 0.20099 0.70398 0.0
O99 O 0.6322 0.30091 0.70398 0.0
O100 O 0.60762 0.30648 0.48064 0.0
C101 C 0.72976 0.25094 0.31437 0.0
O102 O 0.71365 0.28861 0.67347 0.0
O103 O 0.71364 0.21325 0.67345 0.0
In104 In 0.33887 0.25093 0.53558 0.0
O105 O 0.29139 0.28776 0.36098 0.0
O106 O 0.2914 0.2141 0.361 0.0
C107 C 0.39711 0.32036 0.61472 0.0
C108 C 0.27037 0.25094 0.71752 0.0
C109 C 0.39707 0.18146 0.61468 0.0
O110 O 0.39425 0.30645 0.48068 0.0
O111 O 0.3697 0.30087 0.70404 0.0
O112 O 0.36966 0.20095 0.70401 0.0
O113 O 0.39422 0.1954 0.48066 0.0
C114 C 0.27209 0.25093 0.31439 0.0
O115 O 0.28821 0.21326 0.67353 0.0
O116 O 0.28821 0.28862 0.67347 0.0
In117 In 0.16298 0.75094 0.03554 0.0
O118 O 0.21045 0.71411 0.86096 0.0
O119 O 0.21046 0.78777 0.86094 0.0
C120 C 0.10474 0.6815 0.11468 0.0
C121 C 0.23149 0.75092 0.21748 0.0
C122 C 0.10478 0.82041 0.11467 0.0
O123 O 0.1076 0.69543 -0.01936 0.0
O124 O 0.13216 0.70099 0.20399 0.0
O125 O 0.1322 0.80091 0.20399 0.0
O126 O 0.10762 0.80648 -0.01935 0.0
C127 C 0.22976 0.75094 0.81435 0.0
O128 O 0.21365 0.7886 0.17346 0.0
O129 O 0.21364 0.71324 0.17345 0.0
In130 In 0.16298 0.25092 -0.00477 0.0
O131 O 0.21046 0.28775 0.16981 0.0
O132 O 0.21047 0.21409 0.16981 0.0
C133 C 0.10474 0.32036 0.91612 0.0
C134 C 0.23148 0.25094 0.81327 0.0
C135 C 0.10479 0.18145 0.91613 0.0
O136 O 0.10761 0.30643 0.05015 0.0
O137 O 0.13215 0.30087 0.82679 0.0
O138 O 0.13219 0.20095 0.8268 0.0
O139 O 0.10763 0.19538 0.05015 0.0
C140 C 0.22977 0.25092 0.2164 0.0
O141 O 0.21365 0.21326 0.85729 0.0
O142 O 0.21364 0.28862 0.85731 0.0
In143 In 0.33887 0.75094 0.49523 0.0
O144 O 0.29139 0.71411 0.66981 0.0
O145 O 0.29138 0.78777 0.66978 0.0
C146 C 0.39711 0.6815 0.4161 0.0
C147 C 0.27037 0.75092 0.31325 0.0
C148 C 0.39707 0.82041 0.41614 0.0
O149 O 0.39425 0.69542 0.55014 0.0
O150 O 0.36969 0.701 0.32678 0.0
O151 O 0.36965 0.80092 0.32681 0.0
O152 O 0.39422 0.80647 0.55016 0.0
C153 C 0.27208 0.75094 0.71638 0.0
O154 O 0.28821 0.7886 0.35725 0.0
O155 O 0.28821 0.71324 0.35732 0.0
In156 In 0.50092 0.08888 0.74522 0.0
O157 O 0.53775 0.0414 0.91983 0.0
O158 O 0.46409 0.0414 0.9198 0.0
C159 C 0.57036 0.14712 0.66608 0.0
C160 C 0.50094 0.02037 0.56329 0.0
C161 C 0.43146 0.14708 0.66612 0.0
O162 O 0.55644 0.14426 0.80012 0.0
O163 O 0.55087 0.11971 0.57677 0.0
O164 O 0.45095 0.11967 0.5768 0.0
O165 O 0.44539 0.14423 0.80014 0.0
C166 C 0.50092 0.0221 0.96642 0.0
O167 O 0.46326 0.03822 0.60728 0.0
O168 O 0.53862 0.03821 0.60734 0.0
In169 In 0.00094 0.91298 0.24529 0.0
O170 O 0.9641 0.96045 0.41987 0.0
O171 O 0.03777 0.96046 0.41987 0.0
C172 C 0.9315 0.85474 0.16615 0.0
C173 C 0.00092 0.98149 0.06335 0.0
C174 C 0.0704 0.85478 0.16613 0.0
O175 O 0.94543 0.8576 0.30019 0.0
O176 O 0.95098 0.88216 0.07684 0.0
O177 O 0.0509 0.8822 0.07683 0.0
O178 O 0.05648 0.85762 0.30017 0.0
C179 C 0.00093 0.97976 0.46647 0.0
O180 O 0.0386 0.96365 0.10736 0.0
O181 O 0.96324 0.96365 0.10738 0.0
In182 In 0.50092 0.91299 0.28559 0.0
O183 O 0.53775 0.96047 0.11101 0.0
O184 O 0.46409 0.96047 0.111 0.0
C185 C 0.57036 0.85474 0.36471 0.0
C186 C 0.50094 0.98149 0.46754 0.0
C187 C 0.43145 0.85479 0.3647 0.0
O188 O 0.55643 0.85761 0.23067 0.0
O189 O 0.55087 0.88216 0.45403 0.0
O190 O 0.45095 0.8822 0.45403 0.0
O191 O 0.44538 0.85764 0.23067 0.0
C192 C 0.50092 0.97978 0.06441 0.0
O193 O 0.46326 0.96365 0.42352 0.0
O194 O 0.53861 0.96365 0.4235 0.0
In195 In 0.00093 0.08888 0.78559 0.0
O196 O 0.03859 0.03822 0.92357 0.0
O197 O 0.96324 0.03821 0.92351 0.0
C198 C 0.0704 0.14707 0.8647 0.0
C199 C 0.00093 0.02208 0.56445 0.0
C200 C 0.93149 0.14712 0.8647 0.0
O201 O 0.05091 0.11966 0.95402 0.0
O202 O 0.05646 0.14423 0.73067 0.0
O203 O 0.94541 0.14426 0.73067 0.0
O204 O 0.95098 0.1197 0.95403 0.0
C205 C 0.00091 0.02037 0.96758 0.0
O206 O 0.9641 0.04139 0.61102 0.0
O207 O 0.03776 0.04139 0.61104 0.0
loop_
_geom_bond_atom_site_label_1
_geom_bond_atom_site_label_2
_geom_bond_distance
_geom_bond_site_symmetry_2
_ccdc_geom_bond_type
In0 O1 2.294 1_455 S
In0 O2 2.326 . S
In0 O6 2.266 1_455 S
In0 O7 2.326 1_455 S
In0 O8 2.266 . S
In0 O9 2.326 . S
In0 O11 2.294 . S
In0 O12 2.326 1_455 S
O1 In0 2.294 1_655 S
O1 C10 1.240 1_655 S
O2 In0 2.326 . S
O2 C10 1.252 . S
C3 O6 1.252 . S
C3 O7 1.260 . S
C4 O11 1.240 1_655 S
C4 O12 1.252 . S
C5 O8 1.252 . S
C5 O9 1.260 . S
O6 In0 2.266 1_655 S
O6 C3 1.252 . S
O7 In0 2.326 1_655 S
O7 C3 1.260 . S
O8 In0 2.266 . S
O8 C5 1.252 . S
O9 In0 2.326 . S
O9 C5 1.260 . S
C10 O1 1.240 1_455 S
C10 O2 1.252 . S
O11 In0 2.294 . S
O11 C4 1.240 1_455 S
O12 In0 2.326 1_655 S
O12 C4 1.252 . S
In13 O14 2.294 . S
In13 O15 2.326 . S
In13 O19 2.266 . S
In13 O20 2.326 . S
In13 O21 2.266 . S
In13 O22 2.326 . S
In13 O24 2.294 . S
In13 O25 2.326 . S
O14 In13 2.294 . S
O14 C23 1.240 . S
O15 In13 2.326 . S
O15 C23 1.252 . S
C16 O19 1.252 . S
C16 O20 1.260 . S
C17 O24 1.240 . S
C17 O25 1.252 . S
C18 O21 1.252 . S
C18 O22 1.260 . S
O19 In13 2.266 . S
O19 C16 1.252 . S
O20 In13 2.326 . S
O20 C16 1.260 . S
O21 In13 2.266 . S
O21 C18 1.252 . S
O22 In13 2.326 . S
O22 C18 1.260 . S
C23 O14 1.240 . S
C23 O15 1.252 . S
O24 In13 2.294 . S
O24 C17 1.240 . S
O25 In13 2.326 . S
O25 C17 1.252 . S
In26 O27 2.294 . S
In26 O28 2.326 . S
In26 O32 2.266 . S
In26 O33 2.326 . S
In26 O34 2.266 . S
In26 O35 2.326 . S
In26 O37 2.294 . S
In26 O38 2.326 . S
O27 In26 2.294 . S
O27 C36 1.240 . S
O28 In26 2.326 . S
O28 C36 1.252 . S
C29 O32 1.252 . S
C29 O33 1.260 . S
C30 O37 1.240 . S
C30 O38 1.252 . S
C31 O34 1.252 . S
C31 O35 1.260 . S
O32 In26 2.266 . S
O32 C29 1.252 . S
O33 In26 2.326 . S
O33 C29 1.260 . S
O34 In26 2.266 . S
O34 C31 1.252 . S
O35 In26 2.326 . S
O35 C31 1.260 . S
C36 O27 1.240 . S
C36 O28 1.252 . S
O37 In26 2.294 . S
O37 C30 1.240 . S
O38 In26 2.326 . S
O38 C30 1.252 . S
In39 O40 2.293 1_554 S
In39 O41 2.326 1_554 S
In39 O45 2.266 1_554 S
In39 O46 2.326 . S
In39 O47 2.266 . S
In39 O48 2.325 1_554 S
In39 O50 2.295 . S
In39 O51 2.327 . S
O40 In39 2.293 1_556 S
O40 C49 1.240 . S
O41 In39 2.326 1_556 S
O41 C49 1.252 . S
C42 O45 1.252 1_554 S
C42 O46 1.260 . S
C43 O50 1.240 . S
C43 O51 1.252 . S
C44 O47 1.252 1_556 S
C44 O48 1.260 . S
O45 In39 2.266 1_556 S
O45 C42 1.252 1_556 S
O46 In39 2.326 . S
O46 C42 1.260 . S
O47 In39 2.266 . S
O47 C44 1.252 1_554 S
O48 In39 2.325 1_556 S
O48 C44 1.260 . S
C49 O40 1.240 . S
C49 O41 1.252 . S
O50 In39 2.295 . S
O50 C43 1.240 . S
O51 In39 2.327 . S
O51 C43 1.252 . S
In52 O53 2.294 . S
In52 O54 2.326 1_455 S
In52 O58 2.266 . S
In52 O59 2.326 1_556 S
In52 O60 2.266 1_455 S
In52 O61 2.326 1_455 S
In52 O63 2.294 1_456 S
In52 O64 2.326 . S
O53 In52 2.294 . S
O53 C62 1.240 1_455 S
O54 In52 2.326 1_655 S
O54 C62 1.252 . S
C55 O58 1.252 . S
C55 O59 1.260 1_556 S
C56 O63 1.240 1_455 S
C56 O64 1.252 1_554 S
C57 O60 1.252 . S
C57 O61 1.260 . S
O58 In52 2.266 . S
O58 C55 1.252 . S
O59 In52 2.326 1_554 S
O59 C55 1.260 1_554 S
O60 In52 2.266 1_655 S
O60 C57 1.252 . S
O61 In52 2.326 1_655 S
O61 C57 1.260 . S
C62 O53 1.240 1_655 S
C62 O54 1.252 . S
O63 In52 2.294 1_654 S
O63 C56 1.240 1_655 S
O64 In52 2.326 . S
O64 C56 1.252 1_556 S
In65 O66 2.294 . S
In65 O67 2.326 . S
In65 O71 2.266 . S
In65 O72 2.326 1_554 S
In65 O73 2.266 . S
In65 O74 2.326 . S
In65 O76 2.294 1_554 S
In65 O77 2.326 1_554 S
O66 In65 2.294 . S
O66 C75 1.240 . S
O67 In65 2.326 . S
O67 C75 1.252 . S
C68 O71 1.252 . S
C68 O72 1.260 1_554 S
C69 O76 1.240 . S
C69 O77 1.252 . S
C70 O73 1.252 . S
C70 O74 1.260 . S
O71 In65 2.266 . S
O71 C68 1.252 . S
O72 In65 2.326 1_556 S
O72 C68 1.260 1_556 S
O73 In65 2.266 . S
O73 C70 1.252 . S
O74 In65 2.326 . S
O74 C70 1.260 . S
C75 O66 1.240 . S
C75 O67 1.252 . S
O76 In65 2.294 1_556 S
O76 C69 1.240 . S
O77 In65 2.326 1_556 S
O77 C69 1.252 . S
In78 O79 2.294 . S
In78 O80 2.326 . S
In78 O84 2.266 . S
In78 O85 2.326 . S
In78 O86 2.266 . S
In78 O87 2.326 . S
In78 O89 2.294 . S
In78 O90 2.326 . S
O79 In78 2.294 . S
O79 C88 1.240 . S
O80 In78 2.326 . S
O80 C88 1.252 . S
C81 O84 1.252 . S
C81 O85 1.260 . S
C82 O89 1.240 . S
C82 O90 1.252 . S
C83 O86 1.252 . S
C83 O87 1.260 . S
O84 In78 2.266 . S
O84 C81 1.252 . S
O85 In78 2.326 . S
O85 C81 1.260 . S
O86 In78 2.266 . S
O86 C83 1.252 . S
O87 In78 2.326 . S
O87 C83 1.260 . S
C88 O79 1.240 . S
C88 O80 1.252 . S
O89 In78 2.294 . S
O89 C82 1.240 . S
O90 In78 2.326 . S
O90 C82 1.252 . S
In91 O92 2.294 . S
In91 O93 2.326 . S
In91 O97 2.266 . S
In91 O98 2.326 . S
In91 O99 2.266 . S
In91 O100 2.326 . S
In91 O102 2.294 . S
In91 O103 2.326 . S
O92 In91 2.294 . S
O92 C101 1.240 . S
O93 In91 2.326 . S
O93 C101 1.252 . S
C94 O97 1.252 . S
C94 O98 1.260 . S
C95 O102 1.240 . S
C95 O103 1.252 . S
C96 O99 1.252 . S
C96 O100 1.260 . S
O97 In91 2.266 . S
O97 C94 1.252 . S
O98 In91 2.326 . S
O98 C94 1.260 . S
O99 In91 2.266 . S
O99 C96 1.252 . S
O100 In91 2.326 . S
O100 C96 1.260 . S
C101 O92 1.240 . S
C101 O93 1.252 . S
O102 In91 2.294 . S
O102 C95 1.240 . S
O103 In91 2.326 . S
O103 C95 1.252 . S
In104 O105 2.294 . S
In104 O106 2.326 . S
In104 O110 2.266 . S
In104 O111 2.326 . S
In104 O112 2.266 . S
In104 O113 2.326 . S
In104 O115 2.294 . S
In104 O116 2.326 . S
O105 In104 2.294 . S
O105 C114 1.240 . S
O106 In104 2.326 . S
O106 C114 1.252 . S
C107 O110 1.252 . S
C107 O111 1.260 . S
C108 O115 1.240 . S
C108 O116 1.252 . S
C109 O112 1.252 . S
C109 O113 1.260 . S
O110 In104 2.266 . S
O110 C107 1.252 . S
O111 In104 2.326 . S
O111 C107 1.260 . S
O112 In104 2.266 . S
O112 C109 1.252 . S
O113 In104 2.326 . S
O113 C109 1.260 . S
C114 O105 1.240 . S
C114 O106 1.252 . S
O115 In104 2.294 . S
O115 C108 1.240 . S
O116 In104 2.326 . S
O116 C108 1.252 . S
In117 O118 2.294 1_554 S
In117 O119 2.326 1_554 S
In117 O123 2.266 . S
In117 O124 2.326 . S
In117 O125 2.266 . S
In117 O126 2.326 1_554 S
In117 O128 2.294 . S
In117 O129 2.326 . S
O118 In117 2.294 1_556 S
O118 C127 1.240 . S
O119 In117 2.326 1_556 S
O119 C127 1.252 . S
C120 O123 1.252 . S
C120 O124 1.260 . S
C121 O128 1.240 . S
C121 O129 1.252 . S
C122 O125 1.252 . S
C122 O126 1.260 1_554 S
O123 In117 2.266 . S
O123 C120 1.252 . S
O124 In117 2.326 . S
O124 C120 1.260 . S
O125 In117 2.266 . S
O125 C122 1.252 . S
O126 In117 2.326 1_556 S
O126 C122 1.260 1_556 S
C127 O118 1.240 . S
C127 O119 1.252 . S
O128 In117 2.294 . S
O128 C121 1.240 . S
O129 In117 2.326 . S
O129 C121 1.252 . S
In130 O131 2.295 . S
In130 O132 2.327 . S
In130 O136 2.266 . S
In130 O137 2.325 1_554 S
In130 O138 2.266 1_554 S
In130 O139 2.326 . S
In130 O141 2.293 1_554 S
In130 O142 2.326 1_554 S
O131 In130 2.295 . S
O131 C140 1.240 . S
O132 In130 2.327 . S
O132 C140 1.252 . S
C133 O136 1.252 1_556 S
C133 O137 1.260 . S
C134 O141 1.240 . S
C134 O142 1.252 . S
C135 O138 1.252 1_554 S
C135 O139 1.260 . S
O136 In130 2.266 . S
O136 C133 1.252 1_554 S
O137 In130 2.325 1_556 S
O137 C133 1.260 . S
O138 In130 2.266 1_556 S
O138 C135 1.252 1_556 S
O139 In130 2.326 . S
O139 C135 1.260 . S
C140 O131 1.240 . S
C140 O132 1.252 . S
O141 In130 2.293 1_556 S
O141 C134 1.240 . S
O142 In130 2.326 1_556 S
O142 C134 1.252 . S
In143 O144 2.294 . S
In143 O145 2.326 . S
In143 O149 2.266 . S
In143 O150 2.326 . S
In143 O151 2.266 . S
In143 O152 2.326 . S
In143 O154 2.294 . S
In143 O155 2.326 . S
O144 In143 2.294 . S
O144 C153 1.240 . S
O145 In143 2.326 . S
O145 C153 1.252 . S
C146 O149 1.252 . S
C146 O150 1.260 . S
C147 O154 1.240 . S
C147 O155 1.252 . S
C148 O151 1.252 . S
C148 O152 1.260 . S
O149 In143 2.266 . S
O149 C146 1.252 . S
O150 In143 2.326 . S
O150 C146 1.260 . S
O151 In143 2.266 . S
O151 C148 1.252 . S
O152 In143 2.326 . S
O152 C148 1.260 . S
C153 O144 1.240 . S
C153 O145 1.252 . S
O154 In143 2.294 . S
O154 C147 1.240 . S
O155 In143 2.326 . S
O155 C147 1.252 . S
In156 O157 2.294 . S
In156 O158 2.326 . S
In156 O162 2.266 . S
In156 O163 2.326 . S
In156 O164 2.266 . S
In156 O165 2.326 . S
In156 O167 2.294 . S
In156 O168 2.326 . S
O157 In156 2.294 . S
O157 C166 1.240 . S
O158 In156 2.326 . S
O158 C166 1.252 . S
C159 O162 1.252 . S
C159 O163 1.260 . S
C160 O167 1.240 . S
C160 O168 1.252 . S
C161 O164 1.252 . S
C161 O165 1.260 . S
O162 In156 2.266 . S
O162 C159 1.252 . S
O163 In156 2.326 . S
O163 C159 1.260 . S
O164 In156 2.266 . S
O164 C161 1.252 . S
O165 In156 2.326 . S
O165 C161 1.260 . S
C166 O157 1.240 . S
C166 O158 1.252 . S
O167 In156 2.294 . S
O167 C160 1.240 . S
O168 In156 2.326 . S
O168 C160 1.252 . S
In169 O170 2.294 1_455 S
In169 O171 2.326 . S
In169 O175 2.266 1_455 S
In169 O176 2.326 1_455 S
In169 O177 2.266 . S
In169 O178 2.326 . S
In169 O180 2.294 . S
In169 O181 2.326 1_455 S
O170 In169 2.294 1_655 S
O170 C179 1.240 1_655 S
O171 In169 2.326 . S
O171 C179 1.252 . S
C172 O175 1.252 . S
C172 O176 1.260 . S
C173 O180 1.240 1_655 S
C173 O181 1.252 . S
C174 O177 1.252 . S
C174 O178 1.260 . S
O175 In169 2.266 1_655 S
O175 C172 1.252 . S
O176 In169 2.326 1_655 S
O176 C172 1.260 . S
O177 In169 2.266 . S
O177 C174 1.252 . S
O178 In169 2.326 . S
O178 C174 1.260 . S
C179 O170 1.240 1_455 S
C179 O171 1.252 . S
O180 In169 2.294 . S
O180 C173 1.240 1_455 S
O181 In169 2.326 1_655 S
O181 C173 1.252 . S
In182 O183 2.294 . S
In182 O184 2.326 . S
In182 O188 2.266 . S
In182 O189 2.326 . S
In182 O190 2.266 . S
In182 O191 2.326 . S
In182 O193 2.294 . S
In182 O194 2.326 . S
O183 In182 2.294 . S
O183 C192 1.240 . S
O184 In182 2.326 . S
O184 C192 1.252 . S
C185 O188 1.252 . S
C185 O189 1.260 . S
C186 O193 1.240 . S
C186 O194 1.252 . S
C187 O190 1.252 . S
C187 O191 1.260 . S
O188 In182 2.266 . S
O188 C185 1.252 . S
O189 In182 2.326 . S
O189 C185 1.260 . S
O190 In182 2.266 . S
O190 C187 1.252 . S
O191 In182 2.326 . S
O191 C187 1.260 . S
C192 O183 1.240 . S
C192 O184 1.252 . S
O193 In182 2.294 . S
O193 C186 1.240 . S
O194 In182 2.326 . S
O194 C186 1.252 . S
In195 O196 2.294 1_556 S
In195 O197 2.326 1_455 S
In195 O201 2.266 . S
In195 O202 2.326 . S
In195 O203 2.266 1_455 S
In195 O204 2.326 1_456 S
In195 O206 2.294 1_455 S
In195 O207 2.326 . S
O196 In195 2.294 1_554 S
O196 C205 1.240 1_455 S
O197 In195 2.326 1_655 S
O197 C205 1.252 1_556 S
C198 O201 1.252 . S
C198 O202 1.260 . S
C199 O206 1.240 1_455 S
C199 O207 1.252 . S
C200 O203 1.252 . S
C200 O204 1.260 1_556 S
O201 In195 2.266 . S
O201 C198 1.252 . S
O202 In195 2.326 . S
O202 C198 1.260 . S
O203 In195 2.266 1_655 S
O203 C200 1.252 . S
O204 In195 2.326 1_654 S
O204 C200 1.260 1_554 S
C205 O196 1.240 1_655 S
C205 O197 1.252 1_554 S
O206 In195 2.294 1_655 S
O206 C199 1.240 1_655 S
O207 In195 2.326 . S
O207 C199 1.252 . S
C120 C5 1.522 . S
C185 C18 1.524 . S
C31 C107 1.524 . S
C44 C200 1.526 . S
C55 C133 1.522 . S
C172 C70 1.526 . S
C146 C83 1.524 . S
C94 C159 1.524 . S
C57 C42 2.107 1_556 S
C161 C109 2.106 . S
C81 C16 2.105 . S
C122 C174 2.104 . S
C3 C68 2.107 . S
C198 C135 2.104 1_556 S
C96 C29 2.106 . S
C148 C187 2.105 . S
C10 C56 0.870 . S
C75 C23 0.870 . S
C88 C36 0.870 . S
C49 C95 0.871 . S
C134 C108 0.871 . S
C147 C121 0.870 . S
C186 C160 0.870 1_565 S
C205 C173 0.870 1_545 S
C62 C4 1.893 . S
C69 C17 1.894 . S
C82 C30 1.894 1_554 S
C43 C101 1.893 . S
C114 C140 1.893 . S
C153 C127 1.894 . S
C192 C166 1.894 1_564 S
C199 C179 1.893 1_545 S
