# Generated by pormake.
# Topology qzd, (4)-cn, num edge types: 1
# Building blocks:
#     Node 0, Type 0, BuildingBlock: NAWXER_clean_sbu_0, # of connection points: 4
#     Node 1, Type 0, BuildingBlock: NAWXER_clean_sbu_0, # of connection points: 4
#     Node 2, Type 0, BuildingBlock: NAWXER_clean_sbu_0, # of connection points: 4
#     Edge 3, Type (0, 0), BuildingBlock: ZUJKAS_clean_linker_0, # of connection points: 2
#     Edge 4, Type (0, 0), BuildingBlock: ZUJKAS_clean_linker_0, # of connection points: 2
#     Edge 5, Type (0, 0), BuildingBlock: ZUJKAS_clean_linker_0, # of connection points: 2
#     Edge 6, Type (0, 0), BuildingBlock: ZUJKAS_clean_linker_0, # of connection points: 2
#     Edge 7, Type (0, 0), BuildingBlock: ZUJKAS_clean_linker_0, # of connection points: 2
#     Edge 8, Type (0, 0), BuildingBlock: ZUJKAS_clean_linker_0, # of connection points: 2
# Relax obj value: 0.000
# Max RMSD: 0.038
# Mean RMSD: 0.038
data_MOF--net-qzd--node1-NAWXER_clean_sbu_0--edge1-ZUJKAS_clean_linker_0
_symmetry_space_group_name_H-M    P1
_symmetry_Int_Tables_number       1
_symmetry_cell_setting            triclinic
loop_
_symmetry_equiv_pos_as_xyz
'x, y, z'
_cell_length_a     19.211923
_cell_length_b     19.207359
_cell_length_c     57.516392
_cell_angle_alpha  94.922954
_cell_angle_beta   94.670273
_cell_angle_gamma 120.01598
loop_
_atom_site_label
_atom_site_type_symbol
_atom_site_fract_x
_atom_site_fract_y
_atom_site_fract_z
_atom_type_partial_charge
C0 C 0.21865 0.15932 0.03642 0.0
C1 C 0.96342 0.15779 0.03548 0.0
O2 O 0.15626 0.08728 0.03265 0.0
Zn3 Zn 0.0264 0.03081 0.02919 0.0
O4 O 0.20876 0.21998 0.03929 0.0
Zn5 Zn 0.09124 0.15943 0.03583 0.0
O6 O 0.06727 0.09951 0.06673 0.0
O7 O 1.00022 0.96727 0.05478 0.0
O8 O 0.03516 0.21895 0.03867 0.0
O9 O 0.95264 0.08594 0.03179 0.0
O10 O 0.99274 0.97405 0.99733 0.0
O11 O 0.05696 0.10748 0.99914 0.0
C12 C 0.03222 0.02649 0.07152 0.0
C13 C 0.02012 0.03641 0.98692 0.0
C14 C 1.00685 0.02537 0.40349 0.0
C15 C 0.98334 0.99754 0.31768 0.0
O16 O 0.96884 0.05826 0.39464 0.0
Zn17 Zn 0.93204 0.0751 0.36012 0.0
O18 O 0.03391 0.99171 0.3899 0.0
Zn19 Zn 0.99554 0.01147 0.3606 0.0
O20 O 0.07045 0.14126 0.36237 0.0
O21 O 0.98983 0.19207 0.36175 0.0
O22 O 0.01637 0.97125 0.33168 0.0
O23 O 0.95033 0.03628 0.32604 0.0
O24 O 0.815 0.01766 0.35814 0.0
O25 O 0.86576 0.93707 0.35873 0.0
C26 C 0.06092 0.20284 0.36261 0.0
C27 C 0.80421 0.94672 0.35799 0.0
C28 C 0.07531 0.03128 0.73923 0.0
C29 C 0.08406 0.02868 0.65467 0.0
O30 O 0.01596 1.00256 0.72268 0.0
Zn31 Zn 0.0791 0.03054 0.69695 0.0
O32 O 0.1482 0.06659 0.73434 0.0
Zn33 Zn 0.20763 0.09551 0.70341 0.0
O34 O 0.26778 0.21327 0.70803 0.0
O35 O 0.1352 0.16049 0.70109 0.0
O36 O 0.15524 0.06561 0.66678 0.0
O37 O 0.02199 0.99824 0.66524 0.0
O38 O 0.13445 0.95674 0.69816 0.0
O39 O 0.26739 0.03936 0.70479 0.0
C40 C 0.20709 0.22304 0.7052 0.0
C41 C 0.20631 0.9675 0.70128 0.0
H42 H 0.96158 0.30022 0.04249 0.0
H43 H 0.84283 0.31551 0.04486 0.0
H44 H 0.68623 0.0549 0.03264 0.0
H45 H 0.80375 0.03889 0.03041 0.0
H46 H 0.70152 0.25642 0.0106 0.0
H47 H 0.62425 0.12549 0.09346 0.0
H48 H 0.72213 0.1598 0.08392 0.0
H49 H 0.63655 0.062 0.07141 0.0
C50 C 0.90187 0.2462 0.04034 0.0
C51 C 0.89228 0.16832 0.0364 0.0
C52 C 0.83416 0.25507 0.04169 0.0
C53 C 0.75599 0.18631 0.03933 0.0
C54 C 0.7462 0.10872 0.03499 0.0
H55 H 0.25768 0.04111 0.03129 0.0
H56 H 0.39235 0.05768 0.03279 0.0
C57 C 0.81356 0.09977 0.0336 0.0
C58 C 0.68391 0.19473 0.04102 0.0
H59 H 0.52119 0.13645 0.07076 0.0
C60 C 0.66258 0.23137 0.02394 0.0
C61 C 0.63357 0.16224 0.05852 0.0
C62 C 0.65556 0.12586 0.07802 0.0
C63 C 0.5898 0.23248 0.02315 0.0
C64 C 0.53792 0.19706 0.04011 0.0
C65 C 0.56091 0.16322 0.05771 0.0
C66 C 0.45683 0.18908 0.039 0.0
C67 C 0.56709 0.26805 1.00356 0.0
C68 C 0.44837 0.25765 0.04214 0.0
C69 C 0.37105 0.24845 0.04129 0.0
C70 C 0.30102 0.17045 0.03736 0.0
C71 C 0.31012 0.10211 0.03433 0.0
C72 C 0.38714 0.11138 0.0352 0.0
H73 H 0.60627 0.27933 0.98949 0.0
H74 H 0.50273 0.22687 0.99554 0.0
H75 H 0.57389 0.32681 0.0109 0.0
H76 H 0.50152 0.31817 0.04547 0.0
H77 H 0.36619 0.3023 0.04377 0.0
H78 H 0.76343 0.78891 0.35822 0.0
H79 H 0.6299 0.67179 0.35969 0.0
H80 H 0.52509 0.82461 0.35935 0.0
H81 H 0.65906 0.94287 0.3577 0.0
H82 H 0.53087 0.65566 0.3956 0.0
H83 H 0.37622 0.63099 0.30649 0.0
H84 H 0.48544 0.68808 0.31406 0.0
H85 H 0.42587 0.72883 0.32462 0.0
C86 C 0.71206 0.79786 0.35827 0.0
C87 C 0.72204 0.87543 0.35781 0.0
C88 C 0.63575 0.73073 0.35916 0.0
C89 C 0.56757 0.73939 0.35945 0.0
C90 C 0.57681 0.81645 0.35879 0.0
H91 H 0.06491 0.3477 0.3616 0.0
H92 H 0.18482 0.48283 0.36242 0.0
C93 C 0.65344 0.88397 0.35794 0.0
C94 C 0.48778 0.66765 0.36129 0.0
H95 H 0.29964 0.53455 0.33052 0.0
C96 C 0.48009 0.62947 0.38144 0.0
C97 C 0.4215 0.63409 0.34288 0.0
C98 C 0.42727 0.67201 0.32068 0.0
C99 C 0.40845 0.55758 0.38349 0.0
C100 C 0.34332 0.52208 0.36468 0.0
C101 C 0.34979 0.56184 0.34489 0.0
C102 C 0.27051 0.44097 0.36456 0.0
C103 C 0.40336 0.52003 0.40575 0.0
C104 C 0.27892 0.37268 0.3652 0.0
C105 C 0.21089 0.29576 0.36475 0.0
C106 C 0.1327 0.28524 0.3635 0.0
C107 C 0.12425 0.35372 0.36269 0.0
C108 C 0.19263 0.43091 0.36311 0.0
H109 H 0.44628 0.56586 0.42084 0.0
H110 H 0.34091 0.49132 0.41046 0.0
H111 H 0.4197 0.4724 0.40298 0.0
H112 H 0.33824 0.37877 0.36581 0.0
H113 H 0.21975 0.24443 0.36525 0.0
H114 H 0.34854 0.96565 0.70872 0.0
H115 H 0.36385 0.84621 0.70861 0.0
H116 H 0.10368 0.68926 0.69379 0.0
H117 H 0.08772 0.80737 0.69363 0.0
H118 H 0.29887 0.72138 0.73727 0.0
H119 H 0.18527 0.59797 0.64264 0.0
H120 H 0.21645 0.70112 0.65446 0.0
H121 H 0.1174 0.61877 0.65738 0.0
C122 C 0.29464 0.90568 0.7053 0.0
C123 C 0.21692 0.89612 0.70104 0.0
C124 C 0.30352 0.83757 0.70528 0.0
C125 C 0.23498 0.75892 0.70081 0.0
C126 C 0.15748 0.74935 0.69678 0.0
H127 H 0.08885 0.26171 0.69943 0.0
H128 H 0.10537 0.3959 0.69892 0.0
C129 C 0.14851 0.81711 0.69682 0.0
C130 C 0.24338 0.68631 0.70094 0.0
H131 H 0.19034 0.50666 0.6676 0.0
C132 C 0.27636 0.67488 0.72197 0.0
C133 C 0.2142 0.62599 0.68091 0.0
C134 C 0.18207 0.63677 0.6575 0.0
C135 C 0.27699 0.60266 0.72382 0.0
C136 C 0.24475 0.54104 0.70403 0.0
C137 C 0.2146 0.55386 0.68279 0.0
C138 C 0.23667 0.46061 0.70531 0.0
C139 C 0.30866 0.59121 0.74718 0.0
C140 C 0.30521 0.45246 0.70911 0.0
C141 C 0.29604 0.37542 0.70942 0.0
C142 C 0.21811 0.30536 0.70587 0.0
C143 C 0.14979 0.3142 0.70225 0.0
C144 C 0.15903 0.39091 0.70191 0.0
H145 H 0.31801 0.63829 0.76174 0.0
H146 H 0.26603 0.53031 0.75167 0.0
H147 H 0.3678 0.59506 0.74595 0.0
H148 H 0.36572 0.50545 0.71143 0.0
H149 H 0.34989 0.37072 0.71216 0.0
H150 H 0.04811 0.91928 0.2934 0.0
H151 H 0.05487 0.90687 0.25098 0.0
H152 H 0.93011 0.03902 0.2415 0.0
H153 H 0.92187 0.05059 0.28361 0.0
H154 H 0.87175 0.90315 0.20752 0.0
H155 H 0.20862 0.09466 0.21787 0.0
H156 H 0.1693 1.00822 0.23336 0.0
H157 H 0.15178 0.08979 0.24178 0.0
C158 C 0.02183 0.94541 0.28227 0.0
C159 C 0.98488 0.98637 0.29194 0.0
C160 C 0.02611 0.93859 0.25805 0.0
C161 C 0.99401 0.97303 0.24316 0.0
C162 C 0.95544 0.01215 0.25269 0.0
H163 H 0.08991 0.14048 0.11077 0.0
H164 H 0.0799 0.11834 0.15177 0.0
C165 C 0.95096 0.01885 0.27681 0.0
C166 C 1.00144 0.97018 0.21768 0.0
H167 H 0.13934 0.04221 0.17914 0.0
C168 C 0.9302 0.93285 0.20125 0.0
C169 C 0.07786 1.00967 0.20963 0.0
C170 C 0.15638 0.05349 0.22652 0.0
C171 C 0.93322 0.93554 0.17701 0.0
C172 C 1.00964 0.97551 0.16898 0.0
C173 C 0.08088 0.01116 0.18536 0.0
C174 C 0.01709 0.98718 0.14396 0.0
C175 C 0.85467 0.89878 0.16034 0.0
C176 C 0.98592 0.9207 0.12592 0.0
C177 C 0.99118 0.93313 0.10233 0.0
C178 C 0.02823 0.01233 0.09643 0.0
C179 C 0.0608 0.07866 0.11464 0.0
C180 C 0.05532 0.06617 0.13812 0.0
H181 H 0.80222 0.88538 0.16984 0.0
H182 H 0.85871 0.94014 0.14747 0.0
H183 H 0.84255 0.8409 0.15032 0.0
H184 H 0.95744 0.85927 0.13008 0.0
H185 H 0.96596 0.88075 0.08875 0.0
H186 H 0.20481 0.08502 0.62706 0.0
H187 H 0.19117 0.08164 0.58434 0.0
H188 H 0.9306 0.95905 0.58048 0.0
H189 H 0.94346 0.96122 0.62331 0.0
H190 H 0.9844 0.89172 0.54575 0.0
H191 H 0.13079 0.22623 0.54958 0.0
H192 H 0.19062 0.19419 0.56603 0.0
H193 H 0.09584 0.17558 0.57485 0.0
C194 C 0.14448 0.05719 0.61717 0.0
C195 C 0.07519 0.02384 0.62865 0.0
C196 C 0.13689 0.05569 0.59275 0.0
C197 C 0.06 0.02135 0.57932 0.0
C198 C 0.99055 0.98627 0.59058 0.0
H199 H 0.95342 0.08972 0.43689 0.0
H200 H 0.96577 0.08609 0.47928 0.0
C201 C 0.99803 0.98765 0.61505 0.0
C202 C 0.05224 0.02233 0.55352 0.0
H203 H 0.10444 0.14981 0.51194 0.0
C204 C 1.01045 0.94806 0.53832 0.0
C205 C 0.08551 0.09599 0.54392 0.0
C206 C 0.12758 0.17759 0.5594 0.0
C207 C 1.00202 0.94549 0.51371 0.0
C208 C 0.03737 0.01918 0.50412 0.0
C209 C 0.07818 0.0934 0.51934 0.0
C210 C 0.03051 0.02085 0.47834 0.0
C211 C 0.95406 0.86401 0.49822 0.0
C212 C 0.06386 0.98631 0.46375 0.0
C213 C 0.05685 0.98817 0.43943 0.0
C214 C 0.01676 0.02508 0.4293 0.0
C215 C 0.98457 0.06068 0.44406 0.0
C216 C 0.99156 0.05871 0.46832 0.0
H217 H 0.91466 0.81517 0.5082 0.0
H218 H 0.91542 0.86607 0.48316 0.0
H219 H 0.9967 0.84771 0.491 0.0
H220 H 0.09563 0.95824 0.4712 0.0
H221 H 0.08265 0.96054 0.42859 0.0
H222 H 0.179 0.03876 0.77577 0.0
H223 H 0.15877 0.02913 0.81694 0.0
H224 H 0.92229 1.00148 0.80033 0.0
H225 H 0.94085 1.00732 0.75875 0.0
H226 H 0.14325 0.12622 0.84709 0.0
H227 H 0.86571 0.82271 0.83899 0.0
H228 H 0.92204 0.85795 0.81472 0.0
H229 H 0.85117 0.88917 0.82178 0.0
C230 C 0.12234 0.0299 0.78084 0.0
C231 C 0.06145 0.0237 0.76403 0.0
C232 C 0.1108 0.02434 0.8044 0.0
C233 C 0.03853 0.01344 0.81178 0.0
C234 C 0.97761 1.00754 0.79502 0.0
H235 H 0.02653 0.14686 0.9592 0.0
H236 H 0.02444 0.13856 0.91652 0.0
C237 C 0.98854 0.01157 0.77129 0.0
C238 C 0.02976 0.01314 0.83723 0.0
H239 H 0.90719 0.90605 0.87646 0.0
C240 C 0.09174 0.07776 0.85347 0.0
C241 C 0.96313 0.94947 0.84567 0.0
C242 C 0.89719 0.87551 0.8294 0.0
C243 C 0.0891 0.08073 0.8778 0.0
C244 C 0.02079 0.01898 0.88619 0.0
C245 C 0.95897 0.95394 0.87001 0.0
C246 C 0.01358 0.0203 0.91172 0.0
C247 C 0.16091 0.14894 0.89425 0.0
C248 C 1.00323 0.9545 0.92308 0.0
C249 C 1.00241 0.95828 0.94746 0.0
C250 C 1.01271 0.02829 0.96091 0.0
C251 C 0.01983 0.09266 0.94936 0.0
C252 C 0.01915 0.08822 0.92498 0.0
H253 H 0.21693 0.17521 0.88577 0.0
H254 H 0.14825 0.19831 0.89905 0.0
H255 H 0.17283 0.12782 0.91067 0.0
H256 H 0.99818 0.90117 0.91319 0.0
H257 H 0.99665 0.90768 0.95588 0.0
loop_
_geom_bond_atom_site_label_1
_geom_bond_atom_site_label_2
_geom_bond_distance
_geom_bond_site_symmetry_2
_ccdc_geom_bond_type
C0 O2 1.248 . S
C0 O4 1.256 1_565 S
C1 O8 1.250 . S
C1 O9 1.253 1_545 S
O2 C0 1.248 . S
O2 Zn3 2.028 1_455 S
Zn3 O2 2.028 1_655 S
Zn3 O7 2.035 . S
Zn3 O9 2.035 . S
Zn3 O10 2.028 1_554 S
O4 C0 1.256 1_545 S
O4 Zn5 2.035 . S
Zn5 O4 2.035 . S
Zn5 O6 2.028 . S
Zn5 O8 2.028 1_455 S
Zn5 O11 2.035 1_554 S
O6 Zn5 2.028 . S
O6 C12 1.250 . S
O7 Zn3 2.035 . S
O7 C12 1.255 1_665 S
O8 C1 1.250 . S
O8 Zn5 2.028 1_655 S
O9 C1 1.253 1_565 S
O9 Zn3 2.035 . S
O10 Zn3 2.028 1_556 S
O10 C13 1.247 1_655 S
O11 Zn5 2.035 1_556 S
O11 C13 1.258 1_545 S
C12 O6 1.250 . S
C12 O7 1.255 1_445 S
C13 O10 1.247 1_455 S
C13 O11 1.258 1_565 S
C14 O16 1.247 1_455 S
C14 O18 1.258 . S
C15 O22 1.247 . S
C15 O23 1.258 1_455 S
O16 C14 1.247 1_655 S
O16 Zn17 2.028 . S
Zn17 O16 2.028 . S
Zn17 O21 2.035 1_655 S
Zn17 O23 2.035 . S
Zn17 O24 2.028 . S
O18 C14 1.258 . S
O18 Zn19 2.035 . S
Zn19 O18 2.035 . S
Zn19 O20 2.028 . S
Zn19 O22 2.028 . S
Zn19 O25 2.035 1_445 S
O20 Zn19 2.028 . S
O20 C26 1.247 . S
O21 Zn17 2.035 1_455 S
O21 C26 1.258 . S
O22 C15 1.247 . S
O22 Zn19 2.028 . S
O23 C15 1.258 1_655 S
O23 Zn17 2.035 . S
O24 Zn17 2.028 . S
O24 C27 1.247 1_545 S
O25 Zn19 2.035 1_665 S
O25 C27 1.258 . S
C26 O20 1.247 . S
C26 O21 1.258 . S
C27 O24 1.247 1_565 S
C27 O25 1.258 . S
C28 O30 1.247 . S
C28 O32 1.258 . S
C29 O36 1.247 . S
C29 O37 1.258 . S
O30 C28 1.247 . S
O30 Zn31 2.028 . S
Zn31 O30 2.028 . S
Zn31 O35 2.035 . S
Zn31 O37 2.035 . S
Zn31 O38 2.028 1_545 S
O32 C28 1.258 . S
O32 Zn33 2.035 . S
Zn33 O32 2.035 . S
Zn33 O34 2.028 . S
Zn33 O36 2.028 . S
Zn33 O39 2.035 . S
O34 Zn33 2.028 . S
O34 C40 1.247 . S
O35 Zn31 2.035 . S
O35 C40 1.258 . S
O36 C29 1.247 . S
O36 Zn33 2.028 . S
O37 C29 1.258 . S
O37 Zn31 2.035 . S
O38 Zn31 2.028 1_565 S
O38 C41 1.247 . S
O39 Zn33 2.035 . S
O39 C41 1.258 1_545 S
C40 O34 1.247 . S
C40 O35 1.258 . S
C41 O38 1.247 . S
C41 O39 1.258 1_565 S
H42 C50 0.929 . S
H43 C52 0.930 . S
H44 C54 0.930 1_556 S
H45 C57 0.929 1_556 S
H46 C60 0.930 . S
H47 C62 0.960 . S
H48 C62 0.960 . S
H49 C62 0.960 . S
C50 H42 0.929 . S
C50 C51 1.377 . S
C50 C52 1.384 . S
C51 C50 1.377 . S
C51 C57 1.390 1_545 S
C52 H43 0.930 . S
C52 C50 1.384 . S
C52 C53 1.372 . S
C53 C52 1.372 . S
C53 C54 1.400 1_545 S
C53 C58 1.490 . S
C54 H44 0.930 1_554 S
C54 C53 1.400 1_565 S
C54 C57 1.386 . S
H55 C71 0.930 1_556 S
H56 C72 0.931 1_556 S
C57 H45 0.929 1_554 S
C57 C51 1.390 1_565 S
C57 C54 1.386 . S
C58 C53 1.490 . S
C58 C60 1.395 . S
C58 C61 1.403 1_545 S
H59 C65 0.930 . S
C60 H46 0.930 . S
C60 C58 1.395 . S
C60 C63 1.403 . S
C61 C58 1.403 1_565 S
C61 C62 1.524 . S
C61 C65 1.400 . S
C62 H47 0.960 . S
C62 H48 0.960 . S
C62 H49 0.960 . S
C62 C61 1.524 . S
C63 C60 1.403 . S
C63 C64 1.392 . S
C63 C67 1.495 . S
C64 C63 1.392 . S
C64 C65 1.385 1_545 S
C64 C66 1.478 . S
C65 H59 0.930 . S
C65 C61 1.400 . S
C65 C64 1.385 1_565 S
C66 C64 1.478 . S
C66 C68 1.381 . S
C66 C72 1.383 1_545 S
C67 C63 1.495 . S
C67 H73 0.959 . S
C67 H74 0.925 1_554 S
C67 H75 0.960 . S
C68 C66 1.381 . S
C68 C69 1.394 . S
C68 H76 0.930 . S
C69 C68 1.394 . S
C69 C70 1.383 . S
C69 H77 0.929 . S
C70 C69 1.383 . S
C70 C71 1.377 1_545 S
C71 H55 0.930 1_554 S
C71 C70 1.377 1_565 S
C71 C72 1.379 . S
C72 H56 0.931 1_554 S
C72 C66 1.383 1_565 S
C72 C71 1.379 . S
H73 C67 0.959 . S
H74 C67 0.925 1_556 S
H75 C67 0.960 . S
H76 C68 0.930 . S
H77 C69 0.929 . S
H78 C86 0.929 . S
H79 C88 0.930 . S
H80 C90 0.930 . S
H81 C93 0.929 . S
H82 C96 0.930 . S
H83 C98 0.960 . S
H84 C98 0.960 . S
H85 C98 0.960 . S
C86 H78 0.929 . S
C86 C87 1.377 . S
C86 C88 1.384 . S
C87 C86 1.377 . S
C87 C93 1.390 . S
C88 H79 0.930 . S
C88 C86 1.384 . S
C88 C89 1.372 . S
C89 C88 1.372 . S
C89 C90 1.400 . S
C89 C94 1.490 . S
C90 H80 0.930 . S
C90 C89 1.400 . S
C90 C93 1.386 . S
H91 C107 0.930 . S
H92 C108 0.931 . S
C93 H81 0.929 . S
C93 C87 1.390 . S
C93 C90 1.386 . S
C94 C89 1.490 . S
C94 C96 1.395 . S
C94 C97 1.403 . S
H95 C101 0.930 . S
C96 H82 0.930 . S
C96 C94 1.395 . S
C96 C99 1.403 . S
C97 C94 1.403 . S
C97 C98 1.524 . S
C97 C101 1.400 . S
C98 H83 0.960 . S
C98 H84 0.960 . S
C98 H85 0.960 . S
C98 C97 1.524 . S
C99 C96 1.403 . S
C99 C100 1.392 . S
C99 C103 1.495 . S
C100 C99 1.392 . S
C100 C101 1.385 . S
C100 C102 1.478 . S
C101 H95 0.930 . S
C101 C97 1.400 . S
C101 C100 1.385 . S
C102 C100 1.478 . S
C102 C104 1.381 . S
C102 C108 1.383 . S
C103 C99 1.495 . S
C103 H109 0.959 . S
C103 H110 0.961 . S
C103 H111 0.960 . S
C104 C102 1.381 . S
C104 C105 1.394 . S
C104 H112 0.930 . S
C105 C104 1.394 . S
C105 C106 1.383 . S
C105 H113 0.929 . S
C106 C105 1.383 . S
C106 C107 1.377 . S
C107 H91 0.930 . S
C107 C106 1.377 . S
C107 C108 1.379 . S
C108 H92 0.931 . S
C108 C102 1.383 . S
C108 C107 1.379 . S
H109 C103 0.959 . S
H110 C103 0.961 . S
H111 C103 0.960 . S
H112 C104 0.930 . S
H113 C105 0.929 . S
H114 C122 0.929 . S
H115 C124 0.930 . S
H116 C126 0.930 . S
H117 C129 0.929 . S
H118 C132 0.930 . S
H119 C134 0.960 . S
H120 C134 0.960 . S
H121 C134 0.960 . S
C122 H114 0.929 . S
C122 C123 1.377 . S
C122 C124 1.384 . S
C123 C122 1.377 . S
C123 C129 1.390 . S
C124 H115 0.930 . S
C124 C122 1.384 . S
C124 C125 1.372 . S
C125 C124 1.372 . S
C125 C126 1.400 . S
C125 C130 1.490 . S
C126 H116 0.930 . S
C126 C125 1.400 . S
C126 C129 1.386 . S
H127 C143 0.930 . S
H128 C144 0.931 . S
C129 H117 0.929 . S
C129 C123 1.390 . S
C129 C126 1.386 . S
C130 C125 1.490 . S
C130 C132 1.395 . S
C130 C133 1.403 . S
H131 C137 0.938 . S
C132 H118 0.930 . S
C132 C130 1.395 . S
C132 C135 1.403 . S
C133 C130 1.403 . S
C133 C134 1.524 1_455 S
C133 C137 1.400 . S
C134 H119 0.960 . S
C134 H120 0.960 . S
C134 H121 0.960 . S
C134 C133 1.524 1_655 S
C135 C132 1.403 . S
C135 C136 1.392 . S
C135 C139 1.495 . S
C136 C135 1.392 . S
C136 C137 1.385 . S
C136 C138 1.478 . S
C137 H131 0.938 . S
C137 C133 1.400 . S
C137 C136 1.385 . S
C138 C136 1.478 . S
C138 C140 1.381 . S
C138 C144 1.383 . S
C139 C135 1.495 . S
C139 H145 0.959 . S
C139 H146 0.961 . S
C139 H147 0.960 . S
C140 C138 1.381 . S
C140 C141 1.394 . S
C140 H148 0.930 . S
C141 C140 1.394 . S
C141 C142 1.383 . S
C141 H149 0.929 . S
C142 C141 1.383 . S
C142 C143 1.377 . S
C143 H127 0.930 . S
C143 C142 1.377 . S
C143 C144 1.379 . S
C144 H128 0.931 . S
C144 C138 1.383 . S
C144 C143 1.379 . S
H145 C139 0.959 . S
H146 C139 0.961 . S
H147 C139 0.960 . S
H148 C140 0.930 . S
H149 C141 0.929 . S
H150 C158 0.929 . S
H151 C160 0.930 . S
H152 C162 0.930 . S
H153 C165 0.929 . S
H154 C168 0.930 . S
H155 C170 0.960 . S
H156 C170 0.960 . S
H157 C170 0.960 1_655 S
C158 H150 0.929 . S
C158 C159 1.377 . S
C158 C160 1.384 . S
C159 C158 1.377 . S
C159 C165 1.390 1_455 S
C160 H151 0.930 . S
C160 C158 1.384 . S
C160 C161 1.372 . S
C161 C160 1.372 . S
C161 C162 1.400 1_455 S
C161 C166 1.490 . S
C162 H152 0.930 . S
C162 C161 1.400 1_655 S
C162 C165 1.386 . S
H163 C179 0.930 . S
H164 C180 0.931 . S
C165 H153 0.929 . S
C165 C159 1.390 1_655 S
C165 C162 1.386 . S
C166 C161 1.490 . S
C166 C168 1.395 1_445 S
C166 C169 1.403 . S
H167 C173 0.930 . S
C168 H154 0.930 . S
C168 C166 1.395 1_665 S
C168 C171 1.403 . S
C169 C166 1.403 . S
C169 C170 1.524 . S
C169 C173 1.400 . S
C170 H155 0.960 . S
C170 H156 0.960 . S
C170 H157 0.960 1_455 S
C170 C169 1.524 . S
C171 C168 1.403 . S
C171 C172 1.392 1_665 S
C171 C175 1.495 . S
C172 C171 1.392 1_445 S
C172 C173 1.385 . S
C172 C174 1.477 . S
C173 H167 0.930 . S
C173 C169 1.400 . S
C173 C172 1.385 . S
C174 C172 1.477 . S
C174 C176 1.387 . S
C174 C180 1.378 1_455 S
C175 C171 1.495 . S
C175 H181 0.959 . S
C175 H182 0.961 . S
C175 H183 0.960 1_655 S
C176 C174 1.387 . S
C176 C177 1.394 1_545 S
C176 H184 0.931 . S
C177 C176 1.394 1_565 S
C177 C178 1.383 . S
C177 H185 0.929 . S
C178 C177 1.383 . S
C178 C179 1.377 1_465 S
C179 H163 0.930 . S
C179 C178 1.377 1_645 S
C179 C180 1.379 . S
C180 H164 0.931 . S
C180 C174 1.378 1_655 S
C180 C179 1.379 . S
H181 C175 0.959 . S
H182 C175 0.961 . S
H183 C175 0.960 1_455 S
H184 C176 0.931 . S
H185 C177 0.929 . S
H186 C194 0.929 . S
H187 C196 0.930 . S
H188 C198 0.930 . S
H189 C201 0.929 . S
H190 C204 0.930 1_565 S
H191 C206 0.960 . S
H192 C206 0.960 . S
H193 C206 0.960 . S
C194 H186 0.929 . S
C194 C195 1.377 . S
C194 C196 1.384 . S
C195 C194 1.377 . S
C195 C201 1.390 . S
C196 H187 0.930 . S
C196 C194 1.384 . S
C196 C197 1.372 . S
C197 C196 1.372 . S
C197 C198 1.400 . S
C197 C202 1.490 . S
C198 H188 0.930 . S
C198 C197 1.400 . S
C198 C201 1.386 . S
H199 C215 0.930 . S
H200 C216 0.931 . S
C201 H189 0.929 . S
C201 C195 1.390 . S
C201 C198 1.386 . S
C202 C197 1.490 . S
C202 C204 1.395 . S
C202 C205 1.403 . S
H203 C209 0.930 . S
C204 H190 0.930 1_545 S
C204 C202 1.395 . S
C204 C207 1.403 . S
C205 C202 1.403 . S
C205 C206 1.524 . S
C205 C209 1.400 . S
C206 H191 0.960 . S
C206 H192 0.960 . S
C206 H193 0.960 . S
C206 C205 1.524 . S
C207 C204 1.403 . S
C207 C208 1.392 . S
C207 C211 1.496 1_445 S
C208 C207 1.392 . S
C208 C209 1.385 . S
C208 C210 1.478 . S
C209 H203 0.930 . S
C209 C205 1.400 . S
C209 C208 1.385 . S
C210 C208 1.478 . S
C210 C212 1.381 . S
C210 C216 1.383 1_455 S
C211 C207 1.496 1_665 S
C211 H217 0.958 . S
C211 H218 0.964 . S
C211 H219 0.956 1_655 S
C212 C210 1.381 . S
C212 C213 1.394 . S
C212 H220 0.930 . S
C213 C212 1.394 . S
C213 C214 1.383 . S
C213 H221 0.929 . S
C214 C213 1.383 . S
C214 C215 1.377 1_455 S
C215 H199 0.930 . S
C215 C214 1.377 1_655 S
C215 C216 1.379 . S
C216 H200 0.931 . S
C216 C210 1.383 1_655 S
C216 C215 1.379 . S
H217 C211 0.958 . S
H218 C211 0.964 . S
H219 C211 0.956 1_455 S
H220 C212 0.930 . S
H221 C213 0.929 . S
H222 C230 0.929 1_565 S
H223 C232 0.930 1_565 S
H224 C234 0.930 . S
H225 C237 0.929 . S
H226 C240 0.930 . S
H227 C242 0.960 . S
H228 C242 0.960 1_565 S
H229 C242 0.960 . S
C230 H222 0.929 1_545 S
C230 C231 1.377 . S
C230 C232 1.384 . S
C231 C230 1.377 . S
C231 C237 1.390 . S
C232 H223 0.930 1_545 S
C232 C230 1.384 . S
C232 C233 1.372 . S
C233 C232 1.372 . S
C233 C234 1.400 . S
C233 C238 1.490 . S
C234 H224 0.930 . S
C234 C233 1.400 . S
C234 C237 1.386 . S
H235 C251 0.930 . S
H236 C252 0.931 . S
C237 H225 0.929 . S
C237 C231 1.390 . S
C237 C234 1.386 . S
C238 C233 1.490 . S
C238 C240 1.395 . S
C238 C241 1.395 1_455 S
H239 C245 0.943 . S
C240 H226 0.930 . S
C240 C238 1.395 . S
C240 C243 1.403 . S
C241 C238 1.395 1_655 S
C241 C242 1.530 . S
C241 C245 1.400 . S
C242 H227 0.960 . S
C242 H228 0.960 1_545 S
C242 H229 0.960 . S
C242 C241 1.530 . S
C243 C240 1.403 . S
C243 C244 1.392 . S
C243 C247 1.495 . S
C244 C243 1.392 . S
C244 C245 1.374 1_455 S
C244 C246 1.478 . S
C245 H239 0.943 . S
C245 C241 1.400 . S
C245 C244 1.374 1_655 S
C246 C244 1.478 . S
C246 C248 1.381 1_545 S
C246 C252 1.383 . S
C247 C243 1.495 . S
C247 H253 0.959 . S
C247 H254 0.961 . S
C247 H255 0.960 . S
C248 C246 1.381 1_565 S
C248 C249 1.394 . S
C248 H256 0.930 . S
C249 C248 1.394 . S
C249 C250 1.383 1_565 S
C249 H257 0.929 . S
C250 C249 1.383 1_545 S
C250 C251 1.377 . S
C251 H235 0.930 . S
C251 C250 1.377 . S
C251 C252 1.379 . S
C252 H236 0.931 . S
C252 C246 1.383 . S
C252 C251 1.379 . S
H253 C247 0.959 . S
H254 C247 0.961 . S
H255 C247 0.960 . S
H256 C248 0.930 . S
H257 C249 0.929 . S
C51 C1 1.502 . S
C70 C0 1.498 1_545 S
C87 C27 1.498 . S
C106 C26 1.493 . S
C123 C41 1.498 . S
C142 C40 1.496 . S
C159 C15 1.528 . S
C178 C12 1.529 1_565 S
C195 C29 1.529 . S
C214 C14 1.525 . S
C231 C28 1.529 . S
C250 C13 1.528 1_545 S
