# Generated by pormake.
# Topology dmp, (4)-cn, num edge types: 1
# Building blocks:
#     Node 0, Type 0, BuildingBlock: GALJAG_clean_sbu_0, # of connection points: 4
#     Node 1, Type 0, BuildingBlock: GALJAG_clean_sbu_0, # of connection points: 4
#     Node 2, Type 0, BuildingBlock: GALJAG_clean_sbu_0, # of connection points: 4
#     Node 3, Type 0, BuildingBlock: GALJAG_clean_sbu_0, # of connection points: 4
#     Edge 4, Type (0, 0), BuildingBlock: CIFDUS_clean_linker_0, # of connection points: 2
#     Edge 5, Type (0, 0), BuildingBlock: CIFDUS_clean_linker_0, # of connection points: 2
#     Edge 6, Type (0, 0), BuildingBlock: CIFDUS_clean_linker_0, # of connection points: 2
#     Edge 7, Type (0, 0), BuildingBlock: CIFDUS_clean_linker_0, # of connection points: 2
#     Edge 8, Type (0, 0), BuildingBlock: CIFDUS_clean_linker_0, # of connection points: 2
#     Edge 9, Type (0, 0), BuildingBlock: CIFDUS_clean_linker_0, # of connection points: 2
#     Edge 10, Type (0, 0), BuildingBlock: CIFDUS_clean_linker_0, # of connection points: 2
#     Edge 11, Type (0, 0), BuildingBlock: CIFDUS_clean_linker_0, # of connection points: 2
# Relax obj value: 0.059
# Max RMSD: 0.179
# Mean RMSD: 0.179
data_MOF--net-dmp--node1-GALJAG_clean_sbu_0--edge1-CIFDUS_clean_linker_0
_symmetry_space_group_name_H-M    P1
_symmetry_Int_Tables_number       1
_symmetry_cell_setting            triclinic
loop_
_symmetry_equiv_pos_as_xyz
'x, y, z'
_cell_length_a     32.013682
_cell_length_b     18.693472
_cell_length_c     11.008511
_cell_angle_alpha  89.980075
_cell_angle_beta   90.86264
_cell_angle_gamma 90.135225
loop_
_atom_site_label
_atom_site_type_symbol
_atom_site_fract_x
_atom_site_fract_y
_atom_site_fract_z
_atom_type_partial_charge
In0 In 0.11735 0.25511 0.25078 0.0
O1 O 0.13995 0.32425 0.09089 0.0
O2 O 0.18196 0.30311 0.23753 0.0
C3 C 0.05581 0.17251 0.15838 0.0
C4 C 0.07662 0.35732 0.37365 0.0
C5 C 0.16243 0.14421 0.33407 0.0
O6 O 0.08273 0.2023 0.09199 0.0
O7 O 0.05904 0.18713 0.27011 0.0
O8 O 0.1541 0.19673 0.40219 0.0
O9 O 0.14864 0.14899 0.22643 0.0
C10 C 0.17584 0.33404 0.13723 0.0
O11 O 0.09815 0.31004 0.42764 0.0
O12 O 0.07559 0.35211 0.25952 0.0
In13 In 0.38197 0.74826 0.23767 0.0
O14 O 0.34131 0.80377 0.37993 0.0
O15 O 0.31897 0.7945 0.19664 0.0
C16 C 0.44406 0.67227 0.3371 0.0
C17 C 0.42548 0.86221 0.16326 0.0
C18 C 0.34544 0.6293 0.15421 0.0
O19 O 0.41576 0.70025 0.40119 0.0
O20 O 0.44158 0.68543 0.22446 0.0
O21 O 0.35771 0.67725 0.08096 0.0
O22 O 0.35114 0.64259 0.26572 0.0
C23 C 0.31247 0.81664 0.30289 0.0
O24 O 0.40894 0.81888 0.08776 0.0
O25 O 0.42015 0.84709 0.27367 0.0
In26 In 0.87937 0.75696 0.73029 0.0
O27 O 0.90397 0.70687 0.55751 0.0
O28 O 0.93619 0.68488 0.72459 0.0
C29 C 0.81407 0.83388 0.64469 0.0
C30 C 0.83929 0.64798 0.83741 0.0
C31 C 0.92846 0.86192 0.82153 0.0
O32 O 0.84503 0.8201 0.57903 0.0
O33 O 0.81609 0.80781 0.75002 0.0
O34 O 0.90979 0.81821 0.88979 0.0
O35 O 0.9228 0.85145 0.70953 0.0
C36 C 0.93349 0.6742 0.61133 0.0
O37 O 0.85208 0.70135 0.89843 0.0
O38 O 0.84674 0.65041 0.72528 0.0
In39 In 0.61454 0.25905 0.77919 0.0
O40 O 0.63866 0.18306 0.63237 0.0
O41 O 0.64342 0.15342 0.82062 0.0
C42 C 0.57302 0.37115 0.68807 0.0
C43 C 0.55038 0.18536 0.8681 0.0
C44 C 0.68507 0.32676 0.84579 0.0
O45 O 0.58942 0.32473 0.61952 0.0
O46 O 0.57774 0.36026 0.80071 0.0
O47 O 0.65566 0.31846 0.92061 0.0
O48 O 0.67845 0.30078 0.7415 0.0
C49 C 0.64943 0.13659 0.71109 0.0
O50 O 0.5784 0.21224 0.93746 0.0
O51 O 0.554 0.19946 0.75636 0.0
H52 H 0.30543 0.92712 0.46349 0.0
H53 H 0.23699 0.80455 0.19441 0.0
H54 H 0.18078 0.89207 0.19449 0.0
H55 H 0.15684 0.01157 0.24516 0.0
H56 H 0.22506 0.13914 0.50704 0.0
H57 H 0.27541 0.04146 0.53735 0.0
C58 C 0.27759 0.9188 0.40792 0.0
C59 C 0.27536 0.86012 0.32812 0.0
C60 C 0.24581 0.97078 0.40559 0.0
C61 C 0.2394 0.84981 0.25565 0.0
C62 C 0.20736 0.89992 0.25524 0.0
C63 C 0.18236 0.01747 0.31048 0.0
C64 C 0.18786 0.08245 0.37225 0.0
C65 C 0.21116 0.96198 0.32561 0.0
C66 C 0.22046 0.08938 0.45818 0.0
C67 C 0.24931 0.03377 0.47486 0.0
H68 H 0.25836 0.33489 0.18423 0.0
H69 H 0.1623 0.44798 0.9849 0.0
H70 H 0.21067 0.54759 0.94998 0.0
H71 H 0.27613 0.61087 0.01104 0.0
H72 H 0.3692 0.49802 0.22253 0.0
H73 H 0.32681 0.38945 0.21568 0.0
C74 C 0.24834 0.38064 0.13061 0.0
C75 C 0.20679 0.38488 0.089 0.0
C76 C 0.27587 0.43799 0.11385 0.0
C77 C 0.19421 0.4438 0.01825 0.0
C78 C 0.22177 0.50095 0.99912 0.0
C79 C 0.28758 0.56158 0.05134 0.0
C80 C 0.32553 0.56181 0.11713 0.0
C81 C 0.26211 0.49998 0.05128 0.0
C82 C 0.34001 0.49847 0.17131 0.0
C83 C 0.31568 0.43668 0.16818 0.0
H84 H 0.70685 0.1069 0.53701 0.0
H85 H 0.63482 0.01205 0.82344 0.0
H86 H 0.67569 0.90264 0.81151 0.0
H87 H 0.73858 0.84273 0.74507 0.0
H88 H 0.81477 0.93793 0.46875 0.0
H89 H 0.76537 0.03761 0.44894 0.0
C90 C 0.69955 0.06134 0.59399 0.0
C91 C 0.66834 0.0673 0.6818 0.0
C92 C 0.72426 0.99917 0.58953 0.0
C93 C 0.6591 0.00853 0.75614 0.0
C94 C 0.68248 0.94611 0.74958 0.0
C95 C 0.7439 0.88456 0.67862 0.0
C96 C 0.78042 0.88386 0.60992 0.0
C97 C 0.71622 0.94214 0.67059 0.0
C98 C 0.7868 0.93763 0.52292 0.0
C99 C 0.75875 0.99485 0.51237 0.0
H100 H 0.84402 0.51062 0.77289 0.0
H101 H 0.77927 0.65327 0.01205 0.0
H102 H 0.7277 0.55931 0.05479 0.0
H103 H 0.69488 0.44358 0.99367 0.0
H104 H 0.76039 0.30496 0.7483 0.0
H105 H 0.81833 0.38928 0.74064 0.0
C106 C 0.81916 0.52041 0.83676 0.0
C107 C 0.81487 0.58852 0.88805 0.0
C108 C 0.78963 0.46687 0.85894 0.0
C109 C 0.78301 0.60088 0.97166 0.0
C110 C 0.7534 0.54739 0.99518 0.0
C111 C 0.72249 0.43109 0.94194 0.0
C112 C 0.72326 0.36881 0.87027 0.0
C113 C 0.75542 0.48109 0.93517 0.0
C114 C 0.75901 0.35308 0.80298 0.0
C115 C 0.79207 0.40135 0.79812 0.0
H116 H 0.0474 0.12446 0.92683 0.0
H117 H -0.0015 0.09686 0.28697 0.0
H118 H 0.95503 0.99739 0.21557 0.0
H119 H 0.93274 0.9152 0.05176 0.0
H120 H 0.98143 0.94439 0.69167 0.0
H121 H 0.02331 0.04567 0.76225 0.0
C122 C 0.02689 0.09718 0.98937 0.0
C123 C 0.02619 0.11797 0.11187 0.0
C124 C 0.00228 0.03967 0.94803 0.0
C125 C -0.00046 0.08197 0.19198 0.0
C126 C 0.97483 0.02482 0.15142 0.0
C127 C 0.95264 0.94366 0.9891 0.0
C128 C 0.95422 0.92207 0.86705 0.0
C129 C 0.97635 0.00256 0.02996 0.0
C130 C 0.97976 0.95988 0.7863 0.0
C131 C 0.00368 0.01791 0.82643 0.0
H132 H 0.54221 0.13086 0.09565 0.0
H133 H 0.48997 0.11922 0.73253 0.0
H134 H 0.44646 0.01806 0.79109 0.0
H135 H 0.4264 0.92769 0.94231 0.0
H136 H 0.47791 0.94074 0.30605 0.0
H137 H 0.51858 0.04589 0.25031 0.0
C138 C 0.52081 0.10691 0.02997 0.0
C139 C 0.51948 0.13233 0.90998 0.0
C140 C 0.49614 0.04817 0.06382 0.0
C141 C 0.49164 0.10063 0.82568 0.0
C142 C 0.46689 0.04244 0.85879 0.0
C143 C 0.44656 0.95364 0.00908 0.0
C144 C 0.4495 0.92612 0.12752 0.0
C145 C 0.46953 0.01476 0.9769 0.0
C146 C 0.47525 0.96078 0.21391 0.0
C147 C 0.4985 0.02101 0.18229 0.0
H148 H 0.98812 0.58037 0.71405 0.0
H149 H 0.93895 0.65194 0.3677 0.0
H150 H 0.97988 0.56106 0.26393 0.0
H151 H 0.02742 0.4589 0.27213 0.0
H152 H 0.07539 0.38436 0.61794 0.0
H153 H 0.037 0.47892 0.72183 0.0
C154 C 0.98669 0.57647 0.61577 0.0
C155 C 0.96061 0.62282 0.5485 0.0
C156 C 0.00979 0.52334 0.55692 0.0
C157 C 0.95879 0.61686 0.42139 0.0
C158 C 0.98211 0.56484 0.36207 0.0
C159 C 0.02958 0.46337 0.37027 0.0
C160 C 0.05407 0.41462 0.4374 0.0
C161 C 0.00731 0.51737 0.42903 0.0
C162 C 0.0566 0.42114 0.56438 0.0
C163 C 0.03471 0.47521 0.6237 0.0
H164 H 0.4554 0.63291 0.57274 0.0
H165 H 0.50119 0.59532 0.21168 0.0
H166 H 0.54592 0.49939 0.2883 0.0
H167 H 0.56897 0.42126 0.45615 0.0
H168 H 0.5238 0.4603 0.81744 0.0
H169 H 0.48196 0.56027 0.74252 0.0
C170 C 0.47555 0.60428 0.51118 0.0
C171 C 0.47482 0.62093 0.38683 0.0
C172 C 0.50102 0.54888 0.55563 0.0
C173 C 0.50116 0.58351 0.30802 0.0
C174 C 0.52662 0.52838 0.35157 0.0
C175 C 0.55003 0.45184 0.5183 0.0
C176 C 0.54916 0.43305 0.6417 0.0
C177 C 0.52624 0.50972 0.47483 0.0
C178 C 0.52488 0.47356 0.72174 0.0
C179 C 0.50093 0.53077 0.67909 0.0
loop_
_geom_bond_atom_site_label_1
_geom_bond_atom_site_label_2
_geom_bond_distance
_geom_bond_site_symmetry_2
_ccdc_geom_bond_type
In0 O1 2.294 . S
In0 O2 2.326 . S
In0 O6 2.266 . S
In0 O7 2.326 . S
In0 O8 2.266 . S
In0 O9 2.326 . S
In0 O11 2.294 . S
In0 O12 2.326 . S
O1 In0 2.294 . S
O1 C10 1.240 . S
O2 In0 2.326 . S
O2 C10 1.252 . S
C3 O6 1.252 . S
C3 O7 1.260 . S
C4 O11 1.240 . S
C4 O12 1.252 . S
C5 O8 1.252 . S
C5 O9 1.260 . S
O6 In0 2.266 . S
O6 C3 1.252 . S
O7 In0 2.326 . S
O7 C3 1.260 . S
O8 In0 2.266 . S
O8 C5 1.252 . S
O9 In0 2.326 . S
O9 C5 1.260 . S
C10 O1 1.240 . S
C10 O2 1.252 . S
O11 In0 2.294 . S
O11 C4 1.240 . S
O12 In0 2.326 . S
O12 C4 1.252 . S
In13 O14 2.294 . S
In13 O15 2.326 . S
In13 O19 2.266 . S
In13 O20 2.326 . S
In13 O21 2.266 . S
In13 O22 2.326 . S
In13 O24 2.294 . S
In13 O25 2.326 . S
O14 In13 2.294 . S
O14 C23 1.240 . S
O15 In13 2.326 . S
O15 C23 1.252 . S
C16 O19 1.252 . S
C16 O20 1.260 . S
C17 O24 1.240 . S
C17 O25 1.252 . S
C18 O21 1.252 . S
C18 O22 1.260 . S
O19 In13 2.266 . S
O19 C16 1.252 . S
O20 In13 2.326 . S
O20 C16 1.260 . S
O21 In13 2.266 . S
O21 C18 1.252 . S
O22 In13 2.326 . S
O22 C18 1.260 . S
C23 O14 1.240 . S
C23 O15 1.252 . S
O24 In13 2.294 . S
O24 C17 1.240 . S
O25 In13 2.326 . S
O25 C17 1.252 . S
In26 O27 2.294 . S
In26 O28 2.326 . S
In26 O32 2.266 . S
In26 O33 2.326 . S
In26 O34 2.266 . S
In26 O35 2.326 . S
In26 O37 2.294 . S
In26 O38 2.326 . S
O27 In26 2.294 . S
O27 C36 1.240 . S
O28 In26 2.326 . S
O28 C36 1.252 . S
C29 O32 1.252 . S
C29 O33 1.260 . S
C30 O37 1.240 . S
C30 O38 1.252 . S
C31 O34 1.252 . S
C31 O35 1.260 . S
O32 In26 2.266 . S
O32 C29 1.252 . S
O33 In26 2.326 . S
O33 C29 1.260 . S
O34 In26 2.266 . S
O34 C31 1.252 . S
O35 In26 2.326 . S
O35 C31 1.260 . S
C36 O27 1.240 . S
C36 O28 1.252 . S
O37 In26 2.294 . S
O37 C30 1.240 . S
O38 In26 2.326 . S
O38 C30 1.252 . S
In39 O40 2.294 . S
In39 O41 2.326 . S
In39 O45 2.266 . S
In39 O46 2.326 . S
In39 O47 2.266 . S
In39 O48 2.326 . S
In39 O50 2.294 . S
In39 O51 2.326 . S
O40 In39 2.294 . S
O40 C49 1.240 . S
O41 In39 2.326 . S
O41 C49 1.252 . S
C42 O45 1.252 . S
C42 O46 1.260 . S
C43 O50 1.240 . S
C43 O51 1.252 . S
C44 O47 1.252 . S
C44 O48 1.260 . S
O45 In39 2.266 . S
O45 C42 1.252 . S
O46 In39 2.326 . S
O46 C42 1.260 . S
O47 In39 2.266 . S
O47 C44 1.252 . S
O48 In39 2.326 . S
O48 C44 1.260 . S
C49 O40 1.240 . S
C49 O41 1.252 . S
O50 In39 2.294 . S
O50 C43 1.240 . S
O51 In39 2.326 . S
O51 C43 1.252 . S
H52 C58 0.930 . S
H53 C61 0.930 . S
H54 C62 0.930 . S
H55 C63 0.930 . S
H56 C66 0.930 . S
H57 C67 0.930 . S
C58 H52 0.930 . S
C58 C59 1.355 . S
C58 C60 1.415 1_565 S
C59 C58 1.355 . S
C59 C61 1.419 . S
C60 C58 1.415 1_545 S
C60 C65 1.425 1_545 S
C60 C67 1.409 . S
C61 H53 0.930 . S
C61 C59 1.419 . S
C61 C62 1.362 . S
C62 H54 0.930 . S
C62 C61 1.362 . S
C62 C65 1.409 . S
C63 H55 0.930 . S
C63 C64 1.355 . S
C63 C65 1.415 1_545 S
C64 C63 1.355 . S
C64 C66 1.419 . S
C65 C60 1.425 1_565 S
C65 C62 1.409 . S
C65 C63 1.415 1_565 S
C66 H56 0.930 . S
C66 C64 1.419 . S
C66 C67 1.362 . S
C67 H57 0.930 . S
C67 C60 1.409 . S
C67 C66 1.362 . S
H68 C74 0.930 . S
H69 C77 0.930 . S
H70 C78 0.930 . S
H71 C79 0.930 . S
H72 C82 0.930 . S
H73 C83 0.930 . S
C74 H68 0.930 . S
C74 C75 1.355 . S
C74 C76 1.415 . S
C75 C74 1.355 . S
C75 C77 1.419 . S
C76 C74 1.415 . S
C76 C81 1.425 . S
C76 C83 1.409 . S
C77 H69 0.930 . S
C77 C75 1.419 . S
C77 C78 1.362 . S
C78 H70 0.930 . S
C78 C77 1.362 . S
C78 C81 1.409 . S
C79 H71 0.930 . S
C79 C80 1.355 . S
C79 C81 1.415 . S
C80 C79 1.355 . S
C80 C82 1.419 . S
C81 C76 1.425 . S
C81 C78 1.409 . S
C81 C79 1.415 . S
C82 H72 0.930 . S
C82 C80 1.419 . S
C82 C83 1.362 . S
C83 H73 0.930 . S
C83 C76 1.409 . S
C83 C82 1.362 . S
H84 C90 0.930 . S
H85 C93 0.930 . S
H86 C94 0.930 1_565 S
H87 C95 0.930 . S
H88 C98 0.930 . S
H89 C99 0.930 1_545 S
C90 H84 0.930 . S
C90 C91 1.355 . S
C90 C92 1.415 . S
C91 C90 1.355 . S
C91 C93 1.419 . S
C92 C90 1.415 . S
C92 C97 1.425 1_545 S
C92 C99 1.409 1_545 S
C93 H85 0.930 . S
C93 C91 1.419 . S
C93 C94 1.362 . S
C94 H86 0.930 1_545 S
C94 C93 1.362 . S
C94 C97 1.409 1_545 S
C95 H87 0.930 . S
C95 C96 1.355 . S
C95 C97 1.415 . S
C96 C95 1.355 . S
C96 C98 1.419 . S
C97 C92 1.425 1_565 S
C97 C94 1.409 1_565 S
C97 C95 1.415 . S
C98 H88 0.930 . S
C98 C96 1.419 . S
C98 C99 1.362 . S
C99 H89 0.930 1_565 S
C99 C92 1.409 1_565 S
C99 C98 1.362 . S
H100 C106 0.930 . S
H101 C109 0.930 . S
H102 C110 0.930 . S
H103 C111 0.930 . S
H104 C114 0.930 . S
H105 C115 0.930 . S
C106 H100 0.930 . S
C106 C107 1.355 . S
C106 C108 1.415 . S
C107 C106 1.355 . S
C107 C109 1.419 . S
C108 C106 1.415 . S
C108 C113 1.425 . S
C108 C115 1.409 . S
C109 H101 0.930 . S
C109 C107 1.419 . S
C109 C110 1.362 . S
C110 H102 0.930 . S
C110 C109 1.362 . S
C110 C113 1.409 . S
C111 H103 0.930 . S
C111 C112 1.355 . S
C111 C113 1.415 . S
C112 C111 1.355 . S
C112 C114 1.419 . S
C113 C108 1.425 . S
C113 C110 1.409 . S
C113 C111 1.415 . S
C114 H104 0.930 . S
C114 C112 1.419 . S
C114 C115 1.362 . S
C115 H105 0.930 . S
C115 C108 1.409 . S
C115 C114 1.362 . S
H116 C122 0.930 . S
H117 C125 0.927 1_655 S
H118 C126 0.930 . S
H119 C127 0.930 . S
H120 C130 0.927 1_455 S
H121 C131 0.930 . S
C122 H116 0.930 . S
C122 C123 1.355 1_556 S
C122 C124 1.415 . S
C123 C122 1.355 1_554 S
C123 C125 1.419 . S
C124 C122 1.415 . S
C124 C129 1.425 1_446 S
C124 C131 1.409 1_545 S
C125 H117 0.927 1_455 S
C125 C123 1.419 . S
C125 C126 1.362 1_455 S
C126 H118 0.930 . S
C126 C125 1.362 1_655 S
C126 C129 1.409 1_545 S
C127 H119 0.930 . S
C127 C128 1.355 1_554 S
C127 C129 1.415 . S
C128 C127 1.355 1_556 S
C128 C130 1.419 . S
C129 C124 1.425 1_664 S
C129 C126 1.409 1_565 S
C129 C127 1.415 . S
C130 H120 0.927 1_655 S
C130 C128 1.419 . S
C130 C131 1.362 1_655 S
C131 H121 0.930 . S
C131 C124 1.409 1_565 S
C131 C130 1.362 1_455 S
H132 C138 0.930 . S
H133 C141 0.930 . S
H134 C142 0.930 . S
H135 C143 0.930 . S
H136 C146 0.930 . S
H137 C147 0.930 . S
C138 H132 0.930 . S
C138 C139 1.355 1_554 S
C138 C140 1.415 . S
C139 C138 1.355 1_556 S
C139 C141 1.419 . S
C140 C138 1.415 . S
C140 C145 1.425 1_544 S
C140 C147 1.409 . S
C141 H133 0.930 . S
C141 C139 1.419 . S
C141 C142 1.362 1_545 S
C142 H134 0.930 . S
C142 C141 1.362 1_565 S
C142 C145 1.409 . S
C143 H135 0.930 . S
C143 C144 1.355 1_556 S
C143 C145 1.415 . S
C144 C143 1.355 1_554 S
C144 C146 1.419 . S
C145 C140 1.425 1_566 S
C145 C142 1.409 . S
C145 C143 1.415 . S
C146 H136 0.930 . S
C146 C144 1.419 . S
C146 C147 1.362 1_565 S
C147 H137 0.930 . S
C147 C140 1.409 . S
C147 C146 1.362 1_545 S
H148 C154 0.930 1_455 S
H149 C157 0.930 . S
H150 C158 0.930 . S
H151 C159 0.930 1_655 S
H152 C162 0.930 . S
H153 C163 0.930 . S
C154 H148 0.930 1_655 S
C154 C155 1.355 . S
C154 C156 1.415 1_655 S
C155 C154 1.355 . S
C155 C157 1.419 . S
C156 C154 1.415 1_455 S
C156 C161 1.425 1_455 S
C156 C163 1.409 . S
C157 H149 0.930 . S
C157 C155 1.419 . S
C157 C158 1.362 . S
C158 H150 0.930 . S
C158 C157 1.362 . S
C158 C161 1.409 . S
C159 H151 0.930 1_455 S
C159 C160 1.355 . S
C159 C161 1.415 1_455 S
C160 C159 1.355 . S
C160 C162 1.419 . S
C161 C156 1.425 1_655 S
C161 C158 1.409 . S
C161 C159 1.415 1_655 S
C162 H152 0.930 . S
C162 C160 1.419 . S
C162 C163 1.362 . S
C163 H153 0.930 . S
C163 C156 1.409 . S
C163 C162 1.362 . S
H164 C170 0.930 . S
H165 C173 0.930 . S
H166 C174 0.930 . S
H167 C175 0.930 . S
H168 C178 0.930 . S
H169 C179 0.930 . S
C170 H164 0.930 . S
C170 C171 1.355 . S
C170 C172 1.415 . S
C171 C170 1.355 . S
C171 C173 1.419 . S
C172 C170 1.415 . S
C172 C177 1.425 . S
C172 C179 1.409 . S
C173 H165 0.930 . S
C173 C171 1.419 . S
C173 C174 1.362 . S
C174 H166 0.930 . S
C174 C173 1.362 . S
C174 C177 1.409 . S
C175 H167 0.930 . S
C175 C176 1.355 . S
C175 C177 1.415 . S
C176 C175 1.355 . S
C176 C178 1.419 . S
C177 C172 1.425 . S
C177 C174 1.409 . S
C177 C175 1.415 . S
C178 H168 0.930 . S
C178 C176 1.419 . S
C178 C179 1.362 . S
C179 H169 0.930 . S
C179 C172 1.409 . S
C179 C178 1.362 . S
C59 C23 1.136 . S
C64 C5 1.151 . S
C75 C10 1.171 . S
C80 C18 1.167 . S
C91 C49 1.146 . S
C96 C29 1.178 . S
C107 C30 1.140 . S
C112 C44 1.143 . S
C123 C3 1.535 . S
C128 C31 1.535 . S
C139 C43 1.510 . S
C144 C17 1.510 . S
C155 C36 1.537 . S
C160 C4 1.537 . S
C171 C16 1.511 . S
C176 C42 1.511 . S
