# Generated by pormake.
# Topology dia, (4)-cn, num edge types: 1
# Building blocks:
#     Node 0, Type 0, BuildingBlock: TATPOV_clean_sbu_0, # of connection points: 4
#     Node 1, Type 0, BuildingBlock: TATPOV_clean_sbu_0, # of connection points: 4
#     Node 2, Type 0, BuildingBlock: TATPOV_clean_sbu_0, # of connection points: 4
#     Node 3, Type 0, BuildingBlock: TATPOV_clean_sbu_0, # of connection points: 4
#     Node 4, Type 0, BuildingBlock: TATPOV_clean_sbu_0, # of connection points: 4
#     Node 5, Type 0, BuildingBlock: TATPOV_clean_sbu_0, # of connection points: 4
#     Node 6, Type 0, BuildingBlock: TATPOV_clean_sbu_0, # of connection points: 4
#     Node 7, Type 0, BuildingBlock: TATPOV_clean_sbu_0, # of connection points: 4
#     Edge 8, Type (0, 0), None
#     Edge 9, Type (0, 0), None
#     Edge 10, Type (0, 0), None
#     Edge 11, Type (0, 0), None
#     Edge 12, Type (0, 0), None
#     Edge 13, Type (0, 0), None
#     Edge 14, Type (0, 0), None
#     Edge 15, Type (0, 0), None
#     Edge 16, Type (0, 0), None
#     Edge 17, Type (0, 0), None
#     Edge 18, Type (0, 0), None
#     Edge 19, Type (0, 0), None
#     Edge 20, Type (0, 0), None
#     Edge 21, Type (0, 0), None
#     Edge 22, Type (0, 0), None
#     Edge 23, Type (0, 0), None
# Relax obj value: 0.005
# Max RMSD: 0.033
# Mean RMSD: 0.033
data_MOF--net-dia--node1-TATPOV_clean_sbu_0--edge1-none
_symmetry_space_group_name_H-M    P1
_symmetry_Int_Tables_number       1
_symmetry_cell_setting            triclinic
loop_
_symmetry_equiv_pos_as_xyz
'x, y, z'
_cell_length_a     16.754004
_cell_length_b     16.744989
_cell_length_c     16.744999
_cell_angle_alpha  88.764265
_cell_angle_beta   91.558172
_cell_angle_gamma 91.558127
loop_
_atom_site_label
_atom_site_type_symbol
_atom_site_fract_x
_atom_site_fract_y
_atom_site_fract_z
_atom_type_partial_charge
Zn0 Zn 0.14113 0.04016 0.51399 0.0
Zn1 Zn 0.04853 0.13258 0.60777 0.0
O2 O 0.11595 0.06751 0.68801 0.0
O3 O 0.19054 -0.00834 0.61595 0.0
O4 O -0.01877 0.19958 0.67729 0.0
O5 O 0.18734 0.14418 0.46665 0.0
O6 O 0.11183 0.21569 0.54229 0.0
C7 C 0.16857 0.01455 0.68337 0.0
C8 C -0.02944 0.01399 0.48969 0.0
O9 O -0.03384 0.06692 0.54276 0.0
O10 O 0.0378 -0.00819 0.4668 0.0
C11 C -0.04231 0.17352 0.74475 0.0
O12 O -0.02354 0.10143 0.76978 0.0
C13 C 0.1643 0.21141 0.48908 0.0
Zn14 Zn 0.72655 0.45434 0.92819 0.0
Zn15 Zn 0.81915 0.36056 0.83578 0.0
O16 O 0.75173 0.28032 0.90084 0.0
O17 O 0.67714 0.35237 0.97669 0.0
O18 O 0.88645 0.29105 0.76877 0.0
O19 O 0.68034 0.50168 0.82418 0.0
O20 O 0.75585 0.42605 0.75267 0.0
C21 C 0.69911 0.28496 0.9538 0.0
C22 C 0.89712 0.47864 0.95437 0.0
O23 O 0.90152 0.42556 0.90144 0.0
O24 O 0.82988 0.50153 0.97655 0.0
C25 C 0.90997 0.22357 0.79482 0.0
O26 O 0.89119 0.19852 0.86689 0.0
C27 C 0.70338 0.47926 0.75695 0.0
Zn28 Zn 0.64115 0.04018 0.01399 0.0
Zn29 Zn 0.54854 0.13259 0.10778 0.0
O30 O 0.61595 0.06751 0.18802 0.0
O31 O 0.69054 -0.00834 0.11596 0.0
O32 O 0.48124 0.19958 0.17729 0.0
O33 O 0.68736 0.14419 0.96667 0.0
O34 O 0.61185 0.2157 0.04231 0.0
C35 C 0.66857 0.01454 0.18338 0.0
C36 C 0.47058 0.01401 -0.01032 0.0
O37 O 0.46618 0.06694 0.04276 0.0
O38 O 0.53782 -0.00817 0.96679 0.0
C39 C 0.45769 0.17351 0.24474 0.0
O40 O 0.47644 0.10142 0.26977 0.0
C41 C 0.66433 0.21142 -0.0109 0.0
Zn42 Zn 0.7265 0.95432 0.42816 0.0
Zn43 Zn 0.81911 0.86054 0.33575 0.0
O44 O 0.7517 0.7803 0.40082 0.0
O45 O 0.6771 0.85235 0.47667 0.0
O46 O 0.88643 0.79104 0.26875 0.0
O47 O 0.68029 0.00165 0.32414 0.0
O48 O 0.75581 0.92602 0.25264 0.0
C49 C 0.69908 0.78494 0.45378 0.0
C50 C 0.89707 0.97863 0.45434 0.0
O51 O 0.90146 0.92556 0.40141 0.0
O52 O 0.82983 0.00152 0.47652 0.0
C53 C 0.90997 0.72358 0.29482 0.0
O54 O 0.8912 0.69854 0.3669 0.0
C55 C 0.70333 0.97923 0.25691 0.0
Zn56 Zn 0.14118 0.54018 0.01402 0.0
Zn57 Zn 0.04857 0.63259 0.1078 0.0
O58 O 0.11599 0.56754 0.18804 0.0
O59 O 0.19059 0.49169 0.11599 0.0
O60 O -0.01875 0.69959 0.1773 0.0
O61 O 0.18738 0.6442 0.96668 0.0
O62 O 0.11186 0.71571 0.04231 0.0
C63 C 0.16862 0.51458 0.18341 0.0
C64 C -0.02939 0.51399 -0.01028 0.0
O65 O -0.03378 0.56692 0.04279 0.0
O66 O 0.03785 0.49181 0.96683 0.0
C67 C -0.04229 0.67353 0.24476 0.0
O68 O -0.02351 0.60145 0.26981 0.0
C69 C 0.16433 0.71143 -0.0109 0.0
Zn70 Zn 0.22653 0.45433 0.42819 0.0
Zn71 Zn 0.31914 0.36055 0.33577 0.0
O72 O 0.25171 0.28031 0.40082 0.0
O73 O 0.17711 0.35236 0.47667 0.0
O74 O 0.38644 0.29104 0.26877 0.0
O75 O 0.18034 0.50168 0.32417 0.0
O76 O 0.25585 0.42605 0.25266 0.0
C77 C 0.19908 0.28495 0.45378 0.0
C78 C 0.3971 0.47862 0.45438 0.0
O79 O 0.4015 0.42555 0.40145 0.0
O80 O 0.32986 0.50151 0.47656 0.0
C81 C 0.40996 0.22357 0.29481 0.0
O82 O 0.39116 0.1985 0.36688 0.0
C83 C 0.20338 0.47926 0.25694 0.0
Zn84 Zn 0.22651 0.95435 0.92815 0.0
Zn85 Zn 0.31913 0.86056 0.83574 0.0
O86 O 0.25172 0.78033 0.90081 0.0
O87 O 0.17712 0.85238 0.97667 0.0
O88 O 0.38644 0.79105 0.76875 0.0
O89 O 0.18031 0.00167 0.82413 0.0
O90 O 0.25582 0.92604 0.75263 0.0
C91 C 0.1991 0.78496 0.95378 0.0
C92 C 0.39709 0.97866 0.95432 0.0
O93 O 0.40148 0.92559 0.9014 0.0
O94 O 0.32985 0.00155 0.97651 0.0
C95 C 0.41 0.72361 0.79483 0.0
O96 O 0.39124 0.69859 0.86693 0.0
C97 C 0.20334 0.97924 0.7569 0.0
Zn98 Zn 0.64117 0.54016 0.51403 0.0
Zn99 Zn 0.54856 0.63257 0.60781 0.0
O100 O 0.61598 0.56752 0.68805 0.0
O101 O 0.69057 0.49167 0.616 0.0
O102 O 0.48125 0.69958 0.67731 0.0
O103 O 0.68736 0.64417 0.46668 0.0
O104 O 0.61185 0.71568 0.54231 0.0
C105 C 0.66861 0.51456 0.68341 0.0
C106 C 0.47059 0.51397 0.48973 0.0
O107 O 0.4662 0.5669 0.5428 0.0
O108 O 0.53783 0.49178 0.46684 0.0
C109 C 0.45773 0.67354 0.74479 0.0
O110 O 0.47653 0.60148 0.76986 0.0
C111 C 0.66431 0.7114 0.4891 0.0
loop_
_geom_bond_atom_site_label_1
_geom_bond_atom_site_label_2
_geom_bond_distance
_geom_bond_site_symmetry_2
_ccdc_geom_bond_type
Zn0 O3 2.031 1_545 S
Zn0 O5 2.049 . S
Zn0 O10 2.067 . S
Zn1 O2 1.962 . S
Zn1 O4 1.986 . S
Zn1 O6 1.996 . S
Zn1 O9 1.943 . S
O2 Zn1 1.962 . S
O2 C7 1.254 . S
O3 Zn0 2.031 1_565 S
O3 C7 1.269 1_565 S
O4 Zn1 1.986 . S
O4 C11 1.262 . S
O5 Zn0 2.049 . S
O5 C13 1.260 . S
O6 Zn1 1.996 . S
O6 C13 1.257 . S
C7 O2 1.254 . S
C7 O3 1.269 1_545 S
C8 O9 1.249 . S
C8 O10 1.270 . S
O9 Zn1 1.943 . S
O9 C8 1.249 . S
O10 Zn0 2.067 . S
O10 C8 1.270 . S
C11 O4 1.262 . S
C11 O12 1.232 . S
O12 C11 1.232 . S
C13 O5 1.260 . S
C13 O6 1.257 . S
Zn14 O17 2.031 1_556 S
Zn14 O19 2.049 . S
Zn14 O24 2.067 . S
Zn15 O16 1.962 . S
Zn15 O18 1.986 . S
Zn15 O20 1.996 . S
Zn15 O23 1.943 . S
O16 Zn15 1.962 . S
O16 C21 1.254 . S
O17 Zn14 2.031 1_554 S
O17 C21 1.269 1_554 S
O18 Zn15 1.986 . S
O18 C25 1.262 . S
O19 Zn14 2.049 . S
O19 C27 1.260 . S
O20 Zn15 1.996 . S
O20 C27 1.257 . S
C21 O16 1.254 . S
C21 O17 1.269 1_556 S
C22 O23 1.249 . S
C22 O24 1.270 . S
O23 Zn15 1.943 . S
O23 C22 1.249 . S
O24 Zn14 2.067 . S
O24 C22 1.270 . S
C25 O18 1.262 . S
C25 O26 1.232 . S
O26 C25 1.232 . S
C27 O19 1.260 . S
C27 O20 1.257 . S
Zn28 O31 2.031 1_545 S
Zn28 O33 2.049 1_554 S
Zn28 O38 2.067 1_554 S
Zn29 O30 1.962 . S
Zn29 O32 1.986 . S
Zn29 O34 1.996 . S
Zn29 O37 1.943 . S
O30 Zn29 1.962 . S
O30 C35 1.254 . S
O31 Zn28 2.031 1_565 S
O31 C35 1.269 1_565 S
O32 Zn29 1.986 . S
O32 C39 1.262 . S
O33 Zn28 2.049 1_556 S
O33 C41 1.260 1_556 S
O34 Zn29 1.996 . S
O34 C41 1.257 . S
C35 O30 1.254 . S
C35 O31 1.269 1_545 S
C36 O37 1.249 . S
C36 O38 1.270 1_554 S
O37 Zn29 1.943 . S
O37 C36 1.249 . S
O38 Zn28 2.067 1_556 S
O38 C36 1.270 1_556 S
C39 O32 1.262 . S
C39 O40 1.232 . S
O40 C39 1.232 . S
C41 O33 1.260 1_554 S
C41 O34 1.257 . S
Zn42 O45 2.031 . S
Zn42 O47 2.049 1_565 S
Zn42 O52 2.067 1_565 S
Zn43 O44 1.962 . S
Zn43 O46 1.986 . S
Zn43 O48 1.996 . S
Zn43 O51 1.943 . S
O44 Zn43 1.962 . S
O44 C49 1.254 . S
O45 Zn42 2.031 . S
O45 C49 1.269 . S
O46 Zn43 1.986 . S
O46 C53 1.262 . S
O47 Zn42 2.049 1_545 S
O47 C55 1.260 1_545 S
O48 Zn43 1.996 . S
O48 C55 1.257 . S
C49 O44 1.254 . S
C49 O45 1.269 . S
C50 O51 1.249 . S
C50 O52 1.270 1_565 S
O51 Zn43 1.943 . S
O51 C50 1.249 . S
O52 Zn42 2.067 1_545 S
O52 C50 1.270 1_545 S
C53 O46 1.262 . S
C53 O54 1.232 . S
O54 C53 1.232 . S
C55 O47 1.260 1_565 S
C55 O48 1.257 . S
Zn56 O59 2.031 . S
Zn56 O61 2.049 1_554 S
Zn56 O66 2.067 1_554 S
Zn57 O58 1.962 . S
Zn57 O60 1.986 . S
Zn57 O62 1.996 . S
Zn57 O65 1.943 . S
O58 Zn57 1.962 . S
O58 C63 1.254 . S
O59 Zn56 2.031 . S
O59 C63 1.269 . S
O60 Zn57 1.986 . S
O60 C67 1.262 . S
O61 Zn56 2.049 1_556 S
O61 C69 1.260 1_556 S
O62 Zn57 1.996 . S
O62 C69 1.257 . S
C63 O58 1.254 . S
C63 O59 1.269 . S
C64 O65 1.249 . S
C64 O66 1.270 1_554 S
O65 Zn57 1.943 . S
O65 C64 1.249 . S
O66 Zn56 2.067 1_556 S
O66 C64 1.270 1_556 S
C67 O60 1.262 . S
C67 O68 1.232 . S
O68 C67 1.232 . S
C69 O61 1.260 1_554 S
C69 O62 1.257 . S
Zn70 O73 2.031 . S
Zn70 O75 2.049 . S
Zn70 O80 2.067 . S
Zn71 O72 1.962 . S
Zn71 O74 1.986 . S
Zn71 O76 1.996 . S
Zn71 O79 1.943 . S
O72 Zn71 1.962 . S
O72 C77 1.254 . S
O73 Zn70 2.031 . S
O73 C77 1.269 . S
O74 Zn71 1.986 . S
O74 C81 1.262 . S
O75 Zn70 2.049 . S
O75 C83 1.260 . S
O76 Zn71 1.996 . S
O76 C83 1.257 . S
C77 O72 1.254 . S
C77 O73 1.269 . S
C78 O79 1.249 . S
C78 O80 1.270 . S
O79 Zn71 1.943 . S
O79 C78 1.249 . S
O80 Zn70 2.067 . S
O80 C78 1.270 . S
C81 O74 1.262 . S
C81 O82 1.232 . S
O82 C81 1.232 . S
C83 O75 1.260 . S
C83 O76 1.257 . S
Zn84 O87 2.031 1_556 S
Zn84 O89 2.049 1_565 S
Zn84 O94 2.067 1_565 S
Zn85 O86 1.962 . S
Zn85 O88 1.986 . S
Zn85 O90 1.996 . S
Zn85 O93 1.943 . S
O86 Zn85 1.962 . S
O86 C91 1.254 . S
O87 Zn84 2.031 1_554 S
O87 C91 1.269 1_554 S
O88 Zn85 1.986 . S
O88 C95 1.262 . S
O89 Zn84 2.049 1_545 S
O89 C97 1.260 1_545 S
O90 Zn85 1.996 . S
O90 C97 1.257 . S
C91 O86 1.254 . S
C91 O87 1.269 1_556 S
C92 O93 1.249 . S
C92 O94 1.270 1_565 S
O93 Zn85 1.943 . S
O93 C92 1.249 . S
O94 Zn84 2.067 1_545 S
O94 C92 1.270 1_545 S
C95 O88 1.262 . S
C95 O96 1.232 . S
O96 C95 1.232 . S
C97 O89 1.260 1_565 S
C97 O90 1.257 . S
Zn98 O101 2.031 . S
Zn98 O103 2.049 . S
Zn98 O108 2.067 . S
Zn99 O100 1.962 . S
Zn99 O102 1.986 . S
Zn99 O104 1.996 . S
Zn99 O107 1.943 . S
O100 Zn99 1.962 . S
O100 C105 1.254 . S
O101 Zn98 2.031 . S
O101 C105 1.269 . S
O102 Zn99 1.986 . S
O102 C109 1.262 . S
O103 Zn98 2.049 . S
O103 C111 1.260 . S
O104 Zn99 1.996 . S
O104 C111 1.257 . S
C105 O100 1.254 . S
C105 O101 1.269 . S
C106 O107 1.249 . S
C106 O108 1.270 . S
O107 Zn99 1.943 . S
O107 C106 1.249 . S
O108 Zn98 2.067 . S
O108 C106 1.270 . S
C109 O102 1.262 . S
C109 O110 1.232 . S
O110 C109 1.232 . S
C111 O103 1.260 . S
C111 O104 1.257 . S
C77 C13 1.446 . S
C105 C27 1.446 . S
C36 C92 1.432 1_544 S
C53 C67 1.477 1_655 S
C97 C7 1.446 1_565 S
C22 C64 1.432 1_656 S
C81 C39 1.477 . S
C49 C111 1.446 . S
C63 C83 1.446 . S
C21 C41 1.446 1_556 S
C55 C35 1.446 1_565 S
C50 C8 1.432 1_665 S
C25 C11 1.477 1_655 S
C109 C95 1.477 . S
C69 C91 1.446 1_554 S
C78 C106 1.432 . S
