# Generated by pormake.
# Topology wjf, (4)-cn, num edge types: 1
# Building blocks:
#     Node 0, Type 0, BuildingBlock: CEKHIL_clean_sbu_0, # of connection points: 4
#     Node 1, Type 0, BuildingBlock: CEKHIL_clean_sbu_0, # of connection points: 4
#     Node 2, Type 0, BuildingBlock: CEKHIL_clean_sbu_0, # of connection points: 4
#     Node 3, Type 0, BuildingBlock: CEKHIL_clean_sbu_0, # of connection points: 4
#     Node 4, Type 0, BuildingBlock: CEKHIL_clean_sbu_0, # of connection points: 4
#     Node 5, Type 0, BuildingBlock: CEKHIL_clean_sbu_0, # of connection points: 4
#     Node 6, Type 0, BuildingBlock: CEKHIL_clean_sbu_0, # of connection points: 4
#     Node 7, Type 0, BuildingBlock: CEKHIL_clean_sbu_0, # of connection points: 4
#     Node 8, Type 0, BuildingBlock: CEKHIL_clean_sbu_0, # of connection points: 4
#     Node 9, Type 0, BuildingBlock: CEKHIL_clean_sbu_0, # of connection points: 4
#     Node 10, Type 0, BuildingBlock: CEKHIL_clean_sbu_0, # of connection points: 4
#     Node 11, Type 0, BuildingBlock: CEKHIL_clean_sbu_0, # of connection points: 4
#     Edge 12, Type (0, 0), None
#     Edge 13, Type (0, 0), None
#     Edge 14, Type (0, 0), None
#     Edge 15, Type (0, 0), None
#     Edge 16, Type (0, 0), None
#     Edge 17, Type (0, 0), None
#     Edge 18, Type (0, 0), None
#     Edge 19, Type (0, 0), None
#     Edge 20, Type (0, 0), None
#     Edge 21, Type (0, 0), None
#     Edge 22, Type (0, 0), None
#     Edge 23, Type (0, 0), None
#     Edge 24, Type (0, 0), None
#     Edge 25, Type (0, 0), None
#     Edge 26, Type (0, 0), None
#     Edge 27, Type (0, 0), None
#     Edge 28, Type (0, 0), None
#     Edge 29, Type (0, 0), None
#     Edge 30, Type (0, 0), None
#     Edge 31, Type (0, 0), None
#     Edge 32, Type (0, 0), None
#     Edge 33, Type (0, 0), None
#     Edge 34, Type (0, 0), None
#     Edge 35, Type (0, 0), None
# Relax obj value: 0.102
# Max RMSD: 0.127
# Mean RMSD: 0.127
data_MOF--net-wjf--node1-CEKHIL_clean_sbu_0--edge1-none
_symmetry_space_group_name_H-M    P1
_symmetry_Int_Tables_number       1
_symmetry_cell_setting            triclinic
loop_
_symmetry_equiv_pos_as_xyz
'x, y, z'
_cell_length_a     22.946991
_cell_length_b     22.962362
_cell_length_c     11.555907
_cell_angle_alpha  89.999996
_cell_angle_beta   90.000014
_cell_angle_gamma 120.06485
loop_
_atom_site_label
_atom_site_type_symbol
_atom_site_fract_x
_atom_site_fract_y
_atom_site_fract_z
_atom_type_partial_charge
Co0 Co 0.32381 0.39742 0.12215 0.0
O1 O 0.22981 0.34358 0.07576 0.0
O2 O 0.28802 0.45457 0.0713 0.0
C3 C 0.32457 0.34251 0.28666 0.0
O4 O 0.42171 0.46943 0.15747 0.0
Co5 Co 0.4152 0.33202 0.11913 0.0
O6 O 0.48756 0.42227 0.16893 0.0
C7 C 0.36917 0.36315 0.90225 0.0
C8 C 0.23329 0.39942 0.04277 0.0
C9 C 0.47946 0.47324 0.17301 0.0
O10 O 0.34847 0.39676 0.95856 0.0
O11 O 0.39255 0.3287 0.94983 0.0
O12 O 0.30293 0.38526 0.28932 0.0
O13 O 0.33535 0.32779 0.18425 0.0
Co14 Co 0.93311 0.32057 0.45545 0.0
O15 O 0.89309 0.22668 0.40904 0.0
O16 O 0.84006 0.28457 0.4045 0.0
C17 C 0.98882 0.32143 0.61997 0.0
O18 O 0.95896 0.41837 0.49079 0.0
Co19 Co 0.09009 0.4121 0.4524 0.0
O20 O 0.07213 0.48432 0.50216 0.0
C21 C 0.01279 0.36598 0.23556 0.0
C22 C 0.84062 0.22998 0.37596 0.0
C23 C 0.01298 0.47614 0.50627 0.0
O24 O 0.95844 0.34527 0.29191 0.0
O25 O 0.07072 0.38941 0.28311 0.0
O26 O 0.92433 0.29967 0.62259 0.0
O27 O 0.0144 0.33227 0.51758 0.0
Co28 Co 0.61936 0.92981 0.78832 0.0
O29 O 0.67325 0.88979 0.74215 0.0
O30 O 0.56221 0.83675 0.73748 0.0
C31 C 0.67428 0.98557 0.95285 0.0
O32 O 0.54734 0.95564 0.82344 0.0
Co33 Co 0.68496 0.08669 0.78519 0.0
O34 O 0.59469 0.06873 0.83487 0.0
C35 C 0.65367 0.00941 0.56835 0.0
C36 C 0.61741 0.8373 0.70913 0.0
C37 C 0.54362 0.00961 0.83891 0.0
O38 O 0.62009 0.95507 0.62471 0.0
O39 O 0.68815 0.06732 0.61589 0.0
O40 O 0.63143 0.92112 0.95551 0.0
O41 O 0.68906 0.01109 0.85045 0.0
Co42 Co 0.69642 0.61607 0.12215 0.0
O43 O 0.79042 0.66991 0.07576 0.0
O44 O 0.73221 0.55892 0.07131 0.0
C45 C 0.69566 0.67099 0.28666 0.0
O46 O 0.59852 0.54406 0.15748 0.0
Co47 Co 0.60503 0.68147 0.11913 0.0
O48 O 0.53267 0.59122 0.16894 0.0
C49 C 0.65106 0.65034 0.90225 0.0
C50 C 0.78695 0.61407 0.04278 0.0
C51 C 0.54078 0.54026 0.17306 0.0
O52 O 0.67176 0.61673 0.95857 0.0
O53 O 0.62767 0.68479 0.94984 0.0
O54 O 0.7173 0.62823 0.28933 0.0
O55 O 0.68488 0.6857 0.18425 0.0
Co56 Co 0.08713 0.69293 0.45545 0.0
O57 O 0.12714 0.78681 0.40904 0.0
O58 O 0.18018 0.72892 0.4045 0.0
C59 C 0.03141 0.69206 0.61997 0.0
O60 O 0.06128 0.59512 0.49079 0.0
Co61 Co 0.93014 0.60139 0.4524 0.0
O62 O 0.9481 0.52917 0.50217 0.0
C63 C 1.00744 0.64752 0.23557 0.0
C64 C 0.17961 0.78351 0.37596 0.0
C65 C 1.00726 0.53737 0.50632 0.0
O66 O 0.06179 0.66823 0.29191 0.0
O67 O 0.94951 0.62408 0.28312 0.0
O68 O 0.09591 0.71382 0.62259 0.0
O69 O 1.00584 0.68122 0.51759 0.0
Co70 Co 0.40087 0.08369 0.78832 0.0
O71 O 0.34698 0.1237 0.74215 0.0
O72 O 0.45802 0.17674 0.73748 0.0
C73 C 0.34595 0.02792 0.95286 0.0
O74 O 0.47289 0.05785 0.82345 0.0
Co75 Co 0.33528 0.92681 0.7852 0.0
O76 O 0.42555 0.94476 0.83488 0.0
C77 C 0.36656 1.00408 0.56836 0.0
C78 C 0.40281 0.17619 0.70913 0.0
C79 C 0.4766 1.00388 0.83896 0.0
O80 O 0.40014 0.05843 0.62471 0.0
O81 O 0.33208 0.94617 0.6159 0.0
O82 O 0.3888 0.09237 0.95552 0.0
O83 O 0.33117 1.0024 0.85045 0.0
Co84 Co 0.61943 0.69301 0.55696 0.0
O85 O 0.6733 0.78699 0.60319 0.0
O86 O 0.56225 0.72881 0.60777 0.0
C87 C 0.67435 0.6922 0.39244 0.0
O88 O 0.5474 0.59511 0.52179 0.0
Co89 Co 0.68496 0.60175 0.56006 0.0
O90 O 0.59467 0.52937 0.51033 0.0
C91 C 0.65373 0.64772 0.77692 0.0
C92 C 0.61744 0.78354 0.63618 0.0
C93 C 0.54363 0.53741 0.50629 0.0
O94 O 0.62015 0.66846 0.72059 0.0
O95 O 0.68819 0.62432 0.72936 0.0
O96 O 0.63154 0.7138 0.38976 0.0
O97 O 0.68913 0.68149 0.49486 0.0
Co98 Co 0.93314 0.61591 0.89031 0.0
O99 O 0.89317 0.66981 0.93657 0.0
O100 O 0.84005 0.55882 0.94123 0.0
C101 C 0.9889 0.67075 0.72579 0.0
O102 O 0.95897 0.54394 0.85512 0.0
Co103 Co 0.09012 0.68147 0.89344 0.0
O104 O 0.07214 0.59126 0.84374 0.0
C105 C 0.01279 0.65021 0.11026 0.0
C106 C 0.84066 0.61402 0.96966 0.0
C107 C 0.01298 0.54023 0.83967 0.0
O108 O 0.95843 0.6166 0.05389 0.0
O109 O 0.07074 0.68472 0.06273 0.0
O110 O 0.9244 0.62797 0.72315 0.0
O111 O 0.01447 0.68555 0.82817 0.0
Co112 Co 0.32385 0.92973 0.22316 0.0
O113 O 0.22989 0.88961 0.26962 0.0
O114 O 0.28796 0.83676 0.27407 0.0
C115 C 0.32468 0.9854 0.05866 0.0
O116 O 0.42171 0.95561 0.18777 0.0
Co117 Co 0.41537 0.08662 0.22618 0.0
O118 O 0.48765 0.0687 0.17636 0.0
C119 C 0.36926 0.0094 0.44304 0.0
C120 C 0.2333 0.83723 0.30268 0.0
C121 C 0.47948 0.0096 0.17224 0.0
O122 O 0.34858 0.95508 0.38671 0.0
O123 O 0.39267 0.06728 0.39546 0.0
O124 O 0.30293 0.92096 0.05601 0.0
O125 O 0.33549 0.01095 0.16105 0.0
Co126 Co 0.4008 0.32048 0.55696 0.0
O127 O 0.34693 0.22651 0.60319 0.0
O128 O 0.45798 0.28468 0.60777 0.0
C129 C 0.34588 0.3213 0.39244 0.0
O130 O 0.47283 0.41838 0.52179 0.0
Co131 Co 0.33528 0.41175 0.56006 0.0
O132 O 0.42557 0.48413 0.51032 0.0
C133 C 0.3665 0.36578 0.77692 0.0
C134 C 0.40279 0.22995 0.63618 0.0
C135 C 0.47659 0.47608 0.50624 0.0
O136 O 0.40008 0.34503 0.72058 0.0
O137 O 0.33204 0.38918 0.72936 0.0
O138 O 0.38869 0.2997 0.38975 0.0
O139 O 0.3311 0.332 0.49486 0.0
Co140 Co 0.08709 0.39758 0.89031 0.0
O141 O 0.12706 0.34369 0.93656 0.0
O142 O 0.18018 0.45467 0.94122 0.0
C143 C 0.03133 0.34274 0.72578 0.0
O144 O 0.06127 0.46956 0.85512 0.0
Co145 Co 0.93011 0.33202 0.89344 0.0
O146 O 0.94809 0.42224 0.84373 0.0
C147 C 1.00744 0.36328 0.11025 0.0
C148 C 0.17957 0.39948 0.96965 0.0
C149 C 1.00725 0.47326 0.83962 0.0
O150 O 0.06181 0.39689 0.05389 0.0
O151 O 0.9495 0.32878 0.06273 0.0
O152 O 0.09583 0.38552 0.72314 0.0
O153 O 1.00577 0.32794 0.82817 0.0
Co154 Co 0.69638 0.08377 0.22316 0.0
O155 O 0.79034 0.12388 0.26962 0.0
O156 O 0.73227 0.17674 0.27407 0.0
C157 C 0.69555 0.02809 0.05866 0.0
O158 O 0.59853 0.05788 0.18777 0.0
Co159 Co 0.60486 0.92688 0.22618 0.0
O160 O 0.53257 0.94479 0.17635 0.0
C161 C 0.65097 1.0041 0.44304 0.0
C162 C 0.78693 0.17626 0.30268 0.0
C163 C 0.54075 1.0039 0.17219 0.0
O164 O 0.67165 0.05842 0.38671 0.0
O165 O 0.62756 0.94622 0.39546 0.0
O166 O 0.7173 0.09254 0.05601 0.0
O167 O 0.68474 1.00255 0.16105 0.0
loop_
_geom_bond_atom_site_label_1
_geom_bond_atom_site_label_2
_geom_bond_distance
_geom_bond_site_symmetry_2
_ccdc_geom_bond_type
Co0 O1 2.216 . S
Co0 O2 2.091 . S
Co0 O4 2.004 . S
Co0 O10 2.021 1_554 S
Co0 O12 2.137 . S
Co0 O13 2.244 . S
O1 Co0 2.216 . S
O1 C8 1.247 . S
O2 Co0 2.091 . S
O2 C8 1.261 . S
C3 O12 1.247 . S
C3 O13 1.272 . S
O4 Co0 2.004 . S
O4 C9 1.259 . S
Co5 O6 2.061 . S
Co5 O11 2.052 1_554 S
Co5 O13 2.135 . S
O6 Co5 2.061 . S
O6 C9 1.235 . S
C7 O10 1.238 . S
C7 O11 1.241 . S
C8 O1 1.247 . S
C8 O2 1.261 . S
C9 O4 1.259 . S
C9 O6 1.235 . S
O10 Co0 2.021 1_556 S
O10 C7 1.238 . S
O11 Co5 2.052 1_556 S
O11 C7 1.241 . S
O12 Co0 2.137 . S
O12 C3 1.247 . S
O13 Co0 2.244 . S
O13 C3 1.272 . S
O13 Co5 2.135 . S
Co14 O15 2.216 . S
Co14 O16 2.091 . S
Co14 O18 2.004 . S
Co14 O24 2.021 . S
Co14 O26 2.137 . S
Co14 O27 2.244 1_655 S
O15 Co14 2.216 . S
O15 C22 1.247 . S
O16 Co14 2.091 . S
O16 C22 1.261 . S
C17 O26 1.264 . S
C17 O27 1.263 1_655 S
O18 Co14 2.004 . S
O18 C23 1.259 . S
Co19 O20 2.061 . S
Co19 O25 2.052 . S
Co19 O27 2.135 . S
O20 Co19 2.061 . S
O20 C23 1.236 1_455 S
C21 O24 1.238 1_455 S
C21 O25 1.241 . S
C22 O15 1.247 . S
C22 O16 1.261 . S
C23 O18 1.259 . S
C23 O20 1.236 1_655 S
O24 Co14 2.021 . S
O24 C21 1.238 1_655 S
O25 Co19 2.052 . S
O25 C21 1.241 . S
O26 Co14 2.137 . S
O26 C17 1.264 . S
O27 Co14 2.244 1_455 S
O27 C17 1.263 1_455 S
O27 Co19 2.135 . S
Co28 O29 2.216 . S
Co28 O30 2.091 . S
Co28 O32 2.004 . S
Co28 O38 2.021 . S
Co28 O40 2.137 . S
Co28 O41 2.244 1_565 S
O29 Co28 2.216 . S
O29 C36 1.247 . S
O30 Co28 2.091 . S
O30 C36 1.261 . S
C31 O40 1.260 . S
C31 O41 1.263 1_565 S
O32 Co28 2.004 . S
O32 C37 1.258 . S
Co33 O34 2.061 . S
Co33 O39 2.052 . S
Co33 O41 2.135 . S
O34 Co33 2.061 . S
O34 C37 1.235 1_545 S
C35 O38 1.238 1_545 S
C35 O39 1.241 . S
C36 O29 1.247 . S
C36 O30 1.261 . S
C37 O32 1.258 . S
C37 O34 1.235 1_565 S
O38 Co28 2.021 . S
O38 C35 1.238 1_565 S
O39 Co33 2.052 . S
O39 C35 1.241 . S
O40 Co28 2.137 . S
O40 C31 1.260 . S
O41 Co28 2.244 1_545 S
O41 C31 1.263 1_545 S
O41 Co33 2.135 . S
Co42 O43 2.216 . S
Co42 O44 2.091 . S
Co42 O46 2.004 . S
Co42 O52 2.021 1_554 S
Co42 O54 2.137 . S
Co42 O55 2.244 . S
O43 Co42 2.216 . S
O43 C50 1.247 . S
O44 Co42 2.091 . S
O44 C50 1.261 . S
C45 O54 1.247 . S
C45 O55 1.272 . S
O46 Co42 2.004 . S
O46 C51 1.259 . S
Co47 O48 2.061 . S
Co47 O53 2.052 1_554 S
Co47 O55 2.135 . S
O48 Co47 2.061 . S
O48 C51 1.235 . S
C49 O52 1.238 . S
C49 O53 1.241 . S
C50 O43 1.247 . S
C50 O44 1.261 . S
C51 O46 1.259 . S
C51 O48 1.235 . S
O52 Co42 2.021 1_556 S
O52 C49 1.238 . S
O53 Co47 2.052 1_556 S
O53 C49 1.241 . S
O54 Co42 2.137 . S
O54 C45 1.247 . S
O55 Co42 2.244 . S
O55 C45 1.272 . S
O55 Co47 2.135 . S
Co56 O57 2.216 . S
Co56 O58 2.091 . S
Co56 O60 2.004 . S
Co56 O66 2.021 . S
Co56 O68 2.137 . S
Co56 O69 2.244 1_455 S
O57 Co56 2.216 . S
O57 C64 1.247 . S
O58 Co56 2.091 . S
O58 C64 1.261 . S
C59 O68 1.264 . S
C59 O69 1.263 1_455 S
O60 Co56 2.004 . S
O60 C65 1.259 . S
Co61 O62 2.061 . S
Co61 O67 2.052 . S
Co61 O69 2.135 . S
O62 Co61 2.061 . S
O62 C65 1.236 1_655 S
C63 O66 1.238 1_655 S
C63 O67 1.241 . S
C64 O57 1.247 . S
C64 O58 1.261 . S
C65 O60 1.259 . S
C65 O62 1.236 1_455 S
O66 Co56 2.021 . S
O66 C63 1.238 1_455 S
O67 Co61 2.052 . S
O67 C63 1.241 . S
O68 Co56 2.137 . S
O68 C59 1.264 . S
O69 Co56 2.244 1_655 S
O69 C59 1.263 1_655 S
O69 Co61 2.135 . S
Co70 O71 2.216 . S
Co70 O72 2.091 . S
Co70 O74 2.004 . S
Co70 O80 2.021 . S
Co70 O82 2.137 . S
Co70 O83 2.244 1_545 S
O71 Co70 2.216 . S
O71 C78 1.247 . S
O72 Co70 2.091 . S
O72 C78 1.261 . S
C73 O82 1.260 . S
C73 O83 1.263 1_545 S
O74 Co70 2.004 . S
O74 C79 1.258 . S
Co75 O76 2.061 . S
Co75 O81 2.052 . S
Co75 O83 2.135 . S
O76 Co75 2.061 . S
O76 C79 1.235 1_565 S
C77 O80 1.238 1_565 S
C77 O81 1.241 . S
C78 O71 1.247 . S
C78 O72 1.261 . S
C79 O74 1.258 . S
C79 O76 1.235 1_545 S
O80 Co70 2.021 . S
O80 C77 1.238 1_545 S
O81 Co75 2.052 . S
O81 C77 1.241 . S
O82 Co70 2.137 . S
O82 C73 1.260 . S
O83 Co70 2.244 1_565 S
O83 C73 1.263 1_565 S
O83 Co75 2.135 . S
Co84 O85 2.216 . S
Co84 O86 2.091 . S
Co84 O88 2.004 . S
Co84 O94 2.021 . S
Co84 O96 2.137 . S
Co84 O97 2.244 . S
O85 Co84 2.216 . S
O85 C92 1.247 . S
O86 Co84 2.091 . S
O86 C92 1.261 . S
C87 O96 1.247 . S
C87 O97 1.272 . S
O88 Co84 2.004 . S
O88 C93 1.259 . S
Co89 O90 2.061 . S
Co89 O95 2.052 . S
Co89 O97 2.135 . S
O90 Co89 2.061 . S
O90 C93 1.235 . S
C91 O94 1.238 . S
C91 O95 1.241 . S
C92 O85 1.247 . S
C92 O86 1.261 . S
C93 O88 1.259 . S
C93 O90 1.235 . S
O94 Co84 2.021 . S
O94 C91 1.238 . S
O95 Co89 2.052 . S
O95 C91 1.241 . S
O96 Co84 2.137 . S
O96 C87 1.247 . S
O97 Co84 2.244 . S
O97 C87 1.272 . S
O97 Co89 2.135 . S
Co98 O99 2.216 . S
Co98 O100 2.091 . S
Co98 O102 2.004 . S
Co98 O108 2.021 1_556 S
Co98 O110 2.137 . S
Co98 O111 2.244 1_655 S
O99 Co98 2.216 . S
O99 C106 1.247 . S
O100 Co98 2.091 . S
O100 C106 1.261 . S
C101 O110 1.260 . S
C101 O111 1.263 1_655 S
O102 Co98 2.004 . S
O102 C107 1.258 . S
Co103 O104 2.061 . S
Co103 O109 2.052 1_556 S
Co103 O111 2.135 . S
O104 Co103 2.061 . S
O104 C107 1.235 1_455 S
C105 O108 1.238 1_455 S
C105 O109 1.241 . S
C106 O99 1.247 . S
C106 O100 1.261 . S
C107 O102 1.258 . S
C107 O104 1.235 1_655 S
O108 Co98 2.021 1_554 S
O108 C105 1.238 1_655 S
O109 Co103 2.052 1_554 S
O109 C105 1.241 . S
O110 Co98 2.137 . S
O110 C101 1.260 . S
O111 Co98 2.244 1_455 S
O111 C101 1.263 1_455 S
O111 Co103 2.135 . S
Co112 O113 2.216 . S
Co112 O114 2.091 . S
Co112 O116 2.004 . S
Co112 O122 2.021 . S
Co112 O124 2.137 . S
Co112 O125 2.244 1_565 S
O113 Co112 2.216 . S
O113 C120 1.247 . S
O114 Co112 2.091 . S
O114 C120 1.261 . S
C115 O124 1.264 . S
C115 O125 1.263 1_565 S
O116 Co112 2.004 . S
O116 C121 1.259 . S
Co117 O118 2.061 . S
Co117 O123 2.052 . S
Co117 O125 2.135 . S
O118 Co117 2.061 . S
O118 C121 1.236 1_545 S
C119 O122 1.238 1_545 S
C119 O123 1.241 . S
C120 O113 1.247 . S
C120 O114 1.261 . S
C121 O116 1.259 . S
C121 O118 1.236 1_565 S
O122 Co112 2.021 . S
O122 C119 1.238 1_565 S
O123 Co117 2.052 . S
O123 C119 1.241 . S
O124 Co112 2.137 . S
O124 C115 1.264 . S
O125 Co112 2.244 1_545 S
O125 C115 1.263 1_545 S
O125 Co117 2.135 . S
Co126 O127 2.216 . S
Co126 O128 2.091 . S
Co126 O130 2.004 . S
Co126 O136 2.021 . S
Co126 O138 2.137 . S
Co126 O139 2.244 . S
O127 Co126 2.216 . S
O127 C134 1.247 . S
O128 Co126 2.091 . S
O128 C134 1.261 . S
C129 O138 1.247 . S
C129 O139 1.272 . S
O130 Co126 2.004 . S
O130 C135 1.259 . S
Co131 O132 2.061 . S
Co131 O137 2.052 . S
Co131 O139 2.135 . S
O132 Co131 2.061 . S
O132 C135 1.235 . S
C133 O136 1.238 . S
C133 O137 1.241 . S
C134 O127 1.247 . S
C134 O128 1.261 . S
C135 O130 1.259 . S
C135 O132 1.235 . S
O136 Co126 2.021 . S
O136 C133 1.238 . S
O137 Co131 2.052 . S
O137 C133 1.241 . S
O138 Co126 2.137 . S
O138 C129 1.247 . S
O139 Co126 2.244 . S
O139 C129 1.272 . S
O139 Co131 2.135 . S
Co140 O141 2.216 . S
Co140 O142 2.091 . S
Co140 O144 2.004 . S
Co140 O150 2.021 1_556 S
Co140 O152 2.137 . S
Co140 O153 2.244 1_455 S
O141 Co140 2.216 . S
O141 C148 1.247 . S
O142 Co140 2.091 . S
O142 C148 1.261 . S
C143 O152 1.260 . S
C143 O153 1.263 1_455 S
O144 Co140 2.004 . S
O144 C149 1.258 . S
Co145 O146 2.061 . S
Co145 O151 2.052 1_556 S
Co145 O153 2.135 . S
O146 Co145 2.061 . S
O146 C149 1.235 1_655 S
C147 O150 1.238 1_655 S
C147 O151 1.241 . S
C148 O141 1.247 . S
C148 O142 1.261 . S
C149 O144 1.258 . S
C149 O146 1.235 1_455 S
O150 Co140 2.021 1_554 S
O150 C147 1.238 1_455 S
O151 Co145 2.052 1_554 S
O151 C147 1.241 . S
O152 Co140 2.137 . S
O152 C143 1.260 . S
O153 Co140 2.244 1_655 S
O153 C143 1.263 1_655 S
O153 Co145 2.135 . S
Co154 O155 2.216 . S
Co154 O156 2.091 . S
Co154 O158 2.004 . S
Co154 O164 2.021 . S
Co154 O166 2.137 . S
Co154 O167 2.244 1_545 S
O155 Co154 2.216 . S
O155 C162 1.247 . S
O156 Co154 2.091 . S
O156 C162 1.261 . S
C157 O166 1.264 . S
C157 O167 1.263 1_545 S
O158 Co154 2.004 . S
O158 C163 1.259 . S
Co159 O160 2.061 . S
Co159 O165 2.052 . S
Co159 O167 2.135 . S
O160 Co159 2.061 . S
O160 C163 1.236 1_565 S
C161 O164 1.238 1_565 S
C161 O165 1.241 . S
C162 O155 1.247 . S
C162 O156 1.261 . S
C163 O158 1.259 . S
C163 O160 1.236 1_545 S
O164 Co154 2.021 . S
O164 C161 1.238 1_545 S
O165 Co159 2.052 . S
O165 C161 1.241 . S
O166 Co154 2.137 . S
O166 C157 1.264 . S
O167 Co154 2.244 1_565 S
O167 C157 1.263 1_565 S
O167 Co159 2.135 . S
C3 C129 1.573 . S
C17 C143 1.573 1_655 S
C31 C157 1.573 1_566 S
C45 C87 1.573 . S
C101 C59 1.573 1_655 S
C115 C73 1.573 1_564 S
C148 C8 1.769 1_556 S
C22 C162 1.770 . S
C36 C92 1.770 . S
C50 C106 1.769 1_554 S
C64 C120 1.770 . S
C78 C134 1.770 . S
C133 C7 1.749 . S
C21 C147 1.749 1_455 S
C35 C161 1.749 1_545 S
C91 C49 1.749 . S
C63 C105 1.749 1_655 S
C119 C77 1.749 1_545 S
C9 C51 1.502 . S
C65 C23 1.501 1_455 S
C37 C79 1.502 1_565 S
C93 C135 1.502 . S
C107 C149 1.502 1_655 S
C163 C121 1.501 1_545 S
