# Generated by pormake.
# Topology sml, (6)-cn, num edge types: 1
# Building blocks:
#     Node 0, Type 0, BuildingBlock: CIFDUS_clean_sbu_1, # of connection points: 6
#     Node 1, Type 0, BuildingBlock: CIFDUS_clean_sbu_1, # of connection points: 6
#     Node 2, Type 0, BuildingBlock: CIFDUS_clean_sbu_1, # of connection points: 6
#     Node 3, Type 0, BuildingBlock: CIFDUS_clean_sbu_1, # of connection points: 6
#     Node 4, Type 0, BuildingBlock: CIFDUS_clean_sbu_1, # of connection points: 6
#     Node 5, Type 0, BuildingBlock: CIFDUS_clean_sbu_1, # of connection points: 6
#     Edge 6, Type (0, 0), None
#     Edge 7, Type (0, 0), None
#     Edge 8, Type (0, 0), None
#     Edge 9, Type (0, 0), None
#     Edge 10, Type (0, 0), None
#     Edge 11, Type (0, 0), None
#     Edge 12, Type (0, 0), None
#     Edge 13, Type (0, 0), None
#     Edge 14, Type (0, 0), None
#     Edge 15, Type (0, 0), None
#     Edge 16, Type (0, 0), None
#     Edge 17, Type (0, 0), None
#     Edge 18, Type (0, 0), None
#     Edge 19, Type (0, 0), None
#     Edge 20, Type (0, 0), None
#     Edge 21, Type (0, 0), None
#     Edge 22, Type (0, 0), None
#     Edge 23, Type (0, 0), None
# Relax obj value: 0.145
# Max RMSD: 0.168
# Mean RMSD: 0.168
data_MOF--net-sml--node1-CIFDUS_clean_sbu_1--edge1-none
_symmetry_space_group_name_H-M    P1
_symmetry_Int_Tables_number       1
_symmetry_cell_setting            triclinic
loop_
_symmetry_equiv_pos_as_xyz
'x, y, z'
_cell_length_a     17.848186
_cell_length_b     17.847493
_cell_length_c     7.3912979
_cell_angle_alpha  89.99051
_cell_angle_beta   90.01286
_cell_angle_gamma 120.00735
loop_
_atom_site_label
_atom_site_type_symbol
_atom_site_fract_x
_atom_site_fract_y
_atom_site_fract_z
_atom_type_partial_charge
O0 O 0.21846 0.52796 0.07471 0.0
Mn1 Mn 0.27225 0.45142 -0.0054 0.0
O2 O 0.33068 0.65689 0.13874 0.0
Mn3 Mn 0.40286 0.61438 0.20976 0.0
O4 O 0.32823 0.37561 0.90555 0.0
O5 O 0.14908 0.35363 0.97137 0.0
Mn6 Mn 0.14423 0.2843 0.79607 0.0
O7 O 0.27905 0.48059 0.7237 0.0
O8 O 0.21451 0.24657 0.89605 0.0
O9 O 0.26475 0.42022 0.26694 0.0
O10 O 0.36016 0.54317 0.41097 0.0
O11 O 1.03449 0.23796 0.88789 0.0
O12 O 0.19 0.35264 0.58877 0.0
C13 C 0.46706 0.61104 0.96898 0.0
C14 C 0.24935 0.60524 0.13692 0.0
C15 C 0.29343 0.29552 0.85911 0.0
C16 C 0.06933 0.29802 0.00927 0.0
C17 C 0.25263 0.43077 0.58441 0.0
C18 C 0.29575 0.46611 0.4108 0.0
O19 O 0.39339 0.54898 0.02405 0.0
O20 O 0.51068 0.66091 0.1018 0.0
O21 O 0.72191 0.20268 0.40818 0.0
Mn22 Mn 0.85226 0.2565 0.32803 0.0
O23 O 0.7052 0.31489 0.47209 0.0
Mn24 Mn 0.81989 0.38709 0.5431 0.0
O25 O 0.98405 0.31251 0.23898 0.0
O26 O 0.82689 0.13333 0.30487 0.0
Mn27 Mn 0.89137 0.12852 0.12954 0.0
O28 O 0.82988 0.2633 0.05712 0.0
O29 O 0.99945 0.19877 0.22937 0.0
O30 O 0.87595 0.24901 0.60038 0.0
O31 O 0.8484 0.3444 0.74435 0.0
O32 O 0.82798 1.01876 0.22133 0.0
O33 O 0.86877 0.17426 0.92223 0.0
C34 C 0.88745 0.4513 0.30231 0.0
C35 C 0.67552 0.23356 0.47034 0.0
C36 C 1.02936 0.27772 0.19272 0.0
C37 C 0.80276 0.05358 0.34272 0.0
C38 C 0.85327 0.23688 0.91785 0.0
C39 C 0.86105 0.28 0.74422 0.0
O40 O 0.87584 0.37764 0.35741 0.0
O41 O 0.8812 0.49492 0.43509 0.0
O42 O 0.55059 0.70601 0.74136 0.0
Mn43 Mn 0.62713 0.83638 0.66129 0.0
O44 O 0.42161 0.68925 0.80552 0.0
Mn45 Mn 0.46415 0.80396 0.8764 0.0
O46 O 0.70292 0.9682 0.57229 0.0
O47 O 0.72495 0.81106 0.63812 0.0
Mn48 Mn 0.79426 0.8756 0.46284 0.0
O49 O 0.59798 0.81404 0.39039 0.0
O50 O 0.83207 0.98364 0.56278 0.0
O51 O 0.65831 0.86006 0.93363 0.0
O52 O 0.53537 0.83251 0.07762 0.0
O53 O 0.84063 0.81221 0.55457 0.0
O54 O 0.72593 0.85301 0.25552 0.0
C55 C 0.46751 0.87154 0.63558 0.0
C56 C 0.47327 0.65959 0.80329 0.0
C57 C 0.78304 1.01355 0.52612 0.0
C58 C 0.78058 0.78695 0.67596 0.0
C59 C 0.64779 0.83745 0.25112 0.0
C60 C 0.61243 0.84518 0.07748 0.0
O61 O 0.52955 0.85991 0.69067 0.0
O62 O 0.41765 0.86527 0.76837 0.0
O63 O 0.87601 0.53482 0.07464 0.0
Mn64 Mn 0.82218 0.61134 -0.00546 0.0
O65 O 0.76379 0.40582 0.13883 0.0
Mn66 Mn 0.69161 0.44834 0.20971 0.0
O67 O 0.76613 0.6871 0.90552 0.0
O68 O 0.94532 0.70919 0.97132 0.0
Mn69 Mn 0.95009 0.7785 0.79602 0.0
O70 O 0.81536 0.58219 0.72365 0.0
O71 O 0.87984 0.81627 0.89599 0.0
O72 O 0.82968 0.64252 0.26686 0.0
O73 O 0.73429 0.51957 0.4109 0.0
O74 O 0.05986 0.8249 0.88773 0.0
O75 O 0.90433 0.71016 0.58873 0.0
C76 C 0.62737 0.4517 0.9689 0.0
C77 C 0.84511 0.4575 0.1366 0.0
C78 C 0.8009 0.76723 0.85935 0.0
C79 C 1.02507 0.76484 0.00914 0.0
C80 C 0.84176 0.63201 0.58436 0.0
C81 C 0.79867 0.59663 0.41073 0.0
O82 O 0.70106 0.51374 0.02396 0.0
O83 O 0.58378 0.40183 0.10171 0.0
O84 O 0.37259 0.86017 0.40788 0.0
Mn85 Mn 0.24223 0.80638 0.32777 0.0
O86 O 0.38927 0.7479 0.47213 0.0
Mn87 Mn 0.27455 0.67577 0.54298 0.0
O88 O 0.11042 0.75036 0.23875 0.0
O89 O 0.26759 0.92953 0.30452 0.0
Mn90 Mn 0.20308 0.93434 0.12919 0.0
O91 O 0.26457 0.79957 0.05689 0.0
O92 O 0.09504 0.86411 0.22912 0.0
O93 O 0.21855 0.81388 0.60009 0.0
O94 O 0.24606 0.71847 0.74418 0.0
O95 O 0.26649 0.0441 0.22092 0.0
O96 O 0.22563 0.88857 0.92191 0.0
C97 C 0.20706 0.61152 0.30256 0.0
C98 C 0.41897 0.82924 0.46986 0.0
C99 C 0.0651 0.78516 0.19252 0.0
C100 C 0.29171 1.00928 0.34237 0.0
C101 C 0.24117 0.82598 0.91758 0.0
C102 C 0.23342 0.78287 0.74397 0.0
O103 O 0.21864 0.68524 0.35717 0.0
O104 O 0.21325 0.56786 0.43537 0.0
O105 O 0.54379 0.35676 0.74127 0.0
Mn106 Mn 0.46723 0.2264 0.66118 0.0
O107 O 0.67276 0.37349 0.80542 0.0
Mn108 Mn 0.63017 0.25878 0.87637 0.0
O109 O 0.39145 0.09459 0.57216 0.0
O110 O 0.36938 0.25169 0.63802 0.0
Mn111 Mn 0.30011 0.18723 0.46259 0.0
O112 O 0.49638 0.24877 0.3903 0.0
O113 O 0.26229 0.07914 0.56234 0.0
O114 O 0.43604 0.2027 0.93351 0.0
O115 O 0.55899 0.23029 0.07759 0.0
O116 O 0.25365 0.25053 0.55432 0.0
O117 O 0.36845 0.20987 0.25531 0.0
C118 C 0.62694 0.19128 0.636 0.0
C119 C 0.62112 0.40317 0.80319 0.0
C120 C 0.31135 0.04926 0.5258 0.0
C121 C 0.31367 0.27569 0.67579 0.0
C122 C 0.44658 0.22538 0.25098 0.0
C123 C 0.48193 0.21762 0.07739 0.0
O124 O 0.5648 0.20286 0.69057 0.0
O125 O 0.67679 0.19749 0.76883 0.0
loop_
_geom_bond_atom_site_label_1
_geom_bond_atom_site_label_2
_geom_bond_distance
_geom_bond_site_symmetry_2
_ccdc_geom_bond_type
O0 Mn1 2.163 . S
O0 C14 1.244 . S
Mn1 O0 2.163 . S
Mn1 O4 2.160 1_554 S
Mn1 O5 2.221 . S
Mn1 O7 2.163 1_554 S
Mn1 O9 2.160 . S
Mn1 O19 2.221 . S
O2 Mn3 2.087 . S
O2 C14 1.256 . S
Mn3 O2 2.087 . S
Mn3 O10 2.089 . S
Mn3 O19 2.290 . S
Mn3 O20 2.251 1_554 S
O4 Mn1 2.160 1_556 S
O4 C15 1.239 . S
O5 Mn1 2.221 . S
O5 Mn6 2.290 1_554 S
O5 C16 1.278 . S
Mn6 O5 2.290 1_556 S
Mn6 O8 2.089 . S
Mn6 O11 2.251 1_455 S
Mn6 O12 2.087 . S
O7 Mn1 2.163 1_556 S
O7 C17 1.244 . S
O8 Mn6 2.089 . S
O8 C15 1.256 . S
O9 Mn1 2.160 . S
O9 C18 1.239 . S
O10 Mn3 2.089 . S
O10 C18 1.256 . S
O11 Mn6 2.251 1_655 S
O11 C16 1.241 1_656 S
O12 Mn6 2.087 . S
O12 C17 1.256 . S
C13 O19 1.278 1_556 S
C13 O20 1.241 . S
C14 O0 1.244 . S
C14 O2 1.256 . S
C15 O4 1.239 . S
C15 O8 1.256 . S
C16 O5 1.278 . S
C16 O11 1.241 1_454 S
C17 O7 1.244 . S
C17 O12 1.256 . S
C18 O9 1.239 . S
C18 O10 1.256 . S
O19 Mn1 2.221 . S
O19 Mn3 2.290 . S
O19 C13 1.278 1_554 S
O20 Mn3 2.251 1_556 S
O20 C13 1.241 . S
O21 Mn22 2.163 . S
O21 C35 1.244 . S
Mn22 O21 2.163 . S
Mn22 O25 2.160 . S
Mn22 O26 2.221 . S
Mn22 O28 2.163 . S
Mn22 O30 2.160 . S
Mn22 O40 2.221 . S
O23 Mn24 2.087 . S
O23 C35 1.256 . S
Mn24 O23 2.087 . S
Mn24 O31 2.089 . S
Mn24 O40 2.290 . S
Mn24 O41 2.251 . S
O25 Mn22 2.160 . S
O25 C36 1.239 . S
O26 Mn22 2.221 . S
O26 Mn27 2.290 . S
O26 C37 1.278 . S
Mn27 O26 2.290 . S
Mn27 O29 2.089 . S
Mn27 O32 2.251 1_545 S
Mn27 O33 2.087 1_554 S
O28 Mn22 2.163 . S
O28 C38 1.244 1_554 S
O29 Mn27 2.089 . S
O29 C36 1.256 . S
O30 Mn22 2.160 . S
O30 C39 1.239 . S
O31 Mn24 2.089 . S
O31 C39 1.256 . S
O32 Mn27 2.251 1_565 S
O32 C37 1.241 1_565 S
O33 Mn27 2.087 1_556 S
O33 C38 1.256 . S
C34 O40 1.278 . S
C34 O41 1.241 . S
C35 O21 1.244 . S
C35 O23 1.256 . S
C36 O25 1.239 . S
C36 O29 1.256 . S
C37 O26 1.278 . S
C37 O32 1.241 1_545 S
C38 O28 1.244 1_556 S
C38 O33 1.256 . S
C39 O30 1.239 . S
C39 O31 1.256 . S
O40 Mn22 2.221 . S
O40 Mn24 2.290 . S
O40 C34 1.278 . S
O41 Mn24 2.251 . S
O41 C34 1.241 . S
O42 Mn43 2.163 . S
O42 C56 1.244 . S
Mn43 O42 2.163 . S
Mn43 O46 2.160 . S
Mn43 O47 2.221 . S
Mn43 O49 2.163 . S
Mn43 O51 2.160 . S
Mn43 O61 2.221 . S
O44 Mn45 2.087 . S
O44 C56 1.256 . S
Mn45 O44 2.087 . S
Mn45 O52 2.089 1_556 S
Mn45 O61 2.290 . S
Mn45 O62 2.251 . S
O46 Mn43 2.160 . S
O46 C57 1.239 . S
O47 Mn43 2.221 . S
O47 Mn48 2.290 . S
O47 C58 1.278 . S
Mn48 O47 2.290 . S
Mn48 O50 2.089 . S
Mn48 O53 2.251 . S
Mn48 O54 2.087 . S
O49 Mn43 2.163 . S
O49 C59 1.244 . S
O50 Mn48 2.089 . S
O50 C57 1.256 . S
O51 Mn43 2.160 . S
O51 C60 1.239 1_556 S
O52 Mn45 2.089 1_554 S
O52 C60 1.256 . S
O53 Mn48 2.251 . S
O53 C58 1.241 . S
O54 Mn48 2.087 . S
O54 C59 1.256 . S
C55 O61 1.278 . S
C55 O62 1.241 . S
C56 O42 1.244 . S
C56 O44 1.256 . S
C57 O46 1.239 . S
C57 O50 1.256 . S
C58 O47 1.278 . S
C58 O53 1.241 . S
C59 O49 1.244 . S
C59 O54 1.256 . S
C60 O51 1.239 1_554 S
C60 O52 1.256 . S
O61 Mn43 2.221 . S
O61 Mn45 2.290 . S
O61 C55 1.278 . S
O62 Mn45 2.251 . S
O62 C55 1.241 . S
O63 Mn64 2.163 . S
O63 C77 1.244 . S
Mn64 O63 2.163 . S
Mn64 O67 2.160 1_554 S
Mn64 O68 2.221 . S
Mn64 O70 2.163 1_554 S
Mn64 O72 2.160 . S
Mn64 O82 2.221 . S
O65 Mn66 2.087 . S
O65 C77 1.256 . S
Mn66 O65 2.087 . S
Mn66 O73 2.089 . S
Mn66 O82 2.290 . S
Mn66 O83 2.251 1_554 S
O67 Mn64 2.160 1_556 S
O67 C78 1.239 . S
O68 Mn64 2.221 . S
O68 Mn69 2.290 1_554 S
O68 C79 1.278 . S
Mn69 O68 2.290 1_556 S
Mn69 O71 2.089 . S
Mn69 O74 2.251 1_655 S
Mn69 O75 2.087 . S
O70 Mn64 2.163 1_556 S
O70 C80 1.244 . S
O71 Mn69 2.089 . S
O71 C78 1.256 . S
O72 Mn64 2.160 . S
O72 C81 1.239 . S
O73 Mn66 2.089 . S
O73 C81 1.256 . S
O74 Mn69 2.251 1_455 S
O74 C79 1.241 1_456 S
O75 Mn69 2.087 . S
O75 C80 1.256 . S
C76 O82 1.278 1_556 S
C76 O83 1.241 . S
C77 O63 1.244 . S
C77 O65 1.256 . S
C78 O67 1.239 . S
C78 O71 1.256 . S
C79 O68 1.278 . S
C79 O74 1.241 1_654 S
C80 O70 1.244 . S
C80 O75 1.256 . S
C81 O72 1.239 . S
C81 O73 1.256 . S
O82 Mn64 2.221 . S
O82 Mn66 2.290 . S
O82 C76 1.278 1_554 S
O83 Mn66 2.251 1_556 S
O83 C76 1.241 . S
O84 Mn85 2.163 . S
O84 C98 1.244 . S
Mn85 O84 2.163 . S
Mn85 O88 2.160 . S
Mn85 O89 2.221 . S
Mn85 O91 2.163 . S
Mn85 O93 2.160 . S
Mn85 O103 2.221 . S
O86 Mn87 2.087 . S
O86 C98 1.256 . S
Mn87 O86 2.087 . S
Mn87 O94 2.089 . S
Mn87 O103 2.290 . S
Mn87 O104 2.251 . S
O88 Mn85 2.160 . S
O88 C99 1.239 . S
O89 Mn85 2.221 . S
O89 Mn90 2.290 . S
O89 C100 1.278 . S
Mn90 O89 2.290 . S
Mn90 O92 2.089 . S
Mn90 O95 2.251 1_565 S
Mn90 O96 2.087 1_554 S
O91 Mn85 2.163 . S
O91 C101 1.244 1_554 S
O92 Mn90 2.089 . S
O92 C99 1.256 . S
O93 Mn85 2.160 . S
O93 C102 1.239 . S
O94 Mn87 2.089 . S
O94 C102 1.256 . S
O95 Mn90 2.251 1_545 S
O95 C100 1.241 1_545 S
O96 Mn90 2.087 1_556 S
O96 C101 1.256 . S
C97 O103 1.278 . S
C97 O104 1.241 . S
C98 O84 1.244 . S
C98 O86 1.256 . S
C99 O88 1.239 . S
C99 O92 1.256 . S
C100 O89 1.278 . S
C100 O95 1.241 1_565 S
C101 O91 1.244 1_556 S
C101 O96 1.256 . S
C102 O93 1.239 . S
C102 O94 1.256 . S
O103 Mn85 2.221 . S
O103 Mn87 2.290 . S
O103 C97 1.278 . S
O104 Mn87 2.251 . S
O104 C97 1.241 . S
O105 Mn106 2.163 . S
O105 C119 1.244 . S
Mn106 O105 2.163 . S
Mn106 O109 2.160 . S
Mn106 O110 2.221 . S
Mn106 O112 2.163 . S
Mn106 O114 2.160 . S
Mn106 O124 2.221 . S
O107 Mn108 2.087 . S
O107 C119 1.256 . S
Mn108 O107 2.087 . S
Mn108 O115 2.089 1_556 S
Mn108 O124 2.290 . S
Mn108 O125 2.251 . S
O109 Mn106 2.160 . S
O109 C120 1.239 . S
O110 Mn106 2.221 . S
O110 Mn111 2.290 . S
O110 C121 1.278 . S
Mn111 O110 2.290 . S
Mn111 O113 2.089 . S
Mn111 O116 2.251 . S
Mn111 O117 2.087 . S
O112 Mn106 2.163 . S
O112 C122 1.244 . S
O113 Mn111 2.089 . S
O113 C120 1.256 . S
O114 Mn106 2.160 . S
O114 C123 1.239 1_556 S
O115 Mn108 2.089 1_554 S
O115 C123 1.256 . S
O116 Mn111 2.251 . S
O116 C121 1.241 . S
O117 Mn111 2.087 . S
O117 C122 1.256 . S
C118 O124 1.278 . S
C118 O125 1.241 . S
C119 O105 1.244 . S
C119 O107 1.256 . S
C120 O109 1.239 . S
C120 O113 1.256 . S
C121 O110 1.278 . S
C121 O116 1.241 . S
C122 O112 1.244 . S
C122 O117 1.256 . S
C123 O114 1.239 1_554 S
C123 O115 1.256 . S
O124 Mn106 2.221 . S
O124 Mn108 2.290 . S
O124 C118 1.278 . S
O125 Mn108 2.251 . S
O125 C118 1.241 . S
C121 C15 1.531 . S
C16 C36 1.531 1_455 S
C37 C57 1.531 1_545 S
C58 C78 1.531 . S
C99 C79 1.531 1_455 S
C120 C100 1.531 1_545 S
C17 C18 1.679 . S
C38 C39 1.679 . S
C59 C60 1.679 . S
C80 C81 1.679 . S
C102 C101 1.679 . S
C122 C123 1.679 . S
C14 C97 1.119 . S
C35 C118 1.119 . S
C13 C56 1.119 . S
C34 C77 1.119 . S
C98 C55 1.119 . S
C76 C119 1.119 . S
