# Generated by pormake.
# Topology pcu, (6)-cn, num edge types: 1
# Building blocks:
#     Node 0, Type 0, BuildingBlock: KUMBOL_clean_sbu_0, # of connection points: 6
#     Edge 1, Type (0, 0), BuildingBlock: UVAHIK_clean_linker_0, # of connection points: 2
#     Edge 2, Type (0, 0), BuildingBlock: UVAHIK_clean_linker_0, # of connection points: 2
#     Edge 3, Type (0, 0), BuildingBlock: UVAHIK_clean_linker_0, # of connection points: 2
# Relax obj value: 0.000
# Max RMSD: 0.000
# Mean RMSD: 0.000
data_MOF--net-pcu--node1-KUMBOL_clean_sbu_0--edge1-UVAHIK_clean_linker_0
_symmetry_space_group_name_H-M    P1
_symmetry_Int_Tables_number       1
_symmetry_cell_setting            triclinic
loop_
_symmetry_equiv_pos_as_xyz
'x, y, z'
_cell_length_a     28.772197
_cell_length_b     18.38038
_cell_length_c     19.792145
_cell_angle_alpha  73.878788
_cell_angle_beta   116.30775
_cell_angle_gamma 116.36745
loop_
_atom_site_label
_atom_site_type_symbol
_atom_site_fract_x
_atom_site_fract_y
_atom_site_fract_z
_atom_type_partial_charge
Gd0 Gd 0.09347 0.06527 0.02647 0.0
Gd1 Gd 0.94058 0.94386 0.9655 0.0
C2 C 0.86884 0.67333 0.9336 0.0
C3 C 0.81823 0.67369 0.79736 0.0
C4 C 0.86689 0.80043 0.85625 0.0
C5 C 0.8849 0.75877 0.92637 0.0
C6 C 0.8323 0.75825 0.7911 0.0
C7 C 0.83652 0.6313 0.86852 0.0
C8 C 0.88448 0.63253 0.00619 0.0
C9 C 0.91359 0.67655 0.0693 0.0
N10 N 0.91567 0.80128 0.98802 0.0
C11 C 0.92828 0.76121 0.05919 0.0
H12 H 0.95104 0.79438 0.1085 0.0
C13 C 0.8586 0.92415 0.78609 0.0
N14 N 0.88092 0.88187 0.85241 0.0
C15 C 0.82435 0.88515 0.71977 0.0
C16 C 0.81169 0.802 0.72206 0.0
H17 H 0.86863 0.98856 0.78405 0.0
H18 H 0.82428 0.56579 0.87284 0.0
H19 H 0.08308 0.21472 0.88341 0.0
H20 H 0.87321 0.56699 0.01418 0.0
H21 H 0.925 0.64541 0.12577 0.0
H22 H 0.79214 0.64025 0.74786 0.0
H23 H 0.16536 0.02063 0.20798 0.0
H24 H 0.16092 0.44217 0.97762 0.0
H25 H 0.10917 0.3637 0.86607 0.0
H26 H 0.24187 0.369 0.24399 0.0
H27 H 0.80782 0.91923 0.66697 0.0
H28 H 0.78501 0.77185 0.67067 0.0
H29 H 0.20979 0.44342 0.11896 0.0
H30 H 0.22613 0.09002 0.32504 0.0
N31 N 0.11841 0.20786 0.00389 0.0
C32 C 0.14963 0.37663 0.98565 0.0
C33 C 0.12054 0.33257 0.92256 0.0
C34 C 0.16524 0.33585 0.05825 0.0
C35 C 0.14916 0.2504 0.06552 0.0
C36 C 0.10583 0.2479 0.93271 0.0
N37 N 0.15309 0.12732 0.13955 0.0
C38 C 0.16713 0.20876 0.13567 0.0
C39 C 0.20962 0.12408 0.27221 0.0
C40 C 0.22228 0.20724 0.26987 0.0
C41 C 0.17539 0.08505 0.2059 0.0
C42 C 0.20171 0.25097 0.20081 0.0
H43 H 0.24895 0.23741 0.32125 0.0
O44 O 0.16335 0.02864 0.05898 0.0
O45 O 0.02533 0.94508 -0.00033 0.0
O46 O 0.98399 0.94248 0.09413 0.0
O47 O 0.06584 0.05923 0.11845 0.0
O48 O 0.09721 0.94325 0.08981 0.0
O49 O 0.14296 0.109 0.95639 0.0
O50 O 0.87069 0.98042 0.93306 0.0
O51 O 1.00871 0.06396 0.99218 0.0
O52 O 0.05007 0.06665 0.89784 0.0
O53 O 0.96817 0.94996 0.87346 0.0
O54 O 0.93682 0.06596 0.90229 0.0
O55 O 0.89114 0.90009 0.03566 0.0
C56 C 0.04823 0.89828 0.04837 0.0
C57 C 0.21579 0.33554 0.19449 0.0
C58 C 0.19754 0.37791 0.12331 0.0
C59 C 0.17792 0.07374 0.00266 0.0
C60 C 0.23775 0.12409 0.02175 0.0
C61 C 0.26064 0.19994 0.04937 0.0
C62 C 0.27251 0.09566 0.01281 0.0
C63 C 0.33002 0.14283 0.0311 0.0
C64 C 0.3175 0.24686 0.06791 0.0
C65 C 0.35203 0.21871 0.05893 0.0
C66 C 0.02528 0.99965 0.13853 0.0
C67 C 0.98586 0.11089 0.94364 0.0
C68 C 0.85615 0.93532 0.9894 0.0
C69 C 0.79632 0.88493 0.97036 0.0
C70 C 0.77346 0.80906 0.94279 0.0
C71 C 0.76156 0.91336 0.97929 0.0
C72 C 0.70406 0.86616 0.96102 0.0
C73 C 0.7166 0.76211 0.92429 0.0
C74 C 0.68206 0.79026 0.93324 0.0
C75 C 1.00874 0.00953 0.8534 0.0
H76 H 0.23464 0.2229 0.05655 0.0
H77 H 0.25454 0.03734 0.99071 0.0
H78 H 0.33493 0.30522 0.08951 0.0
H79 H 0.39615 0.25596 0.07474 0.0
H80 H 0.79946 0.7861 0.93562 0.0
H81 H 0.77952 0.97169 0.00135 0.0
H82 H 0.69918 0.70374 0.90272 0.0
H83 H 0.63795 0.75299 0.91745 0.0
C84 C 0.06193 0.06529 0.25657 0.0
C85 C 0.02522 0.99844 0.21364 0.0
C86 C 0.06042 0.06617 0.32587 0.0
C87 C 1.01228 0.93232 0.47858 0.0
H88 H 0.02462 0.13326 0.52506 0.0
C89 C 0.97206 0.94394 0.73532 0.0
C90 C 1.00879 0.01076 0.77827 0.0
C91 C 0.97356 0.94307 0.66601 0.0
C92 C 0.02171 0.07691 0.51332 0.0
H93 H 0.95812 0.87989 0.21033 0.0
H94 H 0.95513 0.88189 0.33098 0.0
H95 H 0.02881 0.12963 0.40572 0.0
H96 H 0.07592 0.12929 0.78161 0.0
H97 H 0.0789 0.12731 0.66095 0.0
H98 H 1.00519 0.87961 0.58617 0.0
C99 C 0.98564 0.93316 0.3114 0.0
C100 C 0.02414 0.07482 0.44493 0.0
C101 C 0.98716 0.93223 0.24199 0.0
C102 C 0.04686 0.07696 0.74994 0.0
C103 C 0.04838 0.07605 0.68052 0.0
C104 C 1.00985 0.93441 0.54697 0.0
C105 C 0.02202 1.00039 0.35392 0.0
C106 C 0.01949 1.0025 0.42675 0.0
C107 C 1.01197 0.00884 0.63798 0.0
C108 C 1.01451 0.00673 0.56514 0.0
H109 H 0.09136 0.11782 0.23623 0.0
H110 H 0.08949 0.11846 0.35759 0.0
H111 H 1.00938 0.87598 0.46684 0.0
H112 H 0.94261 0.89142 0.75564 0.0
H113 H 0.94447 0.8908 0.63427 0.0
C114 C 0.36188 0.03116 0.04186 0.0
C115 C 0.36721 0.11335 0.02164 0.0
C116 C 0.39804 1.00434 0.03504 0.0
C117 C 0.53683 0.08019 0.02176 0.0
H118 H 0.48071 0.87046 0.94909 0.0
C119 C 0.67217 0.97782 0.95022 0.0
C120 C 0.66686 0.89564 0.97047 0.0
C121 C 0.63601 0.00464 0.95703 0.0
C122 C 0.49723 0.9288 0.97032 0.0
H123 H 0.41384 0.23113 0.97615 0.0
H124 H 0.47671 0.18443 0.96424 0.0
H125 H 0.41649 0.91605 0.95903 0.0
H126 H 0.62024 0.77787 0.01599 0.0
H127 H 0.55736 0.82456 0.02788 0.0
H128 H 0.61757 0.09294 0.03305 0.0
C129 C 0.44528 0.14096 0.98677 0.0
C130 C 0.46035 0.95495 0.97601 0.0
C131 C 0.40916 0.16774 0.99356 0.0
C132 C 0.62491 0.84125 -0.00144 0.0
C133 C 0.58879 0.86803 0.00534 0.0
C134 C 0.5737 0.05404 0.01607 0.0
C135 C 0.44042 0.05903 0.0078 0.0
C136 C 0.47966 0.03101 0.00178 0.0
C137 C 0.59363 0.94996 0.98429 0.0
C138 C 0.5544 0.97798 0.99031 0.0
H139 H 0.33055 0.98784 0.06462 0.0
H140 H 0.39352 0.94104 0.05267 0.0
H141 H 0.55335 0.13852 0.04299 0.0
H142 H 0.7035 0.02114 0.92745 0.0
H143 H 0.64052 0.06794 0.93939 0.0
C144 C 1.01376 0.79077 0.96441 0.0
C145 C 0.03708 0.815 0.03747 0.0
C146 C 1.00756 0.71424 0.95429 0.0
C147 C 1.00382 0.51018 0.05391 0.0
H148 H 0.04187 0.49639 0.89396 0.0
C149 C 0.0204 0.21832 0.02772 0.0
C150 C 0.99711 0.19418 0.95464 0.0
C151 C 0.02667 0.29487 0.03791 0.0
C152 C 0.03056 0.49905 0.93839 0.0
H153 H 0.07405 0.77986 0.15702 0.0
H154 H 0.06347 0.64582 0.13966 0.0
H155 H 0.04819 0.62734 0.91116 0.0
H156 H 0.96024 0.22948 0.8351 0.0
H157 H 0.97092 0.36353 0.85258 0.0
H158 H 0.98618 0.38189 0.08113 0.0
C159 C 0.04865 0.6851 0.09018 0.0
C160 C 0.03409 0.57407 0.9482 0.0
C161 C 0.05494 0.76182 0.10021 0.0
C162 C 0.97933 0.24745 0.89194 0.0
C163 C 0.98568 0.32418 0.90203 0.0
C164 C 1.00028 0.43516 0.0441 0.0
C165 C 0.02525 0.66064 0.01703 0.0
C166 C 0.02077 0.58055 0.00609 0.0
C167 C 1.00906 0.34856 0.97521 0.0
C168 C 1.0136 0.42867 0.9862 0.0
H169 H 1.00109 0.83127 0.91487 0.0
H170 H 0.98892 0.6971 0.89724 0.0
H171 H 0.99251 0.51284 0.09834 0.0
H172 H 0.03298 0.17774 0.07724 0.0
H173 H 0.04528 0.31194 0.09499 0.0
loop_
_geom_bond_atom_site_label_1
_geom_bond_atom_site_label_2
_geom_bond_distance
_geom_bond_site_symmetry_2
_ccdc_geom_bond_type
Gd0 N31 2.661 1_554 S
Gd0 N37 2.601 . S
Gd0 O44 2.545 . S
Gd0 O45 2.606 1_444 S
Gd0 O47 2.430 1_545 S
Gd0 O48 2.545 1_545 S
Gd0 O49 2.412 . S
Gd0 O51 2.362 . S
Gd0 O52 2.324 1_554 S
Gd0 C59 2.828 . S
Gd1 N10 2.661 1_556 S
Gd1 N14 2.601 . S
Gd1 O45 2.362 . S
Gd1 O46 2.324 1_556 S
Gd1 O50 2.545 . S
Gd1 O51 2.606 1_666 S
Gd1 O53 2.430 1_565 S
Gd1 O54 2.545 1_565 S
Gd1 O55 2.412 . S
Gd1 C68 2.828 . S
C2 C5 1.417 . S
C2 C7 1.431 . S
C2 C8 1.412 1_556 S
C3 C6 1.437 . S
C3 C7 1.317 . S
C3 H22 0.929 . S
C4 C5 1.426 . S
C4 C6 1.413 . S
C4 N14 1.359 . S
C5 C2 1.417 . S
C5 C4 1.426 . S
C5 N10 1.350 1_556 S
C6 C3 1.437 . S
C6 C4 1.413 . S
C6 C16 1.391 . S
C7 C2 1.431 . S
C7 C3 1.317 . S
C7 H18 0.930 . S
C8 C2 1.412 1_554 S
C8 C9 1.355 . S
C8 H20 0.930 . S
C9 C8 1.355 . S
C9 C11 1.402 . S
C9 H21 0.930 . S
N10 Gd1 2.661 1_554 S
N10 C5 1.350 1_554 S
N10 C11 1.307 . S
C11 C9 1.402 . S
C11 N10 1.307 . S
C11 H12 0.930 . S
H12 C11 0.930 . S
C13 N14 1.334 . S
C13 C15 1.394 . S
C13 H17 0.930 . S
N14 Gd1 2.601 . S
N14 C4 1.359 . S
N14 C13 1.334 . S
C15 C13 1.394 . S
C15 C16 1.359 . S
C15 H27 0.930 . S
C16 C6 1.391 . S
C16 C15 1.359 . S
C16 H28 0.929 . S
H17 C13 0.930 . S
H18 C7 0.930 . S
H19 C36 0.930 . S
H20 C8 0.930 . S
H21 C9 0.930 . S
H22 C3 0.929 . S
H23 C41 0.930 . S
H24 C32 0.930 . S
H25 C33 0.930 . S
H26 C57 0.929 . S
H27 C15 0.930 . S
H28 C16 0.929 . S
H29 C58 0.930 . S
H30 C39 0.930 . S
N31 Gd0 2.661 1_556 S
N31 C35 1.350 1_556 S
N31 C36 1.307 . S
C32 H24 0.930 . S
C32 C33 1.355 . S
C32 C34 1.412 1_556 S
C33 H25 0.930 . S
C33 C32 1.355 . S
C33 C36 1.402 . S
C34 C32 1.412 1_554 S
C34 C35 1.417 . S
C34 C58 1.431 . S
C35 N31 1.350 1_554 S
C35 C34 1.417 . S
C35 C38 1.426 . S
C36 H19 0.930 . S
C36 N31 1.307 . S
C36 C33 1.402 . S
N37 Gd0 2.601 . S
N37 C38 1.359 . S
N37 C41 1.334 . S
C38 C35 1.426 . S
C38 N37 1.359 . S
C38 C42 1.413 . S
C39 H30 0.930 . S
C39 C40 1.359 . S
C39 C41 1.394 . S
C40 C39 1.359 . S
C40 C42 1.391 . S
C40 H43 0.929 . S
C41 H23 0.930 . S
C41 N37 1.334 . S
C41 C39 1.394 . S
C42 C38 1.413 . S
C42 C40 1.391 . S
C42 C57 1.437 . S
H43 C40 0.929 . S
O44 Gd0 2.545 . S
O44 C59 1.258 . S
O45 Gd0 2.606 1_666 S
O45 Gd1 2.362 . S
O45 C56 1.284 1_656 S
O46 Gd1 2.324 1_554 S
O46 C66 1.254 1_655 S
O47 Gd0 2.430 1_565 S
O47 C66 1.264 . S
O48 Gd0 2.545 1_565 S
O48 C56 1.250 . S
O49 Gd0 2.412 . S
O49 C59 1.252 . S
O50 Gd1 2.545 . S
O50 C68 1.258 . S
O51 Gd0 2.362 . S
O51 Gd1 2.606 1_444 S
O51 C67 1.284 1_454 S
O52 Gd0 2.324 1_556 S
O52 C75 1.254 1_455 S
O53 Gd1 2.430 1_545 S
O53 C75 1.263 . S
O54 Gd1 2.545 1_545 S
O54 C67 1.250 . S
O55 Gd1 2.412 . S
O55 C68 1.252 . S
C56 O45 1.284 1_454 S
C56 O48 1.250 . S
C57 H26 0.929 . S
C57 C42 1.437 . S
C57 C58 1.317 . S
C58 H29 0.930 . S
C58 C34 1.431 . S
C58 C57 1.317 . S
C59 Gd0 2.828 . S
C59 O44 1.258 . S
C59 O49 1.252 . S
C59 C60 1.497 . S
C60 C59 1.497 . S
C60 C61 1.395 . S
C60 C62 1.380 . S
C61 C60 1.395 . S
C61 C64 1.398 . S
C61 H76 0.930 . S
C62 C60 1.380 . S
C62 C63 1.391 . S
C62 H77 0.930 1_554 S
C63 C62 1.391 . S
C63 C65 1.387 . S
C64 C61 1.398 . S
C64 C65 1.380 . S
C64 H78 0.930 . S
C65 C63 1.387 . S
C65 C64 1.380 . S
C65 H79 0.930 . S
C66 O46 1.254 1_455 S
C66 O47 1.264 . S
C67 O51 1.284 1_656 S
C67 O54 1.250 . S
C68 Gd1 2.828 . S
C68 O50 1.258 . S
C68 O55 1.252 . S
C68 C69 1.497 . S
C69 C68 1.497 . S
C69 C70 1.395 . S
C69 C71 1.380 . S
C70 C69 1.395 . S
C70 C73 1.398 . S
C70 H80 0.930 . S
C71 C69 1.380 . S
C71 C72 1.391 . S
C71 H81 0.930 1_556 S
C72 C71 1.391 . S
C72 C74 1.387 . S
C73 C70 1.398 . S
C73 C74 1.380 . S
C73 H82 0.930 . S
C74 C72 1.387 . S
C74 C73 1.380 . S
C74 H83 0.930 . S
C75 O52 1.254 1_655 S
C75 O53 1.263 . S
H76 C61 0.930 . S
H77 C62 0.930 1_556 S
H78 C64 0.930 . S
H79 C65 0.930 . S
H80 C70 0.930 . S
H81 C71 0.930 1_554 S
H82 C73 0.930 . S
H83 C74 0.930 . S
C84 C85 1.349 1_655 S
C84 C86 1.327 . S
C84 H109 0.950 . S
C85 C84 1.349 1_455 S
C85 C101 1.349 1_545 S
C86 C84 1.327 . S
C86 C105 1.429 1_655 S
C86 H110 0.950 . S
C87 C104 1.574 . S
C87 C106 1.368 1_565 S
C87 H111 0.949 . S
H88 C92 0.949 . S
C89 C90 1.349 1_565 S
C89 C91 1.327 . S
C89 H112 0.950 . S
C90 C89 1.349 1_545 S
C90 C102 1.349 1_455 S
C91 C89 1.327 . S
C91 C107 1.429 1_565 S
C91 H113 0.950 . S
C92 H88 0.949 . S
C92 C100 1.574 . S
C92 C108 1.368 1_655 S
H93 C101 0.950 . S
H94 C99 0.950 . S
H95 C100 0.949 . S
H96 C102 0.950 . S
H97 C103 0.950 . S
H98 C104 0.949 . S
C99 H94 0.950 . S
C99 C101 1.327 . S
C99 C105 1.429 1_565 S
C100 C92 1.574 . S
C100 H95 0.949 . S
C100 C106 1.368 1_655 S
C101 C85 1.349 1_565 S
C101 H93 0.950 . S
C101 C99 1.327 . S
C102 C90 1.349 1_655 S
C102 H96 0.950 . S
C102 C103 1.327 . S
C103 H97 0.950 . S
C103 C102 1.327 . S
C103 C107 1.429 1_655 S
C104 C87 1.574 . S
C104 H98 0.949 . S
C104 C108 1.368 1_565 S
C105 C86 1.429 1_455 S
C105 C99 1.429 1_545 S
C105 C106 1.523 . S
C106 C87 1.368 1_545 S
C106 C100 1.368 1_455 S
C106 C105 1.523 . S
C107 C91 1.429 1_545 S
C107 C103 1.429 1_455 S
C107 C108 1.523 . S
C108 C92 1.368 1_455 S
C108 C104 1.368 1_545 S
C108 C107 1.523 . S
H109 C84 0.950 . S
H110 C86 0.950 . S
H111 C87 0.949 . S
H112 C89 0.950 . S
H113 C91 0.950 . S
C114 C115 1.349 1_565 S
C114 C116 1.327 . S
C114 H139 0.950 . S
C115 C114 1.349 1_545 S
C115 C131 1.349 1_554 S
C116 C114 1.327 . S
C116 C135 1.429 1_565 S
C116 H140 0.950 . S
C117 C134 1.574 . S
C117 C136 1.368 1_556 S
C117 H141 0.949 . S
H118 C122 0.949 . S
C119 C120 1.349 1_556 S
C119 C121 1.327 . S
C119 H142 0.950 . S
C120 C119 1.349 1_554 S
C120 C132 1.349 1_545 S
C121 C119 1.327 . S
C121 C137 1.429 1_556 S
C121 H143 0.950 . S
C122 H118 0.949 . S
C122 C130 1.574 . S
C122 C138 1.368 1_565 S
H123 C131 0.950 . S
H124 C129 0.950 . S
H125 C130 0.949 . S
H126 C132 0.950 . S
H127 C133 0.950 . S
H128 C134 0.949 . S
C129 H124 0.950 . S
C129 C131 1.327 . S
C129 C135 1.429 1_556 S
C130 C122 1.574 . S
C130 H125 0.949 . S
C130 C136 1.368 1_565 S
C131 C115 1.349 1_556 S
C131 H123 0.950 . S
C131 C129 1.327 . S
C132 C120 1.349 1_565 S
C132 H126 0.950 . S
C132 C133 1.327 . S
C133 H127 0.950 . S
C133 C132 1.327 . S
C133 C137 1.429 1_565 S
C134 C117 1.574 . S
C134 H128 0.949 . S
C134 C138 1.368 1_556 S
C135 C116 1.429 1_545 S
C135 C129 1.429 1_554 S
C135 C136 1.523 . S
C136 C117 1.368 1_554 S
C136 C130 1.368 1_545 S
C136 C135 1.523 . S
C137 C121 1.429 1_554 S
C137 C133 1.429 1_545 S
C137 C138 1.523 . S
C138 C122 1.368 1_545 S
C138 C134 1.368 1_554 S
C138 C137 1.523 . S
H139 C114 0.950 . S
H140 C116 0.950 . S
H141 C117 0.949 . S
H142 C119 0.950 . S
H143 C121 0.950 . S
C144 C145 1.349 1_556 S
C144 C146 1.327 . S
C144 H169 0.950 . S
C145 C144 1.349 1_554 S
C145 C161 1.349 1_455 S
C146 C144 1.327 . S
C146 C165 1.429 1_556 S
C146 H170 0.950 . S
C147 C164 1.574 . S
C147 C166 1.368 1_655 S
C147 H171 0.949 . S
H148 C152 0.949 . S
C149 C150 1.349 1_655 S
C149 C151 1.327 . S
C149 H172 0.950 . S
C150 C149 1.349 1_455 S
C150 C162 1.349 1_554 S
C151 C149 1.327 . S
C151 C167 1.429 1_655 S
C151 H173 0.950 . S
C152 H148 0.949 . S
C152 C160 1.574 . S
C152 C168 1.368 1_556 S
H153 C161 0.950 . S
H154 C159 0.950 . S
H155 C160 0.949 . S
H156 C162 0.950 . S
H157 C163 0.950 . S
H158 C164 0.949 . S
C159 H154 0.950 . S
C159 C161 1.327 . S
C159 C165 1.429 1_655 S
C160 C152 1.574 . S
C160 H155 0.949 . S
C160 C166 1.368 1_556 S
C161 C145 1.349 1_655 S
C161 H153 0.950 . S
C161 C159 1.327 . S
C162 C150 1.349 1_556 S
C162 H156 0.950 . S
C162 C163 1.327 . S
C163 H157 0.950 . S
C163 C162 1.327 . S
C163 C167 1.429 1_556 S
C164 C147 1.574 . S
C164 H158 0.949 . S
C164 C168 1.368 1_655 S
C165 C146 1.429 1_554 S
C165 C159 1.429 1_455 S
C165 C166 1.523 . S
C166 C147 1.368 1_455 S
C166 C160 1.368 1_554 S
C166 C165 1.523 . S
C167 C151 1.429 1_455 S
C167 C163 1.429 1_554 S
C167 C168 1.523 . S
C168 C152 1.368 1_554 S
C168 C164 1.368 1_455 S
C168 C167 1.523 . S
H169 C144 0.950 . S
H170 C146 0.950 . S
H171 C147 0.949 . S
H172 C149 0.950 . S
H173 C151 0.950 . S
C85 C66 1.472 1_545 S
C90 C75 1.472 1_455 S
C115 C63 1.324 . S
C120 C72 1.324 1_544 S
C145 C56 1.435 . S
C150 C67 1.435 1_454 S
