# Generated by pormake.
# Topology pcu, (6)-cn, num edge types: 1
# Building blocks:
#     Node 0, Type 0, BuildingBlock: CUWYAW_clean_sbu_0, # of connection points: 6
#     Edge 1, Type (0, 0), BuildingBlock: FUNLAD_clean_linker_0, # of connection points: 2
#     Edge 2, Type (0, 0), BuildingBlock: FUNLAD_clean_linker_0, # of connection points: 2
#     Edge 3, Type (0, 0), BuildingBlock: FUNLAD_clean_linker_0, # of connection points: 2
# Relax obj value: 0.000
# Max RMSD: 0.000
# Mean RMSD: 0.000
data_MOF--net-pcu--node1-CUWYAW_clean_sbu_0--edge1-FUNLAD_clean_linker_0
_symmetry_space_group_name_H-M    P1
_symmetry_Int_Tables_number       1
_symmetry_cell_setting            triclinic
loop_
_symmetry_equiv_pos_as_xyz
'x, y, z'
_cell_length_a     27.933219
_cell_length_b     18.087203
_cell_length_c     16.623261
_cell_angle_alpha  91.000712
_cell_angle_beta   103.31287
_cell_angle_gamma 122.84136
loop_
_atom_site_label
_atom_site_type_symbol
_atom_site_fract_x
_atom_site_fract_y
_atom_site_fract_z
_atom_type_partial_charge
C0 C 0.19857 0.1071 0.9998 0.0
Eu1 Eu 0.09983 0.04876 0.03813 0.0
C2 C 0.24238 0.08461 1.00648 0.0
C3 C 0.2383 0.01547 0.04809 0.0
C4 C 0.28122 -0.00372 0.05495 0.0
C5 C 0.32888 0.04604 1.02032 0.0
C6 C 0.33217 0.11467 0.97802 0.0
C7 C 0.28931 0.13372 0.97125 0.0
C8 C 0.08537 0.04572 0.19387 0.0
C9 C 1.02697 0.83366 0.04093 0.0
C10 C 0.87176 0.88753 0.08117 0.0
Eu11 Eu 0.97073 0.94615 0.04342 0.0
C12 C 0.82804 0.91017 0.07465 0.0
C13 C 0.83221 0.97948 0.03325 0.0
C14 C 0.78935 -0.00123 1.02651 0.0
C15 C 0.74165 0.94894 0.06105 0.0
C16 C 0.73828 0.88016 0.10317 0.0
C17 C 0.78108 0.86101 0.10982 0.0
C18 C 0.98559 0.94935 0.88779 0.0
C19 C 0.04363 0.16128 0.04092 0.0
O20 O 0.14582 0.05052 0.9478 0.0
O21 O 0.19636 0.13646 0.07041 0.0
O22 O 0.12896 0.1136 0.17377 0.0
O23 O 0.05436 0.98134 0.13337 0.0
O24 O 0.07108 0.90368 1.02039 0.0
O25 O 0.98659 0.83803 0.06509 0.0
O26 O 0.92443 0.94367 0.13356 0.0
O27 O 0.87416 0.85874 1.01044 0.0
O28 O 0.94205 0.88124 0.90778 0.0
O29 O 1.01618 0.0136 0.94834 0.0
O30 O 0.99954 0.09124 0.06146 0.0
O31 O 0.08397 0.1569 1.01662 0.0
H32 H 0.20225 0.97691 0.07572 0.0
H33 H 0.27764 0.94357 0.08859 0.0
H34 H 0.36763 0.15327 0.94942 0.0
H35 H 0.29288 0.18704 0.93855 0.0
H36 H 0.8683 0.01808 1.00568 0.0
H37 H 0.793 0.0516 0.993 0.0
H38 H 0.70279 0.84152 0.13171 0.0
H39 H 0.77744 0.80757 0.14236 0.0
C40 C 1.02991 0.96288 0.29514 0.0
C41 C 0.07577 0.04208 0.27777 0.0
C42 C 1.0208 0.95938 0.37465 0.0
C43 C 0.05779 0.03512 0.43876 0.0
C44 C 0.1031 0.11451 0.42061 0.0
C45 C 0.11219 0.11792 0.34111 0.0
C46 C 0.04972 0.03517 0.52428 0.0
C47 C 1.022 0.96064 0.55784 0.0
C48 C 1.01379 0.96055 0.64329 0.0
C49 C 0.96864 0.88093 0.66137 0.0
C50 C 0.95937 0.87734 0.74075 0.0
C51 C 0.99544 0.95323 0.80405 0.0
H52 H 0.087 0.09828 0.69738 0.0
C53 C 0.04114 0.03268 0.78676 0.0
C54 C 0.05044 0.03636 0.70735 0.0
H55 H 0.06992 0.09204 0.83473 0.0
H56 H 1.00086 0.90356 0.24715 0.0
H57 H 0.98409 0.89767 0.38468 0.0
H58 H 0.13192 0.17411 0.46834 0.0
H59 H 0.14769 0.18002 0.32925 0.0
H60 H 0.06819 0.09976 0.56079 0.0
H61 H 1.00358 0.89608 0.5213 0.0
H62 H 0.94009 0.82129 0.61367 0.0
H63 H 0.924 0.81506 0.75255 0.0
C64 C 0.43548 0.0975 0.0451 0.0
C65 C 0.37525 0.02709 1.02841 0.0
C66 C 0.47912 0.08012 0.05135 0.0
C67 C 0.4635 -0.00841 0.04054 0.0
C68 C 0.40346 0.92134 1.0255 0.0
C69 C 0.3598 0.93875 1.0192 0.0
C70 C 0.50835 0.9696 0.0467 0.0
C71 C 0.56229 0.02558 0.03486 0.0
C72 C 0.60711 0.00356 0.04099 0.0
C73 C 0.66717 0.07378 0.05614 0.0
C74 C 0.71081 0.05632 0.06239 0.0
C75 C 0.69532 0.96796 0.05303 0.0
H76 H 0.54561 0.8587 1.01504 0.0
C77 C 0.63507 0.89758 0.03623 0.0
C78 C 0.59145 0.91501 1.03002 0.0
H79 H 0.62141 0.82868 1.02661 0.0
H80 H 0.44911 0.16638 0.05459 0.0
H81 H 0.52495 0.13645 0.06624 0.0
H82 H 0.39012 0.85252 1.01758 0.0
H83 H 0.31382 0.88289 1.00574 0.0
H84 H 0.49556 0.90398 0.06056 0.0
H85 H 0.57508 0.0912 1.02101 0.0
H86 H 0.68055 0.14261 0.06418 0.0
H87 H 0.75681 0.11215 0.07593 0.0
C88 C 0.06768 0.74336 1.01815 0.0
C89 C 1.024 0.74938 0.03985 0.0
C90 C 0.06465 0.66358 1.01704 0.0
C91 C 1.01793 0.58808 0.03811 0.0
C92 C 0.974 0.594 0.05872 0.0
C93 C 0.97707 0.67371 0.05998 0.0
C94 C 1.01225 0.50137 0.03703 0.0
C95 C 0.05841 0.49362 0.04512 0.0
C96 C 0.05273 0.4069 0.044 0.0
C97 C 0.09665 0.401 1.02336 0.0
C98 C 0.09357 0.32128 1.02203 0.0
C99 C 0.04662 0.24558 0.04211 0.0
H100 H 0.97224 0.33362 0.08406 0.0
C101 C 1.00295 0.25159 0.06385 0.0
C102 C 1.006 0.33138 0.06504 0.0
H103 H 0.96645 0.19479 0.0804 0.0
H104 H 0.10418 0.80013 1.00157 0.0
H105 H 0.09841 0.66133 0.99804 0.0
H106 H 0.93725 0.53679 0.07449 0.0
H107 H 0.94246 0.67573 0.07657 0.0
H108 H 0.96819 0.44217 1.03037 0.0
H109 H 0.10247 0.55281 0.05179 0.0
H110 H 0.13341 0.45822 1.00762 0.0
H111 H 0.12817 0.31926 1.00541 0.0
loop_
_geom_bond_atom_site_label_1
_geom_bond_atom_site_label_2
_geom_bond_distance
_geom_bond_site_symmetry_2
_ccdc_geom_bond_type
C0 Eu1 2.835 . S
C0 C2 1.500 . S
C0 O20 1.257 1_554 S
C0 O21 1.260 . S
Eu1 C0 2.835 . S
Eu1 O20 2.473 1_554 S
Eu1 O21 2.480 . S
Eu1 O22 2.430 . S
Eu1 O23 2.670 1_455 S
Eu1 O24 2.394 1_545 S
Eu1 O29 2.355 1_544 S
Eu1 O31 2.374 . S
C2 C0 1.500 . S
C2 C3 1.377 . S
C2 C7 1.377 1_544 S
C3 C2 1.377 . S
C3 C4 1.395 . S
C3 H32 0.931 . S
C4 C3 1.395 . S
C4 C5 1.388 . S
C4 H33 0.931 . S
C5 C4 1.388 . S
C5 C6 1.396 1_544 S
C6 C5 1.396 1_566 S
C6 C7 1.378 . S
C6 H34 0.931 . S
C7 C2 1.377 1_566 S
C7 C6 1.378 . S
C7 H35 0.931 . S
C8 O22 1.259 . S
C8 O23 1.270 1_455 S
C9 O24 1.251 1_655 S
C9 O25 1.251 1_554 S
C10 Eu11 2.835 . S
C10 C12 1.500 . S
C10 O26 1.257 1_556 S
C10 O27 1.260 . S
Eu11 C10 2.835 . S
Eu11 O23 2.355 1_566 S
Eu11 O25 2.374 . S
Eu11 O26 2.473 1_556 S
Eu11 O27 2.480 . S
Eu11 O28 2.430 . S
Eu11 O29 2.670 1_655 S
Eu11 O30 2.394 1_565 S
C12 C10 1.500 . S
C12 C13 1.377 . S
C12 C17 1.377 1_566 S
C13 C12 1.377 . S
C13 C14 1.395 . S
C13 H36 0.931 . S
C14 C13 1.395 . S
C14 C15 1.386 . S
C14 H37 0.931 . S
C15 C14 1.386 . S
C15 C16 1.395 1_566 S
C16 C15 1.395 1_544 S
C16 C17 1.378 . S
C16 H38 0.931 . S
C17 C12 1.377 1_544 S
C17 C16 1.378 . S
C17 H39 0.931 . S
C18 O28 1.259 . S
C18 O29 1.270 1_655 S
C19 O30 1.251 1_455 S
C19 O31 1.251 1_556 S
O20 C0 1.257 1_556 S
O20 Eu1 2.473 1_556 S
O21 C0 1.260 . S
O21 Eu1 2.480 . S
O22 Eu1 2.430 . S
O22 C8 1.259 . S
O23 Eu1 2.670 1_655 S
O23 C8 1.270 1_655 S
O23 Eu11 2.355 1_544 S
O24 Eu1 2.394 1_565 S
O24 C9 1.251 1_455 S
O25 C9 1.251 1_556 S
O25 Eu11 2.374 . S
O26 C10 1.257 1_554 S
O26 Eu11 2.473 1_554 S
O27 C10 1.260 . S
O27 Eu11 2.480 . S
O28 Eu11 2.430 . S
O28 C18 1.259 . S
O29 Eu1 2.355 1_566 S
O29 Eu11 2.670 1_455 S
O29 C18 1.270 1_455 S
O30 Eu11 2.394 1_545 S
O30 C19 1.251 1_655 S
O31 Eu1 2.374 . S
O31 C19 1.251 1_554 S
H32 C3 0.931 . S
H33 C4 0.931 . S
H34 C6 0.931 . S
H35 C7 0.931 . S
H36 C13 0.931 . S
H37 C14 0.931 . S
H38 C16 0.931 . S
H39 C17 0.931 . S
C40 C41 1.386 1_565 S
C40 C42 1.383 . S
C40 H56 0.951 . S
C41 C40 1.386 1_545 S
C41 C45 1.383 1_455 S
C42 C40 1.383 . S
C42 C43 1.402 1_565 S
C42 H57 0.951 . S
C43 C42 1.402 1_545 S
C43 C44 1.375 1_455 S
C43 C46 1.481 . S
C44 C43 1.375 1_655 S
C44 C45 1.367 . S
C44 H58 0.951 . S
C45 C41 1.383 1_655 S
C45 C44 1.367 . S
C45 H59 0.950 . S
C46 C43 1.481 . S
C46 C47 1.297 . S
C46 H60 0.950 1_455 S
C47 C46 1.297 . S
C47 C48 1.479 . S
C47 H61 0.950 1_545 S
C48 C47 1.479 . S
C48 C49 1.375 1_545 S
C48 C54 1.404 . S
C49 C48 1.375 1_565 S
C49 C50 1.369 . S
C49 H62 0.950 . S
C50 C49 1.369 . S
C50 C51 1.392 1_565 S
C50 H63 0.951 . S
C51 C50 1.392 1_545 S
C51 C53 1.384 . S
H52 C54 0.949 . S
C53 C51 1.384 . S
C53 C54 1.385 . S
C53 H55 0.950 1_455 S
C54 C48 1.404 . S
C54 H52 0.949 . S
C54 C53 1.385 . S
H55 C53 0.950 1_655 S
H56 C40 0.951 . S
H57 C42 0.951 . S
H58 C44 0.951 . S
H59 C45 0.950 . S
H60 C46 0.950 1_655 S
H61 C47 0.950 1_565 S
H62 C49 0.950 . S
H63 C50 0.951 . S
C64 C65 1.386 1_546 S
C64 C66 1.383 . S
C64 H80 0.951 . S
C65 C64 1.386 1_564 S
C65 C69 1.383 . S
C66 C64 1.383 . S
C66 C67 1.402 1_546 S
C66 H81 0.951 . S
C67 C66 1.402 1_564 S
C67 C68 1.375 . S
C67 C70 1.481 . S
C68 C67 1.375 . S
C68 C69 1.367 . S
C68 H82 0.951 . S
C69 C65 1.383 . S
C69 C68 1.367 . S
C69 H83 0.950 . S
C70 C67 1.481 . S
C70 C71 1.297 1_565 S
C70 H84 0.950 . S
C71 C70 1.297 1_545 S
C71 C72 1.479 . S
C71 H85 0.950 . S
C72 C71 1.479 . S
C72 C73 1.375 1_554 S
C72 C78 1.404 1_545 S
C73 C72 1.375 1_556 S
C73 C74 1.369 . S
C73 H86 0.950 . S
C74 C73 1.369 . S
C74 C75 1.392 1_556 S
C74 H87 0.951 . S
C75 C74 1.392 1_554 S
C75 C77 1.384 1_545 S
H76 C78 0.949 . S
C77 C75 1.384 1_565 S
C77 C78 1.385 . S
C77 H79 0.950 . S
C78 C72 1.404 1_565 S
C78 H76 0.949 . S
C78 C77 1.385 . S
H79 C77 0.950 . S
H80 C64 0.951 . S
H81 C66 0.951 . S
H82 C68 0.951 . S
H83 C69 0.950 . S
H84 C70 0.950 . S
H85 C71 0.950 . S
H86 C73 0.950 . S
H87 C74 0.951 . S
C88 C89 1.386 1_456 S
C88 C90 1.383 . S
C88 H104 0.951 . S
C89 C88 1.386 1_654 S
C89 C93 1.383 . S
C90 C88 1.383 . S
C90 C91 1.402 1_456 S
C90 H105 0.951 . S
C91 C90 1.402 1_654 S
C91 C92 1.375 . S
C91 C94 1.481 . S
C92 C91 1.375 . S
C92 C93 1.367 . S
C92 H106 0.951 . S
C93 C89 1.383 . S
C93 C92 1.367 . S
C93 H107 0.950 . S
C94 C91 1.481 . S
C94 C95 1.297 1_655 S
C94 H108 0.950 . S
C95 C94 1.297 1_455 S
C95 C96 1.479 . S
C95 H109 0.950 . S
C96 C95 1.479 . S
C96 C97 1.375 1_554 S
C96 C102 1.404 1_455 S
C97 C96 1.375 1_556 S
C97 C98 1.369 . S
C97 H110 0.950 . S
C98 C97 1.369 . S
C98 C99 1.392 1_556 S
C98 H111 0.951 . S
C99 C98 1.392 1_554 S
C99 C101 1.384 1_455 S
H100 C102 0.949 . S
C101 C99 1.384 1_655 S
C101 C102 1.385 . S
C101 H103 0.950 . S
C102 C96 1.404 1_655 S
C102 H100 0.949 . S
C102 C101 1.385 . S
H103 C101 0.950 . S
H104 C88 0.951 . S
H105 C90 0.951 . S
H106 C92 0.951 . S
H107 C93 0.950 . S
H108 C94 0.950 . S
H109 C95 0.950 . S
H110 C97 0.950 . S
H111 C98 0.951 . S
C41 C8 1.434 . S
C51 C18 1.488 1_445 S
C65 C5 1.487 1_565 S
C75 C15 1.488 1_544 S
C89 C9 1.471 . S
C99 C19 1.489 1_554 S
