# Generated by pormake.
# Topology afw, (4)-cn, num edge types: 1
# Building blocks:
#     Node 0, Type 0, BuildingBlock: CEKHIL_clean_sbu_0, # of connection points: 4
#     Node 1, Type 0, BuildingBlock: CEKHIL_clean_sbu_0, # of connection points: 4
#     Node 2, Type 0, BuildingBlock: CEKHIL_clean_sbu_0, # of connection points: 4
#     Node 3, Type 0, BuildingBlock: CEKHIL_clean_sbu_0, # of connection points: 4
#     Node 4, Type 0, BuildingBlock: CEKHIL_clean_sbu_0, # of connection points: 4
#     Node 5, Type 0, BuildingBlock: CEKHIL_clean_sbu_0, # of connection points: 4
#     Node 6, Type 0, BuildingBlock: CEKHIL_clean_sbu_0, # of connection points: 4
#     Node 7, Type 0, BuildingBlock: CEKHIL_clean_sbu_0, # of connection points: 4
#     Node 8, Type 0, BuildingBlock: CEKHIL_clean_sbu_0, # of connection points: 4
#     Edge 9, Type (0, 0), None
#     Edge 10, Type (0, 0), None
#     Edge 11, Type (0, 0), None
#     Edge 12, Type (0, 0), None
#     Edge 13, Type (0, 0), None
#     Edge 14, Type (0, 0), None
#     Edge 15, Type (0, 0), None
#     Edge 16, Type (0, 0), None
#     Edge 17, Type (0, 0), None
#     Edge 18, Type (0, 0), None
#     Edge 19, Type (0, 0), None
#     Edge 20, Type (0, 0), None
#     Edge 21, Type (0, 0), None
#     Edge 22, Type (0, 0), None
#     Edge 23, Type (0, 0), None
#     Edge 24, Type (0, 0), None
#     Edge 25, Type (0, 0), None
#     Edge 26, Type (0, 0), None
# Relax obj value: 0.198
# Max RMSD: 0.217
# Mean RMSD: 0.201
data_MOF--net-afw--node1-CEKHIL_clean_sbu_0--edge1-none
_symmetry_space_group_name_H-M    P1
_symmetry_Int_Tables_number       1
_symmetry_cell_setting            triclinic
loop_
_symmetry_equiv_pos_as_xyz
'x, y, z'
_cell_length_a     19.155725
_cell_length_b     19.658717
_cell_length_c     13.78207
_cell_angle_alpha  91.096395
_cell_angle_beta   91.435277
_cell_angle_gamma 119.86837
loop_
_atom_site_label
_atom_site_type_symbol
_atom_site_fract_x
_atom_site_fract_y
_atom_site_fract_z
_atom_type_partial_charge
Co0 Co 0.03614 0.2181 0.99764 0.0
O1 O 0.11572 0.32331 0.96496 0.0
O2 O 0.00479 0.2454 0.87617 0.0
C3 C 0.11719 0.16954 0.03634 0.0
O4 O 0.94392 0.10624 1.00171 0.0
Co5 Co 0.02582 0.15757 0.20785 0.0
O6 O 0.95097 0.05436 0.1435 0.0
C7 C 0.96748 0.26599 0.16791 0.0
C8 C 0.07144 0.31193 0.88662 0.0
C9 C 0.92285 0.04774 0.05697 0.0
O10 O 0.9758 0.25945 0.07598 0.0
O11 O -0.00867 0.23617 0.23325 0.0
O12 O 0.10177 0.17605 0.94572 0.0
O13 O 0.09441 0.20394 0.09855 0.0
Co14 Co 0.82555 0.79735 0.05143 0.0
O15 O 0.79656 0.6902 0.0621 0.0
O16 O 0.75659 0.75348 0.16123 0.0
C17 C 0.95782 0.84815 0.03183 0.0
O18 O 0.84835 0.9096 0.06186 0.0
Co19 Co 0.88482 0.87035 0.8503 0.0
O20 O 0.90883 0.9674 0.92437 0.0
C21 C 0.71512 0.75848 0.86939 0.0
C22 C 0.75522 0.68868 0.13589 0.0
C23 C 0.88579 0.97011 0.00967 0.0
O24 O 0.72768 0.76387 0.96212 0.0
O25 O 0.77151 0.79064 0.80952 0.0
O26 O 0.92959 0.83286 0.11826 0.0
O27 O 0.90464 0.82124 0.96058 0.0
Co28 Co 0.17629 0.98113 1.00119 0.0
O29 O 0.20487 0.9026 0.97916 0.0
O30 O 0.24727 0.00857 0.89148 0.0
C31 C 0.04406 0.89789 0.01743 0.0
O32 O 0.15606 0.0737 1.00397 0.0
Co33 Co 0.11485 0.98957 0.2043 0.0
O34 O 0.11057 0.0806 0.15109 0.0
C35 C 0.28477 0.04366 0.18697 0.0
C36 C 0.24799 0.94408 0.90915 0.0
C37 C 0.1314 0.10599 0.06621 0.0
O38 O 0.27254 0.03828 0.09411 0.0
O39 O 0.22807 0.02024 0.24675 0.0
O40 O 0.07264 0.91713 0.93154 0.0
O41 O 0.09676 0.92308 0.08906 0.0
Co42 Co 0.63966 0.51878 0.36324 0.0
O43 O 0.56109 0.5494 0.39263 0.0
O44 O 0.67549 0.58831 0.47732 0.0
C45 C 0.55502 0.38822 0.33944 0.0
O46 O 0.73286 0.49653 0.35919 0.0
Co47 Co 0.63421 0.44228 0.15908 0.0
O48 O 0.72183 0.42993 0.21913 0.0
C49 C 0.70564 0.61375 0.18133 0.0
C50 C 0.60837 0.58913 0.46644 0.0
C51 C 0.75581 0.4597 0.3018 0.0
O52 O 0.69642 0.61061 0.27394 0.0
O53 O 0.68026 0.55353 0.1242 0.0
O54 O 0.57648 0.41831 0.42719 0.0
O55 O 0.57539 0.43844 0.27206 0.0
Co56 Co 0.49311 0.14423 0.39324 0.0
O57 O 0.46992 0.04136 0.43072 0.0
O58 O 0.44001 0.11942 0.51634 0.0
C59 C 0.62192 0.18999 0.35251 0.0
O60 O 0.51152 0.25558 0.3803 0.0
Co61 Co 0.53658 0.19387 0.17832 0.0
O62 O 0.55313 0.29573 0.22953 0.0
C63 C 0.369 0.0846 0.2236 0.0
C64 C 0.44031 0.05358 0.50839 0.0
C65 C 0.53658 0.30778 0.3149 0.0
O66 O 0.38623 0.09718 0.31586 0.0
O67 O 0.42188 0.11071 0.15878 0.0
O68 O 0.60512 0.19008 0.44325 0.0
O69 O 0.56064 0.15359 0.29299 0.0
Co70 Co 0.8765 0.37207 0.37232 0.0
O71 O -0.01469 0.45424 0.39331 0.0
O72 O 0.92219 0.35529 0.49158 0.0
C73 C 0.82053 0.44517 0.33333 0.0
O74 O 0.7627 0.27849 0.3749 0.0
Co75 Co 0.79824 0.34456 0.16265 0.0
O76 O 0.70097 0.26691 0.22878 0.0
C77 C 0.92274 0.3042 0.20033 0.0
C78 C -0.0122 0.41891 0.47085 0.0
C79 C 0.70037 0.24683 0.31634 0.0
O80 O 0.91538 0.31075 0.29244 0.0
O81 O 0.88774 0.32352 0.13541 0.0
O82 O 0.83506 0.43838 0.42435 0.0
O83 O 0.85066 0.41793 0.27169 0.0
Co84 Co 0.37897 0.89534 0.68473 0.0
O85 O 0.45633 0.00386 0.66111 0.0
O86 O 0.34612 0.92848 0.56993 0.0
C87 C 0.46315 0.84723 0.71161 0.0
O88 O 0.28948 0.7819 0.67787 0.0
Co89 Co 0.37252 0.81915 0.88439 0.0
O90 O 0.29903 0.72088 0.81009 0.0
C91 C 0.30123 0.92043 0.8636 0.0
C92 C 0.41148 -0.00441 0.58436 0.0
C93 C 0.27043 0.71987 0.72539 0.0
O94 O 0.31484 0.92805 0.77188 0.0
O95 O 0.32494 0.88467 0.92004 0.0
O96 O 0.44728 0.85936 0.62353 0.0
O97 O 0.43941 0.8767 0.779 0.0
Co98 Co 0.16656 0.47019 0.71042 0.0
O99 O 0.13513 0.36228 0.73545 0.0
O100 O 0.09953 0.43556 0.82182 0.0
C101 C 0.2996 0.51669 0.69318 0.0
O102 O 0.19078 0.58285 0.71546 0.0
Co103 Co 0.2416 0.54984 0.51521 0.0
O104 O 0.26774 0.64656 0.59058 0.0
C105 C 0.06546 0.44769 0.52372 0.0
C106 C 0.09931 0.36983 0.81039 0.0
C107 C 0.23563 0.64574 0.67062 0.0
O108 O 0.0699 0.4365 0.61549 0.0
O109 O 0.12662 0.48677 0.47237 0.0
O110 O 0.27078 0.50625 0.77925 0.0
O111 O 0.24694 0.48982 0.62178 0.0
Co112 Co 0.51665 0.65541 0.65281 0.0
O113 O 0.5447 0.57732 0.61657 0.0
O114 O 0.57865 0.68546 0.53633 0.0
C115 C 0.38543 0.5686 0.67642 0.0
O116 O 0.49603 0.74817 0.66606 0.0
Co117 Co 0.4605 0.6592 0.86024 0.0
O118 O 0.45912 0.75429 0.81826 0.0
C119 C 0.63145 0.71751 0.83109 0.0
C120 C 0.57941 0.61997 0.54326 0.0
C121 C 0.47631 0.7811 0.73349 0.0
O122 O 0.61791 0.71242 0.73853 0.0
O123 O 0.57566 0.69205 0.89233 0.0
O124 O 0.4102 0.59171 0.59008 0.0
O125 O 0.44101 0.59335 0.7447 0.0
loop_
_geom_bond_atom_site_label_1
_geom_bond_atom_site_label_2
_geom_bond_distance
_geom_bond_site_symmetry_2
_ccdc_geom_bond_type
Co0 O1 2.216 . S
Co0 O2 2.091 . S
Co0 O4 2.004 1_455 S
Co0 O10 2.021 1_456 S
Co0 O12 2.137 . S
Co0 O13 2.244 1_556 S
O1 Co0 2.216 . S
O1 C8 1.247 . S
O2 Co0 2.091 . S
O2 C8 1.261 . S
C3 O12 1.247 1_554 S
C3 O13 1.272 . S
O4 Co0 2.004 1_655 S
O4 C9 1.259 1_556 S
Co5 O6 2.061 1_455 S
Co5 O11 2.050 1_455 S
Co5 O13 2.135 . S
O6 Co5 2.061 1_655 S
O6 C9 1.235 . S
C7 O10 1.238 . S
C7 O11 1.244 . S
C8 O1 1.247 . S
C8 O2 1.261 . S
C9 O4 1.259 1_554 S
C9 O6 1.235 . S
O10 Co0 2.021 1_654 S
O10 C7 1.238 . S
O11 Co5 2.050 1_655 S
O11 C7 1.244 . S
O12 Co0 2.137 . S
O12 C3 1.247 1_556 S
O13 Co0 2.244 1_554 S
O13 C3 1.272 . S
O13 Co5 2.135 . S
Co14 O15 2.216 . S
Co14 O16 2.091 . S
Co14 O18 2.004 . S
Co14 O24 2.021 1_554 S
Co14 O26 2.137 . S
Co14 O27 2.244 1_554 S
O15 Co14 2.216 . S
O15 C22 1.247 . S
O16 Co14 2.091 . S
O16 C22 1.261 . S
C17 O26 1.247 . S
C17 O27 1.272 1_554 S
O18 Co14 2.004 . S
O18 C23 1.259 . S
Co19 O20 2.061 . S
Co19 O25 2.052 . S
Co19 O27 2.135 . S
O20 Co19 2.061 . S
O20 C23 1.235 1_556 S
C21 O24 1.238 . S
C21 O25 1.241 . S
C22 O15 1.247 . S
C22 O16 1.261 . S
C23 O18 1.259 . S
C23 O20 1.235 1_554 S
O24 Co14 2.021 1_556 S
O24 C21 1.238 . S
O25 Co19 2.052 . S
O25 C21 1.241 . S
O26 Co14 2.137 . S
O26 C17 1.247 . S
O27 Co14 2.244 1_556 S
O27 C17 1.272 1_556 S
O27 Co19 2.135 . S
Co28 O29 2.216 1_545 S
Co28 O30 2.091 . S
Co28 O32 2.004 . S
Co28 O38 2.021 1_556 S
Co28 O40 2.137 1_545 S
Co28 O41 2.244 1_546 S
O29 Co28 2.216 1_565 S
O29 C36 1.247 . S
O30 Co28 2.091 . S
O30 C36 1.261 1_545 S
C31 O40 1.247 1_554 S
C31 O41 1.272 . S
O32 Co28 2.004 . S
O32 C37 1.259 1_556 S
Co33 O34 2.061 . S
Co33 O39 2.052 . S
Co33 O41 2.135 1_545 S
O34 Co33 2.061 . S
O34 C37 1.235 . S
C35 O38 1.238 . S
C35 O39 1.241 . S
C36 O29 1.247 . S
C36 O30 1.261 1_565 S
C37 O32 1.259 1_554 S
C37 O34 1.235 . S
O38 Co28 2.021 1_554 S
O38 C35 1.238 . S
O39 Co33 2.052 . S
O39 C35 1.241 . S
O40 Co28 2.137 1_565 S
O40 C31 1.247 1_556 S
O41 Co28 2.244 1_564 S
O41 C31 1.272 . S
O41 Co33 2.135 1_565 S
Co42 O43 2.216 . S
Co42 O44 2.091 . S
Co42 O46 2.004 . S
Co42 O52 2.021 . S
Co42 O54 2.137 . S
Co42 O55 2.244 . S
O43 Co42 2.216 . S
O43 C50 1.247 . S
O44 Co42 2.091 . S
O44 C50 1.261 . S
C45 O54 1.247 . S
C45 O55 1.272 . S
O46 Co42 2.004 . S
O46 C51 1.259 . S
Co47 O48 2.061 . S
Co47 O53 2.052 . S
Co47 O55 2.135 . S
O48 Co47 2.061 . S
O48 C51 1.235 . S
C49 O52 1.238 . S
C49 O53 1.241 . S
C50 O43 1.247 . S
C50 O44 1.261 . S
C51 O46 1.259 . S
C51 O48 1.235 . S
O52 Co42 2.021 . S
O52 C49 1.238 . S
O53 Co47 2.052 . S
O53 C49 1.241 . S
O54 Co42 2.137 . S
O54 C45 1.247 . S
O55 Co42 2.244 . S
O55 C45 1.272 . S
O55 Co47 2.135 . S
Co56 O57 2.216 . S
Co56 O58 2.091 . S
Co56 O60 2.004 . S
Co56 O66 2.021 . S
Co56 O68 2.137 . S
Co56 O69 2.244 . S
O57 Co56 2.216 . S
O57 C64 1.247 . S
O58 Co56 2.091 . S
O58 C64 1.261 . S
C59 O68 1.247 . S
C59 O69 1.272 . S
O60 Co56 2.004 . S
O60 C65 1.259 . S
Co61 O62 2.061 . S
Co61 O67 2.052 . S
Co61 O69 2.135 . S
O62 Co61 2.061 . S
O62 C65 1.235 . S
C63 O66 1.238 . S
C63 O67 1.241 . S
C64 O57 1.247 . S
C64 O58 1.261 . S
C65 O60 1.259 . S
C65 O62 1.235 . S
O66 Co56 2.021 . S
O66 C63 1.238 . S
O67 Co61 2.052 . S
O67 C63 1.241 . S
O68 Co56 2.137 . S
O68 C59 1.247 . S
O69 Co56 2.244 . S
O69 C59 1.272 . S
O69 Co61 2.135 . S
Co70 O71 2.216 1_655 S
Co70 O72 2.091 . S
Co70 O74 2.004 . S
Co70 O80 2.021 . S
Co70 O82 2.137 . S
Co70 O83 2.244 . S
O71 Co70 2.216 1_455 S
O71 C78 1.247 . S
O72 Co70 2.091 . S
O72 C78 1.261 1_655 S
C73 O82 1.247 . S
C73 O83 1.272 . S
O74 Co70 2.004 . S
O74 C79 1.259 . S
Co75 O76 2.061 . S
Co75 O81 2.052 . S
Co75 O83 2.135 . S
O76 Co75 2.061 . S
O76 C79 1.235 . S
C77 O80 1.238 . S
C77 O81 1.241 . S
C78 O71 1.247 . S
C78 O72 1.261 1_455 S
C79 O74 1.259 . S
C79 O76 1.235 . S
O80 Co70 2.021 . S
O80 C77 1.238 . S
O81 Co75 2.052 . S
O81 C77 1.241 . S
O82 Co70 2.137 . S
O82 C73 1.247 . S
O83 Co70 2.244 . S
O83 C73 1.272 . S
O83 Co75 2.135 . S
Co84 O85 2.216 1_565 S
Co84 O86 2.091 . S
Co84 O88 2.004 . S
Co84 O94 2.021 . S
Co84 O96 2.137 . S
Co84 O97 2.244 . S
O85 Co84 2.216 1_545 S
O85 C92 1.247 1_545 S
O86 Co84 2.091 . S
O86 C92 1.261 . S
C87 O96 1.247 . S
C87 O97 1.272 . S
O88 Co84 2.004 . S
O88 C93 1.259 . S
Co89 O90 2.061 . S
Co89 O95 2.052 . S
Co89 O97 2.135 . S
O90 Co89 2.061 . S
O90 C93 1.235 . S
C91 O94 1.238 . S
C91 O95 1.241 . S
C92 O85 1.247 1_565 S
C92 O86 1.261 . S
C93 O88 1.259 . S
C93 O90 1.235 . S
O94 Co84 2.021 . S
O94 C91 1.238 . S
O95 Co89 2.052 . S
O95 C91 1.241 . S
O96 Co84 2.137 . S
O96 C87 1.247 . S
O97 Co84 2.244 . S
O97 C87 1.272 . S
O97 Co89 2.135 . S
Co98 O99 2.216 . S
Co98 O100 2.091 . S
Co98 O102 2.004 . S
Co98 O108 2.021 . S
Co98 O110 2.137 . S
Co98 O111 2.244 . S
O99 Co98 2.216 . S
O99 C106 1.247 . S
O100 Co98 2.091 . S
O100 C106 1.261 . S
C101 O110 1.247 . S
C101 O111 1.272 . S
O102 Co98 2.004 . S
O102 C107 1.259 . S
Co103 O104 2.061 . S
Co103 O109 2.052 . S
Co103 O111 2.135 . S
O104 Co103 2.061 . S
O104 C107 1.235 . S
C105 O108 1.238 . S
C105 O109 1.241 . S
C106 O99 1.247 . S
C106 O100 1.261 . S
C107 O102 1.259 . S
C107 O104 1.235 . S
O108 Co98 2.021 . S
O108 C105 1.238 . S
O109 Co103 2.052 . S
O109 C105 1.241 . S
O110 Co98 2.137 . S
O110 C101 1.247 . S
O111 Co98 2.244 . S
O111 C101 1.272 . S
O111 Co103 2.135 . S
Co112 O113 2.216 . S
Co112 O114 2.091 . S
Co112 O116 2.004 . S
Co112 O122 2.021 . S
Co112 O124 2.137 . S
Co112 O125 2.244 . S
O113 Co112 2.216 . S
O113 C120 1.247 . S
O114 Co112 2.091 . S
O114 C120 1.261 . S
C115 O124 1.247 . S
C115 O125 1.272 . S
O116 Co112 2.004 . S
O116 C121 1.259 . S
Co117 O118 2.061 . S
Co117 O123 2.052 . S
Co117 O125 2.135 . S
O118 Co117 2.061 . S
O118 C121 1.235 . S
C119 O122 1.238 . S
C119 O123 1.241 . S
C120 O113 1.247 . S
C120 O114 1.261 . S
C121 O116 1.259 . S
C121 O118 1.235 . S
O122 Co112 2.021 . S
O122 C119 1.238 . S
O123 Co117 2.052 . S
O123 C119 1.241 . S
O124 Co112 2.137 . S
O124 C115 1.247 . S
O125 Co112 2.244 . S
O125 C115 1.272 . S
O125 Co117 2.135 . S
C37 C3 1.131 . S
C23 C9 1.108 1_565 S
C17 C31 1.283 1_655 S
C73 C51 1.149 . S
C65 C45 1.132 . S
C59 C79 1.166 . S
C87 C121 1.179 . S
C93 C107 1.029 . S
C101 C115 1.193 . S
C8 C106 1.397 . S
C21 C119 1.411 . S
C91 C36 1.378 . S
C63 C35 1.402 . S
C7 C77 1.427 . S
C49 C22 1.428 . S
C105 C78 1.364 . S
C50 C120 1.416 . S
C92 C64 1.430 1_565 S
