# Generated by pormake.
# Topology cds, (4)-cn, num edge types: 1
# Building blocks:
#     Node 0, Type 0, BuildingBlock: MUDLON_clean_sbu_0, # of connection points: 4
#     Node 1, Type 0, BuildingBlock: MUDLON_clean_sbu_0, # of connection points: 4
#     Edge 2, Type (0, 0), BuildingBlock: XIVTED_clean_linker_0, # of connection points: 2
#     Edge 3, Type (0, 0), BuildingBlock: XIVTED_clean_linker_0, # of connection points: 2
#     Edge 4, Type (0, 0), BuildingBlock: XIVTED_clean_linker_0, # of connection points: 2
#     Edge 5, Type (0, 0), BuildingBlock: XIVTED_clean_linker_0, # of connection points: 2
# Relax obj value: 0.001
# Max RMSD: 0.016
# Mean RMSD: 0.016
data_MOF--net-cds--node1-MUDLON_clean_sbu_0--edge1-XIVTED_clean_linker_0
_symmetry_space_group_name_H-M    P1
_symmetry_Int_Tables_number       1
_symmetry_cell_setting            triclinic
loop_
_symmetry_equiv_pos_as_xyz
'x, y, z'
_cell_length_a     14.941901
_cell_length_b     15.242486
_cell_length_c     29.51659
_cell_angle_alpha  89.980175
_cell_angle_beta   91.398975
_cell_angle_gamma 85.441645
loop_
_atom_site_label
_atom_site_type_symbol
_atom_site_fract_x
_atom_site_fract_y
_atom_site_fract_z
_atom_type_partial_charge
Mg0 Mg 0.16291 0.13153 0.03413 0.0
C1 C 0.32707 0.2142 0.07309 0.0
O2 O 0.29724 0.18282 0.11082 0.0
C3 C 0.99154 0.22605 0.06964 0.0
O4 O 0.03672 0.21495 0.10824 0.0
C5 C 0.11038 0.02555 0.94968 0.0
O6 O 0.036 0.01753 0.97161 0.0
O7 O 0.17383 0.06346 0.96901 0.0
O8 O 0.28026 0.20875 0.03672 0.0
O9 O 0.16877 0.05041 0.09555 0.0
C10 C 0.10203 1.00991 0.10766 0.0
O11 O 0.03232 1.00789 0.07978 0.0
O12 O 0.03056 0.20418 0.033 0.0
Mg13 Mg 0.93908 0.92574 0.53051 0.0
C14 C 0.84482 0.10125 0.5 0.0
O15 O 0.85856 0.06509 0.46017 0.0
C16 C 0.91004 0.74001 0.51637 0.0
O17 O 0.99324 0.74769 0.50455 0.0
C18 C 0.96546 0.89833 0.43178 0.0
O19 O 0.88457 0.87351 0.43843 0.0
O20 O 1.01031 0.92458 0.46582 0.0
O21 O 0.86419 0.05518 0.5354 0.0
O22 O 1.0192 0.91249 0.59349 0.0
C23 C 0.05126 0.97788 0.61307 0.0
O24 O 0.04693 0.054 0.5919 0.0
O25 O 0.86344 0.80809 0.53002 0.0
H26 H 0.21429 0.03836 0.18071 0.0
H27 H 0.89313 0.82574 0.35661 0.0
H28 H 0.97521 0.91166 0.14316 0.0
H29 H 0.11188 0.97746 0.39932 0.0
H30 H 0.93603 0.84111 0.27829 0.0
H31 H 0.19132 1.00136 0.26027 0.0
C32 C 0.15772 1.00165 0.18904 0.0
C33 C 0.09629 0.97845 0.15509 0.0
C34 C 0.97519 0.87079 0.30465 0.0
C35 C 0.06949 0.9364 0.24617 0.0
C36 C 0.95071 0.86202 0.34958 0.0
C37 C 0.9984 0.90112 0.38475 0.0
C38 C 0.04798 0.91942 0.29431 0.0
C39 C 0.07302 0.94645 0.37332 0.0
C40 C 0.14446 0.98098 0.23453 0.0
C41 C 1.02408 0.93135 0.16805 0.0
N42 N 0.09512 0.955 0.32901 0.0
N43 N 1.01255 0.91235 0.21243 0.0
H44 H 1.00367 0.92008 0.90046 0.0
H45 H 0.14897 0.09131 0.66212 0.0
H46 H 0.22634 0.08122 0.88711 0.0
H47 H 1.01251 0.85393 0.67554 0.0
H48 H 0.17518 0.09209 0.74438 0.0
H49 H 1.00186 0.89759 0.81823 0.0
C50 C 0.05278 0.94997 0.88034 0.0
C51 C 0.11506 1.00282 0.90079 0.0
C52 C 0.14054 0.0392 0.72924 0.0
C53 C 0.11231 0.97859 0.80652 0.0
C54 C 0.1255 0.03874 0.68227 0.0
C55 C 0.07831 0.97258 0.66183 0.0
C56 C 0.10649 0.9741 0.75617 0.0
C57 C 0.04943 0.90613 0.68975 0.0
C58 C 0.05181 0.93698 0.8334 0.0
C59 C 0.17719 0.03983 0.87291 0.0
N60 N 0.06277 0.90931 0.7355 0.0
N61 N 0.17341 0.02806 0.8272 0.0
H62 H 0.88489 0.26202 0.14258 0.0
H63 H 0.42486 0.2497 0.99838 0.0
H64 H 0.87252 0.23951 0.99683 0.0
H65 H 0.44358 0.23718 0.14442 0.0
H66 H 0.58543 0.27103 0.99674 0.0
H67 H 0.72105 0.27804 0.14313 0.0
C68 C 0.84787 0.26164 0.11058 0.0
C69 C 0.89289 0.2486 0.06962 0.0
C70 C 0.55416 0.2646 1.02916 0.0
C71 C 0.70445 0.2663 0.07008 0.0
C72 C 0.46227 0.25282 1.03016 0.0
C73 C 0.42056 0.24075 0.07162 0.0
C74 C 0.60486 0.26463 0.0699 0.0
C75 C 0.47279 0.24542 0.11164 0.0
C76 C 0.75409 0.27051 0.11096 0.0
C77 C 0.84089 0.24895 1.02926 0.0
N78 N 0.56212 0.25628 0.10976 0.0
N79 N 0.74954 0.2568 1.03055 0.0
H80 H 0.92465 0.63194 0.44421 0.0
H81 H 0.82628 0.20453 0.5766 0.0
H82 H 0.81549 0.65071 0.57793 0.0
H83 H 0.81959 0.21957 0.43049 0.0
H84 H 0.81966 0.36596 0.57971 0.0
H85 H 0.88569 0.47966 0.43942 0.0
C86 C 0.89105 0.60405 0.47232 0.0
C87 C 0.8729 0.65362 0.51143 0.0
C88 C 0.81797 0.33373 0.54704 0.0
C89 C 0.83036 0.47835 0.50685 0.0
C90 C 0.82177 0.24159 0.54521 0.0
C91 C 0.82467 0.19809 0.5032 0.0
C92 C 0.81845 0.38241 0.50662 0.0
C93 C 0.81851 0.24979 0.46367 0.0
C94 C 0.86873 0.51718 0.46959 0.0
C95 C 0.82974 0.61453 0.54704 0.0
N96 N 0.8172 0.33883 0.46638 0.0
N97 N 0.81136 0.52836 0.54429 0.0
loop_
_geom_bond_atom_site_label_1
_geom_bond_atom_site_label_2
_geom_bond_distance
_geom_bond_site_symmetry_2
_ccdc_geom_bond_type
Mg0 O7 2.144 . S
Mg0 O8 2.042 1_655 S
Mg0 O9 2.045 1_556 S
Mg0 O12 2.147 . S
C1 O2 1.313 1_545 S
C1 O8 1.195 1_554 S
O2 C1 1.313 1_565 S
C3 O4 1.247 1_545 S
C3 O12 1.287 1_554 S
O4 C3 1.247 1_565 S
C5 O6 1.245 1_545 S
C5 O7 1.289 1_455 S
O6 C5 1.245 1_565 S
O7 Mg0 2.144 . S
O7 C5 1.289 1_655 S
O8 Mg0 2.042 1_455 S
O8 C1 1.195 1_556 S
O9 Mg0 2.045 1_554 S
O9 C10 1.195 1_655 S
C10 O9 1.195 1_455 S
C10 O11 1.313 1_545 S
O11 C10 1.313 1_565 S
O12 Mg0 2.147 . S
O12 C3 1.287 1_556 S
Mg13 O20 2.141 . S
Mg13 O21 2.042 1_565 S
Mg13 O22 2.048 . S
Mg13 O25 2.147 . S
C14 O15 1.313 . S
C14 O21 1.195 1_455 S
O15 C14 1.313 . S
C16 O17 1.245 . S
C16 O25 1.289 1_455 S
O17 C16 1.245 . S
C18 O19 1.245 . S
C18 O20 1.289 1_445 S
O19 C18 1.245 . S
O20 Mg13 2.141 . S
O20 C18 1.289 1_665 S
O21 Mg13 2.042 1_545 S
O21 C14 1.195 1_655 S
O22 Mg13 2.048 . S
O22 C23 1.195 1_665 S
C23 O22 1.195 1_445 S
C23 O24 1.313 . S
O24 C23 1.313 . S
O25 Mg13 2.147 . S
O25 C16 1.289 1_655 S
H26 C32 0.930 . S
H27 C36 0.930 . S
H28 C41 0.929 . S
H29 C39 0.929 . S
H30 C34 0.929 . S
H31 C40 0.929 . S
C32 H26 0.930 . S
C32 C33 1.367 1_655 S
C32 C40 1.378 . S
C33 C32 1.367 1_455 S
C33 C41 1.433 1_545 S
C34 H30 0.929 . S
C34 C36 1.378 . S
C34 C38 1.350 1_565 S
C35 C38 1.463 . S
C35 C40 1.350 1_455 S
C35 N43 1.427 1_545 S
C36 H27 0.930 . S
C36 C34 1.378 . S
C36 C37 1.367 1_565 S
C37 C36 1.367 1_545 S
C37 C39 1.433 1_455 S
C38 C34 1.350 1_545 S
C38 C35 1.463 . S
C38 N42 1.427 1_455 S
C39 H29 0.929 . S
C39 C37 1.433 1_655 S
C39 N42 1.384 . S
C40 H31 0.929 . S
C40 C32 1.378 . S
C40 C35 1.350 1_655 S
C41 H28 0.929 . S
C41 C33 1.433 1_565 S
C41 N43 1.384 . S
N42 C38 1.427 1_655 S
N42 C39 1.384 . S
N43 C35 1.427 1_565 S
N43 C41 1.384 . S
H44 C50 0.930 . S
H45 C54 0.930 . S
H46 C59 0.929 . S
H47 C57 0.929 . S
H48 C52 0.929 . S
H49 C58 0.929 . S
C50 H44 0.930 . S
C50 C51 1.367 1_665 S
C50 C58 1.378 . S
C51 C50 1.367 1_445 S
C51 C59 1.433 . S
C52 H48 0.929 . S
C52 C54 1.378 . S
C52 C56 1.350 . S
C53 C56 1.463 . S
C53 C58 1.350 1_445 S
C53 N61 1.427 . S
C54 H45 0.930 . S
C54 C52 1.378 . S
C54 C55 1.367 . S
C55 C54 1.367 . S
C55 C57 1.433 1_445 S
C56 C52 1.350 . S
C56 C53 1.463 . S
C56 N60 1.427 1_445 S
C57 H47 0.929 . S
C57 C55 1.433 1_665 S
C57 N60 1.384 . S
C58 H49 0.929 . S
C58 C50 1.378 . S
C58 C53 1.350 1_665 S
C59 H46 0.929 . S
C59 C51 1.433 . S
C59 N61 1.384 . S
N60 C56 1.427 1_665 S
N60 C57 1.384 . S
N61 C53 1.427 . S
N61 C59 1.384 . S
H62 C68 0.930 . S
H63 C72 0.930 . S
H64 C77 0.929 . S
H65 C75 0.929 . S
H66 C70 0.929 . S
H67 C76 0.929 . S
C68 H62 0.930 . S
C68 C69 1.367 . S
C68 C76 1.378 . S
C69 C68 1.367 . S
C69 C77 1.433 1_554 S
C70 H66 0.929 . S
C70 C72 1.378 . S
C70 C74 1.331 1_556 S
C71 C74 1.463 . S
C71 C76 1.350 . S
C71 N79 1.427 1_554 S
C72 H63 0.930 . S
C72 C70 1.378 . S
C72 C73 1.367 1_556 S
C73 C72 1.367 1_554 S
C73 C75 1.433 . S
C74 C70 1.331 1_554 S
C74 C71 1.463 . S
C74 N78 1.447 . S
C75 H65 0.929 . S
C75 C73 1.433 . S
C75 N78 1.384 . S
C76 H67 0.929 . S
C76 C68 1.378 . S
C76 C71 1.350 . S
C77 H64 0.929 . S
C77 C69 1.433 1_556 S
C77 N79 1.384 . S
N78 C74 1.447 . S
N78 C75 1.384 . S
N79 C71 1.427 1_556 S
N79 C77 1.384 . S
H80 C86 0.930 . S
H81 C90 0.930 . S
H82 C95 0.929 . S
H83 C93 0.929 . S
H84 C88 0.929 . S
H85 C94 0.929 . S
C86 H80 0.930 . S
C86 C87 1.367 . S
C86 C94 1.378 . S
C87 C86 1.367 . S
C87 C95 1.433 1_455 S
C88 H84 0.929 . S
C88 C90 1.378 . S
C88 C92 1.350 1_655 S
C89 C92 1.463 . S
C89 C94 1.350 . S
C89 N97 1.427 1_455 S
C90 H81 0.930 . S
C90 C88 1.378 . S
C90 C91 1.367 1_655 S
C91 C90 1.367 1_455 S
C91 C93 1.433 . S
C92 C88 1.350 1_455 S
C92 C89 1.463 . S
C92 N96 1.427 . S
C93 H83 0.929 . S
C93 C91 1.433 . S
C93 N96 1.384 . S
C94 H85 0.929 . S
C94 C86 1.378 . S
C94 C89 1.350 . S
C95 H82 0.929 . S
C95 C87 1.433 1_655 S
C95 N97 1.384 . S
N96 C92 1.427 . S
N96 C93 1.384 . S
N97 C89 1.427 1_655 S
N97 C95 1.384 . S
C33 C10 1.495 . S
C37 C18 1.488 . S
C51 C5 1.485 . S
C55 C23 1.497 . S
C69 C3 1.491 . S
C73 C1 1.494 . S
C87 C16 1.486 . S
C91 C14 1.494 . S
