# Generated by pormake.
# Topology pcu, (6)-cn, num edge types: 1
# Building blocks:
#     Node 0, Type 0, BuildingBlock: INOVEN_clean_sbu_0, # of connection points: 6
#     Edge 1, Type (0, 0), BuildingBlock: XIVTED_clean_linker_0, # of connection points: 2
#     Edge 2, Type (0, 0), BuildingBlock: XIVTED_clean_linker_0, # of connection points: 2
#     Edge 3, Type (0, 0), BuildingBlock: XIVTED_clean_linker_0, # of connection points: 2
# Relax obj value: 0.000
# Max RMSD: 0.000
# Mean RMSD: 0.000
data_MOF--net-pcu--node1-INOVEN_clean_sbu_0--edge1-XIVTED_clean_linker_0
_symmetry_space_group_name_H-M    P1
_symmetry_Int_Tables_number       1
_symmetry_cell_setting            triclinic
loop_
_symmetry_equiv_pos_as_xyz
'x, y, z'
_cell_length_a     25.255389
_cell_length_b     15.697236
_cell_length_c     14.480719
_cell_angle_alpha  87.628253
_cell_angle_beta   98.014266
_cell_angle_gamma 124.78587
loop_
_atom_site_label
_atom_site_type_symbol
_atom_site_fract_x
_atom_site_fract_y
_atom_site_fract_z
_atom_type_partial_charge
Gd0 Gd 0.95898 0.91311 0.02235 0.0
Gd1 Gd 0.10224 0.0474 1.00391 0.0
C2 C 0.03403 0.164 1.00529 0.0
C3 C 0.84547 0.83631 0.07052 0.0
C4 C 0.79684 0.86193 0.0606 0.0
C5 C 0.75751 0.84511 0.97494 0.0
C6 C 0.78819 0.90121 0.13832 0.0
C7 C 0.70209 0.9067 0.04504 0.0
C8 C 0.74155 0.92363 0.13062 0.0
C9 C 0.71079 0.86734 0.96728 0.0
C10 C 0.98543 0.93218 0.84522 0.0
C11 C 1.02716 0.7965 0.02063 0.0
C12 C 0.21595 0.12445 0.95636 0.0
C13 C 0.26451 0.09866 0.96619 0.0
C14 C 0.30399 0.11575 0.05175 0.0
C15 C 0.27296 0.05904 0.88851 0.0
C16 C 0.35915 0.05368 0.98165 0.0
C17 C 0.31956 0.03651 0.89617 0.0
C18 C 0.35066 0.0934 0.05937 0.0
C19 C 0.0754 0.02817 0.18096 0.0
O20 O 0.98512 0.07673 0.03463 0.0
O21 O 0.08239 0.16843 0.97475 0.0
O22 O 0.8541 0.80555 0.99481 0.0
O23 O 0.90009 0.89859 0.12565 0.0
O24 O 0.93743 0.84803 0.87544 0.0
O25 O 1.01438 0.00395 0.90787 0.0
O26 O 0.07606 0.88379 0.9913 0.0
O27 O 0.97884 0.79206 0.0513 0.0
O28 O 0.20712 0.15465 0.0322 0.0
O29 O 0.16145 0.06264 0.90081 0.0
O30 O 0.12331 0.11251 0.1508 0.0
O31 O 0.04689 0.95653 0.11827 0.0
H32 H 0.76236 0.81403 0.91373 0.0
H33 H 0.81749 0.91445 0.20537 0.0
H34 H 0.73677 0.95501 0.19168 0.0
H35 H 0.68062 0.8518 0.90067 0.0
H36 H 0.29932 0.14713 0.11291 0.0
H37 H 0.24356 0.04561 0.82153 0.0
H38 H 0.3242 0.00488 0.83515 0.0
H39 H 0.38094 0.10914 0.1259 0.0
H40 H 0.13707 0.17502 0.32399 0.0
H41 H 0.92331 0.78529 0.7021 0.0
H42 H 0.98329 0.85173 0.25975 0.0
H43 H 0.07769 0.10828 0.76636 0.0
H44 H 0.94451 0.80788 0.54 0.0
H45 H 0.11579 0.15232 0.48601 0.0
C46 C 0.09876 0.0992 0.3441 0.0
C47 C 0.06196 0.01505 0.27854 0.0
C48 C 0.97381 0.8739 0.58942 0.0
C49 C 0.03726 -0.01167 0.46395 0.0
C50 C 0.96173 0.86102 0.68198 0.0
C51 C 0.99874 0.94512 0.74757 0.0
C52 C 1.02332 0.97171 0.5621 0.0
C53 C 0.048 0.04144 0.7179 0.0
C54 C 0.08663 0.08624 0.43662 0.0
C55 C 1.01283 0.91861 0.3082 0.0
N56 N 0.05882 0.05214 0.62733 0.0
N57 N 1.00194 0.90784 0.39876 0.0
H58 H 0.44043 0.08937 0.85485 0.0
H59 H 0.62059 0.87055 0.17164 0.0
H60 H 0.39333 0.96766 0.12656 0.0
H61 H 0.66803 -0.00703 0.90023 0.0
H62 H 0.53771 0.90662 0.15683 0.0
H63 H 0.52328 0.05323 0.86963 0.0
C64 C 0.44714 0.05441 0.91741 0.0
C65 C 0.40962 0.0315 0.98953 0.0
C66 C 0.56624 0.92561 0.10048 0.0
C67 C 0.50531 -0.00894 1.00743 0.0
C68 C 0.61395 0.90565 0.10914 0.0
C69 C 0.65158 0.92879 0.03712 0.0
C70 C 0.55585 0.96913 0.01917 0.0
C71 C 0.63975 0.97253 0.95708 0.0
C72 C 0.49484 0.03441 0.92605 0.0
C73 C 0.42152 -0.01208 0.06963 0.0
N74 N 0.59304 -0.00872 0.95033 0.0
N75 N 0.46821 0.96912 0.07636 0.0
H76 H 0.93476 0.60067 0.07094 0.0
H77 H 0.12642 0.3598 0.95489 0.0
H78 H 0.12063 0.77828 0.96881 0.0
H79 H 0.94052 0.18221 0.05692 0.0
H80 H 0.12504 0.51394 0.95912 0.0
H81 H 0.93613 0.44652 0.0666 0.0
C82 C 0.97593 0.60742 0.04781 0.0
C83 C 1.02764 0.70269 0.02021 0.0
C84 C 0.08452 0.4412 0.98048 0.0
C85 C 1.02944 0.52631 0.01488 0.0
C86 C 0.08524 0.35305 0.97797 0.0
C87 C 0.03353 0.25779 1.00558 0.0
C88 C 0.03171 0.43415 1.01079 0.0
C89 C 0.98152 0.25392 0.03503 0.0
C90 C 0.97664 0.51926 0.04523 0.0
C91 C 0.07963 0.70656 0.9907 0.0
N92 N 0.98198 0.34079 0.03688 0.0
N93 N 0.07917 0.61968 0.9888 0.0
loop_
_geom_bond_atom_site_label_1
_geom_bond_atom_site_label_2
_geom_bond_distance
_geom_bond_site_symmetry_2
_ccdc_geom_bond_type
Gd0 C3 2.818 . S
Gd0 O20 2.377 1_565 S
Gd0 O22 2.448 . S
Gd0 O23 2.506 1_556 S
Gd0 O24 2.435 . S
Gd0 O25 2.717 1_665 S
Gd0 O27 2.395 . S
Gd0 O31 2.327 1_556 S
Gd1 C12 2.818 . S
Gd1 O21 2.395 . S
Gd1 O25 2.327 1_554 S
Gd1 O26 2.377 1_545 S
Gd1 O28 2.448 . S
Gd1 O29 2.506 1_554 S
Gd1 O30 2.435 . S
Gd1 O31 2.717 1_445 S
C2 O20 1.240 1_455 S
C2 O21 1.240 1_556 S
C3 Gd0 2.818 . S
C3 C4 1.510 . S
C3 O22 1.249 . S
C3 O23 1.252 1_556 S
C4 C3 1.510 . S
C4 C5 1.404 . S
C4 C6 1.352 1_566 S
C5 C4 1.404 . S
C5 C9 1.389 . S
C5 H32 0.930 . S
C6 C4 1.352 1_544 S
C6 C8 1.374 . S
C6 H33 0.931 . S
C7 C8 1.359 1_565 S
C7 C9 1.364 1_554 S
C8 C6 1.374 . S
C8 C7 1.359 1_545 S
C8 H34 0.931 . S
C9 C5 1.389 . S
C9 C7 1.364 1_556 S
C9 H35 0.931 . S
C10 O24 1.256 . S
C10 O25 1.257 1_665 S
C11 O26 1.240 1_655 S
C11 O27 1.240 1_554 S
C12 Gd1 2.818 . S
C12 C13 1.510 . S
C12 O28 1.249 . S
C12 O29 1.252 1_554 S
C13 C12 1.510 . S
C13 C14 1.404 . S
C13 C15 1.352 1_544 S
C14 C13 1.404 . S
C14 C18 1.389 . S
C14 H36 0.930 . S
C15 C13 1.352 1_566 S
C15 C17 1.374 . S
C15 H37 0.931 . S
C16 C17 1.359 1_545 S
C16 C18 1.364 1_556 S
C17 C15 1.374 . S
C17 C16 1.359 1_565 S
C17 H38 0.931 . S
C18 C14 1.389 . S
C18 C16 1.364 1_554 S
C18 H39 0.931 . S
C19 O30 1.256 . S
C19 O31 1.257 1_445 S
O20 Gd0 2.377 1_545 S
O20 C2 1.240 1_655 S
O21 Gd1 2.395 . S
O21 C2 1.240 1_554 S
O22 Gd0 2.448 . S
O22 C3 1.249 . S
O23 Gd0 2.506 1_554 S
O23 C3 1.252 1_554 S
O24 Gd0 2.435 . S
O24 C10 1.256 . S
O25 Gd0 2.717 1_445 S
O25 Gd1 2.327 1_556 S
O25 C10 1.257 1_445 S
O26 Gd1 2.377 1_565 S
O26 C11 1.240 1_455 S
O27 Gd0 2.395 . S
O27 C11 1.240 1_556 S
O28 Gd1 2.448 . S
O28 C12 1.249 . S
O29 Gd1 2.506 1_556 S
O29 C12 1.252 1_556 S
O30 Gd1 2.435 . S
O30 C19 1.256 . S
O31 Gd0 2.327 1_554 S
O31 Gd1 2.717 1_665 S
O31 C19 1.257 1_665 S
H32 C5 0.930 . S
H33 C6 0.931 . S
H34 C8 0.931 . S
H35 C9 0.931 . S
H36 C14 0.930 . S
H37 C15 0.931 . S
H38 C17 0.931 . S
H39 C18 0.931 . S
H40 C46 0.930 . S
H41 C50 0.930 . S
H42 C55 0.929 . S
H43 C53 0.929 . S
H44 C48 0.929 . S
H45 C54 0.929 . S
C46 H40 0.930 . S
C46 C47 1.367 . S
C46 C54 1.378 . S
C47 C46 1.367 . S
C47 C55 1.431 1_445 S
C48 H44 0.929 . S
C48 C50 1.378 . S
C48 C52 1.350 . S
C49 C52 1.463 1_445 S
C49 C54 1.350 . S
C49 N57 1.427 1_445 S
C50 H41 0.930 . S
C50 C48 1.378 . S
C50 C51 1.367 . S
C51 C50 1.367 . S
C51 C53 1.431 1_665 S
C52 C48 1.350 . S
C52 C49 1.463 1_665 S
C52 N56 1.427 1_665 S
C53 H43 0.929 . S
C53 C51 1.431 1_445 S
C53 N56 1.384 . S
C54 H45 0.929 . S
C54 C46 1.378 . S
C54 C49 1.350 . S
C55 H42 0.929 . S
C55 C47 1.431 1_665 S
C55 N57 1.384 . S
N56 C52 1.427 1_445 S
N56 C53 1.384 . S
N57 C49 1.427 1_665 S
N57 C55 1.384 . S
H58 C64 0.930 . S
H59 C68 0.930 . S
H60 C73 0.929 . S
H61 C71 0.929 . S
H62 C66 0.929 . S
H63 C72 0.929 . S
C64 H58 0.930 . S
C64 C65 1.367 . S
C64 C72 1.378 . S
C65 C64 1.367 . S
C65 C73 1.433 1_546 S
C66 H62 0.929 . S
C66 C68 1.378 . S
C66 C70 1.350 . S
C67 C70 1.463 1_546 S
C67 C72 1.350 . S
C67 N75 1.427 1_546 S
C68 H59 0.930 . S
C68 C66 1.378 . S
C68 C69 1.366 . S
C69 C68 1.366 . S
C69 C71 1.427 1_564 S
C70 C66 1.350 . S
C70 C67 1.463 1_564 S
C70 N74 1.427 1_564 S
C71 H61 0.929 . S
C71 C69 1.427 1_546 S
C71 N74 1.384 . S
C72 H63 0.929 . S
C72 C64 1.378 . S
C72 C67 1.350 . S
C73 H60 0.929 . S
C73 C65 1.433 1_564 S
C73 N75 1.384 . S
N74 C70 1.427 1_546 S
N74 C71 1.384 . S
N75 C67 1.427 1_564 S
N75 C73 1.384 . S
H76 C82 0.930 . S
H77 C86 0.930 . S
H78 C91 0.929 . S
H79 C89 0.929 . S
H80 C84 0.929 . S
H81 C90 0.929 . S
C82 H76 0.930 . S
C82 C83 1.367 . S
C82 C90 1.378 . S
C83 C82 1.367 . S
C83 C91 1.425 1_656 S
C84 H80 0.929 . S
C84 C86 1.378 . S
C84 C88 1.350 . S
C85 C88 1.449 1_656 S
C85 C90 1.363 . S
C85 N93 1.426 1_656 S
C86 H77 0.930 . S
C86 C84 1.378 . S
C86 C87 1.367 . S
C87 C86 1.367 . S
C87 C89 1.422 1_454 S
C88 C84 1.350 . S
C88 C85 1.449 1_454 S
C88 N92 1.427 1_454 S
C89 H79 0.929 . S
C89 C87 1.422 1_656 S
C89 N92 1.384 . S
C90 H81 0.929 . S
C90 C82 1.378 . S
C90 C85 1.363 . S
C91 H78 0.929 . S
C91 C83 1.425 1_454 S
C91 N93 1.384 . S
N92 C88 1.427 1_656 S
N92 C89 1.384 . S
N93 C85 1.426 1_454 S
N93 C91 1.384 . S
C47 C19 1.463 . S
C51 C10 1.461 . S
C65 C16 1.498 . S
C69 C7 1.504 . S
C83 C11 1.505 1_556 S
C87 C2 1.508 1_554 S
