# Generated by pormake.
# Topology umm, (4)-cn, num edge types: 1
# Building blocks:
#     Node 0, Type 0, BuildingBlock: GALJAG_clean_sbu_0, # of connection points: 4
#     Node 1, Type 0, BuildingBlock: GALJAG_clean_sbu_0, # of connection points: 4
#     Node 2, Type 0, BuildingBlock: GALJAG_clean_sbu_0, # of connection points: 4
#     Node 3, Type 0, BuildingBlock: GALJAG_clean_sbu_0, # of connection points: 4
#     Node 4, Type 0, BuildingBlock: GALJAG_clean_sbu_0, # of connection points: 4
#     Node 5, Type 0, BuildingBlock: GALJAG_clean_sbu_0, # of connection points: 4
#     Node 6, Type 0, BuildingBlock: GALJAG_clean_sbu_0, # of connection points: 4
#     Node 7, Type 0, BuildingBlock: GALJAG_clean_sbu_0, # of connection points: 4
#     Node 8, Type 0, BuildingBlock: GALJAG_clean_sbu_0, # of connection points: 4
#     Node 9, Type 0, BuildingBlock: GALJAG_clean_sbu_0, # of connection points: 4
#     Node 10, Type 0, BuildingBlock: GALJAG_clean_sbu_0, # of connection points: 4
#     Node 11, Type 0, BuildingBlock: GALJAG_clean_sbu_0, # of connection points: 4
#     Edge 12, Type (0, 0), None
#     Edge 13, Type (0, 0), None
#     Edge 14, Type (0, 0), None
#     Edge 15, Type (0, 0), None
#     Edge 16, Type (0, 0), None
#     Edge 17, Type (0, 0), None
#     Edge 18, Type (0, 0), None
#     Edge 19, Type (0, 0), None
#     Edge 20, Type (0, 0), None
#     Edge 21, Type (0, 0), None
#     Edge 22, Type (0, 0), None
#     Edge 23, Type (0, 0), None
#     Edge 24, Type (0, 0), None
#     Edge 25, Type (0, 0), None
#     Edge 26, Type (0, 0), None
#     Edge 27, Type (0, 0), None
#     Edge 28, Type (0, 0), None
#     Edge 29, Type (0, 0), None
#     Edge 30, Type (0, 0), None
#     Edge 31, Type (0, 0), None
#     Edge 32, Type (0, 0), None
#     Edge 33, Type (0, 0), None
#     Edge 34, Type (0, 0), None
#     Edge 35, Type (0, 0), None
# Relax obj value: 0.093
# Max RMSD: 0.221
# Mean RMSD: 0.220
data_MOF--net-umm--node1-GALJAG_clean_sbu_0--edge1-none
_symmetry_space_group_name_H-M    P1
_symmetry_Int_Tables_number       1
_symmetry_cell_setting            triclinic
loop_
_symmetry_equiv_pos_as_xyz
'x, y, z'
_cell_length_a     25.495615
_cell_length_b     25.517562
_cell_length_c     13.041704
_cell_angle_alpha  89.999954
_cell_angle_beta   90.000023
_cell_angle_gamma 119.99948
loop_
_atom_site_label
_atom_site_type_symbol
_atom_site_fract_x
_atom_site_fract_y
_atom_site_fract_z
_atom_type_partial_charge
In0 In 0.38819 0.54189 0.07401 0.0
O1 O 0.42611 0.61211 0.20031 0.0
O2 O 0.35601 0.52153 0.23791 0.0
C3 C 0.41423 0.55733 0.87859 0.0
C4 C 0.46589 0.50237 0.09719 0.0
C5 C 0.28715 0.53771 0.01312 0.0
O6 O 0.44015 0.60121 0.94177 0.0
O7 O 0.37684 0.50586 0.91508 0.0
O8 O 0.28761 0.48943 0.03683 0.0
O9 O 0.33592 0.58721 0.02909 0.0
C10 C 0.39331 0.57454 0.26897 0.0
O11 O 0.40881 0.46594 0.0961 0.0
O12 O 0.48289 0.55806 0.08883 0.0
In13 In 0.8383 0.39177 0.40736 0.0
O14 O 0.80573 0.4294 0.53372 0.0
O15 O 0.82662 0.35957 0.57124 0.0
C16 C 0.84881 0.41766 0.21192 0.0
C17 C 0.95546 0.46982 0.43049 0.0
C18 C 0.74145 0.29083 0.34644 0.0
O19 O 0.83078 0.44355 0.27506 0.0
O20 O 0.86304 0.38038 0.24846 0.0
O21 O 0.79023 0.29128 0.37012 0.0
O22 O 0.74067 0.33955 0.36247 0.0
C23 C 0.81066 0.39669 0.60234 0.0
O24 O 0.93509 0.41282 0.42941 0.0
O25 O 0.91654 0.48656 0.42215 0.0
In26 In 0.43854 0.84244 0.74067 0.0
O27 O 0.36829 0.8099 0.867 0.0
O28 O 0.45906 0.83077 0.90458 0.0
C29 C 0.4231 0.85291 0.54522 0.0
C30 C 0.47759 0.95951 0.76377 0.0
C31 C 0.44281 0.74572 0.67978 0.0
O32 O 0.37916 0.83488 0.60839 0.0
O33 O 0.47464 0.86715 0.58174 0.0
O34 O 0.49112 0.79447 0.70346 0.0
O35 O 0.39325 0.7449 0.69579 0.0
C36 C 0.40594 0.81483 0.93564 0.0
O37 O 0.51426 0.93915 0.76271 0.0
O38 O 0.42192 0.92062 0.75543 0.0
In39 In 0.58763 0.44197 0.07401 0.0
O40 O 0.5497 0.37175 0.20031 0.0
O41 O 0.61981 0.46233 0.23791 0.0
C42 C 0.56159 0.42653 0.87859 0.0
C43 C 0.50993 0.48148 0.09717 0.0
C44 C 0.68867 0.44615 0.01312 0.0
O45 O 0.53566 0.38265 0.94177 0.0
O46 O 0.59897 0.478 0.91508 0.0
O47 O 0.68821 0.49442 0.03683 0.0
O48 O 0.6399 0.39664 0.02909 0.0
C49 C 0.58251 0.40932 0.26897 0.0
O50 O 0.56701 0.51792 0.0961 0.0
O51 O 0.49293 0.4258 0.08883 0.0
In52 In 0.13752 0.59209 0.40736 0.0
O53 O 0.17008 0.55446 0.53372 0.0
O54 O 0.14919 0.62428 0.57124 0.0
C55 C 0.127 0.5662 0.21192 0.0
C56 C 0.02036 0.51404 0.43047 0.0
C57 C 0.23436 0.69302 0.34644 0.0
O58 O 0.14504 0.54031 0.27506 0.0
O59 O 0.11278 0.60347 0.24846 0.0
O60 O 0.18559 0.69258 0.37012 0.0
O61 O 0.23515 0.6443 0.36247 0.0
C62 C 0.16515 0.58717 0.60234 0.0
O63 O 0.04073 0.57103 0.42941 0.0
O64 O 0.05928 0.4973 0.42215 0.0
In65 In 0.53727 0.14142 0.74067 0.0
O66 O 0.60753 0.17396 0.867 0.0
O67 O 0.51676 0.15308 0.90458 0.0
C68 C 0.55272 0.13094 0.54522 0.0
C69 C 0.49822 0.02435 0.76375 0.0
C70 C 0.533 0.23814 0.67978 0.0
O71 O 0.59666 0.14898 0.60839 0.0
O72 O 0.50118 0.11671 0.58173 0.0
O73 O 0.48469 0.18939 0.70346 0.0
O74 O 0.58257 0.23896 0.69579 0.0
C75 C 0.56987 0.16903 0.93564 0.0
O76 O 0.46155 0.0447 0.7627 0.0
O77 O 0.5539 0.06324 0.75543 0.0
In78 In 0.43868 0.59222 0.5735 0.0
O79 O 0.36845 0.55462 0.44715 0.0
O80 O 0.45926 0.6244 0.40961 0.0
C81 C 0.4233 0.56638 0.76896 0.0
C82 C 0.47763 0.51407 0.55042 0.0
C83 C 0.44284 0.69315 0.6344 0.0
O84 O 0.37935 0.54047 0.70582 0.0
O85 O 0.47483 0.60363 0.73241 0.0
O86 O 0.49118 0.69271 0.61073 0.0
O87 O 0.39331 0.64442 0.61836 0.0
C88 C 0.40614 0.5873 0.37853 0.0
O89 O 0.51434 0.57105 0.55149 0.0
O90 O 0.42196 0.49739 0.55876 0.0
In91 In 0.8382 0.44208 0.90685 0.0
O92 O 0.80582 0.37187 0.78054 0.0
O93 O 0.82643 0.46248 0.74297 0.0
C94 C 0.84879 0.42669 0.10228 0.0
C95 C 0.95544 0.48151 0.88369 0.0
C96 C 0.74131 0.44617 0.96775 0.0
O97 O 0.83081 0.3828 0.03913 0.0
O98 O 0.86292 0.47816 0.06577 0.0
O99 O 0.79006 0.49447 0.94404 0.0
O100 O 0.74056 0.39669 0.95176 0.0
C101 C 0.81066 0.40946 0.71191 0.0
O102 O 0.93487 0.51798 0.88477 0.0
O103 O 0.91667 0.42583 0.89204 0.0
In104 In 0.38802 0.84236 0.24016 0.0
O105 O 0.4259 0.80998 0.11387 0.0
O106 O 0.35585 0.83061 0.07624 0.0
C107 C 0.41401 0.8529 0.43559 0.0
C108 C 0.46586 0.95949 0.21701 0.0
C109 C 0.28699 0.7456 0.30106 0.0
O110 O 0.43995 0.83492 0.37241 0.0
O111 O 0.37666 0.86705 0.3991 0.0
O112 O 0.28744 0.79433 0.27734 0.0
O113 O 0.33575 0.74482 0.28506 0.0
C114 C 0.39313 0.81483 0.04521 0.0
O115 O 0.40879 0.93897 0.21809 0.0
O116 O 0.48278 0.92073 0.22537 0.0
In117 In 0.53713 0.39164 0.5735 0.0
O118 O 0.60736 0.42924 0.44715 0.0
O119 O 0.51656 0.35946 0.40961 0.0
C120 C 0.55252 0.41748 0.76896 0.0
C121 C 0.49819 0.46979 0.55044 0.0
C122 C 0.53297 0.29071 0.6344 0.0
O123 O 0.59647 0.44338 0.70582 0.0
O124 O 0.50098 0.38023 0.73241 0.0
O125 O 0.48463 0.29114 0.61073 0.0
O126 O 0.58251 0.33944 0.61836 0.0
C127 C 0.56967 0.39656 0.37853 0.0
O128 O 0.46148 0.4128 0.55149 0.0
O129 O 0.55386 0.48647 0.55876 0.0
In130 In 0.13761 0.54178 0.90685 0.0
O131 O 0.04095 0.46588 0.88477 0.0
O132 O 0.05914 0.55803 0.89205 0.0
C133 C 0.23451 0.53768 0.96775 0.0
C134 C 0.16516 0.57439 0.71191 0.0
C135 C 0.12703 0.55716 0.10228 0.0
O136 O 0.18576 0.48939 0.94404 0.0
O137 O 0.23525 0.58717 0.95176 0.0
O138 O 0.145 0.60106 0.03913 0.0
O139 O 0.1129 0.5057 0.06577 0.0
C140 C 0.02038 0.50235 0.88371 0.0
O141 O 0.16999 0.61198 0.78054 0.0
O142 O 0.14939 0.52137 0.74297 0.0
In143 In 0.58779 0.14149 0.24016 0.0
O144 O 0.56703 0.04489 0.21809 0.0
O145 O 0.49304 0.06312 0.22538 0.0
C146 C 0.68883 0.23826 0.30105 0.0
C147 C 0.58268 0.16903 0.04521 0.0
C148 C 0.5618 0.13096 0.43559 0.0
O149 O 0.68838 0.18953 0.27734 0.0
O150 O 0.64006 0.23904 0.28506 0.0
O151 O 0.53587 0.14894 0.37241 0.0
O152 O 0.59916 0.11681 0.3991 0.0
C153 C 0.50996 0.02437 0.21704 0.0
O154 O 0.54992 0.17388 0.11387 0.0
O155 O 0.61996 0.15324 0.07624 0.0
loop_
_geom_bond_atom_site_label_1
_geom_bond_atom_site_label_2
_geom_bond_distance
_geom_bond_site_symmetry_2
_ccdc_geom_bond_type
In0 O1 2.294 . S
In0 O2 2.326 . S
In0 O6 2.266 1_554 S
In0 O7 2.326 1_554 S
In0 O8 2.266 . S
In0 O9 2.326 . S
In0 O11 2.294 . S
In0 O12 2.326 . S
O1 In0 2.294 . S
O1 C10 1.240 . S
O2 In0 2.326 . S
O2 C10 1.252 . S
C3 O6 1.252 . S
C3 O7 1.260 . S
C4 O11 1.240 . S
C4 O12 1.252 . S
C5 O8 1.252 . S
C5 O9 1.260 . S
O6 In0 2.266 1_556 S
O6 C3 1.252 . S
O7 In0 2.326 1_556 S
O7 C3 1.260 . S
O8 In0 2.266 . S
O8 C5 1.252 . S
O9 In0 2.326 . S
O9 C5 1.260 . S
C10 O1 1.240 . S
C10 O2 1.252 . S
O11 In0 2.294 . S
O11 C4 1.240 . S
O12 In0 2.326 . S
O12 C4 1.252 . S
In13 O14 2.294 . S
In13 O15 2.326 . S
In13 O19 2.266 . S
In13 O20 2.326 . S
In13 O21 2.266 . S
In13 O22 2.326 . S
In13 O24 2.294 . S
In13 O25 2.326 . S
O14 In13 2.294 . S
O14 C23 1.240 . S
O15 In13 2.326 . S
O15 C23 1.252 . S
C16 O19 1.252 . S
C16 O20 1.260 . S
C17 O24 1.240 . S
C17 O25 1.252 . S
C18 O21 1.252 . S
C18 O22 1.260 . S
O19 In13 2.266 . S
O19 C16 1.252 . S
O20 In13 2.326 . S
O20 C16 1.260 . S
O21 In13 2.266 . S
O21 C18 1.252 . S
O22 In13 2.326 . S
O22 C18 1.260 . S
C23 O14 1.240 . S
C23 O15 1.252 . S
O24 In13 2.294 . S
O24 C17 1.240 . S
O25 In13 2.326 . S
O25 C17 1.252 . S
In26 O27 2.294 . S
In26 O28 2.326 . S
In26 O32 2.266 . S
In26 O33 2.326 . S
In26 O34 2.266 . S
In26 O35 2.326 . S
In26 O37 2.294 . S
In26 O38 2.326 . S
O27 In26 2.294 . S
O27 C36 1.240 . S
O28 In26 2.326 . S
O28 C36 1.252 . S
C29 O32 1.252 . S
C29 O33 1.260 . S
C30 O37 1.240 . S
C30 O38 1.252 . S
C31 O34 1.252 . S
C31 O35 1.260 . S
O32 In26 2.266 . S
O32 C29 1.252 . S
O33 In26 2.326 . S
O33 C29 1.260 . S
O34 In26 2.266 . S
O34 C31 1.252 . S
O35 In26 2.326 . S
O35 C31 1.260 . S
C36 O27 1.240 . S
C36 O28 1.252 . S
O37 In26 2.294 . S
O37 C30 1.240 . S
O38 In26 2.326 . S
O38 C30 1.252 . S
In39 O40 2.294 . S
In39 O41 2.326 . S
In39 O45 2.266 1_554 S
In39 O46 2.326 1_554 S
In39 O47 2.266 . S
In39 O48 2.326 . S
In39 O50 2.294 . S
In39 O51 2.326 . S
O40 In39 2.294 . S
O40 C49 1.240 . S
O41 In39 2.326 . S
O41 C49 1.252 . S
C42 O45 1.252 . S
C42 O46 1.260 . S
C43 O50 1.240 . S
C43 O51 1.252 . S
C44 O47 1.252 . S
C44 O48 1.260 . S
O45 In39 2.266 1_556 S
O45 C42 1.252 . S
O46 In39 2.326 1_556 S
O46 C42 1.260 . S
O47 In39 2.266 . S
O47 C44 1.252 . S
O48 In39 2.326 . S
O48 C44 1.260 . S
C49 O40 1.240 . S
C49 O41 1.252 . S
O50 In39 2.294 . S
O50 C43 1.240 . S
O51 In39 2.326 . S
O51 C43 1.252 . S
In52 O53 2.294 . S
In52 O54 2.326 . S
In52 O58 2.266 . S
In52 O59 2.326 . S
In52 O60 2.266 . S
In52 O61 2.326 . S
In52 O63 2.294 . S
In52 O64 2.326 . S
O53 In52 2.294 . S
O53 C62 1.240 . S
O54 In52 2.326 . S
O54 C62 1.252 . S
C55 O58 1.252 . S
C55 O59 1.260 . S
C56 O63 1.240 . S
C56 O64 1.252 . S
C57 O60 1.252 . S
C57 O61 1.260 . S
O58 In52 2.266 . S
O58 C55 1.252 . S
O59 In52 2.326 . S
O59 C55 1.260 . S
O60 In52 2.266 . S
O60 C57 1.252 . S
O61 In52 2.326 . S
O61 C57 1.260 . S
C62 O53 1.240 . S
C62 O54 1.252 . S
O63 In52 2.294 . S
O63 C56 1.240 . S
O64 In52 2.326 . S
O64 C56 1.252 . S
In65 O66 2.294 . S
In65 O67 2.326 . S
In65 O71 2.266 . S
In65 O72 2.326 . S
In65 O73 2.266 . S
In65 O74 2.326 . S
In65 O76 2.294 . S
In65 O77 2.326 . S
O66 In65 2.294 . S
O66 C75 1.240 . S
O67 In65 2.326 . S
O67 C75 1.252 . S
C68 O71 1.252 . S
C68 O72 1.260 . S
C69 O76 1.240 . S
C69 O77 1.252 . S
C70 O73 1.252 . S
C70 O74 1.260 . S
O71 In65 2.266 . S
O71 C68 1.252 . S
O72 In65 2.326 . S
O72 C68 1.260 . S
O73 In65 2.266 . S
O73 C70 1.252 . S
O74 In65 2.326 . S
O74 C70 1.260 . S
C75 O66 1.240 . S
C75 O67 1.252 . S
O76 In65 2.294 . S
O76 C69 1.240 . S
O77 In65 2.326 . S
O77 C69 1.252 . S
In78 O79 2.294 . S
In78 O80 2.326 . S
In78 O84 2.266 . S
In78 O85 2.326 . S
In78 O86 2.266 . S
In78 O87 2.326 . S
In78 O89 2.294 . S
In78 O90 2.326 . S
O79 In78 2.294 . S
O79 C88 1.240 . S
O80 In78 2.326 . S
O80 C88 1.252 . S
C81 O84 1.252 . S
C81 O85 1.260 . S
C82 O89 1.240 . S
C82 O90 1.252 . S
C83 O86 1.252 . S
C83 O87 1.260 . S
O84 In78 2.266 . S
O84 C81 1.252 . S
O85 In78 2.326 . S
O85 C81 1.260 . S
O86 In78 2.266 . S
O86 C83 1.252 . S
O87 In78 2.326 . S
O87 C83 1.260 . S
C88 O79 1.240 . S
C88 O80 1.252 . S
O89 In78 2.294 . S
O89 C82 1.240 . S
O90 In78 2.326 . S
O90 C82 1.252 . S
In91 O92 2.294 . S
In91 O93 2.326 . S
In91 O97 2.266 1_556 S
In91 O98 2.326 1_556 S
In91 O99 2.266 . S
In91 O100 2.326 . S
In91 O102 2.294 . S
In91 O103 2.326 . S
O92 In91 2.294 . S
O92 C101 1.240 . S
O93 In91 2.326 . S
O93 C101 1.252 . S
C94 O97 1.252 . S
C94 O98 1.260 . S
C95 O102 1.240 . S
C95 O103 1.252 . S
C96 O99 1.252 . S
C96 O100 1.260 . S
O97 In91 2.266 1_554 S
O97 C94 1.252 . S
O98 In91 2.326 1_554 S
O98 C94 1.260 . S
O99 In91 2.266 . S
O99 C96 1.252 . S
O100 In91 2.326 . S
O100 C96 1.260 . S
C101 O92 1.240 . S
C101 O93 1.252 . S
O102 In91 2.294 . S
O102 C95 1.240 . S
O103 In91 2.326 . S
O103 C95 1.252 . S
In104 O105 2.294 . S
In104 O106 2.326 . S
In104 O110 2.266 . S
In104 O111 2.326 . S
In104 O112 2.266 . S
In104 O113 2.326 . S
In104 O115 2.294 . S
In104 O116 2.326 . S
O105 In104 2.294 . S
O105 C114 1.240 . S
O106 In104 2.326 . S
O106 C114 1.252 . S
C107 O110 1.252 . S
C107 O111 1.260 . S
C108 O115 1.240 . S
C108 O116 1.252 . S
C109 O112 1.252 . S
C109 O113 1.260 . S
O110 In104 2.266 . S
O110 C107 1.252 . S
O111 In104 2.326 . S
O111 C107 1.260 . S
O112 In104 2.266 . S
O112 C109 1.252 . S
O113 In104 2.326 . S
O113 C109 1.260 . S
C114 O105 1.240 . S
C114 O106 1.252 . S
O115 In104 2.294 . S
O115 C108 1.240 . S
O116 In104 2.326 . S
O116 C108 1.252 . S
In117 O118 2.294 . S
In117 O119 2.326 . S
In117 O123 2.266 . S
In117 O124 2.326 . S
In117 O125 2.266 . S
In117 O126 2.326 . S
In117 O128 2.294 . S
In117 O129 2.326 . S
O118 In117 2.294 . S
O118 C127 1.240 . S
O119 In117 2.326 . S
O119 C127 1.252 . S
C120 O123 1.252 . S
C120 O124 1.260 . S
C121 O128 1.240 . S
C121 O129 1.252 . S
C122 O125 1.252 . S
C122 O126 1.260 . S
O123 In117 2.266 . S
O123 C120 1.252 . S
O124 In117 2.326 . S
O124 C120 1.260 . S
O125 In117 2.266 . S
O125 C122 1.252 . S
O126 In117 2.326 . S
O126 C122 1.260 . S
C127 O118 1.240 . S
C127 O119 1.252 . S
O128 In117 2.294 . S
O128 C121 1.240 . S
O129 In117 2.326 . S
O129 C121 1.252 . S
In130 O131 2.294 . S
In130 O132 2.326 . S
In130 O136 2.266 . S
In130 O137 2.326 . S
In130 O138 2.266 1_556 S
In130 O139 2.326 1_556 S
In130 O141 2.294 . S
In130 O142 2.326 . S
O131 In130 2.294 . S
O131 C140 1.240 . S
O132 In130 2.326 . S
O132 C140 1.252 . S
C133 O136 1.252 . S
C133 O137 1.260 . S
C134 O141 1.240 . S
C134 O142 1.252 . S
C135 O138 1.252 . S
C135 O139 1.260 . S
O136 In130 2.266 . S
O136 C133 1.252 . S
O137 In130 2.326 . S
O137 C133 1.260 . S
O138 In130 2.266 1_554 S
O138 C135 1.252 . S
O139 In130 2.326 1_554 S
O139 C135 1.260 . S
C140 O131 1.240 . S
C140 O132 1.252 . S
O141 In130 2.294 . S
O141 C134 1.240 . S
O142 In130 2.326 . S
O142 C134 1.252 . S
In143 O144 2.294 . S
In143 O145 2.326 . S
In143 O149 2.266 . S
In143 O150 2.326 . S
In143 O151 2.266 . S
In143 O152 2.326 . S
In143 O154 2.294 . S
In143 O155 2.326 . S
O144 In143 2.294 . S
O144 C153 1.240 . S
O145 In143 2.326 . S
O145 C153 1.252 . S
C146 O149 1.252 . S
C146 O150 1.260 . S
C147 O154 1.240 . S
C147 O155 1.252 . S
C148 O151 1.252 . S
C148 O152 1.260 . S
O149 In143 2.266 . S
O149 C146 1.252 . S
O150 In143 2.326 . S
O150 C146 1.260 . S
O151 In143 2.266 . S
O151 C148 1.252 . S
O152 In143 2.326 . S
O152 C148 1.260 . S
C153 O144 1.240 . S
C153 O145 1.252 . S
O154 In143 2.294 . S
O154 C147 1.240 . S
O155 In143 2.326 . S
O155 C147 1.252 . S
C10 C88 1.657 . S
C23 C101 1.657 . S
C36 C114 1.656 1_556 S
C49 C127 1.657 . S
C62 C134 1.657 . S
C147 C75 1.656 1_554 S
C5 C133 1.518 1_554 S
C18 C146 1.519 . S
C31 C83 1.519 . S
C44 C96 1.518 1_554 S
C57 C109 1.519 . S
C70 C122 1.519 . S
C4 C43 1.884 . S
C17 C56 1.895 1_655 S
C69 C30 1.893 1_545 S
C82 C121 1.898 . S
C140 C95 1.887 1_455 S
C108 C153 1.887 1_565 S
C81 C3 1.594 . S
C16 C94 1.594 . S
C29 C107 1.593 . S
C120 C42 1.594 . S
C135 C55 1.594 . S
C68 C148 1.593 . S
