# Generated by pormake.
# Topology hex, (8)-cn, num edge types: 1
# Building blocks:
#     Node 0, Type 0, BuildingBlock: AJUNOK_clean_sbu_0, # of connection points: 8
#     Edge 1, Type (0, 0), BuildingBlock: TEMPAE_clean_linker_10, # of connection points: 2
#     Edge 2, Type (0, 0), BuildingBlock: TEMPAE_clean_linker_10, # of connection points: 2
#     Edge 3, Type (0, 0), BuildingBlock: TEMPAE_clean_linker_10, # of connection points: 2
#     Edge 4, Type (0, 0), BuildingBlock: TEMPAE_clean_linker_10, # of connection points: 2
# Relax obj value: 0.045
# Max RMSD: 0.091
# Mean RMSD: 0.091
data_MOF--net-hex--node1-AJUNOK_clean_sbu_0--edge1-TEMPAE_clean_linker_10
_symmetry_space_group_name_H-M    P1
_symmetry_Int_Tables_number       1
_symmetry_cell_setting            triclinic
loop_
_symmetry_equiv_pos_as_xyz
'x, y, z'
_cell_length_a     21.381839
_cell_length_b     21.297402
_cell_length_c     15.403794
_cell_angle_alpha  90.987529
_cell_angle_beta   90.550048
_cell_angle_gamma 127.11927
loop_
_atom_site_label
_atom_site_type_symbol
_atom_site_fract_x
_atom_site_fract_y
_atom_site_fract_z
_atom_type_partial_charge
Cd0 Cd 0.10323 0.0733 0.98524 0.0
Cd1 Cd 0.87953 0.85033 -0.00829 0.0
C2 C 0.00385 0.12835 0.05596 0.0
N3 N 0.01329 0.10028 0.98129 0.0
C4 C 0.95871 0.15051 0.89721 0.0
C5 C 0.95099 0.18292 0.97293 0.0
C6 C 0.97215 0.16954 0.05333 0.0
C7 C -0.00878 0.11015 0.90278 0.0
H8 H 0.02574 0.12327 0.11696 0.0
H9 H 0.00293 0.09068 0.84409 0.0
C10 C -0.00531 0.93748 0.81065 0.0
C11 C 0.88542 0.71421 0.90749 0.0
C12 C 0.88783 0.65007 0.90381 0.0
C13 C 0.90596 0.62737 0.9794 0.0
C14 C 0.92288 0.67139 0.05678 0.0
C15 C 0.91962 0.73496 0.05752 0.0
N16 N 0.90101 0.75497 0.98365 0.0
H17 H 0.86888 0.73006 0.85008 0.0
H18 H 0.92925 0.76655 0.11776 0.0
C19 C 0.82244 0.94876 0.9252 0.0
N20 N 0.85076 0.93934 -0.00082 0.0
C21 C 0.80083 -0.00602 0.08497 0.0
C22 C 0.76808 0.00162 0.00996 0.0
C23 C 0.78111 -0.01976 0.92905 0.0
C24 C 0.84105 0.96136 0.07821 0.0
H25 H 0.8276 0.92709 0.86373 0.0
H26 H 0.86091 0.94985 0.13638 0.0
C27 C 0.01537 0.9595 0.16628 0.0
C28 C 0.21462 0.2355 0.96968 0.0
N29 N 0.19702 0.05038 -0.00302 0.0
C30 C 0.24084 0.07326 0.07169 0.0
C31 C 0.30434 0.07034 0.07721 0.0
C32 C 0.32348 0.04439 0.00479 0.0
C33 C 0.27613 0.01982 0.92902 0.0
C34 C 0.21306 0.02347 0.9265 0.0
C35 C 0.71778 0.73748 0.00283 0.0
O36 O 0.05159 -0.00153 0.85088 0.0
O37 O 0.93262 0.88471 0.84856 0.0
O38 O 0.95433 0.90278 0.12605 0.0
O39 O 0.0688 0.02145 0.12863 0.0
O40 O 0.19705 0.18891 0.90564 0.0
O41 O 0.18365 0.20571 0.04174 0.0
O42 O 0.76269 0.75439 0.06792 0.0
O43 O 0.74903 0.77007 0.93184 0.0
H44 H 0.22782 0.09591 0.12629 0.0
H45 H 0.17861 0.00736 0.86723 0.0
H46 H 0.94285 0.15904 0.83393 0.0
H47 H 0.96902 0.19488 0.11314 0.0
H48 H 0.87499 0.61818 0.84262 0.0
H49 H 0.93582 0.65525 0.11689 0.0
H50 H 0.79293 0.01021 0.14865 0.0
H51 H 0.75558 -0.01687 0.86965 0.0
H52 H 0.33853 0.08899 0.13729 0.0
H53 H 0.28925 0.00057 0.87114 0.0
C54 C 0.88387 0.23882 0.03115 0.0
C55 C 0.92992 0.23782 0.96765 0.0
C56 C 0.8721 0.29699 0.03259 0.0
C57 C 0.90773 0.35594 0.96934 0.0
C58 C 0.95118 0.35303 0.90281 0.0
C59 C 0.96187 0.29424 0.90287 0.0
C60 C 0.82526 0.29742 0.10491 0.0
C61 C -0.01046 0.41429 0.83368 0.0
C62 C 0.84563 0.48757 0.93307 0.0
C63 C 0.90534 0.5571 0.9782 0.0
C64 C 0.84451 0.42092 0.93132 0.0
C65 C 0.90461 0.42388 0.97548 0.0
C66 C 0.96424 0.49336 0.02238 0.0
C67 C 0.96393 0.5591 0.0231 0.0
C68 C 0.77895 0.3472 0.88259 0.0
C69 C 0.02902 0.49861 0.07089 0.0
H70 H 0.85817 0.19494 0.08088 0.0
H71 H -0.00144 0.2949 0.85428 0.0
H72 H 0.86605 0.33718 0.15855 0.0
H73 H 0.79224 0.3194 0.08315 0.0
H74 H 0.78333 0.23765 0.13118 0.0
H75 H 0.01665 0.40058 0.78307 0.0
H76 H 0.9458 0.41899 0.80184 0.0
H77 H 0.03581 0.47276 0.86397 0.0
H78 H 0.79917 0.48496 0.8998 0.0
H79 H 0.01049 0.61268 0.05768 0.0
H80 H 0.74741 0.2976 0.92777 0.0
H81 H 0.80334 0.33105 0.83122 0.0
H82 H 0.73617 0.35404 0.85208 0.0
H83 H 0.00352 0.45071 0.11821 0.0
H84 H 0.06966 0.55602 0.10639 0.0
H85 H 0.06337 0.49058 0.02475 0.0
C86 C 0.7106 0.06705 0.95173 0.0
C87 C 0.71361 0.02318 0.01638 0.0
C88 C 0.65221 0.07823 0.95098 0.0
C89 C 0.59549 0.04493 0.01664 0.0
C90 C 0.60097 0.00461 0.08477 0.0
C91 C 0.65951 -0.00618 0.08355 0.0
C92 C 0.64882 0.12153 0.87679 0.0
C93 C 0.54263 -0.03047 0.15696 0.0
C94 C 0.46385 0.10762 0.04856 0.0
C95 C 0.39358 0.04502 0.0073 0.0
C96 C 0.53039 0.10903 0.05118 0.0
C97 C 0.52691 0.04665 0.01113 0.0
C98 C 0.45664 -0.01607 0.96829 0.0
C99 C 0.39082 -0.01632 0.96723 0.0
C100 C 0.60463 0.17752 0.09611 0.0
C101 C 0.45076 0.91664 0.9241 0.0
H102 H 0.75292 0.09125 0.90037 0.0
H103 H 0.66032 0.95896 0.13329 0.0
H104 H 0.60581 0.07791 0.82684 0.0
H105 H 0.62927 0.15695 0.89839 0.0
H106 H 0.7067 0.16101 0.84586 0.0
H107 H 0.55905 0.94617 0.20907 0.0
H108 H 0.53784 0.01444 0.18613 0.0
H109 H 0.48374 0.9207 0.13024 0.0
H110 H 0.46723 0.1562 0.078 0.0
H111 H 0.33672 0.93472 0.93591 0.0
H112 H 0.65194 0.20891 0.04825 0.0
H113 H 0.62419 0.15598 0.14676 0.0
H114 H 0.59712 0.22009 0.12681 0.0
H115 H 0.49728 0.93975 0.87535 0.0
H116 H 0.39284 0.87377 0.89102 0.0
H117 H 0.46024 0.88501 0.97255 0.0
C118 C 0.33155 0.35079 0.90269 0.0
C119 C 0.27174 0.32047 0.9625 0.0
C120 C 0.39545 0.43038 0.90701 0.0
C121 C 0.3976 0.48002 0.97137 0.0
C122 C 0.33226 0.45152 0.02396 0.0
C123 C 0.27019 0.37109 0.02007 0.0
C124 C 0.46418 0.45906 0.84927 0.0
C125 C 0.33081 0.50416 0.08937 0.0
C126 C 0.60209 0.61623 0.06269 0.0
C127 C 0.6331 0.6795 0.00769 0.0
C128 C 0.5227 0.55265 0.05644 0.0
C129 C 0.47379 0.55446 -0.00456 0.0
C130 C 0.50328 0.62254 0.9473 0.0
C131 C 0.58359 0.68414 0.9527 0.0
C132 C 0.49322 0.48066 0.10887 0.0
C133 C 0.45185 0.62824 0.88544 0.0
H134 H 0.33158 0.31131 0.8573 0.0
H135 H 0.22212 0.34739 0.0644 0.0
H136 H 0.48261 0.51378 0.81714 0.0
H137 H 0.5148 0.47296 0.88925 0.0
H138 H 0.4503 0.41451 0.79831 0.0
H139 H 0.26971 0.48001 0.10574 0.0
H140 H 0.36182 0.50869 0.15005 0.0
H141 H 0.36097 0.56448 0.06474 0.0
H142 H 0.64088 0.61368 0.10579 0.0
H143 H 0.60798 0.73469 0.91196 0.0
H144 H 0.47672 0.43087 0.06462 0.0
H145 H 0.44011 0.46249 0.14441 0.0
H146 H 0.53799 0.49095 0.15669 0.0
H147 H 0.45084 0.60406 0.82065 0.0
H148 H 0.47503 0.69056 0.87758 0.0
H149 H 0.39062 0.59422 0.90794 0.0
C150 C 0.93241 0.89937 0.66367 0.0
C151 C -0.0008 0.93091 0.71657 0.0
C152 C 0.93773 0.9012 0.5732 0.0
C153 C 0.01112 0.93307 0.53559 0.0
C154 C 0.07779 0.96091 0.58888 0.0
C155 C 0.0713 0.96078 0.67914 0.0
C156 C 0.86583 0.8727 0.51812 0.0
C157 C 0.15628 -0.00717 0.55067 0.0
C158 C 0.00106 0.88545 0.29633 0.0
C159 C 0.02136 0.9551 0.26013 0.0
C160 C 0.00103 0.8786 0.38648 0.0
C161 C 0.01894 0.94201 0.44072 0.0
C162 C 0.04067 0.01299 0.40417 0.0
C163 C 0.04289 0.01913 0.31385 0.0
C164 C 0.98034 0.80318 0.42357 0.0
C165 C 0.05825 0.08109 0.46022 0.0
H166 H 0.87685 0.87686 0.69305 0.0
H167 H 0.12272 -0.01548 0.72045 0.0
H168 H 0.87635 0.9224 0.48111 0.0
H169 H 0.85382 0.82703 0.4701 0.0
H170 H 0.81285 0.84773 0.55765 0.0
H171 H 0.19974 0.00369 0.60082 0.0
H172 H 0.14955 0.95108 0.50035 0.0
H173 H 0.18004 0.0491 0.51853 0.0
H174 H -0.01471 0.83644 0.25414 0.0
H175 H 0.05792 0.07265 0.28508 0.0
H176 H 0.92357 0.7722 0.45694 0.0
H177 H 0.02539 0.81642 0.47273 0.0
H178 H 0.97543 0.76275 0.37263 0.0
H179 H 0.00594 0.06195 0.49831 0.0
H180 H 0.07482 0.1323 0.42132 0.0
H181 H 0.10675 0.10053 0.50728 0.0
loop_
_geom_bond_atom_site_label_1
_geom_bond_atom_site_label_2
_geom_bond_distance
_geom_bond_site_symmetry_2
_ccdc_geom_bond_type
Cd0 N3 2.334 . S
Cd0 N29 2.304 . S
Cd0 O36 2.268 1_554 S
Cd0 O39 2.273 . S
Cd0 O40 2.417 1_554 S
Cd0 O41 2.330 . S
Cd1 N16 2.304 . S
Cd1 N20 2.334 . S
Cd1 O37 2.273 . S
Cd1 O38 2.268 1_556 S
Cd1 O42 2.417 1_556 S
Cd1 O43 2.330 . S
C2 N3 1.332 . S
C2 C6 1.381 . S
C2 H8 0.931 . S
N3 Cd0 2.334 . S
N3 C2 1.332 . S
N3 C7 1.328 1_554 S
C4 C5 1.396 1_556 S
C4 C7 1.378 1_655 S
C4 H46 0.931 . S
C5 C4 1.396 1_554 S
C5 C6 1.382 1_655 S
C6 C2 1.381 . S
C6 C5 1.382 1_455 S
C6 H47 0.930 . S
C7 N3 1.328 1_556 S
C7 C4 1.378 1_455 S
C7 H9 0.930 . S
H8 C2 0.931 . S
H9 C7 0.930 . S
C10 O36 1.238 1_665 S
C10 O37 1.253 . S
C11 C12 1.379 . S
C11 N16 1.337 . S
C11 H17 0.929 . S
C12 C11 1.379 . S
C12 C13 1.380 1_655 S
C12 H48 0.929 . S
C13 C12 1.380 1_455 S
C13 C14 1.399 1_556 S
C14 C13 1.399 1_554 S
C14 C15 1.376 1_455 S
C14 H49 0.931 . S
C15 C14 1.376 1_655 S
C15 N16 1.338 1_554 S
C15 H18 0.930 . S
N16 Cd1 2.304 . S
N16 C11 1.337 . S
N16 C15 1.338 1_556 S
H17 C11 0.929 . S
H18 C15 0.930 . S
C19 N20 1.332 . S
C19 C23 1.381 . S
C19 H25 0.931 . S
N20 Cd1 2.334 . S
N20 C19 1.332 . S
N20 C24 1.328 1_556 S
C21 C22 1.396 1_554 S
C21 C24 1.378 1_545 S
C21 H50 0.931 . S
C22 C21 1.396 1_556 S
C22 C23 1.382 1_545 S
C23 C19 1.381 . S
C23 C22 1.382 1_565 S
C23 H51 0.930 . S
C24 N20 1.328 1_554 S
C24 C21 1.378 1_565 S
C24 H26 0.930 . S
H25 C19 0.931 . S
H26 C24 0.930 . S
C27 O38 1.238 1_445 S
C27 O39 1.253 . S
C28 O40 1.239 . S
C28 O41 1.230 1_556 S
N29 Cd0 2.304 . S
N29 C30 1.337 . S
N29 C34 1.338 1_554 S
C30 N29 1.337 . S
C30 C31 1.379 . S
C30 H44 0.929 . S
C31 C30 1.379 . S
C31 C32 1.380 1_545 S
C31 H52 0.929 . S
C32 C31 1.380 1_565 S
C32 C33 1.399 1_554 S
C33 C32 1.399 1_556 S
C33 C34 1.376 1_565 S
C33 H53 0.931 . S
C34 N29 1.338 1_556 S
C34 C33 1.376 1_545 S
C34 H45 0.930 . S
C35 O42 1.239 . S
C35 O43 1.230 1_554 S
O36 Cd0 2.268 1_556 S
O36 C10 1.238 1_445 S
O37 Cd1 2.273 . S
O37 C10 1.253 . S
O38 Cd1 2.268 1_554 S
O38 C27 1.238 1_665 S
O39 Cd0 2.273 . S
O39 C27 1.253 . S
O40 Cd0 2.417 1_556 S
O40 C28 1.239 . S
O41 Cd0 2.330 . S
O41 C28 1.230 1_554 S
O42 Cd1 2.417 1_554 S
O42 C35 1.239 . S
O43 Cd1 2.330 . S
O43 C35 1.230 1_556 S
H44 C30 0.929 . S
H45 C34 0.930 . S
H46 C4 0.931 . S
H47 C6 0.930 . S
H48 C12 0.929 . S
H49 C14 0.931 . S
H50 C21 0.931 . S
H51 C23 0.930 . S
H52 C31 0.929 . S
H53 C33 0.931 . S
C54 C55 1.391 . S
C54 C56 1.394 . S
C54 H70 0.931 . S
C55 C54 1.391 . S
C55 C59 1.376 1_654 S
C56 C54 1.394 . S
C56 C57 1.369 1_655 S
C56 C60 1.531 . S
C57 C56 1.369 1_455 S
C57 C58 1.410 1_554 S
C57 C65 1.503 . S
C58 C57 1.410 1_556 S
C58 C59 1.392 . S
C58 C61 1.511 . S
C59 C55 1.376 1_456 S
C59 C58 1.392 . S
C59 H71 0.929 . S
C60 C56 1.531 . S
C60 H72 0.960 . S
C60 H73 0.962 . S
C60 H74 0.960 . S
C61 C58 1.511 . S
C61 H75 0.961 . S
C61 H76 0.961 . S
C61 H77 0.961 . S
C62 C63 1.370 1_655 S
C62 C64 1.363 . S
C62 H78 0.931 . S
C63 C62 1.370 1_455 S
C63 C67 1.408 1_556 S
C64 C62 1.363 . S
C64 C65 1.370 1_656 S
C64 C68 1.524 . S
C65 C57 1.503 . S
C65 C64 1.370 1_454 S
C65 C66 1.403 . S
C66 C65 1.403 . S
C66 C67 1.404 . S
C66 C69 1.539 . S
C67 C63 1.408 1_554 S
C67 C66 1.404 . S
C67 H79 0.930 . S
C68 C64 1.524 . S
C68 H80 0.956 . S
C68 H81 0.961 . S
C68 H82 0.961 . S
C69 C66 1.539 . S
C69 H83 0.958 . S
C69 H84 0.961 . S
C69 H85 0.960 . S
H70 C54 0.931 . S
H71 C59 0.929 . S
H72 C60 0.960 . S
H73 C60 0.962 . S
H74 C60 0.960 . S
H75 C61 0.961 . S
H76 C61 0.961 . S
H77 C61 0.961 . S
H78 C62 0.931 . S
H79 C67 0.930 . S
H80 C68 0.956 . S
H81 C68 0.961 . S
H82 C68 0.961 . S
H83 C69 0.958 . S
H84 C69 0.961 . S
H85 C69 0.960 . S
C86 C87 1.391 . S
C86 C88 1.394 . S
C86 H102 0.931 . S
C87 C86 1.391 . S
C87 C91 1.376 1_546 S
C88 C86 1.394 . S
C88 C89 1.369 1_545 S
C88 C92 1.531 . S
C89 C88 1.369 1_565 S
C89 C90 1.410 1_556 S
C89 C97 1.503 . S
C90 C89 1.410 1_554 S
C90 C91 1.392 . S
C90 C93 1.511 . S
C91 C87 1.376 1_564 S
C91 C90 1.392 . S
C91 H103 0.929 . S
C92 C88 1.531 . S
C92 H104 0.960 1_545 S
C92 H105 0.962 . S
C92 H106 0.960 . S
C93 C90 1.511 . S
C93 H107 0.961 . S
C93 H108 0.961 . S
C93 H109 0.961 . S
C94 C95 1.370 1_545 S
C94 C96 1.363 . S
C94 H110 0.931 . S
C95 C94 1.370 1_565 S
C95 C99 1.408 1_554 S
C96 C94 1.363 . S
C96 C97 1.370 1_544 S
C96 C100 1.524 . S
C97 C89 1.503 . S
C97 C96 1.370 1_566 S
C97 C98 1.403 . S
C98 C97 1.403 . S
C98 C99 1.404 . S
C98 C101 1.539 . S
C99 C95 1.408 1_556 S
C99 C98 1.404 . S
C99 H111 0.930 . S
C100 C96 1.524 . S
C100 H112 0.956 1_554 S
C100 H113 0.961 . S
C100 H114 0.961 . S
C101 C98 1.539 . S
C101 H115 0.958 . S
C101 H116 0.961 . S
C101 H117 0.960 . S
H102 C86 0.931 . S
H103 C91 0.929 . S
H104 C92 0.960 1_565 S
H105 C92 0.962 . S
H106 C92 0.960 . S
H107 C93 0.961 . S
H108 C93 0.961 . S
H109 C93 0.961 . S
H110 C94 0.931 . S
H111 C99 0.930 . S
H112 C100 0.956 1_556 S
H113 C100 0.961 . S
H114 C100 0.961 . S
H115 C101 0.958 . S
H116 C101 0.961 . S
H117 C101 0.960 . S
C118 C119 1.391 . S
C118 C120 1.394 . S
C118 H134 0.931 . S
C119 C118 1.391 . S
C119 C123 1.376 1_556 S
C120 C118 1.394 . S
C120 C121 1.369 . S
C120 C124 1.531 . S
C121 C120 1.369 . S
C121 C122 1.410 1_556 S
C121 C129 1.503 . S
C122 C121 1.410 1_554 S
C122 C123 1.392 . S
C122 C125 1.511 . S
C123 C119 1.376 1_554 S
C123 C122 1.392 . S
C123 H135 0.929 . S
C124 C120 1.531 . S
C124 H136 0.960 . S
C124 H137 0.962 . S
C124 H138 0.960 . S
C125 C122 1.511 . S
C125 H139 0.961 . S
C125 H140 0.961 . S
C125 H141 0.961 . S
C126 C127 1.370 . S
C126 C128 1.363 . S
C126 H142 0.931 . S
C127 C126 1.370 . S
C127 C131 1.408 1_554 S
C128 C126 1.363 . S
C128 C129 1.370 1_554 S
C128 C132 1.524 . S
C129 C121 1.503 . S
C129 C128 1.370 1_556 S
C129 C130 1.403 . S
C130 C129 1.403 . S
C130 C131 1.404 . S
C130 C133 1.539 . S
C131 C127 1.408 1_556 S
C131 C130 1.404 . S
C131 H143 0.930 . S
C132 C128 1.524 . S
C132 H144 0.956 1_554 S
C132 H145 0.961 . S
C132 H146 0.961 . S
C133 C130 1.539 . S
C133 H147 0.958 . S
C133 H148 0.961 . S
C133 H149 0.960 . S
H134 C118 0.931 . S
H135 C123 0.929 . S
H136 C124 0.960 . S
H137 C124 0.962 . S
H138 C124 0.960 . S
H139 C125 0.961 . S
H140 C125 0.961 . S
H141 C125 0.961 . S
H142 C126 0.931 . S
H143 C131 0.930 . S
H144 C132 0.956 1_556 S
H145 C132 0.961 . S
H146 C132 0.961 . S
H147 C133 0.958 . S
H148 C133 0.961 . S
H149 C133 0.960 . S
C150 C151 1.391 1_665 S
C150 C152 1.394 . S
C150 H166 0.931 . S
C151 C150 1.391 1_445 S
C151 C155 1.376 . S
C152 C150 1.394 . S
C152 C153 1.369 1_665 S
C152 C156 1.531 . S
C153 C152 1.369 1_445 S
C153 C154 1.410 . S
C153 C161 1.503 . S
C154 C153 1.410 . S
C154 C155 1.392 . S
C154 C157 1.511 . S
C155 C151 1.376 . S
C155 C154 1.392 . S
C155 H167 0.929 . S
C156 C152 1.531 . S
C156 H168 0.960 . S
C156 H169 0.962 . S
C156 H170 0.960 . S
C157 C154 1.511 . S
C157 H171 0.961 . S
C157 H172 0.961 . S
C157 H173 0.961 . S
C158 C159 1.370 1_665 S
C158 C160 1.363 . S
C158 H174 0.931 . S
C159 C158 1.370 1_445 S
C159 C163 1.408 . S
C160 C158 1.363 . S
C160 C161 1.370 1_665 S
C160 C164 1.524 . S
C161 C153 1.503 . S
C161 C160 1.370 1_445 S
C161 C162 1.403 . S
C162 C161 1.403 . S
C162 C163 1.404 . S
C162 C165 1.539 . S
C163 C159 1.408 . S
C163 C162 1.404 . S
C163 H175 0.930 . S
C164 C160 1.524 . S
C164 H176 0.956 . S
C164 H177 0.961 . S
C164 H178 0.961 . S
C165 C162 1.539 . S
C165 H179 0.958 . S
C165 H180 0.961 . S
C165 H181 0.960 . S
H166 C150 0.931 . S
H167 C155 0.929 . S
H168 C156 0.960 . S
H169 C156 0.962 . S
H170 C156 0.960 . S
H171 C157 0.961 . S
H172 C157 0.961 . S
H173 C157 0.961 . S
H174 C158 0.931 . S
H175 C163 0.930 . S
H176 C164 0.956 . S
H177 C164 0.961 . S
H178 C164 0.961 . S
H179 C165 0.958 . S
H180 C165 0.961 . S
H181 C165 0.960 . S
C55 C5 1.870 . S
C63 C13 1.893 . S
C87 C22 1.859 . S
C95 C32 1.897 . S
C119 C28 0.507 . S
C127 C35 0.495 . S
C151 C10 1.490 1_445 S
C159 C27 1.473 . S
