# Generated by pormake.
# Topology uon, (4)-cn, num edge types: 1
# Building blocks:
#     Node 0, Type 0, BuildingBlock: GALJAG_clean_sbu_0, # of connection points: 4
#     Node 1, Type 0, BuildingBlock: GALJAG_clean_sbu_0, # of connection points: 4
#     Node 2, Type 0, BuildingBlock: GALJAG_clean_sbu_0, # of connection points: 4
#     Node 3, Type 0, BuildingBlock: GALJAG_clean_sbu_0, # of connection points: 4
#     Node 4, Type 0, BuildingBlock: GALJAG_clean_sbu_0, # of connection points: 4
#     Node 5, Type 0, BuildingBlock: GALJAG_clean_sbu_0, # of connection points: 4
#     Edge 6, Type (0, 0), BuildingBlock: EYOCIG_clean_linker_4, # of connection points: 2
#     Edge 7, Type (0, 0), BuildingBlock: EYOCIG_clean_linker_4, # of connection points: 2
#     Edge 8, Type (0, 0), BuildingBlock: EYOCIG_clean_linker_4, # of connection points: 2
#     Edge 9, Type (0, 0), BuildingBlock: EYOCIG_clean_linker_4, # of connection points: 2
#     Edge 10, Type (0, 0), BuildingBlock: EYOCIG_clean_linker_4, # of connection points: 2
#     Edge 11, Type (0, 0), BuildingBlock: EYOCIG_clean_linker_4, # of connection points: 2
#     Edge 12, Type (0, 0), BuildingBlock: EYOCIG_clean_linker_4, # of connection points: 2
#     Edge 13, Type (0, 0), BuildingBlock: EYOCIG_clean_linker_4, # of connection points: 2
#     Edge 14, Type (0, 0), BuildingBlock: EYOCIG_clean_linker_4, # of connection points: 2
#     Edge 15, Type (0, 0), BuildingBlock: EYOCIG_clean_linker_4, # of connection points: 2
#     Edge 16, Type (0, 0), BuildingBlock: EYOCIG_clean_linker_4, # of connection points: 2
#     Edge 17, Type (0, 0), BuildingBlock: EYOCIG_clean_linker_4, # of connection points: 2
# Relax obj value: 0.155
# Max RMSD: 0.288
# Mean RMSD: 0.287
data_MOF--net-uon--node1-GALJAG_clean_sbu_0--edge1-EYOCIG_clean_linker_4
_symmetry_space_group_name_H-M    P1
_symmetry_Int_Tables_number       1
_symmetry_cell_setting            triclinic
loop_
_symmetry_equiv_pos_as_xyz
'x, y, z'
_cell_length_a     25.765506
_cell_length_b     25.788202
_cell_length_c     17.507363
_cell_angle_alpha  90.078432
_cell_angle_beta   90.044684
_cell_angle_gamma 119.96749
loop_
_atom_site_label
_atom_site_type_symbol
_atom_site_fract_x
_atom_site_fract_y
_atom_site_fract_z
_atom_type_partial_charge
In0 In 0.25761 0.41565 0.20033 0.0
O1 O 0.31166 0.36858 0.17369 0.0
O2 O 0.24844 0.36797 0.09233 0.0
C3 C 0.25422 0.47388 0.32217 0.0
C4 C 0.33582 0.51894 0.13712 0.0
C5 C 0.14192 0.34023 0.22096 0.0
O6 O 0.27588 0.43895 0.32827 0.0
O7 O 0.23675 0.47891 0.2567 0.0
O8 O 0.1608 0.38128 0.17105 0.0
O9 O 0.18151 0.33458 0.25724 0.0
C10 C 0.2889 0.35551 0.1068 0.0
O11 O 0.28146 0.49044 0.1156 0.0
O12 O 0.35084 0.49444 0.18853 0.0
In13 In 0.73826 0.15622 0.34773 0.0
O14 O 0.83567 0.2177 0.37517 0.0
O15 O 0.81299 0.15056 0.28775 0.0
C16 C 0.65924 0.18101 0.40963 0.0
C17 C 0.74097 0.21909 0.22822 0.0
C18 C 0.70777 0.06497 0.44096 0.0
O19 O 0.71334 0.20667 0.43228 0.0
O20 O 0.64478 0.14153 0.35817 0.0
O21 O 0.68549 0.05513 0.3738 0.0
O22 O 0.7473 0.11812 0.45607 0.0
C23 C 0.85342 0.19542 0.32377 0.0
O24 O 0.71808 0.16241 0.22113 0.0
O25 O 0.76062 0.24123 0.2934 0.0
In26 In 0.57881 0.84045 0.86675 0.0
O27 O 0.50295 0.78924 0.78313 0.0
O28 O 0.4996 0.85468 0.85662 0.0
C29 C 0.65514 0.8014 0.88857 0.0
C30 C 0.63925 0.93167 0.77344 0.0
C31 C 0.52053 0.77728 0.98698 0.0
O32 O 0.61466 0.77924 0.83767 0.0
O33 O 0.65978 0.84606 0.92525 0.0
O34 O 0.55464 0.8339 0.99425 0.0
O35 O 0.51641 0.75548 0.9212 0.0
C36 C 0.47438 0.81474 0.80567 0.0
O37 O 0.62704 0.94157 0.84067 0.0
O38 O 0.62527 0.87845 0.75817 0.0
In39 In 0.83758 0.58017 0.01426 0.0
O40 O 0.77626 0.61608 0.04263 0.0
O41 O 0.84338 0.66105 0.9557 0.0
C42 C 0.81066 0.47659 0.07846 0.0
C43 C 0.77559 0.52146 0.89295 0.0
C44 C 0.93006 0.64019 0.10655 0.0
O45 O 0.786 0.50621 0.09997 0.0
O46 O 0.85001 0.50017 0.02676 0.0
O47 O 0.93887 0.62635 0.03972 0.0
O48 O 0.87747 0.62847 0.12159 0.0
C49 C 0.79861 0.65649 0.99191 0.0
O50 O 0.83231 0.5555 0.8869 0.0
O51 O 0.75308 0.51769 0.95808 0.0
In52 In 0.15408 0.73628 0.53407 0.0
O53 O 0.05292 0.68305 0.50709 0.0
O54 O 0.11599 0.74499 0.42545 0.0
C55 C 0.21558 0.73973 0.65603 0.0
C56 C 0.17942 0.65748 0.47267 0.0
C57 C 0.19471 0.85209 0.55434 0.0
O58 O 0.15895 0.71805 0.66196 0.0
O59 O 0.23818 0.75746 0.59075 0.0
O60 O 0.21657 0.83283 0.50433 0.0
O61 O 0.14963 0.81282 0.59094 0.0
C62 C 0.06286 0.70529 0.44002 0.0
O63 O 0.20536 0.71162 0.45072 0.0
O64 O 0.13939 0.64283 0.52329 0.0
In65 In 0.41403 0.25603 0.68031 0.0
O66 O 0.37916 0.15909 0.70877 0.0
O67 O 0.33347 0.18036 0.62163 0.0
C68 C 0.51789 0.33479 0.74249 0.0
C69 C 0.47274 0.25251 0.55939 0.0
C70 C 0.35387 0.28782 0.77327 0.0
O71 O 0.48935 0.2808 0.76504 0.0
O72 O 0.49306 0.34921 0.69079 0.0
O73 O 0.36672 0.30997 0.7062 0.0
O74 O 0.36652 0.24759 0.78828 0.0
C75 C 0.33874 0.14056 0.65777 0.0
O76 O 0.43823 0.27467 0.55295 0.0
O77 O 0.47695 0.23436 0.62475 0.0
C78 C 0.32231 0.3296 0.97927 0.0
C79 C 0.31368 0.33943 0.04403 0.0
C80 C 0.32861 0.32254 0.90026 0.0
C81 C 0.33807 0.31321 0.83564 0.0
C82 C 0.96723 0.24842 0.28314 0.0
C83 C 0.91519 0.22399 0.30139 0.0
C84 C 0.02777 0.27906 0.25984 0.0
C85 C 0.07982 0.30713 0.24181 0.0
C86 C 0.67444 0.00517 0.56787 0.0
C87 C 0.68324 0.02378 0.50325 0.0
C88 C 0.66735 0.99187 0.64684 0.0
C89 C 0.65683 0.97317 0.71139 0.0
C90 C 0.74659 0.71835 0.95188 0.0
C91 C 0.77025 0.69005 0.97028 0.0
C92 C 0.71659 0.74883 0.92822 0.0
C93 C 0.6885 0.77279 0.91006 0.0
C94 C 0.99007 0.6657 0.23351 0.0
C95 C 0.97133 0.656 0.16886 0.0
C96 C 0.00334 0.67219 0.31256 0.0
C97 C 0.02181 0.6808 0.37734 0.0
C98 C 0.27841 0.02681 0.61668 0.0
C99 C 0.30606 0.07869 0.63563 0.0
C100 C 0.24821 0.96637 0.59282 0.0
C101 C 0.22399 0.91426 0.57499 0.0
C102 C 0.21513 0.58146 0.43355 0.0
C103 C 0.19983 0.61719 0.45026 0.0
C104 C 0.23393 0.54034 0.41358 0.0
C105 C 0.24753 0.50682 0.38337 0.0
C106 C 0.54071 0.23372 0.46883 0.0
C107 C 0.50661 0.24666 0.49878 0.0
C108 C 0.58253 0.21578 0.44903 0.0
C109 C 0.61872 0.20105 0.43241 0.0
C110 C 0.45352 0.6896 0.07642 0.0
C111 C 0.48714 0.73695 0.04712 0.0
C112 C 0.4121 0.62981 0.096 0.0
C113 C 0.37604 0.57915 0.11337 0.0
C114 C 0.77494 0.36555 0.12003 0.0
C115 C 0.7898 0.41632 0.10281 0.0
C116 C 0.75745 0.30594 0.13957 0.0
C117 C 0.74534 0.25896 0.16874 0.0
C118 C 0.30227 0.75932 0.74724 0.0
C119 C 0.25512 0.74596 0.71717 0.0
C120 C 0.36229 0.77822 0.76704 0.0
C121 C 0.41349 0.7939 0.78352 0.0
C122 C 0.62916 0.41157 0.78251 0.0
C123 C 0.57833 0.37528 0.76571 0.0
C124 C 0.6889 0.45345 0.80228 0.0
C125 C 0.73596 0.48751 0.83223 0.0
loop_
_geom_bond_atom_site_label_1
_geom_bond_atom_site_label_2
_geom_bond_distance
_geom_bond_site_symmetry_2
_ccdc_geom_bond_type
In0 O1 2.294 . S
In0 O2 2.326 . S
In0 O6 2.266 . S
In0 O7 2.326 . S
In0 O8 2.266 . S
In0 O9 2.326 . S
In0 O11 2.294 . S
In0 O12 2.326 . S
O1 In0 2.294 . S
O1 C10 1.240 . S
O2 In0 2.326 . S
O2 C10 1.252 . S
C3 O6 1.252 . S
C3 O7 1.260 . S
C4 O11 1.240 . S
C4 O12 1.252 . S
C5 O8 1.252 . S
C5 O9 1.260 . S
O6 In0 2.266 . S
O6 C3 1.252 . S
O7 In0 2.326 . S
O7 C3 1.260 . S
O8 In0 2.266 . S
O8 C5 1.252 . S
O9 In0 2.326 . S
O9 C5 1.260 . S
C10 O1 1.240 . S
C10 O2 1.252 . S
O11 In0 2.294 . S
O11 C4 1.240 . S
O12 In0 2.326 . S
O12 C4 1.252 . S
In13 O14 2.294 . S
In13 O15 2.326 . S
In13 O19 2.266 . S
In13 O20 2.326 . S
In13 O21 2.266 . S
In13 O22 2.326 . S
In13 O24 2.294 . S
In13 O25 2.326 . S
O14 In13 2.294 . S
O14 C23 1.240 . S
O15 In13 2.326 . S
O15 C23 1.252 . S
C16 O19 1.252 . S
C16 O20 1.260 . S
C17 O24 1.240 . S
C17 O25 1.252 . S
C18 O21 1.252 . S
C18 O22 1.260 . S
O19 In13 2.266 . S
O19 C16 1.252 . S
O20 In13 2.326 . S
O20 C16 1.260 . S
O21 In13 2.266 . S
O21 C18 1.252 . S
O22 In13 2.326 . S
O22 C18 1.260 . S
C23 O14 1.240 . S
C23 O15 1.252 . S
O24 In13 2.294 . S
O24 C17 1.240 . S
O25 In13 2.326 . S
O25 C17 1.252 . S
In26 O27 2.294 . S
In26 O28 2.326 . S
In26 O32 2.266 . S
In26 O33 2.326 . S
In26 O34 2.266 1_556 S
In26 O35 2.326 . S
In26 O37 2.294 . S
In26 O38 2.326 . S
O27 In26 2.294 . S
O27 C36 1.240 . S
O28 In26 2.326 . S
O28 C36 1.252 . S
C29 O32 1.252 . S
C29 O33 1.260 . S
C30 O37 1.240 . S
C30 O38 1.252 . S
C31 O34 1.252 . S
C31 O35 1.260 1_554 S
O32 In26 2.266 . S
O32 C29 1.252 . S
O33 In26 2.326 . S
O33 C29 1.260 . S
O34 In26 2.266 1_554 S
O34 C31 1.252 . S
O35 In26 2.326 . S
O35 C31 1.260 1_556 S
C36 O27 1.240 . S
C36 O28 1.252 . S
O37 In26 2.294 . S
O37 C30 1.240 . S
O38 In26 2.326 . S
O38 C30 1.252 . S
In39 O40 2.294 . S
In39 O41 2.326 1_554 S
In39 O45 2.266 . S
In39 O46 2.326 . S
In39 O47 2.266 1_554 S
In39 O48 2.326 . S
In39 O50 2.294 1_554 S
In39 O51 2.326 1_554 S
O40 In39 2.294 . S
O40 C49 1.240 1_554 S
O41 In39 2.326 1_556 S
O41 C49 1.252 . S
C42 O45 1.252 . S
C42 O46 1.260 . S
C43 O50 1.240 . S
C43 O51 1.252 . S
C44 O47 1.252 1_554 S
C44 O48 1.260 . S
O45 In39 2.266 . S
O45 C42 1.252 . S
O46 In39 2.326 . S
O46 C42 1.260 . S
O47 In39 2.266 1_556 S
O47 C44 1.252 1_556 S
O48 In39 2.326 . S
O48 C44 1.260 . S
C49 O40 1.240 1_556 S
C49 O41 1.252 . S
O50 In39 2.294 1_556 S
O50 C43 1.240 . S
O51 In39 2.326 1_556 S
O51 C43 1.252 . S
In52 O53 2.294 . S
In52 O54 2.326 . S
In52 O58 2.266 . S
In52 O59 2.326 . S
In52 O60 2.266 . S
In52 O61 2.326 . S
In52 O63 2.294 . S
In52 O64 2.326 . S
O53 In52 2.294 . S
O53 C62 1.240 . S
O54 In52 2.326 . S
O54 C62 1.252 . S
C55 O58 1.252 . S
C55 O59 1.260 . S
C56 O63 1.240 . S
C56 O64 1.252 . S
C57 O60 1.252 . S
C57 O61 1.260 . S
O58 In52 2.266 . S
O58 C55 1.252 . S
O59 In52 2.326 . S
O59 C55 1.260 . S
O60 In52 2.266 . S
O60 C57 1.252 . S
O61 In52 2.326 . S
O61 C57 1.260 . S
C62 O53 1.240 . S
C62 O54 1.252 . S
O63 In52 2.294 . S
O63 C56 1.240 . S
O64 In52 2.326 . S
O64 C56 1.252 . S
In65 O66 2.294 . S
In65 O67 2.326 . S
In65 O71 2.266 . S
In65 O72 2.326 . S
In65 O73 2.266 . S
In65 O74 2.326 . S
In65 O76 2.294 . S
In65 O77 2.326 . S
O66 In65 2.294 . S
O66 C75 1.240 . S
O67 In65 2.326 . S
O67 C75 1.252 . S
C68 O71 1.252 . S
C68 O72 1.260 . S
C69 O76 1.240 . S
C69 O77 1.252 . S
C70 O73 1.252 . S
C70 O74 1.260 . S
O71 In65 2.266 . S
O71 C68 1.252 . S
O72 In65 2.326 . S
O72 C68 1.260 . S
O73 In65 2.266 . S
O73 C70 1.252 . S
O74 In65 2.326 . S
O74 C70 1.260 . S
C75 O66 1.240 . S
C75 O67 1.252 . S
O76 In65 2.294 . S
O76 C69 1.240 . S
O77 In65 2.326 . S
O77 C69 1.252 . S
C78 C79 1.170 1_556 S
C78 C80 1.380 . S
C79 C78 1.170 1_554 S
C80 C78 1.380 . S
C80 C81 1.170 . S
C81 C80 1.170 . S
C82 C83 1.170 . S
C82 C84 1.380 1_655 S
C83 C82 1.170 . S
C84 C82 1.380 1_455 S
C84 C85 1.170 . S
C85 C84 1.170 . S
C86 C87 1.170 . S
C86 C88 1.380 1_545 S
C87 C86 1.170 . S
C88 C86 1.380 1_565 S
C88 C89 1.170 . S
C89 C88 1.170 . S
C90 C91 1.170 . S
C90 C92 1.380 . S
C91 C90 1.170 . S
C92 C90 1.380 . S
C92 C93 1.170 . S
C93 C92 1.170 . S
C94 C95 1.170 1_455 S
C94 C96 1.380 . S
C95 C94 1.170 1_655 S
C96 C94 1.380 . S
C96 C97 1.170 . S
C97 C96 1.170 . S
C98 C99 1.170 . S
C98 C100 1.380 1_545 S
C99 C98 1.170 . S
C100 C98 1.380 1_565 S
C100 C101 1.170 . S
C101 C100 1.170 . S
C102 C103 1.170 . S
C102 C104 1.380 . S
C103 C102 1.170 . S
C104 C102 1.380 . S
C104 C105 1.170 . S
C105 C104 1.170 . S
C106 C107 1.170 . S
C106 C108 1.380 . S
C107 C106 1.170 . S
C108 C106 1.380 . S
C108 C109 1.170 . S
C109 C108 1.170 . S
C110 C111 1.170 . S
C110 C112 1.380 . S
C111 C110 1.170 . S
C112 C110 1.380 . S
C112 C113 1.170 . S
C113 C112 1.170 . S
C114 C115 1.170 . S
C114 C116 1.380 . S
C115 C114 1.170 . S
C116 C114 1.380 . S
C116 C117 1.170 . S
C117 C116 1.170 . S
C118 C119 1.170 . S
C118 C120 1.380 . S
C119 C118 1.170 . S
C120 C118 1.380 . S
C120 C121 1.170 . S
C121 C120 1.170 . S
C122 C123 1.170 . S
C122 C124 1.380 . S
C123 C122 1.170 . S
C124 C122 1.380 . S
C124 C125 1.170 . S
C125 C124 1.170 . S
C79 C10 2.026 . S
C81 C70 2.070 . S
C83 C23 1.366 . S
C85 C5 1.391 . S
C87 C18 2.047 . S
C89 C30 2.040 . S
C91 C49 1.375 . S
C93 C29 1.385 . S
C95 C44 2.069 . S
C97 C62 2.025 . S
C99 C75 1.364 . S
C101 C57 1.391 . S
C103 C56 1.639 . S
C105 C3 1.517 . S
C107 C69 1.526 . S
C109 C16 1.629 . S
C111 C31 1.466 . S
C113 C4 1.667 . S
C115 C42 1.649 . S
C117 C17 1.470 . S
C119 C55 1.516 . S
C121 C36 1.637 . S
C123 C68 1.632 . S
C125 C43 1.523 . S
