# Generated by pormake.
# Topology pcu, (6)-cn, num edge types: 1
# Building blocks:
#     Node 0, Type 0, BuildingBlock: KUMJIN_clean_sbu_1, # of connection points: 6
#     Edge 1, Type (0, 0), BuildingBlock: UVAHIK_clean_linker_0, # of connection points: 2
#     Edge 2, Type (0, 0), BuildingBlock: UVAHIK_clean_linker_0, # of connection points: 2
#     Edge 3, Type (0, 0), BuildingBlock: UVAHIK_clean_linker_0, # of connection points: 2
# Relax obj value: 0.000
# Max RMSD: 0.000
# Mean RMSD: 0.000
data_MOF--net-pcu--node1-KUMJIN_clean_sbu_1--edge1-UVAHIK_clean_linker_0
_symmetry_space_group_name_H-M    P1
_symmetry_Int_Tables_number       1
_symmetry_cell_setting            triclinic
loop_
_symmetry_equiv_pos_as_xyz
'x, y, z'
_cell_length_a     19.426549
_cell_length_b     28.893404
_cell_length_c     19.512427
_cell_angle_alpha  114.70255
_cell_angle_beta   89.310565
_cell_angle_gamma 115.66206
loop_
_atom_site_label
_atom_site_type_symbol
_atom_site_fract_x
_atom_site_fract_y
_atom_site_fract_z
_atom_type_partial_charge
Eu0 Eu 0.96005 0.92432 0.93697 0.0
C1 C 0.24597 0.16818 0.12019 0.0
N2 N 0.17796 0.14509 0.14264 0.0
C3 C 0.24836 0.17597 0.26661 0.0
C4 C 0.31843 0.19519 0.17022 0.0
C5 C 0.17791 0.14917 0.21484 0.0
C6 C 0.31894 0.19888 0.24413 0.0
C7 C 0.31266 0.18603 0.021 0.0
C8 C 0.24284 0.16289 0.04589 0.0
C9 C 0.38494 0.21234 0.07037 0.0
C10 C 0.38782 0.21689 0.14473 0.0
Eu11 Eu 0.06194 0.10021 0.05175 0.0
N12 N 0.1719 0.13645 -0.00125 0.0
C13 C 0.30786 0.18323 0.94779 0.0
C14 C 0.16741 0.13837 0.9303 0.0
C15 C 0.23493 0.16028 0.90289 0.0
H16 H 0.12341 0.13195 0.23248 0.0
H17 H 0.23069 0.16053 0.84779 0.0
H18 H 0.8986 0.89257 0.75622 0.0
H19 H 0.79125 0.86407 0.14094 0.0
H20 H 0.11245 0.12511 0.89751 0.0
H21 H 0.3601 0.20057 0.92662 0.0
H22 H 0.9095 0.89945 0.09122 0.0
H23 H 0.24818 0.17891 0.32375 0.0
H24 H 0.43904 0.22993 0.05189 0.0
H25 H 0.44404 0.23747 0.18218 0.0
H26 H 0.77383 0.84561 0.66494 0.0
H27 H 0.37343 0.21929 0.28422 0.0
H28 H 0.66186 0.82401 0.06209 0.0
N29 N 0.84403 0.87944 0.84605 0.0
C30 C 0.77601 0.85635 0.8685 0.0
C31 C 0.77365 0.84856 0.72208 0.0
C32 C 0.70356 0.82936 0.81846 0.0
C33 C 0.84409 0.87535 0.77385 0.0
C34 C 0.70306 0.82565 0.74455 0.0
N35 N 0.85007 0.88808 0.98994 0.0
C36 C 0.85454 0.8862 0.05842 0.0
C37 C 0.70931 0.83853 0.96769 0.0
C38 C 0.77913 0.86165 0.9428 0.0
C39 C 0.7141 0.84134 0.04092 0.0
C40 C 0.78703 0.8643 0.08583 0.0
H41 H 0.64857 0.80524 0.70445 0.0
H42 H 0.57795 0.78708 0.80649 0.0
H43 H 0.58293 0.79464 0.93679 0.0
O44 O 0.97987 0.85814 0.95053 0.0
O45 O 0.88751 0.96827 0.93462 0.0
O46 O 0.93614 0.04724 0.05335 0.0
O47 O 0.95303 0.84997 0.83647 0.0
O48 O 0.01487 0.96871 0.06509 0.0
O49 O 0.99964 0.05101 0.11735 0.0
O50 O 0.0421 0.16639 0.0382 0.0
O51 O 0.13447 0.05626 0.05408 0.0
O52 O 0.08584 0.97728 0.93535 0.0
O53 O 0.06896 0.17457 0.15226 0.0
O54 O 1.00712 0.05583 0.92363 0.0
O55 O 0.02234 0.97352 0.87136 0.0
C56 C 0.87951 1.00859 0.99292 0.0
C57 C 0.97351 0.77329 0.83758 0.0
C58 C 0.99101 0.69493 0.84037 0.0
C59 C 0.98672 0.67173 0.76027 0.0
C60 C 0.96943 0.74881 0.75752 0.0
C61 C 0.97589 0.69845 0.71937 0.0
C62 C 0.98378 0.74583 0.87895 0.0
C63 C 1.01026 1.011 0.1242 0.0
C64 C 0.96882 0.82796 0.87618 0.0
C65 C 0.63417 0.80766 0.84396 0.0
C66 C 0.63703 0.81222 0.91831 0.0
C67 C 0.14249 0.01596 -0.00424 0.0
C68 C 0.04847 0.25124 0.15117 0.0
C69 C 0.03098 0.32961 0.1484 0.0
C70 C 0.03525 0.3528 0.2285 0.0
C71 C 0.05254 0.2757 0.23122 0.0
C72 C 0.03821 0.27871 0.10981 0.0
C73 C 0.04607 0.32606 0.26939 0.0
C74 C 0.01173 0.01354 0.86451 0.0
C75 C 0.05316 0.19658 0.11255 0.0
H76 H 0.99081 0.63229 0.72889 0.0
H77 H 0.96169 0.76878 0.72408 0.0
H78 H 0.97258 0.68005 0.65771 0.0
H79 H 0.98735 0.76432 0.94071 0.0
H80 H 0.03116 0.39223 0.25989 0.0
H81 H 0.06027 0.25573 0.26466 0.0
H82 H 0.03464 0.26023 0.04805 0.0
H83 H 0.04938 0.34445 0.33105 0.0
C84 C 0.98706 0.04614 0.25873 0.0
C85 C 0.01238 1.01191 0.20062 0.0
C86 C 0.98754 0.04649 0.33049 0.0
C87 C 0.98784 0.96065 0.4268 0.0
H88 H 0.05356 0.10451 0.61357 0.0
C89 C 0.03493 0.9784 0.72998 0.0
C90 C 1.00961 0.01263 0.78809 0.0
C91 C 0.03444 0.97804 0.65823 0.0
C92 C 0.03413 0.06388 0.56191 0.0
H93 H 0.05937 0.95194 0.17282 0.0
H94 H 0.06052 0.95274 0.29845 0.0
H95 H 0.05626 0.10492 0.48884 0.0
H96 H 0.9626 0.07259 0.81589 0.0
H97 H 0.96145 0.07179 0.69026 0.0
H98 H 0.96571 0.91961 0.49987 0.0
C99 C 0.03925 0.9787 0.28801 0.0
C100 C 0.03578 0.06412 0.49043 0.0
C101 C 0.03889 0.97841 0.21617 0.0
C102 C 0.98308 0.04612 0.77255 0.0
C103 C 0.98272 0.04583 0.7007 0.0
C104 C 0.98619 0.96041 0.49829 0.0
C105 C 0.01339 0.01265 0.34594 0.0
C106 C 0.01263 0.0125 0.42203 0.0
C107 C 1.00859 1.01188 0.64277 0.0
C108 C 1.00934 1.01203 0.56669 0.0
H109 H 0.96589 0.07226 0.24861 0.0
H110 H 0.96628 0.07254 0.37343 0.0
H111 H 0.96842 0.92002 0.37514 0.0
H112 H 0.05611 0.95228 0.74011 0.0
H113 H 0.05571 0.952 0.61528 0.0
C114 C 0.23524 0.98386 0.92706 0.0
C115 C 0.21853 0.01585 -0.00411 0.0
C116 C 0.30677 0.98332 0.92677 0.0
C117 C 0.50904 0.0642 0.03797 0.0
H118 H 0.51309 0.91968 0.91722 0.0
C119 C 0.7868 0.04079 0.06154 0.0
C120 C 0.8035 1.00875 0.99274 0.0
C121 C 0.71529 0.04137 0.06179 0.0
C122 C 0.51305 0.96049 0.95053 0.0
H123 H 0.26301 0.07105 0.11873 0.0
H124 H 0.38839 0.07075 0.11818 0.0
H125 H 0.38882 0.92165 0.91832 0.0
H126 H 0.75904 0.95351 0.86991 0.0
H127 H 0.6337 0.95388 0.87038 0.0
H128 H 0.63327 0.10303 0.07018 0.0
C129 C 0.34659 0.04678 0.06418 0.0
C130 C 0.44184 0.96164 0.95119 0.0
C131 C 0.27482 0.04711 0.0645 0.0
C132 C 0.74723 0.97749 0.92412 0.0
C133 C 0.67549 0.97785 0.92439 0.0
C134 C 0.58024 0.06305 0.03731 0.0
C135 C 0.36327 0.01469 -0.00469 0.0
C136 C 0.43901 0.01351 -0.0051 0.0
C137 C 0.65881 1.00998 0.99323 0.0
C138 C 0.58308 1.01118 0.99361 0.0
H139 H 0.19324 0.95945 0.87309 0.0
H140 H 0.31816 0.95879 0.87258 0.0
H141 H 0.50899 0.10501 0.07129 0.0
H142 H 0.82879 0.0652 0.11552 0.0
H143 H 0.70391 0.06592 0.11596 0.0
C144 C 0.05702 0.64402 0.86512 0.0
C145 C 1.00211 0.66463 0.88163 0.0
C146 C 0.06111 0.60887 0.89522 0.0
C147 C 1.00132 0.55958 0.04429 0.0
H148 H 0.02711 0.42826 0.90439 0.0
C149 C 0.96498 0.38054 0.12368 0.0
C150 C 0.01989 0.35992 0.10716 0.0
C151 C 0.96089 0.41569 0.09358 0.0
C152 C 0.02069 0.46499 0.94451 0.0
H153 H 0.91042 0.66628 0.94524 0.0
H154 H 0.91723 0.60457 -0.00203 0.0
H155 H 0.02636 0.49598 0.86125 0.0
H156 H 0.11158 0.35827 0.04355 0.0
H157 H 0.10478 0.41999 0.99083 0.0
H158 H 0.99565 0.52859 0.12756 0.0
C159 C 0.95759 0.61594 0.96198 0.0
C160 C 0.02035 0.50397 0.91982 0.0
C161 C 0.95369 0.65141 0.93193 0.0
C162 C 0.0683 0.37315 0.05686 0.0
C163 C 0.06442 0.40862 0.02682 0.0
C164 C 1.00166 0.52059 0.06898 0.0
C165 C 1.01025 0.59318 0.94259 0.0
C166 C 1.01078 0.55187 0.9694 0.0
C167 C 0.01176 0.43138 0.04622 0.0
C168 C 0.01123 0.4727 0.01941 0.0
H169 H 0.09606 0.65426 0.82754 0.0
H170 H 0.10378 0.59349 0.88065 0.0
H171 H 0.9949 0.59631 0.08441 0.0
H172 H 0.92594 0.3703 0.16125 0.0
H173 H 0.91823 0.43107 0.10815 0.0
loop_
_geom_bond_atom_site_label_1
_geom_bond_atom_site_label_2
_geom_bond_distance
_geom_bond_site_symmetry_2
_ccdc_geom_bond_type
Eu0 N29 2.600 . S
Eu0 N35 2.562 . S
Eu0 O44 2.462 . S
Eu0 O45 2.373 . S
Eu0 O47 2.432 . S
Eu0 O48 2.291 1_556 S
Eu0 O52 2.335 1_655 S
Eu0 O55 2.372 . S
Eu0 C64 2.787 . S
C1 N2 1.365 . S
C1 C4 1.405 . S
C1 C8 1.448 . S
N2 C1 1.365 . S
N2 C5 1.319 . S
N2 Eu11 2.600 . S
C3 C5 1.397 . S
C3 C6 1.367 . S
C3 H23 0.931 . S
C4 C1 1.405 . S
C4 C6 1.403 . S
C4 C10 1.439 . S
C5 N2 1.319 . S
C5 C3 1.397 . S
C5 H16 0.930 . S
C6 C3 1.367 . S
C6 C4 1.403 . S
C6 H27 0.929 . S
C7 C8 1.430 . S
C7 C9 1.387 . S
C7 C13 1.404 . S
C8 C1 1.448 . S
C8 C7 1.430 . S
C8 N12 1.351 . S
C9 C7 1.387 . S
C9 C10 1.374 . S
C9 H24 0.931 . S
C10 C4 1.439 . S
C10 C9 1.374 . S
C10 H25 0.931 . S
Eu11 N2 2.600 . S
Eu11 N12 2.562 . S
Eu11 O46 2.335 1_455 S
Eu11 O49 2.372 . S
Eu11 O50 2.462 . S
Eu11 O51 2.373 . S
Eu11 O53 2.432 . S
Eu11 O54 2.291 1_554 S
Eu11 C75 2.787 . S
N12 C8 1.351 . S
N12 Eu11 2.562 . S
N12 C14 1.325 1_554 S
C13 C7 1.404 . S
C13 C15 1.366 1_554 S
C13 H21 0.930 1_554 S
C14 N12 1.325 1_556 S
C14 C15 1.416 . S
C14 H20 0.929 . S
C15 C13 1.366 1_556 S
C15 C14 1.416 . S
C15 H17 0.930 . S
H16 C5 0.930 . S
H17 C15 0.930 . S
H18 C33 0.930 . S
H19 C40 0.930 . S
H20 C14 0.929 . S
H21 C13 0.930 1_556 S
H22 C36 0.929 . S
H23 C3 0.931 . S
H24 C9 0.931 . S
H25 C10 0.931 . S
H26 C31 0.931 . S
H27 C6 0.929 . S
H28 C39 0.930 1_554 S
N29 Eu0 2.600 . S
N29 C30 1.365 . S
N29 C33 1.319 . S
C30 N29 1.365 . S
C30 C32 1.405 . S
C30 C38 1.448 . S
C31 H26 0.931 . S
C31 C33 1.397 . S
C31 C34 1.367 . S
C32 C30 1.405 . S
C32 C34 1.403 . S
C32 C65 1.439 . S
C33 H18 0.930 . S
C33 N29 1.319 . S
C33 C31 1.397 . S
C34 C31 1.367 . S
C34 C32 1.403 . S
C34 H41 0.929 . S
N35 Eu0 2.562 . S
N35 C36 1.325 1_556 S
N35 C38 1.351 . S
C36 H22 0.929 . S
C36 N35 1.325 1_554 S
C36 C40 1.416 . S
C37 C38 1.430 . S
C37 C39 1.404 . S
C37 C66 1.387 . S
C38 C30 1.448 . S
C38 N35 1.351 . S
C38 C37 1.430 . S
C39 H28 0.930 1_556 S
C39 C37 1.404 . S
C39 C40 1.366 1_556 S
C40 H19 0.930 . S
C40 C36 1.416 . S
C40 C39 1.366 1_554 S
H41 C34 0.929 . S
H42 C65 0.931 . S
H43 C66 0.931 . S
O44 Eu0 2.462 . S
O44 C64 1.252 . S
O45 Eu0 2.373 . S
O45 C56 1.247 . S
O46 Eu11 2.335 1_655 S
O46 C56 1.264 1_544 S
O47 Eu0 2.432 . S
O47 C64 1.268 . S
O48 Eu0 2.291 1_554 S
O48 C63 1.255 1_565 S
O49 Eu11 2.372 . S
O49 C63 1.257 1_455 S
O50 Eu11 2.462 . S
O50 C75 1.252 . S
O51 Eu11 2.373 . S
O51 C67 1.252 . S
O52 Eu0 2.335 1_455 S
O52 C67 1.262 1_566 S
O53 Eu11 2.432 . S
O53 C75 1.268 . S
O54 Eu11 2.291 1_556 S
O54 C74 1.255 1_545 S
O55 Eu0 2.372 . S
O55 C74 1.257 1_655 S
C56 O45 1.247 . S
C56 O46 1.264 1_566 S
C57 C60 1.382 . S
C57 C62 1.390 . S
C57 C64 1.506 . S
C58 C59 1.398 . S
C58 C62 1.392 . S
C59 C58 1.398 . S
C59 C61 1.372 . S
C59 H76 0.931 . S
C60 C57 1.382 . S
C60 C61 1.390 . S
C60 H77 0.931 . S
C61 C59 1.372 . S
C61 C60 1.390 . S
C61 H78 0.929 . S
C62 C57 1.390 . S
C62 C58 1.392 . S
C62 H79 0.930 1_556 S
C63 O48 1.255 1_545 S
C63 O49 1.257 1_655 S
C64 Eu0 2.787 . S
C64 O44 1.252 . S
C64 O47 1.268 . S
C64 C57 1.506 . S
C65 C32 1.439 . S
C65 H42 0.931 . S
C65 C66 1.374 . S
C66 C37 1.387 . S
C66 H43 0.931 . S
C66 C65 1.374 . S
C67 O51 1.252 . S
C67 O52 1.262 1_544 S
C68 C71 1.382 . S
C68 C72 1.390 . S
C68 C75 1.506 . S
C69 C70 1.398 . S
C69 C72 1.392 . S
C70 C69 1.398 . S
C70 C73 1.372 . S
C70 H80 0.931 . S
C71 C68 1.382 . S
C71 C73 1.390 . S
C71 H81 0.931 . S
C72 C68 1.390 . S
C72 C69 1.392 . S
C72 H82 0.930 1_554 S
C73 C70 1.372 . S
C73 C71 1.390 . S
C73 H83 0.929 . S
C74 O54 1.255 1_565 S
C74 O55 1.257 1_455 S
C75 Eu11 2.787 . S
C75 O50 1.252 . S
C75 O53 1.268 . S
C75 C68 1.506 . S
H76 C59 0.931 . S
H77 C60 0.931 . S
H78 C61 0.929 . S
H79 C62 0.930 1_554 S
H80 C70 0.931 . S
H81 C71 0.931 . S
H82 C72 0.930 1_556 S
H83 C73 0.929 . S
C84 C85 1.349 1_655 S
C84 C86 1.327 . S
C84 H109 0.950 . S
C85 C84 1.349 1_455 S
C85 C101 1.349 1_545 S
C86 C84 1.327 . S
C86 C105 1.429 1_655 S
C86 H110 0.950 . S
C87 C104 1.574 . S
C87 C106 1.368 1_565 S
C87 H111 0.949 . S
H88 C92 0.949 . S
C89 C90 1.349 1_565 S
C89 C91 1.327 . S
C89 H112 0.950 . S
C90 C89 1.349 1_545 S
C90 C102 1.349 1_455 S
C91 C89 1.327 . S
C91 C107 1.429 1_565 S
C91 H113 0.950 . S
C92 H88 0.949 . S
C92 C100 1.574 . S
C92 C108 1.368 1_655 S
H93 C101 0.950 . S
H94 C99 0.950 . S
H95 C100 0.949 . S
H96 C102 0.950 . S
H97 C103 0.950 . S
H98 C104 0.949 . S
C99 H94 0.950 . S
C99 C101 1.327 . S
C99 C105 1.429 1_565 S
C100 C92 1.574 . S
C100 H95 0.949 . S
C100 C106 1.368 1_655 S
C101 C85 1.349 1_565 S
C101 H93 0.950 . S
C101 C99 1.327 . S
C102 C90 1.349 1_655 S
C102 H96 0.950 . S
C102 C103 1.327 . S
C103 H97 0.950 . S
C103 C102 1.327 . S
C103 C107 1.429 1_655 S
C104 C87 1.574 . S
C104 H98 0.949 . S
C104 C108 1.368 1_565 S
C105 C86 1.429 1_455 S
C105 C99 1.429 1_545 S
C105 C106 1.523 . S
C106 C87 1.368 1_545 S
C106 C100 1.368 1_455 S
C106 C105 1.523 . S
C107 C91 1.429 1_545 S
C107 C103 1.429 1_455 S
C107 C108 1.523 . S
C108 C92 1.368 1_455 S
C108 C104 1.368 1_545 S
C108 C107 1.523 . S
H109 C84 0.950 . S
H110 C86 0.950 . S
H111 C87 0.949 . S
H112 C89 0.950 . S
H113 C91 0.950 . S
C114 C115 1.349 1_556 S
C114 C116 1.327 . S
C114 H139 0.950 . S
C115 C114 1.349 1_554 S
C115 C131 1.349 1_545 S
C116 C114 1.327 . S
C116 C135 1.429 1_556 S
C116 H140 0.950 . S
C117 C134 1.574 . S
C117 C136 1.368 1_565 S
C117 H141 0.949 . S
H118 C122 0.949 . S
C119 C120 1.349 1_565 S
C119 C121 1.327 . S
C119 H142 0.950 . S
C120 C119 1.349 1_545 S
C120 C132 1.349 1_554 S
C121 C119 1.327 . S
C121 C137 1.429 1_565 S
C121 H143 0.950 . S
C122 H118 0.949 . S
C122 C130 1.574 . S
C122 C138 1.368 1_556 S
H123 C131 0.950 . S
H124 C129 0.950 . S
H125 C130 0.949 . S
H126 C132 0.950 . S
H127 C133 0.950 . S
H128 C134 0.949 . S
C129 H124 0.950 . S
C129 C131 1.327 . S
C129 C135 1.429 1_565 S
C130 C122 1.574 . S
C130 H125 0.949 . S
C130 C136 1.368 1_556 S
C131 C115 1.349 1_565 S
C131 H123 0.950 . S
C131 C129 1.327 . S
C132 C120 1.349 1_556 S
C132 H126 0.950 . S
C132 C133 1.327 . S
C133 H127 0.950 . S
C133 C132 1.327 . S
C133 C137 1.429 1_556 S
C134 C117 1.574 . S
C134 H128 0.949 . S
C134 C138 1.368 1_565 S
C135 C116 1.429 1_554 S
C135 C129 1.429 1_545 S
C135 C136 1.523 . S
C136 C117 1.368 1_545 S
C136 C130 1.368 1_554 S
C136 C135 1.523 . S
C137 C121 1.429 1_545 S
C137 C133 1.429 1_554 S
C137 C138 1.523 . S
C138 C122 1.368 1_554 S
C138 C134 1.368 1_545 S
C138 C137 1.523 . S
H139 C114 0.950 . S
H140 C116 0.950 . S
H141 C117 0.949 . S
H142 C119 0.950 . S
H143 C121 0.950 . S
C144 C145 1.349 1_556 S
C144 C146 1.327 . S
C144 H169 0.950 . S
C145 C144 1.349 1_554 S
C145 C161 1.349 1_455 S
C146 C144 1.327 . S
C146 C165 1.429 1_556 S
C146 H170 0.950 . S
C147 C164 1.574 . S
C147 C166 1.368 1_655 S
C147 H171 0.949 . S
H148 C152 0.949 . S
C149 C150 1.349 1_655 S
C149 C151 1.327 . S
C149 H172 0.950 . S
C150 C149 1.349 1_455 S
C150 C162 1.349 1_554 S
C151 C149 1.327 . S
C151 C167 1.429 1_655 S
C151 H173 0.950 . S
C152 H148 0.949 . S
C152 C160 1.574 . S
C152 C168 1.368 1_556 S
H153 C161 0.950 . S
H154 C159 0.950 . S
H155 C160 0.949 . S
H156 C162 0.950 . S
H157 C163 0.950 . S
H158 C164 0.949 . S
C159 H154 0.950 . S
C159 C161 1.327 . S
C159 C165 1.429 1_655 S
C160 C152 1.574 . S
C160 H155 0.949 . S
C160 C166 1.368 1_556 S
C161 C145 1.349 1_655 S
C161 H153 0.950 . S
C161 C159 1.327 . S
C162 C150 1.349 1_556 S
C162 H156 0.950 . S
C162 C163 1.327 . S
C163 H157 0.950 . S
C163 C162 1.327 . S
C163 C167 1.429 1_556 S
C164 C147 1.574 . S
C164 H158 0.949 . S
C164 C168 1.368 1_655 S
C165 C146 1.429 1_554 S
C165 C159 1.429 1_455 S
C165 C166 1.523 . S
C166 C147 1.368 1_455 S
C166 C160 1.368 1_554 S
C166 C165 1.523 . S
C167 C151 1.429 1_455 S
C167 C163 1.429 1_554 S
C167 C168 1.523 . S
C168 C152 1.368 1_554 S
C168 C164 1.368 1_455 S
C168 C167 1.523 . S
H169 C144 0.950 . S
H170 C146 0.950 . S
H171 C147 0.949 . S
H172 C149 0.950 . S
H173 C151 0.950 . S
C85 C63 1.481 1_455 S
C90 C74 1.481 1_545 S
C115 C67 1.493 . S
C120 C56 1.496 1_544 S
C145 C58 1.359 1_454 S
C150 C69 1.359 . S
