# Generated by pormake.
# Topology uni, (4)-cn, num edge types: 1
# Building blocks:
#     Node 0, Type 0, BuildingBlock: CEKHIL_clean_sbu_0, # of connection points: 4
#     Node 1, Type 0, BuildingBlock: CEKHIL_clean_sbu_0, # of connection points: 4
#     Node 2, Type 0, BuildingBlock: CEKHIL_clean_sbu_0, # of connection points: 4
#     Node 3, Type 0, BuildingBlock: CEKHIL_clean_sbu_0, # of connection points: 4
#     Node 4, Type 0, BuildingBlock: CEKHIL_clean_sbu_0, # of connection points: 4
#     Node 5, Type 0, BuildingBlock: CEKHIL_clean_sbu_0, # of connection points: 4
#     Edge 6, Type (0, 0), None
#     Edge 7, Type (0, 0), None
#     Edge 8, Type (0, 0), None
#     Edge 9, Type (0, 0), None
#     Edge 10, Type (0, 0), None
#     Edge 11, Type (0, 0), None
#     Edge 12, Type (0, 0), None
#     Edge 13, Type (0, 0), None
#     Edge 14, Type (0, 0), None
#     Edge 15, Type (0, 0), None
#     Edge 16, Type (0, 0), None
#     Edge 17, Type (0, 0), None
# Relax obj value: 0.075
# Max RMSD: 0.108
# Mean RMSD: 0.097
data_MOF--net-uni--node1-CEKHIL_clean_sbu_0--edge1-none
_symmetry_space_group_name_H-M    P1
_symmetry_Int_Tables_number       1
_symmetry_cell_setting            triclinic
loop_
_symmetry_equiv_pos_as_xyz
'x, y, z'
_cell_length_a     17.08772
_cell_length_b     16.482408
_cell_length_c     10.45108
_cell_angle_alpha  90.000006
_cell_angle_beta   90.000072
_cell_angle_gamma 123.54535
loop_
_atom_site_label
_atom_site_type_symbol
_atom_site_fract_x
_atom_site_fract_y
_atom_site_fract_z
_atom_type_partial_charge
Co0 Co 0.70514 0.03687 0.04786 0.0
O1 O 0.76835 1.00298 0.16846 0.0
O2 O 0.6618 0.90225 0.02646 0.0
C3 C 0.83665 0.17743 0.9866 0.0
O4 O 0.62709 0.04016 0.90356 0.0
Co5 Co 0.69703 0.21784 0.05715 0.0
O6 O 0.63571 0.18027 0.88683 0.0
C7 C 0.58125 0.05461 0.23656 0.0
C8 C 0.72059 0.91714 0.11631 0.0
C9 C 0.60706 0.09547 0.84646 0.0
O10 O 0.60312 1.00144 0.17708 0.0
O11 O 0.61617 0.14401 0.20878 0.0
O12 O 0.81458 0.09507 0.93718 0.0
O13 O 0.78127 0.17348 0.07417 0.0
Co14 Co 0.73187 0.7077 0.21049 0.0
O15 O 0.83032 0.77126 0.33733 0.0
O16 O 0.81955 0.67123 0.18529 0.0
C17 C 0.73111 0.83939 0.15833 0.0
O18 O 0.64764 0.62958 0.06155 0.0
Co19 Co 0.54 0.68522 0.21928 0.0
O20 O 0.51587 0.62756 0.04548 0.0
C21 C 0.57953 0.56925 0.39291 0.0
C22 C 0.86466 0.72666 0.28218 0.0
C23 C 0.57151 0.60529 0.00349 0.0
O24 O 0.65538 0.59569 0.33184 0.0
O25 O 0.52864 0.60229 0.36841 0.0
O26 O 0.79262 0.82598 0.10775 0.0
O27 O 0.67478 0.77614 0.24166 0.0
Co28 Co 0.05565 0.70841 0.41017 0.0
O29 O 1.02466 0.77072 0.28166 0.0
O30 O 0.92878 0.67143 0.43414 0.0
C31 C 0.1961 0.84219 0.46152 0.0
O32 O 0.0563 0.63134 0.5612 0.0
Co33 Co 0.22238 0.68624 0.40409 0.0
O34 O 0.18518 0.62828 0.57766 0.0
C35 C 0.06055 0.56839 0.23015 0.0
C36 C 0.9428 0.72645 0.33673 0.0
C37 C 0.10602 0.60656 0.61969 0.0
O38 O 1.01315 0.59554 0.2903 0.0
O39 O 0.14662 0.60161 0.25511 0.0
O40 O 0.1194 0.82721 0.51093 0.0
O41 O 0.18669 0.77894 0.37913 0.0
Co42 Co 0.41871 0.0724 0.54787 0.0
O43 O 0.35551 0.10631 0.66847 0.0
O44 O 0.46204 0.20702 0.52645 0.0
C45 C 0.28718 0.93185 0.48667 0.0
O46 O 0.49674 0.0691 0.40356 0.0
Co47 Co 0.42681 0.89143 0.55714 0.0
O48 O 0.48814 0.929 0.38683 0.0
C49 C 0.5426 0.05467 0.73655 0.0
C50 C 0.40326 0.19215 0.6163 0.0
C51 C 0.51677 1.01379 0.34646 0.0
O52 O 0.52073 0.10784 0.67707 0.0
O53 O 0.50767 0.96527 0.70878 0.0
O54 O 0.30925 1.0142 0.4372 0.0
O55 O 0.34259 0.9358 0.57421 0.0
Co56 Co 0.39199 0.40159 0.71049 0.0
O57 O 0.29354 0.33802 0.83733 0.0
O58 O 0.3043 0.43805 0.68529 0.0
C59 C 0.39275 0.2699 0.65832 0.0
O60 O 0.47621 0.47971 0.56155 0.0
Co61 Co 0.58386 0.42406 0.71928 0.0
O62 O 0.60798 0.48172 0.54548 0.0
C63 C 0.54433 0.54005 0.89289 0.0
C64 C 0.25919 0.38262 0.78218 0.0
C65 C 0.55234 0.50398 0.50348 0.0
O66 O 0.46847 0.5136 0.83185 0.0
O67 O 0.59522 0.507 0.8684 0.0
O68 O 0.33123 0.2833 0.60775 0.0
O69 O 0.44907 0.33314 0.74165 0.0
Co70 Co 0.0682 0.40086 0.91016 0.0
O71 O 0.09919 0.33856 0.78165 0.0
O72 O 0.19506 0.43784 0.93414 0.0
C73 C 0.92775 0.26707 0.96145 0.0
O74 O 0.06754 0.47792 0.06121 0.0
Co75 Co 0.90146 0.42304 0.9041 0.0
O76 O 0.93867 0.481 0.07766 0.0
C77 C 0.06331 0.5409 0.73017 0.0
C78 C 0.18106 0.38283 0.83673 0.0
C79 C 1.01782 0.5027 0.11969 0.0
O80 O 0.11071 0.51375 0.79031 0.0
O81 O 0.97724 0.50767 0.75512 0.0
O82 O 1.00443 0.28205 0.0109 0.0
O83 O 0.93717 0.33035 0.87909 0.0
loop_
_geom_bond_atom_site_label_1
_geom_bond_atom_site_label_2
_geom_bond_distance
_geom_bond_site_symmetry_2
_ccdc_geom_bond_type
Co0 O1 2.216 . S
Co0 O2 2.091 . S
Co0 O4 2.004 1_554 S
Co0 O10 2.021 . S
Co0 O12 2.137 1_564 S
Co0 O13 2.244 1_565 S
O1 Co0 2.216 . S
O1 C8 1.247 . S
O2 Co0 2.091 . S
O2 C8 1.261 . S
C3 O12 1.247 . S
C3 O13 1.272 1_556 S
O4 Co0 2.004 1_556 S
O4 C9 1.259 1_565 S
Co5 O6 2.061 1_554 S
Co5 O11 2.052 . S
Co5 O13 2.135 . S
O6 Co5 2.061 1_556 S
O6 C9 1.235 . S
C7 O10 1.238 1_545 S
C7 O11 1.241 . S
C8 O1 1.247 . S
C8 O2 1.261 . S
C9 O4 1.259 1_545 S
C9 O6 1.235 . S
O10 Co0 2.021 . S
O10 C7 1.238 1_565 S
O11 Co5 2.052 . S
O11 C7 1.241 . S
O12 Co0 2.137 1_546 S
O12 C3 1.247 . S
O13 Co0 2.244 1_545 S
O13 C3 1.272 1_554 S
O13 Co5 2.135 . S
Co14 O15 2.216 . S
Co14 O16 2.091 . S
Co14 O18 2.004 . S
Co14 O24 2.021 . S
Co14 O26 2.137 . S
Co14 O27 2.244 . S
O15 Co14 2.216 . S
O15 C22 1.247 . S
O16 Co14 2.091 . S
O16 C22 1.261 . S
C17 O26 1.247 . S
C17 O27 1.272 . S
O18 Co14 2.004 . S
O18 C23 1.259 . S
Co19 O20 2.061 . S
Co19 O25 2.052 . S
Co19 O27 2.135 . S
O20 Co19 2.061 . S
O20 C23 1.235 . S
C21 O24 1.238 . S
C21 O25 1.241 . S
C22 O15 1.247 . S
C22 O16 1.261 . S
C23 O18 1.259 . S
C23 O20 1.235 . S
O24 Co14 2.021 . S
O24 C21 1.238 . S
O25 Co19 2.052 . S
O25 C21 1.241 . S
O26 Co14 2.137 . S
O26 C17 1.247 . S
O27 Co14 2.244 . S
O27 C17 1.272 . S
O27 Co19 2.135 . S
Co28 O29 2.216 1_455 S
Co28 O30 2.091 1_455 S
Co28 O32 2.003 . S
Co28 O38 2.021 1_455 S
Co28 O40 2.137 . S
Co28 O41 2.244 . S
O29 Co28 2.216 1_655 S
O29 C36 1.247 . S
O30 Co28 2.091 1_655 S
O30 C36 1.261 . S
C31 O40 1.247 . S
C31 O41 1.272 . S
O32 Co28 2.003 . S
O32 C37 1.263 . S
Co33 O34 2.061 . S
Co33 O39 2.052 . S
Co33 O41 2.135 . S
O34 Co33 2.061 . S
O34 C37 1.235 . S
C35 O38 1.238 1_455 S
C35 O39 1.241 . S
C36 O29 1.247 . S
C36 O30 1.261 . S
C37 O32 1.263 . S
C37 O34 1.235 . S
O38 Co28 2.021 1_655 S
O38 C35 1.238 1_655 S
O39 Co33 2.052 . S
O39 C35 1.241 . S
O40 Co28 2.137 . S
O40 C31 1.247 . S
O41 Co28 2.244 . S
O41 C31 1.272 . S
O41 Co33 2.135 . S
Co42 O43 2.216 . S
Co42 O44 2.091 . S
Co42 O46 2.004 . S
Co42 O52 2.021 . S
Co42 O54 2.137 1_545 S
Co42 O55 2.244 1_545 S
O43 Co42 2.216 . S
O43 C50 1.247 . S
O44 Co42 2.091 . S
O44 C50 1.261 . S
C45 O54 1.247 . S
C45 O55 1.272 . S
O46 Co42 2.004 . S
O46 C51 1.259 1_545 S
Co47 O48 2.061 . S
Co47 O53 2.052 . S
Co47 O55 2.135 . S
O48 Co47 2.061 . S
O48 C51 1.235 . S
C49 O52 1.238 . S
C49 O53 1.241 1_545 S
C50 O43 1.247 . S
C50 O44 1.261 . S
C51 O46 1.259 1_565 S
C51 O48 1.235 . S
O52 Co42 2.021 . S
O52 C49 1.238 . S
O53 Co47 2.052 . S
O53 C49 1.241 1_565 S
O54 Co42 2.137 1_565 S
O54 C45 1.247 . S
O55 Co42 2.244 1_565 S
O55 C45 1.272 . S
O55 Co47 2.135 . S
Co56 O57 2.216 . S
Co56 O58 2.091 . S
Co56 O60 2.004 . S
Co56 O66 2.021 . S
Co56 O68 2.137 . S
Co56 O69 2.244 . S
O57 Co56 2.216 . S
O57 C64 1.247 . S
O58 Co56 2.091 . S
O58 C64 1.261 . S
C59 O68 1.247 . S
C59 O69 1.272 . S
O60 Co56 2.004 . S
O60 C65 1.259 . S
Co61 O62 2.061 . S
Co61 O67 2.052 . S
Co61 O69 2.135 . S
O62 Co61 2.061 . S
O62 C65 1.235 . S
C63 O66 1.238 . S
C63 O67 1.241 . S
C64 O57 1.247 . S
C64 O58 1.261 . S
C65 O60 1.259 . S
C65 O62 1.235 . S
O66 Co56 2.021 . S
O66 C63 1.238 . S
O67 Co61 2.052 . S
O67 C63 1.241 . S
O68 Co56 2.137 . S
O68 C59 1.247 . S
O69 Co56 2.244 . S
O69 C59 1.272 . S
O69 Co61 2.135 . S
Co70 O71 2.216 . S
Co70 O72 2.091 . S
Co70 O74 2.004 1_556 S
Co70 O80 2.021 . S
Co70 O82 2.137 1_456 S
Co70 O83 2.244 1_455 S
O71 Co70 2.216 . S
O71 C78 1.247 . S
O72 Co70 2.091 . S
O72 C78 1.261 . S
C73 O82 1.247 1_556 S
C73 O83 1.272 . S
O74 Co70 2.004 1_554 S
O74 C79 1.259 1_455 S
Co75 O76 2.061 1_556 S
Co75 O81 2.052 . S
Co75 O83 2.135 . S
O76 Co75 2.061 1_554 S
O76 C79 1.235 . S
C77 O80 1.238 . S
C77 O81 1.241 1_455 S
C78 O71 1.247 . S
C78 O72 1.261 . S
C79 O74 1.259 1_655 S
C79 O76 1.235 . S
O80 Co70 2.021 . S
O80 C77 1.238 . S
O81 Co75 2.052 . S
O81 C77 1.241 1_655 S
O82 Co70 2.137 1_654 S
O82 C73 1.247 1_554 S
O83 Co70 2.244 1_655 S
O83 C73 1.272 . S
O83 Co75 2.135 . S
C7 C51 1.707 1_545 S
C21 C65 1.630 . S
C77 C37 1.685 . S
C9 C49 1.707 . S
C23 C63 1.630 1_554 S
C79 C35 1.685 1_655 S
C17 C8 1.451 . S
C36 C22 1.406 . S
C31 C45 1.514 . S
C59 C50 1.451 . S
C78 C64 1.406 . S
C73 C3 1.514 . S
