# Generated by pormake.
# Topology snp, (6)-cn, num edge types: 1
# Building blocks:
#     Node 0, Type 0, BuildingBlock: BETFEN_clean_sbu_0, # of connection points: 6
#     Node 1, Type 0, BuildingBlock: BETFEN_clean_sbu_0, # of connection points: 6
#     Node 2, Type 0, BuildingBlock: BETFEN_clean_sbu_0, # of connection points: 6
#     Node 3, Type 0, BuildingBlock: BETFEN_clean_sbu_0, # of connection points: 6
#     Edge 4, Type (0, 0), None
#     Edge 5, Type (0, 0), None
#     Edge 6, Type (0, 0), None
#     Edge 7, Type (0, 0), None
#     Edge 8, Type (0, 0), None
#     Edge 9, Type (0, 0), None
#     Edge 10, Type (0, 0), None
#     Edge 11, Type (0, 0), None
#     Edge 12, Type (0, 0), None
#     Edge 13, Type (0, 0), None
#     Edge 14, Type (0, 0), None
#     Edge 15, Type (0, 0), None
# Relax obj value: 0.402
# Max RMSD: 0.306
# Mean RMSD: 0.306
data_MOF--net-snp--node1-BETFEN_clean_sbu_0--edge1-none
_symmetry_space_group_name_H-M    P1
_symmetry_Int_Tables_number       1
_symmetry_cell_setting            triclinic
loop_
_symmetry_equiv_pos_as_xyz
'x, y, z'
_cell_length_a     12.140247
_cell_length_b     12.139615
_cell_length_c     20.053594
_cell_angle_alpha  74.358911
_cell_angle_beta   74.348848
_cell_angle_gamma 89.965797
loop_
_atom_site_label
_atom_site_type_symbol
_atom_site_fract_x
_atom_site_fract_y
_atom_site_fract_z
_atom_type_partial_charge
Pr0 Pr 0.23076 0.09029 0.30946 0.0
Pr1 Pr 0.23403 0.84651 0.29088 0.0
C2 C 0.18759 0.28158 0.35165 0.0
C3 C 0.17136 0.29978 0.42305 0.0
C4 C 0.23737 0.24331 0.46785 0.0
C5 C 0.21024 0.24424 0.53972 0.0
C6 C 0.11538 0.30002 0.56849 0.0
C7 C 0.05282 0.36145 0.52265 0.0
C8 C 0.0809 0.36142 0.45031 0.0
C9 C 0.44778 0.0184 0.26495 0.0
C10 C 0.1729 0.86793 0.45932 0.0
C11 C 0.29138 0.65118 0.25731 0.0
C12 C 0.31813 0.63098 0.18467 0.0
C13 C 0.23398 0.58014 0.1636 0.0
C14 C 0.25164 0.58035 0.09149 0.0
C15 C 0.35396 0.63137 1.03857 0.0
C16 C 0.44058 0.67608 1.06056 0.0
C17 C 0.42316 0.67562 0.13254 0.0
C18 C 0.04731 -0.03799 0.2598 0.0
C19 C 0.28936 0.06932 0.14696 0.0
O20 O 0.10673 0.21594 0.3463 0.0
O21 O 0.29074 0.25875 0.32042 0.0
O22 O 0.36444 -0.04299 0.31321 0.0
O23 O 0.42251 0.12253 0.24022 0.0
O24 O 0.16835 0.79824 0.41898 0.0
O25 O 0.203 -0.02113 0.43023 0.0
O26 O 0.36538 0.72068 0.26615 0.0
O27 O 0.18453 0.66848 0.28643 0.0
O28 O 0.08668 -0.03558 0.3119 0.0
O29 O 0.09902 0.89238 0.22507 0.0
O30 O 0.23331 0.13039 0.18884 0.0
O31 O 0.32079 -0.03335 0.17454 0.0
H32 H 0.30683 0.19377 0.44836 0.0
H33 H 0.26005 0.19604 0.5735 0.0
H34 H -0.02063 0.40569 0.54321 0.0
H35 H 0.02886 0.40499 0.41658 0.0
H36 H 0.15229 0.54478 0.2022 0.0
H37 H 0.18267 0.54533 1.07672 0.0
H38 H 0.5212 0.71389 1.02173 0.0
H39 H 0.49069 0.71479 0.1465 0.0
Pr40 Pr 0.85198 0.22892 0.79085 0.0
Pr41 Pr 0.09581 0.22526 0.80957 0.0
C42 C 0.65679 0.28677 0.75725 0.0
C43 C 0.63647 0.31331 0.68465 0.0
C44 C 0.58563 0.22903 0.66369 0.0
C45 C 0.58573 0.24652 0.59162 0.0
C46 C 0.63663 0.3488 0.53863 0.0
C47 C 0.68137 0.43555 0.56051 0.0
C48 C 0.681 0.4183 0.63246 0.0
C49 C -0.03325 0.0418 0.76002 0.0
C50 C 0.07484 0.28354 0.64702 0.0
C51 C 0.28719 0.18212 0.85164 0.0
C52 C 0.30554 0.16584 0.923 0.0
C53 C 0.24942 0.23205 0.96778 0.0
C54 C 0.25043 0.20491 1.03963 0.0
C55 C 0.30591 0.10982 1.06842 0.0
C56 C 0.36703 0.04706 1.0226 0.0
C57 C 0.36694 0.07516 0.95027 0.0
C58 C 0.02384 0.44231 0.7648 0.0
C59 C 0.87329 0.16763 0.95935 0.0
O60 O 0.72664 0.36067 0.76589 0.0
O61 O 0.67373 0.17988 0.78656 0.0
O62 O -0.03017 0.08149 0.8119 0.0
O63 O 0.89704 0.09346 0.72537 0.0
O64 O 0.1358 0.22745 0.68897 0.0
O65 O -0.02774 0.31522 0.67452 0.0
O66 O 0.22153 0.10125 0.84631 0.0
O67 O 0.26429 0.28526 0.82046 0.0
O68 O -0.03723 0.35907 0.81328 0.0
O69 O 0.12796 0.417 0.74004 0.0
O70 O 0.8036 0.16339 0.91897 0.0
O71 O -0.01569 0.19738 0.93032 0.0
H72 H 0.55034 0.14737 0.70234 0.0
H73 H 0.55071 0.17745 0.57692 0.0
H74 H 0.71909 0.51614 0.52162 0.0
H75 H 0.72017 0.48592 0.64634 0.0
H76 H 0.20007 0.30169 0.94829 0.0
H77 H 0.20249 0.25491 1.07338 0.0
H78 H 0.41102 -0.02657 1.04318 0.0
H79 H 0.41025 0.02298 0.91655 0.0
Pr80 Pr 0.76941 0.14634 0.20826 0.0
Pr81 Pr 0.77303 0.90249 0.18953 0.0
C82 C 0.71156 0.34153 0.24188 0.0
C83 C 0.68501 0.36184 0.31449 0.0
C84 C 0.76929 0.41268 0.33545 0.0
C85 C 0.7518 0.41258 0.40752 0.0
C86 C 0.64951 0.36167 0.46052 0.0
C87 C 0.56276 0.31695 0.43864 0.0
C88 C 0.58001 0.31731 0.36669 0.0
C89 C -0.04349 0.03153 0.23906 0.0
C90 C 0.7148 0.92348 0.35208 0.0
C91 C 0.81616 0.71111 0.14744 0.0
C92 C 0.83245 0.69277 1.07607 0.0
C93 C 0.76625 0.74889 1.0313 0.0
C94 C 0.79341 0.7479 0.95945 0.0
C95 C 0.8885 0.69241 0.93064 0.0
C96 C 0.95126 0.63129 0.97645 0.0
C97 C 0.92313 0.63137 1.04879 0.0
C98 C 0.55601 -0.0255 0.23435 0.0
C99 C 0.83066 0.12501 1.03975 0.0
O100 O 0.63766 0.27168 0.23324 0.0
O101 O 0.81845 0.32459 0.21256 0.0
O102 O 0.91682 0.02846 0.18718 0.0
O103 O 0.90488 0.10128 0.27371 0.0
O104 O 0.77085 0.86251 0.31012 0.0
O105 O 0.68313 0.02607 0.32459 0.0
O106 O 0.89703 0.77676 0.15277 0.0
O107 O 0.71302 0.73402 0.17862 0.0
O108 O 0.63925 0.03555 0.18584 0.0
O109 O 0.58129 0.87036 0.25906 0.0
O110 O 0.83493 0.1947 1.08014 0.0
O111 O 0.80092 0.01399 1.06878 0.0
H112 H 0.85096 0.44796 0.2968 0.0
H113 H 0.82086 0.44759 0.42222 0.0
H114 H 0.48217 0.27922 0.47753 0.0
H115 H 0.51239 0.27815 0.35281 0.0
H116 H 0.69662 0.79824 1.0508 0.0
H117 H 0.74342 0.79584 0.9257 0.0
H118 H 0.02488 0.5873 0.95586 0.0
H119 H -0.02469 0.58806 0.0825 0.0
Pr120 Pr 0.90802 0.76751 0.68961 0.0
Pr121 Pr 0.15183 0.76431 0.70815 0.0
C122 C 0.71674 0.81065 0.64744 0.0
C123 C 0.69855 0.82691 0.57605 0.0
C124 C 0.75502 0.76091 0.53122 0.0
C125 C 0.75409 0.78806 0.45935 0.0
C126 C 0.69832 0.88294 0.43061 0.0
C127 C 0.6369 0.94549 0.47647 0.0
C128 C 0.63692 0.91739 0.54881 0.0
C129 C -0.02006 0.55053 0.73417 0.0
C130 C 0.13038 0.82538 0.53973 0.0
C131 C 0.34717 0.707 0.74169 0.0
C132 C 0.36737 0.68023 0.81433 0.0
C133 C 0.41825 0.76436 0.83539 0.0
C134 C 0.41804 0.74669 0.9075 0.0
C135 C 0.36697 0.64439 0.96042 0.0
C136 C 0.32222 0.55779 0.93843 0.0
C137 C 0.32268 0.57521 0.86645 0.0
C138 C 0.03628 -0.049 0.73927 0.0
C139 C 0.92902 0.70897 0.8521 0.0
O140 O 0.78234 0.89151 0.65282 0.0
O141 O 0.73959 0.70751 0.67865 0.0
O142 O 0.04131 0.63384 0.68588 0.0
O143 O 0.87578 0.57577 0.75887 0.0
O144 O 0.20006 0.82998 0.58005 0.0
O145 O 0.01944 0.79525 0.56884 0.0
O146 O 0.27769 0.63299 0.73283 0.0
O147 O 0.32985 0.81385 0.71259 0.0
O148 O 0.03387 0.91162 0.68717 0.0
O149 O 0.10595 0.89934 0.77396 0.0
O150 O 0.86793 0.76498 0.81023 0.0
O151 O 0.03171 0.67759 0.82451 0.0
H152 H 0.80454 0.69144 0.55069 0.0
H153 H 0.80228 0.73825 0.42556 0.0
H154 H 0.59267 0.01895 0.45592 0.0
H155 H 0.59336 -0.03057 0.58255 0.0
H156 H 0.45364 0.84603 0.7968 0.0
H157 H 0.45309 0.81564 0.92227 0.0
H158 H 0.28438 0.47718 0.97725 0.0
H159 H 0.28348 0.5077 0.85249 0.0
loop_
_geom_bond_atom_site_label_1
_geom_bond_atom_site_label_2
_geom_bond_distance
_geom_bond_site_symmetry_2
_ccdc_geom_bond_type
Pr0 C2 2.880 . S
Pr0 O20 2.562 . S
Pr0 O21 2.490 . S
Pr0 O22 2.695 . S
Pr0 O23 2.512 . S
Pr0 O25 2.437 1_545 S
Pr0 O28 2.436 . S
Pr0 O30 2.438 . S
Pr1 C11 2.880 . S
Pr1 O22 2.436 1_565 S
Pr1 O24 2.438 . S
Pr1 O26 2.562 . S
Pr1 O27 2.490 . S
Pr1 O28 2.695 1_565 S
Pr1 O29 2.512 . S
Pr1 O31 2.437 1_565 S
C2 Pr0 2.880 . S
C2 C3 1.491 . S
C2 O20 1.254 . S
C2 O21 1.225 . S
C3 C2 1.491 . S
C3 C4 1.392 . S
C3 C8 1.356 . S
C4 C3 1.392 . S
C4 C5 1.368 . S
C4 H32 0.929 . S
C5 C4 1.368 . S
C5 C6 1.386 . S
C5 H33 0.929 . S
C6 C5 1.386 . S
C6 C7 1.373 . S
C7 C6 1.373 . S
C7 C8 1.409 . S
C7 H34 0.931 1_455 S
C8 C3 1.356 . S
C8 C7 1.409 . S
C8 H35 0.930 . S
C9 O22 1.270 . S
C9 O23 1.248 . S
C10 O24 1.267 . S
C10 O25 1.278 . S
C11 Pr1 2.880 . S
C11 C12 1.491 . S
C11 O26 1.254 . S
C11 O27 1.225 . S
C12 C11 1.491 . S
C12 C13 1.392 . S
C12 C17 1.356 1_554 S
C13 C12 1.392 . S
C13 C14 1.368 1_554 S
C13 H36 0.929 . S
C14 C13 1.368 1_556 S
C14 C15 1.386 . S
C14 H37 0.929 . S
C15 C14 1.386 . S
C15 C16 1.373 . S
C16 C15 1.373 . S
C16 C17 1.409 . S
C16 H38 0.931 . S
C17 C12 1.356 1_556 S
C17 C16 1.409 . S
C17 H39 0.930 . S
C18 O28 1.270 1_565 S
C18 O29 1.248 . S
C19 O30 1.267 . S
C19 O31 1.278 . S
O20 Pr0 2.562 . S
O20 C2 1.254 . S
O21 Pr0 2.490 . S
O21 C2 1.225 . S
O22 Pr0 2.695 . S
O22 Pr1 2.436 1_545 S
O22 C9 1.270 . S
O23 Pr0 2.512 . S
O23 C9 1.248 . S
O24 Pr1 2.438 . S
O24 C10 1.267 . S
O25 Pr0 2.437 1_565 S
O25 C10 1.278 . S
O26 Pr1 2.562 . S
O26 C11 1.254 . S
O27 Pr1 2.490 . S
O27 C11 1.225 . S
O28 Pr0 2.436 . S
O28 Pr1 2.695 1_545 S
O28 C18 1.270 1_545 S
O29 Pr1 2.512 . S
O29 C18 1.248 . S
O30 Pr0 2.438 . S
O30 C19 1.267 . S
O31 Pr1 2.437 1_545 S
O31 C19 1.278 . S
H32 C4 0.929 . S
H33 C5 0.929 . S
H34 C7 0.931 1_655 S
H35 C8 0.930 . S
H36 C13 0.929 . S
H37 C14 0.929 . S
H38 C16 0.931 . S
H39 C17 0.930 . S
Pr40 C42 2.880 . S
Pr40 O60 2.562 . S
Pr40 O61 2.490 . S
Pr40 O62 2.695 1_655 S
Pr40 O63 2.512 . S
Pr40 O65 2.437 1_655 S
Pr40 O68 2.436 1_655 S
Pr40 O70 2.438 . S
Pr41 C51 2.880 . S
Pr41 O62 2.436 . S
Pr41 O64 2.438 . S
Pr41 O66 2.562 . S
Pr41 O67 2.490 . S
Pr41 O68 2.695 . S
Pr41 O69 2.512 . S
Pr41 O71 2.437 1_455 S
C42 Pr40 2.880 . S
C42 C43 1.491 . S
C42 O60 1.254 . S
C42 O61 1.225 . S
C43 C42 1.491 . S
C43 C44 1.392 . S
C43 C48 1.356 . S
C44 C43 1.392 . S
C44 C45 1.368 . S
C44 H72 0.929 . S
C45 C44 1.368 . S
C45 C46 1.386 . S
C45 H73 0.929 . S
C46 C45 1.386 . S
C46 C47 1.373 . S
C47 C46 1.373 . S
C47 C48 1.409 . S
C47 H74 0.931 . S
C48 C43 1.356 . S
C48 C47 1.409 . S
C48 H75 0.930 . S
C49 O62 1.270 1_655 S
C49 O63 1.248 . S
C50 O64 1.267 . S
C50 O65 1.278 . S
C51 Pr41 2.880 . S
C51 C52 1.491 . S
C51 O66 1.254 . S
C51 O67 1.225 . S
C52 C51 1.491 . S
C52 C53 1.392 . S
C52 C57 1.356 . S
C53 C52 1.392 . S
C53 C54 1.368 . S
C53 H76 0.929 . S
C54 C53 1.368 . S
C54 C55 1.386 1_556 S
C54 H77 0.929 . S
C55 C54 1.386 1_554 S
C55 C56 1.373 . S
C56 C55 1.373 . S
C56 C57 1.409 1_554 S
C56 H78 0.931 1_545 S
C57 C52 1.356 . S
C57 C56 1.409 1_556 S
C57 H79 0.930 . S
C58 O68 1.270 . S
C58 O69 1.248 . S
C59 O70 1.267 . S
C59 O71 1.278 . S
O60 Pr40 2.562 . S
O60 C42 1.254 . S
O61 Pr40 2.490 . S
O61 C42 1.225 . S
O62 Pr40 2.695 1_455 S
O62 Pr41 2.436 . S
O62 C49 1.270 1_455 S
O63 Pr40 2.512 . S
O63 C49 1.248 . S
O64 Pr41 2.438 . S
O64 C50 1.267 . S
O65 Pr40 2.437 1_455 S
O65 C50 1.278 . S
O66 Pr41 2.562 . S
O66 C51 1.254 . S
O67 Pr41 2.490 . S
O67 C51 1.225 . S
O68 Pr40 2.436 1_455 S
O68 Pr41 2.695 . S
O68 C58 1.270 . S
O69 Pr41 2.512 . S
O69 C58 1.248 . S
O70 Pr40 2.438 . S
O70 C59 1.267 . S
O71 Pr41 2.437 1_655 S
O71 C59 1.278 . S
H72 C44 0.929 . S
H73 C45 0.929 . S
H74 C47 0.931 . S
H75 C48 0.930 . S
H76 C53 0.929 . S
H77 C54 0.929 . S
H78 C56 0.931 1_565 S
H79 C57 0.930 . S
Pr80 C82 2.880 . S
Pr80 O100 2.562 . S
Pr80 O101 2.490 . S
Pr80 O102 2.695 . S
Pr80 O103 2.512 1_655 S
Pr80 O105 2.437 . S
Pr80 O108 2.436 . S
Pr80 O110 2.438 . S
Pr81 C91 2.880 1_554 S
Pr81 O102 2.436 1_565 S
Pr81 O104 2.438 . S
Pr81 O106 2.562 1_554 S
Pr81 O107 2.490 . S
Pr81 O108 2.695 1_565 S
Pr81 O109 2.512 . S
Pr81 O111 2.437 1_565 S
C82 Pr80 2.880 . S
C82 C83 1.491 . S
C82 O100 1.254 . S
C82 O101 1.225 . S
C83 C82 1.491 . S
C83 C84 1.392 . S
C83 C88 1.356 . S
C84 C83 1.392 . S
C84 C85 1.368 . S
C84 H112 0.929 . S
C85 C84 1.368 . S
C85 C86 1.386 . S
C85 H113 0.929 . S
C86 C85 1.386 . S
C86 C87 1.373 . S
C87 C86 1.373 . S
C87 C88 1.409 . S
C87 H114 0.931 . S
C88 C83 1.356 . S
C88 C87 1.409 . S
C88 H115 0.930 . S
C89 O102 1.270 1_455 S
C89 O103 1.248 . S
C90 O104 1.267 . S
C90 O105 1.278 1_565 S
C91 Pr81 2.880 1_556 S
C91 C92 1.491 . S
C91 O106 1.254 . S
C91 O107 1.225 1_556 S
C92 C91 1.491 . S
C92 C93 1.392 . S
C92 C97 1.356 1_655 S
C93 C92 1.392 . S
C93 C94 1.368 . S
C93 H116 0.929 . S
C94 C93 1.368 . S
C94 C95 1.386 . S
C94 H117 0.929 . S
C95 C94 1.386 . S
C95 C96 1.373 1_655 S
C96 C95 1.373 1_455 S
C96 C97 1.409 . S
C96 H118 0.931 . S
C97 C92 1.356 1_455 S
C97 C96 1.409 . S
C97 H119 0.930 . S
C98 O108 1.270 . S
C98 O109 1.248 1_545 S
C99 O110 1.267 1_556 S
C99 O111 1.278 1_556 S
O100 Pr80 2.562 . S
O100 C82 1.254 . S
O101 Pr80 2.490 . S
O101 C82 1.225 . S
O102 Pr80 2.695 . S
O102 Pr81 2.436 1_545 S
O102 C89 1.270 1_655 S
O103 Pr80 2.512 1_455 S
O103 C89 1.248 . S
O104 Pr81 2.438 . S
O104 C90 1.267 . S
O105 Pr80 2.437 . S
O105 C90 1.278 1_545 S
O106 Pr81 2.562 1_556 S
O106 C91 1.254 . S
O107 Pr81 2.490 . S
O107 C91 1.225 1_554 S
O108 Pr80 2.436 . S
O108 Pr81 2.695 1_545 S
O108 C98 1.270 . S
O109 Pr81 2.512 . S
O109 C98 1.248 1_565 S
O110 Pr80 2.438 . S
O110 C99 1.267 1_554 S
O111 Pr81 2.437 1_545 S
O111 C99 1.278 1_554 S
H112 C84 0.929 . S
H113 C85 0.929 . S
H114 C87 0.931 . S
H115 C88 0.930 . S
H116 C93 0.929 . S
H117 C94 0.929 . S
H118 C96 0.931 . S
H119 C97 0.930 . S
Pr120 C122 2.880 . S
Pr120 O140 2.562 . S
Pr120 O141 2.490 . S
Pr120 O142 2.695 1_655 S
Pr120 O143 2.512 . S
Pr120 O145 2.437 1_655 S
Pr120 O148 2.436 1_655 S
Pr120 O150 2.438 . S
Pr121 C131 2.880 . S
Pr121 O142 2.436 . S
Pr121 O144 2.438 . S
Pr121 O146 2.562 . S
Pr121 O147 2.490 . S
Pr121 O148 2.695 . S
Pr121 O149 2.512 1_565 S
Pr121 O151 2.437 . S
C122 Pr120 2.880 . S
C122 C123 1.491 . S
C122 O140 1.254 . S
C122 O141 1.225 . S
C123 C122 1.491 . S
C123 C124 1.392 . S
C123 C128 1.356 1_565 S
C124 C123 1.392 . S
C124 C125 1.368 . S
C124 H152 0.929 . S
C125 C124 1.368 . S
C125 C126 1.386 . S
C125 H153 0.929 . S
C126 C125 1.386 . S
C126 C127 1.373 1_565 S
C127 C126 1.373 1_545 S
C127 C128 1.409 . S
C127 H154 0.931 . S
C128 C123 1.356 1_545 S
C128 C127 1.409 . S
C128 H155 0.930 . S
C129 O142 1.270 . S
C129 O143 1.248 1_455 S
C130 O144 1.267 . S
C130 O145 1.278 . S
C131 Pr121 2.880 . S
C131 C132 1.491 . S
C131 O146 1.254 . S
C131 O147 1.225 . S
C132 C131 1.491 . S
C132 C133 1.392 . S
C132 C137 1.356 . S
C133 C132 1.392 . S
C133 C134 1.368 . S
C133 H156 0.929 . S
C134 C133 1.368 . S
C134 C135 1.386 . S
C134 H157 0.929 . S
C135 C134 1.386 . S
C135 C136 1.373 . S
C136 C135 1.373 . S
C136 C137 1.409 . S
C136 H158 0.931 . S
C137 C132 1.356 . S
C137 C136 1.409 . S
C137 H159 0.930 . S
C138 O148 1.270 1_545 S
C138 O149 1.248 . S
C139 O150 1.267 . S
C139 O151 1.278 1_655 S
O140 Pr120 2.562 . S
O140 C122 1.254 . S
O141 Pr120 2.490 . S
O141 C122 1.225 . S
O142 Pr120 2.695 1_455 S
O142 Pr121 2.436 . S
O142 C129 1.270 . S
O143 Pr120 2.512 . S
O143 C129 1.248 1_655 S
O144 Pr121 2.438 . S
O144 C130 1.267 . S
O145 Pr120 2.437 1_455 S
O145 C130 1.278 . S
O146 Pr121 2.562 . S
O146 C131 1.254 . S
O147 Pr121 2.490 . S
O147 C131 1.225 . S
O148 Pr120 2.436 1_455 S
O148 Pr121 2.695 . S
O148 C138 1.270 1_565 S
O149 Pr121 2.512 1_545 S
O149 C138 1.248 . S
O150 Pr120 2.438 . S
O150 C139 1.267 . S
O151 Pr121 2.437 . S
O151 C139 1.278 1_455 S
H152 C124 0.929 . S
H153 C125 0.929 . S
H154 C127 0.931 . S
H155 C128 0.930 . S
H156 C133 0.929 . S
H157 C134 0.929 . S
H158 C136 0.931 . S
H159 C137 0.930 . S
C89 C18 3.936 1_545 S
C138 C49 3.936 1_455 S
C98 C9 1.650 . S
C58 C129 1.650 . S
C50 C6 1.749 . S
C59 C99 2.883 . S
C126 C90 1.749 . S
C135 C15 0.878 . S
C95 C139 1.749 . S
C10 C130 2.883 . S
C55 C19 1.749 . S
C86 C46 0.878 . S
