# Generated by pormake.
# Topology hcp, (12)-cn, num edge types: 1
# Building blocks:
#     Node 0, Type 0, BuildingBlock: UKIBUN_clean_sbu_0, # of connection points: 12
#     Node 1, Type 0, BuildingBlock: UKIBUN_clean_sbu_0, # of connection points: 12
#     Edge 2, Type (0, 0), BuildingBlock: EYOCIG_clean_linker_4, # of connection points: 2
#     Edge 3, Type (0, 0), BuildingBlock: EYOCIG_clean_linker_4, # of connection points: 2
#     Edge 4, Type (0, 0), BuildingBlock: EYOCIG_clean_linker_4, # of connection points: 2
#     Edge 5, Type (0, 0), BuildingBlock: EYOCIG_clean_linker_4, # of connection points: 2
#     Edge 6, Type (0, 0), BuildingBlock: EYOCIG_clean_linker_4, # of connection points: 2
#     Edge 7, Type (0, 0), BuildingBlock: EYOCIG_clean_linker_4, # of connection points: 2
#     Edge 8, Type (0, 0), BuildingBlock: EYOCIG_clean_linker_4, # of connection points: 2
#     Edge 9, Type (0, 0), BuildingBlock: EYOCIG_clean_linker_4, # of connection points: 2
#     Edge 10, Type (0, 0), BuildingBlock: EYOCIG_clean_linker_4, # of connection points: 2
#     Edge 11, Type (0, 0), BuildingBlock: EYOCIG_clean_linker_4, # of connection points: 2
#     Edge 12, Type (0, 0), BuildingBlock: EYOCIG_clean_linker_4, # of connection points: 2
#     Edge 13, Type (0, 0), BuildingBlock: EYOCIG_clean_linker_4, # of connection points: 2
# Relax obj value: 0.181
# Max RMSD: 0.266
# Mean RMSD: 0.266
data_MOF--net-hcp--node1-UKIBUN_clean_sbu_0--edge1-EYOCIG_clean_linker_4
_symmetry_space_group_name_H-M    P1
_symmetry_Int_Tables_number       1
_symmetry_cell_setting            triclinic
loop_
_symmetry_equiv_pos_as_xyz
'x, y, z'
_cell_length_a     15.184668
_cell_length_b     15.185683
_cell_length_c     23.610528
_cell_angle_alpha  90.003864
_cell_angle_beta   89.993914
_cell_angle_gamma 120.00819
loop_
_atom_site_label
_atom_site_type_symbol
_atom_site_fract_x
_atom_site_fract_y
_atom_site_fract_z
_atom_type_partial_charge
C0 C 0.95556 0.58793 0.29122 0.0
C1 C 0.91184 0.27442 0.27737 0.0
O2 O 0.74174 0.4585 0.31075 0.0
O3 O 0.648 0.3212 0.19706 0.0
O4 O 0.60483 0.41323 0.25613 0.0
O5 O 0.78321 0.36434 0.25611 0.0
Hf6 Hf 0.74732 0.46706 0.22372 0.0
O7 O 0.64797 0.32112 0.36611 0.0
Hf8 Hf 0.79358 0.36693 0.34256 0.0
O9 O 0.51063 0.27754 0.31073 0.0
Hf10 Hf 0.60219 0.42094 0.34259 0.0
O11 O 0.69157 0.22741 0.31071 0.0
Hf12 Hf 0.50212 0.27463 0.2237 0.0
Hf13 Hf 0.69454 0.22187 0.22368 0.0
O14 O 0.55591 0.18594 0.25609 0.0
Hf15 Hf 0.54815 0.17553 0.34255 0.0
C16 C 0.50113 0.11365 0.13757 0.0
C17 C 0.77766 0.49963 0.44054 0.0
C18 C 0.38125 0.362 0.29119 0.0
C19 C 0.69478 0.63178 0.27746 0.0
O20 O 0.73915 0.60813 0.23838 0.0
O21 O 0.85063 0.45834 0.15865 0.0
C22 C 0.85557 0.38194 0.13759 0.0
O23 O 0.55957 0.03588 0.32893 0.0
O24 O 0.36098 0.1254 0.23835 0.0
O25 O 0.5109 0.38667 0.15864 0.0
O26 O 0.46802 0.19265 0.41892 0.0
O27 O 0.7764 0.2696 0.4189 0.0
O28 O 0.93325 0.51804 0.329 0.0
O29 O 0.8438 0.23004 0.23831 0.0
O30 O 0.5825 0.11861 0.15861 0.0
C31 C 0.46935 0.27218 0.4405 0.0
O32 O 0.45112 0.40954 0.329 0.0
O33 O 0.69946 0.50099 0.41898 0.0
C34 C 0.60717 0.0136 0.29114 0.0
O35 O 0.60773 0.14666 0.4191 0.0
O36 O 0.68113 0.50273 0.15067 0.0
O37 O 0.89979 0.58323 0.2493 0.0
O38 O 0.3926 0.06303 0.31977 0.0
O39 O 0.65825 0.0694 0.24923 0.0
O40 O 0.51371 0.36128 0.41914 0.0
C41 C 0.33731 0.05735 0.2774 0.0
O42 O 0.64522 0.57649 0.31985 0.0
O43 O 0.8224 0.4553 0.41915 0.0
O44 O 0.79641 0.28813 0.15063 0.0
O45 O 0.38597 0.31095 0.24927 0.0
O46 O 0.46645 0.17276 0.15064 0.0
O47 O 0.90612 0.32397 0.31976 0.0
C48 C 0.69684 0.19138 0.44046 0.0
C49 C 0.58733 0.46804 0.1376 0.0
C50 C 0.49328 0.70334 0.9405 0.0
C51 C 0.26582 0.78416 0.94049 0.0
O52 O 0.45204 0.69802 0.81072 0.0
O53 O 0.22093 0.51706 0.81074 0.0
O54 O 0.35784 0.56234 0.75612 0.0
O55 O 0.31469 0.65443 0.86611 0.0
Hf56 Hf 0.36047 0.55462 0.84257 0.0
O57 O 0.40677 0.78962 0.7561 0.0
Hf58 Hf 0.41452 0.80003 0.84255 0.0
O59 O 0.31468 0.65437 0.69706 0.0
Hf60 Hf 0.46056 0.70094 0.72369 0.0
O61 O 0.27109 0.74816 0.81072 0.0
Hf62 Hf 0.21535 0.50851 0.72372 0.0
Hf63 Hf 0.16908 0.60863 0.84257 0.0
O64 O 0.17946 0.61123 0.75612 0.0
Hf65 Hf 0.26814 0.7537 0.72369 0.0
C66 C 0.00709 0.38765 0.79121 0.0
C67 C 0.62535 0.91823 0.77739 0.0
C68 C 0.37535 0.50753 0.63759 0.0
C69 C 0.58144 0.61361 0.79118 0.0
O70 O 0.51156 0.56605 0.82898 0.0
O71 O 0.26319 0.47453 0.91895 0.0
C72 C 0.18499 0.47589 0.94052 0.0
O73 O 0.1189 0.74556 0.73835 0.0
O74 O 0.11204 0.51722 0.65866 0.0
O75 O 0.22353 0.36743 0.73837 0.0
O76 O 0.38017 0.85694 0.6586 0.0
O77 O 0.40309 0.93968 0.82895 0.0
O78 O 0.49462 0.78288 0.91892 0.0
O79 O 0.18626 0.70594 0.91893 0.0
O80 O 0.0294 0.45754 0.829 0.0
C81 C 0.46154 0.86189 0.63755 0.0
O82 O 0.45178 0.58889 0.65863 0.0
O83 O 0.60168 0.85019 0.73833 0.0
C84 C 0.05086 0.70119 0.77741 0.0
O85 O 0.30445 0.90618 0.74924 0.0
O86 O 0.31747 0.39908 0.81981 0.0
O87 O 0.44892 0.61424 0.91913 0.0
O88 O 0.16623 0.68743 0.65065 0.0
O89 O 0.05656 0.65162 0.81979 0.0
O90 O 0.49622 0.80279 0.65063 0.0
C91 C 0.10709 0.59363 0.63761 0.0
O92 O 0.57672 0.66465 0.74926 0.0
O93 O 0.57006 0.91254 0.81977 0.0
O94 O 0.14026 0.52023 0.91915 0.0
O95 O 0.28155 0.47286 0.65065 0.0
O96 O 0.06288 0.39234 0.7493 0.0
O97 O 0.35492 0.82889 0.91911 0.0
C98 C 0.35552 0.96198 0.79115 0.0
C99 C 0.26791 0.34379 0.77743 0.0
C100 C 0.30398 0.88652 1.03294 0.0
C101 C 0.26324 0.82725 0.99427 0.0
C102 C 0.37435 0.96298 0.07035 0.0
C103 C 0.43608 0.02941 0.10097 0.0
C104 C 0.39919 0.38071 0.5704 0.0
C105 C 0.39453 0.44247 0.601 0.0
C106 C 0.40523 0.31032 0.53298 0.0
C107 C 0.42372 0.26958 0.4943 0.0
C108 C 0.00627 0.40581 0.07041 0.0
C109 C 0.93984 0.40114 0.10101 0.0
C110 C 0.08271 0.41183 1.033 0.0
C111 C 0.14195 0.4303 0.99433 0.0
C112 C 0.58831 0.01254 0.57033 0.0
C113 C 0.52658 0.94612 0.60095 0.0
C114 C 0.65867 0.08901 0.53291 0.0
C115 C 0.69941 0.14828 0.49424 0.0
C116 C 0.56347 0.59482 0.07039 0.0
C117 C 0.56815 0.53309 0.101 0.0
C118 C 0.55741 0.66519 1.03297 0.0
C119 C 0.5389 0.70593 0.99429 0.0
C120 C 0.87995 0.56368 0.53302 0.0
C121 C 0.8207 0.54521 0.49435 0.0
C122 C 0.95639 0.56972 0.57043 0.0
C123 C 0.02283 0.57441 0.60103 0.0
C124 C 0.63519 0.85799 0.29078 0.0
C125 C 0.61371 0.92357 0.29721 0.0
C126 C 0.6689 0.78872 0.27915 0.0
C127 C 0.68919 0.72243 0.27212 0.0
C128 C 0.86805 0.67535 0.77913 0.0
C129 C 0.95463 0.69564 0.77208 0.0
C130 C 0.76508 0.64163 0.7908 0.0
C131 C 0.67801 0.62014 0.79725 0.0
C132 C 0.18034 0.87455 0.27914 0.0
C133 C 0.24661 0.96113 0.27207 0.0
C134 C 0.11115 0.77158 0.29083 0.0
C135 C 0.0456 0.6845 0.29729 0.0
C136 C 0.2938 0.18685 0.77913 0.0
C137 C 0.2735 0.25313 0.77209 0.0
C138 C 0.32751 0.11759 0.79077 0.0
C139 C 0.34899 0.05201 0.79721 0.0
C140 C 0.19763 0.33403 0.29078 0.0
C141 C 0.28469 0.3555 0.29725 0.0
C142 C 0.09467 0.3003 0.27909 0.0
C143 C 0.00808 0.27999 0.27203 0.0
C144 C 0.85149 0.20401 0.79082 0.0
C145 C 0.91704 0.29109 0.79729 0.0
C146 C 0.7823 0.10105 0.77912 0.0
C147 C 0.71603 0.01446 0.77205 0.0
loop_
_geom_bond_atom_site_label_1
_geom_bond_atom_site_label_2
_geom_bond_distance
_geom_bond_site_symmetry_2
_ccdc_geom_bond_type
C0 O28 1.281 . S
C0 O37 1.281 . S
C1 O29 1.281 . S
C1 O47 1.281 . S
O2 Hf6 2.202 . S
O2 Hf8 2.202 . S
O2 Hf10 2.202 . S
O3 Hf6 2.202 . S
O3 Hf12 2.202 . S
O3 Hf13 2.202 . S
O4 Hf6 2.072 . S
O4 Hf10 2.072 . S
O4 Hf12 2.072 . S
O5 Hf6 2.072 . S
O5 Hf8 2.072 . S
O5 Hf13 2.072 . S
Hf6 O2 2.202 . S
Hf6 O3 2.202 . S
Hf6 O4 2.072 . S
Hf6 O5 2.072 . S
Hf6 O20 2.209 . S
Hf6 O21 2.209 . S
Hf6 O36 2.209 . S
Hf6 O37 2.209 . S
O7 Hf8 2.072 . S
O7 Hf10 2.072 . S
O7 Hf15 2.072 . S
Hf8 O2 2.202 . S
Hf8 O5 2.072 . S
Hf8 O7 2.072 . S
Hf8 O11 2.202 . S
Hf8 O27 2.209 . S
Hf8 O28 2.209 . S
Hf8 O43 2.209 . S
Hf8 O47 2.209 . S
O9 Hf10 2.202 . S
O9 Hf12 2.202 . S
O9 Hf15 2.202 . S
Hf10 O2 2.202 . S
Hf10 O4 2.072 . S
Hf10 O7 2.072 . S
Hf10 O9 2.202 . S
Hf10 O32 2.209 . S
Hf10 O33 2.209 . S
Hf10 O40 2.209 . S
Hf10 O42 2.209 . S
O11 Hf8 2.202 . S
O11 Hf13 2.202 . S
O11 Hf15 2.202 . S
Hf12 O3 2.202 . S
Hf12 O4 2.072 . S
Hf12 O9 2.202 . S
Hf12 O14 2.072 . S
Hf12 O24 2.209 . S
Hf12 O25 2.209 . S
Hf12 O45 2.209 . S
Hf12 O46 2.209 . S
Hf13 O3 2.202 . S
Hf13 O5 2.072 . S
Hf13 O11 2.202 . S
Hf13 O14 2.072 . S
Hf13 O29 2.209 . S
Hf13 O30 2.209 . S
Hf13 O39 2.209 . S
Hf13 O44 2.209 . S
O14 Hf12 2.072 . S
O14 Hf13 2.072 . S
O14 Hf15 2.072 . S
Hf15 O7 2.072 . S
Hf15 O9 2.202 . S
Hf15 O11 2.202 . S
Hf15 O14 2.072 . S
Hf15 O23 2.209 . S
Hf15 O26 2.209 . S
Hf15 O35 2.209 . S
Hf15 O38 2.209 . S
C16 O30 1.281 . S
C16 O46 1.281 . S
C17 O33 1.281 . S
C17 O43 1.281 . S
C18 O32 1.281 . S
C18 O45 1.281 . S
C19 O20 1.281 . S
C19 O42 1.281 . S
O20 Hf6 2.209 . S
O20 C19 1.281 . S
O21 Hf6 2.209 . S
O21 C22 1.281 . S
C22 O21 1.281 . S
C22 O44 1.281 . S
O23 Hf15 2.209 . S
O23 C34 1.281 . S
O24 Hf12 2.209 . S
O24 C41 1.281 . S
O25 Hf12 2.209 . S
O25 C49 1.281 . S
O26 Hf15 2.209 . S
O26 C31 1.281 . S
O27 Hf8 2.209 . S
O27 C48 1.281 . S
O28 C0 1.281 . S
O28 Hf8 2.209 . S
O29 C1 1.281 . S
O29 Hf13 2.209 . S
O30 Hf13 2.209 . S
O30 C16 1.281 . S
C31 O26 1.281 . S
C31 O40 1.281 . S
O32 Hf10 2.209 . S
O32 C18 1.281 . S
O33 Hf10 2.209 . S
O33 C17 1.281 . S
C34 O23 1.281 . S
C34 O39 1.281 . S
O35 Hf15 2.209 . S
O35 C48 1.281 . S
O36 Hf6 2.209 . S
O36 C49 1.281 . S
O37 C0 1.281 . S
O37 Hf6 2.209 . S
O38 Hf15 2.209 . S
O38 C41 1.281 . S
O39 Hf13 2.209 . S
O39 C34 1.281 . S
O40 Hf10 2.209 . S
O40 C31 1.281 . S
C41 O24 1.281 . S
C41 O38 1.281 . S
O42 Hf10 2.209 . S
O42 C19 1.281 . S
O43 Hf8 2.209 . S
O43 C17 1.281 . S
O44 Hf13 2.209 . S
O44 C22 1.281 . S
O45 Hf12 2.209 . S
O45 C18 1.281 . S
O46 Hf12 2.209 . S
O46 C16 1.281 . S
O47 C1 1.281 . S
O47 Hf8 2.209 . S
C48 O27 1.281 . S
C48 O35 1.281 . S
C49 O25 1.281 . S
C49 O36 1.281 . S
C50 O78 1.281 . S
C50 O87 1.281 . S
C51 O79 1.281 . S
C51 O97 1.281 . S
O52 Hf56 2.202 . S
O52 Hf58 2.202 . S
O52 Hf60 2.202 . S
O53 Hf56 2.202 . S
O53 Hf62 2.202 . S
O53 Hf63 2.202 . S
O54 Hf56 2.072 . S
O54 Hf60 2.072 . S
O54 Hf62 2.072 . S
O55 Hf56 2.072 . S
O55 Hf58 2.072 . S
O55 Hf63 2.072 . S
Hf56 O52 2.202 . S
Hf56 O53 2.202 . S
Hf56 O54 2.072 . S
Hf56 O55 2.072 . S
Hf56 O70 2.209 . S
Hf56 O71 2.209 . S
Hf56 O86 2.209 . S
Hf56 O87 2.209 . S
O57 Hf58 2.072 . S
O57 Hf60 2.072 . S
O57 Hf65 2.072 . S
Hf58 O52 2.202 . S
Hf58 O55 2.072 . S
Hf58 O57 2.072 . S
Hf58 O61 2.202 . S
Hf58 O77 2.209 . S
Hf58 O78 2.209 . S
Hf58 O93 2.209 . S
Hf58 O97 2.209 . S
O59 Hf60 2.202 . S
O59 Hf62 2.202 . S
O59 Hf65 2.202 . S
Hf60 O52 2.202 . S
Hf60 O54 2.072 . S
Hf60 O57 2.072 . S
Hf60 O59 2.202 . S
Hf60 O82 2.209 . S
Hf60 O83 2.209 . S
Hf60 O90 2.209 . S
Hf60 O92 2.209 . S
O61 Hf58 2.202 . S
O61 Hf63 2.202 . S
O61 Hf65 2.202 . S
Hf62 O53 2.202 . S
Hf62 O54 2.072 . S
Hf62 O59 2.202 . S
Hf62 O64 2.072 . S
Hf62 O74 2.209 . S
Hf62 O75 2.209 . S
Hf62 O95 2.209 . S
Hf62 O96 2.209 . S
Hf63 O53 2.202 . S
Hf63 O55 2.072 . S
Hf63 O61 2.202 . S
Hf63 O64 2.072 . S
Hf63 O79 2.209 . S
Hf63 O80 2.209 . S
Hf63 O89 2.209 . S
Hf63 O94 2.209 . S
O64 Hf62 2.072 . S
O64 Hf63 2.072 . S
O64 Hf65 2.072 . S
Hf65 O57 2.072 . S
Hf65 O59 2.202 . S
Hf65 O61 2.202 . S
Hf65 O64 2.072 . S
Hf65 O73 2.209 . S
Hf65 O76 2.209 . S
Hf65 O85 2.209 . S
Hf65 O88 2.209 . S
C66 O80 1.281 . S
C66 O96 1.281 . S
C67 O83 1.281 . S
C67 O93 1.281 . S
C68 O82 1.281 . S
C68 O95 1.281 . S
C69 O70 1.281 . S
C69 O92 1.281 . S
O70 Hf56 2.209 . S
O70 C69 1.281 . S
O71 Hf56 2.209 . S
O71 C72 1.281 . S
C72 O71 1.281 . S
C72 O94 1.281 . S
O73 Hf65 2.209 . S
O73 C84 1.281 . S
O74 Hf62 2.209 . S
O74 C91 1.281 . S
O75 Hf62 2.209 . S
O75 C99 1.281 . S
O76 Hf65 2.209 . S
O76 C81 1.281 . S
O77 Hf58 2.209 . S
O77 C98 1.281 . S
O78 C50 1.281 . S
O78 Hf58 2.209 . S
O79 C51 1.281 . S
O79 Hf63 2.209 . S
O80 Hf63 2.209 . S
O80 C66 1.281 . S
C81 O76 1.281 . S
C81 O90 1.281 . S
O82 Hf60 2.209 . S
O82 C68 1.281 . S
O83 Hf60 2.209 . S
O83 C67 1.281 . S
C84 O73 1.281 . S
C84 O89 1.281 . S
O85 Hf65 2.209 . S
O85 C98 1.281 . S
O86 Hf56 2.209 . S
O86 C99 1.281 . S
O87 C50 1.281 . S
O87 Hf56 2.209 . S
O88 Hf65 2.209 . S
O88 C91 1.281 . S
O89 Hf63 2.209 . S
O89 C84 1.281 . S
O90 Hf60 2.209 . S
O90 C81 1.281 . S
C91 O74 1.281 . S
C91 O88 1.281 . S
O92 Hf60 2.209 . S
O92 C69 1.281 . S
O93 Hf58 2.209 . S
O93 C67 1.281 . S
O94 Hf63 2.209 . S
O94 C72 1.281 . S
O95 Hf62 2.209 . S
O95 C68 1.281 . S
O96 Hf62 2.209 . S
O96 C66 1.281 . S
O97 C51 1.281 . S
O97 Hf58 2.209 . S
C98 O77 1.281 . S
C98 O85 1.281 . S
C99 O75 1.281 . S
C99 O86 1.281 . S
C100 C101 1.170 . S
C100 C102 1.380 1_556 S
C101 C100 1.170 . S
C102 C100 1.380 1_554 S
C102 C103 1.170 1_565 S
C103 C102 1.170 1_545 S
C104 C105 1.170 . S
C104 C106 1.380 . S
C105 C104 1.170 . S
C106 C104 1.380 . S
C106 C107 1.170 . S
C107 C106 1.170 . S
C108 C109 1.170 1_455 S
C108 C110 1.380 1_554 S
C109 C108 1.170 1_655 S
C110 C108 1.380 1_556 S
C110 C111 1.170 . S
C111 C110 1.170 . S
C112 C113 1.170 1_545 S
C112 C114 1.380 . S
C113 C112 1.170 1_565 S
C114 C112 1.380 . S
C114 C115 1.170 . S
C115 C114 1.170 . S
C116 C117 1.170 . S
C116 C118 1.380 1_554 S
C117 C116 1.170 . S
C118 C116 1.380 1_556 S
C118 C119 1.170 . S
C119 C118 1.170 . S
C120 C121 1.170 . S
C120 C122 1.380 . S
C121 C120 1.170 . S
C122 C120 1.380 . S
C122 C123 1.170 1_655 S
C123 C122 1.170 1_455 S
C124 C125 1.170 . S
C124 C126 1.380 . S
C125 C124 1.170 . S
C126 C124 1.380 . S
C126 C127 1.170 . S
C127 C126 1.170 . S
C128 C129 1.170 . S
C128 C130 1.380 . S
C129 C128 1.170 . S
C130 C128 1.380 . S
C130 C131 1.170 . S
C131 C130 1.170 . S
C132 C133 1.170 . S
C132 C134 1.380 . S
C133 C132 1.170 . S
C134 C132 1.380 . S
C134 C135 1.170 . S
C135 C134 1.170 . S
C136 C137 1.170 . S
C136 C138 1.380 . S
C137 C136 1.170 . S
C138 C136 1.380 . S
C138 C139 1.170 . S
C139 C138 1.170 . S
C140 C141 1.170 . S
C140 C142 1.380 . S
C141 C140 1.170 . S
C142 C140 1.380 . S
C142 C143 1.170 . S
C143 C142 1.170 . S
C144 C145 1.170 . S
C144 C146 1.380 . S
C145 C144 1.170 . S
C146 C144 1.380 . S
C146 C147 1.170 . S
C147 C146 1.170 . S
C101 C51 1.748 . S
C103 C16 1.887 . S
C105 C68 1.882 . S
C107 C31 1.769 . S
C109 C22 1.894 . S
C111 C72 1.728 . S
C113 C81 1.884 . S
C115 C48 1.767 . S
C117 C49 1.890 . S
C119 C50 1.738 . S
C121 C17 1.744 . S
C123 C91 1.888 . S
C125 C34 1.212 1_565 S
C127 C19 1.244 . S
C129 C84 1.235 1_655 S
C131 C69 1.234 . S
C133 C41 1.248 1_565 S
C135 C0 1.209 1_455 S
C137 C99 1.227 . S
C139 C98 1.242 1_545 S
C141 C18 1.239 . S
C143 C1 1.225 1_455 S
C145 C66 1.241 1_655 S
C147 C67 1.224 1_545 S
