# Generated by pormake.
# Topology cab, (5)-cn, num edge types: 1
# Building blocks:
#     Node 0, Type 0, BuildingBlock: XOMCOT_clean_sbu_0, # of connection points: 5
#     Node 1, Type 0, BuildingBlock: XOMCOT_clean_sbu_0, # of connection points: 5
#     Node 2, Type 0, BuildingBlock: XOMCOT_clean_sbu_0, # of connection points: 5
#     Node 3, Type 0, BuildingBlock: XOMCOT_clean_sbu_0, # of connection points: 5
#     Node 4, Type 0, BuildingBlock: XOMCOT_clean_sbu_0, # of connection points: 5
#     Node 5, Type 0, BuildingBlock: XOMCOT_clean_sbu_0, # of connection points: 5
#     Edge 6, Type (0, 0), None
#     Edge 7, Type (0, 0), None
#     Edge 8, Type (0, 0), None
#     Edge 9, Type (0, 0), None
#     Edge 10, Type (0, 0), None
#     Edge 11, Type (0, 0), None
#     Edge 12, Type (0, 0), None
#     Edge 13, Type (0, 0), None
#     Edge 14, Type (0, 0), None
#     Edge 15, Type (0, 0), None
#     Edge 16, Type (0, 0), None
#     Edge 17, Type (0, 0), None
#     Edge 18, Type (0, 0), None
#     Edge 19, Type (0, 0), None
#     Edge 20, Type (0, 0), None
# Relax obj value: 0.896
# Max RMSD: 0.247
# Mean RMSD: 0.244
data_MOF--net-cab--node1-XOMCOT_clean_sbu_0--edge1-none
_symmetry_space_group_name_H-M    P1
_symmetry_Int_Tables_number       1
_symmetry_cell_setting            triclinic
loop_
_symmetry_equiv_pos_as_xyz
'x, y, z'
_cell_length_a     19.065304
_cell_length_b     19.340257
_cell_length_c     19.384458
_cell_angle_alpha  74.775747
_cell_angle_beta   74.884309
_cell_angle_gamma 75.985297
loop_
_atom_site_label
_atom_site_type_symbol
_atom_site_fract_x
_atom_site_fract_y
_atom_site_fract_z
_atom_type_partial_charge
Co0 Co 0.03821 0.00797 0.345 0.0
C1 C 0.105 0.85252 0.35221 0.0
C2 C 0.98894 0.86537 0.39671 0.0
C3 C 0.01456 0.79597 0.38371 0.0
N4 N 0.0454 0.90218 0.37384 0.0
N5 N 0.08751 0.78867 0.35397 0.0
H6 H 0.15848 0.86525 0.32399 0.0
H7 H 0.93167 0.88894 0.41375 0.0
C8 C 0.87259 0.02377 0.34802 0.0
O9 O 0.85019 0.01476 0.41926 0.0
N10 N 0.03209 0.1123 0.31222 0.0
C11 C 0.05861 0.15901 0.33545 0.0
C12 C 0.05234 0.22566 0.28661 0.0
C13 C 0.01249 0.14983 0.24931 0.0
N14 N 0.02487 0.2185 0.23202 0.0
C15 C 0.02888 0.97125 0.49717 0.0
C16 C 0.96179 0.11082 0.51456 0.0
C17 C 0.00969 0.06829 0.56056 0.0
C18 C 0.03466 -0.00551 0.55693 0.0
C19 C 0.95264 0.08313 0.45843 0.0
N20 N 0.99475 0.01827 0.44477 0.0
H21 H 0.06066 0.91869 0.48887 0.0
H22 H 0.92175 0.11909 0.41907 0.0
H23 H 0.08435 0.14457 0.38214 0.0
H24 H 0.99484 0.12533 0.21398 0.0
O25 O 0.14063 -0.0001 0.3479 0.0
O26 O 0.0997 -0.0024 0.25101 0.0
O27 O 0.94092 0.01936 0.31716 0.0
C28 C 0.15485 -0.00184 0.27875 0.0
H29 H 0.98028 0.75815 0.38533 0.0
H30 H 0.07306 0.27279 0.28746 0.0
H31 H 0.93691 0.1669 0.51647 0.0
H32 H 0.06498 0.95616 0.59548 0.0
Co33 Co 0.09323 0.15872 0.80387 0.0
C34 C 0.96994 0.13967 0.92591 0.0
C35 C 0.92611 0.16294 0.82973 0.0
C36 C 0.87025 0.14843 0.89003 0.0
N37 N 0.9894 0.15745 0.85222 0.0
N38 N 0.89849 0.13414 0.94996 0.0
H39 H 0.00849 0.12705 0.9617 0.0
H40 H 0.91889 0.17327 0.77469 0.0
C41 C 0.07864 0.00249 0.84463 0.0
O42 O 0.02542 0.02049 0.80808 0.0
N43 N 0.19818 0.15629 0.76262 0.0
C44 C 0.23317 0.21269 0.72773 0.0
C45 C 0.30701 0.19121 0.7318 0.0
C46 C 0.25168 0.10137 0.78514 0.0
N47 N 0.31837 0.12077 0.7671 0.0
C48 C 0.02949 0.19005 0.67756 0.0
C49 C 0.10419 0.06371 0.63208 0.0
C50 C 0.03876 0.10011 0.6075 0.0
C51 C 0.00445 0.16745 0.62696 0.0
C52 C 0.12408 0.08629 0.68538 0.0
N53 N 0.08096 0.14383 0.71337 0.0
H54 H 0.00155 0.24062 0.69431 0.0
H55 H 0.1707 0.05403 0.70821 0.0
H56 H 0.20593 0.26774 0.70832 0.0
H57 H 0.24109 0.05149 0.82361 0.0
O58 O 0.0725 0.26521 0.78375 0.0
O59 O 0.10446 0.19123 0.88418 0.0
O60 O 0.11349 0.05057 0.84631 0.0
C61 C 0.08354 0.25721 0.84913 0.0
H62 H 0.81383 0.14725 0.88972 0.0
H63 H 0.34695 0.22669 0.71767 0.0
H64 H 0.13893 0.01645 0.61297 0.0
H65 H 0.9568 0.20113 0.60689 0.0
Co66 Co 0.35307 0.02054 0.03219 0.0
C67 C 0.36027 0.10015 0.87837 0.0
C68 C 0.42079 0.99111 0.88381 0.0
C69 C 0.40986 0.0202 0.81347 0.0
N70 N 0.38739 0.0406 0.92558 0.0
N71 N 0.37152 0.08886 0.81038 0.0
H72 H 0.32266 0.14739 0.89446 0.0
H73 H 0.44445 0.93519 0.90412 0.0
C74 C 0.35242 0.86338 0.02569 0.0
O75 O 0.42379 0.83966 0.02037 0.0
N76 N 0.31366 0.00266 0.13661 0.0
C77 C 0.33631 0.02028 0.18923 0.0
C78 C 0.28168 0.01461 0.25213 0.0
C79 C 0.24505 0.98921 0.16716 0.0
N80 N 0.22399 -0.00302 0.23699 0.0
C81 C 0.50615 0.01168 0.00956 0.0
C82 C 0.5163 0.92443 0.1463 0.0
C83 C 0.56317 0.97507 0.11399 0.0
C84 C 0.56313 0.01233 0.04143 0.0
C85 C 0.46161 0.92285 0.11046 0.0
N86 N 0.45185 0.97319 0.04748 0.0
H87 H 0.49993 0.0512 0.95957 0.0
H88 H 0.41999 0.89015 0.13957 0.0
H89 H 0.38652 0.04077 0.18105 0.0
H90 H 0.20918 0.97953 0.13696 0.0
O91 O 0.3584 0.11806 0.03619 0.0
O92 O 0.261 0.08352 0.02082 0.0
O93 O 0.32281 0.92925 0.02924 0.0
C94 C 0.28934 0.13419 0.03073 0.0
H95 H 0.42059 0.99011 0.7708 0.0
H96 H 0.28171 0.02895 0.30251 0.0
H97 H 0.51627 0.89281 0.20143 0.0
H98 H 0.60107 0.04936 0.01303 0.0
Co99 Co 0.04288 0.32715 0.04976 0.0
C100 C 0.88251 0.34495 0.11147 0.0
C101 C 0.90434 0.39344 -0.00261 0.0
C102 C 0.83115 0.38597 0.01944 0.0
N103 N 0.93742 0.36516 0.05482 0.0
N104 N 0.81789 0.35413 0.09119 0.0
H105 H 0.89127 0.31265 0.16407 0.0
H106 H 0.93293 0.40992 0.94158 0.0
C107 C 0.06474 0.31635 0.88836 0.0
O108 O 0.06441 0.38481 0.85485 0.0
N109 N 0.14606 0.28581 0.04532 0.0
C110 C 0.19847 0.30685 0.06626 0.0
C111 C 0.26211 0.25421 0.05932 0.0
C112 C 0.17697 0.22084 0.02834 0.0
N113 N 0.24724 0.20026 0.03643 0.0
C114 C 0.0267 0.47875 0.0328 0.0
C115 C 0.16645 0.48806 0.94607 0.0
C116 C 0.13002 0.54084 0.987 0.0
C117 C 0.05655 0.53972 0.0244 0.0
C118 C 0.13265 0.42921 0.95298 0.0
N119 N 0.06692 0.42216 0.00166 0.0
H120 H 0.97517 0.47346 0.07169 0.0
H121 H 0.16415 0.38476 0.92721 0.0
H122 H 0.19035 0.35566 0.08691 0.0
H123 H 0.14718 0.1876 0.01372 0.0
O124 O 0.0346 0.33055 0.15101 0.0
O125 O 0.0204 0.23753 0.11141 0.0
O126 O 0.05263 0.29586 0.95748 0.0
C127 C 0.02526 0.26302 0.16531 0.0
H128 H 0.79401 0.39296 0.98334 0.0
H129 H 0.31336 0.25362 0.07394 0.0
H130 H 0.22286 0.48806 0.91571 0.0
H131 H 0.02605 0.58105 0.05511 0.0
Co132 Co 0.80894 0.08086 0.13839 0.0
C133 C 0.78252 0.24222 0.09502 0.0
C134 C 0.74469 0.20697 0.2101 0.0
C135 C 0.74688 0.28036 0.1948 0.0
N136 N 0.76951 0.18224 0.14751 0.0
N137 N 0.77167 0.30215 0.12227 0.0
H138 H 0.8102 0.24124 0.03915 0.0
H139 H 0.73317 0.17316 0.26412 0.0
C140 C 0.8199 0.03942 0.29996 0.0
O141 O 0.75049 0.03296 0.32624 0.0
N142 N 0.85456 0.98204 0.12863 0.0
C143 C 0.83538 0.93488 0.09945 0.0
C144 C 0.89268 0.87554 0.09499 0.0
C145 C 0.92408 0.953 0.13744 0.0
N146 N 0.94865 0.88857 0.1173 0.0
C147 C 0.65406 0.10082 0.16034 0.0
C148 C 0.65352 0.9528 0.19665 0.0
C149 C 0.60307 0.00011 0.15637 0.0
C150 C 0.59811 0.07527 0.14688 0.0
C151 C 0.70692 0.98158 0.21298 0.0
N152 N 0.71265 0.05328 0.18458 0.0
H153 H 0.65517 0.158 0.13942 0.0
H154 H 0.75053 0.94401 0.23709 0.0
H155 H 0.78529 0.94455 0.07928 0.0
H156 H 0.95768 0.98085 0.15423 0.0
O157 O 0.79634 0.10404 0.03866 0.0
O158 O 0.89691 0.10974 0.07357 0.0
O159 O 0.84494 0.05947 0.23159 0.0
C160 C 0.86409 0.1151 0.02067 0.0
H161 H 0.74078 0.31246 0.23482 0.0
H162 H 0.89577 0.83046 0.07027 0.0
H163 H 0.65693 0.89433 0.20821 0.0
H164 H 0.55682 0.11402 0.12002 0.0
Co165 Co 0.13876 0.80066 0.07364 0.0
C166 C 0.09565 0.76785 0.23539 0.0
C167 C 0.21285 0.73936 0.20042 0.0
C168 C 0.19593 0.73308 0.27517 0.0
N169 N 0.14978 0.76317 0.175 0.0
N170 N 0.12204 0.75164 0.29691 0.0
H171 H 0.03852 0.79179 0.23454 0.0
H172 H 0.26789 0.732 0.16718 0.0
C173 C 0.30213 0.81391 0.03288 0.0
O174 O 0.32733 0.7453 0.029 0.0
N175 N 0.1254 0.84202 0.97437 0.0
C176 C 0.08243 0.8209 0.94121 0.0
C177 C 0.06319 0.87705 0.88518 0.0
C178 C 0.13234 0.91048 0.93757 0.0
N179 N 0.09385 0.93341 0.88374 0.0
C180 C 0.16853 0.64625 0.10033 0.0
C181 C 0.20233 0.64227 0.9536 0.0
C182 C 0.17007 0.58731 0.00559 0.0
C183 C 0.16244 0.58521 0.07966 0.0
C184 C 0.21304 0.70077 0.97736 0.0
N185 N 0.18624 0.70638 0.04893 0.0
H186 H 0.14788 0.64752 0.15724 0.0
H187 H 0.23229 0.74614 0.93665 0.0
H188 H 0.0608 0.77083 0.96077 0.0
H189 H 0.15726 0.94556 0.95552 0.0
O190 O 0.03757 0.78579 0.09859 0.0
O191 O 0.0735 0.88619 0.1015 0.0
O192 O 0.23299 0.83908 0.04923 0.0
C193 C 0.01974 0.85292 0.10716 0.0
H194 H 0.23527 0.72462 0.30936 0.0
H195 H 0.02538 0.87815 0.85162 0.0
H196 H 0.21176 0.64397 0.89567 0.0
H197 H 0.14074 0.54151 0.12145 0.0
loop_
_geom_bond_atom_site_label_1
_geom_bond_atom_site_label_2
_geom_bond_distance
_geom_bond_site_symmetry_2
_ccdc_geom_bond_type
Co0 N4 2.148 1_545 S
Co0 N10 2.128 . S
Co0 N20 2.194 . S
Co0 O25 2.351 1_545 S
Co0 O26 2.155 1_545 S
Co0 O27 2.096 1_455 S
C1 N4 1.301 . S
C1 N5 1.328 . S
C1 H6 0.930 . S
C2 C3 1.333 . S
C2 N4 1.317 1_655 S
C2 H7 0.930 . S
C3 C2 1.333 . S
C3 N5 1.350 1_655 S
C3 H29 0.931 . S
N4 Co0 2.148 1_565 S
N4 C1 1.301 . S
N4 C2 1.317 1_455 S
N5 C1 1.328 . S
N5 C3 1.350 1_455 S
H6 C1 0.930 . S
H7 C2 0.930 . S
C8 O9 1.224 . S
C8 O27 1.247 . S
O9 C8 1.224 . S
N10 Co0 2.128 . S
N10 C11 1.355 . S
N10 C13 1.311 1_455 S
C11 N10 1.355 . S
C11 C12 1.363 . S
C11 H23 0.929 . S
C12 C11 1.363 . S
C12 N14 1.375 1_455 S
C12 H30 0.931 . S
C13 N10 1.311 1_655 S
C13 N14 1.347 . S
C13 H24 0.929 . S
N14 C12 1.375 1_655 S
N14 C13 1.347 . S
C15 C18 1.365 . S
C15 N20 1.328 1_565 S
C15 H21 0.929 . S
C16 C17 1.362 1_655 S
C16 C19 1.378 . S
C16 H31 0.929 . S
C17 C16 1.362 1_455 S
C17 C18 1.366 1_545 S
C18 C15 1.365 . S
C18 C17 1.366 1_565 S
C18 H32 0.930 . S
C19 C16 1.378 . S
C19 N20 1.315 1_655 S
C19 H22 0.930 . S
N20 Co0 2.194 . S
N20 C15 1.328 1_545 S
N20 C19 1.315 1_455 S
H21 C15 0.929 . S
H22 C19 0.930 . S
H23 C11 0.929 . S
H24 C13 0.929 . S
O25 Co0 2.351 1_565 S
O25 C28 1.244 . S
O26 Co0 2.155 1_565 S
O26 C28 1.240 . S
O27 Co0 2.096 1_655 S
O27 C8 1.247 . S
C28 O25 1.244 . S
C28 O26 1.240 . S
H29 C3 0.931 . S
H30 C12 0.931 . S
H31 C16 0.929 . S
H32 C18 0.930 . S
Co33 N37 2.148 . S
Co33 N43 2.128 . S
Co33 N53 2.194 . S
Co33 O58 2.351 . S
Co33 O59 2.155 . S
Co33 O60 2.096 . S
C34 N37 1.301 1_655 S
C34 N38 1.328 . S
C34 H39 0.930 . S
C35 C36 1.333 1_455 S
C35 N37 1.317 . S
C35 H40 0.930 . S
C36 C35 1.333 1_655 S
C36 N38 1.350 . S
C36 H62 0.931 . S
N37 Co33 2.148 . S
N37 C34 1.301 1_455 S
N37 C35 1.317 . S
N38 C34 1.328 . S
N38 C36 1.350 . S
H39 C34 0.930 . S
H40 C35 0.930 . S
C41 O42 1.224 . S
C41 O60 1.247 1_565 S
O42 C41 1.224 . S
N43 Co33 2.128 . S
N43 C44 1.355 . S
N43 C46 1.311 . S
C44 N43 1.355 . S
C44 C45 1.363 . S
C44 H56 0.929 . S
C45 C44 1.363 . S
C45 N47 1.375 . S
C45 H63 0.931 . S
C46 N43 1.311 . S
C46 N47 1.347 . S
C46 H57 0.929 . S
N47 C45 1.375 . S
N47 C46 1.347 . S
C48 C51 1.365 . S
C48 N53 1.328 . S
C48 H54 0.929 . S
C49 C50 1.362 . S
C49 C52 1.378 . S
C49 H64 0.929 . S
C50 C49 1.362 . S
C50 C51 1.366 . S
C51 C48 1.365 . S
C51 C50 1.366 . S
C51 H65 0.930 . S
C52 C49 1.378 . S
C52 N53 1.315 . S
C52 H55 0.930 . S
N53 Co33 2.194 . S
N53 C48 1.328 . S
N53 C52 1.315 . S
H54 C48 0.929 . S
H55 C52 0.930 . S
H56 C44 0.929 . S
H57 C46 0.929 . S
O58 Co33 2.351 . S
O58 C61 1.244 . S
O59 Co33 2.155 . S
O59 C61 1.240 . S
O60 Co33 2.096 . S
O60 C41 1.247 1_545 S
C61 O58 1.244 . S
C61 O59 1.240 . S
H62 C36 0.931 . S
H63 C45 0.931 . S
H64 C49 0.929 . S
H65 C51 0.930 . S
Co66 N70 2.148 1_554 S
Co66 N76 2.128 . S
Co66 N86 2.194 . S
Co66 O91 2.351 . S
Co66 O92 2.155 . S
Co66 O93 2.096 1_545 S
C67 N70 1.301 . S
C67 N71 1.328 . S
C67 H72 0.930 . S
C68 C69 1.333 . S
C68 N70 1.317 1_565 S
C68 H73 0.930 . S
C69 C68 1.333 . S
C69 N71 1.350 1_565 S
C69 H95 0.931 . S
N70 Co66 2.148 1_556 S
N70 C67 1.301 . S
N70 C68 1.317 1_545 S
N71 C67 1.328 . S
N71 C69 1.350 1_545 S
H72 C67 0.930 . S
H73 C68 0.930 . S
C74 O75 1.224 . S
C74 O93 1.247 . S
O75 C74 1.224 . S
N76 Co66 2.128 . S
N76 C77 1.355 . S
N76 C79 1.311 1_545 S
C77 N76 1.355 . S
C77 C78 1.363 . S
C77 H89 0.929 . S
C78 C77 1.363 . S
C78 N80 1.375 1_545 S
C78 H96 0.931 . S
C79 N76 1.311 1_565 S
C79 N80 1.347 . S
C79 H90 0.929 . S
N80 C78 1.375 1_565 S
N80 C79 1.347 . S
C81 C84 1.365 . S
C81 N86 1.328 . S
C81 H87 0.929 1_554 S
C82 C83 1.362 1_565 S
C82 C85 1.378 . S
C82 H97 0.929 . S
C83 C82 1.362 1_545 S
C83 C84 1.366 . S
C84 C81 1.365 . S
C84 C83 1.366 . S
C84 H98 0.930 . S
C85 C82 1.378 . S
C85 N86 1.315 1_565 S
C85 H88 0.930 . S
N86 Co66 2.194 . S
N86 C81 1.328 . S
N86 C85 1.315 1_545 S
H87 C81 0.929 1_556 S
H88 C85 0.930 . S
H89 C77 0.929 . S
H90 C79 0.929 . S
O91 Co66 2.351 . S
O91 C94 1.245 . S
O92 Co66 2.155 . S
O92 C94 1.239 . S
O93 Co66 2.096 1_565 S
O93 C74 1.247 . S
C94 O91 1.245 . S
C94 O92 1.239 . S
H95 C69 0.931 . S
H96 C78 0.931 . S
H97 C82 0.929 . S
H98 C84 0.930 . S
Co99 N103 2.148 1_455 S
Co99 N109 2.128 . S
Co99 N119 2.194 . S
Co99 O124 2.351 1_455 S
Co99 O125 2.155 . S
Co99 O126 2.096 1_554 S
C100 N103 1.301 . S
C100 N104 1.328 . S
C100 H105 0.930 . S
C101 C102 1.333 . S
C101 N103 1.317 1_556 S
C101 H106 0.930 . S
C102 C101 1.333 . S
C102 N104 1.350 1_556 S
C102 H128 0.931 . S
N103 Co99 2.148 1_655 S
N103 C100 1.301 . S
N103 C101 1.317 1_554 S
N104 C100 1.328 . S
N104 C102 1.350 1_554 S
H105 C100 0.930 . S
H106 C101 0.930 . S
C107 O108 1.224 . S
C107 O126 1.247 . S
O108 C107 1.224 . S
N109 Co99 2.128 . S
N109 C110 1.355 . S
N109 C112 1.311 1_554 S
C110 N109 1.355 . S
C110 C111 1.363 . S
C110 H122 0.929 . S
C111 C110 1.363 . S
C111 N113 1.375 1_554 S
C111 H129 0.931 . S
C112 N109 1.311 1_556 S
C112 N113 1.347 . S
C112 H123 0.929 . S
N113 C111 1.375 1_556 S
N113 C112 1.347 . S
C114 C117 1.365 . S
C114 N119 1.328 . S
C114 H120 0.929 1_455 S
C115 C116 1.362 1_556 S
C115 C118 1.378 . S
C115 H130 0.929 . S
C116 C115 1.362 1_554 S
C116 C117 1.366 . S
C117 C114 1.365 . S
C117 C116 1.366 . S
C117 H131 0.930 1_455 S
C118 C115 1.378 . S
C118 N119 1.315 1_556 S
C118 H121 0.930 . S
N119 Co99 2.194 . S
N119 C114 1.328 . S
N119 C118 1.315 1_554 S
H120 C114 0.929 1_655 S
H121 C118 0.930 . S
H122 C110 0.929 . S
H123 C112 0.929 . S
O124 Co99 2.351 1_655 S
O124 C127 1.244 . S
O125 Co99 2.155 . S
O125 C127 1.240 1_455 S
O126 Co99 2.096 1_556 S
O126 C107 1.247 . S
C127 O124 1.244 . S
C127 O125 1.240 1_655 S
H128 C102 0.931 . S
H129 C111 0.931 . S
H130 C115 0.929 . S
H131 C117 0.930 1_655 S
Co132 N136 2.148 . S
Co132 N142 2.128 . S
Co132 N152 2.194 . S
Co132 O157 2.351 . S
Co132 O158 2.155 . S
Co132 O159 2.096 . S
C133 N136 1.301 . S
C133 N137 1.328 . S
C133 H138 0.930 . S
C134 C135 1.333 . S
C134 N136 1.317 . S
C134 H139 0.930 . S
C135 C134 1.333 . S
C135 N137 1.350 . S
C135 H161 0.931 . S
N136 Co132 2.148 . S
N136 C133 1.301 . S
N136 C134 1.317 . S
N137 C133 1.328 . S
N137 C135 1.350 . S
H138 C133 0.930 . S
H139 C134 0.930 . S
C140 O141 1.224 . S
C140 O159 1.247 . S
O141 C140 1.224 . S
N142 Co132 2.128 . S
N142 C143 1.355 1_545 S
N142 C145 1.311 1_545 S
C143 N142 1.355 1_565 S
C143 C144 1.363 . S
C143 H155 0.929 1_565 S
C144 C143 1.363 . S
C144 N146 1.375 . S
C144 H162 0.931 . S
C145 N142 1.311 1_565 S
C145 N146 1.347 . S
C145 H156 0.929 . S
N146 C144 1.375 . S
N146 C145 1.347 . S
C147 C150 1.365 . S
C147 N152 1.328 . S
C147 H153 0.929 . S
C148 C149 1.362 . S
C148 C151 1.378 . S
C148 H163 0.929 . S
C149 C148 1.362 . S
C149 C150 1.366 . S
C150 C147 1.365 . S
C150 C149 1.366 . S
C150 H164 0.930 . S
C151 C148 1.378 . S
C151 N152 1.315 . S
C151 H154 0.930 . S
N152 Co132 2.194 . S
N152 C147 1.328 . S
N152 C151 1.315 . S
H153 C147 0.929 . S
H154 C151 0.930 . S
H155 C143 0.929 1_545 S
H156 C145 0.929 . S
O157 Co132 2.351 . S
O157 C160 1.244 . S
O158 Co132 2.155 . S
O158 C160 1.240 . S
O159 Co132 2.096 . S
O159 C140 1.247 . S
C160 O157 1.244 . S
C160 O158 1.240 . S
H161 C135 0.931 . S
H162 C144 0.931 . S
H163 C148 0.929 . S
H164 C150 0.930 . S
Co165 N169 2.148 . S
Co165 N175 2.128 . S
Co165 N185 2.194 . S
Co165 O190 2.351 . S
Co165 O191 2.155 . S
Co165 O192 2.096 . S
C166 N169 1.301 . S
C166 N170 1.328 . S
C166 H171 0.930 . S
C167 C168 1.333 . S
C167 N169 1.317 . S
C167 H172 0.930 . S
C168 C167 1.333 . S
C168 N170 1.350 . S
C168 H194 0.931 . S
N169 Co165 2.148 . S
N169 C166 1.301 . S
N169 C167 1.317 . S
N170 C166 1.328 . S
N170 C168 1.350 . S
H171 C166 0.930 . S
H172 C167 0.930 . S
C173 O174 1.224 . S
C173 O192 1.247 . S
O174 C173 1.224 . S
N175 Co165 2.128 . S
N175 C176 1.355 1_554 S
N175 C178 1.311 1_554 S
C176 N175 1.355 1_556 S
C176 C177 1.363 . S
C176 H188 0.929 1_556 S
C177 C176 1.363 . S
C177 N179 1.375 . S
C177 H195 0.931 . S
C178 N175 1.311 1_556 S
C178 N179 1.347 . S
C178 H189 0.929 . S
N179 C177 1.375 . S
N179 C178 1.347 . S
C180 C183 1.365 . S
C180 N185 1.328 . S
C180 H186 0.929 . S
C181 C182 1.362 . S
C181 C184 1.378 . S
C181 H196 0.929 . S
C182 C181 1.362 . S
C182 C183 1.366 . S
C183 C180 1.365 . S
C183 C182 1.366 . S
C183 H197 0.930 . S
C184 C181 1.378 . S
C184 N185 1.315 . S
C184 H187 0.930 . S
N185 Co165 2.194 . S
N185 C180 1.328 . S
N185 C184 1.315 . S
H186 C180 0.929 . S
H187 C184 0.930 . S
H188 C176 0.929 1_554 S
H189 C178 0.929 . S
O190 Co165 2.351 . S
O190 C193 1.244 . S
O191 Co165 2.155 . S
O191 C193 1.240 . S
O192 Co165 2.096 . S
O192 C173 1.247 . S
C193 O190 1.244 . S
C193 O191 1.240 . S
H194 C168 0.931 . S
H195 C177 0.931 . S
H196 C181 0.929 . S
H197 C183 0.930 . S
C127 N14 2.574 . S
C140 C8 1.421 . S
N5 N170 1.222 . S
N80 C28 2.641 . S
N179 C41 2.567 . S
N71 N47 1.256 . S
C61 C107 1.524 . S
C160 N38 2.350 1_554 S
C94 N113 2.587 1_554 S
C74 C173 1.249 . S
N137 N104 1.071 . S
C193 N146 2.619 1_455 S
C50 C17 2.941 . S
C149 C83 2.728 . S
C182 C116 2.791 . S
