# Generated by pormake.
# Topology wje, (4)-cn, num edge types: 1
# Building blocks:
#     Node 0, Type 0, BuildingBlock: AZAVOO_clean_sbu_0, # of connection points: 4
#     Node 1, Type 0, BuildingBlock: AZAVOO_clean_sbu_0, # of connection points: 4
#     Node 2, Type 0, BuildingBlock: AZAVOO_clean_sbu_0, # of connection points: 4
#     Node 3, Type 0, BuildingBlock: AZAVOO_clean_sbu_0, # of connection points: 4
#     Node 4, Type 0, BuildingBlock: AZAVOO_clean_sbu_0, # of connection points: 4
#     Node 5, Type 0, BuildingBlock: AZAVOO_clean_sbu_0, # of connection points: 4
#     Node 6, Type 0, BuildingBlock: AZAVOO_clean_sbu_0, # of connection points: 4
#     Node 7, Type 0, BuildingBlock: AZAVOO_clean_sbu_0, # of connection points: 4
#     Node 8, Type 0, BuildingBlock: AZAVOO_clean_sbu_0, # of connection points: 4
#     Node 9, Type 0, BuildingBlock: AZAVOO_clean_sbu_0, # of connection points: 4
#     Node 10, Type 0, BuildingBlock: AZAVOO_clean_sbu_0, # of connection points: 4
#     Node 11, Type 0, BuildingBlock: AZAVOO_clean_sbu_0, # of connection points: 4
#     Edge 12, Type (0, 0), None
#     Edge 13, Type (0, 0), None
#     Edge 14, Type (0, 0), None
#     Edge 15, Type (0, 0), None
#     Edge 16, Type (0, 0), None
#     Edge 17, Type (0, 0), None
#     Edge 18, Type (0, 0), None
#     Edge 19, Type (0, 0), None
#     Edge 20, Type (0, 0), None
#     Edge 21, Type (0, 0), None
#     Edge 22, Type (0, 0), None
#     Edge 23, Type (0, 0), None
#     Edge 24, Type (0, 0), None
#     Edge 25, Type (0, 0), None
#     Edge 26, Type (0, 0), None
#     Edge 27, Type (0, 0), None
#     Edge 28, Type (0, 0), None
#     Edge 29, Type (0, 0), None
#     Edge 30, Type (0, 0), None
#     Edge 31, Type (0, 0), None
#     Edge 32, Type (0, 0), None
#     Edge 33, Type (0, 0), None
#     Edge 34, Type (0, 0), None
#     Edge 35, Type (0, 0), None
# Relax obj value: 0.140
# Max RMSD: 0.135
# Mean RMSD: 0.135
data_MOF--net-wje--node1-AZAVOO_clean_sbu_0--edge1-none
_symmetry_space_group_name_H-M    P1
_symmetry_Int_Tables_number       1
_symmetry_cell_setting            triclinic
loop_
_symmetry_equiv_pos_as_xyz
'x, y, z'
_cell_length_a     20.357286
_cell_length_b     20.358131
_cell_length_c     12.316479
_cell_angle_alpha  89.999999
_cell_angle_beta   89.999999
_cell_angle_gamma 120.00406
loop_
_atom_site_label
_atom_site_type_symbol
_atom_site_fract_x
_atom_site_fract_y
_atom_site_fract_z
_atom_type_partial_charge
Mg0 Mg 0.33034 0.98085 0.19244 0.0
O1 O 0.34543 0.97846 0.3745 0.0
O2 O 0.45317 0.07903 0.43083 0.0
Mg3 Mg 0.51695 0.14875 0.28173 0.0
C4 C 0.39179 0.01722 0.44913 0.0
C5 C 0.14981 0.84448 0.2781 0.0
O6 O 0.08152 0.79884 0.24082 0.0
O7 O 0.29722 0.07566 0.1889 0.0
O8 O 0.41748 0.15676 0.22466 0.0
O9 O 0.40523 0.9276 0.17225 0.0
O10 O 0.4522 0.0505 0.17664 0.0
C11 C 0.35233 0.14364 0.19522 0.0
C12 C 0.46402 0.99506 0.17051 0.0
O13 O 0.20223 0.88442 0.20916 0.0
Mg14 Mg 0.35154 0.3293 0.52578 0.0
O15 O 0.36901 0.3444 0.70785 0.0
O16 O 0.37625 0.45216 0.76417 0.0
Mg17 Mg 0.37025 0.51592 0.6151 0.0
C18 C 0.37665 0.39077 0.78247 0.0
C19 C 0.30739 0.14879 0.61143 0.0
O20 O 0.28475 0.08051 0.57415 0.0
O21 O 0.22356 0.29611 0.52223 0.0
O22 O 0.26285 0.41636 0.55802 0.0
O23 O 0.47968 0.4042 0.5056 0.0
O24 O 0.40374 0.45116 0.50999 0.0
C25 C 0.21076 0.35126 0.52856 0.0
C26 C 0.47101 0.46299 0.50386 0.0
O27 O 0.31987 0.2012 0.54249 0.0
Mg28 Mg 0.0243 0.35053 0.85911 0.0
O29 O 0.0267 0.368 0.04117 0.0
O30 O 0.92612 0.37515 0.09751 0.0
Mg31 Mg 0.85639 0.3692 0.94843 0.0
C32 C 0.98794 0.3756 0.1158 0.0
C33 C 0.16066 0.30637 0.94473 0.0
O34 O 0.2063 0.28374 0.90744 0.0
O35 O 0.92949 0.22258 0.85557 0.0
O36 O 0.8484 0.26174 0.89135 0.0
O37 O 0.07754 0.47867 0.83892 0.0
O38 O 0.95464 0.40272 0.84332 0.0
C39 C 0.86151 0.20971 0.8619 0.0
C40 C 0.01008 0.46999 0.83719 0.0
O41 O 0.12073 0.31887 0.8758 0.0
Mg42 Mg 0.67583 0.02326 0.19244 0.0
O43 O 0.66074 0.02565 0.3745 0.0
O44 O 0.553 0.92508 0.43083 0.0
Mg45 Mg 0.48922 0.85536 0.28173 0.0
C46 C 0.61438 0.98689 0.44913 0.0
C47 C 0.85636 0.15963 0.27809 0.0
O48 O 0.92464 0.20527 0.24081 0.0
O49 O 0.70896 0.92845 0.1889 0.0
O50 O 0.58869 0.84736 0.22467 0.0
O51 O 0.60094 0.07651 0.17225 0.0
O52 O 0.55397 0.95361 0.17664 0.0
C53 C 0.65384 0.86047 0.19522 0.0
C54 C 0.54215 0.00906 0.17052 0.0
O55 O 0.80394 0.11969 0.20915 0.0
Mg56 Mg 0.65463 0.67481 0.52578 0.0
O57 O 0.63716 0.65971 0.70785 0.0
O58 O 0.62993 0.55195 0.76417 0.0
Mg59 Mg 0.63591 0.48819 0.6151 0.0
C60 C 0.62952 0.61334 0.78247 0.0
C61 C 0.69877 0.85532 0.61143 0.0
O62 O 0.72142 0.9236 0.57415 0.0
O63 O 0.7826 0.708 0.52223 0.0
O64 O 0.74333 0.58774 0.55802 0.0
O65 O 0.52649 0.59991 0.5056 0.0
O66 O 0.60242 0.55295 0.50999 0.0
C67 C 0.79541 0.65285 0.52856 0.0
C68 C 0.53515 0.54112 0.50387 0.0
O69 O 0.68629 0.80291 0.54249 0.0
Mg70 Mg 0.98187 0.65357 0.85911 0.0
O71 O 0.97947 0.63611 0.04118 0.0
O72 O 0.08005 0.62896 0.09751 0.0
Mg73 Mg 0.14978 0.63491 0.94844 0.0
C74 C 0.01823 0.62851 0.11581 0.0
C75 C 0.84551 0.69774 0.94473 0.0
O76 O 0.79987 0.72037 0.90744 0.0
O77 O 0.07668 0.78153 0.85557 0.0
O78 O 0.15777 0.74237 0.89135 0.0
O79 O 0.92862 0.52544 0.83893 0.0
O80 O 0.05152 0.60139 0.84333 0.0
C81 C 0.14466 0.7944 0.8619 0.0
C82 C 0.99608 0.53412 0.83721 0.0
O83 O 0.88544 0.68524 0.8758 0.0
Mg84 Mg 0.02419 0.67467 0.48256 0.0
O85 O 0.02672 0.65961 0.30054 0.0
O86 O 0.92598 0.55205 0.24418 0.0
Mg87 Mg 0.85643 0.48821 0.39335 0.0
C88 C 0.98787 0.61335 0.22589 0.0
C89 C 0.16049 0.85523 0.3969 0.0
O90 O 0.20613 0.92352 0.43413 0.0
O91 O 0.92917 0.70746 0.48585 0.0
O92 O 0.84741 0.5872 0.45026 0.0
O93 O 0.07754 0.59991 0.50292 0.0
O94 O 0.95464 0.55293 0.49841 0.0
C95 C 0.86105 0.65256 0.47955 0.0
C96 C 0.01008 0.54112 0.50462 0.0
O97 O 0.12055 0.80282 0.46586 0.0
Mg98 Mg 0.35157 0.02317 0.81588 0.0
O99 O 0.36915 0.02568 0.63386 0.0
O100 O 0.37603 0.92499 0.57749 0.0
Mg101 Mg 0.37028 0.85541 0.72664 0.0
C102 C 0.3766 0.98686 0.55921 0.0
C103 C 0.30733 0.15946 0.73023 0.0
O104 O 0.28468 0.2051 0.76747 0.0
O105 O 0.22373 0.92817 0.81919 0.0
O106 O 0.26233 0.84651 0.78356 0.0
O107 O 0.47969 0.07651 0.83624 0.0
O108 O 0.40376 0.95361 0.83173 0.0
C109 C 0.21056 0.86007 0.81288 0.0
C110 C 0.47102 0.00905 0.83794 0.0
O111 O 0.31979 0.11952 0.79919 0.0
Mg112 Mg 0.33045 0.35053 0.14922 0.0
O113 O 0.34553 0.36811 0.9672 0.0
O114 O 0.45313 0.37503 0.91084 0.0
Mg115 Mg 0.51695 0.36928 0.06001 0.0
C116 C 0.39182 0.37558 0.89255 0.0
C117 C 0.14991 0.30628 0.06353 0.0
O118 O 0.08161 0.28362 0.10076 0.0
O119 O 0.29762 0.2227 0.15252 0.0
O120 O 0.41789 0.26132 0.11691 0.0
O121 O 0.40523 0.47865 0.16958 0.0
O122 O 0.45221 0.40273 0.16508 0.0
C123 C 0.35255 0.20954 0.14622 0.0
C124 C 0.46402 0.46999 0.17129 0.0
O125 O 0.2023 0.31873 0.1325 0.0
Mg126 Mg 0.98197 0.32945 0.48256 0.0
O127 O 0.97945 0.3445 0.30054 0.0
O128 O 0.08019 0.45206 0.24417 0.0
Mg129 Mg 0.14973 0.5159 0.39334 0.0
C130 C 0.0183 0.39076 0.22588 0.0
C131 C 0.84568 0.14889 0.3969 0.0
O132 O 0.80004 0.08059 0.43413 0.0
O133 O 0.077 0.29666 0.48585 0.0
O134 O 0.15878 0.41692 0.45025 0.0
O135 O 0.92862 0.40421 0.50292 0.0
O136 O 0.05153 0.45118 0.49841 0.0
C137 C 0.14513 0.35156 0.47955 0.0
C138 C 0.99608 0.46299 0.50461 0.0
O139 O 0.88562 0.20129 0.46586 0.0
Mg140 Mg 0.65459 0.98094 0.81588 0.0
O141 O 0.63702 0.97843 0.63386 0.0
O142 O 0.63014 0.07913 0.57749 0.0
Mg143 Mg 0.63589 0.1487 0.72664 0.0
C144 C 0.62957 0.01725 0.55921 0.0
C145 C 0.69884 0.84465 0.73023 0.0
O146 O 0.72149 0.79901 0.76747 0.0
O147 O 0.78244 0.07594 0.81919 0.0
O148 O 0.74384 0.15761 0.78356 0.0
O149 O 0.52647 0.9276 0.83624 0.0
O150 O 0.60241 0.0505 0.83173 0.0
C151 C 0.79561 0.14404 0.81288 0.0
C152 C 0.53515 0.99506 0.83793 0.0
O153 O 0.68638 0.88459 0.79919 0.0
Mg154 Mg 0.67571 0.65358 0.14922 0.0
O155 O 0.66064 0.636 0.9672 0.0
O156 O 0.55304 0.62909 0.91084 0.0
Mg157 Mg 0.48922 0.63484 0.06001 0.0
C158 C 0.61435 0.62854 0.89255 0.0
C159 C 0.85626 0.69783 0.06354 0.0
O160 O 0.92456 0.72049 0.10076 0.0
O161 O 0.70855 0.78141 0.15252 0.0
O162 O 0.58828 0.7428 0.11691 0.0
O163 O 0.60094 0.52546 0.16958 0.0
O164 O 0.55396 0.60138 0.16508 0.0
C165 C 0.65362 0.79458 0.14622 0.0
C166 C 0.54215 0.53412 0.17128 0.0
O167 O 0.80387 0.68538 0.1325 0.0
loop_
_geom_bond_atom_site_label_1
_geom_bond_atom_site_label_2
_geom_bond_distance
_geom_bond_site_symmetry_2
_ccdc_geom_bond_type
Mg0 O1 2.028 . S
Mg0 O7 1.986 1_565 S
Mg0 O9 2.114 . S
Mg0 O10 2.251 1_565 S
Mg0 O13 2.010 . S
O1 Mg0 2.028 . S
O1 C4 1.250 1_565 S
O2 Mg3 2.028 . S
O2 C4 1.248 . S
Mg3 O2 2.028 . S
Mg3 O8 2.032 . S
Mg3 O10 2.079 . S
C4 O1 1.250 1_545 S
C4 O2 1.248 . S
C5 O6 1.264 . S
C5 O13 1.249 . S
O6 C5 1.264 . S
O7 Mg0 1.986 1_545 S
O7 C11 1.246 . S
O8 Mg3 2.032 . S
O8 C11 1.259 . S
O9 Mg0 2.114 . S
O9 C12 1.252 . S
O10 Mg0 2.251 1_545 S
O10 Mg3 2.079 . S
O10 C12 1.273 1_545 S
C11 O7 1.246 . S
C11 O8 1.259 . S
C12 O9 1.252 . S
C12 O10 1.273 1_565 S
O13 Mg0 2.010 . S
O13 C5 1.249 . S
Mg14 O15 2.028 . S
Mg14 O21 1.986 . S
Mg14 O23 2.114 . S
Mg14 O24 2.251 . S
Mg14 O27 2.010 . S
O15 Mg14 2.028 . S
O15 C18 1.250 . S
O16 Mg17 2.028 . S
O16 C18 1.248 . S
Mg17 O16 2.028 . S
Mg17 O22 2.032 . S
Mg17 O24 2.079 . S
C18 O15 1.250 . S
C18 O16 1.248 . S
C19 O20 1.264 . S
C19 O27 1.249 . S
O20 C19 1.264 . S
O21 Mg14 1.986 . S
O21 C25 1.246 . S
O22 Mg17 2.032 . S
O22 C25 1.259 . S
O23 Mg14 2.114 . S
O23 C26 1.252 . S
O24 Mg14 2.251 . S
O24 Mg17 2.079 . S
O24 C26 1.273 . S
C25 O21 1.246 . S
C25 O22 1.259 . S
C26 O23 1.252 . S
C26 O24 1.273 . S
O27 Mg14 2.010 . S
O27 C19 1.249 . S
Mg28 O29 2.028 1_556 S
Mg28 O35 1.986 1_455 S
Mg28 O37 2.114 . S
Mg28 O38 2.251 1_455 S
Mg28 O41 2.010 . S
O29 Mg28 2.028 1_554 S
O29 C32 1.250 1_455 S
O30 Mg31 2.028 1_554 S
O30 C32 1.248 . S
Mg31 O30 2.028 1_556 S
Mg31 O36 2.032 . S
Mg31 O38 2.079 . S
C32 O29 1.250 1_655 S
C32 O30 1.248 . S
C33 O34 1.264 . S
C33 O41 1.249 . S
O34 C33 1.264 . S
O35 Mg28 1.986 1_655 S
O35 C39 1.246 . S
O36 Mg31 2.032 . S
O36 C39 1.259 . S
O37 Mg28 2.114 . S
O37 C40 1.252 . S
O38 Mg28 2.251 1_655 S
O38 Mg31 2.079 . S
O38 C40 1.273 1_655 S
C39 O35 1.246 . S
C39 O36 1.259 . S
C40 O37 1.252 . S
C40 O38 1.273 1_455 S
O41 Mg28 2.010 . S
O41 C33 1.249 . S
Mg42 O43 2.028 . S
Mg42 O49 1.986 1_545 S
Mg42 O51 2.114 . S
Mg42 O52 2.251 1_545 S
Mg42 O55 2.010 . S
O43 Mg42 2.028 . S
O43 C46 1.250 1_545 S
O44 Mg45 2.028 . S
O44 C46 1.248 . S
Mg45 O44 2.028 . S
Mg45 O50 2.032 . S
Mg45 O52 2.079 . S
C46 O43 1.250 1_565 S
C46 O44 1.248 . S
C47 O48 1.264 . S
C47 O55 1.249 . S
O48 C47 1.264 . S
O49 Mg42 1.986 1_565 S
O49 C53 1.246 . S
O50 Mg45 2.032 . S
O50 C53 1.259 . S
O51 Mg42 2.114 . S
O51 C54 1.252 . S
O52 Mg42 2.251 1_565 S
O52 Mg45 2.079 . S
O52 C54 1.273 1_565 S
C53 O49 1.246 . S
C53 O50 1.259 . S
C54 O51 1.252 . S
C54 O52 1.273 1_545 S
O55 Mg42 2.010 . S
O55 C47 1.249 . S
Mg56 O57 2.028 . S
Mg56 O63 1.986 . S
Mg56 O65 2.114 . S
Mg56 O66 2.251 . S
Mg56 O69 2.010 . S
O57 Mg56 2.028 . S
O57 C60 1.250 . S
O58 Mg59 2.028 . S
O58 C60 1.248 . S
Mg59 O58 2.028 . S
Mg59 O64 2.032 . S
Mg59 O66 2.079 . S
C60 O57 1.250 . S
C60 O58 1.248 . S
C61 O62 1.264 . S
C61 O69 1.249 . S
O62 C61 1.264 . S
O63 Mg56 1.986 . S
O63 C67 1.246 . S
O64 Mg59 2.032 . S
O64 C67 1.259 . S
O65 Mg56 2.114 . S
O65 C68 1.252 . S
O66 Mg56 2.251 . S
O66 Mg59 2.079 . S
O66 C68 1.273 . S
C67 O63 1.246 . S
C67 O64 1.259 . S
C68 O65 1.252 . S
C68 O66 1.273 . S
O69 Mg56 2.010 . S
O69 C61 1.249 . S
Mg70 O71 2.028 1_556 S
Mg70 O77 1.986 1_655 S
Mg70 O79 2.114 . S
Mg70 O80 2.251 1_655 S
Mg70 O83 2.010 . S
O71 Mg70 2.028 1_554 S
O71 C74 1.250 1_655 S
O72 Mg73 2.028 1_554 S
O72 C74 1.248 . S
Mg73 O72 2.028 1_556 S
Mg73 O78 2.032 . S
Mg73 O80 2.079 . S
C74 O71 1.250 1_455 S
C74 O72 1.248 . S
C75 O76 1.264 . S
C75 O83 1.249 . S
O76 C75 1.264 . S
O77 Mg70 1.986 1_455 S
O77 C81 1.246 . S
O78 Mg73 2.032 . S
O78 C81 1.259 . S
O79 Mg70 2.114 . S
O79 C82 1.252 . S
O80 Mg70 2.251 1_455 S
O80 Mg73 2.079 . S
O80 C82 1.273 1_455 S
C81 O77 1.246 . S
C81 O78 1.259 . S
C82 O79 1.252 . S
C82 O80 1.273 1_655 S
O83 Mg70 2.010 . S
O83 C75 1.249 . S
Mg84 O85 2.028 . S
Mg84 O91 1.986 1_455 S
Mg84 O93 2.114 . S
Mg84 O94 2.251 1_455 S
Mg84 O97 2.010 . S
O85 Mg84 2.028 . S
O85 C88 1.250 1_455 S
O86 Mg87 2.028 . S
O86 C88 1.248 . S
Mg87 O86 2.028 . S
Mg87 O92 2.032 . S
Mg87 O94 2.079 . S
C88 O85 1.250 1_655 S
C88 O86 1.248 . S
C89 O90 1.264 . S
C89 O97 1.249 . S
O90 C89 1.264 . S
O91 Mg84 1.986 1_655 S
O91 C95 1.246 . S
O92 Mg87 2.032 . S
O92 C95 1.259 . S
O93 Mg84 2.114 . S
O93 C96 1.252 . S
O94 Mg84 2.251 1_655 S
O94 Mg87 2.079 . S
O94 C96 1.273 1_655 S
C95 O91 1.246 . S
C95 O92 1.259 . S
C96 O93 1.252 . S
C96 O94 1.273 1_455 S
O97 Mg84 2.010 . S
O97 C89 1.249 . S
Mg98 O99 2.028 . S
Mg98 O105 1.986 1_545 S
Mg98 O107 2.114 . S
Mg98 O108 2.251 1_545 S
Mg98 O111 2.010 . S
O99 Mg98 2.028 . S
O99 C102 1.250 1_545 S
O100 Mg101 2.028 . S
O100 C102 1.248 . S
Mg101 O100 2.028 . S
Mg101 O106 2.032 . S
Mg101 O108 2.079 . S
C102 O99 1.250 1_565 S
C102 O100 1.248 . S
C103 O104 1.264 . S
C103 O111 1.249 . S
O104 C103 1.264 . S
O105 Mg98 1.986 1_565 S
O105 C109 1.246 . S
O106 Mg101 2.032 . S
O106 C109 1.259 . S
O107 Mg98 2.114 . S
O107 C110 1.252 . S
O108 Mg98 2.251 1_565 S
O108 Mg101 2.079 . S
O108 C110 1.273 1_565 S
C109 O105 1.246 . S
C109 O106 1.259 . S
C110 O107 1.252 . S
C110 O108 1.273 1_545 S
O111 Mg98 2.010 . S
O111 C103 1.249 . S
Mg112 O113 2.028 1_554 S
Mg112 O119 1.986 . S
Mg112 O121 2.114 . S
Mg112 O122 2.251 . S
Mg112 O125 2.010 . S
O113 Mg112 2.028 1_556 S
O113 C116 1.250 . S
O114 Mg115 2.028 1_556 S
O114 C116 1.248 . S
Mg115 O114 2.028 1_554 S
Mg115 O120 2.032 . S
Mg115 O122 2.079 . S
C116 O113 1.250 . S
C116 O114 1.248 . S
C117 O118 1.264 . S
C117 O125 1.249 . S
O118 C117 1.264 . S
O119 Mg112 1.986 . S
O119 C123 1.246 . S
O120 Mg115 2.032 . S
O120 C123 1.259 . S
O121 Mg112 2.114 . S
O121 C124 1.252 . S
O122 Mg112 2.251 . S
O122 Mg115 2.079 . S
O122 C124 1.273 . S
C123 O119 1.246 . S
C123 O120 1.259 . S
C124 O121 1.252 . S
C124 O122 1.273 . S
O125 Mg112 2.010 . S
O125 C117 1.249 . S
Mg126 O127 2.028 . S
Mg126 O133 1.986 1_655 S
Mg126 O135 2.114 . S
Mg126 O136 2.251 1_655 S
Mg126 O139 2.010 . S
O127 Mg126 2.028 . S
O127 C130 1.250 1_655 S
O128 Mg129 2.028 . S
O128 C130 1.248 . S
Mg129 O128 2.028 . S
Mg129 O134 2.032 . S
Mg129 O136 2.079 . S
C130 O127 1.250 1_455 S
C130 O128 1.248 . S
C131 O132 1.264 . S
C131 O139 1.249 . S
O132 C131 1.264 . S
O133 Mg126 1.986 1_455 S
O133 C137 1.246 . S
O134 Mg129 2.032 . S
O134 C137 1.259 . S
O135 Mg126 2.114 . S
O135 C138 1.252 . S
O136 Mg126 2.251 1_455 S
O136 Mg129 2.079 . S
O136 C138 1.273 1_455 S
C137 O133 1.246 . S
C137 O134 1.259 . S
C138 O135 1.252 . S
C138 O136 1.273 1_655 S
O139 Mg126 2.010 . S
O139 C131 1.249 . S
Mg140 O141 2.028 . S
Mg140 O147 1.986 1_565 S
Mg140 O149 2.114 . S
Mg140 O150 2.251 1_565 S
Mg140 O153 2.010 . S
O141 Mg140 2.028 . S
O141 C144 1.250 1_565 S
O142 Mg143 2.028 . S
O142 C144 1.248 . S
Mg143 O142 2.028 . S
Mg143 O148 2.032 . S
Mg143 O150 2.079 . S
C144 O141 1.250 1_545 S
C144 O142 1.248 . S
C145 O146 1.264 . S
C145 O153 1.249 . S
O146 C145 1.264 . S
O147 Mg140 1.986 1_545 S
O147 C151 1.246 . S
O148 Mg143 2.032 . S
O148 C151 1.259 . S
O149 Mg140 2.114 . S
O149 C152 1.252 . S
O150 Mg140 2.251 1_545 S
O150 Mg143 2.079 . S
O150 C152 1.273 1_545 S
C151 O147 1.246 . S
C151 O148 1.259 . S
C152 O149 1.252 . S
C152 O150 1.273 1_565 S
O153 Mg140 2.010 . S
O153 C145 1.249 . S
Mg154 O155 2.028 1_554 S
Mg154 O161 1.986 . S
Mg154 O163 2.114 . S
Mg154 O164 2.251 . S
Mg154 O167 2.010 . S
O155 Mg154 2.028 1_556 S
O155 C158 1.250 . S
O156 Mg157 2.028 1_556 S
O156 C158 1.248 . S
Mg157 O156 2.028 1_554 S
Mg157 O162 2.032 . S
Mg157 O164 2.079 . S
C158 O155 1.250 . S
C158 O156 1.248 . S
C159 O160 1.264 . S
C159 O167 1.249 . S
O160 C159 1.264 . S
O161 Mg154 1.986 . S
O161 C165 1.246 . S
O162 Mg157 2.032 . S
O162 C165 1.259 . S
O163 Mg154 2.114 . S
O163 C166 1.252 . S
O164 Mg154 2.251 . S
O164 Mg157 2.079 . S
O164 C166 1.273 . S
C165 O161 1.246 . S
C165 O162 1.259 . S
C166 O163 1.252 . S
C166 O164 1.273 . S
O167 Mg154 2.010 . S
O167 C159 1.249 . S
C11 C123 1.683 . S
C25 C137 1.683 . S
C151 C39 1.683 . S
C165 C53 1.683 . S
C95 C67 1.683 . S
C109 C81 1.683 . S
C12 C54 1.486 1_565 S
C68 C26 1.486 . S
C82 C40 1.486 1_655 S
C96 C138 1.486 1_455 S
C152 C110 1.486 1_565 S
C124 C166 1.486 . S
C89 C5 3.333 . S
C19 C103 3.333 . S
C117 C33 3.333 1_554 S
C131 C47 3.333 . S
C61 C145 3.333 . S
C159 C75 3.333 1_554 S
C4 C102 1.640 1_545 S
C116 C18 1.640 . S
C130 C32 1.640 1_455 S
C46 C144 1.640 1_565 S
C158 C60 1.640 . S
C88 C74 1.640 1_655 S
