# Generated by pormake.
# Topology qtz-x, (6)-cn, num edge types: 1
# Building blocks:
#     Node 0, Type 0, BuildingBlock: BETDEL_clean_sbu_0, # of connection points: 6
#     Node 1, Type 0, BuildingBlock: BETDEL_clean_sbu_0, # of connection points: 6
#     Node 2, Type 0, BuildingBlock: BETDEL_clean_sbu_0, # of connection points: 6
#     Edge 3, Type (0, 0), BuildingBlock: EZIPEK_clean_linker_0, # of connection points: 2
#     Edge 4, Type (0, 0), BuildingBlock: EZIPEK_clean_linker_0, # of connection points: 2
#     Edge 5, Type (0, 0), BuildingBlock: EZIPEK_clean_linker_0, # of connection points: 2
#     Edge 6, Type (0, 0), BuildingBlock: EZIPEK_clean_linker_0, # of connection points: 2
#     Edge 7, Type (0, 0), BuildingBlock: EZIPEK_clean_linker_0, # of connection points: 2
#     Edge 8, Type (0, 0), BuildingBlock: EZIPEK_clean_linker_0, # of connection points: 2
#     Edge 9, Type (0, 0), BuildingBlock: EZIPEK_clean_linker_0, # of connection points: 2
#     Edge 10, Type (0, 0), BuildingBlock: EZIPEK_clean_linker_0, # of connection points: 2
#     Edge 11, Type (0, 0), BuildingBlock: EZIPEK_clean_linker_0, # of connection points: 2
# Relax obj value: 0.149
# Max RMSD: 0.223
# Mean RMSD: 0.216
data_MOF--net-qtz-x--node1-BETDEL_clean_sbu_0--edge1-EZIPEK_clean_linker_0
_symmetry_space_group_name_H-M    P1
_symmetry_Int_Tables_number       1
_symmetry_cell_setting            triclinic
loop_
_symmetry_equiv_pos_as_xyz
'x, y, z'
_cell_length_a     10.629808
_cell_length_b     10.678522
_cell_length_c     32.043536
_cell_angle_alpha  82.123579
_cell_angle_beta   100.37448
_cell_angle_gamma 120.65704
loop_
_atom_site_label
_atom_site_type_symbol
_atom_site_fract_x
_atom_site_fract_y
_atom_site_fract_z
_atom_type_partial_charge
Dy0 Dy 0.90725 0.46664 0.21446 0.0
C1 C 0.34198 0.73036 0.10579 0.0
C2 C 0.73844 0.32933 0.27985 0.0
Dy3 Dy 0.16967 0.61186 0.17101 0.0
O4 O 0.79028 0.46419 0.26666 0.0
O5 O 0.76888 0.26581 0.25456 0.0
O6 O 0.84741 0.63692 0.18929 0.0
O7 O 0.07243 0.70019 0.20547 0.0
C8 C 0.98187 0.7446 0.19032 0.0
C9 C 0.09137 0.33423 0.19602 0.0
O10 O 0.28799 0.69773 0.2346 0.0
O11 O 0.09727 0.49869 0.26433 0.0
O12 O 0.32418 0.61644 0.12989 0.0
O13 O 0.27478 0.78577 0.11974 0.0
O14 O 0.22627 0.44054 0.19794 0.0
O15 O 0.00326 0.37996 0.17958 0.0
O16 O 0.77738 0.40208 0.15053 0.0
O17 O 0.98274 0.57741 0.12034 0.0
C18 C 0.2315 0.61292 0.26821 0.0
C19 C 0.84083 0.48048 0.11702 0.0
Dy20 Dy 0.70175 0.18432 0.55567 0.0
C21 C 0.44898 0.76397 0.44034 0.0
C22 C 0.78553 0.37303 0.61818 0.0
Dy23 Dy 0.54908 0.92359 0.50991 0.0
O24 O 0.86909 0.38614 0.59105 0.0
O25 O 0.65562 0.26204 0.60958 0.0
O26 O 0.91854 0.23377 0.54097 0.0
O27 O 0.7593 0.01422 0.55268 0.0
C28 C 0.88822 0.09951 0.54285 0.0
C29 C 0.36525 0.00801 0.52582 0.0
O30 O 0.49973 0.79664 0.57128 0.0
O31 O 0.59616 0.00859 0.60592 0.0
O32 O 0.42933 0.87045 0.44516 0.0
O33 O 0.51757 0.73564 0.47503 0.0
O34 O 0.33595 0.87404 0.52786 0.0
O35 O 0.49145 0.09306 0.51425 0.0
O36 O 0.69209 0.28363 0.48917 0.0
O37 O 0.69872 0.09365 0.46688 0.0
C38 C 0.52437 0.86462 0.60583 0.0
C39 C 0.70739 0.22138 0.45886 0.0
Dy40 Dy 0.52244 0.67941 0.87437 0.0
C41 C 0.80534 0.50371 0.78487 0.0
C42 C 0.42249 0.77 0.93093 0.0
Dy43 Dy 0.66423 0.54232 0.84123 0.0
O44 O 0.34726 0.64645 0.91244 0.0
O45 O 0.54627 0.84502 0.91565 0.0
O46 O 0.67957 0.8942 0.8454 0.0
O47 O 0.7536 0.74755 0.87135 0.0
C48 C 0.79005 0.87077 0.85206 0.0
C49 C 0.39555 0.34711 0.86241 0.0
O50 O 0.75173 0.52393 0.90906 0.0
O51 O 0.58084 0.56452 0.93149 0.0
O52 O 0.68029 0.40557 0.7973 0.0
O53 O 0.86049 0.61906 0.80638 0.0
O54 O 0.50411 0.32097 0.86618 0.0
O55 O 0.43289 0.4725 0.84453 0.0
O56 O 0.41073 0.67269 0.80807 0.0
O57 O 0.58484 0.64184 0.78407 0.0
C58 C 0.68133 0.52403 0.93918 0.0
C59 C 0.47453 0.66916 0.77672 0.0
C60 C 0.98821 0.94064 0.2285 0.0
C61 C 0.01453 0.89743 0.19236 0.0
C62 C 0.06972 0.13517 0.15633 0.0
C63 C 0.05856 0.18224 0.19416 0.0
N64 N 0.04843 0.14186 0.26959 0.0
N65 N 0.10555 0.96454 0.12451 0.0
C66 C 0.03029 0.08874 0.23125 0.0
C67 C 0.06313 -0.00174 0.15706 0.0
N68 N 0.91822 0.8404 0.25969 0.0
N69 N 0.08469 0.22019 0.11953 0.0
H70 H 0.09775 0.86389 0.12363 0.0
H71 H 0.15739 0.03913 0.10014 0.0
H72 H 0.09254 0.32197 0.11798 0.0
H73 H 0.07709 0.1848 0.08999 0.0
H74 H 0.88386 0.86494 0.28439 0.0
H75 H 0.88094 0.7301 0.25863 0.0
H76 H 0.04633 0.08199 0.2983 0.0
H77 H 0.07944 0.24985 0.27302 0.0
C78 C 0.27299 0.1623 0.54774 0.0
C79 C 0.24691 0.04432 0.52526 0.0
C80 C 0.97941 0.94444 0.52062 0.0
C81 C 0.00566 0.06194 0.5434 0.0
N82 N 0.17416 0.25018 0.59148 0.0
N83 N 0.07865 0.85465 0.47756 0.0
C84 C 0.15181 0.1622 0.56047 0.0
C85 C 0.10073 0.94357 0.50826 0.0
N86 N 0.41187 0.2786 0.55492 0.0
N87 N 0.83997 0.82976 0.51267 0.0
H88 H 0.16563 0.86146 0.46475 0.0
H89 H 0.97586 0.78862 0.46085 0.0
H90 H 0.75082 0.82062 0.52452 0.0
H91 H 0.81595 0.73468 0.49962 0.0
H92 H 0.43491 0.37356 0.56785 0.0
H93 H 0.50116 0.28883 0.54277 0.0
H94 H 0.27719 0.31523 0.60822 0.0
H95 H 0.08734 0.24319 0.60444 0.0
C96 C 0.01035 0.07508 0.89195 0.0
C97 C 0.94426 -0.00582 0.85479 0.0
C98 C 0.1755 0.13947 0.82382 0.0
C99 C 0.23977 0.2264 0.85981 0.0
N100 N 0.21366 0.28979 0.92582 0.0
N101 N 0.9495 0.9778 0.78115 0.0
C102 C 0.15554 0.19803 0.8932 0.0
C103 C 0.02286 0.03416 0.81955 0.0
N104 N 0.93459 0.03376 0.92617 0.0
N105 N 0.26016 0.15559 0.79388 0.0
H106 H 0.83557 0.90901 0.77645 0.0
H107 H 0.9976 0.01302 0.75314 0.0
H108 H 0.37151 0.23378 0.79492 0.0
H109 H 0.22261 0.08384 0.76971 0.0
H110 H 0.98093 0.07752 0.95583 0.0
H111 H 0.82663 0.94785 0.9259 0.0
H112 H 0.15336 0.28659 0.94857 0.0
H113 H 0.32121 0.37651 0.92862 0.0
C114 C 0.51886 0.87625 1.0036 0.0
C115 C 0.39722 0.79252 0.97306 0.0
C116 C 0.24062 0.67065 0.02959 0.0
C117 C 0.36421 0.74696 0.06044 0.0
N118 N 0.62562 0.90021 0.07793 0.0
N119 N 0.13472 0.65388 0.95546 0.0
C120 C 0.50489 0.84335 0.04775 0.0
C121 C 0.25554 0.70312 0.98569 0.0
N122 N 0.64343 -0.00606 0.99054 0.0
N123 N 0.11189 0.55879 0.04224 0.0
H124 H 0.14315 0.68525 0.9233 0.0
H125 H 0.02661 0.59692 0.96237 0.0
H126 H 0.10102 0.52316 0.07387 0.0
H127 H 0.02239 0.48961 1.02148 0.0
H128 H 0.7326 0.06389 1.01122 0.0
H129 H 0.64842 0.03604 0.9592 0.0
H130 H 0.73364 0.96075 0.0709 0.0
H131 H 0.61814 0.87824 0.11042 0.0
C132 C 0.61631 0.30119 0.38741 0.0
C133 C 0.72768 0.28188 0.41443 0.0
C134 C 0.8083 0.24541 0.35259 0.0
C135 C 0.71084 0.2827 0.32491 0.0
N136 N 0.52368 0.35133 0.31566 0.0
N137 N 0.95359 0.27552 0.42158 0.0
C138 C 0.61604 0.31347 0.34234 0.0
C139 C 0.83213 0.26861 0.39638 0.0
N140 N 0.50712 0.30058 0.40449 0.0
N141 N 0.8727 0.18049 0.33788 0.0
H142 H 0.97517 0.29541 0.45383 0.0
H143 H 0.04014 0.27895 0.40952 0.0
H144 H 0.84278 0.14229 0.30755 0.0
H145 H 0.93705 0.14288 0.3577 0.0
H146 H 0.41324 0.29636 0.38653 0.0
H147 H 0.5064 0.29719 0.43707 0.0
H148 H 0.46042 0.38686 0.32604 0.0
H149 H 0.51305 0.35029 0.28266 0.0
C150 C 0.41721 0.81531 0.71482 0.0
C151 C 0.42512 0.68933 0.73124 0.0
C152 C 0.4651 0.65452 0.66184 0.0
C153 C 0.46297 0.78405 0.64562 0.0
N154 N 0.36496 0.94091 0.65146 0.0
N155 N 0.38684 0.45726 0.71589 0.0
C156 C 0.4148 0.84895 0.67041 0.0
C157 C 0.42363 0.59748 0.70285 0.0
N158 N 0.42132 0.9079 0.74116 0.0
N159 N 0.51706 0.59171 0.64042 0.0
H160 H 0.35264 0.41383 0.74564 0.0
H161 H 0.37395 0.38169 0.69569 0.0
H162 H 0.5574 0.63269 0.61143 0.0
H163 H 0.53304 0.50526 0.65358 0.0
H164 H 0.43409 0.01003 0.73054 0.0
H165 H 0.42073 0.88706 0.77382 0.0
H166 H 0.31922 0.98273 0.6678 0.0
H167 H 0.35252 0.96009 0.61857 0.0
C168 C 0.64996 0.36102 1.00572 0.0
C169 C 0.72535 0.50032 0.98447 0.0
C170 C 0.80276 0.61326 0.05201 0.0
C171 C 0.7591 0.47648 0.07401 0.0
N172 N 0.63064 0.21524 0.07214 0.0
N173 N 0.89543 0.75799 0.98867 0.0
C174 C 0.67809 0.34806 0.05105 0.0
C175 C 0.80884 0.62612 1.0081 0.0
N176 N 0.55056 0.24297 0.98274 0.0
N177 N 0.83562 0.73042 0.07329 0.0
H178 H 0.90721 0.76932 0.95652 0.0
H179 H 0.96744 0.85109 1.00551 0.0
H180 H 0.82169 0.7198 0.10525 0.0
H181 H 0.85899 0.83133 0.05809 0.0
H182 H 0.47837 0.14248 0.99637 0.0
H183 H 0.53454 0.24861 0.94961 0.0
H184 H 0.57669 0.11854 0.05674 0.0
H185 H 0.64665 0.20186 0.10511 0.0
C186 C 0.20748 0.65496 0.3396 0.0
C187 C 0.29909 0.65515 0.31234 0.0
C188 C 0.49324 0.70503 0.37287 0.0
C189 C 0.39392 0.69015 0.40009 0.0
N190 N 0.14684 0.61534 0.41105 0.0
N191 N 0.52492 0.6665 0.30319 0.0
C192 C 0.24711 0.65111 0.38385 0.0
C193 C 0.44119 0.67597 0.32897 0.0
N194 N 0.08721 0.66865 0.32292 0.0
N195 N 0.63788 0.75342 0.38847 0.0
H196 H 0.48996 0.64675 0.27102 0.0
H197 H 0.62425 0.66857 0.3142 0.0
H198 H 0.67735 0.7702 0.42061 0.0
H199 H 0.71958 0.78327 0.36941 0.0
H200 H 0.02325 0.68168 0.34117 0.0
H201 H 0.06327 0.68594 0.29044 0.0
H202 H 0.03536 0.57857 0.401 0.0
H203 H 0.17306 0.60871 0.444 0.0
C204 C 0.8467 0.59456 0.70848 0.0
C205 C 0.84847 0.4978 0.74385 0.0
C206 C 0.84971 0.33818 0.69612 0.0
C207 C 0.84012 0.43109 0.66099 0.0
N208 N 0.87724 0.66654 0.63393 0.0
N209 N 0.89256 0.30192 0.77277 0.0
C210 C 0.85668 0.56676 0.6674 0.0
C211 C 0.86384 0.37756 0.73804 0.0
N212 N 0.82146 0.7047 0.71311 0.0
N213 N 0.84001 0.20986 0.68916 0.0
H214 H 0.90507 0.33019 0.80378 0.0
H215 H 0.91725 0.22054 0.77093 0.0
H216 H 0.84215 0.18377 0.65918 0.0
H217 H 0.82496 0.12743 0.71262 0.0
H218 H 0.80405 0.76902 0.68788 0.0
H219 H 0.80543 0.72471 0.74184 0.0
H220 H 0.90339 0.77327 0.63707 0.0
H221 H 0.88219 0.64615 0.60348 0.0
loop_
_geom_bond_atom_site_label_1
_geom_bond_atom_site_label_2
_geom_bond_distance
_geom_bond_site_symmetry_2
_ccdc_geom_bond_type
Dy0 O4 2.398 . S
Dy0 O5 2.491 . S
Dy0 O6 2.403 . S
Dy0 O7 2.664 1_655 S
Dy0 O11 2.326 1_655 S
Dy0 O15 2.310 . S
Dy0 O16 2.351 . S
C1 O12 1.185 . S
C1 O13 1.355 . S
C2 O4 1.185 . S
C2 O5 1.355 . S
Dy3 O7 2.310 . S
Dy3 O10 2.351 . S
Dy3 O12 2.398 . S
Dy3 O13 2.491 . S
Dy3 O14 2.403 . S
Dy3 O15 2.664 1_455 S
Dy3 O17 2.326 1_455 S
O4 Dy0 2.398 . S
O4 C2 1.185 . S
O5 Dy0 2.491 . S
O5 C2 1.355 . S
O6 Dy0 2.403 . S
O6 C8 1.254 . S
O7 Dy0 2.664 1_455 S
O7 Dy3 2.310 . S
O7 C8 1.268 1_455 S
C8 O6 1.254 . S
C8 O7 1.268 1_655 S
C9 O14 1.254 . S
C9 O15 1.268 1_455 S
O10 Dy3 2.351 . S
O10 C18 1.249 . S
O11 Dy0 2.326 1_455 S
O11 C18 1.267 . S
O12 C1 1.185 . S
O12 Dy3 2.398 . S
O13 C1 1.355 . S
O13 Dy3 2.491 . S
O14 Dy3 2.403 . S
O14 C9 1.254 . S
O15 Dy0 2.310 . S
O15 Dy3 2.664 1_655 S
O15 C9 1.268 1_655 S
O16 Dy0 2.351 . S
O16 C19 1.249 . S
O17 Dy3 2.326 1_655 S
O17 C19 1.267 . S
C18 O10 1.249 . S
C18 O11 1.267 . S
C19 O16 1.249 . S
C19 O17 1.267 . S
Dy20 O24 2.398 . S
Dy20 O25 2.491 . S
Dy20 O26 2.403 . S
Dy20 O27 2.664 1_545 S
Dy20 O31 2.326 1_545 S
Dy20 O35 2.310 . S
Dy20 O36 2.351 . S
C21 O32 1.185 . S
C21 O33 1.355 . S
C22 O24 1.185 . S
C22 O25 1.355 . S
Dy23 O27 2.310 . S
Dy23 O30 2.351 . S
Dy23 O32 2.398 . S
Dy23 O33 2.491 . S
Dy23 O34 2.403 . S
Dy23 O35 2.664 1_565 S
Dy23 O37 2.326 1_565 S
O24 Dy20 2.398 . S
O24 C22 1.185 . S
O25 Dy20 2.491 . S
O25 C22 1.355 . S
O26 Dy20 2.403 . S
O26 C28 1.254 . S
O27 Dy20 2.664 1_565 S
O27 Dy23 2.310 . S
O27 C28 1.268 1_565 S
C28 O26 1.254 . S
C28 O27 1.268 1_545 S
C29 O34 1.254 . S
C29 O35 1.268 1_565 S
O30 Dy23 2.351 . S
O30 C38 1.249 . S
O31 Dy20 2.326 1_565 S
O31 C38 1.267 . S
O32 C21 1.185 . S
O32 Dy23 2.398 . S
O33 C21 1.355 . S
O33 Dy23 2.491 . S
O34 Dy23 2.403 . S
O34 C29 1.254 . S
O35 Dy20 2.310 . S
O35 Dy23 2.664 1_545 S
O35 C29 1.268 1_545 S
O36 Dy20 2.351 . S
O36 C39 1.249 . S
O37 Dy23 2.326 1_545 S
O37 C39 1.267 . S
C38 O30 1.249 . S
C38 O31 1.267 . S
C39 O36 1.249 . S
C39 O37 1.267 . S
Dy40 O44 2.398 . S
Dy40 O45 2.491 . S
Dy40 O46 2.406 . S
Dy40 O47 2.664 . S
Dy40 O51 2.326 . S
Dy40 O55 2.310 . S
Dy40 O56 2.351 . S
C41 O52 1.185 . S
C41 O53 1.355 . S
C42 O44 1.185 . S
C42 O45 1.355 . S
Dy43 O47 2.310 . S
Dy43 O50 2.351 . S
Dy43 O52 2.398 . S
Dy43 O53 2.491 . S
Dy43 O54 2.403 . S
Dy43 O55 2.664 . S
Dy43 O57 2.326 . S
O44 Dy40 2.398 . S
O44 C42 1.185 . S
O45 Dy40 2.491 . S
O45 C42 1.355 . S
O46 Dy40 2.406 . S
O46 C48 1.261 . S
O47 Dy40 2.664 . S
O47 Dy43 2.310 . S
O47 C48 1.268 . S
C48 O46 1.261 . S
C48 O47 1.268 . S
C49 O54 1.254 . S
C49 O55 1.268 . S
O50 Dy43 2.351 . S
O50 C58 1.249 . S
O51 Dy40 2.326 . S
O51 C58 1.267 . S
O52 C41 1.185 . S
O52 Dy43 2.398 . S
O53 C41 1.355 . S
O53 Dy43 2.491 . S
O54 Dy43 2.403 . S
O54 C49 1.254 . S
O55 Dy40 2.310 . S
O55 Dy43 2.664 . S
O55 C49 1.268 . S
O56 Dy40 2.351 . S
O56 C59 1.249 . S
O57 Dy43 2.326 . S
O57 C59 1.267 . S
C58 O50 1.249 . S
C58 O51 1.267 . S
C59 O56 1.249 . S
C59 O57 1.267 . S
C60 C61 1.363 1_655 S
C60 C66 1.379 1_565 S
C60 N68 1.356 . S
C61 C60 1.363 1_455 S
C61 C67 1.363 1_565 S
C62 C63 1.363 1_455 S
C62 C67 1.379 . S
C62 N69 1.356 . S
C63 C62 1.363 1_655 S
C63 C66 1.363 . S
N64 C66 1.356 . S
N64 H76 0.984 . S
N64 H77 0.985 . S
N65 C67 1.362 . S
N65 H70 0.976 1_545 S
N65 H71 0.988 . S
C66 C60 1.379 1_545 S
C66 C63 1.363 . S
C66 N64 1.356 . S
C67 C61 1.363 1_545 S
C67 C62 1.379 . S
C67 N65 1.362 . S
N68 C60 1.356 . S
N68 H74 0.984 . S
N68 H75 0.984 . S
N69 C62 1.356 . S
N69 H72 0.984 . S
N69 H73 0.985 . S
H70 N65 0.976 1_565 S
H71 N65 0.988 . S
H72 N69 0.984 . S
H73 N69 0.985 . S
H74 N68 0.984 . S
H75 N68 0.984 . S
H76 N64 0.984 . S
H77 N64 0.985 . S
C78 C79 1.363 . S
C78 C84 1.379 . S
C78 N86 1.356 . S
C79 C78 1.363 . S
C79 C85 1.363 1_545 S
C80 C81 1.365 . S
C80 C85 1.379 1_655 S
C80 N87 1.356 . S
C81 C80 1.365 . S
C81 C84 1.362 1_665 S
N82 C84 1.356 . S
N82 H94 0.984 . S
N82 H95 0.985 1_455 S
N83 C85 1.356 . S
N83 H88 0.984 . S
N83 H89 0.985 . S
C84 C78 1.379 . S
C84 C81 1.362 1_445 S
C84 N82 1.356 . S
C85 C79 1.363 1_565 S
C85 C80 1.379 1_455 S
C85 N83 1.356 . S
N86 C78 1.356 . S
N86 H92 0.984 . S
N86 H93 0.984 . S
N87 C80 1.356 . S
N87 H90 0.984 . S
N87 H91 0.985 . S
H88 N83 0.984 . S
H89 N83 0.985 . S
H90 N87 0.984 . S
H91 N87 0.985 . S
H92 N86 0.984 . S
H93 N86 0.984 . S
H94 N82 0.984 . S
H95 N82 0.985 1_655 S
C96 C97 1.363 . S
C96 C102 1.379 . S
C96 N104 1.356 1_455 S
C97 C96 1.363 . S
C97 C103 1.363 . S
C98 C99 1.363 . S
C98 C103 1.379 . S
C98 N105 1.356 . S
C99 C98 1.363 . S
C99 C102 1.363 . S
N100 C102 1.356 . S
N100 H112 0.984 . S
N100 H113 0.985 . S
N101 C103 1.356 1_565 S
N101 H106 0.984 1_455 S
N101 H107 0.985 . S
C102 C96 1.379 . S
C102 C99 1.363 . S
C102 N100 1.356 . S
C103 C97 1.363 . S
C103 C98 1.379 . S
C103 N101 1.356 1_545 S
N104 C96 1.356 1_655 S
N104 H110 0.984 . S
N104 H111 0.984 1_545 S
N105 C98 1.356 . S
N105 H108 0.984 . S
N105 H109 0.985 . S
H106 N101 0.984 1_655 S
H107 N101 0.985 . S
H108 N105 0.984 . S
H109 N105 0.985 . S
H110 N104 0.984 . S
H111 N104 0.984 1_565 S
H112 N100 0.984 . S
H113 N100 0.985 . S
C114 C115 1.363 . S
C114 C120 1.379 1_556 S
C114 N122 1.356 . S
C115 C114 1.363 . S
C115 C121 1.363 . S
C116 C117 1.363 1_556 S
C116 C121 1.379 . S
C116 N123 1.356 1_556 S
C117 C116 1.363 1_554 S
C117 C120 1.363 . S
N118 C120 1.356 . S
N118 H130 0.984 1_565 S
N118 H131 0.985 . S
N119 C121 1.356 . S
N119 H124 0.984 . S
N119 H125 0.985 . S
C120 C114 1.379 1_554 S
C120 C117 1.363 . S
C120 N118 1.356 . S
C121 C115 1.363 . S
C121 C116 1.379 . S
C121 N119 1.356 . S
N122 C114 1.356 . S
N122 H128 0.984 1_566 S
N122 H129 0.984 . S
N123 C116 1.356 1_554 S
N123 H126 0.984 . S
N123 H127 0.985 1_554 S
H124 N119 0.984 . S
H125 N119 0.985 . S
H126 N123 0.984 . S
H127 N123 0.985 1_556 S
H128 N122 0.984 1_544 S
H129 N122 0.984 . S
H130 N118 0.984 1_545 S
H131 N118 0.985 . S
C132 C133 1.363 . S
C132 C138 1.379 . S
C132 N140 1.356 . S
C133 C132 1.363 . S
C133 C139 1.363 . S
C134 C135 1.363 . S
C134 C139 1.379 . S
C134 N141 1.356 . S
C135 C134 1.363 . S
C135 C138 1.363 . S
N136 C138 1.356 . S
N136 H148 0.984 . S
N136 H149 0.985 . S
N137 C139 1.356 . S
N137 H142 0.984 . S
N137 H143 0.985 1_545 S
C138 C132 1.379 . S
C138 C135 1.363 . S
C138 N136 1.356 . S
C139 C133 1.363 . S
C139 C134 1.379 . S
C139 N137 1.356 . S
N140 C132 1.356 . S
N140 H146 0.984 . S
N140 H147 0.984 . S
N141 C134 1.356 . S
N141 H144 0.984 . S
N141 H145 0.985 . S
H142 N137 0.984 . S
H143 N137 0.985 1_565 S
H144 N141 0.984 . S
H145 N141 0.985 . S
H146 N140 0.984 . S
H147 N140 0.984 . S
H148 N136 0.984 . S
H149 N136 0.985 . S
C150 C151 1.363 . S
C150 C156 1.379 . S
C150 N158 1.356 . S
C151 C150 1.363 . S
C151 C157 1.363 . S
C152 C153 1.363 . S
C152 C157 1.379 . S
C152 N159 1.356 . S
C153 C152 1.363 . S
C153 C156 1.363 . S
N154 C156 1.356 . S
N154 H166 0.984 1_565 S
N154 H167 0.985 . S
N155 C157 1.356 . S
N155 H160 0.984 . S
N155 H161 0.985 . S
C156 C150 1.379 . S
C156 C153 1.363 . S
C156 N154 1.356 . S
C157 C151 1.363 . S
C157 C152 1.379 . S
C157 N155 1.356 . S
N158 C150 1.356 . S
N158 H164 0.984 1_565 S
N158 H165 0.984 . S
N159 C152 1.356 . S
N159 H162 0.984 . S
N159 H163 0.985 . S
H160 N155 0.984 . S
H161 N155 0.985 . S
H162 N159 0.984 . S
H163 N159 0.985 . S
H164 N158 0.984 1_545 S
H165 N158 0.984 . S
H166 N154 0.984 1_545 S
H167 N154 0.985 . S
C168 C169 1.363 . S
C168 C174 1.379 1_556 S
C168 N176 1.356 . S
C169 C168 1.363 . S
C169 C175 1.363 . S
C170 C171 1.363 . S
C170 C175 1.379 1_554 S
C170 N177 1.356 . S
C171 C170 1.363 . S
C171 C174 1.363 . S
N172 C174 1.356 . S
N172 H184 0.984 . S
N172 H185 0.985 . S
N173 C175 1.356 . S
N173 H178 0.984 . S
N173 H179 0.985 1_655 S
C174 C168 1.379 1_554 S
C174 C171 1.363 . S
C174 N172 1.356 . S
C175 C169 1.363 . S
C175 C170 1.379 1_556 S
C175 N173 1.356 . S
N176 C168 1.356 . S
N176 H182 0.984 . S
N176 H183 0.984 . S
N177 C170 1.356 . S
N177 H180 0.984 . S
N177 H181 0.985 1_655 S
H178 N173 0.984 . S
H179 N173 0.985 1_455 S
H180 N177 0.984 . S
H181 N177 0.985 1_455 S
H182 N176 0.984 . S
H183 N176 0.984 . S
H184 N172 0.984 . S
H185 N172 0.985 . S
C186 C187 1.363 . S
C186 C192 1.379 . S
C186 N194 1.356 . S
C187 C186 1.363 . S
C187 C193 1.363 . S
C188 C189 1.363 . S
C188 C193 1.379 . S
C188 N195 1.356 . S
C189 C188 1.363 . S
C189 C192 1.363 . S
N190 C192 1.356 . S
N190 H202 0.984 . S
N190 H203 0.985 . S
N191 C193 1.356 . S
N191 H196 0.984 . S
N191 H197 0.985 . S
C192 C186 1.379 . S
C192 C189 1.363 . S
C192 N190 1.356 . S
C193 C187 1.363 . S
C193 C188 1.379 . S
C193 N191 1.356 . S
N194 C186 1.356 . S
N194 H200 0.984 1_455 S
N194 H201 0.984 1_455 S
N195 C188 1.356 . S
N195 H198 0.984 . S
N195 H199 0.985 . S
H196 N191 0.984 . S
H197 N191 0.985 . S
H198 N195 0.984 . S
H199 N195 0.985 . S
H200 N194 0.984 1_655 S
H201 N194 0.984 1_655 S
H202 N190 0.984 . S
H203 N190 0.985 . S
C204 C205 1.363 . S
C204 C210 1.379 . S
C204 N212 1.356 . S
C205 C204 1.363 . S
C205 C211 1.363 . S
C206 C207 1.363 . S
C206 C211 1.379 . S
C206 N213 1.356 . S
C207 C206 1.363 . S
C207 C210 1.363 . S
N208 C210 1.356 . S
N208 H220 0.984 . S
N208 H221 0.985 . S
N209 C211 1.356 . S
N209 H214 0.984 . S
N209 H215 0.985 . S
C210 C204 1.379 . S
C210 C207 1.363 . S
C210 N208 1.356 . S
C211 C205 1.363 . S
C211 C206 1.379 . S
C211 N209 1.356 . S
N212 C204 1.356 . S
N212 H218 0.984 . S
N212 H219 0.984 . S
N213 C206 1.356 . S
N213 H216 0.984 . S
N213 H217 0.985 . S
H214 N209 0.984 . S
H215 N209 0.985 . S
H216 N213 0.984 . S
H217 N213 0.985 . S
H218 N212 0.984 . S
H219 N212 0.984 . S
H220 N208 0.984 . S
H221 N208 0.985 . S
C61 C8 1.318 1_455 S
C63 C9 1.318 1_655 S
C79 C29 1.348 1_545 S
C81 C28 1.346 1_565 S
C97 C48 1.298 1_445 S
C99 C49 1.298 . S
C115 C42 1.296 . S
C117 C1 1.280 . S
C133 C39 1.567 . S
C135 C2 1.568 . S
C151 C59 1.642 . S
C153 C38 1.634 . S
C169 C58 1.621 . S
C171 C19 1.613 . S
C187 C18 1.428 . S
C189 C21 1.390 . S
C205 C41 1.265 . S
C207 C22 1.284 . S
