# Generated by pormake.
# Topology tsi, (8)-cn, num edge types: 1
# Building blocks:
#     Node 0, Type 0, BuildingBlock: TAGTUT_clean_sbu_3, # of connection points: 8
#     Node 1, Type 0, BuildingBlock: TAGTUT_clean_sbu_3, # of connection points: 8
#     Node 2, Type 0, BuildingBlock: TAGTUT_clean_sbu_3, # of connection points: 8
#     Node 3, Type 0, BuildingBlock: TAGTUT_clean_sbu_3, # of connection points: 8
#     Edge 4, Type (0, 0), None
#     Edge 5, Type (0, 0), None
#     Edge 6, Type (0, 0), None
#     Edge 7, Type (0, 0), None
#     Edge 8, Type (0, 0), None
#     Edge 9, Type (0, 0), None
#     Edge 10, Type (0, 0), None
#     Edge 11, Type (0, 0), None
#     Edge 12, Type (0, 0), None
#     Edge 13, Type (0, 0), None
#     Edge 14, Type (0, 0), None
#     Edge 15, Type (0, 0), None
#     Edge 16, Type (0, 0), None
#     Edge 17, Type (0, 0), None
#     Edge 18, Type (0, 0), None
#     Edge 19, Type (0, 0), None
# Relax obj value: 0.168
# Max RMSD: 0.226
# Mean RMSD: 0.226
data_MOF--net-tsi--node1-TAGTUT_clean_sbu_3--edge1-none
_symmetry_space_group_name_H-M    P1
_symmetry_Int_Tables_number       1
_symmetry_cell_setting            triclinic
loop_
_symmetry_equiv_pos_as_xyz
'x, y, z'
_cell_length_a     7.8045961
_cell_length_b     7.8651294
_cell_length_c     41.905002
_cell_angle_alpha  88.558062
_cell_angle_beta   90.170446
_cell_angle_gamma 90.420806
loop_
_atom_site_label
_atom_site_type_symbol
_atom_site_fract_x
_atom_site_fract_y
_atom_site_fract_z
_atom_type_partial_charge
C0 C 0.38428 0.18906 0.30763 0.0
C1 C 0.16511 0.0941 0.18542 0.0
C2 C 0.73336 0.27467 0.21608 0.0
Mg3 Mg 0.15498 0.30544 0.37042 0.0
Mg4 Mg 0.75373 0.1966 0.38435 0.0
O5 O 0.93258 0.20787 0.3558 0.0
Mg6 Mg 0.97441 0.14551 0.3104 0.0
O7 O 0.04627 0.09362 0.26505 0.0
Mg8 Mg 0.11464 0.32569 0.25054 0.0
Mg9 Mg 0.91658 0.96127 0.23776 0.0
C10 C 0.54003 0.16352 0.32048 0.0
O11 O -0.01853 0.85069 0.31797 0.0
O12 O 0.02957 0.44272 0.40977 0.0
O13 O 0.93755 0.73743 0.26929 0.0
O14 O 0.16705 0.09246 0.41107 0.0
O15 O 0.74327 0.43414 0.40804 0.0
O16 O 0.88394 0.05997 0.4218 0.0
O17 O -0.01414 0.42205 0.2964 0.0
O18 O 0.09805 0.54097 0.3389 0.0
C19 C 0.02315 0.55389 0.31196 0.0
C20 C 0.88357 0.4859 0.42017 0.0
O21 O 0.67421 0.16236 0.30238 0.0
O22 O 0.20792 0.21528 0.20385 0.0
O23 O 0.54775 0.14739 0.35109 0.0
O24 O 0.86748 0.36408 0.22127 0.0
O25 O 0.05963 0.97585 0.19351 0.0
O26 O 0.70802 0.1305 0.23015 0.0
O27 O 0.25256 0.15985 0.32502 0.0
O28 O 0.36761 0.24989 0.27896 0.0
C29 C 0.04242 0.04702 0.42981 0.0
C30 C 0.97604 0.72328 0.2991 0.0
C31 C 0.39525 0.76593 0.57192 0.0
C32 C 0.18257 0.85759 0.69343 0.0
C33 C 0.74868 0.68102 0.66308 0.0
Mg34 Mg 0.15733 0.66517 0.50874 0.0
Mg35 Mg 0.77479 0.84411 0.4967 0.0
O36 O 0.92474 0.73183 0.5243 0.0
Mg37 Mg -0.01616 0.80549 0.56888 0.0
O38 O 0.06389 0.85993 0.61376 0.0
Mg39 Mg 0.12639 0.62552 0.62835 0.0
Mg40 Mg 0.93672 -0.00764 0.64094 0.0
C41 C 0.55149 0.80233 0.55984 0.0
O42 O -0.00957 0.10091 0.5602 0.0
O43 O 0.0248 0.55841 0.46614 0.0
O44 O 0.95534 0.21466 0.60895 0.0
O45 O 0.18191 0.89694 0.4727 0.0
O46 O 0.76465 0.67341 0.45739 0.0
O47 O 0.94484 0.04315 0.48233 0.0
O48 O -0.00259 0.52959 0.58229 0.0
O49 O 0.10007 0.41721 0.53832 0.0
C50 C 0.0317 0.39993 0.56592 0.0
C51 C 0.88716 0.57579 0.44975 0.0
O52 O 0.68556 0.79118 0.57799 0.0
O53 O 0.2214 0.7354 0.67512 0.0
O54 O 0.56082 0.84343 0.52996 0.0
O55 O 0.87921 0.58908 0.65764 0.0
O56 O 0.08146 0.97801 0.68512 0.0
O57 O 0.7257 0.82444 0.64872 0.0
O58 O 0.26241 0.79653 0.55473 0.0
O59 O 0.37933 0.69957 0.60018 0.0
C60 C 0.07084 0.0084 0.46422 0.0
C61 C -0.01152 0.2289 0.57894 0.0
C62 C 0.53175 0.14027 0.82272 0.0
C63 C 0.36785 0.93298 0.9379 0.0
C64 C 0.6032 0.49486 0.91774 0.0
Mg65 Mg 0.62933 0.91096 0.76004 0.0
Mg66 Mg 0.44262 0.53576 0.74867 0.0
O67 O 0.57338 0.67383 0.77496 0.0
Mg68 Mg 0.49377 0.72714 0.81945 0.0
O69 O 0.42964 0.79828 0.86359 0.0
Mg70 Mg 0.65567 0.87516 0.8807 0.0
Mg71 Mg 0.2976 0.65341 0.88864 0.0
C72 C 0.49548 0.2964 0.8102 0.0
O73 O 0.19966 0.73476 0.80931 0.0
O74 O 0.72024 0.79759 0.71322 0.0
O75 O 0.07956 0.66639 0.85695 0.0
O76 O 0.38015 0.94089 0.73128 0.0
O77 O 0.58547 0.54806 0.70451 0.0
O78 O 0.23083 0.69964 0.73948 0.0
O79 O 0.76865 0.74369 0.83434 0.0
O80 O 0.88107 0.84269 0.78832 0.0
C81 C 0.89837 0.77418 0.81637 0.0
C82 C 0.6833 0.67118 0.69555 0.0
O83 O 0.50427 0.42776 0.82821 0.0
O84 O 0.50804 0.97897 0.92401 0.0
O85 O 0.45511 0.3095 0.7804 0.0
O86 O 0.68642 0.63476 0.91432 0.0
O87 O 0.27189 0.81256 0.92838 0.0
O88 O 0.48004 0.45918 0.89889 0.0
O89 O 0.50584 0.00739 0.80627 0.0
O90 O 0.59202 0.12451 0.85113 0.0
C91 C 0.25077 0.84557 0.72573 0.0
C92 C 0.06861 0.71959 0.82784 0.0
C93 C 0.8776 0.20907 0.06322 0.0
C94 C 0.66509 0.28735 0.18379 0.0
C95 C 0.23058 0.10727 0.15296 0.0
Mg96 Mg 0.67013 0.0793 -0.00136 0.0
Mg97 Mg 0.24768 0.31267 -0.00935 0.0
O98 O 0.42102 0.17254 0.01348 0.0
Mg99 Mg 0.47035 0.23872 0.05916 0.0
O100 O 0.54549 0.28956 0.10433 0.0
Mg101 Mg 0.60955 0.05584 0.11846 0.0
Mg102 Mg 0.41879 0.42247 0.13151 0.0
C103 C 0.03404 0.25624 0.05221 0.0
O104 O 0.47971 0.53242 0.05111 0.0
O105 O 0.3921 0.0723 -0.01228 0.0
O106 O 0.44283 0.64608 0.09978 0.0
O107 O 0.67837 0.30914 -0.03883 0.0
O108 O 0.16477 0.11673 -0.04107 0.0
O109 O 0.42819 0.45762 -0.03838 0.0
O110 O 0.48451 0.96034 0.07197 0.0
O111 O 0.61263 0.84172 0.03073 0.0
C112 C 0.52841 0.82905 0.05688 0.0
C113 C 0.30141 0.0333 -0.03659 0.0
O114 O 0.17012 0.22405 0.06884 0.0
O115 O 0.70277 0.16493 0.16546 0.0
O116 O 0.04228 0.328 0.02447 0.0
O117 O 0.36141 0.01605 0.14731 0.0
O118 O 0.56389 0.40785 0.17561 0.0
O119 O 0.20815 0.25273 0.13928 0.0
O120 O 0.7454 0.23383 0.0453 0.0
O121 O 0.86179 0.13469 0.0908 0.0
C122 C 0.57826 0.42746 -0.04961 0.0
C123 C 0.47928 0.65986 0.06989 0.0
loop_
_geom_bond_atom_site_label_1
_geom_bond_atom_site_label_2
_geom_bond_distance
_geom_bond_site_symmetry_2
_ccdc_geom_bond_type
C0 O27 1.312 . S
C0 O28 1.208 . S
C1 O22 1.331 . S
C1 O25 1.244 1_545 S
C2 O24 1.264 . S
C2 O26 1.273 . S
Mg3 O5 1.936 1_455 S
Mg3 O12 2.081 1_455 S
Mg3 O14 2.023 . S
Mg3 O18 2.031 . S
Mg3 O27 2.291 . S
Mg4 O5 1.963 . S
Mg4 O15 1.942 . S
Mg4 O16 1.955 1_545 S
Mg4 O23 1.986 . S
O5 Mg3 1.936 1_655 S
O5 Mg4 1.963 . S
O5 Mg6 1.915 . S
Mg6 O5 1.915 . S
Mg6 O7 1.915 1_655 S
Mg6 O11 2.013 1_545 S
Mg6 O17 2.114 1_655 S
Mg6 O21 2.013 . S
Mg6 O27 2.114 1_655 S
O7 Mg6 1.915 1_455 S
O7 Mg8 1.936 . S
O7 Mg9 1.963 1_455 S
Mg8 O7 1.936 . S
Mg8 O17 2.291 . S
Mg8 O22 2.081 . S
Mg8 O24 2.023 1_455 S
Mg8 O28 2.031 . S
Mg9 O7 1.963 1_655 S
Mg9 O13 1.986 1_545 S
Mg9 O25 1.942 1_645 S
Mg9 O26 1.955 . S
C10 O21 1.191 . S
C10 O23 1.307 . S
O11 Mg6 2.013 1_565 S
O11 C30 1.191 . S
O12 Mg3 2.081 1_655 S
O12 C20 1.331 . S
O13 Mg9 1.986 1_565 S
O13 C30 1.307 . S
O14 Mg3 2.023 . S
O14 C29 1.264 . S
O15 Mg4 1.942 . S
O15 C20 1.244 . S
O16 Mg4 1.955 1_565 S
O16 C29 1.273 1_665 S
O17 Mg6 2.114 1_455 S
O17 Mg8 2.291 . S
O17 C19 1.312 . S
O18 Mg3 2.031 . S
O18 C19 1.208 . S
C19 O17 1.312 . S
C19 O18 1.208 . S
C20 O12 1.331 . S
C20 O15 1.244 . S
O21 Mg6 2.013 . S
O21 C10 1.191 . S
O22 C1 1.331 . S
O22 Mg8 2.081 . S
O23 Mg4 1.986 . S
O23 C10 1.307 . S
O24 C2 1.264 . S
O24 Mg8 2.023 1_655 S
O25 C1 1.244 1_565 S
O25 Mg9 1.942 1_465 S
O26 C2 1.273 . S
O26 Mg9 1.955 . S
O27 C0 1.312 . S
O27 Mg3 2.291 . S
O27 Mg6 2.114 1_455 S
O28 C0 1.208 . S
O28 Mg8 2.031 . S
C29 O14 1.264 . S
C29 O16 1.273 1_445 S
C30 O11 1.191 . S
C30 O13 1.307 . S
C31 O58 1.312 . S
C31 O59 1.208 . S
C32 O53 1.331 . S
C32 O56 1.244 1_565 S
C33 O55 1.264 . S
C33 O57 1.273 . S
Mg34 O36 1.936 1_455 S
Mg34 O43 2.081 1_455 S
Mg34 O45 2.023 . S
Mg34 O49 2.031 . S
Mg34 O58 2.291 . S
Mg35 O36 1.963 . S
Mg35 O46 1.942 . S
Mg35 O47 1.955 1_565 S
Mg35 O54 1.986 . S
O36 Mg34 1.936 1_655 S
O36 Mg35 1.963 . S
O36 Mg37 1.915 . S
Mg37 O36 1.915 . S
Mg37 O38 1.915 1_655 S
Mg37 O42 2.013 1_565 S
Mg37 O48 2.114 1_655 S
Mg37 O52 2.013 . S
Mg37 O58 2.114 1_655 S
O38 Mg37 1.915 1_455 S
O38 Mg39 1.936 . S
O38 Mg40 1.963 1_455 S
Mg39 O38 1.936 . S
Mg39 O48 2.291 . S
Mg39 O53 2.081 . S
Mg39 O55 2.023 1_455 S
Mg39 O59 2.031 . S
Mg40 O38 1.963 1_655 S
Mg40 O44 1.986 1_565 S
Mg40 O56 1.942 1_665 S
Mg40 O57 1.955 . S
C41 O52 1.191 . S
C41 O54 1.307 . S
O42 Mg37 2.013 1_545 S
O42 C61 1.191 . S
O43 Mg34 2.081 1_655 S
O43 C51 1.331 . S
O44 Mg40 1.986 1_545 S
O44 C61 1.307 . S
O45 Mg34 2.023 . S
O45 C60 1.264 . S
O46 Mg35 1.942 . S
O46 C51 1.244 . S
O47 Mg35 1.955 1_545 S
O47 C60 1.273 1_645 S
O48 Mg37 2.114 1_455 S
O48 Mg39 2.291 . S
O48 C50 1.312 . S
O49 Mg34 2.031 . S
O49 C50 1.208 . S
C50 O48 1.312 . S
C50 O49 1.208 . S
C51 O43 1.331 . S
C51 O46 1.244 . S
O52 Mg37 2.013 . S
O52 C41 1.191 . S
O53 C32 1.331 . S
O53 Mg39 2.081 . S
O54 Mg35 1.986 . S
O54 C41 1.307 . S
O55 C33 1.264 . S
O55 Mg39 2.023 1_655 S
O56 C32 1.244 1_545 S
O56 Mg40 1.942 1_445 S
O57 C33 1.273 . S
O57 Mg40 1.955 . S
O58 C31 1.312 . S
O58 Mg34 2.291 . S
O58 Mg37 2.114 1_455 S
O59 C31 1.208 . S
O59 Mg39 2.031 . S
C60 O45 1.264 . S
C60 O47 1.273 1_465 S
C61 O42 1.191 . S
C61 O44 1.307 . S
C62 O89 1.312 1_545 S
C62 O90 1.208 . S
C63 O84 1.331 . S
C63 O87 1.244 . S
C64 O86 1.264 . S
C64 O88 1.273 . S
Mg65 O67 1.936 . S
Mg65 O74 2.081 . S
Mg65 O76 2.023 . S
Mg65 O80 2.031 . S
Mg65 O89 2.291 . S
Mg66 O67 1.963 . S
Mg66 O77 1.942 . S
Mg66 O78 1.955 . S
Mg66 O85 1.986 . S
O67 Mg65 1.936 . S
O67 Mg66 1.963 . S
O67 Mg68 1.915 . S
Mg68 O67 1.915 . S
Mg68 O69 1.915 . S
Mg68 O73 2.013 . S
Mg68 O79 2.114 . S
Mg68 O83 2.013 . S
Mg68 O89 2.114 . S
O69 Mg68 1.915 . S
O69 Mg70 1.936 . S
O69 Mg71 1.963 . S
Mg70 O69 1.936 . S
Mg70 O79 2.291 . S
Mg70 O84 2.081 . S
Mg70 O86 2.023 . S
Mg70 O90 2.031 1_565 S
Mg71 O69 1.963 . S
Mg71 O75 1.986 . S
Mg71 O87 1.942 . S
Mg71 O88 1.955 . S
C72 O83 1.191 . S
C72 O85 1.307 . S
O73 Mg68 2.013 . S
O73 C92 1.191 . S
O74 Mg65 2.081 . S
O74 C82 1.331 . S
O75 Mg71 1.986 . S
O75 C92 1.307 . S
O76 Mg65 2.023 . S
O76 C91 1.264 . S
O77 Mg66 1.942 . S
O77 C82 1.244 . S
O78 Mg66 1.955 . S
O78 C91 1.273 . S
O79 Mg68 2.114 . S
O79 Mg70 2.291 . S
O79 C81 1.312 . S
O80 Mg65 2.031 . S
O80 C81 1.208 . S
C81 O79 1.312 . S
C81 O80 1.208 . S
C82 O74 1.331 . S
C82 O77 1.244 . S
O83 Mg68 2.013 . S
O83 C72 1.191 . S
O84 C63 1.331 . S
O84 Mg70 2.081 . S
O85 Mg66 1.986 . S
O85 C72 1.307 . S
O86 C64 1.264 . S
O86 Mg70 2.023 . S
O87 C63 1.244 . S
O87 Mg71 1.942 . S
O88 C64 1.273 . S
O88 Mg71 1.955 . S
O89 C62 1.312 1_565 S
O89 Mg65 2.291 . S
O89 Mg68 2.114 . S
O90 C62 1.208 . S
O90 Mg70 2.031 1_545 S
C91 O76 1.264 . S
C91 O78 1.273 . S
C92 O73 1.191 . S
C92 O75 1.307 . S
C93 O120 1.312 . S
C93 O121 1.208 . S
C94 O115 1.331 . S
C94 O118 1.244 . S
C95 O117 1.264 . S
C95 O119 1.273 . S
Mg96 O98 1.936 . S
Mg96 O105 2.081 . S
Mg96 O107 2.023 . S
Mg96 O111 2.031 1_545 S
Mg96 O120 2.291 . S
Mg97 O98 1.963 . S
Mg97 O108 1.942 . S
Mg97 O109 1.955 . S
Mg97 O116 1.986 . S
O98 Mg96 1.936 . S
O98 Mg97 1.963 . S
O98 Mg99 1.915 . S
Mg99 O98 1.915 . S
Mg99 O100 1.915 . S
Mg99 O104 2.013 . S
Mg99 O110 2.114 . S
Mg99 O114 2.013 . S
Mg99 O120 2.114 . S
O100 Mg99 1.915 . S
O100 Mg101 1.936 . S
O100 Mg102 1.963 . S
Mg101 O100 1.936 . S
Mg101 O110 2.291 . S
Mg101 O115 2.081 . S
Mg101 O117 2.023 . S
Mg101 O121 2.031 . S
Mg102 O100 1.963 . S
Mg102 O106 1.986 . S
Mg102 O118 1.942 . S
Mg102 O119 1.955 . S
C103 O114 1.191 . S
C103 O116 1.307 . S
O104 Mg99 2.013 . S
O104 C123 1.191 . S
O105 Mg96 2.081 . S
O105 C113 1.331 . S
O106 Mg102 1.986 . S
O106 C123 1.307 . S
O107 Mg96 2.023 . S
O107 C122 1.264 . S
O108 Mg97 1.942 . S
O108 C113 1.244 . S
O109 Mg97 1.955 . S
O109 C122 1.273 . S
O110 Mg99 2.114 . S
O110 Mg101 2.291 . S
O110 C112 1.312 1_545 S
O111 Mg96 2.031 1_565 S
O111 C112 1.208 . S
C112 O110 1.312 1_565 S
C112 O111 1.208 . S
C113 O105 1.331 . S
C113 O108 1.244 . S
O114 Mg99 2.013 . S
O114 C103 1.191 . S
O115 C94 1.331 . S
O115 Mg101 2.081 . S
O116 Mg97 1.986 . S
O116 C103 1.307 . S
O117 C95 1.264 . S
O117 Mg101 2.023 . S
O118 C94 1.244 . S
O118 Mg102 1.942 . S
O119 C95 1.273 . S
O119 Mg102 1.955 . S
O120 C93 1.312 . S
O120 Mg96 2.291 . S
O120 Mg99 2.114 . S
O121 C93 1.208 . S
O121 Mg101 2.031 . S
C122 O107 1.264 . S
C122 O109 1.273 . S
C123 O104 1.191 . S
C123 O106 1.307 . S
C20 C51 1.002 . S
C82 C33 1.140 . S
C64 C122 1.344 1_556 S
C2 C94 1.140 . S
C95 C1 1.139 . S
C32 C91 1.139 . S
C63 C113 1.002 1_566 S
C29 C60 1.344 1_545 S
C30 C19 1.722 1_655 S
C31 C41 1.767 . S
C72 C62 1.722 . S
C103 C93 1.767 1_455 S
C61 C50 1.722 1_655 S
C81 C92 1.767 1_655 S
C123 C112 1.722 . S
C10 C0 1.767 . S
