# Generated by pormake.
# Topology uog, (4)-cn, num edge types: 1
# Building blocks:
#     Node 0, Type 0, BuildingBlock: GALJAG_clean_sbu_0, # of connection points: 4
#     Node 1, Type 0, BuildingBlock: GALJAG_clean_sbu_0, # of connection points: 4
#     Node 2, Type 0, BuildingBlock: GALJAG_clean_sbu_0, # of connection points: 4
#     Node 3, Type 0, BuildingBlock: GALJAG_clean_sbu_0, # of connection points: 4
#     Node 4, Type 0, BuildingBlock: GALJAG_clean_sbu_0, # of connection points: 4
#     Node 5, Type 0, BuildingBlock: GALJAG_clean_sbu_0, # of connection points: 4
#     Edge 6, Type (0, 0), BuildingBlock: AJUNOK_clean_linker_0, # of connection points: 2
#     Edge 7, Type (0, 0), BuildingBlock: AJUNOK_clean_linker_0, # of connection points: 2
#     Edge 8, Type (0, 0), BuildingBlock: AJUNOK_clean_linker_0, # of connection points: 2
#     Edge 9, Type (0, 0), BuildingBlock: AJUNOK_clean_linker_0, # of connection points: 2
#     Edge 10, Type (0, 0), BuildingBlock: AJUNOK_clean_linker_0, # of connection points: 2
#     Edge 11, Type (0, 0), BuildingBlock: AJUNOK_clean_linker_0, # of connection points: 2
#     Edge 12, Type (0, 0), BuildingBlock: AJUNOK_clean_linker_0, # of connection points: 2
#     Edge 13, Type (0, 0), BuildingBlock: AJUNOK_clean_linker_0, # of connection points: 2
#     Edge 14, Type (0, 0), BuildingBlock: AJUNOK_clean_linker_0, # of connection points: 2
#     Edge 15, Type (0, 0), BuildingBlock: AJUNOK_clean_linker_0, # of connection points: 2
#     Edge 16, Type (0, 0), BuildingBlock: AJUNOK_clean_linker_0, # of connection points: 2
#     Edge 17, Type (0, 0), BuildingBlock: AJUNOK_clean_linker_0, # of connection points: 2
# Relax obj value: 0.035
# Max RMSD: 0.144
# Mean RMSD: 0.144
data_MOF--net-uog--node1-GALJAG_clean_sbu_0--edge1-AJUNOK_clean_linker_0
_symmetry_space_group_name_H-M    P1
_symmetry_Int_Tables_number       1
_symmetry_cell_setting            triclinic
loop_
_symmetry_equiv_pos_as_xyz
'x, y, z'
_cell_length_a     21.404707
_cell_length_b     21.37976
_cell_length_c     31.979287
_cell_angle_alpha  90.047424
_cell_angle_beta   89.965163
_cell_angle_gamma 120.06617
loop_
_atom_site_label
_atom_site_type_symbol
_atom_site_fract_x
_atom_site_fract_y
_atom_site_fract_z
_atom_type_partial_charge
In0 In 0.59063 0.30396 0.15451 0.0
O1 O 0.4994 0.32973 0.15924 0.0
O2 O 0.6087 0.41668 0.16124 0.0
C3 C 0.5493 0.1633 0.14842 0.0
C4 C 0.63856 0.3191 0.23295 0.0
C5 C 0.63299 0.33654 0.07514 0.0
O6 O 0.50359 0.18445 0.15196 0.0
O7 O 0.6145 0.2133 0.14749 0.0
O8 O 0.67821 0.35031 0.10442 0.0
O9 O 0.56766 0.30668 0.08635 0.0
C10 C 0.5424 0.39748 0.16195 0.0
O11 O 0.68143 0.35047 0.20264 0.0
O12 O 0.57276 0.2807 0.22315 0.0
In13 In 0.29969 0.59065 0.49208 0.0
O14 O 0.34295 0.67937 0.54145 0.0
O15 O 0.30199 0.56973 0.56067 0.0
C16 C 0.31373 0.63965 0.41394 0.0
C17 C 0.15744 0.54153 0.49771 0.0
C18 C 0.39931 0.54994 0.48537 0.0
O19 O 0.34273 0.68238 0.44462 0.0
O20 O 0.27806 0.5733 0.42319 0.0
O21 O 0.33229 0.50384 0.48749 0.0
O22 O 0.41449 0.61514 0.48623 0.0
C23 C 0.32974 0.63529 0.57129 0.0
O24 O 0.18225 0.4987 0.4947 0.0
O25 O 0.20463 0.60789 0.49822 0.0
In26 In 0.70516 0.29233 0.82179 0.0
O27 O 0.66004 0.33971 0.86899 0.0
O28 O 0.72829 0.29996 0.89056 0.0
C29 C 0.67228 0.30302 0.74253 0.0
C30 C 0.61054 0.15062 0.82998 0.0
C31 C 0.84728 0.38615 0.81538 0.0
O32 O 0.66098 0.33617 0.7719 0.0
O33 O 0.69994 0.26551 0.75357 0.0
O34 O 0.82254 0.31859 0.81899 0.0
O35 O 0.80003 0.40506 0.81449 0.0
C36 C 0.69089 0.32868 0.89969 0.0
O37 O 0.67809 0.17488 0.82754 0.0
O38 O 0.59194 0.19813 0.82865 0.0
In39 In 0.41512 0.71594 0.15924 0.0
O40 O 0.50224 0.68378 0.16183 0.0
O41 O 0.39126 0.60135 0.16567 0.0
C42 C 0.4633 0.85784 0.15165 0.0
C43 C 0.37264 0.70551 0.2386 0.0
C44 C 0.36612 0.68222 0.08106 0.0
O45 O 0.50636 0.83325 0.1539 0.0
O46 O 0.39705 0.81056 0.15295 0.0
O47 O 0.32371 0.6711 0.11155 0.0
O48 O 0.43206 0.70989 0.09055 0.0
C49 C 0.45645 0.61672 0.1649 0.0
O50 O 0.32751 0.67412 0.20927 0.0
O51 O 0.43801 0.74131 0.22746 0.0
In52 In 0.71237 0.41596 0.48888 0.0
O53 O 0.83168 0.50227 0.49408 0.0
O54 O 0.80222 0.39081 0.49507 0.0
C55 C 0.61895 0.4646 0.48351 0.0
C56 C 0.67723 0.36712 0.56702 0.0
C57 C 0.70106 0.3753 0.40908 0.0
O58 O 0.68653 0.50751 0.48706 0.0
O59 O 0.59993 0.39829 0.48226 0.0
O60 O 0.6678 0.3297 0.43796 0.0
O61 O 0.73896 0.44018 0.4209 0.0
C62 C 0.85237 0.45601 0.49622 0.0
O63 O 0.66347 0.32421 0.5364 0.0
O64 O 0.70795 0.43343 0.55766 0.0
In65 In 0.29252 0.70469 0.82572 0.0
O66 O 0.32403 0.82381 0.82875 0.0
O67 O 0.40655 0.79542 0.83321 0.0
C68 C 0.15252 0.6056 0.81787 0.0
C69 C 0.30211 0.67394 0.90527 0.0
C70 C 0.32713 0.69405 0.74713 0.0
O71 O 0.17361 0.6727 0.82059 0.0
O72 O 0.20231 0.59015 0.81869 0.0
O73 O 0.33861 0.66144 0.77675 0.0
O74 O 0.29818 0.73076 0.75761 0.0
C75 C 0.39099 0.84518 0.83245 0.0
O76 O 0.33446 0.66045 0.87636 0.0
O77 O 0.26574 0.70258 0.89357 0.0
C78 C 0.45589 0.03175 0.15004 0.0
C79 C 0.52882 0.08587 0.14719 0.0
C80 C 0.43552 0.95838 0.15087 0.0
C81 C 0.48722 0.936 0.14902 0.0
H82 H 0.41407 0.04606 0.15211 0.0
H83 H 0.3786 0.91894 0.15354 0.0
S84 S 0.68536 0.05606 0.13963 0.0
N85 N 0.65307 0.11179 0.14118 0.0
N86 N 0.61452 0.97398 0.14295 0.0
C87 C 0.56028 0.98942 0.14548 0.0
C88 C 0.58111 0.06425 0.1445 0.0
C89 C 0.43755 0.45678 0.48194 0.0
C90 C 0.45641 0.52986 0.4833 0.0
C91 C 0.4906 0.43658 0.48141 0.0
C92 C 0.56476 0.48859 0.48235 0.0
H93 H 0.38133 0.41465 0.48162 0.0
H94 H 0.47306 0.37946 0.48073 0.0
S95 S 0.64308 0.6875 0.48488 0.0
N96 N 0.55497 0.65479 0.48464 0.0
N97 N 0.65425 0.61653 0.48381 0.0
C98 C 0.58447 0.56191 0.48316 0.0
C99 C 0.53046 0.58259 0.48359 0.0
C100 C 0.94792 0.51462 0.81365 0.0
C101 C 0.92549 0.44035 0.81404 0.0
C102 C 0.02127 0.56763 0.81436 0.0
C103 C 0.07527 0.5486 0.81534 0.0
H104 H 0.90848 0.53224 0.81337 0.0
H105 H 0.0356 0.62394 0.81455 0.0
S106 S 0.04544 0.36161 0.81516 0.0
N107 N 0.96342 0.35058 0.81439 0.0
N108 N 0.10115 0.4498 0.81553 0.0
C109 C 0.05366 0.47446 0.81495 0.0
C110 C 0.97888 0.42048 0.81436 0.0
C111 C 0.05709 0.56944 0.4987 0.0
C112 C 0.07923 0.51745 0.49908 0.0
C113 C 0.98383 0.5492 0.49834 0.0
C114 C 0.92955 0.47608 0.49845 0.0
H115 H 0.09668 0.62657 0.49816 0.0
H116 H 0.96979 0.59132 0.49753 0.0
S117 S 0.9585 0.31853 0.50112 0.0
N118 N 0.04072 0.38953 0.50072 0.0
N119 N 0.90308 0.35118 0.50022 0.0
C120 C 0.95084 0.42339 0.4996 0.0
C121 C 0.02558 0.44412 0.49985 0.0
C122 C 0.42899 0.97673 0.83121 0.0
C123 C 0.44781 0.92264 0.83401 0.0
C124 C 0.48203 0.05014 0.8306 0.0
C125 C 0.55612 0.07252 0.83262 0.0
H126 H 0.37285 0.96236 0.82896 0.0
H127 H 0.46462 0.0896 0.82791 0.0
S128 S 0.63417 0.95254 0.84209 0.0
N129 N 0.54614 0.89679 0.84027 0.0
N130 N 0.64541 0.0346 0.83889 0.0
C131 C 0.57572 0.01912 0.83617 0.0
C132 C 0.52173 0.9443 0.83694 0.0
C133 C 0.54987 0.57883 0.16559 0.0
C134 C 0.47679 0.55974 0.16594 0.0
C135 C 0.57023 0.52587 0.1649 0.0
C136 C 0.51838 0.45159 0.16441 0.0
H137 H 0.59184 0.63515 0.16547 0.0
H138 H 0.62732 0.54357 0.16429 0.0
S139 S 0.31961 0.37267 0.16608 0.0
N140 N 0.35209 0.46085 0.16662 0.0
N141 N 0.39064 0.36173 0.16516 0.0
C142 C 0.4451 0.43164 0.16531 0.0
C143 C 0.42427 0.48557 0.16612 0.0
C144 C 0.72839 0.34355 0.97443 0.0
C145 C 0.68093 0.34292 0.94371 0.0
C146 C 0.71506 0.34629 0.01708 0.0
C147 C 0.65317 0.34736 0.0305 0.0
H148 H 0.7751 0.3395 0.96555 0.0
H149 H 0.75138 0.34356 0.03962 0.0
S150 S 0.51652 0.35518 0.96273 0.0
N151 N 0.5734 0.35066 0.92965 0.0
N152 N 0.54762 0.3547 0.00991 0.0
C153 C 0.60748 0.35095 0.00014 0.0
C154 C 0.62158 0.34911 0.95668 0.0
C155 C 0.29057 0.63239 0.29649 0.0
C156 C 0.35228 0.69582 0.2832 0.0
C157 C 0.27698 0.61625 0.33911 0.0
C158 C 0.32396 0.66353 0.36991 0.0
H159 H 0.25458 0.59311 0.27387 0.0
H160 H 0.23043 0.56519 0.34793 0.0
S161 S 0.48802 0.8411 0.35123 0.0
N162 N 0.45737 0.80932 0.304 0.0
N163 N 0.43103 0.77941 0.38419 0.0
C164 C 0.38319 0.7294 0.35706 0.0
C165 C 0.39761 0.74539 0.31364 0.0
C166 C 0.66367 0.37617 0.68456 0.0
C167 C 0.66098 0.31237 0.69797 0.0
C168 C 0.66562 0.39178 0.6419 0.0
C169 C 0.6638 0.34366 0.61116 0.0
H170 H 0.66821 0.4161 0.70709 0.0
H171 H 0.67095 0.44313 0.633 0.0
S172 S 0.64683 0.16475 0.6302 0.0
N173 N 0.64964 0.19753 0.67737 0.0
N174 N 0.65222 0.22654 0.59712 0.0
C175 C 0.65606 0.27743 0.62415 0.0
C176 C 0.65502 0.26192 0.66762 0.0
C177 C 0.37397 0.66482 0.96374 0.0
C178 C 0.31127 0.66397 0.95005 0.0
C179 C 0.38963 0.66769 0.00643 0.0
C180 C 0.34265 0.6687 0.03694 0.0
H181 H 0.41306 0.66707 0.94137 0.0
H182 H 0.44012 0.67134 0.01552 0.0
S183 S 0.16675 0.65771 0.01724 0.0
N184 N 0.19858 0.65764 0.9702 0.0
N185 N 0.2277 0.662 0.05055 0.0
C186 C 0.27747 0.66302 0.02373 0.0
C187 C 0.26191 0.661 0.98021 0.0
C188 C 0.6288 0.29459 0.3504 0.0
C189 C 0.69185 0.35616 0.36425 0.0
C190 C 0.6136 0.28165 0.30766 0.0
C191 C 0.66137 0.3292 0.27723 0.0
H192 H 0.58919 0.25804 0.37268 0.0
H193 H 0.56289 0.23501 0.29846 0.0
S194 S 0.83826 0.49326 0.29737 0.0
N195 N 0.80558 0.46178 0.34433 0.0
N196 N 0.77729 0.43677 0.26392 0.0
C197 C 0.72678 0.38844 0.29062 0.0
C198 C 0.74189 0.40213 0.33419 0.0
C199 C 0.3355 0.62091 0.68903 0.0
C200 C 0.34013 0.68543 0.70279 0.0
C201 C 0.33523 0.60656 0.64626 0.0
C202 C 0.34063 0.65667 0.61583 0.0
H203 H 0.32818 0.5796 0.71129 0.0
H204 H 0.32842 0.55474 0.63702 0.0
S205 S 0.3642 0.83806 0.63622 0.0
N206 N 0.35732 0.80291 0.68312 0.0
N207 N 0.35791 0.77637 0.6027 0.0
C208 C 0.35026 0.72347 0.62933 0.0
C209 C 0.34963 0.73769 0.67286 0.0
loop_
_geom_bond_atom_site_label_1
_geom_bond_atom_site_label_2
_geom_bond_distance
_geom_bond_site_symmetry_2
_ccdc_geom_bond_type
In0 O1 2.294 . S
In0 O2 2.326 . S
In0 O6 2.266 . S
In0 O7 2.326 . S
In0 O8 2.266 . S
In0 O9 2.326 . S
In0 O11 2.294 . S
In0 O12 2.326 . S
O1 In0 2.294 . S
O1 C10 1.240 . S
O2 In0 2.326 . S
O2 C10 1.252 . S
C3 O6 1.252 . S
C3 O7 1.260 . S
C4 O11 1.240 . S
C4 O12 1.252 . S
C5 O8 1.252 . S
C5 O9 1.260 . S
O6 In0 2.266 . S
O6 C3 1.252 . S
O7 In0 2.326 . S
O7 C3 1.260 . S
O8 In0 2.266 . S
O8 C5 1.252 . S
O9 In0 2.326 . S
O9 C5 1.260 . S
C10 O1 1.240 . S
C10 O2 1.252 . S
O11 In0 2.294 . S
O11 C4 1.240 . S
O12 In0 2.326 . S
O12 C4 1.252 . S
In13 O14 2.294 . S
In13 O15 2.326 . S
In13 O19 2.266 . S
In13 O20 2.326 . S
In13 O21 2.266 . S
In13 O22 2.326 . S
In13 O24 2.294 . S
In13 O25 2.326 . S
O14 In13 2.294 . S
O14 C23 1.240 . S
O15 In13 2.326 . S
O15 C23 1.252 . S
C16 O19 1.252 . S
C16 O20 1.260 . S
C17 O24 1.240 . S
C17 O25 1.252 . S
C18 O21 1.252 . S
C18 O22 1.260 . S
O19 In13 2.266 . S
O19 C16 1.252 . S
O20 In13 2.326 . S
O20 C16 1.260 . S
O21 In13 2.266 . S
O21 C18 1.252 . S
O22 In13 2.326 . S
O22 C18 1.260 . S
C23 O14 1.240 . S
C23 O15 1.252 . S
O24 In13 2.294 . S
O24 C17 1.240 . S
O25 In13 2.326 . S
O25 C17 1.252 . S
In26 O27 2.294 . S
In26 O28 2.326 . S
In26 O32 2.266 . S
In26 O33 2.326 . S
In26 O34 2.266 . S
In26 O35 2.326 . S
In26 O37 2.294 . S
In26 O38 2.326 . S
O27 In26 2.294 . S
O27 C36 1.240 . S
O28 In26 2.326 . S
O28 C36 1.252 . S
C29 O32 1.252 . S
C29 O33 1.260 . S
C30 O37 1.240 . S
C30 O38 1.252 . S
C31 O34 1.252 . S
C31 O35 1.260 . S
O32 In26 2.266 . S
O32 C29 1.252 . S
O33 In26 2.326 . S
O33 C29 1.260 . S
O34 In26 2.266 . S
O34 C31 1.252 . S
O35 In26 2.326 . S
O35 C31 1.260 . S
C36 O27 1.240 . S
C36 O28 1.252 . S
O37 In26 2.294 . S
O37 C30 1.240 . S
O38 In26 2.326 . S
O38 C30 1.252 . S
In39 O40 2.294 . S
In39 O41 2.326 . S
In39 O45 2.266 . S
In39 O46 2.326 . S
In39 O47 2.266 . S
In39 O48 2.326 . S
In39 O50 2.294 . S
In39 O51 2.326 . S
O40 In39 2.294 . S
O40 C49 1.240 . S
O41 In39 2.326 . S
O41 C49 1.252 . S
C42 O45 1.252 . S
C42 O46 1.260 . S
C43 O50 1.240 . S
C43 O51 1.252 . S
C44 O47 1.252 . S
C44 O48 1.260 . S
O45 In39 2.266 . S
O45 C42 1.252 . S
O46 In39 2.326 . S
O46 C42 1.260 . S
O47 In39 2.266 . S
O47 C44 1.252 . S
O48 In39 2.326 . S
O48 C44 1.260 . S
C49 O40 1.240 . S
C49 O41 1.252 . S
O50 In39 2.294 . S
O50 C43 1.240 . S
O51 In39 2.326 . S
O51 C43 1.252 . S
In52 O53 2.294 . S
In52 O54 2.326 . S
In52 O58 2.266 . S
In52 O59 2.326 . S
In52 O60 2.266 . S
In52 O61 2.326 . S
In52 O63 2.294 . S
In52 O64 2.326 . S
O53 In52 2.294 . S
O53 C62 1.240 . S
O54 In52 2.326 . S
O54 C62 1.252 . S
C55 O58 1.252 . S
C55 O59 1.260 . S
C56 O63 1.240 . S
C56 O64 1.252 . S
C57 O60 1.252 . S
C57 O61 1.260 . S
O58 In52 2.266 . S
O58 C55 1.252 . S
O59 In52 2.326 . S
O59 C55 1.260 . S
O60 In52 2.266 . S
O60 C57 1.252 . S
O61 In52 2.326 . S
O61 C57 1.260 . S
C62 O53 1.240 . S
C62 O54 1.252 . S
O63 In52 2.294 . S
O63 C56 1.240 . S
O64 In52 2.326 . S
O64 C56 1.252 . S
In65 O66 2.294 . S
In65 O67 2.326 . S
In65 O71 2.266 . S
In65 O72 2.326 . S
In65 O73 2.266 . S
In65 O74 2.326 . S
In65 O76 2.294 . S
In65 O77 2.326 . S
O66 In65 2.294 . S
O66 C75 1.240 . S
O67 In65 2.326 . S
O67 C75 1.252 . S
C68 O71 1.252 . S
C68 O72 1.260 . S
C69 O76 1.240 . S
C69 O77 1.252 . S
C70 O73 1.252 . S
C70 O74 1.260 . S
O71 In65 2.266 . S
O71 C68 1.252 . S
O72 In65 2.326 . S
O72 C68 1.260 . S
O73 In65 2.266 . S
O73 C70 1.252 . S
O74 In65 2.326 . S
O74 C70 1.260 . S
C75 O66 1.240 . S
C75 O67 1.252 . S
O76 In65 2.294 . S
O76 C69 1.240 . S
O77 In65 2.326 . S
O77 C69 1.252 . S
C78 C79 1.370 . S
C78 C80 1.416 1_545 S
C78 H82 0.931 1_545 S
C79 C78 1.370 . S
C79 C88 1.429 . S
C80 C78 1.416 1_565 S
C80 C81 1.363 . S
C80 H83 0.929 . S
C81 C80 1.363 . S
C81 C87 1.428 1_565 S
H82 C78 0.931 1_565 S
H83 C80 0.929 . S
S84 N85 1.613 . S
S84 N86 1.610 . S
N85 S84 1.613 . S
N85 C88 1.350 . S
N86 S84 1.610 . S
N86 C87 1.351 . S
C87 C81 1.428 1_545 S
C87 N86 1.351 . S
C87 C88 1.434 . S
C88 C79 1.429 . S
C88 N85 1.350 . S
C88 C87 1.434 . S
C89 C90 1.369 . S
C89 C91 1.419 . S
C89 H93 0.930 . S
C90 C89 1.369 . S
C90 C99 1.429 . S
C91 C89 1.419 . S
C91 C92 1.363 . S
C91 H94 0.929 . S
C92 C91 1.363 . S
C92 C98 1.428 . S
H93 C89 0.930 . S
H94 C91 0.929 . S
S95 N96 1.613 . S
S95 N97 1.610 . S
N96 S95 1.613 . S
N96 C99 1.350 . S
N97 S95 1.610 . S
N97 C98 1.351 . S
C98 C92 1.428 . S
C98 N97 1.351 . S
C98 C99 1.434 . S
C99 C90 1.429 . S
C99 N96 1.350 . S
C99 C98 1.434 . S
C100 C101 1.369 . S
C100 C102 1.419 1_655 S
C100 H104 0.930 . S
C101 C100 1.369 . S
C101 C110 1.429 . S
C102 C100 1.419 1_455 S
C102 C103 1.363 . S
C102 H105 0.929 . S
C103 C102 1.363 . S
C103 C109 1.428 . S
H104 C100 0.930 . S
H105 C102 0.929 . S
S106 N107 1.613 1_455 S
S106 N108 1.610 . S
N107 S106 1.613 1_655 S
N107 C110 1.350 . S
N108 S106 1.610 . S
N108 C109 1.351 . S
C109 C103 1.428 . S
C109 N108 1.351 . S
C109 C110 1.434 1_455 S
C110 C101 1.429 . S
C110 N107 1.350 . S
C110 C109 1.434 1_655 S
C111 C112 1.369 . S
C111 C113 1.430 . S
C111 H115 0.930 . S
C112 C111 1.369 . S
C112 C121 1.429 1_455 S
C113 C111 1.430 . S
C113 C114 1.356 1_455 S
C113 H116 0.924 . S
C114 C113 1.356 1_655 S
C114 C120 1.428 . S
H115 C111 0.930 . S
H116 C113 0.924 . S
S117 N118 1.613 . S
S117 N119 1.610 . S
N118 S117 1.613 . S
N118 C121 1.350 . S
N119 S117 1.610 . S
N119 C120 1.351 . S
C120 C114 1.428 . S
C120 N119 1.351 . S
C120 C121 1.434 . S
C121 C112 1.429 1_655 S
C121 N118 1.350 . S
C121 C120 1.434 . S
C122 C123 1.369 . S
C122 C124 1.419 1_565 S
C122 H126 0.930 . S
C123 C122 1.369 . S
C123 C132 1.429 . S
C124 C122 1.419 1_545 S
C124 C125 1.363 . S
C124 H127 0.929 . S
C125 C124 1.363 . S
C125 C131 1.428 . S
H126 C122 0.930 . S
H127 C124 0.929 . S
S128 N129 1.613 . S
S128 N130 1.610 1_565 S
N129 S128 1.613 . S
N129 C132 1.350 . S
N130 S128 1.610 1_545 S
N130 C131 1.351 . S
C131 C125 1.428 . S
C131 N130 1.351 . S
C131 C132 1.434 1_545 S
C132 C123 1.429 . S
C132 N129 1.350 . S
C132 C131 1.434 1_565 S
C133 C134 1.369 . S
C133 C135 1.419 . S
C133 H137 0.930 . S
C134 C133 1.369 . S
C134 C143 1.429 . S
C135 C133 1.419 . S
C135 C136 1.363 . S
C135 H138 0.929 . S
C136 C135 1.363 . S
C136 C142 1.428 . S
H137 C133 0.930 . S
H138 C135 0.929 . S
S139 N140 1.613 . S
S139 N141 1.610 . S
N140 S139 1.613 . S
N140 C143 1.350 . S
N141 S139 1.610 . S
N141 C142 1.351 . S
C142 C136 1.428 . S
C142 N141 1.351 . S
C142 C143 1.434 . S
C143 C134 1.429 . S
C143 N140 1.350 . S
C143 C142 1.434 . S
C144 C145 1.369 . S
C144 C146 1.419 1_556 S
C144 H148 0.930 . S
C145 C144 1.369 . S
C145 C154 1.429 . S
C146 C144 1.419 1_554 S
C146 C147 1.363 . S
C146 H149 0.929 . S
C147 C146 1.363 . S
C147 C153 1.428 . S
H148 C144 0.930 . S
H149 C146 0.929 . S
S150 N151 1.613 . S
S150 N152 1.610 1_556 S
N151 S150 1.613 . S
N151 C154 1.350 . S
N152 S150 1.610 1_554 S
N152 C153 1.351 . S
C153 C147 1.428 . S
C153 N152 1.351 . S
C153 C154 1.434 1_554 S
C154 C145 1.429 . S
C154 N151 1.350 . S
C154 C153 1.434 1_556 S
C155 C156 1.369 . S
C155 C157 1.419 . S
C155 H159 0.930 . S
C156 C155 1.369 . S
C156 C165 1.429 . S
C157 C155 1.419 . S
C157 C158 1.363 . S
C157 H160 0.929 . S
C158 C157 1.363 . S
C158 C164 1.428 . S
H159 C155 0.930 . S
H160 C157 0.929 . S
S161 N162 1.613 . S
S161 N163 1.610 . S
N162 S161 1.613 . S
N162 C165 1.350 . S
N163 S161 1.610 . S
N163 C164 1.351 . S
C164 C158 1.428 . S
C164 N163 1.351 . S
C164 C165 1.434 . S
C165 C156 1.429 . S
C165 N162 1.350 . S
C165 C164 1.434 . S
C166 C167 1.369 . S
C166 C168 1.419 . S
C166 H170 0.930 . S
C167 C166 1.369 . S
C167 C176 1.429 . S
C168 C166 1.419 . S
C168 C169 1.363 . S
C168 H171 0.929 . S
C169 C168 1.363 . S
C169 C175 1.428 . S
H170 C166 0.930 . S
H171 C168 0.929 . S
S172 N173 1.613 . S
S172 N174 1.610 . S
N173 S172 1.613 . S
N173 C176 1.350 . S
N174 S172 1.610 . S
N174 C175 1.351 . S
C175 C169 1.428 . S
C175 N174 1.351 . S
C175 C176 1.434 . S
C176 C167 1.429 . S
C176 N173 1.350 . S
C176 C175 1.434 . S
C177 C178 1.369 . S
C177 C179 1.419 1_556 S
C177 H181 0.930 . S
C178 C177 1.369 . S
C178 C187 1.429 . S
C179 C177 1.419 1_554 S
C179 C180 1.363 . S
C179 H182 0.929 . S
C180 C179 1.363 . S
C180 C186 1.428 . S
H181 C177 0.930 . S
H182 C179 0.929 . S
S183 N184 1.613 1_554 S
S183 N185 1.610 . S
N184 S183 1.613 1_556 S
N184 C187 1.350 . S
N185 S183 1.610 . S
N185 C186 1.351 . S
C186 C180 1.428 . S
C186 N185 1.351 . S
C186 C187 1.434 1_554 S
C187 C178 1.429 . S
C187 N184 1.350 . S
C187 C186 1.434 1_556 S
C188 C189 1.369 . S
C188 C190 1.419 . S
C188 H192 0.930 . S
C189 C188 1.369 . S
C189 C198 1.429 . S
C190 C188 1.419 . S
C190 C191 1.363 . S
C190 H193 0.929 . S
C191 C190 1.363 . S
C191 C197 1.428 . S
H192 C188 0.930 . S
H193 C190 0.929 . S
S194 N195 1.613 . S
S194 N196 1.610 . S
N195 S194 1.613 . S
N195 C198 1.350 . S
N196 S194 1.610 . S
N196 C197 1.351 . S
C197 C191 1.428 . S
C197 N196 1.351 . S
C197 C198 1.434 . S
C198 C189 1.429 . S
C198 N195 1.350 . S
C198 C197 1.434 . S
C199 C200 1.369 . S
C199 C201 1.419 . S
C199 H203 0.930 . S
C200 C199 1.369 . S
C200 C209 1.429 . S
C201 C199 1.419 . S
C201 C202 1.363 . S
C201 H204 0.929 . S
C202 C201 1.363 . S
C202 C208 1.428 . S
H203 C199 0.930 . S
H204 C201 0.929 . S
S205 N206 1.613 . S
S205 N207 1.610 . S
N206 S205 1.613 . S
N206 C209 1.350 . S
N207 S205 1.610 . S
N207 C208 1.351 . S
C208 C202 1.428 . S
C208 N207 1.351 . S
C208 C209 1.434 . S
C209 C200 1.429 . S
C209 N206 1.350 . S
C209 C208 1.434 . S
C79 C3 1.468 . S
C81 C42 1.474 . S
C90 C18 1.468 . S
C92 C55 1.474 . S
C101 C31 1.472 . S
C103 C68 1.471 . S
C112 C17 1.463 . S
C114 C62 1.457 . S
C123 C75 1.457 . S
C125 C30 1.460 . S
C134 C49 1.457 . S
C136 C10 1.461 . S
C145 C36 1.405 . S
C147 C5 1.399 . S
C156 C43 1.400 . S
C158 C16 1.402 . S
C167 C29 1.397 . S
C169 C56 1.405 . S
C178 C69 1.400 . S
C180 C44 1.402 . S
C189 C57 1.398 . S
C191 C4 1.403 . S
C200 C70 1.399 . S
C202 C23 1.404 . S
