# Generated by pormake.
# Topology kag, (6)-cn, num edge types: 1
# Building blocks:
#     Node 0, Type 0, BuildingBlock: PAMTOO_clean_sbu_0, # of connection points: 6
#     Node 1, Type 0, BuildingBlock: PAMTOO_clean_sbu_0, # of connection points: 6
#     Node 2, Type 0, BuildingBlock: PAMTOO_clean_sbu_0, # of connection points: 6
#     Edge 3, Type (0, 0), None
#     Edge 4, Type (0, 0), None
#     Edge 5, Type (0, 0), None
#     Edge 6, Type (0, 0), None
#     Edge 7, Type (0, 0), None
#     Edge 8, Type (0, 0), None
#     Edge 9, Type (0, 0), None
#     Edge 10, Type (0, 0), None
#     Edge 11, Type (0, 0), None
# Relax obj value: 0.292
# Max RMSD: 0.284
# Mean RMSD: 0.198
data_MOF--net-kag--node1-PAMTOO_clean_sbu_0--edge1-none
_symmetry_space_group_name_H-M    P1
_symmetry_Int_Tables_number       1
_symmetry_cell_setting            triclinic
loop_
_symmetry_equiv_pos_as_xyz
'x, y, z'
_cell_length_a     14.022352
_cell_length_b     25.172956
_cell_length_c     6.9291523
_cell_angle_alpha  96.640744
_cell_angle_beta   93.137649
_cell_angle_gamma 78.378864
loop_
_atom_site_label
_atom_site_type_symbol
_atom_site_fract_x
_atom_site_fract_y
_atom_site_fract_z
_atom_type_partial_charge
Dy0 Dy 1.10767 0.59635 -0.01041 0.0
Dy1 Dy 0.15582 0.45599 0.93928 0.0
C2 C 0.13269 0.52645 0.56979 0.0
O3 O 0.96325 0.57078 -0.03002 0.0
O4 O 0.99447 0.47615 0.95374 0.0
O5 O 1.04246 0.67278 0.87824 0.0
O6 O 1.10207 0.67254 0.17274 0.0
O7 O 1.12296 0.4804 0.25181 0.0
O8 O 0.13688 0.57111 0.2885 0.0
O9 O 0.30023 0.48156 0.95885 0.0
O10 O 0.26901 0.57619 -0.0248 0.0
O11 O 0.22104 0.37956 0.05061 0.0
O12 O 0.1614 0.3798 0.75614 0.0
C13 C 0.93474 0.52377 0.95879 0.0
O14 O 0.14054 0.57194 0.67708 0.0
O15 O 1.12659 0.48124 0.64038 0.0
C16 C 1.09906 0.75258 0.02048 0.0
C17 C 0.16037 0.85207 -0.00264 0.0
C18 C 0.16164 0.8134 0.83283 0.0
C19 C 0.13129 0.76413 0.84419 0.0
C20 C 1.09743 0.79118 0.1842 0.0
C21 C 1.1278 0.84028 0.17308 0.0
C22 C 1.06211 0.7023 0.03711 0.0
C23 C 0.13079 0.52589 0.35909 0.0
C24 C 0.32874 0.52857 -0.0299 0.0
C25 C 0.16443 0.29976 0.9084 0.0
C26 C 1.10312 0.20027 0.93154 0.0
C27 C 1.10186 0.23894 0.09606 0.0
C28 C 0.13221 0.28821 0.0847 0.0
C29 C 0.16605 0.26116 0.74467 0.0
C30 C 0.13568 0.21206 0.75581 0.0
C31 C 0.20137 0.35004 0.89175 0.0
H32 H 0.18748 0.82083 0.69583 0.0
H33 H 0.13302 0.73523 0.71522 0.0
H34 H 1.07181 0.78351 0.3212 0.0
H35 H 1.12465 0.8693 0.30194 0.0
H36 H 1.07603 0.23151 0.23307 0.0
H37 H 0.13048 0.31711 0.21367 0.0
H38 H 0.19166 0.26883 0.60767 0.0
H39 H 0.13882 0.18304 0.62694 0.0
Dy40 Dy 0.509 0.04086 0.95424 0.0
Dy41 Dy 0.75449 1.01148 -0.02532 0.0
C42 C 0.63152 0.0257 0.35893 0.0
O43 O 0.53861 0.1245 -0.03507 0.0
O44 O 0.70652 0.10189 -0.00496 0.0
O45 O 0.36783 0.06354 0.08565 0.0
O46 O 0.37869 0.03235 0.78197 0.0
O47 O 0.71058 1.00196 0.6592 0.0
O48 O 0.55377 0.05225 0.66096 0.0
O49 O 0.72488 0.92784 0.96399 0.0
O50 O 0.55698 0.95045 0.93388 0.0
O51 O 0.89566 0.9888 0.84328 0.0
O52 O 0.8848 1.01999 0.14696 0.0
C53 C 0.62469 0.13787 -0.01376 0.0
O54 O 0.55291 0.05038 0.26972 0.0
O55 O 0.70973 1.00009 0.26796 0.0
C56 C 0.27191 0.99844 0.96189 0.0
C57 C 0.19536 0.90379 -0.01233 0.0
C58 C 0.25305 0.92369 0.14097 0.0
C59 C 0.2911 0.97032 0.12807 0.0
C60 C 0.21186 0.97969 0.81113 0.0
C61 C 0.17395 0.93286 0.82375 0.0
C62 C 0.32417 0.04232 0.93323 0.0
C63 C 0.63197 0.02664 0.57 0.0
C64 C 0.63881 0.91447 0.94267 0.0
C65 C 0.99158 0.05391 -0.03297 0.0
C66 C 1.06813 0.14855 0.94123 0.0
C67 C 1.01043 0.12865 0.78794 0.0
C68 C 0.97238 0.08202 0.80085 0.0
C69 C 1.05163 0.07265 0.11777 0.0
C70 C 1.08954 0.11948 0.10515 0.0
C71 C 0.93932 1.01002 -0.0043 0.0
H72 H 0.27204 0.90205 0.2683 0.0
H73 H 0.33843 0.9831 0.24557 0.0
H74 H 0.19643 1.00047 0.68108 0.0
H75 H 1.12851 0.91919 0.70443 0.0
H76 H 0.99143 0.15029 0.66062 0.0
H77 H 0.92504 0.06924 0.68336 0.0
H78 H 1.06707 0.05187 0.24782 0.0
H79 H 0.135 0.13315 0.22446 0.0
Dy80 Dy 0.65386 0.45596 0.93847 0.0
Dy81 Dy 0.60963 0.59638 -0.00958 0.0
C82 C 0.6308 0.52569 0.35998 0.0
O83 O 0.49331 0.47961 -0.03109 0.0
O84 O 0.46314 0.57396 -0.02095 0.0
O85 O 0.73703 0.37868 0.01495 0.0
O86 O 0.62706 0.38109 0.78131 0.0
O87 O 0.6262 0.57398 0.67341 0.0
O88 O 0.6413 0.47984 0.63904 0.0
O89 O 0.77017 0.57273 0.9599 0.0
O90 O 0.80035 0.47838 0.94992 0.0
O91 O 0.52645 0.67366 0.91397 0.0
O92 O 0.63644 0.67124 0.14758 0.0
C93 C 0.43407 0.52733 -0.02658 0.0
O94 O 0.63725 0.47836 0.25547 0.0
O95 O 0.62222 0.5725 0.28985 0.0
C96 C 0.66514 0.30041 0.94278 0.0
C97 C 0.63376 0.19554 -0.01044 0.0
C98 C 0.72402 0.21021 0.04331 0.0
C99 C 0.73949 0.26194 0.01957 0.0
C100 C 0.57288 0.28718 0.89927 0.0
C101 C 0.5572 0.2351 0.92326 0.0
C102 C 0.69035 0.35047 0.88667 0.0
C103 C 0.63268 0.52664 0.56891 0.0
C104 C 0.82942 0.52501 0.95547 0.0
C105 C 0.59835 0.75193 -0.01388 0.0
C106 C 0.62974 0.8568 0.93935 0.0
C107 C 0.53947 0.84213 0.88559 0.0
C108 C 0.52401 0.7904 0.90933 0.0
C109 C 0.69062 0.76515 0.02964 0.0
C110 C 0.70629 0.81724 0.00566 0.0
C111 C 0.57314 0.70187 0.04224 0.0
H112 H 0.78451 0.18103 0.09689 0.0
H113 H 0.81133 0.271 0.05308 0.0
H114 H 0.51414 0.31614 0.83931 0.0
H115 H 0.48688 0.22509 0.88094 0.0
H116 H 0.47899 0.87131 0.83202 0.0
H117 H 0.45217 0.78134 0.87582 0.0
H118 H 0.74935 0.7362 0.0896 0.0
H119 H 0.77662 0.82725 0.04798 0.0
loop_
_geom_bond_atom_site_label_1
_geom_bond_atom_site_label_2
_geom_bond_distance
_geom_bond_site_symmetry_2
_ccdc_geom_bond_type
Dy0 O3 2.307 . S
Dy0 O5 2.395 1_654 S
Dy0 O6 2.379 1_655 S
Dy0 O8 2.338 . S
Dy0 O10 2.298 1_655 S
Dy0 O14 2.275 1_654 S
Dy0 C22 2.738 1_655 S
Dy1 O4 2.298 1_455 S
Dy1 O7 2.275 1_556 S
Dy1 O9 2.307 . S
Dy1 O11 2.395 1_456 S
Dy1 O12 2.379 1_455 S
Dy1 O15 2.339 . S
Dy1 C31 2.738 1_455 S
C2 O14 1.254 . S
C2 O15 1.257 . S
O3 Dy0 2.307 . S
O3 C13 1.266 . S
O4 Dy1 2.298 1_655 S
O4 C13 1.236 1_556 S
O5 Dy0 2.395 1_456 S
O5 C22 1.255 1_556 S
O6 Dy0 2.379 1_455 S
O6 C22 1.249 . S
O7 Dy1 2.275 1_554 S
O7 C23 1.254 1_455 S
O8 Dy0 2.338 . S
O8 C23 1.258 . S
O9 Dy1 2.307 . S
O9 C24 1.266 . S
O10 Dy0 2.298 1_455 S
O10 C24 1.236 1_554 S
O11 Dy1 2.395 1_654 S
O11 C31 1.255 1_554 S
O12 Dy1 2.379 1_655 S
O12 C31 1.249 . S
C13 O3 1.266 . S
C13 O4 1.236 1_554 S
O14 Dy0 2.275 1_456 S
O14 C2 1.254 . S
O15 Dy1 2.339 . S
O15 C2 1.257 . S
C16 C19 1.344 1_554 S
C16 C20 1.328 . S
C16 C22 1.516 . S
C17 C18 1.304 1_554 S
C17 C21 1.323 . S
C18 C17 1.304 1_556 S
C18 C19 1.371 . S
C18 H32 0.930 . S
C19 C16 1.344 1_556 S
C19 C18 1.371 . S
C19 H33 0.931 . S
C20 C16 1.328 . S
C20 C21 1.433 . S
C20 H34 0.931 . S
C21 C17 1.323 . S
C21 C20 1.433 . S
C21 H35 0.933 . S
C22 Dy0 2.738 1_455 S
C22 O5 1.255 1_554 S
C22 O6 1.249 . S
C22 C16 1.516 . S
C23 O7 1.254 1_655 S
C23 O8 1.258 . S
C24 O9 1.266 . S
C24 O10 1.236 1_556 S
C25 C28 1.344 1_556 S
C25 C29 1.328 . S
C25 C31 1.516 . S
C26 C27 1.304 1_556 S
C26 C30 1.323 . S
C27 C26 1.304 1_554 S
C27 C28 1.371 . S
C27 H36 0.930 . S
C28 C25 1.344 1_554 S
C28 C27 1.371 . S
C28 H37 0.931 . S
C29 C25 1.328 . S
C29 C30 1.433 . S
C29 H38 0.931 . S
C30 C26 1.323 . S
C30 C29 1.433 . S
C30 H39 0.933 . S
C31 Dy1 2.738 1_655 S
C31 O11 1.255 1_556 S
C31 O12 1.249 . S
C31 C25 1.516 . S
H32 C18 0.930 . S
H33 C19 0.931 . S
H34 C20 0.931 . S
H35 C21 0.933 . S
H36 C27 0.930 . S
H37 C28 0.931 . S
H38 C29 0.931 . S
H39 C30 0.933 . S
Dy40 O43 2.307 1_565 S
Dy40 O45 2.395 1_556 S
Dy40 O46 2.379 . S
Dy40 O48 2.339 . S
Dy40 O50 2.298 . S
Dy40 O54 2.275 1_566 S
Dy40 C62 2.738 . S
Dy41 O44 2.298 . S
Dy41 O47 2.277 1_554 S
Dy41 O49 2.307 1_545 S
Dy41 O51 2.395 1_554 S
Dy41 O52 2.379 . S
Dy41 O55 2.339 . S
Dy41 C71 2.738 . S
C42 O54 1.254 . S
C42 O55 1.257 . S
O43 Dy40 2.307 1_545 S
O43 C53 1.266 1_556 S
O44 Dy41 2.298 . S
O44 C53 1.236 . S
O45 Dy40 2.395 1_554 S
O45 C62 1.255 1_554 S
O46 Dy40 2.379 . S
O46 C62 1.249 . S
O47 Dy41 2.277 1_556 S
O47 C63 1.253 1_545 S
O48 Dy40 2.339 . S
O48 C63 1.257 . S
O49 Dy41 2.307 1_565 S
O49 C64 1.266 1_554 S
O50 Dy40 2.298 . S
O50 C64 1.236 . S
O51 Dy41 2.395 1_556 S
O51 C71 1.255 1_556 S
O52 Dy41 2.379 . S
O52 C71 1.249 . S
C53 O43 1.266 1_554 S
C53 O44 1.236 . S
O54 Dy40 2.275 1_544 S
O54 C42 1.254 . S
O55 Dy41 2.339 . S
O55 C42 1.257 . S
C56 C59 1.343 . S
C56 C60 1.328 1_554 S
C56 C62 1.516 1_554 S
C57 C58 1.304 . S
C57 C61 1.323 1_554 S
C58 C57 1.304 . S
C58 C59 1.371 . S
C58 H72 0.930 . S
C59 C56 1.343 . S
C59 C58 1.371 . S
C59 H73 0.931 . S
C60 C56 1.328 1_556 S
C60 C61 1.433 . S
C60 H74 0.931 . S
C61 C57 1.323 1_556 S
C61 C60 1.433 . S
C61 H75 0.933 . S
C62 Dy40 2.738 . S
C62 O45 1.255 1_556 S
C62 O46 1.249 . S
C62 C56 1.516 1_556 S
C63 O47 1.253 1_565 S
C63 O48 1.257 . S
C64 O49 1.266 1_556 S
C64 O50 1.236 . S
C65 C68 1.342 1_554 S
C65 C69 1.329 . S
C65 C71 1.516 . S
C66 C67 1.304 . S
C66 C70 1.323 1_556 S
C67 C66 1.304 . S
C67 C68 1.371 . S
C67 H76 0.930 . S
C68 C65 1.342 1_556 S
C68 C67 1.371 . S
C68 H77 0.931 . S
C69 C65 1.329 . S
C69 C70 1.433 . S
C69 H78 0.931 . S
C70 C66 1.323 1_554 S
C70 C69 1.433 . S
C70 H79 0.933 . S
C71 Dy41 2.738 . S
C71 O51 1.255 1_554 S
C71 O52 1.249 . S
C71 C65 1.516 . S
H72 C58 0.930 . S
H73 C59 0.931 . S
H74 C60 0.931 . S
H75 C61 0.933 . S
H76 C67 0.930 . S
H77 C68 0.931 . S
H78 C69 0.931 . S
H79 C70 0.933 . S
Dy80 O83 2.307 . S
Dy80 O85 2.395 1_556 S
Dy80 O86 2.379 . S
Dy80 O88 2.339 . S
Dy80 O90 2.298 . S
Dy80 O94 2.275 1_556 S
Dy80 C102 2.738 . S
Dy81 O84 2.298 . S
Dy81 O87 2.275 1_554 S
Dy81 O89 2.307 . S
Dy81 O91 2.395 1_554 S
Dy81 O92 2.379 . S
Dy81 O95 2.339 . S
Dy81 C111 2.738 . S
C82 O94 1.254 . S
C82 O95 1.257 . S
O83 Dy80 2.307 . S
O83 C93 1.266 . S
O84 Dy81 2.298 . S
O84 C93 1.236 1_554 S
O85 Dy80 2.395 1_554 S
O85 C102 1.255 1_554 S
O86 Dy80 2.379 . S
O86 C102 1.249 . S
O87 Dy81 2.275 1_556 S
O87 C103 1.254 . S
O88 Dy80 2.339 . S
O88 C103 1.257 . S
O89 Dy81 2.307 . S
O89 C104 1.266 . S
O90 Dy80 2.298 . S
O90 C104 1.236 1_556 S
O91 Dy81 2.395 1_556 S
O91 C111 1.255 1_556 S
O92 Dy81 2.379 . S
O92 C111 1.249 . S
C93 O83 1.266 . S
C93 O84 1.236 1_556 S
O94 Dy80 2.275 1_554 S
O94 C82 1.254 . S
O95 Dy81 2.339 . S
O95 C82 1.257 . S
C96 C99 1.344 1_556 S
C96 C100 1.328 . S
C96 C102 1.516 . S
C97 C98 1.304 . S
C97 C101 1.323 1_554 S
C98 C97 1.304 . S
C98 C99 1.371 . S
C98 H112 0.930 . S
C99 C96 1.344 1_554 S
C99 C98 1.371 . S
C99 H113 0.931 . S
C100 C96 1.328 . S
C100 C101 1.433 . S
C100 H114 0.931 . S
C101 C97 1.323 1_556 S
C101 C100 1.433 . S
C101 H115 0.933 . S
C102 Dy80 2.738 . S
C102 O85 1.255 1_556 S
C102 O86 1.249 . S
C102 C96 1.516 . S
C103 O87 1.254 . S
C103 O88 1.257 . S
C104 O89 1.266 . S
C104 O90 1.236 1_554 S
C105 C108 1.344 1_554 S
C105 C109 1.328 . S
C105 C111 1.516 . S
C106 C107 1.304 . S
C106 C110 1.323 1_556 S
C107 C106 1.304 . S
C107 C108 1.371 . S
C107 H116 0.930 . S
C108 C105 1.344 1_556 S
C108 C107 1.371 . S
C108 H117 0.931 . S
C109 C105 1.328 . S
C109 C110 1.433 . S
C109 H118 0.931 . S
C110 C106 1.323 1_554 S
C110 C109 1.433 . S
C110 H119 0.933 . S
C111 Dy81 2.738 . S
C111 O91 1.255 1_554 S
C111 O92 1.249 . S
C111 C105 1.516 . S
H112 C98 0.930 . S
H113 C99 0.931 . S
H114 C100 0.931 . S
H115 C101 0.933 . S
H116 C107 0.930 . S
H117 C108 0.931 . S
H118 C109 0.931 . S
H119 C110 0.933 . S
C2 C23 1.512 1_455 S
C42 C63 1.476 1_545 S
C103 C82 1.560 . S
C24 C93 3.980 . S
C66 C26 1.318 . S
C64 C106 4.358 . S
C13 C104 3.981 . S
C17 C57 1.319 . S
C97 C53 4.358 . S
