# Generated by pormake.
# Topology rob, (6)-cn, num edge types: 1
# Building blocks:
#     Node 0, Type 0, BuildingBlock: PAMTUU_clean_sbu_0, # of connection points: 6
#     Node 1, Type 0, BuildingBlock: PAMTUU_clean_sbu_0, # of connection points: 6
#     Node 2, Type 0, BuildingBlock: PAMTUU_clean_sbu_0, # of connection points: 6
#     Node 3, Type 0, BuildingBlock: PAMTUU_clean_sbu_0, # of connection points: 6
#     Edge 4, Type (0, 0), BuildingBlock: EYOCIG_clean_linker_4, # of connection points: 2
#     Edge 5, Type (0, 0), BuildingBlock: EYOCIG_clean_linker_4, # of connection points: 2
#     Edge 6, Type (0, 0), BuildingBlock: EYOCIG_clean_linker_4, # of connection points: 2
#     Edge 7, Type (0, 0), BuildingBlock: EYOCIG_clean_linker_4, # of connection points: 2
#     Edge 8, Type (0, 0), BuildingBlock: EYOCIG_clean_linker_4, # of connection points: 2
#     Edge 9, Type (0, 0), BuildingBlock: EYOCIG_clean_linker_4, # of connection points: 2
#     Edge 10, Type (0, 0), BuildingBlock: EYOCIG_clean_linker_4, # of connection points: 2
#     Edge 11, Type (0, 0), BuildingBlock: EYOCIG_clean_linker_4, # of connection points: 2
#     Edge 12, Type (0, 0), BuildingBlock: EYOCIG_clean_linker_4, # of connection points: 2
#     Edge 13, Type (0, 0), BuildingBlock: EYOCIG_clean_linker_4, # of connection points: 2
#     Edge 14, Type (0, 0), BuildingBlock: EYOCIG_clean_linker_4, # of connection points: 2
#     Edge 15, Type (0, 0), BuildingBlock: EYOCIG_clean_linker_4, # of connection points: 2
# Relax obj value: 0.212
# Max RMSD: 0.246
# Mean RMSD: 0.246
data_MOF--net-rob--node1-PAMTUU_clean_sbu_0--edge1-EYOCIG_clean_linker_4
_symmetry_space_group_name_H-M    P1
_symmetry_Int_Tables_number       1
_symmetry_cell_setting            triclinic
loop_
_symmetry_equiv_pos_as_xyz
'x, y, z'
_cell_length_a     16.059573
_cell_length_b     17.256188
_cell_length_c     30.534727
_cell_angle_alpha  89.988297
_cell_angle_beta   49.70464
_cell_angle_gamma 89.979892
loop_
_atom_site_label
_atom_site_type_symbol
_atom_site_fract_x
_atom_site_fract_y
_atom_site_fract_z
_atom_type_partial_charge
Tb0 Tb 0.16713 0.29907 0.01529 0.0
Tb1 Tb 0.32515 0.18039 0.02461 0.0
C2 C 0.35356 0.36071 0.01231 0.0
C3 C 0.04983 0.3795 0.95236 0.0
C4 C 0.02636 0.38236 0.86877 0.0
C5 C 0.03039 0.45177 0.89106 0.0
C6 C 0.04253 0.45026 0.93242 0.0
C7 C 0.04708 0.30985 0.92938 0.0
C8 C 0.03529 0.31138 0.88778 0.0
C9 C 0.06314 0.38004 0.99583 0.0
O10 O 0.30001 0.25673 0.92939 0.0
O11 O 0.39815 0.16528 0.93589 0.0
O12 O 0.23276 0.10387 0.01413 0.0
O13 O 0.09428 0.18568 0.03823 0.0
O14 O 0.47214 0.15938 1.00813 0.0
O15 O 0.33469 0.08201 0.06175 0.0
O16 O 0.19518 0.22511 0.11022 0.0
O17 O 0.08865 0.3096 0.10513 0.0
O18 O 0.25656 0.37362 0.02897 0.0
O19 O 0.40114 0.29297 0.99621 0.0
C20 C 0.3763 0.20365 0.90724 0.0
O21 O 0.02042 0.32237 0.03205 0.0
O22 O 0.16033 0.39742 0.97707 0.0
C23 C 0.13928 0.11738 0.02664 0.0
C24 C 0.44367 0.10077 0.08723 0.0
C25 C 0.4655 0.09705 0.17143 0.0
C26 C 0.46221 0.02784 0.14867 0.0
C27 C 0.45099 0.02977 0.10695 0.0
C28 C 0.44542 0.17016 0.11079 0.0
C29 C 0.45645 0.1682 0.15265 0.0
C30 C 0.43111 0.10075 0.04347 0.0
C31 C 0.11414 0.27429 0.13316 0.0
H32 H 0.02426 0.50708 0.87649 0.0
H33 H 0.04702 0.50445 0.94855 0.0
H34 H 0.05423 0.25447 0.94343 0.0
H35 H 0.03294 0.25728 0.87057 0.0
H36 H 0.4684 0.97239 0.16307 0.0
H37 H 0.44738 0.97574 0.0903 0.0
H38 H 0.43814 0.22568 0.09694 0.0
H39 H 0.45822 0.22214 0.17022 0.0
Tb40 Tb 0.66651 0.79717 0.01536 0.0
Tb41 Tb 0.82514 0.67939 0.0246 0.0
C42 C 0.8513 0.8616 0.01393 0.0
C43 C 0.54773 0.87584 0.9527 0.0
C44 C 0.52782 0.88005 0.86782 0.0
C45 C 0.53061 0.94913 0.89086 0.0
C46 C 0.54089 0.94696 0.93292 0.0
C47 C 0.54654 0.80656 0.92884 0.0
C48 C 0.53644 0.80878 0.88663 0.0
C49 C 0.55947 0.87572 0.99675 0.0
O50 O 0.79642 0.75267 0.92977 0.0
O51 O 0.90502 0.6701 0.93451 0.0
O52 O 0.73785 0.6048 0.00953 0.0
O53 O 0.59142 0.68433 0.04431 0.0
O54 O 0.97188 0.65623 1.00782 0.0
O55 O 0.83195 0.58117 0.06291 0.0
O56 O 0.69054 0.72023 0.11069 0.0
O57 O 0.59414 0.81293 0.10386 0.0
O58 O 0.75889 0.87476 0.02519 0.0
O59 O 0.89585 0.79336 1.00363 0.0
C60 C 0.87865 0.70461 0.90664 0.0
O61 O 0.51948 0.81654 0.03157 0.0
O62 O 0.65522 0.89555 0.97893 0.0
C63 C 0.64032 0.61711 0.02676 0.0
C64 C 0.94222 0.59971 0.0877 0.0
C65 C 0.96499 0.59781 0.17155 0.0
C66 C 0.9615 0.52816 0.14929 0.0
C67 C 0.94974 0.52919 0.10778 0.0
C68 C 0.94447 0.66961 0.11063 0.0
C69 C 0.95594 0.66855 0.15236 0.0
C70 C 0.9291 0.59871 0.04417 0.0
C71 C 0.61502 0.77388 0.13269 0.0
H72 H 0.52471 0.00467 0.87644 0.0
H73 H 0.54413 0.00089 0.9498 0.0
H74 H 0.55353 0.75096 0.94271 0.0
H75 H 0.53503 0.75494 0.86884 0.0
H76 H 0.96776 0.47302 0.164 0.0
H77 H 0.94573 0.47482 0.09163 0.0
H78 H 0.93716 0.7248 0.09645 0.0
H79 H 0.95791 0.72283 0.16952 0.0
Tb80 Tb 0.32524 0.79881 0.52426 0.0
Tb81 Tb 0.16641 0.68089 0.51541 0.0
C82 C 0.13955 0.86242 0.52657 0.0
C83 C 0.44382 0.87754 0.58691 0.0
C84 C 0.46573 0.88066 0.67106 0.0
C85 C 0.46221 0.95002 0.64853 0.0
C86 C 0.45083 0.94837 0.60688 0.0
C87 C 0.44584 0.80796 0.61024 0.0
C88 C 0.45688 0.80963 0.65211 0.0
C89 C 0.43141 0.87794 0.54312 0.0
O90 O 0.19449 0.75518 0.61006 0.0
O91 O 0.08963 0.66901 0.6049 0.0
O92 O 0.2551 0.60573 0.52926 0.0
O93 O 0.39984 0.68582 0.49697 0.0
O94 O 0.01958 0.65848 0.53213 0.0
O95 O 0.15857 0.58241 0.47773 0.0
O96 O 0.29933 0.72282 0.42937 0.0
O97 O 0.39989 0.81257 0.43526 0.0
O98 O 0.23435 0.87526 0.51267 0.0
O99 O 0.09319 0.79441 0.53961 0.0
C100 C 0.11454 0.70508 0.63293 0.0
O101 O 0.47229 0.81935 0.50775 0.0
O102 O 0.33514 0.8971 0.56131 0.0
C103 C 0.35163 0.61838 0.51324 0.0
C104 C 0.049 0.60095 0.45257 0.0
C105 C 0.02748 0.59827 0.36826 0.0
C106 C 0.03045 0.5288 0.39091 0.0
C107 C 0.0415 0.53021 0.4327 0.0
C108 C 0.0474 0.67062 0.4292 0.0
C109 C 0.03651 0.66918 0.38727 0.0
C110 C 0.06171 0.60042 0.49626 0.0
C111 C 0.37713 0.77471 0.40686 0.0
H112 H 0.46823 0.00537 0.66308 0.0
H113 H 0.44674 0.00251 0.59053 0.0
H114 H 0.43876 0.75255 0.59622 0.0
H115 H 0.45879 0.75559 0.66953 0.0
H116 H 0.0242 0.47354 0.37635 0.0
H117 H 0.04486 0.47599 0.44927 0.0
H118 H 0.05475 0.72595 0.4432 0.0
H119 H 0.03491 0.72331 0.36981 0.0
Tb120 Tb 0.82482 0.29753 0.52468 0.0
Tb121 Tb 0.66715 0.17915 0.51499 0.0
C122 C 0.63904 0.36244 0.52634 0.0
C123 C 0.94463 0.37569 0.58699 0.0
C124 C 0.96345 0.38106 0.67228 0.0
C125 C 0.96046 0.44985 0.64902 0.0
C126 C 0.9507 0.4471 0.60677 0.0
C127 C 0.94576 0.30673 0.61116 0.0
C128 C 0.95531 0.30952 0.65357 0.0
C129 C 0.9337 0.37498 0.54262 0.0
O130 O 0.69853 0.2499 0.60968 0.0
O131 O 0.58367 0.17387 0.60584 0.0
O132 O 0.75391 0.1063 0.53137 0.0
O133 O 0.90194 0.18571 0.49179 0.0
O134 O 0.5207 0.15385 0.53201 0.0
O135 O 0.66257 0.08057 0.47616 0.0
O136 O 0.80433 0.21806 0.42879 0.0
O137 O 0.8922 0.3165 0.4372 0.0
O138 O 0.72599 0.37637 0.5204 0.0
O139 O 0.6007 0.29369 0.53018 0.0
C140 C 0.613 0.20511 0.6333 0.0
O141 O 0.97204 0.3149 0.50869 0.0
O142 O 0.83889 0.39615 0.5598 0.0
C143 C 0.85305 0.11878 0.51178 0.0
C144 C 0.55158 0.09793 0.45168 0.0
C145 C 0.5288 0.09612 0.36782 0.0
C146 C 0.53254 0.02645 0.38998 0.0
C147 C 0.54431 0.02743 0.4315 0.0
C148 C 0.54899 0.16786 0.42887 0.0
C149 C 0.53753 0.16685 0.38714 0.0
C150 C 0.56491 0.09691 0.49514 0.0
C151 C 0.87513 0.27501 0.40762 0.0
H152 H 0.96592 0.5056 0.66338 0.0
H153 H 0.94732 0.50081 0.58973 0.0
H154 H 0.93923 0.25091 0.59736 0.0
H155 H 0.95682 0.25591 0.67154 0.0
H156 H 0.52651 0.97133 0.37519 0.0
H157 H 0.54857 0.97305 0.44755 0.0
H158 H 0.55607 0.22304 0.44314 0.0
H159 H 0.53534 0.22116 0.37006 0.0
C160 C 0.53142 0.51269 0.02012 0.0
C161 C 0.58664 0.55682 0.02188 0.0
C162 C 0.4641 0.46547 0.01745 0.0
C163 C 0.40821 0.42124 0.01628 0.0
C164 C 0.46031 0.515 0.52058 0.0
C165 C 0.40469 0.55816 0.5185 0.0
C166 C 0.52825 0.46925 0.52355 0.0
C167 C 0.58464 0.42537 0.52452 0.0
C168 C 0.02911 0.01271 0.02155 0.0
C169 C 0.08555 0.05597 0.0229 0.0
C170 C 0.9607 0.96723 0.0188 0.0
C171 C 0.90451 0.92367 0.01745 0.0
C172 C 0.96333 0.01631 0.51902 0.0
C173 C 0.90797 0.06 0.51702 0.0
C174 C 0.03035 0.96895 0.52185 0.0
C175 C 0.08581 0.92418 0.52301 0.0
C176 C 0.50415 0.09404 0.29016 0.0
C177 C 0.51538 0.09492 0.32555 0.0
C178 C 0.49038 0.09403 0.24898 0.0
C179 C 0.47906 0.09507 0.21363 0.0
C180 C 0.51667 0.79937 0.24119 0.0
C181 C 0.55629 0.79228 0.19185 0.0
C182 C 0.47601 0.79949 0.29821 0.0
C183 C 0.43635 0.7926 0.34757 0.0
C184 C 0.50409 0.88347 0.78986 0.0
C185 C 0.51489 0.88229 0.8254 0.0
C186 C 0.49051 0.88348 0.74863 0.0
C187 C 0.47923 0.88243 0.71328 0.0
C188 C 0.51344 0.17917 0.74193 0.0
C189 C 0.55245 0.18702 0.69272 0.0
C190 C 0.47372 0.17843 0.7988 0.0
C191 C 0.43485 0.18524 0.84806 0.0
C192 C 0.98971 0.59579 0.24918 0.0
C193 C 0.97845 0.5966 0.21381 0.0
C194 C 0.0033 0.59582 0.29043 0.0
C195 C 0.01431 0.59674 0.3259 0.0
C196 C 0.97319 0.30033 0.29907 0.0
C197 C 0.93332 0.29362 0.34849 0.0
C198 C 0.01431 0.29975 0.24193 0.0
C199 C 0.05421 0.29227 0.19254 0.0
C200 C 0.98711 0.3852 0.75027 0.0
C201 C 0.97635 0.38382 0.71472 0.0
C202 C 0.00088 0.38521 0.79145 0.0
C203 C 0.01248 0.38408 0.82669 0.0
C204 C 0.01703 0.67951 0.74128 0.0
C205 C 0.05569 0.68679 0.69211 0.0
C206 C 0.97755 0.67948 0.79807 0.0
C207 C 0.93855 0.68666 0.8473 0.0
loop_
_geom_bond_atom_site_label_1
_geom_bond_atom_site_label_2
_geom_bond_distance
_geom_bond_site_symmetry_2
_ccdc_geom_bond_type
Tb0 C9 2.764 1_554 S
Tb0 O10 2.325 1_554 S
Tb0 O13 2.303 . S
Tb0 O17 2.322 . S
Tb0 O18 2.349 . S
Tb0 O21 2.415 1_554 S
Tb0 O22 2.399 1_554 S
Tb1 O11 2.322 1_554 S
Tb1 O12 2.349 . S
Tb1 O14 2.415 . S
Tb1 O15 2.399 . S
Tb1 O16 2.325 . S
Tb1 O19 2.303 . S
Tb1 C30 2.764 . S
C2 O18 1.261 . S
C2 O19 1.257 . S
C3 C6 1.358 . S
C3 C7 1.332 . S
C3 C9 1.504 . S
C4 C5 1.373 . S
C4 C8 1.308 . S
C5 C4 1.373 . S
C5 C6 1.429 . S
C5 H32 0.932 . S
C6 C3 1.358 . S
C6 C5 1.429 . S
C6 H33 0.930 . S
C7 C3 1.332 . S
C7 C8 1.394 . S
C7 H34 0.932 . S
C8 C4 1.308 . S
C8 C7 1.394 . S
C8 H35 0.929 . S
C9 Tb0 2.764 1_556 S
C9 C3 1.504 . S
C9 O21 1.239 . S
C9 O22 1.263 . S
O10 Tb0 2.325 1_556 S
O10 C20 1.236 . S
O11 Tb1 2.322 1_556 S
O11 C20 1.257 . S
O12 Tb1 2.349 . S
O12 C23 1.261 . S
O13 Tb0 2.303 . S
O13 C23 1.257 . S
O14 Tb1 2.415 . S
O14 C30 1.239 . S
O15 Tb1 2.399 . S
O15 C30 1.263 . S
O16 Tb1 2.325 . S
O16 C31 1.236 . S
O17 Tb0 2.322 . S
O17 C31 1.257 . S
O18 Tb0 2.349 . S
O18 C2 1.261 . S
O19 Tb1 2.303 . S
O19 C2 1.257 . S
C20 O10 1.236 . S
C20 O11 1.257 . S
O21 Tb0 2.415 1_556 S
O21 C9 1.239 . S
O22 Tb0 2.399 1_556 S
O22 C9 1.263 . S
C23 O12 1.261 . S
C23 O13 1.257 . S
C24 C27 1.358 . S
C24 C28 1.332 . S
C24 C30 1.504 . S
C25 C26 1.373 . S
C25 C29 1.308 . S
C26 C25 1.373 . S
C26 C27 1.429 . S
C26 H36 0.932 1_545 S
C27 C24 1.358 . S
C27 C26 1.429 . S
C27 H37 0.930 . S
C28 C24 1.332 . S
C28 C29 1.394 . S
C28 H38 0.932 . S
C29 C25 1.308 . S
C29 C28 1.394 . S
C29 H39 0.929 . S
C30 Tb1 2.764 . S
C30 O14 1.239 . S
C30 O15 1.263 . S
C30 C24 1.504 . S
C31 O16 1.236 . S
C31 O17 1.257 . S
H32 C5 0.932 . S
H33 C6 0.930 . S
H34 C7 0.932 . S
H35 C8 0.929 . S
H36 C26 0.932 1_565 S
H37 C27 0.930 . S
H38 C28 0.932 . S
H39 C29 0.929 . S
Tb40 C49 2.764 1_554 S
Tb40 O50 2.325 1_554 S
Tb40 O53 2.303 . S
Tb40 O57 2.322 . S
Tb40 O58 2.349 . S
Tb40 O61 2.415 1_554 S
Tb40 O62 2.399 1_554 S
Tb41 O51 2.322 1_554 S
Tb41 O52 2.349 . S
Tb41 O54 2.415 . S
Tb41 O55 2.399 . S
Tb41 O56 2.325 . S
Tb41 O59 2.303 . S
Tb41 C70 2.764 . S
C42 O58 1.261 . S
C42 O59 1.257 . S
C43 C46 1.358 . S
C43 C47 1.332 . S
C43 C49 1.504 . S
C44 C45 1.373 . S
C44 C48 1.308 . S
C45 C44 1.373 . S
C45 C46 1.429 . S
C45 H72 0.932 1_565 S
C46 C43 1.358 . S
C46 C45 1.429 . S
C46 H73 0.930 . S
C47 C43 1.332 . S
C47 C48 1.394 . S
C47 H74 0.932 . S
C48 C44 1.308 . S
C48 C47 1.394 . S
C48 H75 0.929 . S
C49 Tb40 2.764 1_556 S
C49 C43 1.504 . S
C49 O61 1.239 . S
C49 O62 1.263 . S
O50 Tb40 2.325 1_556 S
O50 C60 1.236 . S
O51 Tb41 2.322 1_556 S
O51 C60 1.257 . S
O52 Tb41 2.349 . S
O52 C63 1.261 . S
O53 Tb40 2.303 . S
O53 C63 1.257 . S
O54 Tb41 2.415 . S
O54 C70 1.239 . S
O55 Tb41 2.399 . S
O55 C70 1.263 . S
O56 Tb41 2.325 . S
O56 C71 1.236 . S
O57 Tb40 2.322 . S
O57 C71 1.257 . S
O58 Tb40 2.349 . S
O58 C42 1.261 . S
O59 Tb41 2.303 . S
O59 C42 1.257 . S
C60 O50 1.236 . S
C60 O51 1.257 . S
O61 Tb40 2.415 1_556 S
O61 C49 1.239 . S
O62 Tb40 2.399 1_556 S
O62 C49 1.263 . S
C63 O52 1.261 . S
C63 O53 1.257 . S
C64 C67 1.358 . S
C64 C68 1.332 . S
C64 C70 1.504 . S
C65 C66 1.373 . S
C65 C69 1.308 . S
C66 C65 1.373 . S
C66 C67 1.429 . S
C66 H76 0.932 . S
C67 C64 1.358 . S
C67 C66 1.429 . S
C67 H77 0.930 . S
C68 C64 1.332 . S
C68 C69 1.394 . S
C68 H78 0.932 . S
C69 C65 1.308 . S
C69 C68 1.394 . S
C69 H79 0.929 . S
C70 Tb41 2.764 . S
C70 O54 1.239 . S
C70 O55 1.263 . S
C70 C64 1.504 . S
C71 O56 1.236 . S
C71 O57 1.257 . S
H72 C45 0.932 1_545 S
H73 C46 0.930 . S
H74 C47 0.932 . S
H75 C48 0.929 . S
H76 C66 0.932 . S
H77 C67 0.930 . S
H78 C68 0.932 . S
H79 C69 0.929 . S
Tb80 C89 2.764 . S
Tb80 O90 2.325 . S
Tb80 O93 2.303 . S
Tb80 O97 2.322 . S
Tb80 O98 2.349 . S
Tb80 O101 2.415 . S
Tb80 O102 2.399 . S
Tb81 O91 2.322 . S
Tb81 O92 2.349 . S
Tb81 O94 2.415 . S
Tb81 O95 2.399 . S
Tb81 O96 2.325 . S
Tb81 O99 2.303 . S
Tb81 C110 2.764 . S
C82 O98 1.261 . S
C82 O99 1.257 . S
C83 C86 1.358 . S
C83 C87 1.332 . S
C83 C89 1.504 . S
C84 C85 1.373 . S
C84 C88 1.308 . S
C85 C84 1.373 . S
C85 C86 1.429 . S
C85 H112 0.932 1_565 S
C86 C83 1.358 . S
C86 C85 1.429 . S
C86 H113 0.930 . S
C87 C83 1.332 . S
C87 C88 1.394 . S
C87 H114 0.932 . S
C88 C84 1.308 . S
C88 C87 1.394 . S
C88 H115 0.929 . S
C89 Tb80 2.764 . S
C89 C83 1.504 . S
C89 O101 1.239 . S
C89 O102 1.263 . S
O90 Tb80 2.325 . S
O90 C100 1.236 . S
O91 Tb81 2.322 . S
O91 C100 1.257 . S
O92 Tb81 2.349 . S
O92 C103 1.261 . S
O93 Tb80 2.303 . S
O93 C103 1.257 . S
O94 Tb81 2.415 . S
O94 C110 1.239 . S
O95 Tb81 2.399 . S
O95 C110 1.263 . S
O96 Tb81 2.325 . S
O96 C111 1.236 . S
O97 Tb80 2.322 . S
O97 C111 1.257 . S
O98 Tb80 2.349 . S
O98 C82 1.261 . S
O99 Tb81 2.303 . S
O99 C82 1.257 . S
C100 O90 1.236 . S
C100 O91 1.257 . S
O101 Tb80 2.415 . S
O101 C89 1.239 . S
O102 Tb80 2.399 . S
O102 C89 1.263 . S
C103 O92 1.261 . S
C103 O93 1.257 . S
C104 C107 1.358 . S
C104 C108 1.332 . S
C104 C110 1.504 . S
C105 C106 1.373 . S
C105 C109 1.308 . S
C106 C105 1.373 . S
C106 C107 1.429 . S
C106 H116 0.932 . S
C107 C104 1.358 . S
C107 C106 1.429 . S
C107 H117 0.930 . S
C108 C104 1.332 . S
C108 C109 1.394 . S
C108 H118 0.932 . S
C109 C105 1.308 . S
C109 C108 1.394 . S
C109 H119 0.929 . S
C110 Tb81 2.764 . S
C110 O94 1.239 . S
C110 O95 1.263 . S
C110 C104 1.504 . S
C111 O96 1.236 . S
C111 O97 1.257 . S
H112 C85 0.932 1_545 S
H113 C86 0.930 . S
H114 C87 0.932 . S
H115 C88 0.929 . S
H116 C106 0.932 . S
H117 C107 0.930 . S
H118 C108 0.932 . S
H119 C109 0.929 . S
Tb120 C129 2.764 . S
Tb120 O130 2.325 . S
Tb120 O133 2.303 . S
Tb120 O137 2.322 . S
Tb120 O138 2.349 . S
Tb120 O141 2.415 . S
Tb120 O142 2.399 . S
Tb121 O131 2.322 . S
Tb121 O132 2.349 . S
Tb121 O134 2.415 . S
Tb121 O135 2.399 . S
Tb121 O136 2.325 . S
Tb121 O139 2.303 . S
Tb121 C150 2.764 . S
C122 O138 1.261 . S
C122 O139 1.257 . S
C123 C126 1.358 . S
C123 C127 1.332 . S
C123 C129 1.504 . S
C124 C125 1.373 . S
C124 C128 1.308 . S
C125 C124 1.373 . S
C125 C126 1.429 . S
C125 H152 0.932 . S
C126 C123 1.358 . S
C126 C125 1.429 . S
C126 H153 0.930 . S
C127 C123 1.332 . S
C127 C128 1.394 . S
C127 H154 0.932 . S
C128 C124 1.308 . S
C128 C127 1.394 . S
C128 H155 0.929 . S
C129 Tb120 2.764 . S
C129 C123 1.504 . S
C129 O141 1.239 . S
C129 O142 1.263 . S
O130 Tb120 2.325 . S
O130 C140 1.236 . S
O131 Tb121 2.322 . S
O131 C140 1.257 . S
O132 Tb121 2.349 . S
O132 C143 1.261 . S
O133 Tb120 2.303 . S
O133 C143 1.257 . S
O134 Tb121 2.415 . S
O134 C150 1.239 . S
O135 Tb121 2.399 . S
O135 C150 1.263 . S
O136 Tb121 2.325 . S
O136 C151 1.236 . S
O137 Tb120 2.322 . S
O137 C151 1.257 . S
O138 Tb120 2.349 . S
O138 C122 1.261 . S
O139 Tb121 2.303 . S
O139 C122 1.257 . S
C140 O130 1.236 . S
C140 O131 1.257 . S
O141 Tb120 2.415 . S
O141 C129 1.239 . S
O142 Tb120 2.399 . S
O142 C129 1.263 . S
C143 O132 1.261 . S
C143 O133 1.257 . S
C144 C147 1.358 . S
C144 C148 1.332 . S
C144 C150 1.504 . S
C145 C146 1.373 . S
C145 C149 1.308 . S
C146 C145 1.373 . S
C146 C147 1.429 . S
C146 H156 0.932 1_545 S
C147 C144 1.358 . S
C147 C146 1.429 . S
C147 H157 0.930 . S
C148 C144 1.332 . S
C148 C149 1.394 . S
C148 H158 0.932 . S
C149 C145 1.308 . S
C149 C148 1.394 . S
C149 H159 0.929 . S
C150 Tb121 2.764 . S
C150 O134 1.239 . S
C150 O135 1.263 . S
C150 C144 1.504 . S
C151 O136 1.236 . S
C151 O137 1.257 . S
H152 C125 0.932 . S
H153 C126 0.930 . S
H154 C127 0.932 . S
H155 C128 0.929 . S
H156 C146 0.932 1_565 S
H157 C147 0.930 . S
H158 C148 0.932 . S
H159 C149 0.929 . S
C160 C161 1.170 . S
C160 C162 1.380 . S
C161 C160 1.170 . S
C162 C160 1.380 . S
C162 C163 1.170 . S
C163 C162 1.170 . S
C164 C165 1.170 . S
C164 C166 1.380 . S
C165 C164 1.170 . S
C166 C164 1.380 . S
C166 C167 1.170 . S
C167 C166 1.170 . S
C168 C169 1.170 . S
C168 C170 1.380 1_445 S
C169 C168 1.170 . S
C170 C168 1.380 1_665 S
C170 C171 1.170 . S
C171 C170 1.170 . S
C172 C173 1.170 . S
C172 C174 1.380 1_645 S
C173 C172 1.170 . S
C174 C172 1.380 1_465 S
C174 C175 1.170 . S
C175 C174 1.170 . S
C176 C177 1.170 . S
C176 C178 1.380 . S
C177 C176 1.170 . S
C178 C176 1.380 . S
C178 C179 1.170 . S
C179 C178 1.170 . S
C180 C181 1.170 . S
C180 C182 1.380 . S
C181 C180 1.170 . S
C182 C180 1.380 . S
C182 C183 1.170 . S
C183 C182 1.170 . S
C184 C185 1.170 . S
C184 C186 1.380 . S
C185 C184 1.170 . S
C186 C184 1.380 . S
C186 C187 1.170 . S
C187 C186 1.170 . S
C188 C189 1.170 . S
C188 C190 1.380 . S
C189 C188 1.170 . S
C190 C188 1.380 . S
C190 C191 1.170 . S
C191 C190 1.170 . S
C192 C193 1.170 . S
C192 C194 1.380 . S
C193 C192 1.170 . S
C194 C192 1.380 . S
C194 C195 1.170 1_455 S
C195 C194 1.170 1_655 S
C196 C197 1.170 . S
C196 C198 1.380 1_655 S
C197 C196 1.170 . S
C198 C196 1.380 1_455 S
C198 C199 1.170 . S
C199 C198 1.170 . S
C200 C201 1.170 1_655 S
C200 C202 1.380 . S
C201 C200 1.170 1_455 S
C202 C200 1.380 . S
C202 C203 1.170 . S
C203 C202 1.170 . S
C204 C205 1.170 . S
C204 C206 1.380 1_455 S
C205 C204 1.170 . S
C206 C204 1.380 1_655 S
C206 C207 1.170 . S
C207 C206 1.170 . S
C161 C63 1.688 . S
C163 C2 1.684 . S
C165 C103 1.683 . S
C167 C122 1.688 . S
C169 C23 1.684 . S
C171 C42 1.688 . S
C173 C143 1.683 . S
C175 C82 1.688 . S
C177 C145 1.244 . S
C179 C25 1.267 . S
C181 C71 1.626 . S
C183 C111 1.623 . S
C185 C44 1.226 . S
C187 C84 1.262 . S
C189 C140 1.641 . S
C191 C20 1.633 . S
C193 C65 1.234 1_455 S
C195 C105 1.226 1_655 S
C197 C151 1.630 . S
C199 C31 1.637 . S
C201 C124 1.237 1_455 S
C203 C4 1.272 1_655 S
C205 C100 1.624 . S
C207 C60 1.640 . S
