# Generated by pormake.
# Topology gsi, (4)-cn, num edge types: 1
# Building blocks:
#     Node 0, Type 0, BuildingBlock: GALJAG_clean_sbu_0, # of connection points: 4
#     Node 1, Type 0, BuildingBlock: GALJAG_clean_sbu_0, # of connection points: 4
#     Node 2, Type 0, BuildingBlock: GALJAG_clean_sbu_0, # of connection points: 4
#     Node 3, Type 0, BuildingBlock: GALJAG_clean_sbu_0, # of connection points: 4
#     Node 4, Type 0, BuildingBlock: GALJAG_clean_sbu_0, # of connection points: 4
#     Node 5, Type 0, BuildingBlock: GALJAG_clean_sbu_0, # of connection points: 4
#     Node 6, Type 0, BuildingBlock: GALJAG_clean_sbu_0, # of connection points: 4
#     Node 7, Type 0, BuildingBlock: GALJAG_clean_sbu_0, # of connection points: 4
#     Node 8, Type 0, BuildingBlock: GALJAG_clean_sbu_0, # of connection points: 4
#     Node 9, Type 0, BuildingBlock: GALJAG_clean_sbu_0, # of connection points: 4
#     Node 10, Type 0, BuildingBlock: GALJAG_clean_sbu_0, # of connection points: 4
#     Node 11, Type 0, BuildingBlock: GALJAG_clean_sbu_0, # of connection points: 4
#     Node 12, Type 0, BuildingBlock: GALJAG_clean_sbu_0, # of connection points: 4
#     Node 13, Type 0, BuildingBlock: GALJAG_clean_sbu_0, # of connection points: 4
#     Node 14, Type 0, BuildingBlock: GALJAG_clean_sbu_0, # of connection points: 4
#     Node 15, Type 0, BuildingBlock: GALJAG_clean_sbu_0, # of connection points: 4
#     Edge 16, Type (0, 0), None
#     Edge 17, Type (0, 0), None
#     Edge 18, Type (0, 0), None
#     Edge 19, Type (0, 0), None
#     Edge 20, Type (0, 0), None
#     Edge 21, Type (0, 0), None
#     Edge 22, Type (0, 0), None
#     Edge 23, Type (0, 0), None
#     Edge 24, Type (0, 0), None
#     Edge 25, Type (0, 0), None
#     Edge 26, Type (0, 0), None
#     Edge 27, Type (0, 0), None
#     Edge 28, Type (0, 0), None
#     Edge 29, Type (0, 0), None
#     Edge 30, Type (0, 0), None
#     Edge 31, Type (0, 0), None
#     Edge 32, Type (0, 0), None
#     Edge 33, Type (0, 0), None
#     Edge 34, Type (0, 0), None
#     Edge 35, Type (0, 0), None
#     Edge 36, Type (0, 0), None
#     Edge 37, Type (0, 0), None
#     Edge 38, Type (0, 0), None
#     Edge 39, Type (0, 0), None
#     Edge 40, Type (0, 0), None
#     Edge 41, Type (0, 0), None
#     Edge 42, Type (0, 0), None
#     Edge 43, Type (0, 0), None
#     Edge 44, Type (0, 0), None
#     Edge 45, Type (0, 0), None
#     Edge 46, Type (0, 0), None
#     Edge 47, Type (0, 0), None
# Relax obj value: 0.226
# Max RMSD: 0.210
# Mean RMSD: 0.172
data_MOF--net-gsi--node1-GALJAG_clean_sbu_0--edge1-none
_symmetry_space_group_name_H-M    P1
_symmetry_Int_Tables_number       1
_symmetry_cell_setting            triclinic
loop_
_symmetry_equiv_pos_as_xyz
'x, y, z'
_cell_length_a     18.679562
_cell_length_b     18.551121
_cell_length_c     19.611581
_cell_angle_alpha  90.00871
_cell_angle_beta   90.010402
_cell_angle_gamma 92.813639
loop_
_atom_site_label
_atom_site_type_symbol
_atom_site_fract_x
_atom_site_fract_y
_atom_site_fract_z
_atom_type_partial_charge
In0 In 0.13142 0.10671 0.16339 0.0
O1 O 0.23655 0.11458 0.1046 0.0
O2 O 0.14457 0.07559 0.04984 0.0
C3 C 0.21335 0.18386 0.24982 0.0
C4 C 0.01997 0.18966 0.13288 0.0
C5 C 0.10936 -0.01299 0.24227 0.0
O6 O 0.23865 0.13782 0.21041 0.0
O7 O 0.14683 0.19162 0.24544 0.0
O8 O 0.10542 0.04995 0.2647 0.0
O9 O 0.11964 -0.01674 0.1788 0.0
C10 C 0.21112 0.09182 0.04887 0.0
O11 O 0.01204 0.12221 0.14166 0.0
O12 O 0.08385 0.21431 0.13592 0.0
In13 In 0.84786 0.32025 0.16343 0.0
O14 O 0.96722 0.30473 0.14167 0.0
O15 O 0.89539 0.21262 0.13595 0.0
C16 C 0.86992 0.43998 0.24231 0.0
C17 C 0.76815 0.33514 0.04889 0.0
C18 C 0.76593 0.24316 0.24986 0.0
O19 O 0.8739 0.37705 0.26474 0.0
O20 O 0.85959 0.44371 0.17885 0.0
O21 O 0.74062 0.28912 0.21037 0.0
O22 O 0.83246 0.23545 0.24555 0.0
C23 C 0.95928 0.23728 0.13293 0.0
O24 O 0.74273 0.31232 0.10459 0.0
O25 O 0.83469 0.35143 0.0499 0.0
In26 In 0.14566 0.81318 0.37072 0.0
O27 O 0.08319 0.70746 0.39267 0.0
O28 O 0.02491 0.80344 0.38992 0.0
C29 C 0.22448 0.72975 0.2932 0.0
C30 C 0.11422 0.92484 0.28807 0.0
C31 C 0.22403 0.83505 0.48683 0.0
O32 O 0.1626 0.7098 0.31308 0.0
O33 O 0.24724 0.79139 0.31282 0.0
O34 O 0.24967 0.84712 0.42849 0.0
O35 O 0.15853 0.81546 0.48715 0.0
C36 C 0.02322 0.73553 0.39641 0.0
O37 O 0.11794 0.93115 0.35214 0.0
O38 O 0.12474 0.86268 0.26606 0.0
In39 In 0.83361 0.61382 0.37077 0.0
O40 O 0.8961 0.71955 0.39274 0.0
O41 O 0.95438 0.62356 0.38989 0.0
C42 C 0.7548 0.69725 0.29323 0.0
C43 C 0.86505 0.50216 0.28811 0.0
C44 C 0.75524 0.59194 0.48684 0.0
O45 O 0.8166 0.71727 0.31328 0.0
O46 O 0.7321 0.63554 0.31269 0.0
O47 O 0.72958 0.57993 0.42849 0.0
O48 O 0.82075 0.61148 0.4872 0.0
C49 C 0.95607 0.69147 0.39639 0.0
O50 O 0.86136 0.49586 0.35219 0.0
O51 O 0.8545 0.56431 0.2661 0.0
In52 In 0.34786 0.82024 0.66341 0.0
O53 O 0.46722 0.80473 0.64167 0.0
O54 O 0.39541 0.71263 0.63593 0.0
C55 C 0.36992 0.93996 0.7423 0.0
C56 C 0.26815 0.83511 0.54887 0.0
C57 C 0.26594 0.74314 0.74984 0.0
O58 O 0.37388 0.87703 0.76473 0.0
O59 O 0.35961 0.9437 0.67884 0.0
O60 O 0.24063 0.78912 0.71037 0.0
O61 O 0.33246 0.73541 0.74551 0.0
C62 C 0.45929 0.73728 0.63288 0.0
O63 O 0.24274 0.81228 0.60457 0.0
O64 O 0.33468 0.85145 0.5499 0.0
In65 In 0.84348 0.81467 0.87067 0.0
O66 O 0.87294 0.93543 0.8507 0.0
O67 O 0.85495 0.86687 0.76554 0.0
C68 C 0.95838 0.73604 0.89751 0.0
C69 C 0.76857 0.83762 0.98687 0.0
C70 C 0.75869 0.72744 0.79505 0.0
O71 O 0.96378 0.80381 0.88948 0.0
O72 O 0.8953 0.70882 0.8952 0.0
O73 O 0.73378 0.77276 0.83537 0.0
O74 O 0.8259 0.72491 0.79389 0.0
C75 C 0.86848 0.92983 0.78664 0.0
O76 O 0.83332 0.82116 0.98746 0.0
O77 O 0.74257 0.84533 0.92834 0.0
In78 In 0.13582 0.61236 0.87063 0.0
O79 O 0.146 0.60587 0.98742 0.0
O80 O 0.23673 0.58169 0.92831 0.0
C81 C 0.2206 0.69956 0.79501 0.0
C82 C 0.1108 0.49717 0.78659 0.0
C83 C 0.02094 0.691 0.89746 0.0
O84 O 0.24552 0.65429 0.83539 0.0
O85 O 0.15339 0.70205 0.79381 0.0
O86 O 0.01553 0.62323 0.88944 0.0
O87 O 0.08402 0.71822 0.89518 0.0
C88 C 0.21074 0.5894 0.98684 0.0
O89 O 0.10638 0.49158 0.85066 0.0
O90 O 0.1243 0.56013 0.76549 0.0
In91 In 0.83893 0.10768 0.66145 0.0
O92 O 0.89575 0.21458 0.63185 0.0
O93 O 0.95895 0.12255 0.63852 0.0
C94 C 0.76549 0.18584 0.74809 0.0
C95 C 0.75502 0.08889 0.54875 0.0
C96 C 0.86697 -0.00781 0.74066 0.0
O97 O 0.82587 0.20744 0.72538 0.0
O98 O 0.74188 0.12484 0.72725 0.0
O99 O 0.85012 -0.01388 0.6785 0.0
O100 O 0.87246 0.05599 0.76211 0.0
C101 C 0.95717 0.18975 0.62861 0.0
O102 O 0.82139 0.07906 0.54788 0.0
O103 O 0.73101 0.10625 0.60594 0.0
In104 In 0.14038 0.3193 0.66141 0.0
O105 O 0.15789 0.34787 0.54785 0.0
O106 O 0.24831 0.3208 0.60593 0.0
C107 C 0.11232 0.43479 0.74062 0.0
C108 C 0.02211 0.23724 0.62863 0.0
C109 C 0.21381 0.24112 0.74805 0.0
O110 O 0.12913 0.44085 0.67845 0.0
O111 O 0.10688 0.371 0.76207 0.0
O112 O 0.15351 0.21945 0.72519 0.0
O113 O 0.23736 0.30219 0.72736 0.0
C114 C 0.22428 0.33812 0.54874 0.0
O115 O 0.08353 0.21241 0.63177 0.0
O116 O 0.02033 0.30444 0.63856 0.0
In117 In 0.63582 0.11237 0.37065 0.0
O118 O 0.60637 -0.0084 0.35067 0.0
O119 O 0.62433 0.06014 0.26551 0.0
C120 C 0.52093 0.191 0.3975 0.0
C121 C 0.71074 0.08943 0.48685 0.0
C122 C 0.7206 0.19957 0.29504 0.0
O123 O 0.51553 0.12323 0.38945 0.0
O124 O 0.58401 0.21823 0.39519 0.0
O125 O 0.74551 0.15433 0.33544 0.0
O126 O 0.65338 0.20205 0.2938 0.0
C127 C 0.61081 -0.00282 0.2866 0.0
O128 O 0.646 0.1059 0.48743 0.0
O129 O 0.73672 0.08167 0.42833 0.0
In130 In 0.63142 0.60671 0.66341 0.0
O131 O 0.51205 0.62221 0.64166 0.0
O132 O 0.58387 0.71432 0.63594 0.0
C133 C 0.60937 0.487 0.74228 0.0
C134 C 0.71112 0.59185 0.54888 0.0
C135 C 0.71335 0.68384 0.74985 0.0
O136 O 0.60541 0.54994 0.76471 0.0
O137 O 0.61967 0.48326 0.67881 0.0
O138 O 0.73865 0.63781 0.71043 0.0
O139 O 0.64684 0.6916 0.74548 0.0
C140 C 0.51998 0.68966 0.63292 0.0
O141 O 0.73655 0.61463 0.60461 0.0
O142 O 0.64459 0.57555 0.54987 0.0
In143 In 0.64566 0.31318 0.87074 0.0
O144 O 0.58319 0.20745 0.89268 0.0
O145 O 0.52491 0.30344 0.88991 0.0
C146 C 0.72448 0.22974 0.79321 0.0
C147 C 0.61423 0.42483 0.78808 0.0
C148 C 0.72403 0.33502 0.98683 0.0
O149 O 0.66261 0.20979 0.81311 0.0
O150 O 0.74724 0.29139 0.81282 0.0
O151 O 0.74968 0.3471 0.9285 0.0
O152 O 0.65853 0.31547 0.98717 0.0
C153 C 0.52322 0.23552 0.89641 0.0
O154 O 0.61794 0.43114 0.85216 0.0
O155 O 0.62476 0.36267 0.76607 0.0
In156 In 0.33361 0.11381 0.87076 0.0
O157 O 0.3961 0.21954 0.89273 0.0
O158 O 0.45438 0.12355 0.88988 0.0
C159 C 0.25481 0.19723 0.7932 0.0
C160 C 0.36506 0.00214 0.78811 0.0
C161 C 0.25523 0.09196 0.98682 0.0
O162 O 0.3166 0.21727 0.81328 0.0
O163 O 0.23212 0.1355 0.81264 0.0
O164 O 0.22956 0.07997 0.92847 0.0
O165 O 0.32075 0.11144 0.98719 0.0
C166 C 0.45607 0.19147 0.89639 0.0
O167 O 0.36133 -0.00416 0.85218 0.0
O168 O 0.35453 0.0643 0.7661 0.0
In169 In 0.34347 0.31468 0.37065 0.0
O170 O 0.33332 0.32118 0.48744 0.0
O171 O 0.24255 0.3453 0.42832 0.0
C172 C 0.25869 0.22747 0.29501 0.0
C173 C 0.36848 0.42984 0.28662 0.0
C174 C 0.45837 0.23605 0.39747 0.0
O175 O 0.23378 0.27279 0.33533 0.0
O176 O 0.32589 0.22491 0.29387 0.0
O177 O 0.46377 0.30382 0.38947 0.0
O178 O 0.39529 0.20882 0.39518 0.0
C179 C 0.26855 0.33759 0.48685 0.0
O180 O 0.37291 0.43545 0.35069 0.0
O181 O 0.35498 0.36688 0.26552 0.0
In182 In 0.33893 0.60769 0.16144 0.0
O183 O 0.39576 0.71459 0.13183 0.0
O184 O 0.45895 0.62256 0.13851 0.0
C185 C 0.26548 0.68585 0.24806 0.0
C186 C 0.25503 0.58892 0.04873 0.0
C187 C 0.36697 0.4922 0.24065 0.0
O188 O 0.32587 0.70745 0.22537 0.0
O189 O 0.24187 0.62486 0.22722 0.0
O190 O 0.35014 0.48613 0.17848 0.0
O191 O 0.37244 0.556 0.2621 0.0
C192 C 0.45717 0.68976 0.1286 0.0
O193 O 0.32141 0.57908 0.04787 0.0
O194 O 0.23101 0.60624 0.10592 0.0
In195 In 0.64038 0.81931 0.16142 0.0
O196 O 0.6579 0.8479 0.04787 0.0
O197 O 0.74831 0.82078 0.10595 0.0
C198 C 0.61233 0.93481 0.24063 0.0
C199 C 0.52211 0.73725 0.12863 0.0
C200 C 0.71381 0.74114 0.24807 0.0
O201 O 0.62915 0.94086 0.17847 0.0
O202 O 0.60687 0.87101 0.26208 0.0
O203 O 0.65349 0.71948 0.22523 0.0
O204 O 0.73737 0.80219 0.22736 0.0
C205 C 0.72428 0.83809 0.04875 0.0
O206 O 0.58353 0.71242 0.13177 0.0
O207 O 0.52034 0.80445 0.13856 0.0
loop_
_geom_bond_atom_site_label_1
_geom_bond_atom_site_label_2
_geom_bond_distance
_geom_bond_site_symmetry_2
_ccdc_geom_bond_type
In0 O1 2.294 . S
In0 O2 2.326 . S
In0 O6 2.266 . S
In0 O7 2.326 . S
In0 O8 2.266 . S
In0 O9 2.326 . S
In0 O11 2.294 . S
In0 O12 2.326 . S
O1 In0 2.294 . S
O1 C10 1.240 . S
O2 In0 2.326 . S
O2 C10 1.252 . S
C3 O6 1.252 . S
C3 O7 1.260 . S
C4 O11 1.240 . S
C4 O12 1.252 . S
C5 O8 1.252 . S
C5 O9 1.260 . S
O6 In0 2.266 . S
O6 C3 1.252 . S
O7 In0 2.326 . S
O7 C3 1.260 . S
O8 In0 2.266 . S
O8 C5 1.252 . S
O9 In0 2.326 . S
O9 C5 1.260 . S
C10 O1 1.240 . S
C10 O2 1.252 . S
O11 In0 2.294 . S
O11 C4 1.240 . S
O12 In0 2.326 . S
O12 C4 1.252 . S
In13 O14 2.294 . S
In13 O15 2.326 . S
In13 O19 2.266 . S
In13 O20 2.326 . S
In13 O21 2.266 . S
In13 O22 2.326 . S
In13 O24 2.294 . S
In13 O25 2.326 . S
O14 In13 2.294 . S
O14 C23 1.240 . S
O15 In13 2.326 . S
O15 C23 1.252 . S
C16 O19 1.252 . S
C16 O20 1.260 . S
C17 O24 1.240 . S
C17 O25 1.252 . S
C18 O21 1.252 . S
C18 O22 1.260 . S
O19 In13 2.266 . S
O19 C16 1.252 . S
O20 In13 2.326 . S
O20 C16 1.260 . S
O21 In13 2.266 . S
O21 C18 1.252 . S
O22 In13 2.326 . S
O22 C18 1.260 . S
C23 O14 1.240 . S
C23 O15 1.252 . S
O24 In13 2.294 . S
O24 C17 1.240 . S
O25 In13 2.326 . S
O25 C17 1.252 . S
In26 O27 2.294 . S
In26 O28 2.326 . S
In26 O32 2.266 . S
In26 O33 2.326 . S
In26 O34 2.266 . S
In26 O35 2.326 . S
In26 O37 2.294 . S
In26 O38 2.326 . S
O27 In26 2.294 . S
O27 C36 1.240 . S
O28 In26 2.326 . S
O28 C36 1.252 . S
C29 O32 1.252 . S
C29 O33 1.260 . S
C30 O37 1.240 . S
C30 O38 1.252 . S
C31 O34 1.252 . S
C31 O35 1.260 . S
O32 In26 2.266 . S
O32 C29 1.252 . S
O33 In26 2.326 . S
O33 C29 1.260 . S
O34 In26 2.266 . S
O34 C31 1.252 . S
O35 In26 2.326 . S
O35 C31 1.260 . S
C36 O27 1.240 . S
C36 O28 1.252 . S
O37 In26 2.294 . S
O37 C30 1.240 . S
O38 In26 2.326 . S
O38 C30 1.252 . S
In39 O40 2.294 . S
In39 O41 2.326 . S
In39 O45 2.266 . S
In39 O46 2.326 . S
In39 O47 2.266 . S
In39 O48 2.326 . S
In39 O50 2.294 . S
In39 O51 2.326 . S
O40 In39 2.294 . S
O40 C49 1.240 . S
O41 In39 2.326 . S
O41 C49 1.252 . S
C42 O45 1.252 . S
C42 O46 1.260 . S
C43 O50 1.240 . S
C43 O51 1.252 . S
C44 O47 1.252 . S
C44 O48 1.260 . S
O45 In39 2.266 . S
O45 C42 1.252 . S
O46 In39 2.326 . S
O46 C42 1.260 . S
O47 In39 2.266 . S
O47 C44 1.252 . S
O48 In39 2.326 . S
O48 C44 1.260 . S
C49 O40 1.240 . S
C49 O41 1.252 . S
O50 In39 2.294 . S
O50 C43 1.240 . S
O51 In39 2.326 . S
O51 C43 1.252 . S
In52 O53 2.294 . S
In52 O54 2.326 . S
In52 O58 2.266 . S
In52 O59 2.326 . S
In52 O60 2.266 . S
In52 O61 2.326 . S
In52 O63 2.294 . S
In52 O64 2.326 . S
O53 In52 2.294 . S
O53 C62 1.240 . S
O54 In52 2.326 . S
O54 C62 1.252 . S
C55 O58 1.252 . S
C55 O59 1.260 . S
C56 O63 1.240 . S
C56 O64 1.252 . S
C57 O60 1.252 . S
C57 O61 1.260 . S
O58 In52 2.266 . S
O58 C55 1.252 . S
O59 In52 2.326 . S
O59 C55 1.260 . S
O60 In52 2.266 . S
O60 C57 1.252 . S
O61 In52 2.326 . S
O61 C57 1.260 . S
C62 O53 1.240 . S
C62 O54 1.252 . S
O63 In52 2.294 . S
O63 C56 1.240 . S
O64 In52 2.326 . S
O64 C56 1.252 . S
In65 O66 2.294 . S
In65 O67 2.326 . S
In65 O71 2.266 . S
In65 O72 2.326 . S
In65 O73 2.266 . S
In65 O74 2.326 . S
In65 O76 2.294 . S
In65 O77 2.326 . S
O66 In65 2.294 . S
O66 C75 1.240 . S
O67 In65 2.326 . S
O67 C75 1.252 . S
C68 O71 1.252 . S
C68 O72 1.260 . S
C69 O76 1.240 . S
C69 O77 1.252 . S
C70 O73 1.252 . S
C70 O74 1.260 . S
O71 In65 2.266 . S
O71 C68 1.252 . S
O72 In65 2.326 . S
O72 C68 1.260 . S
O73 In65 2.266 . S
O73 C70 1.252 . S
O74 In65 2.326 . S
O74 C70 1.260 . S
C75 O66 1.240 . S
C75 O67 1.252 . S
O76 In65 2.294 . S
O76 C69 1.240 . S
O77 In65 2.326 . S
O77 C69 1.252 . S
In78 O79 2.294 . S
In78 O80 2.326 . S
In78 O84 2.266 . S
In78 O85 2.326 . S
In78 O86 2.266 . S
In78 O87 2.326 . S
In78 O89 2.294 . S
In78 O90 2.326 . S
O79 In78 2.294 . S
O79 C88 1.240 . S
O80 In78 2.326 . S
O80 C88 1.252 . S
C81 O84 1.252 . S
C81 O85 1.260 . S
C82 O89 1.240 . S
C82 O90 1.252 . S
C83 O86 1.252 . S
C83 O87 1.260 . S
O84 In78 2.266 . S
O84 C81 1.252 . S
O85 In78 2.326 . S
O85 C81 1.260 . S
O86 In78 2.266 . S
O86 C83 1.252 . S
O87 In78 2.326 . S
O87 C83 1.260 . S
C88 O79 1.240 . S
C88 O80 1.252 . S
O89 In78 2.294 . S
O89 C82 1.240 . S
O90 In78 2.326 . S
O90 C82 1.252 . S
In91 O92 2.294 . S
In91 O93 2.326 . S
In91 O97 2.266 . S
In91 O98 2.326 . S
In91 O99 2.266 . S
In91 O100 2.326 . S
In91 O102 2.294 . S
In91 O103 2.326 . S
O92 In91 2.294 . S
O92 C101 1.240 . S
O93 In91 2.326 . S
O93 C101 1.252 . S
C94 O97 1.252 . S
C94 O98 1.260 . S
C95 O102 1.240 . S
C95 O103 1.252 . S
C96 O99 1.252 . S
C96 O100 1.260 . S
O97 In91 2.266 . S
O97 C94 1.252 . S
O98 In91 2.326 . S
O98 C94 1.260 . S
O99 In91 2.266 . S
O99 C96 1.252 . S
O100 In91 2.326 . S
O100 C96 1.260 . S
C101 O92 1.240 . S
C101 O93 1.252 . S
O102 In91 2.294 . S
O102 C95 1.240 . S
O103 In91 2.326 . S
O103 C95 1.252 . S
In104 O105 2.294 . S
In104 O106 2.326 . S
In104 O110 2.266 . S
In104 O111 2.326 . S
In104 O112 2.266 . S
In104 O113 2.326 . S
In104 O115 2.294 . S
In104 O116 2.326 . S
O105 In104 2.294 . S
O105 C114 1.240 . S
O106 In104 2.326 . S
O106 C114 1.252 . S
C107 O110 1.252 . S
C107 O111 1.260 . S
C108 O115 1.240 . S
C108 O116 1.252 . S
C109 O112 1.252 . S
C109 O113 1.260 . S
O110 In104 2.266 . S
O110 C107 1.252 . S
O111 In104 2.326 . S
O111 C107 1.260 . S
O112 In104 2.266 . S
O112 C109 1.252 . S
O113 In104 2.326 . S
O113 C109 1.260 . S
C114 O105 1.240 . S
C114 O106 1.252 . S
O115 In104 2.294 . S
O115 C108 1.240 . S
O116 In104 2.326 . S
O116 C108 1.252 . S
In117 O118 2.294 . S
In117 O119 2.326 . S
In117 O123 2.266 . S
In117 O124 2.326 . S
In117 O125 2.266 . S
In117 O126 2.326 . S
In117 O128 2.294 . S
In117 O129 2.326 . S
O118 In117 2.294 . S
O118 C127 1.240 . S
O119 In117 2.326 . S
O119 C127 1.252 . S
C120 O123 1.252 . S
C120 O124 1.260 . S
C121 O128 1.240 . S
C121 O129 1.252 . S
C122 O125 1.252 . S
C122 O126 1.260 . S
O123 In117 2.266 . S
O123 C120 1.252 . S
O124 In117 2.326 . S
O124 C120 1.260 . S
O125 In117 2.266 . S
O125 C122 1.252 . S
O126 In117 2.326 . S
O126 C122 1.260 . S
C127 O118 1.240 . S
C127 O119 1.252 . S
O128 In117 2.294 . S
O128 C121 1.240 . S
O129 In117 2.326 . S
O129 C121 1.252 . S
In130 O131 2.294 . S
In130 O132 2.326 . S
In130 O136 2.266 . S
In130 O137 2.326 . S
In130 O138 2.266 . S
In130 O139 2.326 . S
In130 O141 2.294 . S
In130 O142 2.326 . S
O131 In130 2.294 . S
O131 C140 1.240 . S
O132 In130 2.326 . S
O132 C140 1.252 . S
C133 O136 1.252 . S
C133 O137 1.260 . S
C134 O141 1.240 . S
C134 O142 1.252 . S
C135 O138 1.252 . S
C135 O139 1.260 . S
O136 In130 2.266 . S
O136 C133 1.252 . S
O137 In130 2.326 . S
O137 C133 1.260 . S
O138 In130 2.266 . S
O138 C135 1.252 . S
O139 In130 2.326 . S
O139 C135 1.260 . S
C140 O131 1.240 . S
C140 O132 1.252 . S
O141 In130 2.294 . S
O141 C134 1.240 . S
O142 In130 2.326 . S
O142 C134 1.252 . S
In143 O144 2.294 . S
In143 O145 2.326 . S
In143 O149 2.266 . S
In143 O150 2.326 . S
In143 O151 2.266 . S
In143 O152 2.326 . S
In143 O154 2.294 . S
In143 O155 2.326 . S
O144 In143 2.294 . S
O144 C153 1.240 . S
O145 In143 2.326 . S
O145 C153 1.252 . S
C146 O149 1.252 . S
C146 O150 1.260 . S
C147 O154 1.240 . S
C147 O155 1.252 . S
C148 O151 1.252 . S
C148 O152 1.260 . S
O149 In143 2.266 . S
O149 C146 1.252 . S
O150 In143 2.326 . S
O150 C146 1.260 . S
O151 In143 2.266 . S
O151 C148 1.252 . S
O152 In143 2.326 . S
O152 C148 1.260 . S
C153 O144 1.240 . S
C153 O145 1.252 . S
O154 In143 2.294 . S
O154 C147 1.240 . S
O155 In143 2.326 . S
O155 C147 1.252 . S
In156 O157 2.294 . S
In156 O158 2.326 . S
In156 O162 2.266 . S
In156 O163 2.326 . S
In156 O164 2.266 . S
In156 O165 2.326 . S
In156 O167 2.294 . S
In156 O168 2.326 . S
O157 In156 2.294 . S
O157 C166 1.240 . S
O158 In156 2.326 . S
O158 C166 1.252 . S
C159 O162 1.252 . S
C159 O163 1.260 . S
C160 O167 1.240 . S
C160 O168 1.252 . S
C161 O164 1.252 . S
C161 O165 1.260 . S
O162 In156 2.266 . S
O162 C159 1.252 . S
O163 In156 2.326 . S
O163 C159 1.260 . S
O164 In156 2.266 . S
O164 C161 1.252 . S
O165 In156 2.326 . S
O165 C161 1.260 . S
C166 O157 1.240 . S
C166 O158 1.252 . S
O167 In156 2.294 . S
O167 C160 1.240 . S
O168 In156 2.326 . S
O168 C160 1.252 . S
In169 O170 2.294 . S
In169 O171 2.326 . S
In169 O175 2.266 . S
In169 O176 2.326 . S
In169 O177 2.266 . S
In169 O178 2.326 . S
In169 O180 2.294 . S
In169 O181 2.326 . S
O170 In169 2.294 . S
O170 C179 1.240 . S
O171 In169 2.326 . S
O171 C179 1.252 . S
C172 O175 1.252 . S
C172 O176 1.260 . S
C173 O180 1.240 . S
C173 O181 1.252 . S
C174 O177 1.252 . S
C174 O178 1.260 . S
O175 In169 2.266 . S
O175 C172 1.252 . S
O176 In169 2.326 . S
O176 C172 1.260 . S
O177 In169 2.266 . S
O177 C174 1.252 . S
O178 In169 2.326 . S
O178 C174 1.260 . S
C179 O170 1.240 . S
C179 O171 1.252 . S
O180 In169 2.294 . S
O180 C173 1.240 . S
O181 In169 2.326 . S
O181 C173 1.252 . S
In182 O183 2.294 . S
In182 O184 2.326 . S
In182 O188 2.266 . S
In182 O189 2.326 . S
In182 O190 2.266 . S
In182 O191 2.326 . S
In182 O193 2.294 . S
In182 O194 2.326 . S
O183 In182 2.294 . S
O183 C192 1.240 . S
O184 In182 2.326 . S
O184 C192 1.252 . S
C185 O188 1.252 . S
C185 O189 1.260 . S
C186 O193 1.240 . S
C186 O194 1.252 . S
C187 O190 1.252 . S
C187 O191 1.260 . S
O188 In182 2.266 . S
O188 C185 1.252 . S
O189 In182 2.326 . S
O189 C185 1.260 . S
O190 In182 2.266 . S
O190 C187 1.252 . S
O191 In182 2.326 . S
O191 C187 1.260 . S
C192 O183 1.240 . S
C192 O184 1.252 . S
O193 In182 2.294 . S
O193 C186 1.240 . S
O194 In182 2.326 . S
O194 C186 1.252 . S
In195 O196 2.294 . S
In195 O197 2.326 . S
In195 O201 2.266 . S
In195 O202 2.326 . S
In195 O203 2.266 . S
In195 O204 2.326 . S
In195 O206 2.294 . S
In195 O207 2.326 . S
O196 In195 2.294 . S
O196 C205 1.240 . S
O197 In195 2.326 . S
O197 C205 1.252 . S
C198 O201 1.252 . S
C198 O202 1.260 . S
C199 O206 1.240 . S
C199 O207 1.252 . S
C200 O203 1.252 . S
C200 O204 1.260 . S
O201 In195 2.266 . S
O201 C198 1.252 . S
O202 In195 2.326 . S
O202 C198 1.260 . S
O203 In195 2.266 . S
O203 C200 1.252 . S
O204 In195 2.326 . S
O204 C200 1.260 . S
C205 O196 1.240 . S
C205 O197 1.252 . S
O206 In195 2.294 . S
O206 C199 1.240 . S
O207 In195 2.326 . S
O207 C199 1.252 . S
C3 C172 1.460 . S
C18 C122 1.460 . S
C185 C29 1.665 . S
C42 C200 1.665 . S
C57 C81 1.460 . S
C135 C70 1.460 . S
C146 C94 1.665 . S
C109 C159 1.665 . S
C30 C5 1.888 1_565 S
C16 C43 1.888 . S
C161 C10 1.940 1_556 S
C17 C148 1.940 1_554 S
C56 C31 1.940 . S
C134 C44 1.940 . S
C23 C4 2.210 1_655 S
C49 C36 1.396 1_655 S
C140 C62 2.210 . S
C96 C75 1.815 1_545 S
C82 C107 1.815 . S
C205 C69 2.016 1_554 S
C88 C186 2.016 1_556 S
C121 C95 2.016 . S
C114 C179 2.016 . S
C83 C68 2.154 1_455 S
C108 C101 1.633 1_455 S
C120 C174 2.154 . S
C133 C147 1.888 . S
C160 C55 1.888 1_545 S
C166 C153 1.396 . S
C187 C173 1.815 . S
C127 C198 1.815 1_545 S
C199 C192 1.633 . S
