# Generated by pormake.
# Topology sma, (6)-cn, num edge types: 1
# Building blocks:
#     Node 0, Type 0, BuildingBlock: CUKXOW_clean_sbu_0, # of connection points: 6
#     Node 1, Type 0, BuildingBlock: CUKXOW_clean_sbu_0, # of connection points: 6
#     Node 2, Type 0, BuildingBlock: CUKXOW_clean_sbu_0, # of connection points: 6
#     Edge 3, Type (0, 0), BuildingBlock: EYOCIG_clean_linker_4, # of connection points: 2
#     Edge 4, Type (0, 0), BuildingBlock: EYOCIG_clean_linker_4, # of connection points: 2
#     Edge 5, Type (0, 0), BuildingBlock: EYOCIG_clean_linker_4, # of connection points: 2
#     Edge 6, Type (0, 0), BuildingBlock: EYOCIG_clean_linker_4, # of connection points: 2
#     Edge 7, Type (0, 0), BuildingBlock: EYOCIG_clean_linker_4, # of connection points: 2
#     Edge 8, Type (0, 0), BuildingBlock: EYOCIG_clean_linker_4, # of connection points: 2
#     Edge 9, Type (0, 0), BuildingBlock: EYOCIG_clean_linker_4, # of connection points: 2
#     Edge 10, Type (0, 0), BuildingBlock: EYOCIG_clean_linker_4, # of connection points: 2
#     Edge 11, Type (0, 0), BuildingBlock: EYOCIG_clean_linker_4, # of connection points: 2
# Relax obj value: 0.152
# Max RMSD: 0.243
# Mean RMSD: 0.233
data_MOF--net-sma--node1-CUKXOW_clean_sbu_0--edge1-EYOCIG_clean_linker_4
_symmetry_space_group_name_H-M    P1
_symmetry_Int_Tables_number       1
_symmetry_cell_setting            triclinic
loop_
_symmetry_equiv_pos_as_xyz
'x, y, z'
_cell_length_a     24.380933
_cell_length_b     21.345148
_cell_length_c     11.756683
_cell_angle_alpha  97.890604
_cell_angle_beta   90.393266
_cell_angle_gamma 106.47066
loop_
_atom_site_label
_atom_site_type_symbol
_atom_site_fract_x
_atom_site_fract_y
_atom_site_fract_z
_atom_type_partial_charge
Tb0 Tb 0.10564 0.62699 0.08856 0.0
C1 C 0.06243 0.57692 0.31425 0.0
Tb2 Tb 1.02873 0.48173 0.07625 0.0
O3 O 1.03942 0.65837 0.00663 0.0
O4 O 1.0176 0.57786 0.09981 0.0
O5 O 0.08338 0.62993 0.26512 0.0
C6 C 0.94456 0.37958 0.1264 0.0
O7 O 1.04251 0.51628 0.25895 0.0
C8 C 0.13762 0.49667 0.03981 0.0
C9 C 0.06711 0.5407 0.85351 0.0
O10 O 0.99878 0.38921 0.148 0.0
O11 O 0.93761 0.42562 0.07071 0.0
O12 O 0.09714 0.44385 -0.00231 0.0
O13 O 0.11579 0.53386 0.10557 0.0
O14 O 1.02497 0.49903 0.89977 0.0
O15 O 0.11042 0.58607 0.9123 0.0
C16 C 0.19747 0.72754 0.15252 0.0
O17 O 0.15295 0.73157 0.09607 0.0
O18 O 0.19102 0.66745 0.16955 0.0
C19 C 0.99834 0.60931 0.03295 0.0
Tb20 Tb 0.52084 1.03241 0.49053 0.0
C21 C 0.56628 0.06853 0.25551 0.0
Tb22 Tb 0.64987 0.09998 0.47768 0.0
O23 O 0.5048 0.12116 0.58175 0.0
O24 O 0.57308 0.12813 0.47144 0.0
O25 O 0.52013 0.05091 0.31473 0.0
C26 C 0.74652 0.17921 0.41148 0.0
O27 O 0.61919 0.0849 0.29965 0.0
C28 C 0.62345 0.97639 0.51629 0.0
C29 C 0.59673 0.08147 0.71321 0.0
O30 O 0.72799 0.1158 0.3812 0.0
O31 O 0.71241 0.19784 0.48464 0.0
O32 O 0.67241 1.01964 0.54857 0.0
O33 O 0.59513 1.002 0.45565 0.0
O34 O 0.63653 0.12165 0.65935 0.0
O35 O 0.554 1.03251 0.66072 0.0
C36 C 0.42172 0.94 0.44289 0.0
O37 O 0.42858 0.99523 0.51052 0.0
O38 O 0.47048 0.93585 0.40563 0.0
C39 C 0.55037 0.16034 0.54573 0.0
Tb40 Tb 0.50394 0.5679 0.75589 0.0
C41 C 0.56921 0.57345 -0.01156 0.0
Tb42 Tb 0.636 0.59606 0.76367 0.0
O43 O 0.49111 0.4664 0.67069 0.0
O44 O 0.56399 0.51426 0.77692 0.0
O45 O 0.5194 0.56156 0.93333 0.0
C46 C 0.74261 0.59199 0.8056 0.0
O47 O 0.61925 0.58871 0.94163 0.0
C48 C 0.60188 0.6966 0.71795 0.0
C49 C 0.56623 0.56663 0.53303 0.0
O50 O 0.71795 0.63204 0.86243 0.0
O51 O 0.70798 0.55497 0.72239 0.0
O52 O 0.65118 0.68819 0.69263 0.0
O53 O 0.57697 0.65441 0.78169 0.0
O54 O 0.61013 0.55662 0.5869 0.0
O55 O 0.52444 0.58618 0.58418 0.0
C56 C 0.39681 0.56872 0.80954 0.0
O57 O 0.41041 0.52378 0.73946 0.0
O58 O 0.44326 0.61527 0.84459 0.0
C59 C 0.54039 0.46315 0.70704 0.0
C60 C 0.241 0.53233 -0.04575 0.0
C61 C 0.19405 0.5168 -0.00591 0.0
C62 C 0.2954 0.54884 0.90399 0.0
C63 C 0.34208 0.55937 0.86261 0.0
C64 C 0.82472 0.25752 0.29783 0.0
C65 C 0.78891 0.2228 0.35087 0.0
C66 C 0.86485 0.29846 0.23244 0.0
C67 C 0.90003 0.33603 0.18265 0.0
C68 C 0.59068 0.86101 0.59744 0.0
C69 C 0.60285 0.91273 0.55739 0.0
C70 C 0.58289 0.80148 0.64701 0.0
C71 C 0.58459 0.75202 0.68619 0.0
C72 C 0.84214 0.58268 0.88115 0.0
C73 C 0.79665 0.5841 0.8415 0.0
C74 C 0.89472 0.58505 0.9366 0.0
C75 C 0.94064 0.59231 -0.01551 0.0
C76 C 0.32652 0.8638 0.33661 0.0
C77 C 0.36842 0.90036 0.38882 0.0
C78 C 0.28039 0.8216 0.26648 0.0
C79 C 0.24114 0.782 0.21096 0.0
C80 C 0.5705 0.35406 0.64812 0.0
C81 C 0.56078 0.40597 0.68021 0.0
C82 C 0.57237 0.28905 0.60746 0.0
C83 C 0.56598 0.23116 0.57408 0.0
C84 C 0.0622 0.55708 0.64084 0.0
C85 C 0.06112 0.54585 0.73692 0.0
C86 C 0.06406 0.57501 0.5322 0.0
C87 C 0.06552 0.58316 0.43442 0.0
C88 C 0.56776 0.08555 0.04264 0.0
C89 C 0.56038 0.07563 0.13924 0.0
C90 C 0.58422 0.09433 0.93195 0.0
C91 C 0.59524 0.09413 0.83355 0.0
C92 C 0.56358 0.54694 0.31238 0.0
C93 C 0.5645 0.55608 0.41363 0.0
C94 C 0.56582 0.54952 0.19686 0.0
C95 C 0.56827 0.56074 0.10131 0.0
loop_
_geom_bond_atom_site_label_1
_geom_bond_atom_site_label_2
_geom_bond_distance
_geom_bond_site_symmetry_2
_ccdc_geom_bond_type
Tb0 O3 2.453 1_455 S
Tb0 O4 2.596 1_455 S
Tb0 O5 2.374 . S
Tb0 O13 2.343 . S
Tb0 O15 2.353 1_554 S
Tb0 O17 2.427 . S
Tb0 O18 2.513 . S
C1 O5 1.251 . S
C1 O7 1.263 . S
Tb2 O4 2.343 . S
Tb2 O7 2.353 1_655 S
Tb2 O10 2.427 . S
Tb2 O11 2.513 . S
Tb2 O12 2.453 1_655 S
Tb2 O13 2.596 1_655 S
Tb2 O14 2.374 1_554 S
O3 Tb0 2.453 1_655 S
O3 C19 1.245 . S
O4 Tb0 2.596 1_655 S
O4 Tb2 2.343 . S
O4 C19 1.259 . S
O5 Tb0 2.374 . S
O5 C1 1.251 . S
C6 O10 1.275 . S
C6 O11 1.246 . S
O7 C1 1.263 . S
O7 Tb2 2.353 1_455 S
C8 O12 1.245 . S
C8 O13 1.259 . S
C9 O14 1.250 1_455 S
C9 O15 1.263 . S
O10 Tb2 2.427 . S
O10 C6 1.275 . S
O11 Tb2 2.513 . S
O11 C6 1.246 . S
O12 Tb2 2.453 1_455 S
O12 C8 1.245 . S
O13 Tb0 2.343 . S
O13 Tb2 2.596 1_455 S
O13 C8 1.259 . S
O14 Tb2 2.374 1_556 S
O14 C9 1.250 1_655 S
O15 Tb0 2.353 1_556 S
O15 C9 1.263 . S
C16 O17 1.275 . S
C16 O18 1.246 . S
O17 Tb0 2.427 . S
O17 C16 1.275 . S
O18 Tb0 2.513 . S
O18 C16 1.246 . S
C19 O3 1.245 . S
C19 O4 1.259 . S
Tb20 O23 2.453 1_565 S
Tb20 O24 2.596 1_565 S
Tb20 O25 2.374 . S
Tb20 O33 2.343 . S
Tb20 O35 2.353 1_565 S
Tb20 O37 2.427 . S
Tb20 O38 2.513 . S
C21 O25 1.251 1_545 S
C21 O27 1.263 . S
Tb22 O24 2.343 . S
Tb22 O27 2.353 . S
Tb22 O30 2.427 . S
Tb22 O31 2.513 . S
Tb22 O32 2.453 1_545 S
Tb22 O33 2.596 1_545 S
Tb22 O34 2.374 . S
O23 Tb20 2.453 1_545 S
O23 C39 1.245 . S
O24 Tb20 2.596 1_545 S
O24 Tb22 2.343 . S
O24 C39 1.259 . S
O25 Tb20 2.374 . S
O25 C21 1.251 1_565 S
C26 O30 1.275 . S
C26 O31 1.246 . S
O27 C21 1.263 . S
O27 Tb22 2.353 . S
C28 O32 1.245 . S
C28 O33 1.259 . S
C29 O34 1.250 . S
C29 O35 1.263 . S
O30 Tb22 2.427 . S
O30 C26 1.275 . S
O31 Tb22 2.513 . S
O31 C26 1.246 . S
O32 Tb22 2.453 1_565 S
O32 C28 1.245 . S
O33 Tb20 2.343 . S
O33 Tb22 2.596 1_565 S
O33 C28 1.259 . S
O34 Tb22 2.374 . S
O34 C29 1.250 . S
O35 Tb20 2.353 1_545 S
O35 C29 1.263 . S
C36 O37 1.275 . S
C36 O38 1.246 . S
O37 Tb20 2.427 . S
O37 C36 1.275 . S
O38 Tb20 2.513 . S
O38 C36 1.246 . S
C39 O23 1.245 . S
C39 O24 1.259 . S
Tb40 O43 2.453 . S
Tb40 O44 2.596 . S
Tb40 O45 2.374 1_556 S
Tb40 O53 2.343 . S
Tb40 O55 2.353 . S
Tb40 O57 2.427 . S
Tb40 O58 2.513 . S
C41 O45 1.251 . S
C41 O47 1.263 . S
Tb42 O44 2.343 . S
Tb42 O47 2.353 1_556 S
Tb42 O50 2.427 . S
Tb42 O51 2.513 . S
Tb42 O52 2.453 . S
Tb42 O53 2.596 . S
Tb42 O54 2.374 . S
O43 Tb40 2.453 . S
O43 C59 1.245 . S
O44 Tb40 2.596 . S
O44 Tb42 2.343 . S
O44 C59 1.259 . S
O45 Tb40 2.374 1_554 S
O45 C41 1.251 . S
C46 O50 1.275 . S
C46 O51 1.246 . S
O47 C41 1.263 . S
O47 Tb42 2.353 1_554 S
C48 O52 1.245 . S
C48 O53 1.259 . S
C49 O54 1.250 . S
C49 O55 1.263 . S
O50 Tb42 2.427 . S
O50 C46 1.275 . S
O51 Tb42 2.513 . S
O51 C46 1.246 . S
O52 Tb42 2.453 . S
O52 C48 1.245 . S
O53 Tb40 2.343 . S
O53 Tb42 2.596 . S
O53 C48 1.259 . S
O54 Tb42 2.374 . S
O54 C49 1.250 . S
O55 Tb40 2.353 . S
O55 C49 1.263 . S
C56 O57 1.275 . S
C56 O58 1.246 . S
O57 Tb40 2.427 . S
O57 C56 1.275 . S
O58 Tb40 2.513 . S
O58 C56 1.246 . S
C59 O43 1.245 . S
C59 O44 1.259 . S
C60 C61 1.170 . S
C60 C62 1.380 1_554 S
C61 C60 1.170 . S
C62 C60 1.380 1_556 S
C62 C63 1.170 . S
C63 C62 1.170 . S
C64 C65 1.170 . S
C64 C66 1.380 . S
C65 C64 1.170 . S
C66 C64 1.380 . S
C66 C67 1.170 . S
C67 C66 1.170 . S
C68 C69 1.170 . S
C68 C70 1.380 . S
C69 C68 1.170 . S
C70 C68 1.380 . S
C70 C71 1.170 . S
C71 C70 1.170 . S
C72 C73 1.170 . S
C72 C74 1.380 1_556 S
C73 C72 1.170 . S
C74 C72 1.380 1_554 S
C74 C75 1.170 . S
C75 C74 1.170 . S
C76 C77 1.170 . S
C76 C78 1.380 . S
C77 C76 1.170 . S
C78 C76 1.380 . S
C78 C79 1.170 . S
C79 C78 1.170 . S
C80 C81 1.170 . S
C80 C82 1.380 . S
C81 C80 1.170 . S
C82 C80 1.380 . S
C82 C83 1.170 . S
C83 C82 1.170 . S
C84 C85 1.170 . S
C84 C86 1.380 . S
C85 C84 1.170 . S
C86 C84 1.380 . S
C86 C87 1.170 . S
C87 C86 1.170 . S
C88 C89 1.170 . S
C88 C90 1.380 1_554 S
C89 C88 1.170 . S
C90 C88 1.380 1_556 S
C90 C91 1.170 . S
C91 C90 1.170 . S
C92 C93 1.170 . S
C92 C94 1.380 . S
C93 C92 1.170 . S
C94 C92 1.380 . S
C94 C95 1.170 . S
C95 C94 1.170 . S
C61 C8 2.049 . S
C63 C56 1.864 . S
C65 C26 2.057 . S
C67 C6 2.057 . S
C69 C28 2.225 . S
C71 C48 2.152 . S
C73 C46 2.027 . S
C75 C19 1.873 . S
C77 C36 1.508 . S
C79 C16 1.563 . S
C81 C59 1.924 . S
C83 C39 1.914 . S
C85 C9 0.790 . S
C87 C1 0.712 . S
C89 C21 0.730 . S
C91 C29 0.684 . S
C93 C49 0.686 . S
C95 C41 0.746 . S
