# Generated by pormake.
# Topology pcu, (6)-cn, num edge types: 1
# Building blocks:
#     Node 0, Type 0, BuildingBlock: KUMJIN_clean_sbu_1, # of connection points: 6
#     Edge 1, Type (0, 0), BuildingBlock: FUNLAD_clean_linker_0, # of connection points: 2
#     Edge 2, Type (0, 0), BuildingBlock: FUNLAD_clean_linker_0, # of connection points: 2
#     Edge 3, Type (0, 0), BuildingBlock: FUNLAD_clean_linker_0, # of connection points: 2
# Relax obj value: 0.000
# Max RMSD: 0.000
# Mean RMSD: 0.000
data_MOF--net-pcu--node1-KUMJIN_clean_sbu_1--edge1-FUNLAD_clean_linker_0
_symmetry_space_group_name_H-M    P1
_symmetry_Int_Tables_number       1
_symmetry_cell_setting            triclinic
loop_
_symmetry_equiv_pos_as_xyz
'x, y, z'
_cell_length_a     17.467892
_cell_length_b     26.898571
_cell_length_c     17.537404
_cell_angle_alpha  114.3592
_cell_angle_beta   89.514765
_cell_angle_gamma 115.42611
loop_
_atom_site_label
_atom_site_type_symbol
_atom_site_fract_x
_atom_site_fract_y
_atom_site_fract_z
_atom_type_partial_charge
Eu0 Eu 0.96831 0.92437 0.93409 0.0
C1 C 0.28671 0.18721 0.16995 0.0
N2 N 0.20429 0.16428 0.1827 0.0
C3 C 0.25712 0.20503 0.33231 0.0
C4 C 0.35804 0.21944 0.23855 0.0
C5 C 0.18846 0.17323 0.26233 0.0
C6 C 0.34229 0.22809 0.32037 0.0
C7 C 0.38468 0.19938 0.07227 0.0
C8 C 0.29986 0.1772 0.08757 0.0
C9 C 0.45579 0.23156 0.14052 0.0
C10 C 0.44252 0.24156 0.22337 0.0
Eu11 Eu 0.09303 0.11055 0.06084 0.0
N12 N 0.22971 0.144 0.02206 0.0
C13 C 0.39555 0.18821 0.98864 0.0
C14 C 0.24006 0.13522 0.9411 0.0
C15 C 0.32292 0.15645 0.92296 0.0
H16 H 0.12281 0.15683 0.2721 0.0
H17 H 0.33072 0.14865 0.85837 0.0
H18 H 0.89558 0.89068 0.73443 0.0
H19 H 0.78656 0.87289 0.1717 0.0
H20 H 0.18505 0.11259 0.89033 0.0
H21 H 0.45965 0.20442 0.97426 0.0
H22 H 0.91511 0.90237 0.10921 0.0
H23 H 0.24432 0.21198 0.39543 0.0
H24 H 0.52138 0.24876 0.12986 0.0
H25 H 0.49808 0.26633 0.27529 0.0
H26 H 0.75585 0.84666 0.63888 0.0
H27 H 0.39537 0.25262 0.37471 0.0
H28 H 0.64288 0.83714 0.0904 0.0
N29 N 0.83807 0.88157 0.83817 0.0
C30 C 0.76366 0.86146 0.86702 0.0
C31 C 0.75719 0.85079 0.70297 0.0
C32 C 0.68257 0.83622 0.81483 0.0
C33 C 0.83615 0.87598 0.75722 0.0
C34 C 0.68008 0.83105 0.73198 0.0
N35 N 0.84842 0.89283 -0.0009 0.0
C36 C 0.85449 0.8914 0.07562 0.0
C37 C 0.69286 0.84814 0.98185 0.0
C38 C 0.76909 0.8681 0.9501 0.0
C39 C 0.69987 0.85205 0.06375 0.0
C40 C 0.7809 0.87265 0.11011 0.0
H41 H 0.61903 0.81192 0.68996 0.0
H42 H 0.54409 0.79862 0.80822 0.0
H43 H 0.55299 0.8086 0.9541 0.0
O44 O 0.98076 0.85113 0.9511 0.0
O45 O 0.89715 0.97893 0.93731 0.0
O46 O 0.95407 0.0607 0.07087 0.0
O47 O 0.95035 0.84062 0.82299 0.0
O48 O 0.03741 0.97117 0.07347 0.0
O49 O 0.02332 0.06012 0.1362 0.0
O50 O 0.07968 0.17275 0.01832 0.0
O51 O 0.17207 0.06028 0.05228 0.0
O52 O 0.10794 0.97213 0.92434 0.0
O53 O 0.10286 0.19874 0.15337 0.0
O54 O 0.03444 0.06569 0.91904 0.0
O55 O 0.03501 0.97139 0.85387 0.0
C56 C 0.88929 0.02041 0.00536 0.0
C57 C 0.96244 0.75571 0.82945 0.0
C58 C 0.97321 0.67131 0.84126 0.0
C59 C 0.96479 0.64198 0.75206 0.0
C60 C 0.95371 0.72518 0.7404 0.0
C61 C 0.95484 0.66872 0.70216 0.0
C62 C 0.97151 0.72826 0.87972 0.0
C63 C 0.03502 0.01632 0.14125 0.0
C64 C 0.96472 0.81678 0.86885 0.0
C65 C 0.60693 0.81775 0.84718 0.0
C66 C 0.61206 0.82371 0.93042 0.0
C67 C 0.17493 0.01435 0.98704 0.0
C68 C 0.0197 0.23424 0.10553 0.0
C69 C 0.96803 0.30165 0.09046 0.0
C70 C 0.89476 0.27539 0.12211 0.0
C71 C 0.94601 0.20846 0.13659 0.0
C72 C 0.03037 0.28065 0.08252 0.0
C73 C 0.88392 0.22903 0.14479 0.0
C74 C 0.03199 0.01863 0.85086 0.0
C75 C 0.08538 0.2127 0.09521 0.0
H76 H 0.96479 0.59784 0.72068 0.0
H77 H 0.94674 0.74517 0.70012 0.0
H78 H 0.94816 0.64562 0.63353 0.0
H79 H 0.97873 0.75149 0.94851 0.0
H80 H 0.84505 0.28989 0.12789 0.0
H81 H 0.9366 0.17254 0.15446 0.0
H82 H 0.08766 0.30066 0.05896 0.0
H83 H 0.82699 0.20876 0.16844 0.0
C84 C 1.01259 0.05005 0.292 0.0
C85 C 0.04144 0.01593 0.22509 0.0
C86 C 0.01714 0.04885 0.37068 0.0
C87 C 0.04967 1.01266 0.38389 0.0
C88 C 0.07934 0.97915 0.31709 0.0
C89 C 0.07508 0.98057 0.23853 0.0
C90 C 0.05555 1.00942 0.4663 0.0
C91 C 1.01085 0.02595 0.52649 0.0
C92 C 0.01792 0.02315 0.60888 0.0
C93 C 0.99994 0.06304 0.67944 0.0
C94 C 1.00509 0.0618 0.758 0.0
C95 C 0.02714 0.01989 0.76747 0.0
H96 H 0.05105 0.94795 0.56453 0.0
C97 C 0.04395 0.97925 0.69657 0.0
C98 C 0.03937 0.98079 0.61803 0.0
H99 H 0.06069 0.94618 0.70163 0.0
H100 H 0.9859 0.07753 0.28354 0.0
H101 H 0.99594 0.077 0.42067 0.0
H102 H 0.1054 0.9513 0.32544 0.0
H103 H 0.09816 0.95392 0.1883 0.0
H104 H 0.09834 0.99225 0.47708 0.0
H105 H 0.96836 0.04359 0.5169 0.0
H106 H 0.98243 0.09569 0.674 0.0
H107 H 0.99103 0.09344 0.81109 0.0
C108 C 0.32696 0.04948 0.0529 0.0
C109 C 0.2587 1.01316 0.981 0.0
C110 C 0.40659 0.04917 0.04693 0.0
C111 C 0.41937 1.01192 0.96891 0.0
C112 C 0.35139 0.97613 0.89697 0.0
C113 C 0.27173 0.97639 0.90297 0.0
C114 C 0.50316 1.01049 0.95939 0.0
C115 C 0.55912 0.02215 0.02454 0.0
C116 C 0.64342 0.021 0.01664 0.0
C117 C 0.70468 0.04827 0.09184 0.0
C118 C 0.78457 0.04823 0.08821 0.0
C119 C 0.80505 0.02081 0.00914 0.0
H120 H 0.61821 0.96968 0.87769 0.0
C121 C 0.74397 0.99327 0.93382 0.0
C122 C 0.66375 0.99283 0.93735 0.0
H123 H 0.75825 0.97217 0.87189 0.0
H124 H 0.31902 0.07822 0.11403 0.0
H125 H 0.4581 0.079 0.10324 0.0
H126 H 0.35972 0.94749 0.83592 0.0
H127 H 0.2207 0.9482 0.84617 0.0
H128 H 0.51735 0.99814 0.89584 0.0
H129 H 0.54314 0.03355 0.08746 0.0
H130 H 0.69083 0.06989 0.15385 0.0
H131 H 0.82996 0.06922 0.14748 0.0
C132 C 0.04032 0.61614 0.87761 0.0
C133 C 0.98286 0.64144 0.89273 0.0
C134 C 0.04332 0.58216 0.91891 0.0
C135 C 0.98779 0.57181 0.97551 0.0
C136 C 0.9338 0.60004 -0.00586 0.0
C137 C 0.93126 0.63449 0.95316 0.0
C138 C 0.98346 0.53121 0.01491 0.0
C139 C 1.00432 0.48483 0.97836 0.0
C140 C 0.99583 0.43996 0.01129 0.0
C141 C 0.01595 0.39228 0.96252 0.0
C142 C 1.00751 0.34787 0.98845 0.0
C143 C 0.97857 0.34983 0.06408 0.0
H144 H 0.95227 0.47826 0.12836 0.0
C145 C 0.95902 0.39769 0.11358 0.0
C146 C 0.96777 0.44239 0.0878 0.0
H147 H 0.93764 0.40094 0.17283 0.0
H148 H 0.08246 0.62211 0.83294 0.0
H149 H 0.08903 0.56396 0.90576 0.0
H150 H 0.89126 0.5937 0.0384 0.0
H151 H 0.88644 0.65356 0.96616 0.0
H152 H 0.95715 0.53779 0.07237 0.0
H153 H 0.02582 0.47715 0.91818 0.0
H154 H 0.03769 0.3889 0.90335 0.0
H155 H 0.02216 0.31126 0.94824 0.0
loop_
_geom_bond_atom_site_label_1
_geom_bond_atom_site_label_2
_geom_bond_distance
_geom_bond_site_symmetry_2
_ccdc_geom_bond_type
Eu0 N29 2.600 . S
Eu0 N35 2.562 . S
Eu0 O44 2.462 . S
Eu0 O45 2.373 . S
Eu0 O47 2.432 . S
Eu0 O48 2.291 1_556 S
Eu0 O52 2.335 1_655 S
Eu0 O55 2.372 . S
Eu0 C64 2.787 . S
C1 N2 1.365 . S
C1 C4 1.405 . S
C1 C8 1.448 . S
N2 C1 1.365 . S
N2 C5 1.319 . S
N2 Eu11 2.600 . S
C3 C5 1.397 . S
C3 C6 1.367 . S
C3 H23 0.931 . S
C4 C1 1.405 . S
C4 C6 1.403 . S
C4 C10 1.439 . S
C5 N2 1.319 . S
C5 C3 1.397 . S
C5 H16 0.930 . S
C6 C3 1.367 . S
C6 C4 1.403 . S
C6 H27 0.929 . S
C7 C8 1.430 . S
C7 C9 1.387 . S
C7 C13 1.404 . S
C8 C1 1.448 . S
C8 C7 1.430 . S
C8 N12 1.351 . S
C9 C7 1.387 . S
C9 C10 1.374 . S
C9 H24 0.931 . S
C10 C4 1.439 . S
C10 C9 1.374 . S
C10 H25 0.931 . S
Eu11 N2 2.600 . S
Eu11 N12 2.562 . S
Eu11 O46 2.335 1_455 S
Eu11 O49 2.372 . S
Eu11 O50 2.462 . S
Eu11 O51 2.373 . S
Eu11 O53 2.432 . S
Eu11 O54 2.291 1_554 S
Eu11 C75 2.787 . S
N12 C8 1.351 . S
N12 Eu11 2.562 . S
N12 C14 1.325 1_554 S
C13 C7 1.404 . S
C13 C15 1.366 1_554 S
C13 H21 0.930 1_554 S
C14 N12 1.325 1_556 S
C14 C15 1.416 . S
C14 H20 0.929 . S
C15 C13 1.366 1_556 S
C15 C14 1.416 . S
C15 H17 0.930 . S
H16 C5 0.930 . S
H17 C15 0.930 . S
H18 C33 0.930 . S
H19 C40 0.930 . S
H20 C14 0.929 . S
H21 C13 0.930 1_556 S
H22 C36 0.929 . S
H23 C3 0.931 . S
H24 C9 0.931 . S
H25 C10 0.931 . S
H26 C31 0.931 . S
H27 C6 0.929 . S
H28 C39 0.930 1_554 S
N29 Eu0 2.600 . S
N29 C30 1.365 . S
N29 C33 1.319 . S
C30 N29 1.365 . S
C30 C32 1.405 . S
C30 C38 1.448 . S
C31 H26 0.931 . S
C31 C33 1.397 . S
C31 C34 1.367 . S
C32 C30 1.405 . S
C32 C34 1.403 . S
C32 C65 1.439 . S
C33 H18 0.930 . S
C33 N29 1.319 . S
C33 C31 1.397 . S
C34 C31 1.367 . S
C34 C32 1.403 . S
C34 H41 0.929 . S
N35 Eu0 2.562 . S
N35 C36 1.325 1_556 S
N35 C38 1.351 . S
C36 H22 0.929 . S
C36 N35 1.325 1_554 S
C36 C40 1.416 . S
C37 C38 1.430 . S
C37 C39 1.404 . S
C37 C66 1.387 . S
C38 C30 1.448 . S
C38 N35 1.351 . S
C38 C37 1.430 . S
C39 H28 0.930 1_556 S
C39 C37 1.404 . S
C39 C40 1.366 1_556 S
C40 H19 0.930 . S
C40 C36 1.416 . S
C40 C39 1.366 1_554 S
H41 C34 0.929 . S
H42 C65 0.931 . S
H43 C66 0.931 . S
O44 Eu0 2.462 . S
O44 C64 1.252 . S
O45 Eu0 2.373 . S
O45 C56 1.247 . S
O46 Eu11 2.335 1_655 S
O46 C56 1.264 1_544 S
O47 Eu0 2.432 . S
O47 C64 1.268 . S
O48 Eu0 2.291 1_554 S
O48 C63 1.255 1_565 S
O49 Eu11 2.372 . S
O49 C63 1.257 1_455 S
O50 Eu11 2.462 . S
O50 C75 1.252 . S
O51 Eu11 2.373 . S
O51 C67 1.252 . S
O52 Eu0 2.335 1_455 S
O52 C67 1.262 1_566 S
O53 Eu11 2.432 . S
O53 C75 1.268 . S
O54 Eu11 2.291 1_556 S
O54 C74 1.255 1_545 S
O55 Eu0 2.372 . S
O55 C74 1.257 1_655 S
C56 O45 1.247 . S
C56 O46 1.264 1_566 S
C57 C60 1.382 . S
C57 C62 1.390 . S
C57 C64 1.506 . S
C58 C59 1.398 . S
C58 C62 1.392 . S
C59 C58 1.398 . S
C59 C61 1.372 . S
C59 H76 0.931 . S
C60 C57 1.382 . S
C60 C61 1.390 . S
C60 H77 0.931 . S
C61 C59 1.372 . S
C61 C60 1.390 . S
C61 H78 0.929 . S
C62 C57 1.390 . S
C62 C58 1.392 . S
C62 H79 0.930 1_556 S
C63 O48 1.255 1_545 S
C63 O49 1.257 1_655 S
C64 Eu0 2.787 . S
C64 O44 1.252 . S
C64 O47 1.268 . S
C64 C57 1.506 . S
C65 C32 1.439 . S
C65 H42 0.931 . S
C65 C66 1.374 . S
C66 C37 1.387 . S
C66 H43 0.931 . S
C66 C65 1.374 . S
C67 O51 1.252 . S
C67 O52 1.262 1_544 S
C68 C71 1.382 . S
C68 C72 1.390 . S
C68 C75 1.506 . S
C69 C70 1.398 . S
C69 C72 1.392 . S
C70 C69 1.398 . S
C70 C73 1.372 . S
C70 H80 0.931 . S
C71 C68 1.382 . S
C71 C73 1.390 . S
C71 H81 0.931 . S
C72 C68 1.390 . S
C72 C69 1.392 . S
C72 H82 0.930 1_554 S
C73 C70 1.372 . S
C73 C71 1.390 . S
C73 H83 0.929 . S
C74 O54 1.255 1_565 S
C74 O55 1.257 1_455 S
C75 Eu11 2.787 . S
C75 O50 1.252 . S
C75 O53 1.268 . S
C75 C68 1.506 . S
H76 C59 0.931 . S
H77 C60 0.931 . S
H78 C61 0.929 . S
H79 C62 0.930 1_554 S
H80 C70 0.931 . S
H81 C71 0.931 . S
H82 C72 0.930 1_556 S
H83 C73 0.929 . S
C84 C85 1.386 1_655 S
C84 C86 1.383 . S
C84 H100 0.951 . S
C85 C84 1.386 1_455 S
C85 C89 1.383 . S
C86 C84 1.383 . S
C86 C87 1.402 1_655 S
C86 H101 0.951 . S
C87 C86 1.402 1_455 S
C87 C88 1.375 . S
C87 C90 1.481 . S
C88 C87 1.375 . S
C88 C89 1.367 . S
C88 H102 0.951 . S
C89 C85 1.383 . S
C89 C88 1.367 . S
C89 H103 0.950 . S
C90 C87 1.481 . S
C90 C91 1.297 1_455 S
C90 H104 0.950 . S
C91 C90 1.297 1_655 S
C91 C92 1.479 . S
C91 H105 0.950 . S
C92 C91 1.479 . S
C92 C93 1.375 . S
C92 C98 1.404 1_655 S
C93 C92 1.375 . S
C93 C94 1.369 . S
C93 H106 0.950 . S
C94 C93 1.369 . S
C94 C95 1.392 . S
C94 H107 0.951 . S
C95 C94 1.392 . S
C95 C97 1.384 1_655 S
H96 C98 0.949 . S
C97 C95 1.384 1_455 S
C97 C98 1.385 . S
C97 H99 0.950 . S
C98 C92 1.404 1_455 S
C98 H96 0.949 . S
C98 C97 1.385 . S
H99 C97 0.950 . S
H100 C84 0.951 . S
H101 C86 0.951 . S
H102 C88 0.951 . S
H103 C89 0.950 . S
H104 C90 0.950 . S
H105 C91 0.950 . S
H106 C93 0.950 . S
H107 C94 0.951 . S
C108 C109 1.386 1_544 S
C108 C110 1.383 . S
C108 H124 0.951 . S
C109 C108 1.386 1_566 S
C109 C113 1.383 . S
C110 C108 1.383 . S
C110 C111 1.402 1_544 S
C110 H125 0.951 . S
C111 C110 1.402 1_566 S
C111 C112 1.375 . S
C111 C114 1.481 . S
C112 C111 1.375 . S
C112 C113 1.367 . S
C112 H126 0.951 . S
C113 C109 1.383 . S
C113 C112 1.367 . S
C113 H127 0.950 . S
C114 C111 1.481 . S
C114 C115 1.297 1_556 S
C114 H128 0.950 . S
C115 C114 1.297 1_554 S
C115 C116 1.485 . S
C115 H129 0.945 1_565 S
C116 C115 1.485 . S
C116 C117 1.375 1_565 S
C116 C122 1.404 1_554 S
C117 C116 1.375 1_545 S
C117 C118 1.369 . S
C117 H130 0.950 . S
C118 C117 1.369 . S
C118 C119 1.392 1_545 S
C118 H131 0.951 . S
C119 C118 1.392 1_565 S
C119 C121 1.384 1_554 S
H120 C122 0.949 . S
C121 C119 1.384 1_556 S
C121 C122 1.385 . S
C121 H123 0.950 . S
C122 C116 1.404 1_556 S
C122 H120 0.949 . S
C122 C121 1.385 . S
H123 C121 0.950 . S
H124 C108 0.951 . S
H125 C110 0.951 . S
H126 C112 0.951 . S
H127 C113 0.950 . S
H128 C114 0.950 . S
H129 C115 0.945 1_545 S
H130 C117 0.950 . S
H131 C118 0.951 . S
C132 C133 1.386 1_556 S
C132 C134 1.383 . S
C132 H148 0.951 . S
C133 C132 1.386 1_554 S
C133 C137 1.383 . S
C134 C132 1.383 . S
C134 C135 1.402 1_556 S
C134 H149 0.951 . S
C135 C134 1.402 1_554 S
C135 C136 1.375 . S
C135 C138 1.481 . S
C136 C135 1.375 . S
C136 C137 1.367 . S
C136 H150 0.951 . S
C137 C133 1.383 . S
C137 C136 1.367 . S
C137 H151 0.950 . S
C138 C135 1.481 . S
C138 C139 1.297 1_554 S
C138 H152 0.950 . S
C139 C138 1.297 1_556 S
C139 C140 1.479 . S
C139 H153 0.950 . S
C140 C139 1.479 . S
C140 C141 1.375 . S
C140 C146 1.404 1_556 S
C141 C140 1.375 . S
C141 C142 1.369 . S
C141 H154 0.950 . S
C142 C141 1.369 . S
C142 C143 1.392 1_556 S
C142 H155 0.951 . S
C143 C142 1.392 1_554 S
C143 C145 1.384 . S
H144 C146 0.949 . S
C145 C143 1.384 . S
C145 C146 1.385 . S
C145 H147 0.950 . S
C146 C140 1.404 1_554 S
C146 H144 0.949 . S
C146 C145 1.385 . S
H147 C145 0.950 . S
H148 C132 0.951 . S
H149 C134 0.951 . S
H150 C136 0.951 . S
H151 C137 0.950 . S
H152 C138 0.950 . S
H153 C139 0.950 . S
H154 C141 0.950 . S
H155 C142 0.951 . S
C85 C63 1.494 1_465 S
C95 C74 1.452 1_655 S
C109 C67 1.487 1_566 S
C119 C56 1.498 1_554 S
C133 C58 1.397 1_454 S
C143 C69 1.344 . S
