# Generated by pormake.
# Topology vme, (6)-cn, num edge types: 1
# Building blocks:
#     Node 0, Type 0, BuildingBlock: OJICUG_clean_sbu_0, # of connection points: 6
#     Node 1, Type 0, BuildingBlock: OJICUG_clean_sbu_0, # of connection points: 6
#     Node 2, Type 0, BuildingBlock: OJICUG_clean_sbu_0, # of connection points: 6
#     Node 3, Type 0, BuildingBlock: OJICUG_clean_sbu_0, # of connection points: 6
#     Edge 4, Type (0, 0), None
#     Edge 5, Type (0, 0), None
#     Edge 6, Type (0, 0), None
#     Edge 7, Type (0, 0), None
#     Edge 8, Type (0, 0), None
#     Edge 9, Type (0, 0), None
#     Edge 10, Type (0, 0), None
#     Edge 11, Type (0, 0), None
#     Edge 12, Type (0, 0), None
#     Edge 13, Type (0, 0), None
#     Edge 14, Type (0, 0), None
#     Edge 15, Type (0, 0), None
# Relax obj value: 0.276
# Max RMSD: 0.267
# Mean RMSD: 0.267
data_MOF--net-vme--node1-OJICUG_clean_sbu_0--edge1-none
_symmetry_space_group_name_H-M    P1
_symmetry_Int_Tables_number       1
_symmetry_cell_setting            triclinic
loop_
_symmetry_equiv_pos_as_xyz
'x, y, z'
_cell_length_a     12.327891
_cell_length_b     13.393986
_cell_length_c     13.885627
_cell_angle_alpha  90.000397
_cell_angle_beta   113.32524
_cell_angle_gamma 90.001079
loop_
_atom_site_label
_atom_site_type_symbol
_atom_site_fract_x
_atom_site_fract_y
_atom_site_fract_z
_atom_type_partial_charge
Sc0 Sc 0.30928 0.2467 0.3637 0.0
Sc1 Sc 0.05652 0.3752 0.23684 0.0
Sc2 Sc 0.23588 0.4377 0.48288 0.0
O3 O 0.20853 0.3593 0.3566 0.0
C4 C 0.27753 0.22476 0.57013 0.0
C5 C 0.03897 0.16101 0.23846 0.0
C6 C 1.01689 0.432 0.44421 0.0
C7 C 0.24879 0.28634 0.1461 0.0
C8 C 0.47369 0.44756 0.47291 0.0
C9 C 0.10228 0.58004 0.27409 0.0
O10 O 0.27321 0.18257 0.48813 0.0
O11 O 0.99502 0.23735 0.26086 0.0
O12 O 0.08718 0.36333 0.47894 0.0
O13 O 0.33311 0.2995 0.23295 0.0
O14 O 0.39239 0.49791 0.48298 0.0
O15 O 0.11343 0.51502 0.21327 0.0
O16 O 0.46379 0.35136 0.45372 0.0
O17 O 0.14003 0.3042 0.133 0.0
O18 O 0.14073 0.56572 0.3743 0.0
O19 O 0.15176 0.15237 0.2631 0.0
O20 O 0.31706 0.31426 0.59114 0.0
O21 O 0.97726 0.446 0.34408 0.0
Sc22 Sc 0.82242 0.93769 0.97939 0.0
Sc23 Sc 1.00178 0.8752 0.22543 0.0
Sc24 Sc 0.74901 0.7467 0.09857 0.0
O25 O 0.84977 0.8593 0.10567 0.0
C26 C 0.5846 0.94756 -0.01064 0.0
C27 C 0.95598 0.08005 0.18818 0.0
C28 C 0.80951 0.78634 0.31617 0.0
C29 C 0.04141 0.932 0.01806 0.0
C30 C 0.78076 0.72475 0.89214 0.0
C31 C 1.0193 0.66101 0.22381 0.0
O32 O 0.66591 -0.0021 0.97929 0.0
O33 O 0.94491 0.01501 0.24903 0.0
O34 O 0.72518 0.7995 0.22932 0.0
O35 O 0.97112 0.86332 -0.01667 0.0
O36 O 0.78507 0.68257 0.97414 0.0
O37 O 0.06326 0.73733 0.20138 0.0
O38 O 0.74124 0.81425 0.87113 0.0
O39 O 0.08104 0.94601 0.11819 0.0
O40 O 0.90652 0.65238 0.19917 0.0
O41 O 0.91757 0.06571 0.08798 0.0
O42 O 0.5945 0.85136 0.00855 0.0
O43 O 0.91827 0.80419 0.32927 0.0
Sc44 Sc 0.8224 0.51351 0.47938 0.0
Sc45 Sc 1.00176 0.5759 0.72547 0.0
Sc46 Sc 0.74905 0.70449 0.59859 0.0
O47 O 0.84978 0.59188 0.60569 0.0
C48 C 0.78074 0.72645 0.39213 0.0
C49 C 0.04134 0.51921 0.51811 0.0
C50 C 1.0194 0.79012 0.72386 0.0
C51 C 0.95594 0.3711 0.68815 0.0
C52 C 0.5846 0.50365 0.48936 0.0
C53 C 0.8095 0.66484 0.81617 0.0
O54 O 0.74122 0.63695 0.37113 0.0
O55 O 0.08099 0.50508 0.61821 0.0
O56 O 0.90661 0.79878 0.6992 0.0
O57 O 0.91751 0.38544 0.58794 0.0
O58 O 0.59452 0.59985 0.50856 0.0
O59 O 0.91826 0.64694 0.82931 0.0
O60 O 0.6659 0.4533 0.47928 0.0
O61 O 0.94475 0.4361 0.74897 0.0
O62 O 0.72517 0.65171 0.72932 0.0
O63 O 0.97112 0.58792 0.48333 0.0
O64 O 0.78515 0.76862 0.47417 0.0
O65 O 0.06337 0.71375 0.70153 0.0
Sc66 Sc 0.30925 0.20449 0.86368 0.0
Sc67 Sc 0.05653 0.07591 0.7368 0.0
Sc68 Sc 0.23589 0.01351 -0.01711 0.0
O69 O 0.20852 0.09188 0.85658 0.0
C70 C 0.4737 0.00365 0.97291 0.0
C71 C 0.24879 0.16484 0.6461 0.0
C72 C 0.1024 0.8711 0.77412 0.0
C73 C 0.03892 0.29012 0.73841 0.0
C74 C 0.27756 0.22645 0.07015 0.0
C75 C 1.01696 0.0192 0.94416 0.0
O76 O 0.46378 0.09985 0.95371 0.0
O77 O 0.14003 0.14695 0.63297 0.0
O78 O 0.14078 0.88545 0.87432 0.0
O79 O 0.15171 0.29878 0.76308 0.0
O80 O 0.31708 0.13695 0.09114 0.0
O81 O 0.9773 0.00508 0.84406 0.0
O82 O 0.27317 0.26862 -0.01189 0.0
O83 O 0.99495 0.21377 0.76077 0.0
O84 O 0.08718 0.08792 0.97894 0.0
O85 O 0.33312 0.15171 0.73295 0.0
O86 O 0.3924 0.95331 -0.01701 0.0
O87 O 0.11351 0.93611 0.71327 0.0
loop_
_geom_bond_atom_site_label_1
_geom_bond_atom_site_label_2
_geom_bond_distance
_geom_bond_site_symmetry_2
_ccdc_geom_bond_type
Sc0 O3 2.025 . S
Sc0 O10 2.105 . S
Sc0 O13 2.105 . S
Sc0 O16 2.105 . S
Sc0 O19 2.105 . S
Sc1 O3 2.025 . S
Sc1 O11 2.105 1_455 S
Sc1 O15 2.105 . S
Sc1 O17 2.105 . S
Sc1 O21 2.105 1_455 S
Sc2 O3 2.025 . S
Sc2 O12 2.105 . S
Sc2 O14 2.105 . S
Sc2 O18 2.105 . S
Sc2 O20 2.105 . S
O3 Sc0 2.025 . S
O3 Sc1 2.025 . S
O3 Sc2 2.025 . S
C4 O10 1.268 . S
C4 O20 1.268 . S
C5 O11 1.268 1_455 S
C5 O19 1.268 . S
C6 O12 1.268 1_655 S
C6 O21 1.268 . S
C7 O13 1.268 . S
C7 O17 1.268 . S
C8 O14 1.268 . S
C8 O16 1.268 . S
C9 O15 1.268 . S
C9 O18 1.268 . S
O10 Sc0 2.105 . S
O10 C4 1.268 . S
O11 Sc1 2.105 1_655 S
O11 C5 1.268 1_655 S
O12 Sc2 2.105 . S
O12 C6 1.268 1_455 S
O13 Sc0 2.105 . S
O13 C7 1.268 . S
O14 Sc2 2.105 . S
O14 C8 1.268 . S
O15 Sc1 2.105 . S
O15 C9 1.268 . S
O16 Sc0 2.105 . S
O16 C8 1.268 . S
O17 Sc1 2.105 . S
O17 C7 1.268 . S
O18 Sc2 2.105 . S
O18 C9 1.268 . S
O19 Sc0 2.105 . S
O19 C5 1.268 . S
O20 Sc2 2.105 . S
O20 C4 1.268 . S
O21 Sc1 2.105 1_655 S
O21 C6 1.268 . S
Sc22 O25 2.025 1_556 S
Sc22 O32 2.105 1_565 S
Sc22 O35 2.105 1_556 S
Sc22 O38 2.105 . S
Sc22 O41 2.105 1_566 S
Sc23 O25 2.025 . S
Sc23 O33 2.105 1_565 S
Sc23 O37 2.105 1_655 S
Sc23 O39 2.105 1_655 S
Sc23 O43 2.105 . S
Sc24 O25 2.025 . S
Sc24 O34 2.105 . S
Sc24 O36 2.105 1_554 S
Sc24 O40 2.105 . S
Sc24 O42 2.105 . S
O25 Sc22 2.025 1_554 S
O25 Sc23 2.025 . S
O25 Sc24 2.025 . S
C26 O32 1.268 1_565 S
C26 O42 1.268 1_556 S
C27 O33 1.268 . S
C27 O41 1.268 . S
C28 O34 1.268 . S
C28 O43 1.268 . S
C29 O35 1.268 1_455 S
C29 O39 1.268 . S
C30 O36 1.268 . S
C30 O38 1.268 . S
C31 O37 1.268 1_655 S
C31 O40 1.268 . S
O32 Sc22 2.105 1_545 S
O32 C26 1.268 1_545 S
O33 Sc23 2.105 1_545 S
O33 C27 1.268 . S
O34 Sc24 2.105 . S
O34 C28 1.268 . S
O35 Sc22 2.105 1_554 S
O35 C29 1.268 1_655 S
O36 Sc24 2.105 1_556 S
O36 C30 1.268 . S
O37 Sc23 2.105 1_455 S
O37 C31 1.268 1_455 S
O38 Sc22 2.105 . S
O38 C30 1.268 . S
O39 Sc23 2.105 1_455 S
O39 C29 1.268 . S
O40 Sc24 2.105 . S
O40 C31 1.268 . S
O41 Sc22 2.105 1_544 S
O41 C27 1.268 . S
O42 Sc24 2.105 . S
O42 C26 1.268 1_554 S
O43 Sc23 2.105 . S
O43 C28 1.268 . S
Sc44 O47 2.025 . S
Sc44 O54 2.105 . S
Sc44 O57 2.105 . S
Sc44 O60 2.105 . S
Sc44 O63 2.105 . S
Sc45 O47 2.025 . S
Sc45 O55 2.105 1_655 S
Sc45 O59 2.105 . S
Sc45 O61 2.105 . S
Sc45 O65 2.105 1_655 S
Sc46 O47 2.025 . S
Sc46 O56 2.105 . S
Sc46 O58 2.105 . S
Sc46 O62 2.105 . S
Sc46 O64 2.105 . S
O47 Sc44 2.025 . S
O47 Sc45 2.025 . S
O47 Sc46 2.025 . S
C48 O54 1.268 . S
C48 O64 1.268 . S
C49 O55 1.268 . S
C49 O63 1.268 1_455 S
C50 O56 1.268 . S
C50 O65 1.268 1_655 S
C51 O57 1.268 . S
C51 O61 1.268 . S
C52 O58 1.268 . S
C52 O60 1.268 . S
C53 O59 1.268 . S
C53 O62 1.268 . S
O54 Sc44 2.105 . S
O54 C48 1.268 . S
O55 Sc45 2.105 1_455 S
O55 C49 1.268 . S
O56 Sc46 2.105 . S
O56 C50 1.268 . S
O57 Sc44 2.105 . S
O57 C51 1.268 . S
O58 Sc46 2.105 . S
O58 C52 1.268 . S
O59 Sc45 2.105 . S
O59 C53 1.268 . S
O60 Sc44 2.105 . S
O60 C52 1.268 . S
O61 Sc45 2.105 . S
O61 C51 1.268 . S
O62 Sc46 2.105 . S
O62 C53 1.268 . S
O63 Sc44 2.105 . S
O63 C49 1.268 1_655 S
O64 Sc46 2.105 . S
O64 C48 1.268 . S
O65 Sc45 2.105 1_455 S
O65 C50 1.268 1_455 S
Sc66 O69 2.025 . S
Sc66 O76 2.105 . S
Sc66 O79 2.105 . S
Sc66 O82 2.105 1_556 S
Sc66 O85 2.105 . S
Sc67 O69 2.025 . S
Sc67 O77 2.105 . S
Sc67 O81 2.105 1_455 S
Sc67 O83 2.105 1_455 S
Sc67 O87 2.105 1_545 S
Sc68 O69 2.025 1_554 S
Sc68 O78 2.105 1_544 S
Sc68 O80 2.105 . S
Sc68 O84 2.105 1_554 S
Sc68 O86 2.105 1_545 S
O69 Sc66 2.025 . S
O69 Sc67 2.025 . S
O69 Sc68 2.025 1_556 S
C70 O76 1.268 1_554 S
C70 O86 1.268 1_545 S
C71 O77 1.268 . S
C71 O85 1.268 . S
C72 O78 1.268 . S
C72 O87 1.268 . S
C73 O79 1.268 . S
C73 O83 1.268 1_455 S
C74 O80 1.268 . S
C74 O82 1.268 . S
C75 O81 1.268 . S
C75 O84 1.268 1_655 S
O76 Sc66 2.105 . S
O76 C70 1.268 1_556 S
O77 Sc67 2.105 . S
O77 C71 1.268 . S
O78 Sc68 2.105 1_566 S
O78 C72 1.268 . S
O79 Sc66 2.105 . S
O79 C73 1.268 . S
O80 Sc68 2.105 . S
O80 C74 1.268 . S
O81 Sc67 2.105 1_655 S
O81 C75 1.268 . S
O82 Sc66 2.105 1_554 S
O82 C74 1.268 . S
O83 Sc67 2.105 1_655 S
O83 C73 1.268 1_655 S
O84 Sc68 2.105 1_556 S
O84 C75 1.268 1_455 S
O85 Sc66 2.105 . S
O85 C71 1.268 . S
O86 Sc68 2.105 1_565 S
O86 C70 1.268 1_565 S
O87 Sc67 2.105 1_565 S
O87 C72 1.268 . S
C27 C5 1.812 1_655 S
C9 C31 1.812 1_455 S
C72 C50 1.812 1_455 S
C51 C73 1.812 1_655 S
C49 C6 1.990 1_455 S
C29 C75 1.990 1_464 S
C74 C7 2.232 . S
C28 C48 2.232 . S
C30 C53 2.232 . S
C71 C4 2.232 . S
C8 C52 1.832 . S
C70 C26 1.832 1_544 S
