# Generated by pormake.
# Topology unj, (4)-cn, num edge types: 1
# Building blocks:
#     Node 0, Type 0, BuildingBlock: CEKHIL_clean_sbu_0, # of connection points: 4
#     Node 1, Type 0, BuildingBlock: CEKHIL_clean_sbu_0, # of connection points: 4
#     Node 2, Type 0, BuildingBlock: CEKHIL_clean_sbu_0, # of connection points: 4
#     Node 3, Type 0, BuildingBlock: CEKHIL_clean_sbu_0, # of connection points: 4
#     Node 4, Type 0, BuildingBlock: CEKHIL_clean_sbu_0, # of connection points: 4
#     Node 5, Type 0, BuildingBlock: CEKHIL_clean_sbu_0, # of connection points: 4
#     Edge 6, Type (0, 0), BuildingBlock: AJUNOK_clean_linker_0, # of connection points: 2
#     Edge 7, Type (0, 0), BuildingBlock: AJUNOK_clean_linker_0, # of connection points: 2
#     Edge 8, Type (0, 0), BuildingBlock: AJUNOK_clean_linker_0, # of connection points: 2
#     Edge 9, Type (0, 0), BuildingBlock: AJUNOK_clean_linker_0, # of connection points: 2
#     Edge 10, Type (0, 0), BuildingBlock: AJUNOK_clean_linker_0, # of connection points: 2
#     Edge 11, Type (0, 0), BuildingBlock: AJUNOK_clean_linker_0, # of connection points: 2
#     Edge 12, Type (0, 0), BuildingBlock: AJUNOK_clean_linker_0, # of connection points: 2
#     Edge 13, Type (0, 0), BuildingBlock: AJUNOK_clean_linker_0, # of connection points: 2
#     Edge 14, Type (0, 0), BuildingBlock: AJUNOK_clean_linker_0, # of connection points: 2
#     Edge 15, Type (0, 0), BuildingBlock: AJUNOK_clean_linker_0, # of connection points: 2
#     Edge 16, Type (0, 0), BuildingBlock: AJUNOK_clean_linker_0, # of connection points: 2
#     Edge 17, Type (0, 0), BuildingBlock: AJUNOK_clean_linker_0, # of connection points: 2
# Relax obj value: 0.027
# Max RMSD: 0.079
# Mean RMSD: 0.079
data_MOF--net-unj--node1-CEKHIL_clean_sbu_0--edge1-AJUNOK_clean_linker_0
_symmetry_space_group_name_H-M    P1
_symmetry_Int_Tables_number       1
_symmetry_cell_setting            triclinic
loop_
_symmetry_equiv_pos_as_xyz
'x, y, z'
_cell_length_a     23.139247
_cell_length_b     23.15384
_cell_length_c     27.073199
_cell_angle_alpha  90.112709
_cell_angle_beta   89.856977
_cell_angle_gamma 120.08539
loop_
_atom_site_label
_atom_site_type_symbol
_atom_site_fract_x
_atom_site_fract_y
_atom_site_fract_z
_atom_type_partial_charge
Co0 Co 0.54375 0.28805 0.57981 0.0
O1 O 0.56207 0.37133 0.6083 0.0
O2 O 0.46672 0.2768 0.61719 0.0
C3 C 0.58409 0.33316 0.5048 0.0
O4 O 0.50517 0.19245 0.55386 0.0
Co5 Co 0.65779 0.2692 0.53645 0.0
O6 O 0.58394 0.18475 0.51033 0.0
C7 C 0.63712 0.26485 0.64466 0.0
C8 C 0.50152 0.34081 0.62527 0.0
C9 C 0.52415 0.15985 0.52594 0.0
O10 O 0.58361 0.26845 0.63944 0.0
O11 O 0.67485 0.26846 0.60874 0.0
O12 O 0.52289 0.31474 0.51689 0.0
O13 O 0.61912 0.3261 0.53862 0.0
Co14 Co 0.28774 0.52881 0.74615 0.0
O15 O 0.22338 0.5471 0.77591 0.0
O16 O 0.22254 0.45171 0.78363 0.0
C17 C 0.28235 0.56963 0.67154 0.0
O18 O 0.34462 0.4906 0.7192 0.0
Co19 Co 0.42048 0.64343 0.70274 0.0
O20 O 0.43019 0.56971 0.67529 0.0
C21 C 0.40495 0.62208 0.81083 0.0
C22 C 0.19422 0.48689 0.79331 0.0
C23 C 0.39589 0.50989 0.69082 0.0
O24 O 0.34802 0.56828 0.80547 0.0
O25 O 0.43873 0.66029 0.77506 0.0
O26 O 0.23928 0.50848 0.68354 0.0
O27 O 0.32478 0.60429 0.70537 0.0
Co28 Co 0.79234 0.27057 0.91171 0.0
O29 O 0.70887 0.20497 0.93983 0.0
O30 O 0.80418 0.20631 0.95012 0.0
C31 C 0.74884 0.26442 0.83589 0.0
O32 O 0.88835 0.32858 0.88678 0.0
Co33 Co 0.81019 0.40259 0.86841 0.0
O34 O 0.89748 0.41701 0.84542 0.0
C35 C 0.81036 0.38568 0.97658 0.0
C36 C 0.74006 0.17644 0.95796 0.0
C37 C 0.92202 0.38193 0.86085 0.0
O38 O 0.81003 0.33022 0.97097 0.0
O39 O 0.80655 0.41943 0.94063 0.0
O40 O 0.7674 0.22227 0.84911 0.0
O41 O 0.75429 0.30656 0.86939 0.0
Co42 Co 0.55254 0.77539 0.07889 0.0
O43 O 0.53428 0.69211 0.1071 0.0
O44 O 0.62862 0.78731 0.11748 0.0
C45 C 0.51551 0.73177 0.00303 0.0
O46 O 0.59073 0.87111 0.05365 0.0
Co47 Co 0.43825 0.79275 0.03542 0.0
O48 O 0.51172 0.87845 0.01057 0.0
C49 C 0.45533 0.7937 0.14357 0.0
C50 C 0.5941 0.72325 0.12528 0.0
C51 C 0.57147 0.90371 0.02621 0.0
O52 O 0.51052 0.79339 0.138 0.0
O53 O 0.41771 0.78969 0.10758 0.0
O54 O 0.57619 0.75028 0.01648 0.0
O55 O 0.47855 0.73712 0.0364 0.0
Co56 Co 0.80704 0.5354 0.24502 0.0
O57 O 0.87249 0.51764 0.27306 0.0
O58 O 0.87263 0.61252 0.28218 0.0
C59 C 0.81101 0.49508 0.1698 0.0
O60 O 0.74947 0.57338 0.21981 0.0
Co61 Co 0.67348 0.42064 0.20342 0.0
O62 O 0.66171 0.49391 0.17792 0.0
C63 C 0.69247 0.44072 0.31134 0.0
C64 C 0.90193 0.57796 0.29039 0.0
C65 C 0.69705 0.5539 0.19289 0.0
O66 O 0.74822 0.49556 0.30504 0.0
O67 O 0.65794 0.40235 0.27588 0.0
O68 O 0.85404 0.55629 0.18167 0.0
O69 O 0.76939 0.46001 0.20404 0.0
Co70 Co 0.30271 0.79204 0.41194 0.0
O71 O 0.38601 0.85795 0.43998 0.0
O72 O 0.29098 0.85771 0.44884 0.0
C73 C 0.3471 0.79562 0.33681 0.0
O74 O 0.20702 0.73398 0.3866 0.0
Co75 Co 0.28411 0.65845 0.37071 0.0
O76 O 0.19947 0.64682 0.34433 0.0
C77 C 0.2823 0.6778 0.47854 0.0
C78 C 0.35495 0.88728 0.45714 0.0
C79 C 0.17443 0.68178 0.35929 0.0
O80 O 0.28395 0.7338 0.47215 0.0
O81 O 0.28561 0.64275 0.44322 0.0
O82 O 0.32877 0.83854 0.34851 0.0
O83 O 0.34067 0.75435 0.37117 0.0
C84 C 0.50317 0.04684 0.50329 0.0
C85 C 0.47704 0.08897 0.51313 0.0
C86 C 0.4624 0.98106 0.48767 0.0
C87 C 0.39337 0.95411 0.48064 0.0
H88 H 0.55617 0.06501 0.50711 0.0
H89 H 0.48595 0.95176 0.47973 0.0
S90 S 0.29869 0.04185 0.50434 0.0
N91 N 0.37684 0.09794 0.51755 0.0
N92 N 0.29967 0.97375 0.48737 0.0
C93 C 0.36571 0.9946 0.49219 0.0
C94 C 0.40757 0.06208 0.50864 0.0
C95 C 0.51279 0.45004 0.64759 0.0
C96 C 0.47301 0.38005 0.64722 0.0
C97 C 0.48708 0.49053 0.66214 0.0
C98 C 0.42032 0.46334 0.67759 0.0
H99 H 0.56426 0.47443 0.63527 0.0
H100 H 0.52035 0.54408 0.66092 0.0
S101 S 0.29576 0.28265 0.68702 0.0
N102 N 0.36381 0.28465 0.66589 0.0
N103 N 0.3154 0.36132 0.69415 0.0
C104 C 0.38023 0.39324 0.67935 0.0
C105 C 0.40656 0.35157 0.66393 0.0
C106 C 1.01682 0.36406 0.83536 0.0
C107 C 0.9936 0.40708 0.85039 0.0
C108 C 0.08333 0.3897 0.81942 0.0
C109 C 0.12857 0.45904 0.81849 0.0
H110 H 0.98269 0.31071 0.83359 0.0
H111 H 0.09836 0.35528 0.80557 0.0
S112 S 0.09501 0.59119 0.86312 0.0
N113 N 1.02304 0.5212 0.86937 0.0
N114 N 0.14731 0.56908 0.84035 0.0
C115 C 0.10686 0.50178 0.83697 0.0
C116 C 1.03955 0.4759 0.85266 0.0
C117 C 0.59175 1.01631 0.0032 0.0
C118 C 0.6183 0.97478 0.01374 0.0
C119 C 0.63238 0.08219 0.98779 0.0
C120 C 0.70168 0.10982 0.98167 0.0
H121 H 0.53855 0.9976 0.00626 0.0
H122 H 0.60854 0.11098 0.9792 0.0
S123 S 0.79745 1.02398 0.00771 0.0
N124 N 0.71915 0.96722 0.01996 0.0
N125 N 0.79604 0.09159 0.9902 0.0
C126 C 0.72972 0.06999 0.99403 0.0
C127 C 0.688 1.00242 0.01025 0.0
C128 C 0.60502 0.57466 0.17 0.0
C129 C 0.67321 0.60092 0.18039 0.0
C130 C 0.58007 0.61551 0.15485 0.0
C131 C 0.62211 0.68472 0.14884 0.0
H132 H 0.57022 0.52156 0.17301 0.0
H133 H 0.52731 0.59187 0.14638 0.0
S134 S 0.80413 0.77978 0.17458 0.0
N135 N 0.78215 0.70145 0.18661 0.0
N136 N 0.73516 0.77871 0.1573 0.0
C137 C 0.6901 0.71249 0.16103 0.0
C138 C 0.71566 0.67055 0.177 0.0
C139 C 0.06199 0.58968 0.33511 0.0
C140 C 0.10357 0.65772 0.34625 0.0
C141 C 0.99623 0.56454 0.31951 0.0
C142 C 0.96872 0.60623 0.31381 0.0
H143 H 0.08052 0.55512 0.3379 0.0
H144 H 0.96739 0.51191 0.31054 0.0
S145 S 0.05471 0.78774 0.34132 0.0
N146 N 0.11131 0.76614 0.35334 0.0
N147 N 0.98713 0.71881 0.32324 0.0
C148 C 1.00862 0.67408 0.32663 0.0
C149 C 0.07609 0.69981 0.34304 0.0
C150 C 0.57086 0.35454 0.41641 0.0
C151 C 0.61304 0.36322 0.45638 0.0
C152 C 0.59718 0.38128 0.3699 0.0
C153 C 0.66662 0.4188 0.36189 0.0
H154 H 0.51711 0.32574 0.42076 0.0
H155 H 0.56276 0.3721 0.33985 0.0
S156 S 0.79859 0.45932 0.45517 0.0
N157 N 0.72786 0.41407 0.48547 0.0
N158 N 0.77706 0.46521 0.39812 0.0
C159 C 0.70939 0.42977 0.40191 0.0
C160 C 0.68263 0.4016 0.44912 0.0
C161 C 0.2407 0.58359 0.53832 0.0
C162 C 0.27871 0.65257 0.52907 0.0
C163 C 0.2415 0.55724 0.58468 0.0
C164 C 0.28144 0.59882 0.62318 0.0
H165 H 0.21041 0.54959 0.50932 0.0
H166 H 0.21151 0.5038 0.59005 0.0
S167 S 0.3901 0.78329 0.61753 0.0
N168 N 0.35645 0.76212 0.56202 0.0
N169 N 0.35927 0.71295 0.64904 0.0
C170 C 0.31921 0.66813 0.61447 0.0
C171 C 0.31742 0.69497 0.56747 0.0
C172 C 0.68923 0.30145 0.77852 0.0
C173 C 0.71811 0.26138 0.78736 0.0
C174 C 0.65964 0.29978 0.73299 0.0
C175 C 0.65885 0.2587 0.69452 0.0
H176 H 0.6898 0.33484 0.80685 0.0
H177 H 0.63966 0.33271 0.72725 0.0
S178 S 0.72229 0.14013 0.69963 0.0
N179 N 0.73972 0.17605 0.75455 0.0
N180 N 0.68526 0.17397 0.66877 0.0
C181 C 0.68571 0.21704 0.7032 0.0
C182 C 0.7151 0.21809 0.74967 0.0
C183 C 0.39174 0.6425 0.89951 0.0
C184 C 0.43271 0.64358 0.86079 0.0
C185 C 0.41916 0.6715 0.94533 0.0
C186 C 0.48832 0.70163 0.95422 0.0
H187 H 0.33858 0.62142 0.89377 0.0
H188 H 0.38581 0.67059 0.97386 0.0
S189 S 0.61569 0.71113 0.86584 0.0
N190 N 0.54482 0.67326 0.8348 0.0
N191 N 0.59634 0.72664 0.92114 0.0
C192 C 0.52935 0.70056 0.91626 0.0
C193 C 0.5015 0.67179 0.86949 0.0
C194 C 0.84532 0.4814 0.0346 0.0
C195 C 0.81364 0.41197 0.02691 0.0
C196 C 0.84496 0.50794 0.08108 0.0
C197 C 0.81175 0.46597 0.12132 0.0
H198 H 0.87047 0.51562 0.00437 0.0
H199 H 0.86986 0.56166 0.08523 0.0
S200 S 0.72264 0.28055 0.12087 0.0
N201 N 0.74989 0.3018 0.06367 0.0
N202 N 0.74803 0.35138 0.15089 0.0
C203 C 0.78059 0.39641 0.11431 0.0
C204 C 0.78196 0.36945 0.06716 0.0
C205 C 0.36781 0.82877 0.248 0.0
C206 C 0.37677 0.79598 0.28832 0.0
C207 C 0.39456 0.8288 0.20151 0.0
C208 C 0.43238 0.79723 0.19388 0.0
H209 H 0.33893 0.85358 0.2521 0.0
H210 H 0.38534 0.85365 0.17122 0.0
S211 S 0.47321 0.70718 0.28803 0.0
N212 N 0.42782 0.73269 0.31802 0.0
N213 N 0.479 0.73395 0.23077 0.0
C214 C 0.44338 0.76593 0.2342 0.0
C215 C 0.4152 0.76489 0.28136 0.0
loop_
_geom_bond_atom_site_label_1
_geom_bond_atom_site_label_2
_geom_bond_distance
_geom_bond_site_symmetry_2
_ccdc_geom_bond_type
Co0 O1 2.216 . S
Co0 O2 2.091 . S
Co0 O4 2.004 . S
Co0 O10 2.021 . S
Co0 O12 2.137 . S
Co0 O13 2.244 . S
O1 Co0 2.216 . S
O1 C8 1.247 . S
O2 Co0 2.091 . S
O2 C8 1.261 . S
C3 O12 1.247 . S
C3 O13 1.272 . S
O4 Co0 2.004 . S
O4 C9 1.259 . S
Co5 O6 2.061 . S
Co5 O11 2.052 . S
Co5 O13 2.135 . S
O6 Co5 2.061 . S
O6 C9 1.235 . S
C7 O10 1.238 . S
C7 O11 1.241 . S
C8 O1 1.247 . S
C8 O2 1.261 . S
C9 O4 1.259 . S
C9 O6 1.235 . S
O10 Co0 2.021 . S
O10 C7 1.238 . S
O11 Co5 2.052 . S
O11 C7 1.241 . S
O12 Co0 2.137 . S
O12 C3 1.247 . S
O13 Co0 2.244 . S
O13 C3 1.272 . S
O13 Co5 2.135 . S
Co14 O15 2.216 . S
Co14 O16 2.091 . S
Co14 O18 2.004 . S
Co14 O24 2.021 . S
Co14 O26 2.137 . S
Co14 O27 2.244 . S
O15 Co14 2.216 . S
O15 C22 1.247 . S
O16 Co14 2.091 . S
O16 C22 1.261 . S
C17 O26 1.247 . S
C17 O27 1.272 . S
O18 Co14 2.004 . S
O18 C23 1.259 . S
Co19 O20 2.061 . S
Co19 O25 2.052 . S
Co19 O27 2.135 . S
O20 Co19 2.061 . S
O20 C23 1.235 . S
C21 O24 1.238 . S
C21 O25 1.241 . S
C22 O15 1.247 . S
C22 O16 1.261 . S
C23 O18 1.259 . S
C23 O20 1.235 . S
O24 Co14 2.021 . S
O24 C21 1.238 . S
O25 Co19 2.052 . S
O25 C21 1.241 . S
O26 Co14 2.137 . S
O26 C17 1.247 . S
O27 Co14 2.244 . S
O27 C17 1.272 . S
O27 Co19 2.135 . S
Co28 O29 2.216 . S
Co28 O30 2.091 . S
Co28 O32 2.004 . S
Co28 O38 2.021 . S
Co28 O40 2.137 . S
Co28 O41 2.244 . S
O29 Co28 2.216 . S
O29 C36 1.247 . S
O30 Co28 2.091 . S
O30 C36 1.261 . S
C31 O40 1.247 . S
C31 O41 1.272 . S
O32 Co28 2.004 . S
O32 C37 1.259 . S
Co33 O34 2.061 . S
Co33 O39 2.052 . S
Co33 O41 2.135 . S
O34 Co33 2.061 . S
O34 C37 1.235 . S
C35 O38 1.238 . S
C35 O39 1.241 . S
C36 O29 1.247 . S
C36 O30 1.261 . S
C37 O32 1.259 . S
C37 O34 1.235 . S
O38 Co28 2.021 . S
O38 C35 1.238 . S
O39 Co33 2.052 . S
O39 C35 1.241 . S
O40 Co28 2.137 . S
O40 C31 1.247 . S
O41 Co28 2.244 . S
O41 C31 1.272 . S
O41 Co33 2.135 . S
Co42 O43 2.216 . S
Co42 O44 2.091 . S
Co42 O46 2.004 . S
Co42 O52 2.021 . S
Co42 O54 2.137 . S
Co42 O55 2.244 . S
O43 Co42 2.216 . S
O43 C50 1.247 . S
O44 Co42 2.091 . S
O44 C50 1.261 . S
C45 O54 1.247 . S
C45 O55 1.272 . S
O46 Co42 2.004 . S
O46 C51 1.259 . S
Co47 O48 2.061 . S
Co47 O53 2.052 . S
Co47 O55 2.135 . S
O48 Co47 2.061 . S
O48 C51 1.235 . S
C49 O52 1.238 . S
C49 O53 1.241 . S
C50 O43 1.247 . S
C50 O44 1.261 . S
C51 O46 1.259 . S
C51 O48 1.235 . S
O52 Co42 2.021 . S
O52 C49 1.238 . S
O53 Co47 2.052 . S
O53 C49 1.241 . S
O54 Co42 2.137 . S
O54 C45 1.247 . S
O55 Co42 2.244 . S
O55 C45 1.272 . S
O55 Co47 2.135 . S
Co56 O57 2.216 . S
Co56 O58 2.091 . S
Co56 O60 2.004 . S
Co56 O66 2.021 . S
Co56 O68 2.137 . S
Co56 O69 2.244 . S
O57 Co56 2.216 . S
O57 C64 1.247 . S
O58 Co56 2.091 . S
O58 C64 1.261 . S
C59 O68 1.247 . S
C59 O69 1.272 . S
O60 Co56 2.004 . S
O60 C65 1.259 . S
Co61 O62 2.061 . S
Co61 O67 2.052 . S
Co61 O69 2.135 . S
O62 Co61 2.061 . S
O62 C65 1.235 . S
C63 O66 1.238 . S
C63 O67 1.241 . S
C64 O57 1.247 . S
C64 O58 1.261 . S
C65 O60 1.259 . S
C65 O62 1.235 . S
O66 Co56 2.021 . S
O66 C63 1.238 . S
O67 Co61 2.052 . S
O67 C63 1.241 . S
O68 Co56 2.137 . S
O68 C59 1.247 . S
O69 Co56 2.244 . S
O69 C59 1.272 . S
O69 Co61 2.135 . S
Co70 O71 2.216 . S
Co70 O72 2.091 . S
Co70 O74 2.004 . S
Co70 O80 2.021 . S
Co70 O82 2.137 . S
Co70 O83 2.244 . S
O71 Co70 2.216 . S
O71 C78 1.247 . S
O72 Co70 2.091 . S
O72 C78 1.261 . S
C73 O82 1.247 . S
C73 O83 1.272 . S
O74 Co70 2.004 . S
O74 C79 1.259 . S
Co75 O76 2.061 . S
Co75 O81 2.052 . S
Co75 O83 2.135 . S
O76 Co75 2.061 . S
O76 C79 1.235 . S
C77 O80 1.238 . S
C77 O81 1.241 . S
C78 O71 1.247 . S
C78 O72 1.261 . S
C79 O74 1.259 . S
C79 O76 1.235 . S
O80 Co70 2.021 . S
O80 C77 1.238 . S
O81 Co75 2.052 . S
O81 C77 1.241 . S
O82 Co70 2.137 . S
O82 C73 1.247 . S
O83 Co70 2.244 . S
O83 C73 1.272 . S
O83 Co75 2.135 . S
C84 C85 1.369 . S
C84 C86 1.419 1_545 S
C84 H88 0.930 . S
C85 C84 1.369 . S
C85 C94 1.429 . S
C86 C84 1.419 1_565 S
C86 C87 1.363 . S
C86 H89 0.929 . S
C87 C86 1.363 . S
C87 C93 1.428 . S
H88 C84 0.930 . S
H89 C86 0.929 . S
S90 N91 1.613 . S
S90 N92 1.610 1_545 S
N91 S90 1.613 . S
N91 C94 1.350 . S
N92 S90 1.610 1_565 S
N92 C93 1.351 . S
C93 C87 1.428 . S
C93 N92 1.351 . S
C93 C94 1.434 1_565 S
C94 C85 1.429 . S
C94 N91 1.350 . S
C94 C93 1.434 1_545 S
C95 C96 1.369 . S
C95 C97 1.419 . S
C95 H99 0.930 . S
C96 C95 1.369 . S
C96 C105 1.429 . S
C97 C95 1.419 . S
C97 C98 1.363 . S
C97 H100 0.929 . S
C98 C97 1.363 . S
C98 C104 1.428 . S
H99 C95 0.930 . S
H100 C97 0.929 . S
S101 N102 1.613 . S
S101 N103 1.610 . S
N102 S101 1.613 . S
N102 C105 1.350 . S
N103 S101 1.610 . S
N103 C104 1.351 . S
C104 C98 1.428 . S
C104 N103 1.351 . S
C104 C105 1.434 . S
C105 C96 1.429 . S
C105 N102 1.350 . S
C105 C104 1.434 . S
C106 C107 1.369 . S
C106 C108 1.419 1_655 S
C106 H110 0.930 . S
C107 C106 1.369 . S
C107 C116 1.429 . S
C108 C106 1.419 1_455 S
C108 C109 1.363 . S
C108 H111 0.929 . S
C109 C108 1.363 . S
C109 C115 1.428 . S
H110 C106 0.930 . S
H111 C108 0.929 . S
S112 N113 1.613 . S
S112 N114 1.610 1_655 S
N113 S112 1.613 . S
N113 C116 1.350 . S
N114 S112 1.610 1_455 S
N114 C115 1.351 . S
C115 C109 1.428 . S
C115 N114 1.351 . S
C115 C116 1.434 1_455 S
C116 C107 1.429 . S
C116 N113 1.350 . S
C116 C115 1.434 1_655 S
C117 C118 1.369 . S
C117 C119 1.419 1_564 S
C117 H121 0.930 . S
C118 C117 1.369 . S
C118 C127 1.429 . S
C119 C117 1.419 1_546 S
C119 C120 1.363 . S
C119 H122 0.929 . S
C120 C119 1.363 . S
C120 C126 1.428 . S
H121 C117 0.930 . S
H122 C119 0.929 . S
S123 N124 1.613 . S
S123 N125 1.610 1_564 S
N124 S123 1.613 . S
N124 C127 1.350 . S
N125 S123 1.610 1_546 S
N125 C126 1.351 . S
C126 C120 1.428 . S
C126 N125 1.351 . S
C126 C127 1.434 1_546 S
C127 C118 1.429 . S
C127 N124 1.350 . S
C127 C126 1.434 1_564 S
C128 C129 1.369 . S
C128 C130 1.419 . S
C128 H132 0.930 . S
C129 C128 1.369 . S
C129 C138 1.429 . S
C130 C128 1.419 . S
C130 C131 1.363 . S
C130 H133 0.929 . S
C131 C130 1.363 . S
C131 C137 1.428 . S
H132 C128 0.930 . S
H133 C130 0.929 . S
S134 N135 1.613 . S
S134 N136 1.610 . S
N135 S134 1.613 . S
N135 C138 1.350 . S
N136 S134 1.610 . S
N136 C137 1.351 . S
C137 C131 1.428 . S
C137 N136 1.351 . S
C137 C138 1.434 . S
C138 C129 1.429 . S
C138 N135 1.350 . S
C138 C137 1.434 . S
C139 C140 1.369 . S
C139 C141 1.419 1_455 S
C139 H143 0.930 . S
C140 C139 1.369 . S
C140 C149 1.429 . S
C141 C139 1.419 1_655 S
C141 C142 1.363 . S
C141 H144 0.929 . S
C142 C141 1.363 . S
C142 C148 1.428 . S
H143 C139 0.930 . S
H144 C141 0.929 . S
S145 N146 1.613 1_655 S
S145 N147 1.610 . S
N146 S145 1.613 1_455 S
N146 C149 1.350 . S
N147 S145 1.610 . S
N147 C148 1.351 . S
C148 C142 1.428 . S
C148 N147 1.351 . S
C148 C149 1.434 1_655 S
C149 C140 1.429 . S
C149 N146 1.350 . S
C149 C148 1.434 1_455 S
C150 C151 1.369 . S
C150 C152 1.419 . S
C150 H154 0.930 . S
C151 C150 1.369 . S
C151 C160 1.429 . S
C152 C150 1.419 . S
C152 C153 1.363 . S
C152 H155 0.929 . S
C153 C152 1.363 . S
C153 C159 1.428 . S
H154 C150 0.930 . S
H155 C152 0.929 . S
S156 N157 1.613 . S
S156 N158 1.610 . S
N157 S156 1.613 . S
N157 C160 1.350 . S
N158 S156 1.610 . S
N158 C159 1.351 . S
C159 C153 1.428 . S
C159 N158 1.351 . S
C159 C160 1.434 . S
C160 C151 1.429 . S
C160 N157 1.350 . S
C160 C159 1.434 . S
C161 C162 1.369 . S
C161 C163 1.419 . S
C161 H165 0.930 . S
C162 C161 1.369 . S
C162 C171 1.429 . S
C163 C161 1.419 . S
C163 C164 1.363 . S
C163 H166 0.929 . S
C164 C163 1.363 . S
C164 C170 1.428 . S
H165 C161 0.930 . S
H166 C163 0.929 . S
S167 N168 1.613 . S
S167 N169 1.610 . S
N168 S167 1.613 . S
N168 C171 1.350 . S
N169 S167 1.610 . S
N169 C170 1.351 . S
C170 C164 1.428 . S
C170 N169 1.351 . S
C170 C171 1.434 . S
C171 C162 1.429 . S
C171 N168 1.350 . S
C171 C170 1.434 . S
C172 C173 1.369 . S
C172 C174 1.419 . S
C172 H176 0.930 . S
C173 C172 1.369 . S
C173 C182 1.429 . S
C174 C172 1.419 . S
C174 C175 1.363 . S
C174 H177 0.929 . S
C175 C174 1.363 . S
C175 C181 1.428 . S
H176 C172 0.930 . S
H177 C174 0.929 . S
S178 N179 1.613 . S
S178 N180 1.610 . S
N179 S178 1.613 . S
N179 C182 1.350 . S
N180 S178 1.610 . S
N180 C181 1.351 . S
C181 C175 1.428 . S
C181 N180 1.351 . S
C181 C182 1.434 . S
C182 C173 1.429 . S
C182 N179 1.350 . S
C182 C181 1.434 . S
C183 C184 1.369 . S
C183 C185 1.419 . S
C183 H187 0.930 . S
C184 C183 1.369 . S
C184 C193 1.429 . S
C185 C183 1.419 . S
C185 C186 1.363 . S
C185 H188 0.929 . S
C186 C185 1.363 . S
C186 C192 1.428 . S
H187 C183 0.930 . S
H188 C185 0.929 . S
S189 N190 1.613 . S
S189 N191 1.610 . S
N190 S189 1.613 . S
N190 C193 1.350 . S
N191 S189 1.610 . S
N191 C192 1.351 . S
C192 C186 1.428 . S
C192 N191 1.351 . S
C192 C193 1.434 . S
C193 C184 1.429 . S
C193 N190 1.350 . S
C193 C192 1.434 . S
C194 C195 1.369 . S
C194 C196 1.419 . S
C194 H198 0.930 . S
C195 C194 1.369 . S
C195 C204 1.429 . S
C196 C194 1.419 . S
C196 C197 1.363 . S
C196 H199 0.929 . S
C197 C196 1.363 . S
C197 C203 1.428 . S
H198 C194 0.930 . S
H199 C196 0.929 . S
S200 N201 1.613 . S
S200 N202 1.610 . S
N201 S200 1.613 . S
N201 C204 1.350 . S
N202 S200 1.610 . S
N202 C203 1.351 . S
C203 C197 1.428 . S
C203 N202 1.351 . S
C203 C204 1.434 . S
C204 C195 1.429 . S
C204 N201 1.350 . S
C204 C203 1.434 . S
C205 C206 1.369 . S
C205 C207 1.419 . S
C205 H209 0.930 . S
C206 C205 1.369 . S
C206 C215 1.429 . S
C207 C205 1.419 . S
C207 C208 1.363 . S
C207 H210 0.929 . S
C208 C207 1.363 . S
C208 C214 1.428 . S
H209 C205 0.930 . S
H210 C207 0.929 . S
S211 N212 1.613 . S
S211 N213 1.610 . S
N212 S211 1.613 . S
N212 C215 1.350 . S
N213 S211 1.610 . S
N213 C214 1.351 . S
C214 C208 1.428 . S
C214 N213 1.351 . S
C214 C215 1.434 . S
C215 C206 1.429 . S
C215 N212 1.350 . S
C215 C214 1.434 . S
C85 C9 1.581 . S
C87 C78 1.589 . S
C96 C8 1.589 . S
C98 C23 1.581 . S
C107 C37 1.578 . S
C109 C22 1.590 . S
C118 C51 1.582 . S
C120 C36 1.589 . S
C129 C65 1.582 . S
C131 C50 1.589 . S
C140 C79 1.582 . S
C142 C64 1.589 . S
C151 C3 1.471 . S
C153 C63 1.440 . S
C162 C77 1.434 . S
C164 C17 1.471 . S
C173 C31 1.471 . S
C175 C7 1.435 . S
C184 C21 1.434 . S
C186 C45 1.471 1_556 S
C195 C35 1.437 1_554 S
C197 C59 1.471 . S
C206 C73 1.471 . S
C208 C49 1.440 . S
