# Generated by pormake.
# Topology qtz-x, (6)-cn, num edge types: 1
# Building blocks:
#     Node 0, Type 0, BuildingBlock: NUHQIS_clean_sbu_0, # of connection points: 6
#     Node 1, Type 0, BuildingBlock: NUHQIS_clean_sbu_0, # of connection points: 6
#     Node 2, Type 0, BuildingBlock: NUHQIS_clean_sbu_0, # of connection points: 6
#     Edge 3, Type (0, 0), BuildingBlock: OJICUG_clean_linker_0, # of connection points: 2
#     Edge 4, Type (0, 0), BuildingBlock: OJICUG_clean_linker_0, # of connection points: 2
#     Edge 5, Type (0, 0), BuildingBlock: OJICUG_clean_linker_0, # of connection points: 2
#     Edge 6, Type (0, 0), BuildingBlock: OJICUG_clean_linker_0, # of connection points: 2
#     Edge 7, Type (0, 0), BuildingBlock: OJICUG_clean_linker_0, # of connection points: 2
#     Edge 8, Type (0, 0), BuildingBlock: OJICUG_clean_linker_0, # of connection points: 2
#     Edge 9, Type (0, 0), BuildingBlock: OJICUG_clean_linker_0, # of connection points: 2
#     Edge 10, Type (0, 0), BuildingBlock: OJICUG_clean_linker_0, # of connection points: 2
#     Edge 11, Type (0, 0), BuildingBlock: OJICUG_clean_linker_0, # of connection points: 2
# Relax obj value: 0.351
# Max RMSD: 0.302
# Mean RMSD: 0.277
data_MOF--net-qtz-x--node1-NUHQIS_clean_sbu_0--edge1-OJICUG_clean_linker_0
_symmetry_space_group_name_H-M    P1
_symmetry_Int_Tables_number       1
_symmetry_cell_setting            triclinic
loop_
_symmetry_equiv_pos_as_xyz
'x, y, z'
_cell_length_a     11.365143
_cell_length_b     11.308532
_cell_length_c     41.185783
_cell_angle_alpha  60.064387
_cell_angle_beta   121.51841
_cell_angle_gamma 121.96967
loop_
_atom_site_label
_atom_site_type_symbol
_atom_site_fract_x
_atom_site_fract_y
_atom_site_fract_z
_atom_type_partial_charge
Tb0 Tb 0.13601 0.56421 0.25377 0.0
Eu1 Eu 0.47915 0.75386 0.25433 0.0
C2 C 0.29407 0.89921 0.24939 0.0
C3 C 0.20449 0.68342 0.17406 0.0
C4 C 0.84711 0.38711 0.29741 0.0
C5 C 0.82943 0.45546 0.34204 0.0
C6 C 0.85286 0.49329 0.30721 0.0
C7 C 0.8122 0.24164 0.32256 0.0
C8 C 0.79143 0.20429 0.35764 0.0
C9 C 0.80188 0.31082 0.36844 0.0
C10 C 0.88847 0.42653 0.26334 0.0
O11 O 0.18378 0.41405 0.24783 0.0
O12 O 0.43881 0.51854 0.26643 0.0
O13 O 0.49268 0.7157 0.3148 0.0
O14 O 0.28226 0.51066 0.31629 0.0
C15 C 0.31231 0.4093 0.25787 0.0
O16 O 0.71031 0.78141 0.27474 0.0
O17 O 0.63756 -0.0361 0.23253 0.0
O18 O 0.37787 0.91659 0.23335 0.0
O19 O 0.21239 0.76707 0.26563 0.0
O20 O 1.10822 0.64981 0.18923 0.0
O21 O 0.34576 0.70985 0.19547 0.0
C22 C 0.40815 0.5999 0.33443 0.0
O23 O 0.93194 0.56448 0.24241 0.0
O24 O 0.9725 0.36369 0.27103 0.0
C25 C 0.7932 -0.0671 0.21963 0.0
C26 C 0.81632 -0.01621 0.14881 0.0
C27 C 0.75771 0.84008 0.1721 0.0
C28 C 0.74588 0.81474 0.20719 0.0
C29 C 0.8615 0.07583 0.19788 0.0
C30 C 0.87448 0.10115 0.16284 0.0
C31 C 0.74084 0.91161 0.24872 0.0
H32 H 0.83489 0.54061 0.34839 0.0
H33 H 0.87905 0.60652 0.28856 0.0
H34 H 0.80634 0.15693 0.31587 0.0
H35 H 0.7728 0.09217 0.37695 0.0
H36 H 0.71374 0.74778 0.16203 0.0
H37 H 0.68992 0.70365 0.22289 0.0
H38 H 0.89577 0.16861 0.20653 0.0
H39 H 0.9199 0.2129 0.14528 0.0
Tb40 Tb 0.95318 0.21758 0.60858 0.0
Eu41 Eu 0.76993 0.86985 0.60985 0.0
C42 C 1.11036 0.03959 0.61341 0.0
C43 C 0.80864 0.13932 0.52852 0.0
C44 C 0.14537 0.5439 0.64101 0.0
C45 C 0.3397 0.65589 0.6932 0.0
C46 C 0.29609 0.6114 0.66125 0.0
C47 C 1.03838 0.52707 0.65209 0.0
C48 C 1.08193 0.57244 0.68386 0.0
C49 C 0.233 0.63303 0.70547 0.0
C50 C 1.10392 0.47527 0.61238 0.0
O51 O 0.7483 0.16051 0.61505 0.0
O52 O 0.6002 -0.04834 0.59601 0.0
O53 O 0.82056 0.8569 0.67241 0.0
O54 O 0.98439 0.09381 0.67199 0.0
C55 C 0.61799 0.05734 0.6052 0.0
O56 O 0.56048 0.70865 0.58516 0.0
O57 O 0.75052 0.64472 0.62696 0.0
O58 O 1.00654 0.91312 0.62292 0.0
O59 O 1.09975 0.16495 0.6029 0.0
O60 O 0.84711 0.23464 0.54498 0.0
O61 O 0.79133 0.00138 0.5491 0.0
C62 C 0.91185 -0.04083 0.69037 0.0
O63 O 0.16038 0.37643 0.62746 0.0
O64 O 0.96452 0.43269 0.58974 0.0
C65 C 0.59866 0.56316 0.56931 0.0
C66 C 0.54934 0.5323 0.49863 0.0
C67 C 0.43044 0.47754 0.51097 0.0
C68 C 0.45502 0.49296 0.54593 0.0
C69 C 0.71842 0.60982 0.55842 0.0
C70 C 0.69418 0.59303 0.52376 0.0
C71 C 0.61863 0.61158 0.5998 0.0
H72 H 0.45685 0.70317 0.70925 0.0
H73 H 0.38038 0.6246 0.65329 0.0
H74 H 0.92148 0.47237 0.63762 0.0
H75 H 0.99749 0.55134 0.69313 0.0
H76 H 0.31725 0.43132 0.49236 0.0
H77 H 0.36069 0.45807 0.55338 0.0
H78 H 0.83026 0.66678 0.5754 0.0
H79 H 0.78882 0.6336 0.51576 0.0
Tb80 Tb 0.93169 0.88088 0.91612 0.0
Eu81 Eu 1.11621 0.68442 0.94734 0.0
C82 C 0.26754 0.01861 0.93451 0.0
C83 C 0.96993 0.83523 0.85338 0.0
C84 C 0.759 0.03795 0.92723 0.0
C85 C 0.82839 0.17559 0.96862 0.0
C86 C 0.82654 0.17143 0.93499 0.0
C87 C 0.68761 0.91037 0.95266 0.0
C88 C 0.68509 0.91566 0.98526 0.0
C89 C 0.7581 0.04769 0.9941 0.0
C90 C 0.78844 0.02629 0.89828 0.0
O91 O 0.77623 0.66603 0.90831 0.0
O92 O 0.91203 0.53233 0.96266 0.0
O93 O 0.15861 0.71389 1.00378 0.0
O94 O 0.95989 0.77787 0.98002 0.0
C95 C 0.78439 0.5425 0.93661 0.0
O96 O 1.12174 0.48993 0.95011 0.0
O97 O 0.32642 0.65366 0.97467 0.0
O98 O 0.24944 0.91894 0.9234 0.0
O99 O 0.16449 0.00194 0.94367 0.0
O100 O 0.97122 -0.06869 0.86291 0.0
O101 O 0.98863 0.71345 0.88088 0.0
C102 C 1.0702 0.73651 1.01004 0.0
O103 O 0.92712 0.08545 0.9017 0.0
O104 O 0.72566 0.89705 0.894 0.0
C105 C 0.31515 0.57517 0.92945 0.0
C106 C 0.33777 0.62434 0.85857 0.0
C107 C 0.3093 0.48323 0.88636 0.0
C108 C 0.29697 0.45865 0.92147 0.0
C109 C 0.34801 0.71684 0.9021 0.0
C110 C 0.36003 0.74133 0.86715 0.0
C111 C 0.26554 0.54645 0.96009 0.0
H112 H 0.88709 0.27795 0.97517 0.0
H113 H 0.88497 0.2707 0.91635 0.0
H114 H 0.64115 0.8042 0.94898 0.0
H115 H 0.63418 0.81414 1.00506 0.0
H116 H 0.28737 0.39069 0.87969 0.0
H117 H 0.26407 0.34776 0.94108 0.0
H118 H 0.3578 0.80822 0.90675 0.0
H119 H 0.38126 0.85083 0.84609 0.0
C120 C 0.19424 0.01799 0.26261 0.0
C121 C 0.29992 0.03001 0.25186 0.0
H122 H 1.11614 0.12716 0.27324 0.0
C123 C 0.41392 0.16742 0.24476 0.0
H124 H 1.10577 0.91405 0.2687 0.0
C125 C 0.42081 0.28945 0.24787 0.0
C126 C 0.31251 0.27797 0.25751 0.0
H127 H 0.49873 0.18078 0.237 0.0
H128 H 0.50909 0.39364 0.2418 0.0
C129 C 0.20004 0.14039 0.26517 0.0
C130 C 0.50086 0.16308 0.61732 0.0
C131 C 0.48716 0.05557 0.60629 0.0
H132 H 0.39354 0.24262 0.6281 0.0
C133 C 0.34763 -0.05712 0.59766 0.0
H134 H 0.60591 0.25176 0.62416 0.0
C135 C 0.22678 -0.06429 0.60093 0.0
C136 C 0.24081 0.04291 0.61201 0.0
H137 H 0.33159 0.85882 0.58866 0.0
H138 H 1.12131 0.84756 0.594 0.0
C139 C 0.37904 0.15755 0.61975 0.0
C140 C 0.46794 0.21213 0.90743 0.0
C141 C 0.40244 0.15029 0.93597 0.0
H142 H 0.64068 0.38885 0.885 0.0
C143 C 0.46568 0.21629 0.96543 0.0
H144 H 0.42166 0.16203 0.88468 0.0
C145 C 0.59133 0.34463 0.96578 0.0
C146 C 0.65247 0.40925 0.9362 0.0
H147 H 0.41806 0.16863 0.98812 0.0
H148 H 0.63939 0.39449 0.98871 0.0
C149 C 0.59163 0.3418 0.90734 0.0
C150 C 0.90652 0.11968 1.05692 0.0
C151 C 0.76986 0.04723 1.03165 0.0
H152 H 1.02896 0.15526 0.11436 0.0
C153 C 0.64737 -0.03739 1.04423 0.0
H154 H 1.00311 0.18468 1.0481 0.0
C155 C 0.66297 -0.05579 0.08212 0.0
C156 C 0.801 0.01086 0.10809 0.0
H157 H 0.54001 0.90811 1.02505 0.0
H158 H 0.56712 0.87672 0.09129 0.0
C159 C 0.92181 0.10206 0.09486 0.0
C160 C 0.70896 0.08772 0.46434 0.0
C161 C 0.79336 0.18883 0.48591 0.0
H162 H 0.63874 0.04712 0.41039 0.0
C163 C 0.87218 0.33353 0.46744 0.0
H164 H 0.6458 -0.02449 0.47747 0.0
C165 C 0.87227 0.37411 0.42915 0.0
C166 C 0.79124 0.27177 0.40785 0.0
H167 H 0.93954 0.41392 0.48333 0.0
H168 H 0.94103 0.48455 0.41708 0.0
C169 C 0.70637 0.12887 0.4258 0.0
C170 C 0.98997 0.01053 0.78583 0.0
C171 C 0.95298 0.86601 0.81153 0.0
H172 H 1.00939 0.15299 0.72842 0.0
C173 C 0.90402 0.75162 0.79716 0.0
H174 H 1.02917 0.10161 0.79581 0.0
C175 C 0.89011 0.78085 0.75803 0.0
C176 C 0.9291 -0.0743 0.73251 0.0
H177 H 0.8748 0.63887 0.81606 0.0
H178 H 0.8505 0.6899 0.74796 0.0
C179 C 0.97972 0.03998 0.74715 0.0
C180 C 1.00129 0.73042 1.06105 0.0
C181 C 1.09662 0.71601 1.05204 0.0
H182 H 0.95766 0.73018 0.10629 0.0
C183 C 0.22108 0.68454 0.08379 0.0
H184 H 0.90391 0.75433 1.03748 0.0
C185 C 0.25172 0.67149 0.12284 0.0
C186 C 0.15883 0.6883 0.13202 0.0
H187 H 0.2971 0.67192 1.07849 0.0
H188 H 0.35029 0.64876 0.14601 0.0
C189 C 1.03152 0.7159 0.10059 0.0
C190 C 0.36957 0.44751 0.40061 0.0
C191 C 0.45198 0.57427 0.37761 0.0
H192 H 0.33773 0.33235 0.4571 0.0
C193 C 0.57204 0.68181 0.39563 0.0
H194 H 0.27655 0.36227 0.38773 0.0
C195 C 0.60573 0.66568 0.43511 0.0
C196 C 0.52133 0.54078 0.45795 0.0
H197 H 0.63739 0.78151 0.37883 0.0
H198 H 0.69456 0.75458 0.44709 0.0
C199 C 0.40417 0.43073 0.44036 0.0
C200 C 0.23265 0.71368 0.78401 0.0
C201 C 0.32788 0.64614 0.81892 0.0
H202 H 0.12846 0.76379 0.72024 0.0
C203 C 0.40418 0.59006 0.81568 0.0
H204 H 0.17283 0.75808 0.78582 0.0
C205 C 0.37984 0.59396 0.77835 0.0
C206 C 0.27769 0.65334 0.74361 0.0
H207 H 0.47979 0.5402 0.8421 0.0
H208 H 0.43508 0.54345 0.77696 0.0
C209 C 0.20699 0.71653 0.74662 0.0
loop_
_geom_bond_atom_site_label_1
_geom_bond_atom_site_label_2
_geom_bond_distance
_geom_bond_site_symmetry_2
_ccdc_geom_bond_type
Tb0 C10 2.825 . S
Tb0 O11 2.347 . S
Tb0 O14 2.366 1_655 S
Tb0 O19 2.418 . S
Tb0 O20 2.384 . S
Tb0 O23 2.479 . S
Tb0 O24 2.471 . S
Eu1 O12 2.418 . S
Eu1 O13 2.384 . S
Eu1 O16 2.479 . S
Eu1 O17 2.471 1_565 S
Eu1 O18 2.347 . S
Eu1 O21 2.366 1_455 S
Eu1 C31 2.825 . S
C2 O18 1.259 1_655 S
C2 O19 1.265 . S
C3 O20 1.255 . S
C3 O21 1.265 . S
C4 C6 1.380 . S
C4 C7 1.374 . S
C4 C10 1.507 . S
C5 C6 1.384 . S
C5 C9 1.387 . S
C5 H32 0.930 . S
C6 C4 1.380 . S
C6 C5 1.384 . S
C6 H33 0.931 . S
C7 C4 1.374 . S
C7 C8 1.390 . S
C7 H34 0.930 . S
C8 C7 1.390 . S
C8 C9 1.391 . S
C8 H35 0.930 . S
C9 C5 1.387 . S
C9 C8 1.391 . S
C10 Tb0 2.825 . S
C10 C4 1.507 . S
C10 O23 1.238 . S
C10 O24 1.247 . S
O11 Tb0 2.347 . S
O11 C15 1.259 1_655 S
O12 Eu1 2.418 . S
O12 C15 1.265 . S
O13 Eu1 2.384 . S
O13 C22 1.255 . S
O14 Tb0 2.366 1_455 S
O14 C22 1.265 . S
C15 O11 1.259 1_455 S
C15 O12 1.265 . S
O16 Eu1 2.479 . S
O16 C31 1.238 . S
O17 Eu1 2.471 1_545 S
O17 C31 1.247 1_545 S
O18 Eu1 2.347 . S
O18 C2 1.259 1_455 S
O19 Tb0 2.418 . S
O19 C2 1.265 . S
O20 Tb0 2.384 . S
O20 C3 1.255 . S
O21 Eu1 2.366 1_655 S
O21 C3 1.265 . S
C22 O13 1.255 . S
C22 O14 1.265 . S
O23 Tb0 2.479 . S
O23 C10 1.238 . S
O24 Tb0 2.471 . S
O24 C10 1.247 . S
C25 C28 1.380 1_545 S
C25 C29 1.374 . S
C25 C31 1.507 1_545 S
C26 C27 1.387 . S
C26 C30 1.391 . S
C27 C26 1.387 . S
C27 C28 1.384 1_545 S
C27 H36 0.930 . S
C28 C25 1.380 1_565 S
C28 C27 1.384 1_565 S
C28 H37 0.931 . S
C29 C25 1.374 . S
C29 C30 1.390 . S
C29 H38 0.930 . S
C30 C26 1.391 . S
C30 C29 1.390 . S
C30 H39 0.922 1_554 S
C31 Eu1 2.825 . S
C31 O16 1.238 . S
C31 O17 1.247 1_565 S
C31 C25 1.507 1_565 S
H32 C5 0.930 . S
H33 C6 0.931 . S
H34 C7 0.930 . S
H35 C8 0.930 . S
H36 C27 0.930 . S
H37 C28 0.931 . S
H38 C29 0.930 . S
H39 C30 0.922 1_556 S
Tb40 C50 2.825 1_655 S
Tb40 O51 2.347 . S
Tb40 O54 2.366 . S
Tb40 O59 2.418 1_655 S
Tb40 O60 2.384 . S
Tb40 O63 2.479 1_655 S
Tb40 O64 2.471 . S
Eu41 O52 2.418 . S
Eu41 O53 2.384 . S
Eu41 O56 2.479 . S
Eu41 O57 2.471 . S
Eu41 O58 2.347 . S
Eu41 O61 2.366 . S
Eu41 C71 2.825 . S
C42 O58 1.259 1_445 S
C42 O59 1.265 . S
C43 O60 1.255 . S
C43 O61 1.265 1_545 S
C44 C46 1.380 . S
C44 C47 1.374 1_455 S
C44 C50 1.507 . S
C45 C46 1.384 . S
C45 C49 1.387 . S
C45 H72 0.930 . S
C46 C44 1.380 . S
C46 C45 1.384 . S
C46 H73 0.931 . S
C47 C44 1.374 1_655 S
C47 C48 1.390 1_655 S
C47 H74 0.930 . S
C48 C47 1.390 1_455 S
C48 C49 1.391 . S
C48 H75 0.930 1_455 S
C49 C45 1.387 . S
C49 C48 1.391 . S
C50 Tb40 2.825 1_455 S
C50 C44 1.507 . S
C50 O63 1.238 . S
C50 O64 1.247 1_455 S
O51 Tb40 2.347 . S
O51 C55 1.259 1_545 S
O52 Eu41 2.418 . S
O52 C55 1.265 . S
O53 Eu41 2.384 . S
O53 C62 1.255 . S
O54 Tb40 2.366 . S
O54 C62 1.265 1_545 S
C55 O51 1.259 1_565 S
C55 O52 1.265 . S
O56 Eu41 2.479 . S
O56 C71 1.238 . S
O57 Eu41 2.471 . S
O57 C71 1.247 . S
O58 Eu41 2.347 . S
O58 C42 1.259 1_665 S
O59 Tb40 2.418 1_455 S
O59 C42 1.265 . S
O60 Tb40 2.384 . S
O60 C43 1.255 . S
O61 Eu41 2.366 . S
O61 C43 1.265 1_565 S
C62 O53 1.255 . S
C62 O54 1.265 1_565 S
O63 Tb40 2.479 1_455 S
O63 C50 1.238 . S
O64 Tb40 2.471 . S
O64 C50 1.247 1_655 S
C65 C68 1.380 . S
C65 C69 1.374 . S
C65 C71 1.507 . S
C66 C67 1.387 . S
C66 C70 1.391 . S
C67 C66 1.387 . S
C67 C68 1.384 . S
C67 H76 0.930 . S
C68 C65 1.380 . S
C68 C67 1.384 . S
C68 H77 0.931 . S
C69 C65 1.374 . S
C69 C70 1.390 . S
C69 H78 0.930 . S
C70 C66 1.391 . S
C70 C69 1.390 . S
C70 H79 0.930 . S
C71 Eu41 2.825 . S
C71 O56 1.238 . S
C71 O57 1.247 . S
C71 C65 1.507 . S
H72 C45 0.930 . S
H73 C46 0.931 . S
H74 C47 0.930 . S
H75 C48 0.930 1_655 S
H76 C67 0.930 . S
H77 C68 0.931 . S
H78 C69 0.930 . S
H79 C70 0.930 . S
Tb80 C90 2.825 . S
Tb80 O91 2.347 1_545 S
Tb80 O94 2.366 1_655 S
Tb80 O99 2.418 1_655 S
Tb80 O100 2.384 . S
Tb80 O103 2.479 . S
Tb80 O104 2.471 . S
Eu81 O92 2.418 1_455 S
Eu81 O93 2.384 . S
Eu81 O96 2.479 . S
Eu81 O97 2.471 . S
Eu81 O98 2.347 1_565 S
Eu81 O101 2.366 1_455 S
Eu81 C111 2.825 . S
C82 O98 1.259 . S
C82 O99 1.265 . S
C83 O100 1.255 . S
C83 O101 1.265 1_545 S
C84 C86 1.380 . S
C84 C87 1.374 . S
C84 C90 1.507 . S
C85 C86 1.384 . S
C85 C89 1.387 . S
C85 H112 0.930 . S
C86 C84 1.380 . S
C86 C85 1.384 . S
C86 H113 0.931 . S
C87 C84 1.374 . S
C87 C88 1.390 . S
C87 H114 0.930 1_545 S
C88 C87 1.390 . S
C88 C89 1.391 . S
C88 H115 0.930 . S
C89 C85 1.387 . S
C89 C88 1.391 . S
C90 Tb80 2.825 . S
C90 C84 1.507 . S
C90 O103 1.238 . S
C90 O104 1.247 . S
O91 Tb80 2.347 1_565 S
O91 C95 1.259 . S
O92 Eu81 2.418 1_655 S
O92 C95 1.265 . S
O93 Eu81 2.384 . S
O93 C102 1.255 . S
O94 Tb80 2.366 1_455 S
O94 C102 1.265 1_545 S
C95 O91 1.259 . S
C95 O92 1.265 . S
O96 Eu81 2.479 . S
O96 C111 1.238 . S
O97 Eu81 2.471 . S
O97 C111 1.247 . S
O98 Eu81 2.347 1_545 S
O98 C82 1.259 . S
O99 Tb80 2.418 1_455 S
O99 C82 1.265 . S
O100 Tb80 2.384 . S
O100 C83 1.255 . S
O101 Eu81 2.366 1_655 S
O101 C83 1.265 1_565 S
C102 O93 1.255 . S
C102 O94 1.265 1_565 S
O103 Tb80 2.479 . S
O103 C90 1.238 . S
O104 Tb80 2.471 . S
O104 C90 1.247 . S
C105 C108 1.380 . S
C105 C109 1.374 . S
C105 C111 1.507 . S
C106 C107 1.387 . S
C106 C110 1.391 . S
C107 C106 1.387 . S
C107 C108 1.384 . S
C107 H116 0.930 . S
C108 C105 1.380 . S
C108 C107 1.384 . S
C108 H117 0.931 . S
C109 C105 1.374 . S
C109 C110 1.390 . S
C109 H118 0.930 1_565 S
C110 C106 1.391 . S
C110 C109 1.390 . S
C110 H119 0.930 . S
C111 Eu81 2.825 . S
C111 O96 1.238 . S
C111 O97 1.247 . S
C111 C105 1.507 . S
H112 C85 0.930 . S
H113 C86 0.931 . S
H114 C87 0.930 1_565 S
H115 C88 0.930 . S
H116 C107 0.930 . S
H117 C108 0.931 . S
H118 C109 0.930 1_545 S
H119 C110 0.930 . S
C120 C121 1.387 1_655 S
C120 H124 0.950 . S
C120 C129 1.390 . S
C121 C120 1.387 1_455 S
C121 C123 1.387 . S
H122 C129 0.950 . S
C123 C121 1.387 . S
C123 C125 1.390 . S
C123 H127 0.950 . S
H124 C120 0.950 . S
C125 C123 1.390 . S
C125 C126 1.387 1_455 S
C125 H128 0.950 . S
C126 C125 1.387 1_655 S
C126 C129 1.387 . S
H127 C123 0.950 . S
H128 C125 0.950 . S
C129 C120 1.390 . S
C129 H122 0.950 . S
C129 C126 1.387 . S
C130 C131 1.387 . S
C130 H134 0.950 . S
C130 C139 1.390 . S
C131 C130 1.387 . S
C131 C133 1.387 1_545 S
H132 C139 0.950 . S
C133 C131 1.387 1_565 S
C133 C135 1.390 . S
C133 H137 0.950 . S
H134 C130 0.950 . S
C135 C133 1.390 . S
C135 C136 1.387 . S
C135 H138 0.950 . S
C136 C135 1.387 . S
C136 C139 1.387 1_565 S
H137 C133 0.950 . S
H138 C135 0.950 . S
C139 C130 1.390 . S
C139 H132 0.950 . S
C139 C136 1.387 1_545 S
C140 C141 1.387 . S
C140 H144 0.950 . S
C140 C149 1.390 . S
C141 C140 1.387 . S
C141 C143 1.387 . S
H142 C149 0.950 . S
C143 C141 1.387 . S
C143 C145 1.390 . S
C143 H147 0.950 . S
H144 C140 0.950 . S
C145 C143 1.390 . S
C145 C146 1.387 . S
C145 H148 0.950 . S
C146 C145 1.387 . S
C146 C149 1.387 . S
H147 C143 0.950 . S
H148 C145 0.950 . S
C149 C140 1.390 . S
C149 H142 0.950 . S
C149 C146 1.387 . S
C150 C151 1.387 . S
C150 H154 0.950 . S
C150 C159 1.390 . S
C151 C150 1.387 . S
C151 C153 1.387 . S
H152 C159 0.950 . S
C153 C151 1.387 . S
C153 C155 1.390 . S
C153 H157 0.950 . S
H154 C150 0.950 . S
C155 C153 1.390 . S
C155 C156 1.387 . S
C155 H158 0.950 . S
C156 C155 1.387 . S
C156 C159 1.387 . S
H157 C153 0.950 . S
H158 C155 0.950 . S
C159 C150 1.390 . S
C159 H152 0.950 . S
C159 C156 1.387 . S
C160 C161 1.387 . S
C160 H164 0.950 1_545 S
C160 C169 1.390 . S
C161 C160 1.387 . S
C161 C163 1.387 . S
H162 C169 0.950 . S
C163 C161 1.387 . S
C163 C165 1.390 . S
C163 H167 0.950 . S
H164 C160 0.950 1_565 S
C165 C163 1.390 . S
C165 C166 1.387 . S
C165 H168 0.950 . S
C166 C165 1.387 . S
C166 C169 1.387 . S
H167 C163 0.950 . S
H168 C165 0.950 . S
C169 C160 1.390 . S
C169 H162 0.950 . S
C169 C166 1.387 . S
C170 C171 1.387 1_545 S
C170 H174 0.950 1_655 S
C170 C179 1.390 . S
C171 C170 1.387 1_565 S
C171 C173 1.387 . S
H172 C179 0.950 1_455 S
C173 C171 1.387 . S
C173 C175 1.390 . S
C173 H177 0.950 . S
H174 C170 0.950 1_455 S
C175 C173 1.390 . S
C175 C176 1.387 . S
C175 H178 0.950 . S
C176 C175 1.387 . S
C176 C179 1.387 1_565 S
H177 C173 0.950 . S
H178 C175 0.950 . S
C179 C170 1.390 . S
C179 H172 0.950 1_655 S
C179 C176 1.387 1_545 S
C180 C181 1.387 1_655 S
C180 H184 0.950 1_665 S
C180 C189 1.390 1_556 S
C181 C180 1.387 1_455 S
C181 C183 1.387 1_455 S
H182 C189 0.950 1_545 S
C183 C181 1.387 1_655 S
C183 C185 1.390 1_556 S
C183 H187 0.950 1_655 S
H184 C180 0.950 1_445 S
C185 C183 1.390 1_554 S
C185 C186 1.387 . S
C185 H188 0.950 . S
C186 C185 1.387 . S
C186 C189 1.387 . S
H187 C183 0.950 1_455 S
H188 C185 0.950 . S
C189 C180 1.390 1_554 S
C189 H182 0.950 1_565 S
C189 C186 1.387 . S
C190 C191 1.387 . S
C190 H194 0.950 . S
C190 C199 1.390 . S
C191 C190 1.387 . S
C191 C193 1.387 . S
H192 C199 0.950 . S
C193 C191 1.387 . S
C193 C195 1.390 . S
C193 H197 0.950 . S
H194 C190 0.950 . S
C195 C193 1.390 . S
C195 C196 1.387 . S
C195 H198 0.950 . S
C196 C195 1.387 . S
C196 C199 1.387 . S
H197 C193 0.950 . S
H198 C195 0.950 . S
C199 C190 1.390 . S
C199 H192 0.950 . S
C199 C196 1.387 . S
C200 C201 1.387 . S
C200 H204 0.950 . S
C200 C209 1.390 . S
C201 C200 1.387 . S
C201 C203 1.387 . S
H202 C209 0.950 . S
C203 C201 1.387 . S
C203 C205 1.390 . S
C203 H207 0.950 . S
H204 C200 0.950 . S
C205 C203 1.390 . S
C205 C206 1.387 . S
C205 H208 0.950 . S
C206 C205 1.387 . S
C206 C209 1.387 . S
H207 C203 0.950 . S
H208 C205 0.950 . S
C209 C200 1.390 . S
C209 H202 0.950 . S
C209 C206 1.387 . S
C121 C2 1.949 1_445 S
C126 C15 1.949 1_655 S
C131 C55 2.028 1_545 S
C136 C42 2.028 1_565 S
C141 C82 1.638 . S
C146 C95 1.638 . S
C151 C89 1.029 . S
C156 C26 1.000 1_556 S
C161 C43 2.205 . S
C166 C9 2.087 . S
C171 C83 2.783 1_565 S
C176 C62 2.705 . S
C181 C102 2.693 . S
C186 C3 2.624 . S
C191 C22 2.242 . S
C196 C66 2.053 . S
C201 C106 1.072 . S
C206 C49 1.157 . S
