# Generated by pormake.
# Topology sxc, (6)-cn, num edge types: 1
# Building blocks:
#     Node 0, Type 0, BuildingBlock: LEVNOQ01_clean_sbu_1, # of connection points: 6
#     Node 1, Type 0, BuildingBlock: LEVNOQ01_clean_sbu_1, # of connection points: 6
#     Node 2, Type 0, BuildingBlock: LEVNOQ01_clean_sbu_1, # of connection points: 6
#     Edge 3, Type (0, 0), BuildingBlock: EZIPEK_clean_linker_0, # of connection points: 2
#     Edge 4, Type (0, 0), BuildingBlock: EZIPEK_clean_linker_0, # of connection points: 2
#     Edge 5, Type (0, 0), BuildingBlock: EZIPEK_clean_linker_0, # of connection points: 2
#     Edge 6, Type (0, 0), BuildingBlock: EZIPEK_clean_linker_0, # of connection points: 2
#     Edge 7, Type (0, 0), BuildingBlock: EZIPEK_clean_linker_0, # of connection points: 2
#     Edge 8, Type (0, 0), BuildingBlock: EZIPEK_clean_linker_0, # of connection points: 2
#     Edge 9, Type (0, 0), BuildingBlock: EZIPEK_clean_linker_0, # of connection points: 2
#     Edge 10, Type (0, 0), BuildingBlock: EZIPEK_clean_linker_0, # of connection points: 2
#     Edge 11, Type (0, 0), BuildingBlock: EZIPEK_clean_linker_0, # of connection points: 2
# Relax obj value: 0.102
# Max RMSD: 0.150
# Mean RMSD: 0.143
data_MOF--net-sxc--node1-LEVNOQ01_clean_sbu_1--edge1-EZIPEK_clean_linker_0
_symmetry_space_group_name_H-M    P1
_symmetry_Int_Tables_number       1
_symmetry_cell_setting            triclinic
loop_
_symmetry_equiv_pos_as_xyz
'x, y, z'
_cell_length_a     11.780408
_cell_length_b     11.674273
_cell_length_c     34.883785
_cell_angle_alpha  99.78009
_cell_angle_beta   90.993907
_cell_angle_gamma 119.66805
loop_
_atom_site_label
_atom_site_type_symbol
_atom_site_fract_x
_atom_site_fract_y
_atom_site_fract_z
_atom_type_partial_charge
O0 O 0.80872 0.64746 0.93563 0.0
Mg1 Mg 0.74708 0.77223 0.91907 0.0
O2 O 0.93138 0.79013 -0.01018 0.0
Mg3 Mg 0.87687 0.96017 -0.00775 0.0
O4 O 0.87899 0.96907 0.92394 0.0
O5 O 0.79164 0.81825 0.86721 0.0
O6 O 0.80975 0.11706 -0.01031 0.0
O7 O 0.09209 0.13763 -0.00471 0.0
Mg8 Mg 0.9011 0.12603 0.05374 0.0
O9 O 0.89241 0.95388 0.06273 0.0
O10 O 0.74496 0.16141 0.04494 0.0
O11 O 0.07856 0.27844 0.04286 0.0
O12 O 0.94376 0.13474 0.10924 0.0
C13 C 0.55418 0.71537 0.9656 0.0
C14 C 0.87692 0.67295 0.96747 0.0
C15 C 0.86197 0.94217 0.88557 0.0
C16 C 0.75567 0.1741 0.00976 0.0
C17 C 0.13804 0.2569 0.01554 0.0
C18 C 0.92723 0.01577 0.09967 0.0
O19 O 0.5562 0.72065 0.92982 0.0
O20 O 0.65894 0.78724 -0.0105 0.0
O21 O 0.38452 0.84751 0.29296 0.0
Mg22 Mg 0.18622 0.77953 0.27352 0.0
O23 O 0.42994 0.05138 0.32217 0.0
Mg24 Mg 0.21397 -0.01166 0.33045 0.0
O25 O 0.14093 0.917 0.26114 0.0
O26 O 0.14718 0.75943 0.21557 0.0
O27 O -0.00106 0.92509 0.33924 0.0
O28 O 0.23421 0.18379 0.3153 0.0
Mg29 Mg 0.24769 0.19388 0.38473 0.0
O30 O 0.28617 0.05542 0.4 0.0
O31 O 0.04668 0.12916 0.36877 0.0
O32 O 0.38853 0.34353 0.35815 0.0
O33 O 0.2989 0.23213 0.4421 0.0
C34 C 0.11497 0.66865 0.33303 0.0
C35 C 0.46614 0.9655 0.3114 0.0
C36 C 0.11913 0.85369 0.22458 0.0
C37 C 0.96335 0.01086 0.35079 0.0
C38 C 0.30832 0.30902 0.32824 0.0
C39 C 0.31213 0.1274 0.4355 0.0
O40 O 0.04424 0.63215 0.30077 0.0
O41 O 0.19064 0.79384 0.34562 0.0
O42 O 0.94516 0.92766 0.62612 0.0
Mg43 Mg 0.08498 0.1135 0.61536 0.0
O44 O 0.06984 0.94884 0.67824 0.0
Mg45 Mg 0.24301 0.1679 0.68336 0.0
O46 O 0.26737 0.13515 0.61487 0.0
O47 O 0.13149 0.0944 0.56137 0.0
O48 O 0.41409 0.38493 0.68711 0.0
O49 O 0.41348 0.1166 0.68467 0.0
Mg50 Mg 0.42342 0.27628 0.76225 0.0
O51 O 0.22632 0.19627 0.7514 0.0
O52 O 0.53001 0.46251 0.74601 0.0
O53 O 0.49658 0.1471 0.74457 0.0
O54 O 0.33457 0.26475 0.81155 0.0
C55 C 0.01433 0.26372 0.66404 0.0
C56 C 0.96093 0.88548 0.65566 0.0
C57 C 0.24044 0.11141 0.57685 0.0
C58 C 0.51255 0.47531 0.71143 0.0
C59 C 0.4962 0.11343 0.7081 0.0
C60 C 0.22508 0.21507 0.78937 0.0
O61 O 0.03474 0.26395 0.62871 0.0
O62 O 0.07625 0.22633 0.68444 0.0
C63 C 0.73057 0.38182 0.02168 0.0
C64 C 0.7503 0.28672 -0.00405 0.0
C65 C 0.86916 0.45379 0.95611 0.0
C66 C 0.85428 0.5516 0.98204 0.0
N67 N 0.72823 0.59032 0.03171 0.0
N68 N 0.77058 0.21632 0.92861 0.0
C69 C 0.77384 0.51121 0.01295 0.0
C70 C 0.79845 0.31761 0.9599 0.0
N71 N 0.66539 0.34722 0.05353 0.0
N72 N 0.95093 0.49096 0.92769 0.0
H73 H 0.7073 0.1153 0.9295 0.0
H74 H 0.79582 0.23354 0.9008 0.0
H75 H 0.00672 0.59103 0.92474 0.0
H76 H -0.02733 0.42468 0.90992 0.0
H77 H 0.6684 0.41765 0.07694 0.0
H78 H 0.60554 0.2472 0.05589 0.0
H79 H 0.6549 0.55788 0.0502 0.0
H80 H 0.75638 0.68574 0.02703 0.0
C81 C 0.64968 0.02015 0.362 0.0
C82 C 0.60122 -0.00515 0.32203 0.0
C83 C 0.7771 0.95307 0.30082 0.0
C84 C 0.82771 -0.01862 0.34073 0.0
N85 N 0.8011 0.01521 0.4091 0.0
N86 N 0.63271 0.96778 0.25395 0.0
C87 C 0.76127 0.00869 0.37129 0.0
C88 C 0.66848 0.96884 0.29161 0.0
N89 N 0.58976 0.0559 0.39103 0.0
N90 N 0.83218 0.911 0.27158 0.0
H91 H 0.55645 -0.0158 0.24655 0.0
H92 H 0.6861 0.96493 0.2307 0.0
H93 H 0.91563 0.90409 0.27628 0.0
H94 H 0.79008 0.87349 0.24251 0.0
H95 H 0.6277 0.0901 0.42045 0.0
H96 H 0.50451 0.05922 0.38579 0.0
H97 H 0.75157 0.02269 0.43291 0.0
H98 H 0.87883 0.00089 0.41642 0.0
C99 C 0.84776 0.6653 0.67688 0.0
C100 C 0.84333 0.77642 0.66786 0.0
C101 C 0.61704 0.68596 0.68537 0.0
C102 C 0.62486 0.57893 0.69618 0.0
N103 N 0.75059 0.4719 0.70702 0.0
N104 N 0.72249 0.89214 0.66135 0.0
C105 C 0.74094 0.56998 0.69326 0.0
C106 C 0.72716 0.78606 0.67117 0.0
N107 N 0.95038 0.6463 0.66739 0.0
N108 N 0.50836 0.69744 0.69188 0.0
H109 H 0.8055 -0.01854 0.65876 0.0
H110 H 0.63539 0.89105 0.65502 0.0
H111 H 0.426 0.62533 0.70226 0.0
H112 H 0.50106 0.7811 0.68936 0.0
H113 H 0.95292 0.55952 0.66921 0.0
H114 H 0.02855 0.71205 0.6541 0.0
H115 H 0.83925 0.47448 0.71199 0.0
H116 H 0.67202 0.39213 0.71605 0.0
C117 C 0.85943 0.23391 0.71537 0.0
C118 C 0.88827 0.25353 0.67693 0.0
C119 C 0.6509 0.1457 0.65573 0.0
C120 C 0.62167 0.12437 0.69415 0.0
N121 N 0.6983 0.10408 0.75569 0.0
N122 N 0.81202 0.28191 0.61651 0.0
C123 C 0.7264 0.15588 0.72259 0.0
C124 C 0.78418 0.22487 0.64869 0.0
N125 N 0.95936 0.29704 0.74543 0.0
N126 N 0.55238 0.08228 0.62527 0.0
H127 H 0.90704 0.355 0.61318 0.0
H128 H 0.7397 0.27323 0.59665 0.0
H129 H 0.45699 0.00965 0.6285 0.0
H130 H 0.56931 0.08615 0.59617 0.0
H131 H 0.94435 0.29756 0.77478 0.0
H132 H 0.05593 0.36387 0.74125 0.0
H133 H 0.76995 0.12158 0.77734 0.0
H134 H 0.60341 0.03036 0.75902 0.0
C135 C 0.34942 0.61241 -0.00232 0.0
C136 C 0.44474 0.59817 0.97712 0.0
C137 C 0.35413 0.36906 0.98821 0.0
C138 C 0.24696 0.37572 0.00362 0.0
N139 N 0.12494 0.49551 0.01066 0.0
N140 N 0.51547 0.44948 0.94327 0.0
C141 C 0.23959 0.49546 0.00533 0.0
C142 C 0.4406 0.47241 0.96942 0.0
N143 N 0.36141 0.73624 0.00897 0.0
N144 N 0.37591 0.26697 -0.00769 0.0
H145 H 0.57121 0.51811 0.92628 0.0
H146 H 0.50851 0.35598 0.9348 0.0
H147 H 0.31926 0.19384 0.00811 0.0
H148 H 0.45906 0.26411 0.9839 0.0
H149 H 0.30075 0.75316 0.02767 0.0
H150 H 0.43829 0.82355 0.00222 0.0
H151 H 0.11468 0.57859 0.00953 0.0
H152 H 0.03526 0.40888 0.01051 0.0
C153 C 0.34394 0.5409 0.3388 0.0
C154 C 0.25839 0.40185 0.32335 0.0
C155 C 0.06904 0.43643 0.32914 0.0
C156 C 0.1555 0.57467 0.3433 0.0
N157 N 0.36613 0.74057 0.37977 0.0
N158 N 0.0388 0.22988 0.29162 0.0
C159 C 0.29071 0.62242 0.35352 0.0
C160 C 0.12035 0.35213 0.31531 0.0
N161 N 0.4765 0.59599 0.33812 0.0
N162 N 0.937 0.38583 0.3299 0.0
H163 H 0.0694 0.16636 0.27755 0.0
H164 H 0.94288 0.19983 0.28112 0.0
H165 H 0.89926 0.44744 0.34096 0.0
H166 H 0.86815 0.28309 0.3241 0.0
H167 H 0.54263 0.69935 0.34583 0.0
H168 H 0.51752 0.53948 0.32533 0.0
H169 H 0.46238 0.77311 0.39077 0.0
H170 H 0.32639 0.79442 0.39503 0.0
C171 C 0.08125 0.01935 0.19616 0.0
C172 C 0.06283 0.88886 0.19269 0.0
C173 C -0.03012 0.84096 0.12463 0.0
C174 C 0.96009 0.95983 0.13157 0.0
N175 N 0.95938 0.12618 0.18455 0.0
N176 N 0.94224 0.65894 0.15462 0.0
C177 C 0.00053 0.03815 0.17066 0.0
C178 C -0.00839 0.79359 0.15738 0.0
N179 N 0.18044 0.1275 0.22123 0.0
N180 N -0.02933 0.77838 0.08805 0.0
H181 H 0.94186 0.61704 0.17875 0.0
H182 H 0.88541 0.58848 0.12935 0.0
H183 H -0.02076 0.81987 0.06352 0.0
H184 H -0.01526 0.69577 0.08343 0.0
H185 H 0.19891 0.22515 0.22199 0.0
H186 H 0.25205 0.12142 0.23728 0.0
H187 H -0.0088 0.18467 0.21284 0.0
H188 H 0.87922 0.12422 0.17062 0.0
C189 C 0.44971 0.1995 0.49877 0.0
C190 C 0.3513 0.09109 0.47023 0.0
C191 C 0.26073 0.96606 0.52192 0.0
C192 C 0.32476 0.08957 0.54927 0.0
N193 N 0.50592 0.31505 0.56737 0.0
N194 N 0.17684 0.85823 0.45389 0.0
C195 C 0.43128 0.20262 0.53905 0.0
C196 C 0.26432 0.96788 0.48133 0.0
N197 N 0.55484 0.30159 0.48669 0.0
N198 N 0.18802 0.85019 0.5352 0.0
H199 H 0.17826 0.85551 0.42398 0.0
H200 H 0.10081 0.7711 0.46079 0.0
H201 H 0.1833 0.85185 0.56518 0.0
H202 H 0.14357 0.75449 0.51731 0.0
H203 H 0.63339 0.38177 0.50573 0.0
H204 H 0.56677 0.29846 0.45698 0.0
H205 H 0.57794 0.40673 0.56171 0.0
H206 H 0.49316 0.31479 0.59693 0.0
C207 C -0.0199 0.06381 0.79398 0.0
C208 C 0.10364 0.17893 0.80929 0.0
C209 C 0.03591 0.17757 0.87549 0.0
C210 C 0.92617 0.04692 0.86105 0.0
N211 N 0.7569 0.91637 0.80636 0.0
N212 N 0.21276 0.38145 0.85901 0.0
C213 C 0.88617 0.00593 0.82005 0.0
C214 C 0.11958 0.24793 0.84845 0.0
N215 N 0.95169 0.00855 0.75506 0.0
N216 N 0.06091 0.23467 0.91435 0.0
H217 H 0.2689 0.43495 0.83863 0.0
H218 H 0.22465 0.4419 0.88613 0.0
H219 H -0.00796 0.19893 0.93391 0.0
H220 H 0.14867 0.32115 0.92677 0.0
H221 H 0.87411 0.91164 0.74396 0.0
H222 H 0.00328 0.06128 0.73419 0.0
H223 H 0.71969 0.88587 0.77683 0.0
H224 H 0.68409 0.88623 0.8252 0.0
loop_
_geom_bond_atom_site_label_1
_geom_bond_atom_site_label_2
_geom_bond_distance
_geom_bond_site_symmetry_2
_ccdc_geom_bond_type
O0 Mg1 1.990 1_455 S
O0 C14 1.253 1_556 S
Mg1 O0 1.990 1_655 S
Mg1 O4 2.180 1_655 S
Mg1 O5 2.117 1_655 S
Mg1 O19 2.030 . S
O2 Mg3 2.072 1_565 S
O2 C14 1.260 . S
Mg3 O2 2.072 1_545 S
Mg3 O4 2.099 1_544 S
Mg3 O6 2.079 1_455 S
Mg3 O7 2.072 . S
Mg3 O9 2.099 . S
Mg3 O20 2.079 1_445 S
O4 Mg1 2.180 1_455 S
O4 Mg3 2.099 1_566 S
O4 C15 1.281 1_565 S
O5 Mg1 2.117 1_455 S
O5 C15 1.250 1_565 S
O6 Mg3 2.079 1_655 S
O6 C16 1.264 1_655 S
O7 Mg3 2.072 . S
O7 C17 1.260 . S
Mg8 O9 2.180 . S
Mg8 O10 2.030 . S
Mg8 O11 1.990 . S
Mg8 O12 2.117 . S
O9 Mg3 2.099 . S
O9 Mg8 2.180 . S
O9 C18 1.279 . S
O10 Mg8 2.030 . S
O10 C16 1.248 . S
O11 Mg8 1.990 . S
O11 C17 1.253 . S
O12 Mg8 2.117 . S
O12 C18 1.250 . S
C13 O19 1.248 1_554 S
C13 O20 1.264 . S
C14 O0 1.253 1_554 S
C14 O2 1.260 . S
C15 O4 1.281 1_545 S
C15 O5 1.250 1_545 S
C16 O6 1.264 1_455 S
C16 O10 1.248 . S
C17 O7 1.260 . S
C17 O11 1.253 . S
C18 O9 1.279 . S
C18 O12 1.250 . S
O19 Mg1 2.030 . S
O19 C13 1.248 1_556 S
O20 Mg3 2.079 1_665 S
O20 C13 1.264 . S
O21 Mg22 1.990 1_545 S
O21 C35 1.253 . S
Mg22 O21 1.990 1_565 S
Mg22 O25 2.180 . S
Mg22 O26 2.117 1_565 S
Mg22 O40 2.030 . S
O23 Mg24 2.072 . S
O23 C35 1.260 . S
Mg24 O23 2.072 . S
Mg24 O25 2.099 1_545 S
Mg24 O27 2.079 1_445 S
Mg24 O28 2.072 . S
Mg24 O30 2.099 . S
Mg24 O41 2.079 1_545 S
O25 Mg22 2.180 . S
O25 Mg24 2.099 1_565 S
O25 C36 1.279 1_565 S
O26 Mg22 2.117 1_545 S
O26 C36 1.250 . S
O27 Mg24 2.079 1_665 S
O27 C37 1.264 1_565 S
O28 Mg24 2.072 . S
O28 C38 1.260 . S
Mg29 O30 2.180 . S
Mg29 O31 2.030 1_455 S
Mg29 O32 1.990 . S
Mg29 O33 2.117 . S
O30 Mg24 2.099 . S
O30 Mg29 2.180 . S
O30 C39 1.279 . S
O31 Mg29 2.030 1_655 S
O31 C37 1.248 . S
O32 Mg29 1.990 . S
O32 C38 1.253 . S
O33 Mg29 2.117 . S
O33 C39 1.250 . S
C34 O40 1.248 . S
C34 O41 1.264 . S
C35 O21 1.253 . S
C35 O23 1.260 . S
C36 O25 1.279 1_545 S
C36 O26 1.250 . S
C37 O27 1.264 1_545 S
C37 O31 1.248 . S
C38 O28 1.260 . S
C38 O32 1.253 . S
C39 O30 1.279 . S
C39 O33 1.250 . S
O40 Mg22 2.030 . S
O40 C34 1.248 . S
O41 Mg24 2.079 1_565 S
O41 C34 1.264 . S
O42 Mg43 1.990 . S
O42 C56 1.253 . S
Mg43 O42 1.990 . S
Mg43 O46 2.180 1_665 S
Mg43 O47 2.117 1_655 S
Mg43 O61 2.030 1_565 S
O44 Mg45 2.072 1_565 S
O44 C56 1.260 1_455 S
Mg45 O44 2.072 1_545 S
Mg45 O46 2.099 . S
Mg45 O48 2.079 . S
Mg45 O49 2.072 . S
Mg45 O51 2.099 . S
Mg45 O62 2.079 . S
O46 Mg43 2.180 1_445 S
O46 Mg45 2.099 . S
O46 C57 1.279 . S
O47 Mg43 2.117 1_455 S
O47 C57 1.250 1_565 S
O48 Mg45 2.079 . S
O48 C58 1.264 . S
O49 Mg45 2.072 . S
O49 C59 1.260 . S
Mg50 O51 2.180 . S
Mg50 O52 2.030 . S
Mg50 O53 1.990 . S
Mg50 O54 2.117 . S
O51 Mg45 2.099 . S
O51 Mg50 2.180 . S
O51 C60 1.279 . S
O52 Mg50 2.030 . S
O52 C58 1.248 . S
O53 Mg50 1.990 . S
O53 C59 1.253 . S
O54 Mg50 2.117 . S
O54 C60 1.250 . S
C55 O61 1.248 . S
C55 O62 1.264 1_655 S
C56 O42 1.253 . S
C56 O44 1.260 1_655 S
C57 O46 1.279 . S
C57 O47 1.250 1_545 S
C58 O48 1.264 . S
C58 O52 1.248 . S
C59 O49 1.260 . S
C59 O53 1.253 . S
C60 O51 1.279 . S
C60 O54 1.250 . S
O61 Mg43 2.030 1_545 S
O61 C55 1.248 . S
O62 Mg45 2.079 . S
O62 C55 1.264 1_455 S
C63 C64 1.363 1_655 S
C63 C69 1.379 1_655 S
C63 N71 1.356 . S
C64 C63 1.363 1_455 S
C64 C70 1.363 1_554 S
C65 C66 1.363 1_556 S
C65 C70 1.379 . S
C65 N72 1.356 . S
C66 C65 1.363 1_554 S
C66 C69 1.363 . S
N67 C69 1.356 1_655 S
N67 H79 0.984 . S
N67 H80 0.985 1_655 S
N68 C70 1.356 . S
N68 H73 0.984 . S
N68 H74 0.985 . S
C69 C63 1.379 1_455 S
C69 C66 1.363 . S
C69 N67 1.356 1_455 S
C70 C64 1.363 1_556 S
C70 C65 1.379 . S
C70 N68 1.356 . S
N71 C63 1.356 . S
N71 H77 0.984 . S
N71 H78 0.984 . S
N72 C65 1.356 . S
N72 H75 0.984 . S
N72 H76 0.985 . S
H73 N68 0.984 . S
H74 N68 0.985 . S
H75 N72 0.984 . S
H76 N72 0.985 . S
H77 N71 0.984 . S
H78 N71 0.984 . S
H79 N67 0.984 . S
H80 N67 0.985 1_455 S
C81 C82 1.363 1_565 S
C81 C87 1.379 . S
C81 N89 1.356 . S
C82 C81 1.363 1_545 S
C82 C88 1.363 . S
C83 C84 1.363 1_545 S
C83 C88 1.379 . S
C83 N90 1.356 . S
C84 C83 1.363 1_565 S
C84 C87 1.363 . S
N85 C87 1.356 . S
N85 H97 0.984 . S
N85 H98 0.985 . S
N86 C88 1.356 . S
N86 H91 0.984 . S
N86 H92 0.985 . S
C87 C81 1.379 . S
C87 C84 1.363 . S
C87 N85 1.356 . S
C88 C82 1.363 . S
C88 C83 1.379 . S
C88 N86 1.356 . S
N89 C81 1.356 . S
N89 H95 0.984 . S
N89 H96 0.984 . S
N90 C83 1.356 . S
N90 H93 0.984 . S
N90 H94 0.985 . S
H91 N86 0.984 . S
H92 N86 0.985 . S
H93 N90 0.984 . S
H94 N90 0.985 . S
H95 N89 0.984 . S
H96 N89 0.984 . S
H97 N85 0.984 . S
H98 N85 0.985 . S
C99 C100 1.363 . S
C99 C105 1.379 . S
C99 N107 1.356 . S
C100 C99 1.363 . S
C100 C106 1.363 . S
C101 C102 1.363 . S
C101 C106 1.379 . S
C101 N108 1.356 . S
C102 C101 1.363 . S
C102 C105 1.363 . S
N103 C105 1.356 . S
N103 H115 0.984 . S
N103 H116 0.985 . S
N104 C106 1.356 . S
N104 H109 0.984 . S
N104 H110 0.985 . S
C105 C99 1.379 . S
C105 C102 1.363 . S
C105 N103 1.356 . S
C106 C100 1.363 . S
C106 C101 1.379 . S
C106 N104 1.356 . S
N107 C99 1.356 . S
N107 H113 0.984 . S
N107 H114 0.984 . S
N108 C101 1.356 . S
N108 H111 0.984 . S
N108 H112 0.985 . S
H109 N104 0.984 . S
H110 N104 0.985 . S
H111 N108 0.984 . S
H112 N108 0.985 . S
H113 N107 0.984 . S
H114 N107 0.984 . S
H115 N103 0.984 . S
H116 N103 0.985 . S
C117 C118 1.363 . S
C117 C123 1.379 1_545 S
C117 N125 1.356 . S
C118 C117 1.363 . S
C118 C124 1.363 . S
C119 C120 1.363 . S
C119 C124 1.379 . S
C119 N126 1.356 . S
C120 C119 1.363 . S
C120 C123 1.362 1_545 S
N121 C123 1.357 . S
N121 H133 0.984 . S
N121 H134 0.985 . S
N122 C124 1.356 . S
N122 H127 0.984 . S
N122 H128 0.985 . S
C123 C117 1.379 1_565 S
C123 C120 1.362 1_565 S
C123 N121 1.357 . S
C124 C118 1.363 . S
C124 C119 1.379 . S
C124 N122 1.356 . S
N125 C117 1.356 . S
N125 H131 0.984 1_545 S
N125 H132 0.984 . S
N126 C119 1.356 . S
N126 H129 0.984 . S
N126 H130 0.985 . S
H127 N122 0.984 . S
H128 N122 0.985 . S
H129 N126 0.984 . S
H130 N126 0.985 . S
H131 N125 0.984 1_565 S
H132 N125 0.984 . S
H133 N121 0.984 . S
H134 N121 0.985 . S
C135 C136 1.363 . S
C135 C141 1.379 . S
C135 N143 1.356 . S
C136 C135 1.363 . S
C136 C142 1.363 . S
C137 C138 1.363 . S
C137 C142 1.379 . S
C137 N144 1.356 . S
C138 C137 1.363 . S
C138 C141 1.363 . S
N139 C141 1.356 . S
N139 H151 0.982 1_554 S
N139 H152 0.985 . S
N140 C142 1.356 . S
N140 H145 0.984 . S
N140 H146 0.985 . S
C141 C135 1.379 . S
C141 C138 1.363 . S
C141 N139 1.356 . S
C142 C136 1.363 . S
C142 C137 1.379 . S
C142 N140 1.356 . S
N143 C135 1.356 . S
N143 H149 0.985 . S
N143 H150 0.984 . S
N144 C137 1.356 . S
N144 H147 0.984 . S
N144 H148 0.985 . S
H145 N140 0.984 . S
H146 N140 0.985 . S
H147 N144 0.984 . S
H148 N144 0.985 . S
H149 N143 0.985 . S
H150 N143 0.984 . S
H151 N139 0.982 1_556 S
H152 N139 0.985 . S
C153 C154 1.363 . S
C153 C159 1.379 . S
C153 N161 1.356 . S
C154 C153 1.363 . S
C154 C160 1.363 . S
C155 C156 1.363 . S
C155 C160 1.379 . S
C155 N162 1.356 1_455 S
C156 C155 1.363 . S
C156 C159 1.363 . S
N157 C159 1.356 . S
N157 H169 0.984 . S
N157 H170 0.985 . S
N158 C160 1.356 . S
N158 H163 0.984 . S
N158 H164 0.985 1_455 S
C159 C153 1.379 . S
C159 C156 1.363 . S
C159 N157 1.356 . S
C160 C154 1.363 . S
C160 C155 1.379 . S
C160 N158 1.356 . S
N161 C153 1.356 . S
N161 H167 0.984 . S
N161 H168 0.984 . S
N162 C155 1.356 1_655 S
N162 H165 0.984 . S
N162 H166 0.985 . S
H163 N158 0.984 . S
H164 N158 0.985 1_655 S
H165 N162 0.984 . S
H166 N162 0.985 . S
H167 N161 0.984 . S
H168 N161 0.984 . S
H169 N157 0.984 . S
H170 N157 0.985 . S
C171 C172 1.363 . S
C171 C177 1.379 . S
C171 N179 1.356 . S
C172 C171 1.363 . S
C172 C178 1.363 1_545 S
C173 C174 1.363 1_565 S
C173 C178 1.379 . S
C173 N180 1.356 . S
C174 C173 1.363 1_545 S
C174 C177 1.363 . S
N175 C177 1.356 . S
N175 H187 0.984 . S
N175 H188 0.985 . S
N176 C178 1.356 . S
N176 H181 0.984 . S
N176 H182 0.985 . S
C177 C171 1.379 . S
C177 C174 1.363 . S
C177 N175 1.356 . S
C178 C172 1.363 1_565 S
C178 C173 1.379 . S
C178 N176 1.356 . S
N179 C171 1.356 . S
N179 H185 0.984 . S
N179 H186 0.984 . S
N180 C173 1.356 . S
N180 H183 0.984 . S
N180 H184 0.985 . S
H181 N176 0.984 . S
H182 N176 0.985 . S
H183 N180 0.984 . S
H184 N180 0.985 . S
H185 N179 0.984 . S
H186 N179 0.984 . S
H187 N175 0.984 . S
H188 N175 0.985 . S
C189 C190 1.363 . S
C189 C195 1.379 . S
C189 N197 1.356 . S
C190 C189 1.363 . S
C190 C196 1.363 1_545 S
C191 C192 1.363 1_565 S
C191 C196 1.379 . S
C191 N198 1.356 . S
C192 C191 1.363 1_545 S
C192 C195 1.363 . S
N193 C195 1.356 . S
N193 H205 0.984 . S
N193 H206 0.985 . S
N194 C196 1.356 . S
N194 H199 0.984 . S
N194 H200 0.985 1_455 S
C195 C189 1.379 . S
C195 C192 1.363 . S
C195 N193 1.356 . S
C196 C190 1.363 1_565 S
C196 C191 1.379 . S
C196 N194 1.356 . S
N197 C189 1.356 . S
N197 H203 0.984 . S
N197 H204 0.984 . S
N198 C191 1.356 . S
N198 H201 0.984 . S
N198 H202 0.985 1_455 S
H199 N194 0.984 . S
H200 N194 0.985 1_655 S
H201 N198 0.984 . S
H202 N198 0.985 1_655 S
H203 N197 0.984 . S
H204 N197 0.984 . S
H205 N193 0.984 . S
H206 N193 0.985 . S
C207 C208 1.363 1_565 S
C207 C213 1.379 . S
C207 N215 1.356 1_455 S
C208 C207 1.363 1_545 S
C208 C214 1.363 . S
C209 C210 1.363 . S
C209 C214 1.379 . S
C209 N216 1.356 . S
C210 C209 1.363 . S
C210 C213 1.363 1_545 S
N211 C213 1.356 1_655 S
N211 H223 0.984 . S
N211 H224 0.985 . S
N212 C214 1.356 . S
N212 H217 0.984 . S
N212 H218 0.985 . S
C213 C207 1.379 . S
C213 C210 1.363 1_565 S
C213 N211 1.356 1_455 S
C214 C208 1.363 . S
C214 C209 1.379 . S
C214 N212 1.356 . S
N215 C207 1.356 1_655 S
N215 H221 0.984 . S
N215 H222 0.984 . S
N216 C209 1.356 . S
N216 H219 0.984 . S
N216 H220 0.985 . S
H217 N212 0.984 . S
H218 N212 0.985 . S
H219 N216 0.984 . S
H220 N216 0.985 . S
H221 N215 0.984 . S
H222 N215 0.984 . S
H223 N211 0.984 . S
H224 N211 0.985 . S
C64 C16 1.260 . S
C66 C14 1.284 . S
C82 C35 1.265 . S
C84 C37 1.247 1_565 S
C100 C56 1.293 . S
C102 C58 1.268 . S
C118 C55 1.247 . S
C120 C59 1.265 . S
C136 C13 1.260 . S
C138 C17 1.284 . S
C154 C38 1.293 . S
C156 C34 1.268 . S
C172 C36 1.334 . S
C174 C18 1.299 . S
C190 C39 1.323 . S
C192 C57 1.323 . S
C208 C60 1.333 . S
C210 C15 1.299 . S
