# Generated by pormake.
# Topology pcu, (6)-cn, num edge types: 1
# Building blocks:
#     Node 0, Type 0, BuildingBlock: JUFBIX_clean_sbu_0, # of connection points: 6
#     Edge 1, Type (0, 0), BuildingBlock: FUNLAD_clean_linker_0, # of connection points: 2
#     Edge 2, Type (0, 0), BuildingBlock: FUNLAD_clean_linker_0, # of connection points: 2
#     Edge 3, Type (0, 0), BuildingBlock: FUNLAD_clean_linker_0, # of connection points: 2
# Relax obj value: 0.000
# Max RMSD: 0.000
# Mean RMSD: 0.000
data_MOF--net-pcu--node1-JUFBIX_clean_sbu_0--edge1-FUNLAD_clean_linker_0
_symmetry_space_group_name_H-M    P1
_symmetry_Int_Tables_number       1
_symmetry_cell_setting            triclinic
loop_
_symmetry_equiv_pos_as_xyz
'x, y, z'
_cell_length_a     17.493654
_cell_length_b     22.334139
_cell_length_c     17.509864
_cell_angle_alpha  81.91505
_cell_angle_beta   94.012099
_cell_angle_gamma 104.22042
loop_
_atom_site_label
_atom_site_type_symbol
_atom_site_fract_x
_atom_site_fract_y
_atom_site_fract_z
_atom_type_partial_charge
Co0 Co 0.99173 0.9817 0.00701 0.0
C1 C 1.00837 0.03346 0.14674 0.0
Co2 Co 0.01798 0.08447 0.99573 0.0
C3 C 0.99492 0.85236 1.00038 0.0
C4 C 0.9046 0.8623 0.07066 0.0
N5 N 0.96304 0.89541 0.02458 0.0
N6 N 0.95879 0.79376 0.03015 0.0
C7 C 0.90175 0.80009 0.07408 0.0
H8 H 0.04496 0.86395 0.96348 0.0
H9 H 0.86705 0.88225 0.10094 0.0
C10 C 1.00134 1.0327 0.856 0.0
N11 N 0.04667 0.17075 0.97816 0.0
C12 C 0.0148 0.2138 1.00236 0.0
C13 C 0.10511 0.20386 0.93207 0.0
N14 N 0.05094 0.27241 0.97259 0.0
C15 C 0.10796 0.26607 0.92865 0.0
C16 C 0.15069 0.03329 0.00863 0.0
O17 O 0.98896 0.98041 0.8985 0.0
O18 O 0.01478 0.08238 0.88745 0.0
O19 O 0.1264 0.08297 1.00167 0.0
O20 O 0.10054 0.98112 0.01247 0.0
O21 O 0.02075 0.08575 0.10424 0.0
H22 H 0.14266 0.18391 0.90178 0.0
H23 H 0.96476 0.20222 0.03926 0.0
O24 O 0.99493 0.98379 0.11528 0.0
O25 O 0.88331 0.98319 1.00107 0.0
O26 O 0.90918 0.08505 0.99027 0.0
C27 C 0.85903 1.03287 0.99411 0.0
H28 H 0.86062 0.76244 0.10641 0.0
H29 H 0.1491 0.30372 0.89632 0.0
C30 C 0.02196 0.08316 0.26878 0.0
C31 C 1.0096 1.02943 0.23193 0.0
C32 C 0.02295 0.07851 0.34942 0.0
C33 C 0.01123 1.01985 0.39483 0.0
C34 C 0.99991 0.96644 0.35778 0.0
C35 C 0.99869 0.97105 0.27742 0.0
C36 C 0.01257 1.01213 0.4807 0.0
C37 C 0.99713 0.05403 0.52204 0.0
C38 C 0.99847 0.04631 0.6079 0.0
C39 C 1.00979 0.09972 0.64495 0.0
C40 C 0.01101 0.09511 0.72531 0.0
C41 C 1.0001 0.03673 0.7708 0.0
H42 H 0.97531 0.94509 0.62718 0.0
C43 C 0.98775 0.983 0.73396 0.0
C44 C 0.98676 0.98765 0.65331 0.0
H45 H 0.97852 0.93732 0.76734 0.0
H46 H 0.03119 0.12885 0.23539 0.0
H47 H 0.0344 0.12107 0.37555 0.0
H48 H 0.99139 0.92075 0.39114 0.0
H49 H 0.98933 0.92864 0.25104 0.0
H50 H 0.02566 0.96957 0.51038 0.0
H51 H 0.98404 0.09659 0.49236 0.0
H52 H 0.01831 0.14541 0.61159 0.0
H53 H 0.02038 0.13752 0.7517 0.0
C54 C 0.26522 0.98334 0.01366 0.0
C55 C 0.23648 0.03707 0.01121 0.0
C56 C 0.3465 0.98776 0.01457 0.0
C57 C 0.40069 0.04619 0.01278 0.0
C58 C 0.37174 0.09956 0.01181 0.0
C59 C 0.29071 0.09519 0.0106 0.0
C60 C 0.48761 0.0536 0.01381 0.0
C61 C 0.5221 1.01256 0.98893 0.0
C62 C 0.60902 1.01997 0.98996 0.0
C63 C 0.63797 0.96661 0.99092 0.0
C64 C 0.719 0.97098 0.99213 0.0
C65 C 0.77323 1.02909 0.99152 0.0
H66 H 0.64346 0.12097 0.98481 0.0
C67 C 0.74449 0.08283 0.98908 0.0
C68 C 0.66321 0.0784 0.98817 0.0
H69 H 0.78473 0.12833 0.98795 0.0
H70 H 0.22498 0.93784 0.01479 0.0
H71 H 0.36625 0.9452 0.01793 0.0
H72 H 0.412 0.14505 0.01114 0.0
H73 H 0.27068 0.13756 0.00909 0.0
H74 H 0.52407 0.09524 0.03474 0.0
H75 H 0.48564 0.97092 0.968 0.0
H76 H 0.59771 0.92112 0.99159 0.0
H77 H 0.73903 0.92861 0.99364 0.0
C78 C 0.96027 0.68447 0.07716 0.0
C79 C 0.97754 0.73613 0.01976 0.0
C80 C 0.97536 0.62773 0.06656 0.0
C81 C 1.00769 0.62105 0.99781 0.0
C82 C 0.02711 0.67316 0.94136 0.0
C83 C 0.01205 0.73008 0.95206 0.0
C84 C 0.02374 0.56117 0.98372 0.0
C85 C 0.98602 0.505 0.01905 0.0
C86 C 1.00206 0.44512 0.00495 0.0
C87 C 0.98264 0.39301 0.0614 0.0
C88 C 0.99769 0.33608 0.05069 0.0
C89 C 0.0322 0.33004 0.983 0.0
H90 H 0.04711 0.47639 0.88972 0.0
C91 C 0.04947 0.3817 0.9256 0.0
C92 C 0.03438 0.43844 0.9362 0.0
H93 H 0.07393 0.37818 0.87179 0.0
H94 H 0.9358 0.68799 0.13096 0.0
H95 H 0.96263 0.58978 0.11305 0.0
H96 H 0.0529 0.66959 0.88819 0.0
H97 H 0.02588 0.76889 0.90669 0.0
H98 H 0.0677 0.56406 0.94176 0.0
H99 H 0.94205 0.50211 0.06101 0.0
H100 H 0.95685 0.39658 0.11458 0.0
H101 H 0.98386 0.29727 0.09606 0.0
loop_
_geom_bond_atom_site_label_1
_geom_bond_atom_site_label_2
_geom_bond_distance
_geom_bond_site_symmetry_2
_ccdc_geom_bond_type
Co0 N5 2.057 1_556 S
Co0 O17 2.021 . S
Co0 O20 2.062 1_655 S
Co0 O24 2.117 1_556 S
Co0 O25 2.020 . S
C1 O21 1.259 . S
C1 O24 1.258 1_445 S
Co2 N11 2.057 1_554 S
Co2 O18 2.117 1_554 S
Co2 O19 2.020 . S
Co2 O21 2.021 . S
Co2 O26 2.062 1_455 S
C3 N5 1.316 1_556 S
C3 N6 1.347 1_556 S
C3 H8 0.931 . S
C4 N5 1.375 . S
C4 C7 1.350 . S
C4 H9 0.930 . S
N5 Co0 2.057 1_554 S
N5 C3 1.316 1_554 S
N5 C4 1.375 . S
N6 C3 1.347 1_554 S
N6 C7 1.373 . S
C7 C4 1.350 . S
C7 N6 1.373 . S
C7 H28 0.931 . S
H8 C3 0.931 . S
H9 C4 0.930 . S
C10 O17 1.259 . S
C10 O18 1.258 1_665 S
N11 Co2 2.057 1_556 S
N11 C12 1.316 1_556 S
N11 C13 1.375 . S
C12 N11 1.316 1_554 S
C12 N14 1.347 1_554 S
C12 H23 0.931 . S
C13 N11 1.375 . S
C13 C15 1.350 . S
C13 H22 0.930 . S
N14 C12 1.347 1_556 S
N14 C15 1.373 . S
C15 C13 1.350 . S
C15 N14 1.373 . S
C15 H29 0.931 . S
C16 O19 1.264 1_556 S
C16 O20 1.248 1_545 S
O17 Co0 2.021 . S
O17 C10 1.259 . S
O18 Co2 2.117 1_556 S
O18 C10 1.258 1_445 S
O19 Co2 2.020 . S
O19 C16 1.264 1_554 S
O20 Co0 2.062 1_455 S
O20 C16 1.248 1_565 S
O21 C1 1.259 . S
O21 Co2 2.021 . S
H22 C13 0.930 . S
H23 C12 0.931 . S
O24 Co0 2.117 1_554 S
O24 C1 1.258 1_665 S
O25 Co0 2.020 . S
O25 C27 1.259 1_556 S
O26 Co2 2.062 1_655 S
O26 C27 1.252 1_545 S
C27 O25 1.259 1_554 S
C27 O26 1.252 1_565 S
H28 C7 0.931 . S
H29 C15 0.931 . S
C30 C31 1.376 1_645 S
C30 C32 1.383 . S
C30 H46 0.951 . S
C31 C30 1.376 1_465 S
C31 C35 1.392 . S
C32 C30 1.383 . S
C32 C33 1.402 1_645 S
C32 H47 0.951 . S
C33 C32 1.402 1_465 S
C33 C34 1.375 . S
C33 C36 1.481 . S
C34 C33 1.375 . S
C34 C35 1.367 . S
C34 H48 0.951 . S
C35 C31 1.392 . S
C35 C34 1.367 . S
C35 H49 0.950 . S
C36 C33 1.481 . S
C36 C37 1.297 1_455 S
C36 H50 0.950 . S
C37 C36 1.297 1_655 S
C37 C38 1.479 . S
C37 H51 0.950 1_565 S
C38 C37 1.479 . S
C38 C39 1.375 1_565 S
C38 C44 1.404 1_655 S
C39 C38 1.375 1_545 S
C39 C40 1.369 . S
C39 H52 0.950 . S
C40 C39 1.369 . S
C40 C41 1.392 1_545 S
C40 H53 0.951 . S
C41 C40 1.392 1_565 S
C41 C43 1.384 1_655 S
H42 C44 0.949 . S
C43 C41 1.384 1_455 S
C43 C44 1.385 . S
C43 H45 0.950 . S
C44 C38 1.404 1_455 S
C44 H42 0.949 . S
C44 C43 1.385 . S
H45 C43 0.950 . S
H46 C30 0.951 . S
H47 C32 0.951 . S
H48 C34 0.951 . S
H49 C35 0.950 . S
H50 C36 0.950 . S
H51 C37 0.950 1_545 S
H52 C39 0.950 . S
H53 C40 0.951 . S
C54 C55 1.386 1_556 S
C54 C56 1.383 . S
C54 H70 0.951 1_545 S
C55 C54 1.386 1_554 S
C55 C59 1.383 . S
C56 C54 1.383 . S
C56 C57 1.402 1_556 S
C56 H71 0.951 . S
C57 C56 1.402 1_554 S
C57 C58 1.375 . S
C57 C60 1.481 . S
C58 C57 1.375 . S
C58 C59 1.367 . S
C58 H72 0.951 . S
C59 C55 1.383 . S
C59 C58 1.367 . S
C59 H73 0.950 . S
C60 C57 1.481 . S
C60 C61 1.297 1_554 S
C60 H74 0.950 . S
C61 C60 1.297 1_556 S
C61 C62 1.479 . S
C61 H75 0.950 . S
C62 C61 1.479 . S
C62 C63 1.375 . S
C62 C68 1.404 1_556 S
C63 C62 1.375 . S
C63 C64 1.369 . S
C63 H76 0.950 . S
C64 C63 1.369 . S
C64 C65 1.392 . S
C64 H77 0.951 1_545 S
C65 C64 1.392 . S
C65 C67 1.384 1_556 S
H66 C68 0.949 . S
C67 C65 1.384 1_554 S
C67 C68 1.385 . S
C67 H69 0.950 . S
C68 C62 1.404 1_554 S
C68 H66 0.949 . S
C68 C67 1.385 . S
H69 C67 0.950 . S
H70 C54 0.951 1_565 S
H71 C56 0.951 . S
H72 C58 0.951 . S
H73 C59 0.950 . S
H74 C60 0.950 . S
H75 C61 0.950 . S
H76 C63 0.950 . S
H77 C64 0.951 1_565 S
C78 C79 1.386 1_554 S
C78 C80 1.383 . S
C78 H94 0.951 . S
C79 C78 1.386 1_556 S
C79 C83 1.383 1_655 S
C80 C78 1.383 . S
C80 C81 1.402 1_554 S
C80 H95 0.951 . S
C81 C80 1.402 1_556 S
C81 C82 1.375 1_655 S
C81 C84 1.481 . S
C82 C81 1.375 1_455 S
C82 C83 1.367 . S
C82 H96 0.951 . S
C83 C79 1.383 1_455 S
C83 C82 1.367 . S
C83 H97 0.950 . S
C84 C81 1.481 . S
C84 C85 1.297 . S
C84 H98 0.950 1_655 S
C85 C84 1.297 . S
C85 C86 1.479 . S
C85 H99 0.950 1_556 S
C86 C85 1.479 . S
C86 C87 1.375 1_556 S
C86 C92 1.404 . S
C87 C86 1.375 1_554 S
C87 C88 1.369 . S
C87 H100 0.950 . S
C88 C87 1.369 . S
C88 C89 1.392 1_554 S
C88 H101 0.951 . S
C89 C88 1.392 1_556 S
C89 C91 1.384 1_655 S
H90 C92 0.949 1_455 S
C91 C89 1.384 1_455 S
C91 C92 1.385 1_455 S
C91 H93 0.950 . S
C92 C86 1.404 . S
C92 H90 0.949 1_655 S
C92 C91 1.385 1_655 S
H93 C91 0.950 . S
H94 C78 0.951 . S
H95 C80 0.951 . S
H96 C82 0.951 . S
H97 C83 0.950 . S
H98 C84 0.950 1_455 S
H99 C85 0.950 1_554 S
H100 C87 0.950 . S
H101 C88 0.951 . S
C31 C1 1.499 1_565 S
C41 C10 1.471 . S
C55 C16 1.496 1_554 S
C65 C27 1.488 1_546 S
C79 N6 1.479 1_556 S
C89 N14 1.460 1_655 S
