# Generated by pormake.
# Topology wje, (4)-cn, num edge types: 1
# Building blocks:
#     Node 0, Type 0, BuildingBlock: NAHDIM_clean_sbu_0, # of connection points: 4
#     Node 1, Type 0, BuildingBlock: NAHDIM_clean_sbu_0, # of connection points: 4
#     Node 2, Type 0, BuildingBlock: NAHDIM_clean_sbu_0, # of connection points: 4
#     Node 3, Type 0, BuildingBlock: NAHDIM_clean_sbu_0, # of connection points: 4
#     Node 4, Type 0, BuildingBlock: NAHDIM_clean_sbu_0, # of connection points: 4
#     Node 5, Type 0, BuildingBlock: NAHDIM_clean_sbu_0, # of connection points: 4
#     Node 6, Type 0, BuildingBlock: NAHDIM_clean_sbu_0, # of connection points: 4
#     Node 7, Type 0, BuildingBlock: NAHDIM_clean_sbu_0, # of connection points: 4
#     Node 8, Type 0, BuildingBlock: NAHDIM_clean_sbu_0, # of connection points: 4
#     Node 9, Type 0, BuildingBlock: NAHDIM_clean_sbu_0, # of connection points: 4
#     Node 10, Type 0, BuildingBlock: NAHDIM_clean_sbu_0, # of connection points: 4
#     Node 11, Type 0, BuildingBlock: NAHDIM_clean_sbu_0, # of connection points: 4
#     Edge 12, Type (0, 0), None
#     Edge 13, Type (0, 0), None
#     Edge 14, Type (0, 0), None
#     Edge 15, Type (0, 0), None
#     Edge 16, Type (0, 0), None
#     Edge 17, Type (0, 0), None
#     Edge 18, Type (0, 0), None
#     Edge 19, Type (0, 0), None
#     Edge 20, Type (0, 0), None
#     Edge 21, Type (0, 0), None
#     Edge 22, Type (0, 0), None
#     Edge 23, Type (0, 0), None
#     Edge 24, Type (0, 0), None
#     Edge 25, Type (0, 0), None
#     Edge 26, Type (0, 0), None
#     Edge 27, Type (0, 0), None
#     Edge 28, Type (0, 0), None
#     Edge 29, Type (0, 0), None
#     Edge 30, Type (0, 0), None
#     Edge 31, Type (0, 0), None
#     Edge 32, Type (0, 0), None
#     Edge 33, Type (0, 0), None
#     Edge 34, Type (0, 0), None
#     Edge 35, Type (0, 0), None
# Relax obj value: 0.149
# Max RMSD: 0.140
# Mean RMSD: 0.139
data_MOF--net-wje--node1-NAHDIM_clean_sbu_0--edge1-none
_symmetry_space_group_name_H-M    P1
_symmetry_Int_Tables_number       1
_symmetry_cell_setting            triclinic
loop_
_symmetry_equiv_pos_as_xyz
'x, y, z'
_cell_length_a     18.54935
_cell_length_b     18.698088
_cell_length_c     17.429912
_cell_angle_alpha  90.515306
_cell_angle_beta   88.930947
_cell_angle_gamma 120.77136
loop_
_atom_site_label
_atom_site_type_symbol
_atom_site_fract_x
_atom_site_fract_y
_atom_site_fract_z
_atom_type_partial_charge
C0 C 0.29003 0.07786 0.15769 0.0
O1 O 0.24471 0.00564 0.12368 0.0
O2 O 0.21624 0.88706 0.28471 0.0
Zn3 Zn 0.33147 0.98827 0.27315 0.0
O4 O 0.42309 0.97343 0.22363 0.0
C5 C 0.33774 0.97344 0.43833 0.0
O6 O 0.29095 0.89301 0.42709 0.0
O7 O 0.32859 0.08262 0.21892 0.0
C8 C 0.45503 0.93841 0.26062 0.0
O9 O 0.42166 0.90332 0.32695 0.0
C10 C 0.19882 0.81209 0.28813 0.0
O11 O 0.25601 0.79299 0.27048 0.0
O12 O 0.36353 0.02387 0.38193 0.0
C13 C 0.15876 0.31044 0.51351 0.0
O14 O 0.22982 0.34424 0.47438 0.0
O15 O 0.30267 0.23253 0.60214 0.0
Zn16 Zn 0.26806 0.31571 0.63021 0.0
O17 O 0.35401 0.43806 0.61157 0.0
C18 C 0.33492 0.32627 0.77244 0.0
O19 O 0.40008 0.37921 0.73139 0.0
O20 O 0.15726 0.28918 0.58304 0.0
C21 C 0.41202 0.47256 0.56106 0.0
O22 O 0.42191 0.42692 0.50907 0.0
C23 C 0.37632 0.24685 0.61455 0.0
O24 O 0.44058 0.32322 0.6123 0.0
O25 O 0.26172 0.29596 0.74505 0.0
C26 C 0.90725 0.22295 0.81762 0.0
O27 O 0.97085 0.27673 0.7749 0.0
O28 O 0.1004 0.32504 0.95884 0.0
Zn29 Zn -0.00195 0.33551 0.94752 0.0
O30 O 0.01881 0.44274 0.89699 0.0
C31 C 0.01062 0.36072 0.11209 0.0
O32 O 0.09135 0.39728 0.09743 0.0
O33 O 0.90672 0.23533 0.88962 0.0
C34 C 0.04863 0.50872 0.93704 0.0
O35 O 0.07172 0.50791 0.00749 0.0
C36 C 0.17544 0.38548 0.96311 0.0
O37 O 0.19312 0.46151 0.94823 0.0
O38 O 0.95837 0.33141 0.05751 0.0
C39 C 0.69209 0.85674 0.15937 0.0
O40 O 0.65044 0.88747 0.12688 0.0
O41 O 0.77051 0.07789 0.27843 0.0
Zn42 Zn 0.69307 0.95537 0.29105 0.0
O43 O 0.57162 0.92426 0.28294 0.0
C44 C 0.65454 0.92516 0.44955 0.0
O45 O 0.57763 0.88063 0.42446 0.0
O46 O 0.71894 0.87904 0.22722 0.0
C47 C 0.53773 0.9516 0.23847 0.0
O48 O 0.58246 0.00424 0.18359 0.0
C49 C 0.75311 0.12065 0.3244 0.0
O50 O 0.68023 0.08526 0.36056 0.0
O51 O 0.71578 0.95171 0.40265 0.0
C52 C 0.78264 0.6988 0.5188 0.0
O53 O 0.74024 0.72441 0.47964 0.0
O54 O 0.66153 0.77341 0.64903 0.0
Zn55 Zn 0.65284 0.66155 0.63547 0.0
O56 O 0.55424 0.57169 0.57632 0.0
C57 C 0.5702 0.58462 0.78017 0.0
O58 O 0.50046 0.54863 0.74156 0.0
O59 O 0.75928 0.67246 0.58718 0.0
C60 C 0.47983 0.55805 0.57539 0.0
O61 O 0.46247 0.61044 0.60953 0.0
C62 C 0.61754 0.78459 0.6997 0.0
O63 O 0.55354 0.72085 0.73343 0.0
O64 O 0.64066 0.62669 0.74555 0.0
C65 C 0.14221 0.84367 0.85149 0.0
O66 O 0.08684 0.78382 0.8078 0.0
O67 O 0.92203 0.70912 0.93533 0.0
Zn68 Zn 0.03352 0.73088 0.97077 0.0
O69 O 0.05263 0.63387 0.9621 0.0
C70 C 0.95167 0.66438 0.10764 0.0
O71 O 0.92156 0.60063 0.06084 0.0
O72 O 0.13254 0.83674 0.92421 0.0
C73 C 0.04389 0.58077 0.91157 0.0
O74 O 0.01847 0.58375 0.84251 0.0
C75 C 0.85916 0.6373 0.9233 0.0
O76 O 0.86935 0.57371 0.91077 0.0
O77 O 0.01167 0.73506 0.08465 0.0
C78 C 0.85035 0.69161 0.48064 0.0
O79 O 0.88534 0.65582 0.5164 0.0
O80 O 0.07013 0.76437 0.35632 0.0
Zn81 Zn 0.94661 0.68666 0.3462 0.0
O82 O 0.91616 0.5666 0.35709 0.0
C83 C 0.92217 0.64879 0.18735 0.0
O84 O 0.88293 0.57197 0.21284 0.0
O85 O 0.86918 0.7123 0.41042 0.0
C86 C 0.95126 0.53671 0.3968 0.0
O87 O 0.01035 0.58469 0.44492 0.0
C88 C 0.11419 0.74731 0.31109 0.0
O89 O 0.07971 0.67473 0.27669 0.0
O90 O 0.9429 0.70838 0.23388 0.0
C91 C 0.21697 0.91528 0.81594 0.0
O92 O 0.27566 0.97278 0.85906 0.0
O93 O 0.32372 0.10991 0.66183 0.0
Zn94 Zn 0.32915 0.00583 0.68117 0.0
O95 O 0.43692 0.02708 0.73202 0.0
C96 C 0.35348 0.0065 0.51593 0.0
O97 O 0.39582 0.08732 0.52482 0.0
O98 O 0.22675 0.919 0.74317 0.0
C99 C 0.50174 0.049 0.69007 0.0
O100 O 0.49905 0.06177 0.61667 0.0
C101 C 0.38745 0.18029 0.6447 0.0
O102 O 0.46326 0.19252 0.65197 0.0
O103 O 0.32172 0.95865 0.57397 0.0
C104 C 0.3023 0.15464 0.12235 0.0
O105 O 0.35167 0.22666 0.1552 0.0
O106 O 0.22503 0.30461 0.02143 0.0
Zn107 Zn 0.30468 0.26288 0.00489 0.0
O108 O 0.42634 0.34876 0.02879 0.0
C109 C 0.34946 0.3079 0.84987 0.0
O110 O 0.42301 0.35646 0.8802 0.0
O111 O 0.27076 0.15295 0.05762 0.0
C112 C 0.45338 0.41533 0.06746 0.0
O113 O 0.39983 0.43091 0.10296 0.0
C114 C 0.24211 0.36961 -0.01653 0.0
O115 O 0.31745 0.41669 0.95369 0.0
O116 O 0.29117 0.25056 0.89004 0.0
C117 C 0.0839 0.3036 0.47827 0.0
O118 O 0.0135 0.27439 0.51791 0.0
O119 O 0.89434 0.22396 0.34378 0.0
Zn120 Zn -0.00305 0.33784 0.35531 0.0
O121 O 0.9817 0.42799 0.40569 0.0
C122 C 0.98142 0.34777 0.19175 0.0
O123 O 0.90067 0.30509 0.20726 0.0
O124 O 0.08917 0.33121 0.41058 0.0
C125 C 0.93976 0.45576 0.37401 0.0
O126 O 0.89859 0.42024 0.31123 0.0
C127 C 0.81805 0.20462 0.34638 0.0
O128 O 0.79759 0.25853 0.37096 0.0
O129 O 0.03428 0.37113 0.24566 0.0
C130 C 0.83532 0.14984 0.78232 0.0
O131 O 0.77117 0.0977 0.82545 0.0
O132 O 0.70775 0.92942 0.70374 0.0
Zn133 Zn 0.72908 0.03852 0.66418 0.0
O134 O 0.62913 0.05408 0.6694 0.0
C135 C 0.6673 0.95485 0.52865 0.0
O136 O 0.60166 0.92352 0.57485 0.0
O137 O 0.83331 0.13756 0.71014 0.0
C138 C 0.57528 0.04853 0.71879 0.0
O139 O 0.57933 0.03047 0.7906 0.0
C140 C 0.63454 0.86828 0.71667 0.0
O141 O 0.57163 0.88054 0.72855 0.0
O142 O 0.73703 0.01602 0.5513 0.0
C143 C 0.69883 0.78978 0.12104 0.0
O144 O 0.73134 0.75188 0.15729 0.0
O145 O 0.76437 0.66241 -0.00479 0.0
Zn146 Zn 0.65359 0.65798 0.00696 0.0
O147 O 0.55775 0.55748 0.06135 0.0
C148 C 0.56682 0.59027 0.86329 0.0
O149 O 0.50566 0.53023 0.90331 0.0
O150 O 0.66546 0.7627 0.05597 0.0
C151 C 0.54055 0.48269 0.05438 0.0
O152 O 0.5927 0.46704 0.01638 0.0
C153 C 0.77545 0.62288 0.94047 0.0
O154 O 0.71155 0.56743 0.90077 0.0
O155 O 0.62619 0.65278 0.89649 0.0
loop_
_geom_bond_atom_site_label_1
_geom_bond_atom_site_label_2
_geom_bond_distance
_geom_bond_site_symmetry_2
_ccdc_geom_bond_type
C0 O1 1.160 . S
C0 O7 1.185 . S
O1 C0 1.160 . S
O2 Zn3 1.899 1_565 S
O2 C10 1.284 . S
Zn3 O2 1.899 1_545 S
Zn3 O4 2.032 . S
Zn3 O7 2.086 . S
Zn3 O12 1.977 . S
O4 Zn3 2.032 . S
O4 C8 1.278 1_545 S
C5 O6 1.203 1_545 S
C5 O12 1.267 . S
O6 C5 1.203 1_565 S
O7 C0 1.185 . S
O7 Zn3 2.086 . S
C8 O4 1.278 1_565 S
C8 O9 1.211 . S
O9 C8 1.211 . S
C10 O2 1.284 . S
C10 O11 1.273 . S
O11 C10 1.273 . S
O12 Zn3 1.977 . S
O12 C5 1.267 . S
C13 O14 1.160 . S
C13 O20 1.185 . S
O14 C13 1.160 . S
O15 Zn16 1.899 . S
O15 C23 1.284 . S
Zn16 O15 1.899 . S
Zn16 O17 2.032 . S
Zn16 O20 2.086 . S
Zn16 O25 1.977 . S
O17 Zn16 2.032 . S
O17 C21 1.278 . S
C18 O19 1.203 . S
C18 O25 1.267 . S
O19 C18 1.203 . S
O20 C13 1.185 . S
O20 Zn16 2.086 . S
C21 O17 1.278 . S
C21 O22 1.211 . S
O22 C21 1.211 . S
C23 O15 1.284 . S
C23 O24 1.273 . S
O24 C23 1.273 . S
O25 Zn16 1.977 . S
O25 C18 1.267 . S
C26 O27 1.160 . S
C26 O33 1.185 . S
O27 C26 1.160 . S
O28 Zn29 1.899 1_455 S
O28 C36 1.284 . S
Zn29 O28 1.899 1_655 S
Zn29 O30 2.032 . S
Zn29 O33 2.086 . S
Zn29 O38 1.977 1_556 S
O30 Zn29 2.032 . S
O30 C34 1.278 1_655 S
C31 O32 1.203 1_655 S
C31 O38 1.267 . S
O32 C31 1.203 1_455 S
O33 C26 1.185 . S
O33 Zn29 2.086 . S
C34 O30 1.278 1_455 S
C34 O35 1.211 1_556 S
O35 C34 1.211 1_554 S
C36 O28 1.284 . S
C36 O37 1.273 . S
O37 C36 1.273 . S
O38 Zn29 1.977 1_554 S
O38 C31 1.267 . S
C39 O40 1.160 . S
C39 O46 1.185 . S
O40 C39 1.160 . S
O41 Zn42 1.899 1_545 S
O41 C49 1.284 . S
Zn42 O41 1.899 1_565 S
Zn42 O43 2.032 . S
Zn42 O46 2.086 . S
Zn42 O51 1.977 . S
O43 Zn42 2.032 . S
O43 C47 1.278 1_565 S
C44 O45 1.203 1_565 S
C44 O51 1.267 . S
O45 C44 1.203 1_545 S
O46 C39 1.185 . S
O46 Zn42 2.086 . S
C47 O43 1.278 1_545 S
C47 O48 1.211 . S
O48 C47 1.211 . S
C49 O41 1.284 . S
C49 O50 1.273 . S
O50 C49 1.273 . S
O51 Zn42 1.977 . S
O51 C44 1.267 . S
C52 O53 1.160 . S
C52 O59 1.185 . S
O53 C52 1.160 . S
O54 Zn55 1.899 . S
O54 C62 1.284 . S
Zn55 O54 1.899 . S
Zn55 O56 2.032 . S
Zn55 O59 2.086 . S
Zn55 O64 1.977 . S
O56 Zn55 2.032 . S
O56 C60 1.278 . S
C57 O58 1.203 . S
C57 O64 1.267 . S
O58 C57 1.203 . S
O59 C52 1.185 . S
O59 Zn55 2.086 . S
C60 O56 1.278 . S
C60 O61 1.211 . S
O61 C60 1.211 . S
C62 O54 1.284 . S
C62 O63 1.273 . S
O63 C62 1.273 . S
O64 Zn55 1.977 . S
O64 C57 1.267 . S
C65 O66 1.160 . S
C65 O72 1.185 . S
O66 C65 1.160 . S
O67 Zn68 1.899 1_655 S
O67 C75 1.284 . S
Zn68 O67 1.899 1_455 S
Zn68 O69 2.032 . S
Zn68 O72 2.086 . S
Zn68 O77 1.977 1_556 S
O69 Zn68 2.032 . S
O69 C73 1.278 1_455 S
C70 O71 1.203 1_455 S
C70 O77 1.267 . S
O71 C70 1.203 1_655 S
O72 C65 1.185 . S
O72 Zn68 2.086 . S
C73 O69 1.278 1_655 S
C73 O74 1.211 1_556 S
O74 C73 1.211 1_554 S
C75 O67 1.284 . S
C75 O76 1.273 . S
O76 C75 1.273 . S
O77 Zn68 1.977 1_554 S
O77 C70 1.267 . S
C78 O79 1.160 . S
C78 O85 1.185 . S
O79 C78 1.160 . S
O80 Zn81 1.899 1_455 S
O80 C88 1.284 . S
Zn81 O80 1.899 1_655 S
Zn81 O82 2.032 . S
Zn81 O85 2.086 . S
Zn81 O90 1.977 . S
O82 Zn81 2.032 . S
O82 C86 1.278 1_655 S
C83 O84 1.203 1_655 S
C83 O90 1.267 . S
O84 C83 1.203 1_455 S
O85 C78 1.185 . S
O85 Zn81 2.086 . S
C86 O82 1.278 1_455 S
C86 O87 1.211 . S
O87 C86 1.211 . S
C88 O80 1.284 . S
C88 O89 1.273 . S
O89 C88 1.273 . S
O90 Zn81 1.977 . S
O90 C83 1.267 . S
C91 O92 1.160 . S
C91 O98 1.185 . S
O92 C91 1.160 . S
O93 Zn94 1.899 1_545 S
O93 C101 1.284 . S
Zn94 O93 1.899 1_565 S
Zn94 O95 2.032 . S
Zn94 O98 2.086 . S
Zn94 O103 1.977 . S
O95 Zn94 2.032 . S
O95 C99 1.278 1_565 S
C96 O97 1.203 1_565 S
C96 O103 1.267 . S
O97 C96 1.203 1_545 S
O98 C91 1.185 . S
O98 Zn94 2.086 . S
C99 O95 1.278 1_545 S
C99 O100 1.211 . S
O100 C99 1.211 . S
C101 O93 1.284 . S
C101 O102 1.273 . S
O102 C101 1.273 . S
O103 Zn94 1.977 . S
O103 C96 1.267 . S
C104 O105 1.160 . S
C104 O111 1.185 . S
O105 C104 1.160 . S
O106 Zn107 1.899 . S
O106 C114 1.284 . S
Zn107 O106 1.899 . S
Zn107 O108 2.032 . S
Zn107 O111 2.086 . S
Zn107 O116 1.977 1_554 S
O108 Zn107 2.032 . S
O108 C112 1.278 . S
C109 O110 1.203 . S
C109 O116 1.267 . S
O110 C109 1.203 . S
O111 C104 1.185 . S
O111 Zn107 2.086 . S
C112 O108 1.278 . S
C112 O113 1.211 1_554 S
O113 C112 1.211 1_556 S
C114 O106 1.284 . S
C114 O115 1.273 . S
O115 C114 1.273 . S
O116 Zn107 1.977 1_556 S
O116 C109 1.267 . S
C117 O118 1.160 . S
C117 O124 1.185 . S
O118 C117 1.160 . S
O119 Zn120 1.899 1_655 S
O119 C127 1.284 . S
Zn120 O119 1.899 1_455 S
Zn120 O121 2.032 . S
Zn120 O124 2.086 . S
Zn120 O129 1.977 . S
O121 Zn120 2.032 . S
O121 C125 1.278 1_455 S
C122 O123 1.203 1_455 S
C122 O129 1.267 . S
O123 C122 1.203 1_655 S
O124 C117 1.185 . S
O124 Zn120 2.086 . S
C125 O121 1.278 1_655 S
C125 O126 1.211 . S
O126 C125 1.211 . S
C127 O119 1.284 . S
C127 O128 1.273 . S
O128 C127 1.273 . S
O129 Zn120 1.977 . S
O129 C122 1.267 . S
C130 O131 1.160 . S
C130 O137 1.185 . S
O131 C130 1.160 . S
O132 Zn133 1.899 1_565 S
O132 C140 1.284 . S
Zn133 O132 1.899 1_545 S
Zn133 O134 2.032 . S
Zn133 O137 2.086 . S
Zn133 O142 1.977 . S
O134 Zn133 2.032 . S
O134 C138 1.278 1_545 S
C135 O136 1.203 1_545 S
C135 O142 1.267 . S
O136 C135 1.203 1_565 S
O137 C130 1.185 . S
O137 Zn133 2.086 . S
C138 O134 1.278 1_565 S
C138 O139 1.211 . S
O139 C138 1.211 . S
C140 O132 1.284 . S
C140 O141 1.273 . S
O141 C140 1.273 . S
O142 Zn133 1.977 . S
O142 C135 1.267 . S
C143 O144 1.160 . S
C143 O150 1.185 . S
O144 C143 1.160 . S
O145 Zn146 1.899 . S
O145 C153 1.284 . S
Zn146 O145 1.899 . S
Zn146 O147 2.032 . S
Zn146 O150 2.086 . S
Zn146 O155 1.977 1_554 S
O147 Zn146 2.032 . S
O147 C151 1.278 . S
C148 O149 1.203 . S
C148 O155 1.267 . S
O149 C148 1.203 . S
O150 C143 1.185 . S
O150 Zn146 2.086 . S
C151 O147 1.278 . S
C151 O152 1.211 1_554 S
O152 C151 1.211 1_556 S
C153 O145 1.284 . S
C153 O154 1.273 . S
O154 C153 1.273 . S
O155 Zn146 1.977 1_556 S
O155 C148 1.267 . S
C0 C104 1.620 . S
C13 C117 1.620 . S
C130 C26 1.584 . S
C143 C39 1.620 . S
C78 C52 1.620 . S
C91 C65 1.584 . S
C8 C47 1.272 1_565 S
C60 C21 1.280 . S
C73 C34 1.233 1_655 S
C86 C125 1.272 1_455 S
C138 C99 1.233 1_565 S
C112 C151 1.280 . S
C88 C10 1.835 . S
C23 C101 1.816 . S
C114 C36 1.816 1_554 S
C127 C49 1.835 . S
C62 C140 1.816 . S
C153 C75 1.816 1_554 S
C5 C96 0.943 1_545 S
C109 C18 0.929 . S
C122 C31 0.943 1_455 S
C44 C135 0.943 1_565 S
C148 C57 0.929 . S
C83 C70 0.943 1_655 S
