# Generated by pormake.
# Topology sma, (6)-cn, num edge types: 1
# Building blocks:
#     Node 0, Type 0, BuildingBlock: BETFAJ_clean_sbu_0, # of connection points: 6
#     Node 1, Type 0, BuildingBlock: BETFAJ_clean_sbu_0, # of connection points: 6
#     Node 2, Type 0, BuildingBlock: BETFAJ_clean_sbu_0, # of connection points: 6
#     Edge 3, Type (0, 0), None
#     Edge 4, Type (0, 0), None
#     Edge 5, Type (0, 0), None
#     Edge 6, Type (0, 0), None
#     Edge 7, Type (0, 0), None
#     Edge 8, Type (0, 0), None
#     Edge 9, Type (0, 0), None
#     Edge 10, Type (0, 0), None
#     Edge 11, Type (0, 0), None
# Relax obj value: 0.244
# Max RMSD: 0.335
# Mean RMSD: 0.226
data_MOF--net-sma--node1-BETFAJ_clean_sbu_0--edge1-none
_symmetry_space_group_name_H-M    P1
_symmetry_Int_Tables_number       1
_symmetry_cell_setting            triclinic
loop_
_symmetry_equiv_pos_as_xyz
'x, y, z'
_cell_length_a     25.368157
_cell_length_b     31.25352
_cell_length_c     6.0933716
_cell_angle_alpha  93.874776
_cell_angle_beta   89.112352
_cell_angle_gamma 152.84181
loop_
_atom_site_label
_atom_site_type_symbol
_atom_site_fract_x
_atom_site_fract_y
_atom_site_fract_z
_atom_type_partial_charge
Sm0 Sm 0.26215 0.68734 0.13928 0.0
Sm1 Sm 1.10068 0.65232 0.1204 0.0
C2 C 0.41463 0.73604 0.06345 0.0
C3 C 0.45026 0.71665 0.08144 0.0
C4 C 0.56897 0.79309 0.09326 0.0
C5 C 0.60751 0.77868 0.1013 0.0
C6 C 0.52818 0.68714 0.09814 0.0
C7 C 0.40878 0.61028 0.08902 0.0
C8 C 0.37005 0.62491 0.08012 0.0
C9 C 0.19927 0.67438 0.53637 0.0
C10 C 0.37537 0.86676 0.10784 0.0
C11 C 0.94814 0.60357 0.19556 0.0
C12 C 0.91254 0.623 0.17769 0.0
C13 C 0.79386 0.5466 0.16657 0.0
C14 C 0.75537 0.56105 0.15854 0.0
C15 C 0.8347 0.65257 0.16102 0.0
C16 C 0.95408 0.72938 0.16949 0.0
C17 C 0.99276 0.71472 0.17837 0.0
C18 C 1.16408 0.6656 0.72356 0.0
C19 C 0.98748 0.47292 0.15223 0.0
O20 O 0.3262 0.68056 0.92202 0.0
O21 O 0.42154 0.76631 0.24456 0.0
O22 O 0.2245 0.71465 0.38209 0.0
O23 O 0.21498 0.64496 0.49318 0.0
O24 O 0.38699 0.83299 0.08094 0.0
O25 O 0.27586 0.81344 0.14495 0.0
O26 O 1.03636 0.65887 0.33741 0.0
O27 O 0.94151 0.57354 0.01432 0.0
O28 O 1.13837 0.62508 0.87784 0.0
O29 O 1.14836 0.69501 0.76656 0.0
O30 O 0.97585 0.50668 0.1789 0.0
O31 O 1.08699 0.52623 0.1152 0.0
H32 H 0.6324 0.86446 0.09437 0.0
H33 H 0.70004 0.83982 0.11029 0.0
H34 H 0.34532 0.53894 0.08689 0.0
H35 H 0.27787 0.56481 0.07099 0.0
H36 H 0.73042 0.47524 0.16595 0.0
H37 H 0.66285 0.49994 0.15006 0.0
H38 H 1.01754 0.80072 0.17108 0.0
H39 H 1.08493 0.77478 0.18696 0.0
Sm40 Sm 0.7637 0.18978 0.1252 0.0
Sm41 Sm 0.59919 0.14993 0.13528 0.0
C42 C 0.88772 0.2097 0.20516 0.0
C43 C 0.8941 0.16689 0.17742 0.0
C44 C 0.86531 1.12074 0.34634 0.0
C45 C 0.88517 1.09087 0.33275 0.0
C46 C 0.93468 1.10682 0.15039 0.0
C47 C 0.96119 0.15114 -0.02068 0.0
C48 C 0.94174 0.1813 -0.00678 0.0
C49 C 0.69734 0.17243 0.72373 0.0
C50 C 0.47835 0.96859 0.10354 0.0
C51 C 0.47501 0.1299 0.05617 0.0
C52 C 0.46868 0.17275 0.08328 0.0
C53 C 0.49753 0.21887 0.91408 0.0
C54 C 0.47768 0.24875 0.92717 0.0
C55 C 0.42812 0.23284 0.10928 0.0
C56 C 0.40156 0.18856 0.28061 0.0
C57 C 0.42099 0.15838 0.26722 0.0
C58 C 0.66553 0.16704 0.53648 0.0
C59 C 0.8845 0.3711 0.15668 0.0
O60 O 0.81853 0.17717 0.34351 0.0
O61 O 0.89351 0.2355 0.02997 0.0
O62 O 0.63211 1.1221 0.8752 0.0
O63 O 0.79865 0.22917 0.77115 0.0
O64 O 0.58322 1.02776 0.14234 0.0
O65 O 0.46229 0.99772 0.06507 0.0
O66 O 0.54359 0.16189 0.91693 0.0
O67 O 0.46994 1.10472 0.23193 0.0
O68 O 0.73066 0.21753 0.38511 0.0
O69 O 0.56418 1.11025 0.48918 0.0
O70 O 0.77963 0.31192 0.11773 0.0
O71 O 0.90056 0.34197 0.1954 0.0
H72 H 0.82969 1.10943 0.49151 0.0
H73 H 0.86198 1.05542 0.4654 0.0
H74 H 1.00034 0.16515 0.83772 0.0
H75 H 0.96712 0.21829 0.86213 0.0
H76 H 0.53319 0.23014 0.76909 0.0
H77 H 0.50091 0.28417 0.79432 0.0
H78 H 0.36236 0.17458 0.42203 0.0
H79 H 0.39555 1.12142 0.39849 0.0
Sm80 Sm 0.8053 0.77836 0.16604 0.0
Sm81 Sm 0.55766 0.56139 0.09253 0.0
C82 C 0.98364 0.95814 0.13492 0.0
C83 C 0.98794 1.0086 0.12814 0.0
C84 C 0.94413 0.99694 0.93718 0.0
C85 C 0.92988 1.0311 0.94279 0.0
C86 C 0.95881 1.07749 0.13935 0.0
C87 C 1.00838 1.09363 0.32679 0.0
C88 C 1.02344 1.06006 0.32085 0.0
C89 C 0.70724 0.69259 0.541 0.0
C90 C 0.5721 0.67409 0.10551 0.0
C91 C 0.3792 0.38154 0.12281 0.0
C92 C 0.3749 0.33108 0.1301 0.0
C93 C 0.41867 0.34279 0.32131 0.0
C94 C 0.43292 0.30862 0.31616 0.0
C95 C 0.40402 0.26219 0.11982 0.0
C96 C 0.35449 0.24601 0.93213 0.0
C97 C 0.33944 0.27958 0.93761 0.0
C98 C 0.65603 0.64756 0.71786 0.0
C99 C 0.79081 0.66565 0.15351 0.0
O100 O 0.92869 0.89714 -0.03674 0.0
O101 O 0.96011 0.92668 0.32254 0.0
O102 O 0.65515 0.67032 0.3736 0.0
O103 O 0.81689 0.76563 0.5222 0.0
O104 O 0.68448 0.74892 0.09162 0.0
O105 O 0.50107 0.59076 0.13091 0.0
O106 O 0.43378 0.44234 0.29462 0.0
O107 O 0.40316 0.41322 0.93527 0.0
O108 O 0.7077 0.66935 0.88509 0.0
O109 O 0.54636 0.57452 0.73652 0.0
O110 O 0.67846 0.59086 0.16765 0.0
O111 O 0.86183 0.74894 0.12773 0.0
H112 H 0.91618 0.95798 0.78534 0.0
H113 H 0.89143 1.01752 0.79573 0.0
H114 H 1.03412 0.13118 0.47916 0.0
H115 H 1.05884 1.07131 0.46977 0.0
H116 H 0.44661 0.38179 0.47299 0.0
H117 H 0.47133 0.32223 0.46341 0.0
H118 H 0.32878 0.20842 0.77991 0.0
H119 H 0.30408 0.26831 0.7885 0.0
loop_
_geom_bond_atom_site_label_1
_geom_bond_atom_site_label_2
_geom_bond_distance
_geom_bond_site_symmetry_2
_ccdc_geom_bond_type
Sm0 C2 2.846 . S
Sm0 O20 2.543 1_554 S
Sm0 O21 2.450 . S
Sm0 O22 2.681 1_455 S
Sm0 O23 2.464 . S
Sm0 O24 2.396 . S
Sm0 O28 2.386 1_554 S
Sm0 O31 2.408 1_455 S
Sm1 C11 2.846 . S
Sm1 O22 2.386 . S
Sm1 O25 2.408 1_655 S
Sm1 O26 2.543 . S
Sm1 O27 2.450 . S
Sm1 O28 2.681 1_654 S
Sm1 O29 2.464 1_554 S
Sm1 O30 2.396 . S
C2 Sm0 2.846 . S
C2 C3 1.506 . S
C2 O20 1.261 1_554 S
C2 O21 1.242 . S
C3 C2 1.506 . S
C3 C4 1.358 1_554 S
C3 C8 1.382 . S
C4 C3 1.358 1_556 S
C4 C5 1.385 . S
C4 H32 0.930 . S
C5 C4 1.385 . S
C5 C6 1.395 1_556 S
C5 H33 0.929 . S
C6 C5 1.395 1_554 S
C6 C7 1.335 . S
C7 C6 1.335 . S
C7 C8 1.398 . S
C7 H34 0.930 . S
C8 C3 1.382 . S
C8 C7 1.398 . S
C8 H35 0.929 . S
C9 O22 1.271 1_455 S
C9 O23 1.251 . S
C10 O24 1.252 . S
C10 O25 1.272 . S
C11 Sm1 2.846 . S
C11 C12 1.506 . S
C11 O26 1.261 . S
C11 O27 1.242 . S
C12 C11 1.506 . S
C12 C13 1.358 . S
C12 C17 1.382 . S
C13 C12 1.358 . S
C13 C14 1.385 . S
C13 H36 0.930 . S
C14 C13 1.385 . S
C14 C15 1.395 . S
C14 H37 0.929 . S
C15 C14 1.395 . S
C15 C16 1.335 . S
C16 C15 1.335 . S
C16 C17 1.398 . S
C16 H38 0.930 1_554 S
C17 C12 1.382 . S
C17 C16 1.398 . S
C17 H39 0.929 1_554 S
C18 O28 1.271 . S
C18 O29 1.251 1_455 S
C19 O30 1.252 . S
C19 O31 1.272 . S
O20 Sm0 2.543 1_556 S
O20 C2 1.261 1_556 S
O21 Sm0 2.450 . S
O21 C2 1.242 . S
O22 Sm0 2.681 1_655 S
O22 Sm1 2.386 . S
O22 C9 1.271 1_655 S
O23 Sm0 2.464 . S
O23 C9 1.251 . S
O24 Sm0 2.396 . S
O24 C10 1.252 . S
O25 Sm1 2.408 1_455 S
O25 C10 1.272 . S
O26 Sm1 2.543 . S
O26 C11 1.261 . S
O27 Sm1 2.450 . S
O27 C11 1.242 . S
O28 Sm0 2.386 1_556 S
O28 Sm1 2.681 1_456 S
O28 C18 1.271 . S
O29 Sm1 2.464 1_556 S
O29 C18 1.251 1_655 S
O30 Sm1 2.396 . S
O30 C19 1.252 . S
O31 Sm0 2.408 1_655 S
O31 C19 1.272 . S
H32 C4 0.930 . S
H33 C5 0.929 . S
H34 C7 0.930 . S
H35 C8 0.929 . S
H36 C13 0.930 . S
H37 C14 0.929 . S
H38 C16 0.930 1_556 S
H39 C17 0.929 1_556 S
Sm40 C42 2.846 1_545 S
Sm40 O60 2.543 1_545 S
Sm40 O61 2.450 1_545 S
Sm40 O62 2.681 . S
Sm40 O63 2.464 1_554 S
Sm40 O64 2.396 1_545 S
Sm40 O68 2.386 . S
Sm40 O71 2.408 . S
Sm41 C51 2.846 . S
Sm41 O62 2.386 . S
Sm41 O65 2.408 1_545 S
Sm41 O66 2.543 . S
Sm41 O67 2.450 . S
Sm41 O68 2.681 . S
Sm41 O69 2.464 . S
Sm41 O70 2.396 . S
C42 Sm40 2.846 1_565 S
C42 C43 1.506 . S
C42 O60 1.261 . S
C42 O61 1.242 . S
C43 C42 1.506 . S
C43 C44 1.358 . S
C43 C48 1.382 . S
C44 C43 1.358 . S
C44 C45 1.385 . S
C44 H72 0.930 . S
C45 C44 1.385 . S
C45 C46 1.395 . S
C45 H73 0.929 . S
C46 C45 1.395 . S
C46 C47 1.335 . S
C47 C46 1.335 . S
C47 C48 1.398 . S
C47 H74 0.930 . S
C48 C43 1.382 . S
C48 C47 1.398 . S
C48 H75 0.929 . S
C49 O62 1.271 1_556 S
C49 O63 1.251 . S
C50 O64 1.252 . S
C50 O65 1.272 . S
C51 Sm41 2.846 . S
C51 C52 1.506 . S
C51 O66 1.261 . S
C51 O67 1.242 . S
C52 C51 1.506 . S
C52 C53 1.358 . S
C52 C57 1.382 . S
C53 C52 1.358 . S
C53 C54 1.385 . S
C53 H76 0.930 . S
C54 C53 1.385 . S
C54 C55 1.395 . S
C54 H77 0.929 . S
C55 C54 1.395 . S
C55 C56 1.335 . S
C56 C55 1.335 . S
C56 C57 1.398 . S
C56 H78 0.930 . S
C57 C52 1.382 . S
C57 C56 1.398 . S
C57 H79 0.929 . S
C58 O68 1.271 . S
C58 O69 1.251 . S
C59 O70 1.252 . S
C59 O71 1.272 . S
O60 Sm40 2.543 1_565 S
O60 C42 1.261 . S
O61 Sm40 2.450 1_565 S
O61 C42 1.242 . S
O62 Sm40 2.681 . S
O62 Sm41 2.386 . S
O62 C49 1.271 1_554 S
O63 Sm40 2.464 1_556 S
O63 C49 1.251 . S
O64 Sm40 2.396 1_565 S
O64 C50 1.252 . S
O65 Sm41 2.408 1_565 S
O65 C50 1.272 . S
O66 Sm41 2.543 . S
O66 C51 1.261 . S
O67 Sm41 2.450 . S
O67 C51 1.242 . S
O68 Sm40 2.386 . S
O68 Sm41 2.681 . S
O68 C58 1.271 . S
O69 Sm41 2.464 . S
O69 C58 1.251 . S
O70 Sm41 2.396 . S
O70 C59 1.252 . S
O71 Sm40 2.408 . S
O71 C59 1.272 . S
H72 C44 0.930 . S
H73 C45 0.929 . S
H74 C47 0.930 . S
H75 C48 0.929 . S
H76 C53 0.930 . S
H77 C54 0.929 . S
H78 C56 0.930 . S
H79 C57 0.929 . S
Sm80 C82 2.846 1_554 S
Sm80 O100 2.543 1_554 S
Sm80 O101 2.450 . S
Sm80 O102 2.681 . S
Sm80 O103 2.464 . S
Sm80 O104 2.396 . S
Sm80 O108 2.386 1_554 S
Sm80 O111 2.408 1_554 S
Sm81 C91 2.846 . S
Sm81 O102 2.386 1_556 S
Sm81 O105 2.408 . S
Sm81 O106 2.543 1_556 S
Sm81 O107 2.450 . S
Sm81 O108 2.681 . S
Sm81 O109 2.464 . S
Sm81 O110 2.396 . S
C82 Sm80 2.846 1_556 S
C82 C83 1.506 . S
C82 O100 1.261 . S
C82 O101 1.242 1_556 S
C83 C82 1.506 . S
C83 C84 1.358 . S
C83 C88 1.382 1_556 S
C84 C83 1.358 . S
C84 C85 1.385 . S
C84 H112 0.930 . S
C85 C84 1.385 . S
C85 C86 1.395 . S
C85 H113 0.929 . S
C86 C85 1.395 . S
C86 C87 1.335 1_556 S
C87 C86 1.335 1_554 S
C87 C88 1.398 . S
C87 H114 0.930 . S
C88 C83 1.382 1_554 S
C88 C87 1.398 . S
C88 H115 0.929 . S
C89 O102 1.271 . S
C89 O103 1.251 . S
C90 O104 1.252 1_556 S
C90 O105 1.272 . S
C91 Sm81 2.846 . S
C91 C92 1.506 . S
C91 O106 1.261 1_556 S
C91 O107 1.242 . S
C92 C91 1.506 . S
C92 C93 1.358 1_556 S
C92 C97 1.382 . S
C93 C92 1.358 1_554 S
C93 C94 1.385 . S
C93 H116 0.930 . S
C94 C93 1.385 . S
C94 C95 1.395 1_554 S
C94 H117 0.929 . S
C95 C94 1.395 1_556 S
C95 C96 1.335 . S
C96 C95 1.335 . S
C96 C97 1.398 . S
C96 H118 0.930 . S
C97 C92 1.382 . S
C97 C96 1.398 . S
C97 H119 0.929 . S
C98 O108 1.271 . S
C98 O109 1.251 . S
C99 O110 1.252 . S
C99 O111 1.272 . S
O100 Sm80 2.543 1_556 S
O100 C82 1.261 . S
O101 Sm80 2.450 . S
O101 C82 1.242 1_554 S
O102 Sm80 2.681 . S
O102 Sm81 2.386 1_554 S
O102 C89 1.271 . S
O103 Sm80 2.464 . S
O103 C89 1.251 . S
O104 Sm80 2.396 . S
O104 C90 1.252 1_554 S
O105 Sm81 2.408 . S
O105 C90 1.272 . S
O106 Sm81 2.543 1_554 S
O106 C91 1.261 1_554 S
O107 Sm81 2.450 . S
O107 C91 1.242 . S
O108 Sm80 2.386 1_556 S
O108 Sm81 2.681 . S
O108 C98 1.271 . S
O109 Sm81 2.464 . S
O109 C98 1.251 . S
O110 Sm81 2.396 . S
O110 C99 1.252 . S
O111 Sm80 2.408 1_556 S
O111 C99 1.272 . S
H112 C84 0.930 . S
H113 C85 0.929 . S
H114 C87 0.930 . S
H115 C88 0.929 . S
H116 C93 0.930 . S
H117 C94 0.929 . S
H118 C96 0.930 . S
H119 C97 0.929 . S
C6 C90 4.599 1_554 S
C59 C19 4.368 . S
C46 C86 3.050 1_554 S
C99 C15 5.317 1_556 S
C50 C10 3.886 . S
C95 C55 2.715 1_556 S
C18 C9 0.622 . S
C49 C58 0.760 . S
C98 C89 0.824 . S
