# Generated by pormake.
# Topology umf, (4)-cn, num edge types: 1
# Building blocks:
#     Node 0, Type 0, BuildingBlock: QUQFOY_clean_sbu_1, # of connection points: 4
#     Node 1, Type 0, BuildingBlock: QUQFOY_clean_sbu_1, # of connection points: 4
#     Node 2, Type 0, BuildingBlock: QUQFOY_clean_sbu_1, # of connection points: 4
#     Node 3, Type 0, BuildingBlock: QUQFOY_clean_sbu_1, # of connection points: 4
#     Node 4, Type 0, BuildingBlock: QUQFOY_clean_sbu_1, # of connection points: 4
#     Node 5, Type 0, BuildingBlock: QUQFOY_clean_sbu_1, # of connection points: 4
#     Node 6, Type 0, BuildingBlock: QUQFOY_clean_sbu_1, # of connection points: 4
#     Node 7, Type 0, BuildingBlock: QUQFOY_clean_sbu_1, # of connection points: 4
#     Edge 8, Type (0, 0), BuildingBlock: EYOCIG_clean_linker_4, # of connection points: 2
#     Edge 9, Type (0, 0), BuildingBlock: EYOCIG_clean_linker_4, # of connection points: 2
#     Edge 10, Type (0, 0), BuildingBlock: EYOCIG_clean_linker_4, # of connection points: 2
#     Edge 11, Type (0, 0), BuildingBlock: EYOCIG_clean_linker_4, # of connection points: 2
#     Edge 12, Type (0, 0), BuildingBlock: EYOCIG_clean_linker_4, # of connection points: 2
#     Edge 13, Type (0, 0), BuildingBlock: EYOCIG_clean_linker_4, # of connection points: 2
#     Edge 14, Type (0, 0), BuildingBlock: EYOCIG_clean_linker_4, # of connection points: 2
#     Edge 15, Type (0, 0), BuildingBlock: EYOCIG_clean_linker_4, # of connection points: 2
#     Edge 16, Type (0, 0), BuildingBlock: EYOCIG_clean_linker_4, # of connection points: 2
#     Edge 17, Type (0, 0), BuildingBlock: EYOCIG_clean_linker_4, # of connection points: 2
#     Edge 18, Type (0, 0), BuildingBlock: EYOCIG_clean_linker_4, # of connection points: 2
#     Edge 19, Type (0, 0), BuildingBlock: EYOCIG_clean_linker_4, # of connection points: 2
#     Edge 20, Type (0, 0), BuildingBlock: EYOCIG_clean_linker_4, # of connection points: 2
#     Edge 21, Type (0, 0), BuildingBlock: EYOCIG_clean_linker_4, # of connection points: 2
#     Edge 22, Type (0, 0), BuildingBlock: EYOCIG_clean_linker_4, # of connection points: 2
#     Edge 23, Type (0, 0), BuildingBlock: EYOCIG_clean_linker_4, # of connection points: 2
# Relax obj value: 0.060
# Max RMSD: 0.225
# Mean RMSD: 0.225
data_MOF--net-umf--node1-QUQFOY_clean_sbu_1--edge1-EYOCIG_clean_linker_4
_symmetry_space_group_name_H-M    P1
_symmetry_Int_Tables_number       1
_symmetry_cell_setting            triclinic
loop_
_symmetry_equiv_pos_as_xyz
'x, y, z'
_cell_length_a     23.132416
_cell_length_b     23.132277
_cell_length_c     41.401535
_cell_angle_alpha  89.989459
_cell_angle_beta   89.967164
_cell_angle_gamma 90.014444
loop_
_atom_site_label
_atom_site_type_symbol
_atom_site_fract_x
_atom_site_fract_y
_atom_site_fract_z
_atom_type_partial_charge
O0 O 1.00285 0.26317 0.1421 0.0
Cd1 Cd 0.0091 0.26989 0.19128 0.0
Cd2 Cd 0.11215 0.22899 0.18012 0.0
O3 O 0.09751 0.26669 0.13481 0.0
O4 O 0.95777 0.33467 0.207 0.0
O5 O 0.05326 0.34072 0.20393 0.0
C6 C 1.00439 0.36506 0.20978 0.0
C7 C 0.17608 0.24574 0.22247 0.0
C8 C 0.04617 0.26887 0.12356 0.0
C9 C 0.03055 0.14705 0.2068 0.0
O10 O 0.07156 0.15186 0.18667 0.0
O11 O 1.00345 0.19163 0.2168 0.0
O12 O 0.19405 0.22081 0.19637 0.0
O13 O 0.12431 0.26603 0.22307 0.0
O14 O 0.86553 0.07068 0.68685 0.0
Cd15 Cd 0.7885 0.11139 0.6803 0.0
Cd16 Cd 0.74738 1.00843 0.69147 0.0
O17 O 0.82558 1.00268 0.717 0.0
O18 O 0.79692 0.19331 0.69651 0.0
O19 O 0.75143 0.12375 0.72324 0.0
C20 C 0.77191 0.17546 0.72262 0.0
C21 C 0.65217 1.00392 0.70995 0.0
C22 C 0.87023 0.0297 0.707 0.0
C23 C 0.74857 0.04544 0.62374 0.0
O24 O 0.75417 1.00213 0.64228 0.0
O25 O 0.75083 0.09678 0.63499 0.0
O26 O 0.68245 0.95725 0.70718 0.0
O27 O 0.67665 0.05274 0.70411 0.0
O28 O 0.01479 0.75349 0.14208 0.0
Cd29 Cd 1.00858 0.74671 0.19127 0.0
Cd30 Cd 0.90568 0.78799 0.18019 0.0
O31 O 0.92012 0.75039 0.13484 0.0
O32 O 0.05976 0.68176 0.2069 0.0
O33 O 0.96425 0.67601 0.204 0.0
C34 C 0.01306 0.65151 0.20977 0.0
C35 C 0.8416 0.77148 0.22255 0.0
C36 C 0.97145 0.74804 0.12356 0.0
C37 C 0.98761 0.86958 0.20684 0.0
O38 O 0.94656 0.86494 0.18675 0.0
O39 O 0.01458 0.8249 0.2168 0.0
O40 O 0.8238 0.79657 0.19646 0.0
O41 O 0.89325 0.75087 0.22311 0.0
O42 O 0.15236 0.94619 0.68676 0.0
Cd43 Cd 0.22937 0.90549 0.68014 0.0
Cd44 Cd 0.27054 1.0084 0.69137 0.0
O45 O 0.19232 0.01408 0.71694 0.0
O46 O 0.22098 0.82355 0.69634 0.0
O47 O 0.26642 0.8931 0.72306 0.0
C48 C 0.24597 0.84138 0.72245 0.0
C49 C 0.36573 0.01288 0.70986 0.0
C50 C 0.14766 0.98711 0.70694 0.0
C51 C 0.26929 0.97161 0.62361 0.0
O52 O 0.26377 0.01486 0.6422 0.0
O53 O 0.26701 0.92022 0.63481 0.0
O54 O 0.33544 0.05956 0.70711 0.0
O55 O 0.34129 0.96408 0.70396 0.0
O56 O 1.00278 0.75401 0.94935 0.0
Cd57 Cd 0.00906 0.74729 0.90017 0.0
Cd58 Cd 0.11208 0.78826 0.91128 0.0
O59 O 0.09743 0.75056 0.9566 0.0
O60 O 0.95777 0.68246 0.88447 0.0
O61 O 0.05325 0.6765 0.8875 0.0
C62 C 1.0044 0.65212 0.88167 0.0
C63 C 0.17608 0.77159 0.86891 0.0
C64 C 0.04608 0.74835 0.96787 0.0
C65 C 0.03049 0.87014 0.88463 0.0
O66 O 0.07149 0.86536 0.90474 0.0
O67 O 1.0034 0.82554 0.87464 0.0
O68 O 0.194 0.79653 0.89501 0.0
O69 O 0.12432 0.75123 0.86833 0.0
O70 O 0.1519 0.07181 0.4049 0.0
Cd71 Cd 0.229 0.11245 0.4114 0.0
Cd72 Cd 0.26997 0.00945 0.40028 0.0
O73 O 0.19174 1.00375 0.37478 0.0
O74 O 0.22077 0.19432 0.39509 0.0
O75 O 0.26606 0.12458 0.36844 0.0
C76 C 0.24572 0.17633 0.36899 0.0
C77 C 0.36516 1.00471 0.38179 0.0
C78 C 0.14713 0.03081 0.38478 0.0
C79 C 0.2689 0.04653 0.46798 0.0
O80 O 0.26321 1.00321 0.44947 0.0
O81 O 0.26671 0.09787 0.45671 0.0
O82 O 0.33476 0.9581 0.3846 0.0
O83 O 0.34082 0.05359 0.3876 0.0
O84 O 0.0149 0.26369 0.94937 0.0
Cd85 Cd 1.00867 0.27047 0.90018 0.0
Cd86 Cd 0.90577 0.22916 0.91134 0.0
O87 O 0.92024 0.26679 0.95668 0.0
O88 O 0.05984 0.33544 0.88451 0.0
O89 O 0.96434 0.34116 0.8875 0.0
C90 C 0.01315 0.36567 0.88168 0.0
C91 C 0.84173 0.24564 0.86901 0.0
C92 C 0.97158 0.26914 0.96792 0.0
C93 C 0.98766 0.14758 0.88463 0.0
O94 O 0.94663 0.15222 0.90476 0.0
O95 O 0.01462 0.19228 0.87464 0.0
O96 O 0.8239 0.22057 0.89511 0.0
O97 O 0.89339 0.26625 0.86842 0.0
O98 O 0.86505 0.94642 0.40475 0.0
Cd99 Cd 0.78812 0.90548 0.41136 0.0
Cd100 Cd 0.74681 1.00844 0.40034 0.0
O101 O 0.82501 0.01461 0.37481 0.0
O102 O 0.79677 0.82365 0.39506 0.0
O103 O 0.75092 0.89308 0.36847 0.0
C104 C 0.7716 0.84146 0.36901 0.0
C105 C 0.65164 0.01307 0.38185 0.0
C106 C 0.86969 0.98759 0.38472 0.0
C107 C 0.74818 0.97105 0.46805 0.0
O108 O 0.75355 0.01444 0.44954 0.0
O109 O 0.75058 0.91975 0.45675 0.0
O110 O 0.6819 0.05974 0.3848 0.0
O111 O 0.67611 0.96421 0.38755 0.0
C112 C 1.00576 0.4778 0.22022 0.0
C113 C 1.00236 0.42634 0.21564 0.0
C114 C 0.01148 0.53876 0.22021 0.0
C115 C 0.01494 0.59023 0.21562 0.0
C116 C 0.47845 0.01129 0.72033 0.0
C117 C 0.427 0.01479 0.71574 0.0
C118 C 0.5394 1.00551 0.72035 0.0
C119 C 0.59087 1.00202 0.7158 0.0
C120 C 0.01156 0.47842 0.87124 0.0
C121 C 0.01503 0.42696 0.87582 0.0
C122 C 1.00582 0.53937 0.87123 0.0
C123 C 1.00239 0.59084 0.87581 0.0
C124 C 0.47794 1.006 0.37139 0.0
C125 C 0.42645 1.00265 0.37595 0.0
C126 C 0.5389 0.01164 0.37141 0.0
C127 C 0.59036 0.01501 0.376 0.0
C128 C 0.99806 0.27811 1.02974 0.0
C129 C 0.98205 0.27432 1.00205 0.0
C130 C 0.01968 0.27806 0.06175 0.0
C131 C 0.03569 0.27419 0.08944 0.0
C132 C 0.73939 0.01894 0.56192 0.0
C133 C 0.74327 0.03494 0.58962 0.0
C134 C 0.7393 0.99736 0.52991 0.0
C135 C 0.74305 0.98142 0.50219 0.0
C136 C 0.99793 0.73909 0.06171 0.0
C137 C 0.98192 0.74287 0.08942 0.0
C138 C 0.01956 0.73915 1.0297 0.0
C139 C 0.03558 0.74303 1.002 0.0
C140 C 0.27813 0.02002 0.5298 0.0
C141 C 0.27424 0.03606 0.50211 0.0
C142 C 0.27822 0.99832 0.5618 0.0
C143 C 0.27445 0.98223 0.58948 0.0
C144 C 0.22785 0.24013 0.27927 0.0
C145 C 0.20778 0.24116 0.25231 0.0
C146 C 0.24003 0.228 0.31215 0.0
C147 C 0.2411 0.20796 0.33913 0.0
C148 C 0.78994 0.23968 0.81223 0.0
C149 C 0.81007 0.24086 0.83918 0.0
C150 C 0.77771 0.22737 0.77938 0.0
C151 C 0.77659 0.2072 0.75244 0.0
C152 C 0.77749 0.78968 0.31221 0.0
C153 C 0.77634 0.80983 0.33915 0.0
C154 C 0.78977 0.77739 0.27935 0.0
C155 C 0.80992 0.77623 0.2524 0.0
C156 C 0.24015 0.78951 0.77923 0.0
C157 C 0.24126 0.80963 0.75227 0.0
C158 C 0.22791 0.7773 0.8121 0.0
C159 C 0.20779 0.77622 0.83906 0.0
C160 C 0.01062 0.03879 0.22236 0.0
C161 C 0.01534 0.08996 0.2174 0.0
C162 C 1.00782 0.97777 0.22238 0.0
C163 C 1.003 0.92661 0.21744 0.0
C164 C 0.03946 1.00704 0.72257 0.0
C165 C 0.09062 1.00234 0.7176 0.0
C166 C 0.97843 0.00976 0.72258 0.0
C167 C 0.92727 0.01447 0.71763 0.0
C168 C 1.0078 0.03941 0.86906 0.0
C169 C 1.00301 0.09057 0.87401 0.0
C170 C 0.01058 0.97838 0.86907 0.0
C171 C 0.01529 0.92721 0.87403 0.0
C172 C 0.97789 1.00795 0.36921 0.0
C173 C 0.92672 1.00307 0.37414 0.0
C174 C 0.03891 0.01082 0.36923 0.0
C175 C 0.09007 0.01558 0.37419 0.0
loop_
_geom_bond_atom_site_label_1
_geom_bond_atom_site_label_2
_geom_bond_distance
_geom_bond_site_symmetry_2
_ccdc_geom_bond_type
O0 Cd1 2.223 . S
O0 C8 1.315 . S
Cd1 O0 2.223 . S
Cd1 O4 2.297 1_455 S
Cd1 O5 2.439 . S
Cd1 O11 2.240 . S
Cd2 O3 2.240 . S
Cd2 O10 2.223 . S
Cd2 O12 2.297 . S
Cd2 O13 2.439 . S
O3 Cd2 2.240 . S
O3 C8 1.279 . S
O4 Cd1 2.297 1_655 S
O4 C6 1.247 1_655 S
O5 Cd1 2.439 . S
O5 C6 1.208 . S
C6 O4 1.247 1_455 S
C6 O5 1.208 . S
C7 O12 1.247 . S
C7 O13 1.208 . S
C8 O0 1.315 . S
C8 O3 1.279 . S
C9 O10 1.315 . S
C9 O11 1.279 . S
O10 Cd2 2.223 . S
O10 C9 1.315 . S
O11 Cd1 2.240 . S
O11 C9 1.279 . S
O12 Cd2 2.297 . S
O12 C7 1.247 . S
O13 Cd2 2.439 . S
O13 C7 1.208 . S
O14 Cd15 2.223 . S
O14 C22 1.315 . S
Cd15 O14 2.223 . S
Cd15 O18 2.297 . S
Cd15 O19 2.439 . S
Cd15 O25 2.240 . S
Cd16 O17 2.240 . S
Cd16 O24 2.223 . S
Cd16 O26 2.297 1_545 S
Cd16 O27 2.439 . S
O17 Cd16 2.240 . S
O17 C22 1.279 . S
O18 Cd15 2.297 . S
O18 C20 1.247 . S
O19 Cd15 2.439 . S
O19 C20 1.208 . S
C20 O18 1.247 . S
C20 O19 1.208 . S
C21 O26 1.247 1_545 S
C21 O27 1.208 . S
C22 O14 1.315 . S
C22 O17 1.279 . S
C23 O24 1.315 . S
C23 O25 1.279 . S
O24 Cd16 2.223 . S
O24 C23 1.315 . S
O25 Cd15 2.240 . S
O25 C23 1.279 . S
O26 Cd16 2.297 1_565 S
O26 C21 1.247 1_565 S
O27 Cd16 2.439 . S
O27 C21 1.208 . S
O28 Cd29 2.223 . S
O28 C36 1.315 . S
Cd29 O28 2.223 . S
Cd29 O32 2.297 1_655 S
Cd29 O33 2.439 . S
Cd29 O39 2.240 . S
Cd30 O31 2.240 . S
Cd30 O38 2.223 . S
Cd30 O40 2.297 . S
Cd30 O41 2.439 . S
O31 Cd30 2.240 . S
O31 C36 1.279 . S
O32 Cd29 2.297 1_455 S
O32 C34 1.247 1_455 S
O33 Cd29 2.439 . S
O33 C34 1.208 . S
C34 O32 1.247 1_655 S
C34 O33 1.208 . S
C35 O40 1.247 . S
C35 O41 1.208 . S
C36 O28 1.315 . S
C36 O31 1.279 . S
C37 O38 1.315 . S
C37 O39 1.279 . S
O38 Cd30 2.223 . S
O38 C37 1.315 . S
O39 Cd29 2.240 . S
O39 C37 1.279 . S
O40 Cd30 2.297 . S
O40 C35 1.247 . S
O41 Cd30 2.439 . S
O41 C35 1.208 . S
O42 Cd43 2.223 . S
O42 C50 1.315 . S
Cd43 O42 2.223 . S
Cd43 O46 2.297 . S
Cd43 O47 2.439 . S
Cd43 O53 2.240 . S
Cd44 O45 2.240 . S
Cd44 O52 2.223 . S
Cd44 O54 2.297 1_565 S
Cd44 O55 2.439 . S
O45 Cd44 2.240 . S
O45 C50 1.279 . S
O46 Cd43 2.297 . S
O46 C48 1.247 . S
O47 Cd43 2.439 . S
O47 C48 1.208 . S
C48 O46 1.247 . S
C48 O47 1.208 . S
C49 O54 1.247 1_565 S
C49 O55 1.208 . S
C50 O42 1.315 . S
C50 O45 1.279 . S
C51 O52 1.315 . S
C51 O53 1.279 . S
O52 Cd44 2.223 . S
O52 C51 1.315 . S
O53 Cd43 2.240 . S
O53 C51 1.279 . S
O54 Cd44 2.297 1_545 S
O54 C49 1.247 1_545 S
O55 Cd44 2.439 . S
O55 C49 1.208 . S
O56 Cd57 2.223 . S
O56 C64 1.315 . S
Cd57 O56 2.223 . S
Cd57 O60 2.297 1_455 S
Cd57 O61 2.439 . S
Cd57 O67 2.240 . S
Cd58 O59 2.240 . S
Cd58 O66 2.223 . S
Cd58 O68 2.297 . S
Cd58 O69 2.439 . S
O59 Cd58 2.240 . S
O59 C64 1.279 . S
O60 Cd57 2.297 1_655 S
O60 C62 1.247 1_655 S
O61 Cd57 2.439 . S
O61 C62 1.208 . S
C62 O60 1.247 1_455 S
C62 O61 1.208 . S
C63 O68 1.247 . S
C63 O69 1.208 . S
C64 O56 1.315 . S
C64 O59 1.279 . S
C65 O66 1.315 . S
C65 O67 1.279 . S
O66 Cd58 2.223 . S
O66 C65 1.315 . S
O67 Cd57 2.240 . S
O67 C65 1.279 . S
O68 Cd58 2.297 . S
O68 C63 1.247 . S
O69 Cd58 2.439 . S
O69 C63 1.208 . S
O70 Cd71 2.223 . S
O70 C78 1.315 . S
Cd71 O70 2.223 . S
Cd71 O74 2.297 . S
Cd71 O75 2.439 . S
Cd71 O81 2.240 . S
Cd72 O73 2.240 . S
Cd72 O80 2.223 . S
Cd72 O82 2.297 1_545 S
Cd72 O83 2.439 . S
O73 Cd72 2.240 . S
O73 C78 1.279 . S
O74 Cd71 2.297 . S
O74 C76 1.247 . S
O75 Cd71 2.439 . S
O75 C76 1.208 . S
C76 O74 1.247 . S
C76 O75 1.208 . S
C77 O82 1.247 1_545 S
C77 O83 1.208 . S
C78 O70 1.315 . S
C78 O73 1.279 . S
C79 O80 1.315 . S
C79 O81 1.279 . S
O80 Cd72 2.223 . S
O80 C79 1.315 . S
O81 Cd71 2.240 . S
O81 C79 1.279 . S
O82 Cd72 2.297 1_565 S
O82 C77 1.247 1_565 S
O83 Cd72 2.439 . S
O83 C77 1.208 . S
O84 Cd85 2.223 . S
O84 C92 1.315 . S
Cd85 O84 2.223 . S
Cd85 O88 2.297 1_655 S
Cd85 O89 2.439 . S
Cd85 O95 2.240 . S
Cd86 O87 2.240 . S
Cd86 O94 2.223 . S
Cd86 O96 2.297 . S
Cd86 O97 2.439 . S
O87 Cd86 2.240 . S
O87 C92 1.279 . S
O88 Cd85 2.297 1_455 S
O88 C90 1.247 1_455 S
O89 Cd85 2.439 . S
O89 C90 1.208 . S
C90 O88 1.247 1_655 S
C90 O89 1.208 . S
C91 O96 1.247 . S
C91 O97 1.208 . S
C92 O84 1.315 . S
C92 O87 1.279 . S
C93 O94 1.315 . S
C93 O95 1.279 . S
O94 Cd86 2.223 . S
O94 C93 1.315 . S
O95 Cd85 2.240 . S
O95 C93 1.279 . S
O96 Cd86 2.297 . S
O96 C91 1.247 . S
O97 Cd86 2.439 . S
O97 C91 1.208 . S
O98 Cd99 2.223 . S
O98 C106 1.315 . S
Cd99 O98 2.223 . S
Cd99 O102 2.297 . S
Cd99 O103 2.439 . S
Cd99 O109 2.240 . S
Cd100 O101 2.240 . S
Cd100 O108 2.223 . S
Cd100 O110 2.297 1_565 S
Cd100 O111 2.439 . S
O101 Cd100 2.240 . S
O101 C106 1.279 . S
O102 Cd99 2.297 . S
O102 C104 1.247 . S
O103 Cd99 2.439 . S
O103 C104 1.208 . S
C104 O102 1.247 . S
C104 O103 1.208 . S
C105 O110 1.247 1_565 S
C105 O111 1.208 . S
C106 O98 1.315 . S
C106 O101 1.279 . S
C107 O108 1.315 . S
C107 O109 1.279 . S
O108 Cd100 2.223 . S
O108 C107 1.315 . S
O109 Cd99 2.240 . S
O109 C107 1.279 . S
O110 Cd100 2.297 1_545 S
O110 C105 1.247 1_545 S
O111 Cd100 2.439 . S
O111 C105 1.208 . S
C112 C113 1.170 . S
C112 C114 1.380 1_455 S
C113 C112 1.170 . S
C114 C112 1.380 1_655 S
C114 C115 1.170 . S
C115 C114 1.170 . S
C116 C117 1.170 . S
C116 C118 1.380 1_565 S
C117 C116 1.170 . S
C118 C116 1.380 1_545 S
C118 C119 1.170 . S
C119 C118 1.170 . S
C120 C121 1.170 . S
C120 C122 1.380 1_655 S
C121 C120 1.170 . S
C122 C120 1.380 1_455 S
C122 C123 1.170 . S
C123 C122 1.170 . S
C124 C125 1.170 . S
C124 C126 1.380 1_545 S
C125 C124 1.170 . S
C126 C124 1.380 1_565 S
C126 C127 1.170 . S
C127 C126 1.170 . S
C128 C129 1.170 . S
C128 C130 1.380 1_656 S
C129 C128 1.170 . S
C130 C128 1.380 1_454 S
C130 C131 1.170 . S
C131 C130 1.170 . S
C132 C133 1.170 . S
C132 C134 1.380 1_545 S
C133 C132 1.170 . S
C134 C132 1.380 1_565 S
C134 C135 1.170 . S
C135 C134 1.170 . S
C136 C137 1.170 . S
C136 C138 1.380 1_654 S
C137 C136 1.170 . S
C138 C136 1.380 1_456 S
C138 C139 1.170 . S
C139 C138 1.170 . S
C140 C141 1.170 . S
C140 C142 1.380 1_545 S
C141 C140 1.170 . S
C142 C140 1.380 1_565 S
C142 C143 1.170 . S
C143 C142 1.170 . S
C144 C145 1.170 . S
C144 C146 1.380 . S
C145 C144 1.170 . S
C146 C144 1.380 . S
C146 C147 1.170 . S
C147 C146 1.170 . S
C148 C149 1.170 . S
C148 C150 1.380 . S
C149 C148 1.170 . S
C150 C148 1.380 . S
C150 C151 1.170 . S
C151 C150 1.170 . S
C152 C153 1.170 . S
C152 C154 1.380 . S
C153 C152 1.170 . S
C154 C152 1.380 . S
C154 C155 1.170 . S
C155 C154 1.170 . S
C156 C157 1.170 . S
C156 C158 1.380 . S
C157 C156 1.170 . S
C158 C156 1.380 . S
C158 C159 1.170 . S
C159 C158 1.170 . S
C160 C161 1.170 . S
C160 C162 1.380 1_445 S
C161 C160 1.170 . S
C162 C160 1.380 1_665 S
C162 C163 1.170 . S
C163 C162 1.170 . S
C164 C165 1.170 . S
C164 C166 1.380 1_465 S
C165 C164 1.170 . S
C166 C164 1.380 1_645 S
C166 C167 1.170 . S
C167 C166 1.170 . S
C168 C169 1.170 . S
C168 C170 1.380 1_645 S
C169 C168 1.170 . S
C170 C168 1.380 1_465 S
C170 C171 1.170 . S
C171 C170 1.170 . S
C172 C173 1.170 . S
C172 C174 1.380 1_665 S
C173 C172 1.170 . S
C174 C172 1.380 1_445 S
C174 C175 1.170 . S
C175 C174 1.170 . S
C113 C6 1.479 . S
C115 C34 1.487 . S
C117 C49 1.479 . S
C119 C21 1.465 . S
C121 C90 1.483 . S
C123 C62 1.467 . S
C125 C77 1.485 . S
C127 C105 1.484 . S
C129 C92 1.438 . S
C131 C8 1.504 . S
C133 C23 1.442 . S
C135 C107 1.493 . S
C137 C36 1.433 . S
C139 C64 1.506 . S
C141 C79 1.501 . S
C143 C51 1.442 . S
C145 C7 1.774 . S
C147 C76 1.774 . S
C149 C91 1.771 . S
C151 C20 1.778 . S
C153 C104 1.776 . S
C155 C35 1.789 . S
C157 C48 1.788 . S
C159 C63 1.769 . S
C161 C9 1.284 . S
C163 C37 1.322 . S
C165 C50 1.319 . S
C167 C22 1.294 . S
C169 C93 1.320 . S
C171 C65 1.285 . S
C173 C106 1.315 . S
C175 C78 1.289 . S
