# Generated by pormake.
# Topology acs, (6)-cn, num edge types: 1
# Building blocks:
#     Node 0, Type 0, BuildingBlock: MIDCAF_clean_sbu_0, # of connection points: 6
#     Node 1, Type 0, BuildingBlock: MIDCAF_clean_sbu_0, # of connection points: 6
#     Edge 2, Type (0, 0), None
#     Edge 3, Type (0, 0), None
#     Edge 4, Type (0, 0), None
#     Edge 5, Type (0, 0), None
#     Edge 6, Type (0, 0), None
#     Edge 7, Type (0, 0), None
# Relax obj value: 0.200
# Max RMSD: 0.235
# Mean RMSD: 0.235
data_MOF--net-acs--node1-MIDCAF_clean_sbu_0--edge1-none
_symmetry_space_group_name_H-M    P1
_symmetry_Int_Tables_number       1
_symmetry_cell_setting            triclinic
loop_
_symmetry_equiv_pos_as_xyz
'x, y, z'
_cell_length_a     11.571653
_cell_length_b     11.571139
_cell_length_c     7.9274487
_cell_angle_alpha  90.00001
_cell_angle_beta   90.00008
_cell_angle_gamma 119.99842
loop_
_atom_site_label
_atom_site_type_symbol
_atom_site_fract_x
_atom_site_fract_y
_atom_site_fract_z
_atom_type_partial_charge
Zn0 Zn 0.57035 0.27157 0.93868 0.0
Zn1 Zn 0.57035 0.27156 0.57134 0.0
Zn2 Zn 0.57035 0.27156 0.25501 0.0
C3 C 0.47294 0.4351 0.49077 0.0
C4 C 0.83129 0.36895 0.49076 0.0
O5 O 0.47216 0.06051 0.16488 0.0
O6 O 0.52892 0.08639 0.89605 0.0
C7 C 0.40679 0.36896 0.01927 0.0
O8 O 0.47216 0.38442 0.34515 0.0
O9 O 0.52892 0.4153 0.61398 0.0
O10 O 0.75551 0.31298 0.61397 0.0
O11 O 0.78139 0.36974 0.34514 0.0
O12 O 0.42661 0.31299 0.89607 0.0
O13 O 0.45748 0.36975 0.1649 0.0
O14 O 0.78139 0.38442 0.16488 0.0
O15 O 0.75551 0.41531 0.89606 0.0
C16 C 0.83129 0.43511 0.01926 0.0
O17 O 0.45748 0.06051 0.34513 0.0
O18 O 0.42661 0.08639 0.61396 0.0
C19 C 0.47294 0.01061 0.01925 0.0
C20 C 0.4068 0.01061 0.49075 0.0
Zn21 Zn 0.237 0.60489 0.07135 0.0
Zn22 Zn 0.237 0.60488 0.43868 0.0
Zn23 Zn 0.237 0.60489 0.75501 0.0
C24 C 0.3344 0.86583 0.51925 0.0
C25 C -0.02394 0.44134 0.51926 0.0
O26 O 0.33518 0.49202 0.84515 0.0
O27 O 0.27842 0.46114 0.11398 0.0
C28 C 0.40055 0.86583 0.99075 0.0
O29 O 0.33519 0.81594 0.66488 0.0
O30 O 0.27842 0.79006 0.39605 0.0
O31 O 0.05183 0.46114 0.39605 0.0
O32 O 0.02595 0.49202 0.66489 0.0
O33 O 0.38074 0.79006 0.11396 0.0
O34 O 0.34987 0.81594 0.84513 0.0
O35 O 0.02595 0.50671 0.84514 0.0
O36 O 0.05183 0.56347 0.11397 0.0
C37 C -0.02394 0.50749 0.99076 0.0
O38 O 0.34986 0.5067 0.6649 0.0
O39 O 0.38074 0.56346 0.39606 0.0
C40 C 0.3344 0.44134 0.99077 0.0
C41 C 0.40054 0.50749 0.51927 0.0
loop_
_geom_bond_atom_site_label_1
_geom_bond_atom_site_label_2
_geom_bond_distance
_geom_bond_site_symmetry_2
_ccdc_geom_bond_type
Zn0 O6 1.920 . S
Zn0 O12 1.898 . S
Zn0 O15 1.905 . S
Zn1 O9 1.905 . S
Zn1 O10 1.898 . S
Zn1 O18 1.920 . S
Zn2 O5 2.080 . S
Zn2 O8 2.114 . S
Zn2 O11 2.120 . S
Zn2 O13 2.120 . S
Zn2 O14 2.114 . S
Zn2 O17 2.080 . S
C3 O8 1.166 . S
C3 O9 1.182 . S
C4 O10 1.167 . S
C4 O11 1.299 . S
O5 Zn2 2.080 . S
O5 C19 1.305 1_554 S
O6 Zn0 1.920 . S
O6 C19 1.234 . S
C7 O12 1.167 . S
C7 O13 1.299 1_556 S
O8 Zn2 2.114 . S
O8 C3 1.166 . S
O9 Zn1 1.905 . S
O9 C3 1.182 . S
O10 Zn1 1.898 . S
O10 C4 1.167 . S
O11 Zn2 2.120 . S
O11 C4 1.299 . S
O12 Zn0 1.898 . S
O12 C7 1.167 . S
O13 Zn2 2.120 . S
O13 C7 1.299 1_554 S
O14 Zn2 2.114 . S
O14 C16 1.166 1_554 S
O15 Zn0 1.905 . S
O15 C16 1.182 . S
C16 O14 1.166 1_556 S
C16 O15 1.182 . S
O17 Zn2 2.080 . S
O17 C20 1.305 . S
O18 Zn1 1.920 . S
O18 C20 1.234 . S
C19 O5 1.305 1_556 S
C19 O6 1.234 . S
C20 O17 1.305 . S
C20 O18 1.234 . S
Zn21 O27 1.920 . S
Zn21 O33 1.898 . S
Zn21 O36 1.905 . S
Zn22 O30 1.905 . S
Zn22 O31 1.898 . S
Zn22 O39 1.920 . S
Zn23 O26 2.080 . S
Zn23 O29 2.114 . S
Zn23 O32 2.120 . S
Zn23 O34 2.120 . S
Zn23 O35 2.114 . S
Zn23 O38 2.080 . S
C24 O29 1.166 . S
C24 O30 1.182 . S
C25 O31 1.167 . S
C25 O32 1.299 . S
O26 Zn23 2.080 . S
O26 C40 1.305 1_556 S
O27 Zn21 1.920 . S
O27 C40 1.234 . S
C28 O33 1.167 . S
C28 O34 1.299 1_554 S
O29 Zn23 2.114 . S
O29 C24 1.166 . S
O30 Zn22 1.905 . S
O30 C24 1.182 . S
O31 Zn22 1.898 . S
O31 C25 1.167 . S
O32 Zn23 2.120 . S
O32 C25 1.299 . S
O33 Zn21 1.898 . S
O33 C28 1.167 . S
O34 Zn23 2.120 . S
O34 C28 1.299 1_556 S
O35 Zn23 2.114 . S
O35 C37 1.166 1_556 S
O36 Zn21 1.905 . S
O36 C37 1.182 . S
C37 O35 1.166 1_554 S
C37 O36 1.182 . S
O38 Zn23 2.080 . S
O38 C41 1.305 . S
O39 Zn22 1.920 . S
O39 C41 1.234 . S
C40 O26 1.305 1_554 S
C40 O27 1.234 . S
C41 O38 1.305 . S
C41 O39 1.234 . S
C28 C19 1.481 1_564 S
C41 C3 1.534 . S
C16 C37 1.556 1_656 S
C24 C20 1.534 1_565 S
C40 C7 1.481 1_554 S
C25 C4 1.451 1_455 S
