# Generated by pormake.
# Topology fne, (5)-cn, num edge types: 1
# Building blocks:
#     Node 0, Type 0, BuildingBlock: BEQFEK_clean_sbu_0, # of connection points: 5
#     Node 1, Type 0, BuildingBlock: BEQFEK_clean_sbu_0, # of connection points: 5
#     Node 2, Type 0, BuildingBlock: BEQFEK_clean_sbu_0, # of connection points: 5
#     Node 3, Type 0, BuildingBlock: BEQFEK_clean_sbu_0, # of connection points: 5
#     Node 4, Type 0, BuildingBlock: BEQFEK_clean_sbu_0, # of connection points: 5
#     Node 5, Type 0, BuildingBlock: BEQFEK_clean_sbu_0, # of connection points: 5
#     Edge 6, Type (0, 0), None
#     Edge 7, Type (0, 0), None
#     Edge 8, Type (0, 0), None
#     Edge 9, Type (0, 0), None
#     Edge 10, Type (0, 0), None
#     Edge 11, Type (0, 0), None
#     Edge 12, Type (0, 0), None
#     Edge 13, Type (0, 0), None
#     Edge 14, Type (0, 0), None
#     Edge 15, Type (0, 0), None
#     Edge 16, Type (0, 0), None
#     Edge 17, Type (0, 0), None
#     Edge 18, Type (0, 0), None
#     Edge 19, Type (0, 0), None
#     Edge 20, Type (0, 0), None
# Relax obj value: 0.311
# Max RMSD: 0.215
# Mean RMSD: 0.215
data_MOF--net-fne--node1-BEQFEK_clean_sbu_0--edge1-none
_symmetry_space_group_name_H-M    P1
_symmetry_Int_Tables_number       1
_symmetry_cell_setting            triclinic
loop_
_symmetry_equiv_pos_as_xyz
'x, y, z'
_cell_length_a     20.844214
_cell_length_b     20.844629
_cell_length_c     10.42327
_cell_angle_alpha  90.000894
_cell_angle_beta   89.999901
_cell_angle_gamma 119.99853
loop_
_atom_site_label
_atom_site_type_symbol
_atom_site_fract_x
_atom_site_fract_y
_atom_site_fract_z
_atom_type_partial_charge
Co0 Co 0.47753 0.16811 0.85215 0.0
Co1 Co 0.43972 0.09362 0.11803 0.0
C2 C 0.58249 0.13311 0.99275 0.0
O3 O 0.56655 0.16085 0.89753 0.0
O4 O 0.53784 0.10241 0.08602 0.0
C5 C 0.49231 0.15521 0.60467 0.0
O6 O 0.52381 0.12051 0.65635 0.0
C7 C 0.45946 0.0859 0.38808 0.0
C8 C 0.38526 0.1266 0.45429 0.0
C9 C 0.44754 0.12295 0.4883 0.0
N10 N 0.41104 0.07508 0.29403 0.0
N11 N 0.36459 0.09609 0.33686 0.0
C12 C 0.5223 0.07144 0.37164 0.0
H13 H 0.5049 0.02234 0.30912 0.0
H14 H 0.56839 0.11963 0.32337 0.0
H15 H 0.54188 0.06198 0.46464 0.0
C16 C 0.46778 0.28822 1.00609 0.0
N17 N 0.45822 0.21968 0.98907 0.0
N18 N 0.45566 0.19184 0.10281 0.0
C19 C 0.4704 0.24401 0.19405 0.0
C20 C 0.46905 0.30306 0.13857 0.0
C21 C 0.50034 0.34449 0.9032 0.0
H22 H 0.54861 0.3432 0.86105 0.0
H23 H 0.5196 0.40064 0.94135 0.0
H24 H 0.45904 0.32868 0.82564 0.0
O25 O 0.39426 0.06934 0.81435 0.0
O26 O 0.35836 0.01262 0.99948 0.0
H27 H 0.4971 0.25986 0.39526 0.0
H28 H 0.57268 0.31404 0.29279 0.0
C29 C 0.52274 0.2583 0.30326 0.0
H30 H 0.54298 0.21854 0.30334 0.0
H31 H 0.32502 0.09897 0.27964 0.0
O32 O 0.48309 0.20077 0.67355 0.0
C33 C 0.35184 0.01209 0.87692 0.0
Co34 Co 0.44042 0.49311 0.18513 0.0
Co35 Co 0.47755 0.45585 0.45137 0.0
C36 C 0.581 0.59814 0.32628 0.0
O37 O 0.53776 0.58149 0.23011 0.0
O38 O 0.56661 0.55425 0.42095 0.0
C39 C 0.46528 0.50546 0.93933 0.0
O40 O 0.53154 0.53485 0.99049 0.0
C41 C 0.50178 0.47222 0.72485 0.0
C42 C 0.38449 0.40301 0.78201 0.0
C43 C 0.45141 0.46212 0.82101 0.0
N44 N 0.46501 0.42593 0.62758 0.0
N45 N 0.39574 0.38223 0.66557 0.0
C46 C 0.5832 0.52573 0.72572 0.0
H47 H 0.61043 0.50361 0.78895 0.0
H48 H 0.60771 0.5333 0.62897 0.0
H49 H 0.59424 0.57893 0.7676 0.0
C50 C 0.31435 0.48957 0.33929 0.0
N51 N 0.37076 0.476 0.32172 0.0
N52 N 0.39635 0.47314 0.435 0.0
C53 C 0.3619 0.49137 0.52648 0.0
C54 C 0.30245 0.4922 0.47191 0.0
C55 C 0.29637 0.52878 0.2392 0.0
H56 H 0.34811 0.57958 0.21035 0.0
H57 H 0.2574 0.54588 0.27561 0.0
H58 H 0.27606 0.49345 0.1528 0.0
O59 O 0.45364 0.40821 0.14683 0.0
O60 O 0.47687 0.37433 0.33183 0.0
H61 H 0.37679 0.52455 0.72505 0.0
H62 H 0.40215 0.59785 0.61512 0.0
C63 C 0.40384 0.54598 0.63111 0.0
H64 H 0.46305 0.56207 0.63098 0.0
H65 H 0.35359 0.34481 0.60535 0.0
O66 O 0.41153 0.4986 0.00829 0.0
C67 C 0.46921 0.36638 0.20954 0.0
Co68 Co 0.08379 0.46219 0.51883 0.0
Co69 Co 0.15829 0.49888 0.78471 0.0
C70 C 0.11879 0.60215 0.65943 0.0
O71 O 0.09105 0.55846 0.56421 0.0
O72 O 0.14949 0.5882 0.7527 0.0
C73 C 0.09669 0.48987 0.27135 0.0
O74 O 0.13137 0.55606 0.32304 0.0
C75 C 0.166 0.52633 0.05477 0.0
C76 C 0.12531 0.41144 0.12097 0.0
C77 C 0.12895 0.47736 0.15498 0.0
N78 N 0.17683 0.48875 0.96072 0.0
N79 N 0.15584 0.42129 1.00354 0.0
C80 C 0.18045 0.60363 0.03833 0.0
H81 H 0.22955 0.63533 0.97582 0.0
H82 H 0.13226 0.60152 0.99005 0.0
H83 H 0.1899 0.63267 0.13133 0.0
C84 C 0.9637 0.33232 0.67277 0.0
N85 N 0.03223 0.39131 0.65575 0.0
N86 N 0.06007 0.4166 0.7695 0.0
C87 C 0.0079 0.37915 0.86073 0.0
C88 C 0.94885 0.31876 0.80525 0.0
C89 C 0.90742 0.30861 0.56988 0.0
H90 H 0.90871 0.35817 0.52772 0.0
H91 H 0.85127 0.27172 0.60803 0.0
H92 H 0.92323 0.28312 0.49232 0.0
O93 O 0.18257 0.4777 0.48102 0.0
O94 O 0.2393 0.49854 0.66616 0.0
H95 H -0.00795 0.39001 0.06194 0.0
H96 H 0.93786 0.4114 0.95946 0.0
C97 C -0.0064 0.4172 0.96994 0.0
H98 H 0.03336 0.47721 0.97002 0.0
H99 H 0.15296 0.37884 0.94632 0.0
O100 O 0.05114 0.43509 0.34023 0.0
C101 C 0.23982 0.49254 0.5436 0.0
Co102 Co 0.7588 0.10008 0.8518 0.0
Co103 Co 0.79606 0.17446 0.11804 0.0
C104 C 0.65377 0.13563 0.99295 0.0
O105 O 0.67042 0.10903 0.89677 0.0
O106 O 0.69766 0.16512 0.08762 0.0
C107 C 0.74645 0.11258 0.60601 0.0
O108 O 0.71707 0.14945 0.65717 0.0
C109 C 0.7797 0.18232 0.39153 0.0
C110 C 0.84891 0.13425 0.44868 0.0
C111 C 0.7898 0.14205 0.48768 0.0
N112 N 0.82599 0.19185 0.29425 0.0
N113 N 0.86969 0.16628 0.33224 0.0
C114 C 0.72617 0.21022 0.39239 0.0
H115 H 0.74828 0.25956 0.45564 0.0
H116 H 0.7186 0.22715 0.29565 0.0
H117 H 0.67297 0.16805 0.43426 0.0
C118 C 0.76234 0.97755 1.00596 0.0
N119 N 0.77592 0.04754 0.98839 0.0
N120 N 0.77878 0.07599 0.10167 0.0
C121 C 0.76054 0.0233 0.19315 0.0
C122 C 0.7597 0.96301 0.13858 0.0
C123 C 0.72313 0.92036 0.90586 0.0
H124 H 0.67234 0.92131 0.87699 0.0
H125 H 0.70603 0.86429 0.94227 0.0
H126 H 0.75847 0.93539 0.81947 0.0
O127 O 0.8437 0.19819 0.81351 0.0
O128 O 0.87759 0.25532 0.99851 0.0
H129 H 0.72736 0.00501 0.39171 0.0
H130 H 0.65406 0.95708 0.28178 0.0
C131 C 0.70593 0.01064 0.29778 0.0
H132 H 0.68984 0.05375 0.29764 0.0
H133 H 0.90711 0.16155 0.27202 0.0
O134 O 0.75332 0.0657 0.67496 0.0
C135 C 0.88553 0.2556 0.87622 0.0
Co136 Co 0.78971 0.77437 0.18548 0.0
Co137 Co 0.75302 0.81218 0.45137 0.0
C138 C 0.64976 0.66941 0.32609 0.0
O139 O 0.69344 0.68536 0.23087 0.0
O140 O 0.6637 0.71406 0.41936 0.0
C141 C 0.76203 0.75959 0.938 0.0
O142 O 0.69584 0.72809 0.98969 0.0
C143 C 0.72557 0.79244 0.72142 0.0
C144 C 0.84047 0.86664 0.78763 0.0
C145 C 0.77455 0.80436 0.82163 0.0
N146 N 0.76316 0.84086 0.62738 0.0
N147 N 0.83062 0.88731 0.6702 0.0
C148 C 0.64827 0.72961 0.70498 0.0
H149 H 0.61656 0.747 0.64248 0.0
H150 H 0.65036 0.68352 0.65671 0.0
H151 H 0.61923 0.71002 0.79799 0.0
C152 C 0.91957 0.78412 0.33943 0.0
N153 N 0.86059 0.79368 0.32241 0.0
N154 N 0.8353 0.79625 0.43615 0.0
C155 C 0.87274 0.78151 0.52739 0.0
C156 C 0.93313 0.78284 0.47191 0.0
C157 C 0.94324 0.75151 0.23656 0.0
H158 H 0.89367 0.70322 0.19449 0.0
H159 H -0.01985 0.73228 0.2747 0.0
H160 H 0.9687 0.79277 0.15893 0.0
O161 O 0.7742 0.85764 0.14768 0.0
O162 O 0.75336 0.89353 0.33282 0.0
H163 H 0.86186 0.75478 0.72859 0.0
H164 H 0.84047 0.67921 0.62608 0.0
C165 C 0.83468 0.72916 0.63657 0.0
H166 H 0.77467 0.70891 0.63664 0.0
H167 H 0.87307 0.92688 0.61298 0.0
O168 O 0.81681 0.76881 1.00688 0.0
C169 C 0.75936 0.90005 0.21026 0.0
Co170 Co 0.15181 0.81148 0.51847 0.0
Co171 Co 0.07742 0.77435 0.78471 0.0
C172 C 0.11627 0.6709 0.65962 0.0
O173 O 0.14286 0.71415 0.56344 0.0
O174 O 0.08677 0.6853 0.75428 0.0
C175 C 0.1393 0.78662 0.27267 0.0
O176 O 0.10244 0.72036 0.32383 0.0
C177 C 0.06956 0.75012 0.05819 0.0
C178 C 0.11761 0.8674 0.11537 0.0
C179 C 0.10982 0.80049 0.15436 0.0
N180 N 0.06003 0.78689 0.96092 0.0
N181 N 0.08558 0.85615 0.99893 0.0
C182 C 0.04166 0.66871 0.05905 0.0
H183 H -0.00769 0.64147 0.12227 0.0
H184 H 0.02474 0.6442 0.9623 0.0
H185 H 0.08383 0.65767 0.10095 0.0
C186 C 0.27432 0.93756 0.67263 0.0
N187 N 0.20435 0.88114 0.65506 0.0
N188 N 0.17589 0.85556 0.76834 0.0
C189 C 0.22857 0.89003 0.85982 0.0
C190 C 0.28885 0.94949 0.80525 0.0
C191 C 0.33152 0.95555 0.57254 0.0
H192 H 0.33058 0.90382 0.54366 0.0
H193 H 0.38759 -0.00548 0.60896 0.0
H194 H 0.31649 0.97587 0.48615 0.0
O195 O 0.05369 0.79825 0.48018 0.0
O196 O -0.00343 0.77502 0.66518 0.0
H197 H 0.24688 0.87517 0.0584 0.0
H198 H 0.29483 0.84982 0.94848 0.0
C199 C 0.24126 0.84811 0.96447 0.0
H200 H 0.19816 0.7889 0.96434 0.0
H201 H 0.0903 0.8983 0.93871 0.0
O202 O 0.18618 0.84037 0.34163 0.0
C203 C -0.00372 0.78268 0.54288 0.0
loop_
_geom_bond_atom_site_label_1
_geom_bond_atom_site_label_2
_geom_bond_distance
_geom_bond_site_symmetry_2
_ccdc_geom_bond_type
Co0 O3 1.970 . S
Co0 N17 1.989 . S
Co0 O25 1.967 . S
Co0 O32 1.920 . S
Co1 O4 1.966 . S
Co1 N10 2.022 . S
Co1 N18 1.993 . S
Co1 O26 1.941 . S
C2 O3 1.258 . S
C2 O4 1.263 1_556 S
O3 Co0 1.970 . S
O3 C2 1.258 . S
O4 Co1 1.966 . S
O4 C2 1.263 1_554 S
C5 O6 1.235 . S
C5 O32 1.289 . S
O6 C5 1.235 . S
C7 C9 1.400 . S
C7 N10 1.351 . S
C7 C12 1.501 . S
C8 C9 1.387 . S
C8 N11 1.341 . S
C9 C7 1.400 . S
C9 C8 1.387 . S
N10 Co1 2.022 . S
N10 C7 1.351 . S
N10 N11 1.365 . S
N11 C8 1.341 . S
N11 N10 1.365 . S
N11 H31 0.862 . S
C12 C7 1.501 . S
C12 H13 0.961 . S
C12 H14 0.961 . S
C12 H15 0.960 . S
H13 C12 0.961 . S
H14 C12 0.961 . S
H15 C12 0.960 . S
C16 N17 1.342 . S
C16 C20 1.401 1_556 S
C16 C21 1.499 . S
N17 Co0 1.989 . S
N17 C16 1.342 . S
N17 N18 1.388 1_556 S
N18 Co1 1.993 . S
N18 N17 1.388 1_554 S
N18 C19 1.346 . S
C19 N18 1.346 . S
C19 C20 1.396 . S
C19 C29 1.510 . S
C20 C16 1.401 1_554 S
C20 C19 1.396 . S
C21 C16 1.499 . S
C21 H22 0.959 . S
C21 H23 0.960 . S
C21 H24 0.961 . S
H22 C21 0.959 . S
H23 C21 0.960 . S
H24 C21 0.961 . S
O25 Co0 1.967 . S
O25 C33 1.258 . S
O26 Co1 1.941 . S
O26 C33 1.266 1_554 S
H27 C29 0.959 . S
H28 C29 0.961 . S
C29 C19 1.510 . S
C29 H27 0.959 . S
C29 H28 0.961 . S
C29 H30 0.960 . S
H30 C29 0.960 . S
H31 N11 0.862 . S
O32 Co0 1.920 . S
O32 C5 1.289 . S
C33 O25 1.258 . S
C33 O26 1.266 1_556 S
Co34 O37 1.970 . S
Co34 N51 1.989 . S
Co34 O59 1.967 . S
Co34 O66 1.920 1_554 S
Co35 O38 1.966 . S
Co35 N44 2.022 . S
Co35 N52 1.993 . S
Co35 O60 1.941 . S
C36 O37 1.258 . S
C36 O38 1.263 . S
O37 Co34 1.970 . S
O37 C36 1.258 . S
O38 Co35 1.966 . S
O38 C36 1.263 . S
C39 O40 1.235 1_556 S
C39 O66 1.289 . S
O40 C39 1.235 1_554 S
C41 C43 1.400 . S
C41 N44 1.351 . S
C41 C46 1.501 . S
C42 C43 1.387 . S
C42 N45 1.341 . S
C43 C41 1.400 . S
C43 C42 1.387 . S
N44 Co35 2.022 . S
N44 C41 1.351 . S
N44 N45 1.365 . S
N45 C42 1.341 . S
N45 N44 1.365 . S
N45 H65 0.862 . S
C46 C41 1.501 . S
C46 H47 0.961 . S
C46 H48 0.961 . S
C46 H49 0.960 . S
H47 C46 0.961 . S
H48 C46 0.961 . S
H49 C46 0.960 . S
C50 N51 1.342 . S
C50 C54 1.401 . S
C50 C55 1.499 . S
N51 Co34 1.989 . S
N51 C50 1.342 . S
N51 N52 1.388 . S
N52 Co35 1.993 . S
N52 N51 1.388 . S
N52 C53 1.346 . S
C53 N52 1.346 . S
C53 C54 1.396 . S
C53 C63 1.510 . S
C54 C50 1.401 . S
C54 C53 1.396 . S
C55 C50 1.499 . S
C55 H56 0.959 . S
C55 H57 0.960 . S
C55 H58 0.961 . S
H56 C55 0.959 . S
H57 C55 0.960 . S
H58 C55 0.961 . S
O59 Co34 1.967 . S
O59 C67 1.258 . S
O60 Co35 1.941 . S
O60 C67 1.266 . S
H61 C63 0.959 . S
H62 C63 0.961 . S
C63 C53 1.510 . S
C63 H61 0.959 . S
C63 H62 0.961 . S
C63 H64 0.960 . S
H64 C63 0.960 . S
H65 N45 0.862 . S
O66 Co34 1.920 1_556 S
O66 C39 1.289 . S
C67 O59 1.258 . S
C67 O60 1.266 . S
Co68 O71 1.970 . S
Co68 N85 1.989 . S
Co68 O93 1.967 . S
Co68 O100 1.920 . S
Co69 O72 1.966 . S
Co69 N78 2.022 . S
Co69 N86 1.993 . S
Co69 O94 1.941 . S
C70 O71 1.258 . S
C70 O72 1.263 . S
O71 Co68 1.970 . S
O71 C70 1.258 . S
O72 Co69 1.966 . S
O72 C70 1.263 . S
C73 O74 1.235 . S
C73 O100 1.289 1_655 S
O74 C73 1.235 . S
C75 C77 1.400 . S
C75 N78 1.351 1_554 S
C75 C80 1.501 . S
C76 C77 1.387 . S
C76 N79 1.341 . S
C77 C75 1.400 . S
C77 C76 1.387 . S
N78 Co69 2.022 . S
N78 C75 1.351 1_556 S
N78 N79 1.365 1_556 S
N79 C76 1.341 . S
N79 N78 1.365 1_554 S
N79 H99 0.862 . S
C80 C75 1.501 . S
C80 H81 0.961 1_554 S
C80 H82 0.961 . S
C80 H83 0.960 . S
H81 C80 0.961 1_556 S
H82 C80 0.961 . S
H83 C80 0.960 . S
C84 N85 1.342 1_655 S
C84 C88 1.401 . S
C84 C89 1.499 . S
N85 Co68 1.989 . S
N85 C84 1.342 1_455 S
N85 N86 1.388 . S
N86 Co69 1.993 . S
N86 N85 1.388 . S
N86 C87 1.346 1_455 S
C87 N86 1.346 1_655 S
C87 C88 1.396 . S
C87 C97 1.510 . S
C88 C84 1.401 . S
C88 C87 1.396 . S
C89 C84 1.499 . S
C89 H90 0.959 . S
C89 H91 0.960 . S
C89 H92 0.961 . S
H90 C89 0.959 . S
H91 C89 0.960 . S
H92 C89 0.961 . S
O93 Co68 1.967 . S
O93 C101 1.258 . S
O94 Co69 1.941 . S
O94 C101 1.266 . S
H95 C97 0.959 . S
H96 C97 0.961 . S
C97 C87 1.510 . S
C97 H95 0.959 . S
C97 H96 0.961 . S
C97 H98 0.960 1_655 S
H98 C97 0.960 1_455 S
H99 N79 0.862 . S
O100 Co68 1.920 . S
O100 C73 1.289 1_455 S
C101 O93 1.258 . S
C101 O94 1.266 . S
Co102 O105 1.970 . S
Co102 N119 1.989 . S
Co102 O127 1.967 . S
Co102 O134 1.920 . S
Co103 O106 1.966 . S
Co103 N112 2.022 . S
Co103 N120 1.993 . S
Co103 O128 1.941 . S
C104 O105 1.258 . S
C104 O106 1.263 1_556 S
O105 Co102 1.970 . S
O105 C104 1.258 . S
O106 Co103 1.966 . S
O106 C104 1.263 1_554 S
C107 O108 1.235 1_545 S
C107 O134 1.289 . S
O108 C107 1.235 1_565 S
C109 C111 1.400 . S
C109 N112 1.351 . S
C109 C114 1.501 . S
C110 C111 1.387 . S
C110 N113 1.341 . S
C111 C109 1.400 . S
C111 C110 1.387 . S
N112 Co103 2.022 . S
N112 C109 1.351 . S
N112 N113 1.365 . S
N113 C110 1.341 . S
N113 N112 1.365 . S
N113 H133 0.862 . S
C114 C109 1.501 . S
C114 H115 0.961 . S
C114 H116 0.961 . S
C114 H117 0.960 . S
H115 C114 0.961 . S
H116 C114 0.961 . S
H117 C114 0.960 . S
C118 N119 1.342 1_565 S
C118 C122 1.401 1_556 S
C118 C123 1.499 . S
N119 Co102 1.989 . S
N119 C118 1.342 1_545 S
N119 N120 1.388 1_556 S
N120 Co103 1.993 . S
N120 N119 1.388 1_554 S
N120 C121 1.346 1_545 S
C121 N120 1.346 1_565 S
C121 C122 1.396 . S
C121 C131 1.510 . S
C122 C118 1.401 1_554 S
C122 C121 1.396 . S
C123 C118 1.499 . S
C123 H124 0.959 . S
C123 H125 0.960 . S
C123 H126 0.961 . S
H124 C123 0.959 . S
H125 C123 0.960 . S
H126 C123 0.961 . S
O127 Co102 1.967 . S
O127 C135 1.258 . S
O128 Co103 1.941 . S
O128 C135 1.266 1_554 S
H129 C131 0.959 . S
H130 C131 0.961 . S
C131 C121 1.510 . S
C131 H129 0.959 . S
C131 H130 0.961 . S
C131 H132 0.960 1_565 S
H132 C131 0.960 1_545 S
H133 N113 0.862 . S
O134 Co102 1.920 . S
O134 C107 1.289 . S
C135 O127 1.258 . S
C135 O128 1.266 1_556 S
Co136 O139 1.970 . S
Co136 N153 1.989 . S
Co136 O161 1.967 . S
Co136 O168 1.920 1_554 S
Co137 O140 1.966 . S
Co137 N146 2.022 . S
Co137 N154 1.993 . S
Co137 O162 1.941 . S
C138 O139 1.258 . S
C138 O140 1.263 . S
O139 Co136 1.970 . S
O139 C138 1.258 . S
O140 Co137 1.966 . S
O140 C138 1.263 . S
C141 O142 1.235 1_556 S
C141 O168 1.289 . S
O142 C141 1.235 1_554 S
C143 C145 1.400 . S
C143 N146 1.351 . S
C143 C148 1.501 . S
C144 C145 1.387 . S
C144 N147 1.341 . S
C145 C143 1.400 . S
C145 C144 1.387 . S
N146 Co137 2.022 . S
N146 C143 1.351 . S
N146 N147 1.365 . S
N147 C144 1.341 . S
N147 N146 1.365 . S
N147 H167 0.862 . S
C148 C143 1.501 . S
C148 H149 0.961 . S
C148 H150 0.961 . S
C148 H151 0.960 . S
H149 C148 0.961 . S
H150 C148 0.961 . S
H151 C148 0.960 . S
C152 N153 1.342 . S
C152 C156 1.401 1_655 S
C152 C157 1.499 1_655 S
N153 Co136 1.989 . S
N153 C152 1.342 . S
N153 N154 1.388 . S
N154 Co137 1.993 . S
N154 N153 1.388 . S
N154 C155 1.346 . S
C155 N154 1.346 . S
C155 C156 1.396 1_655 S
C155 C165 1.510 . S
C156 C152 1.401 1_455 S
C156 C155 1.396 1_455 S
C157 C152 1.499 1_455 S
C157 H158 0.959 1_455 S
C157 H159 0.960 . S
C157 H160 0.961 . S
H158 C157 0.959 1_655 S
H159 C157 0.960 . S
H160 C157 0.961 . S
O161 Co136 1.967 . S
O161 C169 1.258 . S
O162 Co137 1.941 . S
O162 C169 1.266 . S
H163 C165 0.959 1_455 S
H164 C165 0.961 . S
C165 C155 1.510 . S
C165 H163 0.959 1_655 S
C165 H164 0.961 . S
C165 H166 0.960 . S
H166 C165 0.960 . S
H167 N147 0.862 . S
O168 Co136 1.920 1_556 S
O168 C141 1.289 . S
C169 O161 1.258 . S
C169 O162 1.266 . S
Co170 O173 1.970 . S
Co170 N187 1.989 . S
Co170 O195 1.967 . S
Co170 O202 1.920 . S
Co171 O174 1.966 . S
Co171 N180 2.022 . S
Co171 N188 1.993 . S
Co171 O196 1.941 . S
C172 O173 1.258 . S
C172 O174 1.263 . S
O173 Co170 1.970 . S
O173 C172 1.258 . S
O174 Co171 1.966 . S
O174 C172 1.263 . S
C175 O176 1.235 . S
C175 O202 1.289 . S
O176 C175 1.235 . S
C177 C179 1.400 . S
C177 N180 1.351 1_554 S
C177 C182 1.501 . S
C178 C179 1.387 . S
C178 N181 1.341 . S
C179 C177 1.400 . S
C179 C178 1.387 . S
N180 Co171 2.022 . S
N180 C177 1.351 1_556 S
N180 N181 1.365 1_556 S
N181 C178 1.341 . S
N181 N180 1.365 1_554 S
N181 H201 0.862 . S
C182 C177 1.501 . S
C182 H183 0.961 1_554 S
C182 H184 0.961 . S
C182 H185 0.960 . S
H183 C182 0.961 1_556 S
H184 C182 0.961 . S
H185 C182 0.960 . S
C186 N187 1.342 . S
C186 C190 1.401 1_565 S
C186 C191 1.499 1_565 S
N187 Co170 1.989 . S
N187 C186 1.342 . S
N187 N188 1.388 . S
N188 Co171 1.993 . S
N188 N187 1.388 . S
N188 C189 1.346 . S
C189 N188 1.346 . S
C189 C190 1.396 1_565 S
C189 C199 1.510 . S
C190 C186 1.401 1_545 S
C190 C189 1.396 1_545 S
C191 C186 1.499 1_545 S
C191 H192 0.959 1_545 S
C191 H193 0.960 . S
C191 H194 0.961 . S
H192 C191 0.959 1_565 S
H193 C191 0.960 . S
H194 C191 0.961 . S
O195 Co170 1.967 . S
O195 C203 1.258 . S
O196 Co171 1.941 . S
O196 C203 1.266 . S
H197 C199 0.959 1_545 S
H198 C199 0.961 . S
C199 C189 1.510 . S
C199 H197 0.959 1_565 S
C199 H198 0.961 . S
C199 H200 0.960 . S
H200 C199 0.960 . S
H201 N181 0.862 . S
O202 Co170 1.920 . S
O202 C175 1.289 . S
C203 O195 1.258 . S
C203 O196 1.266 . S
C2 C104 1.679 . S
C138 C36 1.679 . S
C70 C172 1.679 . S
C9 C5 2.338 . S
C43 C39 2.338 . S
C77 C73 2.338 1_455 S
C107 C111 2.338 . S
C145 C141 2.338 . S
C175 C179 2.338 . S
C20 C67 2.335 . S
C54 C101 2.335 . S
C135 C88 2.335 . S
C122 C169 2.335 . S
C203 C156 2.335 . S
C190 C33 2.335 . S
