# Generated by pormake.
# Topology dmp, (4)-cn, num edge types: 1
# Building blocks:
#     Node 0, Type 0, BuildingBlock: AZAVOO_clean_sbu_0, # of connection points: 4
#     Node 1, Type 0, BuildingBlock: AZAVOO_clean_sbu_0, # of connection points: 4
#     Node 2, Type 0, BuildingBlock: AZAVOO_clean_sbu_0, # of connection points: 4
#     Node 3, Type 0, BuildingBlock: AZAVOO_clean_sbu_0, # of connection points: 4
#     Edge 4, Type (0, 0), BuildingBlock: OJICUG_clean_linker_0, # of connection points: 2
#     Edge 5, Type (0, 0), BuildingBlock: OJICUG_clean_linker_0, # of connection points: 2
#     Edge 6, Type (0, 0), BuildingBlock: OJICUG_clean_linker_0, # of connection points: 2
#     Edge 7, Type (0, 0), BuildingBlock: OJICUG_clean_linker_0, # of connection points: 2
#     Edge 8, Type (0, 0), BuildingBlock: OJICUG_clean_linker_0, # of connection points: 2
#     Edge 9, Type (0, 0), BuildingBlock: OJICUG_clean_linker_0, # of connection points: 2
#     Edge 10, Type (0, 0), BuildingBlock: OJICUG_clean_linker_0, # of connection points: 2
#     Edge 11, Type (0, 0), BuildingBlock: OJICUG_clean_linker_0, # of connection points: 2
# Relax obj value: 0.231
# Max RMSD: 0.261
# Mean RMSD: 0.261
data_MOF--net-dmp--node1-AZAVOO_clean_sbu_0--edge1-OJICUG_clean_linker_0
_symmetry_space_group_name_H-M    P1
_symmetry_Int_Tables_number       1
_symmetry_cell_setting            triclinic
loop_
_symmetry_equiv_pos_as_xyz
'x, y, z'
_cell_length_a     27.754989
_cell_length_b     11.088313
_cell_length_c     15.942619
_cell_angle_alpha  89.979098
_cell_angle_beta   90.190656
_cell_angle_gamma 102.43268
loop_
_atom_site_label
_atom_site_type_symbol
_atom_site_fract_x
_atom_site_fract_y
_atom_site_fract_z
_atom_type_partial_charge
Mg0 Mg 0.06552 0.11932 0.35341 0.0
O1 O 0.12698 0.26653 0.29554 0.0
O2 O 0.18155 0.1757 0.23221 0.0
Mg3 Mg 0.14909 0.96759 0.23637 0.0
C4 C 0.16724 0.27226 0.25581 0.0
C5 C 0.01922 0.29619 0.46078 0.0
O6 O 0.03405 0.2277 0.51855 0.0
O7 O 0.02877 0.08304 0.22501 0.0
O8 O 0.08202 0.99248 0.15762 0.0
O9 O 0.11485 0.12018 0.46329 0.0
O10 O 0.11202 0.99398 0.35475 0.0
C11 C 0.0423 0.03323 0.15934 0.0
C12 C 0.13331 0.03954 0.42309 0.0
O13 O 0.02484 0.27185 0.38393 0.0
Mg14 Mg 0.39947 0.90453 0.35377 0.0
O15 O 0.33752 0.75799 0.29596 0.0
O16 O 0.28287 0.84924 0.23256 0.0
Mg17 Mg 0.31584 0.05715 0.23656 0.0
C18 C 0.29713 0.75253 0.25622 0.0
C19 C 0.44537 0.72611 0.46113 0.0
O20 O 0.43094 0.79481 0.51898 0.0
O21 O 0.4357 0.93976 0.22533 0.0
O22 O 0.3824 0.03074 0.15778 0.0
O23 O 0.35067 0.90472 0.46363 0.0
O24 O 0.35332 0.03071 0.35499 0.0
C25 C 0.42199 0.98939 0.15956 0.0
C26 C 0.33221 0.98553 0.42335 0.0
O27 O 0.43973 0.75102 0.38431 0.0
Mg28 Mg 0.89792 0.90092 0.66481 0.0
O29 O 0.83646 0.7537 0.72267 0.0
O30 O 0.78189 0.84453 0.786 0.0
Mg31 Mg 0.81435 0.05264 0.78185 0.0
C32 C 0.7962 0.74797 0.76241 0.0
C33 C 0.94422 0.72404 0.55744 0.0
O34 O 0.92939 0.79254 0.49967 0.0
O35 O 0.93467 0.93719 0.79321 0.0
O36 O 0.88142 0.02775 0.8606 0.0
O37 O 0.84859 0.90005 0.55493 0.0
O38 O 0.85142 0.02625 0.66347 0.0
C39 C 0.92114 0.987 0.85888 0.0
C40 C 0.83013 0.9807 0.59513 0.0
O41 O 0.9386 0.74838 0.63429 0.0
Mg42 Mg 0.56397 0.11569 0.66446 0.0
O43 O 0.62592 0.26224 0.72226 0.0
O44 O 0.68057 0.17098 0.78566 0.0
Mg45 Mg 0.6476 0.96308 0.78166 0.0
C46 C 0.66631 0.2677 0.762 0.0
C47 C 0.51807 0.29411 0.55709 0.0
O48 O 0.5325 0.22542 0.49924 0.0
O49 O 0.52775 0.08046 0.79289 0.0
O50 O 0.58104 0.98949 0.86045 0.0
O51 O 0.61277 0.1155 0.55459 0.0
O52 O 0.61012 0.98951 0.66323 0.0
C53 C 0.54146 0.03084 0.85866 0.0
C54 C 0.63123 0.03469 0.59487 0.0
O55 O 0.52371 0.26921 0.63391 0.0
C56 C 0.27123 0.11784 0.44156 0.0
C57 C 0.28201 1.00003 0.44108 0.0
H58 H 0.21458 0.22222 0.44 0.0
C59 C 0.24338 0.895 0.44421 0.0
H60 H 0.3006 0.19972 0.43762 0.0
C61 C 0.19439 0.90765 0.44249 0.0
C62 C 0.18361 0.02544 0.44096 0.0
H63 H 0.25103 0.80325 0.44187 0.0
H64 H 0.165 0.82571 0.43926 0.0
C65 C 0.22225 0.13052 0.44316 0.0
C66 C 0.18104 0.50208 0.24297 0.0
C67 C 0.20026 0.3947 0.24411 0.0
H68 H 0.19674 0.69987 0.24409 0.0
C69 C 0.25165 0.40618 0.2417 0.0
H70 H 0.14156 0.49592 0.24472 0.0
C71 C 0.28322 0.52285 0.24272 0.0
C72 C 0.264 0.63021 0.24435 0.0
H73 H 0.26754 0.32509 0.24322 0.0
H74 H 0.3227 0.52899 0.24425 0.0
C75 C 0.21261 0.61877 0.24219 0.0
C76 C 0.72005 0.12522 0.57401 0.0
C77 C 0.68143 0.02019 0.57714 0.0
H78 H 0.79843 0.19453 0.57896 0.0
C79 C 0.69221 0.90238 0.57666 0.0
H80 H 0.7124 0.21697 0.57636 0.0
C81 C 0.74119 0.88971 0.57506 0.0
C82 C 0.77983 0.9948 0.57726 0.0
H83 H 0.66284 0.8205 0.5806 0.0
H84 H 0.74886 0.79802 0.57822 0.0
C85 C 0.76905 0.11258 0.57573 0.0
C86 C 0.7824 0.51815 0.77524 0.0
C87 C 0.76318 0.62553 0.77411 0.0
H88 H 0.7667 0.32036 0.77413 0.0
C89 C 0.71179 0.61405 0.77651 0.0
H90 H 0.82188 0.52431 0.7735 0.0
C91 C 0.68022 0.49738 0.7755 0.0
C92 C 0.69944 0.39001 0.77387 0.0
H93 H 0.6959 0.69514 0.77499 0.0
H94 H 0.64073 0.49123 0.77397 0.0
C95 C 0.75083 0.40146 0.77603 0.0
C96 C 0.02534 0.96666 0.00959 0.0
C97 C 0.01123 0.02159 0.08253 0.0
H98 H 0.00826 0.91254 0.88223 0.0
C99 C 0.96723 0.06491 0.08111 0.0
H100 H 0.05899 0.93216 1.00825 0.0
C101 C 0.9381 0.05357 1.00863 0.0
C102 C 0.95221 0.99864 0.93569 0.0
H103 H 0.95518 0.10769 0.13599 0.0
H104 H 0.90445 0.08807 0.00997 0.0
C105 C -0.00379 0.95532 0.93711 0.0
C106 C 0.52512 0.96568 1.00865 0.0
C107 C 0.5108 0.02034 0.93557 0.0
H108 H 0.5086 0.91293 0.13623 0.0
C109 C 0.46704 0.06466 0.93698 0.0
H110 H 0.5586 0.93044 0.01 0.0
C111 C 0.43832 0.05455 0.00958 0.0
C112 C 0.45264 0.99989 0.08266 0.0
H113 H 0.45484 0.1073 0.88199 0.0
H114 H 0.40484 0.08979 1.00822 0.0
C115 C 0.4964 0.95557 0.08125 0.0
C116 C 0.97633 0.53576 0.59404 0.0
C117 C 0.96418 0.61567 0.53292 0.0
H118 H 0.00277 0.37184 0.61921 0.0
C119 C 0.96978 0.58888 0.44774 0.0
H120 H 0.97223 0.55338 0.66017 0.0
C121 C -0.01289 0.48448 0.42418 0.0
C122 C -0.00074 0.40456 0.4853 0.0
H123 H 0.96067 0.6484 0.39901 0.0
H124 H -0.00879 0.46685 0.35805 0.0
C125 C -0.00634 0.43136 0.57048 0.0
C126 C 0.47623 0.5363 0.42423 0.0
C127 C 0.46478 0.61671 0.48548 0.0
H128 H 0.50154 0.37098 0.39878 0.0
C129 C 0.47047 0.58936 0.57061 0.0
H130 H 0.47203 0.55432 0.35812 0.0
C131 C 0.48721 0.48392 0.594 0.0
C132 C 0.49866 0.40351 0.53274 0.0
H133 H 0.46189 0.64924 0.61944 0.0
H134 H 0.49141 0.46591 0.6601 0.0
C135 C 0.49297 0.43086 0.44761 0.0
loop_
_geom_bond_atom_site_label_1
_geom_bond_atom_site_label_2
_geom_bond_distance
_geom_bond_site_symmetry_2
_ccdc_geom_bond_type
Mg0 O1 2.028 . S
Mg0 O7 1.986 . S
Mg0 O9 2.114 . S
Mg0 O10 2.251 . S
Mg0 O13 2.010 . S
O1 Mg0 2.028 . S
O1 C4 1.250 . S
O2 Mg3 2.028 . S
O2 C4 1.248 . S
Mg3 O2 2.028 . S
Mg3 O8 2.032 . S
Mg3 O10 2.079 . S
C4 O1 1.250 . S
C4 O2 1.248 . S
C5 O6 1.264 1_455 S
C5 O13 1.249 . S
O6 C5 1.264 1_655 S
O7 Mg0 1.986 . S
O7 C11 1.246 . S
O8 Mg3 2.032 . S
O8 C11 1.259 . S
O9 Mg0 2.114 . S
O9 C12 1.252 . S
O10 Mg0 2.251 . S
O10 Mg3 2.079 . S
O10 C12 1.273 . S
C11 O7 1.246 . S
C11 O8 1.259 . S
C12 O9 1.252 . S
C12 O10 1.273 . S
O13 Mg0 2.010 . S
O13 C5 1.249 . S
Mg14 O15 2.028 . S
Mg14 O21 1.986 . S
Mg14 O23 2.114 . S
Mg14 O24 2.251 . S
Mg14 O27 2.010 . S
O15 Mg14 2.028 . S
O15 C18 1.250 . S
O16 Mg17 2.028 . S
O16 C18 1.248 . S
Mg17 O16 2.028 . S
Mg17 O22 2.032 . S
Mg17 O24 2.079 . S
C18 O15 1.250 . S
C18 O16 1.248 . S
C19 O20 1.264 . S
C19 O27 1.249 . S
O20 C19 1.264 . S
O21 Mg14 1.986 . S
O21 C25 1.246 . S
O22 Mg17 2.032 . S
O22 C25 1.259 . S
O23 Mg14 2.114 . S
O23 C26 1.252 . S
O24 Mg14 2.251 . S
O24 Mg17 2.079 . S
O24 C26 1.273 . S
C25 O21 1.246 . S
C25 O22 1.259 . S
C26 O23 1.252 . S
C26 O24 1.273 . S
O27 Mg14 2.010 . S
O27 C19 1.249 . S
Mg28 O29 2.028 . S
Mg28 O35 1.986 . S
Mg28 O37 2.114 . S
Mg28 O38 2.251 . S
Mg28 O41 2.010 . S
O29 Mg28 2.028 . S
O29 C32 1.250 . S
O30 Mg31 2.028 . S
O30 C32 1.248 . S
Mg31 O30 2.028 . S
Mg31 O36 2.032 . S
Mg31 O38 2.079 . S
C32 O29 1.250 . S
C32 O30 1.248 . S
C33 O34 1.264 1_655 S
C33 O41 1.249 . S
O34 C33 1.264 1_455 S
O35 Mg28 1.986 . S
O35 C39 1.246 . S
O36 Mg31 2.032 . S
O36 C39 1.259 . S
O37 Mg28 2.114 . S
O37 C40 1.252 . S
O38 Mg28 2.251 . S
O38 Mg31 2.079 . S
O38 C40 1.273 . S
C39 O35 1.246 . S
C39 O36 1.259 . S
C40 O37 1.252 . S
C40 O38 1.273 . S
O41 Mg28 2.010 . S
O41 C33 1.249 . S
Mg42 O43 2.028 . S
Mg42 O49 1.986 . S
Mg42 O51 2.114 . S
Mg42 O52 2.251 . S
Mg42 O55 2.010 . S
O43 Mg42 2.028 . S
O43 C46 1.250 . S
O44 Mg45 2.028 . S
O44 C46 1.248 . S
Mg45 O44 2.028 . S
Mg45 O50 2.032 . S
Mg45 O52 2.079 . S
C46 O43 1.250 . S
C46 O44 1.248 . S
C47 O48 1.264 . S
C47 O55 1.249 . S
O48 C47 1.264 . S
O49 Mg42 1.986 . S
O49 C53 1.246 . S
O50 Mg45 2.032 . S
O50 C53 1.259 . S
O51 Mg42 2.114 . S
O51 C54 1.252 . S
O52 Mg42 2.251 . S
O52 Mg45 2.079 . S
O52 C54 1.273 . S
C53 O49 1.246 . S
C53 O50 1.259 . S
C54 O51 1.252 . S
C54 O52 1.273 . S
O55 Mg42 2.010 . S
O55 C47 1.249 . S
C56 C57 1.387 . S
C56 H60 0.950 . S
C56 C65 1.390 1_565 S
C57 C56 1.387 . S
C57 C59 1.387 . S
H58 C65 0.950 . S
C59 C57 1.387 . S
C59 C61 1.390 1_565 S
C59 H63 0.950 . S
H60 C56 0.950 . S
C61 C59 1.390 1_545 S
C61 C62 1.387 . S
C61 H64 0.950 . S
C62 C61 1.387 . S
C62 C65 1.387 . S
H63 C59 0.950 . S
H64 C61 0.950 . S
C65 C56 1.390 1_545 S
C65 H58 0.950 . S
C65 C62 1.387 . S
C66 C67 1.387 . S
C66 H70 0.950 . S
C66 C75 1.390 . S
C67 C66 1.387 . S
C67 C69 1.387 . S
H68 C75 0.950 . S
C69 C67 1.387 . S
C69 C71 1.390 . S
C69 H73 0.950 . S
H70 C66 0.950 . S
C71 C69 1.390 . S
C71 C72 1.387 . S
C71 H74 0.950 . S
C72 C71 1.387 . S
C72 C75 1.387 . S
H73 C69 0.950 . S
H74 C71 0.950 . S
C75 C66 1.390 . S
C75 H68 0.950 . S
C75 C72 1.387 . S
C76 C77 1.387 . S
C76 H80 0.950 . S
C76 C85 1.390 1_545 S
C77 C76 1.387 . S
C77 C79 1.387 . S
H78 C85 0.950 . S
C79 C77 1.387 . S
C79 C81 1.390 1_545 S
C79 H83 0.950 . S
H80 C76 0.950 . S
C81 C79 1.390 1_565 S
C81 C82 1.387 . S
C81 H84 0.950 . S
C82 C81 1.387 . S
C82 C85 1.387 . S
H83 C79 0.950 . S
H84 C81 0.950 . S
C85 C76 1.390 1_565 S
C85 H78 0.950 . S
C85 C82 1.387 . S
C86 C87 1.387 . S
C86 H90 0.950 . S
C86 C95 1.390 . S
C87 C86 1.387 . S
C87 C89 1.387 . S
H88 C95 0.950 . S
C89 C87 1.387 . S
C89 C91 1.390 . S
C89 H93 0.950 . S
H90 C86 0.950 . S
C91 C89 1.390 . S
C91 C92 1.387 . S
C91 H94 0.950 . S
C92 C91 1.387 . S
C92 C95 1.387 . S
H93 C89 0.950 . S
H94 C91 0.950 . S
C95 C86 1.390 . S
C95 H88 0.950 . S
C95 C92 1.387 . S
C96 C97 1.387 1_565 S
C96 H100 0.950 . S
C96 C105 1.390 1_554 S
C97 C96 1.387 1_545 S
C97 C99 1.387 1_455 S
H98 C105 0.950 . S
C99 C97 1.387 1_655 S
C99 C101 1.390 1_554 S
C99 H103 0.950 . S
H100 C96 0.950 . S
C101 C99 1.390 1_556 S
C101 C102 1.387 1_545 S
C101 H104 0.950 . S
C102 C101 1.387 1_565 S
C102 C105 1.387 1_655 S
H103 C99 0.950 . S
H104 C101 0.950 . S
C105 C96 1.390 1_556 S
C105 H98 0.950 . S
C105 C102 1.387 1_455 S
C106 C107 1.387 1_554 S
C106 H110 0.950 . S
C106 C115 1.390 1_545 S
C107 C106 1.387 1_556 S
C107 C109 1.387 . S
H108 C115 0.950 . S
C109 C107 1.387 . S
C109 C111 1.390 1_545 S
C109 H113 0.950 . S
H110 C106 0.950 . S
C111 C109 1.390 1_565 S
C111 C112 1.387 1_556 S
C111 H114 0.950 . S
C112 C111 1.387 1_554 S
C112 C115 1.387 . S
H113 C109 0.950 . S
H114 C111 0.950 . S
C115 C106 1.390 1_565 S
C115 H108 0.950 . S
C115 C112 1.387 . S
C116 C117 1.387 . S
C116 H120 0.950 . S
C116 C125 1.390 1_655 S
C117 C116 1.387 . S
C117 C119 1.387 . S
H118 C125 0.950 . S
C119 C117 1.387 . S
C119 C121 1.390 1_655 S
C119 H123 0.950 . S
H120 C116 0.950 . S
C121 C119 1.390 1_455 S
C121 C122 1.387 . S
C121 H124 0.950 . S
C122 C121 1.387 . S
C122 C125 1.387 . S
H123 C119 0.950 . S
H124 C121 0.950 . S
C125 C116 1.390 1_455 S
C125 H118 0.950 . S
C125 C122 1.387 . S
C126 C127 1.387 . S
C126 H130 0.950 . S
C126 C135 1.390 . S
C127 C126 1.387 . S
C127 C129 1.387 . S
H128 C135 0.950 . S
C129 C127 1.387 . S
C129 C131 1.390 . S
C129 H133 0.950 . S
H130 C126 0.950 . S
C131 C129 1.390 . S
C131 C132 1.387 . S
C131 H134 0.950 . S
C132 C131 1.387 . S
C132 C135 1.387 . S
H133 C129 0.950 . S
H134 C131 0.950 . S
C135 C126 1.390 . S
C135 H128 0.950 . S
C135 C132 1.387 . S
C57 C26 1.169 . S
C62 C12 1.169 . S
C67 C4 0.974 . S
C72 C18 0.974 . S
C77 C54 1.169 . S
C82 C40 1.169 . S
C87 C32 0.967 . S
C92 C46 0.967 . S
C97 C11 1.527 . S
C102 C39 1.527 . S
C107 C53 1.526 . S
C112 C25 1.526 . S
C117 C33 1.630 . S
C122 C5 1.630 . S
C127 C19 1.633 . S
C132 C47 1.633 . S
