# Generated by pormake.
# Topology sxa, (6)-cn, num edge types: 1
# Building blocks:
#     Node 0, Type 0, BuildingBlock: BETDEL_clean_sbu_0, # of connection points: 6
#     Node 1, Type 0, BuildingBlock: BETDEL_clean_sbu_0, # of connection points: 6
#     Node 2, Type 0, BuildingBlock: BETDEL_clean_sbu_0, # of connection points: 6
#     Node 3, Type 0, BuildingBlock: BETDEL_clean_sbu_0, # of connection points: 6
#     Edge 4, Type (0, 0), BuildingBlock: AJUNOK_clean_linker_0, # of connection points: 2
#     Edge 5, Type (0, 0), BuildingBlock: AJUNOK_clean_linker_0, # of connection points: 2
#     Edge 6, Type (0, 0), BuildingBlock: AJUNOK_clean_linker_0, # of connection points: 2
#     Edge 7, Type (0, 0), BuildingBlock: AJUNOK_clean_linker_0, # of connection points: 2
#     Edge 8, Type (0, 0), BuildingBlock: AJUNOK_clean_linker_0, # of connection points: 2
#     Edge 9, Type (0, 0), BuildingBlock: AJUNOK_clean_linker_0, # of connection points: 2
#     Edge 10, Type (0, 0), BuildingBlock: AJUNOK_clean_linker_0, # of connection points: 2
#     Edge 11, Type (0, 0), BuildingBlock: AJUNOK_clean_linker_0, # of connection points: 2
#     Edge 12, Type (0, 0), BuildingBlock: AJUNOK_clean_linker_0, # of connection points: 2
#     Edge 13, Type (0, 0), BuildingBlock: AJUNOK_clean_linker_0, # of connection points: 2
#     Edge 14, Type (0, 0), BuildingBlock: AJUNOK_clean_linker_0, # of connection points: 2
#     Edge 15, Type (0, 0), BuildingBlock: AJUNOK_clean_linker_0, # of connection points: 2
# Relax obj value: 0.081
# Max RMSD: 0.224
# Mean RMSD: 0.224
data_MOF--net-sxa--node1-BETDEL_clean_sbu_0--edge1-AJUNOK_clean_linker_0
_symmetry_space_group_name_H-M    P1
_symmetry_Int_Tables_number       1
_symmetry_cell_setting            triclinic
loop_
_symmetry_equiv_pos_as_xyz
'x, y, z'
_cell_length_a     21.078159
_cell_length_b     19.584924
_cell_length_c     10.205894
_cell_angle_alpha  92.219372
_cell_angle_beta   89.88697
_cell_angle_gamma 90.865024
loop_
_atom_site_label
_atom_site_type_symbol
_atom_site_fract_x
_atom_site_fract_y
_atom_site_fract_z
_atom_type_partial_charge
Dy0 Dy 0.074 0.78649 0.03166 0.0
C1 C 0.89583 0.79637 0.42263 0.0
C2 C 0.16384 0.80304 0.84414 0.0
Dy3 Dy 0.99836 0.78997 0.25521 0.0
O4 O 0.13548 0.74574 0.8689 0.0
O5 O 0.1287 0.85125 0.89441 0.0
O6 O 0.12515 0.69738 0.10355 0.0
O7 O 1.02697 0.69972 0.12531 0.0
C8 C 0.07514 0.66151 0.12891 0.0
C9 C 1.00991 0.91115 0.12862 0.0
O10 O 0.0904 0.79088 0.36671 0.0
O11 O 0.14515 0.82287 0.18343 0.0
O12 O 0.90561 0.83315 0.32237 0.0
O13 O 0.94507 0.75769 0.43858 0.0
O14 O 0.95686 0.88313 0.16078 0.0
O15 O 0.05325 0.8722 0.1594 0.0
O16 O 0.97064 0.78519 0.95511 0.0
O17 O 0.94664 0.71877 0.12193 0.0
C18 C 0.14371 0.81127 0.31001 0.0
C19 C 0.9285 0.74513 0.01317 0.0
Dy20 Dy 0.58994 0.32295 0.02218 0.0
C21 C 0.41458 0.28244 0.43322 0.0
C22 C 0.70341 0.31144 0.89851 0.0
Dy23 Dy 0.5104 0.31588 0.26461 0.0
O24 O 0.66739 0.26132 0.93284 0.0
O25 O 0.67092 0.36765 0.90898 0.0
O26 O 0.53883 0.23373 0.93537 0.0
O27 O 0.5582 0.23653 0.13901 0.0
C28 C 0.53433 0.20085 0.0428 0.0
C29 C 0.5239 0.44361 0.16957 0.0
O30 O 0.60196 0.30448 0.37098 0.0
O31 O 0.66114 0.32942 0.18696 0.0
O32 O 0.4381 0.24189 0.34258 0.0
O33 O 0.44756 0.33924 0.43947 0.0
O34 O 0.47386 0.42172 0.22937 0.0
O35 O 0.56529 0.39797 0.17302 0.0
O36 O 0.49751 0.35743 0.93741 0.0
O37 O 0.44527 0.29835 0.09871 0.0
C38 C 0.65716 0.31602 0.31273 0.0
C39 C 0.44492 0.33103 -0.01137 0.0
Dy40 Dy 0.10225 0.26757 0.92657 0.0
C41 C 0.90455 0.28811 0.56213 0.0
C42 C 0.20324 0.25588 0.08487 0.0
Dy43 Dy 1.01339 0.27703 0.70839 0.0
O44 O 0.1596 0.30166 0.10054 0.0
O45 O 0.17835 0.20607 0.01389 0.0
O46 O 0.14748 0.36499 0.86569 0.0
O47 O 0.04996 0.35565 0.85277 0.0
C48 C 0.09591 0.39766 0.84594 0.0
C49 C 1.02206 0.15039 0.80726 0.0
O50 O 0.10443 0.28326 0.59081 0.0
O51 O 0.16359 0.23832 0.75643 0.0
O52 O 0.91275 0.24998 0.66055 0.0
O53 O 0.9579 0.3206 0.53826 0.0
O54 O 0.97075 0.17482 0.76138 0.0
O55 O 0.06673 0.19169 0.78832 0.0
O56 O 1.00735 0.25511 0.02758 0.0
O57 O 0.97377 0.33183 0.88372 0.0
C58 C 0.15856 0.2591 0.6357 0.0
C59 C 0.96365 0.29802 -0.00923 0.0
Dy60 Dy 0.5734 0.78853 0.94859 0.0
C61 C 0.39318 0.80248 0.55406 0.0
C62 C 0.6622 0.75526 0.12662 0.0
Dy63 Dy 0.49785 0.7981 0.71344 0.0
O64 O 0.63302 0.81322 0.12545 0.0
O65 O 0.62844 0.71188 0.05621 0.0
O66 O 0.62252 0.88733 0.91441 0.0
O67 O 0.527 0.87755 0.86526 0.0
C68 C 0.57354 0.91927 0.87439 0.0
C69 C 0.50882 0.67078 0.81478 0.0
O70 O 0.59199 0.80481 0.60903 0.0
O71 O 0.64582 0.76888 0.79072 0.0
O72 O 0.40284 0.7601 0.64521 0.0
O73 O 0.4437 0.84154 0.54207 0.0
O74 O 0.45602 0.69684 0.77969 0.0
O75 O 0.55144 0.71428 0.79655 0.0
O76 O 0.46953 0.77984 0.01873 0.0
O77 O 0.45095 0.85858 0.87104 0.0
C78 C 0.6451 0.78561 0.66638 0.0
C79 C 0.42958 0.82389 0.96906 0.0
C80 C 0.13785 0.49221 -0.00349 0.0
C81 C 0.09006 0.46687 0.91048 0.0
C82 C 0.13006 0.55233 0.07385 0.0
C83 C 0.07441 0.59084 0.06786 0.0
H84 H 0.18167 0.46499 0.00547 0.0
H85 H 0.16898 0.56997 0.1363 0.0
S86 S 0.93776 0.55049 0.8461 0.0
N87 N 0.98663 0.48658 0.81816 0.0
N88 N 0.97215 0.60066 0.95955 0.0
C89 C 1.02649 0.56657 0.98015 0.0
C90 C 1.03439 0.50468 0.90227 0.0
C91 C 0.46957 0.54409 0.07802 0.0
C92 C 0.52469 0.5048 0.08603 0.0
C93 C 0.46399 0.59556 -0.01307 0.0
C94 C 0.51483 0.61337 0.90536 0.0
H95 H 0.42996 0.53494 0.14262 0.0
H96 H 0.41976 0.62231 -0.01751 0.0
S97 S 0.6746 0.53714 0.90592 0.0
N98 N 0.63435 0.49393 0.01551 0.0
N99 N 0.62483 0.59281 0.84818 0.0
C100 C 0.57197 0.57811 0.9186 0.0
C101 C 0.57696 0.52393 0.00879 0.0
C102 C 0.50957 1.02621 0.88329 0.0
C103 C 0.56314 0.99083 0.92399 0.0
C104 C 0.49718 0.09265 0.93259 0.0
C105 C 0.53705 0.1258 0.02665 0.0
H106 H 0.47774 1.00301 0.81057 0.0
H107 H 0.45754 0.11958 0.89248 0.0
S108 S 0.68021 0.05409 0.1754 0.0
N109 N 0.65419 0.99326 0.07171 0.0
N110 N 0.63008 0.11743 0.16377 0.0
C111 C 0.58881 0.09004 0.07327 0.0
C112 C 0.60218 1.02287 0.02175 0.0
C113 C 0.05023 1.02938 0.08457 0.0
C114 C 1.01755 0.96964 0.04067 0.0
C115 C 0.05385 0.08731 0.00677 0.0
C116 C 1.02483 0.08736 0.88262 0.0
H117 H 0.07144 1.0321 0.18128 0.0
H118 H 0.07701 0.13314 0.04656 0.0
S119 S 0.94351 0.94049 0.7127 0.0
N120 N 0.96409 0.9117 0.85619 0.0
N121 N 0.96782 1.02104 0.71448 0.0
C122 C 0.99447 1.02724 0.83565 0.0
C123 C 0.99174 0.96815 0.91342 0.0
C124 C 0.28045 0.76356 0.52738 0.0
C125 C 0.3299 0.80864 0.49137 0.0
C126 C 0.21919 0.76747 0.47469 0.0
C127 C 0.20485 0.81617 0.38242 0.0
H128 H 0.28908 0.72421 0.59664 0.0
H129 H 0.1836 0.73022 0.50246 0.0
S130 S 0.31426 0.95208 0.26831 0.0
N131 N 0.3582 0.90793 0.36761 0.0
N132 N 0.24353 0.91451 0.26552 0.0
C133 C 0.2531 0.86319 0.3488 0.0
C134 C 0.31544 0.85965 0.40391 0.0
C135 C 0.24355 0.324 0.52125 0.0
C136 C 0.21863 0.26099 0.56044 0.0
C137 C 0.30767 0.3309 0.4843 0.0
C138 C 0.34887 0.27483 0.48336 0.0
H139 H 0.21428 0.36903 0.52593 0.0
H140 H 0.32501 0.38047 0.45546 0.0
S141 S 0.30635 0.09848 0.57308 0.0
N142 N 0.2401 0.14151 0.59522 0.0
N143 N 0.3594 0.15386 0.51964 0.0
C144 C 0.32393 0.21117 0.51773 0.0
C145 C 0.2592 0.20447 0.55804 0.0
C146 C 0.83131 0.34447 0.4044 0.0
C147 C 0.84142 0.29539 0.4986 0.0
C148 C 0.77091 0.35231 0.3484 0.0
C149 C 0.71815 0.31199 0.38515 0.0
H150 H 0.87015 0.37699 0.37371 0.0
H151 H 0.76538 0.39037 0.27544 0.0
S152 S 0.71961 0.17435 0.62372 0.0
N153 N 0.79327 0.20421 0.62319 0.0
N154 N 0.68054 0.22043 0.5196 0.0
C155 C 0.72748 0.2633 0.47991 0.0
C156 C 0.7889 0.25455 0.53579 0.0
C157 C 0.78484 0.83796 0.45381 0.0
C158 C 0.83281 0.79231 0.48835 0.0
C159 C 0.72314 0.8336 0.50611 0.0
C160 C 0.70695 0.78356 0.59567 0.0
H161 H 0.79495 0.87769 0.38546 0.0
H162 H 0.68859 0.87099 0.47932 0.0
S163 S 0.81201 0.64627 0.70496 0.0
N164 N 0.85775 0.69185 0.6089 0.0
N165 N 0.74239 0.68376 0.7082 0.0
C166 C 0.75388 0.73636 0.62802 0.0
C167 C 0.81659 0.7407 0.57435 0.0
C168 C 0.32862 0.75602 0.95849 0.0
C169 C 0.35958 0.81969 0.97337 0.0
C170 C 0.26674 0.75039 0.90755 0.0
C171 C 0.23309 0.80847 0.87023 0.0
H172 H 0.35348 0.70993 0.97884 0.0
H173 H 0.24498 0.69998 0.89866 0.0
S174 S 0.29248 0.98771 0.89481 0.0
N175 N 0.35131 0.94241 0.95064 0.0
N176 N 0.23542 0.93197 0.85596 0.0
C177 C 0.2631 0.87261 0.88801 0.0
C178 C 0.32568 0.87824 0.94054 0.0
C179 C 0.30124 0.24367 0.94619 0.0
C180 C 0.2664 0.28129 0.04216 0.0
C181 C 0.35678 0.27069 0.8907 0.0
C182 C 0.38132 0.3348 0.93397 0.0
H183 H 0.28628 0.19246 0.91485 0.0
H184 H 0.38562 0.23698 0.82935 0.0
S185 S 0.30121 0.46008 0.15567 0.0
N186 N 0.25589 0.39077 0.16012 0.0
N187 N 0.35806 0.44145 0.04939 0.0
C188 C 0.34143 0.3766 0.01132 0.0
C189 C 0.28623 0.34891 0.07187 0.0
C190 C 0.80028 0.24423 0.93768 0.0
C191 C 0.77121 0.30852 0.93391 0.0
C192 C 0.86224 0.23777 -0.01539 0.0
C193 C 0.89721 0.29545 0.02958 0.0
H194 H 0.77537 0.19851 0.90182 0.0
H195 H 0.88498 0.18865 0.97265 0.0
S196 S 0.83811 0.47193 0.07352 0.0
N197 N 0.7787 0.42872 0.00313 0.0
N198 N 0.89514 0.41614 0.09096 0.0
C199 C 0.86626 0.35832 0.041 0.0
C200 C 0.80369 0.36528 -0.00863 0.0
C201 C 0.82418 0.68839 0.03273 0.0
C202 C 0.85879 0.74769 0.00036 0.0
C203 C 0.76191 0.69164 0.08105 0.0
C204 C 0.7317 0.75455 0.10209 0.0
H205 H 0.84684 0.6391 0.02791 0.0
H206 H 0.7373 0.64445 0.10278 0.0
S207 S 0.80033 0.925 0.02826 0.0
N208 N 0.85614 0.87054 -0.01464 0.0
N209 N 0.74125 0.87793 0.08334 0.0
C210 C 0.76536 0.81421 0.06807 0.0
C211 C 0.82793 0.81037 0.01431 0.0
loop_
_geom_bond_atom_site_label_1
_geom_bond_atom_site_label_2
_geom_bond_distance
_geom_bond_site_symmetry_2
_ccdc_geom_bond_type
Dy0 O4 2.398 1_554 S
Dy0 O5 2.491 1_554 S
Dy0 O6 2.403 . S
Dy0 O7 2.664 1_455 S
Dy0 O11 2.326 . S
Dy0 O15 2.310 . S
Dy0 O16 2.351 1_454 S
C1 O12 1.185 . S
C1 O13 1.355 . S
C2 O4 1.185 . S
C2 O5 1.355 . S
Dy3 O7 2.310 . S
Dy3 O10 2.351 1_655 S
Dy3 O12 2.398 . S
Dy3 O13 2.491 . S
Dy3 O14 2.403 . S
Dy3 O15 2.664 1_655 S
Dy3 O17 2.326 . S
O4 Dy0 2.398 1_556 S
O4 C2 1.185 . S
O5 Dy0 2.491 1_556 S
O5 C2 1.355 . S
O6 Dy0 2.403 . S
O6 C8 1.254 . S
O7 Dy0 2.664 1_655 S
O7 Dy3 2.310 . S
O7 C8 1.268 1_655 S
C8 O6 1.254 . S
C8 O7 1.268 1_455 S
C9 O14 1.243 1_455 S
C9 O15 1.274 . S
O10 Dy3 2.351 1_455 S
O10 C18 1.249 . S
O11 Dy0 2.326 . S
O11 C18 1.267 . S
O12 C1 1.185 . S
O12 Dy3 2.398 . S
O13 C1 1.355 . S
O13 Dy3 2.491 . S
O14 Dy3 2.403 . S
O14 C9 1.243 1_655 S
O15 Dy0 2.310 . S
O15 Dy3 2.664 1_455 S
O15 C9 1.274 . S
O16 Dy0 2.351 1_656 S
O16 C19 1.249 1_556 S
O17 Dy3 2.326 . S
O17 C19 1.267 . S
C18 O10 1.249 . S
C18 O11 1.267 . S
C19 O16 1.249 1_554 S
C19 O17 1.267 . S
Dy20 O24 2.398 1_554 S
Dy20 O25 2.491 1_554 S
Dy20 O26 2.403 . S
Dy20 O27 2.664 . S
Dy20 O31 2.326 . S
Dy20 O35 2.310 . S
Dy20 O36 2.351 1_554 S
C21 O32 1.185 . S
C21 O33 1.355 . S
C22 O24 1.185 . S
C22 O25 1.355 . S
Dy23 O27 2.310 . S
Dy23 O30 2.351 . S
Dy23 O32 2.398 . S
Dy23 O33 2.491 . S
Dy23 O34 2.403 . S
Dy23 O35 2.664 . S
Dy23 O37 2.326 . S
O24 Dy20 2.398 1_556 S
O24 C22 1.185 . S
O25 Dy20 2.491 1_556 S
O25 C22 1.355 . S
O26 Dy20 2.403 . S
O26 C28 1.254 . S
O27 Dy20 2.664 . S
O27 Dy23 2.310 . S
O27 C28 1.268 . S
C28 O26 1.254 . S
C28 O27 1.268 . S
C29 O34 1.254 . S
C29 O35 1.268 . S
O30 Dy23 2.351 . S
O30 C38 1.249 . S
O31 Dy20 2.326 . S
O31 C38 1.267 . S
O32 C21 1.185 . S
O32 Dy23 2.398 . S
O33 C21 1.355 . S
O33 Dy23 2.491 . S
O34 Dy23 2.403 . S
O34 C29 1.254 . S
O35 Dy20 2.310 . S
O35 Dy23 2.664 . S
O35 C29 1.268 . S
O36 Dy20 2.351 1_556 S
O36 C39 1.249 1_556 S
O37 Dy23 2.326 . S
O37 C39 1.267 . S
C38 O30 1.249 . S
C38 O31 1.267 . S
C39 O36 1.249 1_554 S
C39 O37 1.267 . S
Dy40 O44 2.398 1_556 S
Dy40 O45 2.491 1_556 S
Dy40 O46 2.403 . S
Dy40 O47 2.664 1_455 S
Dy40 O51 2.326 . S
Dy40 O55 2.310 . S
Dy40 O56 2.351 1_456 S
C41 O52 1.185 . S
C41 O53 1.355 . S
C42 O44 1.185 . S
C42 O45 1.355 . S
Dy43 O47 2.310 . S
Dy43 O50 2.351 1_655 S
Dy43 O52 2.398 . S
Dy43 O53 2.491 . S
Dy43 O54 2.403 . S
Dy43 O55 2.664 1_655 S
Dy43 O57 2.326 . S
O44 Dy40 2.398 1_554 S
O44 C42 1.185 . S
O45 Dy40 2.491 1_554 S
O45 C42 1.355 . S
O46 Dy40 2.403 . S
O46 C48 1.254 . S
O47 Dy40 2.664 1_655 S
O47 Dy43 2.310 . S
O47 C48 1.268 1_655 S
C48 O46 1.254 . S
C48 O47 1.268 1_455 S
C49 O54 1.243 1_455 S
C49 O55 1.274 . S
O50 Dy43 2.351 1_455 S
O50 C58 1.249 . S
O51 Dy40 2.326 . S
O51 C58 1.267 . S
O52 C41 1.185 . S
O52 Dy43 2.398 . S
O53 C41 1.355 . S
O53 Dy43 2.491 . S
O54 Dy43 2.403 . S
O54 C49 1.243 1_655 S
O55 Dy40 2.310 . S
O55 Dy43 2.664 1_455 S
O55 C49 1.274 . S
O56 Dy40 2.351 1_654 S
O56 C59 1.249 1_554 S
O57 Dy43 2.326 . S
O57 C59 1.267 . S
C58 O50 1.249 . S
C58 O51 1.267 . S
C59 O56 1.249 1_556 S
C59 O57 1.267 . S
Dy60 O64 2.398 1_556 S
Dy60 O65 2.491 1_556 S
Dy60 O66 2.403 . S
Dy60 O67 2.664 . S
Dy60 O71 2.326 . S
Dy60 O75 2.310 . S
Dy60 O76 2.351 1_556 S
C61 O72 1.185 . S
C61 O73 1.355 . S
C62 O64 1.185 . S
C62 O65 1.355 . S
Dy63 O67 2.310 . S
Dy63 O70 2.351 . S
Dy63 O72 2.398 . S
Dy63 O73 2.491 . S
Dy63 O74 2.403 . S
Dy63 O75 2.664 . S
Dy63 O77 2.326 . S
O64 Dy60 2.398 1_554 S
O64 C62 1.185 . S
O65 Dy60 2.491 1_554 S
O65 C62 1.355 . S
O66 Dy60 2.403 . S
O66 C68 1.254 . S
O67 Dy60 2.664 . S
O67 Dy63 2.310 . S
O67 C68 1.268 . S
C68 O66 1.254 . S
C68 O67 1.268 . S
C69 O74 1.254 . S
C69 O75 1.268 . S
O70 Dy63 2.351 . S
O70 C78 1.249 . S
O71 Dy60 2.326 . S
O71 C78 1.267 . S
O72 C61 1.185 . S
O72 Dy63 2.398 . S
O73 C61 1.355 . S
O73 Dy63 2.491 . S
O74 Dy63 2.403 . S
O74 C69 1.254 . S
O75 Dy60 2.310 . S
O75 Dy63 2.664 . S
O75 C69 1.268 . S
O76 Dy60 2.351 1_554 S
O76 C79 1.249 1_554 S
O77 Dy63 2.326 . S
O77 C79 1.267 . S
C78 O70 1.249 . S
C78 O71 1.267 . S
C79 O76 1.249 1_556 S
C79 O77 1.267 . S
C80 C81 1.369 1_454 S
C80 C82 1.419 . S
C80 H84 0.930 . S
C81 C80 1.369 1_656 S
C81 C90 1.429 . S
C82 C80 1.419 . S
C82 C83 1.363 1_455 S
C82 H85 0.929 . S
C83 C82 1.363 1_655 S
C83 C89 1.428 1_554 S
H84 C80 0.930 . S
H85 C82 0.929 . S
S86 N87 1.613 . S
S86 N88 1.610 . S
N87 S86 1.613 . S
N87 C90 1.350 . S
N88 S86 1.610 . S
N88 C89 1.351 . S
C89 C83 1.428 1_556 S
C89 N88 1.351 . S
C89 C90 1.434 . S
C90 C81 1.429 . S
C90 N87 1.350 . S
C90 C89 1.434 . S
C91 C92 1.369 . S
C91 C93 1.419 . S
C91 H95 0.930 . S
C92 C91 1.369 . S
C92 C101 1.429 1_554 S
C93 C91 1.419 . S
C93 C94 1.363 1_554 S
C93 H96 0.929 . S
C94 C93 1.363 1_556 S
C94 C100 1.428 . S
H95 C91 0.930 . S
H96 C93 0.929 . S
S97 N98 1.613 . S
S97 N99 1.610 . S
N98 S97 1.613 . S
N98 C101 1.350 . S
N99 S97 1.610 . S
N99 C100 1.351 . S
C100 C94 1.428 . S
C100 N99 1.351 . S
C100 C101 1.434 . S
C101 C92 1.429 1_556 S
C101 N98 1.350 . S
C101 C100 1.434 . S
C102 C103 1.369 . S
C102 C104 1.419 1_566 S
C102 H106 0.930 . S
C103 C102 1.369 . S
C103 C112 1.433 . S
C104 C102 1.419 1_544 S
C104 C105 1.363 . S
C104 H107 0.929 . S
C105 C104 1.363 . S
C105 C111 1.428 . S
H106 C102 0.930 . S
H107 C104 0.929 . S
S108 N109 1.613 . S
S108 N110 1.610 1_565 S
N109 S108 1.613 . S
N109 C112 1.349 1_554 S
N110 S108 1.610 1_545 S
N110 C111 1.351 . S
C111 C105 1.428 . S
C111 N110 1.351 . S
C111 C112 1.429 1_544 S
C112 C103 1.433 . S
C112 N109 1.349 1_556 S
C112 C111 1.429 1_566 S
C113 C114 1.369 . S
C113 C115 1.419 1_564 S
C113 H117 0.930 . S
C114 C113 1.369 . S
C114 C123 1.429 1_455 S
C115 C113 1.419 1_546 S
C115 C116 1.363 . S
C115 H118 0.929 . S
C116 C115 1.363 . S
C116 C122 1.428 1_455 S
H117 C113 0.930 . S
H118 C115 0.929 . S
S119 N120 1.613 1_556 S
S119 N121 1.610 1_565 S
N120 S119 1.613 1_554 S
N120 C123 1.350 . S
N121 S119 1.610 1_545 S
N121 C122 1.351 . S
C122 C116 1.428 1_655 S
C122 N121 1.351 . S
C122 C123 1.434 1_546 S
C123 C114 1.429 1_655 S
C123 N120 1.350 . S
C123 C122 1.434 1_564 S
C124 C125 1.369 . S
C124 C126 1.419 . S
C124 H128 0.930 . S
C125 C124 1.369 . S
C125 C134 1.429 . S
C126 C124 1.419 . S
C126 C127 1.363 . S
C126 H129 0.929 . S
C127 C126 1.363 . S
C127 C133 1.428 . S
H128 C124 0.930 . S
H129 C126 0.929 . S
S130 N131 1.613 . S
S130 N132 1.610 . S
N131 S130 1.613 . S
N131 C134 1.350 . S
N132 S130 1.610 . S
N132 C133 1.351 . S
C133 C127 1.428 . S
C133 N132 1.351 . S
C133 C134 1.434 . S
C134 C125 1.429 . S
C134 N131 1.350 . S
C134 C133 1.434 . S
C135 C136 1.369 . S
C135 C137 1.419 . S
C135 H139 0.930 . S
C136 C135 1.369 . S
C136 C145 1.429 . S
C137 C135 1.419 . S
C137 C138 1.363 . S
C137 H140 0.929 . S
C138 C137 1.363 . S
C138 C144 1.428 . S
H139 C135 0.930 . S
H140 C137 0.929 . S
S141 N142 1.613 . S
S141 N143 1.610 . S
N142 S141 1.613 . S
N142 C145 1.350 . S
N143 S141 1.610 . S
N143 C144 1.351 . S
C144 C138 1.428 . S
C144 N143 1.351 . S
C144 C145 1.434 . S
C145 C136 1.429 . S
C145 N142 1.350 . S
C145 C144 1.434 . S
C146 C147 1.369 . S
C146 C148 1.419 . S
C146 H150 0.930 . S
C147 C146 1.369 . S
C147 C156 1.429 . S
C148 C146 1.419 . S
C148 C149 1.363 . S
C148 H151 0.929 . S
C149 C148 1.363 . S
C149 C155 1.428 . S
H150 C146 0.930 . S
H151 C148 0.929 . S
S152 N153 1.613 . S
S152 N154 1.610 . S
N153 S152 1.613 . S
N153 C156 1.350 . S
N154 S152 1.610 . S
N154 C155 1.351 . S
C155 C149 1.428 . S
C155 N154 1.351 . S
C155 C156 1.434 . S
C156 C147 1.429 . S
C156 N153 1.350 . S
C156 C155 1.434 . S
C157 C158 1.369 . S
C157 C159 1.419 . S
C157 H161 0.930 . S
C158 C157 1.369 . S
C158 C167 1.429 . S
C159 C157 1.419 . S
C159 C160 1.363 . S
C159 H162 0.929 . S
C160 C159 1.363 . S
C160 C166 1.428 . S
H161 C157 0.930 . S
H162 C159 0.929 . S
S163 N164 1.613 . S
S163 N165 1.610 . S
N164 S163 1.613 . S
N164 C167 1.350 . S
N165 S163 1.610 . S
N165 C166 1.351 . S
C166 C160 1.428 . S
C166 N165 1.351 . S
C166 C167 1.434 . S
C167 C158 1.429 . S
C167 N164 1.350 . S
C167 C166 1.434 . S
C168 C169 1.369 . S
C168 C170 1.419 . S
C168 H172 0.930 . S
C169 C168 1.369 . S
C169 C178 1.429 1_556 S
C170 C168 1.419 . S
C170 C171 1.363 . S
C170 H173 0.929 . S
C171 C170 1.363 . S
C171 C177 1.428 1_556 S
H172 C168 0.930 . S
H173 C170 0.929 . S
S174 N175 1.613 . S
S174 N176 1.610 . S
N175 S174 1.613 . S
N175 C178 1.350 . S
N176 S174 1.610 . S
N176 C177 1.351 . S
C177 C171 1.428 1_554 S
C177 N176 1.351 . S
C177 C178 1.434 . S
C178 C169 1.429 1_554 S
C178 N175 1.350 . S
C178 C177 1.434 . S
C179 C180 1.369 . S
C179 C181 1.419 . S
C179 H183 0.930 . S
C180 C179 1.369 . S
C180 C189 1.429 1_554 S
C181 C179 1.419 . S
C181 C182 1.363 . S
C181 H184 0.929 . S
C182 C181 1.363 . S
C182 C188 1.428 1_554 S
H183 C179 0.930 . S
H184 C181 0.929 . S
S185 N186 1.613 . S
S185 N187 1.610 . S
N186 S185 1.613 . S
N186 C189 1.350 . S
N187 S185 1.610 . S
N187 C188 1.351 . S
C188 C182 1.428 1_556 S
C188 N187 1.351 . S
C188 C189 1.434 . S
C189 C180 1.429 1_556 S
C189 N186 1.350 . S
C189 C188 1.434 . S
C190 C191 1.369 1_554 S
C190 C192 1.419 . S
C190 H194 0.930 . S
C191 C190 1.369 1_556 S
C191 C200 1.429 . S
C192 C190 1.419 . S
C192 C193 1.363 1_554 S
C192 H195 0.929 . S
C193 C192 1.363 1_556 S
C193 C199 1.428 . S
H194 C190 0.930 . S
H195 C192 0.929 . S
S196 N197 1.613 . S
S196 N198 1.610 . S
N197 S196 1.613 . S
N197 C200 1.350 . S
N198 S196 1.610 . S
N198 C199 1.351 . S
C199 C193 1.428 . S
C199 N198 1.351 . S
C199 C200 1.434 . S
C200 C191 1.429 . S
C200 N197 1.350 . S
C200 C199 1.434 . S
C201 C202 1.369 1_556 S
C201 C203 1.419 . S
C201 H205 0.930 . S
C202 C201 1.369 1_554 S
C202 C211 1.429 . S
C203 C201 1.419 . S
C203 C204 1.363 1_556 S
C203 H206 0.929 . S
C204 C203 1.363 1_554 S
C204 C210 1.428 . S
H205 C201 0.930 . S
H206 C203 0.929 . S
S207 N208 1.613 . S
S207 N209 1.610 . S
N208 S207 1.613 . S
N208 C211 1.350 . S
N209 S207 1.610 . S
N209 C210 1.351 . S
C210 C204 1.428 . S
C210 N209 1.351 . S
C210 C211 1.434 . S
C211 C202 1.429 . S
C211 N208 1.350 . S
C211 C210 1.434 . S
C81 C48 1.718 1_655 S
C83 C8 1.707 1_655 S
C92 C29 2.021 . S
C94 C69 2.024 . S
C103 C68 1.706 . S
C105 C28 1.715 . S
C114 C9 2.022 . S
C116 C49 2.023 . S
C125 C61 1.516 . S
C127 C18 1.522 . S
C136 C58 1.520 . S
C138 C21 1.513 . S
C147 C41 1.517 . S
C149 C38 1.520 . S
C158 C1 1.514 . S
C160 C78 1.521 . S
C169 C79 1.254 . S
C171 C2 1.285 . S
C180 C42 1.283 . S
C182 C39 1.250 . S
C191 C22 1.292 . S
C193 C59 1.244 . S
C202 C19 1.241 . S
C204 C62 1.291 . S
