# Generated by pormake.
# Topology utk, (3)-cn, num edge types: 1
# Building blocks:
#     Node 0, Type 0, BuildingBlock: OLANEW_clean_sbu_2, # of connection points: 3
#     Node 1, Type 0, BuildingBlock: OLANEW_clean_sbu_2, # of connection points: 3
#     Node 2, Type 0, BuildingBlock: OLANEW_clean_sbu_2, # of connection points: 3
#     Node 3, Type 0, BuildingBlock: OLANEW_clean_sbu_2, # of connection points: 3
#     Node 4, Type 0, BuildingBlock: OLANEW_clean_sbu_2, # of connection points: 3
#     Node 5, Type 0, BuildingBlock: OLANEW_clean_sbu_2, # of connection points: 3
#     Node 6, Type 0, BuildingBlock: OLANEW_clean_sbu_2, # of connection points: 3
#     Node 7, Type 0, BuildingBlock: OLANEW_clean_sbu_2, # of connection points: 3
#     Edge 8, Type (0, 0), None
#     Edge 9, Type (0, 0), None
#     Edge 10, Type (0, 0), None
#     Edge 11, Type (0, 0), None
#     Edge 12, Type (0, 0), None
#     Edge 13, Type (0, 0), None
#     Edge 14, Type (0, 0), None
#     Edge 15, Type (0, 0), None
#     Edge 16, Type (0, 0), None
#     Edge 17, Type (0, 0), None
#     Edge 18, Type (0, 0), None
#     Edge 19, Type (0, 0), None
# Relax obj value: 0.000
# Max RMSD: 0.000
# Mean RMSD: 0.000
data_MOF--net-utk--node1-OLANEW_clean_sbu_2--edge1-none
_symmetry_space_group_name_H-M    P1
_symmetry_Int_Tables_number       1
_symmetry_cell_setting            triclinic
loop_
_symmetry_equiv_pos_as_xyz
'x, y, z'
_cell_length_a     23.333518
_cell_length_b     23.360227
_cell_length_c     12.696464
_cell_angle_alpha  90.046119
_cell_angle_beta   89.941226
_cell_angle_gamma 90.190925
loop_
_atom_site_label
_atom_site_type_symbol
_atom_site_fract_x
_atom_site_fract_y
_atom_site_fract_z
_atom_type_partial_charge
O0 O 0.19308 0.44516 0.27763 0.0
Cd1 Cd 0.20827 0.34617 0.22269 0.0
O2 O 0.12955 0.46503 0.15462 0.0
Cd3 Cd 0.11701 0.37852 0.09406 0.0
O4 O 0.05316 0.34148 0.98855 0.0
C5 C 0.04567 0.37142 0.90634 0.0
O6 O 0.0785 0.41639 0.89058 0.0
C7 C 0.16098 0.48081 0.23093 0.0
C8 C 0.25585 0.28239 0.38586 0.0
O9 O 0.28561 0.31946 0.33552 0.0
O10 O 0.20345 0.27473 0.35931 0.0
O11 O 0.54834 0.17753 0.51442 0.0
Cd12 Cd 0.6478 0.19604 0.46534 0.0
O13 O 0.52582 0.13225 0.36775 0.0
Cd14 Cd 0.61344 0.12256 0.31029 0.0
O15 O 0.65924 0.05805 0.21927 0.0
C16 C 0.66742 0.00966 0.26224 0.0
O17 O 0.6544 0.00285 0.36212 0.0
C18 C 0.51122 0.15384 0.45554 0.0
C19 C 0.70519 0.24851 0.632 0.0
O20 O 0.66878 0.276 0.57646 0.0
O21 O 0.71538 0.19616 0.6088 0.0
O22 O 0.80005 0.54682 0.76324 0.0
Cd23 Cd 0.78417 0.64598 0.71087 0.0
O24 O 0.84817 0.52363 0.62011 0.0
Cd25 Cd 0.8613 0.61123 0.56536 0.0
O26 O 0.93072 0.6573 0.48716 0.0
C27 C 0.97836 0.65986 0.5354 0.0
O28 O 0.98147 0.64086 0.63255 0.0
C29 C 0.82437 0.50939 0.70618 0.0
C30 C 0.73672 0.70775 0.877 0.0
O31 O 0.70702 0.67108 0.82555 0.0
O32 O 0.78898 0.71604 0.85004 0.0
O33 O 0.44361 0.80807 0.01437 0.0
Cd34 Cd 0.34387 0.78913 0.96778 0.0
O35 O 0.46526 0.85388 0.86782 0.0
Cd36 Cd 0.37745 0.86345 0.81162 0.0
O37 O 0.33202 0.92843 0.72141 0.0
C38 C 0.32453 0.97688 0.76475 0.0
O39 O 0.33805 0.98348 0.86442 0.0
C40 C 0.48034 0.83211 0.95505 0.0
C41 C 0.28675 0.73947 0.13781 0.0
O42 O 0.32302 0.71106 0.08335 0.0
O43 O 0.27657 0.79143 0.11198 0.0
O44 O 0.18836 0.55659 0.34499 0.0
Cd45 Cd 0.20269 0.65684 0.39351 0.0
O46 O 0.12768 0.57616 0.2172 0.0
Cd47 Cd 0.10444 0.65903 0.28331 0.0
O48 O 0.02868 0.67825 0.37715 0.0
C49 C 0.03127 0.67007 0.47585 0.0
O50 O 0.08089 0.65794 0.51902 0.0
C51 C 0.15921 0.54065 0.2657 0.0
C52 C 0.25782 0.71275 0.22756 0.0
O53 O 0.28464 0.67746 0.28648 0.0
O54 O 0.20505 0.72295 0.24751 0.0
O55 O 0.43631 0.17252 0.57684 0.0
Cd56 Cd 0.33639 0.18647 0.62822 0.0
O57 O 0.41482 0.12357 0.43378 0.0
Cd58 Cd 0.33321 0.09587 0.50075 0.0
O59 O 0.31345 0.02204 0.5995 0.0
C60 C 0.31505 0.02751 0.69895 0.0
O61 O 0.32129 0.07874 0.74004 0.0
C62 C 0.45131 0.15016 0.48985 0.0
C63 C 0.28168 0.24945 0.47137 0.0
O64 O 0.31799 0.27292 0.53339 0.0
O65 O 0.26986 0.19636 0.48404 0.0
O66 O 0.80405 0.43532 0.82835 0.0
Cd67 Cd 0.79029 0.3356 0.88152 0.0
O68 O 0.85441 0.41307 0.68748 0.0
Cd69 Cd 0.88282 0.33359 0.76001 0.0
O70 O 0.95859 0.32425 0.85885 0.0
C71 C 0.99646 0.36163 0.83704 0.0
O72 O 0.98744 0.39694 0.75837 0.0
C73 C 0.82709 0.44974 0.7416 0.0
C74 C 0.7344 0.27676 0.7198 0.0
O75 O 0.70801 0.31353 0.77644 0.0
O76 O 0.78706 0.26642 0.74015 0.0
O77 O 0.55588 0.81369 0.07488 0.0
Cd78 Cd 0.65614 0.80027 0.12427 0.0
O79 O 0.57648 0.86293 0.93179 0.0
Cd80 Cd 0.65818 0.89107 -0.00249 0.0
O81 O 0.67807 0.96479 0.09651 0.0
C82 C 0.67704 0.95918 0.19594 0.0
O83 O 0.67137 0.90785 0.23679 0.0
C84 C 0.54038 0.83604 0.98832 0.0
C85 C 0.71095 0.7395 0.96424 0.0
O86 O 0.67494 0.71508 0.02567 0.0
O87 O 0.72249 0.79249 0.97904 0.0
loop_
_geom_bond_atom_site_label_1
_geom_bond_atom_site_label_2
_geom_bond_distance
_geom_bond_site_symmetry_2
_ccdc_geom_bond_type
O0 Cd1 2.300 . S
O0 C7 1.275 . S
Cd1 O0 2.300 . S
Cd1 O9 2.381 . S
Cd1 O10 2.378 . S
O2 Cd3 2.385 1_455 S
O2 C7 1.255 . S
Cd3 O2 2.385 1_655 S
Cd3 O4 2.317 1_655 S
O4 Cd3 2.317 1_455 S
O4 C5 1.232 1_455 S
C5 O4 1.232 1_655 S
C5 O6 1.218 . S
O6 C5 1.218 . S
C7 O0 1.275 . S
C7 O2 1.255 . S
C8 O9 1.258 . S
C8 O10 1.256 . S
O9 Cd1 2.381 . S
O9 C8 1.258 . S
O10 Cd1 2.378 . S
O10 C8 1.256 . S
O11 Cd12 2.300 . S
O11 C18 1.275 . S
Cd12 O11 2.300 . S
Cd12 O20 2.381 . S
Cd12 O21 2.378 . S
O13 Cd14 2.385 1_545 S
O13 C18 1.255 . S
Cd14 O13 2.385 1_565 S
Cd14 O15 2.317 1_565 S
O15 Cd14 2.317 1_545 S
O15 C16 1.232 1_545 S
C16 O15 1.232 1_565 S
C16 O17 1.218 . S
O17 C16 1.218 . S
C18 O11 1.275 . S
C18 O13 1.255 . S
C19 O20 1.258 . S
C19 O21 1.256 . S
O20 Cd12 2.381 . S
O20 C19 1.258 . S
O21 Cd12 2.378 . S
O21 C19 1.256 . S
O22 Cd23 2.300 . S
O22 C29 1.275 . S
Cd23 O22 2.300 . S
Cd23 O31 2.381 . S
Cd23 O32 2.378 . S
O24 Cd25 2.385 1_655 S
O24 C29 1.255 . S
Cd25 O24 2.385 1_455 S
Cd25 O26 2.317 1_455 S
O26 Cd25 2.317 1_655 S
O26 C27 1.232 1_655 S
C27 O26 1.232 1_455 S
C27 O28 1.218 . S
O28 C27 1.218 . S
C29 O22 1.275 . S
C29 O24 1.255 . S
C30 O31 1.258 . S
C30 O32 1.256 . S
O31 Cd23 2.381 . S
O31 C30 1.258 . S
O32 Cd23 2.378 . S
O32 C30 1.256 . S
O33 Cd34 2.300 . S
O33 C40 1.275 . S
Cd34 O33 2.300 . S
Cd34 O42 2.381 . S
Cd34 O43 2.378 . S
O35 Cd36 2.385 1_565 S
O35 C40 1.255 . S
Cd36 O35 2.385 1_545 S
Cd36 O37 2.317 1_544 S
O37 Cd36 2.317 1_566 S
O37 C38 1.232 1_565 S
C38 O37 1.232 1_545 S
C38 O39 1.218 . S
O39 C38 1.218 . S
C40 O33 1.275 . S
C40 O35 1.255 . S
C41 O42 1.258 . S
C41 O43 1.256 . S
O42 Cd34 2.381 . S
O42 C41 1.258 . S
O43 Cd34 2.378 . S
O43 C41 1.256 . S
O44 Cd45 2.300 . S
O44 C51 1.275 . S
Cd45 O44 2.300 . S
Cd45 O53 2.381 . S
Cd45 O54 2.378 . S
O46 Cd47 2.385 1_455 S
O46 C51 1.255 . S
Cd47 O46 2.385 1_655 S
Cd47 O48 2.317 1_655 S
O48 Cd47 2.317 1_455 S
O48 C49 1.232 1_455 S
C49 O48 1.232 1_655 S
C49 O50 1.218 . S
O50 C49 1.218 . S
C51 O44 1.275 . S
C51 O46 1.255 . S
C52 O53 1.258 . S
C52 O54 1.256 . S
O53 Cd45 2.381 . S
O53 C52 1.258 . S
O54 Cd45 2.378 . S
O54 C52 1.256 . S
O55 Cd56 2.300 . S
O55 C62 1.275 . S
Cd56 O55 2.300 . S
Cd56 O64 2.381 . S
Cd56 O65 2.378 . S
O57 Cd58 2.385 1_545 S
O57 C62 1.255 . S
Cd58 O57 2.385 1_565 S
Cd58 O59 2.317 1_565 S
O59 Cd58 2.317 1_545 S
O59 C60 1.232 1_545 S
C60 O59 1.232 1_565 S
C60 O61 1.218 . S
O61 C60 1.218 . S
C62 O55 1.275 . S
C62 O57 1.255 . S
C63 O64 1.258 . S
C63 O65 1.256 . S
O64 Cd56 2.381 . S
O64 C63 1.258 . S
O65 Cd56 2.378 . S
O65 C63 1.256 . S
O66 Cd67 2.300 . S
O66 C73 1.275 . S
Cd67 O66 2.300 . S
Cd67 O75 2.381 . S
Cd67 O76 2.378 . S
O68 Cd69 2.385 1_655 S
O68 C73 1.255 . S
Cd69 O68 2.385 1_455 S
Cd69 O70 2.317 1_455 S
O70 Cd69 2.317 1_655 S
O70 C71 1.232 1_655 S
C71 O70 1.232 1_455 S
C71 O72 1.218 . S
O72 C71 1.218 . S
C73 O66 1.275 . S
C73 O68 1.255 . S
C74 O75 1.258 . S
C74 O76 1.256 . S
O75 Cd67 2.381 . S
O75 C74 1.258 . S
O76 Cd67 2.378 . S
O76 C74 1.256 . S
O77 Cd78 2.300 . S
O77 C84 1.275 . S
Cd78 O77 2.300 . S
Cd78 O86 2.381 . S
Cd78 O87 2.378 . S
O79 Cd80 2.385 1_565 S
O79 C84 1.255 . S
Cd80 O79 2.385 1_545 S
Cd80 O81 2.317 1_546 S
O81 Cd80 2.317 1_564 S
O81 C82 1.232 1_565 S
C82 O81 1.232 1_545 S
C82 O83 1.218 . S
O83 C82 1.218 . S
C84 O77 1.275 . S
C84 O79 1.255 . S
C85 O86 1.258 . S
C85 O87 1.256 . S
O86 Cd78 2.381 . S
O86 C85 1.258 . S
O87 Cd78 2.378 . S
O87 C85 1.256 . S
C7 C51 1.450 . S
C18 C62 1.450 . S
C29 C73 1.450 . S
C84 C40 1.450 1_556 S
C8 C63 1.476 . S
C19 C74 1.476 . S
C30 C85 1.476 . S
C41 C52 1.476 . S
C5 C71 1.339 1_654 S
C16 C82 1.339 1_565 S
C27 C49 1.340 1_455 S
C38 C60 1.340 1_545 S
