# Generated by pormake.
# Topology bcg, (8)-cn, num edge types: 1
# Building blocks:
#     Node 0, Type 0, BuildingBlock: OLANEW_clean_sbu_1, # of connection points: 8
#     Node 1, Type 0, BuildingBlock: OLANEW_clean_sbu_1, # of connection points: 8
#     Node 2, Type 0, BuildingBlock: OLANEW_clean_sbu_1, # of connection points: 8
#     Node 3, Type 0, BuildingBlock: OLANEW_clean_sbu_1, # of connection points: 8
#     Edge 4, Type (0, 0), None
#     Edge 5, Type (0, 0), None
#     Edge 6, Type (0, 0), None
#     Edge 7, Type (0, 0), None
#     Edge 8, Type (0, 0), None
#     Edge 9, Type (0, 0), None
#     Edge 10, Type (0, 0), None
#     Edge 11, Type (0, 0), None
#     Edge 12, Type (0, 0), None
#     Edge 13, Type (0, 0), None
#     Edge 14, Type (0, 0), None
#     Edge 15, Type (0, 0), None
#     Edge 16, Type (0, 0), None
#     Edge 17, Type (0, 0), None
#     Edge 18, Type (0, 0), None
#     Edge 19, Type (0, 0), None
# Relax obj value: 0.199
# Max RMSD: 0.227
# Mean RMSD: 0.227
data_MOF--net-bcg--node1-OLANEW_clean_sbu_1--edge1-none
_symmetry_space_group_name_H-M    P1
_symmetry_Int_Tables_number       1
_symmetry_cell_setting            triclinic
loop_
_symmetry_equiv_pos_as_xyz
'x, y, z'
_cell_length_a     18.345911
_cell_length_b     15.370575
_cell_length_c     17.630978
_cell_angle_alpha  111.45905
_cell_angle_beta   90.001788
_cell_angle_gamma 90.000079
loop_
_atom_site_label
_atom_site_type_symbol
_atom_site_fract_x
_atom_site_fract_y
_atom_site_fract_z
_atom_type_partial_charge
Cd0 Cd 0.83625 -0.00615 0.02107 0.0
Cd1 Cd 0.11525 0.14433 -0.03236 0.0
C2 C 0.2314 0.12261 0.79591 0.0
Cd3 Cd 0.64854 0.34124 0.85839 0.0
Cd4 Cd 0.36954 0.19077 0.91182 0.0
C5 C 0.68162 0.25111 0.65305 0.0
O6 O 0.61392 0.27177 0.64225 0.0
O7 O 0.96267 0.03144 -0.00161 0.0
O8 O 0.06766 -0.01363 0.93592 0.0
O9 O 0.719 0.27959 -0.05688 0.0
O10 O 0.29811 0.13687 0.78437 0.0
O11 O 0.21039 0.14016 0.86856 0.0
C12 C 0.48001 0.36865 0.92439 0.0
O13 O 0.70596 0.2685 0.72452 0.0
C14 C 0.76279 0.14409 -0.0377 0.0
O15 O 0.79663 0.19337 0.03008 0.0
O16 O 0.52212 0.30365 0.88107 0.0
O17 O 0.41713 0.34872 -0.05646 0.0
C18 C 0.25339 0.21248 0.08355 0.0
O19 O 0.7658 0.05551 0.93635 0.0
O20 O 0.18668 0.19822 0.0951 0.0
O21 O 0.27441 0.19493 0.0109 0.0
C22 C 0.00478 -0.03355 -0.04493 0.0
O23 O 0.77884 0.0666 0.15494 0.0
C24 C 0.722 0.19101 0.91717 0.0
O25 O 0.68816 0.14173 0.84939 0.0
C26 C 0.80317 0.08399 0.22641 0.0
O27 O 0.87087 0.06333 0.23721 0.0
Cd28 Cd 0.33625 0.49385 0.02107 0.0
Cd29 Cd 0.61525 0.64433 -0.03236 0.0
C30 C 0.7314 0.62261 0.79591 0.0
Cd31 Cd 0.14854 0.84124 0.85839 0.0
Cd32 Cd 0.86954 0.69077 0.91182 0.0
C33 C 0.18162 0.75111 0.65305 0.0
O34 O 0.11392 0.77177 0.64225 0.0
O35 O 0.46267 0.53144 -0.00161 0.0
O36 O 0.56766 0.48637 0.93592 0.0
O37 O 0.219 0.77959 -0.05688 0.0
O38 O 0.79811 0.63687 0.78437 0.0
O39 O 0.71039 0.64016 0.86856 0.0
C40 C 0.98001 0.86865 0.92439 0.0
O41 O 0.20596 0.7685 0.72452 0.0
C42 C 0.26279 0.64409 -0.0377 0.0
O43 O 0.29663 0.69337 0.03008 0.0
O44 O 0.02212 0.80365 0.88107 0.0
O45 O 0.91713 0.84872 -0.05646 0.0
C46 C 0.75339 0.71248 0.08355 0.0
O47 O 0.2658 0.55551 0.93635 0.0
O48 O 0.68668 0.69822 0.0951 0.0
O49 O 0.77441 0.69493 0.0109 0.0
C50 C 0.50478 0.46645 -0.04493 0.0
O51 O 0.27884 0.5666 0.15494 0.0
C52 C 0.222 0.69101 0.91717 0.0
O53 O 0.18816 0.64173 0.84939 0.0
C54 C 0.30317 0.58399 0.22641 0.0
O55 O 0.37087 0.56332 0.23721 0.0
Cd56 Cd 0.83625 0.84125 0.3584 0.0
Cd57 Cd 0.11525 0.69076 0.41181 0.0
C58 C 0.2314 0.71249 0.58355 0.0
Cd59 Cd 0.64855 0.49385 0.52106 0.0
Cd60 Cd 0.36954 0.64433 0.46765 0.0
C61 C 0.68163 0.58398 0.72641 0.0
O62 O 0.61392 0.56333 0.7372 0.0
O63 O 0.96266 0.80365 0.38107 0.0
O64 O 0.06766 0.84872 0.44354 0.0
O65 O 0.719 0.5555 0.43634 0.0
O66 O 0.29811 0.69822 0.5951 0.0
O67 O 0.21039 0.69493 0.5109 0.0
C68 C 0.48002 0.46645 0.45508 0.0
O69 O 0.70596 0.56659 0.65494 0.0
C70 C 0.76279 0.69101 0.41717 0.0
O71 O 0.79663 0.64173 0.34939 0.0
O72 O 0.52213 0.53144 0.49839 0.0
O73 O 0.41713 0.48637 0.43592 0.0
C74 C 0.25339 0.62261 0.29591 0.0
O75 O 0.76579 0.77959 0.44312 0.0
O76 O 0.18669 0.63687 0.28436 0.0
O77 O 0.27441 0.64016 0.36857 0.0
C78 C 0.00478 0.86864 0.42439 0.0
O79 O 0.77883 0.7685 0.22452 0.0
C80 C 0.722 0.64409 0.4623 0.0
O81 O 0.68817 0.69337 0.53007 0.0
C82 C 0.80317 0.75111 0.15305 0.0
O83 O 0.87087 0.77177 0.14226 0.0
Cd84 Cd 0.33625 0.34125 0.3584 0.0
Cd85 Cd 0.61525 0.19076 0.41181 0.0
C86 C 0.7314 0.21249 0.58355 0.0
Cd87 Cd 0.14855 -0.00615 0.52106 0.0
Cd88 Cd 0.86954 0.14433 0.46765 0.0
C89 C 0.18163 0.08398 0.72641 0.0
O90 O 0.11392 0.06333 0.7372 0.0
O91 O 0.46266 0.30365 0.38107 0.0
O92 O 0.56766 0.34872 0.44354 0.0
O93 O 0.219 0.0555 0.43634 0.0
O94 O 0.79811 0.19822 0.5951 0.0
O95 O 0.71039 0.19493 0.5109 0.0
C96 C 0.98002 -0.03355 0.45508 0.0
O97 O 0.20596 0.06659 0.65494 0.0
C98 C 0.26279 0.19101 0.41717 0.0
O99 O 0.29663 0.14173 0.34939 0.0
O100 O 0.02213 0.03144 0.49839 0.0
O101 O 0.91713 -0.01363 0.43592 0.0
C102 C 0.75339 0.12261 0.29591 0.0
O103 O 0.26579 0.27959 0.44312 0.0
O104 O 0.68669 0.13687 0.28436 0.0
O105 O 0.77441 0.14016 0.36857 0.0
C106 C 0.50478 0.36864 0.42439 0.0
O107 O 0.27883 0.2685 0.22452 0.0
C108 C 0.222 0.14409 0.4623 0.0
O109 O 0.18817 0.19337 0.53007 0.0
C110 C 0.30317 0.25111 0.15305 0.0
O111 O 0.37087 0.27177 0.14226 0.0
loop_
_geom_bond_atom_site_label_1
_geom_bond_atom_site_label_2
_geom_bond_distance
_geom_bond_site_symmetry_2
_ccdc_geom_bond_type
Cd0 O7 2.298 . S
Cd0 O19 2.255 . S
Cd0 O23 2.218 . S
Cd1 O8 2.269 1_554 S
Cd1 O11 2.237 1_554 S
Cd1 O20 2.201 . S
C2 O10 1.266 . S
C2 O11 1.194 . S
Cd3 O9 2.255 . S
Cd3 O13 2.218 . S
Cd3 O16 2.298 . S
Cd4 O10 2.201 . S
Cd4 O17 2.269 1_556 S
Cd4 O21 2.237 1_556 S
C5 O6 1.201 . S
C5 O13 1.235 . S
O6 C5 1.201 . S
O7 Cd0 2.298 . S
O7 C22 1.265 1_655 S
O8 Cd1 2.269 1_556 S
O8 C22 1.233 1_556 S
O9 Cd3 2.255 . S
O9 C24 1.210 . S
O10 C2 1.266 . S
O10 Cd4 2.201 . S
O11 Cd1 2.237 1_556 S
O11 C2 1.194 . S
C12 O16 1.265 . S
C12 O17 1.233 1_556 S
O13 Cd3 2.218 . S
O13 C5 1.235 . S
C14 O15 1.269 . S
C14 O19 1.210 . S
O15 C14 1.269 . S
O16 Cd3 2.298 . S
O16 C12 1.265 . S
O17 Cd4 2.269 1_554 S
O17 C12 1.233 1_554 S
C18 O20 1.266 . S
C18 O21 1.194 . S
O19 Cd0 2.255 . S
O19 C14 1.210 . S
O20 Cd1 2.201 . S
O20 C18 1.266 . S
O21 Cd4 2.237 1_554 S
O21 C18 1.194 . S
C22 O7 1.265 1_455 S
C22 O8 1.233 1_554 S
O23 Cd0 2.218 . S
O23 C26 1.235 . S
C24 O9 1.210 . S
C24 O25 1.269 . S
O25 C24 1.269 . S
C26 O23 1.235 . S
C26 O27 1.201 . S
O27 C26 1.201 . S
Cd28 O35 2.298 . S
Cd28 O47 2.255 . S
Cd28 O51 2.218 . S
Cd29 O36 2.269 1_554 S
Cd29 O39 2.237 1_554 S
Cd29 O48 2.201 . S
C30 O38 1.266 . S
C30 O39 1.194 . S
Cd31 O37 2.255 . S
Cd31 O41 2.218 . S
Cd31 O44 2.298 . S
Cd32 O38 2.201 . S
Cd32 O45 2.269 1_556 S
Cd32 O49 2.237 1_556 S
C33 O34 1.201 . S
C33 O41 1.235 . S
O34 C33 1.201 . S
O35 Cd28 2.298 . S
O35 C50 1.265 . S
O36 Cd29 2.269 1_556 S
O36 C50 1.233 1_556 S
O37 Cd31 2.255 . S
O37 C52 1.210 . S
O38 C30 1.266 . S
O38 Cd32 2.201 . S
O39 Cd29 2.237 1_556 S
O39 C30 1.194 . S
C40 O44 1.265 1_655 S
C40 O45 1.233 1_556 S
O41 Cd31 2.218 . S
O41 C33 1.235 . S
C42 O43 1.269 . S
C42 O47 1.210 . S
O43 C42 1.269 . S
O44 Cd31 2.298 . S
O44 C40 1.265 1_455 S
O45 Cd32 2.269 1_554 S
O45 C40 1.233 1_554 S
C46 O48 1.266 . S
C46 O49 1.194 . S
O47 Cd28 2.255 . S
O47 C42 1.210 . S
O48 Cd29 2.201 . S
O48 C46 1.266 . S
O49 Cd32 2.237 1_554 S
O49 C46 1.194 . S
C50 O35 1.265 . S
C50 O36 1.233 1_554 S
O51 Cd28 2.218 . S
O51 C54 1.235 . S
C52 O37 1.210 . S
C52 O53 1.269 . S
O53 C52 1.269 . S
C54 O51 1.235 . S
C54 O55 1.201 . S
O55 C54 1.201 . S
Cd56 O63 2.298 . S
Cd56 O75 2.255 . S
Cd56 O79 2.218 . S
Cd57 O64 2.269 . S
Cd57 O67 2.237 . S
Cd57 O76 2.201 . S
C58 O66 1.266 . S
C58 O67 1.194 . S
Cd59 O65 2.255 . S
Cd59 O69 2.218 . S
Cd59 O72 2.298 . S
Cd60 O66 2.201 . S
Cd60 O73 2.269 . S
Cd60 O77 2.237 . S
C61 O62 1.201 . S
C61 O69 1.235 . S
O62 C61 1.201 . S
O63 Cd56 2.298 . S
O63 C78 1.265 1_655 S
O64 Cd57 2.269 . S
O64 C78 1.233 . S
O65 Cd59 2.255 . S
O65 C80 1.210 . S
O66 C58 1.266 . S
O66 Cd60 2.201 . S
O67 Cd57 2.237 . S
O67 C58 1.194 . S
C68 O72 1.265 . S
C68 O73 1.233 . S
O69 Cd59 2.218 . S
O69 C61 1.235 . S
C70 O71 1.269 . S
C70 O75 1.210 . S
O71 C70 1.269 . S
O72 Cd59 2.298 . S
O72 C68 1.265 . S
O73 Cd60 2.269 . S
O73 C68 1.233 . S
C74 O76 1.266 . S
C74 O77 1.194 . S
O75 Cd56 2.255 . S
O75 C70 1.210 . S
O76 Cd57 2.201 . S
O76 C74 1.266 . S
O77 Cd60 2.237 . S
O77 C74 1.194 . S
C78 O63 1.265 1_455 S
C78 O64 1.233 . S
O79 Cd56 2.218 . S
O79 C82 1.235 . S
C80 O65 1.210 . S
C80 O81 1.269 . S
O81 C80 1.269 . S
C82 O79 1.235 . S
C82 O83 1.201 . S
O83 C82 1.201 . S
Cd84 O91 2.298 . S
Cd84 O103 2.255 . S
Cd84 O107 2.218 . S
Cd85 O92 2.269 . S
Cd85 O95 2.237 . S
Cd85 O104 2.201 . S
C86 O94 1.266 . S
C86 O95 1.194 . S
Cd87 O93 2.255 . S
Cd87 O97 2.218 . S
Cd87 O100 2.298 . S
Cd88 O94 2.201 . S
Cd88 O101 2.269 . S
Cd88 O105 2.237 . S
C89 O90 1.201 . S
C89 O97 1.235 . S
O90 C89 1.201 . S
O91 Cd84 2.298 . S
O91 C106 1.265 . S
O92 Cd85 2.269 . S
O92 C106 1.233 . S
O93 Cd87 2.255 . S
O93 C108 1.210 . S
O94 C86 1.266 . S
O94 Cd88 2.201 . S
O95 Cd85 2.237 . S
O95 C86 1.194 . S
C96 O100 1.265 1_655 S
C96 O101 1.233 . S
O97 Cd87 2.218 . S
O97 C89 1.235 . S
C98 O99 1.269 . S
C98 O103 1.210 . S
O99 C98 1.269 . S
O100 Cd87 2.298 . S
O100 C96 1.265 1_455 S
O101 Cd88 2.269 . S
O101 C96 1.233 . S
C102 O104 1.266 . S
C102 O105 1.194 . S
O103 Cd84 2.255 . S
O103 C98 1.210 . S
O104 Cd85 2.201 . S
O104 C102 1.266 . S
O105 Cd88 2.237 . S
O105 C102 1.194 . S
C106 O91 1.265 . S
C106 O92 1.233 . S
O107 Cd84 2.218 . S
O107 C110 1.235 . S
C108 O93 1.210 . S
C108 O109 1.269 . S
O109 C108 1.269 . S
C110 O107 1.235 . S
C110 O111 1.201 . S
O111 C110 1.201 . S
C24 C14 5.715 1_556 S
C52 C42 5.715 1_556 S
C80 C70 5.715 . S
C108 C98 5.715 . S
C50 C12 1.243 1_554 S
C106 C68 1.243 . S
C22 C40 1.243 1_444 S
C96 C78 1.243 1_645 S
C110 C18 2.721 . S
C54 C74 2.721 . S
C61 C30 2.722 . S
C5 C86 2.722 . S
C82 C46 2.721 . S
C102 C26 2.721 . S
C2 C89 2.722 . S
C58 C33 2.722 . S
