# Generated by pormake.
# Topology lcy-e, (6)-cn, num edge types: 1
# Building blocks:
#     Node 0, Type 0, BuildingBlock: MIFKUJ_clean_sbu_0, # of connection points: 6
#     Node 1, Type 0, BuildingBlock: MIFKUJ_clean_sbu_0, # of connection points: 6
#     Node 2, Type 0, BuildingBlock: MIFKUJ_clean_sbu_0, # of connection points: 6
#     Node 3, Type 0, BuildingBlock: MIFKUJ_clean_sbu_0, # of connection points: 6
#     Node 4, Type 0, BuildingBlock: MIFKUJ_clean_sbu_0, # of connection points: 6
#     Node 5, Type 0, BuildingBlock: MIFKUJ_clean_sbu_0, # of connection points: 6
#     Node 6, Type 0, BuildingBlock: MIFKUJ_clean_sbu_0, # of connection points: 6
#     Node 7, Type 0, BuildingBlock: MIFKUJ_clean_sbu_0, # of connection points: 6
#     Node 8, Type 0, BuildingBlock: MIFKUJ_clean_sbu_0, # of connection points: 6
#     Node 9, Type 0, BuildingBlock: MIFKUJ_clean_sbu_0, # of connection points: 6
#     Node 10, Type 0, BuildingBlock: MIFKUJ_clean_sbu_0, # of connection points: 6
#     Node 11, Type 0, BuildingBlock: MIFKUJ_clean_sbu_0, # of connection points: 6
#     Edge 12, Type (0, 0), None
#     Edge 13, Type (0, 0), None
#     Edge 14, Type (0, 0), None
#     Edge 15, Type (0, 0), None
#     Edge 16, Type (0, 0), None
#     Edge 17, Type (0, 0), None
#     Edge 18, Type (0, 0), None
#     Edge 19, Type (0, 0), None
#     Edge 20, Type (0, 0), None
#     Edge 21, Type (0, 0), None
#     Edge 22, Type (0, 0), None
#     Edge 23, Type (0, 0), None
#     Edge 24, Type (0, 0), None
#     Edge 25, Type (0, 0), None
#     Edge 26, Type (0, 0), None
#     Edge 27, Type (0, 0), None
#     Edge 28, Type (0, 0), None
#     Edge 29, Type (0, 0), None
#     Edge 30, Type (0, 0), None
#     Edge 31, Type (0, 0), None
#     Edge 32, Type (0, 0), None
#     Edge 33, Type (0, 0), None
#     Edge 34, Type (0, 0), None
#     Edge 35, Type (0, 0), None
#     Edge 36, Type (0, 0), None
#     Edge 37, Type (0, 0), None
#     Edge 38, Type (0, 0), None
#     Edge 39, Type (0, 0), None
#     Edge 40, Type (0, 0), None
#     Edge 41, Type (0, 0), None
#     Edge 42, Type (0, 0), None
#     Edge 43, Type (0, 0), None
#     Edge 44, Type (0, 0), None
#     Edge 45, Type (0, 0), None
#     Edge 46, Type (0, 0), None
#     Edge 47, Type (0, 0), None
# Relax obj value: 0.216
# Max RMSD: 0.319
# Mean RMSD: 0.253
data_MOF--net-lcy-e--node1-MIFKUJ_clean_sbu_0--edge1-none
_symmetry_space_group_name_H-M    P1
_symmetry_Int_Tables_number       1
_symmetry_cell_setting            triclinic
loop_
_symmetry_equiv_pos_as_xyz
'x, y, z'
_cell_length_a     18.377661
_cell_length_b     20.347714
_cell_length_c     20.200346
_cell_angle_alpha  85.005956
_cell_angle_beta   87.076518
_cell_angle_gamma 87.866291
loop_
_atom_site_label
_atom_site_type_symbol
_atom_site_fract_x
_atom_site_fract_y
_atom_site_fract_z
_atom_type_partial_charge
Zn0 Zn 0.10801 0.24434 0.38655 0.0
Zn1 Zn 0.08842 0.11526 0.49967 0.0
C2 C 0.20106 0.31694 0.45408 0.0
O3 O 0.14786 0.36036 0.44112 0.0
C4 C 0.96239 0.08101 0.41727 0.0
O5 O -0.00406 0.02653 0.4001 0.0
O6 O 0.09221 0.31257 0.30684 0.0
O7 O 0.12011 0.15409 0.35445 0.0
O8 O 0.17941 0.10956 0.43897 0.0
C9 C 0.14553 0.34569 0.28132 0.0
O10 O 0.20914 0.33726 0.30766 0.0
O11 O 0.1998 0.26083 0.43163 0.0
C12 C 0.03044 0.00871 0.59176 0.0
O13 O 0.96853 0.03311 0.56911 0.0
O14 O 0.08963 0.03569 0.57057 0.0
O15 O 0.07799 0.20073 0.5442 0.0
O16 O 0.02923 0.2583 0.45746 0.0
O17 O -0.00655 0.11865 0.45312 0.0
C18 C 0.17655 0.12378 0.37674 0.0
C19 C 0.03912 0.2494 0.51965 0.0
Zn20 Zn 0.86037 0.92869 0.68335 0.0
Zn21 Zn 0.06487 0.86654 0.75949 0.0
C22 C 0.77979 0.00367 0.77576 0.0
O23 O 0.7229 0.98063 0.74963 0.0
C24 C 0.09922 0.74909 0.68955 0.0
O25 O 0.12243 0.78939 0.6392 0.0
O26 O 0.79453 0.91075 0.60363 0.0
O27 O 0.96835 0.93234 0.6679 0.0
O28 O 0.0858 0.9303 0.67289 0.0
C29 C 0.77966 0.94894 0.55209 0.0
O30 O 0.80692 0.00798 0.54501 0.0
O31 O 0.83838 0.00562 0.7402 0.0
C32 C 0.16351 0.82883 0.8668 0.0
O33 O 0.14885 0.76949 0.85167 0.0
O34 O 0.13425 0.87918 0.83483 0.0
O35 O 0.95815 0.8784 0.78873 0.0
O36 O 0.85674 0.84797 0.74882 0.0
O37 O 0.07327 0.77204 0.74215 0.0
C38 C 0.02889 0.95303 0.64385 0.0
C39 C 0.91032 0.83486 0.78612 0.0
Zn40 Zn 0.29095 0.6949 0.96621 0.0
Zn41 Zn 0.32184 0.88293 0.99752 0.0
C42 C 0.27775 0.57645 0.04341 0.0
O43 O 0.33792 0.56962 0.00636 0.0
C44 C 0.46243 0.91527 0.93696 0.0
O45 O 0.435 0.97531 0.92455 0.0
O46 O 0.3212 0.65878 0.87863 0.0
O47 O 0.25085 0.78478 0.94304 0.0
O48 O 0.23627 0.89063 0.93362 0.0
C49 C 0.27982 0.62002 0.8536 0.0
O50 O 0.22108 0.59955 0.88788 0.0
O51 O 0.23778 0.62859 0.03264 0.0
C52 C 0.37831 0.97631 0.08232 0.0
O53 O 0.41466 0.92351 0.10634 0.0
O54 O 0.33101 0.97035 0.03946 0.0
O55 O 0.32409 0.79995 0.06426 0.0
O56 O 0.37663 0.71481 0.01539 0.0
O57 O 0.42026 0.86832 0.95379 0.0
C58 C 0.21641 0.83515 0.91833 0.0
C59 C 0.37755 0.75832 0.05702 0.0
Zn60 Zn 0.40072 0.12812 0.30342 0.0
Zn61 Zn 0.51498 0.12421 0.15386 0.0
C62 C 0.43596 0.23695 0.38312 0.0
O63 O 0.38198 0.2187 0.42491 0.0
C64 C 0.40189 0.04225 0.09594 0.0
O65 O 0.37849 0.09526 0.06047 0.0
O66 O 0.30586 0.11132 0.35918 0.0
O67 O 0.37819 0.15321 0.20969 0.0
O68 O 0.45946 0.21381 0.15639 0.0
C69 C 0.244 0.12416 0.33424 0.0
O70 O 0.24104 0.14596 0.27133 0.0
O71 O 0.45028 0.20616 0.3319 0.0
C72 C 0.61931 0.0849 0.05032 0.0
O73 O 0.59433 0.02645 0.07011 0.0
O74 O 0.59426 0.13501 0.07869 0.0
O75 O 0.56573 0.09262 0.24107 0.0
O76 O 0.47977 0.05451 0.31601 0.0
O77 O 0.45313 0.04638 0.13533 0.0
C78 C 0.39734 0.21016 0.18614 0.0
C79 C 0.54664 0.05861 0.29528 0.0
Zn80 Zn 0.57418 0.34574 0.48605 0.0
Zn81 Zn 0.60328 0.23718 0.63507 0.0
C82 C 0.48821 0.28466 0.40006 0.0
O83 O 0.54908 0.29161 0.36355 0.0
C84 C 0.73523 0.33258 0.64359 0.0
O85 O 0.69899 0.38948 0.63945 0.0
O86 O 0.59731 0.4382 0.45983 0.0
O87 O 0.56957 0.34117 0.57917 0.0
O88 O 0.51209 0.29045 0.6599 0.0
C89 C 0.56399 0.46974 0.4136 0.0
O90 O 0.52423 0.43757 0.37574 0.0
O91 O 0.48129 0.31102 0.45483 0.0
C92 C 0.65212 0.13885 0.72122 0.0
O93 O 0.70748 0.14444 0.67754 0.0
O94 O 0.59205 0.16618 0.70659 0.0
O95 O 0.61711 0.19813 0.543 0.0
O96 O 0.65021 0.27871 0.46473 0.0
O97 O 0.70212 0.27861 0.64411 0.0
C98 C 0.51197 0.33661 0.61513 0.0
C99 C 0.64823 0.21806 0.48667 0.0
Zn100 Zn 0.95551 0.35278 0.68164 0.0
Zn101 Zn 0.01443 0.37713 0.84991 0.0
C102 C 0.00531 0.29712 0.56298 0.0
O103 O 0.97698 0.35314 0.53706 0.0
C104 C 0.92516 0.50167 0.87731 0.0
O105 O 0.88313 0.467 0.92063 0.0
O106 O 0.85262 0.37957 0.65313 0.0
O107 O 0.93607 0.30724 0.76782 0.0
O108 O 0.94602 0.30205 0.87347 0.0
C109 C 0.81509 0.32884 0.6485 0.0
O110 O 0.84821 0.27044 0.65194 0.0
O111 O 0.00275 0.28484 0.62555 0.0
C112 C 0.09563 0.4155 0.95318 0.0
O113 O 0.10509 0.46835 0.9119 0.0
O114 O 0.06521 0.36657 0.93392 0.0
O115 O 0.08958 0.37216 0.77053 0.0
O116 O 0.02946 0.42422 0.687 0.0
O117 O 0.97453 0.47258 0.84318 0.0
C118 C 0.92328 0.2774 0.82396 0.0
C119 C 0.08817 0.41196 0.71779 0.0
Zn120 Zn 0.89872 0.69544 0.94617 0.0
Zn121 Zn 0.84308 0.73916 0.13608 0.0
C122 C 0.91197 0.7714 0.82753 0.0
O123 O 0.8611 0.72942 0.81987 0.0
C124 C 0.71104 0.66949 0.16958 0.0
O125 O 0.74079 0.64952 0.2258 0.0
O126 O 0.88225 0.60386 0.91664 0.0
O127 O 0.92594 0.68246 0.0385 0.0
O128 O 0.93082 0.67505 0.14491 0.0
C129 C 0.92767 0.57392 0.87927 0.0
O130 O 0.98472 0.60517 0.85268 0.0
O131 O 0.94936 0.76241 0.87917 0.0
C132 C 0.77932 0.8235 0.24011 0.0
O133 O 0.74178 0.85468 0.1927 0.0
O134 O 0.82673 0.77925 0.22552 0.0
O135 O 0.84362 0.79796 0.04837 0.0
O136 O 0.80547 0.74356 0.96554 0.0
O137 O 0.74971 0.69767 0.12312 0.0
C138 C 0.9571 0.65841 0.08957 0.0
C139 C 0.79417 0.78553 0.00887 0.0
Zn140 Zn 0.48993 0.66751 0.22213 0.0
Zn141 Zn 0.42788 0.62768 0.38411 0.0
C142 C 0.43079 0.74659 0.10791 0.0
O143 O 0.49825 0.76349 0.09377 0.0
C144 C 0.54832 0.53972 0.4187 0.0
O145 O 0.54146 0.56174 0.47797 0.0
O146 O 0.58729 0.64387 0.18191 0.0
O147 O 0.51051 0.73667 0.28161 0.0
O148 O 0.46242 0.7214 0.38371 0.0
C149 C 0.63395 0.68797 0.17134 0.0
O150 O 0.61442 0.74997 0.17728 0.0
O151 O 0.4167 0.70494 0.15688 0.0
C152 C 0.36214 0.55374 0.50291 0.0
O153 O 0.36414 0.50279 0.46714 0.0
O154 O 0.38412 0.609 0.47704 0.0
O155 O 0.3619 0.58868 0.31866 0.0
O156 O 0.46106 0.57758 0.25422 0.0
O157 O 0.51517 0.56964 0.37156 0.0
C158 C 0.49914 0.75548 0.33929 0.0
C159 C 0.4013 0.5556 0.27854 0.0
Zn160 Zn 0.2996 0.4135 0.19045 0.0
Zn161 Zn 0.1093 0.49975 0.1355 0.0
C162 C 0.38058 0.49353 0.25327 0.0
O163 O 0.42314 0.46907 0.20655 0.0
C164 C 0.10146 0.41953 0.02418 0.0
O165 O 0.07846 0.37186 0.06734 0.0
O166 O 0.36002 0.32572 0.1738 0.0
O167 O 0.19484 0.41064 0.18821 0.0
O168 O 0.07993 0.42108 0.20543 0.0
C169 C 0.35837 0.27021 0.20875 0.0
O170 O 0.31845 0.26515 0.26435 0.0
O171 O 0.31982 0.46746 0.2675 0.0
C172 C 0.01288 0.60571 0.08599 0.0
O173 O 0.03862 0.5892 0.02773 0.0
O174 O 0.03482 0.57461 0.13906 0.0
O175 O 0.21167 0.53548 0.14358 0.0
O176 O 0.31063 0.47955 0.11025 0.0
O177 O 0.11557 0.47465 0.04353 0.0
C178 C 0.13894 0.39127 0.22131 0.0
C179 C 0.2634 0.52673 0.09995 0.0
Zn180 Zn 0.68837 0.94869 0.95281 0.0
Zn181 Zn 0.7753 0.12792 0.89178 0.0
C182 C 0.72969 0.82887 1.00136 0.0
O183 O 0.6858 0.81864 0.95424 0.0
C184 C 0.66701 0.12787 0.79102 0.0
O185 O 0.61622 0.11033 0.83653 0.0
O186 O 0.58633 0.94157 0.92436 0.0
O187 O 0.69735 0.04122 0.96659 0.0
O188 O 0.70293 0.14509 0.97308 0.0
C189 C 0.53822 0.90674 0.95546 0.0
O190 O 0.55392 0.87233 0.01119 0.0
O191 O 0.7288 0.88539 0.02307 0.0
C192 C 0.87738 0.21974 0.83057 0.0
O193 O 0.85283 0.1986 0.77672 0.0
O194 O 0.85721 0.19269 0.8874 0.0
O195 O 0.80372 0.02926 0.88816 0.0
O196 O 0.752 0.93723 0.87174 0.0
O197 O 0.72918 0.14286 0.80717 0.0
C198 C 0.67595 0.09081 0.99593 0.0
C199 C 0.78603 0.9877 0.84785 0.0
Zn200 Zn 0.7383 0.0482 0.40357 0.0
Zn201 Zn 0.64436 0.88668 0.40886 0.0
C202 C 0.6804 0.1696 0.4435 0.0
O203 O 0.69144 0.18573 0.37949 0.0
C204 C 0.75636 0.83 0.31057 0.0
O205 O 0.77367 0.78309 0.35644 0.0
O206 O 0.84733 0.05082 0.38209 0.0
O207 O 0.72229 0.96549 0.44755 0.0
O208 O 0.70052 0.87481 0.50104 0.0
C209 C 0.88363 0.09177 0.40977 0.0
O210 O 0.84868 0.13671 0.44319 0.0
O211 O 0.69925 0.11232 0.46747 0.0
C212 C 0.53655 0.81457 0.35465 0.0
O213 O 0.55207 0.85962 0.3059 0.0
O214 O 0.56891 0.81531 0.40885 0.0
O215 O 0.58842 0.97764 0.38021 0.0
O216 O 0.66851 0.04909 0.32914 0.0
O217 O 0.70968 0.87497 0.32475 0.0
C218 C 0.73345 0.92834 0.49891 0.0
C219 C 0.60459 0.02537 0.33609 0.0
Zn220 Zn 0.29058 0.4058 0.61096 0.0
Zn221 Zn 0.21962 0.57609 0.66203 0.0
C222 C 0.25332 0.32989 0.50282 0.0
O223 O 0.29758 0.28292 0.52745 0.0
C224 C 0.28878 0.6092 0.78273 0.0
O225 O 0.33162 0.64676 0.74289 0.0
O226 O 0.38496 0.35686 0.63074 0.0
O227 O 0.30387 0.49766 0.59932 0.0
O228 O 0.30272 0.60187 0.59444 0.0
C229 C 0.44348 0.37019 0.59665 0.0
O230 O 0.44272 0.41558 0.54654 0.0
O231 O 0.24584 0.38378 0.52949 0.0
C232 C 0.1179 0.67871 0.69187 0.0
O233 O 0.10753 0.64142 0.74771 0.0
O234 O 0.15828 0.65745 0.64545 0.0
O235 O 0.15624 0.49354 0.65195 0.0
O236 O 0.21233 0.39769 0.68466 0.0
O237 O 0.24379 0.57326 0.75843 0.0
C238 C 0.32511 0.55037 0.56913 0.0
C239 C 0.15716 0.43777 0.68714 0.0
loop_
_geom_bond_atom_site_label_1
_geom_bond_atom_site_label_2
_geom_bond_distance
_geom_bond_site_symmetry_2
_ccdc_geom_bond_type
Zn0 O6 1.969 . S
Zn0 O7 1.965 . S
Zn0 O11 2.024 . S
Zn0 O16 1.969 . S
Zn1 O8 1.969 . S
Zn1 O14 1.969 . S
Zn1 O15 1.965 . S
Zn1 O17 2.024 1_455 S
C2 O3 1.229 . S
C2 O11 1.058 . S
O3 C2 1.229 . S
C4 O5 1.229 1_655 S
C4 O17 1.058 . S
O5 C4 1.229 1_455 S
O6 Zn0 1.969 . S
O6 C9 1.267 . S
O7 Zn0 1.965 . S
O7 C18 1.260 . S
O8 Zn1 1.969 . S
O8 C18 1.258 . S
C9 O6 1.267 . S
C9 O10 1.228 . S
O10 C9 1.228 . S
O11 Zn0 2.024 . S
O11 C2 1.058 . S
C12 O13 1.228 1_455 S
C12 O14 1.267 . S
O13 C12 1.228 1_655 S
O14 Zn1 1.969 . S
O14 C12 1.267 . S
O15 Zn1 1.965 . S
O15 C19 1.260 . S
O16 Zn0 1.969 . S
O16 C19 1.258 . S
O17 Zn1 2.024 1_655 S
O17 C4 1.058 . S
C18 O7 1.260 . S
C18 O8 1.258 . S
C19 O15 1.260 . S
C19 O16 1.258 . S
Zn20 O26 1.969 . S
Zn20 O27 1.965 . S
Zn20 O31 2.024 1_565 S
Zn20 O36 1.969 . S
Zn21 O28 1.969 . S
Zn21 O34 1.969 . S
Zn21 O35 1.965 . S
Zn21 O37 2.024 . S
C22 O23 1.229 1_545 S
C22 O31 1.058 . S
O23 C22 1.229 1_565 S
C24 O25 1.229 . S
C24 O37 1.058 . S
O25 C24 1.229 . S
O26 Zn20 1.969 . S
O26 C29 1.267 . S
O27 Zn20 1.965 . S
O27 C38 1.260 1_655 S
O28 Zn21 1.969 . S
O28 C38 1.258 . S
C29 O26 1.267 . S
C29 O30 1.228 . S
O30 C29 1.228 . S
O31 Zn20 2.024 1_545 S
O31 C22 1.058 . S
C32 O33 1.228 . S
C32 O34 1.267 . S
O33 C32 1.228 . S
O34 Zn21 1.969 . S
O34 C32 1.267 . S
O35 Zn21 1.965 . S
O35 C39 1.260 1_455 S
O36 Zn20 1.969 . S
O36 C39 1.258 . S
O37 Zn21 2.024 . S
O37 C24 1.058 . S
C38 O27 1.260 1_455 S
C38 O28 1.258 . S
C39 O35 1.260 1_655 S
C39 O36 1.258 . S
Zn40 O46 1.969 . S
Zn40 O47 1.965 . S
Zn40 O51 2.024 1_556 S
Zn40 O56 1.969 1_556 S
Zn41 O48 1.969 . S
Zn41 O54 1.969 1_556 S
Zn41 O55 1.965 1_556 S
Zn41 O57 2.024 . S
C42 O43 1.229 . S
C42 O51 1.058 . S
O43 C42 1.229 . S
C44 O45 1.229 . S
C44 O57 1.058 . S
O45 C44 1.229 . S
O46 Zn40 1.969 . S
O46 C49 1.267 . S
O47 Zn40 1.965 . S
O47 C58 1.260 . S
O48 Zn41 1.969 . S
O48 C58 1.258 . S
C49 O46 1.267 . S
C49 O50 1.228 . S
O50 C49 1.228 . S
O51 Zn40 2.024 1_554 S
O51 C42 1.058 . S
C52 O53 1.228 . S
C52 O54 1.267 . S
O53 C52 1.228 . S
O54 Zn41 1.969 1_554 S
O54 C52 1.267 . S
O55 Zn41 1.965 1_554 S
O55 C59 1.260 . S
O56 Zn40 1.969 1_554 S
O56 C59 1.258 . S
O57 Zn41 2.024 . S
O57 C44 1.058 . S
C58 O47 1.260 . S
C58 O48 1.258 . S
C59 O55 1.260 . S
C59 O56 1.258 . S
Zn60 O66 1.969 . S
Zn60 O67 1.965 . S
Zn60 O71 2.024 . S
Zn60 O76 1.969 . S
Zn61 O68 1.969 . S
Zn61 O74 1.969 . S
Zn61 O75 1.965 . S
Zn61 O77 2.024 . S
C62 O63 1.229 . S
C62 O71 1.058 . S
O63 C62 1.229 . S
C64 O65 1.229 . S
C64 O77 1.058 . S
O65 C64 1.229 . S
O66 Zn60 1.969 . S
O66 C69 1.267 . S
O67 Zn60 1.965 . S
O67 C78 1.260 . S
O68 Zn61 1.969 . S
O68 C78 1.258 . S
C69 O66 1.267 . S
C69 O70 1.228 . S
O70 C69 1.228 . S
O71 Zn60 2.024 . S
O71 C62 1.058 . S
C72 O73 1.228 . S
C72 O74 1.267 . S
O73 C72 1.228 . S
O74 Zn61 1.969 . S
O74 C72 1.267 . S
O75 Zn61 1.965 . S
O75 C79 1.260 . S
O76 Zn60 1.969 . S
O76 C79 1.258 . S
O77 Zn61 2.024 . S
O77 C64 1.058 . S
C78 O67 1.260 . S
C78 O68 1.258 . S
C79 O75 1.260 . S
C79 O76 1.258 . S
Zn80 O86 1.969 . S
Zn80 O87 1.965 . S
Zn80 O91 2.024 . S
Zn80 O96 1.969 . S
Zn81 O88 1.969 . S
Zn81 O94 1.969 . S
Zn81 O95 1.965 . S
Zn81 O97 2.024 . S
C82 O83 1.229 . S
C82 O91 1.058 . S
O83 C82 1.229 . S
C84 O85 1.229 . S
C84 O97 1.058 . S
O85 C84 1.229 . S
O86 Zn80 1.969 . S
O86 C89 1.267 . S
O87 Zn80 1.965 . S
O87 C98 1.260 . S
O88 Zn81 1.969 . S
O88 C98 1.258 . S
C89 O86 1.267 . S
C89 O90 1.228 . S
O90 C89 1.228 . S
O91 Zn80 2.024 . S
O91 C82 1.058 . S
C92 O93 1.228 . S
C92 O94 1.267 . S
O93 C92 1.228 . S
O94 Zn81 1.969 . S
O94 C92 1.267 . S
O95 Zn81 1.965 . S
O95 C99 1.260 . S
O96 Zn80 1.969 . S
O96 C99 1.258 . S
O97 Zn81 2.024 . S
O97 C84 1.058 . S
C98 O87 1.260 . S
C98 O88 1.258 . S
C99 O95 1.260 . S
C99 O96 1.258 . S
Zn100 O106 1.969 . S
Zn100 O107 1.965 . S
Zn100 O111 2.024 1_655 S
Zn100 O116 1.969 1_655 S
Zn101 O108 1.969 1_455 S
Zn101 O114 1.969 . S
Zn101 O115 1.965 . S
Zn101 O117 2.024 1_455 S
C102 O103 1.229 . S
C102 O111 1.058 . S
O103 C102 1.229 . S
C104 O105 1.229 . S
C104 O117 1.058 . S
O105 C104 1.229 . S
O106 Zn100 1.969 . S
O106 C109 1.267 . S
O107 Zn100 1.965 . S
O107 C118 1.260 . S
O108 Zn101 1.969 1_655 S
O108 C118 1.258 . S
C109 O106 1.267 . S
C109 O110 1.228 . S
O110 C109 1.228 . S
O111 Zn100 2.024 1_455 S
O111 C102 1.058 . S
C112 O113 1.228 . S
C112 O114 1.267 . S
O113 C112 1.228 . S
O114 Zn101 1.969 . S
O114 C112 1.267 . S
O115 Zn101 1.965 . S
O115 C119 1.260 . S
O116 Zn100 1.969 1_455 S
O116 C119 1.258 . S
O117 Zn101 2.024 1_655 S
O117 C104 1.058 . S
C118 O107 1.260 . S
C118 O108 1.258 . S
C119 O115 1.260 . S
C119 O116 1.258 . S
Zn120 O126 1.969 . S
Zn120 O127 1.965 1_556 S
Zn120 O131 2.024 . S
Zn120 O136 1.969 . S
Zn121 O128 1.969 . S
Zn121 O134 1.969 . S
Zn121 O135 1.965 . S
Zn121 O137 2.024 . S
C122 O123 1.223 1_455 S
C122 O131 1.058 1_455 S
O123 C122 1.223 1_655 S
C124 O125 1.229 . S
C124 O137 1.058 . S
O125 C124 1.229 . S
O126 Zn120 1.969 . S
O126 C129 1.267 . S
O127 Zn120 1.965 1_554 S
O127 C138 1.260 . S
O128 Zn121 1.969 . S
O128 C138 1.258 . S
C129 O126 1.267 . S
C129 O130 1.228 . S
O130 C129 1.228 . S
O131 Zn120 2.024 . S
O131 C122 1.058 1_655 S
C132 O133 1.228 . S
C132 O134 1.267 . S
O133 C132 1.228 . S
O134 Zn121 1.969 . S
O134 C132 1.267 . S
O135 Zn121 1.965 . S
O135 C139 1.260 1_554 S
O136 Zn120 1.969 . S
O136 C139 1.258 . S
O137 Zn121 2.024 . S
O137 C124 1.058 . S
C138 O127 1.260 . S
C138 O128 1.258 . S
C139 O135 1.260 1_556 S
C139 O136 1.258 . S
Zn140 O146 1.969 . S
Zn140 O147 1.965 . S
Zn140 O151 2.024 . S
Zn140 O156 1.969 . S
Zn141 O148 1.969 . S
Zn141 O154 1.969 . S
Zn141 O155 1.965 . S
Zn141 O157 2.024 . S
C142 O143 1.229 . S
C142 O151 1.058 . S
O143 C142 1.229 . S
C144 O145 1.229 . S
C144 O157 1.058 . S
O145 C144 1.229 . S
O146 Zn140 1.969 . S
O146 C149 1.267 . S
O147 Zn140 1.965 . S
O147 C158 1.260 . S
O148 Zn141 1.969 . S
O148 C158 1.258 . S
C149 O146 1.267 . S
C149 O150 1.228 . S
O150 C149 1.228 . S
O151 Zn140 2.024 . S
O151 C142 1.058 . S
C152 O153 1.228 . S
C152 O154 1.267 . S
O153 C152 1.228 . S
O154 Zn141 1.969 . S
O154 C152 1.267 . S
O155 Zn141 1.965 . S
O155 C159 1.260 . S
O156 Zn140 1.969 . S
O156 C159 1.258 . S
O157 Zn141 2.024 . S
O157 C144 1.058 . S
C158 O147 1.260 . S
C158 O148 1.258 . S
C159 O155 1.260 . S
C159 O156 1.258 . S
Zn160 O166 1.969 . S
Zn160 O167 1.965 . S
Zn160 O171 2.024 . S
Zn160 O176 1.969 . S
Zn161 O168 1.969 . S
Zn161 O174 1.969 . S
Zn161 O175 1.965 . S
Zn161 O177 2.024 . S
C162 O163 1.229 . S
C162 O171 1.058 . S
O163 C162 1.229 . S
C164 O165 1.229 1_455 S
C164 O177 1.058 . S
O165 C164 1.229 1_655 S
O166 Zn160 1.969 . S
O166 C169 1.267 . S
O167 Zn160 1.965 . S
O167 C178 1.260 . S
O168 Zn161 1.969 . S
O168 C178 1.258 . S
C169 O166 1.267 . S
C169 O170 1.228 . S
O170 C169 1.228 . S
O171 Zn160 2.024 . S
O171 C162 1.058 . S
C172 O173 1.228 . S
C172 O174 1.267 . S
O173 C172 1.228 . S
O174 Zn161 1.969 . S
O174 C172 1.267 . S
O175 Zn161 1.965 . S
O175 C179 1.260 . S
O176 Zn160 1.969 . S
O176 C179 1.258 . S
O177 Zn161 2.024 . S
O177 C164 1.058 . S
C178 O167 1.260 . S
C178 O168 1.258 . S
C179 O175 1.260 . S
C179 O176 1.258 . S
Zn180 O186 1.969 . S
Zn180 O187 1.965 1_565 S
Zn180 O191 2.024 1_556 S
Zn180 O196 1.969 . S
Zn181 O188 1.969 . S
Zn181 O194 1.969 . S
Zn181 O195 1.965 . S
Zn181 O197 2.024 . S
C182 O183 1.229 1_554 S
C182 O191 1.058 . S
O183 C182 1.229 1_556 S
C184 O185 1.229 . S
C184 O197 1.058 . S
O185 C184 1.229 . S
O186 Zn180 1.969 . S
O186 C189 1.267 . S
O187 Zn180 1.965 1_545 S
O187 C198 1.260 . S
O188 Zn181 1.969 . S
O188 C198 1.258 . S
C189 O186 1.267 . S
C189 O190 1.228 1_556 S
O190 C189 1.228 1_554 S
O191 Zn180 2.024 1_554 S
O191 C182 1.058 . S
C192 O193 1.228 . S
C192 O194 1.267 . S
O193 C192 1.228 . S
O194 Zn181 1.969 . S
O194 C192 1.267 . S
O195 Zn181 1.965 . S
O195 C199 1.260 . S
O196 Zn180 1.969 . S
O196 C199 1.258 1_565 S
O197 Zn181 2.024 . S
O197 C184 1.058 . S
C198 O187 1.260 . S
C198 O188 1.258 . S
C199 O195 1.260 . S
C199 O196 1.258 1_545 S
Zn200 O206 1.969 . S
Zn200 O207 1.965 1_545 S
Zn200 O211 2.024 . S
Zn200 O216 1.969 . S
Zn201 O208 1.969 . S
Zn201 O214 1.969 . S
Zn201 O215 1.965 . S
Zn201 O217 2.024 . S
C202 O203 1.229 . S
C202 O211 1.058 . S
O203 C202 1.229 . S
C204 O205 1.229 . S
C204 O217 1.058 . S
O205 C204 1.229 . S
O206 Zn200 1.969 . S
O206 C209 1.267 . S
O207 Zn200 1.965 1_565 S
O207 C218 1.260 . S
O208 Zn201 1.969 . S
O208 C218 1.258 . S
C209 O206 1.267 . S
C209 O210 1.228 . S
O210 C209 1.228 . S
O211 Zn200 2.024 . S
O211 C202 1.058 . S
C212 O213 1.228 . S
C212 O214 1.267 . S
O213 C212 1.228 . S
O214 Zn201 1.969 . S
O214 C212 1.267 . S
O215 Zn201 1.965 . S
O215 C219 1.260 1_565 S
O216 Zn200 1.969 . S
O216 C219 1.258 . S
O217 Zn201 2.024 . S
O217 C204 1.058 . S
C218 O207 1.260 . S
C218 O208 1.258 . S
C219 O215 1.260 1_545 S
C219 O216 1.258 . S
Zn220 O226 1.969 . S
Zn220 O227 1.965 . S
Zn220 O231 2.024 . S
Zn220 O236 1.969 . S
Zn221 O228 1.969 . S
Zn221 O234 1.969 . S
Zn221 O235 1.965 . S
Zn221 O237 2.024 . S
C222 O223 1.229 . S
C222 O231 1.058 . S
O223 C222 1.229 . S
C224 O225 1.229 . S
C224 O237 1.058 . S
O225 C224 1.229 . S
O226 Zn220 1.969 . S
O226 C229 1.267 . S
O227 Zn220 1.965 . S
O227 C238 1.260 . S
O228 Zn221 1.969 . S
O228 C238 1.258 . S
C229 O226 1.267 . S
C229 O230 1.228 . S
O230 C229 1.228 . S
O231 Zn220 2.024 . S
O231 C222 1.058 . S
C232 O233 1.228 . S
C232 O234 1.267 . S
O233 C232 1.228 . S
O234 Zn221 1.969 . S
O234 C232 1.267 . S
O235 Zn221 1.965 . S
O235 C239 1.260 . S
O236 Zn220 1.969 . S
O236 C239 1.258 . S
O237 Zn221 2.024 . S
O237 C224 1.058 . S
C238 O227 1.260 . S
C238 O228 1.258 . S
C239 O235 1.260 . S
C239 O236 1.258 . S
C2 C222 0.643 . S
C199 C22 1.764 . S
C42 C179 2.141 . S
C79 C219 2.657 . S
C99 C202 2.145 . S
C119 C239 2.730 . S
C182 C139 2.264 1_554 S
C159 C162 1.775 . S
C62 C82 1.063 . S
C19 C102 1.776 . S
C39 C122 2.156 1_655 S
C142 C59 2.259 . S
C9 C178 2.443 . S
C29 C218 2.757 . S
C224 C49 2.013 . S
C72 C198 1.786 1_554 S
C92 C184 2.054 . S
C164 C112 2.225 1_554 S
C204 C132 2.149 . S
C238 C152 2.264 . S
C18 C69 2.222 . S
C12 C38 1.842 1_545 S
C32 C58 2.076 . S
C64 C52 1.901 1_545 S
C109 C84 2.293 . S
C104 C129 2.350 . S
C124 C149 2.062 . S
C89 C144 2.730 . S
C169 C78 2.867 . S
C118 C192 1.960 . S
C172 C138 1.723 1_455 S
C212 C158 2.140 . S
C98 C229 1.772 . S
C232 C24 1.753 . S
C44 C189 2.032 . S
C209 C4 2.306 . S
