# Generated by pormake.
# Topology sqp, (5)-cn, num edge types: 1
# Building blocks:
#     Node 0, Type 0, BuildingBlock: XOMCOT_clean_sbu_0, # of connection points: 5
#     Node 1, Type 0, BuildingBlock: XOMCOT_clean_sbu_0, # of connection points: 5
#     Node 2, Type 0, BuildingBlock: XOMCOT_clean_sbu_0, # of connection points: 5
#     Node 3, Type 0, BuildingBlock: XOMCOT_clean_sbu_0, # of connection points: 5
#     Edge 4, Type (0, 0), BuildingBlock: AJUNOK_clean_linker_0, # of connection points: 2
#     Edge 5, Type (0, 0), BuildingBlock: AJUNOK_clean_linker_0, # of connection points: 2
#     Edge 6, Type (0, 0), BuildingBlock: AJUNOK_clean_linker_0, # of connection points: 2
#     Edge 7, Type (0, 0), BuildingBlock: AJUNOK_clean_linker_0, # of connection points: 2
#     Edge 8, Type (0, 0), BuildingBlock: AJUNOK_clean_linker_0, # of connection points: 2
#     Edge 9, Type (0, 0), BuildingBlock: AJUNOK_clean_linker_0, # of connection points: 2
#     Edge 10, Type (0, 0), BuildingBlock: AJUNOK_clean_linker_0, # of connection points: 2
#     Edge 11, Type (0, 0), BuildingBlock: AJUNOK_clean_linker_0, # of connection points: 2
#     Edge 12, Type (0, 0), BuildingBlock: AJUNOK_clean_linker_0, # of connection points: 2
#     Edge 13, Type (0, 0), BuildingBlock: AJUNOK_clean_linker_0, # of connection points: 2
# Relax obj value: 0.121
# Max RMSD: 0.201
# Mean RMSD: 0.201
data_MOF--net-sqp--node1-XOMCOT_clean_sbu_0--edge1-AJUNOK_clean_linker_0
_symmetry_space_group_name_H-M    P1
_symmetry_Int_Tables_number       1
_symmetry_cell_setting            triclinic
loop_
_symmetry_equiv_pos_as_xyz
'x, y, z'
_cell_length_a     17.910306
_cell_length_b     14.435496
_cell_length_c     37.800542
_cell_angle_alpha  89.892182
_cell_angle_beta   86.545552
_cell_angle_gamma 90.102521
loop_
_atom_site_label
_atom_site_type_symbol
_atom_site_fract_x
_atom_site_fract_y
_atom_site_fract_z
_atom_type_partial_charge
Co0 Co 1.02349 1.01291 0.29536 0.0
C1 C 0.89454 0.14059 0.28621 0.0
C2 C 0.99513 0.21394 0.29633 0.0
C3 C 0.93959 0.27758 0.29174 0.0
N4 N 0.96718 0.12772 0.29291 0.0
N5 N 0.87659 0.23151 0.28512 0.0
H6 H 0.8556 0.08516 0.28176 0.0
H7 H 0.05257 0.23052 0.30077 0.0
C8 C 0.18561 0.06677 0.28634 0.0
O9 O 0.20118 1.00345 0.30976 0.0
N10 N 0.08009 0.89818 0.29719 0.0
C11 C 0.08618 0.83867 0.32448 0.0
C12 C 0.13502 0.76912 0.31402 0.0
C13 C 0.1237 0.86209 0.27022 0.0
N14 N 0.15833 0.78399 0.27997 0.0
C15 C 0.98629 0.99101 0.36932 0.0
C16 C 0.08512 0.11829 0.39456 0.0
C17 C 0.03929 0.06688 0.41855 0.0
C18 C 0.98882 1.00369 0.40565 0.0
C19 C 0.08149 0.10262 0.35814 0.0
N20 N 0.03427 0.03693 0.3458 0.0
H21 H 0.94685 0.94108 0.36046 0.0
H22 H 0.1163 0.14463 0.34038 0.0
H23 H 0.05871 0.84469 0.35048 0.0
H24 H 0.13282 0.895 0.24456 0.0
O25 O 0.93299 0.94082 0.2998 0.0
O26 O 0.99288 0.97689 0.24867 0.0
O27 O 0.11781 0.08263 0.27933 0.0
C28 C 0.93828 0.93261 0.26562 0.0
H29 H 0.94595 0.3522 0.2915 0.0
H30 H 0.1529 0.7125 0.3303 0.0
H31 H 0.12404 0.16895 0.40388 0.0
H32 H 0.95191 0.96364 0.42361 0.0
Co33 Co 0.04861 0.03936 0.69486 0.0
C34 C 0.17426 0.1671 0.71108 0.0
C35 C 0.08417 0.23682 0.68737 0.0
C36 C 0.13892 0.30084 0.69344 0.0
N37 N 0.10602 0.15294 0.69855 0.0
N38 N 0.19533 0.25705 0.70851 0.0
H39 H 0.20849 0.11307 0.7214 0.0
H40 H 1.03194 0.25052 0.67543 0.0
C41 C 0.88526 0.09315 0.7106 0.0
O42 O 0.86224 1.01773 0.69529 0.0
N43 N 0.99186 0.92543 0.69115 0.0
C44 C 0.98094 0.87533 0.6618 0.0
C45 C 0.93238 0.80371 0.6708 0.0
C46 C 0.95315 0.8807 0.71785 0.0
N47 N 0.91479 0.80788 0.70593 0.0
C48 C 0.10756 0.06482 0.62475 0.0
C49 C 0.97623 0.0954 0.59193 0.0
C50 C 0.04334 0.0865 0.57126 0.0
C51 C 0.10976 0.07381 0.58809 0.0
C52 C 0.9764 0.08555 0.62879 0.0
N53 N 0.04134 0.06684 0.64466 0.0
H54 H 0.15963 0.0547 0.63715 0.0
H55 H 0.92405 0.09055 0.64382 0.0
H56 H 1.00459 0.8909 0.63548 0.0
H57 H 0.94804 0.90558 0.74489 0.0
O58 O 0.13803 0.96541 0.69043 0.0
O59 O 0.07721 0.99979 0.74143 0.0
O60 O 0.95515 0.11302 0.71042 0.0
C61 C 0.13233 0.95625 0.72463 0.0
H62 H 0.13668 0.37439 0.68795 0.0
H63 H 0.90975 0.7542 0.65279 0.0
H64 H 0.92384 0.10606 0.57962 0.0
H65 H 0.16288 0.06863 0.57292 0.0
Co66 Co 0.52058 0.54324 0.7967 0.0
C67 C 0.39345 0.67018 0.78261 0.0
C68 C 0.48569 0.74083 0.80423 0.0
C69 C 0.43027 0.80437 0.79918 0.0
N70 N 0.46266 0.65638 0.79412 0.0
N71 N 0.37238 0.75978 0.78573 0.0
H72 H 0.35904 0.61672 0.77192 0.0
H73 H 0.53983 0.75615 0.8139 0.0
C74 C 0.68258 0.60343 0.78535 0.0
O75 O 0.70255 0.54239 0.80882 0.0
N76 N 0.57876 0.4307 0.79921 0.0
C77 C 0.57579 0.36636 0.82517 0.0
C78 C 0.625 0.29616 0.81569 0.0
C79 C 0.6282 0.39771 0.77395 0.0
N80 N 0.65842 0.31687 0.78377 0.0
C81 C 0.47544 0.53029 0.87 0.0
C82 C 0.58812 0.63233 0.89783 0.0
C83 C 0.53469 0.58896 0.9209 0.0
C84 C 0.47687 0.53979 0.90643 0.0
C85 C 0.58416 0.6219 0.86107 0.0
N86 N 0.53016 0.56743 0.84741 0.0
H87 H 0.42998 0.49072 0.86051 0.0
H88 H 0.62405 0.65937 0.84424 0.0
H89 H 0.54011 0.36923 0.84919 0.0
H90 H 0.64201 0.43247 0.749 0.0
O91 O 0.43126 0.46895 0.80109 0.0
O92 O 0.49029 0.50443 0.74997 0.0
O93 O 0.61331 0.61576 0.78008 0.0
C94 C 0.43629 0.45929 0.76706 0.0
H95 H 0.4335 0.87831 0.80361 0.0
H96 H 0.63607 0.23508 0.83118 0.0
H97 H 0.63328 0.67233 0.90802 0.0
H98 H 0.43323 0.50727 0.92329 0.0
Co99 Co 0.55072 0.51269 0.19778 0.0
C100 C 0.67929 0.64136 0.20676 0.0
C101 C 0.57712 0.71416 0.19957 0.0
C102 C 0.6325 0.77813 0.20417 0.0
N103 N 0.60619 0.62806 0.2011 0.0
N104 N 0.69647 0.73236 0.20893 0.0
H105 H 0.71909 0.58616 0.20983 0.0
H106 H 0.51907 0.73042 0.1965 0.0
C107 C 0.38927 0.57303 0.20363 0.0
O108 O 0.37425 0.5166 0.17776 0.0
N109 N 0.49452 0.39776 0.1952 0.0
C110 C 0.50631 0.32612 0.17263 0.0
C111 C 0.45942 0.25422 0.18314 0.0
C112 C 0.44165 0.36733 0.21952 0.0
N113 N 0.41896 0.28048 0.21256 0.0
C114 C 0.58884 0.48937 0.12415 0.0
C115 C 0.49794 0.62393 0.09787 0.0
C116 C 0.54314 0.57084 0.07417 0.0
C117 C 0.58971 0.50402 0.08783 0.0
C118 C 0.499 0.60716 0.13439 0.0
N119 N 0.54196 0.53771 0.14722 0.0
H120 H 0.62688 0.43841 0.13336 0.0
H121 H 0.4657 0.65134 0.15187 0.0
H122 H 0.54762 0.32369 0.15074 0.0
H123 H 0.42154 0.40702 0.24241 0.0
O124 O 0.6418 0.442 0.19385 0.0
O125 O 0.57987 0.47523 0.24465 0.0
O126 O 0.45606 0.58073 0.21342 0.0
C127 C 0.63542 0.43246 0.22797 0.0
H128 H 0.62548 0.85253 0.20577 0.0
H129 H 0.45553 0.18764 0.17023 0.0
H130 H 0.46144 0.67696 0.08832 0.0
H131 H 0.62691 0.46304 0.07047 0.0
C132 C 1.01966 0.15429 0.47543 0.0
C133 C 0.04537 0.0748 0.4571 0.0
C134 C 1.01851 0.15799 0.51261 0.0
C135 C 0.04414 0.08282 0.53222 0.0
H136 H 0.99869 0.21274 0.46102 0.0
H137 H 0.99774 0.2198 0.52607 0.0
S138 S 0.11694 0.85962 0.49629 0.0
N139 N 0.09671 0.91991 0.46096 0.0
N140 N 0.09559 0.92709 0.53065 0.0
C141 C 0.07075 1.00367 0.51401 0.0
C142 C 0.07112 0.9996 0.47644 0.0
C143 C 0.53231 0.49962 0.01495 0.0
C144 C 0.54034 0.58009 0.03524 0.0
C145 C 0.53223 0.50375 0.9781 0.0
C146 C 0.53983 0.58859 0.95988 0.0
H147 H 0.5257 0.43258 0.02772 0.0
H148 H 0.52605 0.43963 0.96369 0.0
S149 S 0.56334 0.81954 0.00054 0.0
N150 N 0.55747 0.74724 0.03455 0.0
N151 N 0.5557 0.75529 0.96479 0.0
C152 C 0.54829 0.66984 0.97971 0.0
C153 C 0.54844 0.66559 0.01751 0.0
C154 C 0.23533 0.21452 0.25918 0.0
C155 C 0.24686 0.12137 0.26845 0.0
C156 C 0.29256 0.26693 0.24174 0.0
C157 C 0.36247 0.22724 0.23216 0.0
H158 H 0.1819 0.24733 0.26562 0.0
H159 H 0.28164 0.33832 0.23488 0.0
S160 S 0.42099 0.98639 0.25013 0.0
N161 N 0.33386 0.99204 0.26699 0.0
N162 N 0.44057 0.09018 0.23353 0.0
C163 C 0.37471 0.13438 0.24125 0.0
C164 C 0.31711 0.08156 0.25961 0.0
C165 C 0.78164 0.35559 0.29007 0.0
C166 C 0.8088 0.27321 0.274 0.0
C167 C 0.722 0.40469 0.27645 0.0
C168 C 0.68891 0.37383 0.24587 0.0
H169 H 0.80813 0.38341 0.31277 0.0
H170 H 0.70443 0.46942 0.28876 0.0
S171 S 0.7358 0.15991 0.19512 0.0
N172 N 0.79492 0.161 0.22698 0.0
N173 N 0.68378 0.25351 0.20121 0.0
C174 C 0.7135 0.28995 0.2304 0.0
C175 C 0.77319 0.23941 0.24453 0.0
C176 C 0.79078 0.85736 0.20404 0.0
C177 C 0.76453 0.77388 0.21974 0.0
C178 C 0.85052 0.90638 0.21762 0.0
C179 C 0.88447 0.87436 0.24782 0.0
H180 H 0.76343 0.88605 0.18172 0.0
H181 H 0.86749 0.9719 0.2056 0.0
S182 S 0.83988 0.6574 0.29745 0.0
N183 N 0.78004 0.65937 0.2659 0.0
N184 N 0.8913 0.75192 0.2917 0.0
C185 C 0.86072 0.78945 0.26291 0.0
C186 C 0.801 0.73893 0.24876 0.0
C187 C 0.28162 0.70876 0.27571 0.0
C188 C 0.21531 0.73293 0.25998 0.0
C189 C 0.33774 0.65818 0.25703 0.0
C190 C 0.32909 0.62824 0.22208 0.0
H191 H 0.29035 0.72996 0.30262 0.0
H192 H 0.38785 0.64123 0.27036 0.0
S193 S 0.16524 0.67421 0.16906 0.0
N194 N 0.14391 0.72457 0.20756 0.0
N195 N 0.24877 0.6277 0.17237 0.0
C196 C 0.2628 0.65203 0.20603 0.0
C197 C 0.20615 0.70504 0.22496 0.0
C198 C 0.28483 0.78117 0.7387 0.0
C199 C 0.3068 0.80235 0.77277 0.0
C200 C 0.22697 0.83015 0.72381 0.0
C201 C 0.18801 0.90084 0.74271 0.0
H202 H 0.31475 0.72913 0.72291 0.0
H203 H 0.21345 0.81337 0.69701 0.0
S204 S 0.22004 0.97672 0.83419 0.0
N205 N 0.28283 0.89466 0.82587 0.0
N206 N 0.17277 0.98577 0.79813 0.0
C207 C 0.20714 0.91974 0.77745 0.0
C208 C 0.26701 0.87084 0.79239 0.0
C209 C 0.29574 0.37541 0.70288 0.0
C210 C 0.26126 0.30015 0.72134 0.0
C211 C 0.35542 0.42425 0.71672 0.0
C212 C 0.38169 0.40026 0.74977 0.0
H213 H 0.2755 0.3976 0.67782 0.0
H214 H 0.37878 0.48345 0.70226 0.0
S215 S 0.31408 0.20587 0.80771 0.0
N216 N 0.26051 0.20212 0.77371 0.0
N217 N 0.37234 0.29305 0.79954 0.0
C218 C 0.34963 0.32318 0.76782 0.0
C219 C 0.28954 0.27322 0.75366 0.0
C220 C 0.76154 0.11365 0.74332 0.0
C221 C 0.82844 0.15362 0.72885 0.0
C222 C 0.7064 0.16745 0.76123 0.0
C223 C 0.7152 0.26354 0.76463 0.0
H224 H 0.75207 0.03972 0.74134 0.0
H225 H 0.65611 0.1339 0.77228 0.0
S226 S 0.87912 0.40273 0.7316 0.0
N227 N 0.90037 0.29559 0.71945 0.0
N228 N 0.79549 0.397 0.75248 0.0
C229 C 0.78126 0.30485 0.75009 0.0
C230 C 0.83828 0.24977 0.73242 0.0
C231 C 0.81472 0.66136 0.77613 0.0
C232 C 0.74094 0.65846 0.76502 0.0
C233 C 0.87132 0.71083 0.75686 0.0
C234 C 0.85659 0.75721 0.72539 0.0
H235 H 0.82897 0.62549 0.79999 0.0
H236 H 0.92722 0.71193 0.76629 0.0
S237 S 0.67376 0.77421 0.68502 0.0
N238 N 0.65668 0.70919 0.72059 0.0
N239 N 0.7636 0.80039 0.6844 0.0
C240 C 0.78352 0.75543 0.71399 0.0
C241 C 0.72557 0.70653 0.7338 0.0
loop_
_geom_bond_atom_site_label_1
_geom_bond_atom_site_label_2
_geom_bond_distance
_geom_bond_site_symmetry_2
_ccdc_geom_bond_type
Co0 N4 2.148 1_565 S
Co0 N10 2.128 1_655 S
Co0 N20 2.194 1_565 S
Co0 O25 2.351 . S
Co0 O26 2.155 . S
Co0 O27 2.096 1_665 S
C1 N4 1.301 . S
C1 N5 1.328 . S
C1 H6 0.930 . S
C2 C3 1.333 . S
C2 N4 1.317 . S
C2 H7 0.930 . S
C3 C2 1.333 . S
C3 N5 1.350 . S
C3 H29 0.931 . S
N4 Co0 2.148 1_545 S
N4 C1 1.301 . S
N4 C2 1.317 . S
N5 C1 1.328 . S
N5 C3 1.350 . S
H6 C1 0.930 . S
H7 C2 0.930 . S
C8 O9 1.224 . S
C8 O27 1.247 . S
O9 C8 1.224 . S
N10 Co0 2.128 1_455 S
N10 C11 1.355 . S
N10 C13 1.311 . S
C11 N10 1.355 . S
C11 C12 1.363 . S
C11 H23 0.929 . S
C12 C11 1.363 . S
C12 N14 1.375 . S
C12 H30 0.931 . S
C13 N10 1.311 . S
C13 N14 1.347 . S
C13 H24 0.929 . S
N14 C12 1.375 . S
N14 C13 1.347 . S
C15 C18 1.365 . S
C15 N20 1.328 1_565 S
C15 H21 0.929 . S
C16 C17 1.352 1_455 S
C16 C19 1.378 . S
C16 H31 0.929 . S
C17 C16 1.352 1_655 S
C17 C18 1.377 1_545 S
C18 C15 1.365 . S
C18 C17 1.377 1_565 S
C18 H32 0.930 . S
C19 C16 1.378 . S
C19 N20 1.315 1_455 S
C19 H22 0.930 . S
N20 Co0 2.194 1_545 S
N20 C15 1.328 1_545 S
N20 C19 1.315 1_655 S
H21 C15 0.929 . S
H22 C19 0.930 . S
H23 C11 0.929 . S
H24 C13 0.929 . S
O25 Co0 2.351 . S
O25 C28 1.244 . S
O26 Co0 2.155 . S
O26 C28 1.240 . S
O27 Co0 2.096 1_445 S
O27 C8 1.247 . S
C28 O25 1.244 . S
C28 O26 1.240 . S
H29 C3 0.931 . S
H30 C12 0.931 . S
H31 C16 0.929 . S
H32 C18 0.930 . S
Co33 N37 2.148 1_565 S
Co33 N43 2.128 1_455 S
Co33 N53 2.194 1_565 S
Co33 O58 2.351 . S
Co33 O59 2.155 . S
Co33 O60 2.096 1_465 S
C34 N37 1.301 . S
C34 N38 1.328 . S
C34 H39 0.930 . S
C35 C36 1.333 . S
C35 N37 1.317 . S
C35 H40 0.930 . S
C36 C35 1.333 . S
C36 N38 1.350 . S
C36 H62 0.931 . S
N37 Co33 2.148 1_545 S
N37 C34 1.301 . S
N37 C35 1.317 . S
N38 C34 1.328 . S
N38 C36 1.350 . S
H39 C34 0.930 . S
H40 C35 0.930 . S
C41 O42 1.224 . S
C41 O60 1.247 . S
O42 C41 1.224 . S
N43 Co33 2.128 1_655 S
N43 C44 1.355 . S
N43 C46 1.311 . S
C44 N43 1.355 . S
C44 C45 1.363 . S
C44 H56 0.929 . S
C45 C44 1.363 . S
C45 N47 1.375 . S
C45 H63 0.931 . S
C46 N43 1.311 . S
C46 N47 1.347 . S
C46 H57 0.929 . S
N47 C45 1.375 . S
N47 C46 1.347 . S
C48 C51 1.365 . S
C48 N53 1.328 1_565 S
C48 H54 0.929 . S
C49 C50 1.362 1_655 S
C49 C52 1.378 . S
C49 H64 0.929 . S
C50 C49 1.362 1_455 S
C50 C51 1.366 1_545 S
C51 C48 1.365 . S
C51 C50 1.366 1_565 S
C51 H65 0.930 . S
C52 C49 1.378 . S
C52 N53 1.315 1_655 S
C52 H55 0.930 . S
N53 Co33 2.194 1_545 S
N53 C48 1.328 1_545 S
N53 C52 1.315 1_455 S
H54 C48 0.929 . S
H55 C52 0.930 . S
H56 C44 0.929 . S
H57 C46 0.929 . S
O58 Co33 2.351 . S
O58 C61 1.244 . S
O59 Co33 2.155 . S
O59 C61 1.240 . S
O60 Co33 2.096 1_645 S
O60 C41 1.247 . S
C61 O58 1.244 . S
C61 O59 1.240 . S
H62 C36 0.931 . S
H63 C45 0.931 . S
H64 C49 0.929 . S
H65 C51 0.930 . S
Co66 N70 2.148 . S
Co66 N76 2.128 . S
Co66 N86 2.194 . S
Co66 O91 2.351 . S
Co66 O92 2.155 . S
Co66 O93 2.096 . S
C67 N70 1.301 . S
C67 N71 1.328 . S
C67 H72 0.930 . S
C68 C69 1.333 . S
C68 N70 1.317 . S
C68 H73 0.930 . S
C69 C68 1.333 . S
C69 N71 1.350 . S
C69 H95 0.931 . S
N70 Co66 2.148 . S
N70 C67 1.301 . S
N70 C68 1.317 . S
N71 C67 1.328 . S
N71 C69 1.350 . S
H72 C67 0.930 . S
H73 C68 0.930 . S
C74 O75 1.224 . S
C74 O93 1.247 . S
O75 C74 1.224 . S
N76 Co66 2.128 . S
N76 C77 1.355 . S
N76 C79 1.311 . S
C77 N76 1.355 . S
C77 C78 1.363 . S
C77 H89 0.929 . S
C78 C77 1.363 . S
C78 N80 1.375 . S
C78 H96 0.931 . S
C79 N76 1.311 . S
C79 N80 1.347 . S
C79 H90 0.929 . S
N80 C78 1.375 . S
N80 C79 1.347 . S
C81 C84 1.365 . S
C81 N86 1.328 . S
C81 H87 0.929 . S
C82 C83 1.362 . S
C82 C85 1.378 . S
C82 H97 0.929 . S
C83 C82 1.362 . S
C83 C84 1.366 . S
C84 C81 1.365 . S
C84 C83 1.366 . S
C84 H98 0.930 . S
C85 C82 1.378 . S
C85 N86 1.315 . S
C85 H88 0.930 . S
N86 Co66 2.194 . S
N86 C81 1.328 . S
N86 C85 1.315 . S
H87 C81 0.929 . S
H88 C85 0.930 . S
H89 C77 0.929 . S
H90 C79 0.929 . S
O91 Co66 2.351 . S
O91 C94 1.244 . S
O92 Co66 2.155 . S
O92 C94 1.240 . S
O93 Co66 2.096 . S
O93 C74 1.247 . S
C94 O91 1.244 . S
C94 O92 1.240 . S
H95 C69 0.931 . S
H96 C78 0.931 . S
H97 C82 0.929 . S
H98 C84 0.930 . S
Co99 N103 2.148 . S
Co99 N109 2.128 . S
Co99 N119 2.194 . S
Co99 O124 2.351 . S
Co99 O125 2.155 . S
Co99 O126 2.096 . S
C100 N103 1.301 . S
C100 N104 1.328 . S
C100 H105 0.930 . S
C101 C102 1.333 . S
C101 N103 1.317 . S
C101 H106 0.930 . S
C102 C101 1.333 . S
C102 N104 1.350 . S
C102 H128 0.931 . S
N103 Co99 2.148 . S
N103 C100 1.301 . S
N103 C101 1.317 . S
N104 C100 1.328 . S
N104 C102 1.350 . S
H105 C100 0.930 . S
H106 C101 0.930 . S
C107 O108 1.224 . S
C107 O126 1.247 . S
O108 C107 1.224 . S
N109 Co99 2.128 . S
N109 C110 1.355 . S
N109 C112 1.311 . S
C110 N109 1.355 . S
C110 C111 1.363 . S
C110 H122 0.929 . S
C111 C110 1.363 . S
C111 N113 1.375 . S
C111 H129 0.931 . S
C112 N109 1.311 . S
C112 N113 1.347 . S
C112 H123 0.929 . S
N113 C111 1.375 . S
N113 C112 1.347 . S
C114 C117 1.365 . S
C114 N119 1.328 . S
C114 H120 0.929 . S
C115 C116 1.362 . S
C115 C118 1.378 . S
C115 H130 0.929 . S
C116 C115 1.362 . S
C116 C117 1.366 . S
C117 C114 1.365 . S
C117 C116 1.366 . S
C117 H131 0.930 . S
C118 C115 1.378 . S
C118 N119 1.315 . S
C118 H121 0.930 . S
N119 Co99 2.194 . S
N119 C114 1.328 . S
N119 C118 1.315 . S
H120 C114 0.929 . S
H121 C118 0.930 . S
H122 C110 0.929 . S
H123 C112 0.929 . S
O124 Co99 2.351 . S
O124 C127 1.244 . S
O125 Co99 2.155 . S
O125 C127 1.240 . S
O126 Co99 2.096 . S
O126 C107 1.247 . S
C127 O124 1.244 . S
C127 O125 1.240 . S
H128 C102 0.931 . S
H129 C111 0.931 . S
H130 C115 0.929 . S
H131 C117 0.930 . S
C132 C133 1.369 1_655 S
C132 C134 1.419 . S
C132 H136 0.930 . S
C133 C132 1.369 1_455 S
C133 C142 1.429 1_545 S
C134 C132 1.419 . S
C134 C135 1.363 1_655 S
C134 H137 0.929 . S
C135 C134 1.363 1_455 S
C135 C141 1.428 1_545 S
H136 C132 0.930 . S
H137 C134 0.929 . S
S138 N139 1.613 . S
S138 N140 1.610 . S
N139 S138 1.613 . S
N139 C142 1.350 . S
N140 S138 1.610 . S
N140 C141 1.351 . S
C141 C135 1.428 1_565 S
C141 N140 1.351 . S
C141 C142 1.434 . S
C142 C133 1.429 1_565 S
C142 N139 1.350 . S
C142 C141 1.434 . S
C143 C144 1.369 . S
C143 C145 1.419 1_554 S
C143 H147 0.930 . S
C144 C143 1.369 . S
C144 C153 1.429 . S
C145 C143 1.419 1_556 S
C145 C146 1.363 . S
C145 H148 0.929 . S
C146 C145 1.363 . S
C146 C152 1.428 . S
H147 C143 0.930 . S
H148 C145 0.929 . S
S149 N150 1.625 . S
S149 N151 1.599 1_554 S
N150 S149 1.625 . S
N150 C153 1.350 . S
N151 S149 1.599 1_556 S
N151 C152 1.351 . S
C152 C146 1.428 . S
C152 N151 1.351 . S
C152 C153 1.434 1_556 S
C153 C144 1.429 . S
C153 N150 1.350 . S
C153 C152 1.434 1_554 S
C154 C155 1.369 . S
C154 C156 1.419 . S
C154 H158 0.930 . S
C155 C154 1.369 . S
C155 C164 1.429 . S
C156 C154 1.419 . S
C156 C157 1.363 . S
C156 H159 0.929 . S
C157 C156 1.363 . S
C157 C163 1.428 . S
H158 C154 0.930 . S
H159 C156 0.929 . S
S160 N161 1.613 . S
S160 N162 1.610 . S
N161 S160 1.613 . S
N161 C164 1.350 . S
N162 S160 1.610 . S
N162 C163 1.351 . S
C163 C157 1.428 . S
C163 N162 1.351 . S
C163 C164 1.434 . S
C164 C155 1.429 . S
C164 N161 1.350 . S
C164 C163 1.434 . S
C165 C166 1.369 . S
C165 C167 1.419 . S
C165 H169 0.930 . S
C166 C165 1.369 . S
C166 C175 1.429 . S
C167 C165 1.419 . S
C167 C168 1.363 . S
C167 H170 0.929 . S
C168 C167 1.363 . S
C168 C174 1.428 . S
H169 C165 0.930 . S
H170 C167 0.929 . S
S171 N172 1.613 . S
S171 N173 1.610 . S
N172 S171 1.613 . S
N172 C175 1.350 . S
N173 S171 1.610 . S
N173 C174 1.351 . S
C174 C168 1.428 . S
C174 N173 1.351 . S
C174 C175 1.434 . S
C175 C166 1.429 . S
C175 N172 1.350 . S
C175 C174 1.434 . S
C176 C177 1.369 . S
C176 C178 1.419 . S
C176 H180 0.930 . S
C177 C176 1.369 . S
C177 C186 1.429 . S
C178 C176 1.419 . S
C178 C179 1.363 . S
C178 H181 0.929 . S
C179 C178 1.363 . S
C179 C185 1.428 . S
H180 C176 0.930 . S
H181 C178 0.929 . S
S182 N183 1.613 . S
S182 N184 1.610 . S
N183 S182 1.613 . S
N183 C186 1.350 . S
N184 S182 1.610 . S
N184 C185 1.351 . S
C185 C179 1.428 . S
C185 N184 1.351 . S
C185 C186 1.434 . S
C186 C177 1.429 . S
C186 N183 1.350 . S
C186 C185 1.434 . S
C187 C188 1.369 . S
C187 C189 1.419 . S
C187 H191 0.930 . S
C188 C187 1.369 . S
C188 C197 1.429 . S
C189 C187 1.419 . S
C189 C190 1.363 . S
C189 H192 0.929 . S
C190 C189 1.363 . S
C190 C196 1.428 . S
H191 C187 0.930 . S
H192 C189 0.929 . S
S193 N194 1.613 . S
S193 N195 1.610 . S
N194 S193 1.613 . S
N194 C197 1.350 . S
N195 S193 1.610 . S
N195 C196 1.351 . S
C196 C190 1.428 . S
C196 N195 1.351 . S
C196 C197 1.434 . S
C197 C188 1.429 . S
C197 N194 1.350 . S
C197 C196 1.434 . S
C198 C199 1.369 . S
C198 C200 1.419 . S
C198 H202 0.930 . S
C199 C198 1.369 . S
C199 C208 1.429 . S
C200 C198 1.419 . S
C200 C201 1.363 . S
C200 H203 0.929 . S
C201 C200 1.363 . S
C201 C207 1.428 . S
H202 C198 0.930 . S
H203 C200 0.929 . S
S204 N205 1.613 . S
S204 N206 1.610 . S
N205 S204 1.613 . S
N205 C208 1.350 . S
N206 S204 1.610 . S
N206 C207 1.351 . S
C207 C201 1.428 . S
C207 N206 1.351 . S
C207 C208 1.434 . S
C208 C199 1.429 . S
C208 N205 1.350 . S
C208 C207 1.434 . S
C209 C210 1.369 . S
C209 C211 1.419 . S
C209 H213 0.930 . S
C210 C209 1.369 . S
C210 C219 1.429 . S
C211 C209 1.419 . S
C211 C212 1.363 . S
C211 H214 0.929 . S
C212 C211 1.363 . S
C212 C218 1.428 . S
H213 C209 0.930 . S
H214 C211 0.929 . S
S215 N216 1.613 . S
S215 N217 1.610 . S
N216 S215 1.613 . S
N216 C219 1.350 . S
N217 S215 1.610 . S
N217 C218 1.351 . S
C218 C212 1.428 . S
C218 N217 1.351 . S
C218 C219 1.434 . S
C219 C210 1.429 . S
C219 N216 1.350 . S
C219 C218 1.434 . S
C220 C221 1.369 . S
C220 C222 1.419 . S
C220 H224 0.930 . S
C221 C220 1.369 . S
C221 C230 1.429 . S
C222 C220 1.419 . S
C222 C223 1.363 . S
C222 H225 0.929 . S
C223 C222 1.363 . S
C223 C229 1.428 . S
H224 C220 0.930 . S
H225 C222 0.929 . S
S226 N227 1.613 . S
S226 N228 1.610 . S
N227 S226 1.613 . S
N227 C230 1.350 . S
N228 S226 1.610 . S
N228 C229 1.351 . S
C229 C223 1.428 . S
C229 N228 1.351 . S
C229 C230 1.434 . S
C230 C221 1.429 . S
C230 N227 1.350 . S
C230 C229 1.434 . S
C231 C232 1.369 . S
C231 C233 1.419 . S
C231 H235 0.930 . S
C232 C231 1.369 . S
C232 C241 1.429 . S
C233 C231 1.419 . S
C233 C234 1.363 . S
C233 H236 0.929 . S
C234 C233 1.363 . S
C234 C240 1.428 . S
H235 C231 0.930 . S
H236 C233 0.929 . S
S237 N238 1.613 . S
S237 N239 1.610 . S
N238 S237 1.613 . S
N238 C241 1.350 . S
N239 S237 1.610 . S
N239 C240 1.351 . S
C240 C234 1.428 . S
C240 N239 1.351 . S
C240 C241 1.434 . S
C241 C232 1.429 . S
C241 N238 1.350 . S
C241 C240 1.434 . S
C133 C17 1.491 1_455 S
C135 C50 1.491 . S
C144 C116 1.490 . S
C146 C83 1.490 . S
C155 C8 1.541 . S
C157 N113 1.512 . S
C166 N5 1.413 . S
C168 C127 1.497 . S
C177 N104 1.412 . S
C179 C28 1.499 . S
C188 N14 1.515 . S
C190 C107 1.542 . S
C199 N71 1.422 . S
C201 C61 1.499 . S
C210 N38 1.416 . S
C212 C94 1.497 . S
C221 C41 1.542 . S
C223 N80 1.517 . S
C232 C74 1.542 . S
C234 N47 1.519 . S
