# Generated by pormake.
# Topology sxc, (6)-cn, num edge types: 1
# Building blocks:
#     Node 0, Type 0, BuildingBlock: JUFBIX_clean_sbu_0, # of connection points: 6
#     Node 1, Type 0, BuildingBlock: JUFBIX_clean_sbu_0, # of connection points: 6
#     Node 2, Type 0, BuildingBlock: JUFBIX_clean_sbu_0, # of connection points: 6
#     Edge 3, Type (0, 0), BuildingBlock: OJICUG_clean_linker_0, # of connection points: 2
#     Edge 4, Type (0, 0), BuildingBlock: OJICUG_clean_linker_0, # of connection points: 2
#     Edge 5, Type (0, 0), BuildingBlock: OJICUG_clean_linker_0, # of connection points: 2
#     Edge 6, Type (0, 0), BuildingBlock: OJICUG_clean_linker_0, # of connection points: 2
#     Edge 7, Type (0, 0), BuildingBlock: OJICUG_clean_linker_0, # of connection points: 2
#     Edge 8, Type (0, 0), BuildingBlock: OJICUG_clean_linker_0, # of connection points: 2
#     Edge 9, Type (0, 0), BuildingBlock: OJICUG_clean_linker_0, # of connection points: 2
#     Edge 10, Type (0, 0), BuildingBlock: OJICUG_clean_linker_0, # of connection points: 2
#     Edge 11, Type (0, 0), BuildingBlock: OJICUG_clean_linker_0, # of connection points: 2
# Relax obj value: 0.708
# Max RMSD: 0.153
# Mean RMSD: 0.152
data_MOF--net-sxc--node1-JUFBIX_clean_sbu_0--edge1-OJICUG_clean_linker_0
_symmetry_space_group_name_H-M    P1
_symmetry_Int_Tables_number       1
_symmetry_cell_setting            triclinic
loop_
_symmetry_equiv_pos_as_xyz
'x, y, z'
_cell_length_a     11.353093
_cell_length_b     11.402547
_cell_length_c     32.531142
_cell_angle_alpha  91.564948
_cell_angle_beta   91.828375
_cell_angle_gamma 119.87483
loop_
_atom_site_label
_atom_site_type_symbol
_atom_site_fract_x
_atom_site_fract_y
_atom_site_fract_z
_atom_type_partial_charge
Co0 Co 0.28411 1.0882 0.01016 0.0
C1 C 0.21175 0.11234 0.92975 0.0
Co2 Co 0.15561 0.17541 0.00655 0.0
C3 C 0.39173 0.93341 0.03825 0.0
C4 C 0.49714 1.04062 0.98661 0.0
N5 N 0.40485 1.02919 0.01349 0.0
N6 N 0.44217 0.8594 0.02177 0.0
C7 C 0.52329 0.93686 0.99244 0.0
H8 H 0.31244 0.89446 0.06022 0.0
H9 H 0.525 0.10407 0.96046 0.0
C10 C 0.22764 0.15267 0.08695 0.0
N11 N 1.03301 0.23161 1.00309 0.0
C12 C 1.03851 0.32328 0.97779 0.0
C13 C 0.93106 0.20688 0.02776 0.0
N14 N 0.96989 0.38272 0.99191 0.0
C15 C 0.88915 0.29842 0.0201 0.0
C16 C 0.99493 0.88658 0.00876 0.0
O17 O 0.29533 0.10837 0.06871 0.0
O18 O 0.15578 0.18691 0.06538 0.0
O19 O 0.99549 0.99695 1.00519 0.0
O20 O 1.11314 0.89621 0.01232 0.0
O21 O 0.15354 0.16585 0.94862 0.0
H22 H 0.90233 0.1402 0.05314 0.0
H23 H 1.1207 0.37068 0.95699 0.0
O24 O 0.27471 1.06645 0.95069 0.0
O25 O 0.44427 0.26649 0.00863 0.0
O26 O 0.32543 0.36783 0.00742 0.0
C27 C 0.4438 0.37737 0.00825 0.0
H28 H 0.56732 0.90164 0.96959 0.0
H29 H 0.8311 0.32212 0.04107 0.0
Co30 Co 0.26505 0.16786 0.34726 0.0
C31 C 0.19965 0.12893 0.26381 0.0
Co32 Co 1.05059 1.04244 0.33368 0.0
C33 C 0.52008 0.2544 0.38457 0.0
C34 C 0.52885 0.39899 0.34296 0.0
N35 N 0.44241 0.28481 0.36101 0.0
N36 N 0.64993 0.32113 0.37368 0.0
C37 C 0.65856 0.42472 0.35215 0.0
H38 H 0.47641 0.15926 0.39979 0.0
H39 H 0.49952 0.44646 0.31954 0.0
C40 C 1.11644 1.08399 0.41721 0.0
N41 N 0.8734 0.92538 0.31988 0.0
C42 C 0.79494 0.95511 0.29645 0.0
C43 C 0.78799 0.80868 0.33697 0.0
N44 N 0.66418 0.88356 0.30629 0.0
C45 C 0.65752 0.77984 0.32728 0.0
C46 C 0.1776 0.87974 0.34 0.0
O47 O 0.23306 0.15633 0.40367 0.0
O48 O 1.01551 1.01962 0.39161 0.0
O49 O 1.069 0.88182 0.33172 0.0
O50 O 0.28453 0.99612 0.34852 0.0
O51 O 1.08168 1.06329 0.27713 0.0
H52 H 0.818 0.7602 0.35987 0.0
H53 H 0.83726 1.05161 0.28202 0.0
O54 O 0.30131 0.18234 0.28952 0.0
O55 O 0.24803 0.32917 0.3465 0.0
O56 O 1.02938 0.21327 0.33517 0.0
C57 C 1.13772 0.33033 0.34104 0.0
H58 H 0.74496 0.49073 0.33485 0.0
H59 H 0.57047 0.71013 0.34373 0.0
Co60 Co 1.09589 0.96616 0.67145 0.0
C61 C 1.11495 1.06033 0.59444 0.0
Co62 Co 0.18322 0.1817 0.67474 0.0
C63 C 0.95066 0.70763 0.69925 0.0
C64 C 1.05138 0.70424 0.64563 0.0
N65 N 1.03764 0.78757 0.67262 0.0
N66 N 0.88145 0.57845 0.68436 0.0
C67 C 0.95714 0.57351 0.65377 0.0
H68 H 0.91226 0.74856 0.72236 0.0
H69 H 1.11159 0.73624 0.61878 0.0
C70 C 0.16573 1.08974 0.75173 0.0
N71 N 0.24223 0.36071 0.67356 0.0
C72 C 0.33108 0.44098 0.64739 0.0
C73 C 0.22769 0.44391 0.70042 0.0
N74 N 0.39968 0.57001 0.66243 0.0
C75 C 0.32305 0.57467 0.69274 0.0
C76 C 0.89463 1.05356 0.67538 0.0
O77 O 1.11934 0.9789 0.73081 0.0
O78 O 0.199 0.19646 0.73289 0.0
O79 O 1.00571 0.16439 0.67586 0.0
O80 O 0.90384 0.94503 0.67434 0.0
O81 O 0.16835 0.17012 0.61613 0.0
H82 H 0.16599 0.41166 0.72696 0.0
H83 H 0.37077 0.40033 0.62462 0.0
O84 O 1.07191 0.95048 0.61254 0.0
O85 O 0.27316 0.9837 0.66805 0.0
O86 O 0.37572 0.20291 0.67419 0.0
C87 C 0.38461 0.09443 0.67092 0.0
H88 H 0.92491 0.48739 0.63233 0.0
H89 H 0.35472 0.66047 0.71428 0.0
C90 C 1.12268 0.60529 0.97035 0.0
C91 C 1.06155 0.52157 1.0028 0.0
H92 H 0.30356 0.76501 0.94843 0.0
C93 C 1.13497 0.54993 0.04114 0.0
H94 H 1.06895 0.58381 0.94053 0.0
C95 C 0.27222 0.64462 0.04476 0.0
C96 C 0.33545 0.72477 0.01179 0.0
H97 H 1.09072 0.48714 0.06696 0.0
H98 H 0.32639 0.66537 0.07448 0.0
C99 C 0.25962 0.70143 0.97411 0.0
C100 C 0.69619 0.13861 0.38148 0.0
C101 C 0.68593 0.22894 0.35552 0.0
H102 H 0.67128 0.9434 0.38748 0.0
C103 C 0.64713 0.18972 0.3134 0.0
H104 H 0.72014 0.16431 0.41414 0.0
C105 C 0.60977 1.06029 0.29854 0.0
C106 C 0.62189 0.97076 0.3244 0.0
H107 H 0.63444 0.25541 0.29253 0.0
H108 H 0.5862 1.03481 0.26586 0.0
C109 C 0.6586 1.00913 0.36663 0.0
C110 C 0.70813 0.5753 0.63852 0.0
C111 C 0.74224 0.53912 0.6764 0.0
H112 H 0.58589 0.64063 0.6066 0.0
C113 C 0.66806 0.53206 0.71069 0.0
H114 H 0.76453 0.58418 0.61145 0.0
C115 C 0.57312 0.57428 0.70842 0.0
C116 C 0.53902 0.61033 0.67053 0.0
H117 H 0.69569 0.50922 0.74036 0.0
H118 H 0.51641 0.5651 0.73543 0.0
C119 C 0.61349 0.61782 0.63629 0.0
C120 C 0.7624 0.17894 0.69012 0.0
C121 C 0.7615 1.0597 0.67541 0.0
H122 H 0.65015 0.28285 0.70168 0.0
C123 C 0.6355 0.95564 0.65827 0.0
H124 H 0.85601 0.26334 0.70347 0.0
C125 C 0.51691 0.9689 0.65652 0.0
C126 C 0.51771 1.08807 0.67126 0.0
H127 H 0.62921 0.86517 0.64489 0.0
H128 H 0.42345 0.88455 0.64307 0.0
C129 C 0.64374 0.19216 0.68842 0.0
C130 C 0.7338 0.75145 0.99381 0.0
C131 C 0.85489 0.75409 0.00848 0.0
H132 H 0.51476 0.63811 0.98178 0.0
C133 C 0.83545 0.6321 0.02433 0.0
H134 H 0.74118 0.84185 0.98146 0.0
C135 C 0.70373 0.51394 0.02443 0.0
C136 C 0.58292 0.51085 0.00941 0.0
H137 H 0.92183 0.62868 0.03773 0.0
H138 H 0.69608 0.42384 0.03706 0.0
C139 C 0.60178 0.63361 0.99426 0.0
C140 C 0.26326 0.58957 0.35684 0.0
C141 C 0.14384 0.46947 0.34148 0.0
H142 H 0.36927 0.80729 0.36903 0.0
C143 C 1.03803 0.48873 0.32541 0.0
H144 H 0.3479 0.58203 0.36995 0.0
C145 C 1.05152 0.62021 0.3246 0.0
C146 C 0.17092 0.74033 0.33997 0.0
H147 H 0.94503 0.40229 0.31269 0.0
H148 H 0.96708 0.62782 0.31137 0.0
C149 C 0.27647 0.72094 0.35621 0.0
C150 C 1.10947 0.14493 0.19469 0.0
C151 C 0.21428 0.14508 0.21899 0.0
H152 H 1.03314 0.15037 0.13417 0.0
C153 C 0.32768 0.1551 0.19978 0.0
H154 H 1.02119 0.1383 0.20874 0.0
C155 C 0.33309 0.15913 0.15677 0.0
C156 C 0.22699 0.15702 0.13247 0.0
H157 H 0.40965 0.1552 0.21781 0.0
H158 H 0.41979 0.16298 0.1425 0.0
C159 C 1.1165 0.1525 0.152 0.0
C160 C 0.19383 0.19084 0.48757 0.0
C161 C 1.10352 1.07724 0.46228 0.0
H162 H 0.26703 0.27442 0.54866 0.0
C163 C 1.01254 0.95713 0.4807 0.0
H164 H 0.26517 0.28476 0.47423 0.0
C165 C 1.01577 0.95004 0.5238 0.0
C166 C 1.1078 1.06395 0.54895 0.0
H167 H 0.94283 0.86776 0.46182 0.0
H168 H 0.94669 0.85585 0.5374 0.0
C169 C 0.195 0.18477 0.53028 0.0
C170 C 0.18139 0.20128 0.82036 0.0
C171 C 0.18031 0.09498 0.79724 0.0
H172 H 0.19071 0.2886 0.88023 0.0
C173 C 0.19393 0.99533 0.81804 0.0
H174 H 0.17107 0.27948 0.80526 0.0
C175 C 0.20867 1.0024 0.8612 0.0
C176 C 0.20624 0.10718 0.88421 0.0
H177 H 0.19425 0.91264 0.80093 0.0
H178 H 0.21847 0.92436 0.87658 0.0
C179 C 0.19248 0.20635 0.86331 0.0
loop_
_geom_bond_atom_site_label_1
_geom_bond_atom_site_label_2
_geom_bond_distance
_geom_bond_site_symmetry_2
_ccdc_geom_bond_type
Co0 N5 2.057 1_554 S
Co0 O17 2.021 . S
Co0 O20 2.062 1_455 S
Co0 O24 2.117 1_554 S
Co0 O25 2.020 1_565 S
C1 O21 1.259 1_455 S
C1 O24 1.258 1_545 S
Co2 N11 2.057 1_556 S
Co2 O18 2.117 1_556 S
Co2 O19 2.020 1_545 S
Co2 O21 2.021 . S
Co2 O26 2.062 1_655 S
C3 N5 1.316 1_554 S
C3 N6 1.347 1_554 S
C3 H8 0.931 . S
C4 N5 1.375 . S
C4 C7 1.350 . S
C4 H9 0.930 . S
N5 Co0 2.057 1_556 S
N5 C3 1.316 1_556 S
N5 C4 1.375 . S
N6 C3 1.347 1_556 S
N6 C7 1.373 . S
C7 C4 1.350 . S
C7 N6 1.373 . S
C7 H28 0.931 . S
H8 C3 0.931 . S
H9 C4 0.930 . S
C10 O17 1.259 1_545 S
C10 O18 1.258 1_455 S
N11 Co2 2.057 1_554 S
N11 C12 1.316 1_554 S
N11 C13 1.375 . S
C12 N11 1.316 1_556 S
C12 N14 1.347 1_556 S
C12 H23 0.931 . S
C13 N11 1.375 . S
C13 C15 1.350 . S
C13 H22 0.930 . S
N14 C12 1.347 1_554 S
N14 C15 1.373 . S
C15 C13 1.350 . S
C15 N14 1.373 . S
C15 H29 0.931 . S
C16 O19 1.255 1_554 S
C16 O20 1.255 . S
O17 Co0 2.021 . S
O17 C10 1.259 1_565 S
O18 Co2 2.117 1_554 S
O18 C10 1.258 1_655 S
O19 Co2 2.020 1_565 S
O19 C16 1.255 1_556 S
O20 Co0 2.062 1_655 S
O20 C16 1.255 . S
O21 C1 1.259 1_655 S
O21 Co2 2.021 . S
H22 C13 0.930 . S
H23 C12 0.931 . S
O24 Co0 2.117 1_556 S
O24 C1 1.258 1_565 S
O25 Co0 2.020 1_545 S
O25 C27 1.255 . S
O26 Co2 2.062 1_455 S
O26 C27 1.255 1_556 S
C27 O25 1.255 . S
C27 O26 1.255 1_554 S
H28 C7 0.931 . S
H29 C15 0.931 . S
Co30 N35 2.057 . S
Co30 O47 2.021 . S
Co30 O50 2.062 1_545 S
Co30 O54 2.117 . S
Co30 O55 2.020 . S
C31 O51 1.259 1_445 S
C31 O54 1.258 . S
Co32 N41 2.057 . S
Co32 O48 2.117 . S
Co32 O49 2.020 . S
Co32 O51 2.021 . S
Co32 O56 2.062 1_565 S
C33 N35 1.316 . S
C33 N36 1.347 . S
C33 H38 0.931 . S
C34 N35 1.375 . S
C34 C37 1.350 . S
C34 H39 0.930 . S
N35 Co30 2.057 . S
N35 C33 1.316 . S
N35 C34 1.375 . S
N36 C33 1.347 . S
N36 C37 1.373 . S
C37 C34 1.350 . S
C37 N36 1.373 . S
C37 H58 0.931 . S
H38 C33 0.931 . S
H39 C34 0.930 . S
C40 O47 1.259 . S
C40 O48 1.259 1_445 S
N41 Co32 2.057 . S
N41 C42 1.316 . S
N41 C43 1.375 . S
C42 N41 1.316 . S
C42 N44 1.347 . S
C42 H53 0.931 . S
C43 N41 1.375 . S
C43 C45 1.350 . S
C43 H52 0.930 . S
N44 C42 1.347 . S
N44 C45 1.373 . S
C45 C43 1.350 . S
C45 N44 1.373 . S
C45 H59 0.931 . S
C46 O49 1.256 1_455 S
C46 O50 1.255 . S
O47 Co30 2.021 . S
O47 C40 1.259 . S
O48 Co32 2.117 . S
O48 C40 1.259 1_665 S
O49 Co32 2.020 . S
O49 C46 1.256 1_655 S
O50 Co30 2.062 1_565 S
O50 C46 1.255 . S
O51 C31 1.259 1_665 S
O51 Co32 2.021 . S
H52 C43 0.930 . S
H53 C42 0.931 . S
O54 Co30 2.117 . S
O54 C31 1.258 . S
O55 Co30 2.020 . S
O55 C57 1.256 . S
O56 Co32 2.062 1_545 S
O56 C57 1.255 1_655 S
C57 O55 1.256 . S
C57 O56 1.255 1_455 S
H58 C37 0.931 . S
H59 C45 0.931 . S
Co60 N65 2.057 . S
Co60 O77 2.021 . S
Co60 O80 2.062 . S
Co60 O84 2.117 . S
Co60 O85 2.020 1_655 S
C61 O81 1.259 . S
C61 O84 1.258 1_445 S
Co62 N71 2.057 . S
Co62 O78 2.117 . S
Co62 O79 2.020 1_455 S
Co62 O81 2.021 . S
Co62 O86 2.062 . S
C63 N65 1.316 . S
C63 N66 1.347 . S
C63 H68 0.931 . S
C64 N65 1.375 . S
C64 C67 1.350 . S
C64 H69 0.930 . S
N65 Co60 2.057 . S
N65 C63 1.316 . S
N65 C64 1.375 . S
N66 C63 1.347 . S
N66 C67 1.373 . S
C67 C64 1.350 . S
C67 N66 1.373 . S
C67 H88 0.931 . S
H68 C63 0.931 . S
H69 C64 0.930 . S
C70 O77 1.259 1_445 S
C70 O78 1.258 . S
N71 Co62 2.057 . S
N71 C72 1.316 . S
N71 C73 1.375 . S
C72 N71 1.316 . S
C72 N74 1.347 . S
C72 H83 0.931 . S
C73 N71 1.375 . S
C73 C75 1.350 . S
C73 H82 0.930 . S
N74 C72 1.347 . S
N74 C75 1.373 . S
C75 C73 1.350 . S
C75 N74 1.373 . S
C75 H89 0.931 . S
C76 O79 1.256 . S
C76 O80 1.255 1_545 S
O77 Co60 2.021 . S
O77 C70 1.259 1_665 S
O78 Co62 2.117 . S
O78 C70 1.258 . S
O79 Co62 2.020 1_655 S
O79 C76 1.256 . S
O80 Co60 2.062 . S
O80 C76 1.255 1_565 S
O81 C61 1.259 . S
O81 Co62 2.021 . S
H82 C73 0.930 . S
H83 C72 0.931 . S
O84 Co60 2.117 . S
O84 C61 1.258 1_665 S
O85 Co60 2.020 1_455 S
O85 C87 1.256 . S
O86 Co62 2.062 . S
O86 C87 1.255 1_545 S
C87 O85 1.256 . S
C87 O86 1.255 1_565 S
H88 C67 0.931 . S
H89 C75 0.931 . S
C90 C91 1.387 1_556 S
C90 H94 0.950 . S
C90 C99 1.390 1_655 S
C91 C90 1.387 1_554 S
C91 C93 1.387 . S
H92 C99 0.950 . S
C93 C91 1.387 . S
C93 C95 1.390 1_655 S
C93 H97 0.950 . S
H94 C90 0.950 . S
C95 C93 1.390 1_455 S
C95 C96 1.387 . S
C95 H98 0.950 . S
C96 C95 1.387 . S
C96 C99 1.387 1_554 S
H97 C93 0.950 . S
H98 C95 0.950 . S
C99 C90 1.390 1_455 S
C99 H92 0.950 . S
C99 C96 1.387 1_556 S
C100 C101 1.387 . S
C100 H104 0.950 . S
C100 C109 1.390 1_545 S
C101 C100 1.387 . S
C101 C103 1.387 . S
H102 C109 0.950 . S
C103 C101 1.387 . S
C103 C105 1.390 1_545 S
C103 H107 0.950 . S
H104 C100 0.950 . S
C105 C103 1.390 1_565 S
C105 C106 1.387 . S
C105 H108 0.950 . S
C106 C105 1.387 . S
C106 C109 1.387 . S
H107 C103 0.950 . S
H108 C105 0.950 . S
C109 C100 1.390 1_565 S
C109 H102 0.950 . S
C109 C106 1.387 . S
C110 C111 1.387 . S
C110 H114 0.950 . S
C110 C119 1.390 . S
C111 C110 1.387 . S
C111 C113 1.387 . S
H112 C119 0.950 . S
C113 C111 1.387 . S
C113 C115 1.390 . S
C113 H117 0.950 . S
H114 C110 0.950 . S
C115 C113 1.390 . S
C115 C116 1.387 . S
C115 H118 0.950 . S
C116 C115 1.387 . S
C116 C119 1.387 . S
H117 C113 0.950 . S
H118 C115 0.950 . S
C119 C110 1.390 . S
C119 H112 0.950 . S
C119 C116 1.387 . S
C120 C121 1.387 . S
C120 H124 0.950 . S
C120 C129 1.390 . S
C121 C120 1.387 . S
C121 C123 1.387 . S
H122 C129 0.950 . S
C123 C121 1.387 . S
C123 C125 1.390 1_545 S
C123 H127 0.950 1_545 S
H124 C120 0.950 . S
C125 C123 1.390 1_565 S
C125 C126 1.387 . S
C125 H128 0.950 . S
C126 C125 1.387 . S
C126 C129 1.387 1_565 S
H127 C123 0.950 1_565 S
H128 C125 0.950 . S
C129 C120 1.390 . S
C129 H122 0.950 . S
C129 C126 1.387 1_545 S
C130 C131 1.387 . S
C130 H134 0.950 . S
C130 C139 1.390 . S
C131 C130 1.387 . S
C131 C133 1.387 1_554 S
H132 C139 0.950 . S
C133 C131 1.387 1_556 S
C133 C135 1.390 . S
C133 H137 0.950 . S
H134 C130 0.950 . S
C135 C133 1.390 . S
C135 C136 1.362 1_556 S
C135 H138 0.950 . S
C136 C135 1.362 1_554 S
C136 C139 1.411 . S
H137 C133 0.950 . S
H138 C135 0.950 . S
C139 C130 1.390 . S
C139 H132 0.950 . S
C139 C136 1.411 . S
C140 C141 1.387 . S
C140 H144 0.950 . S
C140 C149 1.390 . S
C141 C140 1.387 . S
C141 C143 1.387 . S
H142 C149 0.950 . S
C143 C141 1.387 . S
C143 C145 1.390 . S
C143 H147 0.950 . S
H144 C140 0.950 . S
C145 C143 1.390 . S
C145 C146 1.387 . S
C145 H148 0.950 . S
C146 C145 1.387 . S
C146 C149 1.387 . S
H147 C143 0.950 . S
H148 C145 0.950 . S
C149 C140 1.390 . S
C149 H142 0.950 . S
C149 C146 1.387 . S
C150 C151 1.387 1_665 S
C150 H154 0.950 . S
C150 C159 1.390 . S
C151 C150 1.387 1_445 S
C151 C153 1.387 . S
H152 C159 0.950 . S
C153 C151 1.387 . S
C153 C155 1.390 . S
C153 H157 0.950 . S
H154 C150 0.950 . S
C155 C153 1.390 . S
C155 C156 1.387 . S
C155 H158 0.950 . S
C156 C155 1.387 . S
C156 C159 1.387 1_445 S
H157 C153 0.950 . S
H158 C155 0.950 . S
C159 C150 1.390 . S
C159 H152 0.950 . S
C159 C156 1.387 1_665 S
C160 C161 1.387 . S
C160 H164 0.950 . S
C160 C169 1.390 . S
C161 C160 1.387 . S
C161 C163 1.385 1_455 S
H162 C169 0.950 . S
C163 C161 1.385 1_655 S
C163 C165 1.389 1_545 S
C163 H167 0.953 1_545 S
H164 C160 0.950 . S
C165 C163 1.389 1_565 S
C165 C166 1.391 1_665 S
C165 H168 0.947 . S
C166 C165 1.391 1_445 S
C166 C169 1.387 . S
H167 C163 0.953 1_565 S
H168 C165 0.947 . S
C169 C160 1.390 . S
C169 H162 0.950 . S
C169 C166 1.387 . S
C170 C171 1.387 . S
C170 H174 0.950 . S
C170 C179 1.390 . S
C171 C170 1.387 . S
C171 C173 1.387 1_445 S
H172 C179 0.950 . S
C173 C171 1.387 1_665 S
C173 C175 1.390 . S
C173 H177 0.950 . S
H174 C170 0.950 . S
C175 C173 1.390 . S
C175 C176 1.387 1_665 S
C175 H178 0.950 . S
C176 C175 1.387 1_445 S
C176 C179 1.387 . S
H177 C173 0.950 . S
H178 C175 0.950 . S
C179 C170 1.390 . S
C179 H172 0.950 . S
C179 C176 1.387 . S
C91 N14 0.705 . S
C96 N6 0.705 1_554 S
C101 N36 0.719 . S
C106 N44 0.719 . S
C111 N66 0.705 . S
C116 N74 0.705 . S
C121 C76 2.831 . S
C126 C87 2.831 . S
C131 C16 2.829 . S
C136 C27 2.830 . S
C141 C57 2.830 . S
C146 C46 2.830 . S
C151 C31 1.498 . S
C156 C10 1.496 . S
C161 C40 1.501 . S
C166 C61 1.496 . S
C171 C70 1.497 . S
C176 C1 1.499 . S
