# Generated by pormake.
# Topology hex, (8)-cn, num edge types: 1
# Building blocks:
#     Node 0, Type 0, BuildingBlock: VETTIZ_charged_sbu_0, # of connection points: 8
#     Edge 1, Type (0, 0), BuildingBlock: MIFKUJ_clean_linker_0, # of connection points: 2
#     Edge 2, Type (0, 0), BuildingBlock: MIFKUJ_clean_linker_0, # of connection points: 2
#     Edge 3, Type (0, 0), BuildingBlock: MIFKUJ_clean_linker_0, # of connection points: 2
#     Edge 4, Type (0, 0), BuildingBlock: MIFKUJ_clean_linker_0, # of connection points: 2
# Relax obj value: 0.198
# Max RMSD: 0.293
# Mean RMSD: 0.293
data_MOF--net-hex--node1-VETTIZ_charged_sbu_0--edge1-MIFKUJ_clean_linker_0
_symmetry_space_group_name_H-M    P1
_symmetry_Int_Tables_number       1
_symmetry_cell_setting            triclinic
loop_
_symmetry_equiv_pos_as_xyz
'x, y, z'
_cell_length_a     21.606642
_cell_length_b     20.930109
_cell_length_c     21.780337
_cell_angle_alpha  88.27655
_cell_angle_beta   93.599224
_cell_angle_gamma 123.16676
loop_
_atom_site_label
_atom_site_type_symbol
_atom_site_fract_x
_atom_site_fract_y
_atom_site_fract_z
_atom_type_partial_charge
Fe0 Fe 0.02363 0.93124 0.11238 0.0
O1 O 0.03072 1.00688 0.05431 0.0
Fe2 Fe 0.94897 0.03041 0.0445 0.0
Fe3 Fe 0.04678 1.00571 0.96548 0.0
O4 O 0.03079 1.01288 0.0585 0.0
O5 O 0.96503 0.02923 0.95567 0.0
O6 O 0.96496 0.02323 0.95148 0.0
Fe7 Fe 0.97212 0.10488 0.8976 0.0
C8 C 0.16625 0.99969 0.04602 0.0
O9 O 0.01286 0.85897 0.04594 0.0
O10 O 0.97447 0.8875 0.95812 0.0
O11 O 0.85925 0.04768 0.91107 0.0
O12 O 0.86315 0.0437 0.01746 0.0
O13 O 0.87384 0.91599 0.03687 0.0
O14 O 0.90735 0.86672 0.11378 0.0
O15 O 0.05503 1.00872 0.86957 0.0
O16 O 0.96876 0.03472 0.83169 0.0
C17 C 0.86021 0.86075 0.07177 0.0
O18 O 0.98289 0.17714 0.96404 0.0
O19 O 0.02128 0.14862 0.05187 0.0
O20 O 0.1365 0.98844 0.09891 0.0
O21 O 0.1326 0.99242 0.99253 0.0
C22 C 0.97946 0.84025 0.99322 0.0
C23 C 0.01204 1.01063 0.82589 0.0
C24 C 0.13554 0.17537 0.93821 0.0
O25 O 0.12191 0.12013 0.97311 0.0
O26 O 0.08839 0.1694 0.8962 0.0
C27 C 0.8295 0.03643 0.96396 0.0
O28 O 0.94072 0.02739 0.14042 0.0
O29 O 0.02699 1.00139 0.17829 0.0
C30 C 0.01629 0.19587 0.01676 0.0
C31 C 0.98371 0.02549 0.18409 0.0
H32 H 0.96948 0.23748 0.11275 0.0
H33 H 0.96533 0.35248 0.11234 0.0
H34 H 0.10332 0.43808 0.95695 0.0
H35 H 0.11124 0.32645 0.96005 0.0
H36 H 0.12794 0.55411 0.01999 0.0
H37 H 0.90636 0.31953 0.94166 0.0
H38 H 0.80323 0.1857 0.95285 0.0
H39 H 0.72493 0.24949 0.10078 0.0
H40 H 0.82895 0.38361 0.09146 0.0
H41 H 0.02627 0.79864 0.89723 0.0
H42 H 0.03042 0.68363 0.89764 0.0
H43 H 0.89243 0.59804 0.05303 0.0
H44 H 0.88451 0.70967 0.04993 0.0
H45 H 0.86781 0.48201 0.98999 0.0
H46 H 0.08938 0.71658 0.06832 0.0
H47 H 0.19251 0.85041 0.05713 0.0
H48 H 0.27082 0.78664 0.9092 0.0
H49 H 0.1668 0.65251 0.91852 0.0
C50 C 0.00279 0.28327 0.08129 0.0
C51 C 0.04114 0.2734 0.03675 0.0
C52 C -0.00102 0.34823 0.07998 0.0
C53 C 0.03199 0.40304 0.03319 0.0
C54 C 0.07704 0.39689 0.99333 0.0
C55 C 0.08211 0.33315 0.99548 0.0
C56 C 0.01341 0.46149 0.02051 0.0
C57 C 0.07103 0.53807 0.01301 0.0
C58 C 0.93918 0.44139 0.0118 0.0
C59 C 0.87546 0.36138 0.01604 0.0
C60 C 0.86716 0.30493 0.9766 0.0
C61 C 0.8087 0.22898 0.98277 0.0
C62 C 0.75776 0.20903 0.02773 0.0
C63 C 0.76463 0.26506 0.06615 0.0
C64 C 0.82329 0.34103 0.06044 0.0
C65 C 0.99296 0.75284 0.92869 0.0
C66 C 0.95461 0.76271 0.97323 0.0
C67 C 0.99677 0.68789 0.93 0.0
C68 C 0.96375 0.63307 0.97679 0.0
C69 C 0.9187 0.63923 0.01665 0.0
C70 C 0.91364 0.70296 0.0145 0.0
C71 C 0.98234 0.57462 0.98947 0.0
C72 C 0.92471 0.49805 0.99697 0.0
C73 C 0.05657 0.59473 0.99818 0.0
C74 C 0.12028 0.67474 0.99394 0.0
C75 C 0.12858 0.73118 0.03338 0.0
C76 C 0.18705 0.80713 0.02721 0.0
C77 C 0.23799 0.82709 0.98225 0.0
C78 C 0.23112 0.77106 0.94384 0.0
C79 C 0.17246 0.69509 0.94954 0.0
H80 H 0.28265 0.88591 0.97696 0.0
H81 H 0.7131 0.15021 0.03303 0.0
H82 H 0.74183 0.98048 0.06099 0.0
H83 H 0.62594 0.96966 0.0716 0.0
H84 H 0.62472 0.03463 0.88174 0.0
H85 H 0.74392 0.04863 0.8711 0.0
H86 H 0.60848 0.12114 0.95409 0.0
H87 H 0.49751 0.85375 0.93779 0.0
H88 H 0.48055 0.72972 0.96026 0.0
H89 H 0.4331 0.74233 0.14641 0.0
H90 H 0.45329 0.86863 0.12585 0.0
H91 H 0.25391 0.05564 0.94899 0.0
H92 H 0.36981 0.06646 0.93838 0.0
H93 H 0.37103 1.00148 0.12824 0.0
H94 H 0.25183 0.98749 0.13888 0.0
H95 H 0.38726 0.91497 0.05589 0.0
H96 H 0.49824 0.18236 0.07219 0.0
H97 H 0.5152 0.30639 0.04973 0.0
H98 H 0.56265 0.2938 0.86357 0.0
H99 H 0.54246 0.16749 0.88413 0.0
C100 C 0.71687 0.99174 0.02098 0.0
C101 C 0.75304 1.01725 0.96547 0.0
C102 C 0.64973 0.98433 0.02702 0.0
C103 C 0.6164 1.00081 0.9774 0.0
C104 C 0.64975 0.02156 0.92058 0.0
C105 C 0.7176 0.02934 0.91449 0.0
C106 C 0.55239 1.00589 0.98794 0.0
C107 C 0.55932 0.0755 0.97519 0.0
C108 C 0.48979 0.94729 0.01775 0.0
C109 C 0.47759 0.87118 0.03032 0.0
C110 C 0.48427 0.8306 0.98373 0.0
C111 C 0.47393 0.75966 0.99618 0.0
C112 C 0.45531 0.72776 0.05473 0.0
C113 C 0.44745 0.76705 0.10107 0.0
C114 C 0.45863 0.8385 0.08909 0.0
C115 C 0.27888 0.04438 0.989 0.0
C116 C 0.24271 0.01887 0.04452 0.0
C117 C 0.34602 0.05179 0.98296 0.0
C118 C 0.37935 0.03531 0.03258 0.0
C119 C 0.346 1.01456 0.08941 0.0
C120 C 0.27815 1.00678 0.09549 0.0
C121 C 0.44335 0.03023 0.02204 0.0
C122 C 0.43643 0.96062 0.03479 0.0
C123 C 0.50596 0.08882 0.99223 0.0
C124 C 0.51816 0.16494 0.97966 0.0
C125 C 0.51147 0.20551 0.02625 0.0
C126 C 0.52182 0.27646 0.0138 0.0
C127 C 0.54044 0.30836 0.95526 0.0
C128 C 0.5483 0.26907 0.90891 0.0
C129 C 0.53712 0.19762 0.92089 0.0
H130 H 0.54872 0.36341 0.94559 0.0
H131 H 0.44703 0.67271 0.06439 0.0
H132 H 0.23133 0.21035 0.03765 0.0
H133 H 0.35116 0.32602 0.05962 0.0
H134 H 0.32957 0.42254 0.88809 0.0
H135 H 0.20659 0.3061 0.86634 0.0
H136 H 0.47399 0.38818 0.0094 0.0
H137 H 0.42018 0.59911 0.88935 0.0
H138 H 0.32112 0.62385 0.87047 0.0
H139 H 0.22685 0.5133 0.04021 0.0
H140 H 0.32459 0.48696 0.0594 0.0
H141 H 0.76442 0.82576 0.97234 0.0
H142 H 0.64459 0.7101 0.95037 0.0
H143 H 0.66618 0.61358 0.12189 0.0
H144 H 0.78917 0.73002 0.14364 0.0
H145 H 0.52175 0.64793 1.00058 0.0
H146 H 0.57557 0.437 0.12064 0.0
H147 H 0.67463 0.41226 0.13951 0.0
H148 H 0.7689 0.52282 0.96976 0.0
H149 H 0.67115 0.54916 0.95058 0.0
C150 C 0.25142 0.25595 1.00424 0.0
C151 C 0.20882 0.24829 0.94979 0.0
C152 C 0.32057 0.32247 0.01708 0.0
C153 C 0.34996 0.38379 0.97599 0.0
C154 C 0.30782 0.37682 0.92139 0.0
C155 C 0.23761 0.30994 0.90864 0.0
C156 C 0.42532 0.45351 0.99045 0.0
C157 C 0.48414 0.44487 0.00798 0.0
C158 C 0.43952 0.52792 0.98814 0.0
C159 C 0.37931 0.54101 0.97562 0.0
C160 C 0.37793 0.57974 0.92233 0.0
C161 C 0.322 0.59388 0.91154 0.0
C162 C 0.26755 0.56986 0.95397 0.0
C163 C 0.26869 0.53137 0.00714 0.0
C164 C 0.3241 0.51651 0.01786 0.0
C165 C 0.74432 0.78016 0.00575 0.0
C166 C 0.78692 0.78783 0.06019 0.0
C167 C 0.67518 0.71365 0.9929 0.0
C168 C 0.64579 0.65232 0.034 0.0
C169 C 0.68793 0.6593 0.0886 0.0
C170 C 0.75813 0.72618 0.10135 0.0
C171 C 0.57043 0.58261 0.01954 0.0
C172 C 0.51161 0.59124 1.002 0.0
C173 C 0.55623 0.50819 0.02186 0.0
C174 C 0.61643 0.49511 0.03436 0.0
C175 C 0.61781 0.45637 0.08765 0.0
C176 C 0.67374 0.44223 0.09844 0.0
C177 C 0.7282 0.46626 0.05601 0.0
C178 C 0.72705 0.50475 1.00284 0.0
C179 C 0.67165 0.51961 0.99213 0.0
H180 H 0.77124 0.45505 0.06435 0.0
H181 H 0.22451 0.58107 0.94562 0.0
H182 H 0.13331 0.07171 0.75832 0.0
H183 H 0.13043 0.07161 0.64541 0.0
H184 H 0.89412 0.9084 0.63911 0.0
H185 H 0.89687 0.90913 0.75148 0.0
H186 H 0.96446 0.89014 0.54217 0.0
H187 H 0.95001 0.08476 0.64124 0.0
H188 H 0.994 0.1907 0.71446 0.0
H189 H 0.19713 0.32365 0.62233 0.0
H190 H 0.15482 0.21777 0.54921 0.0
H191 H 0.86244 0.96441 0.25166 0.0
H192 H 0.86531 0.9645 0.36457 0.0
H193 H 0.10162 0.12772 0.37087 0.0
H194 H 0.09887 0.12698 0.25851 0.0
H195 H 0.03129 0.14598 0.46782 0.0
H196 H 0.04574 0.95135 0.36875 0.0
H197 H 0.00176 0.84542 0.29553 0.0
H198 H 0.79861 0.71246 0.38765 0.0
H199 H 0.84092 0.81834 0.46077 0.0
C200 C 0.08154 0.03321 0.73271 0.0
C201 C 0.0153 0.9904 0.76297 0.0
C202 C 0.07977 0.03367 0.66842 0.0
C203 C 0.01181 0.99098 0.63423 0.0
C204 C 0.94697 0.94178 0.66475 0.0
C205 C 0.94861 0.94207 0.72878 0.0
C206 C 0.00603 1.00591 0.56809 0.0
C207 C 0.97859 0.94584 0.52591 0.0
C208 C 0.02467 0.07879 0.54711 0.0
C209 C 0.04963 0.14305 0.59023 0.0
C210 C 0.00429 0.13637 0.63689 0.0
C211 C 0.02889 0.1964 0.67835 0.0
C212 C 0.09842 0.26379 0.67317 0.0
C213 C 0.14336 0.27135 0.62637 0.0
C214 C 0.11911 0.21134 0.5849 0.0
C215 C 0.9142 1.00291 0.27727 0.0
C216 C 0.98045 0.04571 0.24701 0.0
C217 C 0.91597 1.00244 0.34156 0.0
C218 C 0.98393 0.04513 0.37575 0.0
C219 C 0.04877 0.09434 0.34524 0.0
C220 C 0.04714 0.09404 0.2812 0.0
C221 C 0.98971 0.0302 0.44189 0.0
C222 C 0.01715 0.09027 0.48407 0.0
C223 C 0.97107 0.95733 0.46287 0.0
C224 C 0.94611 0.89306 0.41976 0.0
C225 C 0.99146 0.89975 0.3731 0.0
C226 C 0.96686 0.83971 0.33164 0.0
C227 C 0.89733 0.77233 0.33681 0.0
C228 C 0.85239 0.76476 0.38362 0.0
C229 C 0.87664 0.82477 0.42508 0.0
H230 H 0.87836 0.72591 0.30466 0.0
H231 H 0.11739 0.31021 0.70532 0.0
loop_
_geom_bond_atom_site_label_1
_geom_bond_atom_site_label_2
_geom_bond_distance
_geom_bond_site_symmetry_2
_ccdc_geom_bond_type
Fe0 O1 1.886 1_554 S
Fe0 O4 1.715 1_455 S
Fe0 O9 2.077 1_455 S
Fe0 O14 1.935 1_455 S
Fe0 O20 2.077 . S
Fe0 O29 1.935 . S
O1 Fe0 1.886 1_556 S
O1 Fe3 1.715 1_565 S
Fe2 O4 1.886 . S
Fe2 O5 1.715 1_565 S
Fe2 O12 1.935 . S
Fe2 O13 2.077 . S
Fe2 O19 1.935 1_565 S
Fe2 O28 2.077 1_565 S
Fe3 O1 1.715 1_545 S
Fe3 O6 1.886 . S
Fe3 O10 1.935 1_545 S
Fe3 O15 2.077 1_545 S
Fe3 O21 1.935 . S
Fe3 O25 2.077 . S
O4 Fe0 1.715 1_655 S
O4 Fe2 1.886 . S
O5 Fe2 1.715 1_545 S
O5 Fe7 1.886 1_554 S
O6 Fe3 1.886 . S
O6 Fe7 1.715 1_455 S
Fe7 O5 1.886 1_556 S
Fe7 O6 1.715 1_655 S
Fe7 O11 2.077 . S
Fe7 O16 1.935 . S
Fe7 O18 2.077 1_655 S
Fe7 O26 1.935 1_655 S
C8 O20 1.381 . S
C8 O21 1.421 1_564 S
O9 Fe0 2.077 1_655 S
O9 C22 1.381 1_654 S
O10 Fe3 1.935 1_565 S
O10 C22 1.421 . S
O11 Fe7 2.077 . S
O11 C27 1.381 . S
O12 Fe2 1.935 . S
O12 C27 1.421 1_564 S
O13 Fe2 2.077 . S
O13 C17 1.381 . S
O14 Fe0 1.935 1_655 S
O14 C17 1.421 . S
O15 Fe3 2.077 1_565 S
O15 C23 1.381 1_565 S
O16 Fe7 1.935 . S
O16 C23 1.421 1_655 S
C17 O13 1.381 . S
C17 O14 1.421 . S
O18 Fe7 2.077 1_455 S
O18 C30 1.381 1_456 S
O19 Fe2 1.935 1_545 S
O19 C30 1.421 . S
O20 Fe0 2.077 . S
O20 C8 1.381 . S
O21 Fe3 1.935 . S
O21 C8 1.421 1_546 S
C22 O9 1.381 1_456 S
C22 O10 1.421 . S
C23 O15 1.381 1_545 S
C23 O16 1.421 1_455 S
C24 O25 1.381 . S
C24 O26 1.421 . S
O25 Fe3 2.077 . S
O25 C24 1.381 . S
O26 Fe7 1.935 1_455 S
O26 C24 1.421 . S
C27 O11 1.381 . S
C27 O12 1.421 1_546 S
O28 Fe2 2.077 1_545 S
O28 C31 1.381 1_545 S
O29 Fe0 1.935 . S
O29 C31 1.421 1_455 S
C30 O18 1.381 1_654 S
C30 O19 1.421 . S
C31 O28 1.381 1_565 S
C31 O29 1.421 1_655 S
H32 C50 0.951 . S
H33 C52 0.951 . S
H34 C54 0.950 . S
H35 C55 0.950 1_556 S
H36 C57 0.950 . S
H37 C60 0.950 . S
H38 C61 0.950 1_556 S
H39 C63 0.950 . S
H40 C64 0.950 . S
H41 C65 0.951 . S
H42 C67 0.951 . S
H43 C69 0.950 . S
H44 C70 0.950 1_554 S
H45 C72 0.950 . S
H46 C75 0.950 . S
H47 C76 0.950 1_554 S
H48 C78 0.950 . S
H49 C79 0.950 . S
C50 H32 0.951 . S
C50 C51 1.366 . S
C50 C52 1.388 . S
C51 C50 1.366 . S
C51 C55 1.385 1_655 S
C52 H33 0.951 . S
C52 C50 1.388 . S
C52 C53 1.366 . S
C53 C52 1.366 . S
C53 C54 1.414 1_654 S
C53 C56 1.499 . S
C54 H34 0.950 . S
C54 C53 1.414 1_456 S
C54 C55 1.374 1_556 S
C55 H35 0.950 1_554 S
C55 C51 1.385 1_455 S
C55 C54 1.374 1_554 S
C56 C53 1.499 . S
C56 C57 1.373 1_654 S
C56 C58 1.389 . S
C57 H36 0.950 . S
C57 C56 1.373 1_456 S
C57 C73 1.377 . S
C58 C56 1.389 . S
C58 C59 1.524 . S
C58 C72 1.377 . S
C59 C58 1.524 . S
C59 C60 1.397 1_554 S
C59 C64 1.363 . S
C60 H37 0.950 . S
C60 C59 1.397 1_556 S
C60 C61 1.334 1_556 S
C61 H38 0.950 1_554 S
C61 C60 1.334 1_554 S
C61 C62 1.287 . S
C62 C61 1.287 . S
C62 C63 1.524 . S
C62 H81 0.913 . S
C63 H39 0.950 . S
C63 C62 1.524 . S
C63 C64 1.415 . S
C64 H40 0.950 . S
C64 C59 1.363 . S
C64 C63 1.415 . S
C65 H41 0.951 . S
C65 C66 1.368 . S
C65 C67 1.388 . S
C66 C65 1.368 . S
C66 C70 1.384 1_455 S
C67 H42 0.951 . S
C67 C65 1.388 . S
C67 C68 1.366 . S
C68 C67 1.366 . S
C68 C69 1.414 1_456 S
C68 C71 1.499 . S
C69 H43 0.950 . S
C69 C68 1.414 1_654 S
C69 C70 1.374 1_554 S
C70 H44 0.950 1_556 S
C70 C66 1.384 1_655 S
C70 C69 1.374 1_556 S
C71 C68 1.499 . S
C71 C72 1.373 1_456 S
C71 C73 1.389 . S
C72 H45 0.950 . S
C72 C58 1.377 . S
C72 C71 1.373 1_654 S
C73 C57 1.377 . S
C73 C71 1.389 . S
C73 C74 1.524 . S
C74 C73 1.524 . S
C74 C75 1.397 1_556 S
C74 C79 1.363 . S
C75 H46 0.950 . S
C75 C74 1.397 1_554 S
C75 C76 1.334 1_554 S
C76 H47 0.950 1_556 S
C76 C75 1.334 1_556 S
C76 C77 1.287 . S
C77 C76 1.287 . S
C77 C78 1.524 . S
C77 H80 0.999 . S
C78 H48 0.950 . S
C78 C77 1.524 . S
C78 C79 1.415 . S
C79 H49 0.950 . S
C79 C74 1.363 . S
C79 C78 1.415 . S
H80 C77 0.999 . S
H81 C62 0.913 . S
H82 C100 0.951 1_554 S
H83 C102 0.951 . S
H84 C104 0.950 . S
H85 C105 0.950 . S
H86 C107 0.950 . S
H87 C110 0.950 1_556 S
H88 C111 0.950 1_556 S
H89 C113 0.950 . S
H90 C114 0.950 . S
H91 C115 0.951 1_556 S
H92 C117 0.951 . S
H93 C119 0.950 . S
H94 C120 0.950 . S
H95 C122 0.950 . S
H96 C125 0.950 1_554 S
H97 C126 0.950 1_554 S
H98 C128 0.950 . S
H99 C129 0.950 . S
C100 H82 0.951 1_556 S
C100 C101 1.366 1_565 S
C100 C102 1.388 1_556 S
C101 C100 1.366 1_545 S
C101 C105 1.388 . S
C102 H83 0.951 . S
C102 C100 1.388 1_554 S
C102 C103 1.366 1_554 S
C103 C102 1.366 1_556 S
C103 C104 1.414 1_565 S
C103 C106 1.499 . S
C104 H84 0.950 . S
C104 C103 1.414 1_545 S
C104 C105 1.374 . S
C105 H85 0.950 . S
C105 C101 1.388 . S
C105 C104 1.374 . S
C106 C103 1.499 . S
C106 C107 1.373 1_565 S
C106 C108 1.389 1_556 S
C107 H86 0.950 . S
C107 C106 1.373 1_545 S
C107 C123 1.377 . S
C108 C106 1.389 1_554 S
C108 C109 1.524 . S
C108 C122 1.377 . S
C109 C108 1.524 . S
C109 C110 1.397 . S
C109 C114 1.363 . S
C110 H87 0.950 1_554 S
C110 C109 1.397 . S
C110 C111 1.334 . S
C111 H88 0.950 1_554 S
C111 C110 1.334 . S
C111 C112 1.287 . S
C112 C111 1.287 . S
C112 C113 1.524 . S
C112 H131 0.913 . S
C113 H89 0.950 . S
C113 C112 1.524 . S
C113 C114 1.415 . S
C114 H90 0.950 . S
C114 C109 1.363 . S
C114 C113 1.415 . S
C115 H91 0.951 1_554 S
C115 C116 1.366 1_545 S
C115 C117 1.388 1_554 S
C116 C115 1.366 1_565 S
C116 C120 1.386 . S
C117 H92 0.951 . S
C117 C115 1.388 1_556 S
C117 C118 1.366 1_556 S
C118 C117 1.366 1_554 S
C118 C119 1.414 1_545 S
C118 C121 1.499 . S
C119 H93 0.950 . S
C119 C118 1.414 1_565 S
C119 C120 1.374 . S
C120 H94 0.950 . S
C120 C116 1.386 . S
C120 C119 1.374 . S
C121 C118 1.499 . S
C121 C122 1.373 1_545 S
C121 C123 1.389 1_554 S
C122 H95 0.950 . S
C122 C108 1.377 . S
C122 C121 1.373 1_565 S
C123 C107 1.377 . S
C123 C121 1.389 1_556 S
C123 C124 1.524 . S
C124 C123 1.524 . S
C124 C125 1.397 . S
C124 C129 1.363 . S
C125 H96 0.950 1_556 S
C125 C124 1.397 . S
C125 C126 1.334 . S
C126 H97 0.950 1_556 S
C126 C125 1.334 . S
C126 C127 1.287 . S
C127 C126 1.287 . S
C127 C128 1.524 . S
C127 H130 0.999 . S
C128 H98 0.950 . S
C128 C127 1.524 . S
C128 C129 1.415 . S
C129 H99 0.950 . S
C129 C124 1.363 . S
C129 C128 1.415 . S
H130 C127 0.999 . S
H131 C112 0.913 . S
H132 C150 0.951 . S
H133 C152 0.951 1_554 S
H134 C154 0.950 . S
H135 C155 0.950 . S
H136 C157 0.950 . S
H137 C160 0.950 . S
H138 C161 0.950 . S
H139 C163 0.950 . S
H140 C164 0.950 1_554 S
H141 C165 0.951 . S
H142 C167 0.951 1_556 S
H143 C169 0.950 . S
H144 C170 0.950 . S
H145 C172 0.950 . S
H146 C175 0.950 . S
H147 C176 0.950 . S
H148 C178 0.950 . S
H149 C179 0.950 1_556 S
C150 H132 0.951 . S
C150 C151 1.366 . S
C150 C152 1.388 . S
C151 C150 1.366 . S
C151 C155 1.385 . S
C152 H133 0.951 1_556 S
C152 C150 1.388 . S
C152 C153 1.366 . S
C153 C152 1.366 . S
C153 C154 1.414 . S
C153 C156 1.499 . S
C154 H134 0.950 . S
C154 C153 1.414 . S
C154 C155 1.374 . S
C155 H135 0.950 . S
C155 C151 1.385 . S
C155 C154 1.374 . S
C156 C153 1.499 . S
C156 C157 1.373 1_556 S
C156 C158 1.389 . S
C157 H136 0.950 . S
C157 C156 1.373 1_554 S
C157 C173 1.377 . S
C158 C156 1.389 . S
C158 C159 1.524 . S
C158 C172 1.377 . S
C159 C158 1.524 . S
C159 C160 1.397 . S
C159 C164 1.363 . S
C160 H137 0.950 . S
C160 C159 1.397 . S
C160 C161 1.334 . S
C161 H138 0.950 . S
C161 C160 1.334 . S
C161 C162 1.287 . S
C162 C161 1.287 . S
C162 C163 1.524 . S
C162 H181 0.913 . S
C163 H139 0.950 . S
C163 C162 1.524 . S
C163 C164 1.415 . S
C164 H140 0.950 1_556 S
C164 C159 1.363 . S
C164 C163 1.415 . S
C165 H141 0.951 . S
C165 C166 1.366 . S
C165 C167 1.388 . S
C166 C165 1.366 . S
C166 C170 1.385 . S
C167 H142 0.951 1_554 S
C167 C165 1.388 . S
C167 C168 1.366 . S
C168 C167 1.366 . S
C168 C169 1.414 . S
C168 C171 1.499 . S
C169 H143 0.950 . S
C169 C168 1.414 . S
C169 C170 1.374 . S
C170 H144 0.950 . S
C170 C166 1.385 . S
C170 C169 1.374 . S
C171 C168 1.499 . S
C171 C172 1.373 1_554 S
C171 C173 1.389 . S
C172 H145 0.950 . S
C172 C158 1.377 . S
C172 C171 1.373 1_556 S
C173 C157 1.377 . S
C173 C171 1.389 . S
C173 C174 1.524 . S
C174 C173 1.524 . S
C174 C175 1.397 . S
C174 C179 1.363 . S
C175 H146 0.950 . S
C175 C174 1.397 . S
C175 C176 1.334 . S
C176 H147 0.950 . S
C176 C175 1.334 . S
C176 C177 1.287 . S
C177 C176 1.287 . S
C177 C178 1.524 . S
C177 H180 0.999 . S
C178 H148 0.950 . S
C178 C177 1.524 . S
C178 C179 1.415 . S
C179 H149 0.950 1_554 S
C179 C174 1.363 . S
C179 C178 1.415 . S
H180 C177 0.999 . S
H181 C162 0.913 . S
H182 C200 0.951 . S
H183 C202 0.951 . S
H184 C204 0.950 . S
H185 C205 0.950 . S
H186 C207 0.950 . S
H187 C210 0.950 1_655 S
H188 C211 0.950 1_655 S
H189 C213 0.950 . S
H190 C214 0.950 . S
H191 C215 0.951 . S
H192 C217 0.951 . S
H193 C219 0.950 . S
H194 C220 0.950 . S
H195 C222 0.950 . S
H196 C225 0.950 1_455 S
H197 C226 0.950 1_455 S
H198 C228 0.950 . S
H199 C229 0.950 . S
C200 H182 0.951 . S
C200 C201 1.370 . S
C200 C202 1.388 . S
C201 C200 1.370 . S
C201 C205 1.380 1_445 S
C202 H183 0.951 . S
C202 C200 1.388 . S
C202 C203 1.355 1_455 S
C203 C202 1.355 1_655 S
C203 C204 1.424 1_545 S
C203 C206 1.499 . S
C204 H184 0.950 . S
C204 C203 1.424 1_565 S
C204 C205 1.374 . S
C205 H185 0.950 . S
C205 C201 1.380 1_665 S
C205 C204 1.374 . S
C206 C203 1.499 . S
C206 C207 1.373 1_545 S
C206 C208 1.389 1_655 S
C207 H186 0.950 . S
C207 C206 1.373 1_565 S
C207 C223 1.377 . S
C208 C206 1.389 1_455 S
C208 C209 1.524 . S
C208 C222 1.377 . S
C209 C208 1.524 . S
C209 C210 1.397 . S
C209 C214 1.363 . S
C210 H187 0.950 1_455 S
C210 C209 1.397 . S
C210 C211 1.334 . S
C211 H188 0.950 1_455 S
C211 C210 1.334 . S
C211 C212 1.287 . S
C212 C211 1.287 . S
C212 C213 1.524 . S
C212 H231 0.913 . S
C213 H189 0.950 . S
C213 C212 1.524 . S
C213 C214 1.415 . S
C214 H190 0.950 . S
C214 C209 1.363 . S
C214 C213 1.415 . S
C215 H191 0.951 . S
C215 C216 1.366 . S
C215 C217 1.388 . S
C216 C215 1.366 . S
C216 C220 1.384 1_665 S
C217 H192 0.951 . S
C217 C215 1.388 . S
C217 C218 1.366 1_655 S
C218 C217 1.366 1_455 S
C218 C219 1.414 1_565 S
C218 C221 1.499 . S
C219 H193 0.950 . S
C219 C218 1.414 1_545 S
C219 C220 1.374 . S
C220 H194 0.950 . S
C220 C216 1.384 1_445 S
C220 C219 1.374 . S
C221 C218 1.499 . S
C221 C222 1.373 1_565 S
C221 C223 1.389 1_455 S
C222 H195 0.950 . S
C222 C208 1.377 . S
C222 C221 1.373 1_545 S
C223 C207 1.377 . S
C223 C221 1.389 1_655 S
C223 C224 1.524 . S
C224 C223 1.524 . S
C224 C225 1.397 . S
C224 C229 1.363 . S
C225 H196 0.950 1_655 S
C225 C224 1.397 . S
C225 C226 1.334 . S
C226 H197 0.950 1_655 S
C226 C225 1.334 . S
C226 C227 1.287 . S
C227 C226 1.287 . S
C227 C228 1.524 . S
C227 H230 0.999 . S
C228 H198 0.950 . S
C228 C227 1.524 . S
C228 C229 1.415 . S
C229 H199 0.950 . S
C229 C224 1.363 . S
C229 C228 1.415 . S
H230 C227 0.999 . S
H231 C212 0.913 . S
C51 C30 1.366 . S
C66 C22 1.365 . S
C101 C27 1.324 . S
C116 C8 1.326 . S
C151 C24 1.409 . S
C166 C17 1.409 . S
C201 C23 1.452 . S
C216 C31 1.451 . S
