# Generated by pormake.
# Topology una, (4)-cn, num edge types: 1
# Building blocks:
#     Node 0, Type 0, BuildingBlock: NAHDIM_clean_sbu_0, # of connection points: 4
#     Node 1, Type 0, BuildingBlock: NAHDIM_clean_sbu_0, # of connection points: 4
#     Node 2, Type 0, BuildingBlock: NAHDIM_clean_sbu_0, # of connection points: 4
#     Node 3, Type 0, BuildingBlock: NAHDIM_clean_sbu_0, # of connection points: 4
#     Node 4, Type 0, BuildingBlock: NAHDIM_clean_sbu_0, # of connection points: 4
#     Node 5, Type 0, BuildingBlock: NAHDIM_clean_sbu_0, # of connection points: 4
#     Node 6, Type 0, BuildingBlock: NAHDIM_clean_sbu_0, # of connection points: 4
#     Node 7, Type 0, BuildingBlock: NAHDIM_clean_sbu_0, # of connection points: 4
#     Node 8, Type 0, BuildingBlock: NAHDIM_clean_sbu_0, # of connection points: 4
#     Node 9, Type 0, BuildingBlock: NAHDIM_clean_sbu_0, # of connection points: 4
#     Node 10, Type 0, BuildingBlock: NAHDIM_clean_sbu_0, # of connection points: 4
#     Node 11, Type 0, BuildingBlock: NAHDIM_clean_sbu_0, # of connection points: 4
#     Edge 12, Type (0, 0), None
#     Edge 13, Type (0, 0), None
#     Edge 14, Type (0, 0), None
#     Edge 15, Type (0, 0), None
#     Edge 16, Type (0, 0), None
#     Edge 17, Type (0, 0), None
#     Edge 18, Type (0, 0), None
#     Edge 19, Type (0, 0), None
#     Edge 20, Type (0, 0), None
#     Edge 21, Type (0, 0), None
#     Edge 22, Type (0, 0), None
#     Edge 23, Type (0, 0), None
#     Edge 24, Type (0, 0), None
#     Edge 25, Type (0, 0), None
#     Edge 26, Type (0, 0), None
#     Edge 27, Type (0, 0), None
#     Edge 28, Type (0, 0), None
#     Edge 29, Type (0, 0), None
#     Edge 30, Type (0, 0), None
#     Edge 31, Type (0, 0), None
#     Edge 32, Type (0, 0), None
#     Edge 33, Type (0, 0), None
#     Edge 34, Type (0, 0), None
#     Edge 35, Type (0, 0), None
# Relax obj value: 0.122
# Max RMSD: 0.175
# Mean RMSD: 0.172
data_MOF--net-una--node1-NAHDIM_clean_sbu_0--edge1-none
_symmetry_space_group_name_H-M    P1
_symmetry_Int_Tables_number       1
_symmetry_cell_setting            triclinic
loop_
_symmetry_equiv_pos_as_xyz
'x, y, z'
_cell_length_a     26.883043
_cell_length_b     26.181844
_cell_length_c     9.84737
_cell_angle_alpha  89.995167
_cell_angle_beta   90.003813
_cell_angle_gamma 120.88853
loop_
_atom_site_label
_atom_site_type_symbol
_atom_site_fract_x
_atom_site_fract_y
_atom_site_fract_z
_atom_type_partial_charge
C0 C 0.01065 0.36344 0.86191 0.0
O1 O 0.04997 0.40574 0.78443 0.0
O2 O 0.16279 0.40662 0.8726 0.0
Zn3 Zn 0.10999 0.40065 0.02677 0.0
O4 O 0.12444 0.48173 0.07798 0.0
C5 C 0.1737 0.36867 0.20543 0.0
O6 O 0.20859 0.38404 0.10042 0.0
O7 O 0.02601 0.35073 0.97273 0.0
C8 C 0.17231 0.52261 0.12652 0.0
O9 O 0.21593 0.51378 0.13962 0.0
C10 C 0.18844 0.45173 0.79513 0.0
O11 O 0.17983 0.4964 0.81075 0.0
O12 O 0.12657 0.36855 0.19512 0.0
C13 C 0.77995 0.21992 0.34505 0.0
O14 O 0.767 0.25419 0.27485 0.0
O15 O 0.63383 0.15557 0.28906 0.0
Zn16 Zn 0.69208 0.1452 0.17925 0.0
O17 O 0.72926 0.20439 0.02574 0.0
C18 C 0.60294 0.03384 0.07203 0.0
O19 O 0.57312 0.06033 0.0877 0.0
O20 O 0.75444 0.16478 0.31707 0.0
C21 C 0.70757 0.20198 0.90977 0.0
O22 O 0.65489 0.1586 0.88123 0.0
C23 C 0.59702 0.16902 0.24981 0.0
O24 O 0.59249 0.17783 0.12028 0.0
O25 O 0.65607 0.06085 0.1063 0.0
C26 C 0.61545 0.66147 0.24576 0.0
O27 O 0.60033 0.68668 0.15227 0.0
O28 O 0.53191 0.73014 0.27085 0.0
Zn29 Zn 0.53499 0.67598 0.41289 0.0
O30 O 0.4584 0.59943 0.43338 0.0
C31 C 0.58614 0.76855 0.62581 0.0
O32 O 0.62196 0.80549 0.53398 0.0
O33 O 0.59473 0.65428 0.3649 0.0
C34 C 0.41097 0.58692 0.37715 0.0
O35 O 0.4093 0.62485 0.29282 0.0
C36 C 0.51298 0.765 0.29346 0.0
O37 O 0.49227 0.76584 0.41364 0.0
O38 O 0.55037 0.71479 0.59475 0.0
C39 C 0.97994 0.63554 0.36202 0.0
O40 O 0.94061 0.59322 0.28463 0.0
O41 O 0.82781 0.59241 0.37272 0.0
Zn42 Zn 0.88062 0.59838 0.52688 0.0
O43 O 0.86617 0.5173 0.57808 0.0
C44 C 0.81693 0.63039 0.70553 0.0
O45 O 0.78206 0.61505 0.60051 0.0
O46 O 0.96459 0.6483 0.47279 0.0
C47 C 0.81832 0.47644 0.62679 0.0
O48 O 0.77473 0.48531 0.64007 0.0
C49 C 0.80213 0.54729 0.29531 0.0
O50 O 0.81072 0.50261 0.311 0.0
O51 O 0.86405 0.63048 0.69524 0.0
C52 C 0.21058 0.77908 0.84504 0.0
O53 O 0.22351 0.7448 0.77483 0.0
O54 O 0.35671 0.84343 0.78908 0.0
Zn55 Zn 0.29846 0.85381 0.67926 0.0
O56 O 0.26129 0.79463 0.52574 0.0
C57 C 0.3876 0.96519 0.57213 0.0
O58 O 0.41743 0.93871 0.58786 0.0
O59 O 0.23609 0.83422 0.81707 0.0
C60 C 0.28298 0.79705 0.40978 0.0
O61 O 0.33566 0.84045 0.38124 0.0
C62 C 0.39352 0.82999 0.74982 0.0
O63 O 0.39803 0.82118 0.62028 0.0
O64 O 0.33447 0.93816 0.60632 0.0
C65 C 0.37517 0.33758 0.74574 0.0
O66 O 0.39028 0.31237 0.65227 0.0
O67 O 0.45871 0.26892 0.77086 0.0
Zn68 Zn 0.45564 0.32308 0.91288 0.0
O69 O 0.53223 0.39963 0.93337 0.0
C70 C 0.40447 0.23051 0.12584 0.0
O71 O 0.36862 0.19359 0.03402 0.0
O72 O 0.3959 0.34478 0.86488 0.0
C73 C 0.57967 0.41214 0.87719 0.0
O74 O 0.58135 0.37421 0.79291 0.0
C75 C 0.47763 0.23404 0.79349 0.0
O76 O 0.49833 0.23319 0.91369 0.0
O77 O 0.44026 0.28427 0.09475 0.0
C78 C 0.57633 0.79068 0.75323 0.0
O79 O 0.53178 0.7538 0.82822 0.0
O80 O 0.48623 0.84731 0.80753 0.0
Zn81 Zn 0.55689 0.86275 0.91643 0.0
O82 O 0.53818 0.80528 0.07222 0.0
C83 C 0.57385 0.97331 0.01669 0.0
O84 O 0.51767 0.94512 -0.00277 0.0
O85 O 0.60173 0.84611 0.77798 0.0
C86 C 0.51795 0.8068 0.18764 0.0
O87 O 0.50535 0.84801 0.21434 0.0
C88 C 0.43555 0.83181 0.84773 0.0
O89 O 0.42314 0.82422 0.97782 0.0
O90 O 0.60184 0.94774 0.98709 0.0
C91 C 0.64979 0.63463 0.20851 0.0
O92 O 0.65792 0.60219 0.29733 0.0
O93 O 0.75191 0.58659 0.17789 0.0
Zn94 Zn 0.69926 0.58655 0.03062 0.0
O95 O 0.6315 0.50355 -0.00325 0.0
C96 C 0.7952 0.63241 0.84029 0.0
O97 O 0.82673 0.63929 0.9482 0.0
O98 O 0.66602 0.63688 0.08639 0.0
C99 C 0.63208 0.46965 0.90492 0.0
O100 O 0.67915 0.48689 0.83278 0.0
C101 C 0.76293 0.545 0.18876 0.0
O102 O 0.73929 0.50003 0.10378 0.0
O103 O 0.74177 0.61465 0.85347 0.0
C104 C 0.04149 0.66201 0.3289 0.0
O105 O 0.08146 0.69921 0.41356 0.0
O106 O 0.19375 0.7168 0.3289 0.0
Zn107 Zn 0.13727 0.66357 0.18432 0.0
O108 O 0.135 0.58585 0.16458 0.0
C109 C 0.17719 0.75536 0.97 0.0
O110 O 0.17236 0.79043 0.05744 0.0
O111 O 0.05583 0.64347 0.22549 0.0
C112 C 0.17925 0.58033 0.16154 0.0
O113 O 0.23105 0.62686 0.18213 0.0
C114 C 0.24683 0.75442 0.30451 0.0
O115 O 0.26781 0.75815 0.18214 0.0
O116 O 0.16315 0.70287 0.00383 0.0
C117 C 0.41427 0.20837 0.25326 0.0
O118 O 0.45884 0.24523 0.32823 0.0
O119 O 0.50431 0.15171 0.30756 0.0
Zn120 Zn 0.43368 0.13629 0.41649 0.0
O121 O 0.4524 0.19376 0.57227 0.0
C122 C 0.4167 0.02572 0.5168 0.0
O123 O 0.47289 0.05393 0.49742 0.0
O124 O 0.38884 0.15295 0.27804 0.0
C125 C 0.47264 0.19224 0.68768 0.0
O126 O 0.48523 0.15102 0.7144 0.0
C127 C 0.555 0.1672 0.34774 0.0
O128 O 0.56742 0.1748 0.47782 0.0
O129 O 0.38871 0.05129 0.48714 0.0
C130 C 0.34083 0.36443 0.70848 0.0
O131 O 0.33271 0.39688 0.79727 0.0
O132 O 0.2387 0.41246 0.6778 0.0
Zn133 Zn 0.29136 0.4125 0.53057 0.0
O134 O 0.35912 0.49551 0.49673 0.0
C135 C 0.19543 0.36663 0.34019 0.0
O136 O 0.16389 0.35971 0.44809 0.0
O137 O 0.3246 0.36217 0.58635 0.0
C138 C 0.35855 0.52941 0.40486 0.0
O139 O 0.31149 0.51217 0.33268 0.0
C140 C 0.22765 0.45402 0.68859 0.0
O141 O 0.25126 0.49897 0.60355 0.0
O142 O 0.24887 0.38443 0.35339 0.0
C143 C 0.9491 0.33698 0.82885 0.0
O144 O 0.90913 0.29983 0.9136 0.0
O145 O 0.79683 0.2822 0.82889 0.0
Zn146 Zn 0.85331 0.33542 0.68429 0.0
O147 O 0.8556 0.41316 0.66456 0.0
C148 C 0.81334 0.24364 0.47 0.0
O149 O 0.81819 0.20857 0.55743 0.0
O150 O 0.93474 0.35549 0.7254 0.0
C151 C 0.81137 0.41871 0.66179 0.0
O152 O 0.75957 0.37222 0.68265 0.0
C153 C 0.74374 0.24461 0.80451 0.0
O154 O 0.72275 0.2409 0.68214 0.0
O155 O 0.8274 0.29613 0.50382 0.0
loop_
_geom_bond_atom_site_label_1
_geom_bond_atom_site_label_2
_geom_bond_distance
_geom_bond_site_symmetry_2
_ccdc_geom_bond_type
C0 O1 1.160 . S
C0 O7 1.185 1_556 S
O1 C0 1.160 . S
O2 Zn3 1.899 1_556 S
O2 C10 1.284 . S
Zn3 O2 1.899 1_554 S
Zn3 O4 2.032 . S
Zn3 O7 2.086 . S
Zn3 O12 1.977 . S
O4 Zn3 2.032 . S
O4 C8 1.278 . S
C5 O6 1.203 . S
C5 O12 1.267 . S
O6 C5 1.203 . S
O7 C0 1.185 1_554 S
O7 Zn3 2.086 . S
C8 O4 1.278 . S
C8 O9 1.211 . S
O9 C8 1.211 . S
C10 O2 1.284 . S
C10 O11 1.273 . S
O11 C10 1.273 . S
O12 Zn3 1.977 . S
O12 C5 1.267 . S
C13 O14 1.160 . S
C13 O20 1.185 . S
O14 C13 1.160 . S
O15 Zn16 1.899 . S
O15 C23 1.284 . S
Zn16 O15 1.899 . S
Zn16 O17 2.032 . S
Zn16 O20 2.086 . S
Zn16 O25 1.977 . S
O17 Zn16 2.032 . S
O17 C21 1.278 1_554 S
C18 O19 1.203 . S
C18 O25 1.267 . S
O19 C18 1.203 . S
O20 C13 1.185 . S
O20 Zn16 2.086 . S
C21 O17 1.278 1_556 S
C21 O22 1.211 . S
O22 C21 1.211 . S
C23 O15 1.284 . S
C23 O24 1.273 . S
O24 C23 1.273 . S
O25 Zn16 1.977 . S
O25 C18 1.267 . S
C26 O27 1.160 . S
C26 O33 1.185 . S
O27 C26 1.160 . S
O28 Zn29 1.899 . S
O28 C36 1.284 . S
Zn29 O28 1.899 . S
Zn29 O30 2.032 . S
Zn29 O33 2.086 . S
Zn29 O38 1.977 . S
O30 Zn29 2.032 . S
O30 C34 1.278 . S
C31 O32 1.203 . S
C31 O38 1.267 . S
O32 C31 1.203 . S
O33 C26 1.185 . S
O33 Zn29 2.086 . S
C34 O30 1.278 . S
C34 O35 1.211 . S
O35 C34 1.211 . S
C36 O28 1.284 . S
C36 O37 1.273 . S
O37 C36 1.273 . S
O38 Zn29 1.977 . S
O38 C31 1.267 . S
C39 O40 1.160 . S
C39 O46 1.185 . S
O40 C39 1.160 . S
O41 Zn42 1.899 . S
O41 C49 1.284 . S
Zn42 O41 1.899 . S
Zn42 O43 2.032 . S
Zn42 O46 2.086 . S
Zn42 O51 1.977 . S
O43 Zn42 2.032 . S
O43 C47 1.278 . S
C44 O45 1.203 . S
C44 O51 1.267 . S
O45 C44 1.203 . S
O46 C39 1.185 . S
O46 Zn42 2.086 . S
C47 O43 1.278 . S
C47 O48 1.211 . S
O48 C47 1.211 . S
C49 O41 1.284 . S
C49 O50 1.273 . S
O50 C49 1.273 . S
O51 Zn42 1.977 . S
O51 C44 1.267 . S
C52 O53 1.160 . S
C52 O59 1.185 . S
O53 C52 1.160 . S
O54 Zn55 1.899 . S
O54 C62 1.284 . S
Zn55 O54 1.899 . S
Zn55 O56 2.032 . S
Zn55 O59 2.086 . S
Zn55 O64 1.977 . S
O56 Zn55 2.032 . S
O56 C60 1.278 . S
C57 O58 1.203 . S
C57 O64 1.267 . S
O58 C57 1.203 . S
O59 C52 1.185 . S
O59 Zn55 2.086 . S
C60 O56 1.278 . S
C60 O61 1.211 . S
O61 C60 1.211 . S
C62 O54 1.284 . S
C62 O63 1.273 . S
O63 C62 1.273 . S
O64 Zn55 1.977 . S
O64 C57 1.267 . S
C65 O66 1.160 . S
C65 O72 1.185 . S
O66 C65 1.160 . S
O67 Zn68 1.899 . S
O67 C75 1.284 . S
Zn68 O67 1.899 . S
Zn68 O69 2.032 . S
Zn68 O72 2.086 . S
Zn68 O77 1.977 1_556 S
O69 Zn68 2.032 . S
O69 C73 1.278 . S
C70 O71 1.203 1_554 S
C70 O77 1.267 . S
O71 C70 1.203 1_556 S
O72 C65 1.185 . S
O72 Zn68 2.086 . S
C73 O69 1.278 . S
C73 O74 1.211 . S
O74 C73 1.211 . S
C75 O67 1.284 . S
C75 O76 1.273 . S
O76 C75 1.273 . S
O77 Zn68 1.977 1_554 S
O77 C70 1.267 . S
C78 O79 1.160 . S
C78 O85 1.185 . S
O79 C78 1.160 . S
O80 Zn81 1.899 . S
O80 C88 1.284 . S
Zn81 O80 1.899 . S
Zn81 O82 2.032 . S
Zn81 O85 2.086 . S
Zn81 O90 1.977 . S
O82 Zn81 2.032 . S
O82 C86 1.278 1_556 S
C83 O84 1.203 1_556 S
C83 O90 1.267 . S
O84 C83 1.203 1_554 S
O85 C78 1.185 . S
O85 Zn81 2.086 . S
C86 O82 1.278 1_554 S
C86 O87 1.211 . S
O87 C86 1.211 . S
C88 O80 1.284 . S
C88 O89 1.273 . S
O89 C88 1.273 . S
O90 Zn81 1.977 . S
O90 C83 1.267 . S
C91 O92 1.160 . S
C91 O98 1.185 . S
O92 C91 1.160 . S
O93 Zn94 1.899 . S
O93 C101 1.284 . S
Zn94 O93 1.899 . S
Zn94 O95 2.032 . S
Zn94 O98 2.086 . S
Zn94 O103 1.977 1_554 S
O95 Zn94 2.032 . S
O95 C99 1.278 1_554 S
C96 O97 1.203 . S
C96 O103 1.267 . S
O97 C96 1.203 . S
O98 C91 1.185 . S
O98 Zn94 2.086 . S
C99 O95 1.278 1_556 S
C99 O100 1.211 . S
O100 C99 1.211 . S
C101 O93 1.284 . S
C101 O102 1.273 . S
O102 C101 1.273 . S
O103 Zn94 1.977 1_556 S
O103 C96 1.267 . S
C104 O105 1.160 . S
C104 O111 1.185 . S
O105 C104 1.160 . S
O106 Zn107 1.899 . S
O106 C114 1.284 . S
Zn107 O106 1.899 . S
Zn107 O108 2.032 . S
Zn107 O111 2.086 . S
Zn107 O116 1.977 . S
O108 Zn107 2.032 . S
O108 C112 1.278 . S
C109 O110 1.203 . S
C109 O116 1.267 . S
O110 C109 1.203 . S
O111 C104 1.185 . S
O111 Zn107 2.086 . S
C112 O108 1.278 . S
C112 O113 1.211 . S
O113 C112 1.211 . S
C114 O106 1.284 . S
C114 O115 1.273 . S
O115 C114 1.273 . S
O116 Zn107 1.977 . S
O116 C109 1.267 . S
C117 O118 1.160 . S
C117 O124 1.185 . S
O118 C117 1.160 . S
O119 Zn120 1.899 . S
O119 C127 1.284 . S
Zn120 O119 1.899 . S
Zn120 O121 2.032 . S
Zn120 O124 2.086 . S
Zn120 O129 1.977 . S
O121 Zn120 2.032 . S
O121 C125 1.278 . S
C122 O123 1.203 . S
C122 O129 1.267 . S
O123 C122 1.203 . S
O124 C117 1.185 . S
O124 Zn120 2.086 . S
C125 O121 1.278 . S
C125 O126 1.211 . S
O126 C125 1.211 . S
C127 O119 1.284 . S
C127 O128 1.273 . S
O128 C127 1.273 . S
O129 Zn120 1.977 . S
O129 C122 1.267 . S
C130 O131 1.160 . S
C130 O137 1.185 . S
O131 C130 1.160 . S
O132 Zn133 1.899 . S
O132 C140 1.284 . S
Zn133 O132 1.899 . S
Zn133 O134 2.032 . S
Zn133 O137 2.086 . S
Zn133 O142 1.977 . S
O134 Zn133 2.032 . S
O134 C138 1.278 . S
C135 O136 1.203 . S
C135 O142 1.267 . S
O136 C135 1.203 . S
O137 C130 1.185 . S
O137 Zn133 2.086 . S
C138 O134 1.278 . S
C138 O139 1.211 . S
O139 C138 1.211 . S
C140 O132 1.284 . S
C140 O141 1.273 . S
O141 C140 1.273 . S
O142 Zn133 1.977 . S
O142 C135 1.267 . S
C143 O144 1.160 . S
C143 O150 1.185 . S
O144 C143 1.160 . S
O145 Zn146 1.899 . S
O145 C153 1.284 . S
Zn146 O145 1.899 . S
Zn146 O147 2.032 . S
Zn146 O150 2.086 . S
Zn146 O155 1.977 . S
O147 Zn146 2.032 . S
O147 C151 1.278 . S
C148 O149 1.203 . S
C148 O155 1.267 . S
O149 C148 1.203 . S
O150 C143 1.185 . S
O150 Zn146 2.086 . S
C151 O147 1.278 . S
C151 O152 1.211 . S
O152 C151 1.211 . S
C153 O145 1.284 . S
C153 O154 1.273 . S
O154 C153 1.273 . S
O155 Zn146 1.977 . S
O155 C148 1.267 . S
C5 C135 1.019 . S
C148 C13 1.066 . S
C31 C78 1.065 . S
C44 C96 1.019 . S
C52 C109 1.066 1_556 S
C117 C70 1.065 . S
C8 C112 1.467 . S
C23 C127 1.803 . S
C138 C34 1.467 . S
C47 C151 1.468 . S
C62 C88 1.804 . S
C73 C99 1.468 . S
C140 C10 1.274 . S
C21 C153 1.309 . S
C36 C86 1.309 . S
C49 C101 1.273 . S
C114 C60 1.309 . S
C75 C125 1.309 . S
C0 C143 1.366 1_455 S
C83 C18 1.464 1_566 S
C91 C26 1.366 . S
C104 C39 1.366 1_455 S
C122 C57 1.464 1_545 S
C130 C65 1.366 . S
