# Generated by pormake.
# Topology pcu, (6)-cn, num edge types: 1
# Building blocks:
#     Node 0, Type 0, BuildingBlock: MIDCAF_clean_sbu_0, # of connection points: 6
#     Edge 1, Type (0, 0), BuildingBlock: KIFKEQ_clean_linker_1, # of connection points: 2
#     Edge 2, Type (0, 0), BuildingBlock: KIFKEQ_clean_linker_1, # of connection points: 2
#     Edge 3, Type (0, 0), BuildingBlock: KIFKEQ_clean_linker_1, # of connection points: 2
# Relax obj value: 0.148
# Max RMSD: 0.201
# Mean RMSD: 0.201
data_MOF--net-pcu--node1-MIDCAF_clean_sbu_0--edge1-KIFKEQ_clean_linker_1
_symmetry_space_group_name_H-M    P1
_symmetry_Int_Tables_number       1
_symmetry_cell_setting            triclinic
loop_
_symmetry_equiv_pos_as_xyz
'x, y, z'
_cell_length_a     15.222341
_cell_length_b     15.219883
_cell_length_c     15.221385
_cell_angle_alpha  105.2653
_cell_angle_beta   105.09705
_cell_angle_gamma 105.59552
loop_
_atom_site_label
_atom_site_type_symbol
_atom_site_fract_x
_atom_site_fract_y
_atom_site_fract_z
_atom_type_partial_charge
Zn0 Zn 0.90332 0.91383 0.92709 0.0
Zn1 Zn 0.18962 0.2009 0.21205 0.0
Zn2 Zn 0.04644 0.05737 1.06959 0.0
C3 C 0.25898 0.1626 1.06264 0.0
C4 C 0.15118 1.05144 0.28165 0.0
O5 O 0.91918 0.10328 1.03332 0.0
O6 O 0.80975 0.9793 0.9028 0.0
C7 C 0.0528 0.9524 0.85742 0.0
O8 O 0.17395 0.09394 1.0231 0.0
O9 O 0.28342 0.22536 0.14612 0.0
O10 O 0.21379 0.1353 0.30578 0.0
O11 O 0.08268 1.01134 0.19695 0.0
O12 O 0.96908 0.8896 0.83329 0.0
O13 O 0.09268 1.02103 0.94216 0.0
O14 O 1.00987 0.92992 0.11604 0.0
O15 O 0.8788 0.82013 0.99298 0.0
C16 C 0.94134 0.84478 0.07648 0.0
O17 O 1.00035 0.18464 0.10594 0.0
O18 O 0.12402 0.29444 0.23643 0.0
C19 C 0.83425 0.06314 0.96507 0.0
C20 C 1.04029 0.26973 0.1742 0.0
H21 H 0.99545 0.93146 0.30259 0.0
H22 H 0.30852 0.07813 0.43414 0.0
H23 H 0.99404 0.8872 0.44507 0.0
H24 H 0.3062 1.0378 0.57896 0.0
H25 H 1.02624 0.79504 0.70443 0.0
H26 H 0.06643 0.7976 0.5595 0.0
H27 H 0.21688 0.11004 0.6942 0.0
H28 H 0.17277 0.1084 0.83683 0.0
C29 C 0.06429 0.95077 0.36009 0.0
C30 C 0.15212 1.0071 0.35679 0.0
C31 C 0.06348 0.92594 0.44187 0.0
C32 C 0.15013 0.95941 0.52258 0.0
C33 C 0.23867 1.01121 0.51735 0.0
C34 C 0.23975 1.03429 0.43474 0.0
C35 C 0.07003 0.86392 0.70398 0.0
C36 C 0.09719 0.95157 0.7822 0.0
C37 C 0.09302 0.86514 0.6213 0.0
C38 C 0.14471 0.95384 0.61627 0.0
C39 C 0.1782 1.04049 0.69724 0.0
C40 C 0.15347 1.03955 0.7791 0.0
H41 H 0.41276 0.31991 0.0886 0.0
H42 H 0.27876 1.00658 0.94325 0.0
H43 H 0.55773 0.31722 1.04858 0.0
H44 H 0.42141 1.00484 0.89927 0.0
H45 H 0.81356 0.18265 0.12037 0.0
H46 H 0.67134 0.22708 0.12149 0.0
H47 H 0.53734 0.07733 0.80984 0.0
H48 H 0.68194 1.03687 0.8078 0.0
C49 C 0.41285 0.25101 1.04508 0.0
C50 C 0.33417 0.16341 1.01821 0.0
C51 C 0.49556 0.24973 1.02219 0.0
C52 C 0.50015 0.161 0.97088 0.0
C53 C 0.41872 0.0744 0.93765 0.0
C54 C 0.33684 0.07542 0.9623 0.0
C55 C 0.75612 0.16358 1.05159 0.0
C56 C 0.75932 0.10749 0.96397 0.0
C57 C 0.67449 0.18849 1.05223 0.0
C58 C 0.59381 0.15533 0.96564 0.0
C59 C 0.59894 0.1037 0.87731 0.0
C60 C 0.68142 0.08055 0.8764 0.0
H61 H 0.78402 0.69115 1.05076 0.0
H62 H 0.09704 0.82508 0.19567 0.0
H63 H 0.78647 0.54625 0.09088 0.0
H64 H 0.09855 0.68254 0.23977 0.0
H65 H 0.06618 0.42238 0.33149 0.0
H66 H 1.02576 0.56701 0.32945 0.0
H67 H 0.87661 0.43224 1.01782 0.0
H68 H 0.92102 0.28999 1.01893 0.0
C69 C 0.8528 0.69107 0.09421 0.0
C70 C 0.94038 0.7697 0.12093 0.0
C71 C 0.85395 0.60841 0.11716 0.0
C72 C 0.94252 0.60383 0.16839 0.0
C73 C 1.0291 0.68523 0.20147 0.0
C74 C 1.02823 0.76705 0.17675 0.0
C75 C 1.02263 0.42273 0.26289 0.0
C76 C 0.99588 0.34461 0.17533 0.0
C77 C 0.9995 0.50522 0.26198 0.0
C78 C 0.94807 0.51015 0.17366 0.0
C79 C 0.91505 0.42925 0.08707 0.0
C80 C 0.93995 0.3476 0.08772 0.0
loop_
_geom_bond_atom_site_label_1
_geom_bond_atom_site_label_2
_geom_bond_distance
_geom_bond_site_symmetry_2
_ccdc_geom_bond_type
Zn0 O6 1.920 . S
Zn0 O12 1.898 . S
Zn0 O15 1.905 . S
Zn1 O9 1.905 . S
Zn1 O10 1.898 . S
Zn1 O18 1.920 . S
Zn2 O5 2.075 1_455 S
Zn2 O8 2.120 . S
Zn2 O11 2.119 1_465 S
Zn2 O13 2.120 1_464 S
Zn2 O14 2.117 1_554 S
Zn2 O17 2.078 1_564 S
C3 O8 1.166 1_545 S
C3 O9 1.182 . S
C4 O10 1.175 . S
C4 O11 1.300 1_455 S
O5 Zn2 2.075 1_655 S
O5 C19 1.305 1_554 S
O6 Zn0 1.920 . S
O6 C19 1.234 . S
C7 O12 1.173 . S
C7 O13 1.300 1_565 S
O8 Zn2 2.120 . S
O8 C3 1.166 1_565 S
O9 Zn1 1.905 . S
O9 C3 1.182 . S
O10 Zn1 1.898 . S
O10 C4 1.175 . S
O11 Zn2 2.119 1_645 S
O11 C4 1.300 1_655 S
O12 Zn0 1.898 . S
O12 C7 1.173 . S
O13 Zn2 2.120 1_646 S
O13 C7 1.300 1_545 S
O14 Zn2 2.117 1_556 S
O14 C16 1.166 1_455 S
O15 Zn0 1.905 . S
O15 C16 1.182 . S
C16 O14 1.166 1_655 S
C16 O15 1.182 . S
O17 Zn2 2.078 1_546 S
O17 C20 1.305 1_556 S
O18 Zn1 1.920 . S
O18 C20 1.234 . S
C19 O5 1.305 1_556 S
C19 O6 1.234 . S
C20 O17 1.305 1_554 S
C20 O18 1.234 . S
H21 C29 0.950 1_545 S
H22 C34 0.950 . S
H23 C31 0.950 1_545 S
H24 C33 0.950 . S
H25 C35 0.950 . S
H26 C37 0.950 . S
H27 C39 0.950 . S
H28 C40 0.950 . S
C29 H21 0.950 1_565 S
C29 C30 1.386 1_655 S
C29 C31 1.391 . S
C30 C29 1.386 1_455 S
C30 C34 1.393 . S
C31 H23 0.950 1_565 S
C31 C29 1.391 . S
C31 C32 1.400 1_655 S
C32 C31 1.400 1_455 S
C32 C33 1.398 . S
C32 C38 1.491 . S
C33 H24 0.950 . S
C33 C32 1.398 . S
C33 C34 1.391 . S
C34 H22 0.950 . S
C34 C30 1.393 . S
C34 C33 1.391 . S
C35 H25 0.950 . S
C35 C36 1.386 . S
C35 C37 1.391 . S
C36 C35 1.386 . S
C36 C40 1.393 1_465 S
C37 H26 0.950 . S
C37 C35 1.391 . S
C37 C38 1.400 . S
C38 C32 1.491 . S
C38 C37 1.400 . S
C38 C39 1.398 1_465 S
C39 H27 0.950 . S
C39 C38 1.398 1_645 S
C39 C40 1.391 . S
C40 H28 0.950 . S
C40 C36 1.393 1_645 S
C40 C39 1.391 . S
H41 C49 0.950 . S
H42 C54 0.950 1_565 S
H43 C51 0.950 . S
H44 C53 0.950 1_565 S
H45 C55 0.954 . S
H46 C57 0.950 . S
H47 C59 0.950 . S
H48 C60 0.950 . S
C49 H41 0.950 . S
C49 C50 1.386 . S
C49 C51 1.391 . S
C50 C49 1.386 . S
C50 C54 1.393 1_556 S
C51 H43 0.950 . S
C51 C49 1.391 . S
C51 C52 1.400 . S
C52 C51 1.400 . S
C52 C53 1.398 1_556 S
C52 C58 1.491 . S
C53 H44 0.950 1_545 S
C53 C52 1.398 1_554 S
C53 C54 1.391 . S
C54 H42 0.950 1_545 S
C54 C50 1.393 1_554 S
C54 C53 1.391 . S
C55 H45 0.954 . S
C55 C56 1.381 1_564 S
C55 C57 1.391 . S
C56 C55 1.381 1_546 S
C56 C60 1.393 . S
C57 H46 0.950 . S
C57 C55 1.391 . S
C57 C58 1.400 1_564 S
C58 C52 1.491 . S
C58 C57 1.400 1_546 S
C58 C59 1.398 . S
C59 H47 0.950 . S
C59 C58 1.398 . S
C59 C60 1.391 . S
C60 H48 0.950 . S
C60 C56 1.393 . S
C60 C59 1.391 . S
H61 C69 0.950 . S
H62 C74 0.950 . S
H63 C71 0.950 . S
H64 C73 0.950 . S
H65 C75 0.950 . S
H66 C77 0.950 . S
H67 C79 0.950 . S
H68 C80 0.950 . S
C69 H61 0.950 . S
C69 C70 1.386 1_556 S
C69 C71 1.391 . S
C70 C69 1.386 1_554 S
C70 C74 1.393 1_655 S
C71 H63 0.950 . S
C71 C69 1.391 . S
C71 C72 1.400 1_556 S
C72 C71 1.400 1_554 S
C72 C73 1.398 1_655 S
C72 C78 1.491 . S
C73 H64 0.950 . S
C73 C72 1.398 1_455 S
C73 C74 1.391 . S
C74 H62 0.950 . S
C74 C70 1.393 1_455 S
C74 C73 1.391 . S
C75 H65 0.950 . S
C75 C76 1.386 1_455 S
C75 C77 1.391 . S
C76 C75 1.386 1_655 S
C76 C80 1.393 1_554 S
C77 H66 0.950 . S
C77 C75 1.391 . S
C77 C78 1.400 1_455 S
C78 C72 1.491 . S
C78 C77 1.400 1_655 S
C78 C79 1.398 1_554 S
C79 H67 0.950 . S
C79 C78 1.398 1_556 S
C79 C80 1.391 . S
C80 H68 0.950 . S
C80 C76 1.393 1_556 S
C80 C79 1.391 . S
C30 C4 1.329 1_565 S
C36 C7 1.324 1_455 S
C50 C3 1.312 1_556 S
C56 C19 1.305 1_545 S
C70 C16 1.327 1_554 S
C76 C20 1.338 1_655 S
