# Generated by pormake.
# Topology dmp, (4)-cn, num edge types: 1
# Building blocks:
#     Node 0, Type 0, BuildingBlock: QUQFOY_clean_sbu_3, # of connection points: 4
#     Node 1, Type 0, BuildingBlock: QUQFOY_clean_sbu_3, # of connection points: 4
#     Node 2, Type 0, BuildingBlock: QUQFOY_clean_sbu_3, # of connection points: 4
#     Node 3, Type 0, BuildingBlock: QUQFOY_clean_sbu_3, # of connection points: 4
#     Edge 4, Type (0, 0), BuildingBlock: EZIPEK_clean_linker_0, # of connection points: 2
#     Edge 5, Type (0, 0), BuildingBlock: EZIPEK_clean_linker_0, # of connection points: 2
#     Edge 6, Type (0, 0), BuildingBlock: EZIPEK_clean_linker_0, # of connection points: 2
#     Edge 7, Type (0, 0), BuildingBlock: EZIPEK_clean_linker_0, # of connection points: 2
#     Edge 8, Type (0, 0), BuildingBlock: EZIPEK_clean_linker_0, # of connection points: 2
#     Edge 9, Type (0, 0), BuildingBlock: EZIPEK_clean_linker_0, # of connection points: 2
#     Edge 10, Type (0, 0), BuildingBlock: EZIPEK_clean_linker_0, # of connection points: 2
#     Edge 11, Type (0, 0), BuildingBlock: EZIPEK_clean_linker_0, # of connection points: 2
# Relax obj value: 0.082
# Max RMSD: 0.185
# Mean RMSD: 0.185
data_MOF--net-dmp--node1-QUQFOY_clean_sbu_3--edge1-EZIPEK_clean_linker_0
_symmetry_space_group_name_H-M    P1
_symmetry_Int_Tables_number       1
_symmetry_cell_setting            triclinic
loop_
_symmetry_equiv_pos_as_xyz
'x, y, z'
_cell_length_a     30.255403
_cell_length_b     14.236382
_cell_length_c     11.635699
_cell_angle_alpha  89.781196
_cell_angle_beta   96.260495
_cell_angle_gamma 90.448198
loop_
_atom_site_label
_atom_site_type_symbol
_atom_site_fract_x
_atom_site_fract_y
_atom_site_fract_z
_atom_type_partial_charge
C0 C 0.06899 0.10444 0.06494 0.0
O1 O 0.09924 0.11775 0.9992 0.0
Cd2 Cd 0.15691 0.23297 0.04623 0.0
O3 O 0.06733 0.15381 0.1549 0.0
Cd4 Cd 0.10867 0.28572 0.24902 0.0
C5 C 0.20158 0.16726 0.31687 0.0
O6 O 0.12556 0.38357 0.08173 0.0
O7 O 0.15976 0.41422 0.25114 0.0
O8 O 0.03852 0.35598 0.28197 0.0
C9 C 0.15051 0.43802 0.14653 0.0
O10 O 0.20708 0.1786 0.21082 0.0
C11 C 0.04878 0.36433 0.39008 0.0
O12 O 0.1662 0.19376 0.35602 0.0
O13 O 0.08629 0.33387 0.4329 0.0
C14 C 0.39567 0.59491 0.46967 0.0
O15 O 0.363 0.60727 0.52772 0.0
Cd16 Cd 0.31367 0.74087 0.50318 0.0
O17 O 0.40403 0.652 0.39059 0.0
Cd18 Cd 0.37264 0.79464 0.30024 0.0
C19 C 0.26899 0.7074 0.22456 0.0
O20 O 0.35703 0.87907 0.4765 0.0
O21 O 0.33853 0.94417 0.31067 0.0
O22 O 0.44625 0.84754 0.26096 0.0
C23 C 0.34019 0.9487 0.41955 0.0
O24 O 0.26279 0.71388 0.33071 0.0
C25 C 0.43468 0.8577 0.15338 0.0
O26 O 0.30713 0.72374 0.19251 0.0
O27 O 0.39516 0.83559 0.11487 0.0
C28 C 0.92394 0.84299 0.96464 0.0
O29 O 0.89154 0.84336 0.02513 0.0
Cd30 Cd 0.8253 0.75122 0.97218 0.0
O31 O 0.92353 0.79035 0.87685 0.0
Cd32 Cd 0.87465 0.67268 0.77725 0.0
C33 C 0.7965 0.8259 0.69299 0.0
O34 O 0.8389 0.58992 0.93087 0.0
O35 O 0.80899 0.57989 0.75286 0.0
O36 O 0.93559 0.56485 0.76684 0.0
C37 C 0.80988 0.55313 0.85687 0.0
O38 O 0.78735 0.81937 0.79691 0.0
C39 C 0.93225 0.56536 0.65722 0.0
O40 O 0.83033 0.7861 0.65987 0.0
O41 O 0.90222 0.61555 0.60361 0.0
C42 C 0.5321 0.31587 0.52792 0.0
O43 O 0.55988 0.31811 0.45384 0.0
Cd44 Cd 0.62937 0.2351 0.4829 0.0
O45 O 0.53835 0.26391 0.61694 0.0
Cd46 Cd 0.59246 0.14935 0.69938 0.0
C47 C 0.66963 0.31416 0.75355 0.0
O48 O 0.62156 0.0729 0.5323 0.0
O49 O 0.65925 0.06411 0.70181 0.0
O50 O 0.53515 0.03678 0.73678 0.0
C51 C 0.65452 0.0399 0.59666 0.0
O52 O 0.67351 0.30954 0.64587 0.0
C53 C 0.54444 0.03993 0.84576 0.0
O54 O 0.63969 0.26829 0.79862 0.0
O55 O 0.57627 0.09276 0.88625 0.0
C56 C 0.31881 0.11371 0.43218 0.0
C57 C 0.31293 0.02032 0.4688 0.0
C58 C 0.23268 0.03835 0.44993 0.0
C59 C 0.23813 0.12624 0.39487 0.0
N60 N 0.28433 0.26237 0.37308 0.0
N61 N 0.26875 0.91494 0.56997 0.0
C62 C 0.28073 0.16944 0.40054 0.0
C63 C 0.2712 -0.00954 0.49869 0.0
N64 N 0.36071 0.14506 0.41919 0.0
N65 N 0.19164 -0.00265 0.44763 0.0
H66 H 0.29748 0.88312 0.60946 0.0
H67 H 0.23932 0.89209 0.60015 0.0
H68 H 0.16253 0.03001 0.41247 0.0
H69 H 0.1868 0.92856 0.47471 0.0
H70 H 0.36768 0.20903 0.3813 0.0
H71 H 0.38859 0.10422 0.44538 0.0
H72 H 0.31424 0.29964 0.38144 0.0
H73 H 0.25645 0.30413 0.35096 0.0
C74 C 0.21 0.51977 0.0529 0.0
C75 C 0.16995 0.52499 0.10498 0.0
C76 C 0.188 0.6849 0.16883 0.0
C77 C 0.23197 0.66938 0.14298 0.0
N78 N 0.27619 0.60204 1.00467 0.0
N79 N 0.11442 0.6177 0.18259 0.0
C80 C 0.24021 0.59676 0.06561 0.0
C81 C 0.15637 0.61082 0.15039 0.0
N82 N 0.22037 0.43888 0.9996 0.0
N83 N 0.17785 0.76928 0.21439 0.0
H84 H 0.09105 0.56362 0.16656 0.0
H85 H 0.10247 0.67591 0.22281 0.0
H86 H 0.20116 0.82401 0.2242 0.0
H87 H 0.1466 0.78708 0.23636 0.0
H88 H 0.25145 0.42584 0.97274 0.0
H89 H 0.19772 0.38346 0.9853 0.0
H90 H 0.28274 0.55309 0.94261 0.0
H91 H 0.29616 0.66205 0.0053 0.0
C92 C 0.68565 0.88736 0.54654 0.0
C93 C 0.69023 -0.01399 0.55244 0.0
C94 C 0.77072 0.97407 0.59517 0.0
C95 C 0.76504 0.87634 0.61003 0.0
N96 N 0.72241 0.73565 0.56572 0.0
N97 N 0.73569 0.12335 0.54013 0.0
C98 C 0.72416 0.83141 0.57207 0.0
C99 C 0.73269 0.02915 0.56044 0.0
N100 N 0.64416 0.8485 0.52568 0.0
N101 N 0.81174 0.01389 0.62226 0.0
H102 H 0.70748 0.16311 0.51423 0.0
H103 H 0.76551 0.16025 0.54026 0.0
H104 H 0.84005 0.97339 0.64402 0.0
H105 H 0.81779 0.08592 0.62484 0.0
H106 H 0.63734 0.77698 0.53065 0.0
H107 H 0.6161 0.88973 0.50364 0.0
H108 H 0.69419 0.6974 0.53488 0.0
H109 H 0.75077 0.6946 0.58433 0.0
C110 C 0.73067 0.52492 0.88093 0.0
C111 C 0.77455 0.48977 0.88818 0.0
C112 C 0.74672 0.33066 0.84998 0.0
C113 C 0.7033 0.36797 0.82723 0.0
N114 N 0.65132 0.49077 0.85344 0.0
N115 N 0.8247 0.36024 0.9164 0.0
C116 C 0.69435 0.46199 0.8551 0.0
C117 C 0.78256 0.3923 0.8867 0.0
N118 N 0.72435 0.61928 0.8914 0.0
N119 N 0.75363 0.2376 0.83009 0.0
H120 H 0.85102 0.40573 0.94327 0.0
H121 H 0.83301 0.28953 0.92337 0.0
H122 H 0.72749 0.19048 0.80812 0.0
H123 H 0.78487 0.20719 0.83257 0.0
H124 H 0.69376 0.6522 0.8741 0.0
H125 H 0.75069 0.66529 0.91588 0.0
H126 H 0.64214 0.55711 0.87905 0.0
H127 H 0.62445 0.44495 0.8346 0.0
C128 C 0.00023 0.05352 0.94229 0.0
C129 C 0.03358 0.03443 0.03458 0.0
C130 C -0.00654 0.89288 0.08632 0.0
C131 C 0.96132 0.90936 0.99034 0.0
N132 N 0.93581 -0.00212 0.81859 0.0
N133 N 0.06641 0.93113 0.18413 0.0
C134 C 0.96536 -0.01273 0.91546 0.0
C135 C 0.03141 0.95275 0.10402 0.0
N136 N 0.0007 0.13724 0.88413 0.0
N137 N -0.01254 0.82036 0.16067 0.0
H138 H 0.09482 0.97333 0.19859 0.0
H139 H 0.06911 0.86822 0.23005 0.0
H140 H 0.96112 0.77255 0.14737 0.0
H141 H 0.00691 0.81045 0.23914 0.0
H142 H 0.97462 0.16055 0.82549 0.0
H143 H 0.02593 0.18732 0.90024 0.0
H144 H 0.9402 0.04574 0.75287 0.0
H145 H 0.90783 0.95512 0.80002 0.0
C146 C 0.47624 0.03386 0.9463 0.0
C147 C 0.51655 -0.0085 0.92329 0.0
C148 C 0.5028 0.85854 0.04888 0.0
C149 C 0.46401 0.90412 0.0776 0.0
N150 N 0.41833 0.04267 0.07367 0.0
N151 N 0.57175 0.87081 0.96066 0.0
C152 C 0.45186 -0.00618 0.03162 0.0
C153 C 0.53099 0.90596 0.97724 0.0
N154 N 0.46105 0.11196 0.8859 0.0
N155 N 0.51166 0.76882 0.08649 0.0
H156 H 0.59241 0.90193 0.90497 0.0
H157 H 0.58635 0.81437 0.00714 0.0
H158 H 0.49182 0.73249 0.13992 0.0
H159 H 0.53673 0.72783 0.05858 0.0
H160 H 0.42935 0.13915 0.88889 0.0
H161 H 0.47883 0.14605 0.82587 0.0
H162 H 0.41122 0.11254 0.05296 0.0
H163 H 0.40009 0.01655 0.13802 0.0
C164 C 0.006 0.54706 0.5847 0.0
C165 C 0.96273 0.51116 0.59398 0.0
C166 C 0.9778 0.37327 0.48012 0.0
C167 C 0.01948 0.41352 0.46207 0.0
N168 N 0.07096 0.54448 0.48029 0.0
N169 N 0.90503 0.39581 0.54452 0.0
C170 C 0.03318 0.50174 0.51039 0.0
C171 C 0.94786 0.42584 0.53981 0.0
N172 N 0.02113 0.62431 0.64711 0.0
N173 N 0.96762 0.28365 0.44375 0.0
H174 H 0.88282 0.43014 0.59232 0.0
H175 H 0.89058 0.34016 0.49585 0.0
H176 H -0.01111 0.24316 0.39975 0.0
H177 H 0.93984 0.24647 0.46477 0.0
H178 H 0.05408 0.6472 0.65439 0.0
H179 H 0.00152 0.66195 0.69893 0.0
H180 H 0.07994 0.61342 0.50198 0.0
H181 H 0.09166 0.5141 0.42496 0.0
C182 C 0.4572 0.51686 0.59338 0.0
C183 C 0.4256 0.51436 0.49419 0.0
C184 C 0.45988 0.37221 0.42609 0.0
C185 C 0.49449 0.38178 0.51783 0.0
N186 N 0.52979 0.46899 0.68093 0.0
N187 N 0.39566 0.4421 0.31515 0.0
C188 C 0.49389 0.45491 0.60039 0.0
C189 C 0.4265 0.44235 0.41032 0.0
N190 N 0.45245 0.57919 0.68029 0.0
N191 N 0.45852 0.29496 0.35618 0.0
H192 H 0.36898 0.48851 0.30518 0.0
H193 H 0.39718 0.39864 0.24404 0.0
H194 H 0.48236 0.24215 0.3664 0.0
H195 H 0.43247 0.27935 0.29311 0.0
H196 H 0.47142 0.57711 0.76047 0.0
H197 H 0.42709 0.6286 0.67635 0.0
H198 H 0.53369 0.52746 0.73463 0.0
H199 H 0.55789 0.42657 0.68787 0.0
loop_
_geom_bond_atom_site_label_1
_geom_bond_atom_site_label_2
_geom_bond_distance
_geom_bond_site_symmetry_2
_ccdc_geom_bond_type
C0 O1 1.306 . S
C0 O3 1.160 . S
O1 C0 1.306 . S
O1 Cd2 2.228 . S
Cd2 O1 2.228 . S
Cd2 O6 2.273 . S
Cd2 O10 2.277 . S
O3 C0 1.160 . S
O3 Cd4 2.203 . S
Cd4 O3 2.203 . S
Cd4 O6 2.411 . S
Cd4 O7 2.333 . S
Cd4 O8 2.352 . S
Cd4 O12 2.277 . S
Cd4 O13 2.356 . S
C5 O10 1.209 . S
C5 O12 1.226 . S
O6 Cd2 2.273 . S
O6 Cd4 2.411 . S
O6 C9 1.320 . S
O7 Cd4 2.333 . S
O7 C9 1.214 . S
O8 Cd4 2.352 . S
O8 C11 1.258 . S
C9 O6 1.320 . S
C9 O7 1.214 . S
O10 Cd2 2.277 . S
O10 C5 1.209 . S
C11 O8 1.258 . S
C11 O13 1.282 . S
O12 Cd4 2.277 . S
O12 C5 1.226 . S
O13 Cd4 2.356 . S
O13 C11 1.282 . S
C14 O15 1.306 . S
C14 O17 1.160 . S
O15 C14 1.306 . S
O15 Cd16 2.228 . S
Cd16 O15 2.228 . S
Cd16 O20 2.273 . S
Cd16 O24 2.277 . S
O17 C14 1.160 . S
O17 Cd18 2.203 . S
Cd18 O17 2.203 . S
Cd18 O20 2.411 . S
Cd18 O21 2.333 . S
Cd18 O22 2.352 . S
Cd18 O26 2.277 . S
Cd18 O27 2.356 . S
C19 O24 1.209 . S
C19 O26 1.226 . S
O20 Cd16 2.273 . S
O20 Cd18 2.411 . S
O20 C23 1.320 . S
O21 Cd18 2.333 . S
O21 C23 1.214 . S
O22 Cd18 2.352 . S
O22 C25 1.258 . S
C23 O20 1.320 . S
C23 O21 1.214 . S
O24 Cd16 2.277 . S
O24 C19 1.209 . S
C25 O22 1.258 . S
C25 O27 1.282 . S
O26 Cd18 2.277 . S
O26 C19 1.226 . S
O27 Cd18 2.356 . S
O27 C25 1.282 . S
C28 O29 1.306 . S
C28 O31 1.160 . S
O29 C28 1.306 . S
O29 Cd30 2.228 . S
Cd30 O29 2.228 . S
Cd30 O34 2.273 . S
Cd30 O38 2.277 . S
O31 C28 1.160 . S
O31 Cd32 2.203 . S
Cd32 O31 2.203 . S
Cd32 O34 2.411 . S
Cd32 O35 2.333 . S
Cd32 O36 2.352 . S
Cd32 O40 2.277 . S
Cd32 O41 2.356 . S
C33 O38 1.209 . S
C33 O40 1.226 . S
O34 Cd30 2.273 . S
O34 Cd32 2.411 . S
O34 C37 1.320 . S
O35 Cd32 2.333 . S
O35 C37 1.214 . S
O36 Cd32 2.352 . S
O36 C39 1.258 . S
C37 O34 1.320 . S
C37 O35 1.214 . S
O38 Cd30 2.277 . S
O38 C33 1.209 . S
C39 O36 1.258 . S
C39 O41 1.282 . S
O40 Cd32 2.277 . S
O40 C33 1.226 . S
O41 Cd32 2.356 . S
O41 C39 1.282 . S
C42 O43 1.306 . S
C42 O45 1.160 . S
O43 C42 1.306 . S
O43 Cd44 2.228 . S
Cd44 O43 2.228 . S
Cd44 O48 2.273 . S
Cd44 O52 2.277 . S
O45 C42 1.160 . S
O45 Cd46 2.203 . S
Cd46 O45 2.203 . S
Cd46 O48 2.411 . S
Cd46 O49 2.333 . S
Cd46 O50 2.352 . S
Cd46 O54 2.277 . S
Cd46 O55 2.356 . S
C47 O52 1.209 . S
C47 O54 1.226 . S
O48 Cd44 2.273 . S
O48 Cd46 2.411 . S
O48 C51 1.320 . S
O49 Cd46 2.333 . S
O49 C51 1.214 . S
O50 Cd46 2.352 . S
O50 C53 1.258 . S
C51 O48 1.320 . S
C51 O49 1.214 . S
O52 Cd44 2.277 . S
O52 C47 1.209 . S
C53 O50 1.258 . S
C53 O55 1.282 . S
O54 Cd46 2.277 . S
O54 C47 1.226 . S
O55 Cd46 2.356 . S
O55 C53 1.282 . S
C56 C57 1.363 1_545 S
C56 C62 1.379 . S
C56 N64 1.356 . S
C57 C56 1.363 1_565 S
C57 C63 1.363 . S
C58 C59 1.363 1_565 S
C58 C63 1.379 . S
C58 N65 1.356 . S
C59 C58 1.363 1_545 S
C59 C62 1.363 . S
N60 C62 1.356 . S
N60 H72 0.984 . S
N60 H73 0.985 . S
N61 C63 1.356 . S
N61 H66 0.984 . S
N61 H67 0.985 . S
C62 C56 1.379 . S
C62 C59 1.363 . S
C62 N60 1.356 . S
C63 C57 1.363 . S
C63 C58 1.379 . S
C63 N61 1.356 . S
N64 C56 1.356 . S
N64 H70 0.984 . S
N64 H71 0.984 1_545 S
N65 C58 1.356 . S
N65 H68 0.984 1_565 S
N65 H69 0.985 . S
H66 N61 0.984 . S
H67 N61 0.985 . S
H68 N65 0.984 1_545 S
H69 N65 0.985 . S
H70 N64 0.984 . S
H71 N64 0.984 1_565 S
H72 N60 0.984 . S
H73 N60 0.985 . S
C74 C75 1.363 . S
C74 C80 1.379 . S
C74 N82 1.356 . S
C75 C74 1.363 . S
C75 C81 1.363 . S
C76 C77 1.363 . S
C76 C81 1.379 . S
C76 N83 1.356 . S
C77 C76 1.363 . S
C77 C80 1.363 . S
N78 C80 1.356 . S
N78 H90 0.984 1_554 S
N78 H91 0.985 . S
N79 C81 1.356 . S
N79 H84 0.984 . S
N79 H85 0.985 . S
C80 C74 1.379 . S
C80 C77 1.363 . S
C80 N78 1.356 . S
C81 C75 1.363 . S
C81 C76 1.379 . S
C81 N79 1.356 . S
N82 C74 1.356 . S
N82 H88 0.984 1_554 S
N82 H89 0.984 . S
N83 C76 1.356 . S
N83 H86 0.984 . S
N83 H87 0.985 . S
H84 N79 0.984 . S
H85 N79 0.985 . S
H86 N83 0.984 . S
H87 N83 0.985 . S
H88 N82 0.984 1_556 S
H89 N82 0.984 . S
H90 N78 0.984 1_556 S
H91 N78 0.985 . S
C92 C93 1.363 1_565 S
C92 C98 1.379 . S
C92 N100 1.356 1_565 S
C93 C92 1.363 1_545 S
C93 C99 1.363 . S
C94 C95 1.363 1_545 S
C94 C99 1.379 . S
C94 N101 1.356 . S
C95 C94 1.363 1_565 S
C95 C98 1.363 . S
N96 C98 1.356 . S
N96 H108 0.984 . S
N96 H109 0.985 . S
N97 C99 1.356 . S
N97 H102 0.984 . S
N97 H103 0.985 . S
C98 C92 1.379 . S
C98 C95 1.363 . S
C98 N96 1.356 . S
C99 C93 1.363 . S
C99 C94 1.379 . S
C99 N97 1.356 . S
N100 C92 1.356 1_545 S
N100 H106 0.984 1_545 S
N100 H107 0.984 . S
N101 C94 1.356 . S
N101 H104 0.984 1_545 S
N101 H105 0.985 . S
H102 N97 0.984 . S
H103 N97 0.985 . S
H104 N101 0.984 1_565 S
H105 N101 0.985 . S
H106 N100 0.984 1_565 S
H107 N100 0.984 . S
H108 N96 0.984 . S
H109 N96 0.985 . S
C110 C111 1.363 . S
C110 C116 1.379 . S
C110 N118 1.356 . S
C111 C110 1.363 . S
C111 C117 1.363 . S
C112 C113 1.363 . S
C112 C117 1.379 . S
C112 N119 1.356 . S
C113 C112 1.363 . S
C113 C116 1.363 . S
N114 C116 1.356 . S
N114 H126 0.984 . S
N114 H127 0.985 . S
N115 C117 1.356 . S
N115 H120 0.984 . S
N115 H121 0.985 1_556 S
C116 C110 1.379 . S
C116 C113 1.363 . S
C116 N114 1.356 . S
C117 C111 1.363 . S
C117 C112 1.379 . S
C117 N115 1.356 . S
N118 C110 1.356 . S
N118 H124 0.984 . S
N118 H125 0.984 . S
N119 C112 1.356 . S
N119 H122 0.984 . S
N119 H123 0.985 1_556 S
H120 N115 0.984 . S
H121 N115 0.985 1_554 S
H122 N119 0.984 . S
H123 N119 0.985 1_554 S
H124 N118 0.984 . S
H125 N118 0.984 . S
H126 N114 0.984 . S
H127 N114 0.985 . S
C128 C129 1.363 1_556 S
C128 C134 1.379 1_445 S
C128 N136 1.356 . S
C129 C128 1.363 1_554 S
C129 C135 1.363 . S
C130 C131 1.363 1_554 S
C130 C135 1.379 1_665 S
C130 N137 1.356 . S
C131 C130 1.363 1_556 S
C131 C134 1.363 . S
N132 C134 1.356 . S
N132 H144 0.984 . S
N132 H145 0.985 . S
N133 C135 1.356 . S
N133 H138 0.984 . S
N133 H139 0.985 . S
C134 C128 1.379 1_665 S
C134 C131 1.363 . S
C134 N132 1.356 . S
C135 C129 1.363 . S
C135 C130 1.379 1_445 S
C135 N133 1.356 . S
N136 C128 1.356 . S
N136 H142 0.984 . S
N136 H143 0.984 . S
N137 C130 1.356 . S
N137 H140 0.984 . S
N137 H141 0.985 . S
H138 N133 0.984 . S
H139 N133 0.985 . S
H140 N137 0.984 . S
H141 N137 0.985 . S
H142 N136 0.984 . S
H143 N136 0.984 . S
H144 N132 0.984 . S
H145 N132 0.985 . S
C146 C147 1.363 . S
C146 C152 1.379 1_545 S
C146 N154 1.356 . S
C147 C146 1.363 . S
C147 C153 1.363 1_556 S
C148 C149 1.363 . S
C148 C153 1.379 1_565 S
C148 N155 1.356 . S
C149 C148 1.363 . S
C149 C152 1.363 1_554 S
N150 C152 1.356 . S
N150 H162 0.984 . S
N150 H163 0.985 . S
N151 C153 1.356 . S
N151 H156 0.984 . S
N151 H157 0.985 . S
C152 C146 1.379 1_565 S
C152 C149 1.363 1_556 S
C152 N150 1.356 . S
C153 C147 1.363 1_554 S
C153 C148 1.379 1_545 S
C153 N151 1.356 . S
N154 C146 1.356 . S
N154 H160 0.984 . S
N154 H161 0.984 . S
N155 C148 1.356 . S
N155 H158 0.984 . S
N155 H159 0.985 . S
H156 N151 0.984 . S
H157 N151 0.985 . S
H158 N155 0.984 . S
H159 N155 0.985 . S
H160 N154 0.984 . S
H161 N154 0.984 . S
H162 N150 0.984 . S
H163 N150 0.985 . S
C164 C165 1.363 1_455 S
C164 C170 1.379 . S
C164 N172 1.356 . S
C165 C164 1.363 1_655 S
C165 C171 1.363 . S
C166 C167 1.363 1_655 S
C166 C171 1.379 . S
C166 N173 1.356 . S
C167 C166 1.363 1_455 S
C167 C170 1.363 . S
N168 C170 1.356 . S
N168 H180 0.984 . S
N168 H181 0.985 . S
N169 C171 1.356 . S
N169 H174 0.984 . S
N169 H175 0.985 . S
C170 C164 1.379 . S
C170 C167 1.363 . S
C170 N168 1.356 . S
C171 C165 1.363 . S
C171 C166 1.379 . S
C171 N169 1.356 . S
N172 C164 1.356 . S
N172 H178 0.984 . S
N172 H179 0.984 1_455 S
N173 C166 1.356 . S
N173 H176 0.984 1_655 S
N173 H177 0.985 . S
H174 N169 0.984 . S
H175 N169 0.985 . S
H176 N173 0.984 1_455 S
H177 N173 0.985 . S
H178 N172 0.984 . S
H179 N172 0.984 1_655 S
H180 N168 0.984 . S
H181 N168 0.985 . S
C182 C183 1.363 . S
C182 C188 1.379 . S
C182 N190 1.356 . S
C183 C182 1.363 . S
C183 C189 1.363 . S
C184 C185 1.363 . S
C184 C189 1.379 . S
C184 N191 1.356 . S
C185 C184 1.363 . S
C185 C188 1.363 . S
N186 C188 1.356 . S
N186 H198 0.984 . S
N186 H199 0.985 . S
N187 C189 1.356 . S
N187 H192 0.984 . S
N187 H193 0.985 . S
C188 C182 1.379 . S
C188 C185 1.363 . S
C188 N186 1.356 . S
C189 C183 1.363 . S
C189 C184 1.379 . S
C189 N187 1.356 . S
N190 C182 1.356 . S
N190 H196 0.984 . S
N190 H197 0.984 . S
N191 C184 1.356 . S
N191 H194 0.984 . S
N191 H195 0.985 . S
H192 N187 0.984 . S
H193 N187 0.985 . S
H194 N191 0.984 . S
H195 N191 0.985 . S
H196 N190 0.984 . S
H197 N190 0.984 . S
H198 N186 0.984 . S
H199 N186 0.985 . S
C57 C23 1.195 . S
C59 C5 1.191 . S
C75 C9 1.195 . S
C77 C19 1.191 . S
C93 C51 1.195 . S
C95 C33 1.191 . S
C111 C37 1.195 . S
C113 C47 1.191 . S
C129 C0 1.551 . S
C131 C28 1.551 . S
C147 C53 1.576 . S
C149 C25 1.576 . S
C165 C39 1.576 . S
C167 C11 1.576 . S
C183 C14 1.551 . S
C185 C42 1.551 . S
