# Generated by pormake.
# Topology uof, (4)-cn, num edge types: 1
# Building blocks:
#     Node 0, Type 0, BuildingBlock: CEKHIL_clean_sbu_0, # of connection points: 4
#     Node 1, Type 0, BuildingBlock: CEKHIL_clean_sbu_0, # of connection points: 4
#     Node 2, Type 0, BuildingBlock: CEKHIL_clean_sbu_0, # of connection points: 4
#     Node 3, Type 0, BuildingBlock: CEKHIL_clean_sbu_0, # of connection points: 4
#     Node 4, Type 0, BuildingBlock: CEKHIL_clean_sbu_0, # of connection points: 4
#     Node 5, Type 0, BuildingBlock: CEKHIL_clean_sbu_0, # of connection points: 4
#     Node 6, Type 0, BuildingBlock: CEKHIL_clean_sbu_0, # of connection points: 4
#     Node 7, Type 0, BuildingBlock: CEKHIL_clean_sbu_0, # of connection points: 4
#     Node 8, Type 0, BuildingBlock: CEKHIL_clean_sbu_0, # of connection points: 4
#     Node 9, Type 0, BuildingBlock: CEKHIL_clean_sbu_0, # of connection points: 4
#     Node 10, Type 0, BuildingBlock: CEKHIL_clean_sbu_0, # of connection points: 4
#     Node 11, Type 0, BuildingBlock: CEKHIL_clean_sbu_0, # of connection points: 4
#     Edge 12, Type (0, 0), None
#     Edge 13, Type (0, 0), None
#     Edge 14, Type (0, 0), None
#     Edge 15, Type (0, 0), None
#     Edge 16, Type (0, 0), None
#     Edge 17, Type (0, 0), None
#     Edge 18, Type (0, 0), None
#     Edge 19, Type (0, 0), None
#     Edge 20, Type (0, 0), None
#     Edge 21, Type (0, 0), None
#     Edge 22, Type (0, 0), None
#     Edge 23, Type (0, 0), None
#     Edge 24, Type (0, 0), None
#     Edge 25, Type (0, 0), None
#     Edge 26, Type (0, 0), None
#     Edge 27, Type (0, 0), None
#     Edge 28, Type (0, 0), None
#     Edge 29, Type (0, 0), None
#     Edge 30, Type (0, 0), None
#     Edge 31, Type (0, 0), None
#     Edge 32, Type (0, 0), None
#     Edge 33, Type (0, 0), None
#     Edge 34, Type (0, 0), None
#     Edge 35, Type (0, 0), None
# Relax obj value: 0.174
# Max RMSD: 0.137
# Mean RMSD: 0.137
data_MOF--net-uof--node1-CEKHIL_clean_sbu_0--edge1-none
_symmetry_space_group_name_H-M    P1
_symmetry_Int_Tables_number       1
_symmetry_cell_setting            triclinic
loop_
_symmetry_equiv_pos_as_xyz
'x, y, z'
_cell_length_a     13.39733
_cell_length_b     13.395301
_cell_length_c     29.646296
_cell_angle_alpha  89.999359
_cell_angle_beta   90.000311
_cell_angle_gamma 119.99633
loop_
_atom_site_label
_atom_site_type_symbol
_atom_site_fract_x
_atom_site_fract_y
_atom_site_fract_z
_atom_type_partial_charge
Co0 Co 0.2799 0.30627 0.19853 0.0
O1 O 0.14093 0.17814 0.17019 0.0
O2 O 0.19738 0.35668 0.15481 0.0
C3 C 0.24699 0.2357 0.26999 0.0
O4 O 0.42689 0.45853 0.21963 0.0
Co5 Co 0.4629 0.25252 0.24671 0.0
O6 O 0.56609 0.4204 0.24368 0.0
C7 C 0.4346 0.25258 0.14866 0.0
C8 C 0.12348 0.24865 0.14624 0.0
C9 C 0.53308 0.49035 0.23162 0.0
O10 O 0.37603 0.30353 0.15012 0.0
O11 O 0.45797 0.20868 0.18245 0.0
O12 O 0.19721 0.29171 0.25517 0.0
O13 O 0.30471 0.21588 0.24071 0.0
Co14 Co 1.02581 0.25392 0.53186 0.0
O15 O 1.01498 0.11494 0.50352 0.0
O16 O 0.89289 0.17139 0.48816 0.0
C17 C 1.06348 0.22099 0.60332 0.0
O18 O 1.02051 0.4009 0.55298 0.0
Co19 Co 0.26253 0.43696 0.58005 0.0
O20 O 0.19781 0.54013 0.57703 0.0
C21 C 0.23417 0.40867 0.482 0.0
C22 C 0.92702 0.09749 0.47957 0.0
C23 C 0.09486 0.5071 0.56498 0.0
O24 O 0.12466 0.35008 0.48346 0.0
O25 O 0.30143 0.43205 0.51578 0.0
O26 O 0.95769 0.17119 0.5885 0.0
O27 O 0.141 0.27874 0.57404 0.0
Co28 Co 0.82399 0.99984 0.8652 0.0
O29 O 0.95212 0.98902 0.83685 0.0
O30 O 0.77361 0.8669 0.82149 0.0
C31 C 0.89458 1.03753 0.93666 0.0
O32 O 0.67173 0.99453 0.88631 0.0
Co33 Co 0.87766 0.2366 0.91337 0.0
O34 O 0.70979 0.17186 0.91035 0.0
C35 C 0.87764 0.20822 0.81533 0.0
C36 C 0.88163 0.90104 0.81291 0.0
C37 C 0.63988 0.06889 0.89831 0.0
O38 O 0.82667 0.09869 0.81679 0.0
O39 O 0.92154 0.27549 0.84911 0.0
O40 O 0.83861 0.93172 0.92184 0.0
O41 O 0.91435 0.11506 0.90737 0.0
Co42 Co 0.87631 0.79798 0.19853 0.0
O43 O 1.01529 0.92611 0.17019 0.0
O44 O 0.95883 0.74757 0.15482 0.0
C45 C 0.90922 0.86856 0.26999 0.0
O46 O 0.72932 0.64572 0.21963 0.0
Co47 Co 0.69331 0.85173 0.24671 0.0
O48 O 0.59012 0.68385 0.24368 0.0
C49 C 0.72161 0.85168 0.14866 0.0
C50 C 1.03273 0.8556 0.14624 0.0
C51 C 0.62313 0.6139 0.23162 0.0
O52 O 0.78019 0.80073 0.15012 0.0
O53 O 0.69824 0.89557 0.18245 0.0
O54 O 0.959 0.81254 0.25517 0.0
O55 O 0.8515 0.88837 0.24071 0.0
Co56 Co 0.1304 0.85034 0.53187 0.0
O57 O 0.14124 0.98932 0.50352 0.0
O58 O 0.26332 0.93286 0.48816 0.0
C59 C 0.09273 0.88326 0.60333 0.0
O60 O 0.1357 0.70336 0.55298 0.0
Co61 Co 0.89369 0.66729 0.58005 0.0
O62 O 0.9584 0.56412 0.57703 0.0
C63 C 0.92204 0.69558 0.482 0.0
C64 C 0.22919 1.00676 0.47957 0.0
C65 C 1.06135 0.59715 0.56498 0.0
O66 O 1.03155 0.75418 0.48346 0.0
O67 O 0.85478 0.6722 0.51578 0.0
O68 O 0.19852 0.93306 0.5885 0.0
O69 O 1.01521 0.82552 0.57404 0.0
Co70 Co 0.33222 0.10441 0.8652 0.0
O71 O 0.20409 0.11523 0.83685 0.0
O72 O 0.3826 0.23735 0.82149 0.0
C73 C 0.26163 0.06672 0.93666 0.0
O74 O 0.48448 0.10972 0.88631 0.0
Co75 Co 0.27856 0.86765 0.91337 0.0
O76 O 0.44642 0.93239 0.91035 0.0
C77 C 0.27857 0.89603 0.81533 0.0
C78 C 0.27458 0.2032 0.81291 0.0
C79 C 0.51633 1.03536 0.89831 0.0
O80 O 0.32954 1.00555 0.81679 0.0
O81 O 0.23467 0.82875 0.84911 0.0
O82 O 0.31761 0.17252 0.92184 0.0
O83 O 0.24186 0.98919 0.90738 0.0
Co84 Co 0.82398 0.85021 0.38945 0.0
O85 O 0.95211 0.9891 0.41784 0.0
O86 O 0.77358 0.93279 0.43314 0.0
C87 C 0.89462 0.88307 0.31802 0.0
O88 O 0.67174 0.70334 0.36829 0.0
Co89 Co 0.87767 0.66706 0.34132 0.0
O90 O 0.70978 0.56402 0.34429 0.0
C91 C 0.87736 0.69534 0.43935 0.0
C92 C 0.88159 1.00659 0.44177 0.0
C93 C 0.63988 0.59712 0.3563 0.0
O94 O 0.82644 0.75394 0.43786 0.0
O95 O 0.92155 0.6722 0.4056 0.0
O96 O 0.83875 0.93302 0.33282 0.0
O97 O 0.91437 0.8253 0.3473 0.0
Co98 Co 1.02587 0.79801 0.72279 0.0
O99 O 1.01509 0.92615 0.75118 0.0
O100 O 0.8929 0.74759 0.76648 0.0
C101 C 1.06363 0.86866 0.65135 0.0
O102 O 1.02052 0.64576 0.70163 0.0
Co103 Co 0.26268 0.85174 0.67465 0.0
O104 O 0.19785 0.68383 0.67762 0.0
C105 C 0.2341 0.85137 0.77267 0.0
C106 C 0.9271 0.85562 0.7751 0.0
C107 C 0.09487 0.6139 0.68963 0.0
O108 O 0.1246 0.8005 0.7712 0.0
O109 O 0.30143 0.89555 0.73893 0.0
O110 O 0.95782 0.81276 0.66616 0.0
O111 O 0.14114 0.88842 0.68064 0.0
Co112 Co 0.27999 0.99985 0.05612 0.0
O113 O 0.14109 0.98906 0.08451 0.0
O114 O 0.19745 0.86686 0.09981 0.0
C115 C 0.24713 1.03761 -0.01532 0.0
O116 O 0.4269 0.99451 0.03497 0.0
Co117 Co 0.46306 0.2367 0.00799 0.0
O118 O 0.56614 0.17188 0.01097 0.0
C119 C 0.43482 0.20812 0.10601 0.0
C120 C 0.12363 0.90107 0.10843 0.0
C121 C 0.53309 0.06889 0.02298 0.0
O122 O 0.37622 0.0986 0.10453 0.0
O123 O 0.45796 0.27545 0.07226 0.0
O124 O 0.19723 0.93179 -0.00051 0.0
O125 O 0.30486 0.11513 0.01397 0.0
Co126 Co 0.33223 0.25404 0.38945 0.0
O127 O 0.2041 0.11515 0.41784 0.0
O128 O 0.38263 0.17146 0.43314 0.0
C129 C 0.26159 0.22118 0.31801 0.0
O130 O 0.48447 0.40091 0.36829 0.0
Co131 Co 0.27854 0.4372 0.34132 0.0
O132 O 0.44643 0.54023 0.34429 0.0
C133 C 0.27885 0.40892 0.43934 0.0
C134 C 0.27462 0.09766 0.44177 0.0
C135 C 0.51633 0.50713 0.3563 0.0
O136 O 0.32977 0.35032 0.43786 0.0
O137 O 0.23466 0.43205 0.4056 0.0
O138 O 0.31746 0.17124 0.33282 0.0
O139 O 0.24184 0.27895 0.3473 0.0
Co140 Co 0.13035 0.30624 0.72279 0.0
O141 O 0.14112 0.1781 0.75118 0.0
O142 O 0.26331 0.35666 0.76647 0.0
C143 C 0.09259 0.23559 0.65135 0.0
O144 O 0.13569 0.45849 0.70163 0.0
Co145 Co 0.89353 0.25251 0.67464 0.0
O146 O 0.95836 0.42042 0.67762 0.0
C147 C 0.92211 0.25288 0.77267 0.0
C148 C 0.22911 0.24863 0.7751 0.0
C149 C 1.06134 0.49035 0.68963 0.0
O150 O 1.03161 0.30374 0.77119 0.0
O151 O 0.85478 0.2087 0.73893 0.0
O152 O 0.19839 0.29149 0.66616 0.0
O153 O 1.01507 0.21583 0.68063 0.0
Co154 Co 0.87622 0.10441 0.05612 0.0
O155 O 1.01513 0.11519 0.08451 0.0
O156 O 0.95877 0.23739 0.09981 0.0
C157 C 0.90908 0.06664 -0.01532 0.0
O158 O 0.72931 0.10974 0.03497 0.0
Co159 Co 0.69315 0.86755 0.00799 0.0
O160 O 0.59007 0.93237 0.01097 0.0
C161 C 0.72139 0.89614 0.10601 0.0
C162 C 1.03259 0.20318 0.10843 0.0
C163 C 0.62312 1.03536 0.02298 0.0
O164 O 0.78 1.00565 0.10453 0.0
O165 O 0.69825 0.8288 0.07226 0.0
O166 O 0.95899 0.17246 -0.00051 0.0
O167 O 0.85135 0.98912 0.01397 0.0
loop_
_geom_bond_atom_site_label_1
_geom_bond_atom_site_label_2
_geom_bond_distance
_geom_bond_site_symmetry_2
_ccdc_geom_bond_type
Co0 O1 2.216 . S
Co0 O2 2.091 . S
Co0 O4 2.004 . S
Co0 O10 2.021 . S
Co0 O12 2.137 . S
Co0 O13 2.244 . S
O1 Co0 2.216 . S
O1 C8 1.247 . S
O2 Co0 2.091 . S
O2 C8 1.261 . S
C3 O12 1.247 . S
C3 O13 1.272 . S
O4 Co0 2.004 . S
O4 C9 1.259 . S
Co5 O6 2.061 . S
Co5 O11 2.052 . S
Co5 O13 2.135 . S
O6 Co5 2.061 . S
O6 C9 1.235 . S
C7 O10 1.238 . S
C7 O11 1.241 . S
C8 O1 1.247 . S
C8 O2 1.261 . S
C9 O4 1.259 . S
C9 O6 1.235 . S
O10 Co0 2.021 . S
O10 C7 1.238 . S
O11 Co5 2.052 . S
O11 C7 1.241 . S
O12 Co0 2.137 . S
O12 C3 1.247 . S
O13 Co0 2.244 . S
O13 C3 1.272 . S
O13 Co5 2.135 . S
Co14 O15 2.216 . S
Co14 O16 2.091 . S
Co14 O18 2.004 . S
Co14 O24 2.021 1_655 S
Co14 O26 2.137 . S
Co14 O27 2.244 1_655 S
O15 Co14 2.216 . S
O15 C22 1.247 . S
O16 Co14 2.091 . S
O16 C22 1.261 . S
C17 O26 1.247 . S
C17 O27 1.272 1_655 S
O18 Co14 2.004 . S
O18 C23 1.259 . S
Co19 O20 2.061 . S
Co19 O25 2.052 . S
Co19 O27 2.135 . S
O20 Co19 2.061 . S
O20 C23 1.235 1_455 S
C21 O24 1.238 . S
C21 O25 1.241 . S
C22 O15 1.247 . S
C22 O16 1.261 . S
C23 O18 1.259 . S
C23 O20 1.235 1_655 S
O24 Co14 2.021 1_455 S
O24 C21 1.238 . S
O25 Co19 2.052 . S
O25 C21 1.241 . S
O26 Co14 2.137 . S
O26 C17 1.247 . S
O27 Co14 2.244 1_455 S
O27 C17 1.272 1_455 S
O27 Co19 2.135 . S
Co28 O29 2.216 . S
Co28 O30 2.091 . S
Co28 O32 2.004 . S
Co28 O38 2.021 1_565 S
Co28 O40 2.137 . S
Co28 O41 2.244 1_565 S
O29 Co28 2.216 . S
O29 C36 1.247 . S
O30 Co28 2.091 . S
O30 C36 1.261 . S
C31 O40 1.247 . S
C31 O41 1.272 1_565 S
O32 Co28 2.004 . S
O32 C37 1.259 . S
Co33 O34 2.061 . S
Co33 O39 2.052 . S
Co33 O41 2.135 . S
O34 Co33 2.061 . S
O34 C37 1.235 1_545 S
C35 O38 1.238 . S
C35 O39 1.241 . S
C36 O29 1.247 . S
C36 O30 1.261 . S
C37 O32 1.259 . S
C37 O34 1.235 1_565 S
O38 Co28 2.021 1_545 S
O38 C35 1.238 . S
O39 Co33 2.052 . S
O39 C35 1.241 . S
O40 Co28 2.137 . S
O40 C31 1.247 . S
O41 Co28 2.244 1_545 S
O41 C31 1.272 1_545 S
O41 Co33 2.135 . S
Co42 O43 2.216 . S
Co42 O44 2.091 . S
Co42 O46 2.004 . S
Co42 O52 2.021 . S
Co42 O54 2.137 . S
Co42 O55 2.244 . S
O43 Co42 2.216 . S
O43 C50 1.247 . S
O44 Co42 2.091 . S
O44 C50 1.261 . S
C45 O54 1.247 . S
C45 O55 1.272 . S
O46 Co42 2.004 . S
O46 C51 1.259 . S
Co47 O48 2.061 . S
Co47 O53 2.052 . S
Co47 O55 2.135 . S
O48 Co47 2.061 . S
O48 C51 1.235 . S
C49 O52 1.238 . S
C49 O53 1.241 . S
C50 O43 1.247 . S
C50 O44 1.261 . S
C51 O46 1.259 . S
C51 O48 1.235 . S
O52 Co42 2.021 . S
O52 C49 1.238 . S
O53 Co47 2.052 . S
O53 C49 1.241 . S
O54 Co42 2.137 . S
O54 C45 1.247 . S
O55 Co42 2.244 . S
O55 C45 1.272 . S
O55 Co47 2.135 . S
Co56 O57 2.216 . S
Co56 O58 2.091 . S
Co56 O60 2.004 . S
Co56 O66 2.021 1_455 S
Co56 O68 2.137 . S
Co56 O69 2.244 1_455 S
O57 Co56 2.216 . S
O57 C64 1.247 . S
O58 Co56 2.091 . S
O58 C64 1.261 . S
C59 O68 1.247 . S
C59 O69 1.272 1_455 S
O60 Co56 2.004 . S
O60 C65 1.259 . S
Co61 O62 2.061 . S
Co61 O67 2.052 . S
Co61 O69 2.135 . S
O62 Co61 2.061 . S
O62 C65 1.235 1_655 S
C63 O66 1.238 . S
C63 O67 1.241 . S
C64 O57 1.247 . S
C64 O58 1.261 . S
C65 O60 1.259 . S
C65 O62 1.235 1_455 S
O66 Co56 2.021 1_655 S
O66 C63 1.238 . S
O67 Co61 2.052 . S
O67 C63 1.241 . S
O68 Co56 2.137 . S
O68 C59 1.247 . S
O69 Co56 2.244 1_655 S
O69 C59 1.272 1_655 S
O69 Co61 2.135 . S
Co70 O71 2.216 . S
Co70 O72 2.091 . S
Co70 O74 2.004 . S
Co70 O80 2.021 1_545 S
Co70 O82 2.137 . S
Co70 O83 2.244 1_545 S
O71 Co70 2.216 . S
O71 C78 1.247 . S
O72 Co70 2.091 . S
O72 C78 1.261 . S
C73 O82 1.247 . S
C73 O83 1.272 1_545 S
O74 Co70 2.004 . S
O74 C79 1.259 . S
Co75 O76 2.061 . S
Co75 O81 2.052 . S
Co75 O83 2.135 . S
O76 Co75 2.061 . S
O76 C79 1.235 1_565 S
C77 O80 1.238 . S
C77 O81 1.241 . S
C78 O71 1.247 . S
C78 O72 1.261 . S
C79 O74 1.259 . S
C79 O76 1.235 1_545 S
O80 Co70 2.021 1_565 S
O80 C77 1.238 . S
O81 Co75 2.052 . S
O81 C77 1.241 . S
O82 Co70 2.137 . S
O82 C73 1.247 . S
O83 Co70 2.244 1_565 S
O83 C73 1.272 1_565 S
O83 Co75 2.135 . S
Co84 O85 2.216 . S
Co84 O86 2.091 . S
Co84 O88 2.004 . S
Co84 O94 2.021 . S
Co84 O96 2.137 . S
Co84 O97 2.244 . S
O85 Co84 2.216 . S
O85 C92 1.247 . S
O86 Co84 2.091 . S
O86 C92 1.261 . S
C87 O96 1.247 . S
C87 O97 1.272 . S
O88 Co84 2.004 . S
O88 C93 1.259 . S
Co89 O90 2.061 . S
Co89 O95 2.052 . S
Co89 O97 2.135 . S
O90 Co89 2.061 . S
O90 C93 1.235 . S
C91 O94 1.238 . S
C91 O95 1.241 . S
C92 O85 1.247 . S
C92 O86 1.261 . S
C93 O88 1.259 . S
C93 O90 1.235 . S
O94 Co84 2.021 . S
O94 C91 1.238 . S
O95 Co89 2.052 . S
O95 C91 1.241 . S
O96 Co84 2.137 . S
O96 C87 1.247 . S
O97 Co84 2.244 . S
O97 C87 1.272 . S
O97 Co89 2.135 . S
Co98 O99 2.216 . S
Co98 O100 2.091 . S
Co98 O102 2.004 . S
Co98 O108 2.021 1_655 S
Co98 O110 2.137 . S
Co98 O111 2.244 1_655 S
O99 Co98 2.216 . S
O99 C106 1.247 . S
O100 Co98 2.091 . S
O100 C106 1.261 . S
C101 O110 1.247 . S
C101 O111 1.272 1_655 S
O102 Co98 2.004 . S
O102 C107 1.259 . S
Co103 O104 2.061 . S
Co103 O109 2.052 . S
Co103 O111 2.135 . S
O104 Co103 2.061 . S
O104 C107 1.235 1_455 S
C105 O108 1.238 . S
C105 O109 1.241 . S
C106 O99 1.247 . S
C106 O100 1.261 . S
C107 O102 1.259 . S
C107 O104 1.235 1_655 S
O108 Co98 2.021 1_455 S
O108 C105 1.238 . S
O109 Co103 2.052 . S
O109 C105 1.241 . S
O110 Co98 2.137 . S
O110 C101 1.247 . S
O111 Co98 2.244 1_455 S
O111 C101 1.272 1_455 S
O111 Co103 2.135 . S
Co112 O113 2.216 . S
Co112 O114 2.091 . S
Co112 O116 2.004 . S
Co112 O122 2.021 1_565 S
Co112 O124 2.137 . S
Co112 O125 2.244 1_565 S
O113 Co112 2.216 . S
O113 C120 1.247 . S
O114 Co112 2.091 . S
O114 C120 1.261 . S
C115 O124 1.247 . S
C115 O125 1.272 1_565 S
O116 Co112 2.004 . S
O116 C121 1.259 . S
Co117 O118 2.061 . S
Co117 O123 2.052 . S
Co117 O125 2.135 . S
O118 Co117 2.061 . S
O118 C121 1.235 1_545 S
C119 O122 1.238 . S
C119 O123 1.241 . S
C120 O113 1.247 . S
C120 O114 1.261 . S
C121 O116 1.259 . S
C121 O118 1.235 1_565 S
O122 Co112 2.021 1_545 S
O122 C119 1.238 . S
O123 Co117 2.052 . S
O123 C119 1.241 . S
O124 Co112 2.137 . S
O124 C115 1.247 . S
O125 Co112 2.244 1_545 S
O125 C115 1.272 1_545 S
O125 Co117 2.135 . S
Co126 O127 2.216 . S
Co126 O128 2.091 . S
Co126 O130 2.004 . S
Co126 O136 2.021 . S
Co126 O138 2.137 . S
Co126 O139 2.244 . S
O127 Co126 2.216 . S
O127 C134 1.247 . S
O128 Co126 2.091 . S
O128 C134 1.261 . S
C129 O138 1.247 . S
C129 O139 1.272 . S
O130 Co126 2.004 . S
O130 C135 1.259 . S
Co131 O132 2.061 . S
Co131 O137 2.052 . S
Co131 O139 2.135 . S
O132 Co131 2.061 . S
O132 C135 1.235 . S
C133 O136 1.238 . S
C133 O137 1.241 . S
C134 O127 1.247 . S
C134 O128 1.261 . S
C135 O130 1.259 . S
C135 O132 1.235 . S
O136 Co126 2.021 . S
O136 C133 1.238 . S
O137 Co131 2.052 . S
O137 C133 1.241 . S
O138 Co126 2.137 . S
O138 C129 1.247 . S
O139 Co126 2.244 . S
O139 C129 1.272 . S
O139 Co131 2.135 . S
Co140 O141 2.216 . S
Co140 O142 2.091 . S
Co140 O144 2.004 . S
Co140 O150 2.021 1_455 S
Co140 O152 2.137 . S
Co140 O153 2.244 1_455 S
O141 Co140 2.216 . S
O141 C148 1.247 . S
O142 Co140 2.091 . S
O142 C148 1.261 . S
C143 O152 1.247 . S
C143 O153 1.272 1_455 S
O144 Co140 2.004 . S
O144 C149 1.259 . S
Co145 O146 2.061 . S
Co145 O151 2.052 . S
Co145 O153 2.135 . S
O146 Co145 2.061 . S
O146 C149 1.235 1_655 S
C147 O150 1.238 . S
C147 O151 1.241 . S
C148 O141 1.247 . S
C148 O142 1.261 . S
C149 O144 1.259 . S
C149 O146 1.235 1_455 S
O150 Co140 2.021 1_655 S
O150 C147 1.238 . S
O151 Co145 2.052 . S
O151 C147 1.241 . S
O152 Co140 2.137 . S
O152 C143 1.247 . S
O153 Co140 2.244 1_655 S
O153 C143 1.272 1_655 S
O153 Co145 2.135 . S
Co154 O155 2.216 . S
Co154 O156 2.091 . S
Co154 O158 2.004 . S
Co154 O164 2.021 1_545 S
Co154 O166 2.137 . S
Co154 O167 2.244 1_545 S
O155 Co154 2.216 . S
O155 C162 1.247 . S
O156 Co154 2.091 . S
O156 C162 1.261 . S
C157 O166 1.247 . S
C157 O167 1.272 1_545 S
O158 Co154 2.004 . S
O158 C163 1.259 . S
Co159 O160 2.061 . S
Co159 O165 2.052 . S
Co159 O167 2.135 . S
O160 Co159 2.061 . S
O160 C163 1.235 1_565 S
C161 O164 1.238 . S
C161 O165 1.241 . S
C162 O155 1.247 . S
C162 O156 1.261 . S
C163 O158 1.259 . S
C163 O160 1.235 1_545 S
O164 Co154 2.021 1_565 S
O164 C161 1.238 . S
O165 Co159 2.052 . S
O165 C161 1.241 . S
O166 Co154 2.137 . S
O166 C157 1.247 . S
O167 Co154 2.244 1_565 S
O167 C157 1.272 1_565 S
O167 Co159 2.135 . S
C162 C8 1.816 1_655 S
C22 C92 1.817 1_545 S
C36 C106 1.816 . S
C50 C120 1.816 1_655 S
C134 C64 1.817 1_545 S
C78 C148 1.816 . S
C51 C9 1.171 . S
C65 C23 1.171 1_455 S
C79 C37 1.171 1_545 S
C93 C135 1.171 . S
C107 C149 1.171 1_655 S
C121 C163 1.171 1_565 S
C119 C7 0.689 . S
C21 C133 0.689 . S
C147 C35 0.689 . S
C161 C49 0.689 . S
C91 C63 0.689 . S
C77 C105 0.689 . S
C129 C3 2.019 . S
C17 C143 2.019 1_655 S
C157 C31 2.019 1_544 S
C45 C87 2.019 . S
C59 C101 2.019 1_455 S
C115 C73 2.019 1_564 S
