# Generated by pormake.
# Topology hex, (8)-cn, num edge types: 1
# Building blocks:
#     Node 0, Type 0, BuildingBlock: XADDAJ01_clean_sbu_3, # of connection points: 8
#     Edge 1, Type (0, 0), BuildingBlock: OJICUG_clean_linker_0, # of connection points: 2
#     Edge 2, Type (0, 0), BuildingBlock: OJICUG_clean_linker_0, # of connection points: 2
#     Edge 3, Type (0, 0), BuildingBlock: OJICUG_clean_linker_0, # of connection points: 2
#     Edge 4, Type (0, 0), BuildingBlock: OJICUG_clean_linker_0, # of connection points: 2
# Relax obj value: 0.033
# Max RMSD: 0.092
# Mean RMSD: 0.092
data_MOF--net-hex--node1-XADDAJ01_clean_sbu_3--edge1-OJICUG_clean_linker_0
_symmetry_space_group_name_H-M    P1
_symmetry_Int_Tables_number       1
_symmetry_cell_setting            triclinic
loop_
_symmetry_equiv_pos_as_xyz
'x, y, z'
_cell_length_a     16.700659
_cell_length_b     14.500809
_cell_length_c     10.899694
_cell_angle_alpha  104.77016
_cell_angle_beta   109.26181
_cell_angle_gamma 111.88447
loop_
_atom_site_label
_atom_site_type_symbol
_atom_site_fract_x
_atom_site_fract_y
_atom_site_fract_z
_atom_type_partial_charge
C0 C 0.75654 0.80087 0.87434 0.0
C1 C 0.71912 0.70542 0.89604 0.0
C2 C 0.64533 0.68219 0.93752 0.0
C3 C 0.61117 0.756 0.9612 0.0
C4 C 0.64803 0.85168 0.94166 0.0
C5 C 0.72018 0.87347 0.89669 0.0
O6 O 0.07686 0.92162 0.14078 0.0
Tb7 Tb 0.99966 0.84871 0.90726 0.0
Tb8 Tb 0.12276 0.1274 0.05427 0.0
O9 O 0.99554 0.69375 0.89384 0.0
O10 O 1.05764 0.07289 0.18335 0.0
O11 O 0.84848 0.74491 0.77728 0.0
C12 C 0.29094 0.1512 0.13631 0.0
O13 O 0.9119 0.92141 0.906 0.0
O14 O 1.04557 0.05448 0.82075 0.0
O15 O 0.06478 0.90322 0.77819 0.0
C16 C 0.83149 0.8249 0.82523 0.0
C17 C 1.04874 0.284 -0.01166 0.0
O18 O 0.96539 0.19068 0.90614 0.0
C19 C 0.06598 -0.00395 0.22075 0.0
C20 C 1.05645 0.98006 0.74078 0.0
O21 O 0.12689 0.28235 0.06769 0.0
C22 C 0.36589 0.17524 0.0872 0.0
C23 C 0.4744 0.12443 0.01989 0.0
C24 C 0.40225 0.10264 0.06485 0.0
C25 C 0.40331 0.27069 0.06549 0.0
C26 C 0.4771 0.29392 0.02402 0.0
C27 C 0.51126 0.22011 0.00035 0.0
C28 C 0.07368 0.69211 0.97319 0.0
O29 O 0.15704 0.78543 0.05539 0.0
O30 O 0.27395 0.23119 0.18426 0.0
O31 O 0.21052 0.0547 0.05554 0.0
H32 H 0.74561 0.64807 0.87796 0.0
H33 H 0.55455 0.7382 -0.00602 0.0
H34 H 0.74853 0.94714 0.88011 0.0
H35 H 0.3739 0.02897 0.08143 0.0
H36 H 0.37682 0.32804 0.08357 0.0
H37 H 0.56788 0.2379 0.96756 0.0
C38 C 0.14493 0.48844 0.06644 0.0
C39 C 1.0551 0.3888 -0.01396 0.0
H40 H 0.22142 0.66147 0.12493 0.0
C41 C 0.97147 0.38975 0.90027 0.0
H42 H 0.21091 0.49093 0.1332 0.0
C43 C 0.9775 0.48766 0.89509 0.0
C44 C 0.06733 0.5873 0.97549 0.0
H45 H 0.90101 0.31464 0.83661 0.0
H46 H 0.91152 0.48518 0.82833 0.0
C47 C 0.15096 0.58636 0.06126 0.0
C48 C 0.59192 0.95191 0.08495 0.0
C49 C 0.60729 0.92536 0.96433 0.0
H50 H 0.53671 0.03485 0.19623 0.0
C51 C 0.57643 0.96233 0.8605 0.0
H52 H 0.61568 0.92491 0.16717 0.0
C53 C 0.53051 0.0242 0.87659 0.0
C54 C 0.51514 0.05074 -0.00279 0.0
H55 H 0.58572 0.94126 0.76532 0.0
H56 H 0.50675 0.0512 0.79438 0.0
C57 C 0.546 0.01378 0.10104 0.0
C58 C 0.45941 0.42624 0.92416 0.0
C59 C 0.52003 0.39511 0.00519 0.0
H60 H 0.45188 0.54017 0.83547 0.0
C61 C 0.62217 0.45784 0.06195 0.0
H62 H 0.38048 0.37821 0.87741 0.0
C63 C 0.66301 0.54986 0.03738 0.0
C64 C 0.6024 0.58099 0.95635 0.0
H65 H 0.67055 0.43594 0.12606 0.0
H66 H 0.74195 0.5979 0.08413 0.0
C67 C 0.50026 0.51827 0.89959 0.0
C68 C 1.05079 0.06659 0.56878 0.0
C69 C 1.05846 0.9835 0.60731 0.0
H70 H 1.04724 0.13596 0.41698 0.0
C71 C 0.06896 0.90506 0.51796 0.0
H72 H 1.04283 0.1286 0.63539 0.0
C73 C 0.07163 0.90952 0.39275 0.0
C74 C 0.06397 -0.00739 0.35423 0.0
H75 H 0.07518 0.84014 0.54455 0.0
H76 H 0.0796 0.84751 0.32614 0.0
C77 C 1.05346 0.07105 0.44357 0.0
loop_
_geom_bond_atom_site_label_1
_geom_bond_atom_site_label_2
_geom_bond_distance
_geom_bond_site_symmetry_2
_ccdc_geom_bond_type
C0 C1 1.386 . S
C0 C5 1.384 . S
C0 C16 1.497 . S
C1 C0 1.386 . S
C1 C2 1.393 1_556 S
C1 H32 0.932 . S
C2 C1 1.393 1_554 S
C2 C3 1.387 . S
C3 C2 1.387 . S
C3 C4 1.392 1_554 S
C3 H33 0.930 . S
C4 C3 1.392 1_556 S
C4 C5 1.402 . S
C5 C0 1.384 . S
C5 C4 1.402 . S
C5 H34 0.930 . S
O6 Tb7 2.288 1_554 S
O6 C19 1.257 1_665 S
Tb7 O6 2.288 1_556 S
Tb7 O9 2.303 . S
Tb7 O11 2.430 . S
Tb7 O13 2.459 . S
Tb7 O15 2.301 . S
Tb7 C16 2.808 . S
Tb8 O10 2.301 . S
Tb8 C12 2.808 . S
Tb8 O14 2.288 1_554 S
Tb8 O21 2.303 . S
Tb8 O30 2.430 . S
Tb8 O31 2.459 . S
O9 Tb7 2.303 . S
O9 C28 1.255 1_655 S
O10 Tb8 2.301 . S
O10 C19 1.237 . S
O11 Tb7 2.430 . S
O11 C16 1.248 . S
C12 Tb8 2.808 . S
C12 C22 1.497 . S
C12 O30 1.248 . S
C12 O31 1.260 . S
O13 Tb7 2.459 . S
O13 C16 1.260 . S
O14 Tb8 2.288 1_556 S
O14 C20 1.257 1_445 S
O15 Tb7 2.301 . S
O15 C20 1.237 . S
C16 C0 1.497 . S
C16 Tb7 2.808 . S
C16 O11 1.248 . S
C16 O13 1.260 . S
C17 O18 1.255 . S
C17 O21 1.255 1_655 S
O18 C17 1.255 . S
C19 O6 1.257 1_445 S
C19 O10 1.237 . S
C20 O14 1.257 1_665 S
C20 O15 1.237 . S
O21 Tb8 2.303 . S
O21 C17 1.255 1_455 S
C22 C12 1.497 . S
C22 C24 1.384 . S
C22 C25 1.386 . S
C23 C24 1.402 . S
C23 C27 1.392 1_554 S
C24 C22 1.384 . S
C24 C23 1.402 . S
C24 H35 0.930 . S
C25 C22 1.386 . S
C25 C26 1.393 1_554 S
C25 H36 0.932 . S
C26 C25 1.393 1_556 S
C26 C27 1.387 . S
C27 C23 1.392 1_556 S
C27 C26 1.387 . S
C27 H37 0.930 . S
C28 O9 1.255 1_455 S
C28 O29 1.255 . S
O29 C28 1.255 . S
O30 Tb8 2.430 . S
O30 C12 1.248 . S
O31 Tb8 2.459 . S
O31 C12 1.260 . S
H32 C1 0.932 . S
H33 C3 0.930 . S
H34 C5 0.930 . S
H35 C24 0.930 . S
H36 C25 0.932 . S
H37 C27 0.930 . S
C38 C39 1.387 1_455 S
C38 H42 0.950 . S
C38 C47 1.390 . S
C39 C38 1.387 1_655 S
C39 C41 1.387 1_554 S
H40 C47 0.950 . S
C41 C39 1.387 1_556 S
C41 C43 1.390 . S
C41 H45 0.950 . S
H42 C38 0.950 . S
C43 C41 1.390 . S
C43 C44 1.387 1_655 S
C43 H46 0.950 . S
C44 C43 1.387 1_455 S
C44 C47 1.387 1_556 S
H45 C41 0.950 . S
H46 C43 0.950 . S
C47 C38 1.390 . S
C47 H40 0.950 . S
C47 C44 1.387 1_554 S
C48 C49 1.387 1_554 S
C48 H52 0.950 . S
C48 C57 1.390 . S
C49 C48 1.387 1_556 S
C49 C51 1.387 1_565 S
H50 C57 0.950 . S
C51 C49 1.387 1_545 S
C51 C53 1.390 . S
C51 H55 0.950 . S
H52 C48 0.950 . S
C53 C51 1.390 . S
C53 C54 1.387 1_556 S
C53 H56 0.950 . S
C54 C53 1.387 1_554 S
C54 C57 1.387 1_545 S
H55 C51 0.950 . S
H56 C53 0.950 . S
C57 C48 1.390 . S
C57 H50 0.950 . S
C57 C54 1.387 1_565 S
C58 C59 1.387 . S
C58 H62 0.950 . S
C58 C67 1.390 . S
C59 C58 1.387 . S
C59 C61 1.387 1_556 S
H60 C67 0.950 . S
C61 C59 1.387 1_554 S
C61 C63 1.390 . S
C61 H65 0.950 . S
H62 C58 0.950 . S
C63 C61 1.390 . S
C63 C64 1.387 . S
C63 H66 0.950 . S
C64 C63 1.387 . S
C64 C67 1.387 1_554 S
H65 C61 0.950 . S
H66 C63 0.950 . S
C67 C58 1.390 . S
C67 H60 0.950 . S
C67 C64 1.387 1_556 S
C68 C69 1.389 . S
C68 H72 0.950 . S
C68 C77 1.390 . S
C69 C68 1.389 . S
C69 C71 1.387 1_445 S
H70 C77 0.950 . S
C71 C69 1.387 1_665 S
C71 C73 1.390 . S
C71 H75 0.950 . S
H72 C68 0.950 . S
C73 C71 1.390 . S
C73 C74 1.388 1_655 S
C73 H76 0.950 . S
C74 C73 1.388 1_455 S
C74 C77 1.387 1_565 S
H75 C71 0.950 . S
H76 C73 0.950 . S
C77 C68 1.390 . S
C77 H70 0.950 . S
C77 C74 1.387 1_545 S
C39 C17 0.644 . S
C44 C28 0.644 . S
C49 C4 2.027 . S
C54 C23 2.027 . S
C59 C26 1.844 . S
C64 C2 1.844 . S
C69 C20 1.489 1_445 S
C74 C19 1.490 1_565 S
