# Generated by pormake.
# Topology kag, (6)-cn, num edge types: 1
# Building blocks:
#     Node 0, Type 0, BuildingBlock: FUNLAD_clean_sbu_0, # of connection points: 6
#     Node 1, Type 0, BuildingBlock: FUNLAD_clean_sbu_0, # of connection points: 6
#     Node 2, Type 0, BuildingBlock: FUNLAD_clean_sbu_0, # of connection points: 6
#     Edge 3, Type (0, 0), BuildingBlock: OJICUG_clean_linker_0, # of connection points: 2
#     Edge 4, Type (0, 0), BuildingBlock: OJICUG_clean_linker_0, # of connection points: 2
#     Edge 5, Type (0, 0), BuildingBlock: OJICUG_clean_linker_0, # of connection points: 2
#     Edge 6, Type (0, 0), BuildingBlock: OJICUG_clean_linker_0, # of connection points: 2
#     Edge 7, Type (0, 0), BuildingBlock: OJICUG_clean_linker_0, # of connection points: 2
#     Edge 8, Type (0, 0), BuildingBlock: OJICUG_clean_linker_0, # of connection points: 2
#     Edge 9, Type (0, 0), BuildingBlock: OJICUG_clean_linker_0, # of connection points: 2
#     Edge 10, Type (0, 0), BuildingBlock: OJICUG_clean_linker_0, # of connection points: 2
#     Edge 11, Type (0, 0), BuildingBlock: OJICUG_clean_linker_0, # of connection points: 2
# Relax obj value: 0.095
# Max RMSD: 0.178
# Mean RMSD: 0.176
data_MOF--net-kag--node1-FUNLAD_clean_sbu_0--edge1-OJICUG_clean_linker_0
_symmetry_space_group_name_H-M    P1
_symmetry_Int_Tables_number       1
_symmetry_cell_setting            triclinic
loop_
_symmetry_equiv_pos_as_xyz
'x, y, z'
_cell_length_a     22.142095
_cell_length_b     21.747531
_cell_length_c     17.672127
_cell_angle_alpha  89.272883
_cell_angle_beta   92.221987
_cell_angle_gamma 120.5355
loop_
_atom_site_label
_atom_site_type_symbol
_atom_site_fract_x
_atom_site_fract_y
_atom_site_fract_z
_atom_type_partial_charge
C0 C 0.84595 0.50574 0.0169 0.0
N1 N -0.04236 0.47835 0.19667 0.0
C2 C -0.04486 0.5316 0.23335 0.0
C3 C -0.04551 0.5325 0.31228 0.0
C4 C -0.04353 0.4781 0.354 0.0
C5 C -0.04018 0.42424 0.31465 0.0
C6 C -0.0397 0.42537 0.23564 0.0
Zn7 Zn -0.04557 0.4766 0.08093 0.0
C8 C 0.85444 0.33383 0.01907 0.0
N9 N 0.94581 0.47287 0.83894 0.0
C10 C 0.94315 0.52591 0.80006 0.0
C11 C 0.94833 0.41968 0.80217 0.0
C12 C 0.94904 0.4189 0.72324 0.0
C13 C 0.94709 0.47338 0.68162 0.0
C14 C 0.94369 0.52716 0.72106 0.0
Zn15 Zn 0.949 0.47453 0.95469 0.0
O16 O 0.87345 0.49986 0.07889 0.0
C17 C 0.04924 0.61724 1.01655 0.0
O18 O 0.86804 0.4979 0.95458 0.0
H19 H 0.95028 0.37795 0.83413 0.0
H20 H -0.04683 0.57329 0.20131 0.0
H21 H 0.94144 0.56784 0.83041 0.0
O22 O 0.02891 0.58521 0.0791 0.0
O23 O 0.02355 0.58312 0.95478 0.0
H24 H -0.038 0.3834 0.20537 0.0
O25 O 0.02989 0.45116 0.95672 0.0
O26 O 0.0353 0.45309 0.08104 0.0
O27 O 0.87461 0.3659 0.95651 0.0
O28 O 0.87996 0.36801 0.08084 0.0
C29 C 0.05723 0.44504 0.01871 0.0
H30 H -0.04714 0.5756 0.34032 0.0
H31 H -0.03939 0.38082 0.34446 0.0
H32 H 0.95069 0.37585 0.69513 0.0
H33 H 0.94292 0.57062 0.69133 0.0
C34 C 0.31478 0.87198 1.01505 0.0
N35 N 0.45554 -0.02475 0.1966 0.0
C36 C 0.40191 -0.02468 0.2316 0.0
C37 C 0.40061 -0.0247 0.31047 0.0
C38 C 0.45501 -0.02486 0.35392 0.0
C39 C 0.50977 -0.02484 0.31628 0.0
C40 C 0.50901 -0.02474 0.23723 0.0
Zn41 Zn 0.45482 -0.02552 0.08097 0.0
C42 C 0.49028 0.87226 0.02081 0.0
N43 N 0.45098 0.97247 0.83908 0.0
C44 C 0.39755 0.97248 0.79837 0.0
C45 C 0.50465 0.97241 0.80417 0.0
C46 C 0.50605 0.97248 0.7253 0.0
C47 C 0.45172 0.97268 0.68178 0.0
C48 C 0.3969 0.97262 0.71933 0.0
Zn49 Zn 0.45162 0.97323 0.95472 0.0
O50 O 0.34893 0.89593 0.07746 0.0
C51 C 0.41588 0.07524 1.01488 0.0
O52 O 0.34565 0.89462 0.95311 0.0
H53 H 0.54674 0.97264 0.83756 0.0
H54 H 0.35978 -0.02492 0.19828 0.0
H55 H 0.35531 0.97235 0.82725 0.0
O56 O 0.42685 0.05263 0.07743 0.0
O57 O 0.42369 0.05148 0.95307 0.0
H58 H 0.55122 -0.02462 0.20829 0.0
O59 O 0.55748 0.05186 0.95823 0.0
O60 O 0.56076 0.05317 0.08257 0.0
O61 O 0.47948 0.895 0.95826 0.0
O62 O 0.48264 0.89617 0.08261 0.0
C63 C 0.59159 0.07596 0.02063 0.0
H64 H 0.35691 -0.02566 0.33709 0.0
H65 H 0.55318 -0.02408 0.34756 0.0
H66 H 0.54979 0.97345 0.69875 0.0
H67 H 0.35353 0.97189 0.68798 0.0
C68 C 0.58589 0.50228 0.01942 0.0
N69 N 0.44656 0.47355 0.83899 0.0
C70 C 0.50217 0.52681 0.80315 0.0
C71 C 0.50356 0.52778 0.72424 0.0
C72 C 0.44721 0.47337 0.68165 0.0
C73 C 0.39025 0.41935 0.72014 0.0
C74 C 0.39099 0.42049 0.79917 0.0
Zn75 Zn 0.44806 0.4724 0.95469 0.0
C76 C 0.40549 0.33036 1.01546 0.0
N77 N 0.45339 0.47069 0.19662 0.0
C78 C 0.50891 0.52371 0.23651 0.0
C79 C 0.39774 0.41739 0.23236 0.0
C80 C 0.39624 0.41635 0.31126 0.0
C81 C 0.45252 0.47074 0.35394 0.0
C82 C 0.50955 0.52479 0.31554 0.0
Zn83 Zn 0.45197 0.47192 0.08091 0.0
O84 O 0.55218 0.49543 0.95733 0.0
C85 C 0.49484 0.61401 0.02014 0.0
O86 O 0.55621 0.49506 0.08165 0.0
H87 H 0.354 0.37588 0.19959 0.0
H88 H 0.54594 0.56834 0.83586 0.0
H89 H 0.55267 0.5655 0.20698 0.0
O90 O 0.48253 0.58109 0.95752 0.0
O91 O 0.48633 0.58061 0.08185 0.0
H92 H 0.34726 0.37873 0.82877 0.0
O93 O 0.34788 0.44901 0.07827 0.0
O94 O 0.34387 0.44939 0.95396 0.0
O95 O 0.41761 0.36324 0.07808 0.0
O96 O 0.41379 0.36372 0.95376 0.0
C97 C 0.31425 0.44239 1.01618 0.0
H98 H 0.54893 0.56998 0.69699 0.0
H99 H 0.34531 0.37688 0.68953 0.0
H100 H 0.35083 0.37413 0.33844 0.0
H101 H 0.55444 0.56724 0.34622 0.0
C102 C -0.00592 0.45705 0.56114 0.0
C103 C 0.94938 0.47449 0.59767 0.0
H104 H 0.03222 0.44562 0.45591 0.0
C105 C 0.90719 0.49331 0.55341 0.0
H106 H 0.02812 0.44347 0.59362 0.0
C107 C 0.90959 0.49459 0.47448 0.0
C108 C -0.04574 0.47712 0.43795 0.0
H109 H 0.87144 0.50602 0.57971 0.0
H110 H 0.87555 0.50817 0.442 0.0
C111 C -0.00352 0.45833 0.48222 0.0
C112 C 0.43379 0.01672 0.47667 0.0
C113 C 0.4544 -0.02531 0.43793 0.0
H114 H 0.41773 0.04983 0.58384 0.0
C115 C 0.47406 0.93193 0.48003 0.0
H116 H 0.41937 0.05107 0.44597 0.0
C117 C 0.47308 0.93119 0.55904 0.0
C118 C 0.45243 0.9732 0.59777 0.0
H119 H 0.48914 0.89808 0.45186 0.0
H120 H 0.48749 0.89684 0.58974 0.0
C121 C 0.43281 0.01598 0.55568 0.0
C122 C 0.47336 0.53633 0.55661 0.0
C123 C 0.44826 0.47265 0.59766 0.0
H124 H 0.49348 0.58553 0.44769 0.0
C125 C 0.4247 0.40834 0.55791 0.0
H126 H 0.49091 0.58661 0.58543 0.0
C127 C 0.42623 0.40774 0.47897 0.0
C128 C 0.45137 0.47142 0.43792 0.0
H129 H 0.40612 0.35854 0.5879 0.0
H130 H 0.40868 0.35745 0.45015 0.0
C131 C 0.47489 0.53572 0.47767 0.0
C132 C 0.15086 0.43188 0.08635 0.0
C133 C 0.11756 0.43422 0.01806 0.0
H134 H 0.23922 0.43195 0.13927 0.0
C135 C 0.14556 0.43148 0.94904 0.0
H136 H 0.13013 0.43329 0.14042 0.0
C137 C 0.20808 0.43077 0.94835 0.0
C138 C 0.24356 0.43271 0.01667 0.0
H139 H 0.12067 0.43259 0.89544 0.0
H140 H 0.22985 0.4314 0.8943 0.0
C141 C 0.21334 0.43109 0.08566 0.0
C142 C 0.69739 0.1622 0.95208 0.0
C143 C 0.6649 0.134 0.02084 0.0
H144 H 0.78426 0.2478 0.89766 0.0
C145 C 0.70095 0.16578 0.08941 0.0
H146 H 0.67125 0.13799 0.89836 0.0
C147 C 0.7658 0.22855 0.08901 0.0
C148 C 0.79526 0.26031 0.02002 0.0
H149 H 0.67754 0.14441 0.1433 0.0
H150 H 0.79069 0.25424 0.14263 0.0
C151 C 0.76219 0.22496 0.95167 0.0
C152 C 0.51008 0.78514 0.95282 0.0
C153 C 0.50576 0.81429 0.02139 0.0
H154 H 0.51121 0.69864 0.89873 0.0
C155 C 0.50999 0.7834 0.09011 0.0
H156 H 0.50822 0.80868 0.89901 0.0
C157 C 0.51192 0.72047 0.08996 0.0
C158 C 0.50952 0.68771 0.02108 0.0
H159 H 0.50794 0.80553 0.14388 0.0
H160 H 0.51097 0.69541 0.14363 0.0
C161 C 0.51199 0.72224 0.95266 0.0
C162 C 0.75638 0.51717 0.08657 0.0
C163 C 0.78486 0.5153 0.01756 0.0
H164 H 0.67093 0.51488 0.14131 0.0
C165 C 0.75104 0.51671 0.94926 0.0
H166 H 0.78161 0.51669 0.14017 0.0
C167 C 0.68767 0.51571 0.94995 0.0
C168 C 0.65707 0.51322 0.01893 0.0
H169 H 0.77207 0.51587 0.89519 0.0
H170 H 0.66148 0.51421 0.89633 0.0
C171 C 0.69297 0.51609 0.08725 0.0
C172 C 0.1391 0.72169 0.94663 0.0
C173 C 0.10919 0.69035 1.01561 0.0
H174 H 0.22835 0.80451 0.89237 0.0
C175 C 0.14277 0.72529 0.08397 0.0
H176 H 0.11389 0.69628 0.89301 0.0
C177 C 0.20834 0.7871 0.08358 0.0
C178 C 0.24113 0.81474 1.01484 0.0
H179 H 0.12042 0.70277 0.13797 0.0
H180 H 0.23475 0.81097 0.13731 0.0
C181 C 0.20473 0.78349 0.94626 0.0
C182 C 0.39048 0.22475 0.94567 0.0
C183 C 0.39201 0.25708 1.01454 0.0
H184 H 0.39678 0.14101 0.89179 0.0
C185 C 0.39042 0.22292 0.08297 0.0
H186 H 0.39082 0.24953 0.89199 0.0
C187 C 0.39407 0.16098 0.08284 0.0
C188 C 0.39924 0.13239 1.01428 0.0
H189 H 0.3906 0.2462 0.13688 0.0
H190 H 0.39652 0.13776 0.13666 0.0
C191 C 0.39414 0.16277 0.94555 0.0
loop_
_geom_bond_atom_site_label_1
_geom_bond_atom_site_label_2
_geom_bond_distance
_geom_bond_site_symmetry_2
_ccdc_geom_bond_type
C0 O16 1.251 . S
C0 O18 1.254 1_554 S
N1 C2 1.333 1_455 S
N1 C6 1.307 . S
N1 Zn7 2.020 . S
C2 N1 1.333 1_655 S
C2 C3 1.379 . S
C2 H20 0.952 . S
C3 C2 1.379 . S
C3 C4 1.390 1_655 S
C3 H30 0.949 . S
C4 C3 1.390 1_455 S
C4 C5 1.357 . S
C5 C4 1.357 . S
C5 C6 1.370 . S
C5 H31 0.950 . S
C6 N1 1.307 . S
C6 C5 1.370 . S
C6 H24 0.948 . S
Zn7 N1 2.020 . S
Zn7 O16 2.039 1_455 S
Zn7 O22 2.034 . S
Zn7 O26 2.025 . S
Zn7 O28 2.024 1_455 S
C8 O27 1.256 . S
C8 O28 1.238 1_556 S
N9 C10 1.307 . S
N9 C11 1.333 1_655 S
N9 Zn15 2.020 . S
C10 N9 1.307 . S
C10 C14 1.370 . S
C10 H21 0.948 . S
C11 N9 1.333 1_455 S
C11 C12 1.379 . S
C11 H19 0.952 . S
C12 C11 1.379 . S
C12 C13 1.390 1_455 S
C12 H32 0.949 . S
C13 C12 1.390 1_655 S
C13 C14 1.357 . S
C14 C10 1.370 . S
C14 C13 1.357 . S
C14 H33 0.950 . S
Zn15 N9 2.020 . S
Zn15 O18 2.025 . S
Zn15 O23 2.024 1_655 S
Zn15 O25 2.039 1_655 S
Zn15 O27 2.034 . S
O16 C0 1.251 . S
O16 Zn7 2.039 1_655 S
C17 O22 1.246 . S
C17 O23 1.249 1_554 S
O18 C0 1.254 1_556 S
O18 Zn15 2.025 . S
H19 C11 0.952 . S
H20 C2 0.952 . S
H21 C10 0.948 . S
O22 Zn7 2.034 . S
O22 C17 1.246 . S
O23 Zn15 2.024 1_455 S
O23 C17 1.249 1_556 S
H24 C6 0.948 . S
O25 Zn15 2.039 1_455 S
O25 C29 1.252 1_556 S
O26 Zn7 2.025 . S
O26 C29 1.252 . S
O27 C8 1.256 . S
O27 Zn15 2.034 . S
O28 Zn7 2.024 1_655 S
O28 C8 1.238 1_554 S
C29 O25 1.252 1_554 S
C29 O26 1.252 . S
H30 C3 0.949 . S
H31 C5 0.950 . S
H32 C12 0.949 . S
H33 C14 0.950 . S
C34 O50 1.251 . S
C34 O52 1.254 1_554 S
N35 C36 1.333 1_545 S
N35 C40 1.307 . S
N35 Zn41 2.021 . S
C36 N35 1.333 1_565 S
C36 C37 1.379 . S
C36 H54 0.952 . S
C37 C36 1.379 . S
C37 C38 1.391 1_565 S
C37 H64 0.949 . S
C38 C37 1.391 1_545 S
C38 C39 1.355 . S
C39 C38 1.355 . S
C39 C40 1.370 . S
C39 H65 0.950 . S
C40 N35 1.307 . S
C40 C39 1.370 . S
C40 H58 0.948 . S
Zn41 N35 2.021 . S
Zn41 O50 2.035 1_545 S
Zn41 O56 2.049 . S
Zn41 O60 2.030 . S
Zn41 O62 2.009 1_545 S
C42 O61 1.246 1_554 S
C42 O62 1.249 . S
N43 C44 1.307 . S
N43 C45 1.333 1_565 S
N43 Zn49 2.020 . S
C44 N43 1.307 . S
C44 C48 1.370 . S
C44 H55 0.948 . S
C45 N43 1.333 1_545 S
C45 C46 1.379 . S
C45 H53 0.952 . S
C46 C45 1.379 . S
C46 C47 1.390 . S
C46 H66 0.949 . S
C47 C46 1.390 . S
C47 C48 1.357 1_545 S
C48 C44 1.370 . S
C48 C47 1.357 1_565 S
C48 H67 0.950 . S
Zn49 N43 2.020 . S
Zn49 O52 2.027 . S
Zn49 O57 2.020 1_565 S
Zn49 O59 2.038 1_565 S
Zn49 O61 2.039 . S
O50 C34 1.251 . S
O50 Zn41 2.035 1_565 S
C51 O56 1.234 1_556 S
C51 O57 1.262 . S
O52 C34 1.254 1_556 S
O52 Zn49 2.027 . S
H53 C45 0.952 . S
H54 C36 0.952 . S
H55 C44 0.948 . S
O56 Zn41 2.049 . S
O56 C51 1.234 1_554 S
O57 Zn49 2.020 1_545 S
O57 C51 1.262 . S
H58 C40 0.948 . S
O59 Zn49 2.038 1_545 S
O59 C63 1.246 1_556 S
O60 Zn41 2.030 . S
O60 C63 1.259 . S
O61 C42 1.246 1_556 S
O61 Zn49 2.039 . S
O62 Zn41 2.009 1_565 S
O62 C42 1.249 . S
C63 O59 1.246 1_554 S
C63 O60 1.259 . S
H64 C37 0.949 . S
H65 C39 0.950 . S
H66 C46 0.949 . S
H67 C48 0.950 . S
C68 O84 1.241 1_554 S
C68 O86 1.265 . S
N69 C70 1.333 . S
N69 C74 1.307 . S
N69 Zn75 2.020 . S
C70 N69 1.333 . S
C70 C71 1.379 . S
C70 H88 0.952 . S
C71 C70 1.379 . S
C71 C72 1.390 . S
C71 H98 0.949 . S
C72 C71 1.390 . S
C72 C73 1.357 . S
C73 C72 1.357 . S
C73 C74 1.370 . S
C73 H99 0.950 . S
C74 N69 1.307 . S
C74 C73 1.370 . S
C74 H92 0.948 . S
Zn75 N69 2.020 . S
Zn75 O84 2.039 . S
Zn75 O90 2.034 . S
Zn75 O94 2.025 . S
Zn75 O96 2.024 . S
C76 O95 1.246 . S
C76 O96 1.249 1_554 S
N77 C78 1.307 . S
N77 C79 1.333 . S
N77 Zn83 2.020 . S
C78 N77 1.307 . S
C78 C82 1.370 . S
C78 H89 0.948 . S
C79 N77 1.333 . S
C79 C80 1.379 . S
C79 H87 0.952 . S
C80 C79 1.379 . S
C80 C81 1.390 . S
C80 H100 0.949 . S
C81 C80 1.390 . S
C81 C82 1.357 . S
C82 C78 1.370 . S
C82 C81 1.357 . S
C82 H101 0.950 . S
Zn83 N77 2.020 . S
Zn83 O86 2.025 . S
Zn83 O91 2.024 . S
Zn83 O93 2.039 . S
Zn83 O95 2.034 . S
O84 C68 1.241 1_556 S
O84 Zn75 2.039 . S
C85 O90 1.246 1_554 S
C85 O91 1.249 . S
O86 C68 1.265 . S
O86 Zn83 2.025 . S
H87 C79 0.952 . S
H88 C70 0.952 . S
H89 C78 0.948 . S
O90 Zn75 2.034 . S
O90 C85 1.246 1_556 S
O91 Zn83 2.024 . S
O91 C85 1.249 . S
H92 C74 0.948 . S
O93 Zn83 2.039 . S
O93 C97 1.251 . S
O94 Zn75 2.025 . S
O94 C97 1.254 1_556 S
O95 C76 1.246 . S
O95 Zn83 2.034 . S
O96 Zn75 2.024 . S
O96 C76 1.249 1_556 S
C97 O93 1.251 . S
C97 O94 1.254 1_554 S
H98 C71 0.949 . S
H99 C73 0.950 . S
H100 C80 0.949 . S
H101 C82 0.950 . S
C102 C103 1.387 1_455 S
C102 H106 0.950 . S
C102 C111 1.390 . S
C103 C102 1.387 1_655 S
C103 C105 1.387 . S
H104 C111 0.950 . S
C105 C103 1.387 . S
C105 C107 1.390 . S
C105 H109 0.950 . S
H106 C102 0.950 . S
C107 C105 1.390 . S
C107 C108 1.387 1_655 S
C107 H110 0.950 . S
C108 C107 1.387 1_455 S
C108 C111 1.387 . S
H109 C105 0.950 . S
H110 C107 0.950 . S
C111 C102 1.390 . S
C111 H104 0.950 . S
C111 C108 1.387 . S
C112 C113 1.387 1_545 S
C112 H116 0.950 . S
C112 C121 1.390 . S
C113 C112 1.387 1_565 S
C113 C115 1.387 . S
H114 C121 0.950 . S
C115 C113 1.387 . S
C115 C117 1.390 . S
C115 H119 0.950 . S
H116 C112 0.950 . S
C117 C115 1.390 . S
C117 C118 1.387 1_565 S
C117 H120 0.950 . S
C118 C117 1.387 1_545 S
C118 C121 1.387 . S
H119 C115 0.950 . S
H120 C117 0.950 . S
C121 C112 1.390 . S
C121 H114 0.950 . S
C121 C118 1.387 . S
C122 C123 1.387 . S
C122 H126 0.950 . S
C122 C131 1.390 . S
C123 C122 1.387 . S
C123 C125 1.387 . S
H124 C131 0.950 . S
C125 C123 1.387 . S
C125 C127 1.390 . S
C125 H129 0.950 . S
H126 C122 0.950 . S
C127 C125 1.390 . S
C127 C128 1.387 . S
C127 H130 0.950 . S
C128 C127 1.387 . S
C128 C131 1.387 . S
H129 C125 0.950 . S
H130 C127 0.950 . S
C131 C122 1.390 . S
C131 H124 0.950 . S
C131 C128 1.387 . S
C132 C133 1.384 1_554 S
C132 H136 0.950 . S
C132 C141 1.390 . S
C133 C132 1.384 1_556 S
C133 C135 1.391 . S
H134 C141 0.950 . S
C135 C133 1.391 . S
C135 C137 1.390 . S
C135 H139 0.950 . S
H136 C132 0.950 . S
C137 C135 1.390 . S
C137 C138 1.387 1_556 S
C137 H140 0.950 . S
C138 C137 1.387 1_554 S
C138 C141 1.387 . S
H139 C135 0.950 . S
H140 C137 0.950 . S
C141 C132 1.390 . S
C141 H134 0.950 . S
C141 C138 1.387 . S
C142 C143 1.387 . S
C142 H146 0.950 . S
C142 C151 1.390 . S
C143 C142 1.387 . S
C143 C145 1.387 1_556 S
H144 C151 0.950 . S
C145 C143 1.387 1_554 S
C145 C147 1.390 . S
C145 H149 0.950 . S
H146 C142 0.950 . S
C147 C145 1.390 . S
C147 C148 1.387 1_554 S
C147 H150 0.950 . S
C148 C147 1.387 1_556 S
C148 C151 1.387 . S
H149 C145 0.950 . S
H150 C147 0.950 . S
C151 C142 1.390 . S
C151 H144 0.950 . S
C151 C148 1.387 . S
C152 C153 1.387 1_556 S
C152 H156 0.950 . S
C152 C161 1.390 . S
C153 C152 1.387 1_554 S
C153 C155 1.387 . S
H154 C161 0.950 . S
C155 C153 1.387 . S
C155 C157 1.390 . S
C155 H159 0.950 . S
H156 C152 0.950 . S
C157 C155 1.390 . S
C157 C158 1.375 1_554 S
C157 H160 0.950 . S
C158 C157 1.375 1_556 S
C158 C161 1.400 . S
H159 C155 0.950 . S
H160 C157 0.950 . S
C161 C152 1.390 . S
C161 H154 0.950 . S
C161 C158 1.400 . S
C162 C163 1.387 . S
C162 H166 0.950 . S
C162 C171 1.390 . S
C163 C162 1.387 . S
C163 C165 1.387 1_554 S
H164 C171 0.950 . S
C165 C163 1.387 1_556 S
C165 C167 1.390 . S
C165 H169 0.950 . S
H166 C162 0.950 . S
C167 C165 1.390 . S
C167 C168 1.388 1_556 S
C167 H170 0.950 . S
C168 C167 1.388 1_554 S
C168 C171 1.387 . S
H169 C165 0.950 . S
H170 C167 0.950 . S
C171 C162 1.390 . S
C171 H164 0.950 . S
C171 C168 1.387 . S
C172 C173 1.387 1_556 S
C172 H176 0.950 . S
C172 C181 1.390 . S
C173 C172 1.387 1_554 S
C173 C175 1.387 . S
H174 C181 0.950 . S
C175 C173 1.387 . S
C175 C177 1.390 . S
C175 H179 0.950 . S
H176 C172 0.950 . S
C177 C175 1.390 . S
C177 C178 1.387 . S
C177 H180 0.950 . S
C178 C177 1.387 . S
C178 C181 1.387 1_554 S
H179 C175 0.950 . S
H180 C177 0.950 . S
C181 C172 1.390 . S
C181 H174 0.950 . S
C181 C178 1.387 1_556 S
C182 C183 1.387 1_556 S
C182 H186 0.950 . S
C182 C191 1.390 . S
C183 C182 1.387 1_554 S
C183 C185 1.387 . S
H184 C191 0.950 . S
C185 C183 1.387 . S
C185 C187 1.390 . S
C185 H189 0.950 . S
H186 C182 0.950 . S
C187 C185 1.390 . S
C187 C188 1.387 . S
C187 H190 0.950 . S
C188 C187 1.387 . S
C188 C191 1.387 1_554 S
H189 C185 0.950 . S
H190 C187 0.950 . S
C191 C182 1.390 . S
C191 H184 0.950 . S
C191 C188 1.387 1_556 S
C103 C13 1.504 . S
C108 C4 1.504 . S
C113 C38 1.497 1_565 S
C118 C47 1.497 . S
C123 C72 1.499 . S
C128 C81 1.499 . S
C133 C29 1.240 1_556 S
C138 C97 1.241 . S
C143 C63 1.245 1_556 S
C148 C8 1.247 . S
C153 C42 1.250 . S
C158 C85 1.250 1_556 S
C163 C0 1.241 . S
C168 C68 1.241 . S
C173 C17 1.247 . S
C178 C34 1.246 . S
C183 C76 1.250 . S
C188 C51 1.250 1_554 S
