# Generated by pormake.
# Topology kag, (6)-cn, num edge types: 1
# Building blocks:
#     Node 0, Type 0, BuildingBlock: BETDEL_clean_sbu_0, # of connection points: 6
#     Node 1, Type 0, BuildingBlock: BETDEL_clean_sbu_0, # of connection points: 6
#     Node 2, Type 0, BuildingBlock: BETDEL_clean_sbu_0, # of connection points: 6
#     Edge 3, Type (0, 0), BuildingBlock: OJICUG_clean_linker_0, # of connection points: 2
#     Edge 4, Type (0, 0), BuildingBlock: OJICUG_clean_linker_0, # of connection points: 2
#     Edge 5, Type (0, 0), BuildingBlock: OJICUG_clean_linker_0, # of connection points: 2
#     Edge 6, Type (0, 0), BuildingBlock: OJICUG_clean_linker_0, # of connection points: 2
#     Edge 7, Type (0, 0), BuildingBlock: OJICUG_clean_linker_0, # of connection points: 2
#     Edge 8, Type (0, 0), BuildingBlock: OJICUG_clean_linker_0, # of connection points: 2
#     Edge 9, Type (0, 0), BuildingBlock: OJICUG_clean_linker_0, # of connection points: 2
#     Edge 10, Type (0, 0), BuildingBlock: OJICUG_clean_linker_0, # of connection points: 2
#     Edge 11, Type (0, 0), BuildingBlock: OJICUG_clean_linker_0, # of connection points: 2
# Relax obj value: 0.022
# Max RMSD: 0.076
# Mean RMSD: 0.054
data_MOF--net-kag--node1-BETDEL_clean_sbu_0--edge1-OJICUG_clean_linker_0
_symmetry_space_group_name_H-M    P1
_symmetry_Int_Tables_number       1
_symmetry_cell_setting            triclinic
loop_
_symmetry_equiv_pos_as_xyz
'x, y, z'
_cell_length_a     22.808487
_cell_length_b     25.244815
_cell_length_c     10.456116
_cell_angle_alpha  96.242024
_cell_angle_beta   91.345744
_cell_angle_gamma 111.43891
loop_
_atom_site_label
_atom_site_type_symbol
_atom_site_fract_x
_atom_site_fract_y
_atom_site_fract_z
_atom_type_partial_charge
Dy0 Dy 0.98957 0.4549 1.00179 0.0
C1 C 0.119 0.69652 0.02033 0.0
C2 C 0.91754 0.3416 1.00948 0.0
Dy3 Dy 0.04663 0.58303 0.02399 0.0
O4 O 0.93339 0.36579 0.90606 0.0
O5 O 0.94196 0.37925 0.11028 0.0
O6 O 0.02552 0.44926 0.80661 0.0
O7 O 0.99515 0.51689 0.86607 0.0
C8 C 0.01914 0.49543 0.77647 0.0
C9 C 1.0165 0.54196 0.24884 0.0
O10 O 0.94677 0.57453 0.98695 0.0
O11 O 0.90627 0.48112 0.03568 0.0
O12 O 0.10551 0.67085 0.12238 0.0
O13 O 0.09212 0.66024 0.91863 0.0
O14 O 1.00971 0.58795 0.21861 0.0
O15 O 0.04108 0.52104 0.1595 0.0
O16 O 0.08953 0.46385 0.03949 0.0
O17 O 0.1295 0.55658 0.98673 0.0
C18 C 0.89878 0.52904 1.01292 0.0
C19 C 0.13728 0.509 1.01124 0.0
Dy20 Dy 0.58754 0.05078 0.01751 0.0
C21 C 0.32752 0.91013 0.02112 0.0
C22 C 0.70773 0.12894 1.00986 0.0
Dy23 Dy 0.44777 0.98773 1.01038 0.0
O24 O 0.67822 0.11571 0.11282 0.0
O25 O 0.67192 0.0984 0.90908 0.0
O26 O 0.59803 0.02064 0.20618 0.0
O27 O 0.51795 0.04014 0.16408 0.0
C28 C 0.54507 0.02181 0.24606 0.0
C29 C 0.4904 1.01668 0.78169 0.0
O30 O 0.44693 0.07552 0.06187 0.0
O31 O 0.54672 0.11776 0.98981 0.0
O32 O 0.3553 0.92495 0.9171 0.0
O33 O 0.36508 0.93884 0.1212 0.0
O34 O 0.43734 0.01771 0.82132 0.0
O35 O 0.51728 0.99825 0.86384 0.0
O36 O 0.58886 0.96313 0.96675 0.0
O37 O 0.48834 0.92033 0.03526 0.0
C38 C 0.49261 0.12048 0.02698 0.0
C39 C 0.54281 0.9179 0.99968 0.0
Dy40 Dy 0.54053 0.58333 0.02345 0.0
C41 C 0.47872 0.34248 1.00722 0.0
C42 C 0.5569 0.69581 0.01755 0.0
Dy43 Dy 0.49559 0.45503 1.00086 0.0
O44 O 0.53378 0.66566 0.10961 0.0
O45 O 0.57204 0.66461 0.92674 0.0
O46 O 0.5828 0.58986 0.22238 0.0
O47 O 0.49886 0.52078 0.15737 0.0
C48 C 0.54032 0.54268 0.24989 0.0
C49 C 0.4958 0.49598 0.77455 0.0
O50 O 0.40239 0.4626 0.0291 0.0
O51 O 0.4361 0.55471 0.97274 0.0
O52 O 0.50125 0.37229 0.91431 0.0
O53 O 0.46448 0.37407 0.09858 0.0
O54 O 0.45324 0.44881 0.80195 0.0
O55 O 0.53728 0.51753 0.86706 0.0
O56 O 0.6338 0.57582 0.99551 0.0
O57 O 0.60003 0.48355 0.051 0.0
C58 C 0.39044 0.50737 0.99881 0.0
C59 C 0.64571 0.53095 0.02532 0.0
C60 C 0.0386 0.47599 0.54535 0.0
C61 C 0.01991 0.50851 0.64229 0.0
H62 H 0.05141 0.46054 0.34405 0.0
C63 C 0.99918 0.55135 0.60852 0.0
H64 H 0.05463 0.44252 0.56872 0.0
C65 C 0.997 0.56134 0.47993 0.0
C66 C 1.01572 0.52884 0.38298 0.0
H67 H 0.98422 0.57682 0.6812 0.0
H68 H 0.98096 0.59481 0.45657 0.0
C69 C 0.03645 0.486 0.41675 0.0
C70 C 0.47879 0.03231 0.4272 0.0
C71 C 0.52997 0.01922 0.38227 0.0
H72 H 0.42682 0.04255 0.58976 0.0
C73 C 0.56876 1.00604 0.47004 0.0
H74 H 0.44834 0.04286 0.3618 0.0
C75 C 0.55672 1.00611 0.60058 0.0
C76 C 0.50554 0.01921 0.64551 0.0
H77 H 0.6087 0.9959 0.43799 0.0
H78 H 0.58716 0.99557 0.66602 0.0
C79 C 0.46676 0.03239 0.55772 0.0
C80 C 0.56135 0.55344 0.61307 0.0
C81 C 0.5064 0.5091 0.64092 0.0
H82 H 0.61562 0.59819 0.46681 0.0
C83 C 0.4632 0.47518 0.53898 0.0
H84 H 0.5956 0.58005 0.68974 0.0
C85 C 0.47483 0.48527 0.41143 0.0
C86 C 0.52978 0.5296 0.38357 0.0
H87 H 0.42055 0.44053 0.55766 0.0
H88 H 0.44057 0.45865 0.33479 0.0
C89 C 0.57298 0.56354 0.48551 0.0
C90 C 0.21369 0.45902 0.03562 0.0
C91 C 0.20139 0.5071 1.00558 0.0
H92 H 0.283 0.42111 0.05674 0.0
C93 C 0.25134 0.55415 0.96981 0.0
H94 H 0.17626 0.422 0.06329 0.0
C95 C 0.31217 0.55358 0.96565 0.0
C96 C 0.32486 0.50595 0.99726 0.0
H97 H 0.24375 0.59188 0.94542 0.0
H98 H 0.34938 0.59095 0.93872 0.0
C99 C 0.27485 0.45847 0.03158 0.0
C100 C 0.79778 0.21106 0.12614 0.0
C101 C 0.76766 0.17832 1.00904 0.0
H102 H 0.86938 0.28852 0.21822 0.0
C103 C 0.79168 0.19678 0.89266 0.0
H104 H 0.78026 0.19776 0.21746 0.0
C105 C 0.84281 0.24873 0.89331 0.0
C106 C 0.87061 0.28302 1.01031 0.0
H107 H 0.76935 0.17239 0.80116 0.0
H108 H 0.85886 0.26315 0.80197 0.0
C109 C 0.84879 0.26299 0.12679 0.0
C110 C 0.52335 0.8299 0.10245 0.0
C111 C 0.55211 0.86348 1.00644 0.0
H112 H 0.50357 0.75143 0.18181 0.0
C113 C 0.58607 0.84302 0.91626 0.0
H114 H 0.49744 0.84489 0.17401 0.0
C115 C 0.58871 0.78841 0.91935 0.0
C116 C 0.55864 0.75459 0.01446 0.0
H117 H 0.6085 0.86824 0.84114 0.0
H118 H 0.61346 0.77246 0.84703 0.0
C119 C 0.52706 0.7764 0.10712 0.0
C120 C 0.82264 0.57946 0.99026 0.0
C121 C 0.83466 0.53095 0.01814 0.0
H122 H 0.75356 0.61779 0.97097 0.0
C123 C 0.78444 0.48352 0.05165 0.0
H124 H 0.86028 0.61677 0.96437 0.0
C125 C 0.72365 0.48418 0.0559 0.0
C126 C 0.71125 0.53225 0.02659 0.0
H127 H 0.79179 0.44546 0.07431 0.0
H128 H 0.68626 0.44651 0.08111 0.0
C129 C 0.76149 0.58008 0.99433 0.0
C130 C 0.18492 0.77726 0.90476 0.0
C131 C 0.16563 0.75533 0.0208 0.0
H132 H 0.25122 0.84427 0.81442 0.0
C133 C 0.19553 0.78802 0.1381 0.0
H134 H 0.16265 0.75298 0.81312 0.0
C135 C 0.24626 0.84023 0.13905 0.0
C136 C 0.26782 0.86059 0.02268 0.0
H137 H 0.18144 0.77214 0.22915 0.0
H138 H 0.27026 0.86331 0.23044 0.0
C139 C 0.23559 0.82949 0.90571 0.0
C140 C 0.50719 0.26119 0.91667 0.0
C141 C 0.47674 0.28365 1.0106 0.0
H142 H 0.53595 0.1922 0.84927 0.0
C143 C 0.44768 0.25046 0.10745 0.0
H144 H 0.52988 0.28567 0.84063 0.0
C145 C 0.45027 0.19586 0.11107 0.0
C146 C 0.48319 0.17479 0.01962 0.0
H147 H 0.4238 0.26692 0.18079 0.0
H148 H 0.42869 0.17118 0.18757 0.0
C149 C 0.51087 0.20769 0.92181 0.0
loop_
_geom_bond_atom_site_label_1
_geom_bond_atom_site_label_2
_geom_bond_distance
_geom_bond_site_symmetry_2
_ccdc_geom_bond_type
Dy0 O4 2.398 . S
Dy0 O5 2.491 1_556 S
Dy0 O6 2.403 . S
Dy0 O7 2.664 1_655 S
Dy0 O11 2.326 . S
Dy0 O15 2.310 1_556 S
Dy0 O16 2.351 1_655 S
C1 O12 1.185 . S
C1 O13 1.355 1_554 S
C2 O4 1.185 . S
C2 O5 1.355 1_556 S
Dy3 O7 2.310 1_554 S
Dy3 O10 2.351 1_455 S
Dy3 O12 2.398 . S
Dy3 O13 2.491 1_554 S
Dy3 O14 2.403 . S
Dy3 O15 2.664 1_455 S
Dy3 O17 2.326 . S
O4 Dy0 2.398 . S
O4 C2 1.185 . S
O5 Dy0 2.491 1_554 S
O5 C2 1.355 1_554 S
O6 Dy0 2.403 . S
O6 C8 1.254 . S
O7 Dy0 2.664 1_455 S
O7 Dy3 2.310 1_556 S
O7 C8 1.268 1_455 S
C8 O6 1.254 . S
C8 O7 1.268 1_655 S
C9 O14 1.254 . S
C9 O15 1.268 1_455 S
O10 Dy3 2.351 1_655 S
O10 C18 1.249 1_554 S
O11 Dy0 2.326 . S
O11 C18 1.267 . S
O12 C1 1.185 . S
O12 Dy3 2.398 . S
O13 C1 1.355 1_556 S
O13 Dy3 2.491 1_556 S
O14 Dy3 2.403 . S
O14 C9 1.254 . S
O15 Dy0 2.310 1_554 S
O15 Dy3 2.664 1_655 S
O15 C9 1.268 1_655 S
O16 Dy0 2.351 1_455 S
O16 C19 1.249 1_556 S
O17 Dy3 2.326 . S
O17 C19 1.267 . S
C18 O10 1.249 1_556 S
C18 O11 1.267 . S
C19 O16 1.249 1_554 S
C19 O17 1.267 . S
Dy20 O24 2.398 . S
Dy20 O25 2.491 1_554 S
Dy20 O26 2.403 . S
Dy20 O27 2.664 1_545 S
Dy20 O31 2.326 . S
Dy20 O35 2.310 1_554 S
Dy20 O36 2.351 1_545 S
C21 O32 1.185 . S
C21 O33 1.355 1_556 S
C22 O24 1.185 . S
C22 O25 1.355 1_554 S
Dy23 O27 2.310 1_556 S
Dy23 O30 2.351 1_565 S
Dy23 O32 2.398 . S
Dy23 O33 2.491 1_556 S
Dy23 O34 2.403 . S
Dy23 O35 2.664 1_565 S
Dy23 O37 2.326 . S
O24 Dy20 2.398 . S
O24 C22 1.185 . S
O25 Dy20 2.491 1_556 S
O25 C22 1.355 1_556 S
O26 Dy20 2.403 . S
O26 C28 1.254 . S
O27 Dy20 2.664 1_565 S
O27 Dy23 2.310 1_554 S
O27 C28 1.268 1_565 S
C28 O26 1.254 . S
C28 O27 1.268 1_545 S
C29 O34 1.254 . S
C29 O35 1.268 1_565 S
O30 Dy23 2.351 1_545 S
O30 C38 1.249 1_556 S
O31 Dy20 2.326 . S
O31 C38 1.267 . S
O32 C21 1.185 . S
O32 Dy23 2.398 . S
O33 C21 1.355 1_554 S
O33 Dy23 2.491 1_554 S
O34 Dy23 2.403 . S
O34 C29 1.254 . S
O35 Dy20 2.310 1_556 S
O35 Dy23 2.664 1_545 S
O35 C29 1.268 1_545 S
O36 Dy20 2.351 1_565 S
O36 C39 1.249 1_554 S
O37 Dy23 2.326 . S
O37 C39 1.267 . S
C38 O30 1.249 1_554 S
C38 O31 1.267 . S
C39 O36 1.249 1_556 S
C39 O37 1.267 . S
Dy40 O44 2.398 . S
Dy40 O45 2.491 1_554 S
Dy40 O46 2.403 . S
Dy40 O47 2.664 . S
Dy40 O51 2.326 . S
Dy40 O55 2.310 1_554 S
Dy40 O56 2.351 . S
C41 O52 1.185 . S
C41 O53 1.355 1_556 S
C42 O44 1.185 . S
C42 O45 1.355 1_554 S
Dy43 O47 2.310 1_556 S
Dy43 O50 2.351 . S
Dy43 O52 2.398 . S
Dy43 O53 2.491 1_556 S
Dy43 O54 2.403 . S
Dy43 O55 2.664 . S
Dy43 O57 2.326 . S
O44 Dy40 2.398 . S
O44 C42 1.185 . S
O45 Dy40 2.491 1_556 S
O45 C42 1.355 1_556 S
O46 Dy40 2.403 . S
O46 C48 1.254 . S
O47 Dy40 2.664 . S
O47 Dy43 2.310 1_554 S
O47 C48 1.268 . S
C48 O46 1.254 . S
C48 O47 1.268 . S
C49 O54 1.254 . S
C49 O55 1.268 . S
O50 Dy43 2.351 . S
O50 C58 1.249 1_556 S
O51 Dy40 2.326 . S
O51 C58 1.267 . S
O52 C41 1.185 . S
O52 Dy43 2.398 . S
O53 C41 1.355 1_554 S
O53 Dy43 2.491 1_554 S
O54 Dy43 2.403 . S
O54 C49 1.254 . S
O55 Dy40 2.310 1_556 S
O55 Dy43 2.664 . S
O55 C49 1.268 . S
O56 Dy40 2.351 . S
O56 C59 1.249 1_554 S
O57 Dy43 2.326 . S
O57 C59 1.267 . S
C58 O50 1.249 1_554 S
C58 O51 1.267 . S
C59 O56 1.249 1_556 S
C59 O57 1.267 . S
C60 C61 1.387 . S
C60 H64 0.950 . S
C60 C69 1.390 . S
C61 C60 1.387 . S
C61 C63 1.387 1_455 S
H62 C69 0.950 . S
C63 C61 1.387 1_655 S
C63 C65 1.390 . S
C63 H67 0.950 . S
H64 C60 0.950 . S
C65 C63 1.390 . S
C65 C66 1.387 . S
C65 H68 0.950 . S
C66 C65 1.387 . S
C66 C69 1.387 1_655 S
H67 C63 0.950 . S
H68 C65 0.950 . S
C69 C60 1.390 . S
C69 H62 0.950 . S
C69 C66 1.387 1_455 S
C70 C71 1.387 1_565 S
C70 H74 0.950 . S
C70 C79 1.390 . S
C71 C70 1.387 1_545 S
C71 C73 1.387 . S
H72 C79 0.950 . S
C73 C71 1.387 . S
C73 C75 1.390 . S
C73 H77 0.950 . S
H74 C70 0.950 . S
C75 C73 1.390 . S
C75 C76 1.387 . S
C75 H78 0.950 . S
C76 C75 1.387 . S
C76 C79 1.387 1_545 S
H77 C73 0.950 . S
H78 C75 0.950 . S
C79 C70 1.390 . S
C79 H72 0.950 . S
C79 C76 1.387 1_565 S
C80 C81 1.387 . S
C80 H84 0.950 . S
C80 C89 1.390 . S
C81 C80 1.387 . S
C81 C83 1.387 . S
H82 C89 0.950 . S
C83 C81 1.387 . S
C83 C85 1.390 . S
C83 H87 0.950 . S
H84 C80 0.950 . S
C85 C83 1.390 . S
C85 C86 1.387 . S
C85 H88 0.950 . S
C86 C85 1.387 . S
C86 C89 1.387 . S
H87 C83 0.950 . S
H88 C85 0.950 . S
C89 C80 1.390 . S
C89 H82 0.950 . S
C89 C86 1.387 . S
C90 C91 1.387 1_554 S
C90 H94 0.950 . S
C90 C99 1.390 . S
C91 C90 1.387 1_556 S
C91 C93 1.387 . S
H92 C99 0.950 . S
C93 C91 1.387 . S
C93 C95 1.390 . S
C93 H97 0.950 . S
H94 C90 0.950 . S
C95 C93 1.390 . S
C95 C96 1.387 . S
C95 H98 0.950 . S
C96 C95 1.387 . S
C96 C99 1.387 1_556 S
H97 C93 0.950 . S
H98 C95 0.950 . S
C99 C90 1.390 . S
C99 H92 0.950 . S
C99 C96 1.387 1_554 S
C100 C101 1.387 1_554 S
C100 H104 0.950 . S
C100 C109 1.390 . S
C101 C100 1.387 1_556 S
C101 C103 1.387 . S
H102 C109 0.950 . S
C103 C101 1.387 . S
C103 C105 1.390 . S
C103 H107 0.950 . S
H104 C100 0.950 . S
C105 C103 1.390 . S
C105 C106 1.387 . S
C105 H108 0.950 . S
C106 C105 1.387 . S
C106 C109 1.387 1_556 S
H107 C103 0.950 . S
H108 C105 0.950 . S
C109 C100 1.390 . S
C109 H102 0.950 . S
C109 C106 1.387 1_554 S
C110 C111 1.387 1_554 S
C110 H114 0.950 . S
C110 C119 1.390 . S
C111 C110 1.387 1_556 S
C111 C113 1.387 . S
H112 C119 0.950 . S
C113 C111 1.387 . S
C113 C115 1.390 . S
C113 H117 0.950 . S
H114 C110 0.950 . S
C115 C113 1.390 . S
C115 C116 1.385 1_556 S
C115 H118 0.950 . S
C116 C115 1.385 1_554 S
C116 C119 1.390 . S
H117 C113 0.950 . S
H118 C115 0.950 . S
C119 C110 1.390 . S
C119 H112 0.950 . S
C119 C116 1.390 . S
C120 C121 1.387 . S
C120 H124 0.950 . S
C120 C129 1.390 . S
C121 C120 1.387 . S
C121 C123 1.387 1_554 S
H122 C129 0.950 . S
C123 C121 1.387 1_556 S
C123 C125 1.390 . S
C123 H127 0.950 . S
H124 C120 0.950 . S
C125 C123 1.390 . S
C125 C126 1.387 1_556 S
C125 H128 0.950 . S
C126 C125 1.387 1_554 S
C126 C129 1.387 . S
H127 C123 0.950 . S
H128 C125 0.950 . S
C129 C120 1.390 . S
C129 H122 0.950 . S
C129 C126 1.387 . S
C130 C131 1.387 1_556 S
C130 H134 0.950 . S
C130 C139 1.390 . S
C131 C130 1.387 1_554 S
C131 C133 1.387 . S
H132 C139 0.950 . S
C133 C131 1.387 . S
C133 C135 1.390 . S
C133 H137 0.950 . S
H134 C130 0.950 . S
C135 C133 1.390 . S
C135 C136 1.387 . S
C135 H138 0.950 . S
C136 C135 1.387 . S
C136 C139 1.387 1_554 S
H137 C133 0.950 . S
H138 C135 0.950 . S
C139 C130 1.390 . S
C139 H132 0.950 . S
C139 C136 1.387 1_556 S
C140 C141 1.388 . S
C140 H144 0.950 . S
C140 C149 1.390 . S
C141 C140 1.388 . S
C141 C143 1.386 1_556 S
H142 C149 0.950 . S
C143 C141 1.386 1_554 S
C143 C145 1.390 . S
C143 H147 0.950 . S
H144 C140 0.950 . S
C145 C143 1.390 . S
C145 C146 1.387 . S
C145 H148 0.950 . S
C146 C145 1.387 . S
C146 C149 1.387 1_554 S
H147 C143 0.950 . S
H148 C145 0.950 . S
C149 C140 1.390 . S
C149 H142 0.950 . S
C149 C146 1.387 1_556 S
C61 C8 1.462 1_455 S
C66 C9 1.462 1_655 S
C71 C28 1.455 . S
C76 C29 1.455 1_545 S
C81 C49 1.463 . S
C86 C48 1.463 . S
C91 C19 1.783 1_556 S
C96 C58 1.767 1_556 S
C101 C22 1.257 1_556 S
C106 C2 1.235 . S
C111 C39 1.551 . S
C116 C42 1.505 . S
C121 C18 1.783 1_554 S
C126 C59 1.769 1_554 S
C131 C1 1.237 . S
C136 C21 1.256 1_554 S
C141 C41 1.501 . S
C146 C38 1.550 . S
