# Generated by pormake.
# Topology cds, (4)-cn, num edge types: 1
# Building blocks:
#     Node 0, Type 0, BuildingBlock: ESEHIV_clean_sbu_0, # of connection points: 4
#     Node 1, Type 0, BuildingBlock: ESEHIV_clean_sbu_0, # of connection points: 4
#     Edge 2, Type (0, 0), BuildingBlock: TEMPAE_clean_linker_10, # of connection points: 2
#     Edge 3, Type (0, 0), BuildingBlock: TEMPAE_clean_linker_10, # of connection points: 2
#     Edge 4, Type (0, 0), BuildingBlock: TEMPAE_clean_linker_10, # of connection points: 2
#     Edge 5, Type (0, 0), BuildingBlock: TEMPAE_clean_linker_10, # of connection points: 2
# Relax obj value: 0.000
# Max RMSD: 0.099
# Mean RMSD: 0.094
data_MOF--net-cds--node1-ESEHIV_clean_sbu_0--edge1-TEMPAE_clean_linker_10
_symmetry_space_group_name_H-M    P1
_symmetry_Int_Tables_number       1
_symmetry_cell_setting            triclinic
loop_
_symmetry_equiv_pos_as_xyz
'x, y, z'
_cell_length_a     14.816754
_cell_length_b     17.265926
_cell_length_c     32.032572
_cell_angle_alpha  103.32563
_cell_angle_beta   102.99224
_cell_angle_gamma 87.648642
loop_
_atom_site_label
_atom_site_type_symbol
_atom_site_fract_x
_atom_site_fract_y
_atom_site_fract_z
_atom_type_partial_charge
Cu0 Cu 0.18383 0.07649 0.06441 0.0
N1 N 0.18566 1.01721 1.00753 0.0
N2 N 0.17343 0.98771 0.93434 0.0
C3 C 0.15324 0.04036 0.96948 0.0
C4 C 0.22098 0.92951 0.95152 0.0
C5 C 0.22919 0.94828 0.9964 0.0
O6 O 0.29809 0.13961 0.08316 0.0
C7 C 0.99634 0.09791 0.04406 0.0
O8 O 1.00348 1.02315 0.02401 0.0
H9 H 0.11819 0.09619 0.96819 0.0
H10 H 0.26712 0.91518 0.01943 0.0
N11 N 0.17957 1.01154 0.10365 0.0
N12 N 0.1627 0.97774 0.16506 0.0
C13 C 0.17386 0.03796 0.14602 0.0
C14 C 0.17122 0.93186 0.09544 0.0
C15 C 0.1614 0.91086 0.13319 0.0
C16 C 0.37175 0.10652 0.09963 0.0
O17 O 0.36496 0.03632 0.10805 0.0
H18 H 0.1736 0.1005 0.16183 0.0
H19 H 0.16886 0.89178 0.06388 0.0
O20 O 0.07046 0.13798 0.06314 0.0
H21 H 0.24918 0.87707 0.93337 0.0
H22 H 0.1523 0.85087 0.1365 0.0
Cu23 Cu 0.9292 1.01659 0.52891 0.0
N24 N 0.8554 0.9244 0.50911 0.0
N25 N 0.81036 0.79856 0.5007 0.0
C26 C 0.87918 0.85327 0.51856 0.0
C27 C 0.74088 0.83702 0.47882 0.0
C28 C 0.7689 0.91454 0.48405 0.0
O29 O 1.00055 1.01609 0.58822 0.0
C30 C 0.95633 1.02817 0.44816 0.0
O31 O 0.86649 0.03866 0.44292 0.0
H32 H 0.9459 0.84222 0.53823 0.0
H33 H 0.72863 0.96066 0.47093 0.0
N34 N 0.85584 0.10759 0.53277 0.0
N35 N 0.81082 0.23251 0.53148 0.0
C36 C 0.87966 0.1791 0.52819 0.0
C37 C 0.76929 0.11586 0.53955 0.0
C38 C 0.74128 0.19274 0.53873 0.0
C39 C 0.95406 1.00177 0.61472 0.0
O40 O 0.86424 0.98991 0.60071 0.0
H41 H 0.94646 0.19136 0.52262 0.0
H42 H 0.72901 0.06904 0.54429 0.0
O43 O 1.00219 1.01708 0.48508 0.0
H44 H 0.67373 0.81169 0.4611 0.0
H45 H 0.67408 0.21673 0.54225 0.0
C46 C 0.09719 0.92438 0.21758 0.0
C47 C 0.1467 0.98412 0.20871 0.0
C48 C 0.07617 0.93185 0.25897 0.0
C49 C 0.10494 1.00092 0.29256 0.0
C50 C 0.15744 0.06033 0.2844 0.0
C51 C 0.17769 0.05123 0.24266 0.0
C52 C 0.01981 0.8671 0.26613 0.0
C53 C 0.18958 0.13482 0.3193 0.0
C54 C 0.95078 0.05627 0.37469 0.0
C55 C 1.00014 1.02704 0.41059 0.0
C56 C 0.98571 0.05046 0.33688 0.0
C57 C 0.07226 1.01396 0.33451 0.0
C58 C 0.12406 0.98649 0.37115 0.0
C59 C 0.08754 0.99365 0.4089 0.0
C60 C 0.9284 0.08132 0.29887 0.0
C61 C 0.21651 0.94712 0.36986 0.0
H62 H 0.07185 0.8727 0.19171 0.0
H63 H 0.21731 0.0971 0.23655 0.0
H64 H 0.05419 0.84794 0.29656 0.0
H65 H 0.95082 0.89045 0.2705 0.0
H66 H 1.00951 0.81424 0.23811 0.0
H67 H 0.23646 0.17203 0.30917 0.0
H68 H 0.1287 0.17089 0.32624 0.0
H69 H 0.22621 0.11925 0.35044 0.0
H70 H 0.88362 0.083 0.37581 0.0
H71 H 0.12605 0.97085 0.43645 0.0
H72 H 0.9072 0.03116 0.2699 0.0
H73 H 0.97006 0.1234 0.28922 0.0
H74 H 0.86505 0.11213 0.30688 0.0
H75 H 0.20658 0.89016 0.34471 0.0
H76 H 0.25143 0.93458 0.40209 0.0
H77 H 0.26277 0.98536 0.36014 0.0
C78 C 0.088 0.04975 0.87422 0.0
C79 C 0.15105 0.99305 0.88849 0.0
C80 C 0.06381 0.05392 0.82974 0.0
C81 C 0.10214 0.99932 0.79824 0.0
C82 C 0.16689 0.94293 0.81225 0.0
C83 C 0.19102 0.94088 0.85703 0.0
C84 C 0.99506 0.11554 0.81627 0.0
C85 C 0.20861 0.88295 0.7797 0.0
C86 C 0.95413 0.95256 0.68189 0.0
C87 C 0.99772 0.99749 0.66057 0.0
C88 C 0.98894 0.95114 0.72619 0.0
C89 C 0.06863 0.99702 0.75032 0.0
C90 C 0.1141 0.04158 0.72884 0.0
C91 C 0.0786 0.04064 0.684 0.0
C92 C 0.93932 0.90137 0.74735 0.0
C93 C 0.19851 0.09204 0.75356 0.0
H94 H 0.05567 0.09029 0.8975 0.0
H95 H 0.24091 0.89756 0.86702 0.0
H96 H 0.02281 0.14928 0.79623 0.0
H97 H 0.93006 0.08561 0.79552 0.0
H98 H 0.97805 0.15829 0.84506 0.0
H99 H 0.26167 0.84571 0.79604 0.0
H100 H 0.15324 0.8432 0.75657 0.0
H101 H 0.24099 0.91364 0.75983 0.0
H102 H 0.8921 0.91837 0.66384 0.0
H103 H 0.1122 0.07581 0.66774 0.0
H104 H 0.91132 0.94046 0.77407 0.0
H105 H 0.98852 0.8601 0.76247 0.0
H106 H 0.8812 0.86586 0.72345 0.0
H107 H 0.17997 0.13913 0.78019 0.0
H108 H 0.22792 0.12081 0.73183 0.0
H109 H 0.2528 0.05527 0.76938 0.0
C110 C 0.82465 0.08567 0.02372 0.0
C111 C 0.90385 0.12816 0.05001 0.0
C112 C 0.73758 0.10114 0.03387 0.0
C113 C 0.72895 0.16112 0.07119 0.0
C114 C 0.80709 0.209 0.09568 0.0
C115 C 0.894 0.19178 0.08487 0.0
C116 C 0.65631 0.04876 1.00656 0.0
C117 C 0.80048 0.27472 0.13505 0.0
C118 C 0.47637 0.19267 0.0769 0.0
C119 C 0.46496 0.13684 0.10103 0.0
C120 C 0.56422 0.20723 0.07007 0.0
C121 C 0.6418 0.1645 0.0875 0.0
C122 C 0.63173 0.11379 0.11522 0.0
C123 C 0.54365 0.10088 0.12173 0.0
C124 C 0.57245 0.26354 0.04141 0.0
C125 C 0.71244 0.06737 0.13484 0.0
H126 H 0.83141 0.03719 0.99631 0.0
H127 H 0.95481 0.22513 0.10528 0.0
H128 H 0.63573 1.01068 0.02653 0.0
H129 H 0.5958 0.08556 0.99649 0.0
H130 H 0.67265 1.00954 0.97652 0.0
H131 H 0.85969 0.31729 0.14403 0.0
H132 H 0.73489 0.30782 0.12875 0.0
H133 H 0.80099 0.24855 0.16364 0.0
H134 H 0.41609 0.22127 0.06103 0.0
H135 H 0.53578 0.05868 0.14106 0.0
H136 H 0.57442 0.2288 1.00787 0.0
H137 H 0.63751 0.29917 0.05447 0.0
H138 H 0.51279 0.30462 0.03873 0.0
H139 H 0.73282 1.02134 0.10825 0.0
H140 H 0.6954 0.03728 0.15929 0.0
H141 H 0.77326 0.10709 0.15111 0.0
C142 C 0.86846 0.69404 0.54118 0.0
C143 C 0.81037 0.71707 0.50508 0.0
C144 C 0.86935 0.61509 0.54585 0.0
C145 C 0.81024 0.55758 0.51381 0.0
C146 C 0.75112 0.58031 0.47741 0.0
C147 C 0.75208 0.65961 0.47342 0.0
C148 C 0.93353 0.59324 0.58512 0.0
C149 C 0.68687 0.52078 0.4426 0.0
C150 C 0.86989 0.33864 0.50384 0.0
C151 C 0.81084 0.31407 0.52715 0.0
C152 C 0.87063 0.41764 0.49938 0.0
C153 C 0.81036 0.47359 0.51837 0.0
C154 C 0.75032 0.44933 0.54177 0.0
C155 C 0.75151 0.37007 0.546 0.0
C156 C 0.93589 0.44121 0.47426 0.0
C157 C 0.68483 0.50718 0.56241 0.0
H158 H 0.91258 0.73796 0.56626 0.0
H159 H 0.70781 0.67632 0.44515 0.0
H160 H 0.89282 0.56957 0.60467 0.0
H161 H 0.98095 0.5455 0.57393 0.0
H162 H 0.97576 0.64482 0.60691 0.0
H163 H 0.64441 0.54814 0.4166 0.0
H164 H 0.72758 0.47176 0.42692 0.0
H165 H 0.63969 0.49383 0.45789 0.0
H166 H 0.91491 0.2959 0.4885 0.0
H167 H 0.70651 0.35229 0.56456 0.0
H168 H 0.98239 0.49027 0.49571 0.0
H169 H 0.89594 0.4637 0.44587 0.0
H170 H 0.9791 0.3908 0.46186 0.0
H171 H 0.72459 0.55726 0.58687 0.0
H172 H 0.64173 0.47871 0.57907 0.0
H173 H 0.63824 0.53289 0.53687 0.0
loop_
_geom_bond_atom_site_label_1
_geom_bond_atom_site_label_2
_geom_bond_distance
_geom_bond_site_symmetry_2
_ccdc_geom_bond_type
Cu0 N1 1.999 1_454 S
Cu0 O6 1.974 . S
Cu0 N11 1.985 . S
Cu0 O20 1.959 1_455 S
N1 Cu0 1.999 1_656 S
N1 C3 1.263 1_655 S
N1 C5 1.389 . S
N2 C3 1.358 1_655 S
N2 C4 1.400 . S
C3 N1 1.263 1_455 S
C3 N2 1.358 1_455 S
C3 H9 0.930 1_545 S
C4 N2 1.400 . S
C4 C5 1.351 . S
C4 H21 0.930 . S
C5 N1 1.389 . S
C5 C4 1.351 . S
C5 H10 0.930 . S
O6 Cu0 1.974 . S
O6 C16 1.282 1_545 S
C7 O8 1.261 . S
C7 O20 1.251 1_565 S
O8 C7 1.261 . S
H9 C3 0.930 1_565 S
H10 C5 0.930 . S
N11 Cu0 1.985 . S
N11 C13 1.335 1_455 S
N11 C14 1.390 1_545 S
N12 C13 1.345 1_455 S
N12 C15 1.336 1_545 S
C13 N11 1.335 1_655 S
C13 N12 1.345 1_655 S
C13 H18 0.930 . S
C14 N11 1.390 1_565 S
C14 C15 1.346 . S
C14 H19 0.930 . S
C15 N12 1.336 1_565 S
C15 C14 1.346 . S
C15 H22 0.929 . S
C16 O6 1.282 1_565 S
C16 O17 1.216 . S
O17 C16 1.216 . S
H18 C13 0.930 . S
H19 C14 0.930 . S
O20 Cu0 1.959 1_655 S
O20 C7 1.251 1_545 S
H21 C4 0.930 . S
H22 C15 0.929 . S
Cu23 N24 1.999 1_545 S
Cu23 O29 1.974 . S
Cu23 N34 1.985 . S
Cu23 O43 1.959 . S
N24 Cu23 1.999 1_565 S
N24 C26 1.263 . S
N24 C28 1.389 . S
N25 C26 1.358 . S
N25 C27 1.400 . S
C26 N24 1.263 . S
C26 N25 1.358 . S
C26 H32 0.930 1_455 S
C27 N25 1.400 . S
C27 C28 1.351 . S
C27 H44 0.930 . S
C28 N24 1.389 . S
C28 C27 1.351 . S
C28 H33 0.930 . S
O29 Cu23 1.974 . S
O29 C39 1.282 1_455 S
C30 O31 1.261 1_545 S
C30 O43 1.251 1_655 S
O31 C30 1.261 1_565 S
H32 C26 0.930 1_655 S
H33 C28 0.930 . S
N34 Cu23 1.985 . S
N34 C36 1.335 . S
N34 C37 1.390 1_455 S
N35 C36 1.345 . S
N35 C38 1.336 1_455 S
C36 N34 1.335 . S
C36 N35 1.345 . S
C36 H41 0.930 . S
C37 N34 1.390 1_655 S
C37 C38 1.346 . S
C37 H42 0.930 . S
C38 N35 1.336 1_655 S
C38 C37 1.346 . S
C38 H45 0.929 . S
C39 O29 1.282 1_655 S
C39 O40 1.216 . S
O40 C39 1.216 . S
H41 C36 0.930 . S
H42 C37 0.930 . S
O43 Cu23 1.959 . S
O43 C30 1.251 1_455 S
H44 C27 0.930 . S
H45 C38 0.929 . S
C46 C47 1.391 1_665 S
C46 C48 1.394 . S
C46 H62 0.931 . S
C47 C46 1.391 1_445 S
C47 C51 1.376 . S
C48 C46 1.394 . S
C48 C49 1.369 1_665 S
C48 C52 1.531 . S
C49 C48 1.369 1_445 S
C49 C50 1.410 . S
C49 C57 1.507 . S
C50 C49 1.410 . S
C50 C51 1.392 . S
C50 C53 1.511 . S
C51 C47 1.376 . S
C51 C50 1.392 . S
C51 H63 0.929 . S
C52 C48 1.531 . S
C52 H64 0.960 . S
C52 H65 0.962 . S
C52 H66 0.960 . S
C53 C50 1.511 . S
C53 H67 0.961 . S
C53 H68 0.961 . S
C53 H69 0.961 . S
C54 C55 1.370 . S
C54 C56 1.363 . S
C54 H70 0.931 . S
C55 C54 1.370 . S
C55 C59 1.408 1_645 S
C56 C54 1.363 . S
C56 C57 1.362 1_655 S
C56 C60 1.524 . S
C57 C49 1.507 . S
C57 C56 1.362 1_455 S
C57 C58 1.407 1_545 S
C58 C57 1.407 1_565 S
C58 C59 1.404 . S
C58 C61 1.539 . S
C59 C55 1.408 1_465 S
C59 C58 1.404 . S
C59 H71 0.930 . S
C60 C56 1.524 . S
C60 H72 0.956 . S
C60 H73 0.961 . S
C60 H74 0.961 . S
C61 C58 1.539 . S
C61 H75 0.958 . S
C61 H76 0.961 . S
C61 H77 0.960 . S
H62 C46 0.931 . S
H63 C51 0.929 . S
H64 C52 0.960 . S
H65 C52 0.962 . S
H66 C52 0.960 . S
H67 C53 0.961 . S
H68 C53 0.961 . S
H69 C53 0.961 . S
H70 C54 0.931 . S
H71 C59 0.930 . S
H72 C60 0.956 . S
H73 C60 0.961 . S
H74 C60 0.961 . S
H75 C61 0.958 . S
H76 C61 0.961 . S
H77 C61 0.960 . S
C78 C79 1.391 1_655 S
C78 C80 1.394 . S
C78 H94 0.931 . S
C79 C78 1.391 1_455 S
C79 C83 1.376 1_545 S
C80 C78 1.394 . S
C80 C81 1.369 1_655 S
C80 C84 1.531 . S
C81 C80 1.369 1_455 S
C81 C82 1.410 1_545 S
C81 C89 1.503 . S
C82 C81 1.410 1_565 S
C82 C83 1.392 . S
C82 C85 1.511 . S
C83 C79 1.376 1_565 S
C83 C82 1.392 . S
C83 H95 0.929 . S
C84 C80 1.531 . S
C84 H96 0.960 . S
C84 H97 0.962 . S
C84 H98 0.960 . S
C85 C82 1.511 . S
C85 H99 0.961 . S
C85 H100 0.961 . S
C85 H101 0.961 . S
C86 C87 1.370 1_565 S
C86 C88 1.363 . S
C86 H102 0.931 . S
C87 C86 1.370 1_545 S
C87 C91 1.408 1_655 S
C88 C86 1.363 . S
C88 C89 1.370 1_665 S
C88 C92 1.524 . S
C89 C81 1.503 . S
C89 C88 1.370 1_445 S
C89 C90 1.403 . S
C90 C89 1.403 . S
C90 C91 1.404 . S
C90 C93 1.539 . S
C91 C87 1.408 1_455 S
C91 C90 1.404 . S
C91 H103 0.930 . S
C92 C88 1.524 . S
C92 H104 0.956 . S
C92 H105 0.961 . S
C92 H106 0.961 . S
C93 C90 1.539 . S
C93 H107 0.958 . S
C93 H108 0.961 . S
C93 H109 0.960 . S
H94 C78 0.931 . S
H95 C83 0.929 . S
H96 C84 0.960 . S
H97 C84 0.962 . S
H98 C84 0.960 . S
H99 C85 0.961 . S
H100 C85 0.961 . S
H101 C85 0.961 . S
H102 C86 0.931 . S
H103 C91 0.930 . S
H104 C92 0.956 . S
H105 C92 0.961 . S
H106 C92 0.961 . S
H107 C93 0.958 . S
H108 C93 0.961 . S
H109 C93 0.960 . S
C110 C111 1.391 1_556 S
C110 C112 1.394 . S
C110 H126 0.931 . S
C111 C110 1.391 1_554 S
C111 C115 1.376 . S
C112 C110 1.394 . S
C112 C113 1.369 1_556 S
C112 C116 1.531 . S
C113 C112 1.369 1_554 S
C113 C114 1.410 . S
C113 C121 1.503 . S
C114 C113 1.410 . S
C114 C115 1.392 . S
C114 C117 1.511 1_565 S
C115 C111 1.376 . S
C115 C114 1.392 . S
C115 H127 0.929 1_565 S
C116 C112 1.531 . S
C116 H128 0.960 . S
C116 H129 0.962 . S
C116 H130 0.960 . S
C117 C114 1.511 1_545 S
C117 H131 0.961 . S
C117 H132 0.961 . S
C117 H133 0.961 1_545 S
C118 C119 1.370 1_545 S
C118 C120 1.363 . S
C118 H134 0.931 . S
C119 C118 1.370 1_565 S
C119 C123 1.408 . S
C120 C118 1.363 . S
C120 C121 1.370 1_545 S
C120 C124 1.524 . S
C121 C113 1.503 . S
C121 C120 1.370 1_565 S
C121 C122 1.403 . S
C122 C121 1.403 . S
C122 C123 1.404 . S
C122 C125 1.539 . S
C123 C119 1.408 . S
C123 C122 1.404 . S
C123 H135 0.930 . S
C124 C120 1.524 . S
C124 H136 0.956 1_554 S
C124 H137 0.961 . S
C124 H138 0.961 . S
C125 C122 1.539 . S
C125 H139 0.958 . S
C125 H140 0.961 . S
C125 H141 0.960 . S
H126 C110 0.931 . S
H127 C115 0.929 1_545 S
H128 C116 0.960 . S
H129 C116 0.962 . S
H130 C116 0.960 . S
H131 C117 0.961 . S
H132 C117 0.961 . S
H133 C117 0.961 1_565 S
H134 C118 0.931 . S
H135 C123 0.930 . S
H136 C124 0.956 1_556 S
H137 C124 0.961 . S
H138 C124 0.961 . S
H139 C125 0.958 . S
H140 C125 0.961 . S
H141 C125 0.960 . S
C142 C143 1.391 . S
C142 C144 1.394 . S
C142 H158 0.931 . S
C143 C142 1.391 . S
C143 C147 1.376 1_455 S
C144 C142 1.394 . S
C144 C145 1.369 . S
C144 C148 1.531 . S
C145 C144 1.369 . S
C145 C146 1.410 1_455 S
C145 C153 1.503 . S
C146 C145 1.410 1_655 S
C146 C147 1.392 . S
C146 C149 1.511 . S
C147 C143 1.376 1_655 S
C147 C146 1.392 . S
C147 H159 0.929 . S
C148 C144 1.531 . S
C148 H160 0.960 . S
C148 H161 0.962 . S
C148 H162 0.960 . S
C149 C146 1.511 . S
C149 H163 0.961 . S
C149 H164 0.961 . S
C149 H165 0.961 . S
C150 C151 1.370 . S
C150 C152 1.363 . S
C150 H166 0.931 . S
C151 C150 1.370 . S
C151 C155 1.408 . S
C152 C150 1.363 . S
C152 C153 1.370 . S
C152 C156 1.524 . S
C153 C145 1.503 . S
C153 C152 1.370 . S
C153 C154 1.403 . S
C154 C153 1.403 . S
C154 C155 1.404 . S
C154 C157 1.539 . S
C155 C151 1.408 . S
C155 C154 1.404 . S
C155 H167 0.930 . S
C156 C152 1.524 . S
C156 H168 0.956 . S
C156 H169 0.961 1_455 S
C156 H170 0.961 . S
C157 C154 1.539 . S
C157 H171 0.958 . S
C157 H172 0.961 1_455 S
C157 H173 0.960 1_455 S
H158 C142 0.931 . S
H159 C147 0.929 . S
H160 C148 0.960 . S
H161 C148 0.962 . S
H162 C148 0.960 . S
H163 C149 0.961 . S
H164 C149 0.961 . S
H165 C149 0.961 . S
H166 C150 0.931 . S
H167 C155 0.930 . S
H168 C156 0.956 . S
H169 C156 0.961 1_655 S
H170 C156 0.961 . S
H171 C157 0.958 . S
H172 C157 0.961 1_655 S
H173 C157 0.960 1_655 S
C47 N12 1.445 . S
C55 C30 1.497 . S
C79 N2 1.462 1_455 S
C87 C39 1.495 . S
C111 C7 1.486 . S
C119 C16 1.476 . S
C143 N25 1.473 . S
C151 N35 1.450 . S
