# Generated by pormake.
# Topology pcu, (6)-cn, num edge types: 1
# Building blocks:
#     Node 0, Type 0, BuildingBlock: KUMBUR_clean_sbu_0, # of connection points: 6
#     Edge 1, Type (0, 0), None
#     Edge 2, Type (0, 0), None
#     Edge 3, Type (0, 0), None
# Relax obj value: 0.000
# Max RMSD: 0.000
# Mean RMSD: 0.000
data_MOF--net-pcu--node1-KUMBUR_clean_sbu_0--edge1-none
_symmetry_space_group_name_H-M    P1
_symmetry_Int_Tables_number       1
_symmetry_cell_setting            triclinic
loop_
_symmetry_equiv_pos_as_xyz
'x, y, z'
_cell_length_a     6.1296613
_cell_length_b     19.958995
_cell_length_c     7.5766065
_cell_angle_alpha  110.15543
_cell_angle_beta   78.803944
_cell_angle_gamma 122.92332
loop_
_atom_site_label
_atom_site_type_symbol
_atom_site_fract_x
_atom_site_fract_y
_atom_site_fract_z
_atom_type_partial_charge
Tb0 Tb 0.08761 0.04133 -0.00455 0.0
C1 C 0.15743 0.67562 0.71444 0.0
C2 C 0.84552 0.65857 0.07193 0.0
C3 C 0.54581 0.57708 0.69667 0.0
C4 C 0.14417 0.69652 -0.0515 0.0
C5 C 0.8704 0.61698 0.57786 0.0
C6 C 0.5394 0.59514 -0.05115 0.0
C7 C 0.17515 0.65709 0.34108 0.0
N8 N 0.38783 0.72638 0.64596 0.0
C9 C 0.38238 0.71879 0.46046 0.0
C10 C 0.9169 0.61139 0.39931 0.0
Tb11 Tb 0.74838 0.82273 0.86032 0.0
N12 N 0.35032 0.77239 0.0293 0.0
C13 C 0.3096 0.8195 0.19637 0.0
C14 C 0.86576 0.70954 0.2514 0.0
C15 C 0.0908 0.78748 0.30951 0.0
H16 H 0.54122 0.75717 0.38598 0.0
H17 H 0.10452 0.82557 0.45025 0.0
H18 H 0.3618 0.57512 0.02715 0.0
H19 H 0.22316 0.65665 0.1987 0.0
H20 H 0.45402 0.88412 0.25209 0.0
H21 H 0.73123 0.03835 0.40551 0.0
H22 H 0.71317 0.68605 0.34814 0.0
H23 H 0.29508 0.10693 0.46986 0.0
H24 H 0.38181 -0.02013 0.60372 0.0
H25 H 0.61342 0.20752 0.65702 0.0
H26 H 0.37043 0.54571 0.62445 0.0
H27 H 0.12259 0.17785 0.50749 0.0
H28 H 0.47405 0.28891 0.82824 0.0
H29 H 0.74584 0.57486 0.3136 0.0
H30 H 0.46573 0.31835 0.23086 0.0
N31 N 0.48566 0.09163 0.82646 0.0
C32 C 0.52628 0.04449 0.6594 0.0
C33 C -0.02997 0.1544 0.60428 0.0
C34 C -0.00975 0.20544 0.78367 0.0
C35 C 0.74501 0.07647 0.54622 0.0
C36 C 0.69174 0.16753 0.90722 0.0
H37 H 0.09063 0.28918 0.54185 0.0
N38 N 0.44827 0.13767 0.20978 0.0
C39 C 0.6612 0.20704 0.5146 0.0
C40 C 0.6786 0.18844 0.14126 0.0
C41 C 0.45385 0.14531 0.39531 0.0
C42 C -0.08054 0.25262 0.45623 0.0
C43 C -0.03424 0.24709 0.27772 0.0
O44 O -0.04033 0.12058 0.14438 0.0
O45 O 0.72444 0.92812 0.88188 0.0
O46 O 0.80621 0.86314 0.59207 0.0
O47 O 0.03973 0.00632 0.6741 0.0
O48 O 0.68864 0.01914 0.08248 0.0
O49 O 0.10562 0.12042 0.87093 0.0
O50 O 0.87599 0.74341 0.71117 0.0
O51 O 0.11131 -0.0641 -0.02641 0.0
O52 O 0.02997 0.00097 0.26371 0.0
O53 O 0.79629 0.85778 0.18168 0.0
O54 O 0.14748 0.84496 0.77341 0.0
O55 O 0.73083 0.74372 -0.01516 0.0
C56 C 0.55427 -0.05203 -0.03727 0.0
C57 C 0.00506 0.30777 0.05958 0.0
C58 C -0.07783 0.41115 -0.00918 0.0
C59 C -0.0558 0.3387 -0.06381 0.0
C60 C -0.08192 0.44633 0.17452 0.0
C61 C 0.1299 0.38731 0.22328 0.0
C62 C 0.08832 0.45286 0.27384 0.0
C63 C -0.08032 -0.06652 0.53796 0.0
C64 C -0.00578 0.15436 0.00954 0.0
C65 C 0.29028 0.28701 0.15878 0.0
C66 C 0.29648 0.26891 0.9066 0.0
C67 C 0.28182 0.91617 0.89304 0.0
C68 C 0.83084 0.55627 0.79601 0.0
C69 C 0.89214 0.52541 0.9193 0.0
C70 C 0.9139 0.4529 0.86464 0.0
C71 C 0.91737 0.41762 0.68096 0.0
C72 C 0.70561 0.4767 0.63244 0.0
C73 C 0.74676 0.41105 0.58196 0.0
C74 C 0.91644 0.93062 0.3178 0.0
C75 C 0.84185 0.70971 0.84606 0.0
H76 H -0.07381 0.31168 0.79668 0.0
H77 H 0.80442 0.47347 0.23204 0.0
H78 H 0.24745 0.39974 0.33264 0.0
H79 H 0.15841 0.50313 0.3993 0.0
H80 H 0.91094 0.55256 0.05876 0.0
H81 H 0.03075 0.39041 0.62325 0.0
H82 H 0.58811 0.46427 0.52307 0.0
H83 H 0.67624 0.36072 0.45664 0.0
loop_
_geom_bond_atom_site_label_1
_geom_bond_atom_site_label_2
_geom_bond_distance
_geom_bond_site_symmetry_2
_ccdc_geom_bond_type
Tb0 N31 2.660 1_554 S
Tb0 N38 2.600 . S
Tb0 O44 2.546 . S
Tb0 O45 2.610 1_444 S
Tb0 O47 2.320 1_554 S
Tb0 O48 2.552 1_455 S
Tb0 O49 2.413 . S
Tb0 O51 2.362 . S
Tb0 O52 2.421 1_455 S
Tb0 C64 2.833 . S
C1 C4 1.432 . S
C1 C5 1.414 . S
C1 N8 1.359 . S
C2 C4 1.417 1_655 S
C2 C6 1.432 . S
C2 C14 1.410 1_556 S
C3 C5 1.444 1_655 S
C3 C6 1.317 . S
C3 H26 0.929 . S
C4 C1 1.432 . S
C4 C2 1.417 1_455 S
C4 N12 1.360 1_556 S
C5 C1 1.414 . S
C5 C3 1.444 1_455 S
C5 C10 1.385 . S
C6 C2 1.432 . S
C6 C3 1.317 . S
C6 H18 0.930 . S
C7 C9 1.392 . S
C7 C10 1.370 . S
C7 H19 0.931 . S
N8 C1 1.359 . S
N8 C9 1.327 . S
N8 Tb11 2.600 . S
C9 C7 1.392 . S
C9 N8 1.327 . S
C9 H16 0.930 . S
C10 C5 1.385 . S
C10 C7 1.370 . S
C10 H29 0.930 . S
Tb11 N8 2.600 . S
Tb11 N12 2.660 1_556 S
Tb11 O45 2.362 . S
Tb11 O46 2.421 1_655 S
Tb11 O50 2.546 . S
Tb11 O51 2.610 1_666 S
Tb11 O53 2.320 1_556 S
Tb11 O54 2.552 1_655 S
Tb11 O55 2.413 . S
Tb11 C75 2.833 . S
N12 C4 1.360 1_554 S
N12 Tb11 2.660 1_554 S
N12 C13 1.305 . S
C13 N12 1.305 . S
C13 C15 1.407 . S
C13 H20 0.930 . S
C14 C2 1.410 1_554 S
C14 C15 1.345 1_655 S
C14 H22 0.930 . S
C15 C13 1.407 . S
C15 C14 1.345 1_455 S
C15 H17 0.930 . S
H16 C9 0.930 . S
H17 C15 0.930 . S
H18 C6 0.930 . S
H19 C7 0.931 . S
H20 C13 0.930 . S
H21 C35 0.930 . S
H22 C14 0.930 . S
H23 C41 0.930 . S
H24 C32 0.930 . S
H25 C39 0.931 . S
H26 C3 0.929 . S
H27 C33 0.930 . S
H28 C66 0.930 . S
H29 C10 0.930 . S
H30 C65 0.929 . S
N31 Tb0 2.660 1_556 S
N31 C32 1.305 . S
N31 C36 1.360 1_556 S
C32 H24 0.930 . S
C32 N31 1.305 . S
C32 C35 1.407 . S
C33 H27 0.930 . S
C33 C34 1.410 1_556 S
C33 C35 1.345 1_455 S
C34 C33 1.410 1_554 S
C34 C36 1.417 1_455 S
C34 C66 1.432 . S
C35 H21 0.930 . S
C35 C32 1.407 . S
C35 C33 1.345 1_655 S
C36 N31 1.360 1_554 S
C36 C34 1.417 1_655 S
C36 C40 1.432 . S
H37 C42 0.930 . S
N38 Tb0 2.600 . S
N38 C40 1.359 . S
N38 C41 1.327 . S
C39 H25 0.931 . S
C39 C41 1.392 . S
C39 C42 1.370 . S
C40 C36 1.432 . S
C40 N38 1.359 . S
C40 C43 1.414 . S
C41 H23 0.930 . S
C41 N38 1.327 . S
C41 C39 1.392 . S
C42 H37 0.930 . S
C42 C39 1.370 . S
C42 C43 1.385 . S
C43 C40 1.414 . S
C43 C42 1.385 . S
C43 C65 1.444 1_655 S
O44 Tb0 2.546 . S
O44 C64 1.251 . S
O45 Tb0 2.610 1_666 S
O45 Tb11 2.362 . S
O45 C56 1.283 1_566 S
O46 Tb11 2.421 1_455 S
O46 C63 1.262 . S
O47 Tb0 2.320 1_556 S
O47 C63 1.260 1_545 S
O48 Tb0 2.552 1_655 S
O48 C56 1.243 . S
O49 Tb0 2.413 . S
O49 C64 1.256 . S
O50 Tb11 2.546 . S
O50 C75 1.251 . S
O51 Tb0 2.362 . S
O51 Tb11 2.610 1_444 S
O51 C67 1.283 1_544 S
O52 Tb0 2.421 1_655 S
O52 C74 1.262 . S
O53 Tb11 2.320 1_554 S
O53 C74 1.260 1_565 S
O54 Tb11 2.552 1_455 S
O54 C67 1.243 . S
O55 Tb11 2.413 . S
O55 C75 1.256 . S
C56 O45 1.283 1_544 S
C56 O48 1.243 . S
C57 C59 1.382 . S
C57 C61 1.393 . S
C57 C64 1.500 . S
C58 C59 1.400 . S
C58 C60 1.384 . S
C59 C57 1.382 . S
C59 C58 1.400 . S
C59 H76 0.930 1_554 S
C60 C58 1.384 . S
C60 C62 1.392 . S
C60 H77 0.931 . S
C61 C57 1.393 . S
C61 C62 1.401 . S
C61 H78 0.930 . S
C62 C60 1.392 . S
C62 C61 1.401 . S
C62 H79 0.930 . S
C63 O46 1.262 . S
C63 O47 1.260 1_565 S
C64 Tb0 2.833 . S
C64 O44 1.251 . S
C64 O49 1.256 . S
C64 C57 1.500 . S
C65 H30 0.929 . S
C65 C43 1.444 1_455 S
C65 C66 1.317 . S
C66 H28 0.930 . S
C66 C34 1.432 . S
C66 C65 1.317 . S
C67 O51 1.283 1_566 S
C67 O54 1.243 . S
C68 C69 1.382 . S
C68 C72 1.393 . S
C68 C75 1.500 . S
C69 C68 1.382 . S
C69 C70 1.400 . S
C69 H80 0.930 1_556 S
C70 C69 1.400 . S
C70 C71 1.384 . S
C71 C70 1.384 . S
C71 C73 1.392 . S
C71 H81 0.931 . S
C72 C68 1.393 . S
C72 C73 1.401 . S
C72 H82 0.930 . S
C73 C71 1.392 . S
C73 C72 1.401 . S
C73 H83 0.930 . S
C74 O52 1.262 . S
C74 O53 1.260 1_545 S
C75 Tb11 2.833 . S
C75 O50 1.251 . S
C75 O55 1.256 . S
C75 C68 1.500 . S
H76 C59 0.930 1_556 S
H77 C60 0.931 . S
H78 C61 0.930 . S
H79 C62 0.930 . S
H80 C69 0.930 1_554 S
H81 C71 0.931 . S
H82 C72 0.930 . S
H83 C73 0.930 . S
C74 C63 1.500 1_645 S
C67 C56 1.500 1_566 S
C70 C58 1.500 1_656 S
