# Generated by pormake.
# Topology qdl, (4)-cn, num edge types: 1
# Building blocks:
#     Node 0, Type 0, BuildingBlock: NAWXER_clean_sbu_0, # of connection points: 4
#     Node 1, Type 0, BuildingBlock: NAWXER_clean_sbu_0, # of connection points: 4
#     Node 2, Type 0, BuildingBlock: NAWXER_clean_sbu_0, # of connection points: 4
#     Node 3, Type 0, BuildingBlock: NAWXER_clean_sbu_0, # of connection points: 4
#     Node 4, Type 0, BuildingBlock: NAWXER_clean_sbu_0, # of connection points: 4
#     Node 5, Type 0, BuildingBlock: NAWXER_clean_sbu_0, # of connection points: 4
#     Edge 6, Type (0, 0), BuildingBlock: OJICUG_clean_linker_0, # of connection points: 2
#     Edge 7, Type (0, 0), BuildingBlock: OJICUG_clean_linker_0, # of connection points: 2
#     Edge 8, Type (0, 0), BuildingBlock: OJICUG_clean_linker_0, # of connection points: 2
#     Edge 9, Type (0, 0), BuildingBlock: OJICUG_clean_linker_0, # of connection points: 2
#     Edge 10, Type (0, 0), BuildingBlock: OJICUG_clean_linker_0, # of connection points: 2
#     Edge 11, Type (0, 0), BuildingBlock: OJICUG_clean_linker_0, # of connection points: 2
#     Edge 12, Type (0, 0), BuildingBlock: OJICUG_clean_linker_0, # of connection points: 2
#     Edge 13, Type (0, 0), BuildingBlock: OJICUG_clean_linker_0, # of connection points: 2
#     Edge 14, Type (0, 0), BuildingBlock: OJICUG_clean_linker_0, # of connection points: 2
#     Edge 15, Type (0, 0), BuildingBlock: OJICUG_clean_linker_0, # of connection points: 2
#     Edge 16, Type (0, 0), BuildingBlock: OJICUG_clean_linker_0, # of connection points: 2
#     Edge 17, Type (0, 0), BuildingBlock: OJICUG_clean_linker_0, # of connection points: 2
# Relax obj value: 0.000
# Max RMSD: 0.022
# Mean RMSD: 0.019
data_MOF--net-qdl--node1-NAWXER_clean_sbu_0--edge1-OJICUG_clean_linker_0
_symmetry_space_group_name_H-M    P1
_symmetry_Int_Tables_number       1
_symmetry_cell_setting            triclinic
loop_
_symmetry_equiv_pos_as_xyz
'x, y, z'
_cell_length_a     10.7127
_cell_length_b     10.714716
_cell_length_c     63.175117
_cell_angle_alpha  94.838177
_cell_angle_beta   94.652819
_cell_angle_gamma 120.03534
loop_
_atom_site_label
_atom_site_type_symbol
_atom_site_fract_x
_atom_site_fract_y
_atom_site_fract_z
_atom_type_partial_charge
C0 C 0.5008 0.09087 0.10494 0.0
C1 C 0.50269 0.55127 0.1063 0.0
O2 O 0.61367 0.21703 0.10652 0.0
Zn3 Zn 0.50994 0.32517 0.10573 0.0
O4 O 0.37478 0.07797 0.10345 0.0
Zn5 Zn 0.27709 0.20787 0.10292 0.0
O6 O 0.15975 0.14271 0.07525 0.0
O7 O 0.39551 0.25788 0.07317 0.0
O8 O 0.37671 0.43664 0.10471 0.0
O9 O 0.61538 0.53927 0.10758 0.0
O10 O 0.42037 0.29172 0.13574 0.0
O11 O 0.18061 0.16933 0.12803 0.0
C12 C 0.26275 0.19084 0.06394 0.0
C13 C 0.29422 0.23102 0.14195 0.0
C14 C 0.09154 0.7888 0.41656 0.0
C15 C 0.63365 0.79153 0.41554 0.0
O16 O 0.96432 0.67778 0.41117 0.0
Zn17 Zn 0.85815 0.78176 0.41585 0.0
O18 O 0.10576 0.91286 0.42261 0.0
Zn19 Zn 0.97921 1.01147 0.42706 0.0
O20 O 1.02702 0.08256 0.45738 0.0
O21 O 0.90211 0.84249 0.45036 0.0
O22 O 0.74956 0.91559 0.42166 0.0
O23 O 0.64428 0.68008 0.41041 0.0
O24 O 0.92142 0.92168 0.39112 0.0
O25 O 0.0457 0.15008 0.40708 0.0
C26 C 0.96681 0.95962 0.46404 0.0
C27 C 0.9931 0.05876 0.38996 0.0
C28 C 0.04625 0.13709 0.80236 0.0
C29 C 1.02042 0.06178 0.72432 0.0
O30 O 0.97938 0.19193 0.79259 0.0
Zn31 Zn 0.91753 0.21082 0.76017 0.0
O32 O 0.09866 0.07347 0.7915 0.0
Zn33 Zn 0.03475 0.09705 0.76336 0.0
O34 O 0.16458 0.325 0.76291 0.0
O35 O 1.02591 0.42237 0.75997 0.0
O36 O 0.07424 1.01528 0.73808 0.0
O37 O 0.96059 0.13395 0.73053 0.0
O38 O 0.70312 0.09875 0.75756 0.0
O39 O 0.80596 0.96632 0.76109 0.0
C40 C 0.15192 0.43689 0.76148 0.0
C41 C 0.69115 0.97559 0.75908 0.0
C42 C 1.01623 0.9509 0.6331 0.0
C43 C 0.97628 0.91853 0.55507 0.0
O44 O 0.0642 0.05381 0.6218 0.0
Zn45 Zn 0.99919 0.9362 0.59411 0.0
O46 O 0.94925 0.81809 0.62385 0.0
Zn47 Zn 0.88192 0.70331 0.59129 0.0
O48 O 0.98998 0.59954 0.59046 0.0
O49 O 0.12905 0.83845 0.59355 0.0
O50 O 0.91556 0.7925 0.56129 0.0
O51 O 0.03789 0.03231 0.56899 0.0
O52 O 0.77047 0.83655 0.59235 0.0
O53 O 0.66786 0.59789 0.58947 0.0
C54 C 0.11614 0.71242 0.59205 0.0
C55 C 0.65585 0.71058 0.59076 0.0
C56 C 0.15252 0.18938 0.97285 0.0
C57 C 0.07629 0.16539 0.89488 0.0
O58 O 0.08043 0.24949 0.96681 0.0
Zn59 Zn 1.0034 0.29343 0.93733 0.0
O60 O 0.19889 0.13587 0.95896 0.0
Zn61 Zn 0.11692 0.17605 0.93384 0.0
O62 O 0.24779 0.40489 0.93625 0.0
O63 O 0.11566 0.50789 0.94011 0.0
O64 O 0.13997 0.11264 0.90558 0.0
O65 O 1.02171 0.23216 0.90481 0.0
O66 O 0.79194 0.18514 0.93766 0.0
O67 O 0.88903 0.0463 0.9344 0.0
C68 C 0.23869 0.51978 0.93843 0.0
C69 C 0.77728 0.05905 0.936 0.0
C70 C 0.15105 0.21524 0.30703 0.0
C71 C 0.25159 0.24079 0.23297 0.0
O72 O 0.06002 0.16242 0.2899 0.0
Zn73 Zn 0.19905 0.22869 0.26994 0.0
O74 O 0.2882 0.28691 0.30588 0.0
Zn75 Zn 0.42861 0.34987 0.28117 0.0
O76 O 0.53021 0.56381 0.28662 0.0
O77 O 0.29483 0.45839 0.27535 0.0
O78 O 0.3685 0.30562 0.24666 0.0
O79 O 0.1285 0.18061 0.23962 0.0
O80 O 0.29756 0.10216 0.27441 0.0
O81 O 0.5325 0.2437 0.28586 0.0
C82 C 0.41881 0.57437 0.28148 0.0
C83 C 0.42154 0.11644 0.28047 0.0
C84 C 0.64178 0.95819 0.10752 0.0
C85 C 0.50905 0.9567 0.10514 0.0
H86 H 0.74545 0.83053 0.10982 0.0
C87 C 0.37828 0.82249 0.10319 0.0
H88 H 0.74449 0.05997 0.10909 0.0
C89 C 0.37885 0.69366 0.10368 0.0
C90 C 0.51022 0.69337 0.1061 0.0
H91 H 0.27361 0.81586 0.10131 0.0
H92 H 0.27451 0.59355 0.10211 0.0
C93 C 0.64236 0.82713 0.10797 0.0
C94 C 0.22463 0.65075 0.41029 0.0
C95 C 0.22605 0.78177 0.41572 0.0
H96 H 0.35331 0.54976 0.40597 0.0
C97 C 0.36097 0.9125 0.42053 0.0
H98 H 0.12241 0.54819 0.40644 0.0
C99 C 0.49063 0.91338 0.42016 0.0
C100 C 0.49101 0.78355 0.415 0.0
H101 H 0.36759 1.01604 0.42467 0.0
H102 H 0.59128 1.01744 0.42407 0.0
C103 C 0.35651 0.65165 0.40997 0.0
C104 C 0.54818 0.71131 0.76133 0.0
C105 C 0.54896 0.84123 0.75929 0.0
H106 H 0.42581 0.48621 0.76378 0.0
C107 C 0.41582 0.83876 0.75805 0.0
H108 H 0.6478 0.70781 0.76236 0.0
C109 C 0.28494 0.70805 0.75886 0.0
C110 C 0.28603 0.57868 0.76097 0.0
H111 H 0.41284 0.93717 0.75652 0.0
H112 H 0.18363 0.70824 0.7578 0.0
C113 C 0.41956 0.58291 0.7622 0.0
C114 C 0.38457 0.83498 0.59388 0.0
C115 C 0.25034 0.70418 0.59188 0.0
H116 H 0.61357 0.93877 0.59502 0.0
C117 C 0.24886 0.57144 0.58947 0.0
H118 H 0.39118 0.93965 0.59578 0.0
C119 C 0.37996 0.57088 0.58904 0.0
C120 C 0.51374 0.70303 0.59097 0.0
H121 H 0.14706 0.46872 0.58786 0.0
H122 H 0.37658 0.46778 0.58717 0.0
C123 C 0.51344 0.83442 0.59341 0.0
C124 C 0.50273 0.66265 0.93596 0.0
C125 C 0.37303 0.66198 0.93822 0.0
H126 H 0.72761 0.78495 0.93333 0.0
C127 C 0.37569 0.79524 0.93966 0.0
H128 H 0.50608 0.56294 0.93476 0.0
C129 C 0.50636 0.92613 0.93885 0.0
C130 C 0.6355 0.92494 0.93651 0.0
H131 H 0.27744 0.79831 0.94136 0.0
H132 H 0.50632 0.02753 0.94006 0.0
C133 C 0.63109 0.79128 0.93508 0.0
C134 C 0.55864 0.85155 0.28704 0.0
C135 C 0.42677 0.71701 0.28203 0.0
H136 H 0.66209 0.08565 0.29055 0.0
C137 C 0.29695 0.71734 0.27691 0.0
H138 H 0.66053 0.8548 0.29101 0.0
C139 C 0.29783 0.84698 0.27654 0.0
C140 C 0.42854 0.98194 0.28132 0.0
H141 H 0.1929 0.61665 0.27303 0.0
H142 H 0.1943 0.84032 0.27242 0.0
C143 C 0.55954 0.98341 0.28672 0.0
C144 C 0.13493 0.16833 0.19434 0.0
C145 C 0.26129 0.23733 0.20965 0.0
H146 H 0.04583 0.11213 0.161 0.0
C147 C 0.398 0.30394 0.20245 0.0
H148 H 1.02786 0.11598 0.19931 0.0
C149 C 0.4083 0.30177 0.18053 0.0
C150 C 0.28217 0.23297 0.1652 0.0
H151 H 0.49766 0.35812 0.21376 0.0
H152 H 0.51556 0.35426 0.17561 0.0
C153 C 0.14525 0.16619 0.17236 0.0
C154 C 0.90565 0.80386 0.51651 0.0
C155 C 0.9744 0.93022 0.53182 0.0
H156 H 0.84942 0.71396 0.48327 0.0
C157 C 0.04117 0.06698 0.52465 0.0
H158 H 0.85317 0.69671 0.52143 0.0
C159 C 0.03908 0.07692 0.50266 0.0
C160 C 0.97015 0.95034 0.48737 0.0
H161 H 0.09518 0.16656 0.536 0.0
H162 H 0.09144 0.18387 0.49768 0.0
C163 C 0.90354 0.81379 0.49458 0.0
C164 C 0.12492 0.08191 0.83735 0.0
C165 C 0.05679 0.1446 0.82606 0.0
H166 H 0.18427 0.03846 0.86796 0.0
C167 C 0.99475 0.21251 0.8376 0.0
H168 H 0.17345 0.02838 0.82895 0.0
C169 C 1.00039 0.21774 0.85982 0.0
C170 C 0.06836 0.15532 0.87118 0.0
H171 H 0.94105 0.2617 0.82947 0.0
H172 H 0.95148 0.27139 0.86809 0.0
C173 C 0.13071 0.08727 0.8597 0.0
C174 C 0.33052 0.18378 0.02691 0.0
C175 C 0.23067 0.17956 0.0404 0.0
H176 H 0.38252 0.18684 0.99475 0.0
C177 C 0.10295 0.17285 0.03134 0.0
H178 H 0.42978 0.18877 0.03348 0.0
C179 C 0.07796 0.17556 1.00938 0.0
C180 C 0.17824 0.18121 0.99591 0.0
H181 H 1.02441 0.17033 0.04134 0.0
H182 H 0.97989 0.17333 1.00293 0.0
C183 C 0.30347 0.18244 1.00479 0.0
C184 C 0.19002 0.27675 0.34704 0.0
C185 C 0.10112 0.18506 0.32816 0.0
H186 H 0.22359 0.31009 0.38144 0.0
C187 C 0.96984 0.05791 0.32981 0.0
H188 H 0.29161 0.37574 0.34626 0.0
C189 C 0.9323 1.01903 0.34994 0.0
C190 C 1.02362 0.10831 0.36882 0.0
H191 H 0.89962 0.98482 0.31554 0.0
H192 H 0.83333 0.91744 0.35072 0.0
C193 C 0.15077 0.23958 0.36718 0.0
C194 C 0.03466 0.1108 0.6658 0.0
C195 C 0.02797 0.98314 0.65665 0.0
H196 H 0.0349 0.234 0.69432 0.0
C197 C 1.02441 0.88349 0.67008 0.0
H198 H 0.03669 0.18918 0.65585 0.0
C199 C 1.02645 0.91071 0.69223 0.0
C200 C 1.02775 0.03591 0.70121 0.0
H201 H 1.01947 0.78427 0.66344 0.0
H202 H 1.0226 0.83182 0.70222 0.0
C203 C 0.03266 0.13597 0.6878 0.0
loop_
_geom_bond_atom_site_label_1
_geom_bond_atom_site_label_2
_geom_bond_distance
_geom_bond_site_symmetry_2
_ccdc_geom_bond_type
C0 O2 1.247 1_565 S
C0 O4 1.258 . S
C1 O8 1.247 . S
C1 O9 1.258 . S
O2 C0 1.247 1_545 S
O2 Zn3 2.028 . S
Zn3 O2 2.028 . S
Zn3 O7 2.035 . S
Zn3 O9 2.035 . S
Zn3 O10 2.028 . S
O4 C0 1.258 . S
O4 Zn5 2.035 1_465 S
Zn5 O4 2.035 1_645 S
Zn5 O6 2.028 1_655 S
Zn5 O8 2.028 1_655 S
Zn5 O11 2.035 1_655 S
O6 Zn5 2.028 1_455 S
O6 C12 1.247 . S
O7 Zn3 2.035 . S
O7 C12 1.258 . S
O8 C1 1.247 . S
O8 Zn5 2.028 1_455 S
O9 C1 1.258 . S
O9 Zn3 2.035 . S
O10 Zn3 2.028 . S
O10 C13 1.247 . S
O11 Zn5 2.035 1_455 S
O11 C13 1.258 . S
C12 O6 1.247 . S
C12 O7 1.258 . S
C13 O10 1.247 . S
C13 O11 1.258 . S
C14 O16 1.247 1_545 S
C14 O18 1.258 . S
C15 O22 1.247 . S
C15 O23 1.258 1_545 S
O16 C14 1.247 1_565 S
O16 Zn17 2.028 1_455 S
Zn17 O16 2.028 1_655 S
Zn17 O21 2.035 . S
Zn17 O23 2.035 . S
Zn17 O24 2.028 . S
O18 C14 1.258 . S
O18 Zn19 2.035 . S
Zn19 O18 2.035 . S
Zn19 O20 2.028 . S
Zn19 O22 2.028 1_455 S
Zn19 O25 2.035 . S
O20 Zn19 2.028 . S
O20 C26 1.247 . S
O21 Zn17 2.035 . S
O21 C26 1.258 1_665 S
O22 C15 1.247 . S
O22 Zn19 2.028 1_655 S
O23 C15 1.258 1_565 S
O23 Zn17 2.035 . S
O24 Zn17 2.028 . S
O24 C27 1.246 1_665 S
O25 Zn19 2.035 . S
O25 C27 1.258 . S
C26 O20 1.247 . S
C26 O21 1.258 1_445 S
C27 O24 1.246 1_445 S
C27 O25 1.258 . S
C28 O30 1.247 1_455 S
C28 O32 1.258 . S
C29 O36 1.247 1_655 S
C29 O37 1.258 . S
O30 C28 1.247 1_655 S
O30 Zn31 2.028 . S
Zn31 O30 2.028 . S
Zn31 O35 2.035 1_655 S
Zn31 O37 2.035 . S
Zn31 O38 2.028 1_545 S
O32 C28 1.258 . S
O32 Zn33 2.035 . S
Zn33 O32 2.035 . S
Zn33 O34 2.028 . S
Zn33 O36 2.028 . S
Zn33 O39 2.035 1_445 S
O34 Zn33 2.028 . S
O34 C40 1.247 . S
O35 Zn31 2.035 1_455 S
O35 C40 1.258 . S
O36 C29 1.247 1_455 S
O36 Zn33 2.028 . S
O37 C29 1.258 . S
O37 Zn31 2.035 . S
O38 Zn31 2.028 1_565 S
O38 C41 1.247 . S
O39 Zn33 2.035 1_665 S
O39 C41 1.258 . S
C40 O34 1.247 . S
C40 O35 1.258 . S
C41 O38 1.247 . S
C41 O39 1.258 . S
C42 O44 1.247 . S
C42 O46 1.258 1_445 S
C43 O50 1.247 1_455 S
C43 O51 1.258 1_565 S
O44 C42 1.247 . S
O44 Zn45 2.028 . S
Zn45 O44 2.028 . S
Zn45 O49 2.035 . S
Zn45 O51 2.035 . S
Zn45 O52 2.028 1_455 S
O46 C42 1.258 1_665 S
O46 Zn47 2.035 . S
Zn47 O46 2.035 . S
Zn47 O48 2.028 1_655 S
Zn47 O50 2.028 . S
Zn47 O53 2.035 . S
O48 Zn47 2.028 1_455 S
O48 C54 1.247 1_565 S
O49 Zn45 2.035 . S
O49 C54 1.258 . S
O50 C43 1.247 1_655 S
O50 Zn47 2.028 . S
O51 C43 1.258 1_545 S
O51 Zn45 2.035 . S
O52 Zn45 2.028 1_655 S
O52 C55 1.247 . S
O53 Zn47 2.035 . S
O53 C55 1.258 1_565 S
C54 O48 1.247 1_545 S
C54 O49 1.258 . S
C55 O52 1.247 . S
C55 O53 1.258 1_545 S
C56 O58 1.247 . S
C56 O60 1.258 . S
C57 O64 1.247 . S
C57 O65 1.258 1_455 S
O58 C56 1.247 . S
O58 Zn59 2.028 1_455 S
Zn59 O58 2.028 1_655 S
Zn59 O63 2.035 1_655 S
Zn59 O65 2.035 . S
Zn59 O66 2.028 . S
O60 C56 1.258 . S
O60 Zn61 2.035 . S
Zn61 O60 2.035 . S
Zn61 O62 2.028 . S
Zn61 O64 2.028 . S
Zn61 O67 2.035 1_445 S
O62 Zn61 2.028 . S
O62 C68 1.247 . S
O63 Zn59 2.035 1_455 S
O63 C68 1.258 . S
O64 C57 1.247 . S
O64 Zn61 2.028 . S
O65 C57 1.258 1_655 S
O65 Zn59 2.035 . S
O66 Zn59 2.028 . S
O66 C69 1.247 1_545 S
O67 Zn61 2.035 1_665 S
O67 C69 1.258 . S
C68 O62 1.247 . S
C68 O63 1.258 . S
C69 O66 1.247 1_565 S
C69 O67 1.258 . S
C70 O72 1.247 . S
C70 O74 1.258 . S
C71 O78 1.247 . S
C71 O79 1.258 . S
O72 C70 1.247 . S
O72 Zn73 2.028 1_455 S
Zn73 O72 2.028 1_655 S
Zn73 O77 2.035 1_655 S
Zn73 O79 2.035 1_655 S
Zn73 O80 2.028 1_645 S
O74 C70 1.258 . S
O74 Zn75 2.035 . S
Zn75 O74 2.035 . S
Zn75 O76 2.028 . S
Zn75 O78 2.028 . S
Zn75 O81 2.035 1_545 S
O76 Zn75 2.028 . S
O76 C82 1.247 . S
O77 Zn73 2.035 1_455 S
O77 C82 1.258 . S
O78 C71 1.247 . S
O78 Zn75 2.028 . S
O79 C71 1.258 . S
O79 Zn73 2.035 1_455 S
O80 Zn73 2.028 1_465 S
O80 C83 1.247 . S
O81 Zn75 2.035 1_565 S
O81 C83 1.258 . S
C82 O76 1.247 . S
C82 O77 1.258 . S
C83 O80 1.247 . S
C83 O81 1.258 . S
C84 C85 1.387 . S
C84 H88 0.950 . S
C84 C93 1.390 . S
C85 C84 1.387 . S
C85 C87 1.387 . S
H86 C93 0.950 . S
C87 C85 1.387 . S
C87 C89 1.390 . S
C87 H91 0.950 . S
H88 C84 0.950 . S
C89 C87 1.390 . S
C89 C90 1.387 . S
C89 H92 0.950 . S
C90 C89 1.387 . S
C90 C93 1.387 . S
H91 C87 0.950 . S
H92 C89 0.950 . S
C93 C84 1.390 . S
C93 H86 0.950 . S
C93 C90 1.387 . S
C94 C95 1.387 1_565 S
C94 H98 0.950 . S
C94 C103 1.390 . S
C95 C94 1.387 1_545 S
C95 C97 1.387 . S
H96 C103 0.950 . S
C97 C95 1.387 . S
C97 C99 1.390 . S
C97 H101 0.950 . S
H98 C94 0.950 . S
C99 C97 1.390 . S
C99 C100 1.387 . S
C99 H102 0.950 . S
C100 C99 1.387 . S
C100 C103 1.387 1_545 S
H101 C97 0.950 . S
H102 C99 0.950 . S
C103 C94 1.390 . S
C103 H96 0.950 . S
C103 C100 1.387 1_565 S
C104 C105 1.387 . S
C104 H108 0.950 . S
C104 C113 1.390 . S
C105 C104 1.387 . S
C105 C107 1.387 . S
H106 C113 0.950 . S
C107 C105 1.387 . S
C107 C109 1.390 . S
C107 H111 0.950 . S
H108 C104 0.950 . S
C109 C107 1.390 . S
C109 C110 1.387 . S
C109 H112 0.950 . S
C110 C109 1.387 . S
C110 C113 1.387 . S
H111 C107 0.950 . S
H112 C109 0.950 . S
C113 C104 1.390 . S
C113 H106 0.950 . S
C113 C110 1.387 . S
C114 C115 1.387 . S
C114 H118 0.950 . S
C114 C123 1.390 . S
C115 C114 1.387 . S
C115 C117 1.387 1_545 S
H116 C123 0.950 . S
C117 C115 1.387 1_565 S
C117 C119 1.390 . S
C117 H121 0.950 . S
H118 C114 0.950 . S
C119 C117 1.390 . S
C119 C120 1.387 1_565 S
C119 H122 0.950 . S
C120 C119 1.387 1_545 S
C120 C123 1.387 . S
H121 C117 0.950 . S
H122 C119 0.950 . S
C123 C114 1.390 . S
C123 H116 0.950 . S
C123 C120 1.387 . S
C124 C125 1.387 . S
C124 H128 0.950 . S
C124 C133 1.390 . S
C125 C124 1.387 . S
C125 C127 1.387 . S
H126 C133 0.950 . S
C127 C125 1.387 . S
C127 C129 1.390 . S
C127 H131 0.950 . S
H128 C124 0.950 . S
C129 C127 1.390 . S
C129 C130 1.387 . S
C129 H132 0.950 . S
C130 C129 1.387 . S
C130 C133 1.387 . S
H131 C127 0.950 . S
H132 C129 0.950 . S
C133 C124 1.390 . S
C133 H126 0.950 . S
C133 C130 1.387 . S
C134 C135 1.387 . S
C134 H138 0.950 . S
C134 C143 1.390 . S
C135 C134 1.387 . S
C135 C137 1.387 . S
H136 C143 0.950 . S
C137 C135 1.387 . S
C137 C139 1.390 . S
C137 H141 0.950 . S
H138 C134 0.950 . S
C139 C137 1.390 . S
C139 C140 1.387 . S
C139 H142 0.950 . S
C140 C139 1.387 . S
C140 C143 1.387 . S
H141 C137 0.950 . S
H142 C139 0.950 . S
C143 C134 1.390 . S
C143 H136 0.950 . S
C143 C140 1.387 . S
C144 C145 1.387 . S
C144 H148 0.950 1_545 S
C144 C153 1.390 . S
C145 C144 1.387 . S
C145 C147 1.387 . S
H146 C153 0.950 1_565 S
C147 C145 1.387 . S
C147 C149 1.390 . S
C147 H151 0.950 . S
H148 C144 0.950 1_565 S
C149 C147 1.390 . S
C149 C150 1.387 . S
C149 H152 0.950 . S
C150 C149 1.387 . S
C150 C153 1.387 . S
H151 C147 0.950 . S
H152 C149 0.950 . S
C153 C144 1.390 . S
C153 H146 0.950 1_545 S
C153 C150 1.387 . S
C154 C155 1.386 . S
C154 H158 0.951 1_455 S
C154 C163 1.391 . S
C155 C154 1.386 . S
C155 C157 1.387 1_565 S
H156 C163 0.950 1_655 S
C157 C155 1.387 1_545 S
C157 C159 1.390 . S
C157 H161 0.950 . S
H158 C154 0.951 1_655 S
C159 C157 1.390 . S
C159 C160 1.384 1_545 S
C159 H162 0.950 . S
C160 C159 1.384 1_565 S
C160 C163 1.391 . S
H161 C157 0.950 . S
H162 C159 0.950 . S
C163 C154 1.391 . S
C163 H156 0.950 1_455 S
C163 C160 1.391 . S
C164 C165 1.387 1_655 S
C164 H168 0.950 1_545 S
C164 C173 1.390 . S
C165 C164 1.387 1_455 S
C165 C167 1.387 . S
H166 C173 0.950 1_565 S
C167 C165 1.387 . S
C167 C169 1.390 . S
C167 H171 0.950 . S
H168 C164 0.950 1_565 S
C169 C167 1.390 . S
C169 C170 1.387 . S
C169 H172 0.950 . S
C170 C169 1.387 . S
C170 C173 1.387 1_455 S
H171 C167 0.950 . S
H172 C169 0.950 . S
C173 C164 1.390 . S
C173 H166 0.950 1_545 S
C173 C170 1.387 1_655 S
C174 C175 1.387 . S
C174 H178 0.950 . S
C174 C183 1.390 1_554 S
C175 C174 1.387 . S
C175 C177 1.387 . S
H176 C183 0.950 . S
C177 C175 1.387 . S
C177 C179 1.390 1_554 S
C177 H181 0.950 1_545 S
H178 C174 0.950 . S
C179 C177 1.390 1_556 S
C179 C180 1.387 . S
C179 H182 0.950 1_445 S
C180 C179 1.387 . S
C180 C183 1.387 . S
H181 C177 0.950 1_565 S
H182 C179 0.950 1_665 S
C183 C174 1.390 1_556 S
C183 H176 0.950 . S
C183 C180 1.387 . S
C184 C185 1.387 . S
C184 H188 0.950 . S
C184 C193 1.390 . S
C185 C184 1.387 . S
C185 C187 1.387 1_545 S
H186 C193 0.950 . S
C187 C185 1.387 1_565 S
C187 C189 1.390 . S
C187 H191 0.950 1_455 S
H188 C184 0.950 . S
C189 C187 1.390 . S
C189 C190 1.387 1_565 S
C189 H192 0.950 1_455 S
C190 C189 1.387 1_545 S
C190 C193 1.387 . S
H191 C187 0.950 1_655 S
H192 C189 0.950 1_655 S
C193 C184 1.390 . S
C193 H186 0.950 . S
C193 C190 1.387 . S
C194 C195 1.387 . S
C194 H198 0.950 . S
C194 C203 1.390 . S
C195 C194 1.387 . S
C195 C197 1.387 1_445 S
H196 C203 0.950 . S
C197 C195 1.387 1_665 S
C197 C199 1.390 . S
C197 H201 0.950 . S
H198 C194 0.950 . S
C199 C197 1.390 . S
C199 C200 1.387 1_665 S
C199 H202 0.950 . S
C200 C199 1.387 1_445 S
C200 C203 1.387 . S
H201 C197 0.950 . S
H202 C199 0.950 . S
C203 C194 1.390 . S
C203 H196 0.950 . S
C203 C200 1.387 . S
C85 C0 1.498 . S
C90 C1 1.498 . S
C95 C14 1.498 . S
C100 C15 1.498 . S
C105 C41 1.498 . S
C110 C40 1.498 . S
C115 C54 1.499 . S
C120 C55 1.499 . S
C125 C68 1.498 . S
C130 C69 1.498 . S
C135 C82 1.498 . S
C140 C83 1.498 . S
C145 C71 1.503 . S
C150 C13 1.503 . S
C155 C43 1.504 . S
C160 C26 1.504 1_565 S
C165 C28 1.503 . S
C170 C57 1.503 . S
C175 C12 1.505 . S
C180 C56 1.504 . S
C185 C70 1.505 . S
C190 C27 1.505 . S
C195 C42 1.507 . S
C200 C29 1.505 1_455 S
