# Generated by pormake.
# Topology qzd, (4)-cn, num edge types: 1
# Building blocks:
#     Node 0, Type 0, BuildingBlock: NAWXER_clean_sbu_0, # of connection points: 4
#     Node 1, Type 0, BuildingBlock: NAWXER_clean_sbu_0, # of connection points: 4
#     Node 2, Type 0, BuildingBlock: NAWXER_clean_sbu_0, # of connection points: 4
#     Edge 3, Type (0, 0), BuildingBlock: FUNLAD_clean_linker_0, # of connection points: 2
#     Edge 4, Type (0, 0), BuildingBlock: FUNLAD_clean_linker_0, # of connection points: 2
#     Edge 5, Type (0, 0), BuildingBlock: FUNLAD_clean_linker_0, # of connection points: 2
#     Edge 6, Type (0, 0), BuildingBlock: FUNLAD_clean_linker_0, # of connection points: 2
#     Edge 7, Type (0, 0), BuildingBlock: FUNLAD_clean_linker_0, # of connection points: 2
#     Edge 8, Type (0, 0), BuildingBlock: FUNLAD_clean_linker_0, # of connection points: 2
# Relax obj value: 0.000
# Max RMSD: 0.038
# Mean RMSD: 0.038
data_MOF--net-qzd--node1-NAWXER_clean_sbu_0--edge1-FUNLAD_clean_linker_0
_symmetry_space_group_name_H-M    P1
_symmetry_Int_Tables_number       1
_symmetry_cell_setting            triclinic
loop_
_symmetry_equiv_pos_as_xyz
'x, y, z'
_cell_length_a     17.277828
_cell_length_b     17.267539
_cell_length_c     51.367238
_cell_angle_alpha  94.760635
_cell_angle_beta   94.728794
_cell_angle_gamma 120.03925
loop_
_atom_site_label
_atom_site_type_symbol
_atom_site_fract_x
_atom_site_fract_y
_atom_site_fract_z
_atom_type_partial_charge
C0 C 0.24756 0.192 0.03856 0.0
C1 C 0.95578 0.17469 0.03772 0.0
O2 O 0.17979 0.1111 0.03299 0.0
Zn3 Zn 0.03518 0.04252 0.02848 0.0
O4 O 0.23401 0.25737 0.04333 0.0
Zn5 Zn 0.10282 0.1859 0.0381 0.0
O6 O 0.07517 0.1121 0.07122 0.0
O7 O 1.00711 0.96658 0.05608 0.0
O8 O 0.03362 0.24577 0.04186 0.0
O9 O 0.9489 0.09732 0.0326 0.0
O10 O 1.00106 0.9866 0.99198 0.0
O11 O 0.07206 0.13551 0.99661 0.0
C12 C 0.03868 0.02971 0.07551 0.0
C13 C 0.03357 0.05899 0.98165 0.0
C14 C 1.0074 0.02999 0.40753 0.0
C15 C 0.95519 0.99664 0.31138 0.0
O16 O 0.96117 0.06475 0.39922 0.0
Zn17 Zn 0.90514 0.07768 0.36186 0.0
O18 O 0.03238 0.99096 0.39103 0.0
Zn19 Zn 0.97998 0.01067 0.35947 0.0
O20 O 0.0569 0.15513 0.36085 0.0
O21 O 0.96428 0.20776 0.36339 0.0
O22 O 0.9967 0.96816 0.32558 0.0
O23 O 0.91875 0.03721 0.3225 0.0
O24 O 0.77558 1.00781 0.36263 0.0
O25 O 0.8391 0.92453 0.36059 0.0
C26 C 0.04352 0.222 0.3622 0.0
C27 C 0.76865 0.9308 0.36191 0.0
C28 C 0.05987 1.0062 0.74072 0.0
C29 C 0.07479 0.99129 0.64615 0.0
O30 O 0.99473 0.97173 0.72183 0.0
Zn31 Zn 0.06653 0.99773 0.69343 0.0
O32 O 0.14135 0.04288 0.73557 0.0
Zn33 Zn 0.20976 0.06611 0.70117 0.0
O34 O 0.28126 0.19697 0.70531 0.0
O35 O 0.13446 0.14263 0.69686 0.0
O36 O 0.15348 0.03223 0.65996 0.0
O37 O 1.00504 0.95893 0.65767 0.0
O38 O 0.12198 0.9123 0.69725 0.0
O39 O 0.27049 0.99736 0.70445 0.0
C40 C 0.21557 0.21044 0.70136 0.0
C41 C 0.19964 0.91952 0.70144 0.0
C42 C 0.87479 0.2617 0.04272 0.0
C43 C 0.87267 0.17892 0.03939 0.0
C44 C 0.79497 0.26348 0.04443 0.0
C45 C 0.71169 0.18225 0.04297 0.0
C46 C 0.71038 0.10009 0.03989 0.0
C47 C 0.78942 0.09831 0.038 0.0
C48 C 0.62415 0.17809 0.0447 0.0
C49 C 0.60755 0.24506 0.04084 0.0
C50 C 0.51512 0.23154 0.04015 0.0
C51 C 0.50402 0.30527 0.04748 0.0
C52 C 0.41731 0.29326 0.04702 0.0
C53 C 0.34013 0.20723 0.03901 0.0
H54 H 0.44287 0.08833 0.02447 0.0
C55 C 0.35159 0.13417 0.0311 0.0
C56 C 0.43767 0.14618 0.03147 0.0
H57 H 0.29386 0.06721 0.02436 0.0
H58 H 0.93799 0.32503 0.04401 0.0
H59 H 0.79937 0.32837 0.04726 0.0
H60 H 0.64751 0.03644 0.03876 0.0
H61 H 0.785 0.03323 0.0356 0.0
H62 H 0.56914 0.11408 0.04855 0.0
H63 H 0.66171 0.31085 0.0379 0.0
H64 H 0.56249 0.37204 0.05385 0.0
H65 H 0.41081 0.35109 0.05305 0.0
C66 C 0.60011 0.84874 0.36252 0.0
C67 C 0.68147 0.84823 0.36345 0.0
C68 C 0.51882 0.76952 0.36434 0.0
C69 C 0.51789 0.68862 0.36727 0.0
C70 C 0.59943 0.68897 0.36839 0.0
C71 C 0.67988 0.7673 0.36637 0.0
C72 C 0.43502 0.60203 0.3695 0.0
C73 C 0.34959 0.58126 0.36163 0.0
C74 C 0.27098 0.48902 0.36177 0.0
C75 C 0.18588 0.47735 0.36486 0.0
C76 C 0.11143 0.39079 0.36508 0.0
C77 C 0.12077 0.31428 0.36198 0.0
H78 H 0.34245 0.41729 0.35432 0.0
C79 C 0.2055 0.32611 0.35829 0.0
C80 C 0.27933 0.41202 0.35799 0.0
H81 H 0.21501 0.26873 0.35538 0.0
H82 H 0.59924 0.91021 0.36043 0.0
H83 H 0.45776 0.77261 0.36387 0.0
H84 H 0.60103 0.62792 0.37069 0.0
H85 H 0.74115 0.76425 0.36733 0.0
H86 H 0.44592 0.55106 0.37724 0.0
H87 H 0.33625 0.63165 0.35467 0.0
H88 H 0.17721 0.53533 0.36739 0.0
H89 H 0.04686 0.38391 0.36775 0.0
C90 C 0.28698 0.83848 0.7051 0.0
C91 C 0.20445 0.8368 0.70333 0.0
C92 C 0.28912 0.75883 0.70688 0.0
C93 C 0.20857 0.67626 0.70706 0.0
C94 C 0.12676 0.67549 0.70561 0.0
C95 C 0.12455 0.75429 0.70363 0.0
C96 C 0.20478 0.58891 0.70885 0.0
C97 C 0.26958 0.57085 0.70333 0.0
C98 C 0.25572 0.47829 0.70274 0.0
C99 C 0.33002 0.46691 0.70853 0.0
C100 C 0.31774 0.38008 0.70814 0.0
C101 C 0.23082 0.30302 0.70169 0.0
H102 H 0.11068 0.4063 0.68985 0.0
C103 C 0.15701 0.31469 0.69529 0.0
C104 C 0.16927 0.40092 0.69563 0.0
H105 H 0.08926 0.25701 0.68981 0.0
H106 H 0.34976 0.90113 0.70506 0.0
H107 H 0.35383 0.7628 0.70845 0.0
H108 H 0.06366 0.61318 0.70578 0.0
H109 H 0.05973 0.75028 0.70248 0.0
H110 H 0.14266 0.53513 0.71414 0.0
H111 H 0.33366 0.62382 0.6989 0.0
H112 H 0.39751 0.52527 0.71367 0.0
H113 H 0.37613 0.3734 0.71298 0.0
C114 C 0.99774 0.95056 0.26957 0.0
C115 C 0.95328 0.98895 0.28234 0.0
C116 C 1.00239 0.95145 0.24246 0.0
C117 C 0.96246 0.99074 0.22764 0.0
C118 C 0.91611 0.02668 0.24033 0.0
C119 C 0.91114 0.02546 0.26726 0.0
C120 C 0.97378 1.003 0.19962 0.0
C121 C 0.99428 0.95393 0.18284 0.0
C122 C 1.00886 0.97366 0.15544 0.0
C123 C 0.98285 0.90295 0.13482 0.0
C124 C 0.99313 0.92061 0.10877 0.0
C125 C 0.03103 0.00965 0.103 0.0
H126 H 0.07317 0.11937 0.16525 0.0
C127 C 0.0601 0.08051 0.12387 0.0
C128 C 0.04931 0.06282 0.14973 0.0
H129 H 0.09051 0.15003 0.12025 0.0
H130 H 0.03119 0.92217 0.28063 0.0
H131 H 0.04026 0.92465 0.23353 0.0
H132 H 0.88496 0.0576 0.22945 0.0
H133 H 0.87619 0.05551 0.27638 0.0
H134 H 0.96292 0.05466 0.19235 0.0
H135 H 0.99678 0.89621 0.18874 0.0
H136 H 0.95263 0.83378 0.13877 0.0
H137 H 0.97065 0.86455 0.09318 0.0
C138 C 0.13991 0.0418 0.60479 0.0
C139 C 0.06611 0.98412 0.61702 0.0
C140 C 0.13156 0.03731 0.57733 0.0
C141 C 0.04943 0.97428 0.5615 0.0
C142 C 0.97646 0.91495 0.57364 0.0
C143 C 0.98427 0.92053 0.60116 0.0
C144 C 0.03857 0.96878 0.53233 0.0
C145 C 0.07728 0.04281 0.52023 0.0
C146 C 0.06147 0.0388 0.49122 0.0
C147 C 0.05301 0.10753 0.48106 0.0
C148 C 0.03573 0.10463 0.45384 0.0
C149 C 0.02934 0.03431 0.43621 0.0
H150 H 0.06414 0.91583 0.48094 0.0
C151 C 0.04097 0.96706 0.44632 0.0
C152 C 0.05601 0.96876 0.47363 0.0
H153 H 0.03633 0.91208 0.43316 0.0
H154 H 0.20395 0.09139 0.61645 0.0
H155 H 0.1897 0.08261 0.56853 0.0
H156 H 0.91271 0.86535 0.56183 0.0
H157 H 0.92643 0.87475 0.61 0.0
H158 H 0.99216 0.90326 0.52067 0.0
H159 H 0.11572 0.10928 0.53204 0.0
H160 H 0.05777 0.16258 0.49424 0.0
H161 H 0.02768 0.1577 0.44658 0.0
C162 C 0.11568 0.04801 0.78918 0.0
C163 C 0.04285 1.00327 0.76853 0.0
C164 C 0.10083 0.04463 0.81547 0.0
C165 C 0.01257 0.99661 0.82181 0.0
C166 C 0.93978 0.95078 0.80122 0.0
C167 C 0.95461 0.95459 0.77483 0.0
C168 C 0.99533 0.99109 0.84969 0.0
C169 C 0.04948 0.05836 0.86947 0.0
C170 C 0.03738 0.05507 0.89775 0.0
C171 C 0.07762 0.137 0.91489 0.0
C172 C 0.07419 0.13788 0.94194 0.0
C173 C 0.03117 0.05661 0.95266 0.0
H174 H 0.96262 0.90881 0.89585 0.0
C175 C 0.98965 0.97426 0.93552 0.0
C176 C 0.99268 0.9734 0.90831 0.0
H177 H 0.95629 0.91046 0.94315 0.0
H178 H 0.18459 0.08546 0.78507 0.0
H179 H 0.15894 0.07831 0.83074 0.0
H180 H 0.87122 0.91251 0.80556 0.0
H181 H 0.89704 0.9188 0.7594 0.0
H182 H 0.9349 0.93196 0.85373 0.0
H183 H 0.10455 0.12075 0.86472 0.0
H184 H 0.11291 0.20088 0.90736 0.0
H185 H 0.10702 0.20263 0.95451 0.0
loop_
_geom_bond_atom_site_label_1
_geom_bond_atom_site_label_2
_geom_bond_distance
_geom_bond_site_symmetry_2
_ccdc_geom_bond_type
C0 O2 1.248 . S
C0 O4 1.256 1_565 S
C1 O8 1.250 . S
C1 O9 1.253 1_545 S
O2 C0 1.248 . S
O2 Zn3 2.028 1_455 S
Zn3 O2 2.028 1_655 S
Zn3 O7 2.035 . S
Zn3 O9 2.035 . S
Zn3 O10 2.028 1_554 S
O4 C0 1.256 1_545 S
O4 Zn5 2.035 . S
Zn5 O4 2.035 . S
Zn5 O6 2.028 . S
Zn5 O8 2.028 1_455 S
Zn5 O11 2.035 1_554 S
O6 Zn5 2.028 . S
O6 C12 1.250 . S
O7 Zn3 2.035 . S
O7 C12 1.255 1_665 S
O8 C1 1.250 . S
O8 Zn5 2.028 1_655 S
O9 C1 1.253 1_565 S
O9 Zn3 2.035 . S
O10 Zn3 2.028 1_556 S
O10 C13 1.247 1_655 S
O11 Zn5 2.035 1_556 S
O11 C13 1.258 1_545 S
C12 O6 1.250 . S
C12 O7 1.255 1_445 S
C13 O10 1.247 1_455 S
C13 O11 1.258 1_565 S
C14 O16 1.247 1_455 S
C14 O18 1.258 . S
C15 O22 1.247 . S
C15 O23 1.258 1_455 S
O16 C14 1.247 1_655 S
O16 Zn17 2.028 . S
Zn17 O16 2.028 . S
Zn17 O21 2.035 1_655 S
Zn17 O23 2.035 . S
Zn17 O24 2.028 . S
O18 C14 1.258 . S
O18 Zn19 2.035 . S
Zn19 O18 2.035 . S
Zn19 O20 2.028 . S
Zn19 O22 2.028 . S
Zn19 O25 2.035 1_445 S
O20 Zn19 2.028 . S
O20 C26 1.247 . S
O21 Zn17 2.035 1_455 S
O21 C26 1.258 . S
O22 C15 1.247 . S
O22 Zn19 2.028 . S
O23 C15 1.258 1_655 S
O23 Zn17 2.035 . S
O24 Zn17 2.028 . S
O24 C27 1.247 1_545 S
O25 Zn19 2.035 1_665 S
O25 C27 1.258 . S
C26 O20 1.247 . S
C26 O21 1.258 . S
C27 O24 1.247 1_565 S
C27 O25 1.258 . S
C28 O30 1.247 . S
C28 O32 1.258 . S
C29 O36 1.247 . S
C29 O37 1.258 . S
O30 C28 1.247 . S
O30 Zn31 2.028 . S
Zn31 O30 2.028 . S
Zn31 O35 2.035 . S
Zn31 O37 2.035 . S
Zn31 O38 2.028 1_545 S
O32 C28 1.258 . S
O32 Zn33 2.035 . S
Zn33 O32 2.035 . S
Zn33 O34 2.028 . S
Zn33 O36 2.028 . S
Zn33 O39 2.035 . S
O34 Zn33 2.028 . S
O34 C40 1.247 . S
O35 Zn31 2.035 . S
O35 C40 1.258 . S
O36 C29 1.247 . S
O36 Zn33 2.028 . S
O37 C29 1.258 . S
O37 Zn31 2.035 . S
O38 Zn31 2.028 1_565 S
O38 C41 1.247 . S
O39 Zn33 2.035 . S
O39 C41 1.258 1_545 S
C40 O34 1.247 . S
C40 O35 1.258 . S
C41 O38 1.247 . S
C41 O39 1.258 1_565 S
C42 C43 1.386 1_545 S
C42 C44 1.383 . S
C42 H58 0.951 . S
C43 C42 1.386 1_565 S
C43 C47 1.383 . S
C44 C42 1.383 . S
C44 C45 1.402 1_545 S
C44 H59 0.951 . S
C45 C44 1.402 1_565 S
C45 C46 1.375 . S
C45 C48 1.481 . S
C46 C45 1.375 . S
C46 C47 1.367 . S
C46 H60 0.951 . S
C47 C43 1.383 . S
C47 C46 1.367 . S
C47 H61 0.950 . S
C48 C45 1.481 . S
C48 C49 1.297 1_565 S
C48 H62 0.950 . S
C49 C48 1.297 1_545 S
C49 C50 1.479 . S
C49 H63 0.950 . S
C50 C49 1.479 . S
C50 C51 1.375 . S
C50 C56 1.404 1_545 S
C51 C50 1.375 . S
C51 C52 1.369 . S
C51 H64 0.950 . S
C52 C51 1.369 . S
C52 C53 1.392 1_545 S
C52 H65 0.951 . S
C53 C52 1.392 1_565 S
C53 C55 1.384 . S
H54 C56 0.949 . S
C55 C53 1.384 . S
C55 C56 1.385 . S
C55 H57 0.950 . S
C56 C50 1.404 1_565 S
C56 H54 0.949 . S
C56 C55 1.385 . S
H57 C55 0.950 . S
H58 C42 0.951 . S
H59 C44 0.951 . S
H60 C46 0.951 . S
H61 C47 0.950 . S
H62 C48 0.950 . S
H63 C49 0.950 . S
H64 C51 0.950 . S
H65 C52 0.951 . S
C66 C67 1.386 . S
C66 C68 1.383 . S
C66 H82 0.951 . S
C67 C66 1.386 . S
C67 C71 1.383 . S
C68 C66 1.383 . S
C68 C69 1.402 . S
C68 H83 0.951 . S
C69 C68 1.402 . S
C69 C70 1.375 . S
C69 C72 1.481 . S
C70 C69 1.375 . S
C70 C71 1.367 . S
C70 H84 0.951 . S
C71 C67 1.383 . S
C71 C70 1.367 . S
C71 H85 0.950 . S
C72 C69 1.481 . S
C72 C73 1.297 . S
C72 H86 0.950 . S
C73 C72 1.297 . S
C73 C74 1.479 . S
C73 H87 0.950 . S
C74 C73 1.479 . S
C74 C75 1.375 . S
C74 C80 1.404 . S
C75 C74 1.375 . S
C75 C76 1.369 . S
C75 H88 0.950 . S
C76 C75 1.369 . S
C76 C77 1.392 . S
C76 H89 0.951 . S
C77 C76 1.392 . S
C77 C79 1.384 . S
H78 C80 0.949 . S
C79 C77 1.384 . S
C79 C80 1.385 . S
C79 H81 0.950 . S
C80 C74 1.404 . S
C80 H78 0.949 . S
C80 C79 1.385 . S
H81 C79 0.950 . S
H82 C66 0.951 . S
H83 C68 0.951 . S
H84 C70 0.951 . S
H85 C71 0.950 . S
H86 C72 0.950 . S
H87 C73 0.950 . S
H88 C75 0.950 . S
H89 C76 0.951 . S
C90 C91 1.386 . S
C90 C92 1.383 . S
C90 H106 0.951 . S
C91 C90 1.386 . S
C91 C95 1.383 . S
C92 C90 1.383 . S
C92 C93 1.402 . S
C92 H107 0.951 . S
C93 C92 1.402 . S
C93 C94 1.375 . S
C93 C96 1.481 . S
C94 C93 1.375 . S
C94 C95 1.367 . S
C94 H108 0.951 . S
C95 C91 1.383 . S
C95 C94 1.367 . S
C95 H109 0.950 . S
C96 C93 1.481 . S
C96 C97 1.297 . S
C96 H110 0.950 . S
C97 C96 1.297 . S
C97 C98 1.479 . S
C97 H111 0.950 . S
C98 C97 1.479 . S
C98 C99 1.375 . S
C98 C104 1.404 . S
C99 C98 1.375 . S
C99 C100 1.369 . S
C99 H112 0.950 . S
C100 C99 1.369 . S
C100 C101 1.392 . S
C100 H113 0.951 . S
C101 C100 1.392 . S
C101 C103 1.384 . S
H102 C104 0.949 . S
C103 C101 1.384 . S
C103 C104 1.385 . S
C103 H105 0.950 . S
C104 C98 1.404 . S
C104 H102 0.949 . S
C104 C103 1.385 . S
H105 C103 0.950 . S
H106 C90 0.951 . S
H107 C92 0.951 . S
H108 C94 0.951 . S
H109 C95 0.950 . S
H110 C96 0.950 . S
H111 C97 0.950 . S
H112 C99 0.950 . S
H113 C100 0.951 . S
C114 C115 1.386 1_455 S
C114 C116 1.383 . S
C114 H130 0.951 . S
C115 C114 1.386 1_655 S
C115 C119 1.383 . S
C116 C114 1.383 . S
C116 C117 1.402 1_455 S
C116 H131 0.951 . S
C117 C116 1.402 1_655 S
C117 C118 1.375 . S
C117 C120 1.481 . S
C118 C117 1.375 . S
C118 C119 1.367 . S
C118 H132 0.951 . S
C119 C115 1.383 . S
C119 C118 1.367 . S
C119 H133 0.950 . S
C120 C117 1.481 . S
C120 C121 1.297 1_545 S
C120 H134 0.950 . S
C121 C120 1.297 1_565 S
C121 C122 1.479 . S
C121 H135 0.950 1_655 S
C122 C121 1.479 . S
C122 C123 1.375 1_655 S
C122 C128 1.404 . S
C123 C122 1.375 1_455 S
C123 C124 1.369 . S
C123 H136 0.950 . S
C124 C123 1.369 . S
C124 C125 1.392 1_455 S
C124 H137 0.951 . S
C125 C124 1.392 1_655 S
C125 C127 1.384 . S
H126 C128 0.949 . S
C127 C125 1.384 . S
C127 C128 1.385 . S
C127 H129 0.950 . S
C128 C122 1.404 . S
C128 H126 0.949 . S
C128 C127 1.385 . S
H129 C127 0.950 . S
H130 C114 0.951 . S
H131 C116 0.951 . S
H132 C118 0.951 . S
H133 C119 0.950 . S
H134 C120 0.950 . S
H135 C121 0.950 1_455 S
H136 C123 0.950 . S
H137 C124 0.951 . S
C138 C139 1.386 . S
C138 C140 1.383 . S
C138 H154 0.951 . S
C139 C138 1.386 . S
C139 C143 1.383 . S
C140 C138 1.383 . S
C140 C141 1.402 . S
C140 H155 0.951 . S
C141 C140 1.402 . S
C141 C142 1.375 . S
C141 C144 1.481 . S
C142 C141 1.375 . S
C142 C143 1.367 . S
C142 H156 0.951 1_545 S
C143 C139 1.383 . S
C143 C142 1.367 . S
C143 H157 0.950 1_545 S
C144 C141 1.481 . S
C144 C145 1.297 . S
C144 H158 0.950 . S
C145 C144 1.297 . S
C145 C146 1.479 . S
C145 H159 0.950 . S
C146 C145 1.479 . S
C146 C147 1.375 . S
C146 C152 1.404 . S
C147 C146 1.375 . S
C147 C148 1.369 . S
C147 H160 0.950 . S
C148 C147 1.369 . S
C148 C149 1.392 . S
C148 H161 0.951 . S
C149 C148 1.392 . S
C149 C151 1.384 . S
H150 C152 0.949 . S
C151 C149 1.384 . S
C151 C152 1.385 . S
C151 H153 0.950 1_545 S
C152 C146 1.404 . S
C152 H150 0.949 . S
C152 C151 1.385 . S
H153 C151 0.950 1_565 S
H154 C138 0.951 . S
H155 C140 0.951 . S
H156 C142 0.951 1_565 S
H157 C143 0.950 1_565 S
H158 C144 0.950 . S
H159 C145 0.950 . S
H160 C147 0.950 . S
H161 C148 0.951 . S
C162 C163 1.386 . S
C162 C164 1.383 . S
C162 H178 0.951 . S
C163 C162 1.386 . S
C163 C167 1.383 1_545 S
C164 C162 1.383 . S
C164 C165 1.402 . S
C164 H179 0.951 . S
C165 C164 1.402 . S
C165 C166 1.375 1_445 S
C165 C168 1.481 . S
C166 C165 1.375 1_665 S
C166 C167 1.367 1_655 S
C166 H180 0.951 . S
C167 C163 1.383 1_565 S
C167 C166 1.367 1_455 S
C167 H181 0.950 1_455 S
C168 C165 1.481 . S
C168 C169 1.297 . S
C168 H182 0.950 1_445 S
C169 C168 1.297 . S
C169 C170 1.479 . S
C169 H183 0.950 . S
C170 C169 1.479 . S
C170 C171 1.375 . S
C170 C176 1.404 1_445 S
C171 C170 1.375 . S
C171 C172 1.369 . S
C171 H184 0.950 . S
C172 C171 1.369 . S
C172 C173 1.392 . S
C172 H185 0.951 . S
C173 C172 1.392 . S
C173 C175 1.384 1_445 S
H174 C176 0.949 . S
C175 C173 1.384 1_665 S
C175 C176 1.385 . S
C175 H177 0.950 . S
C176 C170 1.404 1_665 S
C176 H174 0.949 . S
C176 C175 1.385 . S
H177 C175 0.950 . S
H178 C162 0.951 . S
H179 C164 0.951 . S
H180 C166 0.951 . S
H181 C167 0.950 1_655 S
H182 C168 0.950 1_665 S
H183 C169 0.950 . S
H184 C171 0.950 . S
H185 C172 0.951 . S
C43 C1 1.495 1_565 S
C53 C0 1.496 . S
C67 C27 1.493 . S
C77 C26 1.495 . S
C91 C41 1.499 . S
C101 C40 1.486 . S
C115 C15 1.518 1_655 S
C125 C12 1.525 1_665 S
C139 C29 1.523 . S
C149 C14 1.501 . S
C163 C28 1.517 . S
C173 C13 1.506 1_545 S
