# Generated by pormake.
# Topology pcu, (6)-cn, num edge types: 1
# Building blocks:
#     Node 0, Type 0, BuildingBlock: CUKXOW_clean_sbu_0, # of connection points: 6
#     Edge 1, Type (0, 0), BuildingBlock: OJICUG_clean_linker_0, # of connection points: 2
#     Edge 2, Type (0, 0), BuildingBlock: OJICUG_clean_linker_0, # of connection points: 2
#     Edge 3, Type (0, 0), BuildingBlock: OJICUG_clean_linker_0, # of connection points: 2
# Relax obj value: 0.000
# Max RMSD: 0.000
# Mean RMSD: 0.000
data_MOF--net-pcu--node1-CUKXOW_clean_sbu_0--edge1-OJICUG_clean_linker_0
_symmetry_space_group_name_H-M    P1
_symmetry_Int_Tables_number       1
_symmetry_cell_setting            triclinic
loop_
_symmetry_equiv_pos_as_xyz
'x, y, z'
_cell_length_a     9.7150029
_cell_length_b     14.048382
_cell_length_c     11.309262
_cell_angle_alpha  84.373048
_cell_angle_beta   105.29291
_cell_angle_gamma 119.43015
loop_
_atom_site_label
_atom_site_type_symbol
_atom_site_fract_x
_atom_site_fract_y
_atom_site_fract_z
_atom_type_partial_charge
Tb0 Tb 0.06685 0.09097 0.98455 0.0
C1 C 1.01973 -0.02914 0.7474 0.0
Tb2 Tb 0.98098 0.84761 0.00058 0.0
O3 O 0.30447 0.13586 0.95274 0.0
O4 O 0.18962 0.00101 0.05563 0.0
O5 O 1.01781 0.05433 0.79135 0.0
C6 C 0.99496 0.66266 0.00155 0.0
O7 O 1.02109 0.88835 0.81569 0.0
C8 C 0.73878 0.8874 0.97678 0.0
C9 C 0.02813 0.96772 0.23773 0.0
O10 O 0.8685 0.67415 0.94733 0.0
O11 O 0.11144 0.75447 0.05587 0.0
O12 O 0.74333 0.80299 0.03244 0.0
O13 O 0.85848 0.93755 0.92961 0.0
O14 O 0.03006 0.88426 0.19377 0.0
O15 O 0.02673 0.05023 0.16944 0.0
C16 C 0.05283 0.27591 0.98367 0.0
O17 O 0.17921 0.26437 0.03802 0.0
O18 O 0.93646 0.18415 0.92916 0.0
C19 C 0.30925 0.05152 0.00838 0.0
C20 C 1.01921 0.05356 0.41788 0.0
C21 C 0.02658 0.96875 0.36822 0.0
H22 H 1.01104 0.12083 0.57582 0.0
C23 C 0.03119 0.88446 0.44436 0.0
H24 H 1.01512 0.11971 0.36194 0.0
C25 C 0.02866 0.88503 0.56725 0.0
C26 C 1.02129 -0.03016 0.61691 0.0
H27 H 0.03682 0.81776 0.40931 0.0
H28 H 0.03275 0.81888 0.62319 0.0
C29 C 1.01668 0.05412 0.54077 0.0
C30 C 0.49767 0.03979 0.90419 0.0
C31 C 0.42179 0.01151 0.00157 0.0
H32 H 0.65341 0.01892 0.81778 0.0
C33 C 0.45003 0.94167 0.09033 0.0
H34 H 0.47683 0.09289 0.83408 0.0
C35 C 0.55071 0.89942 0.08102 0.0
C36 C 0.62657 0.92768 0.98365 0.0
H37 H 0.39482 0.92016 0.16736 0.0
H38 H 0.57148 0.84628 0.15111 0.0
C39 C 0.59832 -0.00249 0.89486 0.0
C40 C 0.87633 0.46781 0.93499 0.0
C41 C 1.00869 0.56329 -0.00223 0.0
H42 H 0.78724 0.30152 0.88128 0.0
C43 C 0.15638 0.56411 0.05531 0.0
H44 H 0.76139 0.4653 0.88972 0.0
C45 C 0.17143 0.47074 0.05026 0.0
C46 C 0.03908 0.37526 0.98748 0.0
H47 H 0.26053 0.63703 0.10396 0.0
H48 H 0.28637 0.47324 0.09554 0.0
C49 C 0.89139 0.37444 0.92994 0.0
loop_
_geom_bond_atom_site_label_1
_geom_bond_atom_site_label_2
_geom_bond_distance
_geom_bond_site_symmetry_2
_ccdc_geom_bond_type
Tb0 O3 2.453 . S
Tb0 O4 2.596 1_545 S
Tb0 O5 2.374 1_554 S
Tb0 O13 2.343 1_454 S
Tb0 O15 2.353 . S
Tb0 O17 2.427 . S
Tb0 O18 2.513 1_554 S
C1 O5 1.251 1_655 S
C1 O7 1.263 1_545 S
Tb2 O4 2.343 1_656 S
Tb2 O7 2.353 . S
Tb2 O10 2.427 . S
Tb2 O11 2.513 1_556 S
Tb2 O12 2.453 . S
Tb2 O13 2.596 1_565 S
Tb2 O14 2.374 1_556 S
O3 Tb0 2.453 . S
O3 C19 1.245 . S
O4 Tb0 2.596 1_565 S
O4 Tb2 2.343 1_454 S
O4 C19 1.259 1_565 S
O5 Tb0 2.374 1_556 S
O5 C1 1.251 1_455 S
C6 O10 1.273 1_554 S
C6 O11 1.247 . S
O7 C1 1.263 1_565 S
O7 Tb2 2.353 . S
C8 O12 1.245 . S
C8 O13 1.259 1_565 S
C9 O14 1.250 1_455 S
C9 O15 1.263 1_565 S
O10 Tb2 2.427 . S
O10 C6 1.273 1_556 S
O11 Tb2 2.513 1_554 S
O11 C6 1.247 . S
O12 Tb2 2.453 . S
O12 C8 1.245 . S
O13 Tb0 2.343 1_656 S
O13 Tb2 2.596 1_545 S
O13 C8 1.259 1_545 S
O14 Tb2 2.374 1_554 S
O14 C9 1.250 1_655 S
O15 Tb0 2.353 . S
O15 C9 1.263 1_545 S
C16 O17 1.275 1_556 S
C16 O18 1.245 . S
O17 Tb0 2.427 . S
O17 C16 1.275 1_554 S
O18 Tb0 2.513 1_556 S
O18 C16 1.245 . S
C19 O3 1.245 . S
C19 O4 1.259 1_545 S
C20 C21 1.387 . S
C20 H24 0.950 . S
C20 C29 1.390 . S
C21 C20 1.387 . S
C21 C23 1.387 1_445 S
H22 C29 0.950 . S
C23 C21 1.387 1_665 S
C23 C25 1.390 . S
C23 H27 0.950 . S
H24 C20 0.950 . S
C25 C23 1.390 . S
C25 C26 1.385 . S
C25 H28 0.950 . S
C26 C25 1.385 . S
C26 C29 1.389 1_665 S
H27 C23 0.950 . S
H28 C25 0.950 . S
C29 C20 1.390 . S
C29 H22 0.950 . S
C29 C26 1.389 1_445 S
C30 C31 1.389 1_545 S
C30 H34 0.950 . S
C30 C39 1.390 . S
C31 C30 1.389 1_565 S
C31 C33 1.388 1_556 S
H32 C39 0.950 . S
C33 C31 1.388 1_554 S
C33 C35 1.390 . S
C33 H37 0.950 . S
H34 C30 0.950 . S
C35 C33 1.390 . S
C35 C36 1.390 1_565 S
C35 H38 0.950 . S
C36 C35 1.390 1_545 S
C36 C39 1.390 1_554 S
H37 C33 0.950 . S
H38 C35 0.950 . S
C39 C30 1.390 . S
C39 H32 0.950 . S
C39 C36 1.390 1_556 S
C40 C41 1.386 1_556 S
C40 H44 0.950 . S
C40 C49 1.390 . S
C41 C40 1.386 1_554 S
C41 C43 1.386 1_655 S
H42 C49 0.950 . S
C43 C41 1.386 1_455 S
C43 C45 1.390 . S
C43 H47 0.950 . S
H44 C40 0.950 . S
C45 C43 1.390 . S
C45 C46 1.385 . S
C45 H48 0.950 . S
C46 C45 1.385 . S
C46 C49 1.385 1_454 S
H47 C43 0.950 . S
H48 C45 0.950 . S
C49 C40 1.390 . S
C49 H42 0.950 . S
C49 C46 1.385 1_656 S
C21 C9 1.489 1_545 S
C26 C1 1.489 1_565 S
C31 C19 1.444 1_566 S
C36 C8 1.441 1_544 S
C41 C6 1.479 . S
C46 C16 1.481 1_554 S
