# Generated by pormake.
# Topology pcu, (6)-cn, num edge types: 1
# Building blocks:
#     Node 0, Type 0, BuildingBlock: BETDAH_clean_sbu_0, # of connection points: 6
#     Edge 1, Type (0, 0), BuildingBlock: FUNLAD_clean_linker_0, # of connection points: 2
#     Edge 2, Type (0, 0), BuildingBlock: FUNLAD_clean_linker_0, # of connection points: 2
#     Edge 3, Type (0, 0), BuildingBlock: FUNLAD_clean_linker_0, # of connection points: 2
# Relax obj value: 0.000
# Max RMSD: 0.000
# Mean RMSD: 0.000
data_MOF--net-pcu--node1-BETDAH_clean_sbu_0--edge1-FUNLAD_clean_linker_0
_symmetry_space_group_name_H-M    P1
_symmetry_Int_Tables_number       1
_symmetry_cell_setting            triclinic
loop_
_symmetry_equiv_pos_as_xyz
'x, y, z'
_cell_length_a     27.885086
_cell_length_b     17.953316
_cell_length_c     16.947234
_cell_angle_alpha  86.163902
_cell_angle_beta   96.945123
_cell_angle_gamma 125.26521
loop_
_atom_site_label
_atom_site_type_symbol
_atom_site_fract_x
_atom_site_fract_y
_atom_site_fract_z
_atom_type_partial_charge
Ho0 Ho 0.95828 0.93481 0.01841 0.0
Ho1 Ho 0.09147 0.04881 1.0019 0.0
C2 C 0.03294 0.15597 0.99887 0.0
C3 C 0.85455 0.86954 0.06085 0.0
C4 C 0.81179 0.89362 0.05184 0.0
C5 C 0.76061 0.8419 0.09126 0.0
C6 C 0.71869 0.86207 0.08226 0.0
C7 C 0.72709 0.93458 0.0335 0.0
C8 C 0.77892 -0.01317 0.99451 0.0
C9 C 0.82089 0.96654 1.00363 0.0
C10 C 0.98756 0.95461 0.86847 0.0
C11 C 1.01679 0.82765 0.02118 0.0
C12 C 0.19535 0.11427 0.95994 0.0
C13 C 0.23805 0.09007 0.96885 0.0
C14 C 0.28927 0.14186 0.92952 0.0
C15 C 0.33116 0.12161 0.93846 0.0
C16 C 0.32267 0.04895 0.98707 0.0
C17 C 0.27079 -0.00338 0.02597 0.0
C18 C 0.22886 0.01699 0.0169 0.0
C19 C 0.06183 0.02884 0.15177 0.0
O20 O 0.98652 0.08019 0.02531 0.0
O21 O 0.07673 0.15785 0.97386 0.0
O22 O 0.86317 0.84513 0.99596 0.0
O23 O 0.90374 0.92367 0.1057 0.0
O24 O 0.94084 0.88205 0.89381 0.0
O25 O 1.0137 0.01514 0.92172 0.0
O26 O 0.0632 0.90344 0.99474 0.0
O27 O 0.97303 0.82577 0.0463 0.0
O28 O 0.18655 0.13821 0.02494 0.0
O29 O 0.14628 0.06052 0.91474 0.0
O30 O 0.10851 0.10158 0.12652 0.0
O31 O 0.03608 0.96847 0.09844 0.0
H32 H 0.75276 0.78519 0.12858 0.0
H33 H 0.67909 0.81959 0.11235 0.0
H34 H 0.78731 0.04387 0.95735 0.0
H35 H 0.86027 0.00745 0.97282 0.0
H36 H 0.29719 0.19869 0.89234 0.0
H37 H 0.37079 0.16414 0.90846 0.0
H38 H 0.26234 0.93948 0.063 0.0
H39 H 0.18945 0.97603 0.04763 0.0
C40 C 0.08113 0.08499 0.29079 0.0
C41 C 0.04691 0.01424 0.23468 0.0
C42 C 0.06823 0.07103 0.36991 0.0
C43 C 1.02085 -0.0145 0.39474 0.0
C44 C 0.98598 0.91548 0.33791 0.0
C45 C 0.99897 0.92948 0.25881 0.0
C46 C 1.00534 0.96709 0.47837 0.0
C47 C 0.04365 0.01563 0.54169 0.0
C48 C 0.02819 -0.00265 0.62535 0.0
C49 C 0.06332 0.06733 0.68215 0.0
C50 C 0.05042 0.0535 0.76128 0.0
C51 C 1.00232 0.96897 0.78548 0.0
H52 H 0.95357 0.85513 0.60948 0.0
C53 C 0.96782 0.89826 0.72939 0.0
C54 C 0.98062 0.91204 0.65023 0.0
H55 H 0.93083 0.83204 0.74668 0.0
H56 H 0.11799 0.15138 0.27355 0.0
H57 H 0.09505 0.12798 0.41067 0.0
H58 H 0.94886 0.84923 0.35494 0.0
H59 H 0.9717 0.87378 0.21671 0.0
H60 H 0.96058 0.91031 0.48741 0.0
H61 H 0.08842 0.07236 0.53261 0.0
H62 H 0.10058 0.13341 0.66508 0.0
H63 H 0.07791 0.10918 0.80335 0.0
C64 C 0.39811 0.0356 0.93371 0.0
C65 C 0.36825 0.0291 0.99793 0.0
C66 C 0.44188 0.01917 0.94424 0.0
C67 C 0.45726 -0.00374 0.01964 0.0
C68 C 0.42668 -0.01167 0.0834 0.0
C69 C 0.38295 0.00475 0.07286 0.0
C70 C 0.50344 0.97766 0.03427 0.0
C71 C 0.54626 0.00573 0.9862 0.0
C72 C 0.59244 -0.01286 1.00085 0.0
C73 C 0.62297 -0.00505 0.93708 0.0
C74 C 0.66671 0.97855 0.94764 0.0
C75 C 0.68148 0.95437 0.02261 0.0
H76 H 0.58726 0.96061 0.12787 0.0
C77 C 0.65166 0.94799 0.08684 0.0
C78 C 0.60788 0.96439 0.07629 0.0
H79 H 0.66271 0.93147 0.1458 0.0
H80 H 0.38711 0.05224 0.87478 0.0
H81 H 0.46254 0.02305 0.89266 0.0
H82 H 0.43711 0.97028 0.14207 0.0
H83 H 0.36141 -6e-05 0.12391 0.0
H84 H 0.50193 0.93991 0.08773 0.0
H85 H 0.54777 0.04348 0.93274 0.0
H86 H 0.61249 0.01287 0.87838 0.0
H87 H 0.68821 0.98326 0.89658 0.0
C88 C 0.06357 0.74684 1.00362 0.0
C89 C 1.01544 0.74411 0.02508 0.0
C90 C 0.06246 0.66812 1.00621 0.0
C91 C 1.01285 0.58456 0.0296 0.0
C92 C 0.9653 0.58222 0.0526 0.0
C93 C 0.96641 0.66111 0.0501 0.0
C94 C 1.00969 0.49916 0.03252 0.0
C95 C 0.04002 0.48444 0.98728 0.0
C96 C 0.03685 0.39904 0.99021 0.0
C97 C 0.08442 0.40138 0.9673 0.0
C98 C 0.08332 0.3225 0.96986 0.0
C99 C 0.03428 0.2395 0.99486 0.0
H100 H 0.94866 0.30984 0.0287 0.0
C101 C 0.98613 0.23677 0.01622 0.0
C102 C 0.98722 0.31548 0.01357 0.0
H103 H 0.94728 0.1737 0.03481 0.0
H104 H 0.10241 0.80991 0.98501 0.0
H105 H 0.10101 0.67376 0.99101 0.0
H106 H 0.92683 0.51889 0.07169 0.0
H107 H 0.92874 0.6568 0.06741 0.0
H108 H 0.98052 0.44653 0.07267 0.0
H109 H 0.06918 0.53707 0.94713 0.0
H110 H 0.1229 0.46471 0.94824 0.0
H111 H 0.12101 0.3268 0.95263 0.0
loop_
_geom_bond_atom_site_label_1
_geom_bond_atom_site_label_2
_geom_bond_distance
_geom_bond_site_symmetry_2
_ccdc_geom_bond_type
Ho0 C3 2.811 . S
Ho0 O20 2.322 1_565 S
Ho0 O22 2.378 . S
Ho0 O23 2.524 1_556 S
Ho0 O24 2.381 . S
Ho0 O25 2.669 1_665 S
Ho0 O27 2.346 . S
Ho0 O31 2.305 1_556 S
Ho1 C12 2.811 . S
Ho1 O21 2.346 . S
Ho1 O25 2.305 1_554 S
Ho1 O26 2.322 1_545 S
Ho1 O28 2.378 . S
Ho1 O29 2.524 1_554 S
Ho1 O30 2.381 . S
Ho1 O31 2.669 1_445 S
C2 O20 1.259 1_455 S
C2 O21 1.268 1_556 S
C3 Ho0 2.811 . S
C3 C4 1.490 . S
C3 O22 1.215 . S
C3 O23 1.289 1_556 S
C4 C3 1.490 . S
C4 C5 1.339 1_566 S
C4 C9 1.421 . S
C5 C4 1.339 1_544 S
C5 C6 1.442 . S
C5 H32 0.930 . S
C6 C5 1.442 . S
C6 C7 1.381 1_544 S
C6 H33 0.931 . S
C7 C6 1.381 1_566 S
C7 C8 1.321 . S
C8 C7 1.321 . S
C8 C9 1.403 . S
C8 H34 0.934 . S
C9 C4 1.421 . S
C9 C8 1.403 . S
C9 H35 0.930 . S
C10 O24 1.275 . S
C10 O25 1.256 1_665 S
C11 O26 1.259 1_655 S
C11 O27 1.268 1_554 S
C12 Ho1 2.811 . S
C12 C13 1.490 . S
C12 O28 1.215 . S
C12 O29 1.289 1_554 S
C13 C12 1.490 . S
C13 C14 1.336 1_544 S
C13 C18 1.424 . S
C14 C13 1.336 1_566 S
C14 C15 1.442 . S
C14 H36 0.930 . S
C15 C14 1.442 . S
C15 C16 1.381 1_566 S
C15 H37 0.931 . S
C16 C15 1.381 1_544 S
C16 C17 1.321 . S
C17 C16 1.321 . S
C17 C18 1.403 . S
C17 H38 0.934 . S
C18 C13 1.424 . S
C18 C17 1.403 . S
C18 H39 0.930 . S
C19 O30 1.275 . S
C19 O31 1.256 1_445 S
O20 Ho0 2.322 1_545 S
O20 C2 1.259 1_655 S
O21 Ho1 2.346 . S
O21 C2 1.268 1_554 S
O22 Ho0 2.378 . S
O22 C3 1.215 . S
O23 Ho0 2.524 1_554 S
O23 C3 1.289 1_554 S
O24 Ho0 2.381 . S
O24 C10 1.275 . S
O25 Ho0 2.669 1_445 S
O25 Ho1 2.305 1_556 S
O25 C10 1.256 1_445 S
O26 Ho1 2.322 1_565 S
O26 C11 1.259 1_455 S
O27 Ho0 2.346 . S
O27 C11 1.268 1_556 S
O28 Ho1 2.378 . S
O28 C12 1.215 . S
O29 Ho1 2.524 1_556 S
O29 C12 1.289 1_556 S
O30 Ho1 2.381 . S
O30 C19 1.275 . S
O31 Ho0 2.305 1_554 S
O31 Ho1 2.669 1_665 S
O31 C19 1.256 1_665 S
H32 C5 0.930 . S
H33 C6 0.931 . S
H34 C8 0.934 . S
H35 C9 0.930 . S
H36 C14 0.930 . S
H37 C15 0.931 . S
H38 C17 0.934 . S
H39 C18 0.930 . S
C40 C41 1.400 1_565 S
C40 C42 1.383 . S
C40 H56 0.951 . S
C41 C40 1.400 1_545 S
C41 C45 1.366 1_455 S
C42 C40 1.383 . S
C42 C43 1.402 1_565 S
C42 H57 0.951 . S
C43 C42 1.402 1_545 S
C43 C44 1.375 1_455 S
C43 C46 1.481 . S
C44 C43 1.375 1_655 S
C44 C45 1.367 . S
C44 H58 0.951 . S
C45 C41 1.366 1_655 S
C45 C44 1.367 . S
C45 H59 0.950 . S
C46 C43 1.481 . S
C46 C47 1.297 . S
C46 H60 0.950 1_455 S
C47 C46 1.297 . S
C47 C48 1.479 . S
C47 H61 0.950 . S
C48 C47 1.479 . S
C48 C49 1.375 1_545 S
C48 C54 1.404 1_455 S
C49 C48 1.375 1_565 S
C49 C50 1.369 . S
C49 H62 0.950 . S
C50 C49 1.369 . S
C50 C51 1.392 1_565 S
C50 H63 0.951 . S
C51 C50 1.392 1_545 S
C51 C53 1.384 1_455 S
H52 C54 0.949 . S
C53 C51 1.384 1_655 S
C53 C54 1.385 . S
C53 H55 0.950 . S
C54 C48 1.404 1_655 S
C54 H52 0.949 . S
C54 C53 1.385 . S
H55 C53 0.950 . S
H56 C40 0.951 . S
H57 C42 0.951 . S
H58 C44 0.951 . S
H59 C45 0.950 . S
H60 C46 0.950 1_655 S
H61 C47 0.950 . S
H62 C49 0.950 . S
H63 C50 0.951 . S
C64 C65 1.386 1_566 S
C64 C66 1.383 . S
C64 H80 0.951 . S
C65 C64 1.386 1_544 S
C65 C69 1.383 . S
C66 C64 1.383 . S
C66 C67 1.402 1_566 S
C66 H81 0.951 . S
C67 C66 1.402 1_544 S
C67 C68 1.375 . S
C67 C70 1.481 . S
C68 C67 1.375 . S
C68 C69 1.367 . S
C68 H82 0.951 . S
C69 C65 1.383 . S
C69 C68 1.367 . S
C69 H83 0.950 . S
C70 C67 1.481 . S
C70 C71 1.297 1_554 S
C70 H84 0.950 . S
C71 C70 1.297 1_556 S
C71 C72 1.479 . S
C71 H85 0.950 . S
C72 C71 1.479 . S
C72 C73 1.375 1_545 S
C72 C78 1.404 1_556 S
C73 C72 1.375 1_565 S
C73 C74 1.369 . S
C73 H86 0.950 . S
C74 C73 1.369 . S
C74 C75 1.392 1_565 S
C74 H87 0.951 . S
C75 C74 1.392 1_545 S
C75 C77 1.384 1_556 S
H76 C78 0.949 . S
C77 C75 1.384 1_554 S
C77 C78 1.385 . S
C77 H79 0.950 . S
C78 C72 1.404 1_554 S
C78 H76 0.949 . S
C78 C77 1.385 . S
H79 C77 0.950 . S
H80 C64 0.951 . S
H81 C66 0.951 . S
H82 C68 0.951 . S
H83 C69 0.950 . S
H84 C70 0.950 . S
H85 C71 0.950 . S
H86 C73 0.950 . S
H87 C74 0.951 . S
C88 C89 1.380 1_454 S
C88 C90 1.383 . S
C88 H104 0.951 . S
C89 C88 1.380 1_656 S
C89 C93 1.389 . S
C90 C88 1.383 . S
C90 C91 1.402 1_454 S
C90 H105 0.951 . S
C91 C90 1.402 1_656 S
C91 C92 1.375 . S
C91 C94 1.481 . S
C92 C91 1.375 . S
C92 C93 1.367 . S
C92 H106 0.951 . S
C93 C89 1.389 . S
C93 C92 1.367 . S
C93 H107 0.950 . S
C94 C91 1.481 . S
C94 C95 1.297 1_556 S
C94 H108 0.950 . S
C95 C94 1.297 1_554 S
C95 C96 1.479 . S
C95 H109 0.950 1_655 S
C96 C95 1.479 . S
C96 C97 1.375 1_655 S
C96 C102 1.404 1_554 S
C97 C96 1.375 1_455 S
C97 C98 1.369 . S
C97 H110 0.950 . S
C98 C97 1.369 . S
C98 C99 1.392 1_455 S
C98 H111 0.951 . S
C99 C98 1.392 1_655 S
C99 C101 1.384 1_554 S
H100 C102 0.949 . S
C101 C99 1.384 1_556 S
C101 C102 1.385 . S
C101 H103 0.950 . S
C102 C96 1.404 1_556 S
C102 H100 0.949 . S
C102 C101 1.385 . S
H103 C101 0.950 . S
H104 C88 0.951 . S
H105 C90 0.951 . S
H106 C92 0.951 . S
H107 C93 0.950 . S
H108 C94 0.950 . S
H109 C95 0.950 1_455 S
H110 C97 0.950 . S
H111 C98 0.951 . S
C41 C19 1.461 . S
C51 C10 1.487 1_445 S
C65 C16 1.492 . S
C75 C7 1.490 1_545 S
C89 C11 1.481 1_556 S
C99 C2 1.499 1_654 S
