# Generated by pormake.
# Topology nfc, (4)-cn, num edge types: 1
# Building blocks:
#     Node 0, Type 0, BuildingBlock: NAWXER_clean_sbu_0, # of connection points: 4
#     Node 1, Type 0, BuildingBlock: NAWXER_clean_sbu_0, # of connection points: 4
#     Node 2, Type 0, BuildingBlock: NAWXER_clean_sbu_0, # of connection points: 4
#     Node 3, Type 0, BuildingBlock: NAWXER_clean_sbu_0, # of connection points: 4
#     Node 4, Type 0, BuildingBlock: NAWXER_clean_sbu_0, # of connection points: 4
#     Node 5, Type 0, BuildingBlock: NAWXER_clean_sbu_0, # of connection points: 4
#     Node 6, Type 0, BuildingBlock: NAWXER_clean_sbu_0, # of connection points: 4
#     Node 7, Type 0, BuildingBlock: NAWXER_clean_sbu_0, # of connection points: 4
#     Node 8, Type 0, BuildingBlock: NAWXER_clean_sbu_0, # of connection points: 4
#     Node 9, Type 0, BuildingBlock: NAWXER_clean_sbu_0, # of connection points: 4
#     Node 10, Type 0, BuildingBlock: NAWXER_clean_sbu_0, # of connection points: 4
#     Node 11, Type 0, BuildingBlock: NAWXER_clean_sbu_0, # of connection points: 4
#     Node 12, Type 0, BuildingBlock: NAWXER_clean_sbu_0, # of connection points: 4
#     Node 13, Type 0, BuildingBlock: NAWXER_clean_sbu_0, # of connection points: 4
#     Node 14, Type 0, BuildingBlock: NAWXER_clean_sbu_0, # of connection points: 4
#     Node 15, Type 0, BuildingBlock: NAWXER_clean_sbu_0, # of connection points: 4
#     Edge 16, Type (0, 0), None
#     Edge 17, Type (0, 0), None
#     Edge 18, Type (0, 0), None
#     Edge 19, Type (0, 0), None
#     Edge 20, Type (0, 0), None
#     Edge 21, Type (0, 0), None
#     Edge 22, Type (0, 0), None
#     Edge 23, Type (0, 0), None
#     Edge 24, Type (0, 0), None
#     Edge 25, Type (0, 0), None
#     Edge 26, Type (0, 0), None
#     Edge 27, Type (0, 0), None
#     Edge 28, Type (0, 0), None
#     Edge 29, Type (0, 0), None
#     Edge 30, Type (0, 0), None
#     Edge 31, Type (0, 0), None
#     Edge 32, Type (0, 0), None
#     Edge 33, Type (0, 0), None
#     Edge 34, Type (0, 0), None
#     Edge 35, Type (0, 0), None
#     Edge 36, Type (0, 0), None
#     Edge 37, Type (0, 0), None
#     Edge 38, Type (0, 0), None
#     Edge 39, Type (0, 0), None
#     Edge 40, Type (0, 0), None
#     Edge 41, Type (0, 0), None
#     Edge 42, Type (0, 0), None
#     Edge 43, Type (0, 0), None
#     Edge 44, Type (0, 0), None
#     Edge 45, Type (0, 0), None
#     Edge 46, Type (0, 0), None
#     Edge 47, Type (0, 0), None
# Relax obj value: 0.157
# Max RMSD: 0.167
# Mean RMSD: 0.167
data_MOF--net-nfc--node1-NAWXER_clean_sbu_0--edge1-none
_symmetry_space_group_name_H-M    P1
_symmetry_Int_Tables_number       1
_symmetry_cell_setting            triclinic
loop_
_symmetry_equiv_pos_as_xyz
'x, y, z'
_cell_length_a     16.355331
_cell_length_b     16.142084
_cell_length_c     11.936314
_cell_angle_alpha  90.22739
_cell_angle_beta   91.164206
_cell_angle_gamma 90.348605
loop_
_atom_site_label
_atom_site_type_symbol
_atom_site_fract_x
_atom_site_fract_y
_atom_site_fract_z
_atom_type_partial_charge
C0 C 0.16712 0.12236 0.07364 0.0
C1 C 0.97326 0.89816 0.90982 0.0
O2 O 0.10341 0.14797 0.02254 0.0
Zn3 Zn 1.00127 0.10057 0.93332 0.0
O4 O 0.18624 0.04642 0.06263 0.0
Zn5 Zn 0.0848 1.00203 0.97767 0.0
O6 O 0.09538 0.04118 0.80822 0.0
O7 O 0.01668 0.1495 0.78682 0.0
O8 O 0.0444 0.88307 0.95091 0.0
O9 O 0.95133 0.9747 0.90246 0.0
O10 O 0.93016 0.14937 0.04533 0.0
O11 O 1.00479 0.0427 0.10374 0.0
C12 C 0.06877 0.1001 0.74656 0.0
C13 C 0.95584 0.1022 0.12389 0.0
C14 C 0.07953 0.86247 0.30873 0.0
C15 C 0.32341 0.68818 0.1687 0.0
O16 O 0.06541 0.78738 0.27839 0.0
Zn17 Zn 0.18028 0.7516 0.23445 0.0
O18 O 0.15079 0.89177 0.2958 0.0
Zn19 Zn 0.26905 0.85918 0.26359 0.0
O20 O 0.29041 0.92528 0.1339 0.0
O21 O 0.19838 0.82574 0.10299 0.0
O22 O 0.33631 0.76078 0.20601 0.0
O23 O 0.25102 0.65717 0.17478 0.0
O24 O 0.2189 0.75965 0.39286 0.0
O25 O 0.29851 0.87059 0.41873 0.0
C26 C 0.24238 0.88465 0.068 0.0
C27 C 0.25601 0.8105 0.45654 0.0
C28 C 0.57066 0.069 0.74076 0.0
C29 C 0.45075 1.01237 0.36535 0.0
O30 O 0.51986 0.11427 0.68805 0.0
Zn31 Zn 0.50412 0.04533 0.55599 0.0
O32 O 0.6014 1.00664 0.69039 0.0
Zn33 Zn 0.58743 0.94154 0.53358 0.0
O34 O 0.68746 0.9757 0.44003 0.0
O35 O 0.60265 0.07839 0.46058 0.0
O36 O 0.50468 0.95987 0.39657 0.0
O37 O 0.42478 0.06414 0.43585 0.0
O38 O 0.46366 0.93542 0.63099 0.0
O39 O 0.54478 0.831 0.59883 0.0
C40 C 0.66611 0.04937 0.41577 0.0
C41 C 0.48222 0.85969 0.64756 0.0
C42 C 0.33544 0.0681 0.82445 0.0
C43 C 0.21336 0.33365 0.65707 0.0
O44 O 0.38316 0.12557 0.79282 0.0
Zn45 Zn 0.38427 0.24717 0.72497 0.0
O46 O 0.25898 0.07819 0.80717 0.0
Zn47 Zn 0.26377 0.19408 0.73956 0.0
O48 O 0.31471 0.18604 0.5812 0.0
O49 O 0.44038 0.23829 0.58878 0.0
O50 O 0.17506 0.26932 0.69115 0.0
O51 O 0.29126 0.33627 0.67008 0.0
O52 O 0.43855 0.29386 0.8533 0.0
O53 O 0.3099 0.25515 0.88051 0.0
C54 C 0.37993 0.2091 0.53306 0.0
C55 C 0.3777 0.28524 0.91682 0.0
C56 C 0.85403 0.13985 0.56697 0.0
C57 C 0.02267 0.92055 0.3669 0.0
O58 O 0.82824 0.06591 0.54797 0.0
Zn59 Zn 0.92445 1.01679 0.46377 0.0
O60 O 0.91992 0.16323 0.52257 0.0
Zn61 Zn 0.01585 0.11589 0.43336 0.0
O62 O 1.00325 0.17115 0.28705 0.0
O63 O 0.92025 0.06498 0.30184 0.0
O64 O 0.04896 0.99517 0.37796 0.0
O65 O 0.95462 0.90111 0.41139 0.0
O66 O 1.00951 0.0366 0.59391 0.0
O67 O 0.09331 0.14066 0.55674 0.0
C68 C 0.94983 0.12257 0.24257 0.0
C69 C 0.06579 0.0871 0.62521 0.0
C70 C 0.25866 0.87389 0.95168 0.0
C71 C 0.23857 0.80307 0.57266 0.0
O72 O 0.21287 0.90909 0.87975 0.0
Zn73 Zn 0.22905 0.82836 0.76724 0.0
O74 O 0.29604 0.80644 0.9277 0.0
Zn75 Zn 0.30849 0.72274 0.79001 0.0
O76 O 0.4285 0.73484 0.74353 0.0
O77 O 0.3547 0.84799 0.72993 0.0
O78 O 0.26963 0.74205 0.62522 0.0
O79 O 0.1962 0.85767 0.62149 0.0
O80 O 0.15586 0.72511 0.82544 0.0
O81 O 0.24257 0.62251 0.84034 0.0
C82 C 0.42195 0.81069 0.71353 0.0
C83 C 0.16982 0.64957 0.85219 0.0
C84 C 0.6346 0.92248 0.12445 0.0
C85 C 0.36991 1.01354 0.91477 0.0
O86 O 0.61632 0.99965 0.12556 0.0
Zn87 Zn 0.50826 0.06858 0.06475 0.0
O88 O 0.58467 0.87188 0.07518 0.0
Zn89 Zn 0.50012 0.94414 0.01485 0.0
O90 O 0.58295 0.99784 0.91027 0.0
O91 O 0.5313 0.12047 0.92048 0.0
O92 O 0.41123 0.94943 0.89194 0.0
O93 O 0.38878 0.04988 0.00607 0.0
O94 O 0.47066 0.10244 0.21105 0.0
O95 O 0.45478 0.96866 0.17831 0.0
C96 C 0.5697 0.06693 0.86455 0.0
C97 C 0.44869 0.03066 0.24466 0.0
C98 C 0.32093 0.45247 0.31615 0.0
C99 C 0.2112 0.18297 0.14851 0.0
O100 O 0.24677 0.43797 0.29068 0.0
Zn101 Zn 0.26018 0.31964 0.23544 0.0
O102 O 0.37158 0.39476 0.29574 0.0
Zn103 Zn 0.38019 0.27062 0.22678 0.0
O104 O 0.44049 0.27646 0.09375 0.0
O105 O 0.31551 0.32759 0.07889 0.0
O106 O 0.28882 0.18026 0.16481 0.0
O107 O 0.17239 0.24548 0.18499 0.0
O108 O 0.30518 0.25851 0.38037 0.0
O109 O 0.43394 0.22246 0.35242 0.0
C110 C 0.38222 0.30489 0.03453 0.0
C111 C 0.37261 0.22687 0.41517 0.0
C112 C 0.68192 0.45592 0.82659 0.0
C113 C 0.81121 0.20209 0.63701 0.0
O114 O 0.63964 0.39998 0.77742 0.0
Zn115 Zn 0.64488 0.28741 0.69763 0.0
O116 O 0.75966 0.45323 0.81803 0.0
Zn117 Zn 0.76507 0.34205 0.7286 0.0
O118 O 0.71647 0.35855 0.56525 0.0
O119 O 0.59096 0.30708 0.55634 0.0
O120 O 0.85066 0.26389 0.67937 0.0
O121 O 0.73352 0.20084 0.64267 0.0
O122 O 0.59871 0.23713 0.82506 0.0
O123 O 0.72755 0.26918 0.8587 0.0
C124 C 0.65215 0.33911 0.50812 0.0
C125 C 0.66129 0.23621 0.88996 0.0
C126 C 0.90704 0.67738 0.38033 0.0
C127 C 0.70016 0.88793 0.20024 0.0
O128 O 0.92722 0.74937 0.34662 0.0
Zn129 Zn 0.82287 0.80995 0.29882 0.0
O130 O 0.83063 0.65919 0.3796 0.0
Zn131 Zn 0.71894 0.72483 0.34112 0.0
O132 O 0.67393 0.67015 0.20362 0.0
O133 O 0.79557 0.72548 0.17669 0.0
O134 O 0.67795 0.82605 0.25641 0.0
O135 O 0.77653 0.90681 0.20055 0.0
O136 O 0.78111 0.83808 0.45583 0.0
O137 O 0.67481 0.75972 0.48656 0.0
C138 C 0.73226 0.68893 0.13831 0.0
C139 C 0.72257 0.81812 0.51885 0.0
C140 C 0.66351 0.3221 0.38907 0.0
C141 C 0.65618 0.21958 0.00967 0.0
O142 O 0.60355 0.31615 0.32091 0.0
Zn143 Zn 0.65483 0.26841 0.19932 0.0
O144 O 0.73263 0.29364 0.36111 0.0
Zn145 Zn 0.7731 0.22115 0.22716 0.0
O146 O 0.86193 0.29313 0.18051 0.0
O147 O 0.74647 0.35844 0.14483 0.0
O148 O 0.72307 0.20313 0.0624 0.0
O149 O 0.59623 0.24876 0.06218 0.0
O150 O 0.65301 0.15465 0.28232 0.0
O151 O 0.77715 0.11115 0.31001 0.0
C152 C 0.82464 0.3563 0.14037 0.0
C153 C 0.70154 0.10242 0.32681 0.0
C154 C 0.68349 0.63591 0.69218 0.0
C155 C 0.91232 0.83073 0.87452 0.0
O156 O 0.66651 0.69865 0.75014 0.0
Zn157 Zn 0.72096 0.79218 0.83845 0.0
O158 O 0.75806 0.61079 0.69454 0.0
Zn159 Zn 0.82038 0.70121 0.79513 0.0
O160 O 0.77829 0.6795 0.95518 0.0
O161 O 0.67567 0.7627 0.98462 0.0
O162 O 0.93195 0.75845 0.83859 0.0
O163 O 0.83628 0.8487 0.87586 0.0
O164 O 0.68432 0.85612 0.70718 0.0
O165 O 0.79592 0.7849 0.67305 0.0
C166 C 0.72135 0.704 0.01829 0.0
C167 C 0.73801 0.83057 0.63886 0.0
C168 C 0.34574 0.51448 0.40473 0.0
C169 C 0.61422 0.60421 0.61766 0.0
O170 O 0.3827 0.58182 0.3816 0.0
Zn171 Zn 0.47354 0.58869 0.5066 0.0
O172 O 0.36576 0.48225 0.49739 0.0
Zn173 Zn 0.48624 0.46082 0.54913 0.0
O174 O 0.44851 0.41884 0.68964 0.0
O175 O 0.42766 0.55339 0.66539 0.0
O176 O 0.59491 0.52723 0.61302 0.0
O177 O 0.56418 0.65625 0.5732 0.0
O178 O 0.55297 0.53838 0.39682 0.0
O179 O 0.50847 0.41171 0.40546 0.0
C180 C 0.42211 0.48828 0.72588 0.0
C181 C 0.54101 0.46928 0.34934 0.0
C182 C 0.07831 0.42064 0.14302 0.0
C183 C 0.95915 0.40873 0.75942 0.0
O184 O 0.04003 0.48435 0.10913 0.0
Zn185 Zn 0.96698 0.52221 0.97663 0.0
O186 O 0.09551 0.3627 0.07426 0.0
Zn187 Zn 0.03976 0.40875 0.942 0.0
O188 O 0.11146 0.51594 0.89875 0.0
O189 O 0.03387 0.62391 0.93024 0.0
O190 O 1.01024 0.35614 0.79806 0.0
O191 O 0.94198 0.47148 0.81938 0.0
O192 O 0.86099 0.49373 0.06178 0.0
O193 O 0.93277 0.38356 0.02257 0.0
C194 C 0.10179 0.59465 0.89589 0.0
C195 C 0.87194 0.41526 0.06994 0.0
C196 C 0.39323 0.64465 0.11512 0.0
C197 C 0.63517 0.50223 0.91366 0.0
O198 O 0.39048 0.56645 0.10388 0.0
Zn199 Zn 0.46712 0.47558 0.03967 0.0
O200 O 0.45652 0.68382 0.08062 0.0
Zn201 Zn 0.53093 0.59432 0.02141 0.0
O202 O 0.46091 0.56303 0.88182 0.0
O203 O 0.39947 0.44511 0.91168 0.0
O204 O 0.63703 0.58003 0.93057 0.0
O205 O 0.57601 0.46178 0.95467 0.0
O206 O 0.49543 0.4142 0.17403 0.0
O207 O 0.55484 0.5363 0.17615 0.0
C208 C 0.41767 0.50268 0.84578 0.0
C209 C 0.53736 0.46884 0.22599 0.0
C210 C 0.16842 0.39657 0.58691 0.0
C211 C 0.96927 0.61267 0.41643 0.0
O212 O 0.18851 0.47308 0.57665 0.0
Zn213 Zn 0.08669 0.51633 0.48875 0.0
O214 O 0.10397 0.37116 0.53649 0.0
Zn215 Zn 1.0016 0.41387 0.44713 0.0
O216 O 0.01852 0.35998 0.30136 0.0
O217 O 0.09673 0.46959 0.32561 0.0
O218 O 0.94882 0.53557 0.41192 0.0
O219 O 0.04117 0.6312 0.45371 0.0
O220 O 1.00719 0.48259 0.61369 0.0
O221 O 0.93408 0.37151 0.56596 0.0
C222 C 0.07275 0.4089 0.2641 0.0
C223 C 0.95827 0.42438 0.63944 0.0
loop_
_geom_bond_atom_site_label_1
_geom_bond_atom_site_label_2
_geom_bond_distance
_geom_bond_site_symmetry_2
_ccdc_geom_bond_type
C0 O2 1.247 . S
C0 O4 1.258 . S
C1 O8 1.247 . S
C1 O9 1.258 . S
O2 C0 1.247 . S
O2 Zn3 2.030 1_455 S
Zn3 O2 2.030 1_655 S
Zn3 O7 2.027 1_554 S
Zn3 O9 2.033 1_544 S
Zn3 O10 2.036 . S
O4 C0 1.258 . S
O4 Zn5 2.034 1_544 S
Zn5 O4 2.034 1_566 S
Zn5 O6 2.034 . S
Zn5 O8 2.029 1_455 S
Zn5 O11 2.029 1_556 S
O6 Zn5 2.034 . S
O6 C12 1.247 1_565 S
O7 Zn3 2.027 1_556 S
O7 C12 1.258 1_655 S
O8 C1 1.247 . S
O8 Zn5 2.029 1_655 S
O9 C1 1.258 . S
O9 Zn3 2.033 1_566 S
O10 Zn3 2.036 . S
O10 C13 1.247 1_545 S
O11 Zn5 2.029 1_554 S
O11 C13 1.258 1_455 S
C12 O6 1.247 1_545 S
C12 O7 1.258 1_455 S
C13 O10 1.247 1_565 S
C13 O11 1.258 1_655 S
C14 O16 1.247 . S
C14 O18 1.258 . S
C15 O22 1.247 . S
C15 O23 1.258 . S
O16 C14 1.247 . S
O16 Zn17 2.028 . S
Zn17 O16 2.028 . S
Zn17 O21 2.035 . S
Zn17 O23 2.035 . S
Zn17 O24 2.028 . S
O18 C14 1.258 . S
O18 Zn19 2.035 . S
Zn19 O18 2.035 . S
Zn19 O20 2.028 . S
Zn19 O22 2.028 . S
Zn19 O25 2.035 . S
O20 Zn19 2.028 . S
O20 C26 1.247 . S
O21 Zn17 2.035 . S
O21 C26 1.258 . S
O22 C15 1.247 . S
O22 Zn19 2.028 . S
O23 C15 1.258 . S
O23 Zn17 2.035 . S
O24 Zn17 2.028 . S
O24 C27 1.247 . S
O25 Zn19 2.035 . S
O25 C27 1.258 . S
C26 O20 1.247 . S
C26 O21 1.258 . S
C27 O24 1.247 . S
C27 O25 1.258 . S
C28 O30 1.247 . S
C28 O32 1.258 1_545 S
C29 O36 1.247 . S
C29 O37 1.258 1_565 S
O30 C28 1.247 . S
O30 Zn31 2.028 . S
Zn31 O30 2.028 . S
Zn31 O35 2.035 . S
Zn31 O37 2.035 . S
Zn31 O38 2.028 1_545 S
O32 C28 1.258 1_565 S
O32 Zn33 2.035 . S
Zn33 O32 2.035 . S
Zn33 O34 2.028 1_565 S
Zn33 O36 2.028 . S
Zn33 O39 2.035 . S
O34 Zn33 2.028 1_545 S
O34 C40 1.247 . S
O35 Zn31 2.035 . S
O35 C40 1.258 . S
O36 C29 1.247 . S
O36 Zn33 2.028 . S
O37 C29 1.258 1_545 S
O37 Zn31 2.035 . S
O38 Zn31 2.028 1_565 S
O38 C41 1.247 . S
O39 Zn33 2.035 . S
O39 C41 1.258 . S
C40 O34 1.247 . S
C40 O35 1.258 . S
C41 O38 1.247 . S
C41 O39 1.258 . S
C42 O44 1.247 . S
C42 O46 1.258 . S
C43 O50 1.247 . S
C43 O51 1.258 . S
O44 C42 1.247 . S
O44 Zn45 2.028 . S
Zn45 O44 2.028 . S
Zn45 O49 2.035 . S
Zn45 O51 2.035 . S
Zn45 O52 2.028 . S
O46 C42 1.258 . S
O46 Zn47 2.035 . S
Zn47 O46 2.035 . S
Zn47 O48 2.028 . S
Zn47 O50 2.028 . S
Zn47 O53 2.035 . S
O48 Zn47 2.028 . S
O48 C54 1.247 . S
O49 Zn45 2.035 . S
O49 C54 1.258 . S
O50 C43 1.247 . S
O50 Zn47 2.028 . S
O51 C43 1.258 . S
O51 Zn45 2.035 . S
O52 Zn45 2.028 . S
O52 C55 1.247 . S
O53 Zn47 2.035 . S
O53 C55 1.258 . S
C54 O48 1.247 . S
C54 O49 1.258 . S
C55 O52 1.247 . S
C55 O53 1.258 . S
C56 O58 1.247 . S
C56 O60 1.258 . S
C57 O64 1.247 . S
C57 O65 1.258 . S
O58 C56 1.247 . S
O58 Zn59 2.028 1_545 S
Zn59 O58 2.028 1_565 S
Zn59 O63 2.035 . S
Zn59 O65 2.035 1_655 S
Zn59 O66 2.028 . S
O60 C56 1.258 . S
O60 Zn61 2.035 1_655 S
Zn61 O60 2.035 1_455 S
Zn61 O62 2.028 . S
Zn61 O64 2.028 1_545 S
Zn61 O67 2.035 . S
O62 Zn61 2.028 . S
O62 C68 1.247 1_455 S
O63 Zn59 2.035 . S
O63 C68 1.258 1_565 S
O64 C57 1.247 . S
O64 Zn61 2.028 1_565 S
O65 C57 1.258 . S
O65 Zn59 2.035 1_455 S
O66 Zn59 2.028 . S
O66 C69 1.247 1_655 S
O67 Zn61 2.035 . S
O67 C69 1.258 1_545 S
C68 O62 1.247 1_655 S
C68 O63 1.258 1_545 S
C69 O66 1.247 1_455 S
C69 O67 1.258 1_565 S
C70 O72 1.247 . S
C70 O74 1.258 . S
C71 O78 1.247 . S
C71 O79 1.258 . S
O72 C70 1.247 . S
O72 Zn73 2.028 . S
Zn73 O72 2.028 . S
Zn73 O77 2.035 . S
Zn73 O79 2.035 . S
Zn73 O80 2.028 . S
O74 C70 1.258 . S
O74 Zn75 2.035 . S
Zn75 O74 2.035 . S
Zn75 O76 2.028 . S
Zn75 O78 2.028 . S
Zn75 O81 2.035 . S
O76 Zn75 2.028 . S
O76 C82 1.247 . S
O77 Zn73 2.035 . S
O77 C82 1.258 . S
O78 C71 1.247 . S
O78 Zn75 2.028 . S
O79 C71 1.258 . S
O79 Zn73 2.035 . S
O80 Zn73 2.028 . S
O80 C83 1.247 . S
O81 Zn75 2.035 . S
O81 C83 1.258 . S
C82 O76 1.247 . S
C82 O77 1.258 . S
C83 O80 1.247 . S
C83 O81 1.258 . S
C84 O86 1.247 . S
C84 O88 1.258 . S
C85 O92 1.247 . S
C85 O93 1.258 . S
O86 C84 1.247 . S
O86 Zn87 2.030 1_565 S
Zn87 O86 2.030 1_545 S
Zn87 O91 2.027 1_554 S
Zn87 O93 2.033 1_554 S
Zn87 O94 2.036 . S
O88 C84 1.258 . S
O88 Zn89 2.034 1_554 S
Zn89 O88 2.034 1_556 S
Zn89 O90 2.034 . S
Zn89 O92 2.029 1_565 S
Zn89 O95 2.029 1_556 S
O90 Zn89 2.034 . S
O90 C96 1.247 . S
O91 Zn87 2.027 1_556 S
O91 C96 1.258 1_545 S
O92 C85 1.247 . S
O92 Zn89 2.029 1_545 S
O93 C85 1.258 . S
O93 Zn87 2.033 1_556 S
O94 Zn87 2.036 . S
O94 C97 1.247 . S
O95 Zn89 2.029 1_554 S
O95 C97 1.258 1_565 S
C96 O90 1.247 . S
C96 O91 1.258 1_565 S
C97 O94 1.247 . S
C97 O95 1.258 1_545 S
C98 O100 1.247 . S
C98 O102 1.258 . S
C99 O106 1.247 . S
C99 O107 1.258 . S
O100 C98 1.247 . S
O100 Zn101 2.028 . S
Zn101 O100 2.028 . S
Zn101 O105 2.035 . S
Zn101 O107 2.035 . S
Zn101 O108 2.028 . S
O102 C98 1.258 . S
O102 Zn103 2.035 . S
Zn103 O102 2.035 . S
Zn103 O104 2.028 . S
Zn103 O106 2.028 . S
Zn103 O109 2.035 . S
O104 Zn103 2.028 . S
O104 C110 1.247 . S
O105 Zn101 2.035 . S
O105 C110 1.258 . S
O106 C99 1.247 . S
O106 Zn103 2.028 . S
O107 C99 1.258 . S
O107 Zn101 2.035 . S
O108 Zn101 2.028 . S
O108 C111 1.247 . S
O109 Zn103 2.035 . S
O109 C111 1.258 . S
C110 O104 1.247 . S
C110 O105 1.258 . S
C111 O108 1.247 . S
C111 O109 1.258 . S
C112 O114 1.247 . S
C112 O116 1.258 . S
C113 O120 1.247 . S
C113 O121 1.258 . S
O114 C112 1.247 . S
O114 Zn115 2.028 . S
Zn115 O114 2.028 . S
Zn115 O119 2.035 . S
Zn115 O121 2.035 . S
Zn115 O122 2.028 . S
O116 C112 1.258 . S
O116 Zn117 2.035 . S
Zn117 O116 2.035 . S
Zn117 O118 2.028 . S
Zn117 O120 2.028 . S
Zn117 O123 2.035 . S
O118 Zn117 2.028 . S
O118 C124 1.247 . S
O119 Zn115 2.035 . S
O119 C124 1.258 . S
O120 C113 1.247 . S
O120 Zn117 2.028 . S
O121 C113 1.258 . S
O121 Zn115 2.035 . S
O122 Zn115 2.028 . S
O122 C125 1.247 . S
O123 Zn117 2.035 . S
O123 C125 1.258 . S
C124 O118 1.247 . S
C124 O119 1.258 . S
C125 O122 1.247 . S
C125 O123 1.258 . S
C126 O128 1.247 . S
C126 O130 1.258 . S
C127 O134 1.247 . S
C127 O135 1.258 . S
O128 C126 1.247 . S
O128 Zn129 2.028 . S
Zn129 O128 2.028 . S
Zn129 O133 2.035 . S
Zn129 O135 2.035 . S
Zn129 O136 2.028 . S
O130 C126 1.258 . S
O130 Zn131 2.035 . S
Zn131 O130 2.035 . S
Zn131 O132 2.028 . S
Zn131 O134 2.028 . S
Zn131 O137 2.035 . S
O132 Zn131 2.028 . S
O132 C138 1.247 . S
O133 Zn129 2.035 . S
O133 C138 1.258 . S
O134 C127 1.247 . S
O134 Zn131 2.028 . S
O135 C127 1.258 . S
O135 Zn129 2.035 . S
O136 Zn129 2.028 . S
O136 C139 1.247 . S
O137 Zn131 2.035 . S
O137 C139 1.258 . S
C138 O132 1.247 . S
C138 O133 1.258 . S
C139 O136 1.247 . S
C139 O137 1.258 . S
C140 O142 1.247 . S
C140 O144 1.258 . S
C141 O148 1.247 . S
C141 O149 1.258 . S
O142 C140 1.247 . S
O142 Zn143 2.028 . S
Zn143 O142 2.028 . S
Zn143 O147 2.035 . S
Zn143 O149 2.035 . S
Zn143 O150 2.028 . S
O144 C140 1.258 . S
O144 Zn145 2.035 . S
Zn145 O144 2.035 . S
Zn145 O146 2.028 . S
Zn145 O148 2.028 . S
Zn145 O151 2.035 . S
O146 Zn145 2.028 . S
O146 C152 1.247 . S
O147 Zn143 2.035 . S
O147 C152 1.258 . S
O148 C141 1.247 . S
O148 Zn145 2.028 . S
O149 C141 1.258 . S
O149 Zn143 2.035 . S
O150 Zn143 2.028 . S
O150 C153 1.247 . S
O151 Zn145 2.035 . S
O151 C153 1.258 . S
C152 O146 1.247 . S
C152 O147 1.258 . S
C153 O150 1.247 . S
C153 O151 1.258 . S
C154 O156 1.247 . S
C154 O158 1.258 . S
C155 O162 1.247 . S
C155 O163 1.258 . S
O156 C154 1.247 . S
O156 Zn157 2.028 . S
Zn157 O156 2.028 . S
Zn157 O161 2.035 . S
Zn157 O163 2.035 . S
Zn157 O164 2.028 . S
O158 C154 1.258 . S
O158 Zn159 2.035 . S
Zn159 O158 2.035 . S
Zn159 O160 2.028 . S
Zn159 O162 2.028 . S
Zn159 O165 2.035 . S
O160 Zn159 2.028 . S
O160 C166 1.247 . S
O161 Zn157 2.035 . S
O161 C166 1.258 . S
O162 C155 1.247 . S
O162 Zn159 2.028 . S
O163 C155 1.258 . S
O163 Zn157 2.035 . S
O164 Zn157 2.028 . S
O164 C167 1.247 . S
O165 Zn159 2.035 . S
O165 C167 1.258 . S
C166 O160 1.247 . S
C166 O161 1.258 . S
C167 O164 1.247 . S
C167 O165 1.258 . S
C168 O170 1.247 . S
C168 O172 1.258 . S
C169 O176 1.247 . S
C169 O177 1.258 . S
O170 C168 1.247 . S
O170 Zn171 2.028 . S
Zn171 O170 2.028 . S
Zn171 O175 2.035 . S
Zn171 O177 2.035 . S
Zn171 O178 2.028 . S
O172 C168 1.258 . S
O172 Zn173 2.035 . S
Zn173 O172 2.035 . S
Zn173 O174 2.028 . S
Zn173 O176 2.028 . S
Zn173 O179 2.035 . S
O174 Zn173 2.028 . S
O174 C180 1.247 . S
O175 Zn171 2.035 . S
O175 C180 1.258 . S
O176 C169 1.247 . S
O176 Zn173 2.028 . S
O177 C169 1.258 . S
O177 Zn171 2.035 . S
O178 Zn171 2.028 . S
O178 C181 1.247 . S
O179 Zn173 2.035 . S
O179 C181 1.258 . S
C180 O174 1.247 . S
C180 O175 1.258 . S
C181 O178 1.247 . S
C181 O179 1.258 . S
C182 O184 1.247 1_455 S
C182 O186 1.258 . S
C183 O190 1.247 1_655 S
C183 O191 1.258 . S
O184 C182 1.247 1_655 S
O184 Zn185 2.036 . S
Zn185 O184 2.036 . S
Zn185 O189 2.033 1_654 S
Zn185 O191 2.027 1_554 S
Zn185 O192 2.030 . S
O186 C182 1.258 . S
O186 Zn187 2.029 1_554 S
Zn187 O186 2.029 1_556 S
Zn187 O188 2.029 . S
Zn187 O190 2.034 . S
Zn187 O193 2.034 1_456 S
O188 Zn187 2.029 . S
O188 C194 1.247 . S
O189 Zn185 2.033 1_456 S
O189 C194 1.258 . S
O190 C183 1.247 1_455 S
O190 Zn187 2.034 . S
O191 C183 1.258 . S
O191 Zn185 2.027 1_556 S
O192 Zn185 2.030 . S
O192 C195 1.247 . S
O193 Zn187 2.034 1_654 S
O193 C195 1.258 . S
C194 O188 1.247 . S
C194 O189 1.258 . S
C195 O192 1.247 . S
C195 O193 1.258 . S
C196 O198 1.247 . S
C196 O200 1.258 . S
C197 O204 1.247 . S
C197 O205 1.258 . S
O198 C196 1.247 . S
O198 Zn199 2.030 . S
Zn199 O198 2.030 . S
Zn199 O203 2.027 1_554 S
Zn199 O205 2.033 1_554 S
Zn199 O206 2.036 . S
O200 C196 1.258 . S
O200 Zn201 2.034 1_554 S
Zn201 O200 2.034 1_556 S
Zn201 O202 2.034 . S
Zn201 O204 2.029 . S
Zn201 O207 2.029 1_556 S
O202 Zn201 2.034 . S
O202 C208 1.247 . S
O203 Zn199 2.027 1_556 S
O203 C208 1.258 . S
O204 C197 1.247 . S
O204 Zn201 2.029 . S
O205 C197 1.258 . S
O205 Zn199 2.033 1_556 S
O206 Zn199 2.036 . S
O206 C209 1.247 . S
O207 Zn201 2.029 1_554 S
O207 C209 1.258 . S
C208 O202 1.247 . S
C208 O203 1.258 . S
C209 O206 1.247 . S
C209 O207 1.258 . S
C210 O212 1.247 . S
C210 O214 1.258 . S
C211 O218 1.247 . S
C211 O219 1.258 . S
O212 C210 1.247 . S
O212 Zn213 2.028 . S
Zn213 O212 2.028 . S
Zn213 O217 2.035 . S
Zn213 O219 2.035 1_455 S
Zn213 O220 2.028 . S
O214 C210 1.258 . S
O214 Zn215 2.035 1_455 S
Zn215 O214 2.035 1_655 S
Zn215 O216 2.028 . S
Zn215 O218 2.028 . S
Zn215 O221 2.035 . S
O216 Zn215 2.028 . S
O216 C222 1.247 1_655 S
O217 Zn213 2.035 . S
O217 C222 1.258 . S
O218 C211 1.247 . S
O218 Zn215 2.028 . S
O219 C211 1.258 . S
O219 Zn213 2.035 1_655 S
O220 Zn213 2.028 . S
O220 C223 1.247 1_455 S
O221 Zn215 2.035 . S
O221 C223 1.258 . S
C222 O216 1.247 1_455 S
C222 O217 1.258 . S
C223 O220 1.247 1_655 S
C223 O221 1.258 . S
C13 C68 1.179 1_565 S
C27 C71 1.176 . S
C96 C28 1.185 1_565 S
C55 C110 1.180 1_556 S
C69 C12 1.181 1_565 S
C140 C124 1.176 . S
C97 C29 1.183 1_545 S
C138 C166 1.176 1_554 S
C180 C208 1.185 . S
C125 C141 1.176 1_556 S
C182 C222 1.183 . S
C167 C139 1.176 . S
C209 C181 1.183 . S
C26 C70 1.176 1_554 S
C183 C223 1.185 . S
C111 C54 1.180 . S
C0 C99 1.869 . S
C57 C14 1.871 . S
C82 C41 1.872 . S
C42 C85 1.872 . S
C1 C155 1.874 . S
C113 C56 1.871 . S
C153 C40 1.871 . S
C127 C84 1.871 . S
C169 C154 1.871 . S
C197 C112 1.872 . S
C152 C195 1.871 . S
C211 C126 1.872 . S
C98 C168 1.871 . S
C196 C15 1.870 . S
C83 C194 1.872 . S
C210 C43 1.871 . S
