# Generated by pormake.
# Topology ilc, (8)-cn, num edge types: 1
# Building blocks:
#     Node 0, Type 0, BuildingBlock: LIZSOE_clean_sbu_0, # of connection points: 8
#     Node 1, Type 0, BuildingBlock: LIZSOE_clean_sbu_0, # of connection points: 8
#     Node 2, Type 0, BuildingBlock: LIZSOE_clean_sbu_0, # of connection points: 8
#     Edge 3, Type (0, 0), None
#     Edge 4, Type (0, 0), None
#     Edge 5, Type (0, 0), None
#     Edge 6, Type (0, 0), None
#     Edge 7, Type (0, 0), None
#     Edge 8, Type (0, 0), None
#     Edge 9, Type (0, 0), None
#     Edge 10, Type (0, 0), None
#     Edge 11, Type (0, 0), None
#     Edge 12, Type (0, 0), None
#     Edge 13, Type (0, 0), None
#     Edge 14, Type (0, 0), None
# Relax obj value: 1.150
# Max RMSD: 0.321
# Mean RMSD: 0.321
data_MOF--net-ilc--node1-LIZSOE_clean_sbu_0--edge1-none
_symmetry_space_group_name_H-M    P1
_symmetry_Int_Tables_number       1
_symmetry_cell_setting            triclinic
loop_
_symmetry_equiv_pos_as_xyz
'x, y, z'
_cell_length_a     11.467217
_cell_length_b     12.31625
_cell_length_c     8.4888162
_cell_angle_alpha  90.02271
_cell_angle_beta   87.63556
_cell_angle_gamma 122.95349
loop_
_atom_site_label
_atom_site_type_symbol
_atom_site_fract_x
_atom_site_fract_y
_atom_site_fract_z
_atom_type_partial_charge
Co0 Co 0.79584 0.86671 0.87661 0.0
N1 N 0.61445 0.75565 0.80221 0.0
C2 C 0.57185 0.83312 0.77269 0.0
N3 N 0.76016 0.89073 0.62147 0.0
C4 C 0.70273 0.77405 0.67938 0.0
C5 C 0.65521 -0.09387 0.64251 0.0
Co6 Co -0.12637 -0.08866 0.41929 0.0
N7 N 0.05543 0.013 0.4954 0.0
N8 N -0.10483 -0.03147 0.6748 0.0
C9 C -0.01713 0.09567 0.66194 0.0
C10 C 0.07604 0.12664 0.53636 0.0
C11 C -0.02793 -0.06927 0.61525 0.0
Co12 Co -0.16626 -0.10351 1.15074 0.0
C13 C 0.5471 0.71961 0.39453 0.0
H14 H 0.17329 0.21832 0.51598 0.0
O15 O -0.01318 -0.01869 0.95758 0.0
O16 O -0.03042 0.83038 0.28681 0.0
O17 O 0.72303 0.69693 1.01148 0.0
O18 O 0.7344 -0.01589 0.98251 0.0
O19 O 0.74207 -0.00924 0.96612 0.0
O20 O -0.03271 0.8272 0.30045 0.0
O21 O 0.67972 0.80389 0.34044 0.0
O22 O -0.10662 0.07809 0.33765 0.0
O23 O 0.72762 0.69822 0.99825 0.0
O24 O -0.00868 -0.01651 0.95424 0.0
O25 O -0.09805 0.0797 0.32359 0.0
O26 O 0.67517 0.80095 0.34318 0.0
C27 C 0.7201 0.62587 0.88179 0.0
C28 C -0.0032 0.84068 0.71966 0.0
H29 H -0.04284 0.81133 0.83931 0.0
H30 H 0.10512 0.87261 0.719 0.0
H31 H -0.06247 0.74075 0.69776 0.0
C32 C -0.01344 0.7782 0.4246 0.0
C33 C 0.75282 0.06976 0.8557 0.0
H34 H 0.47115 0.81445 0.80993 0.0
H35 H 0.76338 0.63419 0.60339 0.0
H36 H 0.5973 0.58885 0.54812 0.0
H37 H 0.75133 0.69577 0.45962 0.0
C38 C 0.70126 0.6703 0.57309 0.0
C39 C 0.12065 0.04893 0.90205 0.0
C40 C -0.15071 0.12263 0.44747 0.0
H41 H 0.61802 -0.06181 0.54938 0.0
H42 H 0.00734 0.15611 0.76346 0.0
Co43 Co 0.46216 0.19933 0.22281 0.0
N44 N 0.2791 0.10946 1.14455 0.0
C45 C 0.2559 0.19918 1.10854 0.0
N46 N 0.43747 0.23057 0.9635 0.0
C47 C 0.35862 0.11355 1.01856 0.0
C48 C 0.34804 0.26456 0.97872 0.0
Co49 Co 0.53947 0.23809 0.76305 0.0
N50 N 0.71995 0.31041 0.84447 0.0
N51 N 0.57042 0.29123 1.02215 0.0
C52 C 0.67338 0.41461 1.00814 0.0
C53 C 0.76163 0.43001 0.88141 0.0
C54 C 0.63071 0.23595 0.96483 0.0
Co55 Co 0.50407 0.2297 0.4854 0.0
C56 C 0.21533 0.09702 0.72704 0.0
H57 H -0.13707 0.51493 0.8481 0.0
O58 O 0.65908 0.29186 0.29943 0.0
O59 O 0.61296 0.14271 0.62831 0.0
O60 O 0.37111 0.02323 0.34764 0.0
O61 O 0.43686 0.34642 0.30995 0.0
O62 O 0.4445 0.35305 0.29176 0.0
O63 O 0.60835 0.13965 0.64174 0.0
O64 O 0.35003 0.16116 0.67597 0.0
O65 O 0.59674 0.41573 0.67342 0.0
O66 O 0.37252 0.0208 0.33363 0.0
O67 O 0.66342 0.29344 0.29716 0.0
O68 O 0.60445 0.41724 0.65632 0.0
O69 O 0.34571 0.15902 0.67915 0.0
C70 C 0.35561 -0.04627 0.20893 0.0
C71 C 0.6319 0.13254 1.06945 0.0
H72 H 0.58878 0.10934 0.18599 0.0
H73 H 0.73507 0.15522 1.09576 0.0
H74 H 0.56761 0.03397 1.03514 0.0
C75 C 0.61601 0.07534 0.75861 0.0
C76 C 0.45932 0.43409 0.18162 0.0
H77 H 0.16013 0.19364 1.14049 0.0
H78 H 0.39475 -0.03536 0.92984 0.0
H79 H 0.22105 -0.07691 0.91481 0.0
H80 H 0.36728 0.01088 0.78863 0.0
C81 C 0.33064 0.00047 0.91032 0.0
C82 C 0.79181 0.34136 0.2462 0.0
C83 C 0.58451 0.48202 0.78492 0.0
H84 H 0.32997 0.31004 0.88203 0.0
H85 H 0.7009 0.48296 1.10183 0.0
Co86 Co 0.11812 0.53423 0.54794 0.0
N87 N -0.06648 0.45434 0.48005 0.0
C88 C -0.09719 0.53331 0.41364 0.0
N89 N 0.09765 0.5687 0.3006 0.0
C90 C 0.03271 0.46125 0.38077 0.0
C91 C 0.00089 0.59708 0.29037 0.0
Co92 Co 0.21125 0.56909 1.09904 0.0
N93 N 0.39349 0.66744 0.17105 0.0
N94 N 0.23594 0.63571 0.34591 0.0
C95 C 0.33664 0.76029 0.34442 0.0
C96 C 0.42895 0.78412 0.21879 0.0
C97 C 0.29942 0.58464 0.2831 0.0
Co98 Co 0.16629 0.55602 0.81386 0.0
C99 C -0.11423 0.38307 1.07011 0.0
H100 H 0.53051 0.87142 0.19768 0.0
O101 O 0.31734 0.62522 0.62091 0.0
O102 O 0.30676 0.49692 0.94726 0.0
O103 O 0.046 0.35465 0.6569 0.0
O104 O 0.08541 0.66759 0.64896 0.0
O105 O 0.09241 0.67425 0.63059 0.0
O106 O 0.30324 0.49412 0.96142 0.0
O107 O 0.01932 0.46469 1.0163 0.0
O108 O 0.24578 0.73982 1.00348 0.0
O109 O 0.03713 0.34833 0.65225 0.0
O110 O 0.32183 0.6268 0.61806 0.0
O111 O 0.25356 0.74274 0.98574 0.0
O112 O 0.01512 0.46187 1.02165 0.0
C113 C -0.08062 0.2595 0.59095 0.0
C114 C 0.30196 0.47642 0.38463 0.0
H115 H 0.23637 0.44203 0.48904 0.0
H116 H 0.39914 0.49507 0.4255 0.0
H117 H 0.25942 0.38128 0.34025 0.0
C118 C 0.32402 0.44338 1.08252 0.0
C119 C 0.11074 0.75134 0.51528 0.0
H120 H 0.80201 0.52086 0.42409 0.0
H121 H 0.06325 0.30121 0.36572 0.0
H122 H -0.05792 0.27468 0.24053 0.0
H123 H 0.10105 0.37813 0.19283 0.0
C124 C 0.03194 0.3502 0.29499 0.0
C125 C 0.45092 0.67461 0.56969 0.0
C126 C 0.22954 0.80239 1.11698 0.0
H127 H -0.01533 0.63855 0.1879 0.0
H128 H 0.3581 0.82369 0.44246 0.0
loop_
_geom_bond_atom_site_label_1
_geom_bond_atom_site_label_2
_geom_bond_distance
_geom_bond_site_symmetry_2
_ccdc_geom_bond_type
Co0 N1 2.034 1_455 S
Co0 O15 2.262 . S
Co0 O19 1.958 1_455 S
Co0 O23 1.950 1_445 S
Co0 O24 2.057 . S
N1 Co0 2.034 1_655 S
N1 C2 1.366 . S
N1 C4 1.332 1_645 S
C2 N1 1.366 . S
C2 C5 1.377 . S
C2 H34 0.931 . S
N3 C4 1.346 1_655 S
N3 C5 1.337 1_565 S
C4 N1 1.332 1_465 S
C4 N3 1.346 1_455 S
C4 C38 1.361 . S
C5 C2 1.377 . S
C5 N3 1.337 1_545 S
C5 H41 0.930 . S
Co6 N7 2.034 1_655 S
Co6 O20 1.950 1_645 S
Co6 O21 2.262 1_545 S
Co6 O22 1.958 1_655 S
Co6 O26 2.057 1_545 S
N7 Co6 2.034 1_455 S
N7 C10 1.366 . S
N7 C11 1.332 1_445 S
N8 C9 1.337 1_565 S
N8 C11 1.346 1_455 S
C9 N8 1.337 1_545 S
C9 C10 1.377 . S
C9 H42 0.930 . S
C10 N7 1.366 . S
C10 C9 1.377 . S
C10 H14 0.931 . S
C11 N7 1.332 1_665 S
C11 N8 1.346 1_655 S
C11 C28 1.361 . S
Co12 O15 2.097 1_554 S
Co12 O16 2.065 1_545 S
Co12 O17 2.065 1_444 S
Co12 O18 2.042 1_454 S
Co12 O21 2.097 1_445 S
Co12 O25 2.042 . S
C13 O21 1.253 . S
C13 O26 1.263 . S
H14 C10 0.931 . S
O15 Co0 2.262 . S
O15 Co12 2.097 1_556 S
O15 C39 1.253 . S
O16 Co12 2.065 1_565 S
O16 C32 1.221 . S
O17 Co12 2.065 1_666 S
O17 C27 1.221 . S
O18 Co12 2.042 1_656 S
O18 C33 1.237 . S
O19 Co0 1.958 1_655 S
O19 C33 1.278 . S
O20 Co6 1.950 1_465 S
O20 C32 1.277 . S
O21 Co6 2.262 1_565 S
O21 Co12 2.097 1_665 S
O21 C13 1.253 . S
O22 Co6 1.958 1_455 S
O22 C40 1.278 . S
O23 Co0 1.950 1_665 S
O23 C27 1.277 . S
O24 Co0 2.057 . S
O24 C39 1.263 . S
O25 Co12 2.042 . S
O25 C40 1.237 . S
O26 Co6 2.057 1_565 S
O26 C13 1.263 . S
C27 O17 1.221 . S
C27 O23 1.277 . S
C28 C11 1.361 . S
C28 H29 0.960 . S
C28 H30 0.961 . S
C28 H31 0.961 . S
H29 C28 0.960 . S
H30 C28 0.961 . S
H31 C28 0.961 . S
C32 O16 1.221 . S
C32 O20 1.277 . S
C33 O18 1.237 . S
C33 O19 1.278 . S
H34 C2 0.931 . S
H35 C38 0.961 . S
H36 C38 0.961 . S
H37 C38 0.960 . S
C38 C4 1.361 . S
C38 H35 0.961 . S
C38 H36 0.961 . S
C38 H37 0.960 . S
C39 O15 1.253 . S
C39 O24 1.263 . S
C40 O22 1.278 . S
C40 O25 1.237 . S
H41 C5 0.930 . S
H42 C9 0.930 . S
Co43 N44 2.034 1_554 S
Co43 O58 2.262 . S
Co43 O62 1.958 . S
Co43 O66 1.950 . S
Co43 O67 2.057 . S
N44 Co43 2.034 1_556 S
N44 C45 1.366 . S
N44 C47 1.332 . S
C45 N44 1.366 . S
C45 C48 1.377 . S
C45 H77 0.931 . S
N46 C47 1.346 . S
N46 C48 1.337 . S
C47 N44 1.332 . S
C47 N46 1.346 . S
C47 C81 1.361 . S
C48 C45 1.377 . S
C48 N46 1.337 . S
C48 H84 0.930 . S
Co49 N50 2.034 . S
Co49 O63 1.950 . S
Co49 O64 2.262 . S
Co49 O65 1.958 . S
Co49 O69 2.057 . S
N50 Co49 2.034 . S
N50 C53 1.366 . S
N50 C54 1.332 . S
N51 C52 1.337 . S
N51 C54 1.346 1_554 S
C52 N51 1.337 . S
C52 C53 1.377 1_554 S
C52 H85 0.930 . S
C53 N50 1.366 . S
C53 C52 1.377 1_556 S
C53 H57 0.931 . S
C54 N50 1.332 . S
C54 N51 1.346 1_556 S
C54 C71 1.361 . S
Co55 O58 2.097 . S
Co55 O59 2.065 . S
Co55 O60 2.065 . S
Co55 O61 2.042 . S
Co55 O64 2.097 . S
Co55 O68 2.042 . S
C56 O64 1.253 . S
C56 O69 1.263 . S
H57 C53 0.931 . S
O58 Co43 2.262 . S
O58 Co55 2.097 . S
O58 C82 1.253 . S
O59 Co55 2.065 . S
O59 C75 1.221 . S
O60 Co55 2.065 . S
O60 C70 1.221 . S
O61 Co55 2.042 . S
O61 C76 1.237 . S
O62 Co43 1.958 . S
O62 C76 1.278 . S
O63 Co49 1.950 . S
O63 C75 1.277 . S
O64 Co49 2.262 . S
O64 Co55 2.097 . S
O64 C56 1.253 . S
O65 Co49 1.958 . S
O65 C83 1.278 . S
O66 Co43 1.950 . S
O66 C70 1.277 . S
O67 Co43 2.057 . S
O67 C82 1.263 . S
O68 Co55 2.042 . S
O68 C83 1.237 . S
O69 Co49 2.057 . S
O69 C56 1.263 . S
C70 O60 1.221 . S
C70 O66 1.277 . S
C71 C54 1.361 . S
C71 H72 0.960 . S
C71 H73 0.961 . S
C71 H74 0.961 . S
H72 C71 0.960 . S
H73 C71 0.961 . S
H74 C71 0.961 . S
C75 O59 1.221 . S
C75 O63 1.277 . S
C76 O61 1.237 . S
C76 O62 1.278 . S
H77 C45 0.931 . S
H78 C81 0.961 . S
H79 C81 0.961 . S
H80 C81 0.960 . S
C81 C47 1.361 . S
C81 H78 0.961 . S
C81 H79 0.961 . S
C81 H80 0.960 . S
C82 O58 1.253 . S
C82 O67 1.263 . S
C83 O65 1.278 . S
C83 O68 1.237 . S
H84 C48 0.930 . S
H85 C52 0.930 . S
Co86 N87 2.034 . S
Co86 O101 2.262 . S
Co86 O105 1.958 . S
Co86 O109 1.950 . S
Co86 O110 2.057 . S
N87 Co86 2.034 . S
N87 C88 1.366 . S
N87 C90 1.332 . S
C88 N87 1.366 . S
C88 C91 1.377 1_554 S
C88 H120 0.931 . S
N89 C90 1.346 1_556 S
N89 C91 1.337 . S
C90 N87 1.332 . S
C90 N89 1.346 1_554 S
C90 C124 1.361 . S
C91 C88 1.377 1_556 S
C91 N89 1.337 . S
C91 H127 0.930 . S
Co92 N93 2.034 1_556 S
Co92 O106 1.950 . S
Co92 O107 2.262 . S
Co92 O108 1.958 . S
Co92 O112 2.057 . S
N93 Co92 2.034 1_554 S
N93 C96 1.366 . S
N93 C97 1.332 . S
N94 C95 1.337 . S
N94 C97 1.346 . S
C95 N94 1.337 . S
C95 C96 1.377 . S
C95 H128 0.930 . S
C96 N93 1.366 . S
C96 C95 1.377 . S
C96 H100 0.931 . S
C97 N93 1.332 . S
C97 N94 1.346 . S
C97 C114 1.361 . S
Co98 O101 2.097 . S
Co98 O102 2.065 . S
Co98 O103 2.065 . S
Co98 O104 2.042 . S
Co98 O107 2.097 . S
Co98 O111 2.042 . S
C99 O107 1.253 . S
C99 O112 1.263 . S
H100 C96 0.931 . S
O101 Co86 2.262 . S
O101 Co98 2.097 . S
O101 C125 1.253 . S
O102 Co98 2.065 . S
O102 C118 1.221 . S
O103 Co98 2.065 . S
O103 C113 1.221 . S
O104 Co98 2.042 . S
O104 C119 1.237 . S
O105 Co86 1.958 . S
O105 C119 1.278 . S
O106 Co92 1.950 . S
O106 C118 1.277 . S
O107 Co92 2.262 . S
O107 Co98 2.097 . S
O107 C99 1.253 . S
O108 Co92 1.958 . S
O108 C126 1.278 . S
O109 Co86 1.950 . S
O109 C113 1.277 . S
O110 Co86 2.057 . S
O110 C125 1.263 . S
O111 Co98 2.042 . S
O111 C126 1.237 . S
O112 Co92 2.057 . S
O112 C99 1.263 . S
C113 O103 1.221 . S
C113 O109 1.277 . S
C114 C97 1.361 . S
C114 H115 0.960 . S
C114 H116 0.961 . S
C114 H117 0.961 . S
H115 C114 0.960 . S
H116 C114 0.961 . S
H117 C114 0.961 . S
C118 O102 1.221 . S
C118 O106 1.277 . S
C119 O104 1.237 . S
C119 O105 1.278 . S
H120 C88 0.931 . S
H121 C124 0.961 . S
H122 C124 0.961 . S
H123 C124 0.960 . S
C124 C90 1.361 . S
C124 H121 0.961 . S
C124 H122 0.961 . S
C124 H123 0.960 . S
C125 O101 1.253 . S
C125 O110 1.263 . S
C126 O108 1.278 . S
C126 O111 1.237 . S
H127 C91 0.930 . S
H128 C95 0.930 . S
N3 N8 4.316 1_655 S
N51 N46 4.316 1_554 S
N94 N89 4.316 1_554 S
C119 C32 3.442 . S
C113 C40 3.442 . S
C125 C13 2.890 . S
C75 C33 3.444 . S
C83 C27 3.444 . S
C56 C39 2.892 . S
C76 C118 3.443 1_554 S
C126 C70 3.443 1_566 S
C99 C82 2.891 1_456 S
