# Generated by pormake.
# Topology qtz-x, (6)-cn, num edge types: 1
# Building blocks:
#     Node 0, Type 0, BuildingBlock: MIFKUJ_clean_sbu_0, # of connection points: 6
#     Node 1, Type 0, BuildingBlock: MIFKUJ_clean_sbu_0, # of connection points: 6
#     Node 2, Type 0, BuildingBlock: MIFKUJ_clean_sbu_0, # of connection points: 6
#     Edge 3, Type (0, 0), BuildingBlock: AJUNOK_clean_linker_0, # of connection points: 2
#     Edge 4, Type (0, 0), BuildingBlock: AJUNOK_clean_linker_0, # of connection points: 2
#     Edge 5, Type (0, 0), BuildingBlock: AJUNOK_clean_linker_0, # of connection points: 2
#     Edge 6, Type (0, 0), BuildingBlock: AJUNOK_clean_linker_0, # of connection points: 2
#     Edge 7, Type (0, 0), BuildingBlock: AJUNOK_clean_linker_0, # of connection points: 2
#     Edge 8, Type (0, 0), BuildingBlock: AJUNOK_clean_linker_0, # of connection points: 2
#     Edge 9, Type (0, 0), BuildingBlock: AJUNOK_clean_linker_0, # of connection points: 2
#     Edge 10, Type (0, 0), BuildingBlock: AJUNOK_clean_linker_0, # of connection points: 2
#     Edge 11, Type (0, 0), BuildingBlock: AJUNOK_clean_linker_0, # of connection points: 2
# Relax obj value: 0.185
# Max RMSD: 0.247
# Mean RMSD: 0.245
data_MOF--net-qtz-x--node1-MIFKUJ_clean_sbu_0--edge1-AJUNOK_clean_linker_0
_symmetry_space_group_name_H-M    P1
_symmetry_Int_Tables_number       1
_symmetry_cell_setting            triclinic
loop_
_symmetry_equiv_pos_as_xyz
'x, y, z'
_cell_length_a     10.564052
_cell_length_b     10.615014
_cell_length_c     34.822695
_cell_angle_alpha  96.165156
_cell_angle_beta   87.973995
_cell_angle_gamma 119.87604
loop_
_atom_site_label
_atom_site_type_symbol
_atom_site_fract_x
_atom_site_fract_y
_atom_site_fract_z
_atom_type_partial_charge
Zn0 Zn 0.12292 0.50879 0.22039 0.0
Zn1 Zn 0.88943 0.3671 0.15934 0.0
C2 C 0.94912 0.53315 0.28345 0.0
O3 O 0.03165 0.67356 0.2804 0.0
C4 C 0.04807 0.343 0.09629 0.0
O5 O 0.94137 0.20811 0.09768 0.0
O6 O 0.29629 0.62452 0.25618 0.0
O7 O 0.12323 0.32865 0.19468 0.0
O8 O 0.884 0.2112 0.18833 0.0
C9 C 0.30181 0.57857 0.28797 0.0
O10 O 0.21561 0.43971 0.29232 0.0
O11 O 0.95919 0.44194 0.25846 0.0
C12 C 0.74008 0.36328 0.0958 0.0
O13 O 0.84782 0.4988 0.10143 0.0
O14 O 0.72135 0.27601 0.12056 0.0
O15 O 0.8817 0.5362 0.18877 0.0
O16 O 0.11994 0.65823 0.18954 0.0
O17 O 0.06311 0.43892 0.12377 0.0
C18 C 0.00211 0.20911 0.19224 0.0
C19 C -0.00055 0.65754 0.18944 0.0
Zn20 Zn 0.49588 0.95747 0.55449 0.0
Zn21 Zn 0.62318 0.16002 0.49165 0.0
C22 C 0.60605 0.14527 0.6255 0.0
O23 O 0.65922 0.0602 0.63137 0.0
C24 C 0.46171 0.96692 0.42996 0.0
O25 O 0.42129 0.0661 0.4326 0.0
O26 O 0.41179 0.79927 0.5901 0.0
O27 O 0.33452 0.9445 0.5222 0.0
O28 O 0.45843 0.17988 0.51597 0.0
C29 C 0.31843 0.79239 0.61514 0.0
O30 O 0.25453 0.87035 0.6125 0.0
O31 O 0.55541 0.13595 0.59209 0.0
C32 C 0.68729 0.37281 0.43284 0.0
O33 O 0.57473 0.38753 0.44384 0.0
O34 O 0.72444 0.29932 0.45144 0.0
O35 O 0.78389 0.18713 0.52609 0.0
O36 O 0.67023 0.95228 0.5304 0.0
O37 O 0.5418 0.96961 0.45682 0.0
C38 C 0.33707 0.06469 0.51976 0.0
C39 C 0.78896 0.07189 0.52904 0.0
Zn40 Zn 0.42746 0.35412 0.88489 0.0
Zn41 Zn 0.32435 0.46474 0.82499 0.0
C42 C 0.38467 0.49122 0.95622 0.0
O43 O 0.52615 0.54652 0.96078 0.0
C44 C 0.35622 0.30973 0.75888 0.0
O45 O 0.22118 0.28192 0.75502 0.0
O46 O 0.51863 0.28186 0.91983 0.0
O47 O 0.26543 0.18181 0.85303 0.0
O48 O 0.15007 0.30417 0.84873 0.0
C49 C 0.44457 0.20691 0.94685 0.0
O50 O 0.30197 0.14922 0.94571 0.0
O51 O 0.3255 0.42622 0.92349 0.0
C52 C 0.3662 0.63329 0.76617 0.0
O53 O 0.49833 0.66824 0.77728 0.0
O54 O 0.25872 0.54985 0.78588 0.0
O55 O 0.47277 0.63565 0.85979 0.0
O56 O 0.59644 0.52155 0.86082 0.0
O57 O 0.42603 0.37742 0.7903 0.0
C58 C 0.14613 0.18366 0.85131 0.0
C59 C 0.59492 0.64054 0.86127 0.0
C60 C 0.12748 0.9286 0.18717 0.0
C61 C -0.00309 0.79654 0.19077 0.0
C62 C 0.12834 0.06136 0.18804 0.0
C63 C -0.00143 0.06763 0.19253 0.0
H64 H 0.23031 0.92978 0.18334 0.0
H65 H 0.23153 0.15948 0.18471 0.0
S66 S 0.62799 0.75424 0.20544 0.0
N67 N 0.73467 0.68142 0.20048 0.0
N68 N 0.73626 0.93037 0.20221 0.0
C69 C 0.86735 0.93669 0.19674 0.0
C70 C 0.86646 0.80144 0.19585 0.0
C71 C 0.06546 0.94179 0.52532 0.0
C72 C 0.19965 0.07063 0.52232 0.0
C73 C 0.93393 0.94378 0.52801 0.0
C74 C 0.93093 0.07483 0.52786 0.0
H75 H 0.06131 0.83772 0.52547 0.0
H76 H 0.83378 0.84123 0.52992 0.0
S77 S 0.25299 0.44427 0.52214 0.0
N78 N 0.3218 0.33429 0.52039 0.0
N79 N 0.07498 0.33813 0.52555 0.0
C80 C 0.06459 0.2051 0.52542 0.0
C81 C 0.19871 0.20306 0.52259 0.0
C82 C 0.86694 0.78182 0.85516 0.0
C83 C 0.73373 0.78129 0.85994 0.0
C84 C -0.00089 0.91196 0.85232 0.0
C85 C 0.00396 0.04741 0.85407 0.0
H86 H 0.86952 0.68057 0.85321 0.0
H87 H 0.09815 0.90581 0.84847 0.0
S88 S 0.68683 0.10758 0.86832 0.0
N89 N 0.61581 0.92928 0.86765 0.0
N90 N 0.86357 0.17342 0.86227 0.0
C91 C 0.87175 0.04891 0.85933 0.0
C92 C 0.73704 0.91623 0.8623 0.0
C93 C 0.35546 0.53969 0.0272 0.0
C94 C 0.292 0.46599 0.99085 0.0
C95 C 0.27558 0.50161 0.06128 0.0
C96 C 0.13068 0.38591 0.0603 0.0
H97 H 0.46877 0.62544 0.02949 0.0
H98 H 0.32899 0.56012 0.08864 0.0
S99 S 0.90932 0.16475 0.9726 0.0
N100 N 0.07062 0.2782 0.95607 0.0
N101 N 0.92359 0.20382 1.01994 0.0
C102 C 0.06456 0.314 1.02415 0.0
C103 C 0.14427 0.35494 0.98947 0.0
C104 C 0.76349 0.53461 0.379 0.0
C105 C 0.75087 0.41178 0.39438 0.0
C106 C 0.82464 0.57169 0.34256 0.0
C107 C 0.87015 0.48418 0.31971 0.0
H108 H 0.72917 0.60434 0.3956 0.0
H109 H 0.83714 0.67002 0.33231 0.0
S110 S 0.84836 0.14343 0.34551 0.0
N111 N 0.78395 0.19953 0.38329 0.0
N112 N 0.8908 0.26465 0.31441 0.0
C113 C 0.85222 0.35768 0.33417 0.0
C114 C 0.79491 0.32282 0.37163 0.0
C115 C 0.45684 0.70257 0.70072 0.0
C116 C 0.34487 0.66804 0.72769 0.0
C117 C 0.44278 0.73382 0.66373 0.0
C118 C 0.31746 0.73551 0.65223 0.0
H119 H 0.55673 0.70457 0.708 0.0
H120 H 0.5338 0.76185 0.64451 0.0
S121 S -0.01159 0.64438 0.71094 0.0
N122 N 0.1001 0.62867 0.73961 0.0
N123 N 0.07577 0.69332 0.6701 0.0
C124 C 0.20294 0.69842 0.67852 0.0
C125 C 0.21606 0.66322 0.7162 0.0
C126 C 0.66829 0.33446 0.98897 0.0
C127 C 0.52047 0.22579 0.98388 0.0
C128 C 0.73704 0.3768 0.0253 0.0
C129 C 0.66251 0.30997 0.05801 0.0
H130 H 0.73059 0.39256 0.96507 0.0
H131 H 0.85007 0.46337 0.02771 0.0
S132 S 0.27912 0.01006 0.06015 0.0
N133 N 0.30394 0.04573 1.01458 0.0
N134 N 0.43639 0.12298 0.0829 0.0
C135 C 0.51749 0.19557 0.05323 0.0
C136 C 0.44581 0.15399 1.01617 0.0
C137 C 0.37614 0.63684 0.3582 0.0
C138 C 0.36713 0.68506 0.32271 0.0
C139 C 0.41139 0.72952 0.39289 0.0
C140 C 0.43456 0.872 0.39336 0.0
H141 H 0.35151 0.52533 0.35939 0.0
H142 H 0.41462 0.68753 0.41964 0.0
S143 S 0.43989 0.05728 0.30819 0.0
N144 N 0.3999 0.89123 0.29014 0.0
N145 N 0.45788 0.06119 0.35521 0.0
C146 C 0.4317 0.92341 0.358 0.0
C147 C 0.40055 0.83119 0.32269 0.0
C148 C 0.53714 0.2421 0.7294 0.0
C149 C 0.43108 0.28275 0.72503 0.0
C150 C 0.60057 0.20631 0.697 0.0
C151 C 0.56231 0.21287 0.65914 0.0
H152 H 0.56677 0.232 0.75792 0.0
H153 H 0.67599 0.16799 0.70168 0.0
S154 S 0.30704 0.3375 0.63296 0.0
N155 N 0.30166 0.34281 0.68049 0.0
N156 N 0.42352 0.28089 0.61985 0.0
C157 C 0.46416 0.26426 0.65475 0.0
C158 C 0.39758 0.29744 0.68763 0.0
loop_
_geom_bond_atom_site_label_1
_geom_bond_atom_site_label_2
_geom_bond_distance
_geom_bond_site_symmetry_2
_ccdc_geom_bond_type
Zn0 O6 1.969 . S
Zn0 O7 1.965 . S
Zn0 O11 2.024 1_455 S
Zn0 O16 1.969 . S
Zn1 O8 1.969 . S
Zn1 O14 1.969 1_455 S
Zn1 O15 1.965 1_455 S
Zn1 O17 2.024 . S
C2 O3 1.229 . S
C2 O11 1.058 . S
O3 C2 1.229 . S
C4 O5 1.229 . S
C4 O17 1.058 . S
O5 C4 1.229 . S
O6 Zn0 1.969 . S
O6 C9 1.267 . S
O7 Zn0 1.965 . S
O7 C18 1.260 . S
O8 Zn1 1.969 . S
O8 C18 1.258 . S
C9 O6 1.267 . S
C9 O10 1.228 . S
O10 C9 1.228 . S
O11 Zn0 2.024 1_655 S
O11 C2 1.058 . S
C12 O13 1.228 . S
C12 O14 1.267 . S
O13 C12 1.228 . S
O14 Zn1 1.969 1_655 S
O14 C12 1.267 . S
O15 Zn1 1.965 1_655 S
O15 C19 1.260 1_655 S
O16 Zn0 1.969 . S
O16 C19 1.258 . S
O17 Zn1 2.024 . S
O17 C4 1.058 . S
C18 O7 1.260 . S
C18 O8 1.258 . S
C19 O15 1.260 1_455 S
C19 O16 1.258 . S
Zn20 O26 1.969 1_545 S
Zn20 O27 1.965 1_545 S
Zn20 O31 2.024 . S
Zn20 O36 1.969 . S
Zn21 O28 1.969 . S
Zn21 O34 1.969 . S
Zn21 O35 1.965 . S
Zn21 O37 2.024 1_545 S
C22 O23 1.229 . S
C22 O31 1.058 . S
O23 C22 1.229 . S
C24 O25 1.229 . S
C24 O37 1.058 . S
O25 C24 1.229 . S
O26 Zn20 1.969 1_565 S
O26 C29 1.267 . S
O27 Zn20 1.965 1_565 S
O27 C38 1.260 1_565 S
O28 Zn21 1.969 . S
O28 C38 1.258 . S
C29 O26 1.267 . S
C29 O30 1.228 . S
O30 C29 1.228 . S
O31 Zn20 2.024 . S
O31 C22 1.058 . S
C32 O33 1.228 . S
C32 O34 1.267 . S
O33 C32 1.228 . S
O34 Zn21 1.969 . S
O34 C32 1.267 . S
O35 Zn21 1.965 . S
O35 C39 1.260 . S
O36 Zn20 1.969 . S
O36 C39 1.258 . S
O37 Zn21 2.024 1_565 S
O37 C24 1.058 . S
C38 O27 1.260 1_545 S
C38 O28 1.258 . S
C39 O35 1.260 . S
C39 O36 1.258 . S
Zn40 O46 1.969 . S
Zn40 O47 1.965 . S
Zn40 O51 2.024 . S
Zn40 O56 1.969 . S
Zn41 O48 1.969 . S
Zn41 O54 1.969 . S
Zn41 O55 1.965 . S
Zn41 O57 2.024 . S
C42 O43 1.229 . S
C42 O51 1.058 . S
O43 C42 1.229 . S
C44 O45 1.229 . S
C44 O57 1.058 . S
O45 C44 1.229 . S
O46 Zn40 1.969 . S
O46 C49 1.267 . S
O47 Zn40 1.965 . S
O47 C58 1.260 . S
O48 Zn41 1.969 . S
O48 C58 1.258 . S
C49 O46 1.267 . S
C49 O50 1.228 . S
O50 C49 1.228 . S
O51 Zn40 2.024 . S
O51 C42 1.058 . S
C52 O53 1.228 . S
C52 O54 1.267 . S
O53 C52 1.228 . S
O54 Zn41 1.969 . S
O54 C52 1.267 . S
O55 Zn41 1.965 . S
O55 C59 1.260 . S
O56 Zn40 1.969 . S
O56 C59 1.258 . S
O57 Zn41 2.024 . S
O57 C44 1.058 . S
C58 O47 1.260 . S
C58 O48 1.258 . S
C59 O55 1.260 . S
C59 O56 1.258 . S
C60 C61 1.369 . S
C60 C62 1.419 1_565 S
C60 H64 0.930 . S
C61 C60 1.369 . S
C61 C70 1.429 1_455 S
C62 C60 1.419 1_545 S
C62 C63 1.363 . S
C62 H65 0.929 . S
C63 C62 1.363 . S
C63 C69 1.428 1_455 S
H64 C60 0.930 . S
H65 C62 0.929 . S
S66 N67 1.613 . S
S66 N68 1.610 1_565 S
N67 S66 1.613 . S
N67 C70 1.350 . S
N68 S66 1.610 1_545 S
N68 C69 1.351 . S
C69 C63 1.428 1_655 S
C69 N68 1.351 . S
C69 C70 1.434 1_545 S
C70 C61 1.429 1_655 S
C70 N67 1.350 . S
C70 C69 1.434 1_565 S
C71 C72 1.369 1_565 S
C71 C73 1.419 1_455 S
C71 H75 0.930 . S
C72 C71 1.369 1_545 S
C72 C81 1.429 . S
C73 C71 1.419 1_655 S
C73 C74 1.363 1_565 S
C73 H76 0.929 . S
C74 C73 1.363 1_545 S
C74 C80 1.428 . S
H75 C71 0.930 . S
H76 C73 0.929 . S
S77 N78 1.613 . S
S77 N79 1.610 1_455 S
N78 S77 1.613 . S
N78 C81 1.350 . S
N79 S77 1.610 1_655 S
N79 C80 1.351 . S
C80 C74 1.428 . S
C80 N79 1.351 . S
C80 C81 1.434 1_655 S
C81 C72 1.429 . S
C81 N78 1.350 . S
C81 C80 1.434 1_455 S
C82 C83 1.369 . S
C82 C84 1.419 1_655 S
C82 H86 0.930 . S
C83 C82 1.369 . S
C83 C92 1.429 1_565 S
C84 C82 1.419 1_455 S
C84 C85 1.363 1_565 S
C84 H87 0.929 . S
C85 C84 1.363 1_545 S
C85 C91 1.428 1_455 S
H86 C82 0.930 . S
H87 C84 0.929 . S
S88 N89 1.613 . S
S88 N90 1.610 . S
N89 S88 1.613 . S
N89 C92 1.350 . S
N90 S88 1.610 . S
N90 C91 1.351 . S
C91 C85 1.428 1_655 S
C91 N90 1.351 . S
C91 C92 1.434 . S
C92 C83 1.429 1_545 S
C92 N89 1.350 . S
C92 C91 1.434 . S
C93 C94 1.369 . S
C93 C95 1.419 1_556 S
C93 H97 0.930 . S
C94 C93 1.369 . S
C94 C103 1.429 . S
C95 C93 1.419 1_554 S
C95 C96 1.363 . S
C95 H98 0.929 . S
C96 C95 1.363 . S
C96 C102 1.428 . S
H97 C93 0.930 . S
H98 C95 0.929 . S
S99 N100 1.613 . S
S99 N101 1.610 1_556 S
N100 S99 1.613 . S
N100 C103 1.350 . S
N101 S99 1.610 1_554 S
N101 C102 1.351 . S
C102 C96 1.428 . S
C102 N101 1.351 . S
C102 C103 1.434 1_554 S
C103 C94 1.429 . S
C103 N100 1.350 . S
C103 C102 1.434 1_556 S
C104 C105 1.369 . S
C104 C106 1.419 . S
C104 H108 0.930 . S
C105 C104 1.369 . S
C105 C114 1.429 . S
C106 C104 1.419 . S
C106 C107 1.363 . S
C106 H109 0.929 . S
C107 C106 1.363 . S
C107 C113 1.428 . S
H108 C104 0.930 . S
H109 C106 0.929 . S
S110 N111 1.613 1_565 S
S110 N112 1.610 1_565 S
N111 S110 1.613 1_545 S
N111 C114 1.350 . S
N112 S110 1.610 1_545 S
N112 C113 1.351 . S
C113 C107 1.428 . S
C113 N112 1.351 . S
C113 C114 1.434 . S
C114 C105 1.429 . S
C114 N111 1.350 . S
C114 C113 1.434 . S
C115 C116 1.369 . S
C115 C117 1.419 . S
C115 H119 0.930 . S
C116 C115 1.369 . S
C116 C125 1.429 . S
C117 C115 1.419 . S
C117 C118 1.363 . S
C117 H120 0.929 . S
C118 C117 1.363 . S
C118 C124 1.428 . S
H119 C115 0.930 . S
H120 C117 0.929 . S
S121 N122 1.613 1_655 S
S121 N123 1.610 1_655 S
N122 S121 1.613 1_455 S
N122 C125 1.350 . S
N123 S121 1.610 1_455 S
N123 C124 1.351 . S
C124 C118 1.428 . S
C124 N123 1.351 . S
C124 C125 1.434 . S
C125 C116 1.429 . S
C125 N122 1.350 . S
C125 C124 1.434 . S
C126 C127 1.369 . S
C126 C128 1.419 1_556 S
C126 H130 0.930 . S
C127 C126 1.369 . S
C127 C136 1.429 . S
C128 C126 1.419 1_554 S
C128 C129 1.363 . S
C128 H131 0.929 . S
C129 C128 1.363 . S
C129 C135 1.428 . S
H130 C126 0.930 . S
H131 C128 0.929 . S
S132 N133 1.613 . S
S132 N134 1.610 1_556 S
N133 S132 1.613 . S
N133 C136 1.350 . S
N134 S132 1.610 1_554 S
N134 C135 1.351 . S
C135 C129 1.428 . S
C135 N134 1.351 . S
C135 C136 1.434 1_554 S
C136 C127 1.429 . S
C136 N133 1.350 . S
C136 C135 1.434 1_556 S
C137 C138 1.369 . S
C137 C139 1.419 . S
C137 H141 0.930 . S
C138 C137 1.369 . S
C138 C147 1.429 . S
C139 C137 1.419 . S
C139 C140 1.363 . S
C139 H142 0.929 . S
C140 C139 1.363 . S
C140 C146 1.428 . S
H141 C137 0.930 . S
H142 C139 0.929 . S
S143 N144 1.613 . S
S143 N145 1.610 . S
N144 S143 1.613 . S
N144 C147 1.350 . S
N145 S143 1.610 . S
N145 C146 1.351 . S
C146 C140 1.428 . S
C146 N145 1.351 . S
C146 C147 1.434 . S
C147 C138 1.429 . S
C147 N144 1.350 . S
C147 C146 1.434 . S
C148 C149 1.369 . S
C148 C150 1.419 . S
C148 H152 0.930 . S
C149 C148 1.369 . S
C149 C158 1.429 . S
C150 C148 1.419 . S
C150 C151 1.363 . S
C150 H153 0.929 . S
C151 C150 1.363 . S
C151 C157 1.428 . S
H152 C148 0.930 . S
H153 C150 0.929 . S
S154 N155 1.613 . S
S154 N156 1.610 . S
N155 S154 1.613 . S
N155 C158 1.350 . S
N156 S154 1.610 . S
N156 C157 1.351 . S
C157 C151 1.428 . S
C157 N156 1.351 . S
C157 C158 1.434 . S
C158 C149 1.429 . S
C158 N155 1.350 . S
C158 C157 1.434 . S
C61 C19 1.614 . S
C63 C18 1.617 . S
C72 C38 1.600 . S
C74 C39 1.603 . S
C83 C59 1.610 . S
C85 C58 1.611 . S
C94 C42 1.153 . S
C96 C4 1.210 . S
C105 C32 1.292 . S
C107 C2 1.217 . S
C116 C52 1.180 . S
C118 C29 1.188 . S
C127 C49 1.167 . S
C129 C12 1.182 . S
C138 C9 1.110 . S
C140 C24 1.123 . S
C149 C44 1.223 . S
C151 C22 1.128 . S
