# Generated by pormake.
# Topology acs, (6)-cn, num edge types: 1
# Building blocks:
#     Node 0, Type 0, BuildingBlock: OJICUG_clean_sbu_0, # of connection points: 6
#     Node 1, Type 0, BuildingBlock: OJICUG_clean_sbu_0, # of connection points: 6
#     Edge 2, Type (0, 0), None
#     Edge 3, Type (0, 0), None
#     Edge 4, Type (0, 0), None
#     Edge 5, Type (0, 0), None
#     Edge 6, Type (0, 0), None
#     Edge 7, Type (0, 0), None
# Relax obj value: 0.000
# Max RMSD: 0.000
# Mean RMSD: 0.000
data_MOF--net-acs--node1-OJICUG_clean_sbu_0--edge1-none
_symmetry_space_group_name_H-M    P1
_symmetry_Int_Tables_number       1
_symmetry_cell_setting            triclinic
loop_
_symmetry_equiv_pos_as_xyz
'x, y, z'
_cell_length_a     11.25538
_cell_length_b     11.255576
_cell_length_c     10.244908
_cell_angle_alpha  90.0
_cell_angle_beta   90.0
_cell_angle_gamma 120.00173
loop_
_atom_site_label
_atom_site_type_symbol
_atom_site_fract_x
_atom_site_fract_y
_atom_site_fract_z
_atom_type_partial_charge
Sc0 Sc 0.71672 0.50613 0.26992 0.0
Sc1 Sc 0.40298 0.1924 0.26992 0.0
Sc2 Sc 0.71672 0.1924 0.26992 0.0
O3 O 0.61214 0.29698 0.26992 0.0
C4 C 0.89608 0.43895 0.07412 0.0
C5 C 0.47017 0.43895 0.07412 0.0
C6 C 0.47016 0.01303 0.07412 0.0
C7 C 0.47017 0.43895 0.46571 0.0
C8 C 0.89608 0.43895 0.46571 0.0
C9 C 0.47016 0.01303 0.46571 0.0
O10 O 0.85547 0.51801 0.1187 0.0
O11 O 0.39111 0.31928 0.1187 0.0
O12 O 0.58984 0.05365 0.1187 0.0
O13 O 0.58984 0.51801 0.42114 0.0
O14 O 0.85547 0.31928 0.42113 0.0
O15 O 0.39111 0.05364 0.42114 0.0
O16 O 0.85547 0.51801 0.42114 0.0
O17 O 0.39111 0.31928 0.42114 0.0
O18 O 0.58984 0.05365 0.42113 0.0
O19 O 0.58984 0.51801 0.1187 0.0
O20 O 0.85547 0.31928 0.1187 0.0
O21 O 0.39111 0.05364 0.1187 0.0
Sc22 Sc 0.17422 0.42116 0.76992 0.0
Sc23 Sc 0.48796 0.73489 0.76992 0.0
Sc24 Sc 0.17423 0.73489 0.76992 0.0
O25 O 0.2788 0.63031 0.76992 0.0
C26 C -0.00514 0.48834 0.57412 0.0
C27 C 0.42078 0.48834 0.57412 0.0
C28 C 0.42078 0.91426 0.57412 0.0
C29 C 0.42078 0.48834 0.96571 0.0
C30 C -0.00514 0.48834 0.96571 0.0
C31 C 0.42078 0.91426 0.96571 0.0
O32 O 0.03547 0.40928 0.6187 0.0
O33 O 0.49984 0.60801 0.6187 0.0
O34 O 0.30111 0.87364 0.6187 0.0
O35 O 0.3011 0.40928 0.92114 0.0
O36 O 0.03547 0.60801 0.92113 0.0
O37 O 0.49984 0.87365 0.92114 0.0
O38 O 0.03547 0.40928 0.92114 0.0
O39 O 0.49984 0.60801 0.92114 0.0
O40 O 0.30111 0.87364 0.92113 0.0
O41 O 0.3011 0.40928 0.6187 0.0
O42 O 0.03547 0.60801 0.6187 0.0
O43 O 0.49984 0.87365 0.6187 0.0
loop_
_geom_bond_atom_site_label_1
_geom_bond_atom_site_label_2
_geom_bond_distance
_geom_bond_site_symmetry_2
_ccdc_geom_bond_type
Sc0 O3 2.025 . S
Sc0 O10 2.105 . S
Sc0 O13 2.105 . S
Sc0 O16 2.105 . S
Sc0 O19 2.105 . S
Sc1 O3 2.025 . S
Sc1 O11 2.105 . S
Sc1 O15 2.105 . S
Sc1 O17 2.105 . S
Sc1 O21 2.105 . S
Sc2 O3 2.025 . S
Sc2 O12 2.105 . S
Sc2 O14 2.105 . S
Sc2 O18 2.105 . S
Sc2 O20 2.105 . S
O3 Sc0 2.025 . S
O3 Sc1 2.025 . S
O3 Sc2 2.025 . S
C4 O10 1.268 . S
C4 O20 1.268 . S
C5 O11 1.268 . S
C5 O19 1.268 . S
C6 O12 1.268 . S
C6 O21 1.268 . S
C7 O13 1.268 . S
C7 O17 1.268 . S
C8 O14 1.268 . S
C8 O16 1.268 . S
C9 O15 1.268 . S
C9 O18 1.268 . S
O10 Sc0 2.105 . S
O10 C4 1.268 . S
O11 Sc1 2.105 . S
O11 C5 1.268 . S
O12 Sc2 2.105 . S
O12 C6 1.268 . S
O13 Sc0 2.105 . S
O13 C7 1.268 . S
O14 Sc2 2.105 . S
O14 C8 1.268 . S
O15 Sc1 2.105 . S
O15 C9 1.268 . S
O16 Sc0 2.105 . S
O16 C8 1.268 . S
O17 Sc1 2.105 . S
O17 C7 1.268 . S
O18 Sc2 2.105 . S
O18 C9 1.268 . S
O19 Sc0 2.105 . S
O19 C5 1.268 . S
O20 Sc2 2.105 . S
O20 C4 1.268 . S
O21 Sc1 2.105 . S
O21 C6 1.268 . S
Sc22 O25 2.025 . S
Sc22 O32 2.105 . S
Sc22 O35 2.105 . S
Sc22 O38 2.105 . S
Sc22 O41 2.105 . S
Sc23 O25 2.025 . S
Sc23 O33 2.105 . S
Sc23 O37 2.105 . S
Sc23 O39 2.105 . S
Sc23 O43 2.105 . S
Sc24 O25 2.025 . S
Sc24 O34 2.105 . S
Sc24 O36 2.105 . S
Sc24 O40 2.105 . S
Sc24 O42 2.105 . S
O25 Sc22 2.025 . S
O25 Sc23 2.025 . S
O25 Sc24 2.025 . S
C26 O32 1.268 . S
C26 O42 1.268 . S
C27 O33 1.268 . S
C27 O41 1.268 . S
C28 O34 1.268 . S
C28 O43 1.268 . S
C29 O35 1.268 . S
C29 O39 1.268 . S
C30 O36 1.268 . S
C30 O38 1.268 . S
C31 O37 1.268 . S
C31 O40 1.268 . S
O32 Sc22 2.105 . S
O32 C26 1.268 . S
O33 Sc23 2.105 . S
O33 C27 1.268 . S
O34 Sc24 2.105 . S
O34 C28 1.268 . S
O35 Sc22 2.105 . S
O35 C29 1.268 . S
O36 Sc24 2.105 . S
O36 C30 1.268 . S
O37 Sc23 2.105 . S
O37 C31 1.268 . S
O38 Sc22 2.105 . S
O38 C30 1.268 . S
O39 Sc23 2.105 . S
O39 C29 1.268 . S
O40 Sc24 2.105 . S
O40 C31 1.268 . S
O41 Sc22 2.105 . S
O41 C27 1.268 . S
O42 Sc24 2.105 . S
O42 C26 1.268 . S
O43 Sc23 2.105 . S
O43 C28 1.268 . S
C31 C6 1.500 1_566 S
C27 C7 1.500 . S
C4 C30 1.500 1_654 S
C28 C9 1.500 1_565 S
C29 C5 1.500 1_556 S
C26 C8 1.500 1_455 S
