# Generated by pormake.
# Topology qzd, (4)-cn, num edge types: 1
# Building blocks:
#     Node 0, Type 0, BuildingBlock: ESEHIV_clean_sbu_0, # of connection points: 4
#     Node 1, Type 0, BuildingBlock: ESEHIV_clean_sbu_0, # of connection points: 4
#     Node 2, Type 0, BuildingBlock: ESEHIV_clean_sbu_0, # of connection points: 4
#     Edge 3, Type (0, 0), BuildingBlock: EZIPEK_clean_linker_0, # of connection points: 2
#     Edge 4, Type (0, 0), BuildingBlock: EZIPEK_clean_linker_0, # of connection points: 2
#     Edge 5, Type (0, 0), BuildingBlock: EZIPEK_clean_linker_0, # of connection points: 2
#     Edge 6, Type (0, 0), BuildingBlock: EZIPEK_clean_linker_0, # of connection points: 2
#     Edge 7, Type (0, 0), BuildingBlock: EZIPEK_clean_linker_0, # of connection points: 2
#     Edge 8, Type (0, 0), BuildingBlock: EZIPEK_clean_linker_0, # of connection points: 2
# Relax obj value: 0.000
# Max RMSD: 0.157
# Mean RMSD: 0.078
data_MOF--net-qzd--node1-ESEHIV_clean_sbu_0--edge1-EZIPEK_clean_linker_0
_symmetry_space_group_name_H-M    P1
_symmetry_Int_Tables_number       1
_symmetry_cell_setting            triclinic
loop_
_symmetry_equiv_pos_as_xyz
'x, y, z'
_cell_length_a     10.581444
_cell_length_b     12.969177
_cell_length_c     33.703107
_cell_angle_alpha  99.063241
_cell_angle_beta   99.753996
_cell_angle_gamma 114.38621
loop_
_atom_site_label
_atom_site_type_symbol
_atom_site_fract_x
_atom_site_fract_y
_atom_site_fract_z
_atom_type_partial_charge
Cu0 Cu 1.02727 0.95523 0.04909 0.0
N1 N 0.10025 1.03329 0.10625 0.0
N2 N 0.12514 0.07697 0.17496 0.0
C3 C 1.04281 1.00154 0.13789 0.0
C4 C 0.23847 0.1598 0.16673 0.0
C5 C 0.22318 0.13235 0.12434 0.0
O6 O 0.81744 0.89113 0.03456 0.0
C7 C 0.19542 0.83287 0.06246 0.0
O8 O 0.19816 0.86299 0.10174 0.0
H9 H 0.94241 0.92568 0.1341 0.0
H10 H 0.29659 0.18155 0.10783 0.0
N11 N 0.08862 0.06333 1.01708 0.0
N12 N 0.15769 0.13698 0.96433 0.0
C13 C 0.11073 1.04057 0.97909 0.0
C14 C 0.12096 0.17771 0.02638 0.0
C15 C 0.16439 0.22356 0.99394 0.0
C16 C 0.72906 0.81875 0.05007 0.0
O17 O 0.77188 0.75996 0.07277 0.0
H18 H 0.09548 0.95561 0.96289 0.0
H19 H 0.11463 0.22467 0.05489 0.0
O20 O 0.11233 0.84982 0.03498 0.0
H21 H 0.32499 0.2349 0.18969 0.0
H22 H 0.1995 0.3135 0.9923 0.0
Cu23 Cu 0.9655 0.16872 0.40993 0.0
N24 N 1.01149 0.32772 0.41895 0.0
N25 N 0.13595 0.5144 0.41781 0.0
C26 C 0.08812 0.40093 0.39811 0.0
C27 C 0.08503 0.51248 0.4519 0.0
C28 C 1.00774 0.39731 0.4524 0.0
O29 O 1.04739 0.13815 0.36403 0.0
C30 C 0.99123 0.14188 0.49235 0.0
O31 O 0.86968 0.14931 0.48699 0.0
H32 H 0.11821 0.37215 0.37088 0.0
H33 H 0.95994 0.36696 0.47678 0.0
N34 N 0.7655 0.07494 0.39402 0.0
N35 N 0.55031 0.92565 0.3866 0.0
C36 C 0.69137 0.97917 0.40673 0.0
C37 C 0.66776 0.08175 0.36463 0.0
C38 C 0.535 0.98915 0.35973 0.0
C39 C 0.97912 1.05415 0.33134 0.0
O40 O 0.85163 0.97177 0.32928 0.0
H41 H 0.74024 0.94691 0.4294 0.0
H42 H 0.69219 0.14754 0.34716 0.0
O43 O 1.05115 0.14579 0.46234 0.0
H44 H 0.10821 0.58901 0.47576 0.0
H45 H 0.43534 0.96925 0.33795 0.0
Cu46 Cu 0.40934 0.23224 0.74122 0.0
N47 N 0.52694 0.39411 0.7583 0.0
N48 N 0.59613 0.58462 0.76387 0.0
C49 C 0.48547 0.4759 0.7506 0.0
C50 C 0.71171 0.5713 0.78069 0.0
C51 C 0.6686 0.45342 0.77725 0.0
O52 O 0.29595 0.20572 0.68528 0.0
C53 C 0.36675 0.21903 0.81974 0.0
O54 O 0.50697 0.28198 0.8296 0.0
H55 H 0.3773 0.45593 0.7345 0.0
H56 H 0.73631 0.41359 0.78711 0.0
N57 N 0.5191 0.1504 0.73904 0.0
N58 N 0.58848 1.01056 0.74276 0.0
C59 C 0.48845 1.04657 0.74823 0.0
C60 C 0.64225 0.18041 0.72722 0.0
C61 C 0.68562 0.09419 0.72958 0.0
C62 C 0.22991 0.11042 0.65684 0.0
O63 O 0.22199 1.01274 0.66525 0.0
H64 H 0.39415 0.99779 0.7583 0.0
H65 H 0.69596 0.259 0.71723 0.0
O66 O 0.29709 0.18597 0.78153 0.0
H67 H 0.81961 0.64157 0.79374 0.0
H68 H 0.7798 0.09206 0.72178 0.0
C69 C 0.45768 0.71393 0.03733 0.0
C70 C 0.58812 0.81994 0.04975 0.0
C71 C 0.45106 0.93104 0.05983 0.0
C72 C 0.32435 0.82535 0.05309 0.0
N73 N 0.20669 0.61529 0.03834 0.0
N74 N 0.70986 1.02814 0.08255 0.0
C75 C 0.32737 0.71627 0.04254 0.0
C76 C 0.58512 0.92837 0.06333 0.0
N77 N 0.45753 0.61176 1.01942 0.0
N78 N 0.44373 1.03471 0.06293 0.0
H79 H 0.81095 1.03053 0.0885 0.0
H80 H 0.71199 0.10622 0.09703 0.0
H81 H 0.3477 1.04077 0.06064 0.0
H82 H 0.53038 0.11257 0.06338 0.0
H83 H 0.36416 0.5337 1.00603 0.0
H84 H 0.55021 0.60733 1.01464 0.0
H85 H 0.20553 0.5337 0.03524 0.0
H86 H 0.10896 0.61446 0.0404 0.0
C87 C 0.31518 0.81829 0.40198 0.0
C88 C 0.44089 0.81985 0.39196 0.0
C89 C 0.37138 0.62385 0.4031 0.0
C90 C 0.23771 0.61652 0.40817 0.0
N91 N 0.07019 0.69823 0.40327 0.0
N92 N 0.56736 0.71096 0.37204 0.0
C93 C 0.20586 0.71136 0.40484 0.0
C94 C 0.46245 0.71842 0.38915 0.0
N95 N 0.30318 0.91972 0.41092 0.0
N96 N 0.41581 0.5448 0.41394 0.0
H97 H 0.63063 0.7761 0.35938 0.0
H98 H 0.57976 0.63477 0.36615 0.0
H99 H 0.358 0.48005 0.42761 0.0
H100 H 0.51798 0.55263 0.41405 0.0
H101 H 0.21954 0.92515 0.4221 0.0
H102 H 0.38425 1.00065 0.41136 0.0
H103 H 1.03761 0.76112 0.39721 0.0
H104 H 0.98662 0.61954 0.40369 0.0
C105 C 0.5566 0.81217 0.71278 0.0
C106 C 0.5887 0.90254 0.74816 0.0
C107 C 0.61343 0.77839 0.7938 0.0
C108 C 0.59348 0.69205 0.75859 0.0
N109 N 0.56954 0.63326 0.68531 0.0
N110 N 0.6672 0.98047 0.8223 0.0
C111 C 0.57116 0.71065 0.71819 0.0
C112 C 0.62239 0.88798 0.78875 0.0
N113 N 0.5081 0.82244 0.6741 0.0
N114 N 0.61921 0.75364 0.83178 0.0
H115 H 0.67617 0.06182 0.81923 0.0
H116 H 0.70588 0.97961 0.85272 0.0
H117 H 0.61123 0.6735 0.83609 0.0
H118 H 0.62017 0.80817 0.85817 0.0
H119 H 0.46924 0.75497 0.64718 0.0
H120 H 0.49531 0.89553 0.66941 0.0
H121 H 0.56744 0.64724 0.65566 0.0
H122 H 0.5831 0.55956 0.68855 0.0
C123 C 0.10196 1.00485 0.27866 0.0
C124 C 1.02528 0.06505 0.29229 0.0
C125 C 1.0115 0.12987 0.22761 0.0
C126 C 0.09316 0.07405 0.21484 0.0
N127 N 0.23084 0.97015 0.22876 0.0
N128 N 0.92216 0.19723 0.28286 0.0
C129 C 0.14279 1.01491 0.24063 0.0
C130 C 0.98466 0.13141 0.26765 0.0
N131 N 0.13272 0.93625 0.30166 0.0
N132 N 0.95646 0.17857 0.20067 0.0
H133 H 0.89667 0.198 0.31142 0.0
H134 H 0.90403 0.25731 0.26867 0.0
H135 H 0.97805 0.18137 0.17168 0.0
H136 H 0.88246 0.2094 0.20563 0.0
H137 H 0.1748 0.88019 0.29162 0.0
H138 H 0.10875 0.93061 0.33027 0.0
H139 H 0.28307 0.93564 0.24757 0.0
H140 H 0.25865 0.97413 0.20057 0.0
C141 C 0.18677 1.05536 0.57806 0.0
C142 C 0.1646 0.11219 0.6141 0.0
C143 C 1.05607 0.2042 0.57067 0.0
C144 C 1.05835 0.13443 0.53399 0.0
N145 N 0.09917 0.97277 0.50349 0.0
N146 N 1.04094 0.21546 0.64175 0.0
C147 C 0.11618 1.05393 0.53779 0.0
C148 C 0.08802 0.17901 0.60952 0.0
N149 N 0.28033 1.00769 0.58194 0.0
N150 N 1.03054 0.29865 0.56905 0.0
H151 H 1.05431 0.19313 0.67003 0.0
H152 H 0.97374 0.25567 0.63852 0.0
H153 H 1.01841 0.32667 0.54198 0.0
H154 H 1.04009 0.35762 0.59563 0.0
H155 H 0.31009 0.97556 0.55665 0.0
H156 H 0.34035 1.01178 0.61056 0.0
H157 H 0.12764 0.90538 0.50535 0.0
H158 H 1.04302 0.96476 0.4737 0.0
C159 C 0.18217 0.20785 0.86051 0.0
C160 C 0.29595 0.18223 0.85328 0.0
C161 C 0.31897 0.12847 0.91989 0.0
C162 C 0.20049 0.14754 0.92605 0.0
N163 N 0.99955 0.18036 0.89847 0.0
N164 N 0.44335 0.08655 0.87043 0.0
C165 C 0.12585 0.17947 0.89509 0.0
C166 C 0.35522 0.13266 0.88127 0.0
N167 N 0.13286 0.26461 0.83587 0.0
N168 N 0.40175 0.11244 0.95174 0.0
H169 H 0.46728 0.08354 0.84162 0.0
H170 H 0.47934 1.03989 0.88793 0.0
H171 H 0.38187 0.11352 0.98102 0.0
H172 H 0.49812 0.10987 0.95044 0.0
H173 H 1.06117 0.29667 0.84238 0.0
H174 H 0.17185 0.28811 0.8106 0.0
H175 H 0.93294 0.1929 0.87524 0.0
H176 H 0.95494 0.15761 0.92302 0.0
loop_
_geom_bond_atom_site_label_1
_geom_bond_atom_site_label_2
_geom_bond_distance
_geom_bond_site_symmetry_2
_ccdc_geom_bond_type
Cu0 N1 1.999 . S
Cu0 O6 1.974 1_455 S
Cu0 N11 1.985 1_554 S
Cu0 O20 1.959 . S
N1 Cu0 1.999 . S
N1 C3 1.263 1_455 S
N1 C5 1.389 . S
N2 C3 1.358 1_455 S
N2 C4 1.400 . S
C3 N1 1.263 1_655 S
C3 N2 1.358 1_655 S
C3 H9 0.930 1_545 S
C4 N2 1.400 . S
C4 C5 1.351 . S
C4 H21 0.930 . S
C5 N1 1.389 . S
C5 C4 1.351 . S
C5 H10 0.930 . S
O6 Cu0 1.974 1_655 S
O6 C16 1.282 1_545 S
C7 O8 1.261 . S
C7 O20 1.251 1_565 S
O8 C7 1.261 . S
H9 C3 0.930 1_565 S
H10 C5 0.930 . S
N11 Cu0 1.985 1_556 S
N11 C13 1.335 . S
N11 C14 1.390 1_445 S
N12 C13 1.345 . S
N12 C15 1.336 1_445 S
C13 N11 1.335 . S
C13 N12 1.345 . S
C13 H18 0.930 . S
C14 N11 1.390 1_665 S
C14 C15 1.346 . S
C14 H19 0.930 . S
C15 N12 1.336 1_665 S
C15 C14 1.346 . S
C15 H22 0.929 . S
C16 O6 1.282 1_565 S
C16 O17 1.216 . S
O17 C16 1.216 . S
H18 C13 0.930 . S
H19 C14 0.930 . S
O20 Cu0 1.959 . S
O20 C7 1.251 1_545 S
H21 C4 0.930 . S
H22 C15 0.929 . S
Cu23 N24 1.999 . S
Cu23 O29 1.974 . S
Cu23 N34 1.985 1_445 S
Cu23 O43 1.959 . S
N24 Cu23 1.999 . S
N24 C26 1.263 . S
N24 C28 1.389 . S
N25 C26 1.358 . S
N25 C27 1.400 . S
C26 N24 1.263 . S
C26 N25 1.358 . S
C26 H32 0.930 . S
C27 N25 1.400 . S
C27 C28 1.351 . S
C27 H44 0.930 . S
C28 N24 1.389 . S
C28 C27 1.351 . S
C28 H33 0.930 . S
O29 Cu23 1.974 . S
O29 C39 1.282 1_455 S
C30 O31 1.258 1_455 S
C30 O43 1.255 . S
O31 C30 1.258 1_655 S
H32 C26 0.930 . S
H33 C28 0.930 . S
N34 Cu23 1.985 1_665 S
N34 C36 1.335 . S
N34 C37 1.390 . S
N35 C36 1.345 . S
N35 C38 1.336 . S
C36 N34 1.335 . S
C36 N35 1.345 . S
C36 H41 0.930 . S
C37 N34 1.390 . S
C37 C38 1.346 . S
C37 H42 0.930 . S
C38 N35 1.336 . S
C38 C37 1.346 . S
C38 H45 0.929 . S
C39 O29 1.282 1_655 S
C39 O40 1.216 . S
O40 C39 1.216 . S
H41 C36 0.930 . S
H42 C37 0.930 . S
O43 Cu23 1.959 . S
O43 C30 1.255 . S
H44 C27 0.930 . S
H45 C38 0.929 . S
Cu46 N47 1.999 . S
Cu46 O52 1.974 . S
Cu46 N57 1.985 1_545 S
Cu46 O66 1.959 . S
N47 Cu46 1.999 . S
N47 C49 1.263 . S
N47 C51 1.389 . S
N48 C49 1.358 . S
N48 C50 1.400 . S
C49 N47 1.263 . S
C49 N48 1.358 . S
C49 H55 0.930 . S
C50 N48 1.400 . S
C50 C51 1.351 . S
C50 H67 0.930 . S
C51 N47 1.389 . S
C51 C50 1.351 . S
C51 H56 0.930 . S
O52 Cu46 1.974 . S
O52 C62 1.282 . S
C53 O54 1.261 . S
C53 O66 1.251 . S
O54 C53 1.261 . S
H55 C49 0.930 . S
H56 C51 0.930 . S
N57 Cu46 1.985 1_565 S
N57 C59 1.335 . S
N57 C60 1.390 . S
N58 C59 1.345 . S
N58 C61 1.336 . S
C59 N57 1.335 . S
C59 N58 1.345 . S
C59 H64 0.930 . S
C60 N57 1.390 . S
C60 C61 1.346 . S
C60 H65 0.930 . S
C61 N58 1.336 . S
C61 C60 1.346 . S
C61 H68 0.929 . S
C62 O52 1.282 . S
C62 O63 1.216 . S
O63 C62 1.216 . S
H64 C59 0.930 . S
H65 C60 0.930 . S
O66 Cu46 1.959 . S
O66 C53 1.251 . S
H67 C50 0.930 . S
H68 C61 0.929 . S
C69 C70 1.363 . S
C69 C75 1.379 . S
C69 N77 1.356 1_554 S
C70 C69 1.363 . S
C70 C76 1.363 1_565 S
C71 C72 1.363 1_545 S
C71 C76 1.379 . S
C71 N78 1.356 . S
C72 C71 1.363 1_565 S
C72 C75 1.363 . S
N73 C75 1.356 1_556 S
N73 H85 0.984 . S
N73 H86 0.985 . S
N74 C76 1.356 . S
N74 H79 0.984 . S
N74 H80 0.985 . S
C75 C69 1.379 . S
C75 C72 1.363 . S
C75 N73 1.356 1_554 S
C76 C70 1.363 1_545 S
C76 C71 1.379 . S
C76 N74 1.356 . S
N77 C69 1.356 1_556 S
N77 H83 0.984 . S
N77 H84 0.984 . S
N78 C71 1.356 . S
N78 H81 0.984 . S
N78 H82 0.985 . S
H79 N74 0.984 . S
H80 N74 0.985 . S
H81 N78 0.984 . S
H82 N78 0.985 . S
H83 N77 0.984 . S
H84 N77 0.984 . S
H85 N73 0.984 . S
H86 N73 0.985 . S
C87 C88 1.363 . S
C87 C93 1.379 . S
C87 N95 1.356 . S
C88 C87 1.363 . S
C88 C94 1.363 . S
C89 C90 1.363 . S
C89 C94 1.379 . S
C89 N96 1.356 . S
C90 C89 1.363 . S
C90 C93 1.363 . S
N91 C93 1.356 . S
N91 H103 0.984 . S
N91 H104 0.985 . S
N92 C94 1.356 . S
N92 H97 0.984 . S
N92 H98 0.985 . S
C93 C87 1.379 . S
C93 C90 1.363 . S
C93 N91 1.356 . S
C94 C88 1.363 . S
C94 C89 1.379 . S
C94 N92 1.356 . S
N95 C87 1.356 . S
N95 H101 0.984 . S
N95 H102 0.984 . S
N96 C89 1.356 . S
N96 H99 0.984 . S
N96 H100 0.985 . S
H97 N92 0.984 . S
H98 N92 0.985 . S
H99 N96 0.984 . S
H100 N96 0.985 . S
H101 N95 0.984 . S
H102 N95 0.984 . S
H103 N91 0.984 . S
H104 N91 0.985 . S
C105 C106 1.363 . S
C105 C111 1.379 . S
C105 N113 1.356 . S
C106 C105 1.363 . S
C106 C112 1.363 . S
C107 C108 1.363 . S
C107 C112 1.379 . S
C107 N114 1.356 . S
C108 C107 1.363 . S
C108 C111 1.363 . S
N109 C111 1.356 . S
N109 H121 0.984 . S
N109 H122 0.985 . S
N110 C112 1.356 . S
N110 H115 0.984 . S
N110 H116 0.985 . S
C111 C105 1.379 . S
C111 C108 1.363 . S
C111 N109 1.356 . S
C112 C106 1.363 . S
C112 C107 1.379 . S
C112 N110 1.356 . S
N113 C105 1.356 . S
N113 H119 0.984 . S
N113 H120 0.984 . S
N114 C107 1.356 . S
N114 H117 0.984 . S
N114 H118 0.985 . S
H115 N110 0.984 . S
H116 N110 0.985 . S
H117 N114 0.984 . S
H118 N114 0.985 . S
H119 N113 0.984 . S
H120 N113 0.984 . S
H121 N109 0.984 . S
H122 N109 0.985 . S
C123 C124 1.373 . S
C123 C129 1.378 1_645 S
C123 N131 1.349 1_545 S
C124 C123 1.373 . S
C124 C130 1.363 . S
C125 C126 1.364 1_655 S
C125 C130 1.379 . S
C125 N132 1.356 . S
C126 C125 1.364 1_455 S
C126 C129 1.363 1_545 S
N127 C129 1.356 . S
N127 H139 0.984 . S
N127 H140 0.985 . S
N128 C130 1.356 . S
N128 H133 0.984 . S
N128 H134 0.985 . S
C129 C123 1.378 1_465 S
C129 C126 1.363 1_565 S
C129 N127 1.356 . S
C130 C124 1.363 . S
C130 C125 1.379 . S
C130 N128 1.356 . S
N131 C123 1.349 1_565 S
N131 H137 0.984 1_655 S
N131 H138 0.984 . S
N132 C125 1.356 . S
N132 H135 0.984 . S
N132 H136 0.985 . S
H133 N128 0.984 . S
H134 N128 0.985 . S
H135 N132 0.984 . S
H136 N132 0.985 . S
H137 N131 0.984 1_455 S
H138 N131 0.984 . S
H139 N127 0.984 . S
H140 N127 0.985 . S
C141 C142 1.363 . S
C141 C147 1.379 . S
C141 N149 1.356 1_545 S
C142 C141 1.363 . S
C142 C148 1.363 . S
C143 C144 1.363 . S
C143 C148 1.379 . S
C143 N150 1.356 1_455 S
C144 C143 1.363 . S
C144 C147 1.363 . S
N145 C147 1.356 1_565 S
N145 H157 0.984 . S
N145 H158 0.985 1_565 S
N146 C148 1.356 . S
N146 H151 0.984 . S
N146 H152 0.985 . S
C147 C141 1.379 . S
C147 C144 1.363 . S
C147 N145 1.356 1_545 S
C148 C142 1.363 . S
C148 C143 1.379 . S
C148 N146 1.356 . S
N149 C141 1.356 1_565 S
N149 H155 0.984 . S
N149 H156 0.984 . S
N150 C143 1.356 1_655 S
N150 H153 0.984 . S
N150 H154 0.985 . S
H151 N146 0.984 . S
H152 N146 0.985 . S
H153 N150 0.984 . S
H154 N150 0.985 . S
H155 N149 0.984 . S
H156 N149 0.984 . S
H157 N145 0.984 . S
H158 N145 0.985 1_545 S
C159 C160 1.363 . S
C159 C165 1.380 1_455 S
C159 N167 1.356 1_445 S
C160 C159 1.363 . S
C160 C166 1.363 . S
C161 C162 1.363 . S
C161 C166 1.379 . S
C161 N168 1.356 . S
C162 C161 1.363 . S
C162 C165 1.363 1_455 S
N163 C165 1.355 1_565 S
N163 H175 0.984 . S
N163 H176 0.985 . S
N164 C166 1.356 . S
N164 H169 0.984 . S
N164 H170 0.985 . S
C165 C159 1.380 1_655 S
C165 C162 1.363 1_655 S
C165 N163 1.355 1_545 S
C166 C160 1.363 . S
C166 C161 1.379 . S
C166 N164 1.356 . S
N167 C159 1.356 1_665 S
N167 H173 0.984 . S
N167 H174 0.984 1_565 S
N168 C161 1.356 . S
N168 H171 0.984 . S
N168 H172 0.985 . S
H169 N164 0.984 . S
H170 N164 0.985 . S
H171 N168 0.984 . S
H172 N168 0.985 . S
H173 N167 0.984 . S
H174 N167 0.984 1_545 S
H175 N163 0.984 . S
H176 N163 0.985 . S
C70 C16 1.491 . S
C72 C7 1.498 . S
C88 N35 1.466 . S
C90 N25 1.463 . S
C106 N58 1.465 . S
C108 N48 1.463 . S
C124 C39 1.592 . S
C126 N2 1.541 . S
C142 C62 1.575 . S
C144 C30 1.595 . S
C160 C53 1.513 . S
C162 N12 1.492 . S
