# Generated by pormake.
# Topology pcu, (6)-cn, num edge types: 1
# Building blocks:
#     Node 0, Type 0, BuildingBlock: BETDEL_clean_sbu_0, # of connection points: 6
#     Edge 1, Type (0, 0), BuildingBlock: UVAHIK_clean_linker_0, # of connection points: 2
#     Edge 2, Type (0, 0), BuildingBlock: UVAHIK_clean_linker_0, # of connection points: 2
#     Edge 3, Type (0, 0), BuildingBlock: UVAHIK_clean_linker_0, # of connection points: 2
# Relax obj value: 0.000
# Max RMSD: 0.000
# Mean RMSD: 0.000
data_MOF--net-pcu--node1-BETDEL_clean_sbu_0--edge1-UVAHIK_clean_linker_0
_symmetry_space_group_name_H-M    P1
_symmetry_Int_Tables_number       1
_symmetry_cell_setting            triclinic
loop_
_symmetry_equiv_pos_as_xyz
'x, y, z'
_cell_length_a     19.959668
_cell_length_b     22.427984
_cell_length_c     18.926411
_cell_angle_alpha  101.60151
_cell_angle_beta   86.45487
_cell_angle_gamma 114.53562
loop_
_atom_site_label
_atom_site_type_symbol
_atom_site_fract_x
_atom_site_fract_y
_atom_site_fract_z
_atom_type_partial_charge
Dy0 Dy 0.01864 0.06754 0.01731 0.0
C1 C 0.92787 0.79134 0.02683 0.0
C2 C 0.04219 0.19371 1.00157 0.0
Dy3 Dy 0.95153 0.91764 1.0115 0.0
O4 O 0.05872 0.17839 0.05867 0.0
O5 O 0.01537 0.14026 0.9517 0.0
O6 O 0.06985 0.08429 0.12511 0.0
O7 O 0.96703 0.00378 0.09683 0.0
C8 C 0.01839 0.03191 0.14403 0.0
C9 C 0.95187 0.95371 0.88491 0.0
O10 O 0.84951 0.93343 0.04218 0.0
O11 O 0.89674 0.0386 1.01259 0.0
O12 O 0.91171 0.80688 0.9697 0.0
O13 O 0.95438 0.84464 0.07692 0.0
O14 O 0.90025 0.90136 0.90374 0.0
O15 O 0.00319 0.98137 0.93212 0.0
O16 O 0.12067 0.05173 0.98674 0.0
O17 O 0.07342 0.94663 0.01649 0.0
C18 C 0.84084 0.98586 0.02945 0.0
C19 C 0.12934 -0.00066 0.9996 0.0
C20 C 0.07115 0.05775 0.26798 0.0
C21 C 0.01276 0.01893 0.21806 0.0
C22 C 0.06481 0.04968 0.33968 0.0
C23 C 0.92587 0.98941 0.47584 0.0
H24 H 0.09122 -0.0013 0.58188 0.0
C25 C 0.89927 0.92828 0.76098 0.0
C26 C 0.95765 0.96689 0.81095 0.0
C27 C 0.90572 0.93651 0.68933 0.0
C28 C 0.04485 -0.00307 0.55332 0.0
H29 H 0.90275 0.93975 0.20318 0.0
H30 H 0.89166 0.92506 0.3288 0.0
H31 H 0.103 0.00527 0.45436 0.0
H32 H 0.06779 0.04587 0.82601 0.0
H33 H 0.07905 0.06086 0.70048 0.0
H34 H 0.86772 0.98108 0.5748 0.0
C35 C 0.94202 0.96249 0.31266 0.0
C36 C 0.05151 0.00046 0.48014 0.0
C37 C 0.94848 0.97052 0.24069 0.0
C38 C 0.02205 0.01526 0.78844 0.0
C39 C 0.02862 0.02346 0.71653 0.0
C40 C 0.91922 0.98589 0.54903 0.0
C41 C -0.00013 0.00253 0.36317 0.0
C42 C -0.0079 -0.00324 0.4405 0.0
C43 C 0.97076 0.98362 0.66595 0.0
C44 C 0.9786 0.98955 0.58866 0.0
H45 H 0.12142 0.09544 0.25199 0.0
H46 H 0.1101 0.0818 0.37719 0.0
H47 H 0.87949 0.98762 0.44728 0.0
H48 H 0.84891 0.89063 0.77688 0.0
H49 H 0.86042 0.90452 0.65178 0.0
C50 C 0.20996 0.93996 1.00418 0.0
C51 C 0.20311 -0.00162 0.99676 0.0
C52 C 0.27901 0.93884 1.00626 0.0
C53 C 0.47338 0.04873 0.04892 0.0
H54 H 0.50513 0.89309 0.95227 0.0
C55 C 0.76021 0.04526 0.02505 0.0
C56 C 0.76707 0.98684 0.03239 0.0
C57 C 0.69115 0.04639 0.02303 0.0
C58 C 0.49678 0.93648 0.98038 0.0
H59 H 0.2637 0.10113 0.98414 0.0
H60 H 0.38515 0.09898 0.98722 0.0
H61 H 0.38627 0.89685 0.93896 0.0
H62 H 0.7065 0.88407 0.04496 0.0
H63 H 0.58504 0.88622 0.04199 0.0
H64 H 0.58389 0.08836 0.09034 0.0
C65 C 0.33659 0.05428 0.99221 0.0
C66 C 0.42886 0.9388 0.97251 0.0
C67 C 0.26712 0.0554 0.98994 0.0
C68 C 0.70307 0.92981 0.03921 0.0
C69 C 0.63359 0.93092 0.03701 0.0
C70 C 0.5413 0.04641 0.05679 0.0
C71 C 0.34316 -0.00395 1.00094 0.0
C72 C 0.41638 -0.00508 1.00675 0.0
C73 C 0.62701 0.98917 0.02833 0.0
C74 C 0.55378 0.99029 0.02255 0.0
H75 H 0.16193 0.89496 1.00951 0.0
H76 H 0.28214 0.89349 1.01399 0.0
H77 H 0.46503 0.09212 0.07702 0.0
H78 H 0.80823 0.09027 0.01972 0.0
H79 H 0.68802 0.09175 0.01534 0.0
C80 C 0.96119 0.71783 0.08825 0.0
C81 C 0.92985 0.72643 0.02872 0.0
C82 C 0.97209 0.65961 0.08576 0.0
C83 C -0.006 0.52252 0.95424 0.0
H84 H 0.96709 0.43926 0.12064 0.0
C85 C 0.00863 0.26703 0.94007 0.0
C86 C 0.04016 0.25858 0.99956 0.0
C87 C -0.00231 0.32523 0.94249 0.0
C88 C 0.97585 0.46237 0.07388 0.0
H89 H 0.88287 0.67993 0.92099 0.0
H90 H 0.9006 0.57801 0.91701 0.0
H91 H 0.93901 0.5363 0.12864 0.0
H92 H 0.08743 0.3053 0.10715 0.0
H93 H 0.06959 0.40715 0.11103 0.0
H94 H 0.03081 0.44857 0.89948 0.0
C95 C 0.91809 0.61659 0.96518 0.0
C96 C 0.95957 0.51803 0.07847 0.0
C97 C 0.90721 0.67472 0.96772 0.0
C98 C 0.06295 0.31039 0.06045 0.0
C99 C 0.05201 0.36849 0.06294 0.0
C100 C 0.01027 0.46685 0.94965 0.0
C101 C 0.95197 0.60874 0.0236 0.0
C102 C 0.96837 0.54885 0.0187 0.0
C103 C 0.01795 0.37619 1.00455 0.0
C104 C 0.00149 0.43604 1.00943 0.0
H105 H 0.97965 0.75707 0.1358 0.0
H106 H -0.00119 0.6556 0.13157 0.0
H107 H 0.00278 0.54563 0.90748 0.0
H108 H -0.00993 0.22771 0.89259 0.0
H109 H 0.97084 0.32915 0.89671 0.0
loop_
_geom_bond_atom_site_label_1
_geom_bond_atom_site_label_2
_geom_bond_distance
_geom_bond_site_symmetry_2
_ccdc_geom_bond_type
Dy0 O4 2.398 . S
Dy0 O5 2.491 1_554 S
Dy0 O6 2.403 . S
Dy0 O7 2.663 1_545 S
Dy0 O11 2.326 1_455 S
Dy0 O15 2.309 1_454 S
Dy0 O16 2.351 . S
C1 O12 1.185 . S
C1 O13 1.355 1_556 S
C2 O4 1.185 . S
C2 O5 1.355 1_554 S
Dy3 O7 2.309 1_656 S
Dy3 O10 2.351 . S
Dy3 O12 2.398 . S
Dy3 O13 2.491 1_556 S
Dy3 O14 2.403 . S
Dy3 O15 2.663 1_565 S
Dy3 O17 2.326 1_655 S
O4 Dy0 2.398 . S
O4 C2 1.185 . S
O5 Dy0 2.491 1_556 S
O5 C2 1.355 1_556 S
O6 Dy0 2.403 . S
O6 C8 1.254 . S
O7 Dy0 2.663 1_565 S
O7 Dy3 2.309 1_454 S
O7 C8 1.267 1_565 S
C8 O6 1.254 . S
C8 O7 1.267 1_545 S
C9 O14 1.254 . S
C9 O15 1.267 1_565 S
O10 Dy3 2.351 . S
O10 C18 1.249 1_556 S
O11 Dy0 2.326 1_655 S
O11 C18 1.267 1_545 S
O12 C1 1.185 . S
O12 Dy3 2.398 . S
O13 C1 1.355 1_554 S
O13 Dy3 2.491 1_554 S
O14 Dy3 2.403 . S
O14 C9 1.254 . S
O15 Dy0 2.309 1_656 S
O15 Dy3 2.663 1_545 S
O15 C9 1.267 1_545 S
O16 Dy0 2.351 . S
O16 C19 1.249 1_554 S
O17 Dy3 2.326 1_455 S
O17 C19 1.267 1_565 S
C18 O10 1.249 1_554 S
C18 O11 1.267 1_565 S
C19 O16 1.249 1_556 S
C19 O17 1.267 1_545 S
C20 C21 1.349 1_565 S
C20 C22 1.327 . S
C20 H45 0.950 . S
C21 C20 1.349 1_545 S
C21 C37 1.349 1_455 S
C22 C20 1.327 . S
C22 C41 1.429 1_565 S
C22 H46 0.950 . S
C23 C40 1.574 . S
C23 C42 1.368 1_655 S
C23 H47 0.949 . S
H24 C28 0.949 . S
C25 C26 1.349 1_655 S
C25 C27 1.327 . S
C25 H48 0.950 . S
C26 C25 1.349 1_455 S
C26 C38 1.349 1_545 S
C27 C25 1.327 . S
C27 C43 1.429 1_655 S
C27 H49 0.950 . S
C28 H24 0.949 . S
C28 C36 1.574 . S
C28 C44 1.368 1_565 S
H29 C37 0.950 . S
H30 C35 0.950 . S
H31 C36 0.949 . S
H32 C38 0.950 . S
H33 C39 0.950 . S
H34 C40 0.949 . S
C35 H30 0.950 . S
C35 C37 1.327 . S
C35 C41 1.429 1_655 S
C36 C28 1.574 . S
C36 H31 0.949 . S
C36 C42 1.368 1_565 S
C37 C21 1.349 1_655 S
C37 H29 0.950 . S
C37 C35 1.327 . S
C38 C26 1.349 1_565 S
C38 H32 0.950 . S
C38 C39 1.327 . S
C39 H33 0.950 . S
C39 C38 1.327 . S
C39 C43 1.429 1_565 S
C40 C23 1.574 . S
C40 H34 0.949 . S
C40 C44 1.368 1_655 S
C41 C22 1.429 1_545 S
C41 C35 1.429 1_455 S
C41 C42 1.523 . S
C42 C23 1.368 1_455 S
C42 C36 1.368 1_545 S
C42 C41 1.523 . S
C43 C27 1.429 1_455 S
C43 C39 1.429 1_545 S
C43 C44 1.523 . S
C44 C28 1.368 1_545 S
C44 C40 1.368 1_455 S
C44 C43 1.523 . S
H45 C20 0.950 . S
H46 C22 0.950 . S
H47 C23 0.949 . S
H48 C25 0.950 . S
H49 C27 0.950 . S
C50 C51 1.349 1_565 S
C50 C52 1.327 . S
C50 H75 0.950 . S
C51 C50 1.349 1_545 S
C51 C67 1.349 1_554 S
C52 C50 1.327 . S
C52 C71 1.429 1_565 S
C52 H76 0.950 . S
C53 C70 1.574 . S
C53 C72 1.368 1_556 S
C53 H77 0.949 . S
H54 C58 0.949 . S
C55 C56 1.349 1_556 S
C55 C57 1.327 . S
C55 H78 0.950 . S
C56 C55 1.349 1_554 S
C56 C68 1.349 1_545 S
C57 C55 1.327 . S
C57 C73 1.429 1_556 S
C57 H79 0.950 . S
C58 H54 0.949 . S
C58 C66 1.574 . S
C58 C74 1.368 1_565 S
H59 C67 0.950 . S
H60 C65 0.950 . S
H61 C66 0.949 . S
H62 C68 0.950 . S
H63 C69 0.950 . S
H64 C70 0.949 . S
C65 H60 0.950 . S
C65 C67 1.327 . S
C65 C71 1.429 1_556 S
C66 C58 1.574 . S
C66 H61 0.949 . S
C66 C72 1.368 1_565 S
C67 C51 1.349 1_556 S
C67 H59 0.950 . S
C67 C65 1.327 . S
C68 C56 1.349 1_565 S
C68 H62 0.950 . S
C68 C69 1.327 . S
C69 H63 0.950 . S
C69 C68 1.327 . S
C69 C73 1.429 1_565 S
C70 C53 1.574 . S
C70 H64 0.949 . S
C70 C74 1.368 1_556 S
C71 C52 1.429 1_545 S
C71 C65 1.429 1_554 S
C71 C72 1.523 . S
C72 C53 1.368 1_554 S
C72 C66 1.368 1_545 S
C72 C71 1.523 . S
C73 C57 1.429 1_554 S
C73 C69 1.429 1_545 S
C73 C74 1.523 . S
C74 C58 1.368 1_545 S
C74 C70 1.368 1_554 S
C74 C73 1.523 . S
H75 C50 0.950 . S
H76 C52 0.950 . S
H77 C53 0.949 . S
H78 C55 0.950 . S
H79 C57 0.950 . S
C80 C81 1.349 1_655 S
C80 C82 1.327 . S
C80 H105 0.950 . S
C81 C80 1.349 1_455 S
C81 C97 1.349 1_554 S
C82 C80 1.327 . S
C82 C101 1.429 1_655 S
C82 H106 0.950 . S
C83 C100 1.574 . S
C83 C102 1.368 1_556 S
C83 H107 0.949 . S
H84 C88 0.949 . S
C85 C86 1.349 1_556 S
C85 C87 1.327 . S
C85 H108 0.950 . S
C86 C85 1.349 1_554 S
C86 C98 1.349 1_455 S
C87 C85 1.327 . S
C87 C103 1.429 1_556 S
C87 H109 0.950 . S
C88 H84 0.949 . S
C88 C96 1.574 . S
C88 C104 1.368 1_655 S
H89 C97 0.950 . S
H90 C95 0.950 . S
H91 C96 0.949 . S
H92 C98 0.950 . S
H93 C99 0.950 . S
H94 C100 0.949 . S
C95 H90 0.950 . S
C95 C97 1.327 . S
C95 C101 1.429 1_556 S
C96 C88 1.574 . S
C96 H91 0.949 . S
C96 C102 1.368 1_655 S
C97 C81 1.349 1_556 S
C97 H89 0.950 . S
C97 C95 1.327 . S
C98 C86 1.349 1_655 S
C98 H92 0.950 . S
C98 C99 1.327 . S
C99 H93 0.950 . S
C99 C98 1.327 . S
C99 C103 1.429 1_655 S
C100 C83 1.574 . S
C100 H94 0.949 . S
C100 C104 1.368 1_556 S
C101 C82 1.429 1_455 S
C101 C95 1.429 1_554 S
C101 C102 1.523 . S
C102 C83 1.368 1_554 S
C102 C96 1.368 1_455 S
C102 C101 1.523 . S
C103 C87 1.429 1_554 S
C103 C99 1.429 1_455 S
C103 C104 1.523 . S
C104 C88 1.368 1_455 S
C104 C100 1.368 1_554 S
C104 C103 1.523 . S
H105 C80 0.950 . S
H106 C82 0.950 . S
H107 C83 0.949 . S
H108 C85 0.950 . S
H109 C87 0.950 . S
C21 C8 1.457 . S
C26 C9 1.457 1_445 S
C51 C19 1.491 1_554 S
C56 C18 1.491 1_545 S
C81 C1 1.482 1_454 S
C86 C2 1.482 . S
