# Generated by pormake.
# Topology sma, (6)-cn, num edge types: 1
# Building blocks:
#     Node 0, Type 0, BuildingBlock: BETGAK_clean_sbu_0, # of connection points: 6
#     Node 1, Type 0, BuildingBlock: BETGAK_clean_sbu_0, # of connection points: 6
#     Node 2, Type 0, BuildingBlock: BETGAK_clean_sbu_0, # of connection points: 6
#     Edge 3, Type (0, 0), None
#     Edge 4, Type (0, 0), None
#     Edge 5, Type (0, 0), None
#     Edge 6, Type (0, 0), None
#     Edge 7, Type (0, 0), None
#     Edge 8, Type (0, 0), None
#     Edge 9, Type (0, 0), None
#     Edge 10, Type (0, 0), None
#     Edge 11, Type (0, 0), None
# Relax obj value: 0.251
# Max RMSD: 0.331
# Mean RMSD: 0.227
data_MOF--net-sma--node1-BETGAK_clean_sbu_0--edge1-none
_symmetry_space_group_name_H-M    P1
_symmetry_Int_Tables_number       1
_symmetry_cell_setting            triclinic
loop_
_symmetry_equiv_pos_as_xyz
'x, y, z'
_cell_length_a     24.8379
_cell_length_b     30.6697
_cell_length_c     5.8974052
_cell_angle_alpha  94.356045
_cell_angle_beta   88.533758
_cell_angle_gamma 153.19683
loop_
_atom_site_label
_atom_site_type_symbol
_atom_site_fract_x
_atom_site_fract_y
_atom_site_fract_z
_atom_type_partial_charge
La0 La 0.31305 0.71862 0.16484 0.0
La1 La 1.14942 0.68171 0.14762 0.0
C2 C 0.46294 0.76766 0.07924 0.0
C3 C 0.49814 0.74697 0.10401 0.0
C4 C 0.41509 0.65209 0.08128 0.0
C5 C 0.45494 0.63748 0.09334 0.0
C6 C 0.57841 0.71746 0.12673 0.0
C7 C 0.66034 0.81193 0.15253 0.0
C8 C 0.62069 0.82631 0.14123 0.0
C9 C 0.2497 0.70492 0.55906 0.0
C10 C 0.42384 0.89525 0.13281 0.0
C11 C 0.99946 0.63264 0.23261 0.0
C12 C 0.96429 0.65334 0.20783 0.0
C13 C 1.04737 0.74823 0.23048 0.0
C14 C 1.00755 0.76287 0.21842 0.0
C15 C 0.88408 0.6829 0.18513 0.0
C16 C 0.80212 0.58842 0.15943 0.0
C17 C 0.84175 0.57402 0.17071 0.0
C18 C 1.21318 0.69565 0.75359 0.0
C19 C 1.03864 0.5051 0.17991 0.0
O20 O 0.47257 0.80136 0.26409 0.0
O21 O 0.36844 0.70752 0.94047 0.0
O22 O 0.27222 0.68009 0.51496 0.0
O23 O 0.27184 0.74253 0.39472 0.0
O24 O 0.43606 0.86097 0.10484 0.0
O25 O 0.32052 0.83947 0.17119 0.0
O26 O 0.99002 0.59908 0.04772 0.0
O27 O 1.09383 0.69267 0.37171 0.0
O28 O 1.19061 0.72045 0.79747 0.0
O29 O 1.19069 0.6579 0.91806 0.0
O30 O 1.02642 0.53938 0.20778 0.0
O31 O 1.14195 0.56086 0.14155 0.0
H32 H 0.31993 0.58956 0.05204 0.0
H33 H 0.3893 0.56376 0.0732 0.0
H34 H 0.75583 0.87541 0.18141 0.0
H35 H 0.68652 0.90014 0.15878 0.0
H36 H 1.14253 0.81075 0.25964 0.0
H37 H 1.0732 0.83659 0.23848 0.0
H38 H 0.70664 0.52495 0.13061 0.0
H39 H 0.7759 0.50019 0.15323 0.0
La40 La 0.8153 0.22171 0.14801 0.0
La41 La 0.64721 0.17866 0.16493 0.0
C42 C 0.93863 0.24417 0.23538 0.0
C43 C 0.94299 0.19897 0.20175 0.0
C44 C 0.99541 0.21664 0.01324 0.0
C45 C 1.01492 0.18564 -0.00383 0.0
C46 C 0.98416 1.1376 0.16877 0.0
C47 C 0.92988 1.11832 0.35526 0.0
C48 C 0.9095 1.14869 0.37165 0.0
C49 C 0.74791 0.20307 0.75247 0.0
C50 C 0.53047 1.00053 0.12949 0.0
C51 C 0.52375 1.15611 0.07823 0.0
C52 C 0.51944 0.20135 0.11138 0.0
C53 C 0.46699 0.18372 0.2997 0.0
C54 C 0.44748 0.21472 0.31639 0.0
C55 C 0.47828 0.26273 0.14358 0.0
C56 C 0.53258 0.28197 0.95727 0.0
C57 C 0.55295 0.2516 0.94126 0.0
C58 C 0.71461 0.19713 0.56023 0.0
C59 C 0.93201 0.39983 0.18332 0.0
O60 O 0.94655 0.27187 0.05564 0.0
O61 O 0.8634 0.20769 0.37217 0.0
O62 O 0.84928 0.25721 0.79631 0.0
O63 O 0.68421 1.15483 0.91548 0.0
O64 O 0.63958 1.06249 0.16166 0.0
O65 O 0.51338 1.0299 0.09394 0.0
O66 O 0.51637 1.12888 0.25841 0.0
O67 O 0.59854 0.1922 0.94073 0.0
O68 O 0.61321 1.14296 0.51657 0.0
O69 O 0.77814 0.24542 0.39715 0.0
O70 O 0.82291 0.33786 0.15101 0.0
O71 O 0.94909 0.37046 0.21905 0.0
H72 H 1.02485 0.2571 0.88177 0.0
H73 H 1.0578 0.20215 0.85166 0.0
H74 H 0.9035 1.07995 0.4889 0.0
H75 H 0.87026 1.13489 0.52021 0.0
H76 H 0.43751 1.14327 0.43131 0.0
H77 H 0.40458 0.19824 0.46076 0.0
H78 H 0.55898 0.32031 0.82347 0.0
H79 H 0.59222 0.26536 0.79283 0.0
La80 La 0.85716 0.81002 0.19448 0.0
La81 La 0.60538 0.59037 0.11709 0.0
C82 C 1.03329 0.98572 0.15167 0.0
C83 C 1.03836 1.03757 0.14261 0.0
C84 C 1.07918 1.09375 0.33902 0.0
C85 C 1.06383 1.12796 0.34595 0.0
C86 C 1.00914 1.10808 0.15539 0.0
C87 C 0.97561 1.05757 0.95401 0.0
C88 C 0.9897 1.0224 0.94771 0.0
C89 C 0.75824 0.72376 0.56439 0.0
C90 C 0.62394 0.70469 0.13364 0.0
C91 C 0.42915 0.4146 0.15921 0.0
C92 C 0.42409 0.36277 0.16865 0.0
C93 C 0.38328 0.30654 0.97241 0.0
C94 C 0.39864 0.27234 0.96583 0.0
C95 C 0.4533 0.29226 0.15658 0.0
C96 C 0.48682 0.34281 0.35779 0.0
C97 C 0.47273 0.37798 0.36374 0.0
C98 C 0.70457 0.67698 0.74746 0.0
C99 C 0.83857 0.69569 0.17819 0.0
O100 O 1.00944 0.95467 0.34753 0.0
O101 O 0.97278 0.91995 0.97888 0.0
O102 O 0.8723 0.80217 0.54675 0.0
O103 O 0.70594 0.7002 0.38741 0.0
O104 O 0.74131 0.78331 0.12998 0.0
O105 O 0.54949 0.61801 0.15156 0.0
O106 O 0.45334 0.44583 0.96342 0.0
O107 O 0.48936 0.48022 0.33216 0.0
O108 O 0.59049 0.59854 0.76489 0.0
O109 O 0.75646 0.70011 0.92442 0.0
O110 O 0.72122 0.61709 0.18207 0.0
O111 O 0.913 0.78235 0.15999 0.0
H112 H 1.11862 1.10793 0.49068 0.0
H113 H 1.0931 0.16878 0.50163 0.0
H114 H 0.93338 1.04134 0.80458 0.0
H115 H 0.95766 0.97981 0.79293 0.0
H116 H 0.34386 0.29234 0.82062 0.0
H117 H 0.36938 0.23149 0.81027 0.0
H118 H 0.52904 0.35907 0.50735 0.0
H119 H 0.50477 0.42061 0.51839 0.0
loop_
_geom_bond_atom_site_label_1
_geom_bond_atom_site_label_2
_geom_bond_distance
_geom_bond_site_symmetry_2
_ccdc_geom_bond_type
La0 C2 2.928 . S
La0 O20 2.521 . S
La0 O21 2.628 1_554 S
La0 O22 2.554 . S
La0 O23 2.757 1_455 S
La0 O24 2.470 . S
La0 O29 2.482 1_554 S
La0 O31 2.503 1_455 S
La1 C11 2.928 . S
La1 O23 2.482 . S
La1 O25 2.503 1_655 S
La1 O26 2.521 . S
La1 O27 2.628 . S
La1 O28 2.554 1_554 S
La1 O29 2.757 1_654 S
La1 O30 2.470 . S
C2 La0 2.928 . S
C2 C3 1.503 . S
C2 O20 1.261 . S
C2 O21 1.243 1_554 S
C3 C2 1.503 . S
C3 C4 1.394 . S
C3 C8 1.373 1_554 S
C4 C3 1.394 . S
C4 C5 1.380 . S
C4 H32 0.930 . S
C5 C4 1.380 . S
C5 C6 1.376 . S
C5 H33 0.930 . S
C6 C5 1.376 . S
C6 C7 1.370 1_554 S
C7 C6 1.370 1_556 S
C7 C8 1.396 . S
C7 H34 0.929 . S
C8 C3 1.373 1_556 S
C8 C7 1.396 . S
C8 H35 0.929 . S
C9 O22 1.240 . S
C9 O23 1.289 1_455 S
C10 O24 1.258 . S
C10 O25 1.256 . S
C11 La1 2.928 . S
C11 C12 1.503 . S
C11 O26 1.261 . S
C11 O27 1.243 . S
C12 C11 1.503 . S
C12 C13 1.394 . S
C12 C17 1.373 . S
C13 C12 1.394 . S
C13 C14 1.380 . S
C13 H36 0.930 1_554 S
C14 C13 1.380 . S
C14 C15 1.376 . S
C14 H37 0.930 1_554 S
C15 C14 1.376 . S
C15 C16 1.370 . S
C16 C15 1.370 . S
C16 C17 1.396 . S
C16 H38 0.929 . S
C17 C12 1.373 . S
C17 C16 1.396 . S
C17 H39 0.929 . S
C18 O28 1.229 1_455 S
C18 O29 1.295 . S
C19 O30 1.258 . S
C19 O31 1.256 . S
O20 La0 2.521 . S
O20 C2 1.261 . S
O21 La0 2.628 1_556 S
O21 C2 1.243 1_556 S
O22 La0 2.554 . S
O22 C9 1.240 . S
O23 La0 2.757 1_655 S
O23 La1 2.482 . S
O23 C9 1.289 1_655 S
O24 La0 2.470 . S
O24 C10 1.258 . S
O25 La1 2.503 1_455 S
O25 C10 1.256 . S
O26 La1 2.521 . S
O26 C11 1.261 . S
O27 La1 2.628 . S
O27 C11 1.243 . S
O28 La1 2.554 1_556 S
O28 C18 1.229 1_655 S
O29 La0 2.482 1_556 S
O29 La1 2.757 1_456 S
O29 C18 1.295 . S
O30 La1 2.470 . S
O30 C19 1.258 . S
O31 La0 2.503 1_655 S
O31 C19 1.256 . S
H32 C4 0.930 . S
H33 C5 0.930 . S
H34 C7 0.929 . S
H35 C8 0.929 . S
H36 C13 0.930 1_556 S
H37 C14 0.930 1_556 S
H38 C16 0.929 . S
H39 C17 0.929 . S
La40 C42 2.928 1_545 S
La40 O60 2.521 1_545 S
La40 O61 2.628 1_545 S
La40 O62 2.554 1_554 S
La40 O63 2.757 . S
La40 O64 2.470 1_545 S
La40 O69 2.482 . S
La40 O71 2.503 . S
La41 C51 2.928 . S
La41 O63 2.482 . S
La41 O65 2.503 1_545 S
La41 O66 2.521 . S
La41 O67 2.628 . S
La41 O68 2.554 . S
La41 O69 2.757 . S
La41 O70 2.470 . S
C42 La40 2.928 1_565 S
C42 C43 1.503 . S
C42 O60 1.261 . S
C42 O61 1.243 . S
C43 C42 1.503 . S
C43 C44 1.394 . S
C43 C48 1.373 . S
C44 C43 1.394 . S
C44 C45 1.380 . S
C44 H72 0.930 . S
C45 C44 1.380 . S
C45 C46 1.376 . S
C45 H73 0.930 . S
C46 C45 1.376 . S
C46 C47 1.370 . S
C47 C46 1.370 . S
C47 C48 1.396 . S
C47 H74 0.929 . S
C48 C43 1.373 . S
C48 C47 1.396 . S
C48 H75 0.929 . S
C49 O62 1.240 . S
C49 O63 1.289 1_556 S
C50 O64 1.258 . S
C50 O65 1.256 . S
C51 La41 2.928 . S
C51 C52 1.503 . S
C51 O66 1.261 . S
C51 O67 1.243 . S
C52 C51 1.503 . S
C52 C53 1.394 . S
C52 C57 1.373 . S
C53 C52 1.394 . S
C53 C54 1.380 . S
C53 H76 0.930 . S
C54 C53 1.380 . S
C54 C55 1.376 . S
C54 H77 0.930 . S
C55 C54 1.376 . S
C55 C56 1.370 . S
C56 C55 1.370 . S
C56 C57 1.396 . S
C56 H78 0.929 . S
C57 C52 1.373 . S
C57 C56 1.396 . S
C57 H79 0.929 . S
C58 O68 1.240 . S
C58 O69 1.289 . S
C59 O70 1.258 . S
C59 O71 1.256 . S
O60 La40 2.521 1_565 S
O60 C42 1.261 . S
O61 La40 2.628 1_565 S
O61 C42 1.243 . S
O62 La40 2.554 1_556 S
O62 C49 1.240 . S
O63 La40 2.757 . S
O63 La41 2.482 . S
O63 C49 1.289 1_554 S
O64 La40 2.470 1_565 S
O64 C50 1.258 . S
O65 La41 2.503 1_565 S
O65 C50 1.256 . S
O66 La41 2.521 . S
O66 C51 1.261 . S
O67 La41 2.628 . S
O67 C51 1.243 . S
O68 La41 2.554 . S
O68 C58 1.240 . S
O69 La40 2.482 . S
O69 La41 2.757 . S
O69 C58 1.289 . S
O70 La41 2.470 . S
O70 C59 1.258 . S
O71 La40 2.503 . S
O71 C59 1.256 . S
H72 C44 0.930 . S
H73 C45 0.930 . S
H74 C47 0.929 . S
H75 C48 0.929 . S
H76 C53 0.930 . S
H77 C54 0.930 . S
H78 C56 0.929 . S
H79 C57 0.929 . S
La80 C82 2.928 1_554 S
La80 O100 2.521 . S
La80 O101 2.628 1_554 S
La80 O102 2.554 . S
La80 O103 2.757 . S
La80 O104 2.470 . S
La80 O109 2.482 1_554 S
La80 O111 2.503 1_554 S
La81 C91 2.928 . S
La81 O103 2.482 1_556 S
La81 O105 2.503 . S
La81 O106 2.521 . S
La81 O107 2.628 1_556 S
La81 O108 2.554 . S
La81 O109 2.757 . S
La81 O110 2.470 . S
C82 La80 2.928 1_556 S
C82 C83 1.503 . S
C82 O100 1.261 1_556 S
C82 O101 1.243 . S
C83 C82 1.503 . S
C83 C84 1.394 1_556 S
C83 C88 1.373 . S
C84 C83 1.394 1_554 S
C84 C85 1.380 . S
C84 H112 0.930 . S
C85 C84 1.380 . S
C85 C86 1.376 1_554 S
C85 H113 0.930 . S
C86 C85 1.376 1_556 S
C86 C87 1.370 . S
C87 C86 1.370 . S
C87 C88 1.396 . S
C87 H114 0.929 . S
C88 C83 1.373 . S
C88 C87 1.396 . S
C88 H115 0.929 . S
C89 O102 1.240 . S
C89 O103 1.289 . S
C90 O104 1.258 1_556 S
C90 O105 1.256 . S
C91 La81 2.928 . S
C91 C92 1.503 . S
C91 O106 1.261 . S
C91 O107 1.243 1_556 S
C92 C91 1.503 . S
C92 C93 1.394 . S
C92 C97 1.373 1_556 S
C93 C92 1.394 . S
C93 C94 1.380 . S
C93 H116 0.930 . S
C94 C93 1.380 . S
C94 C95 1.376 . S
C94 H117 0.930 . S
C95 C94 1.376 . S
C95 C96 1.370 1_556 S
C96 C95 1.370 1_554 S
C96 C97 1.396 . S
C96 H118 0.929 . S
C97 C92 1.373 1_554 S
C97 C96 1.396 . S
C97 H119 0.929 . S
C98 O108 1.240 . S
C98 O109 1.289 . S
C99 O110 1.258 . S
C99 O111 1.256 . S
O100 La80 2.521 . S
O100 C82 1.261 1_554 S
O101 La80 2.628 1_556 S
O101 C82 1.243 . S
O102 La80 2.554 . S
O102 C89 1.240 . S
O103 La80 2.757 . S
O103 La81 2.482 1_554 S
O103 C89 1.289 . S
O104 La80 2.470 . S
O104 C90 1.258 1_554 S
O105 La81 2.503 . S
O105 C90 1.256 . S
O106 La81 2.521 . S
O106 C91 1.261 . S
O107 La81 2.628 1_554 S
O107 C91 1.243 1_554 S
O108 La81 2.554 . S
O108 C98 1.240 . S
O109 La80 2.482 1_556 S
O109 La81 2.757 . S
O109 C98 1.289 . S
O110 La81 2.470 . S
O110 C99 1.258 . S
O111 La80 2.503 1_556 S
O111 C99 1.256 . S
H112 C84 0.930 . S
H113 C85 0.930 . S
H114 C87 0.929 . S
H115 C88 0.929 . S
H116 C93 0.930 . S
H117 C94 0.930 . S
H118 C96 0.929 . S
H119 C97 0.929 . S
C6 C90 4.632 1_554 S
C59 C19 4.418 . S
C46 C86 3.132 1_554 S
C99 C15 5.401 1_556 S
C50 C10 3.883 . S
C95 C55 2.734 1_556 S
C18 C9 0.622 . S
C49 C58 0.762 . S
C98 C89 0.834 . S
