# Generated by pormake.
# Topology cdl, (4)-cn, num edge types: 1
# Building blocks:
#     Node 0, Type 0, BuildingBlock: ESEHIV_clean_sbu_0, # of connection points: 4
#     Node 1, Type 0, BuildingBlock: ESEHIV_clean_sbu_0, # of connection points: 4
#     Node 2, Type 0, BuildingBlock: ESEHIV_clean_sbu_0, # of connection points: 4
#     Node 3, Type 0, BuildingBlock: ESEHIV_clean_sbu_0, # of connection points: 4
#     Edge 4, Type (0, 0), BuildingBlock: KIFKEQ_clean_linker_1, # of connection points: 2
#     Edge 5, Type (0, 0), BuildingBlock: KIFKEQ_clean_linker_1, # of connection points: 2
#     Edge 6, Type (0, 0), BuildingBlock: KIFKEQ_clean_linker_1, # of connection points: 2
#     Edge 7, Type (0, 0), BuildingBlock: KIFKEQ_clean_linker_1, # of connection points: 2
#     Edge 8, Type (0, 0), BuildingBlock: KIFKEQ_clean_linker_1, # of connection points: 2
#     Edge 9, Type (0, 0), BuildingBlock: KIFKEQ_clean_linker_1, # of connection points: 2
#     Edge 10, Type (0, 0), BuildingBlock: KIFKEQ_clean_linker_1, # of connection points: 2
#     Edge 11, Type (0, 0), BuildingBlock: KIFKEQ_clean_linker_1, # of connection points: 2
# Relax obj value: 0.000
# Max RMSD: 0.146
# Mean RMSD: 0.094
data_MOF--net-cdl--node1-ESEHIV_clean_sbu_0--edge1-KIFKEQ_clean_linker_1
_symmetry_space_group_name_H-M    P1
_symmetry_Int_Tables_number       1
_symmetry_cell_setting            triclinic
loop_
_symmetry_equiv_pos_as_xyz
'x, y, z'
_cell_length_a     14.98105
_cell_length_b     17.43609
_cell_length_c     64.719387
_cell_angle_alpha  101.79424
_cell_angle_beta   101.09673
_cell_angle_gamma 87.066746
loop_
_atom_site_label
_atom_site_type_symbol
_atom_site_fract_x
_atom_site_fract_y
_atom_site_fract_z
_atom_type_partial_charge
Cu0 Cu 0.05092 0.15276 0.12952 0.0
N1 N 0.97993 0.06162 0.12048 0.0
N2 N 0.94144 0.93581 0.11618 0.0
C3 C 0.9992 0.99334 0.12732 0.0
C4 C 0.88366 0.96918 0.10172 0.0
C5 C 0.90743 0.04668 0.10443 0.0
O6 O 0.11626 0.14979 0.15873 0.0
C7 C 0.08688 0.17177 0.09036 0.0
O8 O 1.00174 0.1957 0.08863 0.0
H9 H 0.05671 0.98521 0.1397 0.0
H10 H 0.87564 0.08858 0.09498 0.0
N11 N 0.98075 0.24619 0.13116 0.0
N12 N 0.94229 0.37255 0.1315 0.0
C13 C 1.00757 0.31666 0.12907 0.0
C14 C 0.89558 0.25808 0.13508 0.0
C15 C 0.87188 0.3359 0.1354 0.0
C16 C 0.06487 0.14017 0.17159 0.0
O17 O 0.9767 0.13566 0.16444 0.0
H18 H 0.07395 0.32678 0.12592 0.0
H19 H 0.85357 0.21328 0.13751 0.0
O20 O 0.12604 0.14989 0.1076 0.0
H21 H 0.82852 0.93955 0.08992 0.0
H22 H 0.80722 0.3631 0.13792 0.0
Cu23 Cu 0.2146 0.19249 0.65913 0.0
N24 N 0.22757 0.12552 0.67893 0.0
N25 N 0.22592 0.08325 0.70934 0.0
C26 C 0.21673 0.14563 0.69959 0.0
C27 C 0.24345 1.02168 0.69417 0.0
C28 C 0.24441 0.04785 0.6755 0.0
O29 O 0.10756 0.25745 0.66461 0.0
C30 C 0.40158 0.20494 0.66432 0.0
O31 O 0.39336 0.12955 0.66322 0.0
H32 H 0.19943 0.20444 0.70707 0.0
H33 H 0.25586 1.01255 0.66041 0.0
N34 N 0.19088 0.13458 0.63087 0.0
N35 N 0.18084 0.1015 0.59513 0.0
C36 C 0.21499 0.1526 0.61339 0.0
C37 C 0.14008 0.06991 0.62349 0.0
C38 C 0.13404 0.04923 0.60155 0.0
C39 C 0.04165 0.27065 0.64999 0.0
O40 O 0.05171 0.25337 0.62984 0.0
H41 H 0.25393 0.20388 0.61403 0.0
H42 H 0.10805 0.04078 0.63334 0.0
O43 O 0.32968 0.2477 0.66302 0.0
H44 H 0.25457 0.9618 0.69635 0.0
H45 H 0.09747 0.99955 0.59118 0.0
Cu46 Cu 0.04578 0.09511 0.89506 0.0
N47 N 0.97503 1.00362 0.88806 0.0
N48 N 0.93675 0.87817 0.8844 0.0
C49 C 1.0037 0.93165 0.89143 0.0
C50 C 0.86325 0.91795 0.87622 0.0
C51 C 0.88686 0.99524 0.87862 0.0
O52 O 0.12127 0.09898 0.9237 0.0
C53 C 0.05972 0.08816 0.85306 0.0
O54 O 0.9713 0.08711 0.85194 0.0
H55 H 0.07243 0.91881 0.89888 0.0
H56 H 0.84277 0.04212 0.87383 0.0
N57 N 0.97433 0.18715 0.89707 0.0
N58 N 0.93599 0.31355 0.89773 0.0
C59 C 0.99181 0.25393 0.89111 0.0
C60 C 0.90485 0.20508 0.90771 0.0
C61 C 0.88115 0.28292 0.90816 0.0
C62 C 0.08425 0.07661 0.93765 0.0
O63 O 1.0003 0.05135 0.93207 0.0
H64 H 0.04752 0.2598 0.88311 0.0
H65 H 0.87592 0.1652 0.91535 0.0
O66 O 0.11125 0.09267 0.87144 0.0
H67 H 0.79668 0.89326 0.8694 0.0
H68 H 0.82878 0.3149 0.91593 0.0
Cu69 Cu 0.22354 0.20666 0.39104 0.0
N70 N 0.20042 0.14628 0.36307 0.0
N71 N 0.18892 0.10988 0.32735 0.0
C72 C 0.22265 0.16298 0.34522 0.0
C73 C 0.14398 0.05802 0.33439 0.0
C74 C 0.15093 0.08071 0.3563 0.0
O75 O 0.33846 0.26183 0.39462 0.0
C76 C 0.04997 0.28318 0.38122 0.0
O77 O 0.05988 0.26343 0.36108 0.0
H78 H 0.26103 0.21404 0.34535 0.0
H79 H 0.11934 0.05289 0.3665 0.0
N80 N 0.23617 0.14199 0.41143 0.0
N81 N 0.23636 0.10351 0.44247 0.0
C82 C 0.22637 0.16437 0.43211 0.0
C83 C 0.25304 0.06438 0.40858 0.0
C84 C 0.25328 0.04055 0.42763 0.0
C85 C 0.41085 0.21989 0.39668 0.0
O86 O 0.40343 0.14512 0.39658 0.0
H87 H 0.21013 0.2239 0.43925 0.0
H88 H 0.26452 1.0276 0.39369 0.0
O89 O 0.11615 0.27197 0.39601 0.0
H90 H 0.10515 1.00897 0.32434 0.0
H91 H 0.26577 0.98141 0.43035 0.0
H92 H 0.86681 0.49773 0.15456 0.0
H93 H 0.02508 0.43163 0.10451 0.0
H94 H 0.86931 0.63501 0.15116 0.0
H95 H 0.02667 0.56886 0.10089 0.0
H96 H 0.90124 0.80723 0.08466 0.0
H97 H 0.90487 0.67034 0.08868 0.0
H98 H 0.98943 0.74395 0.15724 0.0
H99 H 0.98689 0.88092 0.15315 0.0
C100 C 0.90198 0.51258 0.14281 0.0
C101 C 0.94576 0.4538 0.12982 0.0
C102 C 0.90393 0.59122 0.14096 0.0
C103 C 0.94809 0.61285 0.12574 0.0
C104 C 0.9917 0.55404 0.11269 0.0
C105 C 0.99136 0.47559 0.11486 0.0
C106 C 0.92039 0.79418 0.10058 0.0
C107 C 0.94363 0.85497 0.11859 0.0
C108 C 0.92316 0.71576 0.10287 0.0
C109 C 0.94745 0.69625 0.12328 0.0
C110 C 0.97006 0.75708 0.14132 0.0
C111 C 0.96912 0.83541 0.13897 0.0
H112 H 0.45149 0.33125 0.64947 0.0
H113 H 0.56073 0.14696 0.68289 0.0
H114 H 0.60711 0.3673 0.64845 0.0
H115 H 0.71425 0.18249 0.68195 0.0
H116 H 0.98721 0.28014 0.68862 0.0
H117 H 0.83159 0.28328 0.69497 0.0
H118 H 0.72946 0.30203 0.6291 0.0
H119 H 0.88502 0.29968 0.62274 0.0
C120 C 0.5086 0.29965 0.65699 0.0
C121 C 0.49385 0.23613 0.6662 0.0
C122 C 0.59761 0.31984 0.65627 0.0
C123 C 0.67339 0.27783 0.66513 0.0
C124 C 0.65801 0.21689 0.67522 0.0
C125 C 0.56968 0.19611 0.67562 0.0
C126 C 0.93182 0.28683 0.6756 0.0
C127 C 0.94897 0.28868 0.65508 0.0
C128 C 0.84241 0.28816 0.67921 0.0
C129 C 0.76779 0.29181 0.66246 0.0
C130 C 0.78511 0.29954 0.64239 0.0
C131 C 0.87456 0.2978 0.63873 0.0
H132 H 0.97257 0.36746 0.86386 0.0
H133 H 0.90688 0.44291 0.92697 0.0
H134 H 0.97588 0.50476 0.86025 0.0
H135 H 0.9115 0.57985 0.92353 0.0
H136 H 0.03126 0.81382 0.91689 0.0
H137 H 0.03384 0.67584 0.92005 0.0
H138 H 0.85554 0.61915 0.85833 0.0
H139 H 0.85199 0.75726 0.85536 0.0
C140 C 0.95936 0.4134 0.87698 0.0
C141 C 0.93906 0.39436 0.89565 0.0
C142 C 0.96079 0.49187 0.87489 0.0
C143 C 0.94406 0.55312 0.89162 0.0
C144 C 0.92518 0.53404 0.91041 0.0
C145 C 0.92182 0.45564 0.91231 0.0
C146 C 0.99323 0.77174 0.90395 0.0
C147 C 0.94134 0.79639 0.88588 0.0
C148 C 0.99419 0.69291 0.90582 0.0
C149 C 0.94487 0.63662 0.88944 0.0
C150 C 0.8946 0.66102 0.87116 0.0
C151 C 0.89209 0.74009 0.86951 0.0
H152 H 0.45963 0.34288 0.38032 0.0
H153 H 0.57057 0.16536 0.41608 0.0
H154 H 0.61486 0.37851 0.37887 0.0
H155 H 0.72373 0.20043 0.4147 0.0
H156 H 0.99593 0.29772 0.42007 0.0
H157 H 0.84046 0.3017 0.42655 0.0
H158 H 0.73747 0.31139 0.36008 0.0
H159 H 0.89285 0.30826 0.3536 0.0
C160 C 0.51702 0.31272 0.38825 0.0
C161 C 0.50285 0.25115 0.39825 0.0
C162 C 0.60582 0.33265 0.38729 0.0
C163 C 0.682 0.29235 0.39668 0.0
C164 C 0.66718 0.23351 0.40754 0.0
C165 C 0.57905 0.21297 0.4082 0.0
C166 C 0.94036 0.3026 0.40693 0.0
C167 C 0.95725 0.3017 0.38623 0.0
C168 C 0.85103 0.30439 0.41063 0.0
C169 C 0.77623 0.30575 0.39377 0.0
C170 C 0.79325 0.31072 0.37347 0.0
C171 C 0.88261 0.30853 0.36973 0.0
H172 H 0.18608 0.19855 0.96351 0.0
H173 H 0.07732 0.9742 0.96341 0.0
H174 H 0.22209 0.22449 1.00298 0.0
H175 H 0.11395 0.99916 1.0025 0.0
H176 H 0.19402 0.05169 0.07352 0.0
H177 H 0.22882 1.02642 0.03712 0.0
H178 H 0.10796 0.24983 0.02773 0.0
H179 H 0.07258 0.27411 0.06371 0.0
C180 C 0.17321 0.15362 0.97189 0.0
C181 C 0.1287 0.08451 0.96046 0.0
C182 C 0.19317 0.1686 0.99446 0.0
C183 C 0.17047 0.11403 1.00592 0.0
C184 C 0.13327 0.04212 0.99427 0.0
C185 C 0.11185 1.02792 0.97184 0.0
C186 C 0.17805 0.09639 0.06391 0.0
C187 C 0.13037 0.16469 0.07136 0.0
C188 C 0.19732 0.08179 0.04304 0.0
C189 C 0.17071 0.13595 0.02946 0.0
C190 C 0.13027 0.2072 0.03776 0.0
C191 C 0.10958 0.22101 0.05836 0.0
H192 H 0.26533 0.22662 0.47636 0.0
H193 H 0.18976 0.98297 0.45884 0.0
H194 H 0.2513 0.22814 0.51344 0.0
H195 H 0.17847 0.98385 0.49588 0.0
H196 H 0.06816 0.03525 0.55824 0.0
H197 H 0.08208 0.03732 0.5216 0.0
H198 H 0.3246 0.17607 0.54517 0.0
H199 H 0.3111 0.17368 0.58202 0.0
C200 C 0.24559 0.17342 0.48036 0.0
C201 C 0.22868 0.10469 0.4645 0.0
C202 C 0.23849 0.17406 0.5017 0.0
C203 C 0.21367 0.10614 0.50771 0.0
C204 C 0.19675 0.03752 0.49184 0.0
C205 C 0.20425 0.03678 0.47057 0.0
C206 C 0.12514 0.06558 0.55574 0.0
C207 C 0.18883 0.10384 0.57328 0.0
C208 C 0.13304 0.06683 0.53462 0.0
C209 C 0.20473 0.10652 0.53034 0.0
C210 C 0.26793 0.14563 0.54784 0.0
C211 C 0.26017 0.14422 0.56902 0.0
H212 H 0.17056 0.98645 0.29373 0.0
H213 H 0.21397 0.23627 0.31026 0.0
H214 H 0.15615 0.99023 0.25586 0.0
H215 H 0.20075 0.23958 0.27218 0.0
H216 H 0.22096 0.20025 0.19944 0.0
H217 H 0.26695 0.19097 0.23756 0.0
H218 H 0.03288 0.04822 0.23178 0.0
H219 H 0.98735 0.0578 0.19433 0.0
C220 C 0.17744 0.04221 0.28935 0.0
C221 C 0.19171 0.11124 0.30516 0.0
C222 C 0.16963 0.04427 0.2676 0.0
C223 C 0.17633 0.11533 0.26097 0.0
C224 C 0.19583 0.1838 0.27677 0.0
C225 C 0.20327 0.18184 0.29863 0.0
C226 C 0.18035 0.16618 0.20635 0.0
C227 C 0.10042 0.13001 0.19392 0.0
C228 C 0.20621 0.16129 0.22815 0.0
C229 C 0.15365 0.11865 0.23769 0.0
C230 C 0.07553 0.08073 0.22495 0.0
C231 C 0.04909 0.0867 0.20346 0.0
H232 H 0.16713 0.96131 0.72304 0.0
H233 H 0.25554 0.201 0.7446 0.0
H234 H 0.13881 0.95934 0.75873 0.0
H235 H 0.22582 0.19924 0.78046 0.0
H236 H 0.22621 0.13512 0.84771 0.0
H237 H 0.27596 0.1327 0.81343 0.0
H238 H 1.02148 1.02784 0.77892 0.0
H239 H 0.97217 1.0306 0.81265 0.0
C240 C 0.18163 1.01336 0.73544 0.0
C241 C 0.21326 0.08145 0.73085 0.0
C242 C 0.16479 1.01238 0.7559 0.0
C243 C 0.17974 0.07922 0.77242 0.0
C244 C 0.21418 0.14665 0.76811 0.0
C245 C 0.2302 0.14791 0.74751 0.0
C246 C 0.18156 0.11099 0.83277 0.0
C247 C 0.09527 0.08312 0.83292 0.0
C248 C 0.20968 0.11008 0.81318 0.0
C249 C 0.15271 0.0798 0.79346 0.0
C250 C 0.06745 0.05071 0.79378 0.0
C251 C 0.039 0.05274 0.81318 0.0
loop_
_geom_bond_atom_site_label_1
_geom_bond_atom_site_label_2
_geom_bond_distance
_geom_bond_site_symmetry_2
_ccdc_geom_bond_type
Cu0 N1 1.999 1_545 S
Cu0 O6 1.974 . S
Cu0 N11 1.985 . S
Cu0 O20 1.959 . S
N1 Cu0 1.999 1_565 S
N1 C3 1.263 . S
N1 C5 1.389 . S
N2 C3 1.358 . S
N2 C4 1.400 . S
C3 N1 1.263 . S
C3 N2 1.358 . S
C3 H9 0.930 . S
C4 N2 1.400 . S
C4 C5 1.351 . S
C4 H21 0.930 . S
C5 N1 1.389 . S
C5 C4 1.351 . S
C5 H10 0.930 . S
O6 Cu0 1.974 . S
O6 C16 1.282 . S
C7 O8 1.261 . S
C7 O20 1.251 . S
O8 C7 1.261 . S
H9 C3 0.930 . S
H10 C5 0.930 . S
N11 Cu0 1.985 . S
N11 C13 1.335 . S
N11 C14 1.390 . S
N12 C13 1.345 . S
N12 C15 1.336 . S
C13 N11 1.335 . S
C13 N12 1.345 . S
C13 H18 0.930 . S
C14 N11 1.390 . S
C14 C15 1.346 . S
C14 H19 0.930 . S
C15 N12 1.336 . S
C15 C14 1.346 . S
C15 H22 0.929 . S
C16 O6 1.282 . S
C16 O17 1.216 . S
O17 C16 1.216 . S
H18 C13 0.930 . S
H19 C14 0.930 . S
O20 Cu0 1.959 . S
O20 C7 1.251 . S
H21 C4 0.930 . S
H22 C15 0.929 . S
Cu23 N24 1.999 . S
Cu23 O29 1.974 1_455 S
Cu23 N34 1.985 . S
Cu23 O43 1.959 . S
N24 Cu23 1.999 . S
N24 C26 1.263 . S
N24 C28 1.389 . S
N25 C26 1.358 . S
N25 C27 1.400 . S
C26 N24 1.263 . S
C26 N25 1.358 . S
C26 H32 0.930 1_455 S
C27 N25 1.400 . S
C27 C28 1.351 . S
C27 H44 0.930 . S
C28 N24 1.389 . S
C28 C27 1.351 . S
C28 H33 0.930 . S
O29 Cu23 1.974 1_655 S
O29 C39 1.282 . S
C30 O31 1.261 . S
C30 O43 1.251 . S
O31 C30 1.261 . S
H32 C26 0.930 1_655 S
H33 C28 0.930 . S
N34 Cu23 1.985 . S
N34 C36 1.335 . S
N34 C37 1.390 1_455 S
N35 C36 1.345 . S
N35 C38 1.336 1_455 S
C36 N34 1.335 . S
C36 N35 1.345 . S
C36 H41 0.930 . S
C37 N34 1.390 1_655 S
C37 C38 1.346 . S
C37 H42 0.930 . S
C38 N35 1.336 1_655 S
C38 C37 1.346 . S
C38 H45 0.929 . S
C39 O29 1.282 . S
C39 O40 1.216 . S
O40 C39 1.216 . S
H41 C36 0.930 . S
H42 C37 0.930 . S
O43 Cu23 1.959 . S
O43 C30 1.251 . S
H44 C27 0.930 . S
H45 C38 0.929 . S
Cu46 N47 1.999 . S
Cu46 O52 1.974 . S
Cu46 N57 1.985 . S
Cu46 O66 1.959 . S
N47 Cu46 1.999 . S
N47 C49 1.263 1_545 S
N47 C51 1.389 1_545 S
N48 C49 1.358 . S
N48 C50 1.400 . S
C49 N47 1.263 1_565 S
C49 N48 1.358 . S
C49 H55 0.930 1_455 S
C50 N48 1.400 . S
C50 C51 1.351 . S
C50 H67 0.930 . S
C51 N47 1.389 1_565 S
C51 C50 1.351 . S
C51 H56 0.930 . S
O52 Cu46 1.974 . S
O52 C62 1.282 1_455 S
C53 O54 1.261 . S
C53 O66 1.251 1_655 S
O54 C53 1.261 . S
H55 C49 0.930 1_655 S
H56 C51 0.930 . S
N57 Cu46 1.985 . S
N57 C59 1.335 . S
N57 C60 1.390 1_455 S
N58 C59 1.345 . S
N58 C61 1.336 1_455 S
C59 N57 1.335 . S
C59 N58 1.345 . S
C59 H64 0.930 . S
C60 N57 1.390 1_655 S
C60 C61 1.346 . S
C60 H65 0.930 . S
C61 N58 1.336 1_655 S
C61 C60 1.346 . S
C61 H68 0.929 . S
C62 O52 1.282 1_655 S
C62 O63 1.216 . S
O63 C62 1.216 . S
H64 C59 0.930 . S
H65 C60 0.930 . S
O66 Cu46 1.959 . S
O66 C53 1.251 1_455 S
H67 C50 0.930 . S
H68 C61 0.929 . S
Cu69 N70 1.999 . S
Cu69 O75 1.974 . S
Cu69 N80 1.985 . S
Cu69 O89 1.959 1_455 S
N70 Cu69 1.999 . S
N70 C72 1.263 . S
N70 C74 1.389 . S
N71 C72 1.358 . S
N71 C73 1.400 . S
C72 N70 1.263 . S
C72 N71 1.358 . S
C72 H78 0.930 . S
C73 N71 1.400 . S
C73 C74 1.351 . S
C73 H90 0.930 . S
C74 N70 1.389 . S
C74 C73 1.351 . S
C74 H79 0.930 1_455 S
O75 Cu69 1.974 . S
O75 C85 1.282 . S
C76 O77 1.261 1_545 S
C76 O89 1.251 . S
O77 C76 1.261 1_565 S
H78 C72 0.930 . S
H79 C74 0.930 1_655 S
N80 Cu69 1.985 . S
N80 C82 1.335 . S
N80 C83 1.390 . S
N81 C82 1.345 . S
N81 C84 1.336 . S
C82 N80 1.335 . S
C82 N81 1.345 . S
C82 H87 0.930 . S
C83 N80 1.390 . S
C83 C84 1.346 . S
C83 H88 0.930 . S
C84 N81 1.336 . S
C84 C83 1.346 . S
C84 H91 0.929 . S
C85 O75 1.282 . S
C85 O86 1.216 1_545 S
O86 C85 1.216 1_565 S
H87 C82 0.930 . S
H88 C83 0.930 . S
O89 Cu69 1.959 1_655 S
O89 C76 1.251 . S
H90 C73 0.930 . S
H91 C84 0.929 . S
H92 C100 0.950 . S
H93 C105 0.950 . S
H94 C102 0.950 . S
H95 C104 0.950 . S
H96 C106 0.950 . S
H97 C108 0.950 . S
H98 C110 0.950 . S
H99 C111 0.950 . S
C100 H92 0.950 . S
C100 C101 1.386 . S
C100 C102 1.391 . S
C101 C100 1.386 . S
C101 C105 1.393 . S
C102 H94 0.950 . S
C102 C100 1.391 . S
C102 C103 1.400 . S
C103 C102 1.400 . S
C103 C104 1.398 . S
C103 C109 1.491 . S
C104 H95 0.950 . S
C104 C103 1.398 . S
C104 C105 1.391 . S
C105 H93 0.950 . S
C105 C101 1.393 . S
C105 C104 1.391 . S
C106 H96 0.950 . S
C106 C107 1.386 . S
C106 C108 1.391 . S
C107 C106 1.386 . S
C107 C111 1.393 . S
C108 H97 0.950 . S
C108 C106 1.391 . S
C108 C109 1.400 . S
C109 C103 1.491 . S
C109 C108 1.400 . S
C109 C110 1.398 . S
C110 H98 0.950 . S
C110 C109 1.398 . S
C110 C111 1.391 . S
C111 H99 0.950 . S
C111 C107 1.393 . S
C111 C110 1.391 . S
H112 C120 0.950 . S
H113 C125 0.950 . S
H114 C122 0.950 . S
H115 C124 0.950 . S
H116 C126 0.950 . S
H117 C128 0.950 . S
H118 C130 0.950 . S
H119 C131 0.950 . S
C120 H112 0.950 . S
C120 C121 1.386 . S
C120 C122 1.391 . S
C121 C120 1.386 . S
C121 C125 1.393 . S
C122 H114 0.950 . S
C122 C120 1.391 . S
C122 C123 1.400 . S
C123 C122 1.400 . S
C123 C124 1.398 . S
C123 C129 1.491 . S
C124 H115 0.950 . S
C124 C123 1.398 . S
C124 C125 1.391 . S
C125 H113 0.950 . S
C125 C121 1.393 . S
C125 C124 1.391 . S
C126 H116 0.950 . S
C126 C127 1.386 . S
C126 C128 1.391 . S
C127 C126 1.386 . S
C127 C131 1.393 . S
C128 H117 0.950 . S
C128 C126 1.391 . S
C128 C129 1.400 . S
C129 C123 1.491 . S
C129 C128 1.400 . S
C129 C130 1.398 . S
C130 H118 0.950 . S
C130 C129 1.398 . S
C130 C131 1.391 . S
C131 H119 0.950 . S
C131 C127 1.393 . S
C131 C130 1.391 . S
H132 C140 0.950 . S
H133 C145 0.950 . S
H134 C142 0.950 . S
H135 C144 0.950 . S
H136 C146 0.950 . S
H137 C148 0.950 . S
H138 C150 0.950 . S
H139 C151 0.950 . S
C140 H132 0.950 . S
C140 C141 1.386 . S
C140 C142 1.391 . S
C141 C140 1.386 . S
C141 C145 1.393 1_455 S
C142 H134 0.950 . S
C142 C140 1.391 . S
C142 C143 1.400 . S
C143 C142 1.400 . S
C143 C144 1.398 1_455 S
C143 C149 1.491 . S
C144 H135 0.950 . S
C144 C143 1.398 1_655 S
C144 C145 1.391 . S
C145 H133 0.950 . S
C145 C141 1.393 1_655 S
C145 C144 1.391 . S
C146 H136 0.950 . S
C146 C147 1.386 1_655 S
C146 C148 1.391 . S
C147 C146 1.386 1_455 S
C147 C151 1.393 . S
C148 H137 0.950 . S
C148 C146 1.391 . S
C148 C149 1.400 1_655 S
C149 C143 1.491 . S
C149 C148 1.400 1_455 S
C149 C150 1.398 . S
C150 H138 0.950 . S
C150 C149 1.398 . S
C150 C151 1.391 . S
C151 H139 0.950 . S
C151 C147 1.393 . S
C151 C150 1.391 . S
H152 C160 0.950 . S
H153 C165 0.950 . S
H154 C162 0.950 . S
H155 C164 0.950 . S
H156 C166 0.950 . S
H157 C168 0.950 . S
H158 C170 0.950 . S
H159 C171 0.950 . S
C160 H152 0.950 . S
C160 C161 1.386 . S
C160 C162 1.391 . S
C161 C160 1.386 . S
C161 C165 1.393 1_545 S
C162 H154 0.950 . S
C162 C160 1.391 . S
C162 C163 1.400 . S
C163 C162 1.400 . S
C163 C164 1.398 1_545 S
C163 C169 1.491 . S
C164 H155 0.950 . S
C164 C163 1.398 1_565 S
C164 C165 1.391 . S
C165 H153 0.950 . S
C165 C161 1.393 1_565 S
C165 C164 1.391 . S
C166 H156 0.950 . S
C166 C167 1.386 1_565 S
C166 C168 1.391 . S
C167 C166 1.386 1_545 S
C167 C171 1.393 . S
C168 H157 0.950 . S
C168 C166 1.391 . S
C168 C169 1.400 1_565 S
C169 C163 1.491 . S
C169 C168 1.400 1_545 S
C169 C170 1.398 . S
C170 H158 0.950 . S
C170 C169 1.398 . S
C170 C171 1.391 . S
C171 H159 0.950 . S
C171 C167 1.393 . S
C171 C170 1.391 . S
H172 C180 0.950 . S
H173 C185 0.950 . S
H174 C182 0.950 . S
H175 C184 0.950 . S
H176 C186 0.950 . S
H177 C188 0.950 . S
H178 C190 0.950 . S
H179 C191 0.950 . S
C180 H172 0.950 . S
C180 C181 1.385 1_455 S
C180 C182 1.391 . S
C181 C180 1.385 1_655 S
C181 C185 1.393 . S
C182 H174 0.950 . S
C182 C180 1.391 . S
C182 C183 1.400 . S
C183 C182 1.400 . S
C183 C184 1.398 1_455 S
C183 C189 1.491 1_556 S
C184 H175 0.950 . S
C184 C183 1.398 1_655 S
C184 C185 1.391 . S
C185 H173 0.950 . S
C185 C181 1.393 . S
C185 C184 1.391 . S
C186 H176 0.950 . S
C186 C187 1.386 . S
C186 C188 1.391 . S
C187 C186 1.386 . S
C187 C191 1.393 . S
C188 H177 0.950 . S
C188 C186 1.391 . S
C188 C189 1.400 . S
C189 C183 1.491 1_554 S
C189 C188 1.400 . S
C189 C190 1.398 . S
C190 H178 0.950 . S
C190 C189 1.398 . S
C190 C191 1.391 . S
C191 H179 0.950 . S
C191 C187 1.393 . S
C191 C190 1.391 . S
H192 C200 0.950 . S
H193 C205 0.950 1_655 S
H194 C202 0.950 . S
H195 C204 0.950 1_655 S
H196 C206 0.950 . S
H197 C208 0.950 1_655 S
H198 C210 0.950 . S
H199 C211 0.950 . S
C200 H192 0.950 . S
C200 C201 1.386 . S
C200 C202 1.391 . S
C201 C200 1.386 . S
C201 C205 1.393 . S
C202 H194 0.950 . S
C202 C200 1.391 . S
C202 C203 1.400 . S
C203 C202 1.400 . S
C203 C204 1.398 . S
C203 C209 1.491 . S
C204 H195 0.950 1_455 S
C204 C203 1.398 . S
C204 C205 1.391 . S
C205 H193 0.950 1_455 S
C205 C201 1.393 . S
C205 C204 1.391 . S
C206 H196 0.950 . S
C206 C207 1.386 1_655 S
C206 C208 1.391 1_655 S
C207 C206 1.386 1_455 S
C207 C211 1.393 . S
C208 H197 0.950 1_455 S
C208 C206 1.391 1_455 S
C208 C209 1.400 . S
C209 C203 1.491 . S
C209 C208 1.400 . S
C209 C210 1.398 . S
C210 H198 0.950 . S
C210 C209 1.398 . S
C210 C211 1.391 . S
C211 H199 0.950 . S
C211 C207 1.393 . S
C211 C210 1.391 . S
H212 C220 0.946 1_565 S
H213 C225 0.950 . S
H214 C222 0.950 1_565 S
H215 C224 0.950 . S
H216 C226 0.950 . S
H217 C228 0.950 . S
H218 C230 0.950 1_565 S
H219 C231 0.950 1_565 S
C220 H212 0.946 1_545 S
C220 C221 1.388 . S
C220 C222 1.392 . S
C221 C220 1.388 . S
C221 C225 1.393 . S
C222 H214 0.950 1_545 S
C222 C220 1.392 . S
C222 C223 1.400 . S
C223 C222 1.400 . S
C223 C224 1.398 . S
C223 C229 1.491 . S
C224 H215 0.950 . S
C224 C223 1.398 . S
C224 C225 1.391 . S
C225 H213 0.950 . S
C225 C221 1.393 . S
C225 C224 1.391 . S
C226 H216 0.950 . S
C226 C227 1.386 . S
C226 C228 1.391 . S
C227 C226 1.386 . S
C227 C231 1.393 . S
C228 H217 0.950 . S
C228 C226 1.391 . S
C228 C229 1.400 . S
C229 C223 1.491 . S
C229 C228 1.400 . S
C229 C230 1.398 . S
C230 H218 0.950 1_545 S
C230 C229 1.398 . S
C230 C231 1.391 . S
C231 H219 0.950 1_545 S
C231 C227 1.393 . S
C231 C230 1.391 . S
H232 C240 0.950 . S
H233 C245 0.950 . S
H234 C242 0.950 . S
H235 C244 0.950 . S
H236 C246 0.950 . S
H237 C248 0.950 . S
H238 C250 0.950 . S
H239 C251 0.950 . S
C240 H232 0.950 . S
C240 C241 1.386 1_655 S
C240 C242 1.391 . S
C241 C240 1.386 1_455 S
C241 C245 1.393 . S
C242 H234 0.950 . S
C242 C240 1.391 . S
C242 C243 1.400 1_655 S
C243 C242 1.400 1_455 S
C243 C244 1.398 . S
C243 C249 1.491 1_455 S
C244 H235 0.950 . S
C244 C243 1.398 . S
C244 C245 1.391 . S
C245 H233 0.950 . S
C245 C241 1.393 . S
C245 C244 1.391 . S
C246 H236 0.950 . S
C246 C247 1.386 1_455 S
C246 C248 1.391 . S
C247 C246 1.386 1_655 S
C247 C251 1.393 . S
C248 H237 0.950 . S
C248 C246 1.391 . S
C248 C249 1.400 1_455 S
C249 C243 1.491 1_655 S
C249 C248 1.400 1_655 S
C249 C250 1.398 . S
C250 H238 0.950 . S
C250 C249 1.398 . S
C250 C251 1.391 . S
C251 H239 0.950 . S
C251 C247 1.393 . S
C251 C250 1.391 . S
C101 N12 1.471 . S
C107 N2 1.469 . S
C121 C30 1.486 . S
C127 C39 1.477 . S
C141 N58 1.460 . S
C147 N48 1.453 . S
C161 C85 1.482 . S
C167 C76 1.487 . S
C181 C62 1.555 . S
C187 C7 1.553 . S
C201 N81 1.508 . S
C207 N35 1.486 . S
C221 N71 1.440 . S
C227 C16 1.490 . S
C241 N25 1.573 . S
C247 C53 1.588 . S
