# Generated by pormake.
# Topology pcu, (6)-cn, num edge types: 1
# Building blocks:
#     Node 0, Type 0, BuildingBlock: BETFAJ_clean_sbu_0, # of connection points: 6
#     Edge 1, Type (0, 0), BuildingBlock: XUDNAN_clean_linker_2, # of connection points: 2
#     Edge 2, Type (0, 0), BuildingBlock: XUDNAN_clean_linker_2, # of connection points: 2
#     Edge 3, Type (0, 0), BuildingBlock: XUDNAN_clean_linker_2, # of connection points: 2
# Relax obj value: 0.000
# Max RMSD: 0.000
# Mean RMSD: 0.000
data_MOF--net-pcu--node1-BETFAJ_clean_sbu_0--edge1-XUDNAN_clean_linker_2
_symmetry_space_group_name_H-M    P1
_symmetry_Int_Tables_number       1
_symmetry_cell_setting            triclinic
loop_
_symmetry_equiv_pos_as_xyz
'x, y, z'
_cell_length_a     25.336194
_cell_length_b     15.425536
_cell_length_c     14.381961
_cell_angle_alpha  86.26229
_cell_angle_beta   97.617813
_cell_angle_gamma 123.26166
loop_
_atom_site_label
_atom_site_type_symbol
_atom_site_fract_x
_atom_site_fract_y
_atom_site_fract_z
_atom_type_partial_charge
Sm0 Sm 0.95273 0.90258 1.01673 0.0
Sm1 Sm 0.10324 0.03583 0.9986 0.0
C2 C 0.8347 0.82811 0.05083 0.0
C3 C 0.79218 0.8647 0.05669 0.0
C4 C 0.81432 0.96084 0.09756 0.0
C5 C 0.77278 -0.00657 0.10176 0.0
C6 C 0.7084 0.93083 0.06468 0.0
C7 C 0.68678 0.83515 0.02299 0.0
C8 C 0.72823 0.80251 0.0192 0.0
C9 C 0.99026 0.93531 0.83928 0.0
C10 C 0.03658 0.16 0.02681 0.0
C11 C 0.21211 0.11079 0.93024 0.0
C12 C 0.26703 0.09924 0.95107 0.0
C13 C 0.26266 0.00856 0.92598 0.0
C14 C 0.31431 -0.00221 0.94841 0.0
C15 C 0.37149 0.0772 0.99669 0.0
C16 C 0.37609 0.16836 0.02042 0.0
C17 C 0.32463 0.17939 0.99754 0.0
C18 C 0.08358 0.00021 0.18566 0.0
C19 C 1.02385 0.7817 0.03353 0.0
O20 O 0.88225 0.85773 0.11708 0.0
O21 O 0.84995 0.8284 0.96746 0.0
O22 O 1.01525 0.00018 0.90556 0.0
O23 O 0.94191 0.84795 0.86424 0.0
O24 O 0.98478 0.07006 0.04368 0.0
O25 O 0.08604 0.16819 0.99544 0.0
O26 O 0.15805 0.03019 0.89365 0.0
O27 O 0.20487 0.16043 0.99306 0.0
O28 O 0.04218 0.96755 0.11516 0.0
O29 O 0.13949 0.05332 0.1568 0.0
O30 O 0.07147 0.86334 0.99549 0.0
O31 O 0.97555 0.78136 0.05907 0.0
H32 H 0.86363 0.01077 0.12612 0.0
H33 H 0.79125 0.06814 0.13328 0.0
H34 H 0.63746 0.78446 0.99472 0.0
H35 H 0.7102 0.7282 0.98711 0.0
H36 H 0.21914 0.9452 0.88986 0.0
H37 H 0.30895 0.92625 0.92974 0.0
H38 H 0.41972 0.23169 0.05634 0.0
H39 H 0.3298 0.25059 1.01693 0.0
H40 H 0.98576 0.85545 0.28847 0.0
H41 H 0.16133 0.15978 0.30377 0.0
H42 H 0.15402 0.17569 0.46956 0.0
H43 H 0.9064 0.91022 0.45 0.0
H44 H 0.87148 0.78508 0.50507 0.0
H45 H 0.88728 0.79878 0.38461 0.0
H46 H 0.95431 0.71848 0.4248 0.0
H47 H 0.93903 0.70509 0.54545 0.0
H48 H 1.01967 0.77561 0.51712 0.0
H49 H 0.13094 0.16084 0.63171 0.0
H50 H 0.09349 0.11349 0.78746 0.0
H51 H 0.93504 0.81436 0.67738 0.0
C52 C 1.02195 0.92563 0.32688 0.0
C53 C 0.07401 0.00669 0.28338 0.0
C54 C 0.12118 0.09673 0.33584 0.0
C55 C 0.11742 0.10673 0.43007 0.0
C56 C 0.0665 0.02541 0.47172 0.0
C57 C 1.01958 0.93628 0.42262 0.0
C58 C 0.97193 0.85916 0.4873 0.0
C59 C 0.90532 0.83703 0.4548 0.0
C60 C 0.97121 0.75863 0.49405 0.0
C61 C 0.99971 0.91933 0.57971 0.0
C62 C 0.05405 0.01527 0.56819 0.0
C63 C 0.08853 0.08585 0.64196 0.0
C64 C 0.06694 0.05806 0.7303 0.0
C65 C 1.01174 0.96003 0.74479 0.0
C66 C 0.97766 0.88959 0.66839 0.0
H67 H 0.41765 -0.00473 0.89107 0.0
H68 H 0.44795 0.12976 0.16418 0.0
H69 H 0.53818 0.10993 0.21005 0.0
H70 H 0.45276 0.80445 0.97097 0.0
H71 H 0.4926 0.81732 0.87108 0.0
H72 H 0.43092 0.84341 0.85928 0.0
H73 H 0.50854 0.02655 0.79627 0.0
H74 H 0.57052 0.00109 0.80809 0.0
H75 H 0.58336 0.11292 0.86499 0.0
H76 H 0.62477 0.07419 0.22696 0.0
H77 H 0.70046 0.02318 0.21422 0.0
H78 H 0.61434 0.91236 0.93002 0.0
C79 C 0.44301 0.01999 0.96073 0.0
C80 C 0.42576 0.06453 0.02388 0.0
C81 C 0.46076 0.09689 0.11403 0.0
C82 C 0.51193 0.08546 0.14094 0.0
C83 C 0.5278 0.04173 0.07692 0.0
C84 C 0.49443 0.00951 0.98866 0.0
C85 C 0.52139 0.96515 0.93314 0.0
C86 C 0.47143 0.85079 0.90713 0.0
C87 C 0.5475 0.03033 0.84544 0.0
C88 C 0.5746 0.97625 1.0044 0.0
C89 C 0.57768 0.0211 0.08669 0.0
C90 C 0.62295 0.03937 0.1627 0.0
C91 C 0.66604 0.01069 0.15458 0.0
C92 C 0.6636 0.96388 0.07113 0.0
C93 C 0.61717 0.94695 0.99513 0.0
H94 H 0.08868 0.71925 0.94686 0.0
H95 H 0.9617 0.63166 0.16004 0.0
H96 H 0.96068 0.47209 0.18956 0.0
H97 H 1.01395 0.46726 0.85156 0.0
H98 H 0.08612 0.47987 0.82878 0.0
H99 H 0.08249 0.59313 0.82968 0.0
H100 H 0.1805 0.67867 0.95555 0.0
H101 H 0.18441 0.56546 0.95512 0.0
H102 H 0.17909 0.61134 0.06341 0.0
H103 H 0.96718 0.32025 0.19111 0.0
H104 H 0.97682 0.17546 0.16012 0.0
H105 H 0.09833 0.3538 0.94362 0.0
C106 C 0.06138 0.66695 1.00052 0.0
C107 C 1.02523 0.68772 0.0512 0.0
C108 C 0.98937 0.61699 0.11994 0.0
C109 C 0.98886 0.52651 0.13778 0.0
C110 C 1.02435 0.5077 0.08621 0.0
C111 C 0.05979 0.5752 1.01871 0.0
C112 C 0.08993 0.53171 0.96918 0.0
C113 C 0.06671 0.51712 0.86355 0.0
C114 C 0.16282 0.60093 0.9869 0.0
C115 C 0.06453 0.42825 1.01821 0.0
C116 C 1.02755 0.41741 0.08622 0.0
C117 C 0.99627 0.32777 0.13852 0.0
C118 C 1.00177 0.24573 0.11983 0.0
C119 C 0.03796 0.25323 0.04899 0.0
C120 C 0.07092 0.34655 0.99873 0.0
loop_
_geom_bond_atom_site_label_1
_geom_bond_atom_site_label_2
_geom_bond_distance
_geom_bond_site_symmetry_2
_ccdc_geom_bond_type
Sm0 C2 2.846 . S
Sm0 O20 2.543 1_556 S
Sm0 O21 2.450 . S
Sm0 O22 2.681 1_665 S
Sm0 O23 2.464 . S
Sm0 O24 2.396 1_565 S
Sm0 O28 2.386 1_566 S
Sm0 O31 2.408 . S
Sm1 C11 2.846 . S
Sm1 O22 2.386 1_554 S
Sm1 O25 2.408 . S
Sm1 O26 2.543 1_554 S
Sm1 O27 2.450 . S
Sm1 O28 2.681 1_455 S
Sm1 O29 2.464 . S
Sm1 O30 2.396 1_545 S
C2 Sm0 2.846 . S
C2 C3 1.506 . S
C2 O20 1.261 1_556 S
C2 O21 1.242 . S
C3 C2 1.506 . S
C3 C4 1.358 1_566 S
C3 C8 1.382 . S
C4 C3 1.358 1_544 S
C4 C5 1.385 . S
C4 H32 0.930 . S
C5 C4 1.385 . S
C5 C6 1.395 1_544 S
C5 H33 0.929 . S
C6 C5 1.395 1_566 S
C6 C7 1.335 . S
C7 C6 1.335 . S
C7 C8 1.398 . S
C7 H34 0.930 . S
C8 C3 1.382 . S
C8 C7 1.398 . S
C8 H35 0.929 . S
C9 O22 1.271 1_665 S
C9 O23 1.251 . S
C10 O24 1.252 1_455 S
C10 O25 1.272 1_556 S
C11 Sm1 2.846 . S
C11 C12 1.506 . S
C11 O26 1.261 1_554 S
C11 O27 1.242 . S
C12 C11 1.506 . S
C12 C13 1.358 1_544 S
C12 C17 1.382 . S
C13 C12 1.358 1_566 S
C13 C14 1.385 . S
C13 H36 0.930 . S
C14 C13 1.385 . S
C14 C15 1.395 1_566 S
C14 H37 0.929 . S
C15 C14 1.395 1_544 S
C15 C16 1.335 . S
C16 C15 1.335 . S
C16 C17 1.398 . S
C16 H38 0.930 . S
C17 C12 1.382 . S
C17 C16 1.398 . S
C17 H39 0.929 . S
C18 O28 1.271 1_455 S
C18 O29 1.251 . S
C19 O30 1.252 1_655 S
C19 O31 1.272 1_554 S
O20 Sm0 2.543 1_554 S
O20 C2 1.261 1_554 S
O21 Sm0 2.450 . S
O21 C2 1.242 . S
O22 Sm0 2.681 1_445 S
O22 Sm1 2.386 1_556 S
O22 C9 1.271 1_445 S
O23 Sm0 2.464 . S
O23 C9 1.251 . S
O24 Sm0 2.396 1_545 S
O24 C10 1.252 1_655 S
O25 Sm1 2.408 . S
O25 C10 1.272 1_554 S
O26 Sm1 2.543 1_556 S
O26 C11 1.261 1_556 S
O27 Sm1 2.450 . S
O27 C11 1.242 . S
O28 Sm0 2.386 1_544 S
O28 Sm1 2.681 1_655 S
O28 C18 1.271 1_655 S
O29 Sm1 2.464 . S
O29 C18 1.251 . S
O30 Sm1 2.396 1_565 S
O30 C19 1.252 1_455 S
O31 Sm0 2.408 . S
O31 C19 1.272 1_556 S
H32 C4 0.930 . S
H33 C5 0.929 . S
H34 C7 0.930 . S
H35 C8 0.929 . S
H36 C13 0.930 . S
H37 C14 0.929 . S
H38 C16 0.930 . S
H39 C17 0.929 . S
H40 C52 0.930 . S
H41 C54 0.930 . S
H42 C55 0.930 . S
H43 C59 0.959 . S
H44 C59 0.959 . S
H45 C59 0.961 . S
H46 C60 0.960 . S
H47 C60 0.961 . S
H48 C60 0.959 1_455 S
H49 C63 0.929 . S
H50 C64 0.931 . S
H51 C66 0.930 . S
C52 H40 0.930 . S
C52 C53 1.399 1_665 S
C52 C57 1.399 . S
C53 C52 1.399 1_445 S
C53 C54 1.376 . S
C54 H41 0.930 . S
C54 C53 1.376 . S
C54 C55 1.388 . S
C55 H42 0.930 . S
C55 C54 1.388 . S
C55 C56 1.390 . S
C56 C55 1.390 . S
C56 C57 1.394 1_445 S
C56 C62 1.465 . S
C57 C52 1.399 . S
C57 C56 1.394 1_665 S
C57 C58 1.516 . S
C58 C57 1.516 . S
C58 C59 1.502 . S
C58 C60 1.561 . S
C58 C61 1.526 . S
C59 H43 0.959 . S
C59 H44 0.959 . S
C59 H45 0.961 . S
C59 C58 1.502 . S
C60 H46 0.960 . S
C60 H47 0.961 . S
C60 H48 0.959 1_655 S
C60 C58 1.561 . S
C61 C58 1.526 . S
C61 C62 1.396 1_665 S
C61 C66 1.390 . S
C62 C56 1.465 . S
C62 C61 1.396 1_445 S
C62 C63 1.399 . S
C63 H49 0.929 . S
C63 C62 1.399 . S
C63 C64 1.385 . S
C64 H50 0.931 . S
C64 C63 1.385 . S
C64 C65 1.389 . S
C65 C64 1.389 . S
C65 C66 1.387 1_445 S
C66 H51 0.930 . S
C66 C61 1.390 . S
C66 C65 1.387 1_665 S
H67 C79 0.930 . S
H68 C81 0.930 . S
H69 C82 0.930 . S
H70 C86 0.959 . S
H71 C86 0.959 . S
H72 C86 0.961 . S
H73 C87 0.960 . S
H74 C87 0.961 . S
H75 C87 0.959 . S
H76 C90 0.929 . S
H77 C91 0.931 . S
H78 C93 0.930 . S
C79 H67 0.930 . S
C79 C80 1.399 1_566 S
C79 C84 1.402 1_565 S
C80 C79 1.399 1_544 S
C80 C81 1.376 . S
C81 H68 0.930 . S
C81 C80 1.376 . S
C81 C82 1.388 . S
C82 H69 0.930 . S
C82 C81 1.388 . S
C82 C83 1.390 . S
C83 C82 1.390 . S
C83 C84 1.394 1_554 S
C83 C89 1.465 . S
C84 C79 1.402 1_545 S
C84 C83 1.394 1_556 S
C84 C85 1.513 1_545 S
C85 C84 1.513 1_565 S
C85 C86 1.502 . S
C85 C87 1.561 1_565 S
C85 C88 1.527 1_565 S
C86 H70 0.959 . S
C86 H71 0.959 . S
C86 H72 0.961 . S
C86 C85 1.502 . S
C87 H73 0.960 . S
C87 H74 0.961 . S
C87 H75 0.959 . S
C87 C85 1.561 1_545 S
C88 C85 1.527 1_545 S
C88 C89 1.397 1_556 S
C88 C93 1.387 1_545 S
C89 C83 1.465 . S
C89 C88 1.397 1_554 S
C89 C90 1.399 . S
C90 H76 0.929 . S
C90 C89 1.399 . S
C90 C91 1.385 . S
C91 H77 0.931 . S
C91 C90 1.385 . S
C91 C92 1.389 . S
C92 C91 1.389 . S
C92 C93 1.387 1_544 S
C93 H78 0.930 . S
C93 C88 1.387 1_565 S
C93 C92 1.387 1_566 S
H94 C106 0.930 . S
H95 C108 0.930 . S
H96 C109 0.930 . S
H97 C113 0.959 . S
H98 C113 0.959 . S
H99 C113 0.961 . S
H100 C114 0.960 . S
H101 C114 0.961 . S
H102 C114 0.959 . S
H103 C117 0.929 . S
H104 C118 0.931 . S
H105 C120 0.930 . S
C106 H94 0.930 . S
C106 C107 1.399 1_456 S
C106 C111 1.399 . S
C107 C106 1.399 1_654 S
C107 C108 1.376 . S
C108 H95 0.930 . S
C108 C107 1.376 . S
C108 C109 1.388 . S
C109 H96 0.930 . S
C109 C108 1.388 . S
C109 C110 1.390 . S
C110 C109 1.390 . S
C110 C111 1.394 1_654 S
C110 C116 1.465 . S
C111 C106 1.399 . S
C111 C110 1.394 1_456 S
C111 C112 1.516 . S
C112 C111 1.516 . S
C112 C113 1.502 . S
C112 C114 1.561 1_556 S
C112 C115 1.526 . S
C113 H97 0.959 . S
C113 H98 0.959 . S
C113 H99 0.961 . S
C113 C112 1.502 . S
C114 H100 0.960 . S
C114 H101 0.961 . S
C114 H102 0.959 . S
C114 C112 1.561 1_554 S
C115 C112 1.526 . S
C115 C116 1.396 1_456 S
C115 C120 1.390 . S
C116 C110 1.465 . S
C116 C115 1.396 1_654 S
C116 C117 1.399 . S
C117 H103 0.929 . S
C117 C116 1.399 . S
C117 C118 1.385 . S
C118 H104 0.931 . S
C118 C117 1.385 . S
C118 C119 1.389 . S
C119 C118 1.389 . S
C119 C120 1.387 1_654 S
C120 H105 0.930 . S
C120 C115 1.390 . S
C120 C119 1.387 1_456 S
C53 C18 1.415 . S
C65 C9 1.471 1_445 S
C80 C15 1.487 . S
C92 C6 1.496 1_544 S
C107 C19 1.467 . S
C119 C10 1.495 1_654 S
