# Generated by pormake.
# Topology wji, (4)-cn, num edge types: 1
# Building blocks:
#     Node 0, Type 0, BuildingBlock: NAHDIM_clean_sbu_0, # of connection points: 4
#     Node 1, Type 0, BuildingBlock: NAHDIM_clean_sbu_0, # of connection points: 4
#     Node 2, Type 0, BuildingBlock: NAHDIM_clean_sbu_0, # of connection points: 4
#     Node 3, Type 0, BuildingBlock: NAHDIM_clean_sbu_0, # of connection points: 4
#     Node 4, Type 0, BuildingBlock: NAHDIM_clean_sbu_0, # of connection points: 4
#     Node 5, Type 0, BuildingBlock: NAHDIM_clean_sbu_0, # of connection points: 4
#     Node 6, Type 0, BuildingBlock: NAHDIM_clean_sbu_0, # of connection points: 4
#     Node 7, Type 0, BuildingBlock: NAHDIM_clean_sbu_0, # of connection points: 4
#     Node 8, Type 0, BuildingBlock: NAHDIM_clean_sbu_0, # of connection points: 4
#     Node 9, Type 0, BuildingBlock: NAHDIM_clean_sbu_0, # of connection points: 4
#     Node 10, Type 0, BuildingBlock: NAHDIM_clean_sbu_0, # of connection points: 4
#     Node 11, Type 0, BuildingBlock: NAHDIM_clean_sbu_0, # of connection points: 4
#     Edge 12, Type (0, 0), BuildingBlock: EYOCIG_clean_linker_4, # of connection points: 2
#     Edge 13, Type (0, 0), BuildingBlock: EYOCIG_clean_linker_4, # of connection points: 2
#     Edge 14, Type (0, 0), BuildingBlock: EYOCIG_clean_linker_4, # of connection points: 2
#     Edge 15, Type (0, 0), BuildingBlock: EYOCIG_clean_linker_4, # of connection points: 2
#     Edge 16, Type (0, 0), BuildingBlock: EYOCIG_clean_linker_4, # of connection points: 2
#     Edge 17, Type (0, 0), BuildingBlock: EYOCIG_clean_linker_4, # of connection points: 2
#     Edge 18, Type (0, 0), BuildingBlock: EYOCIG_clean_linker_4, # of connection points: 2
#     Edge 19, Type (0, 0), BuildingBlock: EYOCIG_clean_linker_4, # of connection points: 2
#     Edge 20, Type (0, 0), BuildingBlock: EYOCIG_clean_linker_4, # of connection points: 2
#     Edge 21, Type (0, 0), BuildingBlock: EYOCIG_clean_linker_4, # of connection points: 2
#     Edge 22, Type (0, 0), BuildingBlock: EYOCIG_clean_linker_4, # of connection points: 2
#     Edge 23, Type (0, 0), BuildingBlock: EYOCIG_clean_linker_4, # of connection points: 2
#     Edge 24, Type (0, 0), BuildingBlock: EYOCIG_clean_linker_4, # of connection points: 2
#     Edge 25, Type (0, 0), BuildingBlock: EYOCIG_clean_linker_4, # of connection points: 2
#     Edge 26, Type (0, 0), BuildingBlock: EYOCIG_clean_linker_4, # of connection points: 2
#     Edge 27, Type (0, 0), BuildingBlock: EYOCIG_clean_linker_4, # of connection points: 2
#     Edge 28, Type (0, 0), BuildingBlock: EYOCIG_clean_linker_4, # of connection points: 2
#     Edge 29, Type (0, 0), BuildingBlock: EYOCIG_clean_linker_4, # of connection points: 2
#     Edge 30, Type (0, 0), BuildingBlock: EYOCIG_clean_linker_4, # of connection points: 2
#     Edge 31, Type (0, 0), BuildingBlock: EYOCIG_clean_linker_4, # of connection points: 2
#     Edge 32, Type (0, 0), BuildingBlock: EYOCIG_clean_linker_4, # of connection points: 2
#     Edge 33, Type (0, 0), BuildingBlock: EYOCIG_clean_linker_4, # of connection points: 2
#     Edge 34, Type (0, 0), BuildingBlock: EYOCIG_clean_linker_4, # of connection points: 2
#     Edge 35, Type (0, 0), BuildingBlock: EYOCIG_clean_linker_4, # of connection points: 2
# Relax obj value: 0.150
# Max RMSD: 0.091
# Mean RMSD: 0.091
data_MOF--net-wji--node1-NAHDIM_clean_sbu_0--edge1-EYOCIG_clean_linker_4
_symmetry_space_group_name_H-M    P1
_symmetry_Int_Tables_number       1
_symmetry_cell_setting            triclinic
loop_
_symmetry_equiv_pos_as_xyz
'x, y, z'
_cell_length_a     46.325928
_cell_length_b     46.308994
_cell_length_c     18.455833
_cell_angle_alpha  89.990454
_cell_angle_beta   90.010246
_cell_angle_gamma 119.96402
loop_
_atom_site_label
_atom_site_type_symbol
_atom_site_fract_x
_atom_site_fract_y
_atom_site_fract_z
_atom_type_partial_charge
C0 C 0.4156 0.27297 0.50778 0.0
O1 O 0.4264 0.29921 0.54978 0.0
O2 O 0.45102 0.35312 0.40101 0.0
Zn3 Zn 0.4042 0.3152 0.41708 0.0
O4 O 0.38294 0.32641 0.49885 0.0
C5 C 0.37443 0.33483 0.31136 0.0
O6 O 0.38694 0.36058 0.35518 0.0
O7 O 0.40476 0.27339 0.44477 0.0
C8 C 0.35297 0.30629 0.51637 0.0
O9 O 0.33556 0.27842 0.48025 0.0
C10 C 0.46677 0.375 0.44919 0.0
O11 O 0.4531 0.37293 0.51261 0.0
O12 O 0.37803 0.31 0.32595 0.0
C13 C 0.1351 0.41889 0.67404 0.0
O14 O 0.11972 0.4299 0.71564 0.0
O15 O 0.0903 0.45394 0.56629 0.0
Zn16 Zn 0.08143 0.40715 0.58322 0.0
O17 O 0.04902 0.38617 0.66517 0.0
C18 C 0.032 0.37717 0.4778 0.0
O19 O 0.01884 0.38982 0.52146 0.0
O20 O 0.1238 0.40778 0.61121 0.0
C21 C 0.03913 0.35623 0.68315 0.0
O22 O 0.04954 0.33866 0.6474 0.0
C23 C 0.08393 0.46974 0.61389 0.0
O24 O 0.07213 0.45618 0.6773 0.0
O25 O 0.06039 0.38072 0.4924 0.0
C26 C 0.70862 0.13934 0.84064 0.0
O27 O 0.68226 0.12411 0.88232 0.0
O28 O 0.62869 0.09426 0.73381 0.0
Zn29 Zn 0.66663 0.0854 0.75053 0.0
O30 O 0.65538 0.05314 0.83274 0.0
C31 C 0.64705 0.03575 0.64552 0.0
O32 O 0.62135 0.02261 0.68944 0.0
O33 O 0.70838 0.12784 0.778 0.0
C34 C 0.67562 0.04354 0.85115 0.0
O35 O 0.70367 0.05414 0.81567 0.0
C36 C 0.60661 0.08795 0.78158 0.0
O37 O 0.60848 0.07622 0.84502 0.0
O38 O 0.67185 0.0642 0.65979 0.0
C39 C 0.56218 0.71261 0.00772 0.0
O40 O 0.55115 0.6863 0.04959 0.0
O41 O 0.52715 0.63254 0.90121 0.0
Zn42 Zn 0.57394 0.67045 0.91772 0.0
O43 O 0.595 0.65927 -3e-05 0.0
C44 C 0.60403 0.65082 0.81279 0.0
O45 O 0.59154 0.62514 0.85682 0.0
O46 O 0.57331 0.71227 0.945 0.0
C47 C 0.62476 0.67964 0.01849 0.0
O48 O 0.64207 0.70775 0.9831 0.0
C49 C 0.51131 0.61059 0.9492 0.0
O50 O 0.52486 0.61258 0.01276 0.0
O51 O 0.60031 0.67561 0.82696 0.0
C52 C 0.84282 0.56673 0.17409 0.0
O53 O 0.85839 0.55607 0.21608 0.0
O54 O 0.88752 0.53125 0.06765 0.0
Zn55 Zn 0.89632 0.5781 0.08315 0.0
O56 O 0.92888 0.59961 0.16461 0.0
C57 C 0.94558 0.60773 0.97727 0.0
O58 O 0.95894 0.59546 0.02144 0.0
O59 O 0.85394 0.57748 0.11096 0.0
C60 C 0.93832 0.62946 0.18251 0.0
O61 O 0.92732 0.6466 0.14703 0.0
C62 C 0.89388 0.51569 0.11587 0.0
O63 O 0.90569 0.52957 0.17904 0.0
O64 O 0.91712 0.60405 0.99169 0.0
C65 C 0.26862 0.84621 0.34072 0.0
O66 O 0.29481 0.86161 0.38285 0.0
O67 O 0.34884 0.89117 0.23453 0.0
Zn68 Zn 0.31084 0.9 0.25045 0.0
O69 O 0.32189 0.93236 0.33238 0.0
C70 C 0.33053 0.94953 0.14505 0.0
O71 O 0.35617 0.96276 0.18918 0.0
O72 O 0.26906 0.85756 0.27779 0.0
C73 C 0.30152 0.94181 0.35056 0.0
O74 O 0.27344 0.93098 0.31506 0.0
C75 C 0.37068 0.89729 0.28278 0.0
O76 O 0.36853 0.90882 0.34623 0.0
O77 O 0.30574 0.92107 0.15934 0.0
C78 C 0.7094 0.56671 0.31237 0.0
O79 O 0.6831 0.55586 0.27057 0.0
O80 O 0.62942 0.53125 0.41958 0.0
Zn81 Zn 0.66729 0.57811 0.40336 0.0
O82 O 0.65591 0.5993 0.32171 0.0
C83 C 0.64758 0.60761 0.50939 0.0
O84 O 0.62175 0.5949 0.46579 0.0
O85 O 0.70908 0.57759 0.37538 0.0
C86 C 0.67556 0.62949 0.30494 0.0
O87 O 0.70314 0.64725 0.34178 0.0
C88 C 0.60743 0.51555 0.37158 0.0
O89 O 0.60938 0.52926 0.30825 0.0
O90 O 0.67252 0.60427 0.49454 0.0
C91 C 0.13502 0.71249 0.47716 0.0
O92 O 0.11948 0.68635 0.43493 0.0
O93 O 0.09007 0.63218 0.58342 0.0
Zn94 Zn 0.08136 0.67028 0.56771 0.0
O95 O 0.04895 0.65935 0.48597 0.0
C96 C 0.03188 0.65072 0.67315 0.0
O97 O 0.01851 0.62515 0.62887 0.0
O98 O 0.12381 0.71201 0.54026 0.0
C99 C 0.03997 0.68006 0.46738 0.0
O100 O 0.05134 0.70836 0.50233 0.0
C101 C 0.0839 0.61034 0.53511 0.0
O102 O 0.07237 0.61255 0.47169 0.0
O103 O 0.06041 0.67541 0.65896 0.0
C104 C 0.41515 0.13909 0.6449 0.0
O105 O 0.42593 0.12362 0.60294 0.0
O106 O 0.45031 0.09412 0.7513 0.0
Zn107 Zn 0.40352 0.08536 0.73541 0.0
O108 O 0.38215 0.05291 0.65366 0.0
C109 C 0.37381 0.03601 0.84115 0.0
O110 O 0.38623 0.02272 0.79718 0.0
O111 O 0.40421 0.1278 0.70783 0.0
C112 C 0.35216 0.04303 0.6363 0.0
O113 O 0.33475 0.05348 0.67254 0.0
C114 C 0.46598 0.08787 0.70313 0.0
O115 O 0.45224 0.07621 0.63979 0.0
O116 O 0.37743 0.06444 0.82663 0.0
C117 C 0.26866 0.41904 0.81197 0.0
O118 O 0.29495 0.43001 0.77008 0.0
O119 O 0.34878 0.45437 0.91859 0.0
Zn120 Zn 0.3109 0.40752 0.90234 0.0
O121 O 0.32216 0.3864 0.82038 0.0
C122 C 0.33072 0.37781 0.00774 0.0
O123 O 0.35641 0.39039 0.96378 0.0
O124 O 0.26905 0.40804 0.87483 0.0
C125 C 0.30206 0.35647 0.80246 0.0
O126 O 0.27413 0.33897 0.83829 0.0
C127 C 0.37073 0.47013 0.87058 0.0
O128 O 0.36875 0.45648 0.80716 0.0
O129 O 0.30582 0.3813 -0.00666 0.0
C130 C 0.84209 0.2728 0.9784 0.0
O131 O 0.85747 0.29918 0.93677 0.0
O132 O 0.88709 0.35267 0.08582 0.0
Zn133 Zn 0.89585 0.31467 0.0691 0.0
O134 O 0.92824 0.32596 0.98716 0.0
C135 C 0.94529 0.33398 0.17451 0.0
O136 O 0.95854 0.35976 0.13077 0.0
O137 O 0.85343 0.27299 0.0412 0.0
C138 C 0.93809 0.30586 0.9693 0.0
O139 O 0.92767 0.27791 0.00517 0.0
C140 C 0.89354 0.37483 0.0381 0.0
O141 O 0.90534 0.37297 0.97476 0.0
O142 O 0.91685 0.30923 0.15997 0.0
C143 C 0.56221 0.84619 0.1453 0.0
O144 O 0.55133 0.86166 0.10359 0.0
O145 O 0.52701 0.89091 0.25274 0.0
Zn146 Zn 0.57381 0.89978 0.23629 0.0
O147 O 0.59497 0.9323 0.15457 0.0
C148 C 0.60356 0.94902 0.34216 0.0
O149 O 0.59093 0.96223 0.29857 0.0
O150 O 0.57319 0.85741 0.20825 0.0
C151 C 0.62506 0.94254 0.13744 0.0
O152 O 0.64269 0.93243 0.17394 0.0
C153 C 0.51128 0.89724 0.20486 0.0
O154 O 0.52494 0.909 0.1415 0.0
O155 O 0.60006 0.92066 0.32736 0.0
C156 C 0.33726 0.35096 0.12808 0.0
C157 C 0.33246 0.36278 0.07438 0.0
C158 C 0.34736 0.34103 0.19103 0.0
C159 C 0.35929 0.33639 0.24474 0.0
C160 C -0.00134 0.35007 0.35759 0.0
C161 C 0.01529 0.362 0.41123 0.0
C162 C 0.97861 0.3401 0.29472 0.0
C163 C 0.96199 0.33546 0.24108 0.0
C164 C 0.63064 0.98226 0.46249 0.0
C165 C 0.61872 0.96568 0.40879 0.0
C166 C 0.64068 0.0023 0.52538 0.0
C167 C 0.6454 0.01896 0.57899 0.0
C168 C 0.64123 0.63453 0.6298 0.0
C169 C 0.64598 0.62269 0.57606 0.0
C170 C 0.63115 0.64449 0.6927 0.0
C171 C 0.61919 0.64917 0.7463 0.0
C172 C -0.00134 0.64438 0.79362 0.0
C173 C 0.01521 0.64906 0.73986 0.0
C174 C 0.97872 0.63446 0.85664 0.0
C175 C 0.96219 0.62267 0.91046 0.0
C176 C 0.34694 0.0028 0.96163 0.0
C177 C 0.35879 0.01935 0.90786 0.0
C178 C 0.33695 0.98283 0.02463 0.0
C179 C 0.33223 0.96625 0.07838 0.0
C180 C 0.55463 0.45751 0.40241 0.0
C181 C 0.57883 0.48402 0.38886 0.0
C182 C 0.52485 0.42777 0.41857 0.0
C183 C 0.49832 0.40359 0.43207 0.0
C184 C 0.08911 0.52771 0.58216 0.0
C185 C 0.08683 0.50123 0.5961 0.0
C186 C 0.08908 0.55744 0.56568 0.0
C187 C 0.08677 0.58166 0.55208 0.0
C188 C 0.52404 0.09309 0.73378 0.0
C189 C 0.49752 0.09078 0.7202 0.0
C190 C 0.5538 0.09313 0.75016 0.0
C191 C 0.57801 0.09085 0.76397 0.0
C192 C 0.45328 0.55786 0.91802 0.0
C193 C 0.47979 0.58203 0.93176 0.0
C194 C 0.42353 0.52814 0.90162 0.0
C195 C 0.39933 0.50164 0.88793 0.0
C196 C 0.88848 0.42772 0.06942 0.0
C197 C 0.89069 0.40346 0.05569 0.0
C198 C 0.88857 0.45753 0.08564 0.0
C199 C 0.89093 0.48409 0.09904 0.0
C200 C 0.42352 0.89205 0.25219 0.0
C201 C 0.39932 0.89437 0.26572 0.0
C202 C 0.45327 0.89203 0.23593 0.0
C203 C 0.47976 0.89432 0.22227 0.0
C204 C 0.31734 0.3318 0.6898 0.0
C205 C 0.30958 0.34227 0.74149 0.0
C206 C 0.328 0.32131 0.62887 0.0
C207 C 0.33863 0.31369 0.57725 0.0
C208 C 0.97804 0.32106 0.8567 0.0
C209 C 0.95981 0.31336 0.90835 0.0
C210 C -0.00082 0.3316 0.79577 0.0
C211 C 0.01741 0.34209 0.74411 0.0
C212 C 0.64985 0.98258 0.02498 0.0
C213 C 0.63931 0.96432 0.07659 0.0
C214 C 0.66043 0.00371 0.96401 0.0
C215 C 0.66812 0.02189 0.91225 0.0
C216 C 0.64953 0.66466 0.13146 0.0
C217 C 0.63897 0.67225 0.07966 0.0
C218 C 0.66018 0.6542 0.19247 0.0
C219 C 0.66797 0.64372 0.2441 0.0
C220 C -0.00013 0.66521 0.35516 0.0
C221 C 0.0182 0.6728 0.40663 0.0
C222 C 0.97857 0.65463 0.29451 0.0
C223 C 0.96019 0.64396 0.24312 0.0
C224 C 0.31654 0.98177 0.4631 0.0
C225 C 0.30889 0.96352 0.41148 0.0
C226 C 0.32714 0.00296 0.52395 0.0
C227 C 0.33776 0.02125 0.57551 0.0
C228 C 0.41493 0.21968 0.56056 0.0
C229 C 0.41489 0.24358 0.5348 0.0
C230 C 0.41482 0.1919 0.59223 0.0
C231 C 0.41463 0.16788 0.61796 0.0
C232 C 0.21543 0.41841 0.75914 0.0
C233 C 0.23928 0.41834 0.78498 0.0
C234 C 0.18772 0.41839 0.72727 0.0
C235 C 0.16378 0.41827 0.70132 0.0
C236 C 0.78947 0.2197 0.92528 0.0
C237 C 0.81341 0.24351 0.95117 0.0
C238 C 0.76177 0.192 0.89346 0.0
C239 C 0.73795 0.16804 0.86766 0.0
C240 C 0.56272 0.79356 0.09215 0.0
C241 C 0.56283 0.8175 0.11805 0.0
C242 C 0.56272 0.76585 0.06036 0.0
C243 C 0.56284 0.74199 0.03462 0.0
C244 C 0.76254 0.56727 0.25917 0.0
C245 C 0.73872 0.56736 0.28515 0.0
C246 C 0.79022 0.56727 0.22721 0.0
C247 C 0.81414 0.56737 0.20125 0.0
C248 C 0.18771 0.76571 0.42466 0.0
C249 C 0.16374 0.74184 0.45031 0.0
C250 C 0.21543 0.79346 0.3931 0.0
C251 C 0.23928 0.81746 0.36749 0.0
loop_
_geom_bond_atom_site_label_1
_geom_bond_atom_site_label_2
_geom_bond_distance
_geom_bond_site_symmetry_2
_ccdc_geom_bond_type
C0 O1 1.160 . S
C0 O7 1.185 . S
O1 C0 1.160 . S
O2 Zn3 1.899 . S
O2 C10 1.284 . S
Zn3 O2 1.899 . S
Zn3 O4 2.032 . S
Zn3 O7 2.086 . S
Zn3 O12 1.977 . S
O4 Zn3 2.032 . S
O4 C8 1.278 . S
C5 O6 1.203 . S
C5 O12 1.267 . S
O6 C5 1.203 . S
O7 C0 1.185 . S
O7 Zn3 2.086 . S
C8 O4 1.278 . S
C8 O9 1.211 . S
O9 C8 1.211 . S
C10 O2 1.284 . S
C10 O11 1.273 . S
O11 C10 1.273 . S
O12 Zn3 1.977 . S
O12 C5 1.267 . S
C13 O14 1.160 . S
C13 O20 1.185 . S
O14 C13 1.160 . S
O15 Zn16 1.899 . S
O15 C23 1.284 . S
Zn16 O15 1.899 . S
Zn16 O17 2.032 . S
Zn16 O20 2.086 . S
Zn16 O25 1.977 . S
O17 Zn16 2.032 . S
O17 C21 1.278 . S
C18 O19 1.203 . S
C18 O25 1.267 . S
O19 C18 1.203 . S
O20 C13 1.185 . S
O20 Zn16 2.086 . S
C21 O17 1.278 . S
C21 O22 1.211 . S
O22 C21 1.211 . S
C23 O15 1.284 . S
C23 O24 1.273 . S
O24 C23 1.273 . S
O25 Zn16 1.977 . S
O25 C18 1.267 . S
C26 O27 1.160 . S
C26 O33 1.185 . S
O27 C26 1.160 . S
O28 Zn29 1.899 . S
O28 C36 1.284 . S
Zn29 O28 1.899 . S
Zn29 O30 2.032 . S
Zn29 O33 2.086 . S
Zn29 O38 1.977 . S
O30 Zn29 2.032 . S
O30 C34 1.278 . S
C31 O32 1.203 . S
C31 O38 1.267 . S
O32 C31 1.203 . S
O33 C26 1.185 . S
O33 Zn29 2.086 . S
C34 O30 1.278 . S
C34 O35 1.211 . S
O35 C34 1.211 . S
C36 O28 1.284 . S
C36 O37 1.273 . S
O37 C36 1.273 . S
O38 Zn29 1.977 . S
O38 C31 1.267 . S
C39 O40 1.160 1_556 S
C39 O46 1.185 . S
O40 C39 1.160 1_554 S
O41 Zn42 1.899 . S
O41 C49 1.284 . S
Zn42 O41 1.899 . S
Zn42 O43 2.032 1_556 S
Zn42 O46 2.086 . S
Zn42 O51 1.977 . S
O43 Zn42 2.032 1_554 S
O43 C47 1.278 . S
C44 O45 1.203 . S
C44 O51 1.267 . S
O45 C44 1.203 . S
O46 C39 1.185 . S
O46 Zn42 2.086 . S
C47 O43 1.278 . S
C47 O48 1.211 1_554 S
O48 C47 1.211 1_556 S
C49 O41 1.284 . S
C49 O50 1.273 . S
O50 C49 1.273 . S
O51 Zn42 1.977 . S
O51 C44 1.267 . S
C52 O53 1.160 . S
C52 O59 1.185 . S
O53 C52 1.160 . S
O54 Zn55 1.899 . S
O54 C62 1.284 . S
Zn55 O54 1.899 . S
Zn55 O56 2.032 . S
Zn55 O59 2.086 . S
Zn55 O64 1.977 . S
O56 Zn55 2.032 . S
O56 C60 1.278 . S
C57 O58 1.203 . S
C57 O64 1.267 1_556 S
O58 C57 1.203 . S
O59 C52 1.185 . S
O59 Zn55 2.086 . S
C60 O56 1.278 . S
C60 O61 1.211 . S
O61 C60 1.211 . S
C62 O54 1.284 . S
C62 O63 1.273 . S
O63 C62 1.273 . S
O64 Zn55 1.977 . S
O64 C57 1.267 1_554 S
C65 O66 1.160 . S
C65 O72 1.185 . S
O66 C65 1.160 . S
O67 Zn68 1.899 . S
O67 C75 1.284 . S
Zn68 O67 1.899 . S
Zn68 O69 2.032 . S
Zn68 O72 2.086 . S
Zn68 O77 1.977 . S
O69 Zn68 2.032 . S
O69 C73 1.278 . S
C70 O71 1.203 . S
C70 O77 1.267 . S
O71 C70 1.203 . S
O72 C65 1.185 . S
O72 Zn68 2.086 . S
C73 O69 1.278 . S
C73 O74 1.211 . S
O74 C73 1.211 . S
C75 O67 1.284 . S
C75 O76 1.273 . S
O76 C75 1.273 . S
O77 Zn68 1.977 . S
O77 C70 1.267 . S
C78 O79 1.160 . S
C78 O85 1.185 . S
O79 C78 1.160 . S
O80 Zn81 1.899 . S
O80 C88 1.284 . S
Zn81 O80 1.899 . S
Zn81 O82 2.032 . S
Zn81 O85 2.086 . S
Zn81 O90 1.977 . S
O82 Zn81 2.032 . S
O82 C86 1.278 . S
C83 O84 1.203 . S
C83 O90 1.267 . S
O84 C83 1.203 . S
O85 C78 1.185 . S
O85 Zn81 2.086 . S
C86 O82 1.278 . S
C86 O87 1.211 . S
O87 C86 1.211 . S
C88 O80 1.284 . S
C88 O89 1.273 . S
O89 C88 1.273 . S
O90 Zn81 1.977 . S
O90 C83 1.267 . S
C91 O92 1.160 . S
C91 O98 1.185 . S
O92 C91 1.160 . S
O93 Zn94 1.899 . S
O93 C101 1.284 . S
Zn94 O93 1.899 . S
Zn94 O95 2.032 . S
Zn94 O98 2.086 . S
Zn94 O103 1.977 . S
O95 Zn94 2.032 . S
O95 C99 1.278 . S
C96 O97 1.203 . S
C96 O103 1.267 . S
O97 C96 1.203 . S
O98 C91 1.185 . S
O98 Zn94 2.086 . S
C99 O95 1.278 . S
C99 O100 1.211 . S
O100 C99 1.211 . S
C101 O93 1.284 . S
C101 O102 1.273 . S
O102 C101 1.273 . S
O103 Zn94 1.977 . S
O103 C96 1.267 . S
C104 O105 1.160 . S
C104 O111 1.185 . S
O105 C104 1.160 . S
O106 Zn107 1.899 . S
O106 C114 1.284 . S
Zn107 O106 1.899 . S
Zn107 O108 2.032 . S
Zn107 O111 2.086 . S
Zn107 O116 1.977 . S
O108 Zn107 2.032 . S
O108 C112 1.278 . S
C109 O110 1.203 . S
C109 O116 1.267 . S
O110 C109 1.203 . S
O111 C104 1.185 . S
O111 Zn107 2.086 . S
C112 O108 1.278 . S
C112 O113 1.211 . S
O113 C112 1.211 . S
C114 O106 1.284 . S
C114 O115 1.273 . S
O115 C114 1.273 . S
O116 Zn107 1.977 . S
O116 C109 1.267 . S
C117 O118 1.160 . S
C117 O124 1.185 . S
O118 C117 1.160 . S
O119 Zn120 1.899 . S
O119 C127 1.284 . S
Zn120 O119 1.899 . S
Zn120 O121 2.032 . S
Zn120 O124 2.086 . S
Zn120 O129 1.977 . S
O121 Zn120 2.032 . S
O121 C125 1.278 . S
C122 O123 1.203 . S
C122 O129 1.267 1_554 S
O123 C122 1.203 . S
O124 C117 1.185 . S
O124 Zn120 2.086 . S
C125 O121 1.278 . S
C125 O126 1.211 . S
O126 C125 1.211 . S
C127 O119 1.284 . S
C127 O128 1.273 . S
O128 C127 1.273 . S
O129 Zn120 1.977 . S
O129 C122 1.267 1_556 S
C130 O131 1.160 1_554 S
C130 O137 1.185 . S
O131 C130 1.160 1_556 S
O132 Zn133 1.899 . S
O132 C140 1.284 . S
Zn133 O132 1.899 . S
Zn133 O134 2.032 1_554 S
Zn133 O137 2.086 . S
Zn133 O142 1.977 . S
O134 Zn133 2.032 1_556 S
O134 C138 1.278 . S
C135 O136 1.203 . S
C135 O142 1.267 . S
O136 C135 1.203 . S
O137 C130 1.185 . S
O137 Zn133 2.086 . S
C138 O134 1.278 . S
C138 O139 1.211 1_556 S
O139 C138 1.211 1_554 S
C140 O132 1.284 . S
C140 O141 1.273 . S
O141 C140 1.273 . S
O142 Zn133 1.977 . S
O142 C135 1.267 . S
C143 O144 1.160 . S
C143 O150 1.185 . S
O144 C143 1.160 . S
O145 Zn146 1.899 . S
O145 C153 1.284 . S
Zn146 O145 1.899 . S
Zn146 O147 2.032 . S
Zn146 O150 2.086 . S
Zn146 O155 1.977 . S
O147 Zn146 2.032 . S
O147 C151 1.278 . S
C148 O149 1.203 . S
C148 O155 1.267 . S
O149 C148 1.203 . S
O150 C143 1.185 . S
O150 Zn146 2.086 . S
C151 O147 1.278 . S
C151 O152 1.211 . S
O152 C151 1.211 . S
C153 O145 1.284 . S
C153 O154 1.273 . S
O154 C153 1.273 . S
O155 Zn146 1.977 . S
O155 C148 1.267 . S
C156 C157 1.170 . S
C156 C158 1.380 . S
C157 C156 1.170 . S
C158 C156 1.380 . S
C158 C159 1.170 . S
C159 C158 1.170 . S
C160 C161 1.170 . S
C160 C162 1.380 1_455 S
C161 C160 1.170 . S
C162 C160 1.380 1_655 S
C162 C163 1.170 . S
C163 C162 1.170 . S
C164 C165 1.170 . S
C164 C166 1.380 1_565 S
C165 C164 1.170 . S
C166 C164 1.380 1_545 S
C166 C167 1.170 . S
C167 C166 1.170 . S
C168 C169 1.170 . S
C168 C170 1.380 . S
C169 C168 1.170 . S
C170 C168 1.380 . S
C170 C171 1.170 . S
C171 C170 1.170 . S
C172 C173 1.170 . S
C172 C174 1.380 1_455 S
C173 C172 1.170 . S
C174 C172 1.380 1_655 S
C174 C175 1.170 . S
C175 C174 1.170 . S
C176 C177 1.170 . S
C176 C178 1.380 1_546 S
C177 C176 1.170 . S
C178 C176 1.380 1_564 S
C178 C179 1.170 . S
C179 C178 1.170 . S
C180 C181 1.170 . S
C180 C182 1.380 . S
C181 C180 1.170 . S
C182 C180 1.380 . S
C182 C183 1.170 . S
C183 C182 1.170 . S
C184 C185 1.170 . S
C184 C186 1.380 . S
C185 C184 1.170 . S
C186 C184 1.380 . S
C186 C187 1.170 . S
C187 C186 1.170 . S
C188 C189 1.170 . S
C188 C190 1.380 . S
C189 C188 1.170 . S
C190 C188 1.380 . S
C190 C191 1.170 . S
C191 C190 1.170 . S
C192 C193 1.170 . S
C192 C194 1.380 . S
C193 C192 1.170 . S
C194 C192 1.380 . S
C194 C195 1.170 . S
C195 C194 1.170 . S
C196 C197 1.170 . S
C196 C198 1.380 . S
C197 C196 1.170 . S
C198 C196 1.380 . S
C198 C199 1.170 . S
C199 C198 1.170 . S
C200 C201 1.170 . S
C200 C202 1.380 . S
C201 C200 1.170 . S
C202 C200 1.380 . S
C202 C203 1.170 . S
C203 C202 1.170 . S
C204 C205 1.170 . S
C204 C206 1.380 . S
C205 C204 1.170 . S
C206 C204 1.380 . S
C206 C207 1.170 . S
C207 C206 1.170 . S
C208 C209 1.170 . S
C208 C210 1.380 1_655 S
C209 C208 1.170 . S
C210 C208 1.380 1_455 S
C210 C211 1.170 . S
C211 C210 1.170 . S
C212 C213 1.170 . S
C212 C214 1.380 1_564 S
C213 C212 1.170 . S
C214 C212 1.380 1_546 S
C214 C215 1.170 . S
C215 C214 1.170 . S
C216 C217 1.170 . S
C216 C218 1.380 . S
C217 C216 1.170 . S
C218 C216 1.380 . S
C218 C219 1.170 . S
C219 C218 1.170 . S
C220 C221 1.170 . S
C220 C222 1.380 1_455 S
C221 C220 1.170 . S
C222 C220 1.380 1_655 S
C222 C223 1.170 . S
C223 C222 1.170 . S
C224 C225 1.170 . S
C224 C226 1.380 1_565 S
C225 C224 1.170 . S
C226 C224 1.380 1_545 S
C226 C227 1.170 . S
C227 C226 1.170 . S
C228 C229 1.170 . S
C228 C230 1.380 . S
C229 C228 1.170 . S
C230 C228 1.380 . S
C230 C231 1.170 . S
C231 C230 1.170 . S
C232 C233 1.170 . S
C232 C234 1.380 . S
C233 C232 1.170 . S
C234 C232 1.380 . S
C234 C235 1.170 . S
C235 C234 1.170 . S
C236 C237 1.170 . S
C236 C238 1.380 . S
C237 C236 1.170 . S
C238 C236 1.380 . S
C238 C239 1.170 . S
C239 C238 1.170 . S
C240 C241 1.170 . S
C240 C242 1.380 . S
C241 C240 1.170 . S
C242 C240 1.380 . S
C242 C243 1.170 . S
C243 C242 1.170 . S
C244 C245 1.170 . S
C244 C246 1.380 . S
C245 C244 1.170 . S
C246 C244 1.380 . S
C246 C247 1.170 . S
C247 C246 1.170 . S
C248 C249 1.170 . S
C248 C250 1.380 . S
C249 C248 1.170 . S
C250 C248 1.380 . S
C250 C251 1.170 . S
C251 C250 1.170 . S
C157 C122 1.425 . S
C159 C5 1.388 . S
C161 C18 1.400 . S
C163 C135 1.427 . S
C165 C148 1.397 . S
C167 C31 1.377 . S
C169 C83 1.426 . S
C171 C44 1.407 . S
C173 C96 1.377 . S
C175 C57 1.412 . S
C177 C109 1.406 . S
C179 C70 1.427 . S
C181 C88 1.470 . S
C183 C10 1.468 . S
C185 C23 1.448 . S
C187 C101 1.438 . S
C189 C114 1.459 . S
C191 C36 1.468 . S
C193 C49 1.440 . S
C195 C127 1.452 . S
C197 C140 1.436 . S
C199 C62 1.444 . S
C201 C75 1.448 . S
C203 C153 1.460 . S
C205 C125 1.120 . S
C207 C8 1.094 . S
C209 C138 1.107 . S
C211 C21 1.095 . S
C213 C151 1.093 . S
C215 C34 1.111 . S
C217 C47 1.112 . S
C219 C86 1.093 . S
C221 C99 1.119 . S
C223 C60 1.120 . S
C225 C73 1.126 . S
C227 C112 1.109 . S
C229 C0 1.374 . S
C231 C104 1.384 . S
C233 C117 1.419 . S
C235 C13 1.404 . S
C237 C130 1.379 1_556 S
C239 C26 1.375 . S
C241 C143 1.385 . S
C243 C39 1.374 1_554 S
C245 C78 1.413 . S
C247 C52 1.420 . S
C249 C91 1.401 . S
C251 C65 1.419 . S
