# Generated by pormake.
# Topology qtz-x, (6)-cn, num edge types: 1
# Building blocks:
#     Node 0, Type 0, BuildingBlock: PAMTUU_clean_sbu_0, # of connection points: 6
#     Node 1, Type 0, BuildingBlock: PAMTUU_clean_sbu_0, # of connection points: 6
#     Node 2, Type 0, BuildingBlock: PAMTUU_clean_sbu_0, # of connection points: 6
#     Edge 3, Type (0, 0), BuildingBlock: OJICUG_clean_linker_0, # of connection points: 2
#     Edge 4, Type (0, 0), BuildingBlock: OJICUG_clean_linker_0, # of connection points: 2
#     Edge 5, Type (0, 0), BuildingBlock: OJICUG_clean_linker_0, # of connection points: 2
#     Edge 6, Type (0, 0), BuildingBlock: OJICUG_clean_linker_0, # of connection points: 2
#     Edge 7, Type (0, 0), BuildingBlock: OJICUG_clean_linker_0, # of connection points: 2
#     Edge 8, Type (0, 0), BuildingBlock: OJICUG_clean_linker_0, # of connection points: 2
#     Edge 9, Type (0, 0), BuildingBlock: OJICUG_clean_linker_0, # of connection points: 2
#     Edge 10, Type (0, 0), BuildingBlock: OJICUG_clean_linker_0, # of connection points: 2
#     Edge 11, Type (0, 0), BuildingBlock: OJICUG_clean_linker_0, # of connection points: 2
# Relax obj value: 0.135
# Max RMSD: 0.239
# Mean RMSD: 0.239
data_MOF--net-qtz-x--node1-PAMTUU_clean_sbu_0--edge1-OJICUG_clean_linker_0
_symmetry_space_group_name_H-M    P1
_symmetry_Int_Tables_number       1
_symmetry_cell_setting            triclinic
loop_
_symmetry_equiv_pos_as_xyz
'x, y, z'
_cell_length_a     11.008201
_cell_length_b     10.996953
_cell_length_c     42.860156
_cell_angle_alpha  89.26795
_cell_angle_beta   90.049851
_cell_angle_gamma 120.00063
loop_
_atom_site_label
_atom_site_type_symbol
_atom_site_fract_x
_atom_site_fract_y
_atom_site_fract_z
_atom_type_partial_charge
Tb0 Tb 0.17397 0.73668 0.17632 0.0
Tb1 Tb 0.86193 0.58069 0.21029 0.0
C2 C 0.01671 0.41951 0.19349 0.0
C3 C 0.40856 0.84055 0.10893 0.0
C4 C 0.4124 0.78531 0.04465 0.0
C5 C 0.50044 0.76764 0.06588 0.0
C6 C 0.49855 0.79508 0.09765 0.0
C7 C 0.3247 0.86376 0.08752 0.0
C8 C 0.32702 0.83693 0.05574 0.0
C9 C 0.39299 0.85068 0.14304 0.0
O10 O 0.01904 0.69455 0.14034 0.0
O11 O 0.81474 0.51556 0.16186 0.0
O12 O 0.89763 0.77687 0.18952 0.0
O13 O 0.13576 0.89667 0.19529 0.0
O14 O 0.68133 0.40158 0.22761 0.0
O15 O 0.71493 0.60883 0.23573 0.0
O16 O 0.01799 0.69894 0.24517 0.0
O17 O 0.21853 0.71389 0.22523 0.0
O18 O 0.08372 0.51212 0.17123 0.0
O19 O 0.95014 0.44382 0.21571 0.0
C20 C 0.89091 0.58776 0.13754 0.0
O21 O 0.32568 0.91423 0.15163 0.0
O22 O 0.35335 0.73575 0.15933 0.0
C23 C 0.01645 0.8953 0.19226 0.0
C24 C 0.63496 0.45189 0.27808 0.0
C25 C 0.62721 0.41927 0.34366 0.0
C26 C 0.51287 0.414 0.3276 0.0
C27 C 0.51716 0.43109 0.29507 0.0
C28 C 0.74936 0.45816 0.29407 0.0
C29 C 0.74585 0.44265 0.32651 0.0
C30 C 0.64458 0.47706 0.24409 0.0
C31 C 0.14257 0.71308 0.24908 0.0
H32 H 0.5689 0.72972 0.05801 0.0
H33 H 0.56418 0.7764 0.11358 0.0
H34 H 0.25348 0.89816 0.09541 0.0
H35 H 0.25713 0.85046 0.04012 0.0
H36 H 0.42033 0.39696 0.34023 0.0
H37 H 0.42888 0.42837 0.28321 0.0
H38 H 0.84174 0.47494 0.28143 0.0
H39 H 0.83468 0.44527 0.33806 0.0
Tb40 Tb 0.49477 0.95752 0.50985 0.0
Tb41 Tb 0.6522 0.26725 0.54484 0.0
C42 C 0.33329 0.11308 0.52695 0.0
C43 C 0.35372 0.72772 0.44373 0.0
C44 C 0.29841 0.72705 0.37918 0.0
C45 C 0.33773 0.63287 0.39182 0.0
C46 C 0.36557 0.63357 0.42385 0.0
C47 C 0.31488 0.82157 0.43113 0.0
C48 C 0.28819 0.82174 0.39932 0.0
C49 C 0.398 0.74162 0.47663 0.0
O50 O 0.577 0.11604 0.47292 0.0
O51 O 0.64127 0.32776 0.49683 0.0
O52 O 0.81119 0.23647 0.5225 0.0
O53 O 0.69464 0.99839 0.52858 0.0
O54 O 0.65441 0.44598 0.5628 0.0
O55 O 0.8271 0.40974 0.57063 0.0
O56 O 0.6105 0.10504 0.57949 0.0
O57 O 0.42636 0.90724 0.55847 0.0
O58 O 0.35341 0.03981 0.50577 0.0
O59 O 0.4267 0.18286 0.54852 0.0
C60 C 0.61411 0.24981 0.47189 0.0
O61 O 0.53155 0.82678 0.48078 0.0
O62 O 0.32235 0.76398 0.49676 0.0
C63 C 0.81186 0.11795 0.52496 0.0
C64 C 0.7539 0.49347 0.61325 0.0
C65 C 0.69728 0.49657 0.67755 0.0
C66 C 0.75048 0.41231 0.6667 0.0
C67 C 0.77797 0.41028 0.63488 0.0
C68 C 0.70674 0.58232 0.62429 0.0
C69 C 0.67848 0.58373 0.65607 0.0
C70 C 0.7666 0.48003 0.57918 0.0
C71 C 0.50023 0.97907 0.58263 0.0
H72 H 0.34579 0.55798 0.37706 0.0
H73 H 0.39805 0.56203 0.43301 0.0
H74 H 0.30782 0.89703 0.44588 0.0
H75 H 0.26136 0.89793 0.39045 0.0
H76 H 0.76501 0.34325 0.68258 0.0
H77 H 0.81387 0.34011 0.62718 0.0
H78 H 0.68764 0.6476 0.60818 0.0
H79 H 0.63925 0.65125 0.66378 0.0
Tb80 Tb 0.36333 0.60677 0.84408 0.0
Tb81 Tb 0.51728 0.44938 0.87839 0.0
C82 C 0.67921 0.76675 0.86108 0.0
C83 C 0.28569 0.74866 0.77604 0.0
C84 C 0.34456 0.80096 0.71146 0.0
C85 C 0.43841 0.78757 0.73154 0.0
C86 C 0.40942 0.76199 0.76338 0.0
C87 C 0.18962 0.75853 0.75612 0.0
C88 C 0.21889 0.78468 0.72404 0.0
C89 C 0.25426 0.71248 0.80946 0.0
O90 O 0.4078 0.49484 0.8087 0.0
O91 O 0.58631 0.47026 0.82985 0.0
O92 O 0.32113 0.29002 0.85856 0.0
O93 O 0.20237 0.40956 0.86438 0.0
O94 O 0.69485 0.43888 0.89263 0.0
O95 O 0.48748 0.28069 0.90734 0.0
O96 O 0.40588 0.49431 0.914 0.0
O97 O 0.38203 0.67382 0.89253 0.0
O98 O 0.58837 0.74276 0.83884 0.0
O99 O 0.65345 0.67401 0.88335 0.0
C100 C 0.5163 0.47677 0.80557 0.0
O101 O 0.19496 0.57876 0.81589 0.0
O102 O 0.35672 0.78588 0.82865 0.0
C103 C 0.20303 0.29118 0.86149 0.0
C104 C 0.66024 0.37047 0.94569 0.0
C105 C 0.71613 0.43174 1.00968 0.0
C106 C 0.69428 0.30329 0.99789 0.0
C107 C 0.6664 0.27285 0.96607 0.0
C108 C 0.67931 0.49714 0.9576 0.0
C109 C 0.70686 0.52741 0.98915 0.0
C110 C 0.62133 0.33778 0.91267 0.0
C111 C 0.38847 0.60331 0.91697 0.0
H112 H 0.53457 0.79636 0.72261 0.0
H113 H 0.48364 0.75139 0.77813 0.0
H114 H 0.09221 0.74572 0.76533 0.0
H115 H 0.14463 0.79483 0.70921 0.0
H116 H 0.70109 0.22759 1.01312 0.0
H117 H 0.64905 0.17324 0.95745 0.0
H118 H 0.67133 0.57256 0.9425 0.0
H119 H 0.72001 0.62579 0.99754 0.0
C120 C 0.13239 0.15282 0.18116 0.0
C121 C 0.01591 0.02902 0.19248 0.0
H122 H 0.22251 0.37346 0.1721 0.0
C123 C 0.89968 0.03442 0.20427 0.0
H124 H 0.22311 0.15128 0.17187 0.0
C125 C 0.90082 0.16206 0.20513 0.0
C126 C 0.0165 0.28542 0.19338 0.0
H127 H 0.8089 0.94043 0.21328 0.0
H128 H 0.81036 0.16385 0.21451 0.0
C129 C 0.13184 0.27958 0.1812 0.0
C130 C 0.1948 0.23258 0.53719 0.0
C131 C 0.20036 0.11511 0.52658 0.0
H132 H 0.06735 0.32698 0.54427 0.0
C133 C 0.07794 0.99977 0.5151 0.0
H134 H 0.28803 0.32323 0.54596 0.0
C135 C 0.95161 1.00077 0.51472 0.0
C136 C 0.94616 0.11866 0.52502 0.0
H137 H 0.07933 0.90777 0.50683 0.0
H138 H 0.85841 0.90975 0.50607 0.0
C139 C 0.06904 0.23511 0.53602 0.0
C140 C 0.93436 0.90722 0.87345 0.0
C141 C 0.8131 0.90084 0.86111 0.0
H142 H 0.15405 0.03596 0.88261 0.0
C143 C 0.82077 0.0237 0.84893 0.0
H144 H 0.93121 0.81379 0.88288 0.0
C145 C 0.94724 0.15131 0.84952 0.0
C146 C 0.06896 0.15724 0.86143 0.0
H147 H 0.72851 0.02155 0.83942 0.0
H148 H 0.95033 0.24487 0.84019 0.0
C149 C 0.06172 0.03397 0.87318 0.0
C150 C 0.38549 0.56634 0.97468 0.0
C151 C 0.38311 0.64799 0.94935 0.0
H152 H 0.39668 0.54538 1.02404 0.0
C153 C 0.38719 0.77527 0.95563 0.0
H154 H 0.382 0.46738 0.971 0.0
C155 C 0.39598 0.82041 0.98654 0.0
C156 C 0.40212 0.73972 1.01167 0.0
H157 H 0.38675 0.84135 0.93673 0.0
H158 H 0.40122 0.91986 0.99072 0.0
C159 C 0.39529 0.61165 1.00528 0.0
C160 C 0.49684 0.23327 0.42156 0.0
C161 C 0.61387 0.30834 0.44077 0.0
H162 H 0.40886 0.21015 0.37606 0.0
C163 C 0.73166 0.42888 0.42879 0.0
H164 H 0.40424 0.14083 0.43043 0.0
C165 C 0.73489 0.46856 0.39739 0.0
C166 C 0.61931 0.38961 0.37779 0.0
H167 H 0.82323 0.48801 0.44319 0.0
H168 H 0.82879 0.55897 0.38825 0.0
C169 C 0.49903 0.27379 0.3905 0.0
C170 C 0.28426 0.77562 0.65394 0.0
C171 C 0.38283 0.8391 0.67798 0.0
H172 H 0.24434 0.76761 0.60463 0.0
C173 C 0.52059 0.94202 0.66996 0.0
H174 H 0.17749 0.69516 0.65935 0.0
C175 C 0.55863 0.98247 0.63894 0.0
C176 C 0.46025 0.92138 0.61486 0.0
H177 H 0.59884 0.99451 0.68781 0.0
H178 H 0.66541 0.06403 0.63393 0.0
C179 C 0.32288 0.81585 0.62261 0.0
C180 C 0.6865 0.3737 0.06748 0.0
C181 C 0.75475 0.47034 0.04284 0.0
H182 H 0.67375 0.33556 0.11703 0.0
C183 C 0.8621 0.6065 0.04996 0.0
H184 H 0.6026 0.26828 0.06274 0.0
C185 C 0.90194 0.64487 0.08075 0.0
C186 C 0.83566 0.54837 0.10544 0.0
H187 H 0.91803 0.68309 0.03159 0.0
H188 H 0.98661 0.75032 0.08512 0.0
C189 C 0.72608 0.41267 0.09855 0.0
C190 C 0.30602 0.7072 0.2901 0.0
C191 C 0.19245 0.72552 0.28178 0.0
H192 H 0.4291 0.69281 0.32747 0.0
C193 C 0.11632 0.74488 0.30567 0.0
H194 H 0.36588 0.6905 0.27234 0.0
C195 C 0.15059 0.74395 0.3369 0.0
C196 C 0.26338 0.7253 0.34547 0.0
H197 H 0.02762 0.75861 0.3004 0.0
H198 H 0.08636 0.7555 0.35442 0.0
C199 C 0.34101 0.70679 0.32169 0.0
C200 C 0.47715 0.46778 0.74805 0.0
C201 C 0.56057 0.46979 0.77319 0.0
H202 H 0.45474 0.47467 0.69867 0.0
C203 C 0.68906 0.47656 0.76663 0.0
H204 H 0.37714 0.46185 0.75199 0.0
C205 C 0.73389 0.48418 0.73559 0.0
C206 C 0.65154 0.48633 0.71063 0.0
H207 H 0.75639 0.47943 0.78538 0.0
H208 H 0.83439 0.49191 0.73115 0.0
C209 C 0.52212 0.47637 0.71731 0.0
loop_
_geom_bond_atom_site_label_1
_geom_bond_atom_site_label_2
_geom_bond_distance
_geom_bond_site_symmetry_2
_ccdc_geom_bond_type
Tb0 C9 2.764 . S
Tb0 O10 2.325 . S
Tb0 O13 2.303 . S
Tb0 O17 2.322 . S
Tb0 O18 2.349 . S
Tb0 O21 2.415 . S
Tb0 O22 2.399 . S
Tb1 O11 2.322 . S
Tb1 O12 2.349 . S
Tb1 O14 2.415 . S
Tb1 O15 2.399 . S
Tb1 O16 2.325 1_655 S
Tb1 O19 2.303 1_655 S
Tb1 C30 2.764 . S
C2 O18 1.261 . S
C2 O19 1.257 . S
C3 C6 1.358 . S
C3 C7 1.332 . S
C3 C9 1.504 . S
C4 C5 1.373 . S
C4 C8 1.308 . S
C5 C4 1.373 . S
C5 C6 1.429 . S
C5 H32 0.932 . S
C6 C3 1.358 . S
C6 C5 1.429 . S
C6 H33 0.930 . S
C7 C3 1.332 . S
C7 C8 1.394 . S
C7 H34 0.932 . S
C8 C4 1.308 . S
C8 C7 1.394 . S
C8 H35 0.929 1_565 S
C9 Tb0 2.764 . S
C9 C3 1.504 . S
C9 O21 1.239 . S
C9 O22 1.263 . S
O10 Tb0 2.325 . S
O10 C20 1.236 1_455 S
O11 Tb1 2.322 . S
O11 C20 1.257 . S
O12 Tb1 2.349 . S
O12 C23 1.261 1_655 S
O13 Tb0 2.303 . S
O13 C23 1.257 . S
O14 Tb1 2.415 . S
O14 C30 1.239 . S
O15 Tb1 2.399 . S
O15 C30 1.263 . S
O16 Tb1 2.325 1_455 S
O16 C31 1.236 . S
O17 Tb0 2.322 . S
O17 C31 1.257 . S
O18 Tb0 2.349 . S
O18 C2 1.261 . S
O19 Tb1 2.303 1_455 S
O19 C2 1.257 . S
C20 O10 1.236 1_655 S
C20 O11 1.257 . S
O21 Tb0 2.415 . S
O21 C9 1.239 . S
O22 Tb0 2.399 . S
O22 C9 1.263 . S
C23 O12 1.261 1_455 S
C23 O13 1.257 . S
C24 C27 1.358 . S
C24 C28 1.332 . S
C24 C30 1.504 . S
C25 C26 1.373 . S
C25 C29 1.308 . S
C26 C25 1.373 . S
C26 C27 1.429 . S
C26 H36 0.932 . S
C27 C24 1.358 . S
C27 C26 1.429 . S
C27 H37 0.930 . S
C28 C24 1.332 . S
C28 C29 1.394 . S
C28 H38 0.932 . S
C29 C25 1.308 . S
C29 C28 1.394 . S
C29 H39 0.929 . S
C30 Tb1 2.764 . S
C30 O14 1.239 . S
C30 O15 1.263 . S
C30 C24 1.504 . S
C31 O16 1.236 . S
C31 O17 1.257 . S
H32 C5 0.932 . S
H33 C6 0.930 . S
H34 C7 0.932 . S
H35 C8 0.929 1_545 S
H36 C26 0.932 . S
H37 C27 0.930 . S
H38 C28 0.932 . S
H39 C29 0.929 . S
Tb40 C49 2.764 . S
Tb40 O50 2.325 1_565 S
Tb40 O53 2.303 . S
Tb40 O57 2.322 . S
Tb40 O58 2.349 . S
Tb40 O61 2.415 . S
Tb40 O62 2.399 . S
Tb41 O51 2.322 . S
Tb41 O52 2.349 . S
Tb41 O54 2.415 . S
Tb41 O55 2.399 . S
Tb41 O56 2.325 1_545 S
Tb41 O59 2.303 . S
Tb41 C70 2.764 . S
C42 O58 1.261 . S
C42 O59 1.257 1_565 S
C43 C46 1.358 . S
C43 C47 1.332 . S
C43 C49 1.504 . S
C44 C45 1.373 . S
C44 C48 1.308 . S
C45 C44 1.373 . S
C45 C46 1.429 . S
C45 H72 0.932 . S
C46 C43 1.358 . S
C46 C45 1.429 . S
C46 H73 0.930 . S
C47 C43 1.332 . S
C47 C48 1.394 . S
C47 H74 0.932 . S
C48 C44 1.308 . S
C48 C47 1.394 . S
C48 H75 0.929 . S
C49 Tb40 2.764 . S
C49 C43 1.504 . S
C49 O61 1.239 . S
C49 O62 1.263 . S
O50 Tb40 2.325 1_545 S
O50 C60 1.236 . S
O51 Tb41 2.322 . S
O51 C60 1.257 . S
O52 Tb41 2.349 . S
O52 C63 1.261 . S
O53 Tb40 2.303 . S
O53 C63 1.257 1_565 S
O54 Tb41 2.415 . S
O54 C70 1.239 . S
O55 Tb41 2.399 . S
O55 C70 1.263 . S
O56 Tb41 2.325 1_565 S
O56 C71 1.236 . S
O57 Tb40 2.322 . S
O57 C71 1.257 . S
O58 Tb40 2.349 . S
O58 C42 1.261 . S
O59 Tb41 2.303 . S
O59 C42 1.257 1_545 S
C60 O50 1.236 . S
C60 O51 1.257 . S
O61 Tb40 2.415 . S
O61 C49 1.239 . S
O62 Tb40 2.399 . S
O62 C49 1.263 . S
C63 O52 1.261 . S
C63 O53 1.257 1_545 S
C64 C67 1.358 . S
C64 C68 1.332 . S
C64 C70 1.504 . S
C65 C66 1.373 . S
C65 C69 1.308 . S
C66 C65 1.373 . S
C66 C67 1.429 . S
C66 H76 0.932 . S
C67 C64 1.358 . S
C67 C66 1.429 . S
C67 H77 0.930 . S
C68 C64 1.332 . S
C68 C69 1.394 . S
C68 H78 0.932 . S
C69 C65 1.308 . S
C69 C68 1.394 . S
C69 H79 0.929 . S
C70 Tb41 2.764 . S
C70 O54 1.239 . S
C70 O55 1.263 . S
C70 C64 1.504 . S
C71 O56 1.236 . S
C71 O57 1.257 . S
H72 C45 0.932 . S
H73 C46 0.930 . S
H74 C47 0.932 . S
H75 C48 0.929 . S
H76 C66 0.932 . S
H77 C67 0.930 . S
H78 C68 0.932 . S
H79 C69 0.929 . S
Tb80 C89 2.764 . S
Tb80 O90 2.325 . S
Tb80 O93 2.303 . S
Tb80 O97 2.322 . S
Tb80 O98 2.349 . S
Tb80 O101 2.415 . S
Tb80 O102 2.399 . S
Tb81 O91 2.322 . S
Tb81 O92 2.349 . S
Tb81 O94 2.415 . S
Tb81 O95 2.399 . S
Tb81 O96 2.325 . S
Tb81 O99 2.303 . S
Tb81 C110 2.764 . S
C82 O98 1.261 . S
C82 O99 1.257 . S
C83 C86 1.358 . S
C83 C87 1.332 . S
C83 C89 1.504 . S
C84 C85 1.373 . S
C84 C88 1.308 . S
C85 C84 1.373 . S
C85 C86 1.429 . S
C85 H112 0.932 . S
C86 C83 1.358 . S
C86 C85 1.429 . S
C86 H113 0.930 . S
C87 C83 1.332 . S
C87 C88 1.394 . S
C87 H114 0.932 . S
C88 C84 1.308 . S
C88 C87 1.394 . S
C88 H115 0.929 . S
C89 Tb80 2.764 . S
C89 C83 1.504 . S
C89 O101 1.239 . S
C89 O102 1.263 . S
O90 Tb80 2.325 . S
O90 C100 1.236 . S
O91 Tb81 2.322 . S
O91 C100 1.257 . S
O92 Tb81 2.349 . S
O92 C103 1.261 . S
O93 Tb80 2.303 . S
O93 C103 1.257 . S
O94 Tb81 2.415 . S
O94 C110 1.239 . S
O95 Tb81 2.399 . S
O95 C110 1.263 . S
O96 Tb81 2.325 . S
O96 C111 1.236 . S
O97 Tb80 2.322 . S
O97 C111 1.257 . S
O98 Tb80 2.349 . S
O98 C82 1.261 . S
O99 Tb81 2.303 . S
O99 C82 1.257 . S
C100 O90 1.236 . S
C100 O91 1.257 . S
O101 Tb80 2.415 . S
O101 C89 1.239 . S
O102 Tb80 2.399 . S
O102 C89 1.263 . S
C103 O92 1.261 . S
C103 O93 1.257 . S
C104 C107 1.358 . S
C104 C108 1.332 . S
C104 C110 1.504 . S
C105 C106 1.373 . S
C105 C109 1.308 . S
C106 C105 1.373 . S
C106 C107 1.429 . S
C106 H116 0.932 . S
C107 C104 1.358 . S
C107 C106 1.429 . S
C107 H117 0.930 . S
C108 C104 1.332 . S
C108 C109 1.394 . S
C108 H118 0.932 . S
C109 C105 1.308 . S
C109 C108 1.394 . S
C109 H119 0.929 . S
C110 Tb81 2.764 . S
C110 O94 1.239 . S
C110 O95 1.263 . S
C110 C104 1.504 . S
C111 O96 1.236 . S
C111 O97 1.257 . S
H112 C85 0.932 . S
H113 C86 0.930 . S
H114 C87 0.932 . S
H115 C88 0.929 . S
H116 C106 0.932 . S
H117 C107 0.930 . S
H118 C108 0.932 . S
H119 C109 0.929 . S
C120 C121 1.387 . S
C120 H124 0.950 . S
C120 C129 1.390 . S
C121 C120 1.387 . S
C121 C123 1.387 . S
H122 C129 0.950 . S
C123 C121 1.387 . S
C123 C125 1.390 . S
C123 H127 0.950 . S
H124 C120 0.950 . S
C125 C123 1.390 . S
C125 C126 1.387 . S
C125 H128 0.950 . S
C126 C125 1.387 . S
C126 C129 1.387 . S
H127 C123 0.950 . S
H128 C125 0.950 . S
C129 C120 1.390 . S
C129 H122 0.950 . S
C129 C126 1.387 . S
C130 C131 1.387 . S
C130 H134 0.950 . S
C130 C139 1.390 1_455 S
C131 C130 1.387 . S
C131 C133 1.387 1_445 S
H132 C139 0.950 . S
C133 C131 1.387 1_665 S
C133 C135 1.390 . S
C133 H137 0.950 . S
H134 C130 0.950 . S
C135 C133 1.390 . S
C135 C136 1.395 . S
C135 H138 0.950 . S
C136 C135 1.395 . S
C136 C139 1.384 1_565 S
H137 C133 0.950 . S
H138 C135 0.950 . S
C139 C130 1.390 1_655 S
C139 H132 0.950 . S
C139 C136 1.384 1_545 S
C140 C141 1.387 . S
C140 H144 0.950 . S
C140 C149 1.390 1_655 S
C141 C140 1.387 . S
C141 C143 1.387 . S
H142 C149 0.950 . S
C143 C141 1.387 . S
C143 C145 1.389 1_655 S
C143 H147 0.950 . S
H144 C140 0.950 . S
C145 C143 1.389 1_455 S
C145 C146 1.388 . S
C145 H148 0.950 . S
C146 C145 1.388 . S
C146 C149 1.387 . S
H147 C143 0.950 . S
H148 C145 0.950 . S
C149 C140 1.390 1_455 S
C149 H142 0.950 . S
C149 C146 1.387 . S
C150 C151 1.387 . S
C150 H154 0.950 . S
C150 C159 1.390 . S
C151 C150 1.387 . S
C151 C153 1.387 . S
H152 C159 0.950 . S
C153 C151 1.387 . S
C153 C155 1.390 . S
C153 H157 0.950 . S
H154 C150 0.950 . S
C155 C153 1.390 . S
C155 C156 1.387 . S
C155 H158 0.950 1_565 S
C156 C155 1.387 . S
C156 C159 1.387 . S
H157 C153 0.950 . S
H158 C155 0.950 1_545 S
C159 C150 1.390 . S
C159 H152 0.950 . S
C159 C156 1.387 . S
C160 C161 1.387 . S
C160 H164 0.950 . S
C160 C169 1.390 . S
C161 C160 1.387 . S
C161 C163 1.387 . S
H162 C169 0.950 . S
C163 C161 1.387 . S
C163 C165 1.390 . S
C163 H167 0.950 . S
H164 C160 0.950 . S
C165 C163 1.390 . S
C165 C166 1.387 . S
C165 H168 0.950 . S
C166 C165 1.387 . S
C166 C169 1.387 . S
H167 C163 0.950 . S
H168 C165 0.950 . S
C169 C160 1.390 . S
C169 H162 0.950 . S
C169 C166 1.387 . S
C170 C171 1.387 . S
C170 H174 0.950 . S
C170 C179 1.390 . S
C171 C170 1.387 . S
C171 C173 1.387 . S
H172 C179 0.950 . S
C173 C171 1.387 . S
C173 C175 1.390 . S
C173 H177 0.950 1_565 S
H174 C170 0.950 . S
C175 C173 1.390 . S
C175 C176 1.387 . S
C175 H178 0.950 1_565 S
C176 C175 1.387 . S
C176 C179 1.387 . S
H177 C173 0.950 1_545 S
H178 C175 0.950 1_545 S
C179 C170 1.390 . S
C179 H172 0.950 . S
C179 C176 1.387 . S
C180 C181 1.387 . S
C180 H184 0.950 . S
C180 C189 1.390 . S
C181 C180 1.387 . S
C181 C183 1.387 . S
H182 C189 0.950 . S
C183 C181 1.387 . S
C183 C185 1.390 . S
C183 H187 0.950 . S
H184 C180 0.950 . S
C185 C183 1.390 . S
C185 C186 1.387 . S
C185 H188 0.950 1_655 S
C186 C185 1.387 . S
C186 C189 1.387 . S
H187 C183 0.950 . S
H188 C185 0.950 1_455 S
C189 C180 1.390 . S
C189 H182 0.950 . S
C189 C186 1.387 . S
C190 C191 1.387 . S
C190 H194 0.950 . S
C190 C199 1.390 . S
C191 C190 1.387 . S
C191 C193 1.387 . S
H192 C199 0.950 . S
C193 C191 1.387 . S
C193 C195 1.390 . S
C193 H197 0.950 . S
H194 C190 0.950 . S
C195 C193 1.390 . S
C195 C196 1.387 . S
C195 H198 0.950 . S
C196 C195 1.387 . S
C196 C199 1.387 . S
H197 C193 0.950 . S
H198 C195 0.950 . S
C199 C190 1.390 . S
C199 H192 0.950 . S
C199 C196 1.387 . S
C200 C201 1.387 . S
C200 H204 0.950 . S
C200 C209 1.390 . S
C201 C200 1.387 . S
C201 C203 1.387 . S
H202 C209 0.950 . S
C203 C201 1.387 . S
C203 C205 1.390 . S
C203 H207 0.950 . S
H204 C200 0.950 . S
C205 C203 1.390 . S
C205 C206 1.387 . S
C205 H208 0.950 . S
C206 C205 1.387 . S
C206 C209 1.387 . S
H207 C203 0.950 . S
H208 C205 0.950 . S
C209 C200 1.390 . S
C209 H202 0.950 . S
C209 C206 1.387 . S
C121 C23 1.651 1_545 S
C126 C2 1.651 . S
C131 C42 1.651 1_545 S
C136 C63 1.647 1_565 S
C141 C82 1.649 1_545 S
C146 C103 1.649 . S
C151 C111 1.617 . S
C156 C4 1.452 1_556 S
C161 C60 1.466 . S
C166 C25 1.434 . S
C171 C84 1.447 . S
C176 C71 1.615 . S
C181 C105 1.432 1_554 S
C186 C20 1.466 . S
C191 C31 1.615 . S
C196 C44 1.451 . S
C201 C100 1.466 . S
C206 C65 1.432 . S
