# Generated by pormake.
# Topology pcu, (6)-cn, num edge types: 1
# Building blocks:
#     Node 0, Type 0, BuildingBlock: INOVEN_clean_sbu_0, # of connection points: 6
#     Edge 1, Type (0, 0), BuildingBlock: FUNLAD_clean_linker_0, # of connection points: 2
#     Edge 2, Type (0, 0), BuildingBlock: FUNLAD_clean_linker_0, # of connection points: 2
#     Edge 3, Type (0, 0), BuildingBlock: FUNLAD_clean_linker_0, # of connection points: 2
# Relax obj value: 0.000
# Max RMSD: 0.000
# Mean RMSD: 0.000
data_MOF--net-pcu--node1-INOVEN_clean_sbu_0--edge1-FUNLAD_clean_linker_0
_symmetry_space_group_name_H-M    P1
_symmetry_Int_Tables_number       1
_symmetry_cell_setting            triclinic
loop_
_symmetry_equiv_pos_as_xyz
'x, y, z'
_cell_length_a     27.47662
_cell_length_b     17.945723
_cell_length_c     16.731589
_cell_angle_alpha  87.320368
_cell_angle_beta   98.412471
_cell_angle_gamma 124.13169
loop_
_atom_site_label
_atom_site_type_symbol
_atom_site_fract_x
_atom_site_fract_y
_atom_site_fract_z
_atom_type_partial_charge
Gd0 Gd 0.97118 0.92385 0.02277 0.0
Gd1 Gd 0.10092 0.04711 0.99954 0.0
C2 C 1.03067 0.13831 0.99384 0.0
C3 C 0.86844 0.85529 0.06839 0.0
C4 C 0.82377 0.87733 0.05751 0.0
C5 C 0.82551 0.93644 0.99822 0.0
C6 C 0.77887 0.83903 0.10665 0.0
C7 C 0.73683 0.91721 0.0363 0.0
C8 C 0.7358 0.85876 0.09624 0.0
C9 C 0.78243 0.95612 0.98764 0.0
C10 C 0.99164 0.93105 0.86887 0.0
C11 C 0.04139 0.83261 0.02814 0.0
C12 C 0.20385 0.11592 0.95444 0.0
C13 C 0.24847 0.09377 0.96525 0.0
C14 C 0.24662 0.03445 0.02437 0.0
C15 C 0.29344 0.1322 0.91621 0.0
C16 C 0.33534 0.05377 0.98637 0.0
C17 C 0.33648 0.11241 0.92658 0.0
C18 C 0.28967 0.01471 0.03492 0.0
C19 C 0.08007 0.03967 0.15338 0.0
O20 O 0.98895 0.06302 0.02336 0.0
O21 O 0.07616 0.14517 0.96805 0.0
O22 O 0.87578 0.82737 1.00318 0.0
O23 O 0.91875 0.91278 0.11352 0.0
O24 O 0.95066 0.85886 0.89957 0.0
O25 O 1.01707 -0.0029 0.91893 0.0
O26 O 0.08309 0.90791 0.99863 0.0
O27 O 0.99594 0.82576 0.05406 0.0
O28 O 0.19634 0.1434 0.01976 0.0
O29 O 0.15364 0.05877 0.90895 0.0
O30 O 0.12097 0.11204 0.12276 0.0
O31 O 0.05507 0.97381 0.10324 0.0
H32 H 0.86012 0.96718 0.95999 0.0
H33 H 0.77689 0.79335 0.15279 0.0
H34 H 0.70106 0.82694 0.13421 0.0
H35 H 0.78514 0.00243 0.94177 0.0
H36 H 0.21196 0.0036 0.06252 0.0
H37 H 0.2955 0.17805 0.8702 0.0
H38 H 0.37127 0.14434 0.8887 0.0
H39 H 0.28688 0.96825 0.08067 0.0
C40 C 1.02929 0.95058 0.26947 0.0
C41 C 0.06977 0.03371 0.23827 0.0
C42 C 1.02076 0.94537 0.35055 0.0
C43 C 0.05285 0.02346 0.40209 0.0
C44 C 0.09233 0.10663 0.36997 0.0
C45 C 0.10093 0.11171 0.28911 0.0
C46 C 0.04559 0.02187 0.4888 0.0
C47 C 1.02558 0.94811 0.53326 0.0
C48 C 1.01841 0.94665 0.61999 0.0
C49 C 0.97874 0.86363 0.65216 0.0
C50 C 0.97026 0.85873 0.73307 0.0
C51 C 1.00176 0.93676 0.78391 0.0
H52 H 0.08337 0.08965 0.6502 0.0
C53 C 0.04243 0.01973 0.75265 0.0
C54 C 0.05083 0.02475 0.67153 0.0
H55 H 0.06773 0.08082 0.79083 0.0
H56 H 1.00425 0.8895 0.23127 0.0
H57 H 0.98838 0.88034 0.37183 0.0
H58 H 0.11717 0.16796 0.40783 0.0
H59 H 0.13215 0.17683 0.26648 0.0
H60 H 0.05832 0.08484 0.51684 0.0
H61 H 1.0128 0.88511 0.50525 0.0
H62 H 0.95365 0.80228 0.6143 0.0
H63 H 0.93889 0.79372 0.75574 0.0
C64 C 0.40243 0.02048 0.93219 0.0
C65 C 0.38196 0.03428 0.99863 0.0
C66 C 0.44653 0.00284 0.94378 0.0
C67 C 0.47166 -0.00073 0.02239 0.0
C68 C 0.45063 0.01207 0.08861 0.0
C69 C 0.40653 0.02959 0.07701 0.0
C70 C 0.5184 0.97994 0.03833 0.0
C71 C 0.55373 -0.00905 0.98426 0.0
C72 C 0.60047 0.97162 1.00022 0.0
C73 C 0.62144 0.95868 0.934 0.0
C74 C 0.66554 0.94117 0.94563 0.0
C75 C 0.69019 0.93665 0.02401 0.0
H76 H 0.6126 0.98081 0.1318 0.0
C77 C 0.66978 0.95061 0.09045 0.0
C78 C 0.62567 0.96822 0.07884 0.0
H79 H 0.68865 0.94945 0.15166 0.0
H80 H 0.38361 0.02178 0.87098 0.0
H81 H 0.45965 -0.00962 0.8908 0.0
H82 H 0.46878 0.00931 0.14985 0.0
H83 H 0.39232 0.04077 0.12962 0.0
H84 H 0.52388 0.95655 0.09778 0.0
H85 H 0.54826 0.01432 0.92481 0.0
H86 H 0.60324 0.9613 0.87277 0.0
H87 H 0.67971 0.92987 0.89302 0.0
C88 C 0.99844 0.66879 0.04749 0.0
C89 C 0.04635 0.75476 0.03138 0.0
C90 C 1.0022 0.59445 0.04529 0.0
C91 C 0.05405 0.60488 0.02686 0.0
C92 C 0.10261 0.6913 1.01388 0.0
C93 C 0.09872 0.7654 1.01548 0.0
C94 C 0.05946 0.52769 0.02151 0.0
C95 C 1.01256 0.44321 1.00012 0.0
C96 C 1.01797 0.36602 0.99481 0.0
C97 C 0.96941 0.2796 1.00782 0.0
C98 C 0.97331 0.20551 1.0063 0.0
C99 C 1.02569 0.21614 0.99046 0.0
H100 H 0.10742 0.44153 0.96312 0.0
C101 C 0.07359 0.3021 0.97432 0.0
C102 C 0.06982 0.37643 0.97643 0.0
H103 H 0.11437 0.31233 0.96131 0.0
H104 H 0.95767 0.65855 0.06054 0.0
H105 H 0.9646 0.52934 0.05858 0.0
H106 H 0.14331 0.70131 1.00068 0.0
H107 H 0.13671 0.83089 1.00354 0.0
H108 H 0.10391 0.54202 0.03366 0.0
H109 H 0.96812 0.42889 0.98797 0.0
H110 H 0.9287 0.2696 0.02097 0.0
H111 H 0.93532 0.14003 0.01827 0.0
loop_
_geom_bond_atom_site_label_1
_geom_bond_atom_site_label_2
_geom_bond_distance
_geom_bond_site_symmetry_2
_ccdc_geom_bond_type
Gd0 C3 2.818 . S
Gd0 O20 2.377 1_565 S
Gd0 O22 2.448 . S
Gd0 O23 2.506 1_556 S
Gd0 O24 2.435 . S
Gd0 O25 2.717 1_665 S
Gd0 O27 2.395 . S
Gd0 O31 2.327 1_556 S
Gd1 C12 2.818 . S
Gd1 O21 2.395 . S
Gd1 O25 2.327 1_554 S
Gd1 O26 2.377 1_545 S
Gd1 O28 2.448 . S
Gd1 O29 2.506 1_554 S
Gd1 O30 2.435 . S
Gd1 O31 2.717 1_445 S
C2 O20 1.240 1_455 S
C2 O21 1.240 1_556 S
C3 Gd0 2.818 . S
C3 C4 1.510 . S
C3 O22 1.249 . S
C3 O23 1.252 1_556 S
C4 C3 1.510 . S
C4 C5 1.404 . S
C4 C6 1.352 1_566 S
C5 C4 1.404 . S
C5 C9 1.389 . S
C5 H32 0.930 . S
C6 C4 1.352 1_544 S
C6 C8 1.374 . S
C6 H33 0.931 . S
C7 C8 1.359 1_565 S
C7 C9 1.364 1_554 S
C8 C6 1.374 . S
C8 C7 1.359 1_545 S
C8 H34 0.931 . S
C9 C5 1.389 . S
C9 C7 1.364 1_556 S
C9 H35 0.931 . S
C10 O24 1.256 . S
C10 O25 1.257 1_665 S
C11 O26 1.240 1_655 S
C11 O27 1.240 1_554 S
C12 Gd1 2.818 . S
C12 C13 1.510 . S
C12 O28 1.249 . S
C12 O29 1.252 1_554 S
C13 C12 1.510 . S
C13 C14 1.404 . S
C13 C15 1.352 1_544 S
C14 C13 1.404 . S
C14 C18 1.389 . S
C14 H36 0.930 . S
C15 C13 1.352 1_566 S
C15 C17 1.374 . S
C15 H37 0.931 . S
C16 C17 1.359 1_545 S
C16 C18 1.364 1_556 S
C17 C15 1.374 . S
C17 C16 1.359 1_565 S
C17 H38 0.931 . S
C18 C14 1.389 . S
C18 C16 1.364 1_554 S
C18 H39 0.931 . S
C19 O30 1.256 . S
C19 O31 1.257 1_445 S
O20 Gd0 2.377 1_545 S
O20 C2 1.240 1_655 S
O21 Gd1 2.395 . S
O21 C2 1.240 1_554 S
O22 Gd0 2.448 . S
O22 C3 1.249 . S
O23 Gd0 2.506 1_554 S
O23 C3 1.252 1_554 S
O24 Gd0 2.435 . S
O24 C10 1.256 . S
O25 Gd0 2.717 1_445 S
O25 Gd1 2.327 1_556 S
O25 C10 1.257 1_445 S
O26 Gd1 2.377 1_565 S
O26 C11 1.240 1_455 S
O27 Gd0 2.395 . S
O27 C11 1.240 1_556 S
O28 Gd1 2.448 . S
O28 C12 1.249 . S
O29 Gd1 2.506 1_556 S
O29 C12 1.252 1_556 S
O30 Gd1 2.435 . S
O30 C19 1.256 . S
O31 Gd0 2.327 1_554 S
O31 Gd1 2.717 1_665 S
O31 C19 1.257 1_665 S
H32 C5 0.930 . S
H33 C6 0.931 . S
H34 C8 0.931 . S
H35 C9 0.931 . S
H36 C14 0.930 . S
H37 C15 0.931 . S
H38 C17 0.931 . S
H39 C18 0.931 . S
C40 C41 1.386 1_665 S
C40 C42 1.383 . S
C40 H56 0.951 . S
C41 C40 1.386 1_445 S
C41 C45 1.383 . S
C42 C40 1.383 . S
C42 C43 1.401 1_665 S
C42 H57 0.951 . S
C43 C42 1.401 1_445 S
C43 C44 1.376 . S
C43 C46 1.481 . S
C44 C43 1.376 . S
C44 C45 1.367 . S
C44 H58 0.951 . S
C45 C41 1.383 . S
C45 C44 1.367 . S
C45 H59 0.950 . S
C46 C43 1.481 . S
C46 C47 1.297 1_445 S
C46 H60 0.950 . S
C47 C46 1.297 1_665 S
C47 C48 1.479 . S
C47 H61 0.950 . S
C48 C47 1.479 . S
C48 C49 1.375 . S
C48 C54 1.404 1_665 S
C49 C48 1.375 . S
C49 C50 1.369 . S
C49 H62 0.950 . S
C50 C49 1.369 . S
C50 C51 1.394 . S
C50 H63 0.951 . S
C51 C50 1.394 . S
C51 C53 1.382 1_665 S
H52 C54 0.949 . S
C53 C51 1.382 1_445 S
C53 C54 1.385 . S
C53 H55 0.950 . S
C54 C48 1.404 1_445 S
C54 H52 0.949 . S
C54 C53 1.385 . S
H55 C53 0.950 . S
H56 C40 0.951 . S
H57 C42 0.951 . S
H58 C44 0.951 . S
H59 C45 0.950 . S
H60 C46 0.950 . S
H61 C47 0.950 . S
H62 C49 0.950 . S
H63 C50 0.951 . S
C64 C65 1.378 1_566 S
C64 C66 1.383 . S
C64 H80 0.951 . S
C65 C64 1.378 1_544 S
C65 C69 1.389 . S
C66 C64 1.383 . S
C66 C67 1.402 1_566 S
C66 H81 0.951 . S
C67 C66 1.402 1_544 S
C67 C68 1.375 . S
C67 C70 1.481 . S
C68 C67 1.375 . S
C68 C69 1.367 . S
C68 H82 0.951 . S
C69 C65 1.389 . S
C69 C68 1.367 . S
C69 H83 0.950 . S
C70 C67 1.481 . S
C70 C71 1.297 1_554 S
C70 H84 0.950 . S
C71 C70 1.297 1_556 S
C71 C72 1.479 . S
C71 H85 0.950 1_545 S
C72 C71 1.479 . S
C72 C73 1.375 1_545 S
C72 C78 1.404 1_556 S
C73 C72 1.375 1_565 S
C73 C74 1.369 . S
C73 H86 0.950 . S
C74 C73 1.369 . S
C74 C75 1.392 1_565 S
C74 H87 0.951 . S
C75 C74 1.392 1_545 S
C75 C77 1.384 1_556 S
H76 C78 0.949 . S
C77 C75 1.384 1_554 S
C77 C78 1.385 . S
C77 H79 0.950 . S
C78 C72 1.404 1_554 S
C78 H76 0.949 . S
C78 C77 1.385 . S
H79 C77 0.950 . S
H80 C64 0.951 . S
H81 C66 0.951 . S
H82 C68 0.951 . S
H83 C69 0.950 . S
H84 C70 0.950 . S
H85 C71 0.950 1_565 S
H86 C73 0.950 . S
H87 C74 0.951 . S
C88 C89 1.386 1_655 S
C88 C90 1.383 . S
C88 H104 0.951 . S
C89 C88 1.386 1_455 S
C89 C93 1.383 1_556 S
C90 C88 1.383 . S
C90 C91 1.402 1_655 S
C90 H105 0.951 . S
C91 C90 1.402 1_455 S
C91 C92 1.375 1_556 S
C91 C94 1.481 . S
C92 C91 1.375 1_554 S
C92 C93 1.367 . S
C92 H106 0.951 . S
C93 C89 1.383 1_554 S
C93 C92 1.367 . S
C93 H107 0.950 . S
C94 C91 1.481 . S
C94 C95 1.297 1_455 S
C94 H108 0.950 1_556 S
C95 C94 1.297 1_655 S
C95 C96 1.479 . S
C95 H109 0.950 . S
C96 C95 1.479 . S
C96 C97 1.375 . S
C96 C102 1.404 1_655 S
C97 C96 1.375 . S
C97 C98 1.369 . S
C97 H110 0.950 . S
C98 C97 1.369 . S
C98 C99 1.380 1_655 S
C98 H111 0.951 . S
C99 C98 1.380 1_455 S
C99 C101 1.389 . S
H100 C102 0.949 . S
C101 C99 1.389 . S
C101 C102 1.385 . S
C101 H103 0.950 1_556 S
C102 C96 1.404 1_455 S
C102 H100 0.949 . S
C102 C101 1.385 . S
H103 C101 0.950 1_554 S
H104 C88 0.951 . S
H105 C90 0.951 . S
H106 C92 0.951 . S
H107 C93 0.950 . S
H108 C94 0.950 1_554 S
H109 C95 0.950 . S
H110 C97 0.950 . S
H111 C98 0.951 . S
C41 C19 1.432 . S
C51 C10 1.453 . S
C65 C16 1.493 1_554 S
C75 C7 1.494 1_546 S
C89 C11 1.499 1_456 S
C99 C2 1.478 . S
