# Generated by pormake.
# Topology smu, (6)-cn, num edge types: 1
# Building blocks:
#     Node 0, Type 0, BuildingBlock: MIDCAF_clean_sbu_0, # of connection points: 6
#     Node 1, Type 0, BuildingBlock: MIDCAF_clean_sbu_0, # of connection points: 6
#     Node 2, Type 0, BuildingBlock: MIDCAF_clean_sbu_0, # of connection points: 6
#     Node 3, Type 0, BuildingBlock: MIDCAF_clean_sbu_0, # of connection points: 6
#     Node 4, Type 0, BuildingBlock: MIDCAF_clean_sbu_0, # of connection points: 6
#     Node 5, Type 0, BuildingBlock: MIDCAF_clean_sbu_0, # of connection points: 6
#     Edge 6, Type (0, 0), None
#     Edge 7, Type (0, 0), None
#     Edge 8, Type (0, 0), None
#     Edge 9, Type (0, 0), None
#     Edge 10, Type (0, 0), None
#     Edge 11, Type (0, 0), None
#     Edge 12, Type (0, 0), None
#     Edge 13, Type (0, 0), None
#     Edge 14, Type (0, 0), None
#     Edge 15, Type (0, 0), None
#     Edge 16, Type (0, 0), None
#     Edge 17, Type (0, 0), None
#     Edge 18, Type (0, 0), None
#     Edge 19, Type (0, 0), None
#     Edge 20, Type (0, 0), None
#     Edge 21, Type (0, 0), None
#     Edge 22, Type (0, 0), None
#     Edge 23, Type (0, 0), None
# Relax obj value: 0.353
# Max RMSD: 0.260
# Mean RMSD: 0.260
data_MOF--net-smu--node1-MIDCAF_clean_sbu_0--edge1-none
_symmetry_space_group_name_H-M    P1
_symmetry_Int_Tables_number       1
_symmetry_cell_setting            triclinic
loop_
_symmetry_equiv_pos_as_xyz
'x, y, z'
_cell_length_a     13.15396
_cell_length_b     13.337195
_cell_length_c     13.580597
_cell_angle_alpha  90.22452
_cell_angle_beta   89.913167
_cell_angle_gamma 119.9565
loop_
_atom_site_label
_atom_site_type_symbol
_atom_site_fract_x
_atom_site_fract_y
_atom_site_fract_z
_atom_type_partial_charge
Zn0 Zn 0.09192 0.92207 0.05537 0.0
Zn1 Zn 0.49341 0.20006 0.43972 0.0
Zn2 Zn 0.31031 0.00517 0.24085 0.0
C3 C 0.50991 0.02554 0.35757 0.0
C4 C 0.27893 0.12828 0.44763 0.0
O5 O 0.24958 0.12846 0.2579 0.0
O6 O 0.11134 0.06162 0.1407 0.0
C7 C 0.32187 0.959 1.01516 0.0
O8 O 0.46891 -0.00215 0.27076 0.0
O9 O 0.44311 0.03178 0.42077 0.0
O10 O 0.35328 0.21939 0.49183 0.0
O11 O 0.301 0.12261 0.35518 0.0
O12 O 0.21944 0.87345 0.02705 0.0
O13 O 0.36722 0.02922 0.0874 0.0
O14 O 0.14562 0.84915 0.26918 0.0
O15 O 0.12874 0.80735 0.11483 0.0
C16 C 0.08087 0.78816 0.19835 0.0
O17 O 0.37291 0.19346 0.26462 0.0
O18 O 0.55791 0.26598 0.30038 0.0
C19 C 0.16436 0.13005 0.21244 0.0
C20 C 0.47845 0.28106 0.26449 0.0
Zn21 Zn 0.77702 0.84461 0.12042 0.0
Zn22 Zn 0.60122 0.38814 0.46135 0.0
Zn23 Zn 0.71175 0.61944 0.29316 0.0
C24 C 0.49098 0.39384 0.28525 0.0
C25 C 0.68486 0.58966 0.53831 0.0
O26 O 0.88449 0.67017 0.25212 0.0
O27 O 0.92255 0.81974 0.15561 0.0
C28 C 0.57431 0.62658 0.10589 0.0
O29 O 0.5603 0.4749 0.22805 0.0
O30 O 0.49417 0.42056 0.37479 0.0
O31 O 0.64674 0.4911 0.57718 0.0
O32 O 0.69498 0.60072 0.44538 0.0
O33 O 0.60065 0.72371 0.14299 0.0
O34 O 0.59522 0.56079 0.16079 0.0
O35 O 0.75088 0.7888 0.3445 0.0
O36 O 0.65095 0.80467 0.22684 0.0
C37 C 0.71868 0.85135 0.29914 0.0
O38 O 0.83557 0.56048 0.29552 0.0
O39 O 0.75057 0.40757 0.39692 0.0
C40 C 0.95621 0.75778 0.20169 0.0
C41 C 0.83187 0.47294 0.33799 0.0
Zn42 Zn 0.94937 0.13044 0.13188 0.0
Zn43 Zn 0.84924 0.27124 0.46925 0.0
Zn44 Zn 0.90916 0.22533 0.28537 0.0
C45 C 0.9223 0.4436 0.32018 0.0
C46 C 0.03316 0.24896 0.49851 0.0
O47 O 0.77328 0.04916 0.28307 0.0
O48 O 0.901 -0.00079 0.2403 0.0
C49 C 0.00564 0.35595 0.0839 0.0
O50 O 0.90236 0.37551 0.24761 0.0
O51 O 0.96166 0.42317 0.39731 0.0
O52 O 0.93597 0.20876 0.54265 0.0
O53 O 0.03906 0.2647 0.4043 0.0
O54 O 0.06743 0.30796 0.09426 0.0
O55 O 0.92959 0.33414 0.15215 0.0
O56 O 0.06617 0.2053 0.30526 0.0
O57 O 0.11892 0.26258 0.15559 0.0
C58 C 0.13616 0.22153 0.23332 0.0
O59 O 0.71401 0.10288 0.31114 0.0
O60 O 0.67369 0.17124 0.44492 0.0
C61 C 0.80626 0.9739 0.28399 0.0
C62 C 0.63822 0.10289 0.37185 0.0
Zn63 Zn 0.94687 0.14971 0.96164 0.0
Zn64 Zn 0.20334 0.51696 0.57918 0.0
Zn65 Zn 0.01408 0.32747 0.76699 0.0
C66 C 0.01129 0.51694 0.6581 0.0
C67 C 0.14073 0.31012 0.55764 0.0
O68 O 0.13463 0.26252 0.74495 0.0
O69 O 0.06545 0.13113 0.86502 0.0
C70 C 0.97106 0.36016 0.98128 0.0
O71 O -0.00656 0.47733 0.7451 0.0
O72 O 0.02674 0.45748 0.59367 0.0
O73 O 0.22919 0.38872 0.51301 0.0
O74 O 0.13541 0.32896 0.65083 0.0
O75 O 0.88205 0.267 0.95492 0.0
O76 O 0.05043 0.40558 0.91565 0.0
O77 O 0.85854 0.15909 0.74679 0.0
O78 O 0.81375 0.16536 0.89764 0.0
C79 C 0.79187 0.10695 0.81919 0.0
O80 O 0.20414 0.38769 0.75262 0.0
O81 O 0.27874 0.5717 0.71752 0.0
C82 C 0.12919 0.17396 0.78837 0.0
C83 C 0.28667 0.49368 0.76385 0.0
Zn84 Zn 0.2335 0.8501 0.56427 0.0
Zn85 Zn 0.16984 0.04136 0.93889 0.0
Zn86 Zn 0.2133 0.90677 0.7213 0.0
C87 C 0.21547 0.13726 0.76253 0.0
C88 C 0.35462 0.00329 0.91344 0.0
O89 O 0.07716 0.71687 0.70564 0.0
O90 O 0.14339 0.68064 0.56925 0.0
C91 C 0.22622 0.02379 0.5076 0.0
O92 O 0.18654 0.05706 0.69806 0.0
O93 O 0.28116 0.13985 0.83151 0.0
O94 O 0.33616 0.08497 0.89185 0.0
O95 O 0.33303 0.92914 0.84474 0.0
O96 O 0.18841 0.92754 0.46531 0.0
O97 O 0.24224 0.03217 0.60175 0.0
O98 O 0.36877 0.89793 0.74752 0.0
O99 O 0.40735 0.92421 0.59055 0.0
C100 C 0.43489 0.90705 0.67506 0.0
O101 O 0.04295 0.78519 0.76336 0.0
O102 O 0.02327 0.88568 0.88756 0.0
C103 C 0.07662 0.64364 0.64306 0.0
C104 C -0.01883 0.79842 0.82953 0.0
Zn105 Zn 0.49692 0.63719 0.59752 0.0
Zn106 Zn 0.83326 0.83806 0.97705 0.0
Zn107 Zn 0.62823 0.73236 0.79638 0.0
C108 C 0.85582 0.71609 0.83489 0.0
C109 C 0.60534 0.62964 1.00214 0.0
O110 O 0.56634 0.84731 0.73813 0.0
O111 O 0.4405 0.74724 0.61738 0.0
C112 C 0.70635 0.68694 0.59864 0.0
O113 O 0.7937 0.73236 0.77178 0.0
O114 O 0.8134 0.68803 0.92029 0.0
O115 O 0.71141 0.6588 0.98563 0.0
O116 O 0.55056 0.65335 0.93685 0.0
O117 O 0.66625 0.74808 0.56616 0.0
O118 O 0.7034 0.67058 0.69143 0.0
O119 O 0.46452 0.59681 0.8444 0.0
O120 O 0.46085 0.51406 0.70555 0.0
C121 C 0.40625 0.51772 0.78122 0.0
O122 O 0.67268 0.90561 0.78625 0.0
O123 O 0.81299 0.96132 0.8983 0.0
C124 C 0.48682 0.83322 0.67548 0.0
C125 C 0.75908 -0.01454 0.83323 0.0
loop_
_geom_bond_atom_site_label_1
_geom_bond_atom_site_label_2
_geom_bond_distance
_geom_bond_site_symmetry_2
_ccdc_geom_bond_type
Zn0 O6 1.920 1_565 S
Zn0 O12 1.898 . S
Zn0 O15 1.905 . S
Zn1 O9 1.905 . S
Zn1 O10 1.898 . S
Zn1 O18 1.920 . S
Zn2 O5 2.080 . S
Zn2 O8 2.114 . S
Zn2 O11 2.120 . S
Zn2 O13 2.120 . S
Zn2 O14 2.114 1_545 S
Zn2 O17 2.080 . S
C3 O8 1.166 . S
C3 O9 1.182 . S
C4 O10 1.167 . S
C4 O11 1.299 . S
O5 Zn2 2.080 . S
O5 C19 1.305 . S
O6 Zn0 1.920 1_545 S
O6 C19 1.234 . S
C7 O12 1.167 1_545 S
C7 O13 1.299 . S
O8 Zn2 2.114 . S
O8 C3 1.166 . S
O9 Zn1 1.905 . S
O9 C3 1.182 . S
O10 Zn1 1.898 . S
O10 C4 1.167 . S
O11 Zn2 2.120 . S
O11 C4 1.299 . S
O12 Zn0 1.898 . S
O12 C7 1.167 1_565 S
O13 Zn2 2.120 . S
O13 C7 1.299 . S
O14 Zn2 2.114 1_565 S
O14 C16 1.166 . S
O15 Zn0 1.905 . S
O15 C16 1.182 . S
C16 O14 1.166 . S
C16 O15 1.182 . S
O17 Zn2 2.080 . S
O17 C20 1.305 . S
O18 Zn1 1.920 . S
O18 C20 1.234 . S
C19 O5 1.305 . S
C19 O6 1.234 . S
C20 O17 1.305 . S
C20 O18 1.234 . S
Zn21 O27 1.920 1_655 S
Zn21 O33 1.898 . S
Zn21 O36 1.905 . S
Zn22 O30 1.905 . S
Zn22 O31 1.898 . S
Zn22 O39 1.920 . S
Zn23 O26 2.080 . S
Zn23 O29 2.114 . S
Zn23 O32 2.120 . S
Zn23 O34 2.120 . S
Zn23 O35 2.114 . S
Zn23 O38 2.080 . S
C24 O29 1.166 . S
C24 O30 1.182 . S
C25 O31 1.167 . S
C25 O32 1.299 . S
O26 Zn23 2.080 . S
O26 C40 1.305 1_655 S
O27 Zn21 1.920 1_455 S
O27 C40 1.234 . S
C28 O33 1.167 . S
C28 O34 1.299 . S
O29 Zn23 2.114 . S
O29 C24 1.166 . S
O30 Zn22 1.905 . S
O30 C24 1.182 . S
O31 Zn22 1.898 . S
O31 C25 1.167 . S
O32 Zn23 2.120 . S
O32 C25 1.299 . S
O33 Zn21 1.898 . S
O33 C28 1.167 . S
O34 Zn23 2.120 . S
O34 C28 1.299 . S
O35 Zn23 2.114 . S
O35 C37 1.166 . S
O36 Zn21 1.905 . S
O36 C37 1.182 . S
C37 O35 1.166 . S
C37 O36 1.182 . S
O38 Zn23 2.080 . S
O38 C41 1.305 . S
O39 Zn22 1.920 . S
O39 C41 1.234 . S
C40 O26 1.305 1_455 S
C40 O27 1.234 . S
C41 O38 1.305 . S
C41 O39 1.234 . S
Zn42 O48 1.920 1_445 S
Zn42 O54 1.898 . S
Zn42 O57 1.905 . S
Zn43 O51 1.905 . S
Zn43 O52 1.898 . S
Zn43 O60 1.920 . S
Zn44 O47 2.080 . S
Zn44 O50 2.114 . S
Zn44 O53 2.120 . S
Zn44 O55 2.120 . S
Zn44 O56 2.114 1_655 S
Zn44 O59 2.080 . S
C45 O50 1.166 . S
C45 O51 1.182 . S
C46 O52 1.167 . S
C46 O53 1.299 . S
O47 Zn44 2.080 . S
O47 C61 1.305 1_545 S
O48 Zn42 1.920 1_665 S
O48 C61 1.234 . S
C49 O54 1.167 1_655 S
C49 O55 1.299 . S
O50 Zn44 2.114 . S
O50 C45 1.166 . S
O51 Zn43 1.905 . S
O51 C45 1.182 . S
O52 Zn43 1.898 . S
O52 C46 1.167 . S
O53 Zn44 2.120 . S
O53 C46 1.299 . S
O54 Zn42 1.898 . S
O54 C49 1.167 1_455 S
O55 Zn44 2.120 . S
O55 C49 1.299 . S
O56 Zn44 2.114 1_455 S
O56 C58 1.166 . S
O57 Zn42 1.905 . S
O57 C58 1.182 . S
C58 O56 1.166 . S
C58 O57 1.182 . S
O59 Zn44 2.080 . S
O59 C62 1.305 . S
O60 Zn43 1.920 . S
O60 C62 1.234 . S
C61 O47 1.305 1_565 S
C61 O48 1.234 . S
C62 O59 1.305 . S
C62 O60 1.234 . S
Zn63 O69 1.920 1_655 S
Zn63 O75 1.898 . S
Zn63 O78 1.905 . S
Zn64 O72 1.905 . S
Zn64 O73 1.898 . S
Zn64 O81 1.920 . S
Zn65 O68 2.080 . S
Zn65 O71 2.114 . S
Zn65 O74 2.120 . S
Zn65 O76 2.120 . S
Zn65 O77 2.114 1_455 S
Zn65 O80 2.080 . S
C66 O71 1.166 . S
C66 O72 1.182 . S
C67 O73 1.167 . S
C67 O74 1.299 . S
O68 Zn65 2.080 . S
O68 C82 1.305 . S
O69 Zn63 1.920 1_455 S
O69 C82 1.234 . S
C70 O75 1.167 1_455 S
C70 O76 1.299 . S
O71 Zn65 2.114 . S
O71 C66 1.166 . S
O72 Zn64 1.905 . S
O72 C66 1.182 . S
O73 Zn64 1.898 . S
O73 C67 1.167 . S
O74 Zn65 2.120 . S
O74 C67 1.299 . S
O75 Zn63 1.898 . S
O75 C70 1.167 1_655 S
O76 Zn65 2.120 . S
O76 C70 1.299 . S
O77 Zn65 2.114 1_655 S
O77 C79 1.166 . S
O78 Zn63 1.905 . S
O78 C79 1.182 . S
C79 O77 1.166 . S
C79 O78 1.182 . S
O80 Zn65 2.080 . S
O80 C83 1.305 . S
O81 Zn64 1.920 . S
O81 C83 1.234 . S
C82 O68 1.305 . S
C82 O69 1.234 . S
C83 O80 1.305 . S
C83 O81 1.234 . S
Zn84 O90 1.920 . S
Zn84 O96 1.898 . S
Zn84 O99 1.905 . S
Zn85 O93 1.905 . S
Zn85 O94 1.898 . S
Zn85 O102 1.920 1_445 S
Zn86 O89 2.080 . S
Zn86 O92 2.114 1_565 S
Zn86 O95 2.120 . S
Zn86 O97 2.120 . S
Zn86 O98 2.114 . S
Zn86 O101 2.080 . S
C87 O92 1.166 . S
C87 O93 1.182 . S
C88 O94 1.167 1_565 S
C88 O95 1.299 . S
O89 Zn86 2.080 . S
O89 C103 1.305 . S
O90 Zn84 1.920 . S
O90 C103 1.234 . S
C91 O96 1.167 . S
C91 O97 1.299 . S
O92 Zn86 2.114 1_545 S
O92 C87 1.166 . S
O93 Zn85 1.905 . S
O93 C87 1.182 . S
O94 Zn85 1.898 . S
O94 C88 1.167 1_545 S
O95 Zn86 2.120 . S
O95 C88 1.299 . S
O96 Zn84 1.898 . S
O96 C91 1.167 . S
O97 Zn86 2.120 . S
O97 C91 1.299 . S
O98 Zn86 2.114 . S
O98 C100 1.166 . S
O99 Zn84 1.905 . S
O99 C100 1.182 . S
C100 O98 1.166 . S
C100 O99 1.182 . S
O101 Zn86 2.080 . S
O101 C104 1.305 1_455 S
O102 Zn85 1.920 1_665 S
O102 C104 1.234 . S
C103 O89 1.305 . S
C103 O90 1.234 . S
C104 O101 1.305 1_655 S
C104 O102 1.234 . S
Zn105 O111 1.920 . S
Zn105 O117 1.898 . S
Zn105 O120 1.905 . S
Zn106 O114 1.905 . S
Zn106 O115 1.898 . S
Zn106 O123 1.920 1_565 S
Zn107 O110 2.080 . S
Zn107 O113 2.114 . S
Zn107 O116 2.120 . S
Zn107 O118 2.120 . S
Zn107 O119 2.114 . S
Zn107 O122 2.080 . S
C108 O113 1.166 . S
C108 O114 1.182 . S
C109 O115 1.167 . S
C109 O116 1.299 . S
O110 Zn107 2.080 . S
O110 C124 1.305 . S
O111 Zn105 1.920 . S
O111 C124 1.234 . S
C112 O117 1.167 . S
C112 O118 1.299 . S
O113 Zn107 2.114 . S
O113 C108 1.166 . S
O114 Zn106 1.905 . S
O114 C108 1.182 . S
O115 Zn106 1.898 . S
O115 C109 1.167 . S
O116 Zn107 2.120 . S
O116 C109 1.299 . S
O117 Zn105 1.898 . S
O117 C112 1.167 . S
O118 Zn107 2.120 . S
O118 C112 1.299 . S
O119 Zn107 2.114 . S
O119 C121 1.166 . S
O120 Zn105 1.905 . S
O120 C121 1.182 . S
C121 O119 1.166 . S
C121 O120 1.182 . S
O122 Zn107 2.080 . S
O122 C125 1.305 1_565 S
O123 Zn106 1.920 1_545 S
O123 C125 1.234 . S
C124 O110 1.305 . S
C124 O111 1.234 . S
C125 O122 1.305 1_545 S
C125 O123 1.234 . S
C88 C7 1.013 1_566 S
C112 C25 1.633 . S
C49 C70 1.013 1_654 S
C4 C91 1.633 1_545 S
C109 C28 1.013 1_556 S
C46 C67 1.633 1_655 S
C3 C62 1.369 . S
C24 C20 1.369 . S
C45 C41 1.369 . S
C66 C103 1.369 . S
C100 C124 1.369 . S
C83 C121 1.369 . S
C19 C58 1.123 . S
C40 C16 1.123 . S
C61 C37 1.123 . S
C82 C87 1.123 . S
C104 C108 1.123 . S
C79 C125 1.123 . S
