# Generated by pormake.
# Topology pcu, (6)-cn, num edge types: 1
# Building blocks:
#     Node 0, Type 0, BuildingBlock: BETGAK_clean_sbu_0, # of connection points: 6
#     Edge 1, Type (0, 0), BuildingBlock: XUDNAN_clean_linker_2, # of connection points: 2
#     Edge 2, Type (0, 0), BuildingBlock: XUDNAN_clean_linker_2, # of connection points: 2
#     Edge 3, Type (0, 0), BuildingBlock: XUDNAN_clean_linker_2, # of connection points: 2
# Relax obj value: 0.000
# Max RMSD: 0.000
# Mean RMSD: 0.000
data_MOF--net-pcu--node1-BETGAK_clean_sbu_0--edge1-XUDNAN_clean_linker_2
_symmetry_space_group_name_H-M    P1
_symmetry_Int_Tables_number       1
_symmetry_cell_setting            triclinic
loop_
_symmetry_equiv_pos_as_xyz
'x, y, z'
_cell_length_a     15.269865
_cell_length_b     25.178473
_cell_length_c     14.322554
_cell_angle_alpha  96.821868
_cell_angle_beta   86.434038
_cell_angle_gamma 121.90905
loop_
_atom_site_label
_atom_site_type_symbol
_atom_site_fract_x
_atom_site_fract_y
_atom_site_fract_z
_atom_type_partial_charge
La0 La 0.06982 0.08771 1.00178 0.0
La1 La 0.94469 0.94894 1.01554 0.0
C2 C 0.14041 0.19748 0.95636 0.0
C3 C 0.12308 0.25062 0.9777 0.0
C4 C 0.17804 0.29794 0.05089 0.0
C5 C 0.17059 0.35136 0.06553 0.0
C6 C 0.10862 0.3594 1.00702 0.0
C7 C 0.05117 0.31125 0.93545 0.0
C8 C 0.05871 0.25765 0.92066 0.0
C9 C 0.04452 0.05411 0.17526 0.0
C10 C 0.82353 1.01639 0.02895 0.0
C11 C 0.87448 0.83709 0.05059 0.0
C12 C 0.91289 0.79399 0.05292 0.0
C13 C 0.86853 0.73786 0.99258 0.0
C14 C 0.90302 0.6962 0.99241 0.0
C15 C 0.98248 0.70928 0.05326 0.0
C16 C 1.02621 0.7654 0.11445 0.0
C17 C 0.99209 0.80731 0.11412 0.0
C18 C 0.95463 0.98211 0.84612 0.0
C19 C 0.18918 1.02149 1.00842 0.0
O20 O 0.17801 0.1846 1.02387 0.0
O21 O 0.06976 0.14628 0.90803 0.0
O22 O 0.12468 0.10448 0.14829 0.0
O23 O 0.9806 0.02934 0.10927 0.0
O24 O 0.90912 0.06618 1.00079 0.0
O25 O 0.82291 0.96696 0.05247 0.0
O26 O 0.87119 0.85284 0.96779 0.0
O27 O 0.90707 0.88491 0.11538 0.0
O28 O 0.87458 0.9363 0.88251 0.0
O29 O 0.02997 1.00715 0.90292 0.0
O30 O 0.10172 0.97399 0.03639 0.0
O31 O 0.19279 0.06854 0.97248 0.0
H32 H 0.22893 0.29452 0.09589 0.0
H33 H 0.21465 0.38688 0.12232 0.0
H34 H 1.00334 0.31603 0.88852 0.0
H35 H 1.01617 0.22252 0.86295 0.0
H36 H 0.80727 0.72634 0.94475 0.0
H37 H 0.86839 0.65424 0.94318 0.0
H38 H 0.08638 0.77685 0.16345 0.0
H39 H 0.02776 0.85004 0.16183 0.0
H40 H 0.17144 0.10052 0.33307 0.0
H41 H 0.85503 0.972 0.23922 0.0
H42 H 0.80175 0.94594 0.40073 0.0
H43 H 0.16623 1.00255 0.50267 0.0
H44 H 0.24475 0.06709 0.58887 0.0
H45 H 0.26014 0.07869 0.46577 0.0
H46 H 0.22771 0.17018 0.50037 0.0
H47 H 0.2116 0.1586 0.62355 0.0
H48 H 0.11127 0.15655 0.56029 0.0
H49 H 0.77898 0.93428 0.56749 0.0
H50 H 0.78848 0.92841 0.73523 0.0
H51 H 0.12023 0.05963 0.73136 0.0
C52 C 0.09109 0.06705 0.34707 0.0
C53 C 1.01713 0.03859 0.27348 0.0
C54 C 0.91297 0.99452 0.29407 0.0
C55 C 0.88174 0.97953 0.38585 0.0
C56 C 0.95564 1.00849 0.45676 0.0
C57 C 0.05835 0.05072 0.43916 0.0
C58 C 0.12129 0.07252 0.52953 0.0
C59 C 0.20294 0.0541 0.52119 0.0
C60 C 0.17091 0.1437 0.55491 0.0
C61 C 0.03751 0.03551 0.59988 0.0
C62 C 0.94274 0.99974 0.55542 0.0
C63 C 0.85268 0.96168 0.6032 0.0
C64 C 0.85919 0.95874 0.69883 0.0
C65 C 0.9552 0.99305 0.74659 0.0
C66 C 0.04583 0.03282 0.69671 0.0
H67 H 0.38139 0.08158 0.92069 0.0
H68 H 0.20962 0.96347 0.14389 0.0
H69 H 0.35808 0.95709 0.17859 0.0
H70 H 0.50543 0.99959 0.83748 0.0
H71 H 0.62802 0.06798 0.81278 0.0
H72 H 0.51158 0.06932 0.80885 0.0
H73 H 0.58916 0.16822 0.92966 0.0
H74 H 0.70605 0.16722 0.93384 0.0
H75 H 0.63648 0.16626 0.04065 0.0
H76 H 0.51331 0.95431 0.18303 0.0
H77 H 0.67642 0.95741 0.15817 0.0
H78 H 0.75739 0.07849 0.93506 0.0
C79 C 0.37614 0.0553 0.97759 0.0
C80 C 0.28362 1.02265 0.02894 0.0
C81 C 0.27901 0.98818 0.10248 0.0
C82 C 0.36328 0.98457 0.12351 0.0
C83 C 0.45234 1.01589 0.07081 0.0
C84 C 0.46039 0.05084 0.99963 0.0
C85 C 0.56456 0.07661 0.95122 0.0
C86 C 0.55157 0.05188 0.84637 0.0
C87 C 0.6278 0.14888 0.96467 0.0
C88 C 0.61163 0.04923 1.00524 0.0
C89 C 0.54512 1.01477 0.07417 0.0
C90 C 0.56699 0.98173 0.13015 0.0
C91 C 0.65947 0.98345 0.11506 0.0
C92 C 0.72913 1.01819 0.04487 0.0
C93 C 0.70572 0.05226 0.99 0.0
H94 H 0.87052 0.5789 0.02526 0.0
H95 H 0.18187 0.73938 0.07587 0.0
H96 H 0.2459 0.66759 0.07226 0.0
H97 H 0.88878 0.47406 0.16164 0.0
H98 H 0.81439 0.40542 0.08017 0.0
H99 H 0.79186 0.46922 0.08924 0.0
H100 H 0.82408 0.4778 0.91044 0.0
H101 H 0.8467 0.41402 0.90083 0.0
H102 H 0.94304 0.48849 0.86052 0.0
H103 H 0.27738 0.57875 0.06134 0.0
H104 H 0.27443 0.47927 0.04247 0.0
H105 H 0.94366 0.37559 0.9951 0.0
C106 C 0.95235 0.59921 0.03491 0.0
C107 C 1.02077 0.66527 0.05155 0.0
C108 C 0.12712 0.68922 0.06497 0.0
C109 C 0.16456 0.64874 0.06229 0.0
C110 C 0.0951 0.58416 0.04561 0.0
C111 C 0.99127 0.55945 0.03188 0.0
C112 C 0.93334 0.48818 1.01391 0.0
C113 C 0.85231 0.45742 0.09084 0.0
C114 C 0.88389 0.46582 0.91558 0.0
C115 C 1.02088 0.47672 1.01979 0.0
C116 C 0.11343 0.5328 0.03835 0.0
C117 C 0.20525 0.53455 0.04718 0.0
C118 C 0.2026 0.4776 0.03693 0.0
C119 C 0.10874 0.41926 1.018 0.0
C120 C 1.0168 0.41921 1.00899 0.0
loop_
_geom_bond_atom_site_label_1
_geom_bond_atom_site_label_2
_geom_bond_distance
_geom_bond_site_symmetry_2
_ccdc_geom_bond_type
La0 C2 2.928 . S
La0 O20 2.521 . S
La0 O21 2.628 1_554 S
La0 O22 2.554 . S
La0 O23 2.757 1_545 S
La0 O24 2.470 1_455 S
La0 O29 2.482 1_454 S
La0 O31 2.503 . S
La1 C11 2.928 . S
La1 O23 2.482 1_656 S
La1 O25 2.503 . S
La1 O26 2.521 . S
La1 O27 2.628 1_556 S
La1 O28 2.554 . S
La1 O29 2.757 1_565 S
La1 O30 2.470 1_655 S
C2 La0 2.928 . S
C2 C3 1.503 . S
C2 O20 1.261 . S
C2 O21 1.243 1_554 S
C3 C2 1.503 . S
C3 C4 1.394 . S
C3 C8 1.373 1_454 S
C4 C3 1.394 . S
C4 C5 1.380 . S
C4 H32 0.930 . S
C5 C4 1.380 . S
C5 C6 1.387 . S
C5 H33 0.930 . S
C6 C5 1.387 . S
C6 C7 1.361 1_454 S
C7 C6 1.361 1_656 S
C7 C8 1.396 . S
C7 H34 0.929 . S
C8 C3 1.373 1_656 S
C8 C7 1.396 . S
C8 H35 0.929 . S
C9 O22 1.240 . S
C9 O23 1.289 1_545 S
C10 O24 1.258 1_565 S
C10 O25 1.255 1_554 S
C11 La1 2.928 . S
C11 C12 1.503 . S
C11 O26 1.261 . S
C11 O27 1.243 1_556 S
C12 C11 1.503 . S
C12 C13 1.394 . S
C12 C17 1.373 1_656 S
C13 C12 1.394 . S
C13 C14 1.380 . S
C13 H36 0.930 . S
C14 C13 1.380 . S
C14 C15 1.384 . S
C14 H37 0.930 . S
C15 C14 1.384 . S
C15 C16 1.363 1_656 S
C16 C15 1.363 1_454 S
C16 C17 1.396 . S
C16 H38 0.929 . S
C17 C12 1.373 1_454 S
C17 C16 1.396 . S
C17 H39 0.929 . S
C18 O28 1.240 . S
C18 O29 1.289 1_565 S
C19 O30 1.258 1_545 S
C19 O31 1.255 1_556 S
O20 La0 2.521 . S
O20 C2 1.261 . S
O21 La0 2.628 1_556 S
O21 C2 1.243 1_556 S
O22 La0 2.554 . S
O22 C9 1.240 . S
O23 La0 2.757 1_565 S
O23 La1 2.482 1_454 S
O23 C9 1.289 1_565 S
O24 La0 2.470 1_655 S
O24 C10 1.258 1_545 S
O25 La1 2.503 . S
O25 C10 1.255 1_556 S
O26 La1 2.521 . S
O26 C11 1.261 . S
O27 La1 2.628 1_554 S
O27 C11 1.243 1_554 S
O28 La1 2.554 . S
O28 C18 1.240 . S
O29 La0 2.482 1_656 S
O29 La1 2.757 1_545 S
O29 C18 1.289 1_545 S
O30 La1 2.470 1_455 S
O30 C19 1.258 1_565 S
O31 La0 2.503 . S
O31 C19 1.255 1_554 S
H32 C4 0.930 . S
H33 C5 0.930 . S
H34 C7 0.929 . S
H35 C8 0.929 . S
H36 C13 0.930 . S
H37 C14 0.930 . S
H38 C16 0.929 . S
H39 C17 0.929 . S
H40 C52 0.930 . S
H41 C54 0.930 . S
H42 C55 0.930 . S
H43 C59 0.959 . S
H44 C59 0.959 . S
H45 C59 0.961 . S
H46 C60 0.960 . S
H47 C60 0.961 1_455 S
H48 C60 0.959 . S
H49 C63 0.929 . S
H50 C64 0.931 . S
H51 C66 0.930 . S
C52 H40 0.930 . S
C52 C53 1.399 1_445 S
C52 C57 1.399 . S
C53 C52 1.399 1_665 S
C53 C54 1.376 . S
C54 H41 0.930 . S
C54 C53 1.376 . S
C54 C55 1.388 . S
C55 H42 0.930 . S
C55 C54 1.388 . S
C55 C56 1.390 . S
C56 C55 1.390 . S
C56 C57 1.394 1_665 S
C56 C62 1.465 . S
C57 C52 1.399 . S
C57 C56 1.394 1_445 S
C57 C58 1.516 . S
C58 C57 1.516 . S
C58 C59 1.502 . S
C58 C60 1.561 1_455 S
C58 C61 1.526 . S
C59 H43 0.959 . S
C59 H44 0.959 . S
C59 H45 0.961 . S
C59 C58 1.502 . S
C60 H46 0.960 . S
C60 H47 0.961 1_655 S
C60 H48 0.959 . S
C60 C58 1.561 1_655 S
C61 C58 1.526 . S
C61 C62 1.396 1_445 S
C61 C66 1.390 . S
C62 C56 1.465 . S
C62 C61 1.396 1_665 S
C62 C63 1.399 . S
C63 H49 0.929 . S
C63 C62 1.399 . S
C63 C64 1.385 . S
C64 H50 0.931 . S
C64 C63 1.385 . S
C64 C65 1.389 . S
C65 C64 1.389 . S
C65 C66 1.387 1_665 S
C66 H51 0.930 . S
C66 C61 1.390 . S
C66 C65 1.387 1_445 S
H67 C79 0.930 . S
H68 C81 0.930 . S
H69 C82 0.930 . S
H70 C86 0.959 . S
H71 C86 0.959 . S
H72 C86 0.961 . S
H73 C87 0.960 . S
H74 C87 0.961 . S
H75 C87 0.959 . S
H76 C90 0.929 . S
H77 C91 0.931 . S
H78 C93 0.930 . S
C79 H67 0.930 . S
C79 C80 1.399 1_556 S
C79 C84 1.399 . S
C80 C79 1.399 1_554 S
C80 C81 1.376 1_545 S
C81 H68 0.930 . S
C81 C80 1.376 1_565 S
C81 C82 1.388 . S
C82 H69 0.930 . S
C82 C81 1.388 . S
C82 C83 1.390 1_565 S
C83 C82 1.390 1_545 S
C83 C84 1.394 1_554 S
C83 C89 1.465 . S
C84 C79 1.399 . S
C84 C83 1.394 1_556 S
C84 C85 1.516 . S
C85 C84 1.516 . S
C85 C86 1.502 1_545 S
C85 C87 1.561 . S
C85 C88 1.526 . S
C86 H70 0.959 . S
C86 H71 0.959 . S
C86 H72 0.961 . S
C86 C85 1.502 1_565 S
C87 H73 0.960 . S
C87 H74 0.961 . S
C87 H75 0.959 . S
C87 C85 1.561 . S
C88 C85 1.526 . S
C88 C89 1.396 1_556 S
C88 C93 1.390 . S
C89 C83 1.465 . S
C89 C88 1.396 1_554 S
C89 C90 1.399 1_545 S
C90 H76 0.929 . S
C90 C89 1.399 1_565 S
C90 C91 1.385 . S
C91 H77 0.931 . S
C91 C90 1.385 . S
C91 C92 1.389 1_565 S
C92 C91 1.389 1_545 S
C92 C93 1.386 1_554 S
C93 H78 0.930 . S
C93 C88 1.390 . S
C93 C92 1.386 1_556 S
H94 C106 0.930 . S
H95 C108 0.930 . S
H96 C109 0.930 . S
H97 C113 0.959 . S
H98 C113 0.959 . S
H99 C113 0.961 . S
H100 C114 0.960 . S
H101 C114 0.961 . S
H102 C114 0.959 . S
H103 C117 0.929 . S
H104 C118 0.931 1_554 S
H105 C120 0.930 . S
C106 H94 0.930 . S
C106 C107 1.399 1_655 S
C106 C111 1.399 . S
C107 C106 1.399 1_455 S
C107 C108 1.376 . S
C108 H95 0.930 . S
C108 C107 1.376 . S
C108 C109 1.388 . S
C109 H96 0.930 . S
C109 C108 1.388 . S
C109 C110 1.390 . S
C110 C109 1.390 . S
C110 C111 1.394 1_455 S
C110 C116 1.465 . S
C111 C106 1.399 . S
C111 C110 1.394 1_655 S
C111 C112 1.516 . S
C112 C111 1.516 . S
C112 C113 1.502 1_556 S
C112 C114 1.561 . S
C112 C115 1.526 . S
C113 H97 0.959 . S
C113 H98 0.959 . S
C113 H99 0.961 . S
C113 C112 1.502 1_554 S
C114 H100 0.960 . S
C114 H101 0.961 . S
C114 H102 0.959 . S
C114 C112 1.561 . S
C115 C112 1.526 . S
C115 C116 1.396 1_655 S
C115 C120 1.390 . S
C116 C110 1.465 . S
C116 C115 1.396 1_455 S
C116 C117 1.399 . S
C117 H103 0.929 . S
C117 C116 1.399 . S
C117 C118 1.385 . S
C118 H104 0.931 1_556 S
C118 C117 1.385 . S
C118 C119 1.390 . S
C119 C118 1.390 . S
C119 C120 1.388 1_455 S
C120 H105 0.930 . S
C120 C115 1.390 . S
C120 C119 1.388 1_655 S
C53 C9 1.479 1_665 S
C65 C18 1.406 . S
C80 C19 1.493 1_554 S
C92 C10 1.459 1_545 S
C107 C15 1.495 1_455 S
C119 C6 1.486 1_556 S
