# Generated by pormake.
# Topology mmt, (4)-cn, num edge types: 1
# Building blocks:
#     Node 0, Type 0, BuildingBlock: QUQFOY_clean_sbu_3, # of connection points: 4
#     Node 1, Type 0, BuildingBlock: QUQFOY_clean_sbu_3, # of connection points: 4
#     Node 2, Type 0, BuildingBlock: QUQFOY_clean_sbu_3, # of connection points: 4
#     Node 3, Type 0, BuildingBlock: QUQFOY_clean_sbu_3, # of connection points: 4
#     Node 4, Type 0, BuildingBlock: QUQFOY_clean_sbu_3, # of connection points: 4
#     Node 5, Type 0, BuildingBlock: QUQFOY_clean_sbu_3, # of connection points: 4
#     Node 6, Type 0, BuildingBlock: QUQFOY_clean_sbu_3, # of connection points: 4
#     Node 7, Type 0, BuildingBlock: QUQFOY_clean_sbu_3, # of connection points: 4
#     Edge 8, Type (0, 0), None
#     Edge 9, Type (0, 0), None
#     Edge 10, Type (0, 0), None
#     Edge 11, Type (0, 0), None
#     Edge 12, Type (0, 0), None
#     Edge 13, Type (0, 0), None
#     Edge 14, Type (0, 0), None
#     Edge 15, Type (0, 0), None
#     Edge 16, Type (0, 0), None
#     Edge 17, Type (0, 0), None
#     Edge 18, Type (0, 0), None
#     Edge 19, Type (0, 0), None
#     Edge 20, Type (0, 0), None
#     Edge 21, Type (0, 0), None
#     Edge 22, Type (0, 0), None
#     Edge 23, Type (0, 0), None
# Relax obj value: 0.022
# Max RMSD: 0.042
# Mean RMSD: 0.042
data_MOF--net-mmt--node1-QUQFOY_clean_sbu_3--edge1-none
_symmetry_space_group_name_H-M    P1
_symmetry_Int_Tables_number       1
_symmetry_cell_setting            triclinic
loop_
_symmetry_equiv_pos_as_xyz
'x, y, z'
_cell_length_a     11.246628
_cell_length_b     17.617107
_cell_length_c     22.721222
_cell_angle_alpha  89.972091
_cell_angle_beta   89.999993
_cell_angle_gamma 89.998681
loop_
_atom_site_label
_atom_site_type_symbol
_atom_site_fract_x
_atom_site_fract_y
_atom_site_fract_z
_atom_type_partial_charge
C0 C 0.14642 0.71035 0.3091 0.0
O1 O 0.04937 0.73678 0.28977 0.0
Cd2 Cd -0.02552 0.63758 0.22722 0.0
O3 O 0.15792 0.63888 0.3144 0.0
Cd4 Cd 0.00378 0.5354 0.31698 0.0
C5 C 0.19352 0.50276 0.21296 0.0
O6 O 0.81355 0.56445 0.26453 0.0
O7 O 0.88294 0.44889 0.26325 0.0
O8 O 0.93129 0.55991 0.41644 0.0
C9 C 0.80026 0.49495 0.25061 0.0
O10 O 0.14401 0.56232 0.1929 0.0
C11 C -0.03807 0.4956 0.43669 0.0
O12 O 0.15954 0.47328 0.26119 0.0
O13 O 0.01566 0.45061 0.40197 0.0
C14 C 0.25209 0.75929 0.30901 0.0
O15 O 0.34889 0.73294 0.28931 0.0
Cd16 Cd 0.42407 0.83224 0.22688 0.0
O17 O 0.24065 0.83072 0.31458 0.0
Cd18 Cd 0.39446 0.93437 0.31703 0.0
C19 C 0.2048 0.96705 0.21289 0.0
O20 O 0.58462 0.90532 0.2646 0.0
O21 O 0.51537 0.02091 0.26329 0.0
O22 O 0.46702 0.90989 0.41649 0.0
C23 C 0.598 0.97482 0.25067 0.0
O24 O 0.25448 0.90761 0.19275 0.0
C25 C 0.43629 0.97418 0.43671 0.0
O26 O 0.23862 -0.00361 0.26118 0.0
O27 O 0.38248 0.01914 0.40196 0.0
C28 C 0.64642 0.25943 0.12539 0.0
O29 O 0.54938 0.23301 0.14474 0.0
Cd30 Cd 0.47447 0.33222 0.20727 0.0
O31 O 0.65791 0.3309 0.12007 0.0
Cd32 Cd 0.50379 0.43439 0.11747 0.0
C33 C 0.6935 0.46704 0.22151 0.0
O34 O 0.31357 0.40535 0.16994 0.0
O35 O 0.38294 0.52091 0.1712 0.0
O36 O 0.43128 0.40987 0.01802 0.0
C37 C 0.30027 0.47485 0.18384 0.0
O38 O 0.64399 0.40749 0.24158 0.0
C39 C 0.46193 0.47418 -0.00224 0.0
O40 O 0.65955 0.4965 0.17326 0.0
O41 O 0.51567 0.51917 0.03248 0.0
C42 C 0.75209 0.21049 0.12548 0.0
O43 O 0.84888 0.23683 0.1452 0.0
Cd44 Cd 0.92408 0.13753 0.20761 0.0
O45 O 0.74065 0.13906 0.11989 0.0
Cd46 Cd 0.89445 0.0354 0.11743 0.0
C47 C 0.70481 0.0027 0.22158 0.0
O48 O 0.0846 0.06445 0.16986 0.0
O49 O 0.01537 0.94886 0.17116 0.0
O50 O -0.03298 0.05989 0.01797 0.0
C51 C 0.09799 -0.00506 0.18379 0.0
O52 O 0.7545 0.06214 0.24173 0.0
C53 C 0.93629 -0.0044 -0.00225 0.0
O54 O 0.73861 0.97339 0.17328 0.0
O55 O 0.88248 0.95064 0.0325 0.0
C56 C 0.75181 0.25943 0.62536 0.0
O57 O 0.84886 0.233 0.64469 0.0
Cd58 Cd 0.92375 0.3322 0.70723 0.0
O59 O 0.74031 0.3309 0.62006 0.0
Cd60 Cd 0.89444 0.43438 0.61747 0.0
C61 C 0.70471 0.46702 0.72149 0.0
O62 O 0.08467 0.40533 0.66993 0.0
O63 O 0.01528 0.52089 0.67121 0.0
O64 O -0.03306 0.40987 0.51802 0.0
C65 C 0.09797 0.47483 0.68384 0.0
O66 O 0.75422 0.40746 0.74156 0.0
C67 C 0.93629 0.47418 0.49776 0.0
O68 O 0.73868 0.4965 0.67326 0.0
O69 O 0.88257 0.51917 0.53248 0.0
C70 C 0.64613 0.21049 0.62545 0.0
O71 O 0.54934 0.23684 0.64515 0.0
Cd72 Cd 0.47415 0.13754 0.70757 0.0
O73 O 0.65758 0.13906 0.61988 0.0
Cd74 Cd 0.50377 0.03541 0.61742 0.0
C75 C 0.69343 0.00273 0.72157 0.0
O76 O 0.31361 0.06446 0.66985 0.0
O77 O 0.38286 0.94888 0.67117 0.0
O78 O 0.43121 0.0599 0.51797 0.0
C79 C 0.30022 -0.00504 0.68379 0.0
O80 O 0.64374 0.06217 0.74171 0.0
C81 C 0.46193 -0.0044 0.49775 0.0
O82 O 0.65961 0.97339 0.67328 0.0
O83 O 0.51574 0.95064 0.5325 0.0
C84 C 0.25181 0.71035 0.80907 0.0
O85 O 0.34885 0.73677 0.78971 0.0
Cd86 Cd 0.42376 0.63756 0.72718 0.0
O87 O 0.24031 0.63888 0.81439 0.0
Cd88 Cd 0.39444 0.53539 0.81698 0.0
C89 C 0.20473 0.50274 0.71295 0.0
O90 O 0.58466 0.56443 0.76452 0.0
O91 O 0.51528 0.44888 0.76325 0.0
O92 O 0.46694 0.55991 0.91643 0.0
C93 C 0.59796 0.49493 0.75061 0.0
O94 O 0.25424 0.5623 0.69288 0.0
C95 C 0.43629 0.4956 0.93669 0.0
O96 O 0.23868 0.47328 0.76119 0.0
O97 O 0.38256 0.45061 0.90197 0.0
C98 C 0.14613 0.75929 0.80898 0.0
O99 O 0.04935 0.73295 0.78926 0.0
Cd100 Cd -0.02586 0.83225 0.72684 0.0
O101 O 0.15758 0.83072 0.81457 0.0
Cd102 Cd 0.00377 0.93438 0.81703 0.0
C103 C 0.19341 0.96708 0.71288 0.0
O104 O 0.81362 0.90533 0.76459 0.0
O105 O 0.88286 0.02092 0.76329 0.0
O106 O 0.9312 0.90989 0.91649 0.0
C107 C 0.80023 0.97484 0.75067 0.0
O108 O 0.14373 0.90764 0.69273 0.0
C109 C -0.03806 0.97418 0.93671 0.0
O110 O 0.15961 -0.00361 0.76118 0.0
O111 O 0.01575 0.01914 0.90196 0.0
loop_
_geom_bond_atom_site_label_1
_geom_bond_atom_site_label_2
_geom_bond_distance
_geom_bond_site_symmetry_2
_ccdc_geom_bond_type
C0 O1 1.306 . S
C0 O3 1.160 . S
O1 C0 1.306 . S
O1 Cd2 2.228 . S
Cd2 O1 2.228 . S
Cd2 O6 2.273 1_455 S
Cd2 O10 2.277 . S
O3 C0 1.160 . S
O3 Cd4 2.203 . S
Cd4 O3 2.203 . S
Cd4 O6 2.411 1_455 S
Cd4 O7 2.333 1_455 S
Cd4 O8 2.352 1_455 S
Cd4 O12 2.277 . S
Cd4 O13 2.356 . S
C5 O10 1.209 . S
C5 O12 1.226 . S
O6 Cd2 2.273 1_655 S
O6 Cd4 2.411 1_655 S
O6 C9 1.320 . S
O7 Cd4 2.333 1_655 S
O7 C9 1.214 . S
O8 Cd4 2.352 1_655 S
O8 C11 1.258 1_655 S
C9 O6 1.320 . S
C9 O7 1.214 . S
O10 Cd2 2.277 . S
O10 C5 1.209 . S
C11 O8 1.258 1_455 S
C11 O13 1.282 . S
O12 Cd4 2.277 . S
O12 C5 1.226 . S
O13 Cd4 2.356 . S
O13 C11 1.282 . S
C14 O15 1.306 . S
C14 O17 1.160 . S
O15 C14 1.306 . S
O15 Cd16 2.228 . S
Cd16 O15 2.228 . S
Cd16 O20 2.273 . S
Cd16 O24 2.277 . S
O17 C14 1.160 . S
O17 Cd18 2.203 . S
Cd18 O17 2.203 . S
Cd18 O20 2.411 . S
Cd18 O21 2.333 1_565 S
Cd18 O22 2.352 . S
Cd18 O26 2.277 1_565 S
Cd18 O27 2.356 1_565 S
C19 O24 1.209 . S
C19 O26 1.226 1_565 S
O20 Cd16 2.273 . S
O20 Cd18 2.411 . S
O20 C23 1.320 . S
O21 Cd18 2.333 1_545 S
O21 C23 1.214 1_545 S
O22 Cd18 2.352 . S
O22 C25 1.258 . S
C23 O20 1.320 . S
C23 O21 1.214 1_565 S
O24 Cd16 2.277 . S
O24 C19 1.209 . S
C25 O22 1.258 . S
C25 O27 1.282 1_565 S
O26 Cd18 2.277 1_545 S
O26 C19 1.226 1_545 S
O27 Cd18 2.356 1_545 S
O27 C25 1.282 1_545 S
C28 O29 1.306 . S
C28 O31 1.160 . S
O29 C28 1.306 . S
O29 Cd30 2.228 . S
Cd30 O29 2.228 . S
Cd30 O34 2.273 . S
Cd30 O38 2.277 . S
O31 C28 1.160 . S
O31 Cd32 2.203 . S
Cd32 O31 2.203 . S
Cd32 O34 2.411 . S
Cd32 O35 2.333 . S
Cd32 O36 2.352 . S
Cd32 O40 2.277 . S
Cd32 O41 2.356 . S
C33 O38 1.209 . S
C33 O40 1.226 . S
O34 Cd30 2.273 . S
O34 Cd32 2.411 . S
O34 C37 1.320 . S
O35 Cd32 2.333 . S
O35 C37 1.214 . S
O36 Cd32 2.352 . S
O36 C39 1.258 . S
C37 O34 1.320 . S
C37 O35 1.214 . S
O38 Cd30 2.277 . S
O38 C33 1.209 . S
C39 O36 1.258 . S
C39 O41 1.282 . S
O40 Cd32 2.277 . S
O40 C33 1.226 . S
O41 Cd32 2.356 . S
O41 C39 1.282 . S
C42 O43 1.306 . S
C42 O45 1.160 . S
O43 C42 1.306 . S
O43 Cd44 2.228 . S
Cd44 O43 2.228 . S
Cd44 O48 2.273 1_655 S
Cd44 O52 2.277 . S
O45 C42 1.160 . S
O45 Cd46 2.203 . S
Cd46 O45 2.203 . S
Cd46 O48 2.411 1_655 S
Cd46 O49 2.333 1_645 S
Cd46 O50 2.352 1_655 S
Cd46 O54 2.277 1_545 S
Cd46 O55 2.356 1_545 S
C47 O52 1.209 . S
C47 O54 1.226 1_545 S
O48 Cd44 2.273 1_455 S
O48 Cd46 2.411 1_455 S
O48 C51 1.320 . S
O49 Cd46 2.333 1_465 S
O49 C51 1.214 1_565 S
O50 Cd46 2.352 1_455 S
O50 C53 1.258 1_455 S
C51 O48 1.320 . S
C51 O49 1.214 1_545 S
O52 Cd44 2.277 . S
O52 C47 1.209 . S
C53 O50 1.258 1_655 S
C53 O55 1.282 1_545 S
O54 Cd46 2.277 1_565 S
O54 C47 1.226 1_565 S
O55 Cd46 2.356 1_565 S
O55 C53 1.282 1_565 S
C56 O57 1.306 . S
C56 O59 1.160 . S
O57 C56 1.306 . S
O57 Cd58 2.228 . S
Cd58 O57 2.228 . S
Cd58 O62 2.273 1_655 S
Cd58 O66 2.277 . S
O59 C56 1.160 . S
O59 Cd60 2.203 . S
Cd60 O59 2.203 . S
Cd60 O62 2.411 1_655 S
Cd60 O63 2.333 1_655 S
Cd60 O64 2.352 1_655 S
Cd60 O68 2.277 . S
Cd60 O69 2.356 . S
C61 O66 1.209 . S
C61 O68 1.226 . S
O62 Cd58 2.273 1_455 S
O62 Cd60 2.411 1_455 S
O62 C65 1.320 . S
O63 Cd60 2.333 1_455 S
O63 C65 1.214 . S
O64 Cd60 2.352 1_455 S
O64 C67 1.258 1_455 S
C65 O62 1.320 . S
C65 O63 1.214 . S
O66 Cd58 2.277 . S
O66 C61 1.209 . S
C67 O64 1.258 1_655 S
C67 O69 1.282 . S
O68 Cd60 2.277 . S
O68 C61 1.226 . S
O69 Cd60 2.356 . S
O69 C67 1.282 . S
C70 O71 1.306 . S
C70 O73 1.160 . S
O71 C70 1.306 . S
O71 Cd72 2.228 . S
Cd72 O71 2.228 . S
Cd72 O76 2.273 . S
Cd72 O80 2.277 . S
O73 C70 1.160 . S
O73 Cd74 2.203 . S
Cd74 O73 2.203 . S
Cd74 O76 2.411 . S
Cd74 O77 2.333 1_545 S
Cd74 O78 2.352 . S
Cd74 O82 2.277 1_545 S
Cd74 O83 2.356 1_545 S
C75 O80 1.209 . S
C75 O82 1.226 1_545 S
O76 Cd72 2.273 . S
O76 Cd74 2.411 . S
O76 C79 1.320 . S
O77 Cd74 2.333 1_565 S
O77 C79 1.214 1_565 S
O78 Cd74 2.352 . S
O78 C81 1.258 . S
C79 O76 1.320 . S
C79 O77 1.214 1_545 S
O80 Cd72 2.277 . S
O80 C75 1.209 . S
C81 O78 1.258 . S
C81 O83 1.282 1_545 S
O82 Cd74 2.277 1_565 S
O82 C75 1.226 1_565 S
O83 Cd74 2.356 1_565 S
O83 C81 1.282 1_565 S
C84 O85 1.306 . S
C84 O87 1.160 . S
O85 C84 1.306 . S
O85 Cd86 2.228 . S
Cd86 O85 2.228 . S
Cd86 O90 2.273 . S
Cd86 O94 2.277 . S
O87 C84 1.160 . S
O87 Cd88 2.203 . S
Cd88 O87 2.203 . S
Cd88 O90 2.411 . S
Cd88 O91 2.333 . S
Cd88 O92 2.352 . S
Cd88 O96 2.277 . S
Cd88 O97 2.356 . S
C89 O94 1.209 . S
C89 O96 1.226 . S
O90 Cd86 2.273 . S
O90 Cd88 2.411 . S
O90 C93 1.320 . S
O91 Cd88 2.333 . S
O91 C93 1.214 . S
O92 Cd88 2.352 . S
O92 C95 1.258 . S
C93 O90 1.320 . S
C93 O91 1.214 . S
O94 Cd86 2.277 . S
O94 C89 1.209 . S
C95 O92 1.258 . S
C95 O97 1.282 . S
O96 Cd88 2.277 . S
O96 C89 1.226 . S
O97 Cd88 2.356 . S
O97 C95 1.282 . S
C98 O99 1.306 . S
C98 O101 1.160 . S
O99 C98 1.306 . S
O99 Cd100 2.228 . S
Cd100 O99 2.228 . S
Cd100 O104 2.273 1_455 S
Cd100 O108 2.277 . S
O101 C98 1.160 . S
O101 Cd102 2.203 . S
Cd102 O101 2.203 . S
Cd102 O104 2.411 1_455 S
Cd102 O105 2.333 1_465 S
Cd102 O106 2.352 1_455 S
Cd102 O110 2.277 1_565 S
Cd102 O111 2.356 1_565 S
C103 O108 1.209 . S
C103 O110 1.226 1_565 S
O104 Cd100 2.273 1_655 S
O104 Cd102 2.411 1_655 S
O104 C107 1.320 . S
O105 Cd102 2.333 1_645 S
O105 C107 1.214 1_545 S
O106 Cd102 2.352 1_655 S
O106 C109 1.258 1_655 S
C107 O104 1.320 . S
C107 O105 1.214 1_565 S
O108 Cd100 2.277 . S
O108 C103 1.209 . S
C109 O106 1.258 1_455 S
C109 O111 1.282 1_565 S
O110 Cd102 2.277 1_545 S
O110 C103 1.226 1_545 S
O111 Cd102 2.356 1_545 S
O111 C109 1.282 1_545 S
C5 C37 1.459 . S
C51 C19 1.459 1_545 S
C33 C9 1.459 . S
C47 C23 1.459 1_545 S
C93 C61 1.459 . S
C75 C107 1.459 1_545 S
C89 C65 1.459 . S
C103 C79 1.459 1_565 S
C11 C67 1.522 1_455 S
C25 C81 1.522 1_565 S
C39 C95 1.522 1_554 S
C109 C53 1.522 1_466 S
C0 C14 1.478 . S
C42 C28 1.478 . S
C70 C56 1.478 . S
C84 C98 1.478 . S
