# Generated by pormake.
# Topology smt, (6)-cn, num edge types: 1
# Building blocks:
#     Node 0, Type 0, BuildingBlock: LEVNOQ01_clean_sbu_1, # of connection points: 6
#     Node 1, Type 0, BuildingBlock: LEVNOQ01_clean_sbu_1, # of connection points: 6
#     Node 2, Type 0, BuildingBlock: LEVNOQ01_clean_sbu_1, # of connection points: 6
#     Node 3, Type 0, BuildingBlock: LEVNOQ01_clean_sbu_1, # of connection points: 6
#     Node 4, Type 0, BuildingBlock: LEVNOQ01_clean_sbu_1, # of connection points: 6
#     Node 5, Type 0, BuildingBlock: LEVNOQ01_clean_sbu_1, # of connection points: 6
#     Edge 6, Type (0, 0), None
#     Edge 7, Type (0, 0), None
#     Edge 8, Type (0, 0), None
#     Edge 9, Type (0, 0), None
#     Edge 10, Type (0, 0), None
#     Edge 11, Type (0, 0), None
#     Edge 12, Type (0, 0), None
#     Edge 13, Type (0, 0), None
#     Edge 14, Type (0, 0), None
#     Edge 15, Type (0, 0), None
#     Edge 16, Type (0, 0), None
#     Edge 17, Type (0, 0), None
#     Edge 18, Type (0, 0), None
#     Edge 19, Type (0, 0), None
#     Edge 20, Type (0, 0), None
#     Edge 21, Type (0, 0), None
#     Edge 22, Type (0, 0), None
#     Edge 23, Type (0, 0), None
# Relax obj value: 0.328
# Max RMSD: 0.278
# Mean RMSD: 0.278
data_MOF--net-smt--node1-LEVNOQ01_clean_sbu_1--edge1-none
_symmetry_space_group_name_H-M    P1
_symmetry_Int_Tables_number       1
_symmetry_cell_setting            triclinic
loop_
_symmetry_equiv_pos_as_xyz
'x, y, z'
_cell_length_a     17.563266
_cell_length_b     17.562891
_cell_length_c     12.754746
_cell_angle_alpha  89.999327
_cell_angle_beta   90.000395
_cell_angle_gamma 119.99903
loop_
_atom_site_label
_atom_site_type_symbol
_atom_site_fract_x
_atom_site_fract_y
_atom_site_fract_z
_atom_type_partial_charge
O0 O 0.24083 0.93259 0.00562 0.0
Mg1 Mg 0.33784 0.05952 0.05404 0.0
O2 O 0.27588 0.9656 0.84031 0.0
Mg3 Mg 0.41247 0.07966 0.90146 0.0
O4 O 0.35092 0.16701 -0.01775 0.0
O5 O 0.26659 0.10423 0.12404 0.0
O6 O 0.5479 0.18417 -0.01169 0.0
O7 O 0.42469 0.17311 0.76532 0.0
Mg8 Mg 0.55605 0.12737 0.82457 0.0
O9 O 0.45927 0.00172 0.78956 0.0
O10 O 0.63536 0.13232 -0.05171 0.0
O11 O 0.56738 0.24961 0.78259 0.0
O12 O 0.57421 0.08639 0.6852 0.0
C13 C 0.42827 -0.00029 0.13081 0.0
C14 C 0.22598 0.91141 0.91012 0.0
C15 C 0.29789 0.16583 0.05499 0.0
C16 C 0.61793 0.18017 0.00557 0.0
C17 C 0.49751 0.24249 0.74629 0.0
C18 C 0.50267 0.01371 0.7025 0.0
O19 O 0.4313 0.0681 0.16602 0.0
O20 O 0.40987 -0.01858 0.03404 0.0
O21 O 0.28943 0.58227 -0.05211 0.0
Mg22 Mg 0.39921 0.56969 -0.0081 0.0
O23 O 0.22138 0.4393 -0.06739 0.0
Mg24 Mg 0.30325 0.42744 0.0682 0.0
O25 O 0.42693 0.47258 -0.04536 0.0
O26 O 0.46166 0.59118 0.85462 0.0
O27 O 0.39966 0.4257 0.20046 0.0
O28 O 0.28053 0.29076 0.00721 0.0
Mg29 Mg 0.24947 0.35285 0.22159 0.0
O30 O 0.15508 0.36626 0.14986 0.0
O31 O 0.33466 0.44632 0.3334 0.0
O32 O 0.27986 0.25628 0.17246 0.0
O33 O 0.1331 0.28089 0.29069 0.0
C34 C 0.40791 0.63216 0.17253 0.0
C35 C 0.22584 0.51247 0.91266 0.0
C36 C 0.46141 0.51871 0.87003 0.0
C37 C 0.40016 0.44393 0.29741 0.0
C38 C 0.28555 0.2412 0.07687 0.0
C39 C 0.10294 0.31249 0.22183 0.0
O40 O 0.47343 0.64849 0.11638 0.0
O41 O 0.33361 0.56275 0.15456 0.0
O42 O -0.00605 0.2936 0.33896 0.0
Mg43 Mg 0.86702 0.26368 0.38738 0.0
O44 O -0.03906 0.29565 0.17365 0.0
Mg45 Mg 0.84687 0.31817 0.2348 0.0
O46 O 0.75952 0.16927 0.31559 0.0
O47 O 0.8223 0.14771 0.45738 0.0
O48 O 0.74236 0.34909 0.32165 0.0
O49 O 0.75342 0.23694 0.09865 0.0
Mg50 Mg 0.79916 0.41405 0.1579 0.0
O51 O 0.92481 0.44292 0.1229 0.0
O52 O 0.7942 0.4884 0.28163 0.0
O53 O 0.67692 0.30314 0.11591 0.0
O54 O 0.84014 0.4732 0.01854 0.0
C55 C 0.92682 0.41392 0.46416 0.0
C56 C 0.01512 0.29994 0.24346 0.0
C57 C 0.7607 0.11742 0.38833 0.0
C58 C 0.74637 0.42313 0.33891 0.0
C59 C 0.68405 0.24039 0.07961 0.0
C60 C 0.91283 0.47434 0.03584 0.0
O61 O 0.85844 0.34856 0.49937 0.0
O62 O 0.94511 0.41381 0.36738 0.0
O63 O 0.34427 0.69252 0.28124 0.0
Mg64 Mg 0.35685 0.81488 0.32525 0.0
O65 O 0.48723 0.76744 0.26595 0.0
Mg66 Mg 0.49909 0.86117 0.40155 0.0
O67 O 0.45394 0.93971 0.28798 0.0
O68 O 0.33536 0.85583 0.18795 0.0
O69 O 0.50081 0.95932 0.53381 0.0
O70 O 0.63577 -0.02486 0.34056 0.0
Mg71 Mg 0.57369 0.88199 0.55497 0.0
O72 O 0.56027 0.77419 0.48322 0.0
O73 O 0.48022 0.8737 0.6668 0.0
O74 O 0.67024 0.00895 0.50582 0.0
O75 O 0.64567 0.83759 0.62403 0.0
C76 C 0.29437 0.76112 0.50586 0.0
C77 C 0.41407 0.69874 0.246 0.0
C78 C 0.40783 0.92804 0.20336 0.0
C79 C 0.48259 0.94156 0.63075 0.0
C80 C 0.68533 0.02972 0.41022 0.0
C81 C 0.61405 0.77582 0.55518 0.0
O82 O 0.27804 0.81031 0.44971 0.0
O83 O 0.36378 0.75623 0.48791 0.0
O84 O 0.63291 0.6857 0.67231 0.0
Mg85 Mg 0.66284 0.5887 0.72075 0.0
O86 O 0.63089 0.65066 0.507 0.0
Mg87 Mg 0.60836 0.51406 0.56814 0.0
O88 O 0.75725 0.57561 0.64895 0.0
O89 O 0.77882 0.65997 0.79072 0.0
O90 O 0.57745 0.37864 0.65498 0.0
O91 O 0.6896 0.50185 0.432 0.0
Mg92 Mg 0.51249 0.37048 0.49124 0.0
O93 O 0.48363 0.46727 0.45623 0.0
O94 O 0.43813 0.29117 0.61496 0.0
O95 O 0.62341 0.35916 0.44927 0.0
O96 O 0.45337 0.35231 0.35187 0.0
C97 C 0.51263 0.49825 0.7975 0.0
C98 C 0.62659 0.70054 0.57681 0.0
C99 C 0.80911 0.62866 0.72167 0.0
C100 C 0.5034 0.3086 0.67224 0.0
C101 C 0.68615 0.42903 0.41296 0.0
C102 C 0.45223 0.42386 0.36916 0.0
O103 O 0.57799 0.49525 0.83277 0.0
O104 O 0.51272 0.51665 0.70073 0.0
O105 O 0.234 0.63711 0.61457 0.0
Mg106 Mg 0.11164 0.52733 0.65858 0.0
O107 O 0.15909 0.70517 0.59928 0.0
Mg108 Mg 0.06536 0.62329 0.73488 0.0
O109 O -0.01318 0.49961 0.62132 0.0
O110 O 0.0707 0.46489 0.52129 0.0
O111 O -0.03278 0.52688 0.86715 0.0
O112 O 0.95139 0.64601 0.6739 0.0
Mg113 Mg 0.04454 0.67709 0.88831 0.0
O114 O 0.15234 0.77145 0.81655 0.0
O115 O 0.05283 0.59191 0.00015 0.0
O116 O 0.91758 0.64667 0.83916 0.0
O117 O 0.08894 0.79348 -0.04264 0.0
C118 C 0.16541 0.51863 0.83919 0.0
C119 C 0.22779 0.7007 0.57933 0.0
C120 C -0.00151 0.46515 0.5367 0.0
C121 C -0.01502 0.52642 -0.03591 0.0
C122 C 0.89681 0.64098 0.74356 0.0
C123 C 0.1507 0.82361 0.8885 0.0
O124 O 0.11622 0.45311 0.78305 0.0
O125 O 0.17031 0.59293 0.82123 0.0
loop_
_geom_bond_atom_site_label_1
_geom_bond_atom_site_label_2
_geom_bond_distance
_geom_bond_site_symmetry_2
_ccdc_geom_bond_type
O0 Mg1 1.990 1_565 S
O0 C14 1.253 1_554 S
Mg1 O0 1.990 1_545 S
Mg1 O4 2.180 . S
Mg1 O5 2.117 . S
Mg1 O19 2.030 1_545 S
O2 Mg3 2.072 1_556 S
O2 C14 1.260 1_545 S
Mg3 O2 2.072 1_554 S
Mg3 O4 2.099 . S
Mg3 O6 2.079 . S
Mg3 O7 2.072 1_554 S
Mg3 O9 2.099 1_554 S
Mg3 O20 2.079 . S
O4 Mg1 2.180 . S
O4 Mg3 2.099 . S
O4 C15 1.279 . S
O5 Mg1 2.117 . S
O5 C15 1.250 . S
O6 Mg3 2.079 . S
O6 C16 1.264 . S
O7 Mg3 2.072 1_556 S
O7 C17 1.260 . S
Mg8 O9 2.180 . S
Mg8 O10 2.030 . S
Mg8 O11 1.990 . S
Mg8 O12 2.117 . S
O9 Mg3 2.099 1_556 S
O9 Mg8 2.180 . S
O9 C18 1.279 . S
O10 Mg8 2.030 . S
O10 C16 1.248 1_556 S
O11 Mg8 1.990 . S
O11 C17 1.253 . S
O12 Mg8 2.117 . S
O12 C18 1.250 . S
C13 O19 1.248 . S
C13 O20 1.264 1_565 S
C14 O0 1.253 1_556 S
C14 O2 1.260 1_565 S
C15 O4 1.279 . S
C15 O5 1.250 . S
C16 O6 1.264 . S
C16 O10 1.248 1_554 S
C17 O7 1.260 . S
C17 O11 1.253 . S
C18 O9 1.279 . S
C18 O12 1.250 . S
O19 Mg1 2.030 1_565 S
O19 C13 1.248 . S
O20 Mg3 2.079 . S
O20 C13 1.264 1_545 S
O21 Mg22 1.990 . S
O21 C35 1.253 . S
Mg22 O21 1.990 . S
Mg22 O25 2.180 1_556 S
Mg22 O26 2.117 . S
Mg22 O40 2.030 1_556 S
O23 Mg24 2.072 . S
O23 C35 1.260 1_554 S
Mg24 O23 2.072 . S
Mg24 O25 2.099 . S
Mg24 O27 2.079 . S
Mg24 O28 2.072 . S
Mg24 O30 2.099 . S
Mg24 O41 2.079 . S
O25 Mg22 2.180 1_554 S
O25 Mg24 2.099 . S
O25 C36 1.279 1_554 S
O26 Mg22 2.117 . S
O26 C36 1.250 . S
O27 Mg24 2.079 . S
O27 C37 1.264 . S
O28 Mg24 2.072 . S
O28 C38 1.260 . S
Mg29 O30 2.180 . S
Mg29 O31 2.030 . S
Mg29 O32 1.990 . S
Mg29 O33 2.117 . S
O30 Mg24 2.099 . S
O30 Mg29 2.180 . S
O30 C39 1.279 . S
O31 Mg29 2.030 . S
O31 C37 1.248 . S
O32 Mg29 1.990 . S
O32 C38 1.253 . S
O33 Mg29 2.117 . S
O33 C39 1.250 . S
C34 O40 1.248 . S
C34 O41 1.264 . S
C35 O21 1.253 . S
C35 O23 1.260 1_556 S
C36 O25 1.279 1_556 S
C36 O26 1.250 . S
C37 O27 1.264 . S
C37 O31 1.248 . S
C38 O28 1.260 . S
C38 O32 1.253 . S
C39 O30 1.279 . S
C39 O33 1.250 . S
O40 Mg22 2.030 1_554 S
O40 C34 1.248 . S
O41 Mg24 2.079 . S
O41 C34 1.264 . S
O42 Mg43 1.990 1_455 S
O42 C56 1.253 . S
Mg43 O42 1.990 1_655 S
Mg43 O46 2.180 . S
Mg43 O47 2.117 . S
Mg43 O61 2.030 1_655 S
O44 Mg45 2.072 . S
O44 C56 1.260 1_655 S
Mg45 O44 2.072 . S
Mg45 O46 2.099 . S
Mg45 O48 2.079 . S
Mg45 O49 2.072 . S
Mg45 O51 2.099 . S
Mg45 O62 2.079 . S
O46 Mg43 2.180 . S
O46 Mg45 2.099 . S
O46 C57 1.279 . S
O47 Mg43 2.117 . S
O47 C57 1.250 . S
O48 Mg45 2.079 . S
O48 C58 1.264 . S
O49 Mg45 2.072 . S
O49 C59 1.260 . S
Mg50 O51 2.180 . S
Mg50 O52 2.030 . S
Mg50 O53 1.990 . S
Mg50 O54 2.117 . S
O51 Mg45 2.099 . S
O51 Mg50 2.180 . S
O51 C60 1.279 . S
O52 Mg50 2.030 . S
O52 C58 1.248 . S
O53 Mg50 1.990 . S
O53 C59 1.253 . S
O54 Mg50 2.117 . S
O54 C60 1.250 . S
C55 O61 1.248 . S
C55 O62 1.264 1_455 S
C56 O42 1.253 . S
C56 O44 1.260 1_455 S
C57 O46 1.279 . S
C57 O47 1.250 . S
C58 O48 1.264 . S
C58 O52 1.248 . S
C59 O49 1.260 . S
C59 O53 1.253 . S
C60 O51 1.279 . S
C60 O54 1.250 . S
O61 Mg43 2.030 1_455 S
O61 C55 1.248 . S
O62 Mg45 2.079 . S
O62 C55 1.264 1_655 S
O63 Mg64 1.990 . S
O63 C77 1.253 . S
Mg64 O63 1.990 . S
Mg64 O67 2.180 . S
Mg64 O68 2.117 . S
Mg64 O82 2.030 . S
O65 Mg66 2.072 . S
O65 C77 1.260 . S
Mg66 O65 2.072 . S
Mg66 O67 2.099 . S
Mg66 O69 2.079 . S
Mg66 O70 2.072 . S
Mg66 O72 2.099 . S
Mg66 O83 2.079 . S
O67 Mg64 2.180 . S
O67 Mg66 2.099 . S
O67 C78 1.279 . S
O68 Mg64 2.117 . S
O68 C78 1.250 . S
O69 Mg66 2.079 . S
O69 C79 1.264 1_565 S
O70 Mg66 2.072 . S
O70 C80 1.260 1_565 S
Mg71 O72 2.180 . S
Mg71 O73 2.030 1_565 S
Mg71 O74 1.990 1_565 S
Mg71 O75 2.117 . S
O72 Mg66 2.099 . S
O72 Mg71 2.180 . S
O72 C81 1.279 . S
O73 Mg71 2.030 1_545 S
O73 C79 1.248 . S
O74 Mg71 1.990 1_545 S
O74 C80 1.253 . S
O75 Mg71 2.117 . S
O75 C81 1.250 . S
C76 O82 1.248 . S
C76 O83 1.264 . S
C77 O63 1.253 . S
C77 O65 1.260 . S
C78 O67 1.279 . S
C78 O68 1.250 . S
C79 O69 1.264 1_545 S
C79 O73 1.248 . S
C80 O70 1.260 1_545 S
C80 O74 1.253 . S
C81 O72 1.279 . S
C81 O75 1.250 . S
O82 Mg64 2.030 . S
O82 C76 1.248 . S
O83 Mg66 2.079 . S
O83 C76 1.264 . S
O84 Mg85 1.990 . S
O84 C98 1.253 . S
Mg85 O84 1.990 . S
Mg85 O88 2.180 . S
Mg85 O89 2.117 . S
Mg85 O103 2.030 . S
O86 Mg87 2.072 . S
O86 C98 1.260 . S
Mg87 O86 2.072 . S
Mg87 O88 2.099 . S
Mg87 O90 2.079 . S
Mg87 O91 2.072 . S
Mg87 O93 2.099 . S
Mg87 O104 2.079 . S
O88 Mg85 2.180 . S
O88 Mg87 2.099 . S
O88 C99 1.279 . S
O89 Mg85 2.117 . S
O89 C99 1.250 . S
O90 Mg87 2.079 . S
O90 C100 1.264 . S
O91 Mg87 2.072 . S
O91 C101 1.260 . S
Mg92 O93 2.180 . S
Mg92 O94 2.030 . S
Mg92 O95 1.990 . S
Mg92 O96 2.117 . S
O93 Mg87 2.099 . S
O93 Mg92 2.180 . S
O93 C102 1.279 . S
O94 Mg92 2.030 . S
O94 C100 1.248 . S
O95 Mg92 1.990 . S
O95 C101 1.253 . S
O96 Mg92 2.117 . S
O96 C102 1.250 . S
C97 O103 1.248 . S
C97 O104 1.264 . S
C98 O84 1.253 . S
C98 O86 1.260 . S
C99 O88 1.279 . S
C99 O89 1.250 . S
C100 O90 1.264 . S
C100 O94 1.248 . S
C101 O91 1.260 . S
C101 O95 1.253 . S
C102 O93 1.279 . S
C102 O96 1.250 . S
O103 Mg85 2.030 . S
O103 C97 1.248 . S
O104 Mg87 2.079 . S
O104 C97 1.264 . S
O105 Mg106 1.990 . S
O105 C119 1.253 . S
Mg106 O105 1.990 . S
Mg106 O109 2.180 . S
Mg106 O110 2.117 . S
Mg106 O124 2.030 . S
O107 Mg108 2.072 . S
O107 C119 1.260 . S
Mg108 O107 2.072 . S
Mg108 O109 2.099 . S
Mg108 O111 2.078 . S
Mg108 O112 2.072 . S
Mg108 O114 2.099 . S
Mg108 O125 2.079 . S
O109 Mg106 2.180 . S
O109 Mg108 2.099 . S
O109 C120 1.279 . S
O110 Mg106 2.117 . S
O110 C120 1.250 . S
O111 Mg108 2.078 . S
O111 C121 1.264 1_456 S
O112 Mg108 2.072 . S
O112 C122 1.260 1_455 S
Mg113 O114 2.180 1_554 S
Mg113 O115 2.030 1_455 S
Mg113 O116 1.990 1_454 S
Mg113 O117 2.117 . S
O114 Mg108 2.099 . S
O114 Mg113 2.180 1_556 S
O114 C123 1.279 1_556 S
O115 Mg113 2.030 1_655 S
O115 C121 1.248 . S
O116 Mg113 1.990 1_656 S
O116 C122 1.253 . S
O117 Mg113 2.117 . S
O117 C123 1.250 . S
C118 O124 1.248 . S
C118 O125 1.264 . S
C119 O105 1.253 . S
C119 O107 1.260 . S
C120 O109 1.279 . S
C120 O110 1.250 . S
C121 O111 1.264 1_654 S
C121 O115 1.248 . S
C122 O112 1.260 1_655 S
C122 O116 1.253 . S
C123 O114 1.279 1_554 S
C123 O117 1.250 . S
O124 Mg106 2.030 . S
O124 C118 1.248 . S
O125 Mg108 2.079 . S
O125 C118 1.264 . S
C14 C123 1.924 1_556 S
C38 C15 1.924 . S
C56 C39 1.924 . S
C57 C80 1.924 . S
C81 C98 1.924 . S
C122 C99 1.924 . S
C13 C78 1.103 . S
C37 C102 1.103 . S
C120 C55 1.103 . S
C79 C18 1.103 . S
C36 C97 1.103 . S
C121 C60 1.103 . S
C17 C100 1.369 . S
C118 C35 1.369 . S
C16 C59 1.369 . S
C77 C34 1.369 . S
C58 C101 1.369 . S
C76 C119 1.369 . S
