# Generated by pormake.
# Topology pcu, (6)-cn, num edge types: 1
# Building blocks:
#     Node 0, Type 0, BuildingBlock: BETDIP_clean_sbu_0, # of connection points: 6
#     Edge 1, Type (0, 0), BuildingBlock: ZUJKAS_clean_linker_0, # of connection points: 2
#     Edge 2, Type (0, 0), BuildingBlock: ZUJKAS_clean_linker_0, # of connection points: 2
#     Edge 3, Type (0, 0), BuildingBlock: ZUJKAS_clean_linker_0, # of connection points: 2
# Relax obj value: 0.000
# Max RMSD: 0.000
# Mean RMSD: 0.000
data_MOF--net-pcu--node1-BETDIP_clean_sbu_0--edge1-ZUJKAS_clean_linker_0
_symmetry_space_group_name_H-M    P1
_symmetry_Int_Tables_number       1
_symmetry_cell_setting            triclinic
loop_
_symmetry_equiv_pos_as_xyz
'x, y, z'
_cell_length_a     30.064521
_cell_length_b     19.670758
_cell_length_c     18.893145
_cell_angle_alpha  90.360288
_cell_angle_beta   96.402064
_cell_angle_gamma 125.04569
loop_
_atom_site_label
_atom_site_type_symbol
_atom_site_fract_x
_atom_site_fract_y
_atom_site_fract_z
_atom_type_partial_charge
Tb0 Tb 0.96066 0.94048 0.01569 0.0
Tb1 Tb 0.08139 0.03848 1.00563 0.0
C2 C 0.8677 0.8898 0.04929 0.0
C3 C 0.82833 0.91326 0.04384 0.0
C4 C 0.8097 0.92204 0.10592 0.0
C5 C 0.76892 0.93652 0.10189 0.0
C6 C 0.74527 0.94226 0.03548 0.0
C7 C 0.76499 0.93542 0.97341 0.0
C8 C 0.80591 0.9211 0.9775 0.0
C9 C 0.98525 0.9514 0.88398 0.0
C10 C 0.0322 0.13796 0.01106 0.0
C11 C 0.1745 0.08931 0.97249 0.0
C12 C 0.2138 0.06571 0.97784 0.0
C13 C 0.23237 0.05688 0.91572 0.0
C14 C 0.27311 0.04233 0.91967 0.0
C15 C 0.29679 0.03658 0.98605 0.0
C16 C 0.27714 0.04347 0.04816 0.0
C17 C 0.23626 0.05786 0.04415 0.0
C18 C 0.05647 0.0274 0.13727 0.0
C19 C 1.00983 0.841 0.00997 0.0
O20 O 0.9138 0.93732 0.09257 0.0
O21 O 0.87488 0.86459 0.99017 0.0
O22 O 1.01106 0.00851 0.93433 0.0
O23 O 0.94191 0.88796 0.90525 0.0
O24 O 0.98894 0.06998 0.03123 0.0
O25 O 0.07116 0.13726 0.98571 0.0
O26 O 0.12853 0.04221 0.92889 0.0
O27 O 0.16714 0.11406 0.03171 0.0
O28 O 0.03101 0.97042 0.08685 0.0
O29 O 0.09979 0.09101 0.1161 0.0
O30 O 0.05306 0.90899 0.98977 0.0
O31 O 0.97093 0.84171 0.03548 0.0
H32 H 0.82606 0.91618 0.15777 0.0
H33 H 0.75582 0.94293 0.15108 0.0
H34 H 0.74766 0.93856 0.92118 0.0
H35 H 0.81907 0.91441 0.92845 0.0
H36 H 0.21599 0.06277 0.86389 0.0
H37 H 0.28617 0.03589 0.87045 0.0
H38 H 0.2945 0.04032 0.10036 0.0
H39 H 0.22316 0.0646 0.09324 0.0
H40 H 0.97601 0.88925 0.19627 0.0
H41 H 0.96321 0.8752 0.32295 0.0
H42 H 0.10146 0.13123 0.37527 0.0
H43 H 0.11471 0.14515 0.24943 0.0
H44 H 0.10582 0.02558 0.46603 0.0
H45 H 0.90057 0.96684 0.44178 0.0
H46 H 0.90399 0.89686 0.385 0.0
H47 H 0.94257 0.00581 0.37082 0.0
C48 C 1.00335 0.94259 0.23482 0.0
C49 C 0.04632 0.01831 0.21289 0.0
C50 C 0.99588 0.93468 0.30718 0.0
C51 C 0.03101 0.00249 0.35883 0.0
C52 C 0.07376 0.07807 0.33666 0.0
H53 H 0.06578 0.08918 0.82473 0.0
H54 H 0.07844 0.10289 0.69801 0.0
C55 C 0.08121 0.08597 0.26459 0.0
C56 C 0.02458 -0.00537 0.43624 0.0
H57 H 0.93558 0.95238 0.55507 0.0
C58 C 0.06864 0.00985 0.48551 0.0
C59 C 0.97613 0.97418 0.46188 0.0
C60 C 0.92825 0.96069 0.41233 0.0
C61 C 0.06527 0.00375 0.55923 0.0
C62 C 1.01683 0.98334 0.58487 0.0
C63 C 0.97275 0.9681 0.5356 0.0
C64 C 1.01044 0.97566 0.66231 0.0
C65 C 0.11315 0.01719 0.60875 0.0
C66 C 0.96762 0.90024 0.6846 0.0
C67 C 0.96023 0.89254 0.7567 0.0
C68 C 0.99528 0.96024 0.80831 0.0
C69 C 0.03832 0.0358 0.78626 0.0
C70 C 0.04571 0.04352 0.71387 0.0
H71 H 0.14071 0.01077 0.57929 0.0
H72 H 0.13753 0.08111 0.63591 0.0
H73 H 0.09882 0.97223 0.65038 0.0
H74 H 0.93981 0.84705 0.64606 0.0
H75 H 0.92668 0.83348 0.77195 0.0
H76 H 0.3165 0.94414 0.0766 0.0
H77 H 0.3929 0.93056 0.08565 0.0
H78 H 0.4566 0.08782 0.91319 0.0
H79 H 0.38181 0.10451 0.9056 0.0
H80 H 0.4238 0.86695 0.98789 0.0
H81 H 0.59158 0.20015 0.06223 0.0
H82 H 0.52041 0.15869 0.06392 0.0
H83 H 0.54818 0.18264 0.98077 0.0
C84 C 0.34709 0.97686 0.04112 0.0
C85 C 0.3427 0.02588 0.99057 0.0
C86 C 0.39068 0.96849 0.04606 0.0
C87 C 0.43135 0.00929 1.001 0.0
C88 C 0.42664 0.05709 0.94974 0.0
H89 H 0.72557 0.03466 0.94487 0.0
H90 H 0.64916 0.04821 0.93575 0.0
C91 C 0.38315 0.06558 0.94479 0.0
C92 C 0.47798 0.00057 1.00668 0.0
H93 H 0.61823 0.1118 0.03345 0.0
C94 C 0.46628 0.92052 0.99825 0.0
C95 C 0.53366 0.07031 0.02 0.0
C96 C 0.54936 0.15773 0.03294 0.0
C97 C 0.50837 0.90844 1.00133 0.0
C98 C 0.56404 0.97818 0.01466 0.0
C99 C 0.57574 0.05822 0.02308 0.0
C100 C 0.61067 0.96945 0.02037 0.0
C101 C 0.49266 0.82101 0.98839 0.0
C102 C 0.61537 0.92165 0.07164 0.0
C103 C 0.65887 0.91317 0.07663 0.0
C104 C 0.69934 0.95291 0.03088 0.0
C105 C 0.69497 0.00192 0.98032 0.0
C106 C 0.65136 0.01028 0.97534 0.0
H107 H 0.45045 0.77861 0.95908 0.0
H108 H 0.52163 0.82006 0.95743 0.0
H109 H 0.49382 0.79609 0.04056 0.0
H110 H 0.58539 0.8909 0.10816 0.0
H111 H 0.6602 0.87424 0.11582 0.0
H112 H 0.94528 0.69895 0.07633 0.0
H113 H 0.94925 0.5777 0.07752 0.0
H114 H 0.07358 0.69114 0.93783 0.0
H115 H 0.07044 0.81188 0.93667 0.0
H116 H 0.93487 0.47116 0.9579 0.0
H117 H 0.14375 0.64373 0.11374 0.0
H118 H 0.10187 0.68263 0.10893 0.0
H119 H 0.13813 0.69184 0.03602 0.0
C120 C 0.97315 0.69759 0.04564 0.0
C121 C 1.00806 0.76504 1.00727 0.0
C122 C 0.97544 0.62873 0.04649 0.0
C123 C 1.01259 0.62712 0.00902 0.0
C124 C 0.04569 0.6927 0.96838 0.0
H125 H 0.09681 0.27993 0.94462 0.0
H126 H 0.09281 0.40116 0.94321 0.0
C127 C 0.04365 0.76135 0.96772 0.0
C128 C 1.01718 0.55699 0.01193 0.0
H129 H 0.10714 0.50778 0.0626 0.0
C130 C 0.97228 0.47871 0.98115 0.0
C131 C 0.0664 0.56817 0.04194 0.0
C132 C 0.11518 0.65096 0.07761 0.0
C133 C 0.9756 0.41077 0.97854 0.0
C134 C 0.02482 0.42194 1.00857 0.0
C135 C 0.06973 0.50023 0.03934 0.0
C136 C 0.02939 0.35179 0.01158 0.0
C137 C 0.92683 0.32799 0.94287 0.0
C138 C 0.99625 0.28625 0.05221 0.0
C139 C 0.9983 0.21761 0.05301 0.0
C140 C 0.03395 0.2139 0.0136 0.0
C141 C 0.06889 0.28131 0.97522 0.0
C142 C 0.06658 0.35016 0.97422 0.0
H143 H 0.8983 0.33524 0.90667 0.0
H144 H 0.94014 0.29626 0.91162 0.0
H145 H 0.90383 0.28714 0.98445 0.0
H146 H 0.96832 0.28783 0.08268 0.0
H147 H 0.97149 0.16712 0.08407 0.0
loop_
_geom_bond_atom_site_label_1
_geom_bond_atom_site_label_2
_geom_bond_distance
_geom_bond_site_symmetry_2
_ccdc_geom_bond_type
Tb0 C2 2.809 . S
Tb0 O20 2.484 1_556 S
Tb0 O21 2.440 . S
Tb0 O22 2.658 1_655 S
Tb0 O23 2.409 . S
Tb0 O24 2.378 1_565 S
Tb0 O28 2.325 1_566 S
Tb0 O31 2.341 . S
Tb1 C11 2.809 . S
Tb1 O22 2.325 1_544 S
Tb1 O25 2.341 . S
Tb1 O26 2.484 1_554 S
Tb1 O27 2.440 . S
Tb1 O28 2.658 1_455 S
Tb1 O29 2.409 . S
Tb1 O30 2.378 1_545 S
C2 Tb0 2.809 . S
C2 C3 1.514 . S
C2 O20 1.248 1_556 S
C2 O21 1.266 . S
C3 C2 1.514 . S
C3 C4 1.355 1_566 S
C3 C8 1.348 . S
C4 C3 1.355 1_544 S
C4 C5 1.386 . S
C4 H32 0.927 . S
C5 C4 1.386 . S
C5 C6 1.340 1_544 S
C5 H33 0.931 . S
C6 C5 1.340 1_566 S
C6 C7 1.377 . S
C7 C6 1.377 . S
C7 C8 1.408 . S
C7 H34 0.930 . S
C8 C3 1.348 . S
C8 C7 1.408 . S
C8 H35 0.930 . S
C9 O22 1.281 1_655 S
C9 O23 1.254 . S
C10 O24 1.236 1_455 S
C10 O25 1.266 1_556 S
C11 Tb1 2.809 . S
C11 C12 1.514 . S
C11 O26 1.248 1_554 S
C11 O27 1.266 . S
C12 C11 1.514 . S
C12 C13 1.356 1_544 S
C12 C17 1.348 . S
C13 C12 1.356 1_566 S
C13 C14 1.384 . S
C13 H36 0.927 . S
C14 C13 1.384 . S
C14 C15 1.337 1_566 S
C14 H37 0.931 . S
C15 C14 1.337 1_544 S
C15 C16 1.380 . S
C16 C15 1.380 . S
C16 C17 1.408 . S
C16 H38 0.930 . S
C17 C12 1.348 . S
C17 C16 1.408 . S
C17 H39 0.930 . S
C18 O28 1.281 1_455 S
C18 O29 1.254 . S
C19 O30 1.236 1_655 S
C19 O31 1.266 1_554 S
O20 Tb0 2.484 1_554 S
O20 C2 1.248 1_554 S
O21 Tb0 2.440 . S
O21 C2 1.266 . S
O22 Tb0 2.658 1_455 S
O22 Tb1 2.325 1_566 S
O22 C9 1.281 1_455 S
O23 Tb0 2.409 . S
O23 C9 1.254 . S
O24 Tb0 2.378 1_545 S
O24 C10 1.236 1_655 S
O25 Tb1 2.341 . S
O25 C10 1.266 1_554 S
O26 Tb1 2.484 1_556 S
O26 C11 1.248 1_556 S
O27 Tb1 2.440 . S
O27 C11 1.266 . S
O28 Tb0 2.325 1_544 S
O28 Tb1 2.658 1_655 S
O28 C18 1.281 1_655 S
O29 Tb1 2.409 . S
O29 C18 1.254 . S
O30 Tb1 2.378 1_565 S
O30 C19 1.236 1_455 S
O31 Tb0 2.341 . S
O31 C19 1.266 1_556 S
H32 C4 0.927 . S
H33 C5 0.931 . S
H34 C7 0.930 . S
H35 C8 0.930 . S
H36 C13 0.927 . S
H37 C14 0.931 . S
H38 C16 0.930 . S
H39 C17 0.930 . S
H40 C48 0.929 . S
H41 C50 0.930 . S
H42 C52 0.930 . S
H43 C55 0.929 . S
H44 C58 0.930 . S
H45 C60 0.960 . S
H46 C60 0.960 . S
H47 C60 0.960 1_545 S
C48 H40 0.929 . S
C48 C49 1.371 1_455 S
C48 C50 1.384 . S
C49 C48 1.371 1_655 S
C49 C55 1.398 1_565 S
C50 H41 0.930 . S
C50 C48 1.384 . S
C50 C51 1.368 1_455 S
C51 C50 1.368 1_655 S
C51 C52 1.403 1_565 S
C51 C56 1.491 1_655 S
C52 H42 0.930 . S
C52 C51 1.403 1_545 S
C52 C55 1.386 . S
H53 C69 0.930 . S
H54 C70 0.931 . S
C55 H43 0.929 . S
C55 C49 1.398 1_545 S
C55 C52 1.386 . S
C56 C51 1.491 1_455 S
C56 C58 1.395 1_565 S
C56 C59 1.403 1_455 S
H57 C63 0.930 . S
C58 H44 0.930 . S
C58 C56 1.395 1_545 S
C58 C61 1.403 . S
C59 C56 1.403 1_655 S
C59 C60 1.524 . S
C59 C63 1.400 . S
C60 H45 0.960 . S
C60 H46 0.960 . S
C60 H47 0.960 1_565 S
C60 C59 1.524 . S
C61 C58 1.403 . S
C61 C62 1.389 . S
C61 C65 1.495 . S
C62 C61 1.389 . S
C62 C63 1.389 1_445 S
C62 C64 1.478 . S
C63 H57 0.930 . S
C63 C59 1.400 . S
C63 C62 1.389 1_665 S
C64 C62 1.478 . S
C64 C66 1.381 1_545 S
C64 C70 1.383 . S
C65 C61 1.495 . S
C65 H71 0.959 . S
C65 H72 0.961 . S
C65 H73 0.960 1_545 S
C66 C64 1.381 1_565 S
C66 C67 1.394 . S
C66 H74 0.930 . S
C67 C66 1.394 . S
C67 C68 1.383 1_565 S
C67 H75 0.929 1_455 S
C68 C67 1.383 1_545 S
C68 C69 1.377 . S
C69 H53 0.930 . S
C69 C68 1.377 . S
C69 C70 1.379 . S
C70 H54 0.931 . S
C70 C64 1.383 . S
C70 C69 1.379 . S
H71 C65 0.959 . S
H72 C65 0.961 . S
H73 C65 0.960 1_565 S
H74 C66 0.930 . S
H75 C67 0.929 1_655 S
H76 C84 0.929 . S
H77 C86 0.930 . S
H78 C88 0.930 . S
H79 C91 0.929 . S
H80 C94 0.930 . S
H81 C96 0.960 . S
H82 C96 0.960 . S
H83 C96 0.960 1_556 S
C84 H76 0.929 . S
C84 C85 1.371 1_565 S
C84 C86 1.384 . S
C85 C84 1.371 1_545 S
C85 C91 1.391 1_554 S
C86 H77 0.930 . S
C86 C84 1.384 . S
C86 C87 1.372 . S
C87 C86 1.372 . S
C87 C88 1.400 1_564 S
C87 C92 1.490 . S
C88 H78 0.930 . S
C88 C87 1.400 1_546 S
C88 C91 1.386 . S
H89 C105 0.930 . S
H90 C106 0.931 . S
C91 H79 0.929 . S
C91 C85 1.391 1_556 S
C91 C88 1.386 . S
C92 C87 1.490 . S
C92 C94 1.395 1_554 S
C92 C95 1.403 1_565 S
H93 C99 0.930 . S
C94 H80 0.930 . S
C94 C92 1.395 1_556 S
C94 C97 1.403 . S
C95 C92 1.403 1_545 S
C95 C96 1.524 . S
C95 C99 1.400 . S
C96 H81 0.960 . S
C96 H82 0.960 . S
C96 H83 0.960 1_554 S
C96 C95 1.524 . S
C97 C94 1.403 . S
C97 C98 1.392 . S
C97 C101 1.495 . S
C98 C97 1.392 . S
C98 C99 1.385 1_566 S
C98 C100 1.478 . S
C99 H93 0.930 . S
C99 C95 1.400 . S
C99 C98 1.385 1_544 S
C100 C98 1.478 . S
C100 C102 1.381 1_556 S
C100 C106 1.383 1_565 S
C101 C97 1.495 . S
C101 H107 0.959 . S
C101 H108 0.961 . S
C101 H109 0.960 1_556 S
C102 C100 1.381 1_554 S
C102 C103 1.394 . S
C102 H110 0.930 . S
C103 C102 1.394 . S
C103 C104 1.383 1_554 S
C103 H111 0.929 . S
C104 C103 1.383 1_556 S
C104 C105 1.377 1_565 S
C105 H89 0.930 . S
C105 C104 1.377 1_545 S
C105 C106 1.379 . S
C106 H90 0.931 . S
C106 C100 1.383 1_545 S
C106 C105 1.379 . S
H107 C101 0.959 . S
H108 C101 0.961 . S
H109 C101 0.960 1_554 S
H110 C102 0.930 . S
H111 C103 0.929 . S
H112 C120 0.929 . S
H113 C122 0.930 . S
H114 C124 0.930 . S
H115 C127 0.929 . S
H116 C130 0.930 . S
H117 C132 0.960 . S
H118 C132 0.960 . S
H119 C132 0.960 . S
C120 H112 0.929 . S
C120 C121 1.395 . S
C120 C122 1.384 . S
C121 C120 1.395 . S
C121 C127 1.386 1_454 S
C122 H113 0.930 . S
C122 C120 1.384 . S
C122 C123 1.363 . S
C123 C122 1.363 . S
C123 C124 1.394 1_454 S
C123 C128 1.516 1_455 S
C124 H114 0.930 . S
C124 C123 1.394 1_656 S
C124 C127 1.386 . S
H125 C141 0.930 . S
H126 C142 0.931 . S
C127 H115 0.929 . S
C127 C121 1.386 1_656 S
C127 C124 1.386 . S
C128 C123 1.516 1_655 S
C128 C130 1.403 . S
C128 C131 1.382 1_654 S
H129 C135 0.930 . S
C130 H116 0.930 . S
C130 C128 1.403 . S
C130 C133 1.403 . S
C131 C128 1.382 1_456 S
C131 C132 1.524 . S
C131 C135 1.400 . S
C132 H117 0.960 . S
C132 H118 0.960 . S
C132 H119 0.960 . S
C132 C131 1.524 . S
C133 C130 1.403 . S
C133 C134 1.392 . S
C133 C137 1.495 . S
C134 C133 1.392 . S
C134 C135 1.385 1_654 S
C134 C136 1.478 . S
C135 H129 0.930 . S
C135 C131 1.400 . S
C135 C134 1.385 1_456 S
C136 C134 1.478 . S
C136 C138 1.376 1_655 S
C136 C142 1.383 1_554 S
C137 C133 1.495 . S
C137 H143 0.959 . S
C137 H144 0.961 . S
C137 H145 0.960 . S
C138 C136 1.376 1_455 S
C138 C139 1.403 . S
C138 H146 0.926 . S
C139 C138 1.403 . S
C139 C140 1.383 1_455 S
C139 H147 0.929 . S
C140 C139 1.383 1_655 S
C140 C141 1.377 1_554 S
C141 H125 0.930 . S
C141 C140 1.377 1_556 S
C141 C142 1.379 . S
C142 H126 0.931 . S
C142 C136 1.383 1_556 S
C142 C141 1.379 . S
H143 C137 0.959 . S
H144 C137 0.961 . S
H145 C137 0.960 . S
H146 C138 0.926 . S
H147 C139 0.929 . S
C49 C18 1.452 1_665 S
C68 C9 1.471 1_445 S
C85 C15 1.503 . S
C104 C6 1.492 . S
C121 C19 1.477 1_455 S
C140 C10 1.494 1_654 S
