# Generated by pormake.
# Topology sqp, (5)-cn, num edge types: 1
# Building blocks:
#     Node 0, Type 0, BuildingBlock: XOMCOT_clean_sbu_1, # of connection points: 5
#     Node 1, Type 0, BuildingBlock: XOMCOT_clean_sbu_1, # of connection points: 5
#     Node 2, Type 0, BuildingBlock: XOMCOT_clean_sbu_1, # of connection points: 5
#     Node 3, Type 0, BuildingBlock: XOMCOT_clean_sbu_1, # of connection points: 5
#     Edge 4, Type (0, 0), BuildingBlock: EYOCIG_clean_linker_4, # of connection points: 2
#     Edge 5, Type (0, 0), BuildingBlock: EYOCIG_clean_linker_4, # of connection points: 2
#     Edge 6, Type (0, 0), BuildingBlock: EYOCIG_clean_linker_4, # of connection points: 2
#     Edge 7, Type (0, 0), BuildingBlock: EYOCIG_clean_linker_4, # of connection points: 2
#     Edge 8, Type (0, 0), BuildingBlock: EYOCIG_clean_linker_4, # of connection points: 2
#     Edge 9, Type (0, 0), BuildingBlock: EYOCIG_clean_linker_4, # of connection points: 2
#     Edge 10, Type (0, 0), BuildingBlock: EYOCIG_clean_linker_4, # of connection points: 2
#     Edge 11, Type (0, 0), BuildingBlock: EYOCIG_clean_linker_4, # of connection points: 2
#     Edge 12, Type (0, 0), BuildingBlock: EYOCIG_clean_linker_4, # of connection points: 2
#     Edge 13, Type (0, 0), BuildingBlock: EYOCIG_clean_linker_4, # of connection points: 2
# Relax obj value: 0.084
# Max RMSD: 0.167
# Mean RMSD: 0.167
data_MOF--net-sqp--node1-XOMCOT_clean_sbu_1--edge1-EYOCIG_clean_linker_4
_symmetry_space_group_name_H-M    P1
_symmetry_Int_Tables_number       1
_symmetry_cell_setting            triclinic
loop_
_symmetry_equiv_pos_as_xyz
'x, y, z'
_cell_length_a     19.21994
_cell_length_b     15.863371
_cell_length_c     39.442908
_cell_angle_alpha  89.962348
_cell_angle_beta   95.919615
_cell_angle_gamma 90.010318
loop_
_atom_site_label
_atom_site_type_symbol
_atom_site_fract_x
_atom_site_fract_y
_atom_site_fract_z
_atom_type_partial_charge
C0 C 1.02033 0.20879 0.31785 0.0
C1 C 0.97017 0.27084 0.31283 0.0
N2 N 0.92215 0.24514 0.28786 0.0
N3 N 1.00346 0.14445 0.29616 0.0
C4 C 0.94334 0.16894 0.27793 0.0
H5 H 0.06573 0.20969 0.33648 0.0
Co6 Co 0.05438 0.04434 0.29438 0.0
C7 C 0.9266 0.93177 0.27875 0.0
O8 O 0.92953 0.89934 0.30937 0.0
N9 N 0.10672 0.94257 0.29224 0.0
C10 C 0.14305 0.80985 0.30109 0.0
C11 C 0.09025 0.86618 0.30457 0.0
C12 C 0.17091 0.93042 0.28154 0.0
N13 N 0.19355 0.85048 0.28683 0.0
O14 O 0.08282 0.0799 0.25149 0.0
H15 H 0.04532 0.85249 0.31765 0.0
H16 H 0.2014 0.97927 0.27093 0.0
O17 O 0.97109 0.98686 0.27102 0.0
C18 C 0.13405 0.13002 0.25899 0.0
O19 O 0.15755 0.1406 0.29113 0.0
N20 N 0.03378 1.01834 0.33881 0.0
C21 C 0.02626 1.00931 0.40874 0.0
C22 C 0.96591 1.02524 0.38666 0.0
C23 C 0.97107 1.03131 0.35156 0.0
C24 C 0.09295 1.00583 0.36051 0.0
C25 C 0.09012 0.99936 0.39547 0.0
H26 H 0.92532 0.04896 0.33478 0.0
H27 H 0.1435 1.00406 0.3508 0.0
H28 H 0.91525 0.13164 0.25802 0.0
H29 H 0.9687 0.32979 0.32655 0.0
H30 H 0.14529 0.74476 0.30943 0.0
H31 H 0.91603 0.03577 0.39647 0.0
H32 H 0.13799 0.98967 0.41208 0.0
C33 C 0.05023 0.20879 0.66969 0.0
C34 C 0.10037 0.27088 0.67472 0.0
N35 N 0.14838 0.24514 0.6997 0.0
N36 N 0.06711 0.1444 0.69139 0.0
C37 C 0.1272 0.16889 0.70963 0.0
H38 H 1.00485 0.20971 0.65104 0.0
Co39 Co 1.01624 0.04421 0.69318 0.0
C40 C 0.14423 0.93197 0.70881 0.0
O41 O 0.14151 0.89992 0.67815 0.0
N42 N 0.96399 0.94237 0.69536 0.0
C43 C 0.92796 0.80949 0.68672 0.0
C44 C 0.98074 0.8659 0.68326 0.0
C45 C 0.89965 0.9302 0.70591 0.0
N46 N 0.87719 0.85016 0.70074 0.0
O47 O 0.98774 0.07967 0.73605 0.0
H48 H 0.02591 0.85215 0.67038 0.0
H49 H 0.86896 0.97909 0.71632 0.0
O50 O 0.09957 0.98678 0.71656 0.0
C51 C 0.93645 0.12969 0.7285 0.0
O52 O 0.91302 0.14025 0.69633 0.0
N53 N 0.03687 1.01828 0.64874 0.0
C54 C 0.04436 1.00931 0.57882 0.0
C55 C 0.10465 1.02562 0.60087 0.0
C56 C 0.0995 1.03165 0.63597 0.0
C57 C 0.97774 1.00539 0.62707 0.0
C58 C 0.98056 0.99894 0.59211 0.0
H59 H 0.1452 0.04957 0.65272 0.0
H60 H 0.9272 1.00335 0.63678 0.0
H61 H 0.15528 0.13155 0.72955 0.0
H62 H 0.10184 0.32986 0.66099 0.0
H63 H 0.92594 0.74429 0.67854 0.0
H64 H 0.15449 0.03646 0.59105 0.0
H65 H 0.93272 0.98896 0.57551 0.0
C66 C 0.51994 0.70884 0.81766 0.0
C67 C 0.46981 0.77093 0.81266 0.0
N68 N 0.4216 0.74511 0.78781 0.0
N69 N 0.50287 0.64439 0.79605 0.0
C70 C 0.44265 0.66882 0.77791 0.0
H71 H 0.56546 0.7098 0.83622 0.0
Co72 Co 0.5537 0.54421 0.79436 0.0
C73 C 0.42612 0.43132 0.77877 0.0
O74 O 0.42942 0.39858 0.80935 0.0
N75 N 0.60597 0.44233 0.79233 0.0
C76 C 0.64257 0.30984 0.8016 0.0
C77 C 0.58989 0.3663 0.80514 0.0
C78 C 0.66981 0.42983 0.7813 0.0
N79 N 0.69262 0.35004 0.78684 0.0
O80 O 0.58216 0.57949 0.75143 0.0
H81 H 0.54542 0.35303 0.81861 0.0
H82 H 0.69998 0.47835 0.77029 0.0
O83 O 0.47035 0.48672 0.77104 0.0
C84 C 0.63346 0.62954 0.75888 0.0
O85 O 0.65704 0.64015 0.79102 0.0
N86 N 0.53306 0.51857 0.83879 0.0
C87 C 0.52554 0.51002 0.90872 0.0
C88 C 0.46512 0.52535 0.88661 0.0
C89 C 0.47027 0.53119 0.8515 0.0
C90 C 0.59229 0.50672 0.86051 0.0
C91 C 0.58947 0.50049 0.89548 0.0
H92 H 0.42445 0.5484 0.83468 0.0
H93 H 0.64284 0.5052 0.85079 0.0
H94 H 0.41438 0.63141 0.75809 0.0
H95 H 0.46848 0.82996 0.82634 0.0
H96 H 0.6451 0.24502 0.81027 0.0
H97 H 0.41517 0.53556 0.89639 0.0
H98 H 0.63738 0.49125 0.91211 0.0
C99 C 0.5508 0.70917 0.16974 0.0
C100 C 0.60097 0.77124 0.17472 0.0
N101 N 0.64908 0.74546 0.19964 0.0
N102 N 0.56778 0.64476 0.19141 0.0
C103 C 0.62795 0.66921 0.20958 0.0
H104 H 0.50533 0.71013 0.15115 0.0
Co105 Co 0.51691 0.54461 0.19324 0.0
C106 C 0.64491 0.43226 0.20874 0.0
O107 O 0.64205 0.40021 0.17807 0.0
N108 N 0.46465 0.4428 0.19545 0.0
C109 C 0.4285 0.30998 0.18675 0.0
C110 C 0.48129 0.36637 0.18327 0.0
C111 C 0.40038 0.43063 0.20607 0.0
N112 N 0.37784 0.35063 0.20086 0.0
O113 O 0.48862 0.58005 0.23616 0.0
H114 H 0.52637 0.35265 0.17032 0.0
H115 H 0.36977 0.4795 0.21654 0.0
O116 O 0.60031 0.4871 0.21654 0.0
C117 C 0.43733 0.6301 0.22868 0.0
O118 O 0.41375 0.64069 0.19654 0.0
N119 N 0.53731 0.51874 0.14877 0.0
C120 C 0.54439 0.51002 0.07881 0.0
C121 C 0.60482 0.5261 0.10081 0.0
C122 C 0.59988 0.53202 0.13592 0.0
C123 C 0.47805 0.50607 0.12716 0.0
C124 C 0.48067 0.49975 0.09218 0.0
H125 H 0.64568 0.5498 0.15263 0.0
H126 H 0.42758 0.5041 0.13694 0.0
H127 H 0.65612 0.63185 0.22947 0.0
H128 H 0.60237 0.83025 0.161 0.0
H129 H 0.42638 0.24483 0.17852 0.0
H130 H 0.6546 0.53687 0.09092 0.0
H131 H 0.43273 0.48994 0.07564 0.0
C132 C 0.0305 1.00648 0.47581 0.0
C133 C 0.02496 1.00845 0.44512 0.0
C134 C 0.04008 1.0065 0.51174 0.0
C135 C 0.04563 1.00848 0.54243 0.0
C136 C 0.5397 0.50739 0.01172 0.0
C137 C 0.54545 0.50928 0.04241 0.0
C138 C 0.5299 0.50738 0.9758 0.0
C139 C 0.52423 0.50924 0.9451 0.0
C140 C 0.2072 0.22244 0.22092 0.0
C141 C 0.16789 0.17614 0.23401 0.0
C142 C 0.26184 0.27566 0.21235 0.0
C143 C 0.31415 0.31433 0.2077 0.0
C144 C 0.80956 0.32716 0.26429 0.0
C145 C 0.86159 0.28911 0.27514 0.0
C146 C 0.74963 0.37062 0.24951 0.0
C147 C 0.70004 0.40344 0.23341 0.0
C148 C 0.76176 0.82735 0.22316 0.0
C149 C 0.70969 0.78939 0.21231 0.0
C150 C 0.82176 0.87061 0.23795 0.0
C151 C 0.8714 0.90324 0.25407 0.0
C152 C 0.30953 0.77559 0.27529 0.0
C153 C 0.25723 0.81422 0.27996 0.0
C154 C 0.36419 0.72242 0.26674 0.0
C155 C 0.40352 0.67616 0.25366 0.0
C156 C 0.3089 0.82707 0.76436 0.0
C157 C 0.36098 0.78905 0.77516 0.0
C158 C 0.24892 0.87047 0.74961 0.0
C159 C 0.19932 0.90324 0.73351 0.0
C160 C 0.261 0.32704 0.72329 0.0
C161 C 0.20895 0.28907 0.71242 0.0
C162 C 0.32102 0.3703 0.73808 0.0
C163 C 0.37073 0.40288 0.75417 0.0
C164 C 0.86304 0.22186 0.76648 0.0
C165 C 0.90246 0.17568 0.75343 0.0
C166 C 0.80837 0.27497 0.77506 0.0
C167 C 0.75613 0.31362 0.77982 0.0
C168 C 0.70657 0.72188 0.72076 0.0
C169 C 0.66726 0.67561 0.73388 0.0
C170 C 0.76119 0.77512 0.71219 0.0
C171 C 0.8135 0.81382 0.70755 0.0
loop_
_geom_bond_atom_site_label_1
_geom_bond_atom_site_label_2
_geom_bond_distance
_geom_bond_site_symmetry_2
_ccdc_geom_bond_type
C0 C1 1.351 . S
C0 N3 1.368 . S
C0 H5 0.931 1_655 S
C1 C0 1.351 . S
C1 N2 1.373 . S
C1 H29 0.930 . S
N2 C1 1.373 . S
N2 C4 1.340 . S
N3 C0 1.368 . S
N3 C4 1.321 . S
N3 Co6 2.135 1_655 S
C4 N2 1.340 . S
C4 N3 1.321 . S
C4 H28 0.930 . S
H5 C0 0.931 1_455 S
Co6 N3 2.135 1_455 S
Co6 N9 2.121 1_545 S
Co6 O14 2.055 . S
Co6 O17 2.039 1_445 S
Co6 N20 2.140 . S
C7 O8 1.227 . S
C7 O17 1.265 . S
O8 C7 1.227 . S
N9 Co6 2.121 1_565 S
N9 C11 1.375 . S
N9 C12 1.313 . S
C10 C11 1.338 . S
C10 N13 1.377 . S
C10 H30 0.930 . S
C11 N9 1.375 . S
C11 C10 1.338 . S
C11 H15 0.931 . S
C12 N9 1.313 . S
C12 N13 1.344 . S
C12 H16 0.930 . S
N13 C10 1.377 . S
N13 C12 1.344 . S
O14 Co6 2.055 . S
O14 C18 1.253 . S
H15 C11 0.931 . S
H16 C12 0.930 . S
O17 Co6 2.039 1_665 S
O17 C7 1.265 . S
C18 O14 1.253 . S
C18 O19 1.227 . S
O19 C18 1.227 . S
N20 Co6 2.140 . S
N20 C23 1.346 1_455 S
N20 C24 1.345 1_545 S
C21 C22 1.387 1_465 S
C21 C25 1.391 . S
C22 C21 1.387 1_645 S
C22 C23 1.369 . S
C22 H31 0.929 . S
C23 N20 1.346 1_655 S
C23 C22 1.369 . S
C23 H26 0.928 . S
C24 N20 1.345 1_565 S
C24 C25 1.371 . S
C24 H27 0.931 . S
C25 C21 1.391 . S
C25 C24 1.371 . S
C25 H32 0.930 . S
H26 C23 0.928 . S
H27 C24 0.931 . S
H28 C4 0.930 . S
H29 C1 0.930 . S
H30 C10 0.930 . S
H31 C22 0.929 . S
H32 C25 0.930 . S
C33 C34 1.351 . S
C33 N36 1.368 . S
C33 H38 0.931 . S
C34 C33 1.351 . S
C34 N35 1.373 . S
C34 H62 0.930 . S
N35 C34 1.373 . S
N35 C37 1.340 . S
N36 C33 1.368 . S
N36 C37 1.321 . S
N36 Co39 2.135 . S
C37 N35 1.340 . S
C37 N36 1.321 . S
C37 H61 0.930 . S
H38 C33 0.931 . S
Co39 N36 2.135 . S
Co39 N42 2.121 1_445 S
Co39 O47 2.055 1_455 S
Co39 O50 2.039 1_545 S
Co39 N53 2.140 . S
C40 O41 1.227 . S
C40 O50 1.265 . S
O41 C40 1.227 . S
N42 Co39 2.121 1_665 S
N42 C44 1.375 . S
N42 C45 1.313 . S
C43 C44 1.338 . S
C43 N46 1.377 . S
C43 H63 0.930 . S
C44 N42 1.375 . S
C44 C43 1.338 . S
C44 H48 0.931 1_655 S
C45 N42 1.313 . S
C45 N46 1.344 . S
C45 H49 0.930 . S
N46 C43 1.377 . S
N46 C45 1.344 . S
O47 Co39 2.055 1_655 S
O47 C51 1.253 . S
H48 C44 0.931 1_455 S
H49 C45 0.930 . S
O50 Co39 2.039 1_565 S
O50 C40 1.265 . S
C51 O47 1.253 . S
C51 O52 1.227 . S
O52 C51 1.227 . S
N53 Co39 2.140 . S
N53 C56 1.346 . S
N53 C57 1.345 1_445 S
C54 C55 1.387 1_565 S
C54 C58 1.391 1_455 S
C55 C54 1.387 1_545 S
C55 C56 1.369 . S
C55 H64 0.929 . S
C56 N53 1.346 . S
C56 C55 1.369 . S
C56 H59 0.928 . S
C57 N53 1.345 1_665 S
C57 C58 1.371 . S
C57 H60 0.931 . S
C58 C54 1.391 1_655 S
C58 C57 1.371 . S
C58 H65 0.930 . S
H59 C56 0.928 . S
H60 C57 0.931 . S
H61 C37 0.930 . S
H62 C34 0.930 . S
H63 C43 0.930 . S
H64 C55 0.929 . S
H65 C58 0.930 . S
C66 C67 1.351 . S
C66 N69 1.368 . S
C66 H71 0.931 . S
C67 C66 1.351 . S
C67 N68 1.373 . S
C67 H95 0.930 . S
N68 C67 1.373 . S
N68 C70 1.340 . S
N69 C66 1.368 . S
N69 C70 1.321 . S
N69 Co72 2.135 . S
C70 N68 1.340 . S
C70 N69 1.321 . S
C70 H94 0.930 . S
H71 C66 0.931 . S
Co72 N69 2.135 . S
Co72 N75 2.121 . S
Co72 O80 2.055 . S
Co72 O83 2.039 . S
Co72 N86 2.140 . S
C73 O74 1.227 . S
C73 O83 1.265 . S
O74 C73 1.227 . S
N75 Co72 2.121 . S
N75 C77 1.375 . S
N75 C78 1.313 . S
C76 C77 1.338 . S
C76 N79 1.377 . S
C76 H96 0.930 . S
C77 N75 1.375 . S
C77 C76 1.338 . S
C77 H81 0.931 . S
C78 N75 1.313 . S
C78 N79 1.344 . S
C78 H82 0.930 . S
N79 C76 1.377 . S
N79 C78 1.344 . S
O80 Co72 2.055 . S
O80 C84 1.253 . S
H81 C77 0.931 . S
H82 C78 0.930 . S
O83 Co72 2.039 . S
O83 C73 1.265 . S
C84 O80 1.253 . S
C84 O85 1.227 . S
O85 C84 1.227 . S
N86 Co72 2.140 . S
N86 C89 1.346 . S
N86 C90 1.345 . S
C87 C88 1.387 . S
C87 C91 1.391 . S
C88 C87 1.387 . S
C88 C89 1.369 . S
C88 H97 0.929 . S
C89 N86 1.346 . S
C89 C88 1.369 . S
C89 H92 0.928 . S
C90 N86 1.345 . S
C90 C91 1.371 . S
C90 H93 0.931 . S
C91 C87 1.391 . S
C91 C90 1.371 . S
C91 H98 0.930 . S
H92 C89 0.928 . S
H93 C90 0.931 . S
H94 C70 0.930 . S
H95 C67 0.930 . S
H96 C76 0.930 . S
H97 C88 0.929 . S
H98 C91 0.930 . S
C99 C100 1.351 . S
C99 N102 1.368 . S
C99 H104 0.931 . S
C100 C99 1.351 . S
C100 N101 1.373 . S
C100 H128 0.930 . S
N101 C100 1.373 . S
N101 C103 1.340 . S
N102 C99 1.368 . S
N102 C103 1.321 . S
N102 Co105 2.135 . S
C103 N101 1.340 . S
C103 N102 1.321 . S
C103 H127 0.930 . S
H104 C99 0.931 . S
Co105 N102 2.135 . S
Co105 N108 2.121 . S
Co105 O113 2.055 . S
Co105 O116 2.039 . S
Co105 N119 2.140 . S
C106 O107 1.227 . S
C106 O116 1.265 . S
O107 C106 1.227 . S
N108 Co105 2.121 . S
N108 C110 1.375 . S
N108 C111 1.313 . S
C109 C110 1.338 . S
C109 N112 1.377 . S
C109 H129 0.930 . S
C110 N108 1.375 . S
C110 C109 1.338 . S
C110 H114 0.931 . S
C111 N108 1.313 . S
C111 N112 1.344 . S
C111 H115 0.930 . S
N112 C109 1.377 . S
N112 C111 1.344 . S
O113 Co105 2.055 . S
O113 C117 1.253 . S
H114 C110 0.931 . S
H115 C111 0.930 . S
O116 Co105 2.039 . S
O116 C106 1.265 . S
C117 O113 1.253 . S
C117 O118 1.227 . S
O118 C117 1.227 . S
N119 Co105 2.140 . S
N119 C122 1.346 . S
N119 C123 1.345 . S
C120 C121 1.387 . S
C120 C124 1.391 . S
C121 C120 1.387 . S
C121 C122 1.369 . S
C121 H130 0.929 . S
C122 N119 1.346 . S
C122 C121 1.369 . S
C122 H125 0.928 . S
C123 N119 1.345 . S
C123 C124 1.371 . S
C123 H126 0.931 . S
C124 C120 1.391 . S
C124 C123 1.371 . S
C124 H131 0.930 . S
H125 C122 0.928 . S
H126 C123 0.931 . S
H127 C103 0.930 . S
H128 C100 0.930 . S
H129 C109 0.930 . S
H130 C121 0.929 . S
H131 C124 0.930 . S
C132 C133 1.170 . S
C132 C134 1.380 . S
C133 C132 1.170 . S
C134 C132 1.380 . S
C134 C135 1.170 . S
C135 C134 1.170 . S
C136 C137 1.170 . S
C136 C138 1.380 1_554 S
C137 C136 1.170 . S
C138 C136 1.380 1_556 S
C138 C139 1.170 . S
C139 C138 1.170 . S
C140 C141 1.170 . S
C140 C142 1.380 . S
C141 C140 1.170 . S
C142 C140 1.380 . S
C142 C143 1.170 . S
C143 C142 1.170 . S
C144 C145 1.170 . S
C144 C146 1.380 . S
C145 C144 1.170 . S
C146 C144 1.380 . S
C146 C147 1.170 . S
C147 C146 1.170 . S
C148 C149 1.170 . S
C148 C150 1.380 . S
C149 C148 1.170 . S
C150 C148 1.380 . S
C150 C151 1.170 . S
C151 C150 1.170 . S
C152 C153 1.170 . S
C152 C154 1.380 . S
C153 C152 1.170 . S
C154 C152 1.380 . S
C154 C155 1.170 . S
C155 C154 1.170 . S
C156 C157 1.170 . S
C156 C158 1.380 . S
C157 C156 1.170 . S
C158 C156 1.380 . S
C158 C159 1.170 . S
C159 C158 1.170 . S
C160 C161 1.170 . S
C160 C162 1.380 . S
C161 C160 1.170 . S
C162 C160 1.380 . S
C162 C163 1.170 . S
C163 C162 1.170 . S
C164 C165 1.170 . S
C164 C166 1.380 . S
C165 C164 1.170 . S
C166 C164 1.380 . S
C166 C167 1.170 . S
C167 C166 1.170 . S
C168 C169 1.170 . S
C168 C170 1.380 . S
C169 C168 1.170 . S
C170 C168 1.380 . S
C170 C171 1.170 . S
C171 C170 1.170 . S
C133 C21 1.492 . S
C135 C54 1.493 . S
C137 C120 1.492 . S
C139 C87 1.492 . S
C141 C18 1.538 . S
C143 N112 1.509 . S
C145 N2 1.406 . S
C147 C106 1.451 . S
C149 N101 1.417 . S
C151 C7 1.457 . S
C153 N13 1.511 . S
C155 C117 1.539 . S
C157 N68 1.425 . S
C159 C40 1.462 . S
C161 N35 1.397 . S
C163 C73 1.449 . S
C165 C51 1.534 . S
C167 N79 1.489 . S
C169 C84 1.543 . S
C171 N46 1.508 . S
