# Generated by pormake.
# Topology hex, (8)-cn, num edge types: 1
# Building blocks:
#     Node 0, Type 0, BuildingBlock: NUHRAL_clean_sbu_3, # of connection points: 8
#     Edge 1, Type (0, 0), BuildingBlock: OJICUG_clean_linker_0, # of connection points: 2
#     Edge 2, Type (0, 0), BuildingBlock: OJICUG_clean_linker_0, # of connection points: 2
#     Edge 3, Type (0, 0), BuildingBlock: OJICUG_clean_linker_0, # of connection points: 2
#     Edge 4, Type (0, 0), BuildingBlock: OJICUG_clean_linker_0, # of connection points: 2
# Relax obj value: 0.033
# Max RMSD: 0.092
# Mean RMSD: 0.092
data_MOF--net-hex--node1-NUHRAL_clean_sbu_3--edge1-OJICUG_clean_linker_0
_symmetry_space_group_name_H-M    P1
_symmetry_Int_Tables_number       1
_symmetry_cell_setting            triclinic
loop_
_symmetry_equiv_pos_as_xyz
'x, y, z'
_cell_length_a     18.116188
_cell_length_b     14.382898
_cell_length_c     10.377805
_cell_angle_alpha  113.0633
_cell_angle_beta   101.9633
_cell_angle_gamma 109.84398
loop_
_atom_site_label
_atom_site_type_symbol
_atom_site_fract_x
_atom_site_fract_y
_atom_site_fract_z
_atom_type_partial_charge
C0 C 0.73206 0.81699 0.95146 0.0
C1 C 0.69655 0.72189 0.97039 0.0
C2 C 0.62374 0.69979 1.00603 0.0
C3 C 0.58678 0.77239 0.02131 0.0
C4 C 0.61977 0.86525 0.99929 0.0
C5 C 0.6935 0.88866 0.96714 0.0
O6 O 0.04553 0.94427 0.1426 0.0
Tb7 Tb 0.94203 0.83332 0.91881 0.0
O8 O 0.9415 0.68394 0.92461 0.0
O9 O 0.05927 0.12278 0.26277 0.0
Eu10 Eu 0.106 0.15821 0.09463 0.0
O11 O 0.80903 0.74636 0.81169 0.0
C12 C 0.24919 0.15094 0.11364 0.0
O13 O 0.8769 0.92683 0.99281 0.0
O14 O 0.9964 0.04002 0.86651 0.0
O15 O 0.98543 0.86305 0.75232 0.0
C16 C 0.80249 0.83655 0.89776 0.0
C17 C 0.03538 0.31858 0.05633 0.0
O18 O 0.96634 0.23634 0.03861 0.0
C19 C 0.04099 0.02345 0.25442 0.0
C20 C 1.00097 0.9603 0.75578 0.0
O21 O 0.10755 0.31336 0.08802 0.0
C22 C 0.32256 0.1738 0.06783 0.0
C23 C 0.43688 0.12812 0.02659 0.0
C24 C 0.36181 0.10307 0.05463 0.0
C25 C 0.35881 0.26983 0.05116 0.0
C26 C 0.43291 0.29348 0.01944 0.0
C27 C 0.47055 0.22181 1.00639 0.0
C28 C 1.01328 0.67746 0.95271 0.0
O29 O 0.08191 0.75847 0.96726 0.0
O30 O 0.24389 0.23958 0.20754 0.0
O31 O 0.17465 0.06432 0.01119 0.0
H32 H 0.72439 0.66448 0.95507 0.0
H33 H 0.52975 0.75418 0.04568 0.0
H34 H 0.71854 0.95946 0.94719 0.0
H35 H 0.33588 0.03134 0.07246 0.0
H36 H 0.33022 0.3263 0.06431 0.0
H37 H 0.52833 0.24109 0.98438 0.0
C38 C 0.95297 0.41692 1.00047 0.0
C39 C 0.03026 0.41144 0.03203 0.0
H40 H 0.8868 0.50468 0.95019 0.0
C41 C 0.10161 0.49352 0.03579 0.0
H42 H 0.89669 0.35491 0.99653 0.0
C43 C 0.09579 0.57915 0.00855 0.0
C44 C 1.01849 0.58463 0.97702 0.0
H45 H 0.16196 0.49141 0.05897 0.0
H46 H 0.15206 0.64117 0.01251 0.0
C47 C 0.94716 0.50258 0.97335 0.0
C48 C 0.48394 0.87766 0.92943 0.0
C49 C 0.57354 0.93314 1.00353 0.0
H50 H 0.37041 0.89578 0.87942 0.0
C51 C 0.61755 0.05279 0.08703 0.0
H52 H 0.4484 0.78525 0.86265 0.0
C53 C 0.57277 0.11574 0.09725 0.0
C54 C 0.48315 0.06028 0.02296 0.0
H55 H 0.68632 0.09753 0.14689 0.0
H56 H 0.60834 0.20814 0.16415 0.0
C57 C 0.43916 0.9406 0.9395 0.0
C58 C 0.49778 0.50494 0.12831 0.0
C59 C 0.47694 0.39706 0.01103 0.0
H60 H 0.56413 0.68603 0.22222 0.0
C61 C 0.50781 0.38964 0.89542 0.0
H62 H 0.47651 0.5131 0.22054 0.0
C63 C 0.55887 0.4883 0.89735 0.0
C64 C 0.57973 0.59623 0.01462 0.0
H65 H 0.49267 0.30721 0.80367 0.0
H66 H 0.58005 0.48003 0.80502 0.0
C67 C 0.54891 0.60362 0.13035 0.0
C68 C 1.00531 0.88651 0.49672 0.0
C69 C 1.01171 0.97567 0.62731 0.0
H70 H 1.00882 0.83148 0.27565 0.0
C71 C 0.02761 0.08069 0.63429 0.0
H72 H 0.99297 0.80465 0.48796 0.0
C73 C 0.03663 0.09619 0.51292 0.0
C74 C 0.03025 0.00713 0.38229 0.0
H75 H 0.03314 0.15136 0.73367 0.0
H76 H 0.0489 0.1781 0.52193 0.0
C77 C 1.01433 0.90202 0.37515 0.0
loop_
_geom_bond_atom_site_label_1
_geom_bond_atom_site_label_2
_geom_bond_distance
_geom_bond_site_symmetry_2
_ccdc_geom_bond_type
C0 C1 1.387 . S
C0 C5 1.380 . S
C0 C16 1.494 . S
C1 C0 1.387 . S
C1 C2 1.386 1_556 S
C1 H32 0.930 . S
C2 C1 1.386 1_554 S
C2 C3 1.397 . S
C3 C2 1.397 . S
C3 C4 1.393 1_554 S
C3 H33 0.930 . S
C4 C3 1.393 1_556 S
C4 C5 1.395 . S
C5 C0 1.380 . S
C5 C4 1.395 . S
C5 H34 0.930 . S
O6 Tb7 2.295 1_554 S
O6 C19 1.242 1_665 S
Tb7 O6 2.295 1_556 S
Tb7 O8 2.312 . S
Tb7 O11 2.438 . S
Tb7 O13 2.472 . S
Tb7 O15 2.308 . S
Tb7 C16 2.821 . S
O8 Tb7 2.312 . S
O8 C28 1.264 1_655 S
O9 Eu10 2.308 . S
O9 C19 1.243 . S
Eu10 O9 2.308 . S
Eu10 C12 2.821 . S
Eu10 O14 2.295 1_554 S
Eu10 O21 2.312 . S
Eu10 O30 2.438 . S
Eu10 O31 2.472 . S
O11 Tb7 2.438 . S
O11 C16 1.263 . S
C12 Eu10 2.821 . S
C12 C22 1.494 . S
C12 O30 1.263 . S
C12 O31 1.264 . S
O13 Tb7 2.472 . S
O13 C16 1.264 . S
O14 Eu10 2.295 1_556 S
O14 C20 1.242 1_445 S
O15 Tb7 2.308 . S
O15 C20 1.243 . S
C16 C0 1.494 . S
C16 Tb7 2.821 . S
C16 O11 1.263 . S
C16 O13 1.264 . S
C17 O18 1.260 . S
C17 O21 1.264 1_655 S
O18 C17 1.260 . S
C19 O6 1.242 1_445 S
C19 O9 1.243 . S
C20 O14 1.242 1_665 S
C20 O15 1.243 . S
O21 Eu10 2.312 . S
O21 C17 1.264 1_455 S
C22 C12 1.494 . S
C22 C24 1.380 . S
C22 C25 1.387 . S
C23 C24 1.395 . S
C23 C27 1.393 1_554 S
C24 C22 1.380 . S
C24 C23 1.395 . S
C24 H35 0.930 . S
C25 C22 1.387 . S
C25 C26 1.386 1_554 S
C25 H36 0.930 . S
C26 C25 1.386 1_556 S
C26 C27 1.397 . S
C27 C23 1.393 1_556 S
C27 C26 1.397 . S
C27 H37 0.930 . S
C28 O8 1.264 1_455 S
C28 O29 1.260 . S
O29 C28 1.260 . S
O30 Eu10 2.438 . S
O30 C12 1.263 . S
O31 Eu10 2.472 . S
O31 C12 1.264 . S
H32 C1 0.930 . S
H33 C3 0.930 . S
H34 C5 0.930 . S
H35 C24 0.930 . S
H36 C25 0.930 . S
H37 C27 0.930 . S
C38 C39 1.387 . S
C38 H42 0.950 . S
C38 C47 1.390 . S
C39 C38 1.387 . S
C39 C41 1.387 1_654 S
H40 C47 0.950 . S
C41 C39 1.387 1_456 S
C41 C43 1.390 . S
C41 H45 0.950 . S
H42 C38 0.950 . S
C43 C41 1.390 . S
C43 C44 1.387 . S
C43 H46 0.950 . S
C44 C43 1.387 . S
C44 C47 1.387 1_456 S
H45 C41 0.950 . S
H46 C43 0.950 . S
C47 C38 1.390 . S
C47 H40 0.950 . S
C47 C44 1.387 1_654 S
C48 C49 1.387 . S
C48 H52 0.950 . S
C48 C57 1.390 . S
C49 C48 1.387 . S
C49 C51 1.387 1_566 S
H50 C57 0.950 . S
C51 C49 1.387 1_544 S
C51 C53 1.390 . S
C51 H55 0.950 . S
H52 C48 0.950 . S
C53 C51 1.390 . S
C53 C54 1.387 . S
C53 H56 0.950 . S
C54 C53 1.387 . S
C54 C57 1.387 1_544 S
H55 C51 0.950 . S
H56 C53 0.950 . S
C57 C48 1.390 . S
C57 H50 0.950 . S
C57 C54 1.387 1_566 S
C58 C59 1.387 1_554 S
C58 H62 0.950 . S
C58 C67 1.390 . S
C59 C58 1.387 1_556 S
C59 C61 1.387 . S
H60 C67 0.950 . S
C61 C59 1.387 . S
C61 C63 1.390 . S
C61 H65 0.950 . S
H62 C58 0.950 . S
C63 C61 1.390 . S
C63 C64 1.387 1_556 S
C63 H66 0.950 . S
C64 C63 1.387 1_554 S
C64 C67 1.387 . S
H65 C61 0.950 . S
H66 C63 0.950 . S
C67 C58 1.390 . S
C67 H60 0.950 . S
C67 C64 1.387 . S
C68 C69 1.385 1_655 S
C68 H72 0.950 . S
C68 C77 1.390 . S
C69 C68 1.385 1_455 S
C69 C71 1.387 1_565 S
H70 C77 0.950 . S
C71 C69 1.387 1_545 S
C71 C73 1.390 . S
C71 H75 0.950 . S
H72 C68 0.950 . S
C73 C71 1.390 . S
C73 C74 1.384 . S
C73 H76 0.950 . S
C74 C73 1.384 . S
C74 C77 1.387 1_445 S
H75 C71 0.950 . S
H76 C73 0.950 . S
C77 C68 1.390 . S
C77 H70 0.950 . S
C77 C74 1.387 1_665 S
C39 C17 0.640 . S
C44 C28 0.640 . S
C49 C4 2.032 . S
C54 C23 2.032 . S
C59 C26 1.849 . S
C64 C2 1.849 . S
C69 C20 1.494 1_455 S
C74 C19 1.495 . S
