# Generated by pormake.
# Topology umf, (4)-cn, num edge types: 1
# Building blocks:
#     Node 0, Type 0, BuildingBlock: MUDLON_clean_sbu_0, # of connection points: 4
#     Node 1, Type 0, BuildingBlock: MUDLON_clean_sbu_0, # of connection points: 4
#     Node 2, Type 0, BuildingBlock: MUDLON_clean_sbu_0, # of connection points: 4
#     Node 3, Type 0, BuildingBlock: MUDLON_clean_sbu_0, # of connection points: 4
#     Node 4, Type 0, BuildingBlock: MUDLON_clean_sbu_0, # of connection points: 4
#     Node 5, Type 0, BuildingBlock: MUDLON_clean_sbu_0, # of connection points: 4
#     Node 6, Type 0, BuildingBlock: MUDLON_clean_sbu_0, # of connection points: 4
#     Node 7, Type 0, BuildingBlock: MUDLON_clean_sbu_0, # of connection points: 4
#     Edge 8, Type (0, 0), BuildingBlock: OJICUG_clean_linker_0, # of connection points: 2
#     Edge 9, Type (0, 0), BuildingBlock: OJICUG_clean_linker_0, # of connection points: 2
#     Edge 10, Type (0, 0), BuildingBlock: OJICUG_clean_linker_0, # of connection points: 2
#     Edge 11, Type (0, 0), BuildingBlock: OJICUG_clean_linker_0, # of connection points: 2
#     Edge 12, Type (0, 0), BuildingBlock: OJICUG_clean_linker_0, # of connection points: 2
#     Edge 13, Type (0, 0), BuildingBlock: OJICUG_clean_linker_0, # of connection points: 2
#     Edge 14, Type (0, 0), BuildingBlock: OJICUG_clean_linker_0, # of connection points: 2
#     Edge 15, Type (0, 0), BuildingBlock: OJICUG_clean_linker_0, # of connection points: 2
#     Edge 16, Type (0, 0), BuildingBlock: OJICUG_clean_linker_0, # of connection points: 2
#     Edge 17, Type (0, 0), BuildingBlock: OJICUG_clean_linker_0, # of connection points: 2
#     Edge 18, Type (0, 0), BuildingBlock: OJICUG_clean_linker_0, # of connection points: 2
#     Edge 19, Type (0, 0), BuildingBlock: OJICUG_clean_linker_0, # of connection points: 2
#     Edge 20, Type (0, 0), BuildingBlock: OJICUG_clean_linker_0, # of connection points: 2
#     Edge 21, Type (0, 0), BuildingBlock: OJICUG_clean_linker_0, # of connection points: 2
#     Edge 22, Type (0, 0), BuildingBlock: OJICUG_clean_linker_0, # of connection points: 2
#     Edge 23, Type (0, 0), BuildingBlock: OJICUG_clean_linker_0, # of connection points: 2
# Relax obj value: 0.092
# Max RMSD: 0.170
# Mean RMSD: 0.170
data_MOF--net-umf--node1-MUDLON_clean_sbu_0--edge1-OJICUG_clean_linker_0
_symmetry_space_group_name_H-M    P1
_symmetry_Int_Tables_number       1
_symmetry_cell_setting            triclinic
loop_
_symmetry_equiv_pos_as_xyz
'x, y, z'
_cell_length_a     21.528678
_cell_length_b     21.658993
_cell_length_c     40.150638
_cell_angle_alpha  90.104567
_cell_angle_beta   89.73474
_cell_angle_gamma 89.688995
loop_
_atom_site_label
_atom_site_type_symbol
_atom_site_fract_x
_atom_site_fract_y
_atom_site_fract_z
_atom_type_partial_charge
Mg0 Mg 0.07653 0.25644 0.17926 0.0
C1 C 0.02744 0.25313 0.11202 0.0
O2 O 0.97872 0.25565 0.13184 0.0
C3 C 0.14821 0.26445 0.23989 0.0
O4 O 0.09371 0.28885 0.24698 0.0
C5 C 0.08262 0.389 0.18665 0.0
O6 O 0.13908 0.37138 0.17826 0.0
O7 O 0.0408 0.34805 0.18981 0.0
O8 O 0.0813 0.2519 0.12512 0.0
O9 O 0.02244 0.17641 0.19381 0.0
C10 C 0.05555 0.12763 0.196 0.0
O11 O 0.11565 0.13182 0.19075 0.0
O12 O 0.15915 0.24811 0.20991 0.0
Mg13 Mg 0.74133 0.06555 0.68448 0.0
C14 C 0.74158 0.01896 0.61616 0.0
O15 O 0.72483 0.97172 0.63456 0.0
C16 C 0.72382 0.15639 0.74047 0.0
O17 O 0.68099 0.11573 0.74775 0.0
C18 C 0.62103 1.00581 0.71672 0.0
O19 O 0.65511 0.98941 0.74232 0.0
O20 O 0.64637 0.03247 0.69197 0.0
O21 O 0.75127 0.0706 0.63049 0.0
O22 O 0.8225 0.00904 0.69698 0.0
C23 C 0.85965 0.02698 0.7196 0.0
O24 O 0.84207 0.0716 0.73976 0.0
O25 O 0.75298 0.15122 0.71288 0.0
Mg26 Mg 0.92979 0.75552 0.1784 0.0
C27 C 0.98141 0.76852 0.11147 0.0
O28 O 0.02906 0.77323 0.13162 0.0
C29 C 0.85329 0.73807 0.23764 0.0
O30 O 0.90535 0.70856 0.24398 0.0
C31 C 0.0251 0.64938 0.19018 0.0
O32 O 0.06855 0.69124 0.18668 0.0
O33 O 0.96842 0.66524 0.18856 0.0
O34 O 0.92745 0.76166 0.12418 0.0
O35 O 0.98126 0.83636 0.19407 0.0
C36 C 0.94754 0.88476 0.19624 0.0
O37 O 0.88766 0.87994 0.19071 0.0
O38 O 0.84567 0.76048 0.2086 0.0
Mg39 Mg 0.24041 0.92209 0.68006 0.0
C40 C 0.24296 0.96801 0.6128 0.0
O41 O 0.24004 0.01637 0.63258 0.0
C42 C 0.27721 0.82182 0.73034 0.0
O43 O 0.33273 0.84564 0.72676 0.0
C44 C 0.35305 0.97985 0.71864 0.0
O45 O 0.32245 0.96833 0.74632 0.0
O46 O 0.32718 0.97002 0.69072 0.0
O47 O 0.24387 0.91444 0.62598 0.0
O48 O 0.1515 0.96873 0.68753 0.0
C49 C 0.12208 0.96769 0.71504 0.0
O50 O 0.1495 0.94568 0.74169 0.0
O51 O 0.23365 0.83917 0.71108 0.0
Mg52 Mg 0.0753 0.76756 0.90174 0.0
C53 C 0.02479 0.76629 0.96873 0.0
O54 O 0.97697 0.76322 0.94857 0.0
C55 C 0.18124 0.73043 0.85417 0.0
O56 O 0.15823 0.67493 0.85798 0.0
C57 C 0.02371 0.65141 0.86382 0.0
O58 O 0.03582 0.68085 0.83597 0.0
O59 O 0.03098 0.67889 0.89156 0.0
O60 O 0.07914 0.76862 0.95598 0.0
O61 O 0.02649 0.85417 0.8918 0.0
C62 C 0.04067 0.88748 0.86684 0.0
O63 O 0.07724 0.86456 0.84358 0.0
O64 O 0.16145 0.77428 0.87261 0.0
Mg65 Mg 0.26044 0.05919 0.40319 0.0
C66 C 0.25572 0.0071 0.47006 0.0
O67 O 0.26276 0.95943 0.45008 0.0
C68 C 0.27485 0.14686 0.34751 0.0
O69 O 0.31468 0.10285 0.33989 0.0
C70 C 0.39266 0.07163 0.40515 0.0
O71 O 0.36893 0.1207 0.41984 0.0
O72 O 0.3557 0.03102 0.39386 0.0
O73 O 0.25271 0.06089 0.45728 0.0
O74 O 0.18258 1.00164 0.38879 0.0
C75 C 0.14999 0.01287 0.36309 0.0
O76 O 0.17134 0.05081 0.34035 0.0
O77 O 0.24689 0.14441 0.37553 0.0
Mg78 Mg 0.94275 0.26628 0.90165 0.0
C79 C 0.99125 0.26081 0.969 0.0
O80 O 0.04011 0.26319 0.94931 0.0
C81 C 0.85086 0.2823 0.84598 0.0
O82 O 0.89026 0.32634 0.83889 0.0
C83 C 1.00295 0.38444 0.86753 0.0
O84 O 0.01826 0.35001 0.84176 0.0
O85 O 0.97702 0.35985 0.89274 0.0
O86 O 0.93746 0.2616 0.95581 0.0
O87 O 0.99798 0.18365 0.89097 0.0
C88 C 0.98704 0.14973 0.86577 0.0
O89 O 0.95086 0.1708 0.84208 0.0
O90 O 0.85722 0.25282 0.87322 0.0
Mg91 Mg 0.76576 0.94085 0.40473 0.0
C92 C 0.78285 0.98219 0.47457 0.0
O93 O 0.81076 0.02546 0.45727 0.0
C94 C 0.7359 0.85554 0.34881 0.0
O95 O 0.69855 0.90219 0.34265 0.0
C96 C 0.65772 0.03279 0.40699 0.0
O97 O 0.68813 0.05547 0.43245 0.0
O98 O 0.68254 0.9902 0.38965 0.0
O99 O 0.76051 0.93591 0.45909 0.0
O100 O 0.85594 0.98063 0.39357 0.0
C101 C 0.88528 0.97066 0.36647 0.0
O102 O 0.85702 0.94314 0.34167 0.0
O103 O 0.76615 0.85531 0.37604 0.0
C104 C 1.00724 0.47591 0.19599 0.0
C105 C 0.06838 0.45547 0.19051 0.0
H106 H 0.94573 0.55325 0.20047 0.0
C107 C 0.11597 0.49941 0.18736 0.0
H108 H 0.96963 0.44325 0.19868 0.0
C109 C 0.10239 0.56253 0.18844 0.0
C110 C 0.04091 0.583 0.1926 0.0
H111 H 0.16372 0.48514 0.18335 0.0
H112 H 0.13984 0.59515 0.18507 0.0
C113 C 0.99364 0.53902 0.19699 0.0
C114 C 0.45231 0.00805 0.68984 0.0
C115 C 0.42096 0.99145 0.71926 0.0
H116 H 0.53945 0.025 0.66591 0.0
C117 C 0.45604 0.98006 0.74811 0.0
H118 H 0.42685 0.01694 0.66712 0.0
C119 C 0.52106 0.98387 0.7473 0.0
C120 C 0.55234 0.99968 0.71771 0.0
H121 H 0.43345 0.96657 0.77111 0.0
H122 H 0.54675 0.97448 0.76988 0.0
C123 C 0.51704 0.01231 0.6891 0.0
C124 C 0.99563 0.48856 0.89466 0.0
C125 C 1.00848 0.45277 0.86615 0.0
H126 H 0.98933 0.57879 0.91614 0.0
C127 C 0.02347 0.48321 0.83627 0.0
H128 H 0.98357 0.46682 0.91807 0.0
C129 C 0.02604 0.5479 0.83506 0.0
C130 C 0.01411 0.58351 0.86377 0.0
H131 H 0.03302 0.45714 0.81377 0.0
H132 H 0.03876 0.56987 0.81182 0.0
C133 C 0.99856 0.55295 0.89351 0.0
C134 C 0.49958 0.10497 0.42051 0.0
C135 C 0.46087 0.06421 0.403 0.0
H136 H 0.59213 0.12736 0.43524 0.0
C137 C 0.48806 0.01635 0.38425 0.0
H138 H 0.48016 0.14263 0.43505 0.0
C139 C 0.55259 0.00818 0.38399 0.0
C140 C 0.591 0.04729 0.40282 0.0
H141 H 0.4595 0.98459 0.37026 0.0
H142 H 0.57206 0.96969 0.37012 0.0
C143 C 0.56386 0.09641 0.42056 0.0
C144 C 0.0604 0.25604 1.01904 0.0
C145 C 1.00004 0.25769 1.00561 0.0
H146 H 0.11656 0.25314 0.06298 0.0
C147 C 0.94902 0.25671 1.02748 0.0
H148 H 0.10087 0.2566 1.00293 0.0
C149 C 0.95817 0.2547 0.06195 0.0
C150 C 0.01853 0.25357 0.07539 0.0
H151 H 0.90201 0.25783 1.018 0.0
H152 H 0.91771 0.25436 0.07808 0.0
C153 C 0.06954 0.25398 0.05351 0.0
C154 C 0.73471 0.95431 0.56442 0.0
C155 C 0.75138 0.01028 0.57982 0.0
H156 H 0.73149 0.90134 0.51929 0.0
C157 C 0.77896 0.05649 0.56035 0.0
H158 H 0.71335 0.91763 0.57867 0.0
C159 C 0.78987 0.04681 0.52634 0.0
C160 C 0.77306 0.99088 0.51091 0.0
H161 H 0.79261 0.09996 0.57142 0.0
H162 H 0.81116 0.08353 0.51209 0.0
C163 C 0.74521 0.9448 0.53035 0.0
C164 C 0.94238 0.76341 0.05259 0.0
C165 C 0.99199 0.76899 0.07491 0.0
H166 H 0.91389 0.75815 1.00173 0.0
C167 C 0.05276 0.77394 0.062 0.0
H168 H 0.89511 0.75944 0.06165 0.0
C169 C 0.06371 0.77302 1.02761 0.0
C170 C 0.01412 0.76727 1.00529 0.0
H171 H 0.0922 0.77823 0.07848 0.0
H172 H 0.111 0.7768 1.01854 0.0
C173 C 0.95332 0.76262 1.0182 0.0
C174 C 0.25393 0.937 0.51977 0.0
C175 C 0.25183 0.99723 0.50658 0.0
H176 H 0.2527 0.88028 0.56353 0.0
C177 C 0.24632 0.04734 0.52859 0.0
H178 H 0.2581 0.89723 0.50351 0.0
C179 C 0.24328 0.0375 0.56298 0.0
C180 C 0.24559 0.9773 0.57621 0.0
H181 H 0.24457 0.09424 0.51931 0.0
H182 H 0.23923 0.07734 0.5792 0.0
C183 C 0.25081 0.92713 0.5542 0.0
C184 C 0.17199 0.25798 0.30062 0.0
C185 C 0.18951 0.2455 0.26745 0.0
H186 H 0.18563 0.23703 0.35216 0.0
C187 C 0.24205 0.20846 0.2614 0.0
H188 H 0.13215 0.28701 0.30621 0.0
C189 C 0.27308 0.1802 0.28787 0.0
C190 C 0.25187 0.18812 0.32086 0.0
H191 H 0.25706 0.19838 0.23617 0.0
H192 H 0.31127 0.14911 0.28222 0.0
C193 C 0.20273 0.22943 0.32706 0.0
C194 C 0.76404 0.21455 0.82655 0.0
C195 C 0.80991 0.25839 0.81941 0.0
H196 H 0.69959 0.14917 0.80713 0.0
C197 C 0.8214 0.27414 0.78591 0.0
H198 H 0.75396 0.20162 0.85205 0.0
C199 C 0.79108 0.24334 0.76007 0.0
C200 C 0.74774 0.197 0.76718 0.0
H201 H 0.85648 0.3078 0.77949 0.0
H202 H 0.80339 0.25409 0.73455 0.0
C203 C 0.73283 0.18462 0.80071 0.0
C204 C 0.80023 0.76847 0.32587 0.0
C205 C 0.75477 0.81421 0.32106 0.0
H206 H 0.86604 0.70732 0.30313 0.0
C207 C 0.7343 0.82646 0.28845 0.0
H208 H 0.81658 0.75745 0.35065 0.0
C209 C 0.76315 0.79821 0.26106 0.0
C210 C 0.81261 0.75673 0.26581 0.0
H211 H 0.69887 0.86106 0.28382 0.0
H212 H 0.74927 0.81179 0.23622 0.0
C213 C 0.82864 0.73981 0.29853 0.0
C214 C 0.21649 0.74321 0.76228 0.0
C215 C 0.26095 0.79028 0.76176 0.0
H216 H 0.15831 0.68553 0.79231 0.0
C217 C 0.28404 0.81292 0.79213 0.0
H218 H 0.19762 0.72543 0.73923 0.0
C219 C 0.26009 0.79171 0.82248 0.0
C220 C 0.21437 0.74584 0.82299 0.0
H221 H 0.31772 0.84991 0.79242 0.0
H222 H 0.27589 0.81243 0.84549 0.0
C223 C 0.19425 0.72035 0.79265 0.0
C224 C 0.06561 0.0131 0.20213 0.0
C225 C 0.02741 0.066 0.20059 0.0
H226 H 0.07052 0.9143 0.20218 0.0
C227 C 0.9627 0.05865 0.20102 0.0
H228 H 0.11574 0.01712 0.20217 0.0
C229 C 0.93684 0.99958 0.20112 0.0
C230 C 0.97514 0.94665 0.20076 0.0
H231 H 0.93202 0.09841 0.20007 0.0
H232 H 0.88675 0.99551 0.20033 0.0
C233 C 0.03976 0.95405 0.2022 0.0
C234 C 0.0284 0.00912 0.7447 0.0
C235 C 0.05506 0.98311 0.71602 0.0
H236 H 0.94536 0.0426 0.76847 0.0
C237 C 0.01658 0.96896 0.68889 0.0
H238 H 0.05748 0.02118 0.76558 0.0
C239 C 0.95251 0.98041 0.69055 0.0
C240 C 0.9258 0.00722 0.7192 0.0
H241 H 0.03592 0.94832 0.6665 0.0
H242 H 0.92424 0.96978 0.66907 0.0
C243 C 0.96451 0.02133 0.74625 0.0
C244 C 0.01244 0.05082 0.83626 0.0
C245 C 1.00417 0.0834 0.86619 0.0
H246 H 0.03013 0.96286 0.8131 0.0
C247 C 1.00656 0.05079 0.89641 0.0
H248 H 0.01079 0.07509 0.81277 0.0
C249 C 0.01616 0.98675 0.89659 0.0
C250 C 0.02488 0.95419 0.86658 0.0
H251 H 0.99945 0.07452 0.91991 0.0
H252 H 0.01793 0.96294 0.92027 0.0
C253 C 0.02333 0.98696 0.83646 0.0
C254 C 0.98794 0.97995 0.3945 0.0
C255 C 0.95309 0.98096 0.36501 0.0
H256 H 0.0775 0.98685 0.41684 0.0
C257 C 0.98412 0.9886 0.33442 0.0
H258 H 0.96551 0.97318 0.41841 0.0
C259 C 0.04862 0.99727 0.33353 0.0
C260 C 0.08332 0.99653 0.36312 0.0
H261 H 0.95843 0.98903 0.31128 0.0
H262 H 0.07123 1.00505 0.30975 0.0
C263 C 0.05232 0.98689 0.39353 0.0
loop_
_geom_bond_atom_site_label_1
_geom_bond_atom_site_label_2
_geom_bond_distance
_geom_bond_site_symmetry_2
_ccdc_geom_bond_type
Mg0 O7 2.141 . S
Mg0 O8 2.048 . S
Mg0 O9 2.048 . S
Mg0 O12 2.141 . S
C1 O2 1.313 1_455 S
C1 O8 1.195 . S
O2 C1 1.313 1_655 S
C3 O4 1.245 . S
C3 O12 1.289 . S
O4 C3 1.245 . S
C5 O6 1.245 . S
C5 O7 1.289 . S
O6 C5 1.245 . S
O7 Mg0 2.141 . S
O7 C5 1.289 . S
O8 Mg0 2.048 . S
O8 C1 1.195 . S
O9 Mg0 2.048 . S
O9 C10 1.195 . S
C10 O9 1.195 . S
C10 O11 1.313 . S
O11 C10 1.313 . S
O12 Mg0 2.141 . S
O12 C3 1.289 . S
Mg13 O20 2.141 . S
Mg13 O21 2.048 . S
Mg13 O22 2.048 . S
Mg13 O25 2.141 . S
C14 O15 1.313 1_545 S
C14 O21 1.195 . S
O15 C14 1.313 1_565 S
C16 O17 1.245 . S
C16 O25 1.289 . S
O17 C16 1.245 . S
C18 O19 1.245 . S
C18 O20 1.289 . S
O19 C18 1.245 . S
O20 Mg13 2.141 . S
O20 C18 1.289 . S
O21 Mg13 2.048 . S
O21 C14 1.195 . S
O22 Mg13 2.048 . S
O22 C23 1.195 . S
C23 O22 1.195 . S
C23 O24 1.313 . S
O24 C23 1.313 . S
O25 Mg13 2.141 . S
O25 C16 1.289 . S
Mg26 O33 2.141 . S
Mg26 O34 2.048 . S
Mg26 O35 2.048 . S
Mg26 O38 2.141 . S
C27 O28 1.313 1_655 S
C27 O34 1.195 . S
O28 C27 1.313 1_455 S
C29 O30 1.245 . S
C29 O38 1.289 . S
O30 C29 1.245 . S
C31 O32 1.245 . S
C31 O33 1.289 . S
O32 C31 1.245 . S
O33 Mg26 2.141 . S
O33 C31 1.289 . S
O34 Mg26 2.048 . S
O34 C27 1.195 . S
O35 Mg26 2.048 . S
O35 C36 1.195 . S
C36 O35 1.195 . S
C36 O37 1.313 . S
O37 C36 1.313 . S
O38 Mg26 2.141 . S
O38 C29 1.289 . S
Mg39 O46 2.141 . S
Mg39 O47 2.048 . S
Mg39 O48 2.048 . S
Mg39 O51 2.141 . S
C40 O41 1.313 1_565 S
C40 O47 1.195 . S
O41 C40 1.313 1_545 S
C42 O43 1.245 . S
C42 O51 1.289 . S
O43 C42 1.245 . S
C44 O45 1.245 . S
C44 O46 1.289 . S
O45 C44 1.245 . S
O46 Mg39 2.141 . S
O46 C44 1.289 . S
O47 Mg39 2.048 . S
O47 C40 1.195 . S
O48 Mg39 2.048 . S
O48 C49 1.195 . S
C49 O48 1.195 . S
C49 O50 1.313 . S
O50 C49 1.313 . S
O51 Mg39 2.141 . S
O51 C42 1.289 . S
Mg52 O59 2.141 . S
Mg52 O60 2.048 . S
Mg52 O61 2.048 . S
Mg52 O64 2.141 . S
C53 O54 1.313 1_455 S
C53 O60 1.195 . S
O54 C53 1.313 1_655 S
C55 O56 1.245 . S
C55 O64 1.289 . S
O56 C55 1.245 . S
C57 O58 1.245 . S
C57 O59 1.289 . S
O58 C57 1.245 . S
O59 Mg52 2.141 . S
O59 C57 1.289 . S
O60 Mg52 2.048 . S
O60 C53 1.195 . S
O61 Mg52 2.048 . S
O61 C62 1.195 . S
C62 O61 1.195 . S
C62 O63 1.313 . S
O63 C62 1.313 . S
O64 Mg52 2.141 . S
O64 C55 1.289 . S
Mg65 O72 2.141 . S
Mg65 O73 2.048 . S
Mg65 O74 2.048 . S
Mg65 O77 2.141 . S
C66 O67 1.313 1_545 S
C66 O73 1.195 . S
O67 C66 1.313 1_565 S
C68 O69 1.245 . S
C68 O77 1.289 . S
O69 C68 1.245 . S
C70 O71 1.245 . S
C70 O72 1.289 . S
O71 C70 1.245 . S
O72 Mg65 2.141 . S
O72 C70 1.289 . S
O73 Mg65 2.048 . S
O73 C66 1.195 . S
O74 Mg65 2.048 . S
O74 C75 1.195 . S
C75 O74 1.195 . S
C75 O76 1.313 . S
O76 C75 1.313 . S
O77 Mg65 2.141 . S
O77 C68 1.289 . S
Mg78 O85 2.141 . S
Mg78 O86 2.048 . S
Mg78 O87 2.048 . S
Mg78 O90 2.141 . S
C79 O80 1.313 1_655 S
C79 O86 1.195 . S
O80 C79 1.313 1_455 S
C81 O82 1.245 . S
C81 O90 1.289 . S
O82 C81 1.245 . S
C83 O84 1.245 . S
C83 O85 1.289 . S
O84 C83 1.245 . S
O85 Mg78 2.141 . S
O85 C83 1.289 . S
O86 Mg78 2.048 . S
O86 C79 1.195 . S
O87 Mg78 2.048 . S
O87 C88 1.195 . S
C88 O87 1.195 . S
C88 O89 1.313 . S
O89 C88 1.313 . S
O90 Mg78 2.141 . S
O90 C81 1.289 . S
Mg91 O98 2.141 . S
Mg91 O99 2.048 . S
Mg91 O100 2.048 . S
Mg91 O103 2.141 . S
C92 O93 1.313 1_565 S
C92 O99 1.195 . S
O93 C92 1.313 1_545 S
C94 O95 1.245 . S
C94 O103 1.289 . S
O95 C94 1.245 . S
C96 O97 1.245 . S
C96 O98 1.289 . S
O97 C96 1.245 . S
O98 Mg91 2.141 . S
O98 C96 1.289 . S
O99 Mg91 2.048 . S
O99 C92 1.195 . S
O100 Mg91 2.048 . S
O100 C101 1.195 . S
C101 O100 1.195 . S
C101 O102 1.313 . S
O102 C101 1.313 . S
O103 Mg91 2.141 . S
O103 C94 1.289 . S
C104 C105 1.387 . S
C104 H108 0.950 . S
C104 C113 1.390 1_455 S
C105 C104 1.387 . S
C105 C107 1.387 . S
H106 C113 0.950 . S
C107 C105 1.387 . S
C107 C109 1.390 1_455 S
C107 H111 0.950 . S
H108 C104 0.950 . S
C109 C107 1.390 1_655 S
C109 C110 1.387 . S
C109 H112 0.950 . S
C110 C109 1.387 . S
C110 C113 1.387 . S
H111 C107 0.950 . S
H112 C109 0.950 . S
C113 C104 1.390 1_655 S
C113 H106 0.950 . S
C113 C110 1.387 . S
C114 C115 1.387 . S
C114 H118 0.950 . S
C114 C123 1.390 1_565 S
C115 C114 1.387 . S
C115 C117 1.387 . S
H116 C123 0.950 . S
C117 C115 1.387 . S
C117 C119 1.390 1_565 S
C117 H121 0.950 . S
H118 C114 0.950 . S
C119 C117 1.390 1_545 S
C119 C120 1.387 . S
C119 H122 0.950 . S
C120 C119 1.387 . S
C120 C123 1.387 . S
H121 C117 0.950 . S
H122 C119 0.950 . S
C123 C114 1.390 1_545 S
C123 H116 0.950 . S
C123 C120 1.387 . S
C124 C125 1.387 . S
C124 H128 0.950 . S
C124 C133 1.390 1_655 S
C125 C124 1.387 . S
C125 C127 1.387 . S
H126 C133 0.950 . S
C127 C125 1.387 . S
C127 C129 1.390 1_655 S
C127 H131 0.950 . S
H128 C124 0.950 . S
C129 C127 1.390 1_455 S
C129 C130 1.387 . S
C129 H132 0.950 . S
C130 C129 1.387 . S
C130 C133 1.387 . S
H131 C127 0.950 . S
H132 C129 0.950 . S
C133 C124 1.390 1_455 S
C133 H126 0.950 . S
C133 C130 1.387 . S
C134 C135 1.387 . S
C134 H138 0.950 . S
C134 C143 1.390 1_545 S
C135 C134 1.387 . S
C135 C137 1.387 . S
H136 C143 0.950 . S
C137 C135 1.387 . S
C137 C139 1.390 1_545 S
C137 H141 0.950 . S
H138 C134 0.950 . S
C139 C137 1.390 1_565 S
C139 C140 1.387 . S
C139 H142 0.950 . S
C140 C139 1.387 . S
C140 C143 1.387 . S
H141 C137 0.950 . S
H142 C139 0.950 . S
C143 C134 1.390 1_565 S
C143 H136 0.950 . S
C143 C140 1.387 . S
C144 C145 1.387 . S
C144 H148 0.950 . S
C144 C153 1.390 1_656 S
C145 C144 1.387 . S
C145 C147 1.387 . S
H146 C153 0.950 . S
C147 C145 1.387 . S
C147 C149 1.390 1_656 S
C147 H151 0.950 . S
H148 C144 0.950 . S
C149 C147 1.390 1_454 S
C149 C150 1.387 . S
C149 H152 0.950 . S
C150 C149 1.387 . S
C150 C153 1.387 . S
H151 C147 0.950 . S
H152 C149 0.950 . S
C153 C144 1.390 1_454 S
C153 H146 0.950 . S
C153 C150 1.387 . S
C154 C155 1.387 . S
C154 H158 0.950 . S
C154 C163 1.390 1_545 S
C155 C154 1.387 . S
C155 C157 1.387 . S
H156 C163 0.950 . S
C157 C155 1.387 . S
C157 C159 1.390 1_545 S
C157 H161 0.950 . S
H158 C154 0.950 . S
C159 C157 1.390 1_565 S
C159 C160 1.387 . S
C159 H162 0.950 . S
C160 C159 1.387 . S
C160 C163 1.387 . S
H161 C157 0.950 . S
H162 C159 0.950 . S
C163 C154 1.390 1_565 S
C163 H156 0.950 . S
C163 C160 1.387 . S
C164 C165 1.387 . S
C164 H168 0.950 . S
C164 C173 1.390 1_654 S
C165 C164 1.387 . S
C165 C167 1.387 . S
H166 C173 0.950 . S
C167 C165 1.387 . S
C167 C169 1.390 1_654 S
C167 H171 0.950 . S
H168 C164 0.950 . S
C169 C167 1.390 1_456 S
C169 C170 1.387 . S
C169 H172 0.950 . S
C170 C169 1.387 . S
C170 C173 1.387 . S
H171 C167 0.950 . S
H172 C169 0.950 . S
C173 C164 1.390 1_456 S
C173 H166 0.950 . S
C173 C170 1.387 . S
C174 C175 1.387 . S
C174 H178 0.950 . S
C174 C183 1.390 1_545 S
C175 C174 1.387 . S
C175 C177 1.387 . S
H176 C183 0.950 . S
C177 C175 1.387 . S
C177 C179 1.390 1_545 S
C177 H181 0.950 . S
H178 C174 0.950 . S
C179 C177 1.390 1_565 S
C179 C180 1.387 . S
C179 H182 0.950 . S
C180 C179 1.387 . S
C180 C183 1.387 . S
H181 C177 0.950 . S
H182 C179 0.950 . S
C183 C174 1.390 1_565 S
C183 H176 0.950 . S
C183 C180 1.387 . S
C184 C185 1.387 . S
C184 H188 0.950 . S
C184 C193 1.390 . S
C185 C184 1.387 . S
C185 C187 1.387 . S
H186 C193 0.950 . S
C187 C185 1.387 . S
C187 C189 1.390 . S
C187 H191 0.950 . S
H188 C184 0.950 . S
C189 C187 1.390 . S
C189 C190 1.387 . S
C189 H192 0.950 . S
C190 C189 1.387 . S
C190 C193 1.387 . S
H191 C187 0.950 . S
H192 C189 0.950 . S
C193 C184 1.390 . S
C193 H186 0.950 . S
C193 C190 1.387 . S
C194 C195 1.387 . S
C194 H198 0.950 . S
C194 C203 1.390 . S
C195 C194 1.387 . S
C195 C197 1.387 . S
H196 C203 0.950 . S
C197 C195 1.387 . S
C197 C199 1.390 . S
C197 H201 0.950 . S
H198 C194 0.950 . S
C199 C197 1.390 . S
C199 C200 1.387 . S
C199 H202 0.950 . S
C200 C199 1.387 . S
C200 C203 1.387 . S
H201 C197 0.950 . S
H202 C199 0.950 . S
C203 C194 1.390 . S
C203 H196 0.950 . S
C203 C200 1.387 . S
C204 C205 1.387 . S
C204 H208 0.950 . S
C204 C213 1.390 . S
C205 C204 1.387 . S
C205 C207 1.387 . S
H206 C213 0.950 . S
C207 C205 1.387 . S
C207 C209 1.390 . S
C207 H211 0.950 . S
H208 C204 0.950 . S
C209 C207 1.390 . S
C209 C210 1.387 . S
C209 H212 0.950 . S
C210 C209 1.387 . S
C210 C213 1.387 . S
H211 C207 0.950 . S
H212 C209 0.950 . S
C213 C204 1.390 . S
C213 H206 0.950 . S
C213 C210 1.387 . S
C214 C215 1.387 . S
C214 H218 0.950 . S
C214 C223 1.390 . S
C215 C214 1.387 . S
C215 C217 1.387 . S
H216 C223 0.950 . S
C217 C215 1.387 . S
C217 C219 1.390 . S
C217 H221 0.950 . S
H218 C214 0.950 . S
C219 C217 1.390 . S
C219 C220 1.387 . S
C219 H222 0.950 . S
C220 C219 1.387 . S
C220 C223 1.387 . S
H221 C217 0.950 . S
H222 C219 0.950 . S
C223 C214 1.390 . S
C223 H216 0.950 . S
C223 C220 1.387 . S
C224 C225 1.387 . S
C224 H228 0.950 . S
C224 C233 1.390 1_445 S
C225 C224 1.387 . S
C225 C227 1.387 . S
H226 C233 0.950 . S
C227 C225 1.387 . S
C227 C229 1.390 1_445 S
C227 H231 0.950 . S
H228 C224 0.950 . S
C229 C227 1.390 1_665 S
C229 C230 1.387 . S
C229 H232 0.950 . S
C230 C229 1.387 . S
C230 C233 1.387 . S
H231 C227 0.950 . S
H232 C229 0.950 . S
C233 C224 1.390 1_665 S
C233 H226 0.950 . S
C233 C230 1.387 . S
C234 C235 1.387 . S
C234 H238 0.950 . S
C234 C243 1.390 1_465 S
C235 C234 1.387 . S
C235 C237 1.387 . S
H236 C243 0.950 . S
C237 C235 1.387 . S
C237 C239 1.390 1_465 S
C237 H241 0.950 . S
H238 C234 0.950 . S
C239 C237 1.390 1_645 S
C239 C240 1.387 . S
C239 H242 0.950 . S
C240 C239 1.387 . S
C240 C243 1.387 . S
H241 C237 0.950 . S
H242 C239 0.950 . S
C243 C234 1.390 1_645 S
C243 H236 0.950 . S
C243 C240 1.387 . S
C244 C245 1.387 . S
C244 H248 0.950 . S
C244 C253 1.390 1_645 S
C245 C244 1.387 . S
C245 C247 1.387 . S
H246 C253 0.950 . S
C247 C245 1.387 . S
C247 C249 1.390 1_645 S
C247 H251 0.950 . S
H248 C244 0.950 . S
C249 C247 1.390 1_465 S
C249 C250 1.387 . S
C249 H252 0.950 . S
C250 C249 1.387 . S
C250 C253 1.387 . S
H251 C247 0.950 . S
H252 C249 0.950 . S
C253 C244 1.390 1_465 S
C253 H246 0.950 . S
C253 C250 1.387 . S
C254 C255 1.387 . S
C254 H258 0.950 . S
C254 C263 1.390 1_665 S
C255 C254 1.387 . S
C255 C257 1.387 . S
H256 C263 0.950 . S
C257 C255 1.387 . S
C257 C259 1.390 1_665 S
C257 H261 0.950 . S
H258 C254 0.950 . S
C259 C257 1.390 1_445 S
C259 C260 1.387 . S
C259 H262 0.950 . S
C260 C259 1.387 . S
C260 C263 1.387 . S
H261 C257 0.950 . S
H262 C259 0.950 . S
C263 C254 1.390 1_445 S
C263 H256 0.950 . S
C263 C260 1.387 . S
C105 C5 1.875 . S
C110 C31 1.875 . S
C115 C44 1.875 . S
C120 C18 1.875 . S
C125 C83 1.875 . S
C130 C57 1.875 . S
C135 C70 1.871 . S
C140 C96 1.871 . S
C145 C79 1.539 . S
C150 C1 1.539 . S
C155 C14 1.538 . S
C160 C92 1.538 . S
C165 C27 1.539 . S
C170 C53 1.539 . S
C175 C66 1.539 . S
C180 C40 1.539 . S
C185 C3 1.646 . S
C190 C68 1.645 . S
C195 C81 1.646 . S
C200 C16 1.647 . S
C205 C94 1.645 . S
C210 C29 1.646 . S
C215 C42 1.645 . S
C220 C55 1.646 . S
C225 C10 1.533 . S
C230 C36 1.533 . S
C235 C49 1.538 . S
C240 C23 1.538 . S
C245 C88 1.538 . S
C250 C62 1.538 . S
C255 C101 1.533 . S
C260 C75 1.533 . S
