# Generated by pormake.
# Topology smt, (6)-cn, num edge types: 1
# Building blocks:
#     Node 0, Type 0, BuildingBlock: UKALOJ_clean_sbu_0, # of connection points: 6
#     Node 1, Type 0, BuildingBlock: UKALOJ_clean_sbu_0, # of connection points: 6
#     Node 2, Type 0, BuildingBlock: UKALOJ_clean_sbu_0, # of connection points: 6
#     Node 3, Type 0, BuildingBlock: UKALOJ_clean_sbu_0, # of connection points: 6
#     Node 4, Type 0, BuildingBlock: UKALOJ_clean_sbu_0, # of connection points: 6
#     Node 5, Type 0, BuildingBlock: UKALOJ_clean_sbu_0, # of connection points: 6
#     Edge 6, Type (0, 0), None
#     Edge 7, Type (0, 0), None
#     Edge 8, Type (0, 0), None
#     Edge 9, Type (0, 0), None
#     Edge 10, Type (0, 0), None
#     Edge 11, Type (0, 0), None
#     Edge 12, Type (0, 0), None
#     Edge 13, Type (0, 0), None
#     Edge 14, Type (0, 0), None
#     Edge 15, Type (0, 0), None
#     Edge 16, Type (0, 0), None
#     Edge 17, Type (0, 0), None
#     Edge 18, Type (0, 0), None
#     Edge 19, Type (0, 0), None
#     Edge 20, Type (0, 0), None
#     Edge 21, Type (0, 0), None
#     Edge 22, Type (0, 0), None
#     Edge 23, Type (0, 0), None
# Relax obj value: 0.407
# Max RMSD: 0.296
# Mean RMSD: 0.296
data_MOF--net-smt--node1-UKALOJ_clean_sbu_0--edge1-none
_symmetry_space_group_name_H-M    P1
_symmetry_Int_Tables_number       1
_symmetry_cell_setting            triclinic
loop_
_symmetry_equiv_pos_as_xyz
'x, y, z'
_cell_length_a     18.907587
_cell_length_b     18.908179
_cell_length_c     12.969895
_cell_angle_alpha  89.999786
_cell_angle_beta   90.000018
_cell_angle_gamma 120.00234
loop_
_atom_site_label
_atom_site_type_symbol
_atom_site_fract_x
_atom_site_fract_y
_atom_site_fract_z
_atom_type_partial_charge
Zn0 Zn 0.55751 0.1343 0.01707 0.0
O1 O 0.50397 0.04026 0.1313 0.0
C2 C 0.38281 0.04189 0.96807 0.0
Zn3 Zn 0.49184 0.19078 0.08776 0.0
C4 C 0.47202 0.05279 0.21167 0.0
O5 O 0.46824 0.11784 0.21949 0.0
C6 C 0.57659 0.28093 0.89996 0.0
O7 O 0.60916 0.28016 0.15899 0.0
O8 O 0.65713 0.20011 0.11024 0.0
N9 N 0.42128 0.2398 0.14014 0.0
C10 C 0.42915 0.31256 0.11495 0.0
C11 C 0.30931 0.23985 0.1746 0.0
N12 N 0.34603 0.19415 0.17581 0.0
N13 N 0.35943 0.31429 0.13392 0.0
C14 C 0.58417 0.01289 0.88886 0.0
C15 C 0.6255 0.09808 0.76433 0.0
N16 N 0.62048 0.08825 0.93124 0.0
N17 N 0.65133 0.1398 0.85282 0.0
N18 N 0.58134 0.01816 0.7847 0.0
H19 H 0.57091 0.94561 0.02855 0.0
H20 H 0.63958 0.94344 0.93464 0.0
H21 H 0.53198 0.8825 0.91342 0.0
C22 C 0.58036 0.94154 0.94476 0.0
C23 C 0.50891 0.38501 0.0889 0.0
H24 H 0.55922 0.37123 0.08878 0.0
H25 H 0.52195 0.43095 0.14949 0.0
H26 H 0.50458 0.40912 0.01278 0.0
O27 O 0.51501 0.26451 0.95463 0.0
O28 O 0.60998 0.23826 0.91105 0.0
C29 C 0.66573 0.26125 0.16064 0.0
O30 O 0.45101 0.05741 0.92942 0.0
O31 O 0.38111 0.09491 0.02631 0.0
Zn32 Zn 0.42934 0.55446 0.18373 0.0
O33 O 0.46984 0.50091 0.29796 0.0
C34 C 0.34704 0.37977 0.1347 0.0
Zn35 Zn 0.30719 0.48879 0.25443 0.0
C36 C 0.42536 0.46896 0.37834 0.0
O37 O 0.35653 0.46519 0.38615 0.0
C38 C 0.30178 0.57353 0.06663 0.0
O39 O 0.33513 0.6061 0.32566 0.0
O40 O 0.46316 0.65406 0.27692 0.0
N41 N 0.1876 0.41822 0.3068 0.0
C42 C 0.12272 0.42609 0.28162 0.0
C43 C 0.07558 0.30626 0.34126 0.0
N44 N 0.158 0.34297 0.34247 0.0
N45 N 0.05126 0.35637 0.30058 0.0
C46 C 0.5774 0.58111 0.05553 0.0
C47 C 0.53355 0.62244 0.931 0.0
N48 N 0.53837 0.61743 0.09791 0.0
N49 N 0.51767 0.64828 0.01949 0.0
N50 N 0.56929 0.57827 0.95137 0.0
H51 H 0.63141 0.56782 0.19522 0.0
H52 H 0.70227 0.63649 0.10132 0.0
H53 H 0.6556 0.5289 0.08008 0.0
C54 C 0.64495 0.57728 0.11143 0.0
C55 C 0.13003 0.50585 0.25556 0.0
H56 H 0.19412 0.55616 0.25544 0.0
H57 H 0.09713 0.51889 0.31616 0.0
H58 H 0.10157 0.50151 0.17944 0.0
O59 O 0.25664 0.51195 0.12129 0.0
O60 O 0.37785 0.60693 0.07772 0.0
C61 C 0.41062 0.66267 0.32732 0.0
O62 O 0.39973 0.44797 0.09605 0.0
O63 O 0.29233 0.37806 0.19298 0.0
Zn64 Zn 0.881 0.42628 0.3504 0.0
O65 O 0.97506 0.46678 0.46463 0.0
C66 C 0.97338 0.34398 0.30136 0.0
Zn67 Zn 0.82452 0.30414 0.42109 0.0
C68 C 0.96251 0.4223 0.545 0.0
O69 O 0.89745 0.35347 0.55282 0.0
C70 C 0.73436 0.29873 0.2333 0.0
O71 O 0.73514 0.33207 0.49232 0.0
O72 O 0.81521 0.46009 0.44359 0.0
N73 N 0.7755 0.18455 0.47347 0.0
C74 C 0.70274 0.11966 0.44828 0.0
C75 C 0.77545 0.07254 0.50794 0.0
N76 N 0.82116 0.15496 0.50915 0.0
N77 N 0.70102 0.04821 0.46725 0.0
C78 C 1.00241 0.57433 0.2222 0.0
C79 C 0.91722 0.53048 0.09768 0.0
N80 N 0.92706 0.53531 0.26458 0.0
N81 N 0.87551 0.51461 0.18617 0.0
N82 N 0.99713 0.56622 0.11804 0.0
H83 H 0.06972 0.62835 0.36188 0.0
H84 H 0.0719 0.6992 0.26797 0.0
H85 H 0.13282 0.65253 0.24674 0.0
C86 C 0.07379 0.64188 0.27808 0.0
C87 C 0.63029 0.12695 0.42222 0.0
H88 H 0.64406 0.19104 0.4221 0.0
H89 H 0.58435 0.09405 0.48281 0.0
H90 H 0.60617 0.0985 0.3461 0.0
O91 O 0.7508 0.25358 0.28796 0.0
O92 O 0.77703 0.37479 0.24439 0.0
C93 C 0.75406 0.40756 0.49399 0.0
O94 O 0.95788 0.39668 0.26271 0.0
O95 O 0.92039 0.28928 0.35964 0.0
Zn96 Zn 0.46084 0.87794 0.51706 0.0
O97 O 0.51438 0.97199 0.63128 0.0
C98 C 0.63554 0.97033 0.46803 0.0
Zn99 Zn 0.52652 0.82147 0.58776 0.0
C100 C 0.54632 0.95946 0.71167 0.0
O101 O 0.55011 0.89441 0.71949 0.0
C102 C 0.44177 0.7313 0.39997 0.0
O103 O 0.4092 0.73209 0.65899 0.0
O104 O 0.36123 0.81214 0.61025 0.0
N105 N 0.59708 0.77244 0.64015 0.0
C106 C 0.58921 0.69969 0.61496 0.0
C107 C 0.70904 0.77239 0.67461 0.0
N108 N 0.67233 0.8181 0.67581 0.0
N109 N 0.65893 0.69795 0.63393 0.0
C110 C 0.43417 0.99934 0.38886 0.0
C111 C 0.39284 0.91416 0.26431 0.0
N112 N 0.39788 0.92398 0.43122 0.0
N113 N 0.36703 0.87243 0.35279 0.0
N114 N 0.43696 0.99407 0.28469 0.0
H115 H 0.44749 0.06661 0.52857 0.0
H116 H 0.37879 0.0688 0.43472 0.0
H117 H 0.48638 0.12973 0.41344 0.0
C118 C 0.438 0.07069 0.44479 0.0
C119 C 0.50945 0.62724 0.58891 0.0
H120 H 0.45914 0.64102 0.58878 0.0
H121 H 0.49641 0.5813 0.64949 0.0
H122 H 0.51378 0.60312 0.51278 0.0
O123 O 0.50335 0.74774 0.45463 0.0
O124 O 0.40837 0.77396 0.41106 0.0
C125 C 0.35263 0.751 0.66066 0.0
O126 O 0.56733 0.95481 0.42938 0.0
O127 O 0.63725 0.91734 0.52631 0.0
Zn128 Zn 0.58901 0.45778 0.68373 0.0
O129 O 0.5485 0.51131 0.79796 0.0
C130 C 0.67132 0.63247 0.63471 0.0
Zn131 Zn 0.71116 0.52345 0.75443 0.0
C132 C 0.59298 0.54325 0.87834 0.0
O133 O 0.66182 0.54704 0.88616 0.0
C134 C 0.71658 0.43871 0.56663 0.0
O135 O 0.68322 0.40614 0.82566 0.0
O136 O 0.55519 0.35816 0.77691 0.0
N137 N 0.83075 0.59401 0.80681 0.0
C138 C 0.89563 0.58614 0.78162 0.0
C139 C 0.94277 0.70597 0.84127 0.0
N140 N 0.86035 0.66926 0.84248 0.0
N141 N 0.9671 0.65586 0.80059 0.0
C142 C 0.44095 0.43112 0.55552 0.0
C143 C 0.48478 0.38977 0.43099 0.0
N144 N 0.48 0.39481 0.59789 0.0
N145 N 0.50069 0.36396 0.51947 0.0
N146 N 0.44901 0.43391 0.45136 0.0
H147 H 0.38698 0.44443 0.69523 0.0
H148 H 0.3161 0.37575 0.60137 0.0
H149 H 0.36277 0.48333 0.58009 0.0
C150 C 0.37342 0.43495 0.61144 0.0
C151 C 0.88833 0.50638 0.75557 0.0
H152 H 0.82423 0.45607 0.75544 0.0
H153 H 0.92122 0.49334 0.81616 0.0
H154 H 0.91678 0.51072 0.67945 0.0
O155 O 0.76172 0.50029 0.62129 0.0
O156 O 0.64051 0.40531 0.57773 0.0
C157 C 0.60773 0.34956 0.8273 0.0
O158 O 0.61862 0.56427 0.59606 0.0
O159 O 0.72602 0.63418 0.69299 0.0
Zn160 Zn 0.13735 0.58594 0.8504 0.0
O161 O 0.0433 0.54542 0.96462 0.0
C162 C 0.04497 0.66825 0.80137 0.0
Zn163 Zn 0.19383 0.70809 0.9211 0.0
C164 C 0.05583 0.5899 0.045 0.0
O165 O 0.12089 0.65874 0.05282 0.0
C166 C 0.284 0.71352 0.73331 0.0
O167 O 0.28321 0.68015 0.99233 0.0
O168 O 0.20316 0.55213 0.94358 0.0
N169 N 0.24285 0.82767 0.9735 0.0
C170 C 0.31562 0.89255 0.94839 0.0
C171 C 0.24289 0.93967 0.00801 0.0
N172 N 0.19717 0.85725 0.00914 0.0
N173 N 0.31737 0.96399 0.96748 0.0
C174 C 0.01595 0.43789 0.72219 0.0
C175 C 0.10114 0.48173 0.59765 0.0
N176 N 0.09131 0.47694 0.76456 0.0
N177 N 0.14286 0.49764 0.68614 0.0
N178 N 0.02123 0.44595 0.61802 0.0
H179 H 0.94866 0.38392 0.86189 0.0
H180 H 0.94647 0.31304 0.76803 0.0
H181 H 0.88555 0.35971 0.74676 0.0
C182 C 0.94459 0.37036 0.77811 0.0
C183 C 0.38807 0.88526 0.9223 0.0
H184 H 0.37429 0.82116 0.92216 0.0
H185 H 0.43403 0.91816 0.98287 0.0
H186 H 0.41217 0.91371 0.84617 0.0
O187 O 0.26757 0.75867 0.78798 0.0
O188 O 0.24133 0.63746 0.7444 0.0
C189 C 0.2643 0.60467 0.99398 0.0
O190 O 0.06047 0.61555 0.76272 0.0
O191 O 0.09796 0.72295 0.85965 0.0
loop_
_geom_bond_atom_site_label_1
_geom_bond_atom_site_label_2
_geom_bond_distance
_geom_bond_site_symmetry_2
_ccdc_geom_bond_type
Zn0 O1 2.055 1_556 S
Zn0 O8 2.046 1_556 S
Zn0 N16 2.036 . S
Zn0 O28 2.053 . S
Zn0 O30 2.066 . S
O1 Zn0 2.055 1_554 S
O1 C4 1.259 . S
C2 O30 1.256 . S
C2 O31 1.244 1_556 S
Zn3 O5 2.046 . S
Zn3 O7 2.055 . S
Zn3 N9 2.036 . S
Zn3 O27 2.066 1_554 S
Zn3 O31 2.053 . S
C4 O1 1.259 . S
C4 O5 1.254 . S
O5 Zn3 2.046 . S
O5 C4 1.254 . S
C6 O27 1.256 . S
C6 O28 1.244 . S
O7 Zn3 2.055 . S
O7 C29 1.259 . S
O8 Zn0 2.046 1_554 S
O8 C29 1.254 . S
N9 Zn3 2.036 . S
N9 C10 1.298 . S
N9 N12 1.398 . S
C10 N9 1.298 . S
C10 N13 1.367 . S
C10 C23 1.481 . S
C11 N12 1.299 . S
C11 N13 1.379 . S
N12 N9 1.398 . S
N12 C11 1.299 . S
N13 C10 1.367 . S
N13 C11 1.379 . S
C14 N16 1.298 . S
C14 N18 1.367 . S
C14 C22 1.481 1_545 S
C15 N17 1.299 . S
C15 N18 1.379 . S
N16 Zn0 2.036 . S
N16 C14 1.298 . S
N16 N17 1.398 . S
N17 C15 1.299 . S
N17 N16 1.398 . S
N18 C14 1.367 . S
N18 C15 1.379 . S
H19 C22 0.980 . S
H20 C22 0.981 . S
H21 C22 0.981 . S
C22 C14 1.481 1_565 S
C22 H19 0.980 . S
C22 H20 0.981 . S
C22 H21 0.981 . S
C23 C10 1.481 . S
C23 H24 0.980 . S
C23 H25 0.981 . S
C23 H26 0.981 . S
H24 C23 0.980 . S
H25 C23 0.981 . S
H26 C23 0.981 . S
O27 Zn3 2.066 1_556 S
O27 C6 1.256 . S
O28 Zn0 2.053 . S
O28 C6 1.244 . S
C29 O7 1.259 . S
C29 O8 1.254 . S
O30 Zn0 2.066 . S
O30 C2 1.256 . S
O31 C2 1.244 1_554 S
O31 Zn3 2.053 . S
Zn32 O33 2.055 . S
Zn32 O40 2.046 . S
Zn32 N48 2.036 . S
Zn32 O60 2.053 . S
Zn32 O62 2.066 . S
O33 Zn32 2.055 . S
O33 C36 1.259 . S
C34 O62 1.256 . S
C34 O63 1.244 . S
Zn35 O37 2.046 . S
Zn35 O39 2.055 . S
Zn35 N41 2.036 . S
Zn35 O59 2.066 . S
Zn35 O63 2.053 . S
C36 O33 1.259 . S
C36 O37 1.254 . S
O37 Zn35 2.046 . S
O37 C36 1.254 . S
C38 O59 1.256 . S
C38 O60 1.244 . S
O39 Zn35 2.055 . S
O39 C61 1.259 . S
O40 Zn32 2.046 . S
O40 C61 1.254 . S
N41 Zn35 2.036 . S
N41 C42 1.298 . S
N41 N44 1.398 . S
C42 N41 1.298 . S
C42 N45 1.367 . S
C42 C55 1.481 . S
C43 N44 1.299 . S
C43 N45 1.379 . S
N44 N41 1.398 . S
N44 C43 1.299 . S
N45 C42 1.367 . S
N45 C43 1.379 . S
C46 N48 1.298 . S
C46 N50 1.367 1_554 S
C46 C54 1.481 . S
C47 N49 1.299 . S
C47 N50 1.379 . S
N48 Zn32 2.036 . S
N48 C46 1.298 . S
N48 N49 1.398 1_554 S
N49 C47 1.299 . S
N49 N48 1.398 1_556 S
N50 C46 1.367 1_556 S
N50 C47 1.379 . S
H51 C54 0.980 . S
H52 C54 0.981 . S
H53 C54 0.981 . S
C54 C46 1.481 . S
C54 H51 0.980 . S
C54 H52 0.981 . S
C54 H53 0.981 . S
C55 C42 1.481 . S
C55 H56 0.980 . S
C55 H57 0.981 . S
C55 H58 0.981 . S
H56 C55 0.980 . S
H57 C55 0.981 . S
H58 C55 0.981 . S
O59 Zn35 2.066 . S
O59 C38 1.256 . S
O60 Zn32 2.053 . S
O60 C38 1.244 . S
C61 O39 1.259 . S
C61 O40 1.254 . S
O62 Zn32 2.066 . S
O62 C34 1.256 . S
O63 C34 1.244 . S
O63 Zn35 2.053 . S
Zn64 O65 2.055 . S
Zn64 O72 2.046 . S
Zn64 N80 2.036 . S
Zn64 O92 2.053 . S
Zn64 O94 2.066 . S
O65 Zn64 2.055 . S
O65 C68 1.259 . S
C66 O94 1.256 . S
C66 O95 1.244 . S
Zn67 O69 2.046 . S
Zn67 O71 2.055 . S
Zn67 N73 2.036 . S
Zn67 O91 2.066 . S
Zn67 O95 2.053 . S
C68 O65 1.259 . S
C68 O69 1.254 . S
O69 Zn67 2.046 . S
O69 C68 1.254 . S
C70 O91 1.256 . S
C70 O92 1.244 . S
O71 Zn67 2.055 . S
O71 C93 1.259 . S
O72 Zn64 2.046 . S
O72 C93 1.254 . S
N73 Zn67 2.036 . S
N73 C74 1.298 . S
N73 N76 1.398 . S
C74 N73 1.298 . S
C74 N77 1.367 . S
C74 C87 1.481 . S
C75 N76 1.299 . S
C75 N77 1.379 . S
N76 N73 1.398 . S
N76 C75 1.299 . S
N77 C74 1.367 . S
N77 C75 1.379 . S
C78 N80 1.298 . S
C78 N82 1.367 . S
C78 C86 1.481 1_655 S
C79 N81 1.299 . S
C79 N82 1.379 . S
N80 Zn64 2.036 . S
N80 C78 1.298 . S
N80 N81 1.398 . S
N81 C79 1.299 . S
N81 N80 1.398 . S
N82 C78 1.367 . S
N82 C79 1.379 . S
H83 C86 0.980 . S
H84 C86 0.981 . S
H85 C86 0.981 . S
C86 C78 1.481 1_455 S
C86 H83 0.980 . S
C86 H84 0.981 . S
C86 H85 0.981 . S
C87 C74 1.481 . S
C87 H88 0.980 . S
C87 H89 0.981 . S
C87 H90 0.981 . S
H88 C87 0.980 . S
H89 C87 0.981 . S
H90 C87 0.981 . S
O91 Zn67 2.066 . S
O91 C70 1.256 . S
O92 Zn64 2.053 . S
O92 C70 1.244 . S
C93 O71 1.259 . S
C93 O72 1.254 . S
O94 Zn64 2.066 . S
O94 C66 1.256 . S
O95 C66 1.244 . S
O95 Zn67 2.053 . S
Zn96 O97 2.055 . S
Zn96 O104 2.046 . S
Zn96 N112 2.036 . S
Zn96 O124 2.053 . S
Zn96 O126 2.066 . S
O97 Zn96 2.055 . S
O97 C100 1.259 . S
C98 O126 1.256 . S
C98 O127 1.244 . S
Zn99 O101 2.046 . S
Zn99 O103 2.055 . S
Zn99 N105 2.036 . S
Zn99 O123 2.066 . S
Zn99 O127 2.053 . S
C100 O97 1.259 . S
C100 O101 1.254 . S
O101 Zn99 2.046 . S
O101 C100 1.254 . S
C102 O123 1.256 . S
C102 O124 1.244 . S
O103 Zn99 2.055 . S
O103 C125 1.259 . S
O104 Zn96 2.046 . S
O104 C125 1.254 . S
N105 Zn99 2.036 . S
N105 C106 1.298 . S
N105 N108 1.398 . S
C106 N105 1.298 . S
C106 N109 1.367 . S
C106 C119 1.481 . S
C107 N108 1.299 . S
C107 N109 1.379 . S
N108 N105 1.398 . S
N108 C107 1.299 . S
N109 C106 1.367 . S
N109 C107 1.379 . S
C110 N112 1.298 . S
C110 N114 1.367 . S
C110 C118 1.481 1_565 S
C111 N113 1.299 . S
C111 N114 1.379 . S
N112 Zn96 2.036 . S
N112 C110 1.298 . S
N112 N113 1.398 . S
N113 C111 1.299 . S
N113 N112 1.398 . S
N114 C110 1.367 . S
N114 C111 1.379 . S
H115 C118 0.980 . S
H116 C118 0.981 . S
H117 C118 0.981 . S
C118 C110 1.481 1_545 S
C118 H115 0.980 . S
C118 H116 0.981 . S
C118 H117 0.981 . S
C119 C106 1.481 . S
C119 H120 0.980 . S
C119 H121 0.981 . S
C119 H122 0.981 . S
H120 C119 0.980 . S
H121 C119 0.981 . S
H122 C119 0.981 . S
O123 Zn99 2.066 . S
O123 C102 1.256 . S
O124 Zn96 2.053 . S
O124 C102 1.244 . S
C125 O103 1.259 . S
C125 O104 1.254 . S
O126 Zn96 2.066 . S
O126 C98 1.256 . S
O127 C98 1.244 . S
O127 Zn99 2.053 . S
Zn128 O129 2.055 . S
Zn128 O136 2.046 . S
Zn128 N144 2.036 . S
Zn128 O156 2.053 . S
Zn128 O158 2.066 . S
O129 Zn128 2.055 . S
O129 C132 1.259 . S
C130 O158 1.256 . S
C130 O159 1.244 . S
Zn131 O133 2.046 . S
Zn131 O135 2.055 . S
Zn131 N137 2.036 . S
Zn131 O155 2.066 . S
Zn131 O159 2.053 . S
C132 O129 1.259 . S
C132 O133 1.254 . S
O133 Zn131 2.046 . S
O133 C132 1.254 . S
C134 O155 1.256 . S
C134 O156 1.244 . S
O135 Zn131 2.055 . S
O135 C157 1.259 . S
O136 Zn128 2.046 . S
O136 C157 1.254 . S
N137 Zn131 2.036 . S
N137 C138 1.298 . S
N137 N140 1.398 . S
C138 N137 1.298 . S
C138 N141 1.367 . S
C138 C151 1.481 . S
C139 N140 1.299 . S
C139 N141 1.379 . S
N140 N137 1.398 . S
N140 C139 1.299 . S
N141 C138 1.367 . S
N141 C139 1.379 . S
C142 N144 1.298 . S
C142 N146 1.367 . S
C142 C150 1.481 . S
C143 N145 1.299 . S
C143 N146 1.379 . S
N144 Zn128 2.036 . S
N144 C142 1.298 . S
N144 N145 1.398 . S
N145 C143 1.299 . S
N145 N144 1.398 . S
N146 C142 1.367 . S
N146 C143 1.379 . S
H147 C150 0.980 . S
H148 C150 0.981 . S
H149 C150 0.981 . S
C150 C142 1.481 . S
C150 H147 0.980 . S
C150 H148 0.981 . S
C150 H149 0.981 . S
C151 C138 1.481 . S
C151 H152 0.980 . S
C151 H153 0.981 . S
C151 H154 0.981 . S
H152 C151 0.980 . S
H153 C151 0.981 . S
H154 C151 0.981 . S
O155 Zn131 2.066 . S
O155 C134 1.256 . S
O156 Zn128 2.053 . S
O156 C134 1.244 . S
C157 O135 1.259 . S
C157 O136 1.254 . S
O158 Zn128 2.066 . S
O158 C130 1.256 . S
O159 C130 1.244 . S
O159 Zn131 2.053 . S
Zn160 O161 2.055 . S
Zn160 O168 2.046 . S
Zn160 N176 2.036 . S
Zn160 O188 2.053 . S
Zn160 O190 2.066 . S
O161 Zn160 2.055 . S
O161 C164 1.259 1_556 S
C162 O190 1.256 . S
C162 O191 1.244 . S
Zn163 O165 2.046 1_556 S
Zn163 O167 2.055 . S
Zn163 N169 2.036 1_556 S
Zn163 O187 2.066 . S
Zn163 O191 2.053 . S
C164 O161 1.259 1_554 S
C164 O165 1.254 . S
O165 Zn163 2.046 1_554 S
O165 C164 1.254 . S
C166 O187 1.256 . S
C166 O188 1.244 . S
O167 Zn163 2.055 . S
O167 C189 1.259 . S
O168 Zn160 2.046 . S
O168 C189 1.254 . S
N169 Zn163 2.036 1_554 S
N169 C170 1.298 . S
N169 N172 1.398 . S
C170 N169 1.298 . S
C170 N173 1.367 . S
C170 C183 1.481 . S
C171 N172 1.299 . S
C171 N173 1.379 . S
N172 N169 1.398 . S
N172 C171 1.299 . S
N173 C170 1.367 . S
N173 C171 1.379 . S
C174 N176 1.298 . S
C174 N178 1.367 . S
C174 C182 1.481 1_455 S
C175 N177 1.299 . S
C175 N178 1.379 . S
N176 Zn160 2.036 . S
N176 C174 1.298 . S
N176 N177 1.398 . S
N177 C175 1.299 . S
N177 N176 1.398 . S
N178 C174 1.367 . S
N178 C175 1.379 . S
H179 C182 0.980 . S
H180 C182 0.981 . S
H181 C182 0.981 . S
C182 C174 1.481 1_655 S
C182 H179 0.980 . S
C182 H180 0.981 . S
C182 H181 0.981 . S
C183 C170 1.481 . S
C183 H184 0.980 . S
C183 H185 0.981 . S
C183 H186 0.981 1_554 S
H184 C183 0.980 . S
H185 C183 0.981 . S
H186 C183 0.981 1_556 S
O187 Zn163 2.066 . S
O187 C166 1.256 . S
O188 Zn160 2.053 . S
O188 C166 1.244 . S
C189 O167 1.259 . S
C189 O168 1.254 . S
O190 Zn160 2.066 . S
O190 C162 1.256 . S
O191 C162 1.244 . S
O191 Zn163 2.053 . S
C2 N173 2.097 1_546 S
C34 N13 2.097 . S
C66 N45 2.097 1_655 S
N77 C98 2.097 1_545 S
N109 C130 2.097 . S
C162 N141 2.097 1_455 S
C4 N114 2.002 1_545 S
C36 N146 2.002 . S
N178 C68 2.002 1_455 S
C100 N18 2.002 1_565 S
N50 C132 2.002 . S
C164 N82 2.002 1_455 S
C6 C157 2.360 . S
C189 C38 2.360 1_556 S
C29 C70 2.360 . S
C102 C61 2.360 . S
C93 C134 2.360 . S
C125 C166 2.360 . S
