# Generated by pormake.
# Topology vmz, (8)-cn, num edge types: 1
# Building blocks:
#     Node 0, Type 0, BuildingBlock: TAGTUT_clean_sbu_3, # of connection points: 8
#     Node 1, Type 0, BuildingBlock: TAGTUT_clean_sbu_3, # of connection points: 8
#     Node 2, Type 0, BuildingBlock: TAGTUT_clean_sbu_3, # of connection points: 8
#     Node 3, Type 0, BuildingBlock: TAGTUT_clean_sbu_3, # of connection points: 8
#     Edge 4, Type (0, 0), None
#     Edge 5, Type (0, 0), None
#     Edge 6, Type (0, 0), None
#     Edge 7, Type (0, 0), None
#     Edge 8, Type (0, 0), None
#     Edge 9, Type (0, 0), None
#     Edge 10, Type (0, 0), None
#     Edge 11, Type (0, 0), None
#     Edge 12, Type (0, 0), None
#     Edge 13, Type (0, 0), None
#     Edge 14, Type (0, 0), None
#     Edge 15, Type (0, 0), None
#     Edge 16, Type (0, 0), None
#     Edge 17, Type (0, 0), None
#     Edge 18, Type (0, 0), None
#     Edge 19, Type (0, 0), None
# Relax obj value: 0.196
# Max RMSD: 0.276
# Mean RMSD: 0.272
data_MOF--net-vmz--node1-TAGTUT_clean_sbu_3--edge1-none
_symmetry_space_group_name_H-M    P1
_symmetry_Int_Tables_number       1
_symmetry_cell_setting            triclinic
loop_
_symmetry_equiv_pos_as_xyz
'x, y, z'
_cell_length_a     13.540376
_cell_length_b     11.011181
_cell_length_c     16.872189
_cell_angle_alpha  88.804346
_cell_angle_beta   101.09289
_cell_angle_gamma 90.896745
loop_
_atom_site_label
_atom_site_type_symbol
_atom_site_fract_x
_atom_site_fract_y
_atom_site_fract_z
_atom_type_partial_charge
C0 C 0.10297 0.08831 0.22678 0.0
C1 C 0.13644 0.46551 0.0421 0.0
C2 C 0.10783 0.24193 0.84288 0.0
Mg3 Mg 0.13865 0.81281 0.17682 0.0
Mg4 Mg 0.33095 0.75821 0.08936 0.0
O5 O 0.22539 0.85438 0.09561 0.0
Mg6 Mg 0.22096 0.03178 0.08322 0.0
O7 O 0.19749 0.20551 0.07248 0.0
Mg8 Mg 0.04665 0.20669 0.03459 0.0
Mg9 Mg 0.2602 0.25544 0.98848 0.0
C10 C 0.39046 0.93958 0.98861 0.0
O11 O 0.37503 0.08607 0.14803 0.0
O12 O 0.11386 0.62055 0.12361 0.0
O13 O 0.41197 0.22765 0.05838 0.0
O14 O 0.27971 0.73997 0.26627 0.0
O15 O 0.24362 0.61411 0.05925 0.0
O16 O 0.41441 0.74004 0.20691 0.0
O17 O 0.05567 0.00635 0.00921 0.0
O18 O 0.00061 0.86723 0.08725 0.0
C19 C -0.01544 0.94092 0.02734 0.0
C20 C 0.16179 0.57153 0.07422 0.0
O21 O 0.32532 0.02492 0.98504 0.0
O22 O 0.06576 0.40216 0.0632 0.0
O23 O 0.35735 0.83238 0.98294 0.0
O24 O 0.05076 0.26353 0.8939 0.0
O25 O 0.19652 0.42544 -0.00154 0.0
O26 O 0.19319 0.19388 0.86898 0.0
O27 O 0.16502 0.01925 0.20307 0.0
O28 O 0.04877 0.16164 0.17622 0.0
C29 C 0.37311 0.72061 0.26774 0.0
C30 C 0.43431 0.16653 0.12509 0.0
C31 C 0.46313 0.49568 0.50201 0.0
C32 C 0.7291 0.82152 0.67254 0.0
C33 C 0.6966 -0.00256 0.44007 0.0
Mg34 Mg 0.49786 0.34767 0.36646 0.0
Mg35 Mg 0.69856 0.32736 0.28581 0.0
O36 O 0.60571 0.43238 0.32198 0.0
Mg37 Mg 0.64712 0.55585 0.40966 0.0
O38 O 0.6833 0.67323 0.50024 0.0
Mg39 Mg 0.5562 0.76336 0.4983 0.0
Mg40 Mg 0.80386 0.76727 0.51575 0.0
C41 C 0.78145 0.58503 0.26646 0.0
O42 O 0.78933 0.45681 0.46544 0.0
O43 O 0.46307 0.25239 0.2491 0.0
O44 O 0.8992 0.61179 0.50574 0.0
O45 O 0.59665 0.17522 0.41258 0.0
O46 O 0.59381 0.25193 0.18434 0.0
O47 O 0.74123 0.17357 0.36764 0.0
O48 O 0.51346 0.67889 0.36586 0.0
O49 O 0.40917 0.52562 0.31875 0.0
C50 C 0.42782 0.64025 0.32931 0.0
C51 C 0.50324 0.22323 0.18984 0.0
O52 O 0.7346 0.63902 0.3154 0.0
O53 O 0.63667 0.81213 0.63371 0.0
O54 O 0.80592 0.47285 0.27576 0.0
O55 O 0.61989 0.94132 0.4561 0.0
O56 O 0.80473 0.81125 0.63832 0.0
O57 O 0.78126 0.94347 0.44795 0.0
O58 O 0.54 0.45232 0.47919 0.0
O59 O 0.46827 0.60024 0.53326 0.0
C60 C 0.68007 0.12398 0.40764 0.0
C61 C 0.87784 0.49808 0.49462 0.0
C62 C 0.49658 0.94925 0.03437 0.0
C63 C 0.75875 0.62681 0.18201 0.0
C64 C 0.68724 0.4462 0.94928 0.0
Mg65 Mg 0.49475 0.09258 0.88056 0.0
Mg66 Mg 0.69107 0.12967 0.7954 0.0
O67 O 0.60327 0.02123 0.83476 0.0
Mg68 Mg 0.65399 0.89463 0.91795 0.0
O69 O 0.69888 0.76675 0.00561 0.0
Mg70 Mg 0.57169 0.68494 0.02007 0.0
Mg71 Mg 0.81412 0.66899 0.01374 0.0
C72 C 0.74871 0.87176 0.75393 0.0
O73 O 0.81456 -0.01937 0.96359 0.0
O74 O 0.44729 0.17789 0.76228 0.0
O75 O 0.88605 0.80398 0.94678 0.0
O76 O 0.58515 0.27022 0.91958 0.0
O77 O 0.58139 0.2119 0.70339 0.0
O78 O 0.73416 0.27433 0.88096 0.0
O79 O 0.51471 0.7737 0.88745 0.0
O80 O 0.40729 0.91603 0.83254 0.0
C81 C 0.42901 0.80406 0.84732 0.0
C82 C 0.4875 0.2166 0.70431 0.0
O83 O 0.71197 0.81569 0.80981 0.0
O84 O 0.66511 0.62878 0.14698 0.0
O85 O 0.77625 -0.01587 0.75782 0.0
O86 O 0.61294 0.5025 0.96749 0.0
O87 O 0.83128 0.64187 0.1435 0.0
O88 O 0.77406 0.49586 0.95678 0.0
O89 O 0.56092 0.00024 -0.00153 0.0
O90 O 0.52761 0.85801 0.07893 0.0
C91 C 0.6695 0.32262 0.91644 0.0
C92 C 0.8939 0.9153 0.96718 0.0
C93 C 0.42453 0.29366 0.64945 0.0
C94 C 0.36832 0.71385 0.79768 0.0
C95 C 0.16048 0.7929 0.59152 0.0
Mg96 Mg 0.28267 0.15721 0.49486 0.0
Mg97 Mg 0.03382 0.14718 0.47407 0.0
O98 O 0.15471 0.23977 0.50373 0.0
Mg99 Mg 0.19687 0.3615 0.59407 0.0
O100 O 0.24739 0.48989 0.67796 0.0
Mg101 Mg 0.34664 0.57662 0.62336 0.0
Mg102 Mg 0.16109 0.59328 0.72232 0.0
C103 C -0.04079 0.41114 0.5138 0.0
O104 O 0.13057 0.27221 0.705 0.0
O105 O 0.20418 0.10416 0.35968 0.0
O106 O 0.09127 0.43326 0.77517 0.0
O107 O 0.22115 -0.0227 0.5434 0.0
O108 O 0.03652 0.12297 0.34611 0.0
O109 O 0.05626 -0.03137 0.54083 0.0
O110 O 0.28844 0.46978 0.51241 0.0
O111 O 0.3587 0.32609 0.45204 0.0
C112 C 0.36261 0.43087 0.48321 0.0
C113 C 0.11444 0.10408 0.31577 0.0
O114 O 0.04662 0.45164 0.54716 0.0
O115 O 0.40535 0.67469 0.73921 0.0
O116 O -0.06023 0.29974 0.49342 0.0
O117 O 0.24384 0.74408 0.58506 0.0
O118 O 0.2766 0.69466 0.80427 0.0
O119 O 0.10206 0.741 0.63394 0.0
O120 O 0.33646 0.25077 0.62335 0.0
O121 O 0.4418 0.40746 0.66122 0.0
C122 C 0.14321 0.91918 0.55688 0.0
C123 C 0.09929 0.31742 0.76646 0.0
loop_
_geom_bond_atom_site_label_1
_geom_bond_atom_site_label_2
_geom_bond_distance
_geom_bond_site_symmetry_2
_ccdc_geom_bond_type
C0 O27 1.312 . S
C0 O28 1.208 . S
C1 O22 1.331 . S
C1 O25 1.244 . S
C2 O24 1.264 . S
C2 O26 1.273 . S
Mg3 O5 1.936 . S
Mg3 O12 2.081 . S
Mg3 O14 2.023 . S
Mg3 O18 2.031 . S
Mg3 O27 2.291 1_565 S
Mg4 O5 1.963 . S
Mg4 O15 1.942 . S
Mg4 O16 1.955 . S
Mg4 O23 1.986 . S
O5 Mg3 1.936 . S
O5 Mg4 1.963 . S
O5 Mg6 1.915 1_565 S
Mg6 O5 1.915 1_545 S
Mg6 O7 1.915 . S
Mg6 O11 2.013 . S
Mg6 O17 2.114 . S
Mg6 O21 2.013 1_554 S
Mg6 O27 2.114 . S
O7 Mg6 1.915 . S
O7 Mg8 1.936 . S
O7 Mg9 1.963 . S
Mg8 O7 1.936 . S
Mg8 O17 2.291 . S
Mg8 O22 2.081 . S
Mg8 O24 2.023 1_554 S
Mg8 O28 2.031 . S
Mg9 O7 1.963 . S
Mg9 O13 1.986 . S
Mg9 O25 1.942 . S
Mg9 O26 1.955 1_554 S
C10 O21 1.191 1_565 S
C10 O23 1.307 1_556 S
O11 Mg6 2.013 . S
O11 C30 1.191 . S
O12 Mg3 2.081 . S
O12 C20 1.331 . S
O13 Mg9 1.986 . S
O13 C30 1.307 . S
O14 Mg3 2.023 . S
O14 C29 1.264 . S
O15 Mg4 1.942 . S
O15 C20 1.244 . S
O16 Mg4 1.955 . S
O16 C29 1.273 . S
O17 Mg6 2.114 . S
O17 Mg8 2.291 . S
O17 C19 1.312 1_545 S
O18 Mg3 2.031 . S
O18 C19 1.208 . S
C19 O17 1.312 1_565 S
C19 O18 1.208 . S
C20 O12 1.331 . S
C20 O15 1.244 . S
O21 Mg6 2.013 1_556 S
O21 C10 1.191 1_545 S
O22 C1 1.331 . S
O22 Mg8 2.081 . S
O23 Mg4 1.986 . S
O23 C10 1.307 1_554 S
O24 C2 1.264 . S
O24 Mg8 2.023 1_556 S
O25 C1 1.244 . S
O25 Mg9 1.942 . S
O26 C2 1.273 . S
O26 Mg9 1.955 1_556 S
O27 C0 1.312 . S
O27 Mg3 2.291 1_545 S
O27 Mg6 2.114 . S
O28 C0 1.208 . S
O28 Mg8 2.031 . S
C29 O14 1.264 . S
C29 O16 1.273 . S
C30 O11 1.191 . S
C30 O13 1.307 . S
C31 O58 1.312 . S
C31 O59 1.208 . S
C32 O53 1.331 . S
C32 O56 1.244 . S
C33 O55 1.264 1_545 S
C33 O57 1.273 1_545 S
Mg34 O36 1.936 . S
Mg34 O43 2.081 . S
Mg34 O45 2.023 . S
Mg34 O49 2.031 . S
Mg34 O58 2.291 . S
Mg35 O36 1.963 . S
Mg35 O46 1.942 . S
Mg35 O47 1.955 . S
Mg35 O54 1.986 . S
O36 Mg34 1.936 . S
O36 Mg35 1.963 . S
O36 Mg37 1.915 . S
Mg37 O36 1.915 . S
Mg37 O38 1.915 . S
Mg37 O42 2.013 . S
Mg37 O48 2.114 . S
Mg37 O52 2.013 . S
Mg37 O58 2.114 . S
O38 Mg37 1.915 . S
O38 Mg39 1.936 . S
O38 Mg40 1.963 . S
Mg39 O38 1.936 . S
Mg39 O48 2.291 . S
Mg39 O53 2.081 . S
Mg39 O55 2.023 . S
Mg39 O59 2.031 . S
Mg40 O38 1.963 . S
Mg40 O44 1.986 . S
Mg40 O56 1.942 . S
Mg40 O57 1.955 . S
C41 O52 1.191 . S
C41 O54 1.307 . S
O42 Mg37 2.013 . S
O42 C61 1.191 . S
O43 Mg34 2.081 . S
O43 C51 1.331 . S
O44 Mg40 1.986 . S
O44 C61 1.307 . S
O45 Mg34 2.023 . S
O45 C60 1.264 . S
O46 Mg35 1.942 . S
O46 C51 1.244 . S
O47 Mg35 1.955 . S
O47 C60 1.273 . S
O48 Mg37 2.114 . S
O48 Mg39 2.291 . S
O48 C50 1.312 . S
O49 Mg34 2.031 . S
O49 C50 1.208 . S
C50 O48 1.312 . S
C50 O49 1.208 . S
C51 O43 1.331 . S
C51 O46 1.244 . S
O52 Mg37 2.013 . S
O52 C41 1.191 . S
O53 C32 1.331 . S
O53 Mg39 2.081 . S
O54 Mg35 1.986 . S
O54 C41 1.307 . S
O55 C33 1.264 1_565 S
O55 Mg39 2.023 . S
O56 C32 1.244 . S
O56 Mg40 1.942 . S
O57 C33 1.273 1_565 S
O57 Mg40 1.955 . S
O58 C31 1.312 . S
O58 Mg34 2.291 . S
O58 Mg37 2.114 . S
O59 C31 1.208 . S
O59 Mg39 2.031 . S
C60 O45 1.264 . S
C60 O47 1.273 . S
C61 O42 1.191 . S
C61 O44 1.307 . S
C62 O89 1.312 1_564 S
C62 O90 1.208 . S
C63 O84 1.331 . S
C63 O87 1.244 . S
C64 O86 1.264 . S
C64 O88 1.273 . S
Mg65 O67 1.936 . S
Mg65 O74 2.081 . S
Mg65 O76 2.023 . S
Mg65 O80 2.031 1_545 S
Mg65 O89 2.291 . S
Mg66 O67 1.963 . S
Mg66 O77 1.942 . S
Mg66 O78 1.955 . S
Mg66 O85 1.986 1_545 S
O67 Mg65 1.936 . S
O67 Mg66 1.963 . S
O67 Mg68 1.915 1_545 S
Mg68 O67 1.915 1_565 S
Mg68 O69 1.915 . S
Mg68 O73 2.013 1_565 S
Mg68 O79 2.114 . S
Mg68 O83 2.013 . S
Mg68 O89 2.114 1_565 S
O69 Mg68 1.915 . S
O69 Mg70 1.934 1_556 S
O69 Mg71 1.963 . S
Mg70 O69 1.934 1_554 S
Mg70 O79 2.286 1_554 S
Mg70 O84 2.086 . S
Mg70 O86 2.021 1_554 S
Mg70 O90 2.033 . S
Mg71 O69 1.963 . S
Mg71 O75 1.986 1_656 S
Mg71 O87 1.942 1_556 S
Mg71 O88 1.955 . S
C72 O83 1.191 . S
C72 O85 1.307 . S
O73 Mg68 2.013 1_545 S
O73 C92 1.191 1_545 S
O74 Mg65 2.081 . S
O74 C82 1.331 . S
O75 Mg71 1.986 1_454 S
O75 C92 1.307 1_454 S
O76 Mg65 2.023 . S
O76 C91 1.264 . S
O77 Mg66 1.942 . S
O77 C82 1.244 . S
O78 Mg66 1.955 . S
O78 C91 1.273 . S
O79 Mg68 2.114 . S
O79 Mg70 2.286 1_556 S
O79 C81 1.312 . S
O80 Mg65 2.031 1_565 S
O80 C81 1.208 . S
C81 O79 1.312 . S
C81 O80 1.208 . S
C82 O74 1.331 . S
C82 O77 1.244 . S
O83 Mg68 2.013 . S
O83 C72 1.191 . S
O84 C63 1.331 . S
O84 Mg70 2.086 . S
O85 Mg66 1.986 1_565 S
O85 C72 1.307 . S
O86 C64 1.264 . S
O86 Mg70 2.021 1_556 S
O87 C63 1.244 . S
O87 Mg71 1.942 1_554 S
O88 C64 1.273 . S
O88 Mg71 1.955 . S
O89 C62 1.312 1_546 S
O89 Mg65 2.291 . S
O89 Mg68 2.114 1_545 S
O90 C62 1.208 . S
O90 Mg70 2.033 . S
C91 O76 1.264 . S
C91 O78 1.273 . S
C92 O73 1.191 1_565 S
C92 O75 1.307 1_656 S
C93 O120 1.312 . S
C93 O121 1.208 . S
C94 O115 1.331 . S
C94 O118 1.244 . S
C95 O117 1.264 . S
C95 O119 1.273 . S
Mg96 O98 1.936 . S
Mg96 O105 2.081 . S
Mg96 O107 2.023 . S
Mg96 O111 2.031 . S
Mg96 O120 2.291 . S
Mg97 O98 1.963 . S
Mg97 O108 1.942 . S
Mg97 O109 1.955 . S
Mg97 O116 1.986 1_455 S
O98 Mg96 1.936 . S
O98 Mg97 1.963 . S
O98 Mg99 1.915 . S
Mg99 O98 1.915 . S
Mg99 O100 1.915 . S
Mg99 O104 2.013 . S
Mg99 O110 2.114 . S
Mg99 O114 2.013 . S
Mg99 O120 2.114 . S
O100 Mg99 1.915 . S
O100 Mg101 1.936 . S
O100 Mg102 1.963 . S
Mg101 O100 1.936 . S
Mg101 O110 2.291 . S
Mg101 O115 2.081 . S
Mg101 O117 2.023 . S
Mg101 O121 2.031 . S
Mg102 O100 1.963 . S
Mg102 O106 1.986 . S
Mg102 O118 1.942 . S
Mg102 O119 1.955 . S
C103 O114 1.191 . S
C103 O116 1.307 1_455 S
O104 Mg99 2.013 . S
O104 C123 1.191 . S
O105 Mg96 2.081 . S
O105 C113 1.331 . S
O106 Mg102 1.986 . S
O106 C123 1.307 . S
O107 Mg96 2.023 . S
O107 C122 1.264 1_545 S
O108 Mg97 1.942 . S
O108 C113 1.244 . S
O109 Mg97 1.955 . S
O109 C122 1.273 1_545 S
O110 Mg99 2.114 . S
O110 Mg101 2.291 . S
O110 C112 1.312 . S
O111 Mg96 2.031 . S
O111 C112 1.208 . S
C112 O110 1.312 . S
C112 O111 1.208 . S
C113 O105 1.331 . S
C113 O108 1.244 . S
O114 Mg99 2.013 . S
O114 C103 1.191 . S
O115 C94 1.331 . S
O115 Mg101 2.081 . S
O116 Mg97 1.986 1_655 S
O116 C103 1.307 1_655 S
O117 C95 1.264 . S
O117 Mg101 2.023 . S
O118 C94 1.244 . S
O118 Mg102 1.942 . S
O119 C95 1.273 . S
O119 Mg102 1.955 . S
O120 C93 1.312 . S
O120 Mg96 2.291 . S
O120 Mg99 2.114 . S
O121 C93 1.208 . S
O121 Mg101 2.031 . S
C122 O107 1.264 1_565 S
C122 O109 1.273 1_565 S
C123 O104 1.191 . S
C123 O106 1.307 . S
C1 C20 1.043 . S
C33 C60 1.680 . S
C64 C91 1.735 . S
C122 C95 1.682 . S
C50 C29 1.767 . S
C51 C30 1.245 . S
C93 C82 1.627 . S
C81 C94 1.653 . S
C19 C92 1.199 1_454 S
C103 C61 1.056 1_455 S
C10 C62 1.967 1_556 S
C112 C31 2.061 . S
C123 C2 2.397 . S
C72 C32 2.073 . S
C41 C63 2.011 . S
C113 C0 2.504 . S
