# Generated by pormake.
# Topology wjg, (4)-cn, num edge types: 1
# Building blocks:
#     Node 0, Type 0, BuildingBlock: QUQFOY_clean_sbu_3, # of connection points: 4
#     Node 1, Type 0, BuildingBlock: QUQFOY_clean_sbu_3, # of connection points: 4
#     Node 2, Type 0, BuildingBlock: QUQFOY_clean_sbu_3, # of connection points: 4
#     Node 3, Type 0, BuildingBlock: QUQFOY_clean_sbu_3, # of connection points: 4
#     Node 4, Type 0, BuildingBlock: QUQFOY_clean_sbu_3, # of connection points: 4
#     Node 5, Type 0, BuildingBlock: QUQFOY_clean_sbu_3, # of connection points: 4
#     Node 6, Type 0, BuildingBlock: QUQFOY_clean_sbu_3, # of connection points: 4
#     Node 7, Type 0, BuildingBlock: QUQFOY_clean_sbu_3, # of connection points: 4
#     Node 8, Type 0, BuildingBlock: QUQFOY_clean_sbu_3, # of connection points: 4
#     Node 9, Type 0, BuildingBlock: QUQFOY_clean_sbu_3, # of connection points: 4
#     Node 10, Type 0, BuildingBlock: QUQFOY_clean_sbu_3, # of connection points: 4
#     Node 11, Type 0, BuildingBlock: QUQFOY_clean_sbu_3, # of connection points: 4
#     Edge 12, Type (0, 0), None
#     Edge 13, Type (0, 0), None
#     Edge 14, Type (0, 0), None
#     Edge 15, Type (0, 0), None
#     Edge 16, Type (0, 0), None
#     Edge 17, Type (0, 0), None
#     Edge 18, Type (0, 0), None
#     Edge 19, Type (0, 0), None
#     Edge 20, Type (0, 0), None
#     Edge 21, Type (0, 0), None
#     Edge 22, Type (0, 0), None
#     Edge 23, Type (0, 0), None
#     Edge 24, Type (0, 0), None
#     Edge 25, Type (0, 0), None
#     Edge 26, Type (0, 0), None
#     Edge 27, Type (0, 0), None
#     Edge 28, Type (0, 0), None
#     Edge 29, Type (0, 0), None
#     Edge 30, Type (0, 0), None
#     Edge 31, Type (0, 0), None
#     Edge 32, Type (0, 0), None
#     Edge 33, Type (0, 0), None
#     Edge 34, Type (0, 0), None
#     Edge 35, Type (0, 0), None
# Relax obj value: 0.287
# Max RMSD: 0.120
# Mean RMSD: 0.111
data_MOF--net-wjg--node1-QUQFOY_clean_sbu_3--edge1-none
_symmetry_space_group_name_H-M    P1
_symmetry_Int_Tables_number       1
_symmetry_cell_setting            triclinic
loop_
_symmetry_equiv_pos_as_xyz
'x, y, z'
_cell_length_a     15.949199
_cell_length_b     17.11497
_cell_length_c     19.629753
_cell_angle_alpha  92.00446
_cell_angle_beta   88.124986
_cell_angle_gamma 119.53954
loop_
_atom_site_label
_atom_site_type_symbol
_atom_site_fract_x
_atom_site_fract_y
_atom_site_fract_z
_atom_type_partial_charge
C0 C 0.22659 0.48475 0.38243 0.0
O1 O 0.28324 0.46412 0.41145 0.0
Cd2 Cd 0.27814 0.319 0.41511 0.0
O3 O 0.15123 0.42567 0.35229 0.0
Cd4 Cd 0.05313 0.26223 0.3403 0.0
C5 C 0.10107 0.27377 0.49719 0.0
O6 O 0.18994 0.24363 0.31767 0.0
O7 O 0.05803 0.12121 0.34268 0.0
O8 O 0.0265 0.28447 0.22283 0.0
C9 C 0.14777 0.1601 0.32874 0.0
O10 O 0.12827 0.22205 0.47009 0.0
C11 C -0.06471 0.23712 0.22606 0.0
O12 O 0.03928 0.28499 0.46548 0.0
O13 O 0.89729 0.20397 0.2837 0.0
C14 C 0.65547 0.25883 0.65618 0.0
O15 O 0.73791 0.31134 0.68033 0.0
Cd16 Cd 0.86989 0.29059 0.69664 0.0
O17 O 0.63172 0.17957 0.63461 0.0
Cd18 Cd 0.69892 0.07558 0.63316 0.0
C19 C 0.73207 0.12412 0.80736 0.0
O20 O 0.85837 0.18618 0.61319 0.0
O21 O 0.84719 0.0618 0.64357 0.0
O22 O 0.64019 0.03436 0.51476 0.0
C23 C 0.90052 0.14459 0.63171 0.0
O24 O 0.80559 0.19906 0.79338 0.0
C25 C 0.59723 -0.05003 0.52265 0.0
O26 O 0.67651 0.06965 0.76113 0.0
O27 O 0.59918 -0.07692 0.58211 0.0
C28 C 0.31012 0.68083 0.93024 0.0
O29 O 0.35525 0.74778 0.89225 0.0
Cd30 Cd 0.4811 0.85683 0.96443 0.0
O31 O 0.35931 0.6525 0.95953 0.0
Cd32 Cd 0.53394 0.70742 0.94067 0.0
C33 C 0.46245 0.73288 0.10126 0.0
O34 O 0.62885 0.86573 0.93138 0.0
O35 O 0.68051 0.8038 0.00151 0.0
O36 O 0.53817 0.66788 0.82076 0.0
C37 C 0.68762 0.87489 0.97764 0.0
O38 O 0.4588 0.80136 0.08169 0.0
C39 C 0.573 0.61651 0.83091 0.0
O40 O 0.48226 0.68457 0.05956 0.0
O41 O 0.58483 0.60319 0.89269 0.0
C42 C 0.54754 0.30513 0.27181 0.0
O43 O 0.48457 0.32359 0.29676 0.0
Cd44 Cd 0.47971 0.46101 0.31754 0.0
O45 O 0.62739 0.36534 0.24745 0.0
Cd46 Cd 0.70922 0.52957 0.24513 0.0
C47 C 0.66708 0.52085 0.41948 0.0
O48 O 0.58866 0.56835 0.24315 0.0
O49 O 0.72976 0.6771 0.27167 0.0
O50 O 0.75671 0.54228 0.12611 0.0
C51 C 0.6397 0.64697 0.2684 0.0
O52 O 0.58143 0.50676 0.41369 0.0
C53 C 0.84641 0.58047 0.13808 0.0
O54 O 0.72071 0.52438 0.36822 0.0
O55 O 0.872 0.59142 0.20015 0.0
C56 C 0.24116 0.6373 0.70101 0.0
O57 O 0.2086 0.66968 0.74675 0.0
Cd58 Cd 0.03749 0.6123 0.73958 0.0
O59 O 0.26874 0.67888 0.64503 0.0
Cd60 Cd 0.18394 0.76019 0.61245 0.0
C61 C 0.12861 0.80961 0.76174 0.0
O62 O 0.02999 0.61867 0.62066 0.0
O63 O 0.01971 0.73496 0.59534 0.0
O64 O 0.23573 0.78561 0.49229 0.0
C65 C -0.02307 0.65258 0.61044 0.0
O66 O 0.0473 0.75569 0.73731 0.0
C67 C 0.27557 0.87068 0.4983 0.0
O68 O 0.20399 0.83393 0.72455 0.0
O69 O 0.27597 0.90367 0.55738 0.0
C70 C 0.52921 0.2021 -0.01333 0.0
O71 O 0.5093 0.15863 0.93037 0.0
Cd72 Cd 0.36244 0.01547 0.94428 0.0
O73 O 0.46434 0.21472 0.01522 0.0
Cd74 Cd 0.30624 0.16549 0.9641 0.0
C75 C 0.29866 0.04474 0.10221 0.0
O76 O 0.21946 0.01971 0.9194 0.0
O77 O 0.1418 0.06242 -0.008 0.0
O78 O 0.34147 0.22232 0.85103 0.0
C79 C 0.14701 -0.00107 0.95995 0.0
O80 O 0.33157 0.00276 0.06568 0.0
C81 C 0.30217 0.27132 0.86047 0.0
O82 O 0.28783 0.10817 0.07883 0.0
O83 O 0.27327 0.27828 0.92099 0.0
C84 C 0.26082 0.57898 0.36776 0.0
O85 O 0.26829 0.59488 0.30514 0.0
Cd86 Cd 0.37807 0.54021 0.27778 0.0
O87 O 0.32619 0.63704 0.40562 0.0
Cd88 Cd 0.47539 0.75662 0.35211 0.0
C89 C 0.44401 0.70614 0.17263 0.0
O90 O 0.51469 0.64195 0.33985 0.0
O91 O 0.63076 0.77345 0.31247 0.0
O92 O 0.527 0.80374 0.47013 0.0
C93 C 0.59552 0.68889 0.31042 0.0
O94 O 0.42928 0.62738 0.18254 0.0
C95 C 0.55242 0.88605 0.46463 0.0
O96 O 0.44837 0.76027 0.22199 0.0
O97 O 0.54152 0.91048 0.40638 0.0
C98 C 0.59773 0.29928 0.63963 0.0
O99 O 0.61446 0.3294 0.58021 0.0
Cd100 Cd 0.7878 0.42011 0.57065 0.0
O101 O 0.59502 0.35088 0.68641 0.0
Cd102 Cd 0.67573 0.51262 0.6623 0.0
C103 C 0.69869 0.51743 0.48689 0.0
O104 O 0.8362 0.53 0.65934 0.0
O105 O 0.82701 0.64759 0.63398 0.0
O106 O 0.65329 0.54029 0.78305 0.0
C107 C 0.87772 0.6096 0.63739 0.0
O108 O 0.77367 0.50951 0.48979 0.0
C109 C 0.60438 0.57894 0.77327 0.0
O110 O 0.64313 0.5067 0.53885 0.0
O111 O 0.58875 0.58812 0.71161 0.0
C112 C 0.2305 0.67964 0.97012 0.0
O113 O 0.25472 0.72875 0.02345 0.0
Cd114 Cd 0.26306 0.86369 0.9821 0.0
O115 O 0.15995 0.67332 0.93781 0.0
Cd116 Cd 0.05438 0.73135 -0.01402 0.0
C117 C 0.13672 0.80311 0.83428 0.0
O118 O 0.13652 0.88234 0.02688 0.0
O119 O 0.02161 0.84912 0.95551 0.0
O120 O 0.00701 0.66742 0.09678 0.0
C121 C 0.09403 0.90885 -0.01261 0.0
O122 O 0.21811 0.84948 0.86268 0.0
C123 C -0.08217 0.62177 0.08319 0.0
O124 O 0.06162 0.74701 0.86715 0.0
O125 O 0.89239 0.62274 0.02232 0.0
C126 C 0.52054 0.21097 0.26255 0.0
O127 O 0.46926 0.17431 0.21095 0.0
Cd128 Cd 0.33463 0.20068 0.22153 0.0
O129 O 0.49635 0.16632 0.31723 0.0
Cd130 Cd 0.32846 0.04126 0.32874 0.0
C131 C 0.26596 0.01643 0.17155 0.0
O132 O 0.29604 0.16436 0.33737 0.0
O133 O 0.16925 0.03344 0.34285 0.0
O134 O 0.3484 0.01306 0.4459 0.0
C135 C 0.20547 0.11809 0.34211 0.0
O136 O 0.21814 0.04943 0.20038 0.0
C137 C 0.30655 -0.07183 0.43862 0.0
O138 O 0.31563 -0.00561 0.20776 0.0
O139 O 0.28047 0.89545 0.3789 0.0
C140 C 0.18476 0.54061 0.69118 0.0
O141 O 0.09737 0.50863 0.67389 0.0
Cd142 Cd 0.00686 0.37354 0.61185 0.0
O143 O 0.22597 0.49282 0.6929 0.0
Cd144 Cd 0.1891 0.33214 0.68615 0.0
C145 C 0.17496 0.35003 0.53617 0.0
O146 O 0.02179 0.27562 0.68443 0.0
O147 O 0.05845 0.17265 0.66005 0.0
O148 O 0.21622 0.33357 0.80819 0.0
C149 C -0.00521 0.19651 0.66326 0.0
O150 O 0.15695 0.4095 0.56036 0.0
C151 C 0.27533 0.30426 0.80147 0.0
O152 O 0.23833 0.33936 0.56596 0.0
O153 O 0.29751 0.29097 0.74092 0.0
C154 C 0.59092 0.18647 0.03157 0.0
O155 O 0.5475 0.12129 0.07142 0.0
Cd156 Cd 0.56013 7e-05 0.01436 0.0
O157 O 0.67284 0.20271 0.00826 0.0
Cd158 Cd 0.76834 0.13278 0.04503 0.0
C159 C 0.71126 0.10484 0.87977 0.0
O160 O 0.67889 -0.02521 0.05938 0.0
O161 O 0.80928 0.0239 -0.00338 0.0
O162 O 0.78645 0.16386 0.16683 0.0
C163 C 0.73198 -0.04238 0.01858 0.0
O164 O 0.62713 0.04544 0.89905 0.0
C165 C 0.87785 0.21207 0.16376 0.0
O166 O 0.77732 0.15224 0.92263 0.0
O167 O -0.08176 0.22897 0.10463 0.0
loop_
_geom_bond_atom_site_label_1
_geom_bond_atom_site_label_2
_geom_bond_distance
_geom_bond_site_symmetry_2
_ccdc_geom_bond_type
C0 O1 1.306 . S
C0 O3 1.160 . S
O1 C0 1.306 . S
O1 Cd2 2.228 . S
Cd2 O1 2.228 . S
Cd2 O6 2.273 . S
Cd2 O10 2.277 . S
O3 C0 1.160 . S
O3 Cd4 2.203 . S
Cd4 O3 2.203 . S
Cd4 O6 2.411 . S
Cd4 O7 2.333 . S
Cd4 O8 2.352 . S
Cd4 O12 2.277 . S
Cd4 O13 2.356 1_455 S
C5 O10 1.209 . S
C5 O12 1.226 . S
O6 Cd2 2.273 . S
O6 Cd4 2.411 . S
O6 C9 1.320 . S
O7 Cd4 2.333 . S
O7 C9 1.214 . S
O8 Cd4 2.352 . S
O8 C11 1.258 1_455 S
C9 O6 1.320 . S
C9 O7 1.214 . S
O10 Cd2 2.277 . S
O10 C5 1.209 . S
C11 O8 1.258 1_655 S
C11 O13 1.282 . S
O12 Cd4 2.277 . S
O12 C5 1.226 . S
O13 Cd4 2.356 1_655 S
O13 C11 1.282 . S
C14 O15 1.306 . S
C14 O17 1.160 . S
O15 C14 1.306 . S
O15 Cd16 2.228 . S
Cd16 O15 2.228 . S
Cd16 O20 2.273 . S
Cd16 O24 2.277 . S
O17 C14 1.160 . S
O17 Cd18 2.203 . S
Cd18 O17 2.203 . S
Cd18 O20 2.411 . S
Cd18 O21 2.333 . S
Cd18 O22 2.352 . S
Cd18 O26 2.277 . S
Cd18 O27 2.356 1_545 S
C19 O24 1.209 . S
C19 O26 1.226 . S
O20 Cd16 2.273 . S
O20 Cd18 2.411 . S
O20 C23 1.320 . S
O21 Cd18 2.333 . S
O21 C23 1.214 . S
O22 Cd18 2.352 . S
O22 C25 1.258 1_545 S
C23 O20 1.320 . S
C23 O21 1.214 . S
O24 Cd16 2.277 . S
O24 C19 1.209 . S
C25 O22 1.258 1_565 S
C25 O27 1.282 . S
O26 Cd18 2.277 . S
O26 C19 1.226 . S
O27 Cd18 2.356 1_565 S
O27 C25 1.282 . S
C28 O29 1.306 1_556 S
C28 O31 1.160 . S
O29 C28 1.306 1_554 S
O29 Cd30 2.228 . S
Cd30 O29 2.228 . S
Cd30 O34 2.273 1_554 S
Cd30 O38 2.277 . S
O31 C28 1.160 . S
O31 Cd32 2.203 . S
Cd32 O31 2.203 . S
Cd32 O34 2.411 . S
Cd32 O35 2.333 . S
Cd32 O36 2.352 . S
Cd32 O40 2.277 1_556 S
Cd32 O41 2.356 . S
C33 O38 1.209 . S
C33 O40 1.226 . S
O34 Cd30 2.273 1_556 S
O34 Cd32 2.411 . S
O34 C37 1.320 . S
O35 Cd32 2.333 . S
O35 C37 1.214 . S
O36 Cd32 2.352 . S
O36 C39 1.258 . S
C37 O34 1.320 . S
C37 O35 1.214 . S
O38 Cd30 2.277 . S
O38 C33 1.209 . S
C39 O36 1.258 . S
C39 O41 1.282 . S
O40 Cd32 2.277 1_554 S
O40 C33 1.226 . S
O41 Cd32 2.356 . S
O41 C39 1.282 . S
C42 O43 1.306 . S
C42 O45 1.160 . S
O43 C42 1.306 . S
O43 Cd44 2.228 . S
Cd44 O43 2.228 . S
Cd44 O48 2.273 . S
Cd44 O52 2.277 . S
O45 C42 1.160 . S
O45 Cd46 2.203 . S
Cd46 O45 2.203 . S
Cd46 O48 2.411 . S
Cd46 O49 2.333 . S
Cd46 O50 2.352 . S
Cd46 O54 2.277 . S
Cd46 O55 2.356 1_655 S
C47 O52 1.209 . S
C47 O54 1.226 . S
O48 Cd44 2.273 . S
O48 Cd46 2.411 . S
O48 C51 1.320 . S
O49 Cd46 2.333 . S
O49 C51 1.214 . S
O50 Cd46 2.352 . S
O50 C53 1.258 1_655 S
C51 O48 1.320 . S
C51 O49 1.214 . S
O52 Cd44 2.277 . S
O52 C47 1.209 . S
C53 O50 1.258 1_455 S
C53 O55 1.282 . S
O54 Cd46 2.277 . S
O54 C47 1.226 . S
O55 Cd46 2.356 1_455 S
O55 C53 1.282 . S
C56 O57 1.306 . S
C56 O59 1.160 . S
O57 C56 1.306 . S
O57 Cd58 2.228 . S
Cd58 O57 2.228 . S
Cd58 O62 2.273 . S
Cd58 O66 2.277 . S
O59 C56 1.160 . S
O59 Cd60 2.203 . S
Cd60 O59 2.203 . S
Cd60 O62 2.411 . S
Cd60 O63 2.333 . S
Cd60 O64 2.352 . S
Cd60 O68 2.277 . S
Cd60 O69 2.356 1_565 S
C61 O66 1.209 . S
C61 O68 1.226 . S
O62 Cd58 2.273 . S
O62 Cd60 2.411 . S
O62 C65 1.320 . S
O63 Cd60 2.333 . S
O63 C65 1.214 . S
O64 Cd60 2.352 . S
O64 C67 1.258 1_565 S
C65 O62 1.320 . S
C65 O63 1.214 . S
O66 Cd58 2.277 . S
O66 C61 1.209 . S
C67 O64 1.258 1_545 S
C67 O69 1.282 . S
O68 Cd60 2.277 . S
O68 C61 1.226 . S
O69 Cd60 2.356 1_545 S
O69 C67 1.282 . S
C70 O71 1.306 1_556 S
C70 O73 1.160 . S
O71 C70 1.306 1_554 S
O71 Cd72 2.228 . S
Cd72 O71 2.228 . S
Cd72 O76 2.273 1_554 S
Cd72 O80 2.277 . S
O73 C70 1.160 . S
O73 Cd74 2.203 . S
Cd74 O73 2.203 . S
Cd74 O76 2.411 . S
Cd74 O77 2.333 . S
Cd74 O78 2.352 . S
Cd74 O82 2.277 1_556 S
Cd74 O83 2.356 . S
C75 O80 1.209 . S
C75 O82 1.226 . S
O76 Cd72 2.273 1_556 S
O76 Cd74 2.411 . S
O76 C79 1.320 . S
O77 Cd74 2.333 . S
O77 C79 1.214 . S
O78 Cd74 2.352 . S
O78 C81 1.258 . S
C79 O76 1.320 . S
C79 O77 1.214 . S
O80 Cd72 2.277 . S
O80 C75 1.209 . S
C81 O78 1.258 . S
C81 O83 1.282 . S
O82 Cd74 2.277 1_554 S
O82 C75 1.226 . S
O83 Cd74 2.356 . S
O83 C81 1.282 . S
C84 O85 1.306 . S
C84 O87 1.160 . S
O85 C84 1.306 . S
O85 Cd86 2.228 . S
Cd86 O85 2.228 . S
Cd86 O90 2.273 . S
Cd86 O94 2.277 . S
O87 C84 1.160 . S
O87 Cd88 2.203 . S
Cd88 O87 2.203 . S
Cd88 O90 2.411 . S
Cd88 O91 2.333 . S
Cd88 O92 2.352 . S
Cd88 O96 2.277 . S
Cd88 O97 2.356 1_565 S
C89 O94 1.209 . S
C89 O96 1.226 . S
O90 Cd86 2.273 . S
O90 Cd88 2.411 . S
O90 C93 1.320 . S
O91 Cd88 2.333 . S
O91 C93 1.214 . S
O92 Cd88 2.352 . S
O92 C95 1.258 1_565 S
C93 O90 1.320 . S
C93 O91 1.214 . S
O94 Cd86 2.277 . S
O94 C89 1.209 . S
C95 O92 1.258 1_545 S
C95 O97 1.282 . S
O96 Cd88 2.277 . S
O96 C89 1.226 . S
O97 Cd88 2.356 1_545 S
O97 C95 1.282 . S
C98 O99 1.306 . S
C98 O101 1.160 . S
O99 C98 1.306 . S
O99 Cd100 2.228 . S
Cd100 O99 2.228 . S
Cd100 O104 2.273 . S
Cd100 O108 2.277 . S
O101 C98 1.160 . S
O101 Cd102 2.203 . S
Cd102 O101 2.203 . S
Cd102 O104 2.411 . S
Cd102 O105 2.333 . S
Cd102 O106 2.352 . S
Cd102 O110 2.277 . S
Cd102 O111 2.356 . S
C103 O108 1.209 . S
C103 O110 1.226 . S
O104 Cd100 2.273 . S
O104 Cd102 2.411 . S
O104 C107 1.320 . S
O105 Cd102 2.333 . S
O105 C107 1.214 . S
O106 Cd102 2.352 . S
O106 C109 1.258 . S
C107 O104 1.320 . S
C107 O105 1.214 . S
O108 Cd100 2.277 . S
O108 C103 1.209 . S
C109 O106 1.258 . S
C109 O111 1.282 . S
O110 Cd102 2.277 . S
O110 C103 1.226 . S
O111 Cd102 2.356 . S
O111 C109 1.282 . S
C112 O113 1.306 1_554 S
C112 O115 1.160 . S
O113 C112 1.306 1_556 S
O113 Cd114 2.228 . S
Cd114 O113 2.228 . S
Cd114 O118 2.273 1_556 S
Cd114 O122 2.277 . S
O115 C112 1.160 . S
O115 Cd116 2.203 . S
Cd116 O115 2.203 . S
Cd116 O118 2.411 . S
Cd116 O119 2.333 . S
Cd116 O120 2.352 . S
Cd116 O124 2.277 1_554 S
Cd116 O125 2.356 1_455 S
C117 O122 1.209 . S
C117 O124 1.226 . S
O118 Cd114 2.273 1_554 S
O118 Cd116 2.411 . S
O118 C121 1.320 . S
O119 Cd116 2.333 . S
O119 C121 1.214 . S
O120 Cd116 2.352 . S
O120 C123 1.258 1_455 S
C121 O118 1.320 . S
C121 O119 1.214 . S
O122 Cd114 2.277 . S
O122 C117 1.209 . S
C123 O120 1.258 1_655 S
C123 O125 1.282 . S
O124 Cd116 2.277 1_556 S
O124 C117 1.226 . S
O125 Cd116 2.356 1_655 S
O125 C123 1.282 . S
C126 O127 1.306 . S
C126 O129 1.160 . S
O127 C126 1.306 . S
O127 Cd128 2.228 . S
Cd128 O127 2.228 . S
Cd128 O132 2.273 . S
Cd128 O136 2.277 . S
O129 C126 1.160 . S
O129 Cd130 2.203 . S
Cd130 O129 2.203 . S
Cd130 O132 2.411 . S
Cd130 O133 2.333 . S
Cd130 O134 2.352 . S
Cd130 O138 2.277 . S
Cd130 O139 2.356 1_545 S
C131 O136 1.209 . S
C131 O138 1.226 . S
O132 Cd128 2.273 . S
O132 Cd130 2.411 . S
O132 C135 1.320 . S
O133 Cd130 2.333 . S
O133 C135 1.214 . S
O134 Cd130 2.352 . S
O134 C137 1.258 1_545 S
C135 O132 1.320 . S
C135 O133 1.214 . S
O136 Cd128 2.277 . S
O136 C131 1.209 . S
C137 O134 1.258 1_565 S
C137 O139 1.282 . S
O138 Cd130 2.277 . S
O138 C131 1.226 . S
O139 Cd130 2.356 1_565 S
O139 C137 1.282 . S
C140 O141 1.306 . S
C140 O143 1.160 . S
O141 C140 1.306 . S
O141 Cd142 2.228 . S
Cd142 O141 2.228 . S
Cd142 O146 2.273 . S
Cd142 O150 2.277 . S
O143 C140 1.160 . S
O143 Cd144 2.203 . S
Cd144 O143 2.203 . S
Cd144 O146 2.411 . S
Cd144 O147 2.333 . S
Cd144 O148 2.352 . S
Cd144 O152 2.277 . S
Cd144 O153 2.356 . S
C145 O150 1.209 . S
C145 O152 1.226 . S
O146 Cd142 2.273 . S
O146 Cd144 2.411 . S
O146 C149 1.320 . S
O147 Cd144 2.333 . S
O147 C149 1.214 . S
O148 Cd144 2.352 . S
O148 C151 1.258 . S
C149 O146 1.320 . S
C149 O147 1.214 . S
O150 Cd142 2.277 . S
O150 C145 1.209 . S
C151 O148 1.258 . S
C151 O153 1.282 . S
O152 Cd144 2.277 . S
O152 C145 1.226 . S
O153 Cd144 2.356 . S
O153 C151 1.282 . S
C154 O155 1.306 1_554 S
C154 O157 1.160 . S
O155 C154 1.306 1_556 S
O155 Cd156 2.228 . S
Cd156 O155 2.228 . S
Cd156 O160 2.273 1_556 S
Cd156 O164 2.277 . S
O157 C154 1.160 . S
O157 Cd158 2.203 . S
Cd158 O157 2.203 . S
Cd158 O160 2.411 . S
Cd158 O161 2.333 . S
Cd158 O162 2.352 . S
Cd158 O166 2.277 1_554 S
Cd158 O167 2.356 1_655 S
C159 O164 1.209 . S
C159 O166 1.226 . S
O160 Cd156 2.273 1_554 S
O160 Cd158 2.411 . S
O160 C163 1.320 . S
O161 Cd158 2.333 . S
O161 C163 1.214 . S
O162 Cd158 2.352 . S
O162 C165 1.258 1_655 S
C163 O160 1.320 . S
C163 O161 1.214 . S
O164 Cd156 2.277 . S
O164 C159 1.209 . S
C165 O162 1.258 1_455 S
C165 O167 1.282 . S
O166 Cd158 2.277 1_556 S
O166 C159 1.226 . S
O167 Cd158 2.356 1_455 S
O167 C165 1.282 . S
C0 C84 1.635 . S
C14 C98 1.635 . S
C28 C112 1.557 1_556 S
C126 C42 1.635 . S
C56 C140 1.635 . S
C154 C70 1.557 1_554 S
C9 C135 1.361 . S
C23 C149 1.361 1_655 S
C163 C37 1.388 1_544 S
C93 C51 1.361 . S
C65 C107 1.361 1_455 S
C79 C121 1.388 1_546 S
C165 C11 2.041 1_455 S
C25 C95 2.250 1_565 S
C39 C109 2.041 . S
C123 C53 2.041 1_655 S
C137 C67 2.250 1_565 S
C81 C151 2.041 . S
C5 C145 2.235 . S
C159 C19 2.252 . S
C89 C33 2.252 . S
C47 C103 2.235 . S
C117 C61 2.252 . S
C131 C75 2.251 . S
