# Generated by pormake.
# Topology pcu, (6)-cn, num edge types: 1
# Building blocks:
#     Node 0, Type 0, BuildingBlock: BETDIP_clean_sbu_0, # of connection points: 6
#     Edge 1, Type (0, 0), BuildingBlock: EZIPEK_clean_linker_0, # of connection points: 2
#     Edge 2, Type (0, 0), BuildingBlock: EZIPEK_clean_linker_0, # of connection points: 2
#     Edge 3, Type (0, 0), BuildingBlock: EZIPEK_clean_linker_0, # of connection points: 2
# Relax obj value: 0.000
# Max RMSD: 0.000
# Mean RMSD: 0.000
data_MOF--net-pcu--node1-BETDIP_clean_sbu_0--edge1-EZIPEK_clean_linker_0
_symmetry_space_group_name_H-M    P1
_symmetry_Int_Tables_number       1
_symmetry_cell_setting            triclinic
loop_
_symmetry_equiv_pos_as_xyz
'x, y, z'
_cell_length_a     20.879353
_cell_length_b     11.259221
_cell_length_c     10.405996
_cell_angle_alpha  91.184911
_cell_angle_beta   95.865023
_cell_angle_gamma 122.32309
loop_
_atom_site_label
_atom_site_type_symbol
_atom_site_fract_x
_atom_site_fract_y
_atom_site_fract_z
_atom_type_partial_charge
Tb0 Tb 0.9567 0.89698 1.00031 0.0
Tb1 Tb 0.12888 0.04961 0.02755 0.0
C2 C 0.81689 0.76881 0.02695 0.0
C3 C 0.7605 0.81065 0.02123 0.0
C4 C 0.7839 0.95139 0.05366 0.0
C5 C 0.73013 -0.01023 0.05023 0.0
C6 C 0.65208 0.88837 0.01367 0.0
C7 C 0.62856 0.74793 0.98028 0.0
C8 C 0.68243 0.70939 0.9841 0.0
C9 C 1.01692 -0.02151 0.78207 0.0
C10 C 0.04815 0.22344 0.01479 0.0
C11 C 0.26892 0.17869 1.00264 0.0
C12 C 0.325 0.1363 1.00576 0.0
C13 C 0.30132 -0.00398 0.9701 0.0
C14 C 0.35479 0.95695 0.97261 0.0
C15 C 0.43279 0.05719 1.01136 0.0
C16 C 0.45657 0.19719 0.04766 0.0
C17 C 0.40303 0.23642 0.04483 0.0
C18 C 0.06785 0.96621 0.24523 0.0
C19 C 1.03779 0.72359 1.00995 0.0
O20 O 0.87249 0.82979 0.12364 0.0
O21 O 0.84155 0.76315 0.91775 0.0
O22 O 1.0385 0.92976 0.87268 0.0
O23 O 0.95554 0.97063 0.80837 0.0
O24 O 0.98288 0.10881 0.03116 0.0
O25 O 0.11102 0.2241 1.00408 0.0
O26 O 0.21378 0.12157 0.90501 0.0
O27 O 0.24372 0.18022 0.11235 0.0
O28 O 0.04719 0.01688 0.15516 0.0
O29 O 0.12857 0.97192 0.21824 0.0
O30 O 0.10269 0.83848 0.99261 0.0
O31 O 0.97512 0.72283 0.0238 0.0
H32 H 0.84369 0.03166 0.0826 0.0
H33 H 0.74932 0.09854 0.0764 0.0
H34 H 0.56854 0.66824 0.95199 0.0
H35 H 0.6631 0.6004 0.95865 0.0
H36 H 0.24155 0.91665 0.93967 0.0
H37 H 0.3354 0.84852 0.94422 0.0
H38 H 0.51656 0.27598 0.07767 0.0
H39 H 0.42255 0.345 0.07287 0.0
C40 C 0.991 0.8509 0.42747 0.0
C41 C 0.05321 0.97095 0.38165 0.0
C42 C 0.09386 0.09553 0.60013 0.0
C43 C 1.03215 -0.02547 0.64602 0.0
N44 N 0.92936 0.7297 0.61091 0.0
N45 N 0.15932 0.21307 0.41771 0.0
C46 C 0.98255 0.85035 0.56153 0.0
C47 C 0.10373 0.09467 0.46653 0.0
N48 N 0.93841 0.73883 0.3418 0.0
N49 N 0.14414 0.20992 0.6855 0.0
H50 H 0.16853 0.21647 0.32091 0.0
H51 H 0.19377 0.3115 0.46948 0.0
H52 H 0.13724 0.21501 0.78242 0.0
H53 H 0.19488 0.29689 0.66399 0.0
H54 H 0.88665 0.6553 0.36444 0.0
H55 H 0.94384 0.73401 0.24408 0.0
H56 H 0.89753 0.63102 0.5588 0.0
H57 H 0.921 0.72479 0.70822 0.0
C58 C 0.52823 0.03328 0.90268 0.0
C59 C 0.48968 0.01533 1.01258 0.0
C60 C 0.5564 0.91182 0.12203 0.0
C61 C 0.59488 0.92953 1.01207 0.0
N62 N 0.62401 0.01679 0.80276 0.0
N63 N 0.45991 0.92646 0.22118 0.0
C64 C 0.58241 -0.00729 0.90354 0.0
C65 C 0.50197 0.95173 0.1209 0.0
N66 N 0.51056 0.08423 0.79567 0.0
N67 N 0.57449 0.86204 0.22952 0.0
H68 H 0.42215 0.95971 0.22625 0.0
H69 H 0.45896 0.8667 0.29667 0.0
H70 H 0.61289 0.82945 0.23294 0.0
H71 H 0.55526 0.85973 0.31828 0.0
H72 H 0.5301 0.08763 0.70703 0.0
H73 H 0.47239 0.11733 0.79262 0.0
H74 H 0.6247 0.07565 0.72666 0.0
H75 H 0.66145 -0.01718 0.79751 0.0
C76 C 1.03523 0.52616 0.89182 0.0
C77 C 1.03651 0.59155 1.01075 0.0
C78 C 0.05645 0.42696 0.13208 0.0
C79 C 0.05012 0.35609 1.01287 0.0
N80 N 1.02444 0.32476 0.77926 0.0
N81 N 0.04436 0.60357 0.24389 0.0
C82 C 1.03732 0.40226 0.89261 0.0
C83 C 0.04578 0.54145 0.13095 0.0
N84 N 1.03356 0.58439 0.77833 0.0
N85 N 0.07471 0.38663 0.24607 0.0
H86 H 1.04195 0.69335 0.24722 0.0
H87 H 1.0417 0.5631 0.33353 0.0
H88 H 0.08166 0.30168 0.24997 0.0
H89 H 0.08805 0.44185 0.33623 0.0
H90 H 1.04213 0.5527 0.69049 0.0
H91 H 1.02813 0.67105 0.77293 0.0
H92 H 1.00538 0.34211 0.68954 0.0
H93 H 1.02827 0.2365 0.77573 0.0
loop_
_geom_bond_atom_site_label_1
_geom_bond_atom_site_label_2
_geom_bond_distance
_geom_bond_site_symmetry_2
_ccdc_geom_bond_type
Tb0 C2 2.809 . S
Tb0 O20 2.484 1_556 S
Tb0 O21 2.440 . S
Tb0 O22 2.658 1_655 S
Tb0 O23 2.409 . S
Tb0 O24 2.378 1_565 S
Tb0 O28 2.325 1_566 S
Tb0 O31 2.341 . S
Tb1 C11 2.809 . S
Tb1 O22 2.325 1_544 S
Tb1 O25 2.341 . S
Tb1 O26 2.484 1_554 S
Tb1 O27 2.440 . S
Tb1 O28 2.658 1_455 S
Tb1 O29 2.409 . S
Tb1 O30 2.378 1_545 S
C2 Tb0 2.809 . S
C2 C3 1.514 . S
C2 O20 1.248 1_556 S
C2 O21 1.266 . S
C3 C2 1.514 . S
C3 C4 1.355 1_566 S
C3 C8 1.348 . S
C4 C3 1.355 1_544 S
C4 C5 1.386 . S
C4 H32 0.927 . S
C5 C4 1.386 . S
C5 C6 1.347 1_544 S
C5 H33 0.931 . S
C6 C5 1.347 1_566 S
C6 C7 1.369 . S
C7 C6 1.369 . S
C7 C8 1.408 . S
C7 H34 0.930 . S
C8 C3 1.348 . S
C8 C7 1.408 . S
C8 H35 0.930 . S
C9 O22 1.281 1_655 S
C9 O23 1.254 . S
C10 O24 1.236 1_455 S
C10 O25 1.266 1_556 S
C11 Tb1 2.809 . S
C11 C12 1.514 . S
C11 O26 1.248 1_554 S
C11 O27 1.266 . S
C12 C11 1.514 . S
C12 C13 1.356 1_544 S
C12 C17 1.348 . S
C13 C12 1.356 1_566 S
C13 C14 1.385 . S
C13 H36 0.927 . S
C14 C13 1.385 . S
C14 C15 1.347 1_566 S
C14 H37 0.931 . S
C15 C14 1.347 1_544 S
C15 C16 1.369 . S
C16 C15 1.369 . S
C16 C17 1.408 . S
C16 H38 0.930 . S
C17 C12 1.348 . S
C17 C16 1.408 . S
C17 H39 0.930 . S
C18 O28 1.281 1_455 S
C18 O29 1.254 . S
C19 O30 1.236 1_655 S
C19 O31 1.266 1_554 S
O20 Tb0 2.484 1_554 S
O20 C2 1.248 1_554 S
O21 Tb0 2.440 . S
O21 C2 1.266 . S
O22 Tb0 2.658 1_455 S
O22 Tb1 2.325 1_566 S
O22 C9 1.281 1_455 S
O23 Tb0 2.409 . S
O23 C9 1.254 . S
O24 Tb0 2.378 1_545 S
O24 C10 1.236 1_655 S
O25 Tb1 2.341 . S
O25 C10 1.266 1_554 S
O26 Tb1 2.484 1_556 S
O26 C11 1.248 1_556 S
O27 Tb1 2.440 . S
O27 C11 1.266 . S
O28 Tb0 2.325 1_544 S
O28 Tb1 2.658 1_655 S
O28 C18 1.281 1_655 S
O29 Tb1 2.409 . S
O29 C18 1.254 . S
O30 Tb1 2.378 1_565 S
O30 C19 1.236 1_455 S
O31 Tb0 2.341 . S
O31 C19 1.266 1_556 S
H32 C4 0.927 . S
H33 C5 0.931 . S
H34 C7 0.930 . S
H35 C8 0.930 . S
H36 C13 0.927 . S
H37 C14 0.931 . S
H38 C16 0.930 . S
H39 C17 0.930 . S
C40 C41 1.363 1_665 S
C40 C46 1.379 . S
C40 N48 1.356 . S
C41 C40 1.363 1_445 S
C41 C47 1.363 . S
C42 C43 1.363 . S
C42 C47 1.379 . S
C42 N49 1.356 . S
C43 C42 1.363 . S
C43 C46 1.363 1_445 S
N44 C46 1.356 . S
N44 H56 0.984 . S
N44 H57 0.985 . S
N45 C47 1.356 . S
N45 H50 0.984 . S
N45 H51 0.985 . S
C46 C40 1.379 . S
C46 C43 1.363 1_665 S
C46 N44 1.356 . S
C47 C41 1.363 . S
C47 C42 1.379 . S
C47 N45 1.356 . S
N48 C40 1.356 . S
N48 H54 0.984 . S
N48 H55 0.984 . S
N49 C42 1.356 . S
N49 H52 0.984 . S
N49 H53 0.985 . S
H50 N45 0.984 . S
H51 N45 0.985 . S
H52 N49 0.984 . S
H53 N49 0.985 . S
H54 N48 0.984 . S
H55 N48 0.984 . S
H56 N44 0.984 . S
H57 N44 0.985 . S
C58 C59 1.363 1_566 S
C58 C64 1.379 . S
C58 N66 1.356 . S
C59 C58 1.363 1_544 S
C59 C65 1.363 . S
C60 C61 1.363 . S
C60 C65 1.379 . S
C60 N67 1.356 . S
C61 C60 1.363 . S
C61 C64 1.363 1_544 S
N62 C64 1.356 . S
N62 H74 0.984 . S
N62 H75 0.985 . S
N63 C65 1.356 . S
N63 H68 0.984 . S
N63 H69 0.985 . S
C64 C58 1.379 . S
C64 C61 1.363 1_566 S
C64 N62 1.356 . S
C65 C59 1.363 . S
C65 C60 1.379 . S
C65 N63 1.356 . S
N66 C58 1.356 . S
N66 H72 0.984 . S
N66 H73 0.984 . S
N67 C60 1.356 . S
N67 H70 0.984 . S
N67 H71 0.985 . S
H68 N63 0.984 . S
H69 N63 0.985 . S
H70 N67 0.984 . S
H71 N67 0.985 . S
H72 N66 0.984 . S
H73 N66 0.984 . S
H74 N62 0.984 . S
H75 N62 0.985 . S
C76 C77 1.363 1_656 S
C76 C82 1.379 . S
C76 N84 1.356 . S
C77 C76 1.363 1_454 S
C77 C83 1.363 . S
C78 C79 1.363 . S
C78 C83 1.379 . S
C78 N85 1.356 . S
C79 C78 1.363 . S
C79 C82 1.363 1_454 S
N80 C82 1.356 . S
N80 H92 0.984 . S
N80 H93 0.985 . S
N81 C83 1.356 . S
N81 H86 0.984 . S
N81 H87 0.985 . S
C82 C76 1.379 . S
C82 C79 1.363 1_656 S
C82 N80 1.356 . S
C83 C77 1.363 . S
C83 C78 1.379 . S
C83 N81 1.356 . S
N84 C76 1.356 . S
N84 H90 0.984 . S
N84 H91 0.984 . S
N85 C78 1.356 . S
N85 H88 0.984 . S
N85 H89 0.985 . S
H86 N81 0.984 . S
H87 N81 0.985 . S
H88 N85 0.984 . S
H89 N85 0.985 . S
H90 N84 0.984 . S
H91 N84 0.984 . S
H92 N80 0.984 . S
H93 N80 0.985 . S
C41 C18 1.452 . S
C43 C9 1.452 1_445 S
C59 C15 1.499 . S
C61 C6 1.499 1_544 S
C77 C19 1.490 1_455 S
C79 C10 1.490 1_554 S
