# Generated by pormake.
# Topology pcb, (4)-cn, num edge types: 1
# Building blocks:
#     Node 0, Type 0, BuildingBlock: QUQFOY_clean_sbu_3, # of connection points: 4
#     Node 1, Type 0, BuildingBlock: QUQFOY_clean_sbu_3, # of connection points: 4
#     Node 2, Type 0, BuildingBlock: QUQFOY_clean_sbu_3, # of connection points: 4
#     Node 3, Type 0, BuildingBlock: QUQFOY_clean_sbu_3, # of connection points: 4
#     Node 4, Type 0, BuildingBlock: QUQFOY_clean_sbu_3, # of connection points: 4
#     Node 5, Type 0, BuildingBlock: QUQFOY_clean_sbu_3, # of connection points: 4
#     Node 6, Type 0, BuildingBlock: QUQFOY_clean_sbu_3, # of connection points: 4
#     Node 7, Type 0, BuildingBlock: QUQFOY_clean_sbu_3, # of connection points: 4
#     Node 8, Type 0, BuildingBlock: QUQFOY_clean_sbu_3, # of connection points: 4
#     Node 9, Type 0, BuildingBlock: QUQFOY_clean_sbu_3, # of connection points: 4
#     Node 10, Type 0, BuildingBlock: QUQFOY_clean_sbu_3, # of connection points: 4
#     Node 11, Type 0, BuildingBlock: QUQFOY_clean_sbu_3, # of connection points: 4
#     Node 12, Type 0, BuildingBlock: QUQFOY_clean_sbu_3, # of connection points: 4
#     Node 13, Type 0, BuildingBlock: QUQFOY_clean_sbu_3, # of connection points: 4
#     Node 14, Type 0, BuildingBlock: QUQFOY_clean_sbu_3, # of connection points: 4
#     Node 15, Type 0, BuildingBlock: QUQFOY_clean_sbu_3, # of connection points: 4
#     Edge 16, Type (0, 0), None
#     Edge 17, Type (0, 0), None
#     Edge 18, Type (0, 0), None
#     Edge 19, Type (0, 0), None
#     Edge 20, Type (0, 0), None
#     Edge 21, Type (0, 0), None
#     Edge 22, Type (0, 0), None
#     Edge 23, Type (0, 0), None
#     Edge 24, Type (0, 0), None
#     Edge 25, Type (0, 0), None
#     Edge 26, Type (0, 0), None
#     Edge 27, Type (0, 0), None
#     Edge 28, Type (0, 0), None
#     Edge 29, Type (0, 0), None
#     Edge 30, Type (0, 0), None
#     Edge 31, Type (0, 0), None
#     Edge 32, Type (0, 0), None
#     Edge 33, Type (0, 0), None
#     Edge 34, Type (0, 0), None
#     Edge 35, Type (0, 0), None
#     Edge 36, Type (0, 0), None
#     Edge 37, Type (0, 0), None
#     Edge 38, Type (0, 0), None
#     Edge 39, Type (0, 0), None
#     Edge 40, Type (0, 0), None
#     Edge 41, Type (0, 0), None
#     Edge 42, Type (0, 0), None
#     Edge 43, Type (0, 0), None
#     Edge 44, Type (0, 0), None
#     Edge 45, Type (0, 0), None
#     Edge 46, Type (0, 0), None
#     Edge 47, Type (0, 0), None
# Relax obj value: 0.309
# Max RMSD: 0.177
# Mean RMSD: 0.177
data_MOF--net-pcb--node1-QUQFOY_clean_sbu_3--edge1-none
_symmetry_space_group_name_H-M    P1
_symmetry_Int_Tables_number       1
_symmetry_cell_setting            triclinic
loop_
_symmetry_equiv_pos_as_xyz
'x, y, z'
_cell_length_a     19.205207
_cell_length_b     24.245996
_cell_length_c     24.187669
_cell_angle_alpha  90.000548
_cell_angle_beta   90.001788
_cell_angle_gamma 89.99834
loop_
_atom_site_label
_atom_site_type_symbol
_atom_site_fract_x
_atom_site_fract_y
_atom_site_fract_z
_atom_type_partial_charge
C0 C 0.01779 0.06835 0.08265 0.0
O1 O 0.04744 0.03326 0.05178 0.0
Cd2 Cd 0.16395 0.00666 0.06233 0.0
O3 O 0.05298 0.09601 0.11784 0.0
Cd4 Cd 0.18367 0.09468 0.13365 0.0
C5 C 0.23434 0.11384 0.00377 0.0
O6 O 0.1785 -0.00148 0.16091 0.0
O7 O 0.27371 0.02057 0.12112 0.0
O8 O 0.15975 0.15077 0.21596 0.0
C9 C 0.2369 -0.0172 0.14279 0.0
O10 O 0.24595 0.06246 0.00785 0.0
C11 C 0.22141 0.16894 0.22044 0.0
O12 O 0.20093 0.13789 0.0422 0.0
O13 O 0.26573 0.15201 0.18551 0.0
C14 C 0.94224 0.07492 0.07617 0.0
O15 O 0.9117 0.04194 0.04355 0.0
Cd16 Cd 0.79673 0.05568 0.01397 0.0
O17 O 0.90812 0.1131 0.10043 0.0
Cd18 Cd 0.77779 0.12942 0.0968 0.0
C19 C 0.7233 0.00168 0.11976 0.0
O20 O 0.78838 0.15413 7e-05 0.0
O21 O 0.69065 0.11719 0.01993 0.0
O22 O 0.80187 0.21178 0.15236 0.0
C23 C 0.73007 0.13731 -0.01714 0.0
O24 O 0.70898 0.0061 0.06877 0.0
C25 C 0.73972 0.2177 0.16903 0.0
O26 O 0.75923 0.03946 0.14236 0.0
O27 O 0.69488 0.18365 0.15129 0.0
C28 C 0.94538 0.86007 0.08265 0.0
O29 O 0.91572 0.89516 0.05179 0.0
Cd30 Cd 0.79921 0.92175 0.06235 0.0
O31 O 0.91019 0.8324 0.11784 0.0
Cd32 Cd 0.77951 0.83373 0.13366 0.0
C33 C 0.72884 0.81458 0.00378 0.0
O34 O 0.7847 0.92989 0.16094 0.0
O35 O 0.68944 0.90784 0.12111 0.0
O36 O 0.80343 0.77763 0.21596 0.0
C37 C 0.72629 0.94558 0.14279 0.0
O38 O 0.71723 0.86595 0.00786 0.0
C39 C 0.74177 0.75947 0.22044 0.0
O40 O 0.76224 0.79053 0.04221 0.0
O41 O 0.69744 0.77641 0.18551 0.0
C42 C 0.02092 0.8535 0.07617 0.0
O43 O 0.05146 0.88646 0.04353 0.0
Cd44 Cd 0.16642 0.87274 0.01393 0.0
O45 O 0.05505 0.81532 0.10043 0.0
Cd46 Cd 0.18538 0.79898 0.09681 0.0
C47 C 0.23989 0.9267 0.11975 0.0
O48 O 0.17478 0.77428 7e-05 0.0
O49 O 0.27252 0.81122 0.01993 0.0
O50 O 0.16129 0.71663 0.15236 0.0
C51 C 0.2331 0.7911 -0.01713 0.0
O52 O 0.25416 0.92233 0.06874 0.0
C53 C 0.22344 0.71069 0.16902 0.0
O54 O 0.20398 0.88893 0.14238 0.0
O55 O 0.26828 0.74474 0.15128 0.0
C56 C 0.01778 0.86007 0.848 0.0
O57 O 0.04743 0.89517 0.87886 0.0
Cd58 Cd 0.16394 0.92178 0.86832 0.0
O59 O 0.05297 0.8324 0.81281 0.0
Cd60 Cd 0.18365 0.83372 0.79699 0.0
C61 C 0.23435 0.81458 0.92684 0.0
O62 O 0.17848 0.92989 0.76974 0.0
O63 O 0.2737 0.90783 0.80952 0.0
O64 O 0.15973 0.77762 0.71468 0.0
C65 C 0.23689 0.94561 0.78785 0.0
O66 O 0.24592 0.86596 0.92281 0.0
C67 C 0.22139 0.75947 0.7102 0.0
O68 O 0.20096 0.79051 0.88842 0.0
O69 O 0.26572 0.77641 0.74512 0.0
C70 C 0.02093 0.07491 0.85448 0.0
O71 O 0.05148 0.04195 0.88711 0.0
Cd72 Cd 0.16644 0.05569 0.91671 0.0
O73 O 0.05505 0.11309 0.83021 0.0
Cd74 Cd 0.18538 0.12943 0.83384 0.0
C75 C 0.23989 0.0017 0.81089 0.0
O76 O 0.17477 0.15416 0.93056 0.0
O77 O 0.27254 0.11717 0.91071 0.0
O78 O 0.16128 0.21177 0.77826 0.0
C79 C 0.23308 0.1373 0.94774 0.0
O80 O 0.25417 0.00608 0.8619 0.0
C81 C 0.22344 0.21771 0.76161 0.0
O82 O 0.20397 0.03947 0.78827 0.0
O83 O 0.26828 0.18367 0.77936 0.0
C84 C 0.94539 0.06833 0.848 0.0
O85 O 0.91574 0.03323 0.87885 0.0
Cd86 Cd 0.79924 0.00662 0.86832 0.0
O87 O 0.91019 0.096 0.81281 0.0
Cd88 Cd 0.77951 0.09468 0.79699 0.0
C89 C 0.72881 0.11383 0.92684 0.0
O90 O 0.78468 -0.00149 0.76974 0.0
O91 O 0.68946 0.02057 0.80953 0.0
O92 O 0.80343 0.15077 0.71468 0.0
C93 C 0.72628 -0.01721 0.78786 0.0
O94 O 0.71727 0.06244 0.92281 0.0
C95 C 0.74177 0.16893 0.71019 0.0
O96 O 0.7622 0.1379 0.88842 0.0
O97 O 0.69744 0.15199 0.74511 0.0
C98 C 0.94224 0.85349 0.85448 0.0
O99 O 0.9117 0.88646 0.88712 0.0
Cd100 Cd 0.79673 0.87273 0.91672 0.0
O101 O 0.90812 0.81532 0.83022 0.0
Cd102 Cd 0.77779 0.79898 0.83385 0.0
C103 C 0.72328 0.9267 0.8109 0.0
O104 O 0.78841 0.77426 0.93057 0.0
O105 O 0.69063 0.81124 0.91071 0.0
O106 O 0.80188 0.71663 0.77827 0.0
C107 C 0.73009 0.79111 0.94775 0.0
O108 O 0.709 0.92232 0.86191 0.0
C109 C 0.73973 0.7107 0.76161 0.0
O110 O 0.75919 0.88893 0.78828 0.0
O111 O 0.69488 0.74474 0.77937 0.0
C112 C 0.51779 0.56834 0.58264 0.0
O113 O 0.54744 0.53326 0.55178 0.0
Cd114 Cd 0.66395 0.50666 0.56233 0.0
O115 O 0.55298 0.59601 0.61784 0.0
Cd116 Cd 0.68366 0.59468 0.63365 0.0
C117 C 0.73434 0.61384 0.50378 0.0
O118 O 0.67849 0.49852 0.66091 0.0
O119 O 0.77371 0.52057 0.62113 0.0
O120 O 0.65974 0.65077 0.71596 0.0
C121 C 0.7369 0.48279 0.64279 0.0
O122 O 0.74595 0.56246 0.50785 0.0
C123 C 0.7214 0.66894 0.72044 0.0
O124 O 0.70093 0.63789 0.5422 0.0
O125 O 0.76573 0.65201 0.68551 0.0
C126 C 0.44224 0.57492 0.57617 0.0
O127 O 0.4117 0.54194 0.54355 0.0
Cd128 Cd 0.29673 0.55568 0.51396 0.0
O129 O 0.40812 0.6131 0.60043 0.0
Cd130 Cd 0.27779 0.62942 0.5968 0.0
C131 C 0.2233 0.50168 0.61976 0.0
O132 O 0.28838 0.65413 0.50007 0.0
O133 O 0.19065 0.6172 0.51992 0.0
O134 O 0.30187 0.71178 0.65236 0.0
C135 C 0.23007 0.63732 0.48286 0.0
O136 O 0.20898 0.5061 0.56876 0.0
C137 C 0.23972 0.7177 0.66903 0.0
O138 O 0.25923 0.53946 0.64236 0.0
O139 O 0.19488 0.68365 0.65129 0.0
C140 C 0.44538 0.36007 0.58265 0.0
O141 O 0.41572 0.39516 0.55179 0.0
Cd142 Cd 0.29921 0.42175 0.56235 0.0
O143 O 0.41019 0.33241 0.61784 0.0
Cd144 Cd 0.2795 0.33373 0.63366 0.0
C145 C 0.22884 0.31458 0.50378 0.0
O146 O 0.2847 0.42989 0.66094 0.0
O147 O 0.18944 0.40784 0.62111 0.0
O148 O 0.30343 0.27763 0.71596 0.0
C149 C 0.22629 0.44558 0.64279 0.0
O150 O 0.21722 0.36595 0.50786 0.0
C151 C 0.24177 0.25946 0.72043 0.0
O152 O 0.26224 0.29053 0.54221 0.0
O153 O 0.19744 0.27641 0.68551 0.0
C154 C 0.52092 0.3535 0.57617 0.0
O155 O 0.55146 0.38646 0.54353 0.0
Cd156 Cd 0.66642 0.37274 0.51393 0.0
O157 O 0.55504 0.31532 0.60043 0.0
Cd158 Cd 0.68538 0.29898 0.59681 0.0
C159 C 0.73989 0.4267 0.61975 0.0
O160 O 0.67478 0.27428 0.50007 0.0
O161 O 0.77251 0.31121 0.51993 0.0
O162 O 0.66128 0.21663 0.65236 0.0
C163 C 0.7331 0.2911 0.48287 0.0
O164 O 0.75416 0.42233 0.56874 0.0
C165 C 0.72343 0.21069 0.66903 0.0
O166 O 0.70398 0.38893 0.64238 0.0
O167 O 0.76828 0.24474 0.65128 0.0
C168 C 0.51778 0.36008 0.348 0.0
O169 O 0.54743 0.39517 0.37886 0.0
Cd170 Cd 0.66394 0.42178 0.36832 0.0
O171 O 0.55298 0.3324 0.31282 0.0
Cd172 Cd 0.68365 0.33372 0.29699 0.0
C173 C 0.73436 0.31458 0.42684 0.0
O174 O 0.67848 0.42989 0.26974 0.0
O175 O 0.7737 0.40783 0.30952 0.0
O176 O 0.65972 0.27762 0.21468 0.0
C177 C 0.73689 0.44561 0.28786 0.0
O178 O 0.74592 0.36596 0.42281 0.0
C179 C 0.72139 0.25946 0.2102 0.0
O180 O 0.70096 0.29051 0.38842 0.0
O181 O 0.76572 0.27641 0.24512 0.0
C182 C 0.52094 0.57491 0.35448 0.0
O183 O 0.55148 0.54195 0.38711 0.0
Cd184 Cd 0.66644 0.55569 0.41671 0.0
O185 O 0.55505 0.61308 0.33021 0.0
Cd186 Cd 0.68538 0.62943 0.33384 0.0
C187 C 0.73989 0.5017 0.3109 0.0
O188 O 0.67477 0.65416 0.43056 0.0
O189 O 0.77254 0.61717 0.41071 0.0
O190 O 0.66128 0.71177 0.27827 0.0
C191 C 0.73308 0.6373 0.44774 0.0
O192 O 0.75417 0.50608 0.3619 0.0
C193 C 0.72343 0.7177 0.2616 0.0
O194 O 0.70397 0.53947 0.28827 0.0
O195 O 0.76828 0.68367 0.27936 0.0
C196 C 0.44539 0.56833 0.348 0.0
O197 O 0.41574 0.53323 0.37885 0.0
Cd198 Cd 0.29924 0.50662 0.36832 0.0
O199 O 0.41019 0.596 0.31281 0.0
Cd200 Cd 0.27951 0.59468 0.29698 0.0
C201 C 0.22881 0.61383 0.42683 0.0
O202 O 0.28468 0.49851 0.26974 0.0
O203 O 0.18947 0.52057 0.30952 0.0
O204 O 0.30344 0.65077 0.21468 0.0
C205 C 0.22628 0.48279 0.28786 0.0
O206 O 0.21727 0.56244 0.42281 0.0
C207 C 0.24177 0.66893 0.21019 0.0
O208 O 0.2622 0.6379 0.38842 0.0
O209 O 0.19744 0.65199 0.24511 0.0
C210 C 0.44224 0.35349 0.35449 0.0
O211 O 0.4117 0.38646 0.38712 0.0
Cd212 Cd 0.29673 0.37273 0.41672 0.0
O213 O 0.40812 0.31532 0.33022 0.0
Cd214 Cd 0.27779 0.29898 0.33385 0.0
C215 C 0.22328 0.4267 0.3109 0.0
O216 O 0.28841 0.27426 0.43057 0.0
O217 O 0.19063 0.31124 0.41071 0.0
O218 O 0.30189 0.21664 0.27827 0.0
C219 C 0.23009 0.29111 0.44774 0.0
O220 O 0.20901 0.42233 0.36191 0.0
C221 C 0.23974 0.2107 0.26161 0.0
O222 O 0.25919 0.38893 0.28827 0.0
O223 O 0.19489 0.24474 0.27937 0.0
loop_
_geom_bond_atom_site_label_1
_geom_bond_atom_site_label_2
_geom_bond_distance
_geom_bond_site_symmetry_2
_ccdc_geom_bond_type
C0 O1 1.306 . S
C0 O3 1.160 . S
O1 C0 1.306 . S
O1 Cd2 2.228 . S
Cd2 O1 2.228 . S
Cd2 O6 2.273 . S
Cd2 O10 2.277 . S
O3 C0 1.160 . S
O3 Cd4 2.203 . S
Cd4 O3 2.203 . S
Cd4 O6 2.411 . S
Cd4 O7 2.333 . S
Cd4 O8 2.352 . S
Cd4 O12 2.277 . S
Cd4 O13 2.356 . S
C5 O10 1.209 . S
C5 O12 1.226 . S
O6 Cd2 2.273 . S
O6 Cd4 2.411 . S
O6 C9 1.320 . S
O7 Cd4 2.333 . S
O7 C9 1.214 . S
O8 Cd4 2.352 . S
O8 C11 1.258 . S
C9 O6 1.320 . S
C9 O7 1.214 . S
O10 Cd2 2.277 . S
O10 C5 1.209 . S
C11 O8 1.258 . S
C11 O13 1.282 . S
O12 Cd4 2.277 . S
O12 C5 1.226 . S
O13 Cd4 2.356 . S
O13 C11 1.282 . S
C14 O15 1.306 . S
C14 O17 1.160 . S
O15 C14 1.306 . S
O15 Cd16 2.228 . S
Cd16 O15 2.228 . S
Cd16 O20 2.273 . S
Cd16 O24 2.277 . S
O17 C14 1.160 . S
O17 Cd18 2.203 . S
Cd18 O17 2.203 . S
Cd18 O20 2.411 . S
Cd18 O21 2.333 . S
Cd18 O22 2.352 . S
Cd18 O26 2.277 . S
Cd18 O27 2.356 . S
C19 O24 1.209 . S
C19 O26 1.226 . S
O20 Cd16 2.273 . S
O20 Cd18 2.411 . S
O20 C23 1.320 . S
O21 Cd18 2.333 . S
O21 C23 1.214 . S
O22 Cd18 2.352 . S
O22 C25 1.258 . S
C23 O20 1.320 . S
C23 O21 1.214 . S
O24 Cd16 2.277 . S
O24 C19 1.209 . S
C25 O22 1.258 . S
C25 O27 1.282 . S
O26 Cd18 2.277 . S
O26 C19 1.226 . S
O27 Cd18 2.356 . S
O27 C25 1.282 . S
C28 O29 1.306 . S
C28 O31 1.160 . S
O29 C28 1.306 . S
O29 Cd30 2.228 . S
Cd30 O29 2.228 . S
Cd30 O34 2.273 . S
Cd30 O38 2.277 . S
O31 C28 1.160 . S
O31 Cd32 2.203 . S
Cd32 O31 2.203 . S
Cd32 O34 2.411 . S
Cd32 O35 2.333 . S
Cd32 O36 2.352 . S
Cd32 O40 2.277 . S
Cd32 O41 2.356 . S
C33 O38 1.209 . S
C33 O40 1.226 . S
O34 Cd30 2.273 . S
O34 Cd32 2.411 . S
O34 C37 1.320 . S
O35 Cd32 2.333 . S
O35 C37 1.214 . S
O36 Cd32 2.352 . S
O36 C39 1.258 . S
C37 O34 1.320 . S
C37 O35 1.214 . S
O38 Cd30 2.277 . S
O38 C33 1.209 . S
C39 O36 1.258 . S
C39 O41 1.282 . S
O40 Cd32 2.277 . S
O40 C33 1.226 . S
O41 Cd32 2.356 . S
O41 C39 1.282 . S
C42 O43 1.306 . S
C42 O45 1.160 . S
O43 C42 1.306 . S
O43 Cd44 2.228 . S
Cd44 O43 2.228 . S
Cd44 O48 2.273 . S
Cd44 O52 2.277 . S
O45 C42 1.160 . S
O45 Cd46 2.203 . S
Cd46 O45 2.203 . S
Cd46 O48 2.411 . S
Cd46 O49 2.333 . S
Cd46 O50 2.352 . S
Cd46 O54 2.277 . S
Cd46 O55 2.356 . S
C47 O52 1.209 . S
C47 O54 1.226 . S
O48 Cd44 2.273 . S
O48 Cd46 2.411 . S
O48 C51 1.320 . S
O49 Cd46 2.333 . S
O49 C51 1.214 . S
O50 Cd46 2.352 . S
O50 C53 1.258 . S
C51 O48 1.320 . S
C51 O49 1.214 . S
O52 Cd44 2.277 . S
O52 C47 1.209 . S
C53 O50 1.258 . S
C53 O55 1.282 . S
O54 Cd46 2.277 . S
O54 C47 1.226 . S
O55 Cd46 2.356 . S
O55 C53 1.282 . S
C56 O57 1.306 . S
C56 O59 1.160 . S
O57 C56 1.306 . S
O57 Cd58 2.228 . S
Cd58 O57 2.228 . S
Cd58 O62 2.273 . S
Cd58 O66 2.277 . S
O59 C56 1.160 . S
O59 Cd60 2.203 . S
Cd60 O59 2.203 . S
Cd60 O62 2.411 . S
Cd60 O63 2.333 . S
Cd60 O64 2.352 . S
Cd60 O68 2.277 . S
Cd60 O69 2.356 . S
C61 O66 1.209 . S
C61 O68 1.226 . S
O62 Cd58 2.273 . S
O62 Cd60 2.411 . S
O62 C65 1.320 . S
O63 Cd60 2.333 . S
O63 C65 1.214 . S
O64 Cd60 2.352 . S
O64 C67 1.258 . S
C65 O62 1.320 . S
C65 O63 1.214 . S
O66 Cd58 2.277 . S
O66 C61 1.209 . S
C67 O64 1.258 . S
C67 O69 1.282 . S
O68 Cd60 2.277 . S
O68 C61 1.226 . S
O69 Cd60 2.356 . S
O69 C67 1.282 . S
C70 O71 1.306 . S
C70 O73 1.160 . S
O71 C70 1.306 . S
O71 Cd72 2.228 . S
Cd72 O71 2.228 . S
Cd72 O76 2.273 . S
Cd72 O80 2.277 . S
O73 C70 1.160 . S
O73 Cd74 2.203 . S
Cd74 O73 2.203 . S
Cd74 O76 2.411 . S
Cd74 O77 2.333 . S
Cd74 O78 2.352 . S
Cd74 O82 2.277 . S
Cd74 O83 2.356 . S
C75 O80 1.209 . S
C75 O82 1.226 . S
O76 Cd72 2.273 . S
O76 Cd74 2.411 . S
O76 C79 1.320 . S
O77 Cd74 2.333 . S
O77 C79 1.214 . S
O78 Cd74 2.352 . S
O78 C81 1.258 . S
C79 O76 1.320 . S
C79 O77 1.214 . S
O80 Cd72 2.277 . S
O80 C75 1.209 . S
C81 O78 1.258 . S
C81 O83 1.282 . S
O82 Cd74 2.277 . S
O82 C75 1.226 . S
O83 Cd74 2.356 . S
O83 C81 1.282 . S
C84 O85 1.306 . S
C84 O87 1.160 . S
O85 C84 1.306 . S
O85 Cd86 2.228 . S
Cd86 O85 2.228 . S
Cd86 O90 2.273 . S
Cd86 O94 2.277 . S
O87 C84 1.160 . S
O87 Cd88 2.203 . S
Cd88 O87 2.203 . S
Cd88 O90 2.411 . S
Cd88 O91 2.333 . S
Cd88 O92 2.352 . S
Cd88 O96 2.277 . S
Cd88 O97 2.356 . S
C89 O94 1.209 . S
C89 O96 1.226 . S
O90 Cd86 2.273 . S
O90 Cd88 2.411 . S
O90 C93 1.320 . S
O91 Cd88 2.333 . S
O91 C93 1.214 . S
O92 Cd88 2.352 . S
O92 C95 1.258 . S
C93 O90 1.320 . S
C93 O91 1.214 . S
O94 Cd86 2.277 . S
O94 C89 1.209 . S
C95 O92 1.258 . S
C95 O97 1.282 . S
O96 Cd88 2.277 . S
O96 C89 1.226 . S
O97 Cd88 2.356 . S
O97 C95 1.282 . S
C98 O99 1.306 . S
C98 O101 1.160 . S
O99 C98 1.306 . S
O99 Cd100 2.228 . S
Cd100 O99 2.228 . S
Cd100 O104 2.273 . S
Cd100 O108 2.277 . S
O101 C98 1.160 . S
O101 Cd102 2.203 . S
Cd102 O101 2.203 . S
Cd102 O104 2.411 . S
Cd102 O105 2.333 . S
Cd102 O106 2.352 . S
Cd102 O110 2.277 . S
Cd102 O111 2.356 . S
C103 O108 1.209 . S
C103 O110 1.226 . S
O104 Cd100 2.273 . S
O104 Cd102 2.411 . S
O104 C107 1.320 . S
O105 Cd102 2.333 . S
O105 C107 1.214 . S
O106 Cd102 2.352 . S
O106 C109 1.258 . S
C107 O104 1.320 . S
C107 O105 1.214 . S
O108 Cd100 2.277 . S
O108 C103 1.209 . S
C109 O106 1.258 . S
C109 O111 1.282 . S
O110 Cd102 2.277 . S
O110 C103 1.226 . S
O111 Cd102 2.356 . S
O111 C109 1.282 . S
C112 O113 1.306 . S
C112 O115 1.160 . S
O113 C112 1.306 . S
O113 Cd114 2.228 . S
Cd114 O113 2.228 . S
Cd114 O118 2.273 . S
Cd114 O122 2.277 . S
O115 C112 1.160 . S
O115 Cd116 2.203 . S
Cd116 O115 2.203 . S
Cd116 O118 2.411 . S
Cd116 O119 2.333 . S
Cd116 O120 2.352 . S
Cd116 O124 2.277 . S
Cd116 O125 2.356 . S
C117 O122 1.209 . S
C117 O124 1.226 . S
O118 Cd114 2.273 . S
O118 Cd116 2.411 . S
O118 C121 1.320 . S
O119 Cd116 2.333 . S
O119 C121 1.214 . S
O120 Cd116 2.352 . S
O120 C123 1.258 . S
C121 O118 1.320 . S
C121 O119 1.214 . S
O122 Cd114 2.277 . S
O122 C117 1.209 . S
C123 O120 1.258 . S
C123 O125 1.282 . S
O124 Cd116 2.277 . S
O124 C117 1.226 . S
O125 Cd116 2.356 . S
O125 C123 1.282 . S
C126 O127 1.306 . S
C126 O129 1.160 . S
O127 C126 1.306 . S
O127 Cd128 2.228 . S
Cd128 O127 2.228 . S
Cd128 O132 2.273 . S
Cd128 O136 2.277 . S
O129 C126 1.160 . S
O129 Cd130 2.203 . S
Cd130 O129 2.203 . S
Cd130 O132 2.411 . S
Cd130 O133 2.333 . S
Cd130 O134 2.352 . S
Cd130 O138 2.277 . S
Cd130 O139 2.356 . S
C131 O136 1.209 . S
C131 O138 1.226 . S
O132 Cd128 2.273 . S
O132 Cd130 2.411 . S
O132 C135 1.320 . S
O133 Cd130 2.333 . S
O133 C135 1.214 . S
O134 Cd130 2.352 . S
O134 C137 1.258 . S
C135 O132 1.320 . S
C135 O133 1.214 . S
O136 Cd128 2.277 . S
O136 C131 1.209 . S
C137 O134 1.258 . S
C137 O139 1.282 . S
O138 Cd130 2.277 . S
O138 C131 1.226 . S
O139 Cd130 2.356 . S
O139 C137 1.282 . S
C140 O141 1.306 . S
C140 O143 1.160 . S
O141 C140 1.306 . S
O141 Cd142 2.228 . S
Cd142 O141 2.228 . S
Cd142 O146 2.273 . S
Cd142 O150 2.277 . S
O143 C140 1.160 . S
O143 Cd144 2.203 . S
Cd144 O143 2.203 . S
Cd144 O146 2.411 . S
Cd144 O147 2.333 . S
Cd144 O148 2.352 . S
Cd144 O152 2.277 . S
Cd144 O153 2.356 . S
C145 O150 1.209 . S
C145 O152 1.226 . S
O146 Cd142 2.273 . S
O146 Cd144 2.411 . S
O146 C149 1.320 . S
O147 Cd144 2.333 . S
O147 C149 1.214 . S
O148 Cd144 2.352 . S
O148 C151 1.258 . S
C149 O146 1.320 . S
C149 O147 1.214 . S
O150 Cd142 2.277 . S
O150 C145 1.209 . S
C151 O148 1.258 . S
C151 O153 1.282 . S
O152 Cd144 2.277 . S
O152 C145 1.226 . S
O153 Cd144 2.356 . S
O153 C151 1.282 . S
C154 O155 1.306 . S
C154 O157 1.160 . S
O155 C154 1.306 . S
O155 Cd156 2.228 . S
Cd156 O155 2.228 . S
Cd156 O160 2.273 . S
Cd156 O164 2.277 . S
O157 C154 1.160 . S
O157 Cd158 2.203 . S
Cd158 O157 2.203 . S
Cd158 O160 2.411 . S
Cd158 O161 2.333 . S
Cd158 O162 2.352 . S
Cd158 O166 2.277 . S
Cd158 O167 2.356 . S
C159 O164 1.209 . S
C159 O166 1.226 . S
O160 Cd156 2.273 . S
O160 Cd158 2.411 . S
O160 C163 1.320 . S
O161 Cd158 2.333 . S
O161 C163 1.214 . S
O162 Cd158 2.352 . S
O162 C165 1.258 . S
C163 O160 1.320 . S
C163 O161 1.214 . S
O164 Cd156 2.277 . S
O164 C159 1.209 . S
C165 O162 1.258 . S
C165 O167 1.282 . S
O166 Cd158 2.277 . S
O166 C159 1.226 . S
O167 Cd158 2.356 . S
O167 C165 1.282 . S
C168 O169 1.306 . S
C168 O171 1.160 . S
O169 C168 1.306 . S
O169 Cd170 2.228 . S
Cd170 O169 2.228 . S
Cd170 O174 2.273 . S
Cd170 O178 2.277 . S
O171 C168 1.160 . S
O171 Cd172 2.203 . S
Cd172 O171 2.203 . S
Cd172 O174 2.411 . S
Cd172 O175 2.333 . S
Cd172 O176 2.352 . S
Cd172 O180 2.277 . S
Cd172 O181 2.356 . S
C173 O178 1.209 . S
C173 O180 1.226 . S
O174 Cd170 2.273 . S
O174 Cd172 2.411 . S
O174 C177 1.320 . S
O175 Cd172 2.333 . S
O175 C177 1.214 . S
O176 Cd172 2.352 . S
O176 C179 1.258 . S
C177 O174 1.320 . S
C177 O175 1.214 . S
O178 Cd170 2.277 . S
O178 C173 1.209 . S
C179 O176 1.258 . S
C179 O181 1.282 . S
O180 Cd172 2.277 . S
O180 C173 1.226 . S
O181 Cd172 2.356 . S
O181 C179 1.282 . S
C182 O183 1.306 . S
C182 O185 1.160 . S
O183 C182 1.306 . S
O183 Cd184 2.228 . S
Cd184 O183 2.228 . S
Cd184 O188 2.273 . S
Cd184 O192 2.277 . S
O185 C182 1.160 . S
O185 Cd186 2.203 . S
Cd186 O185 2.203 . S
Cd186 O188 2.411 . S
Cd186 O189 2.333 . S
Cd186 O190 2.352 . S
Cd186 O194 2.277 . S
Cd186 O195 2.356 . S
C187 O192 1.209 . S
C187 O194 1.226 . S
O188 Cd184 2.273 . S
O188 Cd186 2.411 . S
O188 C191 1.320 . S
O189 Cd186 2.333 . S
O189 C191 1.214 . S
O190 Cd186 2.352 . S
O190 C193 1.258 . S
C191 O188 1.320 . S
C191 O189 1.214 . S
O192 Cd184 2.277 . S
O192 C187 1.209 . S
C193 O190 1.258 . S
C193 O195 1.282 . S
O194 Cd186 2.277 . S
O194 C187 1.226 . S
O195 Cd186 2.356 . S
O195 C193 1.282 . S
C196 O197 1.306 . S
C196 O199 1.160 . S
O197 C196 1.306 . S
O197 Cd198 2.228 . S
Cd198 O197 2.228 . S
Cd198 O202 2.273 . S
Cd198 O206 2.277 . S
O199 C196 1.160 . S
O199 Cd200 2.203 . S
Cd200 O199 2.203 . S
Cd200 O202 2.411 . S
Cd200 O203 2.333 . S
Cd200 O204 2.352 . S
Cd200 O208 2.277 . S
Cd200 O209 2.356 . S
C201 O206 1.209 . S
C201 O208 1.226 . S
O202 Cd198 2.273 . S
O202 Cd200 2.411 . S
O202 C205 1.320 . S
O203 Cd200 2.333 . S
O203 C205 1.214 . S
O204 Cd200 2.352 . S
O204 C207 1.258 . S
C205 O202 1.320 . S
C205 O203 1.214 . S
O206 Cd198 2.277 . S
O206 C201 1.209 . S
C207 O204 1.258 . S
C207 O209 1.282 . S
O208 Cd200 2.277 . S
O208 C201 1.226 . S
O209 Cd200 2.356 . S
O209 C207 1.282 . S
C210 O211 1.306 . S
C210 O213 1.160 . S
O211 C210 1.306 . S
O211 Cd212 2.228 . S
Cd212 O211 2.228 . S
Cd212 O216 2.273 . S
Cd212 O220 2.277 . S
O213 C210 1.160 . S
O213 Cd214 2.203 . S
Cd214 O213 2.203 . S
Cd214 O216 2.411 . S
Cd214 O217 2.333 . S
Cd214 O218 2.352 . S
Cd214 O222 2.277 . S
Cd214 O223 2.356 . S
C215 O220 1.209 . S
C215 O222 1.226 . S
O216 Cd212 2.273 . S
O216 Cd214 2.411 . S
O216 C219 1.320 . S
O217 Cd214 2.333 . S
O217 C219 1.214 . S
O218 Cd214 2.352 . S
O218 C221 1.258 . S
C219 O216 1.320 . S
C219 O217 1.214 . S
O220 Cd212 2.277 . S
O220 C215 1.209 . S
C221 O218 1.258 . S
C221 O223 1.282 . S
O222 Cd214 2.277 . S
O222 C215 1.226 . S
O223 Cd214 2.356 . S
O223 C221 1.282 . S
C221 C11 1.340 . S
C179 C25 1.340 . S
C39 C193 1.340 . S
C207 C53 1.340 . S
C137 C67 1.340 . S
C81 C151 1.340 . S
C95 C165 1.340 . S
C109 C123 1.340 . S
C79 C5 1.836 1_556 S
C89 C23 1.836 1_556 S
C107 C33 1.836 1_556 S
C51 C61 1.836 1_554 S
C0 C14 1.679 1_455 S
C37 C19 1.836 1_565 S
C28 C42 1.679 1_655 S
C9 C47 1.836 1_545 S
C98 C56 1.679 1_655 S
C65 C75 1.836 1_565 S
C70 C84 1.679 1_455 S
C103 C93 1.836 1_565 S
C191 C117 1.836 . S
C135 C201 1.836 . S
C219 C145 1.836 . S
C173 C163 1.836 . S
C112 C126 1.679 . S
C131 C149 1.836 . S
C154 C140 1.679 . S
C121 C159 1.836 . S
C210 C168 1.679 . S
C177 C187 1.836 . S
C182 C196 1.679 . S
C215 C205 1.836 . S
