# Generated by pormake.
# Topology pcu, (6)-cn, num edge types: 1
# Building blocks:
#     Node 0, Type 0, BuildingBlock: MIDCAF_clean_sbu_0, # of connection points: 6
#     Edge 1, Type (0, 0), BuildingBlock: OJICUG_clean_linker_0, # of connection points: 2
#     Edge 2, Type (0, 0), BuildingBlock: OJICUG_clean_linker_0, # of connection points: 2
#     Edge 3, Type (0, 0), BuildingBlock: OJICUG_clean_linker_0, # of connection points: 2
# Relax obj value: 0.148
# Max RMSD: 0.201
# Mean RMSD: 0.201
data_MOF--net-pcu--node1-MIDCAF_clean_sbu_0--edge1-OJICUG_clean_linker_0
_symmetry_space_group_name_H-M    P1
_symmetry_Int_Tables_number       1
_symmetry_cell_setting            triclinic
loop_
_symmetry_equiv_pos_as_xyz
'x, y, z'
_cell_length_a     11.444834
_cell_length_b     11.396563
_cell_length_c     11.337799
_cell_angle_alpha  107.16419
_cell_angle_beta   107.54134
_cell_angle_gamma 100.16658
loop_
_atom_site_label
_atom_site_type_symbol
_atom_site_fract_x
_atom_site_fract_y
_atom_site_fract_z
_atom_type_partial_charge
Zn0 Zn 0.84729 0.85254 0.85704 0.0
Zn1 Zn 0.19712 0.2215 0.25945 0.0
Zn2 Zn 0.01872 1.02117 0.07392 0.0
C3 C 0.30517 0.13878 0.08021 0.0
C4 C 0.15048 0.03585 0.36988 0.0
O5 O 0.83957 0.08098 1.02941 0.0
O6 O 0.70252 0.92306 0.8448 0.0
C7 C 0.03664 0.91349 0.77765 0.0
O8 O 0.19157 0.05833 1.02234 0.0
O9 O 0.33479 0.22809 0.19061 0.0
O10 O 0.21319 0.14908 0.39593 0.0
O11 O 0.07177 0.96461 0.25002 0.0
O12 O 0.9238 0.83983 0.7231 0.0
O13 O 0.08373 0.98203 0.90369 0.0
O14 O 0.97521 0.84994 0.1276 0.0
O15 O 0.8417 0.71608 0.92599 0.0
C16 C 0.90211 0.73644 1.04656 0.0
O17 O 0.94832 0.19271 0.10759 0.0
O18 O 0.11013 0.35526 0.26588 0.0
C19 C 0.72516 1.02623 0.93993 0.0
C20 C 0.99669 0.31315 0.18209 0.0
C21 C 0.12718 0.8745 0.47861 0.0
C22 C 0.15206 1.00139 0.48569 0.0
H23 H 0.06593 0.74406 0.56669 0.0
C24 C 0.16932 0.09966 0.60472 0.0
H25 H 0.12718 0.7998 0.3939 0.0
C26 C 0.14502 0.0701 0.70699 0.0
C27 C 0.1006 0.94186 0.69093 0.0
H28 H 0.19251 0.19959 0.6155 0.0
H29 H 0.14928 0.1473 0.79286 0.0
C30 C 0.09689 0.84383 0.57887 0.0
C31 C 0.52793 0.21213 0.08936 0.0
C32 C 0.40642 0.12068 1.02676 0.0
H33 H 0.72468 0.2525 0.11526 0.0
C34 C 0.38913 1.00535 0.92565 0.0
H35 H 0.54537 0.30175 0.169 0.0
C36 C 0.49087 0.98102 0.88923 0.0
C37 C 0.61458 0.06836 0.95836 0.0
H38 H 0.29979 0.92971 0.88045 0.0
H39 H 0.4741 0.88869 0.81385 0.0
C40 C 0.6313 0.18495 1.05742 0.0
C41 C 0.9161 0.62396 0.20949 0.0
C42 C 0.9003 0.62138 0.08145 0.0
H43 H 0.964 0.52661 0.34578 0.0
C44 C 0.88569 0.50505 0.98192 0.0
H45 H 0.91363 0.70782 0.28325 0.0
C46 C 0.90212 0.39869 1.01346 0.0
C47 C 0.9371 0.40764 0.14571 0.0
H48 H 0.8692 0.49802 0.88049 0.0
H49 H 0.89955 0.31371 0.93653 0.0
C50 C 0.93959 0.51914 0.24329 0.0
loop_
_geom_bond_atom_site_label_1
_geom_bond_atom_site_label_2
_geom_bond_distance
_geom_bond_site_symmetry_2
_ccdc_geom_bond_type
Zn0 O6 1.920 . S
Zn0 O12 1.898 . S
Zn0 O15 1.905 . S
Zn1 O9 1.905 . S
Zn1 O10 1.898 . S
Zn1 O18 1.920 . S
Zn2 O5 2.075 1_455 S
Zn2 O8 2.120 . S
Zn2 O11 2.119 1_465 S
Zn2 O13 2.120 1_464 S
Zn2 O14 2.118 1_554 S
Zn2 O17 2.077 1_564 S
C3 O8 1.166 1_545 S
C3 O9 1.182 . S
C4 O10 1.167 . S
C4 O11 1.299 1_455 S
O5 Zn2 2.075 1_655 S
O5 C19 1.305 1_554 S
O6 Zn0 1.920 . S
O6 C19 1.234 . S
C7 O12 1.167 . S
C7 O13 1.299 1_565 S
O8 Zn2 2.120 . S
O8 C3 1.166 1_565 S
O9 Zn1 1.905 . S
O9 C3 1.182 . S
O10 Zn1 1.898 . S
O10 C4 1.167 . S
O11 Zn2 2.119 1_645 S
O11 C4 1.299 1_655 S
O12 Zn0 1.898 . S
O12 C7 1.167 . S
O13 Zn2 2.120 1_646 S
O13 C7 1.299 1_545 S
O14 Zn2 2.118 1_556 S
O14 C16 1.166 1_455 S
O15 Zn0 1.905 . S
O15 C16 1.182 . S
C16 O14 1.166 1_655 S
C16 O15 1.182 . S
O17 Zn2 2.077 1_546 S
O17 C20 1.305 1_556 S
O18 Zn1 1.920 . S
O18 C20 1.234 . S
C19 O5 1.305 1_556 S
C19 O6 1.234 . S
C20 O17 1.305 1_554 S
C20 O18 1.234 . S
C21 C22 1.387 . S
C21 H25 0.950 . S
C21 C30 1.390 . S
C22 C21 1.387 . S
C22 C24 1.387 1_565 S
H23 C30 0.950 . S
C24 C22 1.387 1_545 S
C24 C26 1.390 . S
C24 H28 0.950 1_455 S
H25 C21 0.950 . S
C26 C24 1.390 . S
C26 C27 1.387 1_545 S
C26 H29 0.950 1_455 S
C27 C26 1.387 1_565 S
C27 C30 1.387 . S
H28 C24 0.950 1_655 S
H29 C26 0.950 1_655 S
C30 C21 1.390 . S
C30 H23 0.950 . S
C30 C27 1.387 . S
C31 C32 1.387 . S
C31 H35 0.950 . S
C31 C40 1.390 . S
C32 C31 1.387 . S
C32 C34 1.387 1_546 S
H33 C40 0.950 . S
C34 C32 1.387 1_564 S
C34 C36 1.390 . S
C34 H38 0.950 . S
H35 C31 0.950 . S
C36 C34 1.390 . S
C36 C37 1.387 1_564 S
C36 H39 0.950 . S
C37 C36 1.387 1_546 S
C37 C40 1.387 . S
H38 C34 0.950 . S
H39 C36 0.950 . S
C40 C31 1.390 . S
C40 H33 0.950 . S
C40 C37 1.387 . S
C41 C42 1.387 1_455 S
C41 H45 0.950 . S
C41 C50 1.390 . S
C42 C41 1.387 1_655 S
C42 C44 1.387 1_554 S
H43 C50 0.950 . S
C44 C42 1.387 1_556 S
C44 C46 1.390 . S
C44 H48 0.950 . S
H45 C41 0.950 . S
C46 C44 1.390 . S
C46 C47 1.387 1_556 S
C46 H49 0.950 . S
C47 C46 1.387 1_554 S
C47 C50 1.387 1_655 S
H48 C44 0.950 . S
H49 C46 0.950 . S
C50 C41 1.390 . S
C50 H43 0.950 . S
C50 C47 1.387 1_455 S
C22 C4 1.344 1_565 S
C27 C7 1.345 1_455 S
C32 C3 1.357 1_556 S
C37 C19 1.353 1_545 S
C42 C16 1.354 1_554 S
C47 C20 1.352 1_655 S
