# Generated by pormake.
# Topology qtz-x, (6)-cn, num edge types: 1
# Building blocks:
#     Node 0, Type 0, BuildingBlock: VOLQOD_clean_sbu_1, # of connection points: 6
#     Node 1, Type 0, BuildingBlock: VOLQOD_clean_sbu_1, # of connection points: 6
#     Node 2, Type 0, BuildingBlock: VOLQOD_clean_sbu_1, # of connection points: 6
#     Edge 3, Type (0, 0), BuildingBlock: XIVTED_clean_linker_0, # of connection points: 2
#     Edge 4, Type (0, 0), BuildingBlock: XIVTED_clean_linker_0, # of connection points: 2
#     Edge 5, Type (0, 0), BuildingBlock: XIVTED_clean_linker_0, # of connection points: 2
#     Edge 6, Type (0, 0), BuildingBlock: XIVTED_clean_linker_0, # of connection points: 2
#     Edge 7, Type (0, 0), BuildingBlock: XIVTED_clean_linker_0, # of connection points: 2
#     Edge 8, Type (0, 0), BuildingBlock: XIVTED_clean_linker_0, # of connection points: 2
#     Edge 9, Type (0, 0), BuildingBlock: XIVTED_clean_linker_0, # of connection points: 2
#     Edge 10, Type (0, 0), BuildingBlock: XIVTED_clean_linker_0, # of connection points: 2
#     Edge 11, Type (0, 0), BuildingBlock: XIVTED_clean_linker_0, # of connection points: 2
# Relax obj value: 0.238
# Max RMSD: 0.197
# Mean RMSD: 0.197
data_MOF--net-qtz-x--node1-VOLQOD_clean_sbu_1--edge1-XIVTED_clean_linker_0
_symmetry_space_group_name_H-M    P1
_symmetry_Int_Tables_number       1
_symmetry_cell_setting            triclinic
loop_
_symmetry_equiv_pos_as_xyz
'x, y, z'
_cell_length_a     17.505558
_cell_length_b     17.504057
_cell_length_c     37.944978
_cell_angle_alpha  89.670634
_cell_angle_beta   90.626384
_cell_angle_gamma 119.97845
loop_
_atom_site_label
_atom_site_type_symbol
_atom_site_fract_x
_atom_site_fract_y
_atom_site_fract_z
_atom_type_partial_charge
O0 O 0.08442 0.81949 0.14529 0.0
Zn1 Zn 0.11492 0.72294 0.13945 0.0
O2 O 0.01941 0.61046 0.15815 0.0
Zn3 Zn 0.97458 0.52203 0.12155 0.0
Zn4 Zn 0.92341 0.62621 0.17686 0.0
Zn5 Zn 0.06467 0.56519 0.19453 0.0
O6 O 0.99714 0.42099 0.12988 0.0
O7 O 0.0431 0.44242 0.1854 0.0
O8 O 0.13189 0.71419 0.08705 0.0
O9 O 0.02631 0.57694 0.07553 0.0
O10 O 0.84561 0.47098 0.11625 0.0
O11 O 0.80738 0.54883 0.15041 0.0
O12 O 0.90772 0.59867 0.22927 0.0
O13 O 0.23034 0.75975 0.16563 0.0
O14 O 0.0122 0.56505 0.24076 0.0
O15 O 0.19378 0.64358 0.20004 0.0
C16 C 0.01909 0.82199 0.15855 0.0
C17 C 0.02027 0.39597 0.15751 0.0
C18 C 0.78783 0.48791 0.12782 0.0
C19 C 0.08784 0.65167 0.06533 0.0
C20 C 0.95089 0.57837 0.25098 0.0
C21 C 0.25086 0.71859 0.18823 0.0
O22 O 0.95389 0.75339 0.17158 0.0
O23 O 0.75798 0.95098 0.48017 0.0
Zn24 Zn 0.63127 0.92149 0.47321 0.0
O25 O 0.61513 0.0181 0.49143 0.0
Zn26 Zn 0.56999 0.06411 0.45521 0.0
Zn27 Zn 0.72812 0.11485 0.50975 0.0
Zn28 Zn 0.52671 0.97218 0.52779 0.0
O29 O 0.4496 0.04757 0.46507 0.0
O30 O 0.42169 0.98763 0.51826 0.0
O31 O 0.60471 0.90664 0.42053 0.0
O32 O 0.56675 0.00824 0.40928 0.0
O33 O 0.64938 0.19241 0.44883 0.0
O34 O 0.76437 0.23051 0.48433 0.0
O35 O 0.72011 0.13127 0.56229 0.0
O36 O 0.55358 0.80478 0.49877 0.0
O37 O 0.58189 0.02798 0.57361 0.0
O38 O 0.47895 0.84437 0.53395 0.0
C39 C 0.8275 0.01903 0.49134 0.0
C40 C 0.39975 0.01735 0.49173 0.0
C41 C 0.72377 0.25014 0.46114 0.0
C42 C 0.58182 0.948 0.39897 0.0
C43 C 0.65727 0.08905 0.58385 0.0
C44 C 0.49451 0.78605 0.52193 0.0
O45 O 0.82562 0.08655 0.50258 0.0
O46 O 0.60952 0.54405 0.83992 0.0
Zn47 Zn 0.51291 0.41629 0.84279 0.0
O48 O 0.40022 0.39973 0.82482 0.0
Zn49 Zn 0.35568 0.31286 0.78694 0.0
Zn50 Zn 0.4182 0.51304 0.80726 0.0
Zn51 Zn 0.31296 0.35555 0.86228 0.0
O52 O 0.23415 0.20995 0.7968 0.0
O53 O 0.21014 0.23387 0.85188 0.0
O54 O 0.55353 0.34577 0.81466 0.0
O55 O 0.43733 0.26576 0.78001 0.0
O56 O 0.35183 0.36798 0.74067 0.0
O57 O 0.38349 0.50324 0.75604 0.0
O58 O 0.34751 0.5539 0.83502 0.0
O59 O 0.50201 0.38022 0.89372 0.0
O60 O 0.26545 0.43719 0.86875 0.0
O61 O 0.36772 0.35148 0.90881 0.0
C62 C 0.61357 0.61204 0.82569 0.0
C63 C 0.18644 0.18618 0.82425 0.0
C64 C 0.36194 0.44327 0.73289 0.0
C65 C 0.51385 0.28624 0.79141 0.0
C66 C 0.2868 0.51392 0.85755 0.0
C67 C 0.44235 0.35977 0.91671 0.0
O68 O 0.5461 0.60882 0.81115 0.0
H69 H 0.93351 0.87393 0.20405 0.0
H70 H 0.0375 0.31014 0.10075 0.0
H71 H 0.10382 0.96206 0.11357 0.0
H72 H 1.00328 0.28952 0.21352 0.0
H73 H 0.03817 0.17029 0.10097 0.0
H74 H 0.93442 0.01453 0.20404 0.0
C75 C 0.97082 0.92271 0.18412 0.0
C76 C 0.01884 0.90643 0.15881 0.0
C77 C 0.03065 0.19665 0.12562 0.0
C78 C 0.01898 0.06635 0.15839 0.0
C79 C 0.02983 0.27605 0.12552 0.0
C80 C 0.02051 0.31153 0.15719 0.0
C81 C 0.01992 0.15139 0.15748 0.0
C82 C 0.01116 0.26475 0.18855 0.0
C83 C 0.9716 1.0029 0.18426 0.0
C84 C 0.06635 0.97215 0.13368 0.0
N85 N 0.0103 0.18663 0.18788 0.0
N86 N 0.06459 0.04898 0.1339 0.0
H87 H 0.24888 0.90362 0.52658 0.0
H88 H 0.99362 0.16164 0.48604 0.0
H89 H 0.35764 0.12931 0.45729 0.0
H90 H 0.85455 0.87825 0.49651 0.0
H91 H 0.1336 0.16122 0.4857 0.0
H92 H 0.10839 0.90314 0.52615 0.0
C93 C 0.24327 0.95324 0.51141 0.0
C94 C 0.31484 0.01653 0.49188 0.0
C95 C 0.0723 0.09927 0.48803 0.0
C96 C 0.15536 0.01708 0.49179 0.0
C97 C 0.99259 0.09942 0.4884 0.0
C98 C 0.91241 0.0198 0.49123 0.0
C99 C 0.07191 0.01922 0.49143 0.0
C100 C 0.91486 0.94102 0.49406 0.0
C101 C 0.16314 0.9526 0.51105 0.0
C102 C 0.30389 0.07908 0.47254 0.0
N103 N 0.99343 0.94275 0.49444 0.0
N104 N 0.22586 0.07836 0.47325 0.0
H105 H 0.75135 0.66592 0.87239 0.0
H106 H 0.08255 0.09778 0.76741 0.0
H107 H 0.66903 0.75008 0.7795 0.0
H108 H 0.09797 0.08179 0.88056 0.0
H109 H 0.94225 0.95789 0.76776 0.0
H110 H 0.89112 0.80643 0.87231 0.0
C111 C 0.76279 0.71379 0.85193 0.0
C112 C 0.6984 0.6964 0.82595 0.0
C113 C 0.97647 0.98524 0.79246 0.0
C114 C 0.8583 0.85623 0.82547 0.0
C115 C 0.0566 0.0647 0.7923 0.0
C116 C 0.10187 0.10154 0.82403 0.0
C117 C 0.94245 0.94125 0.82447 0.0
C118 C 0.06497 0.05598 0.85553 0.0
C119 C 0.84226 0.79395 0.85202 0.0
C120 C 0.71662 0.761 0.80013 0.0
N121 N 0.98778 0.97778 0.85494 0.0
N122 N 0.79522 0.83776 0.80035 0.0
H123 H 0.11458 0.44845 0.87314 0.0
H124 H 0.24574 0.76666 0.03411 0.0
H125 H 0.36998 0.68231 0.88268 0.0
H126 H 0.98001 0.56064 0.01061 0.0
H127 H 0.28668 0.75862 0.97321 0.0
H128 H 0.0567 0.50908 0.91602 0.0
C129 C 0.15776 0.51381 0.88368 0.0
C130 C 0.24708 0.56018 0.87488 0.0
C131 C 0.21893 0.71667 0.98118 0.0
C132 C 0.18288 0.6286 0.92511 0.0
C133 C 0.19563 0.72127 0.01593 0.0
C134 C 0.11014 0.66231 0.0276 0.0
C135 C 0.15616 0.65252 0.95829 0.0
C136 C 0.04744 0.60546 0.00295 0.0
C137 C 0.12498 0.5485 0.90826 0.0
C138 C 0.30059 0.64464 0.88903 0.0
N139 N 0.07206 0.60096 0.96968 0.0
N140 N 0.26826 0.6753 0.9143 0.0
H141 H 0.9011 0.36557 0.45476 0.0
H142 H 0.80224 0.56069 0.28261 0.0
H143 H 0.64615 0.33065 0.42656 0.0
H144 H 0.04806 0.56826 0.30559 0.0
H145 H 0.75723 0.51639 0.34363 0.0
H146 H 0.9683 0.4814 0.41013 0.0
C147 C 0.85965 0.38426 0.44001 0.0
C148 C 0.76775 0.33688 0.44357 0.0
C149 C 0.82166 0.52925 0.33543 0.0
C150 C 0.84354 0.46752 0.39215 0.0
C151 C 0.84729 0.55444 0.30059 0.0
C152 C 0.92785 0.56562 0.28874 0.0
C153 C 0.87701 0.51513 0.35842 0.0
C154 C 0.98422 0.5579 0.31332 0.0
C155 C 0.89788 0.4499 0.41431 0.0
C156 C 0.71716 0.36412 0.42392 0.0
N157 N 0.95716 0.53182 0.34682 0.0
N158 N 0.75546 0.42633 0.3985 0.0
H159 H 0.2922 0.54088 0.70772 0.0
H160 H 0.559 0.67436 0.53605 0.0
H161 H 0.41819 0.39598 0.67435 0.0
H162 H 0.33027 0.70313 0.54928 0.0
H163 H 0.50351 0.56125 0.58242 0.0
H164 H 0.3005 0.59411 0.64752 0.0
C165 C 0.32044 0.51934 0.68748 0.0
C166 C 0.35497 0.46459 0.69586 0.0
C167 C 0.46415 0.59035 0.57431 0.0
C168 C 0.36674 0.52662 0.62713 0.0
C169 C 0.49553 0.65443 0.54771 0.0
C170 C 0.45001 0.69933 0.5395 0.0
C171 C 0.3877 0.57257 0.59273 0.0
C172 C 0.36831 0.67135 0.55547 0.0
C173 C 0.32483 0.54925 0.65309 0.0
C174 C 0.39074 0.43818 0.66875 0.0
N175 N 0.34081 0.61134 0.58191 0.0
N176 N 0.3977 0.4712 0.63563 0.0
H177 H 0.5369 0.2862 0.94138 0.0
H178 H 0.67527 0.5519 0.11463 0.0
H179 H 0.39741 0.41698 0.97568 0.0
H180 H 0.70504 0.32428 0.09902 0.0
H181 H 0.56123 0.4971 0.06829 0.0
H182 H 0.59063 0.29289 0.00151 0.0
C183 C 0.51662 0.31515 0.96181 0.0
C184 C 0.46335 0.35158 0.95371 0.0
C185 C 0.59081 0.45783 0.07584 0.0
C186 C 0.52604 0.36152 0.02239 0.0
C187 C 0.65548 0.48883 0.10243 0.0
C188 C 0.70095 0.44352 0.10999 0.0
C189 C 0.57291 0.38192 0.05676 0.0
C190 C 0.67294 0.36226 0.09335 0.0
C191 C 0.54683 0.31864 -0.00383 0.0
C192 C 0.43849 0.38812 0.98106 0.0
N193 N 0.61228 0.33512 0.06694 0.0
N194 N 0.47182 0.39415 0.01416 0.0
H195 H 0.36649 0.89601 0.19502 0.0
H196 H 0.56381 0.79892 0.36717 0.0
H197 H 0.33206 0.64127 0.22264 0.0
H198 H 0.57089 0.04437 0.34449 0.0
H199 H 0.51869 0.75313 0.30603 0.0
H200 H 0.48288 0.96355 0.23982 0.0
C201 C 0.38535 0.85464 0.20969 0.0
C202 C 0.33791 0.76271 0.20591 0.0
C203 C 0.53165 0.81766 0.31433 0.0
C204 C 0.46923 0.83894 0.25755 0.0
C205 C 0.5573 0.84373 0.34923 0.0
C206 C 0.56856 0.92441 0.36119 0.0
C207 C 0.51721 0.87273 0.29139 0.0
C208 C 0.56046 0.98044 0.33667 0.0
C209 C 0.45133 0.89309 0.23548 0.0
C210 C 0.3655 0.7123 0.22545 0.0
N211 N 0.53399 0.95299 0.30311 0.0
N212 N 0.42802 0.75081 0.25099 0.0
H213 H 0.6901 0.36375 0.77686 0.0
H214 H 0.77235 0.24838 0.6145 0.0
H215 H 0.44272 0.12133 0.76438 0.0
H216 H 0.5671 0.98371 0.6388 0.0
H217 H 0.76471 0.2926 0.67471 0.0
H218 H 0.75594 0.31155 0.73328 0.0
C219 C 0.65038 0.29861 0.76557 0.0
C220 C 0.56041 0.24742 0.77345 0.0
C221 C 0.72351 0.22413 0.66742 0.0
C222 C 0.6339 0.18863 0.7231 0.0
C223 C 0.72761 0.19905 0.63286 0.0
C224 C 0.66859 0.11297 0.6215 0.0
C225 C 0.66007 0.16221 0.69051 0.0
C226 C 0.61212 0.05146 0.64627 0.0
C227 C 0.68757 0.2694 0.7403 0.0
C228 C 0.51187 0.16351 0.75839 0.0
N229 N 0.60815 0.07767 0.67937 0.0
N230 N 0.54895 0.13724 0.73361 0.0
loop_
_geom_bond_atom_site_label_1
_geom_bond_atom_site_label_2
_geom_bond_distance
_geom_bond_site_symmetry_2
_ccdc_geom_bond_type
O0 Zn1 1.953 . S
O0 C16 1.225 . S
Zn1 O0 1.953 . S
Zn1 O2 1.949 . S
Zn1 O8 1.919 . S
Zn1 O13 1.924 . S
O2 Zn1 1.949 . S
O2 Zn3 1.923 1_455 S
O2 Zn4 1.950 1_455 S
O2 Zn5 1.945 . S
Zn3 O2 1.923 1_655 S
Zn3 O6 1.933 . S
Zn3 O9 1.941 1_655 S
Zn3 O10 1.965 . S
Zn4 O2 1.950 1_655 S
Zn4 O11 1.938 . S
Zn4 O12 1.906 . S
Zn4 O22 1.953 . S
Zn5 O2 1.945 . S
Zn5 O7 1.932 . S
Zn5 O14 1.977 1_455 S
Zn5 O15 1.910 . S
O6 Zn3 1.933 . S
O6 C17 1.226 1_655 S
O7 Zn5 1.932 . S
O7 C17 1.307 . S
O8 Zn1 1.919 . S
O8 C19 1.253 . S
O9 Zn3 1.941 1_455 S
O9 C19 1.283 . S
O10 Zn3 1.965 . S
O10 C18 1.303 . S
O11 Zn4 1.938 . S
O11 C18 1.247 . S
O12 Zn4 1.906 . S
O12 C20 1.304 . S
O13 Zn1 1.924 . S
O13 C21 1.311 . S
O14 Zn5 1.977 1_655 S
O14 C20 1.272 . S
O15 Zn5 1.910 . S
O15 C21 1.231 . S
C16 O0 1.225 . S
C16 O22 1.298 1_455 S
C17 O6 1.226 1_455 S
C17 O7 1.307 . S
C18 O10 1.303 . S
C18 O11 1.247 . S
C19 O8 1.253 . S
C19 O9 1.283 . S
C20 O12 1.304 . S
C20 O14 1.272 . S
C21 O13 1.311 . S
C21 O15 1.231 . S
O22 Zn4 1.953 . S
O22 C16 1.298 1_655 S
O23 Zn24 1.953 . S
O23 C39 1.222 1_565 S
Zn24 O23 1.953 . S
Zn24 O25 1.949 1_565 S
Zn24 O31 1.919 . S
Zn24 O36 1.924 . S
O25 Zn24 1.949 1_545 S
O25 Zn26 1.923 . S
O25 Zn27 1.950 . S
O25 Zn28 1.945 1_545 S
Zn26 O25 1.923 . S
Zn26 O29 1.933 . S
Zn26 O32 1.941 1_545 S
Zn26 O33 1.965 . S
Zn27 O25 1.950 . S
Zn27 O34 1.938 . S
Zn27 O35 1.906 . S
Zn27 O45 1.953 . S
Zn28 O25 1.945 1_565 S
Zn28 O30 1.932 . S
Zn28 O37 1.977 1_565 S
Zn28 O38 1.910 . S
O29 Zn26 1.933 . S
O29 C40 1.226 . S
O30 Zn28 1.932 . S
O30 C40 1.307 1_565 S
O31 Zn24 1.919 . S
O31 C42 1.253 . S
O32 Zn26 1.941 1_565 S
O32 C42 1.283 . S
O33 Zn26 1.965 . S
O33 C41 1.303 . S
O34 Zn27 1.938 . S
O34 C41 1.247 . S
O35 Zn27 1.906 . S
O35 C43 1.304 . S
O36 Zn24 1.924 . S
O36 C44 1.311 . S
O37 Zn28 1.977 1_545 S
O37 C43 1.272 . S
O38 Zn28 1.910 . S
O38 C44 1.231 . S
C39 O23 1.222 1_545 S
C39 O45 1.304 . S
C40 O29 1.226 . S
C40 O30 1.307 1_545 S
C41 O33 1.303 . S
C41 O34 1.247 . S
C42 O31 1.253 . S
C42 O32 1.283 . S
C43 O35 1.304 . S
C43 O37 1.272 . S
C44 O36 1.311 . S
C44 O38 1.231 . S
O45 Zn27 1.953 . S
O45 C39 1.304 . S
O46 Zn47 1.953 . S
O46 C62 1.225 . S
Zn47 O46 1.953 . S
Zn47 O48 1.949 . S
Zn47 O54 1.919 . S
Zn47 O59 1.924 . S
O48 Zn47 1.949 . S
O48 Zn49 1.923 . S
O48 Zn50 1.950 . S
O48 Zn51 1.945 . S
Zn49 O48 1.923 . S
Zn49 O52 1.933 . S
Zn49 O55 1.941 . S
Zn49 O56 1.965 . S
Zn50 O48 1.950 . S
Zn50 O57 1.938 . S
Zn50 O58 1.906 . S
Zn50 O68 1.953 . S
Zn51 O48 1.945 . S
Zn51 O53 1.932 . S
Zn51 O60 1.977 . S
Zn51 O61 1.910 . S
O52 Zn49 1.933 . S
O52 C63 1.226 . S
O53 Zn51 1.932 . S
O53 C63 1.307 . S
O54 Zn47 1.919 . S
O54 C65 1.253 . S
O55 Zn49 1.941 . S
O55 C65 1.283 . S
O56 Zn49 1.965 . S
O56 C64 1.303 . S
O57 Zn50 1.938 . S
O57 C64 1.247 . S
O58 Zn50 1.906 . S
O58 C66 1.304 . S
O59 Zn47 1.924 . S
O59 C67 1.311 . S
O60 Zn51 1.977 . S
O60 C66 1.272 . S
O61 Zn51 1.910 . S
O61 C67 1.231 . S
C62 O46 1.225 . S
C62 O68 1.298 . S
C63 O52 1.226 . S
C63 O53 1.307 . S
C64 O56 1.303 . S
C64 O57 1.247 . S
C65 O54 1.253 . S
C65 O55 1.283 . S
C66 O58 1.304 . S
C66 O60 1.272 . S
C67 O59 1.311 . S
C67 O61 1.231 . S
O68 Zn50 1.953 . S
O68 C62 1.298 . S
H69 C75 0.930 . S
H70 C79 0.931 1_655 S
H71 C84 0.929 . S
H72 C82 0.929 . S
H73 C77 0.927 . S
H74 C83 0.929 . S
C75 H69 0.930 . S
C75 C76 1.367 . S
C75 C83 1.378 . S
C76 C75 1.367 . S
C76 C84 1.433 1_455 S
C77 H73 0.927 . S
C77 C79 1.382 1_655 S
C77 C81 1.347 1_655 S
C78 C81 1.463 1_565 S
C78 C83 1.350 . S
C78 N86 1.427 1_455 S
C79 H70 0.931 1_455 S
C79 C77 1.382 1_455 S
C79 C80 1.367 . S
C80 C79 1.367 . S
C80 C82 1.433 . S
C81 C77 1.347 1_455 S
C81 C78 1.463 1_545 S
C81 N85 1.427 . S
C82 H72 0.929 . S
C82 C80 1.433 . S
C82 N85 1.384 . S
C83 H74 0.929 . S
C83 C75 1.378 . S
C83 C78 1.350 . S
C84 H71 0.929 . S
C84 C76 1.433 1_655 S
C84 N86 1.384 . S
N85 C81 1.427 . S
N85 C82 1.384 . S
N86 C78 1.427 1_655 S
N86 C84 1.384 . S
H87 C93 0.930 . S
H88 C97 0.930 . S
H89 C102 0.929 . S
H90 C100 0.929 . S
H91 C95 0.929 . S
H92 C101 0.929 . S
C93 H87 0.930 . S
C93 C94 1.367 . S
C93 C101 1.378 . S
C94 C93 1.367 . S
C94 C102 1.433 1_565 S
C95 H91 0.929 . S
C95 C97 1.378 . S
C95 C99 1.350 . S
C96 C99 1.463 1_465 S
C96 C101 1.350 . S
C96 N104 1.427 1_565 S
C97 H88 0.930 . S
C97 C95 1.378 . S
C97 C98 1.367 . S
C98 C97 1.367 . S
C98 C100 1.433 1_545 S
C99 C95 1.350 . S
C99 C96 1.463 1_645 S
C99 N103 1.427 1_545 S
C100 H90 0.929 . S
C100 C98 1.433 1_565 S
C100 N103 1.384 . S
C101 H92 0.929 . S
C101 C93 1.378 . S
C101 C96 1.350 . S
C102 H89 0.929 . S
C102 C94 1.433 1_545 S
C102 N104 1.384 . S
N103 C99 1.427 1_565 S
N103 C100 1.384 . S
N104 C96 1.427 1_545 S
N104 C102 1.384 . S
H105 C111 0.930 . S
H106 C115 0.930 . S
H107 C120 0.929 . S
H108 C118 0.929 . S
H109 C113 0.929 1_655 S
H110 C119 0.929 1_455 S
C111 H105 0.930 . S
C111 C112 1.367 . S
C111 C119 1.378 . S
C112 C111 1.367 . S
C112 C120 1.433 . S
C113 H109 0.929 1_455 S
C113 C115 1.378 . S
C113 C117 1.350 . S
C114 C117 1.463 1_665 S
C114 C119 1.350 . S
C114 N122 1.427 . S
C115 H106 0.930 . S
C115 C113 1.378 . S
C115 C116 1.367 . S
C116 C115 1.367 . S
C116 C118 1.433 . S
C117 C113 1.350 . S
C117 C114 1.463 1_445 S
C117 N121 1.427 . S
C118 H108 0.929 . S
C118 C116 1.433 . S
C118 N121 1.384 . S
C119 H110 0.929 1_655 S
C119 C111 1.378 . S
C119 C114 1.350 . S
C120 H107 0.929 . S
C120 C112 1.433 . S
C120 N122 1.384 . S
N121 C117 1.427 . S
N121 C118 1.384 . S
N122 C114 1.427 . S
N122 C120 1.384 . S
H123 C129 0.930 . S
H124 C133 0.930 . S
H125 C138 0.929 . S
H126 C136 0.929 . S
H127 C131 0.929 . S
H128 C137 0.929 . S
C129 H123 0.930 . S
C129 C130 1.367 . S
C129 C137 1.378 . S
C130 C129 1.367 . S
C130 C138 1.433 . S
C131 H127 0.929 . S
C131 C133 1.378 . S
C131 C135 1.350 . S
C132 C135 1.463 1_556 S
C132 C137 1.350 . S
C132 N140 1.427 . S
C133 H124 0.930 . S
C133 C131 1.378 . S
C133 C134 1.367 . S
C134 C133 1.367 . S
C134 C136 1.433 . S
C135 C131 1.350 . S
C135 C132 1.463 1_554 S
C135 N139 1.427 . S
C136 H126 0.929 . S
C136 C134 1.433 . S
C136 N139 1.384 . S
C137 H128 0.929 . S
C137 C129 1.378 . S
C137 C132 1.350 . S
C138 H125 0.929 . S
C138 C130 1.433 . S
C138 N140 1.384 . S
N139 C135 1.427 . S
N139 C136 1.384 . S
N140 C132 1.427 . S
N140 C138 1.384 . S
H141 C147 0.930 . S
H142 C151 0.930 . S
H143 C156 0.929 . S
H144 C154 0.929 . S
H145 C149 0.929 . S
H146 C155 0.929 . S
C147 H141 0.930 . S
C147 C148 1.367 . S
C147 C155 1.378 . S
C148 C147 1.367 . S
C148 C156 1.433 . S
C149 H145 0.929 . S
C149 C151 1.378 . S
C149 C153 1.350 . S
C150 C153 1.463 . S
C150 C155 1.350 . S
C150 N158 1.427 . S
C151 H142 0.930 . S
C151 C149 1.378 . S
C151 C152 1.367 . S
C152 C151 1.367 . S
C152 C154 1.433 . S
C153 C149 1.350 . S
C153 C150 1.463 . S
C153 N157 1.427 . S
C154 H144 0.929 . S
C154 C152 1.433 . S
C154 N157 1.384 . S
C155 H146 0.929 . S
C155 C147 1.378 . S
C155 C150 1.350 . S
C156 H143 0.929 . S
C156 C148 1.433 . S
C156 N158 1.384 . S
N157 C153 1.427 . S
N157 C154 1.384 . S
N158 C150 1.427 . S
N158 C156 1.384 . S
H159 C165 0.930 . S
H160 C169 0.930 . S
H161 C174 0.929 . S
H162 C172 0.929 . S
H163 C167 0.929 . S
H164 C173 0.929 . S
C165 H159 0.930 . S
C165 C166 1.367 . S
C165 C173 1.378 . S
C166 C165 1.367 . S
C166 C174 1.433 . S
C167 H163 0.929 . S
C167 C169 1.378 . S
C167 C171 1.350 . S
C168 C171 1.463 . S
C168 C173 1.350 . S
C168 N176 1.427 . S
C169 H160 0.930 . S
C169 C167 1.378 . S
C169 C170 1.367 . S
C170 C169 1.367 . S
C170 C172 1.433 . S
C171 C167 1.350 . S
C171 C168 1.463 . S
C171 N175 1.427 . S
C172 H162 0.929 . S
C172 C170 1.433 . S
C172 N175 1.384 . S
C173 H164 0.929 . S
C173 C165 1.378 . S
C173 C168 1.350 . S
C174 H161 0.929 . S
C174 C166 1.433 . S
C174 N176 1.384 . S
N175 C171 1.427 . S
N175 C172 1.384 . S
N176 C168 1.427 . S
N176 C174 1.384 . S
H177 C183 0.930 . S
H178 C187 0.930 . S
H179 C192 0.929 . S
H180 C190 0.929 . S
H181 C185 0.929 . S
H182 C191 0.929 . S
C183 H177 0.930 . S
C183 C184 1.367 . S
C183 C191 1.378 . S
C184 C183 1.367 . S
C184 C192 1.433 . S
C185 H181 0.929 . S
C185 C187 1.378 . S
C185 C189 1.350 . S
C186 C189 1.463 1_556 S
C186 C191 1.350 . S
C186 N194 1.427 . S
C187 H178 0.930 . S
C187 C185 1.378 . S
C187 C188 1.367 . S
C188 C187 1.367 . S
C188 C190 1.433 . S
C189 C185 1.350 . S
C189 C186 1.463 1_554 S
C189 N193 1.427 . S
C190 H180 0.929 . S
C190 C188 1.433 . S
C190 N193 1.384 . S
C191 H182 0.929 . S
C191 C183 1.378 . S
C191 C186 1.350 . S
C192 H179 0.929 . S
C192 C184 1.433 . S
C192 N194 1.384 . S
N193 C189 1.427 . S
N193 C190 1.384 . S
N194 C186 1.427 . S
N194 C192 1.384 . S
H195 C201 0.930 . S
H196 C205 0.930 . S
H197 C210 0.929 . S
H198 C208 0.929 . S
H199 C203 0.929 . S
H200 C209 0.929 . S
C201 H195 0.930 . S
C201 C202 1.367 . S
C201 C209 1.378 . S
C202 C201 1.367 . S
C202 C210 1.433 . S
C203 H199 0.929 . S
C203 C205 1.378 . S
C203 C207 1.350 . S
C204 C207 1.463 . S
C204 C209 1.350 . S
C204 N212 1.427 . S
C205 H196 0.930 . S
C205 C203 1.378 . S
C205 C206 1.367 . S
C206 C205 1.367 . S
C206 C208 1.433 . S
C207 C203 1.350 . S
C207 C204 1.463 . S
C207 N211 1.427 . S
C208 H198 0.929 . S
C208 C206 1.433 . S
C208 N211 1.384 . S
C209 H200 0.929 . S
C209 C201 1.378 . S
C209 C204 1.350 . S
C210 H197 0.929 . S
C210 C202 1.433 . S
C210 N212 1.384 . S
N211 C207 1.427 . S
N211 C208 1.384 . S
N212 C204 1.427 . S
N212 C210 1.384 . S
H213 C219 0.930 . S
H214 C223 0.930 . S
H215 C228 0.929 . S
H216 C226 0.929 . S
H217 C221 0.929 . S
H218 C227 0.929 . S
C219 H213 0.930 . S
C219 C220 1.367 . S
C219 C227 1.378 . S
C220 C219 1.367 . S
C220 C228 1.433 . S
C221 H217 0.929 . S
C221 C223 1.378 . S
C221 C225 1.350 . S
C222 C225 1.463 . S
C222 C227 1.350 . S
C222 N230 1.427 . S
C223 H214 0.930 . S
C223 C221 1.378 . S
C223 C224 1.367 . S
C224 C223 1.367 . S
C224 C226 1.433 . S
C225 C221 1.350 . S
C225 C222 1.463 . S
C225 N229 1.427 . S
C226 H216 0.929 . S
C226 C224 1.433 . S
C226 N229 1.384 . S
C227 H218 0.929 . S
C227 C219 1.378 . S
C227 C222 1.350 . S
C228 H215 0.929 . S
C228 C220 1.433 . S
C228 N230 1.384 . S
N229 C225 1.427 . S
N229 C226 1.384 . S
N230 C222 1.427 . S
N230 C228 1.384 . S
C76 C16 1.848 . S
C80 C17 1.847 . S
C94 C40 1.848 1_565 S
C98 C39 1.845 . S
C112 C62 1.848 . S
C116 C63 1.846 . S
C130 C66 0.861 . S
C134 C19 0.863 . S
C148 C41 0.920 . S
C152 C20 0.908 . S
C166 C64 0.897 . S
C170 C44 0.892 . S
C184 C67 0.896 . S
C188 C18 0.898 . S
C202 C21 0.865 . S
C206 C42 0.859 . S
C220 C65 0.870 . S
C224 C43 0.870 . S
