# Generated by pormake.
# Topology rob, (6)-cn, num edge types: 1
# Building blocks:
#     Node 0, Type 0, BuildingBlock: BETDEL_clean_sbu_0, # of connection points: 6
#     Node 1, Type 0, BuildingBlock: BETDEL_clean_sbu_0, # of connection points: 6
#     Node 2, Type 0, BuildingBlock: BETDEL_clean_sbu_0, # of connection points: 6
#     Node 3, Type 0, BuildingBlock: BETDEL_clean_sbu_0, # of connection points: 6
#     Edge 4, Type (0, 0), None
#     Edge 5, Type (0, 0), None
#     Edge 6, Type (0, 0), None
#     Edge 7, Type (0, 0), None
#     Edge 8, Type (0, 0), None
#     Edge 9, Type (0, 0), None
#     Edge 10, Type (0, 0), None
#     Edge 11, Type (0, 0), None
#     Edge 12, Type (0, 0), None
#     Edge 13, Type (0, 0), None
#     Edge 14, Type (0, 0), None
#     Edge 15, Type (0, 0), None
# Relax obj value: 0.142
# Max RMSD: 0.197
# Mean RMSD: 0.197
data_MOF--net-rob--node1-BETDEL_clean_sbu_0--edge1-none
_symmetry_space_group_name_H-M    P1
_symmetry_Int_Tables_number       1
_symmetry_cell_setting            triclinic
loop_
_symmetry_equiv_pos_as_xyz
'x, y, z'
_cell_length_a     8.2525849
_cell_length_b     10.807579
_cell_length_c     13.061
_cell_angle_alpha  90.356146
_cell_angle_beta   106.00076
_cell_angle_gamma 89.019698
loop_
_atom_site_label
_atom_site_type_symbol
_atom_site_fract_x
_atom_site_fract_y
_atom_site_fract_z
_atom_type_partial_charge
Dy0 Dy 0.11412 0.32064 0.08891 0.0
C1 C 0.37114 0.10324 0.81839 0.0
C2 C -0.00202 0.39268 0.25464 0.0
Dy3 Dy 0.255 0.17548 0.98406 0.0
O4 O 0.15016 0.3571 0.26245 0.0
O5 O 0.9109 0.39627 0.15572 0.0
O6 O 0.21657 0.50024 0.04535 0.0
O7 O 0.37396 0.34392 0.06756 0.0
C8 C 0.3617 0.45758 0.04031 0.0
C9 C 0.00742 0.03897 1.03311 0.0
O10 O 0.44707 0.16312 0.14434 0.0
O11 O 0.22677 0.17965 0.21145 0.0
O12 O 0.2189 0.13865 0.81057 0.0
O13 O 0.45826 0.09981 0.9173 0.0
O14 O 0.15254 0.99616 1.02823 0.0
O15 O -0.00471 0.1524 1.00519 0.0
O16 O 0.92204 0.33302 0.92865 0.0
O17 O 0.14237 0.31651 0.86156 0.0
C18 C 0.38657 0.15687 0.2274 0.0
C19 C -0.01745 0.33925 0.84559 0.0
Dy20 Dy 0.61415 0.82059 0.08887 0.0
C21 C 0.87116 0.60324 0.81845 0.0
C22 C 0.49797 0.89267 0.25456 0.0
Dy23 Dy 0.75496 0.67553 0.9841 0.0
O24 O 0.65015 0.85709 0.2624 0.0
O25 O 0.41091 0.89625 0.15565 0.0
O26 O 0.71656 0.00021 0.0453 0.0
O27 O 0.87409 0.8439 0.06763 0.0
C28 C 0.86183 0.9576 0.04049 0.0
C29 C 0.50729 0.53895 1.03292 0.0
O30 O -0.05298 0.66313 0.14438 0.0
O31 O 0.72668 0.67961 0.21144 0.0
O32 O 0.71891 0.63866 0.81062 0.0
O33 O -0.04175 0.59983 0.91737 0.0
O34 O 0.65255 0.49618 1.02827 0.0
O35 O 0.49517 0.65241 1.00512 0.0
O36 O 0.42209 0.83301 0.92861 0.0
O37 O 0.64246 0.81655 0.86157 0.0
C38 C 0.88649 0.65685 0.22742 0.0
C39 C 0.48263 0.83927 0.84556 0.0
Dy40 Dy 0.26706 0.82275 0.48838 0.0
C41 C -0.05644 0.60389 0.72971 0.0
C42 C 0.42554 0.89205 0.34329 0.0
Dy43 Dy 0.10199 0.67331 0.58463 0.0
O44 O 0.26883 0.9154 0.33562 0.0
O45 O 0.4981 0.8397 0.43313 0.0
O46 O 0.15797 -0.0003 0.53813 0.0
O47 O 0.00298 0.84637 0.49987 0.0
C48 C 0.00993 0.95762 0.53373 0.0
C49 C 0.35906 0.53884 0.53892 0.0
O50 O 0.93093 0.65397 0.41926 0.0
O51 O 0.14969 0.69751 0.35345 0.0
O52 O 0.10027 0.58054 0.73734 0.0
O53 O 0.87098 0.65627 0.6399 0.0
O54 O 0.21104 0.49664 0.53438 0.0
O55 O 0.36593 0.64988 0.57329 0.0
O56 O 0.43815 0.84215 0.65373 0.0
O57 O 0.21942 0.79855 0.71955 0.0
C58 C -0.00507 0.66158 0.33749 0.0
C59 C 0.37417 0.8345 0.7355 0.0
Dy60 Dy 0.76704 0.32271 0.48842 0.0
C61 C 0.44353 0.10389 0.72963 0.0
C62 C 0.92558 0.39205 0.34337 0.0
Dy63 Dy 0.60202 0.17335 0.58459 0.0
O64 O 0.76887 0.41543 0.33572 0.0
O65 O -0.00191 0.33962 0.43318 0.0
O66 O 0.65797 0.49966 0.53817 0.0
O67 O 0.50286 0.34635 0.49976 0.0
C68 C 0.50981 0.45764 0.53353 0.0
C69 C 0.85919 0.03882 0.53913 0.0
O70 O 0.43099 0.15396 0.41922 0.0
O71 O 0.64978 0.19747 0.35346 0.0
O72 O 0.60022 0.0805 0.73725 0.0
O73 O 0.37099 0.15634 0.63985 0.0
O74 O 0.71104 0.99668 0.53434 0.0
O75 O 0.86605 0.1499 0.57341 0.0
O76 O -0.06191 0.34216 0.65377 0.0
O77 O 0.71932 0.29859 0.71955 0.0
C78 C 0.49502 0.16155 0.33747 0.0
C79 C 0.87408 0.33453 0.73553 0.0
loop_
_geom_bond_atom_site_label_1
_geom_bond_atom_site_label_2
_geom_bond_distance
_geom_bond_site_symmetry_2
_ccdc_geom_bond_type
Dy0 O4 2.398 1_455 S
Dy0 O5 2.491 1_455 S
Dy0 O6 2.403 . S
Dy0 O7 2.664 1_554 S
Dy0 O11 2.326 . S
Dy0 O15 2.310 . S
Dy0 O16 2.351 1_454 S
C1 O12 1.185 . S
C1 O13 1.355 . S
C2 O4 1.185 . S
C2 O5 1.355 . S
Dy3 O7 2.310 . S
Dy3 O10 2.351 1_556 S
Dy3 O12 2.398 . S
Dy3 O13 2.491 . S
Dy3 O14 2.403 1_545 S
Dy3 O15 2.664 1_556 S
Dy3 O17 2.326 . S
O4 Dy0 2.398 1_655 S
O4 C2 1.185 . S
O5 Dy0 2.491 1_655 S
O5 C2 1.355 . S
O6 Dy0 2.403 . S
O6 C8 1.254 . S
O7 Dy0 2.664 1_556 S
O7 Dy3 2.310 . S
O7 C8 1.268 1_556 S
C8 O6 1.254 . S
C8 O7 1.268 1_554 S
C9 O14 1.254 1_545 S
C9 O15 1.268 1_556 S
O10 Dy3 2.351 1_554 S
O10 C18 1.249 . S
O11 Dy0 2.326 . S
O11 C18 1.267 . S
O12 C1 1.185 . S
O12 Dy3 2.398 . S
O13 C1 1.355 . S
O13 Dy3 2.491 . S
O14 Dy3 2.403 1_565 S
O14 C9 1.254 1_565 S
O15 Dy0 2.310 . S
O15 Dy3 2.664 1_554 S
O15 C9 1.268 1_554 S
O16 Dy0 2.351 1_656 S
O16 C19 1.249 . S
O17 Dy3 2.326 . S
O17 C19 1.267 1_455 S
C18 O10 1.249 . S
C18 O11 1.267 . S
C19 O16 1.249 . S
C19 O17 1.267 1_655 S
Dy20 O24 2.398 . S
Dy20 O25 2.491 . S
Dy20 O26 2.403 1_565 S
Dy20 O27 2.664 1_554 S
Dy20 O31 2.326 . S
Dy20 O35 2.310 . S
Dy20 O36 2.351 1_554 S
C21 O32 1.185 . S
C21 O33 1.355 . S
C22 O24 1.185 . S
C22 O25 1.355 . S
Dy23 O27 2.310 . S
Dy23 O30 2.351 1_656 S
Dy23 O32 2.398 1_655 S
Dy23 O33 2.491 1_655 S
Dy23 O34 2.403 . S
Dy23 O35 2.664 1_556 S
Dy23 O37 2.326 . S
O24 Dy20 2.398 . S
O24 C22 1.185 . S
O25 Dy20 2.491 . S
O25 C22 1.355 . S
O26 Dy20 2.403 1_545 S
O26 C28 1.254 1_545 S
O27 Dy20 2.664 1_556 S
O27 Dy23 2.310 . S
O27 C28 1.268 1_556 S
C28 O26 1.254 1_565 S
C28 O27 1.268 1_554 S
C29 O34 1.254 . S
C29 O35 1.268 1_556 S
O30 Dy23 2.351 1_454 S
O30 C38 1.249 . S
O31 Dy20 2.326 . S
O31 C38 1.267 1_655 S
O32 C21 1.185 . S
O32 Dy23 2.398 1_455 S
O33 C21 1.355 . S
O33 Dy23 2.491 1_455 S
O34 Dy23 2.403 . S
O34 C29 1.254 . S
O35 Dy20 2.310 . S
O35 Dy23 2.664 1_554 S
O35 C29 1.268 1_554 S
O36 Dy20 2.351 1_556 S
O36 C39 1.249 . S
O37 Dy23 2.326 . S
O37 C39 1.267 . S
C38 O30 1.249 . S
C38 O31 1.267 1_455 S
C39 O36 1.249 . S
C39 O37 1.267 . S
Dy40 O44 2.398 . S
Dy40 O45 2.491 . S
Dy40 O46 2.403 1_565 S
Dy40 O47 2.664 . S
Dy40 O51 2.326 . S
Dy40 O55 2.310 . S
Dy40 O56 2.351 . S
C41 O52 1.185 . S
C41 O53 1.355 . S
C42 O44 1.185 . S
C42 O45 1.355 . S
Dy43 O47 2.310 . S
Dy43 O50 2.351 1_455 S
Dy43 O52 2.398 1_455 S
Dy43 O53 2.491 1_455 S
Dy43 O54 2.403 . S
Dy43 O55 2.664 . S
Dy43 O57 2.326 . S
O44 Dy40 2.398 . S
O44 C42 1.185 . S
O45 Dy40 2.491 . S
O45 C42 1.355 . S
O46 Dy40 2.403 1_545 S
O46 C48 1.254 1_545 S
O47 Dy40 2.664 . S
O47 Dy43 2.310 . S
O47 C48 1.268 . S
C48 O46 1.254 1_565 S
C48 O47 1.268 . S
C49 O54 1.254 . S
C49 O55 1.268 . S
O50 Dy43 2.351 1_655 S
O50 C58 1.249 . S
O51 Dy40 2.326 . S
O51 C58 1.267 1_455 S
O52 C41 1.185 . S
O52 Dy43 2.398 1_655 S
O53 C41 1.355 . S
O53 Dy43 2.491 1_655 S
O54 Dy43 2.403 . S
O54 C49 1.254 . S
O55 Dy40 2.310 . S
O55 Dy43 2.664 . S
O55 C49 1.268 . S
O56 Dy40 2.351 . S
O56 C59 1.249 . S
O57 Dy43 2.326 . S
O57 C59 1.267 . S
C58 O50 1.249 . S
C58 O51 1.267 1_655 S
C59 O56 1.249 . S
C59 O57 1.267 . S
Dy60 O64 2.398 1_655 S
Dy60 O65 2.491 1_655 S
Dy60 O66 2.403 . S
Dy60 O67 2.664 . S
Dy60 O71 2.326 . S
Dy60 O75 2.310 . S
Dy60 O76 2.351 1_655 S
C61 O72 1.185 . S
C61 O73 1.355 . S
C62 O64 1.185 . S
C62 O65 1.355 . S
Dy63 O67 2.310 . S
Dy63 O70 2.351 . S
Dy63 O72 2.398 . S
Dy63 O73 2.491 . S
Dy63 O74 2.403 1_545 S
Dy63 O75 2.664 . S
Dy63 O77 2.326 . S
O64 Dy60 2.398 1_455 S
O64 C62 1.185 . S
O65 Dy60 2.491 1_455 S
O65 C62 1.355 . S
O66 Dy60 2.403 . S
O66 C68 1.254 . S
O67 Dy60 2.664 . S
O67 Dy63 2.310 . S
O67 C68 1.268 . S
C68 O66 1.254 . S
C68 O67 1.268 . S
C69 O74 1.254 1_545 S
C69 O75 1.268 . S
O70 Dy63 2.351 . S
O70 C78 1.249 . S
O71 Dy60 2.326 . S
O71 C78 1.267 . S
O72 C61 1.185 . S
O72 Dy63 2.398 . S
O73 C61 1.355 . S
O73 Dy63 2.491 . S
O74 Dy63 2.403 1_565 S
O74 C69 1.254 1_565 S
O75 Dy60 2.310 . S
O75 Dy63 2.664 . S
O75 C69 1.268 . S
O76 Dy60 2.351 1_455 S
O76 C79 1.249 . S
O77 Dy63 2.326 . S
O77 C79 1.267 1_655 S
C78 O70 1.249 . S
C78 O71 1.267 . S
C79 O76 1.249 . S
C79 O77 1.267 1_455 S
C29 C8 2.143 1_556 S
C49 C68 2.143 . S
C9 C28 2.143 1_446 S
C69 C48 2.143 1_645 S
C78 C18 1.643 . S
C22 C42 1.644 . S
C39 C59 1.643 . S
C61 C1 1.644 . S
C38 C58 1.643 1_455 S
C62 C2 1.644 1_455 S
C79 C19 1.643 1_455 S
C41 C21 1.644 1_655 S
