# Generated by pormake.
# Topology sxb, (6)-cn, num edge types: 1
# Building blocks:
#     Node 0, Type 0, BuildingBlock: MIFKUJ_clean_sbu_0, # of connection points: 6
#     Node 1, Type 0, BuildingBlock: MIFKUJ_clean_sbu_0, # of connection points: 6
#     Node 2, Type 0, BuildingBlock: MIFKUJ_clean_sbu_0, # of connection points: 6
#     Node 3, Type 0, BuildingBlock: MIFKUJ_clean_sbu_0, # of connection points: 6
#     Edge 4, Type (0, 0), BuildingBlock: OJICUG_clean_linker_0, # of connection points: 2
#     Edge 5, Type (0, 0), BuildingBlock: OJICUG_clean_linker_0, # of connection points: 2
#     Edge 6, Type (0, 0), BuildingBlock: OJICUG_clean_linker_0, # of connection points: 2
#     Edge 7, Type (0, 0), BuildingBlock: OJICUG_clean_linker_0, # of connection points: 2
#     Edge 8, Type (0, 0), BuildingBlock: OJICUG_clean_linker_0, # of connection points: 2
#     Edge 9, Type (0, 0), BuildingBlock: OJICUG_clean_linker_0, # of connection points: 2
#     Edge 10, Type (0, 0), BuildingBlock: OJICUG_clean_linker_0, # of connection points: 2
#     Edge 11, Type (0, 0), BuildingBlock: OJICUG_clean_linker_0, # of connection points: 2
#     Edge 12, Type (0, 0), BuildingBlock: OJICUG_clean_linker_0, # of connection points: 2
#     Edge 13, Type (0, 0), BuildingBlock: OJICUG_clean_linker_0, # of connection points: 2
#     Edge 14, Type (0, 0), BuildingBlock: OJICUG_clean_linker_0, # of connection points: 2
#     Edge 15, Type (0, 0), BuildingBlock: OJICUG_clean_linker_0, # of connection points: 2
# Relax obj value: 0.023
# Max RMSD: 0.065
# Mean RMSD: 0.050
data_MOF--net-sxb--node1-MIFKUJ_clean_sbu_0--edge1-OJICUG_clean_linker_0
_symmetry_space_group_name_H-M    P1
_symmetry_Int_Tables_number       1
_symmetry_cell_setting            triclinic
loop_
_symmetry_equiv_pos_as_xyz
'x, y, z'
_cell_length_a     13.704775
_cell_length_b     24.593914
_cell_length_c     20.164546
_cell_angle_alpha  96.641665
_cell_angle_beta   99.185329
_cell_angle_gamma 83.644445
loop_
_atom_site_label
_atom_site_type_symbol
_atom_site_fract_x
_atom_site_fract_y
_atom_site_fract_z
_atom_type_partial_charge
Zn0 Zn 0.14299 0.00268 0.00502 0.0
Zn1 Zn 0.94559 0.9843 0.98404 0.0
C2 C 0.21716 0.89288 0.03742 0.0
O3 O 0.26593 0.92066 0.08948 0.0
C4 C 0.86362 0.09258 0.95382 0.0
O5 O 0.81387 0.06346 0.90349 0.0
O6 O 0.28261 0.01999 0.01936 0.0
O7 O 0.08139 0.0291 0.915 0.0
O8 O 0.99656 0.95729 0.89787 0.0
C9 C 0.33237 0.99585 0.97475 0.0
O10 O 0.28664 0.96709 0.92224 0.0
O11 O 0.15647 0.91901 -0.00505 0.0
C12 C 0.75801 0.98852 0.01844 0.0
O13 O 0.80375 0.01761 0.07063 0.0
O14 O 0.80703 0.96557 0.97282 0.0
O15 O 0.01117 0.95598 0.07077 0.0
O16 O 0.08511 0.03154 0.09016 0.0
O17 O 0.92959 0.06787 -0.0054 0.0
C18 C 0.03537 0.99389 0.87425 0.0
C19 C 0.04573 0.99433 0.1123 0.0
Zn20 Zn 0.00476 0.07178 0.47141 0.0
Zn21 Zn 0.81029 0.96283 0.46293 0.0
C22 C 0.20763 0.04807 0.48156 0.0
O23 O 0.19645 0.08056 0.53689 0.0
C24 C 0.60323 0.98502 0.41943 0.0
O25 O 0.61989 0.94169 0.3767 0.0
O26 O 0.02695 0.15211 0.48315 0.0
O27 O 0.88764 0.0551 0.40278 0.0
O28 O 0.8732 0.96699 0.38215 0.0
C29 C 0.07543 0.16835 0.44161 0.0
O30 O 0.09242 0.13531 0.38785 0.0
O31 O 0.13065 0.03361 0.44236 0.0
C32 C 0.73871 0.86872 0.50374 0.0
O33 O 0.70892 0.90471 0.55152 0.0
O34 O 0.78652 0.88416 0.46139 0.0
O35 O 0.89169 0.98448 0.55222 0.0
O36 O 0.99754 0.04858 0.56276 0.0
O37 O 0.67615 0.00454 0.45844 0.0
C38 C 0.89877 0.0106 0.36505 0.0
C39 C 0.95498 0.01409 0.58791 0.0
Zn40 Zn 0.63159 0.42874 -0.00523 0.0
Zn41 Zn 0.40478 0.54996 0.00205 0.0
C42 C 0.74345 0.32446 0.00955 0.0
O43 O 0.79371 0.35425 0.05893 0.0
C44 C 0.31415 0.65821 0.98545 0.0
O45 O 0.27474 0.63187 0.92877 0.0
O46 O 0.75164 0.46871 -0.00922 0.0
O47 O 0.51219 0.4544 0.93283 0.0
O48 O 0.47769 0.54183 0.92231 0.0
C49 C 0.81616 0.45167 0.95235 0.0
O50 O 0.80086 0.40865 0.90825 0.0
O51 O 0.66785 0.34733 0.97449 0.0
C52 C 0.20343 0.53478 0.01084 0.0
O53 O 0.22293 0.57021 0.06408 0.0
O54 O 0.2717 0.51819 0.97519 0.0
O55 O 0.4797 0.51362 0.08365 0.0
O56 O 0.60059 0.44461 0.08914 0.0
O57 O 0.37543 0.63153 0.02705 0.0
C58 C 0.51935 0.49561 0.90237 0.0
C59 C 0.54145 0.48044 0.11716 0.0
Zn60 Zn 0.61239 0.54183 0.51053 0.0
Zn61 Zn 0.42383 0.43506 0.49762 0.0
C62 C 0.82291 0.53318 0.517 0.0
O63 O 0.81067 0.56933 0.56903 0.0
C64 C 0.2196 0.47006 0.45171 0.0
O65 O 0.2331 0.42931 0.40487 0.0
O66 O 0.61572 0.62348 0.52329 0.0
O67 O 0.50022 0.52607 0.43612 0.0
O68 O 0.49393 0.43705 0.41823 0.0
C69 C 0.6403 0.64431 0.47432 0.0
O70 O 0.65484 0.61219 0.4193 0.0
O71 O 0.74691 0.51228 0.48309 0.0
C72 C 0.31084 0.35187 0.52363 0.0
O73 O 0.28718 0.38986 0.5713 0.0
O74 O 0.3761 0.36015 0.48859 0.0
O75 O 0.5024 0.44878 0.59003 0.0
O76 O 0.60168 0.51624 0.6 0.0
O77 O 0.29442 0.48468 0.49346 0.0
C78 C 0.51167 0.48156 0.39865 0.0
C79 C 0.56322 0.48014 0.62528 0.0
C80 C 0.3311 0.74712 0.05943 0.0
C81 C 0.28707 0.71792 0.00017 0.0
H82 H 0.34325 0.82515 0.11784 0.0
C83 C 0.21704 0.74645 0.95453 0.0
H84 H 0.38503 0.72638 0.09576 0.0
C85 C 0.1928 0.80302 0.96727 0.0
C86 C 0.23815 0.83242 0.0259 0.0
H87 H 0.18132 0.7252 0.90852 0.0
H88 H 0.1395 0.8238 0.9306 0.0
C89 C 0.30698 0.80376 0.07212 0.0
C90 C 0.72684 0.23427 0.93857 0.0
C91 C 0.77574 0.26541 -0.00565 0.0
H92 H 0.71684 0.15559 0.88167 0.0
C93 C 0.85619 0.23962 0.03541 0.0
H94 H 0.66494 0.2529 0.90571 0.0
C95 C 0.88607 0.18374 0.02161 0.0
C96 C 0.83638 0.15247 0.96629 0.0
H97 H 0.8957 0.26244 0.0787 0.0
H98 H 0.94741 0.16496 0.05479 0.0
C99 C 0.75691 0.17847 0.92465 0.0
C100 C 0.11845 0.25181 0.52023 0.0
C101 C 0.13041 0.21756 0.46071 0.0
H102 H 0.16692 0.32087 0.58729 0.0
C103 C 0.20258 0.22769 0.42253 0.0
H104 H 0.0639 0.24485 0.55097 0.0
C105 C 0.26254 0.27052 0.44386 0.0
C106 C 0.2512 0.30455 0.50358 0.0
H107 H 0.21434 0.20186 0.37668 0.0
H108 H 0.31738 0.27711 0.41315 0.0
C109 C 0.17806 0.29504 0.54134 0.0
C110 C 0.72956 0.77629 0.43877 0.0
C111 C 0.71249 0.81153 0.49659 0.0
H112 H 0.71895 0.69622 0.38608 0.0
C113 C 0.66887 0.79182 0.54648 0.0
H114 H 0.76243 0.79033 0.39915 0.0
C115 C 0.64403 0.73761 0.53902 0.0
C116 C 0.66168 0.70235 0.48127 0.0
H117 H 0.65462 0.81809 0.59152 0.0
H118 H 0.61155 0.72328 0.57862 0.0
C119 C 0.7041 0.72237 0.43108 0.0
C120 C 0.49085 0.02137 0.04459 0.0
C121 C 0.4411 0.99483 0.98545 0.0
H122 H 0.63055 0.03951 0.10185 0.0
C123 C 0.4964 0.96498 0.93812 0.0
H124 H 0.45012 0.04438 0.08221 0.0
C125 C 0.59969 0.96188 0.94957 0.0
C126 C 0.64945 0.98864 0.00854 0.0
H127 H 0.46006 0.94381 0.89225 0.0
H128 H 0.64037 0.93894 0.91187 0.0
C129 C 0.59418 0.01827 0.05605 0.0
C130 C 0.38912 0.05797 0.50109 0.0
C131 C 0.30777 0.03312 0.46312 0.0
H132 H 0.54561 0.06323 0.51621 0.0
C133 C 0.32325 0.99509 0.40734 0.0
H134 H 0.37953 0.08805 0.54379 0.0
C135 C 0.41906 0.9808 0.3914 0.0
C136 C 0.50077 0.00462 0.43067 0.0
H137 H 0.26173 0.97572 0.37673 0.0
H138 H 0.42926 0.95028 0.34924 0.0
C139 C 0.48442 0.04406 0.48492 0.0
C140 C 0.93313 0.51772 0.01569 0.0
C141 C 0.91284 0.4757 0.96338 0.0
H142 H 0.04019 0.56897 0.07169 0.0
C143 C 0.98813 0.45456 0.9249 0.0
H144 H 0.87703 0.535 0.04638 0.0
C145 C 0.08223 0.47411 0.93952 0.0
C146 C 0.10312 0.51509 -0.00692 0.0
H147 H 0.97507 0.42216 0.88424 0.0
H148 H 0.13899 0.45648 0.90955 0.0
C149 C 0.02706 0.53708 0.03041 0.0
C150 C 0.10144 0.5288 0.51954 0.0
C151 C 0.11723 0.49035 0.4642 0.0
H152 H 0.99693 0.5721 0.57964 0.0
C153 C 0.03456 0.46739 0.42476 0.0
H154 H 0.16323 0.54715 0.55119 0.0
C155 C 0.93888 0.48142 0.44138 0.0
C156 C 0.92359 0.51877 0.49781 0.0
H157 H 0.04389 0.43745 0.3819 0.0
H158 H 0.87715 0.46244 0.4105 0.0
C159 C 0.00589 0.54284 0.53609 0.0
C160 C 0.97439 0.95579 0.27134 0.0
C161 C 0.94831 0.00749 0.30471 0.0
H162 H 0.02694 0.91141 0.18451 0.0
C163 C 0.96485 0.0552 0.27757 0.0
H164 H 0.96344 0.91816 0.29112 0.0
C165 C 0.0033 0.05115 0.21671 0.0
C166 C 0.02386 -0.00064 0.18183 0.0
H167 H 0.94415 0.09553 0.30172 0.0
H168 H 0.01137 0.08845 0.19511 0.0
C169 C 0.01121 0.95181 0.2104 0.0
C170 C 0.95865 0.9622 0.75761 0.0
C171 C 0.0192 0.99792 0.80081 0.0
H172 H 0.89081 0.93935 0.65698 0.0
C173 C 0.06069 0.03839 0.77335 0.0
H174 H 0.92549 0.93055 0.77713 0.0
C175 C 0.04081 0.04345 0.70404 0.0
C176 C 0.97871 0.00828 0.66103 0.0
H177 H 0.10773 0.06648 0.80542 0.0
H178 H 0.0732 0.07531 0.68438 0.0
C179 C 0.93849 0.96737 0.6886 0.0
C180 C 0.49911 0.53055 0.29548 0.0
C181 C 0.52653 0.48252 0.32811 0.0
H182 H 0.48107 0.56726 0.20255 0.0
C183 C 0.56388 0.43464 0.29182 0.0
H184 H 0.47009 0.56807 0.32229 0.0
C185 C 0.57176 0.43444 0.22364 0.0
C186 C 0.54045 0.48182 0.19029 0.0
H187 H 0.58615 0.39717 0.316 0.0
H188 H 0.59943 0.3967 0.19659 0.0
C189 C 0.50495 0.53003 0.22695 0.0
C190 C 0.55892 0.43365 0.72827 0.0
C191 C 0.57647 0.48022 0.69925 0.0
H192 H 0.52991 0.40166 0.81667 0.0
C193 C 0.59203 0.52937 0.74078 0.0
H194 H 0.54765 0.39511 0.69745 0.0
C195 C 0.57982 0.53344 0.80862 0.0
C196 C 0.55402 0.48813 0.8362 0.0
H197 H 0.60594 0.56591 0.71982 0.0
H198 H 0.58538 0.57282 0.83853 0.0
C199 C 0.54897 0.4374 0.7965 0.0
loop_
_geom_bond_atom_site_label_1
_geom_bond_atom_site_label_2
_geom_bond_distance
_geom_bond_site_symmetry_2
_ccdc_geom_bond_type
Zn0 O6 1.969 1_565 S
Zn0 O7 1.965 1_564 S
Zn0 O11 2.024 1_554 S
Zn0 O16 1.969 . S
Zn1 O8 1.969 . S
Zn1 O14 1.969 1_545 S
Zn1 O15 1.965 1_546 S
Zn1 O17 2.024 1_556 S
C2 O3 1.229 . S
C2 O11 1.058 1_554 S
O3 C2 1.229 . S
C4 O5 1.229 . S
C4 O17 1.058 1_556 S
O5 C4 1.229 . S
O6 Zn0 1.969 1_545 S
O6 C9 1.267 1_544 S
O7 Zn0 1.965 1_546 S
O7 C18 1.260 1_455 S
O8 Zn1 1.969 . S
O8 C18 1.258 . S
C9 O6 1.267 1_566 S
C9 O10 1.228 . S
O10 C9 1.228 . S
O11 Zn0 2.024 1_556 S
O11 C2 1.058 1_556 S
C12 O13 1.228 . S
C12 O14 1.267 1_544 S
O13 C12 1.228 . S
O14 Zn1 1.969 1_565 S
O14 C12 1.267 1_566 S
O15 Zn1 1.965 1_564 S
O15 C19 1.260 1_655 S
O16 Zn0 1.969 . S
O16 C19 1.258 . S
O17 Zn1 2.024 1_554 S
O17 C4 1.058 1_554 S
C18 O7 1.260 1_655 S
C18 O8 1.258 . S
C19 O15 1.260 1_455 S
C19 O16 1.258 . S
Zn20 O26 1.969 . S
Zn20 O27 1.965 . S
Zn20 O31 2.024 1_545 S
Zn20 O36 1.969 . S
Zn21 O28 1.969 . S
Zn21 O34 1.969 . S
Zn21 O35 1.965 . S
Zn21 O37 2.024 1_565 S
C22 O23 1.229 . S
C22 O31 1.058 1_545 S
O23 C22 1.229 . S
C24 O25 1.229 . S
C24 O37 1.058 1_565 S
O25 C24 1.229 . S
O26 Zn20 1.969 . S
O26 C29 1.267 . S
O27 Zn20 1.965 . S
O27 C38 1.260 1_455 S
O28 Zn21 1.969 . S
O28 C38 1.258 1_565 S
C29 O26 1.267 . S
C29 O30 1.228 . S
O30 C29 1.228 . S
O31 Zn20 2.024 1_565 S
O31 C22 1.058 1_565 S
C32 O33 1.228 . S
C32 O34 1.267 . S
O33 C32 1.228 . S
O34 Zn21 1.969 . S
O34 C32 1.267 . S
O35 Zn21 1.965 . S
O35 C39 1.260 1_655 S
O36 Zn20 1.969 . S
O36 C39 1.258 1_545 S
O37 Zn21 2.024 1_545 S
O37 C24 1.058 1_545 S
C38 O27 1.260 1_655 S
C38 O28 1.258 1_545 S
C39 O35 1.260 1_455 S
C39 O36 1.258 1_565 S
Zn40 O46 1.969 . S
Zn40 O47 1.965 1_554 S
Zn40 O51 2.024 1_554 S
Zn40 O56 1.969 . S
Zn41 O48 1.969 . S
Zn41 O54 1.969 . S
Zn41 O55 1.965 1_556 S
Zn41 O57 2.024 1_556 S
C42 O43 1.229 . S
C42 O51 1.058 1_554 S
O43 C42 1.229 . S
C44 O45 1.229 . S
C44 O57 1.058 1_556 S
O45 C44 1.229 . S
O46 Zn40 1.969 . S
O46 C49 1.267 1_554 S
O47 Zn40 1.965 1_556 S
O47 C58 1.260 . S
O48 Zn41 1.969 . S
O48 C58 1.258 . S
C49 O46 1.267 1_556 S
C49 O50 1.228 . S
O50 C49 1.228 . S
O51 Zn40 2.024 1_556 S
O51 C42 1.058 1_556 S
C52 O53 1.228 . S
C52 O54 1.267 1_554 S
O53 C52 1.228 . S
O54 Zn41 1.969 . S
O54 C52 1.267 1_556 S
O55 Zn41 1.965 1_554 S
O55 C59 1.260 . S
O56 Zn40 1.969 . S
O56 C59 1.258 . S
O57 Zn41 2.024 1_554 S
O57 C44 1.058 1_554 S
C58 O47 1.260 . S
C58 O48 1.258 . S
C59 O55 1.260 . S
C59 O56 1.258 . S
Zn60 O66 1.969 . S
Zn60 O67 1.965 . S
Zn60 O71 2.024 . S
Zn60 O76 1.969 . S
Zn61 O68 1.969 . S
Zn61 O74 1.969 . S
Zn61 O75 1.965 . S
Zn61 O77 2.024 . S
C62 O63 1.229 . S
C62 O71 1.058 . S
O63 C62 1.229 . S
C64 O65 1.229 . S
C64 O77 1.058 . S
O65 C64 1.229 . S
O66 Zn60 1.969 . S
O66 C69 1.267 . S
O67 Zn60 1.965 . S
O67 C78 1.260 . S
O68 Zn61 1.969 . S
O68 C78 1.258 . S
C69 O66 1.267 . S
C69 O70 1.228 . S
O70 C69 1.228 . S
O71 Zn60 2.024 . S
O71 C62 1.058 . S
C72 O73 1.228 . S
C72 O74 1.267 . S
O73 C72 1.228 . S
O74 Zn61 1.969 . S
O74 C72 1.267 . S
O75 Zn61 1.965 . S
O75 C79 1.260 . S
O76 Zn60 1.969 . S
O76 C79 1.258 . S
O77 Zn61 2.024 . S
O77 C64 1.058 . S
C78 O67 1.260 . S
C78 O68 1.258 . S
C79 O75 1.260 . S
C79 O76 1.258 . S
C80 C81 1.387 . S
C80 H84 0.950 . S
C80 C89 1.390 . S
C81 C80 1.387 . S
C81 C83 1.387 1_554 S
H82 C89 0.950 . S
C83 C81 1.387 1_556 S
C83 C85 1.390 . S
C83 H87 0.950 . S
H84 C80 0.950 . S
C85 C83 1.390 . S
C85 C86 1.387 . S
C85 H88 0.950 . S
C86 C85 1.387 . S
C86 C89 1.387 1_556 S
H87 C83 0.950 . S
H88 C85 0.950 . S
C89 C80 1.390 . S
C89 H82 0.950 . S
C89 C86 1.387 1_554 S
C90 C91 1.387 . S
C90 H94 0.950 . S
C90 C99 1.390 . S
C91 C90 1.387 . S
C91 C93 1.387 1_556 S
H92 C99 0.950 . S
C93 C91 1.387 1_554 S
C93 C95 1.390 . S
C93 H97 0.950 . S
H94 C90 0.950 . S
C95 C93 1.390 . S
C95 C96 1.387 . S
C95 H98 0.950 . S
C96 C95 1.387 . S
C96 C99 1.387 1_554 S
H97 C93 0.950 . S
H98 C95 0.950 . S
C99 C90 1.390 . S
C99 H92 0.950 . S
C99 C96 1.387 1_556 S
C100 C101 1.387 . S
C100 H104 0.950 . S
C100 C109 1.390 . S
C101 C100 1.387 . S
C101 C103 1.387 . S
H102 C109 0.950 . S
C103 C101 1.387 . S
C103 C105 1.390 . S
C103 H107 0.950 . S
H104 C100 0.950 . S
C105 C103 1.390 . S
C105 C106 1.387 . S
C105 H108 0.950 . S
C106 C105 1.387 . S
C106 C109 1.387 . S
H107 C103 0.950 . S
H108 C105 0.950 . S
C109 C100 1.390 . S
C109 H102 0.950 . S
C109 C106 1.387 . S
C110 C111 1.387 . S
C110 H114 0.950 . S
C110 C119 1.390 . S
C111 C110 1.387 . S
C111 C113 1.387 . S
H112 C119 0.950 . S
C113 C111 1.387 . S
C113 C115 1.390 . S
C113 H117 0.950 . S
H114 C110 0.950 . S
C115 C113 1.390 . S
C115 C116 1.387 . S
C115 H118 0.950 . S
C116 C115 1.387 . S
C116 C119 1.387 . S
H117 C113 0.950 . S
H118 C115 0.950 . S
C119 C110 1.390 . S
C119 H112 0.950 . S
C119 C116 1.387 . S
C120 C121 1.387 1_554 S
C120 H124 0.950 . S
C120 C129 1.390 . S
C121 C120 1.387 1_556 S
C121 C123 1.387 1_545 S
H122 C129 0.950 . S
C123 C121 1.387 1_565 S
C123 C125 1.390 . S
C123 H127 0.950 . S
H124 C120 0.950 . S
C125 C123 1.390 . S
C125 C126 1.387 1_556 S
C125 H128 0.950 . S
C126 C125 1.387 1_554 S
C126 C129 1.387 1_565 S
H127 C123 0.950 . S
H128 C125 0.950 . S
C129 C120 1.390 . S
C129 H122 0.950 . S
C129 C126 1.387 1_545 S
C130 C131 1.387 . S
C130 H134 0.950 . S
C130 C139 1.390 . S
C131 C130 1.387 . S
C131 C133 1.387 1_565 S
H132 C139 0.950 . S
C133 C131 1.387 1_545 S
C133 C135 1.390 . S
C133 H137 0.950 . S
H134 C130 0.950 . S
C135 C133 1.390 . S
C135 C136 1.387 . S
C135 H138 0.950 . S
C136 C135 1.387 . S
C136 C139 1.387 1_545 S
H137 C133 0.950 . S
H138 C135 0.950 . S
C139 C130 1.390 . S
C139 H132 0.950 . S
C139 C136 1.387 1_565 S
C140 C141 1.387 1_554 S
C140 H144 0.950 . S
C140 C149 1.390 1_655 S
C141 C140 1.387 1_556 S
C141 C143 1.387 . S
H142 C149 0.950 . S
C143 C141 1.387 . S
C143 C145 1.390 1_655 S
C143 H147 0.950 . S
H144 C140 0.950 . S
C145 C143 1.390 1_455 S
C145 C146 1.387 1_556 S
C145 H148 0.950 . S
C146 C145 1.387 1_554 S
C146 C149 1.387 . S
H147 C143 0.950 . S
H148 C145 0.950 . S
C149 C140 1.390 1_455 S
C149 H142 0.950 . S
C149 C146 1.387 . S
C150 C151 1.387 . S
C150 H154 0.950 . S
C150 C159 1.390 1_455 S
C151 C150 1.387 . S
C151 C153 1.387 . S
H152 C159 0.950 . S
C153 C151 1.387 . S
C153 C155 1.390 1_455 S
C153 H157 0.950 . S
H154 C150 0.950 . S
C155 C153 1.390 1_655 S
C155 C156 1.387 . S
C155 H158 0.950 . S
C156 C155 1.387 . S
C156 C159 1.387 . S
H157 C153 0.950 . S
H158 C155 0.950 . S
C159 C150 1.390 1_655 S
C159 H152 0.950 . S
C159 C156 1.387 . S
C160 C161 1.387 1_465 S
C160 H164 0.950 . S
C160 C169 1.390 . S
C161 C160 1.387 1_645 S
C161 C163 1.387 . S
H162 C169 0.950 . S
C163 C161 1.387 . S
C163 C165 1.390 . S
C163 H167 0.950 . S
H164 C160 0.950 . S
C165 C163 1.390 . S
C165 C166 1.387 . S
C165 H168 0.950 . S
C166 C165 1.387 . S
C166 C169 1.387 1_645 S
H167 C163 0.950 . S
H168 C165 0.950 . S
C169 C160 1.390 . S
C169 H162 0.950 . S
C169 C166 1.387 1_465 S
C170 C171 1.387 1_655 S
C170 H174 0.951 . S
C170 C179 1.390 . S
C171 C170 1.387 1_455 S
C171 C173 1.387 1_565 S
H172 C179 0.950 . S
C173 C171 1.387 1_545 S
C173 C175 1.390 . S
C173 H177 0.950 . S
H174 C170 0.951 . S
C175 C173 1.390 . S
C175 C176 1.387 1_545 S
C175 H178 0.950 . S
C176 C175 1.387 1_565 S
C176 C179 1.386 1_455 S
H177 C173 0.950 . S
H178 C175 0.950 . S
C179 C170 1.390 . S
C179 H172 0.950 . S
C179 C176 1.386 1_655 S
C180 C181 1.387 . S
C180 H184 0.950 . S
C180 C189 1.390 . S
C181 C180 1.387 . S
C181 C183 1.387 . S
H182 C189 0.950 . S
C183 C181 1.387 . S
C183 C185 1.390 . S
C183 H187 0.950 . S
H184 C180 0.950 . S
C185 C183 1.390 . S
C185 C186 1.387 . S
C185 H188 0.950 . S
C186 C185 1.387 . S
C186 C189 1.387 . S
H187 C183 0.950 . S
H188 C185 0.950 . S
C189 C180 1.390 . S
C189 H182 0.950 . S
C189 C186 1.387 . S
C190 C191 1.387 . S
C190 H194 0.950 . S
C190 C199 1.390 . S
C191 C190 1.387 . S
C191 C193 1.387 . S
H192 C199 0.950 . S
C193 C191 1.387 . S
C193 C195 1.390 . S
C193 H197 0.950 . S
H194 C190 0.950 . S
C195 C193 1.390 . S
C195 C196 1.387 . S
C195 H198 0.950 . S
C196 C195 1.387 . S
C196 C199 1.387 . S
H197 C193 0.950 . S
H198 C195 0.950 . S
C199 C190 1.390 . S
C199 H192 0.950 . S
C199 C196 1.387 . S
C81 C44 1.544 1_554 S
C86 C2 1.545 1_556 S
C91 C42 1.548 1_556 S
C96 C4 1.547 1_554 S
C101 C29 1.319 . S
C106 C72 1.318 . S
C111 C32 1.315 . S
C116 C69 1.316 . S
C121 C9 1.081 1_545 S
C126 C12 1.081 1_565 S
C131 C22 1.539 1_565 S
C136 C24 1.539 1_545 S
C141 C49 1.080 . S
C146 C52 1.080 . S
C151 C64 1.539 . S
C156 C62 1.539 . S
C161 C38 1.489 . S
C166 C19 1.478 1_645 S
C171 C18 1.481 1_465 S
C176 C39 1.491 . S
C181 C78 1.488 . S
C186 C59 1.479 . S
C191 C79 1.489 . S
C196 C58 1.483 . S
