# Generated by pormake.
# Topology bto, (3)-cn, num edge types: 1
# Building blocks:
#     Node 0, Type 0, BuildingBlock: OLANEW_clean_sbu_2, # of connection points: 3
#     Node 1, Type 0, BuildingBlock: OLANEW_clean_sbu_2, # of connection points: 3
#     Node 2, Type 0, BuildingBlock: OLANEW_clean_sbu_2, # of connection points: 3
#     Node 3, Type 0, BuildingBlock: OLANEW_clean_sbu_2, # of connection points: 3
#     Node 4, Type 0, BuildingBlock: OLANEW_clean_sbu_2, # of connection points: 3
#     Node 5, Type 0, BuildingBlock: OLANEW_clean_sbu_2, # of connection points: 3
#     Edge 6, Type (0, 0), BuildingBlock: KIFKEQ_clean_linker_1, # of connection points: 2
#     Edge 7, Type (0, 0), BuildingBlock: KIFKEQ_clean_linker_1, # of connection points: 2
#     Edge 8, Type (0, 0), BuildingBlock: KIFKEQ_clean_linker_1, # of connection points: 2
#     Edge 9, Type (0, 0), BuildingBlock: KIFKEQ_clean_linker_1, # of connection points: 2
#     Edge 10, Type (0, 0), BuildingBlock: KIFKEQ_clean_linker_1, # of connection points: 2
#     Edge 11, Type (0, 0), BuildingBlock: KIFKEQ_clean_linker_1, # of connection points: 2
#     Edge 12, Type (0, 0), BuildingBlock: KIFKEQ_clean_linker_1, # of connection points: 2
#     Edge 13, Type (0, 0), BuildingBlock: KIFKEQ_clean_linker_1, # of connection points: 2
#     Edge 14, Type (0, 0), BuildingBlock: KIFKEQ_clean_linker_1, # of connection points: 2
# Relax obj value: 0.000
# Max RMSD: 0.056
# Mean RMSD: 0.056
data_MOF--net-bto--node1-OLANEW_clean_sbu_2--edge1-KIFKEQ_clean_linker_1
_symmetry_space_group_name_H-M    P1
_symmetry_Int_Tables_number       1
_symmetry_cell_setting            triclinic
loop_
_symmetry_equiv_pos_as_xyz
'x, y, z'
_cell_length_a     32.837441
_cell_length_b     32.806943
_cell_length_c     59.768943
_cell_angle_alpha  81.971736
_cell_angle_beta   90.031819
_cell_angle_gamma 119.97475
loop_
_atom_site_label
_atom_site_type_symbol
_atom_site_fract_x
_atom_site_fract_y
_atom_site_fract_z
_atom_type_partial_charge
O0 O 0.12501 0.71024 0.04798 0.0
Cd1 Cd 0.12994 0.70453 0.00795 0.0
O2 O 0.08255 0.63236 0.05767 0.0
Cd3 Cd 0.06247 0.62116 0.02332 0.0
O4 O 0.00268 0.60892 0.00344 0.0
C5 C 0.96287 0.58514 0.01486 0.0
O6 O 0.96143 0.56868 0.03637 0.0
C7 C 0.10553 0.67357 0.06329 0.0
C8 C 0.20416 0.6893 -0.00118 0.0
O9 O 0.21065 0.73159 -0.00318 0.0
O10 O 0.16241 0.6542 0.00486 0.0
O11 O 0.50183 0.17983 0.40153 0.0
Cd12 Cd 0.49588 0.20405 0.36177 0.0
O13 O 0.52618 0.13106 0.39452 0.0
Cd14 Cd 0.5094 0.13447 0.3593 0.0
O15 O 0.45811 0.0984 0.33547 0.0
C16 C 0.4176 0.09389 0.33815 0.0
O17 O 0.41007 0.11445 0.35374 0.0
C18 C 0.51673 0.15158 0.40852 0.0
C19 C 0.58026 0.28547 0.34398 0.0
O20 O 0.5468 0.28874 0.35298 0.0
O21 O 0.57348 0.24371 0.34316 0.0
O22 O 0.49183 0.52047 0.72589 0.0
Cd23 Cd 0.47788 0.51929 0.68584 0.0
O24 O 0.41636 0.4738 0.73663 0.0
Cd25 Cd 0.39776 0.49265 0.7033 0.0
O26 O 0.39418 0.54959 0.68129 0.0
C27 C 0.36382 0.56014 0.68715 0.0
O28 O 0.33396 0.53399 0.70488 0.0
C29 C 0.45906 0.49495 0.74156 0.0
C30 C 0.46419 0.43299 0.67585 0.0
O31 O 0.50546 0.47004 0.67397 0.0
O32 O 0.42912 0.43706 0.68189 0.0
O33 O 0.44786 0.00782 0.58469 0.0
Cd34 Cd 0.42203 0.9779 0.62482 0.0
O35 O 0.49686 0.08134 0.59 0.0
Cd36 Cd 0.4746 0.07248 0.62553 0.0
O37 O 0.46377 0.11674 0.64606 0.0
C38 C 0.43448 0.12952 0.63938 0.0
O39 O 0.40992 0.11186 0.62229 0.0
C40 C 0.47919 0.05049 0.57685 0.0
C41 C 0.40672 0.88549 0.63559 0.0
O42 O 0.37307 0.89273 0.62961 0.0
O43 O 0.44738 0.92193 0.63669 0.0
O44 O 0.56574 0.54978 0.9101 0.0
Cd45 Cd 0.58672 0.57501 0.94695 0.0
O46 O 0.49303 0.53539 0.91506 0.0
Cd47 Cd 0.49752 0.56068 0.94732 0.0
O48 O 0.46153 0.58746 0.96624 0.0
C49 C 0.45795 0.62158 0.95539 0.0
O50 O 0.47896 0.64017 0.93484 0.0
C51 C 0.52502 0.53553 0.90303 0.0
C52 C 0.66836 0.57402 0.95903 0.0
O53 O 0.62747 0.53702 0.96444 0.0
O54 O 0.67062 0.61163 0.94801 0.0
O55 O 0.07349 0.73656 0.2334 0.0
Cd56 Cd 0.05547 0.7467 0.27107 0.0
O57 O 0.00222 0.67622 0.23152 0.0
Cd58 Cd 0.97128 0.66935 0.26506 0.0
O59 O 0.90778 0.61388 0.28564 0.0
C60 C 0.88581 0.577 0.27625 0.0
O61 O 0.90334 0.5769 0.25651 0.0
C62 C 0.04382 0.70508 0.2226 0.0
C63 C 0.13389 0.82539 0.28367 0.0
O64 O 0.1288 0.78364 0.28797 0.0
O65 O 0.10141 0.82982 0.27372 0.0
H66 H 0.06871 0.60279 0.10007 0.0
H67 H 0.142 0.75616 0.08129 0.0
H68 H 0.05911 0.61075 0.13931 0.0
H69 H 0.13151 0.76395 0.12056 0.0
H70 H 0.1294 0.75993 0.19772 0.0
H71 H 0.15078 0.75214 0.15999 0.0
H72 H 0.00982 0.63389 0.15813 0.0
H73 H 0.98872 0.64102 0.19569 0.0
C74 C 0.08321 0.63824 0.10433 0.0
C75 C 0.10562 0.67882 0.08748 0.0
C76 C 0.07747 0.64276 0.12681 0.0
C77 C 0.0939 0.68793 0.13296 0.0
C78 C 0.11862 0.72867 0.11637 0.0
C79 C 0.12445 0.72416 0.09385 0.0
C80 C 0.10307 0.73222 0.18925 0.0
C81 C 0.05735 0.70112 0.19973 0.0
C82 C 0.11529 0.72785 0.16764 0.0
C83 C 0.0821 0.69217 0.15617 0.0
C84 C 0.0365 0.66114 0.16669 0.0
C85 C 0.02429 0.66554 0.18818 0.0
H86 H 0.44999 0.99474 0.54346 0.0
H87 H 0.53911 0.1403 0.5544 0.0
H88 H 0.46606 0.02129 0.50258 0.0
H89 H 0.55528 0.16654 0.51359 0.0
H90 H 0.50787 0.19496 0.4425 0.0
H91 H 0.50532 0.17111 0.48317 0.0
H92 H 0.5299 0.05824 0.47087 0.0
H93 H 0.53222 0.08187 0.43008 0.0
C94 C 0.47349 0.03225 0.53718 0.0
C95 C 0.49289 0.06542 0.55221 0.0
C96 C 0.48288 0.04741 0.51377 0.0
C97 C 0.51166 0.09603 0.50492 0.0
C98 C 0.53249 0.12892 0.51994 0.0
C99 C 0.52334 0.11378 0.54333 0.0
C100 C 0.51325 0.16539 0.44843 0.0
C101 C 0.51998 0.14016 0.43305 0.0
C102 C 0.51205 0.1519 0.47173 0.0
C103 C 0.51726 0.11272 0.48017 0.0
C104 C 0.52532 0.08829 0.46481 0.0
C105 C 0.52691 0.10203 0.44147 0.0
H106 H 0.44361 0.50909 0.88223 0.0
H107 H 0.58372 0.53034 0.87227 0.0
H108 H 0.42882 0.49296 0.84381 0.0
H109 H 0.56826 0.51263 0.83377 0.0
H110 H 0.54374 0.54811 0.75864 0.0
H111 H 0.55976 0.55122 0.7983 0.0
H112 H 0.41616 0.43861 0.81838 0.0
H113 H 0.3997 0.43666 0.77868 0.0
C114 C 0.47107 0.50959 0.87196 0.0
C115 C 0.51501 0.52138 0.8803 0.0
C116 C 0.46241 0.49992 0.84992 0.0
C117 C 0.49733 0.50148 0.83565 0.0
C118 C 0.54081 0.51174 0.84422 0.0
C119 C 0.54959 0.52165 0.86631 0.0
C120 C 0.51571 0.52362 0.77151 0.0
C121 C 0.47026 0.49258 0.76551 0.0
C122 C 0.525 0.52518 0.79428 0.0
C123 C 0.48913 0.49549 0.81156 0.0
C124 C 0.44434 0.46268 0.8055 0.0
C125 C 0.43494 0.46139 0.78274 0.0
H126 H 0.2961 0.75624 -0.0148 0.0
H127 H 0.20173 0.60413 0.00231 0.0
H128 H 0.3609 0.74282 0.97713 0.0
H129 H 0.26632 0.59074 -0.00613 0.0
H130 H 0.40005 0.58284 -0.00526 0.0
H131 H 0.34118 0.60144 0.00711 0.0
H132 H 0.38362 0.71072 0.94825 0.0
H133 H 0.44283 0.69279 0.9361 0.0
C134 C 0.28916 0.71994 -0.01276 0.0
C135 C 0.24369 0.68124 -0.00571 0.0
C136 C 0.32628 0.71226 0.98255 0.0
C137 C 0.31878 0.66572 -0.01515 0.0
C138 C 0.27345 0.62706 -0.00777 0.0
C139 C 0.23632 0.63473 -0.00312 0.0
C140 C 0.39724 0.61127 0.98461 0.0
C141 C 0.42594 0.63613 0.96436 0.0
C142 C 0.36328 0.62168 -0.00839 0.0
C143 C 0.35744 0.65729 0.97857 0.0
C144 C 0.38744 0.68337 0.9588 0.0
C145 C 0.42126 0.6729 0.95177 0.0
H146 H 0.65766 0.2896 0.32451 0.0
H147 H 0.60537 0.37886 0.34302 0.0
H148 H 0.73204 0.36034 0.30931 0.0
H149 H 0.67968 0.44979 0.3274 0.0
H150 H 0.83771 0.56481 0.31652 0.0
H151 H 0.76424 0.49439 0.33377 0.0
H152 H 0.75987 0.42422 0.27704 0.0
H153 H 0.83317 0.49375 0.26009 0.0
C154 C 0.66197 0.32432 0.32528 0.0
C155 C 0.6255 0.32859 0.33487 0.0
C156 C 0.70456 0.36489 0.31648 0.0
C157 C 0.71169 0.41069 0.31705 0.0
C158 C 0.67545 0.415 0.32691 0.0
C159 C 0.63276 0.37436 0.33571 0.0
C160 C 0.82105 0.53427 0.30779 0.0
C161 C 0.84136 0.53484 0.28697 0.0
C162 C 0.77887 0.49407 0.3176 0.0
C163 C 0.75634 0.45365 0.30681 0.0
C164 C 0.7767 0.45443 0.28598 0.0
C165 C 0.81864 0.49449 0.27619 0.0
H166 H 0.32367 0.80101 0.63738 0.0
H167 H 0.4722 0.85927 0.64613 0.0
H168 H 0.31094 0.72043 0.64704 0.0
H169 H 0.45933 0.77887 0.656 0.0
H170 H 0.4291 0.62912 0.65422 0.0
H171 H 0.43771 0.70652 0.63957 0.0
H172 H 0.31287 0.66978 0.68109 0.0
H173 H 0.30386 0.59227 0.69554 0.0
C174 C 0.35361 0.79665 0.64133 0.0
C175 C 0.39893 0.83656 0.64107 0.0
C176 C 0.34626 0.75049 0.64692 0.0
C177 C 0.38413 0.74327 0.65225 0.0
C178 C 0.42953 0.7832 0.65168 0.0
C179 C 0.43684 0.82931 0.64619 0.0
C180 C 0.40311 0.63727 0.65999 0.0
C181 C 0.36599 0.60464 0.67618 0.0
C182 C 0.40824 0.68175 0.65171 0.0
C183 C 0.37624 0.69445 0.65934 0.0
C184 C 0.33795 0.66098 0.67476 0.0
C185 C 0.33293 0.61661 0.68312 0.0
H186 H 0.95353 0.62065 0.97201 0.0
H187 H 0.87361 0.53681 0.03535 0.0
H188 H 0.88215 0.61538 0.95692 0.0
H189 H 0.80288 0.53243 0.02051 0.0
H190 H 0.6749 0.49929 0.98152 0.0
H191 H 0.74587 0.49883 -0.00692 0.0
H192 H 0.83061 0.64713 0.9631 0.0
H193 H 0.75973 0.64734 0.95111 0.0
C194 C 0.92074 0.60089 0.98266 0.0
C195 C 0.91931 0.5793 0.00491 0.0
C196 C 0.87992 0.59813 0.97407 0.0
C197 C 0.83683 0.57364 -0.01246 0.0
C198 C 0.83529 0.55108 0.00957 0.0
C199 C 0.876 0.55385 0.01814 0.0
C200 C 0.70869 0.53175 0.9773 0.0
C201 C 0.71162 0.57343 0.9655 0.0
C202 C 0.74936 0.53153 0.984 0.0
C203 C 0.79393 0.57299 0.97909 0.0
C204 C 0.79692 0.61443 0.96692 0.0
C205 C 0.75623 0.61464 0.96019 0.0
H206 H 0.41804 0.03565 0.30965 0.0
H207 H 0.32688 0.07593 0.34025 0.0
H208 H 0.35022 0.97336 0.29431 0.0
H209 H 0.25911 0.01332 0.3251 0.0
H210 H 0.15227 0.91731 0.27957 0.0
H211 H 0.22245 0.98618 0.28979 0.0
H212 H 0.2813 0.89679 0.3119 0.0
H213 H 0.21157 0.82817 0.30153 0.0
C214 C 0.38366 0.03164 0.31288 0.0
C215 C 0.37779 0.06048 0.32635 0.0
C216 C 0.34479 0.99574 0.30422 0.0
C217 C 0.29929 0.98811 0.30872 0.0
C218 C 0.29376 0.01847 0.32124 0.0
C219 C 0.33259 0.05423 0.33 0.0
C220 C 0.18025 0.9124 0.28656 0.0
C221 C 0.1763 0.86724 0.2898 0.0
C222 C 0.22035 0.95182 0.29246 0.0
C223 C 0.25744 0.94693 0.30156 0.0
C224 C 0.25362 0.90185 0.3046 0.0
C225 C 0.21347 0.86244 0.29884 0.0
H226 H 0.49059 0.18377 0.66982 0.0
H227 H 0.37605 0.16491 0.62863 0.0
H228 H 0.49524 0.25511 0.68036 0.0
H229 H 0.38116 0.2365 0.63896 0.0
H230 H 0.38108 0.34892 0.67672 0.0
H231 H 0.37047 0.27221 0.6706 0.0
H232 H 0.52145 0.33572 0.65953 0.0
H233 H 0.53215 0.41211 0.66585 0.0
C234 C 0.46602 0.19447 0.66323 0.0
C235 C 0.43321 0.16886 0.64823 0.0
C236 C 0.46894 0.23555 0.66914 0.0
C237 C 0.43894 0.25174 0.66027 0.0
C238 C 0.40461 0.22483 0.64616 0.0
C239 C 0.40183 0.18389 0.64017 0.0
C240 C 0.412 0.34649 0.67298 0.0
C241 C 0.45747 0.38665 0.67172 0.0
C242 C 0.40589 0.30258 0.66944 0.0
C243 C 0.44512 0.29785 0.66471 0.0
C244 C 0.49055 0.33801 0.66351 0.0
C245 C 0.49665 0.38191 0.66693 0.0
loop_
_geom_bond_atom_site_label_1
_geom_bond_atom_site_label_2
_geom_bond_distance
_geom_bond_site_symmetry_2
_ccdc_geom_bond_type
O0 Cd1 2.300 . S
O0 C7 1.275 . S
Cd1 O0 2.300 . S
Cd1 O9 2.381 . S
Cd1 O10 2.378 . S
O2 Cd3 2.385 1_455 S
O2 C7 1.255 . S
Cd3 O2 2.385 1_655 S
Cd3 O4 2.317 . S
O4 Cd3 2.317 . S
O4 C5 1.232 . S
C5 O4 1.232 . S
C5 O6 1.218 . S
O6 C5 1.218 . S
C7 O0 1.275 . S
C7 O2 1.255 . S
C8 O9 1.258 . S
C8 O10 1.256 . S
O9 Cd1 2.381 . S
O9 C8 1.258 . S
O10 Cd1 2.378 . S
O10 C8 1.256 . S
O11 Cd12 2.300 . S
O11 C18 1.275 . S
Cd12 O11 2.300 . S
Cd12 O20 2.381 . S
Cd12 O21 2.378 . S
O13 Cd14 2.385 . S
O13 C18 1.255 . S
Cd14 O13 2.385 . S
Cd14 O15 2.317 . S
O15 Cd14 2.317 . S
O15 C16 1.232 . S
C16 O15 1.232 . S
C16 O17 1.218 . S
O17 C16 1.218 . S
C18 O11 1.275 . S
C18 O13 1.255 . S
C19 O20 1.258 . S
C19 O21 1.256 . S
O20 Cd12 2.381 . S
O20 C19 1.258 . S
O21 Cd12 2.378 . S
O21 C19 1.256 . S
O22 Cd23 2.300 . S
O22 C29 1.275 . S
Cd23 O22 2.300 . S
Cd23 O31 2.381 . S
Cd23 O32 2.378 . S
O24 Cd25 2.385 . S
O24 C29 1.255 . S
Cd25 O24 2.385 . S
Cd25 O26 2.317 . S
O26 Cd25 2.317 . S
O26 C27 1.232 . S
C27 O26 1.232 . S
C27 O28 1.218 . S
O28 C27 1.218 . S
C29 O22 1.275 . S
C29 O24 1.255 . S
C30 O31 1.258 . S
C30 O32 1.256 . S
O31 Cd23 2.381 . S
O31 C30 1.258 . S
O32 Cd23 2.378 . S
O32 C30 1.256 . S
O33 Cd34 2.300 . S
O33 C40 1.275 1_565 S
Cd34 O33 2.300 . S
Cd34 O42 2.381 . S
Cd34 O43 2.378 . S
O35 Cd36 2.385 . S
O35 C40 1.255 . S
Cd36 O35 2.385 . S
Cd36 O37 2.317 . S
O37 Cd36 2.317 . S
O37 C38 1.232 . S
C38 O37 1.232 . S
C38 O39 1.218 . S
O39 C38 1.218 . S
C40 O33 1.275 1_545 S
C40 O35 1.255 . S
C41 O42 1.258 . S
C41 O43 1.256 . S
O42 Cd34 2.381 . S
O42 C41 1.258 . S
O43 Cd34 2.378 . S
O43 C41 1.256 . S
O44 Cd45 2.300 . S
O44 C51 1.275 . S
Cd45 O44 2.300 . S
Cd45 O53 2.381 . S
Cd45 O54 2.378 . S
O46 Cd47 2.385 . S
O46 C51 1.255 . S
Cd47 O46 2.385 . S
Cd47 O48 2.317 . S
O48 Cd47 2.317 . S
O48 C49 1.232 . S
C49 O48 1.232 . S
C49 O50 1.218 . S
O50 C49 1.218 . S
C51 O44 1.275 . S
C51 O46 1.255 . S
C52 O53 1.258 . S
C52 O54 1.256 . S
O53 Cd45 2.381 . S
O53 C52 1.258 . S
O54 Cd45 2.378 . S
O54 C52 1.256 . S
O55 Cd56 2.300 . S
O55 C62 1.275 . S
Cd56 O55 2.300 . S
Cd56 O64 2.381 . S
Cd56 O65 2.378 . S
O57 Cd58 2.385 1_455 S
O57 C62 1.255 . S
Cd58 O57 2.385 1_655 S
Cd58 O59 2.317 . S
O59 Cd58 2.317 . S
O59 C60 1.232 . S
C60 O59 1.232 . S
C60 O61 1.218 . S
O61 C60 1.218 . S
C62 O55 1.275 . S
C62 O57 1.255 . S
C63 O64 1.258 . S
C63 O65 1.256 . S
O64 Cd56 2.381 . S
O64 C63 1.258 . S
O65 Cd56 2.378 . S
O65 C63 1.256 . S
H66 C74 0.950 . S
H67 C79 0.950 . S
H68 C76 0.950 . S
H69 C78 0.950 . S
H70 C80 0.950 . S
H71 C82 0.950 . S
H72 C84 0.950 . S
H73 C85 0.950 1_655 S
C74 H66 0.950 . S
C74 C75 1.386 . S
C74 C76 1.391 . S
C75 C74 1.386 . S
C75 C79 1.393 . S
C76 H68 0.950 . S
C76 C74 1.391 . S
C76 C77 1.400 . S
C77 C76 1.400 . S
C77 C78 1.398 . S
C77 C83 1.491 . S
C78 H69 0.950 . S
C78 C77 1.398 . S
C78 C79 1.391 . S
C79 H67 0.950 . S
C79 C75 1.393 . S
C79 C78 1.391 . S
C80 H70 0.950 . S
C80 C81 1.386 . S
C80 C82 1.391 . S
C81 C80 1.386 . S
C81 C85 1.393 . S
C82 H71 0.950 . S
C82 C80 1.391 . S
C82 C83 1.400 . S
C83 C77 1.491 . S
C83 C82 1.400 . S
C83 C84 1.398 . S
C84 H72 0.950 . S
C84 C83 1.398 . S
C84 C85 1.391 . S
C85 H73 0.950 1_455 S
C85 C81 1.393 . S
C85 C84 1.391 . S
H86 C94 0.950 1_565 S
H87 C99 0.950 . S
H88 C96 0.950 . S
H89 C98 0.950 . S
H90 C100 0.950 . S
H91 C102 0.950 . S
H92 C104 0.950 . S
H93 C105 0.950 . S
C94 H86 0.950 1_545 S
C94 C95 1.386 . S
C94 C96 1.391 . S
C95 C94 1.386 . S
C95 C99 1.393 . S
C96 H88 0.950 . S
C96 C94 1.391 . S
C96 C97 1.400 . S
C97 C96 1.400 . S
C97 C98 1.398 . S
C97 C103 1.491 . S
C98 H89 0.950 . S
C98 C97 1.398 . S
C98 C99 1.391 . S
C99 H87 0.950 . S
C99 C95 1.393 . S
C99 C98 1.391 . S
C100 H90 0.950 . S
C100 C101 1.386 . S
C100 C102 1.391 . S
C101 C100 1.386 . S
C101 C105 1.393 . S
C102 H91 0.950 . S
C102 C100 1.391 . S
C102 C103 1.400 . S
C103 C97 1.491 . S
C103 C102 1.400 . S
C103 C104 1.398 . S
C104 H92 0.950 . S
C104 C103 1.398 . S
C104 C105 1.391 . S
C105 H93 0.950 . S
C105 C101 1.393 . S
C105 C104 1.391 . S
H106 C114 0.950 . S
H107 C119 0.950 . S
H108 C116 0.950 . S
H109 C118 0.950 . S
H110 C120 0.950 . S
H111 C122 0.950 . S
H112 C124 0.950 . S
H113 C125 0.950 . S
C114 H106 0.950 . S
C114 C115 1.386 . S
C114 C116 1.391 . S
C115 C114 1.386 . S
C115 C119 1.393 . S
C116 H108 0.950 . S
C116 C114 1.391 . S
C116 C117 1.400 . S
C117 C116 1.400 . S
C117 C118 1.398 . S
C117 C123 1.491 . S
C118 H109 0.950 . S
C118 C117 1.398 . S
C118 C119 1.391 . S
C119 H107 0.950 . S
C119 C115 1.393 . S
C119 C118 1.391 . S
C120 H110 0.950 . S
C120 C121 1.386 . S
C120 C122 1.391 . S
C121 C120 1.386 . S
C121 C125 1.393 . S
C122 H111 0.950 . S
C122 C120 1.391 . S
C122 C123 1.400 . S
C123 C117 1.491 . S
C123 C122 1.400 . S
C123 C124 1.398 . S
C124 H112 0.950 . S
C124 C123 1.398 . S
C124 C125 1.391 . S
C125 H113 0.950 . S
C125 C121 1.393 . S
C125 C124 1.391 . S
H126 C134 0.950 . S
H127 C139 0.950 . S
H128 C136 0.950 . S
H129 C138 0.950 . S
H130 C140 0.950 1_554 S
H131 C142 0.950 . S
H132 C144 0.950 . S
H133 C145 0.950 . S
C134 H126 0.950 . S
C134 C135 1.386 1_556 S
C134 C136 1.391 . S
C135 C134 1.386 1_554 S
C135 C139 1.393 . S
C136 H128 0.950 . S
C136 C134 1.391 . S
C136 C137 1.400 1_556 S
C137 C136 1.400 1_554 S
C137 C138 1.398 . S
C137 C143 1.491 1_554 S
C138 H129 0.950 . S
C138 C137 1.398 . S
C138 C139 1.391 . S
C139 H127 0.950 . S
C139 C135 1.393 . S
C139 C138 1.391 . S
C140 H130 0.950 1_556 S
C140 C141 1.386 . S
C140 C142 1.391 1_556 S
C141 C140 1.386 . S
C141 C145 1.393 . S
C142 H131 0.950 . S
C142 C140 1.391 1_554 S
C142 C143 1.400 1_554 S
C143 C137 1.491 1_556 S
C143 C142 1.400 1_556 S
C143 C144 1.398 . S
C144 H132 0.950 . S
C144 C143 1.398 . S
C144 C145 1.391 . S
C145 H133 0.950 . S
C145 C141 1.393 . S
C145 C144 1.391 . S
H146 C154 0.950 . S
H147 C159 0.950 . S
H148 C156 0.950 . S
H149 C158 0.950 . S
H150 C160 0.950 . S
H151 C162 0.950 . S
H152 C164 0.950 . S
H153 C165 0.950 . S
C154 H146 0.950 . S
C154 C155 1.386 . S
C154 C156 1.391 . S
C155 C154 1.386 . S
C155 C159 1.393 . S
C156 H148 0.950 . S
C156 C154 1.391 . S
C156 C157 1.400 . S
C157 C156 1.400 . S
C157 C158 1.398 . S
C157 C163 1.491 . S
C158 H149 0.950 . S
C158 C157 1.398 . S
C158 C159 1.391 . S
C159 H147 0.950 . S
C159 C155 1.393 . S
C159 C158 1.391 . S
C160 H150 0.950 . S
C160 C161 1.386 . S
C160 C162 1.391 . S
C161 C160 1.386 . S
C161 C165 1.393 . S
C162 H151 0.950 . S
C162 C160 1.391 . S
C162 C163 1.400 . S
C163 C157 1.491 . S
C163 C162 1.400 . S
C163 C164 1.398 . S
C164 H152 0.950 . S
C164 C163 1.398 . S
C164 C165 1.391 . S
C165 H153 0.950 . S
C165 C161 1.393 . S
C165 C164 1.391 . S
H166 C174 0.950 . S
H167 C179 0.950 . S
H168 C176 0.950 . S
H169 C178 0.950 . S
H170 C180 0.950 . S
H171 C182 0.950 . S
H172 C184 0.950 . S
H173 C185 0.950 . S
C174 H166 0.950 . S
C174 C175 1.386 . S
C174 C176 1.391 . S
C175 C174 1.386 . S
C175 C179 1.393 . S
C176 H168 0.950 . S
C176 C174 1.391 . S
C176 C177 1.400 . S
C177 C176 1.400 . S
C177 C178 1.398 . S
C177 C183 1.491 . S
C178 H169 0.950 . S
C178 C177 1.398 . S
C178 C179 1.391 . S
C179 H167 0.950 . S
C179 C175 1.393 . S
C179 C178 1.391 . S
C180 H170 0.950 . S
C180 C181 1.386 . S
C180 C182 1.391 . S
C181 C180 1.386 . S
C181 C185 1.393 . S
C182 H171 0.950 . S
C182 C180 1.391 . S
C182 C183 1.400 . S
C183 C177 1.491 . S
C183 C182 1.400 . S
C183 C184 1.398 . S
C184 H172 0.950 . S
C184 C183 1.398 . S
C184 C185 1.391 . S
C185 H173 0.950 . S
C185 C181 1.393 . S
C185 C184 1.391 . S
H186 C194 0.950 . S
H187 C199 0.950 . S
H188 C196 0.950 . S
H189 C198 0.950 . S
H190 C200 0.950 . S
H191 C202 0.950 . S
H192 C204 0.950 . S
H193 C205 0.950 . S
C194 H186 0.950 . S
C194 C195 1.386 1_556 S
C194 C196 1.391 . S
C195 C194 1.386 1_554 S
C195 C199 1.393 . S
C196 H188 0.950 . S
C196 C194 1.391 . S
C196 C197 1.400 1_556 S
C197 C196 1.400 1_554 S
C197 C198 1.398 . S
C197 C203 1.491 1_554 S
C198 H189 0.950 . S
C198 C197 1.398 . S
C198 C199 1.391 . S
C199 H187 0.950 . S
C199 C195 1.393 . S
C199 C198 1.391 . S
C200 H190 0.950 . S
C200 C201 1.386 1_554 S
C200 C202 1.391 . S
C201 C200 1.386 1_556 S
C201 C205 1.393 . S
C202 H191 0.950 . S
C202 C200 1.391 . S
C202 C203 1.400 1_554 S
C203 C197 1.491 1_556 S
C203 C202 1.400 1_556 S
C203 C204 1.398 . S
C204 H192 0.950 . S
C204 C203 1.398 . S
C204 C205 1.391 . S
C205 H193 0.950 . S
C205 C201 1.393 . S
C205 C204 1.391 . S
H206 C214 0.950 . S
H207 C219 0.950 . S
H208 C216 0.950 . S
H209 C218 0.950 1_565 S
H210 C220 0.950 . S
H211 C222 0.950 . S
H212 C224 0.950 . S
H213 C225 0.950 . S
C214 H206 0.950 . S
C214 C215 1.386 . S
C214 C216 1.391 . S
C215 C214 1.386 . S
C215 C219 1.393 . S
C216 H208 0.950 . S
C216 C214 1.391 . S
C216 C217 1.395 1_545 S
C217 C216 1.395 1_565 S
C217 C218 1.393 1_565 S
C217 C223 1.501 . S
C218 H209 0.950 1_545 S
C218 C217 1.393 1_545 S
C218 C219 1.391 . S
C219 H207 0.950 . S
C219 C215 1.393 . S
C219 C218 1.391 . S
C220 H210 0.950 . S
C220 C221 1.386 . S
C220 C222 1.391 . S
C221 C220 1.386 . S
C221 C225 1.393 . S
C222 H211 0.950 . S
C222 C220 1.391 . S
C222 C223 1.400 . S
C223 C217 1.501 . S
C223 C222 1.400 . S
C223 C224 1.398 . S
C224 H212 0.950 . S
C224 C223 1.398 . S
C224 C225 1.391 . S
C225 H213 0.950 . S
C225 C221 1.393 . S
C225 C224 1.391 . S
H226 C234 0.950 . S
H227 C239 0.950 . S
H228 C236 0.950 . S
H229 C238 0.950 . S
H230 C240 0.950 . S
H231 C242 0.950 . S
H232 C244 0.950 . S
H233 C245 0.950 . S
C234 H226 0.950 . S
C234 C235 1.386 . S
C234 C236 1.391 . S
C235 C234 1.386 . S
C235 C239 1.393 . S
C236 H228 0.950 . S
C236 C234 1.391 . S
C236 C237 1.400 . S
C237 C236 1.400 . S
C237 C238 1.398 . S
C237 C243 1.491 . S
C238 H229 0.950 . S
C238 C237 1.398 . S
C238 C239 1.391 . S
C239 H227 0.950 . S
C239 C235 1.393 . S
C239 C238 1.391 . S
C240 H230 0.950 . S
C240 C241 1.386 . S
C240 C242 1.391 . S
C241 C240 1.386 . S
C241 C245 1.393 . S
C242 H231 0.950 . S
C242 C240 1.391 . S
C242 C243 1.400 . S
C243 C237 1.491 . S
C243 C242 1.400 . S
C243 C244 1.398 . S
C244 H232 0.950 . S
C244 C243 1.398 . S
C244 C245 1.391 . S
C245 H233 0.950 . S
C245 C241 1.393 . S
C245 C244 1.391 . S
C75 C7 1.467 . S
C81 C62 1.476 . S
C95 C40 1.477 . S
C101 C18 1.454 . S
C115 C51 1.469 . S
C121 C29 1.471 . S
C135 C8 1.494 . S
C141 C49 1.315 . S
C155 C19 1.507 . S
C161 C60 1.356 . S
C175 C41 1.508 . S
C181 C27 1.350 . S
C195 C5 1.291 . S
C201 C52 1.490 . S
C215 C16 1.269 . S
C221 C63 1.508 . S
C235 C38 1.276 . S
C241 C30 1.508 . S
