# Generated by pormake.
# Topology mdf, (4)-cn, num edge types: 1
# Building blocks:
#     Node 0, Type 0, BuildingBlock: GALJAG_clean_sbu_0, # of connection points: 4
#     Node 1, Type 0, BuildingBlock: GALJAG_clean_sbu_0, # of connection points: 4
#     Node 2, Type 0, BuildingBlock: GALJAG_clean_sbu_0, # of connection points: 4
#     Node 3, Type 0, BuildingBlock: GALJAG_clean_sbu_0, # of connection points: 4
#     Node 4, Type 0, BuildingBlock: GALJAG_clean_sbu_0, # of connection points: 4
#     Node 5, Type 0, BuildingBlock: GALJAG_clean_sbu_0, # of connection points: 4
#     Node 6, Type 0, BuildingBlock: GALJAG_clean_sbu_0, # of connection points: 4
#     Node 7, Type 0, BuildingBlock: GALJAG_clean_sbu_0, # of connection points: 4
#     Edge 8, Type (0, 0), None
#     Edge 9, Type (0, 0), None
#     Edge 10, Type (0, 0), None
#     Edge 11, Type (0, 0), None
#     Edge 12, Type (0, 0), None
#     Edge 13, Type (0, 0), None
#     Edge 14, Type (0, 0), None
#     Edge 15, Type (0, 0), None
#     Edge 16, Type (0, 0), None
#     Edge 17, Type (0, 0), None
#     Edge 18, Type (0, 0), None
#     Edge 19, Type (0, 0), None
#     Edge 20, Type (0, 0), None
#     Edge 21, Type (0, 0), None
#     Edge 22, Type (0, 0), None
#     Edge 23, Type (0, 0), None
# Relax obj value: 0.054
# Max RMSD: 0.086
# Mean RMSD: 0.086
data_MOF--net-mdf--node1-GALJAG_clean_sbu_0--edge1-none
_symmetry_space_group_name_H-M    P1
_symmetry_Int_Tables_number       1
_symmetry_cell_setting            triclinic
loop_
_symmetry_equiv_pos_as_xyz
'x, y, z'
_cell_length_a     17.560156
_cell_length_b     16.986817
_cell_length_c     5.4196706
_cell_angle_alpha  89.47855
_cell_angle_beta   89.293185
_cell_angle_gamma 89.922978
loop_
_atom_site_label
_atom_site_type_symbol
_atom_site_fract_x
_atom_site_fract_y
_atom_site_fract_z
_atom_type_partial_charge
In0 In 0.2487 0.53581 0.32844 0.0
O1 O 0.29703 0.5673 0.94337 0.0
O2 O 0.31586 0.64792 0.23261 0.0
C3 C 0.12898 0.44116 0.22861 0.0
C4 C 0.36686 0.43982 0.43059 0.0
C5 C 0.17365 0.63259 0.64393 0.0
O6 O 0.15584 0.4892 0.07084 0.0
O7 O 0.16181 0.44121 0.43296 0.0
O8 O 0.20286 0.56832 0.71385 0.0
O9 O 0.18556 0.64952 0.42026 0.0
C10 C 0.32818 0.63044 0.01039 0.0
O11 O 0.33904 0.48571 0.59033 0.0
O12 O 0.33551 0.44245 0.22393 0.0
In13 In 0.47405 0.76474 0.5594 0.0
O14 O 0.4093 0.74043 0.91728 0.0
O15 O 0.3947 0.6588 0.62887 0.0
C16 C 0.56976 0.88348 0.67257 0.0
C17 C 0.5773 0.65213 0.46742 0.0
C18 C 0.38204 0.84966 0.2601 0.0
O19 O 0.53461 0.84404 0.83703 0.0
O20 O 0.55577 0.86412 0.45467 0.0
O21 O 0.43995 0.81316 0.18131 0.0
O22 O 0.36643 0.83756 0.48407 0.0
C23 C 0.37758 0.67829 0.84643 0.0
O24 O 0.53242 0.67705 0.30311 0.0
O25 O 0.56999 0.68362 0.67563 0.0
In26 In 0.25413 0.99805 0.8115 0.0
O27 O 0.27768 0.9365 0.17534 0.0
O28 O 0.35474 0.9156 0.87919 0.0
C29 C 0.13734 0.09491 0.91619 0.0
C30 C 0.36439 0.10245 0.72067 0.0
C31 C 0.17437 0.90089 0.51944 0.0
O32 O 0.17236 0.05791 0.08376 0.0
O33 O 0.1609 0.08295 0.69999 0.0
O34 O 0.20854 0.96117 0.43746 0.0
O35 O 0.18613 0.88555 0.74295 0.0
C36 C 0.33655 0.90121 0.10042 0.0
O37 O 0.34163 0.05588 0.55624 0.0
O38 O 0.33111 0.09698 0.92701 0.0
In39 In 0.02903 0.76979 0.08312 0.0
O40 O 0.96005 0.69277 0.34718 0.0
O41 O 0.94085 0.68284 -0.04074 0.0
C42 C 0.12517 0.8531 0.36375 0.0
C43 C 0.12591 0.68207 0.805 0.0
C44 C 0.92715 0.88303 -0.01654 0.0
O45 O 0.09071 0.79268 0.44304 0.0
O46 O 0.11108 0.87142 0.14395 0.0
O47 O 0.96519 0.84923 0.81482 0.0
O48 O 0.94082 0.86028 0.20024 0.0
C49 C 0.92385 0.66033 0.17489 0.0
O50 O 0.09427 0.74405 0.72759 0.0
O51 O 0.10899 0.66392 0.02419 0.0
In52 In 0.74869 0.03581 0.82863 0.0
O53 O 0.79702 0.06729 0.44358 0.0
O54 O 0.81588 0.1479 0.73285 0.0
C55 C 0.62895 0.94118 0.72865 0.0
C56 C 0.86681 0.93976 0.93075 0.0
C57 C 0.67366 0.13259 0.14413 0.0
O58 O 0.65584 0.98923 0.57093 0.0
O59 O 0.66174 0.94124 0.93308 0.0
O60 O 0.70286 0.06833 0.21406 0.0
O61 O 0.68557 0.14952 0.92046 0.0
C62 C 0.82819 0.13042 0.51062 0.0
O63 O 0.83902 0.98568 0.09049 0.0
O64 O 0.83545 0.9424 0.7241 0.0
In65 In 0.97405 0.2647 0.05954 0.0
O66 O 0.90933 0.2404 0.41747 0.0
O67 O 0.89471 0.15877 0.12909 0.0
C68 C 0.06981 0.38341 0.17259 0.0
C69 C 0.07729 0.1521 -0.03264 0.0
C70 C 0.88202 0.34963 0.76033 0.0
O71 O 0.03467 0.34398 0.3371 0.0
O72 O 0.05577 0.36409 -0.0453 0.0
O73 O 0.93992 0.31311 0.68148 0.0
O74 O 0.86643 0.33753 -0.01568 0.0
C75 C 0.8776 0.17826 0.34665 0.0
O76 O 0.03238 0.17702 0.80313 0.0
O77 O 0.07 0.18357 0.1756 0.0
In78 In 0.75413 0.49805 0.31176 0.0
O79 O 0.77768 0.43651 0.67564 0.0
O80 O 0.85471 0.41555 0.37943 0.0
C81 C 0.63737 0.59496 0.41634 0.0
C82 C 0.86442 0.6024 0.22084 0.0
C83 C 0.67435 0.40091 0.01968 0.0
O84 O 0.67236 0.55793 0.58395 0.0
O85 O 0.66094 0.58298 0.20017 0.0
O86 O 0.70852 0.46118 0.93772 0.0
O87 O 0.68611 0.38556 0.24318 0.0
C88 C 0.83653 0.40119 0.60067 0.0
O89 O 0.84164 0.55583 0.05645 0.0
O90 O 0.83115 0.59695 0.4272 0.0
In91 In 0.52903 0.26983 0.58321 0.0
O92 O 0.46 0.19282 0.84716 0.0
O93 O 0.44085 0.1829 0.45921 0.0
C94 C 0.62515 0.35312 0.86396 0.0
C95 C 0.62592 0.18209 0.30518 0.0
C96 C 0.42718 0.38308 0.4834 0.0
O97 O 0.5907 0.29269 0.94319 0.0
O98 O 0.61107 0.37146 0.64417 0.0
O99 O 0.46526 0.3493 0.31482 0.0
O100 O 0.44081 0.36032 0.70021 0.0
C101 C 0.42382 0.16039 0.67481 0.0
O102 O 0.59428 0.24407 0.22773 0.0
O103 O 0.609 0.16395 0.52438 0.0
loop_
_geom_bond_atom_site_label_1
_geom_bond_atom_site_label_2
_geom_bond_distance
_geom_bond_site_symmetry_2
_ccdc_geom_bond_type
In0 O1 2.294 1_554 S
In0 O2 2.326 . S
In0 O6 2.266 . S
In0 O7 2.326 . S
In0 O8 2.266 . S
In0 O9 2.326 . S
In0 O11 2.294 . S
In0 O12 2.326 . S
O1 In0 2.294 1_556 S
O1 C10 1.240 1_556 S
O2 In0 2.326 . S
O2 C10 1.252 . S
C3 O6 1.252 . S
C3 O7 1.260 . S
C4 O11 1.240 . S
C4 O12 1.252 . S
C5 O8 1.252 . S
C5 O9 1.260 . S
O6 In0 2.266 . S
O6 C3 1.252 . S
O7 In0 2.326 . S
O7 C3 1.260 . S
O8 In0 2.266 . S
O8 C5 1.252 . S
O9 In0 2.326 . S
O9 C5 1.260 . S
C10 O1 1.240 1_554 S
C10 O2 1.252 . S
O11 In0 2.294 . S
O11 C4 1.240 . S
O12 In0 2.326 . S
O12 C4 1.252 . S
In13 O14 2.294 1_556 S
In13 O15 2.326 . S
In13 O19 2.266 . S
In13 O20 2.326 . S
In13 O21 2.266 . S
In13 O22 2.326 . S
In13 O24 2.294 . S
In13 O25 2.326 . S
O14 In13 2.294 1_554 S
O14 C23 1.240 1_554 S
O15 In13 2.326 . S
O15 C23 1.252 . S
C16 O19 1.252 . S
C16 O20 1.260 . S
C17 O24 1.240 . S
C17 O25 1.252 . S
C18 O21 1.252 . S
C18 O22 1.260 . S
O19 In13 2.266 . S
O19 C16 1.252 . S
O20 In13 2.326 . S
O20 C16 1.260 . S
O21 In13 2.266 . S
O21 C18 1.252 . S
O22 In13 2.326 . S
O22 C18 1.260 . S
C23 O14 1.240 1_556 S
C23 O15 1.252 . S
O24 In13 2.294 . S
O24 C17 1.240 . S
O25 In13 2.326 . S
O25 C17 1.252 . S
In26 O27 2.294 1_556 S
In26 O28 2.326 . S
In26 O32 2.266 1_566 S
In26 O33 2.326 1_565 S
In26 O34 2.266 . S
In26 O35 2.326 . S
In26 O37 2.294 1_565 S
In26 O38 2.326 1_566 S
O27 In26 2.294 1_554 S
O27 C36 1.240 . S
O28 In26 2.326 . S
O28 C36 1.252 1_556 S
C29 O32 1.252 1_556 S
C29 O33 1.260 . S
C30 O37 1.240 . S
C30 O38 1.252 1_556 S
C31 O34 1.252 . S
C31 O35 1.260 . S
O32 In26 2.266 1_544 S
O32 C29 1.252 1_554 S
O33 In26 2.326 1_545 S
O33 C29 1.260 . S
O34 In26 2.266 . S
O34 C31 1.252 . S
O35 In26 2.326 . S
O35 C31 1.260 . S
C36 O27 1.240 . S
C36 O28 1.252 1_554 S
O37 In26 2.294 1_545 S
O37 C30 1.240 . S
O38 In26 2.326 1_544 S
O38 C30 1.252 1_554 S
In39 O40 2.294 1_455 S
In39 O41 2.326 1_454 S
In39 O45 2.266 . S
In39 O46 2.326 . S
In39 O47 2.266 1_454 S
In39 O48 2.326 1_455 S
In39 O50 2.294 1_554 S
In39 O51 2.326 . S
O40 In39 2.294 1_655 S
O40 C49 1.240 . S
O41 In39 2.326 1_656 S
O41 C49 1.252 1_556 S
C42 O45 1.252 . S
C42 O46 1.260 . S
C43 O50 1.240 . S
C43 O51 1.252 1_556 S
C44 O47 1.252 1_554 S
C44 O48 1.260 . S
O45 In39 2.266 . S
O45 C42 1.252 . S
O46 In39 2.326 . S
O46 C42 1.260 . S
O47 In39 2.266 1_656 S
O47 C44 1.252 1_556 S
O48 In39 2.326 1_655 S
O48 C44 1.260 . S
C49 O40 1.240 . S
C49 O41 1.252 1_554 S
O50 In39 2.294 1_556 S
O50 C43 1.240 . S
O51 In39 2.326 . S
O51 C43 1.252 1_554 S
In52 O53 2.294 . S
In52 O54 2.326 . S
In52 O58 2.266 1_545 S
In52 O59 2.326 1_546 S
In52 O60 2.266 1_556 S
In52 O61 2.326 . S
In52 O63 2.294 1_546 S
In52 O64 2.326 1_545 S
O53 In52 2.294 . S
O53 C62 1.240 . S
O54 In52 2.326 . S
O54 C62 1.252 . S
C55 O58 1.252 . S
C55 O59 1.260 1_556 S
C56 O63 1.240 1_556 S
C56 O64 1.252 . S
C57 O60 1.252 . S
C57 O61 1.260 1_554 S
O58 In52 2.266 1_565 S
O58 C55 1.252 . S
O59 In52 2.326 1_564 S
O59 C55 1.260 1_554 S
O60 In52 2.266 1_554 S
O60 C57 1.252 . S
O61 In52 2.326 . S
O61 C57 1.260 1_556 S
C62 O53 1.240 . S
C62 O54 1.252 . S
O63 In52 2.294 1_564 S
O63 C56 1.240 1_554 S
O64 In52 2.326 1_565 S
O64 C56 1.252 . S
In65 O66 2.294 . S
In65 O67 2.326 . S
In65 O71 2.266 1_655 S
In65 O72 2.326 1_654 S
In65 O73 2.266 1_554 S
In65 O74 2.326 . S
In65 O76 2.294 1_654 S
In65 O77 2.326 1_655 S
O66 In65 2.294 . S
O66 C75 1.240 . S
O67 In65 2.326 . S
O67 C75 1.252 . S
C68 O71 1.252 . S
C68 O72 1.260 1_554 S
C69 O76 1.240 1_554 S
C69 O77 1.252 . S
C70 O73 1.252 . S
C70 O74 1.260 1_556 S
O71 In65 2.266 1_455 S
O71 C68 1.252 . S
O72 In65 2.326 1_456 S
O72 C68 1.260 1_556 S
O73 In65 2.266 1_556 S
O73 C70 1.252 . S
O74 In65 2.326 . S
O74 C70 1.260 1_554 S
C75 O66 1.240 . S
C75 O67 1.252 . S
O76 In65 2.294 1_456 S
O76 C69 1.240 1_556 S
O77 In65 2.326 1_455 S
O77 C69 1.252 . S
In78 O79 2.294 . S
In78 O80 2.326 . S
In78 O84 2.266 . S
In78 O85 2.326 . S
In78 O86 2.266 1_554 S
In78 O87 2.326 . S
In78 O89 2.294 . S
In78 O90 2.326 . S
O79 In78 2.294 . S
O79 C88 1.240 . S
O80 In78 2.326 . S
O80 C88 1.252 . S
C81 O84 1.252 . S
C81 O85 1.260 . S
C82 O89 1.240 . S
C82 O90 1.252 . S
C83 O86 1.252 1_554 S
C83 O87 1.260 . S
O84 In78 2.266 . S
O84 C81 1.252 . S
O85 In78 2.326 . S
O85 C81 1.260 . S
O86 In78 2.266 1_556 S
O86 C83 1.252 1_556 S
O87 In78 2.326 . S
O87 C83 1.260 . S
C88 O79 1.240 . S
C88 O80 1.252 . S
O89 In78 2.294 . S
O89 C82 1.240 . S
O90 In78 2.326 . S
O90 C82 1.252 . S
In91 O92 2.294 . S
In91 O93 2.326 . S
In91 O97 2.266 1_556 S
In91 O98 2.326 . S
In91 O99 2.266 . S
In91 O100 2.326 . S
In91 O102 2.294 . S
In91 O103 2.326 . S
O92 In91 2.294 . S
O92 C101 1.240 . S
O93 In91 2.326 . S
O93 C101 1.252 . S
C94 O97 1.252 1_556 S
C94 O98 1.260 . S
C95 O102 1.240 . S
C95 O103 1.252 . S
C96 O99 1.252 . S
C96 O100 1.260 . S
O97 In91 2.266 1_554 S
O97 C94 1.252 1_554 S
O98 In91 2.326 . S
O98 C94 1.260 . S
O99 In91 2.266 . S
O99 C96 1.252 . S
O100 In91 2.326 . S
O100 C96 1.260 . S
C101 O92 1.240 . S
C101 O93 1.252 . S
O102 In91 2.294 . S
O102 C95 1.240 . S
O103 In91 2.326 . S
O103 C95 1.252 . S
C23 C10 1.477 1_556 S
C18 C36 1.477 . S
C42 C31 1.477 . S
C43 C5 1.477 . S
C62 C75 1.477 . S
C70 C88 1.477 . S
C83 C94 1.477 1_554 S
C57 C95 1.477 . S
C4 C96 1.543 . S
C55 C16 1.549 . S
C69 C29 1.543 1_554 S
C49 C82 1.536 . S
C30 C101 1.536 . S
C56 C44 1.543 1_556 S
C68 C3 1.549 . S
C17 C81 1.543 . S
