# Generated by pormake.
# Topology ukg, (4)-cn, num edge types: 1
# Building blocks:
#     Node 0, Type 0, BuildingBlock: ESEHIV_clean_sbu_0, # of connection points: 4
#     Node 1, Type 0, BuildingBlock: ESEHIV_clean_sbu_0, # of connection points: 4
#     Node 2, Type 0, BuildingBlock: ESEHIV_clean_sbu_0, # of connection points: 4
#     Node 3, Type 0, BuildingBlock: ESEHIV_clean_sbu_0, # of connection points: 4
#     Node 4, Type 0, BuildingBlock: ESEHIV_clean_sbu_0, # of connection points: 4
#     Node 5, Type 0, BuildingBlock: ESEHIV_clean_sbu_0, # of connection points: 4
#     Node 6, Type 0, BuildingBlock: ESEHIV_clean_sbu_0, # of connection points: 4
#     Node 7, Type 0, BuildingBlock: ESEHIV_clean_sbu_0, # of connection points: 4
#     Edge 8, Type (0, 0), None
#     Edge 9, Type (0, 0), None
#     Edge 10, Type (0, 0), None
#     Edge 11, Type (0, 0), None
#     Edge 12, Type (0, 0), None
#     Edge 13, Type (0, 0), None
#     Edge 14, Type (0, 0), None
#     Edge 15, Type (0, 0), None
#     Edge 16, Type (0, 0), None
#     Edge 17, Type (0, 0), None
#     Edge 18, Type (0, 0), None
#     Edge 19, Type (0, 0), None
#     Edge 20, Type (0, 0), None
#     Edge 21, Type (0, 0), None
#     Edge 22, Type (0, 0), None
#     Edge 23, Type (0, 0), None
# Relax obj value: 0.191
# Max RMSD: 0.212
# Mean RMSD: 0.189
data_MOF--net-ukg--node1-ESEHIV_clean_sbu_0--edge1-none
_symmetry_space_group_name_H-M    P1
_symmetry_Int_Tables_number       1
_symmetry_cell_setting            triclinic
loop_
_symmetry_equiv_pos_as_xyz
'x, y, z'
_cell_length_a     15.321676
_cell_length_b     15.636573
_cell_length_c     17.918611
_cell_angle_alpha  91.568267
_cell_angle_beta   91.100667
_cell_angle_gamma 94.952742
loop_
_atom_site_label
_atom_site_type_symbol
_atom_site_fract_x
_atom_site_fract_y
_atom_site_fract_z
_atom_type_partial_charge
Cu0 Cu 0.08015 0.69853 0.2734 0.0
N1 N 1.01354 0.78588 0.24235 0.0
N2 N 0.95182 0.90908 0.25736 0.0
C3 C 0.97035 0.83546 0.28906 0.0
C4 C 0.98405 0.90575 0.18799 0.0
C5 C 1.0212 0.829 0.17847 0.0
O6 O 1.01702 0.63927 0.35337 0.0
C7 C 0.21663 0.83252 0.32504 0.0
O8 O 0.15829 0.88901 0.32186 0.0
H9 H 0.96463 0.824 0.34816 0.0
H10 H 0.05994 0.81085 0.13175 0.0
N11 N 0.10657 0.62709 0.19208 0.0
N12 N 0.12213 0.51906 1.10973 0.0
C13 C 0.08301 0.54363 0.17329 0.0
C14 C 0.16269 0.65489 0.13934 0.0
C15 C 0.17208 0.58908 1.08856 0.0
C16 C 0.93638 0.61021 0.35139 0.0
O17 O 0.89097 0.60874 0.28842 0.0
H18 H 1.03735 0.50254 0.20454 0.0
H19 H 0.19472 0.71925 0.13807 0.0
O20 O 0.19422 0.75287 0.3106 0.0
H21 H 0.98905 0.95885 0.15035 0.0
H22 H 0.21173 0.59288 1.03913 0.0
Cu23 Cu 0.30885 0.56953 0.74936 0.0
N24 N 0.21044 0.49231 0.73263 0.0
N25 N 0.08569 0.4196 0.76393 0.0
C26 C 0.13321 0.4963 0.76635 0.0
C27 C 0.13367 0.36577 0.72549 0.0
C28 C 0.21051 0.4111 0.70568 0.0
O29 O 0.36906 0.53971 0.84161 0.0
C30 C 0.23191 0.72506 0.79983 0.0
O31 O 0.21077 0.68649 0.86193 0.0
H32 H 0.11847 0.54983 0.802 0.0
H33 H 0.26667 0.38429 0.68152 0.0
N34 N 0.38639 0.55647 0.67079 0.0
N35 N 0.51209 0.5508 0.60991 0.0
C36 C 0.47433 0.56002 0.67695 0.0
C37 C 0.36773 0.54384 0.59727 0.0
C38 C 0.44537 0.54038 0.55941 0.0
C39 C 0.33518 0.49196 0.89209 0.0
O40 O 0.25154 0.46654 0.88817 0.0
H41 H 0.50999 0.57129 0.72958 0.0
H42 H 0.30232 0.53877 0.57282 0.0
O43 O 0.27397 0.68698 0.74994 0.0
H44 H 0.11899 0.29687 0.72006 0.0
H45 H 0.4522 0.53285 0.49961 0.0
Cu46 Cu 0.46093 0.98209 0.32132 0.0
N47 N 0.53259 0.89543 0.34594 0.0
N48 N 0.63269 0.83178 0.41084 0.0
C49 C 0.57946 0.89561 0.41048 0.0
C50 C 0.6176 0.78793 0.3453 0.0
C51 C 0.55548 0.82729 0.30544 0.0
O52 O 0.51691 0.07699 0.38416 0.0
C53 C 0.31064 0.86193 0.3333 0.0
O54 O 0.3678 0.80497 0.32465 0.0
H55 H 0.57538 0.94205 0.45585 0.0
H56 H 0.52783 0.80632 0.25141 0.0
N57 N 0.47113 1.01069 0.21998 0.0
N58 N 0.46763 0.07925 1.11178 0.0
C59 C 0.43882 0.07605 0.18278 0.0
C60 C 0.52083 0.97207 0.17042 0.0
C61 C 0.51848 1.01343 1.10429 0.0
C62 C 0.59648 0.09743 0.36679 0.0
O63 O 0.62581 0.06445 0.30501 0.0
H64 H 0.39933 0.12254 0.2083 0.0
H65 H 0.56074 0.92053 0.18209 0.0
O66 O 0.33714 0.94195 0.33812 0.0
H67 H 0.64708 0.73035 0.32815 0.0
H68 H 0.55519 0.9985 1.05522 0.0
Cu69 Cu 0.10355 0.95202 0.79367 0.0
N70 N 0.19581 1.02428 0.75811 0.0
N71 N 0.32 0.10957 0.76524 0.0
C72 C 0.27261 0.04272 0.79473 0.0
C73 C 0.27229 0.13337 0.7066 0.0
C74 C 0.19543 0.0801 0.70212 0.0
O75 O 1.04463 1.01738 0.8702 0.0
C76 C 0.20148 0.80983 0.78394 0.0
O77 O 0.22119 0.84473 0.7199 0.0
H78 H 0.28976 1.01294 0.84618 0.0
H79 H 0.14036 0.08648 0.66469 0.0
N80 N 1.02306 0.92187 0.71536 0.0
N81 N 0.93142 0.93183 0.61802 0.0
C82 C 0.97668 0.97458 0.67509 0.0
C83 C 1.00489 0.84309 0.68362 0.0
C84 C 0.94869 0.84906 0.62335 0.0
C85 C 0.08182 0.06684 0.92158 0.0
O86 O 0.16687 0.06948 0.93268 0.0
H87 H 0.97947 0.04336 0.68528 0.0
H88 H 1.03275 0.78565 0.70156 0.0
O89 O 0.15076 0.84679 0.82779 0.0
H90 H 0.28743 0.19026 0.67459 0.0
H91 H 0.92488 0.79714 0.58502 0.0
Cu92 Cu 1.00562 0.29282 1.02126 0.0
N93 N 0.89815 0.26184 1.06157 0.0
N94 N 0.76127 0.28793 1.08374 0.0
C95 C 0.82143 0.28007 1.0312 0.0
C96 C 0.79986 0.27255 0.14954 0.0
C97 C 0.88487 0.2558 0.13546 0.0
O98 O 0.0576 0.38172 1.09194 0.0
C99 C 1.0315 0.13166 0.95876 0.0
O100 O 0.94905 0.13583 0.9389 0.0
H101 H 0.813 0.29829 0.9739 0.0
H102 H 0.93621 0.25051 0.17695 0.0
N103 N 0.98897 0.34505 0.9302 0.0
N104 N 1.02441 0.39421 0.81824 0.0
C105 C 1.03698 0.33436 0.86915 0.0
C106 C 0.94414 0.41376 0.91724 0.0
C107 C 0.96628 0.44456 0.8481 0.0
C108 C 0.10889 0.44352 1.06954 0.0
O109 O 0.14185 0.43714 1.00282 0.0
H110 H 0.08812 0.29083 0.86623 0.0
H111 H 0.9047 0.44404 0.958 0.0
O112 O 0.06983 0.19214 1.00001 0.0
H113 H 0.77105 0.27973 0.20379 0.0
H114 H 0.94824 0.50396 0.82494 0.0
Cu115 Cu 0.7544 0.59421 0.52306 0.0
N116 N 0.81461 0.53695 0.59446 0.0
N117 N 0.87937 0.41515 0.60184 0.0
C118 C 0.80506 0.45122 0.58607 0.0
C119 C 0.93681 0.48085 0.62596 0.0
C120 C 0.89606 0.55615 0.62286 0.0
O121 O 0.62974 0.55626 0.53114 0.0
C122 C 0.89129 0.59912 0.42293 0.0
O123 O 0.93214 0.63252 0.48319 0.0
H124 H 0.75272 0.41886 0.55165 0.0
H125 H 0.92875 0.62029 0.6271 0.0
N126 N 0.7572 0.71277 0.53131 0.0
N127 N 0.68699 0.80978 0.47048 0.0
C128 C 0.74338 0.74896 0.46545 0.0
C129 C 0.71269 0.75733 0.58114 0.0
C130 C 0.66904 0.81751 0.54355 0.0
C131 C 0.59974 0.5582 0.59727 0.0
O132 O 0.65495 0.5747 0.65389 0.0
H133 H 0.75989 0.71978 0.41291 0.0
H134 H 0.69985 0.73787 0.63756 0.0
O135 O 0.81 0.57275 0.42657 0.0
H136 H 1.00667 0.47687 0.63236 0.0
H137 H 0.61837 0.85409 0.56622 0.0
Cu138 Cu 0.44074 0.29406 0.99504 0.0
N139 N 0.54902 0.34141 1.02918 0.0
N140 N 0.68236 0.32561 1.07315 0.0
C141 C 0.62479 0.3069 1.01644 0.0
C142 C 0.64337 0.37503 1.1228 0.0
C143 C 0.56054 0.38495 1.09512 0.0
O144 O 0.41352 0.20339 1.06788 0.0
C145 C 0.39309 0.44801 0.94208 0.0
O146 O 0.47794 0.45928 0.9322 0.0
H147 H 0.63354 0.26033 0.97202 0.0
H148 H 0.50875 0.41263 0.12518 0.0
N149 N 0.4441 0.24236 0.90031 0.0
N150 N 0.38545 0.16217 0.80468 0.0
C151 C 0.38787 0.17525 0.87913 0.0
C152 C 0.47845 0.27335 0.83671 0.0
C153 C 0.44155 0.22388 0.777 0.0
C154 C 0.46049 0.14005 1.0594 0.0
O155 O 0.50971 0.13746 1.00033 0.0
H156 H 0.3431 0.14247 0.91702 0.0
H157 H 0.52124 0.33179 0.83343 0.0
O158 O 0.36228 0.38399 0.97931 0.0
H159 H 0.67035 0.39686 0.17696 0.0
H160 H 0.45055 0.23569 0.7183 0.0
Cu161 Cu 0.8388 0.10527 0.47483 0.0
N162 N 0.87148 0.2215 0.49453 0.0
N163 N 0.9029 0.34545 0.5579 0.0
C164 C 0.86374 0.26497 0.55973 0.0
C165 C 0.9341 0.35384 0.48842 0.0
C166 C 0.91481 0.27732 0.44953 0.0
O167 O 0.87728 0.04629 0.56216 0.0
C168 C 0.66296 0.13333 0.42203 0.0
O169 O 0.69105 0.21475 0.41838 0.0
H170 H 0.8271 0.23949 0.60641 0.0
H171 H 0.9285 0.26461 0.39155 0.0
N172 N 0.90118 0.06702 0.39327 0.0
N173 N 0.9415 0.98536 0.2983 0.0
C174 C 0.87943 0.99694 0.34896 0.0
C175 C 0.98064 0.09876 0.37065 0.0
C176 C 1.00551 0.04866 0.31172 0.0
C177 C 0.88645 0.96621 0.56168 0.0
O178 O 0.85907 0.91845 0.50309 0.0
H179 H 0.82179 0.95303 0.35608 0.0
H180 H 1.02041 0.15138 0.39792 0.0
O181 O 0.71384 0.08085 0.44904 0.0
H182 H 0.96152 0.41343 0.46557 0.0
H183 H 0.06843 0.05383 0.28499 0.0
loop_
_geom_bond_atom_site_label_1
_geom_bond_atom_site_label_2
_geom_bond_distance
_geom_bond_site_symmetry_2
_ccdc_geom_bond_type
Cu0 N1 1.999 . S
Cu0 O6 1.974 . S
Cu0 N11 1.985 1_655 S
Cu0 O20 1.959 1_655 S
N1 Cu0 1.999 . S
N1 C3 1.263 . S
N1 C5 1.389 . S
N2 C3 1.358 . S
N2 C4 1.400 . S
C3 N1 1.263 . S
C3 N2 1.358 . S
C3 H9 0.930 . S
C4 N2 1.400 . S
C4 C5 1.351 . S
C4 H21 0.930 . S
C5 N1 1.389 . S
C5 C4 1.351 . S
C5 H10 0.930 . S
O6 Cu0 1.974 . S
O6 C16 1.282 . S
C7 O8 1.261 . S
C7 O20 1.251 . S
O8 C7 1.261 . S
H9 C3 0.930 . S
H10 C5 0.930 . S
N11 Cu0 1.985 1_455 S
N11 C13 1.335 . S
N11 C14 1.390 1_455 S
N12 C13 1.345 . S
N12 C15 1.336 . S
C13 N11 1.335 . S
C13 N12 1.345 . S
C13 H18 0.931 1_554 S
C14 N11 1.390 1_655 S
C14 C15 1.346 1_655 S
C14 H19 0.930 . S
C15 N12 1.336 . S
C15 C14 1.346 1_455 S
C15 H22 0.929 . S
C16 O6 1.282 . S
C16 O17 1.216 . S
O17 C16 1.216 . S
H18 C13 0.931 1_556 S
H19 C14 0.930 . S
O20 Cu0 1.959 1_455 S
O20 C7 1.251 . S
H21 C4 0.930 . S
H22 C15 0.929 . S
Cu23 N24 1.999 . S
Cu23 O29 1.974 . S
Cu23 N34 1.985 . S
Cu23 O43 1.959 . S
N24 Cu23 1.999 . S
N24 C26 1.263 . S
N24 C28 1.389 . S
N25 C26 1.358 . S
N25 C27 1.400 . S
C26 N24 1.263 . S
C26 N25 1.358 . S
C26 H32 0.930 . S
C27 N25 1.400 . S
C27 C28 1.351 . S
C27 H44 0.930 . S
C28 N24 1.389 . S
C28 C27 1.351 . S
C28 H33 0.930 . S
O29 Cu23 1.974 . S
O29 C39 1.282 . S
C30 O31 1.261 . S
C30 O43 1.251 . S
O31 C30 1.261 . S
H32 C26 0.930 . S
H33 C28 0.930 . S
N34 Cu23 1.985 . S
N34 C36 1.335 . S
N34 C37 1.390 . S
N35 C36 1.345 . S
N35 C38 1.336 . S
C36 N34 1.335 . S
C36 N35 1.345 . S
C36 H41 0.930 . S
C37 N34 1.390 . S
C37 C38 1.346 . S
C37 H42 0.930 . S
C38 N35 1.336 . S
C38 C37 1.346 . S
C38 H45 0.929 . S
C39 O29 1.282 . S
C39 O40 1.216 . S
O40 C39 1.216 . S
H41 C36 0.930 . S
H42 C37 0.930 . S
O43 Cu23 1.959 . S
O43 C30 1.251 . S
H44 C27 0.930 . S
H45 C38 0.929 . S
Cu46 N47 1.999 . S
Cu46 O52 1.974 . S
Cu46 N57 1.985 . S
Cu46 O66 1.959 . S
N47 Cu46 1.999 . S
N47 C49 1.263 . S
N47 C51 1.389 . S
N48 C49 1.358 . S
N48 C50 1.400 . S
C49 N47 1.263 . S
C49 N48 1.358 . S
C49 H55 0.930 . S
C50 N48 1.400 . S
C50 C51 1.351 . S
C50 H67 0.930 . S
C51 N47 1.389 . S
C51 C50 1.351 . S
C51 H56 0.930 . S
O52 Cu46 1.974 . S
O52 C62 1.282 . S
C53 O54 1.261 . S
C53 O66 1.251 . S
O54 C53 1.261 . S
H55 C49 0.930 . S
H56 C51 0.930 . S
N57 Cu46 1.985 . S
N57 C59 1.335 . S
N57 C60 1.390 1_565 S
N58 C59 1.345 1_545 S
N58 C61 1.336 . S
C59 N57 1.335 . S
C59 N58 1.345 1_565 S
C59 H64 0.930 1_554 S
C60 N57 1.390 1_545 S
C60 C61 1.346 . S
C60 H65 0.930 . S
C61 N58 1.336 . S
C61 C60 1.346 . S
C61 H68 0.929 . S
C62 O52 1.282 . S
C62 O63 1.216 . S
O63 C62 1.216 . S
H64 C59 0.930 1_556 S
H65 C60 0.930 . S
O66 Cu46 1.959 . S
O66 C53 1.251 . S
H67 C50 0.930 . S
H68 C61 0.929 . S
Cu69 N70 1.999 . S
Cu69 O75 1.974 . S
Cu69 N80 1.985 1_545 S
Cu69 O89 1.959 1_545 S
N70 Cu69 1.999 . S
N70 C72 1.263 . S
N70 C74 1.389 . S
N71 C72 1.358 . S
N71 C73 1.400 . S
C72 N70 1.263 . S
C72 N71 1.358 . S
C72 H78 0.930 . S
C73 N71 1.400 . S
C73 C74 1.351 . S
C73 H90 0.930 . S
C74 N70 1.389 . S
C74 C73 1.351 . S
C74 H79 0.930 . S
O75 Cu69 1.974 . S
O75 C85 1.282 . S
C76 O77 1.261 . S
C76 O89 1.251 . S
O77 C76 1.261 . S
H78 C72 0.930 . S
H79 C74 0.930 . S
N80 Cu69 1.985 1_565 S
N80 C82 1.335 1_455 S
N80 C83 1.390 1_465 S
N81 C82 1.345 . S
N81 C84 1.336 . S
C82 N80 1.335 1_655 S
C82 N81 1.345 . S
C82 H87 0.930 1_655 S
C83 N80 1.390 1_645 S
C83 C84 1.346 1_545 S
C83 H88 0.930 . S
C84 N81 1.336 . S
C84 C83 1.346 1_565 S
C84 H91 0.929 . S
C85 O75 1.282 . S
C85 O86 1.216 1_455 S
O86 C85 1.216 1_655 S
H87 C82 0.930 1_455 S
H88 C83 0.930 . S
O89 Cu69 1.959 1_565 S
O89 C76 1.251 . S
H90 C73 0.930 . S
H91 C84 0.929 . S
Cu92 N93 1.999 . S
Cu92 O98 1.974 . S
Cu92 N103 1.985 1_655 S
Cu92 O112 1.959 . S
N93 Cu92 1.999 . S
N93 C95 1.263 . S
N93 C97 1.389 . S
N94 C95 1.358 . S
N94 C96 1.400 . S
C95 N93 1.263 . S
C95 N94 1.358 . S
C95 H101 0.930 . S
C96 N94 1.400 . S
C96 C97 1.351 . S
C96 H113 0.930 . S
C97 N93 1.389 . S
C97 C96 1.351 . S
C97 H102 0.930 . S
O98 Cu92 1.974 . S
O98 C108 1.282 . S
C99 O100 1.261 . S
C99 O112 1.251 1_455 S
O100 C99 1.261 . S
H101 C95 0.930 . S
H102 C97 0.930 . S
N103 Cu92 1.985 1_455 S
N103 C105 1.335 . S
N103 C106 1.390 . S
N104 C105 1.345 . S
N104 C107 1.336 . S
C105 N103 1.335 . S
C105 N104 1.345 . S
C105 H110 0.930 . S
C106 N103 1.390 . S
C106 C107 1.346 . S
C106 H111 0.930 . S
C107 N104 1.336 . S
C107 C106 1.346 . S
C107 H114 0.929 . S
C108 O98 1.282 . S
C108 O109 1.216 1_655 S
O109 C108 1.216 1_455 S
H110 C105 0.930 . S
H111 C106 0.930 . S
O112 Cu92 1.959 . S
O112 C99 1.251 1_655 S
H113 C96 0.930 . S
H114 C107 0.929 . S
Cu115 N116 1.999 . S
Cu115 O121 1.974 . S
Cu115 N126 1.985 . S
Cu115 O135 1.959 . S
N116 Cu115 1.999 . S
N116 C118 1.263 . S
N116 C120 1.389 . S
N117 C118 1.358 . S
N117 C119 1.400 . S
C118 N116 1.263 . S
C118 N117 1.358 . S
C118 H124 0.930 . S
C119 N117 1.400 . S
C119 C120 1.351 . S
C119 H136 0.930 . S
C120 N116 1.389 . S
C120 C119 1.351 . S
C120 H125 0.930 . S
O121 Cu115 1.974 . S
O121 C131 1.282 . S
C122 O123 1.261 . S
C122 O135 1.251 . S
O123 C122 1.261 . S
H124 C118 0.930 . S
H125 C120 0.930 . S
N126 Cu115 1.985 . S
N126 C128 1.335 . S
N126 C129 1.390 . S
N127 C128 1.345 . S
N127 C130 1.336 . S
C128 N126 1.335 . S
C128 N127 1.345 . S
C128 H133 0.930 . S
C129 N126 1.390 . S
C129 C130 1.346 . S
C129 H134 0.930 . S
C130 N127 1.336 . S
C130 C129 1.346 . S
C130 H137 0.929 . S
C131 O121 1.282 . S
C131 O132 1.216 . S
O132 C131 1.216 . S
H133 C128 0.930 . S
H134 C129 0.930 . S
O135 Cu115 1.959 . S
O135 C122 1.251 . S
H136 C119 0.930 . S
H137 C130 0.929 . S
Cu138 N139 1.999 . S
Cu138 O144 1.974 . S
Cu138 N149 1.985 . S
Cu138 O158 1.959 . S
N139 Cu138 1.999 . S
N139 C141 1.263 . S
N139 C143 1.389 . S
N140 C141 1.358 . S
N140 C142 1.400 . S
C141 N139 1.263 . S
C141 N140 1.358 . S
C141 H147 0.930 . S
C142 N140 1.400 . S
C142 C143 1.351 . S
C142 H159 0.930 . S
C143 N139 1.389 . S
C143 C142 1.351 . S
C143 H148 0.930 . S
O144 Cu138 1.974 . S
O144 C154 1.282 . S
C145 O146 1.261 . S
C145 O158 1.251 . S
O146 C145 1.261 . S
H147 C141 0.930 . S
H148 C143 0.930 . S
N149 Cu138 1.985 . S
N149 C151 1.335 . S
N149 C152 1.390 . S
N150 C151 1.345 . S
N150 C153 1.336 . S
C151 N149 1.335 . S
C151 N150 1.345 . S
C151 H156 0.930 . S
C152 N149 1.390 . S
C152 C153 1.346 . S
C152 H157 0.930 . S
C153 N150 1.336 . S
C153 C152 1.346 . S
C153 H160 0.929 . S
C154 O144 1.282 . S
C154 O155 1.216 . S
O155 C154 1.216 . S
H156 C151 0.930 . S
H157 C152 0.930 . S
O158 Cu138 1.959 . S
O158 C145 1.251 . S
H159 C142 0.930 . S
H160 C153 0.929 . S
Cu161 N162 1.999 . S
Cu161 O167 1.974 . S
Cu161 N172 1.985 1_545 S
Cu161 O181 1.959 . S
N162 Cu161 1.999 . S
N162 C164 1.263 . S
N162 C166 1.389 . S
N163 C164 1.358 . S
N163 C165 1.400 . S
C164 N162 1.263 . S
C164 N163 1.358 . S
C164 H170 0.930 . S
C165 N163 1.400 . S
C165 C166 1.351 . S
C165 H182 0.930 . S
C166 N162 1.389 . S
C166 C165 1.351 . S
C166 H171 0.930 . S
O167 Cu161 1.974 . S
O167 C177 1.282 . S
C168 O169 1.261 . S
C168 O181 1.251 1_565 S
O169 C168 1.261 . S
H170 C164 0.930 . S
H171 C166 0.930 . S
N172 Cu161 1.985 1_565 S
N172 C174 1.335 . S
N172 C175 1.390 . S
N173 C174 1.345 . S
N173 C176 1.336 . S
C174 N172 1.335 . S
C174 N173 1.345 . S
C174 H179 0.930 . S
C175 N172 1.390 . S
C175 C176 1.346 . S
C175 H180 0.930 . S
C176 N173 1.336 . S
C176 C175 1.346 . S
C176 H183 0.929 . S
C177 O167 1.282 . S
C177 O178 1.216 1_545 S
O178 C177 1.216 1_565 S
H179 C174 0.930 . S
H180 C175 0.930 . S
O181 Cu161 1.959 . S
O181 C168 1.251 1_545 S
H182 C165 0.930 . S
H183 C176 0.929 . S
C108 N12 2.168 1_656 S
N35 C131 2.068 . S
N58 C154 2.028 1_554 S
C177 N81 2.134 1_545 S
C7 C53 3.490 . S
C30 C76 3.492 . S
N140 N94 2.231 . S
N117 N163 2.230 . S
C122 C16 2.450 . S
C39 C145 2.470 . S
C62 C168 2.381 . S
C99 C85 2.363 . S
N104 N25 2.664 . S
N127 N48 2.732 . S
N150 N71 2.700 . S
N2 N173 2.632 . S
