# Generated by pormake.
# Topology qtz, (4)-cn, num edge types: 1
# Building blocks:
#     Node 0, Type 0, BuildingBlock: AZAVOO_clean_sbu_0, # of connection points: 4
#     Node 1, Type 0, BuildingBlock: AZAVOO_clean_sbu_0, # of connection points: 4
#     Node 2, Type 0, BuildingBlock: AZAVOO_clean_sbu_0, # of connection points: 4
#     Edge 3, Type (0, 0), BuildingBlock: OJICUG_clean_linker_0, # of connection points: 2
#     Edge 4, Type (0, 0), BuildingBlock: OJICUG_clean_linker_0, # of connection points: 2
#     Edge 5, Type (0, 0), BuildingBlock: OJICUG_clean_linker_0, # of connection points: 2
#     Edge 6, Type (0, 0), BuildingBlock: OJICUG_clean_linker_0, # of connection points: 2
#     Edge 7, Type (0, 0), BuildingBlock: OJICUG_clean_linker_0, # of connection points: 2
#     Edge 8, Type (0, 0), BuildingBlock: OJICUG_clean_linker_0, # of connection points: 2
# Relax obj value: 0.164
# Max RMSD: 0.231
# Mean RMSD: 0.199
data_MOF--net-qtz--node1-AZAVOO_clean_sbu_0--edge1-OJICUG_clean_linker_0
_symmetry_space_group_name_H-M    P1
_symmetry_Int_Tables_number       1
_symmetry_cell_setting            triclinic
loop_
_symmetry_equiv_pos_as_xyz
'x, y, z'
_cell_length_a     16.734783
_cell_length_b     17.408252
_cell_length_c     21.89402
_cell_angle_alpha  91.213861
_cell_angle_beta   97.799926
_cell_angle_gamma 125.20024
loop_
_atom_site_label
_atom_site_type_symbol
_atom_site_fract_x
_atom_site_fract_y
_atom_site_fract_z
_atom_type_partial_charge
Mg0 Mg 0.97783 0.49764 0.10915 0.0
O1 O 0.10156 0.63941 0.16961 0.0
O2 O 0.02569 0.67348 0.23026 0.0
Mg3 Mg 0.861 0.55087 0.21583 0.0
C4 C 0.10365 0.69383 0.21098 0.0
C5 C 0.08551 0.45279 0.03032 0.0
O6 O 0.03476 0.37569 0.05726 0.0
O7 O 0.91593 0.56657 0.05165 0.0
O8 O 0.83782 0.58707 0.11837 0.0
O9 O 0.99944 0.41635 0.17841 0.0
O10 O 0.89638 0.45718 0.1793 0.0
C11 C 0.86116 0.59142 0.06477 0.0
C12 C 0.93578 0.41783 0.20502 0.0
O13 O 0.07911 0.52062 0.04235 0.0
Mg14 Mg 0.6401 0.11313 0.47521 0.0
O15 O 0.51088 0.01824 0.39326 0.0
O16 O 0.4864 0.11149 0.33771 0.0
Mg17 Mg 0.60461 0.26501 0.37985 0.0
C18 C 0.46351 0.02982 0.34794 0.0
C19 C 0.66764 0.99449 0.56356 0.0
O20 O 0.75365 0.07802 0.57703 0.0
O21 O 0.54162 0.1363 0.52446 0.0
O22 O 0.52917 0.23319 0.46455 0.0
O23 O 0.75142 0.13572 0.41796 0.0
O24 O 0.69997 0.22684 0.42591 0.0
C25 C 0.51057 0.18722 0.51155 0.0
C26 C 0.75414 0.20843 0.40225 0.0
O27 O 0.60021 0.98383 0.52191 0.0
Mg28 Mg 0.4095 0.49448 0.76321 0.0
O29 O 0.54561 0.55031 0.8398 0.0
O30 O 0.57091 0.6702 0.90007 0.0
Mg31 Mg 0.45583 0.69532 0.86053 0.0
C32 C 0.59428 0.61483 0.88627 0.0
C33 C 0.37897 0.34096 0.66984 0.0
O34 O 0.29449 0.33101 0.65471 0.0
O35 O 0.50222 0.62035 0.71064 0.0
O36 O 0.52508 0.73761 0.77317 0.0
O37 O 0.3078 0.40075 0.82606 0.0
O38 O 0.35562 0.54727 0.81783 0.0
C39 C 0.53767 0.70736 0.72433 0.0
C40 C 0.30715 0.47168 0.84419 0.0
O41 O 0.44484 0.40447 0.71345 0.0
C42 C 0.20703 0.38847 0.92641 0.0
C43 C 0.25433 0.46784 0.89405 0.0
H44 H 0.1166 0.32152 -0.00474 0.0
C45 C 0.24783 0.54302 0.90809 0.0
H46 H 0.21065 0.32942 0.91652 0.0
C47 C 0.19444 0.53873 0.95309 0.0
C48 C 0.14581 0.45887 -0.01517 0.0
H49 H 0.28232 0.60474 0.88351 0.0
H50 H 0.19003 0.59748 -0.0378 0.0
C51 C 0.15321 0.38402 -0.02855 0.0
C52 C 0.86983 0.40437 0.30182 0.0
C53 C 0.90478 0.37197 0.26107 0.0
H54 H 0.79637 0.37867 0.37892 0.0
C55 C 0.89928 0.28959 0.27066 0.0
H56 H 0.87575 0.46895 0.29667 0.0
C57 C 0.85285 0.23682 0.31801 0.0
C58 C 0.81209 0.26646 0.35616 0.0
H59 H 0.92597 0.26337 0.23964 0.0
H60 H 0.84551 0.17139 0.32316 0.0
C61 C 0.8242 0.35235 0.34897 0.0
C62 C 0.69731 0.93912 0.6623 0.0
C63 C 0.64568 0.91753 0.60116 0.0
H64 H 0.7027 0.88797 0.74975 0.0
C65 C 0.56794 0.82286 0.57826 0.0
H66 H 0.75768 0.01144 0.68108 0.0
C67 C 0.53851 0.75177 0.61714 0.0
C68 C 0.5849 0.77504 0.67969 0.0
H69 H 0.52761 0.80436 0.53105 0.0
H70 H 0.47489 0.68014 0.59959 0.0
C71 C 0.6662 0.86861 0.70151 0.0
C72 C 0.71238 0.67335 -0.01249 0.0
C73 C 0.67597 0.62153 0.92814 0.0
H74 H 0.80084 0.70518 0.07718 0.0
C75 C 0.71353 0.57127 0.91127 0.0
H76 H 0.68581 0.71349 0.00197 0.0
C77 C 0.78119 0.56801 0.95431 0.0
C78 C 0.81111 0.61372 0.01516 0.0
H79 H 0.68786 0.53152 0.86564 0.0
H80 H 0.80466 0.52452 0.9412 0.0
C81 C 0.77859 0.66887 0.03066 0.0
C82 C 0.29275 0.94623 0.28533 0.0
C83 C 0.37494 0.94568 0.30842 0.0
H84 H 0.14183 0.866 0.23705 0.0
C85 C 0.36957 0.8632 0.29549 0.0
H86 H 0.2946 0.00862 0.29485 0.0
C87 C 0.28294 0.78237 0.26065 0.0
C88 C 0.19947 0.78199 0.24004 0.0
H89 H 0.43204 0.86107 0.31261 0.0
H90 H 0.27968 0.71899 0.25219 0.0
C91 C 0.20537 0.86473 0.25236 0.0
C92 C 0.35178 0.24897 0.57078 0.0
C93 C 0.4011 0.28595 0.63253 0.0
H94 H 0.34843 0.18794 0.48363 0.0
C95 C 0.4764 0.27577 0.65656 0.0
H96 H 0.2933 0.25554 0.55105 0.0
C97 C 0.50577 0.23428 0.61835 0.0
C98 C 0.4618 0.20457 0.55533 0.0
H99 H 0.51497 0.30291 0.70423 0.0
H100 H 0.56774 0.23205 0.63687 0.0
C101 C 0.38287 0.20988 0.53227 0.0
loop_
_geom_bond_atom_site_label_1
_geom_bond_atom_site_label_2
_geom_bond_distance
_geom_bond_site_symmetry_2
_ccdc_geom_bond_type
Mg0 O1 2.028 1_655 S
Mg0 O7 1.986 . S
Mg0 O9 2.114 . S
Mg0 O10 2.251 . S
Mg0 O13 2.010 1_655 S
O1 Mg0 2.028 1_455 S
O1 C4 1.250 . S
O2 Mg3 2.028 1_455 S
O2 C4 1.248 . S
Mg3 O2 2.028 1_655 S
Mg3 O8 2.032 . S
Mg3 O10 2.079 . S
C4 O1 1.250 . S
C4 O2 1.248 . S
C5 O6 1.264 . S
C5 O13 1.249 . S
O6 C5 1.264 . S
O7 Mg0 1.986 . S
O7 C11 1.246 . S
O8 Mg3 2.032 . S
O8 C11 1.259 . S
O9 Mg0 2.114 . S
O9 C12 1.252 . S
O10 Mg0 2.251 . S
O10 Mg3 2.079 . S
O10 C12 1.273 . S
C11 O7 1.246 . S
C11 O8 1.259 . S
C12 O9 1.252 . S
C12 O10 1.273 . S
O13 Mg0 2.010 1_455 S
O13 C5 1.249 . S
Mg14 O15 2.028 1_545 S
Mg14 O21 1.986 . S
Mg14 O23 2.114 . S
Mg14 O24 2.251 . S
Mg14 O27 2.010 . S
O15 Mg14 2.028 1_565 S
O15 C18 1.250 . S
O16 Mg17 2.028 . S
O16 C18 1.248 1_545 S
Mg17 O16 2.028 . S
Mg17 O22 2.032 . S
Mg17 O24 2.079 . S
C18 O15 1.250 . S
C18 O16 1.248 1_565 S
C19 O20 1.264 . S
C19 O27 1.249 1_565 S
O20 C19 1.264 . S
O21 Mg14 1.986 . S
O21 C25 1.246 . S
O22 Mg17 2.032 . S
O22 C25 1.259 . S
O23 Mg14 2.114 . S
O23 C26 1.252 . S
O24 Mg14 2.251 . S
O24 Mg17 2.079 . S
O24 C26 1.273 . S
C25 O21 1.246 . S
C25 O22 1.259 . S
C26 O23 1.252 . S
C26 O24 1.273 . S
O27 Mg14 2.010 . S
O27 C19 1.249 1_545 S
Mg28 O29 2.028 . S
Mg28 O35 1.986 . S
Mg28 O37 2.114 . S
Mg28 O38 2.251 . S
Mg28 O41 2.010 . S
O29 Mg28 2.028 . S
O29 C32 1.250 . S
O30 Mg31 2.028 . S
O30 C32 1.248 . S
Mg31 O30 2.028 . S
Mg31 O36 2.032 . S
Mg31 O38 2.079 . S
C32 O29 1.250 . S
C32 O30 1.248 . S
C33 O34 1.264 . S
C33 O41 1.249 . S
O34 C33 1.264 . S
O35 Mg28 1.986 . S
O35 C39 1.246 . S
O36 Mg31 2.032 . S
O36 C39 1.259 . S
O37 Mg28 2.114 . S
O37 C40 1.252 . S
O38 Mg28 2.251 . S
O38 Mg31 2.079 . S
O38 C40 1.273 . S
C39 O35 1.246 . S
C39 O36 1.259 . S
C40 O37 1.252 . S
C40 O38 1.273 . S
O41 Mg28 2.010 . S
O41 C33 1.249 . S
C42 C43 1.387 . S
C42 H46 0.950 . S
C42 C51 1.390 1_556 S
C43 C42 1.387 . S
C43 C45 1.387 . S
H44 C51 0.950 . S
C45 C43 1.387 . S
C45 C47 1.390 1_556 S
C45 H49 0.950 . S
H46 C42 0.950 . S
C47 C45 1.390 1_554 S
C47 C48 1.387 . S
C47 H50 0.950 . S
C48 C47 1.387 . S
C48 C51 1.387 . S
H49 C45 0.950 . S
H50 C47 0.950 . S
C51 C42 1.390 1_554 S
C51 H44 0.950 . S
C51 C48 1.387 . S
C52 C53 1.387 . S
C52 H56 0.950 . S
C52 C61 1.390 . S
C53 C52 1.387 . S
C53 C55 1.387 . S
H54 C61 0.950 . S
C55 C53 1.387 . S
C55 C57 1.390 . S
C55 H59 0.950 . S
H56 C52 0.950 . S
C57 C55 1.390 . S
C57 C58 1.387 . S
C57 H60 0.950 . S
C58 C57 1.387 . S
C58 C61 1.387 . S
H59 C55 0.950 . S
H60 C57 0.950 . S
C61 C52 1.390 . S
C61 H54 0.950 . S
C61 C58 1.387 . S
C62 C63 1.387 . S
C62 H66 0.950 . S
C62 C71 1.390 . S
C63 C62 1.387 . S
C63 C65 1.387 . S
H64 C71 0.950 . S
C65 C63 1.387 . S
C65 C67 1.390 . S
C65 H69 0.950 . S
H66 C62 0.950 . S
C67 C65 1.390 . S
C67 C68 1.387 . S
C67 H70 0.950 . S
C68 C67 1.387 . S
C68 C71 1.387 . S
H69 C65 0.950 . S
H70 C67 0.950 . S
C71 C62 1.390 . S
C71 H64 0.950 . S
C71 C68 1.387 . S
C72 C73 1.387 . S
C72 H76 0.950 . S
C72 C81 1.390 1_556 S
C73 C72 1.387 . S
C73 C75 1.387 . S
H74 C81 0.950 . S
C75 C73 1.387 . S
C75 C77 1.390 1_556 S
C75 H79 0.950 . S
H76 C72 0.950 . S
C77 C75 1.390 1_554 S
C77 C78 1.387 . S
C77 H80 0.950 . S
C78 C77 1.387 . S
C78 C81 1.387 . S
H79 C75 0.950 . S
H80 C77 0.950 . S
C81 C72 1.390 1_554 S
C81 H74 0.950 . S
C81 C78 1.387 . S
C82 C83 1.387 . S
C82 H86 0.950 . S
C82 C91 1.390 . S
C83 C82 1.387 . S
C83 C85 1.387 . S
H84 C91 0.950 . S
C85 C83 1.387 . S
C85 C87 1.390 . S
C85 H89 0.950 . S
H86 C82 0.950 . S
C87 C85 1.390 . S
C87 C88 1.387 . S
C87 H90 0.950 . S
C88 C87 1.387 . S
C88 C91 1.387 . S
H89 C85 0.950 . S
H90 C87 0.950 . S
C91 C82 1.390 . S
C91 H84 0.950 . S
C91 C88 1.387 . S
C92 C93 1.387 . S
C92 H96 0.950 . S
C92 C101 1.390 . S
C93 C92 1.387 . S
C93 C95 1.387 . S
H94 C101 0.950 . S
C95 C93 1.387 . S
C95 C97 1.390 . S
C95 H99 0.950 . S
H96 C92 0.950 . S
C97 C95 1.390 . S
C97 C98 1.387 . S
C97 H100 0.950 . S
C98 C97 1.387 . S
C98 C101 1.387 . S
H99 C95 0.950 . S
H100 C97 0.950 . S
C101 C92 1.390 . S
C101 H94 0.950 . S
C101 C98 1.387 . S
C43 C40 1.385 . S
C48 C5 1.165 . S
C53 C12 1.413 . S
C58 C26 1.406 . S
C63 C19 1.140 . S
C68 C39 1.321 . S
C73 C32 1.328 . S
C78 C11 1.335 . S
C83 C18 1.382 . S
C88 C4 1.377 . S
C93 C33 1.159 . S
C98 C25 1.315 . S
