# Generated by pormake.
# Topology kag, (6)-cn, num edge types: 1
# Building blocks:
#     Node 0, Type 0, BuildingBlock: MIFKUJ_clean_sbu_0, # of connection points: 6
#     Node 1, Type 0, BuildingBlock: MIFKUJ_clean_sbu_0, # of connection points: 6
#     Node 2, Type 0, BuildingBlock: MIFKUJ_clean_sbu_0, # of connection points: 6
#     Edge 3, Type (0, 0), BuildingBlock: XIVTED_clean_linker_0, # of connection points: 2
#     Edge 4, Type (0, 0), BuildingBlock: XIVTED_clean_linker_0, # of connection points: 2
#     Edge 5, Type (0, 0), BuildingBlock: XIVTED_clean_linker_0, # of connection points: 2
#     Edge 6, Type (0, 0), BuildingBlock: XIVTED_clean_linker_0, # of connection points: 2
#     Edge 7, Type (0, 0), BuildingBlock: XIVTED_clean_linker_0, # of connection points: 2
#     Edge 8, Type (0, 0), BuildingBlock: XIVTED_clean_linker_0, # of connection points: 2
#     Edge 9, Type (0, 0), BuildingBlock: XIVTED_clean_linker_0, # of connection points: 2
#     Edge 10, Type (0, 0), BuildingBlock: XIVTED_clean_linker_0, # of connection points: 2
#     Edge 11, Type (0, 0), BuildingBlock: XIVTED_clean_linker_0, # of connection points: 2
# Relax obj value: 0.013
# Max RMSD: 0.072
# Mean RMSD: 0.048
data_MOF--net-kag--node1-MIFKUJ_clean_sbu_0--edge1-XIVTED_clean_linker_0
_symmetry_space_group_name_H-M    P1
_symmetry_Int_Tables_number       1
_symmetry_cell_setting            triclinic
loop_
_symmetry_equiv_pos_as_xyz
'x, y, z'
_cell_length_a     35.066323
_cell_length_b     34.744874
_cell_length_c     14.545317
_cell_angle_alpha  91.878618
_cell_angle_beta   97.16935
_cell_angle_gamma 116.50537
loop_
_atom_site_label
_atom_site_type_symbol
_atom_site_fract_x
_atom_site_fract_y
_atom_site_fract_z
_atom_type_partial_charge
Zn0 Zn 0.04645 0.54843 -0.01883 0.0
Zn1 Zn 0.96117 0.45454 0.95054 0.0
C2 C 0.10528 0.52075 0.06923 0.0
O3 O 0.10432 0.54597 0.13729 0.0
C4 C 0.8936 0.47236 0.86884 0.0
O5 O 0.89489 0.44793 0.79957 0.0
O6 O 0.09293 0.61059 -0.00523 0.0
O7 O 0.0127 0.53778 0.85388 0.0
O8 O 0.9923 0.46779 0.84057 0.0
C9 C 0.12587 0.61781 0.95644 0.0
O10 O 0.12691 0.58584 0.90785 0.0
O11 O 0.07977 0.51329 -0.00687 0.0
C12 C 0.91766 0.364 -0.00651 0.0
O13 O 0.94391 0.37747 0.07318 0.0
O14 O 0.9208 0.39055 0.93332 0.0
O15 O 0.99472 0.47025 0.07947 0.0
O16 O 0.01247 0.53972 0.08604 0.0
O17 O 0.92096 0.48189 0.94255 0.0
C18 C 0.99891 0.50234 0.8035 0.0
C19 C 0.99979 0.50465 0.12421 0.0
Zn20 Zn 0.46568 0.96215 0.96359 0.0
Zn21 Zn 0.56025 0.03998 0.97738 0.0
C22 C 0.49078 0.89734 0.91742 0.0
O23 O 0.46637 0.8946 0.83879 0.0
C24 C 0.54729 0.1099 0.04008 0.0
O25 O 0.57232 0.10711 0.11201 0.0
O26 O 0.40367 0.91938 0.96476 0.0
O27 O 0.4833 0.00517 0.07364 0.0
O28 O 0.54887 0.0114 0.09563 0.0
C29 C 0.39782 0.89482 0.03008 0.0
O30 O 0.43098 0.90108 0.09274 0.0
O31 O 0.49743 0.92594 -0.01748 0.0
C32 C 0.63768 0.0969 0.91568 0.0
O33 O 0.60989 0.08924 0.83954 0.0
O34 O 0.62424 0.07778 -0.01331 0.0
O35 O 0.54167 0.00131 0.85805 0.0
O36 O 0.47238 0.98432 0.83842 0.0
O37 O 0.5352 0.0824 0.96933 0.0
C38 C 0.51523 0.00668 0.12806 0.0
C39 C 0.50602 0.98985 0.80487 0.0
Zn40 Zn 0.54385 0.47052 -0.01934 0.0
Zn41 Zn 0.4624 0.53345 -0.00627 0.0
C42 C 0.53968 0.39276 0.02893 0.0
O43 O 0.56775 0.42141 0.0957 0.0
C44 C 0.5112 0.62374 0.96565 0.0
O45 O 0.52466 0.60772 0.90109 0.0
O46 O 0.60631 0.49558 0.96107 0.0
O47 O 0.50972 0.4907 0.88753 0.0
O48 O 0.46571 0.51967 0.85813 0.0
C49 C 0.61459 0.47759 0.894 0.0
O50 O 0.5825 0.44604 0.83898 0.0
O51 O 0.52184 0.40561 0.96377 0.0
C52 C 0.39005 0.52519 0.07815 0.0
O53 O 0.4211 0.55657 0.13556 0.0
O54 O 0.39977 0.50838 0.01154 0.0
O55 O 0.49612 0.51297 0.08601 0.0
O56 O 0.54024 0.48434 0.116 0.0
O57 O 0.48608 0.59832 0.01655 0.0
C58 C 0.48851 0.50324 0.82891 0.0
C59 C 0.51703 0.50028 0.14485 0.0
H60 H 0.96183 0.43143 0.67535 0.0
H61 H 0.00934 0.57224 0.24302 0.0
H62 H 0.01525 0.57063 0.69968 0.0
H63 H 0.97066 0.43516 0.2256 0.0
H64 H 0.99916 0.57056 0.40617 0.0
H65 H 0.95209 0.43074 0.50626 0.0
C66 C 0.97153 0.46186 0.64513 0.0
C67 C 0.99042 0.50125 0.70154 0.0
C68 C 0.99267 0.54083 0.36635 0.0
C69 C 0.97931 0.50066 0.50839 0.0
C70 C 0.99859 0.54177 0.27335 0.0
C71 C 0.99168 0.50392 0.22118 0.0
C72 C 0.97991 0.50181 0.40728 0.0
C73 C 0.97706 0.46524 0.26353 0.0
C74 C 0.96579 0.46142 0.54863 0.0
C75 C 1.00131 0.53959 0.65872 0.0
N76 N 0.97202 0.46525 0.35439 0.0
N77 N 0.99605 0.53838 0.56453 0.0
H78 H 0.44483 0.98766 0.21396 0.0
H79 H 0.56863 0.98853 0.71273 0.0
H80 H 0.57608 0.00572 0.26386 0.0
H81 H 0.43908 0.97534 0.66658 0.0
H82 H 0.56801 0.9846 0.54513 0.0
H83 H 0.43881 0.97408 0.37615 0.0
C84 C 0.47244 0.98887 0.25911 0.0
C85 C 0.51126 -0.00154 0.22581 0.0
C86 C 0.53962 0.98234 0.57155 0.0
C87 C 0.50448 0.98277 0.41123 0.0
C88 C 0.53996 0.98466 0.66728 0.0
C89 C 0.5042 0.98327 0.70363 0.0
C90 C 0.50341 0.979 0.51176 0.0
C91 C 0.46761 0.97726 0.64147 0.0
C92 C 0.46888 0.98088 0.35156 0.0
C93 C 0.54572 -0.00106 0.28694 0.0
N94 N 0.46835 0.97588 0.54838 0.0
N95 N 0.5416 0.99148 0.37697 0.0
H96 H 0.53768 0.47498 0.7408 0.0
H97 H 0.4679 0.52877 0.2326 0.0
H98 H 0.44724 0.52707 0.68502 0.0
H99 H 0.55809 0.47638 0.28884 0.0
H100 H 0.46021 0.52891 0.39756 0.0
H101 H 0.54532 0.47491 0.57592 0.0
C102 C 0.51924 0.48617 0.69398 0.0
C103 C 0.49179 0.50096 0.72757 0.0
C104 C 0.48178 0.51747 0.37398 0.0
C105 C 0.5005 0.5013 0.53739 0.0
C106 C 0.48625 0.5175 0.27954 0.0
C107 C 0.51364 0.50259 0.2461 0.0
C108 C 0.50489 0.50238 0.43623 0.0
C109 C 0.53655 0.48823 0.31088 0.0
C110 C 0.52369 0.48626 0.59956 0.0
C111 C 0.46881 0.5153 0.66287 0.0
N112 N 0.53162 0.48844 0.40239 0.0
N113 N 0.47372 0.51515 0.57132 0.0
H114 H 0.12817 0.4831 0.93084 0.0
H115 H 0.35821 0.5444 0.22532 0.0
H116 H 0.16462 0.53201 0.22148 0.0
H117 H 0.31836 0.48053 0.94585 0.0
H118 H 0.28482 0.53371 0.22877 0.0
H119 H 0.1944 0.47512 0.93802 0.0
C120 C 0.14966 0.49142 -0.00343 0.0
C121 C 0.14101 0.50869 0.07545 0.0
C122 C 0.2919 0.52156 0.16694 0.0
C123 C 0.21705 0.50008 0.08385 0.0
C124 C 0.33388 0.52771 0.16493 0.0
C125 C 0.34454 0.51372 0.08483 0.0
C126 C 0.26031 0.50174 0.08783 0.0
C127 C 0.31157 0.49195 0.00896 0.0
C128 C 0.18756 0.48698 0.00053 0.0
C129 C 0.1701 0.51897 0.15864 0.0
N130 N 0.27105 0.48715 0.01182 0.0
N131 N 0.20696 0.51497 0.16034 0.0
H132 H 0.67609 0.14371 0.77683 0.0
H133 H 0.89292 0.30224 0.11641 0.0
H134 H 0.70204 0.12731 0.06711 0.0
H135 H 0.85954 0.32497 0.83453 0.0
H136 H 0.82818 0.23251 0.09344 0.0
H137 H 0.74807 0.20437 0.79085 0.0
C138 C 0.69705 0.1526 0.8434 0.0
C139 C 0.6828 0.13064 0.9212 0.0
C140 C 0.83526 0.25261 0.03639 0.0
C141 C 0.76534 0.20034 0.93782 0.0
C142 C 0.87229 0.29239 0.04935 0.0
C143 C 0.88147 0.31973 0.9776 0.0
C144 C 0.80726 0.24004 0.95102 0.0
C145 C 0.85358 0.30517 0.89212 0.0
C146 C 0.73818 0.18732 0.85136 0.0
C147 C 0.71156 0.14347 0.00544 0.0
N148 N 0.81763 0.26649 0.88148 0.0
N149 N 0.75134 0.17772 0.01172 0.0
H150 H 0.50844 0.86887 0.08317 0.0
H151 H 0.54536 0.68123 0.83927 0.0
H152 H 0.50498 0.8492 0.78722 0.0
H153 H 0.49573 0.67037 0.09946 0.0
H154 H 0.54978 0.75329 0.83477 0.0
H155 H 0.52251 0.80623 0.10403 0.0
C156 C 0.51149 0.85189 0.0229 0.0
C157 C 0.5053 0.86394 0.93321 0.0
C158 C 0.53841 0.7353 0.89336 0.0
C159 C 0.52148 0.79282 0.95665 0.0
C160 C 0.53604 0.69423 0.89627 0.0
C161 C 0.51967 0.66951 0.96934 0.0
C162 C 0.52479 0.75203 0.96449 0.0
C163 C 0.50813 0.68815 0.04132 0.0
C164 C 0.51923 0.81609 0.03481 0.0
C165 C 0.50921 0.8407 0.85741 0.0
N166 N 0.51068 0.72826 0.03685 0.0
N167 N 0.51697 0.80619 0.87081 0.0
H168 H 0.83113 0.45809 0.721 0.0
H169 H 0.68841 0.52312 0.02056 0.0
H170 H 0.87313 0.51148 0.00873 0.0
H171 H 0.64287 0.45425 0.7457 0.0
H172 H 0.76049 0.53037 0.0096 0.0
H173 H 0.76658 0.468 0.72121 0.0
C174 C 0.82702 0.47232 0.78405 0.0
C175 C 0.85738 0.4835 0.86529 0.0
C176 C 0.73479 0.51412 0.95134 0.0
C177 C 0.78319 0.49468 0.86619 0.0
C178 C 0.69371 0.51014 0.95737 0.0
C179 C 0.65949 0.48766 0.8843 0.0
C180 C 0.74165 0.49572 0.87144 0.0
C181 C 0.66817 0.47142 0.80416 0.0
C182 C 0.79006 0.47792 0.78415 0.0
C183 C 0.85043 0.50216 0.94466 0.0
N184 N 0.70826 0.47552 0.80016 0.0
N185 N 0.81383 0.50677 0.94342 0.0
H186 H 0.12942 0.69818 -0.01922 0.0
H187 H 0.3836 0.82166 0.11306 0.0
H188 H 0.20942 0.6338 0.96803 0.0
H189 H 0.31739 0.88001 0.94421 0.0
H190 H 0.31585 0.75523 0.10004 0.0
H191 H 0.19498 0.76837 0.00408 0.0
C192 C 0.16072 0.69888 -0.01663 0.0
C193 C 0.1642 0.66036 0.97202 0.0
C194 C 0.31619 0.78276 0.06656 0.0
C195 C 0.23846 0.73959 0.00063 0.0
C196 C 0.35469 0.82072 0.07427 0.0
C197 C 0.3561 0.85628 0.02908 0.0
C198 C 0.27864 0.7806 0.01504 0.0
C199 C 0.31764 0.85314 -0.02056 0.0
C200 C 0.19786 0.73871 -0.00378 0.0
C201 C 0.20538 0.66282 0.97565 0.0
N202 N 0.28025 0.81585 0.97386 0.0
N203 N 0.24095 0.70175 -0.00947 0.0
H204 H 0.50312 0.32771 0.88391 0.0
H205 H 0.5583 0.16584 0.18787 0.0
H206 H 0.55809 0.35424 0.1751 0.0
H207 H 0.51316 0.13829 0.89191 0.0
H208 H 0.54874 0.23093 0.18582 0.0
H209 H 0.49736 0.25453 0.88655 0.0
C210 C 0.51344 0.31798 0.9485 0.0
C211 C 0.53148 0.34719 0.02922 0.0
C212 C 0.54061 0.21063 0.1212 0.0
C213 C 0.52503 0.264 0.03274 0.0
C214 C 0.54606 0.17334 0.12237 0.0
C215 C 0.53693 0.14678 0.03978 0.0
C216 C 0.52624 0.22189 0.03663 0.0
C217 C 0.52073 0.15798 0.95717 0.0
C218 C 0.51029 0.27634 0.9499 0.0
C219 C 0.54445 0.33302 0.11095 0.0
N220 N 0.51631 0.195 0.95745 0.0
N221 N 0.54114 0.29264 0.11043 0.0
loop_
_geom_bond_atom_site_label_1
_geom_bond_atom_site_label_2
_geom_bond_distance
_geom_bond_site_symmetry_2
_ccdc_geom_bond_type
Zn0 O6 1.969 . S
Zn0 O7 1.965 1_554 S
Zn0 O11 2.024 1_554 S
Zn0 O16 1.969 . S
Zn1 O8 1.969 . S
Zn1 O14 1.969 . S
Zn1 O15 1.965 1_556 S
Zn1 O17 2.024 1_556 S
C2 O3 1.229 . S
C2 O11 1.058 1_554 S
O3 C2 1.229 . S
C4 O5 1.229 . S
C4 O17 1.058 1_556 S
O5 C4 1.229 . S
O6 Zn0 1.969 . S
O6 C9 1.267 1_554 S
O7 Zn0 1.965 1_556 S
O7 C18 1.260 1_455 S
O8 Zn1 1.969 . S
O8 C18 1.258 . S
C9 O6 1.267 1_556 S
C9 O10 1.228 . S
O10 C9 1.228 . S
O11 Zn0 2.024 1_556 S
O11 C2 1.058 1_556 S
C12 O13 1.228 . S
C12 O14 1.267 1_554 S
O13 C12 1.228 . S
O14 Zn1 1.969 . S
O14 C12 1.267 1_556 S
O15 Zn1 1.965 1_554 S
O15 C19 1.260 1_655 S
O16 Zn0 1.969 . S
O16 C19 1.258 . S
O17 Zn1 2.024 1_554 S
O17 C4 1.058 1_554 S
C18 O7 1.260 1_655 S
C18 O8 1.258 . S
C19 O15 1.260 1_455 S
C19 O16 1.258 . S
Zn20 O26 1.969 . S
Zn20 O27 1.965 1_556 S
Zn20 O31 2.024 1_556 S
Zn20 O36 1.969 . S
Zn21 O28 1.969 . S
Zn21 O34 1.969 . S
Zn21 O35 1.965 1_554 S
Zn21 O37 2.024 1_554 S
C22 O23 1.229 . S
C22 O31 1.058 1_556 S
O23 C22 1.229 . S
C24 O25 1.229 . S
C24 O37 1.058 1_554 S
O25 C24 1.229 . S
O26 Zn20 1.969 . S
O26 C29 1.267 1_556 S
O27 Zn20 1.965 1_554 S
O27 C38 1.260 1_565 S
O28 Zn21 1.969 . S
O28 C38 1.258 . S
C29 O26 1.267 1_554 S
C29 O30 1.228 . S
O30 C29 1.228 . S
O31 Zn20 2.024 1_554 S
O31 C22 1.058 1_554 S
C32 O33 1.228 . S
C32 O34 1.267 1_556 S
O33 C32 1.228 . S
O34 Zn21 1.969 . S
O34 C32 1.267 1_554 S
O35 Zn21 1.965 1_556 S
O35 C39 1.260 1_545 S
O36 Zn20 1.969 . S
O36 C39 1.258 . S
O37 Zn21 2.024 1_556 S
O37 C24 1.058 1_556 S
C38 O27 1.260 1_545 S
C38 O28 1.258 . S
C39 O35 1.260 1_565 S
C39 O36 1.258 . S
Zn40 O46 1.969 . S
Zn40 O47 1.965 1_554 S
Zn40 O51 2.024 1_554 S
Zn40 O56 1.969 . S
Zn41 O48 1.969 . S
Zn41 O54 1.969 . S
Zn41 O55 1.965 1_556 S
Zn41 O57 2.024 1_556 S
C42 O43 1.229 . S
C42 O51 1.058 1_554 S
O43 C42 1.229 . S
C44 O45 1.229 . S
C44 O57 1.058 1_556 S
O45 C44 1.229 . S
O46 Zn40 1.969 . S
O46 C49 1.267 1_554 S
O47 Zn40 1.965 1_556 S
O47 C58 1.260 . S
O48 Zn41 1.969 . S
O48 C58 1.258 . S
C49 O46 1.267 1_556 S
C49 O50 1.228 . S
O50 C49 1.228 . S
O51 Zn40 2.024 1_556 S
O51 C42 1.058 1_556 S
C52 O53 1.228 . S
C52 O54 1.267 1_554 S
O53 C52 1.228 . S
O54 Zn41 1.969 . S
O54 C52 1.267 1_556 S
O55 Zn41 1.965 1_554 S
O55 C59 1.260 . S
O56 Zn40 1.969 . S
O56 C59 1.258 . S
O57 Zn41 2.024 1_554 S
O57 C44 1.058 1_554 S
C58 O47 1.260 . S
C58 O48 1.258 . S
C59 O55 1.260 . S
C59 O56 1.258 . S
H60 C66 0.930 . S
H61 C70 0.930 . S
H62 C75 0.929 . S
H63 C73 0.929 . S
H64 C68 0.929 . S
H65 C74 0.929 . S
C66 H60 0.930 . S
C66 C67 1.367 . S
C66 C74 1.378 . S
C67 C66 1.367 . S
C67 C75 1.433 1_655 S
C68 H64 0.929 . S
C68 C70 1.378 . S
C68 C72 1.350 . S
C69 C72 1.460 1_655 S
C69 C74 1.362 . S
C69 N77 1.418 1_655 S
C70 H61 0.930 . S
C70 C68 1.378 . S
C70 C71 1.367 . S
C71 C70 1.367 . S
C71 C73 1.433 1_455 S
C72 C68 1.350 . S
C72 C69 1.460 1_455 S
C72 N76 1.427 1_455 S
C73 H63 0.929 . S
C73 C71 1.433 1_655 S
C73 N76 1.384 . S
C74 H65 0.929 . S
C74 C66 1.378 . S
C74 C69 1.362 . S
C75 H62 0.929 . S
C75 C67 1.433 1_455 S
C75 N77 1.384 . S
N76 C72 1.427 1_655 S
N76 C73 1.384 . S
N77 C69 1.418 1_455 S
N77 C75 1.384 . S
H78 C84 0.930 . S
H79 C88 0.930 . S
H80 C93 0.929 . S
H81 C91 0.929 . S
H82 C86 0.929 . S
H83 C92 0.929 . S
C84 H78 0.930 . S
C84 C85 1.367 . S
C84 C92 1.378 . S
C85 C84 1.367 . S
C85 C93 1.433 1_545 S
C86 H82 0.929 . S
C86 C88 1.378 . S
C86 C90 1.338 1_565 S
C87 C90 1.464 . S
C87 C92 1.350 . S
C87 N95 1.427 1_545 S
C88 H79 0.930 . S
C88 C86 1.378 . S
C88 C89 1.350 1_565 S
C89 C88 1.350 1_545 S
C89 C91 1.451 . S
C90 C86 1.338 1_545 S
C90 C87 1.464 . S
C90 N94 1.439 . S
C91 H81 0.929 . S
C91 C89 1.451 . S
C91 N94 1.384 . S
C92 H83 0.929 . S
C92 C84 1.378 . S
C92 C87 1.350 . S
C93 H80 0.929 . S
C93 C85 1.433 1_565 S
C93 N95 1.384 . S
N94 C90 1.439 . S
N94 C91 1.384 . S
N95 C87 1.427 1_565 S
N95 C93 1.384 . S
H96 C102 0.930 . S
H97 C106 0.930 . S
H98 C111 0.929 . S
H99 C109 0.929 . S
H100 C104 0.929 . S
H101 C110 0.929 . S
C102 H96 0.930 . S
C102 C103 1.367 . S
C102 C110 1.378 . S
C103 C102 1.367 . S
C103 C111 1.433 . S
C104 H100 0.929 . S
C104 C106 1.378 . S
C104 C108 1.350 . S
C105 C108 1.463 . S
C105 C110 1.350 . S
C105 N113 1.427 . S
C106 H97 0.930 . S
C106 C104 1.378 . S
C106 C107 1.367 . S
C107 C106 1.367 . S
C107 C109 1.433 . S
C108 C104 1.350 . S
C108 C105 1.463 . S
C108 N112 1.427 . S
C109 H99 0.929 . S
C109 C107 1.433 . S
C109 N112 1.384 . S
C110 H101 0.929 . S
C110 C102 1.378 . S
C110 C105 1.350 . S
C111 H98 0.929 . S
C111 C103 1.433 . S
C111 N113 1.384 . S
N112 C108 1.427 . S
N112 C109 1.384 . S
N113 C105 1.427 . S
N113 C111 1.384 . S
H114 C120 0.930 . S
H115 C124 0.930 . S
H116 C129 0.929 . S
H117 C127 0.929 . S
H118 C122 0.929 . S
H119 C128 0.929 . S
C120 H114 0.930 . S
C120 C121 1.367 1_556 S
C120 C128 1.378 . S
C121 C120 1.367 1_554 S
C121 C129 1.433 . S
C122 H118 0.929 . S
C122 C124 1.378 . S
C122 C126 1.350 . S
C123 C126 1.463 . S
C123 C128 1.350 1_554 S
C123 N131 1.427 . S
C124 H115 0.930 . S
C124 C122 1.378 . S
C124 C125 1.367 . S
C125 C124 1.367 . S
C125 C127 1.433 1_554 S
C126 C122 1.350 . S
C126 C123 1.463 . S
C126 N130 1.427 1_554 S
C127 H117 0.929 . S
C127 C125 1.433 1_556 S
C127 N130 1.384 . S
C128 H119 0.929 . S
C128 C120 1.378 . S
C128 C123 1.350 1_556 S
C129 H116 0.929 . S
C129 C121 1.433 . S
C129 N131 1.384 . S
N130 C126 1.427 1_556 S
N130 C127 1.384 . S
N131 C123 1.427 . S
N131 C129 1.384 . S
H132 C138 0.930 . S
H133 C142 0.930 . S
H134 C147 0.929 . S
H135 C145 0.929 . S
H136 C140 0.929 . S
H137 C146 0.929 . S
C138 H132 0.930 . S
C138 C139 1.367 . S
C138 C146 1.378 . S
C139 C138 1.367 . S
C139 C147 1.433 1_556 S
C140 H136 0.929 . S
C140 C142 1.378 . S
C140 C144 1.350 . S
C141 C144 1.464 1_556 S
C141 C146 1.356 . S
C141 N149 1.419 1_556 S
C142 H133 0.930 . S
C142 C140 1.378 . S
C142 C143 1.367 . S
C143 C142 1.367 . S
C143 C145 1.433 1_554 S
C144 C140 1.350 . S
C144 C141 1.464 1_554 S
C144 N148 1.427 1_554 S
C145 H135 0.929 . S
C145 C143 1.433 1_556 S
C145 N148 1.384 . S
C146 H137 0.929 . S
C146 C138 1.378 . S
C146 C141 1.356 . S
C147 H134 0.929 . S
C147 C139 1.433 1_554 S
C147 N149 1.384 . S
N148 C144 1.427 1_556 S
N148 C145 1.384 . S
N149 C141 1.419 1_554 S
N149 C147 1.384 . S
H150 C156 0.930 . S
H151 C160 0.930 . S
H152 C165 0.929 . S
H153 C163 0.929 . S
H154 C158 0.929 . S
H155 C164 0.929 . S
C156 H150 0.930 . S
C156 C157 1.367 1_554 S
C156 C164 1.378 . S
C157 C156 1.367 1_556 S
C157 C165 1.433 . S
C158 H154 0.929 . S
C158 C160 1.378 . S
C158 C162 1.353 . S
C159 C162 1.462 . S
C159 C164 1.346 1_556 S
C159 N167 1.432 . S
C160 H151 0.930 . S
C160 C158 1.378 . S
C160 C161 1.367 1_556 S
C161 C160 1.367 1_554 S
C161 C163 1.433 . S
C162 C158 1.353 . S
C162 C159 1.462 . S
C162 N166 1.424 1_556 S
C163 H153 0.929 . S
C163 C161 1.433 . S
C163 N166 1.384 . S
C164 H155 0.929 . S
C164 C156 1.378 . S
C164 C159 1.346 1_554 S
C165 H152 0.929 . S
C165 C157 1.433 . S
C165 N167 1.384 . S
N166 C162 1.424 1_554 S
N166 C163 1.384 . S
N167 C159 1.432 . S
N167 C165 1.384 . S
H168 C174 0.930 . S
H169 C178 0.930 . S
H170 C183 0.929 . S
H171 C181 0.929 . S
H172 C176 0.929 . S
H173 C182 0.929 . S
C174 H168 0.930 . S
C174 C175 1.367 . S
C174 C182 1.378 . S
C175 C174 1.367 . S
C175 C183 1.433 1_556 S
C176 H172 0.929 . S
C176 C178 1.378 . S
C176 C180 1.350 1_554 S
C177 C180 1.463 . S
C177 C182 1.350 . S
C177 N185 1.427 1_556 S
C178 H169 0.930 . S
C178 C176 1.378 . S
C178 C179 1.367 1_554 S
C179 C178 1.367 1_556 S
C179 C181 1.433 . S
C180 C176 1.350 1_556 S
C180 C177 1.463 . S
C180 N184 1.427 . S
C181 H171 0.929 . S
C181 C179 1.433 . S
C181 N184 1.384 . S
C182 H173 0.929 . S
C182 C174 1.378 . S
C182 C177 1.350 . S
C183 H170 0.929 . S
C183 C175 1.433 1_554 S
C183 N185 1.384 . S
N184 C180 1.427 . S
N184 C181 1.384 . S
N185 C177 1.427 1_554 S
N185 C183 1.384 . S
H186 C192 0.930 1_554 S
H187 C196 0.930 . S
H188 C201 0.929 . S
H189 C199 0.929 . S
H190 C194 0.929 . S
H191 C200 0.929 . S
C192 H186 0.930 1_556 S
C192 C193 1.367 . S
C192 C200 1.378 1_556 S
C193 C192 1.367 . S
C193 C201 1.433 . S
C194 H190 0.929 . S
C194 C196 1.378 . S
C194 C198 1.350 . S
C195 C198 1.463 . S
C195 C200 1.350 1_556 S
C195 N203 1.427 . S
C196 H187 0.930 . S
C196 C194 1.378 . S
C196 C197 1.367 1_556 S
C197 C196 1.367 1_554 S
C197 C199 1.433 . S
C198 C194 1.350 . S
C198 C195 1.463 . S
C198 N202 1.427 1_556 S
C199 H189 0.929 . S
C199 C197 1.433 . S
C199 N202 1.384 . S
C200 H191 0.929 . S
C200 C192 1.378 1_554 S
C200 C195 1.350 1_554 S
C201 H188 0.929 . S
C201 C193 1.433 . S
C201 N203 1.384 . S
N202 C198 1.427 1_554 S
N202 C199 1.384 . S
N203 C195 1.427 . S
N203 C201 1.384 . S
H204 C210 0.930 . S
H205 C214 0.930 . S
H206 C219 0.929 . S
H207 C217 0.929 . S
H208 C212 0.929 . S
H209 C218 0.929 . S
C210 H204 0.930 . S
C210 C211 1.367 . S
C210 C218 1.378 . S
C211 C210 1.367 . S
C211 C219 1.433 1_556 S
C212 H208 0.929 . S
C212 C214 1.378 . S
C212 C216 1.350 . S
C213 C216 1.463 1_556 S
C213 C218 1.350 . S
C213 N221 1.427 1_556 S
C214 H205 0.930 . S
C214 C212 1.378 . S
C214 C215 1.367 . S
C215 C214 1.367 . S
C215 C217 1.433 1_554 S
C216 C212 1.350 . S
C216 C213 1.463 1_554 S
C216 N220 1.427 1_554 S
C217 H207 0.929 . S
C217 C215 1.433 1_556 S
C217 N220 1.384 . S
C218 H209 0.929 . S
C218 C210 1.378 . S
C218 C213 1.350 . S
C219 H206 0.929 . S
C219 C211 1.433 1_554 S
C219 N221 1.384 . S
N220 C216 1.427 1_556 S
N220 C217 1.384 . S
N221 C213 1.427 1_554 S
N221 C219 1.384 . S
C67 C18 1.492 . S
C71 C19 1.492 . S
C85 C38 1.478 . S
C89 C39 1.474 1_545 S
C103 C58 1.476 . S
C107 C59 1.476 . S
C121 C2 1.323 . S
C125 C52 1.366 . S
C139 C32 1.282 . S
C143 C12 1.288 . S
C157 C22 1.380 . S
C161 C44 1.404 1_554 S
C175 C4 1.313 . S
C179 C49 1.376 . S
C193 C9 1.292 . S
C197 C29 1.281 . S
C211 C42 1.405 1_556 S
C215 C24 1.380 . S
