# Generated by pormake.
# Topology pcu, (6)-cn, num edge types: 1
# Building blocks:
#     Node 0, Type 0, BuildingBlock: JUFBIX_clean_sbu_0, # of connection points: 6
#     Edge 1, Type (0, 0), BuildingBlock: AJUNOK_clean_linker_0, # of connection points: 2
#     Edge 2, Type (0, 0), BuildingBlock: AJUNOK_clean_linker_0, # of connection points: 2
#     Edge 3, Type (0, 0), BuildingBlock: AJUNOK_clean_linker_0, # of connection points: 2
# Relax obj value: 0.000
# Max RMSD: 0.000
# Mean RMSD: 0.000
data_MOF--net-pcu--node1-JUFBIX_clean_sbu_0--edge1-AJUNOK_clean_linker_0
_symmetry_space_group_name_H-M    P1
_symmetry_Int_Tables_number       1
_symmetry_cell_setting            triclinic
loop_
_symmetry_equiv_pos_as_xyz
'x, y, z'
_cell_length_a     10.920887
_cell_length_b     15.662684
_cell_length_c     10.921889
_cell_angle_alpha  82.558312
_cell_angle_beta   91.421547
_cell_angle_gamma 101.29279
loop_
_atom_site_label
_atom_site_type_symbol
_atom_site_fract_x
_atom_site_fract_y
_atom_site_fract_z
_atom_type_partial_charge
Co0 Co 1.00873 0.977 0.02342 0.0
C1 C 0.03184 0.05237 0.24329 0.0
Co2 Co 0.04809 0.12177 0.99828 0.0
C3 C 1.01586 0.79405 1.00499 0.0
C4 C 0.8789 0.80964 0.1328 0.0
N5 N 0.96759 0.85554 0.05301 0.0
N6 N 0.95973 0.71177 0.05105 0.0
C7 C 0.87403 0.72148 0.13198 0.0
H8 H 0.09043 0.80928 0.93741 0.0
H9 H 0.82225 0.83857 0.18932 0.0
C10 C 0.02556 1.04504 0.77876 0.0
N11 N 0.08834 0.24319 0.96878 0.0
C12 C 0.03363 0.30356 0.0118 0.0
C13 C 0.17967 0.29022 0.89282 0.0
N14 N 0.08688 0.38634 0.9649 0.0
C15 C 0.17936 0.37807 0.89072 0.0
C16 C 0.26018 0.04516 0.01449 0.0
O17 O 1.00594 0.97343 0.85122 0.0
O18 O 0.04515 0.11718 0.82439 0.0
O19 O 0.22166 0.11731 1.00223 0.0
O20 O 0.18065 0.97362 0.02645 0.0
O21 O 0.05058 0.1251 0.17283 0.0
H22 H 0.24151 0.26228 0.84075 0.0
H23 H 0.95676 0.28695 0.07673 0.0
O24 O 1.01223 0.98146 0.19514 0.0
O25 O 0.83732 0.98118 0.01974 0.0
O26 O 0.87365 0.12469 0.99479 0.0
C27 C 0.79608 0.05204 1.00662 0.0
H28 H 0.81452 0.66871 0.18913 0.0
H29 H 0.2405 0.4317 0.83661 0.0
C30 C 0.04135 0.12665 0.43464 0.0
C31 C 0.03139 0.04907 0.3799 0.0
C32 C 0.03925 0.12466 0.5634 0.0
C33 C 0.02698 1.045 0.64279 0.0
H34 H 0.05027 0.18958 0.37776 0.0
H35 H 0.04695 0.18628 0.60074 0.0
S36 S 1.00107 0.82314 0.54663 0.0
N37 N 1.01118 0.88999 0.41597 0.0
N38 N 1.00703 0.88651 0.65689 0.0
C39 C 1.01766 0.96691 0.58934 0.0
C40 C 1.01994 0.96888 0.45835 0.0
C41 C 0.48337 0.12469 1.007 0.0
C42 C 0.39608 1.04501 0.01281 0.0
C43 C 0.61226 0.12658 1.00429 0.0
C44 C 0.65921 0.04886 1.00714 0.0
H45 H 0.45219 0.18642 1.00478 0.0
H46 H 0.67539 0.18954 1.00054 0.0
S47 S 0.47005 0.8228 0.01903 0.0
N48 N 0.36617 0.88634 0.01926 0.0
N49 N 0.60731 0.88964 0.01379 0.0
C50 C 0.57282 0.96866 0.0121 0.0
C51 C 0.44171 0.96678 0.01506 0.0
C52 C 0.11457 0.62295 0.01223 0.0
C53 C 0.98953 0.63028 0.02552 0.0
C54 C 0.14555 0.54293 0.99318 0.0
C55 C 0.05264 0.4674 0.98653 0.0
H56 H 0.189 0.679 0.01927 0.0
H57 H 0.24316 0.53976 0.98535 0.0
S58 S 0.71058 0.4549 1.00151 0.0
N59 N 0.77181 0.55721 0.02162 0.0
N60 N 0.83004 0.40696 0.9853 0.0
C61 C 0.92709 0.47445 0.99681 0.0
C62 C 0.89558 0.55587 0.01631 0.0
loop_
_geom_bond_atom_site_label_1
_geom_bond_atom_site_label_2
_geom_bond_distance
_geom_bond_site_symmetry_2
_ccdc_geom_bond_type
Co0 N5 2.057 1_556 S
Co0 O17 2.021 . S
Co0 O20 2.062 1_655 S
Co0 O24 2.117 1_556 S
Co0 O25 2.020 . S
C1 O21 1.259 . S
C1 O24 1.258 1_445 S
Co2 N11 2.057 1_554 S
Co2 O18 2.117 1_554 S
Co2 O19 2.020 . S
Co2 O21 2.021 . S
Co2 O26 2.062 1_455 S
C3 N5 1.316 1_556 S
C3 N6 1.347 1_556 S
C3 H8 0.931 . S
C4 N5 1.375 . S
C4 C7 1.350 . S
C4 H9 0.930 . S
N5 Co0 2.057 1_554 S
N5 C3 1.316 1_554 S
N5 C4 1.375 . S
N6 C3 1.347 1_554 S
N6 C7 1.373 . S
C7 C4 1.350 . S
C7 N6 1.373 . S
C7 H28 0.931 . S
H8 C3 0.931 . S
H9 C4 0.930 . S
C10 O17 1.259 . S
C10 O18 1.258 1_665 S
N11 Co2 2.057 1_556 S
N11 C12 1.316 1_556 S
N11 C13 1.375 . S
C12 N11 1.316 1_554 S
C12 N14 1.347 1_554 S
C12 H23 0.931 . S
C13 N11 1.375 . S
C13 C15 1.350 . S
C13 H22 0.930 . S
N14 C12 1.347 1_556 S
N14 C15 1.373 . S
C15 C13 1.350 . S
C15 N14 1.373 . S
C15 H29 0.931 . S
C16 O19 1.264 1_556 S
C16 O20 1.248 1_545 S
O17 Co0 2.021 . S
O17 C10 1.259 . S
O18 Co2 2.117 1_556 S
O18 C10 1.258 1_445 S
O19 Co2 2.020 . S
O19 C16 1.264 1_554 S
O20 Co0 2.062 1_455 S
O20 C16 1.248 1_565 S
O21 C1 1.259 . S
O21 Co2 2.021 . S
H22 C13 0.930 . S
H23 C12 0.931 . S
O24 Co0 2.117 1_554 S
O24 C1 1.258 1_665 S
O25 Co0 2.020 . S
O25 C27 1.260 1_556 S
O26 Co2 2.062 1_655 S
O26 C27 1.251 1_545 S
C27 O25 1.260 1_554 S
C27 O26 1.251 1_565 S
H28 C7 0.931 . S
H29 C15 0.931 . S
C30 C31 1.365 1_645 S
C30 C32 1.419 . S
C30 H34 0.930 . S
C31 C30 1.365 1_465 S
C31 C40 1.433 . S
C32 C30 1.419 . S
C32 C33 1.354 1_645 S
C32 H35 0.929 . S
C33 C32 1.354 1_465 S
C33 C39 1.438 . S
H34 C30 0.930 . S
H35 C32 0.929 . S
S36 N37 1.613 . S
S36 N38 1.610 . S
N37 S36 1.613 . S
N37 C40 1.350 . S
N38 S36 1.610 . S
N38 C39 1.351 . S
C39 C33 1.438 . S
C39 N38 1.351 . S
C39 C40 1.434 . S
C40 C31 1.433 . S
C40 N37 1.350 . S
C40 C39 1.434 . S
C41 C42 1.359 1_545 S
C41 C43 1.419 . S
C41 H45 0.930 . S
C42 C41 1.359 1_565 S
C42 C51 1.441 1_554 S
C43 C41 1.419 . S
C43 C44 1.355 1_545 S
C43 H46 0.929 . S
C44 C43 1.355 1_565 S
C44 C50 1.436 1_554 S
H45 C41 0.930 . S
H46 C43 0.929 . S
S47 N48 1.613 . S
S47 N49 1.610 . S
N48 S47 1.613 . S
N48 C51 1.350 . S
N49 S47 1.610 . S
N49 C50 1.351 . S
C50 C44 1.436 1_556 S
C50 N49 1.351 . S
C50 C51 1.434 . S
C51 C42 1.441 1_556 S
C51 N48 1.350 . S
C51 C50 1.434 . S
C52 C53 1.369 1_455 S
C52 C54 1.419 . S
C52 H56 0.930 . S
C53 C52 1.369 1_655 S
C53 C62 1.428 1_554 S
C54 C52 1.419 . S
C54 C55 1.363 1_455 S
C54 H57 0.929 . S
C55 C54 1.363 1_655 S
C55 C61 1.428 1_554 S
H56 C52 0.930 . S
H57 C54 0.929 . S
S58 N59 1.613 . S
S58 N60 1.610 . S
N59 S58 1.613 . S
N59 C62 1.350 . S
N60 S58 1.610 . S
N60 C61 1.351 . S
C61 C55 1.428 1_556 S
C61 N60 1.351 . S
C61 C62 1.434 . S
C62 C53 1.428 1_556 S
C62 N59 1.350 . S
C62 C61 1.434 . S
C31 C1 1.496 1_565 S
C33 C10 1.495 1_455 S
C42 C16 1.497 1_564 S
C44 C27 1.500 . S
C53 N6 1.463 . S
C55 N14 1.466 1_654 S
