# Generated by pormake.
# Topology rac, (4)-cn, num edge types: 1
# Building blocks:
#     Node 0, Type 0, BuildingBlock: NAHDIM_clean_sbu_0, # of connection points: 4
#     Node 1, Type 0, BuildingBlock: NAHDIM_clean_sbu_0, # of connection points: 4
#     Node 2, Type 0, BuildingBlock: NAHDIM_clean_sbu_0, # of connection points: 4
#     Node 3, Type 0, BuildingBlock: NAHDIM_clean_sbu_0, # of connection points: 4
#     Node 4, Type 0, BuildingBlock: NAHDIM_clean_sbu_0, # of connection points: 4
#     Node 5, Type 0, BuildingBlock: NAHDIM_clean_sbu_0, # of connection points: 4
#     Node 6, Type 0, BuildingBlock: NAHDIM_clean_sbu_0, # of connection points: 4
#     Node 7, Type 0, BuildingBlock: NAHDIM_clean_sbu_0, # of connection points: 4
#     Edge 8, Type (0, 0), None
#     Edge 9, Type (0, 0), None
#     Edge 10, Type (0, 0), None
#     Edge 11, Type (0, 0), None
#     Edge 12, Type (0, 0), None
#     Edge 13, Type (0, 0), None
#     Edge 14, Type (0, 0), None
#     Edge 15, Type (0, 0), None
#     Edge 16, Type (0, 0), None
#     Edge 17, Type (0, 0), None
#     Edge 18, Type (0, 0), None
#     Edge 19, Type (0, 0), None
#     Edge 20, Type (0, 0), None
#     Edge 21, Type (0, 0), None
#     Edge 22, Type (0, 0), None
#     Edge 23, Type (0, 0), None
# Relax obj value: 0.204
# Max RMSD: 0.118
# Mean RMSD: 0.118
data_MOF--net-rac--node1-NAHDIM_clean_sbu_0--edge1-none
_symmetry_space_group_name_H-M    P1
_symmetry_Int_Tables_number       1
_symmetry_cell_setting            triclinic
loop_
_symmetry_equiv_pos_as_xyz
'x, y, z'
_cell_length_a     18.12668
_cell_length_b     9.4434959
_cell_length_c     20.471242
_cell_angle_alpha  79.986093
_cell_angle_beta   89.933392
_cell_angle_gamma 89.623583
loop_
_atom_site_label
_atom_site_type_symbol
_atom_site_fract_x
_atom_site_fract_y
_atom_site_fract_z
_atom_type_partial_charge
C0 C 0.48147 0.47744 -0.01598 0.0
O1 O 0.44115 0.55093 0.01977 0.0
O2 O 0.41898 0.19724 0.13833 0.0
Zn3 Zn 0.38335 0.2536 0.04379 0.0
O4 O 0.30973 0.40973 0.03615 0.0
C5 C 0.27787 0.04118 0.07068 0.0
O6 O 0.28519 0.09529 0.12504 0.0
O7 O 0.46763 0.34428 -0.01547 0.0
C8 C 0.26696 0.44338 0.07985 0.0
O9 O 0.26933 0.37451 0.14128 0.0
C10 C 0.435 0.28472 0.1766 0.0
O11 O 0.4356 0.42331 0.15346 0.0
O12 O 0.32044 0.08565 0.02165 0.0
C13 C 0.03049 0.543 -0.00937 0.0
O14 O 0.04855 0.45622 0.04563 0.0
O15 O 0.04541 0.82403 0.12697 0.0
Zn16 Zn 0.10543 0.75356 0.0555 0.0
O17 O 0.16602 0.58909 0.09957 0.0
C18 C 0.22411 0.92434 0.07252 0.0
O19 O 0.20909 0.84765 0.13082 0.0
O20 O 0.04608 0.67676 -0.01622 0.0
C21 C 0.21418 0.5581 0.0596 0.0
O22 O 0.21525 0.62873 -0.00164 0.0
C23 C 0.03147 0.73965 0.18098 0.0
O24 O 0.04099 0.60068 0.18399 0.0
O25 O 0.18314 0.90989 0.0235 0.0
C26 C 0.48257 0.05105 0.44259 0.0
O27 O 0.44562 0.97957 0.40403 0.0
O28 O 0.42518 0.32489 0.28658 0.0
Zn29 Zn 0.38537 0.27529 0.38008 0.0
O30 O 0.31246 0.12014 0.38689 0.0
C31 C 0.28546 0.50434 0.34813 0.0
O32 O 0.30022 0.46398 0.29141 0.0
O33 O 0.46727 0.18383 0.4425 0.0
C34 C 0.26407 0.09913 0.34531 0.0
O35 O 0.25924 0.18295 0.28719 0.0
C36 C 0.43309 0.23373 0.24826 0.0
O37 O 0.42201 0.09687 0.27104 0.0
O38 O 0.32097 0.44554 0.3998 0.0
C39 C 0.03038 0.98661 0.43657 0.0
O40 O 0.04603 0.07627 0.3819 0.0
O41 O 0.04725 0.71417 0.29655 0.0
Zn42 Zn 0.10741 0.78333 0.36788 0.0
O43 O 0.16459 0.95267 0.32481 0.0
C44 C 0.22868 0.61715 0.3475 0.0
O45 O 0.21274 0.69679 0.29 0.0
O46 O 0.04808 0.85368 0.44177 0.0
C47 C 0.21328 0.98164 0.36452 0.0
O48 O 0.21735 0.905 0.42447 0.0
C49 C 0.03195 0.79871 0.24281 0.0
O50 O 0.04074 0.93766 0.23967 0.0
O51 O 0.18767 0.62801 0.39712 0.0
C52 C 0.54203 0.55011 0.94393 0.0
O53 O 0.58235 0.47662 0.90817 0.0
O54 O 0.60453 0.83031 0.78962 0.0
Zn55 Zn 0.64016 0.77395 0.88416 0.0
O56 O 0.71378 0.61781 0.8918 0.0
C57 C 0.74564 0.98636 0.85727 0.0
O58 O 0.73832 0.93226 0.80291 0.0
O59 O 0.55587 0.68327 0.94342 0.0
C60 C 0.75655 0.58417 0.84811 0.0
O61 O 0.75418 0.65304 0.78668 0.0
C62 C 0.58851 0.74283 0.75135 0.0
O63 O 0.58792 0.60424 0.77449 0.0
O64 O 0.70307 0.94189 0.9063 0.0
C65 C 0.99301 0.48455 0.93733 0.0
O66 O 0.97495 0.57132 0.88234 0.0
O67 O 0.9781 0.20352 0.80099 0.0
Zn68 Zn 0.91808 0.27398 0.87246 0.0
O69 O 0.85749 0.43846 0.82839 0.0
C70 C 0.79939 0.10321 0.85544 0.0
O71 O 0.81442 0.17989 0.79714 0.0
O72 O 0.97742 0.35079 0.94419 0.0
C73 C 0.80932 0.46945 0.86835 0.0
O74 O 0.80825 0.39881 0.92959 0.0
C75 C 0.99205 0.28789 0.74699 0.0
O76 O 0.98253 0.42686 0.74398 0.0
O77 O 0.84036 0.11766 0.90446 0.0
C78 C 0.54097 0.97651 0.48535 0.0
O79 O 0.57792 0.04798 0.52392 0.0
O80 O 0.59835 0.70266 0.64137 0.0
Zn81 Zn 0.63816 0.75226 0.54787 0.0
O82 O 0.71108 0.90741 0.54106 0.0
C83 C 0.73807 0.52322 0.57982 0.0
O84 O 0.72331 0.56358 0.63654 0.0
O85 O 0.55627 0.84373 0.48544 0.0
C86 C 0.75946 0.92843 0.58265 0.0
O87 O 0.76429 0.84461 0.64077 0.0
C88 C 0.59043 0.79382 0.67969 0.0
O89 O 0.60151 0.93069 0.6569 0.0
O90 O 0.70257 0.58201 0.52815 0.0
C91 C 0.99315 0.04094 0.4914 0.0
O92 O 0.9775 0.95128 0.54607 0.0
O93 O 0.97628 0.31338 0.63142 0.0
Zn94 Zn 0.91612 0.24422 0.56009 0.0
O95 O 0.85894 0.07489 0.60315 0.0
C96 C 0.79486 0.4104 0.58046 0.0
O97 O 0.81079 0.33076 0.63796 0.0
O98 O 0.97545 0.17387 0.4862 0.0
C99 C 0.81025 0.04591 0.56344 0.0
O100 O 0.80618 0.12255 0.50349 0.0
C101 C 0.99157 0.22883 0.68516 0.0
O102 O 0.98278 0.08988 0.6883 0.0
O103 O 0.83587 0.39954 0.53084 0.0
loop_
_geom_bond_atom_site_label_1
_geom_bond_atom_site_label_2
_geom_bond_distance
_geom_bond_site_symmetry_2
_ccdc_geom_bond_type
C0 O1 1.160 . S
C0 O7 1.185 1_554 S
O1 C0 1.160 . S
O2 Zn3 1.899 . S
O2 C10 1.284 . S
Zn3 O2 1.899 . S
Zn3 O4 2.032 . S
Zn3 O7 2.086 1_554 S
Zn3 O12 1.977 . S
O4 Zn3 2.032 . S
O4 C8 1.278 . S
C5 O6 1.203 . S
C5 O12 1.267 . S
O6 C5 1.203 . S
O7 C0 1.185 1_556 S
O7 Zn3 2.086 1_556 S
C8 O4 1.278 . S
C8 O9 1.211 . S
O9 C8 1.211 . S
C10 O2 1.284 . S
C10 O11 1.273 . S
O11 C10 1.273 . S
O12 Zn3 1.977 . S
O12 C5 1.267 . S
C13 O14 1.160 . S
C13 O20 1.185 1_654 S
O14 C13 1.160 . S
O15 Zn16 1.899 . S
O15 C23 1.284 . S
Zn16 O15 1.899 . S
Zn16 O17 2.032 . S
Zn16 O20 2.086 1_554 S
Zn16 O25 1.977 . S
O17 Zn16 2.032 . S
O17 C21 1.278 . S
C18 O19 1.203 . S
C18 O25 1.267 . S
O19 C18 1.203 . S
O20 C13 1.185 1_456 S
O20 Zn16 2.086 1_556 S
C21 O17 1.278 . S
C21 O22 1.211 . S
O22 C21 1.211 . S
C23 O15 1.284 . S
C23 O24 1.273 . S
O24 C23 1.273 . S
O25 Zn16 1.977 . S
O25 C18 1.267 . S
C26 O27 1.160 . S
C26 O33 1.185 . S
O27 C26 1.160 . S
O28 Zn29 1.899 . S
O28 C36 1.284 . S
Zn29 O28 1.899 . S
Zn29 O30 2.032 . S
Zn29 O33 2.086 . S
Zn29 O38 1.977 . S
O30 Zn29 2.032 . S
O30 C34 1.278 . S
C31 O32 1.203 . S
C31 O38 1.267 . S
O32 C31 1.203 . S
O33 C26 1.185 . S
O33 Zn29 2.086 . S
C34 O30 1.278 . S
C34 O35 1.211 . S
O35 C34 1.211 . S
C36 O28 1.284 . S
C36 O37 1.273 . S
O37 C36 1.273 . S
O38 Zn29 1.977 . S
O38 C31 1.267 . S
C39 O40 1.160 . S
C39 O46 1.185 1_655 S
O40 C39 1.160 . S
O41 Zn42 1.899 . S
O41 C49 1.284 . S
Zn42 O41 1.899 . S
Zn42 O43 2.032 . S
Zn42 O46 2.086 . S
Zn42 O51 1.977 . S
O43 Zn42 2.032 . S
O43 C47 1.278 . S
C44 O45 1.203 . S
C44 O51 1.267 . S
O45 C44 1.203 . S
O46 C39 1.185 1_455 S
O46 Zn42 2.086 . S
C47 O43 1.278 . S
C47 O48 1.211 . S
O48 C47 1.211 . S
C49 O41 1.284 . S
C49 O50 1.273 . S
O50 C49 1.273 . S
O51 Zn42 1.977 . S
O51 C44 1.267 . S
C52 O53 1.160 . S
C52 O59 1.185 1_556 S
O53 C52 1.160 . S
O54 Zn55 1.899 . S
O54 C62 1.284 . S
Zn55 O54 1.899 . S
Zn55 O56 2.032 . S
Zn55 O59 2.086 1_556 S
Zn55 O64 1.977 . S
O56 Zn55 2.032 . S
O56 C60 1.278 . S
C57 O58 1.203 . S
C57 O64 1.267 . S
O58 C57 1.203 . S
O59 C52 1.185 1_554 S
O59 Zn55 2.086 1_554 S
C60 O56 1.278 . S
C60 O61 1.211 . S
O61 C60 1.211 . S
C62 O54 1.284 . S
C62 O63 1.273 . S
O63 C62 1.273 . S
O64 Zn55 1.977 . S
O64 C57 1.267 . S
C65 O66 1.160 . S
C65 O72 1.185 1_456 S
O66 C65 1.160 . S
O67 Zn68 1.899 . S
O67 C75 1.284 . S
Zn68 O67 1.899 . S
Zn68 O69 2.032 . S
Zn68 O72 2.086 1_556 S
Zn68 O77 1.977 . S
O69 Zn68 2.032 . S
O69 C73 1.278 . S
C70 O71 1.203 . S
C70 O77 1.267 . S
O71 C70 1.203 . S
O72 C65 1.185 1_654 S
O72 Zn68 2.086 1_554 S
C73 O69 1.278 . S
C73 O74 1.211 . S
O74 C73 1.211 . S
C75 O67 1.284 . S
C75 O76 1.273 . S
O76 C75 1.273 . S
O77 Zn68 1.977 . S
O77 C70 1.267 . S
C78 O79 1.160 . S
C78 O85 1.185 . S
O79 C78 1.160 . S
O80 Zn81 1.899 . S
O80 C88 1.284 . S
Zn81 O80 1.899 . S
Zn81 O82 2.032 . S
Zn81 O85 2.086 . S
Zn81 O90 1.977 . S
O82 Zn81 2.032 . S
O82 C86 1.278 . S
C83 O84 1.203 . S
C83 O90 1.267 . S
O84 C83 1.203 . S
O85 C78 1.185 . S
O85 Zn81 2.086 . S
C86 O82 1.278 . S
C86 O87 1.211 . S
O87 C86 1.211 . S
C88 O80 1.284 . S
C88 O89 1.273 . S
O89 C88 1.273 . S
O90 Zn81 1.977 . S
O90 C83 1.267 . S
C91 O92 1.160 . S
C91 O98 1.185 1_455 S
O92 C91 1.160 . S
O93 Zn94 1.899 . S
O93 C101 1.284 . S
Zn94 O93 1.899 . S
Zn94 O95 2.032 . S
Zn94 O98 2.086 . S
Zn94 O103 1.977 . S
O95 Zn94 2.032 . S
O95 C99 1.278 . S
C96 O97 1.203 . S
C96 O103 1.267 . S
O97 C96 1.203 . S
O98 C91 1.185 1_655 S
O98 Zn94 2.086 . S
C99 O95 1.278 . S
C99 O100 1.211 . S
O100 C99 1.211 . S
C101 O93 1.284 . S
C101 O102 1.273 . S
O102 C101 1.273 . S
O103 Zn94 1.977 . S
O103 C96 1.267 . S
C5 C18 1.586 1_545 S
C44 C31 1.586 . S
C57 C70 1.586 1_565 S
C83 C96 1.586 . S
C10 C36 1.434 . S
C49 C23 1.434 . S
C62 C88 1.434 . S
C101 C75 1.434 . S
C0 C52 2.206 1_554 S
C13 C65 2.206 1_654 S
C78 C26 2.206 1_565 S
C91 C39 2.206 1_445 S
C21 C8 0.939 . S
C34 C47 0.939 1_545 S
C60 C73 0.939 . S
C86 C99 0.939 1_565 S
