# Generated by pormake.
# Topology snk, (6)-cn, num edge types: 1
# Building blocks:
#     Node 0, Type 0, BuildingBlock: JUFBIX_clean_sbu_0, # of connection points: 6
#     Node 1, Type 0, BuildingBlock: JUFBIX_clean_sbu_0, # of connection points: 6
#     Node 2, Type 0, BuildingBlock: JUFBIX_clean_sbu_0, # of connection points: 6
#     Node 3, Type 0, BuildingBlock: JUFBIX_clean_sbu_0, # of connection points: 6
#     Node 4, Type 0, BuildingBlock: JUFBIX_clean_sbu_0, # of connection points: 6
#     Node 5, Type 0, BuildingBlock: JUFBIX_clean_sbu_0, # of connection points: 6
#     Node 6, Type 0, BuildingBlock: JUFBIX_clean_sbu_0, # of connection points: 6
#     Node 7, Type 0, BuildingBlock: JUFBIX_clean_sbu_0, # of connection points: 6
#     Edge 8, Type (0, 0), None
#     Edge 9, Type (0, 0), None
#     Edge 10, Type (0, 0), None
#     Edge 11, Type (0, 0), None
#     Edge 12, Type (0, 0), None
#     Edge 13, Type (0, 0), None
#     Edge 14, Type (0, 0), None
#     Edge 15, Type (0, 0), None
#     Edge 16, Type (0, 0), None
#     Edge 17, Type (0, 0), None
#     Edge 18, Type (0, 0), None
#     Edge 19, Type (0, 0), None
#     Edge 20, Type (0, 0), None
#     Edge 21, Type (0, 0), None
#     Edge 22, Type (0, 0), None
#     Edge 23, Type (0, 0), None
#     Edge 24, Type (0, 0), None
#     Edge 25, Type (0, 0), None
#     Edge 26, Type (0, 0), None
#     Edge 27, Type (0, 0), None
#     Edge 28, Type (0, 0), None
#     Edge 29, Type (0, 0), None
#     Edge 30, Type (0, 0), None
#     Edge 31, Type (0, 0), None
# Relax obj value: 0.449
# Max RMSD: 0.143
# Mean RMSD: 0.119
data_MOF--net-snk--node1-JUFBIX_clean_sbu_0--edge1-none
_symmetry_space_group_name_H-M    P1
_symmetry_Int_Tables_number       1
_symmetry_cell_setting            triclinic
loop_
_symmetry_equiv_pos_as_xyz
'x, y, z'
_cell_length_a     23.389316
_cell_length_b     23.387509
_cell_length_c     6.7965795
_cell_angle_alpha  103.13092
_cell_angle_beta   103.12519
_cell_angle_gamma 97.040969
loop_
_atom_site_label
_atom_site_type_symbol
_atom_site_fract_x
_atom_site_fract_y
_atom_site_fract_z
_atom_type_partial_charge
Co0 Co 1.07509 1.04655 0.3913 0.0
C1 C 1.01909 0.15595 0.4162 0.0
Co2 Co 0.11935 0.13328 0.56961 0.0
C3 C 1.01784 0.94105 0.39243 0.0
C4 C 0.95686 0.99715 0.31165 0.0
N5 N 1.01254 0.98696 0.30901 0.0
N6 N 0.97752 0.9372 0.49738 0.0
C7 C 0.93228 0.96031 0.40252 0.0
H8 H 1.05929 0.92648 0.4437 0.0
H9 H 0.93667 1.03413 0.27912 0.0
C10 C 0.17535 1.02388 0.5447 0.0
N11 N 0.1819 0.19287 0.65189 0.0
C12 C 0.1766 0.23878 0.56847 0.0
C13 C 0.23759 0.18268 0.64926 0.0
N14 N 0.21692 0.24263 0.46353 0.0
C15 C 0.26216 0.21952 0.55838 0.0
C16 C 1.09633 0.09403 0.87167 0.0
O17 O 0.13002 0.99316 0.40931 0.0
O18 O 0.17552 1.07884 0.61039 0.0
O19 O 0.11824 0.14299 0.8499 0.0
O20 O 1.07472 1.05207 0.7017 0.0
O21 O 1.06442 0.18667 0.5516 0.0
H22 H 0.25777 0.1457 0.68178 0.0
H23 H 0.13515 0.25335 0.51721 0.0
O24 O 1.01892 0.10099 0.35051 0.0
O25 O 1.07621 1.03684 0.111 0.0
O26 O 0.11972 0.12776 0.25921 0.0
C27 C 0.09811 1.0858 0.08923 0.0
H28 H 0.89279 0.9673 0.45627 0.0
H29 H 0.30165 0.21253 0.50463 0.0
Co30 Co 0.37718 0.80791 0.73126 0.0
C31 C 0.24416 0.74844 0.6278 0.0
Co32 Co 0.31726 0.87191 0.72962 0.0
C33 C 0.46711 0.73835 0.86661 0.0
C34 C 0.40247 0.69477 0.57489 0.0
N35 N 0.4214 0.7475 0.72155 0.0
N36 N 0.47584 0.68128 0.81736 0.0
C37 C 0.4352 0.65399 0.63428 0.0
H38 H 0.49134 0.7718 0.00953 0.0
H39 H 0.36518 0.68571 0.43777 0.0
C40 C 0.45028 0.93138 0.83309 0.0
N41 N 0.27303 0.93231 0.73933 0.0
C42 C 0.22731 0.94145 0.59431 0.0
C43 C 0.29197 0.98504 0.88597 0.0
N44 N 0.21855 0.99851 0.64361 0.0
C45 C 0.25922 1.02582 0.82662 0.0
C46 C 0.34924 0.84172 0.12197 0.0
O47 O 0.45538 0.87584 0.81468 0.0
O48 O 0.39556 0.93919 0.81194 0.0
O49 O 0.32066 0.87513 0.02715 0.0
O50 O 0.38094 0.81099 0.02642 0.0
O51 O 0.23907 0.80398 0.6462 0.0
H52 H 0.32927 0.99412 0.02306 0.0
H53 H 0.20308 0.908 0.45139 0.0
O54 O 0.29889 0.74063 0.64894 0.0
O55 O 0.37378 0.8047 0.43373 0.0
O56 O 0.3135 0.86883 0.43446 0.0
C57 C 0.3452 0.8381 0.33891 0.0
H58 H 0.43001 0.60798 0.54757 0.0
H59 H 0.26441 1.07183 0.9133 0.0
Co60 Co 0.62921 1.05995 0.97961 0.0
C61 C 0.68869 0.19298 0.0831 0.0
Co62 Co 0.56523 0.11988 -0.01871 0.0
C63 C 0.69878 0.97002 0.84427 0.0
C64 C 0.74233 1.03467 0.13599 0.0
N65 N 0.68962 1.01572 -0.01068 0.0
N66 N 0.75585 0.96129 0.89355 0.0
C67 C 0.78312 1.00193 0.07663 0.0
H68 H 0.66534 0.94577 0.70135 0.0
H69 H 0.75139 1.07196 0.27312 0.0
C70 C 0.50575 0.98685 0.8778 0.0
N71 N 0.50482 0.16411 0.97158 0.0
C72 C 0.49566 0.20981 0.11663 0.0
C73 C 0.45211 0.14516 0.82491 0.0
N74 N 0.4386 0.21854 0.06735 0.0
C75 C 0.41132 0.17789 0.88427 0.0
C76 C 0.59541 1.0879 0.58892 0.0
O77 O 0.56129 0.98175 0.89618 0.0
O78 O 0.49795 1.04158 0.89897 0.0
O79 O 0.56201 0.11648 0.68377 0.0
O80 O 0.62614 1.05619 0.68445 0.0
O81 O 0.63316 0.19808 0.06472 0.0
H82 H 0.44305 0.10787 0.68779 0.0
H83 H 0.5291 0.23406 0.25956 0.0
O84 O 0.69649 0.13825 0.06193 0.0
O85 O 0.63243 1.06335 0.27714 0.0
O86 O 0.5683 0.12364 0.27646 0.0
C87 C 0.59903 0.09193 0.37198 0.0
H88 H 0.82912 1.00713 0.16335 0.0
H89 H 0.36532 0.1727 0.79755 0.0
Co90 Co 0.39057 0.36204 0.31959 0.0
C91 C 0.2812 0.41806 0.2947 0.0
Co92 Co 0.30386 0.31778 0.14127 0.0
C93 C 0.49608 0.41929 0.31851 0.0
C94 C 0.43998 0.48028 0.39926 0.0
N95 N 0.45016 0.42459 0.40188 0.0
N96 N 0.49995 0.45961 0.21359 0.0
C97 C 0.47685 0.50486 0.30844 0.0
H98 H 0.51066 0.37783 0.26727 0.0
H99 H 0.40301 0.50048 0.43177 0.0
C100 C 0.41323 0.26177 0.16615 0.0
N101 N 0.24425 0.25523 0.05899 0.0
C102 C 0.19835 0.26056 0.14242 0.0
C103 C 0.25444 0.19953 0.06163 0.0
N104 N 0.19451 0.22021 0.24718 0.0
C105 C 0.21761 0.17494 0.15254 0.0
C106 C 0.34311 0.3408 0.83922 0.0
O107 O 0.44395 0.30711 0.30155 0.0
O108 O 0.35828 0.26159 0.10046 0.0
O109 O 0.29415 0.3189 0.861 0.0
O110 O 0.38506 0.36241 0.00919 0.0
O111 O 0.25049 0.37272 0.1593 0.0
H112 H 0.29142 0.17935 0.02909 0.0
H113 H 0.1838 0.30203 0.19386 0.0
O114 O 0.33615 0.41823 0.36041 0.0
O115 O 0.40028 0.36093 0.59987 0.0
O116 O 0.30937 0.31742 0.45168 0.0
C117 C 0.35132 0.33903 0.62165 0.0
H118 H 0.46987 0.54435 0.25469 0.0
H119 H 0.22462 0.13547 0.20642 0.0
Co120 Co 0.87718 0.30792 0.23128 0.0
C121 C 0.74416 0.24845 0.12782 0.0
Co122 Co 0.81726 0.37191 0.22965 0.0
C123 C 0.96713 0.23838 0.36659 0.0
C124 C 0.90247 0.19478 0.07493 0.0
N125 N 0.92141 0.24751 0.22157 0.0
N126 N 0.97589 0.18131 0.3173 0.0
C127 C 0.93523 0.15401 0.13428 0.0
H128 H 0.99136 0.27183 0.50952 0.0
H129 H 0.86517 0.18571 0.93785 0.0
C130 C 0.95028 0.43139 0.33311 0.0
N131 N 0.77304 0.43233 0.23936 0.0
C132 C 0.72734 0.44148 0.0943 0.0
C133 C 0.79197 0.48506 0.38601 0.0
N134 N 0.7186 0.49855 0.14355 0.0
C135 C 0.75924 0.52584 0.32663 0.0
C136 C 0.84924 0.34173 0.62199 0.0
O137 O 0.95537 0.37585 0.3147 0.0
O138 O 0.89555 0.43919 0.31196 0.0
O139 O 0.82066 0.37513 0.52718 0.0
O140 O 0.88094 0.311 0.52644 0.0
O141 O 0.73907 0.30399 0.14622 0.0
H142 H 0.82926 0.49412 0.52314 0.0
H143 H 0.7031 0.40803 0.95138 0.0
O144 O 0.79888 0.24064 0.14897 0.0
O145 O 0.87378 0.3047 0.93375 0.0
O146 O 0.8135 0.36884 0.93449 0.0
C147 C 0.8452 0.33811 0.83894 0.0
H148 H 0.93003 0.108 0.04761 0.0
H149 H 0.76443 0.57185 0.41334 0.0
Co150 Co 0.89058 0.86205 0.81963 0.0
C151 C 0.78121 0.91806 0.79476 0.0
Co152 Co 0.80387 0.81779 0.64131 0.0
C153 C 0.9961 0.91926 0.81848 0.0
C154 C 0.94 0.9803 0.89928 0.0
N155 N 0.95019 0.9246 0.90192 0.0
N156 N 0.99993 0.95962 0.71372 0.0
C157 C 0.97683 1.00489 0.80836 0.0
H158 H 1.01064 0.8778 0.76705 0.0
H159 H 0.90302 1.00048 0.93181 0.0
C160 C 0.91324 0.76177 0.6662 0.0
N161 N 0.74428 0.75524 0.55902 0.0
C162 C 0.69836 0.76054 0.64239 0.0
C163 C 0.75446 0.69954 0.56165 0.0
N164 N 0.69449 0.72022 0.74731 0.0
C165 C 0.71759 0.67497 0.65246 0.0
C166 C 0.84311 0.84081 0.33926 0.0
O167 O 0.94395 0.80711 0.80161 0.0
O168 O 0.8583 0.7616 0.60049 0.0
O169 O 0.79416 0.8189 0.36103 0.0
O170 O 0.88507 0.86241 0.50922 0.0
O171 O 0.75049 0.87272 0.65935 0.0
H172 H 0.79143 0.67935 0.52914 0.0
H173 H 0.68378 0.802 0.69364 0.0
O174 O 0.83616 0.91824 0.86044 0.0
O175 O 0.90029 0.86093 0.09991 0.0
O176 O 0.80938 0.81742 0.95172 0.0
C177 C 0.85133 0.83903 0.12168 0.0
H178 H 0.96982 1.04436 0.75448 0.0
H179 H 0.72457 0.63548 0.70621 0.0
Co180 Co 0.5751 0.54655 0.89128 0.0
C181 C 0.51907 0.65592 0.91617 0.0
Co182 Co 0.61934 0.63328 0.06962 0.0
C183 C 0.5179 0.44103 0.89248 0.0
C184 C 0.45687 0.49711 0.81163 0.0
N185 N 0.51257 0.48692 0.80899 0.0
N186 N 0.47755 0.4372 -0.00275 0.0
C187 C 0.43228 0.46029 0.9026 0.0
H188 H 0.55937 0.42649 0.94394 0.0
H189 H 0.43668 0.53408 0.77908 0.0
C190 C 0.67537 0.52391 0.04474 0.0
N191 N 0.68188 0.6929 0.15191 0.0
C192 C 0.67654 0.7388 0.06842 0.0
C193 C 0.73758 0.68272 0.14927 0.0
N194 N 0.71689 0.74263 0.96366 0.0
C195 C 0.76216 0.71953 0.0583 0.0
C196 C 0.59633 0.59403 0.37167 0.0
O197 O 0.63005 0.49318 0.90931 0.0
O198 O 0.67553 0.57886 0.11043 0.0
O199 O 0.61822 0.64299 0.3499 0.0
O200 O 0.57474 0.55206 0.2017 0.0
O201 O 0.56439 0.68665 0.0516 0.0
H202 H 0.75776 0.64574 0.18183 0.0
H203 H 0.63507 0.75333 0.01696 0.0
O204 O 0.51891 0.60097 0.85048 0.0
O205 O 0.57622 0.53684 0.61101 0.0
O206 O 0.6197 0.62777 0.75921 0.0
C207 C 0.59811 0.5858 0.58924 0.0
H208 H 0.39282 0.46731 0.95649 0.0
H209 H 0.80163 0.71252 0.00442 0.0
Co210 Co 0.12921 0.55995 0.47961 0.0
C211 C 0.18869 0.69298 0.58309 0.0
Co212 Co 1.06523 0.61988 0.48129 0.0
C213 C 0.19877 0.47001 0.34429 0.0
C214 C 0.24233 0.53466 0.63601 0.0
N215 N 0.18961 0.51572 0.48933 0.0
N216 N 0.25583 0.46126 0.39362 0.0
C217 C 0.28311 0.50192 0.57666 0.0
H218 H 0.16533 0.44578 0.20134 0.0
H219 H 0.25139 0.57196 0.77311 0.0
C220 C 1.00575 0.48685 0.37781 0.0
N221 N 1.00483 0.66411 0.47157 0.0
C222 C 0.99568 0.70982 0.61661 0.0
C223 C 0.95211 0.64517 0.3249 0.0
N224 N 0.93862 0.71857 0.56729 0.0
C225 C 0.91133 0.67791 0.38424 0.0
C226 C 1.09541 0.58789 0.08892 0.0
O227 O 1.06128 0.48175 0.39619 0.0
O228 O 0.99795 0.54159 0.39898 0.0
O229 O 1.06201 0.61648 0.18377 0.0
O230 O 0.12614 0.55619 0.18445 0.0
O231 O 0.13316 0.69808 0.56472 0.0
H232 H 0.94305 0.60787 0.18779 0.0
H233 H 1.02911 0.73405 0.75957 0.0
O234 O 0.19649 0.63824 0.56192 0.0
O235 O 0.13243 0.56335 0.77713 0.0
O236 O 1.0683 0.62364 0.77646 0.0
C237 C 0.09903 0.59193 0.87198 0.0
H238 H 0.32912 0.50711 0.66336 0.0
H239 H 0.86532 0.67271 0.29754 0.0
loop_
_geom_bond_atom_site_label_1
_geom_bond_atom_site_label_2
_geom_bond_distance
_geom_bond_site_symmetry_2
_ccdc_geom_bond_type
Co0 N5 2.057 . S
Co0 O17 2.021 1_655 S
Co0 O20 2.062 . S
Co0 O24 2.117 1_565 S
Co0 O25 2.020 . S
C1 O21 1.259 . S
C1 O24 1.258 . S
Co2 N11 2.057 . S
Co2 O18 2.117 1_545 S
Co2 O19 2.020 . S
Co2 O21 2.021 1_455 S
Co2 O26 2.062 . S
C3 N5 1.316 . S
C3 N6 1.347 . S
C3 H8 0.931 . S
C4 N5 1.375 . S
C4 C7 1.350 . S
C4 H9 0.930 . S
N5 Co0 2.057 . S
N5 C3 1.316 . S
N5 C4 1.375 . S
N6 C3 1.347 . S
N6 C7 1.373 . S
C7 C4 1.350 . S
C7 N6 1.373 . S
C7 H28 0.931 . S
H8 C3 0.931 . S
H9 C4 0.930 . S
C10 O17 1.259 . S
C10 O18 1.258 . S
N11 Co2 2.057 . S
N11 C12 1.316 . S
N11 C13 1.375 . S
C12 N11 1.316 . S
C12 N14 1.347 . S
C12 H23 0.931 . S
C13 N11 1.375 . S
C13 C15 1.350 . S
C13 H22 0.930 . S
N14 C12 1.347 . S
N14 C15 1.373 . S
C15 C13 1.350 . S
C15 N14 1.373 . S
C15 H29 0.931 . S
C16 O19 1.256 . S
C16 O20 1.255 1_445 S
O17 Co0 2.021 1_455 S
O17 C10 1.259 . S
O18 Co2 2.117 1_565 S
O18 C10 1.258 . S
O19 Co2 2.020 . S
O19 C16 1.256 . S
O20 Co0 2.062 . S
O20 C16 1.255 1_665 S
O21 C1 1.259 . S
O21 Co2 2.021 1_655 S
H22 C13 0.930 . S
H23 C12 0.931 . S
O24 Co0 2.117 1_545 S
O24 C1 1.258 . S
O25 Co0 2.020 . S
O25 C27 1.256 . S
O26 Co2 2.062 . S
O26 C27 1.255 1_445 S
C27 O25 1.256 . S
C27 O26 1.255 1_665 S
H28 C7 0.931 . S
H29 C15 0.931 . S
Co30 N35 2.057 . S
Co30 O47 2.021 . S
Co30 O50 2.062 1_556 S
Co30 O54 2.117 . S
Co30 O55 2.020 . S
C31 O51 1.259 . S
C31 O54 1.258 . S
Co32 N41 2.057 . S
Co32 O48 2.117 . S
Co32 O49 2.020 1_556 S
Co32 O51 2.021 . S
Co32 O56 2.062 . S
C33 N35 1.316 . S
C33 N36 1.347 . S
C33 H38 0.931 . S
C34 N35 1.375 . S
C34 C37 1.350 . S
C34 H39 0.930 . S
N35 Co30 2.057 . S
N35 C33 1.316 . S
N35 C34 1.375 . S
N36 C33 1.347 . S
N36 C37 1.373 . S
C37 C34 1.350 . S
C37 N36 1.373 . S
C37 H58 0.931 . S
H38 C33 0.931 . S
H39 C34 0.930 . S
C40 O47 1.259 . S
C40 O48 1.258 . S
N41 Co32 2.057 . S
N41 C42 1.316 . S
N41 C43 1.375 . S
C42 N41 1.316 . S
C42 N44 1.347 . S
C42 H53 0.931 . S
C43 N41 1.375 . S
C43 C45 1.350 . S
C43 H52 0.930 . S
N44 C42 1.347 . S
N44 C45 1.373 . S
C45 C43 1.350 . S
C45 N44 1.373 . S
C45 H59 0.931 . S
C46 O49 1.256 . S
C46 O50 1.255 . S
O47 Co30 2.021 . S
O47 C40 1.259 . S
O48 Co32 2.117 . S
O48 C40 1.258 . S
O49 Co32 2.020 1_554 S
O49 C46 1.256 . S
O50 Co30 2.062 1_554 S
O50 C46 1.255 . S
O51 C31 1.259 . S
O51 Co32 2.021 . S
H52 C43 0.930 . S
H53 C42 0.931 . S
O54 Co30 2.117 . S
O54 C31 1.258 . S
O55 Co30 2.020 . S
O55 C57 1.256 . S
O56 Co32 2.062 . S
O56 C57 1.255 . S
C57 O55 1.256 . S
C57 O56 1.255 . S
H58 C37 0.931 . S
H59 C45 0.931 . S
Co60 N65 2.057 . S
Co60 O77 2.021 . S
Co60 O80 2.065 . S
Co60 O84 2.117 1_566 S
Co60 O85 2.016 1_556 S
C61 O81 1.259 . S
C61 O84 1.258 . S
Co62 N71 2.058 . S
Co62 O78 2.117 1_544 S
Co62 O79 2.015 1_554 S
Co62 O81 2.021 . S
Co62 O86 2.067 . S
C63 N65 1.316 . S
C63 N66 1.347 . S
C63 H68 0.931 . S
C64 N65 1.375 1_554 S
C64 C67 1.350 1_554 S
C64 H69 0.930 . S
N65 Co60 2.057 . S
N65 C63 1.316 . S
N65 C64 1.375 1_556 S
N66 C63 1.347 . S
N66 C67 1.373 . S
C67 C64 1.350 1_556 S
C67 N66 1.373 . S
C67 H88 0.930 . S
H68 C63 0.931 . S
H69 C64 0.930 . S
C70 O77 1.259 . S
C70 O78 1.258 . S
N71 Co62 2.058 . S
N71 C72 1.316 . S
N71 C73 1.375 1_554 S
C72 N71 1.316 . S
C72 N74 1.347 . S
C72 H83 0.931 . S
C73 N71 1.375 1_556 S
C73 C75 1.350 1_556 S
C73 H82 0.930 . S
N74 C72 1.347 . S
N74 C75 1.373 . S
C75 C73 1.350 1_554 S
C75 N74 1.373 . S
C75 H89 0.930 . S
C76 O79 1.256 1_565 S
C76 O80 1.255 . S
O77 Co60 2.021 . S
O77 C70 1.259 . S
O78 Co62 2.117 1_566 S
O78 C70 1.258 . S
O79 Co62 2.015 1_556 S
O79 C76 1.256 1_545 S
O80 Co60 2.065 . S
O80 C76 1.255 . S
O81 C61 1.259 . S
O81 Co62 2.021 . S
H82 C73 0.930 . S
H83 C72 0.931 . S
O84 Co60 2.117 1_544 S
O84 C61 1.258 . S
O85 Co60 2.016 1_554 S
O85 C87 1.256 1_565 S
O86 Co62 2.067 . S
O86 C87 1.255 . S
C87 O85 1.256 1_545 S
C87 O86 1.255 . S
H88 C67 0.930 . S
H89 C75 0.930 . S
Co90 N95 2.057 . S
Co90 O107 2.021 . S
Co90 O110 2.062 1_554 S
Co90 O114 2.117 . S
Co90 O115 2.020 . S
C91 O111 1.259 . S
C91 O114 1.258 . S
Co92 N101 2.057 . S
Co92 O108 2.117 . S
Co92 O109 2.020 1_554 S
Co92 O111 2.021 . S
Co92 O116 2.062 . S
C93 N95 1.316 . S
C93 N96 1.347 . S
C93 H98 0.931 . S
C94 N95 1.375 . S
C94 C97 1.350 . S
C94 H99 0.930 . S
N95 Co90 2.057 . S
N95 C93 1.316 . S
N95 C94 1.375 . S
N96 C93 1.347 . S
N96 C97 1.373 . S
C97 C94 1.350 . S
C97 N96 1.373 . S
C97 H118 0.931 . S
H98 C93 0.931 . S
H99 C94 0.930 . S
C100 O107 1.259 . S
C100 O108 1.258 . S
N101 Co92 2.057 . S
N101 C102 1.316 . S
N101 C103 1.375 . S
C102 N101 1.316 . S
C102 N104 1.347 . S
C102 H113 0.931 . S
C103 N101 1.375 . S
C103 C105 1.350 . S
C103 H112 0.930 . S
N104 C102 1.347 . S
N104 C105 1.373 . S
C105 C103 1.350 . S
C105 N104 1.373 . S
C105 H119 0.931 . S
C106 O109 1.256 . S
C106 O110 1.255 . S
O107 Co90 2.021 . S
O107 C100 1.259 . S
O108 Co92 2.117 . S
O108 C100 1.258 . S
O109 Co92 2.020 1_556 S
O109 C106 1.256 . S
O110 Co90 2.062 1_556 S
O110 C106 1.255 . S
O111 C91 1.259 . S
O111 Co92 2.021 . S
H112 C103 0.930 . S
H113 C102 0.931 . S
O114 Co90 2.117 . S
O114 C91 1.258 . S
O115 Co90 2.020 . S
O115 C117 1.256 . S
O116 Co92 2.062 . S
O116 C117 1.255 . S
C117 O115 1.256 . S
C117 O116 1.255 . S
H118 C97 0.931 . S
H119 C105 0.931 . S
Co120 N125 2.057 . S
Co120 O137 2.021 . S
Co120 O140 2.062 . S
Co120 O144 2.117 . S
Co120 O145 2.020 1_554 S
C121 O141 1.259 . S
C121 O144 1.258 . S
Co122 N131 2.057 . S
Co122 O138 2.117 . S
Co122 O139 2.020 . S
Co122 O141 2.021 . S
Co122 O146 2.062 1_554 S
C123 N125 1.316 . S
C123 N126 1.347 . S
C123 H128 0.931 . S
C124 N125 1.375 . S
C124 C127 1.350 . S
C124 H129 0.930 . S
N125 Co120 2.057 . S
N125 C123 1.316 . S
N125 C124 1.375 . S
N126 C123 1.347 . S
N126 C127 1.373 . S
C127 C124 1.350 . S
C127 N126 1.373 . S
C127 H148 0.931 . S
H128 C123 0.931 . S
H129 C124 0.930 . S
C130 O137 1.259 . S
C130 O138 1.258 . S
N131 Co122 2.057 . S
N131 C132 1.316 . S
N131 C133 1.375 . S
C132 N131 1.316 . S
C132 N134 1.347 . S
C132 H143 0.931 . S
C133 N131 1.375 . S
C133 C135 1.350 . S
C133 H142 0.930 . S
N134 C132 1.347 . S
N134 C135 1.373 . S
C135 C133 1.350 . S
C135 N134 1.373 . S
C135 H149 0.931 . S
C136 O139 1.256 . S
C136 O140 1.255 . S
O137 Co120 2.021 . S
O137 C130 1.259 . S
O138 Co122 2.117 . S
O138 C130 1.258 . S
O139 Co122 2.020 . S
O139 C136 1.256 . S
O140 Co120 2.062 . S
O140 C136 1.255 . S
O141 C121 1.259 . S
O141 Co122 2.021 . S
H142 C133 0.930 . S
H143 C132 0.931 . S
O144 Co120 2.117 . S
O144 C121 1.258 . S
O145 Co120 2.020 1_556 S
O145 C147 1.256 . S
O146 Co122 2.062 1_556 S
O146 C147 1.255 . S
C147 O145 1.256 . S
C147 O146 1.255 . S
H148 C127 0.931 . S
H149 C135 0.931 . S
Co150 N155 2.057 . S
Co150 O167 2.021 . S
Co150 O170 2.062 . S
Co150 O174 2.117 . S
Co150 O175 2.020 1_556 S
C151 O171 1.259 . S
C151 O174 1.258 . S
Co152 N161 2.057 . S
Co152 O168 2.117 . S
Co152 O169 2.020 . S
Co152 O171 2.021 . S
Co152 O176 2.062 1_556 S
C153 N155 1.316 . S
C153 N156 1.347 . S
C153 H158 0.931 . S
C154 N155 1.375 . S
C154 C157 1.350 . S
C154 H159 0.930 . S
N155 Co150 2.057 . S
N155 C153 1.316 . S
N155 C154 1.375 . S
N156 C153 1.347 . S
N156 C157 1.373 . S
C157 C154 1.350 . S
C157 N156 1.373 . S
C157 H178 0.931 . S
H158 C153 0.931 . S
H159 C154 0.930 . S
C160 O167 1.259 . S
C160 O168 1.258 . S
N161 Co152 2.057 . S
N161 C162 1.316 . S
N161 C163 1.375 . S
C162 N161 1.316 . S
C162 N164 1.347 . S
C162 H173 0.931 . S
C163 N161 1.375 . S
C163 C165 1.350 . S
C163 H172 0.930 . S
N164 C162 1.347 . S
N164 C165 1.373 . S
C165 C163 1.350 . S
C165 N164 1.373 . S
C165 H179 0.931 . S
C166 O169 1.256 . S
C166 O170 1.255 . S
O167 Co150 2.021 . S
O167 C160 1.259 . S
O168 Co152 2.117 . S
O168 C160 1.258 . S
O169 Co152 2.020 . S
O169 C166 1.256 . S
O170 Co150 2.062 . S
O170 C166 1.255 . S
O171 C151 1.259 . S
O171 Co152 2.021 . S
H172 C163 0.930 . S
H173 C162 0.931 . S
O174 Co150 2.117 . S
O174 C151 1.258 . S
O175 Co150 2.020 1_554 S
O175 C177 1.256 . S
O176 Co152 2.062 1_554 S
O176 C177 1.255 . S
C177 O175 1.256 . S
C177 O176 1.255 . S
H178 C157 0.931 . S
H179 C165 0.931 . S
Co180 N185 2.057 . S
Co180 O197 2.021 . S
Co180 O200 2.062 1_556 S
Co180 O204 2.117 . S
Co180 O205 2.020 . S
C181 O201 1.259 1_556 S
C181 O204 1.258 . S
Co182 N191 2.057 . S
Co182 O198 2.117 . S
Co182 O199 2.020 . S
Co182 O201 2.021 . S
Co182 O206 2.062 1_554 S
C183 N185 1.316 . S
C183 N186 1.347 . S
C183 H188 0.931 . S
C184 N185 1.375 . S
C184 C187 1.350 . S
C184 H189 0.930 . S
N185 Co180 2.057 . S
N185 C183 1.316 . S
N185 C184 1.375 . S
N186 C183 1.347 . S
N186 C187 1.373 . S
C187 C184 1.350 . S
C187 N186 1.373 . S
C187 H208 0.931 . S
H188 C183 0.931 . S
H189 C184 0.930 . S
C190 O197 1.259 1_554 S
C190 O198 1.258 . S
N191 Co182 2.057 . S
N191 C192 1.316 . S
N191 C193 1.375 . S
C192 N191 1.316 . S
C192 N194 1.347 . S
C192 H203 0.931 . S
C193 N191 1.375 . S
C193 C195 1.350 . S
C193 H202 0.930 . S
N194 C192 1.347 . S
N194 C195 1.373 . S
C195 C193 1.350 . S
C195 N194 1.373 . S
C195 H209 0.931 . S
C196 O199 1.256 . S
C196 O200 1.255 . S
O197 Co180 2.021 . S
O197 C190 1.259 1_556 S
O198 Co182 2.117 . S
O198 C190 1.258 . S
O199 Co182 2.020 . S
O199 C196 1.256 . S
O200 Co180 2.062 1_554 S
O200 C196 1.255 . S
O201 C181 1.259 1_554 S
O201 Co182 2.021 . S
H202 C193 0.930 . S
H203 C192 0.931 . S
O204 Co180 2.117 . S
O204 C181 1.258 . S
O205 Co180 2.020 . S
O205 C207 1.256 . S
O206 Co182 2.062 1_556 S
O206 C207 1.255 . S
C207 O205 1.256 . S
C207 O206 1.255 . S
H208 C187 0.931 . S
H209 C195 0.931 . S
Co210 N215 2.057 . S
Co210 O227 2.021 1_455 S
Co210 O230 2.062 . S
Co210 O234 2.117 . S
Co210 O235 2.020 . S
C211 O231 1.259 . S
C211 O234 1.258 . S
Co212 N221 2.057 . S
Co212 O228 2.117 . S
Co212 O229 2.020 . S
Co212 O231 2.021 1_655 S
Co212 O236 2.062 . S
C213 N215 1.316 . S
C213 N216 1.347 . S
C213 H218 0.931 . S
C214 N215 1.375 . S
C214 C217 1.350 . S
C214 H219 0.930 . S
N215 Co210 2.057 . S
N215 C213 1.316 . S
N215 C214 1.375 . S
N216 C213 1.347 . S
N216 C217 1.373 . S
C217 C214 1.350 . S
C217 N216 1.373 . S
C217 H238 0.931 . S
H218 C213 0.931 . S
H219 C214 0.930 . S
C220 O227 1.259 . S
C220 O228 1.258 . S
N221 Co212 2.057 . S
N221 C222 1.316 . S
N221 C223 1.375 . S
C222 N221 1.316 . S
C222 N224 1.347 . S
C222 H233 0.931 . S
C223 N221 1.375 . S
C223 C225 1.350 . S
C223 H232 0.930 . S
N224 C222 1.347 . S
N224 C225 1.373 . S
C225 C223 1.350 . S
C225 N224 1.373 . S
C225 H239 0.931 . S
C226 O229 1.256 . S
C226 O230 1.255 1_655 S
O227 Co210 2.021 1_655 S
O227 C220 1.259 . S
O228 Co212 2.117 . S
O228 C220 1.258 . S
O229 Co212 2.020 . S
O229 C226 1.256 . S
O230 Co210 2.062 . S
O230 C226 1.255 1_455 S
O231 C211 1.259 . S
O231 Co212 2.021 1_455 S
H232 C223 0.930 . S
H233 C222 0.931 . S
O234 Co210 2.117 . S
O234 C211 1.258 . S
O235 Co210 2.020 . S
O235 C237 1.256 . S
O236 Co212 2.062 . S
O236 C237 1.255 1_655 S
C237 O235 1.256 . S
C237 O236 1.255 1_455 S
H238 C217 0.931 . S
H239 C225 0.931 . S
N14 N104 2.237 . S
C10 N44 1.493 . S
C40 C70 4.378 . S
N74 C100 1.492 . S
N6 N156 2.234 . S
C1 N126 1.494 . S
C121 C61 4.375 . S
C151 N66 1.496 . S
N194 N164 2.236 1_554 S
N134 C190 1.493 . S
C220 C130 4.378 . S
C160 N224 1.495 . S
N96 N186 2.235 1_554 S
C181 N36 1.494 . S
C31 C211 4.374 . S
C91 N216 1.492 . S
C16 C27 1.678 1_446 S
C57 C46 1.498 . S
C76 C87 1.498 1_565 S
C106 C117 1.678 . S
C147 C136 1.498 . S
C166 C177 1.678 . S
C207 C196 1.678 . S
C237 C226 1.498 1_456 S
