# Generated by pormake.
# Topology ilc, (8)-cn, num edge types: 1
# Building blocks:
#     Node 0, Type 0, BuildingBlock: XADDAJ01_clean_sbu_3, # of connection points: 8
#     Node 1, Type 0, BuildingBlock: XADDAJ01_clean_sbu_3, # of connection points: 8
#     Node 2, Type 0, BuildingBlock: XADDAJ01_clean_sbu_3, # of connection points: 8
#     Edge 3, Type (0, 0), None
#     Edge 4, Type (0, 0), None
#     Edge 5, Type (0, 0), None
#     Edge 6, Type (0, 0), None
#     Edge 7, Type (0, 0), None
#     Edge 8, Type (0, 0), None
#     Edge 9, Type (0, 0), None
#     Edge 10, Type (0, 0), None
#     Edge 11, Type (0, 0), None
#     Edge 12, Type (0, 0), None
#     Edge 13, Type (0, 0), None
#     Edge 14, Type (0, 0), None
# Relax obj value: 0.277
# Max RMSD: 0.231
# Mean RMSD: 0.231
data_MOF--net-ilc--node1-XADDAJ01_clean_sbu_3--edge1-none
_symmetry_space_group_name_H-M    P1
_symmetry_Int_Tables_number       1
_symmetry_cell_setting            triclinic
loop_
_symmetry_equiv_pos_as_xyz
'x, y, z'
_cell_length_a     14.481014
_cell_length_b     14.781515
_cell_length_c     11.928927
_cell_angle_alpha  112.05991
_cell_angle_beta   51.458835
_cell_angle_gamma 136.67954
loop_
_atom_site_label
_atom_site_type_symbol
_atom_site_fract_x
_atom_site_fract_y
_atom_site_fract_z
_atom_type_partial_charge
C0 C -0.01065 0.87786 0.24188 0.0
C1 C -0.07383 0.9263 0.36068 0.0
C2 C -0.06004 0.95284 0.47708 0.0
C3 C 0.00824 0.91528 0.47468 0.0
C4 C 0.05051 0.84578 0.36626 0.0
C5 C 0.03948 0.82893 0.24883 0.0
O6 O 0.77898 0.98794 0.27362 0.0
Tb7 Tb 0.02698 0.07472 0.10214 0.0
Tb8 Tb 0.80453 0.90357 0.96906 0.0
O9 O 0.09994 0.20995 0.24885 0.0
O10 O 0.65687 0.79654 0.18069 0.0
O11 O 0.16896 0.04992 0.06375 0.0
C12 C 0.78684 0.05768 0.96735 0.0
O13 O -0.06788 0.87893 0.09589 0.0
O14 O 0.05252 -0.00966 0.79758 0.0
O15 O 0.17463 0.18174 0.89051 0.0
C16 C 0.04466 0.92059 0.10381 0.0
C17 C 0.76426 0.69296 0.75962 0.0
O18 O 0.82355 0.68397 0.80018 0.0
C19 C 0.65389 0.85939 0.29396 0.0
C20 C 0.17761 0.11889 0.77724 0.0
O21 O 0.73157 0.76833 0.82235 0.0
C22 C 0.84215 0.10036 0.82925 0.0
C23 C 0.78102 0.13248 0.7049 0.0
C24 C 0.79203 0.14932 0.82234 0.0
C25 C 0.90535 0.05194 0.71048 0.0
C26 C 0.89157 0.02541 0.59407 0.0
C27 C 0.82332 0.063 0.59646 0.0
C28 C 0.06726 0.28533 0.31157 0.0
O29 O 0.00797 0.29432 0.271 0.0
O30 O 0.66254 0.92835 1.00744 0.0
O31 O 0.89939 0.09935 0.97528 0.0
H32 H 0.88339 0.95671 0.35043 0.0
H33 H 0.03025 0.94075 0.55614 0.0
H34 H 0.07796 0.78601 0.15704 0.0
H35 H 0.75354 0.19224 0.91414 0.0
H36 H -0.05189 0.02151 0.72075 0.0
H37 H 0.80134 0.03755 0.51498 0.0
C38 C 0.656 0.21118 0.57522 0.0
C39 C 0.59281 0.25961 0.69402 0.0
C40 C 0.60662 0.28617 0.81042 0.0
C41 C 0.67491 0.24862 0.80801 0.0
C42 C 0.7172 0.17913 0.69958 0.0
C43 C 0.70614 0.16225 0.58217 0.0
O44 O 0.44565 0.32127 0.60695 0.0
Tb45 Tb 0.69364 0.40805 0.43547 0.0
Tb46 Tb 0.47119 0.2369 0.30239 0.0
O47 O 0.7666 0.54328 0.58218 0.0
O48 O 0.32353 0.12988 0.51403 0.0
O49 O 0.83561 0.38325 0.3971 0.0
C50 C 0.4535 0.39101 0.30069 0.0
O51 O 0.59878 0.21226 0.42923 0.0
O52 O 0.71919 0.32368 0.13092 0.0
O53 O 0.8413 0.51507 0.22384 0.0
C54 C 0.71132 0.25391 0.43715 0.0
C55 C 0.43092 0.02629 0.09296 0.0
O56 O 0.49021 0.0173 0.13352 0.0
C57 C 0.32055 0.19273 0.6273 0.0
C58 C 0.84428 0.45223 0.11057 0.0
O59 O 0.39823 0.10166 0.15569 0.0
C60 C 0.50881 0.43369 0.16259 0.0
C61 C 0.44768 0.46582 0.03823 0.0
C62 C 0.45869 0.48265 0.15567 0.0
C63 C 0.572 0.38526 0.04382 0.0
C64 C 0.55823 0.35874 0.92741 0.0
C65 C 0.48998 0.39633 0.92979 0.0
C66 C 0.73393 0.61866 0.6449 0.0
O67 O 0.67464 0.62765 0.60434 0.0
O68 O 0.3292 0.26168 0.34078 0.0
O69 O 0.56605 0.43268 0.30861 0.0
H70 H 0.55001 0.29001 0.68377 0.0
H71 H 0.69694 0.27411 0.88946 0.0
H72 H 0.74462 0.11934 0.49037 0.0
H73 H 0.42021 0.52557 0.24747 0.0
H74 H 0.61474 0.35482 0.05409 0.0
H75 H 0.46802 0.3709 0.8483 0.0
C76 C 0.32268 0.54453 0.90855 0.0
C77 C 0.25951 0.59297 1.02734 0.0
C78 C 0.27329 0.61951 0.14375 0.0
C79 C 0.34157 0.58195 0.14135 0.0
C80 C 0.38386 0.51246 1.03292 0.0
C81 C 0.37281 0.49559 0.9155 0.0
O82 O 0.11232 0.65461 0.94029 0.0
Tb83 Tb 0.36031 0.74138 0.7688 0.0
Tb84 Tb 0.13787 0.57024 0.63572 0.0
O85 O 0.43327 0.87662 0.91551 0.0
O86 O -0.0098 0.46321 0.84736 0.0
O87 O 0.50229 0.71659 0.73042 0.0
C88 C 0.12019 0.72436 0.63401 0.0
O89 O 0.26545 0.5456 0.76256 0.0
O90 O 0.38586 0.65701 0.46425 0.0
O91 O 0.50797 0.84841 0.55717 0.0
C92 C 0.37799 0.58725 0.77048 0.0
C93 C 0.09759 0.35963 0.42629 0.0
O94 O 0.15688 0.35064 0.46685 0.0
C95 C -0.01278 0.52606 0.96063 0.0
C96 C 0.51095 0.78556 0.4439 0.0
O97 O 0.06491 0.435 0.48902 0.0
C98 C 0.1755 0.76704 0.49591 0.0
C99 C 0.11433 0.79914 0.37158 0.0
C100 C 0.12536 0.81599 0.489 0.0
C101 C 0.2387 0.71862 0.37714 0.0
C102 C 0.22491 0.69208 0.26074 0.0
C103 C 0.15664 0.72966 0.26314 0.0
C104 C 0.4006 0.952 0.97823 0.0
O105 O 0.34131 0.96098 0.93767 0.0
O106 O -0.00412 0.59503 0.6741 0.0
O107 O 0.23273 0.76602 0.64194 0.0
H108 H 0.21673 0.62339 1.01709 0.0
H109 H 0.36358 0.60742 0.22281 0.0
H110 H 0.41129 0.45267 0.8237 0.0
H111 H 0.08688 0.85891 0.58081 0.0
H112 H 0.28147 0.6882 0.38741 0.0
H113 H 0.13465 0.7042 0.18166 0.0
loop_
_geom_bond_atom_site_label_1
_geom_bond_atom_site_label_2
_geom_bond_distance
_geom_bond_site_symmetry_2
_ccdc_geom_bond_type
C0 C1 1.386 . S
C0 C5 1.384 1_545 S
C0 C16 1.497 . S
C1 C0 1.386 . S
C1 C2 1.393 . S
C1 H32 0.932 . S
C2 C1 1.393 . S
C2 C3 1.387 1_545 S
C3 C2 1.387 1_565 S
C3 C4 1.392 . S
C3 H33 0.930 . S
C4 C3 1.392 . S
C4 C5 1.402 . S
C5 C0 1.384 1_565 S
C5 C4 1.402 . S
C5 H34 0.930 . S
O6 Tb7 2.288 1_665 S
O6 C19 1.257 . S
Tb7 O6 2.288 1_445 S
Tb7 O9 2.303 . S
Tb7 O11 2.430 . S
Tb7 O13 2.459 . S
Tb7 O15 2.301 1_554 S
Tb7 C16 2.808 . S
Tb8 O10 2.301 1_556 S
Tb8 C12 2.808 . S
Tb8 O14 2.288 1_665 S
Tb8 O21 2.303 . S
Tb8 O30 2.430 . S
Tb8 O31 2.459 . S
O9 Tb7 2.303 . S
O9 C28 1.255 . S
O10 Tb8 2.301 1_554 S
O10 C19 1.237 . S
O11 Tb7 2.430 . S
O11 C16 1.248 . S
C12 Tb8 2.808 . S
C12 C22 1.497 . S
C12 O30 1.248 . S
C12 O31 1.260 . S
O13 Tb7 2.459 . S
O13 C16 1.260 . S
O14 Tb8 2.288 1_445 S
O14 C20 1.257 . S
O15 Tb7 2.301 1_556 S
O15 C20 1.237 . S
C16 C0 1.497 . S
C16 Tb7 2.808 . S
C16 O11 1.248 . S
C16 O13 1.260 . S
C17 O18 1.255 . S
C17 O21 1.255 . S
O18 C17 1.255 . S
C19 O6 1.257 . S
C19 O10 1.237 . S
C20 O14 1.257 . S
C20 O15 1.237 . S
O21 Tb8 2.303 . S
O21 C17 1.255 . S
C22 C12 1.497 . S
C22 C24 1.384 1_565 S
C22 C25 1.386 . S
C23 C24 1.402 . S
C23 C27 1.392 . S
C24 C22 1.384 1_545 S
C24 C23 1.402 . S
C24 H35 0.930 . S
C25 C22 1.386 . S
C25 C26 1.393 . S
C25 H36 0.932 . S
C26 C25 1.393 . S
C26 C27 1.387 1_565 S
C27 C23 1.392 . S
C27 C26 1.387 1_545 S
C27 H37 0.930 . S
C28 O9 1.255 . S
C28 O29 1.255 . S
O29 C28 1.255 . S
O30 Tb8 2.430 . S
O30 C12 1.248 . S
O31 Tb8 2.459 . S
O31 C12 1.260 . S
H32 C1 0.932 . S
H33 C3 0.930 . S
H34 C5 0.930 . S
H35 C24 0.930 . S
H36 C25 0.932 . S
H37 C27 0.930 . S
C38 C39 1.386 . S
C38 C43 1.384 . S
C38 C54 1.497 . S
C39 C38 1.386 . S
C39 C40 1.393 . S
C39 H70 0.932 . S
C40 C39 1.393 . S
C40 C41 1.387 . S
C41 C40 1.387 . S
C41 C42 1.392 . S
C41 H71 0.930 . S
C42 C41 1.392 . S
C42 C43 1.402 . S
C43 C38 1.384 . S
C43 C42 1.402 . S
C43 H72 0.930 . S
O44 Tb45 2.288 . S
O44 C57 1.257 . S
Tb45 O44 2.288 . S
Tb45 O47 2.303 . S
Tb45 O49 2.430 . S
Tb45 O51 2.459 . S
Tb45 O53 2.301 1_655 S
Tb45 C54 2.808 . S
Tb46 O48 2.301 . S
Tb46 C50 2.808 . S
Tb46 O52 2.288 . S
Tb46 O59 2.303 . S
Tb46 O68 2.430 . S
Tb46 O69 2.459 . S
O47 Tb45 2.303 . S
O47 C66 1.255 . S
O48 Tb46 2.301 . S
O48 C57 1.237 . S
O49 Tb45 2.430 . S
O49 C54 1.248 . S
C50 Tb46 2.808 . S
C50 C60 1.497 . S
C50 O68 1.248 . S
C50 O69 1.260 . S
O51 Tb45 2.459 . S
O51 C54 1.260 . S
O52 Tb46 2.288 . S
O52 C58 1.257 . S
O53 Tb45 2.301 1_455 S
O53 C58 1.237 1_455 S
C54 C38 1.497 . S
C54 Tb45 2.808 . S
C54 O49 1.248 . S
C54 O51 1.260 . S
C55 O56 1.255 . S
C55 O59 1.255 1_565 S
O56 C55 1.255 . S
C57 O44 1.257 . S
C57 O48 1.237 . S
C58 O52 1.257 . S
C58 O53 1.237 1_655 S
O59 Tb46 2.303 . S
O59 C55 1.255 1_545 S
C60 C50 1.497 . S
C60 C62 1.384 . S
C60 C63 1.386 1_554 S
C61 C62 1.402 . S
C61 C65 1.392 1_554 S
C62 C60 1.384 . S
C62 C61 1.402 . S
C62 H73 0.930 . S
C63 C60 1.386 1_556 S
C63 C64 1.393 . S
C63 H74 0.932 . S
C64 C63 1.393 . S
C64 C65 1.387 . S
C65 C61 1.392 1_556 S
C65 C64 1.387 . S
C65 H75 0.930 . S
C66 O47 1.255 . S
C66 O67 1.255 . S
O67 C66 1.255 . S
O68 Tb46 2.430 . S
O68 C50 1.248 . S
O69 Tb46 2.459 . S
O69 C50 1.260 . S
H70 C39 0.932 . S
H71 C41 0.930 . S
H72 C43 0.930 . S
H73 C62 0.930 . S
H74 C63 0.932 . S
H75 C65 0.930 . S
C76 C77 1.386 1_556 S
C76 C81 1.384 . S
C76 C92 1.497 . S
C77 C76 1.386 1_554 S
C77 C78 1.393 . S
C77 H108 0.932 . S
C78 C77 1.393 . S
C78 C79 1.387 . S
C79 C78 1.387 . S
C79 C80 1.392 1_554 S
C79 H109 0.930 . S
C80 C79 1.392 1_556 S
C80 C81 1.402 . S
C81 C76 1.384 . S
C81 C80 1.402 . S
C81 H110 0.930 . S
O82 Tb83 2.288 . S
O82 C95 1.257 . S
Tb83 O82 2.288 . S
Tb83 O85 2.303 . S
Tb83 O87 2.430 . S
Tb83 O89 2.459 . S
Tb83 O91 2.301 . S
Tb83 C92 2.808 . S
Tb84 O86 2.301 1_455 S
Tb84 C88 2.808 . S
Tb84 O90 2.288 . S
Tb84 O97 2.303 . S
Tb84 O106 2.430 . S
Tb84 O107 2.459 . S
O85 Tb83 2.303 . S
O85 C104 1.255 1_565 S
O86 Tb84 2.301 1_655 S
O86 C95 1.237 1_655 S
O87 Tb83 2.430 . S
O87 C92 1.248 . S
C88 Tb84 2.808 . S
C88 C98 1.497 . S
C88 O106 1.248 . S
C88 O107 1.260 . S
O89 Tb83 2.459 . S
O89 C92 1.260 . S
O90 Tb84 2.288 . S
O90 C96 1.257 . S
O91 Tb83 2.301 . S
O91 C96 1.237 . S
C92 C76 1.497 . S
C92 Tb83 2.808 . S
C92 O87 1.248 . S
C92 O89 1.260 . S
C93 O94 1.255 . S
C93 O97 1.255 . S
O94 C93 1.255 . S
C95 O82 1.257 . S
C95 O86 1.237 1_455 S
C96 O90 1.257 . S
C96 O91 1.237 . S
O97 Tb84 2.303 . S
O97 C93 1.255 . S
C98 C88 1.497 . S
C98 C100 1.384 . S
C98 C101 1.386 . S
C99 C100 1.402 . S
C99 C103 1.392 . S
C100 C98 1.384 . S
C100 C99 1.402 . S
C100 H111 0.930 . S
C101 C98 1.386 . S
C101 C102 1.393 . S
C101 H112 0.932 . S
C102 C101 1.393 . S
C102 C103 1.387 . S
C103 C99 1.392 . S
C103 C102 1.387 . S
C103 H113 0.930 . S
C104 O85 1.255 1_545 S
C104 O105 1.255 . S
O105 C104 1.255 . S
O106 Tb84 2.430 . S
O106 C88 1.248 . S
O107 Tb84 2.459 . S
O107 C88 1.260 . S
H108 C77 0.932 . S
H109 C79 0.930 . S
H110 C81 0.930 . S
H111 C100 0.930 . S
H112 C101 0.932 . S
H113 C103 0.930 . S
C26 C2 5.010 1_665 S
C40 C64 5.010 . S
C78 C102 5.010 . S
C99 C4 2.728 . S
C93 C28 2.566 . S
C96 C19 2.832 . S
C42 C23 2.728 . S
C66 C17 2.568 . S
C57 C20 2.834 . S
C61 C80 2.728 1_554 S
C104 C55 2.567 1_546 S
C95 C58 2.833 1_456 S
