# Generated by pormake.
# Topology pcu, (6)-cn, num edge types: 1
# Building blocks:
#     Node 0, Type 0, BuildingBlock: HISSIN_clean_sbu_0, # of connection points: 6
#     Edge 1, Type (0, 0), BuildingBlock: OJICUG_clean_linker_0, # of connection points: 2
#     Edge 2, Type (0, 0), BuildingBlock: OJICUG_clean_linker_0, # of connection points: 2
#     Edge 3, Type (0, 0), BuildingBlock: OJICUG_clean_linker_0, # of connection points: 2
# Relax obj value: 0.000
# Max RMSD: 0.000
# Mean RMSD: 0.000
data_MOF--net-pcu--node1-HISSIN_clean_sbu_0--edge1-OJICUG_clean_linker_0
_symmetry_space_group_name_H-M    P1
_symmetry_Int_Tables_number       1
_symmetry_cell_setting            triclinic
loop_
_symmetry_equiv_pos_as_xyz
'x, y, z'
_cell_length_a     11.189695
_cell_length_b     21.241798
_cell_length_c     11.311251
_cell_angle_alpha  120.33758
_cell_angle_beta   91.234605
_cell_angle_gamma 96.052014
loop_
_atom_site_label
_atom_site_type_symbol
_atom_site_fract_x
_atom_site_fract_y
_atom_site_fract_z
_atom_type_partial_charge
Eu0 Eu 0.98394 0.94067 0.8849 0.0
Eu1 Eu 0.02289 0.12521 0.05918 0.0
C2 C 0.24537 0.03474 -0.02307 0.0
C3 C 0.95228 0.74266 0.80564 0.0
C4 C 0.9897 0.76434 0.94158 0.0
C5 C 0.90959 0.6161 0.75232 0.0
C6 C 0.98826 0.71221 -0.01758 0.0
C7 C 0.91124 0.6684 0.7116 0.0
C8 C 0.94921 0.63727 0.88799 0.0
C9 C 0.96067 0.79675 0.76042 0.0
O10 O 0.04314 0.09078 0.83817 0.0
O11 O 0.95056 0.97043 0.72344 0.0
C12 C -0.0045 1.03068 0.72515 0.0
O13 O 0.80579 0.97706 0.96307 0.0
O14 O 0.13538 0.22858 0.1184 0.0
O15 O 0.95883 0.23045 0.19356 0.0
O16 O 0.82888 0.08835 -0.02645 0.0
C17 C 0.76033 0.03287 0.96852 0.0
O18 O 0.02654 0.97381 0.10547 0.0
O19 O 0.98584 0.0939 0.21874 0.0
O20 O 0.20069 0.08937 0.07869 0.0
O21 O 0.86977 0.83368 0.78079 0.0
O22 O 0.06378 0.8388 0.79323 0.0
O23 O 0.17537 0.98034 0.87384 0.0
C24 C 0.02615 0.32208 0.14203 0.0
C25 C 0.97386 0.29748 0.00955 0.0
C26 C 0.03866 0.44826 0.193 0.0
C27 C 0.95509 0.34794 0.9685 0.0
C28 C 0.05763 0.39766 0.23378 0.0
C29 C 0.98817 0.42395 0.05938 0.0
C30 C 0.05216 0.26898 0.18274 0.0
C31 C 0.00521 0.03359 0.21751 0.0
H32 H 0.02248 0.82142 0.01539 0.0
H33 H 0.87743 0.55907 0.67746 0.0
H34 H 0.02101 0.73044 0.08702 0.0
H35 H 0.88189 0.65071 0.60624 0.0
H36 H 0.94874 0.23917 0.93749 0.0
H37 H 0.06646 0.50627 0.26496 0.0
H38 H 0.91459 0.32742 0.86561 0.0
H39 H 0.09856 0.41749 0.33627 0.0
C40 C 0.01459 0.09896 0.47428 0.0
C41 C 0.00206 0.03273 0.34721 0.0
H42 H 0.02297 0.15021 0.69315 0.0
C43 C 0.98515 0.96563 0.34518 0.0
H44 H 0.02771 0.15155 0.47932 0.0
C45 C 0.98095 0.96481 0.46778 0.0
C46 C -0.00471 1.03107 0.5949 0.0
H47 H 0.97398 0.91365 0.24886 0.0
H48 H 0.96821 0.91225 0.46289 0.0
C49 C 0.01212 0.09815 0.59685 0.0
C50 C 0.45598 0.10105 0.04067 0.0
C51 C 0.37714 0.03461 -0.02353 0.0
H52 H 0.63964 0.15252 0.08578 0.0
C53 C 0.42512 0.96769 0.90967 0.0
H54 H 0.42119 0.15338 0.09225 0.0
C55 C 0.54983 0.96715 0.90837 0.0
C56 C 0.62869 0.03355 0.97068 0.0
H57 H 0.36625 0.91567 0.85975 0.0
H58 H 0.58446 0.91476 0.85687 0.0
C59 C 0.58071 0.10054 0.03622 0.0
C60 C 0.92359 0.59658 0.06109 0.0
C61 C 0.95382 0.58137 0.92994 0.0
H62 H 0.90899 0.55868 0.20404 0.0
C63 C -0.00772 0.51312 0.8406 0.0
H64 H 0.89186 0.64809 0.13176 0.0
C65 C 0.00183 0.46184 0.88198 0.0
C66 C 0.97334 0.47751 0.01381 0.0
H67 H 0.01828 0.5 0.73979 0.0
H68 H 0.03469 0.41064 0.81178 0.0
C69 C 0.93338 0.54532 0.10257 0.0
loop_
_geom_bond_atom_site_label_1
_geom_bond_atom_site_label_2
_geom_bond_distance
_geom_bond_site_symmetry_2
_ccdc_geom_bond_type
Eu0 C9 2.828 . S
Eu0 O11 2.392 . S
Eu0 O13 2.418 . S
Eu0 O18 2.373 1_556 S
Eu0 O21 2.488 . S
Eu0 O22 2.471 1_655 S
Eu0 O23 2.349 1_655 S
Eu1 O10 2.373 1_554 S
Eu1 O14 2.488 . S
Eu1 O15 2.471 1_455 S
Eu1 O16 2.349 1_455 S
Eu1 O19 2.392 . S
Eu1 O20 2.418 . S
Eu1 C30 2.828 . S
C2 O20 1.244 . S
C2 O23 1.265 1_544 S
C3 C4 1.379 1_656 S
C3 C7 1.373 . S
C3 C9 1.505 . S
C4 C3 1.379 1_454 S
C4 C6 1.369 . S
C4 H32 0.930 . S
C5 C7 1.383 . S
C5 C8 1.382 . S
C5 H33 0.930 . S
C6 C4 1.369 . S
C6 C8 1.392 1_454 S
C6 H34 0.930 . S
C7 C3 1.373 . S
C7 C5 1.383 . S
C7 H35 0.931 . S
C8 C5 1.382 . S
C8 C6 1.392 1_656 S
C9 Eu0 2.828 . S
C9 C3 1.505 . S
C9 O21 1.249 . S
C9 O22 1.244 1_655 S
O10 Eu1 2.373 1_556 S
O10 C12 1.258 1_545 S
O11 Eu0 2.392 . S
O11 C12 1.242 1_655 S
C12 O10 1.258 1_565 S
C12 O11 1.242 1_455 S
O13 Eu0 2.418 . S
O13 C17 1.244 . S
O14 Eu1 2.488 . S
O14 C30 1.249 . S
O15 Eu1 2.471 1_655 S
O15 C30 1.244 1_655 S
O16 Eu1 2.349 1_655 S
O16 C17 1.265 1_544 S
C17 O13 1.244 . S
C17 O16 1.265 1_566 S
O18 Eu0 2.373 1_554 S
O18 C31 1.258 1_665 S
O19 Eu1 2.392 . S
O19 C31 1.242 . S
O20 Eu1 2.418 . S
O20 C2 1.244 . S
O21 Eu0 2.488 . S
O21 C9 1.249 . S
O22 Eu0 2.471 1_455 S
O22 C9 1.244 1_455 S
O23 Eu0 2.349 1_455 S
O23 C2 1.265 1_566 S
C24 C25 1.379 1_454 S
C24 C28 1.373 . S
C24 C30 1.505 . S
C25 C24 1.379 1_656 S
C25 C27 1.369 . S
C25 H36 0.930 . S
C26 C28 1.383 . S
C26 C29 1.382 . S
C26 H37 0.930 . S
C27 C25 1.369 . S
C27 C29 1.392 1_656 S
C27 H38 0.930 . S
C28 C24 1.373 . S
C28 C26 1.383 . S
C28 H39 0.931 . S
C29 C26 1.382 . S
C29 C27 1.392 1_454 S
C30 Eu1 2.828 . S
C30 O14 1.249 . S
C30 O15 1.244 1_455 S
C30 C24 1.505 . S
C31 O18 1.258 1_445 S
C31 O19 1.242 . S
H32 C4 0.930 . S
H33 C5 0.930 . S
H34 C6 0.930 . S
H35 C7 0.931 . S
H36 C25 0.930 . S
H37 C26 0.930 . S
H38 C27 0.930 . S
H39 C28 0.931 . S
C40 C41 1.388 1_545 S
C40 H44 0.950 . S
C40 C49 1.390 . S
C41 C40 1.388 1_565 S
C41 C43 1.388 1_455 S
H42 C49 0.950 . S
C43 C41 1.388 1_655 S
C43 C45 1.390 . S
C43 H47 0.950 . S
H44 C40 0.950 . S
C45 C43 1.390 . S
C45 C46 1.390 1_665 S
C45 H48 0.950 . S
C46 C45 1.390 1_445 S
C46 C49 1.390 . S
H47 C43 0.950 . S
H48 C45 0.950 . S
C49 C40 1.390 . S
C49 H42 0.950 . S
C49 C46 1.390 . S
C50 C51 1.387 . S
C50 H54 0.950 . S
C50 C59 1.393 . S
C51 C50 1.387 . S
C51 C53 1.393 1_544 S
H52 C59 0.939 . S
C53 C51 1.393 1_566 S
C53 C55 1.392 . S
C53 H57 0.942 . S
H54 C50 0.950 . S
C55 C53 1.392 . S
C55 C56 1.388 . S
C55 H58 0.950 . S
C56 C55 1.388 . S
C56 C59 1.395 1_566 S
H57 C53 0.942 . S
H58 C55 0.950 . S
C59 C50 1.393 . S
C59 H52 0.939 . S
C59 C56 1.395 1_544 S
C60 C61 1.389 1_655 S
C60 H64 0.950 . S
C60 C69 1.390 . S
C61 C60 1.389 1_455 S
C61 C63 1.389 1_554 S
H62 C69 0.950 . S
C63 C61 1.389 1_556 S
C63 C65 1.390 . S
C63 H67 0.950 . S
H64 C60 0.950 . S
C65 C63 1.390 . S
C65 C66 1.387 1_455 S
C65 H68 0.950 . S
C66 C65 1.387 1_655 S
C66 C69 1.389 1_556 S
H67 C63 0.950 . S
H68 C65 0.950 . S
C69 C60 1.390 . S
C69 H62 0.950 . S
C69 C66 1.389 1_554 S
C41 C31 1.498 1_565 S
C46 C12 1.496 1_545 S
C51 C2 1.467 . S
C56 C17 1.465 . S
C61 C8 1.491 1_454 S
C66 C29 1.493 1_656 S
