# Generated by pormake.
# Topology sxb, (6)-cn, num edge types: 1
# Building blocks:
#     Node 0, Type 0, BuildingBlock: MIDCAF_clean_sbu_0, # of connection points: 6
#     Node 1, Type 0, BuildingBlock: MIDCAF_clean_sbu_0, # of connection points: 6
#     Node 2, Type 0, BuildingBlock: MIDCAF_clean_sbu_0, # of connection points: 6
#     Node 3, Type 0, BuildingBlock: MIDCAF_clean_sbu_0, # of connection points: 6
#     Edge 4, Type (0, 0), None
#     Edge 5, Type (0, 0), None
#     Edge 6, Type (0, 0), None
#     Edge 7, Type (0, 0), None
#     Edge 8, Type (0, 0), None
#     Edge 9, Type (0, 0), None
#     Edge 10, Type (0, 0), None
#     Edge 11, Type (0, 0), None
#     Edge 12, Type (0, 0), None
#     Edge 13, Type (0, 0), None
#     Edge 14, Type (0, 0), None
#     Edge 15, Type (0, 0), None
# Relax obj value: 0.307
# Max RMSD: 0.251
# Mean RMSD: 0.251
data_MOF--net-sxb--node1-MIDCAF_clean_sbu_0--edge1-none
_symmetry_space_group_name_H-M    P1
_symmetry_Int_Tables_number       1
_symmetry_cell_setting            triclinic
loop_
_symmetry_equiv_pos_as_xyz
'x, y, z'
_cell_length_a     7.1017619
_cell_length_b     13.285307
_cell_length_c     15.179611
_cell_angle_alpha  100.44727
_cell_angle_beta   89.998538
_cell_angle_gamma 89.999134
loop_
_atom_site_label
_atom_site_type_symbol
_atom_site_fract_x
_atom_site_fract_y
_atom_site_fract_z
_atom_type_partial_charge
Zn0 Zn 0.10078 0.29964 0.10073 0.0
Zn1 Zn 0.81418 0.96505 0.87293 0.0
Zn2 Zn -0.02809 0.13621 -0.0197 0.0
C3 C 0.10356 0.91905 0.00235 0.0
C4 C 0.02306 0.08511 0.7665 0.0
O5 O 0.76424 0.26138 0.00216 0.0
O6 O 0.91115 0.40242 0.06342 0.0
C7 C 0.0311 0.13949 0.19094 0.0
O8 O 0.07761 0.01209 0.04162 0.0
O9 O 0.0075 0.88254 0.93345 0.0
O10 O 0.90587 0.01279 0.76262 0.0
O11 O 0.08434 0.13218 0.84296 0.0
O12 O 0.03021 0.23638 0.20727 0.0
O13 O 0.03503 0.09033 0.10949 0.0
O14 O 0.21467 0.14929 0.91004 0.0
O15 O 0.33868 0.22875 0.03706 0.0
C16 C 0.35641 0.16976 0.96164 0.0
O17 O 0.68484 0.1683 0.96606 0.0
O18 O 0.54657 0.02191 0.91 0.0
C19 C 0.76343 0.35874 0.02856 0.0
C20 C 0.53651 0.11748 0.94007 0.0
Zn21 Zn 0.10086 0.92251 0.35544 0.0
Zn22 Zn 0.81417 0.25715 0.58323 0.0
Zn23 Zn -0.02802 0.08593 0.47587 0.0
C24 C 0.10363 0.3031 0.45382 0.0
C25 C 0.02313 0.13716 0.68967 0.0
O26 O 0.76431 0.96077 0.45401 0.0
O27 O 0.91123 0.81973 0.39275 0.0
C28 C 0.03113 0.08266 0.26524 0.0
O29 O 0.07771 0.21006 0.41456 0.0
O30 O 0.00751 0.33963 0.52269 0.0
O31 O 0.90591 0.20947 0.69356 0.0
O32 O 0.08436 0.09001 0.61323 0.0
O33 O 0.03025 -0.01423 0.24891 0.0
O34 O 0.03508 0.13182 0.34668 0.0
O35 O 0.21472 0.07284 0.54614 0.0
O36 O 0.33875 -0.0066 0.4191 0.0
C37 C 0.35647 0.05237 0.49453 0.0
O38 O 0.6849 0.05385 0.49012 0.0
O39 O 0.5466 0.20024 0.54616 0.0
C40 C 0.76351 0.86341 0.4276 0.0
C41 C 0.53656 0.10466 0.51611 0.0
Zn42 Zn 0.60077 0.79964 0.10073 0.0
Zn43 Zn 0.31417 0.46504 0.87293 0.0
Zn44 Zn 0.47189 0.63621 -0.0197 0.0
C45 C 0.60355 0.41905 0.00234 0.0
C46 C 0.52304 0.58512 0.7665 0.0
O47 O 0.26422 0.76138 0.00216 0.0
O48 O 0.41115 0.90242 0.06342 0.0
C49 C 0.53108 0.63949 0.19094 0.0
O50 O 0.57761 0.51209 0.04162 0.0
O51 O 0.5075 0.38254 0.93344 0.0
O52 O 0.40585 0.51279 0.76262 0.0
O53 O 0.58432 0.63218 0.84296 0.0
O54 O 0.53019 0.73638 0.20727 0.0
O55 O 0.53502 0.59033 0.10949 0.0
O56 O 0.71466 0.64928 0.91004 0.0
O57 O 0.83867 0.72874 0.03707 0.0
C58 C 0.8564 0.66976 0.96164 0.0
O59 O 0.18483 0.66829 0.96606 0.0
O60 O 0.04656 0.5219 0.91 0.0
C61 C 0.26344 0.85874 0.02856 0.0
C62 C 0.0365 0.61748 0.94007 0.0
Zn63 Zn 0.60085 0.42251 0.35544 0.0
Zn64 Zn 0.31416 0.75717 0.58323 0.0
Zn65 Zn 0.47196 0.58594 0.47588 0.0
C66 C 0.60362 0.8031 0.45381 0.0
C67 C 0.52312 0.63717 0.68967 0.0
O68 O 0.2643 0.46077 0.45401 0.0
O69 O 0.41123 0.31973 0.39275 0.0
C70 C 0.5311 0.58266 0.26524 0.0
O71 O 0.5777 0.71006 0.41455 0.0
O72 O 0.50752 0.83963 0.52269 0.0
O73 O 0.40589 0.70948 0.69356 0.0
O74 O 0.58435 0.59002 0.61323 0.0
O75 O 0.53024 0.48577 0.24891 0.0
O76 O 0.53505 0.63182 0.34668 0.0
O77 O 0.71471 0.57285 0.54614 0.0
O78 O 0.83874 0.49341 0.41911 0.0
C79 C 0.85645 0.55238 0.49454 0.0
O80 O 0.18489 0.55386 0.49012 0.0
O81 O 0.04659 0.70025 0.54616 0.0
C82 C 0.26352 0.36341 0.42761 0.0
C83 C 0.03655 0.60467 0.51611 0.0
loop_
_geom_bond_atom_site_label_1
_geom_bond_atom_site_label_2
_geom_bond_distance
_geom_bond_site_symmetry_2
_ccdc_geom_bond_type
Zn0 O6 1.920 . S
Zn0 O12 1.898 . S
Zn0 O15 1.905 . S
Zn1 O9 1.905 . S
Zn1 O10 1.898 1_565 S
Zn1 O18 1.920 1_565 S
Zn2 O5 2.080 1_454 S
Zn2 O8 2.114 1_554 S
Zn2 O11 2.120 1_554 S
Zn2 O13 2.120 . S
Zn2 O14 2.114 . S
Zn2 O17 2.080 1_455 S
C3 O8 1.166 1_565 S
C3 O9 1.182 1_455 S
C4 O10 1.167 1_455 S
C4 O11 1.299 . S
O5 Zn2 2.080 1_656 S
O5 C19 1.297 1_556 S
O6 Zn0 1.920 . S
O6 C19 1.234 1_455 S
C7 O12 1.167 . S
C7 O13 1.299 . S
O8 Zn2 2.114 1_556 S
O8 C3 1.166 1_545 S
O9 Zn1 1.905 . S
O9 C3 1.182 1_655 S
O10 Zn1 1.898 1_545 S
O10 C4 1.167 1_655 S
O11 Zn2 2.120 1_556 S
O11 C4 1.299 . S
O12 Zn0 1.898 . S
O12 C7 1.167 . S
O13 Zn2 2.120 . S
O13 C7 1.299 . S
O14 Zn2 2.114 . S
O14 C16 1.166 . S
O15 Zn0 1.905 . S
O15 C16 1.182 . S
C16 O14 1.166 . S
C16 O15 1.182 . S
O17 Zn2 2.080 1_655 S
O17 C20 1.305 1_554 S
O18 Zn1 1.920 1_545 S
O18 C20 1.234 . S
C19 O5 1.297 1_554 S
C19 O6 1.234 1_655 S
C20 O17 1.305 1_556 S
C20 O18 1.234 . S
Zn21 O27 1.920 . S
Zn21 O33 1.898 1_565 S
Zn21 O36 1.905 . S
Zn22 O30 1.905 . S
Zn22 O31 1.898 . S
Zn22 O39 1.920 . S
Zn23 O26 2.080 1_445 S
Zn23 O29 2.114 . S
Zn23 O32 2.120 . S
Zn23 O34 2.120 . S
Zn23 O35 2.114 . S
Zn23 O38 2.080 1_455 S
C24 O29 1.166 . S
C24 O30 1.182 1_455 S
C25 O31 1.167 1_455 S
C25 O32 1.299 . S
O26 Zn23 2.080 1_665 S
O26 C40 1.305 . S
O27 Zn21 1.920 . S
O27 C40 1.234 1_455 S
C28 O33 1.167 . S
C28 O34 1.299 . S
O29 Zn23 2.114 . S
O29 C24 1.166 . S
O30 Zn22 1.905 . S
O30 C24 1.182 1_655 S
O31 Zn22 1.898 . S
O31 C25 1.167 1_655 S
O32 Zn23 2.120 . S
O32 C25 1.299 . S
O33 Zn21 1.898 1_545 S
O33 C28 1.167 . S
O34 Zn23 2.120 . S
O34 C28 1.299 . S
O35 Zn23 2.114 . S
O35 C37 1.166 1_545 S
O36 Zn21 1.905 . S
O36 C37 1.182 . S
C37 O35 1.166 1_565 S
C37 O36 1.182 . S
O38 Zn23 2.080 1_655 S
O38 C41 1.305 . S
O39 Zn22 1.920 . S
O39 C41 1.234 . S
C40 O26 1.305 . S
C40 O27 1.234 1_655 S
C41 O38 1.305 . S
C41 O39 1.234 . S
Zn42 O48 1.920 . S
Zn42 O54 1.898 . S
Zn42 O57 1.909 . S
Zn43 O51 1.905 . S
Zn43 O52 1.898 . S
Zn43 O60 1.920 . S
Zn44 O47 2.080 1_554 S
Zn44 O50 2.114 1_554 S
Zn44 O53 2.120 1_554 S
Zn44 O55 2.120 . S
Zn44 O56 2.114 . S
Zn44 O59 2.080 . S
C45 O50 1.166 . S
C45 O51 1.182 . S
C46 O52 1.167 . S
C46 O53 1.299 . S
O47 Zn44 2.080 1_556 S
O47 C61 1.305 1_556 S
O48 Zn42 1.920 . S
O48 C61 1.234 . S
C49 O54 1.167 . S
C49 O55 1.299 . S
O50 Zn44 2.114 1_556 S
O50 C45 1.166 . S
O51 Zn43 1.905 . S
O51 C45 1.182 . S
O52 Zn43 1.898 . S
O52 C46 1.167 . S
O53 Zn44 2.120 1_556 S
O53 C46 1.299 . S
O54 Zn42 1.898 . S
O54 C49 1.167 . S
O55 Zn44 2.120 . S
O55 C49 1.299 . S
O56 Zn44 2.114 . S
O56 C58 1.166 . S
O57 Zn42 1.909 . S
O57 C58 1.183 . S
C58 O56 1.166 . S
C58 O57 1.183 . S
O59 Zn44 2.080 . S
O59 C62 1.305 1_554 S
O60 Zn43 1.920 . S
O60 C62 1.234 . S
C61 O47 1.305 1_554 S
C61 O48 1.234 . S
C62 O59 1.305 1_556 S
C62 O60 1.234 . S
Zn63 O69 1.920 . S
Zn63 O75 1.898 . S
Zn63 O78 1.909 . S
Zn64 O72 1.905 . S
Zn64 O73 1.898 . S
Zn64 O81 1.920 . S
Zn65 O68 2.080 . S
Zn65 O71 2.114 . S
Zn65 O74 2.120 . S
Zn65 O76 2.120 . S
Zn65 O77 2.114 . S
Zn65 O80 2.080 . S
C66 O71 1.166 . S
C66 O72 1.182 . S
C67 O73 1.167 . S
C67 O74 1.299 . S
O68 Zn65 2.080 . S
O68 C82 1.305 . S
O69 Zn63 1.920 . S
O69 C82 1.234 . S
C70 O75 1.167 . S
C70 O76 1.299 . S
O71 Zn65 2.114 . S
O71 C66 1.166 . S
O72 Zn64 1.905 . S
O72 C66 1.182 . S
O73 Zn64 1.898 . S
O73 C67 1.167 . S
O74 Zn65 2.120 . S
O74 C67 1.299 . S
O75 Zn63 1.898 . S
O75 C70 1.167 . S
O76 Zn65 2.120 . S
O76 C70 1.299 . S
O77 Zn65 2.114 . S
O77 C79 1.166 . S
O78 Zn63 1.909 . S
O78 C79 1.183 . S
C79 O77 1.166 . S
C79 O78 1.183 . S
O80 Zn65 2.080 . S
O80 C83 1.305 . S
O81 Zn64 1.920 . S
O81 C83 1.234 . S
C82 O68 1.305 . S
C82 O69 1.234 . S
C83 O80 1.305 . S
C83 O81 1.234 . S
C61 C3 2.575 1_554 S
C45 C19 2.575 1_556 S
C24 C82 2.575 . S
C40 C66 2.575 . S
C16 C20 2.092 1_554 S
C37 C41 2.092 1_565 S
C58 C62 2.092 1_654 S
C83 C79 2.092 1_455 S
C28 C7 1.813 . S
C4 C25 0.967 . S
C70 C49 1.813 . S
C67 C46 0.967 . S
