# Generated by pormake.
# Topology bnn, (5)-cn, num edge types: 1
# Building blocks:
#     Node 0, Type 0, BuildingBlock: XOMCOT_clean_sbu_1, # of connection points: 5
#     Node 1, Type 0, BuildingBlock: XOMCOT_clean_sbu_1, # of connection points: 5
#     Edge 2, Type (0, 0), BuildingBlock: UVAHIK_clean_linker_0, # of connection points: 2
#     Edge 3, Type (0, 0), BuildingBlock: UVAHIK_clean_linker_0, # of connection points: 2
#     Edge 4, Type (0, 0), BuildingBlock: UVAHIK_clean_linker_0, # of connection points: 2
#     Edge 5, Type (0, 0), BuildingBlock: UVAHIK_clean_linker_0, # of connection points: 2
#     Edge 6, Type (0, 0), BuildingBlock: UVAHIK_clean_linker_0, # of connection points: 2
# Relax obj value: 0.038
# Max RMSD: 0.098
# Mean RMSD: 0.098
data_MOF--net-bnn--node1-XOMCOT_clean_sbu_1--edge1-UVAHIK_clean_linker_0
_symmetry_space_group_name_H-M    P1
_symmetry_Int_Tables_number       1
_symmetry_cell_setting            triclinic
loop_
_symmetry_equiv_pos_as_xyz
'x, y, z'
_cell_length_a     37.818113
_cell_length_b     34.872245
_cell_length_c     22.022997
_cell_angle_alpha  97.443112
_cell_angle_beta   90.054346
_cell_angle_gamma 122.89014
loop_
_atom_site_label
_atom_site_type_symbol
_atom_site_fract_x
_atom_site_fract_y
_atom_site_fract_z
_atom_type_partial_charge
C0 C 0.3036 0.62262 1.00089 0.0
C1 C 0.30126 0.61546 0.93769 0.0
N2 N 0.31612 0.65625 0.91806 0.0
N3 N 0.31988 0.66769 0.02107 0.0
C4 C 0.32703 0.68729 0.96962 0.0
H5 H 0.29444 0.59675 0.03043 0.0
Co6 Co 0.32954 0.69396 0.10328 0.0
C7 C 0.40075 0.79055 0.10607 0.0
O8 O 0.41955 0.78454 0.15066 0.0
N9 N 0.338 0.72062 0.18729 0.0
C10 C 0.33739 0.76574 0.26837 0.0
C11 C 0.33508 0.7573 0.20543 0.0
C12 C 0.34134 0.70697 0.24079 0.0
N13 N 0.34116 0.7339 0.29067 0.0
O14 O 0.27875 0.69327 0.09538 0.0
H15 H 0.33007 0.77598 0.17459 0.0
H16 H 0.34144 0.67649 0.24396 0.0
O17 O 0.36441 0.75695 0.08138 0.0
C18 C 0.25062 0.6547 0.11119 0.0
O19 O 0.26315 0.62978 0.13158 0.0
N20 N 0.37535 0.68711 0.1098 0.0
C21 C 0.42039 0.64439 0.095 0.0
C22 C 0.43127 0.68236 0.06537 0.0
C23 C 0.40802 0.70295 0.07281 0.0
C24 C 0.36471 0.65046 0.13869 0.0
C25 C 0.38768 0.62997 0.13409 0.0
H26 H 0.41379 0.72843 0.04429 0.0
H27 H 0.33544 0.63355 0.16016 0.0
H28 H 0.33963 0.72354 0.96981 0.0
H29 H 0.29025 0.58289 0.90859 0.0
H30 H 0.33553 0.7927 0.29545 0.0
H31 H 0.4553 0.69387 0.03308 0.0
H32 H 0.37781 0.6009 0.15801 0.0
C33 C 0.7043 0.42459 0.07206 0.0
C34 C 0.70913 0.43182 0.13528 0.0
N35 N 0.68314 0.39106 0.15497 0.0
N36 N 0.67543 0.37951 0.05193 0.0
C37 C 0.66295 0.35998 0.10343 0.0
H38 H 0.72106 0.45041 0.04249 0.0
Co39 Co 0.65875 0.35305 0.96973 0.0
C40 C 0.63273 0.25626 0.96809 0.0
O41 O 0.65734 0.26153 0.92349 0.0
N42 N 0.64049 0.32619 0.88575 0.0
C43 C 0.59477 0.28099 0.80455 0.0
C44 C 0.6009 0.28939 0.86751 0.0
C45 C 0.65747 0.33996 0.8323 0.0
N46 N 0.63037 0.31298 0.78235 0.0
O47 O 0.6087 0.35382 0.9773 0.0
H48 H 0.5772 0.27063 0.89827 0.0
H49 H 0.688 0.37059 0.82923 0.0
O50 O 0.63043 0.29026 0.99208 0.0
C51 C 0.61913 0.39233 0.96132 0.0
O52 O 0.65658 0.41724 0.9409 0.0
N53 N 0.71134 0.35972 0.96348 0.0
C54 C 0.79917 0.4024 0.9785 0.0
C55 C 0.772 0.36441 1.00808 0.0
C56 C 0.72812 0.34384 1.00052 0.0
C57 C 0.73744 0.39636 0.9346 0.0
C58 C 0.78092 0.41683 0.93931 0.0
H59 H 0.70834 0.31836 0.02901 0.0
H60 H 0.72513 0.4133 0.91308 0.0
H61 H 0.63924 0.32374 0.1033 0.0
H62 H 0.73074 0.46441 0.16435 0.0
H63 H 0.56594 0.25397 0.77739 0.0
H64 H 0.78449 0.3529 0.04042 0.0
H65 H 0.80017 0.44589 0.91542 0.0
C66 C 0.48189 0.63745 0.06759 0.0
C67 C 0.43935 0.61657 0.08046 0.0
C68 C 0.49878 0.61059 0.05265 0.0
C69 C 0.48599 0.50125 0.0717 0.0
H70 H 0.54559 0.51555 0.92479 0.0
C71 C 0.55313 0.38866 0.99314 0.0
C72 C 0.59299 0.41212 0.9699 0.0
C73 C 0.53073 0.41014 1.00363 0.0
C74 C 0.52952 0.51142 0.96645 0.0
H75 H 0.38105 0.5503 0.0852 0.0
H76 H 0.41114 0.50439 0.06206 0.0
H77 H 0.51645 0.5623 0.95194 0.0
H78 H 0.64039 0.47648 0.93937 0.0
H79 H 0.60264 0.51369 0.95919 0.0
H80 H 0.50032 0.45162 0.08767 0.0
C81 C 0.43136 0.54153 0.06403 0.0
C82 C 0.51279 0.53823 0.98182 0.0
C83 C 0.41429 0.56813 0.07783 0.0
C84 C 0.60965 0.45703 0.9569 0.0
C85 C 0.58768 0.47845 0.96781 0.0
C86 C 0.50339 0.47491 0.05691 0.0
C87 C 0.47367 0.56241 0.05107 0.0
C88 C 0.49119 0.5337 0.03482 0.0
C89 C 0.54793 0.4555 0.99131 0.0
C90 C 0.52587 0.48008 1.00445 0.0
H91 H 0.50226 0.67455 0.0695 0.0
H92 H 0.53164 0.62753 0.04305 0.0
H93 H 0.46942 0.49713 0.1129 0.0
H94 H 0.53949 0.35405 1.00367 0.0
H95 H 0.5 0.39123 0.0213 0.0
C96 C 0.86942 0.47868 0.99584 0.0
C97 C 0.84599 0.43023 0.99315 0.0
C98 C 0.91314 0.50529 1.00958 0.0
C99 C 0.99816 0.5086 0.09132 0.0
H100 H 0.07203 0.59538 0.98544 0.0
C101 C 0.17637 0.58987 0.11538 0.0
C102 C 0.20464 0.63485 0.10258 0.0
C103 C 0.13294 0.56843 0.10459 0.0
C104 C 0.05189 0.57204 0.0162 0.0
H105 H 0.85088 0.37228 1.00404 0.0
H106 H 0.9274 0.41932 0.03036 0.0
H107 H 0.99549 0.54983 0.96052 0.0
H108 H 0.20916 0.693 0.06923 0.0
H109 H 0.13238 0.65577 0.05178 0.0
H110 H 0.05385 0.53125 0.14804 0.0
C111 C 0.91147 0.43625 0.02084 0.0
C112 C 0.00808 0.54568 1.00159 0.0
C113 C 0.86765 0.40937 1.00597 0.0
C114 C 0.18819 0.65834 0.0796 0.0
C115 C 0.14425 0.63683 0.06923 0.0
C116 C 0.04178 0.53543 0.10651 0.0
C117 C 0.9346 0.48443 0.02242 0.0
C118 C 0.98091 0.51316 0.03848 0.0
C119 C 0.11609 0.59142 0.08141 0.0
C120 C 0.06937 0.56683 0.06849 0.0
H121 H 0.854 0.4965 0.98852 0.0
H122 H 0.9301 0.54244 1.01156 0.0
H123 H 0.97783 0.48448 0.12121 0.0
H124 H 0.1877 0.57038 0.13269 0.0
H125 H 0.11265 0.53315 0.11308 0.0
C126 C 0.4661 0.86559 0.09295 0.0
C127 C 0.42182 0.8368 0.08686 0.0
C128 C 0.48677 0.91085 0.08039 0.0
C129 C 0.47044 0.9933 1.01013 0.0
H130 H 0.57772 0.08332 0.10386 0.0
C131 C 0.5673 0.19419 1.00967 0.0
C132 C 0.60752 0.21055 0.98878 0.0
C133 C 0.54242 0.14914 0.0239 0.0
C134 C 0.54772 0.05855 0.07753 0.0
H135 H 0.36432 0.83261 0.062 0.0
H136 H 0.40019 0.91248 0.04253 0.0
H137 H 0.53802 1.00385 0.12363 0.0
H138 H 0.65374 0.19326 0.96836 0.0
H139 H 0.61115 0.11563 0.99576 0.0
H140 H 0.48022 0.04937 0.9657 0.0
C141 C 0.41926 0.89984 0.05536 0.0
C142 C 0.52504 1.01269 0.0882 0.0
C143 C 0.39854 0.85398 0.06664 0.0
C144 C 0.62285 0.18159 0.98422 0.0
C145 C 0.59854 0.13721 0.99994 0.0
C146 C 0.49281 0.03957 1.00046 0.0
C147 C 0.46378 0.92926 0.06293 0.0
C148 C 0.48645 0.97897 0.05374 0.0
C149 C 0.5579 0.12029 0.01912 0.0
C150 C 0.53201 0.0724 0.03334 0.0
H151 H 0.48493 0.85313 0.1077 0.0
H152 H 0.52097 0.93138 0.08469 0.0
H153 H 0.44122 0.96865 0.9821 0.0
H154 H 0.5546 0.21567 1.01317 0.0
H155 H 0.5112 0.13686 0.0388 0.0
C156 C 0.35111 0.70863 0.84118 0.0
C157 C 0.32016 0.6649 0.85529 0.0
C158 C 0.35526 0.71681 0.78027 0.0
C159 C 0.32797 0.65652 0.61926 0.0
H160 H 0.34961 0.77269 0.58181 0.0
C161 C 0.36016 0.70581 0.37481 0.0
C162 C 0.34107 0.72743 0.35412 0.0
C163 C 0.35949 0.69906 0.43619 0.0
C164 C 0.34332 0.73994 0.59139 0.0
H165 H 0.26886 0.59571 0.81625 0.0
H166 H 0.27584 0.60999 0.71022 0.0
H167 H 0.34383 0.75871 0.68796 0.0
H168 H 0.30565 0.75816 0.38186 0.0
H169 H 0.30434 0.7463 0.48835 0.0
H170 H 0.32627 0.63725 0.52245 0.0
C171 C 0.29749 0.63777 0.74612 0.0
C172 C 0.34051 0.73214 0.65241 0.0
C173 C 0.29343 0.62958 0.80699 0.0
C174 C 0.32136 0.74218 0.39633 0.0
C175 C 0.32061 0.73537 0.45755 0.0
C176 C 0.33076 0.66431 0.55821 0.0
C177 C 0.32849 0.68148 0.73195 0.0
C178 C 0.33255 0.69022 0.6671 0.0
C179 C 0.33964 0.71371 0.47831 0.0
C180 C 0.3382 0.70601 0.54346 0.0
H181 H 0.37268 0.73639 0.87709 0.0
H182 H 0.37989 0.75068 0.77098 0.0
H183 H 0.32235 0.62407 0.62896 0.0
H184 H 0.37607 0.69458 0.34373 0.0
H185 H 0.37495 0.68282 0.45081 0.0
C186 C 0.66563 0.33873 0.23196 0.0
C187 C 0.67852 0.38246 0.21777 0.0
C188 C 0.66155 0.33057 0.29289 0.0
C189 C 0.69453 0.39089 0.45395 0.0
H190 H 0.59992 0.27458 0.49115 0.0
C191 C 0.67748 0.34143 0.69835 0.0
C192 C 0.63672 0.31957 0.71893 0.0
C193 C 0.68354 0.34829 0.637 0.0
C194 C 0.6264 0.30737 0.48165 0.0
H195 H 0.69653 0.45166 0.25669 0.0
H196 H 0.68914 0.43741 0.36274 0.0
H197 H 0.60816 0.28863 0.38504 0.0
H198 H 0.57047 0.28855 0.69102 0.0
H199 H 0.58099 0.30061 0.58459 0.0
H200 H 0.71208 0.41014 0.55081 0.0
C201 C 0.68298 0.40962 0.3269 0.0
C202 C 0.63141 0.31521 0.42065 0.0
C203 C 0.68716 0.41779 0.26601 0.0
C204 C 0.6022 0.30471 0.67664 0.0
C205 C 0.60825 0.31164 0.61546 0.0
C206 C 0.6895 0.38306 0.51499 0.0
C207 C 0.67015 0.36591 0.34116 0.0
C208 C 0.66541 0.35717 0.40602 0.0
C209 C 0.64898 0.33352 0.5948 0.0
C210 C 0.65522 0.34131 0.52966 0.0
H211 H 0.6594 0.31095 0.19611 0.0
H212 H 0.65224 0.2967 0.30223 0.0
H213 H 0.72138 0.42338 0.44432 0.0
H214 H 0.70467 0.35276 0.72949 0.0
H215 H 0.71528 0.3647 0.62249 0.0
loop_
_geom_bond_atom_site_label_1
_geom_bond_atom_site_label_2
_geom_bond_distance
_geom_bond_site_symmetry_2
_ccdc_geom_bond_type
C0 C1 1.351 . S
C0 N3 1.368 . S
C0 H5 0.931 . S
C1 C0 1.351 . S
C1 N2 1.373 . S
C1 H29 0.930 . S
N2 C1 1.373 . S
N2 C4 1.340 . S
N3 C0 1.368 . S
N3 C4 1.321 . S
N3 Co6 2.135 1_556 S
C4 N2 1.340 . S
C4 N3 1.321 . S
C4 H28 0.930 . S
H5 C0 0.931 . S
Co6 N3 2.135 1_554 S
Co6 N9 2.121 . S
Co6 O14 2.055 . S
Co6 O17 2.039 . S
Co6 N20 2.140 . S
C7 O8 1.227 . S
C7 O17 1.265 . S
O8 C7 1.227 . S
N9 Co6 2.121 . S
N9 C11 1.375 . S
N9 C12 1.313 . S
C10 C11 1.338 . S
C10 N13 1.377 . S
C10 H30 0.930 . S
C11 N9 1.375 . S
C11 C10 1.338 . S
C11 H15 0.931 . S
C12 N9 1.313 . S
C12 N13 1.344 . S
C12 H16 0.930 . S
N13 C10 1.377 . S
N13 C12 1.344 . S
O14 Co6 2.055 . S
O14 C18 1.253 . S
H15 C11 0.931 . S
H16 C12 0.930 . S
O17 Co6 2.039 . S
O17 C7 1.265 . S
C18 O14 1.253 . S
C18 O19 1.227 . S
O19 C18 1.227 . S
N20 Co6 2.140 . S
N20 C23 1.346 1_554 S
N20 C24 1.345 . S
C21 C22 1.387 1_554 S
C21 C25 1.391 . S
C22 C21 1.387 1_556 S
C22 C23 1.369 . S
C22 H31 0.929 . S
C23 N20 1.346 1_556 S
C23 C22 1.369 . S
C23 H26 0.928 . S
C24 N20 1.345 . S
C24 C25 1.371 . S
C24 H27 0.931 . S
C25 C21 1.391 . S
C25 C24 1.371 . S
C25 H32 0.930 . S
H26 C23 0.928 . S
H27 C24 0.931 . S
H28 C4 0.930 . S
H29 C1 0.930 . S
H30 C10 0.930 . S
H31 C22 0.929 . S
H32 C25 0.930 . S
C33 C34 1.351 . S
C33 N36 1.368 . S
C33 H38 0.931 . S
C34 C33 1.351 . S
C34 N35 1.373 . S
C34 H62 0.930 . S
N35 C34 1.373 . S
N35 C37 1.340 . S
N36 C33 1.368 . S
N36 C37 1.321 . S
N36 Co39 2.135 . S
C37 N35 1.340 . S
C37 N36 1.321 . S
C37 H61 0.930 . S
H38 C33 0.931 . S
Co39 N36 2.135 . S
Co39 N42 2.121 1_554 S
Co39 O47 2.055 . S
Co39 O50 2.039 . S
Co39 N53 2.140 . S
C40 O41 1.227 . S
C40 O50 1.265 . S
O41 C40 1.227 . S
N42 Co39 2.121 1_556 S
N42 C44 1.375 . S
N42 C45 1.313 . S
C43 C44 1.338 . S
C43 N46 1.377 . S
C43 H63 0.930 . S
C44 N42 1.375 . S
C44 C43 1.338 . S
C44 H48 0.931 . S
C45 N42 1.313 . S
C45 N46 1.344 . S
C45 H49 0.930 . S
N46 C43 1.377 . S
N46 C45 1.344 . S
O47 Co39 2.055 . S
O47 C51 1.253 . S
H48 C44 0.931 . S
H49 C45 0.930 . S
O50 Co39 2.039 . S
O50 C40 1.265 . S
C51 O47 1.253 . S
C51 O52 1.227 . S
O52 C51 1.227 . S
N53 Co39 2.140 . S
N53 C56 1.346 . S
N53 C57 1.345 1_554 S
C54 C55 1.387 . S
C54 C58 1.391 1_554 S
C55 C54 1.387 . S
C55 C56 1.369 . S
C55 H64 0.929 . S
C56 N53 1.346 . S
C56 C55 1.369 . S
C56 H59 0.928 . S
C57 N53 1.345 1_556 S
C57 C58 1.371 . S
C57 H60 0.931 . S
C58 C54 1.391 1_556 S
C58 C57 1.371 . S
C58 H65 0.930 . S
H59 C56 0.928 . S
H60 C57 0.931 . S
H61 C37 0.930 . S
H62 C34 0.930 . S
H63 C43 0.930 . S
H64 C55 0.929 . S
H65 C58 0.930 . S
C66 C67 1.349 1_556 S
C66 C68 1.327 . S
C66 H91 0.950 . S
C67 C66 1.349 1_554 S
C67 C83 1.349 . S
C68 C66 1.327 . S
C68 C87 1.429 1_556 S
C68 H92 0.950 . S
C69 C86 1.574 . S
C69 C88 1.368 . S
C69 H93 0.949 . S
H70 C74 0.949 . S
C71 C72 1.349 . S
C71 C73 1.327 . S
C71 H94 0.950 . S
C72 C71 1.349 . S
C72 C84 1.349 1_554 S
C73 C71 1.327 . S
C73 C89 1.429 . S
C73 H95 0.950 . S
C74 H70 0.949 . S
C74 C82 1.574 . S
C74 C90 1.368 1_556 S
H75 C83 0.950 . S
H76 C81 0.950 . S
H77 C82 0.949 . S
H78 C84 0.950 . S
H79 C85 0.950 . S
H80 C86 0.949 . S
C81 H76 0.950 . S
C81 C83 1.327 . S
C81 C87 1.429 . S
C82 C74 1.574 . S
C82 H77 0.949 . S
C82 C88 1.368 1_556 S
C83 C67 1.349 . S
C83 H75 0.950 . S
C83 C81 1.327 . S
C84 C72 1.349 1_556 S
C84 H78 0.950 . S
C84 C85 1.327 . S
C85 H79 0.950 . S
C85 C84 1.327 . S
C85 C89 1.429 1_556 S
C86 C69 1.574 . S
C86 H80 0.949 . S
C86 C90 1.368 . S
C87 C68 1.429 1_554 S
C87 C81 1.429 . S
C87 C88 1.523 . S
C88 C69 1.368 . S
C88 C82 1.368 1_554 S
C88 C87 1.523 . S
C89 C73 1.429 . S
C89 C85 1.429 1_554 S
C89 C90 1.523 . S
C90 C74 1.368 1_554 S
C90 C86 1.368 . S
C90 C89 1.523 . S
H91 C66 0.950 . S
H92 C68 0.950 . S
H93 C69 0.949 . S
H94 C71 0.950 . S
H95 C73 0.950 . S
C96 C97 1.349 1_556 S
C96 C98 1.327 . S
C96 H121 0.950 . S
C97 C96 1.349 1_554 S
C97 C113 1.349 . S
C98 C96 1.327 . S
C98 C117 1.429 1_556 S
C98 H122 0.950 . S
C99 C116 1.574 1_655 S
C99 C118 1.368 . S
C99 H123 0.949 . S
H100 C104 0.949 . S
C101 C102 1.349 . S
C101 C103 1.327 . S
C101 H124 0.950 . S
C102 C101 1.349 . S
C102 C114 1.349 1_554 S
C103 C101 1.327 . S
C103 C119 1.429 . S
C103 H125 0.950 . S
C104 H100 0.949 . S
C104 C112 1.574 1_455 S
C104 C120 1.368 1_556 S
H105 C113 0.950 . S
H106 C111 0.950 . S
H107 C112 0.949 . S
H108 C114 0.950 . S
H109 C115 0.950 . S
H110 C116 0.949 . S
C111 H106 0.950 . S
C111 C113 1.327 . S
C111 C117 1.429 . S
C112 C104 1.574 1_655 S
C112 H107 0.949 . S
C112 C118 1.368 1_556 S
C113 C97 1.349 . S
C113 H105 0.950 . S
C113 C111 1.327 . S
C114 C102 1.349 1_556 S
C114 H108 0.950 . S
C114 C115 1.327 . S
C115 H109 0.950 . S
C115 C114 1.327 . S
C115 C119 1.429 1_556 S
C116 C99 1.574 1_455 S
C116 H110 0.949 . S
C116 C120 1.368 . S
C117 C98 1.429 1_554 S
C117 C111 1.429 . S
C117 C118 1.523 . S
C118 C99 1.368 . S
C118 C112 1.368 1_554 S
C118 C117 1.523 . S
C119 C103 1.429 . S
C119 C115 1.429 1_554 S
C119 C120 1.523 . S
C120 C104 1.368 1_554 S
C120 C116 1.368 . S
C120 C119 1.523 . S
H121 C96 0.950 . S
H122 C98 0.950 . S
H123 C99 0.949 . S
H124 C101 0.950 . S
H125 C103 0.950 . S
C126 C127 1.349 . S
C126 C128 1.327 . S
C126 H151 0.950 . S
C127 C126 1.349 . S
C127 C143 1.349 1_554 S
C128 C126 1.327 . S
C128 C147 1.429 . S
C128 H152 0.950 . S
C129 C146 1.574 1_565 S
C129 C148 1.368 1_556 S
C129 H153 0.949 . S
H130 C134 0.949 . S
C131 C132 1.349 1_556 S
C131 C133 1.327 . S
C131 H154 0.950 . S
C132 C131 1.349 1_554 S
C132 C144 1.349 . S
C133 C131 1.327 . S
C133 C149 1.429 1_556 S
C133 H155 0.950 . S
C134 H130 0.949 . S
C134 C142 1.574 1_545 S
C134 C150 1.368 . S
H135 C143 0.950 . S
H136 C141 0.950 . S
H137 C142 0.949 . S
H138 C144 0.950 . S
H139 C145 0.950 . S
H140 C146 0.949 . S
C141 H136 0.950 . S
C141 C143 1.327 . S
C141 C147 1.429 1_556 S
C142 C134 1.574 1_565 S
C142 H137 0.949 . S
C142 C148 1.368 . S
C143 C127 1.349 1_556 S
C143 H135 0.950 . S
C143 C141 1.327 . S
C144 C132 1.349 . S
C144 H138 0.950 . S
C144 C145 1.327 . S
C145 H139 0.950 . S
C145 C144 1.327 . S
C145 C149 1.429 . S
C146 C129 1.574 1_545 S
C146 H140 0.949 . S
C146 C150 1.368 1_556 S
C147 C128 1.429 . S
C147 C141 1.429 1_554 S
C147 C148 1.523 . S
C148 C129 1.368 1_554 S
C148 C142 1.368 . S
C148 C147 1.523 . S
C149 C133 1.429 1_554 S
C149 C145 1.429 . S
C149 C150 1.523 . S
C150 C134 1.368 . S
C150 C146 1.368 1_554 S
C150 C149 1.523 . S
H151 C126 0.950 . S
H152 C128 0.950 . S
H153 C129 0.949 . S
H154 C131 0.950 . S
H155 C133 0.950 . S
C156 C157 1.349 . S
C156 C158 1.327 . S
C156 H181 0.950 . S
C157 C156 1.349 . S
C157 C173 1.349 . S
C158 C156 1.327 . S
C158 C177 1.429 . S
C158 H182 0.950 . S
C159 C176 1.574 . S
C159 C178 1.368 . S
C159 H183 0.949 . S
H160 C164 0.949 . S
C161 C162 1.349 . S
C161 C163 1.327 . S
C161 H184 0.950 . S
C162 C161 1.349 . S
C162 C174 1.349 . S
C163 C161 1.327 . S
C163 C179 1.429 . S
C163 H185 0.950 . S
C164 H160 0.949 . S
C164 C172 1.574 . S
C164 C180 1.368 . S
H165 C173 0.950 . S
H166 C171 0.950 . S
H167 C172 0.949 . S
H168 C174 0.950 . S
H169 C175 0.950 . S
H170 C176 0.949 . S
C171 H166 0.950 . S
C171 C173 1.327 . S
C171 C177 1.429 . S
C172 C164 1.574 . S
C172 H167 0.949 . S
C172 C178 1.368 . S
C173 C157 1.349 . S
C173 H165 0.950 . S
C173 C171 1.327 . S
C174 C162 1.349 . S
C174 H168 0.950 . S
C174 C175 1.327 . S
C175 H169 0.950 . S
C175 C174 1.327 . S
C175 C179 1.429 . S
C176 C159 1.574 . S
C176 H170 0.949 . S
C176 C180 1.368 . S
C177 C158 1.429 . S
C177 C171 1.429 . S
C177 C178 1.523 . S
C178 C159 1.368 . S
C178 C172 1.368 . S
C178 C177 1.523 . S
C179 C163 1.429 . S
C179 C175 1.429 . S
C179 C180 1.523 . S
C180 C164 1.368 . S
C180 C176 1.368 . S
C180 C179 1.523 . S
H181 C156 0.950 . S
H182 C158 0.950 . S
H183 C159 0.949 . S
H184 C161 0.950 . S
H185 C163 0.950 . S
C186 C187 1.349 . S
C186 C188 1.327 . S
C186 H211 0.950 . S
C187 C186 1.349 . S
C187 C203 1.349 . S
C188 C186 1.327 . S
C188 C207 1.429 . S
C188 H212 0.950 . S
C189 C206 1.574 . S
C189 C208 1.368 . S
C189 H213 0.949 . S
H190 C194 0.949 . S
C191 C192 1.349 . S
C191 C193 1.327 . S
C191 H214 0.950 . S
C192 C191 1.349 . S
C192 C204 1.349 . S
C193 C191 1.327 . S
C193 C209 1.429 . S
C193 H215 0.950 . S
C194 H190 0.949 . S
C194 C202 1.574 . S
C194 C210 1.368 . S
H195 C203 0.950 . S
H196 C201 0.950 . S
H197 C202 0.949 . S
H198 C204 0.950 . S
H199 C205 0.950 . S
H200 C206 0.949 . S
C201 H196 0.950 . S
C201 C203 1.327 . S
C201 C207 1.429 . S
C202 C194 1.574 . S
C202 H197 0.949 . S
C202 C208 1.368 . S
C203 C187 1.349 . S
C203 H195 0.950 . S
C203 C201 1.327 . S
C204 C192 1.349 . S
C204 H198 0.950 . S
C204 C205 1.327 . S
C205 H199 0.950 . S
C205 C204 1.327 . S
C205 C209 1.429 . S
C206 C189 1.574 . S
C206 H200 0.949 . S
C206 C210 1.368 . S
C207 C188 1.429 . S
C207 C201 1.429 . S
C207 C208 1.523 . S
C208 C189 1.368 . S
C208 C202 1.368 . S
C208 C207 1.523 . S
C209 C193 1.429 . S
C209 C205 1.429 . S
C209 C210 1.523 . S
C210 C194 1.368 . S
C210 C206 1.368 . S
C210 C209 1.523 . S
H211 C186 0.950 . S
H212 C188 0.950 . S
H213 C189 0.949 . S
H214 C191 0.950 . S
H215 C193 0.950 . S
C67 C21 1.507 . S
C72 C51 1.507 . S
C97 C54 1.506 . S
C102 C18 1.507 . S
C127 C7 1.496 . S
C132 C40 1.496 . S
C157 N2 1.443 . S
C162 N13 1.446 . S
C187 N35 1.443 . S
C192 N46 1.446 . S
