# Generated by pormake.
# Topology sml, (6)-cn, num edge types: 1
# Building blocks:
#     Node 0, Type 0, BuildingBlock: JUFBIX_clean_sbu_0, # of connection points: 6
#     Node 1, Type 0, BuildingBlock: JUFBIX_clean_sbu_0, # of connection points: 6
#     Node 2, Type 0, BuildingBlock: JUFBIX_clean_sbu_0, # of connection points: 6
#     Node 3, Type 0, BuildingBlock: JUFBIX_clean_sbu_0, # of connection points: 6
#     Node 4, Type 0, BuildingBlock: JUFBIX_clean_sbu_0, # of connection points: 6
#     Node 5, Type 0, BuildingBlock: JUFBIX_clean_sbu_0, # of connection points: 6
#     Edge 6, Type (0, 0), None
#     Edge 7, Type (0, 0), None
#     Edge 8, Type (0, 0), None
#     Edge 9, Type (0, 0), None
#     Edge 10, Type (0, 0), None
#     Edge 11, Type (0, 0), None
#     Edge 12, Type (0, 0), None
#     Edge 13, Type (0, 0), None
#     Edge 14, Type (0, 0), None
#     Edge 15, Type (0, 0), None
#     Edge 16, Type (0, 0), None
#     Edge 17, Type (0, 0), None
#     Edge 18, Type (0, 0), None
#     Edge 19, Type (0, 0), None
#     Edge 20, Type (0, 0), None
#     Edge 21, Type (0, 0), None
#     Edge 22, Type (0, 0), None
#     Edge 23, Type (0, 0), None
# Relax obj value: 0.387
# Max RMSD: 0.219
# Mean RMSD: 0.219
data_MOF--net-sml--node1-JUFBIX_clean_sbu_0--edge1-none
_symmetry_space_group_name_H-M    P1
_symmetry_Int_Tables_number       1
_symmetry_cell_setting            triclinic
loop_
_symmetry_equiv_pos_as_xyz
'x, y, z'
_cell_length_a     22.655512
_cell_length_b     22.655692
_cell_length_c     6.4535948
_cell_angle_alpha  89.976251
_cell_angle_beta   90.02515
_cell_angle_gamma 120.00267
loop_
_atom_site_label
_atom_site_type_symbol
_atom_site_fract_x
_atom_site_fract_y
_atom_site_fract_z
_atom_type_partial_charge
Co0 Co 0.36991 0.50716 0.05089 0.0
C1 C 0.26308 0.52964 0.11176 0.0
Co2 Co 0.27025 0.41008 0.05352 0.0
C3 C 0.47001 0.64177 0.91342 0.0
C4 C 0.51677 0.59054 0.05926 0.0
N5 N 0.45559 0.58563 0.02632 0.0
N6 N 0.53724 0.68028 0.87066 0.0
C7 C 0.56681 0.6482 0.96278 0.0
H8 H 0.43149 0.65234 0.8543 0.0
H9 H 0.52441 0.55284 0.1387 0.0
C10 C 0.37787 0.38762 0.00742 0.0
N11 N 0.18462 0.33123 0.07622 0.0
C12 C 0.13618 0.32359 0.21419 0.0
C13 C 0.16509 0.2671 0.01311 0.0
N14 N 0.0889 0.25776 0.24255 0.0
C15 C 0.1064 0.22156 0.11751 0.0
C16 C 0.31715 0.45928 0.66375 0.0
O17 O 0.4113 0.45207 0.02478 0.0
O18 O 0.31339 0.35639 0.02447 0.0
O19 O 0.26579 0.4121 0.7587 0.0
O20 O 0.36481 0.50745 0.76303 0.0
O21 O 0.22883 0.46524 0.08704 0.0
H22 H 0.19441 0.25372 0.9109 0.0
H23 H 0.1391 0.36463 0.30757 0.0
O24 O 0.32708 0.5608 0.07958 0.0
O25 O 0.37395 0.50584 0.34585 0.0
O26 O 0.27619 0.40903 0.34165 0.0
C27 C 0.32321 0.45789 0.44088 0.0
H28 H 0.62086 0.66553 0.96268 0.0
H29 H 1.08044 0.1665 0.10908 0.0
Co30 Co 0.75685 0.20068 0.5878 0.0
C31 C 0.8637 0.32997 0.52694 0.0
Co32 Co 0.8565 0.20324 0.58533 0.0
C33 C 0.65677 0.23518 0.72519 0.0
C34 C 0.60999 0.13721 0.5794 0.0
N35 N 0.67118 0.19347 0.6123 0.0
N36 N 0.58954 0.20646 0.76798 0.0
C37 C 0.55997 0.14482 0.67589 0.0
H38 H 0.69529 0.28426 0.78429 0.0
H39 H 0.60234 0.09188 0.5 0.0
C40 C 0.74887 0.07317 0.63134 0.0
N41 N 0.94213 0.21002 0.56268 0.0
C42 C 0.99051 0.25077 0.42446 0.0
C43 C 0.96168 0.16543 0.62599 0.0
N44 N 1.03774 0.23217 0.39599 0.0
C45 C 1.02033 0.17855 0.52143 0.0
C46 C 0.8096 0.20552 0.97502 0.0
O47 O 0.71544 0.1042 0.61395 0.0
O48 O 0.81336 0.10642 0.61444 0.0
O49 O 0.86096 0.20969 0.88014 0.0
O50 O 0.76195 0.20603 0.87564 0.0
O51 O 0.89794 0.2998 0.55174 0.0
H52 H 0.9324 0.12277 0.72845 0.0
H53 H 0.98757 0.28888 0.33096 0.0
O54 O 0.7997 0.29714 0.55904 0.0
O55 O 0.75282 0.19535 0.29284 0.0
O56 O 0.85056 0.19627 0.29722 0.0
C57 C 0.80355 0.19811 0.1979 0.0
H58 H 0.50591 0.10809 0.67603 0.0
H59 H 1.04631 0.14947 0.53001 0.0
Co60 Co 0.59257 0.87208 0.71753 0.0
C61 C 0.57011 0.74277 0.7785 0.0
Co62 Co 0.68965 0.86953 0.72026 0.0
C63 C 0.45798 0.83758 0.57993 0.0
C64 C 0.50919 0.93554 0.7258 0.0
N65 N 0.51411 0.87929 0.69289 0.0
N66 N 0.41948 0.8663 0.53709 0.0
C67 C 0.45154 0.92793 0.62921 0.0
H68 H 0.44743 0.78851 0.52083 0.0
H69 H 0.54688 0.98087 0.80527 0.0
C70 C 0.71208 0.9996 0.67415 0.0
N71 N 0.7685 0.8628 0.74293 0.0
C72 C 0.77619 0.822 0.88087 0.0
C73 C 0.83262 0.90742 0.67963 0.0
N74 N 0.84203 0.84057 0.90905 0.0
C75 C 0.87819 0.89428 0.78392 0.0
C76 C 0.64046 0.86724 0.33045 0.0
O77 O 0.64763 0.96856 0.69138 0.0
O78 O 0.74331 0.96635 0.6912 0.0
O79 O 0.68765 0.86308 0.42549 0.0
O80 O 0.59229 0.86672 0.42966 0.0
O81 O 0.63452 0.77295 0.75382 0.0
H82 H 0.84596 0.95012 0.57734 0.0
H83 H 0.73518 0.78386 0.97433 0.0
O84 O 0.53895 0.77561 0.7463 0.0
O85 O 0.59388 0.87742 0.01245 0.0
O86 O 0.69069 0.87648 0.00839 0.0
C87 C 0.64183 0.87465 0.10756 0.0
H88 H 0.43421 0.96466 0.62906 0.0
H89 H 0.93325 0.92338 0.77531 0.0
Co90 Co 0.89911 0.56554 0.25432 0.0
C91 C 0.76981 0.54308 0.19332 0.0
Co92 Co 0.89655 0.66261 0.25162 0.0
C93 C 0.86459 0.43095 0.39181 0.0
C94 C 0.96259 0.48217 0.24613 0.0
N95 N 0.90633 0.48709 0.27895 0.0
N96 N 0.8933 0.39242 0.43456 0.0
C97 C 0.95496 0.42451 0.34265 0.0
H98 H 0.81552 0.42039 0.45089 0.0
H99 H 1.00793 0.51988 0.16678 0.0
C100 C 1.02662 0.68506 0.29773 0.0
N101 N 0.88981 0.74146 0.2289 0.0
C102 C 0.84906 0.74913 0.09072 0.0
C103 C 0.93439 0.80558 0.29228 0.0
N104 N 0.86766 0.81496 0.06233 0.0
C105 C 0.92128 0.85114 0.18778 0.0
C106 C 0.89427 0.61343 0.64142 0.0
O107 O 0.99559 0.62061 0.28048 0.0
O108 O 0.99337 0.71629 0.28071 0.0
O109 O 0.8901 0.66061 0.54639 0.0
O110 O 0.89376 0.56526 0.54218 0.0
O111 O 0.79997 0.60748 0.21803 0.0
H112 H 0.97704 0.81893 0.39478 0.0
H113 H 0.81094 0.70811 -0.00277 0.0
O114 O 0.80265 0.51192 0.22553 0.0
O115 O 0.90445 0.56684 0.9594 0.0
O116 O 0.90351 0.66365 0.96349 0.0
C117 C 0.90168 0.6148 0.8643 0.0
H118 H 0.99169 0.40719 0.3429 0.0
H119 H 0.95035 0.9062 0.19645 0.0
Co120 Co 0.22771 0.72984 0.38403 0.0
C121 C 0.357 0.83669 0.44488 0.0
Co122 Co 0.23026 0.82949 0.38654 0.0
C123 C 0.26222 0.62974 0.24675 0.0
C124 C 0.16424 0.58298 0.39244 0.0
N125 N 0.2205 0.64416 0.35955 0.0
N126 N 0.23351 0.56251 0.2041 0.0
C127 C 0.17185 0.53295 0.29603 0.0
H128 H 0.3113 0.66827 0.18763 0.0
H129 H 0.11889 0.57533 0.47175 0.0
C130 C 0.10019 0.72185 0.34053 0.0
N131 N 0.23702 0.9151 0.40912 0.0
C132 C 0.27782 0.96355 0.54712 0.0
C133 C 0.1924 0.93461 0.34587 0.0
N134 N 0.25925 1.01082 0.57537 0.0
C135 C 0.20554 0.9933 0.45022 0.0
C136 C 0.23255 0.78258 -0.00317 0.0
O137 O 0.13123 0.68842 0.35788 0.0
O138 O 0.13345 0.78633 0.35745 0.0
O139 O 0.23671 0.83393 0.09173 0.0
O140 O 0.23306 0.73492 0.09618 0.0
O141 O 0.32683 0.87093 0.42011 0.0
H142 H 0.14969 0.90528 0.2436 0.0
H143 H 0.31595 0.96065 0.6406 0.0
O144 O 0.32417 0.77269 0.41278 0.0
O145 O 0.22238 0.72581 0.67899 0.0
O146 O 0.22331 0.82356 0.67465 0.0
C147 C 0.22514 0.77654 0.77395 0.0
H148 H 0.13511 0.47889 0.29585 0.0
H149 H 0.17642 1.01924 0.44168 0.0
Co150 Co 0.53419 0.34288 0.92096 0.0
C151 C 0.55667 0.23605 0.86014 0.0
Co152 Co 0.43711 0.24322 0.91834 0.0
C153 C 0.66881 0.44298 0.05834 0.0
C154 C 0.61755 0.48974 0.91263 0.0
N155 N 0.61265 0.42856 0.94552 0.0
N156 N 0.70734 0.51021 0.10099 0.0
C157 C 0.67523 0.53977 0.00905 0.0
H158 H 0.67938 0.40446 0.11746 0.0
H159 H 0.57983 0.49738 0.83329 0.0
C160 C 0.41465 0.35084 0.96443 0.0
N161 N 0.35827 0.15759 0.89559 0.0
C162 C 0.35064 0.10922 0.7574 0.0
C163 C 0.29413 0.13802 0.95875 0.0
N164 N 0.28481 0.06197 0.72881 0.0
C165 C 0.2486 0.07937 0.85413 0.0
C166 C 0.48631 0.29012 0.30811 0.0
O167 O 0.4791 0.38427 0.94706 0.0
O168 O 0.38341 0.28635 0.94739 0.0
O169 O 0.43912 0.23876 0.21316 0.0
O170 O 0.53448 0.33778 0.20882 0.0
O171 O 0.49226 0.20181 0.88485 0.0
H172 H 0.28074 0.16729 0.06115 0.0
H173 H 0.39169 0.11217 0.664 0.0
O174 O 0.58783 0.30005 0.89229 0.0
O175 O 0.53288 0.34692 0.626 0.0
O176 O 0.43606 0.24917 0.63021 0.0
C177 C 0.48492 0.29619 0.53097 0.0
H178 H 0.69254 0.59383 0.00922 0.0
H179 H 0.19353 1.05338 0.86261 0.0
loop_
_geom_bond_atom_site_label_1
_geom_bond_atom_site_label_2
_geom_bond_distance
_geom_bond_site_symmetry_2
_ccdc_geom_bond_type
Co0 N5 2.057 . S
Co0 O17 2.021 . S
Co0 O20 2.062 . S
Co0 O24 2.117 1_556 S
Co0 O25 2.020 1_556 S
C1 O21 1.259 . S
C1 O24 1.258 . S
Co2 N11 2.057 . S
Co2 O18 2.117 1_554 S
Co2 O19 2.020 1_554 S
Co2 O21 2.021 . S
Co2 O26 2.062 . S
C3 N5 1.316 . S
C3 N6 1.347 . S
C3 H8 0.931 . S
C4 N5 1.375 . S
C4 C7 1.350 . S
C4 H9 0.930 . S
N5 Co0 2.057 . S
N5 C3 1.316 . S
N5 C4 1.375 . S
N6 C3 1.347 . S
N6 C7 1.373 . S
C7 C4 1.350 . S
C7 N6 1.373 . S
C7 H28 0.931 . S
H8 C3 0.931 . S
H9 C4 0.930 . S
C10 O17 1.259 . S
C10 O18 1.258 . S
N11 Co2 2.057 . S
N11 C12 1.316 . S
N11 C13 1.375 . S
C12 N11 1.316 . S
C12 N14 1.347 . S
C12 H23 0.931 . S
C13 N11 1.375 . S
C13 C15 1.350 . S
C13 H22 0.930 . S
N14 C12 1.347 . S
N14 C15 1.373 . S
C15 C13 1.350 . S
C15 N14 1.373 . S
C15 H29 0.931 . S
C16 O19 1.256 . S
C16 O20 1.255 . S
O17 Co0 2.021 . S
O17 C10 1.259 . S
O18 Co2 2.117 1_556 S
O18 C10 1.258 . S
O19 Co2 2.020 1_556 S
O19 C16 1.256 . S
O20 Co0 2.062 . S
O20 C16 1.255 . S
O21 C1 1.259 . S
O21 Co2 2.021 . S
H22 C13 0.930 . S
H23 C12 0.931 . S
O24 Co0 2.117 1_554 S
O24 C1 1.258 . S
O25 Co0 2.020 1_554 S
O25 C27 1.256 . S
O26 Co2 2.062 . S
O26 C27 1.255 . S
C27 O25 1.256 . S
C27 O26 1.255 . S
H28 C7 0.931 . S
H29 C15 0.931 . S
Co30 N35 2.057 . S
Co30 O47 2.021 . S
Co30 O50 2.062 1_556 S
Co30 O54 2.117 . S
Co30 O55 2.020 . S
C31 O51 1.259 . S
C31 O54 1.258 . S
Co32 N41 2.057 . S
Co32 O48 2.117 . S
Co32 O49 2.020 . S
Co32 O51 2.021 . S
Co32 O56 2.062 . S
C33 N35 1.316 . S
C33 N36 1.347 . S
C33 H38 0.931 . S
C34 N35 1.375 . S
C34 C37 1.350 . S
C34 H39 0.930 . S
N35 Co30 2.057 . S
N35 C33 1.316 . S
N35 C34 1.375 . S
N36 C33 1.347 . S
N36 C37 1.373 . S
C37 C34 1.350 . S
C37 N36 1.373 . S
C37 H58 0.931 . S
H38 C33 0.931 . S
H39 C34 0.930 . S
C40 O47 1.259 . S
C40 O48 1.258 . S
N41 Co32 2.057 . S
N41 C42 1.316 . S
N41 C43 1.375 . S
C42 N41 1.316 . S
C42 N44 1.347 . S
C42 H53 0.931 . S
C43 N41 1.375 . S
C43 C45 1.350 . S
C43 H52 0.930 . S
N44 C42 1.347 . S
N44 C45 1.373 . S
C45 C43 1.350 . S
C45 N44 1.373 . S
C45 H59 0.931 . S
C46 O49 1.256 1_554 S
C46 O50 1.255 . S
O47 Co30 2.021 . S
O47 C40 1.259 . S
O48 Co32 2.117 . S
O48 C40 1.258 . S
O49 Co32 2.020 . S
O49 C46 1.256 1_556 S
O50 Co30 2.062 1_554 S
O50 C46 1.255 . S
O51 C31 1.259 . S
O51 Co32 2.021 . S
H52 C43 0.930 . S
H53 C42 0.931 . S
O54 Co30 2.117 . S
O54 C31 1.258 . S
O55 Co30 2.020 . S
O55 C57 1.256 . S
O56 Co32 2.062 . S
O56 C57 1.255 . S
C57 O55 1.256 . S
C57 O56 1.255 . S
H58 C37 0.931 . S
H59 C45 0.931 . S
Co60 N65 2.057 . S
Co60 O77 2.021 . S
Co60 O80 2.062 . S
Co60 O84 2.117 . S
Co60 O85 2.020 . S
C61 O81 1.259 . S
C61 O84 1.258 . S
Co62 N71 2.057 . S
Co62 O78 2.117 . S
Co62 O79 2.020 . S
Co62 O81 2.021 . S
Co62 O86 2.062 . S
C63 N65 1.316 . S
C63 N66 1.347 . S
C63 H68 0.931 . S
C64 N65 1.375 . S
C64 C67 1.350 . S
C64 H69 0.930 . S
N65 Co60 2.057 . S
N65 C63 1.316 . S
N65 C64 1.375 . S
N66 C63 1.347 . S
N66 C67 1.373 . S
C67 C64 1.350 . S
C67 N66 1.373 . S
C67 H88 0.931 . S
H68 C63 0.931 . S
H69 C64 0.930 . S
C70 O77 1.259 . S
C70 O78 1.258 . S
N71 Co62 2.057 . S
N71 C72 1.316 . S
N71 C73 1.375 . S
C72 N71 1.316 . S
C72 N74 1.347 . S
C72 H83 0.931 . S
C73 N71 1.375 . S
C73 C75 1.350 . S
C73 H82 0.930 . S
N74 C72 1.347 . S
N74 C75 1.373 . S
C75 C73 1.350 . S
C75 N74 1.373 . S
C75 H89 0.931 . S
C76 O79 1.256 . S
C76 O80 1.255 . S
O77 Co60 2.021 . S
O77 C70 1.259 . S
O78 Co62 2.117 . S
O78 C70 1.258 . S
O79 Co62 2.020 . S
O79 C76 1.256 . S
O80 Co60 2.062 . S
O80 C76 1.255 . S
O81 C61 1.259 . S
O81 Co62 2.021 . S
H82 C73 0.930 . S
H83 C72 0.931 . S
O84 Co60 2.117 . S
O84 C61 1.258 . S
O85 Co60 2.020 . S
O85 C87 1.256 1_556 S
O86 Co62 2.062 . S
O86 C87 1.255 1_556 S
C87 O85 1.256 1_554 S
C87 O86 1.255 1_554 S
H88 C67 0.931 . S
H89 C75 0.931 . S
Co90 N95 2.057 . S
Co90 O107 2.021 . S
Co90 O110 2.062 . S
Co90 O114 2.117 . S
Co90 O115 2.020 . S
C91 O111 1.259 . S
C91 O114 1.258 . S
Co92 N101 2.057 . S
Co92 O108 2.117 . S
Co92 O109 2.020 . S
Co92 O111 2.021 . S
Co92 O116 2.062 . S
C93 N95 1.316 . S
C93 N96 1.347 . S
C93 H98 0.931 . S
C94 N95 1.375 . S
C94 C97 1.350 . S
C94 H99 0.930 . S
N95 Co90 2.057 . S
N95 C93 1.316 . S
N95 C94 1.375 . S
N96 C93 1.347 . S
N96 C97 1.373 . S
C97 C94 1.350 . S
C97 N96 1.373 . S
C97 H118 0.931 . S
H98 C93 0.931 . S
H99 C94 0.930 . S
C100 O107 1.259 . S
C100 O108 1.258 . S
N101 Co92 2.057 . S
N101 C102 1.316 . S
N101 C103 1.375 . S
C102 N101 1.316 . S
C102 N104 1.347 . S
C102 H113 0.931 . S
C103 N101 1.375 . S
C103 C105 1.350 . S
C103 H112 0.930 . S
N104 C102 1.347 . S
N104 C105 1.373 . S
C105 C103 1.350 . S
C105 N104 1.373 . S
C105 H119 0.931 . S
C106 O109 1.256 . S
C106 O110 1.255 . S
O107 Co90 2.021 . S
O107 C100 1.259 . S
O108 Co92 2.117 . S
O108 C100 1.258 . S
O109 Co92 2.020 . S
O109 C106 1.256 . S
O110 Co90 2.062 . S
O110 C106 1.255 . S
O111 C91 1.259 . S
O111 Co92 2.021 . S
H112 C103 0.930 . S
H113 C102 0.931 . S
O114 Co90 2.117 . S
O114 C91 1.258 . S
O115 Co90 2.020 . S
O115 C117 1.256 1_554 S
O116 Co92 2.062 . S
O116 C117 1.255 1_554 S
C117 O115 1.256 1_556 S
C117 O116 1.255 1_556 S
H118 C97 0.931 . S
H119 C105 0.931 . S
Co120 N125 2.057 . S
Co120 O137 2.021 . S
Co120 O140 2.062 1_554 S
Co120 O144 2.117 . S
Co120 O145 2.020 . S
C121 O141 1.259 . S
C121 O144 1.258 . S
Co122 N131 2.057 . S
Co122 O138 2.117 . S
Co122 O139 2.020 . S
Co122 O141 2.021 . S
Co122 O146 2.062 . S
C123 N125 1.316 . S
C123 N126 1.347 . S
C123 H128 0.931 . S
C124 N125 1.375 . S
C124 C127 1.350 . S
C124 H129 0.930 . S
N125 Co120 2.057 . S
N125 C123 1.316 . S
N125 C124 1.375 . S
N126 C123 1.347 . S
N126 C127 1.373 . S
C127 C124 1.350 . S
C127 N126 1.373 . S
C127 H148 0.931 . S
H128 C123 0.931 . S
H129 C124 0.930 . S
C130 O137 1.259 . S
C130 O138 1.258 . S
N131 Co122 2.057 . S
N131 C132 1.316 . S
N131 C133 1.375 . S
C132 N131 1.316 . S
C132 N134 1.347 . S
C132 H143 0.931 . S
C133 N131 1.375 . S
C133 C135 1.350 . S
C133 H142 0.930 . S
N134 C132 1.347 . S
N134 C135 1.373 . S
C135 C133 1.350 . S
C135 N134 1.373 . S
C135 H149 0.931 . S
C136 O139 1.256 1_556 S
C136 O140 1.255 . S
O137 Co120 2.021 . S
O137 C130 1.259 . S
O138 Co122 2.117 . S
O138 C130 1.258 . S
O139 Co122 2.020 . S
O139 C136 1.256 1_554 S
O140 Co120 2.062 1_556 S
O140 C136 1.255 . S
O141 C121 1.259 . S
O141 Co122 2.021 . S
H142 C133 0.930 . S
H143 C132 0.931 . S
O144 Co120 2.117 . S
O144 C121 1.258 . S
O145 Co120 2.020 . S
O145 C147 1.256 . S
O146 Co122 2.062 . S
O146 C147 1.255 . S
C147 O145 1.256 . S
C147 O146 1.255 . S
H148 C127 0.931 . S
H149 C135 0.931 . S
Co150 N155 2.057 . S
Co150 O167 2.021 . S
Co150 O170 2.062 . S
Co150 O174 2.117 1_554 S
Co150 O175 2.020 1_554 S
C151 O171 1.259 . S
C151 O174 1.258 . S
Co152 N161 2.057 . S
Co152 O168 2.117 1_556 S
Co152 O169 2.020 1_556 S
Co152 O171 2.021 . S
Co152 O176 2.062 . S
C153 N155 1.316 . S
C153 N156 1.347 . S
C153 H158 0.931 . S
C154 N155 1.375 . S
C154 C157 1.350 . S
C154 H159 0.930 . S
N155 Co150 2.057 . S
N155 C153 1.316 . S
N155 C154 1.375 . S
N156 C153 1.347 . S
N156 C157 1.373 . S
C157 C154 1.350 . S
C157 N156 1.373 . S
C157 H178 0.931 . S
H158 C153 0.931 . S
H159 C154 0.930 . S
C160 O167 1.259 . S
C160 O168 1.258 . S
N161 Co152 2.057 . S
N161 C162 1.316 . S
N161 C163 1.375 . S
C162 N161 1.316 . S
C162 N164 1.347 . S
C162 H173 0.931 . S
C163 N161 1.375 . S
C163 C165 1.350 . S
C163 H172 0.930 . S
N164 C162 1.347 . S
N164 C165 1.373 . S
C165 C163 1.350 . S
C165 N164 1.373 . S
C165 H179 0.931 . S
C166 O169 1.256 . S
C166 O170 1.255 . S
O167 Co150 2.021 . S
O167 C160 1.259 . S
O168 Co152 2.117 1_554 S
O168 C160 1.258 . S
O169 Co152 2.020 1_554 S
O169 C166 1.256 . S
O170 Co150 2.062 . S
O170 C166 1.255 . S
O171 C151 1.259 . S
O171 Co152 2.021 . S
H172 C163 0.930 . S
H173 C162 0.931 . S
O174 Co150 2.117 1_556 S
O174 C151 1.258 . S
O175 Co150 2.020 1_556 S
O175 C177 1.256 . S
O176 Co152 2.062 . S
O176 C177 1.255 . S
C177 O175 1.256 . S
C177 O176 1.255 . S
H178 C157 0.931 . S
H179 C165 0.931 . S
C160 C10 2.114 1_554 S
N14 N44 2.304 1_455 S
C40 C70 2.227 1_545 S
N74 N104 2.305 1_556 S
C130 C100 2.227 1_455 S
N164 N134 2.304 1_545 S
C16 C27 1.245 . S
C57 C46 1.228 . S
C76 C87 1.238 . S
C117 C106 1.238 . S
C147 C136 1.228 . S
C177 C166 1.245 . S
C1 N126 2.264 . S
N36 C151 2.264 . S
N6 C61 2.306 . S
C31 N96 2.268 . S
C121 N66 2.268 . S
C91 N156 2.306 . S
