# Generated by pormake.
# Topology uov, (4)-cn, num edge types: 1
# Building blocks:
#     Node 0, Type 0, BuildingBlock: CEKHIL_clean_sbu_0, # of connection points: 4
#     Node 1, Type 0, BuildingBlock: CEKHIL_clean_sbu_0, # of connection points: 4
#     Node 2, Type 0, BuildingBlock: CEKHIL_clean_sbu_0, # of connection points: 4
#     Node 3, Type 0, BuildingBlock: CEKHIL_clean_sbu_0, # of connection points: 4
#     Node 4, Type 0, BuildingBlock: CEKHIL_clean_sbu_0, # of connection points: 4
#     Node 5, Type 0, BuildingBlock: CEKHIL_clean_sbu_0, # of connection points: 4
#     Node 6, Type 0, BuildingBlock: CEKHIL_clean_sbu_0, # of connection points: 4
#     Node 7, Type 0, BuildingBlock: CEKHIL_clean_sbu_0, # of connection points: 4
#     Edge 8, Type (0, 0), None
#     Edge 9, Type (0, 0), None
#     Edge 10, Type (0, 0), None
#     Edge 11, Type (0, 0), None
#     Edge 12, Type (0, 0), None
#     Edge 13, Type (0, 0), None
#     Edge 14, Type (0, 0), None
#     Edge 15, Type (0, 0), None
#     Edge 16, Type (0, 0), None
#     Edge 17, Type (0, 0), None
#     Edge 18, Type (0, 0), None
#     Edge 19, Type (0, 0), None
#     Edge 20, Type (0, 0), None
#     Edge 21, Type (0, 0), None
#     Edge 22, Type (0, 0), None
#     Edge 23, Type (0, 0), None
# Relax obj value: 0.154
# Max RMSD: 0.153
# Mean RMSD: 0.153
data_MOF--net-uov--node1-CEKHIL_clean_sbu_0--edge1-none
_symmetry_space_group_name_H-M    P1
_symmetry_Int_Tables_number       1
_symmetry_cell_setting            triclinic
loop_
_symmetry_equiv_pos_as_xyz
'x, y, z'
_cell_length_a     13.423048
_cell_length_b     13.422524
_cell_length_c     18.281003
_cell_angle_alpha  89.999646
_cell_angle_beta   90.00035
_cell_angle_gamma 90.00007
loop_
_atom_site_label
_atom_site_type_symbol
_atom_site_fract_x
_atom_site_fract_y
_atom_site_fract_z
_atom_type_partial_charge
Co0 Co 0.04059 0.29114 0.60269 0.0
O1 O 0.95848 0.38026 0.65987 0.0
O2 O 0.09897 0.4232 0.60534 0.0
C3 C 0.91029 0.22867 0.53413 0.0
O4 O 0.13836 0.21665 0.5351 0.0
Co5 Co 0.99573 0.06921 0.61912 0.0
O6 O 0.10945 0.05247 0.55123 0.0
C7 C 0.09574 0.16541 0.72991 0.0
C8 C 0.01895 0.45022 0.64068 0.0
C9 C 0.15787 0.12384 0.52245 0.0
O10 O 0.12382 0.23999 0.69067 0.0
O11 O 0.01045 0.12855 0.71782 0.0
O12 O 0.95212 0.31247 0.51708 0.0
O13 O 0.93997 0.19453 0.59587 0.0
Co14 Co 0.29109 0.9643 0.39659 0.0
O15 O 0.38023 0.0464 0.33942 0.0
O16 O 0.42314 0.90592 0.39398 0.0
C17 C 0.22855 0.09449 0.46509 0.0
O18 O 0.21658 0.86654 0.46418 0.0
Co19 Co 0.06913 0.00908 0.38005 0.0
O20 O 0.0524 0.89543 0.44801 0.0
C21 C 0.16548 0.9091 0.26934 0.0
C22 C 0.45017 0.98592 0.35863 0.0
C23 C 0.12376 0.84704 0.47683 0.0
O24 O 0.24 0.88102 0.30862 0.0
O25 O 0.12865 0.99442 0.28139 0.0
O26 O 0.31239 0.05279 0.4822 0.0
O27 O 0.19442 0.06487 0.40334 0.0
Co28 Co 0.96428 0.71377 0.60271 0.0
O29 O 0.04643 0.62467 0.65988 0.0
O30 O 0.90595 0.58168 0.60532 0.0
C31 C 0.09441 0.77638 0.53419 0.0
O32 O 0.86648 0.78826 0.53514 0.0
Co33 Co 0.00898 0.93577 0.61932 0.0
O34 O 0.89532 0.95245 0.55134 0.0
C35 C 0.90905 0.83933 0.72999 0.0
C36 C 0.98599 0.55471 0.64065 0.0
C37 C 0.84695 0.88108 0.52252 0.0
O38 O 0.88099 0.76481 0.69069 0.0
O39 O 0.99436 0.87616 0.71795 0.0
O40 O 0.05275 0.69251 0.5171 0.0
O41 O 0.06479 0.81049 0.59595 0.0
Co42 Co 0.71372 0.04057 0.3966 0.0
O43 O 0.62462 0.9584 0.33944 0.0
O44 O 0.58164 0.09892 0.39397 0.0
C45 C 0.77629 0.91043 0.46515 0.0
O46 O 0.78819 0.1384 0.46416 0.0
Co47 Co 0.9357 0.99588 0.38009 0.0
O48 O 0.95238 0.10964 0.44796 0.0
C49 C 0.83931 0.09572 0.26934 0.0
C50 C 0.55466 0.01887 0.35865 0.0
C51 C 0.88099 0.15801 0.47675 0.0
O52 O 0.76477 0.12381 0.3086 0.0
O53 O 0.87615 0.01043 0.28143 0.0
O54 O 0.69244 0.95212 0.48223 0.0
O55 O 0.81042 0.94004 0.40339 0.0
Co56 Co 0.96426 0.2911 0.10273 0.0
O57 O 0.04635 0.38022 0.15993 0.0
O58 O 0.90589 0.42317 0.10538 0.0
C59 C 0.09457 0.22861 0.0342 0.0
O60 O 0.86651 0.21662 0.03512 0.0
Co61 Co 0.00912 0.06915 0.11917 0.0
O62 O 0.89545 0.05244 0.05122 0.0
C63 C 0.90901 0.16533 0.22993 0.0
C64 C 0.98589 0.45019 0.14074 0.0
C65 C 0.84702 0.12381 0.02245 0.0
O66 O 0.88099 0.23994 0.19069 0.0
O67 O 0.99428 0.12838 0.2179 0.0
O68 O 0.05277 0.31242 0.01715 0.0
O69 O 0.06487 0.19448 0.09593 0.0
Co70 Co 0.29112 0.04059 0.89658 0.0
O71 O 0.38024 0.95848 0.83939 0.0
O72 O 0.42317 0.09898 0.89391 0.0
C73 C 0.22865 0.91028 0.96514 0.0
O74 O 0.21666 0.13837 0.96418 0.0
Co75 Co 0.06918 0.99575 0.88022 0.0
O76 O 0.05247 0.10952 0.94807 0.0
C77 C 0.16532 0.09577 0.7694 0.0
C78 C 0.4502 0.01897 0.85857 0.0
C79 C 0.12386 0.15795 0.97681 0.0
O80 O 0.23994 0.12381 0.8086 0.0
O81 O 0.12836 0.01052 0.78147 0.0
O82 O 0.31245 0.95211 0.98218 0.0
O83 O 0.19451 0.93997 0.90341 0.0
Co84 Co 0.04057 0.71374 0.10273 0.0
O85 O 0.9584 0.62466 0.15991 0.0
O86 O 0.0989 0.58165 0.10539 0.0
C87 C 0.91032 0.77627 0.03414 0.0
O88 O 0.13839 0.78818 0.03514 0.0
Co89 Co 0.99581 0.93571 0.11913 0.0
O90 O 0.10958 0.95239 0.05127 0.0
C91 C 0.09578 0.8395 0.22993 0.0
C92 C 0.01886 0.55468 0.14071 0.0
C93 C 0.15799 0.88099 0.02253 0.0
O94 O 0.1238 0.76488 0.19071 0.0
O95 O 0.01053 0.87645 0.21787 0.0
O96 O 0.95211 0.69244 0.01711 0.0
O97 O 0.94 0.81041 0.09588 0.0
Co98 Co 0.71376 0.96432 0.89655 0.0
O99 O 0.62465 0.04647 0.83938 0.0
O100 O 0.58167 0.90598 0.89394 0.0
C101 C 0.77636 0.09447 0.96508 0.0
O102 O 0.78822 0.86651 0.96414 0.0
Co103 Co 0.93576 0.00899 0.88002 0.0
O104 O 0.95242 0.89529 0.94796 0.0
C105 C 0.83939 0.90906 0.76931 0.0
C106 C 0.55469 0.98601 0.8586 0.0
C107 C 0.88102 0.84691 0.97675 0.0
O108 O 0.76482 0.88103 0.80858 0.0
O109 O 0.87631 0.99434 0.78134 0.0
O110 O 0.69249 0.0528 0.98217 0.0
O111 O 0.81048 0.06484 0.90332 0.0
loop_
_geom_bond_atom_site_label_1
_geom_bond_atom_site_label_2
_geom_bond_distance
_geom_bond_site_symmetry_2
_ccdc_geom_bond_type
Co0 O1 2.216 . S
Co0 O2 2.091 . S
Co0 O4 2.004 . S
Co0 O10 2.021 . S
Co0 O12 2.137 1_455 S
Co0 O13 2.244 1_455 S
O1 Co0 2.216 . S
O1 C8 1.247 . S
O2 Co0 2.091 . S
O2 C8 1.261 . S
C3 O12 1.247 . S
C3 O13 1.272 . S
O4 Co0 2.004 . S
O4 C9 1.259 . S
Co5 O6 2.061 . S
Co5 O11 2.052 . S
Co5 O13 2.135 1_455 S
O6 Co5 2.061 . S
O6 C9 1.235 . S
C7 O10 1.238 . S
C7 O11 1.241 . S
C8 O1 1.247 . S
C8 O2 1.261 . S
C9 O4 1.259 . S
C9 O6 1.235 . S
O10 Co0 2.021 . S
O10 C7 1.238 . S
O11 Co5 2.052 . S
O11 C7 1.241 . S
O12 Co0 2.137 1_655 S
O12 C3 1.247 . S
O13 Co0 2.244 1_655 S
O13 C3 1.272 . S
O13 Co5 2.135 1_655 S
Co14 O15 2.216 . S
Co14 O16 2.091 . S
Co14 O18 2.004 . S
Co14 O24 2.021 . S
Co14 O26 2.137 1_565 S
Co14 O27 2.244 1_565 S
O15 Co14 2.216 . S
O15 C22 1.247 . S
O16 Co14 2.091 . S
O16 C22 1.261 . S
C17 O26 1.247 . S
C17 O27 1.272 . S
O18 Co14 2.004 . S
O18 C23 1.259 . S
Co19 O20 2.061 . S
Co19 O25 2.052 . S
Co19 O27 2.135 1_565 S
O20 Co19 2.061 . S
O20 C23 1.235 . S
C21 O24 1.238 . S
C21 O25 1.241 . S
C22 O15 1.247 . S
C22 O16 1.261 . S
C23 O18 1.259 . S
C23 O20 1.235 . S
O24 Co14 2.021 . S
O24 C21 1.238 . S
O25 Co19 2.052 . S
O25 C21 1.241 . S
O26 Co14 2.137 1_545 S
O26 C17 1.247 . S
O27 Co14 2.244 1_545 S
O27 C17 1.272 . S
O27 Co19 2.135 1_545 S
Co28 O29 2.216 . S
Co28 O30 2.091 . S
Co28 O32 2.004 . S
Co28 O38 2.021 . S
Co28 O40 2.137 1_655 S
Co28 O41 2.244 1_655 S
O29 Co28 2.216 . S
O29 C36 1.247 . S
O30 Co28 2.091 . S
O30 C36 1.261 . S
C31 O40 1.247 . S
C31 O41 1.272 . S
O32 Co28 2.004 . S
O32 C37 1.259 . S
Co33 O34 2.061 . S
Co33 O39 2.052 . S
Co33 O41 2.135 1_655 S
O34 Co33 2.061 . S
O34 C37 1.235 . S
C35 O38 1.238 . S
C35 O39 1.241 . S
C36 O29 1.247 . S
C36 O30 1.261 . S
C37 O32 1.259 . S
C37 O34 1.235 . S
O38 Co28 2.021 . S
O38 C35 1.238 . S
O39 Co33 2.052 . S
O39 C35 1.241 . S
O40 Co28 2.137 1_455 S
O40 C31 1.247 . S
O41 Co28 2.244 1_455 S
O41 C31 1.272 . S
O41 Co33 2.135 1_455 S
Co42 O43 2.216 . S
Co42 O44 2.091 . S
Co42 O46 2.004 . S
Co42 O52 2.021 . S
Co42 O54 2.137 1_545 S
Co42 O55 2.244 1_545 S
O43 Co42 2.216 . S
O43 C50 1.247 . S
O44 Co42 2.091 . S
O44 C50 1.261 . S
C45 O54 1.247 . S
C45 O55 1.272 . S
O46 Co42 2.004 . S
O46 C51 1.259 . S
Co47 O48 2.061 . S
Co47 O53 2.052 . S
Co47 O55 2.135 1_545 S
O48 Co47 2.061 . S
O48 C51 1.235 . S
C49 O52 1.238 . S
C49 O53 1.241 . S
C50 O43 1.247 . S
C50 O44 1.261 . S
C51 O46 1.259 . S
C51 O48 1.235 . S
O52 Co42 2.021 . S
O52 C49 1.238 . S
O53 Co47 2.052 . S
O53 C49 1.241 . S
O54 Co42 2.137 1_565 S
O54 C45 1.247 . S
O55 Co42 2.244 1_565 S
O55 C45 1.272 . S
O55 Co47 2.135 1_565 S
Co56 O57 2.216 . S
Co56 O58 2.091 . S
Co56 O60 2.004 . S
Co56 O66 2.021 . S
Co56 O68 2.137 1_654 S
Co56 O69 2.244 1_655 S
O57 Co56 2.216 . S
O57 C64 1.247 . S
O58 Co56 2.091 . S
O58 C64 1.261 . S
C59 O68 1.247 1_554 S
C59 O69 1.272 . S
O60 Co56 2.004 . S
O60 C65 1.259 . S
Co61 O62 2.061 . S
Co61 O67 2.052 . S
Co61 O69 2.135 1_655 S
O62 Co61 2.061 . S
O62 C65 1.235 . S
C63 O66 1.238 . S
C63 O67 1.241 . S
C64 O57 1.247 . S
C64 O58 1.261 . S
C65 O60 1.259 . S
C65 O62 1.235 . S
O66 Co56 2.021 . S
O66 C63 1.238 . S
O67 Co61 2.052 . S
O67 C63 1.241 . S
O68 Co56 2.137 1_456 S
O68 C59 1.247 1_556 S
O69 Co56 2.244 1_455 S
O69 C59 1.272 . S
O69 Co61 2.135 1_455 S
Co70 O71 2.216 . S
Co70 O72 2.091 . S
Co70 O74 2.004 . S
Co70 O80 2.021 . S
Co70 O82 2.137 1_546 S
Co70 O83 2.244 1_545 S
O71 Co70 2.216 . S
O71 C78 1.247 . S
O72 Co70 2.091 . S
O72 C78 1.261 . S
C73 O82 1.247 1_556 S
C73 O83 1.272 . S
O74 Co70 2.004 . S
O74 C79 1.259 . S
Co75 O76 2.061 . S
Co75 O81 2.052 . S
Co75 O83 2.135 1_545 S
O76 Co75 2.061 . S
O76 C79 1.235 . S
C77 O80 1.238 . S
C77 O81 1.241 . S
C78 O71 1.247 . S
C78 O72 1.261 . S
C79 O74 1.259 . S
C79 O76 1.235 . S
O80 Co70 2.021 . S
O80 C77 1.238 . S
O81 Co75 2.052 . S
O81 C77 1.241 . S
O82 Co70 2.137 1_564 S
O82 C73 1.247 1_554 S
O83 Co70 2.244 1_565 S
O83 C73 1.272 . S
O83 Co75 2.135 1_565 S
Co84 O85 2.216 . S
Co84 O86 2.091 . S
Co84 O88 2.004 . S
Co84 O94 2.021 . S
Co84 O96 2.137 1_454 S
Co84 O97 2.244 1_455 S
O85 Co84 2.216 . S
O85 C92 1.247 . S
O86 Co84 2.091 . S
O86 C92 1.261 . S
C87 O96 1.247 1_554 S
C87 O97 1.272 . S
O88 Co84 2.004 . S
O88 C93 1.259 . S
Co89 O90 2.061 . S
Co89 O95 2.052 . S
Co89 O97 2.135 1_455 S
O90 Co89 2.061 . S
O90 C93 1.235 . S
C91 O94 1.238 . S
C91 O95 1.241 . S
C92 O85 1.247 . S
C92 O86 1.261 . S
C93 O88 1.259 . S
C93 O90 1.235 . S
O94 Co84 2.021 . S
O94 C91 1.238 . S
O95 Co89 2.052 . S
O95 C91 1.241 . S
O96 Co84 2.137 1_656 S
O96 C87 1.247 1_556 S
O97 Co84 2.244 1_655 S
O97 C87 1.272 . S
O97 Co89 2.135 1_655 S
Co98 O99 2.216 . S
Co98 O100 2.091 . S
Co98 O102 2.004 . S
Co98 O108 2.021 . S
Co98 O110 2.137 1_566 S
Co98 O111 2.244 1_565 S
O99 Co98 2.216 . S
O99 C106 1.247 . S
O100 Co98 2.091 . S
O100 C106 1.261 . S
C101 O110 1.247 1_556 S
C101 O111 1.272 . S
O102 Co98 2.004 . S
O102 C107 1.259 . S
Co103 O104 2.061 . S
Co103 O109 2.052 . S
Co103 O111 2.135 1_565 S
O104 Co103 2.061 . S
O104 C107 1.235 . S
C105 O108 1.238 . S
C105 O109 1.241 . S
C106 O99 1.247 . S
C106 O100 1.261 . S
C107 O102 1.259 . S
C107 O104 1.235 . S
O108 Co98 2.021 . S
O108 C105 1.238 . S
O109 Co103 2.052 . S
O109 C105 1.241 . S
O110 Co98 2.137 1_544 S
O110 C101 1.247 1_554 S
O111 Co98 2.244 1_545 S
O111 C101 1.272 . S
O111 Co103 2.135 1_545 S
C36 C8 2.081 1_655 S
C50 C22 2.081 1_545 S
C64 C92 2.081 1_655 S
C78 C106 2.081 1_545 S
C17 C9 1.231 . S
C23 C31 1.231 . S
C45 C37 1.231 . S
C51 C3 1.231 . S
C101 C65 1.231 1_556 S
C79 C59 1.231 1_556 S
C93 C73 1.231 1_554 S
C107 C87 1.231 1_556 S
C7 C77 1.530 . S
C91 C21 1.530 . S
C35 C105 1.530 . S
C49 C63 1.530 . S
