# Generated by pormake.
# Topology pcu, (6)-cn, num edge types: 1
# Building blocks:
#     Node 0, Type 0, BuildingBlock: MIDCAF_clean_sbu_0, # of connection points: 6
#     Edge 1, Type (0, 0), BuildingBlock: XUDNAN_clean_linker_2, # of connection points: 2
#     Edge 2, Type (0, 0), BuildingBlock: XUDNAN_clean_linker_2, # of connection points: 2
#     Edge 3, Type (0, 0), BuildingBlock: XUDNAN_clean_linker_2, # of connection points: 2
# Relax obj value: 0.148
# Max RMSD: 0.201
# Mean RMSD: 0.201
data_MOF--net-pcu--node1-MIDCAF_clean_sbu_0--edge1-XUDNAN_clean_linker_2
_symmetry_space_group_name_H-M    P1
_symmetry_Int_Tables_number       1
_symmetry_cell_setting            triclinic
loop_
_symmetry_equiv_pos_as_xyz
'x, y, z'
_cell_length_a     15.318206
_cell_length_b     15.531404
_cell_length_c     15.034933
_cell_angle_alpha  93.211114
_cell_angle_beta   97.556957
_cell_angle_gamma 107.3478
loop_
_atom_site_label
_atom_site_type_symbol
_atom_site_fract_x
_atom_site_fract_y
_atom_site_fract_z
_atom_type_partial_charge
Zn0 Zn 0.88823 0.90998 1.01497 0.0
Zn1 Zn 0.13115 0.14015 0.13972 0.0
Zn2 Zn 1.00812 0.03722 0.0506 0.0
C3 C 0.20435 0.08875 0.99369 0.0
C4 C 0.06144 1.00709 0.24746 0.0
O5 O 0.88527 0.07342 0.99699 0.0
O6 O 0.80366 0.96583 0.06815 0.0
C7 C 0.96914 0.93721 0.86121 0.0
O8 O 0.12551 0.02588 0.98347 0.0
O9 O 0.22249 0.1535 0.05466 0.0
O10 O 0.13817 0.06461 0.24192 0.0
O11 O 0.99417 0.99285 0.18311 0.0
O12 O 0.88667 0.91152 0.87709 0.0
O13 O 0.03502 0.97223 0.92786 0.0
O14 O 0.06935 0.93161 1.01029 0.0
O15 O 0.96625 0.84109 0.07991 0.0
C16 C 0.04218 0.85834 0.0493 0.0
O17 O 0.98722 0.16499 0.02021 0.0
O18 O 0.07285 0.23828 0.14638 0.0
C19 C 0.80883 0.03428 0.02481 0.0
C20 C 0.01907 0.23744 0.07473 0.0
H21 H 0.90913 0.95989 0.33329 0.0
H22 H 0.19377 0.95937 0.35142 0.0
H23 H 0.19165 0.91657 0.50647 0.0
H24 H 0.93168 0.06684 0.53982 0.0
H25 H 0.82073 1.00535 0.5681 0.0
H26 H 0.83503 1.01391 0.4519 0.0
H27 H 0.77757 0.83895 0.41989 0.0
H28 H 0.76162 0.82965 0.5361 0.0
H29 H 0.83282 0.7719 0.48743 0.0
H30 H 0.17233 0.90893 0.66537 0.0
H31 H 0.13131 0.92244 0.81729 0.0
H32 H 0.85698 0.92256 0.70001 0.0
C33 C 0.9693 0.94663 0.36879 0.0
C34 C 0.05142 0.96226 0.33078 0.0
C35 C 0.13019 0.94747 0.37974 0.0
C36 C 0.12954 0.92282 0.46764 0.0
C37 C 0.04931 0.91266 0.50539 0.0
C38 C 0.96992 0.9225 0.45733 0.0
C39 C 0.8972 0.91882 0.51767 0.0
C40 C 0.86963 1.00644 0.51945 0.0
C41 C 0.81227 0.8348 0.48853 0.0
C42 C 0.95016 0.91063 0.60769 0.0
C43 C 0.03736 0.90607 0.59868 0.0
C44 C 0.10324 0.9094 0.67317 0.0
C45 C 0.07955 0.91775 0.75924 0.0
C46 C 0.9905 0.9219 0.77009 0.0
C47 C 0.92463 0.91687 0.69329 0.0
H48 H 0.27011 0.94594 0.98559 0.0
H49 H 0.31607 0.21911 0.91139 0.0
H50 H 0.47524 0.22809 0.88875 0.0
H51 H 0.46726 0.99146 0.12266 0.0
H52 H 0.49271 0.88703 0.10003 0.0
H53 H 0.37502 0.88842 0.08126 0.0
H54 H 0.35437 0.82364 0.91486 0.0
H55 H 0.47143 0.81873 0.93343 0.0
H56 H 0.43558 0.87868 0.84346 0.0
H57 H 0.63857 0.21945 0.90657 0.0
H58 H 0.78731 0.18914 0.95464 0.0
H59 H 0.63411 0.92634 0.02766 0.0
C60 C 0.31192 1.00508 0.95883 0.0
C61 C 0.28079 0.08087 0.94777 0.0
C62 C 0.33859 0.15959 0.91782 0.0
C63 C 0.4292 0.16542 0.90534 0.0
C64 C 0.46084 0.092 0.92358 0.0
C65 C 0.40327 1.01257 0.94827 0.0
C66 C 0.45736 0.94967 0.97873 0.0
C67 C 0.44748 0.92799 0.07642 0.0
C68 C 0.42796 0.86253 0.91371 0.0
C69 C 0.55444 1.00789 0.97199 0.0
C70 C 0.5554 0.08884 0.93813 0.0
C71 C 0.63849 0.15545 0.93158 0.0
C72 C 0.72258 0.13819 0.95965 0.0
C73 C 0.72242 0.05597 0.99566 0.0
C74 C 0.63697 0.99034 1.00108 0.0
H75 H 0.08362 0.75819 0.17828 0.0
H76 H 0.06887 0.78233 0.89192 0.0
H77 H 0.05988 0.62113 0.86464 0.0
H78 H 0.21456 0.58518 0.18708 0.0
H79 H 0.14981 0.53057 0.27116 0.0
H80 H 0.17579 0.65114 0.26678 0.0
H81 H 1.00073 0.63178 0.2563 0.0
H82 H 0.97327 0.51082 0.25555 0.0
H83 H 0.9204 0.55843 0.16467 0.0
H84 H 0.02084 0.44976 0.86795 0.0
H85 H 0.99309 0.29101 0.90487 0.0
H86 H 0.03103 0.3828 0.18912 0.0
C87 C 0.0842 0.73069 0.11057 0.0
C88 C 0.07883 0.78237 0.03731 0.0
C89 C 0.07605 0.74419 0.94899 0.0
C90 C 0.06916 0.65224 0.93287 0.0
C91 C 0.06664 0.60077 1.00618 0.0
C92 C 0.07749 0.63961 0.09368 0.0
C93 C 0.06597 0.56934 0.16031 0.0
C94 C 0.15696 0.58495 0.22513 0.0
C95 C 0.9853 0.56757 0.21219 0.0
C96 C 0.04368 0.48444 0.09661 0.0
C97 C 0.04401 0.50336 1.00794 0.0
C98 C 0.02203 0.43441 0.93735 0.0
C99 C 1.00469 0.3444 0.95869 0.0
C100 C 0.00989 0.32497 0.04975 0.0
C101 C 0.0266 0.39576 0.11885 0.0
loop_
_geom_bond_atom_site_label_1
_geom_bond_atom_site_label_2
_geom_bond_distance
_geom_bond_site_symmetry_2
_ccdc_geom_bond_type
Zn0 O6 1.920 . S
Zn0 O12 1.898 . S
Zn0 O15 1.905 . S
Zn1 O9 1.905 . S
Zn1 O10 1.898 . S
Zn1 O18 1.920 . S
Zn2 O5 2.075 1_455 S
Zn2 O8 2.120 . S
Zn2 O11 2.119 1_465 S
Zn2 O13 2.120 1_464 S
Zn2 O14 2.117 1_554 S
Zn2 O17 2.078 1_564 S
C3 O8 1.166 1_545 S
C3 O9 1.182 . S
C4 O10 1.175 . S
C4 O11 1.300 1_455 S
O5 Zn2 2.075 1_655 S
O5 C19 1.305 1_554 S
O6 Zn0 1.920 . S
O6 C19 1.234 . S
C7 O12 1.174 . S
C7 O13 1.300 1_565 S
O8 Zn2 2.120 . S
O8 C3 1.166 1_565 S
O9 Zn1 1.905 . S
O9 C3 1.182 . S
O10 Zn1 1.898 . S
O10 C4 1.175 . S
O11 Zn2 2.119 1_645 S
O11 C4 1.300 1_655 S
O12 Zn0 1.898 . S
O12 C7 1.174 . S
O13 Zn2 2.120 1_646 S
O13 C7 1.300 1_545 S
O14 Zn2 2.117 1_556 S
O14 C16 1.166 1_455 S
O15 Zn0 1.905 . S
O15 C16 1.182 . S
C16 O14 1.166 1_655 S
C16 O15 1.182 . S
O17 Zn2 2.078 1_546 S
O17 C20 1.305 1_556 S
O18 Zn1 1.920 . S
O18 C20 1.234 . S
C19 O5 1.305 1_556 S
C19 O6 1.234 . S
C20 O17 1.305 1_554 S
C20 O18 1.234 . S
H21 C33 0.930 1_655 S
H22 C35 0.930 . S
H23 C36 0.930 . S
H24 C40 0.959 . S
H25 C40 0.959 . S
H26 C40 0.961 . S
H27 C41 0.960 . S
H28 C41 0.961 . S
H29 C41 0.959 . S
H30 C44 0.929 . S
H31 C45 0.931 . S
H32 C47 0.930 1_655 S
C33 H21 0.930 1_455 S
C33 C34 1.399 . S
C33 C38 1.399 . S
C34 C33 1.399 . S
C34 C35 1.376 1_565 S
C35 H22 0.930 . S
C35 C34 1.376 1_545 S
C35 C36 1.388 . S
C36 H23 0.930 . S
C36 C35 1.388 . S
C36 C37 1.390 . S
C37 C36 1.390 . S
C37 C38 1.394 1_545 S
C37 C43 1.465 . S
C38 C33 1.399 . S
C38 C37 1.394 1_565 S
C38 C39 1.516 . S
C39 C38 1.516 . S
C39 C40 1.502 1_455 S
C39 C41 1.561 . S
C39 C42 1.526 . S
C40 H24 0.959 . S
C40 H25 0.959 . S
C40 H26 0.961 . S
C40 C39 1.502 1_655 S
C41 H27 0.960 . S
C41 H28 0.961 . S
C41 H29 0.959 . S
C41 C39 1.561 . S
C42 C39 1.526 . S
C42 C43 1.396 1_565 S
C42 C47 1.390 . S
C43 C37 1.465 . S
C43 C42 1.396 1_545 S
C43 C44 1.399 . S
C44 H30 0.929 . S
C44 C43 1.399 . S
C44 C45 1.385 . S
C45 H31 0.931 . S
C45 C44 1.385 . S
C45 C46 1.389 1_545 S
C46 C45 1.389 1_565 S
C46 C47 1.387 . S
C47 H32 0.930 1_455 S
C47 C42 1.390 . S
C47 C46 1.387 . S
H48 C60 0.930 . S
H49 C62 0.930 1_565 S
H50 C63 0.930 1_565 S
H51 C67 0.959 . S
H52 C67 0.959 . S
H53 C67 0.961 . S
H54 C68 0.960 . S
H55 C68 0.961 . S
H56 C68 0.959 . S
H57 C71 0.929 1_565 S
H58 C72 0.931 . S
H59 C74 0.930 . S
C60 H48 0.930 . S
C60 C61 1.399 1_554 S
C60 C65 1.399 . S
C61 C60 1.399 1_556 S
C61 C62 1.376 . S
C62 H49 0.930 1_545 S
C62 C61 1.376 . S
C62 C63 1.388 . S
C63 H50 0.930 1_545 S
C63 C62 1.388 . S
C63 C64 1.390 . S
C64 C63 1.390 . S
C64 C65 1.394 1_556 S
C64 C70 1.465 . S
C65 C60 1.399 . S
C65 C64 1.394 1_554 S
C65 C66 1.516 . S
C66 C65 1.516 . S
C66 C67 1.502 . S
C66 C68 1.561 1_545 S
C66 C69 1.526 . S
C67 H51 0.959 . S
C67 H52 0.959 . S
C67 H53 0.961 . S
C67 C66 1.502 . S
C68 H54 0.960 . S
C68 H55 0.961 . S
C68 H56 0.959 . S
C68 C66 1.561 1_565 S
C69 C66 1.526 . S
C69 C70 1.396 1_554 S
C69 C74 1.390 . S
C70 C64 1.465 . S
C70 C69 1.396 1_556 S
C70 C71 1.399 . S
C71 H57 0.929 1_545 S
C71 C70 1.399 . S
C71 C72 1.385 . S
C72 H58 0.931 . S
C72 C71 1.385 . S
C72 C73 1.389 . S
C73 C72 1.389 . S
C73 C74 1.387 1_556 S
C74 H59 0.930 . S
C74 C69 1.390 . S
C74 C73 1.387 1_554 S
H75 C87 0.930 . S
H76 C89 0.930 . S
H77 C90 0.930 . S
H78 C94 0.959 . S
H79 C94 0.959 . S
H80 C94 0.961 . S
H81 C95 0.960 . S
H82 C95 0.961 . S
H83 C95 0.959 . S
H84 C98 0.929 . S
H85 C99 0.931 . S
H86 C101 0.930 . S
C87 H75 0.930 . S
C87 C88 1.399 . S
C87 C92 1.399 . S
C88 C87 1.399 . S
C88 C89 1.376 1_554 S
C89 H76 0.930 . S
C89 C88 1.376 1_556 S
C89 C90 1.388 . S
C90 H77 0.930 . S
C90 C89 1.388 . S
C90 C91 1.390 . S
C91 C90 1.390 . S
C91 C92 1.394 1_556 S
C91 C97 1.465 . S
C92 C87 1.399 . S
C92 C91 1.394 1_554 S
C92 C93 1.516 . S
C93 C92 1.516 . S
C93 C94 1.502 1_655 S
C93 C95 1.561 . S
C93 C96 1.526 . S
C94 H78 0.959 . S
C94 H79 0.959 . S
C94 H80 0.961 . S
C94 C93 1.502 1_455 S
C95 H81 0.960 . S
C95 H82 0.961 . S
C95 H83 0.959 . S
C95 C93 1.561 . S
C96 C93 1.526 . S
C96 C97 1.396 1_554 S
C96 C101 1.390 . S
C97 C91 1.465 . S
C97 C96 1.396 1_556 S
C97 C98 1.399 . S
C98 H84 0.929 . S
C98 C97 1.399 . S
C98 C99 1.385 . S
C99 H85 0.931 . S
C99 C98 1.385 . S
C99 C100 1.389 1_556 S
C100 C99 1.389 1_554 S
C100 C101 1.387 . S
C101 H86 0.930 . S
C101 C96 1.390 . S
C101 C100 1.387 . S
C34 C4 1.242 1_565 S
C46 C7 1.355 1_455 S
C61 C3 1.387 1_556 S
C73 C19 1.280 1_545 S
C88 C16 1.262 1_554 S
C100 C20 1.363 1_655 S
