# Generated by pormake.
# Topology sma, (6)-cn, num edge types: 1
# Building blocks:
#     Node 0, Type 0, BuildingBlock: VOLQOD_clean_sbu_1, # of connection points: 6
#     Node 1, Type 0, BuildingBlock: VOLQOD_clean_sbu_1, # of connection points: 6
#     Node 2, Type 0, BuildingBlock: VOLQOD_clean_sbu_1, # of connection points: 6
#     Edge 3, Type (0, 0), BuildingBlock: KIFKEQ_clean_linker_1, # of connection points: 2
#     Edge 4, Type (0, 0), BuildingBlock: KIFKEQ_clean_linker_1, # of connection points: 2
#     Edge 5, Type (0, 0), BuildingBlock: KIFKEQ_clean_linker_1, # of connection points: 2
#     Edge 6, Type (0, 0), BuildingBlock: KIFKEQ_clean_linker_1, # of connection points: 2
#     Edge 7, Type (0, 0), BuildingBlock: KIFKEQ_clean_linker_1, # of connection points: 2
#     Edge 8, Type (0, 0), BuildingBlock: KIFKEQ_clean_linker_1, # of connection points: 2
#     Edge 9, Type (0, 0), BuildingBlock: KIFKEQ_clean_linker_1, # of connection points: 2
#     Edge 10, Type (0, 0), BuildingBlock: KIFKEQ_clean_linker_1, # of connection points: 2
#     Edge 11, Type (0, 0), BuildingBlock: KIFKEQ_clean_linker_1, # of connection points: 2
# Relax obj value: 0.284
# Max RMSD: 0.234
# Mean RMSD: 0.234
data_MOF--net-sma--node1-VOLQOD_clean_sbu_1--edge1-KIFKEQ_clean_linker_1
_symmetry_space_group_name_H-M    P1
_symmetry_Int_Tables_number       1
_symmetry_cell_setting            triclinic
loop_
_symmetry_equiv_pos_as_xyz
'x, y, z'
_cell_length_a     31.283539
_cell_length_b     31.304849
_cell_length_c     17.323617
_cell_angle_alpha  90.792367
_cell_angle_beta   90.33641
_cell_angle_gamma 120.12021
loop_
_atom_site_label
_atom_site_type_symbol
_atom_site_fract_x
_atom_site_fract_y
_atom_site_fract_z
_atom_type_partial_charge
O0 O 0.02631 0.56536 0.96036 0.0
Zn1 Zn 0.01895 0.5821 0.07012 0.0
O2 O 0.00053 0.52507 0.13194 0.0
Zn3 Zn 0.05372 0.53435 0.19782 0.0
Zn4 Zn 0.98141 0.46792 0.0668 0.0
Zn5 Zn 0.94777 0.51568 0.19721 0.0
O6 O 0.03027 0.51512 0.30658 0.0
O7 O 0.9722 0.53632 0.30646 0.0
O8 O 0.07949 0.64248 0.11634 0.0
O9 O 0.10205 0.60627 0.20438 0.0
O10 O 0.089 0.50069 0.15376 0.0
O11 O 0.03783 0.45513 0.05877 0.0
O12 O 0.92218 0.40744 0.11127 0.0
O13 O 0.9625 0.59509 0.06337 0.0
O14 O 0.90027 0.44361 0.20166 0.0
O15 O 0.91163 0.54843 0.15452 0.0
C16 C -0.00062 0.52479 0.92323 0.0
C17 C 0.00135 0.52589 0.34263 0.0
C18 C 0.0782 0.47094 0.09634 0.0
C19 C 0.10829 0.64488 0.1709 0.0
C20 C 0.89421 0.40496 0.1665 0.0
C21 C 0.9221 0.57858 0.0995 0.0
O22 O 0.97269 0.48418 0.95788 0.0
O23 O 0.49831 0.05151 0.2949 0.0
Zn24 Zn 0.47304 0.04342 0.40308 0.0
O25 O 0.51134 0.02544 0.46775 0.0
Zn26 Zn 0.55454 0.07918 0.53455 0.0
Zn27 Zn 0.55022 0.0067 0.40541 0.0
Zn28 Zn 0.46743 0.97291 0.53202 0.0
O29 O 0.55178 0.05573 0.64299 0.0
O30 O 0.4725 -0.00297 0.64168 0.0
O31 O 0.4715 0.10282 0.44858 0.0
O32 O 0.52881 0.12574 0.54114 0.0
O33 O 0.62319 0.11593 0.49133 0.0
O34 O 0.61957 0.06362 0.40028 0.0
O35 O 0.55022 0.94668 0.45003 0.0
O36 O 0.40368 0.98682 0.39351 0.0
O37 O 0.49053 0.92443 0.53603 0.0
O38 O 0.39799 0.9375 0.48841 0.0
C39 C 0.5126 0.02504 0.25903 0.0
C40 C 0.51238 0.02632 0.67843 0.0
C41 C 0.64304 0.10491 0.43633 0.0
C42 C 0.49626 0.13116 0.50529 0.0
C43 C 0.52315 0.91804 0.50298 0.0
C44 C 0.37894 0.94732 0.43098 0.0
O45 O 0.52635 -0.00156 0.29492 0.0
O46 O 0.45619 0.50736 0.62728 0.0
Zn47 Zn 0.44011 0.48123 0.73519 0.0
O48 O 0.49705 0.52008 0.80056 0.0
Zn49 Zn 0.48714 0.56424 0.86506 0.0
Zn50 Zn 0.55352 0.55727 0.73678 0.0
Zn51 Zn 0.50755 0.47721 0.86497 0.0
O52 O 0.50389 0.55946 -0.02412 0.0
O53 O 0.48948 0.48214 -0.02579 0.0
O54 O 0.37907 0.4794 0.77964 0.0
O55 O 0.41527 0.54084 0.86612 0.0
O56 O 0.522 0.6333 0.82297 0.0
O57 O 0.56626 0.6264 0.72905 0.0
O58 O 0.6147 0.55933 0.78194 0.0
O59 O 0.42879 0.41233 0.72508 0.0
O60 O 0.57955 0.50144 0.87033 0.0
O61 O 0.47402 0.40802 0.82059 0.0
C62 C 0.49606 0.5188 0.59156 0.0
C63 C 0.49645 0.52077 0.01102 0.0
C64 C 0.55131 0.65159 0.76641 0.0
C65 C 0.37659 0.50697 0.83233 0.0
C66 C 0.61783 0.53393 0.83636 0.0
C67 C 0.44484 0.38847 0.76269 0.0
O68 O 0.53621 0.53029 0.62784 0.0
H69 H 0.16909 0.49819 0.15866 0.0
H70 H 0.07489 0.42375 0.96018 0.0
H71 H 0.23852 0.50058 0.09209 0.0
H72 H 0.14479 0.42721 0.8932 0.0
H73 H 0.35872 0.57014 0.91545 0.0
H74 H 0.28387 0.55202 -0.01759 0.0
H75 H 0.21021 0.4036 0.8864 0.0
H76 H 0.28589 0.422 0.81794 0.0
C77 C 0.16289 0.48147 0.10151 0.0
C78 C 0.11662 0.46163 0.06432 0.0
C79 C 0.20278 0.48319 0.0631 0.0
C80 C 0.19734 0.46529 -0.01337 0.0
C81 C 0.15015 0.44149 0.95193 0.0
C82 C 0.11011 0.43959 -0.00953 0.0
C83 C 0.32654 0.53368 0.9079 0.0
C84 C 0.32838 0.49736 0.86186 0.0
C85 C 0.28376 0.52315 0.94704 0.0
C86 C 0.24161 0.47596 0.94142 0.0
C87 C 0.24235 0.44019 0.89223 0.0
C88 C 0.28549 0.45081 0.85273 0.0
H89 H 0.68553 0.10237 0.29992 0.0
H90 H 0.70609 0.19659 0.49817 0.0
H91 H 0.7491 0.17298 0.23173 0.0
H92 H 0.77057 0.26683 0.43054 0.0
H93 H 0.81556 0.38618 0.25458 0.0
H94 H 0.7619 0.31135 0.32319 0.0
H95 H 0.83581 0.23974 0.22061 0.0
H96 H 0.88964 0.31521 0.15025 0.0
C97 C 0.70462 0.1378 0.32996 0.0
C98 C 0.68999 0.14402 0.40407 0.0
C99 C 0.74112 0.1783 0.29068 0.0
C100 C 0.76384 0.22568 0.32494 0.0
C101 C 0.75258 0.23095 0.40175 0.0
C102 C 0.71595 0.1906 0.44083 0.0
C103 C 0.8202 0.3544 0.24592 0.0
C104 C 0.85706 0.35673 0.19732 0.0
C105 C 0.78979 0.31165 0.28605 0.0
C106 C 0.79552 0.27006 0.27904 0.0
C107 C 0.83076 0.27135 0.22754 0.0
C108 C 0.86132 0.3144 0.18693 0.0
H109 H 0.45876 0.83816 0.58341 0.0
H110 H 0.60661 0.90985 0.49244 0.0
H111 H 0.47482 0.78026 0.65076 0.0
H112 H 0.623 0.85143 0.56143 0.0
H113 H 0.59872 0.69476 0.63275 0.0
H114 H 0.59716 0.76209 0.56653 0.0
H115 H 0.52535 0.78453 0.76231 0.0
H116 H 0.52574 0.7165 0.82802 0.0
C117 C 0.49473 0.84141 0.57746 0.0
C118 C 0.53157 0.87887 0.53306 0.0
C119 C 0.5041 0.8085 0.61684 0.0
C120 C 0.55062 0.81215 0.61318 0.0
C121 C 0.58689 0.84801 0.56573 0.0
C122 C 0.57743 0.88119 0.52592 0.0
C123 C 0.58357 0.71473 0.66255 0.0
C124 C 0.56142 0.69954 0.73519 0.0
C125 C 0.58279 0.75341 0.62446 0.0
C126 C 0.56002 0.77772 0.6584 0.0
C127 C 0.54194 0.76549 0.73383 0.0
C128 C 0.54253 0.72675 0.77178 0.0
H129 H 0.70845 0.6177 0.81884 0.0
H130 H 0.63678 0.47466 0.92538 0.0
H131 H 0.78555 0.63874 0.88755 0.0
H132 H 0.7131 0.49526 -0.00763 0.0
H133 H 0.83348 0.55476 0.16392 0.0
H134 H 0.76238 0.55055 0.0984 0.0
H135 H 0.8504 0.61552 0.89639 0.0
H136 H 0.92197 0.62101 0.96245 0.0
C137 C 0.70936 0.59052 0.85577 0.0
C138 C 0.66646 0.54469 0.86717 0.0
C139 C 0.75335 0.60266 0.89539 0.0
C140 C 0.75498 0.56913 0.94692 0.0
C141 C 0.71264 0.52255 0.95515 0.0
C142 C 0.66898 0.51053 0.91597 0.0
C143 C 0.83806 0.56931 0.10628 0.0
C144 C 0.88316 0.58736 0.068 0.0
C145 C 0.79722 0.56651 0.06847 0.0
C146 C 0.8005 0.58139 -0.00856 0.0
C147 C 0.84666 0.60358 0.95558 0.0
C148 C 0.88769 0.60667 -0.0064 0.0
H149 H 0.33548 0.947 0.29319 0.0
H150 H 0.31328 0.85965 0.49607 0.0
H151 H 0.26683 0.87601 0.2282 0.0
H152 H 0.2439 0.78917 0.43158 0.0
H153 H 0.18693 0.66179 0.26004 0.0
H154 H 0.2458 0.73777 0.32605 0.0
H155 H 0.17745 0.81351 0.22104 0.0
H156 H 0.11813 0.73669 0.15331 0.0
C157 C 0.31512 0.91311 0.32481 0.0
C158 C 0.33051 0.9087 0.39939 0.0
C159 C 0.27569 0.87244 0.28743 0.0
C160 C 0.25082 0.82673 0.32408 0.0
C161 C 0.26335 0.82363 0.4011 0.0
C162 C 0.30286 0.86413 0.43831 0.0
C163 C 0.18445 0.69461 0.25045 0.0
C164 C 0.14759 0.6931 0.20182 0.0
C165 C 0.21793 0.7381 0.28905 0.0
C166 C 0.21545 0.78132 0.28038 0.0
C167 C 0.18001 0.78063 0.22917 0.0
C168 C 0.14628 0.73679 0.19015 0.0
H169 H 0.46624 0.32298 0.83062 0.0
H170 H 0.40681 0.34716 0.62045 0.0
H171 H 0.47217 0.25655 0.76635 0.0
H172 H 0.41404 0.28155 0.55576 0.0
H173 H 0.41344 0.13846 0.47783 0.0
H174 H 0.39071 0.19376 0.54404 0.0
H175 H 0.53026 0.26264 0.66846 0.0
H176 H 0.55249 0.20756 0.60395 0.0
C177 C 0.45356 0.31354 0.7712 0.0
C178 C 0.43688 0.34097 0.73036 0.0
C179 C 0.45735 0.27575 0.73415 0.0
C180 C 0.4449 0.26481 0.65536 0.0
C181 C 0.4241 0.28922 0.61638 0.0
C182 C 0.41998 0.32687 0.65362 0.0
C183 C 0.4394 0.16586 0.51866 0.0
C184 C 0.4846 0.16839 0.53603 0.0
C185 C 0.42629 0.19731 0.5568 0.0
C186 C 0.45818 0.23173 0.61285 0.0
C187 C 0.50414 0.23547 0.6275 0.0
C188 C 0.51713 0.2042 0.58976 0.0
H189 H 0.9697 0.44589 0.8244 0.0
H190 H 0.02902 0.60392 0.82969 0.0
H191 H 0.97047 0.44639 0.68338 0.0
H192 H 0.02942 0.60412 0.68873 0.0
H193 H 0.96359 0.56798 0.43913 0.0
H194 H 0.96313 0.5677 0.58008 0.0
H195 H 0.03806 0.48353 0.5796 0.0
H196 H 0.03895 0.48396 0.4386 0.0
C197 C 0.98274 0.48065 0.79551 0.0
C198 C -0.00067 0.52487 0.83806 0.0
C199 C 0.98343 0.48093 0.71495 0.0
C200 C 2e-05 0.52529 0.67555 0.0
C201 C 0.01617 0.56941 0.71793 0.0
C202 C 0.01617 0.56928 0.79848 0.0
C203 C 0.97997 0.54941 0.46904 0.0
C204 C 0.00132 0.52599 0.42782 0.0
C205 C 0.97989 0.54948 0.5496 0.0
C206 C 0.00051 0.52555 0.59034 0.0
C207 C 0.02162 0.50192 0.54931 0.0
C208 C 0.02235 0.50244 0.46876 0.0
H209 H 0.56306 -0.00359 0.16306 0.0
H210 H 0.46307 0.054 0.16266 0.0
H211 H 0.56357 -0.00309 0.02191 0.0
H212 H 0.46349 0.05412 0.02181 0.0
H213 H 0.43297 0.98734 0.77361 0.0
H214 H 0.4336 0.98701 0.91446 0.0
H215 H 0.5931 0.06381 0.91681 0.0
H216 H 0.59276 0.06456 0.77572 0.0
C217 C 0.54113 0.00903 0.13289 0.0
C218 C 0.513 0.02514 0.17387 0.0
C219 C 0.54168 0.00957 0.0523 0.0
C220 C 0.51352 0.02549 0.01136 0.0
C221 C 0.48522 0.04134 0.0522 0.0
C222 C 0.48522 0.0415 0.13272 0.0
C223 C 0.4682 0.00413 0.80408 0.0
C224 C 0.51283 0.02605 0.76361 0.0
C225 C 0.4685 0.00412 0.8846 0.0
C226 C 0.51339 0.0254 0.92614 0.0
C227 C 0.55802 0.04689 0.88589 0.0
C228 C 0.55777 0.04755 0.80531 0.0
H229 H 0.42771 0.52102 0.49541 0.0
H230 H 0.56394 0.51711 0.49528 0.0
H231 H 0.42784 0.52189 0.35438 0.0
H232 H 0.56364 0.51763 0.35436 0.0
H233 H 0.50763 0.45799 0.10548 0.0
H234 H 0.50736 0.45771 0.24636 0.0
H235 H 0.48395 0.58239 0.25001 0.0
H236 H 0.48452 0.58309 0.10889 0.0
C237 C 0.45757 0.52021 0.46533 0.0
C238 C 0.49583 0.519 0.50638 0.0
C239 C 0.45774 0.521 0.38478 0.0
C240 C 0.49574 0.51982 0.34388 0.0
C241 C 0.53377 0.51824 0.38475 0.0
C242 C 0.53402 0.51819 0.46529 0.0
C243 C 0.50236 0.48532 0.13626 0.0
C244 C 0.49614 0.52061 0.09618 0.0
C245 C 0.50248 0.48528 0.21678 0.0
C246 C 0.49566 0.52003 0.25867 0.0
C247 C 0.48898 0.55504 0.2188 0.0
C248 C 0.48959 0.55557 0.13822 0.0
loop_
_geom_bond_atom_site_label_1
_geom_bond_atom_site_label_2
_geom_bond_distance
_geom_bond_site_symmetry_2
_ccdc_geom_bond_type
O0 Zn1 1.953 1_556 S
O0 C16 1.225 . S
Zn1 O0 1.953 1_554 S
Zn1 O2 1.949 . S
Zn1 O8 1.919 . S
Zn1 O13 1.924 1_455 S
O2 Zn1 1.949 . S
O2 Zn3 1.923 . S
O2 Zn4 1.950 1_455 S
O2 Zn5 1.945 1_455 S
Zn3 O2 1.923 . S
Zn3 O6 1.933 . S
Zn3 O9 1.941 . S
Zn3 O10 1.965 . S
Zn4 O2 1.950 1_655 S
Zn4 O11 1.938 1_655 S
Zn4 O12 1.906 . S
Zn4 O22 1.953 1_554 S
Zn5 O2 1.945 1_655 S
Zn5 O7 1.932 . S
Zn5 O14 1.977 . S
Zn5 O15 1.910 . S
O6 Zn3 1.933 . S
O6 C17 1.226 . S
O7 Zn5 1.932 . S
O7 C17 1.307 1_655 S
O8 Zn1 1.919 . S
O8 C19 1.253 . S
O9 Zn3 1.941 . S
O9 C19 1.283 . S
O10 Zn3 1.965 . S
O10 C18 1.303 . S
O11 Zn4 1.938 1_455 S
O11 C18 1.247 . S
O12 Zn4 1.906 . S
O12 C20 1.304 . S
O13 Zn1 1.924 1_655 S
O13 C21 1.311 . S
O14 Zn5 1.977 . S
O14 C20 1.272 . S
O15 Zn5 1.910 . S
O15 C21 1.231 . S
C16 O0 1.225 . S
C16 O22 1.298 1_455 S
C17 O6 1.226 . S
C17 O7 1.307 1_455 S
C18 O10 1.303 . S
C18 O11 1.247 . S
C19 O8 1.253 . S
C19 O9 1.283 . S
C20 O12 1.304 . S
C20 O14 1.272 . S
C21 O13 1.311 . S
C21 O15 1.231 . S
O22 Zn4 1.953 1_556 S
O22 C16 1.298 1_655 S
O23 Zn24 1.953 . S
O23 C39 1.225 . S
Zn24 O23 1.953 . S
Zn24 O25 1.949 . S
Zn24 O31 1.919 . S
Zn24 O36 1.924 1_545 S
O25 Zn24 1.949 . S
O25 Zn26 1.923 . S
O25 Zn27 1.950 . S
O25 Zn28 1.945 1_545 S
Zn26 O25 1.923 . S
Zn26 O29 1.933 . S
Zn26 O32 1.941 . S
Zn26 O33 1.965 . S
Zn27 O25 1.950 . S
Zn27 O34 1.938 . S
Zn27 O35 1.906 1_545 S
Zn27 O45 1.953 . S
Zn28 O25 1.945 1_565 S
Zn28 O30 1.932 . S
Zn28 O37 1.977 . S
Zn28 O38 1.910 . S
O29 Zn26 1.933 . S
O29 C40 1.226 . S
O30 Zn28 1.932 . S
O30 C40 1.307 1_565 S
O31 Zn24 1.919 . S
O31 C42 1.253 . S
O32 Zn26 1.941 . S
O32 C42 1.283 . S
O33 Zn26 1.965 . S
O33 C41 1.303 . S
O34 Zn27 1.938 . S
O34 C41 1.247 . S
O35 Zn27 1.906 1_565 S
O35 C43 1.304 . S
O36 Zn24 1.924 1_565 S
O36 C44 1.311 . S
O37 Zn28 1.977 . S
O37 C43 1.272 . S
O38 Zn28 1.910 . S
O38 C44 1.231 . S
C39 O23 1.225 . S
C39 O45 1.298 . S
C40 O29 1.226 . S
C40 O30 1.307 1_545 S
C41 O33 1.303 . S
C41 O34 1.247 . S
C42 O31 1.253 . S
C42 O32 1.283 . S
C43 O35 1.304 . S
C43 O37 1.272 . S
C44 O36 1.311 . S
C44 O38 1.231 . S
O45 Zn27 1.953 . S
O45 C39 1.298 . S
O46 Zn47 1.953 . S
O46 C62 1.225 . S
Zn47 O46 1.953 . S
Zn47 O48 1.949 . S
Zn47 O54 1.919 . S
Zn47 O59 1.924 . S
O48 Zn47 1.949 . S
O48 Zn49 1.923 . S
O48 Zn50 1.950 . S
O48 Zn51 1.945 . S
Zn49 O48 1.923 . S
Zn49 O52 1.933 1_556 S
Zn49 O55 1.941 . S
Zn49 O56 1.965 . S
Zn50 O48 1.950 . S
Zn50 O57 1.938 . S
Zn50 O58 1.906 . S
Zn50 O68 1.953 . S
Zn51 O48 1.945 . S
Zn51 O53 1.932 1_556 S
Zn51 O60 1.977 . S
Zn51 O61 1.910 . S
O52 Zn49 1.933 1_554 S
O52 C63 1.226 . S
O53 Zn51 1.932 1_554 S
O53 C63 1.307 . S
O54 Zn47 1.919 . S
O54 C65 1.253 . S
O55 Zn49 1.941 . S
O55 C65 1.283 . S
O56 Zn49 1.965 . S
O56 C64 1.303 . S
O57 Zn50 1.938 . S
O57 C64 1.247 . S
O58 Zn50 1.906 . S
O58 C66 1.304 . S
O59 Zn47 1.924 . S
O59 C67 1.311 . S
O60 Zn51 1.977 . S
O60 C66 1.272 . S
O61 Zn51 1.910 . S
O61 C67 1.231 . S
C62 O46 1.225 . S
C62 O68 1.298 . S
C63 O52 1.226 . S
C63 O53 1.307 . S
C64 O56 1.303 . S
C64 O57 1.247 . S
C65 O54 1.253 . S
C65 O55 1.283 . S
C66 O58 1.304 . S
C66 O60 1.272 . S
C67 O59 1.311 . S
C67 O61 1.231 . S
O68 Zn50 1.953 . S
O68 C62 1.298 . S
H69 C77 0.950 . S
H70 C82 0.950 . S
H71 C79 0.950 . S
H72 C81 0.950 . S
H73 C83 0.950 . S
H74 C85 0.950 . S
H75 C87 0.950 . S
H76 C88 0.950 . S
C77 H69 0.950 . S
C77 C78 1.386 . S
C77 C79 1.391 . S
C78 C77 1.386 . S
C78 C82 1.393 . S
C79 H71 0.950 . S
C79 C77 1.391 . S
C79 C80 1.400 . S
C80 C79 1.400 . S
C80 C81 1.398 1_554 S
C80 C86 1.491 1_554 S
C81 H72 0.950 . S
C81 C80 1.398 1_556 S
C81 C82 1.391 1_556 S
C82 H70 0.950 . S
C82 C78 1.393 . S
C82 C81 1.391 1_554 S
C83 H73 0.950 . S
C83 C84 1.386 . S
C83 C85 1.391 . S
C84 C83 1.386 . S
C84 C88 1.393 . S
C85 H74 0.950 . S
C85 C83 1.391 . S
C85 C86 1.400 . S
C86 C80 1.491 1_556 S
C86 C85 1.400 . S
C86 C87 1.398 1_556 S
C87 H75 0.950 . S
C87 C86 1.398 1_554 S
C87 C88 1.391 1_554 S
C88 H76 0.950 . S
C88 C84 1.393 . S
C88 C87 1.391 1_556 S
H89 C97 0.950 . S
H90 C102 0.950 . S
H91 C99 0.950 . S
H92 C101 0.950 . S
H93 C103 0.950 . S
H94 C105 0.950 . S
H95 C107 0.950 . S
H96 C108 0.950 . S
C97 H89 0.950 . S
C97 C98 1.386 . S
C97 C99 1.391 . S
C98 C97 1.386 . S
C98 C102 1.393 . S
C99 H91 0.950 . S
C99 C97 1.391 . S
C99 C100 1.400 . S
C100 C99 1.400 . S
C100 C101 1.398 . S
C100 C106 1.491 . S
C101 H92 0.950 . S
C101 C100 1.398 . S
C101 C102 1.391 . S
C102 H90 0.950 . S
C102 C98 1.393 . S
C102 C101 1.391 . S
C103 H93 0.950 . S
C103 C104 1.386 . S
C103 C105 1.391 . S
C104 C103 1.386 . S
C104 C108 1.393 . S
C105 H94 0.950 . S
C105 C103 1.391 . S
C105 C106 1.400 . S
C106 C100 1.491 . S
C106 C105 1.400 . S
C106 C107 1.398 . S
C107 H95 0.950 . S
C107 C106 1.398 . S
C107 C108 1.391 . S
C108 H96 0.950 . S
C108 C104 1.393 . S
C108 C107 1.391 . S
H109 C117 0.950 . S
H110 C122 0.950 . S
H111 C119 0.950 . S
H112 C121 0.950 . S
H113 C123 0.950 . S
H114 C125 0.950 . S
H115 C127 0.950 . S
H116 C128 0.950 . S
C117 H109 0.950 . S
C117 C118 1.386 . S
C117 C119 1.391 . S
C118 C117 1.386 . S
C118 C122 1.393 . S
C119 H111 0.950 . S
C119 C117 1.391 . S
C119 C120 1.400 . S
C120 C119 1.400 . S
C120 C121 1.398 . S
C120 C126 1.491 . S
C121 H112 0.950 . S
C121 C120 1.398 . S
C121 C122 1.391 . S
C122 H110 0.950 . S
C122 C118 1.393 . S
C122 C121 1.391 . S
C123 H113 0.950 . S
C123 C124 1.386 . S
C123 C125 1.391 . S
C124 C123 1.386 . S
C124 C128 1.393 . S
C125 H114 0.950 . S
C125 C123 1.391 . S
C125 C126 1.400 . S
C126 C120 1.491 . S
C126 C125 1.400 . S
C126 C127 1.398 . S
C127 H115 0.950 . S
C127 C126 1.398 . S
C127 C128 1.391 . S
C128 H116 0.950 . S
C128 C124 1.393 . S
C128 C127 1.391 . S
H129 C137 0.950 . S
H130 C142 0.950 . S
H131 C139 0.950 . S
H132 C141 0.950 . S
H133 C143 0.950 . S
H134 C145 0.950 . S
H135 C147 0.950 . S
H136 C148 0.950 . S
C137 H129 0.950 . S
C137 C138 1.386 . S
C137 C139 1.391 . S
C138 C137 1.386 . S
C138 C142 1.393 . S
C139 H131 0.950 . S
C139 C137 1.391 . S
C139 C140 1.400 . S
C140 C139 1.400 . S
C140 C141 1.398 . S
C140 C146 1.491 1_556 S
C141 H132 0.950 . S
C141 C140 1.398 . S
C141 C142 1.391 . S
C142 H130 0.950 . S
C142 C138 1.393 . S
C142 C141 1.391 . S
C143 H133 0.950 . S
C143 C144 1.386 . S
C143 C145 1.391 . S
C144 C143 1.386 . S
C144 C148 1.393 . S
C145 H134 0.950 . S
C145 C143 1.391 . S
C145 C146 1.400 . S
C146 C140 1.491 1_554 S
C146 C145 1.400 . S
C146 C147 1.398 . S
C147 H135 0.950 . S
C147 C146 1.398 . S
C147 C148 1.391 . S
C148 H136 0.950 . S
C148 C144 1.393 . S
C148 C147 1.391 . S
H149 C157 0.950 . S
H150 C162 0.950 . S
H151 C159 0.950 . S
H152 C161 0.950 . S
H153 C163 0.950 . S
H154 C165 0.950 . S
H155 C167 0.950 . S
H156 C168 0.950 . S
C157 H149 0.950 . S
C157 C158 1.386 . S
C157 C159 1.391 . S
C158 C157 1.386 . S
C158 C162 1.393 . S
C159 H151 0.950 . S
C159 C157 1.391 . S
C159 C160 1.400 . S
C160 C159 1.400 . S
C160 C161 1.398 . S
C160 C166 1.491 . S
C161 H152 0.950 . S
C161 C160 1.398 . S
C161 C162 1.391 . S
C162 H150 0.950 . S
C162 C158 1.393 . S
C162 C161 1.391 . S
C163 H153 0.950 . S
C163 C164 1.386 . S
C163 C165 1.391 . S
C164 C163 1.386 . S
C164 C168 1.393 . S
C165 H154 0.950 . S
C165 C163 1.391 . S
C165 C166 1.400 . S
C166 C160 1.491 . S
C166 C165 1.400 . S
C166 C167 1.398 . S
C167 H155 0.950 . S
C167 C166 1.398 . S
C167 C168 1.391 . S
C168 H156 0.950 . S
C168 C164 1.393 . S
C168 C167 1.391 . S
H169 C177 0.950 . S
H170 C182 0.950 . S
H171 C179 0.950 . S
H172 C181 0.950 . S
H173 C183 0.950 . S
H174 C185 0.950 . S
H175 C187 0.950 . S
H176 C188 0.950 . S
C177 H169 0.950 . S
C177 C178 1.386 . S
C177 C179 1.391 . S
C178 C177 1.386 . S
C178 C182 1.393 . S
C179 H171 0.950 . S
C179 C177 1.391 . S
C179 C180 1.400 . S
C180 C179 1.400 . S
C180 C181 1.398 . S
C180 C186 1.491 . S
C181 H172 0.950 . S
C181 C180 1.398 . S
C181 C182 1.391 . S
C182 H170 0.950 . S
C182 C178 1.393 . S
C182 C181 1.391 . S
C183 H173 0.950 . S
C183 C184 1.386 . S
C183 C185 1.391 . S
C184 C183 1.386 . S
C184 C188 1.393 . S
C185 H174 0.950 . S
C185 C183 1.391 . S
C185 C186 1.400 . S
C186 C180 1.491 . S
C186 C185 1.400 . S
C186 C187 1.398 . S
C187 H175 0.950 . S
C187 C186 1.398 . S
C187 C188 1.391 . S
C188 H176 0.950 . S
C188 C184 1.393 . S
C188 C187 1.391 . S
H189 C197 0.950 . S
H190 C202 0.950 . S
H191 C199 0.950 . S
H192 C201 0.950 . S
H193 C203 0.950 . S
H194 C205 0.950 . S
H195 C207 0.950 . S
H196 C208 0.950 . S
C197 H189 0.950 . S
C197 C198 1.386 1_655 S
C197 C199 1.391 . S
C198 C197 1.386 1_455 S
C198 C202 1.393 . S
C199 H191 0.950 . S
C199 C197 1.391 . S
C199 C200 1.400 1_655 S
C200 C199 1.400 1_455 S
C200 C201 1.398 . S
C200 C206 1.491 . S
C201 H192 0.950 . S
C201 C200 1.398 . S
C201 C202 1.391 . S
C202 H190 0.950 . S
C202 C198 1.393 . S
C202 C201 1.391 . S
C203 H193 0.950 . S
C203 C204 1.386 . S
C203 C205 1.391 . S
C204 C203 1.386 . S
C204 C208 1.393 1_455 S
C205 H194 0.950 . S
C205 C203 1.391 . S
C205 C206 1.400 . S
C206 C200 1.491 . S
C206 C205 1.400 . S
C206 C207 1.398 1_455 S
C207 H195 0.950 . S
C207 C206 1.398 1_655 S
C207 C208 1.391 . S
C208 H196 0.950 . S
C208 C204 1.393 1_655 S
C208 C207 1.391 . S
H209 C217 0.950 . S
H210 C222 0.950 . S
H211 C219 0.950 . S
H212 C221 0.950 . S
H213 C223 0.950 . S
H214 C225 0.952 . S
H215 C227 0.950 . S
H216 C228 0.950 . S
C217 H209 0.950 . S
C217 C218 1.386 . S
C217 C219 1.391 . S
C218 C217 1.386 . S
C218 C222 1.393 1_545 S
C219 H211 0.950 . S
C219 C217 1.391 . S
C219 C220 1.400 . S
C220 C219 1.400 . S
C220 C221 1.398 1_545 S
C220 C226 1.491 1_554 S
C221 H212 0.950 . S
C221 C220 1.398 1_565 S
C221 C222 1.391 . S
C222 H210 0.950 . S
C222 C218 1.393 1_565 S
C222 C221 1.391 . S
C223 H213 0.950 . S
C223 C224 1.386 1_565 S
C223 C225 1.391 . S
C224 C223 1.386 1_545 S
C224 C228 1.393 . S
C225 H214 0.952 . S
C225 C223 1.391 . S
C225 C226 1.398 1_565 S
C226 C220 1.491 1_556 S
C226 C225 1.398 1_545 S
C226 C227 1.398 . S
C227 H215 0.950 . S
C227 C226 1.398 . S
C227 C228 1.391 . S
C228 H216 0.950 . S
C228 C224 1.393 . S
C228 C227 1.391 . S
H229 C237 0.950 . S
H230 C242 0.950 . S
H231 C239 0.950 . S
H232 C241 0.950 . S
H233 C243 0.950 . S
H234 C245 0.950 . S
H235 C247 0.950 . S
H236 C248 0.950 . S
C237 H229 0.950 . S
C237 C238 1.386 . S
C237 C239 1.391 . S
C238 C237 1.386 . S
C238 C242 1.393 . S
C239 H231 0.950 . S
C239 C237 1.391 . S
C239 C240 1.400 . S
C240 C239 1.400 . S
C240 C241 1.398 . S
C240 C246 1.491 . S
C241 H232 0.950 . S
C241 C240 1.398 . S
C241 C242 1.391 . S
C242 H230 0.950 . S
C242 C238 1.393 . S
C242 C241 1.391 . S
C243 H233 0.950 . S
C243 C244 1.386 . S
C243 C245 1.391 . S
C244 C243 1.386 . S
C244 C248 1.393 . S
C245 H234 0.950 . S
C245 C243 1.391 . S
C245 C246 1.400 . S
C246 C240 1.491 . S
C246 C245 1.400 . S
C246 C247 1.398 . S
C247 H235 0.950 . S
C247 C246 1.398 . S
C247 C248 1.391 . S
C248 H236 0.950 . S
C248 C244 1.393 . S
C248 C247 1.391 . S
C78 C18 1.409 . S
C84 C65 1.380 . S
C98 C41 1.390 . S
C104 C20 1.362 . S
C118 C43 1.335 . S
C124 C64 1.366 . S
C138 C66 1.298 . S
C144 C21 1.331 . S
C158 C44 1.346 . S
C164 C19 1.328 . S
C178 C67 1.379 . S
C184 C42 1.362 . S
C198 C16 0.953 . S
C204 C17 0.951 . S
C218 C39 0.956 . S
C224 C40 0.956 . S
C238 C62 0.957 . S
C244 C63 0.956 . S
