# Generated by pormake.
# Topology ukb, (4)-cn, num edge types: 1
# Building blocks:
#     Node 0, Type 0, BuildingBlock: CEKHIL_clean_sbu_0, # of connection points: 4
#     Node 1, Type 0, BuildingBlock: CEKHIL_clean_sbu_0, # of connection points: 4
#     Node 2, Type 0, BuildingBlock: CEKHIL_clean_sbu_0, # of connection points: 4
#     Node 3, Type 0, BuildingBlock: CEKHIL_clean_sbu_0, # of connection points: 4
#     Node 4, Type 0, BuildingBlock: CEKHIL_clean_sbu_0, # of connection points: 4
#     Node 5, Type 0, BuildingBlock: CEKHIL_clean_sbu_0, # of connection points: 4
#     Node 6, Type 0, BuildingBlock: CEKHIL_clean_sbu_0, # of connection points: 4
#     Node 7, Type 0, BuildingBlock: CEKHIL_clean_sbu_0, # of connection points: 4
#     Node 8, Type 0, BuildingBlock: CEKHIL_clean_sbu_0, # of connection points: 4
#     Node 9, Type 0, BuildingBlock: CEKHIL_clean_sbu_0, # of connection points: 4
#     Node 10, Type 0, BuildingBlock: CEKHIL_clean_sbu_0, # of connection points: 4
#     Node 11, Type 0, BuildingBlock: CEKHIL_clean_sbu_0, # of connection points: 4
#     Node 12, Type 0, BuildingBlock: CEKHIL_clean_sbu_0, # of connection points: 4
#     Node 13, Type 0, BuildingBlock: CEKHIL_clean_sbu_0, # of connection points: 4
#     Node 14, Type 0, BuildingBlock: CEKHIL_clean_sbu_0, # of connection points: 4
#     Node 15, Type 0, BuildingBlock: CEKHIL_clean_sbu_0, # of connection points: 4
#     Edge 16, Type (0, 0), None
#     Edge 17, Type (0, 0), None
#     Edge 18, Type (0, 0), None
#     Edge 19, Type (0, 0), None
#     Edge 20, Type (0, 0), None
#     Edge 21, Type (0, 0), None
#     Edge 22, Type (0, 0), None
#     Edge 23, Type (0, 0), None
#     Edge 24, Type (0, 0), None
#     Edge 25, Type (0, 0), None
#     Edge 26, Type (0, 0), None
#     Edge 27, Type (0, 0), None
#     Edge 28, Type (0, 0), None
#     Edge 29, Type (0, 0), None
#     Edge 30, Type (0, 0), None
#     Edge 31, Type (0, 0), None
#     Edge 32, Type (0, 0), None
#     Edge 33, Type (0, 0), None
#     Edge 34, Type (0, 0), None
#     Edge 35, Type (0, 0), None
#     Edge 36, Type (0, 0), None
#     Edge 37, Type (0, 0), None
#     Edge 38, Type (0, 0), None
#     Edge 39, Type (0, 0), None
#     Edge 40, Type (0, 0), None
#     Edge 41, Type (0, 0), None
#     Edge 42, Type (0, 0), None
#     Edge 43, Type (0, 0), None
#     Edge 44, Type (0, 0), None
#     Edge 45, Type (0, 0), None
#     Edge 46, Type (0, 0), None
#     Edge 47, Type (0, 0), None
# Relax obj value: 0.090
# Max RMSD: 0.053
# Mean RMSD: 0.053
data_MOF--net-ukb--node1-CEKHIL_clean_sbu_0--edge1-none
_symmetry_space_group_name_H-M    P1
_symmetry_Int_Tables_number       1
_symmetry_cell_setting            triclinic
loop_
_symmetry_equiv_pos_as_xyz
'x, y, z'
_cell_length_a     19.640778
_cell_length_b     19.64078
_cell_length_c     15.593494
_cell_angle_alpha  90.00018
_cell_angle_beta   89.999818
_cell_angle_gamma 89.999746
loop_
_atom_site_label
_atom_site_type_symbol
_atom_site_fract_x
_atom_site_fract_y
_atom_site_fract_z
_atom_type_partial_charge
Co0 Co 0.50754 0.19541 0.20491 0.0
O1 O 0.45468 0.11462 0.18462 0.0
O2 O 0.44558 0.18182 0.29887 0.0
C3 C 0.49739 0.23692 0.06935 0.0
O4 O 0.55192 0.28164 0.25003 0.0
Co5 Co 0.64195 0.22389 0.10554 0.0
O6 O 0.64075 0.31224 0.16792 0.0
C7 C 0.64117 0.12819 0.25316 0.0
C8 C 0.4261 0.12774 0.25783 0.0
C9 C 0.60138 0.32179 0.23175 0.0
O10 O 0.57887 0.1427 0.26992 0.0
O11 O 0.67269 0.14988 0.18655 0.0
O12 O 0.44905 0.24635 0.12497 0.0
O13 O 0.54734 0.19965 0.09504 0.0
Co14 Co 0.31066 0.50754 0.7049 0.0
O15 O 0.39145 0.45468 0.68461 0.0
O16 O 0.32425 0.44558 0.79887 0.0
C17 C 0.26915 0.49739 0.56935 0.0
O18 O 0.22443 0.55192 0.75003 0.0
Co19 Co 0.28219 0.64195 0.60554 0.0
O20 O 0.19384 0.64075 0.66792 0.0
C21 C 0.37789 0.64117 0.75315 0.0
C22 C 0.37833 0.4261 0.75782 0.0
C23 C 0.18428 0.60138 0.73174 0.0
O24 O 0.36337 0.57887 0.76992 0.0
O25 O 0.3562 0.67269 0.68655 0.0
O26 O 0.25973 0.44905 0.62496 0.0
O27 O 0.30643 0.54733 0.59503 0.0
Co28 Co 0.99853 0.31066 0.20491 0.0
O29 O 0.05139 0.39145 0.18462 0.0
O30 O 0.06049 0.32425 0.29887 0.0
C31 C 0.00868 0.26915 0.06935 0.0
O32 O 0.95415 0.22443 0.25003 0.0
Co33 Co 0.86411 0.28219 0.10554 0.0
O34 O 0.86532 0.19383 0.16792 0.0
C35 C 0.8649 0.37788 0.25316 0.0
C36 C 0.07997 0.37833 0.25783 0.0
C37 C 0.90469 0.18428 0.23175 0.0
O38 O 0.9272 0.36337 0.26992 0.0
O39 O 0.83338 0.35619 0.18655 0.0
O40 O 0.05702 0.25973 0.12496 0.0
O41 O 0.95873 0.30643 0.09504 0.0
Co42 Co 0.19541 0.99853 0.7049 0.0
O43 O 0.11462 0.05139 0.68461 0.0
O44 O 0.18182 0.06049 0.79887 0.0
C45 C 0.23692 0.00868 0.56935 0.0
O46 O 0.28164 0.95415 0.75003 0.0
Co47 Co 0.22388 0.86411 0.60554 0.0
O48 O 0.31223 0.86532 0.66792 0.0
C49 C 0.12818 0.8649 0.75315 0.0
C50 C 0.12774 0.07997 0.75783 0.0
C51 C 0.32179 0.90469 0.73175 0.0
O52 O 0.1427 0.9272 0.76992 0.0
O53 O 0.14987 0.83338 0.68655 0.0
O54 O 0.24635 0.05702 0.62496 0.0
O55 O 0.19964 0.95873 0.59504 0.0
Co56 Co 0.50754 0.31066 0.84868 0.0
O57 O 0.45467 0.39145 0.86897 0.0
O58 O 0.44558 0.32424 0.75471 0.0
C59 C 0.49739 0.26913 0.98423 0.0
O60 O 0.55192 0.22442 0.80355 0.0
Co61 Co 0.64196 0.28219 0.94804 0.0
O62 O 0.64075 0.19384 0.88565 0.0
C63 C 0.64117 0.37788 0.80043 0.0
C64 C 0.4261 0.37832 0.79575 0.0
C65 C 0.60139 0.18428 0.82183 0.0
O66 O 0.57887 0.36336 0.78367 0.0
O67 O 0.67269 0.3562 0.86704 0.0
O68 O 0.44904 0.25972 0.92862 0.0
O69 O 0.54733 0.30642 0.95855 0.0
Co70 Co 0.19541 0.50754 0.34868 0.0
O71 O 0.11462 0.45468 0.36897 0.0
O72 O 0.18182 0.44558 0.25471 0.0
C73 C 0.23694 0.49739 0.48422 0.0
O74 O 0.28165 0.55192 0.30355 0.0
Co75 Co 0.22389 0.64196 0.44804 0.0
O76 O 0.31224 0.64075 0.38565 0.0
C77 C 0.12819 0.64117 0.30043 0.0
C78 C 0.12774 0.4261 0.29575 0.0
C79 C 0.32179 0.60138 0.32183 0.0
O80 O 0.14271 0.57887 0.28367 0.0
O81 O 0.14988 0.67269 0.36703 0.0
O82 O 0.24635 0.44904 0.42861 0.0
O83 O 0.19966 0.54733 0.45855 0.0
Co84 Co 0.99853 0.19541 0.84868 0.0
O85 O 0.05139 0.11462 0.86897 0.0
O86 O 0.06049 0.18182 0.75471 0.0
C87 C 0.00868 0.23694 0.98423 0.0
O88 O 0.95415 0.28165 0.80355 0.0
Co89 Co 0.86411 0.22389 0.94804 0.0
O90 O 0.86532 0.31223 0.88565 0.0
C91 C 0.8649 0.12819 0.80043 0.0
C92 C 0.07997 0.12775 0.79575 0.0
C93 C 0.90468 0.32179 0.82183 0.0
O94 O 0.9272 0.14271 0.78367 0.0
O95 O 0.83338 0.14987 0.86704 0.0
O96 O 0.05703 0.24635 0.92861 0.0
O97 O 0.95874 0.19966 0.95855 0.0
Co98 Co 0.31066 0.99853 0.34868 0.0
O99 O 0.39145 0.05139 0.36897 0.0
O100 O 0.32425 0.06049 0.25471 0.0
C101 C 0.26913 0.00868 0.48423 0.0
O102 O 0.22442 0.95415 0.30355 0.0
Co103 Co 0.28218 0.86411 0.44804 0.0
O104 O 0.19383 0.86532 0.38565 0.0
C105 C 0.37788 0.8649 0.30043 0.0
C106 C 0.37833 0.07997 0.29575 0.0
C107 C 0.18428 0.90469 0.32183 0.0
O108 O 0.36336 0.9272 0.28366 0.0
O109 O 0.35619 0.83338 0.36703 0.0
O110 O 0.25972 0.05703 0.42861 0.0
O111 O 0.30641 0.95874 0.45855 0.0
Co112 Co 0.49854 0.81066 0.84868 0.0
O113 O 0.55139 0.89145 0.86896 0.0
O114 O 0.56048 0.82425 0.7547 0.0
C115 C 0.50872 0.76915 0.98424 0.0
O116 O 0.45415 0.72441 0.80358 0.0
Co117 Co 0.36414 0.78218 0.94812 0.0
O118 O 0.36537 0.6938 0.88579 0.0
C119 C 0.36492 0.87792 0.80056 0.0
C120 C 0.57997 0.87833 0.79575 0.0
C121 C 0.40474 0.68424 0.82197 0.0
O122 O 0.42718 0.86335 0.78369 0.0
O123 O 0.33341 0.85623 0.86717 0.0
O124 O 0.55705 0.75973 0.92861 0.0
O125 O 0.45876 0.80642 0.95856 0.0
Co126 Co 0.69541 0.49854 0.34869 0.0
O127 O 0.61462 0.55139 0.36896 0.0
O128 O 0.68182 0.56048 0.2547 0.0
C129 C 0.73691 0.50872 0.48424 0.0
O130 O 0.78166 0.45415 0.30359 0.0
Co131 Co 0.72389 0.36414 0.44812 0.0
O132 O 0.81226 0.36537 0.38579 0.0
C133 C 0.62814 0.36492 0.30056 0.0
C134 C 0.62774 0.57997 0.29575 0.0
C135 C 0.82183 0.40474 0.32197 0.0
O136 O 0.64272 0.42718 0.2837 0.0
O137 O 0.64984 0.33341 0.36718 0.0
O138 O 0.74634 0.55705 0.42861 0.0
O139 O 0.69965 0.45876 0.45856 0.0
Co140 Co 0.00753 0.69541 0.84868 0.0
O141 O 0.95468 0.61462 0.86896 0.0
O142 O 0.94559 0.68182 0.7547 0.0
C143 C 0.99735 0.73691 0.98424 0.0
O144 O 0.05192 0.78166 0.80358 0.0
Co145 Co 0.14193 0.72389 0.94812 0.0
O146 O 0.1407 0.81227 0.88579 0.0
C147 C 0.14115 0.62815 0.80055 0.0
C148 C 0.9261 0.62774 0.79575 0.0
C149 C 0.10133 0.82183 0.82197 0.0
O150 O 0.07889 0.64272 0.78369 0.0
O151 O 0.17266 0.64984 0.86717 0.0
O152 O 0.94902 0.74634 0.92861 0.0
O153 O 0.04731 0.69965 0.95856 0.0
Co154 Co 0.81066 0.00753 0.34868 0.0
O155 O 0.89145 0.95468 0.36896 0.0
O156 O 0.82425 0.94559 0.2547 0.0
C157 C 0.76916 0.99735 0.48424 0.0
O158 O 0.72441 0.05192 0.30358 0.0
Co159 Co 0.78218 0.14193 0.44812 0.0
O160 O 0.69381 0.1407 0.38579 0.0
C161 C 0.87793 0.14115 0.30056 0.0
C162 C 0.87833 0.9261 0.29575 0.0
C163 C 0.68424 0.10133 0.32197 0.0
O164 O 0.86335 0.07889 0.28369 0.0
O165 O 0.85623 0.17266 0.36718 0.0
O166 O 0.75973 0.94902 0.42861 0.0
O167 O 0.80642 0.04731 0.45856 0.0
Co168 Co 0.49854 0.69542 0.20489 0.0
O169 O 0.55139 0.61462 0.18461 0.0
O170 O 0.56048 0.68182 0.29888 0.0
C171 C 0.50872 0.73693 0.06935 0.0
O172 O 0.45415 0.78166 0.25 0.0
Co173 Co 0.36414 0.72389 0.10546 0.0
O174 O 0.36537 0.81227 0.16779 0.0
C175 C 0.36492 0.62814 0.25302 0.0
C176 C 0.57996 0.62774 0.25783 0.0
C177 C 0.40474 0.82183 0.23161 0.0
O178 O 0.42719 0.64273 0.26988 0.0
O179 O 0.33341 0.64984 0.1864 0.0
O180 O 0.55706 0.74635 0.12497 0.0
O181 O 0.45876 0.69966 0.09502 0.0
Co182 Co 0.81065 0.49854 0.7049 0.0
O183 O 0.89145 0.55139 0.68461 0.0
O184 O 0.82425 0.56048 0.79888 0.0
C185 C 0.76913 0.50872 0.56935 0.0
O186 O 0.72441 0.45415 0.75 0.0
Co187 Co 0.78217 0.36414 0.60546 0.0
O188 O 0.6938 0.36537 0.6678 0.0
C189 C 0.87792 0.36492 0.75302 0.0
C190 C 0.87833 0.57996 0.75783 0.0
C191 C 0.68423 0.40474 0.73162 0.0
O192 O 0.86334 0.42718 0.76988 0.0
O193 O 0.85623 0.33341 0.6864 0.0
O194 O 0.75972 0.55706 0.62497 0.0
O195 O 0.80641 0.45876 0.59502 0.0
Co196 Co 0.00753 0.81065 0.20489 0.0
O197 O 0.95468 0.89145 0.18461 0.0
O198 O 0.94559 0.82425 0.29888 0.0
C199 C 0.99735 0.76914 0.06935 0.0
O200 O 0.05192 0.72441 0.25 0.0
Co201 Co 0.14193 0.78218 0.10546 0.0
O202 O 0.1407 0.6938 0.16779 0.0
C203 C 0.14115 0.87792 0.25302 0.0
C204 C 0.92611 0.87833 0.25783 0.0
C205 C 0.10133 0.68424 0.23161 0.0
O206 O 0.07889 0.86334 0.26988 0.0
O207 O 0.17266 0.85623 0.1864 0.0
O208 O 0.94902 0.75972 0.12497 0.0
O209 O 0.04731 0.80641 0.09502 0.0
Co210 Co 0.69542 0.00753 0.7049 0.0
O211 O 0.61462 0.95468 0.68461 0.0
O212 O 0.68182 0.94559 0.79888 0.0
C213 C 0.73693 0.99735 0.56935 0.0
O214 O 0.78166 0.05192 0.75 0.0
Co215 Co 0.7239 0.14193 0.60546 0.0
O216 O 0.81227 0.1407 0.66779 0.0
C217 C 0.62815 0.14115 0.75302 0.0
C218 C 0.62774 0.92611 0.75783 0.0
C219 C 0.82184 0.10133 0.73161 0.0
O220 O 0.64273 0.07889 0.76988 0.0
O221 O 0.64984 0.17266 0.68641 0.0
O222 O 0.74635 0.94902 0.62497 0.0
O223 O 0.69966 0.04731 0.59502 0.0
loop_
_geom_bond_atom_site_label_1
_geom_bond_atom_site_label_2
_geom_bond_distance
_geom_bond_site_symmetry_2
_ccdc_geom_bond_type
Co0 O1 2.216 . S
Co0 O2 2.091 . S
Co0 O4 2.004 . S
Co0 O10 2.021 . S
Co0 O12 2.137 . S
Co0 O13 2.244 . S
O1 Co0 2.216 . S
O1 C8 1.247 . S
O2 Co0 2.091 . S
O2 C8 1.261 . S
C3 O12 1.247 . S
C3 O13 1.272 . S
O4 Co0 2.004 . S
O4 C9 1.259 . S
Co5 O6 2.061 . S
Co5 O11 2.052 . S
Co5 O13 2.135 . S
O6 Co5 2.061 . S
O6 C9 1.235 . S
C7 O10 1.238 . S
C7 O11 1.241 . S
C8 O1 1.247 . S
C8 O2 1.261 . S
C9 O4 1.259 . S
C9 O6 1.235 . S
O10 Co0 2.021 . S
O10 C7 1.238 . S
O11 Co5 2.052 . S
O11 C7 1.241 . S
O12 Co0 2.137 . S
O12 C3 1.247 . S
O13 Co0 2.244 . S
O13 C3 1.272 . S
O13 Co5 2.135 . S
Co14 O15 2.216 . S
Co14 O16 2.091 . S
Co14 O18 2.004 . S
Co14 O24 2.021 . S
Co14 O26 2.137 . S
Co14 O27 2.244 . S
O15 Co14 2.216 . S
O15 C22 1.247 . S
O16 Co14 2.091 . S
O16 C22 1.261 . S
C17 O26 1.247 . S
C17 O27 1.272 . S
O18 Co14 2.004 . S
O18 C23 1.259 . S
Co19 O20 2.061 . S
Co19 O25 2.052 . S
Co19 O27 2.135 . S
O20 Co19 2.061 . S
O20 C23 1.235 . S
C21 O24 1.238 . S
C21 O25 1.241 . S
C22 O15 1.247 . S
C22 O16 1.261 . S
C23 O18 1.259 . S
C23 O20 1.235 . S
O24 Co14 2.021 . S
O24 C21 1.238 . S
O25 Co19 2.052 . S
O25 C21 1.241 . S
O26 Co14 2.137 . S
O26 C17 1.247 . S
O27 Co14 2.244 . S
O27 C17 1.272 . S
O27 Co19 2.135 . S
Co28 O29 2.208 1_655 S
Co28 O30 2.078 1_655 S
Co28 O32 2.009 . S
Co28 O38 2.033 . S
Co28 O40 2.129 1_655 S
Co28 O41 2.252 . S
O29 Co28 2.208 1_455 S
O29 C36 1.247 . S
O30 Co28 2.078 1_455 S
O30 C36 1.261 . S
C31 O40 1.247 . S
C31 O41 1.272 1_455 S
O32 Co28 2.009 . S
O32 C37 1.259 . S
Co33 O34 2.061 . S
Co33 O39 2.052 . S
Co33 O41 2.135 . S
O34 Co33 2.061 . S
O34 C37 1.235 . S
C35 O38 1.238 . S
C35 O39 1.241 . S
C36 O29 1.247 . S
C36 O30 1.261 . S
C37 O32 1.259 . S
C37 O34 1.235 . S
O38 Co28 2.033 . S
O38 C35 1.238 . S
O39 Co33 2.052 . S
O39 C35 1.241 . S
O40 Co28 2.129 1_455 S
O40 C31 1.247 . S
O41 Co28 2.252 . S
O41 C31 1.272 1_655 S
O41 Co33 2.135 . S
Co42 O43 2.208 1_565 S
Co42 O44 2.078 1_565 S
Co42 O46 2.009 . S
Co42 O52 2.033 . S
Co42 O54 2.129 1_565 S
Co42 O55 2.252 . S
O43 Co42 2.208 1_545 S
O43 C50 1.247 . S
O44 Co42 2.078 1_545 S
O44 C50 1.261 . S
C45 O54 1.247 . S
C45 O55 1.272 1_545 S
O46 Co42 2.009 . S
O46 C51 1.259 . S
Co47 O48 2.061 . S
Co47 O53 2.052 . S
Co47 O55 2.135 . S
O48 Co47 2.061 . S
O48 C51 1.235 . S
C49 O52 1.238 . S
C49 O53 1.241 . S
C50 O43 1.247 . S
C50 O44 1.261 . S
C51 O46 1.259 . S
C51 O48 1.235 . S
O52 Co42 2.033 . S
O52 C49 1.238 . S
O53 Co47 2.052 . S
O53 C49 1.241 . S
O54 Co42 2.129 1_545 S
O54 C45 1.247 . S
O55 Co42 2.252 . S
O55 C45 1.272 1_565 S
O55 Co47 2.135 . S
Co56 O57 2.216 . S
Co56 O58 2.091 . S
Co56 O60 2.004 . S
Co56 O66 2.021 . S
Co56 O68 2.137 . S
Co56 O69 2.244 . S
O57 Co56 2.216 . S
O57 C64 1.247 . S
O58 Co56 2.091 . S
O58 C64 1.261 . S
C59 O68 1.247 . S
C59 O69 1.272 . S
O60 Co56 2.004 . S
O60 C65 1.259 . S
Co61 O62 2.061 . S
Co61 O67 2.052 . S
Co61 O69 2.135 . S
O62 Co61 2.061 . S
O62 C65 1.235 . S
C63 O66 1.238 . S
C63 O67 1.241 . S
C64 O57 1.247 . S
C64 O58 1.261 . S
C65 O60 1.259 . S
C65 O62 1.235 . S
O66 Co56 2.021 . S
O66 C63 1.238 . S
O67 Co61 2.052 . S
O67 C63 1.241 . S
O68 Co56 2.137 . S
O68 C59 1.247 . S
O69 Co56 2.244 . S
O69 C59 1.272 . S
O69 Co61 2.135 . S
Co70 O71 2.216 . S
Co70 O72 2.091 . S
Co70 O74 2.004 . S
Co70 O80 2.021 . S
Co70 O82 2.137 . S
Co70 O83 2.244 . S
O71 Co70 2.216 . S
O71 C78 1.247 . S
O72 Co70 2.091 . S
O72 C78 1.261 . S
C73 O82 1.247 . S
C73 O83 1.272 . S
O74 Co70 2.004 . S
O74 C79 1.259 . S
Co75 O76 2.061 . S
Co75 O81 2.052 . S
Co75 O83 2.135 . S
O76 Co75 2.061 . S
O76 C79 1.235 . S
C77 O80 1.238 . S
C77 O81 1.241 . S
C78 O71 1.247 . S
C78 O72 1.261 . S
C79 O74 1.259 . S
C79 O76 1.235 . S
O80 Co70 2.021 . S
O80 C77 1.238 . S
O81 Co75 2.052 . S
O81 C77 1.241 . S
O82 Co70 2.137 . S
O82 C73 1.247 . S
O83 Co70 2.244 . S
O83 C73 1.272 . S
O83 Co75 2.135 . S
Co84 O85 2.208 1_655 S
Co84 O86 2.078 1_655 S
Co84 O88 2.009 . S
Co84 O94 2.033 . S
Co84 O96 2.129 1_655 S
Co84 O97 2.252 . S
O85 Co84 2.208 1_455 S
O85 C92 1.247 . S
O86 Co84 2.078 1_455 S
O86 C92 1.261 . S
C87 O96 1.247 . S
C87 O97 1.272 1_455 S
O88 Co84 2.009 . S
O88 C93 1.259 . S
Co89 O90 2.061 . S
Co89 O95 2.052 . S
Co89 O97 2.135 . S
O90 Co89 2.061 . S
O90 C93 1.235 . S
C91 O94 1.238 . S
C91 O95 1.241 . S
C92 O85 1.247 . S
C92 O86 1.261 . S
C93 O88 1.259 . S
C93 O90 1.235 . S
O94 Co84 2.033 . S
O94 C91 1.238 . S
O95 Co89 2.052 . S
O95 C91 1.241 . S
O96 Co84 2.129 1_455 S
O96 C87 1.247 . S
O97 Co84 2.252 . S
O97 C87 1.272 1_655 S
O97 Co89 2.135 . S
Co98 O99 2.208 1_565 S
Co98 O100 2.078 1_565 S
Co98 O102 2.009 . S
Co98 O108 2.033 . S
Co98 O110 2.129 1_565 S
Co98 O111 2.252 . S
O99 Co98 2.208 1_545 S
O99 C106 1.247 . S
O100 Co98 2.078 1_545 S
O100 C106 1.261 . S
C101 O110 1.247 . S
C101 O111 1.272 1_545 S
O102 Co98 2.009 . S
O102 C107 1.259 . S
Co103 O104 2.061 . S
Co103 O109 2.052 . S
Co103 O111 2.135 . S
O104 Co103 2.061 . S
O104 C107 1.235 . S
C105 O108 1.238 . S
C105 O109 1.241 . S
C106 O99 1.247 . S
C106 O100 1.261 . S
C107 O102 1.259 . S
C107 O104 1.235 . S
O108 Co98 2.033 . S
O108 C105 1.238 . S
O109 Co103 2.052 . S
O109 C105 1.241 . S
O110 Co98 2.129 1_545 S
O110 C101 1.247 . S
O111 Co98 2.252 . S
O111 C101 1.272 1_565 S
O111 Co103 2.135 . S
Co112 O113 2.216 . S
Co112 O114 2.091 . S
Co112 O116 2.004 . S
Co112 O122 2.021 . S
Co112 O124 2.137 . S
Co112 O125 2.244 . S
O113 Co112 2.216 . S
O113 C120 1.247 . S
O114 Co112 2.091 . S
O114 C120 1.261 . S
C115 O124 1.247 . S
C115 O125 1.272 . S
O116 Co112 2.004 . S
O116 C121 1.259 . S
Co117 O118 2.061 . S
Co117 O123 2.052 . S
Co117 O125 2.135 . S
O118 Co117 2.061 . S
O118 C121 1.235 . S
C119 O122 1.238 . S
C119 O123 1.241 . S
C120 O113 1.247 . S
C120 O114 1.261 . S
C121 O116 1.259 . S
C121 O118 1.235 . S
O122 Co112 2.021 . S
O122 C119 1.238 . S
O123 Co117 2.052 . S
O123 C119 1.241 . S
O124 Co112 2.137 . S
O124 C115 1.247 . S
O125 Co112 2.244 . S
O125 C115 1.272 . S
O125 Co117 2.135 . S
Co126 O127 2.216 . S
Co126 O128 2.091 . S
Co126 O130 2.004 . S
Co126 O136 2.021 . S
Co126 O138 2.137 . S
Co126 O139 2.244 . S
O127 Co126 2.216 . S
O127 C134 1.247 . S
O128 Co126 2.091 . S
O128 C134 1.261 . S
C129 O138 1.247 . S
C129 O139 1.272 . S
O130 Co126 2.004 . S
O130 C135 1.259 . S
Co131 O132 2.061 . S
Co131 O137 2.052 . S
Co131 O139 2.135 . S
O132 Co131 2.061 . S
O132 C135 1.235 . S
C133 O136 1.238 . S
C133 O137 1.241 . S
C134 O127 1.247 . S
C134 O128 1.261 . S
C135 O130 1.259 . S
C135 O132 1.235 . S
O136 Co126 2.021 . S
O136 C133 1.238 . S
O137 Co131 2.052 . S
O137 C133 1.241 . S
O138 Co126 2.137 . S
O138 C129 1.247 . S
O139 Co126 2.244 . S
O139 C129 1.272 . S
O139 Co131 2.135 . S
Co140 O141 2.208 1_455 S
Co140 O142 2.078 1_455 S
Co140 O144 2.009 . S
Co140 O150 2.033 . S
Co140 O152 2.129 1_455 S
Co140 O153 2.252 . S
O141 Co140 2.208 1_655 S
O141 C148 1.247 . S
O142 Co140 2.078 1_655 S
O142 C148 1.261 . S
C143 O152 1.247 . S
C143 O153 1.272 1_655 S
O144 Co140 2.009 . S
O144 C149 1.259 . S
Co145 O146 2.061 . S
Co145 O151 2.052 . S
Co145 O153 2.135 . S
O146 Co145 2.061 . S
O146 C149 1.235 . S
C147 O150 1.238 . S
C147 O151 1.241 . S
C148 O141 1.247 . S
C148 O142 1.261 . S
C149 O144 1.259 . S
C149 O146 1.235 . S
O150 Co140 2.033 . S
O150 C147 1.238 . S
O151 Co145 2.052 . S
O151 C147 1.241 . S
O152 Co140 2.129 1_655 S
O152 C143 1.247 . S
O153 Co140 2.252 . S
O153 C143 1.272 1_455 S
O153 Co145 2.135 . S
Co154 O155 2.208 1_545 S
Co154 O156 2.078 1_545 S
Co154 O158 2.009 . S
Co154 O164 2.033 . S
Co154 O166 2.129 1_545 S
Co154 O167 2.252 . S
O155 Co154 2.208 1_565 S
O155 C162 1.247 . S
O156 Co154 2.078 1_565 S
O156 C162 1.261 . S
C157 O166 1.247 . S
C157 O167 1.272 1_565 S
O158 Co154 2.009 . S
O158 C163 1.259 . S
Co159 O160 2.061 . S
Co159 O165 2.052 . S
Co159 O167 2.135 . S
O160 Co159 2.061 . S
O160 C163 1.235 . S
C161 O164 1.238 . S
C161 O165 1.241 . S
C162 O155 1.247 . S
C162 O156 1.261 . S
C163 O158 1.259 . S
C163 O160 1.235 . S
O164 Co154 2.033 . S
O164 C161 1.238 . S
O165 Co159 2.052 . S
O165 C161 1.241 . S
O166 Co154 2.129 1_565 S
O166 C157 1.247 . S
O167 Co154 2.252 . S
O167 C157 1.272 1_545 S
O167 Co159 2.135 . S
Co168 O169 2.216 . S
Co168 O170 2.091 . S
Co168 O172 2.004 . S
Co168 O178 2.021 . S
Co168 O180 2.137 . S
Co168 O181 2.244 . S
O169 Co168 2.216 . S
O169 C176 1.247 . S
O170 Co168 2.091 . S
O170 C176 1.261 . S
C171 O180 1.247 . S
C171 O181 1.272 . S
O172 Co168 2.004 . S
O172 C177 1.259 . S
Co173 O174 2.061 . S
Co173 O179 2.052 . S
Co173 O181 2.135 . S
O174 Co173 2.061 . S
O174 C177 1.235 . S
C175 O178 1.238 . S
C175 O179 1.241 . S
C176 O169 1.247 . S
C176 O170 1.261 . S
C177 O172 1.259 . S
C177 O174 1.235 . S
O178 Co168 2.021 . S
O178 C175 1.238 . S
O179 Co173 2.052 . S
O179 C175 1.241 . S
O180 Co168 2.137 . S
O180 C171 1.247 . S
O181 Co168 2.244 . S
O181 C171 1.272 . S
O181 Co173 2.135 . S
Co182 O183 2.216 . S
Co182 O184 2.091 . S
Co182 O186 2.004 . S
Co182 O192 2.021 . S
Co182 O194 2.137 . S
Co182 O195 2.244 . S
O183 Co182 2.216 . S
O183 C190 1.247 . S
O184 Co182 2.091 . S
O184 C190 1.261 . S
C185 O194 1.247 . S
C185 O195 1.272 . S
O186 Co182 2.004 . S
O186 C191 1.259 . S
Co187 O188 2.061 . S
Co187 O193 2.052 . S
Co187 O195 2.135 . S
O188 Co187 2.061 . S
O188 C191 1.235 . S
C189 O192 1.238 . S
C189 O193 1.241 . S
C190 O183 1.247 . S
C190 O184 1.261 . S
C191 O186 1.259 . S
C191 O188 1.235 . S
O192 Co182 2.021 . S
O192 C189 1.238 . S
O193 Co187 2.052 . S
O193 C189 1.241 . S
O194 Co182 2.137 . S
O194 C185 1.247 . S
O195 Co182 2.244 . S
O195 C185 1.272 . S
O195 Co187 2.135 . S
Co196 O197 2.208 1_455 S
Co196 O198 2.078 1_455 S
Co196 O200 2.009 . S
Co196 O206 2.033 . S
Co196 O208 2.129 1_455 S
Co196 O209 2.252 . S
O197 Co196 2.208 1_655 S
O197 C204 1.247 . S
O198 Co196 2.078 1_655 S
O198 C204 1.261 . S
C199 O208 1.247 . S
C199 O209 1.272 1_655 S
O200 Co196 2.009 . S
O200 C205 1.259 . S
Co201 O202 2.061 . S
Co201 O207 2.052 . S
Co201 O209 2.135 . S
O202 Co201 2.061 . S
O202 C205 1.235 . S
C203 O206 1.238 . S
C203 O207 1.241 . S
C204 O197 1.247 . S
C204 O198 1.261 . S
C205 O200 1.259 . S
C205 O202 1.235 . S
O206 Co196 2.033 . S
O206 C203 1.238 . S
O207 Co201 2.052 . S
O207 C203 1.241 . S
O208 Co196 2.129 1_655 S
O208 C199 1.247 . S
O209 Co196 2.252 . S
O209 C199 1.272 1_455 S
O209 Co201 2.135 . S
Co210 O211 2.208 1_545 S
Co210 O212 2.078 1_545 S
Co210 O214 2.009 . S
Co210 O220 2.033 . S
Co210 O222 2.129 1_545 S
Co210 O223 2.252 . S
O211 Co210 2.208 1_565 S
O211 C218 1.247 . S
O212 Co210 2.078 1_565 S
O212 C218 1.261 . S
C213 O222 1.247 . S
C213 O223 1.272 1_565 S
O214 Co210 2.009 . S
O214 C219 1.259 . S
Co215 O216 2.061 . S
Co215 O221 2.052 . S
Co215 O223 2.135 . S
O216 Co215 2.061 . S
O216 C219 1.235 . S
C217 O220 1.238 . S
C217 O221 1.241 . S
C218 O211 1.247 . S
C218 O212 1.261 . S
C219 O214 1.259 . S
C219 O216 1.235 . S
O220 Co210 2.033 . S
O220 C217 1.238 . S
O221 Co215 2.052 . S
O221 C217 1.241 . S
O222 Co210 2.129 1_565 S
O222 C213 1.247 . S
O223 Co210 2.252 . S
O223 C213 1.272 1_545 S
O223 Co215 2.135 . S
C8 C106 1.409 . S
C22 C64 1.408 . S
C36 C78 1.408 . S
C50 C92 1.408 . S
C120 C218 1.409 . S
C176 C134 1.408 . S
C148 C190 1.408 . S
C162 C204 1.408 . S
C9 C133 1.457 . S
C23 C147 1.457 . S
C161 C37 1.457 . S
C51 C119 1.457 . S
C65 C217 1.457 . S
C175 C79 1.457 . S
C189 C93 1.457 . S
C203 C107 1.457 . S
C21 C121 1.457 . S
C35 C135 1.457 . S
C149 C49 1.457 . S
C7 C163 1.457 . S
C177 C105 1.457 . S
C191 C63 1.457 . S
C77 C205 1.457 . S
C91 C219 1.457 . S
C3 C59 1.690 1_554 S
C73 C17 1.690 . S
C31 C87 1.690 1_554 S
C101 C45 1.690 . S
C115 C171 1.690 1_556 S
C185 C129 1.690 . S
C199 C143 1.690 1_554 S
C213 C157 1.690 . S
