# Generated by pormake.
# Topology bnn, (5)-cn, num edge types: 1
# Building blocks:
#     Node 0, Type 0, BuildingBlock: XOMCOT_clean_sbu_1, # of connection points: 5
#     Node 1, Type 0, BuildingBlock: XOMCOT_clean_sbu_1, # of connection points: 5
#     Edge 2, Type (0, 0), BuildingBlock: KIFKEQ_clean_linker_1, # of connection points: 2
#     Edge 3, Type (0, 0), BuildingBlock: KIFKEQ_clean_linker_1, # of connection points: 2
#     Edge 4, Type (0, 0), BuildingBlock: KIFKEQ_clean_linker_1, # of connection points: 2
#     Edge 5, Type (0, 0), BuildingBlock: KIFKEQ_clean_linker_1, # of connection points: 2
#     Edge 6, Type (0, 0), BuildingBlock: KIFKEQ_clean_linker_1, # of connection points: 2
# Relax obj value: 0.039
# Max RMSD: 0.098
# Mean RMSD: 0.098
data_MOF--net-bnn--node1-XOMCOT_clean_sbu_1--edge1-KIFKEQ_clean_linker_1
_symmetry_space_group_name_H-M    P1
_symmetry_Int_Tables_number       1
_symmetry_cell_setting            triclinic
loop_
_symmetry_equiv_pos_as_xyz
'x, y, z'
_cell_length_a     30.252407
_cell_length_b     27.667969
_cell_length_c     17.797415
_cell_angle_alpha  97.144185
_cell_angle_beta   90.103187
_cell_angle_gamma 123.27514
loop_
_atom_site_label
_atom_site_type_symbol
_atom_site_fract_x
_atom_site_fract_y
_atom_site_fract_z
_atom_type_partial_charge
C0 C 0.31383 0.61908 0.95648 0.0
C1 C 0.31353 0.61331 0.87857 0.0
N2 N 0.3292 0.66514 0.85722 0.0
N3 N 0.33013 0.67443 0.98429 0.0
C4 C 0.33873 0.70136 0.92245 0.0
H5 H 0.30278 0.58505 0.99078 0.0
Co6 Co 0.33736 0.70314 0.08682 0.0
C7 C 0.427 0.82743 0.10212 0.0
O8 O 0.44682 0.81878 0.16088 0.0
N9 N 0.34316 0.73202 0.19134 0.0
C10 C 0.33972 0.78427 0.29445 0.0
C11 C 0.33779 0.77657 0.21646 0.0
C12 C 0.34713 0.71261 0.25567 0.0
N13 N 0.34538 0.74378 0.31903 0.0
O14 O 0.27414 0.70244 0.07186 0.0
H15 H 0.33158 0.8012 0.18005 0.0
H16 H 0.35037 0.67585 0.25699 0.0
O17 O 0.38357 0.78477 0.06569 0.0
C18 C 0.23768 0.65337 0.09012 0.0
O19 O 0.25187 0.62094 0.11604 0.0
N20 N 0.39375 0.69378 0.09999 0.0
C21 C 0.45127 0.64142 0.09199 0.0
C22 C 0.47038 0.6941 0.06301 0.0
C23 C 0.44035 0.71893 0.06599 0.0
C24 C 0.37501 0.64287 0.12803 0.0
C25 C 0.40316 0.6166 0.12576 0.0
H26 H 0.45276 0.75551 0.03615 0.0
H27 H 0.33538 0.61938 0.14632 0.0
H28 H 0.35221 0.74677 0.92511 0.0
H29 H 0.30179 0.57373 0.84054 0.0
H30 H 0.33518 0.81571 0.33004 0.0
H31 H 0.50685 0.71451 0.03507 0.0
H32 H 0.38492 0.57461 0.14524 0.0
C33 C 0.71784 0.4464 0.10754 0.0
C34 C 0.72293 0.45283 0.18562 0.0
N35 N 0.68956 0.40013 0.20712 0.0
N36 N 0.68187 0.38982 0.07983 0.0
C37 C 0.66492 0.36277 0.14184 0.0
H38 H 0.73903 0.48074 0.07301 0.0
Co39 Co 0.66206 0.35971 0.9773 0.0
C40 C 0.63345 0.23759 0.96609 0.0
O41 O 0.66349 0.24715 0.90918 0.0
N42 N 0.64053 0.32905 0.87238 0.0
C43 C 0.58668 0.27373 0.76825 0.0
C44 C 0.59192 0.2816 0.84632 0.0
C45 C 0.66358 0.34985 0.80841 0.0
N46 N 0.63176 0.31695 0.74447 0.0
O47 O 0.59691 0.35435 0.99014 0.0
H48 H 0.56137 0.25521 0.8821 0.0
H49 H 0.70235 0.38902 0.80772 0.0
O50 O 0.63023 0.2791 0.99999 0.0
C51 C 0.59877 0.39573 0.96241 0.0
O52 O 0.63923 0.42878 0.92423 0.0
N53 N 0.72989 0.37423 0.96713 0.0
C54 C 0.84055 0.43233 0.9794 0.0
C55 C 0.80841 0.38033 1.01036 0.0
C56 C 0.75306 0.35243 1.00481 0.0
C57 C 0.76071 0.42482 0.93768 0.0
C58 C 0.81561 0.45348 0.94106 0.0
H59 H 0.7297 0.31643 0.03597 0.0
H60 H 0.74291 0.44591 0.91681 0.0
H61 H 0.63553 0.31645 0.1393 0.0
H62 H 0.74862 0.49335 0.22362 0.0
H63 H 0.55152 0.24032 0.73204 0.0
H64 H 0.82593 0.3635 0.04301 0.0
H65 H 0.83839 0.49356 0.91682 0.0
H66 H 0.45646 0.57235 0.18559 0.0
H67 H 0.5034 0.63343 0.96937 0.0
H68 H 0.48286 0.50431 0.15515 0.0
H69 H 0.53473 0.56967 0.94222 0.0
H70 H 0.54161 0.41533 0.86922 0.0
H71 H 0.50455 0.47322 0.90396 0.0
H72 H 0.54977 0.48856 0.14097 0.0
H73 H 0.58313 0.42691 0.10541 0.0
C74 C 0.47304 0.5719 0.13184 0.0
C75 C 0.47682 0.60802 0.07949 0.0
C76 C 0.48887 0.53313 0.11471 0.0
C77 C 0.51015 0.53021 0.04539 0.0
C78 C 0.51689 0.5689 0.99509 0.0
C79 C 0.50004 0.60682 1.01154 0.0
C80 C 0.54158 0.42933 0.92886 0.0
C81 C 0.56416 0.41594 0.98478 0.0
C82 C 0.5215 0.46369 0.94891 0.0
C83 C 0.52529 0.48728 0.02533 0.0
C84 C 0.54558 0.4711 0.08161 0.0
C85 C 0.56444 0.43537 0.06148 0.0
H86 H 0.90902 0.55178 1.01021 0.0
H87 H 0.90616 0.39259 0.97941 0.0
H88 H 1.00522 0.60914 0.03456 0.0
H89 H 1.00246 0.45027 1.00551 0.0
H90 H 0.15851 0.56257 0.15047 0.0
H91 H 0.06377 0.51154 0.12058 0.0
H92 H 0.09024 0.63575 0.97248 0.0
H93 H 0.18666 0.68767 1.00258 0.0
C94 C 0.92885 0.52891 1.0074 0.0
C95 C 0.89959 0.46729 0.99247 0.0
C96 C 0.98408 0.56199 0.02159 0.0
C97 C 1.0114 0.53431 0.02218 0.0
C98 C 0.98239 0.47285 1.0064 0.0
C99 C 0.92718 0.43975 0.99166 0.0
C100 C 0.14445 0.5795 0.11173 0.0
C101 C 0.18027 0.62897 0.07827 0.0
C102 C 0.08999 0.54984 0.09425 0.0
C103 C 0.06955 0.56882 0.043 0.0
C104 C 0.10498 0.62 1.01204 0.0
C105 C 0.16005 0.64983 0.02941 0.0
H106 H 0.38763 0.87688 0.02186 0.0
H107 H 0.532 0.91242 0.1317 0.0
H108 H 0.4364 0.97709 0.99095 0.0
H109 H 0.58042 1.01127 0.09951 0.0
H110 H 0.65465 0.15352 0.94021 0.0
H111 H 0.60332 0.05435 0.9715 0.0
H112 H 0.49023 0.08639 0.07128 0.0
H113 H 0.54245 0.18678 0.04131 0.0
C114 C 0.42972 0.90583 0.03884 0.0
C115 C 0.45592 0.88667 0.07922 0.0
C116 C 0.45749 0.96323 0.02169 0.0
C117 C 0.51221 1.00202 0.04299 0.0
C118 C 0.53837 0.98239 0.08218 0.0
C119 C 0.51053 0.92573 0.1007 0.0
C120 C 0.61898 0.13966 0.96912 0.0
C121 C 0.60277 0.17819 0.9885 0.0
C122 C 0.58961 0.08282 0.98707 0.0
C123 C 0.54265 0.0625 0.02353 0.0
C124 C 0.52607 0.10075 0.04262 0.0
C125 C 0.55617 0.15829 0.02606 0.0
H126 H 0.316 0.74423 0.80323 0.0
H127 H 0.35386 0.61634 0.73742 0.0
H128 H 0.3215 0.7642 0.67271 0.0
H129 H 0.36037 0.63685 0.60732 0.0
H130 H 0.30831 0.64001 0.36783 0.0
H131 H 0.30593 0.62223 0.49878 0.0
H132 H 0.38128 0.80687 0.57735 0.0
H133 H 0.3827 0.82425 0.44607 0.0
C134 C 0.32615 0.72091 0.76107 0.0
C135 C 0.33422 0.67849 0.78065 0.0
C136 C 0.32942 0.7324 0.68618 0.0
C137 C 0.34122 0.70201 0.62915 0.0
C138 C 0.35013 0.66026 0.64923 0.0
C139 C 0.34649 0.64853 0.72392 0.0
C140 C 0.3249 0.67687 0.41299 0.0
C141 C 0.34573 0.73356 0.3965 0.0
C142 C 0.32358 0.66673 0.48823 0.0
C143 C 0.34342 0.7131 0.54893 0.0
C144 C 0.3648 0.76993 0.53226 0.0
C145 C 0.36577 0.77998 0.45699 0.0
H146 H 0.76249 0.4549 0.32846 0.0
H147 H 0.59962 0.31509 0.25985 0.0
H148 H 0.74986 0.43363 0.45834 0.0
H149 H 0.5864 0.29432 0.39009 0.0
H150 H 0.59333 0.23709 0.61669 0.0
H151 H 0.60832 0.256 0.48583 0.0
H152 H 0.707 0.44168 0.56635 0.0
H153 H 0.69267 0.42245 0.69685 0.0
C154 C 0.72381 0.41993 0.3413 0.0
C155 C 0.68203 0.38681 0.28379 0.0
C156 C 0.71648 0.40773 0.41588 0.0
C157 C 0.66702 0.36234 0.43512 0.0
C158 C 0.62529 0.32898 0.37735 0.0
C159 C 0.63278 0.34094 0.30259 0.0
C160 C 0.61815 0.2819 0.60629 0.0
C161 C 0.64189 0.32821 0.66724 0.0
C162 C 0.62665 0.29283 0.53123 0.0
C163 C 0.65884 0.35043 0.51517 0.0
C164 C 0.68276 0.3967 0.57635 0.0
C165 C 0.67454 0.38571 0.65137 0.0
loop_
_geom_bond_atom_site_label_1
_geom_bond_atom_site_label_2
_geom_bond_distance
_geom_bond_site_symmetry_2
_ccdc_geom_bond_type
C0 C1 1.351 . S
C0 N3 1.368 . S
C0 H5 0.931 . S
C1 C0 1.351 . S
C1 N2 1.373 . S
C1 H29 0.930 . S
N2 C1 1.373 . S
N2 C4 1.340 . S
N3 C0 1.368 . S
N3 C4 1.321 . S
N3 Co6 2.135 1_556 S
C4 N2 1.340 . S
C4 N3 1.321 . S
C4 H28 0.930 . S
H5 C0 0.931 . S
Co6 N3 2.135 1_554 S
Co6 N9 2.121 . S
Co6 O14 2.055 . S
Co6 O17 2.039 . S
Co6 N20 2.140 . S
C7 O8 1.227 1_554 S
C7 O17 1.265 . S
O8 C7 1.227 1_556 S
N9 Co6 2.121 . S
N9 C11 1.375 . S
N9 C12 1.313 . S
C10 C11 1.338 . S
C10 N13 1.377 . S
C10 H30 0.930 . S
C11 N9 1.375 . S
C11 C10 1.338 . S
C11 H15 0.931 . S
C12 N9 1.313 . S
C12 N13 1.344 . S
C12 H16 0.930 . S
N13 C10 1.377 . S
N13 C12 1.344 . S
O14 Co6 2.055 . S
O14 C18 1.253 . S
H15 C11 0.931 . S
H16 C12 0.930 . S
O17 Co6 2.039 . S
O17 C7 1.265 . S
C18 O14 1.253 . S
C18 O19 1.227 . S
O19 C18 1.227 . S
N20 Co6 2.140 . S
N20 C23 1.346 1_554 S
N20 C24 1.345 . S
C21 C22 1.387 . S
C21 C25 1.391 1_556 S
C22 C21 1.387 . S
C22 C23 1.369 . S
C22 H31 0.929 . S
C23 N20 1.346 1_556 S
C23 C22 1.369 . S
C23 H26 0.928 . S
C24 N20 1.345 . S
C24 C25 1.371 . S
C24 H27 0.931 . S
C25 C21 1.391 1_554 S
C25 C24 1.371 . S
C25 H32 0.930 . S
H26 C23 0.928 . S
H27 C24 0.931 . S
H28 C4 0.930 . S
H29 C1 0.930 . S
H30 C10 0.930 . S
H31 C22 0.929 . S
H32 C25 0.930 . S
C33 C34 1.351 . S
C33 N36 1.368 . S
C33 H38 0.931 . S
C34 C33 1.351 . S
C34 N35 1.373 . S
C34 H62 0.930 . S
N35 C34 1.373 . S
N35 C37 1.340 . S
N36 C33 1.368 . S
N36 C37 1.321 . S
N36 Co39 2.135 . S
C37 N35 1.340 . S
C37 N36 1.321 . S
C37 H61 0.930 . S
H38 C33 0.931 . S
Co39 N36 2.135 . S
Co39 N42 2.121 1_554 S
Co39 O47 2.055 . S
Co39 O50 2.039 . S
Co39 N53 2.140 . S
C40 O41 1.227 . S
C40 O50 1.265 . S
O41 C40 1.227 . S
N42 Co39 2.121 1_556 S
N42 C44 1.375 . S
N42 C45 1.313 . S
C43 C44 1.338 . S
C43 N46 1.377 . S
C43 H63 0.930 . S
C44 N42 1.375 . S
C44 C43 1.338 . S
C44 H48 0.931 . S
C45 N42 1.313 . S
C45 N46 1.344 . S
C45 H49 0.930 . S
N46 C43 1.377 . S
N46 C45 1.344 . S
O47 Co39 2.055 . S
O47 C51 1.253 . S
H48 C44 0.931 . S
H49 C45 0.930 . S
O50 Co39 2.039 . S
O50 C40 1.265 . S
C51 O47 1.253 . S
C51 O52 1.227 1_554 S
O52 C51 1.227 1_556 S
N53 Co39 2.140 . S
N53 C56 1.346 . S
N53 C57 1.345 1_554 S
C54 C55 1.387 . S
C54 C58 1.391 1_554 S
C55 C54 1.387 . S
C55 C56 1.369 . S
C55 H64 0.929 . S
C56 N53 1.346 . S
C56 C55 1.369 . S
C56 H59 0.928 . S
C57 N53 1.345 1_556 S
C57 C58 1.371 . S
C57 H60 0.931 . S
C58 C54 1.391 1_556 S
C58 C57 1.371 . S
C58 H65 0.930 . S
H59 C56 0.928 . S
H60 C57 0.931 . S
H61 C37 0.930 . S
H62 C34 0.930 . S
H63 C43 0.930 . S
H64 C55 0.929 . S
H65 C58 0.930 . S
H66 C74 0.950 . S
H67 C79 0.950 . S
H68 C76 0.950 . S
H69 C78 0.950 . S
H70 C80 0.950 . S
H71 C82 0.950 . S
H72 C84 0.950 . S
H73 C85 0.950 . S
C74 H66 0.950 . S
C74 C75 1.386 1_554 S
C74 C76 1.391 . S
C75 C74 1.386 1_556 S
C75 C79 1.393 . S
C76 H68 0.950 . S
C76 C74 1.391 . S
C76 C77 1.400 1_554 S
C77 C76 1.400 1_556 S
C77 C78 1.398 . S
C77 C83 1.491 . S
C78 H69 0.950 . S
C78 C77 1.398 . S
C78 C79 1.391 . S
C79 H67 0.950 . S
C79 C75 1.393 . S
C79 C78 1.391 . S
C80 H70 0.950 . S
C80 C81 1.386 . S
C80 C82 1.391 . S
C81 C80 1.386 . S
C81 C85 1.393 1_556 S
C82 H71 0.950 . S
C82 C80 1.391 . S
C82 C83 1.400 . S
C83 C77 1.491 . S
C83 C82 1.400 . S
C83 C84 1.398 1_556 S
C84 H72 0.950 . S
C84 C83 1.398 1_554 S
C84 C85 1.391 . S
C85 H73 0.950 . S
C85 C81 1.393 1_554 S
C85 C84 1.391 . S
H86 C94 0.950 1_556 S
H87 C99 0.950 . S
H88 C96 0.950 1_556 S
H89 C98 0.950 . S
H90 C100 0.950 . S
H91 C102 0.950 . S
H92 C104 0.950 . S
H93 C105 0.950 . S
C94 H86 0.950 1_554 S
C94 C95 1.386 . S
C94 C96 1.391 . S
C95 C94 1.386 . S
C95 C99 1.393 . S
C96 H88 0.950 1_554 S
C96 C94 1.391 . S
C96 C97 1.400 . S
C97 C96 1.400 . S
C97 C98 1.398 . S
C97 C103 1.491 1_655 S
C98 H89 0.950 . S
C98 C97 1.398 . S
C98 C99 1.391 . S
C99 H87 0.950 . S
C99 C95 1.393 . S
C99 C98 1.391 . S
C100 H90 0.950 . S
C100 C101 1.386 . S
C100 C102 1.391 . S
C101 C100 1.386 . S
C101 C105 1.393 1_554 S
C102 H91 0.950 . S
C102 C100 1.391 . S
C102 C103 1.400 . S
C103 C97 1.491 1_455 S
C103 C102 1.400 . S
C103 C104 1.398 1_554 S
C104 H92 0.950 . S
C104 C103 1.398 1_556 S
C104 C105 1.391 . S
C105 H93 0.950 . S
C105 C101 1.393 1_556 S
C105 C104 1.391 . S
H106 C114 0.950 . S
H107 C119 0.950 . S
H108 C116 0.950 . S
H109 C118 0.950 . S
H110 C120 0.948 1_556 S
H111 C122 0.950 . S
H112 C124 0.950 . S
H113 C125 0.950 . S
C114 H106 0.950 . S
C114 C115 1.386 . S
C114 C116 1.391 . S
C115 C114 1.386 . S
C115 C119 1.393 . S
C116 H108 0.950 . S
C116 C114 1.391 . S
C116 C117 1.400 . S
C117 C116 1.400 . S
C117 C118 1.398 . S
C117 C123 1.491 1_565 S
C118 H109 0.950 . S
C118 C117 1.398 . S
C118 C119 1.391 . S
C119 H107 0.950 . S
C119 C115 1.393 . S
C119 C118 1.391 . S
C120 H110 0.948 1_554 S
C120 C121 1.386 . S
C120 C122 1.391 . S
C121 C120 1.386 . S
C121 C125 1.393 . S
C122 H111 0.950 . S
C122 C120 1.391 . S
C122 C123 1.400 . S
C123 C117 1.491 1_545 S
C123 C122 1.400 . S
C123 C124 1.398 . S
C124 H112 0.950 . S
C124 C123 1.398 . S
C124 C125 1.391 . S
C125 H113 0.950 . S
C125 C121 1.393 . S
C125 C124 1.391 . S
H126 C134 0.950 . S
H127 C139 0.950 . S
H128 C136 0.950 . S
H129 C138 0.950 . S
H130 C140 0.950 . S
H131 C142 0.950 . S
H132 C144 0.950 . S
H133 C145 0.950 . S
C134 H126 0.950 . S
C134 C135 1.386 . S
C134 C136 1.391 . S
C135 C134 1.386 . S
C135 C139 1.393 . S
C136 H128 0.950 . S
C136 C134 1.391 . S
C136 C137 1.400 . S
C137 C136 1.400 . S
C137 C138 1.398 . S
C137 C143 1.491 . S
C138 H129 0.950 . S
C138 C137 1.398 . S
C138 C139 1.391 . S
C139 H127 0.950 . S
C139 C135 1.393 . S
C139 C138 1.391 . S
C140 H130 0.950 . S
C140 C141 1.386 . S
C140 C142 1.391 . S
C141 C140 1.386 . S
C141 C145 1.393 . S
C142 H131 0.950 . S
C142 C140 1.391 . S
C142 C143 1.400 . S
C143 C137 1.491 . S
C143 C142 1.400 . S
C143 C144 1.398 . S
C144 H132 0.950 . S
C144 C143 1.398 . S
C144 C145 1.391 . S
C145 H133 0.950 . S
C145 C141 1.393 . S
C145 C144 1.391 . S
H146 C154 0.950 . S
H147 C159 0.950 . S
H148 C156 0.950 . S
H149 C158 0.950 . S
H150 C160 0.950 . S
H151 C162 0.950 . S
H152 C164 0.950 . S
H153 C165 0.950 . S
C154 H146 0.950 . S
C154 C155 1.386 . S
C154 C156 1.391 . S
C155 C154 1.386 . S
C155 C159 1.393 . S
C156 H148 0.950 . S
C156 C154 1.391 . S
C156 C157 1.400 . S
C157 C156 1.400 . S
C157 C158 1.398 . S
C157 C163 1.491 . S
C158 H149 0.950 . S
C158 C157 1.398 . S
C158 C159 1.391 . S
C159 H147 0.950 . S
C159 C155 1.393 . S
C159 C158 1.391 . S
C160 H150 0.950 . S
C160 C161 1.386 . S
C160 C162 1.391 . S
C161 C160 1.386 . S
C161 C165 1.393 . S
C162 H151 0.950 . S
C162 C160 1.391 . S
C162 C163 1.400 . S
C163 C157 1.491 . S
C163 C162 1.400 . S
C163 C164 1.398 . S
C164 H152 0.950 . S
C164 C163 1.398 . S
C164 C165 1.391 . S
C165 H153 0.950 . S
C165 C161 1.393 . S
C165 C164 1.391 . S
C75 C21 1.504 . S
C81 C51 1.506 1_556 S
C95 C54 1.507 . S
C101 C18 1.507 . S
C115 C7 1.499 . S
C121 C40 1.500 . S
C135 N2 1.460 . S
C141 N13 1.463 . S
C155 N35 1.457 . S
C161 N46 1.460 . S
