# Generated by pormake.
# Topology lon, (4)-cn, num edge types: 1
# Building blocks:
#     Node 0, Type 0, BuildingBlock: GALJAG_clean_sbu_0, # of connection points: 4
#     Node 1, Type 0, BuildingBlock: GALJAG_clean_sbu_0, # of connection points: 4
#     Node 2, Type 0, BuildingBlock: GALJAG_clean_sbu_0, # of connection points: 4
#     Node 3, Type 0, BuildingBlock: GALJAG_clean_sbu_0, # of connection points: 4
#     Edge 4, Type (0, 0), BuildingBlock: AJUNOK_clean_linker_0, # of connection points: 2
#     Edge 5, Type (0, 0), BuildingBlock: AJUNOK_clean_linker_0, # of connection points: 2
#     Edge 6, Type (0, 0), BuildingBlock: AJUNOK_clean_linker_0, # of connection points: 2
#     Edge 7, Type (0, 0), BuildingBlock: AJUNOK_clean_linker_0, # of connection points: 2
#     Edge 8, Type (0, 0), BuildingBlock: AJUNOK_clean_linker_0, # of connection points: 2
#     Edge 9, Type (0, 0), BuildingBlock: AJUNOK_clean_linker_0, # of connection points: 2
#     Edge 10, Type (0, 0), BuildingBlock: AJUNOK_clean_linker_0, # of connection points: 2
#     Edge 11, Type (0, 0), BuildingBlock: AJUNOK_clean_linker_0, # of connection points: 2
# Relax obj value: 0.209
# Max RMSD: 0.226
# Mean RMSD: 0.214
data_MOF--net-lon--node1-GALJAG_clean_sbu_0--edge1-AJUNOK_clean_linker_0
_symmetry_space_group_name_H-M    P1
_symmetry_Int_Tables_number       1
_symmetry_cell_setting            triclinic
loop_
_symmetry_equiv_pos_as_xyz
'x, y, z'
_cell_length_a     17.079791
_cell_length_b     18.808452
_cell_length_c     29.796619
_cell_angle_alpha  96.536375
_cell_angle_beta   89.19549
_cell_angle_gamma 116.74937
loop_
_atom_site_label
_atom_site_type_symbol
_atom_site_fract_x
_atom_site_fract_y
_atom_site_fract_z
_atom_type_partial_charge
In0 In 0.35668 0.70039 0.06395 0.0
O1 O 0.25254 0.61532 0.01035 0.0
O2 O 0.20941 0.64738 0.07305 0.0
C3 C 0.42498 0.84602 0.03308 0.0
C4 C 0.36795 0.71743 0.15528 0.0
C5 C 0.43712 0.61056 0.0337 0.0
O6 O 0.35205 0.78924 0.01893 0.0
O7 O 0.463 0.82988 0.06341 0.0
O8 O 0.46131 0.68069 0.02378 0.0
O9 O 0.37242 0.58607 0.05879 0.0
C10 C 0.18844 0.60709 0.03451 0.0
O11 O 0.4171 0.69722 0.13083 0.0
O12 O 0.31474 0.73179 0.13363 0.0
In13 In 0.65225 0.33284 0.56372 0.0
O14 O 0.52925 0.21519 0.54642 0.0
O15 O 0.6523 0.21492 0.5359 0.0
C16 C 0.57073 0.41222 0.53188 0.0
C17 C 0.64817 0.31832 0.65306 0.0
C18 C 0.81487 0.41975 0.53481 0.0
O19 O 0.57334 0.35224 0.50963 0.0
O20 O 0.60971 0.43249 0.57029 0.0
O21 O 0.78955 0.43781 0.57243 0.0
O22 O 0.75809 0.35761 0.51187 0.0
C23 C 0.5698 0.17512 0.53368 0.0
O24 O 0.70711 0.31425 0.62852 0.0
O25 O 0.59248 0.33111 0.63262 0.0
In26 In 0.32613 0.67756 0.43745 0.0
O27 O 0.31926 0.79405 0.46021 0.0
O28 O 0.44441 0.79597 0.4618 0.0
C29 C 0.164 0.59802 0.4687 0.0
C30 C 0.34321 0.69281 0.34821 0.0
C31 C 0.39995 0.58982 0.46653 0.0
O32 O 0.22647 0.65448 0.49219 0.0
O33 O 0.18336 0.5812 0.42919 0.0
O34 O 0.35378 0.56909 0.4303 0.0
O35 O 0.40855 0.65478 0.48816 0.0
C36 C 0.40052 0.83473 0.46899 0.0
O37 O 0.39956 0.68692 0.37228 0.0
O38 O 0.27727 0.68994 0.36907 0.0
In39 In 0.66338 0.30469 0.93673 0.0
O40 O 0.70718 0.28289 0.86548 0.0
O41 O 0.5956 0.30429 0.87174 0.0
C42 C 0.82948 0.39232 0.97036 0.0
C43 C 0.59558 0.40414 0.96868 0.0
C44 C 0.58751 0.1552 0.96305 0.0
O45 O 0.81186 0.35818 0.93019 0.0
O46 O 0.7633 0.38015 0.99359 0.0
O47 O 0.54828 0.17988 0.93823 0.0
O48 O 0.66559 0.20537 0.97399 0.0
C49 C 0.64771 0.29154 0.84565 0.0
O50 O 0.56925 0.33499 0.98064 0.0
O51 O 0.65581 0.42254 0.94084 0.0
C52 C 0.29856 0.72293 0.22915 0.0
C53 C 0.36716 0.71706 0.20495 0.0
C54 C 0.29171 0.71551 0.2755 0.0
C55 C 0.35346 0.70242 0.2995 0.0
H56 H 0.24848 0.73149 0.21202 0.0
H57 H 0.23705 0.71941 0.2925 0.0
S58 S 0.54816 0.68652 0.25233 0.0
N59 N 0.49992 0.70016 0.20878 0.0
N60 N 0.48737 0.6867 0.29585 0.0
C61 C 0.42365 0.69841 0.27594 0.0
C62 C 0.43042 0.70562 0.2287 0.0
C63 C 0.71136 0.29832 0.72305 0.0
C64 C 0.64466 0.30857 0.7018 0.0
C65 C 0.71067 0.29069 0.76934 0.0
C66 C 0.64324 0.29302 0.79616 0.0
H67 H 0.76524 0.29709 0.70393 0.0
H68 H 0.76432 0.28443 0.78433 0.0
S69 S 0.45052 0.31431 0.75644 0.0
N70 N 0.50741 0.31747 0.71084 0.0
N71 N 0.50603 0.30313 0.79766 0.0
C72 C 0.57506 0.30142 0.77513 0.0
C73 C 0.5758 0.30923 0.72803 0.0
C74 C 0.44816 0.48216 0.02932 0.0
C75 C 0.48011 0.56025 0.01716 0.0
C76 C 0.48637 0.43241 0.01377 0.0
C77 C 0.55795 0.45877 0.9854 0.0
H78 H 0.39279 0.45889 0.0509 0.0
H79 H 0.45906 0.37261 0.02385 0.0
S80 S 0.66792 0.65893 0.94454 0.0
N81 N 0.58869 0.66225 0.97569 0.0
N82 N 0.66057 0.56876 0.94639 0.0
C83 C 0.59117 0.53702 0.97328 0.0
C84 C 0.55225 0.58776 0.98917 0.0
C85 C 0.01198 0.48512 0.46071 0.0
C86 C 0.07534 0.55458 0.48616 0.0
C87 C 0.928 0.44213 0.47672 0.0
C88 C 0.90396 0.46704 0.51874 0.0
H89 H 0.02744 0.46329 0.42826 0.0
H90 H 0.8817 0.38874 0.45597 0.0
S91 S 0.04479 0.64674 0.59779 0.0
N92 N 0.10769 0.64749 0.5551 0.0
N93 N 0.94988 0.56684 0.5851 0.0
C94 C 0.96639 0.5369 0.54436 0.0
C95 C 0.05204 0.5806 0.5281 0.0
C96 C 0.58924 0.0561 0.01183 0.0
C97 C 0.5448 0.07541 0.97956 0.0
C98 C 0.5497 0.98213 0.02913 0.0
C99 C 0.46426 0.92427 0.01471 0.0
H100 H 0.65502 0.09869 0.02416 0.0
H101 H 0.58669 0.97022 0.05393 0.0
S102 S 0.31993 0.94466 0.93032 0.0
N103 N 0.41065 0.03025 0.93359 0.0
N104 N 0.33654 0.89117 0.9659 0.0
C105 C 0.41916 0.94257 0.98226 0.0
C106 C 0.45935 0.01809 0.96475 0.0
C107 C 0.53121 0.52569 0.53964 0.0
C108 C 0.52582 0.45558 0.51444 0.0
C109 C 0.49009 0.56842 0.52389 0.0
C110 C 0.44167 0.54261 0.48239 0.0
H111 H 0.56787 0.54815 0.57177 0.0
H112 H 0.49653 0.62224 0.54449 0.0
S113 S 0.40607 0.36184 0.40373 0.0
N114 N 0.46737 0.36165 0.44601 0.0
N115 N 0.38993 0.44183 0.4165 0.0
C116 C 0.4352 0.47227 0.45693 0.0
C117 C 0.47731 0.42882 0.47292 0.0
C118 C 0.07767 0.51092 0.97535 0.0
C119 C 0.0964 0.55276 0.0192 0.0
C120 C 0.99131 0.45842 0.96007 0.0
C121 C 0.92032 0.44557 0.98808 0.0
H122 H 0.13008 0.51882 0.95249 0.0
H123 H 0.98022 0.42808 0.92591 0.0
S124 S 0.93411 0.53958 0.10618 0.0
N125 N 0.03678 0.57714 0.09069 0.0
N126 N 0.87464 0.4785 0.06205 0.0
C127 C 0.93814 0.4866 0.03215 0.0
C128 C 0.02609 0.5402 0.04768 0.0
C129 C 0.5742 0.04746 0.50409 0.0
C130 C 0.5246 0.08839 0.51754 0.0
C131 C 0.53343 0.96537 0.48868 0.0
C132 C 0.44148 0.92111 0.48594 0.0
H133 H 0.64523 0.07898 0.50542 0.0
H134 H 0.57446 0.93658 0.47856 0.0
S135 S 0.2815 0.99947 0.51803 0.0
N136 N 0.37838 0.07815 0.5278 0.0
N137 N 0.30178 0.92389 0.49867 0.0
C138 C 0.39096 0.96113 0.49945 0.0
C139 C 0.43251 0.04475 0.51529 0.0
loop_
_geom_bond_atom_site_label_1
_geom_bond_atom_site_label_2
_geom_bond_distance
_geom_bond_site_symmetry_2
_ccdc_geom_bond_type
In0 O1 2.294 . S
In0 O2 2.326 . S
In0 O6 2.266 . S
In0 O7 2.326 . S
In0 O8 2.266 . S
In0 O9 2.326 1_554 S
In0 O11 2.294 . S
In0 O12 2.326 . S
O1 In0 2.294 . S
O1 C10 1.240 . S
O2 In0 2.326 . S
O2 C10 1.252 . S
C3 O6 1.252 . S
C3 O7 1.260 . S
C4 O11 1.240 . S
C4 O12 1.252 . S
C5 O8 1.252 . S
C5 O9 1.260 1_554 S
O6 In0 2.266 . S
O6 C3 1.252 . S
O7 In0 2.326 . S
O7 C3 1.260 . S
O8 In0 2.266 . S
O8 C5 1.252 . S
O9 In0 2.326 1_556 S
O9 C5 1.260 1_556 S
C10 O1 1.240 . S
C10 O2 1.252 . S
O11 In0 2.294 . S
O11 C4 1.240 . S
O12 In0 2.326 . S
O12 C4 1.252 . S
In13 O14 2.294 . S
In13 O15 2.326 . S
In13 O19 2.266 . S
In13 O20 2.326 . S
In13 O21 2.266 . S
In13 O22 2.326 . S
In13 O24 2.294 . S
In13 O25 2.326 . S
O14 In13 2.294 . S
O14 C23 1.240 . S
O15 In13 2.326 . S
O15 C23 1.252 . S
C16 O19 1.252 . S
C16 O20 1.260 . S
C17 O24 1.240 . S
C17 O25 1.252 . S
C18 O21 1.252 . S
C18 O22 1.260 . S
O19 In13 2.266 . S
O19 C16 1.252 . S
O20 In13 2.326 . S
O20 C16 1.260 . S
O21 In13 2.266 . S
O21 C18 1.252 . S
O22 In13 2.326 . S
O22 C18 1.260 . S
C23 O14 1.240 . S
C23 O15 1.252 . S
O24 In13 2.294 . S
O24 C17 1.240 . S
O25 In13 2.326 . S
O25 C17 1.252 . S
In26 O27 2.294 . S
In26 O28 2.326 . S
In26 O32 2.266 . S
In26 O33 2.326 . S
In26 O34 2.266 . S
In26 O35 2.326 . S
In26 O37 2.294 . S
In26 O38 2.326 . S
O27 In26 2.294 . S
O27 C36 1.240 . S
O28 In26 2.326 . S
O28 C36 1.252 . S
C29 O32 1.252 . S
C29 O33 1.260 . S
C30 O37 1.240 . S
C30 O38 1.252 . S
C31 O34 1.252 . S
C31 O35 1.260 . S
O32 In26 2.266 . S
O32 C29 1.252 . S
O33 In26 2.326 . S
O33 C29 1.260 . S
O34 In26 2.266 . S
O34 C31 1.252 . S
O35 In26 2.326 . S
O35 C31 1.260 . S
C36 O27 1.240 . S
C36 O28 1.252 . S
O37 In26 2.294 . S
O37 C30 1.240 . S
O38 In26 2.326 . S
O38 C30 1.252 . S
In39 O40 2.294 . S
In39 O41 2.326 . S
In39 O45 2.266 . S
In39 O46 2.326 1_556 S
In39 O47 2.266 . S
In39 O48 2.326 . S
In39 O50 2.294 . S
In39 O51 2.326 . S
O40 In39 2.294 . S
O40 C49 1.240 . S
O41 In39 2.326 . S
O41 C49 1.252 . S
C42 O45 1.252 . S
C42 O46 1.260 1_556 S
C43 O50 1.240 . S
C43 O51 1.252 . S
C44 O47 1.252 . S
C44 O48 1.260 . S
O45 In39 2.266 . S
O45 C42 1.252 . S
O46 In39 2.326 1_554 S
O46 C42 1.260 1_554 S
O47 In39 2.266 . S
O47 C44 1.252 . S
O48 In39 2.326 . S
O48 C44 1.260 . S
C49 O40 1.240 . S
C49 O41 1.252 . S
O50 In39 2.294 . S
O50 C43 1.240 . S
O51 In39 2.326 . S
O51 C43 1.252 . S
C52 C53 1.369 . S
C52 C54 1.419 . S
C52 H56 0.930 . S
C53 C52 1.369 . S
C53 C62 1.429 . S
C54 C52 1.419 . S
C54 C55 1.363 . S
C54 H57 0.929 . S
C55 C54 1.363 . S
C55 C61 1.428 . S
H56 C52 0.930 . S
H57 C54 0.929 . S
S58 N59 1.613 . S
S58 N60 1.610 . S
N59 S58 1.613 . S
N59 C62 1.350 . S
N60 S58 1.610 . S
N60 C61 1.351 . S
C61 C55 1.428 . S
C61 N60 1.351 . S
C61 C62 1.434 . S
C62 C53 1.429 . S
C62 N59 1.350 . S
C62 C61 1.434 . S
C63 C64 1.369 . S
C63 C65 1.419 . S
C63 H67 0.930 . S
C64 C63 1.369 . S
C64 C73 1.429 . S
C65 C63 1.419 . S
C65 C66 1.363 . S
C65 H68 0.929 . S
C66 C65 1.363 . S
C66 C72 1.428 . S
H67 C63 0.930 . S
H68 C65 0.929 . S
S69 N70 1.613 . S
S69 N71 1.610 . S
N70 S69 1.613 . S
N70 C73 1.350 . S
N71 S69 1.610 . S
N71 C72 1.351 . S
C72 C66 1.428 . S
C72 N71 1.351 . S
C72 C73 1.434 . S
C73 C64 1.429 . S
C73 N70 1.350 . S
C73 C72 1.434 . S
C74 C75 1.369 1_554 S
C74 C76 1.419 1_554 S
C74 H78 0.930 . S
C75 C74 1.369 1_556 S
C75 C84 1.429 . S
C76 C74 1.419 1_556 S
C76 C77 1.363 . S
C76 H79 0.929 . S
C77 C76 1.363 . S
C77 C83 1.428 . S
H78 C74 0.930 . S
H79 C76 0.929 . S
S80 N81 1.613 . S
S80 N82 1.610 . S
N81 S80 1.613 . S
N81 C84 1.350 . S
N82 S80 1.610 . S
N82 C83 1.351 . S
C83 C77 1.428 . S
C83 N82 1.351 . S
C83 C84 1.434 . S
C84 C75 1.429 . S
C84 N81 1.350 . S
C84 C83 1.434 . S
C85 C86 1.369 1_655 S
C85 C87 1.419 . S
C85 H89 0.930 1_655 S
C86 C85 1.369 1_455 S
C86 C95 1.428 1_455 S
C87 C85 1.419 . S
C87 C88 1.363 . S
C87 H90 0.929 . S
C88 C87 1.363 . S
C88 C94 1.428 . S
H89 C85 0.930 1_455 S
H90 C87 0.929 . S
S91 N92 1.613 1_655 S
S91 N93 1.610 . S
N92 S91 1.613 1_455 S
N92 C95 1.350 1_455 S
N93 S91 1.610 . S
N93 C94 1.351 . S
C94 C88 1.428 . S
C94 N93 1.351 . S
C94 C95 1.434 . S
C95 C86 1.428 1_655 S
C95 N92 1.350 1_655 S
C95 C94 1.434 . S
C96 C97 1.369 1_554 S
C96 C98 1.419 1_545 S
C96 H100 0.930 . S
C97 C96 1.369 1_556 S
C97 C106 1.429 . S
C98 C96 1.419 1_565 S
C98 C99 1.363 . S
C98 H101 0.929 . S
C99 C98 1.363 . S
C99 C105 1.428 1_554 S
H100 C96 0.930 . S
H101 C98 0.929 . S
S102 N103 1.613 1_565 S
S102 N104 1.610 . S
N103 S102 1.613 1_545 S
N103 C106 1.350 . S
N104 S102 1.610 . S
N104 C105 1.351 . S
C105 C99 1.428 1_556 S
C105 N104 1.351 . S
C105 C106 1.434 1_565 S
C106 C97 1.429 . S
C106 N103 1.350 . S
C106 C105 1.434 1_545 S
C107 C108 1.369 . S
C107 C109 1.419 . S
C107 H111 0.930 . S
C108 C107 1.369 . S
C108 C117 1.429 . S
C109 C107 1.419 . S
C109 C110 1.363 . S
C109 H112 0.929 . S
C110 C109 1.363 . S
C110 C116 1.428 . S
H111 C107 0.930 . S
H112 C109 0.929 . S
S113 N114 1.613 . S
S113 N115 1.610 . S
N114 S113 1.613 . S
N114 C117 1.350 . S
N115 S113 1.610 . S
N115 C116 1.351 . S
C116 C110 1.428 . S
C116 N115 1.351 . S
C116 C117 1.434 . S
C117 C108 1.429 . S
C117 N114 1.350 . S
C117 C116 1.434 . S
C118 C119 1.369 1_556 S
C118 C120 1.419 . S
C118 H122 0.930 . S
C119 C118 1.369 1_554 S
C119 C128 1.429 . S
C120 C118 1.419 . S
C120 C121 1.363 1_456 S
C120 H123 0.929 1_455 S
C121 C120 1.363 1_654 S
C121 C127 1.428 . S
H122 C118 0.930 . S
H123 C120 0.929 1_655 S
S124 N125 1.613 1_655 S
S124 N126 1.610 . S
N125 S124 1.613 1_455 S
N125 C128 1.350 . S
N126 S124 1.610 . S
N126 C127 1.351 . S
C127 C121 1.428 . S
C127 N126 1.351 . S
C127 C128 1.434 1_655 S
C128 C119 1.429 . S
C128 N125 1.350 . S
C128 C127 1.434 1_455 S
C129 C130 1.369 . S
C129 C131 1.419 1_545 S
C129 H133 0.930 . S
C130 C129 1.369 . S
C130 C139 1.429 . S
C131 C129 1.419 1_565 S
C131 C132 1.363 . S
C131 H134 0.929 . S
C132 C131 1.363 . S
C132 C138 1.428 . S
H133 C129 0.930 . S
H134 C131 0.929 . S
S135 N136 1.613 1_565 S
S135 N137 1.610 . S
N136 S135 1.613 1_545 S
N136 C139 1.350 . S
N137 S135 1.610 . S
N137 C138 1.351 . S
C138 C132 1.428 . S
C138 N137 1.351 . S
C138 C139 1.434 1_565 S
C139 C130 1.429 . S
C139 N136 1.350 . S
C139 C138 1.434 1_545 S
C53 C4 1.592 . S
C55 C30 1.589 . S
C64 C17 1.592 . S
C66 C49 1.594 . S
C75 C5 1.499 1_556 S
C77 C43 1.522 . S
C86 C29 1.679 . S
C88 C18 1.670 . S
C97 C44 1.829 . S
C99 C3 1.828 . S
C108 C16 1.680 . S
C110 C31 1.669 . S
C119 C10 1.522 . S
C121 C42 1.497 1_554 S
C130 C23 1.360 . S
C132 C36 1.357 . S
