# Generated by pormake.
# Topology bcu, (8)-cn, num edge types: 1
# Building blocks:
#     Node 0, Type 0, BuildingBlock: VETTIZ_charged_sbu_0, # of connection points: 8
#     Node 1, Type 0, BuildingBlock: VETTIZ_charged_sbu_0, # of connection points: 8
#     Edge 2, Type (0, 0), None
#     Edge 3, Type (0, 0), None
#     Edge 4, Type (0, 0), None
#     Edge 5, Type (0, 0), None
#     Edge 6, Type (0, 0), None
#     Edge 7, Type (0, 0), None
#     Edge 8, Type (0, 0), None
#     Edge 9, Type (0, 0), None
# Relax obj value: 0.000
# Max RMSD: 0.009
# Mean RMSD: 0.009
data_MOF--net-bcu--node1-VETTIZ_charged_sbu_0--edge1-none
_symmetry_space_group_name_H-M    P1
_symmetry_Int_Tables_number       1
_symmetry_cell_setting            triclinic
loop_
_symmetry_equiv_pos_as_xyz
'x, y, z'
_cell_length_a     10.06363
_cell_length_b     9.6348361
_cell_length_c     10.062534
_cell_angle_alpha  91.433674
_cell_angle_beta   92.108121
_cell_angle_gamma 91.431033
loop_
_atom_site_label
_atom_site_type_symbol
_atom_site_fract_x
_atom_site_fract_y
_atom_site_fract_z
_atom_type_partial_charge
Fe0 Fe 0.05773 0.72703 1.01437 0.0
O1 O 0.08842 0.93051 0.03642 0.0
Fe2 Fe 0.05025 0.05459 0.87111 0.0
Fe3 Fe 0.99361 1.0447 0.17035 0.0
O4 O 0.08967 0.93077 0.0235 0.0
O5 O 0.95543 0.16878 1.00504 0.0
O6 O 0.95418 0.16853 1.01796 0.0
Fe7 Fe 0.98612 0.37227 0.02709 0.0
C8 C 0.81969 0.80691 0.17788 0.0
O9 O 0.16587 0.73699 0.19013 0.0
O10 O 0.05648 0.90361 0.31291 0.0
O11 O 0.1426 0.38202 0.90106 0.0
O12 O 0.22044 0.17058 0.90916 0.0
O13 O 0.16802 0.92184 0.75691 0.0
O14 O 0.2171 0.73815 0.89163 0.0
O15 O 0.16804 0.15115 0.22343 0.0
O16 O 0.1148 0.37172 0.19732 0.0
C17 C 0.24311 0.82018 0.79572 0.0
O18 O 0.87798 0.36231 0.85133 0.0
O19 O 0.98737 0.19568 0.72855 0.0
O20 O 0.90125 0.71727 0.1404 0.0
O21 O 0.82341 0.92872 0.1323 0.0
C22 C 0.14154 0.805 0.29942 0.0
C23 C 0.18744 0.27924 0.25065 0.0
C24 C 0.80075 0.27912 0.24574 0.0
O25 O 0.87583 0.17746 0.28455 0.0
O26 O 0.82675 0.36115 0.14983 0.0
C27 C 0.22416 0.29238 0.86358 0.0
O28 O 0.87581 0.94815 0.81803 0.0
O29 O 0.92905 0.72757 0.84414 0.0
C30 C 0.90231 0.2943 0.74204 0.0
C31 C 0.85641 0.82005 0.79081 0.0
Fe32 Fe 0.52841 0.87228 0.48504 0.0
O33 O 0.50628 0.66881 0.45426 0.0
Fe34 Fe 0.67154 0.54467 0.49245 0.0
Fe35 Fe 0.37231 0.55463 0.54901 0.0
O36 O 0.5192 0.66856 0.45304 0.0
O37 O 0.53757 0.43049 0.5872 0.0
O38 O 0.52465 0.43074 0.58842 0.0
Fe39 Fe 0.51544 0.22701 0.55642 0.0
C40 C 0.36489 0.79236 0.72307 0.0
O41 O 0.35267 0.86246 0.37692 0.0
O42 O 0.2298 0.69579 0.48617 0.0
O43 O 0.64145 0.21726 0.3999 0.0
O44 O 0.63348 0.42878 0.32218 0.0
O45 O 0.78579 0.67743 0.37474 0.0
O46 O 0.65112 0.86116 0.32564 0.0
O47 O 0.31921 0.44826 0.3745 0.0
O48 O 0.34522 0.22767 0.42776 0.0
C49 C 0.74699 0.77909 0.29964 0.0
O50 O 0.69118 0.23683 0.66454 0.0
O51 O 0.81405 0.4035 0.55529 0.0
O52 O 0.4024 0.88204 0.64156 0.0
O53 O 0.41037 0.67052 0.71928 0.0
C54 C 0.24333 0.79463 0.40134 0.0
C55 C 0.29193 0.32017 0.35511 0.0
C56 C 0.29686 0.3202 0.74182 0.0
O57 O 0.25806 0.42187 0.66672 0.0
O58 O 0.39273 0.23814 0.71582 0.0
C59 C 0.67896 0.30693 0.31839 0.0
O60 O 0.72464 0.65104 0.66696 0.0
O61 O 0.69863 0.87162 0.6137 0.0
C62 C 0.80052 0.30466 0.64012 0.0
C63 C 0.75192 0.77912 0.68635 0.0
loop_
_geom_bond_atom_site_label_1
_geom_bond_atom_site_label_2
_geom_bond_distance
_geom_bond_site_symmetry_2
_ccdc_geom_bond_type
Fe0 O1 1.886 . S
Fe0 O4 1.715 1_554 S
Fe0 O9 2.077 . S
Fe0 O14 1.935 1_554 S
Fe0 O20 2.077 1_455 S
Fe0 O29 1.935 1_454 S
O1 Fe0 1.886 . S
O1 Fe3 1.715 1_565 S
Fe2 O4 1.886 . S
Fe2 O5 1.715 1_565 S
Fe2 O12 1.935 1_565 S
Fe2 O13 2.077 . S
Fe2 O19 1.935 1_465 S
Fe2 O28 2.077 1_455 S
Fe3 O1 1.715 1_545 S
Fe3 O6 1.886 . S
Fe3 O10 1.935 1_545 S
Fe3 O15 2.077 . S
Fe3 O21 1.935 1_445 S
Fe3 O25 2.077 1_455 S
O4 Fe0 1.715 1_556 S
O4 Fe2 1.886 . S
O5 Fe2 1.715 1_545 S
O5 Fe7 1.886 . S
O6 Fe3 1.886 . S
O6 Fe7 1.715 1_554 S
Fe7 O5 1.886 . S
Fe7 O6 1.715 1_556 S
Fe7 O11 2.077 . S
Fe7 O16 1.935 1_556 S
Fe7 O18 2.077 1_455 S
Fe7 O26 1.935 1_456 S
C8 O20 1.381 . S
C8 O21 1.421 . S
O9 Fe0 2.077 . S
O9 C22 1.381 . S
O10 Fe3 1.935 1_565 S
O10 C22 1.421 . S
O11 Fe7 2.077 . S
O11 C27 1.381 . S
O12 Fe2 1.935 1_545 S
O12 C27 1.421 . S
O13 Fe2 2.077 . S
O13 C17 1.381 . S
O14 Fe0 1.935 1_556 S
O14 C17 1.421 . S
O15 Fe3 2.077 . S
O15 C23 1.381 . S
O16 Fe7 1.935 1_554 S
O16 C23 1.421 . S
C17 O13 1.381 . S
C17 O14 1.421 . S
O18 Fe7 2.077 1_655 S
O18 C30 1.381 . S
O19 Fe2 1.935 1_645 S
O19 C30 1.421 . S
O20 Fe0 2.077 1_655 S
O20 C8 1.381 . S
O21 Fe3 1.935 1_665 S
O21 C8 1.421 . S
C22 O9 1.381 . S
C22 O10 1.421 . S
C23 O15 1.381 . S
C23 O16 1.421 . S
C24 O25 1.381 . S
C24 O26 1.421 . S
O25 Fe3 2.077 1_655 S
O25 C24 1.381 . S
O26 Fe7 1.935 1_654 S
O26 C24 1.421 . S
C27 O11 1.381 . S
C27 O12 1.421 . S
O28 Fe2 2.077 1_655 S
O28 C31 1.381 . S
O29 Fe0 1.935 1_656 S
O29 C31 1.421 . S
C30 O18 1.381 . S
C30 O19 1.421 . S
C31 O28 1.381 . S
C31 O29 1.421 . S
Fe32 O33 1.886 . S
Fe32 O36 1.715 . S
Fe32 O41 2.077 . S
Fe32 O46 1.935 . S
Fe32 O52 2.077 . S
Fe32 O61 1.935 . S
O33 Fe32 1.886 . S
O33 Fe35 1.715 . S
Fe34 O36 1.886 . S
Fe34 O37 1.715 . S
Fe34 O44 1.935 . S
Fe34 O45 2.077 . S
Fe34 O51 1.935 . S
Fe34 O60 2.077 . S
Fe35 O33 1.715 . S
Fe35 O38 1.886 . S
Fe35 O42 1.935 . S
Fe35 O47 2.077 . S
Fe35 O53 1.935 . S
Fe35 O57 2.077 . S
O36 Fe32 1.715 . S
O36 Fe34 1.886 . S
O37 Fe34 1.715 . S
O37 Fe39 1.886 . S
O38 Fe35 1.886 . S
O38 Fe39 1.715 . S
Fe39 O37 1.886 . S
Fe39 O38 1.715 . S
Fe39 O43 2.077 . S
Fe39 O48 1.935 . S
Fe39 O50 2.077 . S
Fe39 O58 1.935 . S
C40 O52 1.381 . S
C40 O53 1.421 . S
O41 Fe32 2.077 . S
O41 C54 1.381 . S
O42 Fe35 1.935 . S
O42 C54 1.421 . S
O43 Fe39 2.077 . S
O43 C59 1.381 . S
O44 Fe34 1.935 . S
O44 C59 1.421 . S
O45 Fe34 2.077 . S
O45 C49 1.381 . S
O46 Fe32 1.935 . S
O46 C49 1.421 . S
O47 Fe35 2.077 . S
O47 C55 1.381 . S
O48 Fe39 1.935 . S
O48 C55 1.421 . S
C49 O45 1.381 . S
C49 O46 1.421 . S
O50 Fe39 2.077 . S
O50 C62 1.381 . S
O51 Fe34 1.935 . S
O51 C62 1.421 . S
O52 Fe32 2.077 . S
O52 C40 1.381 . S
O53 Fe35 1.935 . S
O53 C40 1.421 . S
C54 O41 1.381 . S
C54 O42 1.421 . S
C55 O47 1.381 . S
C55 O48 1.421 . S
C56 O57 1.381 . S
C56 O58 1.421 . S
O57 Fe35 2.077 . S
O57 C56 1.381 . S
O58 Fe39 1.935 . S
O58 C56 1.421 . S
C59 O43 1.381 . S
C59 O44 1.421 . S
O60 Fe34 2.077 . S
O60 C63 1.381 . S
O61 Fe32 1.935 . S
O61 C63 1.421 . S
C62 O50 1.381 . S
C62 O51 1.421 . S
C63 O60 1.381 . S
C63 O61 1.421 . S
C23 C55 1.395 . S
C24 C59 1.361 . S
C8 C49 1.362 . S
C22 C54 1.332 . S
C17 C40 1.362 . S
C56 C27 1.361 . S
C30 C62 1.334 . S
C63 C31 1.398 . S
