# Generated by pormake.
# Topology uoj, (4)-cn, num edge types: 1
# Building blocks:
#     Node 0, Type 0, BuildingBlock: CEKHIL_clean_sbu_0, # of connection points: 4
#     Node 1, Type 0, BuildingBlock: CEKHIL_clean_sbu_0, # of connection points: 4
#     Node 2, Type 0, BuildingBlock: CEKHIL_clean_sbu_0, # of connection points: 4
#     Node 3, Type 0, BuildingBlock: CEKHIL_clean_sbu_0, # of connection points: 4
#     Node 4, Type 0, BuildingBlock: CEKHIL_clean_sbu_0, # of connection points: 4
#     Node 5, Type 0, BuildingBlock: CEKHIL_clean_sbu_0, # of connection points: 4
#     Node 6, Type 0, BuildingBlock: CEKHIL_clean_sbu_0, # of connection points: 4
#     Node 7, Type 0, BuildingBlock: CEKHIL_clean_sbu_0, # of connection points: 4
#     Edge 8, Type (0, 0), BuildingBlock: EYOCIG_clean_linker_4, # of connection points: 2
#     Edge 9, Type (0, 0), BuildingBlock: EYOCIG_clean_linker_4, # of connection points: 2
#     Edge 10, Type (0, 0), BuildingBlock: EYOCIG_clean_linker_4, # of connection points: 2
#     Edge 11, Type (0, 0), BuildingBlock: EYOCIG_clean_linker_4, # of connection points: 2
#     Edge 12, Type (0, 0), BuildingBlock: EYOCIG_clean_linker_4, # of connection points: 2
#     Edge 13, Type (0, 0), BuildingBlock: EYOCIG_clean_linker_4, # of connection points: 2
#     Edge 14, Type (0, 0), BuildingBlock: EYOCIG_clean_linker_4, # of connection points: 2
#     Edge 15, Type (0, 0), BuildingBlock: EYOCIG_clean_linker_4, # of connection points: 2
#     Edge 16, Type (0, 0), BuildingBlock: EYOCIG_clean_linker_4, # of connection points: 2
#     Edge 17, Type (0, 0), BuildingBlock: EYOCIG_clean_linker_4, # of connection points: 2
#     Edge 18, Type (0, 0), BuildingBlock: EYOCIG_clean_linker_4, # of connection points: 2
#     Edge 19, Type (0, 0), BuildingBlock: EYOCIG_clean_linker_4, # of connection points: 2
#     Edge 20, Type (0, 0), BuildingBlock: EYOCIG_clean_linker_4, # of connection points: 2
#     Edge 21, Type (0, 0), BuildingBlock: EYOCIG_clean_linker_4, # of connection points: 2
#     Edge 22, Type (0, 0), BuildingBlock: EYOCIG_clean_linker_4, # of connection points: 2
#     Edge 23, Type (0, 0), BuildingBlock: EYOCIG_clean_linker_4, # of connection points: 2
# Relax obj value: 0.110
# Max RMSD: 0.136
# Mean RMSD: 0.133
data_MOF--net-uoj--node1-CEKHIL_clean_sbu_0--edge1-EYOCIG_clean_linker_4
_symmetry_space_group_name_H-M    P1
_symmetry_Int_Tables_number       1
_symmetry_cell_setting            triclinic
loop_
_symmetry_equiv_pos_as_xyz
'x, y, z'
_cell_length_a     26.027336
_cell_length_b     26.074788
_cell_length_c     27.4325
_cell_angle_alpha  89.993546
_cell_angle_beta   89.997951
_cell_angle_gamma 89.136938
loop_
_atom_site_label
_atom_site_type_symbol
_atom_site_fract_x
_atom_site_fract_y
_atom_site_fract_z
_atom_type_partial_charge
Co0 Co 0.09079 0.28725 0.44718 0.0
O1 O 0.1476 0.31748 0.4128 0.0
O2 O 0.07102 0.30113 0.381 0.0
C3 C 0.1364 0.22357 0.48149 0.0
O4 O 0.02353 0.2553 0.46878 0.0
Co5 Co 0.08564 0.28348 0.55945 0.0
O6 O 0.0185 0.24954 0.5504 0.0
C7 C 0.06156 0.37963 0.50884 0.0
C8 C 0.11733 0.31777 0.37518 0.0
C9 C 0.99978 0.24315 0.50805 0.0
O10 O 0.06476 0.35656 0.46774 0.0
O11 O 0.07286 0.35887 0.54969 0.0
O12 O 0.12019 0.21986 0.43705 0.0
O13 O 0.1287 0.26711 0.50328 0.0
Co14 Co 0.28909 0.90238 0.56541 0.0
O15 O 0.22122 0.87717 0.57742 0.0
O16 O 0.26581 0.86279 0.50979 0.0
C17 C 0.31906 0.87953 0.63994 0.0
O18 O 0.36009 0.92124 0.53969 0.0
Co19 Co 0.33487 0.98855 0.63114 0.0
O20 O 0.39501 0.98139 0.58807 0.0
C21 C 0.25894 0.01412 0.55433 0.0
C22 C 0.22415 0.85578 0.53493 0.0
C23 C 0.39604 0.95247 0.5508 0.0
O24 O 0.25949 0.96809 0.53727 0.0
O25 O 0.28266 0.02805 0.59271 0.0
O26 O 0.31842 0.84622 0.60478 0.0
O27 O 0.3 0.92402 0.62999 0.0
Co28 Co 0.91082 0.69829 0.44717 0.0
O29 O 0.85435 0.66862 0.41191 0.0
O30 O 0.93142 0.68482 0.38111 0.0
C31 C 0.86516 0.76199 0.48128 0.0
O32 O 0.97785 0.72966 0.46997 0.0
Co33 Co 0.91402 0.70121 0.55969 0.0
O34 O 0.98174 0.7343 0.55175 0.0
C35 C 0.94036 0.60578 0.5087 0.0
C36 C 0.88507 0.66853 0.37463 0.0
C37 C 0.00114 0.74099 0.50971 0.0
O38 O 0.93649 0.6288 0.4676 0.0
O39 O 0.9288 0.62624 0.54961 0.0
O40 O 0.88194 0.76588 0.43706 0.0
O41 O 0.8722 0.71824 0.50288 0.0
Co42 Co 0.71174 0.08266 0.56496 0.0
O43 O 0.77964 0.10805 0.57652 0.0
O44 O 0.73458 0.12224 0.50914 0.0
C45 C 0.68205 0.10516 0.63969 0.0
O46 O 0.64067 0.06347 0.53963 0.0
Co47 Co 0.66677 -0.00392 0.63087 0.0
O48 O 0.60642 0.00291 0.58801 0.0
C49 C 0.74268 0.97126 0.55384 0.0
C50 C 0.7765 0.12918 0.53391 0.0
C51 C 0.60501 0.03193 0.55081 0.0
O52 O 0.74145 0.01719 0.53661 0.0
O53 O 0.71939 0.95716 0.59241 0.0
O54 O 0.6824 0.13862 0.60462 0.0
O55 O 0.70128 0.0608 0.62952 0.0
Co56 Co 0.41324 0.786 0.94063 0.0
O57 O 0.35628 0.81753 0.90574 0.0
O58 O 0.43207 0.79683 0.87361 0.0
C59 C 0.36711 0.72568 0.97869 0.0
O60 O 0.48083 0.75227 0.96238 0.0
Co61 Co 0.42043 0.78671 0.05289 0.0
O62 O 0.48776 0.75101 0.04406 0.0
C63 C 0.44234 0.88007 0.99829 0.0
C64 C 0.38615 0.81586 0.86783 0.0
C65 C 0.50558 0.74168 1.00176 0.0
O66 O 0.44008 0.85506 0.95822 0.0
O67 O 0.43086 0.8615 0.03987 0.0
O68 O 0.38246 0.71916 0.93413 0.0
O69 O 0.37618 0.76985 0.99813 0.0
Co70 Co 0.78663 0.57114 0.07747 0.0
O71 O 0.81543 0.62792 0.11303 0.0
O72 O 0.79834 0.55141 0.14416 0.0
C73 C 0.72379 0.61727 0.04044 0.0
O74 O 0.75594 0.50358 0.05531 0.0
Co75 Co 0.78672 0.565 0.96561 0.0
O76 O 0.75384 0.49731 0.97369 0.0
C77 C 0.88184 0.54275 0.01887 0.0
C78 C 0.81484 0.59759 0.15056 0.0
C79 C 0.74591 0.47907 0.01596 0.0
O80 O 0.85728 0.54567 0.05929 0.0
O81 O 0.86206 0.55337 0.97742 0.0
O82 O 0.71824 0.60071 0.08465 0.0
O83 O 0.76829 0.60903 0.02053 0.0
Co84 Co 0.58671 0.19905 0.93973 0.0
O85 O 0.64399 0.16718 0.90556 0.0
O86 O 0.56834 0.18722 0.87276 0.0
C87 C 0.63227 0.26021 0.97732 0.0
O88 O 0.51891 0.23284 0.96068 0.0
Co89 Co 0.57896 0.19955 0.05196 0.0
O90 O 0.51138 0.23453 0.04231 0.0
C91 C 0.55671 0.10574 0.99831 0.0
C92 C 0.61434 0.16824 0.86746 0.0
C93 C 0.49382 0.24349 0.99984 0.0
O94 O 0.5598 0.1302 0.95799 0.0
O95 O 0.56781 0.12473 0.03982 0.0
O96 O 0.61732 0.26594 0.93255 0.0
O97 O 0.62335 0.21622 0.99723 0.0
Co98 Co 0.21424 0.41443 0.07741 0.0
O99 O 0.18582 0.35765 0.11331 0.0
O100 O 0.20324 0.43423 0.14413 0.0
C101 C 0.2766 0.36824 0.03969 0.0
O102 O 0.24458 0.4821 0.0553 0.0
Co103 Co 0.21364 0.42129 0.96559 0.0
O104 O 0.24539 0.48951 0.97379 0.0
C105 C 0.11861 0.44232 0.01945 0.0
C106 C 0.18679 0.38809 0.15078 0.0
C107 C 0.25372 0.50727 0.01616 0.0
O108 O 0.14341 0.4398 0.05977 0.0
O109 O 0.13827 0.4318 0.97793 0.0
O110 O 0.28271 0.38477 0.08386 0.0
O111 O 0.23197 0.37674 0.02019 0.0
C112 C 0.16019 0.35937 0.23931 0.0
C113 C 0.17203 0.37121 0.19843 0.0
C114 C 0.14707 0.34607 0.28751 0.0
C115 C 0.13487 0.33347 0.32807 0.0
C116 C 0.34535 0.85755 0.73075 0.0
C117 C 0.33365 0.86644 0.68898 0.0
C118 C 0.35749 0.84562 0.77974 0.0
C119 C 0.36885 0.83256 0.8206 0.0
C120 C 0.85568 0.64078 0.28666 0.0
C121 C 0.86799 0.6532 0.32725 0.0
C122 C 0.84218 0.62711 0.23866 0.0
C123 C 0.82996 0.61475 0.19801 0.0
C124 C 0.64345 0.13797 0.77968 0.0
C125 C 0.63203 0.15123 0.82046 0.0
C126 C 0.65561 0.12629 0.73063 0.0
C127 C 0.66736 0.11784 0.6888 0.0
C128 C 0.20901 0.09339 0.51966 0.0
C129 C 0.22961 0.05351 0.5307 0.0
C130 C 0.18571 0.14178 0.51229 0.0
C131 C 0.16412 0.18162 0.50288 0.0
C132 C 0.14319 0.80262 0.50948 0.0
C133 C 0.18214 0.82578 0.51733 0.0
C134 C 0.09461 0.77926 0.50614 0.0
C135 C 0.05193 0.76174 0.50663 0.0
C136 C 0.79316 0.89246 0.51917 0.0
C137 C 0.77227 0.93218 0.53013 0.0
C138 C 0.81639 0.84405 0.51197 0.0
C139 C 0.83766 0.80405 0.50264 0.0
C140 C 0.85791 0.18105 0.50716 0.0
C141 C 0.81874 0.15846 0.51561 0.0
C142 C 0.90661 0.20419 0.50345 0.0
C143 C 0.94916 0.22205 0.50411 0.0
C144 C 0.29182 0.60061 0.02072 0.0
C145 C 0.27443 0.55794 0.02035 0.0
C146 C 0.31551 0.64869 0.01502 0.0
C147 C 0.33834 0.68653 1.00284 0.0
C148 C 0.64581 0.67185 1.00577 0.0
C149 C 0.68376 0.64766 0.01773 0.0
C150 C 0.5981 0.69791 0.99908 0.0
C151 C 0.55584 0.71787 0.99819 0.0
C152 C 0.70673 0.38609 0.01953 0.0
C153 C 0.72463 0.42857 0.01971 0.0
C154 C 0.68293 0.33807 0.01342 0.0
C155 C 0.66047 0.29999 1.00122 0.0
C156 C 0.40124 0.28696 0.99684 0.0
C157 C 0.44354 0.26712 0.99589 0.0
C158 C 0.35373 0.31318 1.00403 0.0
C159 C 0.31615 0.33762 0.01654 0.0
C160 C 0.98805 0.51643 0.5088 0.0
C161 C 0.96621 0.55725 0.50921 0.0
C162 C 0.01593 0.47002 0.50891 0.0
C163 C 0.03685 0.42873 0.50945 0.0
C164 C 0.52357 0.00584 0.50355 0.0
C165 C 0.56254 0.02439 0.51859 0.0
C166 C 0.47749 0.97823 0.50346 0.0
C167 C 0.43844 0.95978 0.51844 0.0
C168 C 0.51218 0.01635 0.99592 0.0
C169 C 0.53257 0.0572 0.99729 0.0
C170 C 0.48581 0.96999 0.99577 0.0
C171 C 0.46592 0.92889 0.99705 0.0
C172 C 0.02467 0.48069 0.0211 0.0
C173 C 0.0676 0.46317 0.02049 0.0
C174 C 0.97542 0.50345 0.02079 0.0
C175 C 0.93267 0.52141 0.01983 0.0
loop_
_geom_bond_atom_site_label_1
_geom_bond_atom_site_label_2
_geom_bond_distance
_geom_bond_site_symmetry_2
_ccdc_geom_bond_type
Co0 O1 2.216 . S
Co0 O2 2.091 . S
Co0 O4 2.004 . S
Co0 O10 2.021 . S
Co0 O12 2.137 . S
Co0 O13 2.244 . S
O1 Co0 2.216 . S
O1 C8 1.247 . S
O2 Co0 2.091 . S
O2 C8 1.261 . S
C3 O12 1.247 . S
C3 O13 1.272 . S
O4 Co0 2.004 . S
O4 C9 1.259 1_455 S
Co5 O6 2.061 . S
Co5 O11 2.052 . S
Co5 O13 2.135 . S
O6 Co5 2.061 . S
O6 C9 1.235 1_455 S
C7 O10 1.238 . S
C7 O11 1.241 . S
C8 O1 1.247 . S
C8 O2 1.261 . S
C9 O4 1.259 1_655 S
C9 O6 1.235 1_655 S
O10 Co0 2.021 . S
O10 C7 1.238 . S
O11 Co5 2.052 . S
O11 C7 1.241 . S
O12 Co0 2.137 . S
O12 C3 1.247 . S
O13 Co0 2.244 . S
O13 C3 1.272 . S
O13 Co5 2.135 . S
Co14 O15 2.216 . S
Co14 O16 2.091 . S
Co14 O18 2.004 . S
Co14 O24 2.021 . S
Co14 O26 2.137 . S
Co14 O27 2.244 . S
O15 Co14 2.216 . S
O15 C22 1.247 . S
O16 Co14 2.091 . S
O16 C22 1.261 . S
C17 O26 1.247 . S
C17 O27 1.272 . S
O18 Co14 2.004 . S
O18 C23 1.259 . S
Co19 O20 2.061 1_545 S
Co19 O25 2.052 . S
Co19 O27 2.135 1_545 S
O20 Co19 2.061 1_565 S
O20 C23 1.235 . S
C21 O24 1.238 1_545 S
C21 O25 1.241 . S
C22 O15 1.247 . S
C22 O16 1.261 . S
C23 O18 1.259 . S
C23 O20 1.235 . S
O24 Co14 2.021 . S
O24 C21 1.238 1_565 S
O25 Co19 2.052 . S
O25 C21 1.241 . S
O26 Co14 2.137 . S
O26 C17 1.247 . S
O27 Co14 2.244 . S
O27 C17 1.272 . S
O27 Co19 2.135 1_565 S
Co28 O29 2.216 . S
Co28 O30 2.091 . S
Co28 O32 2.004 . S
Co28 O38 2.021 . S
Co28 O40 2.137 . S
Co28 O41 2.244 . S
O29 Co28 2.216 . S
O29 C36 1.247 . S
O30 Co28 2.091 . S
O30 C36 1.261 . S
C31 O40 1.247 . S
C31 O41 1.272 . S
O32 Co28 2.004 . S
O32 C37 1.259 1_655 S
Co33 O34 2.061 . S
Co33 O39 2.052 . S
Co33 O41 2.135 . S
O34 Co33 2.061 . S
O34 C37 1.235 1_655 S
C35 O38 1.238 . S
C35 O39 1.241 . S
C36 O29 1.247 . S
C36 O30 1.261 . S
C37 O32 1.259 1_455 S
C37 O34 1.235 1_455 S
O38 Co28 2.021 . S
O38 C35 1.238 . S
O39 Co33 2.052 . S
O39 C35 1.241 . S
O40 Co28 2.137 . S
O40 C31 1.247 . S
O41 Co28 2.244 . S
O41 C31 1.272 . S
O41 Co33 2.135 . S
Co42 O43 2.216 . S
Co42 O44 2.091 . S
Co42 O46 2.004 . S
Co42 O52 2.021 . S
Co42 O54 2.137 . S
Co42 O55 2.244 . S
O43 Co42 2.216 . S
O43 C50 1.247 . S
O44 Co42 2.091 . S
O44 C50 1.261 . S
C45 O54 1.247 . S
C45 O55 1.272 . S
O46 Co42 2.004 . S
O46 C51 1.259 . S
Co47 O48 2.061 1_565 S
Co47 O53 2.052 . S
Co47 O55 2.135 1_565 S
O48 Co47 2.061 1_545 S
O48 C51 1.235 . S
C49 O52 1.238 1_565 S
C49 O53 1.241 . S
C50 O43 1.247 . S
C50 O44 1.261 . S
C51 O46 1.259 . S
C51 O48 1.235 . S
O52 Co42 2.021 . S
O52 C49 1.238 1_545 S
O53 Co47 2.052 . S
O53 C49 1.241 . S
O54 Co42 2.137 . S
O54 C45 1.247 . S
O55 Co42 2.244 . S
O55 C45 1.272 . S
O55 Co47 2.135 1_545 S
Co56 O57 2.216 . S
Co56 O58 2.091 . S
Co56 O60 2.004 . S
Co56 O66 2.021 . S
Co56 O68 2.137 . S
Co56 O69 2.244 1_556 S
O57 Co56 2.216 . S
O57 C64 1.247 . S
O58 Co56 2.091 . S
O58 C64 1.261 . S
C59 O68 1.247 . S
C59 O69 1.272 1_556 S
O60 Co56 2.004 . S
O60 C65 1.259 . S
Co61 O62 2.061 . S
Co61 O67 2.052 . S
Co61 O69 2.135 . S
O62 Co61 2.061 . S
O62 C65 1.235 1_554 S
C63 O66 1.238 . S
C63 O67 1.241 1_556 S
C64 O57 1.247 . S
C64 O58 1.261 . S
C65 O60 1.259 . S
C65 O62 1.235 1_556 S
O66 Co56 2.021 . S
O66 C63 1.238 . S
O67 Co61 2.052 . S
O67 C63 1.241 1_554 S
O68 Co56 2.137 . S
O68 C59 1.247 . S
O69 Co56 2.244 1_554 S
O69 C59 1.272 1_554 S
O69 Co61 2.135 . S
Co70 O71 2.216 . S
Co70 O72 2.091 . S
Co70 O74 2.004 . S
Co70 O80 2.021 . S
Co70 O82 2.137 . S
Co70 O83 2.244 1_554 S
O71 Co70 2.216 . S
O71 C78 1.247 . S
O72 Co70 2.091 . S
O72 C78 1.261 . S
C73 O82 1.247 . S
C73 O83 1.272 1_554 S
O74 Co70 2.004 . S
O74 C79 1.259 . S
Co75 O76 2.061 . S
Co75 O81 2.052 . S
Co75 O83 2.135 . S
O76 Co75 2.061 . S
O76 C79 1.235 1_556 S
C77 O80 1.238 . S
C77 O81 1.241 1_554 S
C78 O71 1.247 . S
C78 O72 1.261 . S
C79 O74 1.259 . S
C79 O76 1.235 1_554 S
O80 Co70 2.021 . S
O80 C77 1.238 . S
O81 Co75 2.052 . S
O81 C77 1.241 1_556 S
O82 Co70 2.137 . S
O82 C73 1.247 . S
O83 Co70 2.244 1_556 S
O83 C73 1.272 1_556 S
O83 Co75 2.135 . S
Co84 O85 2.216 . S
Co84 O86 2.091 . S
Co84 O88 2.004 . S
Co84 O94 2.021 . S
Co84 O96 2.137 . S
Co84 O97 2.244 1_556 S
O85 Co84 2.216 . S
O85 C92 1.247 . S
O86 Co84 2.091 . S
O86 C92 1.261 . S
C87 O96 1.247 . S
C87 O97 1.272 1_556 S
O88 Co84 2.004 . S
O88 C93 1.259 . S
Co89 O90 2.061 . S
Co89 O95 2.052 . S
Co89 O97 2.135 . S
O90 Co89 2.061 . S
O90 C93 1.235 1_554 S
C91 O94 1.238 . S
C91 O95 1.241 1_556 S
C92 O85 1.247 . S
C92 O86 1.261 . S
C93 O88 1.259 . S
C93 O90 1.235 1_556 S
O94 Co84 2.021 . S
O94 C91 1.238 . S
O95 Co89 2.052 . S
O95 C91 1.241 1_554 S
O96 Co84 2.137 . S
O96 C87 1.247 . S
O97 Co84 2.244 1_554 S
O97 C87 1.272 1_554 S
O97 Co89 2.135 . S
Co98 O99 2.216 . S
Co98 O100 2.091 . S
Co98 O102 2.004 . S
Co98 O108 2.021 . S
Co98 O110 2.137 . S
Co98 O111 2.244 1_554 S
O99 Co98 2.216 . S
O99 C106 1.247 . S
O100 Co98 2.091 . S
O100 C106 1.261 . S
C101 O110 1.247 . S
C101 O111 1.272 1_554 S
O102 Co98 2.004 . S
O102 C107 1.259 . S
Co103 O104 2.061 . S
Co103 O109 2.052 . S
Co103 O111 2.135 . S
O104 Co103 2.061 . S
O104 C107 1.235 1_556 S
C105 O108 1.238 . S
C105 O109 1.241 1_554 S
C106 O99 1.247 . S
C106 O100 1.261 . S
C107 O102 1.259 . S
C107 O104 1.235 1_554 S
O108 Co98 2.021 . S
O108 C105 1.238 . S
O109 Co103 2.052 . S
O109 C105 1.241 1_556 S
O110 Co98 2.137 . S
O110 C101 1.247 . S
O111 Co98 2.244 1_556 S
O111 C101 1.272 1_556 S
O111 Co103 2.135 . S
C112 C113 1.170 . S
C112 C114 1.380 . S
C113 C112 1.170 . S
C114 C112 1.380 . S
C114 C115 1.170 . S
C115 C114 1.170 . S
C116 C117 1.170 . S
C116 C118 1.380 . S
C117 C116 1.170 . S
C118 C116 1.380 . S
C118 C119 1.170 . S
C119 C118 1.170 . S
C120 C121 1.170 . S
C120 C122 1.380 . S
C121 C120 1.170 . S
C122 C120 1.380 . S
C122 C123 1.170 . S
C123 C122 1.170 . S
C124 C125 1.170 . S
C124 C126 1.380 . S
C125 C124 1.170 . S
C126 C124 1.380 . S
C126 C127 1.170 . S
C127 C126 1.170 . S
C128 C129 1.170 . S
C128 C130 1.380 . S
C129 C128 1.170 . S
C130 C128 1.380 . S
C130 C131 1.170 . S
C131 C130 1.170 . S
C132 C133 1.170 . S
C132 C134 1.380 . S
C133 C132 1.170 . S
C134 C132 1.380 . S
C134 C135 1.170 . S
C135 C134 1.170 . S
C136 C137 1.170 . S
C136 C138 1.380 . S
C137 C136 1.170 . S
C138 C136 1.380 . S
C138 C139 1.170 . S
C139 C138 1.170 . S
C140 C141 1.170 . S
C140 C142 1.380 . S
C141 C140 1.170 . S
C142 C140 1.380 . S
C142 C143 1.170 . S
C143 C142 1.170 . S
C144 C145 1.170 . S
C144 C146 1.380 . S
C145 C144 1.170 . S
C146 C144 1.380 . S
C146 C147 1.170 1_554 S
C147 C146 1.170 1_556 S
C148 C149 1.170 . S
C148 C150 1.380 1_554 S
C149 C148 1.170 . S
C150 C148 1.380 1_556 S
C150 C151 1.171 . S
C151 C150 1.171 . S
C152 C153 1.172 . S
C152 C154 1.379 1_554 S
C153 C152 1.172 . S
C154 C152 1.379 1_556 S
C154 C155 1.170 . S
C155 C154 1.170 . S
C156 C157 1.170 . S
C156 C158 1.380 . S
C157 C156 1.170 . S
C158 C156 1.380 . S
C158 C159 1.170 1_556 S
C159 C158 1.170 1_554 S
C160 C161 1.170 . S
C160 C162 1.380 1_655 S
C161 C160 1.170 . S
C162 C160 1.380 1_455 S
C162 C163 1.170 . S
C163 C162 1.170 . S
C164 C165 1.170 . S
C164 C166 1.380 1_545 S
C165 C164 1.170 . S
C166 C164 1.380 1_565 S
C166 C167 1.170 . S
C167 C166 1.170 . S
C168 C169 1.170 . S
C168 C170 1.380 1_545 S
C169 C168 1.170 . S
C170 C168 1.380 1_565 S
C170 C171 1.170 . S
C171 C170 1.170 . S
C172 C173 1.170 . S
C172 C174 1.380 1_455 S
C173 C172 1.170 . S
C174 C172 1.380 1_655 S
C174 C175 1.170 . S
C175 C174 1.170 . S
C113 C106 1.547 . S
C115 C8 1.559 . S
C117 C17 1.543 . S
C119 C64 1.541 . S
C121 C36 1.546 . S
C123 C78 1.559 . S
C125 C92 1.540 . S
C127 C45 1.543 . S
C129 C21 1.430 . S
C131 C3 1.432 . S
C133 C22 1.461 . S
C135 C37 1.490 . S
C137 C49 1.446 . S
C139 C31 1.408 . S
C141 C50 1.477 . S
C143 C9 1.493 . S
C145 C107 1.550 . S
C147 C59 1.503 . S
C149 C73 1.456 . S
C151 C65 1.521 . S
C153 C79 1.549 . S
C155 C87 1.464 . S
C157 C93 1.523 . S
C159 C101 1.486 . S
C161 C35 1.202 . S
C163 C7 1.230 . S
C165 C51 1.131 . S
C167 C23 1.146 . S
C169 C91 1.225 . S
C171 C63 1.246 . S
C173 C105 1.253 . S
C175 C77 1.246 . S
