# Generated by pormake.
# Topology pcu, (6)-cn, num edge types: 1
# Building blocks:
#     Node 0, Type 0, BuildingBlock: PAMTOO_clean_sbu_0, # of connection points: 6
#     Edge 1, Type (0, 0), BuildingBlock: ZUJKAS_clean_linker_0, # of connection points: 2
#     Edge 2, Type (0, 0), BuildingBlock: ZUJKAS_clean_linker_0, # of connection points: 2
#     Edge 3, Type (0, 0), BuildingBlock: ZUJKAS_clean_linker_0, # of connection points: 2
# Relax obj value: 0.000
# Max RMSD: 0.000
# Mean RMSD: 0.000
data_MOF--net-pcu--node1-PAMTOO_clean_sbu_0--edge1-ZUJKAS_clean_linker_0
_symmetry_space_group_name_H-M    P1
_symmetry_Int_Tables_number       1
_symmetry_cell_setting            triclinic
loop_
_symmetry_equiv_pos_as_xyz
'x, y, z'
_cell_length_a     30.190542
_cell_length_b     19.851146
_cell_length_c     19.715347
_cell_angle_alpha  83.056387
_cell_angle_beta   98.549071
_cell_angle_gamma 118.09898
loop_
_atom_site_label
_atom_site_type_symbol
_atom_site_fract_x
_atom_site_fract_y
_atom_site_fract_z
_atom_type_partial_charge
Dy0 Dy 0.08706 0.03369 0.00785 0.0
Dy1 Dy 0.96192 0.9458 -0.00497 0.0
C2 C 0.0219 -0.00733 0.86444 0.0
O3 O 0.06382 0.12554 0.97639 0.0
O4 O 0.9843 0.06703 0.01253 0.0
O5 O 0.15745 0.10876 0.96545 0.0
O6 O 0.15772 0.05823 0.06929 0.0
O7 O 0.99267 0.93104 0.10295 0.0
O8 O 0.06267 0.0465 0.10467 0.0
O9 O 0.98294 0.85592 0.97824 0.0
O10 O 0.06442 0.90933 0.03083 0.0
O11 O 0.89435 0.8941 0.04709 0.0
O12 O 0.88841 0.89524 0.93627 0.0
C13 C 0.02406 0.1285 -0.00737 0.0
O14 O 0.0594 0.98776 0.90388 0.0
O15 O 0.98582 -0.00326 0.89086 0.0
C16 C 0.2256 0.08271 0.00797 0.0
C17 C 0.30563 0.05265 -0.00979 0.0
C18 C 0.25516 -0.00488 0.98148 0.0
C19 C 0.21545 0.01006 -0.00976 0.0
C20 C 0.27565 0.1402 0.01631 0.0
C21 C 0.31529 0.12541 0.00757 0.0
C22 C 0.18485 0.09927 0.01982 0.0
C23 C 0.02761 0.98899 0.13685 0.0
C24 C 0.02388 0.85068 0.00483 0.0
C25 C 0.82205 0.89878 0.98638 0.0
C26 C 0.73819 0.92772 0.98039 0.0
C27 C 0.74957 0.8861 0.03706 0.0
C28 C 0.79081 0.87159 0.03981 0.0
C29 C 0.81137 0.94136 0.93 0.0
C30 C 0.76984 0.95567 0.92706 0.0
C31 C 0.86418 0.87957 -0.00974 0.0
H32 H 0.24632 0.93871 0.96748 0.0
H33 H 0.17691 0.96494 0.98359 0.0
H34 H 0.28415 0.19647 0.03038 0.0
H35 H 0.35361 0.17067 0.01583 0.0
H36 H 0.72671 0.8649 0.07968 0.0
H37 H 0.7982 0.83859 0.08383 0.0
H38 H 0.8347 0.96298 0.88788 0.0
H39 H 0.76198 0.98728 0.88233 0.0
H40 H 0.97842 0.86903 0.22703 0.0
H41 H 0.97613 0.87313 0.34988 0.0
H42 H 0.06965 0.11781 0.33653 0.0
H43 H 0.07387 0.11355 0.21443 0.0
H44 H 0.10155 0.05862 0.44507 0.0
H45 H 0.89469 0.93855 0.44133 0.0
H46 H 0.91124 0.87466 0.40726 0.0
H47 H 0.92557 0.96666 0.36368 0.0
C48 C 0.99841 0.92368 0.25033 0.0
C49 C 0.02628 -0.00903 0.21115 0.0
C50 C 0.99669 0.92608 0.32043 0.0
C51 C 0.02172 -0.00397 0.35224 0.0
C52 C 0.0498 0.0632 0.31312 0.0
H53 H 0.97029 0.04487 0.76459 0.0
H54 H 0.97122 0.0501 0.63996 0.0
C55 C 0.05225 0.06067 0.24335 0.0
C56 C 1.02038 -0.00099 0.4268 0.0
H57 H 0.941 0.94358 0.55196 0.0
C58 C 0.06639 0.034 0.46829 0.0
C59 C 0.97454 0.96836 0.45706 0.0
C60 C 0.92376 0.93574 0.41486 0.0
C61 C 0.0679 0.03759 0.53926 0.0
C62 C 0.02216 0.00256 0.57017 0.0
C63 C 0.9761 0.96936 0.52849 0.0
C64 C 0.02134 -0.0009 0.64566 0.0
C65 C 0.11858 0.08018 0.57995 0.0
C66 C 0.04837 0.96744 0.69025 0.0
C67 C 0.04858 0.96562 0.76127 0.0
C68 C 1.02067 -0.00637 0.78917 0.0
C69 C 0.99219 0.02296 0.74454 0.0
C70 C 0.99271 0.02597 0.67337 0.0
H71 H 0.14666 0.12417 0.54692 0.0
H72 H 0.11574 0.10875 0.623 0.0
H73 H 0.13313 0.03924 0.60148 0.0
H74 H 0.06931 0.9439 0.67014 0.0
H75 H 0.07023 0.94152 0.79432 0.0
H76 H 0.39213 0.14634 0.92966 0.0
H77 H 0.46428 0.12369 0.92329 0.0
H78 H 0.38831 0.90142 0.02692 0.0
H79 H 0.31617 0.92389 0.03437 0.0
H80 H 0.52381 0.09353 0.0354 0.0
H81 H 0.43376 0.85642 0.85825 0.0
H82 H 0.40628 0.91778 0.86785 0.0
H83 H 0.40062 0.84205 0.93148 0.0
C84 C 0.39072 0.09262 0.95123 0.0
C85 C 0.34828 0.03698 0.98264 0.0
C86 C 0.43192 0.07966 0.94722 0.0
C87 C 0.43146 0.01059 0.97395 0.0
C88 C 0.38905 0.95454 0.00472 0.0
H89 H 0.6447 0.82769 0.01984 0.0
H90 H 0.57182 0.85043 0.0184 0.0
C91 C 0.3478 0.96748 0.00886 0.0
C92 C 0.47634 -0.0012 0.97237 0.0
H93 H 0.51601 0.88473 0.91112 0.0
C94 C 0.52225 0.04818 0.00791 0.0
C95 C 0.47409 0.93939 0.93673 0.0
C96 C 0.42619 0.88617 0.89587 0.0
C97 C 0.56577 0.03883 0.01 0.0
C98 C 0.5636 0.9795 0.97419 0.0
C99 C 0.51768 0.93027 0.93843 0.0
C100 C 0.60824 0.96644 0.97442 0.0
C101 C 0.61321 0.09119 0.05226 0.0
C102 C 0.65287 0.02374 0.9493 0.0
C103 C 0.69498 0.01128 0.95085 0.0
C104 C 0.69316 0.94092 0.97703 0.0
C105 C 0.64791 0.88311 0.00066 0.0
C106 C 0.60598 0.89575 -0.00067 0.0
H107 H 0.60496 0.11911 0.09081 0.0
H108 H 0.63327 0.05947 0.07951 0.0
H109 H 0.63889 0.1369 0.01779 0.0
H110 H 0.65518 0.0782 0.92846 0.0
H111 H 0.72918 0.05722 0.93254 0.0
H112 H 0.10259 0.81832 0.04928 0.0
H113 H 0.10461 0.69733 0.04423 0.0
H114 H 0.94994 0.59517 0.95353 0.0
H115 H 0.94748 0.71583 0.95774 0.0
H116 H 0.04239 0.55233 0.10474 0.0
H117 H 0.02442 0.54969 0.82048 0.0
H118 H 0.04125 0.63471 0.86418 0.0
H119 H 0.97656 0.56242 0.85318 0.0
C120 C 0.06893 0.77018 0.02827 0.0
C121 C 0.02488 0.77693 0.00375 0.0
C122 C 0.07022 0.70114 0.02538 0.0
C123 C 0.02769 0.6378 -0.00243 0.0
C124 C 0.98348 0.6439 0.97394 0.0
H125 H 0.95418 0.15994 0.03612 0.0
H126 H 0.95676 0.28474 0.03682 0.0
C127 C 0.9821 0.71285 0.97681 0.0
C128 C 0.02916 0.56474 -0.00534 0.0
H129 H 1.01694 0.43568 0.88413 0.0
C130 C 0.03704 0.52694 0.05654 0.0
C131 C 0.02269 0.53229 0.93159 0.0
C132 C 1.0162 0.57208 0.86347 0.0
C133 C 0.03741 0.45647 0.05711 0.0
C134 C 0.02938 0.42296 -0.00578 0.0
C135 C 0.02267 0.46148 0.93223 0.0
C136 C 0.02744 0.34748 -0.00795 0.0
C137 C 0.04663 0.41836 0.12483 0.0
C138 C 0.06593 0.34158 0.96537 0.0
C139 C 0.06473 0.27035 0.965 0.0
C140 C 0.02469 0.20375 -0.00928 0.0
C141 C 0.98565 0.20996 0.01606 0.0
C142 C 0.98709 0.28123 0.01677 0.0
H143 H 0.06169 0.45815 0.16714 0.0
H144 H 1.01053 0.36922 0.13828 0.0
H145 H 0.07361 0.39598 0.12106 0.0
H146 H 0.09725 0.39226 0.94579 0.0
H147 H 0.09529 0.26763 0.94487 0.0
loop_
_geom_bond_atom_site_label_1
_geom_bond_atom_site_label_2
_geom_bond_distance
_geom_bond_site_symmetry_2
_ccdc_geom_bond_type
Dy0 O3 2.307 . S
Dy0 O5 2.395 1_554 S
Dy0 O6 2.379 . S
Dy0 O8 2.339 . S
Dy0 O10 2.298 1_545 S
Dy0 O14 2.275 1_554 S
Dy0 C22 2.738 . S
Dy1 O4 2.298 1_565 S
Dy1 O7 2.275 1_556 S
Dy1 O9 2.307 . S
Dy1 O11 2.395 1_556 S
Dy1 O12 2.379 . S
Dy1 O15 2.339 . S
Dy1 C31 2.738 . S
C2 O14 1.254 1_665 S
C2 O15 1.257 . S
O3 Dy0 2.307 . S
O3 C13 1.275 1_554 S
O4 Dy1 2.298 1_545 S
O4 C13 1.232 1_655 S
O5 Dy0 2.395 1_556 S
O5 C22 1.255 1_556 S
O6 Dy0 2.379 . S
O6 C22 1.249 . S
O7 Dy1 2.275 1_554 S
O7 C23 1.254 1_665 S
O8 Dy0 2.339 . S
O8 C23 1.257 . S
O9 Dy1 2.307 . S
O9 C24 1.269 1_556 S
O10 Dy0 2.298 1_565 S
O10 C24 1.235 1_455 S
O11 Dy1 2.395 1_554 S
O11 C31 1.255 1_554 S
O12 Dy1 2.379 . S
O12 C31 1.249 . S
C13 O3 1.275 1_556 S
C13 O4 1.232 1_455 S
O14 Dy0 2.275 1_556 S
O14 C2 1.254 1_445 S
O15 Dy1 2.339 . S
O15 C2 1.257 . S
C16 C19 1.344 1_544 S
C16 C20 1.328 . S
C16 C22 1.516 . S
C17 C18 1.304 . S
C17 C21 1.323 1_566 S
C18 C17 1.304 . S
C18 C19 1.371 . S
C18 H32 0.930 . S
C19 C16 1.344 1_566 S
C19 C18 1.371 . S
C19 H33 0.931 . S
C20 C16 1.328 . S
C20 C21 1.433 . S
C20 H34 0.931 . S
C21 C17 1.323 1_544 S
C21 C20 1.433 . S
C21 H35 0.933 . S
C22 Dy0 2.738 . S
C22 O5 1.255 1_554 S
C22 O6 1.249 . S
C22 C16 1.516 . S
C23 O7 1.254 1_445 S
C23 O8 1.257 . S
C24 O9 1.269 1_554 S
C24 O10 1.235 1_655 S
C25 C28 1.344 1_566 S
C25 C29 1.328 . S
C25 C31 1.516 . S
C26 C27 1.304 . S
C26 C30 1.323 1_544 S
C27 C26 1.304 . S
C27 C28 1.371 . S
C27 H36 0.930 . S
C28 C25 1.344 1_544 S
C28 C27 1.371 . S
C28 H37 0.931 . S
C29 C25 1.328 . S
C29 C30 1.433 . S
C29 H38 0.931 . S
C30 C26 1.323 1_566 S
C30 C29 1.433 . S
C30 H39 0.933 . S
C31 Dy1 2.738 . S
C31 O11 1.255 1_556 S
C31 O12 1.249 . S
C31 C25 1.516 . S
H32 C18 0.930 . S
H33 C19 0.931 . S
H34 C20 0.931 . S
H35 C21 0.933 . S
H36 C27 0.930 . S
H37 C28 0.931 . S
H38 C29 0.931 . S
H39 C30 0.933 . S
H40 C48 0.929 . S
H41 C50 0.930 . S
H42 C52 0.930 . S
H43 C55 0.929 . S
H44 C58 0.930 . S
H45 C60 0.960 . S
H46 C60 0.960 . S
H47 C60 0.960 . S
C48 H40 0.929 . S
C48 C49 1.374 1_455 S
C48 C50 1.384 . S
C49 C48 1.374 1_655 S
C49 C55 1.394 1_565 S
C50 H41 0.930 . S
C50 C48 1.384 . S
C50 C51 1.383 . S
C51 C50 1.383 . S
C51 C52 1.391 1_465 S
C51 C56 1.488 . S
C52 H42 0.930 . S
C52 C51 1.391 1_645 S
C52 C55 1.386 . S
H53 C69 0.930 . S
H54 C70 0.931 . S
C55 H43 0.929 . S
C55 C49 1.394 1_545 S
C55 C52 1.386 . S
C56 C51 1.488 . S
C56 C58 1.395 1_565 S
C56 C59 1.403 1_455 S
H57 C63 0.930 . S
C58 H44 0.930 . S
C58 C56 1.395 1_545 S
C58 C61 1.403 . S
C59 C56 1.403 1_655 S
C59 C60 1.524 . S
C59 C63 1.400 . S
C60 H45 0.960 . S
C60 H46 0.960 . S
C60 H47 0.960 . S
C60 C59 1.524 . S
C61 C58 1.403 . S
C61 C62 1.392 . S
C61 C65 1.495 . S
C62 C61 1.392 . S
C62 C63 1.385 1_445 S
C62 C64 1.478 . S
C63 H57 0.930 . S
C63 C59 1.400 . S
C63 C62 1.385 1_665 S
C64 C62 1.478 . S
C64 C66 1.381 1_545 S
C64 C70 1.383 1_455 S
C65 C61 1.495 . S
C65 H71 0.959 . S
C65 H72 0.961 . S
C65 H73 0.960 . S
C66 C64 1.381 1_565 S
C66 C67 1.394 . S
C66 H74 0.930 . S
C67 C66 1.394 . S
C67 C68 1.383 1_565 S
C67 H75 0.929 . S
C68 C67 1.383 1_545 S
C68 C69 1.377 1_455 S
C69 H53 0.930 . S
C69 C68 1.377 1_655 S
C69 C70 1.379 . S
C70 H54 0.931 . S
C70 C64 1.383 1_655 S
C70 C69 1.379 . S
H71 C65 0.959 . S
H72 C65 0.961 . S
H73 C65 0.960 . S
H74 C66 0.930 . S
H75 C67 0.929 . S
H76 C84 0.929 . S
H77 C86 0.930 . S
H78 C88 0.930 . S
H79 C91 0.929 . S
H80 C94 0.930 . S
H81 C96 0.960 . S
H82 C96 0.960 . S
H83 C96 0.960 . S
C84 H76 0.929 . S
C84 C85 1.387 . S
C84 C86 1.384 . S
C85 C84 1.387 . S
C85 C91 1.379 1_546 S
C86 H77 0.930 . S
C86 C84 1.384 . S
C86 C87 1.372 . S
C87 C86 1.372 . S
C87 C88 1.400 1_546 S
C87 C92 1.490 . S
C88 H78 0.930 . S
C88 C87 1.400 1_564 S
C88 C91 1.386 . S
H89 C105 0.930 . S
H90 C106 0.931 . S
C91 H79 0.929 . S
C91 C85 1.379 1_564 S
C91 C88 1.386 . S
C92 C87 1.490 . S
C92 C94 1.394 1_556 S
C92 C95 1.403 1_545 S
H93 C99 0.930 . S
C94 H80 0.930 . S
C94 C92 1.394 1_554 S
C94 C97 1.403 . S
C95 C92 1.403 1_565 S
C95 C96 1.524 . S
C95 C99 1.400 . S
C96 H81 0.960 . S
C96 H82 0.960 . S
C96 H83 0.960 . S
C96 C95 1.524 . S
C97 C94 1.403 . S
C97 C98 1.392 . S
C97 C101 1.495 . S
C98 C97 1.392 . S
C98 C99 1.385 1_544 S
C98 C100 1.478 . S
C99 H93 0.930 . S
C99 C95 1.400 . S
C99 C98 1.385 1_566 S
C100 C98 1.478 . S
C100 C102 1.381 1_554 S
C100 C106 1.383 1_545 S
C101 C97 1.495 . S
C101 H107 0.959 . S
C101 H108 0.961 . S
C101 H109 0.960 . S
C102 C100 1.381 1_556 S
C102 C103 1.394 . S
C102 H110 0.930 . S
C103 C102 1.394 . S
C103 C104 1.383 1_556 S
C103 H111 0.929 . S
C104 C103 1.383 1_554 S
C104 C105 1.377 1_545 S
C105 H89 0.930 . S
C105 C104 1.377 1_565 S
C105 C106 1.379 . S
C106 H90 0.931 . S
C106 C100 1.383 1_565 S
C106 C105 1.379 . S
H107 C101 0.959 . S
H108 C101 0.961 . S
H109 C101 0.960 . S
H110 C102 0.930 . S
H111 C103 0.929 . S
H112 C120 0.929 . S
H113 C122 0.930 . S
H114 C124 0.930 . S
H115 C127 0.929 . S
H116 C130 0.930 . S
H117 C132 0.960 . S
H118 C132 0.960 1_455 S
H119 C132 0.960 . S
C120 H112 0.929 . S
C120 C121 1.394 1_554 S
C120 C122 1.384 . S
C121 C120 1.394 1_556 S
C121 C127 1.384 1_455 S
C122 H113 0.930 . S
C122 C120 1.384 . S
C122 C123 1.373 . S
C123 C122 1.373 . S
C123 C124 1.399 1_454 S
C123 C128 1.489 . S
C124 H114 0.930 . S
C124 C123 1.399 1_656 S
C124 C127 1.386 . S
H125 C141 0.930 . S
H126 C142 0.931 1_556 S
C127 H115 0.929 . S
C127 C121 1.384 1_655 S
C127 C124 1.386 . S
C128 C123 1.489 . S
C128 C130 1.395 . S
C128 C131 1.403 1_454 S
H129 C135 0.930 . S
C130 H116 0.930 . S
C130 C128 1.395 . S
C130 C133 1.403 . S
C131 C128 1.403 1_656 S
C131 C132 1.524 . S
C131 C135 1.400 . S
C132 H117 0.960 . S
C132 H118 0.960 1_655 S
C132 H119 0.960 . S
C132 C131 1.524 . S
C133 C130 1.403 . S
C133 C134 1.392 . S
C133 C137 1.495 . S
C134 C133 1.392 . S
C134 C135 1.385 1_454 S
C134 C136 1.478 . S
C135 H129 0.930 . S
C135 C131 1.400 . S
C135 C134 1.385 1_656 S
C136 C134 1.478 . S
C136 C138 1.381 . S
C136 C142 1.383 1_455 S
C137 C133 1.495 . S
C137 H143 0.959 . S
C137 H144 0.961 . S
C137 H145 0.960 . S
C138 C136 1.381 . S
C138 C139 1.394 . S
C138 H146 0.930 . S
C139 C138 1.394 . S
C139 C140 1.383 . S
C139 H147 0.929 . S
C140 C139 1.383 . S
C140 C141 1.377 1_454 S
C141 H125 0.930 . S
C141 C140 1.377 1_656 S
C141 C142 1.379 1_556 S
C142 H126 0.931 1_554 S
C142 C136 1.383 1_655 S
C142 C141 1.379 1_554 S
H143 C137 0.959 . S
H144 C137 0.961 . S
H145 C137 0.960 . S
H146 C138 0.930 . S
H147 C139 0.929 . S
C49 C23 1.466 1_665 S
C68 C2 1.484 1_445 S
C85 C17 1.500 1_545 S
C104 C26 1.490 . S
C121 C24 1.486 1_456 S
C140 C13 1.495 1_554 S
