# Generated by pormake.
# Topology kag, (6)-cn, num edge types: 1
# Building blocks:
#     Node 0, Type 0, BuildingBlock: PAMTUU_clean_sbu_0, # of connection points: 6
#     Node 1, Type 0, BuildingBlock: PAMTUU_clean_sbu_0, # of connection points: 6
#     Node 2, Type 0, BuildingBlock: PAMTUU_clean_sbu_0, # of connection points: 6
#     Edge 3, Type (0, 0), None
#     Edge 4, Type (0, 0), None
#     Edge 5, Type (0, 0), None
#     Edge 6, Type (0, 0), None
#     Edge 7, Type (0, 0), None
#     Edge 8, Type (0, 0), None
#     Edge 9, Type (0, 0), None
#     Edge 10, Type (0, 0), None
#     Edge 11, Type (0, 0), None
# Relax obj value: 0.289
# Max RMSD: 0.286
# Mean RMSD: 0.197
data_MOF--net-kag--node1-PAMTUU_clean_sbu_0--edge1-none
_symmetry_space_group_name_H-M    P1
_symmetry_Int_Tables_number       1
_symmetry_cell_setting            triclinic
loop_
_symmetry_equiv_pos_as_xyz
'x, y, z'
_cell_length_a     30.805518
_cell_length_b     13.841761
_cell_length_c     6.8183369
_cell_angle_alpha  85.590864
_cell_angle_beta   98.782897
_cell_angle_gamma 126.60852
loop_
_atom_site_label
_atom_site_type_symbol
_atom_site_fract_x
_atom_site_fract_y
_atom_site_fract_z
_atom_type_partial_charge
Tb0 Tb 0.10357 0.7466 0.9622 0.0
Tb1 Tb 1.07727 0.47409 -0.00923 0.0
C2 C 0.09063 0.61037 0.58387 0.0
C3 C 1.06162 0.94206 0.96781 0.0
C4 C 0.96692 0.92465 0.00302 0.0
C5 C 0.99335 0.97417 0.83284 0.0
C6 C 1.04027 0.98283 0.81556 0.0
C7 C 1.03636 0.89652 0.14083 0.0
C8 C 0.9897 0.88834 0.15846 0.0
C9 C 0.10437 0.93018 0.932 0.0
O10 O 1.01545 0.61318 0.94736 0.0
O11 O 0.99535 0.42325 -0.021 0.0
O12 O 1.06639 0.50717 0.27857 0.0
O13 O 0.1135 0.71354 0.27752 0.0
O14 O 1.05173 0.31029 0.86656 0.0
O15 O 0.09027 0.36087 0.16924 0.0
O16 O 0.16544 0.60741 0.00507 0.0
O17 O 0.18552 0.7974 0.97525 0.0
O18 O 0.11471 0.71365 0.67482 0.0
O19 O 1.06712 0.50719 0.67556 0.0
C20 C 0.98055 0.49547 0.9589 0.0
O21 O 0.12899 0.9105 0.08555 0.0
O22 O 0.09032 0.8593 0.7831 0.0
C23 C 0.09023 0.61041 0.36932 0.0
C24 C 0.11878 0.27785 -0.01573 0.0
C25 C 0.21351 0.29521 0.95035 0.0
C26 C 0.18678 0.24511 0.11979 0.0
C27 C 0.13985 0.23649 0.13645 0.0
C28 C 0.14426 0.32374 0.81174 0.0
C29 C 0.19095 0.33189 0.79472 0.0
C30 C 1.07616 0.29012 0.02005 0.0
C31 C 0.20034 0.72521 -0.0055 0.0
H32 H 0.97738 1.00479 0.71189 0.0
H33 H 1.05881 1.0175 0.68018 0.0
H34 H 1.05122 0.86241 0.25957 0.0
H35 H 0.97014 0.84867 0.29073 0.0
H36 H 0.20256 0.21411 0.2408 0.0
H37 H 0.12113 0.2015 0.2714 0.0
H38 H 0.12958 0.35827 0.69307 0.0
H39 H 0.21073 0.37193 0.66299 0.0
Tb40 Tb 0.51989 1.02077 0.9422 0.0
Tb41 Tb 0.66108 0.2001 0.00879 0.0
C42 C 0.59107 0.10983 0.58289 0.0
C43 C 0.36532 0.85704 0.94251 0.0
C44 C 0.2586 0.77538 -0.00742 0.0
C45 C 0.29697 0.89454 0.93579 0.0
C46 C 0.34976 0.93485 0.91003 0.0
C47 C 0.32783 0.74025 0.0083 0.0
C48 C 0.27533 0.69999 0.03337 0.0
C49 C 0.41639 0.88746 0.88213 0.0
O50 O 0.54181 0.89737 0.93791 0.0
O51 O 0.63665 1.0169 -0.00135 0.0
O52 O 0.63755 0.17579 0.30199 0.0
O53 O 0.54252 1.04676 0.26003 0.0
O54 O 0.73528 0.3575 0.93838 0.0
O55 O 0.73438 0.23841 0.1643 0.0
O56 O 0.63814 0.32286 0.97618 0.0
O57 O 0.54478 0.20195 -0.01012 0.0
O58 O 0.54441 1.06158 0.64828 0.0
O59 O 0.63815 0.15686 0.69488 0.0
C60 C 0.5886 0.91166 0.96929 0.0
O61 O 0.44503 0.86128 0.00266 0.0
O62 O 0.44732 0.98837 0.79168 0.0
C63 C 0.59035 0.11046 0.36959 0.0
C64 C 0.81575 0.36542 0.00851 0.0
C65 C 0.92234 0.44564 0.9604 0.0
C66 C 0.88391 0.32706 0.01954 0.0
C67 C 0.83115 0.28744 0.04436 0.0
C68 C 0.85329 0.48153 0.94066 0.0
C69 C 0.90573 0.52109 0.91659 0.0
C70 C 0.7646 0.33612 0.06566 0.0
C71 C 0.59196 0.30786 -0.01803 0.0
H72 H 0.28559 0.95509 0.90301 0.0
H73 H 0.37755 1.02521 0.85754 0.0
H74 H 0.33834 0.67776 0.03219 0.0
H75 H 0.24725 0.60786 0.07841 0.0
H76 H 0.89523 0.26653 0.05469 0.0
H77 H 0.80324 0.19756 0.09834 0.0
H78 H 0.84284 0.54404 0.91404 0.0
H79 H 0.93384 0.61277 0.86966 0.0
Tb80 Tb 0.65978 0.70044 0.00945 0.0
Tb81 Tb 0.52059 0.51815 0.94456 0.0
C82 C 0.58973 0.60983 0.36787 0.0
C83 C 0.81411 0.86294 0.0504 0.0
C84 C 0.91474 0.90655 0.01681 0.0
C85 C 0.90501 0.92876 0.19711 0.0
C86 C 0.8553 0.90724 0.21343 0.0
C87 C 0.82354 0.84112 0.86921 0.0
C88 C 0.87348 0.86286 0.85258 0.0
C89 C 0.76304 0.84529 0.07482 0.0
O90 O 0.64013 0.523 0.9757 0.0
O91 O 0.54627 0.40009 -0.02219 0.0
O92 O 0.54424 0.56215 0.64885 0.0
O93 O 0.63744 0.65462 0.69526 0.0
O94 O 0.44752 0.37587 0.0485 0.0
O95 O 0.44664 0.44855 0.75802 0.0
O96 O 0.53967 0.69661 0.94941 0.0
O97 O 0.63453 0.81878 -0.00061 0.0
O98 O 0.63442 0.6434 0.30155 0.0
O99 O 0.54458 0.57698 0.25317 0.0
C100 C 0.59304 0.41639 -0.02105 0.0
O101 O 0.73372 0.84779 0.91783 0.0
O102 O 0.73281 0.76215 0.19659 0.0
C103 C 0.59059 0.60907 0.5823 0.0
C104 C 0.36649 0.35637 0.90887 0.0
C105 C 0.26583 0.31371 0.93798 0.0
C106 C 0.27606 0.2921 0.75833 0.0
C107 C 0.32578 0.31307 0.74423 0.0
C108 C 0.35658 0.37801 0.08913 0.0
C109 C 0.30665 0.3568 0.1035 0.0
C110 C 0.41728 0.37169 0.88831 0.0
C111 C 0.58736 0.80292 0.97156 0.0
H112 H 0.93603 0.96372 0.32568 0.0
H113 H 0.84908 0.9258 0.35406 0.0
H114 H 0.79242 0.80713 0.74101 0.0
H115 H 0.87939 0.84333 0.71228 0.0
H116 H 0.24537 0.25769 0.62874 0.0
H117 H 0.33231 0.29449 0.60431 0.0
H118 H 0.38725 0.41111 0.21869 0.0
H119 H 0.30037 0.37597 0.24331 0.0
loop_
_geom_bond_atom_site_label_1
_geom_bond_atom_site_label_2
_geom_bond_distance
_geom_bond_site_symmetry_2
_ccdc_geom_bond_type
Tb0 C9 2.764 . S
Tb0 O10 2.325 . S
Tb0 O13 2.303 1_656 S
Tb0 O17 2.322 1_655 S
Tb0 O18 2.349 . S
Tb0 O21 2.415 1_556 S
Tb0 O22 2.399 . S
Tb1 O11 2.322 1_455 S
Tb1 O12 2.349 . S
Tb1 O14 2.415 1_554 S
Tb1 O15 2.399 . S
Tb1 O16 2.325 . S
Tb1 O19 2.305 1_554 S
Tb1 C30 2.764 . S
C2 O18 1.261 . S
C2 O19 1.255 1_655 S
C3 C6 1.358 1_554 S
C3 C7 1.332 . S
C3 C9 1.504 1_554 S
C4 C5 1.373 1_554 S
C4 C8 1.308 . S
C5 C4 1.373 1_556 S
C5 C6 1.429 . S
C5 H32 0.932 . S
C6 C3 1.358 1_556 S
C6 C5 1.429 . S
C6 H33 0.930 . S
C7 C3 1.332 . S
C7 C8 1.394 . S
C7 H34 0.932 . S
C8 C4 1.308 . S
C8 C7 1.394 . S
C8 H35 0.929 . S
C9 Tb0 2.764 . S
C9 C3 1.504 1_556 S
C9 O21 1.239 1_556 S
C9 O22 1.263 . S
O10 Tb0 2.325 . S
O10 C20 1.236 . S
O11 Tb1 2.322 1_655 S
O11 C20 1.257 1_554 S
O12 Tb1 2.349 . S
O12 C23 1.261 . S
O13 Tb0 2.303 1_454 S
O13 C23 1.257 . S
O14 Tb1 2.415 1_556 S
O14 C30 1.239 1_556 S
O15 Tb1 2.399 . S
O15 C30 1.263 . S
O16 Tb1 2.325 . S
O16 C31 1.236 . S
O17 Tb0 2.322 1_455 S
O17 C31 1.257 1_556 S
O18 Tb0 2.349 . S
O18 C2 1.261 . S
O19 Tb1 2.305 1_556 S
O19 C2 1.255 1_455 S
C20 O10 1.236 . S
C20 O11 1.257 1_556 S
O21 Tb0 2.415 1_554 S
O21 C9 1.239 1_554 S
O22 Tb0 2.399 . S
O22 C9 1.263 . S
C23 O12 1.261 . S
C23 O13 1.257 . S
C24 C27 1.358 1_556 S
C24 C28 1.332 . S
C24 C30 1.504 1_556 S
C25 C26 1.373 1_556 S
C25 C29 1.308 . S
C26 C25 1.373 1_554 S
C26 C27 1.429 . S
C26 H36 0.932 . S
C27 C24 1.358 1_554 S
C27 C26 1.429 . S
C27 H37 0.930 . S
C28 C24 1.332 . S
C28 C29 1.394 . S
C28 H38 0.932 . S
C29 C25 1.308 . S
C29 C28 1.394 . S
C29 H39 0.929 . S
C30 Tb1 2.764 . S
C30 O14 1.239 1_554 S
C30 O15 1.263 . S
C30 C24 1.504 1_554 S
C31 O16 1.236 . S
C31 O17 1.257 1_554 S
H32 C5 0.932 . S
H33 C6 0.930 . S
H34 C7 0.932 . S
H35 C8 0.929 . S
H36 C26 0.932 . S
H37 C27 0.930 . S
H38 C28 0.932 . S
H39 C29 0.929 . S
Tb40 C49 2.764 . S
Tb40 O50 2.325 . S
Tb40 O53 2.303 1_556 S
Tb40 O57 2.322 1_565 S
Tb40 O58 2.349 . S
Tb40 O61 2.415 1_556 S
Tb40 O62 2.399 . S
Tb41 O51 2.322 1_545 S
Tb41 O52 2.349 . S
Tb41 O54 2.415 1_554 S
Tb41 O55 2.399 . S
Tb41 O56 2.325 . S
Tb41 O59 2.303 1_554 S
Tb41 C70 2.764 . S
C42 O58 1.261 . S
C42 O59 1.257 1_565 S
C43 C46 1.358 . S
C43 C47 1.332 1_556 S
C43 C49 1.504 . S
C44 C45 1.371 1_554 S
C44 C48 1.309 . S
C45 C44 1.371 1_556 S
C45 C46 1.429 . S
C45 H72 0.932 . S
C46 C43 1.358 . S
C46 C45 1.429 . S
C46 H73 0.930 . S
C47 C43 1.332 1_554 S
C47 C48 1.394 . S
C47 H74 0.932 . S
C48 C44 1.309 . S
C48 C47 1.394 . S
C48 H75 0.929 . S
C49 Tb40 2.764 . S
C49 C43 1.504 . S
C49 O61 1.239 1_556 S
C49 O62 1.263 . S
O50 Tb40 2.325 . S
O50 C60 1.236 1_556 S
O51 Tb41 2.322 1_565 S
O51 C60 1.257 . S
O52 Tb41 2.349 . S
O52 C63 1.261 . S
O53 Tb40 2.303 1_554 S
O53 C63 1.257 1_565 S
O54 Tb41 2.415 1_556 S
O54 C70 1.239 1_556 S
O55 Tb41 2.399 . S
O55 C70 1.263 . S
O56 Tb41 2.325 . S
O56 C71 1.236 1_554 S
O57 Tb40 2.322 1_545 S
O57 C71 1.257 . S
O58 Tb40 2.349 . S
O58 C42 1.261 . S
O59 Tb41 2.303 1_556 S
O59 C42 1.257 1_545 S
C60 O50 1.236 1_554 S
C60 O51 1.257 . S
O61 Tb40 2.415 1_554 S
O61 C49 1.239 1_554 S
O62 Tb40 2.399 . S
O62 C49 1.263 . S
C63 O52 1.261 . S
C63 O53 1.257 1_545 S
C64 C67 1.358 . S
C64 C68 1.332 1_554 S
C64 C70 1.504 . S
C65 C66 1.373 1_556 S
C65 C69 1.308 . S
C66 C65 1.373 1_554 S
C66 C67 1.429 . S
C66 H76 0.932 . S
C67 C64 1.358 . S
C67 C66 1.429 . S
C67 H77 0.930 . S
C68 C64 1.332 1_556 S
C68 C69 1.394 . S
C68 H78 0.932 . S
C69 C65 1.308 . S
C69 C68 1.394 . S
C69 H79 0.929 . S
C70 Tb41 2.764 . S
C70 O54 1.239 1_554 S
C70 O55 1.263 . S
C70 C64 1.504 . S
C71 O56 1.236 1_556 S
C71 O57 1.257 . S
H72 C45 0.932 . S
H73 C46 0.930 . S
H74 C47 0.932 . S
H75 C48 0.929 . S
H76 C66 0.932 . S
H77 C67 0.930 . S
H78 C68 0.932 . S
H79 C69 0.929 . S
Tb80 C89 2.764 . S
Tb80 O90 2.325 . S
Tb80 O93 2.303 1_554 S
Tb80 O97 2.322 . S
Tb80 O98 2.349 . S
Tb80 O101 2.415 1_554 S
Tb80 O102 2.399 . S
Tb81 O91 2.322 . S
Tb81 O92 2.349 . S
Tb81 O94 2.415 1_556 S
Tb81 O95 2.399 . S
Tb81 O96 2.325 . S
Tb81 O99 2.303 1_556 S
Tb81 C110 2.764 . S
C82 O98 1.261 . S
C82 O99 1.257 . S
C83 C86 1.358 . S
C83 C87 1.332 1_554 S
C83 C89 1.504 . S
C84 C85 1.373 . S
C84 C88 1.308 1_554 S
C85 C84 1.373 . S
C85 C86 1.429 . S
C85 H112 0.932 . S
C86 C83 1.358 . S
C86 C85 1.429 . S
C86 H113 0.930 . S
C87 C83 1.332 1_556 S
C87 C88 1.394 . S
C87 H114 0.932 . S
C88 C84 1.308 1_556 S
C88 C87 1.394 . S
C88 H115 0.929 . S
C89 Tb80 2.764 . S
C89 C83 1.504 . S
C89 O101 1.239 1_554 S
C89 O102 1.263 . S
O90 Tb80 2.325 . S
O90 C100 1.236 1_554 S
O91 Tb81 2.322 . S
O91 C100 1.257 . S
O92 Tb81 2.349 . S
O92 C103 1.261 . S
O93 Tb80 2.303 1_556 S
O93 C103 1.257 . S
O94 Tb81 2.415 1_554 S
O94 C110 1.239 1_554 S
O95 Tb81 2.399 . S
O95 C110 1.263 . S
O96 Tb81 2.325 . S
O96 C111 1.236 1_556 S
O97 Tb80 2.322 . S
O97 C111 1.257 . S
O98 Tb80 2.349 . S
O98 C82 1.261 . S
O99 Tb81 2.303 1_554 S
O99 C82 1.257 . S
C100 O90 1.236 1_556 S
C100 O91 1.257 . S
O101 Tb80 2.415 1_556 S
O101 C89 1.239 1_556 S
O102 Tb80 2.399 . S
O102 C89 1.263 . S
C103 O92 1.261 . S
C103 O93 1.257 . S
C104 C107 1.358 . S
C104 C108 1.332 1_556 S
C104 C110 1.504 . S
C105 C106 1.373 . S
C105 C109 1.308 1_556 S
C106 C105 1.373 . S
C106 C107 1.429 . S
C106 H116 0.932 . S
C107 C104 1.358 . S
C107 C106 1.429 . S
C107 H117 0.930 . S
C108 C104 1.332 1_554 S
C108 C109 1.394 . S
C108 H118 0.932 . S
C109 C105 1.308 1_554 S
C109 C108 1.394 . S
C109 H119 0.929 . S
C110 Tb81 2.764 . S
C110 O94 1.239 1_556 S
C110 O95 1.263 . S
C110 C104 1.504 . S
C111 O96 1.236 1_554 S
C111 O97 1.257 . S
H112 C85 0.932 . S
H113 C86 0.930 . S
H114 C87 0.932 . S
H115 C88 0.929 . S
H116 C106 0.932 . S
H117 C107 0.930 . S
H118 C108 0.932 . S
H119 C109 0.929 . S
C2 C23 1.476 1_655 S
C63 C42 1.561 1_545 S
C103 C82 1.513 . S
C25 C105 1.322 . S
C65 C20 4.395 . S
C60 C111 3.990 . S
C4 C84 1.323 . S
C31 C44 4.397 . S
C100 C71 3.991 . S
