# Generated by pormake.
# Topology dmp, (4)-cn, num edge types: 1
# Building blocks:
#     Node 0, Type 0, BuildingBlock: GALJAG_clean_sbu_0, # of connection points: 4
#     Node 1, Type 0, BuildingBlock: GALJAG_clean_sbu_0, # of connection points: 4
#     Node 2, Type 0, BuildingBlock: GALJAG_clean_sbu_0, # of connection points: 4
#     Node 3, Type 0, BuildingBlock: GALJAG_clean_sbu_0, # of connection points: 4
#     Edge 4, Type (0, 0), BuildingBlock: OJICUG_clean_linker_0, # of connection points: 2
#     Edge 5, Type (0, 0), BuildingBlock: OJICUG_clean_linker_0, # of connection points: 2
#     Edge 6, Type (0, 0), BuildingBlock: OJICUG_clean_linker_0, # of connection points: 2
#     Edge 7, Type (0, 0), BuildingBlock: OJICUG_clean_linker_0, # of connection points: 2
#     Edge 8, Type (0, 0), BuildingBlock: OJICUG_clean_linker_0, # of connection points: 2
#     Edge 9, Type (0, 0), BuildingBlock: OJICUG_clean_linker_0, # of connection points: 2
#     Edge 10, Type (0, 0), BuildingBlock: OJICUG_clean_linker_0, # of connection points: 2
#     Edge 11, Type (0, 0), BuildingBlock: OJICUG_clean_linker_0, # of connection points: 2
# Relax obj value: 0.059
# Max RMSD: 0.179
# Mean RMSD: 0.179
data_MOF--net-dmp--node1-GALJAG_clean_sbu_0--edge1-OJICUG_clean_linker_0
_symmetry_space_group_name_H-M    P1
_symmetry_Int_Tables_number       1
_symmetry_cell_setting            triclinic
loop_
_symmetry_equiv_pos_as_xyz
'x, y, z'
_cell_length_a     27.093539
_cell_length_b     15.614429
_cell_length_c     9.1867451
_cell_angle_alpha  89.998913
_cell_angle_beta   91.657461
_cell_angle_gamma 90.012633
loop_
_atom_site_label
_atom_site_type_symbol
_atom_site_fract_x
_atom_site_fract_y
_atom_site_fract_z
_atom_type_partial_charge
In0 In 0.10821 0.25364 0.25109 0.0
O1 O 0.14267 0.33174 0.06663 0.0
O2 O 0.14944 0.3755 0.2873 0.0
C3 C 0.05049 0.13293 0.12596 0.0
C4 C 0.04375 0.35652 0.37933 0.0
C5 C 0.1848 0.15813 0.34733 0.0
O6 O 0.07223 0.18901 0.05147 0.0
O7 O 0.05763 0.13895 0.26186 0.0
O8 O 0.14817 0.17144 0.42668 0.0
O9 O 0.18219 0.19289 0.22356 0.0
C10 C 0.15825 0.3887 0.15513 0.0
O11 O 0.07617 0.31491 0.45213 0.0
O12 O 0.04212 0.34136 0.24419 0.0
In13 In 0.3721 0.7539 0.24723 0.0
O14 O 0.33775 0.83184 0.43203 0.0
O15 O 0.33087 0.87578 0.21148 0.0
C16 C 0.42986 0.63311 0.37183 0.0
C17 C 0.43649 0.85675 0.1185 0.0
C18 C 0.29545 0.65835 0.15137 0.0
O19 O 0.40823 0.6892 0.44654 0.0
O20 O 0.42259 0.63917 0.23598 0.0
O21 O 0.33201 0.67177 0.07177 0.0
O22 O 0.29815 0.69306 0.27517 0.0
C23 C 0.32212 0.88886 0.34373 0.0
O24 O 0.40399 0.81515 0.04595 0.0
O25 O 0.43822 0.84163 0.25366 0.0
In26 In 0.87238 0.74278 0.74703 0.0
O27 O 0.90458 0.68168 0.54611 0.0
O28 O 0.93834 0.65478 0.75431 0.0
C29 C 0.79585 0.83857 0.6514 0.0
C30 C 0.82206 0.60773 0.84174 0.0
C31 C 0.93019 0.8633 0.87221 0.0
O32 O 0.83234 0.82498 0.57161 0.0
O33 O 0.79859 0.80399 0.77531 0.0
O34 O 0.90843 0.80724 0.94669 0.0
O35 O 0.92302 0.85736 0.7363 0.0
C36 C 0.93686 0.63983 0.61909 0.0
O37 O 0.83778 0.6643 0.93078 0.0
O38 O 0.8309 0.6213 0.70968 0.0
In39 In 0.60795 0.24249 0.74898 0.0
O40 O 0.64244 0.16417 0.56489 0.0
O41 O 0.64944 0.12101 0.78587 0.0
C42 C 0.55007 0.36307 0.62436 0.0
C43 C 0.54356 0.13955 0.87745 0.0
C44 C 0.68454 0.33836 0.84414 0.0
O45 O 0.57172 0.30701 0.54965 0.0
O46 O 0.55737 0.35709 0.76022 0.0
O47 O 0.64813 0.32465 0.92422 0.0
O48 O 0.68169 0.30383 0.72021 0.0
C49 C 0.65821 0.10756 0.65374 0.0
O50 O 0.57591 0.1814 0.95016 0.0
O51 O 0.54197 0.15447 0.74221 0.0
C52 C 0.30386 0.04162 0.3103 0.0
C53 C 0.29454 0.96545 0.38525 0.0
H54 H 0.27646 0.16384 0.24345 0.0
C55 C 0.25321 0.96007 0.4736 0.0
H56 H 0.33578 0.04723 0.24241 0.0
C57 C 0.21874 0.02724 0.47362 0.0
C58 C 0.22573 0.09957 0.3853 0.0
H59 H 0.24529 0.90139 0.53134 0.0
H60 H 0.18486 0.01929 0.53193 0.0
C61 C 0.26987 0.10818 0.31067 0.0
C62 C 0.22703 0.46024 0.02509 0.0
C63 C 0.18581 0.46539 0.11389 0.0
H64 H 0.29527 0.51973 0.96627 0.0
C65 C 0.17653 0.54143 0.18924 0.0
H66 H 0.2349 0.40167 0.96699 0.0
C67 C 0.21047 0.60808 0.18878 0.0
C68 C 0.25452 0.59971 0.11363 0.0
H69 H 0.14468 0.54687 0.25745 0.0
H70 H 0.20392 0.66364 0.25627 0.0
C71 C 0.26146 0.52751 0.02498 0.0
C72 C 0.72715 0.0362 0.5242 0.0
C73 C 0.68592 0.03096 0.61295 0.0
H74 H 0.79549 0.97699 0.46576 0.0
C75 C 0.67677 0.95502 0.68875 0.0
H76 H 0.73493 0.0947 0.46579 0.0
C77 C 0.71083 0.88857 0.68871 0.0
C78 C 0.75487 0.89705 0.61353 0.0
H79 H 0.64492 0.94952 0.75695 0.0
H80 H 0.70436 0.8331 0.75647 0.0
C81 C 0.7617 0.96913 0.5245 0.0
C82 C 0.80347 0.45525 0.80595 0.0
C83 C 0.79438 0.53103 0.88225 0.0
H84 H 0.77587 0.33337 0.73793 0.0
C85 C 0.75325 0.53601 0.97145 0.0
H86 H 0.83524 0.44993 0.73741 0.0
C87 C 0.71874 0.46885 0.97118 0.0
C88 C 0.7255 0.39694 0.88174 0.0
H89 H 0.74552 0.59438 0.03028 0.0
H90 H 0.68502 0.47651 0.03035 0.0
C91 C 0.76945 0.38872 0.80603 0.0
C92 C -0.00316 0.00376 0.15012 0.0
C93 C 0.01955 0.06437 0.06058 0.0
H94 H 0.95082 0.89244 0.16083 0.0
C95 C 0.01281 0.05806 0.90897 0.0
H96 H 0.00143 0.00694 0.26752 0.0
C97 C 0.98389 0.9924 0.84806 0.0
C98 C 0.96117 0.93181 0.9376 0.0
H99 H 0.02991 0.10373 0.83735 0.0
H100 H 0.9793 0.98924 0.73066 0.0
C101 C 0.96792 0.9381 0.0892 0.0
C102 C 0.5221 0.04646 0.08751 0.0
C103 C 0.51458 0.06971 0.94101 0.0
H104 H 0.50394 0.95959 0.25778 0.0
C105 C 0.48229 0.02075 0.85198 0.0
H106 H 0.54718 0.08244 0.15822 0.0
C107 C 0.45795 0.94983 0.90842 0.0
C108 C 0.46547 0.92658 0.05492 0.0
H109 H 0.47612 0.03671 0.73814 0.0
H110 H 0.43287 0.91386 0.83771 0.0
C111 C 0.49777 0.97554 0.14394 0.0
C112 C -0.00199 0.52093 0.64515 0.0
C113 C 0.96581 0.56988 0.55584 0.0
H114 H 0.0473 0.41392 0.65995 0.0
C115 C 0.95833 0.54648 0.4094 0.0
H116 H 0.00415 0.537 0.75895 0.0
C117 C 0.9826 0.47542 0.3533 0.0
C118 C 0.0148 0.42647 0.4426 0.0
H119 H 0.93331 0.58244 0.33848 0.0
H120 H 0.97646 0.45935 0.2395 0.0
C121 C 0.02229 0.44987 0.58904 0.0
C122 C 0.46761 0.55802 0.58846 0.0
C123 C 0.46078 0.56445 0.43691 0.0
H124 H 0.50116 0.48898 0.76646 0.0
C125 C 0.48336 0.50385 0.34711 0.0
H126 H 0.4506 0.60367 0.66029 0.0
C127 C 0.51225 0.43808 0.40772 0.0
C128 C 0.51909 0.43167 0.55928 0.0
H129 H 0.4787 0.50712 0.22973 0.0
H130 H 0.52926 0.39243 0.3359 0.0
C131 C 0.4965 0.49225 0.64908 0.0
loop_
_geom_bond_atom_site_label_1
_geom_bond_atom_site_label_2
_geom_bond_distance
_geom_bond_site_symmetry_2
_ccdc_geom_bond_type
In0 O1 2.294 . S
In0 O2 2.326 . S
In0 O6 2.266 . S
In0 O7 2.326 . S
In0 O8 2.266 . S
In0 O9 2.326 . S
In0 O11 2.294 . S
In0 O12 2.326 . S
O1 In0 2.294 . S
O1 C10 1.240 . S
O2 In0 2.326 . S
O2 C10 1.252 . S
C3 O6 1.252 . S
C3 O7 1.260 . S
C4 O11 1.240 . S
C4 O12 1.252 . S
C5 O8 1.252 . S
C5 O9 1.260 . S
O6 In0 2.266 . S
O6 C3 1.252 . S
O7 In0 2.326 . S
O7 C3 1.260 . S
O8 In0 2.266 . S
O8 C5 1.252 . S
O9 In0 2.326 . S
O9 C5 1.260 . S
C10 O1 1.240 . S
C10 O2 1.252 . S
O11 In0 2.294 . S
O11 C4 1.240 . S
O12 In0 2.326 . S
O12 C4 1.252 . S
In13 O14 2.294 . S
In13 O15 2.326 . S
In13 O19 2.266 . S
In13 O20 2.326 . S
In13 O21 2.266 . S
In13 O22 2.326 . S
In13 O24 2.294 . S
In13 O25 2.326 . S
O14 In13 2.294 . S
O14 C23 1.240 . S
O15 In13 2.326 . S
O15 C23 1.252 . S
C16 O19 1.252 . S
C16 O20 1.260 . S
C17 O24 1.240 . S
C17 O25 1.252 . S
C18 O21 1.252 . S
C18 O22 1.260 . S
O19 In13 2.266 . S
O19 C16 1.252 . S
O20 In13 2.326 . S
O20 C16 1.260 . S
O21 In13 2.266 . S
O21 C18 1.252 . S
O22 In13 2.326 . S
O22 C18 1.260 . S
C23 O14 1.240 . S
C23 O15 1.252 . S
O24 In13 2.294 . S
O24 C17 1.240 . S
O25 In13 2.326 . S
O25 C17 1.252 . S
In26 O27 2.294 . S
In26 O28 2.326 . S
In26 O32 2.266 . S
In26 O33 2.326 . S
In26 O34 2.266 . S
In26 O35 2.326 . S
In26 O37 2.294 . S
In26 O38 2.326 . S
O27 In26 2.294 . S
O27 C36 1.240 . S
O28 In26 2.326 . S
O28 C36 1.252 . S
C29 O32 1.252 . S
C29 O33 1.260 . S
C30 O37 1.240 . S
C30 O38 1.252 . S
C31 O34 1.252 . S
C31 O35 1.260 . S
O32 In26 2.266 . S
O32 C29 1.252 . S
O33 In26 2.326 . S
O33 C29 1.260 . S
O34 In26 2.266 . S
O34 C31 1.252 . S
O35 In26 2.326 . S
O35 C31 1.260 . S
C36 O27 1.240 . S
C36 O28 1.252 . S
O37 In26 2.294 . S
O37 C30 1.240 . S
O38 In26 2.326 . S
O38 C30 1.252 . S
In39 O40 2.294 . S
In39 O41 2.326 . S
In39 O45 2.266 . S
In39 O46 2.326 . S
In39 O47 2.266 . S
In39 O48 2.326 . S
In39 O50 2.294 . S
In39 O51 2.326 . S
O40 In39 2.294 . S
O40 C49 1.240 . S
O41 In39 2.326 . S
O41 C49 1.252 . S
C42 O45 1.252 . S
C42 O46 1.260 . S
C43 O50 1.240 . S
C43 O51 1.252 . S
C44 O47 1.252 . S
C44 O48 1.260 . S
O45 In39 2.266 . S
O45 C42 1.252 . S
O46 In39 2.326 . S
O46 C42 1.260 . S
O47 In39 2.266 . S
O47 C44 1.252 . S
O48 In39 2.326 . S
O48 C44 1.260 . S
C49 O40 1.240 . S
C49 O41 1.252 . S
O50 In39 2.294 . S
O50 C43 1.240 . S
O51 In39 2.326 . S
O51 C43 1.252 . S
C52 C53 1.387 . S
C52 H56 0.950 . S
C52 C61 1.390 1_565 S
C53 C52 1.387 . S
C53 C55 1.387 . S
H54 C61 0.950 . S
C55 C53 1.387 . S
C55 C57 1.390 1_565 S
C55 H59 0.950 . S
H56 C52 0.950 . S
C57 C55 1.390 1_545 S
C57 C58 1.387 . S
C57 H60 0.950 . S
C58 C57 1.387 . S
C58 C61 1.387 . S
H59 C55 0.950 . S
H60 C57 0.950 . S
C61 C52 1.390 1_545 S
C61 H54 0.950 . S
C61 C58 1.387 . S
C62 C63 1.387 . S
C62 H66 0.950 1_554 S
C62 C71 1.390 . S
C63 C62 1.387 . S
C63 C65 1.387 . S
H64 C71 0.950 1_556 S
C65 C63 1.387 . S
C65 C67 1.390 . S
C65 H69 0.950 . S
H66 C62 0.950 1_556 S
C67 C65 1.390 . S
C67 C68 1.387 . S
C67 H70 0.950 . S
C68 C67 1.387 . S
C68 C71 1.387 . S
H69 C65 0.950 . S
H70 C67 0.950 . S
C71 C62 1.390 . S
C71 H64 0.950 1_554 S
C71 C68 1.387 . S
C72 C73 1.387 . S
C72 H76 0.950 . S
C72 C81 1.390 1_545 S
C73 C72 1.387 . S
C73 C75 1.387 . S
H74 C81 0.950 . S
C75 C73 1.387 . S
C75 C77 1.390 1_545 S
C75 H79 0.950 . S
H76 C72 0.950 . S
C77 C75 1.390 1_565 S
C77 C78 1.387 . S
C77 H80 0.950 . S
C78 C77 1.387 . S
C78 C81 1.387 . S
H79 C75 0.950 . S
H80 C77 0.950 . S
C81 C72 1.390 1_565 S
C81 H74 0.950 . S
C81 C78 1.387 . S
C82 C83 1.387 . S
C82 H86 0.950 . S
C82 C91 1.390 . S
C83 C82 1.387 . S
C83 C85 1.387 . S
H84 C91 0.950 . S
C85 C83 1.387 . S
C85 C87 1.390 . S
C85 H89 0.950 1_556 S
H86 C82 0.950 . S
C87 C85 1.390 . S
C87 C88 1.387 . S
C87 H90 0.950 1_556 S
C88 C87 1.387 . S
C88 C91 1.387 . S
H89 C85 0.950 1_554 S
H90 C87 0.950 1_554 S
C91 C82 1.390 . S
C91 H84 0.950 . S
C91 C88 1.387 . S
C92 C93 1.387 1_565 S
C92 H96 0.950 . S
C92 C101 1.390 . S
C93 C92 1.387 1_545 S
C93 C95 1.387 1_454 S
H94 C101 0.950 . S
C95 C93 1.387 1_656 S
C95 C97 1.390 . S
C95 H99 0.950 . S
H96 C92 0.950 . S
C97 C95 1.390 . S
C97 C98 1.387 1_545 S
C97 H100 0.950 . S
C98 C97 1.387 1_565 S
C98 C101 1.387 1_656 S
H99 C95 0.950 . S
H100 C97 0.950 . S
C101 C92 1.390 . S
C101 H94 0.950 . S
C101 C98 1.387 1_454 S
C102 C103 1.387 1_554 S
C102 H106 0.950 . S
C102 C111 1.390 1_545 S
C103 C102 1.387 1_556 S
C103 C105 1.387 . S
H104 C111 0.950 . S
C105 C103 1.387 . S
C105 C107 1.390 1_545 S
C105 H109 0.950 . S
H106 C102 0.950 . S
C107 C105 1.390 1_565 S
C107 C108 1.387 1_556 S
C107 H110 0.950 . S
C108 C107 1.387 1_554 S
C108 C111 1.387 . S
H109 C105 0.950 . S
H110 C107 0.950 . S
C111 C102 1.390 1_565 S
C111 H104 0.950 . S
C111 C108 1.387 . S
C112 C113 1.387 1_455 S
C112 H116 0.950 . S
C112 C121 1.390 . S
C113 C112 1.387 1_655 S
C113 C115 1.387 . S
H114 C121 0.950 . S
C115 C113 1.387 . S
C115 C117 1.390 . S
C115 H119 0.950 . S
H116 C112 0.950 . S
C117 C115 1.390 . S
C117 C118 1.387 1_655 S
C117 H120 0.950 . S
C118 C117 1.387 1_455 S
C118 C121 1.387 . S
H119 C115 0.950 . S
H120 C117 0.950 . S
C121 C112 1.390 . S
C121 H114 0.950 . S
C121 C118 1.387 . S
C122 C123 1.387 . S
C122 H126 0.950 . S
C122 C131 1.390 . S
C123 C122 1.387 . S
C123 C125 1.387 . S
H124 C131 0.950 . S
C125 C123 1.387 . S
C125 C127 1.390 . S
C125 H129 0.950 . S
H126 C122 0.950 . S
C127 C125 1.390 . S
C127 C128 1.387 . S
C127 H130 0.950 . S
C128 C127 1.387 . S
C128 C131 1.387 . S
H129 C125 0.950 . S
H130 C127 0.950 . S
C131 C122 1.390 . S
C131 H124 0.950 . S
C131 C128 1.387 . S
C53 C23 1.235 . S
C58 C5 1.232 . S
C63 C10 1.234 . S
C68 C18 1.231 . S
C73 C49 1.235 . S
C78 C29 1.232 . S
C83 C30 1.234 . S
C88 C44 1.231 . S
C93 C3 1.557 . S
C98 C31 1.557 . S
C103 C43 1.554 . S
C108 C17 1.554 . S
C113 C36 1.556 . S
C118 C4 1.556 . S
C123 C16 1.557 . S
C128 C42 1.557 . S
