# Generated by pormake.
# Topology pcu, (6)-cn, num edge types: 1
# Building blocks:
#     Node 0, Type 0, BuildingBlock: PAMTOO_clean_sbu_0, # of connection points: 6
#     Edge 1, Type (0, 0), BuildingBlock: KIFKEQ_clean_linker_1, # of connection points: 2
#     Edge 2, Type (0, 0), BuildingBlock: KIFKEQ_clean_linker_1, # of connection points: 2
#     Edge 3, Type (0, 0), BuildingBlock: KIFKEQ_clean_linker_1, # of connection points: 2
# Relax obj value: 0.000
# Max RMSD: 0.000
# Mean RMSD: 0.000
data_MOF--net-pcu--node1-PAMTOO_clean_sbu_0--edge1-KIFKEQ_clean_linker_1
_symmetry_space_group_name_H-M    P1
_symmetry_Int_Tables_number       1
_symmetry_cell_setting            triclinic
loop_
_symmetry_equiv_pos_as_xyz
'x, y, z'
_cell_length_a     25.852557
_cell_length_b     15.615246
_cell_length_c     15.466555
_cell_angle_alpha  85.913642
_cell_angle_beta   97.057157
_cell_angle_gamma 117.51878
loop_
_atom_site_label
_atom_site_type_symbol
_atom_site_fract_x
_atom_site_fract_y
_atom_site_fract_z
_atom_type_partial_charge
Dy0 Dy 0.09953 0.04404 0.98051 0.0
Dy1 Dy 0.9523 0.93368 0.95984 0.0
C2 C 1.02487 -0.00833 0.79727 0.0
O3 O 0.07593 0.1619 -0.00332 0.0
O4 O 0.97821 0.09088 0.94163 0.0
O5 O 0.17889 0.09204 0.91899 0.0
O6 O 0.18408 0.12041 0.05562 0.0
O7 O 0.98207 -0.01174 0.09523 0.0
O8 O 0.07059 0.9853 0.11182 0.0
O9 O 0.97702 0.81465 -0.0101 0.0
O10 O 0.07425 0.889 0.96192 0.0
O11 O 0.86942 0.83828 0.00857 0.0
O12 O 0.87141 0.90618 0.88077 0.0
C13 C 0.02703 0.16639 0.96931 0.0
O14 O 0.06687 0.0622 0.84339 0.0
O15 O 0.98245 0.92049 0.83489 0.0
C16 C 0.26136 0.09923 0.00831 0.0
C17 C 0.35708 0.05651 0.02398 0.0
C18 C 0.29925 0.98287 0.0069 0.0
C19 C 0.25179 0.00407 -0.00092 0.0
C20 C 0.31859 0.17207 0.02834 0.0
C21 C 0.366 0.15102 0.03624 0.0
C22 C 0.21314 0.12543 -0.00938 0.0
C23 C 1.02653 0.98659 0.14502 0.0
C24 C 1.02559 0.81165 0.97746 0.0
C25 C 0.79097 0.87393 0.95801 0.0
C26 C 0.69777 0.91243 -0.0138 0.0
C27 C 0.75224 0.95714 0.03709 0.0
C28 C 0.79849 0.93821 0.02298 0.0
C29 C 0.73698 0.82948 0.90716 0.0
C30 C 0.69089 0.84853 0.92093 0.0
C31 C 0.83878 0.85305 0.94093 0.0
H32 H 0.29077 0.9095 -0.00359 0.0
H33 H 0.20784 0.9468 0.98335 0.0
H34 H 0.3268 0.2459 0.0358 0.0
H35 H 0.40977 0.20911 0.05098 0.0
H36 H 0.759 0.00606 0.08838 0.0
H37 H 0.84003 0.97366 0.0627 0.0
H38 H 0.73055 0.78028 0.85623 0.0
H39 H 0.65012 0.81427 0.87933 0.0
H40 H 0.93793 0.96804 0.23657 0.0
H41 H 0.11582 0.00626 0.27053 0.0
H42 H 0.93834 0.97034 0.39388 0.0
H43 H 0.11584 0.00777 0.42839 0.0
H44 H 0.11201 0.1137 0.69854 0.0
H45 H 0.11294 0.11226 0.54095 0.0
H46 H 0.94057 0.86752 0.52247 0.0
H47 H 0.93927 0.86916 0.67958 0.0
C48 C 0.97712 0.97675 0.27751 0.0
C49 C 0.02685 0.98688 0.24084 0.0
C50 C 0.97719 0.97755 0.36774 0.0
C51 C 0.02707 -0.0109 0.42348 0.0
C52 C 0.07693 -0.00038 0.38699 0.0
C53 C 0.07675 -0.00187 0.2966 0.0
C54 C 0.07424 0.05972 0.66086 0.0
C55 C 1.0255 -0.00831 0.70167 0.0
C56 C 0.07498 0.05852 0.57069 0.0
C57 C 0.02683 -0.01019 0.51937 0.0
C58 C 0.97808 0.922 0.56016 0.0
C59 C 0.97749 0.92272 0.65029 0.0
H60 H 0.46039 0.16664 0.95355 0.0
H61 H 0.36909 0.8996 0.09556 0.0
H62 H 0.54273 0.13209 0.95063 0.0
H63 H 0.45188 0.86507 0.09306 0.0
H64 H 0.58049 0.78569 0.97991 0.0
H65 H 0.49938 0.82102 -0.00741 0.0
H66 H 0.62209 0.12035 0.0401 0.0
H67 H 0.70309 0.08594 0.02315 0.0
C68 C 0.45822 0.10116 -0.01463 0.0
C69 C 0.40807 0.03605 0.02502 0.0
C70 C 0.50557 0.08133 0.98373 0.0
C71 C 0.50416 -0.00416 0.02175 0.0
C72 C 0.45419 0.93098 0.06205 0.0
C73 C 0.4067 0.95078 0.06356 0.0
C74 C 0.59023 0.85925 -0.00756 0.0
C75 C 0.64847 0.93306 -0.00021 0.0
C76 C 0.54366 0.87928 0.00089 0.0
C77 C 0.55403 0.97364 0.01717 0.0
C78 C 0.61235 0.04708 0.02639 0.0
C79 C 0.65894 0.02708 0.01775 0.0
H80 H 0.93375 0.63843 0.93001 0.0
H81 H 0.11687 0.77153 0.02789 0.0
H82 H 0.93419 0.48342 0.92559 0.0
H83 H 0.11682 0.61561 0.02979 0.0
H84 H 0.11734 0.34509 0.94555 0.0
H85 H 0.11644 0.50016 0.94603 0.0
H86 H 0.93553 0.35421 0.0037 0.0
H87 H 0.93581 0.19932 -0.00328 0.0
C88 C 0.97388 0.63395 0.952 0.0
C89 C 1.02528 0.71684 0.97907 0.0
C90 C 0.97417 0.54483 0.9501 0.0
C91 C 1.02557 0.53597 0.97738 0.0
C92 C 0.0767 0.61925 0.00619 0.0
C93 C 0.07672 0.70877 0.00591 0.0
C94 C 0.07742 0.34657 0.95799 0.0
C95 C 1.02661 0.26042 0.97069 0.0
C96 C 0.07691 0.4356 0.95908 0.0
C97 C 1.02594 0.44073 0.97524 0.0
C98 C 0.97529 0.35385 -0.01097 0.0
C99 C 0.97544 0.26478 -0.01435 0.0
loop_
_geom_bond_atom_site_label_1
_geom_bond_atom_site_label_2
_geom_bond_distance
_geom_bond_site_symmetry_2
_ccdc_geom_bond_type
Dy0 O3 2.307 . S
Dy0 O5 2.395 1_554 S
Dy0 O6 2.379 . S
Dy0 O8 2.339 . S
Dy0 O10 2.298 1_545 S
Dy0 O14 2.275 1_554 S
Dy0 C22 2.738 . S
Dy1 O4 2.298 1_565 S
Dy1 O7 2.275 1_556 S
Dy1 O9 2.307 . S
Dy1 O11 2.395 1_556 S
Dy1 O12 2.379 . S
Dy1 O15 2.339 . S
Dy1 C31 2.738 . S
C2 O14 1.254 1_665 S
C2 O15 1.257 . S
O3 Dy0 2.307 . S
O3 C13 1.275 1_554 S
O4 Dy1 2.298 1_545 S
O4 C13 1.232 1_655 S
O5 Dy0 2.395 1_556 S
O5 C22 1.255 1_556 S
O6 Dy0 2.379 . S
O6 C22 1.249 . S
O7 Dy1 2.275 1_554 S
O7 C23 1.254 1_665 S
O8 Dy0 2.339 . S
O8 C23 1.257 . S
O9 Dy1 2.307 . S
O9 C24 1.269 1_556 S
O10 Dy0 2.298 1_565 S
O10 C24 1.234 1_455 S
O11 Dy1 2.395 1_554 S
O11 C31 1.255 1_554 S
O12 Dy1 2.379 . S
O12 C31 1.249 . S
C13 O3 1.275 1_556 S
C13 O4 1.232 1_455 S
O14 Dy0 2.275 1_556 S
O14 C2 1.254 1_445 S
O15 Dy1 2.339 . S
O15 C2 1.257 . S
C16 C19 1.344 1_544 S
C16 C20 1.328 . S
C16 C22 1.516 . S
C17 C18 1.304 . S
C17 C21 1.323 1_566 S
C18 C17 1.304 . S
C18 C19 1.371 . S
C18 H32 0.930 . S
C19 C16 1.344 1_566 S
C19 C18 1.371 . S
C19 H33 0.931 . S
C20 C16 1.328 . S
C20 C21 1.433 . S
C20 H34 0.931 . S
C21 C17 1.323 1_544 S
C21 C20 1.433 . S
C21 H35 0.933 . S
C22 Dy0 2.738 . S
C22 O5 1.255 1_554 S
C22 O6 1.249 . S
C22 C16 1.516 . S
C23 O7 1.254 1_445 S
C23 O8 1.257 . S
C24 O9 1.269 1_554 S
C24 O10 1.234 1_655 S
C25 C28 1.344 1_566 S
C25 C29 1.328 . S
C25 C31 1.516 . S
C26 C27 1.304 . S
C26 C30 1.323 1_544 S
C27 C26 1.304 . S
C27 C28 1.371 . S
C27 H36 0.930 . S
C28 C25 1.344 1_544 S
C28 C27 1.371 . S
C28 H37 0.931 . S
C29 C25 1.328 . S
C29 C30 1.433 . S
C29 H38 0.931 . S
C30 C26 1.323 1_566 S
C30 C29 1.433 . S
C30 H39 0.933 . S
C31 Dy1 2.738 . S
C31 O11 1.255 1_556 S
C31 O12 1.249 . S
C31 C25 1.516 . S
H32 C18 0.930 . S
H33 C19 0.931 . S
H34 C20 0.931 . S
H35 C21 0.933 . S
H36 C27 0.930 . S
H37 C28 0.931 . S
H38 C29 0.931 . S
H39 C30 0.933 . S
H40 C48 0.950 . S
H41 C53 0.950 . S
H42 C50 0.950 . S
H43 C52 0.950 . S
H44 C54 0.950 . S
H45 C56 0.950 . S
H46 C58 0.950 . S
H47 C59 0.950 . S
C48 H40 0.950 . S
C48 C49 1.386 1_665 S
C48 C50 1.391 . S
C49 C48 1.386 1_445 S
C49 C53 1.392 . S
C50 H42 0.950 . S
C50 C48 1.391 . S
C50 C51 1.401 1_665 S
C51 C50 1.401 1_445 S
C51 C52 1.398 . S
C51 C57 1.487 1_455 S
C52 H43 0.950 . S
C52 C51 1.398 . S
C52 C53 1.391 . S
C53 H41 0.950 . S
C53 C49 1.392 . S
C53 C52 1.391 . S
C54 H44 0.950 . S
C54 C55 1.386 1_455 S
C54 C56 1.391 . S
C55 C54 1.386 1_655 S
C55 C59 1.392 1_545 S
C56 H45 0.950 . S
C56 C54 1.391 . S
C56 C57 1.401 1_455 S
C57 C51 1.487 1_655 S
C57 C56 1.401 1_655 S
C57 C58 1.402 1_545 S
C58 H46 0.950 . S
C58 C57 1.402 1_565 S
C58 C59 1.391 . S
C59 H47 0.950 . S
C59 C55 1.392 1_565 S
C59 C58 1.391 . S
H60 C68 0.950 . S
H61 C73 0.950 . S
H62 C70 0.950 . S
H63 C72 0.950 . S
H64 C74 0.950 . S
H65 C76 0.950 . S
H66 C78 0.950 . S
H67 C79 0.950 . S
C68 H60 0.950 . S
C68 C69 1.386 1_545 S
C68 C70 1.391 . S
C69 C68 1.386 1_565 S
C69 C73 1.393 1_554 S
C70 H62 0.950 . S
C70 C68 1.391 . S
C70 C71 1.390 1_545 S
C71 C70 1.390 1_565 S
C71 C72 1.403 1_554 S
C71 C77 1.502 1_564 S
C72 H63 0.950 . S
C72 C71 1.403 1_556 S
C72 C73 1.391 . S
C73 H61 0.950 . S
C73 C69 1.393 1_556 S
C73 C72 1.391 . S
C74 H64 0.950 . S
C74 C75 1.386 1_565 S
C74 C76 1.391 . S
C75 C74 1.386 1_545 S
C75 C79 1.393 1_556 S
C76 H65 0.950 . S
C76 C74 1.391 . S
C76 C77 1.387 1_565 S
C77 C71 1.502 1_546 S
C77 C76 1.387 1_545 S
C77 C78 1.405 1_556 S
C78 H66 0.950 . S
C78 C77 1.405 1_554 S
C78 C79 1.391 . S
C79 H67 0.950 . S
C79 C75 1.393 1_554 S
C79 C78 1.391 . S
H80 C88 0.950 . S
H81 C93 0.950 . S
H82 C90 0.950 . S
H83 C92 0.950 . S
H84 C94 0.950 . S
H85 C96 0.950 . S
H86 C98 0.950 . S
H87 C99 0.950 . S
C88 H80 0.950 . S
C88 C89 1.389 1_655 S
C88 C90 1.391 . S
C89 C88 1.389 1_455 S
C89 C93 1.390 1_556 S
C90 H82 0.950 . S
C90 C88 1.391 . S
C90 C91 1.401 1_655 S
C91 C90 1.401 1_455 S
C91 C92 1.397 1_556 S
C91 C97 1.502 1_456 S
C92 H83 0.950 . S
C92 C91 1.397 1_554 S
C92 C93 1.391 . S
C93 H81 0.950 . S
C93 C89 1.390 1_554 S
C93 C92 1.391 . S
C94 H84 0.950 . S
C94 C95 1.392 1_455 S
C94 C96 1.391 . S
C95 C94 1.392 1_655 S
C95 C99 1.387 1_554 S
C96 H85 0.950 . S
C96 C94 1.391 . S
C96 C97 1.393 1_455 S
C97 C91 1.502 1_654 S
C97 C96 1.393 1_655 S
C97 C98 1.394 1_554 S
C98 H86 0.950 . S
C98 C97 1.394 1_556 S
C98 C99 1.391 . S
C99 H87 0.950 . S
C99 C95 1.387 1_556 S
C99 C98 1.391 . S
C49 C23 1.457 . S
C55 C2 1.457 1_545 S
C69 C17 1.499 1_554 S
C75 C26 1.499 1_556 S
C89 C24 1.495 1_456 S
C95 C13 1.492 1_654 S
