# Generated by pormake.
# Topology pcu, (6)-cn, num edge types: 1
# Building blocks:
#     Node 0, Type 0, BuildingBlock: PAMTOO_clean_sbu_0, # of connection points: 6
#     Edge 1, Type (0, 0), BuildingBlock: TEMPAE_clean_linker_10, # of connection points: 2
#     Edge 2, Type (0, 0), BuildingBlock: TEMPAE_clean_linker_10, # of connection points: 2
#     Edge 3, Type (0, 0), BuildingBlock: TEMPAE_clean_linker_10, # of connection points: 2
# Relax obj value: 0.000
# Max RMSD: 0.000
# Mean RMSD: 0.000
data_MOF--net-pcu--node1-PAMTOO_clean_sbu_0--edge1-TEMPAE_clean_linker_10
_symmetry_space_group_name_H-M    P1
_symmetry_Int_Tables_number       1
_symmetry_cell_setting            triclinic
loop_
_symmetry_equiv_pos_as_xyz
'x, y, z'
_cell_length_a     26.165346
_cell_length_b     15.481716
_cell_length_c     15.404651
_cell_angle_alpha  82.591585
_cell_angle_beta   99.240651
_cell_angle_gamma 118.52547
loop_
_atom_site_label
_atom_site_type_symbol
_atom_site_fract_x
_atom_site_fract_y
_atom_site_fract_z
_atom_type_partial_charge
Dy0 Dy 0.09687 0.04801 0.00264 0.0
Dy1 Dy 0.95009 0.94093 0.97467 0.0
C2 C 0.02542 -0.00046 0.81548 0.0
O3 O 0.07246 0.16947 0.96363 0.0
O4 O 0.98014 0.09393 0.00865 0.0
O5 O 0.18097 0.13776 0.9532 0.0
O6 O 0.17648 0.07364 0.08715 0.0
O7 O 0.97952 0.92322 0.11719 0.0
O8 O 0.06781 0.06299 0.12513 0.0
O9 O 0.97366 0.82551 0.95222 0.0
O10 O 0.06351 0.88697 0.03573 0.0
O11 O 0.86591 0.85162 0.0242 0.0
O12 O 0.87007 0.91284 0.88992 0.0
C13 C 0.02684 0.17322 0.98529 0.0
O14 O 0.06704 0.99032 0.869 0.0
O15 O 0.98426 0.00862 0.84574 0.0
C16 C 0.25648 0.09445 0.01618 0.0
C17 C 0.35077 0.05545 0.00432 0.0
C18 C 0.32298 0.08378 0.92852 0.0
C19 C 0.27653 0.10329 0.93438 0.0
C20 C 0.28388 0.06521 0.09168 0.0
C21 C 0.33015 0.0456 0.08582 0.0
C22 C 0.21007 0.12137 0.02498 0.0
C23 C 0.02337 0.99271 0.16282 0.0
C24 C 1.01834 0.81492 -0.00552 0.0
C25 C 0.79044 0.89428 0.96099 0.0
C26 C 0.69677 0.93487 0.973 0.0
C27 C 0.71861 0.89228 0.04582 0.0
C28 C 0.76471 0.87203 0.03984 0.0
C29 C 0.76884 0.93741 0.88838 0.0
C30 C 0.72283 0.95773 0.8944 0.0
C31 C 0.83659 0.86663 0.95231 0.0
H32 H 0.33806 0.09334 0.86479 0.0
H33 H 0.25701 0.12678 0.87494 0.0
H34 H 0.26996 0.05851 0.15585 0.0
H35 H 0.34978 0.02261 0.14544 0.0
H36 H 0.7001 0.8746 0.10771 0.0
H37 H 0.77974 0.83787 0.09683 0.0
H38 H 0.78686 0.95409 0.82614 0.0
H39 H 0.70667 0.98911 0.83654 0.0
C40 C 0.98144 0.91069 0.30365 0.0
C41 C 0.02256 0.99279 0.25838 0.0
C42 C 0.98073 0.90999 0.39455 0.0
C43 C 0.02173 -0.00628 0.44074 0.0
C44 C 0.06297 0.0771 0.39531 0.0
C45 C 0.06306 0.07547 0.30467 0.0
C46 C 0.93644 0.81949 0.44127 0.0
C47 C 0.10702 0.16804 0.44244 0.0
C48 C 0.9886 0.02848 0.66045 0.0
C49 C 0.0244 -0.00184 0.71967 0.0
C50 C 0.98724 0.02733 0.56927 0.0
C51 C 0.02198 -0.00602 0.53693 0.0
C52 C 0.05779 0.96241 0.59637 0.0
C53 C 0.05883 0.96543 0.68715 0.0
C54 C 0.94904 0.06256 0.50757 0.0
C55 C 0.09498 0.92548 0.56408 0.0
H56 H 0.95012 0.84648 0.26829 0.0
H57 H 0.09473 0.13947 0.27001 0.0
H58 H 0.9593 0.78993 0.49373 0.0
H59 H 0.90874 0.83901 0.47371 0.0
H60 H 0.90755 0.76048 0.39569 0.0
H61 H 0.13541 0.2274 0.39706 0.0
H62 H 0.08402 0.19689 0.47534 0.0
H63 H 0.13526 0.14919 0.49454 0.0
H64 H 0.96203 0.05412 0.68526 0.0
H65 H 0.08624 0.94115 0.73266 0.0
H66 H 0.91716 0.00313 0.46444 0.0
H67 H 0.97636 0.12564 0.46412 0.0
H68 H 0.92453 0.08592 0.54343 0.0
H69 H 0.06703 0.86256 0.52215 0.0
H70 H 0.11933 0.90142 0.61908 0.0
H71 H 0.127 0.98437 0.52274 0.0
C72 C 0.4025 0.98919 0.92885 0.0
C73 C 0.40174 0.03807 -0.00099 0.0
C74 C 0.45021 0.97232 0.92354 0.0
C75 C 0.49853 0.00492 -0.01002 0.0
C76 C 0.49813 0.05446 0.06081 0.0
C77 C 0.44996 0.07053 0.06438 0.0
C78 C 0.44878 0.91913 0.84693 0.0
C79 C 0.54871 0.09068 0.13294 0.0
C80 C 0.59831 0.88418 0.02176 0.0
C81 C 0.64626 0.95346 0.97823 0.0
C82 C 0.55006 0.89989 0.02596 0.0
C83 C 0.54944 0.98703 0.98564 0.0
C84 C 0.59769 0.05736 0.94175 0.0
C85 C 0.64539 0.03979 0.93861 0.0
C86 C 0.49956 0.82292 0.07333 0.0
C87 C 0.59899 0.1514 0.89818 0.0
H88 H 0.36531 0.96273 0.87854 0.0
H89 H 0.45045 0.10984 0.11809 0.0
H90 H 0.4872 0.966 0.81053 0.0
H91 H 0.45165 0.85082 0.8715 0.0
H92 H 0.40831 0.89927 0.80026 0.0
H93 H 0.54166 0.12764 0.18367 0.0
H94 H 0.55532 0.02802 0.16564 0.0
H95 H 0.58965 0.14334 0.10436 0.0
H96 H 0.598 0.81658 0.05145 0.0
H97 H 0.68243 0.09442 0.90579 0.0
H98 H 0.45862 0.79545 0.02725 0.0
H99 H 0.49287 0.85596 0.12748 0.0
H100 H 0.50676 0.7593 0.10149 0.0
H101 H 0.56062 0.13397 0.84765 0.0
H102 H 0.63949 0.19834 0.86618 0.0
H103 H 0.59592 0.19429 0.94771 0.0
C104 C 0.98549 0.65624 0.92645 0.0
C105 C 0.01954 0.72086 -0.00705 0.0
C106 C 0.98842 0.56881 0.92209 0.0
C107 C 0.0255 0.545 0.98666 0.0
C108 C 0.05971 0.60973 0.05421 0.0
C109 C 0.05665 0.69734 0.05613 0.0
C110 C 0.95183 0.5019 0.84853 0.0
C111 C 0.09896 0.58583 0.12508 0.0
C112 C 0.98678 0.27588 0.0297 0.0
C113 C 0.02774 0.26926 0.9859 0.0
C114 C 0.98585 0.36532 0.03068 0.0
C115 C 0.0265 0.45016 0.98601 0.0
C116 C 0.06802 0.4443 0.94157 0.0
C117 C 0.06841 0.35378 0.9425 0.0
C118 C 0.94142 0.36901 0.07979 0.0
C119 C 0.11164 0.5334 0.89258 0.0
H120 H 0.95731 0.67479 0.87683 0.0
H121 H 0.08296 0.74703 0.10779 0.0
H122 H 0.98021 0.48818 0.81191 0.0
H123 H 0.92003 0.42955 0.87631 0.0
H124 H 0.92727 0.53328 0.80135 0.0
H125 H 0.12337 0.6448 0.17224 0.0
H126 H 0.0724 0.51599 0.16232 0.0
H127 H 0.13097 0.57475 0.09487 0.0
H128 H 0.95547 0.21108 0.06405 0.0
H129 H 0.09996 0.34896 0.90824 0.0
H130 H 0.91284 0.3932 0.03379 0.0
H131 H 0.96408 0.4237 0.13092 0.0
H132 H 0.91335 0.29649 0.11215 0.0
H133 H 0.08821 0.56308 0.84128 0.0
H134 H 0.1406 0.51625 0.86055 0.0
H135 H 0.13929 0.59241 0.93854 0.0
loop_
_geom_bond_atom_site_label_1
_geom_bond_atom_site_label_2
_geom_bond_distance
_geom_bond_site_symmetry_2
_ccdc_geom_bond_type
Dy0 O3 2.307 . S
Dy0 O5 2.395 1_554 S
Dy0 O6 2.379 . S
Dy0 O8 2.339 . S
Dy0 O10 2.298 1_545 S
Dy0 O14 2.275 1_554 S
Dy0 C22 2.738 . S
Dy1 O4 2.298 1_565 S
Dy1 O7 2.275 1_556 S
Dy1 O9 2.307 . S
Dy1 O11 2.395 1_556 S
Dy1 O12 2.379 . S
Dy1 O15 2.339 . S
Dy1 C31 2.738 . S
C2 O14 1.254 1_665 S
C2 O15 1.257 . S
O3 Dy0 2.307 . S
O3 C13 1.275 1_554 S
O4 Dy1 2.298 1_545 S
O4 C13 1.232 1_655 S
O5 Dy0 2.395 1_556 S
O5 C22 1.255 1_556 S
O6 Dy0 2.379 . S
O6 C22 1.249 . S
O7 Dy1 2.275 1_554 S
O7 C23 1.254 1_665 S
O8 Dy0 2.339 . S
O8 C23 1.257 . S
O9 Dy1 2.307 . S
O9 C24 1.269 1_556 S
O10 Dy0 2.298 1_565 S
O10 C24 1.234 1_455 S
O11 Dy1 2.395 1_554 S
O11 C31 1.255 1_554 S
O12 Dy1 2.379 . S
O12 C31 1.249 . S
C13 O3 1.275 1_556 S
C13 O4 1.232 1_455 S
O14 Dy0 2.275 1_556 S
O14 C2 1.254 1_445 S
O15 Dy1 2.339 . S
O15 C2 1.257 . S
C16 C19 1.344 1_544 S
C16 C20 1.328 . S
C16 C22 1.516 . S
C17 C18 1.304 . S
C17 C21 1.323 1_566 S
C18 C17 1.304 . S
C18 C19 1.371 . S
C18 H32 0.930 . S
C19 C16 1.344 1_566 S
C19 C18 1.371 . S
C19 H33 0.931 . S
C20 C16 1.328 . S
C20 C21 1.433 . S
C20 H34 0.931 . S
C21 C17 1.323 1_544 S
C21 C20 1.433 . S
C21 H35 0.933 . S
C22 Dy0 2.738 . S
C22 O5 1.255 1_554 S
C22 O6 1.249 . S
C22 C16 1.516 . S
C23 O7 1.254 1_445 S
C23 O8 1.257 . S
C24 O9 1.269 1_554 S
C24 O10 1.234 1_655 S
C25 C28 1.344 1_566 S
C25 C29 1.328 . S
C25 C31 1.516 . S
C26 C27 1.304 . S
C26 C30 1.323 1_544 S
C27 C26 1.304 . S
C27 C28 1.371 . S
C27 H36 0.930 . S
C28 C25 1.344 1_544 S
C28 C27 1.371 . S
C28 H37 0.931 . S
C29 C25 1.328 . S
C29 C30 1.433 . S
C29 H38 0.931 . S
C30 C26 1.323 1_566 S
C30 C29 1.433 . S
C30 H39 0.933 . S
C31 Dy1 2.738 . S
C31 O11 1.255 1_556 S
C31 O12 1.249 . S
C31 C25 1.516 . S
H32 C18 0.930 . S
H33 C19 0.931 . S
H34 C20 0.931 . S
H35 C21 0.933 . S
H36 C27 0.930 . S
H37 C28 0.931 . S
H38 C29 0.931 . S
H39 C30 0.933 . S
C40 C41 1.375 1_655 S
C40 C42 1.394 . S
C40 H56 0.931 . S
C41 C40 1.375 1_455 S
C41 C45 1.390 1_565 S
C42 C40 1.394 . S
C42 C43 1.369 1_655 S
C42 C46 1.531 . S
C43 C42 1.369 1_455 S
C43 C44 1.410 1_565 S
C43 C51 1.503 . S
C44 C43 1.410 1_545 S
C44 C45 1.392 . S
C44 C47 1.511 . S
C45 C41 1.390 1_545 S
C45 C44 1.392 . S
C45 H57 0.929 . S
C46 C42 1.531 . S
C46 H58 0.960 . S
C46 H59 0.962 . S
C46 H60 0.960 . S
C47 C44 1.511 . S
C47 H61 0.961 . S
C47 H62 0.961 . S
C47 H63 0.961 . S
C48 C49 1.363 1_645 S
C48 C50 1.363 . S
C48 H64 0.931 . S
C49 C48 1.363 1_465 S
C49 C53 1.419 . S
C50 C48 1.363 . S
C50 C51 1.370 1_645 S
C50 C54 1.524 . S
C51 C43 1.503 . S
C51 C50 1.370 1_465 S
C51 C52 1.403 . S
C52 C51 1.403 . S
C52 C53 1.404 . S
C52 C55 1.539 . S
C53 C49 1.419 . S
C53 C52 1.404 . S
C53 H65 0.930 . S
C54 C50 1.524 . S
C54 H66 0.956 . S
C54 H67 0.961 1_655 S
C54 H68 0.961 . S
C55 C52 1.539 . S
C55 H69 0.958 1_455 S
C55 H70 0.961 . S
C55 H71 0.960 . S
H56 C40 0.931 . S
H57 C45 0.929 . S
H58 C46 0.960 . S
H59 C46 0.962 . S
H60 C46 0.960 . S
H61 C47 0.961 . S
H62 C47 0.961 . S
H63 C47 0.961 . S
H64 C48 0.931 . S
H65 C53 0.930 . S
H66 C54 0.956 . S
H67 C54 0.961 1_455 S
H68 C54 0.961 . S
H69 C55 0.958 1_655 S
H70 C55 0.961 . S
H71 C55 0.960 . S
C72 C73 1.391 1_565 S
C72 C74 1.394 . S
C72 H88 0.931 . S
C73 C72 1.391 1_545 S
C73 C77 1.376 1_556 S
C74 C72 1.394 . S
C74 C75 1.369 1_565 S
C74 C78 1.531 . S
C75 C74 1.369 1_545 S
C75 C76 1.410 1_556 S
C75 C83 1.503 . S
C76 C75 1.410 1_554 S
C76 C77 1.392 . S
C76 C79 1.511 . S
C77 C73 1.376 1_554 S
C77 C76 1.392 . S
C77 H89 0.929 . S
C78 C74 1.531 . S
C78 H90 0.960 . S
C78 H91 0.962 . S
C78 H92 0.960 . S
C79 C76 1.511 . S
C79 H93 0.961 . S
C79 H94 0.961 . S
C79 H95 0.961 . S
C80 C81 1.367 1_564 S
C80 C82 1.363 . S
C80 H96 0.931 . S
C81 C80 1.367 1_546 S
C81 C85 1.411 . S
C82 C80 1.363 . S
C82 C83 1.370 1_564 S
C82 C86 1.524 . S
C83 C75 1.503 . S
C83 C82 1.370 1_546 S
C83 C84 1.403 . S
C84 C83 1.403 . S
C84 C85 1.404 . S
C84 C87 1.539 . S
C85 C81 1.411 . S
C85 C84 1.404 . S
C85 H97 0.930 . S
C86 C82 1.524 . S
C86 H98 0.956 . S
C86 H99 0.961 . S
C86 H100 0.961 . S
C87 C84 1.539 . S
C87 H101 0.958 . S
C87 H102 0.961 . S
C87 H103 0.960 . S
H88 C72 0.931 . S
H89 C77 0.929 . S
H90 C78 0.960 . S
H91 C78 0.962 . S
H92 C78 0.960 . S
H93 C79 0.961 . S
H94 C79 0.961 . S
H95 C79 0.961 . S
H96 C80 0.931 . S
H97 C85 0.930 . S
H98 C86 0.956 . S
H99 C86 0.961 . S
H100 C86 0.961 . S
H101 C87 0.958 . S
H102 C87 0.961 . S
H103 C87 0.960 . S
C104 C105 1.391 1_556 S
C104 C106 1.394 . S
C104 H120 0.931 . S
C105 C104 1.391 1_554 S
C105 C109 1.376 1_455 S
C106 C104 1.394 . S
C106 C107 1.369 1_556 S
C106 C110 1.531 . S
C107 C106 1.369 1_554 S
C107 C108 1.410 1_455 S
C107 C115 1.503 . S
C108 C107 1.410 1_655 S
C108 C109 1.392 . S
C108 C111 1.511 . S
C109 C105 1.376 1_655 S
C109 C108 1.392 . S
C109 H121 0.929 . S
C110 C106 1.531 . S
C110 H122 0.960 . S
C110 H123 0.962 . S
C110 H124 0.960 . S
C111 C108 1.511 . S
C111 H125 0.961 . S
C111 H126 0.961 . S
C111 H127 0.961 1_655 S
C112 C113 1.370 1_656 S
C112 C114 1.363 . S
C112 H128 0.931 . S
C113 C112 1.370 1_454 S
C113 C117 1.408 . S
C114 C112 1.363 . S
C114 C115 1.370 1_656 S
C114 C118 1.524 . S
C115 C107 1.503 . S
C115 C114 1.370 1_454 S
C115 C116 1.403 . S
C116 C115 1.403 . S
C116 C117 1.404 . S
C116 C119 1.539 . S
C117 C113 1.408 . S
C117 C116 1.404 . S
C117 H129 0.930 . S
C118 C114 1.524 . S
C118 H130 0.956 . S
C118 H131 0.961 . S
C118 H132 0.961 . S
C119 C116 1.539 . S
C119 H133 0.958 . S
C119 H134 0.961 . S
C119 H135 0.960 . S
H120 C104 0.931 . S
H121 C109 0.929 . S
H122 C110 0.960 . S
H123 C110 0.962 . S
H124 C110 0.960 . S
H125 C111 0.961 . S
H126 C111 0.961 . S
H127 C111 0.961 1_455 S
H128 C112 0.931 . S
H129 C117 0.930 . S
H130 C118 0.956 . S
H131 C118 0.961 . S
H132 C118 0.961 . S
H133 C119 0.958 . S
H134 C119 0.961 . S
H135 C119 0.960 . S
C41 C23 1.459 1_565 S
C49 C2 1.465 1_455 S
C73 C17 1.494 1_545 S
C81 C26 1.498 1_556 S
C105 C24 1.489 1_455 S
C113 C13 1.494 1_554 S
