# Generated by pormake.
# Topology bcu, (8)-cn, num edge types: 1
# Building blocks:
#     Node 0, Type 0, BuildingBlock: LIZSOE_clean_sbu_0, # of connection points: 8
#     Node 1, Type 0, BuildingBlock: LIZSOE_clean_sbu_0, # of connection points: 8
#     Edge 2, Type (0, 0), BuildingBlock: EYOCIG_clean_linker_4, # of connection points: 2
#     Edge 3, Type (0, 0), BuildingBlock: EYOCIG_clean_linker_4, # of connection points: 2
#     Edge 4, Type (0, 0), BuildingBlock: EYOCIG_clean_linker_4, # of connection points: 2
#     Edge 5, Type (0, 0), BuildingBlock: EYOCIG_clean_linker_4, # of connection points: 2
#     Edge 6, Type (0, 0), BuildingBlock: EYOCIG_clean_linker_4, # of connection points: 2
#     Edge 7, Type (0, 0), BuildingBlock: EYOCIG_clean_linker_4, # of connection points: 2
#     Edge 8, Type (0, 0), BuildingBlock: EYOCIG_clean_linker_4, # of connection points: 2
#     Edge 9, Type (0, 0), BuildingBlock: EYOCIG_clean_linker_4, # of connection points: 2
# Relax obj value: 0.007
# Max RMSD: 0.042
# Mean RMSD: 0.042
data_MOF--net-bcu--node1-LIZSOE_clean_sbu_0--edge1-EYOCIG_clean_linker_4
_symmetry_space_group_name_H-M    P1
_symmetry_Int_Tables_number       1
_symmetry_cell_setting            triclinic
loop_
_symmetry_equiv_pos_as_xyz
'x, y, z'
_cell_length_a     16.114629
_cell_length_b     16.115363
_cell_length_c     18.771443
_cell_angle_alpha  116.97421
_cell_angle_beta   63.027794
_cell_angle_gamma 117.71815
loop_
_atom_site_label
_atom_site_type_symbol
_atom_site_fract_x
_atom_site_fract_y
_atom_site_fract_z
_atom_type_partial_charge
Co0 Co 0.19059 0.90585 -0.02212 0.0
N1 N 0.22333 0.87067 0.03993 0.0
C2 C 0.16787 0.78798 0.06296 0.0
N3 N 0.29408 0.85625 0.10997 0.0
C4 C 0.30122 0.91068 0.06908 0.0
C5 C 0.21088 0.77945 0.10663 0.0
Co6 Co 0.96904 0.12739 0.92962 0.0
N7 N 0.93386 0.16013 0.86757 0.0
N8 N 0.91945 0.23087 0.79753 0.0
C9 C 0.84265 0.14767 0.80086 0.0
C10 C 0.85117 0.10467 0.84453 0.0
C11 C 0.97387 0.23802 0.83843 0.0
Co12 Co 1.08653 1.02334 0.95375 0.0
C13 C 1.0111 0.20099 0.03185 0.0
H14 H 0.79928 1.03761 0.85964 0.0
O15 O 0.16939 0.93625 0.91016 0.0
O16 O 0.18902 0.09385 0.86812 0.0
O17 O 0.15705 0.12582 0.03938 0.0
O18 O 0.98322 0.9511 0.03957 0.0
O19 O 1.0602 0.86517 0.03865 0.0
O20 O 1.09375 0.14394 0.85154 0.0
O21 O 0.99945 0.1062 -0.00266 0.0
O22 O 0.92837 0.99701 0.86885 0.0
O23 O 0.20714 1.03056 0.05597 0.0
O24 O 0.311 0.94914 0.91707 0.0
O25 O 1.01429 0.92002 0.86794 0.0
O26 O 1.01233 0.2478 -0.00956 0.0
C27 C 0.19801 0.11241 0.07593 0.0
C28 C 1.06201 0.32614 0.85564 0.0
H29 H 0.11823 0.30602 0.85653 0.0
H30 H 1.0965 0.36493 0.80803 0.0
H31 H 1.03753 0.37827 0.91811 0.0
C32 C 0.17561 0.13482 0.83157 0.0
C33 C 0.9845 0.88792 0.06274 0.0
H34 H 1.10082 0.73609 0.04784 0.0
H35 H 0.44148 0.97435 -0.01058 0.0
H36 H 0.42812 1.03332 0.0995 0.0
H37 H 0.36922 0.05504 0.05099 0.0
C38 C 0.38934 0.99882 0.05188 0.0
C39 C 0.26419 0.9479 0.87566 0.0
C40 C 0.95111 0.9213 0.84478 0.0
H41 H 0.18426 0.72062 0.13266 0.0
H42 H 0.78382 0.12105 0.77482 0.0
Co43 Co 0.69058 0.40586 0.47791 0.0
N44 N 0.72331 0.37069 0.53997 0.0
C45 C 0.66785 0.28801 0.56301 0.0
N46 N 0.79405 0.35629 0.61003 0.0
C47 C 0.8012 0.41071 0.56912 0.0
C48 C 0.71085 0.27949 0.60669 0.0
Co49 Co 0.46905 0.62738 0.4296 0.0
N50 N 0.43388 0.6601 0.36753 0.0
N51 N 0.41947 0.73084 0.29747 0.0
C52 C 0.34268 0.64763 0.3008 0.0
C53 C 0.35119 0.60464 0.34448 0.0
C54 C 0.47389 0.73799 0.33839 0.0
Co55 Co 0.58653 0.52334 0.45375 0.0
C56 C 0.51109 0.70099 0.53183 0.0
H57 H 0.2993 0.53758 0.3596 0.0
O58 O 0.66939 0.43625 0.41018 0.0
O59 O 0.68903 0.59384 0.36811 0.0
O60 O 0.65704 0.62583 0.53939 0.0
O61 O 0.48321 0.4511 0.53957 0.0
O62 O 0.56019 0.36519 0.53867 0.0
O63 O 0.59377 0.64393 0.35152 0.0
O64 O 0.49945 0.60619 0.49733 0.0
O65 O 0.42838 0.49699 0.36883 0.0
O66 O 0.70713 0.53057 0.55599 0.0
O67 O 0.811 0.44914 0.4171 0.0
O68 O 0.5143 0.42001 0.36794 0.0
O69 O 0.51233 0.74779 0.49041 0.0
C70 C 0.698 0.61242 0.57594 0.0
C71 C 0.56203 0.82612 0.3556 0.0
H72 H 0.61824 0.806 0.35651 0.0
H73 H 0.59653 0.8649 0.30798 0.0
H74 H 0.53754 0.87825 0.41806 0.0
C75 C 0.67562 0.63481 0.33156 0.0
C76 C 0.48449 0.38793 0.56275 0.0
H77 H 0.6008 0.23611 0.54789 0.0
H78 H 0.94147 0.47437 0.48947 0.0
H79 H 0.9281 0.53335 0.59955 0.0
H80 H 0.86921 0.55506 0.55101 0.0
C81 C 0.88933 0.49885 0.55192 0.0
C82 C 0.76419 0.4479 0.37568 0.0
C83 C 0.45112 0.42129 0.34476 0.0
H84 H 0.68423 0.22067 0.63273 0.0
H85 H 0.28386 0.62101 0.27476 0.0
C86 C 0.29361 0.23889 0.18536 0.0
C87 C 0.24625 0.19158 0.13631 0.0
C88 C 0.35397 0.28726 0.23876 0.0
C89 C 0.40446 0.33784 0.28527 0.0
C90 C 0.91497 0.29133 0.17619 0.0
C91 C 0.96107 0.23843 0.11906 0.0
C92 C 0.85453 0.35177 0.23135 0.0
C93 C 0.80163 0.39786 0.28847 0.0
C94 C 0.85048 0.79077 0.16874 0.0
C95 C 0.90106 0.84126 0.12223 0.0
C96 C 0.80211 0.73041 0.22214 0.0
C97 C 0.7548 0.68305 0.27119 0.0
C98 C 0.40607 0.87128 0.1821 0.0
C99 C 0.35986 0.87151 0.14717 0.0
C100 C 0.43451 0.84283 0.22535 0.0
C101 C 0.43474 0.79662 0.26028 0.0
C102 C 0.35453 0.85177 0.73132 0.0
C103 C 0.30162 0.89787 0.78844 0.0
C104 C 0.41497 0.79133 0.67616 0.0
C105 C 0.46106 0.73843 0.61904 0.0
C106 C 0.35046 0.29078 0.66875 0.0
C107 C 0.40104 0.34127 0.62223 0.0
C108 C 0.30209 0.23042 0.72214 0.0
C109 C 0.25478 0.18306 0.7712 0.0
C110 C 0.93448 0.34288 0.72542 0.0
C111 C 0.93471 0.29666 0.76034 0.0
C112 C 0.90604 0.37133 0.68217 0.0
C113 C 0.85983 0.37155 0.64723 0.0
C114 C 0.7936 0.73891 0.68537 0.0
C115 C 0.74624 0.6916 0.63632 0.0
C116 C 0.85396 0.78728 0.73877 0.0
C117 C 0.90445 0.83787 0.78528 0.0
loop_
_geom_bond_atom_site_label_1
_geom_bond_atom_site_label_2
_geom_bond_distance
_geom_bond_site_symmetry_2
_ccdc_geom_bond_type
Co0 N1 2.034 . S
Co0 O15 2.262 1_554 S
Co0 O19 1.958 1_455 S
Co0 O23 1.950 1_565 S
Co0 O24 2.057 1_554 S
N1 Co0 2.034 . S
N1 C2 1.366 . S
N1 C4 1.332 . S
C2 N1 1.366 . S
C2 C5 1.377 . S
C2 H34 0.931 1_455 S
N3 C4 1.346 . S
N3 C5 1.337 . S
C4 N1 1.332 . S
C4 N3 1.346 . S
C4 C38 1.361 . S
C5 C2 1.377 . S
C5 N3 1.337 . S
C5 H41 0.930 . S
Co6 N7 2.034 . S
Co6 O20 1.950 1_655 S
Co6 O21 2.262 1_556 S
Co6 O22 1.958 1_545 S
Co6 O26 2.057 1_556 S
N7 Co6 2.034 . S
N7 C10 1.366 . S
N7 C11 1.332 . S
N8 C9 1.337 . S
N8 C11 1.346 . S
C9 N8 1.337 . S
C9 C10 1.377 . S
C9 H42 0.930 . S
C10 N7 1.366 . S
C10 C9 1.377 . S
C10 H14 0.931 1_545 S
C11 N7 1.332 . S
C11 N8 1.346 . S
C11 C28 1.361 . S
Co12 O15 2.097 1_654 S
Co12 O16 2.065 1_664 S
Co12 O17 2.065 1_665 S
Co12 O18 2.042 . S
Co12 O21 2.097 1_565 S
Co12 O25 2.042 1_554 S
C13 O21 1.253 . S
C13 O26 1.263 . S
H14 C10 0.931 1_565 S
O15 Co0 2.262 1_556 S
O15 Co12 2.097 1_456 S
O15 C39 1.253 . S
O16 Co12 2.065 1_446 S
O16 C32 1.221 . S
O17 Co12 2.065 1_445 S
O17 C27 1.221 . S
O18 Co12 2.042 . S
O18 C33 1.237 . S
O19 Co0 1.958 1_655 S
O19 C33 1.278 . S
O20 Co6 1.950 1_455 S
O20 C32 1.277 . S
O21 Co6 2.262 1_554 S
O21 Co12 2.097 1_545 S
O21 C13 1.253 . S
O22 Co6 1.958 1_565 S
O22 C40 1.278 . S
O23 Co0 1.950 1_545 S
O23 C27 1.277 . S
O24 Co0 2.057 1_556 S
O24 C39 1.263 . S
O25 Co12 2.042 1_556 S
O25 C40 1.237 . S
O26 Co6 2.057 1_554 S
O26 C13 1.263 . S
C27 O17 1.221 . S
C27 O23 1.277 . S
C28 C11 1.361 . S
C28 H29 0.960 . S
C28 H30 0.961 . S
C28 H31 0.961 . S
H29 C28 0.960 . S
H30 C28 0.961 . S
H31 C28 0.961 . S
C32 O16 1.221 . S
C32 O20 1.277 . S
C33 O18 1.237 . S
C33 O19 1.278 . S
H34 C2 0.931 1_655 S
H35 C38 0.961 . S
H36 C38 0.961 . S
H37 C38 0.960 . S
C38 C4 1.361 . S
C38 H35 0.961 . S
C38 H36 0.961 . S
C38 H37 0.960 . S
C39 O15 1.253 . S
C39 O24 1.263 . S
C40 O22 1.278 . S
C40 O25 1.237 . S
H41 C5 0.930 . S
H42 C9 0.930 . S
Co43 N44 2.034 . S
Co43 O58 2.262 . S
Co43 O62 1.958 . S
Co43 O66 1.950 . S
Co43 O67 2.057 . S
N44 Co43 2.034 . S
N44 C45 1.366 . S
N44 C47 1.332 . S
C45 N44 1.366 . S
C45 C48 1.377 . S
C45 H77 0.931 . S
N46 C47 1.346 . S
N46 C48 1.337 . S
C47 N44 1.332 . S
C47 N46 1.346 . S
C47 C81 1.361 . S
C48 C45 1.377 . S
C48 N46 1.337 . S
C48 H84 0.930 . S
Co49 N50 2.034 . S
Co49 O63 1.950 . S
Co49 O64 2.262 . S
Co49 O65 1.958 . S
Co49 O69 2.057 . S
N50 Co49 2.034 . S
N50 C53 1.366 . S
N50 C54 1.332 . S
N51 C52 1.337 . S
N51 C54 1.346 . S
C52 N51 1.337 . S
C52 C53 1.377 . S
C52 H85 0.930 . S
C53 N50 1.366 . S
C53 C52 1.377 . S
C53 H57 0.931 . S
C54 N50 1.332 . S
C54 N51 1.346 . S
C54 C71 1.361 . S
Co55 O58 2.097 . S
Co55 O59 2.065 . S
Co55 O60 2.065 . S
Co55 O61 2.042 . S
Co55 O64 2.097 . S
Co55 O68 2.042 . S
C56 O64 1.253 . S
C56 O69 1.263 . S
H57 C53 0.931 . S
O58 Co43 2.262 . S
O58 Co55 2.097 . S
O58 C82 1.253 . S
O59 Co55 2.065 . S
O59 C75 1.221 . S
O60 Co55 2.065 . S
O60 C70 1.221 . S
O61 Co55 2.042 . S
O61 C76 1.237 . S
O62 Co43 1.958 . S
O62 C76 1.278 . S
O63 Co49 1.950 . S
O63 C75 1.277 . S
O64 Co49 2.262 . S
O64 Co55 2.097 . S
O64 C56 1.253 . S
O65 Co49 1.958 . S
O65 C83 1.278 . S
O66 Co43 1.950 . S
O66 C70 1.277 . S
O67 Co43 2.057 . S
O67 C82 1.263 . S
O68 Co55 2.042 . S
O68 C83 1.237 . S
O69 Co49 2.057 . S
O69 C56 1.263 . S
C70 O60 1.221 . S
C70 O66 1.277 . S
C71 C54 1.361 . S
C71 H72 0.960 . S
C71 H73 0.961 . S
C71 H74 0.961 . S
H72 C71 0.960 . S
H73 C71 0.961 . S
H74 C71 0.961 . S
C75 O59 1.221 . S
C75 O63 1.277 . S
C76 O61 1.237 . S
C76 O62 1.278 . S
H77 C45 0.931 . S
H78 C81 0.961 . S
H79 C81 0.961 . S
H80 C81 0.960 . S
C81 C47 1.361 . S
C81 H78 0.961 . S
C81 H79 0.961 . S
C81 H80 0.960 . S
C82 O58 1.253 . S
C82 O67 1.263 . S
C83 O65 1.278 . S
C83 O68 1.237 . S
H84 C48 0.930 . S
H85 C52 0.930 . S
C86 C87 1.170 . S
C86 C88 1.380 . S
C87 C86 1.170 . S
C88 C86 1.380 . S
C88 C89 1.170 . S
C89 C88 1.170 . S
C90 C91 1.170 . S
C90 C92 1.380 . S
C91 C90 1.170 . S
C92 C90 1.380 . S
C92 C93 1.170 . S
C93 C92 1.170 . S
C94 C95 1.170 . S
C94 C96 1.380 . S
C95 C94 1.170 . S
C96 C94 1.380 . S
C96 C97 1.170 . S
C97 C96 1.170 . S
C98 C99 1.170 . S
C98 C100 1.380 . S
C99 C98 1.170 . S
C100 C98 1.380 . S
C100 C101 1.170 . S
C101 C100 1.170 . S
C102 C103 1.170 . S
C102 C104 1.380 . S
C103 C102 1.170 . S
C104 C102 1.380 . S
C104 C105 1.170 . S
C105 C104 1.170 . S
C106 C107 1.170 . S
C106 C108 1.380 . S
C107 C106 1.170 . S
C108 C106 1.380 . S
C108 C109 1.170 . S
C109 C108 1.170 . S
C110 C111 1.170 . S
C110 C112 1.380 . S
C111 C110 1.170 . S
C112 C110 1.380 . S
C112 C113 1.170 . S
C113 C112 1.170 . S
C114 C115 1.170 . S
C114 C116 1.380 . S
C115 C114 1.170 . S
C116 C114 1.380 . S
C116 C117 1.170 . S
C117 C116 1.170 . S
C87 C27 1.482 . S
C89 C83 1.454 . S
C91 C13 1.452 . S
C93 C82 1.451 . S
C95 C33 1.481 . S
C97 C75 1.442 . S
C99 N3 1.323 . S
C101 N51 1.281 . S
C103 C39 1.427 . S
C105 C56 1.445 . S
C107 C76 1.467 . S
C109 C32 1.441 . S
C111 N8 1.326 . S
C113 N46 1.287 . S
C115 C70 1.467 . S
C117 C40 1.476 . S
