# Generated by pormake.
# Topology qtz-x, (6)-cn, num edge types: 1
# Building blocks:
#     Node 0, Type 0, BuildingBlock: UKALOJ_clean_sbu_0, # of connection points: 6
#     Node 1, Type 0, BuildingBlock: UKALOJ_clean_sbu_0, # of connection points: 6
#     Node 2, Type 0, BuildingBlock: UKALOJ_clean_sbu_0, # of connection points: 6
#     Edge 3, Type (0, 0), BuildingBlock: XIVTED_clean_linker_0, # of connection points: 2
#     Edge 4, Type (0, 0), BuildingBlock: XIVTED_clean_linker_0, # of connection points: 2
#     Edge 5, Type (0, 0), BuildingBlock: XIVTED_clean_linker_0, # of connection points: 2
#     Edge 6, Type (0, 0), BuildingBlock: XIVTED_clean_linker_0, # of connection points: 2
#     Edge 7, Type (0, 0), BuildingBlock: XIVTED_clean_linker_0, # of connection points: 2
#     Edge 8, Type (0, 0), BuildingBlock: XIVTED_clean_linker_0, # of connection points: 2
#     Edge 9, Type (0, 0), BuildingBlock: XIVTED_clean_linker_0, # of connection points: 2
#     Edge 10, Type (0, 0), BuildingBlock: XIVTED_clean_linker_0, # of connection points: 2
#     Edge 11, Type (0, 0), BuildingBlock: XIVTED_clean_linker_0, # of connection points: 2
# Relax obj value: 0.297
# Max RMSD: 0.255
# Mean RMSD: 0.253
data_MOF--net-qtz-x--node1-UKALOJ_clean_sbu_0--edge1-XIVTED_clean_linker_0
_symmetry_space_group_name_H-M    P1
_symmetry_Int_Tables_number       1
_symmetry_cell_setting            triclinic
loop_
_symmetry_equiv_pos_as_xyz
'x, y, z'
_cell_length_a     20.212359
_cell_length_b     20.164099
_cell_length_c     32.940801
_cell_angle_alpha  93.699357
_cell_angle_beta   94.100563
_cell_angle_gamma 120.72807
loop_
_atom_site_label
_atom_site_type_symbol
_atom_site_fract_x
_atom_site_fract_y
_atom_site_fract_z
_atom_type_partial_charge
Zn0 Zn 0.00559 0.52861 0.19601 0.0
O1 O 0.07639 0.56118 0.14635 0.0
C2 C 0.86604 0.43359 0.13411 0.0
Zn3 Zn 0.97817 0.4078 0.18316 0.0
C4 C 0.08524 0.50971 0.12738 0.0
O5 O 0.05179 0.44152 0.13777 0.0
C6 C 0.89617 0.42155 0.25073 0.0
O7 O 0.07428 0.43692 0.22988 0.0
O8 O 0.10332 0.55819 0.23547 0.0
N9 N 0.95321 0.29677 0.17213 0.0
C10 C -0.00177 0.26549 0.17396 0.0
C11 C 0.88104 0.17229 0.15936 0.0
N12 N 0.88049 0.23886 0.1629 0.0
N13 N 0.95417 0.18731 0.16636 0.0
C14 C 0.01687 0.6854 0.18525 0.0
C15 C 0.06143 0.74548 0.24558 0.0
N16 N 0.0277 0.63851 0.20858 0.0
N17 N 0.05559 0.67598 0.246 0.0
N18 N 0.03712 0.75272 0.20787 0.0
H19 H 0.00606 0.62643 0.12575 0.0
H20 H 0.01586 0.72036 0.12474 0.0
H21 H 0.92617 0.63801 0.1351 0.0
C22 C -0.00979 0.66667 0.14009 0.0
C23 C 0.08515 0.31184 0.18105 0.0
H24 H 0.10818 0.36926 0.1698 0.0
H25 H 0.10979 0.28043 0.16541 0.0
H26 H 0.10441 0.32158 0.21441 0.0
O27 O 0.90233 0.37296 0.2275 0.0
O28 O 0.93547 0.49344 0.24624 0.0
C29 C 0.11858 0.50744 0.24535 0.0
O30 O 0.90642 0.49882 0.15595 0.0
O31 O 0.88381 0.38197 0.13765 0.0
Zn32 Zn 0.57546 0.015 0.52954 0.0
O33 O 0.53634 0.91828 0.48219 0.0
C34 C 0.59533 0.11569 0.46465 0.0
Zn35 Zn 0.46761 0.01563 0.51383 0.0
C36 C 0.46682 0.88591 0.46495 0.0
O37 O 0.42604 0.9151 0.47325 0.0
C38 C 0.57146 0.14333 0.57879 0.0
O39 O 0.4141 0.94283 0.56108 0.0
O40 O 0.51827 0.93463 0.57042 0.0
N41 N 0.36951 0.01666 0.49614 0.0
C42 C 0.31478 0.0165 0.51728 0.0
C43 C 0.2841 0.01973 0.45445 0.0
N44 N 0.35033 0.01866 0.45714 0.0
N45 N 0.26034 0.01797 0.49174 0.0
C46 C 0.72995 0.01735 0.52627 0.0
C47 C 0.75635 0.00584 0.58831 0.0
N48 N 0.67336 0.01357 0.54712 0.0
N49 N 0.68995 0.00654 0.58564 0.0
N50 N 0.78292 0.01298 0.55153 0.0
H51 H 0.75775 0.98971 0.4679 0.0
H52 H 0.76534 0.08276 0.47528 0.0
H53 H 0.6716 0.9959 0.46501 0.0
C54 C 0.73085 0.02107 0.48097 0.0
C55 C 0.31723 0.01938 0.563 0.0
H56 H 0.28456 0.95921 0.57124 0.0
H57 H 0.29013 0.05148 0.57483 0.0
H58 H 0.37751 0.04748 0.57805 0.0
O59 O 0.50937 0.11634 0.5546 0.0
O60 O 0.61084 0.1103 0.57696 0.0
C61 C 0.45084 0.91481 0.57875 0.0
O62 O 0.63278 0.09611 0.48857 0.0
O63 O 0.52331 0.08755 0.46674 0.0
Zn64 Zn 0.54154 0.58738 0.86034 0.0
O65 O 0.60261 0.55821 0.81713 0.0
C66 C 0.44672 0.59523 0.79036 0.0
Zn67 Zn 0.4394 0.47084 0.83888 0.0
C68 C 0.56853 0.49188 0.79583 0.0
O69 O 0.49839 0.44304 0.79908 0.0
C70 C 0.40857 0.56087 0.90327 0.0
O71 O 0.47472 0.42182 0.88653 0.0
O72 O 0.57477 0.53918 0.90548 0.0
N73 N 0.34174 0.36674 0.8196 0.0
C74 C 0.29176 0.31009 0.84037 0.0
C75 C 0.24672 0.27748 0.77706 0.0
N76 N 0.31386 0.34628 0.78028 0.0
N77 N 0.23195 0.25333 0.8143 0.0
C78 C 0.6882 0.74889 0.85893 0.0
C79 C 0.73385 0.78127 0.92216 0.0
N80 N 0.63885 0.69181 0.87969 0.0
N81 N 0.66706 0.71216 0.91897 0.0
N82 N 0.74802 0.80578 0.88494 0.0
H83 H 0.73793 0.77301 0.80194 0.0
H84 H 0.65375 0.78122 0.80444 0.0
H85 H 0.64275 0.68713 0.79767 0.0
C86 C 0.68026 0.74689 0.81313 0.0
C87 C 0.2989 0.31246 0.8862 0.0
H88 H 0.3365 0.37222 0.90163 0.0
H89 H 0.32479 0.27781 0.89531 0.0
H90 H 0.24099 0.28684 0.89707 0.0
O91 O 0.3791 0.49877 0.87887 0.0
O92 O 0.47959 0.61251 0.90316 0.0
C93 C 0.53627 0.46794 0.91055 0.0
O94 O 0.50651 0.63668 0.81608 0.0
O95 O 0.40721 0.52212 0.79155 0.0
H96 H 0.91902 0.7471 0.15976 0.0
H97 H 0.06101 0.18877 0.22202 0.0
H98 H 0.13717 0.90434 0.23346 0.0
H99 H 0.89205 0.05209 0.11754 0.0
H100 H 0.08894 0.08535 0.22784 0.0
H101 H 0.9062 0.85709 0.1448 0.0
C102 C 0.96535 0.80501 0.17181 0.0
C103 C 0.03049 0.81702 0.19686 0.0
C104 C 0.04675 0.07851 0.20316 0.0
C105 C 0.0144 0.94284 0.18154 0.0
C106 C 0.03148 0.138 0.19952 0.0
C107 C 0.97572 0.12979 0.16847 0.0
C108 C 0.00457 0.00959 0.17619 0.0
C109 C 0.93591 0.06067 0.14164 0.0
C110 C 0.95758 0.86776 0.16366 0.0
C111 C 0.0865 0.89301 0.2137 0.0
N112 N 0.95078 0.00293 0.14623 0.0
N113 N 0.07705 0.95316 0.2059 0.0
H114 H 0.20893 0.10645 0.46139 0.0
H115 H 0.83188 0.92101 0.57954 0.0
H116 H 0.15487 0.92822 0.54074 0.0
H117 H 0.89169 0.10729 0.5051 0.0
H118 H 0.94955 0.92186 0.56529 0.0
H119 H 0.09134 0.10591 0.4757 0.0
C120 C 0.17227 0.06756 0.48202 0.0
C121 C 0.19217 0.01861 0.50067 0.0
C122 C 0.93679 0.96229 0.55183 0.0
C123 C 0.05766 0.01689 0.51698 0.0
C124 C 0.86982 0.96179 0.56001 0.0
C125 C 0.85142 0.01287 0.54267 0.0
C126 C 0.98607 0.01483 0.52637 0.0
C127 C 0.90253 0.06521 0.51789 0.0
C128 C 0.10539 0.06726 0.49024 0.0
C129 C 0.14272 0.96857 0.52682 0.0
N130 N 0.96752 0.06475 0.51039 0.0
N131 N 0.07771 0.96903 0.53425 0.0
H132 H 0.7577 0.91103 0.83492 0.0
H133 H 0.22201 0.14813 0.86434 0.0
H134 H 0.8948 0.85355 0.91461 0.0
H135 H 0.08524 0.20573 0.78448 0.0
H136 H 0.10272 0.03924 0.88301 0.0
H137 H 0.87694 0.02002 0.8162 0.0
C138 C 0.81313 0.9213 0.84819 0.0
C139 C 0.81701 0.8728 0.87561 0.0
C140 C 0.09863 0.0757 0.86145 0.0
C141 C 0.95322 -0.00259 0.85508 0.0
C142 C 0.16661 0.1379 0.85103 0.0
C143 C 0.16286 0.1864 0.82358 0.0
C144 C 0.02653 0.06188 0.84405 0.0
C145 C 0.09003 0.16952 0.80593 0.0
C146 C 0.88108 0.98356 0.83774 0.0
C147 C 0.88989 0.88975 0.89319 0.0
N148 N 0.02454 0.10881 0.81666 0.0
N149 N 0.9553 0.95048 0.88244 0.0
H150 H 0.45273 0.67219 0.96989 0.0
H151 H 0.06751 0.40548 0.06545 0.0
H152 H 0.25414 0.46472 0.90488 0.0
H153 H 0.20677 0.64977 0.10964 0.0
H154 H 0.14429 0.42734 1.00904 0.0
H155 H 0.37179 0.66861 0.02332 0.0
C156 C 0.39212 0.62676 0.96651 0.0
C157 C 0.36048 0.5681 0.93311 0.0
C158 C 0.15802 0.47656 0.03078 0.0
C159 C 0.26867 0.56335 0.99392 0.0
C160 C 0.11438 0.46402 0.06321 0.0
C161 C 0.13091 0.52589 0.09235 0.0
C162 C 0.21996 0.55144 0.0275 0.0
C163 C 0.19212 0.60058 0.08767 0.0
C164 C 0.34613 0.62479 0.99695 0.0
C165 C 0.28159 0.51066 0.93024 0.0
N166 N 0.23532 0.61131 0.05598 0.0
N167 N 0.23894 0.50931 0.96039 0.0
H168 H 0.7501 0.22169 0.46953 0.0
H169 H 0.74731 0.30245 0.24081 0.0
H170 H 0.53391 0.13634 0.39281 0.0
H171 H 0.92855 0.47131 0.33299 0.0
H172 H 0.66848 0.23722 0.29483 0.0
H173 H 0.81861 0.30926 0.41924 0.0
C174 C 0.71699 0.22159 0.44215 0.0
C175 C 0.63619 0.17127 0.43518 0.0
C176 C 0.7248 0.28942 0.30326 0.0
C177 C 0.71446 0.27089 0.37743 0.0
C178 C 0.76966 0.32661 0.27252 0.0
C179 C 0.84405 0.39242 0.28266 0.0
C180 C 0.75568 0.31674 0.34447 0.0
C181 C 0.87101 0.42116 0.32407 0.0
C182 C 0.75611 0.27202 0.41366 0.0
C183 C 0.59621 0.17408 0.39933 0.0
N184 N 0.82738 0.38215 0.35363 0.0
N185 N 0.63592 0.22219 0.37143 0.0
H186 H 0.36249 0.53234 0.71417 0.0
H187 H 0.42825 0.94097 0.65724 0.0
H188 H 0.4814 0.74495 0.79694 0.0
H189 H 0.40393 0.76253 0.56748 0.0
H190 H 0.40705 0.8544 0.71056 0.0
H191 H 0.33943 0.60256 0.66189 0.0
C192 C 0.38264 0.59335 0.72152 0.0
C193 C 0.42475 0.63319 0.75968 0.0
C194 C 0.40436 0.83352 0.679 0.0
C195 C 0.39761 0.71306 0.70063 0.0
C196 C 0.41557 0.88249 0.64866 0.0
C197 C 0.41705 0.85812 0.60817 0.0
C198 C 0.39446 0.75995 0.66852 0.0
C199 C 0.40242 0.78273 0.59849 0.0
C200 C 0.36961 0.6333 0.69175 0.0
C201 C 0.44961 0.71226 0.76768 0.0
N202 N 0.39223 0.73633 0.62851 0.0
N203 N 0.43586 0.7496 0.73841 0.0
H204 H 0.57304 0.53676 0.98781 0.0
H205 H 0.79318 0.32525 0.06554 0.0
H206 H 0.56102 0.34564 0.91409 0.0
H207 H 0.79108 0.51317 0.13472 0.0
H208 H 0.69592 0.31801 1.01298 0.0
H209 H 0.6383 0.51422 0.04532 0.0
C210 C 0.58324 0.48903 0.98408 0.0
C211 C 0.56199 0.44308 0.94633 0.0
C212 C 0.71621 0.36009 0.03995 0.0
C213 C 0.63922 0.41803 1.01181 0.0
C214 C 0.77152 0.36415 0.06994 0.0
C215 C 0.80109 0.42068 0.10425 0.0
C216 C 0.69032 0.41266 0.04461 0.0
C217 C 0.77105 0.46956 0.10848 0.0
C218 C 0.62082 0.47624 1.01688 0.0
C219 C 0.57635 0.38197 0.94294 0.0
N220 N 0.71797 0.4647 0.07899 0.0
N221 N 0.61544 0.37189 0.97519 0.0
H222 H 0.26984 0.60485 0.23777 0.0
H223 H 0.53178 0.84029 0.40657 0.0
H224 H 0.11627 0.47495 0.3242 0.0
H225 H 0.31872 0.7666 0.45896 0.0
H226 H 0.46106 0.72741 0.3535 0.0
H227 H 0.37144 0.68421 0.29444 0.0
C228 C 0.25903 0.59068 0.26872 0.0
C229 C 0.18526 0.53275 0.27646 0.0
C230 C 0.43009 0.73579 0.37683 0.0
C231 C 0.30007 0.62487 0.34166 0.0
C232 C 0.47053 0.79972 0.40721 0.0
C233 C 0.4305 0.8134 0.4365 0.0
C234 C 0.34958 0.68522 0.37636 0.0
C235 C 0.35133 0.75897 0.43632 0.0
C236 C 0.31701 0.63617 0.30116 0.0
C237 C 0.17297 0.5182 0.31705 0.0
N238 N 0.31349 0.69766 0.40665 0.0
N239 N 0.22915 0.56539 0.34824 0.0
H240 H 0.63499 0.40575 0.80704 0.0
H241 H 0.53638 0.25563 0.57198 0.0
H242 H 0.57971 0.5206 0.71672 0.0
H243 H 0.65967 0.18608 0.65415 0.0
H244 H 0.56188 0.35981 0.62413 0.0
H245 H 0.65773 0.33394 0.75225 0.0
C246 C 0.63085 0.41805 0.77573 0.0
C247 C 0.60688 0.46988 0.7662 0.0
C248 C 0.58447 0.32267 0.63072 0.0
C249 C 0.6289 0.38567 0.70338 0.0
C250 C 0.56956 0.26282 0.60097 0.0
C251 C 0.59531 0.21164 0.60891 0.0
C252 C 0.62403 0.33071 0.66924 0.0
C253 C 0.63866 0.2242 0.64686 0.0
C254 C 0.64307 0.37661 0.74445 0.0
C255 C 0.59957 0.48208 0.72521 0.0
N256 N 0.65049 0.28168 0.67596 0.0
N257 N 0.60927 0.43931 0.69521 0.0
loop_
_geom_bond_atom_site_label_1
_geom_bond_atom_site_label_2
_geom_bond_distance
_geom_bond_site_symmetry_2
_ccdc_geom_bond_type
Zn0 O1 2.055 . S
Zn0 O8 2.046 . S
Zn0 N16 2.036 . S
Zn0 O28 2.053 1_455 S
Zn0 O30 2.066 1_455 S
O1 Zn0 2.055 . S
O1 C4 1.259 . S
C2 O30 1.256 . S
C2 O31 1.244 . S
Zn3 O5 2.046 . S
Zn3 O7 2.055 . S
Zn3 N9 2.036 . S
Zn3 O27 2.066 1_455 S
Zn3 O31 2.053 1_455 S
C4 O1 1.259 . S
C4 O5 1.254 . S
O5 Zn3 2.046 . S
O5 C4 1.254 . S
C6 O27 1.256 . S
C6 O28 1.244 . S
O7 Zn3 2.055 . S
O7 C29 1.259 . S
O8 Zn0 2.046 . S
O8 C29 1.254 . S
N9 Zn3 2.036 . S
N9 C10 1.298 . S
N9 N12 1.398 1_455 S
C10 N9 1.298 . S
C10 N13 1.367 1_455 S
C10 C23 1.481 . S
C11 N12 1.299 . S
C11 N13 1.379 . S
N12 N9 1.398 1_655 S
N12 C11 1.299 . S
N13 C10 1.367 1_655 S
N13 C11 1.379 . S
C14 N16 1.298 . S
C14 N18 1.367 1_455 S
C14 C22 1.481 . S
C15 N17 1.299 . S
C15 N18 1.379 . S
N16 Zn0 2.036 . S
N16 C14 1.298 . S
N16 N17 1.398 1_455 S
N17 C15 1.299 . S
N17 N16 1.398 1_655 S
N18 C14 1.367 1_655 S
N18 C15 1.379 . S
H19 C22 0.980 . S
H20 C22 0.981 . S
H21 C22 0.981 1_655 S
C22 C14 1.481 . S
C22 H19 0.980 . S
C22 H20 0.981 . S
C22 H21 0.981 1_455 S
C23 C10 1.481 . S
C23 H24 0.980 . S
C23 H25 0.981 . S
C23 H26 0.981 . S
H24 C23 0.980 . S
H25 C23 0.981 . S
H26 C23 0.981 . S
O27 Zn3 2.066 1_655 S
O27 C6 1.256 . S
O28 Zn0 2.053 1_655 S
O28 C6 1.244 . S
C29 O7 1.259 . S
C29 O8 1.254 . S
O30 Zn0 2.066 1_655 S
O30 C2 1.256 . S
O31 C2 1.244 . S
O31 Zn3 2.053 1_655 S
Zn32 O33 2.055 1_545 S
Zn32 O40 2.046 1_545 S
Zn32 N48 2.036 . S
Zn32 O60 2.053 . S
Zn32 O62 2.066 . S
O33 Zn32 2.055 1_565 S
O33 C36 1.259 . S
C34 O62 1.256 . S
C34 O63 1.244 . S
Zn35 O37 2.046 1_545 S
Zn35 O39 2.055 1_545 S
Zn35 N41 2.036 . S
Zn35 O59 2.066 . S
Zn35 O63 2.052 . S
C36 O33 1.259 . S
C36 O37 1.254 . S
O37 Zn35 2.046 1_565 S
O37 C36 1.254 . S
C38 O59 1.256 . S
C38 O60 1.244 . S
O39 Zn35 2.055 1_565 S
O39 C61 1.259 . S
O40 Zn32 2.046 1_565 S
O40 C61 1.254 . S
N41 Zn35 2.036 . S
N41 C42 1.298 . S
N41 N44 1.398 . S
C42 N41 1.298 . S
C42 N45 1.367 . S
C42 C55 1.481 1_545 S
C43 N44 1.299 . S
C43 N45 1.379 . S
N44 N41 1.398 . S
N44 C43 1.299 . S
N45 C42 1.367 . S
N45 C43 1.379 . S
C46 N48 1.298 . S
C46 N50 1.367 . S
C46 C54 1.481 1_545 S
C47 N49 1.299 . S
C47 N50 1.379 . S
N48 Zn32 2.036 . S
N48 C46 1.298 . S
N48 N49 1.398 . S
N49 C47 1.299 . S
N49 N48 1.398 . S
N50 C46 1.367 . S
N50 C47 1.379 . S
H51 C54 0.980 . S
H52 C54 0.981 . S
H53 C54 0.981 1_545 S
C54 C46 1.481 1_565 S
C54 H51 0.980 . S
C54 H52 0.981 . S
C54 H53 0.981 1_565 S
C55 C42 1.481 1_565 S
C55 H56 0.980 . S
C55 H57 0.981 . S
C55 H58 0.981 1_565 S
H56 C55 0.980 . S
H57 C55 0.981 . S
H58 C55 0.981 1_545 S
O59 Zn35 2.066 . S
O59 C38 1.256 . S
O60 Zn32 2.053 . S
O60 C38 1.244 . S
C61 O39 1.259 . S
C61 O40 1.254 . S
O62 Zn32 2.066 . S
O62 C34 1.256 . S
O63 C34 1.244 . S
O63 Zn35 2.052 . S
Zn64 O65 2.055 . S
Zn64 O72 2.046 . S
Zn64 N80 2.036 . S
Zn64 O92 2.053 . S
Zn64 O94 2.066 . S
O65 Zn64 2.055 . S
O65 C68 1.259 . S
C66 O94 1.256 . S
C66 O95 1.244 . S
Zn67 O69 2.046 . S
Zn67 O71 2.055 . S
Zn67 N73 2.036 . S
Zn67 O91 2.066 . S
Zn67 O95 2.053 . S
C68 O65 1.259 . S
C68 O69 1.254 . S
O69 Zn67 2.046 . S
O69 C68 1.254 . S
C70 O91 1.256 . S
C70 O92 1.244 . S
O71 Zn67 2.055 . S
O71 C93 1.259 . S
O72 Zn64 2.046 . S
O72 C93 1.254 . S
N73 Zn67 2.036 . S
N73 C74 1.298 . S
N73 N76 1.398 . S
C74 N73 1.298 . S
C74 N77 1.367 . S
C74 C87 1.481 . S
C75 N76 1.299 . S
C75 N77 1.379 . S
N76 N73 1.398 . S
N76 C75 1.299 . S
N77 C74 1.367 . S
N77 C75 1.379 . S
C78 N80 1.298 . S
C78 N82 1.367 . S
C78 C86 1.481 . S
C79 N81 1.299 . S
C79 N82 1.379 . S
N80 Zn64 2.036 . S
N80 C78 1.298 . S
N80 N81 1.398 . S
N81 C79 1.299 . S
N81 N80 1.398 . S
N82 C78 1.367 . S
N82 C79 1.379 . S
H83 C86 0.980 . S
H84 C86 0.981 . S
H85 C86 0.981 . S
C86 C78 1.481 . S
C86 H83 0.980 . S
C86 H84 0.981 . S
C86 H85 0.981 . S
C87 C74 1.481 . S
C87 H88 0.980 . S
C87 H89 0.981 . S
C87 H90 0.981 . S
H88 C87 0.980 . S
H89 C87 0.981 . S
H90 C87 0.981 . S
O91 Zn67 2.066 . S
O91 C70 1.256 . S
O92 Zn64 2.053 . S
O92 C70 1.244 . S
C93 O71 1.259 . S
C93 O72 1.254 . S
O94 Zn64 2.066 . S
O94 C66 1.256 . S
O95 C66 1.244 . S
O95 Zn67 2.053 . S
H96 C102 0.930 . S
H97 C106 0.930 1_455 S
H98 C111 0.929 1_455 S
H99 C109 0.929 . S
H100 C104 0.929 1_455 S
H101 C110 0.929 . S
C102 H96 0.930 . S
C102 C103 1.367 . S
C102 C110 1.378 . S
C103 C102 1.367 . S
C103 C111 1.433 . S
C104 H100 0.929 1_655 S
C104 C106 1.378 . S
C104 C108 1.350 . S
C105 C108 1.463 1_565 S
C105 C110 1.350 . S
C105 N113 1.427 . S
C106 H97 0.930 1_655 S
C106 C104 1.378 . S
C106 C107 1.367 . S
C107 C106 1.367 . S
C107 C109 1.433 . S
C108 C104 1.350 . S
C108 C105 1.463 1_545 S
C108 N112 1.427 . S
C109 H99 0.929 . S
C109 C107 1.433 . S
C109 N112 1.384 . S
C110 H101 0.929 . S
C110 C102 1.378 . S
C110 C105 1.350 . S
C111 H98 0.929 1_655 S
C111 C103 1.433 . S
C111 N113 1.384 . S
N112 C108 1.427 . S
N112 C109 1.384 . S
N113 C105 1.427 . S
N113 C111 1.384 . S
H114 C120 0.930 . S
H115 C124 0.930 . S
H116 C129 0.929 . S
H117 C127 0.929 . S
H118 C122 0.929 . S
H119 C128 0.929 . S
C120 H114 0.930 . S
C120 C121 1.367 . S
C120 C128 1.378 . S
C121 C120 1.367 . S
C121 C129 1.433 1_545 S
C122 H118 0.929 . S
C122 C124 1.378 . S
C122 C126 1.350 1_665 S
C123 C126 1.463 . S
C123 C128 1.350 . S
C123 N131 1.427 1_545 S
C124 H115 0.930 . S
C124 C122 1.378 . S
C124 C125 1.367 1_565 S
C125 C124 1.367 1_545 S
C125 C127 1.433 . S
C126 C122 1.350 1_445 S
C126 C123 1.463 . S
C126 N130 1.427 . S
C127 H117 0.929 . S
C127 C125 1.433 . S
C127 N130 1.384 1_655 S
C128 H119 0.929 . S
C128 C120 1.378 . S
C128 C123 1.350 . S
C129 H116 0.929 . S
C129 C121 1.433 1_565 S
C129 N131 1.384 . S
N130 C126 1.427 . S
N130 C127 1.384 1_455 S
N131 C123 1.427 1_565 S
N131 C129 1.384 . S
H132 C138 0.930 . S
H133 C142 0.930 . S
H134 C147 0.929 . S
H135 C145 0.929 . S
H136 C140 0.929 . S
H137 C146 0.929 1_545 S
C138 H132 0.930 . S
C138 C139 1.367 . S
C138 C146 1.378 . S
C139 C138 1.367 . S
C139 C147 1.433 . S
C140 H136 0.929 . S
C140 C142 1.378 . S
C140 C144 1.350 . S
C141 C144 1.463 1_655 S
C141 C146 1.350 1_545 S
C141 N149 1.427 1_545 S
C142 H133 0.930 . S
C142 C140 1.378 . S
C142 C143 1.367 . S
C143 C142 1.367 . S
C143 C145 1.433 . S
C144 C140 1.350 . S
C144 C141 1.463 1_455 S
C144 N148 1.427 . S
C145 H135 0.929 . S
C145 C143 1.433 . S
C145 N148 1.384 . S
C146 H137 0.929 1_565 S
C146 C138 1.378 . S
C146 C141 1.350 1_565 S
C147 H134 0.929 . S
C147 C139 1.433 . S
C147 N149 1.384 . S
N148 C144 1.427 . S
N148 C145 1.384 . S
N149 C141 1.427 1_565 S
N149 C147 1.384 . S
H150 C156 0.930 . S
H151 C160 0.930 . S
H152 C165 0.929 . S
H153 C163 0.929 . S
H154 C158 0.929 . S
H155 C164 0.929 . S
C156 H150 0.930 . S
C156 C157 1.367 . S
C156 C164 1.378 . S
C157 C156 1.367 . S
C157 C165 1.433 . S
C158 H154 0.929 . S
C158 C160 1.378 . S
C158 C162 1.350 . S
C159 C162 1.463 1_556 S
C159 C164 1.350 . S
C159 N167 1.427 . S
C160 H151 0.930 . S
C160 C158 1.378 . S
C160 C161 1.367 . S
C161 C160 1.367 . S
C161 C163 1.433 . S
C162 C158 1.350 . S
C162 C159 1.463 1_554 S
C162 N166 1.427 . S
C163 H153 0.929 . S
C163 C161 1.433 . S
C163 N166 1.384 . S
C164 H155 0.929 . S
C164 C156 1.378 . S
C164 C159 1.350 . S
C165 H152 0.929 . S
C165 C157 1.433 . S
C165 N167 1.384 . S
N166 C162 1.427 . S
N166 C163 1.384 . S
N167 C159 1.427 . S
N167 C165 1.384 . S
H168 C174 0.930 . S
H169 C178 0.930 . S
H170 C183 0.929 . S
H171 C181 0.929 . S
H172 C176 0.929 . S
H173 C182 0.929 . S
C174 H168 0.930 . S
C174 C175 1.367 . S
C174 C182 1.378 . S
C175 C174 1.367 . S
C175 C183 1.433 . S
C176 H172 0.929 . S
C176 C178 1.378 . S
C176 C180 1.350 . S
C177 C180 1.463 . S
C177 C182 1.350 . S
C177 N185 1.427 . S
C178 H169 0.930 . S
C178 C176 1.378 . S
C178 C179 1.367 . S
C179 C178 1.367 . S
C179 C181 1.433 . S
C180 C176 1.350 . S
C180 C177 1.463 . S
C180 N184 1.427 . S
C181 H171 0.929 . S
C181 C179 1.433 . S
C181 N184 1.384 . S
C182 H173 0.929 . S
C182 C174 1.378 . S
C182 C177 1.350 . S
C183 H170 0.929 . S
C183 C175 1.433 . S
C183 N185 1.384 . S
N184 C180 1.427 . S
N184 C181 1.384 . S
N185 C177 1.427 . S
N185 C183 1.384 . S
H186 C192 0.930 . S
H187 C196 0.930 . S
H188 C201 0.929 . S
H189 C199 0.929 . S
H190 C194 0.929 . S
H191 C200 0.929 . S
C192 H186 0.930 . S
C192 C193 1.367 . S
C192 C200 1.378 . S
C193 C192 1.367 . S
C193 C201 1.433 . S
C194 H190 0.929 . S
C194 C196 1.378 . S
C194 C198 1.350 . S
C195 C198 1.463 . S
C195 C200 1.350 . S
C195 N203 1.427 . S
C196 H187 0.930 . S
C196 C194 1.378 . S
C196 C197 1.367 . S
C197 C196 1.367 . S
C197 C199 1.433 . S
C198 C194 1.350 . S
C198 C195 1.463 . S
C198 N202 1.427 . S
C199 H189 0.929 . S
C199 C197 1.433 . S
C199 N202 1.384 . S
C200 H191 0.929 . S
C200 C192 1.378 . S
C200 C195 1.350 . S
C201 H188 0.929 . S
C201 C193 1.433 . S
C201 N203 1.384 . S
N202 C198 1.427 . S
N202 C199 1.384 . S
N203 C195 1.427 . S
N203 C201 1.384 . S
H204 C210 0.930 . S
H205 C214 0.930 . S
H206 C219 0.929 . S
H207 C217 0.929 . S
H208 C212 0.929 1_556 S
H209 C218 0.929 1_554 S
C210 H204 0.930 . S
C210 C211 1.367 . S
C210 C218 1.378 . S
C211 C210 1.367 . S
C211 C219 1.433 . S
C212 H208 0.929 1_554 S
C212 C214 1.378 . S
C212 C216 1.350 . S
C213 C216 1.463 1_556 S
C213 C218 1.350 . S
C213 N221 1.427 . S
C214 H205 0.930 . S
C214 C212 1.378 . S
C214 C215 1.367 . S
C215 C214 1.367 . S
C215 C217 1.433 . S
C216 C212 1.350 . S
C216 C213 1.463 1_554 S
C216 N220 1.427 . S
C217 H207 0.929 . S
C217 C215 1.433 . S
C217 N220 1.384 . S
C218 H209 0.929 1_556 S
C218 C210 1.378 . S
C218 C213 1.350 . S
C219 H206 0.929 . S
C219 C211 1.433 . S
C219 N221 1.384 . S
N220 C216 1.427 . S
N220 C217 1.384 . S
N221 C213 1.427 . S
N221 C219 1.384 . S
H222 C228 0.930 . S
H223 C232 0.930 . S
H224 C237 0.929 . S
H225 C235 0.929 . S
H226 C230 0.929 . S
H227 C236 0.929 . S
C228 H222 0.930 . S
C228 C229 1.367 . S
C228 C236 1.378 . S
C229 C228 1.367 . S
C229 C237 1.433 . S
C230 H226 0.929 . S
C230 C232 1.378 . S
C230 C234 1.350 . S
C231 C234 1.463 . S
C231 C236 1.350 . S
C231 N239 1.427 . S
C232 H223 0.930 . S
C232 C230 1.378 . S
C232 C233 1.367 . S
C233 C232 1.367 . S
C233 C235 1.433 . S
C234 C230 1.350 . S
C234 C231 1.463 . S
C234 N238 1.427 . S
C235 H225 0.929 . S
C235 C233 1.433 . S
C235 N238 1.384 . S
C236 H227 0.929 . S
C236 C228 1.378 . S
C236 C231 1.350 . S
C237 H224 0.929 . S
C237 C229 1.433 . S
C237 N239 1.384 . S
N238 C234 1.427 . S
N238 C235 1.384 . S
N239 C231 1.427 . S
N239 C237 1.384 . S
H240 C246 0.930 . S
H241 C250 0.930 . S
H242 C255 0.929 . S
H243 C253 0.929 . S
H244 C248 0.929 . S
H245 C254 0.929 . S
C246 H240 0.930 . S
C246 C247 1.367 . S
C246 C254 1.378 . S
C247 C246 1.367 . S
C247 C255 1.433 . S
C248 H244 0.929 . S
C248 C250 1.378 . S
C248 C252 1.350 . S
C249 C252 1.463 . S
C249 C254 1.350 . S
C249 N257 1.427 . S
C250 H241 0.930 . S
C250 C248 1.378 . S
C250 C251 1.367 . S
C251 C250 1.367 . S
C251 C253 1.433 . S
C252 C248 1.350 . S
C252 C249 1.463 . S
C252 N256 1.427 . S
C253 H243 0.929 . S
C253 C251 1.433 . S
C253 N256 1.384 . S
C254 H245 0.929 . S
C254 C246 1.378 . S
C254 C249 1.350 . S
C255 H242 0.929 . S
C255 C247 1.433 . S
C255 N257 1.384 . S
N256 C252 1.427 . S
N256 C253 1.384 . S
N257 C249 1.427 . S
N257 C255 1.384 . S
C103 N18 0.876 . S
C107 N13 0.875 . S
C121 N45 0.860 . S
C125 N50 0.856 . S
C139 N82 0.865 . S
C143 N77 0.863 . S
C157 C70 1.660 . S
C161 C4 1.657 . S
C175 C34 2.001 . S
C179 C6 2.002 . S
C193 C66 1.656 . S
C197 C61 1.666 . S
C211 C93 1.687 . S
C215 C2 1.687 . S
C229 C29 1.360 . S
C233 C36 1.350 . S
C247 C68 1.679 . S
C251 C38 1.681 . S
