# Generated by pormake.
# Topology upa, (4)-cn, num edge types: 1
# Building blocks:
#     Node 0, Type 0, BuildingBlock: GALJAG_clean_sbu_0, # of connection points: 4
#     Node 1, Type 0, BuildingBlock: GALJAG_clean_sbu_0, # of connection points: 4
#     Node 2, Type 0, BuildingBlock: GALJAG_clean_sbu_0, # of connection points: 4
#     Node 3, Type 0, BuildingBlock: GALJAG_clean_sbu_0, # of connection points: 4
#     Node 4, Type 0, BuildingBlock: GALJAG_clean_sbu_0, # of connection points: 4
#     Node 5, Type 0, BuildingBlock: GALJAG_clean_sbu_0, # of connection points: 4
#     Node 6, Type 0, BuildingBlock: GALJAG_clean_sbu_0, # of connection points: 4
#     Node 7, Type 0, BuildingBlock: GALJAG_clean_sbu_0, # of connection points: 4
#     Edge 8, Type (0, 0), BuildingBlock: EYOCIG_clean_linker_4, # of connection points: 2
#     Edge 9, Type (0, 0), BuildingBlock: EYOCIG_clean_linker_4, # of connection points: 2
#     Edge 10, Type (0, 0), BuildingBlock: EYOCIG_clean_linker_4, # of connection points: 2
#     Edge 11, Type (0, 0), BuildingBlock: EYOCIG_clean_linker_4, # of connection points: 2
#     Edge 12, Type (0, 0), BuildingBlock: EYOCIG_clean_linker_4, # of connection points: 2
#     Edge 13, Type (0, 0), BuildingBlock: EYOCIG_clean_linker_4, # of connection points: 2
#     Edge 14, Type (0, 0), BuildingBlock: EYOCIG_clean_linker_4, # of connection points: 2
#     Edge 15, Type (0, 0), BuildingBlock: EYOCIG_clean_linker_4, # of connection points: 2
#     Edge 16, Type (0, 0), BuildingBlock: EYOCIG_clean_linker_4, # of connection points: 2
#     Edge 17, Type (0, 0), BuildingBlock: EYOCIG_clean_linker_4, # of connection points: 2
#     Edge 18, Type (0, 0), BuildingBlock: EYOCIG_clean_linker_4, # of connection points: 2
#     Edge 19, Type (0, 0), BuildingBlock: EYOCIG_clean_linker_4, # of connection points: 2
#     Edge 20, Type (0, 0), BuildingBlock: EYOCIG_clean_linker_4, # of connection points: 2
#     Edge 21, Type (0, 0), BuildingBlock: EYOCIG_clean_linker_4, # of connection points: 2
#     Edge 22, Type (0, 0), BuildingBlock: EYOCIG_clean_linker_4, # of connection points: 2
#     Edge 23, Type (0, 0), BuildingBlock: EYOCIG_clean_linker_4, # of connection points: 2
# Relax obj value: 0.230
# Max RMSD: 0.125
# Mean RMSD: 0.125
data_MOF--net-upa--node1-GALJAG_clean_sbu_0--edge1-EYOCIG_clean_linker_4
_symmetry_space_group_name_H-M    P1
_symmetry_Int_Tables_number       1
_symmetry_cell_setting            triclinic
loop_
_symmetry_equiv_pos_as_xyz
'x, y, z'
_cell_length_a     21.453024
_cell_length_b     21.452408
_cell_length_c     33.607577
_cell_angle_alpha  89.987937
_cell_angle_beta   89.996555
_cell_angle_gamma 89.994964
loop_
_atom_site_label
_atom_site_type_symbol
_atom_site_fract_x
_atom_site_fract_y
_atom_site_fract_z
_atom_type_partial_charge
In0 In 0.13465 0.23153 0.33486 0.0
O1 O 0.139 0.27917 0.39625 0.0
O2 O 0.18323 0.19071 0.3884 0.0
C3 C 0.03222 0.26807 0.29273 0.0
C4 C 0.24694 0.24943 0.30067 0.0
C5 C 0.08213 0.12211 0.33784 0.0
O6 O 0.04362 0.28985 0.32703 0.0
O7 O 0.07595 0.23639 0.27812 0.0
O8 O 0.12862 0.13229 0.31591 0.0
O9 O 0.06406 0.16586 0.36 0.0
C10 C 0.17057 0.23516 0.41138 0.0
O11 O 0.219 0.19796 0.30146 0.0
O12 O 0.21662 0.29509 0.31502 0.0
In13 In 0.26054 0.63489 0.8344 0.0
O14 O 0.29271 0.71977 0.80076 0.0
O15 O 0.19586 0.71626 0.81517 0.0
C16 C 0.36844 0.57974 0.8398 0.0
C17 C 0.25909 0.67156 0.91068 0.0
C18 C 0.22427 0.53336 0.79153 0.0
O19 O 0.3603 0.62577 0.81705 0.0
O20 O 0.3232 0.5631 0.8612 0.0
O21 O 0.20143 0.54476 0.82558 0.0
O22 O 0.25713 0.57671 0.77749 0.0
C23 C 0.24085 0.74714 0.80044 0.0
O24 O 0.21462 0.63982 0.8962 0.0
O25 O 0.30274 0.68439 0.88708 0.0
In26 In 0.85756 0.7613 0.33439 0.0
O27 O 0.77331 0.79493 0.30101 0.0
O28 O 0.77597 0.69762 0.31426 0.0
C29 C 0.91232 0.86942 0.33817 0.0
C30 C 0.82116 0.7591 0.4108 0.0
C31 C 0.9589 0.7251 0.29116 0.0
O32 O 0.86547 0.86075 0.31625 0.0
O33 O 0.92947 0.82489 0.36 0.0
O34 O 0.94836 0.70299 0.32552 0.0
O35 O 0.91489 0.75704 0.27712 0.0
C36 C 0.74567 0.74329 0.29987 0.0
O37 O 0.85277 0.71471 0.39611 0.0
O38 O 0.80842 0.80298 0.38737 0.0
In39 In 0.73164 0.35763 0.83444 0.0
O40 O 0.69951 0.27299 0.80059 0.0
O41 O 0.79659 0.27699 0.81436 0.0
C42 C 0.62444 0.41392 0.8397 0.0
C43 C 0.73274 0.3209 0.91065 0.0
C44 C 0.76705 0.45998 0.79227 0.0
O45 O 0.63194 0.36766 0.81702 0.0
O46 O 0.66966 0.42961 0.86138 0.0
O47 O 0.7903 0.44806 0.82614 0.0
O48 O 0.73459 0.41658 0.7779 0.0
C49 C 0.7516 0.24609 0.79967 0.0
O50 O 0.7774 0.35242 0.8962 0.0
O51 O 0.68922 0.30798 0.88697 0.0
In52 In 0.63447 0.2609 0.17627 0.0
O53 O 0.71909 0.29434 0.20942 0.0
O54 O 0.71604 0.19702 0.1965 0.0
C55 C 0.58216 0.37045 0.17286 0.0
C56 C 0.66856 0.25755 0.09941 0.0
C57 C 0.53287 0.22462 0.21925 0.0
O58 O 0.62893 0.36049 0.1946 0.0
O59 O 0.56347 0.32629 0.15127 0.0
O60 O 0.54369 0.20254 0.18495 0.0
O61 O 0.57662 0.25682 0.23334 0.0
C62 C 0.7465 0.24262 0.21081 0.0
O63 O 0.63725 0.21354 0.11475 0.0
O64 O 0.68248 0.3015 0.12247 0.0
In65 In 0.231 0.13504 0.6759 0.0
O66 O 0.19717 0.21961 0.7089 0.0
O67 O 0.29461 0.21669 0.69612 0.0
C68 C 0.12256 0.08082 0.67227 0.0
C69 C 0.2352 0.1709 0.59939 0.0
C70 C 0.26598 0.03333 0.71918 0.0
O71 O 0.13146 0.12783 0.694 0.0
O72 O 0.16692 0.06346 0.65037 0.0
O73 O 0.28801 0.04346 0.68477 0.0
O74 O 0.23506 0.07799 0.73332 0.0
C75 C 0.24883 0.24719 0.71019 0.0
O76 O 0.2792 0.13944 0.61468 0.0
O77 O 0.19057 0.18358 0.62226 0.0
In78 In 0.35774 0.73158 0.17592 0.0
O79 O 0.27282 0.6981 0.20895 0.0
O80 O 0.27553 0.7952 0.19533 0.0
C81 C 0.41201 0.62302 0.17247 0.0
C82 C 0.3234 0.73527 0.09916 0.0
C83 C 0.45959 0.76832 0.21848 0.0
O84 O 0.36536 0.63208 0.19451 0.0
O85 O 0.42905 0.66727 0.1504 0.0
O86 O 0.4482 0.79048 0.18427 0.0
O87 O 0.41604 0.7361 0.23284 0.0
C88 C 0.24496 0.74965 0.20961 0.0
O89 O 0.35455 0.7793 0.1146 0.0
O90 O 0.31001 0.69087 0.12205 0.0
In91 In 0.76103 0.85762 0.67595 0.0
O92 O 0.79367 0.77268 0.7092 0.0
O93 O 0.69627 0.77703 0.69667 0.0
C94 C 0.87051 0.91006 0.67268 0.0
C95 C 0.7569 0.82309 0.59922 0.0
C96 C 0.72636 0.96016 0.71836 0.0
O97 O 0.86062 0.86317 0.69434 0.0
O98 O 0.82649 0.92845 0.65086 0.0
O99 O 0.70408 0.94927 0.68412 0.0
O100 O 0.75748 0.9159 0.73282 0.0
C101 C 0.74157 0.74603 0.71091 0.0
O102 O 0.71302 0.85443 0.61469 0.0
O103 O 0.80122 0.80945 0.62209 0.0
C104 C 0.01742 0.02085 0.33342 0.0
C105 C 0.04805 0.06671 0.33478 0.0
C106 C 0.97966 0.96895 0.33361 0.0
C107 C 0.94803 0.92379 0.33518 0.0
C108 C 0.47103 0.51665 0.83834 0.0
C109 C 0.42399 0.54553 0.83903 0.0
C110 C 0.5245 0.48108 0.8379 0.0
C111 C 0.57003 0.44988 0.83842 0.0
C112 C 0.51789 0.47205 0.17688 0.0
C113 C 0.54833 0.42605 0.17569 0.0
C114 C 0.47981 0.52375 0.1769 0.0
C115 C 0.44778 0.56866 0.17554 0.0
C116 C 0.0232 0.01328 0.67739 0.0
C117 C 0.06824 0.04508 0.67562 0.0
C118 C 0.97142 0.97531 0.67748 0.0
C119 C 0.92572 0.94445 0.67592 0.0
C120 C 0.20778 0.22474 0.4858 0.0
C121 C 0.18922 0.23312 0.45236 0.0
C122 C 0.2249 0.20774 0.52489 0.0
C123 C 0.2333 0.18933 0.55836 0.0
C124 C 0.27175 0.70802 0.98512 0.0
C125 C 0.26266 0.6899 0.95167 0.0
C126 C 0.28858 0.72476 0.02429 0.0
C127 C 0.30606 0.73314 0.05796 0.0
C128 C 0.76752 0.78838 0.52434 0.0
C129 C 0.75901 0.80586 0.55799 0.0
C130 C 0.78448 0.77144 0.48522 0.0
C131 C 0.80275 0.76233 0.45179 0.0
C132 C 0.71938 0.28566 0.98526 0.0
C133 C 0.72873 0.3032 0.95171 0.0
C134 C 0.70258 0.26904 0.02445 0.0
C135 C 0.68543 0.26025 0.05814 0.0
C136 C 0.42118 0.23317 0.25388 0.0
C137 C 0.47085 0.22743 0.23675 0.0
C138 C 0.36199 0.24543 0.27184 0.0
C139 C 0.31011 0.25291 0.28558 0.0
C140 C 0.24274 0.86231 0.7716 0.0
C141 C 0.23614 0.81031 0.7854 0.0
C142 C 0.25491 0.9216 0.75368 0.0
C143 C 0.26155 0.97136 0.73673 0.0
C144 C 0.63113 0.747 0.2702 0.0
C145 C 0.68281 0.73961 0.28429 0.0
C146 C 0.57194 0.75935 0.25226 0.0
C147 C 0.52198 0.76533 0.23548 0.0
C148 C 0.75 0.1316 0.76986 0.0
C149 C 0.75655 0.18332 0.78404 0.0
C150 C 0.73766 0.0724 0.75194 0.0
C151 C 0.73078 0.02245 0.73532 0.0
C152 C 0.91981 0.25862 0.25906 0.0
C153 C 0.96977 0.26481 0.27582 0.0
C154 C 0.86072 0.24615 0.24099 0.0
C155 C 0.80919 0.23877 0.22668 0.0
C156 C 0.24508 0.36197 0.73953 0.0
C157 C 0.25245 0.31017 0.72561 0.0
C158 C 0.23286 0.42122 0.75745 0.0
C159 C 0.227 0.47108 0.77435 0.0
C160 C 0.12971 0.74627 0.23829 0.0
C161 C 0.18171 0.75343 0.22461 0.0
C162 C 0.07048 0.73415 0.2563 0.0
C163 C 0.02085 0.72825 0.2735 0.0
C164 C 0.7565 0.57278 0.75932 0.0
C165 C 0.76329 0.52264 0.77575 0.0
C166 C 0.74395 0.63198 0.7414 0.0
C167 C 0.73698 0.6835 0.72698 0.0
loop_
_geom_bond_atom_site_label_1
_geom_bond_atom_site_label_2
_geom_bond_distance
_geom_bond_site_symmetry_2
_ccdc_geom_bond_type
In0 O1 2.294 . S
In0 O2 2.326 . S
In0 O6 2.266 . S
In0 O7 2.326 . S
In0 O8 2.266 . S
In0 O9 2.326 . S
In0 O11 2.294 . S
In0 O12 2.326 . S
O1 In0 2.294 . S
O1 C10 1.240 . S
O2 In0 2.326 . S
O2 C10 1.252 . S
C3 O6 1.252 . S
C3 O7 1.260 . S
C4 O11 1.240 . S
C4 O12 1.252 . S
C5 O8 1.252 . S
C5 O9 1.260 . S
O6 In0 2.266 . S
O6 C3 1.252 . S
O7 In0 2.326 . S
O7 C3 1.260 . S
O8 In0 2.266 . S
O8 C5 1.252 . S
O9 In0 2.326 . S
O9 C5 1.260 . S
C10 O1 1.240 . S
C10 O2 1.252 . S
O11 In0 2.294 . S
O11 C4 1.240 . S
O12 In0 2.326 . S
O12 C4 1.252 . S
In13 O14 2.294 . S
In13 O15 2.326 . S
In13 O19 2.266 . S
In13 O20 2.326 . S
In13 O21 2.266 . S
In13 O22 2.326 . S
In13 O24 2.294 . S
In13 O25 2.326 . S
O14 In13 2.294 . S
O14 C23 1.240 . S
O15 In13 2.326 . S
O15 C23 1.252 . S
C16 O19 1.252 . S
C16 O20 1.260 . S
C17 O24 1.240 . S
C17 O25 1.252 . S
C18 O21 1.252 . S
C18 O22 1.260 . S
O19 In13 2.266 . S
O19 C16 1.252 . S
O20 In13 2.326 . S
O20 C16 1.260 . S
O21 In13 2.266 . S
O21 C18 1.252 . S
O22 In13 2.326 . S
O22 C18 1.260 . S
C23 O14 1.240 . S
C23 O15 1.252 . S
O24 In13 2.294 . S
O24 C17 1.240 . S
O25 In13 2.326 . S
O25 C17 1.252 . S
In26 O27 2.294 . S
In26 O28 2.326 . S
In26 O32 2.266 . S
In26 O33 2.326 . S
In26 O34 2.266 . S
In26 O35 2.326 . S
In26 O37 2.294 . S
In26 O38 2.326 . S
O27 In26 2.294 . S
O27 C36 1.240 . S
O28 In26 2.326 . S
O28 C36 1.252 . S
C29 O32 1.252 . S
C29 O33 1.260 . S
C30 O37 1.240 . S
C30 O38 1.252 . S
C31 O34 1.252 . S
C31 O35 1.260 . S
O32 In26 2.266 . S
O32 C29 1.252 . S
O33 In26 2.326 . S
O33 C29 1.260 . S
O34 In26 2.266 . S
O34 C31 1.252 . S
O35 In26 2.326 . S
O35 C31 1.260 . S
C36 O27 1.240 . S
C36 O28 1.252 . S
O37 In26 2.294 . S
O37 C30 1.240 . S
O38 In26 2.326 . S
O38 C30 1.252 . S
In39 O40 2.294 . S
In39 O41 2.326 . S
In39 O45 2.266 . S
In39 O46 2.326 . S
In39 O47 2.266 . S
In39 O48 2.326 . S
In39 O50 2.294 . S
In39 O51 2.326 . S
O40 In39 2.294 . S
O40 C49 1.240 . S
O41 In39 2.326 . S
O41 C49 1.252 . S
C42 O45 1.252 . S
C42 O46 1.260 . S
C43 O50 1.240 . S
C43 O51 1.252 . S
C44 O47 1.252 . S
C44 O48 1.260 . S
O45 In39 2.266 . S
O45 C42 1.252 . S
O46 In39 2.326 . S
O46 C42 1.260 . S
O47 In39 2.266 . S
O47 C44 1.252 . S
O48 In39 2.326 . S
O48 C44 1.260 . S
C49 O40 1.240 . S
C49 O41 1.252 . S
O50 In39 2.294 . S
O50 C43 1.240 . S
O51 In39 2.326 . S
O51 C43 1.252 . S
In52 O53 2.294 . S
In52 O54 2.326 . S
In52 O58 2.266 . S
In52 O59 2.326 . S
In52 O60 2.266 . S
In52 O61 2.326 . S
In52 O63 2.294 . S
In52 O64 2.326 . S
O53 In52 2.294 . S
O53 C62 1.240 . S
O54 In52 2.326 . S
O54 C62 1.252 . S
C55 O58 1.252 . S
C55 O59 1.260 . S
C56 O63 1.240 . S
C56 O64 1.252 . S
C57 O60 1.252 . S
C57 O61 1.260 . S
O58 In52 2.266 . S
O58 C55 1.252 . S
O59 In52 2.326 . S
O59 C55 1.260 . S
O60 In52 2.266 . S
O60 C57 1.252 . S
O61 In52 2.326 . S
O61 C57 1.260 . S
C62 O53 1.240 . S
C62 O54 1.252 . S
O63 In52 2.294 . S
O63 C56 1.240 . S
O64 In52 2.326 . S
O64 C56 1.252 . S
In65 O66 2.294 . S
In65 O67 2.326 . S
In65 O71 2.266 . S
In65 O72 2.326 . S
In65 O73 2.266 . S
In65 O74 2.326 . S
In65 O76 2.294 . S
In65 O77 2.326 . S
O66 In65 2.294 . S
O66 C75 1.240 . S
O67 In65 2.326 . S
O67 C75 1.252 . S
C68 O71 1.252 . S
C68 O72 1.260 . S
C69 O76 1.240 . S
C69 O77 1.252 . S
C70 O73 1.252 . S
C70 O74 1.260 . S
O71 In65 2.266 . S
O71 C68 1.252 . S
O72 In65 2.326 . S
O72 C68 1.260 . S
O73 In65 2.266 . S
O73 C70 1.252 . S
O74 In65 2.326 . S
O74 C70 1.260 . S
C75 O66 1.240 . S
C75 O67 1.252 . S
O76 In65 2.294 . S
O76 C69 1.240 . S
O77 In65 2.326 . S
O77 C69 1.252 . S
In78 O79 2.294 . S
In78 O80 2.326 . S
In78 O84 2.266 . S
In78 O85 2.326 . S
In78 O86 2.266 . S
In78 O87 2.326 . S
In78 O89 2.294 . S
In78 O90 2.326 . S
O79 In78 2.294 . S
O79 C88 1.240 . S
O80 In78 2.326 . S
O80 C88 1.252 . S
C81 O84 1.252 . S
C81 O85 1.260 . S
C82 O89 1.240 . S
C82 O90 1.252 . S
C83 O86 1.252 . S
C83 O87 1.260 . S
O84 In78 2.266 . S
O84 C81 1.252 . S
O85 In78 2.326 . S
O85 C81 1.260 . S
O86 In78 2.266 . S
O86 C83 1.252 . S
O87 In78 2.326 . S
O87 C83 1.260 . S
C88 O79 1.240 . S
C88 O80 1.252 . S
O89 In78 2.294 . S
O89 C82 1.240 . S
O90 In78 2.326 . S
O90 C82 1.252 . S
In91 O92 2.294 . S
In91 O93 2.326 . S
In91 O97 2.266 . S
In91 O98 2.326 . S
In91 O99 2.266 . S
In91 O100 2.326 . S
In91 O102 2.294 . S
In91 O103 2.326 . S
O92 In91 2.294 . S
O92 C101 1.240 . S
O93 In91 2.326 . S
O93 C101 1.252 . S
C94 O97 1.252 . S
C94 O98 1.260 . S
C95 O102 1.240 . S
C95 O103 1.252 . S
C96 O99 1.252 . S
C96 O100 1.260 . S
O97 In91 2.266 . S
O97 C94 1.252 . S
O98 In91 2.326 . S
O98 C94 1.260 . S
O99 In91 2.266 . S
O99 C96 1.252 . S
O100 In91 2.326 . S
O100 C96 1.260 . S
C101 O92 1.240 . S
C101 O93 1.252 . S
O102 In91 2.294 . S
O102 C95 1.240 . S
O103 In91 2.326 . S
O103 C95 1.252 . S
C104 C105 1.170 . S
C104 C106 1.380 1_445 S
C105 C104 1.170 . S
C106 C104 1.380 1_665 S
C106 C107 1.170 . S
C107 C106 1.170 . S
C108 C109 1.170 . S
C108 C110 1.380 . S
C109 C108 1.170 . S
C110 C108 1.380 . S
C110 C111 1.170 . S
C111 C110 1.170 . S
C112 C113 1.170 . S
C112 C114 1.380 . S
C113 C112 1.170 . S
C114 C112 1.380 . S
C114 C115 1.170 . S
C115 C114 1.170 . S
C116 C117 1.170 . S
C116 C118 1.380 1_445 S
C117 C116 1.170 . S
C118 C116 1.380 1_665 S
C118 C119 1.170 . S
C119 C118 1.170 . S
C120 C121 1.170 . S
C120 C122 1.380 . S
C121 C120 1.170 . S
C122 C120 1.380 . S
C122 C123 1.170 . S
C123 C122 1.170 . S
C124 C125 1.170 . S
C124 C126 1.380 1_556 S
C125 C124 1.170 . S
C126 C124 1.380 1_554 S
C126 C127 1.170 . S
C127 C126 1.170 . S
C128 C129 1.170 . S
C128 C130 1.380 . S
C129 C128 1.170 . S
C130 C128 1.380 . S
C130 C131 1.170 . S
C131 C130 1.170 . S
C132 C133 1.170 . S
C132 C134 1.380 1_556 S
C133 C132 1.170 . S
C134 C132 1.380 1_554 S
C134 C135 1.170 . S
C135 C134 1.170 . S
C136 C137 1.170 . S
C136 C138 1.380 . S
C137 C136 1.170 . S
C138 C136 1.380 . S
C138 C139 1.170 . S
C139 C138 1.170 . S
C140 C141 1.170 . S
C140 C142 1.380 . S
C141 C140 1.170 . S
C142 C140 1.380 . S
C142 C143 1.170 . S
C143 C142 1.170 . S
C144 C145 1.170 . S
C144 C146 1.380 . S
C145 C144 1.170 . S
C146 C144 1.380 . S
C146 C147 1.170 . S
C147 C146 1.170 . S
C148 C149 1.170 . S
C148 C150 1.380 . S
C149 C148 1.170 . S
C150 C148 1.380 . S
C150 C151 1.170 . S
C151 C150 1.170 . S
C152 C153 1.170 . S
C152 C154 1.380 . S
C153 C152 1.170 . S
C154 C152 1.380 . S
C154 C155 1.170 . S
C155 C154 1.170 . S
C156 C157 1.170 . S
C156 C158 1.380 . S
C157 C156 1.170 . S
C158 C156 1.380 . S
C158 C159 1.170 . S
C159 C158 1.170 . S
C160 C161 1.170 . S
C160 C162 1.380 . S
C161 C160 1.170 . S
C162 C160 1.380 . S
C162 C163 1.170 . S
C163 C162 1.170 . S
C164 C165 1.170 . S
C164 C166 1.380 . S
C165 C164 1.170 . S
C166 C164 1.380 . S
C166 C167 1.170 . S
C167 C166 1.170 . S
C105 C5 0.974 . S
C107 C29 0.972 . S
C109 C16 0.971 . S
C111 C42 0.969 . S
C113 C55 0.974 . S
C115 C81 0.972 . S
C117 C68 0.973 . S
C119 C94 0.974 . S
C121 C10 1.549 . S
C123 C69 1.549 . S
C125 C17 1.540 . S
C127 C82 1.540 . S
C129 C95 1.540 . S
C131 C30 1.539 . S
C133 C43 1.532 . S
C135 C56 1.533 . S
C137 C57 1.737 . S
C139 C4 1.742 . S
C141 C23 1.769 . S
C143 C70 1.702 1_565 S
C145 C36 1.746 . S
C147 C83 1.740 . S
C149 C49 1.775 . S
C151 C96 1.704 1_545 S
C153 C3 1.735 1_655 S
C155 C62 1.753 . S
C157 C75 1.742 . S
C159 C18 1.741 . S
C161 C88 1.747 . S
C163 C31 1.728 1_455 S
C165 C44 1.719 . S
C167 C101 1.766 . S
