# Generated by pormake.
# Topology sxb, (6)-cn, num edge types: 1
# Building blocks:
#     Node 0, Type 0, BuildingBlock: JUFBIX_clean_sbu_0, # of connection points: 6
#     Node 1, Type 0, BuildingBlock: JUFBIX_clean_sbu_0, # of connection points: 6
#     Node 2, Type 0, BuildingBlock: JUFBIX_clean_sbu_0, # of connection points: 6
#     Node 3, Type 0, BuildingBlock: JUFBIX_clean_sbu_0, # of connection points: 6
#     Edge 4, Type (0, 0), BuildingBlock: EYOCIG_clean_linker_4, # of connection points: 2
#     Edge 5, Type (0, 0), BuildingBlock: EYOCIG_clean_linker_4, # of connection points: 2
#     Edge 6, Type (0, 0), BuildingBlock: EYOCIG_clean_linker_4, # of connection points: 2
#     Edge 7, Type (0, 0), BuildingBlock: EYOCIG_clean_linker_4, # of connection points: 2
#     Edge 8, Type (0, 0), BuildingBlock: EYOCIG_clean_linker_4, # of connection points: 2
#     Edge 9, Type (0, 0), BuildingBlock: EYOCIG_clean_linker_4, # of connection points: 2
#     Edge 10, Type (0, 0), BuildingBlock: EYOCIG_clean_linker_4, # of connection points: 2
#     Edge 11, Type (0, 0), BuildingBlock: EYOCIG_clean_linker_4, # of connection points: 2
#     Edge 12, Type (0, 0), BuildingBlock: EYOCIG_clean_linker_4, # of connection points: 2
#     Edge 13, Type (0, 0), BuildingBlock: EYOCIG_clean_linker_4, # of connection points: 2
#     Edge 14, Type (0, 0), BuildingBlock: EYOCIG_clean_linker_4, # of connection points: 2
#     Edge 15, Type (0, 0), BuildingBlock: EYOCIG_clean_linker_4, # of connection points: 2
# Relax obj value: 0.043
# Max RMSD: 0.069
# Mean RMSD: 0.069
data_MOF--net-sxb--node1-JUFBIX_clean_sbu_0--edge1-EYOCIG_clean_linker_4
_symmetry_space_group_name_H-M    P1
_symmetry_Int_Tables_number       1
_symmetry_cell_setting            triclinic
loop_
_symmetry_equiv_pos_as_xyz
'x, y, z'
_cell_length_a     11.733902
_cell_length_b     30.79217
_cell_length_c     23.465311
_cell_angle_alpha  89.989757
_cell_angle_beta   94.396553
_cell_angle_gamma 89.999141
loop_
_atom_site_label
_atom_site_type_symbol
_atom_site_fract_x
_atom_site_fract_y
_atom_site_fract_z
_atom_type_partial_charge
Co0 Co -0.0248 1.01246 0.01149 0.0
C1 C -0.02329 0.05696 0.11494 0.0
Co2 Co 0.96789 0.08465 1.00289 0.0
C3 C 0.0669 0.92507 1.00307 0.0
C4 C 0.91845 0.92674 0.05071 0.0
N5 N -0.0142 0.95224 0.02061 0.0
N6 N 0.05274 0.88409 0.02144 0.0
C7 C 0.95952 0.88476 0.05122 0.0
H8 H 0.13684 0.93534 0.9787 0.0
H9 H 0.84608 0.93818 0.07238 0.0
C10 C 0.96639 1.04016 0.89944 0.0
N11 N 0.9573 0.14487 0.99377 0.0
C12 C 0.87625 0.17204 0.01136 0.0
C13 C 0.02459 0.17037 0.96364 0.0
N14 N 0.89039 0.21303 0.99298 0.0
C15 C -0.01646 0.21236 0.96315 0.0
C16 C 0.18773 0.0523 0.01094 0.0
O17 O 0.97076 1.00636 0.93065 0.0
O18 O 0.96348 0.07759 0.92212 0.0
O19 O 0.13068 0.08735 1.00617 0.0
O20 O 0.13673 1.01622 0.01463 0.0
O21 O -0.02766 0.09076 0.08373 0.0
H22 H 0.09691 0.15893 0.94194 0.0
H23 H 0.80636 0.16178 0.03576 0.0
O24 O -0.02039 1.01953 0.09226 0.0
O25 O 0.81241 1.00976 0.00821 0.0
O26 O 0.80636 0.08089 0.99975 0.0
C27 C 0.75536 1.04482 1.00344 0.0
H28 H 0.92554 0.85717 0.07299 0.0
H29 H 0.01749 0.23994 0.94137 0.0
Co30 Co 0.96797 1.01248 0.50291 0.0
C31 C 0.96646 0.05698 0.39944 0.0
Co32 Co -0.02474 0.08467 0.51148 0.0
C33 C 0.87632 0.92509 0.51138 0.0
C34 C 0.02472 0.92676 0.46371 0.0
N35 N 0.95739 0.95226 0.49381 0.0
N36 N 0.89048 0.8841 0.49302 0.0
C37 C -0.01633 0.88478 0.46322 0.0
H38 H 0.8064 0.93534 0.53577 0.0
H39 H 0.09706 0.93821 0.44202 0.0
C40 C -0.02324 1.04017 0.61494 0.0
N41 N -0.01415 0.14489 0.52058 0.0
C42 C 0.06697 0.17206 0.50305 0.0
C43 C 0.91846 0.17039 0.55065 0.0
N44 N 0.05279 0.21304 0.52141 0.0
C45 C 0.95954 0.21237 0.55117 0.0
C46 C 0.75543 0.05231 0.50344 0.0
O47 O -0.02759 1.00637 0.58375 0.0
O48 O -0.02033 0.0776 0.59225 0.0
O49 O 0.81247 0.08737 0.50819 0.0
O50 O 0.80643 1.01624 0.49977 0.0
O51 O 0.97082 0.09078 0.43064 0.0
H52 H 0.84608 0.15895 0.57231 0.0
H53 H 0.13693 0.1618 0.4787 0.0
O54 O 0.96355 1.01955 0.42214 0.0
O55 O 0.13076 1.00978 0.50619 0.0
O56 O 0.13679 0.08091 0.51462 0.0
C57 C 0.1878 1.04484 0.51095 0.0
H58 H 0.01764 0.8572 0.44145 0.0
H59 H 0.92554 0.23995 0.57292 0.0
Co60 Co 0.47535 0.51248 0.01165 0.0
C61 C 0.47686 0.55697 0.1151 0.0
Co62 Co 0.46804 0.58467 1.00306 0.0
C63 C 0.56699 0.42509 1.00319 0.0
C64 C 0.41864 0.42676 0.0509 0.0
N65 N 0.48594 0.45226 0.02077 0.0
N66 N 0.55285 0.3841 0.02156 0.0
C67 C 0.4597 0.38477 0.05139 0.0
H68 H 0.63688 0.43535 0.97878 0.0
H69 H 0.34632 0.4382 0.0726 0.0
C70 C 0.46654 0.54018 0.89961 0.0
N71 N 0.45744 0.64489 0.99394 0.0
C72 C 0.37634 0.67206 0.01148 0.0
C73 C 0.52479 0.67039 0.96384 0.0
N74 N 0.3905 0.71304 0.99311 0.0
C75 C 0.48371 0.71238 0.96333 0.0
C76 C 0.68788 0.55231 0.01111 0.0
O77 O 0.4709 0.50638 0.93082 0.0
O78 O 0.46363 0.5776 0.92229 0.0
O79 O 0.63083 0.58737 1.00633 0.0
O80 O 0.63688 0.51624 0.01479 0.0
O81 O 0.47248 0.59077 0.08389 0.0
H82 H 0.59716 0.65896 0.94217 0.0
H83 H 0.3064 0.66179 0.03585 0.0
O84 O 0.47976 0.51954 0.09242 0.0
O85 O 0.31256 0.50978 0.00838 0.0
O86 O 0.30651 0.58091 0.99992 0.0
C87 C 0.25551 0.54483 1.0036 0.0
H88 H 0.42574 0.35719 0.07317 0.0
H89 H 0.5177 0.73996 0.94155 0.0
Co90 Co 0.46811 0.51246 0.50308 0.0
C91 C 0.4666 0.55696 0.39961 0.0
Co92 Co 0.47541 0.58465 0.51164 0.0
C93 C 0.37641 0.42507 0.5115 0.0
C94 C 0.52492 0.42674 0.4639 0.0
N95 N 0.45753 0.45224 0.49398 0.0
N96 N 0.39059 0.38409 0.49315 0.0
C97 C 0.48384 0.38476 0.46339 0.0
H98 H 0.30644 0.43533 0.53585 0.0
H99 H 0.5973 0.43818 0.44225 0.0
C100 C 0.47691 0.54015 0.61511 0.0
N101 N 0.48599 0.64488 0.52074 0.0
C102 C 0.56706 0.67205 0.50317 0.0
C103 C 0.41865 0.67037 0.55084 0.0
N104 N 0.5529 0.71303 0.52152 0.0
C105 C 0.45971 0.71235 0.55133 0.0
C106 C 0.25557 0.5523 0.5036 0.0
O107 O 0.47255 0.50636 0.58391 0.0
O108 O 0.47982 0.57758 0.59241 0.0
O109 O 0.31261 0.58735 0.50836 0.0
O110 O 0.30658 0.51622 0.49993 0.0
O111 O 0.47096 0.59076 0.4308 0.0
H112 H 0.34632 0.65893 0.57253 0.0
H113 H 0.63697 0.66179 0.47878 0.0
O114 O 0.46371 0.51953 0.4223 0.0
O115 O 0.6309 0.50976 0.50636 0.0
O116 O 0.63694 0.58089 0.51478 0.0
C117 C 0.68795 0.54482 0.51112 0.0
H118 H 0.51785 0.35718 0.44164 0.0
H119 H 0.42573 0.73994 0.5731 0.0
C120 C 0.25717 0.78012 1.00475 0.0
C121 C 0.31802 0.74882 0.99972 0.0
C122 C 0.18607 0.81701 0.0098 0.0
C123 C 0.12522 0.84831 0.01483 0.0
C124 C 0.68609 0.31702 0.00982 0.0
C125 C 0.62528 0.34832 0.01489 0.0
C126 C 0.75714 0.28011 1.00472 0.0
C127 C 0.81796 0.24881 0.99965 0.0
C128 C 0.18614 0.28012 0.50979 0.0
C129 C 0.12528 0.24882 0.51481 0.0
C130 C 0.25725 0.31701 0.50476 0.0
C131 C 0.3181 0.34831 0.49975 0.0
C132 C 0.75722 0.81702 0.50473 0.0
C133 C 0.81804 0.84832 0.49967 0.0
C134 C 0.68616 0.78012 0.50981 0.0
C135 C 0.62534 0.74881 0.51488 0.0
C136 C 0.41186 0.05047 0.00827 0.0
C137 C 0.30956 0.05272 0.00934 0.0
C138 C 0.53123 1.04665 1.00611 0.0
C139 C 0.63354 1.0444 1.00504 0.0
C140 C 0.41193 1.04667 0.50827 0.0
C141 C 0.30963 1.04441 0.50934 0.0
C142 C 0.5313 0.05048 0.50611 0.0
C143 C 0.6336 0.05273 0.50504 0.0
C144 C 0.91201 0.55048 0.00843 0.0
C145 C 0.8097 0.55273 0.0095 0.0
C146 C 0.03138 0.54667 1.00628 0.0
C147 C 0.13368 0.54441 1.00521 0.0
C148 C 0.03145 0.55047 0.50628 0.0
C149 C 0.13375 0.55272 0.50521 0.0
C150 C 0.91207 0.54665 0.50844 0.0
C151 C 0.80977 0.5444 0.50951 0.0
C152 C 0.97005 0.06234 0.28723 0.0
C153 C 0.96849 0.06079 0.33854 0.0
C154 C -0.02687 0.06233 0.22715 0.0
C155 C -0.02532 0.06077 0.17584 0.0
C156 C 0.97002 1.0348 0.78724 0.0
C157 C 0.96844 1.03635 0.83854 0.0
C158 C -0.02687 1.0348 0.72715 0.0
C159 C -0.02529 1.03636 0.67585 0.0
C160 C 0.47019 0.56233 0.2874 0.0
C161 C 0.46864 0.56077 0.3387 0.0
C162 C 0.47327 0.56233 0.22731 0.0
C163 C 0.47483 0.56078 0.17601 0.0
C164 C 0.47328 0.5348 0.72732 0.0
C165 C 0.47485 0.53635 0.67602 0.0
C166 C 0.47017 0.5348 0.7874 0.0
C167 C 0.46859 0.53637 0.8387 0.0
loop_
_geom_bond_atom_site_label_1
_geom_bond_atom_site_label_2
_geom_bond_distance
_geom_bond_site_symmetry_2
_ccdc_geom_bond_type
Co0 N5 2.057 1_556 S
Co0 O17 2.021 . S
Co0 O20 2.062 . S
Co0 O24 2.117 1_556 S
Co0 O25 2.020 1_455 S
C1 O21 1.259 1_455 S
C1 O24 1.258 1_545 S
Co2 N11 2.057 1_554 S
Co2 O18 2.117 1_554 S
Co2 O19 2.020 1_655 S
Co2 O21 2.021 . S
Co2 O26 2.062 . S
C3 N5 1.316 1_556 S
C3 N6 1.347 1_556 S
C3 H8 0.931 . S
C4 N5 1.375 . S
C4 C7 1.350 . S
C4 H9 0.930 . S
N5 Co0 2.057 1_554 S
N5 C3 1.316 1_554 S
N5 C4 1.375 . S
N6 C3 1.347 1_554 S
N6 C7 1.373 . S
C7 C4 1.350 . S
C7 N6 1.373 . S
C7 H28 0.931 . S
H8 C3 0.931 . S
H9 C4 0.930 . S
C10 O17 1.259 1_655 S
C10 O18 1.258 1_565 S
N11 Co2 2.057 1_556 S
N11 C12 1.316 1_556 S
N11 C13 1.375 . S
C12 N11 1.316 1_554 S
C12 N14 1.347 1_554 S
C12 H23 0.931 . S
C13 N11 1.375 . S
C13 C15 1.350 . S
C13 H22 0.930 . S
N14 C12 1.347 1_556 S
N14 C15 1.373 . S
C15 C13 1.350 . S
C15 N14 1.373 . S
C15 H29 0.931 . S
C16 O19 1.258 . S
C16 O20 1.254 1_544 S
O17 Co0 2.021 . S
O17 C10 1.259 1_455 S
O18 Co2 2.117 1_556 S
O18 C10 1.258 1_545 S
O19 Co2 2.020 1_455 S
O19 C16 1.258 . S
O20 Co0 2.062 . S
O20 C16 1.254 1_566 S
O21 C1 1.259 1_655 S
O21 Co2 2.021 . S
H22 C13 0.930 . S
H23 C12 0.931 . S
O24 Co0 2.117 1_554 S
O24 C1 1.258 1_565 S
O25 Co0 2.020 1_655 S
O25 C27 1.257 . S
O26 Co2 2.062 . S
O26 C27 1.254 1_544 S
C27 O25 1.257 . S
C27 O26 1.254 1_566 S
H28 C7 0.931 . S
H29 C15 0.931 . S
Co30 N35 2.057 . S
Co30 O47 2.021 . S
Co30 O50 2.062 . S
Co30 O54 2.117 . S
Co30 O55 2.020 1_655 S
C31 O51 1.259 1_655 S
C31 O54 1.258 1_545 S
Co32 N41 2.057 . S
Co32 O48 2.117 . S
Co32 O49 2.020 1_455 S
Co32 O51 2.021 . S
Co32 O56 2.062 . S
C33 N35 1.316 . S
C33 N36 1.347 . S
C33 H38 0.931 . S
C34 N35 1.375 . S
C34 C37 1.350 . S
C34 H39 0.930 . S
N35 Co30 2.057 . S
N35 C33 1.316 . S
N35 C34 1.375 . S
N36 C33 1.347 . S
N36 C37 1.373 . S
C37 C34 1.350 . S
C37 N36 1.373 . S
C37 H58 0.931 . S
H38 C33 0.931 . S
H39 C34 0.930 . S
C40 O47 1.259 1_455 S
C40 O48 1.258 1_565 S
N41 Co32 2.057 . S
N41 C42 1.316 . S
N41 C43 1.375 . S
C42 N41 1.316 . S
C42 N44 1.347 . S
C42 H53 0.931 . S
C43 N41 1.375 . S
C43 C45 1.350 . S
C43 H52 0.930 . S
N44 C42 1.347 . S
N44 C45 1.373 . S
C45 C43 1.350 . S
C45 N44 1.373 . S
C45 H59 0.931 . S
C46 O49 1.256 . S
C46 O50 1.255 1_545 S
O47 Co30 2.021 . S
O47 C40 1.259 1_655 S
O48 Co32 2.117 . S
O48 C40 1.258 1_545 S
O49 Co32 2.020 1_655 S
O49 C46 1.256 . S
O50 Co30 2.062 . S
O50 C46 1.255 1_565 S
O51 C31 1.259 1_455 S
O51 Co32 2.021 . S
H52 C43 0.930 . S
H53 C42 0.931 . S
O54 Co30 2.117 . S
O54 C31 1.258 1_565 S
O55 Co30 2.020 1_455 S
O55 C57 1.256 . S
O56 Co32 2.062 . S
O56 C57 1.255 1_545 S
C57 O55 1.256 . S
C57 O56 1.255 1_565 S
H58 C37 0.931 . S
H59 C45 0.931 . S
Co60 N65 2.057 1_556 S
Co60 O77 2.021 . S
Co60 O80 2.062 . S
Co60 O84 2.117 1_556 S
Co60 O85 2.020 . S
C61 O81 1.259 . S
C61 O84 1.258 . S
Co62 N71 2.057 1_554 S
Co62 O78 2.117 1_554 S
Co62 O79 2.020 . S
Co62 O81 2.021 . S
Co62 O86 2.062 . S
C63 N65 1.316 1_556 S
C63 N66 1.347 1_556 S
C63 H68 0.931 . S
C64 N65 1.375 . S
C64 C67 1.350 . S
C64 H69 0.930 . S
N65 Co60 2.057 1_554 S
N65 C63 1.316 1_554 S
N65 C64 1.375 . S
N66 C63 1.347 1_554 S
N66 C67 1.373 . S
C67 C64 1.350 . S
C67 N66 1.373 . S
C67 H88 0.931 . S
H68 C63 0.931 . S
H69 C64 0.930 . S
C70 O77 1.259 . S
C70 O78 1.258 . S
N71 Co62 2.057 1_556 S
N71 C72 1.316 1_556 S
N71 C73 1.375 . S
C72 N71 1.316 1_554 S
C72 N74 1.347 1_554 S
C72 H83 0.931 . S
C73 N71 1.375 . S
C73 C75 1.350 . S
C73 H82 0.930 . S
N74 C72 1.347 1_556 S
N74 C75 1.373 . S
C75 C73 1.350 . S
C75 N74 1.373 . S
C75 H89 0.931 . S
C76 O79 1.258 . S
C76 O80 1.254 1_554 S
O77 Co60 2.021 . S
O77 C70 1.259 . S
O78 Co62 2.117 1_556 S
O78 C70 1.258 . S
O79 Co62 2.020 . S
O79 C76 1.258 . S
O80 Co60 2.062 . S
O80 C76 1.254 1_556 S
O81 C61 1.259 . S
O81 Co62 2.021 . S
H82 C73 0.930 . S
H83 C72 0.931 . S
O84 Co60 2.117 1_554 S
O84 C61 1.258 . S
O85 Co60 2.020 . S
O85 C87 1.257 . S
O86 Co62 2.062 . S
O86 C87 1.254 1_554 S
C87 O85 1.257 . S
C87 O86 1.254 1_556 S
H88 C67 0.931 . S
H89 C75 0.931 . S
Co90 N95 2.057 . S
Co90 O107 2.021 . S
Co90 O110 2.062 . S
Co90 O114 2.117 . S
Co90 O115 2.020 . S
C91 O111 1.259 . S
C91 O114 1.258 . S
Co92 N101 2.057 . S
Co92 O108 2.117 . S
Co92 O109 2.020 . S
Co92 O111 2.021 . S
Co92 O116 2.062 . S
C93 N95 1.316 . S
C93 N96 1.347 . S
C93 H98 0.931 . S
C94 N95 1.375 . S
C94 C97 1.350 . S
C94 H99 0.930 . S
N95 Co90 2.057 . S
N95 C93 1.316 . S
N95 C94 1.375 . S
N96 C93 1.347 . S
N96 C97 1.373 . S
C97 C94 1.350 . S
C97 N96 1.373 . S
C97 H118 0.931 . S
H98 C93 0.931 . S
H99 C94 0.930 . S
C100 O107 1.259 . S
C100 O108 1.258 . S
N101 Co92 2.057 . S
N101 C102 1.316 . S
N101 C103 1.375 . S
C102 N101 1.316 . S
C102 N104 1.347 . S
C102 H113 0.931 . S
C103 N101 1.375 . S
C103 C105 1.350 . S
C103 H112 0.930 . S
N104 C102 1.347 . S
N104 C105 1.373 . S
C105 C103 1.350 . S
C105 N104 1.373 . S
C105 H119 0.931 . S
C106 O109 1.256 . S
C106 O110 1.255 . S
O107 Co90 2.021 . S
O107 C100 1.259 . S
O108 Co92 2.117 . S
O108 C100 1.258 . S
O109 Co92 2.020 . S
O109 C106 1.256 . S
O110 Co90 2.062 . S
O110 C106 1.255 . S
O111 C91 1.259 . S
O111 Co92 2.021 . S
H112 C103 0.930 . S
H113 C102 0.931 . S
O114 Co90 2.117 . S
O114 C91 1.258 . S
O115 Co90 2.020 . S
O115 C117 1.256 . S
O116 Co92 2.062 . S
O116 C117 1.255 . S
C117 O115 1.256 . S
C117 O116 1.255 . S
H118 C97 0.931 . S
H119 C105 0.931 . S
C120 C121 1.169 1_556 S
C120 C122 1.380 . S
C121 C120 1.169 1_554 S
C122 C120 1.380 . S
C122 C123 1.170 . S
C123 C122 1.170 . S
C124 C125 1.170 . S
C124 C126 1.380 . S
C125 C124 1.170 . S
C126 C124 1.380 . S
C126 C127 1.170 1_556 S
C127 C126 1.170 1_554 S
C128 C129 1.170 . S
C128 C130 1.380 . S
C129 C128 1.170 . S
C130 C128 1.380 . S
C130 C131 1.170 . S
C131 C130 1.170 . S
C132 C133 1.170 . S
C132 C134 1.380 . S
C133 C132 1.170 . S
C134 C132 1.380 . S
C134 C135 1.170 . S
C135 C134 1.170 . S
C136 C137 1.170 . S
C136 C138 1.380 1_545 S
C137 C136 1.170 . S
C138 C136 1.380 1_565 S
C138 C139 1.170 . S
C139 C138 1.170 . S
C140 C141 1.170 . S
C140 C142 1.379 1_565 S
C141 C140 1.170 . S
C142 C140 1.379 1_545 S
C142 C143 1.171 . S
C143 C142 1.171 . S
C144 C145 1.170 . S
C144 C146 1.380 1_655 S
C145 C144 1.170 . S
C146 C144 1.380 1_455 S
C146 C147 1.170 . S
C147 C146 1.170 . S
C148 C149 1.170 . S
C148 C150 1.380 1_455 S
C149 C148 1.170 . S
C150 C148 1.380 1_655 S
C150 C151 1.170 . S
C151 C150 1.170 . S
C152 C153 1.170 . S
C152 C154 1.380 . S
C153 C152 1.170 . S
C154 C152 1.380 . S
C154 C155 1.169 1_565 S
C155 C154 1.169 1_545 S
C156 C157 1.170 . S
C156 C158 1.380 . S
C157 C156 1.170 . S
C158 C156 1.380 . S
C158 C159 1.171 . S
C159 C158 1.171 . S
C160 C161 1.170 . S
C160 C162 1.380 . S
C161 C160 1.170 . S
C162 C160 1.380 . S
C162 C163 1.170 . S
C163 C162 1.170 . S
C164 C165 1.170 . S
C164 C166 1.380 . S
C165 C164 1.170 . S
C166 C164 1.380 . S
C166 C167 1.170 . S
C167 C166 1.170 . S
C121 N74 1.522 1_554 S
C123 N6 1.554 1_556 S
C125 N66 1.550 1_556 S
C127 N14 1.527 1_554 S
C129 N44 1.534 . S
C131 N96 1.543 . S
C133 N36 1.528 . S
C135 N104 1.541 . S
C137 C16 1.093 1_556 S
C139 C27 1.112 . S
C141 C57 1.103 . S
C143 C46 1.096 . S
C145 C76 1.099 . S
C147 C87 1.098 1_554 S
C149 C106 1.092 . S
C151 C117 1.112 . S
C153 C31 1.500 1_465 S
C155 C1 1.497 . S
C157 C10 1.498 . S
C159 C40 1.499 1_655 S
C161 C91 1.500 . S
C163 C61 1.494 . S
C165 C100 1.500 . S
C167 C70 1.502 . S
