# Generated by pormake.
# Topology pcu, (6)-cn, num edge types: 1
# Building blocks:
#     Node 0, Type 0, BuildingBlock: KUMBOL_clean_sbu_0, # of connection points: 6
#     Edge 1, Type (0, 0), BuildingBlock: CIFDUS_clean_linker_0, # of connection points: 2
#     Edge 2, Type (0, 0), BuildingBlock: CIFDUS_clean_linker_0, # of connection points: 2
#     Edge 3, Type (0, 0), BuildingBlock: CIFDUS_clean_linker_0, # of connection points: 2
# Relax obj value: 0.000
# Max RMSD: 0.000
# Mean RMSD: 0.000
data_MOF--net-pcu--node1-KUMBOL_clean_sbu_0--edge1-CIFDUS_clean_linker_0
_symmetry_space_group_name_H-M    P1
_symmetry_Int_Tables_number       1
_symmetry_cell_setting            triclinic
loop_
_symmetry_equiv_pos_as_xyz
'x, y, z'
_cell_length_a     22.910833
_cell_length_b     12.301382
_cell_length_c     13.300204
_cell_angle_alpha  75.430367
_cell_angle_beta   114.79192
_cell_angle_gamma 117.01221
loop_
_atom_site_label
_atom_site_type_symbol
_atom_site_fract_x
_atom_site_fract_y
_atom_site_fract_z
_atom_type_partial_charge
Gd0 Gd 0.11102 0.08937 0.02908 0.0
Gd1 Gd 0.91937 0.93349 0.96207 0.0
C2 C 0.80397 0.52721 0.90232 0.0
C3 C 0.72742 0.53113 0.70927 0.0
C4 C 0.80612 0.72102 0.79935 0.0
C5 C 0.83109 0.65613 0.89659 0.0
C6 C 0.75294 0.65919 0.70526 0.0
C7 C 0.75296 0.46527 0.80759 0.0
C8 C 0.82767 0.4643 0.00382 0.0
C9 C 0.87542 0.52971 0.09712 0.0
N10 N 0.87962 0.71875 0.98702 0.0
C11 C 0.90017 0.65744 0.08761 0.0
H12 H 0.93703 0.70659 0.16048 0.0
C13 C 0.8026 0.91117 0.70912 0.0
N14 N 0.83151 0.84444 0.79849 0.0
C15 C 0.75001 0.85412 0.61355 0.0
C16 C 0.72564 0.72771 0.61109 0.0
H17 H 0.8215 1.00897 0.71094 0.0
H18 H 0.73178 0.36632 0.81025 0.0
H19 H 0.09345 0.31631 0.83068 0.0
H20 H 0.80832 0.36532 0.01157 0.0
H21 H 0.8932 0.48183 0.17647 0.0
H22 H 0.6869 0.482 0.63759 0.0
H23 H 0.20881 0.01382 0.28026 0.0
H24 H 0.22223 0.65756 0.97961 0.0
H25 H 0.13735 0.54108 0.81469 0.0
H26 H 0.34354 0.54079 0.35363 0.0
H27 H 0.7283 0.90757 0.54196 0.0
H28 H 0.6847 0.68363 0.53713 0.0
H29 H 0.29873 0.65652 0.18095 0.0
H30 H 0.302 0.11516 0.44926 0.0
N31 N 0.15082 0.30412 0.00415 0.0
C32 C 0.20285 0.55858 0.98736 0.0
C33 C 0.1551 0.49318 0.89404 0.0
C34 C 0.22652 0.49564 0.08886 0.0
C35 C 0.19935 0.36672 0.09459 0.0
C36 C 0.13031 0.36544 0.90356 0.0
N37 N 0.19886 0.17837 0.19269 0.0
C38 C 0.22428 0.3018 0.19184 0.0
C39 C 0.28032 0.16864 0.37766 0.0
C40 C 0.30473 0.29506 0.38013 0.0
C41 C 0.22773 0.11161 0.28208 0.0
C42 C 0.27747 0.3636 0.28594 0.0
H43 H 0.34566 0.33912 0.4541 0.0
O44 O 0.18626 0.01582 0.05244 0.0
O45 O 0.01692 0.91741 0.98631 0.0
O46 O 0.97923 0.92801 0.14934 0.0
O47 O 0.0911 0.08439 0.18208 0.0
O48 O 0.10506 0.89984 0.10691 0.0
O49 O 0.17004 0.15483 0.91883 0.0
O50 O 0.84411 1.007 0.93869 0.0
O51 O 1.01344 0.10533 0.00467 0.0
O52 O 0.05117 0.09487 0.8418 0.0
O53 O 0.93927 0.93855 0.80902 0.0
O54 O 0.92535 0.12311 0.88433 0.0
O55 O 0.86036 0.86805 0.07235 0.0
C56 C 0.04113 0.83979 0.04669 0.0
C57 C 0.30302 0.49167 0.28194 0.0
C58 C 0.27752 0.55756 0.18361 0.0
C59 C 0.20707 0.08935 0.97353 0.0
C60 C 0.28335 0.15181 0.0014 0.0
C61 C 0.32011 0.27162 0.03488 0.0
C62 C 0.3201 0.08881 -0.00297 0.0
C63 C 0.39342 0.14442 0.02612 0.0
C64 C 0.39278 0.32751 0.0639 0.0
C65 C 0.42935 0.2646 0.05976 0.0
C66 C 0.0381 1.00689 0.2147 0.0
C67 C 0.98932 0.18311 0.94446 0.0
C68 C 0.82332 0.93349 0.01763 0.0
C69 C 0.74704 0.87099 0.98977 0.0
C70 C 0.71029 0.75117 0.95632 0.0
C71 C 0.71028 0.93398 0.99412 0.0
C72 C 0.63695 0.87834 0.96502 0.0
C73 C 0.63762 0.69525 0.92729 0.0
C74 C 0.60105 0.75815 0.93141 0.0
C75 C 0.99228 0.01605 0.77641 0.0
H76 H 0.29284 0.32185 0.03872 0.0
H77 H 0.29129 0.9967 0.96995 0.0
H78 H 0.42093 0.41977 0.09019 0.0
H79 H 0.48581 0.30949 0.08432 0.0
H80 H 0.73758 0.70096 0.95249 0.0
H81 H 0.73907 0.0261 0.02117 0.0
H82 H 0.60948 0.60299 0.90102 0.0
H83 H 0.54458 0.71324 0.90684 0.0
H84 H 0.93858 0.87741 0.31017 0.0
H85 H 0.14546 0.16554 0.36912 0.0
H86 H 0.14835 0.19689 0.54476 0.0
H87 H 0.09178 0.14556 0.68093 0.0
H88 H 0.8849 0.85744 0.62197 0.0
H89 H 0.882 0.82611 0.44632 0.0
C90 C 0.98463 0.94646 0.36161 0.0
C91 C 0.04203 0.01774 0.32629 0.0
C92 C 0.98554 0.96598 0.46205 0.0
C93 C 0.10087 0.10753 0.3943 0.0
C94 C 0.10238 0.12658 0.49468 0.0
C95 C 0.04573 0.07652 0.62948 0.0
C96 C 0.98834 1.00524 0.66481 0.0
C97 C 0.04482 0.057 0.52904 0.0
C98 C 0.92949 0.91545 0.59679 0.0
C99 C 0.92798 0.89641 0.4964 0.0
H100 H 0.50239 0.23335 0.95218 0.0
H101 H 0.37163 0.90346 0.09038 0.0
H102 H 0.43447 0.79229 0.08208 0.0
H103 H 0.52797 0.7894 0.03892 0.0
H104 H 0.65873 0.11929 0.90072 0.0
H105 H 0.59588 0.23046 0.909 0.0
C106 C 0.48807 0.13746 0.98159 0.0
C107 C 0.43225 0.0771 0.02176 0.0
C108 C 0.5248 0.07416 0.97743 0.0
C109 C 0.41371 0.95208 0.05768 0.0
C110 C 0.44993 0.88849 0.05364 0.0
C111 C 0.54229 0.88529 0.00951 0.0
C112 C 0.59811 0.94565 0.96935 0.0
C113 C 0.50555 0.94858 0.01366 0.0
C114 C 0.61665 0.07067 0.93342 0.0
C115 C 0.58042 0.13426 0.93745 0.0
H116 H 0.08145 0.65837 0.17155 0.0
H117 H 0.96009 0.75193 0.84011 0.0
H118 H 0.93498 0.55981 0.77966 0.0
H119 H 0.9491 0.36458 0.81965 0.0
H120 H 0.07039 0.27094 0.15111 0.0
H121 H 0.09555 0.46309 0.21156 0.0
C122 C 0.04907 0.63604 0.08633 0.0
C123 C 0.02115 0.7185 0.0115 0.0
C124 C 0.03604 0.52574 0.0513 0.0
C125 C 0.98056 0.68939 0.90071 0.0
C126 C 0.96675 0.57953 0.86552 0.0
C127 C 0.98149 0.38691 0.90487 0.0
C128 C 1.00938 0.30441 0.9797 0.0
C129 C 0.99452 0.4972 0.93991 0.0
C130 C 0.04996 0.3335 0.0905 0.0
C131 C 0.06379 0.44338 0.12569 0.0
loop_
_geom_bond_atom_site_label_1
_geom_bond_atom_site_label_2
_geom_bond_distance
_geom_bond_site_symmetry_2
_ccdc_geom_bond_type
Gd0 N31 2.661 1_554 S
Gd0 N37 2.601 . S
Gd0 O44 2.545 . S
Gd0 O45 2.606 1_444 S
Gd0 O47 2.429 1_545 S
Gd0 O48 2.545 1_545 S
Gd0 O49 2.412 . S
Gd0 O51 2.362 . S
Gd0 O52 2.324 1_554 S
Gd0 C59 2.828 . S
Gd1 N10 2.661 1_556 S
Gd1 N14 2.601 . S
Gd1 O45 2.362 . S
Gd1 O46 2.324 1_556 S
Gd1 O50 2.545 . S
Gd1 O51 2.606 1_666 S
Gd1 O53 2.429 1_565 S
Gd1 O54 2.545 1_565 S
Gd1 O55 2.412 . S
Gd1 C68 2.828 . S
C2 C5 1.417 . S
C2 C7 1.431 . S
C2 C8 1.412 1_556 S
C3 C6 1.437 . S
C3 C7 1.317 . S
C3 H22 0.929 . S
C4 C5 1.426 . S
C4 C6 1.413 . S
C4 N14 1.359 . S
C5 C2 1.417 . S
C5 C4 1.426 . S
C5 N10 1.350 1_556 S
C6 C3 1.437 . S
C6 C4 1.413 . S
C6 C16 1.391 . S
C7 C2 1.431 . S
C7 C3 1.317 . S
C7 H18 0.930 . S
C8 C2 1.412 1_554 S
C8 C9 1.355 . S
C8 H20 0.930 . S
C9 C8 1.355 . S
C9 C11 1.402 . S
C9 H21 0.930 . S
N10 Gd1 2.661 1_554 S
N10 C5 1.350 1_554 S
N10 C11 1.307 . S
C11 C9 1.402 . S
C11 N10 1.307 . S
C11 H12 0.930 . S
H12 C11 0.930 . S
C13 N14 1.334 . S
C13 C15 1.394 . S
C13 H17 0.930 . S
N14 Gd1 2.601 . S
N14 C4 1.359 . S
N14 C13 1.334 . S
C15 C13 1.394 . S
C15 C16 1.359 . S
C15 H27 0.930 . S
C16 C6 1.391 . S
C16 C15 1.359 . S
C16 H28 0.929 . S
H17 C13 0.930 . S
H18 C7 0.930 . S
H19 C36 0.930 . S
H20 C8 0.930 . S
H21 C9 0.930 . S
H22 C3 0.929 . S
H23 C41 0.930 . S
H24 C32 0.930 . S
H25 C33 0.930 . S
H26 C57 0.929 . S
H27 C15 0.930 . S
H28 C16 0.929 . S
H29 C58 0.930 . S
H30 C39 0.930 . S
N31 Gd0 2.661 1_556 S
N31 C35 1.350 1_556 S
N31 C36 1.307 . S
C32 H24 0.930 . S
C32 C33 1.355 . S
C32 C34 1.412 1_556 S
C33 H25 0.930 . S
C33 C32 1.355 . S
C33 C36 1.402 . S
C34 C32 1.412 1_554 S
C34 C35 1.417 . S
C34 C58 1.431 . S
C35 N31 1.350 1_554 S
C35 C34 1.417 . S
C35 C38 1.426 . S
C36 H19 0.930 . S
C36 N31 1.307 . S
C36 C33 1.402 . S
N37 Gd0 2.601 . S
N37 C38 1.359 . S
N37 C41 1.334 . S
C38 C35 1.426 . S
C38 N37 1.359 . S
C38 C42 1.413 . S
C39 H30 0.930 . S
C39 C40 1.359 . S
C39 C41 1.394 . S
C40 C39 1.359 . S
C40 C42 1.391 . S
C40 H43 0.929 . S
C41 H23 0.930 . S
C41 N37 1.334 . S
C41 C39 1.394 . S
C42 C38 1.413 . S
C42 C40 1.391 . S
C42 C57 1.437 . S
H43 C40 0.929 . S
O44 Gd0 2.545 . S
O44 C59 1.258 . S
O45 Gd0 2.606 1_666 S
O45 Gd1 2.362 . S
O45 C56 1.284 1_656 S
O46 Gd1 2.324 1_554 S
O46 C66 1.254 1_655 S
O47 Gd0 2.429 1_565 S
O47 C66 1.268 . S
O48 Gd0 2.545 1_565 S
O48 C56 1.250 . S
O49 Gd0 2.412 . S
O49 C59 1.252 . S
O50 Gd1 2.545 . S
O50 C68 1.258 . S
O51 Gd0 2.362 . S
O51 Gd1 2.606 1_444 S
O51 C67 1.284 1_454 S
O52 Gd0 2.324 1_556 S
O52 C75 1.254 1_455 S
O53 Gd1 2.429 1_545 S
O53 C75 1.268 . S
O54 Gd1 2.545 1_545 S
O54 C67 1.250 . S
O55 Gd1 2.412 . S
O55 C68 1.252 . S
C56 O45 1.284 1_454 S
C56 O48 1.250 . S
C57 H26 0.929 . S
C57 C42 1.437 . S
C57 C58 1.317 . S
C58 H29 0.930 . S
C58 C34 1.431 . S
C58 C57 1.317 . S
C59 Gd0 2.828 . S
C59 O44 1.258 . S
C59 O49 1.252 . S
C59 C60 1.497 . S
C60 C59 1.497 . S
C60 C61 1.395 . S
C60 C62 1.380 . S
C61 C60 1.395 . S
C61 C64 1.398 . S
C61 H76 0.930 . S
C62 C60 1.380 . S
C62 C63 1.391 . S
C62 H77 0.930 1_554 S
C63 C62 1.391 . S
C63 C65 1.387 . S
C64 C61 1.398 . S
C64 C65 1.380 . S
C64 H78 0.930 . S
C65 C63 1.387 . S
C65 C64 1.380 . S
C65 H79 0.930 . S
C66 O46 1.254 1_455 S
C66 O47 1.268 . S
C67 O51 1.284 1_656 S
C67 O54 1.250 . S
C68 Gd1 2.828 . S
C68 O50 1.258 . S
C68 O55 1.252 . S
C68 C69 1.497 . S
C69 C68 1.497 . S
C69 C70 1.395 . S
C69 C71 1.380 . S
C70 C69 1.395 . S
C70 C73 1.398 . S
C70 H80 0.930 . S
C71 C69 1.380 . S
C71 C72 1.391 . S
C71 H81 0.930 1_556 S
C72 C71 1.391 . S
C72 C74 1.387 . S
C73 C70 1.398 . S
C73 C74 1.380 . S
C73 H82 0.930 . S
C74 C72 1.387 . S
C74 C73 1.380 . S
C74 H83 0.930 . S
C75 O52 1.254 1_655 S
C75 O53 1.268 . S
H76 C61 0.930 . S
H77 C62 0.930 1_556 S
H78 C64 0.930 . S
H79 C65 0.930 . S
H80 C70 0.930 . S
H81 C71 0.930 1_554 S
H82 C73 0.930 . S
H83 C74 0.930 . S
H84 C90 0.930 . S
H85 C93 0.930 . S
H86 C94 0.930 . S
H87 C95 0.930 . S
H88 C98 0.930 . S
H89 C99 0.930 . S
C90 H84 0.930 . S
C90 C91 1.355 1_665 S
C90 C92 1.415 . S
C91 C90 1.355 1_445 S
C91 C93 1.419 . S
C92 C90 1.415 . S
C92 C97 1.425 1_665 S
C92 C99 1.409 . S
C93 H85 0.930 . S
C93 C91 1.419 . S
C93 C94 1.362 . S
C94 H86 0.930 . S
C94 C93 1.362 . S
C94 C97 1.409 . S
C95 H87 0.930 . S
C95 C96 1.355 1_445 S
C95 C97 1.415 . S
C96 C95 1.355 1_665 S
C96 C98 1.419 . S
C97 C92 1.425 1_445 S
C97 C94 1.409 . S
C97 C95 1.415 . S
C98 H88 0.930 . S
C98 C96 1.419 . S
C98 C99 1.362 . S
C99 H89 0.930 . S
C99 C92 1.409 . S
C99 C98 1.362 . S
H100 C106 0.930 . S
H101 C109 0.930 . S
H102 C110 0.930 . S
H103 C111 0.930 . S
H104 C114 0.930 . S
H105 C115 0.930 . S
C106 H100 0.930 . S
C106 C107 1.355 1_546 S
C106 C108 1.415 . S
C107 C106 1.355 1_564 S
C107 C109 1.419 . S
C108 C106 1.415 . S
C108 C113 1.425 1_546 S
C108 C115 1.409 . S
C109 H101 0.930 . S
C109 C107 1.419 . S
C109 C110 1.362 . S
C110 H102 0.930 . S
C110 C109 1.362 . S
C110 C113 1.409 . S
C111 H103 0.930 . S
C111 C112 1.355 1_564 S
C111 C113 1.415 . S
C112 C111 1.355 1_546 S
C112 C114 1.419 . S
C113 C108 1.425 1_564 S
C113 C110 1.409 . S
C113 C111 1.415 . S
C114 H104 0.930 . S
C114 C112 1.419 . S
C114 C115 1.362 . S
C115 H105 0.930 . S
C115 C108 1.409 . S
C115 C114 1.362 . S
H116 C122 0.930 . S
H117 C125 0.930 . S
H118 C126 0.930 . S
H119 C127 0.930 . S
H120 C130 0.930 . S
H121 C131 0.930 . S
C122 H116 0.930 . S
C122 C123 1.355 1_454 S
C122 C124 1.415 . S
C123 C122 1.355 1_656 S
C123 C125 1.419 . S
C124 C122 1.415 . S
C124 C129 1.425 1_454 S
C124 C131 1.409 . S
C125 H117 0.930 . S
C125 C123 1.419 . S
C125 C126 1.362 . S
C126 H118 0.930 . S
C126 C125 1.362 . S
C126 C129 1.409 . S
C127 H119 0.930 . S
C127 C128 1.355 1_656 S
C127 C129 1.415 . S
C128 C127 1.355 1_454 S
C128 C130 1.419 . S
C129 C124 1.425 1_656 S
C129 C126 1.409 . S
C129 C127 1.415 . S
C130 H120 0.930 . S
C130 C128 1.419 . S
C130 C131 1.362 . S
C131 H121 0.930 . S
C131 C124 1.409 . S
C131 C130 1.362 . S
C91 C66 1.485 1_545 S
C96 C75 1.485 1_565 S
C107 C63 1.341 1_565 S
C112 C72 1.341 1_545 S
C123 C56 1.466 1_656 S
C128 C67 1.466 1_454 S
