# Generated by pormake.
# Topology reo, (8)-cn, num edge types: 1
# Building blocks:
#     Node 0, Type 0, BuildingBlock: VETTIZ_charged_sbu_0, # of connection points: 8
#     Node 1, Type 0, BuildingBlock: VETTIZ_charged_sbu_0, # of connection points: 8
#     Node 2, Type 0, BuildingBlock: VETTIZ_charged_sbu_0, # of connection points: 8
#     Edge 3, Type (0, 0), BuildingBlock: OJICUG_clean_linker_0, # of connection points: 2
#     Edge 4, Type (0, 0), BuildingBlock: OJICUG_clean_linker_0, # of connection points: 2
#     Edge 5, Type (0, 0), BuildingBlock: OJICUG_clean_linker_0, # of connection points: 2
#     Edge 6, Type (0, 0), BuildingBlock: OJICUG_clean_linker_0, # of connection points: 2
#     Edge 7, Type (0, 0), BuildingBlock: OJICUG_clean_linker_0, # of connection points: 2
#     Edge 8, Type (0, 0), BuildingBlock: OJICUG_clean_linker_0, # of connection points: 2
#     Edge 9, Type (0, 0), BuildingBlock: OJICUG_clean_linker_0, # of connection points: 2
#     Edge 10, Type (0, 0), BuildingBlock: OJICUG_clean_linker_0, # of connection points: 2
#     Edge 11, Type (0, 0), BuildingBlock: OJICUG_clean_linker_0, # of connection points: 2
#     Edge 12, Type (0, 0), BuildingBlock: OJICUG_clean_linker_0, # of connection points: 2
#     Edge 13, Type (0, 0), BuildingBlock: OJICUG_clean_linker_0, # of connection points: 2
#     Edge 14, Type (0, 0), BuildingBlock: OJICUG_clean_linker_0, # of connection points: 2
# Relax obj value: 0.145
# Max RMSD: 0.165
# Mean RMSD: 0.165
data_MOF--net-reo--node1-VETTIZ_charged_sbu_0--edge1-OJICUG_clean_linker_0
_symmetry_space_group_name_H-M    P1
_symmetry_Int_Tables_number       1
_symmetry_cell_setting            triclinic
loop_
_symmetry_equiv_pos_as_xyz
'x, y, z'
_cell_length_a     18.376665
_cell_length_b     17.874012
_cell_length_c     17.845346
_cell_angle_alpha  89.6401
_cell_angle_beta   91.232341
_cell_angle_gamma 91.556699
loop_
_atom_site_label
_atom_site_type_symbol
_atom_site_fract_x
_atom_site_fract_y
_atom_site_fract_z
_atom_type_partial_charge
Fe0 Fe 0.0142 0.06441 0.34516 0.0
O1 O 0.0163 0.05515 0.45516 0.0
Fe2 Fe 0.06019 0.95503 0.49873 0.0
Fe3 Fe 0.92737 0.05983 0.51773 0.0
O4 O 0.02083 0.04827 0.45294 0.0
O5 O 0.97126 0.95971 0.5613 0.0
O6 O 0.96674 0.96659 0.56352 0.0
Fe7 Fe 0.97337 0.95045 0.6713 0.0
C8 C 0.934 0.19695 0.408 0.0
O9 O 0.90342 0.0416 0.33432 0.0
O10 O 0.86826 0.99414 0.44433 0.0
O11 O -0.00096 0.8421 0.64551 0.0
O12 O 0.08999 0.85677 0.55874 0.0
O13 O 0.00592 0.88607 0.42128 0.0
O14 O 0.03183 0.95439 0.32017 0.0
O15 O 0.83887 0.0488 0.59045 0.0
O16 O 0.86151 0.9412 0.6587 0.0
C17 C 0.01685 0.89167 0.35109 0.0
O18 O 0.08416 0.97326 0.68214 0.0
O19 O 0.1193 0.02073 0.57213 0.0
O20 O 0.98853 0.17277 0.37095 0.0
O21 O 0.89757 0.15809 0.45773 0.0
C22 C 0.85939 1.00302 0.37432 0.0
C23 C 0.81938 0.99441 0.63568 0.0
C24 C 0.97072 0.12319 0.66537 0.0
O25 O 0.98165 0.12879 0.59518 0.0
O26 O 0.95574 0.06047 0.69629 0.0
C27 C 0.05356 0.81791 0.60846 0.0
O28 O 0.1487 0.96606 0.42601 0.0
O29 O 0.12606 0.07367 0.35777 0.0
C30 C 0.12818 0.01184 0.64214 0.0
C31 C 0.16819 0.02046 0.38078 0.0
Fe32 Fe 0.32971 0.97236 0.97948 0.0
O33 O 0.43582 0.97212 0.9791 0.0
Fe34 Fe 0.49135 0.07218 0.94825 0.0
Fe35 Fe 0.49621 0.94269 0.06821 0.0
O36 O 0.43577 0.97797 0.97333 0.0
O37 O 0.55175 0.04275 0.03737 0.0
O38 O 0.5518 0.0369 0.04313 0.0
Fe39 Fe 0.65786 0.04251 0.03698 0.0
C40 C 0.36569 0.99033 0.1477 0.0
O41 O 0.34322 0.85941 0.9833 0.0
O42 O 0.42718 0.84635 0.0805 0.0
O43 O 0.66366 0.04837 0.92171 0.0
O44 O 0.55398 0.01304 0.87653 0.0
O45 O 0.4171 0.08912 0.85773 0.0
O46 O 0.33817 0.98661 0.86621 0.0
O47 O 0.55897 0.87977 1.00049 0.0
O48 O 0.6683 0.92814 0.03287 0.0
C49 C 0.36551 0.04429 0.83144 0.0
O50 O 0.64434 0.15546 0.03317 0.0
O51 O 0.56038 0.16852 0.93597 0.0
O52 O 0.32391 0.9665 0.09476 0.0
O53 O 0.43358 1.00183 0.13993 0.0
C54 C 0.37613 0.82063 0.03466 0.0
C55 C 0.62736 0.87455 0.00892 0.0
C56 C 0.62206 0.97057 0.18502 0.0
O57 O 0.57046 0.92575 0.15873 0.0
O58 O 0.6494 0.02826 0.15026 0.0
C59 C 0.62187 0.02454 0.86877 0.0
O60 O 0.4286 0.1351 0.01598 0.0
O61 O 0.31927 0.08673 0.9836 0.0
C62 C 0.61144 0.19424 0.98181 0.0
C63 C 0.3602 0.14032 1.00755 0.0
Fe64 Fe -0.00238 0.34252 0.0627 0.0
O65 O 0.01097 0.45167 0.05441 0.0
Fe66 Fe 0.05925 0.4933 0.95475 0.0
Fe67 Fe 0.92831 0.52157 0.06171 0.0
O68 O 0.01586 0.44947 0.0477 0.0
O69 O 0.97659 0.56319 0.96205 0.0
O70 O 0.9717 0.5654 0.96876 0.0
Fe71 Fe 0.98994 0.67234 0.95375 0.0
C72 C 0.84524 0.38654 1.00796 0.0
O73 O 0.97962 0.36982 0.17195 0.0
O74 O 0.89479 0.46252 0.16028 0.0
O75 O 0.10191 0.67118 0.96953 0.0
O76 O 0.12507 0.56051 0.0216 0.0
O77 O 0.141 0.41312 0.96358 0.0
O78 O 0.10952 0.34323 0.0681 0.0
O79 O 0.98936 0.59207 0.13178 0.0
O80 O 0.98054 0.69774 0.06521 0.0
C81 C 0.15535 0.36599 0.01785 0.0
O82 O 0.00793 0.64504 0.8445 0.0
O83 O 0.09277 0.55235 0.85618 0.0
O84 O 0.88565 0.34368 0.04691 0.0
O85 O 0.86249 0.45436 0.99486 0.0
C86 C 0.92867 0.41036 0.19804 0.0
C87 C 0.99258 0.66324 0.12663 0.0
C88 C 0.83222 0.64888 0.99862 0.0
O89 O 0.84657 0.60175 0.05289 0.0
O90 O 0.87804 0.67164 0.94836 0.0
C91 C 0.14232 0.62833 0.00849 0.0
O92 O -0.00179 0.4228 0.88468 0.0
O93 O 0.00703 0.31713 0.95125 0.0
C94 C 0.05888 0.60451 0.81842 0.0
C95 C -0.00501 0.35163 0.88983 0.0
C96 C 0.84799 0.33187 0.2771 0.0
C97 C 0.90494 0.38587 0.2731 0.0
H98 H 0.81145 0.22816 0.32697 0.0
C99 C 0.95726 0.38878 0.33169 0.0
H100 H 0.80799 0.32709 0.23174 0.0
C101 C 0.95962 0.33177 0.38585 0.0
C102 C 0.90925 0.27127 0.38284 0.0
H103 H 0.00258 0.42875 0.32927 0.0
H104 H 0.00638 0.32988 0.42381 0.0
C105 C 0.85015 0.27483 0.3317 0.0
C106 C 0.72461 1.00224 0.36111 0.0
C107 C 0.79154 0.97433 0.33931 0.0
H108 H 0.61355 0.02025 0.32786 0.0
C109 C 0.79392 0.92633 0.27782 0.0
H110 H 0.72205 0.03943 0.40866 0.0
C111 C 0.73124 0.91233 0.23411 0.0
C112 C 0.66637 0.94842 0.24988 0.0
H113 H 0.84517 0.90397 0.26065 0.0
H114 H 0.73625 0.88182 0.18229 0.0
C115 C 0.66232 0.99014 0.31591 0.0
C116 C 0.05967 0.8299 0.23658 0.0
C117 C 0.01866 0.8247 0.30217 0.0
H118 H 0.08389 0.78246 0.13094 0.0
C119 C 0.97713 0.75871 0.31534 0.0
H120 H 0.09378 0.87892 0.22518 0.0
C121 C 0.97261 0.70183 0.26075 0.0
C122 C 0.00952 0.71068 0.19274 0.0
H123 H 0.94523 0.75295 0.36546 0.0
H124 H 0.9367 0.65365 0.26949 0.0
C125 C 0.05474 0.77415 0.18263 0.0
C126 C 0.30346 0.9342 0.25653 0.0
C127 C 0.33371 0.9979 0.22166 0.0
H128 H 0.22875 0.89149 0.33739 0.0
C129 C 0.3209 0.06881 0.25066 0.0
H130 H 0.31312 0.879 0.2349 0.0
C131 C 0.27146 0.07639 0.3085 0.0
C132 C 0.2359 0.01282 0.33898 0.0
H133 H 0.34449 0.1184 0.22479 0.0
H134 H 0.25729 0.13205 0.32578 0.0
C135 C 0.25564 0.94146 0.31553 0.0
C136 C 0.02794 0.6831 0.63061 0.0
C137 C 0.07832 0.7436 0.63363 0.0
H138 H 0.98497 0.58614 0.68718 0.0
C139 C 0.13742 0.74004 0.68477 0.0
H140 H 0.98119 0.68501 0.59265 0.0
C141 C 0.13957 0.68299 0.73936 0.0
C142 C 0.08262 0.62899 0.74336 0.0
H143 H 0.17611 0.7867 0.68946 0.0
H144 H 0.17958 0.68779 0.78471 0.0
C145 C 0.03031 0.62608 0.68477 0.0
C146 C 0.32523 0.02464 0.70061 0.0
C147 C 0.32119 0.06643 0.76658 0.0
H148 H 0.26551 0.97528 0.60789 0.0
C149 C 0.25634 0.1026 0.78229 0.0
H150 H 0.37399 0.99449 0.68871 0.0
C151 C 0.19367 0.0886 0.73856 0.0
C152 C 0.19603 0.04052 0.67714 0.0
H153 H 0.25137 0.13318 0.83407 0.0
H154 H 0.14243 0.11102 0.75569 0.0
C155 C 0.26296 0.01253 0.65539 0.0
C156 C 0.93286 0.2407 0.83385 0.0
C157 C 0.97805 0.30419 0.82371 0.0
H158 H 0.89383 0.13593 0.79131 0.0
C159 C 0.01495 0.31304 0.7557 0.0
H160 H 0.90372 0.23239 0.88554 0.0
C161 C 0.01043 0.25615 0.70112 0.0
C162 C 0.96892 0.19015 0.7143 0.0
H163 H 0.05085 0.36123 0.74696 0.0
H164 H 0.04232 0.26192 0.65099 0.0
C165 C 0.92792 0.18496 0.77989 0.0
C166 C 0.68409 0.08067 0.75992 0.0
C167 C 0.65386 0.01696 0.7948 0.0
H168 H 0.75879 0.12337 0.67905 0.0
C169 C 0.66668 0.94605 0.76582 0.0
H170 H 0.67442 0.13586 0.78154 0.0
C171 C 0.71612 0.93847 0.70798 0.0
C172 C 0.75167 1.00204 0.67748 0.0
H173 H 0.6431 0.89646 0.7917 0.0
H174 H 0.7303 0.88281 0.69071 0.0
C175 C 0.73191 0.0734 0.70092 0.0
C176 C 0.25009 0.29262 0.08475 0.0
C177 C 0.22457 0.32622 0.01795 0.0
H178 H 0.31519 0.20676 0.13363 0.0
C179 C 0.25718 0.30884 0.95007 0.0
H180 H 0.22645 0.30565 0.13806 0.0
C181 C 0.30806 0.25226 0.94803 0.0
C182 C 0.32729 0.21339 0.01379 0.0
H183 H 0.23854 0.33365 0.89779 0.0
H184 H 0.32809 0.23492 0.89436 0.0
C185 C 0.30102 0.23629 0.08257 0.0
C186 C 0.2299 0.69296 0.09633 0.0
C187 C 0.21608 0.6555 0.02852 0.0
H188 H 0.29816 0.7738 0.15404 0.0
C189 C 0.26962 0.65584 0.97385 0.0
H190 H 0.18914 0.69277 0.13926 0.0
C191 C 0.3325 0.70068 0.98297 0.0
C192 C 0.34181 0.74659 0.04627 0.0
H193 H 0.25969 0.6271 0.92116 0.0
H194 H 0.36875 0.70725 0.93612 0.0
C195 C 0.29294 0.7381 0.10538 0.0
C196 C 0.69465 0.2767 0.91111 0.0
C197 C 0.64575 0.26828 0.9702 0.0
H198 H 0.79845 0.32199 0.87722 0.0
C199 C 0.65505 0.31424 0.03347 0.0
H200 H 0.68941 0.24096 0.86248 0.0
C201 C 0.71793 0.35909 0.04257 0.0
C202 C 0.77148 0.35937 0.98792 0.0
H203 H 0.61877 0.30771 0.0803 0.0
H204 H 0.72784 0.38787 0.09524 0.0
C205 C 0.75768 0.32185 0.92014 0.0
C206 C 0.73745 0.72223 0.93172 0.0
C207 C 0.763 0.68865 0.99852 0.0
H208 H 0.67233 0.80807 0.88284 0.0
C209 C 0.7304 0.70605 0.06641 0.0
H210 H 0.76109 0.70918 0.87841 0.0
C211 C 0.67953 0.76263 0.06845 0.0
C212 C 0.66027 0.80147 1.00268 0.0
H213 H 0.74906 0.68126 0.11869 0.0
H214 H 0.65951 0.77998 0.12212 0.0
C215 C 0.68652 0.77855 0.93391 0.0
loop_
_geom_bond_atom_site_label_1
_geom_bond_atom_site_label_2
_geom_bond_distance
_geom_bond_site_symmetry_2
_ccdc_geom_bond_type
Fe0 O1 1.886 . S
Fe0 O4 1.715 1_645 S
Fe0 O9 2.077 1_545 S
Fe0 O14 1.935 1_545 S
Fe0 O20 2.077 1_655 S
Fe0 O29 1.935 1_655 S
O1 Fe0 1.886 . S
O1 Fe3 1.715 . S
Fe2 O4 1.886 . S
Fe2 O5 1.715 . S
Fe2 O12 1.935 . S
Fe2 O13 2.077 . S
Fe2 O19 1.935 . S
Fe2 O28 2.077 . S
Fe3 O1 1.715 . S
Fe3 O6 1.886 . S
Fe3 O10 1.935 . S
Fe3 O15 2.077 . S
Fe3 O21 1.935 . S
Fe3 O25 2.077 . S
O4 Fe0 1.715 1_465 S
O4 Fe2 1.886 . S
O5 Fe2 1.715 . S
O5 Fe7 1.893 . S
O6 Fe3 1.886 . S
O6 Fe7 1.708 1_645 S
Fe7 O5 1.893 . S
Fe7 O6 1.708 1_465 S
Fe7 O11 2.091 1_455 S
Fe7 O16 1.938 1_455 S
Fe7 O18 2.077 1_565 S
Fe7 O26 1.921 1_565 S
C8 O20 1.381 1_655 S
C8 O21 1.421 . S
O9 Fe0 2.077 1_565 S
O9 C22 1.381 1_565 S
O10 Fe3 1.935 . S
O10 C22 1.421 . S
O11 Fe7 2.091 1_655 S
O11 C27 1.381 1_655 S
O12 Fe2 1.935 . S
O12 C27 1.421 . S
O13 Fe2 2.077 . S
O13 C17 1.381 . S
O14 Fe0 1.935 1_565 S
O14 C17 1.421 1_655 S
O15 Fe3 2.077 . S
O15 C23 1.381 . S
O16 Fe7 1.938 1_655 S
O16 C23 1.421 1_565 S
C17 O13 1.381 . S
C17 O14 1.421 1_455 S
O18 Fe7 2.077 1_545 S
O18 C30 1.381 1_545 S
O19 Fe2 1.935 . S
O19 C30 1.421 . S
O20 Fe0 2.077 1_455 S
O20 C8 1.381 1_455 S
O21 Fe3 1.935 . S
O21 C8 1.421 . S
C22 O9 1.381 1_545 S
C22 O10 1.421 . S
C23 O15 1.381 . S
C23 O16 1.421 1_545 S
C24 O25 1.381 . S
C24 O26 1.421 1_655 S
O25 Fe3 2.077 . S
O25 C24 1.381 . S
O26 Fe7 1.921 1_545 S
O26 C24 1.421 1_455 S
C27 O11 1.381 1_455 S
C27 O12 1.421 . S
O28 Fe2 2.077 . S
O28 C31 1.381 . S
O29 Fe0 1.935 1_455 S
O29 C31 1.421 1_545 S
C30 O18 1.381 1_565 S
C30 O19 1.421 . S
C31 O28 1.381 . S
C31 O29 1.421 1_565 S
Fe32 O33 1.886 . S
Fe32 O36 1.715 1_564 S
Fe32 O41 2.077 1_554 S
Fe32 O46 1.935 1_554 S
Fe32 O52 2.077 1_565 S
Fe32 O61 1.935 1_565 S
O33 Fe32 1.886 . S
O33 Fe35 1.715 . S
Fe34 O36 1.886 . S
Fe34 O37 1.715 . S
Fe34 O44 1.935 . S
Fe34 O45 2.077 . S
Fe34 O51 1.935 . S
Fe34 O60 2.077 . S
Fe35 O33 1.715 . S
Fe35 O38 1.886 . S
Fe35 O42 1.935 . S
Fe35 O47 2.077 . S
Fe35 O53 1.935 . S
Fe35 O57 2.077 . S
O36 Fe32 1.715 1_546 S
O36 Fe34 1.886 . S
O37 Fe34 1.715 . S
O37 Fe39 1.893 . S
O38 Fe35 1.886 . S
O38 Fe39 1.708 1_564 S
Fe39 O37 1.893 . S
Fe39 O38 1.708 1_546 S
Fe39 O43 2.091 1_545 S
Fe39 O48 1.938 1_545 S
Fe39 O50 2.077 1_556 S
Fe39 O58 1.921 1_556 S
C40 O52 1.381 1_565 S
C40 O53 1.421 . S
O41 Fe32 2.077 1_556 S
O41 C54 1.381 1_556 S
O42 Fe35 1.935 . S
O42 C54 1.421 . S
O43 Fe39 2.091 1_565 S
O43 C59 1.381 1_565 S
O44 Fe34 1.935 . S
O44 C59 1.421 . S
O45 Fe34 2.077 . S
O45 C49 1.381 . S
O46 Fe32 1.935 1_556 S
O46 C49 1.421 1_565 S
O47 Fe35 2.077 . S
O47 C55 1.381 . S
O48 Fe39 1.938 1_565 S
O48 C55 1.421 1_556 S
C49 O45 1.381 . S
C49 O46 1.421 1_545 S
O50 Fe39 2.077 1_554 S
O50 C62 1.381 1_554 S
O51 Fe34 1.935 . S
O51 C62 1.421 . S
O52 Fe32 2.077 1_545 S
O52 C40 1.381 1_545 S
O53 Fe35 1.935 . S
O53 C40 1.421 . S
C54 O41 1.381 1_554 S
C54 O42 1.421 . S
C55 O47 1.381 . S
C55 O48 1.421 1_554 S
C56 O57 1.381 . S
C56 O58 1.421 1_565 S
O57 Fe35 2.077 . S
O57 C56 1.381 . S
O58 Fe39 1.921 1_554 S
O58 C56 1.421 1_545 S
C59 O43 1.381 1_545 S
C59 O44 1.421 . S
O60 Fe34 2.077 . S
O60 C63 1.381 . S
O61 Fe32 1.935 1_545 S
O61 C63 1.421 1_554 S
C62 O50 1.381 1_556 S
C62 O51 1.421 . S
C63 O60 1.381 . S
C63 O61 1.421 1_556 S
Fe64 O65 1.886 . S
Fe64 O68 1.715 1_654 S
Fe64 O73 2.077 1_655 S
Fe64 O78 1.935 1_655 S
Fe64 O84 2.077 1_554 S
Fe64 O93 1.935 1_554 S
O65 Fe64 1.886 . S
O65 Fe67 1.715 . S
Fe66 O68 1.886 . S
Fe66 O69 1.715 . S
Fe66 O76 1.935 . S
Fe66 O77 2.077 . S
Fe66 O83 1.935 . S
Fe66 O92 2.077 . S
Fe67 O65 1.715 . S
Fe67 O70 1.886 . S
Fe67 O74 1.935 . S
Fe67 O79 2.077 . S
Fe67 O85 1.935 . S
Fe67 O89 2.077 . S
O68 Fe64 1.715 1_456 S
O68 Fe66 1.886 . S
O69 Fe66 1.715 . S
O69 Fe71 1.893 . S
O70 Fe67 1.886 . S
O70 Fe71 1.708 1_654 S
Fe71 O69 1.893 . S
Fe71 O70 1.708 1_456 S
Fe71 O75 2.077 1_556 S
Fe71 O80 1.921 1_556 S
Fe71 O82 2.091 1_455 S
Fe71 O90 1.938 1_455 S
C72 O84 1.381 1_554 S
C72 O85 1.421 . S
O73 Fe64 2.077 1_455 S
O73 C86 1.381 1_455 S
O74 Fe67 1.935 . S
O74 C86 1.421 . S
O75 Fe71 2.077 1_554 S
O75 C91 1.381 1_554 S
O76 Fe66 1.935 . S
O76 C91 1.421 . S
O77 Fe66 2.077 . S
O77 C81 1.381 . S
O78 Fe64 1.935 1_455 S
O78 C81 1.421 1_554 S
O79 Fe67 2.077 . S
O79 C87 1.381 . S
O80 Fe71 1.921 1_554 S
O80 C87 1.421 1_455 S
C81 O77 1.381 . S
C81 O78 1.421 1_556 S
O82 Fe71 2.091 1_655 S
O82 C94 1.381 1_655 S
O83 Fe66 1.935 . S
O83 C94 1.421 . S
O84 Fe64 2.077 1_556 S
O84 C72 1.381 1_556 S
O85 Fe67 1.935 . S
O85 C72 1.421 . S
C86 O73 1.381 1_655 S
C86 O74 1.421 . S
C87 O79 1.381 . S
C87 O80 1.421 1_655 S
C88 O89 1.381 . S
C88 O90 1.421 1_554 S
O89 Fe67 2.077 . S
O89 C88 1.381 . S
O90 Fe71 1.938 1_655 S
O90 C88 1.421 1_556 S
C91 O75 1.381 1_556 S
C91 O76 1.421 . S
O92 Fe66 2.077 . S
O92 C95 1.381 . S
O93 Fe64 1.935 1_556 S
O93 C95 1.421 1_655 S
C94 O82 1.381 1_455 S
C94 O83 1.421 . S
C95 O92 1.381 . S
C95 O93 1.421 1_455 S
C96 C97 1.387 . S
C96 H100 0.950 . S
C96 C105 1.390 . S
C97 C96 1.387 . S
C97 C99 1.387 1_655 S
H98 C105 0.950 . S
C99 C97 1.387 1_455 S
C99 C101 1.390 . S
C99 H103 0.950 . S
H100 C96 0.950 . S
C101 C99 1.390 . S
C101 C102 1.387 1_455 S
C101 H104 0.950 . S
C102 C101 1.387 1_655 S
C102 C105 1.387 . S
H103 C99 0.950 . S
H104 C101 0.950 . S
C105 C96 1.390 . S
C105 H98 0.950 . S
C105 C102 1.387 . S
C106 C107 1.387 . S
C106 H110 0.950 . S
C106 C115 1.390 . S
C107 C106 1.387 . S
C107 C109 1.387 1_545 S
H108 C115 0.950 . S
C109 C107 1.387 1_565 S
C109 C111 1.390 . S
C109 H113 0.950 . S
H110 C106 0.950 . S
C111 C109 1.390 . S
C111 C112 1.400 . S
C111 H114 0.950 . S
C112 C111 1.400 . S
C112 C115 1.375 1_565 S
H113 C109 0.950 . S
H114 C111 0.950 . S
C115 C106 1.390 . S
C115 H108 0.950 . S
C115 C112 1.375 1_545 S
C116 C117 1.387 . S
C116 H120 0.950 . S
C116 C125 1.390 . S
C117 C116 1.387 . S
C117 C119 1.387 1_455 S
H118 C125 0.950 . S
C119 C117 1.387 1_655 S
C119 C121 1.390 . S
C119 H123 0.950 . S
H120 C116 0.950 . S
C121 C119 1.390 . S
C121 C122 1.400 . S
C121 H124 0.950 . S
C122 C121 1.400 . S
C122 C125 1.375 1_655 S
H123 C119 0.950 . S
H124 C121 0.950 . S
C125 C116 1.390 . S
C125 H118 0.950 . S
C125 C122 1.375 1_455 S
C126 C127 1.387 . S
C126 H130 0.950 . S
C126 C135 1.390 . S
C127 C126 1.387 . S
C127 C129 1.387 1_565 S
H128 C135 0.950 . S
C129 C127 1.387 1_545 S
C129 C131 1.390 . S
C129 H133 0.950 . S
H130 C126 0.950 . S
C131 C129 1.390 . S
C131 C132 1.387 1_545 S
C131 H134 0.950 . S
C132 C131 1.387 1_565 S
C132 C135 1.387 . S
H133 C129 0.950 . S
H134 C131 0.950 . S
C135 C126 1.390 . S
C135 H128 0.950 . S
C135 C132 1.387 . S
C136 C137 1.387 1_655 S
C136 H140 0.950 . S
C136 C145 1.390 . S
C137 C136 1.387 1_455 S
C137 C139 1.387 . S
H138 C145 0.950 . S
C139 C137 1.387 . S
C139 C141 1.390 . S
C139 H143 0.950 . S
H140 C136 0.950 . S
C141 C139 1.390 . S
C141 C142 1.387 . S
C141 H144 0.950 . S
C142 C141 1.387 . S
C142 C145 1.387 1_455 S
H143 C139 0.950 . S
H144 C141 0.950 . S
C145 C136 1.390 . S
C145 H138 0.950 . S
C145 C142 1.387 1_655 S
C146 C147 1.387 1_565 S
C146 H150 0.950 . S
C146 C155 1.390 . S
C147 C146 1.387 1_545 S
C147 C149 1.387 . S
H148 C155 0.950 . S
C149 C147 1.387 . S
C149 C151 1.390 . S
C149 H153 0.950 . S
H150 C146 0.950 . S
C151 C149 1.390 . S
C151 C152 1.375 1_545 S
C151 H154 0.950 . S
C152 C151 1.375 1_565 S
C152 C155 1.400 . S
H153 C149 0.950 . S
H154 C151 0.950 . S
C155 C146 1.390 . S
C155 H148 0.950 . S
C155 C152 1.400 . S
C156 C157 1.387 1_655 S
C156 H160 0.950 . S
C156 C165 1.390 . S
C157 C156 1.387 1_455 S
C157 C159 1.387 . S
H158 C165 0.950 . S
C159 C157 1.387 . S
C159 C161 1.390 . S
C159 H163 0.950 . S
H160 C156 0.950 . S
C161 C159 1.390 . S
C161 C162 1.374 1_455 S
C161 H164 0.950 . S
C162 C161 1.374 1_655 S
C162 C165 1.400 . S
H163 C159 0.950 . S
H164 C161 0.950 . S
C165 C156 1.390 . S
C165 H158 0.950 . S
C165 C162 1.400 . S
C166 C167 1.387 . S
C166 H170 0.950 . S
C166 C175 1.390 . S
C167 C166 1.387 . S
C167 C169 1.387 1_545 S
H168 C175 0.950 . S
C169 C167 1.387 1_565 S
C169 C171 1.390 . S
C169 H173 0.950 . S
H170 C166 0.950 . S
C171 C169 1.390 . S
C171 C172 1.387 1_565 S
C171 H174 0.950 . S
C172 C171 1.387 1_545 S
C172 C175 1.387 . S
H173 C169 0.950 . S
H174 C171 0.950 . S
C175 C166 1.390 . S
C175 H168 0.950 . S
C175 C172 1.387 . S
C176 C177 1.387 1_554 S
C176 H180 0.950 . S
C176 C185 1.390 . S
C177 C176 1.387 1_556 S
C177 C179 1.387 . S
H178 C185 0.950 . S
C179 C177 1.387 . S
C179 C181 1.390 . S
C179 H183 0.950 . S
H180 C176 0.950 . S
C181 C179 1.390 . S
C181 C182 1.387 . S
C181 H184 0.950 . S
C182 C181 1.387 . S
C182 C185 1.387 1_556 S
H183 C179 0.950 . S
H184 C181 0.950 . S
C185 C176 1.390 . S
C185 H178 0.950 . S
C185 C182 1.387 1_554 S
C186 C187 1.375 1_554 S
C186 H190 0.950 . S
C186 C195 1.390 . S
C187 C186 1.375 1_556 S
C187 C189 1.400 . S
H188 C195 0.950 . S
C189 C187 1.400 . S
C189 C191 1.390 . S
C189 H193 0.950 . S
H190 C186 0.950 . S
C191 C189 1.390 . S
C191 C192 1.387 1_556 S
C191 H194 0.950 . S
C192 C191 1.387 1_554 S
C192 C195 1.387 . S
H193 C189 0.950 . S
H194 C191 0.950 . S
C195 C186 1.390 . S
C195 H188 0.950 . S
C195 C192 1.387 . S
C196 C197 1.400 . S
C196 H200 0.950 . S
C196 C205 1.390 . S
C197 C196 1.400 . S
C197 C199 1.375 1_556 S
H198 C205 0.950 . S
C199 C197 1.375 1_554 S
C199 C201 1.390 . S
C199 H203 0.950 . S
H200 C196 0.950 . S
C201 C199 1.390 . S
C201 C202 1.387 . S
C201 H204 0.950 . S
C202 C201 1.387 . S
C202 C205 1.387 1_554 S
H203 C199 0.950 . S
H204 C201 0.950 . S
C205 C196 1.390 . S
C205 H198 0.950 . S
C205 C202 1.387 1_556 S
C206 C207 1.387 1_556 S
C206 H210 0.950 . S
C206 C215 1.390 . S
C207 C206 1.387 1_554 S
C207 C209 1.387 . S
H208 C215 0.950 . S
C209 C207 1.387 . S
C209 C211 1.390 . S
C209 H213 0.950 . S
H210 C206 0.950 . S
C211 C209 1.390 . S
C211 C212 1.387 . S
C211 H214 0.950 . S
C212 C211 1.387 . S
C212 C215 1.387 1_554 S
H213 C209 0.950 . S
H214 C211 0.950 . S
C215 C206 1.390 . S
C215 H208 0.950 . S
C215 C212 1.387 1_556 S
C97 C86 1.250 . S
C102 C8 1.245 . S
C107 C22 1.219 . S
C112 C56 1.210 . S
C117 C17 1.208 . S
C122 C87 1.214 . S
C127 C40 1.248 . S
C132 C31 1.239 . S
C137 C27 1.248 . S
C142 C94 1.252 . S
C147 C49 1.211 . S
C152 C30 1.221 . S
C157 C95 1.208 . S
C162 C24 1.214 . S
C167 C59 1.250 . S
C172 C23 1.240 . S
C177 C81 1.241 . S
C182 C63 1.236 . S
C187 C91 1.222 . S
C192 C54 1.220 . S
C197 C62 1.222 . S
C202 C72 1.220 . S
C207 C88 1.238 . S
C212 C55 1.244 . S
