# Generated by pormake.
# Topology sra, (4)-cn, num edge types: 1
# Building blocks:
#     Node 0, Type 0, BuildingBlock: AZAVOO_clean_sbu_0, # of connection points: 4
#     Node 1, Type 0, BuildingBlock: AZAVOO_clean_sbu_0, # of connection points: 4
#     Node 2, Type 0, BuildingBlock: AZAVOO_clean_sbu_0, # of connection points: 4
#     Node 3, Type 0, BuildingBlock: AZAVOO_clean_sbu_0, # of connection points: 4
#     Node 4, Type 0, BuildingBlock: AZAVOO_clean_sbu_0, # of connection points: 4
#     Node 5, Type 0, BuildingBlock: AZAVOO_clean_sbu_0, # of connection points: 4
#     Node 6, Type 0, BuildingBlock: AZAVOO_clean_sbu_0, # of connection points: 4
#     Node 7, Type 0, BuildingBlock: AZAVOO_clean_sbu_0, # of connection points: 4
#     Edge 8, Type (0, 0), None
#     Edge 9, Type (0, 0), None
#     Edge 10, Type (0, 0), None
#     Edge 11, Type (0, 0), None
#     Edge 12, Type (0, 0), None
#     Edge 13, Type (0, 0), None
#     Edge 14, Type (0, 0), None
#     Edge 15, Type (0, 0), None
#     Edge 16, Type (0, 0), None
#     Edge 17, Type (0, 0), None
#     Edge 18, Type (0, 0), None
#     Edge 19, Type (0, 0), None
#     Edge 20, Type (0, 0), None
#     Edge 21, Type (0, 0), None
#     Edge 22, Type (0, 0), None
#     Edge 23, Type (0, 0), None
# Relax obj value: 0.074
# Max RMSD: 0.082
# Mean RMSD: 0.082
data_MOF--net-sra--node1-AZAVOO_clean_sbu_0--edge1-none
_symmetry_space_group_name_H-M    P1
_symmetry_Int_Tables_number       1
_symmetry_cell_setting            triclinic
loop_
_symmetry_equiv_pos_as_xyz
'x, y, z'
_cell_length_a     11.96376
_cell_length_b     16.327014
_cell_length_c     22.599658
_cell_angle_alpha  89.999312
_cell_angle_beta   90.000001
_cell_angle_gamma 89.958584
loop_
_atom_site_label
_atom_site_type_symbol
_atom_site_fract_x
_atom_site_fract_y
_atom_site_fract_z
_atom_type_partial_charge
Mg0 Mg 0.07111 0.02219 0.11682 0.0
O1 O 0.02831 0.15809 0.10936 0.0
O2 O 0.17952 0.22672 0.07972 0.0
Mg3 Mg 0.31921 0.13294 0.06328 0.0
C4 C 0.07734 0.22457 0.0957 0.0
C5 C 0.8545 0.99317 0.19005 0.0
O6 O 0.92902 0.99559 0.23261 0.0
O7 O 0.05433 1.00819 0.01546 0.0
O8 O 0.21629 0.06894 -0.00839 0.0
O9 O 0.14732 0.03876 0.20681 0.0
O10 O 0.24435 0.04493 0.12418 0.0
C11 C 0.12789 0.02975 -0.02261 0.0
C12 C 0.24253 0.04827 0.18074 0.0
O13 O 0.88594 0.99917 0.13633 0.0
Mg14 Mg 0.01867 0.50323 0.11682 0.0
O15 O 0.06147 0.36733 0.10936 0.0
O16 O 0.91025 0.2987 0.07973 0.0
Mg17 Mg 0.77057 0.39248 0.06328 0.0
C18 C 1.01243 0.30085 0.0957 0.0
C19 C 0.23529 0.53225 0.19005 0.0
O20 O 0.16076 0.52984 0.2326 0.0
O21 O 0.03545 0.51722 0.01546 0.0
O22 O 0.87349 0.45648 -0.00838 0.0
O23 O 0.94247 0.48665 0.20681 0.0
O24 O 0.84544 0.48049 0.12418 0.0
C25 C 0.96189 0.49567 -0.02261 0.0
C26 C 0.84726 0.47714 0.18074 0.0
O27 O 0.20385 0.52625 0.13633 0.0
Mg28 Mg 0.07122 1.00323 0.7782 0.0
O29 O 0.02838 0.86737 0.78552 0.0
O30 O 0.17954 0.7985 0.81512 0.0
Mg31 Mg 0.31925 0.89207 0.83167 0.0
C32 C 0.07738 0.80081 0.79913 0.0
C33 C 0.85459 0.03216 0.70492 0.0
O34 O 0.9291 0.02925 0.66237 0.0
O35 O 0.05437 0.01706 0.87956 0.0
O36 O 0.21629 0.95605 0.90339 0.0
O37 O 0.1475 0.98677 0.68821 0.0
O38 O 0.24448 0.98034 0.77085 0.0
C39 C 0.12787 0.9953 0.91763 0.0
C40 C 0.2427 0.97713 0.71429 0.0
O41 O 0.88604 0.02648 0.75866 0.0
Mg42 Mg 0.01857 0.52219 0.7782 0.0
O43 O 0.0614 0.65805 0.78552 0.0
O44 O 0.91023 0.72692 0.81512 0.0
Mg45 Mg 0.77053 0.63334 0.83166 0.0
C46 C 1.0124 0.72462 0.79912 0.0
C47 C 0.23519 0.49326 0.70493 0.0
O48 O 0.16069 0.49615 0.66238 0.0
O49 O 0.03541 0.50837 0.87956 0.0
O50 O 0.87349 0.56936 0.90339 0.0
O51 O 0.94229 0.53865 0.68821 0.0
O52 O 0.8453 0.54508 0.77085 0.0
C53 C 0.96191 0.53012 0.91763 0.0
C54 C 0.84709 0.54829 0.71428 0.0
O55 O 0.20374 0.49895 0.75866 0.0
Mg56 Mg 0.5711 0.52218 0.61682 0.0
O57 O 0.5283 0.65809 0.60936 0.0
O58 O 0.67952 0.72672 0.57973 0.0
Mg59 Mg 0.8192 0.63294 0.56328 0.0
C60 C 0.57734 0.72457 0.5957 0.0
C61 C 0.35449 0.49317 0.69005 0.0
O62 O 0.42901 0.49557 0.73261 0.0
O63 O 0.55432 0.50819 0.51546 0.0
O64 O 0.71628 0.56894 0.49162 0.0
O65 O 0.6473 0.53876 0.70682 0.0
O66 O 0.74433 0.54492 0.62417 0.0
C67 C 0.62788 0.52975 0.47739 0.0
C68 C 0.74251 0.54825 0.68074 0.0
O69 O 0.38592 0.49917 0.63633 0.0
Mg70 Mg 0.51869 1.00323 0.61682 0.0
O71 O 0.56148 0.86733 0.60936 0.0
O72 O 0.41025 0.7987 0.57973 0.0
Mg73 Mg 0.27058 0.89249 0.56329 0.0
C74 C 0.51243 0.80085 0.5957 0.0
C75 C 0.7353 0.03225 0.69005 0.0
O76 O 0.66078 0.02986 0.73261 0.0
O77 O 0.53546 0.01723 0.51546 0.0
O78 O 0.3735 0.95648 0.49162 0.0
O79 O 0.44248 0.98666 0.70682 0.0
O80 O 0.34545 0.9805 0.62417 0.0
C81 C 0.4619 0.99567 0.47739 0.0
C82 C 0.34728 0.97717 0.68074 0.0
O83 O 0.70386 0.02624 0.63633 0.0
Mg84 Mg 0.5712 0.50323 0.2782 0.0
O85 O 0.52837 0.36737 0.28552 0.0
O86 O 0.67954 0.2985 0.31512 0.0
Mg87 Mg 0.81924 0.39208 0.33167 0.0
C88 C 0.57737 0.30081 0.29913 0.0
C89 C 0.35458 0.53216 0.20492 0.0
O90 O 0.42908 0.52927 0.16237 0.0
O91 O 0.55436 0.51705 0.37956 0.0
O92 O 0.71628 0.45606 0.40339 0.0
O93 O 0.64748 0.48678 0.18821 0.0
O94 O 0.74447 0.48034 0.27086 0.0
C95 C 0.62786 0.4953 0.41763 0.0
C96 C 0.74268 0.47715 0.21429 0.0
O97 O 0.38603 0.52647 0.25866 0.0
Mg98 Mg 0.51858 0.02219 0.2782 0.0
O99 O 0.56141 0.15805 0.28552 0.0
O100 O 0.41023 0.22692 0.31512 0.0
Mg101 Mg 0.27054 0.13333 0.33166 0.0
C102 C 0.5124 0.22462 0.29912 0.0
C103 C 0.73521 0.99326 0.20493 0.0
O104 O 0.6607 0.99614 0.16237 0.0
O105 O 0.53543 1.00837 0.37956 0.0
O106 O 0.3735 0.06936 0.40339 0.0
O107 O 0.44231 0.03865 0.18821 0.0
O108 O 0.34532 0.04507 0.27085 0.0
C109 C 0.46193 0.03012 0.41763 0.0
C110 C 0.34711 0.04827 0.21429 0.0
O111 O 0.70376 0.99895 0.25866 0.0
loop_
_geom_bond_atom_site_label_1
_geom_bond_atom_site_label_2
_geom_bond_distance
_geom_bond_site_symmetry_2
_ccdc_geom_bond_type
Mg0 O1 2.028 . S
Mg0 O7 1.986 . S
Mg0 O9 2.114 . S
Mg0 O10 2.251 . S
Mg0 O13 2.010 1_455 S
O1 Mg0 2.028 . S
O1 C4 1.250 . S
O2 Mg3 2.028 . S
O2 C4 1.248 . S
Mg3 O2 2.028 . S
Mg3 O8 2.032 . S
Mg3 O10 2.079 . S
C4 O1 1.250 . S
C4 O2 1.248 . S
C5 O6 1.264 . S
C5 O13 1.249 1_565 S
O6 C5 1.264 . S
O7 Mg0 1.986 . S
O7 C11 1.246 . S
O8 Mg3 2.032 . S
O8 C11 1.259 . S
O9 Mg0 2.114 . S
O9 C12 1.252 . S
O10 Mg0 2.251 . S
O10 Mg3 2.079 . S
O10 C12 1.273 . S
C11 O7 1.246 . S
C11 O8 1.259 . S
C12 O9 1.252 . S
C12 O10 1.273 . S
O13 Mg0 2.010 1_655 S
O13 C5 1.249 1_545 S
Mg14 O15 2.028 . S
Mg14 O21 1.986 . S
Mg14 O23 2.114 1_455 S
Mg14 O24 2.251 1_455 S
Mg14 O27 2.010 . S
O15 Mg14 2.028 . S
O15 C18 1.250 1_455 S
O16 Mg17 2.028 . S
O16 C18 1.248 . S
Mg17 O16 2.028 . S
Mg17 O22 2.032 . S
Mg17 O24 2.079 . S
C18 O15 1.250 1_655 S
C18 O16 1.248 . S
C19 O20 1.264 . S
C19 O27 1.249 . S
O20 C19 1.264 . S
O21 Mg14 1.986 . S
O21 C25 1.246 1_455 S
O22 Mg17 2.032 . S
O22 C25 1.259 . S
O23 Mg14 2.114 1_655 S
O23 C26 1.252 . S
O24 Mg14 2.251 1_655 S
O24 Mg17 2.079 . S
O24 C26 1.273 . S
C25 O21 1.246 1_655 S
C25 O22 1.259 . S
C26 O23 1.252 . S
C26 O24 1.273 . S
O27 Mg14 2.010 . S
O27 C19 1.249 . S
Mg28 O29 2.028 . S
Mg28 O35 1.986 . S
Mg28 O37 2.114 . S
Mg28 O38 2.251 . S
Mg28 O41 2.010 1_455 S
O29 Mg28 2.028 . S
O29 C32 1.250 . S
O30 Mg31 2.028 . S
O30 C32 1.248 . S
Mg31 O30 2.028 . S
Mg31 O36 2.032 . S
Mg31 O38 2.079 . S
C32 O29 1.250 . S
C32 O30 1.248 . S
C33 O34 1.264 . S
C33 O41 1.249 1_545 S
O34 C33 1.264 . S
O35 Mg28 1.986 . S
O35 C39 1.246 . S
O36 Mg31 2.032 . S
O36 C39 1.259 . S
O37 Mg28 2.114 . S
O37 C40 1.252 . S
O38 Mg28 2.251 . S
O38 Mg31 2.079 . S
O38 C40 1.273 . S
C39 O35 1.246 . S
C39 O36 1.259 . S
C40 O37 1.252 . S
C40 O38 1.273 . S
O41 Mg28 2.010 1_655 S
O41 C33 1.249 1_565 S
Mg42 O43 2.028 . S
Mg42 O49 1.986 . S
Mg42 O51 2.114 1_455 S
Mg42 O52 2.251 1_455 S
Mg42 O55 2.010 . S
O43 Mg42 2.028 . S
O43 C46 1.250 1_455 S
O44 Mg45 2.028 . S
O44 C46 1.248 . S
Mg45 O44 2.028 . S
Mg45 O50 2.032 . S
Mg45 O52 2.079 . S
C46 O43 1.250 1_655 S
C46 O44 1.248 . S
C47 O48 1.264 . S
C47 O55 1.249 . S
O48 C47 1.264 . S
O49 Mg42 1.986 . S
O49 C53 1.246 1_455 S
O50 Mg45 2.032 . S
O50 C53 1.259 . S
O51 Mg42 2.114 1_655 S
O51 C54 1.252 . S
O52 Mg42 2.251 1_655 S
O52 Mg45 2.079 . S
O52 C54 1.273 . S
C53 O49 1.246 1_655 S
C53 O50 1.259 . S
C54 O51 1.252 . S
C54 O52 1.273 . S
O55 Mg42 2.010 . S
O55 C47 1.249 . S
Mg56 O57 2.028 . S
Mg56 O63 1.986 . S
Mg56 O65 2.114 . S
Mg56 O66 2.251 . S
Mg56 O69 2.010 . S
O57 Mg56 2.028 . S
O57 C60 1.250 . S
O58 Mg59 2.028 . S
O58 C60 1.248 . S
Mg59 O58 2.028 . S
Mg59 O64 2.032 . S
Mg59 O66 2.079 . S
C60 O57 1.250 . S
C60 O58 1.248 . S
C61 O62 1.264 . S
C61 O69 1.249 . S
O62 C61 1.264 . S
O63 Mg56 1.986 . S
O63 C67 1.246 . S
O64 Mg59 2.032 . S
O64 C67 1.259 . S
O65 Mg56 2.114 . S
O65 C68 1.252 . S
O66 Mg56 2.251 . S
O66 Mg59 2.079 . S
O66 C68 1.273 . S
C67 O63 1.246 . S
C67 O64 1.259 . S
C68 O65 1.252 . S
C68 O66 1.273 . S
O69 Mg56 2.010 . S
O69 C61 1.249 . S
Mg70 O71 2.028 . S
Mg70 O77 1.986 . S
Mg70 O79 2.114 . S
Mg70 O80 2.251 . S
Mg70 O83 2.010 . S
O71 Mg70 2.028 . S
O71 C74 1.250 . S
O72 Mg73 2.028 . S
O72 C74 1.248 . S
Mg73 O72 2.028 . S
Mg73 O78 2.032 . S
Mg73 O80 2.079 . S
C74 O71 1.250 . S
C74 O72 1.248 . S
C75 O76 1.264 . S
C75 O83 1.249 1_545 S
O76 C75 1.264 . S
O77 Mg70 1.986 . S
O77 C81 1.246 . S
O78 Mg73 2.032 . S
O78 C81 1.259 . S
O79 Mg70 2.114 . S
O79 C82 1.252 . S
O80 Mg70 2.251 . S
O80 Mg73 2.079 . S
O80 C82 1.273 . S
C81 O77 1.246 . S
C81 O78 1.259 . S
C82 O79 1.252 . S
C82 O80 1.273 . S
O83 Mg70 2.010 . S
O83 C75 1.249 1_565 S
Mg84 O85 2.028 . S
Mg84 O91 1.986 . S
Mg84 O93 2.114 . S
Mg84 O94 2.251 . S
Mg84 O97 2.010 . S
O85 Mg84 2.028 . S
O85 C88 1.250 . S
O86 Mg87 2.028 . S
O86 C88 1.248 . S
Mg87 O86 2.028 . S
Mg87 O92 2.032 . S
Mg87 O94 2.079 . S
C88 O85 1.250 . S
C88 O86 1.248 . S
C89 O90 1.264 . S
C89 O97 1.249 . S
O90 C89 1.264 . S
O91 Mg84 1.986 . S
O91 C95 1.246 . S
O92 Mg87 2.032 . S
O92 C95 1.259 . S
O93 Mg84 2.114 . S
O93 C96 1.252 . S
O94 Mg84 2.251 . S
O94 Mg87 2.079 . S
O94 C96 1.273 . S
C95 O91 1.246 . S
C95 O92 1.259 . S
C96 O93 1.252 . S
C96 O94 1.273 . S
O97 Mg84 2.010 . S
O97 C89 1.249 . S
Mg98 O99 2.028 . S
Mg98 O105 1.986 . S
Mg98 O107 2.114 . S
Mg98 O108 2.251 . S
Mg98 O111 2.010 . S
O99 Mg98 2.028 . S
O99 C102 1.250 . S
O100 Mg101 2.028 . S
O100 C102 1.248 . S
Mg101 O100 2.028 . S
Mg101 O106 2.032 . S
Mg101 O108 2.079 . S
C102 O99 1.250 . S
C102 O100 1.248 . S
C103 O104 1.264 . S
C103 O111 1.249 1_565 S
O104 C103 1.264 . S
O105 Mg98 1.986 . S
O105 C109 1.246 . S
O106 Mg101 2.032 . S
O106 C109 1.259 . S
O107 Mg98 2.114 . S
O107 C110 1.252 . S
O108 Mg98 2.251 . S
O108 Mg101 2.079 . S
O108 C110 1.273 . S
C109 O105 1.246 . S
C109 O106 1.259 . S
C110 O107 1.252 . S
C110 O108 1.273 . S
O111 Mg98 2.010 . S
O111 C103 1.249 1_545 S
C18 C4 1.636 1_655 S
C32 C46 1.636 1_455 S
C60 C74 1.636 . S
C88 C102 1.636 . S
C110 C12 1.586 . S
C96 C26 1.586 . S
C40 C82 1.586 . S
C68 C54 1.586 . S
C75 C33 0.972 . S
C61 C47 0.972 . S
C103 C5 0.972 . S
C19 C89 0.972 . S
C11 C39 1.292 1_544 S
C53 C25 1.292 1_556 S
C95 C67 1.292 . S
C81 C109 1.292 1_565 S
