# Generated by pormake.
# Topology uog, (4)-cn, num edge types: 1
# Building blocks:
#     Node 0, Type 0, BuildingBlock: MUDLON_clean_sbu_0, # of connection points: 4
#     Node 1, Type 0, BuildingBlock: MUDLON_clean_sbu_0, # of connection points: 4
#     Node 2, Type 0, BuildingBlock: MUDLON_clean_sbu_0, # of connection points: 4
#     Node 3, Type 0, BuildingBlock: MUDLON_clean_sbu_0, # of connection points: 4
#     Node 4, Type 0, BuildingBlock: MUDLON_clean_sbu_0, # of connection points: 4
#     Node 5, Type 0, BuildingBlock: MUDLON_clean_sbu_0, # of connection points: 4
#     Edge 6, Type (0, 0), None
#     Edge 7, Type (0, 0), None
#     Edge 8, Type (0, 0), None
#     Edge 9, Type (0, 0), None
#     Edge 10, Type (0, 0), None
#     Edge 11, Type (0, 0), None
#     Edge 12, Type (0, 0), None
#     Edge 13, Type (0, 0), None
#     Edge 14, Type (0, 0), None
#     Edge 15, Type (0, 0), None
#     Edge 16, Type (0, 0), None
#     Edge 17, Type (0, 0), None
# Relax obj value: 0.035
# Max RMSD: 0.253
# Mean RMSD: 0.253
data_MOF--net-uog--node1-MUDLON_clean_sbu_0--edge1-none
_symmetry_space_group_name_H-M    P1
_symmetry_Int_Tables_number       1
_symmetry_cell_setting            triclinic
loop_
_symmetry_equiv_pos_as_xyz
'x, y, z'
_cell_length_a     14.134794
_cell_length_b     14.135231
_cell_length_c     21.190988
_cell_angle_alpha  89.999799
_cell_angle_beta   89.999743
_cell_angle_gamma 120.00182
loop_
_atom_site_label
_atom_site_type_symbol
_atom_site_fract_x
_atom_site_fract_y
_atom_site_fract_z
_atom_type_partial_charge
Mg0 Mg 0.586 0.29354 0.17892 0.0
C1 C 0.64233 0.33313 0.04198 0.0
O2 O 0.54565 0.32503 0.04123 0.0
C3 C 0.64233 0.31031 0.31586 0.0
O4 O 0.54562 0.22177 0.31661 0.0
C5 C 0.535 0.06201 0.18719 0.0
O6 O 0.6422 0.11255 0.18591 0.0
O7 O 0.48675 0.11747 0.18574 0.0
O8 O 0.68333 0.32737 0.09422 0.0
O9 O 0.48675 0.37037 0.17212 0.0
C10 C 0.535 0.47408 0.17066 0.0
O11 O 0.6422 0.53075 0.17194 0.0
O12 O 0.68334 0.35705 0.26362 0.0
Mg13 Mg 0.29466 0.58491 0.51226 0.0
C14 C 0.31141 0.64125 0.37531 0.0
O15 O 0.22282 0.54457 0.37456 0.0
C16 C 0.33423 0.64124 0.64919 0.0
O17 O 0.32607 0.54454 0.64994 0.0
C18 C 0.47518 0.5339 0.52053 0.0
O19 O 0.53185 0.6411 0.51925 0.0
O20 O 0.37147 0.48565 0.51907 0.0
O21 O 0.35817 0.68223 0.42755 0.0
O22 O 0.11858 0.48566 0.50545 0.0
C23 C 0.06312 0.5339 0.50399 0.0
O24 O 0.11365 0.6411 0.50527 0.0
O25 O 0.3285 0.68225 0.59695 0.0
Mg26 Mg 0.71194 0.29355 0.84559 0.0
C27 C 0.67235 0.3103 0.70865 0.0
O28 O 0.68044 0.22172 0.7079 0.0
C29 C 0.69518 0.33312 0.98253 0.0
O30 O 0.78375 0.32499 0.98328 0.0
C31 C 0.94348 0.47408 0.85386 0.0
O32 O 0.89295 0.53074 0.85259 0.0
O33 O 0.88801 0.37037 0.8524 0.0
O34 O 0.67812 0.35706 0.76089 0.0
O35 O 0.63513 0.11748 0.83878 0.0
C36 C 0.53141 0.06201 0.83732 0.0
O37 O 0.47474 0.11254 0.8386 0.0
O38 O 0.64844 0.32738 0.93029 0.0
Mg39 Mg 0.42061 0.71085 0.17892 0.0
C40 C 0.36426 0.67126 0.04198 0.0
O41 O 0.46094 0.67936 0.04123 0.0
C42 C 0.36428 0.69409 0.31586 0.0
O43 O 0.46098 0.78264 0.31661 0.0
C44 C 0.47161 0.94238 0.18719 0.0
O45 O 0.3644 0.89184 0.18592 0.0
O46 O 0.51986 0.88692 0.18573 0.0
O47 O 0.32327 0.67702 0.09422 0.0
O48 O 0.51985 0.63403 0.17211 0.0
C49 C 0.4716 0.53031 0.17066 0.0
O50 O 0.3644 0.47365 0.17194 0.0
O51 O 0.32326 0.64735 0.26362 0.0
Mg52 Mg 0.71194 0.4195 0.51225 0.0
C53 C 0.6952 0.36316 0.37531 0.0
O54 O 0.78379 0.45983 0.37456 0.0
C55 C 0.67237 0.36316 0.64919 0.0
O56 O 0.68051 0.45986 0.64995 0.0
C57 C 0.53142 0.4705 0.52053 0.0
O58 O 0.47475 0.3633 0.51926 0.0
O59 O 0.63513 0.51875 0.51907 0.0
O60 O 0.64843 0.32217 0.42755 0.0
O61 O 0.88802 0.51875 0.50545 0.0
C62 C 0.94348 0.4705 0.504 0.0
O63 O 0.89295 0.3633 0.50527 0.0
O64 O 0.6781 0.32216 0.59695 0.0
Mg65 Mg 0.29465 0.71084 0.84559 0.0
C66 C 0.33425 0.6941 0.70865 0.0
O67 O 0.32617 0.78269 0.70789 0.0
C68 C 0.31141 0.67127 0.98253 0.0
O69 O 0.22285 0.6794 0.98328 0.0
C70 C 0.06311 0.53031 0.85386 0.0
O71 O 0.11365 0.47365 0.85259 0.0
O72 O 0.11858 0.63403 0.85241 0.0
O73 O 0.32847 0.64734 0.76089 0.0
O74 O 0.37147 0.88691 0.83878 0.0
C75 C 0.47518 0.94238 0.83733 0.0
O76 O 0.53185 0.89186 0.8386 0.0
O77 O 0.35816 0.67701 0.93028 0.0
loop_
_geom_bond_atom_site_label_1
_geom_bond_atom_site_label_2
_geom_bond_distance
_geom_bond_site_symmetry_2
_ccdc_geom_bond_type
Mg0 O7 2.141 . S
Mg0 O8 2.048 . S
Mg0 O9 2.048 . S
Mg0 O12 2.141 . S
C1 O2 1.313 . S
C1 O8 1.195 . S
O2 C1 1.313 . S
C3 O4 1.245 . S
C3 O12 1.289 . S
O4 C3 1.245 . S
C5 O6 1.245 . S
C5 O7 1.289 . S
O6 C5 1.245 . S
O7 Mg0 2.141 . S
O7 C5 1.289 . S
O8 Mg0 2.048 . S
O8 C1 1.195 . S
O9 Mg0 2.048 . S
O9 C10 1.195 . S
C10 O9 1.195 . S
C10 O11 1.313 . S
O11 C10 1.313 . S
O12 Mg0 2.141 . S
O12 C3 1.289 . S
Mg13 O20 2.141 . S
Mg13 O21 2.048 . S
Mg13 O22 2.048 . S
Mg13 O25 2.141 . S
C14 O15 1.313 . S
C14 O21 1.195 . S
O15 C14 1.313 . S
C16 O17 1.245 . S
C16 O25 1.289 . S
O17 C16 1.245 . S
C18 O19 1.245 . S
C18 O20 1.289 . S
O19 C18 1.245 . S
O20 Mg13 2.141 . S
O20 C18 1.289 . S
O21 Mg13 2.048 . S
O21 C14 1.195 . S
O22 Mg13 2.048 . S
O22 C23 1.195 . S
C23 O22 1.195 . S
C23 O24 1.313 . S
O24 C23 1.313 . S
O25 Mg13 2.141 . S
O25 C16 1.289 . S
Mg26 O33 2.141 . S
Mg26 O34 2.048 . S
Mg26 O35 2.048 . S
Mg26 O38 2.141 . S
C27 O28 1.313 . S
C27 O34 1.195 . S
O28 C27 1.313 . S
C29 O30 1.245 . S
C29 O38 1.289 . S
O30 C29 1.245 . S
C31 O32 1.245 . S
C31 O33 1.289 . S
O32 C31 1.245 . S
O33 Mg26 2.141 . S
O33 C31 1.289 . S
O34 Mg26 2.048 . S
O34 C27 1.195 . S
O35 Mg26 2.048 . S
O35 C36 1.195 . S
C36 O35 1.195 . S
C36 O37 1.313 . S
O37 C36 1.313 . S
O38 Mg26 2.141 . S
O38 C29 1.289 . S
Mg39 O46 2.141 . S
Mg39 O47 2.048 . S
Mg39 O48 2.048 . S
Mg39 O51 2.141 . S
C40 O41 1.313 . S
C40 O47 1.195 . S
O41 C40 1.313 . S
C42 O43 1.245 . S
C42 O51 1.289 . S
O43 C42 1.245 . S
C44 O45 1.245 . S
C44 O46 1.289 . S
O45 C44 1.245 . S
O46 Mg39 2.141 . S
O46 C44 1.289 . S
O47 Mg39 2.048 . S
O47 C40 1.195 . S
O48 Mg39 2.048 . S
O48 C49 1.195 . S
C49 O48 1.195 . S
C49 O50 1.313 . S
O50 C49 1.313 . S
O51 Mg39 2.141 . S
O51 C42 1.289 . S
Mg52 O59 2.141 . S
Mg52 O60 2.048 . S
Mg52 O61 2.048 . S
Mg52 O64 2.141 . S
C53 O54 1.313 . S
C53 O60 1.195 . S
O54 C53 1.313 . S
C55 O56 1.245 . S
C55 O64 1.289 . S
O56 C55 1.245 . S
C57 O58 1.245 . S
C57 O59 1.289 . S
O58 C57 1.245 . S
O59 Mg52 2.141 . S
O59 C57 1.289 . S
O60 Mg52 2.048 . S
O60 C53 1.195 . S
O61 Mg52 2.048 . S
O61 C62 1.195 . S
C62 O61 1.195 . S
C62 O63 1.313 . S
O63 C62 1.313 . S
O64 Mg52 2.141 . S
O64 C55 1.289 . S
Mg65 O72 2.141 . S
Mg65 O73 2.048 . S
Mg65 O74 2.048 . S
Mg65 O77 2.141 . S
C66 O67 1.313 . S
C66 O73 1.195 . S
O67 C66 1.313 . S
C68 O69 1.245 . S
C68 O77 1.289 . S
O69 C68 1.245 . S
C70 O71 1.245 . S
C70 O72 1.289 . S
O71 C70 1.245 . S
O72 Mg65 2.141 . S
O72 C70 1.289 . S
O73 Mg65 2.048 . S
O73 C66 1.195 . S
O74 Mg65 2.048 . S
O74 C75 1.195 . S
C75 O74 1.195 . S
C75 O76 1.313 . S
O76 C75 1.313 . S
O77 Mg65 2.141 . S
O77 C68 1.289 . S
C5 C44 2.959 1_545 S
C18 C57 2.959 . S
C31 C70 2.959 1_655 S
C23 C62 2.976 1_455 S
C75 C36 2.976 1_565 S
C49 C10 2.976 . S
C29 C1 1.767 1_556 S
C42 C14 1.767 . S
C27 C55 1.767 . S
C68 C40 1.767 1_556 S
C53 C3 1.767 . S
C66 C16 1.767 . S
