# Generated by pormake.
# Topology uni, (4)-cn, num edge types: 1
# Building blocks:
#     Node 0, Type 0, BuildingBlock: AZAVOO_clean_sbu_0, # of connection points: 4
#     Node 1, Type 0, BuildingBlock: AZAVOO_clean_sbu_0, # of connection points: 4
#     Node 2, Type 0, BuildingBlock: AZAVOO_clean_sbu_0, # of connection points: 4
#     Node 3, Type 0, BuildingBlock: AZAVOO_clean_sbu_0, # of connection points: 4
#     Node 4, Type 0, BuildingBlock: AZAVOO_clean_sbu_0, # of connection points: 4
#     Node 5, Type 0, BuildingBlock: AZAVOO_clean_sbu_0, # of connection points: 4
#     Edge 6, Type (0, 0), BuildingBlock: EYOCIG_clean_linker_4, # of connection points: 2
#     Edge 7, Type (0, 0), BuildingBlock: EYOCIG_clean_linker_4, # of connection points: 2
#     Edge 8, Type (0, 0), BuildingBlock: EYOCIG_clean_linker_4, # of connection points: 2
#     Edge 9, Type (0, 0), BuildingBlock: EYOCIG_clean_linker_4, # of connection points: 2
#     Edge 10, Type (0, 0), BuildingBlock: EYOCIG_clean_linker_4, # of connection points: 2
#     Edge 11, Type (0, 0), BuildingBlock: EYOCIG_clean_linker_4, # of connection points: 2
#     Edge 12, Type (0, 0), BuildingBlock: EYOCIG_clean_linker_4, # of connection points: 2
#     Edge 13, Type (0, 0), BuildingBlock: EYOCIG_clean_linker_4, # of connection points: 2
#     Edge 14, Type (0, 0), BuildingBlock: EYOCIG_clean_linker_4, # of connection points: 2
#     Edge 15, Type (0, 0), BuildingBlock: EYOCIG_clean_linker_4, # of connection points: 2
#     Edge 16, Type (0, 0), BuildingBlock: EYOCIG_clean_linker_4, # of connection points: 2
#     Edge 17, Type (0, 0), BuildingBlock: EYOCIG_clean_linker_4, # of connection points: 2
# Relax obj value: 0.052
# Max RMSD: 0.094
# Mean RMSD: 0.094
data_MOF--net-uni--node1-AZAVOO_clean_sbu_0--edge1-EYOCIG_clean_linker_4
_symmetry_space_group_name_H-M    P1
_symmetry_Int_Tables_number       1
_symmetry_cell_setting            triclinic
loop_
_symmetry_equiv_pos_as_xyz
'x, y, z'
_cell_length_a     32.838222
_cell_length_b     32.858218
_cell_length_c     17.041468
_cell_angle_alpha  90.002493
_cell_angle_beta   90.048658
_cell_angle_gamma 119.96046
loop_
_atom_site_label
_atom_site_type_symbol
_atom_site_fract_x
_atom_site_fract_y
_atom_site_fract_z
_atom_type_partial_charge
Mg0 Mg 0.61658 0.97755 0.03815 0.0
O1 O 0.58386 -0.00105 0.13703 0.0
O2 O 0.5742 0.05767 0.09247 0.0
Mg3 Mg 0.59866 0.07218 0.96423 0.0
C4 C 0.57105 0.02939 0.14649 0.0
C5 C 0.62809 0.8968 0.0958 0.0
O6 O 0.61657 0.88697 0.02164 0.0
O7 O 0.68803 0.04367 0.05652 0.0
O8 O 0.67529 0.09811 1.00049 0.0
O9 O 0.5451 0.92643 0.99126 0.0
O10 O 0.58685 0.00047 0.95313 0.0
C11 C 0.70227 0.08561 0.03332 0.0
C12 C 0.54872 0.96065 0.94866 0.0
O13 O 0.6327 0.93449 0.12461 0.0
Mg14 Mg 0.63031 0.61331 0.20452 0.0
O15 O 0.57584 0.58014 0.30273 0.0
O16 O 0.50759 0.57069 0.25763 0.0
Mg17 Mg 0.518 0.59572 0.12967 0.0
C18 C 0.53255 0.5673 0.31179 0.0
C19 C 0.72363 0.62718 0.26207 0.0
O20 O 0.72345 0.61844 0.1869 0.0
O21 O 0.63542 0.68459 0.22357 0.0
O22 O 0.56843 0.67213 0.16697 0.0
O23 O 0.61029 0.5421 0.1569 0.0
O24 O 0.57799 0.58395 0.1189 0.0
C25 C 0.60777 0.69894 0.20033 0.0
C26 C 0.57978 0.54587 0.11415 0.0
O27 O 0.68916 0.62908 0.29158 0.0
Mg28 Mg 0.00853 0.62743 0.37003 0.0
O29 O -0.01278 0.57305 0.46844 0.0
O30 O 0.92803 0.50502 0.42378 0.0
Mg31 Mg 0.91312 0.51544 0.29594 0.0
C32 C 0.95661 0.52987 0.47772 0.0
C33 C 0.08818 0.72082 0.42677 0.0
O34 O 0.09618 0.72083 0.35133 0.0
O35 O 0.94272 0.6332 0.3896 0.0
O36 O 0.88776 0.56637 0.33345 0.0
O37 O 0.05921 0.60679 0.32208 0.0
O38 O -0.01499 0.57498 0.28462 0.0
C39 C 0.90063 0.60579 0.36669 0.0
C40 C 0.02472 0.5764 0.27963 0.0
O41 O 0.05215 0.68623 0.4567 0.0
Mg42 Mg 0.37278 0.00529 0.53803 0.0
O43 O 0.4054 -0.01635 0.63684 0.0
O44 O 0.41474 0.92477 0.59214 0.0
Mg45 Mg 0.39017 0.91039 0.46386 0.0
C46 C 0.41804 0.95308 0.64623 0.0
C47 C 0.36015 0.08544 0.59542 0.0
O48 O 0.37026 0.09462 0.52074 0.0
O49 O 0.30122 0.93935 0.55622 0.0
O50 O 0.31363 0.88473 0.50007 0.0
O51 O 0.4443 0.05623 0.49132 0.0
O52 O 0.4023 -0.01778 0.45296 0.0
C53 C 0.28679 0.89739 0.53293 0.0
C54 C 0.44052 0.02196 0.44863 0.0
O55 O 0.3569 0.04842 0.62465 0.0
Mg56 Mg 0.3588 0.36935 0.70434 0.0
O57 O 0.41338 0.40239 0.80262 0.0
O58 O 0.48148 0.41152 0.75764 0.0
Mg59 Mg 0.4709 0.38643 0.62967 0.0
C60 C 0.45663 0.41506 0.81175 0.0
C61 C 0.26606 0.35677 0.76205 0.0
O62 O 0.26666 0.36641 0.6872 0.0
O63 O 0.35339 0.29793 0.72342 0.0
O64 O 0.42025 0.3101 0.66695 0.0
O65 O 0.37909 0.44061 0.65671 0.0
O66 O 0.41109 0.39849 0.6188 0.0
C67 C 0.3809 0.28342 0.70024 0.0
C68 C 0.40948 0.43666 0.61402 0.0
O69 O 0.30005 0.35384 0.79129 0.0
Mg70 Mg -0.01938 0.35535 0.86966 0.0
O71 O 0.0017 0.40963 0.96826 0.0
O72 O 0.06065 0.47784 0.92386 0.0
Mg73 Mg 0.07565 0.46762 0.79602 0.0
C74 C 0.03214 0.45285 0.9777 0.0
C75 C 0.9001 0.26276 0.92695 0.0
O76 O 0.89085 0.26372 0.85227 0.0
O77 O 0.04668 0.34998 0.88928 0.0
O78 O 0.1014 0.41697 0.83342 0.0
O79 O 0.92968 0.3757 0.82168 0.0
O80 O 0.00391 0.40784 0.78443 0.0
C81 C 0.08874 0.37757 0.86652 0.0
C82 C 0.9641 0.40621 0.77937 0.0
O83 O 0.93725 0.29641 0.95616 0.0
C84 C 0.5307 0.03114 0.27952 0.0
C85 C 0.54922 0.02978 0.21925 0.0
C86 C 0.5038 0.03069 0.34449 0.0
C87 C 0.47614 0.02866 0.39302 0.0
C88 C 0.49017 0.52656 0.4444 0.0
C89 C 0.51013 0.54524 0.38429 0.0
C90 C 0.46376 0.49964 0.50936 0.0
C91 C 0.43828 0.47209 0.55809 0.0
C92 C 0.95555 0.46081 0.67501 0.0
C93 C 0.95756 0.43518 0.72357 0.0
C94 C 0.95506 0.48738 0.61022 0.0
C95 C 0.95632 0.50742 0.55018 0.0
C96 C 0.48533 0.9517 0.84435 0.0
C97 C 0.51304 0.95383 0.89296 0.0
C98 C 0.45841 0.95122 0.7793 0.0
C99 C 0.43989 0.9526 0.71899 0.0
C100 C 0.52557 0.48275 0.00943 0.0
C101 C 0.55104 0.51035 0.0582 0.0
C102 C 0.49915 0.45579 0.94442 0.0
C103 C 0.47915 0.43712 0.88427 0.0
C104 C 0.03353 0.49519 0.1103 0.0
C105 C 0.03232 0.4752 0.05023 0.0
C106 C 0.03304 0.52172 0.17514 0.0
C107 C 0.03109 0.54737 0.22375 0.0
C108 C 0.62991 0.78765 0.19683 0.0
C109 C 0.62339 0.74825 0.20209 0.0
C110 C 0.63308 0.83052 0.1745 0.0
C111 C 0.63177 0.86299 0.14413 0.0
C112 C 0.83436 0.62844 0.36348 0.0
C113 C 0.86717 0.62176 0.36867 0.0
C114 C 0.79466 0.63167 0.34108 0.0
C115 C 0.76087 0.63032 0.31056 0.0
C116 C 0.15506 0.7916 0.50557 0.0
C117 C 0.12256 0.75794 0.47501 0.0
C118 C 0.19795 0.83115 0.52832 0.0
C119 C 0.23741 0.86389 0.53406 0.0
C120 C 0.35856 0.19466 0.6967 0.0
C121 C 0.36513 0.23408 0.70202 0.0
C122 C 0.35539 0.15181 0.67426 0.0
C123 C 0.35673 0.11938 0.64379 0.0
C124 C 0.15529 0.35531 0.86332 0.0
C125 C 0.12238 0.36184 0.86846 0.0
C126 C 0.19503 0.35217 0.84098 0.0
C127 C 0.22879 0.35348 0.81051 0.0
C128 C 0.83378 0.19176 0.00593 0.0
C129 C 0.86617 0.22545 0.97532 0.0
C130 C 0.791 0.15212 0.02871 0.0
C131 C 0.75162 0.11926 0.03447 0.0
loop_
_geom_bond_atom_site_label_1
_geom_bond_atom_site_label_2
_geom_bond_distance
_geom_bond_site_symmetry_2
_ccdc_geom_bond_type
Mg0 O1 2.025 . S
Mg0 O7 1.980 1_565 S
Mg0 O9 2.115 1_554 S
Mg0 O10 2.239 1_564 S
Mg0 O13 2.024 . S
O1 Mg0 2.025 . S
O1 C4 1.250 1_565 S
O2 Mg3 2.028 . S
O2 C4 1.248 . S
Mg3 O2 2.028 . S
Mg3 O8 2.032 . S
Mg3 O10 2.079 1_554 S
C4 O1 1.250 1_545 S
C4 O2 1.248 . S
C5 O6 1.264 . S
C5 O13 1.249 . S
O6 C5 1.264 . S
O7 Mg0 1.980 1_545 S
O7 C11 1.246 . S
O8 Mg3 2.032 . S
O8 C11 1.259 . S
O9 Mg0 2.115 1_556 S
O9 C12 1.252 . S
O10 Mg0 2.239 1_546 S
O10 Mg3 2.079 1_556 S
O10 C12 1.273 1_545 S
C11 O7 1.246 . S
C11 O8 1.259 . S
C12 O9 1.252 . S
C12 O10 1.273 1_565 S
O13 Mg0 2.024 . S
O13 C5 1.249 . S
Mg14 O15 2.028 . S
Mg14 O21 1.986 . S
Mg14 O23 2.114 . S
Mg14 O24 2.251 . S
Mg14 O27 2.010 . S
O15 Mg14 2.028 . S
O15 C18 1.250 . S
O16 Mg17 2.028 . S
O16 C18 1.248 . S
Mg17 O16 2.028 . S
Mg17 O22 2.032 . S
Mg17 O24 2.079 . S
C18 O15 1.250 . S
C18 O16 1.248 . S
C19 O20 1.264 . S
C19 O27 1.249 . S
O20 C19 1.264 . S
O21 Mg14 1.986 . S
O21 C25 1.246 . S
O22 Mg17 2.032 . S
O22 C25 1.259 . S
O23 Mg14 2.114 . S
O23 C26 1.252 . S
O24 Mg14 2.251 . S
O24 Mg17 2.079 . S
O24 C26 1.273 . S
C25 O21 1.246 . S
C25 O22 1.259 . S
C26 O23 1.252 . S
C26 O24 1.273 . S
O27 Mg14 2.010 . S
O27 C19 1.249 . S
Mg28 O29 2.028 . S
Mg28 O35 1.986 1_455 S
Mg28 O37 2.114 . S
Mg28 O38 2.251 1_455 S
Mg28 O41 2.010 . S
O29 Mg28 2.028 . S
O29 C32 1.250 . S
O30 Mg31 2.028 . S
O30 C32 1.248 1_655 S
Mg31 O30 2.028 . S
Mg31 O36 2.032 . S
Mg31 O38 2.079 . S
C32 O29 1.250 . S
C32 O30 1.248 1_455 S
C33 O34 1.264 . S
C33 O41 1.249 . S
O34 C33 1.264 . S
O35 Mg28 1.986 1_655 S
O35 C39 1.246 . S
O36 Mg31 2.032 . S
O36 C39 1.259 . S
O37 Mg28 2.114 . S
O37 C40 1.252 . S
O38 Mg28 2.251 1_655 S
O38 Mg31 2.079 . S
O38 C40 1.273 1_655 S
C39 O35 1.246 . S
C39 O36 1.259 . S
C40 O37 1.252 . S
C40 O38 1.273 1_455 S
O41 Mg28 2.010 . S
O41 C33 1.249 . S
Mg42 O43 2.028 . S
Mg42 O49 1.986 1_545 S
Mg42 O51 2.114 . S
Mg42 O52 2.251 1_545 S
Mg42 O55 2.010 . S
O43 Mg42 2.028 . S
O43 C46 1.250 1_545 S
O44 Mg45 2.028 . S
O44 C46 1.248 . S
Mg45 O44 2.028 . S
Mg45 O50 2.032 . S
Mg45 O52 2.079 . S
C46 O43 1.250 1_565 S
C46 O44 1.248 . S
C47 O48 1.264 . S
C47 O55 1.249 . S
O48 C47 1.264 . S
O49 Mg42 1.986 1_565 S
O49 C53 1.246 . S
O50 Mg45 2.032 . S
O50 C53 1.259 . S
O51 Mg42 2.114 . S
O51 C54 1.252 . S
O52 Mg42 2.251 1_565 S
O52 Mg45 2.079 . S
O52 C54 1.273 1_565 S
C53 O49 1.246 . S
C53 O50 1.259 . S
C54 O51 1.252 . S
C54 O52 1.273 1_545 S
O55 Mg42 2.010 . S
O55 C47 1.249 . S
Mg56 O57 2.028 . S
Mg56 O63 1.986 . S
Mg56 O65 2.114 . S
Mg56 O66 2.251 . S
Mg56 O69 2.010 . S
O57 Mg56 2.028 . S
O57 C60 1.250 . S
O58 Mg59 2.028 . S
O58 C60 1.248 . S
Mg59 O58 2.028 . S
Mg59 O64 2.032 . S
Mg59 O66 2.079 . S
C60 O57 1.250 . S
C60 O58 1.248 . S
C61 O62 1.264 . S
C61 O69 1.249 . S
O62 C61 1.264 . S
O63 Mg56 1.986 . S
O63 C67 1.246 . S
O64 Mg59 2.032 . S
O64 C67 1.259 . S
O65 Mg56 2.114 . S
O65 C68 1.252 . S
O66 Mg56 2.251 . S
O66 Mg59 2.079 . S
O66 C68 1.273 . S
C67 O63 1.246 . S
C67 O64 1.259 . S
C68 O65 1.252 . S
C68 O66 1.273 . S
O69 Mg56 2.010 . S
O69 C61 1.249 . S
Mg70 O71 2.028 . S
Mg70 O77 1.986 . S
Mg70 O79 2.114 1_455 S
Mg70 O80 2.251 . S
Mg70 O83 2.010 1_455 S
O71 Mg70 2.028 . S
O71 C74 1.250 . S
O72 Mg73 2.028 . S
O72 C74 1.248 . S
Mg73 O72 2.028 . S
Mg73 O78 2.032 . S
Mg73 O80 2.079 . S
C74 O71 1.250 . S
C74 O72 1.248 . S
C75 O76 1.264 . S
C75 O83 1.249 . S
O76 C75 1.264 . S
O77 Mg70 1.986 . S
O77 C81 1.246 . S
O78 Mg73 2.032 . S
O78 C81 1.259 . S
O79 Mg70 2.114 1_655 S
O79 C82 1.252 1_655 S
O80 Mg70 2.251 . S
O80 Mg73 2.079 . S
O80 C82 1.273 . S
C81 O77 1.246 . S
C81 O78 1.259 . S
C82 O79 1.252 1_455 S
C82 O80 1.273 . S
O83 Mg70 2.010 1_655 S
O83 C75 1.249 . S
C84 C85 1.170 . S
C84 C86 1.380 . S
C85 C84 1.170 . S
C86 C84 1.380 . S
C86 C87 1.170 . S
C87 C86 1.170 . S
C88 C89 1.170 . S
C88 C90 1.380 . S
C89 C88 1.170 . S
C90 C88 1.380 . S
C90 C91 1.170 . S
C91 C90 1.170 . S
C92 C93 1.170 . S
C92 C94 1.380 . S
C93 C92 1.170 . S
C94 C92 1.380 . S
C94 C95 1.170 . S
C95 C94 1.170 . S
C96 C97 1.170 . S
C96 C98 1.380 . S
C97 C96 1.170 . S
C98 C96 1.380 . S
C98 C99 1.170 . S
C99 C98 1.170 . S
C100 C101 1.170 1_556 S
C100 C102 1.380 . S
C101 C100 1.170 1_554 S
C102 C100 1.380 . S
C102 C103 1.170 . S
C103 C102 1.170 . S
C104 C105 1.170 . S
C104 C106 1.380 . S
C105 C104 1.170 . S
C106 C104 1.380 . S
C106 C107 1.170 . S
C107 C106 1.170 . S
C108 C109 1.170 . S
C108 C110 1.380 . S
C109 C108 1.170 . S
C110 C108 1.380 . S
C110 C111 1.170 . S
C111 C110 1.170 . S
C112 C113 1.170 . S
C112 C114 1.380 . S
C113 C112 1.170 . S
C114 C112 1.380 . S
C114 C115 1.170 . S
C115 C114 1.170 . S
C116 C117 1.170 . S
C116 C118 1.380 . S
C117 C116 1.170 . S
C118 C116 1.380 . S
C118 C119 1.170 . S
C119 C118 1.170 . S
C120 C121 1.170 . S
C120 C122 1.380 . S
C121 C120 1.170 . S
C122 C120 1.380 . S
C122 C123 1.170 . S
C123 C122 1.170 . S
C124 C125 1.170 . S
C124 C126 1.380 . S
C125 C124 1.170 . S
C126 C124 1.380 . S
C126 C127 1.170 . S
C127 C126 1.170 . S
C128 C129 1.170 . S
C128 C130 1.380 1_556 S
C129 C128 1.170 . S
C130 C128 1.380 1_554 S
C130 C131 1.170 . S
C131 C130 1.170 . S
C85 C4 1.373 . S
C87 C54 1.391 . S
C89 C18 1.348 . S
C91 C68 1.399 . S
C93 C82 1.399 . S
C95 C32 1.348 . S
C97 C12 1.395 . S
C99 C46 1.350 . S
C101 C26 1.399 . S
C103 C60 1.337 . S
C105 C74 1.358 1_554 S
C107 C40 1.397 . S
C109 C25 1.434 . S
C111 C5 1.337 . S
C113 C39 1.453 . S
C115 C19 1.320 . S
C117 C33 1.289 . S
C119 C53 1.421 . S
C121 C67 1.449 . S
C123 C47 1.353 . S
C125 C81 1.454 . S
C127 C61 1.352 . S
C129 C75 1.330 . S
C131 C11 1.430 . S
