# Generated by pormake.
# Topology sma, (6)-cn, num edge types: 1
# Building blocks:
#     Node 0, Type 0, BuildingBlock: UKALOJ_clean_sbu_0, # of connection points: 6
#     Node 1, Type 0, BuildingBlock: UKALOJ_clean_sbu_0, # of connection points: 6
#     Node 2, Type 0, BuildingBlock: UKALOJ_clean_sbu_0, # of connection points: 6
#     Edge 3, Type (0, 0), None
#     Edge 4, Type (0, 0), None
#     Edge 5, Type (0, 0), None
#     Edge 6, Type (0, 0), None
#     Edge 7, Type (0, 0), None
#     Edge 8, Type (0, 0), None
#     Edge 9, Type (0, 0), None
#     Edge 10, Type (0, 0), None
#     Edge 11, Type (0, 0), None
# Relax obj value: 0.926
# Max RMSD: 0.447
# Mean RMSD: 0.447
data_MOF--net-sma--node1-UKALOJ_clean_sbu_0--edge1-none
_symmetry_space_group_name_H-M    P1
_symmetry_Int_Tables_number       1
_symmetry_cell_setting            triclinic
loop_
_symmetry_equiv_pos_as_xyz
'x, y, z'
_cell_length_a     11.566439
_cell_length_b     11.563784
_cell_length_c     10.575039
_cell_angle_alpha  89.987065
_cell_angle_beta   89.999368
_cell_angle_gamma 119.94408
loop_
_atom_site_label
_atom_site_type_symbol
_atom_site_fract_x
_atom_site_fract_y
_atom_site_fract_z
_atom_type_partial_charge
Zn0 Zn 0.08977 0.56269 0.07811 0.0
O1 O 0.17383 0.73479 0.23551 0.0
C2 C 0.21899 0.43052 0.1075 0.0
Zn3 Zn 0.03436 0.52153 0.27089 0.0
C4 C 0.14112 0.76655 0.34053 0.0
O5 O 0.02558 0.68187 0.37595 0.0
C6 C 0.83467 0.30613 0.29119 0.0
O7 O 0.88202 0.52825 0.12459 0.0
O8 O 0.98818 0.63884 0.96212 0.0
N9 N 0.1153 0.48529 0.4231 0.0
C10 C 0.07809 0.48626 0.54457 0.0
C11 C 0.13743 0.33804 0.53166 0.0
N12 N 0.14752 0.39016 0.4152 0.0
N13 N 0.09457 0.39779 0.61219 0.0
C14 C 0.11293 0.47594 0.82661 0.0
C15 C 0.97272 0.27072 0.79891 0.0
N16 N 0.04277 0.4326 0.9319 0.0
N17 N 0.95501 0.30401 0.91713 0.0
N18 N 0.07453 0.37739 0.74236 0.0
H19 H 0.27846 0.6592 0.88854 0.0
H20 H 0.15587 0.67125 0.79947 0.0
H21 H 0.2694 0.63408 0.71771 0.0
C22 C 0.21217 0.61843 0.80565 0.0
C23 C 0.99828 0.54874 0.59479 0.0
H24 H 0.91158 0.52972 0.53718 0.0
H25 H 0.06362 0.65797 0.60416 0.0
H26 H 0.95261 0.50829 0.68794 0.0
O27 O 0.87562 0.40041 0.36435 0.0
O28 O 0.88686 0.33136 0.17887 0.0
C29 C 0.87932 0.57183 1.01459 0.0
O30 O 0.26387 0.55172 0.11903 0.0
O31 O 0.09923 0.36326 0.15064 0.0
Zn32 Zn 0.52725 0.02231 0.60389 0.0
O33 O 0.68623 0.17464 0.45764 0.0
C34 C 0.51151 0.22204 0.62429 0.0
Zn35 Zn 0.51308 0.967 0.41109 0.0
C36 C 0.73259 0.17734 0.34769 0.0
O37 O 0.69068 0.06848 0.29514 0.0
C38 C 0.25196 0.83796 0.44021 0.0
O39 O 0.60101 0.88271 0.56861 0.0
O40 O 0.69619 0.03099 0.70902 0.0
N41 N 0.43012 1.01416 0.26477 0.0
C42 C 0.4029 0.94364 0.15968 0.0
C43 C 0.33839 0.08432 0.1317 0.0
N44 N 0.3896 0.10224 0.24982 0.0
N45 N 0.3426 0.98197 0.07538 0.0
C46 C 0.44817 0.97856 0.87766 0.0
C47 C 0.24077 0.91927 0.86458 0.0
N48 N 0.41013 0.94143 0.75616 0.0
N49 N 0.28287 0.90922 0.74816 0.0
N50 N 0.34321 0.96203 0.94521 0.0
H51 H 0.65796 0.14493 0.87038 0.0
H52 H 0.63413 0.99277 0.93742 0.0
H53 H 0.5954 0.10389 0.0211 0.0
C54 C 0.59027 0.05823 0.92798 0.0
C55 C 0.44603 0.84418 0.13885 0.0
H56 H 0.42052 0.77794 0.22182 0.0
H57 H 0.55505 0.90035 0.1327 0.0
H58 H 0.40445 0.78688 0.05098 0.0
O59 O 0.32815 0.79285 0.45169 0.0
O60 O 0.30426 0.95765 0.4836 0.0
C61 C 0.66534 0.91538 0.67368 0.0
O62 O 0.56498 0.18104 0.69729 0.0
O63 O 0.48451 0.16995 0.51194 0.0
Zn64 Zn 0.53506 0.52902 0.9375 0.0
O65 O 0.5286 0.3703 0.79097 0.0
C66 C 0.75049 0.5448 0.95788 0.0
Zn67 Zn 0.49385 0.54341 0.74491 0.0
C68 C 0.48467 0.32399 0.68109 0.0
O69 O 0.41719 0.36566 0.62901 0.0
C70 C 0.62576 0.80453 0.77344 0.0
O71 O 0.32199 0.456 0.9026 0.0
O72 O 0.37492 0.35999 0.04265 0.0
N73 N 0.62377 0.62594 0.59846 0.0
C74 C 0.58061 0.65321 0.49326 0.0
C75 C 0.78561 0.71738 0.46546 0.0
N76 N 0.75225 0.66624 0.58361 0.0
N77 N 0.67921 0.71336 0.40901 0.0
C78 C 0.57045 0.6079 0.21129 0.0
C79 C 0.71825 0.81534 0.19823 0.0
N80 N 0.57125 0.64604 0.08981 0.0
N81 N 0.66613 0.77332 0.08183 0.0
N82 N 0.6588 0.71281 0.27883 0.0
H83 H 0.52714 0.39803 0.20396 0.0
H84 H 0.39891 0.42195 0.27106 0.0
H85 H 0.54864 0.46054 0.35473 0.0
C86 C 0.50812 0.46574 0.2616 0.0
C87 C 0.4382 0.61034 0.47228 0.0
H88 H 0.39741 0.63591 0.55517 0.0
H89 H 0.38537 0.50131 0.46606 0.0
H90 H 0.42266 0.65205 0.38435 0.0
O91 O 0.50454 0.72849 0.78474 0.0
O92 O 0.69303 0.75215 0.81716 0.0
C93 C 0.29042 0.39135 1.0075 0.0
O94 O 0.6561 0.49103 0.03085 0.0
O95 O 0.72532 0.57191 0.8456 0.0
loop_
_geom_bond_atom_site_label_1
_geom_bond_atom_site_label_2
_geom_bond_distance
_geom_bond_site_symmetry_2
_ccdc_geom_bond_type
Zn0 O1 2.055 1_655 S
Zn0 O8 2.046 . S
Zn0 N16 2.036 1_554 S
Zn0 O28 2.053 . S
Zn0 O30 2.066 1_655 S
O1 Zn0 2.055 1_455 S
O1 C4 1.259 . S
C2 O30 1.256 . S
C2 O31 1.244 . S
Zn3 O5 2.046 . S
Zn3 O7 2.055 1_455 S
Zn3 N9 2.036 . S
Zn3 O27 2.066 1_455 S
Zn3 O31 2.053 . S
C4 O1 1.259 . S
C4 O5 1.254 . S
O5 Zn3 2.046 . S
O5 C4 1.254 . S
C6 O27 1.256 . S
C6 O28 1.244 . S
O7 Zn3 2.055 1_655 S
O7 C29 1.259 . S
O8 Zn0 2.046 . S
O8 C29 1.254 . S
N9 Zn3 2.036 . S
N9 C10 1.298 1_455 S
N9 N12 1.398 . S
C10 N9 1.298 1_655 S
C10 N13 1.367 . S
C10 C23 1.481 . S
C11 N12 1.299 . S
C11 N13 1.379 1_455 S
N12 N9 1.398 . S
N12 C11 1.299 . S
N13 C10 1.367 . S
N13 C11 1.379 1_655 S
C14 N16 1.298 1_455 S
C14 N18 1.367 . S
C14 C22 1.481 . S
C15 N17 1.299 . S
C15 N18 1.379 1_655 S
N16 Zn0 2.036 1_556 S
N16 C14 1.298 1_655 S
N16 N17 1.398 . S
N17 C15 1.299 . S
N17 N16 1.398 . S
N18 C14 1.367 . S
N18 C15 1.379 1_455 S
H19 C22 0.980 . S
H20 C22 0.981 . S
H21 C22 0.981 . S
C22 C14 1.481 . S
C22 H19 0.980 . S
C22 H20 0.981 . S
C22 H21 0.981 . S
C23 C10 1.481 . S
C23 H24 0.980 . S
C23 H25 0.981 . S
C23 H26 0.981 . S
H24 C23 0.980 . S
H25 C23 0.981 . S
H26 C23 0.981 . S
O27 Zn3 2.066 1_655 S
O27 C6 1.256 . S
O28 Zn0 2.053 . S
O28 C6 1.244 . S
C29 O7 1.259 . S
C29 O8 1.254 . S
O30 Zn0 2.066 1_455 S
O30 C2 1.256 . S
O31 C2 1.244 . S
O31 Zn3 2.053 . S
Zn32 O33 2.055 1_565 S
Zn32 O40 2.046 . S
Zn32 N48 2.036 . S
Zn32 O60 2.053 . S
Zn32 O62 2.066 1_565 S
O33 Zn32 2.055 1_545 S
O33 C36 1.259 . S
C34 O62 1.256 . S
C34 O63 1.244 . S
Zn35 O37 2.046 . S
Zn35 O39 2.055 1_545 S
Zn35 N41 2.036 . S
Zn35 O59 2.066 1_545 S
Zn35 O63 2.053 . S
C36 O33 1.259 . S
C36 O37 1.254 . S
O37 Zn35 2.046 . S
O37 C36 1.254 . S
C38 O59 1.256 . S
C38 O60 1.244 . S
O39 Zn35 2.055 1_565 S
O39 C61 1.259 . S
O40 Zn32 2.046 . S
O40 C61 1.254 . S
N41 Zn35 2.036 . S
N41 C42 1.298 1_545 S
N41 N44 1.398 . S
C42 N41 1.298 1_565 S
C42 N45 1.367 1_554 S
C42 C55 1.481 . S
C43 N44 1.299 . S
C43 N45 1.379 1_544 S
N44 N41 1.398 . S
N44 C43 1.299 . S
N45 C42 1.367 1_556 S
N45 C43 1.379 1_566 S
C46 N48 1.298 1_545 S
C46 N50 1.367 1_556 S
C46 C54 1.481 . S
C47 N49 1.299 . S
C47 N50 1.379 1_566 S
N48 Zn32 2.036 . S
N48 C46 1.298 1_565 S
N48 N49 1.398 . S
N49 C47 1.299 . S
N49 N48 1.398 . S
N50 C46 1.367 1_554 S
N50 C47 1.379 1_544 S
H51 C54 0.980 . S
H52 C54 0.981 . S
H53 C54 0.981 . S
C54 C46 1.481 . S
C54 H51 0.980 . S
C54 H52 0.981 . S
C54 H53 0.981 . S
C55 C42 1.481 . S
C55 H56 0.980 . S
C55 H57 0.981 . S
C55 H58 0.981 . S
H56 C55 0.980 . S
H57 C55 0.981 . S
H58 C55 0.981 . S
O59 Zn35 2.066 1_565 S
O59 C38 1.256 . S
O60 Zn32 2.053 . S
O60 C38 1.244 . S
C61 O39 1.259 . S
C61 O40 1.254 . S
O62 Zn32 2.066 1_545 S
O62 C34 1.256 . S
O63 C34 1.244 . S
O63 Zn35 2.053 . S
Zn64 O65 2.055 . S
Zn64 O72 2.046 . S
Zn64 N80 2.036 1_556 S
Zn64 O92 2.053 . S
Zn64 O94 2.066 . S
O65 Zn64 2.055 . S
O65 C68 1.259 . S
C66 O94 1.256 . S
C66 O95 1.244 . S
Zn67 O69 2.046 . S
Zn67 O71 2.055 . S
Zn67 N73 2.036 . S
Zn67 O91 2.066 . S
Zn67 O95 2.053 . S
C68 O65 1.259 . S
C68 O69 1.254 . S
O69 Zn67 2.046 . S
O69 C68 1.254 . S
C70 O91 1.256 . S
C70 O92 1.244 . S
O71 Zn67 2.055 . S
O71 C93 1.259 . S
O72 Zn64 2.046 . S
O72 C93 1.254 . S
N73 Zn67 2.036 . S
N73 C74 1.298 . S
N73 N76 1.398 . S
C74 N73 1.298 . S
C74 N77 1.367 . S
C74 C87 1.481 . S
C75 N76 1.299 . S
C75 N77 1.379 . S
N76 N73 1.398 . S
N76 C75 1.299 . S
N77 C74 1.367 . S
N77 C75 1.379 . S
C78 N80 1.298 . S
C78 N82 1.367 . S
C78 C86 1.481 . S
C79 N81 1.299 . S
C79 N82 1.379 . S
N80 Zn64 2.036 1_554 S
N80 C78 1.298 . S
N80 N81 1.398 . S
N81 C79 1.299 . S
N81 N80 1.398 . S
N82 C78 1.367 . S
N82 C79 1.379 . S
H83 C86 0.980 . S
H84 C86 0.981 . S
H85 C86 0.981 . S
C86 C78 1.481 . S
C86 H83 0.980 . S
C86 H84 0.981 . S
C86 H85 0.981 . S
C87 C74 1.481 . S
C87 H88 0.980 . S
C87 H89 0.981 . S
C87 H90 0.981 . S
H88 C87 0.980 . S
H89 C87 0.981 . S
H90 C87 0.981 . S
O91 Zn67 2.066 . S
O91 C70 1.256 . S
O92 Zn64 2.053 . S
O92 C70 1.244 . S
C93 O71 1.259 . S
C93 O72 1.254 . S
O94 Zn64 2.066 . S
O94 C66 1.256 . S
O95 C66 1.244 . S
O95 Zn67 2.053 . S
C2 C93 3.586 1_554 S
C36 C6 3.586 . S
C61 C70 3.586 . S
C66 C29 3.586 1_556 S
C38 C4 3.586 . S
C68 C34 3.586 . S
N18 N13 0.361 1_455 S
N45 N50 0.361 1_566 S
N77 N82 0.361 . S
