# Generated by pormake.
# Topology wfu, (7)-cn, num edge types: 1
# Building blocks:
#     Node 0, Type 0, BuildingBlock: NUHQUE_clean_sbu_2, # of connection points: 7
#     Node 1, Type 0, BuildingBlock: NUHQUE_clean_sbu_2, # of connection points: 7
#     Node 2, Type 0, BuildingBlock: NUHQUE_clean_sbu_2, # of connection points: 7
#     Node 3, Type 0, BuildingBlock: NUHQUE_clean_sbu_2, # of connection points: 7
#     Node 4, Type 0, BuildingBlock: NUHQUE_clean_sbu_2, # of connection points: 7
#     Node 5, Type 0, BuildingBlock: NUHQUE_clean_sbu_2, # of connection points: 7
#     Node 6, Type 0, BuildingBlock: NUHQUE_clean_sbu_2, # of connection points: 7
#     Node 7, Type 0, BuildingBlock: NUHQUE_clean_sbu_2, # of connection points: 7
#     Edge 8, Type (0, 0), None
#     Edge 9, Type (0, 0), None
#     Edge 10, Type (0, 0), None
#     Edge 11, Type (0, 0), None
#     Edge 12, Type (0, 0), None
#     Edge 13, Type (0, 0), None
#     Edge 14, Type (0, 0), None
#     Edge 15, Type (0, 0), None
#     Edge 16, Type (0, 0), None
#     Edge 17, Type (0, 0), None
#     Edge 18, Type (0, 0), None
#     Edge 19, Type (0, 0), None
#     Edge 20, Type (0, 0), None
#     Edge 21, Type (0, 0), None
#     Edge 22, Type (0, 0), None
#     Edge 23, Type (0, 0), None
#     Edge 24, Type (0, 0), None
#     Edge 25, Type (0, 0), None
#     Edge 26, Type (0, 0), None
#     Edge 27, Type (0, 0), None
#     Edge 28, Type (0, 0), None
#     Edge 29, Type (0, 0), None
#     Edge 30, Type (0, 0), None
#     Edge 31, Type (0, 0), None
#     Edge 32, Type (0, 0), None
#     Edge 33, Type (0, 0), None
#     Edge 34, Type (0, 0), None
#     Edge 35, Type (0, 0), None
# Relax obj value: 0.294
# Max RMSD: 0.208
# Mean RMSD: 0.208
data_MOF--net-wfu--node1-NUHQUE_clean_sbu_2--edge1-none
_symmetry_space_group_name_H-M    P1
_symmetry_Int_Tables_number       1
_symmetry_cell_setting            triclinic
loop_
_symmetry_equiv_pos_as_xyz
'x, y, z'
_cell_length_a     19.396145
_cell_length_b     19.532905
_cell_length_c     16.488728
_cell_angle_alpha  90.148954
_cell_angle_beta   90.654747
_cell_angle_gamma 90.148181
loop_
_atom_site_label
_atom_site_type_symbol
_atom_site_fract_x
_atom_site_fract_y
_atom_site_fract_z
_atom_type_partial_charge
O0 O 0.32395 0.57442 0.20415 0.0
Tb1 Tb 0.36802 0.54777 0.08593 0.0
Eu2 Eu 0.40649 0.41767 0.21759 0.0
C3 C 0.30627 0.63613 0.23128 0.0
O4 O 0.2793 0.64005 0.30387 0.0
C5 C 0.51424 0.54505 0.16146 0.0
O6 O 0.46113 0.32727 0.16543 0.0
C7 C 0.36342 0.3784 0.35711 0.0
C8 C 0.52844 0.32783 0.16717 0.0
O9 O 0.5595 0.36123 0.22639 0.0
C10 C 0.3566 0.39933 0.04586 0.0
C11 C 0.32663 0.3155 0.37991 0.0
C12 C 0.28862 0.31305 0.45169 0.0
C13 C 0.25085 0.25404 0.47003 0.0
C14 C 0.25196 0.19801 0.4165 0.0
C15 C 0.29459 0.19647 0.34943 0.0
C16 C 0.33042 0.25684 0.32976 0.0
O17 O 0.47405 0.57279 0.10603 0.0
O18 O 0.49542 0.49576 0.21221 0.0
O19 O 0.36142 0.60654 0.97343 0.0
O20 O 0.27389 0.54974 1.01308 0.0
C21 C 0.29847 0.58848 0.9561 0.0
O22 O 0.33323 0.3842 0.11742 0.0
O23 O 0.39958 0.44997 0.04188 0.0
O24 O 0.42682 0.36822 0.33248 0.0
O25 O 0.32857 0.42246 0.31188 0.0
H26 H 0.28692 0.35719 0.49162 0.0
H27 H 0.21944 0.15518 0.42719 0.0
H28 H 0.36168 0.25837 0.27572 0.0
O29 O 0.57548 0.77788 0.82226 0.0
Tb30 Tb 0.54766 0.73378 0.93982 0.0
Eu31 Eu 0.39831 0.683 0.81876 0.0
C32 C 0.63821 0.79415 0.79615 0.0
O33 O 0.64279 0.82094 0.7234 0.0
C34 C 0.5385 0.58478 0.8665 0.0
O35 O 0.29279 0.63327 0.81909 0.0
C36 C 0.38843 0.74788 0.68372 0.0
C37 C 0.26284 0.60163 0.8795 0.0
O38 O 0.20063 0.57651 0.86816 0.0
C39 C 0.39697 0.75166 0.9883 0.0
C40 C 0.32578 0.7851 0.65869 0.0
C41 C 0.32162 0.82033 0.58474 0.0
C42 C 0.2607 0.85516 0.56431 0.0
C43 C 0.20461 0.85338 0.61744 0.0
C44 C 0.20491 0.81323 0.68665 0.0
C45 C 0.26717 0.78119 0.70869 0.0
O46 O 0.57384 0.62944 0.91057 0.0
O47 O 0.47732 0.59587 0.83168 0.0
O48 O 0.60761 0.73609 0.05315 0.0
O49 O 0.56668 0.82897 1.00501 0.0
C50 C 0.60086 0.80151 0.06493 0.0
O51 O 0.36592 0.75604 0.91803 0.0
O52 O 0.45006 0.71122 0.9926 0.0
O53 O 0.3791 0.68147 0.68883 0.0
O54 O 0.42232 0.7735 0.74668 0.0
H55 H 0.36556 0.822 0.54476 0.0
H56 H 0.16033 0.88367 0.60497 0.0
H57 H 0.27012 0.75244 0.76456 0.0
O58 O 0.76755 0.51044 0.20037 0.0
Tb59 Tb 0.73215 0.54856 0.08236 0.0
Eu60 Eu 0.69301 0.70108 0.2086 0.0
C61 C 0.77541 0.44637 0.22645 0.0
O62 O 0.7946 0.4389 0.30261 0.0
C63 C 0.58652 0.56561 0.15931 0.0
O64 O 0.64722 0.80741 0.20227 0.0
C65 C 0.75636 0.71265 0.3458 0.0
C66 C 0.61775 0.83773 0.13993 0.0
O67 O 0.59742 0.9014 0.14813 0.0
C68 C 0.7566 0.69869 0.03916 0.0
C69 C 0.79255 0.77556 0.37183 0.0
C70 C 0.8265 0.78015 0.44728 0.0
C71 C 0.85937 0.84162 0.46934 0.0
C72 C 0.85641 0.89789 0.41667 0.0
C73 C 0.81773 0.89687 0.34558 0.0
C74 C 0.78828 0.83404 0.32164 0.0
O75 O 0.62647 0.52869 0.11158 0.0
O76 O 0.60337 0.62455 0.1952 0.0
O77 O 0.73655 0.49835 0.9637 0.0
O78 O 0.82978 0.53173 0.02334 0.0
C79 C 0.80339 0.504 0.95806 0.0
O80 O 0.76711 0.72825 0.10903 0.0
O81 O 0.71129 0.64941 0.03788 0.0
O82 O 0.68945 0.72066 0.33809 0.0
O83 O 0.78355 0.67941 0.28425 0.0
H84 H 0.82863 0.73625 0.48729 0.0
H85 H 0.88469 0.94289 0.43101 0.0
H86 H 0.7612 0.8306 0.26421 0.0
O87 O 0.54048 0.31115 0.8317 0.0
Tb88 Tb 0.58507 0.36695 0.93574 0.0
Eu89 Eu 0.70621 0.42829 0.80211 0.0
C90 C 0.4765 0.29355 0.81031 0.0
O91 O 0.46921 0.26187 0.7403 0.0
C92 C 0.56913 0.51647 0.85994 0.0
O93 O 0.81468 0.46821 0.81808 0.0
C94 C 0.71847 0.35569 0.67275 0.0
C95 C 0.84313 0.49163 0.88511 0.0
O96 O 0.90833 0.50973 0.88428 0.0
C97 C 0.74992 0.33851 0.95532 0.0
C98 C 0.78233 0.32099 0.64859 0.0
C99 C 0.78488 0.28199 0.57733 0.0
C100 C 0.84515 0.24598 0.55933 0.0
C101 C 0.9024 0.25019 0.61194 0.0
C102 C 0.90374 0.29385 0.67826 0.0
C103 C 0.842 0.32738 0.69818 0.0
O104 O 0.54692 0.46954 0.91131 0.0
O105 O 0.6232 0.50974 0.81185 0.0
O106 O 0.53951 0.29681 0.02428 0.0
O107 O 0.59212 0.38609 0.06491 0.0
C108 C 0.55965 0.33163 0.08779 0.0
O109 O 0.6971 0.36232 0.91444 0.0
O110 O 0.69686 0.36287 0.91333 0.0
O111 O 0.7219 0.42287 0.67188 0.0
O112 O 0.68972 0.33147 0.73862 0.0
H113 H 0.73989 0.27777 0.53799 0.0
H114 H 0.94621 0.21895 0.60142 0.0
H115 H 0.84004 0.35812 0.75255 0.0
O116 O 0.82234 1.02332 0.32301 0.0
Tb117 Tb 0.86707 0.05273 0.44093 0.0
Eu118 Eu 0.91133 0.19635 0.31761 0.0
C119 C 0.80794 0.9604 0.29626 0.0
O120 O 0.78098 0.95451 0.2231 0.0
C121 C 1.01544 0.06096 0.369 0.0
O122 O 0.95686 0.30289 0.32269 0.0
C123 C 0.84376 0.20337 0.18228 0.0
C124 C 0.98866 0.33315 0.38397 0.0
O125 O 1.00866 0.39694 0.37524 0.0
C126 C 0.85006 0.20192 0.48759 0.0
C127 C 0.80251 0.26253 0.15385 0.0
C128 C 0.77987 0.26666 0.07308 0.0
C129 C 0.74928 0.32692 0.04356 0.0
C130 C 0.74199 0.38364 0.09612 0.0
C131 C 0.76949 0.3829 0.17496 0.0
C132 C 0.79723 0.32069 0.20414 0.0
O133 O 0.97114 1.02485 0.41138 0.0
O134 O 1.00235 0.12136 0.33456 0.0
O135 O 0.86429 0.99788 0.55662 0.0
O136 O 0.77088 1.03614 0.50453 0.0
C137 C 0.79829 1.00483 0.56651 0.0
O138 O 0.83901 0.22829 0.4164 0.0
O139 O 0.89216 0.15045 0.49175 0.0
O140 O 0.91016 0.21621 0.18809 0.0
O141 O 0.81993 0.16971 0.24536 0.0
H142 H 0.7901 0.2246 0.03188 0.0
H143 H 0.7186 0.42973 0.07481 0.0
H144 H 0.81892 0.31826 0.26492 0.0
O145 O 1.03074 0.28473 0.70312 0.0
Tb146 Tb 0.05775 0.23402 0.58874 0.0
Eu147 Eu 0.20973 0.18482 0.71391 0.0
C148 C 0.96827 0.30349 0.72757 0.0
O149 O 0.96386 0.33414 0.79834 0.0
C150 C 0.06651 0.08675 0.66552 0.0
O151 O 0.31529 0.13656 0.70563 0.0
C152 C 0.22575 0.24595 0.85219 0.0
C153 C 0.34417 0.10743 0.64268 0.0
O154 O 0.40789 0.08563 0.65014 0.0
C155 C 0.2088 0.24902 0.54354 0.0
C156 C 0.28959 0.28106 0.88071 0.0
C157 C 0.2921 0.31869 0.95332 0.0
C158 C 0.35385 0.35135 0.97719 0.0
C159 C 0.41346 0.34464 0.9295 0.0
C160 C 0.41313 0.30456 0.85959 0.0
C161 C 0.35006 0.2745 0.83466 0.0
O162 O 1.02871 0.132 0.62569 0.0
O163 O 0.12963 0.09787 0.69617 0.0
O164 O 1.00032 0.23259 0.473 0.0
O165 O 1.03959 0.32702 0.51941 0.0
C166 C 1.00676 0.29781 0.45933 0.0
O167 O 0.23876 0.25778 0.61393 0.0
O168 O 0.15622 0.20765 0.54072 0.0
O169 O 0.23262 0.17952 0.84308 0.0
O170 O 0.19245 0.27455 0.79088 0.0
H171 H 0.246 0.32468 0.98916 0.0
H172 H 0.45998 0.37181 0.94624 0.0
H173 H 0.34768 0.24528 0.77897 0.0
O174 O 0.2826 0.07099 0.32426 0.0
Tb175 Tb 0.23669 1.04429 0.44093 0.0
Eu176 Eu 0.18586 0.89551 0.32059 0.0
C177 C 0.30107 0.13306 0.29921 0.0
O178 O 0.32841 0.13809 0.22693 0.0
C179 C 0.08656 1.03525 0.36867 0.0
O180 O 0.13795 0.79023 0.32908 0.0
C181 C 0.24617 0.88252 0.18278 0.0
C182 C 0.1094 0.76138 0.39233 0.0
O183 O 0.08777 0.69785 0.38569 0.0
C184 C 0.25356 0.89561 0.48956 0.0
C185 C 0.2834 0.82041 0.15647 0.0
C186 C 0.31952 0.81782 0.08296 0.0
C187 C 0.35551 0.75793 0.06231 0.0
C188 C 0.35421 0.70156 0.11485 0.0
C189 C 0.31325 0.70023 0.18297 0.0
C190 C 0.2798 0.76113 0.20534 0.0
O191 O 0.13255 0.07255 0.4086 0.0
O192 O 0.09758 0.97316 0.33759 0.0
O193 O 0.24068 0.10102 0.55581 0.0
O194 O 0.33316 0.05988 0.5068 0.0
C195 C 0.30653 0.09277 0.56754 0.0
O196 O 0.261 0.86541 0.41979 0.0
O197 O 0.21126 0.94702 0.49131 0.0
O198 O 0.17963 0.87299 0.19163 0.0
O199 O 0.27437 0.91705 0.2436 0.0
H200 H 0.32116 0.86217 0.04367 0.0
H201 H 0.38577 0.65818 0.10302 0.0
H202 H 0.25055 0.76252 0.26071 0.0
O203 O 0.07823 0.82125 0.7106 0.0
Tb204 Tb 1.04891 0.86714 0.59402 0.0
Eu205 Eu 0.89809 0.91706 0.71295 0.0
C206 C 0.14138 0.80481 0.73629 0.0
O207 O 0.14741 0.77718 0.80858 0.0
C208 C 1.03976 1.01606 0.66569 0.0
O209 O 0.79184 0.96411 0.70532 0.0
C210 C 0.88664 0.85369 0.84904 0.0
C211 C 0.76158 0.99138 0.64149 0.0
O212 O 0.69773 1.01266 0.6479 0.0
C213 C 0.89879 0.84941 0.54553 0.0
C214 C 0.82442 0.81513 0.87337 0.0
C215 C 0.82246 0.77699 0.94555 0.0
C216 C 0.76227 0.74055 0.96509 0.0
C217 C 0.70464 0.74369 0.91279 0.0
C218 C 0.70295 0.78586 0.84534 0.0
C219 C 0.76438 0.81958 0.82416 0.0
O220 O 0.07749 0.97039 0.62722 0.0
O221 O 0.97699 1.00494 0.69568 0.0
O222 O 0.10323 0.8642 0.47808 0.0
O223 O 0.06412 0.77167 0.52869 0.0
C224 C 0.09552 0.79866 0.46716 0.0
O225 O 0.86666 0.84304 0.61385 0.0
O226 O 0.94988 0.89251 0.54537 0.0
O227 O 0.87656 0.9199 0.84194 0.0
O228 O 0.92154 0.82778 0.78801 0.0
H229 H 0.86744 0.77462 0.98505 0.0
H230 H 0.66036 0.71324 0.92475 0.0
H231 H 0.76551 0.85004 0.76958 0.0
loop_
_geom_bond_atom_site_label_1
_geom_bond_atom_site_label_2
_geom_bond_distance
_geom_bond_site_symmetry_2
_ccdc_geom_bond_type
O0 Tb1 2.292 . S
O0 C3 1.255 . S
Tb1 O0 2.292 . S
Tb1 O17 2.326 . S
Tb1 O19 2.500 . S
Tb1 O20 2.473 1_554 S
Tb1 O23 2.324 . S
Eu2 O6 2.292 . S
Eu2 C7 2.852 . S
Eu2 O18 2.324 . S
Eu2 O22 2.326 . S
Eu2 O24 2.500 . S
Eu2 O25 2.473 . S
C3 O0 1.255 . S
C3 O4 1.247 . S
O4 C3 1.247 . S
C5 O17 1.242 . S
C5 O18 1.258 . S
O6 Eu2 2.292 . S
O6 C8 1.255 1_554 S
C7 Eu2 2.852 . S
C7 C11 1.503 . S
C7 O24 1.273 . S
C7 O25 1.257 . S
C8 O6 1.255 1_556 S
C8 O9 1.247 . S
O9 C8 1.247 . S
C10 O22 1.242 . S
C10 O23 1.258 . S
C11 C7 1.503 . S
C11 C12 1.379 . S
C11 C16 1.392 . S
C12 C11 1.379 . S
C12 C13 1.404 . S
C12 H26 0.929 . S
C13 C12 1.404 . S
C13 C14 1.389 . S
C14 C13 1.389 . S
C14 C15 1.399 . S
C14 H27 0.931 . S
C15 C14 1.399 . S
C15 C16 1.390 . S
C16 C11 1.392 . S
C16 C15 1.390 . S
C16 H28 0.929 . S
O17 Tb1 2.326 . S
O17 C5 1.242 . S
O18 Eu2 2.324 . S
O18 C5 1.258 . S
O19 Tb1 2.500 . S
O19 C21 1.273 1_554 S
O20 Tb1 2.473 1_556 S
O20 C21 1.257 . S
C21 O19 1.273 1_556 S
C21 O20 1.257 . S
O22 Eu2 2.326 . S
O22 C10 1.242 . S
O23 Tb1 2.324 . S
O23 C10 1.258 . S
O24 Eu2 2.500 . S
O24 C7 1.273 . S
O25 Eu2 2.473 . S
O25 C7 1.257 . S
H26 C12 0.929 . S
H27 C14 0.931 . S
H28 C16 0.929 . S
O29 Tb30 2.292 . S
O29 C32 1.255 . S
Tb30 O29 2.292 . S
Tb30 O46 2.326 . S
Tb30 O48 2.500 . S
Tb30 O49 2.473 1_556 S
Tb30 O52 2.324 . S
Eu31 O35 2.292 . S
Eu31 C36 2.852 . S
Eu31 O47 2.324 . S
Eu31 O51 2.326 . S
Eu31 O53 2.500 . S
Eu31 O54 2.473 . S
C32 O29 1.255 . S
C32 O33 1.247 . S
O33 C32 1.247 . S
C34 O46 1.242 . S
C34 O47 1.258 . S
O35 Eu31 2.292 . S
O35 C37 1.255 1_556 S
C36 Eu31 2.852 . S
C36 C40 1.503 . S
C36 O53 1.273 . S
C36 O54 1.257 . S
C37 O35 1.255 1_554 S
C37 O38 1.247 . S
O38 C37 1.247 . S
C39 O51 1.242 . S
C39 O52 1.258 . S
C40 C36 1.503 . S
C40 C41 1.379 . S
C40 C45 1.392 . S
C41 C40 1.379 . S
C41 C42 1.404 . S
C41 H55 0.929 . S
C42 C41 1.404 . S
C42 C43 1.389 . S
C43 C42 1.389 . S
C43 C44 1.399 . S
C43 H56 0.931 . S
C44 C43 1.399 . S
C44 C45 1.390 . S
C45 C40 1.392 . S
C45 C44 1.390 . S
C45 H57 0.929 . S
O46 Tb30 2.326 . S
O46 C34 1.242 . S
O47 Eu31 2.324 . S
O47 C34 1.258 . S
O48 Tb30 2.500 . S
O48 C50 1.273 1_556 S
O49 Tb30 2.473 1_554 S
O49 C50 1.257 . S
C50 O48 1.273 1_554 S
C50 O49 1.257 . S
O51 Eu31 2.326 . S
O51 C39 1.242 . S
O52 Tb30 2.324 . S
O52 C39 1.258 . S
O53 Eu31 2.500 . S
O53 C36 1.273 . S
O54 Eu31 2.473 . S
O54 C36 1.257 . S
H55 C41 0.929 . S
H56 C43 0.931 . S
H57 C45 0.929 . S
O58 Tb59 2.292 . S
O58 C61 1.255 . S
Tb59 O58 2.292 . S
Tb59 O75 2.326 . S
Tb59 O77 2.500 . S
Tb59 O78 2.473 1_554 S
Tb59 O81 2.324 . S
Eu60 O64 2.292 . S
Eu60 C65 2.852 . S
Eu60 O76 2.324 . S
Eu60 O80 2.326 . S
Eu60 O82 2.500 . S
Eu60 O83 2.473 . S
C61 O58 1.255 . S
C61 O62 1.247 . S
O62 C61 1.247 . S
C63 O75 1.242 . S
C63 O76 1.258 . S
O64 Eu60 2.292 . S
O64 C66 1.255 1_554 S
C65 Eu60 2.852 . S
C65 C69 1.503 . S
C65 O82 1.273 . S
C65 O83 1.257 . S
C66 O64 1.255 1_556 S
C66 O67 1.247 . S
O67 C66 1.247 . S
C68 O80 1.242 . S
C68 O81 1.258 . S
C69 C65 1.503 . S
C69 C70 1.379 . S
C69 C74 1.392 . S
C70 C69 1.379 . S
C70 C71 1.404 . S
C70 H84 0.929 . S
C71 C70 1.404 . S
C71 C72 1.389 . S
C72 C71 1.389 . S
C72 C73 1.399 . S
C72 H85 0.931 . S
C73 C72 1.399 . S
C73 C74 1.390 . S
C74 C69 1.392 . S
C74 C73 1.390 . S
C74 H86 0.929 . S
O75 Tb59 2.326 . S
O75 C63 1.242 . S
O76 Eu60 2.324 . S
O76 C63 1.258 . S
O77 Tb59 2.500 . S
O77 C79 1.273 1_554 S
O78 Tb59 2.473 1_556 S
O78 C79 1.257 . S
C79 O77 1.273 1_556 S
C79 O78 1.257 . S
O80 Eu60 2.326 . S
O80 C68 1.242 . S
O81 Tb59 2.324 . S
O81 C68 1.258 . S
O82 Eu60 2.500 . S
O82 C65 1.273 . S
O83 Eu60 2.473 . S
O83 C65 1.257 . S
H84 C70 0.929 . S
H85 C72 0.931 . S
H86 C74 0.929 . S
O87 Tb88 2.292 . S
O87 C90 1.255 . S
Tb88 O87 2.292 . S
Tb88 O104 2.326 . S
Tb88 O106 2.500 . S
Tb88 O107 2.473 1_556 S
Tb88 O110 2.324 . S
Eu89 O93 2.292 . S
Eu89 C94 2.852 . S
Eu89 O105 2.324 . S
Eu89 O109 2.326 . S
Eu89 O111 2.500 . S
Eu89 O112 2.473 . S
C90 O87 1.255 . S
C90 O91 1.247 . S
O91 C90 1.247 . S
C92 O104 1.242 . S
C92 O105 1.258 . S
O93 Eu89 2.292 . S
O93 C95 1.255 1_556 S
C94 Eu89 2.852 . S
C94 C98 1.503 . S
C94 O111 1.273 . S
C94 O112 1.257 . S
C95 O93 1.255 1_554 S
C95 O96 1.247 . S
O96 C95 1.247 . S
C97 O109 1.242 . S
C97 O110 1.258 . S
C98 C94 1.503 . S
C98 C99 1.379 . S
C98 C103 1.392 . S
C99 C98 1.379 . S
C99 C100 1.404 . S
C99 H113 0.929 . S
C100 C99 1.404 . S
C100 C101 1.389 . S
C101 C100 1.389 . S
C101 C102 1.399 . S
C101 H114 0.931 . S
C102 C101 1.399 . S
C102 C103 1.390 . S
C103 C98 1.392 . S
C103 C102 1.390 . S
C103 H115 0.929 . S
O104 Tb88 2.326 . S
O104 C92 1.242 . S
O105 Eu89 2.324 . S
O105 C92 1.258 . S
O106 Tb88 2.500 . S
O106 C108 1.273 1_556 S
O107 Tb88 2.473 1_554 S
O107 C108 1.257 . S
C108 O106 1.273 1_554 S
C108 O107 1.257 . S
O109 Eu89 2.326 . S
O109 C97 1.242 . S
O110 Tb88 2.324 . S
O110 C97 1.258 . S
O111 Eu89 2.500 . S
O111 C94 1.273 . S
O112 Eu89 2.473 . S
O112 C94 1.257 . S
H113 C99 0.929 . S
H114 C101 0.931 . S
H115 C103 0.929 . S
O116 Tb117 2.292 . S
O116 C119 1.255 . S
Tb117 O116 2.292 . S
Tb117 O133 2.326 . S
Tb117 O135 2.500 . S
Tb117 O136 2.473 . S
Tb117 O139 2.324 1_565 S
Eu118 O122 2.292 . S
Eu118 C123 2.852 . S
Eu118 O134 2.324 . S
Eu118 O138 2.326 . S
Eu118 O140 2.500 . S
Eu118 O141 2.473 . S
C119 O116 1.255 . S
C119 O120 1.247 . S
O120 C119 1.247 . S
C121 O133 1.242 1_545 S
C121 O134 1.258 . S
O122 Eu118 2.292 . S
O122 C124 1.255 . S
C123 Eu118 2.852 . S
C123 C127 1.503 . S
C123 O140 1.273 . S
C123 O141 1.257 . S
C124 O122 1.255 . S
C124 O125 1.247 . S
O125 C124 1.247 . S
C126 O138 1.242 . S
C126 O139 1.258 . S
C127 C123 1.503 . S
C127 C128 1.379 . S
C127 C132 1.392 . S
C128 C127 1.379 . S
C128 C129 1.404 . S
C128 H142 0.929 . S
C129 C128 1.404 . S
C129 C130 1.389 . S
C130 C129 1.389 . S
C130 C131 1.399 . S
C130 H143 0.931 . S
C131 C130 1.399 . S
C131 C132 1.390 . S
C132 C127 1.392 . S
C132 C131 1.390 . S
C132 H144 0.929 . S
O133 Tb117 2.326 . S
O133 C121 1.242 1_565 S
O134 Eu118 2.324 . S
O134 C121 1.258 . S
O135 Tb117 2.500 . S
O135 C137 1.273 . S
O136 Tb117 2.473 . S
O136 C137 1.257 . S
C137 O135 1.273 . S
C137 O136 1.257 . S
O138 Eu118 2.326 . S
O138 C126 1.242 . S
O139 Tb117 2.324 1_545 S
O139 C126 1.258 . S
O140 Eu118 2.500 . S
O140 C123 1.273 . S
O141 Eu118 2.473 . S
O141 C123 1.257 . S
H142 C128 0.929 . S
H143 C130 0.931 . S
H144 C132 0.929 . S
O145 Tb146 2.292 . S
O145 C148 1.255 . S
Tb146 O145 2.292 . S
Tb146 O162 2.326 . S
Tb146 O164 2.500 . S
Tb146 O165 2.473 . S
Tb146 O168 2.324 1_655 S
Eu147 O151 2.292 . S
Eu147 C152 2.852 . S
Eu147 O163 2.324 . S
Eu147 O167 2.326 . S
Eu147 O169 2.500 . S
Eu147 O170 2.473 . S
C148 O145 1.255 . S
C148 O149 1.247 . S
O149 C148 1.247 . S
C150 O162 1.242 1_455 S
C150 O163 1.258 . S
O151 Eu147 2.292 . S
O151 C153 1.255 . S
C152 Eu147 2.852 . S
C152 C156 1.503 . S
C152 O169 1.273 . S
C152 O170 1.257 . S
C153 O151 1.255 . S
C153 O154 1.247 . S
O154 C153 1.247 . S
C155 O167 1.242 . S
C155 O168 1.258 . S
C156 C152 1.503 . S
C156 C157 1.379 . S
C156 C161 1.392 . S
C157 C156 1.379 . S
C157 C158 1.404 . S
C157 H171 0.929 . S
C158 C157 1.404 . S
C158 C159 1.389 . S
C159 C158 1.389 . S
C159 C160 1.399 . S
C159 H172 0.931 . S
C160 C159 1.399 . S
C160 C161 1.390 . S
C161 C156 1.392 . S
C161 C160 1.390 . S
C161 H173 0.929 . S
O162 Tb146 2.326 . S
O162 C150 1.242 1_655 S
O163 Eu147 2.324 . S
O163 C150 1.258 . S
O164 Tb146 2.500 . S
O164 C166 1.273 . S
O165 Tb146 2.473 . S
O165 C166 1.257 . S
C166 O164 1.273 . S
C166 O165 1.257 . S
O167 Eu147 2.326 . S
O167 C155 1.242 . S
O168 Tb146 2.324 1_455 S
O168 C155 1.258 . S
O169 Eu147 2.500 . S
O169 C152 1.273 . S
O170 Eu147 2.473 . S
O170 C152 1.257 . S
H171 C157 0.929 . S
H172 C159 0.931 . S
H173 C161 0.929 . S
O174 Tb175 2.292 . S
O174 C177 1.255 . S
Tb175 O174 2.292 . S
Tb175 O191 2.326 . S
Tb175 O193 2.500 . S
Tb175 O194 2.473 . S
Tb175 O197 2.324 1_545 S
Eu176 O180 2.292 . S
Eu176 C181 2.852 . S
Eu176 O192 2.324 . S
Eu176 O196 2.326 . S
Eu176 O198 2.500 . S
Eu176 O199 2.473 . S
C177 O174 1.255 . S
C177 O178 1.247 . S
O178 C177 1.247 . S
C179 O191 1.242 1_565 S
C179 O192 1.258 . S
O180 Eu176 2.292 . S
O180 C182 1.255 . S
C181 Eu176 2.852 . S
C181 C185 1.503 . S
C181 O198 1.273 . S
C181 O199 1.257 . S
C182 O180 1.255 . S
C182 O183 1.247 . S
O183 C182 1.247 . S
C184 O196 1.242 . S
C184 O197 1.258 . S
C185 C181 1.503 . S
C185 C186 1.379 . S
C185 C190 1.392 . S
C186 C185 1.379 . S
C186 C187 1.404 . S
C186 H200 0.929 . S
C187 C186 1.404 . S
C187 C188 1.389 . S
C188 C187 1.389 . S
C188 C189 1.399 . S
C188 H201 0.931 . S
C189 C188 1.399 . S
C189 C190 1.390 . S
C190 C185 1.392 . S
C190 C189 1.390 . S
C190 H202 0.929 . S
O191 Tb175 2.326 . S
O191 C179 1.242 1_545 S
O192 Eu176 2.324 . S
O192 C179 1.258 . S
O193 Tb175 2.500 . S
O193 C195 1.273 . S
O194 Tb175 2.473 . S
O194 C195 1.257 . S
C195 O193 1.273 . S
C195 O194 1.257 . S
O196 Eu176 2.326 . S
O196 C184 1.242 . S
O197 Tb175 2.324 1_565 S
O197 C184 1.258 . S
O198 Eu176 2.500 . S
O198 C181 1.273 . S
O199 Eu176 2.473 . S
O199 C181 1.257 . S
H200 C186 0.929 . S
H201 C188 0.931 . S
H202 C190 0.929 . S
O203 Tb204 2.292 . S
O203 C206 1.255 . S
Tb204 O203 2.292 . S
Tb204 O220 2.326 . S
Tb204 O222 2.500 . S
Tb204 O223 2.473 . S
Tb204 O226 2.324 1_455 S
Eu205 O209 2.292 . S
Eu205 C210 2.852 . S
Eu205 O221 2.324 . S
Eu205 O225 2.326 . S
Eu205 O227 2.500 . S
Eu205 O228 2.473 . S
C206 O203 1.255 . S
C206 O207 1.247 . S
O207 C206 1.247 . S
C208 O220 1.242 1_655 S
C208 O221 1.258 . S
O209 Eu205 2.292 . S
O209 C211 1.255 . S
C210 Eu205 2.852 . S
C210 C214 1.503 . S
C210 O227 1.273 . S
C210 O228 1.257 . S
C211 O209 1.255 . S
C211 O212 1.247 . S
O212 C211 1.247 . S
C213 O225 1.242 . S
C213 O226 1.258 . S
C214 C210 1.503 . S
C214 C215 1.379 . S
C214 C219 1.392 . S
C215 C214 1.379 . S
C215 C216 1.404 . S
C215 H229 0.929 . S
C216 C215 1.404 . S
C216 C217 1.389 . S
C217 C216 1.389 . S
C217 C218 1.399 . S
C217 H230 0.931 . S
C218 C217 1.399 . S
C218 C219 1.390 . S
C219 C214 1.392 . S
C219 C218 1.390 . S
C219 H231 0.929 . S
O220 Tb204 2.326 . S
O220 C208 1.242 1_455 S
O221 Eu205 2.324 . S
O221 C208 1.258 . S
O222 Tb204 2.500 . S
O222 C224 1.273 . S
O223 Tb204 2.473 . S
O223 C224 1.257 . S
C224 O222 1.273 . S
C224 O223 1.257 . S
O225 Eu205 2.326 . S
O225 C213 1.242 . S
O226 Tb204 2.324 1_655 S
O226 C213 1.258 . S
O227 Eu205 2.500 . S
O227 C210 1.273 . S
O228 Eu205 2.473 . S
O228 C210 1.257 . S
H229 C215 0.929 . S
H230 C217 0.931 . S
H231 C219 0.929 . S
C10 C158 2.928 1_554 S
C39 C187 2.928 1_556 S
C216 C68 2.928 1_556 S
C129 C97 2.928 1_554 S
C126 C100 2.928 . S
C155 C13 2.928 . S
C184 C42 2.928 . S
C213 C71 2.928 . S
C108 C8 1.433 1_554 S
C21 C37 1.433 1_556 S
C50 C66 1.433 1_554 S
C95 C79 1.433 1_554 S
C124 C166 1.433 . S
C153 C195 1.433 . S
C182 C224 1.433 . S
C137 C211 1.433 . S
C5 C63 4.716 . S
C34 C92 4.716 . S
C121 C179 4.716 1_645 S
C150 C208 4.716 1_445 S
C177 C15 2.532 . S
C44 C206 2.532 . S
C73 C119 2.532 . S
C148 C102 2.532 . S
C131 C61 2.532 . S
C90 C160 2.532 . S
C189 C3 2.532 . S
C32 C218 2.532 . S
