# Generated by pormake.
# Topology oof, (8)-cn, num edge types: 1
# Building blocks:
#     Node 0, Type 0, BuildingBlock: EBIMEJ_clean_sbu_0, # of connection points: 8
#     Node 1, Type 0, BuildingBlock: EBIMEJ_clean_sbu_0, # of connection points: 8
#     Node 2, Type 0, BuildingBlock: EBIMEJ_clean_sbu_0, # of connection points: 8
#     Node 3, Type 0, BuildingBlock: EBIMEJ_clean_sbu_0, # of connection points: 8
#     Edge 4, Type (0, 0), BuildingBlock: EYOCIG_clean_linker_4, # of connection points: 2
#     Edge 5, Type (0, 0), BuildingBlock: EYOCIG_clean_linker_4, # of connection points: 2
#     Edge 6, Type (0, 0), BuildingBlock: EYOCIG_clean_linker_4, # of connection points: 2
#     Edge 7, Type (0, 0), BuildingBlock: EYOCIG_clean_linker_4, # of connection points: 2
#     Edge 8, Type (0, 0), BuildingBlock: EYOCIG_clean_linker_4, # of connection points: 2
#     Edge 9, Type (0, 0), BuildingBlock: EYOCIG_clean_linker_4, # of connection points: 2
#     Edge 10, Type (0, 0), BuildingBlock: EYOCIG_clean_linker_4, # of connection points: 2
#     Edge 11, Type (0, 0), BuildingBlock: EYOCIG_clean_linker_4, # of connection points: 2
#     Edge 12, Type (0, 0), BuildingBlock: EYOCIG_clean_linker_4, # of connection points: 2
#     Edge 13, Type (0, 0), BuildingBlock: EYOCIG_clean_linker_4, # of connection points: 2
#     Edge 14, Type (0, 0), BuildingBlock: EYOCIG_clean_linker_4, # of connection points: 2
#     Edge 15, Type (0, 0), BuildingBlock: EYOCIG_clean_linker_4, # of connection points: 2
#     Edge 16, Type (0, 0), BuildingBlock: EYOCIG_clean_linker_4, # of connection points: 2
#     Edge 17, Type (0, 0), BuildingBlock: EYOCIG_clean_linker_4, # of connection points: 2
#     Edge 18, Type (0, 0), BuildingBlock: EYOCIG_clean_linker_4, # of connection points: 2
#     Edge 19, Type (0, 0), BuildingBlock: EYOCIG_clean_linker_4, # of connection points: 2
# Relax obj value: 0.050
# Max RMSD: 0.149
# Mean RMSD: 0.149
data_MOF--net-oof--node1-EBIMEJ_clean_sbu_0--edge1-EYOCIG_clean_linker_4
_symmetry_space_group_name_H-M    P1
_symmetry_Int_Tables_number       1
_symmetry_cell_setting            triclinic
loop_
_symmetry_equiv_pos_as_xyz
'x, y, z'
_cell_length_a     12.625277
_cell_length_b     55.801097
_cell_length_c     14.448337
_cell_angle_alpha  78.190979
_cell_angle_beta   121.67478
_cell_angle_gamma 95.374103
loop_
_atom_site_label
_atom_site_type_symbol
_atom_site_fract_x
_atom_site_fract_y
_atom_site_fract_z
_atom_type_partial_charge
Co0 Co 0.95682 0.19348 0.33543 0.0
Co1 Co 0.94518 0.17027 0.13972 0.0
Co2 Co 0.00505 0.13778 0.3593 0.0
H3 H -0.00318 0.1661 0.33007 0.0
O4 O 0.03573 0.17262 0.2974 0.0
H5 H 0.96527 0.14149 0.1726 0.0
O6 O 0.92389 0.1347 0.20279 0.0
Co7 Co 0.01728 0.11421 0.17592 0.0
O8 O 0.00204 0.13197 0.03244 0.0
O9 O 0.88078 0.16485 0.98391 0.0
O10 O 0.00725 0.08594 0.28603 0.0
O11 O -0.00542 0.10253 0.4095 0.0
O12 O 0.96882 0.22589 0.3861 0.0
O13 O 0.12498 0.21127 0.4024 0.0
O14 O 0.177 0.13106 0.26469 0.0
O15 O 0.11775 0.16886 0.16658 0.0
C16 C 0.02044 0.15747 0.5402 0.0
C17 C 0.87349 0.22249 0.11062 0.0
C18 C -0.00275 0.07816 0.09589 0.0
C19 C 0.7532 0.15854 0.27255 0.0
C20 C 0.93535 0.15028 0.96222 0.0
C21 C -0.00118 0.08427 0.3713 0.0
C22 C 0.08138 0.22861 0.4162 0.0
C23 C 0.20165 0.15224 0.22913 0.0
O24 O 0.96009 0.17664 0.47364 0.0
O25 O 0.07019 0.14275 0.51529 0.0
O26 O 0.92617 0.20772 0.08689 0.0
O27 O 0.86327 0.21749 0.19535 0.0
O28 O 0.09623 0.08971 0.14145 0.0
O29 O 0.90904 0.08678 0.09591 0.0
O30 O 0.78404 0.18045 0.25378 0.0
O31 O 0.83174 0.14093 0.32468 0.0
Co32 Co 0.96654 0.94242 0.831 0.0
Co33 Co 0.98391 0.91901 0.64962 0.0
Co34 Co 0.0441 0.88662 0.86929 0.0
H35 H 0.02131 0.91534 0.83546 0.0
O36 O 0.06279 0.92229 0.8056 0.0
H37 H -0.00892 0.89072 0.67871 0.0
O38 O 0.95239 0.88425 0.71163 0.0
Co39 Co 0.03016 0.86329 0.67322 0.0
O40 O 0.03006 0.87992 0.53633 0.0
O41 O 0.92076 0.91395 0.49403 0.0
O42 O 0.12407 0.83912 0.81248 0.0
O43 O 0.06517 0.84922 0.92305 0.0
O44 O 0.88631 0.96689 0.86444 0.0
O45 O 0.07269 0.97039 0.90775 0.0
O46 O 0.20259 0.87597 0.7597 0.0
O47 O 0.15843 0.91552 0.68719 0.0
C48 C 0.05444 0.90657 0.04675 0.0
C49 C -0.01381 0.97241 0.63564 0.0
C50 C 0.90537 0.82836 0.59137 0.0
C51 C 0.78614 0.90334 0.78525 0.0
C52 C 0.97067 0.89915 0.46965 0.0
C53 C 0.116 0.83431 0.89831 0.0
C54 C 0.98436 0.97879 0.90828 0.0
C55 C 0.23568 0.89769 0.74159 0.0
O56 O -0.01406 0.92466 0.97622 0.0
O57 O 0.10951 0.89214 0.02494 0.0
O58 O -0.00495 0.9542 0.59951 0.0
O59 O 0.97418 0.97064 0.71913 0.0
O60 O 0.01781 0.83112 0.62121 0.0
O61 O 0.86176 0.84559 0.60582 0.0
O62 O 0.80618 0.925 0.75011 0.0
O63 O 0.8726 0.88713 0.8449 0.0
Co64 Co 0.45663 0.69359 0.33432 0.0
Co65 Co 0.44612 0.67043 0.13978 0.0
Co66 Co 0.50466 0.63789 0.35881 0.0
H67 H 0.49694 0.6662 0.32963 0.0
O68 O 0.53645 0.67268 0.29746 0.0
H69 H 0.46562 0.64165 0.17239 0.0
O70 O 0.42399 0.63487 0.20232 0.0
Co71 Co 0.5175 0.61434 0.17583 0.0
O72 O 0.50137 0.63213 0.03181 0.0
O73 O 0.38104 0.66512 0.98385 0.0
O74 O 0.50747 0.586 0.28603 0.0
O75 O 0.49356 0.60266 0.40872 0.0
O76 O 0.46966 0.72631 0.38279 0.0
O77 O 0.62586 0.711 0.40178 0.0
O78 O 0.67698 0.63117 0.26554 0.0
O79 O 0.61831 0.66883 0.16611 0.0
C80 C 0.51872 0.6577 0.53895 0.0
C81 C 0.37548 0.72268 0.11053 0.0
C82 C 0.4979 0.5784 0.0956 0.0
C83 C 0.2525 0.65872 0.27062 0.0
C84 C 0.43496 0.6505 0.96181 0.0
C85 C 0.49835 0.58436 0.371 0.0
C86 C 0.58262 0.72867 0.41385 0.0
C87 C 0.70195 0.65219 0.22887 0.0
O88 O 0.45859 0.67686 0.47204 0.0
O89 O 0.56875 0.6429 0.51458 0.0
O90 O 0.42869 0.70787 0.08749 0.0
O91 O 0.36341 0.71761 0.19426 0.0
O92 O 0.59682 0.58996 0.1413 0.0
O93 O 0.40951 0.58696 0.09552 0.0
O94 O 0.28361 0.68064 0.25264 0.0
O95 O 0.33097 0.6411 0.32304 0.0
Co96 Co 0.46709 0.4425 0.83245 0.0
Co97 Co 0.48162 0.41897 0.65024 0.0
Co98 Co 0.54128 0.38644 0.86948 0.0
H99 H 0.52006 0.41523 0.8364 0.0
O100 O 0.56157 0.42209 0.80647 0.0
H101 H 0.49115 0.39064 0.67977 0.0
O102 O 0.45211 0.38406 0.7122 0.0
Co103 Co 0.53162 0.36328 0.67465 0.0
O104 O 0.52887 0.38009 0.53679 0.0
O105 O 0.41794 0.4139 0.49472 0.0
O106 O 0.62486 0.33926 0.81484 0.0
O107 O 0.56065 0.349 0.92239 0.0
O108 O 0.38783 0.46703 0.86648 0.0
O109 O 0.57409 0.47039 0.90922 0.0
O110 O 0.70398 0.37656 0.75061 0.0
O111 O 0.65549 0.41627 0.68614 0.0
C112 C 0.54869 0.40635 0.046 0.0
C113 C 0.48518 0.47252 0.63673 0.0
C114 C 0.40477 0.32827 0.59502 0.0
C115 C 0.28317 0.40386 0.77901 0.0
C116 C 0.46793 0.39919 0.47003 0.0
C117 C 0.61347 0.3342 0.89895 0.0
C118 C 0.48612 0.47886 0.91008 0.0
C119 C 0.73395 0.39865 0.73445 0.0
O120 O 0.48203 0.42465 0.97569 0.0
O121 O 0.60383 0.39181 0.02478 0.0
O122 O 0.49071 0.45423 0.59937 0.0
O123 O 0.47621 0.47084 0.72173 0.0
O124 O 0.51744 0.33064 0.62501 0.0
O125 O 0.36248 0.34585 0.60855 0.0
O126 O 0.30642 0.4256 0.74786 0.0
O127 O 0.36782 0.38734 0.84026 0.0
C128 C 0.96086 0.15455 0.78991 0.0
C129 C 0.93839 0.1553 0.86135 0.0
C130 C -0.00392 0.15222 0.71313 0.0
C131 C 0.01726 0.15181 0.64072 0.0
C132 C -0.00452 0.90431 0.29693 0.0
C133 C 0.97442 0.9047 0.36942 0.0
C134 C 0.03041 0.9021 0.21986 0.0
C135 C 0.05244 0.90147 0.14806 0.0
C136 C 0.45962 0.65491 0.78898 0.0
C137 C 0.43771 0.65558 0.86082 0.0
C138 C 0.4943 0.65262 0.71182 0.0
C139 C 0.51531 0.65217 0.63934 0.0
C140 C 0.5235 0.40195 0.2184 0.0
C141 C 0.54559 0.4013 0.14672 0.0
C142 C 0.4894 0.40423 0.29583 0.0
C143 C 0.46959 0.40469 0.36893 0.0
C144 C 0.53201 0.15388 0.24846 0.0
C145 C 0.63403 0.15489 0.26107 0.0
C146 C 0.41849 0.15469 0.24394 0.0
C147 C 0.31825 0.15467 0.23472 0.0
C148 C 0.57218 0.8991 0.7754 0.0
C149 C 0.67158 0.89959 0.78285 0.0
C150 C 0.4591 0.90051 0.77089 0.0
C151 C 0.35615 0.90059 0.75566 0.0
C152 C 0.91687 0.65434 0.24005 0.0
C153 C 0.81761 0.65429 0.23275 0.0
C154 C 0.03014 0.65375 0.24397 0.0
C155 C 0.13266 0.65498 0.25764 0.0
C156 C 0.95149 0.40276 0.75287 0.0
C157 C 0.851 0.40264 0.74259 0.0
C158 C 0.0636 0.40071 0.75691 0.0
C159 C 0.16543 0.40039 0.77012 0.0
C160 C 0.27552 0.28915 0.52377 0.0
C161 C 0.33459 0.307 0.55631 0.0
C162 C 0.20765 0.26801 0.48722 0.0
C163 C 0.14984 0.25004 0.45478 0.0
C164 C 0.71269 0.28982 0.99286 0.0
C165 C 0.66321 0.30998 0.96417 0.0
C166 C 0.77194 0.26668 0.01606 0.0
C167 C 0.82224 0.2466 0.04492 0.0
C168 C 0.71065 0.76795 0.48384 0.0
C169 C 0.65203 0.75003 0.45187 0.0
C170 C 0.77849 0.78908 0.52016 0.0
C171 C 0.83722 0.80694 0.55275 0.0
C172 C 0.27655 0.76703 0.01647 0.0
C173 C 0.326 0.74688 0.04527 0.0
C174 C 0.21756 0.79017 0.99325 0.0
C175 C 0.16759 0.81028 0.96433 0.0
C176 C -0.01174 0.03898 0.02002 0.0
C177 C -0.01143 0.05682 0.05375 0.0
C178 C -0.00814 1.01816 0.98246 0.0
C179 C -0.00798 1.00024 0.94941 0.0
C180 C -0.00722 0.04019 0.47553 0.0
C181 C -0.0045 0.0604 0.42834 0.0
C182 C -0.0094 1.01653 0.53085 0.0
C183 C -0.01136 0.99632 0.57841 0.0
C184 C 0.48963 0.53923 0.0201 0.0
C185 C 0.48957 0.55707 0.05364 0.0
C186 C 0.49373 0.51838 0.98311 0.0
C187 C 0.4941 0.5004 0.95063 0.0
C188 C 0.49012 0.51658 0.53119 0.0
C189 C 0.48791 0.4964 0.57904 0.0
C190 C 0.49236 0.54022 0.47537 0.0
C191 C 0.49501 0.56049 0.42841 0.0
loop_
_geom_bond_atom_site_label_1
_geom_bond_atom_site_label_2
_geom_bond_distance
_geom_bond_site_symmetry_2
_ccdc_geom_bond_type
Co0 H3 2.400 1_655 S
Co0 O4 2.009 1_655 S
Co0 O12 2.115 . S
Co0 O13 2.315 1_655 S
Co0 O24 2.053 . S
Co0 O27 2.094 . S
Co0 O30 2.122 . S
Co1 O4 2.126 1_655 S
Co1 H5 2.388 . S
Co1 O6 2.053 . S
Co1 O9 2.047 1_554 S
Co1 O15 2.113 1_655 S
Co1 O26 2.063 1_655 S
Co2 H3 2.388 . S
Co2 O4 2.053 . S
Co2 O6 2.126 1_455 S
Co2 O11 2.063 1_455 S
Co2 O25 2.047 . S
Co2 O31 2.113 1_455 S
H3 Co0 2.400 1_455 S
H3 Co2 2.388 . S
H3 O4 0.760 . S
O4 Co0 2.009 1_455 S
O4 Co1 2.126 1_455 S
O4 Co2 2.053 . S
O4 H3 0.760 . S
H5 Co1 2.388 . S
H5 O6 0.760 . S
H5 Co7 2.400 1_655 S
O6 Co1 2.053 . S
O6 Co2 2.126 1_655 S
O6 H5 0.760 . S
O6 Co7 2.009 1_655 S
Co7 H5 2.400 1_455 S
Co7 O6 2.009 1_455 S
Co7 O8 2.053 . S
Co7 O10 2.094 . S
Co7 O14 2.122 . S
Co7 O28 2.115 . S
Co7 O29 2.315 1_455 S
O8 Co7 2.053 . S
O8 C20 1.259 1_454 S
O9 Co1 2.047 1_556 S
O9 C20 1.257 . S
O10 Co7 2.094 . S
O10 C21 1.253 . S
O11 Co2 2.063 1_655 S
O11 C21 1.268 1_655 S
O12 Co0 2.115 . S
O12 C22 1.281 1_655 S
O13 Co0 2.315 1_455 S
O13 C22 1.252 . S
O14 Co7 2.122 . S
O14 C23 1.272 . S
O15 Co1 2.113 1_455 S
O15 C23 1.245 . S
C16 O24 1.259 1_455 S
C16 O25 1.257 . S
C17 O26 1.268 1_655 S
C17 O27 1.253 . S
C18 O28 1.281 1_655 S
C18 O29 1.252 . S
C19 O30 1.272 . S
C19 O31 1.245 . S
C20 O8 1.259 1_656 S
C20 O9 1.257 . S
C21 O10 1.253 . S
C21 O11 1.268 1_455 S
C22 O12 1.281 1_455 S
C22 O13 1.252 . S
C23 O14 1.272 . S
C23 O15 1.245 . S
O24 Co0 2.053 . S
O24 C16 1.259 1_655 S
O25 Co2 2.047 . S
O25 C16 1.257 . S
O26 Co1 2.063 1_455 S
O26 C17 1.268 1_455 S
O27 Co0 2.094 . S
O27 C17 1.253 . S
O28 Co7 2.115 . S
O28 C18 1.281 1_455 S
O29 Co7 2.315 1_655 S
O29 C18 1.252 . S
O30 Co0 2.122 . S
O30 C19 1.272 . S
O31 Co2 2.113 1_655 S
O31 C19 1.245 . S
Co32 H35 2.400 1_655 S
Co32 O36 2.009 1_655 S
Co32 O44 2.115 . S
Co32 O45 2.315 1_655 S
Co32 O56 2.053 1_655 S
Co32 O59 2.094 . S
Co32 O62 2.122 . S
Co33 O36 2.126 . S
Co33 H37 2.388 1_455 S
Co33 O38 2.053 1_455 S
Co33 O41 2.047 1_455 S
Co33 O47 2.113 . S
Co33 O58 2.063 . S
Co34 H35 2.388 . S
Co34 O36 2.053 . S
Co34 O38 2.126 1_455 S
Co34 O43 2.063 . S
Co34 O57 2.047 1_556 S
Co34 O63 2.113 1_455 S
H35 Co32 2.400 1_455 S
H35 Co34 2.388 . S
H35 O36 0.760 . S
O36 Co32 2.009 1_455 S
O36 Co33 2.126 . S
O36 Co34 2.053 . S
O36 H35 0.760 . S
H37 Co33 2.388 1_655 S
H37 O38 0.760 . S
H37 Co39 2.400 1_655 S
O38 Co33 2.053 1_655 S
O38 Co34 2.126 1_655 S
O38 H37 0.760 . S
O38 Co39 2.009 1_655 S
Co39 H37 2.400 1_455 S
Co39 O38 2.009 1_455 S
Co39 O40 2.053 . S
Co39 O42 2.094 . S
Co39 O46 2.122 . S
Co39 O60 2.115 . S
Co39 O61 2.315 1_455 S
O40 Co39 2.053 . S
O40 C52 1.259 1_455 S
O41 Co33 2.047 1_655 S
O41 C52 1.257 . S
O42 Co39 2.094 . S
O42 C53 1.253 . S
O43 Co34 2.063 . S
O43 C53 1.268 . S
O44 Co32 2.115 . S
O44 C54 1.281 1_655 S
O45 Co32 2.315 1_455 S
O45 C54 1.252 . S
O46 Co39 2.122 . S
O46 C55 1.272 . S
O47 Co33 2.113 . S
O47 C55 1.245 . S
C48 O56 1.259 1_554 S
C48 O57 1.257 . S
C49 O58 1.268 1_655 S
C49 O59 1.253 . S
C50 O60 1.281 1_655 S
C50 O61 1.252 . S
C51 O62 1.272 . S
C51 O63 1.245 . S
C52 O40 1.259 1_655 S
C52 O41 1.257 . S
C53 O42 1.253 . S
C53 O43 1.268 . S
C54 O44 1.281 1_455 S
C54 O45 1.252 . S
C55 O46 1.272 . S
C55 O47 1.245 . S
O56 Co32 2.053 1_455 S
O56 C48 1.259 1_556 S
O57 Co34 2.047 1_554 S
O57 C48 1.257 . S
O58 Co33 2.063 . S
O58 C49 1.268 1_455 S
O59 Co32 2.094 . S
O59 C49 1.253 . S
O60 Co39 2.115 . S
O60 C50 1.281 1_455 S
O61 Co39 2.315 1_655 S
O61 C50 1.252 . S
O62 Co32 2.122 . S
O62 C51 1.272 . S
O63 Co34 2.113 1_655 S
O63 C51 1.245 . S
Co64 H67 2.400 . S
Co64 O68 2.009 . S
Co64 O76 2.115 . S
Co64 O77 2.315 . S
Co64 O88 2.053 . S
Co64 O91 2.094 . S
Co64 O94 2.122 . S
Co65 O68 2.126 . S
Co65 H69 2.388 . S
Co65 O70 2.053 . S
Co65 O73 2.047 1_554 S
Co65 O79 2.113 . S
Co65 O90 2.063 . S
Co66 H67 2.388 . S
Co66 O68 2.053 . S
Co66 O70 2.126 . S
Co66 O75 2.063 . S
Co66 O89 2.047 . S
Co66 O95 2.113 . S
H67 Co64 2.400 . S
H67 Co66 2.388 . S
H67 O68 0.760 . S
O68 Co64 2.009 . S
O68 Co65 2.126 . S
O68 Co66 2.053 . S
O68 H67 0.760 . S
H69 Co65 2.388 . S
H69 O70 0.760 . S
H69 Co71 2.400 . S
O70 Co65 2.053 . S
O70 Co66 2.126 . S
O70 H69 0.760 . S
O70 Co71 2.009 . S
Co71 H69 2.400 . S
Co71 O70 2.009 . S
Co71 O72 2.053 . S
Co71 O74 2.094 . S
Co71 O78 2.122 . S
Co71 O92 2.115 . S
Co71 O93 2.315 . S
O72 Co71 2.053 . S
O72 C84 1.259 1_554 S
O73 Co65 2.047 1_556 S
O73 C84 1.257 . S
O74 Co71 2.094 . S
O74 C85 1.253 . S
O75 Co66 2.063 . S
O75 C85 1.268 . S
O76 Co64 2.115 . S
O76 C86 1.281 . S
O77 Co64 2.315 . S
O77 C86 1.252 . S
O78 Co71 2.122 . S
O78 C87 1.272 . S
O79 Co65 2.113 . S
O79 C87 1.245 . S
C80 O88 1.259 . S
C80 O89 1.257 . S
C81 O90 1.268 . S
C81 O91 1.253 . S
C82 O92 1.281 . S
C82 O93 1.252 . S
C83 O94 1.272 . S
C83 O95 1.245 . S
C84 O72 1.259 1_556 S
C84 O73 1.257 . S
C85 O74 1.253 . S
C85 O75 1.268 . S
C86 O76 1.281 . S
C86 O77 1.252 . S
C87 O78 1.272 . S
C87 O79 1.245 . S
O88 Co64 2.053 . S
O88 C80 1.259 . S
O89 Co66 2.047 . S
O89 C80 1.257 . S
O90 Co65 2.063 . S
O90 C81 1.268 . S
O91 Co64 2.094 . S
O91 C81 1.253 . S
O92 Co71 2.115 . S
O92 C82 1.281 . S
O93 Co71 2.315 . S
O93 C82 1.252 . S
O94 Co64 2.122 . S
O94 C83 1.272 . S
O95 Co66 2.113 . S
O95 C83 1.245 . S
Co96 H99 2.400 . S
Co96 O100 2.009 . S
Co96 O108 2.115 . S
Co96 O109 2.315 . S
Co96 O120 2.053 . S
Co96 O123 2.094 . S
Co96 O126 2.122 . S
Co97 O100 2.126 . S
Co97 H101 2.388 . S
Co97 O102 2.053 . S
Co97 O105 2.047 . S
Co97 O111 2.113 . S
Co97 O122 2.063 . S
Co98 H99 2.388 . S
Co98 O100 2.053 . S
Co98 O102 2.126 . S
Co98 O107 2.063 . S
Co98 O121 2.047 1_556 S
Co98 O127 2.113 . S
H99 Co96 2.400 . S
H99 Co98 2.388 . S
H99 O100 0.760 . S
O100 Co96 2.009 . S
O100 Co97 2.126 . S
O100 Co98 2.053 . S
O100 H99 0.760 . S
H101 Co97 2.388 . S
H101 O102 0.760 . S
H101 Co103 2.400 . S
O102 Co97 2.053 . S
O102 Co98 2.126 . S
O102 H101 0.760 . S
O102 Co103 2.009 . S
Co103 H101 2.400 . S
Co103 O102 2.009 . S
Co103 O104 2.053 . S
Co103 O106 2.094 . S
Co103 O110 2.122 . S
Co103 O124 2.115 . S
Co103 O125 2.315 . S
O104 Co103 2.053 . S
O104 C116 1.259 . S
O105 Co97 2.047 . S
O105 C116 1.257 . S
O106 Co103 2.094 . S
O106 C117 1.253 . S
O107 Co98 2.063 . S
O107 C117 1.268 . S
O108 Co96 2.115 . S
O108 C118 1.281 . S
O109 Co96 2.315 . S
O109 C118 1.252 . S
O110 Co103 2.122 . S
O110 C119 1.272 . S
O111 Co97 2.113 . S
O111 C119 1.245 . S
C112 O120 1.259 1_554 S
C112 O121 1.257 . S
C113 O122 1.268 . S
C113 O123 1.253 . S
C114 O124 1.281 . S
C114 O125 1.252 . S
C115 O126 1.272 . S
C115 O127 1.245 . S
C116 O104 1.259 . S
C116 O105 1.257 . S
C117 O106 1.253 . S
C117 O107 1.268 . S
C118 O108 1.281 . S
C118 O109 1.252 . S
C119 O110 1.272 . S
C119 O111 1.245 . S
O120 Co96 2.053 . S
O120 C112 1.259 1_556 S
O121 Co98 2.047 1_554 S
O121 C112 1.257 . S
O122 Co97 2.063 . S
O122 C113 1.268 . S
O123 Co96 2.094 . S
O123 C113 1.253 . S
O124 Co103 2.115 . S
O124 C114 1.281 . S
O125 Co103 2.315 . S
O125 C114 1.252 . S
O126 Co96 2.122 . S
O126 C115 1.272 . S
O127 Co98 2.113 . S
O127 C115 1.245 . S
C128 C129 1.170 . S
C128 C130 1.380 1_655 S
C129 C128 1.170 . S
C130 C128 1.380 1_455 S
C130 C131 1.170 . S
C131 C130 1.170 . S
C132 C133 1.170 1_455 S
C132 C134 1.380 . S
C133 C132 1.170 1_655 S
C134 C132 1.380 . S
C134 C135 1.170 . S
C135 C134 1.170 . S
C136 C137 1.170 . S
C136 C138 1.380 . S
C137 C136 1.170 . S
C138 C136 1.380 . S
C138 C139 1.170 . S
C139 C138 1.170 . S
C140 C141 1.170 . S
C140 C142 1.380 . S
C141 C140 1.170 . S
C142 C140 1.380 . S
C142 C143 1.170 . S
C143 C142 1.170 . S
C144 C145 1.170 . S
C144 C146 1.380 . S
C145 C144 1.170 . S
C146 C144 1.380 . S
C146 C147 1.170 . S
C147 C146 1.170 . S
C148 C149 1.170 . S
C148 C150 1.380 . S
C149 C148 1.170 . S
C150 C148 1.380 . S
C150 C151 1.170 . S
C151 C150 1.170 . S
C152 C153 1.170 . S
C152 C154 1.380 1_655 S
C153 C152 1.170 . S
C154 C152 1.380 1_455 S
C154 C155 1.170 . S
C155 C154 1.170 . S
C156 C157 1.170 . S
C156 C158 1.380 1_655 S
C157 C156 1.170 . S
C158 C156 1.380 1_455 S
C158 C159 1.170 . S
C159 C158 1.170 . S
C160 C161 1.170 . S
C160 C162 1.380 . S
C161 C160 1.170 . S
C162 C160 1.380 . S
C162 C163 1.170 . S
C163 C162 1.170 . S
C164 C165 1.170 . S
C164 C166 1.380 1_556 S
C165 C164 1.170 . S
C166 C164 1.380 1_554 S
C166 C167 1.170 . S
C167 C166 1.170 . S
C168 C169 1.170 . S
C168 C170 1.380 . S
C169 C168 1.170 . S
C170 C168 1.380 . S
C170 C171 1.170 . S
C171 C170 1.170 . S
C172 C173 1.170 . S
C172 C174 1.380 1_554 S
C173 C172 1.170 . S
C174 C172 1.380 1_556 S
C174 C175 1.170 . S
C175 C174 1.170 . S
C176 C177 1.170 . S
C176 C178 1.380 1_644 S
C177 C176 1.170 . S
C178 C176 1.380 1_466 S
C178 C179 1.170 . S
C179 C178 1.170 . S
C180 C181 1.170 . S
C180 C182 1.380 1_445 S
C181 C180 1.170 . S
C182 C180 1.380 1_665 S
C182 C183 1.170 . S
C183 C182 1.170 . S
C184 C185 1.170 . S
C184 C186 1.380 1_554 S
C185 C184 1.170 . S
C186 C184 1.380 1_556 S
C186 C187 1.170 . S
C187 C186 1.170 . S
C188 C189 1.170 . S
C188 C190 1.380 . S
C189 C188 1.170 . S
C190 C188 1.380 . S
C190 C191 1.170 . S
C191 C190 1.170 . S
C129 C20 1.547 . S
C131 C16 1.563 . S
C133 C52 1.540 . S
C135 C48 1.563 . S
C137 C84 1.564 . S
C139 C80 1.541 . S
C141 C112 1.553 . S
C143 C116 1.558 . S
C145 C19 0.782 . S
C147 C23 0.756 . S
C149 C51 0.785 . S
C151 C55 0.754 . S
C153 C87 0.750 . S
C155 C83 0.791 . S
C157 C119 0.779 . S
C159 C115 0.795 . S
C161 C114 1.879 . S
C163 C22 1.912 . S
C165 C117 2.088 . S
C167 C17 2.057 . S
C169 C86 1.895 . S
C171 C50 1.909 . S
C173 C81 2.094 . S
C175 C53 2.058 . S
C177 C18 1.724 . S
C179 C54 1.728 . S
C181 C21 1.782 . S
C183 C49 1.785 . S
C185 C82 1.720 . S
C187 C118 1.732 . S
C189 C113 1.786 . S
C191 C85 1.781 . S
