# Generated by pormake.
# Topology umy, (4)-cn, num edge types: 1
# Building blocks:
#     Node 0, Type 0, BuildingBlock: AZAVOO_clean_sbu_0, # of connection points: 4
#     Node 1, Type 0, BuildingBlock: AZAVOO_clean_sbu_0, # of connection points: 4
#     Node 2, Type 0, BuildingBlock: AZAVOO_clean_sbu_0, # of connection points: 4
#     Node 3, Type 0, BuildingBlock: AZAVOO_clean_sbu_0, # of connection points: 4
#     Node 4, Type 0, BuildingBlock: AZAVOO_clean_sbu_0, # of connection points: 4
#     Node 5, Type 0, BuildingBlock: AZAVOO_clean_sbu_0, # of connection points: 4
#     Node 6, Type 0, BuildingBlock: AZAVOO_clean_sbu_0, # of connection points: 4
#     Node 7, Type 0, BuildingBlock: AZAVOO_clean_sbu_0, # of connection points: 4
#     Node 8, Type 0, BuildingBlock: AZAVOO_clean_sbu_0, # of connection points: 4
#     Node 9, Type 0, BuildingBlock: AZAVOO_clean_sbu_0, # of connection points: 4
#     Node 10, Type 0, BuildingBlock: AZAVOO_clean_sbu_0, # of connection points: 4
#     Node 11, Type 0, BuildingBlock: AZAVOO_clean_sbu_0, # of connection points: 4
#     Edge 12, Type (0, 0), None
#     Edge 13, Type (0, 0), None
#     Edge 14, Type (0, 0), None
#     Edge 15, Type (0, 0), None
#     Edge 16, Type (0, 0), None
#     Edge 17, Type (0, 0), None
#     Edge 18, Type (0, 0), None
#     Edge 19, Type (0, 0), None
#     Edge 20, Type (0, 0), None
#     Edge 21, Type (0, 0), None
#     Edge 22, Type (0, 0), None
#     Edge 23, Type (0, 0), None
#     Edge 24, Type (0, 0), None
#     Edge 25, Type (0, 0), None
#     Edge 26, Type (0, 0), None
#     Edge 27, Type (0, 0), None
#     Edge 28, Type (0, 0), None
#     Edge 29, Type (0, 0), None
#     Edge 30, Type (0, 0), None
#     Edge 31, Type (0, 0), None
#     Edge 32, Type (0, 0), None
#     Edge 33, Type (0, 0), None
#     Edge 34, Type (0, 0), None
#     Edge 35, Type (0, 0), None
# Relax obj value: 0.124
# Max RMSD: 0.163
# Mean RMSD: 0.163
data_MOF--net-umy--node1-AZAVOO_clean_sbu_0--edge1-none
_symmetry_space_group_name_H-M    P1
_symmetry_Int_Tables_number       1
_symmetry_cell_setting            triclinic
loop_
_symmetry_equiv_pos_as_xyz
'x, y, z'
_cell_length_a     19.572778
_cell_length_b     19.573283
_cell_length_c     19.027801
_cell_angle_alpha  90.000507
_cell_angle_beta   89.999305
_cell_angle_gamma 120.00233
loop_
_atom_site_label
_atom_site_type_symbol
_atom_site_fract_x
_atom_site_fract_y
_atom_site_fract_z
_atom_type_partial_charge
Mg0 Mg 0.02765 0.31748 0.122 0.0
O1 O 0.0838 0.33748 0.23092 0.0
O2 O 0.21488 0.41174 0.2217 0.0
Mg3 Mg 0.24227 0.44927 0.10628 0.0
C4 C 0.15239 0.37217 0.25804 0.0
C5 C 0.89499 0.19042 0.21133 0.0
O6 O 0.95176 0.1735 0.21669 0.0
O7 O 0.03906 0.44021 0.13006 0.0
O8 O 0.17055 0.51192 0.11856 0.0
O9 O 0.05243 0.22016 0.09822 0.0
O10 O 0.13469 0.3445 0.0713 0.0
C11 C 0.10319 0.50665 0.1264 0.0
C12 C 0.11937 0.27264 0.07236 0.0
O13 O 0.9069 0.25091 0.17624 0.0
Mg14 Mg 0.68002 0.04272 0.28868 0.0
O15 O 0.71618 0.09888 0.3976 0.0
O16 O 0.773 0.22995 0.38838 0.0
Mg17 Mg 0.76286 0.25734 0.27296 0.0
C18 C 0.75008 0.16746 0.42471 0.0
C19 C 0.67444 0.91007 0.378 0.0
O20 O 0.74813 0.96684 0.38336 0.0
O21 O 0.5687 0.05413 0.29674 0.0
O22 O 0.62848 0.18561 0.28524 0.0
O23 O 0.80214 0.06751 0.26489 0.0
O24 O 0.76005 0.14976 0.23798 0.0
C25 C 0.5664 0.11826 0.29308 0.0
C26 C 0.81659 0.13445 0.23903 0.0
O27 O 0.62586 0.92198 0.34291 0.0
Mg28 Mg 0.60718 0.69511 0.45534 0.0
O29 O 0.58718 0.73126 0.56426 0.0
O30 O 0.51292 0.78807 0.55505 0.0
Mg31 Mg 0.47538 0.77793 0.43962 0.0
C32 C 0.55249 0.76516 0.59138 0.0
C33 C 0.73425 0.68952 0.54466 0.0
O34 O 0.75117 0.7632 0.55002 0.0
O35 O 0.48444 0.58379 0.4634 0.0
O36 O 0.41273 0.64355 0.4519 0.0
O37 O 0.7045 0.81722 0.43156 0.0
O38 O 0.58016 0.77513 0.40465 0.0
C39 C 0.41801 0.58147 0.45973 0.0
C40 C 0.65201 0.83167 0.4057 0.0
O41 O 0.67375 0.64094 0.50957 0.0
Mg42 Mg 0.88194 0.62224 0.622 0.0
O43 O 0.82578 0.60224 0.73092 0.0
O44 O 0.6947 0.52799 0.7217 0.0
Mg45 Mg 0.66731 0.49045 0.60628 0.0
C46 C 0.75719 0.56756 0.75804 0.0
C47 C 0.01459 0.7493 0.71133 0.0
O48 O -0.04218 0.76622 0.71669 0.0
O49 O 0.87052 0.49951 0.63006 0.0
O50 O 0.73903 0.4278 0.61856 0.0
O51 O 0.85715 0.71956 0.59822 0.0
O52 O 0.7749 0.59523 0.5713 0.0
C53 C 0.80639 0.43307 0.6264 0.0
C54 C 0.79021 0.66708 0.57236 0.0
O55 O 0.00268 0.68882 0.67623 0.0
Mg56 Mg 0.22956 0.897 0.78867 0.0
O57 O 0.1934 0.84084 0.8976 0.0
O58 O 0.13658 0.70977 0.88838 0.0
Mg59 Mg 0.14672 0.68238 0.77295 0.0
C60 C 0.1595 0.77226 0.92471 0.0
C61 C 0.23514 0.02965 0.878 0.0
O62 O 0.16145 -0.02712 0.88336 0.0
O63 O 0.34088 0.88559 0.79674 0.0
O64 O 0.2811 0.75411 0.78524 0.0
O65 O 0.10745 0.87221 0.76489 0.0
O66 O 0.14954 0.78996 0.73798 0.0
C67 C 0.34318 0.82146 0.79307 0.0
C68 C 0.09299 0.80527 0.73903 0.0
O69 O 0.28372 0.01774 0.84291 0.0
Mg70 Mg 0.30241 0.24462 0.95534 0.0
O71 O 0.3224 0.20846 0.06426 0.0
O72 O 0.39667 0.15165 0.05504 0.0
Mg73 Mg 0.4342 0.16179 0.93962 0.0
C74 C 0.35709 0.17457 0.09138 0.0
C75 C 0.17533 0.2502 1.04466 0.0
O76 O 0.15841 0.17651 0.05003 0.0
O77 O 0.42514 0.35594 0.9634 0.0
O78 O 0.49685 0.29617 0.9519 0.0
O79 O 0.20508 0.1225 0.93156 0.0
O80 O 0.32943 0.1646 0.90464 0.0
C81 C 0.49157 0.35825 0.95973 0.0
C82 C 0.25757 0.10805 0.9057 0.0
O83 O 0.23583 0.29878 1.00957 0.0
Mg84 Mg 0.60718 0.897 0.80384 0.0
O85 O 0.58718 0.84084 0.69491 0.0
O86 O 0.51292 0.70977 0.70414 0.0
Mg87 Mg 0.47538 0.68238 0.81957 0.0
C88 C 0.5525 0.77225 0.66781 0.0
C89 C 0.73424 0.02966 0.71451 0.0
O90 O 0.75117 -0.0271 0.70915 0.0
O91 O 0.48444 0.88559 0.79578 0.0
O92 O 0.41273 0.75411 0.80728 0.0
O93 O 0.7045 0.87222 0.82762 0.0
O94 O 0.58016 0.78997 0.85453 0.0
C95 C 0.41801 0.82146 0.79945 0.0
C96 C 0.65202 0.80528 0.85348 0.0
O97 O 0.67375 0.01775 0.7496 0.0
Mg98 Mg 0.68003 0.62224 0.97049 0.0
O99 O 0.7162 0.60225 0.86157 0.0
O100 O 0.77301 0.52799 0.8708 0.0
Mg101 Mg 0.76286 0.49046 0.98622 0.0
C102 C 0.7501 0.56757 0.83446 0.0
C103 C 0.67445 0.74931 0.88117 0.0
O104 O 0.74814 0.76624 0.87581 0.0
O105 O 0.56871 0.49951 0.96243 0.0
O106 O 0.62848 0.4278 0.97394 0.0
O107 O 0.80215 0.71957 0.99428 0.0
O108 O 0.76005 0.59523 1.02119 0.0
C109 C 0.5664 0.43308 0.9661 0.0
C110 C 0.8166 0.66708 1.02014 0.0
O111 O 0.62587 0.68882 0.91626 0.0
Mg112 Mg 0.02765 0.69509 0.13717 0.0
O113 O 0.08381 0.73126 1.02824 0.0
O114 O 0.21488 0.78808 1.03747 0.0
Mg115 Mg 0.24227 0.77793 0.1529 0.0
C116 C 0.1524 0.76517 1.00114 0.0
C117 C 0.895 0.68951 0.04784 0.0
O118 O 0.95177 0.7632 1.04248 0.0
O119 O 0.03906 0.58378 0.1291 0.0
O120 O 0.17055 0.64355 0.14061 0.0
O121 O 0.05243 0.8172 0.16095 0.0
O122 O 0.13468 0.77512 0.18787 0.0
C123 C 0.10319 0.58147 0.13277 0.0
C124 C 0.11937 0.83166 0.18681 0.0
O125 O 0.9069 0.64093 0.08293 0.0
Mg126 Mg 0.3024 0.04272 0.30383 0.0
O127 O 0.3224 0.09888 0.19491 0.0
O128 O 0.39666 0.22995 0.20414 0.0
Mg129 Mg 0.4342 0.25734 0.31956 0.0
C130 C 0.35708 0.16747 0.1678 0.0
C131 C 0.17533 0.91006 0.21451 0.0
O132 O 0.15841 0.96682 0.20915 0.0
O133 O 0.42513 0.05413 0.29577 0.0
O134 O 0.49685 0.18561 0.30728 0.0
O135 O 0.20508 0.0675 0.32761 0.0
O136 O 0.32942 0.14975 0.35453 0.0
C137 C 0.49157 0.11826 0.29944 0.0
C138 C 0.25756 0.13444 0.35347 0.0
O139 O 0.23583 0.92198 0.2496 0.0
Mg140 Mg 0.22955 0.31748 0.47049 0.0
O141 O 0.19338 0.33748 0.36157 0.0
O142 O 0.13657 0.41174 0.3708 0.0
Mg143 Mg 0.14672 0.44927 0.48622 0.0
C144 C 0.15948 0.37216 0.33446 0.0
C145 C 0.23513 0.19041 0.38117 0.0
O146 O 0.16144 0.17349 0.37581 0.0
O147 O 0.34087 0.44021 0.46243 0.0
O148 O 0.2811 0.51192 0.47394 0.0
O149 O 0.10743 0.22016 0.49427 0.0
O150 O 0.14953 0.3445 0.52119 0.0
C151 C 0.34318 0.50665 0.4661 0.0
C152 C 0.09298 0.27264 0.52014 0.0
O153 O 0.28371 0.25091 0.41626 0.0
Mg154 Mg 0.88193 0.24463 0.63717 0.0
O155 O 0.82577 0.20846 0.52825 0.0
O156 O 0.69469 0.15164 0.53748 0.0
Mg157 Mg 0.66731 0.16179 0.6529 0.0
C158 C 0.75718 0.17455 0.50114 0.0
C159 C 0.01458 0.25021 0.54784 0.0
O160 O -0.04219 0.17652 0.54248 0.0
O161 O 0.87052 0.35594 0.6291 0.0
O162 O 0.73903 0.29617 0.64061 0.0
O163 O 0.85715 0.12252 0.66095 0.0
O164 O 0.7749 0.16461 0.68787 0.0
C165 C 0.80639 0.35825 0.63277 0.0
C166 C 0.79021 0.10807 0.68681 0.0
O167 O 0.00267 0.2988 0.58293 0.0
loop_
_geom_bond_atom_site_label_1
_geom_bond_atom_site_label_2
_geom_bond_distance
_geom_bond_site_symmetry_2
_ccdc_geom_bond_type
Mg0 O1 2.028 . S
Mg0 O7 1.986 . S
Mg0 O9 2.114 . S
Mg0 O10 2.251 . S
Mg0 O13 2.010 1_455 S
O1 Mg0 2.028 . S
O1 C4 1.250 . S
O2 Mg3 2.028 . S
O2 C4 1.248 . S
Mg3 O2 2.028 . S
Mg3 O8 2.032 . S
Mg3 O10 2.079 . S
C4 O1 1.250 . S
C4 O2 1.248 . S
C5 O6 1.264 . S
C5 O13 1.249 . S
O6 C5 1.264 . S
O7 Mg0 1.986 . S
O7 C11 1.246 . S
O8 Mg3 2.032 . S
O8 C11 1.259 . S
O9 Mg0 2.114 . S
O9 C12 1.252 . S
O10 Mg0 2.251 . S
O10 Mg3 2.079 . S
O10 C12 1.273 . S
C11 O7 1.246 . S
C11 O8 1.259 . S
C12 O9 1.252 . S
C12 O10 1.273 . S
O13 Mg0 2.010 1_655 S
O13 C5 1.249 . S
Mg14 O15 2.028 . S
Mg14 O21 1.986 . S
Mg14 O23 2.114 . S
Mg14 O24 2.251 . S
Mg14 O27 2.010 1_545 S
O15 Mg14 2.028 . S
O15 C18 1.250 . S
O16 Mg17 2.028 . S
O16 C18 1.248 . S
Mg17 O16 2.028 . S
Mg17 O22 2.032 . S
Mg17 O24 2.079 . S
C18 O15 1.250 . S
C18 O16 1.248 . S
C19 O20 1.264 . S
C19 O27 1.249 . S
O20 C19 1.264 . S
O21 Mg14 1.986 . S
O21 C25 1.246 . S
O22 Mg17 2.032 . S
O22 C25 1.259 . S
O23 Mg14 2.114 . S
O23 C26 1.252 . S
O24 Mg14 2.251 . S
O24 Mg17 2.079 . S
O24 C26 1.273 . S
C25 O21 1.246 . S
C25 O22 1.259 . S
C26 O23 1.252 . S
C26 O24 1.273 . S
O27 Mg14 2.010 1_565 S
O27 C19 1.249 . S
Mg28 O29 2.028 . S
Mg28 O35 1.986 . S
Mg28 O37 2.114 . S
Mg28 O38 2.251 . S
Mg28 O41 2.010 . S
O29 Mg28 2.028 . S
O29 C32 1.250 . S
O30 Mg31 2.028 . S
O30 C32 1.248 . S
Mg31 O30 2.028 . S
Mg31 O36 2.032 . S
Mg31 O38 2.079 . S
C32 O29 1.250 . S
C32 O30 1.248 . S
C33 O34 1.264 . S
C33 O41 1.249 . S
O34 C33 1.264 . S
O35 Mg28 1.986 . S
O35 C39 1.246 . S
O36 Mg31 2.032 . S
O36 C39 1.259 . S
O37 Mg28 2.114 . S
O37 C40 1.252 . S
O38 Mg28 2.251 . S
O38 Mg31 2.079 . S
O38 C40 1.273 . S
C39 O35 1.246 . S
C39 O36 1.259 . S
C40 O37 1.252 . S
C40 O38 1.273 . S
O41 Mg28 2.010 . S
O41 C33 1.249 . S
Mg42 O43 2.028 . S
Mg42 O49 1.986 . S
Mg42 O51 2.114 . S
Mg42 O52 2.251 . S
Mg42 O55 2.010 1_655 S
O43 Mg42 2.028 . S
O43 C46 1.250 . S
O44 Mg45 2.028 . S
O44 C46 1.248 . S
Mg45 O44 2.028 . S
Mg45 O50 2.032 . S
Mg45 O52 2.079 . S
C46 O43 1.250 . S
C46 O44 1.248 . S
C47 O48 1.264 . S
C47 O55 1.249 . S
O48 C47 1.264 . S
O49 Mg42 1.986 . S
O49 C53 1.246 . S
O50 Mg45 2.032 . S
O50 C53 1.259 . S
O51 Mg42 2.114 . S
O51 C54 1.252 . S
O52 Mg42 2.251 . S
O52 Mg45 2.079 . S
O52 C54 1.273 . S
C53 O49 1.246 . S
C53 O50 1.259 . S
C54 O51 1.252 . S
C54 O52 1.273 . S
O55 Mg42 2.010 1_455 S
O55 C47 1.249 . S
Mg56 O57 2.028 . S
Mg56 O63 1.986 . S
Mg56 O65 2.114 . S
Mg56 O66 2.251 . S
Mg56 O69 2.010 1_565 S
O57 Mg56 2.028 . S
O57 C60 1.250 . S
O58 Mg59 2.028 . S
O58 C60 1.248 . S
Mg59 O58 2.028 . S
Mg59 O64 2.032 . S
Mg59 O66 2.079 . S
C60 O57 1.250 . S
C60 O58 1.248 . S
C61 O62 1.264 . S
C61 O69 1.249 . S
O62 C61 1.264 . S
O63 Mg56 1.986 . S
O63 C67 1.246 . S
O64 Mg59 2.032 . S
O64 C67 1.259 . S
O65 Mg56 2.114 . S
O65 C68 1.252 . S
O66 Mg56 2.251 . S
O66 Mg59 2.079 . S
O66 C68 1.273 . S
C67 O63 1.246 . S
C67 O64 1.259 . S
C68 O65 1.252 . S
C68 O66 1.273 . S
O69 Mg56 2.010 1_545 S
O69 C61 1.249 . S
Mg70 O71 2.028 1_556 S
Mg70 O77 1.986 . S
Mg70 O79 2.114 . S
Mg70 O80 2.251 . S
Mg70 O83 2.010 . S
O71 Mg70 2.028 1_554 S
O71 C74 1.250 . S
O72 Mg73 2.028 1_554 S
O72 C74 1.248 . S
Mg73 O72 2.028 1_556 S
Mg73 O78 2.032 . S
Mg73 O80 2.079 . S
C74 O71 1.250 . S
C74 O72 1.248 . S
C75 O76 1.264 . S
C75 O83 1.249 . S
O76 C75 1.264 . S
O77 Mg70 1.986 . S
O77 C81 1.246 . S
O78 Mg73 2.032 . S
O78 C81 1.259 . S
O79 Mg70 2.114 . S
O79 C82 1.252 . S
O80 Mg70 2.251 . S
O80 Mg73 2.079 . S
O80 C82 1.273 . S
C81 O77 1.246 . S
C81 O78 1.259 . S
C82 O79 1.252 . S
C82 O80 1.273 . S
O83 Mg70 2.010 . S
O83 C75 1.249 . S
Mg84 O85 2.028 . S
Mg84 O91 1.986 . S
Mg84 O93 2.114 . S
Mg84 O94 2.251 . S
Mg84 O97 2.010 1_565 S
O85 Mg84 2.028 . S
O85 C88 1.250 . S
O86 Mg87 2.028 . S
O86 C88 1.248 . S
Mg87 O86 2.028 . S
Mg87 O92 2.032 . S
Mg87 O94 2.079 . S
C88 O85 1.250 . S
C88 O86 1.248 . S
C89 O90 1.264 . S
C89 O97 1.249 . S
O90 C89 1.264 . S
O91 Mg84 1.986 . S
O91 C95 1.246 . S
O92 Mg87 2.032 . S
O92 C95 1.259 . S
O93 Mg84 2.114 . S
O93 C96 1.252 . S
O94 Mg84 2.251 . S
O94 Mg87 2.079 . S
O94 C96 1.273 . S
C95 O91 1.246 . S
C95 O92 1.259 . S
C96 O93 1.252 . S
C96 O94 1.273 . S
O97 Mg84 2.010 1_545 S
O97 C89 1.249 . S
Mg98 O99 2.028 . S
Mg98 O105 1.986 . S
Mg98 O107 2.114 . S
Mg98 O108 2.251 . S
Mg98 O111 2.010 . S
O99 Mg98 2.028 . S
O99 C102 1.250 . S
O100 Mg101 2.028 . S
O100 C102 1.248 . S
Mg101 O100 2.028 . S
Mg101 O106 2.032 . S
Mg101 O108 2.079 . S
C102 O99 1.250 . S
C102 O100 1.248 . S
C103 O104 1.264 . S
C103 O111 1.249 . S
O104 C103 1.264 . S
O105 Mg98 1.986 . S
O105 C109 1.246 . S
O106 Mg101 2.032 . S
O106 C109 1.259 . S
O107 Mg98 2.114 . S
O107 C110 1.252 . S
O108 Mg98 2.251 . S
O108 Mg101 2.079 . S
O108 C110 1.273 . S
C109 O105 1.246 . S
C109 O106 1.259 . S
C110 O107 1.252 . S
C110 O108 1.273 . S
O111 Mg98 2.010 . S
O111 C103 1.249 . S
Mg112 O113 2.028 1_554 S
Mg112 O119 1.986 . S
Mg112 O121 2.114 . S
Mg112 O122 2.251 . S
Mg112 O125 2.010 1_455 S
O113 Mg112 2.028 1_556 S
O113 C116 1.250 . S
O114 Mg115 2.028 1_556 S
O114 C116 1.248 . S
Mg115 O114 2.028 1_554 S
Mg115 O120 2.032 . S
Mg115 O122 2.079 . S
C116 O113 1.250 . S
C116 O114 1.248 . S
C117 O118 1.264 . S
C117 O125 1.249 . S
O118 C117 1.264 . S
O119 Mg112 1.986 . S
O119 C123 1.246 . S
O120 Mg115 2.032 . S
O120 C123 1.259 . S
O121 Mg112 2.114 . S
O121 C124 1.252 . S
O122 Mg112 2.251 . S
O122 Mg115 2.079 . S
O122 C124 1.273 . S
C123 O119 1.246 . S
C123 O120 1.259 . S
C124 O121 1.252 . S
C124 O122 1.273 . S
O125 Mg112 2.010 1_655 S
O125 C117 1.249 . S
Mg126 O127 2.028 . S
Mg126 O133 1.986 . S
Mg126 O135 2.114 . S
Mg126 O136 2.251 . S
Mg126 O139 2.010 1_545 S
O127 Mg126 2.028 . S
O127 C130 1.250 . S
O128 Mg129 2.028 . S
O128 C130 1.248 . S
Mg129 O128 2.028 . S
Mg129 O134 2.032 . S
Mg129 O136 2.079 . S
C130 O127 1.250 . S
C130 O128 1.248 . S
C131 O132 1.264 . S
C131 O139 1.249 . S
O132 C131 1.264 . S
O133 Mg126 1.986 . S
O133 C137 1.246 . S
O134 Mg129 2.032 . S
O134 C137 1.259 . S
O135 Mg126 2.114 . S
O135 C138 1.252 . S
O136 Mg126 2.251 . S
O136 Mg129 2.079 . S
O136 C138 1.273 . S
C137 O133 1.246 . S
C137 O134 1.259 . S
C138 O135 1.252 . S
C138 O136 1.273 . S
O139 Mg126 2.010 1_565 S
O139 C131 1.249 . S
Mg140 O141 2.028 . S
Mg140 O147 1.986 . S
Mg140 O149 2.114 . S
Mg140 O150 2.251 . S
Mg140 O153 2.010 . S
O141 Mg140 2.028 . S
O141 C144 1.250 . S
O142 Mg143 2.028 . S
O142 C144 1.248 . S
Mg143 O142 2.028 . S
Mg143 O148 2.032 . S
Mg143 O150 2.079 . S
C144 O141 1.250 . S
C144 O142 1.248 . S
C145 O146 1.264 . S
C145 O153 1.249 . S
O146 C145 1.264 . S
O147 Mg140 1.986 . S
O147 C151 1.246 . S
O148 Mg143 2.032 . S
O148 C151 1.259 . S
O149 Mg140 2.114 . S
O149 C152 1.252 . S
O150 Mg140 2.251 . S
O150 Mg143 2.079 . S
O150 C152 1.273 . S
C151 O147 1.246 . S
C151 O148 1.259 . S
C152 O149 1.252 . S
C152 O150 1.273 . S
O153 Mg140 2.010 . S
O153 C145 1.249 . S
Mg154 O155 2.028 . S
Mg154 O161 1.986 . S
Mg154 O163 2.114 . S
Mg154 O164 2.251 . S
Mg154 O167 2.010 1_655 S
O155 Mg154 2.028 . S
O155 C158 1.250 . S
O156 Mg157 2.028 . S
O156 C158 1.248 . S
Mg157 O156 2.028 . S
Mg157 O162 2.032 . S
Mg157 O164 2.079 . S
C158 O155 1.250 . S
C158 O156 1.248 . S
C159 O160 1.264 . S
C159 O167 1.249 . S
O160 C159 1.264 . S
O161 Mg154 1.986 . S
O161 C165 1.246 . S
O162 Mg157 2.032 . S
O162 C165 1.259 . S
O163 Mg154 2.114 . S
O163 C166 1.252 . S
O164 Mg154 2.251 . S
O164 Mg157 2.079 . S
O164 C166 1.273 . S
C165 O161 1.246 . S
C165 O162 1.259 . S
C166 O163 1.252 . S
C166 O164 1.273 . S
O167 Mg154 2.010 1_455 S
O167 C159 1.249 . S
C123 C11 1.336 . S
C25 C137 1.335 . S
C39 C151 1.335 . S
C53 C165 1.335 . S
C95 C67 1.335 . S
C81 C109 1.335 . S
C12 C75 1.533 1_554 S
C26 C5 1.533 . S
C40 C19 1.533 . S
C33 C54 1.533 . S
C47 C68 1.533 . S
C61 C82 1.533 . S
C103 C96 1.533 . S
C110 C117 1.533 1_556 S
C131 C124 1.533 . S
C138 C145 1.533 . S
C152 C159 1.533 . S
C166 C89 1.533 . S
C144 C4 1.322 . S
C158 C18 1.322 . S
C88 C32 1.322 . S
C46 C102 1.322 . S
C60 C116 1.322 . S
C130 C74 1.322 . S
