# Generated by pormake.
# Topology smu, (6)-cn, num edge types: 1
# Building blocks:
#     Node 0, Type 0, BuildingBlock: LEVNOQ01_clean_sbu_1, # of connection points: 6
#     Node 1, Type 0, BuildingBlock: LEVNOQ01_clean_sbu_1, # of connection points: 6
#     Node 2, Type 0, BuildingBlock: LEVNOQ01_clean_sbu_1, # of connection points: 6
#     Node 3, Type 0, BuildingBlock: LEVNOQ01_clean_sbu_1, # of connection points: 6
#     Node 4, Type 0, BuildingBlock: LEVNOQ01_clean_sbu_1, # of connection points: 6
#     Node 5, Type 0, BuildingBlock: LEVNOQ01_clean_sbu_1, # of connection points: 6
#     Edge 6, Type (0, 0), None
#     Edge 7, Type (0, 0), None
#     Edge 8, Type (0, 0), None
#     Edge 9, Type (0, 0), None
#     Edge 10, Type (0, 0), None
#     Edge 11, Type (0, 0), None
#     Edge 12, Type (0, 0), None
#     Edge 13, Type (0, 0), None
#     Edge 14, Type (0, 0), None
#     Edge 15, Type (0, 0), None
#     Edge 16, Type (0, 0), None
#     Edge 17, Type (0, 0), None
#     Edge 18, Type (0, 0), None
#     Edge 19, Type (0, 0), None
#     Edge 20, Type (0, 0), None
#     Edge 21, Type (0, 0), None
#     Edge 22, Type (0, 0), None
#     Edge 23, Type (0, 0), None
# Relax obj value: 0.263
# Max RMSD: 0.258
# Mean RMSD: 0.258
data_MOF--net-smu--node1-LEVNOQ01_clean_sbu_1--edge1-none
_symmetry_space_group_name_H-M    P1
_symmetry_Int_Tables_number       1
_symmetry_cell_setting            triclinic
loop_
_symmetry_equiv_pos_as_xyz
'x, y, z'
_cell_length_a     13.86151
_cell_length_b     13.848054
_cell_length_c     14.043393
_cell_angle_alpha  90.020864
_cell_angle_beta   89.950324
_cell_angle_gamma 119.87456
loop_
_atom_site_label
_atom_site_type_symbol
_atom_site_fract_x
_atom_site_fract_y
_atom_site_fract_z
_atom_type_partial_charge
O0 O 0.53768 0.17761 0.38133 0.0
Mg1 Mg 0.41743 0.22019 0.44457 0.0
O2 O 0.44655 0.04326 0.27241 0.0
Mg3 Mg 0.32205 0.08997 0.24132 0.0
O4 O 0.28519 0.08718 0.39645 0.0
O5 O 0.30104 0.12099 0.54944 0.0
O6 O 0.19418 0.14173 0.21763 0.0
O7 O 0.18439 0.91623 0.2236 0.0
Mg8 Mg 0.25588 0.11302 0.0334 0.0
O9 O 0.36743 0.08325 0.0855 0.0
O10 O 0.26261 0.25458 0.09632 0.0
O11 O 0.11793 0.95743 0.09283 0.0
O12 O 0.37747 0.11269 0.93407 0.0
C13 C 0.45432 0.35298 0.30106 0.0
C14 C 0.53241 0.10565 0.32058 0.0
C15 C 0.24928 0.05373 0.48056 0.0
C16 C 0.19638 0.21762 0.16631 0.0
C17 C 0.10991 0.89092 0.16014 0.0
C18 C 0.37997 0.05196 0.00147 0.0
O19 O 0.38411 0.3277 0.3666 0.0
O20 O 0.45704 0.27598 0.253 0.0
O21 O 0.62533 0.44455 0.38038 0.0
Mg22 Mg 0.78719 0.56459 0.44445 0.0
O23 O 0.58358 0.53671 0.2712 0.0
Mg24 Mg 0.75467 0.66084 0.24124 0.0
O25 O 0.78666 0.69736 0.39652 0.0
O26 O 0.80364 0.68048 0.54954 0.0
O27 O 0.93426 0.78861 0.21839 0.0
O28 O 0.71854 0.79855 0.22296 0.0
Mg29 Mg 0.84515 0.72725 0.03342 0.0
O30 O 0.70409 0.61536 0.0854 0.0
O31 O 0.97919 0.72004 0.09724 0.0
O32 O 0.82689 0.86531 0.09263 0.0
O33 O 0.72383 0.60577 0.93398 0.0
C34 C 0.8852 0.52877 0.30213 0.0
C35 C 0.55947 0.45045 0.31923 0.0
C36 C 0.78909 0.73309 0.48072 0.0
C37 C 0.00802 0.78609 0.16736 0.0
C38 C 0.76793 0.87319 0.15964 0.0
C39 C 0.66047 0.60294 0.0014 0.0
O40 O 0.929 0.59886 0.36782 0.0
O41 O 0.80576 0.52572 0.25364 0.0
O42 O 0.8066 0.35779 0.38166 0.0
Mg43 Mg 0.76471 0.19549 0.44524 0.0
O44 O 0.93997 0.39954 0.27201 0.0
Mg45 Mg 0.89286 0.22841 0.2415 0.0
O46 O 0.89753 0.19553 0.39674 0.0
O47 O 0.86383 0.17792 0.54983 0.0
O48 O 0.84108 0.04879 0.21809 0.0
O49 O 0.0663 0.26418 0.22275 0.0
Mg50 Mg 0.8689 0.13852 0.03345 0.0
O51 O 0.898 0.27969 0.08559 0.0
O52 O 0.72787 0.00445 0.09708 0.0
O53 O 0.02487 0.15614 0.09222 0.0
O54 O 0.86874 0.2602 0.93415 0.0
C55 C 0.63038 0.09838 0.3028 0.0
C56 C 0.87814 0.42376 0.32047 0.0
C57 C 0.93086 0.19271 0.48083 0.0
C58 C 0.76501 0.97527 0.16703 0.0
C59 C 0.0916 0.21496 0.15914 0.0
C60 C 0.92911 0.32346 0.00156 0.0
O61 O 0.65603 0.05423 0.36877 0.0
O62 O 0.70691 0.17783 0.25443 0.0
O63 O 0.95499 0.12192 0.88694 0.0
Mg64 Mg 0.11034 0.26088 0.94551 0.0
O65 O 0.91264 0.18862 0.75722 0.0
Mg66 Mg 0.08659 0.32599 0.73854 0.0
O67 O 0.08321 0.37521 0.89435 0.0
O68 O 0.11133 0.38197 0.04607 0.0
O69 O 0.27253 0.46063 0.72497 0.0
O70 O 0.03995 0.45051 0.70708 0.0
Mg71 Mg 0.21438 0.41918 0.53421 0.0
O72 O 0.08114 0.28778 0.58341 0.0
O73 O 0.32351 0.38735 0.61104 0.0
O74 O 0.17285 0.54044 0.59671 0.0
O75 O 0.11497 0.30185 0.43031 0.0
C76 C 0.21435 0.19966 0.81377 0.0
C77 C 0.888 0.11368 0.82016 0.0
C78 C 0.05091 0.38533 0.97883 0.0
C79 C 0.34915 0.45755 0.67667 0.0
C80 C 0.10154 0.53579 0.65783 0.0
C81 C 0.04787 0.25083 0.49951 0.0
O82 O 0.25152 0.26591 0.88373 0.0
O83 O 0.13855 0.19774 0.76255 0.0
O84 O 0.15286 0.0275 0.88721 0.0
Mg85 Mg 0.1359 0.87139 0.94542 0.0
O86 O 0.26248 0.07026 0.75785 0.0
Mg87 Mg 0.22596 0.8963 0.73855 0.0
O88 O 0.27717 0.8981 0.89433 0.0
O89 O 0.25545 0.86977 0.046 0.0
O90 O 0.17467 0.7102 0.72426 0.0
O91 O 0.39698 0.94324 0.70813 0.0
Mg92 Mg 0.19368 0.77005 0.5343 0.0
O93 O 0.19511 0.9035 0.58332 0.0
O94 O 0.05176 0.66083 0.60973 0.0
O95 O 0.3556 0.81085 0.59755 0.0
O96 O 0.17639 0.86964 0.43016 0.0
C97 C 0.97193 0.76819 0.81268 0.0
C98 C 0.21206 0.09485 0.82077 0.0
C99 C 0.31939 0.93005 0.97879 0.0
C100 C 0.09514 0.63426 0.67564 0.0
C101 C 0.42141 0.88198 0.65901 0.0
C102 C 0.19151 0.93663 0.4993 0.0
O103 O 0.00069 0.73063 0.88264 0.0
O104 O 0.04586 0.84437 0.7618 0.0
O105 O 0.86136 0.82963 0.88658 0.0
Mg106 Mg 0.72263 0.84669 0.94553 0.0
O107 O 0.79463 0.72035 0.75704 0.0
Mg108 Mg 0.6572 0.75725 0.73871 0.0
O109 O 0.60853 0.70542 0.89447 0.0
O110 O 0.60179 0.72691 0.04616 0.0
O111 O 0.52279 0.80905 0.72558 0.0
O112 O 0.53265 0.58621 0.70785 0.0
Mg113 Mg 0.56301 0.79132 0.53485 0.0
O114 O 0.69449 0.78906 0.58353 0.0
O115 O 0.59645 0.93288 0.6116 0.0
O116 O 0.4421 0.62902 0.59789 0.0
O117 O 0.67961 0.80811 0.43047 0.0
C118 C 0.78331 0.0114 0.81327 0.0
C119 C 0.86961 0.77073 0.81978 0.0
C120 C 0.59852 0.66309 0.97889 0.0
C121 C 0.52627 0.88887 0.67723 0.0
C122 C 0.44715 0.56253 0.65897 0.0
C123 C 0.73099 0.79222 0.49951 0.0
O124 O 0.71734 0.98272 0.88345 0.0
O125 O 0.78538 0.93737 0.76213 0.0
loop_
_geom_bond_atom_site_label_1
_geom_bond_atom_site_label_2
_geom_bond_distance
_geom_bond_site_symmetry_2
_ccdc_geom_bond_type
O0 Mg1 1.990 . S
O0 C14 1.253 . S
Mg1 O0 1.990 . S
Mg1 O4 2.180 . S
Mg1 O5 2.117 . S
Mg1 O19 2.030 . S
O2 Mg3 2.072 . S
O2 C14 1.260 . S
Mg3 O2 2.072 . S
Mg3 O4 2.099 . S
Mg3 O6 2.079 . S
Mg3 O7 2.072 1_545 S
Mg3 O9 2.099 . S
Mg3 O20 2.079 . S
O4 Mg1 2.180 . S
O4 Mg3 2.099 . S
O4 C15 1.279 . S
O5 Mg1 2.117 . S
O5 C15 1.250 . S
O6 Mg3 2.079 . S
O6 C16 1.264 . S
O7 Mg3 2.072 1_565 S
O7 C17 1.260 . S
Mg8 O9 2.180 1_565 S
Mg8 O10 2.029 1_565 S
Mg8 O11 1.991 . S
Mg8 O12 2.118 1_554 S
O9 Mg3 2.099 . S
O9 Mg8 2.180 1_545 S
O9 C18 1.279 . S
O10 Mg8 2.029 1_545 S
O10 C16 1.248 . S
O11 Mg8 1.991 . S
O11 C17 1.253 . S
O12 Mg8 2.118 1_556 S
O12 C18 1.250 1_566 S
C13 O19 1.248 . S
C13 O20 1.264 . S
C14 O0 1.253 . S
C14 O2 1.260 . S
C15 O4 1.279 . S
C15 O5 1.250 . S
C16 O6 1.264 . S
C16 O10 1.248 . S
C17 O7 1.260 . S
C17 O11 1.253 . S
C18 O9 1.279 . S
C18 O12 1.250 1_544 S
O19 Mg1 2.030 . S
O19 C13 1.248 . S
O20 Mg3 2.079 . S
O20 C13 1.264 . S
O21 Mg22 1.990 . S
O21 C35 1.253 . S
Mg22 O21 1.990 . S
Mg22 O25 2.180 . S
Mg22 O26 2.117 . S
Mg22 O40 2.030 . S
O23 Mg24 2.072 . S
O23 C35 1.260 . S
Mg24 O23 2.072 . S
Mg24 O25 2.099 . S
Mg24 O27 2.079 . S
Mg24 O28 2.072 . S
Mg24 O30 2.099 . S
Mg24 O41 2.079 . S
O25 Mg22 2.180 . S
O25 Mg24 2.099 . S
O25 C36 1.279 . S
O26 Mg22 2.117 . S
O26 C36 1.250 . S
O27 Mg24 2.079 . S
O27 C37 1.264 1_655 S
O28 Mg24 2.072 . S
O28 C38 1.260 . S
Mg29 O30 2.180 . S
Mg29 O31 2.030 1_655 S
Mg29 O32 1.990 . S
Mg29 O33 2.117 1_554 S
O30 Mg24 2.099 . S
O30 Mg29 2.180 . S
O30 C39 1.279 . S
O31 Mg29 2.030 1_455 S
O31 C37 1.248 . S
O32 Mg29 1.990 . S
O32 C38 1.253 . S
O33 Mg29 2.117 1_556 S
O33 C39 1.250 1_556 S
C34 O40 1.248 . S
C34 O41 1.264 . S
C35 O21 1.253 . S
C35 O23 1.260 . S
C36 O25 1.279 . S
C36 O26 1.250 . S
C37 O27 1.264 1_455 S
C37 O31 1.248 . S
C38 O28 1.260 . S
C38 O32 1.253 . S
C39 O30 1.279 . S
C39 O33 1.250 1_554 S
O40 Mg22 2.030 . S
O40 C34 1.248 . S
O41 Mg24 2.079 . S
O41 C34 1.264 . S
O42 Mg43 1.990 . S
O42 C56 1.253 . S
Mg43 O42 1.990 . S
Mg43 O46 2.180 . S
Mg43 O47 2.117 . S
Mg43 O61 2.030 . S
O44 Mg45 2.072 . S
O44 C56 1.260 . S
Mg45 O44 2.072 . S
Mg45 O46 2.099 . S
Mg45 O48 2.079 . S
Mg45 O49 2.072 1_655 S
Mg45 O51 2.099 . S
Mg45 O62 2.079 . S
O46 Mg43 2.180 . S
O46 Mg45 2.099 . S
O46 C57 1.279 . S
O47 Mg43 2.117 . S
O47 C57 1.250 . S
O48 Mg45 2.079 . S
O48 C58 1.264 1_545 S
O49 Mg45 2.072 1_455 S
O49 C59 1.260 . S
Mg50 O51 2.179 1_455 S
Mg50 O52 2.030 1_445 S
Mg50 O53 1.990 . S
Mg50 O54 2.117 1_554 S
O51 Mg45 2.099 . S
O51 Mg50 2.179 1_655 S
O51 C60 1.279 . S
O52 Mg50 2.030 1_665 S
O52 C58 1.248 . S
O53 Mg50 1.990 . S
O53 C59 1.253 . S
O54 Mg50 2.117 1_556 S
O54 C60 1.250 1_456 S
C55 O61 1.248 . S
C55 O62 1.264 . S
C56 O42 1.253 . S
C56 O44 1.260 . S
C57 O46 1.279 . S
C57 O47 1.250 . S
C58 O48 1.264 1_565 S
C58 O52 1.248 . S
C59 O49 1.260 . S
C59 O53 1.253 . S
C60 O51 1.279 . S
C60 O54 1.250 1_654 S
O61 Mg43 2.030 . S
O61 C55 1.248 . S
O62 Mg45 2.079 . S
O62 C55 1.264 . S
O63 Mg64 1.991 . S
O63 C77 1.253 . S
Mg64 O63 1.991 . S
Mg64 O67 2.180 1_655 S
Mg64 O68 2.118 1_556 S
Mg64 O82 2.029 1_655 S
O65 Mg66 2.072 1_655 S
O65 C77 1.260 . S
Mg66 O65 2.072 1_455 S
Mg66 O67 2.099 . S
Mg66 O69 2.079 . S
Mg66 O70 2.072 . S
Mg66 O72 2.099 . S
Mg66 O83 2.079 . S
O67 Mg64 2.180 1_455 S
O67 Mg66 2.099 . S
O67 C78 1.279 . S
O68 Mg64 2.118 1_554 S
O68 C78 1.250 1_654 S
O69 Mg66 2.079 . S
O69 C79 1.264 . S
O70 Mg66 2.072 . S
O70 C80 1.260 . S
Mg71 O72 2.180 . S
Mg71 O73 2.030 . S
Mg71 O74 1.990 . S
Mg71 O75 2.117 . S
O72 Mg66 2.099 . S
O72 Mg71 2.180 . S
O72 C81 1.279 . S
O73 Mg71 2.030 . S
O73 C79 1.248 . S
O74 Mg71 1.990 . S
O74 C80 1.253 . S
O75 Mg71 2.117 . S
O75 C81 1.250 . S
C76 O82 1.248 . S
C76 O83 1.264 . S
C77 O63 1.253 . S
C77 O65 1.260 . S
C78 O67 1.279 . S
C78 O68 1.250 1_456 S
C79 O69 1.264 . S
C79 O73 1.248 . S
C80 O70 1.260 . S
C80 O74 1.253 . S
C81 O72 1.279 . S
C81 O75 1.250 . S
O82 Mg64 2.029 1_455 S
O82 C76 1.248 . S
O83 Mg66 2.079 . S
O83 C76 1.264 . S
O84 Mg85 1.990 . S
O84 C98 1.253 . S
Mg85 O84 1.990 . S
Mg85 O88 2.179 1_545 S
Mg85 O89 2.117 1_556 S
Mg85 O103 2.030 1_445 S
O86 Mg87 2.072 1_545 S
O86 C98 1.260 . S
Mg87 O86 2.072 1_565 S
Mg87 O88 2.099 . S
Mg87 O90 2.079 . S
Mg87 O91 2.072 . S
Mg87 O93 2.099 . S
Mg87 O104 2.079 . S
O88 Mg85 2.179 1_565 S
O88 Mg87 2.099 . S
O88 C99 1.279 . S
O89 Mg85 2.117 1_554 S
O89 C99 1.250 1_544 S
O90 Mg87 2.079 . S
O90 C100 1.264 . S
O91 Mg87 2.072 . S
O91 C101 1.260 . S
Mg92 O93 2.180 . S
Mg92 O94 2.030 . S
Mg92 O95 1.990 . S
Mg92 O96 2.117 . S
O93 Mg87 2.099 . S
O93 Mg92 2.180 . S
O93 C102 1.279 . S
O94 Mg92 2.030 . S
O94 C100 1.248 . S
O95 Mg92 1.990 . S
O95 C101 1.253 . S
O96 Mg92 2.117 . S
O96 C102 1.250 . S
C97 O103 1.248 . S
C97 O104 1.264 1_655 S
C98 O84 1.253 . S
C98 O86 1.260 . S
C99 O88 1.279 . S
C99 O89 1.250 1_566 S
C100 O90 1.264 . S
C100 O94 1.248 . S
C101 O91 1.260 . S
C101 O95 1.253 . S
C102 O93 1.279 . S
C102 O96 1.250 . S
O103 Mg85 2.030 1_665 S
O103 C97 1.248 . S
O104 Mg87 2.079 . S
O104 C97 1.264 1_455 S
O105 Mg106 1.990 . S
O105 C119 1.253 . S
Mg106 O105 1.990 . S
Mg106 O109 2.180 . S
Mg106 O110 2.117 1_556 S
Mg106 O124 2.030 1_565 S
O107 Mg108 2.072 . S
O107 C119 1.260 . S
Mg108 O107 2.072 . S
Mg108 O109 2.099 . S
Mg108 O111 2.079 . S
Mg108 O112 2.072 . S
Mg108 O114 2.099 . S
Mg108 O125 2.079 . S
O109 Mg106 2.180 . S
O109 Mg108 2.099 . S
O109 C120 1.279 . S
O110 Mg106 2.117 1_554 S
O110 C120 1.250 1_554 S
O111 Mg108 2.079 . S
O111 C121 1.264 . S
O112 Mg108 2.072 . S
O112 C122 1.260 . S
Mg113 O114 2.180 . S
Mg113 O115 2.030 . S
Mg113 O116 1.990 . S
Mg113 O117 2.117 . S
O114 Mg108 2.099 . S
O114 Mg113 2.180 . S
O114 C123 1.279 . S
O115 Mg113 2.030 . S
O115 C121 1.248 . S
O116 Mg113 1.990 . S
O116 C122 1.253 . S
O117 Mg113 2.117 . S
O117 C123 1.250 . S
C118 O124 1.248 . S
C118 O125 1.264 1_545 S
C119 O105 1.253 . S
C119 O107 1.260 . S
C120 O109 1.279 . S
C120 O110 1.250 1_556 S
C121 O111 1.264 . S
C121 O115 1.248 . S
C122 O112 1.260 . S
C122 O116 1.253 . S
C123 O114 1.279 . S
C123 O117 1.250 . S
O124 Mg106 2.030 1_545 S
O124 C118 1.248 . S
O125 Mg108 2.079 . S
O125 C118 1.264 1_565 S
C99 C18 1.767 1_566 S
C123 C36 2.227 . S
C60 C78 1.767 1_654 S
C15 C102 2.227 1_545 S
C120 C39 1.767 1_556 S
C57 C81 2.227 1_655 S
C14 C55 1.710 . S
C35 C13 1.710 . S
C56 C34 1.710 . S
C80 C100 1.710 . S
C101 C121 1.710 . S
C79 C122 1.710 . S
C16 C59 1.301 . S
C37 C17 1.301 . S
C58 C38 1.301 . S
C76 C98 1.301 . S
C97 C119 1.301 . S
C77 C118 1.301 . S
