# Generated by pormake.
# Topology sxc, (6)-cn, num edge types: 1
# Building blocks:
#     Node 0, Type 0, BuildingBlock: BETFAJ_clean_sbu_0, # of connection points: 6
#     Node 1, Type 0, BuildingBlock: BETFAJ_clean_sbu_0, # of connection points: 6
#     Node 2, Type 0, BuildingBlock: BETFAJ_clean_sbu_0, # of connection points: 6
#     Edge 3, Type (0, 0), None
#     Edge 4, Type (0, 0), None
#     Edge 5, Type (0, 0), None
#     Edge 6, Type (0, 0), None
#     Edge 7, Type (0, 0), None
#     Edge 8, Type (0, 0), None
#     Edge 9, Type (0, 0), None
#     Edge 10, Type (0, 0), None
#     Edge 11, Type (0, 0), None
# Relax obj value: 0.982
# Max RMSD: 0.241
# Mean RMSD: 0.130
data_MOF--net-sxc--node1-BETFAJ_clean_sbu_0--edge1-none
_symmetry_space_group_name_H-M    P1
_symmetry_Int_Tables_number       1
_symmetry_cell_setting            triclinic
loop_
_symmetry_equiv_pos_as_xyz
'x, y, z'
_cell_length_a     6.995903
_cell_length_b     16.38314
_cell_length_c     18.606383
_cell_angle_alpha  99.179663
_cell_angle_beta   88.425695
_cell_angle_gamma 92.210605
loop_
_atom_site_label
_atom_site_type_symbol
_atom_site_fract_x
_atom_site_fract_y
_atom_site_fract_z
_atom_type_partial_charge
Sm0 Sm 0.41719 0.07911 0.03455 0.0
Sm1 Sm 1.13752 -0.06054 0.02929 0.0
C2 C 0.5199 0.23047 0.10433 0.0
C3 C 0.58707 0.31414 0.0953 0.0
C4 C 0.60926 0.33807 1.02637 0.0
C5 C 0.67547 0.41853 1.02009 0.0
C6 C 0.71936 0.47587 0.08271 0.0
C7 C 0.69834 0.4508 0.15143 0.0
C8 C 0.63287 0.3707 0.15756 0.0
C9 C 0.30755 0.02267 0.16493 0.0
C10 C 0.33784 0.09123 0.99066 0.0
C11 C 1.01757 0.8087 0.08408 0.0
C12 C 0.93064 0.72464 0.07608 0.0
C13 C 0.78482 0.70869 0.12562 0.0
C14 C 0.71375 0.62824 0.12643 0.0
C15 C 0.78613 0.56184 0.07734 0.0
C16 C 0.92771 0.57816 1.0258 0.0
C17 C 1.00039 0.65904 1.02542 0.0
C18 C 1.15007 -0.05886 0.88976 0.0
C19 C 0.50175 0.03913 1.00245 0.0
O20 O 0.64044 0.1711 0.08511 0.0
O21 O 0.33978 0.20995 0.09064 0.0
O22 O 1.19385 0.03795 0.11789 0.0
O23 O 0.48363 0.02441 0.14089 0.0
O24 O 0.35528 0.1384 0.93863 0.0
O25 O 1.14609 0.06817 1.00312 0.0
O26 O 1.19585 0.81863 0.06072 0.0
O27 O 0.90517 0.87063 0.07932 0.0
O28 O 0.29465 -0.05117 0.93158 0.0
O29 O 0.98516 0.92984 0.92279 0.0
O30 O 0.45963 -0.04303 1.01113 0.0
O31 O 0.67458 0.04883 0.9699 0.0
H32 H 0.57524 0.29476 0.97773 0.0
H33 H 0.68961 0.43626 0.96649 0.0
H34 H 0.73415 0.49297 0.20059 0.0
H35 H 0.61807 0.35285 0.21115 0.0
H36 H 0.72997 0.75835 0.16551 0.0
H37 H 0.60395 0.61789 0.16638 0.0
H38 H 0.98716 0.52813 0.98766 0.0
H39 H 1.11381 0.66987 0.9869 0.0
Sm40 Sm 0.27035 0.01878 0.39708 0.0
Sm41 Sm 0.24467 0.85877 0.31322 0.0
C42 C 0.2323 0.1757 0.45705 0.0
C43 C 1.19637 0.25213 0.42928 0.0
C44 C 1.12449 0.24909 0.35924 0.0
C45 C 1.1053 0.3219 0.33052 0.0
C46 C 1.16001 0.39877 0.37111 0.0
C47 C 0.22693 0.40132 0.44223 0.0
C48 C 0.24444 0.32848 0.4711 0.0
C49 C 0.28285 0.89636 0.48366 0.0
C50 C 0.85423 -0.06211 0.35466 0.0
C51 C 0.26095 0.70079 0.2538 0.0
C52 C 1.2112 0.62326 0.28027 0.0
C53 C 1.14243 0.62486 0.35192 0.0
C54 C 1.11659 0.55143 0.38047 0.0
C55 C 1.16085 0.47535 0.33791 0.0
C56 C 0.22005 0.47399 0.26474 0.0
C57 C 0.24449 0.54753 0.2361 0.0
C58 C 0.24875 -0.01855 0.22621 0.0
C59 C 0.66548 -0.05973 0.35439 0.0
O60 O 0.39703 0.14338 0.43815 0.0
O61 O 1.09184 0.12063 0.45171 0.0
O62 O 1.16983 0.8963 0.43235 0.0
O63 O 0.38888 -0.03679 0.49186 0.0
O64 O 0.96013 0.00614 0.35521 0.0
O65 O 0.9358 0.86723 0.35404 0.0
O66 O 1.11804 0.74684 0.24549 0.0
O67 O 0.4047 0.74324 0.28609 0.0
O68 O 0.35516 -0.01985 0.27896 0.0
O69 O 1.13544 0.91706 0.21779 0.0
O70 O 0.56107 0.87107 0.34901 0.0
O71 O 0.58335 0.01156 0.3597 0.0
H72 H 1.08691 0.19029 0.32625 0.0
H73 H 1.05048 0.31782 0.27613 0.0
H74 H 0.27306 0.45921 0.47469 0.0
H75 H 0.30058 0.33163 0.52523 0.0
H76 H 1.11445 0.68318 0.38644 0.0
H77 H 1.06641 0.55451 0.43639 0.0
H78 H 0.2559 0.41662 0.23044 0.0
H79 H 0.2955 0.5454 0.18035 0.0
Sm80 Sm 1.20529 0.81262 0.68301 0.0
Sm81 Sm 1.20429 -0.00085 0.67864 0.0
C82 C 1.1582 0.65699 0.7061 0.0
C83 C 1.02242 0.58494 0.69461 0.0
C84 C 0.82538 0.59326 0.70849 0.0
C85 C 0.70153 0.52334 0.70034 0.0
C86 C 0.7717 0.44343 0.67818 0.0
C87 C 0.96918 0.43589 0.66304 0.0
C88 C 1.09258 0.50584 0.67094 0.0
C89 C 0.23226 0.85589 0.54601 0.0
C90 C 0.79824 0.90616 0.67962 0.0
C91 C 0.25251 0.15468 0.65492 0.0
C92 C 0.39167 0.22611 0.66187 0.0
C93 C 0.54916 0.22851 0.61354 0.0
C94 C 0.67156 0.29885 0.61844 0.0
C95 C 0.64051 0.36839 0.67218 0.0
C96 C 0.48346 0.36528 0.72076 0.0
C97 C 0.36015 0.29543 0.71527 0.0
C98 C 1.16198 -0.04356 0.81477 0.0
C99 C 0.61054 0.90559 0.68261 0.0
O100 O 1.11065 0.721 0.75396 0.0
O101 O 0.24452 0.67774 0.64822 0.0
O102 O 1.12513 0.88766 0.59731 0.0
O103 O 0.33006 0.79785 0.56531 0.0
O104 O 0.88641 0.84427 0.70035 0.0
O105 O 0.89078 -0.03223 0.65492 0.0
O106 O 0.28563 0.09032 0.60538 0.0
O107 O 1.17841 0.13432 0.71511 0.0
O108 O 0.2801 0.92468 0.7669 0.0
O109 O 1.06764 0.01398 0.793 0.0
O110 O 0.52261 -0.03278 0.66149 0.0
O111 O 0.51802 0.84409 0.70732 0.0
H112 H 0.76704 0.65368 0.72605 0.0
H113 H 0.55063 0.5323 0.71141 0.0
H114 H 1.0299 0.3758 0.64665 0.0
H115 H 0.24374 0.4979 0.65926 0.0
H116 H 0.57706 0.17649 0.57134 0.0
H117 H 0.78873 0.29902 0.5792 0.0
H118 H 0.45587 0.41661 0.76368 0.0
H119 H 0.23888 0.2959 0.75282 0.0
loop_
_geom_bond_atom_site_label_1
_geom_bond_atom_site_label_2
_geom_bond_distance
_geom_bond_site_symmetry_2
_ccdc_geom_bond_type
Sm0 C2 2.846 . S
Sm0 O20 2.543 1_554 S
Sm0 O21 2.450 . S
Sm0 O22 2.681 1_455 S
Sm0 O23 2.464 . S
Sm0 O24 2.396 . S
Sm0 O28 2.386 1_554 S
Sm0 O31 2.408 1_545 S
Sm1 C11 2.848 . S
Sm1 O22 2.386 1_566 S
Sm1 O25 2.408 1_565 S
Sm1 O26 2.543 1_556 S
Sm1 O27 2.450 . S
Sm1 O28 2.681 1_665 S
Sm1 O29 2.464 . S
Sm1 O30 2.396 . S
C2 Sm0 2.846 . S
C2 C3 1.506 . S
C2 O20 1.261 1_554 S
C2 O21 1.242 . S
C3 C2 1.506 . S
C3 C4 1.358 1_554 S
C3 C8 1.382 . S
C4 C3 1.358 1_556 S
C4 C5 1.385 . S
C4 H32 0.930 . S
C5 C4 1.385 . S
C5 C6 1.396 . S
C5 H33 0.929 . S
C6 C5 1.396 . S
C6 C7 1.333 1_556 S
C7 C6 1.333 1_554 S
C7 C8 1.398 . S
C7 H34 0.930 . S
C8 C3 1.382 . S
C8 C7 1.398 . S
C8 H35 0.929 . S
C9 O22 1.271 1_455 S
C9 O23 1.251 . S
C10 O24 1.252 1_655 S
C10 O25 1.272 1_554 S
C11 Sm1 2.848 . S
C11 C12 1.504 1_556 S
C11 O26 1.252 1_556 S
C11 O27 1.252 . S
C12 C11 1.504 1_554 S
C12 C13 1.358 . S
C12 C17 1.382 1_554 S
C13 C12 1.358 . S
C13 C14 1.385 . S
C13 H36 0.930 . S
C14 C13 1.385 . S
C14 C15 1.395 . S
C14 H37 0.929 . S
C15 C14 1.395 . S
C15 C16 1.335 1_554 S
C16 C15 1.335 1_556 S
C16 C17 1.398 . S
C16 H38 0.930 . S
C17 C12 1.382 1_556 S
C17 C16 1.398 . S
C17 H39 0.929 . S
C18 O28 1.271 1_655 S
C18 O29 1.251 1_545 S
C19 O30 1.252 1_455 S
C19 O31 1.272 1_556 S
O20 Sm0 2.543 1_556 S
O20 C2 1.261 1_556 S
O21 Sm0 2.450 . S
O21 C2 1.242 . S
O22 Sm0 2.681 1_655 S
O22 Sm1 2.386 1_544 S
O22 C9 1.271 1_655 S
O23 Sm0 2.464 . S
O23 C9 1.251 . S
O24 Sm0 2.396 . S
O24 C10 1.252 1_455 S
O25 Sm1 2.408 1_545 S
O25 C10 1.272 1_556 S
O26 Sm1 2.543 1_554 S
O26 C11 1.252 1_554 S
O27 Sm1 2.450 . S
O27 C11 1.252 . S
O28 Sm0 2.386 1_556 S
O28 Sm1 2.681 1_445 S
O28 C18 1.271 1_455 S
O29 Sm1 2.464 . S
O29 C18 1.251 1_565 S
O30 Sm1 2.396 . S
O30 C19 1.252 1_655 S
O31 Sm0 2.408 1_565 S
O31 C19 1.272 1_554 S
H32 C4 0.930 . S
H33 C5 0.929 . S
H34 C7 0.930 . S
H35 C8 0.929 . S
H36 C13 0.930 . S
H37 C14 0.929 . S
H38 C16 0.930 . S
H39 C17 0.929 . S
Sm40 C42 2.846 1_455 S
Sm40 O60 2.543 1_455 S
Sm40 O61 2.450 . S
Sm40 O62 2.681 . S
Sm40 O63 2.464 . S
Sm40 O64 2.396 1_455 S
Sm40 O68 2.386 . S
Sm40 O71 2.408 . S
Sm41 C51 2.846 1_655 S
Sm41 O62 2.386 1_665 S
Sm41 O65 2.408 . S
Sm41 O66 2.543 1_655 S
Sm41 O67 2.450 1_655 S
Sm41 O68 2.681 1_665 S
Sm41 O69 2.464 . S
Sm41 O70 2.396 1_655 S
C42 Sm40 2.846 1_655 S
C42 C43 1.506 . S
C42 O60 1.261 . S
C42 O61 1.242 1_655 S
C43 C42 1.506 . S
C43 C44 1.358 . S
C43 C48 1.382 . S
C44 C43 1.358 . S
C44 C45 1.385 . S
C44 H72 0.930 . S
C45 C44 1.385 . S
C45 C46 1.395 . S
C45 H73 0.929 . S
C46 C45 1.395 . S
C46 C47 1.335 . S
C47 C46 1.335 . S
C47 C48 1.398 . S
C47 H74 0.930 . S
C48 C43 1.382 . S
C48 C47 1.398 . S
C48 H75 0.929 . S
C49 O62 1.271 . S
C49 O63 1.251 . S
C50 O64 1.252 . S
C50 O65 1.272 1_545 S
C51 Sm41 2.846 1_455 S
C51 C52 1.506 . S
C51 O66 1.261 . S
C51 O67 1.242 . S
C52 C51 1.506 . S
C52 C53 1.358 . S
C52 C57 1.382 . S
C53 C52 1.358 . S
C53 C54 1.385 . S
C53 H76 0.930 . S
C54 C53 1.385 . S
C54 C55 1.395 . S
C54 H77 0.929 . S
C55 C54 1.395 . S
C55 C56 1.335 . S
C56 C55 1.335 . S
C56 C57 1.398 . S
C56 H78 0.930 . S
C57 C52 1.382 . S
C57 C56 1.398 . S
C57 H79 0.929 . S
C58 O68 1.271 1_655 S
C58 O69 1.252 1_545 S
C59 O70 1.252 . S
C59 O71 1.272 1_565 S
O60 Sm40 2.543 1_655 S
O60 C42 1.261 . S
O61 Sm40 2.450 . S
O61 C42 1.242 1_455 S
O62 Sm40 2.681 . S
O62 Sm41 2.386 1_445 S
O62 C49 1.271 . S
O63 Sm40 2.464 . S
O63 C49 1.251 . S
O64 Sm40 2.396 1_655 S
O64 C50 1.252 . S
O65 Sm41 2.408 . S
O65 C50 1.272 1_565 S
O66 Sm41 2.543 1_455 S
O66 C51 1.261 . S
O67 Sm41 2.450 1_455 S
O67 C51 1.242 . S
O68 Sm40 2.386 . S
O68 Sm41 2.681 1_445 S
O68 C58 1.271 1_455 S
O69 Sm41 2.464 . S
O69 C58 1.252 1_565 S
O70 Sm41 2.396 1_455 S
O70 C59 1.252 . S
O71 Sm40 2.408 . S
O71 C59 1.272 1_545 S
H72 C44 0.930 . S
H73 C45 0.929 . S
H74 C47 0.930 . S
H75 C48 0.929 . S
H76 C53 0.930 . S
H77 C54 0.929 . S
H78 C56 0.930 . S
H79 C57 0.929 . S
Sm80 C82 2.846 1_455 S
Sm80 O100 2.543 1_455 S
Sm80 O101 2.450 1_455 S
Sm80 O102 2.681 1_565 S
Sm80 O103 2.464 . S
Sm80 O104 2.396 1_455 S
Sm80 O108 2.386 . S
Sm80 O111 2.408 . S
Sm81 C91 2.846 . S
Sm81 O102 2.386 . S
Sm81 O105 2.408 1_455 S
Sm81 O106 2.543 . S
Sm81 O107 2.450 . S
Sm81 O108 2.681 1_545 S
Sm81 O109 2.464 . S
Sm81 O110 2.396 . S
C82 Sm80 2.846 1_655 S
C82 C83 1.506 . S
C82 O100 1.261 . S
C82 O101 1.242 . S
C83 C82 1.506 . S
C83 C84 1.358 . S
C83 C88 1.382 . S
C84 C83 1.358 . S
C84 C85 1.385 . S
C84 H112 0.930 . S
C85 C84 1.385 . S
C85 C86 1.395 . S
C85 H113 0.929 . S
C86 C85 1.395 . S
C86 C87 1.335 . S
C87 C86 1.335 . S
C87 C88 1.398 . S
C87 H114 0.930 . S
C88 C83 1.382 . S
C88 C87 1.398 . S
C88 H115 0.929 . S
C89 O102 1.271 1_565 S
C89 O103 1.251 . S
C90 O104 1.252 1_545 S
C90 O105 1.272 . S
C91 Sm81 2.846 . S
C91 C92 1.506 . S
C91 O106 1.261 . S
C91 O107 1.242 . S
C92 C91 1.506 . S
C92 C93 1.358 . S
C92 C97 1.382 . S
C93 C92 1.358 . S
C93 C94 1.385 . S
C93 H116 0.930 . S
C94 C93 1.385 . S
C94 C95 1.395 . S
C94 H117 0.929 . S
C95 C94 1.395 . S
C95 C96 1.335 . S
C96 C95 1.335 . S
C96 C97 1.398 . S
C96 H118 0.930 . S
C97 C92 1.382 . S
C97 C96 1.398 . S
C97 H119 0.929 . S
C98 O108 1.271 1_545 S
C98 O109 1.251 . S
C99 O110 1.252 . S
C99 O111 1.272 1_545 S
O100 Sm80 2.543 1_655 S
O100 C82 1.261 . S
O101 Sm80 2.450 1_655 S
O101 C82 1.242 . S
O102 Sm80 2.681 1_545 S
O102 Sm81 2.386 . S
O102 C89 1.271 1_545 S
O103 Sm80 2.464 . S
O103 C89 1.251 . S
O104 Sm80 2.396 1_655 S
O104 C90 1.252 1_565 S
O105 Sm81 2.408 1_655 S
O105 C90 1.272 . S
O106 Sm81 2.543 . S
O106 C91 1.261 . S
O107 Sm81 2.450 . S
O107 C91 1.242 . S
O108 Sm80 2.386 . S
O108 Sm81 2.681 1_565 S
O108 C98 1.271 1_565 S
O109 Sm81 2.464 . S
O109 C98 1.251 . S
O110 Sm81 2.396 . S
O110 C99 1.252 . S
O111 Sm80 2.408 . S
O111 C99 1.272 1_565 S
H112 C84 0.930 . S
H113 C85 0.929 . S
H114 C87 0.930 . S
H115 C88 0.929 . S
H116 C93 0.930 . S
H117 C94 0.929 . S
H118 C96 0.930 . S
H119 C97 0.929 . S
C10 C19 5.515 1_644 S
C59 C50 5.053 1_565 S
C86 C95 0.454 . S
C90 C99 4.642 . S
C15 C6 2.668 1_554 S
C46 C55 5.610 1_655 S
C58 C9 1.431 1_655 S
C49 C89 1.604 1_545 S
C98 C18 1.461 1_455 S
