# Generated by pormake.
# Topology sma, (6)-cn, num edge types: 1
# Building blocks:
#     Node 0, Type 0, BuildingBlock: BETFAJ_clean_sbu_0, # of connection points: 6
#     Node 1, Type 0, BuildingBlock: BETFAJ_clean_sbu_0, # of connection points: 6
#     Node 2, Type 0, BuildingBlock: BETFAJ_clean_sbu_0, # of connection points: 6
#     Edge 3, Type (0, 0), BuildingBlock: OJICUG_clean_linker_0, # of connection points: 2
#     Edge 4, Type (0, 0), BuildingBlock: OJICUG_clean_linker_0, # of connection points: 2
#     Edge 5, Type (0, 0), BuildingBlock: OJICUG_clean_linker_0, # of connection points: 2
#     Edge 6, Type (0, 0), BuildingBlock: OJICUG_clean_linker_0, # of connection points: 2
#     Edge 7, Type (0, 0), BuildingBlock: OJICUG_clean_linker_0, # of connection points: 2
#     Edge 8, Type (0, 0), BuildingBlock: OJICUG_clean_linker_0, # of connection points: 2
#     Edge 9, Type (0, 0), BuildingBlock: OJICUG_clean_linker_0, # of connection points: 2
#     Edge 10, Type (0, 0), BuildingBlock: OJICUG_clean_linker_0, # of connection points: 2
#     Edge 11, Type (0, 0), BuildingBlock: OJICUG_clean_linker_0, # of connection points: 2
# Relax obj value: 0.157
# Max RMSD: 0.281
# Mean RMSD: 0.207
data_MOF--net-sma--node1-BETFAJ_clean_sbu_0--edge1-OJICUG_clean_linker_0
_symmetry_space_group_name_H-M    P1
_symmetry_Int_Tables_number       1
_symmetry_cell_setting            triclinic
loop_
_symmetry_equiv_pos_as_xyz
'x, y, z'
_cell_length_a     32.936362
_cell_length_b     39.367009
_cell_length_c     10.199777
_cell_angle_alpha  93.668223
_cell_angle_beta   90.375302
_cell_angle_gamma 144.69795
loop_
_atom_site_label
_atom_site_type_symbol
_atom_site_fract_x
_atom_site_fract_y
_atom_site_fract_z
_atom_type_partial_charge
Sm0 Sm 0.17947 0.6648 0.13021 0.0
Sm1 Sm 1.09178 0.67039 0.1859 0.0
C2 C 0.26244 0.67566 0.02422 0.0
C3 C 0.2821 0.65335 -0.00443 0.0
C4 C 0.29707 0.65339 0.86714 0.0
C5 C 0.32756 0.64257 0.84049 0.0
C6 C 0.34377 0.63153 0.94201 0.0
C7 C 0.32522 0.62834 0.06933 0.0
C8 C 0.2948 0.63933 0.09604 0.0
C9 C 0.16266 0.66794 0.39002 0.0
C10 C 0.25757 0.79413 0.1719 0.0
C11 C 1.00631 0.66153 0.25692 0.0
C12 C 0.98116 0.67758 0.213 0.0
C13 C 0.95349 0.68191 0.30365 0.0
C14 C 0.92107 0.68955 0.26127 0.0
C15 C 0.91543 0.6928 0.12704 0.0
C16 C 0.94685 0.69183 0.03747 0.0
C17 C 0.97939 0.68417 0.08011 0.0
C18 C 1.11121 0.66838 0.92644 0.0
C19 C 1.02112 0.54531 0.19722 0.0
O20 O 0.20628 0.6494 -0.0415 0.0
O21 O 0.27383 0.69638 0.14601 0.0
O22 O 0.17286 0.69651 0.30784 0.0
O23 O 0.16695 0.63981 0.3392 0.0
O24 O 0.25772 0.76274 0.11811 0.0
O25 O 0.20137 0.76925 0.21972 0.0
O26 O 0.98541 0.62059 0.17972 0.0
O27 O 1.07217 0.70463 0.30702 0.0
O28 O 1.09824 0.63848 0.00845 0.0
O29 O 1.10972 0.69828 -0.02222 0.0
O30 O 1.02329 0.57924 0.24107 0.0
O31 O 1.07207 0.56579 0.13437 0.0
H32 H 0.28793 0.6643 0.78825 0.0
H33 H 0.34023 0.64445 0.74104 0.0
H34 H 0.33745 0.62033 0.14988 0.0
H35 H 0.28396 0.63923 0.19616 0.0
H36 H 0.95471 0.67727 0.40664 0.0
H37 H 0.89836 0.69106 0.33309 0.0
H38 H 0.94306 0.69388 0.93346 0.0
H39 H 1.00075 0.68116 0.00855 0.0
Sm40 Sm 0.69021 0.17292 0.32724 0.0
Sm41 Sm 0.60189 0.17745 0.27103 0.0
C42 C 0.74618 0.15601 0.43214 0.0
C43 C 0.7321 0.11048 0.45844 0.0
C44 C 0.69757 1.07876 0.56806 0.0
C45 C 0.69162 1.04079 0.60004 0.0
C46 C 0.72033 1.03381 0.52365 0.0
C47 C 0.75346 1.06463 0.41244 0.0
C48 C 0.75942 0.10255 0.38056 0.0
C49 C 0.67201 0.17515 0.06818 0.0
C50 C 0.51655 1.04862 0.25588 0.0
C51 C 0.54434 0.19674 0.20427 0.0
C52 C 0.53719 0.22492 0.27729 0.0
C53 C 0.51043 0.23477 0.21149 0.0
C54 C 0.5015 0.25982 0.2821 0.0
C55 C 0.51894 0.27515 0.41991 0.0
C56 C 0.54634 0.26555 0.48501 0.0
C57 C 0.55553 0.24081 0.4143 0.0
C58 C 0.62596 0.18023 0.53172 0.0
C59 C 0.77614 0.29983 0.28767 0.0
O60 O 0.71574 0.15937 0.5001 0.0
O61 O 0.751 0.1664 0.3097 0.0
O62 O 0.62563 0.14668 0.14751 0.0
O63 O 0.72884 0.19977 0.12075 0.0
O64 O 0.57373 1.07463 0.31879 0.0
O65 O 0.51776 1.0795 0.20583 0.0
O66 O 0.60842 0.23175 0.18109 0.0
O67 O 0.50862 0.14728 0.24391 0.0
O68 O 0.67008 0.20715 0.44858 0.0
O69 O 0.56812 0.15397 0.48125 0.0
O70 O 0.71505 0.27058 0.2396 0.0
O71 O 0.78071 0.27377 0.34524 0.0
H72 H 0.67642 0.08415 0.63106 0.0
H73 H 0.66502 1.01729 0.68546 0.0
H74 H 0.7772 1.0612 0.3524 0.0
H75 H 0.78733 0.12702 0.29677 0.0
H76 H 0.49584 0.22263 0.1058 0.0
H77 H 0.47974 0.26617 0.22915 0.0
H78 H 0.56129 0.27765 0.59057 0.0
H79 H 0.57659 0.23373 0.4667 0.0
Sm80 Sm 0.68288 0.71635 0.86909 0.0
Sm81 Sm 0.56208 0.58375 0.89155 0.0
C82 C 0.76055 0.81794 0.78559 0.0
C83 C 0.75044 0.84653 0.74861 0.0
C84 C 0.78042 0.87774 0.63813 0.0
C85 C 0.77151 0.90511 0.60082 0.0
C86 C 0.73259 0.90204 0.67368 0.0
C87 C 0.7021 0.87029 0.78396 0.0
C88 C 0.7106 0.84253 0.82067 0.0
C89 C 0.65729 0.68868 0.12218 0.0
C90 C 0.5182 0.6314 0.8794 0.0
C91 C 0.48122 0.47622 0.92869 0.0
C92 C 0.47467 0.43766 0.8577 0.0
C93 C 0.49419 0.42178 0.92442 0.0
C94 C 0.49753 0.39235 0.85472 0.0
C95 C 0.48127 0.37809 0.71664 0.0
C96 C 0.45902 0.39196 0.65099 0.0
C97 C 0.45598 0.42153 0.72041 0.0
C98 C 0.59307 0.61385 0.63912 0.0
C99 C 0.72902 0.67262 0.93941 0.0
O100 O 0.72733 0.77179 0.70609 0.0
O101 O 0.75939 0.81145 0.9104 0.0
O102 O 0.61057 0.65955 0.02685 0.0
O103 O 0.72036 0.73699 0.08876 0.0
O104 O 0.57932 0.67669 0.82973 0.0
O105 O 0.50299 0.59276 0.93401 0.0
O106 O 0.54151 0.5239 -0.00052 0.0
O107 O 0.45812 0.4863 0.86245 0.0
O108 O 0.63751 0.64134 0.73735 0.0
O109 O 0.52953 0.56692 0.67037 0.0
O110 O 0.66259 0.62367 -0.03667 0.0
O111 O 0.75056 0.71418 0.88241 0.0
H112 H 0.81103 0.88114 0.58079 0.0
H113 H 0.79627 0.92965 0.51621 0.0
H114 H 0.67109 0.86644 0.84118 0.0
H115 H 0.68603 0.81797 0.9053 0.0
H116 H 0.50931 0.43401 0.02997 0.0
H117 H 0.51541 0.3828 0.90849 0.0
H118 H 0.44475 0.38065 0.54524 0.0
H119 H 0.44089 0.43317 0.66543 0.0
C120 C 0.44337 0.66878 0.84404 0.0
C121 C 0.3848 0.62803 0.91756 0.0
H122 H 0.53117 0.7018 0.77412 0.0
C123 C 0.36831 0.58629 -0.02742 0.0
H124 H 0.45815 0.70208 0.8019 0.0
C125 C 0.4103 0.58611 0.95667 0.0
C126 C 0.47001 0.62797 0.88623 0.0
H127 H 0.32321 0.55404 0.0288 0.0
H128 H 0.39682 0.554 0.00226 0.0
C129 C 0.48552 0.66883 0.82873 0.0
C130 C 0.90512 0.39115 0.2561 0.0
C131 C 0.84061 0.36341 0.27236 0.0
H132 H 1.01308 0.47062 0.21639 0.0
C133 C 0.83653 0.39608 0.26559 0.0
H134 H 0.90943 0.36672 0.25979 0.0
C135 C 0.89551 0.4552 0.24257 0.0
C136 C 0.95966 0.48277 0.22303 0.0
H137 H 0.78751 0.37587 0.27791 0.0
H138 H 0.89037 0.479 0.2376 0.0
C139 C 0.96408 0.45028 0.23009 0.0
C140 C 0.70873 0.9627 0.4664 0.0
C141 C 0.71879 0.99685 0.56267 0.0
H142 H 0.70427 0.90557 0.42578 0.0
C143 C 0.73044 0.99741 0.69634 0.0
H144 H 0.69835 0.96029 0.36277 0.0
C145 C 0.73343 0.96571 0.73246 0.0
C146 C 0.72519 0.93286 0.63586 0.0
H147 H 0.73953 1.02387 0.77317 0.0
H148 H 0.74445 0.96848 0.83593 0.0
C149 C 0.71206 0.93125 0.5025 0.0
C150 C 0.84614 0.72185 0.94049 0.0
C151 C 0.77937 0.68057 -0.01325 0.0
H152 H 0.94199 0.75812 0.94797 0.0
C153 C 0.75928 0.64507 0.08068 0.0
H154 H 0.8631 0.7498 0.86815 0.0
C155 C 0.80406 0.65009 0.12656 0.0
C156 C 0.87039 0.6906 0.07978 0.0
H157 H 0.70852 0.613 0.11957 0.0
H158 H 0.78585 0.6211 0.19709 0.0
C159 C 0.89107 0.72644 -0.01421 0.0
C160 C 0.38531 0.95555 0.21644 0.0
C161 C 0.45062 0.98352 0.2337 0.0
H162 H 0.27275 0.87341 0.18446 0.0
C163 C 0.45214 0.94886 0.22701 0.0
H164 H 0.3827 0.98131 0.22137 0.0
C165 C 0.3893 0.88719 0.20258 0.0
C166 C 0.32393 0.85921 0.18778 0.0
H167 H 0.50184 0.96938 0.2391 0.0
H168 H 0.39182 0.86137 0.19848 0.0
C169 C 0.32246 0.89391 0.19535 0.0
C170 C 0.47169 0.30753 0.68997 0.0
C171 C 0.49004 0.35101 0.64037 0.0
H172 H 0.4655 0.249 0.6588 0.0
C173 C 0.51785 0.36917 0.51747 0.0
H174 H 0.44932 0.29193 0.78335 0.0
C175 C 0.52685 0.34441 0.44591 0.0
C176 C 0.50865 0.30105 0.4956 0.0
H177 H 0.53398 0.40343 0.47733 0.0
H178 H 0.54937 0.36008 0.35264 0.0
C179 C 0.48095 0.2829 0.61851 0.0
C180 C 0.11591 0.62857 0.73734 0.0
C181 C 0.12326 0.66747 0.78878 0.0
H182 H 0.12339 0.59864 0.56985 0.0
C183 C 0.14253 0.70582 0.70775 0.0
H184 H 1.09966 0.59772 0.79722 0.0
C185 C 0.15509 0.70576 0.57751 0.0
C186 C 0.14902 0.66763 0.52685 0.0
H187 H 0.14824 0.73606 0.74512 0.0
H188 H 0.17009 0.73588 0.51689 0.0
C189 C 0.12917 0.62891 0.60742 0.0
C190 C 0.59548 0.14518 0.8821 0.0
C191 C 0.66114 0.17738 0.93143 0.0
H192 H 0.533 0.12085 0.71562 0.0
C193 C 0.71596 0.21164 0.84946 0.0
H194 H 0.55248 0.11865 0.9438 0.0
C195 C 0.70494 0.21326 0.71909 0.0
C196 C 0.63886 0.18027 0.66935 0.0
H197 H 0.76721 0.23717 0.886 0.0
H198 H 0.74794 0.24012 0.65733 0.0
C199 C 0.58437 0.14652 0.75185 0.0
C200 C 0.6808 0.68313 0.47888 0.0
C201 C 0.61029 0.63274 0.50667 0.0
H202 H 0.75113 0.74083 0.33403 0.0
C203 C 0.55564 0.60063 0.40713 0.0
H204 H 0.72379 0.70823 0.55398 0.0
C205 C 0.57117 0.61896 0.28189 0.0
C206 C 0.6416 0.66983 0.25445 0.0
H207 H 0.50082 0.56152 0.42615 0.0
H208 H 0.52797 0.59343 0.20686 0.0
C209 C 0.69639 0.70173 0.35349 0.0
loop_
_geom_bond_atom_site_label_1
_geom_bond_atom_site_label_2
_geom_bond_distance
_geom_bond_site_symmetry_2
_ccdc_geom_bond_type
Sm0 C2 2.846 . S
Sm0 O20 2.543 . S
Sm0 O21 2.450 . S
Sm0 O22 2.681 1_455 S
Sm0 O23 2.464 . S
Sm0 O24 2.396 . S
Sm0 O28 2.386 1_554 S
Sm0 O31 2.408 1_455 S
Sm1 C11 2.846 . S
Sm1 O22 2.386 . S
Sm1 O25 2.408 1_655 S
Sm1 O26 2.543 . S
Sm1 O27 2.450 . S
Sm1 O28 2.681 1_654 S
Sm1 O29 2.464 1_554 S
Sm1 O30 2.396 . S
C2 Sm0 2.846 . S
C2 C3 1.506 . S
C2 O20 1.261 . S
C2 O21 1.242 . S
C3 C2 1.506 . S
C3 C4 1.358 . S
C3 C8 1.382 . S
C4 C3 1.358 . S
C4 C5 1.385 1_554 S
C4 H32 0.930 1_554 S
C5 C4 1.385 1_556 S
C5 C6 1.395 1_556 S
C5 H33 0.929 . S
C6 C5 1.395 1_554 S
C6 C7 1.335 . S
C7 C6 1.335 . S
C7 C8 1.398 . S
C7 H34 0.930 . S
C8 C3 1.382 . S
C8 C7 1.398 . S
C8 H35 0.929 . S
C9 O22 1.271 1_455 S
C9 O23 1.251 . S
C10 O24 1.252 . S
C10 O25 1.272 . S
C11 Sm1 2.846 . S
C11 C12 1.506 . S
C11 O26 1.261 . S
C11 O27 1.242 . S
C12 C11 1.506 . S
C12 C13 1.358 . S
C12 C17 1.382 . S
C13 C12 1.358 . S
C13 C14 1.385 . S
C13 H36 0.930 . S
C14 C13 1.385 . S
C14 C15 1.395 . S
C14 H37 0.929 . S
C15 C14 1.395 . S
C15 C16 1.335 . S
C16 C15 1.335 . S
C16 C17 1.398 . S
C16 H38 0.925 1_554 S
C17 C12 1.382 . S
C17 C16 1.398 . S
C17 H39 0.929 1_554 S
C18 O28 1.271 . S
C18 O29 1.251 1_455 S
C19 O30 1.252 . S
C19 O31 1.272 . S
O20 Sm0 2.543 . S
O20 C2 1.261 . S
O21 Sm0 2.450 . S
O21 C2 1.242 . S
O22 Sm0 2.681 1_655 S
O22 Sm1 2.386 . S
O22 C9 1.271 1_655 S
O23 Sm0 2.464 . S
O23 C9 1.251 . S
O24 Sm0 2.396 . S
O24 C10 1.252 . S
O25 Sm1 2.408 1_455 S
O25 C10 1.272 . S
O26 Sm1 2.543 . S
O26 C11 1.261 . S
O27 Sm1 2.450 . S
O27 C11 1.242 . S
O28 Sm0 2.386 1_556 S
O28 Sm1 2.681 1_456 S
O28 C18 1.271 . S
O29 Sm1 2.464 1_556 S
O29 C18 1.251 1_655 S
O30 Sm1 2.396 . S
O30 C19 1.252 . S
O31 Sm0 2.408 1_655 S
O31 C19 1.272 . S
H32 C4 0.930 1_556 S
H33 C5 0.929 . S
H34 C7 0.930 . S
H35 C8 0.929 . S
H36 C13 0.930 . S
H37 C14 0.929 . S
H38 C16 0.925 1_556 S
H39 C17 0.929 1_556 S
Sm40 C42 2.846 1_545 S
Sm40 O60 2.543 . S
Sm40 O61 2.450 . S
Sm40 O62 2.681 . S
Sm40 O63 2.464 . S
Sm40 O64 2.396 1_545 S
Sm40 O68 2.386 . S
Sm40 O71 2.408 . S
Sm41 C51 2.846 . S
Sm41 O62 2.386 . S
Sm41 O65 2.408 1_545 S
Sm41 O66 2.543 . S
Sm41 O67 2.450 . S
Sm41 O68 2.681 . S
Sm41 O69 2.464 . S
Sm41 O70 2.396 . S
C42 Sm40 2.846 1_565 S
C42 C43 1.506 . S
C42 O60 1.261 1_565 S
C42 O61 1.242 1_565 S
C43 C42 1.506 . S
C43 C44 1.358 . S
C43 C48 1.382 . S
C44 C43 1.358 . S
C44 C45 1.385 . S
C44 H72 0.930 . S
C45 C44 1.385 . S
C45 C46 1.395 . S
C45 H73 0.929 . S
C46 C45 1.395 . S
C46 C47 1.335 . S
C47 C46 1.335 . S
C47 C48 1.398 . S
C47 H74 0.930 . S
C48 C43 1.382 . S
C48 C47 1.398 . S
C48 H75 0.929 . S
C49 O62 1.271 . S
C49 O63 1.251 . S
C50 O64 1.252 . S
C50 O65 1.272 . S
C51 Sm41 2.846 . S
C51 C52 1.506 . S
C51 O66 1.261 . S
C51 O67 1.242 . S
C52 C51 1.506 . S
C52 C53 1.358 . S
C52 C57 1.382 . S
C53 C52 1.358 . S
C53 C54 1.385 . S
C53 H76 0.930 . S
C54 C53 1.385 . S
C54 C55 1.395 . S
C54 H77 0.929 . S
C55 C54 1.395 . S
C55 C56 1.335 . S
C56 C55 1.335 . S
C56 C57 1.398 . S
C56 H78 0.930 . S
C57 C52 1.382 . S
C57 C56 1.398 . S
C57 H79 0.929 . S
C58 O68 1.271 . S
C58 O69 1.251 . S
C59 O70 1.252 . S
C59 O71 1.272 . S
O60 Sm40 2.543 . S
O60 C42 1.261 1_545 S
O61 Sm40 2.450 . S
O61 C42 1.242 1_545 S
O62 Sm40 2.681 . S
O62 Sm41 2.386 . S
O62 C49 1.271 . S
O63 Sm40 2.464 . S
O63 C49 1.251 . S
O64 Sm40 2.396 1_565 S
O64 C50 1.252 . S
O65 Sm41 2.408 1_565 S
O65 C50 1.272 . S
O66 Sm41 2.543 . S
O66 C51 1.261 . S
O67 Sm41 2.450 . S
O67 C51 1.242 . S
O68 Sm40 2.386 . S
O68 Sm41 2.681 . S
O68 C58 1.271 . S
O69 Sm41 2.464 . S
O69 C58 1.251 . S
O70 Sm41 2.396 . S
O70 C59 1.252 . S
O71 Sm40 2.408 . S
O71 C59 1.272 . S
H72 C44 0.930 . S
H73 C45 0.929 . S
H74 C47 0.930 . S
H75 C48 0.929 . S
H76 C53 0.930 . S
H77 C54 0.929 . S
H78 C56 0.930 . S
H79 C57 0.929 . S
Sm80 C82 2.846 . S
Sm80 O100 2.543 . S
Sm80 O101 2.450 . S
Sm80 O102 2.681 1_556 S
Sm80 O103 2.464 1_556 S
Sm80 O104 2.396 . S
Sm80 O108 2.386 . S
Sm80 O111 2.408 . S
Sm81 C91 2.846 . S
Sm81 O102 2.386 1_556 S
Sm81 O105 2.408 . S
Sm81 O106 2.543 . S
Sm81 O107 2.450 . S
Sm81 O108 2.681 . S
Sm81 O109 2.464 . S
Sm81 O110 2.396 . S
C82 Sm80 2.846 . S
C82 C83 1.506 . S
C82 O100 1.261 . S
C82 O101 1.242 . S
C83 C82 1.506 . S
C83 C84 1.358 . S
C83 C88 1.382 . S
C84 C83 1.358 . S
C84 C85 1.385 . S
C84 H112 0.930 . S
C85 C84 1.385 . S
C85 C86 1.395 . S
C85 H113 0.929 . S
C86 C85 1.395 . S
C86 C87 1.335 . S
C87 C86 1.335 . S
C87 C88 1.398 . S
C87 H114 0.930 1_556 S
C88 C83 1.382 . S
C88 C87 1.398 . S
C88 H115 0.929 1_556 S
C89 O102 1.271 . S
C89 O103 1.251 . S
C90 O104 1.252 . S
C90 O105 1.272 . S
C91 Sm81 2.846 . S
C91 C92 1.506 . S
C91 O106 1.261 . S
C91 O107 1.242 . S
C92 C91 1.506 . S
C92 C93 1.358 . S
C92 C97 1.382 . S
C93 C92 1.358 . S
C93 C94 1.385 . S
C93 H116 0.930 1_556 S
C94 C93 1.385 . S
C94 C95 1.395 . S
C94 H117 0.929 1_556 S
C95 C94 1.395 . S
C95 C96 1.335 . S
C96 C95 1.335 . S
C96 C97 1.398 . S
C96 H118 0.930 . S
C97 C92 1.382 . S
C97 C96 1.398 . S
C97 H119 0.929 . S
C98 O108 1.271 . S
C98 O109 1.251 . S
C99 O110 1.252 . S
C99 O111 1.272 . S
O100 Sm80 2.543 . S
O100 C82 1.261 . S
O101 Sm80 2.450 . S
O101 C82 1.242 . S
O102 Sm80 2.681 1_554 S
O102 Sm81 2.386 1_554 S
O102 C89 1.271 . S
O103 Sm80 2.464 1_554 S
O103 C89 1.251 . S
O104 Sm80 2.396 . S
O104 C90 1.252 . S
O105 Sm81 2.408 . S
O105 C90 1.272 . S
O106 Sm81 2.543 . S
O106 C91 1.261 . S
O107 Sm81 2.450 . S
O107 C91 1.242 . S
O108 Sm80 2.386 . S
O108 Sm81 2.681 . S
O108 C98 1.271 . S
O109 Sm81 2.464 . S
O109 C98 1.251 . S
O110 Sm81 2.396 . S
O110 C99 1.252 . S
O111 Sm80 2.408 . S
O111 C99 1.272 . S
H112 C84 0.930 . S
H113 C85 0.929 . S
H114 C87 0.930 1_554 S
H115 C88 0.929 1_554 S
H116 C93 0.930 1_554 S
H117 C94 0.929 1_554 S
H118 C96 0.930 . S
H119 C97 0.929 . S
C120 C121 1.387 1_556 S
C120 H124 0.950 . S
C120 C129 1.390 . S
C121 C120 1.387 1_554 S
C121 C123 1.387 . S
H122 C129 0.950 . S
C123 C121 1.387 . S
C123 C125 1.390 . S
C123 H127 0.950 . S
H124 C120 0.950 . S
C125 C123 1.390 . S
C125 C126 1.387 1_554 S
C125 H128 0.950 . S
C126 C125 1.387 1_556 S
C126 C129 1.387 . S
H127 C123 0.950 . S
H128 C125 0.950 . S
C129 C120 1.390 . S
C129 H122 0.950 . S
C129 C126 1.387 . S
C130 C131 1.387 . S
C130 H134 0.950 . S
C130 C139 1.390 . S
C131 C130 1.387 . S
C131 C133 1.387 . S
H132 C139 0.950 . S
C133 C131 1.387 . S
C133 C135 1.390 . S
C133 H137 0.950 . S
H134 C130 0.950 . S
C135 C133 1.390 . S
C135 C136 1.387 . S
C135 H138 0.950 . S
C136 C135 1.387 . S
C136 C139 1.387 . S
H137 C133 0.950 . S
H138 C135 0.950 . S
C139 C130 1.390 . S
C139 H132 0.950 . S
C139 C136 1.387 . S
C140 C141 1.387 . S
C140 H144 0.950 . S
C140 C149 1.390 . S
C141 C140 1.387 . S
C141 C143 1.387 . S
H142 C149 0.950 . S
C143 C141 1.387 . S
C143 C145 1.390 . S
C143 H147 0.950 . S
H144 C140 0.950 . S
C145 C143 1.390 . S
C145 C146 1.387 . S
C145 H148 0.950 . S
C146 C145 1.387 . S
C146 C149 1.387 . S
H147 C143 0.950 . S
H148 C145 0.950 . S
C149 C140 1.390 . S
C149 H142 0.950 . S
C149 C146 1.387 . S
C150 C151 1.387 . S
C150 H154 0.950 . S
C150 C159 1.390 . S
C151 C150 1.387 . S
C151 C153 1.387 1_556 S
H152 C159 0.950 . S
C153 C151 1.387 1_554 S
C153 C155 1.390 . S
C153 H157 0.950 . S
H154 C150 0.950 . S
C155 C153 1.390 . S
C155 C156 1.387 . S
C155 H158 0.950 . S
C156 C155 1.387 . S
C156 C159 1.387 1_554 S
H157 C153 0.950 . S
H158 C155 0.950 . S
C159 C150 1.390 . S
C159 H152 0.950 . S
C159 C156 1.387 1_556 S
C160 C161 1.387 . S
C160 H164 0.950 . S
C160 C169 1.390 . S
C161 C160 1.387 . S
C161 C163 1.387 . S
H162 C169 0.950 . S
C163 C161 1.387 . S
C163 C165 1.390 . S
C163 H167 0.950 . S
H164 C160 0.950 . S
C165 C163 1.390 . S
C165 C166 1.387 . S
C165 H168 0.950 . S
C166 C165 1.387 . S
C166 C169 1.387 . S
H167 C163 0.950 . S
H168 C165 0.950 . S
C169 C160 1.390 . S
C169 H162 0.950 . S
C169 C166 1.387 . S
C170 C171 1.387 . S
C170 H174 0.950 . S
C170 C179 1.390 . S
C171 C170 1.387 . S
C171 C173 1.387 . S
H172 C179 0.950 . S
C173 C171 1.387 . S
C173 C175 1.390 . S
C173 H177 0.950 . S
H174 C170 0.950 . S
C175 C173 1.390 . S
C175 C176 1.387 . S
C175 H178 0.950 . S
C176 C175 1.387 . S
C176 C179 1.387 . S
H177 C173 0.950 . S
H178 C175 0.950 . S
C179 C170 1.390 . S
C179 H172 0.950 . S
C179 C176 1.387 . S
C180 C181 1.387 . S
C180 H184 0.950 . S
C180 C189 1.390 . S
C181 C180 1.387 . S
C181 C183 1.387 1_455 S
H182 C189 0.950 . S
C183 C181 1.387 1_655 S
C183 C185 1.390 . S
C183 H187 0.950 . S
H184 C180 0.950 . S
C185 C183 1.390 . S
C185 C186 1.387 1_655 S
C185 H188 0.950 . S
C186 C185 1.387 1_455 S
C186 C189 1.387 . S
H187 C183 0.950 . S
H188 C185 0.950 . S
C189 C180 1.390 . S
C189 H182 0.950 . S
C189 C186 1.387 . S
C190 C191 1.387 1_556 S
C190 H194 0.950 1_556 S
C190 C199 1.390 . S
C191 C190 1.387 1_554 S
C191 C193 1.387 . S
H192 C199 0.950 . S
C193 C191 1.387 . S
C193 C195 1.390 1_554 S
C193 H197 0.950 . S
H194 C190 0.950 1_554 S
C195 C193 1.390 1_556 S
C195 C196 1.387 . S
C195 H198 0.950 . S
C196 C195 1.387 . S
C196 C199 1.387 . S
H197 C193 0.950 . S
H198 C195 0.950 . S
C199 C190 1.390 . S
C199 H192 0.950 . S
C199 C196 1.387 . S
C200 C201 1.387 . S
C200 H204 0.950 . S
C200 C209 1.390 . S
C201 C200 1.387 . S
C201 C203 1.387 . S
H202 C209 0.950 . S
C203 C201 1.387 . S
C203 C205 1.390 . S
C203 H207 0.950 . S
H204 C200 0.950 . S
C205 C203 1.390 . S
C205 C206 1.387 . S
C205 H208 0.950 . S
C206 C205 1.387 . S
C206 C209 1.387 . S
H207 C203 0.950 . S
H208 C205 0.950 . S
C209 C200 1.390 . S
C209 H202 0.950 . S
C209 C206 1.387 . S
C121 C6 2.329 . S
C126 C90 2.356 . S
C131 C59 2.960 . S
C136 C19 2.884 . S
C141 C46 1.674 . S
C146 C86 1.667 . S
C151 C99 2.787 . S
C156 C15 2.588 . S
C161 C50 2.679 . S
C166 C10 2.611 . S
C171 C95 1.702 . S
C176 C55 1.699 . S
C181 C18 0.773 . S
C186 C9 0.773 . S
C191 C49 0.766 . S
C196 C58 0.766 . S
C201 C98 0.772 . S
C206 C89 0.772 . S
