# Generated by pormake.
# Topology pcu, (6)-cn, num edge types: 1
# Building blocks:
#     Node 0, Type 0, BuildingBlock: PAMTOO_clean_sbu_0, # of connection points: 6
#     Edge 1, Type (0, 0), BuildingBlock: XUDNAN_clean_linker_2, # of connection points: 2
#     Edge 2, Type (0, 0), BuildingBlock: XUDNAN_clean_linker_2, # of connection points: 2
#     Edge 3, Type (0, 0), BuildingBlock: XUDNAN_clean_linker_2, # of connection points: 2
# Relax obj value: 0.000
# Max RMSD: 0.000
# Mean RMSD: 0.000
data_MOF--net-pcu--node1-PAMTOO_clean_sbu_0--edge1-XUDNAN_clean_linker_2
_symmetry_space_group_name_H-M    P1
_symmetry_Int_Tables_number       1
_symmetry_cell_setting            triclinic
loop_
_symmetry_equiv_pos_as_xyz
'x, y, z'
_cell_length_a     25.808544
_cell_length_b     15.274535
_cell_length_c     15.094506
_cell_angle_alpha  83.83947
_cell_angle_beta   99.191616
_cell_angle_gamma 115.56661
loop_
_atom_site_label
_atom_site_type_symbol
_atom_site_fract_x
_atom_site_fract_y
_atom_site_fract_z
_atom_type_partial_charge
Dy0 Dy 0.09154 0.02759 0.03137 0.0
Dy1 Dy 0.94629 0.93086 0.00786 0.0
C2 C 1.01515 -0.0015 0.83948 0.0
O3 O 0.06822 0.15443 0.00212 0.0
O4 O 0.97498 0.08433 0.03942 0.0
O5 O 0.17383 0.12455 0.98755 0.0
O6 O 0.17113 0.03737 0.11139 0.0
O7 O 0.98062 0.89062 0.14256 0.0
O8 O 0.06238 0.03059 0.16266 0.0
O9 O 0.96749 0.8145 0.97179 0.0
O10 O 0.06272 0.86578 0.03576 0.0
O11 O 0.86925 0.88769 0.07127 0.0
O12 O 0.86166 0.86325 0.93003 0.0
C13 C 1.02111 0.16031 0.01786 0.0
O14 O 0.06009 -0.01031 0.88734 0.0
O15 O 0.9745 0.00456 0.87746 0.0
C16 C 0.24988 0.07505 0.03048 0.0
C17 C 0.3408 0.03767 0.98685 0.0
C18 C 0.28516 -0.0031 0.93773 0.0
C19 C 0.24005 0.01523 0.95951 0.0
C20 C 0.30498 0.11498 0.08007 0.0
C21 C 0.34998 0.0965 0.05862 0.0
C22 C 0.20367 0.09739 0.05372 0.0
C23 C 1.01958 0.95671 0.19556 0.0
C24 C 1.01388 0.79883 -0.00167 0.0
C25 C 0.78625 0.89056 0.97779 0.0
C26 C 0.68809 0.9329 0.94876 0.0
C27 C 0.73363 0.97756 0.01702 0.0
C28 C 0.78224 0.95683 0.03129 0.0
C29 C 0.74128 0.8472 0.90874 0.0
C30 C 0.69287 0.86833 0.89413 0.0
C31 C 0.83435 0.86004 -0.00315 0.0
H32 H 0.27637 0.95028 0.88281 0.0
H33 H 0.19764 -0.01691 0.9208 0.0
H34 H 0.31336 0.16131 0.13511 0.0
H35 H 0.39233 0.13003 0.09716 0.0
H36 H 0.73167 0.02856 0.05955 0.0
H37 H 0.81616 -0.00839 0.08513 0.0
H38 H 0.743 0.79518 0.86714 0.0
H39 H 0.65837 0.83182 0.84162 0.0
H40 H 0.10021 0.02577 0.3448 0.0
H41 H 0.91553 0.88288 0.25757 0.0
H42 H 0.89551 0.88415 0.41126 0.0
H43 H 0.09349 0.89051 0.55949 0.0
H44 H 0.14936 -0.00828 0.61952 0.0
H45 H 0.14985 -0.0167 0.50154 0.0
H46 H 0.15111 0.15431 0.47067 0.0
H47 H 0.15027 0.16298 0.5885 0.0
H48 H 0.09534 0.17823 0.50682 0.0
H49 H 0.89441 0.90692 0.57018 0.0
H50 H 0.91218 0.93127 0.73265 0.0
H51 H 0.0975 0.0469 0.72427 0.0
C52 C 0.05568 -0.00518 0.35845 0.0
C53 C 1.00937 0.95448 0.28937 0.0
C54 C 0.95163 0.91365 0.30958 0.0
C55 C 0.93977 0.91453 0.39655 0.0
C56 C 0.98614 0.955 0.46308 0.0
C57 C 0.04297 -0.00714 0.4459 0.0
C58 C 0.08444 0.02747 0.5314 0.0
C59 C 0.12146 0.96979 0.55433 0.0
C60 C 0.12253 0.13728 0.52386 0.0
C61 C 0.04186 0.0037 0.59873 0.0
C62 C 0.98547 0.96335 0.55715 0.0
C63 C 0.93833 0.93776 0.60384 0.0
C64 C 0.94893 0.95243 0.69604 0.0
C65 C 1.00619 -0.00915 0.74102 0.0
C66 C 0.05328 0.01693 0.69158 0.0
H67 H 0.42507 0.00208 0.10048 0.0
H68 H 0.36714 0.03607 0.81803 0.0
H69 H 0.44922 0.01277 0.77743 0.0
H70 H 0.57727 0.13066 0.0864 0.0
H71 H 0.5969 0.05075 0.16715 0.0
H72 H 0.53277 0.06758 0.17396 0.0
H73 H 0.47093 0.88173 0.16754 0.0
H74 H 0.5349 0.86428 0.16104 0.0
H75 H 0.4734 0.81764 0.07586 0.0
H76 H 0.53896 -0.01145 0.76771 0.0
H77 H 0.62829 0.96239 0.78964 0.0
H78 H 0.62786 0.94505 0.07842 0.0
C79 C 0.42974 0.00511 0.03005 0.0
C80 C 0.38945 0.02084 0.96244 0.0
C81 C 0.39685 0.02284 0.87105 0.0
C82 C 0.4436 0.01031 0.84732 0.0
C83 C 0.48264 -0.00439 0.91567 0.0
C84 C 0.47608 -0.00739 0.00517 0.0
C85 C 0.52403 0.97555 0.06564 0.0
C86 C 0.55986 0.06126 0.12689 0.0
C87 C 0.49933 0.87906 0.12076 0.0
C88 C 0.55895 0.97043 -0.00379 0.0
C89 C 0.53426 -0.01813 0.91009 0.0
C90 C 0.55855 0.97921 0.83487 0.0
C91 C 0.60919 0.96392 0.848 0.0
C92 C 0.63522 0.95167 0.9357 0.0
C93 C 0.60958 0.95541 0.01055 0.0
H94 H 0.09429 0.72249 0.0566 0.0
H95 H 0.92274 0.65264 0.91019 0.0
H96 H 0.91061 0.48727 0.8929 0.0
H97 H 0.13196 0.57319 0.92396 0.0
H98 H 0.16948 0.53462 0.02008 0.0
H99 H 0.16745 0.65143 0.01715 0.0
H100 H 0.12417 0.60562 0.16784 0.0
H101 H 0.1259 0.48871 0.17113 0.0
H102 H 0.05882 0.49628 0.17755 0.0
H103 H 0.91156 0.32824 0.90129 0.0
H104 H 0.9278 0.18006 0.92974 0.0
H105 H 0.10001 0.34638 0.06505 0.0
C106 C 0.05451 0.67266 0.02007 0.0
C107 C 1.00942 0.70098 0.98519 0.0
C108 C 0.95791 0.63325 0.93813 0.0
C109 C 0.95054 0.53884 0.92751 0.0
C110 C 0.99515 0.51286 0.96362 0.0
C111 C 0.04634 0.57733 0.0084 0.0
C112 C 0.08621 0.52797 0.04301 0.0
C113 C 0.14209 0.57459 -0.00163 0.0
C114 C 0.09954 0.52976 0.146 0.0
C115 C 0.0486 0.42546 0.01219 0.0
C116 C 0.99634 0.41928 0.96645 0.0
C117 C 0.95254 0.3321 0.93588 0.0
C118 C 0.96207 0.24836 0.95281 0.0
C119 C 1.01514 0.25224 -0.0008 0.0
C120 C 0.05942 0.34212 0.02829 0.0
loop_
_geom_bond_atom_site_label_1
_geom_bond_atom_site_label_2
_geom_bond_distance
_geom_bond_site_symmetry_2
_ccdc_geom_bond_type
Dy0 O3 2.307 . S
Dy0 O5 2.395 1_554 S
Dy0 O6 2.379 . S
Dy0 O8 2.339 . S
Dy0 O10 2.298 1_545 S
Dy0 O14 2.275 1_554 S
Dy0 C22 2.738 . S
Dy1 O4 2.298 1_565 S
Dy1 O7 2.275 1_556 S
Dy1 O9 2.307 . S
Dy1 O11 2.395 1_556 S
Dy1 O12 2.379 . S
Dy1 O15 2.339 . S
Dy1 C31 2.738 . S
C2 O14 1.254 1_665 S
C2 O15 1.257 . S
O3 Dy0 2.307 . S
O3 C13 1.275 1_554 S
O4 Dy1 2.298 1_545 S
O4 C13 1.232 1_655 S
O5 Dy0 2.395 1_556 S
O5 C22 1.255 1_556 S
O6 Dy0 2.379 . S
O6 C22 1.249 . S
O7 Dy1 2.275 1_554 S
O7 C23 1.254 1_665 S
O8 Dy0 2.339 . S
O8 C23 1.257 . S
O9 Dy1 2.307 . S
O9 C24 1.270 1_556 S
O10 Dy0 2.298 1_565 S
O10 C24 1.234 1_455 S
O11 Dy1 2.395 1_554 S
O11 C31 1.255 1_554 S
O12 Dy1 2.379 . S
O12 C31 1.249 . S
C13 O3 1.275 1_556 S
C13 O4 1.232 1_455 S
O14 Dy0 2.275 1_556 S
O14 C2 1.254 1_445 S
O15 Dy1 2.339 . S
O15 C2 1.257 . S
C16 C19 1.344 1_544 S
C16 C20 1.328 . S
C16 C22 1.516 . S
C17 C18 1.304 . S
C17 C21 1.323 1_566 S
C18 C17 1.304 . S
C18 C19 1.371 . S
C18 H32 0.930 . S
C19 C16 1.344 1_566 S
C19 C18 1.371 . S
C19 H33 0.931 . S
C20 C16 1.328 . S
C20 C21 1.433 . S
C20 H34 0.931 . S
C21 C17 1.323 1_544 S
C21 C20 1.433 . S
C21 H35 0.933 . S
C22 Dy0 2.738 . S
C22 O5 1.255 1_554 S
C22 O6 1.249 . S
C22 C16 1.516 . S
C23 O7 1.254 1_445 S
C23 O8 1.257 . S
C24 O9 1.270 1_554 S
C24 O10 1.234 1_655 S
C25 C28 1.344 1_566 S
C25 C29 1.328 . S
C25 C31 1.516 . S
C26 C27 1.304 . S
C26 C30 1.323 1_544 S
C27 C26 1.304 . S
C27 C28 1.371 . S
C27 H36 0.930 . S
C28 C25 1.344 1_544 S
C28 C27 1.371 . S
C28 H37 0.931 . S
C29 C25 1.328 . S
C29 C30 1.433 . S
C29 H38 0.931 . S
C30 C26 1.323 1_566 S
C30 C29 1.433 . S
C30 H39 0.933 . S
C31 Dy1 2.738 . S
C31 O11 1.255 1_556 S
C31 O12 1.249 . S
C31 C25 1.516 . S
H32 C18 0.930 . S
H33 C19 0.931 . S
H34 C20 0.931 . S
H35 C21 0.933 . S
H36 C27 0.930 . S
H37 C28 0.931 . S
H38 C29 0.931 . S
H39 C30 0.933 . S
H40 C52 0.930 . S
H41 C54 0.930 . S
H42 C55 0.930 . S
H43 C59 0.959 . S
H44 C59 0.959 . S
H45 C59 0.961 . S
H46 C60 0.960 . S
H47 C60 0.961 . S
H48 C60 0.959 1_655 S
H49 C63 0.929 . S
H50 C64 0.931 . S
H51 C66 0.930 . S
C52 H40 0.930 . S
C52 C53 1.399 1_445 S
C52 C57 1.399 . S
C53 C52 1.399 1_665 S
C53 C54 1.376 . S
C54 H41 0.930 . S
C54 C53 1.376 . S
C54 C55 1.388 . S
C55 H42 0.930 . S
C55 C54 1.388 . S
C55 C56 1.390 . S
C56 C55 1.390 . S
C56 C57 1.394 1_665 S
C56 C62 1.465 . S
C57 C52 1.399 . S
C57 C56 1.394 1_445 S
C57 C58 1.516 . S
C58 C57 1.516 . S
C58 C59 1.502 . S
C58 C60 1.561 . S
C58 C61 1.526 . S
C59 H43 0.959 . S
C59 H44 0.959 . S
C59 H45 0.961 . S
C59 C58 1.502 . S
C60 H46 0.960 . S
C60 H47 0.961 . S
C60 H48 0.959 1_455 S
C60 C58 1.561 . S
C61 C58 1.526 . S
C61 C62 1.396 1_445 S
C61 C66 1.390 . S
C62 C56 1.465 . S
C62 C61 1.396 1_665 S
C62 C63 1.399 . S
C63 H49 0.929 . S
C63 C62 1.399 . S
C63 C64 1.385 . S
C64 H50 0.931 . S
C64 C63 1.385 . S
C64 C65 1.389 . S
C65 C64 1.389 . S
C65 C66 1.387 1_665 S
C66 H51 0.930 . S
C66 C61 1.390 . S
C66 C65 1.387 1_445 S
H67 C79 0.930 . S
H68 C81 0.930 . S
H69 C82 0.930 . S
H70 C86 0.959 . S
H71 C86 0.959 . S
H72 C86 0.961 . S
H73 C87 0.960 . S
H74 C87 0.961 . S
H75 C87 0.959 . S
H76 C90 0.929 . S
H77 C91 0.931 . S
H78 C93 0.930 . S
C79 H67 0.930 . S
C79 C80 1.399 1_544 S
C79 C84 1.399 . S
C80 C79 1.399 1_566 S
C80 C81 1.376 . S
C81 H68 0.930 . S
C81 C80 1.376 . S
C81 C82 1.388 . S
C82 H69 0.930 . S
C82 C81 1.388 . S
C82 C83 1.390 . S
C83 C82 1.390 . S
C83 C84 1.394 1_566 S
C83 C89 1.465 . S
C84 C79 1.399 . S
C84 C83 1.394 1_544 S
C84 C85 1.516 . S
C85 C84 1.516 . S
C85 C86 1.502 . S
C85 C87 1.561 1_545 S
C85 C88 1.526 . S
C86 H70 0.959 . S
C86 H71 0.959 . S
C86 H72 0.961 . S
C86 C85 1.502 . S
C87 H73 0.960 . S
C87 H74 0.961 . S
C87 H75 0.959 . S
C87 C85 1.561 1_565 S
C88 C85 1.526 . S
C88 C89 1.396 1_544 S
C88 C93 1.390 . S
C89 C83 1.465 . S
C89 C88 1.396 1_566 S
C89 C90 1.399 . S
C90 H76 0.929 . S
C90 C89 1.399 . S
C90 C91 1.385 . S
C91 H77 0.931 . S
C91 C90 1.385 . S
C91 C92 1.389 . S
C92 C91 1.389 . S
C92 C93 1.387 1_566 S
C93 H78 0.930 . S
C93 C88 1.390 . S
C93 C92 1.387 1_544 S
H94 C106 0.930 . S
H95 C108 0.930 . S
H96 C109 0.930 . S
H97 C113 0.959 . S
H98 C113 0.959 . S
H99 C113 0.961 . S
H100 C114 0.960 . S
H101 C114 0.961 . S
H102 C114 0.959 . S
H103 C117 0.929 . S
H104 C118 0.931 . S
H105 C120 0.930 . S
C106 H94 0.930 . S
C106 C107 1.399 1_454 S
C106 C111 1.399 . S
C107 C106 1.399 1_656 S
C107 C108 1.376 . S
C108 H95 0.930 . S
C108 C107 1.376 . S
C108 C109 1.388 . S
C109 H96 0.930 . S
C109 C108 1.388 . S
C109 C110 1.390 . S
C110 C109 1.390 . S
C110 C111 1.394 1_656 S
C110 C116 1.465 . S
C111 C106 1.399 . S
C111 C110 1.394 1_454 S
C111 C112 1.516 . S
C112 C111 1.516 . S
C112 C113 1.502 . S
C112 C114 1.561 1_455 S
C112 C115 1.526 . S
C113 H97 0.959 . S
C113 H98 0.959 . S
C113 H99 0.961 . S
C113 C112 1.502 . S
C114 H100 0.960 . S
C114 H101 0.961 . S
C114 H102 0.959 . S
C114 C112 1.561 1_655 S
C115 C112 1.526 . S
C115 C116 1.396 1_454 S
C115 C120 1.390 . S
C116 C110 1.465 . S
C116 C115 1.396 1_656 S
C116 C117 1.399 . S
C117 H103 0.929 . S
C117 C116 1.399 . S
C117 C118 1.385 . S
C118 H104 0.931 . S
C118 C117 1.385 . S
C118 C119 1.389 . S
C119 C118 1.389 . S
C119 C120 1.387 1_656 S
C120 H105 0.930 . S
C120 C115 1.390 . S
C120 C119 1.387 1_454 S
C53 C23 1.484 1_665 S
C65 C2 1.445 . S
C80 C17 1.484 . S
C92 C26 1.498 1_566 S
C107 C24 1.493 1_556 S
C119 C13 1.479 1_655 S
