# Generated by pormake.
# Topology uom, (4)-cn, num edge types: 1
# Building blocks:
#     Node 0, Type 0, BuildingBlock: MUDLON_clean_sbu_0, # of connection points: 4
#     Node 1, Type 0, BuildingBlock: MUDLON_clean_sbu_0, # of connection points: 4
#     Node 2, Type 0, BuildingBlock: MUDLON_clean_sbu_0, # of connection points: 4
#     Node 3, Type 0, BuildingBlock: MUDLON_clean_sbu_0, # of connection points: 4
#     Node 4, Type 0, BuildingBlock: MUDLON_clean_sbu_0, # of connection points: 4
#     Node 5, Type 0, BuildingBlock: MUDLON_clean_sbu_0, # of connection points: 4
#     Edge 6, Type (0, 0), BuildingBlock: EYOCIG_clean_linker_4, # of connection points: 2
#     Edge 7, Type (0, 0), BuildingBlock: EYOCIG_clean_linker_4, # of connection points: 2
#     Edge 8, Type (0, 0), BuildingBlock: EYOCIG_clean_linker_4, # of connection points: 2
#     Edge 9, Type (0, 0), BuildingBlock: EYOCIG_clean_linker_4, # of connection points: 2
#     Edge 10, Type (0, 0), BuildingBlock: EYOCIG_clean_linker_4, # of connection points: 2
#     Edge 11, Type (0, 0), BuildingBlock: EYOCIG_clean_linker_4, # of connection points: 2
#     Edge 12, Type (0, 0), BuildingBlock: EYOCIG_clean_linker_4, # of connection points: 2
#     Edge 13, Type (0, 0), BuildingBlock: EYOCIG_clean_linker_4, # of connection points: 2
#     Edge 14, Type (0, 0), BuildingBlock: EYOCIG_clean_linker_4, # of connection points: 2
#     Edge 15, Type (0, 0), BuildingBlock: EYOCIG_clean_linker_4, # of connection points: 2
#     Edge 16, Type (0, 0), BuildingBlock: EYOCIG_clean_linker_4, # of connection points: 2
#     Edge 17, Type (0, 0), BuildingBlock: EYOCIG_clean_linker_4, # of connection points: 2
# Relax obj value: 0.093
# Max RMSD: 0.085
# Mean RMSD: 0.085
data_MOF--net-uom--node1-MUDLON_clean_sbu_0--edge1-EYOCIG_clean_linker_4
_symmetry_space_group_name_H-M    P1
_symmetry_Int_Tables_number       1
_symmetry_cell_setting            triclinic
loop_
_symmetry_equiv_pos_as_xyz
'x, y, z'
_cell_length_a     24.902176
_cell_length_b     24.8805
_cell_length_c     32.276416
_cell_angle_alpha  89.949597
_cell_angle_beta   90.009793
_cell_angle_gamma 120.00603
loop_
_atom_site_label
_atom_site_type_symbol
_atom_site_fract_x
_atom_site_fract_y
_atom_site_fract_z
_atom_type_partial_charge
Mg0 Mg 0.24436 0.01018 0.07768 0.0
C1 C 0.25425 0.06589 0.1602 0.0
O2 O 0.21639 0.00684 0.16778 0.0
C3 C 0.18993 0.93165 1.00357 0.0
O4 O 0.16833 0.89018 0.03335 0.0
C5 C 0.35764 -2e-05 0.07997 0.0
O6 O 0.31738 0.94802 0.0981 0.0
O7 O 0.34056 0.03735 0.06716 0.0
O8 O 0.27602 0.08302 0.12397 0.0
O9 O 0.17194 0.03356 0.07095 0.0
C10 C 0.11796 -0.00506 0.08379 0.0
O11 O 0.1072 0.94225 0.10028 0.0
O12 O 0.2259 -0.01162 1.01236 0.0
Mg13 Mg 0.26142 0.26844 0.41071 0.0
C14 C 0.21573 0.27906 0.49292 0.0
O15 O 0.23652 0.24088 0.50049 0.0
C16 C 0.28541 0.21535 0.33593 0.0
O17 O 0.30393 0.19215 0.36549 0.0
C18 C 0.38667 0.37997 0.41408 0.0
O19 O 0.39689 0.33875 0.43226 0.0
O20 O 0.33268 0.36421 0.40104 0.0
O21 O 0.22047 0.30084 0.45666 0.0
O22 O 0.16572 0.19593 0.40336 0.0
C23 C 0.15009 0.14183 0.41615 0.0
O24 O 0.19162 0.13103 0.43316 0.0
O25 O 0.26538 0.25179 0.34512 0.0
Mg26 Mg 0.02155 0.28671 0.74397 0.0
C27 C 0.96616 0.24085 0.82661 0.0
O28 O 0.02524 0.26244 0.83411 0.0
C29 C 0.0992 0.31133 0.66917 0.0
O30 O 0.14104 0.3306 0.69864 0.0
C31 C 0.03229 0.41055 0.74654 0.0
O32 O 0.08389 0.42179 0.76491 0.0
O33 O -0.00516 0.35622 0.73363 0.0
O34 O 0.94886 0.24519 0.79037 0.0
O35 O -0.00077 0.19122 0.73663 0.0
C36 C 0.0382 0.17628 0.74939 0.0
O37 O 0.09032 0.21834 0.76633 0.0
O38 O 0.04267 0.29067 0.67845 0.0
Mg39 Mg 0.76208 0.04572 0.07725 0.0
C40 C 0.75015 -0.01044 0.15969 0.0
O41 O 0.7882 0.04858 0.16718 0.0
C42 C 0.81618 0.12258 1.00245 0.0
O43 O 0.8392 0.16432 0.03198 0.0
C44 C 0.65032 0.05905 0.08007 0.0
O45 O 0.69128 0.11078 0.09804 0.0
O46 O 0.6664 0.02093 0.06729 0.0
O47 O 0.72897 0.97239 0.12336 0.0
O48 O 0.83429 0.02198 0.07085 0.0
C49 C 0.88817 0.06002 0.08409 0.0
O50 O 0.89913 0.11252 0.10094 0.0
O51 O 0.77946 0.06614 1.01166 0.0
Mg52 Mg 0.743 0.78659 0.4106 0.0
C53 C 0.78559 0.77903 0.4956 0.0
O54 O 0.76562 0.81815 0.50196 0.0
C55 C 0.71675 0.84218 0.33694 0.0
O56 O 0.69819 0.86492 0.36673 0.0
C57 C 0.62195 0.672 0.41318 0.0
O58 O 0.61038 0.71169 0.43224 0.0
O59 O 0.67609 0.68988 0.39943 0.0
O60 O 0.78131 0.75629 0.45978 0.0
O61 O 0.83974 0.85559 0.40216 0.0
C62 C 0.85621 0.9101 0.41455 0.0
O63 O 0.8151 0.92195 0.43105 0.0
O64 O 0.73719 0.80597 0.34573 0.0
Mg65 Mg -0.01508 0.76824 0.74421 0.0
C66 C 0.03612 0.81307 0.82886 0.0
O67 O -0.02256 0.79469 0.83541 0.0
C68 C 0.90041 0.74264 0.67202 0.0
O69 O 0.86008 0.72447 0.70241 0.0
C70 C 0.9762 0.64621 0.74509 0.0
O71 O 0.92445 0.63478 0.76334 0.0
O72 O 0.01374 0.70073 0.7324 0.0
O73 O 0.05368 0.80667 0.79324 0.0
O74 O 0.01447 0.8654 0.73518 0.0
C75 C 0.97711 0.88263 0.7477 0.0
O76 O 0.92411 0.84204 0.76449 0.0
O77 O 0.95715 0.7623 0.67991 0.0
C78 C 0.27671 0.14259 0.22262 0.0
C79 C 0.26862 0.11041 0.1927 0.0
C80 C 0.2815 0.17379 0.26017 0.0
C81 C 0.28231 0.19437 0.29412 0.0
C82 C 0.1624 0.30216 0.55559 0.0
C83 C 0.18607 0.29386 0.52552 0.0
C84 C 0.13648 0.30715 0.59331 0.0
C85 C 0.11702 0.3081 0.62735 0.0
C86 C 0.85836 0.16017 0.92675 0.0
C87 C 0.83749 0.14042 0.96067 0.0
C88 C 0.88969 0.18657 0.8892 0.0
C89 C 0.92182 0.21067 0.85924 0.0
C90 C 0.72591 0.91359 0.22288 0.0
C91 C 0.73467 0.94524 0.19253 0.0
C92 C 0.72056 0.88328 0.26095 0.0
C93 C 0.71958 0.86331 0.29517 0.0
C94 C 0.86171 0.74827 0.59686 0.0
C95 C 0.8812 0.74639 0.6307 0.0
C96 C 0.83652 0.75465 0.55921 0.0
C97 C 0.81379 0.7639 0.529 0.0
C98 C 0.14551 0.89312 0.92847 0.0
C99 C 0.16731 0.91324 0.96212 0.0
C100 C 0.113 0.86646 0.89136 0.0
C101 C 0.08021 0.84249 0.86168 0.0
C102 C 0.02739 0.02072 0.08032 0.0
C103 C 0.0692 0.00959 0.08169 0.0
C104 C -0.02168 0.03364 0.08039 0.0
C105 C 0.93667 0.045 0.08185 0.0
C106 C 0.9726 0.00059 0.41071 0.0
C107 C 0.91983 0.95836 0.41205 0.0
C108 C 0.0342 0.0505 0.41118 0.0
C109 C 0.08686 0.09282 0.41316 0.0
C110 C 0.01509 0.0608 0.74433 0.0
C111 C 0.02483 0.11329 0.74637 0.0
C112 C 0.00379 -0.00069 0.74376 0.0
C113 C -0.00684 0.94648 0.74505 0.0
C114 C 0.53483 0.03556 0.07425 0.0
C115 C 0.58717 0.04499 0.07646 0.0
C116 C 0.4736 0.02497 0.07417 0.0
C117 C 0.4211 0.01511 0.07627 0.0
C118 C 0.53078 0.55605 0.40752 0.0
C119 C 0.57373 0.60845 0.4094 0.0
C120 C 0.47958 0.49508 0.40788 0.0
C121 C 0.43623 0.44294 0.41024 0.0
C122 C -0.0004 0.55411 0.73935 0.0
C123 C -0.00923 0.59746 0.74132 0.0
C124 C 0.00905 0.50269 0.73977 0.0
C125 C 0.01803 0.45947 0.74228 0.0
loop_
_geom_bond_atom_site_label_1
_geom_bond_atom_site_label_2
_geom_bond_distance
_geom_bond_site_symmetry_2
_ccdc_geom_bond_type
Mg0 O7 2.141 . S
Mg0 O8 2.048 . S
Mg0 O9 2.048 . S
Mg0 O12 2.141 1_554 S
C1 O2 1.313 . S
C1 O8 1.195 . S
O2 C1 1.313 . S
C3 O4 1.245 . S
C3 O12 1.289 1_565 S
O4 C3 1.245 . S
C5 O6 1.245 1_545 S
C5 O7 1.289 . S
O6 C5 1.245 1_565 S
O7 Mg0 2.141 . S
O7 C5 1.289 . S
O8 Mg0 2.048 . S
O8 C1 1.195 . S
O9 Mg0 2.048 . S
O9 C10 1.195 . S
C10 O9 1.195 . S
C10 O11 1.313 1_545 S
O11 C10 1.313 1_565 S
O12 Mg0 2.141 1_556 S
O12 C3 1.289 1_545 S
Mg13 O20 2.141 . S
Mg13 O21 2.048 . S
Mg13 O22 2.048 . S
Mg13 O25 2.141 . S
C14 O15 1.313 . S
C14 O21 1.195 . S
O15 C14 1.313 . S
C16 O17 1.245 . S
C16 O25 1.289 . S
O17 C16 1.245 . S
C18 O19 1.245 . S
C18 O20 1.289 . S
O19 C18 1.245 . S
O20 Mg13 2.141 . S
O20 C18 1.289 . S
O21 Mg13 2.048 . S
O21 C14 1.195 . S
O22 Mg13 2.048 . S
O22 C23 1.195 . S
C23 O22 1.195 . S
C23 O24 1.313 . S
O24 C23 1.313 . S
O25 Mg13 2.141 . S
O25 C16 1.289 . S
Mg26 O33 2.141 . S
Mg26 O34 2.048 1_455 S
Mg26 O35 2.048 . S
Mg26 O38 2.141 . S
C27 O28 1.313 1_655 S
C27 O34 1.195 . S
O28 C27 1.313 1_455 S
C29 O30 1.245 . S
C29 O38 1.289 . S
O30 C29 1.245 . S
C31 O32 1.245 . S
C31 O33 1.289 . S
O32 C31 1.245 . S
O33 Mg26 2.141 . S
O33 C31 1.289 . S
O34 Mg26 2.048 1_655 S
O34 C27 1.195 . S
O35 Mg26 2.048 . S
O35 C36 1.195 . S
C36 O35 1.195 . S
C36 O37 1.313 . S
O37 C36 1.313 . S
O38 Mg26 2.141 . S
O38 C29 1.289 . S
Mg39 O46 2.141 . S
Mg39 O47 2.048 1_545 S
Mg39 O48 2.048 . S
Mg39 O51 2.141 1_554 S
C40 O41 1.313 . S
C40 O47 1.195 1_545 S
O41 C40 1.313 . S
C42 O43 1.245 . S
C42 O51 1.289 . S
O43 C42 1.245 . S
C44 O45 1.245 . S
C44 O46 1.289 . S
O45 C44 1.245 . S
O46 Mg39 2.141 . S
O46 C44 1.289 . S
O47 Mg39 2.048 1_565 S
O47 C40 1.195 1_565 S
O48 Mg39 2.048 . S
O48 C49 1.195 . S
C49 O48 1.195 . S
C49 O50 1.313 . S
O50 C49 1.313 . S
O51 Mg39 2.141 1_556 S
O51 C42 1.289 . S
Mg52 O59 2.141 . S
Mg52 O60 2.048 . S
Mg52 O61 2.048 . S
Mg52 O64 2.141 . S
C53 O54 1.313 . S
C53 O60 1.195 . S
O54 C53 1.313 . S
C55 O56 1.245 . S
C55 O64 1.289 . S
O56 C55 1.245 . S
C57 O58 1.245 . S
C57 O59 1.289 . S
O58 C57 1.245 . S
O59 Mg52 2.141 . S
O59 C57 1.289 . S
O60 Mg52 2.048 . S
O60 C53 1.195 . S
O61 Mg52 2.048 . S
O61 C62 1.195 . S
C62 O61 1.195 . S
C62 O63 1.313 . S
O63 C62 1.313 . S
O64 Mg52 2.141 . S
O64 C55 1.289 . S
Mg65 O72 2.141 . S
Mg65 O73 2.048 . S
Mg65 O74 2.048 . S
Mg65 O77 2.141 . S
C66 O67 1.313 . S
C66 O73 1.195 . S
O67 C66 1.313 . S
C68 O69 1.245 . S
C68 O77 1.289 1_655 S
O69 C68 1.245 . S
C70 O71 1.245 1_455 S
C70 O72 1.289 . S
O71 C70 1.245 1_655 S
O72 Mg65 2.141 . S
O72 C70 1.289 . S
O73 Mg65 2.048 . S
O73 C66 1.195 . S
O74 Mg65 2.048 . S
O74 C75 1.195 . S
C75 O74 1.195 . S
C75 O76 1.313 1_455 S
O76 C75 1.313 1_655 S
O77 Mg65 2.141 . S
O77 C68 1.289 1_455 S
C78 C79 1.170 . S
C78 C80 1.380 . S
C79 C78 1.170 . S
C80 C78 1.380 . S
C80 C81 1.170 . S
C81 C80 1.170 . S
C82 C83 1.170 . S
C82 C84 1.380 . S
C83 C82 1.170 . S
C84 C82 1.380 . S
C84 C85 1.170 . S
C85 C84 1.170 . S
C86 C87 1.170 . S
C86 C88 1.380 . S
C87 C86 1.170 . S
C88 C86 1.380 . S
C88 C89 1.170 . S
C89 C88 1.170 . S
C90 C91 1.170 . S
C90 C92 1.380 . S
C91 C90 1.170 . S
C92 C90 1.380 . S
C92 C93 1.170 . S
C93 C92 1.170 . S
C94 C95 1.170 . S
C94 C96 1.380 . S
C95 C94 1.170 . S
C96 C94 1.380 . S
C96 C97 1.170 . S
C97 C96 1.170 . S
C98 C99 1.170 . S
C98 C100 1.380 . S
C99 C98 1.170 . S
C100 C98 1.380 . S
C100 C101 1.170 . S
C101 C100 1.170 . S
C102 C103 1.170 . S
C102 C104 1.380 1_455 S
C103 C102 1.170 . S
C104 C102 1.380 1_655 S
C104 C105 1.170 . S
C105 C104 1.170 . S
C106 C107 1.170 1_545 S
C106 C108 1.380 1_655 S
C107 C106 1.170 1_565 S
C108 C106 1.380 1_455 S
C108 C109 1.170 . S
C109 C108 1.170 . S
C110 C111 1.170 . S
C110 C112 1.380 . S
C111 C110 1.170 . S
C112 C110 1.380 . S
C112 C113 1.170 1_545 S
C113 C112 1.170 1_565 S
C114 C115 1.170 . S
C114 C116 1.380 . S
C115 C114 1.170 . S
C116 C114 1.380 . S
C116 C117 1.170 . S
C117 C116 1.170 . S
C118 C119 1.170 . S
C118 C120 1.380 . S
C119 C118 1.170 . S
C120 C118 1.380 . S
C120 C121 1.170 . S
C121 C120 1.170 . S
C122 C123 1.170 . S
C122 C124 1.380 . S
C123 C122 1.170 . S
C124 C122 1.380 . S
C124 C125 1.170 . S
C125 C124 1.170 . S
C79 C1 1.678 . S
C81 C16 1.686 . S
C83 C14 1.682 . S
C85 C29 1.690 . S
C87 C42 1.679 . S
C89 C27 1.679 . S
C91 C40 1.693 1_565 S
C93 C55 1.681 . S
C95 C68 1.663 . S
C97 C53 1.694 . S
C99 C3 1.688 . S
C101 C66 1.679 . S
C103 C10 1.095 . S
C105 C49 1.098 . S
C107 C62 1.101 . S
C109 C23 1.106 . S
C111 C36 1.097 . S
C113 C75 1.101 . S
C115 C44 1.460 . S
C117 C5 1.466 . S
C119 C57 1.462 . S
C121 C18 1.457 . S
C123 C70 1.459 . S
C125 C31 1.466 . S
