# Generated by pormake.
# Topology kag, (6)-cn, num edge types: 1
# Building blocks:
#     Node 0, Type 0, BuildingBlock: INOVEN_clean_sbu_0, # of connection points: 6
#     Node 1, Type 0, BuildingBlock: INOVEN_clean_sbu_0, # of connection points: 6
#     Node 2, Type 0, BuildingBlock: INOVEN_clean_sbu_0, # of connection points: 6
#     Edge 3, Type (0, 0), None
#     Edge 4, Type (0, 0), None
#     Edge 5, Type (0, 0), None
#     Edge 6, Type (0, 0), None
#     Edge 7, Type (0, 0), None
#     Edge 8, Type (0, 0), None
#     Edge 9, Type (0, 0), None
#     Edge 10, Type (0, 0), None
#     Edge 11, Type (0, 0), None
# Relax obj value: 0.221
# Max RMSD: 0.323
# Mean RMSD: 0.174
data_MOF--net-kag--node1-INOVEN_clean_sbu_0--edge1-none
_symmetry_space_group_name_H-M    P1
_symmetry_Int_Tables_number       1
_symmetry_cell_setting            triclinic
loop_
_symmetry_equiv_pos_as_xyz
'x, y, z'
_cell_length_a     14.430463
_cell_length_b     25.246586
_cell_length_c     6.1168448
_cell_angle_alpha  96.712345
_cell_angle_beta   90.912681
_cell_angle_gamma 81.180393
loop_
_atom_site_label
_atom_site_type_symbol
_atom_site_fract_x
_atom_site_fract_y
_atom_site_fract_z
_atom_type_partial_charge
Gd0 Gd 0.14114 0.46846 0.9884 0.0
Gd1 Gd 1.10601 0.59043 0.06328 0.0
C2 C 0.92451 0.5312 0.03697 0.0
C3 C 0.15768 0.36592 1.01826 0.0
C4 C 1.11153 0.31709 0.99081 0.0
C5 C 0.12294 0.28181 0.79408 0.0
C6 C 1.06659 0.30159 0.17006 0.0
C7 C 1.04935 0.21568 0.95968 0.0
C8 C 1.0357 0.25146 0.15447 0.0
C9 C 1.09165 0.23177 0.77827 0.0
C10 C 0.12747 0.51695 0.61642 0.0
C11 C 0.32262 0.5277 1.01443 0.0
C12 C 1.08937 0.69302 0.03434 0.0
C13 C 0.13556 0.74184 0.06109 0.0
C14 C 0.12421 0.77721 0.25757 0.0
C15 C 0.18044 0.75723 0.88153 0.0
C16 C 0.19776 0.84323 0.09113 0.0
C17 C 0.21134 0.80735 0.89658 0.0
C18 C 0.15551 0.82723 0.27284 0.0
C19 C 1.11947 0.54172 0.43497 0.0
O20 O 0.98241 0.48529 0.04794 0.0
O21 O 0.95652 0.57642 1.01205 0.0
O22 O 0.1786 0.38593 0.84068 0.0
O23 O 0.13138 0.40304 0.18278 0.0
O24 O 0.18425 0.4729 0.63737 0.0
O25 O 1.07743 0.5317 0.78591 0.0
O26 O 0.26471 0.5736 1.0032 0.0
O27 O 0.29062 0.4825 0.03973 0.0
O28 O 1.06913 0.6729 0.21221 0.0
O29 O 1.11507 0.65599 0.86914 0.0
O30 O 1.06264 0.58575 0.4141 0.0
O31 O 0.16968 0.52723 0.26566 0.0
H32 H 0.15896 0.292 0.65439 0.0
H33 H 1.05757 0.32751 0.32472 0.0
H34 H 1.00171 0.2405 0.29562 0.0
H35 H 1.1037 0.20487 0.62672 0.0
H36 H 1.08823 0.7671 0.39748 0.0
H37 H 0.18941 0.73124 0.72705 0.0
H38 H 0.24527 0.81825 0.7552 0.0
H39 H 0.14352 0.85421 0.4242 0.0
Gd40 Gd 0.72843 1.01481 0.03263 0.0
Gd41 Gd 0.51874 0.04402 1.01691 0.0
C42 C 0.62942 0.14285 0.03706 0.0
C43 C 0.9033 1.01556 0.95825 0.0
C44 C 0.95303 0.0621 0.94116 0.0
C45 C 1.00723 0.08062 0.11854 0.0
C46 C 0.93774 0.09233 0.76088 0.0
C47 C 1.02058 0.16147 0.94752 0.0
C48 C 0.97139 0.14145 0.76396 0.0
C49 C 1.04019 0.12994 0.12227 0.0
C50 C 0.64472 1.02602 0.42715 0.0
C51 C 0.61774 0.91601 1.01296 0.0
C52 C 0.3438 0.04329 0.09053 0.0
C53 C 0.29409 0.99677 0.10815 0.0
C54 C 0.23982 0.97819 0.93104 0.0
C55 C 0.30947 0.96661 0.28864 0.0
C56 C 0.22654 0.89742 0.10275 0.0
C57 C 0.27582 0.91751 0.28605 0.0
C58 C 0.20686 0.92888 0.92778 0.0
C59 C 0.60284 0.03289 0.62259 0.0
O60 O 0.7043 0.10519 1.00203 0.0
O61 O 0.54588 0.12986 0.07028 0.0
O62 O 0.87087 1.01209 0.15391 0.0
O63 O 0.84353 1.00534 0.80123 0.0
O64 O 0.71669 0.98961 0.37191 0.0
O65 O 0.62269 0.05595 0.27709 0.0
O66 O 0.54289 0.95367 0.04821 0.0
O67 O 0.70125 0.92898 0.97937 0.0
O68 O 0.37644 0.04656 0.89488 0.0
O69 O 0.40339 0.0537 0.24774 0.0
O70 O 0.53087 0.06931 0.67772 0.0
O71 O 0.6244 1.00289 0.77256 0.0
H72 H 1.02094 0.058 0.25868 0.0
H73 H 0.89646 0.07932 0.62096 0.0
H74 H 0.95538 0.16483 0.62678 0.0
H75 H 1.07989 0.1438 0.2636 0.0
H76 H 0.22605 1.00074 0.79074 0.0
H77 H 0.35081 0.97968 0.42836 0.0
H78 H 0.29189 0.89419 0.42339 0.0
H79 H 0.1671 0.91496 0.78666 0.0
Gd80 Gd 0.60885 0.59159 0.06648 0.0
Gd81 Gd 0.63827 0.46731 0.98448 0.0
C82 C 0.42585 0.52687 1.01177 0.0
C83 C 0.55697 0.69455 0.05047 0.0
C84 C 0.57695 0.7495 0.02531 0.0
C85 C 0.66814 0.76283 0.03167 0.0
C86 C 0.50068 0.79057 1.00836 0.0
C87 C 0.60533 0.85814 1.01118 0.0
C88 C 0.51449 0.84405 1.00188 0.0
C89 C 0.68224 0.81666 1.02334 0.0
C90 C 0.62253 0.54151 0.43413 0.0
C91 C 0.82127 0.53204 0.03948 0.0
C92 C 0.69011 0.36432 0.99979 0.0
C93 C 0.67015 0.30937 1.02496 0.0
C94 C 0.57897 0.29602 1.01837 0.0
C95 C 0.74642 0.26832 0.04212 0.0
C96 C 0.64181 0.20072 0.03899 0.0
C97 C 0.73263 0.21483 0.04854 0.0
C98 C 0.56489 0.24219 0.02664 0.0
C99 C 0.62431 0.5176 0.6171 0.0
O100 O 0.46 0.57242 0.99988 0.0
O101 O 0.48154 0.48085 0.03311 0.0
O102 O 0.58503 0.67353 0.23012 0.0
O103 O 0.55947 0.6586 0.87705 0.0
O104 O 0.65649 0.58555 0.41808 0.0
O105 O 0.58074 0.52683 0.26028 0.0
O106 O 0.78713 0.48647 0.05113 0.0
O107 O 0.76561 0.57807 1.0183 0.0
O108 O 0.66181 0.38541 0.82044 0.0
O109 O 0.68788 0.40023 0.17332 0.0
O110 O 0.59037 0.47355 0.63295 0.0
O111 O 0.66635 0.53202 0.79087 0.0
H112 H 0.72811 0.7319 0.0462 0.0
H113 H 0.42965 0.78142 1.00425 0.0
H114 H 0.45345 0.87447 0.99067 0.0
H115 H 0.75313 0.82592 0.03113 0.0
H116 H 0.51899 0.32694 1.00368 0.0
H117 H 0.81745 0.27748 0.04641 0.0
H118 H 0.79368 0.18443 0.05988 0.0
H119 H 0.49401 0.23291 1.01864 0.0
loop_
_geom_bond_atom_site_label_1
_geom_bond_atom_site_label_2
_geom_bond_distance
_geom_bond_site_symmetry_2
_ccdc_geom_bond_type
Gd0 C3 2.818 1_455 S
Gd0 O20 2.377 1_455 S
Gd0 O22 2.448 1_455 S
Gd0 O23 2.506 1_456 S
Gd0 O24 2.435 . S
Gd0 O25 2.717 . S
Gd0 O27 2.395 . S
Gd0 O31 2.327 1_456 S
Gd1 C12 2.818 1_655 S
Gd1 O21 2.395 . S
Gd1 O25 2.327 1_654 S
Gd1 O26 2.377 1_655 S
Gd1 O28 2.448 1_655 S
Gd1 O29 2.506 1_654 S
Gd1 O30 2.435 1_655 S
Gd1 O31 2.717 . S
C2 O20 1.240 . S
C2 O21 1.240 1_556 S
C3 Gd0 2.818 1_655 S
C3 C4 1.510 . S
C3 O22 1.249 . S
C3 O23 1.252 1_556 S
C4 C3 1.510 . S
C4 C5 1.404 . S
C4 C6 1.352 1_556 S
C5 C4 1.404 . S
C5 C9 1.389 . S
C5 H32 0.930 . S
C6 C4 1.352 1_554 S
C6 C8 1.374 . S
C6 H33 0.931 . S
C7 C8 1.359 1_556 S
C7 C9 1.364 . S
C8 C6 1.374 . S
C8 C7 1.359 1_554 S
C8 H34 0.931 . S
C9 C5 1.389 . S
C9 C7 1.364 . S
C9 H35 0.931 . S
C10 O24 1.256 . S
C10 O25 1.257 . S
C11 O26 1.240 . S
C11 O27 1.240 1_554 S
C12 Gd1 2.818 1_455 S
C12 C13 1.510 . S
C12 O28 1.249 . S
C12 O29 1.252 1_554 S
C13 C12 1.510 . S
C13 C14 1.404 . S
C13 C15 1.352 1_554 S
C14 C13 1.404 . S
C14 C18 1.389 . S
C14 H36 0.930 . S
C15 C13 1.352 1_556 S
C15 C17 1.374 . S
C15 H37 0.931 . S
C16 C17 1.359 1_554 S
C16 C18 1.364 . S
C17 C15 1.374 . S
C17 C16 1.359 1_556 S
C17 H38 0.931 . S
C18 C14 1.389 . S
C18 C16 1.364 . S
C18 H39 0.931 . S
C19 O30 1.256 1_655 S
C19 O31 1.257 . S
O20 Gd0 2.377 1_655 S
O20 C2 1.240 . S
O21 Gd1 2.395 . S
O21 C2 1.240 1_554 S
O22 Gd0 2.448 1_655 S
O22 C3 1.249 . S
O23 Gd0 2.506 1_654 S
O23 C3 1.252 1_554 S
O24 Gd0 2.435 . S
O24 C10 1.256 . S
O25 Gd0 2.717 . S
O25 Gd1 2.327 1_456 S
O25 C10 1.257 . S
O26 Gd1 2.377 1_455 S
O26 C11 1.240 . S
O27 Gd0 2.395 . S
O27 C11 1.240 1_556 S
O28 Gd1 2.448 1_455 S
O28 C12 1.249 . S
O29 Gd1 2.506 1_456 S
O29 C12 1.252 1_556 S
O30 Gd1 2.435 1_455 S
O30 C19 1.256 1_455 S
O31 Gd0 2.327 1_654 S
O31 Gd1 2.717 . S
O31 C19 1.257 . S
H32 C5 0.930 . S
H33 C6 0.931 . S
H34 C8 0.931 . S
H35 C9 0.931 . S
H36 C14 0.930 . S
H37 C15 0.931 . S
H38 C17 0.931 . S
H39 C18 0.931 . S
Gd40 C43 2.818 . S
Gd40 O60 2.377 . S
Gd40 O62 2.448 . S
Gd40 O63 2.506 1_554 S
Gd40 O64 2.435 . S
Gd40 O65 2.717 1_545 S
Gd40 O67 2.395 1_545 S
Gd40 O71 2.327 1_554 S
Gd41 C52 2.818 . S
Gd41 O61 2.395 1_565 S
Gd41 O65 2.327 1_556 S
Gd41 O66 2.377 . S
Gd41 O68 2.448 . S
Gd41 O69 2.506 1_556 S
Gd41 O70 2.435 . S
Gd41 O71 2.717 1_565 S
C42 O60 1.240 . S
C42 O61 1.240 1_554 S
C43 Gd40 2.818 . S
C43 C44 1.510 1_554 S
C43 O62 1.249 . S
C43 O63 1.252 1_554 S
C44 C43 1.510 1_556 S
C44 C45 1.404 1_556 S
C44 C46 1.352 . S
C45 C44 1.404 1_554 S
C45 C49 1.389 . S
C45 H72 0.930 . S
C46 C44 1.352 . S
C46 C48 1.374 . S
C46 H73 0.931 . S
C47 C48 1.359 . S
C47 C49 1.364 1_556 S
C48 C46 1.374 . S
C48 C47 1.359 . S
C48 H74 0.931 . S
C49 C45 1.389 . S
C49 C47 1.364 1_554 S
C49 H75 0.931 . S
C50 O64 1.256 . S
C50 O65 1.257 1_545 S
C51 O66 1.240 . S
C51 O67 1.240 1_556 S
C52 Gd41 2.818 . S
C52 C53 1.510 1_556 S
C52 O68 1.249 . S
C52 O69 1.252 1_556 S
C53 C52 1.510 1_554 S
C53 C54 1.404 1_554 S
C53 C55 1.352 . S
C54 C53 1.404 1_556 S
C54 C58 1.389 . S
C54 H76 0.930 . S
C55 C53 1.352 . S
C55 C57 1.374 . S
C55 H77 0.931 . S
C56 C57 1.359 . S
C56 C58 1.364 1_554 S
C57 C55 1.374 . S
C57 C56 1.359 . S
C57 H78 0.931 . S
C58 C54 1.389 . S
C58 C56 1.364 1_556 S
C58 H79 0.931 . S
C59 O70 1.256 . S
C59 O71 1.257 1_565 S
O60 Gd40 2.377 . S
O60 C42 1.240 . S
O61 Gd41 2.395 1_545 S
O61 C42 1.240 1_556 S
O62 Gd40 2.448 . S
O62 C43 1.249 . S
O63 Gd40 2.506 1_556 S
O63 C43 1.252 1_556 S
O64 Gd40 2.435 . S
O64 C50 1.256 . S
O65 Gd40 2.717 1_565 S
O65 Gd41 2.327 1_554 S
O65 C50 1.257 1_565 S
O66 Gd41 2.377 . S
O66 C51 1.240 . S
O67 Gd40 2.395 1_565 S
O67 C51 1.240 1_554 S
O68 Gd41 2.448 . S
O68 C52 1.249 . S
O69 Gd41 2.506 1_554 S
O69 C52 1.252 1_554 S
O70 Gd41 2.435 . S
O70 C59 1.256 . S
O71 Gd40 2.327 1_556 S
O71 Gd41 2.717 1_545 S
O71 C59 1.257 1_545 S
H72 C45 0.930 . S
H73 C46 0.931 . S
H74 C48 0.931 . S
H75 C49 0.931 . S
H76 C54 0.930 . S
H77 C55 0.931 . S
H78 C57 0.931 . S
H79 C58 0.931 . S
Gd80 C83 2.818 . S
Gd80 O100 2.377 . S
Gd80 O102 2.448 . S
Gd80 O103 2.506 1_554 S
Gd80 O104 2.435 . S
Gd80 O105 2.717 . S
Gd80 O107 2.395 . S
Gd80 O111 2.327 1_554 S
Gd81 C92 2.818 . S
Gd81 O101 2.395 . S
Gd81 O105 2.327 1_556 S
Gd81 O106 2.377 . S
Gd81 O108 2.448 . S
Gd81 O109 2.506 1_556 S
Gd81 O110 2.435 . S
Gd81 O111 2.717 . S
C82 O100 1.239 1_556 S
C82 O101 1.241 . S
C83 Gd80 2.818 . S
C83 C84 1.510 . S
C83 O102 1.249 . S
C83 O103 1.252 1_554 S
C84 C83 1.510 . S
C84 C85 1.404 . S
C84 C86 1.352 1_554 S
C85 C84 1.404 . S
C85 C89 1.389 . S
C85 H112 0.930 . S
C86 C84 1.352 1_556 S
C86 C88 1.374 . S
C86 H113 0.931 . S
C87 C88 1.359 . S
C87 C89 1.364 1_556 S
C88 C86 1.374 . S
C88 C87 1.359 . S
C88 H114 0.931 . S
C89 C85 1.389 . S
C89 C87 1.364 1_554 S
C89 H115 0.931 . S
C90 O104 1.256 . S
C90 O105 1.257 . S
C91 O106 1.240 1_554 S
C91 O107 1.240 . S
C92 Gd81 2.818 . S
C92 C93 1.510 . S
C92 O108 1.249 . S
C92 O109 1.252 1_556 S
C93 C92 1.510 . S
C93 C94 1.404 . S
C93 C95 1.352 1_556 S
C94 C93 1.404 . S
C94 C98 1.389 . S
C94 H116 0.930 . S
C95 C93 1.352 1_554 S
C95 C97 1.374 . S
C95 H117 0.931 . S
C96 C97 1.359 . S
C96 C98 1.364 1_554 S
C97 C95 1.374 . S
C97 C96 1.359 . S
C97 H118 0.931 . S
C98 C94 1.389 . S
C98 C96 1.364 1_556 S
C98 H119 0.931 . S
C99 O110 1.256 . S
C99 O111 1.257 . S
O100 Gd80 2.377 . S
O100 C82 1.239 1_554 S
O101 Gd81 2.395 . S
O101 C82 1.241 . S
O102 Gd80 2.448 . S
O102 C83 1.249 . S
O103 Gd80 2.506 1_556 S
O103 C83 1.252 1_556 S
O104 Gd80 2.435 . S
O104 C90 1.256 . S
O105 Gd80 2.717 . S
O105 Gd81 2.327 1_554 S
O105 C90 1.257 . S
O106 Gd81 2.377 . S
O106 C91 1.240 1_556 S
O107 Gd80 2.395 . S
O107 C91 1.240 . S
O108 Gd81 2.448 . S
O108 C92 1.249 . S
O109 Gd81 2.506 1_554 S
O109 C92 1.252 1_554 S
O110 Gd81 2.435 . S
O110 C99 1.256 . S
O111 Gd80 2.327 1_556 S
O111 Gd81 2.717 . S
O111 C99 1.257 . S
H112 C85 0.930 . S
H113 C86 0.931 . S
H114 C88 0.931 . S
H115 C89 0.931 . S
H116 C94 0.930 . S
H117 C95 0.931 . S
H118 C97 0.931 . S
H119 C98 0.931 . S
C10 C19 1.507 1_455 S
C50 C59 1.480 1_545 S
C99 C90 1.535 . S
C11 C82 3.980 1_554 S
C47 C7 1.385 . S
C51 C87 4.711 . S
C2 C91 3.981 1_556 S
C16 C56 1.386 . S
C96 C42 4.711 . S
