# Generated by pormake.
# Topology qtz, (4)-cn, num edge types: 1
# Building blocks:
#     Node 0, Type 0, BuildingBlock: AZAVOO_clean_sbu_0, # of connection points: 4
#     Node 1, Type 0, BuildingBlock: AZAVOO_clean_sbu_0, # of connection points: 4
#     Node 2, Type 0, BuildingBlock: AZAVOO_clean_sbu_0, # of connection points: 4
#     Edge 3, Type (0, 0), BuildingBlock: XUDNAN_clean_linker_2, # of connection points: 2
#     Edge 4, Type (0, 0), BuildingBlock: XUDNAN_clean_linker_2, # of connection points: 2
#     Edge 5, Type (0, 0), BuildingBlock: XUDNAN_clean_linker_2, # of connection points: 2
#     Edge 6, Type (0, 0), BuildingBlock: XUDNAN_clean_linker_2, # of connection points: 2
#     Edge 7, Type (0, 0), BuildingBlock: XUDNAN_clean_linker_2, # of connection points: 2
#     Edge 8, Type (0, 0), BuildingBlock: XUDNAN_clean_linker_2, # of connection points: 2
# Relax obj value: 0.162
# Max RMSD: 0.226
# Mean RMSD: 0.200
data_MOF--net-qtz--node1-AZAVOO_clean_sbu_0--edge1-XUDNAN_clean_linker_2
_symmetry_space_group_name_H-M    P1
_symmetry_Int_Tables_number       1
_symmetry_cell_setting            triclinic
loop_
_symmetry_equiv_pos_as_xyz
'x, y, z'
_cell_length_a     23.236433
_cell_length_b     23.747137
_cell_length_c     28.284619
_cell_angle_alpha  90.815299
_cell_angle_beta   96.582879
_cell_angle_gamma 124.50319
loop_
_atom_site_label
_atom_site_type_symbol
_atom_site_fract_x
_atom_site_fract_y
_atom_site_fract_z
_atom_type_partial_charge
Mg0 Mg 0.97871 0.5141 0.12766 0.0
O1 O 0.06995 0.61114 0.17406 0.0
O2 O 0.0262 0.65055 0.22049 0.0
Mg3 Mg 0.90593 0.57576 0.20508 0.0
C4 C 0.0784 0.65479 0.20596 0.0
C5 C 0.05729 0.47268 0.07017 0.0
O6 O 0.00712 0.41175 0.08086 0.0
O7 O 0.95155 0.57488 0.07984 0.0
O8 O 0.90413 0.60727 0.12887 0.0
O9 O 0.97942 0.45014 0.18364 0.0
O10 O 0.9155 0.4928 0.18027 0.0
C11 C 0.92169 0.60474 0.08815 0.0
C12 C 0.93679 0.45927 0.20255 0.0
O13 O 0.05754 0.52451 0.08231 0.0
Mg14 Mg 0.6297 0.07881 0.50646 0.0
O15 O 0.54155 0.01792 0.44301 0.0
O16 O 0.51076 0.08447 0.41133 0.0
Mg17 Mg 0.58646 0.19174 0.45147 0.0
C18 C 0.50325 0.027 0.4126 0.0
C19 C 0.62667 0.94283 0.5173 0.0
O20 O 0.66933 0.96483 0.48499 0.0
O21 O 0.55408 0.07701 0.55296 0.0
O22 O 0.53697 0.1519 0.51908 0.0
O23 O 0.71201 0.11592 0.45736 0.0
O24 O 0.66401 0.16926 0.47671 0.0
C25 C 0.52772 0.11193 0.55159 0.0
C26 C 0.70687 0.16725 0.4532 0.0
O27 O 0.60553 0.9783 0.53148 0.0
Mg28 Mg 0.4151 0.45809 0.79728 0.0
O29 O 0.52533 0.52218 0.84314 0.0
O30 O 0.54086 0.61959 0.87037 0.0
Mg31 Mg 0.44193 0.61675 0.84593 0.0
C32 C 0.56301 0.58141 0.86688 0.0
C33 C 0.4449 0.34438 0.78666 0.0
O34 O 0.4468 0.34621 0.83329 0.0
O35 O 0.45892 0.53008 0.73796 0.0
O36 O 0.46297 0.61966 0.76903 0.0
O37 O 0.36323 0.40812 0.86129 0.0
O38 O 0.3832 0.50538 0.83823 0.0
C39 C 0.46933 0.58873 0.73489 0.0
C40 C 0.36168 0.46104 0.86903 0.0
O41 O 0.43635 0.38542 0.76377 0.0
H42 H 0.24426 0.36585 0.90676 0.0
H43 H 0.42078 0.58014 0.92496 0.0
H44 H 0.36557 0.60422 -0.01588 0.0
H45 H 0.11437 0.39206 0.90793 0.0
H46 H 0.05832 0.32128 0.94114 0.0
H47 H 0.11645 0.31729 0.90659 0.0
H48 H 0.17394 0.29592 -0.01824 0.0
H49 H 0.11501 0.29858 0.01652 0.0
H50 H 0.20914 0.35472 0.035 0.0
H51 H 0.28422 0.60902 0.03022 0.0
H52 H 0.18546 0.59243 0.06739 0.0
H53 H 0.06134 0.37422 0.02176 0.0
C54 C 0.27228 0.41715 0.92467 0.0
C55 C 0.33633 0.47138 0.9113 0.0
C56 C 0.37102 0.53831 0.93428 0.0
C57 C 0.34037 0.55232 0.96818 0.0
C58 C 0.27534 0.49857 0.97892 0.0
C59 C 0.24211 0.43202 0.9586 0.0
C60 C 0.16972 0.38508 0.97341 0.0
C61 C 0.11131 0.35202 0.92966 0.0
C62 C 0.16681 0.33034 0.00347 0.0
C63 C 0.16651 0.43626 0.0035 0.0
C64 C 0.22828 0.50127 0.00647 0.0
C65 C 0.23611 0.55814 0.02909 0.0
C66 C 0.17947 0.54828 0.0497 0.0
C67 C 0.11591 0.482 0.0476 0.0
C68 C 0.10966 0.4253 0.02442 0.0
H69 H 0.91999 0.34474 0.23679 0.0
H70 H 0.89719 0.5096 0.26957 0.0
H71 H 0.84486 0.45619 0.34087 0.0
H72 H 0.75756 0.21282 0.26602 0.0
H73 H 0.7872 0.16296 0.29201 0.0
H74 H 0.83182 0.21826 0.24687 0.0
H75 H 0.95071 0.2807 0.30405 0.0
H76 H 0.90653 0.22514 0.34933 0.0
H77 H 0.9575 0.317 0.36254 0.0
H78 H 0.78627 0.3818 0.4032 0.0
H79 H 0.72374 0.28974 0.45489 0.0
H80 H 0.78104 0.16949 0.38252 0.0
C81 C 0.90551 0.37032 0.25971 0.0
C82 C 0.91256 0.43131 0.24778 0.0
C83 C 0.89168 0.46266 0.27781 0.0
C84 C 0.86239 0.43295 0.31861 0.0
C85 C 0.85434 0.37188 0.32871 0.0
C86 C 0.87538 0.34083 0.30038 0.0
C87 C 0.85531 0.27242 0.31736 0.0
C88 C 0.80497 0.21314 0.27823 0.0
C89 C 0.92147 0.27394 0.33434 0.0
C90 C 0.81807 0.26925 0.35888 0.0
C91 C 0.81907 0.3277 0.36492 0.0
C92 C 0.7856 0.33603 0.39921 0.0
C93 C 0.74974 0.28306 0.42813 0.0
C94 C 0.74717 0.22223 0.42249 0.0
C95 C 0.78251 0.21557 0.38774 0.0
H96 H 0.52495 0.87711 0.57406 0.0
H97 H 0.67658 0.86222 0.50886 0.0
H98 H 0.64221 0.75844 0.55033 0.0
H99 H 0.55883 0.83819 0.68561 0.0
H100 H 0.46863 0.79034 0.69682 0.0
H101 H 0.4986 0.85659 0.6569 0.0
H102 H 0.39852 0.76927 0.5897 0.0
H103 H 0.36816 0.70249 0.62954 0.0
H104 H 0.3901 0.69118 0.57269 0.0
H105 H 0.59781 0.66192 0.60639 0.0
H106 H 0.55201 0.58751 0.67263 0.0
H107 H 0.43226 0.67017 0.69914 0.0
C108 C 0.55039 0.85164 0.56779 0.0
C109 C 0.60354 0.87781 0.53833 0.0
C110 C 0.63548 0.84285 0.53121 0.0
C111 C 0.61614 0.7838 0.5545 0.0
C112 C 0.56429 0.76019 0.58417 0.0
C113 C 0.53173 0.79312 0.59046 0.0
C114 C 0.48171 0.76174 0.62674 0.0
C115 C 0.5033 0.81487 0.669 0.0
C116 C 0.40509 0.72923 0.60325 0.0
C117 C 0.49312 0.70764 0.64154 0.0
C118 C 0.53973 0.70615 0.61615 0.0
C119 C 0.56061 0.66217 0.62601 0.0
C120 C 0.53432 0.62003 0.66351 0.0
C121 C 0.48896 0.62353 0.6909 0.0
C122 C 0.46706 0.66663 0.6788 0.0
H123 H 0.62666 0.51247 0.87569 0.0
H124 H 0.65809 0.70533 0.91922 0.0
H125 H 0.76849 0.74158 0.97058 0.0
H126 H 0.6774 0.48441 -0.01439 0.0
H127 H 0.722 0.44833 0.96574 0.0
H128 H 0.65245 0.44251 0.92591 0.0
H129 H 0.73716 0.50193 0.8634 0.0
H130 H 0.80732 0.5082 0.9033 0.0
H131 H 0.81994 0.58422 0.88022 0.0
H132 H 0.86124 0.74802 0.02799 0.0
H133 H 0.93094 0.72406 0.08614 0.0
H134 H 0.8461 0.53137 0.00318 0.0
C135 C 0.65772 0.5631 0.89499 0.0
C136 C 0.63342 0.60591 0.89329 0.0
C137 C 0.67529 0.6714 0.91977 0.0
C138 C 0.73849 0.69277 0.94892 0.0
C139 C 0.75997 0.64866 0.95079 0.0
C140 C 0.72132 0.58546 0.92415 0.0
C141 C 0.75234 0.54502 0.93634 0.0
C142 C 0.69782 0.47605 0.9545 0.0
C143 C 0.7809 0.53423 0.89324 0.0
C144 C 0.81199 0.59377 0.97584 0.0
C145 C 0.8161 0.65375 -0.01689 0.0
C146 C 0.86033 0.70245 0.0217 0.0
C147 C 0.89976 0.68858 0.05451 0.0
C148 C 0.8953 0.62702 0.04813 0.0
C149 C 0.85268 0.58019 0.00752 0.0
H150 H 0.3733 0.99577 0.37481 0.0
H151 H 0.51051 0.92686 0.37205 0.0
H152 H 0.41972 0.82883 0.31379 0.0
H153 H 0.21574 0.82859 0.37328 0.0
H154 H 0.16014 0.84674 0.33696 0.0
H155 H 0.23834 0.91489 0.37479 0.0
H156 H 0.28304 0.98369 0.30147 0.0
H157 H 0.205 0.91555 0.26335 0.0
H158 H 0.29119 0.94454 0.24992 0.0
H159 H 0.31412 0.73834 0.25626 0.0
H160 H 0.19615 0.65413 0.21052 0.0
H161 H 0.12404 0.77702 0.25536 0.0
C162 C 0.38444 0.96047 0.36139 0.0
C163 C 0.44907 0.9691 0.37739 0.0
C164 C 0.46129 0.92108 0.36007 0.0
C165 C 0.41026 0.86555 0.32682 0.0
C166 C 0.34693 0.85827 0.31185 0.0
C167 C 0.33341 0.90385 0.32903 0.0
C168 C 0.25891 0.88121 0.31012 0.0
C169 C 0.21575 0.867 0.35124 0.0
C170 C 0.25961 0.93442 0.27938 0.0
C171 C 0.23255 0.8156 0.27987 0.0
C172 C 0.28461 0.80403 0.28065 0.0
C173 C 0.27289 0.74678 0.25541 0.0
C174 C 0.20576 0.69937 0.22938 0.0
C175 C 0.1508 0.70886 0.22946 0.0
C176 C 0.16488 0.76822 0.25473 0.0
H177 H 0.41154 0.30834 0.69069 0.0
H178 H 0.487 0.26398 0.82265 0.0
H179 H 0.49707 0.18112 0.7766 0.0
H180 H 0.31119 0.13231 0.62904 0.0
H181 H 0.33522 0.16461 0.57211 0.0
H182 H 0.32553 0.21313 0.61618 0.0
H183 H 0.45272 0.31912 0.61239 0.0
H184 H 0.46229 0.27129 0.56804 0.0
H185 H 0.52518 0.31027 0.62216 0.0
H186 H 0.51281 0.11432 0.71438 0.0
H187 H 0.53886 0.07638 0.64283 0.0
H188 H 0.44764 0.16173 0.55315 0.0
C189 C 0.42935 0.28062 0.7101 0.0
C190 C 0.44874 0.29273 0.7602 0.0
C191 C 0.47175 0.25535 0.78421 0.0
C192 C 0.47721 0.20792 0.75839 0.0
C193 C 0.45817 0.19768 0.7088 0.0
C194 C 0.4343 0.23287 0.68507 0.0
C195 C 0.42254 0.2174 0.63153 0.0
C196 C 0.34393 0.1796 0.61102 0.0
C197 C 0.46844 0.28341 0.60714 0.0
C198 C 0.44688 0.17063 0.62851 0.0
C199 C 0.46602 0.15858 0.67332 0.0
C200 C 0.49667 0.12229 0.67912 0.0
C201 C 0.51095 0.10058 0.63823 0.0
C202 C 0.49526 0.11608 0.59238 0.0
C203 C 0.45982 0.14863 0.58763 0.0
loop_
_geom_bond_atom_site_label_1
_geom_bond_atom_site_label_2
_geom_bond_distance
_geom_bond_site_symmetry_2
_ccdc_geom_bond_type
Mg0 O1 2.028 1_655 S
Mg0 O7 1.986 . S
Mg0 O9 2.114 . S
Mg0 O10 2.251 . S
Mg0 O13 2.010 1_655 S
O1 Mg0 2.028 1_455 S
O1 C4 1.250 . S
O2 Mg3 2.028 1_455 S
O2 C4 1.248 . S
Mg3 O2 2.028 1_655 S
Mg3 O8 2.032 . S
Mg3 O10 2.079 . S
C4 O1 1.250 . S
C4 O2 1.248 . S
C5 O6 1.264 . S
C5 O13 1.249 . S
O6 C5 1.264 . S
O7 Mg0 1.986 . S
O7 C11 1.246 . S
O8 Mg3 2.032 . S
O8 C11 1.259 . S
O9 Mg0 2.114 . S
O9 C12 1.252 . S
O10 Mg0 2.251 . S
O10 Mg3 2.079 . S
O10 C12 1.273 . S
C11 O7 1.246 . S
C11 O8 1.259 . S
C12 O9 1.252 . S
C12 O10 1.273 . S
O13 Mg0 2.010 1_455 S
O13 C5 1.249 . S
Mg14 O15 2.028 1_545 S
Mg14 O21 1.986 . S
Mg14 O23 2.114 . S
Mg14 O24 2.251 . S
Mg14 O27 2.010 1_545 S
O15 Mg14 2.028 1_565 S
O15 C18 1.250 . S
O16 Mg17 2.028 . S
O16 C18 1.248 1_545 S
Mg17 O16 2.028 . S
Mg17 O22 2.032 . S
Mg17 O24 2.079 . S
C18 O15 1.250 . S
C18 O16 1.248 1_565 S
C19 O20 1.264 . S
C19 O27 1.249 . S
O20 C19 1.264 . S
O21 Mg14 1.986 . S
O21 C25 1.246 . S
O22 Mg17 2.032 . S
O22 C25 1.259 . S
O23 Mg14 2.114 . S
O23 C26 1.252 . S
O24 Mg14 2.251 . S
O24 Mg17 2.079 . S
O24 C26 1.273 . S
C25 O21 1.246 . S
C25 O22 1.259 . S
C26 O23 1.252 . S
C26 O24 1.273 . S
O27 Mg14 2.010 1_565 S
O27 C19 1.249 . S
Mg28 O29 2.028 . S
Mg28 O35 1.986 . S
Mg28 O37 2.114 . S
Mg28 O38 2.251 . S
Mg28 O41 2.010 . S
O29 Mg28 2.028 . S
O29 C32 1.250 . S
O30 Mg31 2.028 . S
O30 C32 1.248 . S
Mg31 O30 2.028 . S
Mg31 O36 2.032 . S
Mg31 O38 2.079 . S
C32 O29 1.250 . S
C32 O30 1.248 . S
C33 O34 1.264 . S
C33 O41 1.249 . S
O34 C33 1.264 . S
O35 Mg28 1.986 . S
O35 C39 1.246 . S
O36 Mg31 2.032 . S
O36 C39 1.259 . S
O37 Mg28 2.114 . S
O37 C40 1.252 . S
O38 Mg28 2.251 . S
O38 Mg31 2.079 . S
O38 C40 1.273 . S
C39 O35 1.246 . S
C39 O36 1.259 . S
C40 O37 1.252 . S
C40 O38 1.273 . S
O41 Mg28 2.010 . S
O41 C33 1.249 . S
H42 C54 0.930 . S
H43 C56 0.930 . S
H44 C57 0.930 . S
H45 C61 0.959 . S
H46 C61 0.959 . S
H47 C61 0.961 . S
H48 C62 0.960 1_556 S
H49 C62 0.961 . S
H50 C62 0.959 . S
H51 C65 0.929 . S
H52 C66 0.931 . S
H53 C68 0.930 . S
C54 H42 0.930 . S
C54 C55 1.399 . S
C54 C59 1.399 . S
C55 C54 1.399 . S
C55 C56 1.376 . S
C56 H43 0.930 . S
C56 C55 1.376 . S
C56 C57 1.388 . S
C57 H44 0.930 . S
C57 C56 1.388 . S
C57 C58 1.390 . S
C58 C57 1.390 . S
C58 C59 1.394 . S
C58 C64 1.465 1_556 S
C59 C54 1.399 . S
C59 C58 1.394 . S
C59 C60 1.516 . S
C60 C59 1.516 . S
C60 C61 1.502 . S
C60 C62 1.561 1_556 S
C60 C63 1.526 1_556 S
C61 H45 0.959 . S
C61 H46 0.959 . S
C61 H47 0.961 . S
C61 C60 1.502 . S
C62 H48 0.960 1_554 S
C62 H49 0.961 . S
C62 H50 0.959 . S
C62 C60 1.561 1_554 S
C63 C60 1.526 1_554 S
C63 C64 1.396 . S
C63 C68 1.390 . S
C64 C58 1.465 1_554 S
C64 C63 1.396 . S
C64 C65 1.399 . S
C65 H51 0.929 . S
C65 C64 1.399 . S
C65 C66 1.385 . S
C66 H52 0.931 . S
C66 C65 1.385 . S
C66 C67 1.389 . S
C67 C66 1.389 . S
C67 C68 1.387 . S
C68 H53 0.930 . S
C68 C63 1.390 . S
C68 C67 1.387 . S
H69 C81 0.930 . S
H70 C83 0.930 . S
H71 C84 0.930 . S
H72 C88 0.959 . S
H73 C88 0.959 . S
H74 C88 0.961 . S
H75 C89 0.960 . S
H76 C89 0.961 . S
H77 C89 0.959 . S
H78 C92 0.929 . S
H79 C93 0.931 . S
H80 C95 0.930 . S
C81 H69 0.930 . S
C81 C82 1.399 . S
C81 C86 1.399 . S
C82 C81 1.399 . S
C82 C83 1.376 . S
C83 H70 0.930 . S
C83 C82 1.376 . S
C83 C84 1.388 . S
C84 H71 0.930 . S
C84 C83 1.388 . S
C84 C85 1.390 . S
C85 C84 1.390 . S
C85 C86 1.394 . S
C85 C91 1.465 . S
C86 C81 1.399 . S
C86 C85 1.394 . S
C86 C87 1.516 . S
C87 C86 1.516 . S
C87 C88 1.502 . S
C87 C89 1.561 . S
C87 C90 1.526 . S
C88 H72 0.959 . S
C88 H73 0.959 . S
C88 H74 0.961 . S
C88 C87 1.502 . S
C89 H75 0.960 . S
C89 H76 0.961 . S
C89 H77 0.959 . S
C89 C87 1.561 . S
C90 C87 1.526 . S
C90 C91 1.396 . S
C90 C95 1.390 . S
C91 C85 1.465 . S
C91 C90 1.396 . S
C91 C92 1.399 . S
C92 H78 0.929 . S
C92 C91 1.399 . S
C92 C93 1.385 . S
C93 H79 0.931 . S
C93 C92 1.385 . S
C93 C94 1.389 . S
C94 C93 1.389 . S
C94 C95 1.387 . S
C95 H80 0.930 . S
C95 C90 1.390 . S
C95 C94 1.387 . S
H96 C108 0.930 . S
H97 C110 0.930 . S
H98 C111 0.930 . S
H99 C115 0.959 . S
H100 C115 0.959 . S
H101 C115 0.961 . S
H102 C116 0.960 . S
H103 C116 0.961 . S
H104 C116 0.959 . S
H105 C119 0.929 . S
H106 C120 0.931 . S
H107 C122 0.930 . S
C108 H96 0.930 . S
C108 C109 1.399 . S
C108 C113 1.399 . S
C109 C108 1.399 . S
C109 C110 1.376 . S
C110 H97 0.930 . S
C110 C109 1.376 . S
C110 C111 1.388 . S
C111 H98 0.930 . S
C111 C110 1.388 . S
C111 C112 1.390 . S
C112 C111 1.390 . S
C112 C113 1.394 . S
C112 C118 1.465 . S
C113 C108 1.399 . S
C113 C112 1.394 . S
C113 C114 1.516 . S
C114 C113 1.516 . S
C114 C115 1.502 . S
C114 C116 1.561 . S
C114 C117 1.526 . S
C115 H99 0.959 . S
C115 H100 0.959 . S
C115 H101 0.961 . S
C115 C114 1.502 . S
C116 H102 0.960 . S
C116 H103 0.961 . S
C116 H104 0.959 . S
C116 C114 1.561 . S
C117 C114 1.526 . S
C117 C118 1.396 . S
C117 C122 1.390 . S
C118 C112 1.465 . S
C118 C117 1.396 . S
C118 C119 1.399 . S
C119 H105 0.929 . S
C119 C118 1.399 . S
C119 C120 1.385 . S
C120 H106 0.931 . S
C120 C119 1.385 . S
C120 C121 1.389 . S
C121 C120 1.389 . S
C121 C122 1.387 . S
C122 H107 0.930 . S
C122 C117 1.390 . S
C122 C121 1.387 . S
H123 C135 0.930 . S
H124 C137 0.930 . S
H125 C138 0.930 . S
H126 C142 0.959 . S
H127 C142 0.959 . S
H128 C142 0.961 . S
H129 C143 0.960 . S
H130 C143 0.976 . S
H131 C143 0.959 . S
H132 C146 0.929 . S
H133 C147 0.931 . S
H134 C149 0.930 . S
C135 H123 0.930 . S
C135 C136 1.399 . S
C135 C140 1.399 . S
C136 C135 1.399 . S
C136 C137 1.376 . S
C137 H124 0.930 . S
C137 C136 1.376 . S
C137 C138 1.388 . S
C138 H125 0.930 . S
C138 C137 1.388 . S
C138 C139 1.390 . S
C139 C138 1.390 . S
C139 C140 1.394 . S
C139 C145 1.465 1_556 S
C140 C135 1.399 . S
C140 C139 1.394 . S
C140 C141 1.516 1_556 S
C141 C140 1.516 1_554 S
C141 C142 1.502 . S
C141 C143 1.561 1_554 S
C141 C144 1.526 . S
C142 H126 0.959 . S
C142 H127 0.959 . S
C142 H128 0.961 . S
C142 C141 1.502 . S
C143 H129 0.960 . S
C143 H130 0.976 . S
C143 H131 0.959 . S
C143 C141 1.561 1_556 S
C144 C141 1.526 . S
C144 C145 1.396 . S
C144 C149 1.390 . S
C145 C139 1.465 1_554 S
C145 C144 1.396 . S
C145 C146 1.399 . S
C146 H132 0.929 . S
C146 C145 1.399 . S
C146 C147 1.385 . S
C147 H133 0.931 . S
C147 C146 1.385 . S
C147 C148 1.389 . S
C148 C147 1.389 . S
C148 C149 1.387 . S
C149 H134 0.930 . S
C149 C144 1.390 . S
C149 C148 1.387 . S
H150 C162 0.930 . S
H151 C164 0.930 . S
H152 C165 0.930 . S
H153 C169 0.959 . S
H154 C169 0.959 . S
H155 C169 0.961 . S
H156 C170 0.960 . S
H157 C170 0.961 . S
H158 C170 0.959 . S
H159 C173 0.929 . S
H160 C174 0.931 . S
H161 C176 0.930 . S
C162 H150 0.930 . S
C162 C163 1.399 . S
C162 C167 1.399 . S
C163 C162 1.399 . S
C163 C164 1.376 . S
C164 H151 0.930 . S
C164 C163 1.376 . S
C164 C165 1.388 . S
C165 H152 0.930 . S
C165 C164 1.388 . S
C165 C166 1.390 . S
C166 C165 1.390 . S
C166 C167 1.394 . S
C166 C172 1.465 . S
C167 C162 1.399 . S
C167 C166 1.394 . S
C167 C168 1.516 . S
C168 C167 1.516 . S
C168 C169 1.502 . S
C168 C170 1.561 . S
C168 C171 1.526 . S
C169 H153 0.959 . S
C169 H154 0.959 . S
C169 H155 0.961 . S
C169 C168 1.502 . S
C170 H156 0.960 . S
C170 H157 0.961 . S
C170 H158 0.959 . S
C170 C168 1.561 . S
C171 C168 1.526 . S
C171 C172 1.396 . S
C171 C176 1.390 . S
C172 C166 1.465 . S
C172 C171 1.396 . S
C172 C173 1.399 . S
C173 H159 0.929 . S
C173 C172 1.399 . S
C173 C174 1.385 . S
C174 H160 0.931 . S
C174 C173 1.385 . S
C174 C175 1.389 . S
C175 C174 1.389 . S
C175 C176 1.387 . S
C176 H161 0.930 . S
C176 C171 1.390 . S
C176 C175 1.387 . S
H177 C189 0.930 . S
H178 C191 0.930 . S
H179 C192 0.930 . S
H180 C196 0.959 . S
H181 C196 0.959 . S
H182 C196 0.961 . S
H183 C197 0.960 . S
H184 C197 0.961 . S
H185 C197 0.959 . S
H186 C200 0.929 . S
H187 C201 0.931 . S
H188 C203 0.930 . S
C189 H177 0.930 . S
C189 C190 1.399 . S
C189 C194 1.399 . S
C190 C189 1.399 . S
C190 C191 1.376 . S
C191 H178 0.930 . S
C191 C190 1.376 . S
C191 C192 1.388 . S
C192 H179 0.930 . S
C192 C191 1.388 . S
C192 C193 1.390 . S
C193 C192 1.390 . S
C193 C194 1.394 . S
C193 C199 1.465 . S
C194 C189 1.399 . S
C194 C193 1.394 . S
C194 C195 1.516 . S
C195 C194 1.516 . S
C195 C196 1.502 . S
C195 C197 1.561 . S
C195 C198 1.526 . S
C196 H180 0.959 . S
C196 H181 0.959 . S
C196 H182 0.961 . S
C196 C195 1.502 . S
C197 H183 0.960 . S
C197 H184 0.961 . S
C197 H185 0.959 . S
C197 C195 1.561 . S
C198 C195 1.526 . S
C198 C199 1.396 . S
C198 C203 1.390 . S
C199 C193 1.465 . S
C199 C198 1.396 . S
C199 C200 1.399 . S
C200 H186 0.929 . S
C200 C199 1.399 . S
C200 C201 1.385 . S
C201 H187 0.931 . S
C201 C200 1.385 . S
C201 C202 1.389 . S
C202 C201 1.389 . S
C202 C203 1.387 . S
C203 H188 0.930 . S
C203 C198 1.390 . S
C203 C202 1.387 . S
C55 C40 1.299 . S
C67 C5 1.205 . S
C82 C12 1.345 . S
C94 C26 1.336 . S
C109 C19 1.049 . S
C121 C39 1.237 . S
C136 C32 1.246 . S
C148 C11 1.256 . S
C163 C18 1.325 . S
C175 C4 1.296 . S
C190 C33 1.131 . S
C202 C25 1.237 . S
