# Generated by pormake.
# Topology cds, (4)-cn, num edge types: 1
# Building blocks:
#     Node 0, Type 0, BuildingBlock: ESEHIV_clean_sbu_0, # of connection points: 4
#     Node 1, Type 0, BuildingBlock: ESEHIV_clean_sbu_0, # of connection points: 4
#     Edge 2, Type (0, 0), BuildingBlock: CIFDUS_clean_linker_0, # of connection points: 2
#     Edge 3, Type (0, 0), BuildingBlock: CIFDUS_clean_linker_0, # of connection points: 2
#     Edge 4, Type (0, 0), BuildingBlock: CIFDUS_clean_linker_0, # of connection points: 2
#     Edge 5, Type (0, 0), BuildingBlock: CIFDUS_clean_linker_0, # of connection points: 2
# Relax obj value: 0.000
# Max RMSD: 0.099
# Mean RMSD: 0.094
data_MOF--net-cds--node1-ESEHIV_clean_sbu_0--edge1-CIFDUS_clean_linker_0
_symmetry_space_group_name_H-M    P1
_symmetry_Int_Tables_number       1
_symmetry_cell_setting            triclinic
loop_
_symmetry_equiv_pos_as_xyz
'x, y, z'
_cell_length_a     12.331925
_cell_length_b     15.197503
_cell_length_c     27.745015
_cell_angle_alpha  99.94056
_cell_angle_beta   102.58912
_cell_angle_gamma 89.001835
loop_
_atom_site_label
_atom_site_type_symbol
_atom_site_fract_x
_atom_site_fract_y
_atom_site_fract_z
_atom_type_partial_charge
Cu0 Cu 0.22347 0.95747 0.05628 0.0
N1 N 0.1905 0.04559 0.0158 0.0
N2 N 0.14586 0.11309 0.94867 0.0
C3 C 0.18328 0.03783 0.96594 0.0
C4 C 0.13046 0.17073 0.98933 0.0
C5 C 0.15833 0.12907 0.03057 0.0
O6 O 0.35729 0.89607 0.04422 0.0
C7 C 1.01349 0.86681 1.00956 0.0
O8 O 1.02529 0.8909 0.96775 0.0
H9 H 0.19844 0.97677 0.9422 0.0
H10 H 0.1518 0.15657 0.06845 0.0
N11 N 0.25303 1.01184 0.12376 0.0
N12 N 0.22993 0.05302 0.20232 0.0
C13 C 0.18117 1.01814 0.15441 0.0
C14 C 0.35076 0.04397 0.15314 0.0
C15 C 0.33681 0.06943 0.20165 0.0
C16 C 0.36859 0.84941 1.00297 0.0
O17 O 0.28168 0.83192 0.96561 0.0
H18 H 0.09571 0.99441 0.14202 0.0
H19 H 0.4273 0.04667 0.14038 0.0
O20 O 0.09287 0.8814 0.04813 0.0
H21 H 0.09838 0.23744 0.98908 0.0
H22 H 0.40049 0.09745 0.23387 0.0
Cu23 Cu 0.97977 0.09521 0.55177 0.0
N24 N 0.88234 0.99629 0.53175 0.0
N25 N 0.81522 0.8569 0.52196 0.0
C26 C 0.90038 0.91494 0.54472 0.0
C27 C 0.7411 0.90402 0.49362 0.0
C28 C 0.78274 0.98964 0.49966 0.0
O29 O 0.06124 0.09252 0.62041 0.0
C30 C 1.0234 0.09855 0.4585 0.0
O31 O 0.91611 0.11296 0.44977 0.0
H32 H 0.9746 0.89901 0.57037 0.0
H33 H 0.74385 0.0429 0.48123 0.0
N34 N 0.9001 0.2014 0.55143 0.0
N35 N 0.85998 0.3452 0.54932 0.0
C36 C 0.93841 0.28195 0.54776 0.0
C37 C 0.79396 0.21384 0.55542 0.0
C38 C 0.76904 0.30219 0.55422 0.0
C39 C 1.00405 0.10506 0.65408 0.0
O40 O 0.89697 0.118 0.64054 0.0
H41 H 1.02191 0.2933 0.54352 0.0
H42 H 0.73882 0.16247 0.55959 0.0
O43 O 0.07305 0.08934 0.50272 0.0
H44 H 0.66343 0.87809 0.46916 0.0
H45 H 0.69042 0.3324 0.55769 0.0
H46 H 0.32926 0.05001 0.29945 0.0
H47 H 1.01404 0.0868 0.20177 0.0
H48 H 0.92384 0.10494 0.27263 0.0
H49 H 0.93292 0.10859 0.36158 0.0
H50 H 0.24592 0.07124 0.46074 0.0
H51 H 0.33876 0.05609 0.39014 0.0
C52 C 0.24111 0.0629 0.29377 0.0
C53 C 0.17856 0.06664 0.2451 0.0
C54 C 0.18933 0.07313 0.33494 0.0
C55 C 0.064 0.08227 0.23848 0.0
C56 C 1.01236 0.09313 0.2791 0.0
C57 C 1.02161 0.09736 0.36803 0.0
C58 C 0.08222 0.09104 0.41657 0.0
C59 C 0.07399 0.0882 0.32736 0.0
C60 C 0.19709 0.07636 0.42386 0.0
C61 C 0.2502 0.06766 0.38345 0.0
H62 H 0.24403 0.04529 0.87231 0.0
H63 H 0.97161 0.20617 0.90841 0.0
H64 H 0.90733 0.22042 0.8207 0.0
H65 H 0.92293 0.18248 0.73342 0.0
H66 H 0.19631 1.02544 0.69525 0.0
H67 H 0.26629 1.01464 0.78394 0.0
C68 C 0.17082 0.08352 0.86081 0.0
C69 C 0.11267 0.12456 0.89694 0.0
C70 C 0.13445 0.092 0.80999 0.0
C71 C 1.01863 0.17481 0.88163 0.0
C72 C 0.98136 0.18255 0.83136 0.0
C73 C 0.99817 0.14608 0.74444 0.0
C74 C 0.05379 0.10412 0.70774 0.0
C75 C 1.03792 0.14082 0.79522 0.0
C76 C 0.15202 0.05841 0.72278 0.0
C77 C 0.19168 0.05192 0.77346 0.0
H78 H 0.82564 0.82538 0.9361 0.0
H79 H 0.94855 0.85426 0.09626 0.0
H80 H 0.75951 0.84295 0.10794 0.0
H81 H 0.55819 0.84299 0.07381 0.0
H82 H 0.43417 0.81209 0.9138 0.0
H83 H 0.62425 0.805 0.90104 0.0
C84 C 0.8113 0.82759 0.97349 0.0
C85 C 0.90147 0.84198 0.01522 0.0
C86 C 0.70184 0.8215 0.9801 0.0
C87 C 0.88113 0.8437 0.06337 0.0
C88 C 0.77272 0.83771 0.07019 0.0
C89 C 0.57272 0.83328 0.03608 0.0
C90 C 0.48207 0.82922 0.99489 0.0
C91 C 0.68228 0.82946 0.029 0.0
C92 C 0.5023 0.81553 0.94622 0.0
C93 C 0.61114 0.81198 0.93888 0.0
H94 H 0.98295 0.7447 0.54768 0.0
H95 H 0.62564 0.75795 0.50488 0.0
H96 H 0.60841 0.60007 0.50857 0.0
H97 H 0.69396 0.45803 0.52316 0.0
H98 H 0.05072 0.44515 0.56957 0.0
H99 H 0.06856 0.60281 0.56499 0.0
C100 C 0.9012 0.71354 0.53971 0.0
C101 C 0.80583 0.76376 0.52579 0.0
C102 C 0.89162 0.6224 0.54226 0.0
C103 C 0.70072 0.7212 0.5149 0.0
C104 C 0.69063 0.63075 0.51727 0.0
C105 C 0.77572 0.4895 0.53289 0.0
C106 C 0.8707 0.43886 0.5467 0.0
C107 C 0.78547 0.58065 0.53078 0.0
C108 C 0.97596 0.48142 0.55816 0.0
C109 C 0.98633 0.57206 0.55588 0.0
loop_
_geom_bond_atom_site_label_1
_geom_bond_atom_site_label_2
_geom_bond_distance
_geom_bond_site_symmetry_2
_ccdc_geom_bond_type
Cu0 N1 1.999 1_454 S
Cu0 O6 1.974 . S
Cu0 N11 1.985 . S
Cu0 O20 1.959 1_455 S
N1 Cu0 1.999 1_656 S
N1 C3 1.263 1_655 S
N1 C5 1.389 . S
N2 C3 1.358 1_655 S
N2 C4 1.400 . S
C3 N1 1.263 1_455 S
C3 N2 1.358 1_455 S
C3 H9 0.930 1_545 S
C4 N2 1.400 . S
C4 C5 1.351 . S
C4 H21 0.930 . S
C5 N1 1.389 . S
C5 C4 1.351 . S
C5 H10 0.930 . S
O6 Cu0 1.974 . S
O6 C16 1.282 1_545 S
C7 O8 1.261 . S
C7 O20 1.251 1_565 S
O8 C7 1.261 . S
H9 C3 0.930 1_565 S
H10 C5 0.930 . S
N11 Cu0 1.985 . S
N11 C13 1.335 1_455 S
N11 C14 1.390 1_545 S
N12 C13 1.345 1_455 S
N12 C15 1.336 1_545 S
C13 N11 1.335 1_655 S
C13 N12 1.345 1_655 S
C13 H18 0.930 . S
C14 N11 1.390 1_565 S
C14 C15 1.346 . S
C14 H19 0.930 . S
C15 N12 1.336 1_565 S
C15 C14 1.346 . S
C15 H22 0.929 . S
C16 O6 1.282 1_565 S
C16 O17 1.216 . S
O17 C16 1.216 . S
H18 C13 0.930 . S
H19 C14 0.930 . S
O20 Cu0 1.959 1_655 S
O20 C7 1.251 1_545 S
H21 C4 0.930 . S
H22 C15 0.929 . S
Cu23 N24 1.999 1_545 S
Cu23 O29 1.974 . S
Cu23 N34 1.985 . S
Cu23 O43 1.959 . S
N24 Cu23 1.999 1_565 S
N24 C26 1.263 . S
N24 C28 1.389 . S
N25 C26 1.358 . S
N25 C27 1.400 . S
C26 N24 1.263 . S
C26 N25 1.358 . S
C26 H32 0.930 1_455 S
C27 N25 1.400 . S
C27 C28 1.351 . S
C27 H44 0.930 . S
C28 N24 1.389 . S
C28 C27 1.351 . S
C28 H33 0.930 . S
O29 Cu23 1.974 . S
O29 C39 1.282 1_455 S
C30 O31 1.261 1_545 S
C30 O43 1.251 1_655 S
O31 C30 1.261 1_565 S
H32 C26 0.930 1_655 S
H33 C28 0.930 . S
N34 Cu23 1.985 . S
N34 C36 1.335 . S
N34 C37 1.390 1_455 S
N35 C36 1.345 . S
N35 C38 1.336 1_455 S
C36 N34 1.335 . S
C36 N35 1.345 . S
C36 H41 0.930 . S
C37 N34 1.390 1_655 S
C37 C38 1.346 . S
C37 H42 0.930 . S
C38 N35 1.336 1_655 S
C38 C37 1.346 . S
C38 H45 0.929 . S
C39 O29 1.282 1_655 S
C39 O40 1.216 . S
O40 C39 1.216 . S
H41 C36 0.930 . S
H42 C37 0.930 . S
O43 Cu23 1.959 . S
O43 C30 1.251 1_455 S
H44 C27 0.930 . S
H45 C38 0.929 . S
H46 C52 0.930 . S
H47 C55 0.930 . S
H48 C56 0.930 . S
H49 C57 0.930 . S
H50 C60 0.930 . S
H51 C61 0.930 . S
C52 H46 0.930 . S
C52 C53 1.355 1_655 S
C52 C54 1.415 . S
C53 C52 1.355 1_455 S
C53 C55 1.419 1_545 S
C54 C52 1.415 . S
C54 C59 1.425 1_645 S
C54 C61 1.409 . S
C55 H47 0.930 . S
C55 C53 1.419 1_565 S
C55 C56 1.362 . S
C56 H48 0.930 . S
C56 C55 1.362 . S
C56 C59 1.409 . S
C57 H49 0.930 . S
C57 C58 1.355 1_465 S
C57 C59 1.415 . S
C58 C57 1.355 1_645 S
C58 C60 1.419 . S
C59 C54 1.425 1_465 S
C59 C56 1.409 . S
C59 C57 1.415 . S
C60 H50 0.930 . S
C60 C58 1.419 . S
C60 C61 1.362 . S
C61 H51 0.930 . S
C61 C54 1.409 . S
C61 C60 1.362 . S
H62 C68 0.930 . S
H63 C71 0.928 1_565 S
H64 C72 0.930 . S
H65 C73 0.930 . S
H66 C76 0.930 . S
H67 C77 0.930 . S
C68 H62 0.930 . S
C68 C69 1.355 1_455 S
C68 C70 1.415 . S
C69 C68 1.355 1_655 S
C69 C71 1.420 . S
C70 C68 1.415 . S
C70 C75 1.425 1_455 S
C70 C77 1.409 . S
C71 H63 0.928 1_545 S
C71 C69 1.420 . S
C71 C72 1.363 1_545 S
C72 H64 0.930 . S
C72 C71 1.363 1_565 S
C72 C75 1.409 1_565 S
C73 H65 0.930 . S
C73 C74 1.355 1_565 S
C73 C75 1.415 1_565 S
C74 C73 1.355 1_545 S
C74 C76 1.419 1_655 S
C75 C70 1.425 1_655 S
C75 C72 1.409 1_545 S
C75 C73 1.415 1_545 S
C76 H66 0.930 . S
C76 C74 1.419 1_455 S
C76 C77 1.362 . S
C77 H67 0.930 . S
C77 C70 1.409 . S
C77 C76 1.362 . S
H78 C84 0.930 . S
H79 C87 0.930 1_545 S
H80 C88 0.930 1_545 S
H81 C89 0.930 . S
H82 C92 0.930 . S
H83 C93 0.930 . S
C84 H78 0.930 . S
C84 C85 1.355 1_556 S
C84 C86 1.415 1_556 S
C85 C84 1.355 1_554 S
C85 C87 1.419 . S
C86 C84 1.415 1_554 S
C86 C91 1.425 . S
C86 C93 1.409 1_554 S
C87 H79 0.930 1_565 S
C87 C85 1.419 . S
C87 C88 1.362 . S
C88 H80 0.930 1_565 S
C88 C87 1.362 . S
C88 C91 1.409 . S
C89 H81 0.930 . S
C89 C90 1.355 . S
C89 C91 1.415 . S
C90 C89 1.355 . S
C90 C92 1.419 1_554 S
C91 C86 1.425 . S
C91 C88 1.409 . S
C91 C89 1.415 . S
C92 H82 0.930 . S
C92 C90 1.419 1_556 S
C92 C93 1.362 . S
C93 H83 0.930 . S
C93 C86 1.409 1_556 S
C93 C92 1.362 . S
H94 C100 0.930 . S
H95 C103 0.930 . S
H96 C104 0.930 . S
H97 C105 0.930 . S
H98 C108 0.930 . S
H99 C109 0.930 . S
C100 H94 0.930 . S
C100 C101 1.355 . S
C100 C102 1.415 . S
C101 C100 1.355 . S
C101 C103 1.419 1_455 S
C102 C100 1.415 . S
C102 C107 1.425 1_455 S
C102 C109 1.409 . S
C103 H95 0.930 . S
C103 C101 1.419 1_655 S
C103 C104 1.362 . S
C104 H96 0.930 . S
C104 C103 1.362 . S
C104 C107 1.409 . S
C105 H97 0.930 . S
C105 C106 1.355 1_655 S
C105 C107 1.415 . S
C106 C105 1.355 1_455 S
C106 C108 1.419 . S
C107 C102 1.425 1_655 S
C107 C104 1.409 . S
C107 C105 1.415 . S
C108 H98 0.930 . S
C108 C106 1.419 . S
C108 C109 1.362 . S
C109 H99 0.930 . S
C109 C102 1.409 . S
C109 C108 1.362 . S
C53 N12 1.446 . S
C58 C30 1.504 . S
C69 N2 1.432 . S
C74 C39 1.503 . S
C85 C7 1.491 . S
C90 C16 1.480 . S
C101 N25 1.450 . S
C106 N35 1.440 . S
