# Generated by pormake.
# Topology umx, (4)-cn, num edge types: 1
# Building blocks:
#     Node 0, Type 0, BuildingBlock: QUQFOY_clean_sbu_1, # of connection points: 4
#     Node 1, Type 0, BuildingBlock: QUQFOY_clean_sbu_1, # of connection points: 4
#     Node 2, Type 0, BuildingBlock: QUQFOY_clean_sbu_1, # of connection points: 4
#     Node 3, Type 0, BuildingBlock: QUQFOY_clean_sbu_1, # of connection points: 4
#     Node 4, Type 0, BuildingBlock: QUQFOY_clean_sbu_1, # of connection points: 4
#     Node 5, Type 0, BuildingBlock: QUQFOY_clean_sbu_1, # of connection points: 4
#     Node 6, Type 0, BuildingBlock: QUQFOY_clean_sbu_1, # of connection points: 4
#     Node 7, Type 0, BuildingBlock: QUQFOY_clean_sbu_1, # of connection points: 4
#     Edge 8, Type (0, 0), None
#     Edge 9, Type (0, 0), None
#     Edge 10, Type (0, 0), None
#     Edge 11, Type (0, 0), None
#     Edge 12, Type (0, 0), None
#     Edge 13, Type (0, 0), None
#     Edge 14, Type (0, 0), None
#     Edge 15, Type (0, 0), None
#     Edge 16, Type (0, 0), None
#     Edge 17, Type (0, 0), None
#     Edge 18, Type (0, 0), None
#     Edge 19, Type (0, 0), None
#     Edge 20, Type (0, 0), None
#     Edge 21, Type (0, 0), None
#     Edge 22, Type (0, 0), None
#     Edge 23, Type (0, 0), None
# Relax obj value: 0.116
# Max RMSD: 0.146
# Mean RMSD: 0.146
data_MOF--net-umx--node1-QUQFOY_clean_sbu_1--edge1-none
_symmetry_space_group_name_H-M    P1
_symmetry_Int_Tables_number       1
_symmetry_cell_setting            triclinic
loop_
_symmetry_equiv_pos_as_xyz
'x, y, z'
_cell_length_a     18.37663
_cell_length_b     18.384501
_cell_length_c     12.949549
_cell_angle_alpha  89.999984
_cell_angle_beta   90.000055
_cell_angle_gamma 89.999955
loop_
_atom_site_label
_atom_site_type_symbol
_atom_site_fract_x
_atom_site_fract_y
_atom_site_fract_z
_atom_type_partial_charge
O0 O 0.21413 0.46135 0.27256 0.0
Cd1 Cd 0.18581 0.41367 0.13641 0.0
Cd2 Cd 0.22699 0.54224 0.06053 0.0
O3 O 0.27877 0.55067 0.20354 0.0
O4 O 0.19909 0.30345 0.1371 0.0
O5 O 0.27618 0.38199 0.06751 0.0
C6 C 0.26023 0.31603 0.09103 0.0
C7 C 0.26617 0.53397 0.88964 0.0
C8 C 0.25714 0.51506 0.28255 0.0
C9 C 0.07071 0.5209 0.06652 0.0
O10 O 0.11989 0.56906 0.07041 0.0
O11 O 0.08718 0.4534 0.07419 0.0
O12 O 0.26834 0.59555 0.93798 0.0
O13 O 0.24787 0.47697 0.94077 0.0
O14 O 0.6035 0.21412 0.77256 0.0
Cd15 Cd 0.65118 0.18585 0.6364 0.0
Cd16 Cd 0.52257 0.22699 0.56053 0.0
O17 O 0.51415 0.27875 0.70354 0.0
O18 O 0.76145 0.1992 0.63702 0.0
O19 O 0.6828 0.27625 0.56756 0.0
C20 C 0.7488 0.26032 0.59101 0.0
C21 C 0.53086 0.26614 0.38964 0.0
C22 C 0.54977 0.25712 0.78255 0.0
C23 C 0.54392 0.0708 0.56651 0.0
O24 O 0.49573 0.11994 0.57042 0.0
O25 O 0.61145 0.08727 0.57415 0.0
O26 O 0.46924 0.26833 0.43798 0.0
O27 O 0.58787 0.24783 0.44076 0.0
O28 O 0.85059 0.60357 0.27256 0.0
Cd29 Cd 0.87892 0.65125 0.13641 0.0
Cd30 Cd 0.83773 0.52268 0.06052 0.0
O31 O 0.78596 0.51424 0.20354 0.0
O32 O 0.86563 0.76148 0.13711 0.0
O33 O 0.78854 0.68293 0.0675 0.0
C34 C 0.8045 0.74889 0.09102 0.0
C35 C 0.79855 0.53095 0.88964 0.0
C36 C 0.80758 0.54986 0.28255 0.0
C37 C 0.99401 0.54402 0.06652 0.0
O38 O 0.94483 0.49586 0.0704 0.0
O39 O 0.97755 0.61152 0.07419 0.0
O40 O 0.79638 0.46936 0.93798 0.0
O41 O 0.81685 0.58795 0.94077 0.0
O42 O 0.46122 0.85079 0.77256 0.0
Cd43 Cd 0.41354 0.87907 0.6364 0.0
Cd44 Cd 0.54215 0.83792 0.56053 0.0
O45 O 0.55057 0.78617 0.70354 0.0
O46 O 0.30327 0.86572 0.63702 0.0
O47 O 0.38192 0.78867 0.56756 0.0
C48 C 0.31592 0.8046 0.59101 0.0
C49 C 0.53386 0.79878 0.38964 0.0
C50 C 0.51495 0.8078 0.78255 0.0
C51 C 0.5208 0.99412 0.5665 0.0
O52 O 0.56899 0.94498 0.57042 0.0
O53 O 0.45328 0.97765 0.57415 0.0
O54 O 0.59548 0.79658 0.43798 0.0
O55 O 0.47685 0.81709 0.44076 0.0
O56 O 0.21418 0.6036 0.39373 0.0
Cd57 Cd 0.18583 0.65124 0.52989 0.0
Cd58 Cd 0.227 0.52261 0.60572 0.0
O59 O 0.27876 0.51419 0.46271 0.0
O60 O 0.1991 0.76147 0.52921 0.0
O61 O 0.27619 0.68294 0.59884 0.0
C62 C 0.26023 0.74889 0.5753 0.0
C63 C 0.26616 0.53086 0.77659 0.0
C64 C 0.25718 0.54988 0.38374 0.0
C65 C 0.07072 0.54401 0.59973 0.0
O66 O 0.11988 0.49584 0.59584 0.0
O67 O 0.08719 0.61151 0.59208 0.0
O68 O 0.26833 0.46927 0.72826 0.0
O69 O 0.2479 0.58787 0.72547 0.0
O70 O 0.4612 0.21418 0.89373 0.0
Cd71 Cd 0.41354 0.18588 1.02991 0.0
Cd72 Cd 0.54223 0.227 0.10572 0.0
O73 O 0.55063 0.27875 0.9627 0.0
O74 O 0.30327 0.19922 1.02929 0.0
O75 O 0.38192 0.27626 0.09879 0.0
C76 C 0.31592 0.26033 0.07532 0.0
C77 C 0.53396 0.26613 0.27659 0.0
C78 C 0.51493 0.25716 0.88374 0.0
C79 C 0.52081 0.0708 0.09974 0.0
O80 O 0.56902 0.11993 0.09582 0.0
O81 O 0.45329 0.08729 0.09212 0.0
O82 O 0.59558 0.26832 0.22825 0.0
O83 O 0.47693 0.24786 0.22548 0.0
O84 O 0.85054 0.46132 0.39373 0.0
Cd85 Cd 0.87889 0.41367 0.52989 0.0
Cd86 Cd 0.83772 0.54231 0.60572 0.0
O87 O 0.78596 0.55073 0.46271 0.0
O88 O 0.86562 0.30344 0.52921 0.0
O89 O 0.78853 0.38198 0.59884 0.0
C90 C 0.80449 0.31603 0.5753 0.0
C91 C 0.79856 0.53406 0.77659 0.0
C92 C 0.80754 0.51504 0.38374 0.0
C93 C 0.994 0.52091 0.59974 0.0
O94 O 0.94484 0.56908 0.59584 0.0
O95 O 0.97753 0.45341 0.59208 0.0
O96 O 0.79639 0.59565 0.72826 0.0
O97 O 0.81682 0.47705 0.72547 0.0
O98 O 0.60352 0.85074 0.89373 0.0
Cd99 Cd 0.65118 0.87904 1.02991 0.0
Cd100 Cd 0.52249 0.83792 0.10572 0.0
O101 O 0.51409 0.78617 0.9627 0.0
O102 O 0.76145 0.8657 1.02929 0.0
O103 O 0.68281 0.78866 0.0988 0.0
C104 C 0.74881 0.80459 0.07532 0.0
C105 C 0.53076 0.79879 0.27659 0.0
C106 C 0.54979 0.80776 0.88374 0.0
C107 C 0.54391 0.99412 0.09975 0.0
O108 O 0.49571 0.94499 0.09583 0.0
O109 O 0.61143 0.97763 0.09212 0.0
O110 O 0.46914 0.7966 0.22826 0.0
O111 O 0.58779 0.81706 0.22548 0.0
loop_
_geom_bond_atom_site_label_1
_geom_bond_atom_site_label_2
_geom_bond_distance
_geom_bond_site_symmetry_2
_ccdc_geom_bond_type
O0 Cd1 2.223 . S
O0 C8 1.315 . S
Cd1 O0 2.223 . S
Cd1 O4 2.297 . S
Cd1 O5 2.439 . S
Cd1 O11 2.240 . S
Cd2 O3 2.240 . S
Cd2 O10 2.223 . S
Cd2 O12 2.297 1_554 S
Cd2 O13 2.439 1_554 S
O3 Cd2 2.240 . S
O3 C8 1.279 . S
O4 Cd1 2.297 . S
O4 C6 1.247 . S
O5 Cd1 2.439 . S
O5 C6 1.208 . S
C6 O4 1.247 . S
C6 O5 1.208 . S
C7 O12 1.247 . S
C7 O13 1.208 . S
C8 O0 1.315 . S
C8 O3 1.279 . S
C9 O10 1.315 . S
C9 O11 1.279 . S
O10 Cd2 2.223 . S
O10 C9 1.315 . S
O11 Cd1 2.240 . S
O11 C9 1.279 . S
O12 Cd2 2.297 1_556 S
O12 C7 1.247 . S
O13 Cd2 2.439 1_556 S
O13 C7 1.208 . S
O14 Cd15 2.223 . S
O14 C22 1.315 . S
Cd15 O14 2.223 . S
Cd15 O18 2.297 . S
Cd15 O19 2.439 . S
Cd15 O25 2.240 . S
Cd16 O17 2.240 . S
Cd16 O24 2.223 . S
Cd16 O26 2.297 . S
Cd16 O27 2.439 . S
O17 Cd16 2.240 . S
O17 C22 1.279 . S
O18 Cd15 2.297 . S
O18 C20 1.247 . S
O19 Cd15 2.439 . S
O19 C20 1.208 . S
C20 O18 1.247 . S
C20 O19 1.208 . S
C21 O26 1.247 . S
C21 O27 1.208 . S
C22 O14 1.315 . S
C22 O17 1.279 . S
C23 O24 1.315 . S
C23 O25 1.279 . S
O24 Cd16 2.223 . S
O24 C23 1.315 . S
O25 Cd15 2.240 . S
O25 C23 1.279 . S
O26 Cd16 2.297 . S
O26 C21 1.247 . S
O27 Cd16 2.439 . S
O27 C21 1.208 . S
O28 Cd29 2.223 . S
O28 C36 1.315 . S
Cd29 O28 2.223 . S
Cd29 O32 2.297 . S
Cd29 O33 2.439 . S
Cd29 O39 2.240 . S
Cd30 O31 2.240 . S
Cd30 O38 2.223 . S
Cd30 O40 2.297 1_554 S
Cd30 O41 2.439 1_554 S
O31 Cd30 2.240 . S
O31 C36 1.279 . S
O32 Cd29 2.297 . S
O32 C34 1.247 . S
O33 Cd29 2.439 . S
O33 C34 1.208 . S
C34 O32 1.247 . S
C34 O33 1.208 . S
C35 O40 1.247 . S
C35 O41 1.208 . S
C36 O28 1.315 . S
C36 O31 1.279 . S
C37 O38 1.315 . S
C37 O39 1.279 . S
O38 Cd30 2.223 . S
O38 C37 1.315 . S
O39 Cd29 2.240 . S
O39 C37 1.279 . S
O40 Cd30 2.297 1_556 S
O40 C35 1.247 . S
O41 Cd30 2.439 1_556 S
O41 C35 1.208 . S
O42 Cd43 2.223 . S
O42 C50 1.315 . S
Cd43 O42 2.223 . S
Cd43 O46 2.297 . S
Cd43 O47 2.439 . S
Cd43 O53 2.240 . S
Cd44 O45 2.240 . S
Cd44 O52 2.223 . S
Cd44 O54 2.297 . S
Cd44 O55 2.439 . S
O45 Cd44 2.240 . S
O45 C50 1.279 . S
O46 Cd43 2.297 . S
O46 C48 1.247 . S
O47 Cd43 2.439 . S
O47 C48 1.208 . S
C48 O46 1.247 . S
C48 O47 1.208 . S
C49 O54 1.247 . S
C49 O55 1.208 . S
C50 O42 1.315 . S
C50 O45 1.279 . S
C51 O52 1.315 . S
C51 O53 1.279 . S
O52 Cd44 2.223 . S
O52 C51 1.315 . S
O53 Cd43 2.240 . S
O53 C51 1.279 . S
O54 Cd44 2.297 . S
O54 C49 1.247 . S
O55 Cd44 2.439 . S
O55 C49 1.208 . S
O56 Cd57 2.223 . S
O56 C64 1.315 . S
Cd57 O56 2.223 . S
Cd57 O60 2.297 . S
Cd57 O61 2.439 . S
Cd57 O67 2.240 . S
Cd58 O59 2.240 . S
Cd58 O66 2.223 . S
Cd58 O68 2.297 . S
Cd58 O69 2.439 . S
O59 Cd58 2.240 . S
O59 C64 1.279 . S
O60 Cd57 2.297 . S
O60 C62 1.247 . S
O61 Cd57 2.439 . S
O61 C62 1.208 . S
C62 O60 1.247 . S
C62 O61 1.208 . S
C63 O68 1.247 . S
C63 O69 1.208 . S
C64 O56 1.315 . S
C64 O59 1.279 . S
C65 O66 1.315 . S
C65 O67 1.279 . S
O66 Cd58 2.223 . S
O66 C65 1.315 . S
O67 Cd57 2.240 . S
O67 C65 1.279 . S
O68 Cd58 2.297 . S
O68 C63 1.247 . S
O69 Cd58 2.439 . S
O69 C63 1.208 . S
O70 Cd71 2.223 . S
O70 C78 1.315 . S
Cd71 O70 2.223 . S
Cd71 O74 2.297 . S
Cd71 O75 2.439 1_556 S
Cd71 O81 2.240 1_556 S
Cd72 O73 2.240 1_554 S
Cd72 O80 2.223 . S
Cd72 O82 2.297 . S
Cd72 O83 2.439 . S
O73 Cd72 2.240 1_556 S
O73 C78 1.279 . S
O74 Cd71 2.297 . S
O74 C76 1.247 . S
O75 Cd71 2.439 1_554 S
O75 C76 1.208 1_554 S
C76 O74 1.247 . S
C76 O75 1.208 1_556 S
C77 O82 1.247 . S
C77 O83 1.208 . S
C78 O70 1.315 . S
C78 O73 1.279 . S
C79 O80 1.315 . S
C79 O81 1.279 . S
O80 Cd72 2.223 . S
O80 C79 1.315 . S
O81 Cd71 2.240 1_554 S
O81 C79 1.279 . S
O82 Cd72 2.297 . S
O82 C77 1.247 . S
O83 Cd72 2.439 . S
O83 C77 1.208 . S
O84 Cd85 2.223 . S
O84 C92 1.315 . S
Cd85 O84 2.223 . S
Cd85 O88 2.297 . S
Cd85 O89 2.439 . S
Cd85 O95 2.240 . S
Cd86 O87 2.240 . S
Cd86 O94 2.223 . S
Cd86 O96 2.297 . S
Cd86 O97 2.439 . S
O87 Cd86 2.240 . S
O87 C92 1.279 . S
O88 Cd85 2.297 . S
O88 C90 1.247 . S
O89 Cd85 2.439 . S
O89 C90 1.208 . S
C90 O88 1.247 . S
C90 O89 1.208 . S
C91 O96 1.247 . S
C91 O97 1.208 . S
C92 O84 1.315 . S
C92 O87 1.279 . S
C93 O94 1.315 . S
C93 O95 1.279 . S
O94 Cd86 2.223 . S
O94 C93 1.315 . S
O95 Cd85 2.240 . S
O95 C93 1.279 . S
O96 Cd86 2.297 . S
O96 C91 1.247 . S
O97 Cd86 2.439 . S
O97 C91 1.208 . S
O98 Cd99 2.223 . S
O98 C106 1.315 . S
Cd99 O98 2.223 . S
Cd99 O102 2.297 . S
Cd99 O103 2.439 1_556 S
Cd99 O109 2.240 1_556 S
Cd100 O101 2.240 1_554 S
Cd100 O108 2.223 . S
Cd100 O110 2.297 . S
Cd100 O111 2.439 . S
O101 Cd100 2.240 1_556 S
O101 C106 1.279 . S
O102 Cd99 2.297 . S
O102 C104 1.247 . S
O103 Cd99 2.439 1_554 S
O103 C104 1.208 1_554 S
C104 O102 1.247 . S
C104 O103 1.208 1_556 S
C105 O110 1.247 . S
C105 O111 1.208 . S
C106 O98 1.315 . S
C106 O101 1.279 . S
C107 O108 1.315 . S
C107 O109 1.279 . S
O108 Cd100 2.223 . S
O108 C107 1.315 . S
O109 Cd99 2.240 1_554 S
O109 C107 1.279 . S
O110 Cd100 2.297 . S
O110 C105 1.247 . S
O111 Cd100 2.439 . S
O111 C105 1.208 . S
C8 C64 1.873 . S
C22 C78 1.873 . S
C92 C36 1.873 . S
C106 C50 1.873 . S
C91 C35 1.656 . S
C105 C49 1.655 . S
C7 C63 1.656 . S
C21 C77 1.655 . S
C37 C9 1.181 1_655 S
C51 C23 1.182 1_565 S
C65 C93 1.181 1_455 S
C107 C79 1.182 1_565 S
C6 C76 2.225 1_554 S
C90 C20 2.225 . S
C34 C104 2.225 1_554 S
C48 C62 2.225 . S
