# Generated by pormake.
# Topology sxc, (6)-cn, num edge types: 1
# Building blocks:
#     Node 0, Type 0, BuildingBlock: LEVNOQ01_clean_sbu_1, # of connection points: 6
#     Node 1, Type 0, BuildingBlock: LEVNOQ01_clean_sbu_1, # of connection points: 6
#     Node 2, Type 0, BuildingBlock: LEVNOQ01_clean_sbu_1, # of connection points: 6
#     Edge 3, Type (0, 0), None
#     Edge 4, Type (0, 0), None
#     Edge 5, Type (0, 0), None
#     Edge 6, Type (0, 0), None
#     Edge 7, Type (0, 0), None
#     Edge 8, Type (0, 0), None
#     Edge 9, Type (0, 0), None
#     Edge 10, Type (0, 0), None
#     Edge 11, Type (0, 0), None
# Relax obj value: 0.104
# Max RMSD: 0.150
# Mean RMSD: 0.143
data_MOF--net-sxc--node1-LEVNOQ01_clean_sbu_1--edge1-none
_symmetry_space_group_name_H-M    P1
_symmetry_Int_Tables_number       1
_symmetry_cell_setting            triclinic
loop_
_symmetry_equiv_pos_as_xyz
'x, y, z'
_cell_length_a     7.9325995
_cell_length_b     8.0719169
_cell_length_c     21.439117
_cell_angle_alpha  101.05029
_cell_angle_beta   90.045887
_cell_angle_gamma 119.42481
loop_
_atom_site_label
_atom_site_type_symbol
_atom_site_fract_x
_atom_site_fract_y
_atom_site_fract_z
_atom_type_partial_charge
O0 O 0.82583 0.48605 0.935 0.0
Mg1 Mg 0.70796 0.60663 0.88179 0.0
O2 O -0.01332 0.73588 0.0206 0.0
Mg3 Mg -0.04463 0.00642 0.00939 0.0
O4 O 0.90546 0.89464 0.90355 0.0
O5 O 0.83385 0.73433 0.80407 0.0
O6 O 0.90083 0.25832 -0.0038 0.0
O7 O 0.25703 0.27705 -0.00184 0.0
Mg8 Mg 0.10864 0.40622 0.13707 0.0
O9 O 0.01842 0.11834 0.11521 0.0
O10 O 0.9119 0.45128 0.08802 0.0
O11 O 0.34691 0.52667 0.08388 0.0
O12 O 0.10581 0.27787 0.21479 0.0
C13 C 0.49718 0.60109 0.99153 0.0
C14 C 0.90944 0.55394 0.99203 0.0
C15 C -0.05592 0.89203 0.8453 0.0
C16 C 0.90277 0.41183 0.02729 0.0
C17 C 0.36206 0.45891 0.02679 0.0
C18 C 0.05793 0.12012 0.17354 0.0
O19 O 0.46642 0.5617 0.93081 0.0
O20 O 0.64901 0.7545 0.02261 0.0
O21 O 0.50553 -0.05369 0.28362 0.0
Mg22 Mg 0.22803 0.78984 0.22852 0.0
O23 O 0.47308 0.14984 0.36457 0.0
Mg24 Mg 0.15009 0.07623 0.35588 0.0
O25 O 0.12419 -0.02606 0.25019 0.0
O26 O 0.12838 0.86068 0.14974 0.0
O27 O 0.82835 0.00581 0.34722 0.0
O28 O 0.16957 0.36525 0.34311 0.0
Mg29 Mg 0.07753 0.36592 0.48517 0.0
O30 O 0.17146 0.17372 0.45979 0.0
O31 O 0.80972 0.22831 0.42439 0.0
O32 O 0.23954 0.58423 0.43476 0.0
O33 O 0.09778 0.219 0.5563 0.0
C34 C 0.12694 0.63486 0.34118 0.0
C35 C 0.56601 0.06691 0.33756 0.0
C36 C 0.09288 -0.02674 0.19149 0.0
C37 C 0.74424 0.10138 0.37178 0.0
C38 C 0.19004 0.52719 0.37448 0.0
C39 C 0.1267 0.10961 0.5109 0.0
O40 O 0.07745 0.57655 0.28113 0.0
O41 O 0.14049 0.79382 0.37209 0.0
O42 O 0.66289 0.42486 0.58433 0.0
Mg43 Mg 0.71894 0.6437 0.53425 0.0
O44 O 0.8121 0.64409 0.67592 0.0
Mg45 Mg 0.0815 0.9333 0.66315 0.0
O46 O 0.00578 0.83558 0.55909 0.0
O47 O 0.88322 0.79018 0.46287 0.0
O48 O 0.35424 0.21565 0.64693 0.0
O49 O 0.33093 0.8598 0.65463 0.0
Mg50 Mg 0.44614 0.21952 0.79071 0.0
O51 O 0.1582 0.03577 0.76882 0.0
O52 O 0.50919 0.43254 0.73794 0.0
O53 O 0.56691 0.06269 0.73575 0.0
O54 O 0.27486 0.14986 0.86936 0.0
C55 C 0.65039 0.90799 0.64749 0.0
C56 C 0.67065 0.48197 0.64459 0.0
C57 C 0.02242 0.89981 0.50805 0.0
C58 C 0.50001 0.37431 0.67788 0.0
C59 C 0.50675 -0.05759 0.68173 0.0
C60 C 0.12691 0.03752 0.82748 0.0
O61 O 0.58859 0.78074 0.59498 0.0
O62 O 0.83031 0.00396 0.67188 0.0
loop_
_geom_bond_atom_site_label_1
_geom_bond_atom_site_label_2
_geom_bond_distance
_geom_bond_site_symmetry_2
_ccdc_geom_bond_type
O0 Mg1 1.990 1_455 S
O0 C14 1.257 . S
Mg1 O0 1.990 1_655 S
Mg1 O4 2.180 . S
Mg1 O5 2.117 1_655 S
Mg1 O19 2.030 . S
O2 Mg3 2.072 1_565 S
O2 C14 1.259 1_554 S
Mg3 O2 2.072 1_545 S
Mg3 O4 2.099 1_444 S
Mg3 O6 2.079 1_455 S
Mg3 O7 2.069 1_554 S
Mg3 O9 2.099 . S
Mg3 O20 2.079 1_445 S
O4 Mg1 2.180 . S
O4 Mg3 2.099 1_666 S
O4 C15 1.279 1_655 S
O5 Mg1 2.117 1_455 S
O5 C15 1.250 . S
O6 Mg3 2.079 1_655 S
O6 C16 1.264 1_655 S
O7 Mg3 2.069 1_556 S
O7 C17 1.256 1_556 S
Mg8 O9 2.180 . S
Mg8 O10 2.030 . S
Mg8 O11 1.990 . S
Mg8 O12 2.117 . S
O9 Mg3 2.099 . S
O9 Mg8 2.180 . S
O9 C18 1.279 . S
O10 Mg8 2.030 . S
O10 C16 1.248 . S
O11 Mg8 1.990 . S
O11 C17 1.253 . S
O12 Mg8 2.117 . S
O12 C18 1.250 . S
C13 O19 1.248 . S
C13 O20 1.264 1_556 S
C14 O0 1.257 . S
C14 O2 1.259 1_556 S
C15 O4 1.279 1_455 S
C15 O5 1.250 . S
C16 O6 1.264 1_455 S
C16 O10 1.248 . S
C17 O7 1.256 1_554 S
C17 O11 1.253 . S
C18 O9 1.279 . S
C18 O12 1.250 . S
O19 Mg1 2.030 . S
O19 C13 1.248 . S
O20 Mg3 2.079 1_665 S
O20 C13 1.264 1_554 S
O21 Mg22 1.990 1_545 S
O21 C35 1.253 . S
Mg22 O21 1.990 1_565 S
Mg22 O25 2.180 . S
Mg22 O26 2.117 . S
Mg22 O40 2.030 . S
O23 Mg24 2.072 . S
O23 C35 1.260 . S
Mg24 O23 2.072 . S
Mg24 O25 2.099 1_545 S
Mg24 O27 2.079 1_445 S
Mg24 O28 2.072 . S
Mg24 O30 2.099 . S
Mg24 O41 2.079 1_545 S
O25 Mg22 2.180 . S
O25 Mg24 2.099 1_565 S
O25 C36 1.279 1_565 S
O26 Mg22 2.117 . S
O26 C36 1.250 1_565 S
O27 Mg24 2.079 1_665 S
O27 C37 1.264 . S
O28 Mg24 2.072 . S
O28 C38 1.260 . S
Mg29 O30 2.180 1_655 S
Mg29 O31 2.030 . S
Mg29 O32 1.990 1_655 S
Mg29 O33 2.117 1_655 S
O30 Mg24 2.099 . S
O30 Mg29 2.180 1_455 S
O30 C39 1.279 . S
O31 Mg29 2.030 . S
O31 C37 1.248 1_545 S
O32 Mg29 1.990 1_455 S
O32 C38 1.253 . S
O33 Mg29 2.117 1_455 S
O33 C39 1.250 . S
C34 O40 1.248 . S
C34 O41 1.264 . S
C35 O21 1.253 . S
C35 O23 1.260 . S
C36 O25 1.279 1_545 S
C36 O26 1.250 1_545 S
C37 O27 1.264 . S
C37 O31 1.248 1_565 S
C38 O28 1.260 . S
C38 O32 1.253 . S
C39 O30 1.279 . S
C39 O33 1.250 . S
O40 Mg22 2.030 . S
O40 C34 1.248 . S
O41 Mg24 2.079 1_565 S
O41 C34 1.264 . S
O42 Mg43 1.990 . S
O42 C56 1.253 . S
Mg43 O42 1.990 . S
Mg43 O46 2.180 1_665 S
Mg43 O47 2.117 . S
Mg43 O61 2.030 . S
O44 Mg45 2.072 1_665 S
O44 C56 1.260 . S
Mg45 O44 2.072 1_445 S
Mg45 O46 2.099 . S
Mg45 O48 2.079 . S
Mg45 O49 2.072 . S
Mg45 O51 2.099 . S
Mg45 O62 2.079 1_455 S
O46 Mg43 2.180 1_445 S
O46 Mg45 2.099 . S
O46 C57 1.279 1_545 S
O47 Mg43 2.117 . S
O47 C57 1.250 1_655 S
O48 Mg45 2.079 . S
O48 C58 1.264 . S
O49 Mg45 2.072 . S
O49 C59 1.260 . S
Mg50 O51 2.180 . S
Mg50 O52 2.030 . S
Mg50 O53 1.990 . S
Mg50 O54 2.117 . S
O51 Mg45 2.099 . S
O51 Mg50 2.180 . S
O51 C60 1.279 . S
O52 Mg50 2.030 . S
O52 C58 1.248 . S
O53 Mg50 1.990 . S
O53 C59 1.253 . S
O54 Mg50 2.117 . S
O54 C60 1.250 . S
C55 O61 1.248 1_545 S
C55 O62 1.264 . S
C56 O42 1.253 . S
C56 O44 1.260 . S
C57 O46 1.279 1_565 S
C57 O47 1.250 1_455 S
C58 O48 1.264 . S
C58 O52 1.248 . S
C59 O49 1.260 . S
C59 O53 1.253 . S
C60 O51 1.279 . S
C60 O54 1.250 . S
O61 Mg43 2.030 . S
O61 C55 1.248 1_565 S
O62 Mg45 2.079 1_655 S
O62 C55 1.264 . S
C16 C14 1.388 1_554 S
C35 C37 1.231 1_545 S
C56 C58 1.441 . S
C55 C59 1.231 . S
C13 C17 1.391 1_556 S
C38 C34 1.441 . S
C36 C18 1.374 . S
C39 C57 1.262 1_545 S
C60 C15 1.374 1_545 S
