# Generated by pormake.
# Topology yfz, (5)-cn, num edge types: 1
# Building blocks:
#     Node 0, Type 0, BuildingBlock: XOMCOT_clean_sbu_1, # of connection points: 5
#     Node 1, Type 0, BuildingBlock: XOMCOT_clean_sbu_1, # of connection points: 5
#     Node 2, Type 0, BuildingBlock: XOMCOT_clean_sbu_1, # of connection points: 5
#     Node 3, Type 0, BuildingBlock: XOMCOT_clean_sbu_1, # of connection points: 5
#     Node 4, Type 0, BuildingBlock: XOMCOT_clean_sbu_1, # of connection points: 5
#     Node 5, Type 0, BuildingBlock: XOMCOT_clean_sbu_1, # of connection points: 5
#     Node 6, Type 0, BuildingBlock: XOMCOT_clean_sbu_1, # of connection points: 5
#     Node 7, Type 0, BuildingBlock: XOMCOT_clean_sbu_1, # of connection points: 5
#     Edge 8, Type (0, 0), None
#     Edge 9, Type (0, 0), None
#     Edge 10, Type (0, 0), None
#     Edge 11, Type (0, 0), None
#     Edge 12, Type (0, 0), None
#     Edge 13, Type (0, 0), None
#     Edge 14, Type (0, 0), None
#     Edge 15, Type (0, 0), None
#     Edge 16, Type (0, 0), None
#     Edge 17, Type (0, 0), None
#     Edge 18, Type (0, 0), None
#     Edge 19, Type (0, 0), None
#     Edge 20, Type (0, 0), None
#     Edge 21, Type (0, 0), None
#     Edge 22, Type (0, 0), None
#     Edge 23, Type (0, 0), None
#     Edge 24, Type (0, 0), None
#     Edge 25, Type (0, 0), None
#     Edge 26, Type (0, 0), None
#     Edge 27, Type (0, 0), None
# Relax obj value: 0.159
# Max RMSD: 0.141
# Mean RMSD: 0.141
data_MOF--net-yfz--node1-XOMCOT_clean_sbu_1--edge1-none
_symmetry_space_group_name_H-M    P1
_symmetry_Int_Tables_number       1
_symmetry_cell_setting            triclinic
loop_
_symmetry_equiv_pos_as_xyz
'x, y, z'
_cell_length_a     25.498657
_cell_length_b     25.498658
_cell_length_c     9.2143539
_cell_angle_alpha  90.001919
_cell_angle_beta   90.003963
_cell_angle_gamma 89.999255
loop_
_atom_site_label
_atom_site_type_symbol
_atom_site_fract_x
_atom_site_fract_y
_atom_site_fract_z
_atom_type_partial_charge
C0 C 0.59053 0.06635 0.15579 0.0
C1 C 0.58785 0.06665 1.00699 0.0
N2 N 0.54294 0.09057 0.96849 0.0
N3 N 0.54842 0.09163 0.21064 0.0
C4 C 0.51817 0.10205 0.09406 0.0
H5 H 0.6239 0.05372 0.21929 0.0
Co6 Co 0.5463 0.11569 0.40305 0.0
C7 C 0.50078 0.21844 0.25229 0.0
O8 O 0.50538 0.20795 0.11406 0.0
N9 N 0.54364 0.13574 0.59817 0.0
C10 C 0.50206 0.15545 0.80409 0.0
C11 C 0.50782 0.16805 0.65957 0.0
C12 C 0.55917 0.10414 0.70806 0.0
N13 N 0.53442 0.11519 0.83326 0.0
O14 O 0.47956 0.08165 0.43635 0.0
H15 H 0.48299 0.19508 0.60109 0.0
H16 H 0.58377 0.07004 0.69382 0.0
O17 O 0.51472 0.18479 0.34911 0.0
C18 C 0.49221 0.03666 0.48656 0.0
O19 O 0.54124 0.02152 0.47355 0.0
N20 N 0.61458 0.14561 0.37752 0.0
C21 C 0.71904 0.16419 0.30049 0.0
C22 C 0.67824 0.18516 0.21796 0.0
C23 C 0.62633 0.1762 0.25964 0.0
C24 C 0.65436 0.1264 0.46135 0.0
C25 C 0.7068 0.13611 0.42642 0.0
H26 H 0.59622 0.18925 0.18706 0.0
H27 H 0.64626 0.09982 0.5489 0.0
H28 H 0.48006 0.12032 0.10047 0.0
H29 H 0.61905 0.05544 0.93372 0.0
H30 H 0.4741 0.17253 0.87826 0.0
H31 H 0.68636 0.20628 0.1184 0.0
H32 H 0.73751 0.11813 0.49073 0.0
C33 C 0.426 0.59055 0.65581 0.0
C34 C 0.4257 0.58787 0.50701 0.0
N35 N 0.40179 0.54296 0.46852 0.0
N36 N 0.40072 0.54844 0.71066 0.0
C37 C 0.39031 0.51819 0.59408 0.0
H38 H 0.43863 0.62392 0.71931 0.0
Co39 Co 0.37666 0.54631 0.90307 0.0
C40 C 0.27392 0.50079 0.75229 0.0
O41 O 0.28441 0.5054 0.61405 0.0
N42 N 0.35662 0.54365 0.09818 0.0
C43 C 0.33691 0.50207 0.3041 0.0
C44 C 0.32431 0.50784 0.15958 0.0
C45 C 0.38822 0.55919 0.20808 0.0
N46 N 0.37717 0.53443 0.33327 0.0
O47 O 0.41071 0.47957 0.93636 0.0
H48 H 0.29727 0.483 0.1011 0.0
H49 H 0.42231 0.58378 0.19385 0.0
O50 O 0.30757 0.51473 0.84911 0.0
C51 C 0.4557 0.49222 0.98658 0.0
O52 O 0.47084 0.54125 0.97358 0.0
N53 N 0.34675 0.61459 0.87753 0.0
C54 C 0.32816 0.71905 0.8005 0.0
C55 C 0.30718 0.67826 0.71797 0.0
C56 C 0.31614 0.62635 0.75965 0.0
C57 C 0.36595 0.65437 0.96137 0.0
C58 C 0.35624 0.70681 0.92644 0.0
H59 H 0.30309 0.59623 0.68706 0.0
H60 H 0.39254 0.64627 0.04892 0.0
H61 H 0.37204 0.48007 0.60049 0.0
H62 H 0.43691 0.61907 0.43374 0.0
H63 H 0.31983 0.47412 0.37827 0.0
H64 H 0.28607 0.68638 0.61841 0.0
H65 H 0.37422 0.73752 0.99074 0.0
C66 C 0.90181 0.42598 0.15577 0.0
C67 C 0.9045 0.42569 1.00698 0.0
N68 N 0.94941 0.40177 0.9685 0.0
N69 N 0.94392 0.40071 0.21064 0.0
C70 C 0.97418 0.39029 0.09407 0.0
H71 H 0.86844 0.43861 0.21926 0.0
Co72 Co 0.94605 0.37665 0.40305 0.0
C73 C 0.99156 0.27391 0.25229 0.0
O74 O 0.98695 0.28439 0.11405 0.0
N75 N 0.94872 0.35661 0.59817 0.0
C76 C 0.99029 0.3369 0.8041 0.0
C77 C 0.98453 0.3243 0.65958 0.0
C78 C 0.93319 0.38821 0.70805 0.0
N79 N 0.95794 0.37716 0.83326 0.0
O80 O 0.01279 0.4107 0.43635 0.0
H81 H 0.00936 0.29726 0.60111 0.0
H82 H 0.90859 0.42231 0.69381 0.0
O83 O 0.97763 0.30755 0.34911 0.0
C84 C 1.00014 0.45568 0.48655 0.0
O85 O 0.95111 0.47083 0.47353 0.0
N86 N 0.87777 0.34673 0.37752 0.0
C87 C 0.77331 0.32814 0.3005 0.0
C88 C 0.8141 0.30717 0.21796 0.0
C89 C 0.86601 0.31613 0.25963 0.0
C90 C 0.838 0.36594 0.46135 0.0
C91 C 0.78555 0.35623 0.42642 0.0
H92 H 0.89612 0.30308 0.18705 0.0
H93 H 0.8461 0.39253 0.54889 0.0
H94 H 0.01229 0.37202 0.1005 0.0
H95 H 0.87329 0.4369 0.93369 0.0
H96 H 0.01824 0.31981 0.87829 0.0
H97 H 0.80598 0.28605 0.1184 0.0
H98 H 0.75485 0.37421 0.49073 0.0
C99 C 0.06636 0.9018 0.65574 0.0
C100 C 0.06665 0.90449 0.50695 0.0
N101 N 0.09057 0.9494 0.46847 0.0
N102 N 0.09163 0.94392 0.71061 0.0
C103 C 0.10204 0.97417 0.59404 0.0
H104 H 0.05373 0.86844 0.71923 0.0
Co105 Co 0.11569 0.94605 0.90303 0.0
C106 C 0.21843 0.99156 0.75228 0.0
O107 O 0.20794 0.98695 0.61404 0.0
N108 N 0.13573 0.94871 0.09816 0.0
C109 C 0.15544 0.99029 0.30409 0.0
C110 C 0.16804 0.98453 0.15957 0.0
C111 C 0.10414 0.93318 0.20803 0.0
N112 N 0.11518 0.95793 0.33324 0.0
O113 O 0.08164 0.01279 0.93632 0.0
H114 H 0.19508 0.00936 0.1011 0.0
H115 H 0.07004 0.90858 0.19378 0.0
O116 O 0.18479 0.97763 0.8491 0.0
C117 C 0.03665 1.00013 0.98652 0.0
O118 O 0.02151 0.9511 0.97349 0.0
N119 N 0.14561 0.87777 0.8775 0.0
C120 C 0.1642 0.7733 0.80048 0.0
C121 C 0.18517 0.8141 0.71795 0.0
C122 C 0.17621 0.86601 0.75962 0.0
C123 C 0.1264 0.83799 0.96133 0.0
C124 C 0.13612 0.78555 0.9264 0.0
H125 H 0.18926 0.89612 0.68705 0.0
H126 H 0.09982 0.84609 0.04887 0.0
H127 H 0.12031 0.01229 0.60047 0.0
H128 H 0.05544 0.87329 0.43367 0.0
H129 H 0.17252 0.01825 0.37827 0.0
H130 H 0.20629 0.80598 0.6184 0.0
H131 H 0.11814 0.75484 0.99071 0.0
C132 C 0.59048 0.42606 0.38977 0.0
C133 C 0.5878 0.42575 0.53857 0.0
N134 N 0.54289 0.40184 0.57705 0.0
N135 N 0.54837 0.40078 0.33491 0.0
C136 C 0.51812 0.39036 0.45148 0.0
H137 H 0.62385 0.43869 0.32628 0.0
Co138 Co 0.54624 0.37672 0.14249 0.0
C139 C 0.50068 0.27399 0.29318 0.0
O140 O 0.50519 0.28445 0.43145 0.0
N141 N 0.54358 0.35667 0.94737 0.0
C142 C 0.502 0.33698 0.74145 0.0
C143 C 0.50776 0.32437 0.88597 0.0
C144 C 0.55913 0.38826 0.83749 0.0
N145 N 0.53437 0.37723 0.71229 0.0
O146 O 0.4795 0.41077 0.10918 0.0
H147 H 0.48292 0.29734 0.94444 0.0
H148 H 0.58373 0.42236 0.85174 0.0
O149 O 0.51467 0.30762 0.19642 0.0
C150 C 0.49216 0.45575 0.05897 0.0
O151 O 0.54119 0.47089 0.07199 0.0
N152 N 0.61451 0.3468 0.16806 0.0
C153 C 0.71896 0.32816 0.24515 0.0
C154 C 0.67816 0.30721 0.32766 0.0
C155 C 0.62625 0.31619 0.28595 0.0
C156 C 0.6543 0.36598 0.08425 0.0
C157 C 0.70674 0.35625 0.1192 0.0
H158 H 0.59612 0.30315 0.35851 0.0
H159 H 0.64622 0.39257 0.99669 0.0
H160 H 0.48 0.3721 0.44506 0.0
H161 H 0.61901 0.43696 0.61185 0.0
H162 H 0.47403 0.3199 0.66727 0.0
H163 H 0.68626 0.28609 0.42722 0.0
H164 H 0.73746 0.37421 0.05491 0.0
C165 C 0.0663 0.59048 0.88973 0.0
C166 C 0.0666 0.5878 0.03852 0.0
N167 N 0.09052 0.54289 0.07702 0.0
N168 N 0.09157 0.54836 0.83487 0.0
C169 C 0.102 0.51812 0.95145 0.0
H170 H 0.05366 0.62384 0.82622 0.0
Co171 Co 0.11564 0.54624 0.64247 0.0
C172 C 0.21837 0.50068 0.79317 0.0
O173 O 0.20791 0.50517 0.93144 0.0
N174 N 0.13568 0.54358 0.44735 0.0
C175 C 0.15538 0.502 0.24144 0.0
C176 C 0.16799 0.50776 0.38596 0.0
C177 C 0.10409 0.55912 0.33746 0.0
N178 N 0.11513 0.53437 0.21226 0.0
O179 O 0.08159 0.4795 0.60915 0.0
H180 H 0.19502 0.48292 0.44444 0.0
H181 H 0.07 0.58373 0.35169 0.0
O182 O 0.18473 0.51467 0.69641 0.0
C183 C 0.03661 0.49215 0.55892 0.0
O184 O 0.02146 0.54118 0.57193 0.0
N185 N 0.14555 0.61451 0.66804 0.0
C186 C 0.16418 0.71896 0.74513 0.0
C187 C 0.18514 0.67815 0.82765 0.0
C188 C 0.17616 0.62625 0.78594 0.0
C189 C 0.12636 0.6543 0.58422 0.0
C190 C 0.1361 0.70674 0.61918 0.0
H191 H 0.1892 0.59612 0.8585 0.0
H192 H 0.09978 0.64622 0.49665 0.0
H193 H 0.12026 0.48 0.94504 0.0
H194 H 0.05539 0.619 0.11179 0.0
H195 H 0.17246 0.47404 0.16727 0.0
H196 H 0.20626 0.68626 0.92721 0.0
H197 H 0.11813 0.73746 0.55488 0.0
C198 C 0.90186 0.06628 0.38971 0.0
C199 C 0.90454 0.06658 0.53851 0.0
N200 N 0.94945 0.09051 0.57702 0.0
N201 N 0.94398 0.09155 0.33487 0.0
C202 C 0.97422 0.10198 0.45147 0.0
H203 H 0.8685 0.05364 0.3262 0.0
Co204 Co 0.9461 0.11562 0.14246 0.0
C205 C 0.99167 0.21836 0.29317 0.0
O206 O 0.98718 0.20789 0.43145 0.0
N207 N 0.94875 0.13567 0.94735 0.0
C208 C 0.99034 0.15537 0.74145 0.0
C209 C 0.98458 0.16797 0.88597 0.0
C210 C 0.93321 0.10408 0.83746 0.0
N211 N 0.95797 0.11512 0.71226 0.0
O212 O 0.01284 0.08157 0.10915 0.0
H213 H 0.00942 0.195 0.94446 0.0
H214 H 0.9086 0.06999 0.85168 0.0
O215 O 0.97767 0.18472 0.19641 0.0
C216 C 1.00018 0.03659 0.05891 0.0
O217 O 0.95115 0.02145 0.0719 0.0
N218 N 0.87783 0.14554 0.16803 0.0
C219 C 0.77338 0.16417 0.24513 0.0
C220 C 0.81419 0.18513 0.32765 0.0
C221 C 0.8661 0.17615 0.28594 0.0
C222 C 0.83804 0.12636 0.08422 0.0
C223 C 0.7856 0.13609 0.11918 0.0
H224 H 0.89623 0.18919 0.3585 0.0
H225 H 0.84611 0.09977 0.99665 0.0
H226 H 0.01234 0.12024 0.44506 0.0
H227 H 0.87333 0.05538 0.61177 0.0
H228 H 0.01831 0.17244 0.66729 0.0
H229 H 0.80609 0.20625 0.42722 0.0
H230 H 0.75488 0.11813 0.05488 0.0
C231 C 0.42606 0.90188 0.88976 0.0
C232 C 0.42576 0.90456 0.03855 0.0
N233 N 0.40183 0.94947 0.07705 0.0
N234 N 0.40078 0.944 0.8349 0.0
C235 C 0.39036 0.97424 0.95149 0.0
H236 H 0.4387 0.86852 0.82625 0.0
Co237 Co 0.37672 0.94612 0.64249 0.0
C238 C 0.27398 0.99168 0.79317 0.0
O239 O 0.28445 0.98719 0.93144 0.0
N240 N 0.35666 0.94877 0.44737 0.0
C241 C 0.33697 0.99036 0.24146 0.0
C242 C 0.32437 0.98459 0.38597 0.0
C243 C 0.38826 0.93322 0.33748 0.0
N244 N 0.37722 0.95799 0.21228 0.0
O245 O 0.41076 0.01286 0.60917 0.0
H246 H 0.29734 0.00943 0.44445 0.0
H247 H 0.42235 0.90862 0.35172 0.0
O248 O 0.30762 0.97768 0.69642 0.0
C249 C 0.45574 1.0002 0.55895 0.0
O250 O 0.47089 0.95117 0.57196 0.0
N251 N 0.3468 0.87784 0.66805 0.0
C252 C 0.32817 0.7734 0.74515 0.0
C253 C 0.30722 0.81421 0.82766 0.0
C254 C 0.3162 0.86611 0.78595 0.0
C255 C 0.36599 0.83805 0.58424 0.0
C256 C 0.35625 0.78561 0.6192 0.0
H257 H 0.30316 0.89624 0.85851 0.0
H258 H 0.39257 0.84613 0.49668 0.0
H259 H 0.3721 0.01236 0.94508 0.0
H260 H 0.43697 0.87335 0.11182 0.0
H261 H 0.3199 0.01832 0.16729 0.0
H262 H 0.2861 0.80611 0.92723 0.0
H263 H 0.37422 0.75489 0.55491 0.0
loop_
_geom_bond_atom_site_label_1
_geom_bond_atom_site_label_2
_geom_bond_distance
_geom_bond_site_symmetry_2
_ccdc_geom_bond_type
C0 C1 1.351 1_554 S
C0 N3 1.368 . S
C0 H5 0.931 . S
C1 C0 1.351 1_556 S
C1 N2 1.373 . S
C1 H29 0.930 . S
N2 C1 1.373 . S
N2 C4 1.340 1_556 S
N3 C0 1.368 . S
N3 C4 1.321 . S
N3 Co6 2.135 . S
C4 N2 1.340 1_554 S
C4 N3 1.321 . S
C4 H28 0.930 . S
H5 C0 0.931 . S
Co6 N3 2.135 . S
Co6 N9 2.121 . S
Co6 O14 2.055 . S
Co6 O17 2.039 . S
Co6 N20 2.140 . S
C7 O8 1.227 . S
C7 O17 1.265 . S
O8 C7 1.227 . S
N9 Co6 2.121 . S
N9 C11 1.375 . S
N9 C12 1.313 . S
C10 C11 1.338 . S
C10 N13 1.377 . S
C10 H30 0.930 . S
C11 N9 1.375 . S
C11 C10 1.338 . S
C11 H15 0.931 . S
C12 N9 1.313 . S
C12 N13 1.344 . S
C12 H16 0.930 . S
N13 C10 1.377 . S
N13 C12 1.344 . S
O14 Co6 2.055 . S
O14 C18 1.253 . S
H15 C11 0.931 . S
H16 C12 0.930 . S
O17 Co6 2.039 . S
O17 C7 1.265 . S
C18 O14 1.253 . S
C18 O19 1.227 . S
O19 C18 1.227 . S
N20 Co6 2.140 . S
N20 C23 1.346 . S
N20 C24 1.345 . S
C21 C22 1.387 . S
C21 C25 1.391 . S
C22 C21 1.387 . S
C22 C23 1.369 . S
C22 H31 0.929 . S
C23 N20 1.346 . S
C23 C22 1.369 . S
C23 H26 0.928 . S
C24 N20 1.345 . S
C24 C25 1.371 . S
C24 H27 0.931 . S
C25 C21 1.391 . S
C25 C24 1.371 . S
C25 H32 0.930 . S
H26 C23 0.928 . S
H27 C24 0.931 . S
H28 C4 0.930 . S
H29 C1 0.930 . S
H30 C10 0.930 . S
H31 C22 0.929 . S
H32 C25 0.930 . S
C33 C34 1.351 . S
C33 N36 1.368 . S
C33 H38 0.931 . S
C34 C33 1.351 . S
C34 N35 1.373 . S
C34 H62 0.930 . S
N35 C34 1.373 . S
N35 C37 1.340 . S
N36 C33 1.368 . S
N36 C37 1.321 . S
N36 Co39 2.135 . S
C37 N35 1.340 . S
C37 N36 1.321 . S
C37 H61 0.930 . S
H38 C33 0.931 . S
Co39 N36 2.135 . S
Co39 N42 2.121 1_556 S
Co39 O47 2.055 . S
Co39 O50 2.039 . S
Co39 N53 2.140 . S
C40 O41 1.227 . S
C40 O50 1.265 . S
O41 C40 1.227 . S
N42 Co39 2.121 1_554 S
N42 C44 1.375 . S
N42 C45 1.313 . S
C43 C44 1.338 . S
C43 N46 1.377 . S
C43 H63 0.930 . S
C44 N42 1.375 . S
C44 C43 1.338 . S
C44 H48 0.931 . S
C45 N42 1.313 . S
C45 N46 1.344 . S
C45 H49 0.930 . S
N46 C43 1.377 . S
N46 C45 1.344 . S
O47 Co39 2.055 . S
O47 C51 1.253 . S
H48 C44 0.931 . S
H49 C45 0.930 . S
O50 Co39 2.039 . S
O50 C40 1.265 . S
C51 O47 1.253 . S
C51 O52 1.227 . S
O52 C51 1.227 . S
N53 Co39 2.140 . S
N53 C56 1.346 . S
N53 C57 1.345 . S
C54 C55 1.387 . S
C54 C58 1.391 . S
C55 C54 1.387 . S
C55 C56 1.369 . S
C55 H64 0.929 . S
C56 N53 1.346 . S
C56 C55 1.369 . S
C56 H59 0.928 . S
C57 N53 1.345 . S
C57 C58 1.371 . S
C57 H60 0.931 . S
C58 C54 1.391 . S
C58 C57 1.371 . S
C58 H65 0.930 . S
H59 C56 0.928 . S
H60 C57 0.931 . S
H61 C37 0.930 . S
H62 C34 0.930 . S
H63 C43 0.930 . S
H64 C55 0.929 . S
H65 C58 0.930 . S
C66 C67 1.351 1_554 S
C66 N69 1.368 . S
C66 H71 0.931 . S
C67 C66 1.351 1_556 S
C67 N68 1.373 . S
C67 H95 0.930 . S
N68 C67 1.373 . S
N68 C70 1.340 1_556 S
N69 C66 1.368 . S
N69 C70 1.321 . S
N69 Co72 2.135 . S
C70 N68 1.340 1_554 S
C70 N69 1.321 . S
C70 H94 0.930 . S
H71 C66 0.931 . S
Co72 N69 2.135 . S
Co72 N75 2.121 . S
Co72 O80 2.055 1_655 S
Co72 O83 2.039 . S
Co72 N86 2.140 . S
C73 O74 1.227 . S
C73 O83 1.265 . S
O74 C73 1.227 . S
N75 Co72 2.121 . S
N75 C77 1.375 . S
N75 C78 1.313 . S
C76 C77 1.338 . S
C76 N79 1.377 . S
C76 H96 0.930 . S
C77 N75 1.375 . S
C77 C76 1.338 . S
C77 H81 0.931 . S
C78 N75 1.313 . S
C78 N79 1.344 . S
C78 H82 0.930 . S
N79 C76 1.377 . S
N79 C78 1.344 . S
O80 Co72 2.055 1_455 S
O80 C84 1.253 . S
H81 C77 0.931 . S
H82 C78 0.930 . S
O83 Co72 2.039 . S
O83 C73 1.265 . S
C84 O80 1.253 . S
C84 O85 1.227 1_455 S
O85 C84 1.227 1_655 S
N86 Co72 2.140 . S
N86 C89 1.346 . S
N86 C90 1.345 . S
C87 C88 1.387 . S
C87 C91 1.391 . S
C88 C87 1.387 . S
C88 C89 1.369 . S
C88 H97 0.929 . S
C89 N86 1.346 . S
C89 C88 1.369 . S
C89 H92 0.928 . S
C90 N86 1.345 . S
C90 C91 1.371 . S
C90 H93 0.931 . S
C91 C87 1.391 . S
C91 C90 1.371 . S
C91 H98 0.930 . S
H92 C89 0.928 . S
H93 C90 0.931 . S
H94 C70 0.930 . S
H95 C67 0.930 . S
H96 C76 0.930 . S
H97 C88 0.929 . S
H98 C91 0.930 . S
C99 C100 1.351 . S
C99 N102 1.368 . S
C99 H104 0.931 . S
C100 C99 1.351 . S
C100 N101 1.373 . S
C100 H128 0.930 . S
N101 C100 1.373 . S
N101 C103 1.340 . S
N102 C99 1.368 . S
N102 C103 1.321 . S
N102 Co105 2.135 . S
C103 N101 1.340 . S
C103 N102 1.321 . S
C103 H127 0.930 . S
H104 C99 0.931 . S
Co105 N102 2.135 . S
Co105 N108 2.121 1_556 S
Co105 O113 2.055 1_565 S
Co105 O116 2.039 . S
Co105 N119 2.140 . S
C106 O107 1.227 . S
C106 O116 1.265 . S
O107 C106 1.227 . S
N108 Co105 2.121 1_554 S
N108 C110 1.375 . S
N108 C111 1.313 . S
C109 C110 1.338 . S
C109 N112 1.377 . S
C109 H129 0.930 . S
C110 N108 1.375 . S
C110 C109 1.338 . S
C110 H114 0.931 . S
C111 N108 1.313 . S
C111 N112 1.344 . S
C111 H115 0.930 . S
N112 C109 1.377 . S
N112 C111 1.344 . S
O113 Co105 2.055 1_545 S
O113 C117 1.253 . S
H114 C110 0.931 . S
H115 C111 0.930 . S
O116 Co105 2.039 . S
O116 C106 1.265 . S
C117 O113 1.253 . S
C117 O118 1.227 1_545 S
O118 C117 1.227 1_565 S
N119 Co105 2.140 . S
N119 C122 1.346 . S
N119 C123 1.345 . S
C120 C121 1.387 . S
C120 C124 1.391 . S
C121 C120 1.387 . S
C121 C122 1.369 . S
C121 H130 0.929 . S
C122 N119 1.346 . S
C122 C121 1.369 . S
C122 H125 0.928 . S
C123 N119 1.345 . S
C123 C124 1.371 . S
C123 H126 0.931 . S
C124 C120 1.391 . S
C124 C123 1.371 . S
C124 H131 0.930 . S
H125 C122 0.928 . S
H126 C123 0.931 . S
H127 C103 0.930 . S
H128 C100 0.930 . S
H129 C109 0.930 . S
H130 C121 0.929 . S
H131 C124 0.930 . S
C132 C133 1.351 . S
C132 N135 1.368 . S
C132 H137 0.931 . S
C133 C132 1.351 . S
C133 N134 1.373 . S
C133 H161 0.930 . S
N134 C133 1.373 . S
N134 C136 1.340 . S
N135 C132 1.368 . S
N135 C136 1.321 . S
N135 Co138 2.135 . S
C136 N134 1.340 . S
C136 N135 1.321 . S
C136 H160 0.930 . S
H137 C132 0.931 . S
Co138 N135 2.135 . S
Co138 N141 2.121 1_554 S
Co138 O146 2.055 . S
Co138 O149 2.039 . S
Co138 N152 2.140 . S
C139 O140 1.227 . S
C139 O149 1.265 . S
O140 C139 1.227 . S
N141 Co138 2.121 1_556 S
N141 C143 1.375 . S
N141 C144 1.313 . S
C142 C143 1.338 . S
C142 N145 1.377 . S
C142 H162 0.930 . S
C143 N141 1.375 . S
C143 C142 1.338 . S
C143 H147 0.931 . S
C144 N141 1.313 . S
C144 N145 1.344 . S
C144 H148 0.930 . S
N145 C142 1.377 . S
N145 C144 1.344 . S
O146 Co138 2.055 . S
O146 C150 1.253 . S
H147 C143 0.931 . S
H148 C144 0.930 . S
O149 Co138 2.039 . S
O149 C139 1.265 . S
C150 O146 1.253 . S
C150 O151 1.227 . S
O151 C150 1.227 . S
N152 Co138 2.140 . S
N152 C155 1.346 . S
N152 C156 1.345 . S
C153 C154 1.387 . S
C153 C157 1.391 . S
C154 C153 1.387 . S
C154 C155 1.369 . S
C154 H163 0.929 . S
C155 N152 1.346 . S
C155 C154 1.369 . S
C155 H158 0.928 . S
C156 N152 1.345 . S
C156 C157 1.371 . S
C156 H159 0.931 . S
C157 C153 1.391 . S
C157 C156 1.371 . S
C157 H164 0.930 . S
H158 C155 0.928 . S
H159 C156 0.931 . S
H160 C136 0.930 . S
H161 C133 0.930 . S
H162 C142 0.930 . S
H163 C154 0.929 . S
H164 C157 0.930 . S
C165 C166 1.351 1_556 S
C165 N168 1.368 . S
C165 H170 0.931 . S
C166 C165 1.351 1_554 S
C166 N167 1.373 . S
C166 H194 0.930 . S
N167 C166 1.373 . S
N167 C169 1.340 1_554 S
N168 C165 1.368 . S
N168 C169 1.321 . S
N168 Co171 2.135 . S
C169 N167 1.340 1_556 S
C169 N168 1.321 . S
C169 H193 0.930 . S
H170 C165 0.931 . S
Co171 N168 2.135 . S
Co171 N174 2.121 . S
Co171 O179 2.055 . S
Co171 O182 2.039 . S
Co171 N185 2.140 . S
C172 O173 1.227 . S
C172 O182 1.265 . S
O173 C172 1.227 . S
N174 Co171 2.121 . S
N174 C176 1.375 . S
N174 C177 1.313 . S
C175 C176 1.338 . S
C175 N178 1.377 . S
C175 H195 0.930 . S
C176 N174 1.375 . S
C176 C175 1.338 . S
C176 H180 0.931 . S
C177 N174 1.313 . S
C177 N178 1.344 . S
C177 H181 0.930 . S
N178 C175 1.377 . S
N178 C177 1.344 . S
O179 Co171 2.055 . S
O179 C183 1.253 . S
H180 C176 0.931 . S
H181 C177 0.930 . S
O182 Co171 2.039 . S
O182 C172 1.265 . S
C183 O179 1.253 . S
C183 O184 1.227 . S
O184 C183 1.227 . S
N185 Co171 2.140 . S
N185 C188 1.346 . S
N185 C189 1.345 . S
C186 C187 1.387 . S
C186 C190 1.391 . S
C187 C186 1.387 . S
C187 C188 1.369 . S
C187 H196 0.929 . S
C188 N185 1.346 . S
C188 C187 1.369 . S
C188 H191 0.928 . S
C189 N185 1.345 . S
C189 C190 1.371 . S
C189 H192 0.931 . S
C190 C186 1.391 . S
C190 C189 1.371 . S
C190 H197 0.930 . S
H191 C188 0.928 . S
H192 C189 0.931 . S
H193 C169 0.930 . S
H194 C166 0.930 . S
H195 C175 0.930 . S
H196 C187 0.929 . S
H197 C190 0.930 . S
C198 C199 1.351 . S
C198 N201 1.368 . S
C198 H203 0.931 . S
C199 C198 1.351 . S
C199 N200 1.373 . S
C199 H227 0.930 . S
N200 C199 1.373 . S
N200 C202 1.340 . S
N201 C198 1.368 . S
N201 C202 1.321 . S
N201 Co204 2.135 . S
C202 N200 1.340 . S
C202 N201 1.321 . S
C202 H226 0.930 . S
H203 C198 0.931 . S
Co204 N201 2.135 . S
Co204 N207 2.121 1_554 S
Co204 O212 2.055 1_655 S
Co204 O215 2.039 . S
Co204 N218 2.140 . S
C205 O206 1.227 . S
C205 O215 1.265 . S
O206 C205 1.227 . S
N207 Co204 2.121 1_556 S
N207 C209 1.375 . S
N207 C210 1.313 . S
C208 C209 1.338 . S
C208 N211 1.377 . S
C208 H228 0.930 . S
C209 N207 1.375 . S
C209 C208 1.338 . S
C209 H213 0.931 . S
C210 N207 1.313 . S
C210 N211 1.344 . S
C210 H214 0.930 . S
N211 C208 1.377 . S
N211 C210 1.344 . S
O212 Co204 2.055 1_455 S
O212 C216 1.253 . S
H213 C209 0.931 . S
H214 C210 0.930 . S
O215 Co204 2.039 . S
O215 C205 1.265 . S
C216 O212 1.253 . S
C216 O217 1.227 1_455 S
O217 C216 1.227 1_655 S
N218 Co204 2.140 . S
N218 C221 1.346 . S
N218 C222 1.345 . S
C219 C220 1.387 . S
C219 C223 1.391 . S
C220 C219 1.387 . S
C220 C221 1.369 . S
C220 H229 0.929 . S
C221 N218 1.346 . S
C221 C220 1.369 . S
C221 H224 0.928 . S
C222 N218 1.345 . S
C222 C223 1.371 . S
C222 H225 0.931 . S
C223 C219 1.391 . S
C223 C222 1.371 . S
C223 H230 0.930 . S
H224 C221 0.928 . S
H225 C222 0.931 . S
H226 C202 0.930 . S
H227 C199 0.930 . S
H228 C208 0.930 . S
H229 C220 0.929 . S
H230 C223 0.930 . S
C231 C232 1.351 1_556 S
C231 N234 1.368 . S
C231 H236 0.931 . S
C232 C231 1.351 1_554 S
C232 N233 1.373 . S
C232 H260 0.930 . S
N233 C232 1.373 . S
N233 C235 1.340 1_554 S
N234 C231 1.368 . S
N234 C235 1.321 . S
N234 Co237 2.135 . S
C235 N233 1.340 1_556 S
C235 N234 1.321 . S
C235 H259 0.930 . S
H236 C231 0.931 . S
Co237 N234 2.135 . S
Co237 N240 2.121 . S
Co237 O245 2.055 1_565 S
Co237 O248 2.039 . S
Co237 N251 2.140 . S
C238 O239 1.227 . S
C238 O248 1.265 . S
O239 C238 1.227 . S
N240 Co237 2.121 . S
N240 C242 1.375 . S
N240 C243 1.313 . S
C241 C242 1.338 . S
C241 N244 1.377 . S
C241 H261 0.930 . S
C242 N240 1.375 . S
C242 C241 1.338 . S
C242 H246 0.931 . S
C243 N240 1.313 . S
C243 N244 1.344 . S
C243 H247 0.930 . S
N244 C241 1.377 . S
N244 C243 1.344 . S
O245 Co237 2.055 1_545 S
O245 C249 1.253 . S
H246 C242 0.931 . S
H247 C243 0.930 . S
O248 Co237 2.039 . S
O248 C238 1.265 . S
C249 O245 1.253 . S
C249 O250 1.227 1_545 S
O250 C249 1.227 1_565 S
N251 Co237 2.140 . S
N251 C254 1.346 . S
N251 C255 1.345 . S
C252 C253 1.387 . S
C252 C256 1.391 . S
C253 C252 1.387 . S
C253 C254 1.369 . S
C253 H262 0.929 . S
C254 N251 1.346 . S
C254 C253 1.369 . S
C254 H257 0.928 . S
C255 N251 1.345 . S
C255 C256 1.371 . S
C255 H258 0.931 . S
C256 C252 1.391 . S
C256 C255 1.371 . S
C256 H263 0.930 . S
H257 C254 0.928 . S
H258 C255 0.931 . S
H259 C235 0.930 . S
H260 C232 0.930 . S
H261 C241 0.930 . S
H262 C253 0.929 . S
H263 C256 0.930 . S
C249 C18 1.836 . S
C150 C51 1.836 1_554 S
C84 C183 1.836 . S
C216 C117 1.836 1_554 S
C7 C139 1.548 . S
C172 C40 1.548 . S
C205 C73 1.548 . S
C238 C106 1.548 . S
C252 C54 1.642 . S
C87 C153 1.642 . S
C120 C186 1.642 . S
C219 C21 1.642 . S
N13 N2 1.820 . S
N35 N46 1.820 . S
N68 N79 1.820 . S
N112 N101 1.820 . S
N134 N145 1.820 . S
N167 N178 1.820 . S
N200 N211 1.820 . S
N244 N233 1.820 . S
