# Generated by pormake.
# Topology pcu, (6)-cn, num edge types: 1
# Building blocks:
#     Node 0, Type 0, BuildingBlock: NUHQIS_clean_sbu_0, # of connection points: 6
#     Edge 1, Type (0, 0), BuildingBlock: XUDNAN_clean_linker_2, # of connection points: 2
#     Edge 2, Type (0, 0), BuildingBlock: XUDNAN_clean_linker_2, # of connection points: 2
#     Edge 3, Type (0, 0), BuildingBlock: XUDNAN_clean_linker_2, # of connection points: 2
# Relax obj value: 0.000
# Max RMSD: 0.000
# Mean RMSD: 0.000
data_MOF--net-pcu--node1-NUHQIS_clean_sbu_0--edge1-XUDNAN_clean_linker_2
_symmetry_space_group_name_H-M    P1
_symmetry_Int_Tables_number       1
_symmetry_cell_setting            triclinic
loop_
_symmetry_equiv_pos_as_xyz
'x, y, z'
_cell_length_a     25.401808
_cell_length_b     15.113757
_cell_length_c     15.140737
_cell_angle_alpha  92.684197
_cell_angle_beta   97.348495
_cell_angle_gamma 122.49982
loop_
_atom_site_label
_atom_site_type_symbol
_atom_site_fract_x
_atom_site_fract_y
_atom_site_fract_z
_atom_type_partial_charge
Tb0 Tb 0.96108 0.9493 0.96159 0.0
Eu1 Eu 0.11976 0.07778 0.00458 0.0
C2 C 0.03771 0.0059 0.80766 0.0
C3 C 0.0314 0.82939 0.98394 0.0
C4 C 0.79056 0.8682 0.93847 0.0
C5 C 0.67771 0.79565 0.92158 0.0
C6 C 0.72742 0.78491 0.90765 0.0
C7 C 0.80361 0.9635 0.98272 0.0
C8 C 0.75367 0.97448 -0.00332 0.0
C9 C 0.69002 0.8901 0.96697 0.0
C10 C 0.84143 0.853 0.92303 0.0
O11 O 0.98949 0.02008 0.10025 0.0
O12 O 0.08264 0.02739 0.13413 0.0
O13 O 0.09953 0.20077 0.03632 0.0
O14 O 0.99682 0.11674 0.95727 0.0
C15 C 0.03371 0.02387 0.15866 0.0
O16 O 0.20707 0.12519 0.09617 0.0
O17 O 0.21183 0.16683 0.96177 0.0
O18 O 0.08831 0.08566 0.86019 0.0
O19 O 0.99263 0.92792 0.84121 0.0
O20 O 0.98372 0.83446 0.00212 0.0
O21 O 0.08045 0.90868 0.958 0.0
C22 C 0.04974 0.20175 0.00174 0.0
O23 O 0.88 0.91496 0.87235 0.0
O24 O 0.87159 0.84096 0.9929 0.0
C25 C 0.28496 0.12649 0.02627 0.0
C26 C 0.36528 0.05168 0.01662 0.0
C27 C 0.39031 0.15692 0.05334 0.0
C28 C 0.35044 0.19383 0.05821 0.0
C29 C 0.25982 0.0221 0.98822 0.0
C30 C 0.29955 0.98511 0.98328 0.0
C31 C 0.24295 0.16421 0.03594 0.0
H32 H 0.62946 0.72984 0.89618 0.0
H33 H 0.71646 0.71111 0.87273 0.0
H34 H 0.85222 0.02887 0.0068 0.0
H35 H 0.76483 0.04806 0.03222 0.0
H36 H 0.44045 0.21001 0.08057 0.0
H37 H 0.37064 0.27455 0.08822 0.0
H38 H 0.20934 0.96887 0.96315 0.0
H39 H 0.27867 0.90418 0.95331 0.0
H40 H 0.12404 0.08768 0.31296 0.0
H41 H 0.92242 0.9439 0.21779 0.0
H42 H 0.90365 0.92731 0.37289 0.0
H43 H 0.10882 0.9304 0.49102 0.0
H44 H 0.17502 0.03776 0.56952 0.0
H45 H 0.17394 0.03921 0.4504 0.0
H46 H 0.18851 0.22288 0.46492 0.0
H47 H 0.18966 0.222 0.58413 0.0
H48 H 0.13342 0.23974 0.51556 0.0
H49 H 0.90418 0.91682 0.53369 0.0
H50 H 0.92515 0.9239 0.69774 0.0
H51 H 0.12707 0.08446 0.69629 0.0
C52 C 0.07607 0.05284 0.32508 0.0
C53 C 1.02471 0.01711 0.25319 0.0
C54 C 0.96262 0.97255 0.27163 0.0
C55 C 0.95133 0.96238 0.35956 0.0
C56 C 1.00267 -0.00174 0.42877 0.0
C57 C 0.06393 0.04358 0.41327 0.0
C58 C 0.11027 0.07696 0.5012 0.0
C59 C 0.14399 0.01751 0.50311 0.0
C60 C 0.1583 0.19757 0.51739 0.0
C61 C 0.06512 0.04192 0.56786 0.0
C62 C 1.0033 -0.00393 0.52389 0.0
C63 C 0.95239 0.95334 0.56922 0.0
C64 C 0.9648 0.95737 0.66233 0.0
C65 C 1.02767 0.00499 0.70949 0.0
C66 C 0.07865 0.04872 0.66177 0.0
H67 H 0.48704 0.15255 0.97948 0.0
H68 H 0.33825 0.85697 0.05274 0.0
H69 H 0.40588 0.78637 0.05079 0.0
H70 H 0.54025 0.03916 0.82977 0.0
H71 H 0.62312 0.14277 0.86304 0.0
H72 H 0.56344 0.17128 0.87114 0.0
H73 H 0.61029 0.24322 0.04005 0.0
H74 H 0.67008 0.21472 0.03248 0.0
H75 H 0.61906 0.1603 0.11425 0.0
H76 H 0.48866 0.74673 0.04056 0.0
H77 H 0.58079 0.73902 0.01972 0.0
H78 H 0.67714 0.05988 0.95317 0.0
C79 C 0.46886 0.07332 -0.00407 0.0
C80 C 0.40694 0.01021 0.01578 0.0
C81 C 0.3849 0.90639 0.03579 0.0
C82 C 0.42321 0.86578 0.0356 0.0
C83 C 0.48372 0.92986 0.01559 0.0
C84 C 0.50657 0.03139 -0.0039 0.0
C85 C 0.5732 0.0829 0.97564 0.0
C86 C 0.57508 0.11062 0.87916 0.0
C87 C 0.62098 0.18111 0.04473 0.0
C88 C 0.58394 -0.00593 0.98603 0.0
C89 C 0.53173 0.90679 0.00947 0.0
C90 C 0.52978 0.81449 0.02201 0.0
C91 C 0.58228 0.81071 0.00946 0.0
C92 C 0.6362 0.89846 0.98411 0.0
C93 C 0.63701 -0.00825 0.97324 0.0
H94 H 0.94693 0.61451 0.9306 0.0
H95 H 0.13139 0.85066 0.08935 0.0
H96 H 0.15154 0.71206 0.1203 0.0
H97 H 0.91204 0.39364 0.06538 0.0
H98 H 0.87637 0.29527 0.96703 0.0
H99 H 0.8717 0.41016 0.967 0.0
H100 H 0.92243 0.45451 0.82412 0.0
H101 H 0.92771 0.34041 0.82408 0.0
H102 H 0.99799 0.46982 0.82524 0.0
H103 H 0.15705 0.55631 0.12347 0.0
H104 H 0.14798 0.3868 0.09991 0.0
H105 H 0.96089 0.24596 0.9354 0.0
C106 C 0.99057 0.63573 0.97381 0.0
C107 C 0.03749 0.74234 0.00855 0.0
C108 C 0.09498 0.76888 0.06267 0.0
C109 C 0.10674 0.69089 0.08084 0.0
C110 C 0.06057 0.58676 0.04395 0.0
C111 C 1.00354 0.55835 0.99176 0.0
C112 C 0.96497 0.4415 0.95424 0.0
C113 C 0.90257 0.38161 0.99061 0.0
C114 C 0.95257 0.42569 0.85079 0.0
C115 C 1.01005 0.41013 0.99196 0.0
C116 C 0.06445 0.49528 0.04424 0.0
C117 C 0.11444 0.48844 0.0835 0.0
C118 C 0.10885 0.39165 0.0692 0.0
C119 C 0.05374 0.30276 0.01562 0.0
C120 C 1.00352 0.31223 0.97693 0.0
loop_
_geom_bond_atom_site_label_1
_geom_bond_atom_site_label_2
_geom_bond_distance
_geom_bond_site_symmetry_2
_ccdc_geom_bond_type
Tb0 C10 2.825 . S
Tb0 O11 2.347 1_556 S
Tb0 O14 2.366 1_565 S
Tb0 O19 2.418 . S
Tb0 O20 2.384 . S
Tb0 O23 2.479 . S
Tb0 O24 2.471 1_556 S
Eu1 O12 2.418 . S
Eu1 O13 2.384 . S
Eu1 O16 2.479 . S
Eu1 O17 2.471 1_554 S
Eu1 O18 2.347 1_554 S
Eu1 O21 2.366 1_545 S
Eu1 C31 2.825 . S
C2 O18 1.259 1_665 S
C2 O19 1.265 . S
C3 O20 1.255 1_554 S
C3 O21 1.265 1_655 S
C4 C6 1.380 . S
C4 C7 1.374 1_566 S
C4 C10 1.507 . S
C5 C6 1.384 . S
C5 C9 1.387 . S
C5 H32 0.930 . S
C6 C4 1.380 . S
C6 C5 1.384 . S
C6 H33 0.931 . S
C7 C4 1.374 1_544 S
C7 C8 1.390 . S
C7 H34 0.930 . S
C8 C7 1.390 . S
C8 C9 1.391 1_544 S
C8 H35 0.930 . S
C9 C5 1.387 . S
C9 C8 1.391 1_566 S
C10 Tb0 2.825 . S
C10 C4 1.507 . S
C10 O23 1.238 . S
C10 O24 1.247 1_556 S
O11 Tb0 2.347 1_554 S
O11 C15 1.259 1_665 S
O12 Eu1 2.418 . S
O12 C15 1.265 . S
O13 Eu1 2.384 . S
O13 C22 1.255 . S
O14 Tb0 2.366 1_545 S
O14 C22 1.265 1_656 S
C15 O11 1.259 1_445 S
C15 O12 1.265 . S
O16 Eu1 2.479 . S
O16 C31 1.238 . S
O17 Eu1 2.471 1_556 S
O17 C31 1.247 1_556 S
O18 Eu1 2.347 1_556 S
O18 C2 1.259 1_445 S
O19 Tb0 2.418 . S
O19 C2 1.265 . S
O20 Tb0 2.384 . S
O20 C3 1.255 1_556 S
O21 Eu1 2.366 1_565 S
O21 C3 1.265 1_455 S
C22 O13 1.255 . S
C22 O14 1.265 1_454 S
O23 Tb0 2.479 . S
O23 C10 1.238 . S
O24 Tb0 2.471 1_554 S
O24 C10 1.247 1_554 S
C25 C28 1.380 . S
C25 C29 1.374 1_544 S
C25 C31 1.507 . S
C26 C27 1.387 . S
C26 C30 1.391 1_544 S
C27 C26 1.387 . S
C27 C28 1.384 . S
C27 H36 0.930 . S
C28 C25 1.380 . S
C28 C27 1.384 . S
C28 H37 0.931 . S
C29 C25 1.374 1_566 S
C29 C30 1.390 . S
C29 H38 0.930 . S
C30 C26 1.391 1_566 S
C30 C29 1.390 . S
C30 H39 0.930 . S
C31 Eu1 2.825 . S
C31 O16 1.238 . S
C31 O17 1.247 1_554 S
C31 C25 1.507 . S
H32 C5 0.930 . S
H33 C6 0.931 . S
H34 C7 0.930 . S
H35 C8 0.930 . S
H36 C27 0.930 . S
H37 C28 0.931 . S
H38 C29 0.930 . S
H39 C30 0.930 . S
H40 C52 0.930 . S
H41 C54 0.930 . S
H42 C55 0.930 . S
H43 C59 0.959 . S
H44 C59 0.959 . S
H45 C59 0.961 . S
H46 C60 0.960 . S
H47 C60 0.961 . S
H48 C60 0.959 . S
H49 C63 0.929 . S
H50 C64 0.931 . S
H51 C66 0.930 . S
C52 H40 0.930 . S
C52 C53 1.399 1_445 S
C52 C57 1.399 . S
C53 C52 1.399 1_665 S
C53 C54 1.376 . S
C54 H41 0.930 . S
C54 C53 1.376 . S
C54 C55 1.388 . S
C55 H42 0.930 . S
C55 C54 1.388 . S
C55 C56 1.390 . S
C56 C55 1.390 . S
C56 C57 1.394 1_665 S
C56 C62 1.465 . S
C57 C52 1.399 . S
C57 C56 1.394 1_445 S
C57 C58 1.516 . S
C58 C57 1.516 . S
C58 C59 1.502 . S
C58 C60 1.561 . S
C58 C61 1.526 . S
C59 H43 0.959 . S
C59 H44 0.959 . S
C59 H45 0.961 . S
C59 C58 1.502 . S
C60 H46 0.960 . S
C60 H47 0.961 . S
C60 H48 0.959 . S
C60 C58 1.561 . S
C61 C58 1.526 . S
C61 C62 1.396 1_445 S
C61 C66 1.390 . S
C62 C56 1.465 . S
C62 C61 1.396 1_665 S
C62 C63 1.399 . S
C63 H49 0.929 . S
C63 C62 1.399 . S
C63 C64 1.385 . S
C64 H50 0.931 . S
C64 C63 1.385 . S
C64 C65 1.389 . S
C65 C64 1.389 . S
C65 C66 1.387 1_665 S
C66 H51 0.930 . S
C66 C61 1.390 . S
C66 C65 1.387 1_445 S
H67 C79 0.930 . S
H68 C81 0.930 . S
H69 C82 0.930 . S
H70 C86 0.959 . S
H71 C86 0.959 . S
H72 C86 0.961 . S
H73 C87 0.960 . S
H74 C87 0.961 . S
H75 C87 0.959 . S
H76 C90 0.929 . S
H77 C91 0.931 . S
H78 C93 0.930 . S
C79 H67 0.930 . S
C79 C80 1.399 1_546 S
C79 C84 1.399 1_556 S
C80 C79 1.399 1_564 S
C80 C81 1.376 . S
C81 H68 0.930 . S
C81 C80 1.376 . S
C81 C82 1.388 . S
C82 H69 0.930 . S
C82 C81 1.388 . S
C82 C83 1.390 . S
C83 C82 1.390 . S
C83 C84 1.394 1_565 S
C83 C89 1.465 . S
C84 C79 1.399 1_554 S
C84 C83 1.394 1_545 S
C84 C85 1.516 1_554 S
C85 C84 1.516 1_556 S
C85 C86 1.502 . S
C85 C87 1.561 1_556 S
C85 C88 1.526 1_556 S
C86 H70 0.959 . S
C86 H71 0.959 . S
C86 H72 0.961 . S
C86 C85 1.502 . S
C87 H73 0.960 . S
C87 H74 0.961 . S
C87 H75 0.959 . S
C87 C85 1.561 1_554 S
C88 C85 1.526 1_554 S
C88 C89 1.396 1_545 S
C88 C93 1.390 1_554 S
C89 C83 1.465 . S
C89 C88 1.396 1_565 S
C89 C90 1.399 . S
C90 H76 0.929 . S
C90 C89 1.399 . S
C90 C91 1.385 . S
C91 H77 0.931 . S
C91 C90 1.385 . S
C91 C92 1.389 . S
C92 C91 1.389 . S
C92 C93 1.387 1_564 S
C93 H78 0.930 . S
C93 C88 1.390 1_556 S
C93 C92 1.387 1_546 S
H94 C106 0.930 . S
H95 C108 0.930 . S
H96 C109 0.930 . S
H97 C113 0.959 . S
H98 C113 0.959 . S
H99 C113 0.961 . S
H100 C114 0.960 . S
H101 C114 0.961 . S
H102 C114 0.959 . S
H103 C117 0.929 . S
H104 C118 0.931 . S
H105 C120 0.930 . S
C106 H94 0.930 . S
C106 C107 1.399 1_656 S
C106 C111 1.399 . S
C107 C106 1.399 1_454 S
C107 C108 1.376 . S
C108 H95 0.930 . S
C108 C107 1.376 . S
C108 C109 1.388 . S
C109 H96 0.930 . S
C109 C108 1.388 . S
C109 C110 1.390 . S
C110 C109 1.390 . S
C110 C111 1.394 1_454 S
C110 C116 1.465 . S
C111 C106 1.399 . S
C111 C110 1.394 1_656 S
C111 C112 1.516 . S
C112 C111 1.516 . S
C112 C113 1.502 . S
C112 C114 1.561 1_655 S
C112 C115 1.526 . S
C113 H97 0.959 . S
C113 H98 0.959 . S
C113 H99 0.961 . S
C113 C112 1.502 . S
C114 H100 0.960 . S
C114 H101 0.961 . S
C114 H102 0.959 . S
C114 C112 1.561 1_455 S
C115 C112 1.526 . S
C115 C116 1.396 1_656 S
C115 C120 1.390 . S
C116 C110 1.465 . S
C116 C115 1.396 1_454 S
C116 C117 1.399 . S
C117 H103 0.929 . S
C117 C116 1.399 . S
C117 C118 1.385 . S
C118 H104 0.931 . S
C118 C117 1.385 . S
C118 C119 1.389 . S
C119 C118 1.389 . S
C119 C120 1.387 1_454 S
C120 H105 0.930 . S
C120 C115 1.390 . S
C120 C119 1.387 1_656 S
C53 C15 1.492 1_665 S
C65 C2 1.435 . S
C80 C26 1.494 1_565 S
C92 C9 1.477 1_554 S
C107 C3 1.494 1_455 S
C119 C22 1.492 . S
