# Generated by pormake.
# Topology bcg, (8)-cn, num edge types: 1
# Building blocks:
#     Node 0, Type 0, BuildingBlock: AJUNOK_clean_sbu_0, # of connection points: 8
#     Node 1, Type 0, BuildingBlock: AJUNOK_clean_sbu_0, # of connection points: 8
#     Node 2, Type 0, BuildingBlock: AJUNOK_clean_sbu_0, # of connection points: 8
#     Node 3, Type 0, BuildingBlock: AJUNOK_clean_sbu_0, # of connection points: 8
#     Edge 4, Type (0, 0), None
#     Edge 5, Type (0, 0), None
#     Edge 6, Type (0, 0), None
#     Edge 7, Type (0, 0), None
#     Edge 8, Type (0, 0), None
#     Edge 9, Type (0, 0), None
#     Edge 10, Type (0, 0), None
#     Edge 11, Type (0, 0), None
#     Edge 12, Type (0, 0), None
#     Edge 13, Type (0, 0), None
#     Edge 14, Type (0, 0), None
#     Edge 15, Type (0, 0), None
#     Edge 16, Type (0, 0), None
#     Edge 17, Type (0, 0), None
#     Edge 18, Type (0, 0), None
#     Edge 19, Type (0, 0), None
# Relax obj value: 0.141
# Max RMSD: 0.262
# Mean RMSD: 0.262
data_MOF--net-bcg--node1-AJUNOK_clean_sbu_0--edge1-none
_symmetry_space_group_name_H-M    P1
_symmetry_Int_Tables_number       1
_symmetry_cell_setting            triclinic
loop_
_symmetry_equiv_pos_as_xyz
'x, y, z'
_cell_length_a     8.5748259
_cell_length_b     12.705899
_cell_length_c     23.232821
_cell_angle_alpha  89.999106
_cell_angle_beta   89.998458
_cell_angle_gamma 90.123049
loop_
_atom_site_label
_atom_site_type_symbol
_atom_site_fract_x
_atom_site_fract_y
_atom_site_fract_z
_atom_type_partial_charge
Cd0 Cd 0.09669 0.20468 0.00618 0.0
Cd1 Cd 0.42588 0.05897 0.00626 0.0
C2 C 0.15517 0.25518 0.14227 0.0
N3 N 0.0996 0.17714 0.10785 0.0
C4 C 0.98208 0.09179 0.18951 0.0
C5 C 0.03318 0.17302 0.22528 0.0
C6 C 0.12685 0.25292 0.20159 0.0
C7 C 0.01678 0.09511 0.13092 0.0
H8 H 0.21823 0.32055 0.12352 0.0
H9 H 0.96685 0.0352 0.10395 0.0
C10 C 0.07522 -0.07639 0.00647 0.0
C11 C 0.38516 -0.00519 0.87252 0.0
C12 C 0.41694 -0.00543 0.81349 0.0
C13 C 0.48524 0.08298 0.787 0.0
C14 C 0.51291 0.17202 0.82119 0.0
C15 C 0.47742 0.16977 0.87973 0.0
N16 N 0.41598 0.08161 0.90473 0.0
H17 H 0.34202 -0.07586 0.8931 0.0
H18 H 0.50942 0.23702 0.90509 0.0
C19 C 0.36734 0.0085 0.14235 0.0
N20 N 0.42298 0.08651 0.10792 0.0
C21 C 0.54055 0.17184 0.18957 0.0
C22 C 0.48938 0.09065 0.22535 0.0
C23 C 0.39564 0.01077 0.20167 0.0
C24 C 0.50586 0.16851 0.13098 0.0
H25 H 0.30423 -0.05685 0.1236 0.0
H26 H 0.55584 0.2284 0.104 0.0
C27 C 0.44738 0.34004 0.00647 0.0
C28 C 0.80785 0.17405 0.00388 0.0
N29 N 0.10637 0.18205 0.90466 0.0
C30 C 0.13717 0.26885 0.87244 0.0
C31 C 0.10532 0.2691 0.81342 0.0
C32 C 0.03698 0.1807 0.78694 0.0
C33 C 1.00934 0.09165 0.82113 0.0
C34 C 0.04488 0.09389 0.87966 0.0
C35 C 0.71473 0.0896 0.00388 0.0
O36 O 0.03694 0.01852 0.00606 0.0
O37 O 0.22149 -0.09644 0.00712 0.0
O38 O 0.48568 0.24513 0.00612 0.0
O39 O 0.30111 0.36008 0.00703 0.0
O40 O 0.85051 0.21746 0.05055 0.0
O41 O 0.85416 0.21553 0.9572 0.0
O42 O 0.67213 0.04619 0.05057 0.0
O43 O 0.66833 0.04815 0.95722 0.0
H44 H 0.18035 0.33951 0.89301 0.0
H45 H 0.01293 0.02664 0.90504 0.0
H46 H 0.91114 0.02814 0.20634 0.0
H47 H 0.1778 0.3132 0.22811 0.0
H48 H 0.39136 -0.0753 0.78951 0.0
H49 H 0.56876 0.24158 0.80379 0.0
H50 H 0.61154 0.23547 0.20639 0.0
H51 H 0.34458 -0.04946 0.2282 0.0
H52 H 0.13088 0.33895 0.78944 0.0
H53 H 0.95346 0.02209 0.80374 0.0
Cd54 Cd 0.59677 0.70468 0.00615 0.0
Cd55 Cd 0.92587 0.55898 0.00622 0.0
C56 C 0.63719 0.76898 0.13987 0.0
N57 N 0.60665 0.68211 0.10767 0.0
C58 C 0.50991 0.59165 0.19123 0.0
C59 C 0.53729 0.68075 0.2254 0.0
C60 C 0.60534 0.76923 0.19889 0.0
C61 C 0.54543 0.59389 0.13269 0.0
H62 H 0.68014 0.83968 0.11927 0.0
H63 H 0.5137 0.52657 0.10734 0.0
C64 C 0.57519 0.42361 0.00594 0.0
C65 C 0.8675 0.50842 0.87013 0.0
C66 C 0.89584 0.51067 0.81082 0.0
C67 C 0.98941 0.59062 0.78712 0.0
C68 C 0.04041 0.67189 0.82289 0.0
C69 C 1.00569 0.66856 0.88148 0.0
N70 N 0.92296 0.5865 0.90455 0.0
H71 H 0.8045 0.44302 0.88889 0.0
H72 H 0.05558 0.7285 0.90844 0.0
C73 C 0.88567 0.49468 0.13994 0.0
N74 N 0.91618 0.58155 0.10775 0.0
C75 C 0.01304 0.672 0.19128 0.0
C76 C 0.98567 0.58289 0.22546 0.0
C77 C 0.91758 0.49442 0.19896 0.0
C78 C 0.97745 0.66976 0.13275 0.0
H79 H 0.84267 0.42398 0.11936 0.0
H80 H 1.00916 0.73708 0.10739 0.0
C81 C 0.94741 0.84005 0.00594 0.0
C82 C 0.30789 0.67404 0.00852 0.0
N83 N 0.59965 0.67716 0.90449 0.0
C84 C 0.65518 0.75522 0.87006 0.0
C85 C 0.62686 0.75295 0.81074 0.0
C86 C 0.53323 0.67302 0.78705 0.0
C87 C 0.48216 0.59179 0.82283 0.0
C88 C 0.51686 0.59513 0.88142 0.0
C89 C 0.21473 0.58961 0.00852 0.0
O90 O 0.53689 0.51852 0.00629 0.0
O91 O 0.72146 0.40357 0.00537 0.0
O92 O 0.98569 0.74514 0.00635 0.0
O93 O 0.80114 0.86009 0.00528 0.0
O94 O 0.35432 0.71548 0.05518 0.0
O95 O 0.35051 0.71745 0.96183 0.0
O96 O 0.16839 0.54815 0.0552 0.0
O97 O 0.17205 0.54621 0.96185 0.0
H98 H 0.71822 0.82059 0.88881 0.0
H99 H 0.46694 0.53521 0.9084 0.0
H100 H 0.45425 0.52202 0.20863 0.0
H101 H 0.63066 0.83916 0.22284 0.0
H102 H 0.84497 0.45035 0.7843 0.0
H103 H 0.11128 0.73557 0.80606 0.0
H104 H 0.06873 0.74162 0.20868 0.0
H105 H 0.89227 0.4245 0.22292 0.0
H106 H 0.67782 0.81322 0.78421 0.0
H107 H 0.41124 0.52813 0.80601 0.0
Cd108 Cd 0.42537 0.70437 0.50614 0.0
Cd109 Cd 0.09724 0.55927 0.50621 0.0
C110 C 0.405 0.77414 0.37356 0.0
N111 N 0.41575 0.68399 0.40472 0.0
C112 C 0.49785 0.58919 0.3206 0.0
C113 C 0.49131 0.68153 0.28756 0.0
C114 C 0.44126 0.7742 0.31494 0.0
C115 C 0.46005 0.59217 0.37898 0.0
H116 H 0.37584 0.84717 0.3949 0.0
H117 H 0.47388 0.5213 0.40357 0.0
C118 C 0.44773 0.42367 0.50661 0.0
C119 C 0.16054 0.51227 0.64278 0.0
C120 C 0.13352 0.51524 0.70217 0.0
C121 C 0.03274 0.59115 0.72542 0.0
C122 C 0.97486 0.6695 0.68923 0.0
C123 C 1.00983 0.66654 0.63065 0.0
N124 N 0.09817 0.58709 0.60792 0.0
H125 H 0.22869 0.44913 0.62439 0.0
H126 H 0.95598 0.72428 0.60333 0.0
C127 C 0.11783 0.48949 0.37364 0.0
N128 N 0.10708 0.57965 0.40479 0.0
C129 C 0.0251 0.67445 0.32066 0.0
C130 C 0.03164 0.58211 0.28763 0.0
C131 C 0.08163 0.48943 0.31501 0.0
C132 C 0.06284 0.67148 0.37904 0.0
H133 H 0.14694 0.41646 0.39499 0.0
H134 H 0.049 0.74234 0.40362 0.0
C135 C 0.07485 0.83998 0.50661 0.0
C136 C 0.71465 0.67387 0.50235 0.0
N137 N 0.42441 0.67654 0.60786 0.0
C138 C 0.36211 0.75139 0.64271 0.0
C139 C 0.38916 0.74844 0.7021 0.0
C140 C 0.48989 0.6725 0.72535 0.0
C141 C 0.54769 0.59411 0.68917 0.0
C142 C 0.51271 0.59707 0.63059 0.0
C143 C 0.80795 0.58979 0.50236 0.0
O144 O 0.4869 0.5185 0.50596 0.0
O145 O 0.30123 0.40384 0.50747 0.0
O146 O 0.03567 0.74515 0.50603 0.0
O147 O 0.22136 0.8598 0.50738 0.0
O148 O 0.66668 0.71422 0.45569 0.0
O149 O 0.67283 0.71771 0.54899 0.0
O150 O 0.85602 0.54946 0.45571 0.0
O151 O 0.8497 0.54595 0.54901 0.0
H152 H 0.29401 0.81456 0.62432 0.0
H153 H 0.5665 0.53931 0.60328 0.0
H154 H 0.5385 0.51574 0.30243 0.0
H155 H 0.43357 0.84695 0.29199 0.0
H156 H 0.19006 0.45826 0.72917 0.0
H157 H 0.89891 0.73052 0.70576 0.0
H158 H 0.9845 0.74791 0.30248 0.0
H159 H 0.08931 0.41667 0.29207 0.0
H160 H 0.33273 0.80547 0.7291 0.0
H161 H 0.62359 0.53306 0.70571 0.0
Cd162 Cd 0.92534 0.20437 0.50619 0.0
Cd163 Cd 0.59722 0.05929 0.50626 0.0
C164 C 0.86207 0.25139 0.36962 0.0
N165 N 0.92442 0.17657 0.40448 0.0
C166 C 0.04772 0.09414 0.32317 0.0
C167 C 0.98986 0.1725 0.28698 0.0
C168 C 0.88909 0.24842 0.31023 0.0
C169 C 0.01276 0.09711 0.38176 0.0
H170 H 0.79393 0.31454 0.38802 0.0
H171 H 0.06658 0.03936 0.40907 0.0
C172 C 0.94774 -0.07632 0.50579 0.0
C173 C 0.61743 -0.01047 0.63884 0.0
C174 C 0.58113 -0.01052 0.69746 0.0
C175 C 0.5312 0.08218 0.72483 0.0
C176 C 0.52482 0.17453 0.6918 0.0
C177 C 0.56264 0.17154 0.63343 0.0
N178 N 0.60681 0.07969 0.60768 0.0
H179 H 0.6465 -0.08352 0.6175 0.0
H180 H 0.54892 0.24242 0.60884 0.0
C181 C 0.66046 0.01226 0.36969 0.0
N182 N 0.59817 0.08711 0.40455 0.0
C183 C 0.47491 0.16955 0.32323 0.0
C184 C 0.5327 0.09116 0.28705 0.0
C185 C 0.63341 0.01521 0.3103 0.0
C186 C 0.50989 0.16659 0.38182 0.0
H187 H 0.72856 -0.05091 0.38809 0.0
H188 H 0.45611 0.22436 0.40912 0.0
C189 C 0.57485 0.33998 0.50579 0.0
C190 C 0.21463 0.17386 0.51004 0.0
N191 N 0.91553 0.18399 0.60761 0.0
C192 C 0.90492 0.27415 0.63876 0.0
C193 C 0.94116 0.2742 0.69739 0.0
C194 C 0.99102 0.18149 0.72477 0.0
C195 C 0.9974 0.08914 0.69174 0.0
C196 C 0.95965 0.09213 0.63337 0.0
C197 C 0.30794 0.08979 0.51005 0.0
O198 O 0.98693 0.0185 0.50638 0.0
O199 O 0.80123 -0.09614 0.50502 0.0
O200 O 0.53568 0.24516 0.50644 0.0
O201 O 0.72136 0.35981 0.50494 0.0
O202 O 0.17288 0.2177 0.46339 0.0
O203 O 0.16656 0.21419 0.5567 0.0
O204 O 0.34976 0.04595 0.46341 0.0
O205 O 0.35592 0.04944 0.55671 0.0
H206 H 0.8759 0.3472 0.61741 0.0
H207 H 0.97336 0.02125 0.60878 0.0
H208 H 0.12365 0.03311 0.30664 0.0
H209 H 0.83256 0.30541 0.28324 0.0
H210 H 0.5887 -0.08327 0.72041 0.0
H211 H 0.48429 0.248 0.70998 0.0
H212 H 0.39903 0.23061 0.3067 0.0
H213 H 0.68985 -0.04183 0.28331 0.0
H214 H 0.9336 0.34697 0.72032 0.0
H215 H 0.03789 0.01566 0.70993 0.0
loop_
_geom_bond_atom_site_label_1
_geom_bond_atom_site_label_2
_geom_bond_distance
_geom_bond_site_symmetry_2
_ccdc_geom_bond_type
Cd0 N3 2.334 . S
Cd0 N29 2.304 1_554 S
Cd0 O36 2.268 . S
Cd0 O39 2.273 . S
Cd0 O40 2.417 1_455 S
Cd0 O41 2.330 1_455 S
Cd1 N16 2.304 1_554 S
Cd1 N20 2.334 . S
Cd1 O37 2.273 1_545 S
Cd1 O38 2.268 . S
Cd1 O42 2.417 . S
Cd1 O43 2.330 . S
C2 N3 1.332 . S
C2 C6 1.381 . S
C2 H8 0.931 . S
N3 Cd0 2.334 . S
N3 C2 1.332 . S
N3 C7 1.328 . S
C4 C5 1.396 . S
C4 C7 1.378 . S
C4 H46 0.931 . S
C5 C4 1.396 . S
C5 C6 1.382 . S
C6 C2 1.381 . S
C6 C5 1.382 . S
C6 H47 0.930 . S
C7 N3 1.328 . S
C7 C4 1.378 . S
C7 H9 0.930 . S
H8 C2 0.931 . S
H9 C7 0.930 . S
C10 O36 1.238 1_565 S
C10 O37 1.253 . S
C11 C12 1.379 . S
C11 N16 1.337 . S
C11 H17 0.929 1_545 S
C12 C11 1.379 . S
C12 C13 1.380 . S
C12 H48 0.929 1_545 S
C13 C12 1.380 . S
C13 C14 1.399 . S
C14 C13 1.399 . S
C14 C15 1.376 . S
C14 H49 0.931 . S
C15 C14 1.376 . S
C15 N16 1.338 . S
C15 H18 0.930 . S
N16 Cd1 2.304 1_556 S
N16 C11 1.337 . S
N16 C15 1.338 . S
H17 C11 0.929 1_565 S
H18 C15 0.930 . S
C19 N20 1.332 . S
C19 C23 1.381 . S
C19 H25 0.931 1_545 S
N20 Cd1 2.334 . S
N20 C19 1.332 . S
N20 C24 1.328 . S
C21 C22 1.396 . S
C21 C24 1.378 . S
C21 H50 0.931 . S
C22 C21 1.396 . S
C22 C23 1.382 . S
C23 C19 1.381 . S
C23 C22 1.382 . S
C23 H51 0.930 1_545 S
C24 N20 1.328 . S
C24 C21 1.378 . S
C24 H26 0.930 . S
H25 C19 0.931 1_565 S
H26 C24 0.930 . S
C27 O38 1.238 . S
C27 O39 1.253 . S
C28 O40 1.239 . S
C28 O41 1.230 . S
N29 Cd0 2.304 1_556 S
N29 C30 1.337 . S
N29 C34 1.338 . S
C30 N29 1.337 . S
C30 C31 1.379 . S
C30 H44 0.929 . S
C31 C30 1.379 . S
C31 C32 1.380 . S
C31 H52 0.929 . S
C32 C31 1.380 . S
C32 C33 1.399 . S
C33 C32 1.399 . S
C33 C34 1.376 . S
C33 H53 0.931 . S
C34 N29 1.338 . S
C34 C33 1.376 . S
C34 H45 0.930 . S
C35 O42 1.239 . S
C35 O43 1.230 . S
O36 Cd0 2.268 . S
O36 C10 1.238 1_545 S
O37 Cd1 2.273 1_565 S
O37 C10 1.253 . S
O38 Cd1 2.268 . S
O38 C27 1.238 . S
O39 Cd0 2.273 . S
O39 C27 1.253 . S
O40 Cd0 2.417 1_655 S
O40 C28 1.239 . S
O41 Cd0 2.330 1_655 S
O41 C28 1.230 . S
O42 Cd1 2.417 . S
O42 C35 1.239 . S
O43 Cd1 2.330 . S
O43 C35 1.230 . S
H44 C30 0.929 . S
H45 C34 0.930 . S
H46 C4 0.931 . S
H47 C6 0.930 . S
H48 C12 0.929 1_565 S
H49 C14 0.931 . S
H50 C21 0.931 . S
H51 C23 0.930 1_565 S
H52 C31 0.929 . S
H53 C33 0.931 . S
Cd54 N57 2.334 . S
Cd54 N83 2.304 1_554 S
Cd54 O90 2.268 . S
Cd54 O93 2.273 1_565 S
Cd54 O94 2.417 . S
Cd54 O95 2.330 . S
Cd55 N70 2.304 1_554 S
Cd55 N74 2.334 . S
Cd55 O91 2.273 . S
Cd55 O92 2.268 . S
Cd55 O96 2.417 1_655 S
Cd55 O97 2.330 1_655 S
C56 N57 1.332 . S
C56 C60 1.381 . S
C56 H62 0.931 1_565 S
N57 Cd54 2.334 . S
N57 C56 1.332 . S
N57 C61 1.328 . S
C58 C59 1.396 . S
C58 C61 1.378 . S
C58 H100 0.931 . S
C59 C58 1.396 . S
C59 C60 1.382 . S
C60 C56 1.381 . S
C60 C59 1.382 . S
C60 H101 0.930 1_565 S
C61 N57 1.328 . S
C61 C58 1.378 . S
C61 H63 0.930 . S
H62 C56 0.931 1_545 S
H63 C61 0.930 . S
C64 O90 1.238 . S
C64 O91 1.253 . S
C65 C66 1.379 . S
C65 N70 1.337 . S
C65 H71 0.929 . S
C66 C65 1.379 . S
C66 C67 1.380 . S
C66 H102 0.929 . S
C67 C66 1.380 . S
C67 C68 1.399 . S
C68 C67 1.399 . S
C68 C69 1.376 . S
C68 H103 0.931 . S
C69 C68 1.376 . S
C69 N70 1.338 . S
C69 H72 0.930 . S
N70 Cd55 2.304 1_556 S
N70 C65 1.337 . S
N70 C69 1.338 . S
H71 C65 0.929 . S
H72 C69 0.930 . S
C73 N74 1.332 . S
C73 C77 1.381 . S
C73 H79 0.931 . S
N74 Cd55 2.334 . S
N74 C73 1.332 . S
N74 C78 1.328 . S
C75 C76 1.396 . S
C75 C78 1.378 . S
C75 H104 0.931 . S
C76 C75 1.396 . S
C76 C77 1.382 . S
C77 C73 1.381 . S
C77 C76 1.382 . S
C77 H105 0.930 . S
C78 N74 1.328 . S
C78 C75 1.378 . S
C78 H80 0.930 . S
H79 C73 0.931 . S
H80 C78 0.930 . S
C81 O92 1.238 1_545 S
C81 O93 1.253 . S
C82 O94 1.239 . S
C82 O95 1.230 . S
N83 Cd54 2.304 1_556 S
N83 C84 1.337 . S
N83 C88 1.338 . S
C84 N83 1.337 . S
C84 C85 1.379 . S
C84 H98 0.929 1_565 S
C85 C84 1.379 . S
C85 C86 1.380 . S
C85 H106 0.929 1_565 S
C86 C85 1.380 . S
C86 C87 1.399 . S
C87 C86 1.399 . S
C87 C88 1.376 . S
C87 H107 0.931 . S
C88 N83 1.338 . S
C88 C87 1.376 . S
C88 H99 0.930 . S
C89 O96 1.239 . S
C89 O97 1.230 . S
O90 Cd54 2.268 . S
O90 C64 1.238 . S
O91 Cd55 2.273 . S
O91 C64 1.253 . S
O92 Cd55 2.268 . S
O92 C81 1.238 1_565 S
O93 Cd54 2.273 1_545 S
O93 C81 1.253 . S
O94 Cd54 2.417 . S
O94 C82 1.239 . S
O95 Cd54 2.330 . S
O95 C82 1.230 . S
O96 Cd55 2.417 1_455 S
O96 C89 1.239 . S
O97 Cd55 2.330 1_455 S
O97 C89 1.230 . S
H98 C84 0.929 1_545 S
H99 C88 0.930 . S
H100 C58 0.931 . S
H101 C60 0.930 1_545 S
H102 C66 0.929 . S
H103 C68 0.931 . S
H104 C75 0.931 . S
H105 C77 0.930 . S
H106 C85 0.929 1_545 S
H107 C87 0.931 . S
Cd108 N111 2.334 . S
Cd108 N137 2.304 . S
Cd108 O144 2.268 . S
Cd108 O147 2.273 1_565 S
Cd108 O148 2.417 . S
Cd108 O149 2.330 . S
Cd109 N124 2.304 . S
Cd109 N128 2.334 . S
Cd109 O145 2.273 . S
Cd109 O146 2.268 . S
Cd109 O150 2.417 1_455 S
Cd109 O151 2.330 1_455 S
C110 N111 1.332 . S
C110 C114 1.381 . S
C110 H116 0.931 1_565 S
N111 Cd108 2.334 . S
N111 C110 1.332 . S
N111 C115 1.328 . S
C112 C113 1.396 . S
C112 C115 1.378 . S
C112 H154 0.931 . S
C113 C112 1.396 . S
C113 C114 1.382 . S
C114 C110 1.381 . S
C114 C113 1.382 . S
C114 H155 0.930 1_565 S
C115 N111 1.328 . S
C115 C112 1.378 . S
C115 H117 0.930 . S
H116 C110 0.931 1_545 S
H117 C115 0.930 . S
C118 O144 1.238 . S
C118 O145 1.253 . S
C119 C120 1.379 . S
C119 N124 1.337 . S
C119 H125 0.929 . S
C120 C119 1.379 . S
C120 C121 1.380 . S
C120 H156 0.929 . S
C121 C120 1.380 . S
C121 C122 1.399 . S
C122 C121 1.399 . S
C122 C123 1.376 . S
C122 H157 0.931 . S
C123 C122 1.376 . S
C123 N124 1.338 . S
C123 H126 0.930 . S
N124 Cd109 2.304 . S
N124 C119 1.337 . S
N124 C123 1.338 . S
H125 C119 0.929 . S
H126 C123 0.930 . S
C127 N128 1.332 . S
C127 C131 1.381 . S
C127 H133 0.931 . S
N128 Cd109 2.334 . S
N128 C127 1.332 . S
N128 C132 1.328 . S
C129 C130 1.396 . S
C129 C132 1.378 . S
C129 H158 0.931 . S
C130 C129 1.396 . S
C130 C131 1.382 . S
C131 C127 1.381 . S
C131 C130 1.382 . S
C131 H159 0.930 . S
C132 N128 1.328 . S
C132 C129 1.378 . S
C132 H134 0.930 . S
H133 C127 0.931 . S
H134 C132 0.930 . S
C135 O146 1.238 1_545 S
C135 O147 1.253 . S
C136 O148 1.239 . S
C136 O149 1.230 . S
N137 Cd108 2.304 . S
N137 C138 1.337 . S
N137 C142 1.338 . S
C138 N137 1.337 . S
C138 C139 1.379 . S
C138 H152 0.929 1_565 S
C139 C138 1.379 . S
C139 C140 1.380 . S
C139 H160 0.929 1_565 S
C140 C139 1.380 . S
C140 C141 1.399 . S
C141 C140 1.399 . S
C141 C142 1.376 . S
C141 H161 0.931 . S
C142 N137 1.338 . S
C142 C141 1.376 . S
C142 H153 0.930 . S
C143 O150 1.239 . S
C143 O151 1.230 . S
O144 Cd108 2.268 . S
O144 C118 1.238 . S
O145 Cd109 2.273 . S
O145 C118 1.253 . S
O146 Cd109 2.268 . S
O146 C135 1.238 1_565 S
O147 Cd108 2.273 1_545 S
O147 C135 1.253 . S
O148 Cd108 2.417 . S
O148 C136 1.239 . S
O149 Cd108 2.330 . S
O149 C136 1.230 . S
O150 Cd109 2.417 1_655 S
O150 C143 1.239 . S
O151 Cd109 2.330 1_655 S
O151 C143 1.230 . S
H152 C138 0.929 1_545 S
H153 C142 0.930 . S
H154 C112 0.931 . S
H155 C114 0.930 1_545 S
H156 C120 0.929 . S
H157 C122 0.931 . S
H158 C129 0.931 . S
H159 C131 0.930 . S
H160 C139 0.929 1_545 S
H161 C141 0.931 . S
Cd162 N165 2.334 . S
Cd162 N191 2.304 . S
Cd162 O198 2.268 . S
Cd162 O201 2.273 . S
Cd162 O202 2.417 1_655 S
Cd162 O203 2.330 1_655 S
Cd163 N178 2.304 . S
Cd163 N182 2.334 . S
Cd163 O199 2.273 1_545 S
Cd163 O200 2.268 . S
Cd163 O204 2.417 . S
Cd163 O205 2.330 . S
C164 N165 1.332 . S
C164 C168 1.381 . S
C164 H170 0.931 . S
N165 Cd162 2.334 . S
N165 C164 1.332 . S
N165 C169 1.328 . S
C166 C167 1.396 . S
C166 C169 1.378 . S
C166 H208 0.931 . S
C167 C166 1.396 . S
C167 C168 1.382 . S
C168 C164 1.381 . S
C168 C167 1.382 . S
C168 H209 0.930 . S
C169 N165 1.328 . S
C169 C166 1.378 . S
C169 H171 0.930 . S
H170 C164 0.931 . S
H171 C169 0.930 . S
C172 O198 1.238 1_565 S
C172 O199 1.253 . S
C173 C174 1.379 . S
C173 N178 1.337 . S
C173 H179 0.929 1_545 S
C174 C173 1.379 . S
C174 C175 1.380 . S
C174 H210 0.929 1_545 S
C175 C174 1.380 . S
C175 C176 1.399 . S
C176 C175 1.399 . S
C176 C177 1.376 . S
C176 H211 0.931 . S
C177 C176 1.376 . S
C177 N178 1.338 . S
C177 H180 0.930 . S
N178 Cd163 2.304 . S
N178 C173 1.337 . S
N178 C177 1.338 . S
H179 C173 0.929 1_565 S
H180 C177 0.930 . S
C181 N182 1.332 . S
C181 C185 1.381 . S
C181 H187 0.931 1_545 S
N182 Cd163 2.334 . S
N182 C181 1.332 . S
N182 C186 1.328 . S
C183 C184 1.396 . S
C183 C186 1.378 . S
C183 H212 0.931 . S
C184 C183 1.396 . S
C184 C185 1.382 . S
C185 C181 1.381 . S
C185 C184 1.382 . S
C185 H213 0.930 1_545 S
C186 N182 1.328 . S
C186 C183 1.378 . S
C186 H188 0.930 . S
H187 C181 0.931 1_565 S
H188 C186 0.930 . S
C189 O200 1.238 . S
C189 O201 1.253 . S
C190 O202 1.239 . S
C190 O203 1.230 . S
N191 Cd162 2.304 . S
N191 C192 1.337 . S
N191 C196 1.338 . S
C192 N191 1.337 . S
C192 C193 1.379 . S
C192 H206 0.929 . S
C193 C192 1.379 . S
C193 C194 1.380 . S
C193 H214 0.929 . S
C194 C193 1.380 . S
C194 C195 1.399 . S
C195 C194 1.399 . S
C195 C196 1.376 . S
C195 H215 0.931 . S
C196 N191 1.338 . S
C196 C195 1.376 . S
C196 H207 0.930 . S
C197 O204 1.239 . S
C197 O205 1.230 . S
O198 Cd162 2.268 . S
O198 C172 1.238 1_545 S
O199 Cd163 2.273 1_565 S
O199 C172 1.253 . S
O200 Cd163 2.268 . S
O200 C189 1.238 . S
O201 Cd162 2.273 . S
O201 C189 1.253 . S
O202 Cd162 2.417 1_455 S
O202 C190 1.239 . S
O203 Cd162 2.330 1_455 S
O203 C190 1.230 . S
O204 Cd163 2.417 . S
O204 C197 1.239 . S
O205 Cd163 2.330 . S
O205 C197 1.230 . S
H206 C192 0.929 . S
H207 C196 0.930 . S
H208 C166 0.931 . S
H209 C168 0.930 . S
H210 C174 0.929 1_565 S
H211 C176 0.931 . S
H212 C183 0.931 . S
H213 C185 0.930 1_565 S
H214 C193 0.929 . S
H215 C195 0.931 . S
C35 C28 2.704 . S
C89 C82 2.704 . S
C136 C143 2.704 . S
C190 C197 2.704 . S
C64 C27 3.052 . S
C189 C118 3.052 . S
C10 C81 3.052 1_465 S
C172 C135 3.052 1_665 S
C184 C22 1.854 . S
C59 C113 1.854 . S
C140 C86 1.806 . S
C13 C175 1.806 . S
C130 C76 1.854 1_455 S
C167 C5 1.854 1_655 S
C32 C194 1.806 1_455 S
C121 C67 1.806 1_455 S
