# Generated by pormake.
# Topology unh, (4)-cn, num edge types: 1
# Building blocks:
#     Node 0, Type 0, BuildingBlock: CEKHIL_clean_sbu_0, # of connection points: 4
#     Node 1, Type 0, BuildingBlock: CEKHIL_clean_sbu_0, # of connection points: 4
#     Node 2, Type 0, BuildingBlock: CEKHIL_clean_sbu_0, # of connection points: 4
#     Node 3, Type 0, BuildingBlock: CEKHIL_clean_sbu_0, # of connection points: 4
#     Node 4, Type 0, BuildingBlock: CEKHIL_clean_sbu_0, # of connection points: 4
#     Node 5, Type 0, BuildingBlock: CEKHIL_clean_sbu_0, # of connection points: 4
#     Edge 6, Type (0, 0), None
#     Edge 7, Type (0, 0), None
#     Edge 8, Type (0, 0), None
#     Edge 9, Type (0, 0), None
#     Edge 10, Type (0, 0), None
#     Edge 11, Type (0, 0), None
#     Edge 12, Type (0, 0), None
#     Edge 13, Type (0, 0), None
#     Edge 14, Type (0, 0), None
#     Edge 15, Type (0, 0), None
#     Edge 16, Type (0, 0), None
#     Edge 17, Type (0, 0), None
# Relax obj value: 0.073
# Max RMSD: 0.186
# Mean RMSD: 0.186
data_MOF--net-unh--node1-CEKHIL_clean_sbu_0--edge1-none
_symmetry_space_group_name_H-M    P1
_symmetry_Int_Tables_number       1
_symmetry_cell_setting            triclinic
loop_
_symmetry_equiv_pos_as_xyz
'x, y, z'
_cell_length_a     18.667059
_cell_length_b     18.649241
_cell_length_c     9.6446576
_cell_angle_alpha  89.998476
_cell_angle_beta   90.000272
_cell_angle_gamma 119.93057
loop_
_atom_site_label
_atom_site_type_symbol
_atom_site_fract_x
_atom_site_fract_y
_atom_site_fract_z
_atom_type_partial_charge
Co0 Co 0.12675 0.57147 0.14224 0.0
O1 O 0.04697 0.49607 0.27066 0.0
O2 O 0.05558 0.61405 0.2052 0.0
C3 C 0.23611 0.571 0.23824 0.0
O4 O 0.20648 0.66558 0.01539 0.0
Co5 Co 0.2086 0.5006 0.94928 0.0
O6 O 0.28521 0.61996 0.91386 0.0
C7 C 0.04421 0.46939 0.87904 0.0
C8 C 0.01993 0.54758 0.28154 0.0
C9 C 0.26825 0.67685 0.93986 0.0
O10 O 0.05013 0.51575 0.98184 0.0
O11 O 0.09842 0.44869 0.85139 0.0
O12 O 0.20851 0.61713 0.28807 0.0
O13 O 0.19096 0.51901 0.14251 0.0
Co14 Co 0.5544 0.12746 0.30954 0.0
O15 O 0.54982 0.04759 0.43826 0.0
O16 O 0.44078 0.05657 0.37251 0.0
C17 C 0.66422 0.23682 0.40532 0.0
O18 O 0.54024 0.2073 0.18235 0.0
Co19 Co 0.7069 0.20886 0.11653 0.0
O20 O 0.66437 0.28572 0.08056 0.0
C21 C 0.57363 0.04446 0.04652 0.0
C22 C 0.47142 0.02078 0.44904 0.0
C23 C 0.59067 0.26894 0.10653 0.0
O24 O 0.53337 0.05056 0.14937 0.0
O25 O 0.64846 0.09856 0.01874 0.0
O26 O 0.59061 0.20946 0.45511 0.0
O27 O 0.67093 0.19143 0.30976 0.0
Co28 Co 0.42563 0.55474 0.47554 0.0
O29 O 0.50103 0.55031 0.60403 0.0
O30 O 0.38329 0.44104 0.5385 0.0
C31 C 0.42586 0.66455 0.57152 0.0
O32 O 0.33157 0.54041 0.34863 0.0
Co33 Co 0.49615 0.70739 0.28258 0.0
O34 O 0.37686 0.66464 0.24688 0.0
C35 C 0.52773 0.57424 0.21239 0.0
C36 C 0.44968 0.47182 0.61489 0.0
C37 C 0.32018 0.59083 0.27287 0.0
O38 O 0.48146 0.53383 0.31519 0.0
O39 O 0.54823 0.64912 0.18472 0.0
O40 O 0.37984 0.59086 0.62131 0.0
O41 O 0.47786 0.67136 0.4758 0.0
Co42 Co 0.86995 0.42634 0.64224 0.0
O43 O 0.94972 0.50175 0.77066 0.0
O44 O 0.94113 0.38377 0.70521 0.0
C45 C 0.76057 0.4268 0.7382 0.0
O46 O 0.79024 0.33221 0.51541 0.0
Co47 Co 0.78807 0.49715 0.44921 0.0
O48 O 0.71149 0.37778 0.41376 0.0
C49 C 0.95249 0.52844 0.37905 0.0
C50 C 0.97676 0.45024 0.78154 0.0
C51 C 0.7285 0.32093 0.43977 0.0
O52 O 0.94657 0.48207 0.48183 0.0
O53 O 0.89825 0.5491 0.35135 0.0
O54 O 0.78819 0.38068 0.78805 0.0
O55 O 0.80572 0.47879 0.64245 0.0
Co56 Co 0.4423 0.87033 0.80953 0.0
O57 O 0.44685 0.95017 0.93827 0.0
O58 O 0.55591 0.94124 0.87249 0.0
C59 C 0.33253 0.76093 0.90527 0.0
O60 O 0.4565 0.79052 0.68234 0.0
Co61 Co 0.28982 0.78891 0.6165 0.0
O62 O 0.33238 0.71208 0.5805 0.0
C63 C 0.42303 0.95334 0.54655 0.0
C64 C 0.52526 0.977 0.94904 0.0
C65 C 0.4061 0.72891 0.60644 0.0
O66 O 0.46331 0.94724 0.64938 0.0
O67 O 0.34823 0.89921 0.51872 0.0
O68 O 0.40613 0.78833 0.95509 0.0
O69 O 0.32576 0.80632 0.80976 0.0
Co70 Co 0.57106 0.44304 0.97553 0.0
O71 O 0.49566 0.44745 0.10405 0.0
O72 O 0.61337 0.55674 0.03846 0.0
C73 C 0.57093 0.33329 0.07147 0.0
O74 O 0.66511 0.4574 0.84857 0.0
Co75 Co 0.50055 0.2904 0.7826 0.0
O76 O 0.61983 0.33315 0.74689 0.0
C77 C 0.46891 0.42351 0.71243 0.0
C78 C 0.54699 0.52594 0.11488 0.0
C79 C 0.6765 0.40697 0.77284 0.0
O80 O 0.51519 0.46392 0.81522 0.0
O81 O 0.44845 0.34865 0.68471 0.0
O82 O 0.61691 0.40698 0.12127 0.0
O83 O 0.51886 0.32642 0.97583 0.0
loop_
_geom_bond_atom_site_label_1
_geom_bond_atom_site_label_2
_geom_bond_distance
_geom_bond_site_symmetry_2
_ccdc_geom_bond_type
Co0 O1 2.216 . S
Co0 O2 2.091 . S
Co0 O4 2.004 . S
Co0 O10 2.021 1_554 S
Co0 O12 2.137 . S
Co0 O13 2.244 . S
O1 Co0 2.216 . S
O1 C8 1.247 . S
O2 Co0 2.091 . S
O2 C8 1.261 . S
C3 O12 1.247 . S
C3 O13 1.272 . S
O4 Co0 2.004 . S
O4 C9 1.259 1_554 S
Co5 O6 2.061 . S
Co5 O11 2.052 . S
Co5 O13 2.135 1_556 S
O6 Co5 2.061 . S
O6 C9 1.235 . S
C7 O10 1.238 . S
C7 O11 1.241 . S
C8 O1 1.247 . S
C8 O2 1.261 . S
C9 O4 1.259 1_556 S
C9 O6 1.235 . S
O10 Co0 2.021 1_556 S
O10 C7 1.238 . S
O11 Co5 2.052 . S
O11 C7 1.241 . S
O12 Co0 2.137 . S
O12 C3 1.247 . S
O13 Co0 2.244 . S
O13 C3 1.272 . S
O13 Co5 2.135 1_554 S
Co14 O15 2.216 . S
Co14 O16 2.091 . S
Co14 O18 2.004 . S
Co14 O24 2.021 . S
Co14 O26 2.137 . S
Co14 O27 2.244 . S
O15 Co14 2.216 . S
O15 C22 1.247 . S
O16 Co14 2.091 . S
O16 C22 1.261 . S
C17 O26 1.247 . S
C17 O27 1.272 . S
O18 Co14 2.004 . S
O18 C23 1.259 . S
Co19 O20 2.061 . S
Co19 O25 2.052 . S
Co19 O27 2.135 . S
O20 Co19 2.061 . S
O20 C23 1.235 . S
C21 O24 1.238 . S
C21 O25 1.241 . S
C22 O15 1.247 . S
C22 O16 1.261 . S
C23 O18 1.259 . S
C23 O20 1.235 . S
O24 Co14 2.021 . S
O24 C21 1.238 . S
O25 Co19 2.052 . S
O25 C21 1.241 . S
O26 Co14 2.137 . S
O26 C17 1.247 . S
O27 Co14 2.244 . S
O27 C17 1.272 . S
O27 Co19 2.135 . S
Co28 O29 2.216 . S
Co28 O30 2.091 . S
Co28 O32 2.004 . S
Co28 O38 2.021 . S
Co28 O40 2.137 . S
Co28 O41 2.244 . S
O29 Co28 2.216 . S
O29 C36 1.247 . S
O30 Co28 2.091 . S
O30 C36 1.261 . S
C31 O40 1.247 . S
C31 O41 1.272 . S
O32 Co28 2.004 . S
O32 C37 1.259 . S
Co33 O34 2.061 . S
Co33 O39 2.052 . S
Co33 O41 2.135 . S
O34 Co33 2.061 . S
O34 C37 1.235 . S
C35 O38 1.238 . S
C35 O39 1.241 . S
C36 O29 1.247 . S
C36 O30 1.261 . S
C37 O32 1.259 . S
C37 O34 1.235 . S
O38 Co28 2.021 . S
O38 C35 1.238 . S
O39 Co33 2.052 . S
O39 C35 1.241 . S
O40 Co28 2.137 . S
O40 C31 1.247 . S
O41 Co28 2.244 . S
O41 C31 1.272 . S
O41 Co33 2.135 . S
Co42 O43 2.216 . S
Co42 O44 2.091 . S
Co42 O46 2.004 . S
Co42 O52 2.021 . S
Co42 O54 2.137 . S
Co42 O55 2.244 . S
O43 Co42 2.216 . S
O43 C50 1.247 . S
O44 Co42 2.091 . S
O44 C50 1.261 . S
C45 O54 1.247 . S
C45 O55 1.272 . S
O46 Co42 2.004 . S
O46 C51 1.259 . S
Co47 O48 2.061 . S
Co47 O53 2.052 . S
Co47 O55 2.135 . S
O48 Co47 2.061 . S
O48 C51 1.235 . S
C49 O52 1.238 . S
C49 O53 1.241 . S
C50 O43 1.247 . S
C50 O44 1.261 . S
C51 O46 1.259 . S
C51 O48 1.235 . S
O52 Co42 2.021 . S
O52 C49 1.238 . S
O53 Co47 2.052 . S
O53 C49 1.241 . S
O54 Co42 2.137 . S
O54 C45 1.247 . S
O55 Co42 2.244 . S
O55 C45 1.272 . S
O55 Co47 2.135 . S
Co56 O57 2.216 . S
Co56 O58 2.091 . S
Co56 O60 2.004 . S
Co56 O66 2.021 . S
Co56 O68 2.137 . S
Co56 O69 2.244 . S
O57 Co56 2.216 . S
O57 C64 1.247 . S
O58 Co56 2.091 . S
O58 C64 1.261 . S
C59 O68 1.247 . S
C59 O69 1.272 . S
O60 Co56 2.004 . S
O60 C65 1.259 . S
Co61 O62 2.061 . S
Co61 O67 2.052 . S
Co61 O69 2.135 . S
O62 Co61 2.061 . S
O62 C65 1.235 . S
C63 O66 1.238 . S
C63 O67 1.241 . S
C64 O57 1.247 . S
C64 O58 1.261 . S
C65 O60 1.259 . S
C65 O62 1.235 . S
O66 Co56 2.021 . S
O66 C63 1.238 . S
O67 Co61 2.052 . S
O67 C63 1.241 . S
O68 Co56 2.137 . S
O68 C59 1.247 . S
O69 Co56 2.244 . S
O69 C59 1.272 . S
O69 Co61 2.135 . S
Co70 O71 2.216 1_556 S
Co70 O72 2.091 1_556 S
Co70 O74 2.004 . S
Co70 O80 2.021 . S
Co70 O82 2.137 1_556 S
Co70 O83 2.244 . S
O71 Co70 2.216 1_554 S
O71 C78 1.247 . S
O72 Co70 2.091 1_554 S
O72 C78 1.261 . S
C73 O82 1.247 . S
C73 O83 1.272 1_554 S
O74 Co70 2.004 . S
O74 C79 1.259 . S
Co75 O76 2.061 . S
Co75 O81 2.052 . S
Co75 O83 2.135 . S
O76 Co75 2.061 . S
O76 C79 1.235 . S
C77 O80 1.238 . S
C77 O81 1.241 . S
C78 O71 1.247 . S
C78 O72 1.261 . S
C79 O74 1.259 . S
C79 O76 1.235 . S
O80 Co70 2.021 . S
O80 C77 1.238 . S
O81 Co75 2.052 . S
O81 C77 1.241 . S
O82 Co70 2.137 1_554 S
O82 C73 1.247 . S
O83 Co70 2.244 . S
O83 C73 1.272 1_556 S
O83 Co75 2.135 . S
C7 C50 1.391 1_455 S
C64 C21 1.391 1_566 S
C35 C78 1.391 . S
C49 C8 1.391 1_655 S
C22 C63 1.391 1_545 S
C77 C36 1.391 . S
C3 C37 1.259 . S
C17 C51 1.259 . S
C65 C31 1.258 . S
C79 C45 1.259 . S
C59 C9 1.259 . S
C73 C23 1.258 . S
