# Generated by pormake.
# Topology sxa, (6)-cn, num edge types: 1
# Building blocks:
#     Node 0, Type 0, BuildingBlock: JUFBIX_clean_sbu_0, # of connection points: 6
#     Node 1, Type 0, BuildingBlock: JUFBIX_clean_sbu_0, # of connection points: 6
#     Node 2, Type 0, BuildingBlock: JUFBIX_clean_sbu_0, # of connection points: 6
#     Node 3, Type 0, BuildingBlock: JUFBIX_clean_sbu_0, # of connection points: 6
#     Edge 4, Type (0, 0), BuildingBlock: EYOCIG_clean_linker_4, # of connection points: 2
#     Edge 5, Type (0, 0), BuildingBlock: EYOCIG_clean_linker_4, # of connection points: 2
#     Edge 6, Type (0, 0), BuildingBlock: EYOCIG_clean_linker_4, # of connection points: 2
#     Edge 7, Type (0, 0), BuildingBlock: EYOCIG_clean_linker_4, # of connection points: 2
#     Edge 8, Type (0, 0), BuildingBlock: EYOCIG_clean_linker_4, # of connection points: 2
#     Edge 9, Type (0, 0), BuildingBlock: EYOCIG_clean_linker_4, # of connection points: 2
#     Edge 10, Type (0, 0), BuildingBlock: EYOCIG_clean_linker_4, # of connection points: 2
#     Edge 11, Type (0, 0), BuildingBlock: EYOCIG_clean_linker_4, # of connection points: 2
#     Edge 12, Type (0, 0), BuildingBlock: EYOCIG_clean_linker_4, # of connection points: 2
#     Edge 13, Type (0, 0), BuildingBlock: EYOCIG_clean_linker_4, # of connection points: 2
#     Edge 14, Type (0, 0), BuildingBlock: EYOCIG_clean_linker_4, # of connection points: 2
#     Edge 15, Type (0, 0), BuildingBlock: EYOCIG_clean_linker_4, # of connection points: 2
# Relax obj value: 0.444
# Max RMSD: 0.305
# Mean RMSD: 0.305
data_MOF--net-sxa--node1-JUFBIX_clean_sbu_0--edge1-EYOCIG_clean_linker_4
_symmetry_space_group_name_H-M    P1
_symmetry_Int_Tables_number       1
_symmetry_cell_setting            triclinic
loop_
_symmetry_equiv_pos_as_xyz
'x, y, z'
_cell_length_a     23.036761
_cell_length_b     20.864762
_cell_length_c     13.179093
_cell_angle_alpha  91.128058
_cell_angle_beta   69.173795
_cell_angle_gamma 83.728666
loop_
_atom_site_label
_atom_site_type_symbol
_atom_site_fract_x
_atom_site_fract_y
_atom_site_fract_z
_atom_type_partial_charge
Co0 Co 0.01224 0.81575 0.15727 0.0
C1 C 0.03164 0.93515 0.21811 0.0
Co2 Co 0.05531 0.80957 0.28437 0.0
C3 C 0.9143 0.82206 0.07753 0.0
C4 C 0.98906 0.87105 0.97796 0.0
N5 N 0.97525 0.82673 1.05402 0.0
N6 N 0.88814 0.86688 1.03043 0.0
C7 C 0.9347 0.8969 0.9649 0.0
H8 H 0.88703 0.79512 0.14333 0.0
H9 H 0.03242 0.89226 0.95046 0.0
C10 C 0.03777 0.6906 0.1923 0.0
N11 N 0.09753 0.801 0.38822 0.0
C12 C 0.15458 0.81644 0.38445 0.0
C13 C 0.07614 0.77164 0.4826 0.0
N14 N 0.16874 0.79774 0.47237 0.0
C15 C 0.1192 0.7698 0.53392 0.0
C16 C 0.92594 0.81784 0.37619 0.0
O17 O 0.01852 0.72914 0.13586 0.0
O18 O 0.05407 0.71284 0.26923 0.0
O19 O 0.97492 0.819 0.39913 0.0
O20 O 0.93101 0.81589 0.27645 0.0
O21 O 0.05729 0.90685 0.28074 0.0
H22 H 0.03234 0.75131 0.51162 0.0
H23 H 0.18571 0.83971 0.31747 0.0
O24 O 0.00451 0.90276 0.17239 0.0
O25 O 0.09476 0.81528 1.04558 0.0
O26 O 0.13084 0.80001 0.17791 0.0
C27 C 0.14041 0.80627 0.07896 0.0
H28 H 0.92855 0.94058 0.92487 0.0
H29 H 0.11482 0.74842 0.61011 0.0
Co30 Co 0.52991 0.30717 0.13759 0.0
C31 C 0.53565 0.42804 0.20066 0.0
Co32 Co 0.55562 0.30381 0.28453 0.0
C33 C 0.46469 0.26615 1.01191 0.0
C34 C 0.52792 0.32983 0.92107 0.0
N35 N 0.50681 0.30372 1.01874 0.0
N36 N 0.45873 0.267 0.91494 0.0
C37 C 0.49735 0.30752 0.85656 0.0
H38 H 0.43809 0.23874 0.07781 0.0
H39 H 0.56267 0.36306 0.89878 0.0
C40 C 0.54972 0.18284 0.19325 0.0
N41 N 0.58727 0.30258 0.40288 0.0
C42 C 0.64343 0.31737 0.40487 0.0
C43 C 0.56155 0.27623 0.49909 0.0
N44 N 0.65322 0.30088 0.49748 0.0
C45 C 0.60157 0.27519 0.55666 0.0
C46 C 0.42824 0.31026 0.34286 0.0
O47 O 0.54108 0.22033 0.12611 0.0
O48 O 0.5565 0.2064 0.27896 0.0
O49 O 0.47123 0.31339 0.38141 0.0
O50 O 0.44249 0.30671 0.23934 0.0
O51 O 0.55417 0.40172 0.27399 0.0
H52 H 0.51758 0.25621 0.52414 0.0
H53 H 0.67772 0.33747 0.33779 0.0
O54 O 0.51822 0.39348 0.14094 0.0
O55 O 0.61676 0.30769 1.04379 0.0
O56 O 0.63602 0.2938 0.19363 0.0
C57 C 0.65529 0.29937 0.09303 0.0
H58 H 0.50102 0.32189 0.77628 0.0
H59 H 0.59419 0.25485 0.63456 0.0
Co60 Co 0.01813 0.30203 0.83482 0.0
C61 C 0.03591 0.42135 0.92578 0.0
Co62 Co 0.06115 0.29643 0.96212 0.0
C63 C 0.91866 0.29506 0.73517 0.0
C64 C -0.00274 0.33939 0.63638 0.0
N65 N 0.97582 0.31034 0.73106 0.0
N66 N 0.90449 0.31354 0.64716 0.0
C67 C 0.95414 0.34119 0.58521 0.0
H68 H 0.88746 0.27206 0.80246 0.0
H69 H 0.04114 0.35955 0.60704 0.0
C70 C 0.04155 0.17676 0.90222 0.0
N71 N 0.09825 0.28584 0.06525 0.0
C72 C 0.15915 0.29089 1.04147 0.0
C73 C 0.08477 0.24157 0.1414 0.0
N74 N 0.18563 0.24627 0.08842 0.0
C75 C 0.13931 0.21606 0.1542 0.0
C76 C 0.93305 0.30632 1.04061 0.0
O77 O 0.01623 0.20476 0.8389 0.0
O78 O 0.06833 0.2094 0.94829 0.0
O79 O 0.97866 0.29773 0.07413 0.0
O80 O 0.94265 0.31169 0.94144 0.0
O81 O 0.05537 0.38303 0.98226 0.0
H82 H 0.04153 0.22014 0.16913 0.0
H83 H 0.18617 0.3179 0.97553 0.0
O84 O 0.01933 0.39883 0.84939 0.0
O85 O 0.09847 0.29251 0.71996 0.0
O86 O 0.14241 0.29552 0.8426 0.0
C87 C 0.14747 0.29351 0.74287 0.0
H88 H 0.95854 0.36235 0.50884 0.0
H89 H 0.14575 0.17245 0.1942 0.0
Co90 Co 0.51771 0.80815 0.83494 0.0
C91 C 0.52408 0.92932 0.92507 0.0
Co92 Co 0.54353 0.8052 0.98186 0.0
C93 C 0.42974 0.79432 0.71497 0.0
C94 C 0.5116 0.83538 0.62042 0.0
N95 N 0.48594 0.80913 0.71675 0.0
N96 N 0.41989 0.81069 0.62237 0.0
C97 C 0.47152 0.83634 0.563 0.0
H98 H 0.39548 0.77429 0.78221 0.0
H99 H 0.55557 0.85541 0.59521 0.0
C100 C 0.53731 0.68419 0.91992 0.0
N101 N 0.56683 0.80894 0.10046 0.0
C102 C 0.60917 0.84643 0.10663 0.0
C103 C 0.54566 0.78331 0.19853 0.0
N104 N 0.61517 0.84601 0.20358 0.0
C105 C 0.57639 0.80583 0.26262 0.0
C106 C 0.4181 0.81354 1.02678 0.0
O107 O 0.51897 0.7103 0.84623 0.0
O108 O 0.55473 0.71889 0.97949 0.0
O109 O 0.45665 0.80541 0.07602 0.0
O110 O 0.43737 0.81845 0.92601 0.0
O111 O 0.53285 0.89201 0.99234 0.0
H112 H 0.51072 0.7503 0.22144 0.0
H113 H 0.63581 0.87356 1.04033 0.0
O114 O 0.51702 0.90555 0.83976 0.0
O115 O 0.60207 0.79828 0.73788 0.0
O116 O 0.63096 0.80501 0.87978 0.0
C117 C 0.64514 0.80131 0.77628 0.0
H118 H 0.47882 0.85662 0.48507 0.0
H119 H 0.57266 0.79189 0.34315 0.0
C120 C 0.03386 0.5333 1.01961 0.0
C121 C 0.03051 0.48885 0.96092 0.0
C122 C 0.03972 0.57878 0.09799 0.0
C123 C 0.04306 0.62316 0.15682 0.0
C124 C 0.53851 0.53539 0.10269 0.0
C125 C 0.54115 0.49354 0.1655 0.0
C126 C 0.53439 0.57696 1.0183 0.0
C127 C 0.53178 0.61875 0.95538 0.0
C128 C 0.53221 1.03676 1.01707 0.0
C129 C 0.52575 0.99636 0.95443 0.0
C130 C 0.54164 0.07552 0.1007 0.0
C131 C 0.54806 0.11586 0.16348 0.0
C132 C 0.0395 1.03679 0.10401 0.0
C133 C 0.04233 0.99764 0.17122 0.0
C134 C 0.03403 0.07503 1.01611 0.0
C135 C 0.03114 0.11418 0.94892 0.0
C136 C 0.32116 0.80552 0.56349 0.0
C137 C 0.36582 0.80702 0.59383 0.0
C138 C 0.2691 0.80474 0.52568 0.0
C139 C 0.22389 0.80283 0.49696 0.0
C140 C 0.25669 0.29912 0.57971 0.0
C141 C 0.20764 0.2966 0.65565 0.0
C142 C 0.31417 0.30358 0.49055 0.0
C143 C 0.36464 0.30645 0.4183 0.0
C144 C 0.804 0.30668 0.59422 0.0
C145 C 0.84926 0.30853 0.62281 0.0
C146 C 0.7519 0.30595 0.55649 0.0
C147 C 0.70725 0.30449 0.52614 0.0
C148 C 0.81672 0.81207 0.53927 0.0
C149 C 0.86577 0.81466 0.46337 0.0
C150 C 0.75923 0.80766 0.62842 0.0
C151 C 0.70875 0.80494 0.7007 0.0
C152 C 0.30418 0.81155 1.05966 0.0
C153 C 0.3527 0.8116 0.07458 0.0
C154 C 0.25457 0.81073 1.0209 0.0
C155 C 0.20385 0.80989 1.0148 0.0
C156 C 0.30165 0.20843 0.97877 0.0
C157 C 0.24786 0.21998 1.03695 0.0
C158 C 0.36299 0.217 0.91526 0.0
C159 C 0.41005 0.24126 0.89645 0.0
C160 C 0.76902 0.30266 0.06068 0.0
C161 C 0.72056 0.30219 1.04564 0.0
C162 C 0.81865 0.30345 0.09937 0.0
C163 C 0.86948 0.30381 0.10523 0.0
C164 C 0.77213 0.90507 0.13947 0.0
C165 C 0.82595 0.89341 0.08153 0.0
C166 C 0.71078 0.89647 0.20286 0.0
C167 C 0.66378 0.87205 0.22179 0.0
loop_
_geom_bond_atom_site_label_1
_geom_bond_atom_site_label_2
_geom_bond_distance
_geom_bond_site_symmetry_2
_ccdc_geom_bond_type
Co0 N5 2.057 1_455 S
Co0 O17 2.021 . S
Co0 O20 2.062 1_455 S
Co0 O24 2.117 . S
Co0 O25 2.020 . S
C1 O21 1.259 . S
C1 O24 1.258 . S
Co2 N11 2.057 . S
Co2 O18 2.117 . S
Co2 O19 2.020 1_455 S
Co2 O21 2.021 . S
Co2 O26 2.062 . S
C3 N5 1.316 1_556 S
C3 N6 1.347 . S
C3 H8 0.931 . S
C4 N5 1.375 1_556 S
C4 C7 1.350 . S
C4 H9 0.930 . S
N5 Co0 2.057 1_655 S
N5 C3 1.316 1_554 S
N5 C4 1.375 1_554 S
N6 C3 1.347 . S
N6 C7 1.373 . S
C7 C4 1.350 . S
C7 N6 1.373 . S
C7 H28 0.931 . S
H8 C3 0.931 . S
H9 C4 0.930 . S
C10 O17 1.259 . S
C10 O18 1.258 . S
N11 Co2 2.057 . S
N11 C12 1.316 . S
N11 C13 1.375 . S
C12 N11 1.316 . S
C12 N14 1.347 . S
C12 H23 0.931 . S
C13 N11 1.375 . S
C13 C15 1.350 . S
C13 H22 0.930 . S
N14 C12 1.347 . S
N14 C15 1.373 . S
C15 C13 1.350 . S
C15 N14 1.373 . S
C15 H29 0.931 . S
C16 O19 1.256 . S
C16 O20 1.255 . S
O17 Co0 2.021 . S
O17 C10 1.259 . S
O18 Co2 2.117 . S
O18 C10 1.258 . S
O19 Co2 2.020 1_655 S
O19 C16 1.256 . S
O20 Co0 2.062 1_655 S
O20 C16 1.255 . S
O21 C1 1.259 . S
O21 Co2 2.021 . S
H22 C13 0.930 . S
H23 C12 0.931 . S
O24 Co0 2.117 . S
O24 C1 1.258 . S
O25 Co0 2.020 . S
O25 C27 1.256 . S
O26 Co2 2.062 . S
O26 C27 1.255 . S
C27 O25 1.256 . S
C27 O26 1.255 . S
H28 C7 0.931 . S
H29 C15 0.931 . S
Co30 N35 2.057 . S
Co30 O47 2.021 . S
Co30 O50 2.062 . S
Co30 O54 2.117 . S
Co30 O55 2.020 . S
C31 O51 1.259 . S
C31 O54 1.258 . S
Co32 N41 2.057 . S
Co32 O48 2.117 . S
Co32 O49 2.020 . S
Co32 O51 2.021 . S
Co32 O56 2.062 . S
C33 N35 1.316 1_556 S
C33 N36 1.347 . S
C33 H38 0.931 . S
C34 N35 1.375 1_556 S
C34 C37 1.350 . S
C34 H39 0.930 . S
N35 Co30 2.057 . S
N35 C33 1.316 1_554 S
N35 C34 1.375 1_554 S
N36 C33 1.347 . S
N36 C37 1.373 . S
C37 C34 1.350 . S
C37 N36 1.373 . S
C37 H58 0.931 . S
H38 C33 0.931 . S
H39 C34 0.930 . S
C40 O47 1.259 . S
C40 O48 1.258 . S
N41 Co32 2.057 . S
N41 C42 1.316 . S
N41 C43 1.375 . S
C42 N41 1.316 . S
C42 N44 1.347 . S
C42 H53 0.931 . S
C43 N41 1.375 . S
C43 C45 1.350 . S
C43 H52 0.930 . S
N44 C42 1.347 . S
N44 C45 1.373 . S
C45 C43 1.350 . S
C45 N44 1.373 . S
C45 H59 0.931 . S
C46 O49 1.256 . S
C46 O50 1.255 . S
O47 Co30 2.021 . S
O47 C40 1.259 . S
O48 Co32 2.117 . S
O48 C40 1.258 . S
O49 Co32 2.020 . S
O49 C46 1.256 . S
O50 Co30 2.062 . S
O50 C46 1.255 . S
O51 C31 1.259 . S
O51 Co32 2.021 . S
H52 C43 0.930 . S
H53 C42 0.931 . S
O54 Co30 2.117 . S
O54 C31 1.258 . S
O55 Co30 2.020 . S
O55 C57 1.256 . S
O56 Co32 2.062 . S
O56 C57 1.255 . S
C57 O55 1.256 . S
C57 O56 1.255 . S
H58 C37 0.931 . S
H59 C45 0.931 . S
Co60 N65 2.057 1_455 S
Co60 O77 2.021 . S
Co60 O80 2.062 1_455 S
Co60 O84 2.117 . S
Co60 O85 2.020 . S
C61 O81 1.259 . S
C61 O84 1.258 . S
Co62 N71 2.057 . S
Co62 O78 2.117 . S
Co62 O79 2.020 1_455 S
Co62 O81 2.021 . S
Co62 O86 2.062 . S
C63 N65 1.316 . S
C63 N66 1.347 . S
C63 H68 0.931 . S
C64 N65 1.375 . S
C64 C67 1.350 . S
C64 H69 0.930 . S
N65 Co60 2.057 1_655 S
N65 C63 1.316 . S
N65 C64 1.375 . S
N66 C63 1.347 . S
N66 C67 1.373 . S
C67 C64 1.350 . S
C67 N66 1.373 . S
C67 H88 0.931 . S
H68 C63 0.931 . S
H69 C64 0.930 . S
C70 O77 1.259 . S
C70 O78 1.258 . S
N71 Co62 2.057 . S
N71 C72 1.316 1_556 S
N71 C73 1.375 1_556 S
C72 N71 1.316 1_554 S
C72 N74 1.347 . S
C72 H83 0.931 . S
C73 N71 1.375 1_554 S
C73 C75 1.350 . S
C73 H82 0.930 . S
N74 C72 1.347 . S
N74 C75 1.373 . S
C75 C73 1.350 . S
C75 N74 1.373 . S
C75 H89 0.931 . S
C76 O79 1.256 . S
C76 O80 1.255 . S
O77 Co60 2.021 . S
O77 C70 1.259 . S
O78 Co62 2.117 . S
O78 C70 1.258 . S
O79 Co62 2.020 1_655 S
O79 C76 1.256 . S
O80 Co60 2.062 1_655 S
O80 C76 1.255 . S
O81 C61 1.259 . S
O81 Co62 2.021 . S
H82 C73 0.930 . S
H83 C72 0.931 . S
O84 Co60 2.117 . S
O84 C61 1.258 . S
O85 Co60 2.020 . S
O85 C87 1.256 . S
O86 Co62 2.062 . S
O86 C87 1.255 . S
C87 O85 1.256 . S
C87 O86 1.255 . S
H88 C67 0.931 . S
H89 C75 0.931 . S
Co90 N95 2.057 . S
Co90 O107 2.021 . S
Co90 O110 2.062 . S
Co90 O114 2.117 . S
Co90 O115 2.020 . S
C91 O111 1.259 . S
C91 O114 1.258 . S
Co92 N101 2.057 . S
Co92 O108 2.117 . S
Co92 O109 2.020 . S
Co92 O111 2.021 . S
Co92 O116 2.062 . S
C93 N95 1.316 . S
C93 N96 1.347 . S
C93 H98 0.931 . S
C94 N95 1.375 . S
C94 C97 1.350 . S
C94 H99 0.930 . S
N95 Co90 2.057 . S
N95 C93 1.316 . S
N95 C94 1.375 . S
N96 C93 1.347 . S
N96 C97 1.373 . S
C97 C94 1.350 . S
C97 N96 1.373 . S
C97 H118 0.931 . S
H98 C93 0.931 . S
H99 C94 0.930 . S
C100 O107 1.259 . S
C100 O108 1.258 . S
N101 Co92 2.057 . S
N101 C102 1.316 1_556 S
N101 C103 1.375 1_556 S
C102 N101 1.316 1_554 S
C102 N104 1.347 . S
C102 H113 0.931 . S
C103 N101 1.375 1_554 S
C103 C105 1.350 . S
C103 H112 0.930 . S
N104 C102 1.347 . S
N104 C105 1.373 . S
C105 C103 1.350 . S
C105 N104 1.373 . S
C105 H119 0.931 . S
C106 O109 1.256 . S
C106 O110 1.255 . S
O107 Co90 2.021 . S
O107 C100 1.259 . S
O108 Co92 2.117 . S
O108 C100 1.258 . S
O109 Co92 2.020 . S
O109 C106 1.256 . S
O110 Co90 2.062 . S
O110 C106 1.255 . S
O111 C91 1.259 . S
O111 Co92 2.021 . S
H112 C103 0.930 . S
H113 C102 0.931 . S
O114 Co90 2.117 . S
O114 C91 1.258 . S
O115 Co90 2.020 . S
O115 C117 1.256 . S
O116 Co92 2.062 . S
O116 C117 1.255 . S
C117 O115 1.256 . S
C117 O116 1.255 . S
H118 C97 0.931 . S
H119 C105 0.931 . S
C120 C121 1.170 . S
C120 C122 1.380 1_556 S
C121 C120 1.170 . S
C122 C120 1.380 1_554 S
C122 C123 1.170 . S
C123 C122 1.170 . S
C124 C125 1.170 . S
C124 C126 1.380 1_554 S
C125 C124 1.170 . S
C126 C124 1.380 1_556 S
C126 C127 1.170 . S
C127 C126 1.170 . S
C128 C129 1.170 . S
C128 C130 1.380 1_566 S
C129 C128 1.170 . S
C130 C128 1.380 1_544 S
C130 C131 1.170 . S
C131 C130 1.170 . S
C132 C133 1.170 . S
C132 C134 1.380 1_564 S
C133 C132 1.170 . S
C134 C132 1.380 1_546 S
C134 C135 1.170 . S
C135 C134 1.170 . S
C136 C137 1.170 . S
C136 C138 1.380 . S
C137 C136 1.170 . S
C138 C136 1.380 . S
C138 C139 1.170 . S
C139 C138 1.170 . S
C140 C141 1.170 . S
C140 C142 1.380 . S
C141 C140 1.170 . S
C142 C140 1.380 . S
C142 C143 1.170 . S
C143 C142 1.170 . S
C144 C145 1.170 . S
C144 C146 1.380 . S
C145 C144 1.170 . S
C146 C144 1.380 . S
C146 C147 1.170 . S
C147 C146 1.170 . S
C148 C149 1.170 . S
C148 C150 1.380 . S
C149 C148 1.170 . S
C150 C148 1.380 . S
C150 C151 1.170 . S
C151 C150 1.170 . S
C152 C153 1.174 . S
C152 C154 1.376 1_554 S
C153 C152 1.174 . S
C154 C152 1.376 1_556 S
C154 C155 1.170 . S
C155 C154 1.170 . S
C156 C157 1.170 . S
C156 C158 1.380 1_554 S
C157 C156 1.170 . S
C158 C156 1.380 1_556 S
C158 C159 1.170 . S
C159 C158 1.170 . S
C160 C161 1.170 . S
C160 C162 1.380 . S
C161 C160 1.170 . S
C162 C160 1.380 . S
C162 C163 1.170 . S
C163 C162 1.170 . S
C164 C165 1.170 . S
C164 C166 1.380 1_556 S
C165 C164 1.170 . S
C166 C164 1.380 1_554 S
C166 C167 1.170 . S
C167 C166 1.170 . S
C121 C61 2.221 . S
C123 C10 2.249 . S
C125 C31 2.344 . S
C127 C100 2.320 . S
C129 C91 2.258 . S
C131 C40 2.229 . S
C133 C1 2.322 . S
C135 C70 2.341 . S
C137 N96 1.554 . S
C139 N14 1.578 . S
C141 C87 1.572 . S
C143 C46 1.570 . S
C145 N66 1.579 . S
C147 N44 1.554 . S
C149 C16 1.570 . S
C151 C117 1.569 . S
C153 C106 1.253 1_554 S
C155 C27 1.252 1_556 S
C157 N74 0.873 . S
C159 N36 0.960 . S
C161 C57 1.232 . S
C163 C76 1.280 1_554 S
C165 N6 0.895 . S
C167 N104 0.950 . S
