# Generated by pormake.
# Topology bcu, (8)-cn, num edge types: 1
# Building blocks:
#     Node 0, Type 0, BuildingBlock: TAGTUT_clean_sbu_3, # of connection points: 8
#     Node 1, Type 0, BuildingBlock: TAGTUT_clean_sbu_3, # of connection points: 8
#     Edge 2, Type (0, 0), BuildingBlock: KIFKEQ_clean_linker_1, # of connection points: 2
#     Edge 3, Type (0, 0), BuildingBlock: KIFKEQ_clean_linker_1, # of connection points: 2
#     Edge 4, Type (0, 0), BuildingBlock: KIFKEQ_clean_linker_1, # of connection points: 2
#     Edge 5, Type (0, 0), BuildingBlock: KIFKEQ_clean_linker_1, # of connection points: 2
#     Edge 6, Type (0, 0), BuildingBlock: KIFKEQ_clean_linker_1, # of connection points: 2
#     Edge 7, Type (0, 0), BuildingBlock: KIFKEQ_clean_linker_1, # of connection points: 2
#     Edge 8, Type (0, 0), BuildingBlock: KIFKEQ_clean_linker_1, # of connection points: 2
#     Edge 9, Type (0, 0), BuildingBlock: KIFKEQ_clean_linker_1, # of connection points: 2
# Relax obj value: 0.012
# Max RMSD: 0.062
# Mean RMSD: 0.062
data_MOF--net-bcu--node1-TAGTUT_clean_sbu_3--edge1-KIFKEQ_clean_linker_1
_symmetry_space_group_name_H-M    P1
_symmetry_Int_Tables_number       1
_symmetry_cell_setting            triclinic
loop_
_symmetry_equiv_pos_as_xyz
'x, y, z'
_cell_length_a     19.47276
_cell_length_b     19.477309
_cell_length_c     22.730944
_cell_angle_alpha  89.278852
_cell_angle_beta   90.827934
_cell_angle_gamma 106.41223
loop_
_atom_site_label
_atom_site_type_symbol
_atom_site_fract_x
_atom_site_fract_y
_atom_site_fract_z
_atom_type_partial_charge
C0 C 0.13482 0.10295 0.03568 0.0
C1 C 0.20607 0.87096 0.02391 0.0
C2 C 0.11625 0.84857 0.8478 0.0
Mg3 Mg 1.00657 0.15448 -0.02416 0.0
Mg4 Mg 0.85231 0.04007 0.94325 0.0
O5 O 0.95123 0.06414 0.93574 0.0
Mg6 Mg 1.00922 0.9974 -0.04386 0.0
O7 O 0.07659 0.94012 -0.02344 0.0
Mg8 Mg 0.16655 0.99567 0.93623 0.0
Mg9 Mg 0.05295 0.84121 -0.03087 0.0
C10 C 0.87031 0.90224 0.87867 0.0
O11 O 0.93033 0.92675 0.02466 0.0
O12 O 0.94146 0.21309 0.91582 0.0
O13 O 0.95092 0.81919 0.01178 0.0
O14 O 0.92232 0.14263 0.04979 0.0
O15 O 0.83916 0.12908 0.89281 0.0
O16 O 0.82419 0.05333 0.03198 0.0
O17 O 0.09349 0.05582 0.88746 0.0
O18 O 0.08769 0.16694 0.90317 0.0
C19 C 0.11363 0.12311 0.87607 0.0
C20 C 0.88112 0.19269 0.88805 0.0
O21 O 0.93864 0.91786 0.88804 0.0
O22 O 0.22597 0.93134 -0.00369 0.0
O23 O 0.83075 0.93765 0.90115 0.0
O24 O 0.1547 0.91103 0.86247 0.0
O25 O 0.14259 0.82865 0.01915 0.0
O26 O 0.06562 0.81285 0.88034 0.0
O27 O 0.06752 0.08203 0.02442 0.0
O28 O 0.17894 0.0773 0.00869 0.0
C29 C 0.85993 0.10412 0.06449 0.0
C30 C 0.91532 0.85854 0.03432 0.0
C31 C 0.63522 0.60232 0.53571 0.0
C32 C 0.70594 0.37025 0.5224 0.0
C33 C 0.61539 0.34892 0.34657 0.0
Mg34 Mg 0.50699 0.65453 0.4766 0.0
Mg35 Mg 0.35242 0.54065 0.44394 0.0
O36 O 0.4513 0.5645 0.43626 0.0
Mg37 Mg 0.50916 0.49746 0.45611 0.0
O38 O 0.57644 0.43989 0.47594 0.0
Mg39 Mg 0.6663 0.49555 0.43551 0.0
Mg40 Mg 0.5526 0.34101 0.46815 0.0
C41 C 0.36986 0.40311 0.37856 0.0
O42 O 0.43048 0.42653 0.52463 0.0
O43 O 0.4419 0.71374 0.41713 0.0
O44 O 0.45082 0.31895 0.51122 0.0
O45 O 0.42301 0.64239 0.55081 0.0
O46 O 0.33936 0.63011 0.39406 0.0
O47 O 0.3247 0.55334 0.53287 0.0
O48 O 0.59319 0.55611 0.38736 0.0
O49 O 0.58779 0.66724 0.40364 0.0
C50 C 0.61344 0.62344 0.37619 0.0
C51 C 0.38146 0.69369 0.38948 0.0
O52 O 0.43819 0.41846 0.38787 0.0
O53 O 0.7258 0.43077 0.49501 0.0
O54 O 0.33048 0.43853 0.40131 0.0
O55 O 0.65399 0.41127 0.36138 0.0
O56 O 0.64241 0.32804 0.51771 0.0
O57 O 0.56483 0.31311 0.37915 0.0
O58 O 0.56788 0.58159 0.52458 0.0
O59 O 0.67917 0.57677 0.50838 0.0
C60 C 0.36063 0.60388 0.56554 0.0
C61 C 0.41543 0.35828 0.5341 0.0
H62 H 0.26512 0.19993 0.04339 0.0
H63 H 0.07036 0.11158 0.13998 0.0
H64 H 0.32125 0.26552 0.12998 0.0
H65 H 0.12744 0.17394 0.22802 0.0
H66 H 0.2272 0.35522 0.35433 0.0
H67 H 0.16912 0.28429 0.27228 0.0
H68 H 0.37077 0.25088 0.22259 0.0
H69 H 0.4306 0.32666 0.30375 0.0
C70 C 0.23422 0.19505 0.08328 0.0
C71 C 0.16332 0.15121 0.08505 0.0
C72 C 0.26677 0.23162 0.13325 0.0
C73 C 0.22958 0.22418 0.18655 0.0
C74 C 0.15773 0.18164 0.18772 0.0
C75 C 0.1247 0.14609 0.13725 0.0
C76 C 0.25956 0.33251 0.32636 0.0
C77 C 0.33411 0.34792 0.33518 0.0
C78 C 0.22574 0.29102 0.27925 0.0
C79 C 0.26511 0.26243 0.24002 0.0
C80 C 0.339 0.27372 0.25099 0.0
C81 C 0.37327 0.31635 0.29799 0.0
H82 H 0.91746 0.20813 0.14553 0.0
H83 H 0.71785 0.05735 0.09259 0.0
H84 H 0.85264 0.26534 0.21077 0.0
H85 H 0.65296 0.11599 0.15632 0.0
H86 H 0.56842 0.20693 0.31804 0.0
H87 H 0.6269 0.14211 0.25408 0.0
H88 H 0.77601 0.34181 0.19999 0.0
H89 H 0.71897 0.40656 0.26545 0.0
C90 C 0.85988 0.18649 0.14837 0.0
C91 C 0.82298 0.12841 0.11336 0.0
C92 C 0.82252 0.22 0.18517 0.0
C93 C 0.74729 0.19655 0.1877 0.0
C94 C 0.7108 0.13566 0.15552 0.0
C95 C 0.74821 0.10182 0.11898 0.0
C96 C 0.61279 0.2373 0.29167 0.0
C97 C 0.6394 0.31206 0.29748 0.0
C98 C 0.64654 0.19995 0.25501 0.0
C99 C 0.70734 0.23646 0.22288 0.0
C100 C 0.73075 0.31167 0.22555 0.0
C101 C 0.69733 0.34899 0.26248 0.0
H102 H 0.86925 0.7162 0.0599 0.0
H103 H 0.83725 0.91905 0.10796 0.0
H104 H 0.79783 0.65845 0.14156 0.0
H105 H 0.76096 0.85945 0.18875 0.0
H106 H 0.7082 0.75503 0.36821 0.0
H107 H 0.7742 0.81119 0.28204 0.0
H108 H 0.68704 0.6158 0.18455 0.0
H109 H 0.6242 0.55875 0.27223 0.0
C110 C 0.8457 0.74852 0.08722 0.0
C111 C 0.86022 0.82286 0.07775 0.0
C112 C 0.8039 0.71486 0.13412 0.0
C113 C 0.77407 0.75411 0.17253 0.0
C114 C 0.78468 0.82776 0.16099 0.0
C115 C 0.82763 0.8619 0.1142 0.0
C116 C 0.70429 0.72382 0.32853 0.0
C117 C 0.66157 0.65244 0.32688 0.0
C118 C 0.74114 0.75637 0.27878 0.0
C119 C 0.73519 0.71871 0.22573 0.0
C120 C 0.69365 0.64648 0.22465 0.0
C121 C 0.65778 0.61347 0.27493 0.0
H122 H 0.2047 0.73841 0.06244 0.0
H123 H 0.31086 0.96249 0.09054 0.0
H124 H 0.25541 0.7084 0.15427 0.0
H125 H 0.36198 0.93189 0.18339 0.0
H126 H 0.47274 0.80051 0.32473 0.0
H127 H 0.44272 0.85223 0.23201 0.0
H128 H 0.2195 0.74161 0.25746 0.0
H129 H 0.24889 0.69033 0.34919 0.0
C130 C 0.24034 0.78114 0.08755 0.0
C131 C 0.25302 0.85284 0.06965 0.0
C132 C 0.26894 0.76399 0.14034 0.0
C133 C 0.31087 0.81808 0.17657 0.0
C134 C 0.3293 0.88934 0.15635 0.0
C135 C 0.30045 0.90669 0.1031 0.0
C136 C 0.41706 0.78926 0.31141 0.0
C137 C 0.3632 0.74058 0.3438 0.0
C138 C 0.40006 0.81847 0.25823 0.0
C139 C 0.32914 0.79915 0.23699 0.0
C140 C 0.27488 0.75586 0.27217 0.0
C141 C 0.29167 0.72692 0.32491 0.0
H142 H 0.21996 0.90603 0.76675 0.0
H143 H 0.06956 0.70644 0.81965 0.0
H144 H 0.27709 0.84118 0.70146 0.0
H145 H 0.12813 0.64153 0.75585 0.0
H146 H 0.2187 0.55685 0.59404 0.0
H147 H 0.15398 0.61536 0.65803 0.0
H148 H 0.35377 0.76472 0.71222 0.0
H149 H 0.41843 0.70765 0.64672 0.0
C150 C 0.19839 0.84844 0.76389 0.0
C151 C 0.14045 0.81156 0.79891 0.0
C152 C 0.23186 0.81107 0.72706 0.0
C153 C 0.2085 0.73585 0.7245 0.0
C154 C 0.14773 0.69937 0.75669 0.0
C155 C 0.11393 0.73678 0.79325 0.0
C156 C 0.24913 0.60129 0.62044 0.0
C157 C 0.32388 0.62795 0.61464 0.0
C158 C 0.21182 0.63505 0.65712 0.0
C159 C 0.24838 0.69592 0.6893 0.0
C160 C 0.32359 0.7194 0.68663 0.0
C161 C 0.36086 0.68597 0.64968 0.0
H162 H 0.36996 0.21597 0.55995 0.0
H163 H 0.33733 0.41859 0.60787 0.0
H164 H 0.29877 0.15815 0.64171 0.0
H165 H 0.2613 0.35891 0.68878 0.0
H166 H 0.20845 0.25465 0.86819 0.0
H167 H 0.27466 0.31077 0.7821 0.0
H168 H 0.18794 0.11526 0.68467 0.0
H169 H 0.12488 0.05825 0.77228 0.0
C170 C 0.34633 0.24822 0.58727 0.0
C171 C 0.36058 0.32252 0.5777 0.0
C172 C 0.30467 0.21452 0.63423 0.0
C173 C 0.27472 0.25368 0.67262 0.0
C174 C 0.28511 0.32729 0.66103 0.0
C175 C 0.32792 0.36147 0.61417 0.0
C176 C 0.2047 0.22339 0.82855 0.0
C177 C 0.16202 0.15201 0.82688 0.0
C178 C 0.24166 0.25593 0.77884 0.0
C179 C 0.23587 0.21824 0.72582 0.0
C180 C 0.19442 0.14597 0.72475 0.0
C181 C 0.15843 0.11298 0.77499 0.0
H182 H 0.97228 0.2998 0.82344 0.0
H183 H 0.74859 0.18831 0.84701 0.0
H184 H 0.94243 0.3513 0.73057 0.0
H185 H 0.71936 0.23936 0.75513 0.0
H186 H 0.70476 0.23751 0.56032 0.0
H187 H 0.75549 0.20709 0.65202 0.0
H188 H 0.86184 0.43047 0.68187 0.0
H189 H 0.81076 0.46147 0.58916 0.0
C190 C 0.91665 0.28817 0.80987 0.0
C191 C 0.86282 0.23924 0.84208 0.0
C192 C 0.89976 0.31726 0.7566 0.0
C193 C 0.82895 0.29754 0.73508 0.0
C194 C 0.77467 0.2539 0.77004 0.0
C195 C 0.79136 0.2251 0.82288 0.0
C196 C 0.74038 0.28012 0.58556 0.0
C197 C 0.753 0.35191 0.56792 0.0
C198 C 0.76899 0.26274 0.63827 0.0
C199 C 0.81083 0.31668 0.67468 0.0
C200 C 0.82923 0.38803 0.65469 0.0
C201 C 0.8004 0.40561 0.60151 0.0
H202 H 0.57112 0.61014 0.64031 0.0
H203 H 0.76563 0.69914 0.54357 0.0
H204 H 0.62835 0.67203 0.72847 0.0
H205 H 0.82189 0.76435 0.63028 0.0
H206 H 0.93145 0.8262 0.80377 0.0
H207 H 0.87176 0.75012 0.72272 0.0
H208 H 0.66965 0.78202 0.77301 0.0
H209 H 0.72762 0.85317 0.85497 0.0
C210 C 0.62544 0.64468 0.63759 0.0
C211 C 0.66393 0.65017 0.58528 0.0
C212 C 0.65856 0.67999 0.68812 0.0
C213 C 0.73036 0.72266 0.68695 0.0
C214 C 0.76745 0.73036 0.63357 0.0
C215 C 0.73483 0.69402 0.58353 0.0
C216 C 0.87406 0.81547 0.79818 0.0
C217 C 0.83474 0.84672 0.83548 0.0
C218 C 0.83985 0.77267 0.75124 0.0
C219 C 0.76587 0.76091 0.74043 0.0
C220 C 0.72636 0.78912 0.77983 0.0
C221 C 0.76011 0.83075 0.82688 0.0
loop_
_geom_bond_atom_site_label_1
_geom_bond_atom_site_label_2
_geom_bond_distance
_geom_bond_site_symmetry_2
_ccdc_geom_bond_type
C0 O27 1.312 . S
C0 O28 1.208 . S
C1 O22 1.331 . S
C1 O25 1.244 . S
C2 O24 1.264 . S
C2 O26 1.273 . S
Mg3 O5 1.936 . S
Mg3 O12 2.081 . S
Mg3 O14 2.023 1_556 S
Mg3 O18 2.031 1_655 S
Mg3 O27 2.291 1_656 S
Mg4 O5 1.963 . S
Mg4 O15 1.942 . S
Mg4 O16 1.955 1_556 S
Mg4 O23 1.986 1_545 S
O5 Mg3 1.936 . S
O5 Mg4 1.963 . S
O5 Mg6 1.915 1_546 S
Mg6 O5 1.915 1_564 S
Mg6 O7 1.915 1_655 S
Mg6 O11 2.013 . S
Mg6 O17 2.114 1_664 S
Mg6 O21 2.013 1_554 S
Mg6 O27 2.114 1_665 S
O7 Mg6 1.915 1_455 S
O7 Mg8 1.936 . S
O7 Mg9 1.963 . S
Mg8 O7 1.936 . S
Mg8 O17 2.291 1_564 S
Mg8 O22 2.081 . S
Mg8 O24 2.023 1_554 S
Mg8 O28 2.031 1_565 S
Mg9 O7 1.963 . S
Mg9 O13 1.986 1_455 S
Mg9 O25 1.942 . S
Mg9 O26 1.955 1_554 S
C10 O21 1.191 . S
C10 O23 1.307 . S
O11 Mg6 2.013 . S
O11 C30 1.191 . S
O12 Mg3 2.081 . S
O12 C20 1.331 . S
O13 Mg9 1.986 1_655 S
O13 C30 1.307 . S
O14 Mg3 2.023 1_554 S
O14 C29 1.264 . S
O15 Mg4 1.942 . S
O15 C20 1.244 . S
O16 Mg4 1.955 1_554 S
O16 C29 1.273 . S
O17 Mg6 2.114 1_446 S
O17 Mg8 2.291 1_546 S
O17 C19 1.312 . S
O18 Mg3 2.031 1_455 S
O18 C19 1.208 . S
C19 O17 1.312 . S
C19 O18 1.208 . S
C20 O12 1.331 . S
C20 O15 1.244 . S
O21 Mg6 2.013 1_556 S
O21 C10 1.191 . S
O22 C1 1.331 . S
O22 Mg8 2.081 . S
O23 Mg4 1.986 1_565 S
O23 C10 1.307 . S
O24 C2 1.264 . S
O24 Mg8 2.023 1_556 S
O25 C1 1.244 . S
O25 Mg9 1.942 . S
O26 C2 1.273 . S
O26 Mg9 1.955 1_556 S
O27 C0 1.312 . S
O27 Mg3 2.291 1_454 S
O27 Mg6 2.114 1_445 S
O28 C0 1.208 . S
O28 Mg8 2.031 1_545 S
C29 O14 1.264 . S
C29 O16 1.273 . S
C30 O11 1.191 . S
C30 O13 1.307 . S
C31 O58 1.312 . S
C31 O59 1.208 . S
C32 O53 1.331 . S
C32 O56 1.244 . S
C33 O55 1.264 . S
C33 O57 1.273 . S
Mg34 O36 1.936 . S
Mg34 O43 2.081 . S
Mg34 O45 2.023 . S
Mg34 O49 2.031 . S
Mg34 O58 2.291 . S
Mg35 O36 1.963 . S
Mg35 O46 1.942 . S
Mg35 O47 1.955 . S
Mg35 O54 1.986 . S
O36 Mg34 1.936 . S
O36 Mg35 1.963 . S
O36 Mg37 1.915 . S
Mg37 O36 1.915 . S
Mg37 O38 1.915 . S
Mg37 O42 2.013 . S
Mg37 O48 2.114 . S
Mg37 O52 2.013 . S
Mg37 O58 2.114 . S
O38 Mg37 1.915 . S
O38 Mg39 1.936 . S
O38 Mg40 1.963 . S
Mg39 O38 1.936 . S
Mg39 O48 2.291 . S
Mg39 O53 2.081 . S
Mg39 O55 2.023 . S
Mg39 O59 2.031 . S
Mg40 O38 1.963 . S
Mg40 O44 1.986 . S
Mg40 O56 1.942 . S
Mg40 O57 1.955 . S
C41 O52 1.191 . S
C41 O54 1.307 . S
O42 Mg37 2.013 . S
O42 C61 1.191 . S
O43 Mg34 2.081 . S
O43 C51 1.331 . S
O44 Mg40 1.986 . S
O44 C61 1.307 . S
O45 Mg34 2.023 . S
O45 C60 1.264 . S
O46 Mg35 1.942 . S
O46 C51 1.244 . S
O47 Mg35 1.955 . S
O47 C60 1.273 . S
O48 Mg37 2.114 . S
O48 Mg39 2.291 . S
O48 C50 1.312 . S
O49 Mg34 2.031 . S
O49 C50 1.208 . S
C50 O48 1.312 . S
C50 O49 1.208 . S
C51 O43 1.331 . S
C51 O46 1.244 . S
O52 Mg37 2.013 . S
O52 C41 1.191 . S
O53 C32 1.331 . S
O53 Mg39 2.081 . S
O54 Mg35 1.986 . S
O54 C41 1.307 . S
O55 C33 1.264 . S
O55 Mg39 2.023 . S
O56 C32 1.244 . S
O56 Mg40 1.942 . S
O57 C33 1.273 . S
O57 Mg40 1.955 . S
O58 C31 1.312 . S
O58 Mg34 2.291 . S
O58 Mg37 2.114 . S
O59 C31 1.208 . S
O59 Mg39 2.031 . S
C60 O45 1.264 . S
C60 O47 1.273 . S
C61 O42 1.191 . S
C61 O44 1.307 . S
H62 C70 0.950 . S
H63 C75 0.950 . S
H64 C72 0.950 . S
H65 C74 0.950 . S
H66 C76 0.950 . S
H67 C78 0.950 . S
H68 C80 0.950 . S
H69 C81 0.950 . S
C70 H62 0.950 . S
C70 C71 1.386 . S
C70 C72 1.391 . S
C71 C70 1.386 . S
C71 C75 1.393 . S
C72 H64 0.950 . S
C72 C70 1.391 . S
C72 C73 1.400 . S
C73 C72 1.400 . S
C73 C74 1.398 . S
C73 C79 1.491 . S
C74 H65 0.950 . S
C74 C73 1.398 . S
C74 C75 1.391 . S
C75 H63 0.950 . S
C75 C71 1.393 . S
C75 C74 1.391 . S
C76 H66 0.950 . S
C76 C77 1.386 . S
C76 C78 1.391 . S
C77 C76 1.386 . S
C77 C81 1.393 . S
C78 H67 0.950 . S
C78 C76 1.391 . S
C78 C79 1.400 . S
C79 C73 1.491 . S
C79 C78 1.400 . S
C79 C80 1.398 . S
C80 H68 0.950 . S
C80 C79 1.398 . S
C80 C81 1.391 . S
C81 H69 0.950 . S
C81 C77 1.393 . S
C81 C80 1.391 . S
H82 C90 0.950 . S
H83 C95 0.950 . S
H84 C92 0.950 . S
H85 C94 0.950 . S
H86 C96 0.950 . S
H87 C98 0.950 . S
H88 C100 0.950 . S
H89 C101 0.950 . S
C90 H82 0.950 . S
C90 C91 1.386 . S
C90 C92 1.391 . S
C91 C90 1.386 . S
C91 C95 1.393 . S
C92 H84 0.950 . S
C92 C90 1.391 . S
C92 C93 1.400 . S
C93 C92 1.400 . S
C93 C94 1.398 . S
C93 C99 1.491 . S
C94 H85 0.950 . S
C94 C93 1.398 . S
C94 C95 1.391 . S
C95 H83 0.950 . S
C95 C91 1.393 . S
C95 C94 1.391 . S
C96 H86 0.950 . S
C96 C97 1.386 . S
C96 C98 1.391 . S
C97 C96 1.386 . S
C97 C101 1.393 . S
C98 H87 0.950 . S
C98 C96 1.391 . S
C98 C99 1.400 . S
C99 C93 1.491 . S
C99 C98 1.400 . S
C99 C100 1.398 . S
C100 H88 0.950 . S
C100 C99 1.398 . S
C100 C101 1.391 . S
C101 H89 0.950 . S
C101 C97 1.393 . S
C101 C100 1.391 . S
H102 C110 0.950 . S
H103 C115 0.950 . S
H104 C112 0.950 . S
H105 C114 0.950 . S
H106 C116 0.950 . S
H107 C118 0.950 . S
H108 C120 0.950 . S
H109 C121 0.950 . S
C110 H102 0.950 . S
C110 C111 1.386 . S
C110 C112 1.391 . S
C111 C110 1.386 . S
C111 C115 1.393 . S
C112 H104 0.950 . S
C112 C110 1.391 . S
C112 C113 1.400 . S
C113 C112 1.400 . S
C113 C114 1.398 . S
C113 C119 1.491 . S
C114 H105 0.950 . S
C114 C113 1.398 . S
C114 C115 1.391 . S
C115 H103 0.950 . S
C115 C111 1.393 . S
C115 C114 1.391 . S
C116 H106 0.950 . S
C116 C117 1.386 . S
C116 C118 1.391 . S
C117 C116 1.386 . S
C117 C121 1.393 . S
C118 H107 0.950 . S
C118 C116 1.391 . S
C118 C119 1.400 . S
C119 C113 1.491 . S
C119 C118 1.400 . S
C119 C120 1.398 . S
C120 H108 0.950 . S
C120 C119 1.398 . S
C120 C121 1.391 . S
C121 H109 0.950 . S
C121 C117 1.393 . S
C121 C120 1.391 . S
H122 C130 0.950 . S
H123 C135 0.950 . S
H124 C132 0.950 . S
H125 C134 0.950 . S
H126 C136 0.950 . S
H127 C138 0.950 . S
H128 C140 0.950 . S
H129 C141 0.950 . S
C130 H122 0.950 . S
C130 C131 1.386 . S
C130 C132 1.391 . S
C131 C130 1.386 . S
C131 C135 1.393 . S
C132 H124 0.950 . S
C132 C130 1.391 . S
C132 C133 1.400 . S
C133 C132 1.400 . S
C133 C134 1.398 . S
C133 C139 1.491 . S
C134 H125 0.950 . S
C134 C133 1.398 . S
C134 C135 1.391 . S
C135 H123 0.950 . S
C135 C131 1.393 . S
C135 C134 1.391 . S
C136 H126 0.950 . S
C136 C137 1.386 . S
C136 C138 1.391 . S
C137 C136 1.386 . S
C137 C141 1.393 . S
C138 H127 0.950 . S
C138 C136 1.391 . S
C138 C139 1.400 . S
C139 C133 1.491 . S
C139 C138 1.400 . S
C139 C140 1.398 . S
C140 H128 0.950 . S
C140 C139 1.398 . S
C140 C141 1.391 . S
C141 H129 0.950 . S
C141 C137 1.393 . S
C141 C140 1.391 . S
H142 C150 0.950 . S
H143 C155 0.950 . S
H144 C152 0.950 . S
H145 C154 0.950 . S
H146 C156 0.950 . S
H147 C158 0.950 . S
H148 C160 0.950 . S
H149 C161 0.950 . S
C150 H142 0.950 . S
C150 C151 1.386 . S
C150 C152 1.391 . S
C151 C150 1.386 . S
C151 C155 1.393 . S
C152 H144 0.950 . S
C152 C150 1.391 . S
C152 C153 1.400 . S
C153 C152 1.400 . S
C153 C154 1.398 . S
C153 C159 1.491 . S
C154 H145 0.950 . S
C154 C153 1.398 . S
C154 C155 1.391 . S
C155 H143 0.950 . S
C155 C151 1.393 . S
C155 C154 1.391 . S
C156 H146 0.950 . S
C156 C157 1.386 . S
C156 C158 1.391 . S
C157 C156 1.386 . S
C157 C161 1.393 . S
C158 H147 0.950 . S
C158 C156 1.391 . S
C158 C159 1.400 . S
C159 C153 1.491 . S
C159 C158 1.400 . S
C159 C160 1.398 . S
C160 H148 0.950 . S
C160 C159 1.398 . S
C160 C161 1.391 . S
C161 H149 0.950 . S
C161 C157 1.393 . S
C161 C160 1.391 . S
H162 C170 0.950 . S
H163 C175 0.950 . S
H164 C172 0.950 . S
H165 C174 0.950 . S
H166 C176 0.950 . S
H167 C178 0.950 . S
H168 C180 0.950 . S
H169 C181 0.950 . S
C170 H162 0.950 . S
C170 C171 1.386 . S
C170 C172 1.391 . S
C171 C170 1.386 . S
C171 C175 1.393 . S
C172 H164 0.950 . S
C172 C170 1.391 . S
C172 C173 1.400 . S
C173 C172 1.400 . S
C173 C174 1.398 . S
C173 C179 1.491 . S
C174 H165 0.950 . S
C174 C173 1.398 . S
C174 C175 1.391 . S
C175 H163 0.950 . S
C175 C171 1.393 . S
C175 C174 1.391 . S
C176 H166 0.950 . S
C176 C177 1.386 . S
C176 C178 1.391 . S
C177 C176 1.386 . S
C177 C181 1.393 . S
C178 H167 0.950 . S
C178 C176 1.391 . S
C178 C179 1.400 . S
C179 C173 1.491 . S
C179 C178 1.400 . S
C179 C180 1.398 . S
C180 H168 0.950 . S
C180 C179 1.398 . S
C180 C181 1.391 . S
C181 H169 0.950 . S
C181 C177 1.393 . S
C181 C180 1.391 . S
H182 C190 0.950 . S
H183 C195 0.950 . S
H184 C192 0.950 . S
H185 C194 0.950 . S
H186 C196 0.950 . S
H187 C198 0.950 . S
H188 C200 0.950 . S
H189 C201 0.950 . S
C190 H182 0.950 . S
C190 C191 1.386 . S
C190 C192 1.391 . S
C191 C190 1.386 . S
C191 C195 1.393 . S
C192 H184 0.950 . S
C192 C190 1.391 . S
C192 C193 1.400 . S
C193 C192 1.400 . S
C193 C194 1.398 . S
C193 C199 1.491 . S
C194 H185 0.950 . S
C194 C193 1.398 . S
C194 C195 1.391 . S
C195 H183 0.950 . S
C195 C191 1.393 . S
C195 C194 1.391 . S
C196 H186 0.950 . S
C196 C197 1.386 . S
C196 C198 1.391 . S
C197 C196 1.386 . S
C197 C201 1.393 . S
C198 H187 0.950 . S
C198 C196 1.391 . S
C198 C199 1.400 . S
C199 C193 1.491 . S
C199 C198 1.400 . S
C199 C200 1.398 . S
C200 H188 0.950 . S
C200 C199 1.398 . S
C200 C201 1.391 . S
C201 H189 0.950 . S
C201 C197 1.393 . S
C201 C200 1.391 . S
H202 C210 0.950 . S
H203 C215 0.950 . S
H204 C212 0.950 . S
H205 C214 0.950 . S
H206 C216 0.950 . S
H207 C218 0.950 . S
H208 C220 0.950 . S
H209 C221 0.950 . S
C210 H202 0.950 . S
C210 C211 1.386 . S
C210 C212 1.391 . S
C211 C210 1.386 . S
C211 C215 1.393 . S
C212 H204 0.950 . S
C212 C210 1.391 . S
C212 C213 1.400 . S
C213 C212 1.400 . S
C213 C214 1.398 . S
C213 C219 1.491 . S
C214 H205 0.950 . S
C214 C213 1.398 . S
C214 C215 1.391 . S
C215 H203 0.950 . S
C215 C211 1.393 . S
C215 C214 1.391 . S
C216 H206 0.950 . S
C216 C217 1.386 . S
C216 C218 1.391 . S
C217 C216 1.386 . S
C217 C221 1.393 . S
C218 H207 0.950 . S
C218 C216 1.391 . S
C218 C219 1.400 . S
C219 C213 1.491 . S
C219 C218 1.400 . S
C219 C220 1.398 . S
C220 H208 0.950 . S
C220 C219 1.398 . S
C220 C221 1.391 . S
C221 H209 0.950 . S
C221 C217 1.393 . S
C221 C220 1.391 . S
C71 C0 1.229 . S
C77 C41 1.247 . S
C91 C29 1.699 . S
C97 C33 1.699 . S
C111 C30 1.248 . S
C117 C50 1.232 . S
C131 C1 1.573 . S
C137 C51 1.565 . S
C151 C2 1.700 . S
C157 C60 1.700 . S
C171 C61 1.244 . S
C177 C19 1.228 . S
C191 C20 1.576 . S
C197 C32 1.571 . S
C211 C31 1.217 . S
C217 C10 1.239 . S
