# Generated by pormake.
# Topology unh, (4)-cn, num edge types: 1
# Building blocks:
#     Node 0, Type 0, BuildingBlock: NAWXER_clean_sbu_0, # of connection points: 4
#     Node 1, Type 0, BuildingBlock: NAWXER_clean_sbu_0, # of connection points: 4
#     Node 2, Type 0, BuildingBlock: NAWXER_clean_sbu_0, # of connection points: 4
#     Node 3, Type 0, BuildingBlock: NAWXER_clean_sbu_0, # of connection points: 4
#     Node 4, Type 0, BuildingBlock: NAWXER_clean_sbu_0, # of connection points: 4
#     Node 5, Type 0, BuildingBlock: NAWXER_clean_sbu_0, # of connection points: 4
#     Edge 6, Type (0, 0), BuildingBlock: EYOCIG_clean_linker_4, # of connection points: 2
#     Edge 7, Type (0, 0), BuildingBlock: EYOCIG_clean_linker_4, # of connection points: 2
#     Edge 8, Type (0, 0), BuildingBlock: EYOCIG_clean_linker_4, # of connection points: 2
#     Edge 9, Type (0, 0), BuildingBlock: EYOCIG_clean_linker_4, # of connection points: 2
#     Edge 10, Type (0, 0), BuildingBlock: EYOCIG_clean_linker_4, # of connection points: 2
#     Edge 11, Type (0, 0), BuildingBlock: EYOCIG_clean_linker_4, # of connection points: 2
#     Edge 12, Type (0, 0), BuildingBlock: EYOCIG_clean_linker_4, # of connection points: 2
#     Edge 13, Type (0, 0), BuildingBlock: EYOCIG_clean_linker_4, # of connection points: 2
#     Edge 14, Type (0, 0), BuildingBlock: EYOCIG_clean_linker_4, # of connection points: 2
#     Edge 15, Type (0, 0), BuildingBlock: EYOCIG_clean_linker_4, # of connection points: 2
#     Edge 16, Type (0, 0), BuildingBlock: EYOCIG_clean_linker_4, # of connection points: 2
#     Edge 17, Type (0, 0), BuildingBlock: EYOCIG_clean_linker_4, # of connection points: 2
# Relax obj value: 0.020
# Max RMSD: 0.247
# Mean RMSD: 0.247
data_MOF--net-unh--node1-NAWXER_clean_sbu_0--edge1-EYOCIG_clean_linker_4
_symmetry_space_group_name_H-M    P1
_symmetry_Int_Tables_number       1
_symmetry_cell_setting            triclinic
loop_
_symmetry_equiv_pos_as_xyz
'x, y, z'
_cell_length_a     35.233269
_cell_length_b     35.229854
_cell_length_c     17.020095
_cell_angle_alpha  90.022523
_cell_angle_beta   89.996421
_cell_angle_gamma 119.98341
loop_
_atom_site_label
_atom_site_type_symbol
_atom_site_fract_x
_atom_site_fract_y
_atom_site_fract_z
_atom_type_partial_charge
C0 C 0.09326 0.55695 0.20139 0.0
C1 C 0.20654 0.65242 0.01941 0.0
O2 O 0.11235 0.59829 0.19545 0.0
Zn3 Zn 0.14973 0.60393 0.10924 0.0
O4 O 0.10372 0.53473 0.15554 0.0
Zn5 Zn 0.14978 0.54958 0.05983 0.0
O6 O 0.18737 0.52886 0.09763 0.0
O7 O 0.19605 0.58754 0.16078 0.0
O8 O 0.19603 0.61232 0.00836 0.0
O9 O 0.18723 0.66225 0.07153 0.0
O10 O 0.1037 0.5727 0.01347 0.0
O11 O 0.11242 0.51784 0.97353 0.0
C12 C 0.20664 0.558 0.14976 0.0
C13 C 0.09329 0.54005 0.96759 0.0
C14 C 0.56176 0.20186 0.1879 0.0
C15 C 0.54548 0.08912 0.36997 0.0
O16 O 0.533 0.1827 0.24065 0.0
Zn17 Zn 0.55411 0.14529 0.2777 0.0
O18 O 0.59123 0.19127 0.17606 0.0
Zn19 Zn 0.60814 0.14518 0.22686 0.0
O20 O 0.60183 0.10757 0.14059 0.0
O21 O 0.53857 0.09896 0.18215 0.0
O22 O 0.57776 0.09943 0.32324 0.0
O23 O 0.52318 0.10818 0.36473 0.0
O24 O 0.61722 0.19185 0.32753 0.0
O25 O 0.66674 0.18295 0.26311 0.0
C26 C 0.56045 0.08842 0.13565 0.0
C27 C 0.65725 0.20244 0.31544 0.0
C28 C 0.48065 0.5564 0.30151 0.0
C29 C 0.46382 0.65267 0.48332 0.0
O30 O 0.5029 0.59775 0.30695 0.0
Zn31 Zn 0.47162 0.60381 0.39354 0.0
O32 O 0.44819 0.53438 0.34786 0.0
Zn33 Zn 0.41744 0.54967 0.44383 0.0
O34 O 0.35897 0.52892 0.4069 0.0
O35 O 0.40869 0.58737 0.34297 0.0
O36 O 0.43427 0.61263 0.49489 0.0
O37 O 0.49268 0.66227 0.43078 0.0
O38 O 0.48681 0.57289 0.4893 0.0
O39 O 0.4234 0.51822 0.53018 0.0
C40 C 0.36862 0.55793 0.35463 0.0
C41 C 0.46476 0.54041 0.53557 0.0
C42 C 0.81943 0.45941 0.64922 0.0
C43 C 0.93283 0.47702 0.46758 0.0
O44 O 0.83886 0.48858 0.59724 0.0
Zn45 Zn 0.87638 0.46771 0.55969 0.0
O46 O 0.82991 0.42982 0.66035 0.0
Zn47 Zn 0.87622 0.41329 0.60916 0.0
O48 O 0.91349 0.41887 0.69553 0.0
O49 O 0.92238 0.48249 0.65552 0.0
O50 O 0.92231 0.44437 0.51346 0.0
O51 O 0.9138 0.49934 0.47347 0.0
O52 O 0.83006 0.40499 0.50812 0.0
O53 O 0.83865 0.35499 0.57142 0.0
C54 C 0.93271 0.46022 0.70144 0.0
C55 C 0.81944 0.36487 0.51921 0.0
C56 C 0.36867 0.81461 0.81532 0.0
C57 C 0.46555 0.92845 0.63546 0.0
O58 O 0.3592 0.83401 0.76283 0.0
Zn59 Zn 0.41782 0.8717 0.72662 0.0
O60 O 0.40869 0.8252 0.82749 0.0
Zn61 Zn 0.47182 0.87165 0.77762 0.0
O62 O 0.50274 0.9088 0.86462 0.0
O63 O 0.44817 0.91752 0.823 0.0
O64 O 0.48742 0.91795 0.68206 0.0
O65 O 0.42416 0.90925 0.64027 0.0
O66 O 0.43469 0.8255 0.67609 0.0
O67 O 0.49292 0.83418 0.74081 0.0
C68 C 0.48043 0.92786 0.86978 0.0
C69 C 0.46416 0.81493 0.6881 0.0
C70 C 0.54505 0.46017 0.80146 0.0
C71 C 0.56208 0.36391 0.98274 0.0
O72 O 0.52279 0.41881 0.80686 0.0
Zn73 Zn 0.55415 0.41279 0.89329 0.0
O74 O 0.57752 0.48219 0.84779 0.0
Zn75 Zn 0.60833 0.46692 0.94365 0.0
O76 O 0.66678 0.48777 0.90658 0.0
O77 O 0.61706 0.42939 0.84242 0.0
O78 O 0.59161 0.40395 0.99442 0.0
O79 O 0.53318 0.35431 0.93026 0.0
O80 O 0.53895 0.44365 0.98922 0.0
O81 O 0.60237 0.49831 0.03017 0.0
C82 C 0.65712 0.45886 0.85407 0.0
C83 C 0.56101 0.47611 0.03558 0.0
C84 C 0.03002 0.5153 0.86268 0.0
C85 C 0.05874 0.52745 0.91114 0.0
C86 C 0.99604 0.49845 0.80631 0.0
C87 C 0.9673 0.48208 0.75784 0.0
C88 C 0.50457 0.99097 0.97486 0.0
C89 C 0.49262 0.96234 0.92624 0.0
C90 C 0.52149 0.02494 0.03126 0.0
C91 C 0.53814 0.05374 0.07958 0.0
C92 C 0.50525 0.51765 0.19676 0.0
C93 C 0.49308 0.53423 0.24521 0.0
C94 C 0.52228 0.50069 0.14039 0.0
C95 C 0.53888 0.48856 0.09192 0.0
C96 C 0.99605 0.50166 0.36267 0.0
C97 C 0.96736 0.48951 0.41116 0.0
C98 C 0.03 0.51856 0.30627 0.0
C99 C 0.05871 0.53502 0.2578 0.0
C100 C 0.52136 0.02601 0.47498 0.0
C101 C 0.53328 0.05465 0.42641 0.0
C102 C 0.50449 0.99201 0.53128 0.0
C103 C 0.48788 0.96318 0.57952 0.0
C104 C 0.52051 0.49889 0.69667 0.0
C105 C 0.53265 0.48232 0.74515 0.0
C106 C 0.5035 0.51584 0.64029 0.0
C107 C 0.48689 0.52797 0.59187 0.0
C108 C 0.27067 0.55879 0.23154 0.0
C109 C 0.24149 0.55879 0.19459 0.0
C110 C 0.30514 0.55874 0.27367 0.0
C111 C 0.33437 0.55867 0.31031 0.0
C112 C 0.72092 0.26694 0.39569 0.0
C113 C 0.69163 0.23753 0.35934 0.0
C114 C 0.75541 0.30156 0.43757 0.0
C115 C 0.78458 0.33079 0.47442 0.0
C116 C 0.46366 0.75081 0.60705 0.0
C117 C 0.46364 0.78004 0.64377 0.0
C118 C 0.46354 0.71624 0.56491 0.0
C119 C 0.46335 0.68695 0.52801 0.0
C120 C 0.72063 0.4584 0.77262 0.0
C121 C 0.69136 0.45828 0.80944 0.0
C122 C 0.7552 0.45854 0.73049 0.0
C123 C 0.78448 0.45864 0.69371 0.0
C124 C 0.30499 0.75029 0.89578 0.0
C125 C 0.33428 0.77962 0.85933 0.0
C126 C 0.27051 0.71573 0.93777 0.0
C127 C 0.24136 0.68652 0.97465 0.0
C128 C 0.56239 0.30034 0.06418 0.0
C129 C 0.56256 0.32962 0.02734 0.0
C130 C 0.56225 0.26582 0.10642 0.0
C131 C 0.56227 0.23665 0.14336 0.0
loop_
_geom_bond_atom_site_label_1
_geom_bond_atom_site_label_2
_geom_bond_distance
_geom_bond_site_symmetry_2
_ccdc_geom_bond_type
C0 O2 1.247 . S
C0 O4 1.258 . S
C1 O8 1.247 . S
C1 O9 1.258 1_556 S
O2 C0 1.247 . S
O2 Zn3 2.028 . S
Zn3 O2 2.028 . S
Zn3 O7 2.035 . S
Zn3 O9 2.035 . S
Zn3 O10 2.028 . S
O4 C0 1.258 . S
O4 Zn5 2.035 . S
Zn5 O4 2.035 . S
Zn5 O6 2.028 . S
Zn5 O8 2.028 1_554 S
Zn5 O11 2.035 1_554 S
O6 Zn5 2.028 . S
O6 C12 1.247 . S
O7 Zn3 2.035 . S
O7 C12 1.258 . S
O8 C1 1.247 . S
O8 Zn5 2.028 1_556 S
O9 C1 1.258 1_554 S
O9 Zn3 2.035 . S
O10 Zn3 2.028 . S
O10 C13 1.247 1_554 S
O11 Zn5 2.035 1_556 S
O11 C13 1.258 . S
C12 O6 1.247 . S
C12 O7 1.258 . S
C13 O10 1.247 1_556 S
C13 O11 1.258 . S
C14 O16 1.247 . S
C14 O18 1.258 . S
C15 O22 1.247 . S
C15 O23 1.258 . S
O16 C14 1.247 . S
O16 Zn17 2.028 . S
Zn17 O16 2.028 . S
Zn17 O21 2.035 . S
Zn17 O23 2.035 . S
Zn17 O24 2.028 . S
O18 C14 1.258 . S
O18 Zn19 2.035 . S
Zn19 O18 2.035 . S
Zn19 O20 2.028 . S
Zn19 O22 2.028 . S
Zn19 O25 2.035 . S
O20 Zn19 2.028 . S
O20 C26 1.247 . S
O21 Zn17 2.035 . S
O21 C26 1.258 . S
O22 C15 1.247 . S
O22 Zn19 2.028 . S
O23 C15 1.258 . S
O23 Zn17 2.035 . S
O24 Zn17 2.028 . S
O24 C27 1.247 . S
O25 Zn19 2.035 . S
O25 C27 1.258 . S
C26 O20 1.247 . S
C26 O21 1.258 . S
C27 O24 1.247 . S
C27 O25 1.258 . S
C28 O30 1.247 . S
C28 O32 1.258 . S
C29 O36 1.247 . S
C29 O37 1.258 . S
O30 C28 1.247 . S
O30 Zn31 2.028 . S
Zn31 O30 2.028 . S
Zn31 O35 2.035 . S
Zn31 O37 2.035 . S
Zn31 O38 2.028 . S
O32 C28 1.258 . S
O32 Zn33 2.035 . S
Zn33 O32 2.035 . S
Zn33 O34 2.028 . S
Zn33 O36 2.028 . S
Zn33 O39 2.035 . S
O34 Zn33 2.028 . S
O34 C40 1.247 . S
O35 Zn31 2.035 . S
O35 C40 1.258 . S
O36 C29 1.247 . S
O36 Zn33 2.028 . S
O37 C29 1.258 . S
O37 Zn31 2.035 . S
O38 Zn31 2.028 . S
O38 C41 1.247 . S
O39 Zn33 2.035 . S
O39 C41 1.258 . S
C40 O34 1.247 . S
C40 O35 1.258 . S
C41 O38 1.247 . S
C41 O39 1.258 . S
C42 O44 1.247 . S
C42 O46 1.258 . S
C43 O50 1.247 . S
C43 O51 1.258 . S
O44 C42 1.247 . S
O44 Zn45 2.028 . S
Zn45 O44 2.028 . S
Zn45 O49 2.035 . S
Zn45 O51 2.035 . S
Zn45 O52 2.028 . S
O46 C42 1.258 . S
O46 Zn47 2.035 . S
Zn47 O46 2.035 . S
Zn47 O48 2.028 . S
Zn47 O50 2.028 . S
Zn47 O53 2.035 . S
O48 Zn47 2.028 . S
O48 C54 1.247 . S
O49 Zn45 2.035 . S
O49 C54 1.258 . S
O50 C43 1.247 . S
O50 Zn47 2.028 . S
O51 C43 1.258 . S
O51 Zn45 2.035 . S
O52 Zn45 2.028 . S
O52 C55 1.247 . S
O53 Zn47 2.035 . S
O53 C55 1.258 . S
C54 O48 1.247 . S
C54 O49 1.258 . S
C55 O52 1.247 . S
C55 O53 1.258 . S
C56 O58 1.247 . S
C56 O60 1.258 . S
C57 O64 1.247 . S
C57 O65 1.258 . S
O58 C56 1.247 . S
O58 Zn59 2.028 . S
Zn59 O58 2.028 . S
Zn59 O63 2.035 . S
Zn59 O65 2.035 . S
Zn59 O66 2.028 . S
O60 C56 1.258 . S
O60 Zn61 2.035 . S
Zn61 O60 2.035 . S
Zn61 O62 2.028 . S
Zn61 O64 2.028 . S
Zn61 O67 2.035 . S
O62 Zn61 2.028 . S
O62 C68 1.247 . S
O63 Zn59 2.035 . S
O63 C68 1.258 . S
O64 C57 1.247 . S
O64 Zn61 2.028 . S
O65 C57 1.258 . S
O65 Zn59 2.035 . S
O66 Zn59 2.028 . S
O66 C69 1.247 . S
O67 Zn61 2.035 . S
O67 C69 1.258 . S
C68 O62 1.247 . S
C68 O63 1.258 . S
C69 O66 1.247 . S
C69 O67 1.258 . S
C70 O72 1.247 . S
C70 O74 1.258 . S
C71 O78 1.247 . S
C71 O79 1.258 1_554 S
O72 C70 1.247 . S
O72 Zn73 2.028 . S
Zn73 O72 2.028 . S
Zn73 O77 2.035 . S
Zn73 O79 2.035 . S
Zn73 O80 2.028 . S
O74 C70 1.258 . S
O74 Zn75 2.035 . S
Zn75 O74 2.035 . S
Zn75 O76 2.028 . S
Zn75 O78 2.028 1_556 S
Zn75 O81 2.035 1_556 S
O76 Zn75 2.028 . S
O76 C82 1.247 . S
O77 Zn73 2.035 . S
O77 C82 1.258 . S
O78 C71 1.247 . S
O78 Zn75 2.028 1_554 S
O79 C71 1.258 1_556 S
O79 Zn73 2.035 . S
O80 Zn73 2.028 . S
O80 C83 1.247 1_556 S
O81 Zn75 2.035 1_554 S
O81 C83 1.258 . S
C82 O76 1.247 . S
C82 O77 1.258 . S
C83 O80 1.247 1_554 S
C83 O81 1.258 . S
C84 C85 1.170 . S
C84 C86 1.380 1_455 S
C85 C84 1.170 . S
C86 C84 1.380 1_655 S
C86 C87 1.170 . S
C87 C86 1.170 . S
C88 C89 1.170 . S
C88 C90 1.380 1_566 S
C89 C88 1.170 . S
C90 C88 1.380 1_544 S
C90 C91 1.170 . S
C91 C90 1.170 . S
C92 C93 1.170 . S
C92 C94 1.380 . S
C93 C92 1.170 . S
C94 C92 1.380 . S
C94 C95 1.170 . S
C95 C94 1.170 . S
C96 C97 1.170 . S
C96 C98 1.380 1_655 S
C97 C96 1.170 . S
C98 C96 1.380 1_455 S
C98 C99 1.170 . S
C99 C98 1.170 . S
C100 C101 1.170 . S
C100 C102 1.380 1_545 S
C101 C100 1.170 . S
C102 C100 1.380 1_565 S
C102 C103 1.170 . S
C103 C102 1.170 . S
C104 C105 1.170 . S
C104 C106 1.380 . S
C105 C104 1.170 . S
C106 C104 1.380 . S
C106 C107 1.170 . S
C107 C106 1.170 . S
C108 C109 1.170 . S
C108 C110 1.380 . S
C109 C108 1.170 . S
C110 C108 1.380 . S
C110 C111 1.170 . S
C111 C110 1.170 . S
C112 C113 1.170 . S
C112 C114 1.380 . S
C113 C112 1.170 . S
C114 C112 1.380 . S
C114 C115 1.170 . S
C115 C114 1.170 . S
C116 C117 1.170 . S
C116 C118 1.380 . S
C117 C116 1.170 . S
C118 C116 1.380 . S
C118 C119 1.170 . S
C119 C118 1.170 . S
C120 C121 1.170 . S
C120 C122 1.380 . S
C121 C120 1.170 . S
C122 C120 1.380 . S
C122 C123 1.170 . S
C123 C122 1.170 . S
C124 C125 1.170 . S
C124 C126 1.380 . S
C125 C124 1.170 . S
C126 C124 1.380 . S
C126 C127 1.170 . S
C127 C126 1.170 . S
C128 C129 1.170 . S
C128 C130 1.380 . S
C129 C128 1.170 . S
C130 C128 1.380 . S
C130 C131 1.170 . S
C131 C130 1.170 . S
C85 C13 1.768 . S
C87 C54 1.770 . S
C89 C68 1.765 . S
C91 C26 1.783 . S
C93 C28 1.783 . S
C95 C83 1.764 . S
C97 C43 1.766 . S
C99 C0 1.774 . S
C101 C15 1.765 . S
C103 C57 1.784 . S
C105 C70 1.762 . S
C107 C41 1.779 . S
C109 C12 1.634 . S
C111 C40 1.619 . S
C113 C27 1.629 . S
C115 C55 1.642 . S
C117 C69 1.620 . S
C119 C29 1.633 . S
C121 C82 1.633 . S
C123 C42 1.619 . S
C125 C56 1.621 . S
C127 C1 1.638 . S
C129 C71 1.621 . S
C131 C14 1.618 . S
