# Generated by pormake.
# Topology pcu, (6)-cn, num edge types: 1
# Building blocks:
#     Node 0, Type 0, BuildingBlock: BETDEL_clean_sbu_0, # of connection points: 6
#     Edge 1, Type (0, 0), BuildingBlock: TEMPAE_clean_linker_10, # of connection points: 2
#     Edge 2, Type (0, 0), BuildingBlock: TEMPAE_clean_linker_10, # of connection points: 2
#     Edge 3, Type (0, 0), BuildingBlock: TEMPAE_clean_linker_10, # of connection points: 2
# Relax obj value: 0.000
# Max RMSD: 0.000
# Mean RMSD: 0.000
data_MOF--net-pcu--node1-BETDEL_clean_sbu_0--edge1-TEMPAE_clean_linker_10
_symmetry_space_group_name_H-M    P1
_symmetry_Int_Tables_number       1
_symmetry_cell_setting            triclinic
loop_
_symmetry_equiv_pos_as_xyz
'x, y, z'
_cell_length_a     15.597103
_cell_length_b     18.108157
_cell_length_c     14.686846
_cell_angle_alpha  98.472738
_cell_angle_beta   88.007717
_cell_angle_gamma 114.44319
loop_
_atom_site_label
_atom_site_type_symbol
_atom_site_fract_x
_atom_site_fract_y
_atom_site_fract_z
_atom_type_partial_charge
Dy0 Dy 0.02559 0.0836 0.02378 0.0
C1 C 0.9312 0.75244 0.04883 0.0
C2 C 0.03753 0.23908 0.03197 0.0
Dy3 Dy 0.94816 0.90176 0.01428 0.0
O4 O 0.00331 0.19167 0.09404 0.0
O5 O 0.06895 0.20252 0.9645 0.0
O6 O 0.09307 0.09513 0.15991 0.0
O7 O 0.95955 -0.0003 0.12435 0.0
C8 C 0.02512 0.03121 0.18483 0.0
C9 C 0.95047 0.94752 0.84912 0.0
O10 O 0.81686 0.91983 0.04871 0.0
O11 O 0.87363 0.03798 0.98218 0.0
O12 O 0.88358 0.7636 0.98536 0.0
O13 O 0.98395 0.82248 0.0959 0.0
O14 O 0.89054 0.87806 0.87112 0.0
O15 O 0.01278 0.98462 0.91239 0.0
O16 O 0.16404 0.07725 0.9964 0.0
O17 O 0.10462 0.93943 0.01346 0.0
C18 C 0.80303 0.97737 0.01355 0.0
C19 C 0.17574 0.00961 1.00213 0.0
C20 C 0.926 0.97733 0.31701 0.0
C21 C 0.01535 0.01388 0.28034 0.0
C22 C 0.9162 0.96778 0.41045 0.0
C23 C -0.0022 0.99316 0.46743 0.0
C24 C 0.0882 0.02763 0.42967 0.0
C25 C 0.09585 0.03869 0.33672 0.0
C26 C 0.81865 0.93224 0.44864 0.0
C27 C 0.17675 0.05293 0.48744 0.0
C28 C 0.97997 0.03638 0.72718 0.0
C29 C 0.96609 0.96101 0.75276 0.0
C30 C 0.98952 0.04765 0.63411 0.0
C31 C 0.98849 0.98278 0.56631 0.0
C32 C 0.97748 0.90739 0.59284 0.0
C33 C 0.96465 0.89695 0.68573 0.0
C34 C -0.00146 0.1281 0.60812 0.0
C35 C 0.9793 0.83782 0.52319 0.0
H36 H 0.86373 0.95877 0.27342 0.0
H37 H 0.16494 0.06666 0.30794 0.0
H38 H 0.80702 0.87548 0.47702 0.0
H39 H 0.81158 0.97639 0.50613 0.0
H40 H 0.76257 0.91747 0.39566 0.0
H41 H 0.24141 0.07517 0.44647 0.0
H42 H 0.18168 0.10239 0.54416 0.0
H43 H 0.17443 0.00034 0.51947 0.0
H44 H 0.98043 0.08547 0.77959 0.0
H45 H 0.95467 0.83887 0.70627 0.0
H46 H 0.94034 0.11708 0.55926 0.0
H47 H 0.06556 0.15705 0.57255 0.0
H48 H -0.00335 0.17178 0.66897 0.0
H49 H 0.91936 0.81631 0.47306 0.0
H50 H 0.9751 0.78495 0.55597 0.0
H51 H 0.04497 0.85937 0.48375 0.0
C52 C 0.34971 0.07638 0.0349 0.0
C53 C 0.26993 0.00914 0.99524 0.0
C54 C 0.43696 0.07108 0.03834 0.0
C55 C 0.44429 0.99753 0.99928 0.0
C56 C 0.36442 0.93073 0.95612 0.0
C57 C 0.27806 0.93709 0.95555 0.0
C58 C 0.52055 0.14314 0.08599 0.0
C59 C 0.36985 0.85216 0.9114 0.0
C60 C 0.68654 0.00921 0.93587 0.0
C61 C 0.70839 0.97612 1.00762 0.0
C62 C 0.60044 0.01572 0.93187 0.0
C63 C 0.53551 0.99026 1.00259 0.0
C64 C 0.55687 0.95617 0.07503 0.0
C65 C 0.64293 0.94853 0.07607 0.0
C66 C 0.57915 0.05003 0.85205 0.0
C67 C 0.48968 0.92939 0.15226 0.0
H68 H 0.34301 0.13167 0.06653 0.0
H69 H 0.2163 0.88515 0.92434 0.0
H70 H 0.54638 0.12435 0.1442 0.0
H71 H 0.5792 0.16379 0.03767 0.0
H72 H 0.50317 0.19579 0.11292 0.0
H73 H 0.30211 0.80746 0.87709 0.0
H74 H 0.42563 0.86553 0.85947 0.0
H75 H 0.38915 0.82306 0.96391 0.0
H76 H 0.73708 0.03013 0.88252 0.0
H77 H 0.66044 0.92387 0.13207 0.0
H78 H 0.56949 0.10677 0.87768 0.0
H79 H 0.51231 0.00537 0.81631 0.0
H80 H 0.63608 0.06456 0.80119 0.0
H81 H 0.47547 0.98177 0.18693 0.0
H82 H 0.51767 0.90578 0.20442 0.0
H83 H 0.4213 0.88064 0.12426 0.0
C84 C 0.01996 0.6786 0.09993 0.0
C85 C 0.94229 0.6759 0.05207 0.0
C86 C 0.03946 0.60917 0.09461 0.0
C87 C 0.97862 0.53484 0.04167 0.0
C88 C 0.89867 0.53126 0.99499 0.0
C89 C 0.88196 0.60225 1.00001 0.0
C90 C 0.12587 0.61568 0.14462 0.0
C91 C 0.83102 0.45254 0.93964 0.0
C92 C 0.06532 0.36752 0.96667 0.0
C93 C 0.02818 0.31716 0.03476 0.0
C94 C 0.05063 0.43936 0.96832 0.0
C95 C -0.00364 0.45995 0.0388 0.0
C96 C 0.95908 0.40912 0.10761 0.0
C97 C 0.97612 0.33885 0.10513 0.0
C98 C 0.09267 0.49302 0.89467 0.0
C99 C 0.89997 0.42827 0.18327 0.0
H100 H 0.06746 0.73585 0.13931 0.0
H101 H 0.82224 0.60034 0.96254 0.0
H102 H 0.10494 0.57285 0.19627 0.0
H103 H 0.17171 0.59768 0.0952 0.0
H104 H 0.16761 0.6787 0.1804 0.0
H105 H 0.77181 0.45986 0.9081 0.0
H106 H 0.86882 0.43093 0.88406 0.0
H107 H 0.80156 0.40398 0.9844 0.0
H108 H 0.10531 0.35062 0.91214 0.0
H109 H 0.94671 0.29979 0.15772 0.0
H110 H 0.13841 0.55626 0.92684 0.0
H111 H 0.0358 0.49684 0.85496 0.0
H112 H 0.13502 0.4696 0.84612 0.0
H113 H 0.94127 0.48908 0.22395 0.0
H114 H 0.8751 0.38168 0.23083 0.0
H115 H 0.83764 0.43142 0.15285 0.0
loop_
_geom_bond_atom_site_label_1
_geom_bond_atom_site_label_2
_geom_bond_distance
_geom_bond_site_symmetry_2
_ccdc_geom_bond_type
Dy0 O4 2.398 . S
Dy0 O5 2.491 1_554 S
Dy0 O6 2.403 . S
Dy0 O7 2.663 1_545 S
Dy0 O11 2.326 1_455 S
Dy0 O15 2.309 1_454 S
Dy0 O16 2.351 . S
C1 O12 1.185 . S
C1 O13 1.355 1_556 S
C2 O4 1.185 . S
C2 O5 1.355 1_554 S
Dy3 O7 2.309 1_656 S
Dy3 O10 2.351 . S
Dy3 O12 2.398 . S
Dy3 O13 2.491 1_556 S
Dy3 O14 2.403 . S
Dy3 O15 2.663 1_565 S
Dy3 O17 2.326 1_655 S
O4 Dy0 2.398 . S
O4 C2 1.185 . S
O5 Dy0 2.491 1_556 S
O5 C2 1.355 1_556 S
O6 Dy0 2.403 . S
O6 C8 1.254 . S
O7 Dy0 2.663 1_565 S
O7 Dy3 2.309 1_454 S
O7 C8 1.267 1_565 S
C8 O6 1.254 . S
C8 O7 1.267 1_545 S
C9 O14 1.254 . S
C9 O15 1.267 1_565 S
O10 Dy3 2.351 . S
O10 C18 1.249 1_556 S
O11 Dy0 2.326 1_655 S
O11 C18 1.267 1_545 S
O12 C1 1.185 . S
O12 Dy3 2.398 . S
O13 C1 1.355 1_554 S
O13 Dy3 2.491 1_554 S
O14 Dy3 2.403 . S
O14 C9 1.254 . S
O15 Dy0 2.309 1_656 S
O15 Dy3 2.663 1_545 S
O15 C9 1.267 1_545 S
O16 Dy0 2.351 . S
O16 C19 1.249 1_554 S
O17 Dy3 2.326 1_455 S
O17 C19 1.267 1_565 S
C18 O10 1.249 1_554 S
C18 O11 1.267 1_565 S
C19 O16 1.249 1_556 S
C19 O17 1.267 1_545 S
C20 C21 1.391 1_655 S
C20 C22 1.394 . S
C20 H36 0.931 . S
C21 C20 1.391 1_455 S
C21 C25 1.376 1_565 S
C22 C20 1.394 . S
C22 C23 1.369 1_655 S
C22 C26 1.531 . S
C23 C22 1.369 1_455 S
C23 C24 1.410 1_565 S
C23 C31 1.503 . S
C24 C23 1.410 1_545 S
C24 C25 1.392 . S
C24 C27 1.511 . S
C25 C21 1.376 1_545 S
C25 C24 1.392 . S
C25 H37 0.929 . S
C26 C22 1.531 . S
C26 H38 0.960 . S
C26 H39 0.962 . S
C26 H40 0.960 . S
C27 C24 1.511 . S
C27 H41 0.961 . S
C27 H42 0.961 . S
C27 H43 0.961 . S
C28 C29 1.370 1_645 S
C28 C30 1.363 . S
C28 H44 0.931 . S
C29 C28 1.370 1_465 S
C29 C33 1.408 . S
C30 C28 1.363 . S
C30 C31 1.370 1_645 S
C30 C34 1.524 . S
C31 C23 1.503 . S
C31 C30 1.370 1_465 S
C31 C32 1.403 . S
C32 C31 1.403 . S
C32 C33 1.404 . S
C32 C35 1.539 . S
C33 C29 1.408 . S
C33 C32 1.404 . S
C33 H45 0.930 . S
C34 C30 1.524 . S
C34 H46 0.956 . S
C34 H47 0.961 . S
C34 H48 0.961 . S
C35 C32 1.539 . S
C35 H49 0.958 . S
C35 H50 0.961 . S
C35 H51 0.960 . S
H36 C20 0.931 . S
H37 C25 0.929 . S
H38 C26 0.960 . S
H39 C26 0.962 . S
H40 C26 0.960 . S
H41 C27 0.961 . S
H42 C27 0.961 . S
H43 C27 0.961 . S
H44 C28 0.931 . S
H45 C33 0.930 . S
H46 C34 0.956 . S
H47 C34 0.961 . S
H48 C34 0.961 . S
H49 C35 0.958 . S
H50 C35 0.961 . S
H51 C35 0.960 . S
C52 C53 1.391 1_545 S
C52 C54 1.394 . S
C52 H68 0.931 . S
C53 C52 1.391 1_565 S
C53 C57 1.376 1_554 S
C54 C52 1.394 . S
C54 C55 1.369 1_545 S
C54 C58 1.531 . S
C55 C54 1.369 1_565 S
C55 C56 1.410 1_554 S
C55 C63 1.503 . S
C56 C55 1.410 1_556 S
C56 C57 1.392 . S
C56 C59 1.511 . S
C57 C53 1.376 1_556 S
C57 C56 1.392 . S
C57 H69 0.929 . S
C58 C54 1.531 . S
C58 H70 0.960 . S
C58 H71 0.962 . S
C58 H72 0.960 . S
C59 C56 1.511 . S
C59 H73 0.961 . S
C59 H74 0.961 . S
C59 H75 0.961 . S
C60 C61 1.370 1_546 S
C60 C62 1.363 . S
C60 H76 0.931 . S
C61 C60 1.370 1_564 S
C61 C65 1.408 . S
C62 C60 1.363 . S
C62 C63 1.370 1_546 S
C62 C66 1.524 . S
C63 C55 1.503 . S
C63 C62 1.370 1_564 S
C63 C64 1.403 . S
C64 C63 1.403 . S
C64 C65 1.404 . S
C64 C67 1.539 . S
C65 C61 1.408 . S
C65 C64 1.404 . S
C65 H77 0.930 . S
C66 C62 1.524 . S
C66 H78 0.956 . S
C66 H79 0.961 . S
C66 H80 0.961 . S
C67 C64 1.539 . S
C67 H81 0.958 . S
C67 H82 0.961 . S
C67 H83 0.960 . S
H68 C52 0.931 . S
H69 C57 0.929 . S
H70 C58 0.960 . S
H71 C58 0.962 . S
H72 C58 0.960 . S
H73 C59 0.961 . S
H74 C59 0.961 . S
H75 C59 0.961 . S
H76 C60 0.931 . S
H77 C65 0.930 . S
H78 C66 0.956 . S
H79 C66 0.961 . S
H80 C66 0.961 . S
H81 C67 0.958 . S
H82 C67 0.961 . S
H83 C67 0.960 . S
C84 C85 1.380 1_455 S
C84 C86 1.394 . S
C84 H100 0.931 . S
C85 C84 1.380 1_655 S
C85 C89 1.382 . S
C86 C84 1.394 . S
C86 C87 1.364 1_455 S
C86 C90 1.531 . S
C87 C86 1.364 1_655 S
C87 C88 1.419 . S
C87 C95 1.505 . S
C88 C87 1.419 . S
C88 C89 1.392 . S
C88 C91 1.511 . S
C89 C85 1.382 . S
C89 C88 1.392 . S
C89 H101 0.930 . S
C90 C86 1.531 . S
C90 H102 0.960 . S
C90 H103 0.962 1_554 S
C90 H104 0.960 . S
C91 C88 1.511 . S
C91 H105 0.961 1_554 S
C91 H106 0.961 1_554 S
C91 H107 0.961 . S
C92 C93 1.373 1_456 S
C92 C94 1.363 . S
C92 H108 0.931 . S
C93 C92 1.373 1_654 S
C93 C97 1.412 . S
C94 C92 1.363 . S
C94 C95 1.367 1_456 S
C94 C98 1.524 . S
C95 C87 1.505 . S
C95 C94 1.367 1_654 S
C95 C96 1.400 . S
C96 C95 1.400 . S
C96 C97 1.404 . S
C96 C99 1.539 . S
C97 C93 1.412 . S
C97 C96 1.404 . S
C97 H109 0.930 . S
C98 C94 1.524 . S
C98 H110 0.956 . S
C98 H111 0.961 1_455 S
C98 H112 0.961 . S
C99 C96 1.539 . S
C99 H113 0.958 1_655 S
C99 H114 0.961 . S
C99 H115 0.960 . S
H100 C84 0.931 . S
H101 C89 0.930 . S
H102 C90 0.960 . S
H103 C90 0.962 1_556 S
H104 C90 0.960 . S
H105 C91 0.961 1_556 S
H106 C91 0.961 1_556 S
H107 C91 0.961 . S
H108 C92 0.931 . S
H109 C97 0.930 . S
H110 C98 0.956 . S
H111 C98 0.961 1_655 S
H112 C98 0.961 . S
H113 C99 0.958 1_455 S
H114 C99 0.961 . S
H115 C99 0.960 . S
C21 C8 1.469 1_565 S
C29 C9 1.451 1_455 S
C53 C19 1.499 1_564 S
C61 C18 1.485 . S
C85 C1 1.488 1_554 S
C93 C2 1.474 1_655 S
