# Generated by pormake.
# Topology hcp, (12)-cn, num edge types: 1
# Building blocks:
#     Node 0, Type 0, BuildingBlock: EZIPEK_clean_sbu_0, # of connection points: 12
#     Node 1, Type 0, BuildingBlock: EZIPEK_clean_sbu_0, # of connection points: 12
#     Edge 2, Type (0, 0), BuildingBlock: EYOCIG_clean_linker_4, # of connection points: 2
#     Edge 3, Type (0, 0), BuildingBlock: EYOCIG_clean_linker_4, # of connection points: 2
#     Edge 4, Type (0, 0), BuildingBlock: EYOCIG_clean_linker_4, # of connection points: 2
#     Edge 5, Type (0, 0), BuildingBlock: EYOCIG_clean_linker_4, # of connection points: 2
#     Edge 6, Type (0, 0), BuildingBlock: EYOCIG_clean_linker_4, # of connection points: 2
#     Edge 7, Type (0, 0), BuildingBlock: EYOCIG_clean_linker_4, # of connection points: 2
#     Edge 8, Type (0, 0), BuildingBlock: EYOCIG_clean_linker_4, # of connection points: 2
#     Edge 9, Type (0, 0), BuildingBlock: EYOCIG_clean_linker_4, # of connection points: 2
#     Edge 10, Type (0, 0), BuildingBlock: EYOCIG_clean_linker_4, # of connection points: 2
#     Edge 11, Type (0, 0), BuildingBlock: EYOCIG_clean_linker_4, # of connection points: 2
#     Edge 12, Type (0, 0), BuildingBlock: EYOCIG_clean_linker_4, # of connection points: 2
#     Edge 13, Type (0, 0), BuildingBlock: EYOCIG_clean_linker_4, # of connection points: 2
# Relax obj value: 0.186
# Max RMSD: 0.270
# Mean RMSD: 0.270
data_MOF--net-hcp--node1-EZIPEK_clean_sbu_0--edge1-EYOCIG_clean_linker_4
_symmetry_space_group_name_H-M    P1
_symmetry_Int_Tables_number       1
_symmetry_cell_setting            triclinic
loop_
_symmetry_equiv_pos_as_xyz
'x, y, z'
_cell_length_a     15.682713
_cell_length_b     15.590085
_cell_length_c     23.805503
_cell_angle_alpha  90.028944
_cell_angle_beta   89.945633
_cell_angle_gamma 119.83494
loop_
_atom_site_label
_atom_site_type_symbol
_atom_site_fract_x
_atom_site_fract_y
_atom_site_fract_z
_atom_type_partial_charge
C0 C 0.6698 0.039 0.30672 0.0
C1 C 0.87926 0.42371 0.15639 0.0
C2 C 0.48824 0.21683 0.46716 0.0
C3 C 0.65485 0.6161 0.3036 0.0
C4 C 0.36019 0.31629 0.30681 0.0
C5 C 0.53302 0.10645 0.15642 0.0
C6 C 0.71511 0.50037 0.4669 0.0
C7 C 0.94512 0.33188 0.30434 0.0
C8 C 0.94325 0.62816 0.30663 0.0
C9 C 0.56255 0.45466 0.15614 0.0
C10 C 0.77235 0.27173 0.46717 0.0
C11 C 0.37528 0.04133 0.30503 0.0
Eu12 Eu 0.7298 0.24808 0.24061 0.0
O13 O 0.65874 0.3287 0.21008 0.0
O14 O 0.73488 0.2619 0.33143 0.0
Eu15 Eu 0.50813 0.25708 0.24057 0.0
Eu16 Eu 0.80763 0.41168 0.36551 0.0
O17 O 0.58798 0.1898 0.27593 0.0
O18 O 0.79483 0.39566 0.27557 0.0
Eu19 Eu 0.59169 0.17816 0.36598 0.0
Eu20 Eu 0.73741 0.48073 0.24011 0.0
O21 O 0.51752 0.2534 0.33135 0.0
O22 O 0.59098 0.40035 0.27542 0.0
O23 O 0.72443 0.47272 0.33094 0.0
O24 O 0.65794 0.32918 0.39052 0.0
Eu25 Eu 0.57596 0.39795 0.36547 0.0
O26 O 0.70968 0.09754 0.2623 0.0
O27 O 0.83376 0.32845 0.1698 0.0
O28 O 0.51967 0.31179 0.45198 0.0
O29 O 0.59793 0.54887 0.34174 0.0
O30 O 0.37855 0.27617 0.26244 0.0
O31 O 0.48415 0.15282 0.16965 0.0
O32 O 0.77689 0.46688 0.4522 0.0
O33 O 0.93536 0.38987 0.34199 0.0
O34 O 0.88598 0.60993 0.26193 0.0
O35 O 0.65737 0.50399 0.16908 0.0
O36 O 0.67793 0.20834 0.45233 0.0
O37 O 0.44196 0.05084 0.34302 0.0
O38 O 0.65262 0.50535 0.43245 0.0
O39 O 0.4195 0.36 0.35016 0.0
O40 O 0.8799 0.27423 0.26585 0.0
O41 O 0.62282 0.13016 0.17617 0.0
O42 O 0.85502 0.4902 0.17589 0.0
O43 O 0.7113 0.60667 0.2648 0.0
O44 O 0.62766 0.05657 0.3504 0.0
O45 O 0.48602 0.14907 0.43357 0.0
O46 O 0.38401 0.10666 0.26604 0.0
O47 O 0.49695 0.36445 0.17616 0.0
O48 O 0.83899 0.3367 0.43322 0.0
O49 O 0.92629 0.56876 0.3503 0.0
C50 C 0.30756 0.3617 0.80605 0.0
C51 C 0.10246 0.53749 0.65576 0.0
C52 C 0.49449 0.71779 0.96678 0.0
C53 C 0.32983 0.95058 0.80423 0.0
C54 C 0.26833 0.7775 0.96676 0.0
C55 C 0.03646 0.37915 0.80402 0.0
C56 C 0.62317 0.94674 0.80598 0.0
C57 C 0.448 0.56389 0.65571 0.0
C58 C 0.42106 0.88487 0.65605 0.0
C59 C 0.03975 0.67806 0.80602 0.0
C60 C 0.60613 0.65596 0.80422 0.0
C61 C 0.20877 0.49049 0.96657 0.0
Eu62 Eu 0.2513 0.51108 0.73964 0.0
O63 O 0.18602 0.59273 0.77511 0.0
O64 O 0.39318 0.59315 0.7751 0.0
Eu65 Eu 0.17433 0.59641 0.86518 0.0
Eu66 Eu 0.4746 0.74012 0.7397 0.0
O67 O 0.2468 0.51978 0.8305 0.0
O68 O 0.32409 0.6624 0.70895 0.0
Eu69 Eu 0.3896 0.57771 0.86518 0.0
Eu70 Eu 0.24563 0.73512 0.73969 0.0
O71 O 0.32381 0.66208 0.89053 0.0
O72 O 0.25942 0.74016 0.83057 0.0
O73 O 0.39182 0.79976 0.77522 0.0
O74 O 0.46615 0.72684 0.83057 0.0
Eu75 Eu 0.40784 0.81214 0.86525 0.0
O76 O 0.26903 0.3806 0.76137 0.0
O77 O 0.14782 0.48759 0.66882 0.0
O78 O 0.46459 0.78242 0.95153 0.0
O79 O 0.38721 0.9407 0.84188 0.0
O80 O 0.20457 0.6829 0.95163 0.0
O81 O 0.04667 0.4465 0.84207 0.0
O82 O 0.60436 0.88882 0.76132 0.0
O83 O 0.49776 0.65916 0.66885 0.0
O84 O 0.32622 0.83951 0.66905 0.0
O85 O 0.0974 0.71701 0.76137 0.0
O86 O 0.53903 0.59893 0.84217 0.0
O87 O 0.30302 0.52104 0.95149 0.0
O88 O 0.56433 0.9305 0.84969 0.0
O89 O 0.33382 0.84434 0.93308 0.0
O90 O 0.35782 0.49856 0.67544 0.0
O91 O 0.10112 0.38723 0.76498 0.0
O92 O 0.1272 0.62817 0.67552 0.0
O93 O 0.27258 0.88565 0.76554 0.0
O94 O 0.35032 0.42054 0.84969 0.0
O95 O 0.49415 0.6506 0.93352 0.0
O96 O 0.14239 0.49015 0.93302 0.0
O97 O 0.05627 0.63549 0.84976 0.0
O98 O 0.59796 0.71281 0.76517 0.0
O99 O 0.48635 0.85965 0.67577 0.0
C100 C 0.34107 0.86922 0.06108 0.0
C101 C 0.28997 0.81062 1.02475 0.0
C102 C 0.41572 0.94788 0.09449 0.0
C103 C 0.47657 0.01772 0.12221 0.0
C104 C 0.56447 0.52096 0.5941 0.0
C105 C 0.50385 0.53063 0.62167 0.0
C106 C 0.63915 0.51651 0.5609 0.0
C107 C 0.69083 0.50937 0.52478 0.0
C108 C 0.03739 0.4648 0.09434 0.0
C109 C 0.96758 0.45563 0.12212 0.0
C110 C 0.11628 0.46943 0.06084 0.0
C111 C 0.17517 0.47769 1.02453 0.0
C112 C 0.46359 0.04486 0.59466 0.0
C113 C 0.45387 0.9742 0.62217 0.0
C114 C 0.4685 0.12452 0.56143 0.0
C115 C 0.47657 0.1837 0.52518 0.0
C116 C 0.52079 0.57217 0.09442 0.0
C117 C 0.53014 0.51122 0.12209 0.0
C118 C 0.51613 0.64688 0.06106 0.0
C119 C 0.50781 0.69769 1.02475 0.0
C120 C 0.86474 0.34545 0.56116 0.0
C121 C 0.80585 0.29402 0.52508 0.0
C122 C 0.94374 0.42032 0.59431 0.0
C123 C 0.01376 0.48122 0.62182 0.0
C124 C 0.66593 0.86788 0.30646 0.0
C125 C 0.66794 0.94614 0.30632 0.0
C126 C 0.66186 0.78866 0.30605 0.0
C127 C 0.658 0.70953 0.30538 0.0
C128 C 0.87061 0.67371 0.80669 0.0
C129 C 0.94828 0.67641 0.80563 0.0
C130 C 0.77768 0.66571 0.80713 0.0
C131 C 0.69856 0.65984 0.80675 0.0
C132 C 0.20414 0.8791 0.30775 0.0
C133 C 0.28294 0.9527 0.30726 0.0
C134 C 0.11178 0.79351 0.30749 0.0
C135 C 0.03446 0.71818 0.30652 0.0
C136 C 0.3111 0.19659 0.80694 0.0
C137 C 0.30871 0.27176 0.80572 0.0
C138 C 0.31944 0.11195 0.80743 0.0
C139 C 0.3257 0.03885 0.80695 0.0
C140 C 0.1942 0.31826 0.30733 0.0
C141 C 0.26989 0.31694 0.30666 0.0
C142 C 0.10798 0.324 0.30717 0.0
C143 C 0.03397 0.32852 0.30647 0.0
C144 C 0.87424 0.20778 0.80685 0.0
C145 C 0.94785 0.2867 0.80631 0.0
C146 C 0.78861 0.1153 0.80667 0.0
C147 C 0.71324 0.03795 0.80576 0.0
loop_
_geom_bond_atom_site_label_1
_geom_bond_atom_site_label_2
_geom_bond_distance
_geom_bond_site_symmetry_2
_ccdc_geom_bond_type
C0 O26 1.283 . S
C0 O44 1.283 . S
C1 O27 1.283 . S
C1 O42 1.283 . S
C2 O28 1.283 . S
C2 O45 1.283 . S
C3 O29 1.283 . S
C3 O43 1.283 . S
C4 O30 1.283 . S
C4 O39 1.283 . S
C5 O31 1.283 . S
C5 O41 1.283 . S
C6 O32 1.283 . S
C6 O38 1.283 . S
C7 O33 1.283 . S
C7 O40 1.283 . S
C8 O34 1.283 . S
C8 O49 1.283 . S
C9 O35 1.283 . S
C9 O47 1.283 . S
C10 O36 1.283 . S
C10 O48 1.283 . S
C11 O37 1.283 . S
C11 O46 1.283 . S
Eu12 O13 2.370 . S
Eu12 O14 2.370 . S
Eu12 O17 2.370 . S
Eu12 O18 2.370 . S
Eu12 O26 2.363 . S
Eu12 O27 2.363 . S
Eu12 O40 2.363 . S
Eu12 O41 2.363 . S
O13 Eu12 2.370 . S
O13 Eu15 2.370 . S
O13 Eu20 2.370 . S
O14 Eu12 2.370 . S
O14 Eu16 2.370 . S
O14 Eu19 2.370 . S
Eu15 O13 2.370 . S
Eu15 O17 2.370 . S
Eu15 O21 2.370 . S
Eu15 O22 2.370 . S
Eu15 O30 2.363 . S
Eu15 O31 2.363 . S
Eu15 O46 2.363 . S
Eu15 O47 2.363 . S
Eu16 O14 2.370 . S
Eu16 O18 2.370 . S
Eu16 O23 2.370 . S
Eu16 O24 2.370 . S
Eu16 O32 2.363 . S
Eu16 O33 2.363 . S
Eu16 O48 2.363 . S
Eu16 O49 2.363 . S
O17 Eu12 2.370 . S
O17 Eu15 2.370 . S
O17 Eu19 2.370 . S
O18 Eu12 2.370 . S
O18 Eu16 2.370 . S
O18 Eu20 2.370 . S
Eu19 O14 2.370 . S
Eu19 O17 2.370 . S
Eu19 O21 2.370 . S
Eu19 O24 2.370 . S
Eu19 O36 2.363 . S
Eu19 O37 2.363 . S
Eu19 O44 2.363 . S
Eu19 O45 2.363 . S
Eu20 O13 2.370 . S
Eu20 O18 2.370 . S
Eu20 O22 2.370 . S
Eu20 O23 2.370 . S
Eu20 O34 2.363 . S
Eu20 O35 2.363 . S
Eu20 O42 2.363 . S
Eu20 O43 2.363 . S
O21 Eu15 2.370 . S
O21 Eu19 2.370 . S
O21 Eu25 2.370 . S
O22 Eu15 2.370 . S
O22 Eu20 2.370 . S
O22 Eu25 2.370 . S
O23 Eu16 2.370 . S
O23 Eu20 2.370 . S
O23 Eu25 2.370 . S
O24 Eu16 2.370 . S
O24 Eu19 2.370 . S
O24 Eu25 2.370 . S
Eu25 O21 2.370 . S
Eu25 O22 2.370 . S
Eu25 O23 2.370 . S
Eu25 O24 2.370 . S
Eu25 O28 2.363 . S
Eu25 O29 2.363 . S
Eu25 O38 2.363 . S
Eu25 O39 2.363 . S
O26 C0 1.283 . S
O26 Eu12 2.363 . S
O27 C1 1.283 . S
O27 Eu12 2.363 . S
O28 C2 1.283 . S
O28 Eu25 2.363 . S
O29 C3 1.283 . S
O29 Eu25 2.363 . S
O30 C4 1.283 . S
O30 Eu15 2.363 . S
O31 C5 1.283 . S
O31 Eu15 2.363 . S
O32 C6 1.283 . S
O32 Eu16 2.363 . S
O33 C7 1.283 . S
O33 Eu16 2.363 . S
O34 C8 1.283 . S
O34 Eu20 2.363 . S
O35 C9 1.283 . S
O35 Eu20 2.363 . S
O36 C10 1.283 . S
O36 Eu19 2.363 . S
O37 C11 1.283 . S
O37 Eu19 2.363 . S
O38 C6 1.283 . S
O38 Eu25 2.363 . S
O39 C4 1.283 . S
O39 Eu25 2.363 . S
O40 C7 1.283 . S
O40 Eu12 2.363 . S
O41 C5 1.283 . S
O41 Eu12 2.363 . S
O42 C1 1.283 . S
O42 Eu20 2.363 . S
O43 C3 1.283 . S
O43 Eu20 2.363 . S
O44 C0 1.283 . S
O44 Eu19 2.363 . S
O45 C2 1.283 . S
O45 Eu19 2.363 . S
O46 C11 1.283 . S
O46 Eu15 2.363 . S
O47 C9 1.283 . S
O47 Eu15 2.363 . S
O48 C10 1.283 . S
O48 Eu16 2.363 . S
O49 C8 1.283 . S
O49 Eu16 2.363 . S
C50 O76 1.283 . S
C50 O94 1.283 . S
C51 O77 1.283 . S
C51 O92 1.283 . S
C52 O78 1.283 . S
C52 O95 1.283 . S
C53 O79 1.283 . S
C53 O93 1.283 . S
C54 O80 1.283 . S
C54 O89 1.283 . S
C55 O81 1.283 . S
C55 O91 1.283 . S
C56 O82 1.283 . S
C56 O88 1.283 . S
C57 O83 1.283 . S
C57 O90 1.283 . S
C58 O84 1.283 . S
C58 O99 1.283 . S
C59 O85 1.283 . S
C59 O97 1.283 . S
C60 O86 1.283 . S
C60 O98 1.283 . S
C61 O87 1.283 . S
C61 O96 1.283 . S
Eu62 O63 2.370 . S
Eu62 O64 2.370 . S
Eu62 O67 2.370 . S
Eu62 O68 2.370 . S
Eu62 O76 2.363 . S
Eu62 O77 2.363 . S
Eu62 O90 2.363 . S
Eu62 O91 2.363 . S
O63 Eu62 2.370 . S
O63 Eu65 2.370 . S
O63 Eu70 2.370 . S
O64 Eu62 2.370 . S
O64 Eu66 2.370 . S
O64 Eu69 2.370 . S
Eu65 O63 2.370 . S
Eu65 O67 2.370 . S
Eu65 O71 2.370 . S
Eu65 O72 2.370 . S
Eu65 O80 2.363 . S
Eu65 O81 2.363 . S
Eu65 O96 2.363 . S
Eu65 O97 2.363 . S
Eu66 O64 2.370 . S
Eu66 O68 2.370 . S
Eu66 O73 2.370 . S
Eu66 O74 2.370 . S
Eu66 O82 2.363 . S
Eu66 O83 2.363 . S
Eu66 O98 2.363 . S
Eu66 O99 2.363 . S
O67 Eu62 2.370 . S
O67 Eu65 2.370 . S
O67 Eu69 2.370 . S
O68 Eu62 2.370 . S
O68 Eu66 2.370 . S
O68 Eu70 2.370 . S
Eu69 O64 2.370 . S
Eu69 O67 2.370 . S
Eu69 O71 2.370 . S
Eu69 O74 2.370 . S
Eu69 O86 2.363 . S
Eu69 O87 2.363 . S
Eu69 O94 2.363 . S
Eu69 O95 2.363 . S
Eu70 O63 2.370 . S
Eu70 O68 2.370 . S
Eu70 O72 2.370 . S
Eu70 O73 2.370 . S
Eu70 O84 2.363 . S
Eu70 O85 2.363 . S
Eu70 O92 2.363 . S
Eu70 O93 2.363 . S
O71 Eu65 2.370 . S
O71 Eu69 2.370 . S
O71 Eu75 2.370 . S
O72 Eu65 2.370 . S
O72 Eu70 2.370 . S
O72 Eu75 2.370 . S
O73 Eu66 2.370 . S
O73 Eu70 2.370 . S
O73 Eu75 2.370 . S
O74 Eu66 2.370 . S
O74 Eu69 2.370 . S
O74 Eu75 2.370 . S
Eu75 O71 2.370 . S
Eu75 O72 2.370 . S
Eu75 O73 2.370 . S
Eu75 O74 2.370 . S
Eu75 O78 2.363 . S
Eu75 O79 2.363 . S
Eu75 O88 2.363 . S
Eu75 O89 2.363 . S
O76 C50 1.283 . S
O76 Eu62 2.363 . S
O77 C51 1.283 . S
O77 Eu62 2.363 . S
O78 C52 1.283 . S
O78 Eu75 2.363 . S
O79 C53 1.283 . S
O79 Eu75 2.363 . S
O80 C54 1.283 . S
O80 Eu65 2.363 . S
O81 C55 1.283 . S
O81 Eu65 2.363 . S
O82 C56 1.283 . S
O82 Eu66 2.363 . S
O83 C57 1.283 . S
O83 Eu66 2.363 . S
O84 C58 1.283 . S
O84 Eu70 2.363 . S
O85 C59 1.283 . S
O85 Eu70 2.363 . S
O86 C60 1.283 . S
O86 Eu69 2.363 . S
O87 C61 1.283 . S
O87 Eu69 2.363 . S
O88 C56 1.283 . S
O88 Eu75 2.363 . S
O89 C54 1.283 . S
O89 Eu75 2.363 . S
O90 C57 1.283 . S
O90 Eu62 2.363 . S
O91 C55 1.283 . S
O91 Eu62 2.363 . S
O92 C51 1.283 . S
O92 Eu70 2.363 . S
O93 C53 1.283 . S
O93 Eu70 2.363 . S
O94 C50 1.283 . S
O94 Eu69 2.363 . S
O95 C52 1.283 . S
O95 Eu69 2.363 . S
O96 C61 1.283 . S
O96 Eu65 2.363 . S
O97 C59 1.283 . S
O97 Eu65 2.363 . S
O98 C60 1.283 . S
O98 Eu66 2.363 . S
O99 C58 1.283 . S
O99 Eu66 2.363 . S
C100 C101 1.170 . S
C100 C102 1.380 1_556 S
C101 C100 1.170 . S
C102 C100 1.380 1_554 S
C102 C103 1.170 1_565 S
C103 C102 1.170 1_545 S
C104 C105 1.170 . S
C104 C106 1.380 . S
C105 C104 1.170 . S
C106 C104 1.380 . S
C106 C107 1.170 . S
C107 C106 1.170 . S
C108 C109 1.170 1_455 S
C108 C110 1.380 1_554 S
C109 C108 1.170 1_655 S
C110 C108 1.380 1_556 S
C110 C111 1.170 . S
C111 C110 1.170 . S
C112 C113 1.170 1_545 S
C112 C114 1.380 . S
C113 C112 1.170 1_565 S
C114 C112 1.380 . S
C114 C115 1.170 . S
C115 C114 1.170 . S
C116 C117 1.170 . S
C116 C118 1.380 1_554 S
C117 C116 1.170 . S
C118 C116 1.380 1_556 S
C118 C119 1.170 . S
C119 C118 1.170 . S
C120 C121 1.170 . S
C120 C122 1.380 . S
C121 C120 1.170 . S
C122 C120 1.380 . S
C122 C123 1.170 1_655 S
C123 C122 1.170 1_455 S
C124 C125 1.170 . S
C124 C126 1.380 . S
C125 C124 1.170 . S
C126 C124 1.380 . S
C126 C127 1.170 . S
C127 C126 1.170 . S
C128 C129 1.170 . S
C128 C130 1.380 . S
C129 C128 1.170 . S
C130 C128 1.380 . S
C130 C131 1.170 . S
C131 C130 1.170 . S
C132 C133 1.170 . S
C132 C134 1.380 . S
C133 C132 1.170 . S
C134 C132 1.380 . S
C134 C135 1.170 . S
C135 C134 1.170 . S
C136 C137 1.170 . S
C136 C138 1.380 . S
C137 C136 1.170 . S
C138 C136 1.380 . S
C138 C139 1.170 . S
C139 C138 1.170 . S
C140 C141 1.170 . S
C140 C142 1.380 . S
C141 C140 1.170 . S
C142 C140 1.380 . S
C142 C143 1.170 . S
C143 C142 1.170 . S
C144 C145 1.170 . S
C144 C146 1.380 . S
C145 C144 1.170 . S
C146 C144 1.380 . S
C146 C147 1.170 . S
C147 C146 1.170 . S
C101 C54 1.912 . S
C103 C5 2.052 . S
C105 C57 2.075 . S
C107 C6 1.893 . S
C109 C1 2.056 . S
C111 C61 1.901 . S
C113 C58 2.054 . S
C115 C2 1.922 . S
C117 C9 2.055 . S
C119 C52 1.904 . S
C121 C10 1.906 . S
C123 C51 2.069 . S
C125 C0 1.201 1_565 S
C127 C3 1.233 . S
C129 C59 1.231 1_655 S
C131 C60 1.200 . S
C133 C11 1.232 1_565 S
C135 C8 1.200 1_455 S
C137 C50 1.224 . S
C139 C53 1.221 1_545 S
C141 C4 1.232 . S
C143 C7 1.209 1_455 S
C145 C55 1.200 1_655 S
C147 C56 1.231 1_545 S
