# Generated by pormake.
# Topology cds, (4)-cn, num edge types: 1
# Building blocks:
#     Node 0, Type 0, BuildingBlock: NAWXER_clean_sbu_0, # of connection points: 4
#     Node 1, Type 0, BuildingBlock: NAWXER_clean_sbu_0, # of connection points: 4
#     Edge 2, Type (0, 0), BuildingBlock: KIFKEQ_clean_linker_1, # of connection points: 2
#     Edge 3, Type (0, 0), BuildingBlock: KIFKEQ_clean_linker_1, # of connection points: 2
#     Edge 4, Type (0, 0), BuildingBlock: KIFKEQ_clean_linker_1, # of connection points: 2
#     Edge 5, Type (0, 0), BuildingBlock: KIFKEQ_clean_linker_1, # of connection points: 2
# Relax obj value: 0.000
# Max RMSD: 0.000
# Mean RMSD: 0.000
data_MOF--net-cds--node1-NAWXER_clean_sbu_0--edge1-KIFKEQ_clean_linker_1
_symmetry_space_group_name_H-M    P1
_symmetry_Int_Tables_number       1
_symmetry_cell_setting            triclinic
loop_
_symmetry_equiv_pos_as_xyz
'x, y, z'
_cell_length_a     14.962876
_cell_length_b     14.945791
_cell_length_c     29.656176
_cell_angle_alpha  95.850533
_cell_angle_beta   95.433479
_cell_angle_gamma 89.180334
loop_
_atom_site_label
_atom_site_type_symbol
_atom_site_fract_x
_atom_site_fract_y
_atom_site_fract_z
_atom_type_partial_charge
C0 C 0.24168 0.14845 0.02222 0.0
C1 C 0.91565 0.14864 0.02522 0.0
O2 O 0.20771 0.0694 0.01679 0.0
Zn3 Zn 0.07895 1.00808 0.01396 0.0
O4 O 0.19078 0.21657 0.02831 0.0
Zn5 Zn 0.0785 0.1508 0.02388 0.0
O6 O 0.09069 0.08353 0.08542 0.0
O7 O 0.08966 0.93736 0.06483 0.0
O8 O 0.96638 0.21701 0.02864 0.0
O9 O 0.94979 0.06955 0.01964 0.0
O10 O 0.06764 0.94545 0.95383 0.0
O11 O 0.06406 0.09313 0.95366 0.0
C12 C 0.09358 1.00232 0.09609 0.0
C13 C 0.06131 0.01427 0.93188 0.0
C14 C 0.87376 0.11028 0.50014 0.0
C15 C 0.87506 0.78214 0.49177 0.0
O16 O 0.95275 0.07643 0.50597 0.0
Zn17 Zn 0.01465 0.94628 0.50663 0.0
O18 O 0.80613 0.05853 0.49259 0.0
Zn19 Zn 0.87245 0.94634 0.49588 0.0
O20 O 0.92724 0.9557 0.56633 0.0
O21 O 0.07485 0.9502 0.567 0.0
O22 O 0.80693 0.83376 0.48911 0.0
O23 O 0.95398 0.81616 0.49789 0.0
O24 O 0.0874 0.94324 0.45639 0.0
O25 O 0.94204 0.93917 0.43492 0.0
C26 C 1.00521 0.95586 0.58853 0.0
C27 C 0.02361 0.93928 0.4248 0.0
H28 H 0.14166 0.11905 0.17107 0.0
H29 H 0.05001 0.84734 0.13045 0.0
H30 H 0.13326 0.09532 0.25085 0.0
H31 H 0.04074 0.82423 0.21036 0.0
H32 H 0.91095 0.88823 0.34909 0.0
H33 H 0.93778 0.89571 0.26962 0.0
H34 H 0.20447 0.99702 0.31199 0.0
H35 H 0.17825 0.98862 0.39169 0.0
C36 C 0.12051 0.05403 0.17919 0.0
C37 C 0.09617 0.98518 0.14447 0.0
C38 C 0.11619 0.04036 0.22486 0.0
C39 C 0.08611 0.95805 0.23669 0.0
C40 C 0.06366 0.88849 0.20209 0.0
C41 C 0.06939 0.90164 0.15643 0.0
C42 C 0.97562 0.91133 0.34147 0.0
C43 C 0.04239 0.93813 0.37665 0.0
C44 C 0.99111 0.91508 0.29598 0.0
C45 C 0.07315 0.94701 0.28474 0.0
C46 C 0.14049 0.97253 0.3198 0.0
C47 C 0.12557 0.96734 0.36533 0.0
H48 H 1.00184 0.13972 0.87523 0.0
H49 H 0.09971 0.86623 0.87471 0.0
H50 H 0.98782 0.12411 0.79204 0.0
H51 H 0.08668 0.85132 0.79138 0.0
H52 H 0.15061 0.91406 0.64581 0.0
H53 H 0.16318 0.92624 0.72911 0.0
H54 H 0.89145 0.02731 0.72819 0.0
H55 H 0.87814 0.01416 0.64503 0.0
C56 C 0.02045 0.07634 0.85737 0.0
C57 C 0.05181 1.00416 0.88151 0.0
C58 C 0.01204 0.06737 0.80979 0.0
C59 C 0.03627 0.98658 0.7854 0.0
C60 C 0.06811 0.91451 0.80944 0.0
C61 C 0.07505 0.92293 0.85706 0.0
C62 C 0.09356 0.93881 0.66339 0.0
C63 C 0.01339 0.96316 0.63888 0.0
C64 C 0.10065 0.94528 0.71099 0.0
C65 C 0.02828 0.97774 0.73496 0.0
C66 C 0.94838 1.00259 0.7105 0.0
C67 C 0.94073 0.99466 0.66293 0.0
H68 H 0.80761 0.2969 0.01299 0.0
H69 H 0.80219 0.02081 0.04382 0.0
H70 H 0.64335 0.30426 0.01168 0.0
H71 H 0.64054 0.0289 0.04403 0.0
H72 H 0.3557 0.02443 0.98644 0.0
H73 H 0.51731 0.03269 0.98738 0.0
H74 H 0.51334 0.30106 0.05694 0.0
H75 H 0.34912 0.29373 0.0546 0.0
C76 C 0.77152 0.2383 0.01997 0.0
C77 C 0.81762 0.15785 0.02777 0.0
C78 C 0.67762 0.24257 0.01939 0.0
C79 C 0.62859 0.16662 0.02689 0.0
C80 C 0.67569 0.08784 0.03672 0.0
C81 C 0.76867 0.08333 0.03683 0.0
C82 C 0.38895 0.08546 1.00189 0.0
C83 C 0.33968 0.15799 0.021 0.0
C84 C 0.48192 0.09003 1.00264 0.0
C85 C 0.52868 0.1668 0.02312 0.0
C86 C 0.47933 0.24095 0.04089 0.0
C87 C 0.38545 0.23668 0.03971 0.0
H88 H 1.0031 0.65679 0.47419 0.0
H89 H 0.72593 0.68396 0.50322 0.0
H90 H 0.99467 0.49536 0.47567 0.0
H91 H 0.71812 0.5208 0.5061 0.0
H92 H 0.72981 0.20827 0.46634 0.0
H93 H 0.72297 0.37142 0.4623 0.0
H94 H 0.98803 0.3972 0.53396 0.0
H95 H 0.99579 0.23579 0.53672 0.0
C96 C 0.94021 0.6282 0.48099 0.0
C97 C 0.86549 0.68331 0.48913 0.0
C98 C 0.93552 0.5355 0.48212 0.0
C99 C 0.8563 0.49521 0.492 0.0
C100 C 0.78014 0.54975 0.49839 0.0
C101 C 0.78465 0.6431 0.49685 0.0
C102 C 0.78615 0.2492 0.48146 0.0
C103 C 0.86384 0.2091 0.50126 0.0
C104 C 0.78218 0.34255 0.47925 0.0
C105 C 0.85568 0.39717 0.49701 0.0
C106 C 0.93128 0.35699 0.51869 0.0
C107 C 0.93553 0.2643 0.52053 0.0
loop_
_geom_bond_atom_site_label_1
_geom_bond_atom_site_label_2
_geom_bond_distance
_geom_bond_site_symmetry_2
_ccdc_geom_bond_type
C0 O2 1.251 1_554 S
C0 O4 1.257 1_565 S
C1 O8 1.251 1_556 S
C1 O9 1.254 1_545 S
O2 C0 1.251 1_556 S
O2 Zn3 2.025 . S
Zn3 O2 2.025 . S
Zn3 O7 2.035 1_556 S
Zn3 O9 2.036 1_455 S
Zn3 O10 2.028 1_455 S
O4 C0 1.257 1_545 S
O4 Zn5 2.036 . S
Zn5 O4 2.036 . S
Zn5 O6 2.028 . S
Zn5 O8 2.027 1_455 S
Zn5 O11 2.035 1_454 S
O6 Zn5 2.028 . S
O6 C12 1.251 . S
O7 Zn3 2.035 1_554 S
O7 C12 1.254 1_565 S
O8 C1 1.251 1_554 S
O8 Zn5 2.027 1_655 S
O9 C1 1.254 1_565 S
O9 Zn3 2.036 1_655 S
O10 Zn3 2.028 1_655 S
O10 C13 1.248 . S
O11 Zn5 2.035 1_656 S
O11 C13 1.257 1_545 S
C12 O6 1.251 . S
C12 O7 1.254 1_545 S
C13 O10 1.248 . S
C13 O11 1.257 1_565 S
C14 O16 1.251 . S
C14 O18 1.254 1_455 S
C15 O22 1.248 . S
C15 O23 1.257 1_655 S
O16 C14 1.251 . S
O16 Zn17 2.028 . S
Zn17 O16 2.028 . S
Zn17 O21 2.035 . S
Zn17 O23 2.035 1_545 S
Zn17 O24 2.028 1_545 S
O18 C14 1.254 1_655 S
O18 Zn19 2.023 1_545 S
Zn19 O18 2.023 1_565 S
Zn19 O20 2.029 1_565 S
Zn19 O22 2.040 . S
Zn19 O25 2.034 . S
O20 Zn19 2.029 1_545 S
O20 C26 1.248 . S
O21 Zn17 2.035 . S
O21 C26 1.256 1_455 S
O22 C15 1.248 . S
O22 Zn19 2.040 . S
O23 C15 1.257 1_455 S
O23 Zn17 2.035 1_565 S
O24 Zn17 2.028 1_565 S
O24 C27 1.251 . S
O25 Zn19 2.034 . S
O25 C27 1.254 1_655 S
C26 O20 1.248 . S
C26 O21 1.256 1_655 S
C27 O24 1.251 . S
C27 O25 1.254 1_455 S
H28 C36 0.950 . S
H29 C41 0.950 . S
H30 C38 0.950 . S
H31 C40 0.950 . S
H32 C42 0.950 . S
H33 C44 0.950 . S
H34 C46 0.950 . S
H35 C47 0.950 . S
C36 H28 0.950 . S
C36 C37 1.388 1_455 S
C36 C38 1.391 . S
C37 C36 1.388 1_655 S
C37 C41 1.390 1_545 S
C38 H30 0.950 . S
C38 C36 1.391 . S
C38 C39 1.402 1_455 S
C39 C38 1.402 1_655 S
C39 C40 1.397 1_545 S
C39 C45 1.490 1_645 S
C40 H31 0.950 . S
C40 C39 1.397 1_565 S
C40 C41 1.391 . S
C41 H29 0.950 . S
C41 C37 1.390 1_565 S
C41 C40 1.391 . S
C42 H32 0.950 . S
C42 C43 1.386 1_655 S
C42 C44 1.391 . S
C43 C42 1.386 1_455 S
C43 C47 1.393 1_565 S
C44 H33 0.950 . S
C44 C42 1.391 . S
C44 C45 1.399 1_655 S
C45 C39 1.490 1_465 S
C45 C44 1.399 1_455 S
C45 C46 1.399 1_565 S
C46 H34 0.950 . S
C46 C45 1.399 1_545 S
C46 C47 1.391 . S
C47 H35 0.950 . S
C47 C43 1.393 1_545 S
C47 C46 1.391 . S
H48 C56 0.950 . S
H49 C61 0.950 . S
H50 C58 0.950 . S
H51 C60 0.950 . S
H52 C62 0.950 . S
H53 C64 0.950 . S
H54 C66 0.950 . S
H55 C67 0.950 . S
C56 H48 0.950 . S
C56 C57 1.386 1_655 S
C56 C58 1.391 . S
C57 C56 1.386 1_455 S
C57 C61 1.393 1_545 S
C58 H50 0.950 . S
C58 C56 1.391 . S
C58 C59 1.400 1_655 S
C59 C58 1.400 1_455 S
C59 C60 1.398 1_545 S
C59 C65 1.492 1_445 S
C60 H51 0.950 . S
C60 C59 1.398 1_565 S
C60 C61 1.391 . S
C61 H49 0.950 . S
C61 C57 1.393 1_565 S
C61 C60 1.391 . S
C62 H52 0.950 . S
C62 C63 1.386 1_455 S
C62 C64 1.391 . S
C63 C62 1.386 1_655 S
C63 C67 1.393 1_565 S
C64 H53 0.950 . S
C64 C62 1.391 . S
C64 C65 1.407 1_455 S
C65 C59 1.492 1_665 S
C65 C64 1.407 1_655 S
C65 C66 1.390 1_565 S
C66 H54 0.950 . S
C66 C65 1.390 1_545 S
C66 C67 1.391 . S
C67 H55 0.950 . S
C67 C63 1.393 1_545 S
C67 C66 1.391 . S
H68 C76 0.950 . S
H69 C81 0.950 . S
H70 C78 0.950 . S
H71 C80 0.950 . S
H72 C82 0.950 . S
H73 C84 0.950 . S
H74 C86 0.950 . S
H75 C87 0.950 . S
C76 H68 0.950 . S
C76 C77 1.385 1_545 S
C76 C78 1.391 . S
C77 C76 1.385 1_565 S
C77 C81 1.394 1_556 S
C78 H70 0.950 . S
C78 C76 1.391 . S
C78 C79 1.398 1_545 S
C79 C78 1.398 1_565 S
C79 C80 1.401 1_556 S
C79 C85 1.491 1_566 S
C80 H71 0.950 . S
C80 C79 1.401 1_554 S
C80 C81 1.391 . S
C81 H69 0.950 . S
C81 C77 1.394 1_554 S
C81 C80 1.391 . S
C82 H72 0.950 . S
C82 C83 1.389 1_565 S
C82 C84 1.391 . S
C83 C82 1.389 1_545 S
C83 C87 1.388 1_554 S
C84 H73 0.950 . S
C84 C82 1.391 . S
C84 C85 1.403 1_565 S
C85 C79 1.491 1_544 S
C85 C84 1.403 1_545 S
C85 C86 1.396 1_554 S
C86 H74 0.950 . S
C86 C85 1.396 1_556 S
C86 C87 1.391 . S
C87 H75 0.950 . S
C87 C83 1.388 1_556 S
C87 C86 1.391 . S
H88 C96 0.950 . S
H89 C101 0.950 . S
H90 C98 0.950 . S
H91 C100 0.950 . S
H92 C102 0.950 . S
H93 C104 0.950 . S
H94 C106 0.950 . S
H95 C107 0.950 . S
C96 H88 0.950 . S
C96 C97 1.386 . S
C96 C98 1.391 . S
C97 C96 1.386 . S
C97 C101 1.393 1_455 S
C98 H90 0.950 . S
C98 C96 1.391 . S
C98 C99 1.400 . S
C99 C98 1.400 . S
C99 C100 1.398 1_455 S
C99 C105 1.491 1_455 S
C100 H91 0.950 . S
C100 C99 1.398 1_655 S
C100 C101 1.391 . S
C101 H89 0.950 . S
C101 C97 1.393 1_655 S
C101 C100 1.391 . S
C102 H92 0.950 . S
C102 C103 1.386 . S
C102 C104 1.391 . S
C103 C102 1.386 . S
C103 C107 1.393 1_655 S
C104 H93 0.950 . S
C104 C102 1.391 . S
C104 C105 1.400 . S
C105 C99 1.491 1_655 S
C105 C104 1.400 . S
C105 C106 1.398 1_655 S
C106 H94 0.950 . S
C106 C105 1.398 1_455 S
C106 C107 1.391 . S
C107 H95 0.950 . S
C107 C103 1.393 1_455 S
C107 C106 1.391 . S
C37 C12 1.500 1_655 S
C43 C27 1.495 . S
C57 C13 1.499 1_445 S
C63 C26 1.502 1_565 S
C77 C1 1.497 1_565 S
C83 C0 1.499 1_545 S
C97 C15 1.499 1_455 S
C103 C14 1.499 1_655 S
