# Generated by pormake.
# Topology snk, (6)-cn, num edge types: 1
# Building blocks:
#     Node 0, Type 0, BuildingBlock: BETDEL_clean_sbu_0, # of connection points: 6
#     Node 1, Type 0, BuildingBlock: BETDEL_clean_sbu_0, # of connection points: 6
#     Node 2, Type 0, BuildingBlock: BETDEL_clean_sbu_0, # of connection points: 6
#     Node 3, Type 0, BuildingBlock: BETDEL_clean_sbu_0, # of connection points: 6
#     Node 4, Type 0, BuildingBlock: BETDEL_clean_sbu_0, # of connection points: 6
#     Node 5, Type 0, BuildingBlock: BETDEL_clean_sbu_0, # of connection points: 6
#     Node 6, Type 0, BuildingBlock: BETDEL_clean_sbu_0, # of connection points: 6
#     Node 7, Type 0, BuildingBlock: BETDEL_clean_sbu_0, # of connection points: 6
#     Edge 8, Type (0, 0), None
#     Edge 9, Type (0, 0), None
#     Edge 10, Type (0, 0), None
#     Edge 11, Type (0, 0), None
#     Edge 12, Type (0, 0), None
#     Edge 13, Type (0, 0), None
#     Edge 14, Type (0, 0), None
#     Edge 15, Type (0, 0), None
#     Edge 16, Type (0, 0), None
#     Edge 17, Type (0, 0), None
#     Edge 18, Type (0, 0), None
#     Edge 19, Type (0, 0), None
#     Edge 20, Type (0, 0), None
#     Edge 21, Type (0, 0), None
#     Edge 22, Type (0, 0), None
#     Edge 23, Type (0, 0), None
#     Edge 24, Type (0, 0), None
#     Edge 25, Type (0, 0), None
#     Edge 26, Type (0, 0), None
#     Edge 27, Type (0, 0), None
#     Edge 28, Type (0, 0), None
#     Edge 29, Type (0, 0), None
#     Edge 30, Type (0, 0), None
#     Edge 31, Type (0, 0), None
# Relax obj value: 0.078
# Max RMSD: 0.135
# Mean RMSD: 0.106
data_MOF--net-snk--node1-BETDEL_clean_sbu_0--edge1-none
_symmetry_space_group_name_H-M    P1
_symmetry_Int_Tables_number       1
_symmetry_cell_setting            triclinic
loop_
_symmetry_equiv_pos_as_xyz
'x, y, z'
_cell_length_a     17.359638
_cell_length_b     17.360475
_cell_length_c     9.126465
_cell_angle_alpha  85.829874
_cell_angle_beta   94.171352
_cell_angle_gamma 89.975594
loop_
_atom_site_label
_atom_site_type_symbol
_atom_site_fract_x
_atom_site_fract_y
_atom_site_fract_z
_atom_type_partial_charge
Dy0 Dy 0.99397 0.95944 0.40938 0.0
C1 C -0.00096 0.00935 0.97928 0.0
C2 C 0.99758 0.98039 0.11689 0.0
Dy3 Dy 0.00267 0.0302 0.68679 0.0
O4 O 0.05857 0.97137 0.20684 0.0
O5 O 0.93491 0.96326 0.18246 0.0
O6 O 0.06144 0.85353 0.50516 0.0
O7 O 0.08672 0.96118 0.58684 0.0
C8 C 0.10199 0.8892 0.6052 0.0
C9 C 0.89463 0.1003 0.49062 0.0
O10 O 0.09088 0.10778 0.58169 0.0
O11 O 0.03586 0.07935 0.35652 0.0
O12 O 0.93806 0.01839 0.88932 0.0
O13 O 0.06172 0.02646 0.9137 0.0
O14 O 0.93528 0.13609 0.59034 0.0
O15 O 0.90986 0.02835 0.50966 0.0
O16 O 0.90579 0.88179 0.51414 0.0
O17 O 0.96067 0.91028 0.73941 0.0
C18 C 0.08317 0.12083 0.43615 0.0
C19 C 0.91342 0.86877 0.65968 0.0
Dy20 Dy 0.21312 0.74034 0.9361 0.0
C21 C 0.26308 0.74539 0.36617 0.0
C22 C 0.23409 0.74392 0.22858 0.0
Dy23 Dy 0.28395 0.74898 0.65866 0.0
O24 O 0.22493 0.80491 0.13867 0.0
O25 O 0.21705 0.68123 0.16298 0.0
O26 O 0.10721 0.80781 0.84023 0.0
O27 O 0.2149 0.833 0.75854 0.0
C28 C 0.14291 0.84821 0.74005 0.0
C29 C 0.35401 0.64097 0.85492 0.0
O30 O 0.36155 0.83717 0.76377 0.0
O31 O 0.33302 0.78228 0.98898 0.0
O32 O 0.27225 0.6844 0.45607 0.0
O33 O 0.28008 0.80808 0.43179 0.0
O34 O 0.38983 0.68157 0.75517 0.0
O35 O 0.28205 0.65622 0.83585 0.0
O36 O 0.13543 0.65216 0.8314 0.0
O37 O 0.16407 0.70684 0.60603 0.0
C38 C 0.37454 0.82953 0.90933 0.0
C39 C 0.12248 0.6597 0.68584 0.0
Dy40 Dy 0.51253 0.95094 0.19798 0.0
C41 C 0.4907 0.0044 0.61426 0.0
C42 C 0.50604 0.98525 0.48086 0.0
Dy43 Dy 0.48414 0.03864 0.89712 0.0
O44 O 0.51445 0.91445 0.44095 0.0
O45 O 0.51036 0.03551 0.37034 0.0
O46 O 0.47395 0.83878 0.10906 0.0
O47 O 0.42923 0.94305 1.00976 0.0
C48 C 0.43494 0.87174 0.99282 0.0
C49 C 0.56169 0.11769 0.10295 0.0
O50 O 0.37523 0.07358 0.99611 0.0
O51 O 0.40102 0.00696 0.22524 0.0
O52 O 0.4823 0.0752 0.65419 0.0
O53 O 0.48633 0.95412 0.72474 0.0
O54 O 0.52278 0.15075 0.98669 0.0
O55 O 0.56732 0.04649 0.08504 0.0
O56 O 0.62148 0.91597 0.09939 0.0
O57 O 0.59561 0.98238 0.87009 0.0
C58 C 0.36085 0.05698 0.13698 0.0
C59 C 0.63585 0.93246 0.95851 0.0
Dy60 Dy 0.20458 0.25884 0.14754 0.0
C61 C 0.25804 0.237 0.73128 0.0
C62 C 0.23889 0.25235 0.86467 0.0
Dy63 Dy 0.29228 0.23044 0.44842 0.0
O64 O 0.16809 0.26073 0.90458 0.0
O65 O 0.28915 0.2567 0.97519 0.0
O66 O 0.09241 0.22022 0.23643 0.0
O67 O 0.1967 0.17553 0.33575 0.0
C68 C 0.12538 0.18123 0.35267 0.0
C69 C 0.37132 0.30804 0.24259 0.0
O70 O 0.32723 0.12154 0.34945 0.0
O71 O 0.26064 0.14734 0.12027 0.0
O72 O 0.32885 0.22863 0.69134 0.0
O73 O 0.20776 0.2326 0.6208 0.0
O74 O 0.40439 0.26912 0.35884 0.0
O75 O 0.30011 0.31363 0.26052 0.0
O76 O 0.16957 0.36776 0.24617 0.0
O77 O 0.23597 0.34188 0.47548 0.0
C78 C 0.31062 0.10714 0.20859 0.0
C79 C 0.18604 0.38211 0.38706 0.0
Dy80 Dy 0.713 0.24035 0.43639 0.0
C81 C 0.76299 0.24538 0.86645 0.0
C82 C 0.73398 0.2439 0.72888 0.0
Dy83 Dy 0.78385 0.24896 0.15894 0.0
O84 O 0.72472 0.30489 0.63901 0.0
O85 O 0.71704 0.1812 0.66324 0.0
O86 O 0.60712 0.30782 0.34052 0.0
O87 O 0.71479 0.33301 0.25882 0.0
C88 C 0.6428 0.34828 0.24042 0.0
C89 C 0.85391 0.14109 0.3554 0.0
O90 O 0.86147 0.33716 0.26392 0.0
O91 O 0.83286 0.28243 0.48924 0.0
O92 O 0.77224 0.18439 0.95634 0.0
O93 O 0.7799 0.30808 0.93209 0.0
O94 O 0.88974 0.18158 0.25552 0.0
O95 O 0.78195 0.15625 0.33621 0.0
O96 O 0.63529 0.15221 0.33168 0.0
O97 O 0.66398 0.2068 0.10628 0.0
C98 C 0.87443 0.3296 0.4095 0.0
C99 C 0.62237 0.1597 0.18611 0.0
Dy100 Dy 0.70464 0.75895 0.64766 0.0
C101 C 0.75811 0.73711 0.2314 0.0
C102 C 0.73895 0.75247 0.36479 0.0
Dy103 Dy 0.79234 0.73055 0.94853 0.0
O104 O 0.66814 0.76084 0.4047 0.0
O105 O 0.78921 0.75683 0.47531 0.0
O106 O 0.59251 0.72024 0.73661 0.0
O107 O 0.69676 0.67565 0.83587 0.0
C108 C 0.62545 0.68134 0.85299 0.0
C109 C 0.87138 0.80818 0.74296 0.0
O110 O 0.82731 0.62167 0.8495 0.0
O111 O 0.76074 0.64749 0.62033 0.0
O112 O 0.82891 0.72875 0.19145 0.0
O113 O 0.70782 0.73269 0.12094 0.0
O114 O 0.90448 0.76916 0.85906 0.0
O115 O 0.80016 0.81378 0.76066 0.0
O116 O 0.66962 0.86788 0.74624 0.0
O117 O 0.73602 0.84201 0.97557 0.0
C118 C 0.81075 0.60732 0.7086 0.0
C119 C 0.68613 0.88226 0.88711 0.0
Dy120 Dy 0.49406 0.45934 0.90928 0.0
C121 C 0.49905 0.50938 0.47926 0.0
C122 C 0.49756 0.48033 0.61681 0.0
Dy123 Dy 0.50258 0.53026 0.18679 0.0
O124 O 0.55857 0.47089 0.70661 0.0
O125 O 0.43484 0.46355 0.68249 0.0
O126 O 0.56152 0.35347 1.00527 0.0
O127 O 0.58662 0.46117 0.087 0.0
C128 C 0.60184 0.38918 0.10553 0.0
C129 C 0.39478 0.60027 0.99017 0.0
O130 O 0.59074 0.60794 0.08186 0.0
O131 O 0.53628 0.57914 0.85642 0.0
O132 O 0.43805 0.51883 0.38945 0.0
O133 O 0.56178 0.52613 0.41358 0.0
O134 O 0.4352 0.63612 0.09012 0.0
O135 O 0.40996 0.52831 1.0094 0.0
O136 O 0.40593 0.38159 1.01391 0.0
O137 O 0.46026 0.41045 0.23944 0.0
C138 C 0.58331 0.62081 0.93626 0.0
C139 C 0.4133 0.36875 0.1595 0.0
Dy140 Dy 0.01256 0.45098 0.69796 0.0
C141 C 0.99071 0.50443 0.11422 0.0
C142 C 0.00609 0.48527 0.98083 0.0
Dy143 Dy 0.98416 0.53864 0.3971 0.0
O144 O 0.01441 0.41447 0.9409 0.0
O145 O 0.01051 0.53554 0.87034 0.0
O146 O 0.97389 0.33882 0.60911 0.0
O147 O 0.92921 0.44311 0.5098 0.0
C148 C 0.93488 0.37179 0.49289 0.0
C149 C 0.06185 0.61768 0.60261 0.0
O150 O 0.87528 0.57366 0.49611 0.0
O151 O 0.90112 0.50712 0.72531 0.0
O152 O 0.9824 0.57523 0.15419 0.0
O153 O 0.98624 0.45414 0.22466 0.0
O154 O 0.02282 0.65078 0.48654 0.0
O155 O 0.06743 0.54645 0.58492 0.0
O156 O 0.12148 0.41591 0.59935 0.0
O157 O 0.09557 0.48226 0.37 0.0
C158 C 0.86091 0.55708 0.63699 0.0
C159 C 0.13584 0.43239 0.45847 0.0
loop_
_geom_bond_atom_site_label_1
_geom_bond_atom_site_label_2
_geom_bond_distance
_geom_bond_site_symmetry_2
_ccdc_geom_bond_type
Dy0 O4 2.398 1_655 S
Dy0 O5 2.491 1_565 S
Dy0 O6 2.403 1_655 S
Dy0 O7 2.664 1_655 S
Dy0 O11 2.326 1_665 S
Dy0 O15 2.310 1_565 S
Dy0 O16 2.351 . S
C1 O12 1.185 . S
C1 O13 1.355 1_645 S
C2 O4 1.185 . S
C2 O5 1.355 1_465 S
Dy3 O7 2.310 1_545 S
Dy3 O10 2.351 . S
Dy3 O12 2.398 1_455 S
Dy3 O13 2.491 1_545 S
Dy3 O14 2.403 1_455 S
Dy3 O15 2.664 1_455 S
Dy3 O17 2.326 1_445 S
O4 Dy0 2.398 1_455 S
O4 C2 1.185 . S
O5 Dy0 2.491 1_545 S
O5 C2 1.355 1_645 S
O6 Dy0 2.403 1_455 S
O6 C8 1.254 . S
O7 Dy0 2.664 1_455 S
O7 Dy3 2.310 1_565 S
O7 C8 1.268 . S
C8 O6 1.254 . S
C8 O7 1.268 . S
C9 O14 1.254 . S
C9 O15 1.268 . S
O10 Dy3 2.351 . S
O10 C18 1.249 . S
O11 Dy0 2.326 1_445 S
O11 C18 1.267 . S
O12 C1 1.185 . S
O12 Dy3 2.398 1_655 S
O13 C1 1.355 1_465 S
O13 Dy3 2.491 1_565 S
O14 Dy3 2.403 1_655 S
O14 C9 1.254 . S
O15 Dy0 2.310 1_545 S
O15 Dy3 2.664 1_655 S
O15 C9 1.268 . S
O16 Dy0 2.351 . S
O16 C19 1.249 . S
O17 Dy3 2.326 1_665 S
O17 C19 1.267 . S
C18 O10 1.249 . S
C18 O11 1.267 . S
C19 O16 1.249 . S
C19 O17 1.267 . S
Dy20 O24 2.398 1_556 S
Dy20 O25 2.491 1_556 S
Dy20 O26 2.403 . S
Dy20 O27 2.664 . S
Dy20 O31 2.326 . S
Dy20 O35 2.310 . S
Dy20 O36 2.351 . S
C21 O32 1.185 . S
C21 O33 1.355 . S
C22 O24 1.185 . S
C22 O25 1.355 . S
Dy23 O27 2.310 . S
Dy23 O30 2.351 . S
Dy23 O32 2.398 . S
Dy23 O33 2.491 . S
Dy23 O34 2.403 . S
Dy23 O35 2.664 . S
Dy23 O37 2.326 . S
O24 Dy20 2.398 1_554 S
O24 C22 1.185 . S
O25 Dy20 2.491 1_554 S
O25 C22 1.355 . S
O26 Dy20 2.403 . S
O26 C28 1.254 . S
O27 Dy20 2.664 . S
O27 Dy23 2.310 . S
O27 C28 1.268 . S
C28 O26 1.254 . S
C28 O27 1.268 . S
C29 O34 1.254 . S
C29 O35 1.268 . S
O30 Dy23 2.351 . S
O30 C38 1.249 . S
O31 Dy20 2.326 . S
O31 C38 1.267 . S
O32 C21 1.185 . S
O32 Dy23 2.398 . S
O33 C21 1.355 . S
O33 Dy23 2.491 . S
O34 Dy23 2.403 . S
O34 C29 1.254 . S
O35 Dy20 2.310 . S
O35 Dy23 2.664 . S
O35 C29 1.268 . S
O36 Dy20 2.351 . S
O36 C39 1.249 . S
O37 Dy23 2.326 . S
O37 C39 1.267 . S
C38 O30 1.249 . S
C38 O31 1.267 . S
C39 O36 1.249 . S
C39 O37 1.267 . S
Dy40 O44 2.398 . S
Dy40 O45 2.491 1_565 S
Dy40 O46 2.403 . S
Dy40 O47 2.664 1_554 S
Dy40 O51 2.326 1_565 S
Dy40 O55 2.310 1_565 S
Dy40 O56 2.351 . S
C41 O52 1.185 . S
C41 O53 1.355 1_545 S
C42 O44 1.185 . S
C42 O45 1.355 1_565 S
Dy43 O47 2.310 1_545 S
Dy43 O50 2.351 . S
Dy43 O52 2.398 . S
Dy43 O53 2.491 1_545 S
Dy43 O54 2.403 . S
Dy43 O55 2.664 1_556 S
Dy43 O57 2.326 1_545 S
O44 Dy40 2.398 . S
O44 C42 1.185 . S
O45 Dy40 2.491 1_545 S
O45 C42 1.355 1_545 S
O46 Dy40 2.403 . S
O46 C48 1.254 1_554 S
O47 Dy40 2.664 1_556 S
O47 Dy43 2.310 1_565 S
O47 C48 1.268 . S
C48 O46 1.254 1_556 S
C48 O47 1.268 . S
C49 O54 1.254 1_554 S
C49 O55 1.268 . S
O50 Dy43 2.351 . S
O50 C58 1.249 1_556 S
O51 Dy40 2.326 1_545 S
O51 C58 1.267 . S
O52 C41 1.185 . S
O52 Dy43 2.398 . S
O53 C41 1.355 1_565 S
O53 Dy43 2.491 1_565 S
O54 Dy43 2.403 . S
O54 C49 1.254 1_556 S
O55 Dy40 2.310 1_545 S
O55 Dy43 2.664 1_554 S
O55 C49 1.268 . S
O56 Dy40 2.351 . S
O56 C59 1.249 1_554 S
O57 Dy43 2.326 1_565 S
O57 C59 1.267 . S
C58 O50 1.249 1_554 S
C58 O51 1.267 . S
C59 O56 1.249 1_556 S
C59 O57 1.267 . S
Dy60 O64 2.398 1_554 S
Dy60 O65 2.491 1_554 S
Dy60 O66 2.403 . S
Dy60 O67 2.664 . S
Dy60 O71 2.326 . S
Dy60 O75 2.310 . S
Dy60 O76 2.351 . S
C61 O72 1.185 . S
C61 O73 1.355 . S
C62 O64 1.185 . S
C62 O65 1.355 . S
Dy63 O67 2.310 . S
Dy63 O70 2.351 . S
Dy63 O72 2.398 . S
Dy63 O73 2.491 . S
Dy63 O74 2.403 . S
Dy63 O75 2.664 . S
Dy63 O77 2.326 . S
O64 Dy60 2.398 1_556 S
O64 C62 1.185 . S
O65 Dy60 2.491 1_556 S
O65 C62 1.355 . S
O66 Dy60 2.403 . S
O66 C68 1.254 . S
O67 Dy60 2.664 . S
O67 Dy63 2.310 . S
O67 C68 1.268 . S
C68 O66 1.254 . S
C68 O67 1.268 . S
C69 O74 1.254 . S
C69 O75 1.268 . S
O70 Dy63 2.351 . S
O70 C78 1.249 . S
O71 Dy60 2.326 . S
O71 C78 1.267 . S
O72 C61 1.185 . S
O72 Dy63 2.398 . S
O73 C61 1.355 . S
O73 Dy63 2.491 . S
O74 Dy63 2.403 . S
O74 C69 1.254 . S
O75 Dy60 2.310 . S
O75 Dy63 2.664 . S
O75 C69 1.268 . S
O76 Dy60 2.351 . S
O76 C79 1.249 . S
O77 Dy63 2.326 . S
O77 C79 1.267 . S
C78 O70 1.249 . S
C78 O71 1.267 . S
C79 O76 1.249 . S
C79 O77 1.267 . S
Dy80 O84 2.398 . S
Dy80 O85 2.491 . S
Dy80 O86 2.403 . S
Dy80 O87 2.664 . S
Dy80 O91 2.326 . S
Dy80 O95 2.310 . S
Dy80 O96 2.351 . S
C81 O92 1.185 . S
C81 O93 1.355 . S
C82 O84 1.185 . S
C82 O85 1.355 . S
Dy83 O87 2.310 . S
Dy83 O90 2.351 . S
Dy83 O92 2.398 1_554 S
Dy83 O93 2.491 1_554 S
Dy83 O94 2.403 . S
Dy83 O95 2.664 . S
Dy83 O97 2.326 . S
O84 Dy80 2.398 . S
O84 C82 1.185 . S
O85 Dy80 2.491 . S
O85 C82 1.355 . S
O86 Dy80 2.403 . S
O86 C88 1.254 . S
O87 Dy80 2.664 . S
O87 Dy83 2.310 . S
O87 C88 1.268 . S
C88 O86 1.254 . S
C88 O87 1.268 . S
C89 O94 1.254 . S
C89 O95 1.268 . S
O90 Dy83 2.351 . S
O90 C98 1.249 . S
O91 Dy80 2.326 . S
O91 C98 1.267 . S
O92 C81 1.185 . S
O92 Dy83 2.398 1_556 S
O93 C81 1.355 . S
O93 Dy83 2.491 1_556 S
O94 Dy83 2.403 . S
O94 C89 1.254 . S
O95 Dy80 2.310 . S
O95 Dy83 2.664 . S
O95 C89 1.268 . S
O96 Dy80 2.351 . S
O96 C99 1.249 . S
O97 Dy83 2.326 . S
O97 C99 1.267 . S
C98 O90 1.249 . S
C98 O91 1.267 . S
C99 O96 1.249 . S
C99 O97 1.267 . S
Dy100 O104 2.398 . S
Dy100 O105 2.491 . S
Dy100 O106 2.403 . S
Dy100 O107 2.664 . S
Dy100 O111 2.326 . S
Dy100 O115 2.310 . S
Dy100 O116 2.351 . S
C101 O112 1.185 . S
C101 O113 1.355 . S
C102 O104 1.185 . S
C102 O105 1.355 . S
Dy103 O107 2.310 . S
Dy103 O110 2.351 . S
Dy103 O112 2.398 1_556 S
Dy103 O113 2.491 1_556 S
Dy103 O114 2.403 . S
Dy103 O115 2.664 . S
Dy103 O117 2.326 . S
O104 Dy100 2.398 . S
O104 C102 1.185 . S
O105 Dy100 2.491 . S
O105 C102 1.355 . S
O106 Dy100 2.403 . S
O106 C108 1.254 . S
O107 Dy100 2.664 . S
O107 Dy103 2.310 . S
O107 C108 1.268 . S
C108 O106 1.254 . S
C108 O107 1.268 . S
C109 O114 1.254 . S
C109 O115 1.268 . S
O110 Dy103 2.351 . S
O110 C118 1.249 . S
O111 Dy100 2.326 . S
O111 C118 1.267 . S
O112 C101 1.185 . S
O112 Dy103 2.398 1_554 S
O113 C101 1.355 . S
O113 Dy103 2.491 1_554 S
O114 Dy103 2.403 . S
O114 C109 1.254 . S
O115 Dy100 2.310 . S
O115 Dy103 2.664 . S
O115 C109 1.268 . S
O116 Dy100 2.351 . S
O116 C119 1.249 . S
O117 Dy103 2.326 . S
O117 C119 1.267 . S
C118 O110 1.249 . S
C118 O111 1.267 . S
C119 O116 1.249 . S
C119 O117 1.267 . S
Dy120 O124 2.398 . S
Dy120 O125 2.491 . S
Dy120 O126 2.403 . S
Dy120 O127 2.664 1_556 S
Dy120 O131 2.326 . S
Dy120 O135 2.310 . S
Dy120 O136 2.351 . S
C121 O132 1.185 . S
C121 O133 1.355 . S
C122 O124 1.185 . S
C122 O125 1.355 . S
Dy123 O127 2.310 . S
Dy123 O130 2.351 . S
Dy123 O132 2.398 . S
Dy123 O133 2.491 . S
Dy123 O134 2.403 . S
Dy123 O135 2.664 1_554 S
Dy123 O137 2.326 . S
O124 Dy120 2.398 . S
O124 C122 1.185 . S
O125 Dy120 2.491 . S
O125 C122 1.355 . S
O126 Dy120 2.403 . S
O126 C128 1.254 1_556 S
O127 Dy120 2.664 1_554 S
O127 Dy123 2.310 . S
O127 C128 1.268 . S
C128 O126 1.254 1_554 S
C128 O127 1.268 . S
C129 O134 1.254 1_556 S
C129 O135 1.268 . S
O130 Dy123 2.351 . S
O130 C138 1.249 1_554 S
O131 Dy120 2.326 . S
O131 C138 1.267 . S
O132 C121 1.185 . S
O132 Dy123 2.398 . S
O133 C121 1.355 . S
O133 Dy123 2.491 . S
O134 Dy123 2.403 . S
O134 C129 1.254 1_554 S
O135 Dy120 2.310 . S
O135 Dy123 2.664 1_556 S
O135 C129 1.268 . S
O136 Dy120 2.351 . S
O136 C139 1.249 1_556 S
O137 Dy123 2.326 . S
O137 C139 1.267 . S
C138 O130 1.249 1_556 S
C138 O131 1.267 . S
C139 O136 1.249 1_554 S
C139 O137 1.267 . S
Dy140 O144 2.398 1_455 S
Dy140 O145 2.491 . S
Dy140 O146 2.403 1_455 S
Dy140 O147 2.664 1_455 S
Dy140 O151 2.326 1_455 S
Dy140 O155 2.310 . S
Dy140 O156 2.351 . S
C141 O152 1.185 . S
C141 O153 1.355 1_455 S
C142 O144 1.185 . S
C142 O145 1.355 1_655 S
Dy143 O147 2.310 . S
Dy143 O150 2.351 . S
Dy143 O152 2.398 1_655 S
Dy143 O153 2.491 . S
Dy143 O154 2.403 1_655 S
Dy143 O155 2.664 1_655 S
Dy143 O157 2.326 1_655 S
O144 Dy140 2.398 1_655 S
O144 C142 1.185 . S
O145 Dy140 2.491 . S
O145 C142 1.355 1_455 S
O146 Dy140 2.403 1_655 S
O146 C148 1.254 . S
O147 Dy140 2.664 1_655 S
O147 Dy143 2.310 . S
O147 C148 1.268 . S
C148 O146 1.254 . S
C148 O147 1.268 . S
C149 O154 1.254 . S
C149 O155 1.268 . S
O150 Dy143 2.351 . S
O150 C158 1.249 . S
O151 Dy140 2.326 1_655 S
O151 C158 1.267 . S
O152 C141 1.185 . S
O152 Dy143 2.398 1_455 S
O153 C141 1.355 1_655 S
O153 Dy143 2.491 . S
O154 Dy143 2.403 1_455 S
O154 C149 1.254 . S
O155 Dy140 2.310 . S
O155 Dy143 2.664 1_455 S
O155 C149 1.268 . S
O156 Dy140 2.351 . S
O156 C159 1.249 . S
O157 Dy143 2.326 1_455 S
O157 C159 1.267 . S
C158 O150 1.249 . S
C158 O151 1.267 . S
C159 O156 1.249 . S
C159 O157 1.267 . S
C18 C68 1.623 . S
C8 C28 1.431 . S
C38 C48 1.625 . S
C58 C78 1.785 . S
C19 C109 1.625 . S
C9 C89 1.432 . S
C99 C49 1.623 . S
C119 C59 1.787 . S
C138 C108 1.624 . S
C88 C128 1.431 . S
C148 C98 1.625 . S
C118 C158 1.787 . S
C69 C139 1.623 . S
C129 C29 1.432 . S
C39 C149 1.623 . S
C79 C159 1.785 . S
C1 C2 1.441 1_646 S
C21 C22 1.441 . S
C41 C42 2.086 1_545 S
C62 C61 2.086 . S
C81 C82 1.441 . S
C102 C101 2.086 . S
C122 C121 1.441 . S
C142 C141 2.086 1_656 S
