# Generated by pormake.
# Topology uni, (4)-cn, num edge types: 1
# Building blocks:
#     Node 0, Type 0, BuildingBlock: QUQFOY_clean_sbu_1, # of connection points: 4
#     Node 1, Type 0, BuildingBlock: QUQFOY_clean_sbu_1, # of connection points: 4
#     Node 2, Type 0, BuildingBlock: QUQFOY_clean_sbu_1, # of connection points: 4
#     Node 3, Type 0, BuildingBlock: QUQFOY_clean_sbu_1, # of connection points: 4
#     Node 4, Type 0, BuildingBlock: QUQFOY_clean_sbu_1, # of connection points: 4
#     Node 5, Type 0, BuildingBlock: QUQFOY_clean_sbu_1, # of connection points: 4
#     Edge 6, Type (0, 0), None
#     Edge 7, Type (0, 0), None
#     Edge 8, Type (0, 0), None
#     Edge 9, Type (0, 0), None
#     Edge 10, Type (0, 0), None
#     Edge 11, Type (0, 0), None
#     Edge 12, Type (0, 0), None
#     Edge 13, Type (0, 0), None
#     Edge 14, Type (0, 0), None
#     Edge 15, Type (0, 0), None
#     Edge 16, Type (0, 0), None
#     Edge 17, Type (0, 0), None
# Relax obj value: 0.084
# Max RMSD: 0.161
# Mean RMSD: 0.161
data_MOF--net-uni--node1-QUQFOY_clean_sbu_1--edge1-none
_symmetry_space_group_name_H-M    P1
_symmetry_Int_Tables_number       1
_symmetry_cell_setting            triclinic
loop_
_symmetry_equiv_pos_as_xyz
'x, y, z'
_cell_length_a     20.327092
_cell_length_b     20.326691
_cell_length_c     11.654387
_cell_angle_alpha  89.999007
_cell_angle_beta   90.000066
_cell_angle_gamma 119.99849
loop_
_atom_site_label
_atom_site_type_symbol
_atom_site_fract_x
_atom_site_fract_y
_atom_site_fract_z
_atom_type_partial_charge
O0 O 0.60937 0.09568 0.84062 0.0
Cd1 Cd 0.68137 0.13558 -0.02165 0.0
Cd2 Cd 0.59574 0.96431 0.0016 0.0
O3 O 0.55584 0.97035 0.84048 0.0
O4 O 0.734 0.24601 -0.0573 0.0
O5 O 0.79401 0.18055 -0.05446 0.0
C6 C 0.79538 0.24376 -0.07358 0.0
C7 C 0.60157 0.85613 0.05355 0.0
C8 C 0.56636 0.03157 0.79463 0.0
C9 C 0.58472 0.06831 0.18531 0.0
O10 O 0.56363 1.00421 0.13933 0.0
O11 O 0.63543 0.12954 0.13947 0.0
O12 O 0.53794 0.85388 0.03726 0.0
O13 O 0.6634 0.91933 0.03443 0.0
O14 O 0.56363 0.6016 0.00732 0.0
Cd15 Cd 0.59574 0.67361 0.14505 0.0
Cd16 Cd 0.68137 0.58797 0.16829 0.0
O17 O 0.63543 0.54807 0.00718 0.0
O18 O 0.53794 0.72624 0.10939 0.0
O19 O 0.6634 0.78624 0.11222 0.0
C20 C 0.60157 0.78762 0.0931 0.0
C21 C 0.79538 0.5938 0.22023 0.0
C22 C 0.58473 0.55859 -0.03866 0.0
C23 C 0.56636 0.57697 0.35201 0.0
O24 O 0.60937 0.55587 0.30603 0.0
O25 O 0.55584 0.62767 0.30617 0.0
O26 O 0.73401 0.53017 0.20395 0.0
O27 O 0.79401 0.65564 0.20111 0.0
O28 O 1.01198 0.55587 0.17398 0.0
Cd29 Cd 0.97208 0.58798 0.31171 0.0
Cd30 Cd 0.14335 0.67361 0.33495 0.0
O31 O 0.13731 0.62767 0.17384 0.0
O32 O 0.86165 0.53018 0.27607 0.0
O33 O 0.9271 0.65564 0.27889 0.0
C34 C 0.86389 0.5938 0.25977 0.0
C35 C 0.25152 0.78762 0.38689 0.0
C36 C 0.07608 0.57696 0.128 0.0
C37 C 0.03934 0.5586 0.51868 0.0
O38 O 0.10344 0.60161 0.47269 0.0
O39 O 0.97812 0.54808 0.47283 0.0
O40 O 0.25378 0.72624 0.3706 0.0
O41 O 0.18832 0.78625 0.36777 0.0
O42 O 0.50605 1.00421 0.34062 0.0
Cd43 Cd 0.43404 0.96431 0.47836 0.0
Cd44 Cd 0.51967 0.13558 0.50159 0.0
O45 O 0.55957 0.12954 0.34047 0.0
O46 O 0.38141 0.85388 0.44271 0.0
O47 O 0.32141 0.91934 0.44554 0.0
C48 C 0.32004 0.85613 0.42642 0.0
C49 C 0.51384 0.24375 0.55355 0.0
C50 C 0.54905 0.06832 0.29463 0.0
C51 C 0.53069 0.03157 0.68531 0.0
O52 O 0.55178 0.09567 0.63932 0.0
O53 O 0.47998 0.97034 0.63947 0.0
O54 O 0.57747 0.24601 0.53725 0.0
O55 O 0.45201 0.18055 0.53443 0.0
O56 O 0.55178 0.49829 0.50733 0.0
Cd57 Cd 0.51968 0.42628 0.64505 0.0
Cd58 Cd 0.43404 0.51191 0.6683 0.0
O59 O 0.47998 0.55181 0.50718 0.0
O60 O 0.57747 0.37364 0.6094 0.0
O61 O 0.45201 0.31364 0.61222 0.0
C62 C 0.51384 0.31227 0.5931 0.0
C63 C 0.32004 0.50608 0.72024 0.0
C64 C 0.53069 0.5413 0.46134 0.0
C65 C 0.54906 0.52291 0.85201 0.0
O66 O 0.50605 0.54401 0.80603 0.0
O67 O 0.55957 0.47221 0.80617 0.0
O68 O 0.38141 0.56971 0.70395 0.0
O69 O 0.32141 0.44425 0.70112 0.0
O70 O 0.10344 0.54402 0.67398 0.0
Cd71 Cd 0.14334 0.51191 0.81172 0.0
Cd72 Cd 0.97207 0.42628 0.83496 0.0
O73 O 0.97811 0.47222 0.67384 0.0
O74 O 0.25377 0.56971 0.77607 0.0
O75 O 0.18832 0.44425 0.7789 0.0
C76 C 0.25152 0.50608 0.75978 0.0
C77 C 0.86389 0.31227 0.88689 0.0
C78 C 0.03934 0.52293 0.628 0.0
C79 C 0.07608 0.54129 0.01867 0.0
O80 O 1.01198 0.49828 -0.02731 0.0
O81 O 0.1373 0.55181 -0.02717 0.0
O82 O 0.86164 0.37365 0.87061 0.0
O83 O 0.9271 0.31364 0.86778 0.0
loop_
_geom_bond_atom_site_label_1
_geom_bond_atom_site_label_2
_geom_bond_distance
_geom_bond_site_symmetry_2
_ccdc_geom_bond_type
O0 Cd1 2.223 1_556 S
O0 C8 1.315 . S
Cd1 O0 2.223 1_554 S
Cd1 O4 2.297 1_554 S
Cd1 O5 2.439 . S
Cd1 O11 2.240 . S
Cd2 O3 2.240 1_564 S
Cd2 O10 2.223 . S
Cd2 O12 2.297 . S
Cd2 O13 2.439 . S
O3 Cd2 2.240 1_546 S
O3 C8 1.279 . S
O4 Cd1 2.297 1_556 S
O4 C6 1.247 . S
O5 Cd1 2.439 . S
O5 C6 1.208 1_554 S
C6 O4 1.247 . S
C6 O5 1.208 1_556 S
C7 O12 1.247 . S
C7 O13 1.208 . S
C8 O0 1.315 . S
C8 O3 1.279 . S
C9 O10 1.315 . S
C9 O11 1.279 1_565 S
O10 Cd2 2.223 . S
O10 C9 1.315 . S
O11 Cd1 2.240 . S
O11 C9 1.279 1_545 S
O12 Cd2 2.297 . S
O12 C7 1.247 . S
O13 Cd2 2.439 . S
O13 C7 1.208 . S
O14 Cd15 2.223 . S
O14 C22 1.315 . S
Cd15 O14 2.223 . S
Cd15 O18 2.297 . S
Cd15 O19 2.439 . S
Cd15 O25 2.240 . S
Cd16 O17 2.240 . S
Cd16 O24 2.223 . S
Cd16 O26 2.297 . S
Cd16 O27 2.439 . S
O17 Cd16 2.240 . S
O17 C22 1.279 . S
O18 Cd15 2.297 . S
O18 C20 1.247 . S
O19 Cd15 2.439 . S
O19 C20 1.208 . S
C20 O18 1.247 . S
C20 O19 1.208 . S
C21 O26 1.247 . S
C21 O27 1.208 . S
C22 O14 1.315 . S
C22 O17 1.279 . S
C23 O24 1.315 . S
C23 O25 1.279 . S
O24 Cd16 2.223 . S
O24 C23 1.315 . S
O25 Cd15 2.240 . S
O25 C23 1.279 . S
O26 Cd16 2.297 . S
O26 C21 1.247 . S
O27 Cd16 2.439 . S
O27 C21 1.208 . S
O28 Cd29 2.223 . S
O28 C36 1.315 . S
Cd29 O28 2.223 . S
Cd29 O32 2.297 . S
Cd29 O33 2.439 . S
Cd29 O39 2.240 1_655 S
Cd30 O31 2.240 . S
Cd30 O38 2.223 . S
Cd30 O40 2.297 . S
Cd30 O41 2.439 . S
O31 Cd30 2.240 . S
O31 C36 1.279 1_455 S
O32 Cd29 2.297 . S
O32 C34 1.247 . S
O33 Cd29 2.439 . S
O33 C34 1.208 . S
C34 O32 1.247 . S
C34 O33 1.208 . S
C35 O40 1.247 . S
C35 O41 1.208 . S
C36 O28 1.315 . S
C36 O31 1.279 1_655 S
C37 O38 1.315 . S
C37 O39 1.279 . S
O38 Cd30 2.223 . S
O38 C37 1.315 . S
O39 Cd29 2.240 1_455 S
O39 C37 1.279 . S
O40 Cd30 2.297 . S
O40 C35 1.247 . S
O41 Cd30 2.439 . S
O41 C35 1.208 . S
O42 Cd43 2.223 . S
O42 C50 1.315 . S
Cd43 O42 2.223 . S
Cd43 O46 2.297 . S
Cd43 O47 2.439 . S
Cd43 O53 2.240 1_565 S
Cd44 O45 2.240 . S
Cd44 O52 2.223 . S
Cd44 O54 2.297 . S
Cd44 O55 2.439 . S
O45 Cd44 2.240 . S
O45 C50 1.279 1_545 S
O46 Cd43 2.297 . S
O46 C48 1.247 . S
O47 Cd43 2.439 . S
O47 C48 1.208 . S
C48 O46 1.247 . S
C48 O47 1.208 . S
C49 O54 1.247 . S
C49 O55 1.208 . S
C50 O42 1.315 . S
C50 O45 1.279 1_565 S
C51 O52 1.315 . S
C51 O53 1.279 . S
O52 Cd44 2.223 . S
O52 C51 1.315 . S
O53 Cd43 2.240 1_545 S
O53 C51 1.279 . S
O54 Cd44 2.297 . S
O54 C49 1.247 . S
O55 Cd44 2.439 . S
O55 C49 1.208 . S
O56 Cd57 2.223 . S
O56 C64 1.315 . S
Cd57 O56 2.223 . S
Cd57 O60 2.297 . S
Cd57 O61 2.439 . S
Cd57 O67 2.240 . S
Cd58 O59 2.240 . S
Cd58 O66 2.223 . S
Cd58 O68 2.297 . S
Cd58 O69 2.439 . S
O59 Cd58 2.240 . S
O59 C64 1.279 . S
O60 Cd57 2.297 . S
O60 C62 1.247 . S
O61 Cd57 2.439 . S
O61 C62 1.208 . S
C62 O60 1.247 . S
C62 O61 1.208 . S
C63 O68 1.247 . S
C63 O69 1.208 . S
C64 O56 1.315 . S
C64 O59 1.279 . S
C65 O66 1.315 . S
C65 O67 1.279 . S
O66 Cd58 2.223 . S
O66 C65 1.315 . S
O67 Cd57 2.240 . S
O67 C65 1.279 . S
O68 Cd58 2.297 . S
O68 C63 1.247 . S
O69 Cd58 2.439 . S
O69 C63 1.208 . S
O70 Cd71 2.223 . S
O70 C78 1.315 . S
Cd71 O70 2.223 . S
Cd71 O74 2.297 . S
Cd71 O75 2.439 . S
Cd71 O81 2.240 1_556 S
Cd72 O73 2.240 1_655 S
Cd72 O80 2.223 . S
Cd72 O82 2.297 . S
Cd72 O83 2.439 . S
O73 Cd72 2.240 1_455 S
O73 C78 1.279 . S
O74 Cd71 2.297 . S
O74 C76 1.247 . S
O75 Cd71 2.439 . S
O75 C76 1.208 . S
C76 O74 1.247 . S
C76 O75 1.208 . S
C77 O82 1.247 1_554 S
C77 O83 1.208 1_554 S
C78 O70 1.315 . S
C78 O73 1.279 . S
C79 O80 1.315 1_554 S
C79 O81 1.279 1_655 S
O80 Cd72 2.223 . S
O80 C79 1.315 1_556 S
O81 Cd71 2.240 1_554 S
O81 C79 1.279 1_455 S
O82 Cd72 2.297 . S
O82 C77 1.247 1_556 S
O83 Cd72 2.439 . S
O83 C77 1.208 1_556 S
C9 C50 1.909 . S
C23 C64 1.908 . S
C78 C37 1.909 . S
C8 C51 1.908 . S
C22 C65 1.909 1_554 S
C79 C36 1.908 . S
C20 C7 1.448 . S
C34 C21 1.448 . S
C35 C48 1.448 . S
C62 C49 1.448 . S
C76 C63 1.448 . S
C77 C6 1.448 1_554 S
