# Generated by pormake.
# Topology pcu, (6)-cn, num edge types: 1
# Building blocks:
#     Node 0, Type 0, BuildingBlock: PAMTUU_clean_sbu_0, # of connection points: 6
#     Edge 1, Type (0, 0), BuildingBlock: TEMPAE_clean_linker_10, # of connection points: 2
#     Edge 2, Type (0, 0), BuildingBlock: TEMPAE_clean_linker_10, # of connection points: 2
#     Edge 3, Type (0, 0), BuildingBlock: TEMPAE_clean_linker_10, # of connection points: 2
# Relax obj value: 0.000
# Max RMSD: 0.000
# Mean RMSD: 0.000
data_MOF--net-pcu--node1-PAMTUU_clean_sbu_0--edge1-TEMPAE_clean_linker_10
_symmetry_space_group_name_H-M    P1
_symmetry_Int_Tables_number       1
_symmetry_cell_setting            triclinic
loop_
_symmetry_equiv_pos_as_xyz
'x, y, z'
_cell_length_a     25.820281
_cell_length_b     15.435067
_cell_length_c     15.312635
_cell_angle_alpha  83.579612
_cell_angle_beta   98.291433
_cell_angle_gamma 117.97646
loop_
_atom_site_label
_atom_site_type_symbol
_atom_site_fract_x
_atom_site_fract_y
_atom_site_fract_z
_atom_type_partial_charge
Tb0 Tb 0.10059 0.03799 0.01006 0.0
Tb1 Tb 0.95395 0.92796 0.98782 0.0
C2 C 0.02811 0.97879 0.16977 0.0
C3 C 0.26012 0.09626 0.01495 0.0
C4 C 0.35406 0.05676 -0.00589 0.0
C5 C 0.36479 0.14253 0.03362 0.0
C6 C 0.31834 0.16197 0.0438 0.0
C7 C 0.24877 0.01041 0.97549 0.0
C8 C 0.29536 0.99082 0.96513 0.0
C9 C 0.21222 0.1181 0.02887 0.0
O10 O 0.07237 0.88181 0.0382 0.0
O11 O 0.97799 0.81523 0.96666 0.0
O12 O 0.98533 -0.00543 0.86037 0.0
O13 O 0.07056 0.98055 0.87947 0.0
O14 O 0.87539 0.86192 0.04825 0.0
O15 O 0.873 0.87284 0.90658 0.0
O16 O 0.98066 0.07838 0.01589 0.0
O17 O 0.07454 0.15376 0.97222 0.0
O18 O 0.07103 0.05156 0.13094 0.0
O19 O 0.9861 0.90713 0.12391 0.0
C20 C 1.02519 0.8075 0.00266 0.0
O21 O 0.18108 0.13107 0.95845 0.0
O22 O 0.17913 0.06468 0.09053 0.0
C23 C 1.02739 0.98733 0.82763 0.0
C24 C 0.79527 0.87907 0.96707 0.0
C25 C 0.70119 0.92564 0.96378 0.0
C26 C 0.69323 0.84317 0.92156 0.0
C27 C 0.73975 0.82012 0.92341 0.0
C28 C 0.80401 0.96294 0.00749 0.0
C29 C 0.75735 0.98581 0.0061 0.0
C30 C 0.84216 0.84871 0.97348 0.0
C31 C 0.02782 0.15733 -0.00701 0.0
H32 H 0.40911 0.19409 0.05819 0.0
H33 H 0.32789 0.22824 0.07503 0.0
H34 H 0.20399 0.95861 0.953 0.0
H35 H 0.28547 0.92452 0.93375 0.0
H36 H 0.65052 0.79473 0.88916 0.0
H37 H 0.73202 0.75493 0.89208 0.0
H38 H 0.8466 0.0099 0.04125 0.0
H39 H 0.76522 0.05056 0.03823 0.0
C40 C 0.98594 0.89631 0.3115 0.0
C41 C 1.02661 0.97886 0.26606 0.0
C42 C 0.98428 0.89593 0.40281 0.0
C43 C 1.02388 0.98043 0.44953 0.0
C44 C 0.06463 0.06427 0.4039 0.0
C45 C 0.06567 0.06234 0.31283 0.0
C46 C 0.94054 0.80485 0.44945 0.0
C47 C 0.10727 0.15602 0.45133 0.0
C48 C 0.98852 0.01287 0.67251 0.0
C49 C 1.0259 0.98514 0.7309 0.0
C50 C 0.98728 0.01155 0.58065 0.0
C51 C 1.02373 0.98058 0.54659 0.0
C52 C 0.061 0.9514 0.60525 0.0
C53 C 0.06189 0.95459 0.69663 0.0
C54 C 0.94746 0.04423 0.52003 0.0
C55 C 0.10006 0.91696 0.57148 0.0
H56 H 0.95563 0.8315 0.27589 0.0
H57 H 0.09699 0.12674 0.27822 0.0
H58 H 0.96429 0.77663 0.50141 0.0
H59 H 0.91165 0.82286 0.48279 0.0
H60 H 0.91241 0.74556 0.40345 0.0
H61 H 0.13506 0.21592 0.40576 0.0
H62 H 0.08275 0.18289 0.4852 0.0
H63 H 0.1366 0.1392 0.50289 0.0
H64 H 0.9607 0.03679 0.69852 0.0
H65 H 0.09055 0.93224 0.7413 0.0
H66 H 0.91639 0.98433 0.47649 0.0
H67 H 0.97414 0.10784 0.47665 0.0
H68 H 0.92158 0.06562 0.55701 0.0
H69 H 0.07299 0.85387 0.52903 0.0
H70 H 0.1253 0.89428 0.62591 0.0
H71 H 0.13174 0.97657 0.53008 0.0
C72 C 0.3986 0.94122 0.00143 0.0
C73 C 0.40405 0.0363 0.98454 0.0
C74 C 0.44626 0.92214 -0.00372 0.0
C75 C 0.50089 -7e-05 0.97377 0.0
C76 C 0.50645 0.09572 0.95542 0.0
C77 C 0.45807 0.11265 0.96084 0.0
C78 C 0.43845 0.81894 0.01634 0.0
C79 C 0.56375 0.18067 0.93084 0.0
C80 C 0.64096 0.974 0.04393 0.0
C81 C 0.65062 0.94692 0.96563 0.0
C82 C 0.59244 -0.00881 0.04752 0.0
C83 C 0.55255 0.98158 0.97084 0.0
C84 C 0.56227 0.95499 0.89142 0.0
C85 C 0.61102 0.9378 0.88982 0.0
C86 C 0.5836 0.01893 0.13365 0.0
C87 C 0.52112 0.94467 0.80805 0.0
H88 H 0.35739 0.88191 0.02079 0.0
H89 H 0.46257 0.18604 0.94619 0.0
H90 H 0.44931 0.79367 0.95972 0.0
H91 H 0.46931 0.81775 0.07438 0.0
H92 H 0.39277 0.76609 0.0304 0.0
H93 H 0.56064 0.25038 0.91707 0.0
H94 H 0.59926 0.19148 0.9853 0.0
H95 H 0.57707 0.16431 0.87149 0.0
H96 H 0.67079 0.97988 0.10314 0.0
H97 H 0.61846 0.91796 0.8288 0.0
H98 H 0.54021 0.96404 0.15485 0.0
H99 H 0.58327 0.09101 0.12463 0.0
H100 H 0.61858 0.02349 0.18727 0.0
H101 H 0.47573 0.8882 0.8195 0.0
H102 H 0.53482 0.92365 0.75166 0.0
H103 H 0.51948 0.01498 0.78953 0.0
C104 C 0.06681 0.69203 0.05856 0.0
C105 C 1.02602 0.71253 0.00106 0.0
C106 C 0.06832 0.60249 0.05728 0.0
C107 C 0.02881 0.5326 -0.00405 0.0
C108 C 0.98809 0.55341 0.93693 0.0
C109 C 0.98683 0.6428 0.94072 0.0
C110 C 0.1117 0.58219 0.12225 0.0
C111 C 0.94591 0.48132 0.86966 0.0
C112 C 0.06643 0.33492 0.9434 0.0
C113 C 0.02857 0.25364 -0.00665 0.0
C114 C 0.06664 0.42615 0.94292 0.0
C115 C 0.02901 0.43654 -0.00492 0.0
C116 C 0.99125 0.35496 0.04642 0.0
C117 C 0.99107 0.26429 0.04425 0.0
C118 C 0.10668 0.51113 0.88604 0.0
C119 C 0.95125 0.36355 0.10411 0.0
H120 H 0.09713 0.74551 0.1055 0.0
H121 H 0.95565 0.65864 0.8954 0.0
H122 H 0.08767 0.51528 0.1643 0.0
H123 H 0.14106 0.56784 0.08638 0.0
H124 H 0.13941 0.64424 0.1657 0.0
H125 H 0.91853 0.51025 0.82631 0.0
H126 H 0.9708 0.46326 0.82767 0.0
H127 H 0.91617 0.4118 0.90371 0.0
H128 H 0.09521 0.32683 0.90355 0.0
H129 H 0.96206 0.20192 0.08363 0.0
H130 H 0.13778 0.5728 0.92777 0.0
H131 H 0.08019 0.53848 0.83867 0.0
H132 H 0.13256 0.49052 0.84825 0.0
H133 H 0.97773 0.42154 0.15187 0.0
H134 H 0.92553 0.29357 0.14154 0.0
H135 H 0.91995 0.38566 0.06298 0.0
loop_
_geom_bond_atom_site_label_1
_geom_bond_atom_site_label_2
_geom_bond_distance
_geom_bond_site_symmetry_2
_ccdc_geom_bond_type
Tb0 C9 2.764 . S
Tb0 O10 2.325 1_545 S
Tb0 O13 2.303 1_554 S
Tb0 O17 2.322 . S
Tb0 O18 2.349 . S
Tb0 O21 2.415 1_554 S
Tb0 O22 2.399 . S
Tb1 O11 2.322 . S
Tb1 O12 2.349 . S
Tb1 O14 2.415 1_556 S
Tb1 O15 2.399 . S
Tb1 O16 2.325 1_565 S
Tb1 O19 2.303 1_556 S
Tb1 C30 2.764 . S
C2 O18 1.261 . S
C2 O19 1.257 1_445 S
C3 C6 1.358 . S
C3 C7 1.332 1_544 S
C3 C9 1.504 . S
C4 C5 1.373 1_566 S
C4 C8 1.308 . S
C5 C4 1.373 1_544 S
C5 C6 1.429 . S
C5 H32 0.932 . S
C6 C3 1.358 . S
C6 C5 1.429 . S
C6 H33 0.930 . S
C7 C3 1.332 1_566 S
C7 C8 1.394 . S
C7 H34 0.932 . S
C8 C4 1.308 . S
C8 C7 1.394 . S
C8 H35 0.929 . S
C9 Tb0 2.764 . S
C9 C3 1.504 . S
C9 O21 1.239 1_554 S
C9 O22 1.263 . S
O10 Tb0 2.325 1_565 S
O10 C20 1.232 1_455 S
O11 Tb1 2.322 . S
O11 C20 1.266 1_556 S
O12 Tb1 2.349 . S
O12 C23 1.261 . S
O13 Tb0 2.303 1_556 S
O13 C23 1.257 1_445 S
O14 Tb1 2.415 1_554 S
O14 C30 1.239 1_554 S
O15 Tb1 2.399 . S
O15 C30 1.263 . S
O16 Tb1 2.325 1_545 S
O16 C31 1.229 1_655 S
O17 Tb0 2.322 . S
O17 C31 1.271 1_554 S
O18 Tb0 2.349 . S
O18 C2 1.261 . S
O19 Tb1 2.303 1_554 S
O19 C2 1.257 1_665 S
C20 O10 1.232 1_655 S
C20 O11 1.266 1_554 S
O21 Tb0 2.415 1_556 S
O21 C9 1.239 1_556 S
O22 Tb0 2.399 . S
O22 C9 1.263 . S
C23 O12 1.261 . S
C23 O13 1.257 1_665 S
C24 C27 1.358 . S
C24 C28 1.332 1_566 S
C24 C30 1.504 . S
C25 C26 1.373 1_544 S
C25 C29 1.308 . S
C26 C25 1.373 1_566 S
C26 C27 1.429 . S
C26 H36 0.932 . S
C27 C24 1.358 . S
C27 C26 1.429 . S
C27 H37 0.930 . S
C28 C24 1.332 1_544 S
C28 C29 1.394 . S
C28 H38 0.932 . S
C29 C25 1.308 . S
C29 C28 1.394 . S
C29 H39 0.929 . S
C30 Tb1 2.764 . S
C30 O14 1.239 1_556 S
C30 O15 1.263 . S
C30 C24 1.504 . S
C31 O16 1.229 1_455 S
C31 O17 1.271 1_556 S
H32 C5 0.932 . S
H33 C6 0.930 . S
H34 C7 0.932 . S
H35 C8 0.929 . S
H36 C26 0.932 . S
H37 C27 0.930 . S
H38 C28 0.932 . S
H39 C29 0.929 . S
C40 C41 1.391 1_655 S
C40 C42 1.394 . S
C40 H56 0.931 . S
C41 C40 1.391 1_455 S
C41 C45 1.376 1_565 S
C42 C40 1.394 . S
C42 C43 1.382 . S
C42 C46 1.531 . S
C43 C42 1.382 . S
C43 C44 1.393 1_665 S
C43 C51 1.506 . S
C44 C43 1.393 1_445 S
C44 C45 1.392 . S
C44 C47 1.511 . S
C45 C41 1.376 1_545 S
C45 C44 1.392 . S
C45 H57 0.929 . S
C46 C42 1.531 . S
C46 H58 0.960 . S
C46 H59 0.962 . S
C46 H60 0.960 . S
C47 C44 1.511 . S
C47 H61 0.961 . S
C47 H62 0.961 . S
C47 H63 0.961 . S
C48 C49 1.363 1_645 S
C48 C50 1.361 1_655 S
C48 H64 0.937 . S
C49 C48 1.363 1_465 S
C49 C53 1.418 1_455 S
C50 C48 1.361 1_455 S
C50 C51 1.374 1_445 S
C50 C54 1.524 . S
C51 C43 1.506 . S
C51 C50 1.374 1_665 S
C51 C52 1.400 . S
C52 C51 1.400 . S
C52 C53 1.402 . S
C52 C55 1.539 1_655 S
C53 C49 1.418 1_655 S
C53 C52 1.402 . S
C53 H65 0.930 . S
C54 C50 1.524 . S
C54 H66 0.956 1_455 S
C54 H67 0.961 . S
C54 H68 0.961 . S
C55 C52 1.539 1_455 S
C55 H69 0.958 1_455 S
C55 H70 0.961 . S
C55 H71 0.960 . S
H56 C40 0.931 . S
H57 C45 0.929 . S
H58 C46 0.960 . S
H59 C46 0.962 . S
H60 C46 0.960 . S
H61 C47 0.961 . S
H62 C47 0.961 . S
H63 C47 0.961 . S
H64 C48 0.937 . S
H65 C53 0.930 . S
H66 C54 0.956 1_655 S
H67 C54 0.961 . S
H68 C54 0.961 . S
H69 C55 0.958 1_655 S
H70 C55 0.961 . S
H71 C55 0.960 . S
C72 C73 1.391 1_554 S
C72 C74 1.394 . S
C72 H88 0.931 . S
C73 C72 1.391 1_556 S
C73 C77 1.376 1_565 S
C74 C72 1.394 . S
C74 C75 1.369 1_554 S
C74 C78 1.531 . S
C75 C74 1.369 1_556 S
C75 C76 1.410 1_565 S
C75 C83 1.503 . S
C76 C75 1.410 1_545 S
C76 C77 1.392 . S
C76 C79 1.511 . S
C77 C73 1.376 1_545 S
C77 C76 1.392 . S
C77 H89 0.929 . S
C78 C74 1.531 . S
C78 H90 0.960 1_554 S
C78 H91 0.962 . S
C78 H92 0.960 . S
C79 C76 1.511 . S
C79 H93 0.961 . S
C79 H94 0.961 . S
C79 H95 0.961 . S
C80 C81 1.370 1_554 S
C80 C82 1.363 . S
C80 H96 0.931 . S
C81 C80 1.370 1_556 S
C81 C85 1.408 1_545 S
C82 C80 1.363 . S
C82 C83 1.370 1_544 S
C82 C86 1.524 . S
C83 C75 1.503 . S
C83 C82 1.370 1_566 S
C83 C84 1.403 . S
C84 C83 1.403 . S
C84 C85 1.404 . S
C84 C87 1.539 . S
C85 C81 1.408 1_565 S
C85 C84 1.404 . S
C85 H97 0.930 . S
C86 C82 1.524 . S
C86 H98 0.956 1_545 S
C86 H99 0.961 . S
C86 H100 0.961 . S
C87 C84 1.539 . S
C87 H101 0.958 . S
C87 H102 0.961 . S
C87 H103 0.969 . S
H88 C72 0.931 . S
H89 C77 0.929 . S
H90 C78 0.960 1_556 S
H91 C78 0.962 . S
H92 C78 0.960 . S
H93 C79 0.961 . S
H94 C79 0.961 . S
H95 C79 0.961 . S
H96 C80 0.931 . S
H97 C85 0.930 . S
H98 C86 0.956 1_565 S
H99 C86 0.961 . S
H100 C86 0.961 . S
H101 C87 0.958 . S
H102 C87 0.961 . S
H103 C87 0.969 . S
C104 C105 1.379 1_455 S
C104 C106 1.394 . S
C104 H120 0.931 . S
C105 C104 1.379 1_655 S
C105 C109 1.382 1_554 S
C106 C104 1.394 . S
C106 C107 1.361 1_455 S
C106 C110 1.531 . S
C107 C106 1.361 1_655 S
C107 C108 1.426 . S
C107 C115 1.503 . S
C108 C107 1.426 . S
C108 C109 1.393 1_554 S
C108 C111 1.510 1_554 S
C109 C105 1.382 1_556 S
C109 C108 1.393 1_556 S
C109 H121 0.929 . S
C110 C106 1.531 . S
C110 H122 0.960 . S
C110 H123 0.962 . S
C110 H124 0.960 . S
C111 C108 1.510 1_556 S
C111 H125 0.961 . S
C111 H126 0.961 . S
C111 H127 0.961 1_556 S
C112 C113 1.371 1_456 S
C112 C114 1.363 . S
C112 H128 0.931 . S
C113 C112 1.371 1_654 S
C113 C117 1.413 . S
C114 C112 1.363 . S
C114 C115 1.364 1_456 S
C114 C118 1.524 . S
C115 C107 1.503 . S
C115 C114 1.364 1_654 S
C115 C116 1.401 . S
C116 C115 1.401 . S
C116 C117 1.404 . S
C116 C119 1.539 . S
C117 C113 1.413 . S
C117 C116 1.404 . S
C117 H129 0.930 . S
C118 C114 1.524 . S
C118 H130 0.956 . S
C118 H131 0.961 1_455 S
C118 H132 0.961 . S
C119 C116 1.539 . S
C119 H133 0.958 1_655 S
C119 H134 0.961 . S
C119 H135 0.960 . S
H120 C104 0.931 . S
H121 C109 0.929 . S
H122 C110 0.960 . S
H123 C110 0.962 . S
H124 C110 0.960 . S
H125 C111 0.961 . S
H126 C111 0.961 . S
H127 C111 0.961 1_554 S
H128 C112 0.931 . S
H129 C117 0.930 . S
H130 C118 0.956 . S
H131 C118 0.961 1_655 S
H132 C118 0.961 . S
H133 C119 0.958 1_455 S
H134 C119 0.961 . S
H135 C119 0.960 . S
C41 C2 1.455 1_565 S
C49 C23 1.466 1_455 S
C73 C4 1.492 . S
C81 C25 1.500 1_556 S
C105 C20 1.487 . S
C113 C31 1.486 1_654 S
