# Generated by pormake.
# Topology bcu, (8)-cn, num edge types: 1
# Building blocks:
#     Node 0, Type 0, BuildingBlock: TAGTUT_clean_sbu_1, # of connection points: 8
#     Node 1, Type 0, BuildingBlock: TAGTUT_clean_sbu_1, # of connection points: 8
#     Edge 2, Type (0, 0), BuildingBlock: FUNLAD_clean_linker_0, # of connection points: 2
#     Edge 3, Type (0, 0), BuildingBlock: FUNLAD_clean_linker_0, # of connection points: 2
#     Edge 4, Type (0, 0), BuildingBlock: FUNLAD_clean_linker_0, # of connection points: 2
#     Edge 5, Type (0, 0), BuildingBlock: FUNLAD_clean_linker_0, # of connection points: 2
#     Edge 6, Type (0, 0), BuildingBlock: FUNLAD_clean_linker_0, # of connection points: 2
#     Edge 7, Type (0, 0), BuildingBlock: FUNLAD_clean_linker_0, # of connection points: 2
#     Edge 8, Type (0, 0), BuildingBlock: FUNLAD_clean_linker_0, # of connection points: 2
#     Edge 9, Type (0, 0), BuildingBlock: FUNLAD_clean_linker_0, # of connection points: 2
# Relax obj value: 0.020
# Max RMSD: 0.081
# Mean RMSD: 0.081
data_MOF--net-bcu--node1-TAGTUT_clean_sbu_1--edge1-FUNLAD_clean_linker_0
_symmetry_space_group_name_H-M    P1
_symmetry_Int_Tables_number       1
_symmetry_cell_setting            triclinic
loop_
_symmetry_equiv_pos_as_xyz
'x, y, z'
_cell_length_a     22.349646
_cell_length_b     21.402032
_cell_length_c     24.925605
_cell_angle_alpha  90.4742
_cell_angle_beta   94.12668
_cell_angle_gamma 107.9118
loop_
_atom_site_label
_atom_site_type_symbol
_atom_site_fract_x
_atom_site_fract_y
_atom_site_fract_z
_atom_type_partial_charge
C0 C 0.88772 0.15106 0.02443 0.0
C1 C 0.9421 0.12737 0.86471 0.0
C2 C 0.8983 0.8747 0.91375 0.0
Mg3 Mg 1.01138 0.14651 -0.0227 0.0
O4 O 0.97453 0.05759 -0.00871 0.0
Mg5 Mg 0.88768 0.01346 0.95727 0.0
Mg6 Mg 0.0166 -0.00782 0.97102 0.0
O7 O 0.05769 0.92644 0.95052 0.0
Mg8 Mg 0.01907 0.83707 0.96322 0.0
Mg9 Mg 0.14461 0.96931 -0.01546 0.0
C10 C 0.13214 0.10953 0.0294 0.0
C11 C 0.12154 0.05933 0.88639 0.0
O12 O 0.85899 0.09441 0.00187 0.0
O13 O 0.9469 0.17968 0.02149 0.0
O14 O 0.90352 0.07615 0.88268 0.0
O15 O 0.99105 0.16177 0.89328 0.0
O16 O 0.10548 0.15233 0.01329 0.0
O17 O 0.10473 0.04727 0.02313 0.0
C18 C 0.91357 0.92708 0.05682 0.0
O19 O 0.96874 0.93233 0.0421 0.0
O20 O 0.8763 0.95337 0.03141 0.0
O21 O 0.1715 0.88856 0.93691 0.0
O22 O 0.08241 0.80421 0.91796 0.0
O23 O 0.12922 0.90317 0.05759 0.0
C24 C 0.14149 0.83231 0.91404 0.0
O25 O 0.04059 0.81888 0.04677 0.0
O26 O 0.92376 0.83034 0.92812 0.0
C27 C 0.09092 0.85115 0.07489 0.0
O28 O 0.92792 0.9363 0.92047 0.0
O29 O 0.06556 0.05327 0.89984 0.0
O30 O 0.15755 0.03216 0.91246 0.0
C31 C 0.39932 0.64459 0.5474 0.0
C32 C 0.41876 0.62045 0.37802 0.0
C33 C 0.41353 0.37201 0.42628 0.0
Mg34 Mg 0.51129 0.64789 0.47964 0.0
O35 O 0.48208 0.55898 0.50043 0.0
Mg36 Mg 0.39363 0.5076 0.47526 0.0
Mg37 Mg 0.52734 0.49779 0.4758 0.0
O38 O 0.57326 0.43969 0.44889 0.0
Mg39 Mg 0.5474 0.3497 0.46118 0.0
Mg40 Mg 0.66132 0.49252 0.47375 0.0
C41 C 0.62864 0.62132 0.52849 0.0
C42 C 0.61223 0.57308 0.38112 0.0
O43 O 0.36916 0.58689 0.52694 0.0
O44 O 0.45561 0.67652 0.53619 0.0
O45 O 0.38841 0.5676 0.39991 0.0
O46 O 0.47099 0.65777 0.39993 0.0
O47 O 0.61083 0.65199 0.48973 0.0
O48 O 0.61836 0.5591 0.52348 0.0
C49 C 0.43981 0.42603 0.57014 0.0
O50 O 0.49311 0.43475 0.55021 0.0
O51 O 0.39815 0.4495 0.54869 0.0
O52 O 0.69183 0.42022 0.42011 0.0
O53 O 0.60947 0.32777 0.40663 0.0
O54 O 0.66412 0.42794 0.54625 0.0
C55 C 0.66555 0.36293 0.39781 0.0
O56 O 0.58238 0.33599 0.54178 0.0
O57 O 0.44735 0.33387 0.43696 0.0
C58 C 0.63308 0.37377 0.56599 0.0
O59 O 0.43616 0.43499 0.4313 0.0
O60 O 0.55868 0.55983 0.401 0.0
O61 O 0.65679 0.55378 0.40221 0.0
C62 C 0.1891 0.09907 0.11614 0.0
C63 C 0.18684 0.1337 0.0688 0.0
C64 C 0.22288 0.13202 0.16273 0.0
C65 C 0.25551 0.19958 0.16207 0.0
C66 C 0.26053 0.23147 0.11296 0.0
C67 C 0.22593 0.19891 0.06664 0.0
C68 C 0.2806 0.23926 0.2121 0.0
C69 C 0.25144 0.22743 0.25809 0.0
C70 C 0.2773 0.26892 0.30702 0.0
C71 C 0.28292 0.23878 0.35594 0.0
C72 C 0.32149 0.27517 0.3991 0.0
C73 C 0.35378 0.34221 0.39384 0.0
H74 H 0.29661 0.36211 0.2674 0.0
C75 C 0.34002 0.37417 0.34781 0.0
C76 C 0.3024 0.33753 0.30433 0.0
H77 H 0.36404 0.42587 0.34281 0.0
H78 H 0.15962 0.04862 0.11885 0.0
H79 H 0.22058 0.10549 0.19972 0.0
H80 H 0.28677 0.28316 0.11135 0.0
H81 H 0.22529 0.22644 0.03042 0.0
H82 H 0.32183 0.28217 0.20996 0.0
H83 H 0.21043 0.1846 0.26103 0.0
H84 H 0.26268 0.18611 0.35909 0.0
H85 H 0.33102 0.24962 0.43448 0.0
C86 C 0.88422 0.23986 0.08914 0.0
C87 C 0.85284 0.18109 0.05976 0.0
C88 C 0.85403 0.26348 0.12808 0.0
C89 C 0.79178 0.22863 0.13864 0.0
C90 C 0.75917 0.17225 0.10703 0.0
C91 C 0.7894 0.14848 0.06817 0.0
C92 C 0.75968 0.2489 0.18263 0.0
C93 C 0.79096 0.28229 0.22749 0.0
C94 C 0.75877 0.30018 0.27247 0.0
C95 C 0.79051 0.35611 0.30489 0.0
C96 C 0.76097 0.37564 0.34658 0.0
C97 C 0.69925 0.33903 0.35717 0.0
H98 H 0.67295 0.21722 0.2616 0.0
C99 C 0.66854 0.28138 0.32615 0.0
C100 C 0.69796 0.26211 0.2843 0.0
H101 H 0.62121 0.25162 0.33344 0.0
H102 H 0.93282 0.2668 0.08323 0.0
H103 H 0.87988 0.3087 0.14997 0.0
H104 H 0.71084 0.14509 0.11377 0.0
H105 H 0.76356 0.10335 0.04602 0.0
H106 H 0.70848 0.23326 0.17863 0.0
H107 H 0.84215 0.29808 0.23162 0.0
H108 H 0.83777 0.3857 0.29714 0.0
H109 H 0.78622 0.42009 0.36986 0.0
C110 C 0.87884 0.82289 0.10595 0.0
C111 C 0.89062 0.89102 0.10469 0.0
C112 C 0.84222 0.78674 0.14515 0.0
C113 C 0.8177 0.81869 0.18371 0.0
C114 C 0.83378 0.88734 0.18457 0.0
C115 C 0.86908 0.92313 0.14485 0.0
C116 C 0.77431 0.78201 0.22287 0.0
C117 C 0.73026 0.72392 0.2102 0.0
C118 C 0.68832 0.68583 0.24986 0.0
C119 C 0.67054 0.61709 0.24602 0.0
C120 C 0.63981 0.57957 0.28715 0.0
C121 C 0.62481 0.61013 0.33198 0.0
H122 H 0.67976 0.76905 0.29588 0.0
C123 C 0.63708 0.67838 0.33367 0.0
C124 C 0.66873 0.71618 0.29277 0.0
H125 H 0.62644 0.70274 0.36835 0.0
H126 H 0.89456 0.79731 0.07486 0.0
H127 H 0.83209 0.7339 0.14457 0.0
H128 H 0.81614 0.91303 0.21428 0.0
H129 H 0.87735 0.97574 0.14412 0.0
H130 H 0.77747 0.80494 0.26245 0.0
H131 H 0.72742 0.7014 0.17047 0.0
H132 H 0.68429 0.59255 0.21304 0.0
H133 H 0.63135 0.52689 0.28562 0.0
C134 C 0.16983 0.85635 0.15254 0.0
C135 C 0.11325 0.82132 0.12283 0.0
C136 C 0.20105 0.82414 0.18777 0.0
C137 C 0.17634 0.75607 0.1943 0.0
C138 C 0.11685 0.72228 0.1688 0.0
C139 C 0.08567 0.75445 0.13314 0.0
C140 C 0.21216 0.71919 0.22656 0.0
C141 C 0.27582 0.73623 0.22963 0.0
C142 C 0.31376 0.70173 0.2623 0.0
C143 C 0.37721 0.73579 0.27806 0.0
C144 C 0.41313 0.70771 0.31274 0.0
C145 C 0.38649 0.64449 0.33217 0.0
H146 H 0.24079 0.60753 0.26553 0.0
C147 C 0.32449 0.60844 0.31302 0.0
C148 C 0.28851 0.63667 0.27854 0.0
H149 H 0.30254 0.55928 0.32653 0.0
H150 H 0.192 0.90816 0.14642 0.0
H151 H 0.24531 0.85246 0.20879 0.0
H152 H 0.09607 0.67007 0.17413 0.0
H153 H 0.04208 0.72592 0.11119 0.0
H154 H 0.18496 0.67609 0.2466 0.0
H155 H 0.30201 0.779 0.20852 0.0
H156 H 0.39838 0.78552 0.26535 0.0
H157 H 0.46077 0.73686 0.3263 0.0
C158 C 0.23166 0.83863 0.8578 0.0
C159 C 0.17408 0.80185 0.87691 0.0
C160 C 0.2573 0.81328 0.81639 0.0
C161 C 0.22609 0.75009 0.79356 0.0
C162 C 0.17005 0.71245 0.81449 0.0
C163 C 0.14434 0.73789 0.85562 0.0
C164 C 0.2475 0.7227 0.74606 0.0
C165 C 0.30473 0.74784 0.72711 0.0
C166 C 0.3248 0.72109 0.67858 0.0
C167 C 0.3781 0.76037 0.6548 0.0
C168 C 0.40083 0.73654 0.61084 0.0
C169 C 0.37078 0.67259 0.58958 0.0
H170 H 0.25389 0.62441 0.67423 0.0
C171 C 0.31659 0.63367 0.6125 0.0
C172 C 0.29404 0.65737 0.65668 0.0
H173 H 0.29275 0.58386 0.59763 0.0
H174 H 0.25554 0.8883 0.873 0.0
H175 H 0.29999 0.8448 0.80135 0.0
H176 H 0.14501 0.66361 0.79801 0.0
H177 H 0.10002 0.70802 0.86952 0.0
H178 H 0.21339 0.68038 0.72555 0.0
H179 H 0.33885 0.79042 0.74725 0.0
H180 H 0.40287 0.80954 0.67072 0.0
H181 H 0.44282 0.76788 0.59433 0.0
C182 C 0.38175 0.4021 0.65208 0.0
C183 C 0.422 0.3857 0.61752 0.0
C184 C 0.3506 0.35748 0.68891 0.0
C185 C 0.35852 0.29498 0.69169 0.0
C186 C 0.40318 0.28073 0.66062 0.0
C187 C 0.43469 0.32579 0.62355 0.0
C188 C 0.31978 0.24371 0.72569 0.0
C189 C 0.25997 0.23982 0.7355 0.0
C190 C 0.22002 0.18941 0.76959 0.0
C191 C 0.16949 0.20221 0.79333 0.0
C192 C 0.13405 0.15806 0.82904 0.0
C193 C 0.14859 0.10032 0.84136 0.0
H194 H 0.26754 0.11578 0.7598 0.0
C195 C 0.19625 0.08556 0.81477 0.0
C196 C 0.23132 0.12928 0.77914 0.0
H197 H 0.20777 0.04072 0.82272 0.0
H198 H 0.37199 0.44857 0.64884 0.0
H199 H 0.31913 0.37158 0.71412 0.0
H200 H 0.41111 0.23334 0.66291 0.0
H201 H 0.46535 0.31195 0.59725 0.0
H202 H 0.34088 0.20762 0.74146 0.0
H203 H 0.23937 0.27598 0.71889 0.0
H204 H 0.15898 0.24768 0.78592 0.0
H205 H 0.09786 0.17084 0.84906 0.0
C206 C 0.93672 0.22156 0.80829 0.0
C207 C 0.92143 0.15338 0.81446 0.0
C208 C 0.90202 0.24687 0.77023 0.0
C209 C 0.85191 0.20426 0.73744 0.0
C210 C 0.84151 0.13633 0.7396 0.0
C211 C 0.87553 0.11103 0.77808 0.0
C212 C 0.80751 0.22846 0.70278 0.0
C213 C 0.79135 0.28197 0.71607 0.0
C214 C 0.7443 0.30403 0.6829 0.0
C215 C 0.75223 0.37147 0.6802 0.0
C216 C 0.7127 0.39426 0.64495 0.0
C217 C 0.66369 0.34984 0.61247 0.0
H218 H 0.68334 0.20686 0.65647 0.0
C219 C 0.65222 0.28209 0.61883 0.0
C220 C 0.69234 0.25934 0.65357 0.0
H221 H 0.61476 0.24661 0.5945 0.0
H222 H 0.97199 0.25544 0.83561 0.0
H223 H 0.91299 0.29964 0.76797 0.0
H224 H 0.80406 0.10254 0.71398 0.0
H225 H 0.86306 0.05821 0.78162 0.0
H226 H 0.78448 0.19878 0.66717 0.0
H227 H 0.8143 0.31182 0.75161 0.0
H228 H 0.79108 0.40679 0.70331 0.0
H229 H 0.72241 0.44679 0.64125 0.0
C230 C 0.63168 0.60794 0.62831 0.0
C231 C 0.62894 0.64729 0.58383 0.0
C232 C 0.63542 0.63323 0.68058 0.0
C233 C 0.63757 0.69863 0.68975 0.0
C234 C 0.63131 0.73707 0.64542 0.0
C235 C 0.62727 0.71166 0.59297 0.0
C236 C 0.65384 0.72633 0.74553 0.0
C237 C 0.69047 0.78868 0.75616 0.0
C238 C 0.73145 0.81036 0.80678 0.0
C239 C 0.749 0.76541 0.8406 0.0
C240 C 0.80044 0.78711 0.87868 0.0
C241 C 0.83555 0.85395 0.88371 0.0
H242 H 0.75059 0.91349 0.79012 0.0
C243 C 0.81432 0.8994 0.85371 0.0
C244 C 0.76294 0.87773 0.81549 0.0
H245 H 0.84007 0.9513 0.85671 0.0
H246 H 0.6325 0.55793 0.62299 0.0
H247 H 0.63996 0.60249 0.71398 0.0
H248 H 0.63083 0.7871 0.65097 0.0
H249 H 0.62419 0.74301 0.55967 0.0
H250 H 0.64476 0.69161 0.77769 0.0
H251 H 0.69869 0.82341 0.72394 0.0
H252 H 0.72698 0.71299 0.83531 0.0
H253 H 0.81511 0.75087 0.90166 0.0
loop_
_geom_bond_atom_site_label_1
_geom_bond_atom_site_label_2
_geom_bond_distance
_geom_bond_site_symmetry_2
_ccdc_geom_bond_type
C0 O12 1.241 . S
C0 O13 1.280 . S
C1 O14 1.277 . S
C1 O15 1.245 . S
C2 O26 1.247 . S
C2 O28 1.289 . S
Mg3 O4 1.926 . S
Mg3 O13 1.984 . S
Mg3 O15 1.988 1_554 S
Mg3 O16 2.061 1_655 S
O4 Mg3 1.926 . S
O4 Mg5 1.986 1_554 S
O4 Mg6 1.917 1_655 S
Mg5 O4 1.986 1_556 S
Mg5 O12 2.042 1_556 S
Mg5 O14 2.041 . S
Mg5 O20 2.038 1_546 S
Mg5 O28 2.238 1_545 S
Mg6 O4 1.917 1_455 S
Mg6 O7 1.917 1_544 S
Mg6 O17 2.106 . S
Mg6 O19 2.079 1_445 S
Mg6 O28 2.106 1_444 S
Mg6 O29 2.079 1_554 S
O7 Mg6 1.917 1_566 S
O7 Mg8 1.926 . S
O7 Mg9 1.986 1_556 S
Mg8 O7 1.926 . S
Mg8 O22 1.984 . S
Mg8 O25 1.988 1_556 S
Mg8 O26 2.061 1_455 S
Mg9 O7 1.986 1_554 S
Mg9 O17 2.238 1_565 S
Mg9 O21 2.042 1_554 S
Mg9 O23 2.041 . S
Mg9 O30 2.038 1_564 S
C10 O16 1.247 . S
C10 O17 1.289 . S
C11 O29 1.245 . S
C11 O30 1.274 . S
O12 C0 1.241 . S
O12 Mg5 2.042 1_554 S
O13 C0 1.280 . S
O13 Mg3 1.984 . S
O14 C1 1.277 . S
O14 Mg5 2.041 . S
O15 C1 1.245 . S
O15 Mg3 1.988 1_556 S
O16 Mg3 2.061 1_455 S
O16 C10 1.247 . S
O17 Mg6 2.106 . S
O17 Mg9 2.238 1_545 S
O17 C10 1.289 . S
C18 O19 1.245 . S
C18 O20 1.274 . S
O19 Mg6 2.079 1_665 S
O19 C18 1.245 . S
O20 Mg5 2.038 1_564 S
O20 C18 1.274 . S
O21 Mg9 2.042 1_556 S
O21 C24 1.241 . S
O22 Mg8 1.984 . S
O22 C24 1.280 . S
O23 Mg9 2.041 . S
O23 C27 1.277 . S
C24 O21 1.241 . S
C24 O22 1.280 . S
O25 Mg8 1.988 1_554 S
O25 C27 1.245 . S
O26 C2 1.247 . S
O26 Mg8 2.061 1_655 S
C27 O23 1.277 . S
C27 O25 1.245 . S
O28 C2 1.289 . S
O28 Mg5 2.238 1_565 S
O28 Mg6 2.106 1_666 S
O29 Mg6 2.079 1_556 S
O29 C11 1.245 . S
O30 Mg9 2.038 1_546 S
O30 C11 1.274 . S
C31 O43 1.241 . S
C31 O44 1.280 . S
C32 O45 1.277 . S
C32 O46 1.245 . S
C33 O57 1.247 . S
C33 O59 1.289 . S
Mg34 O35 1.926 . S
Mg34 O44 1.984 . S
Mg34 O46 1.988 . S
Mg34 O47 2.061 . S
O35 Mg34 1.926 . S
O35 Mg36 1.986 . S
O35 Mg37 1.917 . S
Mg36 O35 1.986 . S
Mg36 O43 2.042 . S
Mg36 O45 2.041 . S
Mg36 O51 2.038 . S
Mg36 O59 2.238 . S
Mg37 O35 1.917 . S
Mg37 O38 1.917 . S
Mg37 O48 2.106 . S
Mg37 O50 2.079 . S
Mg37 O59 2.106 . S
Mg37 O60 2.079 . S
O38 Mg37 1.917 . S
O38 Mg39 1.926 . S
O38 Mg40 1.986 . S
Mg39 O38 1.926 . S
Mg39 O53 1.984 . S
Mg39 O56 1.988 . S
Mg39 O57 2.061 . S
Mg40 O38 1.986 . S
Mg40 O48 2.238 . S
Mg40 O52 2.042 . S
Mg40 O54 2.041 . S
Mg40 O61 2.038 . S
C41 O47 1.247 . S
C41 O48 1.289 . S
C42 O60 1.245 . S
C42 O61 1.274 . S
O43 C31 1.241 . S
O43 Mg36 2.042 . S
O44 C31 1.280 . S
O44 Mg34 1.984 . S
O45 C32 1.277 . S
O45 Mg36 2.041 . S
O46 C32 1.245 . S
O46 Mg34 1.988 . S
O47 Mg34 2.061 . S
O47 C41 1.247 . S
O48 Mg37 2.106 . S
O48 Mg40 2.238 . S
O48 C41 1.289 . S
C49 O50 1.245 . S
C49 O51 1.274 . S
O50 Mg37 2.079 . S
O50 C49 1.245 . S
O51 Mg36 2.038 . S
O51 C49 1.274 . S
O52 Mg40 2.042 . S
O52 C55 1.241 . S
O53 Mg39 1.984 . S
O53 C55 1.280 . S
O54 Mg40 2.041 . S
O54 C58 1.277 . S
C55 O52 1.241 . S
C55 O53 1.280 . S
O56 Mg39 1.988 . S
O56 C58 1.245 . S
O57 C33 1.247 . S
O57 Mg39 2.061 . S
C58 O54 1.277 . S
C58 O56 1.245 . S
O59 C33 1.289 . S
O59 Mg36 2.238 . S
O59 Mg37 2.106 . S
O60 Mg37 2.079 . S
O60 C42 1.245 . S
O61 Mg40 2.038 . S
O61 C42 1.274 . S
C62 C63 1.386 . S
C62 C64 1.383 . S
C62 H78 0.951 . S
C63 C62 1.386 . S
C63 C67 1.383 . S
C64 C62 1.383 . S
C64 C65 1.402 . S
C64 H79 0.951 . S
C65 C64 1.402 . S
C65 C66 1.375 . S
C65 C68 1.481 . S
C66 C65 1.375 . S
C66 C67 1.367 . S
C66 H80 0.951 . S
C67 C63 1.383 . S
C67 C66 1.367 . S
C67 H81 0.950 . S
C68 C65 1.481 . S
C68 C69 1.297 . S
C68 H82 0.950 . S
C69 C68 1.297 . S
C69 C70 1.479 . S
C69 H83 0.950 . S
C70 C69 1.479 . S
C70 C71 1.375 . S
C70 C76 1.404 . S
C71 C70 1.375 . S
C71 C72 1.369 . S
C71 H84 0.950 . S
C72 C71 1.369 . S
C72 C73 1.392 . S
C72 H85 0.951 . S
C73 C72 1.392 . S
C73 C75 1.384 . S
H74 C76 0.949 . S
C75 C73 1.384 . S
C75 C76 1.385 . S
C75 H77 0.950 . S
C76 C70 1.404 . S
C76 H74 0.949 . S
C76 C75 1.385 . S
H77 C75 0.950 . S
H78 C62 0.951 . S
H79 C64 0.951 . S
H80 C66 0.951 . S
H81 C67 0.950 . S
H82 C68 0.950 . S
H83 C69 0.950 . S
H84 C71 0.950 . S
H85 C72 0.951 . S
C86 C87 1.386 . S
C86 C88 1.383 . S
C86 H102 0.951 . S
C87 C86 1.386 . S
C87 C91 1.383 . S
C88 C86 1.383 . S
C88 C89 1.402 . S
C88 H103 0.951 . S
C89 C88 1.402 . S
C89 C90 1.375 . S
C89 C92 1.481 . S
C90 C89 1.375 . S
C90 C91 1.367 . S
C90 H104 0.951 . S
C91 C87 1.383 . S
C91 C90 1.367 . S
C91 H105 0.950 . S
C92 C89 1.481 . S
C92 C93 1.297 . S
C92 H106 0.950 . S
C93 C92 1.297 . S
C93 C94 1.479 . S
C93 H107 0.950 . S
C94 C93 1.479 . S
C94 C95 1.375 . S
C94 C100 1.404 . S
C95 C94 1.375 . S
C95 C96 1.369 . S
C95 H108 0.950 . S
C96 C95 1.369 . S
C96 C97 1.392 . S
C96 H109 0.951 . S
C97 C96 1.392 . S
C97 C99 1.384 . S
H98 C100 0.949 . S
C99 C97 1.384 . S
C99 C100 1.385 . S
C99 H101 0.950 . S
C100 C94 1.404 . S
C100 H98 0.949 . S
C100 C99 1.385 . S
H101 C99 0.950 . S
H102 C86 0.951 . S
H103 C88 0.951 . S
H104 C90 0.951 . S
H105 C91 0.950 . S
H106 C92 0.950 . S
H107 C93 0.950 . S
H108 C95 0.950 . S
H109 C96 0.951 . S
C110 C111 1.386 . S
C110 C112 1.383 . S
C110 H126 0.951 . S
C111 C110 1.386 . S
C111 C115 1.383 . S
C112 C110 1.383 . S
C112 C113 1.402 . S
C112 H127 0.951 . S
C113 C112 1.402 . S
C113 C114 1.375 . S
C113 C116 1.481 . S
C114 C113 1.375 . S
C114 C115 1.367 . S
C114 H128 0.951 . S
C115 C111 1.383 . S
C115 C114 1.367 . S
C115 H129 0.950 . S
C116 C113 1.481 . S
C116 C117 1.297 . S
C116 H130 0.950 . S
C117 C116 1.297 . S
C117 C118 1.479 . S
C117 H131 0.950 . S
C118 C117 1.479 . S
C118 C119 1.375 . S
C118 C124 1.404 . S
C119 C118 1.375 . S
C119 C120 1.369 . S
C119 H132 0.950 . S
C120 C119 1.369 . S
C120 C121 1.392 . S
C120 H133 0.951 . S
C121 C120 1.392 . S
C121 C123 1.384 . S
H122 C124 0.949 . S
C123 C121 1.384 . S
C123 C124 1.385 . S
C123 H125 0.950 . S
C124 C118 1.404 . S
C124 H122 0.949 . S
C124 C123 1.385 . S
H125 C123 0.950 . S
H126 C110 0.951 . S
H127 C112 0.951 . S
H128 C114 0.951 . S
H129 C115 0.950 . S
H130 C116 0.950 . S
H131 C117 0.950 . S
H132 C119 0.950 . S
H133 C120 0.951 . S
C134 C135 1.386 . S
C134 C136 1.383 . S
C134 H150 0.951 . S
C135 C134 1.386 . S
C135 C139 1.383 . S
C136 C134 1.383 . S
C136 C137 1.402 . S
C136 H151 0.951 . S
C137 C136 1.402 . S
C137 C138 1.375 . S
C137 C140 1.481 . S
C138 C137 1.375 . S
C138 C139 1.367 . S
C138 H152 0.951 . S
C139 C135 1.383 . S
C139 C138 1.367 . S
C139 H153 0.950 . S
C140 C137 1.481 . S
C140 C141 1.297 . S
C140 H154 0.950 . S
C141 C140 1.297 . S
C141 C142 1.479 . S
C141 H155 0.950 . S
C142 C141 1.479 . S
C142 C143 1.375 . S
C142 C148 1.404 . S
C143 C142 1.375 . S
C143 C144 1.369 . S
C143 H156 0.950 . S
C144 C143 1.369 . S
C144 C145 1.392 . S
C144 H157 0.951 . S
C145 C144 1.392 . S
C145 C147 1.384 . S
H146 C148 0.949 . S
C147 C145 1.384 . S
C147 C148 1.385 . S
C147 H149 0.950 . S
C148 C142 1.404 . S
C148 H146 0.949 . S
C148 C147 1.385 . S
H149 C147 0.950 . S
H150 C134 0.951 . S
H151 C136 0.951 . S
H152 C138 0.951 . S
H153 C139 0.950 . S
H154 C140 0.950 . S
H155 C141 0.950 . S
H156 C143 0.950 . S
H157 C144 0.951 . S
C158 C159 1.386 . S
C158 C160 1.383 . S
C158 H174 0.951 . S
C159 C158 1.386 . S
C159 C163 1.383 . S
C160 C158 1.383 . S
C160 C161 1.402 . S
C160 H175 0.951 . S
C161 C160 1.402 . S
C161 C162 1.375 . S
C161 C164 1.481 . S
C162 C161 1.375 . S
C162 C163 1.367 . S
C162 H176 0.951 . S
C163 C159 1.383 . S
C163 C162 1.367 . S
C163 H177 0.950 . S
C164 C161 1.481 . S
C164 C165 1.297 . S
C164 H178 0.950 . S
C165 C164 1.297 . S
C165 C166 1.479 . S
C165 H179 0.950 . S
C166 C165 1.479 . S
C166 C167 1.375 . S
C166 C172 1.404 . S
C167 C166 1.375 . S
C167 C168 1.369 . S
C167 H180 0.950 . S
C168 C167 1.369 . S
C168 C169 1.392 . S
C168 H181 0.951 . S
C169 C168 1.392 . S
C169 C171 1.384 . S
H170 C172 0.949 . S
C171 C169 1.384 . S
C171 C172 1.385 . S
C171 H173 0.950 . S
C172 C166 1.404 . S
C172 H170 0.949 . S
C172 C171 1.385 . S
H173 C171 0.950 . S
H174 C158 0.951 . S
H175 C160 0.951 . S
H176 C162 0.951 . S
H177 C163 0.950 . S
H178 C164 0.950 . S
H179 C165 0.950 . S
H180 C167 0.950 . S
H181 C168 0.951 . S
C182 C183 1.386 . S
C182 C184 1.383 . S
C182 H198 0.951 . S
C183 C182 1.386 . S
C183 C187 1.383 . S
C184 C182 1.383 . S
C184 C185 1.402 . S
C184 H199 0.951 . S
C185 C184 1.402 . S
C185 C186 1.375 . S
C185 C188 1.481 . S
C186 C185 1.375 . S
C186 C187 1.367 . S
C186 H200 0.951 . S
C187 C183 1.383 . S
C187 C186 1.367 . S
C187 H201 0.950 . S
C188 C185 1.481 . S
C188 C189 1.297 . S
C188 H202 0.950 . S
C189 C188 1.297 . S
C189 C190 1.479 . S
C189 H203 0.950 . S
C190 C189 1.479 . S
C190 C191 1.375 . S
C190 C196 1.404 . S
C191 C190 1.375 . S
C191 C192 1.369 . S
C191 H204 0.950 . S
C192 C191 1.369 . S
C192 C193 1.392 . S
C192 H205 0.951 . S
C193 C192 1.392 . S
C193 C195 1.384 . S
H194 C196 0.949 . S
C195 C193 1.384 . S
C195 C196 1.385 . S
C195 H197 0.950 . S
C196 C190 1.404 . S
C196 H194 0.949 . S
C196 C195 1.385 . S
H197 C195 0.950 . S
H198 C182 0.951 . S
H199 C184 0.951 . S
H200 C186 0.951 . S
H201 C187 0.950 . S
H202 C188 0.950 . S
H203 C189 0.950 . S
H204 C191 0.950 . S
H205 C192 0.951 . S
C206 C207 1.386 . S
C206 C208 1.383 . S
C206 H222 0.951 . S
C207 C206 1.386 . S
C207 C211 1.383 . S
C208 C206 1.383 . S
C208 C209 1.402 . S
C208 H223 0.951 . S
C209 C208 1.402 . S
C209 C210 1.375 . S
C209 C212 1.481 . S
C210 C209 1.375 . S
C210 C211 1.367 . S
C210 H224 0.951 . S
C211 C207 1.383 . S
C211 C210 1.367 . S
C211 H225 0.950 . S
C212 C209 1.481 . S
C212 C213 1.297 . S
C212 H226 0.950 . S
C213 C212 1.297 . S
C213 C214 1.479 . S
C213 H227 0.950 . S
C214 C213 1.479 . S
C214 C215 1.375 . S
C214 C220 1.404 . S
C215 C214 1.375 . S
C215 C216 1.369 . S
C215 H228 0.950 . S
C216 C215 1.369 . S
C216 C217 1.392 . S
C216 H229 0.951 . S
C217 C216 1.392 . S
C217 C219 1.384 . S
H218 C220 0.949 . S
C219 C217 1.384 . S
C219 C220 1.385 . S
C219 H221 0.950 . S
C220 C214 1.404 . S
C220 H218 0.949 . S
C220 C219 1.385 . S
H221 C219 0.950 . S
H222 C206 0.951 . S
H223 C208 0.951 . S
H224 C210 0.951 . S
H225 C211 0.950 . S
H226 C212 0.950 . S
H227 C213 0.950 . S
H228 C215 0.950 . S
H229 C216 0.951 . S
C230 C231 1.386 . S
C230 C232 1.383 . S
C230 H246 0.951 . S
C231 C230 1.386 . S
C231 C235 1.383 . S
C232 C230 1.383 . S
C232 C233 1.402 . S
C232 H247 0.951 . S
C233 C232 1.402 . S
C233 C234 1.375 . S
C233 C236 1.481 . S
C234 C233 1.375 . S
C234 C235 1.367 . S
C234 H248 0.951 . S
C235 C231 1.383 . S
C235 C234 1.367 . S
C235 H249 0.950 . S
C236 C233 1.481 . S
C236 C237 1.297 . S
C236 H250 0.950 . S
C237 C236 1.297 . S
C237 C238 1.479 . S
C237 H251 0.950 . S
C238 C237 1.479 . S
C238 C239 1.375 . S
C238 C244 1.404 . S
C239 C238 1.375 . S
C239 C240 1.369 . S
C239 H252 0.950 . S
C240 C239 1.369 . S
C240 C241 1.392 . S
C240 H253 0.951 . S
C241 C240 1.392 . S
C241 C243 1.384 . S
H242 C244 0.949 . S
C243 C241 1.384 . S
C243 C244 1.385 . S
C243 H245 0.950 . S
C244 C238 1.404 . S
C244 H242 0.949 . S
C244 C243 1.385 . S
H245 C243 0.950 . S
H246 C230 0.951 . S
H247 C232 0.951 . S
H248 C234 0.951 . S
H249 C235 0.950 . S
H250 C236 0.950 . S
H251 C237 0.950 . S
H252 C239 0.950 . S
H253 C240 0.951 . S
C63 C10 0.809 . S
C73 C33 0.710 . S
C87 C0 1.607 . S
C97 C55 1.637 . S
C111 C18 1.508 . S
C121 C42 1.483 . S
C135 C27 1.792 . S
C145 C32 1.730 . S
C159 C24 1.585 . S
C169 C31 1.633 . S
C183 C49 1.494 . S
C193 C11 1.512 . S
C207 C1 1.792 . S
C217 C58 1.761 . S
C231 C41 0.750 . S
C241 C2 0.869 . S
