# Generated by pormake.
# Topology dmp, (4)-cn, num edge types: 1
# Building blocks:
#     Node 0, Type 0, BuildingBlock: CEKHIL_clean_sbu_0, # of connection points: 4
#     Node 1, Type 0, BuildingBlock: CEKHIL_clean_sbu_0, # of connection points: 4
#     Node 2, Type 0, BuildingBlock: CEKHIL_clean_sbu_0, # of connection points: 4
#     Node 3, Type 0, BuildingBlock: CEKHIL_clean_sbu_0, # of connection points: 4
#     Edge 4, Type (0, 0), None
#     Edge 5, Type (0, 0), None
#     Edge 6, Type (0, 0), None
#     Edge 7, Type (0, 0), None
#     Edge 8, Type (0, 0), None
#     Edge 9, Type (0, 0), None
#     Edge 10, Type (0, 0), None
#     Edge 11, Type (0, 0), None
# Relax obj value: 0.084
# Max RMSD: 0.192
# Mean RMSD: 0.192
data_MOF--net-dmp--node1-CEKHIL_clean_sbu_0--edge1-none
_symmetry_space_group_name_H-M    P1
_symmetry_Int_Tables_number       1
_symmetry_cell_setting            triclinic
loop_
_symmetry_equiv_pos_as_xyz
'x, y, z'
_cell_length_a     15.798131
_cell_length_b     9.1370619
_cell_length_c     5.7343049
_cell_angle_alpha  89.998576
_cell_angle_beta   90.007278
_cell_angle_gamma 92.556796
loop_
_atom_site_label
_atom_site_type_symbol
_atom_site_fract_x
_atom_site_fract_y
_atom_site_fract_z
_atom_type_partial_charge
Co0 Co 0.13739 0.21487 0.31632 0.0
O1 O 0.05673 0.36829 0.29426 0.0
O2 O 0.1252 0.31093 0.61533 0.0
C3 C 0.06689 0.02934 0.12676 0.0
O4 O 0.22106 0.05963 0.39686 0.0
Co5 Co 0.22261 0.11317 0.86075 0.0
O6 O 0.31148 0.09785 0.10743 0.0
C7 C 0.27583 0.39414 1.05043 0.0
C8 C 0.07318 0.39612 0.51178 0.0
C9 C 0.29096 0.03301 0.29566 0.0
O10 O 0.23294 0.3625 0.23589 0.0
O11 O 0.27321 0.31598 0.86637 0.0
O12 O 1.04751 0.06004 0.34117 0.0
O13 O 0.1154 0.12651 1.02324 0.0
Co14 Co 0.4718 0.70175 0.31629 0.0
O15 O 0.55247 0.54836 0.29428 0.0
O16 O 0.48399 0.60568 0.61531 0.0
C17 C 0.54229 0.88728 0.12677 0.0
O18 O 0.3881 0.85693 0.39673 0.0
Co19 Co 0.38657 0.80338 0.86067 0.0
O20 O 0.29763 0.8188 0.10708 0.0
C21 C 0.33336 0.52244 1.05041 0.0
C22 C 0.53601 0.5205 0.51178 0.0
C23 C 0.31815 0.88333 0.2956 0.0
O24 O 0.37627 0.55409 0.23585 0.0
O25 O 0.33596 0.60058 0.86633 0.0
O26 O 0.56167 0.8566 0.3412 0.0
O27 O 0.49378 0.7901 1.02322 0.0
Co28 Co 0.9718 0.70175 0.82873 0.0
O29 O 1.05246 0.54833 0.8508 0.0
O30 O 0.98399 0.60568 0.52972 0.0
C31 C 1.04228 0.8873 1.01825 0.0
O32 O 0.88813 0.85698 0.74817 0.0
Co33 Co 0.88657 0.80345 0.28427 0.0
O34 O 0.7977 0.81876 1.03758 0.0
C35 C 0.83336 0.52248 0.09461 0.0
C36 C 1.03601 0.52049 0.63329 0.0
C37 C 0.81823 0.8836 0.84935 0.0
O38 O 0.87626 0.55412 0.90916 0.0
O39 O 0.83597 0.60064 0.27867 0.0
O40 O 0.06168 0.85658 0.80387 0.0
O41 O 0.99378 0.79012 0.1218 0.0
Co42 Co 0.63739 0.21486 0.82876 0.0
O43 O 0.55671 0.36825 0.85078 0.0
O44 O 0.6252 0.31093 0.52974 0.0
C45 C 0.56692 0.0293 1.01824 0.0
O46 O 0.72109 0.05968 0.74829 0.0
Co47 Co 0.72263 0.11323 0.28436 0.0
O48 O 0.81156 0.09781 1.03793 0.0
C49 C 0.77583 0.39417 0.09464 0.0
C50 C 0.57318 0.39611 0.63329 0.0
C51 C 0.79104 0.03328 0.84942 0.0
O52 O 0.73292 0.36252 0.9092 0.0
O53 O 0.77323 0.31603 0.27872 0.0
O54 O 0.54753 0.06001 0.80383 0.0
O55 O 0.61541 0.12649 0.12182 0.0
loop_
_geom_bond_atom_site_label_1
_geom_bond_atom_site_label_2
_geom_bond_distance
_geom_bond_site_symmetry_2
_ccdc_geom_bond_type
Co0 O1 2.216 . S
Co0 O2 2.091 . S
Co0 O4 2.004 . S
Co0 O10 2.021 . S
Co0 O12 2.137 . S
Co0 O13 2.244 1_554 S
O1 Co0 2.216 . S
O1 C8 1.247 . S
O2 Co0 2.091 . S
O2 C8 1.261 . S
C3 O12 1.247 . S
C3 O13 1.272 1_554 S
O4 Co0 2.004 . S
O4 C9 1.259 . S
Co5 O6 2.061 1_556 S
Co5 O11 2.052 . S
Co5 O13 2.135 . S
O6 Co5 2.061 1_554 S
O6 C9 1.235 . S
C7 O10 1.238 . S
C7 O11 1.241 1_554 S
C8 O1 1.247 . S
C8 O2 1.261 . S
C9 O4 1.259 . S
C9 O6 1.235 . S
O10 Co0 2.021 . S
O10 C7 1.238 . S
O11 Co5 2.052 . S
O11 C7 1.241 1_556 S
O12 Co0 2.137 . S
O12 C3 1.247 . S
O13 Co0 2.244 1_556 S
O13 C3 1.272 1_556 S
O13 Co5 2.135 . S
Co14 O15 2.216 . S
Co14 O16 2.091 . S
Co14 O18 2.004 . S
Co14 O24 2.021 . S
Co14 O26 2.137 . S
Co14 O27 2.244 1_554 S
O15 Co14 2.216 . S
O15 C22 1.247 . S
O16 Co14 2.091 . S
O16 C22 1.261 . S
C17 O26 1.247 . S
C17 O27 1.272 1_554 S
O18 Co14 2.004 . S
O18 C23 1.259 . S
Co19 O20 2.061 1_556 S
Co19 O25 2.052 . S
Co19 O27 2.135 . S
O20 Co19 2.061 1_554 S
O20 C23 1.235 . S
C21 O24 1.238 . S
C21 O25 1.241 1_554 S
C22 O15 1.247 . S
C22 O16 1.261 . S
C23 O18 1.259 . S
C23 O20 1.235 . S
O24 Co14 2.021 . S
O24 C21 1.238 . S
O25 Co19 2.052 . S
O25 C21 1.241 1_556 S
O26 Co14 2.137 . S
O26 C17 1.247 . S
O27 Co14 2.244 1_556 S
O27 C17 1.272 1_556 S
O27 Co19 2.135 . S
Co28 O29 2.216 . S
Co28 O30 2.091 . S
Co28 O32 2.004 . S
Co28 O38 2.021 . S
Co28 O40 2.137 . S
Co28 O41 2.244 1_556 S
O29 Co28 2.216 . S
O29 C36 1.247 . S
O30 Co28 2.091 . S
O30 C36 1.261 . S
C31 O40 1.247 . S
C31 O41 1.272 1_556 S
O32 Co28 2.004 . S
O32 C37 1.259 . S
Co33 O34 2.061 1_554 S
Co33 O39 2.052 . S
Co33 O41 2.135 . S
O34 Co33 2.061 1_556 S
O34 C37 1.235 . S
C35 O38 1.238 . S
C35 O39 1.241 1_556 S
C36 O29 1.247 . S
C36 O30 1.261 . S
C37 O32 1.259 . S
C37 O34 1.235 . S
O38 Co28 2.021 . S
O38 C35 1.238 . S
O39 Co33 2.052 . S
O39 C35 1.241 1_554 S
O40 Co28 2.137 . S
O40 C31 1.247 . S
O41 Co28 2.244 1_554 S
O41 C31 1.272 1_554 S
O41 Co33 2.135 . S
Co42 O43 2.216 . S
Co42 O44 2.091 . S
Co42 O46 2.004 . S
Co42 O52 2.021 . S
Co42 O54 2.137 . S
Co42 O55 2.244 1_556 S
O43 Co42 2.216 . S
O43 C50 1.247 . S
O44 Co42 2.091 . S
O44 C50 1.261 . S
C45 O54 1.247 . S
C45 O55 1.272 1_556 S
O46 Co42 2.004 . S
O46 C51 1.259 . S
Co47 O48 2.061 1_554 S
Co47 O53 2.052 . S
Co47 O55 2.135 . S
O48 Co47 2.061 1_556 S
O48 C51 1.235 . S
C49 O52 1.238 . S
C49 O53 1.241 1_556 S
C50 O43 1.247 . S
C50 O44 1.261 . S
C51 O46 1.259 . S
C51 O48 1.235 . S
O52 Co42 2.021 . S
O52 C49 1.238 . S
O53 Co47 2.052 . S
O53 C49 1.241 1_554 S
O54 Co42 2.137 . S
O54 C45 1.247 . S
O55 Co42 2.244 1_554 S
O55 C45 1.272 1_554 S
O55 Co47 2.135 . S
C23 C9 1.196 1_565 S
C7 C21 1.073 . S
C51 C37 1.196 1_545 S
C35 C49 1.073 . S
C3 C31 1.730 1_444 S
C45 C17 1.730 1_546 S
C36 C8 1.820 1_655 S
C22 C50 1.820 . S
