# Generated by pormake.
# Topology pcu, (6)-cn, num edge types: 1
# Building blocks:
#     Node 0, Type 0, BuildingBlock: FUNLAD_clean_sbu_0, # of connection points: 6
#     Edge 1, Type (0, 0), BuildingBlock: UVAHIK_clean_linker_0, # of connection points: 2
#     Edge 2, Type (0, 0), BuildingBlock: UVAHIK_clean_linker_0, # of connection points: 2
#     Edge 3, Type (0, 0), BuildingBlock: UVAHIK_clean_linker_0, # of connection points: 2
# Relax obj value: 0.000
# Max RMSD: 0.000
# Mean RMSD: 0.000
data_MOF--net-pcu--node1-FUNLAD_clean_sbu_0--edge1-UVAHIK_clean_linker_0
_symmetry_space_group_name_H-M    P1
_symmetry_Int_Tables_number       1
_symmetry_cell_setting            triclinic
loop_
_symmetry_equiv_pos_as_xyz
'x, y, z'
_cell_length_a     19.933495
_cell_length_b     19.918412
_cell_length_c     26.3008
_cell_angle_alpha  90.569264
_cell_angle_beta   93.138729
_cell_angle_gamma 94.586512
loop_
_atom_site_label
_atom_site_type_symbol
_atom_site_fract_x
_atom_site_fract_y
_atom_site_fract_z
_atom_type_partial_charge
C0 C 0.12432 -0.01044 0.00962 0.0
N1 N 0.97992 0.98462 0.88742 0.0
C2 C 0.02387 0.02833 0.86405 0.0
C3 C 0.02476 0.02899 0.81105 0.0
C4 C 0.97996 0.98425 0.78165 0.0
C5 C 0.93473 0.94002 0.80677 0.0
C6 C 0.93563 0.941 0.85994 0.0
Zn7 Zn 0.98237 0.98443 0.96522 0.0
C8 C 0.98005 0.84622 1.00659 0.0
N9 N -0.00925 -0.0144 0.12781 0.0
C10 C 0.03504 0.02922 0.15528 0.0
C11 C 0.9468 0.94189 0.15118 0.0
C12 C 0.94591 0.94123 0.20418 0.0
C13 C -0.00929 -0.01403 0.23358 0.0
C14 C 0.03594 0.0302 0.20845 0.0
Zn15 Zn -0.0117 -0.01421 0.05001 0.0
O16 O 0.08906 -0.01204 0.96781 0.0
C17 C -0.00938 0.124 0.00864 0.0
O18 O 0.09499 -0.01061 0.05135 0.0
H19 H 0.91213 0.9075 0.12865 0.0
H20 H 0.05854 0.06273 0.88657 0.0
H21 H 0.06942 0.06367 0.13592 0.0
O22 O -0.0134 0.09101 0.96682 0.0
O23 O -0.0075 0.09239 0.05037 0.0
H24 H 0.90125 0.90655 0.8793 0.0
O25 O 0.88161 0.98227 0.04741 0.0
O26 O 0.87568 0.98084 0.96387 0.0
O27 O 0.98407 0.87921 0.0484 0.0
O28 O 0.97817 0.87783 0.96485 0.0
C29 C 0.84635 0.98067 1.0056 0.0
H30 H 0.05981 0.06462 0.79329 0.0
H31 H 0.89982 0.9042 0.78563 0.0
H32 H 0.91086 0.90561 0.22194 0.0
H33 H 0.07085 0.06602 0.22959 0.0
C34 C 0.05034 -0.00692 0.32041 0.0
C35 C -0.01016 -0.01338 0.29004 0.0
C36 C 0.04935 -0.00706 0.37352 0.0
C37 C 0.93932 0.0209 0.47907 0.0
H38 H 0.06683 0.92044 0.55746 0.0
C39 C 0.92033 0.97714 0.69481 0.0
C40 C 0.98083 0.98361 0.72518 0.0
C41 C 0.92132 0.97728 0.6417 0.0
C42 C 0.03135 0.94933 0.53616 0.0
H43 H 0.88083 0.97613 0.29175 0.0
H44 H 0.87914 0.97474 0.38431 0.0
H45 H 0.0691 0.92186 0.46487 0.0
H46 H 0.08984 -0.00591 0.72347 0.0
H47 H 0.09153 -0.00452 0.63092 0.0
H48 H 0.90157 0.04836 0.55036 0.0
C49 C 0.92736 0.98042 0.36709 0.0
C50 C 0.03269 0.95017 0.4831 0.0
C51 C 0.92836 0.98042 0.31402 0.0
C52 C 0.04232 -0.0102 0.70121 0.0
C53 C 0.04331 -0.01019 0.64814 0.0
C54 C 0.93798 0.02005 0.53213 0.0
C55 C -0.01217 -0.01346 0.39747 0.0
C56 C -0.01332 -0.01404 0.45393 0.0
C57 C 0.98284 0.98368 0.61775 0.0
C58 C 0.98399 0.98426 0.5613 0.0
H59 H 0.09856 -0.00265 0.30314 0.0
H60 H 0.09681 -0.00155 0.39584 0.0
H61 H 0.90384 0.04978 0.45777 0.0
H62 H 0.87211 0.97287 0.71208 0.0
H63 H 0.87386 0.97177 0.61939 0.0
C64 C 0.23818 -0.00947 0.05539 0.0
C65 C 0.19863 -0.00966 0.00946 0.0
C66 C 0.30823 -0.01027 0.055 0.0
C67 C 0.44322 0.94548 0.97301 0.0
H68 H 0.55914 0.05667 0.06887 0.0
C69 C 0.73249 0.97969 0.95984 0.0
C70 C 0.77204 0.97989 1.00576 0.0
C71 C 0.66244 0.98049 0.96023 0.0
C72 C 0.52745 0.02474 0.04222 0.0
H73 H 0.20178 -0.01008 0.92709 0.0
H74 H 0.32384 -0.01082 0.9265 0.0
H75 H 0.43717 0.05961 0.06984 0.0
H76 H 0.76889 0.9803 0.08814 0.0
H77 H 0.64683 0.98104 0.08873 0.0
H78 H 0.5335 0.91061 0.94538 0.0
C79 C 0.30068 -0.01101 0.96281 0.0
C80 C 0.45754 0.02644 0.04279 0.0
C81 C 0.23071 -0.01016 0.96318 0.0
C82 C 0.73996 0.98038 0.05205 0.0
C83 C 0.66999 0.98124 0.05242 0.0
C84 C 0.51313 0.94378 0.97244 0.0
C85 C 0.34025 -0.01134 0.00869 0.0
C86 C 0.41461 -0.01315 0.00817 0.0
C87 C 0.63042 0.98156 1.00653 0.0
C88 C 0.55606 0.98337 1.00705 0.0
H89 H 0.21504 -0.00923 0.0917 0.0
H90 H 0.3372 -0.01122 0.09101 0.0
H91 H 0.41153 0.91356 0.94636 0.0
H92 H 0.75562 0.97946 0.92352 0.0
H93 H 0.63347 0.98144 0.92422 0.0
C94 C 0.97658 0.73509 0.96058 0.0
C95 C 0.97902 0.77187 1.00662 0.0
C96 C 0.97747 0.66501 0.96074 0.0
C97 C 0.94564 0.51642 0.04148 0.0
H98 H 0.05689 0.43071 0.94768 0.0
C99 C -0.00591 0.23513 0.05465 0.0
C100 C -0.00835 0.19835 0.00861 0.0
C101 C -0.0068 0.30521 0.05449 0.0
C102 C 0.02503 0.4538 0.97374 0.0
H103 H 0.98377 0.7638 0.08896 0.0
H104 H -0.01416 0.64169 0.08917 0.0
H105 H 0.05275 0.55271 0.94695 0.0
H106 H -0.0131 0.20642 0.92627 0.0
H107 H 0.98483 0.32853 0.92606 0.0
H108 H 0.91792 0.41751 0.06828 0.0
C109 C 0.98254 0.66693 0.05294 0.0
C110 C 0.02261 0.5237 0.97329 0.0
C111 C 0.98171 0.73699 0.0528 0.0
C112 C -0.01104 0.23324 0.96243 0.0
C113 C -0.01187 0.30329 0.96229 0.0
C114 C 0.94806 0.44652 0.04193 0.0
C115 C 0.98073 0.63017 1.00692 0.0
C116 C 0.98288 0.55581 1.00716 0.0
C117 C -0.01006 0.34006 0.0083 0.0
C118 C -0.01221 0.41441 0.00807 0.0
H119 H 0.97427 0.7604 0.92433 0.0
H120 H 0.9751 0.63805 0.92463 0.0
H121 H 0.91378 0.53952 0.06755 0.0
H122 H -0.0036 0.20982 0.09089 0.0
H123 H -0.00443 0.33217 0.09059 0.0
loop_
_geom_bond_atom_site_label_1
_geom_bond_atom_site_label_2
_geom_bond_distance
_geom_bond_site_symmetry_2
_ccdc_geom_bond_type
C0 O16 1.243 1_544 S
C0 O18 1.263 . S
N1 C2 1.333 1_665 S
N1 C6 1.307 . S
N1 Zn7 2.020 . S
C2 N1 1.333 1_445 S
C2 C3 1.379 . S
C2 H20 0.952 . S
C3 C2 1.379 . S
C3 C4 1.391 1_455 S
C3 H30 0.949 . S
C4 C3 1.391 1_655 S
C4 C5 1.355 1_545 S
C5 C4 1.355 1_565 S
C5 C6 1.370 . S
C5 H31 0.950 . S
C6 N1 1.307 . S
C6 C5 1.370 . S
C6 H24 0.948 . S
Zn7 N1 2.020 . S
Zn7 O16 2.039 1_655 S
Zn7 O22 2.034 1_665 S
Zn7 O26 2.025 . S
Zn7 O28 2.024 . S
C8 O27 1.246 1_556 S
C8 O28 1.249 . S
N9 C10 1.307 . S
N9 C11 1.333 1_445 S
N9 Zn15 2.020 . S
C10 N9 1.307 . S
C10 C14 1.370 . S
C10 H21 0.948 . S
C11 N9 1.333 1_665 S
C11 C12 1.379 . S
C11 H19 0.952 . S
C12 C11 1.379 . S
C12 C13 1.390 1_655 S
C12 H32 0.949 . S
C13 C12 1.390 1_455 S
C13 C14 1.356 1_565 S
C14 C10 1.370 . S
C14 C13 1.356 1_545 S
C14 H33 0.950 . S
Zn15 N9 2.020 . S
Zn15 O18 2.025 . S
Zn15 O23 2.024 . S
Zn15 O25 2.039 1_455 S
Zn15 O27 2.034 1_445 S
O16 C0 1.243 1_566 S
O16 Zn7 2.039 1_455 S
C17 O22 1.246 1_554 S
C17 O23 1.249 . S
O18 C0 1.263 . S
O18 Zn15 2.025 . S
H19 C11 0.952 . S
H20 C2 0.952 . S
H21 C10 0.948 . S
O22 Zn7 2.034 1_445 S
O22 C17 1.246 1_556 S
O23 Zn15 2.024 . S
O23 C17 1.249 . S
H24 C6 0.948 . S
O25 Zn15 2.039 1_655 S
O25 C29 1.248 1_544 S
O26 Zn7 2.025 . S
O26 C29 1.259 . S
O27 C8 1.246 1_554 S
O27 Zn15 2.034 1_665 S
O28 Zn7 2.024 . S
O28 C8 1.249 . S
C29 O25 1.248 1_566 S
C29 O26 1.259 . S
H30 C3 0.949 . S
H31 C5 0.950 . S
H32 C12 0.949 . S
H33 C14 0.950 . S
C34 C35 1.349 1_565 S
C34 C36 1.327 . S
C34 H59 0.950 . S
C35 C34 1.349 1_545 S
C35 C51 1.349 1_455 S
C36 C34 1.327 . S
C36 C55 1.429 1_565 S
C36 H60 0.950 . S
C37 C54 1.574 . S
C37 C56 1.368 1_655 S
C37 H61 0.949 . S
H38 C42 0.949 . S
C39 C40 1.349 1_655 S
C39 C41 1.327 . S
C39 H62 0.950 . S
C40 C39 1.349 1_455 S
C40 C52 1.349 1_545 S
C41 C39 1.327 . S
C41 C57 1.429 1_655 S
C41 H63 0.950 . S
C42 H38 0.949 . S
C42 C50 1.574 . S
C42 C58 1.368 1_565 S
H43 C51 0.950 . S
H44 C49 0.950 . S
H45 C50 0.949 . S
H46 C52 0.950 . S
H47 C53 0.950 . S
H48 C54 0.949 . S
C49 H44 0.950 . S
C49 C51 1.327 . S
C49 C55 1.429 1_655 S
C50 C42 1.574 . S
C50 H45 0.949 . S
C50 C56 1.368 1_565 S
C51 C35 1.349 1_655 S
C51 H43 0.950 . S
C51 C49 1.327 . S
C52 C40 1.349 1_565 S
C52 H46 0.950 . S
C52 C53 1.327 . S
C53 H47 0.950 . S
C53 C52 1.327 . S
C53 C57 1.429 1_565 S
C54 C37 1.574 . S
C54 H48 0.949 . S
C54 C58 1.368 1_655 S
C55 C36 1.429 1_545 S
C55 C49 1.429 1_455 S
C55 C56 1.523 . S
C56 C37 1.368 1_455 S
C56 C50 1.368 1_545 S
C56 C55 1.523 . S
C57 C41 1.429 1_455 S
C57 C53 1.429 1_545 S
C57 C58 1.523 . S
C58 C42 1.368 1_545 S
C58 C54 1.368 1_455 S
C58 C57 1.523 . S
H59 C34 0.950 . S
H60 C36 0.950 . S
H61 C37 0.949 . S
H62 C39 0.950 . S
H63 C41 0.950 . S
C64 C65 1.349 . S
C64 C66 1.327 . S
C64 H89 0.950 . S
C65 C64 1.349 . S
C65 C81 1.349 1_544 S
C66 C64 1.327 . S
C66 C85 1.429 . S
C66 H90 0.950 . S
C67 C84 1.574 . S
C67 C86 1.368 1_566 S
C67 H91 0.949 . S
H68 C72 0.949 . S
C69 C70 1.349 1_566 S
C69 C71 1.327 . S
C69 H92 0.950 . S
C70 C69 1.349 1_544 S
C70 C82 1.349 . S
C71 C69 1.327 . S
C71 C87 1.429 1_566 S
C71 H93 0.950 . S
C72 H68 0.949 . S
C72 C80 1.574 . S
C72 C88 1.368 . S
H73 C81 0.950 . S
H74 C79 0.950 . S
H75 C80 0.949 . S
H76 C82 0.950 . S
H77 C83 0.950 . S
H78 C84 0.949 . S
C79 H74 0.950 . S
C79 C81 1.327 . S
C79 C85 1.429 1_566 S
C80 C72 1.574 . S
C80 H75 0.949 . S
C80 C86 1.368 . S
C81 C65 1.349 1_566 S
C81 H73 0.950 . S
C81 C79 1.327 . S
C82 C70 1.349 . S
C82 H76 0.950 . S
C82 C83 1.327 . S
C83 H77 0.950 . S
C83 C82 1.327 . S
C83 C87 1.429 . S
C84 C67 1.574 . S
C84 H78 0.949 . S
C84 C88 1.368 1_566 S
C85 C66 1.429 . S
C85 C79 1.429 1_544 S
C85 C86 1.523 . S
C86 C67 1.368 1_544 S
C86 C80 1.368 . S
C86 C85 1.523 . S
C87 C71 1.429 1_544 S
C87 C83 1.429 . S
C87 C88 1.523 . S
C88 C72 1.368 . S
C88 C84 1.368 1_544 S
C88 C87 1.523 . S
H89 C64 0.950 . S
H90 C66 0.950 . S
H91 C67 0.949 . S
H92 C69 0.950 . S
H93 C71 0.950 . S
C94 C95 1.349 1_556 S
C94 C96 1.327 . S
C94 H119 0.950 . S
C95 C94 1.349 1_554 S
C95 C111 1.349 1_455 S
C96 C94 1.327 . S
C96 C115 1.429 1_556 S
C96 H120 0.950 . S
C97 C114 1.574 . S
C97 C116 1.368 1_655 S
C97 H121 0.949 . S
H98 C102 0.949 . S
C99 C100 1.349 1_655 S
C99 C101 1.327 . S
C99 H122 0.950 . S
C100 C99 1.349 1_455 S
C100 C112 1.349 1_554 S
C101 C99 1.327 . S
C101 C117 1.429 1_655 S
C101 H123 0.950 . S
C102 H98 0.949 . S
C102 C110 1.574 . S
C102 C118 1.368 1_556 S
H103 C111 0.950 . S
H104 C109 0.950 . S
H105 C110 0.949 . S
H106 C112 0.950 . S
H107 C113 0.950 . S
H108 C114 0.949 . S
C109 H104 0.950 . S
C109 C111 1.327 . S
C109 C115 1.429 1_655 S
C110 C102 1.574 . S
C110 H105 0.949 . S
C110 C116 1.368 1_556 S
C111 C95 1.349 1_655 S
C111 H103 0.950 . S
C111 C109 1.327 . S
C112 C100 1.349 1_556 S
C112 H106 0.950 . S
C112 C113 1.327 . S
C113 H107 0.950 . S
C113 C112 1.327 . S
C113 C117 1.429 1_556 S
C114 C97 1.574 . S
C114 H108 0.949 . S
C114 C118 1.368 1_655 S
C115 C96 1.429 1_554 S
C115 C109 1.429 1_455 S
C115 C116 1.523 . S
C116 C97 1.368 1_455 S
C116 C110 1.368 1_554 S
C116 C115 1.523 . S
C117 C101 1.429 1_455 S
C117 C113 1.429 1_554 S
C117 C118 1.523 . S
C118 C102 1.368 1_554 S
C118 C114 1.368 1_455 S
C118 C117 1.523 . S
H119 C94 0.950 . S
H120 C96 0.950 . S
H121 C97 0.949 . S
H122 C99 0.950 . S
H123 C101 0.950 . S
C35 C13 1.498 1_545 S
C40 C4 1.498 1_455 S
C65 C0 1.499 . S
C70 C29 1.498 1_544 S
C95 C8 1.497 1_454 S
C100 C17 1.497 . S
