# Generated by pormake.
# Topology lon, (4)-cn, num edge types: 1
# Building blocks:
#     Node 0, Type 0, BuildingBlock: QUQFOY_clean_sbu_3, # of connection points: 4
#     Node 1, Type 0, BuildingBlock: QUQFOY_clean_sbu_3, # of connection points: 4
#     Node 2, Type 0, BuildingBlock: QUQFOY_clean_sbu_3, # of connection points: 4
#     Node 3, Type 0, BuildingBlock: QUQFOY_clean_sbu_3, # of connection points: 4
#     Edge 4, Type (0, 0), BuildingBlock: XIVTED_clean_linker_0, # of connection points: 2
#     Edge 5, Type (0, 0), BuildingBlock: XIVTED_clean_linker_0, # of connection points: 2
#     Edge 6, Type (0, 0), BuildingBlock: XIVTED_clean_linker_0, # of connection points: 2
#     Edge 7, Type (0, 0), BuildingBlock: XIVTED_clean_linker_0, # of connection points: 2
#     Edge 8, Type (0, 0), BuildingBlock: XIVTED_clean_linker_0, # of connection points: 2
#     Edge 9, Type (0, 0), BuildingBlock: XIVTED_clean_linker_0, # of connection points: 2
#     Edge 10, Type (0, 0), BuildingBlock: XIVTED_clean_linker_0, # of connection points: 2
#     Edge 11, Type (0, 0), BuildingBlock: XIVTED_clean_linker_0, # of connection points: 2
# Relax obj value: 0.136
# Max RMSD: 0.173
# Mean RMSD: 0.169
data_MOF--net-lon--node1-QUQFOY_clean_sbu_3--edge1-XIVTED_clean_linker_0
_symmetry_space_group_name_H-M    P1
_symmetry_Int_Tables_number       1
_symmetry_cell_setting            triclinic
loop_
_symmetry_equiv_pos_as_xyz
'x, y, z'
_cell_length_a     24.096576
_cell_length_b     26.146544
_cell_length_c     42.191982
_cell_angle_alpha  89.674944
_cell_angle_beta   90.161273
_cell_angle_gamma 117.34358
loop_
_atom_site_label
_atom_site_type_symbol
_atom_site_fract_x
_atom_site_fract_y
_atom_site_fract_z
_atom_type_partial_charge
C0 C 0.20284 0.65464 0.0278 0.0
O1 O 0.22012 0.70833 0.02897 0.0
Cd2 Cd 0.32237 0.77388 0.04693 0.0
O3 O 0.24085 0.63463 0.03423 0.0
Cd4 Cd 0.35227 0.66965 0.04782 0.0
C5 C 0.32697 0.71363 0.1187 0.0
O6 O 0.39128 0.7534 0.01375 0.0
O7 O 0.45798 0.7514 0.04725 0.0
O8 O 0.34839 0.59337 0.01354 0.0
C9 C 0.44724 0.77502 0.02334 0.0
O10 O 0.32376 0.75519 0.10434 0.0
C11 C 0.37788 0.57697 0.03266 0.0
O12 O 0.33471 0.67583 0.10329 0.0
O13 O 0.39505 0.6036 0.05876 0.0
C14 C 0.59301 0.38873 0.51393 0.0
O15 O 0.58944 0.35668 0.49071 0.0
Cd16 Cd 0.60199 0.27194 0.49221 0.0
O17 O 0.60503 0.37741 0.54182 0.0
Cd18 Cd 0.62862 0.30221 0.5657 0.0
C19 C 0.75278 0.33624 0.51733 0.0
O20 O 0.54609 0.22247 0.53861 0.0
O21 O 0.61374 0.20304 0.56167 0.0
O22 O 0.58345 0.31222 0.61604 0.0
C23 C 0.56269 0.18497 0.54669 0.0
O24 O 0.71488 0.30852 0.49528 0.0
C25 C 0.62464 0.30756 0.63294 0.0
O26 O 0.73303 0.34321 0.54408 0.0
O27 O 0.66823 0.30299 0.61851 0.0
C28 C 0.19715 0.60282 0.47404 0.0
O29 O 0.22558 0.6353 0.49716 0.0
Cd30 Cd 0.32402 0.71882 0.49567 0.0
O31 O 0.22091 0.61305 0.44633 0.0
Cd32 Cd 0.31985 0.68587 0.42231 0.0
C33 C 0.40992 0.65283 0.47234 0.0
O34 O 0.32134 0.76778 0.44823 0.0
O35 O 0.40761 0.78354 0.4255 0.0
O36 O 0.2724 0.69163 0.37202 0.0
C37 C 0.37592 0.80361 0.43999 0.0
O38 O 0.39897 0.68049 0.4941 0.0
C39 C 0.30643 0.67707 0.35523 0.0
O40 O 0.38424 0.64617 0.44523 0.0
O41 O 0.34492 0.66474 0.3698 0.0
C42 C 0.52331 0.29466 0.96358 0.0
O43 O 0.48643 0.24367 0.95509 0.0
Cd44 Cd 0.52461 0.17955 0.93556 0.0
O45 O 0.58212 0.3145 0.96052 0.0
Cd46 Cd 0.65637 0.28316 0.93958 0.0
C47 C 0.59033 0.24934 0.8672 0.0
O48 O 0.613 0.1931 0.96774 0.0
O49 O 0.6785 0.20096 0.93084 0.0
O50 O 0.73273 0.33863 0.9795 0.0
C51 C 0.64668 0.17367 0.95477 0.0
O52 O 0.54997 0.20244 0.8795 0.0
C53 C 0.77466 0.37 0.95998 0.0
O54 O 0.63101 0.28872 0.88425 0.0
O55 O 0.76153 0.36134 0.93071 0.0
H56 H 0.28963 0.77274 0.16016 0.0
H57 H 0.35985 0.63286 0.31389 0.0
H58 H 0.35219 0.6423 0.15676 0.0
H59 H 0.24928 0.72398 0.31715 0.0
H60 H 0.36287 0.64093 0.25621 0.0
H61 H 0.2806 0.76135 0.21796 0.0
C62 C 0.30155 0.74186 0.17153 0.0
C63 C 0.32171 0.70846 0.15359 0.0
C64 C 0.33757 0.65884 0.2695 0.0
C65 C 0.31161 0.69534 0.21946 0.0
C66 C 0.33585 0.65424 0.30243 0.0
C67 C 0.30427 0.67777 0.32029 0.0
C68 C 0.30816 0.68782 0.25431 0.0
C69 C 0.27397 0.70505 0.30422 0.0
C70 C 0.2961 0.73518 0.20445 0.0
C71 C 0.33631 0.6689 0.16956 0.0
N72 N 0.27707 0.70975 0.27209 0.0
N73 N 0.33122 0.66365 0.20154 0.0
H74 H 0.57319 0.35595 0.6734 0.0
H75 H 0.56275 0.16831 0.8214 0.0
H76 H 0.66363 0.24681 0.67109 0.0
H77 H 0.62037 0.34925 0.83475 0.0
H78 H 0.57045 0.18415 0.76381 0.0
H79 H 0.56275 0.34283 0.73141 0.0
C80 C 0.59082 0.32938 0.68512 0.0
C81 C 0.61967 0.30269 0.66767 0.0
C82 C 0.58095 0.22014 0.77948 0.0
C83 C 0.6061 0.28625 0.73303 0.0
C84 C 0.57632 0.21117 0.81216 0.0
C85 C 0.59129 0.25766 0.83266 0.0
C86 C 0.59882 0.27555 0.76736 0.0
C87 C 0.60896 0.31247 0.81959 0.0
C88 C 0.58495 0.32206 0.718 0.0
C89 C 0.64167 0.26855 0.68381 0.0
N90 N 0.6118 0.31994 0.78762 0.0
N91 N 0.63371 0.26066 0.71559 0.0
H92 H 0.32894 0.49803 0.98505 0.0
H93 H 0.58385 0.38877 0.00099 0.0
H94 H 0.46255 0.55039 0.06169 0.0
H95 H 0.40644 0.28592 0.95552 0.0
H96 H 0.54414 0.45367 0.02016 0.0
H97 H 0.36018 0.42435 0.97041 0.0
C98 C 0.36462 0.49383 -0.00115 0.0
C99 C 0.39347 0.53042 0.02451 0.0
C100 C 0.51376 0.41664 0.00619 0.0
C101 C 0.4296 0.44707 0.00777 0.0
C102 C 0.53644 0.37979 -0.00488 0.0
C103 C 0.49837 0.33209 0.97657 0.0
C104 C 0.45301 0.40635 -0.00186 0.0
C105 C 0.4372 0.3222 0.96983 0.0
C106 C 0.38216 0.45171 0.99059 0.0
C107 C 0.43918 0.52306 0.04173 0.0
N108 N 0.41654 0.3595 0.98033 0.0
N109 N 0.45636 0.48258 0.03282 0.0
H110 H 0.1123 0.53266 0.43006 0.0
H111 H 0.84673 0.38328 0.56072 0.0
H112 H 0.14061 0.56103 0.53087 0.0
H113 H 0.81331 0.35231 0.46037 0.0
H114 H 0.95795 0.43867 0.55011 0.0
H115 H 0.00603 0.45723 0.4405 0.0
C116 C 0.09642 0.5227 0.45436 0.0
C117 C 0.13502 0.55378 0.4796 0.0
C118 C 0.92646 0.41941 0.53037 0.0
C119 C 0.01397 0.46781 0.49166 0.0
C120 C 0.86287 0.38778 0.53644 0.0
C121 C 0.82061 0.36389 0.51135 0.0
C122 C 0.94804 0.42778 0.49895 0.0
C123 C 0.84428 0.37041 0.4804 0.0
C124 C 0.03582 0.47967 0.4603 0.0
C125 C 0.11222 0.53885 0.51062 0.0
N126 N 0.90647 0.40244 0.47501 0.0
N127 N 0.0531 0.49728 0.51573 0.0
H128 H 0.63618 0.13193 0.01438 0.0
H129 H 0.45238 0.81736 0.96387 0.0
H130 H 0.64024 0.08708 0.91655 0.0
H131 H 0.54852 0.85816 0.05374 0.0
H132 H 0.52137 0.91505 0.94523 0.0
H133 H 0.606 0.03227 0.02975 0.0
C134 C 0.63183 0.10112 -0.00375 0.0
C135 C 0.64012 0.11714 0.96422 0.0
C136 C 0.52825 0.90218 0.96876 0.0
C137 C 0.60426 0.00343 0.98141 0.0
C138 C 0.48871 0.84672 0.97946 0.0
C139 C 0.49446 0.83024 0.01047 0.0
C140 C 0.57244 0.94168 0.98958 0.0
C141 C 0.54249 0.86949 0.02971 0.0
C142 C 0.61495 0.04449 0.005 0.0
C143 C 0.63418 0.07605 0.94151 0.0
N144 N 0.57882 0.92405 0.01921 0.0
N145 N 0.61494 0.02042 0.95047 0.0
H146 H 0.5866 0.43528 0.45703 0.0
H147 H 0.45571 0.63967 0.5298 0.0
H148 H 0.57058 0.45467 0.55768 0.0
H149 H 0.45553 0.60284 0.43011 0.0
H150 H 0.51292 0.58464 0.54057 0.0
H151 H 0.55452 0.50944 0.44709 0.0
C152 C 0.57667 0.45541 0.4771 0.0
C153 C 0.58029 0.43808 0.50824 0.0
C154 C 0.50083 0.58914 0.51633 0.0
C155 C 0.54307 0.52307 0.49695 0.0
C156 C 0.46829 0.62061 0.51014 0.0
C157 C 0.45009 0.6252 0.47904 0.0
C158 C 0.51536 0.56237 0.49122 0.0
C159 C 0.46785 0.59983 0.4545 0.0
C160 C 0.55838 0.49787 0.47139 0.0
C161 C 0.56787 0.46642 0.53329 0.0
N162 N 0.49909 0.5692 0.46117 0.0
N163 N 0.54904 0.50716 0.52709 0.0
H164 H 0.12396 0.67726 0.99028 0.0
H165 H 0.82979 0.37367 0.01689 0.0
H166 H 0.13552 0.54165 0.04418 0.0
H167 H 0.85923 0.46505 0.92801 0.0
H168 H 0.93377 0.4448 0.03427 0.0
H169 H 0.01767 0.60884 0.97395 0.0
C170 C 0.10394 0.63324 -0.00118 0.0
C171 C 0.13839 0.61484 0.0185 0.0
C172 C 0.91724 0.44919 0.01101 0.0
C173 C 0.01747 0.53733 0.00038 0.0
C174 C 0.85802 0.40893 0.00114 0.0
C175 C 0.83626 0.41354 0.97094 0.0
C176 C 0.95418 0.49494 0.9908 0.0
C177 C 0.87465 0.45988 0.95139 0.0
C178 C 0.04367 0.59436 0.98938 0.0
C179 C 0.11057 0.55735 0.02881 0.0
N180 N 0.93183 0.49918 0.96175 0.0
N181 N 0.05143 0.52063 0.0198 0.0
H182 H 0.44663 0.13011 0.52072 0.0
H183 H 0.50035 0.87704 0.4471 0.0
H184 H 0.61151 0.10981 0.53997 0.0
H185 H 0.31661 0.86238 0.46276 0.0
H186 H 0.54592 0.97046 0.47382 0.0
H187 H 0.40108 0.03788 0.49301 0.0
C188 C 0.47299 0.10599 0.51927 0.0
C189 C 0.53277 0.12734 0.53261 0.0
C190 C 0.49566 0.94673 0.47127 0.0
C191 C 0.48169 0.02292 0.50062 0.0
C192 C 0.46974 0.89383 0.45583 0.0
C193 C 0.40472 0.86213 0.45291 0.0
C194 C 0.4562 0.9681 0.48334 0.0
C195 C 0.367 0.8855 0.46474 0.0
C196 C 0.44707 0.05355 0.50348 0.0
C197 C 0.56511 0.0946 0.53012 0.0
N198 N 0.39333 0.93724 0.47944 0.0
N199 N 0.53932 0.04406 0.51413 0.0
loop_
_geom_bond_atom_site_label_1
_geom_bond_atom_site_label_2
_geom_bond_distance
_geom_bond_site_symmetry_2
_ccdc_geom_bond_type
C0 O1 1.306 . S
C0 O3 1.160 . S
O1 C0 1.306 . S
O1 Cd2 2.228 . S
Cd2 O1 2.228 . S
Cd2 O6 2.273 . S
Cd2 O10 2.277 . S
O3 C0 1.160 . S
O3 Cd4 2.203 . S
Cd4 O3 2.203 . S
Cd4 O6 2.411 . S
Cd4 O7 2.333 . S
Cd4 O8 2.352 . S
Cd4 O12 2.277 . S
Cd4 O13 2.356 . S
C5 O10 1.209 . S
C5 O12 1.226 . S
O6 Cd2 2.273 . S
O6 Cd4 2.411 . S
O6 C9 1.320 . S
O7 Cd4 2.333 . S
O7 C9 1.214 . S
O8 Cd4 2.352 . S
O8 C11 1.258 . S
C9 O6 1.320 . S
C9 O7 1.214 . S
O10 Cd2 2.277 . S
O10 C5 1.209 . S
C11 O8 1.258 . S
C11 O13 1.282 . S
O12 Cd4 2.277 . S
O12 C5 1.226 . S
O13 Cd4 2.356 . S
O13 C11 1.282 . S
C14 O15 1.306 . S
C14 O17 1.160 . S
O15 C14 1.306 . S
O15 Cd16 2.228 . S
Cd16 O15 2.228 . S
Cd16 O20 2.273 . S
Cd16 O24 2.277 . S
O17 C14 1.160 . S
O17 Cd18 2.203 . S
Cd18 O17 2.203 . S
Cd18 O20 2.411 . S
Cd18 O21 2.333 . S
Cd18 O22 2.352 . S
Cd18 O26 2.277 . S
Cd18 O27 2.356 . S
C19 O24 1.209 . S
C19 O26 1.226 . S
O20 Cd16 2.273 . S
O20 Cd18 2.411 . S
O20 C23 1.320 . S
O21 Cd18 2.333 . S
O21 C23 1.214 . S
O22 Cd18 2.352 . S
O22 C25 1.258 . S
C23 O20 1.320 . S
C23 O21 1.214 . S
O24 Cd16 2.277 . S
O24 C19 1.209 . S
C25 O22 1.258 . S
C25 O27 1.282 . S
O26 Cd18 2.277 . S
O26 C19 1.226 . S
O27 Cd18 2.356 . S
O27 C25 1.282 . S
C28 O29 1.306 . S
C28 O31 1.160 . S
O29 C28 1.306 . S
O29 Cd30 2.228 . S
Cd30 O29 2.228 . S
Cd30 O34 2.273 . S
Cd30 O38 2.277 . S
O31 C28 1.160 . S
O31 Cd32 2.203 . S
Cd32 O31 2.203 . S
Cd32 O34 2.411 . S
Cd32 O35 2.333 . S
Cd32 O36 2.352 . S
Cd32 O40 2.277 . S
Cd32 O41 2.356 . S
C33 O38 1.209 . S
C33 O40 1.226 . S
O34 Cd30 2.273 . S
O34 Cd32 2.411 . S
O34 C37 1.320 . S
O35 Cd32 2.333 . S
O35 C37 1.214 . S
O36 Cd32 2.352 . S
O36 C39 1.258 . S
C37 O34 1.320 . S
C37 O35 1.214 . S
O38 Cd30 2.277 . S
O38 C33 1.209 . S
C39 O36 1.258 . S
C39 O41 1.282 . S
O40 Cd32 2.277 . S
O40 C33 1.226 . S
O41 Cd32 2.356 . S
O41 C39 1.282 . S
C42 O43 1.306 . S
C42 O45 1.160 . S
O43 C42 1.306 . S
O43 Cd44 2.228 . S
Cd44 O43 2.228 . S
Cd44 O48 2.273 . S
Cd44 O52 2.277 . S
O45 C42 1.160 . S
O45 Cd46 2.203 . S
Cd46 O45 2.203 . S
Cd46 O48 2.411 . S
Cd46 O49 2.333 . S
Cd46 O50 2.352 . S
Cd46 O54 2.277 . S
Cd46 O55 2.356 . S
C47 O52 1.209 . S
C47 O54 1.226 . S
O48 Cd44 2.273 . S
O48 Cd46 2.411 . S
O48 C51 1.320 . S
O49 Cd46 2.333 . S
O49 C51 1.214 . S
O50 Cd46 2.352 . S
O50 C53 1.258 . S
C51 O48 1.320 . S
C51 O49 1.214 . S
O52 Cd44 2.277 . S
O52 C47 1.209 . S
C53 O50 1.258 . S
C53 O55 1.282 . S
O54 Cd46 2.277 . S
O54 C47 1.226 . S
O55 Cd46 2.356 . S
O55 C53 1.282 . S
H56 C62 0.930 . S
H57 C66 0.930 . S
H58 C71 0.929 . S
H59 C69 0.929 . S
H60 C64 0.929 . S
H61 C70 0.929 . S
C62 H56 0.930 . S
C62 C63 1.367 . S
C62 C70 1.378 . S
C63 C62 1.367 . S
C63 C71 1.433 . S
C64 H60 0.929 . S
C64 C66 1.378 . S
C64 C68 1.350 . S
C65 C68 1.463 . S
C65 C70 1.350 . S
C65 N73 1.427 . S
C66 H57 0.930 . S
C66 C64 1.378 . S
C66 C67 1.367 . S
C67 C66 1.367 . S
C67 C69 1.433 . S
C68 C64 1.350 . S
C68 C65 1.463 . S
C68 N72 1.427 . S
C69 H59 0.929 . S
C69 C67 1.433 . S
C69 N72 1.384 . S
C70 H61 0.929 . S
C70 C62 1.378 . S
C70 C65 1.350 . S
C71 H58 0.929 . S
C71 C63 1.433 . S
C71 N73 1.384 . S
N72 C68 1.427 . S
N72 C69 1.384 . S
N73 C65 1.427 . S
N73 C71 1.384 . S
H74 C80 0.930 . S
H75 C84 0.930 . S
H76 C89 0.929 . S
H77 C87 0.929 . S
H78 C82 0.929 . S
H79 C88 0.929 . S
C80 H74 0.930 . S
C80 C81 1.367 . S
C80 C88 1.378 . S
C81 C80 1.367 . S
C81 C89 1.433 . S
C82 H78 0.929 . S
C82 C84 1.378 . S
C82 C86 1.350 . S
C83 C86 1.463 . S
C83 C88 1.350 . S
C83 N91 1.427 . S
C84 H75 0.930 . S
C84 C82 1.378 . S
C84 C85 1.367 . S
C85 C84 1.367 . S
C85 C87 1.433 . S
C86 C82 1.350 . S
C86 C83 1.463 . S
C86 N90 1.427 . S
C87 H77 0.929 . S
C87 C85 1.433 . S
C87 N90 1.384 . S
C88 H79 0.929 . S
C88 C80 1.378 . S
C88 C83 1.350 . S
C89 H76 0.929 . S
C89 C81 1.433 . S
C89 N91 1.384 . S
N90 C86 1.427 . S
N90 C87 1.384 . S
N91 C83 1.427 . S
N91 C89 1.384 . S
H92 C98 0.930 . S
H93 C102 0.930 1_554 S
H94 C107 0.929 . S
H95 C105 0.929 . S
H96 C100 0.929 . S
H97 C106 0.929 . S
C98 H92 0.930 . S
C98 C99 1.367 1_556 S
C98 C106 1.378 . S
C99 C98 1.367 1_554 S
C99 C107 1.433 . S
C100 H96 0.929 . S
C100 C102 1.378 1_554 S
C100 C104 1.350 1_554 S
C101 C104 1.463 . S
C101 C106 1.350 . S
C101 N109 1.427 1_556 S
C102 H93 0.930 1_556 S
C102 C100 1.378 1_556 S
C102 C103 1.367 . S
C103 C102 1.367 . S
C103 C105 1.433 . S
C104 C100 1.350 1_556 S
C104 C101 1.463 . S
C104 N108 1.427 . S
C105 H95 0.929 . S
C105 C103 1.433 . S
C105 N108 1.384 . S
C106 H97 0.929 . S
C106 C98 1.378 . S
C106 C101 1.350 . S
C107 H94 0.929 . S
C107 C99 1.433 . S
C107 N109 1.384 . S
N108 C104 1.427 . S
N108 C105 1.384 . S
N109 C101 1.427 1_554 S
N109 C107 1.384 . S
H110 C116 0.930 . S
H111 C120 0.930 . S
H112 C125 0.929 . S
H113 C123 0.929 . S
H114 C118 0.929 . S
H115 C124 0.929 1_655 S
C116 H110 0.930 . S
C116 C117 1.367 . S
C116 C124 1.378 . S
C117 C116 1.367 . S
C117 C125 1.433 . S
C118 H114 0.929 . S
C118 C120 1.378 . S
C118 C122 1.350 . S
C119 C122 1.463 1_455 S
C119 C124 1.350 . S
C119 N127 1.427 . S
C120 H111 0.930 . S
C120 C118 1.378 . S
C120 C121 1.367 . S
C121 C120 1.367 . S
C121 C123 1.433 . S
C122 C118 1.350 . S
C122 C119 1.463 1_655 S
C122 N126 1.427 . S
C123 H113 0.929 . S
C123 C121 1.433 . S
C123 N126 1.384 . S
C124 H115 0.929 1_455 S
C124 C116 1.378 . S
C124 C119 1.350 . S
C125 H112 0.929 . S
C125 C117 1.433 . S
C125 N127 1.384 . S
N126 C122 1.427 . S
N126 C123 1.384 . S
N127 C119 1.427 . S
N127 C125 1.384 . S
H128 C134 0.937 . S
H129 C138 0.943 . S
H130 C143 0.929 . S
H131 C141 0.929 . S
H132 C136 0.929 . S
H133 C142 0.929 . S
C134 H128 0.937 . S
C134 C135 1.367 . S
C134 C142 1.378 1_556 S
C135 C134 1.367 . S
C135 C143 1.433 . S
C136 H132 0.929 . S
C136 C138 1.378 1_556 S
C136 C140 1.350 1_556 S
C137 C140 1.463 1_546 S
C137 C142 1.350 1_556 S
C137 N145 1.427 . S
C138 H129 0.943 . S
C138 C136 1.378 1_554 S
C138 C139 1.367 . S
C139 C138 1.367 . S
C139 C141 1.433 . S
C140 C136 1.350 1_554 S
C140 C137 1.463 1_564 S
C140 N144 1.427 . S
C141 H131 0.929 . S
C141 C139 1.433 . S
C141 N144 1.384 . S
C142 H133 0.929 . S
C142 C134 1.378 1_554 S
C142 C137 1.350 1_554 S
C143 H130 0.929 . S
C143 C135 1.433 . S
C143 N145 1.384 . S
N144 C140 1.427 . S
N144 C141 1.384 . S
N145 C137 1.427 . S
N145 C143 1.384 . S
H146 C152 0.930 . S
H147 C156 0.930 . S
H148 C161 0.929 . S
H149 C159 0.929 . S
H150 C154 0.929 . S
H151 C160 0.929 . S
C152 H146 0.930 . S
C152 C153 1.367 . S
C152 C160 1.378 . S
C153 C152 1.367 . S
C153 C161 1.433 . S
C154 H150 0.929 . S
C154 C156 1.378 . S
C154 C158 1.350 . S
C155 C158 1.463 . S
C155 C160 1.350 . S
C155 N163 1.427 . S
C156 H147 0.930 . S
C156 C154 1.378 . S
C156 C157 1.367 . S
C157 C156 1.367 . S
C157 C159 1.433 . S
C158 C154 1.350 . S
C158 C155 1.463 . S
C158 N162 1.427 . S
C159 H149 0.929 . S
C159 C157 1.433 . S
C159 N162 1.384 . S
C160 H151 0.929 . S
C160 C152 1.378 . S
C160 C155 1.350 . S
C161 H148 0.929 . S
C161 C153 1.433 . S
C161 N163 1.384 . S
N162 C158 1.427 . S
N162 C159 1.384 . S
N163 C155 1.427 . S
N163 C161 1.384 . S
H164 C170 0.930 . S
H165 C174 0.930 . S
H166 C179 0.929 . S
H167 C177 0.929 . S
H168 C172 0.929 . S
H169 C178 0.929 1_556 S
C170 H164 0.930 . S
C170 C171 1.367 . S
C170 C178 1.378 . S
C171 C170 1.367 . S
C171 C179 1.433 . S
C172 H168 0.929 . S
C172 C174 1.378 . S
C172 C176 1.350 . S
C173 C176 1.463 1_455 S
C173 C178 1.350 . S
C173 N181 1.427 . S
C174 H165 0.930 . S
C174 C172 1.378 . S
C174 C175 1.367 1_554 S
C175 C174 1.367 1_556 S
C175 C177 1.433 . S
C176 C172 1.350 . S
C176 C173 1.463 1_655 S
C176 N180 1.427 1_554 S
C177 H167 0.929 . S
C177 C175 1.433 . S
C177 N180 1.384 . S
C178 H169 0.929 1_554 S
C178 C170 1.378 . S
C178 C173 1.350 . S
C179 H166 0.929 . S
C179 C171 1.433 . S
C179 N181 1.384 . S
N180 C176 1.427 1_556 S
N180 C177 1.384 . S
N181 C173 1.427 . S
N181 C179 1.384 . S
H182 C188 0.930 . S
H183 C192 0.930 . S
H184 C197 0.929 . S
H185 C195 0.929 . S
H186 C190 0.929 . S
H187 C196 0.929 . S
C188 H182 0.930 . S
C188 C189 1.367 . S
C188 C196 1.378 . S
C189 C188 1.367 . S
C189 C197 1.433 . S
C190 H186 0.929 . S
C190 C192 1.378 . S
C190 C194 1.350 . S
C191 C194 1.463 1_545 S
C191 C196 1.350 . S
C191 N199 1.427 . S
C192 H183 0.930 . S
C192 C190 1.378 . S
C192 C193 1.367 . S
C193 C192 1.367 . S
C193 C195 1.433 . S
C194 C190 1.350 . S
C194 C191 1.463 1_565 S
C194 N198 1.427 . S
C195 H185 0.929 . S
C195 C193 1.433 . S
C195 N198 1.384 . S
C196 H187 0.929 . S
C196 C188 1.378 . S
C196 C191 1.350 . S
C197 H184 0.929 . S
C197 C189 1.433 . S
C197 N199 1.384 . S
N198 C194 1.427 . S
N198 C195 1.384 . S
N199 C191 1.427 . S
N199 C197 1.384 . S
C63 C5 1.579 . S
C67 C39 1.559 . S
C81 C25 1.563 . S
C85 C47 1.577 . S
C99 C11 1.437 . S
C103 C42 1.445 . S
C117 C28 1.650 . S
C121 C19 1.649 . S
C135 C51 1.520 . S
C139 C9 1.519 . S
C153 C14 1.645 . S
C157 C33 1.653 . S
C171 C0 1.442 . S
C175 C53 1.437 . S
C189 C23 1.585 . S
C193 C37 1.586 . S
