# Generated by pormake.
# Topology cds, (4)-cn, num edge types: 1
# Building blocks:
#     Node 0, Type 0, BuildingBlock: KOZSID_clean_sbu_0, # of connection points: 4
#     Node 1, Type 0, BuildingBlock: KOZSID_clean_sbu_0, # of connection points: 4
#     Edge 2, Type (0, 0), BuildingBlock: ZUJKAS_clean_linker_0, # of connection points: 2
#     Edge 3, Type (0, 0), BuildingBlock: ZUJKAS_clean_linker_0, # of connection points: 2
#     Edge 4, Type (0, 0), BuildingBlock: ZUJKAS_clean_linker_0, # of connection points: 2
#     Edge 5, Type (0, 0), BuildingBlock: ZUJKAS_clean_linker_0, # of connection points: 2
# Relax obj value: 0.000
# Max RMSD: 0.000
# Mean RMSD: 0.000
data_MOF--net-cds--node1-KOZSID_clean_sbu_0--edge1-ZUJKAS_clean_linker_0
_symmetry_space_group_name_H-M    P1
_symmetry_Int_Tables_number       1
_symmetry_cell_setting            triclinic
loop_
_symmetry_equiv_pos_as_xyz
'x, y, z'
_cell_length_a     21.216767
_cell_length_b     24.053612
_cell_length_c     45.320295
_cell_angle_alpha  106.61741
_cell_angle_beta   107.13205
_cell_angle_gamma 86.526156
loop_
_atom_site_label
_atom_site_type_symbol
_atom_site_fract_x
_atom_site_fract_y
_atom_site_fract_z
_atom_type_partial_charge
C0 C 0.13562 0.06391 0.02261 0.0
C1 C 0.16893 0.11727 0.03499 0.0
C2 C 0.12247 0.15842 0.03845 0.0
C3 C 0.06378 0.12794 0.02812 0.0
N4 N 0.06999 0.06969 0.0187 0.0
Co5 Co 0.99737 1.00899 1.00095 0.0
N6 N 0.92834 0.06973 0.00325 0.0
C7 C 0.93825 0.12805 0.01348 0.0
C8 C 0.88154 0.1585 0.01337 0.0
C9 C 0.83244 0.11726 0.00288 0.0
C10 C 0.86223 0.06379 0.9971 0.0
N11 N 0.92475 0.94827 0.98318 0.0
C12 C 0.85906 0.95406 0.97908 0.0
C13 C 0.82575 0.90069 0.96667 0.0
C14 C 0.87226 0.85954 0.96336 0.0
C15 C 0.93098 0.89002 0.9738 0.0
N16 N 0.0664 0.94824 0.99864 0.0
C17 C 0.05652 0.88993 0.98851 0.0
C18 C 0.11323 0.85949 0.98854 0.0
C19 C 0.16228 0.90074 0.99887 0.0
C20 C 0.13246 0.9542 0.00463 0.0
N21 N 0.00291 1.0073 0.04524 0.0
C22 C 0.00433 1.00449 0.10731 0.0
C23 C 0.00442 0.95331 0.08303 0.0
C24 C 0.00355 0.95568 0.05248 0.0
C25 C 0.00464 0.05717 0.10005 0.0
C26 C 0.00424 0.05756 0.06923 0.0
N27 N 0.99184 0.01067 0.95666 0.0
C28 C 0.99049 0.96071 0.90193 0.0
C29 C 0.99075 0.01334 0.89462 0.0
C30 C 0.99041 0.06457 0.91885 0.0
C31 C 0.99112 0.06226 0.94939 0.0
C32 C 0.9907 0.96038 0.93273 0.0
H33 H 0.99157 0.10287 0.96676 0.0
H34 H 0.99078 0.91887 0.93667 0.0
H35 H 0.00292 0.91509 0.03509 0.0
H36 H 0.0042 0.09909 0.06532 0.0
C37 C 0.00182 0.15282 0.02498 0.0
C38 C 0.16818 0.00924 0.01373 0.0
C39 C 0.82639 1.00875 0.98777 0.0
C40 C 0.99295 0.86515 0.97699 0.0
H41 H 0.22125 0.12554 0.04029 0.0
H42 H 0.13031 0.20506 0.04665 0.0
H43 H 0.87672 0.2051 0.02099 0.0
H44 H 0.7808 0.12567 1.00061 0.0
H45 H 0.77339 0.89242 0.96122 0.0
H46 H 0.86443 0.8129 0.95515 0.0
H47 H 0.11806 0.81289 0.98093 0.0
H48 H 0.21388 0.89235 1.00101 0.0
H49 H 0.00547 0.91132 0.08749 0.0
H50 H 0.00386 0.09813 0.11785 0.0
H51 H 0.99148 0.91972 0.88419 0.0
H52 H 0.9893 0.10653 0.91434 0.0
C53 C 0.06023 0.03325 0.57337 0.0
C54 C 0.12169 0.03912 0.5961 0.0
C55 C 0.16754 0.03395 0.57987 0.0
C56 C 0.13176 0.02495 0.54828 0.0
N57 N 0.06565 0.02475 0.54332 0.0
Co58 Co 0.99543 0.00978 0.50083 0.0
N59 N 0.06318 0.99743 0.47677 0.0
C60 C 0.12956 0.99898 0.48938 0.0
C61 C 0.16327 0.98949 0.46692 0.0
C62 C 0.11566 0.98228 0.43823 0.0
C63 C 0.05544 0.98817 0.44496 0.0
N64 N 0.92521 0.99484 0.45834 0.0
C65 C 0.93063 0.98637 0.42828 0.0
C66 C 0.86916 0.98061 0.40556 0.0
C67 C 0.82331 0.98577 0.4218 0.0
C68 C 0.8591 0.99467 0.45338 0.0
N69 N 0.92768 0.02209 0.52488 0.0
C70 C 0.8613 0.02048 0.51227 0.0
C71 C 0.82759 0.02985 0.53473 0.0
C72 C 0.8752 0.03705 0.56341 0.0
C73 C 0.93542 0.03128 0.55669 0.0
N74 N 0.99557 0.0939 0.50373 0.0
C75 C 0.99559 0.21175 0.50441 0.0
C76 C 0.93658 0.1809 0.49701 0.0
C77 C 0.9377 0.12266 0.49682 0.0
C78 C 0.05466 0.18276 0.5121 0.0
C79 C 0.05352 0.12448 0.51169 0.0
N80 N 0.99528 0.92565 0.49792 0.0
C81 C 0.93616 0.83676 0.48947 0.0
C82 C 0.99522 0.8078 0.49724 0.0
C83 C 0.05425 0.83868 0.50473 0.0
C84 C 0.05315 0.89692 0.50491 0.0
C85 C 0.93732 0.89504 0.48988 0.0
H86 H 0.09985 0.91782 0.51105 0.0
H87 H 0.89065 0.91456 0.484 0.0
H88 H 0.89101 0.10178 0.49076 0.0
H89 H 0.1002 0.10493 0.5175 0.0
C90 C 0.15879 0.01241 0.52257 0.0
C91 C -0.00168 0.03277 0.5812 0.0
C92 C 0.99256 0.98676 0.42044 0.0
C93 C 0.83206 1.00714 0.47908 0.0
H94 H 0.13254 0.04494 0.62168 0.0
H95 H 0.22066 0.03468 0.58978 0.0
H96 H 0.21617 0.98917 0.47099 0.0
H97 H 0.1243 0.97464 0.41504 0.0
H98 H 0.85828 0.97487 0.38 0.0
H99 H 0.7702 0.9851 0.4119 0.0
H100 H 0.77469 0.0301 0.53066 0.0
H101 H 0.86657 0.04459 0.58661 0.0
H102 H 0.88946 0.20157 0.49148 0.0
H103 H 0.10177 0.20444 0.51774 0.0
H104 H 0.88903 0.81506 0.48377 0.0
H105 H 0.10137 0.81803 0.51032 0.0
H106 H 0.06837 0.07824 0.16614 0.0
H107 H 0.06509 0.07563 0.21926 0.0
H108 H 0.93623 0.92414 0.17544 0.0
H109 H 0.93722 0.92729 0.12214 0.0
H110 H 0.93943 0.07292 0.23921 0.0
H111 H 0.10205 0.88367 0.24618 0.0
H112 H 0.1037 0.92866 0.22058 0.0
H113 H 0.0368 0.87751 0.20938 0.0
C114 C 0.03872 0.04468 0.16769 0.0
C115 C 0.0032 1.00285 0.13976 0.0
C116 C 0.03727 0.04311 0.19809 0.0
C117 C 0.00092 0.99941 0.20116 0.0
C118 C 0.96524 0.95776 0.17349 0.0
H119 H 0.95296 0.90167 0.36366 0.0
H120 H 0.9526 0.90607 0.3101 0.0
C121 C 0.96623 0.9595 0.14307 0.0
C122 C -0.00036 0.99764 0.23331 0.0
H123 H 0.05387 0.9209 0.28836 0.0
C124 C 0.96454 0.03988 0.25009 0.0
C125 C 0.03209 0.95416 0.24715 0.0
C126 C 0.07123 0.90846 0.23011 0.0
C127 C 0.96016 0.03928 0.28032 0.0
C128 C 0.99338 0.99617 0.29444 0.0
C129 C 0.02849 0.95393 0.27754 0.0
C130 C 0.99249 0.99406 0.32673 0.0
C131 C 0.91855 0.08389 0.29639 0.0
C132 C 0.01573 0.04171 0.35386 0.0
C133 C 0.01509 0.0394 0.38422 0.0
C134 C 0.99203 0.98915 0.388 0.0
C135 C 0.97014 0.94104 0.36108 0.0
C136 C 0.97019 0.94353 0.33064 0.0
H137 H 0.88144 0.10185 0.27869 0.0
H138 H 0.89239 0.06512 0.30937 0.0
H139 H 0.95088 0.12044 0.31404 0.0
H140 H 0.03492 0.08051 0.35161 0.0
H141 H 0.03291 0.07668 0.40485 0.0
H142 H 0.92712 0.93937 0.83586 0.0
H143 H 0.93173 0.94084 0.78285 0.0
H144 H 0.05858 0.09383 0.82655 0.0
H145 H 0.05729 0.0909 0.87973 0.0
H146 H 0.89205 0.02225 0.75147 0.0
H147 H 0.16066 0.99183 0.77047 0.0
H148 H 0.11904 0.98091 0.79789 0.0
H149 H 0.14229 0.05299 0.79998 0.0
C150 C 0.95697 0.97278 0.8343 0.0
C151 C 0.99217 0.01481 0.86219 0.0
C152 C 0.9591 0.97381 0.80392 0.0
C153 C 0.99643 0.01683 0.80075 0.0
C154 C 0.0307 0.0594 0.82843 0.0
H155 H 0.03726 0.11802 0.63799 0.0
H156 H 0.03657 0.11365 0.6915 0.0
C157 C 0.02904 0.05816 0.85883 0.0
C158 C 0.99789 0.01813 0.76841 0.0
H159 H 0.10154 0.01927 0.72338 0.0
C160 C 0.93783 0.0212 0.74528 0.0
C161 C 0.05769 0.01658 0.76031 0.0
C162 C 0.1235 0.0098 0.78335 0.0
C163 C 0.93608 0.02385 0.71451 0.0
C164 C 0.99586 0.02332 0.7067 0.0
C165 C 0.05588 0.02005 0.72966 0.0
C166 C 0.99689 0.0257 0.67463 0.0
C167 C 0.87051 0.02807 0.69063 0.0
C168 C 0.97537 0.9775 0.64771 0.0
C169 C 0.97637 0.97978 0.61739 0.0
C170 C -0.00117 0.03031 0.61363 0.0
C171 C 0.02026 0.07855 0.64054 0.0
C172 C 0.01978 0.0761 0.67093 0.0
H173 H 0.82976 0.03703 0.70197 0.0
H174 H 0.87278 0.06285 0.67926 0.0
H175 H 0.85886 0.98648 0.67127 0.0
H176 H 0.95798 0.93814 0.65021 0.0
H177 H 0.95954 0.94221 0.59682 0.0
H178 H 0.71344 0.03245 0.94613 0.0
H179 H 0.60064 0.03342 0.95073 0.0
H180 H 0.67455 0.98338 0.03868 0.0
H181 H 0.78721 0.98317 0.0342 0.0
H182 H 0.52755 0.94211 0.95414 0.0
H183 H 0.5682 0.12884 0.06397 0.0
H184 H 0.62456 0.11249 0.03974 0.0
H185 H 0.62601 0.07167 0.06752 0.0
C186 C 0.70515 0.02187 0.96639 0.0
C187 C 0.75822 1.00824 0.98999 0.0
C188 C 0.6411 0.02235 0.96901 0.0
C189 C 0.62955 0.00941 0.99532 0.0
C190 C 0.68266 0.99466 0.01857 0.0
H191 H 0.28166 0.98559 0.05503 0.0
H192 H 0.39412 0.98494 0.05005 0.0
C193 C 0.74665 0.99419 0.01594 0.0
C194 C 0.5618 0.01048 0.99822 0.0
H195 H 0.46627 0.07665 0.04648 0.0
C196 C 0.51396 0.97168 0.97422 0.0
C197 C 0.54446 0.04909 0.0245 0.0
C198 C 0.59326 0.09329 0.05029 0.0
C199 C 0.44933 0.9697 0.97611 0.0
C200 C 0.43203 1.00824 0.00242 0.0
C201 C 0.47984 0.0471 0.02639 0.0
C202 C 0.36442 1.00901 0.00548 0.0
C203 C 0.40051 0.92553 0.95032 0.0
C204 C 0.31097 0.02365 0.98235 0.0
C205 C 0.24716 0.02392 0.98518 0.0
C206 C 0.23612 0.00978 0.01122 0.0
C207 C 0.28953 0.99622 0.03469 0.0
C208 C 0.35339 0.99593 0.03186 0.0
H209 H 0.42553 0.89012 0.93651 0.0
H210 H 0.36945 0.9061 0.96089 0.0
H211 H 0.36754 0.94722 0.9332 0.0
H212 H 0.31867 0.03502 0.96219 0.0
H213 H 0.20633 0.0349 0.96702 0.0
H214 H 0.91103 0.71823 0.45571 0.0
H215 H 0.91036 0.61771 0.45773 0.0
H216 H 0.08037 0.65664 0.54142 0.0
H217 H 0.07992 0.75763 0.54037 0.0
H218 H 0.00785 0.53614 0.45374 0.0
H219 H 0.95336 0.57949 0.57064 0.0
H220 H 0.94336 0.63336 0.54899 0.0
H221 H 0.02394 0.61932 0.57249 0.0
C222 C 0.94776 0.70567 0.47482 0.0
C223 C 0.99533 0.74623 0.49797 0.0
C224 C 0.94757 0.64807 0.4758 0.0
C225 C 0.99467 0.62987 0.50001 0.0
C226 C 0.04274 0.66996 0.52289 0.0
H227 H 0.07986 0.3013 0.54589 0.0
H228 H 0.08045 0.40183 0.54386 0.0
C229 C 0.04292 0.72757 0.52198 0.0
C230 C 0.9944 0.56864 0.50089 0.0
H231 H 0.98282 0.48339 0.5479 0.0
C232 C 0.00204 0.52454 0.47425 0.0
C233 C 0.98698 0.55363 0.52771 0.0
C234 C 0.97583 0.59884 0.55647 0.0
C235 C 0.00366 0.4659 0.47393 0.0
C236 C 0.99626 0.45089 0.50075 0.0
C237 C 0.98861 0.49499 0.52739 0.0
C238 C 0.99603 0.38967 0.50163 0.0
C239 C 0.01479 0.42069 0.44516 0.0
C240 C 0.94791 0.34959 0.47879 0.0
C241 C 0.94777 0.29198 0.4797 0.0
C242 C 0.99544 0.27331 0.50368 0.0
C243 C 0.04307 0.31387 0.52679 0.0
C244 C 0.04321 0.37147 0.52582 0.0
H245 H 0.03719 0.44004 0.43097 0.0
H246 H 0.04731 0.3862 0.45265 0.0
H247 H 0.96668 0.40016 0.42917 0.0
H248 H 0.91023 0.36291 0.46028 0.0
H249 H 0.91073 0.26191 0.46133 0.0
loop_
_geom_bond_atom_site_label_1
_geom_bond_atom_site_label_2
_geom_bond_distance
_geom_bond_site_symmetry_2
_ccdc_geom_bond_type
C0 C1 1.443 . S
C0 N4 1.376 . S
C0 C38 1.405 . S
C1 C0 1.443 . S
C1 C2 1.340 . S
C1 H41 0.951 . S
C2 C1 1.340 . S
C2 C3 1.439 . S
C2 H42 0.950 . S
C3 C2 1.439 . S
C3 N4 1.374 . S
C3 C37 1.393 1_455 S
N4 C0 1.376 . S
N4 C3 1.374 . S
N4 Co5 2.008 . S
Co5 N4 2.008 . S
Co5 N6 1.997 1_455 S
Co5 N11 2.008 1_444 S
Co5 N16 1.993 1_544 S
Co5 N21 2.294 . S
Co5 N27 2.271 1_444 S
N6 Co5 1.997 1_655 S
N6 C7 1.376 . S
N6 C10 1.383 . S
C7 N6 1.376 . S
C7 C8 1.446 . S
C7 C37 1.394 . S
C8 C7 1.446 . S
C8 C9 1.339 . S
C8 H43 0.949 . S
C9 C8 1.339 . S
C9 C10 1.439 . S
C9 H44 0.950 . S
C10 N6 1.383 . S
C10 C9 1.439 . S
C10 C39 1.390 1_544 S
N11 Co5 2.008 1_666 S
N11 C12 1.376 . S
N11 C15 1.374 . S
C12 N11 1.376 . S
C12 C13 1.443 . S
C12 C39 1.399 . S
C13 C12 1.443 . S
C13 C14 1.340 . S
C13 H45 0.951 . S
C14 C13 1.340 . S
C14 C15 1.439 . S
C14 H46 0.950 . S
C15 N11 1.374 . S
C15 C14 1.439 . S
C15 C40 1.387 1_655 S
N16 Co5 1.993 1_566 S
N16 C17 1.376 . S
N16 C20 1.383 . S
C17 N16 1.376 . S
C17 C18 1.446 . S
C17 C40 1.399 . S
C18 C17 1.446 . S
C18 C19 1.339 . S
C18 H47 0.949 . S
C19 C18 1.339 . S
C19 C20 1.439 . S
C19 H48 0.950 . S
C20 N16 1.383 . S
C20 C19 1.439 . S
C20 C38 1.374 1_566 S
N21 Co5 2.294 . S
N21 C24 1.332 1_545 S
N21 C26 1.332 1_455 S
C22 C23 1.375 1_545 S
C22 C25 1.404 1_455 S
C23 C22 1.375 1_565 S
C23 C24 1.382 . S
C23 H49 0.950 . S
C24 N21 1.332 1_565 S
C24 C23 1.382 . S
C24 H35 0.952 . S
C25 C22 1.404 1_655 S
C25 C26 1.382 . S
C25 H50 0.950 . S
C26 N21 1.332 1_655 S
C26 C25 1.382 . S
C26 H36 0.948 . S
N27 Co5 2.271 1_666 S
N27 C31 1.332 1_565 S
N27 C32 1.332 1_655 S
C28 C29 1.395 1_455 S
C28 C32 1.382 . S
C28 H51 0.950 . S
C29 C28 1.395 1_655 S
C29 C30 1.381 1_565 S
C30 C29 1.381 1_545 S
C30 C31 1.382 . S
C30 H52 0.950 . S
C31 N27 1.332 1_545 S
C31 C30 1.382 . S
C31 H33 0.952 . S
C32 N27 1.332 1_455 S
C32 C28 1.382 . S
C32 H34 0.948 . S
H33 C31 0.952 . S
H34 C32 0.948 . S
H35 C24 0.952 . S
H36 C26 0.948 . S
C37 C3 1.393 1_655 S
C37 C7 1.394 . S
C38 C0 1.405 . S
C38 C20 1.374 1_544 S
C39 C10 1.390 1_566 S
C39 C12 1.399 . S
C40 C15 1.387 1_455 S
C40 C17 1.399 . S
H41 C1 0.951 . S
H42 C2 0.950 . S
H43 C8 0.949 . S
H44 C9 0.950 . S
H45 C13 0.951 . S
H46 C14 0.950 . S
H47 C18 0.949 . S
H48 C19 0.950 . S
H49 C23 0.950 . S
H50 C25 0.950 . S
H51 C28 0.950 . S
H52 C30 0.950 . S
C53 C54 1.446 . S
C53 N57 1.373 1_565 S
C53 C91 1.407 1_565 S
C54 C53 1.446 . S
C54 C55 1.340 . S
C54 H94 0.951 . S
C55 C54 1.340 . S
C55 C56 1.439 . S
C55 H95 0.950 . S
C56 C55 1.439 . S
C56 N57 1.374 1_565 S
C56 C90 1.395 . S
N57 C53 1.373 1_545 S
N57 C56 1.374 1_545 S
N57 Co58 2.008 . S
Co58 N57 2.008 . S
Co58 N59 1.996 1_545 S
Co58 N64 2.008 1_445 S
Co58 N69 1.993 1_455 S
Co58 N74 2.285 . S
Co58 N80 2.280 1_445 S
N59 Co58 1.996 1_565 S
N59 C60 1.376 . S
N59 C63 1.383 . S
C60 N59 1.376 . S
C60 C61 1.446 . S
C60 C90 1.391 . S
C61 C60 1.446 . S
C61 C62 1.339 . S
C61 H96 0.949 . S
C62 C61 1.339 . S
C62 C63 1.439 . S
C62 H97 0.950 . S
C63 N59 1.383 . S
C63 C62 1.439 . S
C63 C92 1.384 1_455 S
N64 Co58 2.008 1_665 S
N64 C65 1.371 1_565 S
N64 C68 1.374 1_565 S
C65 N64 1.371 1_545 S
C65 C66 1.449 . S
C65 C92 1.402 1_545 S
C66 C65 1.449 . S
C66 C67 1.340 . S
C66 H98 0.951 . S
C67 C66 1.340 . S
C67 C68 1.439 . S
C67 H99 0.950 . S
C68 N64 1.374 1_545 S
C68 C67 1.439 . S
C68 C93 1.395 . S
N69 Co58 1.993 1_655 S
N69 C70 1.376 . S
N69 C73 1.383 . S
C70 N69 1.376 . S
C70 C71 1.446 . S
C70 C93 1.391 . S
C71 C70 1.446 . S
C71 C72 1.339 . S
C71 H100 0.949 . S
C72 C71 1.339 . S
C72 C73 1.439 . S
C72 H101 0.950 . S
C73 N69 1.383 . S
C73 C72 1.439 . S
C73 C91 1.379 1_655 S
N74 Co58 2.285 . S
N74 C77 1.332 1_455 S
N74 C79 1.332 . S
C75 C76 1.372 1_455 S
C75 C78 1.401 . S
C76 C75 1.372 1_655 S
C76 C77 1.382 . S
C76 H102 0.950 . S
C77 N74 1.332 1_655 S
C77 C76 1.382 . S
C77 H88 0.952 . S
C78 C75 1.401 . S
C78 C79 1.382 . S
C78 H103 0.950 . S
C79 N74 1.332 . S
C79 C78 1.382 . S
C79 H89 0.948 . S
N80 Co58 2.280 1_665 S
N80 C84 1.332 1_655 S
N80 C85 1.332 . S
C81 C82 1.395 . S
C81 C85 1.382 . S
C81 H104 0.950 . S
C82 C81 1.395 . S
C82 C83 1.378 1_655 S
C83 C82 1.378 1_455 S
C83 C84 1.382 . S
C83 H105 0.950 . S
C84 N80 1.332 1_455 S
C84 C83 1.382 . S
C84 H86 0.952 . S
C85 N80 1.332 . S
C85 C81 1.382 . S
C85 H87 0.948 . S
H86 C84 0.952 . S
H87 C85 0.948 . S
H88 C77 0.952 . S
H89 C79 0.948 . S
C90 C56 1.395 . S
C90 C60 1.391 . S
C91 C53 1.407 1_545 S
C91 C73 1.379 1_455 S
C92 C63 1.384 1_655 S
C92 C65 1.402 1_565 S
C93 C68 1.395 . S
C93 C70 1.391 . S
H94 C54 0.951 . S
H95 C55 0.950 . S
H96 C61 0.949 . S
H97 C62 0.950 . S
H98 C66 0.951 . S
H99 C67 0.950 . S
H100 C71 0.949 . S
H101 C72 0.950 . S
H102 C76 0.950 . S
H103 C78 0.950 . S
H104 C81 0.950 . S
H105 C83 0.950 . S
H106 C114 0.929 . S
H107 C116 0.930 . S
H108 C118 0.930 . S
H109 C121 0.929 . S
H110 C124 0.930 . S
H111 C126 0.960 . S
H112 C126 0.960 . S
H113 C126 0.960 . S
C114 H106 0.929 . S
C114 C115 1.381 . S
C114 C116 1.384 . S
C115 C114 1.381 . S
C115 C121 1.384 1_445 S
C116 H107 0.930 . S
C116 C114 1.384 . S
C116 C117 1.372 . S
C117 C116 1.372 . S
C117 C118 1.400 1_445 S
C117 C122 1.490 . S
C118 H108 0.930 . S
C118 C117 1.400 1_665 S
C118 C121 1.386 . S
H119 C135 0.930 . S
H120 C136 0.931 . S
C121 H109 0.929 . S
C121 C115 1.384 1_665 S
C121 C118 1.386 . S
C122 C117 1.490 . S
C122 C124 1.395 1_455 S
C122 C125 1.403 1_545 S
H123 C129 0.930 . S
C124 H110 0.930 . S
C124 C122 1.395 1_655 S
C124 C127 1.403 . S
C125 C122 1.403 1_565 S
C125 C126 1.524 . S
C125 C129 1.400 . S
C126 H111 0.960 . S
C126 H112 0.960 . S
C126 H113 0.960 . S
C126 C125 1.524 . S
C127 C124 1.403 . S
C127 C128 1.392 . S
C127 C131 1.495 . S
C128 C127 1.392 . S
C128 C129 1.385 1_645 S
C128 C130 1.478 . S
C129 H123 0.930 . S
C129 C125 1.400 . S
C129 C128 1.385 1_465 S
C130 C128 1.478 . S
C130 C132 1.381 1_655 S
C130 C136 1.383 1_545 S
C131 C127 1.495 . S
C131 H137 0.959 . S
C131 H138 0.961 . S
C131 H139 0.960 . S
C132 C130 1.381 1_455 S
C132 C133 1.394 . S
C132 H140 0.930 . S
C133 C132 1.394 . S
C133 C134 1.383 1_455 S
C133 H141 0.929 . S
C134 C133 1.383 1_655 S
C134 C135 1.377 1_545 S
C135 H119 0.930 . S
C135 C134 1.377 1_565 S
C135 C136 1.379 . S
C136 H120 0.931 . S
C136 C130 1.383 1_565 S
C136 C135 1.379 . S
H137 C131 0.959 . S
H138 C131 0.961 . S
H139 C131 0.960 . S
H140 C132 0.930 . S
H141 C133 0.929 . S
H142 C150 0.929 . S
H143 C152 0.930 . S
H144 C154 0.930 . S
H145 C157 0.929 . S
H146 C160 0.930 . S
H147 C162 0.960 . S
H148 C162 0.960 . S
H149 C162 0.960 1_545 S
C150 H142 0.929 . S
C150 C151 1.382 1_655 S
C150 C152 1.384 . S
C151 C150 1.382 1_455 S
C151 C157 1.384 1_565 S
C152 H143 0.930 . S
C152 C150 1.384 . S
C152 C153 1.372 . S
C153 C152 1.372 . S
C153 C154 1.400 1_665 S
C153 C158 1.490 . S
C154 H144 0.930 . S
C154 C153 1.400 1_445 S
C154 C157 1.386 . S
H155 C171 0.930 . S
H156 C172 0.931 . S
C157 H145 0.929 . S
C157 C151 1.384 1_545 S
C157 C154 1.386 . S
C158 C153 1.490 . S
C158 C160 1.395 . S
C158 C161 1.403 1_655 S
H159 C165 0.930 . S
C160 H146 0.930 . S
C160 C158 1.395 . S
C160 C163 1.408 . S
C161 C158 1.403 1_455 S
C161 C162 1.524 . S
C161 C165 1.400 . S
C162 H147 0.960 . S
C162 H148 0.960 . S
C162 H149 0.960 1_565 S
C162 C161 1.524 . S
C163 C160 1.408 . S
C163 C164 1.391 . S
C163 C167 1.493 1_565 S
C164 C163 1.391 . S
C164 C165 1.385 1_655 S
C164 C166 1.476 1_565 S
C165 H159 0.930 . S
C165 C161 1.400 . S
C165 C164 1.385 1_455 S
C166 C164 1.476 1_545 S
C166 C168 1.378 1_545 S
C166 C172 1.388 1_655 S
C167 C163 1.493 1_545 S
C167 H173 0.959 . S
C167 H174 0.961 . S
C167 H175 0.960 1_545 S
C168 C166 1.378 1_565 S
C168 C169 1.394 . S
C168 H176 0.930 . S
C169 C168 1.394 . S
C169 C170 1.370 1_565 S
C169 H177 0.929 . S
C170 C169 1.370 1_545 S
C170 C171 1.385 1_655 S
C171 H155 0.930 . S
C171 C170 1.385 1_455 S
C171 C172 1.379 . S
C172 H156 0.931 . S
C172 C166 1.388 1_455 S
C172 C171 1.379 . S
H173 C167 0.959 . S
H174 C167 0.961 . S
H175 C167 0.960 1_565 S
H176 C168 0.930 . S
H177 C169 0.929 . S
H178 C186 0.929 . S
H179 C188 0.930 . S
H180 C190 0.930 . S
H181 C193 0.929 . S
H182 C196 0.930 . S
H183 C198 0.960 . S
H184 C198 0.960 . S
H185 C198 0.960 . S
C186 H178 0.929 . S
C186 C187 1.370 1_556 S
C186 C188 1.384 . S
C187 C186 1.370 1_554 S
C187 C193 1.401 1_545 S
C188 H179 0.930 . S
C188 C186 1.384 . S
C188 C189 1.404 . S
C189 C188 1.404 . S
C189 C190 1.378 1_546 S
C189 C194 1.481 . S
C190 H180 0.930 . S
C190 C189 1.378 1_564 S
C190 C193 1.386 . S
H191 C207 0.930 . S
H192 C208 0.931 . S
C193 H181 0.929 . S
C193 C187 1.401 1_565 S
C193 C190 1.386 . S
C194 C189 1.481 . S
C194 C196 1.392 1_545 S
C194 C197 1.405 1_556 S
H195 C201 0.930 . S
C196 H182 0.930 . S
C196 C194 1.392 1_565 S
C196 C199 1.403 . S
C197 C194 1.405 1_554 S
C197 C198 1.524 . S
C197 C201 1.400 . S
C198 H183 0.960 . S
C198 H184 0.960 . S
C198 H185 0.960 . S
C198 C197 1.524 . S
C199 C196 1.403 . S
C199 C200 1.392 . S
C199 C203 1.495 . S
C200 C199 1.392 . S
C200 C201 1.385 1_566 S
C200 C202 1.478 . S
C201 H195 0.930 . S
C201 C197 1.400 . S
C201 C200 1.385 1_544 S
C202 C200 1.478 . S
C202 C204 1.381 1_565 S
C202 C208 1.383 1_556 S
C203 C199 1.495 . S
C203 H209 0.959 . S
C203 H210 0.961 . S
C203 H211 0.960 . S
C204 C202 1.381 1_545 S
C204 C205 1.394 . S
C204 H212 0.930 . S
C205 C204 1.394 . S
C205 C206 1.383 1_545 S
C205 H213 0.929 . S
C206 C205 1.383 1_565 S
C206 C207 1.377 1_556 S
C207 H191 0.930 . S
C207 C206 1.377 1_554 S
C207 C208 1.379 . S
C208 H192 0.931 . S
C208 C202 1.383 1_554 S
C208 C207 1.379 . S
H209 C203 0.959 . S
H210 C203 0.961 . S
H211 C203 0.960 . S
H212 C204 0.930 . S
H213 C205 0.929 . S
H214 C222 0.929 . S
H215 C224 0.930 . S
H216 C226 0.930 . S
H217 C229 0.929 . S
H218 C232 0.930 . S
H219 C234 0.960 . S
H220 C234 0.960 1_655 S
H221 C234 0.960 . S
C222 H214 0.929 . S
C222 C223 1.387 . S
C222 C224 1.384 . S
C223 C222 1.387 . S
C223 C229 1.381 1_655 S
C224 H215 0.930 . S
C224 C222 1.384 . S
C224 C225 1.372 . S
C225 C224 1.372 . S
C225 C226 1.400 1_655 S
C225 C230 1.490 . S
C226 H216 0.930 . S
C226 C225 1.400 1_455 S
C226 C229 1.386 . S
H227 C243 0.930 . S
H228 C244 0.931 . S
C229 H217 0.929 . S
C229 C223 1.381 1_455 S
C229 C226 1.386 . S
C230 C225 1.490 . S
C230 C232 1.395 . S
C230 C233 1.403 1_655 S
H231 C237 0.930 . S
C232 H218 0.930 . S
C232 C230 1.395 . S
C232 C235 1.403 . S
C233 C230 1.403 1_455 S
C233 C234 1.524 . S
C233 C237 1.400 . S
C234 H219 0.960 . S
C234 H220 0.960 1_455 S
C234 H221 0.960 . S
C234 C233 1.524 . S
C235 C232 1.403 . S
C235 C236 1.392 . S
C235 C239 1.495 . S
C236 C235 1.392 . S
C236 C237 1.385 1_655 S
C236 C238 1.478 . S
C237 H231 0.930 . S
C237 C233 1.400 . S
C237 C236 1.385 1_455 S
C238 C236 1.478 . S
C238 C240 1.381 . S
C238 C244 1.383 1_655 S
C239 C235 1.495 . S
C239 H245 0.959 . S
C239 H246 0.961 . S
C239 H247 0.960 . S
C240 C238 1.381 . S
C240 C241 1.394 . S
C240 H248 0.930 . S
C241 C240 1.394 . S
C241 C242 1.394 . S
C241 H249 0.929 . S
C242 C241 1.394 . S
C242 C243 1.366 1_655 S
C243 H227 0.930 . S
C243 C242 1.366 1_455 S
C243 C244 1.379 . S
C244 H228 0.931 . S
C244 C238 1.383 1_455 S
C244 C243 1.379 . S
H245 C239 0.959 . S
H246 C239 0.961 . S
H247 C239 0.960 . S
H248 C240 0.930 . S
H249 C241 0.929 . S
C115 C22 1.496 . S
C134 C92 1.494 1_545 S
C151 C29 1.499 1_455 S
C170 C91 1.495 1_655 S
C187 C39 1.488 1_544 S
C206 C38 1.499 1_566 S
C223 C82 1.499 . S
C242 C75 1.501 1_655 S
