# Generated by pormake.
# Topology qtz-x, (6)-cn, num edge types: 1
# Building blocks:
#     Node 0, Type 0, BuildingBlock: GEDQOX_clean_sbu_0, # of connection points: 6
#     Node 1, Type 0, BuildingBlock: GEDQOX_clean_sbu_0, # of connection points: 6
#     Node 2, Type 0, BuildingBlock: GEDQOX_clean_sbu_0, # of connection points: 6
#     Edge 3, Type (0, 0), None
#     Edge 4, Type (0, 0), None
#     Edge 5, Type (0, 0), None
#     Edge 6, Type (0, 0), None
#     Edge 7, Type (0, 0), None
#     Edge 8, Type (0, 0), None
#     Edge 9, Type (0, 0), None
#     Edge 10, Type (0, 0), None
#     Edge 11, Type (0, 0), None
# Relax obj value: 0.640
# Max RMSD: 0.364
# Mean RMSD: 0.308
data_MOF--net-qtz-x--node1-GEDQOX_clean_sbu_0--edge1-none
_symmetry_space_group_name_H-M    P1
_symmetry_Int_Tables_number       1
_symmetry_cell_setting            triclinic
loop_
_symmetry_equiv_pos_as_xyz
'x, y, z'
_cell_length_a     8.1332217
_cell_length_b     8.1774089
_cell_length_c     33.991827
_cell_angle_alpha  55.034714
_cell_angle_beta   130.10556
_cell_angle_gamma 123.62698
loop_
_atom_site_label
_atom_site_type_symbol
_atom_site_fract_x
_atom_site_fract_y
_atom_site_fract_z
_atom_type_partial_charge
Nd0 Nd 0.16473 0.76243 0.15496 0.0
Nd1 Nd 0.91013 0.64163 0.17895 0.0
C2 C 0.45535 0.05284 0.11642 0.0
C3 C 0.57241 0.13161 0.0858 0.0
C4 C 0.70388 0.33961 0.0723 0.0
C5 C 0.81717 0.41894 0.04298 0.0
C6 C 0.83533 0.27435 0.03731 0.0
C7 C 0.75158 0.06971 0.06422 0.0
C8 C 0.58711 -0.0038 0.07784 0.0
C9 C 1.09753 0.30731 0.17672 0.0
C10 C 0.65985 0.74575 0.04433 0.0
C11 C 0.67726 0.3956 0.23479 0.0
C12 C 0.72081 0.33155 0.29156 0.0
C13 C 0.8783 0.22184 0.33837 0.0
C14 C 0.90754 0.1516 0.39071 0.0
C15 C 0.78013 0.18695 0.3984 0.0
C16 C 0.62063 0.29282 0.3518 0.0
C17 C 0.59503 0.36801 0.29945 0.0
C18 C 1.05557 0.08753 0.17941 0.0
C19 C 0.34034 0.65976 0.28039 0.0
O20 O 0.23877 0.02291 0.08828 0.0
O21 O 0.5138 0.91143 0.16563 0.0
O22 O 0.24496 0.4846 0.1653 0.0
O23 O 0.98917 0.38058 0.17915 0.0
O24 O 0.8763 0.80524 0.06062 0.0
O25 O 0.62035 0.65426 0.08599 0.0
O26 O 0.77329 0.32967 0.22964 0.0
O27 O 0.67483 0.58613 0.20187 0.0
O28 O 0.89672 0.91624 0.1869 0.0
O29 O 0.14514 0.01358 0.17173 0.0
O30 O 0.17488 0.50847 0.26403 0.0
O31 O 0.36567 0.82178 0.23893 0.0
H32 H 0.72388 0.42973 0.08813 0.0
H33 H 0.89962 0.58395 1.02895 0.0
H34 H 0.86682 -0.01495 0.0889 0.0
H35 H 0.51582 0.83215 0.09568 0.0
H36 H 0.97846 0.18816 0.33473 0.0
H37 H 1.02817 0.06527 0.42537 0.0
H38 H 0.50657 0.30638 0.35539 0.0
H39 H 0.47164 0.44991 0.26485 0.0
Nd40 Nd 0.69313 0.71123 0.54656 0.0
Nd41 Nd 0.94301 0.93982 0.57271 0.0
C42 C 0.35524 0.55045 0.46824 0.0
C43 C 0.36147 0.5784 0.42136 0.0
C44 C 0.53432 0.54652 0.42843 0.0
C45 C 0.54454 0.59327 0.38277 0.0
C46 C 0.38235 0.6727 0.32884 0.0
C47 C 0.21825 0.71304 0.32267 0.0
C48 C 0.20868 0.66865 0.36773 0.0
C49 C 0.35483 0.81468 0.54642 0.0
C50 C 0.79063 0.07954 0.45328 0.0
C51 C 0.21465 0.25378 0.61221 0.0
C52 C 0.2804 0.38069 0.6412 0.0
C53 C 0.13287 0.44849 0.63108 0.0
C54 C 0.22017 0.59893 0.65295 0.0
C55 C 0.43995 0.65734 0.69237 0.0
C56 C 0.5869 0.5746 0.70623 0.0
C57 C 0.50444 0.44969 0.67759 0.0
C58 C 0.23137 0.87398 0.55413 0.0
C59 C 0.88944 0.4753 0.67522 0.0
O60 O 0.4689 0.43544 0.51797 0.0
O61 O 0.37736 0.72237 0.46738 0.0
O62 O 0.5705 0.88113 0.55902 0.0
O63 O 0.5751 0.88085 0.55911 0.0
O64 O 0.80834 0.89318 0.48178 0.0
O65 O 0.79146 0.15154 0.47918 0.0
O66 O 1.05907 0.28037 0.56102 0.0
O67 O 0.21029 0.05998 0.64015 0.0
O68 O 0.29462 -0.00161 0.57704 0.0
O69 O 1.01614 0.78567 0.5425 0.0
O70 O 0.9449 0.68162 0.66147 0.0
O71 O 0.77008 0.42418 0.63132 0.0
H72 H 0.66217 0.48618 0.46918 0.0
H73 H 0.67694 0.5632 0.38989 0.0
H74 H 1.08693 0.76771 0.28277 0.0
H75 H 1.07743 0.70157 0.36044 0.0
H76 H 0.95886 0.40976 0.60043 0.0
H77 H 0.12589 0.69777 0.63265 0.0
H78 H 0.75945 0.60325 0.7384 0.0
H79 H 0.60543 0.38689 0.68619 0.0
Nd80 Nd 0.2598 -0.00457 0.84829 0.0
Nd81 Nd 0.24063 0.19189 0.87732 0.0
C82 C 0.43685 0.9573 0.81111 0.0
C83 C 0.43627 0.88937 0.7788 0.0
C84 C 0.56842 0.01609 0.75377 0.0
C85 C 0.5755 0.95309 0.72334 0.0
C86 C 0.47928 0.74684 0.72676 0.0
C87 C 0.37337 0.61969 0.75769 0.0
C88 C 0.32797 0.69302 0.77791 0.0
C89 C 0.85848 0.67599 0.8618 0.0
C90 C 0.96719 0.31312 0.73711 0.0
C91 C 0.16761 0.32971 0.91822 0.0
C92 C 1.0957 0.29135 0.9546 0.0
C93 C 0.88364 0.17772 0.94819 0.0
C94 C 0.80505 0.20348 0.97065 0.0
C95 C 0.93462 0.30984 1.00657 0.0
C96 C 0.15557 0.40742 1.01758 0.0
C97 C 0.23221 0.39825 0.99113 0.0
C98 C 0.66241 0.50551 0.86969 0.0
C99 C 0.48253 0.82111 0.98221 0.0
O100 O 0.33539 0.09675 0.78417 0.0
O101 O 0.42813 0.82645 0.85696 0.0
O102 O 0.95476 0.67889 0.84206 0.0
O103 O 0.96948 0.85381 0.87174 0.0
O104 O 1.04063 0.16427 0.75396 0.0
O105 O 1.00351 0.33675 0.77819 0.0
O106 O 1.02025 0.29936 0.87091 0.0
O107 O 0.35167 0.28999 0.9417 0.0
O108 O 0.56303 0.50346 0.88819 0.0
O109 O 0.54008 0.32901 0.85826 0.0
O110 O 0.34753 0.9168 0.9647 0.0
O111 O 0.49338 0.8383 0.9427 0.0
H112 H 0.65516 0.1607 0.75924 0.0
H113 H 0.63421 0.0607 0.6938 0.0
H114 H 0.34729 0.46104 0.76871 0.0
H115 H 0.25226 0.59701 0.80372 0.0
H116 H 0.77131 0.09972 0.91852 0.0
H117 H 0.63303 0.17937 0.95186 0.0
H118 H 0.26072 0.48205 0.04703 0.0
H119 H 0.39721 0.47176 0.99749 0.0
loop_
_geom_bond_atom_site_label_1
_geom_bond_atom_site_label_2
_geom_bond_distance
_geom_bond_site_symmetry_2
_ccdc_geom_bond_type
Nd0 C2 2.836 1_565 S
Nd0 O20 2.500 1_565 S
Nd0 O21 2.492 . S
Nd0 O22 2.487 . S
Nd0 O23 2.682 1_455 S
Nd0 O24 2.410 1_455 S
Nd0 O29 2.414 1_565 S
Nd0 O31 2.424 . S
Nd1 C11 2.836 . S
Nd1 O23 2.414 . S
Nd1 O25 2.424 . S
Nd1 O26 2.500 . S
Nd1 O27 2.492 . S
Nd1 O28 2.487 1_565 S
Nd1 O29 2.682 1_665 S
Nd1 O30 2.410 1_655 S
C2 Nd0 2.836 1_545 S
C2 C3 1.498 . S
C2 O20 1.258 . S
C2 O21 1.239 1_545 S
C3 C2 1.498 . S
C3 C4 1.366 1_554 S
C3 C8 1.407 . S
C4 C3 1.366 1_556 S
C4 C5 1.392 . S
C4 H32 0.930 . S
C5 C4 1.392 . S
C5 C6 1.398 . S
C5 H33 0.929 . S
C6 C5 1.398 . S
C6 C7 1.352 . S
C7 C6 1.352 . S
C7 C8 1.384 1_556 S
C7 H34 0.930 . S
C8 C3 1.407 . S
C8 C7 1.384 1_554 S
C8 H35 0.929 1_545 S
C9 O22 1.241 . S
C9 O23 1.273 1_455 S
C10 O24 1.251 . S
C10 O25 1.268 . S
C11 Nd1 2.836 . S
C11 C12 1.498 . S
C11 O26 1.258 . S
C11 O27 1.239 . S
C12 C11 1.498 . S
C12 C13 1.366 . S
C12 C17 1.407 . S
C13 C12 1.366 . S
C13 C14 1.392 . S
C13 H36 0.930 . S
C14 C13 1.392 . S
C14 C15 1.398 . S
C14 H37 0.929 . S
C15 C14 1.398 . S
C15 C16 1.352 . S
C16 C15 1.352 . S
C16 C17 1.384 . S
C16 H38 0.930 . S
C17 C12 1.407 . S
C17 C16 1.384 . S
C17 H39 0.929 . S
C18 O28 1.241 . S
C18 O29 1.273 1_655 S
C19 O30 1.251 . S
C19 O31 1.268 . S
O20 Nd0 2.500 1_545 S
O20 C2 1.258 . S
O21 Nd0 2.492 . S
O21 C2 1.239 1_565 S
O22 Nd0 2.487 . S
O22 C9 1.241 . S
O23 Nd0 2.682 1_655 S
O23 Nd1 2.414 . S
O23 C9 1.273 1_655 S
O24 Nd0 2.410 1_655 S
O24 C10 1.251 . S
O25 Nd1 2.424 . S
O25 C10 1.268 . S
O26 Nd1 2.500 . S
O26 C11 1.258 . S
O27 Nd1 2.492 . S
O27 C11 1.239 . S
O28 Nd1 2.487 1_545 S
O28 C18 1.241 . S
O29 Nd0 2.414 1_545 S
O29 Nd1 2.682 1_445 S
O29 C18 1.273 1_455 S
O30 Nd1 2.410 1_455 S
O30 C19 1.251 . S
O31 Nd0 2.424 . S
O31 C19 1.268 . S
H32 C4 0.930 . S
H33 C5 0.929 . S
H34 C7 0.930 . S
H35 C8 0.929 1_565 S
H36 C13 0.930 . S
H37 C14 0.929 . S
H38 C16 0.930 . S
H39 C17 0.929 . S
Nd40 C42 2.836 . S
Nd40 O60 2.500 . S
Nd40 O61 2.492 . S
Nd40 O62 2.487 . S
Nd40 O63 2.682 1_565 S
Nd40 O64 2.410 1_565 S
Nd40 O69 2.414 1_655 S
Nd40 O71 2.424 . S
Nd41 C51 2.836 . S
Nd41 O63 2.414 1_455 S
Nd41 O65 2.424 1_455 S
Nd41 O66 2.500 . S
Nd41 O67 2.492 . S
Nd41 O68 2.487 . S
Nd41 O69 2.682 1_545 S
Nd41 O70 2.410 1_545 S
C42 Nd40 2.836 . S
C42 C43 1.498 . S
C42 O60 1.258 . S
C42 O61 1.239 . S
C43 C42 1.498 . S
C43 C44 1.366 . S
C43 C48 1.407 . S
C44 C43 1.366 . S
C44 C45 1.392 . S
C44 H72 0.930 . S
C45 C44 1.392 . S
C45 C46 1.398 . S
C45 H73 0.929 . S
C46 C45 1.398 . S
C46 C47 1.352 . S
C47 C46 1.352 . S
C47 C48 1.384 . S
C47 H74 0.930 . S
C48 C43 1.407 . S
C48 C47 1.384 . S
C48 H75 0.929 . S
C49 O62 1.241 . S
C49 O63 1.273 1_565 S
C50 O64 1.251 . S
C50 O65 1.268 . S
C51 Nd41 2.836 . S
C51 C52 1.498 . S
C51 O66 1.258 . S
C51 O67 1.239 . S
C52 C51 1.498 . S
C52 C53 1.366 . S
C52 C57 1.407 . S
C53 C52 1.366 . S
C53 C54 1.392 . S
C53 H76 0.930 . S
C54 C53 1.392 . S
C54 C55 1.398 . S
C54 H77 0.929 . S
C55 C54 1.398 . S
C55 C56 1.352 . S
C56 C55 1.352 . S
C56 C57 1.384 . S
C56 H78 0.930 . S
C57 C52 1.407 . S
C57 C56 1.384 . S
C57 H79 0.929 . S
C58 O68 1.241 . S
C58 O69 1.273 1_545 S
C59 O70 1.251 1_655 S
C59 O71 1.268 . S
O60 Nd40 2.500 . S
O60 C42 1.258 . S
O61 Nd40 2.492 . S
O61 C42 1.239 . S
O62 Nd40 2.487 . S
O62 C49 1.241 . S
O63 Nd40 2.682 1_545 S
O63 Nd41 2.414 1_655 S
O63 C49 1.273 1_545 S
O64 Nd40 2.410 1_545 S
O64 C50 1.251 . S
O65 Nd41 2.424 1_655 S
O65 C50 1.268 . S
O66 Nd41 2.500 . S
O66 C51 1.258 . S
O67 Nd41 2.492 . S
O67 C51 1.239 . S
O68 Nd41 2.487 . S
O68 C58 1.241 . S
O69 Nd40 2.414 1_455 S
O69 Nd41 2.682 1_565 S
O69 C58 1.273 1_565 S
O70 Nd41 2.410 1_565 S
O70 C59 1.251 1_455 S
O71 Nd40 2.424 . S
O71 C59 1.268 . S
H72 C44 0.930 . S
H73 C45 0.929 . S
H74 C47 0.930 . S
H75 C48 0.929 . S
H76 C53 0.930 . S
H77 C54 0.929 . S
H78 C56 0.930 . S
H79 C57 0.929 . S
Nd80 C82 2.836 . S
Nd80 O100 2.500 . S
Nd80 O101 2.492 . S
Nd80 O102 2.487 1_455 S
Nd80 O103 2.682 1_455 S
Nd80 O104 2.410 1_455 S
Nd80 O109 2.414 1_565 S
Nd80 O111 2.424 . S
Nd81 C91 2.836 . S
Nd81 O103 2.414 1_545 S
Nd81 O105 2.424 . S
Nd81 O106 2.500 . S
Nd81 O107 2.492 . S
Nd81 O108 2.487 1_655 S
Nd81 O109 2.682 1_655 S
Nd81 O110 2.410 1_655 S
C82 Nd80 2.836 . S
C82 C83 1.498 . S
C82 O100 1.258 . S
C82 O101 1.239 . S
C83 C82 1.498 . S
C83 C84 1.366 . S
C83 C88 1.407 . S
C84 C83 1.366 . S
C84 C85 1.392 . S
C84 H112 0.930 . S
C85 C84 1.392 . S
C85 C86 1.398 . S
C85 H113 0.929 . S
C86 C85 1.398 . S
C86 C87 1.352 . S
C87 C86 1.352 . S
C87 C88 1.384 . S
C87 H114 0.930 . S
C88 C83 1.407 . S
C88 C87 1.384 . S
C88 H115 0.929 . S
C89 O102 1.241 . S
C89 O103 1.273 . S
C90 O104 1.251 1_545 S
C90 O105 1.268 . S
C91 Nd81 2.836 . S
C91 C92 1.498 . S
C91 O106 1.258 . S
C91 O107 1.239 . S
C92 C91 1.498 . S
C92 C93 1.366 . S
C92 C97 1.407 . S
C93 C92 1.366 . S
C93 C94 1.392 . S
C93 H116 0.930 . S
C94 C93 1.392 . S
C94 C95 1.398 . S
C94 H117 0.929 . S
C95 C94 1.398 . S
C95 C96 1.352 . S
C96 C95 1.352 . S
C96 C97 1.384 . S
C96 H118 0.930 . S
C97 C92 1.407 . S
C97 C96 1.384 . S
C97 H119 0.929 . S
C98 O108 1.241 . S
C98 O109 1.273 . S
C99 O110 1.251 1_565 S
C99 O111 1.268 . S
O100 Nd80 2.500 . S
O100 C82 1.258 . S
O101 Nd80 2.492 . S
O101 C82 1.239 . S
O102 Nd80 2.487 1_655 S
O102 C89 1.241 . S
O103 Nd80 2.682 1_655 S
O103 Nd81 2.414 1_565 S
O103 C89 1.273 . S
O104 Nd80 2.410 1_655 S
O104 C90 1.251 1_565 S
O105 Nd81 2.424 . S
O105 C90 1.268 . S
O106 Nd81 2.500 . S
O106 C91 1.258 . S
O107 Nd81 2.492 . S
O107 C91 1.239 . S
O108 Nd81 2.487 1_455 S
O108 C98 1.241 . S
O109 Nd80 2.414 1_545 S
O109 Nd81 2.682 1_455 S
O109 C98 1.273 . S
O110 Nd81 2.410 1_455 S
O110 C99 1.251 1_545 S
O111 Nd80 2.424 . S
O111 C99 1.268 . S
H112 C84 0.930 . S
H113 C85 0.929 . S
H114 C87 0.930 . S
H115 C88 0.929 . S
H116 C93 0.930 . S
H117 C94 0.929 . S
H118 C96 0.930 . S
H119 C97 0.929 . S
C18 C9 3.992 1_655 S
C49 C58 4.178 1_565 S
C98 C89 2.799 . S
C95 C6 0.691 . S
C50 C15 3.694 . S
C90 C59 5.130 . S
C99 C10 4.937 1_556 S
C19 C46 3.440 . S
C86 C55 0.138 . S
