# Generated by pormake.
# Topology pcu, (6)-cn, num edge types: 1
# Building blocks:
#     Node 0, Type 0, BuildingBlock: HISSIN_clean_sbu_0, # of connection points: 6
#     Edge 1, Type (0, 0), BuildingBlock: FUNLAD_clean_linker_0, # of connection points: 2
#     Edge 2, Type (0, 0), BuildingBlock: FUNLAD_clean_linker_0, # of connection points: 2
#     Edge 3, Type (0, 0), BuildingBlock: FUNLAD_clean_linker_0, # of connection points: 2
# Relax obj value: 0.000
# Max RMSD: 0.000
# Mean RMSD: 0.000
data_MOF--net-pcu--node1-HISSIN_clean_sbu_0--edge1-FUNLAD_clean_linker_0
_symmetry_space_group_name_H-M    P1
_symmetry_Int_Tables_number       1
_symmetry_cell_setting            triclinic
loop_
_symmetry_equiv_pos_as_xyz
'x, y, z'
_cell_length_a     17.784247
_cell_length_b     27.797475
_cell_length_c     17.930688
_cell_angle_alpha  121.02372
_cell_angle_beta   92.594286
_cell_angle_gamma 96.738611
loop_
_atom_site_label
_atom_site_type_symbol
_atom_site_fract_x
_atom_site_fract_y
_atom_site_fract_z
_atom_type_partial_charge
Eu0 Eu 0.96888 0.95199 0.91482 0.0
Eu1 Eu 0.98825 0.09313 0.03393 0.0
C2 C 0.13233 0.02953 -0.01752 0.0
C3 C 0.96711 0.79839 0.85032 0.0
C4 C 0.01078 0.81497 0.92939 0.0
C5 C 0.94423 0.70102 0.81679 0.0
C6 C 0.02096 0.77479 0.95215 0.0
C7 C 0.93427 0.74123 0.79404 0.0
C8 C 0.98726 0.71733 0.89645 0.0
C9 C 0.95203 0.84084 0.82843 0.0
O10 O 0.95815 0.06884 0.89433 0.0
O11 O -0.00705 0.98003 0.81968 0.0
C12 C 0.9755 0.02557 0.82253 0.0
O13 O 0.85571 0.97729 0.90131 0.0
O14 O 0.05654 0.17787 0.11662 0.0
O15 O 0.93514 0.16901 0.08371 0.0
O16 O 0.8703 0.05617 0.03852 0.0
C17 C 0.82611 1.01511 0.96862 0.0
O18 O 0.95824 0.97404 0.05286 0.0
O19 O 0.01333 0.06869 0.13317 0.0
O20 O 0.10058 0.07023 -0.01623 0.0
O21 O 0.89832 0.86965 0.86695 0.0
O22 O 0.01155 0.87319 0.82854 0.0
O23 O 0.09075 0.98552 -0.02243 0.0
C24 C 0.01231 0.2483 0.09768 0.0
C25 C 0.02205 0.23385 0.01174 0.0
C26 C 0.01629 0.34686 0.1401 0.0
C27 C 0.0281 0.27563 -0.01014 0.0
C28 C 0.0102 0.30504 0.16182 0.0
C29 C 0.02439 0.33258 0.0536 0.0
C30 C -0.00054 0.20408 0.11965 0.0
C31 C 0.98834 1.02027 0.12736 0.0
H32 H 0.03623 0.8591 0.97394 0.0
H33 H 0.91643 0.65743 0.77298 0.0
H34 H 0.05518 0.78878 0.01344 0.0
H35 H 0.89975 0.72784 0.73316 0.0
H36 H 0.02338 0.19008 0.96127 0.0
H37 H 0.01435 0.39039 0.19103 0.0
H38 H 0.03342 0.26299 0.92247 0.0
H39 H 0.00262 0.31688 0.22847 0.0
C40 C 0.0081 0.06667 0.29104 0.0
C41 C -0.00615 1.01705 0.20714 0.0
C42 C 0.01157 0.06303 0.36604 0.0
C43 C 0.00116 1.00959 0.35836 0.0
C44 C 0.989 0.96016 0.27454 0.0
C45 C 0.98473 0.96377 0.19975 0.0
C46 C 0.00403 1.00352 0.43589 0.0
C47 C 0.98197 0.04155 0.51279 0.0
C48 C 0.9809 0.03555 0.59073 0.0
C49 C 0.96583 0.08169 0.67 0.0
C50 C 0.96354 0.07838 0.74501 0.0
C51 C 0.9763 0.02868 0.7426 0.0
H52 H 0.00308 0.94819 0.52888 0.0
C53 C 0.99082 0.98228 0.66334 0.0
C54 C -0.00716 0.98548 0.58821 0.0
H55 H 0.00049 0.94321 0.659 0.0
H56 H 0.01594 0.10834 0.29888 0.0
H57 H 0.02345 0.10206 0.42963 0.0
H58 H 0.98168 0.91851 0.26683 0.0
H59 H 0.97463 0.92465 0.13608 0.0
H60 H 0.02185 0.96509 0.4267 0.0
H61 H 0.96244 0.07892 0.5191 0.0
H62 H 0.95596 0.1207 0.67416 0.0
H63 H 0.95209 0.115 0.80492 0.0
C64 C 0.25087 0.9877 -0.02282 0.0
C65 C 0.21627 0.03303 -0.01403 0.0
C66 C 0.33005 0.99079 -0.02006 0.0
C67 C 0.37643 0.03932 -0.00862 0.0
C68 C 0.34194 0.08491 0.00153 0.0
C69 C 0.26272 0.08172 -0.0017 0.0
C70 C 0.4609 0.04465 -0.00391 0.0
C71 C 0.49759 0.99957 0.95663 0.0
C72 C 0.58205 1.00498 0.96089 0.0
C73 C 0.6143 0.96167 0.8932 0.0
C74 C 0.6935 0.96501 0.89532 0.0
C75 C 0.74221 1.0115 0.96596 0.0
H76 H 0.60821 0.08461 0.08688 0.0
C77 C 0.70995 0.05448 0.03442 0.0
C78 C 0.63079 0.05127 0.03205 0.0
H79 H 0.7458 0.09069 0.09016 0.0
H80 H 0.21685 0.94971 0.96824 0.0
H81 H 0.35459 0.95549 0.97468 0.0
H82 H 0.37636 0.12302 0.01133 0.0
H83 H 0.23803 0.11756 0.00582 0.0
H84 H 0.49344 0.08741 0.02956 0.0
H85 H 0.46476 0.95708 0.91587 0.0
H86 H 0.5781 0.92526 0.83806 0.0
H87 H 0.71643 0.93098 0.84175 0.0
C88 C 0.00372 0.61894 0.85992 0.0
C89 C -0.00511 0.67494 0.92245 0.0
C90 C 0.00791 0.57861 0.88387 0.0
C91 C 0.00397 0.59349 0.97138 0.0
C92 C -0.00459 0.64949 0.03372 0.0
C93 C -0.00892 0.68972 0.00975 0.0
C94 C 0.00476 0.55169 -0.00016 0.0
C95 C 0.02997 0.50148 0.95389 0.0
C96 C 0.02856 0.45957 -0.01767 0.0
C97 C 0.07696 0.41856 0.94794 0.0
C98 C 0.07618 0.37766 0.97138 0.0
C99 C 0.02655 0.3766 0.02956 0.0
H100 H 0.93792 0.48736 0.06544 0.0
C101 C 0.97759 0.4173 0.06339 0.0
C102 C 0.97827 0.45811 0.03987 0.0
H103 H 0.93729 0.41685 0.10662 0.0
H104 H 0.00731 0.60612 0.79218 0.0
H105 H 0.01251 0.53574 0.83298 0.0
H106 H -0.0086 0.66217 0.10139 0.0
H107 H 0.98293 0.73211 0.05943 0.0
H108 H 0.98571 0.56404 0.06303 0.0
H109 H 0.0553 0.49104 0.8945 0.0
H110 H 0.11584 0.41825 0.90294 0.0
H111 H 0.11495 0.34715 0.94446 0.0
loop_
_geom_bond_atom_site_label_1
_geom_bond_atom_site_label_2
_geom_bond_distance
_geom_bond_site_symmetry_2
_ccdc_geom_bond_type
Eu0 C9 2.828 . S
Eu0 O11 2.392 . S
Eu0 O13 2.418 . S
Eu0 O18 2.373 1_556 S
Eu0 O21 2.488 . S
Eu0 O22 2.471 1_655 S
Eu0 O23 2.349 1_655 S
Eu1 O10 2.373 1_554 S
Eu1 O14 2.488 . S
Eu1 O15 2.471 1_455 S
Eu1 O16 2.349 1_455 S
Eu1 O19 2.392 . S
Eu1 O20 2.418 . S
Eu1 C30 2.828 . S
C2 O20 1.244 . S
C2 O23 1.265 1_544 S
C3 C4 1.379 1_656 S
C3 C7 1.373 . S
C3 C9 1.505 . S
C4 C3 1.379 1_454 S
C4 C6 1.369 . S
C4 H32 0.930 . S
C5 C7 1.383 . S
C5 C8 1.382 . S
C5 H33 0.930 . S
C6 C4 1.369 . S
C6 C8 1.392 1_454 S
C6 H34 0.930 . S
C7 C3 1.373 . S
C7 C5 1.383 . S
C7 H35 0.931 . S
C8 C5 1.382 . S
C8 C6 1.392 1_656 S
C9 Eu0 2.828 . S
C9 C3 1.505 . S
C9 O21 1.249 . S
C9 O22 1.244 1_655 S
O10 Eu1 2.373 1_556 S
O10 C12 1.258 1_545 S
O11 Eu0 2.392 . S
O11 C12 1.242 1_655 S
C12 O10 1.258 1_565 S
C12 O11 1.242 1_455 S
O13 Eu0 2.418 . S
O13 C17 1.244 . S
O14 Eu1 2.488 . S
O14 C30 1.249 . S
O15 Eu1 2.471 1_655 S
O15 C30 1.244 1_655 S
O16 Eu1 2.349 1_655 S
O16 C17 1.265 1_544 S
C17 O13 1.244 . S
C17 O16 1.265 1_566 S
O18 Eu0 2.373 1_554 S
O18 C31 1.258 1_665 S
O19 Eu1 2.392 . S
O19 C31 1.242 . S
O20 Eu1 2.418 . S
O20 C2 1.244 . S
O21 Eu0 2.488 . S
O21 C9 1.249 . S
O22 Eu0 2.471 1_455 S
O22 C9 1.244 1_455 S
O23 Eu0 2.349 1_455 S
O23 C2 1.265 1_566 S
C24 C25 1.379 1_454 S
C24 C28 1.373 . S
C24 C30 1.505 . S
C25 C24 1.379 1_656 S
C25 C27 1.369 . S
C25 H36 0.930 . S
C26 C28 1.383 . S
C26 C29 1.382 . S
C26 H37 0.930 . S
C27 C25 1.369 . S
C27 C29 1.392 1_656 S
C27 H38 0.930 . S
C28 C24 1.373 . S
C28 C26 1.383 . S
C28 H39 0.931 . S
C29 C26 1.382 . S
C29 C27 1.392 1_454 S
C30 Eu1 2.828 . S
C30 O14 1.249 . S
C30 O15 1.244 1_455 S
C30 C24 1.505 . S
C31 O18 1.258 1_445 S
C31 O19 1.242 . S
H32 C4 0.930 . S
H33 C5 0.930 . S
H34 C6 0.930 . S
H35 C7 0.931 . S
H36 C25 0.930 . S
H37 C26 0.930 . S
H38 C27 0.930 . S
H39 C28 0.931 . S
C40 C41 1.386 1_445 S
C40 C42 1.383 1_455 S
C40 H56 0.951 . S
C41 C40 1.386 1_665 S
C41 C45 1.383 . S
C42 C40 1.383 1_655 S
C42 C43 1.402 1_545 S
C42 H57 0.951 1_655 S
C43 C42 1.402 1_565 S
C43 C44 1.375 . S
C43 C46 1.481 . S
C44 C43 1.375 . S
C44 C45 1.367 . S
C44 H58 0.951 . S
C45 C41 1.383 . S
C45 C44 1.367 . S
C45 H59 0.950 . S
C46 C43 1.481 . S
C46 C47 1.297 1_565 S
C46 H60 0.950 . S
C47 C46 1.297 1_545 S
C47 C48 1.479 . S
C47 H61 0.950 . S
C48 C47 1.479 . S
C48 C49 1.375 . S
C48 C54 1.404 1_545 S
C49 C48 1.375 . S
C49 C50 1.368 1_655 S
C49 H62 0.950 . S
C50 C49 1.368 1_455 S
C50 C51 1.416 1_455 S
C50 H63 0.951 . S
C51 C50 1.416 1_655 S
C51 C53 1.376 1_545 S
H52 C54 0.949 . S
C53 C51 1.376 1_565 S
C53 C54 1.385 . S
C53 H55 0.950 . S
C54 C48 1.404 1_565 S
C54 H52 0.949 . S
C54 C53 1.385 . S
H55 C53 0.950 . S
H56 C40 0.951 . S
H57 C42 0.951 1_455 S
H58 C44 0.951 . S
H59 C45 0.950 . S
H60 C46 0.950 . S
H61 C47 0.950 . S
H62 C49 0.950 . S
H63 C50 0.951 . S
C64 C65 1.386 1_566 S
C64 C66 1.383 . S
C64 H80 0.951 . S
C65 C64 1.386 1_544 S
C65 C69 1.383 . S
C66 C64 1.383 . S
C66 C67 1.402 1_566 S
C66 H81 0.951 . S
C67 C66 1.402 1_544 S
C67 C68 1.375 . S
C67 C70 1.481 . S
C68 C67 1.375 . S
C68 C69 1.367 . S
C68 H82 0.951 . S
C69 C65 1.383 . S
C69 C68 1.367 . S
C69 H83 0.950 . S
C70 C67 1.481 . S
C70 C71 1.297 1_554 S
C70 H84 0.950 . S
C71 C70 1.297 1_556 S
C71 C72 1.479 . S
C71 H85 0.950 1_545 S
C72 C71 1.479 . S
C72 C73 1.375 1_545 S
C72 C78 1.404 1_556 S
C73 C72 1.375 1_565 S
C73 C74 1.369 . S
C73 H86 0.950 . S
C74 C73 1.369 . S
C74 C75 1.392 1_565 S
C74 H87 0.951 . S
C75 C74 1.392 1_545 S
C75 C77 1.384 1_556 S
H76 C78 0.949 . S
C77 C75 1.384 1_554 S
C77 C78 1.385 . S
C77 H79 0.950 . S
C78 C72 1.404 1_554 S
C78 H76 0.949 . S
C78 C77 1.385 . S
H79 C77 0.950 . S
H80 C64 0.951 . S
H81 C66 0.951 . S
H82 C68 0.951 . S
H83 C69 0.950 . S
H84 C70 0.950 . S
H85 C71 0.950 1_565 S
H86 C73 0.950 . S
H87 C74 0.951 . S
C88 C89 1.386 1_656 S
C88 C90 1.383 . S
C88 H104 0.951 . S
C89 C88 1.386 1_454 S
C89 C93 1.383 . S
C90 C88 1.383 . S
C90 C91 1.402 1_656 S
C90 H105 0.951 . S
C91 C90 1.402 1_454 S
C91 C92 1.375 . S
C91 C94 1.481 . S
C92 C91 1.375 . S
C92 C93 1.367 . S
C92 H106 0.951 . S
C93 C89 1.383 . S
C93 C92 1.367 . S
C93 H107 0.950 . S
C94 C91 1.481 . S
C94 C95 1.297 1_554 S
C94 H108 0.950 . S
C95 C94 1.297 1_556 S
C95 C96 1.479 . S
C95 H109 0.950 . S
C96 C95 1.479 . S
C96 C97 1.375 1_455 S
C96 C102 1.404 1_556 S
C97 C96 1.375 1_655 S
C97 C98 1.369 . S
C97 H110 0.950 . S
C98 C97 1.369 . S
C98 C99 1.392 1_655 S
C98 H111 0.951 . S
C99 C98 1.392 1_455 S
C99 C101 1.384 1_556 S
H100 C102 0.949 . S
C101 C99 1.384 1_554 S
C101 C102 1.385 . S
C101 H103 0.950 . S
C102 C96 1.404 1_554 S
C102 H100 0.949 . S
C102 C101 1.385 . S
H103 C101 0.950 . S
H104 C88 0.951 . S
H105 C90 0.951 . S
H106 C92 0.951 . S
H107 C93 0.950 . S
H108 C94 0.950 . S
H109 C95 0.950 . S
H110 C97 0.950 . S
H111 C98 0.951 . S
C41 C31 1.497 1_665 S
C51 C12 1.474 1_645 S
C65 C2 1.440 . S
C75 C17 1.486 1_545 S
C89 C8 1.496 1_454 S
C99 C29 1.486 1_556 S
