# Generated by pormake.
# Topology bcu, (8)-cn, num edge types: 1
# Building blocks:
#     Node 0, Type 0, BuildingBlock: LIZSOE_clean_sbu_0, # of connection points: 8
#     Node 1, Type 0, BuildingBlock: LIZSOE_clean_sbu_0, # of connection points: 8
#     Edge 2, Type (0, 0), BuildingBlock: OJICUG_clean_linker_0, # of connection points: 2
#     Edge 3, Type (0, 0), BuildingBlock: OJICUG_clean_linker_0, # of connection points: 2
#     Edge 4, Type (0, 0), BuildingBlock: OJICUG_clean_linker_0, # of connection points: 2
#     Edge 5, Type (0, 0), BuildingBlock: OJICUG_clean_linker_0, # of connection points: 2
#     Edge 6, Type (0, 0), BuildingBlock: OJICUG_clean_linker_0, # of connection points: 2
#     Edge 7, Type (0, 0), BuildingBlock: OJICUG_clean_linker_0, # of connection points: 2
#     Edge 8, Type (0, 0), BuildingBlock: OJICUG_clean_linker_0, # of connection points: 2
#     Edge 9, Type (0, 0), BuildingBlock: OJICUG_clean_linker_0, # of connection points: 2
# Relax obj value: 0.011
# Max RMSD: 0.050
# Mean RMSD: 0.050
data_MOF--net-bcu--node1-LIZSOE_clean_sbu_0--edge1-OJICUG_clean_linker_0
_symmetry_space_group_name_H-M    P1
_symmetry_Int_Tables_number       1
_symmetry_cell_setting            triclinic
loop_
_symmetry_equiv_pos_as_xyz
'x, y, z'
_cell_length_a     15.505485
_cell_length_b     15.741953
_cell_length_c     16.444718
_cell_angle_alpha  117.97151
_cell_angle_beta   63.068565
_cell_angle_gamma 118.51457
loop_
_atom_site_label
_atom_site_type_symbol
_atom_site_fract_x
_atom_site_fract_y
_atom_site_fract_z
_atom_type_partial_charge
Co0 Co 0.18012 0.9325 0.01784 0.0
N1 N 0.20803 0.89447 0.09327 0.0
C2 C 0.14029 0.87929 0.17713 0.0
N3 N 0.27108 0.84081 0.15317 0.0
C4 C 0.28822 0.8713 0.08064 0.0
C5 C 0.178 0.84616 0.21326 0.0
Co6 Co 0.91722 0.12205 0.97907 0.0
N7 N 0.84859 0.11362 0.90679 0.0
N8 N 0.81001 0.11956 0.79412 0.0
C9 C 0.7499 0.0297 0.81032 0.0
C10 C 0.77159 1.02733 0.88035 0.0
C11 C 0.86793 0.17058 0.85577 0.0
Co12 Co 1.0651 0.0417 -0.00324 0.0
C13 C 0.87031 0.10841 0.09972 0.0
H14 H 0.73802 0.96265 0.90538 0.0
O15 O 0.16383 0.96648 0.94103 0.0
O16 O 0.153 0.12236 0.90061 0.0
O17 O 0.13995 0.15278 0.09209 0.0
O18 O 0.97189 0.96287 0.0923 0.0
O19 O 1.04444 0.84805 0.04689 0.0
O20 O 1.04736 0.18871 0.9065 0.0
O21 O 0.96909 0.12346 0.05426 0.0
O22 O 0.92657 1.00338 0.88864 0.0
O23 O 0.15179 0.04235 0.13013 0.0
O24 O 0.3045 1.019 -0.01491 0.0
O25 O 0.99576 0.92101 0.89961 0.0
O26 O 0.80434 0.0535 0.05097 0.0
C27 C 0.1599 0.1325 0.14689 0.0
C28 C 0.93713 0.27979 0.87431 0.0
H29 H 0.9509 0.31071 0.94512 0.0
H30 H 1.01182 0.2845 0.81721 0.0
H31 H 0.90272 0.32704 0.87359 0.0
C32 C 0.13589 0.18046 0.87753 0.0
C33 C 0.96802 0.87917 0.09206 0.0
H34 H 1.06755 0.89193 0.2108 0.0
H35 H 0.36967 0.83101 0.93016 0.0
H36 H 0.44699 0.87413 0.00695 0.0
H37 H 0.41729 0.96371 -0.00282 0.0
C38 C 0.38604 0.88506 -0.00065 0.0
C39 C 0.26355 0.99042 0.91872 0.0
C40 C 0.95052 0.92668 0.85639 0.0
H41 H 0.13928 0.82697 0.27922 0.0
H42 H 0.69481 0.96845 0.77292 0.0
Co43 Co 0.66267 0.41544 0.5045 0.0
N44 N 0.68837 0.38038 0.58105 0.0
C45 C 0.6391 0.39671 0.6763 0.0
N46 N 0.73831 0.31287 0.63745 0.0
C47 C 0.7477 0.3274 0.55889 0.0
C48 C 0.67061 0.35672 0.71107 0.0
Co49 Co 0.50746 0.64666 0.44777 0.0
N50 N 0.52067 0.65652 0.33242 0.0
N51 N 0.48695 0.69699 0.2377 0.0
C52 C 0.48816 0.60042 0.19408 0.0
C53 C 0.50981 0.57636 0.25152 0.0
C54 C 0.5118 0.73087 0.31962 0.0
Co55 Co 0.56598 0.5454 0.49222 0.0
C56 C 0.44137 0.70943 0.58466 0.0
H57 H 0.50819 0.50187 0.239 0.0
O58 O 0.64517 0.44612 0.42466 0.0
O59 O 0.6626 0.61014 0.38506 0.0
O60 O 0.66754 0.64886 0.5656 0.0
O61 O 0.46867 0.47496 0.59798 0.0
O62 O 0.52606 0.3478 0.54799 0.0
O63 O 0.63002 0.75237 0.45668 0.0
O64 O 0.48597 0.64658 0.56717 0.0
O65 O 0.3865 0.54049 0.43841 0.0
O66 O 0.65399 0.53522 0.61316 0.0
O67 O 0.79088 0.4854 0.45753 0.0
O68 O 0.46443 0.44166 0.41483 0.0
O69 O 0.44051 0.7277 0.51691 0.0
C70 C 0.68845 0.62669 0.61739 0.0
C71 C 0.53509 0.84025 0.38495 0.0
H72 H 0.46616 0.85101 0.4465 0.0
H73 H 0.59595 0.86218 0.41543 0.0
H74 H 0.5605 0.89277 0.34509 0.0
C75 C 0.6906 0.70456 0.39496 0.0
C76 C 0.45674 0.38828 0.59958 0.0
H77 H 0.5802 0.43183 0.71777 0.0
H78 H 0.84243 0.2331 0.45507 0.0
H79 H 0.86933 0.34481 0.43003 0.0
H80 H 0.75603 0.23667 0.41182 0.0
C81 C 0.80751 0.28226 0.45828 0.0
C82 C 0.74268 0.45313 0.39557 0.0
C83 C 0.39039 0.45264 0.40964 0.0
H84 H 0.64074 0.35343 0.78358 0.0
H85 H 0.46572 0.54745 0.12948 0.0
C86 C 0.25839 0.19043 0.25952 0.0
C87 C 0.20722 0.21327 0.22366 0.0
H88 H 0.35673 0.2477 0.34577 0.0
C89 C 0.20921 0.31364 0.25685 0.0
H90 H 0.25879 0.11369 0.23547 0.0
C91 C 0.26416 0.39007 0.32179 0.0
C92 C 0.32009 0.36808 0.3533 0.0
H93 H 0.17049 0.33354 0.23104 0.0
H94 H 0.26649 0.46747 0.34376 0.0
C95 C 0.3149 0.26709 0.32286 0.0
C96 C 0.91248 0.29529 0.20327 0.0
C97 C 0.83978 0.19687 0.18043 0.0
H98 H 0.93865 0.4544 0.28576 0.0
C99 C 0.73462 0.18698 0.22284 0.0
H100 H 0.99393 0.30705 0.17106 0.0
C101 C 0.70312 0.27198 0.28514 0.0
C102 C 0.77557 0.36996 0.30917 0.0
H103 H 0.67588 0.11288 0.20687 0.0
H104 H 0.62163 0.25972 0.31845 0.0
C105 C 0.88075 0.38042 0.26687 0.0
C106 C 0.86197 0.72725 0.14836 0.0
C107 C 0.88775 0.8318 0.16564 0.0
H108 H 0.78023 0.60432 0.20768 0.0
C109 C 0.85362 0.89417 0.25938 0.0
H110 H 0.88978 0.6781 0.07681 0.0
C111 C 0.79598 0.85321 0.33461 0.0
C112 C 0.76785 0.74823 0.31745 0.0
H113 H 0.87566 0.97557 0.27549 0.0
H114 H 0.77197 0.90392 0.40654 0.0
C115 C 0.80169 0.68553 0.22347 0.0
C116 C 0.3897 0.74639 0.09687 0.0
C117 C 0.33506 0.81188 0.17058 0.0
H118 H 0.48637 0.6636 0.05984 0.0
C119 C 0.33368 0.84032 0.26556 0.0
H120 H 0.38744 0.71791 0.0236 0.0
C121 C 0.38287 0.80278 0.28713 0.0
C122 C 0.44148 0.74095 0.21386 0.0
H123 H 0.29059 0.88877 0.32434 0.0
H124 H 0.3699 0.819 0.36219 0.0
C125 C 0.44452 0.71343 0.11802 0.0
C126 C 0.41581 0.93627 0.80182 0.0
C127 C 0.31077 0.92114 0.82774 0.0
H128 H 0.53871 0.87557 0.70786 0.0
C129 C 0.24828 0.82825 0.77847 0.0
H130 H 0.46558 1.00625 0.83935 0.0
C131 C 0.28964 0.75282 0.70607 0.0
C132 C 0.39404 0.76791 0.68131 0.0
H133 H 0.16685 0.81254 0.79683 0.0
H134 H 0.24093 0.68416 0.66607 0.0
C135 C 0.4569 0.86026 0.72957 0.0
C136 C 0.36988 0.2454 0.66952 0.0
C137 C 0.37093 0.33688 0.67126 0.0
H138 H 0.29827 0.1268 0.73281 0.0
C139 C 0.29494 0.37813 0.74448 0.0
H140 H 0.42684 0.21028 0.61508 0.0
C141 C 0.22014 0.32865 0.81283 0.0
C142 C 0.21973 0.23715 0.80998 0.0
H143 H 0.2937 0.44866 0.74952 0.0
H144 H 0.163 0.36271 0.86875 0.0
C145 C 0.29637 0.1971 0.73791 0.0
C146 C 0.70514 0.11717 0.71753 0.0
C147 C 0.80102 0.15321 0.7317 0.0
H148 H 0.61197 0.13836 0.67001 0.0
C149 C 0.88403 0.22486 0.68806 0.0
H150 H 0.6399 0.06124 0.74844 0.0
C151 C 0.86659 0.27163 0.6455 0.0
C152 C 0.76735 0.24322 0.64284 0.0
H153 H 0.96068 0.24866 0.69094 0.0
H154 H 0.92789 0.33504 0.62198 0.0
C155 C 0.68896 0.16072 0.6721 0.0
C156 C 0.77152 0.67692 0.74144 0.0
C157 C 0.76128 0.70199 0.67493 0.0
H158 H 0.843 0.72709 0.84927 0.0
C159 C 0.82686 0.7956 0.6591 0.0
H160 H 0.7226 0.60534 0.75541 0.0
C161 C 0.89771 0.8639 0.7112 0.0
C162 C 0.90418 0.84094 0.78113 0.0
H163 H 0.82269 0.81672 0.60737 0.0
H164 H 0.9435 0.93794 0.70107 0.0
C165 C 0.84215 0.74563 0.79402 0.0
loop_
_geom_bond_atom_site_label_1
_geom_bond_atom_site_label_2
_geom_bond_distance
_geom_bond_site_symmetry_2
_ccdc_geom_bond_type
Co0 N1 2.034 . S
Co0 O15 2.262 1_554 S
Co0 O19 1.958 1_455 S
Co0 O23 1.950 1_565 S
Co0 O24 2.057 1_554 S
N1 Co0 2.034 . S
N1 C2 1.366 . S
N1 C4 1.332 . S
C2 N1 1.366 . S
C2 C5 1.377 . S
C2 H34 0.931 1_455 S
N3 C4 1.346 . S
N3 C5 1.337 . S
C4 N1 1.332 . S
C4 N3 1.346 . S
C4 C38 1.361 . S
C5 C2 1.377 . S
C5 N3 1.337 . S
C5 H41 0.930 . S
Co6 N7 2.034 . S
Co6 O20 1.950 1_655 S
Co6 O21 2.262 1_556 S
Co6 O22 1.958 1_545 S
Co6 O26 2.057 1_556 S
N7 Co6 2.034 . S
N7 C10 1.366 . S
N7 C11 1.332 . S
N8 C9 1.337 . S
N8 C11 1.346 . S
C9 N8 1.337 . S
C9 C10 1.377 . S
C9 H42 0.930 . S
C10 N7 1.366 . S
C10 C9 1.377 . S
C10 H14 0.931 1_545 S
C11 N7 1.332 . S
C11 N8 1.346 . S
C11 C28 1.361 . S
Co12 O15 2.097 1_654 S
Co12 O16 2.065 1_664 S
Co12 O17 2.065 1_665 S
Co12 O18 2.042 . S
Co12 O21 2.097 1_565 S
Co12 O25 2.042 1_554 S
C13 O21 1.253 . S
C13 O26 1.263 . S
H14 C10 0.931 1_565 S
O15 Co0 2.262 1_556 S
O15 Co12 2.097 1_456 S
O15 C39 1.253 . S
O16 Co12 2.065 1_446 S
O16 C32 1.221 . S
O17 Co12 2.065 1_445 S
O17 C27 1.221 . S
O18 Co12 2.042 . S
O18 C33 1.237 . S
O19 Co0 1.958 1_655 S
O19 C33 1.278 . S
O20 Co6 1.950 1_455 S
O20 C32 1.277 . S
O21 Co6 2.262 1_554 S
O21 Co12 2.097 1_545 S
O21 C13 1.253 . S
O22 Co6 1.958 1_565 S
O22 C40 1.278 . S
O23 Co0 1.950 1_545 S
O23 C27 1.277 . S
O24 Co0 2.057 1_556 S
O24 C39 1.263 . S
O25 Co12 2.042 1_556 S
O25 C40 1.237 . S
O26 Co6 2.057 1_554 S
O26 C13 1.263 . S
C27 O17 1.221 . S
C27 O23 1.277 . S
C28 C11 1.361 . S
C28 H29 0.960 . S
C28 H30 0.961 . S
C28 H31 0.961 . S
H29 C28 0.960 . S
H30 C28 0.961 . S
H31 C28 0.961 . S
C32 O16 1.221 . S
C32 O20 1.277 . S
C33 O18 1.237 . S
C33 O19 1.278 . S
H34 C2 0.931 1_655 S
H35 C38 0.961 . S
H36 C38 0.961 . S
H37 C38 0.960 . S
C38 C4 1.361 . S
C38 H35 0.961 . S
C38 H36 0.961 . S
C38 H37 0.960 . S
C39 O15 1.253 . S
C39 O24 1.263 . S
C40 O22 1.278 . S
C40 O25 1.237 . S
H41 C5 0.930 . S
H42 C9 0.930 . S
Co43 N44 2.034 . S
Co43 O58 2.262 . S
Co43 O62 1.958 . S
Co43 O66 1.950 . S
Co43 O67 2.057 . S
N44 Co43 2.034 . S
N44 C45 1.366 . S
N44 C47 1.332 . S
C45 N44 1.366 . S
C45 C48 1.377 . S
C45 H77 0.931 . S
N46 C47 1.346 . S
N46 C48 1.337 . S
C47 N44 1.332 . S
C47 N46 1.346 . S
C47 C81 1.361 . S
C48 C45 1.377 . S
C48 N46 1.337 . S
C48 H84 0.930 . S
Co49 N50 2.034 . S
Co49 O63 1.950 . S
Co49 O64 2.262 . S
Co49 O65 1.958 . S
Co49 O69 2.057 . S
N50 Co49 2.034 . S
N50 C53 1.366 . S
N50 C54 1.332 . S
N51 C52 1.337 . S
N51 C54 1.346 . S
C52 N51 1.337 . S
C52 C53 1.377 . S
C52 H85 0.930 . S
C53 N50 1.366 . S
C53 C52 1.377 . S
C53 H57 0.931 . S
C54 N50 1.332 . S
C54 N51 1.346 . S
C54 C71 1.361 . S
Co55 O58 2.097 . S
Co55 O59 2.065 . S
Co55 O60 2.065 . S
Co55 O61 2.042 . S
Co55 O64 2.097 . S
Co55 O68 2.042 . S
C56 O64 1.253 . S
C56 O69 1.263 . S
H57 C53 0.931 . S
O58 Co43 2.262 . S
O58 Co55 2.097 . S
O58 C82 1.253 . S
O59 Co55 2.065 . S
O59 C75 1.221 . S
O60 Co55 2.065 . S
O60 C70 1.221 . S
O61 Co55 2.042 . S
O61 C76 1.237 . S
O62 Co43 1.958 . S
O62 C76 1.278 . S
O63 Co49 1.950 . S
O63 C75 1.277 . S
O64 Co49 2.262 . S
O64 Co55 2.097 . S
O64 C56 1.253 . S
O65 Co49 1.958 . S
O65 C83 1.278 . S
O66 Co43 1.950 . S
O66 C70 1.277 . S
O67 Co43 2.057 . S
O67 C82 1.263 . S
O68 Co55 2.042 . S
O68 C83 1.237 . S
O69 Co49 2.057 . S
O69 C56 1.263 . S
C70 O60 1.221 . S
C70 O66 1.277 . S
C71 C54 1.361 . S
C71 H72 0.960 . S
C71 H73 0.961 . S
C71 H74 0.961 . S
H72 C71 0.960 . S
H73 C71 0.961 . S
H74 C71 0.961 . S
C75 O59 1.221 . S
C75 O63 1.277 . S
C76 O61 1.237 . S
C76 O62 1.278 . S
H77 C45 0.931 . S
H78 C81 0.961 . S
H79 C81 0.961 . S
H80 C81 0.960 . S
C81 C47 1.361 . S
C81 H78 0.961 . S
C81 H79 0.961 . S
C81 H80 0.960 . S
C82 O58 1.253 . S
C82 O67 1.263 . S
C83 O65 1.278 . S
C83 O68 1.237 . S
H84 C48 0.930 . S
H85 C52 0.930 . S
C86 C87 1.387 . S
C86 H90 0.950 . S
C86 C95 1.390 . S
C87 C86 1.387 . S
C87 C89 1.387 . S
H88 C95 0.950 . S
C89 C87 1.387 . S
C89 C91 1.390 . S
C89 H93 0.950 . S
H90 C86 0.950 . S
C91 C89 1.390 . S
C91 C92 1.387 . S
C91 H94 0.950 . S
C92 C91 1.387 . S
C92 C95 1.387 . S
H93 C89 0.950 . S
H94 C91 0.950 . S
C95 C86 1.390 . S
C95 H88 0.950 . S
C95 C92 1.387 . S
C96 C97 1.387 . S
C96 H100 0.950 . S
C96 C105 1.390 . S
C97 C96 1.387 . S
C97 C99 1.387 . S
H98 C105 0.950 . S
C99 C97 1.387 . S
C99 C101 1.390 . S
C99 H103 0.950 . S
H100 C96 0.950 . S
C101 C99 1.390 . S
C101 C102 1.387 . S
C101 H104 0.950 . S
C102 C101 1.387 . S
C102 C105 1.387 . S
H103 C99 0.950 . S
H104 C101 0.950 . S
C105 C96 1.390 . S
C105 H98 0.950 . S
C105 C102 1.387 . S
C106 C107 1.387 . S
C106 H110 0.950 . S
C106 C115 1.390 . S
C107 C106 1.387 . S
C107 C109 1.387 . S
H108 C115 0.950 . S
C109 C107 1.387 . S
C109 C111 1.390 . S
C109 H113 0.950 . S
H110 C106 0.950 . S
C111 C109 1.390 . S
C111 C112 1.387 . S
C111 H114 0.950 . S
C112 C111 1.387 . S
C112 C115 1.387 . S
H113 C109 0.950 . S
H114 C111 0.950 . S
C115 C106 1.390 . S
C115 H108 0.950 . S
C115 C112 1.387 . S
C116 C117 1.387 . S
C116 H120 0.950 . S
C116 C125 1.390 . S
C117 C116 1.387 . S
C117 C119 1.387 . S
H118 C125 0.950 . S
C119 C117 1.387 . S
C119 C121 1.390 . S
C119 H123 0.950 . S
H120 C116 0.950 . S
C121 C119 1.390 . S
C121 C122 1.387 . S
C121 H124 0.950 . S
C122 C121 1.387 . S
C122 C125 1.387 . S
H123 C119 0.950 . S
H124 C121 0.950 . S
C125 C116 1.390 . S
C125 H118 0.950 . S
C125 C122 1.387 . S
C126 C127 1.387 . S
C126 H130 0.950 . S
C126 C135 1.390 . S
C127 C126 1.387 . S
C127 C129 1.387 . S
H128 C135 0.950 . S
C129 C127 1.387 . S
C129 C131 1.390 . S
C129 H133 0.950 . S
H130 C126 0.950 . S
C131 C129 1.390 . S
C131 C132 1.387 . S
C131 H134 0.950 . S
C132 C131 1.387 . S
C132 C135 1.387 . S
H133 C129 0.950 . S
H134 C131 0.950 . S
C135 C126 1.390 . S
C135 H128 0.950 . S
C135 C132 1.387 . S
C136 C137 1.387 . S
C136 H140 0.950 . S
C136 C145 1.390 . S
C137 C136 1.387 . S
C137 C139 1.387 . S
H138 C145 0.950 . S
C139 C137 1.387 . S
C139 C141 1.390 . S
C139 H143 0.950 . S
H140 C136 0.950 . S
C141 C139 1.390 . S
C141 C142 1.387 . S
C141 H144 0.950 . S
C142 C141 1.387 . S
C142 C145 1.387 . S
H143 C139 0.950 . S
H144 C141 0.950 . S
C145 C136 1.390 . S
C145 H138 0.950 . S
C145 C142 1.387 . S
C146 C147 1.387 . S
C146 H150 0.950 . S
C146 C155 1.390 . S
C147 C146 1.387 . S
C147 C149 1.387 . S
H148 C155 0.950 . S
C149 C147 1.387 . S
C149 C151 1.390 . S
C149 H153 0.950 . S
H150 C146 0.950 . S
C151 C149 1.390 . S
C151 C152 1.387 . S
C151 H154 0.950 . S
C152 C151 1.387 . S
C152 C155 1.387 . S
H153 C149 0.950 . S
H154 C151 0.950 . S
C155 C146 1.390 . S
C155 H148 0.950 . S
C155 C152 1.387 . S
C156 C157 1.387 . S
C156 H160 0.950 . S
C156 C165 1.390 . S
C157 C156 1.387 . S
C157 C159 1.387 . S
H158 C165 0.950 . S
C159 C157 1.387 . S
C159 C161 1.390 . S
C159 H163 0.950 . S
H160 C156 0.950 . S
C161 C159 1.390 . S
C161 C162 1.387 . S
C161 H164 0.950 . S
C162 C161 1.387 . S
C162 C165 1.387 . S
H163 C159 0.950 . S
H164 C161 0.950 . S
C165 C156 1.390 . S
C165 H158 0.950 . S
C165 C162 1.387 . S
C87 C27 1.492 . S
C92 C83 1.485 . S
C97 C13 1.460 . S
C102 C82 1.459 . S
C107 C33 1.490 . S
C112 C75 1.494 . S
C117 N3 1.249 . S
C122 N51 1.250 . S
C127 C39 1.458 . S
C132 C56 1.459 . S
C137 C76 1.490 . S
C142 C32 1.493 . S
C147 N8 1.248 . S
C152 N46 1.249 . S
C157 C70 1.493 . S
C162 C40 1.492 . S
