# Generated by pormake.
# Topology pcu, (6)-cn, num edge types: 1
# Building blocks:
#     Node 0, Type 0, BuildingBlock: PAMTOO_clean_sbu_0, # of connection points: 6
#     Edge 1, Type (0, 0), BuildingBlock: EZIPEK_clean_linker_0, # of connection points: 2
#     Edge 2, Type (0, 0), BuildingBlock: EZIPEK_clean_linker_0, # of connection points: 2
#     Edge 3, Type (0, 0), BuildingBlock: EZIPEK_clean_linker_0, # of connection points: 2
# Relax obj value: 0.000
# Max RMSD: 0.000
# Mean RMSD: 0.000
data_MOF--net-pcu--node1-PAMTOO_clean_sbu_0--edge1-EZIPEK_clean_linker_0
_symmetry_space_group_name_H-M    P1
_symmetry_Int_Tables_number       1
_symmetry_cell_setting            triclinic
loop_
_symmetry_equiv_pos_as_xyz
'x, y, z'
_cell_length_a     21.490695
_cell_length_b     11.300358
_cell_length_c     11.239303
_cell_angle_alpha  85.058159
_cell_angle_beta   98.258136
_cell_angle_gamma 115.24941
loop_
_atom_site_label
_atom_site_type_symbol
_atom_site_fract_x
_atom_site_fract_y
_atom_site_fract_z
_atom_type_partial_charge
Dy0 Dy 0.11879 0.04492 -0.00332 0.0
Dy1 Dy 0.94296 0.90716 0.95616 0.0
C2 C 0.03296 0.974 0.73002 0.0
O3 O 0.08709 0.20855 0.00583 0.0
O4 O 0.96938 0.11996 0.93966 0.0
O5 O 0.21858 0.1783 0.94368 0.0
O6 O 0.2121 0.07562 0.11623 0.0
O7 O 0.97692 -0.01996 0.14309 0.0
O8 O 0.07982 0.96078 0.17199 0.0
O9 O 0.97566 0.74189 -0.02001 0.0
O10 O 0.09336 0.83835 0.96232 0.0
O11 O 0.84742 0.78422 0.02956 0.0
O12 O 0.84486 0.8614 0.84686 0.0
C13 C 1.02844 0.21905 0.97177 0.0
O14 O 0.0927 0.01545 0.79887 0.0
O15 O 0.97284 0.93343 0.77114 0.0
C16 C 0.31054 0.12049 0.02164 0.0
C17 C 0.41998 0.05283 0.00023 0.0
C18 C 0.35688 -0.00447 0.92609 0.0
C19 C 0.30224 0.0287 0.93713 0.0
C20 C 0.37389 0.17871 0.09455 0.0
C21 C 0.42827 0.14492 0.08412 0.0
C22 C 0.25286 0.15169 0.03964 0.0
C23 C 1.0286 0.97053 0.21407 0.0
C24 C 0.0344 0.73545 0.96934 0.0
C25 C 0.75236 0.83261 0.9516 0.0
C26 C 0.64446 0.90487 0.97242 0.0
C27 C 0.71167 -0.0215 0.02787 0.0
C28 C 0.76546 0.94274 0.01727 0.0
C29 C 0.68509 0.75857 0.89724 0.0
C30 C 0.63142 0.79441 0.90758 0.0
C31 C 0.80863 0.7974 0.93354 0.0
H32 H 0.34971 0.92389 0.86123 0.0
H33 H 0.25339 -0.01824 0.88097 0.0
H34 H 0.38096 0.24904 0.16072 0.0
H35 H 0.47665 0.18978 0.14197 0.0
H36 H 0.72247 0.06405 0.07819 0.0
H37 H 0.81727 0.00157 0.05901 0.0
H38 H 0.67428 0.67393 0.84551 0.0
H39 H 0.57986 0.73684 0.86414 0.0
C40 C 0.07758 0.08281 0.41038 0.0
C41 C 1.02968 0.97135 0.3457 0.0
C42 C 0.98959 0.85657 0.53407 0.0
C43 C 0.03286 0.97252 0.59793 0.0
N44 N 0.10807 0.204 0.59295 0.0
N45 N 0.9343 0.7574 0.34181 0.0
C46 C 0.07452 0.08774 0.53521 0.0
C47 C 0.98369 0.86005 0.40631 0.0
N48 N 0.12626 0.18419 0.35274 0.0
N49 N 0.95676 0.74129 0.59548 0.0
H50 H 0.93078 0.75271 0.2487 0.0
H51 H 0.89382 0.68086 0.37942 0.0
H52 H 0.96009 0.73289 0.68895 0.0
H53 H 0.93136 0.65096 0.55466 0.0
H54 H 0.16782 0.2604 0.39777 0.0
H55 H 0.12815 0.188 0.26025 0.0
H56 H 0.13218 0.29374 0.54858 0.0
H57 H 0.10653 0.21361 0.68366 0.0
C58 C 0.52959 0.08931 0.91788 0.0
C59 C 0.47727 0.01448 -0.00783 0.0
C60 C 0.5379 0.87531 0.0614 0.0
C61 C 0.58748 0.94413 -0.01938 0.0
N62 N 0.6264 0.10433 0.82002 0.0
N63 N 0.42595 0.82768 0.12405 0.0
C64 C 0.58231 0.04811 0.90569 0.0
C65 C 0.47977 0.9048 0.06086 0.0
N66 N 0.52944 0.20102 0.86061 0.0
N67 N 0.54773 0.78468 0.14131 0.0
H68 H 0.3837 0.84882 0.12939 0.0
H69 H 0.42053 0.73797 0.1645 0.0
H70 H 0.58945 0.75995 0.14371 0.0
H71 H 0.51782 0.74108 0.21129 0.0
H72 H 0.57033 0.26837 0.81677 0.0
H73 H 0.49019 0.23145 0.86356 0.0
H74 H 0.6207 0.17035 0.75369 0.0
H75 H 0.66613 0.07779 0.80926 0.0
C76 C 0.04484 0.55805 0.86525 0.0
C77 C 0.03461 0.60447 0.971 0.0
C78 C 1.02466 0.40037 0.07994 0.0
C79 C 1.0289 0.35026 0.97135 0.0
N80 N 1.03104 0.37042 0.75667 0.0
N81 N 1.01118 0.56985 0.17793 0.0
C82 C 0.03553 0.42599 0.86278 0.0
C83 C 1.02325 0.52534 0.07806 0.0
N84 N 0.06474 0.64063 0.76788 0.0
N85 N 1.02327 0.32929 0.18515 0.0
H86 H 1.01528 0.66458 0.18348 0.0
H87 H 0.99402 0.51158 0.25378 0.0
H88 H 1.02086 0.23502 0.18881 0.0
H89 H 1.02849 0.36568 0.26972 0.0
H90 H 0.08028 0.61662 0.69333 0.0
H91 H 0.07133 0.73759 0.76508 0.0
H92 H 1.02799 0.41574 0.67274 0.0
H93 H 1.0241 0.2738 0.75156 0.0
loop_
_geom_bond_atom_site_label_1
_geom_bond_atom_site_label_2
_geom_bond_distance
_geom_bond_site_symmetry_2
_ccdc_geom_bond_type
Dy0 O3 2.307 . S
Dy0 O5 2.395 1_554 S
Dy0 O6 2.379 . S
Dy0 O8 2.339 . S
Dy0 O10 2.298 1_545 S
Dy0 O14 2.275 1_554 S
Dy0 C22 2.738 . S
Dy1 O4 2.298 1_565 S
Dy1 O7 2.275 1_556 S
Dy1 O9 2.307 . S
Dy1 O11 2.395 1_556 S
Dy1 O12 2.379 . S
Dy1 O15 2.339 . S
Dy1 C31 2.738 . S
C2 O14 1.254 1_665 S
C2 O15 1.257 . S
O3 Dy0 2.307 . S
O3 C13 1.275 1_554 S
O4 Dy1 2.298 1_545 S
O4 C13 1.232 1_655 S
O5 Dy0 2.395 1_556 S
O5 C22 1.255 1_556 S
O6 Dy0 2.379 . S
O6 C22 1.249 . S
O7 Dy1 2.275 1_554 S
O7 C23 1.254 1_665 S
O8 Dy0 2.339 . S
O8 C23 1.257 . S
O9 Dy1 2.307 . S
O9 C24 1.270 1_556 S
O10 Dy0 2.298 1_565 S
O10 C24 1.234 1_455 S
O11 Dy1 2.395 1_554 S
O11 C31 1.255 1_554 S
O12 Dy1 2.379 . S
O12 C31 1.249 . S
C13 O3 1.275 1_556 S
C13 O4 1.232 1_455 S
O14 Dy0 2.275 1_556 S
O14 C2 1.254 1_445 S
O15 Dy1 2.339 . S
O15 C2 1.257 . S
C16 C19 1.344 1_544 S
C16 C20 1.328 . S
C16 C22 1.516 . S
C17 C18 1.304 . S
C17 C21 1.323 1_566 S
C18 C17 1.304 . S
C18 C19 1.371 . S
C18 H32 0.930 . S
C19 C16 1.344 1_566 S
C19 C18 1.371 . S
C19 H33 0.931 . S
C20 C16 1.328 . S
C20 C21 1.433 . S
C20 H34 0.931 . S
C21 C17 1.323 1_544 S
C21 C20 1.433 . S
C21 H35 0.933 . S
C22 Dy0 2.738 . S
C22 O5 1.255 1_554 S
C22 O6 1.249 . S
C22 C16 1.516 . S
C23 O7 1.254 1_445 S
C23 O8 1.257 . S
C24 O9 1.270 1_554 S
C24 O10 1.234 1_655 S
C25 C28 1.344 1_566 S
C25 C29 1.328 . S
C25 C31 1.516 . S
C26 C27 1.304 . S
C26 C30 1.323 1_544 S
C27 C26 1.304 . S
C27 C28 1.371 . S
C27 H36 0.930 . S
C28 C25 1.344 1_544 S
C28 C27 1.371 . S
C28 H37 0.931 . S
C29 C25 1.328 . S
C29 C30 1.433 . S
C29 H38 0.931 . S
C30 C26 1.323 1_566 S
C30 C29 1.433 . S
C30 H39 0.933 . S
C31 Dy1 2.738 . S
C31 O11 1.255 1_556 S
C31 O12 1.249 . S
C31 C25 1.516 . S
H32 C18 0.930 . S
H33 C19 0.931 . S
H34 C20 0.931 . S
H35 C21 0.933 . S
H36 C27 0.930 . S
H37 C28 0.931 . S
H38 C29 0.931 . S
H39 C30 0.933 . S
C40 C41 1.363 . S
C40 C46 1.379 . S
C40 N48 1.356 . S
C41 C40 1.363 . S
C41 C47 1.363 1_445 S
C42 C43 1.363 1_665 S
C42 C47 1.379 . S
C42 N49 1.356 . S
C43 C42 1.363 1_445 S
C43 C46 1.363 . S
N44 C46 1.356 . S
N44 H56 0.984 . S
N44 H57 0.985 . S
N45 C47 1.356 . S
N45 H50 0.984 . S
N45 H51 0.985 . S
C46 C40 1.379 . S
C46 C43 1.363 . S
C46 N44 1.356 . S
C47 C41 1.363 1_665 S
C47 C42 1.379 . S
C47 N45 1.356 . S
N48 C40 1.356 . S
N48 H54 0.984 . S
N48 H55 0.984 . S
N49 C42 1.356 . S
N49 H52 0.984 . S
N49 H53 0.985 . S
H50 N45 0.984 . S
H51 N45 0.985 . S
H52 N49 0.984 . S
H53 N49 0.985 . S
H54 N48 0.984 . S
H55 N48 0.984 . S
H56 N44 0.984 . S
H57 N44 0.985 . S
C58 C59 1.363 1_556 S
C58 C64 1.379 . S
C58 N66 1.356 . S
C59 C58 1.363 1_554 S
C59 C65 1.363 1_545 S
C60 C61 1.363 1_565 S
C60 C65 1.379 . S
C60 N67 1.356 . S
C61 C60 1.363 1_545 S
C61 C64 1.363 1_554 S
N62 C64 1.356 . S
N62 H74 0.984 . S
N62 H75 0.985 . S
N63 C65 1.356 . S
N63 H68 0.984 . S
N63 H69 0.985 . S
C64 C58 1.379 . S
C64 C61 1.363 1_556 S
C64 N62 1.356 . S
C65 C59 1.363 1_565 S
C65 C60 1.379 . S
C65 N63 1.356 . S
N66 C58 1.356 . S
N66 H72 0.984 . S
N66 H73 0.984 . S
N67 C60 1.356 . S
N67 H70 0.984 . S
N67 H71 0.985 . S
H68 N63 0.984 . S
H69 N63 0.985 . S
H70 N67 0.984 . S
H71 N67 0.985 . S
H72 N66 0.984 . S
H73 N66 0.984 . S
H74 N62 0.984 . S
H75 N62 0.985 . S
C76 C77 1.363 1_656 S
C76 C82 1.379 . S
C76 N84 1.356 . S
C77 C76 1.363 1_454 S
C77 C83 1.363 . S
C78 C79 1.363 . S
C78 C83 1.379 . S
C78 N85 1.356 . S
C79 C78 1.363 . S
C79 C82 1.363 1_454 S
N80 C82 1.356 . S
N80 H92 0.984 . S
N80 H93 0.985 . S
N81 C83 1.356 . S
N81 H86 0.984 . S
N81 H87 0.985 . S
C82 C76 1.379 . S
C82 C79 1.363 1_656 S
C82 N80 1.356 . S
C83 C77 1.363 . S
C83 C78 1.379 . S
C83 N81 1.356 . S
N84 C76 1.356 . S
N84 H90 0.984 . S
N84 H91 0.984 . S
N85 C78 1.356 . S
N85 H88 0.984 . S
N85 H89 0.985 . S
H86 N81 0.984 . S
H87 N81 0.985 . S
H88 N85 0.984 . S
H89 N85 0.985 . S
H90 N84 0.984 . S
H91 N84 0.984 . S
H92 N80 0.984 . S
H93 N80 0.985 . S
C41 C23 1.467 . S
C43 C2 1.467 1_445 S
C59 C17 1.498 1_544 S
C61 C26 1.498 . S
C77 C24 1.495 1_455 S
C79 C13 1.493 1_554 S
