# Generated by pormake.
# Topology pcl, (4)-cn, num edge types: 1
# Building blocks:
#     Node 0, Type 0, BuildingBlock: QUQFOY_clean_sbu_1, # of connection points: 4
#     Node 1, Type 0, BuildingBlock: QUQFOY_clean_sbu_1, # of connection points: 4
#     Node 2, Type 0, BuildingBlock: QUQFOY_clean_sbu_1, # of connection points: 4
#     Node 3, Type 0, BuildingBlock: QUQFOY_clean_sbu_1, # of connection points: 4
#     Node 4, Type 0, BuildingBlock: QUQFOY_clean_sbu_1, # of connection points: 4
#     Node 5, Type 0, BuildingBlock: QUQFOY_clean_sbu_1, # of connection points: 4
#     Node 6, Type 0, BuildingBlock: QUQFOY_clean_sbu_1, # of connection points: 4
#     Node 7, Type 0, BuildingBlock: QUQFOY_clean_sbu_1, # of connection points: 4
#     Node 8, Type 0, BuildingBlock: QUQFOY_clean_sbu_1, # of connection points: 4
#     Node 9, Type 0, BuildingBlock: QUQFOY_clean_sbu_1, # of connection points: 4
#     Node 10, Type 0, BuildingBlock: QUQFOY_clean_sbu_1, # of connection points: 4
#     Node 11, Type 0, BuildingBlock: QUQFOY_clean_sbu_1, # of connection points: 4
#     Node 12, Type 0, BuildingBlock: QUQFOY_clean_sbu_1, # of connection points: 4
#     Node 13, Type 0, BuildingBlock: QUQFOY_clean_sbu_1, # of connection points: 4
#     Node 14, Type 0, BuildingBlock: QUQFOY_clean_sbu_1, # of connection points: 4
#     Node 15, Type 0, BuildingBlock: QUQFOY_clean_sbu_1, # of connection points: 4
#     Edge 16, Type (0, 0), None
#     Edge 17, Type (0, 0), None
#     Edge 18, Type (0, 0), None
#     Edge 19, Type (0, 0), None
#     Edge 20, Type (0, 0), None
#     Edge 21, Type (0, 0), None
#     Edge 22, Type (0, 0), None
#     Edge 23, Type (0, 0), None
#     Edge 24, Type (0, 0), None
#     Edge 25, Type (0, 0), None
#     Edge 26, Type (0, 0), None
#     Edge 27, Type (0, 0), None
#     Edge 28, Type (0, 0), None
#     Edge 29, Type (0, 0), None
#     Edge 30, Type (0, 0), None
#     Edge 31, Type (0, 0), None
#     Edge 32, Type (0, 0), None
#     Edge 33, Type (0, 0), None
#     Edge 34, Type (0, 0), None
#     Edge 35, Type (0, 0), None
#     Edge 36, Type (0, 0), None
#     Edge 37, Type (0, 0), None
#     Edge 38, Type (0, 0), None
#     Edge 39, Type (0, 0), None
#     Edge 40, Type (0, 0), None
#     Edge 41, Type (0, 0), None
#     Edge 42, Type (0, 0), None
#     Edge 43, Type (0, 0), None
#     Edge 44, Type (0, 0), None
#     Edge 45, Type (0, 0), None
#     Edge 46, Type (0, 0), None
#     Edge 47, Type (0, 0), None
# Relax obj value: 0.112
# Max RMSD: 0.131
# Mean RMSD: 0.120
data_MOF--net-pcl--node1-QUQFOY_clean_sbu_1--edge1-none
_symmetry_space_group_name_H-M    P1
_symmetry_Int_Tables_number       1
_symmetry_cell_setting            triclinic
loop_
_symmetry_equiv_pos_as_xyz
'x, y, z'
_cell_length_a     22.68544
_cell_length_b     22.391249
_cell_length_c     21.885912
_cell_angle_alpha  90.0
_cell_angle_beta   90.0
_cell_angle_gamma 89.999526
loop_
_atom_site_label
_atom_site_type_symbol
_atom_site_fract_x
_atom_site_fract_y
_atom_site_fract_z
_atom_type_partial_charge
O0 O 0.21573 0.29758 0.19884 0.0
Cd1 Cd 0.20467 0.27935 0.10597 0.0
Cd2 Cd 0.20126 0.39377 0.10088 0.0
O3 O 0.2401 0.39164 0.18465 0.0
O4 O 0.24659 0.20376 0.08611 0.0
O5 O 0.27409 0.29228 0.05018 0.0
C6 C 0.28291 0.23547 0.05431 0.0
C7 C 0.22707 0.46412 0.02798 0.0
C8 C 0.23368 0.34729 0.21996 0.0
C9 C 0.08754 0.32802 0.08254 0.0
O10 O 0.1125 0.37562 0.10053 0.0
O11 O 0.11796 0.28121 0.07293 0.0
O12 O 0.20498 0.48002 0.07958 0.0
O13 O 0.23791 0.40831 0.01882 0.0
O14 O 0.89 0.67303 0.69884 0.0
Cd15 Cd 0.90106 0.69125 0.60597 0.0
Cd16 Cd 0.90447 0.57683 0.60088 0.0
O17 O 0.86563 0.57896 0.68465 0.0
O18 O 0.85914 0.76685 0.58611 0.0
O19 O 0.83164 0.67832 0.55018 0.0
C20 C 0.82282 0.73514 0.55431 0.0
C21 C 0.87867 0.50648 0.52798 0.0
C22 C 0.87205 0.62332 0.71996 0.0
C23 C 1.01819 0.64258 0.58254 0.0
O24 O 0.99323 0.59498 0.60053 0.0
O25 O 0.98777 0.68939 0.57293 0.0
O26 O 0.90075 0.49059 0.57958 0.0
O27 O 0.86783 0.56229 0.51882 0.0
O28 O 0.21573 0.67302 0.80674 0.0
Cd29 Cd 0.20467 0.69124 0.89961 0.0
Cd30 Cd 0.20126 0.57682 0.9047 0.0
O31 O 0.2401 0.57895 0.82093 0.0
O32 O 0.24659 0.76684 0.91947 0.0
O33 O 0.27409 0.67831 0.9554 0.0
C34 C 0.28291 0.73513 0.95127 0.0
C35 C 0.22706 0.50648 0.97759 0.0
C36 C 0.23368 0.62331 0.78562 0.0
C37 C 0.08755 0.64258 0.92304 0.0
O38 O 0.1125 0.59497 0.90505 0.0
O39 O 0.11797 0.68939 0.93265 0.0
O40 O 0.20498 0.49058 0.926 0.0
O41 O 0.23791 0.56229 0.98676 0.0
O42 O 0.89 0.29758 0.30674 0.0
Cd43 Cd 0.90106 0.27936 0.39961 0.0
Cd44 Cd 0.90448 0.39378 0.4047 0.0
O45 O 0.86563 0.39165 0.32093 0.0
O46 O 0.85914 0.20376 0.41947 0.0
O47 O 0.83164 0.29229 0.4554 0.0
C48 C 0.82282 0.23547 0.45127 0.0
C49 C 0.87867 0.46412 0.47759 0.0
C50 C 0.87205 0.34729 0.28562 0.0
C51 C 1.01819 0.32803 0.42304 0.0
O52 O 0.99323 0.37563 0.40505 0.0
O53 O 0.98777 0.28122 0.43265 0.0
O54 O 0.90076 0.48003 0.426 0.0
O55 O 0.86782 0.40831 0.48676 0.0
O56 O 0.90118 0.55825 0.02159 0.0
Cd57 Cd 0.91076 0.64607 0.99392 0.0
Cd58 Cd 0.90546 0.59396 0.88652 0.0
O59 O 0.8718 0.52216 0.93307 0.0
O60 O 0.87902 0.6937 0.06315 0.0
O61 O 0.83629 0.68972 0.97186 0.0
C62 C 0.83538 0.70743 0.02807 0.0
C63 C 0.87681 0.61115 0.7854 0.0
C64 C 0.88118 0.51536 0.98974 0.0
C65 C 1.023 0.64151 0.92939 0.0
O66 O 0.99492 0.60417 0.8969 0.0
O67 O 0.99603 0.67258 0.96928 0.0
O68 O 0.90073 0.5619 0.80231 0.0
O69 O 0.86585 0.65082 0.82655 0.0
O70 O 0.20455 0.41236 0.52159 0.0
Cd71 Cd 0.19497 0.32454 0.49392 0.0
Cd72 Cd 0.20027 0.37665 0.38652 0.0
O73 O 0.23394 0.44844 0.43307 0.0
O74 O 0.22672 0.2769 0.56315 0.0
O75 O 0.26944 0.28088 0.47186 0.0
C76 C 0.27035 0.26317 0.52807 0.0
C77 C 0.22892 0.35945 0.2854 0.0
C78 C 0.22455 0.45525 0.48974 0.0
C79 C 0.08273 0.32909 0.42939 0.0
O80 O 0.11081 0.36643 0.3969 0.0
O81 O 0.1097 0.29802 0.46928 0.0
O82 O 0.20501 0.4087 0.30231 0.0
O83 O 0.23988 0.31979 0.32655 0.0
O84 O 0.90117 0.41235 0.98398 0.0
Cd85 Cd 0.91076 0.32453 0.01166 0.0
Cd86 Cd 0.90546 0.37665 0.11906 0.0
O87 O 0.8718 0.44845 0.0725 0.0
O88 O 0.87902 0.2769 0.94243 0.0
O89 O 0.83629 0.28088 0.03372 0.0
C90 C 0.83538 0.26316 0.97751 0.0
C91 C 0.87681 0.35946 0.22018 0.0
C92 C 0.88117 0.45524 0.01583 0.0
C93 C 1.023 0.32909 0.07619 0.0
O94 O 0.99492 0.36643 0.10868 0.0
O95 O 0.99603 0.29802 0.0363 0.0
O96 O 0.90073 0.40871 0.20327 0.0
O97 O 0.86585 0.31979 0.17903 0.0
O98 O 0.20456 0.55825 0.48398 0.0
Cd99 Cd 0.19497 0.64607 0.51166 0.0
Cd100 Cd 0.20027 0.59395 0.61906 0.0
O101 O 0.23393 0.52215 0.5725 0.0
O102 O 0.22671 0.69371 0.44243 0.0
O103 O 0.26944 0.68972 0.53372 0.0
C104 C 0.27035 0.70744 0.47751 0.0
C105 C 0.22892 0.61114 0.72018 0.0
C106 C 0.22456 0.51536 0.51583 0.0
C107 C 0.08273 0.64151 0.57619 0.0
O108 O 0.11081 0.60417 0.60868 0.0
O109 O 0.1097 0.67258 0.5363 0.0
O110 O 0.205 0.5619 0.70327 0.0
O111 O 0.23989 0.65081 0.67903 0.0
O112 O 0.71573 0.79758 0.19884 0.0
Cd113 Cd 0.70467 0.77935 0.10597 0.0
Cd114 Cd 0.70126 0.89377 0.10088 0.0
O115 O 0.7401 0.89164 0.18465 0.0
O116 O 0.7466 0.70376 0.08611 0.0
O117 O 0.77409 0.79229 0.05019 0.0
C118 C 0.78291 0.73547 0.05431 0.0
C119 C 0.72706 0.96412 0.02798 0.0
C120 C 0.73368 0.84729 0.21996 0.0
C121 C 0.58754 0.82802 0.08254 0.0
O122 O 0.6125 0.87562 0.10053 0.0
O123 O 0.61796 0.78121 0.07293 0.0
O124 O 0.70498 0.98001 0.07958 0.0
O125 O 0.7379 0.90831 0.01882 0.0
O126 O 0.39 0.17303 0.69884 0.0
Cd127 Cd 0.40106 0.19125 0.60597 0.0
Cd128 Cd 0.40448 0.07683 0.60088 0.0
O129 O 0.36563 0.07896 0.68465 0.0
O130 O 0.35914 0.26684 0.58611 0.0
O131 O 0.33164 0.17831 0.55019 0.0
C132 C 0.32282 0.23513 0.55431 0.0
C133 C 0.37867 0.00648 0.52798 0.0
C134 C 0.37205 0.12332 0.71996 0.0
C135 C 0.51819 0.14258 0.58254 0.0
O136 O 0.49323 0.09498 0.60053 0.0
O137 O 0.48777 0.18939 0.57293 0.0
O138 O 0.40076 -0.00941 0.57958 0.0
O139 O 0.36783 0.06229 0.51882 0.0
O140 O 0.71573 0.17302 0.80674 0.0
Cd141 Cd 0.70467 0.19124 0.89961 0.0
Cd142 Cd 0.70126 0.07682 0.9047 0.0
O143 O 0.7401 0.07895 0.82093 0.0
O144 O 0.7466 0.26684 0.91947 0.0
O145 O 0.77409 0.17831 0.95539 0.0
C146 C 0.78291 0.23512 0.95127 0.0
C147 C 0.72706 0.00648 0.97759 0.0
C148 C 0.73368 0.12331 0.78562 0.0
C149 C 0.58754 0.14258 0.92304 0.0
O150 O 0.6125 0.09498 0.90505 0.0
O151 O 0.61797 0.18939 0.93265 0.0
O152 O 0.70497 -0.00942 0.926 0.0
O153 O 0.73791 0.06229 0.98676 0.0
O154 O 0.39 0.79758 0.30674 0.0
Cd155 Cd 0.40106 0.77936 0.39961 0.0
Cd156 Cd 0.40448 0.89378 0.4047 0.0
O157 O 0.36563 0.89165 0.32093 0.0
O158 O 0.35914 0.70377 0.41947 0.0
O159 O 0.33164 0.7923 0.45539 0.0
C160 C 0.32282 0.73548 0.45127 0.0
C161 C 0.37867 0.96412 0.47759 0.0
C162 C 0.37205 0.84729 0.28562 0.0
C163 C 0.51819 0.82802 0.42304 0.0
O164 O 0.49323 0.87563 0.40505 0.0
O165 O 0.48777 0.78121 0.43265 0.0
O166 O 0.40076 0.98002 0.426 0.0
O167 O 0.36783 0.90831 0.48676 0.0
O168 O 0.40118 0.05825 0.02159 0.0
Cd169 Cd 0.41076 0.14607 0.99392 0.0
Cd170 Cd 0.40546 0.09396 0.88652 0.0
O171 O 0.3718 0.02216 0.93307 0.0
O172 O 0.37901 0.1937 0.06315 0.0
O173 O 0.33629 0.18971 0.97186 0.0
C174 C 0.33537 0.20742 0.02807 0.0
C175 C 0.37681 0.11115 0.7854 0.0
C176 C 0.38118 0.01536 0.98974 0.0
C177 C 0.523 0.14152 0.92939 0.0
O178 O 0.49492 0.10417 0.8969 0.0
O179 O 0.49603 0.17258 0.96928 0.0
O180 O 0.40073 0.0619 0.80232 0.0
O181 O 0.36585 0.15082 0.82655 0.0
O182 O 0.70455 0.91236 0.52159 0.0
Cd183 Cd 0.69497 0.82454 0.49392 0.0
Cd184 Cd 0.70027 0.87664 0.38652 0.0
O185 O 0.73393 0.94844 0.43307 0.0
O186 O 0.72672 0.77691 0.56315 0.0
O187 O 0.76944 0.78089 0.47186 0.0
C188 C 0.77036 0.76318 0.52807 0.0
C189 C 0.72892 0.85945 0.2854 0.0
C190 C 0.72455 0.95525 0.48974 0.0
C191 C 0.58273 0.82909 0.42939 0.0
O192 O 0.61081 0.86643 0.3969 0.0
O193 O 0.6097 0.79802 0.46928 0.0
O194 O 0.705 0.9087 0.30232 0.0
O195 O 0.73988 0.81979 0.32655 0.0
O196 O 0.40117 0.91235 0.98398 0.0
Cd197 Cd 0.41076 0.82453 0.01166 0.0
Cd198 Cd 0.40546 0.87665 0.11906 0.0
O199 O 0.3718 0.94845 0.0725 0.0
O200 O 0.37901 0.7769 0.94242 0.0
O201 O 0.33629 0.78088 0.03372 0.0
C202 C 0.33538 0.76317 0.97751 0.0
C203 C 0.37681 0.85946 0.22018 0.0
C204 C 0.38118 0.95524 0.01583 0.0
C205 C 0.523 0.82908 0.07618 0.0
O206 O 0.49492 0.86643 0.10868 0.0
O207 O 0.49603 0.79802 0.0363 0.0
O208 O 0.40073 0.9087 0.20326 0.0
O209 O 0.36585 0.81979 0.17903 0.0
O210 O 0.70456 0.05825 0.48398 0.0
Cd211 Cd 0.69497 0.14607 0.51166 0.0
Cd212 Cd 0.70027 0.09395 0.61906 0.0
O213 O 0.73393 0.02216 0.5725 0.0
O214 O 0.72672 0.1937 0.44242 0.0
O215 O 0.76944 0.18972 0.53372 0.0
C216 C 0.77036 0.20743 0.47751 0.0
C217 C 0.72892 0.11114 0.72018 0.0
C218 C 0.72456 0.01536 0.51583 0.0
C219 C 0.58273 0.14152 0.57618 0.0
O220 O 0.61081 0.10417 0.60868 0.0
O221 O 0.6097 0.17259 0.5363 0.0
O222 O 0.705 0.0619 0.70326 0.0
O223 O 0.73989 0.15081 0.67903 0.0
loop_
_geom_bond_atom_site_label_1
_geom_bond_atom_site_label_2
_geom_bond_distance
_geom_bond_site_symmetry_2
_ccdc_geom_bond_type
O0 Cd1 2.223 . S
O0 C8 1.315 . S
Cd1 O0 2.223 . S
Cd1 O4 2.297 . S
Cd1 O5 2.439 . S
Cd1 O11 2.240 . S
Cd2 O3 2.240 . S
Cd2 O10 2.223 . S
Cd2 O12 2.297 . S
Cd2 O13 2.439 . S
O3 Cd2 2.240 . S
O3 C8 1.279 . S
O4 Cd1 2.297 . S
O4 C6 1.247 . S
O5 Cd1 2.439 . S
O5 C6 1.208 . S
C6 O4 1.247 . S
C6 O5 1.208 . S
C7 O12 1.247 . S
C7 O13 1.208 . S
C8 O0 1.315 . S
C8 O3 1.279 . S
C9 O10 1.315 . S
C9 O11 1.279 . S
O10 Cd2 2.223 . S
O10 C9 1.315 . S
O11 Cd1 2.240 . S
O11 C9 1.279 . S
O12 Cd2 2.297 . S
O12 C7 1.247 . S
O13 Cd2 2.439 . S
O13 C7 1.208 . S
O14 Cd15 2.223 . S
O14 C22 1.315 . S
Cd15 O14 2.223 . S
Cd15 O18 2.297 . S
Cd15 O19 2.439 . S
Cd15 O25 2.240 . S
Cd16 O17 2.240 . S
Cd16 O24 2.223 . S
Cd16 O26 2.297 . S
Cd16 O27 2.439 . S
O17 Cd16 2.240 . S
O17 C22 1.279 . S
O18 Cd15 2.297 . S
O18 C20 1.247 . S
O19 Cd15 2.439 . S
O19 C20 1.208 . S
C20 O18 1.247 . S
C20 O19 1.208 . S
C21 O26 1.247 . S
C21 O27 1.208 . S
C22 O14 1.315 . S
C22 O17 1.279 . S
C23 O24 1.315 . S
C23 O25 1.279 . S
O24 Cd16 2.223 . S
O24 C23 1.315 . S
O25 Cd15 2.240 . S
O25 C23 1.279 . S
O26 Cd16 2.297 . S
O26 C21 1.247 . S
O27 Cd16 2.439 . S
O27 C21 1.208 . S
O28 Cd29 2.223 . S
O28 C36 1.315 . S
Cd29 O28 2.223 . S
Cd29 O32 2.297 . S
Cd29 O33 2.439 . S
Cd29 O39 2.240 . S
Cd30 O31 2.240 . S
Cd30 O38 2.223 . S
Cd30 O40 2.297 . S
Cd30 O41 2.439 . S
O31 Cd30 2.240 . S
O31 C36 1.279 . S
O32 Cd29 2.297 . S
O32 C34 1.247 . S
O33 Cd29 2.439 . S
O33 C34 1.208 . S
C34 O32 1.247 . S
C34 O33 1.208 . S
C35 O40 1.247 . S
C35 O41 1.208 . S
C36 O28 1.315 . S
C36 O31 1.279 . S
C37 O38 1.315 . S
C37 O39 1.279 . S
O38 Cd30 2.223 . S
O38 C37 1.315 . S
O39 Cd29 2.240 . S
O39 C37 1.279 . S
O40 Cd30 2.297 . S
O40 C35 1.247 . S
O41 Cd30 2.439 . S
O41 C35 1.208 . S
O42 Cd43 2.223 . S
O42 C50 1.315 . S
Cd43 O42 2.223 . S
Cd43 O46 2.297 . S
Cd43 O47 2.439 . S
Cd43 O53 2.240 . S
Cd44 O45 2.240 . S
Cd44 O52 2.223 . S
Cd44 O54 2.297 . S
Cd44 O55 2.439 . S
O45 Cd44 2.240 . S
O45 C50 1.279 . S
O46 Cd43 2.297 . S
O46 C48 1.247 . S
O47 Cd43 2.439 . S
O47 C48 1.208 . S
C48 O46 1.247 . S
C48 O47 1.208 . S
C49 O54 1.247 . S
C49 O55 1.208 . S
C50 O42 1.315 . S
C50 O45 1.279 . S
C51 O52 1.315 . S
C51 O53 1.279 . S
O52 Cd44 2.223 . S
O52 C51 1.315 . S
O53 Cd43 2.240 . S
O53 C51 1.279 . S
O54 Cd44 2.297 . S
O54 C49 1.247 . S
O55 Cd44 2.439 . S
O55 C49 1.208 . S
O56 Cd57 2.223 1_554 S
O56 C64 1.316 . S
Cd57 O56 2.223 1_556 S
Cd57 O60 2.297 1_556 S
Cd57 O61 2.439 . S
Cd57 O67 2.240 . S
Cd58 O59 2.240 . S
Cd58 O66 2.223 . S
Cd58 O68 2.297 . S
Cd58 O69 2.439 . S
O59 Cd58 2.240 . S
O59 C64 1.277 1_556 S
O60 Cd57 2.297 1_554 S
O60 C62 1.247 . S
O61 Cd57 2.439 . S
O61 C62 1.208 1_556 S
C62 O60 1.247 . S
C62 O61 1.208 1_554 S
C63 O68 1.247 . S
C63 O69 1.208 . S
C64 O56 1.316 . S
C64 O59 1.277 1_554 S
C65 O66 1.315 . S
C65 O67 1.279 . S
O66 Cd58 2.223 . S
O66 C65 1.315 . S
O67 Cd57 2.240 . S
O67 C65 1.279 . S
O68 Cd58 2.297 . S
O68 C63 1.247 . S
O69 Cd58 2.439 . S
O69 C63 1.208 . S
O70 Cd71 2.223 . S
O70 C78 1.315 . S
Cd71 O70 2.223 . S
Cd71 O74 2.297 . S
Cd71 O75 2.439 . S
Cd71 O81 2.240 . S
Cd72 O73 2.240 . S
Cd72 O80 2.223 . S
Cd72 O82 2.297 . S
Cd72 O83 2.439 . S
O73 Cd72 2.240 . S
O73 C78 1.279 . S
O74 Cd71 2.297 . S
O74 C76 1.247 . S
O75 Cd71 2.439 . S
O75 C76 1.208 . S
C76 O74 1.247 . S
C76 O75 1.208 . S
C77 O82 1.247 . S
C77 O83 1.208 . S
C78 O70 1.315 . S
C78 O73 1.279 . S
C79 O80 1.315 . S
C79 O81 1.279 . S
O80 Cd72 2.223 . S
O80 C79 1.315 . S
O81 Cd71 2.240 . S
O81 C79 1.279 . S
O82 Cd72 2.297 . S
O82 C77 1.247 . S
O83 Cd72 2.439 . S
O83 C77 1.208 . S
O84 Cd85 2.223 1_556 S
O84 C92 1.316 . S
Cd85 O84 2.223 1_554 S
Cd85 O88 2.297 1_554 S
Cd85 O89 2.439 . S
Cd85 O95 2.240 . S
Cd86 O87 2.240 . S
Cd86 O94 2.223 . S
Cd86 O96 2.297 . S
Cd86 O97 2.439 . S
O87 Cd86 2.240 . S
O87 C92 1.277 1_554 S
O88 Cd85 2.297 1_556 S
O88 C90 1.247 . S
O89 Cd85 2.439 . S
O89 C90 1.208 1_554 S
C90 O88 1.247 . S
C90 O89 1.208 1_556 S
C91 O96 1.247 . S
C91 O97 1.208 . S
C92 O84 1.316 . S
C92 O87 1.277 1_556 S
C93 O94 1.315 . S
C93 O95 1.279 . S
O94 Cd86 2.223 . S
O94 C93 1.315 . S
O95 Cd85 2.240 . S
O95 C93 1.279 . S
O96 Cd86 2.297 . S
O96 C91 1.247 . S
O97 Cd86 2.439 . S
O97 C91 1.208 . S
O98 Cd99 2.223 . S
O98 C106 1.315 . S
Cd99 O98 2.223 . S
Cd99 O102 2.297 . S
Cd99 O103 2.439 . S
Cd99 O109 2.240 . S
Cd100 O101 2.240 . S
Cd100 O108 2.223 . S
Cd100 O110 2.297 . S
Cd100 O111 2.439 . S
O101 Cd100 2.240 . S
O101 C106 1.279 . S
O102 Cd99 2.297 . S
O102 C104 1.247 . S
O103 Cd99 2.439 . S
O103 C104 1.208 . S
C104 O102 1.247 . S
C104 O103 1.208 . S
C105 O110 1.247 . S
C105 O111 1.208 . S
C106 O98 1.315 . S
C106 O101 1.279 . S
C107 O108 1.315 . S
C107 O109 1.279 . S
O108 Cd100 2.223 . S
O108 C107 1.315 . S
O109 Cd99 2.240 . S
O109 C107 1.279 . S
O110 Cd100 2.297 . S
O110 C105 1.247 . S
O111 Cd100 2.439 . S
O111 C105 1.208 . S
O112 Cd113 2.223 . S
O112 C120 1.315 . S
Cd113 O112 2.223 . S
Cd113 O116 2.297 . S
Cd113 O117 2.439 . S
Cd113 O123 2.240 . S
Cd114 O115 2.240 . S
Cd114 O122 2.223 . S
Cd114 O124 2.291 1_565 S
Cd114 O125 2.439 . S
O115 Cd114 2.240 . S
O115 C120 1.279 . S
O116 Cd113 2.297 . S
O116 C118 1.247 . S
O117 Cd113 2.439 . S
O117 C118 1.208 . S
C118 O116 1.247 . S
C118 O117 1.208 . S
C119 O124 1.244 1_565 S
C119 O125 1.208 . S
C120 O112 1.315 . S
C120 O115 1.279 . S
C121 O122 1.315 . S
C121 O123 1.279 . S
O122 Cd114 2.223 . S
O122 C121 1.315 . S
O123 Cd113 2.240 . S
O123 C121 1.279 . S
O124 Cd114 2.291 1_545 S
O124 C119 1.244 1_545 S
O125 Cd114 2.439 . S
O125 C119 1.208 . S
O126 Cd127 2.223 . S
O126 C134 1.315 . S
Cd127 O126 2.223 . S
Cd127 O130 2.297 . S
Cd127 O131 2.439 . S
Cd127 O137 2.240 . S
Cd128 O129 2.240 . S
Cd128 O136 2.223 . S
Cd128 O138 2.291 1_545 S
Cd128 O139 2.439 . S
O129 Cd128 2.240 . S
O129 C134 1.279 . S
O130 Cd127 2.297 . S
O130 C132 1.247 . S
O131 Cd127 2.439 . S
O131 C132 1.208 . S
C132 O130 1.247 . S
C132 O131 1.208 . S
C133 O138 1.244 1_545 S
C133 O139 1.208 . S
C134 O126 1.315 . S
C134 O129 1.279 . S
C135 O136 1.315 . S
C135 O137 1.279 . S
O136 Cd128 2.223 . S
O136 C135 1.315 . S
O137 Cd127 2.240 . S
O137 C135 1.279 . S
O138 Cd128 2.291 1_565 S
O138 C133 1.244 1_565 S
O139 Cd128 2.439 . S
O139 C133 1.208 . S
O140 Cd141 2.223 . S
O140 C148 1.315 . S
Cd141 O140 2.223 . S
Cd141 O144 2.297 . S
Cd141 O145 2.439 . S
Cd141 O151 2.240 . S
Cd142 O143 2.240 . S
Cd142 O150 2.223 . S
Cd142 O152 2.291 1_545 S
Cd142 O153 2.439 . S
O143 Cd142 2.240 . S
O143 C148 1.279 . S
O144 Cd141 2.297 . S
O144 C146 1.247 . S
O145 Cd141 2.439 . S
O145 C146 1.208 . S
C146 O144 1.247 . S
C146 O145 1.208 . S
C147 O152 1.244 1_545 S
C147 O153 1.208 . S
C148 O140 1.315 . S
C148 O143 1.279 . S
C149 O150 1.315 . S
C149 O151 1.279 . S
O150 Cd142 2.223 . S
O150 C149 1.315 . S
O151 Cd141 2.240 . S
O151 C149 1.279 . S
O152 Cd142 2.291 1_565 S
O152 C147 1.244 1_565 S
O153 Cd142 2.439 . S
O153 C147 1.208 . S
O154 Cd155 2.223 . S
O154 C162 1.315 . S
Cd155 O154 2.223 . S
Cd155 O158 2.297 . S
Cd155 O159 2.439 . S
Cd155 O165 2.240 . S
Cd156 O157 2.240 . S
Cd156 O164 2.223 . S
Cd156 O166 2.291 1_565 S
Cd156 O167 2.439 . S
O157 Cd156 2.240 . S
O157 C162 1.279 . S
O158 Cd155 2.297 . S
O158 C160 1.247 . S
O159 Cd155 2.439 . S
O159 C160 1.208 . S
C160 O158 1.247 . S
C160 O159 1.208 . S
C161 O166 1.244 1_565 S
C161 O167 1.208 . S
C162 O154 1.315 . S
C162 O157 1.279 . S
C163 O164 1.315 . S
C163 O165 1.279 . S
O164 Cd156 2.223 . S
O164 C163 1.315 . S
O165 Cd155 2.240 . S
O165 C163 1.279 . S
O166 Cd156 2.291 1_545 S
O166 C161 1.244 1_545 S
O167 Cd156 2.439 . S
O167 C161 1.208 . S
O168 Cd169 2.223 1_554 S
O168 C176 1.316 . S
Cd169 O168 2.223 1_556 S
Cd169 O172 2.297 1_556 S
Cd169 O173 2.439 . S
Cd169 O179 2.240 . S
Cd170 O171 2.240 . S
Cd170 O178 2.223 . S
Cd170 O180 2.297 . S
Cd170 O181 2.439 . S
O171 Cd170 2.240 . S
O171 C176 1.277 1_556 S
O172 Cd169 2.297 1_554 S
O172 C174 1.247 . S
O173 Cd169 2.439 . S
O173 C174 1.208 1_556 S
C174 O172 1.247 . S
C174 O173 1.208 1_554 S
C175 O180 1.247 . S
C175 O181 1.208 . S
C176 O168 1.316 . S
C176 O171 1.277 1_554 S
C177 O178 1.315 . S
C177 O179 1.279 . S
O178 Cd170 2.223 . S
O178 C177 1.315 . S
O179 Cd169 2.240 . S
O179 C177 1.279 . S
O180 Cd170 2.297 . S
O180 C175 1.247 . S
O181 Cd170 2.439 . S
O181 C175 1.208 . S
O182 Cd183 2.223 . S
O182 C190 1.315 . S
Cd183 O182 2.223 . S
Cd183 O186 2.297 . S
Cd183 O187 2.439 . S
Cd183 O193 2.240 . S
Cd184 O185 2.240 . S
Cd184 O192 2.223 . S
Cd184 O194 2.297 . S
Cd184 O195 2.439 . S
O185 Cd184 2.240 . S
O185 C190 1.279 . S
O186 Cd183 2.297 . S
O186 C188 1.247 . S
O187 Cd183 2.439 . S
O187 C188 1.208 . S
C188 O186 1.247 . S
C188 O187 1.208 . S
C189 O194 1.247 . S
C189 O195 1.208 . S
C190 O182 1.315 . S
C190 O185 1.279 . S
C191 O192 1.315 . S
C191 O193 1.279 . S
O192 Cd184 2.223 . S
O192 C191 1.315 . S
O193 Cd183 2.240 . S
O193 C191 1.279 . S
O194 Cd184 2.297 . S
O194 C189 1.247 . S
O195 Cd184 2.439 . S
O195 C189 1.208 . S
O196 Cd197 2.223 1_556 S
O196 C204 1.316 . S
Cd197 O196 2.223 1_554 S
Cd197 O200 2.297 1_554 S
Cd197 O201 2.439 . S
Cd197 O207 2.240 . S
Cd198 O199 2.240 . S
Cd198 O206 2.223 . S
Cd198 O208 2.297 . S
Cd198 O209 2.439 . S
O199 Cd198 2.240 . S
O199 C204 1.277 1_554 S
O200 Cd197 2.297 1_556 S
O200 C202 1.247 . S
O201 Cd197 2.439 . S
O201 C202 1.208 1_554 S
C202 O200 1.247 . S
C202 O201 1.208 1_556 S
C203 O208 1.247 . S
C203 O209 1.208 . S
C204 O196 1.316 . S
C204 O199 1.277 1_556 S
C205 O206 1.315 . S
C205 O207 1.279 . S
O206 Cd198 2.223 . S
O206 C205 1.315 . S
O207 Cd197 2.240 . S
O207 C205 1.279 . S
O208 Cd198 2.297 . S
O208 C203 1.247 . S
O209 Cd198 2.439 . S
O209 C203 1.208 . S
O210 Cd211 2.223 . S
O210 C218 1.315 . S
Cd211 O210 2.223 . S
Cd211 O214 2.297 . S
Cd211 O215 2.439 . S
Cd211 O221 2.240 . S
Cd212 O213 2.240 . S
Cd212 O220 2.223 . S
Cd212 O222 2.297 . S
Cd212 O223 2.439 . S
O213 Cd212 2.240 . S
O213 C218 1.279 . S
O214 Cd211 2.297 . S
O214 C216 1.247 . S
O215 Cd211 2.439 . S
O215 C216 1.208 . S
C216 O214 1.247 . S
C216 O215 1.208 . S
C217 O222 1.247 . S
C217 O223 1.208 . S
C218 O210 1.315 . S
C218 O213 1.279 . S
C219 O220 1.315 . S
C219 O221 1.279 . S
O220 Cd212 2.223 . S
O220 C219 1.315 . S
O221 Cd211 2.240 . S
O221 C219 1.279 . S
O222 Cd212 2.297 . S
O222 C217 1.247 . S
O223 Cd212 2.439 . S
O223 C217 1.208 . S
C9 C93 1.497 1_455 S
C23 C107 1.497 1_655 S
C65 C37 1.497 1_655 S
C79 C51 1.497 1_455 S
C205 C121 1.497 . S
C219 C135 1.497 . S
C149 C177 1.497 . S
C163 C191 1.497 . S
C8 C77 1.816 . S
C22 C63 1.816 . S
C36 C105 1.816 . S
C91 C50 1.816 . S
C189 C120 1.816 . S
C175 C134 1.816 . S
C148 C217 1.816 . S
C203 C162 1.816 . S
C174 C6 1.616 . S
C20 C188 1.616 . S
C202 C34 1.616 . S
C216 C48 1.616 . S
C118 C62 1.616 . S
C132 C76 1.616 . S
C90 C146 1.616 . S
C104 C160 1.616 . S
C35 C7 0.926 1_556 S
C21 C49 0.926 . S
C92 C64 2.470 1_556 S
C78 C106 2.470 . S
C147 C119 0.926 1_546 S
C161 C133 0.926 1_565 S
C204 C176 2.470 1_566 S
C218 C190 2.470 1_545 S
