# Generated by pormake.
# Topology sxc, (6)-cn, num edge types: 1
# Building blocks:
#     Node 0, Type 0, BuildingBlock: PAMTOO_clean_sbu_0, # of connection points: 6
#     Node 1, Type 0, BuildingBlock: PAMTOO_clean_sbu_0, # of connection points: 6
#     Node 2, Type 0, BuildingBlock: PAMTOO_clean_sbu_0, # of connection points: 6
#     Edge 3, Type (0, 0), BuildingBlock: OJICUG_clean_linker_0, # of connection points: 2
#     Edge 4, Type (0, 0), BuildingBlock: OJICUG_clean_linker_0, # of connection points: 2
#     Edge 5, Type (0, 0), BuildingBlock: OJICUG_clean_linker_0, # of connection points: 2
#     Edge 6, Type (0, 0), BuildingBlock: OJICUG_clean_linker_0, # of connection points: 2
#     Edge 7, Type (0, 0), BuildingBlock: OJICUG_clean_linker_0, # of connection points: 2
#     Edge 8, Type (0, 0), BuildingBlock: OJICUG_clean_linker_0, # of connection points: 2
#     Edge 9, Type (0, 0), BuildingBlock: OJICUG_clean_linker_0, # of connection points: 2
#     Edge 10, Type (0, 0), BuildingBlock: OJICUG_clean_linker_0, # of connection points: 2
#     Edge 11, Type (0, 0), BuildingBlock: OJICUG_clean_linker_0, # of connection points: 2
# Relax obj value: 0.553
# Max RMSD: 0.155
# Mean RMSD: 0.118
data_MOF--net-sxc--node1-PAMTOO_clean_sbu_0--edge1-OJICUG_clean_linker_0
_symmetry_space_group_name_H-M    P1
_symmetry_Int_Tables_number       1
_symmetry_cell_setting            triclinic
loop_
_symmetry_equiv_pos_as_xyz
'x, y, z'
_cell_length_a     12.149404
_cell_length_b     11.510254
_cell_length_c     33.543731
_cell_angle_alpha  96.550036
_cell_angle_beta   97.105604
_cell_angle_gamma 79.424689
loop_
_atom_site_label
_atom_site_type_symbol
_atom_site_fract_x
_atom_site_fract_y
_atom_site_fract_z
_atom_type_partial_charge
Dy0 Dy 1.15547 0.16482 -0.01765 0.0
Dy1 Dy 0.41899 0.1228 -0.00168 0.0
C2 C 0.27645 0.16261 0.07283 0.0
O3 O 1.1941 0.34533 0.97555 0.0
O4 O 0.37148 0.32125 0.00866 0.0
O5 O 0.98718 0.19591 -0.00062 0.0
O6 O 1.0141 0.18478 0.93621 0.0
O7 O 0.36655 0.17431 0.93543 0.0
O8 O 0.22796 1.06818 0.92742 0.0
O9 O 0.38225 0.93555 -0.0115 0.0
O10 O 1.19474 0.97549 -0.0023 0.0
O11 O 0.5788 1.04401 0.97694 0.0
O12 O 0.57237 0.15818 0.03338 0.0
C13 C 0.28269 0.38998 -0.00754 0.0
O14 O 1.18991 0.2107 0.04899 0.0
O15 O 0.36823 0.10444 0.05834 0.0
C16 C 0.88844 1.07173 0.95343 0.0
C17 C 0.81059 0.85606 0.93542 0.0
C18 C 0.85281 0.8898 0.97487 0.0
C19 C 0.89174 0.99633 -0.01615 0.0
C20 C 0.84161 1.04005 0.91409 0.0
C21 C 0.8021 0.93235 0.90512 0.0
C22 C 0.94518 0.17526 0.96202 0.0
C23 C 0.29919 0.11536 0.91136 0.0
C24 C 0.28848 0.89914 -0.0065 0.0
C25 C 0.67042 0.20951 -0.01524 0.0
C26 C 0.71763 0.40888 0.95408 0.0
C27 C 0.65674 0.33185 0.92928 0.0
C28 C 0.6332 0.23276 0.94447 0.0
C29 C 0.7308 0.28772 0.0096 0.0
C30 C 0.75485 0.3867 -0.00576 0.0
C31 C 0.6285 0.11772 0.00249 0.0
H32 H 0.85904 0.83151 -0.00143 0.0
H33 H 0.92733 1.01749 0.01447 0.0
H34 H 0.83868 1.09689 0.89023 0.0
H35 H 0.76932 0.90665 0.87451 0.0
H36 H 0.6268 0.34888 0.89835 0.0
H37 H 0.58414 0.17571 0.92473 0.0
H38 H 0.75739 0.27338 0.04096 0.0
H39 H 0.80086 0.44703 0.01384 0.0
Dy40 Dy 0.34308 0.2107 0.33737 0.0
Dy41 Dy 1.07214 0.25354 0.30883 0.0
C42 C 0.24973 0.19643 0.24502 0.0
O43 O 0.29363 0.41024 0.34392 0.0
O44 O 1.12222 0.43126 0.3052 0.0
O45 O 0.51797 0.16641 0.32747 0.0
O46 O 0.47201 0.20904 0.38832 0.0
O47 O 1.08833 0.30667 0.37564 0.0
O48 O 0.24964 0.17371 0.38604 0.0
O49 O 1.11414 1.05971 0.31997 0.0
O50 O 0.30713 1.02456 0.32029 0.0
O51 O 0.89955 0.24652 0.31657 0.0
O52 O 0.93957 0.30324 0.26149 0.0
C53 C 0.20882 0.47664 0.32417 0.0
O54 O 0.32603 0.23658 0.27149 0.0
O55 O 1.16173 0.16495 0.25673 0.0
C56 C 0.61957 1.0483 0.37571 0.0
C57 C 0.70483 0.81337 0.35014 0.0
C58 C 0.61018 0.83829 0.37177 0.0
C59 C 0.56524 0.95651 0.38342 0.0
C60 C 0.72922 1.01954 0.36467 0.0
C61 C 0.77328 0.90168 0.35288 0.0
C62 C 0.55214 0.16295 0.36579 0.0
C63 C 1.16133 0.24167 0.39981 0.0
C64 C 0.21099 0.98589 0.3197 0.0
C65 C 0.81328 0.16748 0.25586 0.0
C66 C 0.73761 0.94849 0.23484 0.0
C67 C 0.66492 1.05005 0.2501 0.0
C68 C 0.70288 0.15808 0.26074 0.0
C69 C 0.88027 1.07242 0.23526 0.0
C70 C 0.84205 0.96458 0.22423 0.0
C71 C 0.86519 0.26408 0.27893 0.0
H72 H 0.56068 0.76984 0.3728 0.0
H73 H 0.48146 0.97655 0.39313 0.0
H74 H 0.77384 1.08878 0.35939 0.0
H75 H 0.85086 0.88553 0.33878 0.0
H76 H 0.58301 1.04401 0.2583 0.0
H77 H 0.64947 0.23087 0.27611 0.0
H78 H 0.96577 1.07788 0.23067 0.0
H79 H 0.89919 0.89075 0.21111 0.0
Dy80 Dy 1.16719 0.27146 0.66132 0.0
Dy81 Dy 1.19348 1.08732 0.64813 0.0
C82 C 1.15218 0.20989 0.57001 0.0
O83 O 1.01079 0.18258 0.66573 0.0
O84 O 1.01267 0.18247 0.66487 0.0
O85 O 1.1017 0.45488 0.65142 0.0
O86 O 0.22521 0.40964 0.70239 0.0
O87 O 0.26103 1.05903 0.71206 0.0
O88 O 1.16946 0.24123 0.72619 0.0
O89 O 0.35031 0.17808 0.64496 0.0
O90 O 0.34921 0.17808 0.64562 0.0
O91 O 0.25273 0.90122 0.65497 0.0
O92 O 1.12765 0.95744 0.60544 0.0
C93 C 0.921 0.1857 0.63826 0.0
O94 O 1.10535 0.29144 0.59581 0.0
O95 O 0.21237 0.11674 0.58505 0.0
C96 C 0.25396 0.55938 0.66742 0.0
C97 C 0.45265 0.63405 0.65486 0.0
C98 C 0.40224 0.55839 0.62524 0.0
C99 C 0.30369 0.52096 0.63152 0.0
C100 C 0.29988 0.6411 0.6958 0.0
C101 C 0.39866 0.67858 0.68953 0.0
C102 C 1.17501 0.49232 0.67964 0.0
C103 C 0.22666 0.14341 0.7392 0.0
C104 C 0.44022 0.17374 0.67246 0.0
C105 C 1.09839 0.80072 0.63698 0.0
C106 C 0.90045 0.72129 0.64737 0.0
C107 C 0.94895 0.79589 0.6779 0.0
C108 C 1.04713 0.83573 0.67269 0.0
C109 C 1.05485 0.71946 0.60773 0.0
C110 C 0.95645 0.67937 0.61297 0.0
C111 C 1.17766 0.86977 0.6262 0.0
H112 H 0.44195 0.52376 0.59813 0.0
H113 H 0.27086 0.45571 0.60963 0.0
H114 H 0.26363 0.66962 0.72398 0.0
H115 H 0.43632 0.73655 0.7129 0.0
H116 H 0.90774 0.82827 0.70486 0.0
H117 H 1.07847 0.90025 0.69527 0.0
H118 H 1.09264 0.69329 0.57974 0.0
H119 H 0.92036 0.62199 0.58898 0.0
C120 C 0.38645 0.5633 -0.0041 0.0
C121 C 0.28398 0.5203 -0.0071 0.0
H122 H 0.46861 0.71444 -0.00205 0.0
C123 C 1.18326 0.60328 -0.00974 0.0
H124 H 0.46584 0.50226 -0.00231 0.0
C125 C 1.18485 0.72553 -0.00912 0.0
C126 C 0.28728 0.76868 -0.00641 0.0
H127 H 1.10293 0.57379 -0.01172 0.0
H128 H 1.10534 0.7862 -0.0111 0.0
C129 C 0.38805 0.68538 -0.00408 0.0
C130 C 0.80108 0.69743 0.29406 0.0
C131 C 0.70042 0.73262 0.31199 0.0
H132 H 0.89554 0.74573 0.25095 0.0
C133 C 0.60244 0.76126 0.28521 0.0
H134 H 0.87647 0.66024 0.31219 0.0
C135 C 0.61186 0.8125 0.25013 0.0
C136 C 0.71921 0.82748 0.24209 0.0
H137 H 0.51984 0.77402 0.29566 0.0
H138 H 0.53641 0.86022 0.23467 0.0
C139 C 0.81181 0.7488 0.25908 0.0
C140 C 0.70021 0.79235 0.65963 0.0
C141 C 0.78625 0.6979 0.64948 0.0
H142 H 0.52609 0.84634 0.66852 0.0
C143 C 0.76132 0.58312 0.63997 0.0
H144 H 0.71698 0.88223 0.6662 0.0
C145 C 0.65213 0.56288 0.64108 0.0
C146 C 0.56627 0.65727 0.65153 0.0
H147 H 0.82648 0.509 0.63222 0.0
H148 H 0.63538 0.47299 0.63462 0.0
C149 C 0.59112 0.77216 0.66071 0.0
C150 C 0.70745 0.18963 0.61705 0.0
C151 C 0.79875 0.18284 0.64833 0.0
H152 H 0.52894 0.19281 0.59836 0.0
C153 C 0.76806 0.17271 0.68707 0.0
H154 H 0.72443 0.19738 0.58661 0.0
C155 C 0.65387 0.16989 0.69381 0.0
C156 C 0.56256 0.1768 0.66253 0.0
H157 H 0.83243 0.16669 0.71248 0.0
H158 H 0.63687 0.16204 0.72424 0.0
C159 C 0.59327 0.18687 0.62379 0.0
C160 C 0.6726 0.71908 0.9243 0.0
C161 C 0.7844 0.73654 0.92684 0.0
H162 H 0.56369 0.59681 0.9307 0.0
C163 C 0.87303 0.64066 0.93165 0.0
H164 H 0.60369 0.79315 0.92133 0.0
C165 C 0.85072 0.53057 0.93805 0.0
C166 C 0.73944 0.51539 0.93888 0.0
H167 H 0.95968 0.65386 0.93387 0.0
H168 H 0.92027 0.45946 0.94473 0.0
C169 C 0.65007 0.60793 0.93002 0.0
C170 C 1.1193 0.6809 0.30336 0.0
C171 C 0.21073 0.60698 0.32284 0.0
H172 H 1.04577 0.85694 0.28775 0.0
C173 C 0.30377 0.65925 0.34035 0.0
H174 H 1.04828 0.64343 0.28846 0.0
C175 C 0.30416 0.78111 0.33866 0.0
C176 C 0.21158 0.85518 0.32001 0.0
H177 H 0.3766 0.60617 0.35539 0.0
H178 H 0.37578 0.81861 0.35289 0.0
C179 C 1.1186 0.80323 0.30257 0.0
C180 C 1.1604 0.19467 0.1739 0.0
C181 C 0.25876 0.18892 0.20114 0.0
H182 H 1.08877 0.19311 0.11223 0.0
C183 C 0.36326 0.17633 0.18589 0.0
H184 H 1.0784 0.20536 0.18473 0.0
C185 C 0.36921 0.16694 0.14412 0.0
C186 C 0.27053 0.17327 0.11696 0.0
H187 H 0.44028 0.17187 0.20614 0.0
H188 H 0.45097 0.15592 0.1331 0.0
C189 C 1.16611 0.18834 0.13235 0.0
C190 C 1.08843 0.33002 0.46639 0.0
C191 C 1.14403 0.2342 0.44235 0.0
H192 H 1.04794 0.39886 0.52639 0.0
C193 C 1.19394 0.13006 0.46022 0.0
H194 H 1.04955 0.41151 0.45339 0.0
C195 C 1.19297 0.1228 0.50122 0.0
C196 C 1.14248 0.21964 0.52594 0.0
H197 H 0.23624 1.05389 0.44256 0.0
H198 H 0.23444 1.04119 0.51365 0.0
C199 C 1.08805 0.32295 0.50808 0.0
C200 C 0.28086 0.22895 0.80895 0.0
C201 C 0.25271 0.13186 0.78288 0.0
H202 H 0.32179 0.29799 0.87007 0.0
C203 C 0.24593 1.0266 0.79913 0.0
H204 H 0.28696 0.31094 0.79706 0.0
C205 C 0.26225 1.02054 0.84104 0.0
C206 C 0.28999 0.11798 0.86711 0.0
H207 H 0.224 0.95077 0.77959 0.0
H208 H 0.25281 0.93993 0.8531 0.0
C209 C 0.30138 0.22134 0.85062 0.0
loop_
_geom_bond_atom_site_label_1
_geom_bond_atom_site_label_2
_geom_bond_distance
_geom_bond_site_symmetry_2
_ccdc_geom_bond_type
Dy0 O3 2.307 1_565 S
Dy0 O5 2.395 1_556 S
Dy0 O6 2.379 . S
Dy0 O8 2.339 . S
Dy0 O10 2.298 . S
Dy0 O14 2.275 1_656 S
Dy0 C22 2.738 . S
Dy1 O4 2.298 . S
Dy1 O7 2.275 1_554 S
Dy1 O9 2.307 1_545 S
Dy1 O11 2.395 1_554 S
Dy1 O12 2.379 . S
Dy1 O15 2.339 . S
Dy1 C31 2.738 . S
C2 O14 1.254 1_545 S
C2 O15 1.257 . S
O3 Dy0 2.307 1_545 S
O3 C13 1.263 1_656 S
O4 Dy1 2.298 . S
O4 C13 1.242 . S
O5 Dy0 2.395 1_554 S
O5 C22 1.255 1_554 S
O6 Dy0 2.379 . S
O6 C22 1.249 . S
O7 Dy1 2.275 1_556 S
O7 C23 1.254 . S
O8 Dy0 2.339 . S
O8 C23 1.257 1_665 S
O9 Dy1 2.307 1_565 S
O9 C24 1.266 . S
O10 Dy0 2.298 . S
O10 C24 1.236 1_656 S
O11 Dy1 2.395 1_556 S
O11 C31 1.255 1_556 S
O12 Dy1 2.379 . S
O12 C31 1.249 . S
C13 O3 1.263 1_454 S
C13 O4 1.242 . S
O14 Dy0 2.275 1_454 S
O14 C2 1.254 1_565 S
O15 Dy1 2.339 . S
O15 C2 1.257 . S
C16 C19 1.344 1_556 S
C16 C20 1.328 . S
C16 C22 1.516 . S
C17 C18 1.304 1_556 S
C17 C21 1.323 . S
C18 C17 1.304 1_554 S
C18 C19 1.371 . S
C18 H32 0.930 . S
C19 C16 1.344 1_554 S
C19 C18 1.371 . S
C19 H33 0.931 . S
C20 C16 1.328 . S
C20 C21 1.433 . S
C20 H34 0.931 . S
C21 C17 1.323 . S
C21 C20 1.433 . S
C21 H35 0.933 . S
C22 Dy0 2.738 . S
C22 O5 1.255 1_556 S
C22 O6 1.249 . S
C22 C16 1.516 . S
C23 O7 1.254 . S
C23 O8 1.257 1_445 S
C24 O9 1.266 . S
C24 O10 1.236 1_454 S
C25 C28 1.344 1_554 S
C25 C29 1.328 . S
C25 C31 1.516 . S
C26 C27 1.304 1_554 S
C26 C30 1.323 . S
C27 C26 1.304 1_556 S
C27 C28 1.371 . S
C27 H36 0.930 . S
C28 C25 1.344 1_556 S
C28 C27 1.371 . S
C28 H37 0.931 . S
C29 C25 1.328 . S
C29 C30 1.433 . S
C29 H38 0.931 . S
C30 C26 1.323 . S
C30 C29 1.433 . S
C30 H39 0.933 . S
C31 Dy1 2.738 . S
C31 O11 1.255 1_554 S
C31 O12 1.249 . S
C31 C25 1.516 . S
H32 C18 0.930 . S
H33 C19 0.931 . S
H34 C20 0.931 . S
H35 C21 0.933 . S
H36 C27 0.930 . S
H37 C28 0.931 . S
H38 C29 0.931 . S
H39 C30 0.933 . S
Dy40 O43 2.307 . S
Dy40 O45 2.395 . S
Dy40 O46 2.379 . S
Dy40 O48 2.339 . S
Dy40 O50 2.298 1_545 S
Dy40 O54 2.275 . S
Dy40 C62 2.738 . S
Dy41 O44 2.298 1_565 S
Dy41 O47 2.275 1_565 S
Dy41 O49 2.307 . S
Dy41 O51 2.395 1_565 S
Dy41 O52 2.379 1_565 S
Dy41 O55 2.339 . S
Dy41 C71 2.738 1_565 S
C42 O54 1.254 1_655 S
C42 O55 1.257 1_545 S
O43 Dy40 2.307 . S
O43 C53 1.266 1_455 S
O44 Dy41 2.298 1_545 S
O44 C53 1.236 . S
O45 Dy40 2.395 . S
O45 C62 1.255 . S
O46 Dy40 2.379 . S
O46 C62 1.249 . S
O47 Dy41 2.275 1_545 S
O47 C63 1.254 1_655 S
O48 Dy40 2.339 . S
O48 C63 1.257 . S
O49 Dy41 2.307 . S
O49 C64 1.266 1_655 S
O50 Dy40 2.298 1_565 S
O50 C64 1.236 . S
O51 Dy41 2.395 1_545 S
O51 C71 1.255 . S
O52 Dy41 2.379 1_545 S
O52 C71 1.249 . S
C53 O43 1.266 1_655 S
C53 O44 1.236 . S
O54 Dy40 2.275 . S
O54 C42 1.254 1_455 S
O55 Dy41 2.339 . S
O55 C42 1.257 1_565 S
C56 C59 1.344 . S
C56 C60 1.328 . S
C56 C62 1.516 1_565 S
C57 C58 1.304 . S
C57 C61 1.323 . S
C58 C57 1.304 . S
C58 C59 1.371 . S
C58 H72 0.930 . S
C59 C56 1.344 . S
C59 C58 1.371 . S
C59 H73 0.931 . S
C60 C56 1.328 . S
C60 C61 1.433 . S
C60 H74 0.931 1_565 S
C61 C57 1.323 . S
C61 C60 1.433 . S
C61 H75 0.933 . S
C62 Dy40 2.738 . S
C62 O45 1.255 . S
C62 O46 1.249 . S
C62 C56 1.516 1_545 S
C63 O47 1.254 1_455 S
C63 O48 1.257 . S
C64 O49 1.266 1_455 S
C64 O50 1.236 . S
C65 C68 1.344 . S
C65 C69 1.328 . S
C65 C71 1.516 . S
C66 C67 1.304 . S
C66 C70 1.323 . S
C67 C66 1.304 . S
C67 C68 1.371 . S
C67 H76 0.930 . S
C68 C65 1.344 . S
C68 C67 1.371 . S
C68 H77 0.931 . S
C69 C65 1.328 . S
C69 C70 1.433 . S
C69 H78 0.931 . S
C70 C66 1.323 . S
C70 C69 1.433 . S
C70 H79 0.933 . S
C71 Dy41 2.738 1_545 S
C71 O51 1.255 . S
C71 O52 1.249 . S
C71 C65 1.516 . S
H72 C58 0.930 . S
H73 C59 0.931 . S
H74 C60 0.931 1_545 S
H75 C61 0.933 . S
H76 C67 0.930 . S
H77 C68 0.931 . S
H78 C69 0.931 . S
H79 C70 0.933 . S
Dy80 O83 2.307 1_455 S
Dy80 O85 2.395 . S
Dy80 O86 2.379 . S
Dy80 O88 2.339 . S
Dy80 O90 2.298 . S
Dy80 O94 2.275 . S
Dy80 C102 2.738 . S
Dy81 O84 2.298 1_565 S
Dy81 O87 2.275 1_665 S
Dy81 O89 2.307 1_655 S
Dy81 O91 2.395 . S
Dy81 O92 2.379 . S
Dy81 O95 2.339 . S
Dy81 C111 2.738 . S
C82 O94 1.254 1_655 S
C82 O95 1.257 1_545 S
O83 Dy80 2.307 1_655 S
O83 C93 1.266 . S
O84 Dy81 2.298 1_545 S
O84 C93 1.236 . S
O85 Dy80 2.395 . S
O85 C102 1.255 . S
O86 Dy80 2.379 . S
O86 C102 1.249 . S
O87 Dy81 2.275 1_445 S
O87 C103 1.254 . S
O88 Dy80 2.339 . S
O88 C103 1.257 . S
O89 Dy81 2.307 1_455 S
O89 C104 1.266 1_565 S
O90 Dy80 2.298 . S
O90 C104 1.236 . S
O91 Dy81 2.395 . S
O91 C111 1.255 . S
O92 Dy81 2.379 . S
O92 C111 1.249 . S
C93 O83 1.266 . S
C93 O84 1.236 . S
O94 Dy80 2.275 . S
O94 C82 1.254 1_455 S
O95 Dy81 2.339 . S
O95 C82 1.257 1_565 S
C96 C99 1.344 . S
C96 C100 1.328 . S
C96 C102 1.516 . S
C97 C98 1.304 . S
C97 C101 1.323 . S
C98 C97 1.304 . S
C98 C99 1.371 . S
C98 H112 0.930 . S
C99 C96 1.344 . S
C99 C98 1.371 . S
C99 H113 0.931 . S
C100 C96 1.328 . S
C100 C101 1.433 . S
C100 H114 0.931 . S
C101 C97 1.323 . S
C101 C100 1.433 . S
C101 H115 0.933 . S
C102 Dy80 2.738 . S
C102 O85 1.255 . S
C102 O86 1.249 . S
C102 C96 1.516 . S
C103 O87 1.254 . S
C103 O88 1.257 . S
C104 O89 1.266 1_545 S
C104 O90 1.236 . S
C105 C108 1.344 . S
C105 C109 1.328 . S
C105 C111 1.516 . S
C106 C107 1.304 . S
C106 C110 1.323 . S
C107 C106 1.304 . S
C107 C108 1.371 . S
C107 H116 0.930 . S
C108 C105 1.344 . S
C108 C107 1.371 . S
C108 H117 0.931 . S
C109 C105 1.328 . S
C109 C110 1.433 . S
C109 H118 0.931 . S
C110 C106 1.323 . S
C110 C109 1.433 . S
C110 H119 0.933 . S
C111 Dy81 2.738 . S
C111 O91 1.255 . S
C111 O92 1.249 . S
C111 C105 1.516 . S
H112 C98 0.930 . S
H113 C99 0.931 . S
H114 C100 0.931 . S
H115 C101 0.933 . S
H116 C107 0.930 . S
H117 C108 0.931 . S
H118 C109 0.931 . S
H119 C110 0.933 . S
C120 C121 1.385 1_554 S
C120 H124 0.950 . S
C120 C129 1.390 . S
C121 C120 1.385 1_556 S
C121 C123 1.390 . S
H122 C129 0.950 . S
C123 C121 1.390 . S
C123 C125 1.390 . S
C123 H127 0.950 . S
H124 C120 0.950 . S
C125 C123 1.390 . S
C125 C126 1.387 1_556 S
C125 H128 0.950 . S
C126 C125 1.387 1_554 S
C126 C129 1.387 . S
H127 C123 0.950 . S
H128 C125 0.950 . S
C129 C120 1.390 . S
C129 H122 0.950 . S
C129 C126 1.387 . S
C130 C131 1.387 . S
C130 H134 0.950 . S
C130 C139 1.390 1_565 S
C131 C130 1.387 . S
C131 C133 1.387 . S
H132 C139 0.950 . S
C133 C131 1.387 . S
C133 C135 1.390 1_565 S
C133 H137 0.950 . S
H134 C130 0.950 . S
C135 C133 1.390 1_545 S
C135 C136 1.387 . S
C135 H138 0.950 . S
C136 C135 1.387 . S
C136 C139 1.387 . S
H137 C133 0.950 . S
H138 C135 0.950 . S
C139 C130 1.390 1_545 S
C139 H132 0.950 . S
C139 C136 1.387 . S
C140 C141 1.387 . S
C140 H144 0.950 . S
C140 C149 1.390 . S
C141 C140 1.387 . S
C141 C143 1.387 . S
H142 C149 0.950 . S
C143 C141 1.387 . S
C143 C145 1.390 . S
C143 H147 0.950 . S
H144 C140 0.950 . S
C145 C143 1.390 . S
C145 C146 1.387 . S
C145 H148 0.950 . S
C146 C145 1.387 . S
C146 C149 1.387 . S
H147 C143 0.950 . S
H148 C145 0.950 . S
C149 C140 1.390 . S
C149 H142 0.950 . S
C149 C146 1.387 . S
C150 C151 1.387 . S
C150 H154 0.950 . S
C150 C159 1.390 . S
C151 C150 1.387 . S
C151 C153 1.387 . S
H152 C159 0.950 . S
C153 C151 1.387 . S
C153 C155 1.390 . S
C153 H157 0.950 . S
H154 C150 0.950 . S
C155 C153 1.390 . S
C155 C156 1.387 . S
C155 H158 0.950 . S
C156 C155 1.387 . S
C156 C159 1.387 . S
H157 C153 0.950 . S
H158 C155 0.950 . S
C159 C150 1.390 . S
C159 H152 0.950 . S
C159 C156 1.387 . S
C160 C161 1.387 . S
C160 H164 0.950 . S
C160 C169 1.390 . S
C161 C160 1.387 . S
C161 C163 1.387 1_556 S
H162 C169 0.950 . S
C163 C161 1.387 1_554 S
C163 C165 1.390 . S
C163 H167 0.950 . S
H164 C160 0.950 . S
C165 C163 1.390 . S
C165 C166 1.387 . S
C165 H168 0.950 . S
C166 C165 1.387 . S
C166 C169 1.387 1_554 S
H167 C163 0.950 . S
H168 C165 0.950 . S
C169 C160 1.390 . S
C169 H162 0.950 . S
C169 C166 1.387 1_556 S
C170 C171 1.387 . S
C170 H174 0.950 . S
C170 C179 1.390 . S
C171 C170 1.387 . S
C171 C173 1.387 1_655 S
H172 C179 0.950 . S
C173 C171 1.387 1_455 S
C173 C175 1.390 . S
C173 H177 0.950 . S
H174 C170 0.950 . S
C175 C173 1.390 . S
C175 C176 1.387 . S
C175 H178 0.950 . S
C176 C175 1.387 . S
C176 C179 1.387 1_455 S
H177 C173 0.950 . S
H178 C175 0.950 . S
C179 C170 1.390 . S
C179 H172 0.950 . S
C179 C176 1.387 1_655 S
C180 C181 1.387 1_665 S
C180 H184 0.950 . S
C180 C189 1.390 1_655 S
C181 C180 1.387 1_445 S
C181 C183 1.387 . S
H182 C189 0.950 1_655 S
C183 C181 1.387 . S
C183 C185 1.390 . S
C183 H187 0.950 . S
H184 C180 0.950 . S
C185 C183 1.390 . S
C185 C186 1.387 1_545 S
C185 H188 0.950 . S
C186 C185 1.387 1_565 S
C186 C189 1.387 . S
H187 C183 0.950 . S
H188 C185 0.950 . S
C189 C180 1.390 1_455 S
C189 H182 0.950 1_455 S
C189 C186 1.387 . S
C190 C191 1.387 . S
C190 H194 0.950 . S
C190 C199 1.390 . S
C191 C190 1.387 . S
C191 C193 1.387 1_445 S
H192 C199 0.950 . S
C193 C191 1.387 1_665 S
C193 C195 1.390 . S
C193 H197 0.950 . S
H194 C190 0.950 . S
C195 C193 1.390 . S
C195 C196 1.387 1_665 S
C195 H198 0.950 . S
C196 C195 1.387 1_445 S
C196 C199 1.387 . S
H197 C193 0.950 . S
H198 C195 0.950 . S
C199 C190 1.390 . S
C199 H192 0.950 . S
C199 C196 1.387 . S
C200 C201 1.387 . S
C200 H204 0.950 . S
C200 C209 1.390 . S
C201 C200 1.387 . S
C201 C203 1.387 1_445 S
H202 C209 0.950 . S
C203 C201 1.387 1_665 S
C203 C205 1.390 . S
C203 H207 0.950 . S
H204 C200 0.950 . S
C205 C203 1.390 . S
C205 C206 1.387 1_665 S
C205 H208 0.950 . S
C206 C205 1.387 1_445 S
C206 C209 1.387 . S
H207 C203 0.950 . S
H208 C205 0.950 . S
C209 C200 1.390 . S
C209 H202 0.950 . S
C209 C206 1.387 . S
C121 C13 2.916 1_556 S
C126 C24 2.917 . S
C131 C57 0.703 . S
C136 C66 0.703 . S
C141 C106 1.168 . S
C146 C97 1.168 . S
C151 C93 4.920 . S
C156 C104 4.920 . S
C161 C17 0.541 . S
C166 C26 0.541 . S
C171 C53 2.988 . S
C176 C64 2.988 . S
C181 C42 1.509 1_455 S
C186 C2 1.502 1_565 S
C191 C63 1.483 . S
C196 C82 1.465 1_455 S
C201 C103 1.502 . S
C206 C23 1.485 . S
