# Generated by pormake.
# Topology pcu, (6)-cn, num edge types: 1
# Building blocks:
#     Node 0, Type 0, BuildingBlock: VOLQOD_clean_sbu_1, # of connection points: 6
#     Edge 1, Type (0, 0), BuildingBlock: XUDNAN_clean_linker_2, # of connection points: 2
#     Edge 2, Type (0, 0), BuildingBlock: XUDNAN_clean_linker_2, # of connection points: 2
#     Edge 3, Type (0, 0), BuildingBlock: XUDNAN_clean_linker_2, # of connection points: 2
# Relax obj value: 0.082
# Max RMSD: 0.143
# Mean RMSD: 0.143
data_MOF--net-pcu--node1-VOLQOD_clean_sbu_1--edge1-XUDNAN_clean_linker_2
_symmetry_space_group_name_H-M    P1
_symmetry_Int_Tables_number       1
_symmetry_cell_setting            triclinic
loop_
_symmetry_equiv_pos_as_xyz
'x, y, z'
_cell_length_a     17.082975
_cell_length_b     17.116325
_cell_length_c     17.209009
_cell_angle_alpha  90.067245
_cell_angle_beta   91.646528
_cell_angle_gamma 91.954765
loop_
_atom_site_label
_atom_site_type_symbol
_atom_site_fract_x
_atom_site_fract_y
_atom_site_fract_z
_atom_type_partial_charge
O0 O 0.05312 0.02451 0.15882 0.0
Zn1 Zn 0.06657 0.04176 0.04511 0.0
O2 O 0.98717 0.98332 0.98371 0.0
Zn3 Zn 0.03418 0.91076 0.9122 0.0
Zn4 Zn 0.91834 0.92641 0.05424 0.0
Zn5 Zn 0.92841 0.05568 0.92074 0.0
O6 O 0.00529 0.93133 0.79896 0.0
O7 O 0.95728 0.04971 0.80931 0.0
O8 O 0.17528 0.0132 0.0153 0.0
O9 O 0.1515 0.92637 0.92028 0.0
O10 O 0.00815 0.7986 0.94099 0.0
O11 O 0.93833 0.81161 0.04727 0.0
O12 O 0.8045 0.94337 0.02407 0.0
O13 O 0.05331 0.15753 0.03353 0.0
O14 O 0.81392 0.02745 0.9257 0.0
O15 O 0.94866 0.16712 0.95479 0.0
C16 C -0.00133 -0.00623 0.19872 0.0
C17 C 0.98188 -0.00563 0.76825 0.0
C18 C 0.97246 0.76921 -0.00135 0.0
C19 C 0.19905 0.96716 0.96341 0.0
C20 C 0.77318 0.98369 0.96997 0.0
C21 C 0.00246 0.19833 -0.00161 0.0
O22 O 0.94011 0.95711 0.16669 0.0
H23 H 0.95209 0.89199 0.31362 0.0
H24 H 0.05242 0.12442 0.27421 0.0
H25 H 0.05683 0.14948 0.41545 0.0
H26 H 0.83388 0.93926 0.47646 0.0
H27 H 0.85373 0.85076 0.52906 0.0
H28 H 0.85537 0.85141 0.42443 0.0
H29 H -0.0033 0.80098 0.42988 0.0
H30 H -0.00453 0.8001 0.53452 0.0
H31 H 0.07184 0.85428 0.48572 0.0
H32 H 0.04463 0.15241 0.55838 0.0
H33 H 0.02978 0.12824 0.69857 0.0
H34 H 0.94944 0.88968 0.64904 0.0
C35 C 0.97463 0.94812 0.33505 0.0
C36 C 0.00152 0.00655 0.2834 0.0
C37 C 0.03179 0.07893 0.3131 0.0
C38 C 0.03423 0.09381 0.39305 0.0
C39 C 0.0075 0.03515 0.44257 0.0
C40 C 0.97938 0.96331 0.41515 0.0
C41 C 0.95779 0.90945 0.48174 0.0
C42 C 0.86997 0.88638 0.47766 0.0
C43 C 0.0085 0.83692 0.48303 0.0
C44 C 0.97767 0.96261 0.5506 0.0
C45 C 0.0051 0.03519 0.52628 0.0
C46 C 0.02404 0.09562 0.57835 0.0
C47 C 0.01515 0.08146 0.65766 0.0
C48 C -0.01091 0.00707 0.68418 0.0
C49 C 0.97045 0.94673 0.63003 0.0
H50 H 0.31971 0.9763 0.07194 0.0
H51 H 0.26844 0.9499 0.82474 0.0
H52 H 0.4102 0.94985 0.80006 0.0
H53 H 0.48981 0.10105 0.06023 0.0
H54 H 0.54296 0.05514 0.13877 0.0
H55 H 0.43747 0.05326 0.13735 0.0
H56 H 0.43459 0.90207 0.14628 0.0
H57 H 0.54014 0.90349 0.14796 0.0
H58 H 0.48531 0.84651 0.07556 0.0
H59 H 0.55598 0.96354 0.8012 0.0
H60 H 0.69861 0.97466 0.82914 0.0
H61 H 0.65663 0.97882 0.07645 0.0
C62 C 0.3386 0.97036 0.01274 0.0
C63 C 0.2836 0.96362 0.95006 0.0
C64 C 0.30995 0.95491 0.87343 0.0
C65 C 0.39018 0.95508 0.85887 0.0
C66 C 0.44303 0.96226 0.92181 0.0
C67 C 0.41852 0.96828 -0.00264 0.0
C68 C 0.48771 0.97294 0.05453 0.0
C69 C 0.48957 0.0502 0.1004 0.0
C70 C 0.48687 0.90202 0.10931 0.0
C71 C 0.55489 0.97033 -0.0009 0.0
C72 C 0.52762 0.96501 0.92278 0.0
C73 C 0.57815 0.96647 0.86071 0.0
C74 C 0.65883 0.97313 0.87708 0.0
C75 C 0.68807 0.97677 0.95481 0.0
C76 C 0.63549 0.9748 0.01659 0.0
H77 H 0.96129 0.64975 0.89209 0.0
H78 H -0.00779 0.69896 0.13858 0.0
H79 H 0.00655 0.55816 0.1647 0.0
H80 H 0.84293 0.47143 0.91808 0.0
H81 H 0.88304 0.42252 0.83616 0.0
H82 H 0.87769 0.52744 0.83659 0.0
H83 H 0.02686 0.54012 0.81372 0.0
H84 H 0.03276 0.43526 0.81374 0.0
H85 H 0.09414 0.49343 0.88003 0.0
H86 H 0.02668 0.41422 0.16289 0.0
H87 H 0.03216 0.27258 0.136 0.0
H88 H 0.97415 0.3144 0.89291 0.0
C89 C 0.97095 0.63056 0.95145 0.0
C90 C 0.97617 0.68474 0.01341 0.0
C91 C -0.0122 0.65796 0.0905 0.0
C92 C -0.00356 0.57834 0.10581 0.0
C93 C -0.00844 0.5263 0.04348 0.0
C94 C 0.97744 0.55093 0.96804 0.0
C95 C 0.97096 0.48226 0.91229 0.0
C96 C 0.88876 0.47552 0.87352 0.0
C97 C 0.03501 0.48815 0.85136 0.0
C98 C 0.9847 0.41541 0.9681 0.0
C99 C -0.00224 0.44234 0.04327 0.0
C100 C 0.01554 0.39221 0.1045 0.0
C101 C 0.01896 0.31213 0.08866 0.0
C102 C 0.00301 0.28308 0.01265 0.0
C103 C 0.98565 0.33536 0.95168 0.0
loop_
_geom_bond_atom_site_label_1
_geom_bond_atom_site_label_2
_geom_bond_distance
_geom_bond_site_symmetry_2
_ccdc_geom_bond_type
O0 Zn1 1.953 . S
O0 C16 1.225 . S
Zn1 O0 1.953 . S
Zn1 O2 1.940 1_454 S
Zn1 O8 1.919 . S
Zn1 O13 1.924 . S
O2 Zn1 1.940 1_656 S
O2 Zn3 1.932 1_645 S
O2 Zn4 1.941 1_546 S
O2 Zn5 1.953 . S
Zn3 O2 1.932 1_465 S
Zn3 O6 1.933 . S
Zn3 O9 1.941 . S
Zn3 O10 1.965 . S
Zn4 O2 1.941 1_564 S
Zn4 O11 1.938 . S
Zn4 O12 1.906 . S
Zn4 O22 1.953 . S
Zn5 O2 1.953 . S
Zn5 O7 1.932 . S
Zn5 O14 1.977 . S
Zn5 O15 1.910 . S
O6 Zn3 1.933 . S
O6 C17 1.231 . S
O7 Zn5 1.932 . S
O7 C17 1.302 1_645 S
O8 Zn1 1.919 . S
O8 C19 1.253 1_544 S
O9 Zn3 1.941 . S
O9 C19 1.283 . S
O10 Zn3 1.965 . S
O10 C18 1.303 1_456 S
O11 Zn4 1.938 . S
O11 C18 1.247 . S
O12 Zn4 1.906 . S
O12 C20 1.304 1_564 S
O13 Zn1 1.924 . S
O13 C21 1.311 . S
O14 Zn5 1.977 . S
O14 C20 1.272 . S
O15 Zn5 1.910 . S
O15 C21 1.231 1_656 S
C16 O0 1.225 . S
C16 O22 1.298 1_445 S
C17 O6 1.231 . S
C17 O7 1.302 1_465 S
C18 O10 1.303 1_654 S
C18 O11 1.247 . S
C19 O8 1.253 1_566 S
C19 O9 1.283 . S
C20 O12 1.304 1_546 S
C20 O14 1.272 . S
C21 O13 1.311 . S
C21 O15 1.231 1_454 S
O22 Zn4 1.953 . S
O22 C16 1.298 1_665 S
H23 C35 0.930 . S
H24 C37 0.930 . S
H25 C38 0.930 . S
H26 C42 0.959 . S
H27 C42 0.959 . S
H28 C42 0.961 . S
H29 C43 0.960 . S
H30 C43 0.961 . S
H31 C43 0.959 . S
H32 C46 0.929 . S
H33 C47 0.931 . S
H34 C49 0.930 . S
C35 H23 0.930 . S
C35 C36 1.399 1_665 S
C35 C40 1.399 . S
C36 C35 1.399 1_445 S
C36 C37 1.376 . S
C37 H24 0.930 . S
C37 C36 1.376 . S
C37 C38 1.388 . S
C38 H25 0.930 . S
C38 C37 1.388 . S
C38 C39 1.390 . S
C39 C38 1.390 . S
C39 C40 1.394 1_445 S
C39 C45 1.465 . S
C40 C35 1.399 . S
C40 C39 1.394 1_665 S
C40 C41 1.516 . S
C41 C40 1.516 . S
C41 C42 1.502 . S
C41 C43 1.561 1_655 S
C41 C44 1.526 . S
C42 H26 0.959 . S
C42 H27 0.959 . S
C42 H28 0.961 . S
C42 C41 1.502 . S
C43 H29 0.960 . S
C43 H30 0.961 . S
C43 H31 0.959 . S
C43 C41 1.561 1_455 S
C44 C41 1.526 . S
C44 C45 1.396 1_665 S
C44 C49 1.390 . S
C45 C39 1.465 . S
C45 C44 1.396 1_445 S
C45 C46 1.399 . S
C46 H32 0.929 . S
C46 C45 1.399 . S
C46 C47 1.385 . S
C47 H33 0.931 . S
C47 C46 1.385 . S
C47 C48 1.389 . S
C48 C47 1.389 . S
C48 C49 1.387 1_445 S
C49 H34 0.930 . S
C49 C44 1.390 . S
C49 C48 1.387 1_665 S
H50 C62 0.930 . S
H51 C64 0.930 . S
H52 C65 0.930 . S
H53 C69 0.959 . S
H54 C69 0.959 . S
H55 C69 0.961 . S
H56 C70 0.960 . S
H57 C70 0.961 . S
H58 C70 0.959 1_545 S
H59 C73 0.929 . S
H60 C74 0.931 . S
H61 C76 0.930 . S
C62 H50 0.930 . S
C62 C63 1.399 1_565 S
C62 C67 1.399 . S
C63 C62 1.399 1_545 S
C63 C64 1.376 1_556 S
C64 H51 0.930 . S
C64 C63 1.376 1_554 S
C64 C65 1.388 . S
C65 H52 0.930 . S
C65 C64 1.388 . S
C65 C66 1.390 1_554 S
C66 C65 1.390 1_556 S
C66 C67 1.394 1_545 S
C66 C72 1.465 . S
C67 C62 1.399 . S
C67 C66 1.394 1_565 S
C67 C68 1.516 . S
C68 C67 1.516 . S
C68 C69 1.502 . S
C68 C70 1.561 . S
C68 C71 1.526 . S
C69 H53 0.959 . S
C69 H54 0.959 . S
C69 H55 0.961 . S
C69 C68 1.502 . S
C70 H56 0.960 . S
C70 H57 0.961 . S
C70 H58 0.959 1_565 S
C70 C68 1.561 . S
C71 C68 1.526 . S
C71 C72 1.396 1_565 S
C71 C76 1.390 . S
C72 C66 1.465 . S
C72 C71 1.396 1_545 S
C72 C73 1.399 1_556 S
C73 H59 0.929 . S
C73 C72 1.399 1_554 S
C73 C74 1.385 . S
C74 H60 0.931 . S
C74 C73 1.385 . S
C74 C75 1.389 1_554 S
C75 C74 1.389 1_556 S
C75 C76 1.387 1_545 S
C76 H61 0.930 . S
C76 C71 1.390 . S
C76 C75 1.387 1_565 S
H77 C89 0.929 1_556 S
H78 C91 0.930 . S
H79 C92 0.930 . S
H80 C96 0.959 1_554 S
H81 C96 0.959 . S
H82 C96 0.961 . S
H83 C97 0.960 . S
H84 C97 0.961 . S
H85 C97 0.959 1_455 S
H86 C100 0.929 . S
H87 C101 0.931 . S
H88 C103 0.930 1_556 S
C89 H77 0.929 1_554 S
C89 C90 1.399 1_655 S
C89 C94 1.399 . S
C90 C89 1.399 1_455 S
C90 C91 1.376 . S
C91 H78 0.930 . S
C91 C90 1.376 . S
C91 C92 1.388 . S
C92 H79 0.930 . S
C92 C91 1.388 . S
C92 C93 1.390 . S
C93 C92 1.390 . S
C93 C94 1.394 1_455 S
C93 C99 1.465 . S
C94 C89 1.399 . S
C94 C93 1.394 1_655 S
C94 C95 1.516 1_554 S
C95 C94 1.516 1_556 S
C95 C96 1.502 . S
C95 C97 1.561 . S
C95 C98 1.526 1_556 S
C96 H80 0.959 1_556 S
C96 H81 0.959 . S
C96 H82 0.961 . S
C96 C95 1.502 . S
C97 H83 0.960 . S
C97 H84 0.961 . S
C97 H85 0.959 1_655 S
C97 C95 1.561 . S
C98 C95 1.526 1_554 S
C98 C99 1.396 1_655 S
C98 C103 1.390 . S
C99 C93 1.465 . S
C99 C98 1.396 1_455 S
C99 C100 1.399 . S
C100 H86 0.929 . S
C100 C99 1.399 . S
C100 C101 1.385 . S
C101 H87 0.931 . S
C101 C100 1.385 . S
C101 C102 1.389 . S
C102 C101 1.389 . S
C102 C103 1.387 1_455 S
C103 H88 0.930 1_554 S
C103 C98 1.390 . S
C103 C102 1.387 1_655 S
C36 C16 1.489 . S
C48 C17 1.497 1_545 S
C63 C19 1.427 1_545 S
C75 C20 1.412 . S
C90 C18 1.460 1_455 S
C102 C21 1.448 . S
