# Generated by pormake.
# Topology rob, (6)-cn, num edge types: 1
# Building blocks:
#     Node 0, Type 0, BuildingBlock: JUFBIX_clean_sbu_0, # of connection points: 6
#     Node 1, Type 0, BuildingBlock: JUFBIX_clean_sbu_0, # of connection points: 6
#     Node 2, Type 0, BuildingBlock: JUFBIX_clean_sbu_0, # of connection points: 6
#     Node 3, Type 0, BuildingBlock: JUFBIX_clean_sbu_0, # of connection points: 6
#     Edge 4, Type (0, 0), BuildingBlock: EYOCIG_clean_linker_4, # of connection points: 2
#     Edge 5, Type (0, 0), BuildingBlock: EYOCIG_clean_linker_4, # of connection points: 2
#     Edge 6, Type (0, 0), BuildingBlock: EYOCIG_clean_linker_4, # of connection points: 2
#     Edge 7, Type (0, 0), BuildingBlock: EYOCIG_clean_linker_4, # of connection points: 2
#     Edge 8, Type (0, 0), BuildingBlock: EYOCIG_clean_linker_4, # of connection points: 2
#     Edge 9, Type (0, 0), BuildingBlock: EYOCIG_clean_linker_4, # of connection points: 2
#     Edge 10, Type (0, 0), BuildingBlock: EYOCIG_clean_linker_4, # of connection points: 2
#     Edge 11, Type (0, 0), BuildingBlock: EYOCIG_clean_linker_4, # of connection points: 2
#     Edge 12, Type (0, 0), BuildingBlock: EYOCIG_clean_linker_4, # of connection points: 2
#     Edge 13, Type (0, 0), BuildingBlock: EYOCIG_clean_linker_4, # of connection points: 2
#     Edge 14, Type (0, 0), BuildingBlock: EYOCIG_clean_linker_4, # of connection points: 2
#     Edge 15, Type (0, 0), BuildingBlock: EYOCIG_clean_linker_4, # of connection points: 2
# Relax obj value: 0.364
# Max RMSD: 0.268
# Mean RMSD: 0.268
data_MOF--net-rob--node1-JUFBIX_clean_sbu_0--edge1-EYOCIG_clean_linker_4
_symmetry_space_group_name_H-M    P1
_symmetry_Int_Tables_number       1
_symmetry_cell_setting            triclinic
loop_
_symmetry_equiv_pos_as_xyz
'x, y, z'
_cell_length_a     14.06395
_cell_length_b     18.838463
_cell_length_c     23.239036
_cell_angle_alpha  94.564186
_cell_angle_beta   90.001799
_cell_angle_gamma 90.000747
loop_
_atom_site_label
_atom_site_type_symbol
_atom_site_fract_x
_atom_site_fract_y
_atom_site_fract_z
_atom_type_partial_charge
Co0 Co 0.20302 0.28287 0.97465 0.0
C1 C 0.15578 0.14488 0.99997 0.0
Co2 Co 0.31225 0.22891 0.02576 0.0
C3 C 0.10694 0.32609 0.87193 0.0
C4 C 0.02437 0.35046 0.94821 0.0
N5 N 0.10973 0.32406 0.93004 0.0
N6 N 0.02388 0.35181 0.85388 0.0
C7 C 0.97152 0.36744 0.90137 0.0
H8 H 0.16236 0.30592 0.84278 0.0
H9 H 0.99938 0.35397 0.99231 0.0
C10 C 0.35949 0.3669 0.00044 0.0
N11 N 0.40554 0.18771 0.07037 0.0
C12 C 0.40839 0.18579 0.12849 0.0
C13 C 0.49082 0.16117 0.05219 0.0
N14 N 0.49141 0.16 0.14653 0.0
C15 C 0.54369 0.1442 0.09903 0.0
C16 C 0.33991 0.20711 0.90818 0.0
O17 O 0.27931 0.36622 0.97506 0.0
O18 O 0.38704 0.31297 0.02551 0.0
O19 O 0.3731 0.19202 0.95641 0.0
O20 O 0.26598 0.24528 0.90652 0.0
O21 O 0.23596 0.14555 0.02534 0.0
H22 H 0.51574 0.15752 0.00807 0.0
H23 H 0.35305 0.20608 0.15765 0.0
O24 O 0.12823 0.19881 0.97491 0.0
O25 O 0.14218 0.31977 0.044 0.0
O26 O 0.24928 0.26648 0.09389 0.0
C27 C 0.17536 0.30468 0.09222 0.0
H28 H 0.89869 0.38614 0.90185 0.0
H29 H 0.61646 0.1254 0.09854 0.0
Co30 Co 0.70305 0.78296 0.97463 0.0
C31 C 0.65558 0.64497 0.99982 0.0
Co32 Co 0.81213 0.72887 0.02579 0.0
C33 C 0.60686 0.82588 0.87184 0.0
C34 C 0.52495 0.85143 0.9482 0.0
N35 N 0.6099 0.82429 0.92999 0.0
N36 N 0.52404 0.85203 0.85382 0.0
C37 C 0.47209 0.8684 0.90136 0.0
H38 H 0.6619 0.80513 0.84266 0.0
H39 H 0.50021 0.85553 0.99236 0.0
C40 C 0.85961 0.86686 0.0006 0.0
N41 N 0.90528 0.68754 0.07044 0.0
C42 C 0.90833 0.68597 0.12859 0.0
C43 C 0.99022 0.66039 0.05222 0.0
N44 N 0.99114 0.65981 0.1466 0.0
C45 C 0.04309 0.64342 0.09907 0.0
C46 C 0.83999 0.70717 0.90822 0.0
O47 O 0.77947 0.86625 0.97517 0.0
O48 O 0.88704 0.81289 0.02565 0.0
O49 O 0.87307 0.69203 0.95646 0.0
O50 O 0.76612 0.74541 0.90653 0.0
O51 O 0.73571 0.64558 0.02525 0.0
H52 H 0.01495 0.65627 0.00807 0.0
H53 H 0.85329 0.70673 0.15777 0.0
O54 O 0.62814 0.69895 0.97477 0.0
O55 O 0.64212 0.81981 0.04396 0.0
O56 O 0.74906 0.76642 0.0939 0.0
C57 C 0.67519 0.80466 0.0922 0.0
H58 H 0.39952 0.88765 0.90189 0.0
H59 H 0.11565 0.62417 0.09853 0.0
Co60 Co 0.20298 0.72898 0.52578 0.0
C61 C 0.15577 0.86697 0.5004 0.0
Co62 Co 0.3122 0.7829 0.47464 0.0
C63 C 0.10695 0.68572 0.6285 0.0
C64 C 0.02423 0.66158 0.55224 0.0
N65 N 0.10967 0.68784 0.5704 0.0
N66 N 0.02384 0.66009 0.64657 0.0
C67 C 0.97139 0.64459 0.59909 0.0
H68 H 0.16245 0.70579 0.65764 0.0
H69 H 0.99918 0.65817 0.50816 0.0
C70 C 0.35941 0.64491 0.50002 0.0
N71 N 0.40551 0.82404 0.43003 0.0
C72 C 0.40824 0.82614 0.37192 0.0
C73 C 0.49095 0.8503 0.44818 0.0
N74 N 0.49134 0.85177 0.35386 0.0
C75 C 0.54379 0.86728 0.40133 0.0
C76 C 0.33989 0.80476 0.59222 0.0
O77 O 0.27924 0.64562 0.5254 0.0
O78 O 0.38696 0.69882 0.47493 0.0
O79 O 0.37307 0.81981 0.54398 0.0
O80 O 0.26595 0.76659 0.5939 0.0
O81 O 0.23595 0.86626 0.47502 0.0
H82 H 0.516 0.85372 0.49227 0.0
H83 H 0.35274 0.80607 0.34278 0.0
O84 O 0.12822 0.81306 0.52549 0.0
O85 O 0.14212 0.69206 0.45644 0.0
O86 O 0.24923 0.74528 0.40652 0.0
C87 C 0.17529 0.70711 0.40821 0.0
H88 H 0.89851 0.626 0.59863 0.0
H89 H 0.61666 0.88587 0.40179 0.0
Co90 Co 0.70311 0.2289 0.52578 0.0
C91 C 0.65557 0.36689 0.50065 0.0
Co92 Co 0.81217 0.28304 0.47464 0.0
C93 C 0.60682 0.18612 0.62858 0.0
C94 C 0.52522 0.16005 0.55218 0.0
N95 N 0.60999 0.1875 0.57042 0.0
N96 N 0.5241 0.15978 0.64658 0.0
C97 C 0.47233 0.1431 0.59901 0.0
H98 H 0.66169 0.20712 0.65779 0.0
H99 H 0.50062 0.15569 0.50799 0.0
C100 C 0.8597 0.14504 0.49977 0.0
N101 N 0.90528 0.32443 0.42999 0.0
C102 C 0.90852 0.32572 0.37182 0.0
C103 C 0.98998 0.35202 0.44825 0.0
N104 N 0.9912 0.35212 0.35383 0.0
C105 C 0.04288 0.36896 0.40141 0.0
C106 C 0.84005 0.30468 0.59221 0.0
O107 O 0.77957 0.14562 0.5252 0.0
O108 O 0.88712 0.19904 0.47474 0.0
O109 O 0.87312 0.31985 0.54398 0.0
O110 O 0.76619 0.26643 0.59389 0.0
O111 O 0.73571 0.36631 0.47522 0.0
H112 H 0.01452 0.3565 0.49244 0.0
H113 H 0.85372 0.30461 0.34261 0.0
O114 O 0.62816 0.31289 0.52567 0.0
O115 O 0.64216 0.19207 0.45644 0.0
O116 O 0.74908 0.24551 0.40653 0.0
C117 C 0.67523 0.20725 0.40821 0.0
H118 H 0.39987 0.12361 0.59845 0.0
H119 H 0.11529 0.38854 0.40198 0.0
C120 C 0.53991 0.53461 0.00029 0.0
C121 C 0.59404 0.58429 0.00071 0.0
C122 C 0.47505 0.47732 0.99989 0.0
C123 C 0.42095 0.42763 0.9995 0.0
C124 C 0.47497 0.53449 0.5006 0.0
C125 C 0.42086 0.58418 0.50098 0.0
C126 C 0.53985 0.47723 0.5002 0.0
C127 C 0.594 0.42755 0.49977 0.0
C128 C 0.04019 0.03447 0.00052 0.0
C129 C 0.09431 0.08416 0.00091 0.0
C130 C 0.9753 0.97721 1.00012 0.0
C131 C 0.92116 0.92754 0.99971 0.0
C132 C 0.97539 0.03469 0.50022 0.0
C133 C 0.92126 0.08437 0.50064 0.0
C134 C 0.04025 0.9774 0.49982 0.0
C135 C 0.09434 0.9277 0.49945 0.0
C136 C 0.59048 0.17129 0.30895 0.0
C137 C 0.62596 0.186 0.35559 0.0
C138 C 0.55225 0.16246 0.25267 0.0
C139 C 0.52358 0.16148 0.20372 0.0
C140 C 0.59036 0.8406 0.19144 0.0
C141 C 0.62588 0.8259 0.1448 0.0
C142 C 0.55209 0.8494 0.24771 0.0
C143 C 0.52343 0.85033 0.29666 0.0
C144 C 0.46299 0.84952 0.74773 0.0
C145 C 0.49173 0.85052 0.79666 0.0
C146 C 0.42469 0.84069 0.69147 0.0
C147 C 0.38918 0.82599 0.64483 0.0
C148 C 0.46294 0.16236 0.75265 0.0
C149 C 0.4917 0.16133 0.70372 0.0
C150 C 0.42465 0.1712 0.80891 0.0
C151 C 0.38916 0.18589 0.85556 0.0
C152 C 0.0522 0.66234 0.2527 0.0
C153 C 0.02345 0.66133 0.20376 0.0
C154 C 0.0905 0.67118 0.30896 0.0
C155 C 0.12601 0.68588 0.35559 0.0
C156 C 0.05239 0.34948 0.24777 0.0
C157 C 0.02363 0.35055 0.2967 0.0
C158 C 0.09066 0.34061 0.1915 0.0
C159 C 0.12613 0.32591 0.14485 0.0
C160 C 0.92484 0.34061 0.69146 0.0
C161 C 0.88934 0.32591 0.64482 0.0
C162 C 0.96308 0.34942 0.74774 0.0
C163 C 0.99175 0.35035 0.79669 0.0
C164 C 0.9631 0.66245 0.75271 0.0
C165 C 0.99176 0.66153 0.70377 0.0
C166 C 0.92483 0.67125 0.80898 0.0
C167 C 0.8893 0.68594 0.85562 0.0
loop_
_geom_bond_atom_site_label_1
_geom_bond_atom_site_label_2
_geom_bond_distance
_geom_bond_site_symmetry_2
_ccdc_geom_bond_type
Co0 N5 2.057 . S
Co0 O17 2.021 . S
Co0 O20 2.062 . S
Co0 O24 2.117 . S
Co0 O25 2.020 1_556 S
C1 O21 1.271 . S
C1 O24 1.247 1_554 S
Co2 N11 2.057 . S
Co2 O18 2.117 . S
Co2 O19 2.020 1_554 S
Co2 O21 2.021 . S
Co2 O26 2.062 . S
C3 N5 1.316 . S
C3 N6 1.346 . S
C3 H8 0.931 . S
C4 N5 1.375 . S
C4 C7 1.350 1_455 S
C4 H9 0.930 . S
N5 Co0 2.057 . S
N5 C3 1.316 . S
N5 C4 1.375 . S
N6 C3 1.346 . S
N6 C7 1.374 1_455 S
C7 C4 1.350 1_655 S
C7 N6 1.374 1_655 S
C7 H28 0.931 . S
H8 C3 0.931 . S
H9 C4 0.930 . S
C10 O17 1.268 . S
C10 O18 1.250 1_556 S
N11 Co2 2.057 . S
N11 C12 1.316 . S
N11 C13 1.375 . S
C12 N11 1.316 . S
C12 N14 1.347 . S
C12 H23 0.931 . S
C13 N11 1.375 . S
C13 C15 1.350 . S
C13 H22 0.930 . S
N14 C12 1.347 . S
N14 C15 1.373 . S
C15 C13 1.350 . S
C15 N14 1.373 . S
C15 H29 0.931 . S
C16 O19 1.256 . S
C16 O20 1.255 . S
O17 Co0 2.021 . S
O17 C10 1.268 . S
O18 Co2 2.117 . S
O18 C10 1.250 1_554 S
O19 Co2 2.020 1_556 S
O19 C16 1.256 . S
O20 Co0 2.062 . S
O20 C16 1.255 . S
O21 C1 1.271 . S
O21 Co2 2.021 . S
H22 C13 0.930 . S
H23 C12 0.931 . S
O24 Co0 2.117 . S
O24 C1 1.247 1_556 S
O25 Co0 2.020 1_554 S
O25 C27 1.256 . S
O26 Co2 2.062 . S
O26 C27 1.255 . S
C27 O25 1.256 . S
C27 O26 1.255 . S
H28 C7 0.931 . S
H29 C15 0.931 . S
Co30 N35 2.057 . S
Co30 O47 2.021 . S
Co30 O50 2.062 . S
Co30 O54 2.117 . S
Co30 O55 2.020 1_556 S
C31 O51 1.271 . S
C31 O54 1.247 1_554 S
Co32 N41 2.057 . S
Co32 O48 2.117 . S
Co32 O49 2.020 1_554 S
Co32 O51 2.021 . S
Co32 O56 2.062 . S
C33 N35 1.316 . S
C33 N36 1.347 . S
C33 H38 0.931 . S
C34 N35 1.375 . S
C34 C37 1.350 . S
C34 H39 0.930 . S
N35 Co30 2.057 . S
N35 C33 1.316 . S
N35 C34 1.375 . S
N36 C33 1.347 . S
N36 C37 1.373 . S
C37 C34 1.350 . S
C37 N36 1.373 . S
C37 H58 0.931 . S
H38 C33 0.931 . S
H39 C34 0.930 . S
C40 O47 1.268 . S
C40 O48 1.250 1_556 S
N41 Co32 2.057 . S
N41 C42 1.316 . S
N41 C43 1.375 . S
C42 N41 1.316 . S
C42 N44 1.346 . S
C42 H53 0.931 . S
C43 N41 1.375 . S
C43 C45 1.350 1_655 S
C43 H52 0.930 . S
N44 C42 1.346 . S
N44 C45 1.374 1_655 S
C45 C43 1.350 1_455 S
C45 N44 1.374 1_455 S
C45 H59 0.931 . S
C46 O49 1.256 . S
C46 O50 1.255 . S
O47 Co30 2.021 . S
O47 C40 1.268 . S
O48 Co32 2.117 . S
O48 C40 1.250 1_554 S
O49 Co32 2.020 1_556 S
O49 C46 1.256 . S
O50 Co30 2.062 . S
O50 C46 1.255 . S
O51 C31 1.271 . S
O51 Co32 2.021 . S
H52 C43 0.930 . S
H53 C42 0.931 . S
O54 Co30 2.117 . S
O54 C31 1.247 1_556 S
O55 Co30 2.020 1_554 S
O55 C57 1.256 . S
O56 Co32 2.062 . S
O56 C57 1.255 . S
C57 O55 1.256 . S
C57 O56 1.255 . S
H58 C37 0.931 . S
H59 C45 0.931 . S
Co60 N65 2.057 . S
Co60 O77 2.021 . S
Co60 O80 2.062 . S
Co60 O84 2.117 . S
Co60 O85 2.020 . S
C61 O81 1.259 . S
C61 O84 1.258 . S
Co62 N71 2.057 . S
Co62 O78 2.117 . S
Co62 O79 2.020 . S
Co62 O81 2.021 . S
Co62 O86 2.062 . S
C63 N65 1.316 . S
C63 N66 1.346 . S
C63 H68 0.931 . S
C64 N65 1.375 . S
C64 C67 1.350 1_455 S
C64 H69 0.930 . S
N65 Co60 2.057 . S
N65 C63 1.316 . S
N65 C64 1.375 . S
N66 C63 1.346 . S
N66 C67 1.374 1_455 S
C67 C64 1.350 1_655 S
C67 N66 1.374 1_655 S
C67 H88 0.931 . S
H68 C63 0.931 . S
H69 C64 0.930 . S
C70 O77 1.259 . S
C70 O78 1.258 . S
N71 Co62 2.057 . S
N71 C72 1.316 . S
N71 C73 1.375 . S
C72 N71 1.316 . S
C72 N74 1.347 . S
C72 H83 0.931 . S
C73 N71 1.375 . S
C73 C75 1.350 . S
C73 H82 0.930 . S
N74 C72 1.347 . S
N74 C75 1.373 . S
C75 C73 1.350 . S
C75 N74 1.373 . S
C75 H89 0.931 . S
C76 O79 1.256 . S
C76 O80 1.255 . S
O77 Co60 2.021 . S
O77 C70 1.259 . S
O78 Co62 2.117 . S
O78 C70 1.258 . S
O79 Co62 2.020 . S
O79 C76 1.256 . S
O80 Co60 2.062 . S
O80 C76 1.255 . S
O81 C61 1.259 . S
O81 Co62 2.021 . S
H82 C73 0.930 . S
H83 C72 0.931 . S
O84 Co60 2.117 . S
O84 C61 1.258 . S
O85 Co60 2.020 . S
O85 C87 1.256 . S
O86 Co62 2.062 . S
O86 C87 1.255 . S
C87 O85 1.256 . S
C87 O86 1.255 . S
H88 C67 0.931 . S
H89 C75 0.931 . S
Co90 N95 2.057 . S
Co90 O107 2.021 . S
Co90 O110 2.062 . S
Co90 O114 2.117 . S
Co90 O115 2.020 . S
C91 O111 1.259 . S
C91 O114 1.258 . S
Co92 N101 2.057 . S
Co92 O108 2.117 . S
Co92 O109 2.020 . S
Co92 O111 2.021 . S
Co92 O116 2.062 . S
C93 N95 1.316 . S
C93 N96 1.347 . S
C93 H98 0.931 . S
C94 N95 1.375 . S
C94 C97 1.350 . S
C94 H99 0.930 . S
N95 Co90 2.057 . S
N95 C93 1.316 . S
N95 C94 1.375 . S
N96 C93 1.347 . S
N96 C97 1.373 . S
C97 C94 1.350 . S
C97 N96 1.373 . S
C97 H118 0.931 . S
H98 C93 0.931 . S
H99 C94 0.930 . S
C100 O107 1.259 . S
C100 O108 1.258 . S
N101 Co92 2.057 . S
N101 C102 1.316 . S
N101 C103 1.375 . S
C102 N101 1.316 . S
C102 N104 1.346 . S
C102 H113 0.931 . S
C103 N101 1.375 . S
C103 C105 1.350 1_655 S
C103 H112 0.930 . S
N104 C102 1.346 . S
N104 C105 1.374 1_655 S
C105 C103 1.350 1_455 S
C105 N104 1.374 1_455 S
C105 H119 0.931 . S
C106 O109 1.256 . S
C106 O110 1.255 . S
O107 Co90 2.021 . S
O107 C100 1.259 . S
O108 Co92 2.117 . S
O108 C100 1.258 . S
O109 Co92 2.020 . S
O109 C106 1.256 . S
O110 Co90 2.062 . S
O110 C106 1.255 . S
O111 C91 1.259 . S
O111 Co92 2.021 . S
H112 C103 0.930 . S
H113 C102 0.931 . S
O114 Co90 2.117 . S
O114 C91 1.258 . S
O115 Co90 2.020 . S
O115 C117 1.256 . S
O116 Co92 2.062 . S
O116 C117 1.255 . S
C117 O115 1.256 . S
C117 O116 1.255 . S
H118 C97 0.931 . S
H119 C105 0.931 . S
C120 C121 1.170 . S
C120 C122 1.380 . S
C121 C120 1.170 . S
C122 C120 1.380 . S
C122 C123 1.170 . S
C123 C122 1.170 . S
C124 C125 1.170 . S
C124 C126 1.380 . S
C125 C124 1.170 . S
C126 C124 1.380 . S
C126 C127 1.170 . S
C127 C126 1.170 . S
C128 C129 1.170 . S
C128 C130 1.380 1_445 S
C129 C128 1.170 . S
C130 C128 1.380 1_665 S
C130 C131 1.170 . S
C131 C130 1.170 . S
C132 C133 1.170 . S
C132 C134 1.380 1_645 S
C133 C132 1.170 . S
C134 C132 1.380 1_465 S
C134 C135 1.170 . S
C135 C134 1.170 . S
C136 C137 1.170 . S
C136 C138 1.380 . S
C137 C136 1.170 . S
C138 C136 1.380 . S
C138 C139 1.170 . S
C139 C138 1.170 . S
C140 C141 1.170 . S
C140 C142 1.380 . S
C141 C140 1.170 . S
C142 C140 1.380 . S
C142 C143 1.170 . S
C143 C142 1.170 . S
C144 C145 1.170 . S
C144 C146 1.380 . S
C145 C144 1.170 . S
C146 C144 1.380 . S
C146 C147 1.170 . S
C147 C146 1.170 . S
C148 C149 1.170 . S
C148 C150 1.380 . S
C149 C148 1.170 . S
C150 C148 1.380 . S
C150 C151 1.170 . S
C151 C150 1.170 . S
C152 C153 1.170 . S
C152 C154 1.380 . S
C153 C152 1.170 . S
C154 C152 1.380 . S
C154 C155 1.170 . S
C155 C154 1.170 . S
C156 C157 1.170 . S
C156 C158 1.380 . S
C157 C156 1.170 . S
C158 C156 1.380 . S
C158 C159 1.170 . S
C159 C158 1.170 . S
C160 C161 1.170 . S
C160 C162 1.380 . S
C161 C160 1.170 . S
C162 C160 1.380 . S
C162 C163 1.170 . S
C163 C162 1.170 . S
C164 C165 1.170 . S
C164 C166 1.380 . S
C165 C164 1.170 . S
C166 C164 1.380 . S
C166 C167 1.170 . S
C167 C166 1.170 . S
C121 C31 1.702 1_556 S
C123 C10 1.710 . S
C125 C70 1.705 . S
C127 C91 1.707 . S
C129 C1 1.704 1_556 S
C131 C40 1.709 . S
C133 C100 1.690 . S
C135 C61 1.715 . S
C137 C117 1.147 . S
C139 N14 1.115 . S
C141 C57 1.155 . S
C143 N74 1.130 . S
C145 N36 1.141 . S
C147 C76 1.144 . S
C149 N96 1.090 . S
C151 C16 1.170 . S
C153 N44 1.144 1_455 S
C155 C87 1.173 . S
C157 N104 1.092 1_455 S
C159 C27 1.137 . S
C161 C106 1.145 . S
C163 N6 1.147 1_655 S
C165 N66 1.145 1_655 S
C167 C46 1.147 . S
