# Generated by pormake.
# Topology hex, (8)-cn, num edge types: 1
# Building blocks:
#     Node 0, Type 0, BuildingBlock: EYACOX_clean_sbu_0, # of connection points: 8
#     Edge 1, Type (0, 0), BuildingBlock: UVAHIK_clean_linker_0, # of connection points: 2
#     Edge 2, Type (0, 0), BuildingBlock: UVAHIK_clean_linker_0, # of connection points: 2
#     Edge 3, Type (0, 0), BuildingBlock: UVAHIK_clean_linker_0, # of connection points: 2
#     Edge 4, Type (0, 0), BuildingBlock: UVAHIK_clean_linker_0, # of connection points: 2
# Relax obj value: 0.029
# Max RMSD: 0.070
# Mean RMSD: 0.070
data_MOF--net-hex--node1-EYACOX_clean_sbu_0--edge1-UVAHIK_clean_linker_0
_symmetry_space_group_name_H-M    P1
_symmetry_Int_Tables_number       1
_symmetry_cell_setting            triclinic
loop_
_symmetry_equiv_pos_as_xyz
'x, y, z'
_cell_length_a     28.625276
_cell_length_b     27.644811
_cell_length_c     19.893366
_cell_angle_alpha  114.73021
_cell_angle_beta   70.898012
_cell_angle_gamma 139.71722
loop_
_atom_site_label
_atom_site_type_symbol
_atom_site_fract_x
_atom_site_fract_y
_atom_site_fract_z
_atom_type_partial_charge
Eu0 Eu 0.06517 0.92657 0.95757 0.0
Eu1 Eu 0.99629 -0.00406 0.02716 0.0
O2 O 0.16012 -0.04837 0.94407 0.0
O3 O 0.05957 0.83603 0.89271 0.0
O4 O 0.03424 0.00847 0.9116 0.0
O5 O 0.03259 0.91544 0.85896 0.0
O6 O 0.94936 0.83071 0.98936 0.0
O7 O 0.91286 0.87064 0.9632 0.0
C8 C 0.13688 0.84722 0.93609 0.0
C9 C 0.16122 0.79054 0.99225 0.0
C10 C 0.09068 0.74509 0.97735 0.0
C11 C 0.07825 0.77328 0.9493 0.0
C12 C 0.22013 0.86218 0.97644 0.0
C13 C 0.20806 0.89053 0.94793 0.0
C14 C 0.12536 0.87981 0.90902 0.0
C15 C 0.03334 -0.03821 0.85336 0.0
O16 O 0.90192 -0.02606 0.06732 0.0
O17 O 1.00668 0.08945 0.06075 0.0
C18 C 0.89778 0.81728 0.97642 0.0
O19 O 0.98751 -0.03578 0.12118 0.0
O20 O 0.06731 -0.04393 0.08108 0.0
O21 O 0.11093 0.09294 0.06473 0.0
O22 O 0.15152 0.05289 0.96306 0.0
C23 C 0.90469 0.0493 0.03343 0.0
C24 C 0.79933 -0.00302 0.98927 0.0
C25 C 0.82904 -0.00921 0.025 0.0
C26 C 0.84522 0.06155 0.96255 0.0
C27 C 0.91949 0.12214 0.97451 0.0
C28 C 0.94923 0.11588 0.00966 0.0
C29 C 0.93722 0.04357 0.07034 0.0
C30 C 0.02644 -0.0406 0.13273 0.0
C31 C 0.16371 0.10678 0.02143 0.0
H32 H 0.17085 0.76712 0.01114 0.0
H33 H 0.02347 0.73739 0.93727 0.0
H34 H 0.2538 -0.05412 0.93491 0.0
H35 H 0.79342 0.94153 0.04703 0.0
H36 H 0.82192 0.06842 0.9388 0.0
H37 H 1.00678 0.16387 0.01997 0.0
C38 C 0.95473 0.19662 0.89582 0.0
C39 C 0.96107 0.19636 0.9627 0.0
C40 C 0.97054 0.25749 0.89268 0.0
C41 C 0.04547 0.45205 -0.00013 0.0
H42 H 0.89393 0.37539 0.90268 0.0
C43 C 0.02478 0.65086 0.04736 0.0
C44 C 0.03412 0.6642 0.98112 0.0
C45 C 1.0021 0.58435 0.04559 0.0
C46 C 0.93642 0.39738 0.93003 0.0
H47 H 0.99518 0.26222 0.07656 0.0
H48 H 0.02273 0.36836 0.07152 0.0
H49 H 0.89716 0.28675 0.89236 0.0
H50 H 0.01766 0.61457 0.86284 0.0
H51 H 0.97641 0.49717 0.85976 0.0
H52 H 0.08392 0.56227 0.03849 0.0
C53 C 1.00604 0.32222 0.0212 0.0
C54 C 0.93899 0.34707 0.92344 0.0
C55 C 0.99073 0.26161 0.02411 0.0
C56 C 1.0101 0.60497 0.91464 0.0
C57 C 0.98722 0.53819 0.91284 0.0
C58 C 0.04242 0.50196 0.00703 0.0
C59 C 0.99248 0.31877 0.95655 0.0
C60 C 0.99346 0.37382 0.95853 0.0
C61 C 0.98819 0.53035 0.97761 0.0
C62 C 0.98761 0.47502 0.97266 0.0
H63 H 0.93198 0.14675 0.84774 0.0
H64 H 0.96155 0.25426 0.84146 0.0
H65 H 0.08869 0.47485 0.02666 0.0
H66 H 0.04335 0.69611 0.09915 0.0
H67 H 1.00172 0.57865 0.09649 0.0
C68 C 0.68898 0.9149 0.92273 0.0
C69 C 0.72099 -0.05439 0.98915 0.0
C70 C 0.62789 0.89664 0.92388 0.0
C71 C 0.55059 -0.03436 0.04648 0.0
H72 H 0.40725 0.8171 0.89303 0.0
C73 C 0.31431 0.91774 0.05043 0.0
C74 C 0.2929 0.90004 0.9825 0.0
C75 C 0.36995 0.92838 0.053 0.0
C76 C 0.44763 0.8596 0.93572 0.0
H77 H 0.70967 -0.02737 0.10844 0.0
H78 H 0.60087 0.93752 0.11072 0.0
H79 H 0.48551 0.80906 0.89659 0.0
H80 H 0.31522 0.88412 0.86473 0.0
H81 H 0.41358 0.9039 0.86909 0.0
H82 H 0.51223 0.01579 0.08575 0.0
C83 C 0.62428 0.92991 0.05769 0.0
C84 C 0.49218 0.85467 0.93806 0.0
C85 C 0.68566 -0.05157 0.05646 0.0
C86 C 0.33165 0.89902 0.91788 0.0
C87 C 0.38695 0.90895 0.9203 0.0
C88 C 0.50571 -0.02978 0.0444 0.0
C89 C 0.59737 0.90837 0.99159 0.0
C90 C 0.54463 0.90796 -0.00682 0.0
C91 C 0.40466 0.92061 0.98749 0.0
C92 C 0.45415 0.91769 0.98862 0.0
H93 H 0.71572 0.91293 0.87016 0.0
H94 H 0.6089 0.88022 0.87184 0.0
H95 H 0.59145 0.00891 0.08872 0.0
H96 H 0.2843 0.9175 0.10076 0.0
H97 H 0.38211 0.93706 0.10556 0.0
C98 C 0.25331 0.25115 0.06997 0.0
C99 C 0.23819 0.18453 0.03653 0.0
C100 C 0.32483 0.32497 0.07722 0.0
C101 C 0.5123 0.43389 0.0803 0.0
H102 H 0.55556 0.55105 0.96882 0.0
C103 C 0.80167 0.68117 0.98629 0.0
C104 C 0.82173 0.74569 0.98551 0.0
C105 C 0.72988 0.61553 -3e-05 0.0
C106 C 0.54453 0.52014 0.00153 0.0
H107 H 0.28465 0.14174 0.98892 0.0
H108 H 0.40958 0.27079 0.00312 0.0
H109 H 0.4304 0.43406 0.98874 0.0
H110 H 0.78306 0.79299 -0.00063 0.0
H111 H 0.65893 0.6801 0.02549 0.0
H112 H 0.62619 0.51981 0.0936 0.0
C113 C 0.36643 0.26601 0.0229 0.0
C114 C 0.47286 0.45323 0.01286 0.0
C115 C 0.29518 0.19246 0.0142 0.0
C116 C 0.769 0.74358 -0.00151 0.0
C117 C 0.69768 0.67871 0.01337 0.0
C118 C 0.58407 0.50162 0.07009 0.0
C119 C 0.38166 0.33263 0.05281 0.0
C120 C 0.45641 0.40895 0.05105 0.0
C121 C 0.67722 0.61391 0.01431 0.0
C122 C 0.60102 0.54464 0.02928 0.0
H123 H 0.21001 0.24616 0.08755 0.0
H124 H 0.3358 0.37596 0.10035 0.0
H125 H 0.50042 0.40028 0.11003 0.0
H126 H 0.84137 0.6814 0.97638 0.0
H127 H 0.71565 0.56597 -0.00119 0.0
C128 C 0.04624 0.92531 0.71546 0.0
C129 C 0.03199 -0.03914 0.77926 0.0
C130 C 0.04451 0.92434 0.64551 0.0
C131 C 0.05161 0.02165 0.55284 0.0
H132 H 0.97446 0.83931 0.38699 0.0
C133 C 0.99718 -0.0199 0.26838 0.0
C134 C 0.02434 -0.04254 0.20678 0.0
C135 C 0.99651 -0.02059 0.33851 0.0
C136 C 0.99648 0.89071 0.4328 0.0
H137 H 1.00358 0.02218 0.81978 0.0
H138 H 0.99878 0.0187 0.69797 0.0
H139 H 0.97616 0.8401 0.50926 0.0
H140 H 0.07082 0.91494 0.17012 0.0
H141 H 0.06892 0.91316 0.2925 0.0
H142 H 0.07074 0.07154 0.4762 0.0
C143 C 1.01314 -0.00667 0.70183 0.0
C144 C 0.99779 0.89141 0.50275 0.0
C145 C 0.01557 -0.00502 0.77171 0.0
C146 C 0.04987 0.93313 0.21654 0.0
C147 C 0.04837 0.93156 0.28644 0.0
C148 C 0.04959 0.02059 0.48305 0.0
C149 C 0.02778 -0.04181 0.63786 0.0
C150 C 0.02568 -0.04296 0.56356 0.0
C151 C 0.02208 -0.04489 0.34809 0.0
C152 C 0.02234 -0.04471 0.42238 0.0
H153 H 0.05943 0.89889 0.71949 0.0
H154 H 0.05721 0.89788 0.59752 0.0
H155 H 0.07461 0.07367 0.59809 0.0
H156 H 0.9772 -0.0008 0.26266 0.0
H157 H 0.97547 -0.00269 0.38518 0.0
loop_
_geom_bond_atom_site_label_1
_geom_bond_atom_site_label_2
_geom_bond_distance
_geom_bond_site_symmetry_2
_ccdc_geom_bond_type
Eu0 O2 2.472 . S
Eu0 O3 2.507 1_455 S
Eu0 O5 2.336 1_455 S
Eu0 O6 2.389 1_455 S
Eu0 C14 2.835 . S
Eu0 O20 2.396 1_556 S
Eu0 O22 2.323 1_565 S
Eu1 O4 2.396 1_654 S
Eu1 O7 2.323 1_545 S
Eu1 O16 2.472 . S
Eu1 O17 2.507 1_655 S
Eu1 O19 2.336 1_655 S
Eu1 O21 2.389 1_655 S
Eu1 C29 2.835 . S
O2 Eu0 2.472 . S
O2 C14 1.258 . S
O3 Eu0 2.507 1_655 S
O3 C14 1.246 1_655 S
O4 Eu1 2.396 1_456 S
O4 C15 1.217 1_445 S
O5 Eu0 2.336 1_655 S
O5 C15 1.279 . S
O6 Eu0 2.389 1_655 S
O6 C18 1.238 . S
O7 Eu1 2.323 1_565 S
O7 C18 1.249 1_554 S
C8 C11 1.390 . S
C8 C13 1.370 . S
C8 C14 1.489 . S
C9 C10 1.345 . S
C9 C12 1.413 . S
C9 H32 0.931 . S
C10 C9 1.345 . S
C10 C11 1.417 1_554 S
C11 C8 1.390 . S
C11 C10 1.417 1_556 S
C11 H33 0.930 1_455 S
C12 C9 1.413 . S
C12 C13 1.396 1_554 S
C13 C8 1.370 . S
C13 C12 1.396 1_556 S
C13 H34 0.932 1_565 S
C14 Eu0 2.835 . S
C14 O2 1.258 . S
C14 O3 1.246 1_455 S
C14 C8 1.489 . S
C15 O4 1.217 1_665 S
C15 O5 1.279 . S
O16 Eu1 2.472 . S
O16 C29 1.258 . S
O17 Eu1 2.507 1_455 S
O17 C29 1.246 1_455 S
C18 O6 1.238 . S
C18 O7 1.249 1_556 S
O19 Eu1 2.336 1_455 S
O19 C30 1.279 . S
O20 Eu0 2.396 1_554 S
O20 C30 1.217 1_565 S
O21 Eu1 2.389 1_455 S
O21 C31 1.238 . S
O22 Eu0 2.323 1_545 S
O22 C31 1.249 1_556 S
C23 C25 1.370 . S
C23 C28 1.390 . S
C23 C29 1.489 . S
C24 C25 1.396 . S
C24 C26 1.413 1_554 S
C25 C23 1.370 . S
C25 C24 1.396 . S
C25 H35 0.932 1_545 S
C26 C24 1.413 1_556 S
C26 C27 1.345 . S
C26 H36 0.931 . S
C27 C26 1.345 . S
C27 C28 1.419 1_556 S
C28 C23 1.390 . S
C28 C27 1.419 1_554 S
C28 H37 0.930 1_655 S
C29 Eu1 2.835 . S
C29 O16 1.258 . S
C29 O17 1.246 1_655 S
C29 C23 1.489 . S
C30 O19 1.279 . S
C30 O20 1.217 1_545 S
C31 O21 1.238 . S
C31 O22 1.249 1_554 S
H32 C9 0.931 . S
H33 C11 0.930 1_655 S
H34 C13 0.932 1_545 S
H35 C25 0.932 1_565 S
H36 C26 0.931 . S
H37 C28 0.930 1_455 S
C38 C39 1.349 . S
C38 C40 1.327 . S
C38 H63 0.950 . S
C39 C38 1.349 . S
C39 C55 1.348 1_656 S
C40 C38 1.327 . S
C40 C59 1.431 . S
C40 H64 0.950 . S
C41 C58 1.574 . S
C41 C60 1.368 1_454 S
C41 H65 0.949 . S
H42 C46 0.949 . S
C43 C44 1.349 . S
C43 C45 1.327 . S
C43 H66 0.950 . S
C44 C43 1.349 . S
C44 C56 1.348 1_454 S
C45 C43 1.327 . S
C45 C61 1.433 . S
C45 H67 0.950 . S
C46 H42 0.949 . S
C46 C54 1.574 . S
C46 C62 1.366 1_656 S
H47 C55 0.969 . S
H48 C53 0.950 . S
H49 C54 0.949 . S
H50 C56 0.964 . S
H51 C57 0.950 . S
H52 C58 0.949 . S
C53 H48 0.950 . S
C53 C55 1.310 . S
C53 C59 1.422 1_454 S
C54 C46 1.574 . S
C54 H49 0.949 . S
C54 C60 1.370 . S
C55 C39 1.348 1_454 S
C55 H47 0.969 . S
C55 C53 1.310 . S
C56 C44 1.348 1_656 S
C56 H50 0.964 . S
C56 C57 1.314 . S
C57 H51 0.950 . S
C57 C56 1.314 . S
C57 C61 1.419 1_656 S
C58 C41 1.574 . S
C58 H52 0.949 . S
C58 C62 1.373 . S
C59 C40 1.431 . S
C59 C53 1.422 1_656 S
C59 C60 1.525 . S
C60 C41 1.368 1_656 S
C60 C54 1.370 . S
C60 C59 1.525 . S
C61 C45 1.433 . S
C61 C57 1.419 1_454 S
C61 C62 1.525 . S
C62 C46 1.366 1_454 S
C62 C58 1.373 . S
C62 C61 1.525 . S
H63 C38 0.950 . S
H64 C40 0.950 . S
H65 C41 0.949 . S
H66 C43 0.950 . S
H67 C45 0.950 . S
C68 C69 1.343 1_566 S
C68 C70 1.327 . S
C68 H93 0.950 . S
C69 C68 1.343 1_544 S
C69 C85 1.353 . S
C70 C68 1.327 . S
C70 C89 1.427 1_566 S
C70 H94 0.950 . S
C71 C88 1.574 . S
C71 C90 1.369 . S
C71 H95 0.949 . S
H72 C76 0.949 . S
C73 C74 1.346 1_544 S
C73 C75 1.327 . S
C73 H96 0.950 . S
C74 C73 1.346 1_566 S
C74 C86 1.351 . S
C75 C73 1.327 . S
C75 C91 1.428 1_544 S
C75 H97 0.950 . S
C76 H72 0.949 . S
C76 C84 1.574 . S
C76 C92 1.369 1_556 S
H77 C85 0.950 . S
H78 C83 0.950 . S
H79 C84 0.949 . S
H80 C86 0.950 . S
H81 C87 0.950 . S
H82 C88 0.949 . S
C83 H78 0.950 . S
C83 C85 1.327 . S
C83 C89 1.432 . S
C84 C76 1.574 . S
C84 H79 0.949 . S
C84 C90 1.367 1_566 S
C85 C69 1.353 . S
C85 H77 0.950 . S
C85 C83 1.327 . S
C86 C74 1.351 . S
C86 H80 0.950 . S
C86 C87 1.327 . S
C87 H81 0.950 . S
C87 C86 1.327 . S
C87 C91 1.429 . S
C88 C71 1.574 . S
C88 H82 0.949 . S
C88 C92 1.367 1_545 S
C89 C70 1.427 1_544 S
C89 C83 1.432 . S
C89 C90 1.522 . S
C90 C71 1.369 . S
C90 C84 1.367 1_544 S
C90 C89 1.522 . S
C91 C75 1.428 1_566 S
C91 C87 1.429 . S
C91 C92 1.523 1_556 S
C92 C76 1.369 1_554 S
C92 C88 1.367 1_565 S
C92 C91 1.523 1_554 S
H93 C68 0.950 . S
H94 C70 0.950 . S
H95 C71 0.949 . S
H96 C73 0.950 . S
H97 C75 0.950 . S
C98 C99 1.351 1_556 S
C98 C100 1.327 . S
C98 H123 0.950 . S
C99 C98 1.351 1_554 S
C99 C115 1.347 . S
C100 C98 1.327 . S
C100 C119 1.429 1_556 S
C100 H124 0.950 . S
C101 C118 1.574 . S
C101 C120 1.368 . S
C101 H125 0.949 . S
H102 C106 0.949 . S
C103 C104 1.351 . S
C103 C105 1.327 . S
C103 H126 0.950 . S
C104 C103 1.351 . S
C104 C116 1.347 1_554 S
C105 C103 1.327 . S
C105 C121 1.429 . S
C105 H127 0.950 . S
C106 H102 0.949 . S
C106 C114 1.574 . S
C106 C122 1.368 1_556 S
H107 C115 0.950 . S
H108 C113 0.950 . S
H109 C114 0.949 . S
H110 C116 0.950 . S
H111 C117 0.950 . S
H112 C118 0.949 . S
C113 H108 0.950 . S
C113 C115 1.327 . S
C113 C119 1.428 . S
C114 C106 1.574 . S
C114 H109 0.949 . S
C114 C120 1.369 1_556 S
C115 C99 1.347 . S
C115 H107 0.950 . S
C115 C113 1.327 . S
C116 C104 1.347 1_556 S
C116 H110 0.950 . S
C116 C117 1.327 . S
C117 H111 0.950 . S
C117 C116 1.327 . S
C117 C121 1.428 1_556 S
C118 C101 1.574 . S
C118 H112 0.949 . S
C118 C122 1.369 . S
C119 C100 1.429 1_554 S
C119 C113 1.428 . S
C119 C120 1.523 . S
C120 C101 1.368 . S
C120 C114 1.369 1_554 S
C120 C119 1.523 . S
C121 C105 1.429 . S
C121 C117 1.428 1_554 S
C121 C122 1.523 . S
C122 C106 1.368 1_554 S
C122 C118 1.369 . S
C122 C121 1.523 . S
H123 C98 0.950 . S
H124 C100 0.950 . S
H125 C101 0.949 . S
H126 C103 0.950 . S
H127 C105 0.950 . S
C128 C129 1.346 1_665 S
C128 C130 1.327 . S
C128 H153 0.950 . S
C129 C128 1.346 1_445 S
C129 C145 1.354 . S
C130 C128 1.327 . S
C130 C149 1.426 1_665 S
C130 H154 0.950 . S
C131 C148 1.574 . S
C131 C150 1.369 . S
C131 H155 0.949 . S
H132 C136 0.949 . S
C133 C134 1.349 1_445 S
C133 C135 1.327 . S
C133 H156 0.950 . S
C134 C133 1.349 1_665 S
C134 C146 1.351 . S
C135 C133 1.327 . S
C135 C151 1.429 1_445 S
C135 H157 0.950 . S
C136 H132 0.949 . S
C136 C144 1.574 . S
C136 C152 1.369 1_665 S
H137 C145 0.950 . S
H138 C143 0.950 . S
H139 C144 0.949 . S
H140 C146 0.950 . S
H141 C147 0.950 . S
H142 C148 0.949 . S
C143 H138 0.950 . S
C143 C145 1.327 . S
C143 C149 1.430 . S
C144 C136 1.574 . S
C144 H139 0.949 . S
C144 C150 1.368 1_665 S
C145 C129 1.354 . S
C145 H137 0.950 . S
C145 C143 1.327 . S
C146 C134 1.351 . S
C146 H140 0.950 . S
C146 C147 1.327 . S
C147 H141 0.950 . S
C147 C146 1.327 . S
C147 C151 1.427 . S
C148 C131 1.574 . S
C148 H142 0.949 . S
C148 C152 1.368 . S
C149 C130 1.426 1_445 S
C149 C143 1.430 . S
C149 C150 1.524 . S
C150 C131 1.369 . S
C150 C144 1.368 1_445 S
C150 C149 1.524 . S
C151 C135 1.429 1_665 S
C151 C147 1.427 . S
C151 C152 1.523 1_665 S
C152 C136 1.369 1_445 S
C152 C148 1.368 . S
C152 C151 1.523 1_445 S
H153 C128 0.950 . S
H154 C130 0.950 . S
H155 C131 0.949 . S
H156 C133 0.950 . S
H157 C135 0.950 . S
C39 C27 1.126 . S
C44 C10 1.128 . S
C69 C24 2.256 . S
C74 C12 2.255 1_556 S
C99 C31 0.574 . S
C104 C18 0.573 1_554 S
C129 C15 1.490 1_445 S
C134 C30 1.491 1_665 S
