# Generated by pormake.
# Topology uof, (4)-cn, num edge types: 1
# Building blocks:
#     Node 0, Type 0, BuildingBlock: AZAVOO_clean_sbu_0, # of connection points: 4
#     Node 1, Type 0, BuildingBlock: AZAVOO_clean_sbu_0, # of connection points: 4
#     Node 2, Type 0, BuildingBlock: AZAVOO_clean_sbu_0, # of connection points: 4
#     Node 3, Type 0, BuildingBlock: AZAVOO_clean_sbu_0, # of connection points: 4
#     Node 4, Type 0, BuildingBlock: AZAVOO_clean_sbu_0, # of connection points: 4
#     Node 5, Type 0, BuildingBlock: AZAVOO_clean_sbu_0, # of connection points: 4
#     Node 6, Type 0, BuildingBlock: AZAVOO_clean_sbu_0, # of connection points: 4
#     Node 7, Type 0, BuildingBlock: AZAVOO_clean_sbu_0, # of connection points: 4
#     Node 8, Type 0, BuildingBlock: AZAVOO_clean_sbu_0, # of connection points: 4
#     Node 9, Type 0, BuildingBlock: AZAVOO_clean_sbu_0, # of connection points: 4
#     Node 10, Type 0, BuildingBlock: AZAVOO_clean_sbu_0, # of connection points: 4
#     Node 11, Type 0, BuildingBlock: AZAVOO_clean_sbu_0, # of connection points: 4
#     Edge 12, Type (0, 0), None
#     Edge 13, Type (0, 0), None
#     Edge 14, Type (0, 0), None
#     Edge 15, Type (0, 0), None
#     Edge 16, Type (0, 0), None
#     Edge 17, Type (0, 0), None
#     Edge 18, Type (0, 0), None
#     Edge 19, Type (0, 0), None
#     Edge 20, Type (0, 0), None
#     Edge 21, Type (0, 0), None
#     Edge 22, Type (0, 0), None
#     Edge 23, Type (0, 0), None
#     Edge 24, Type (0, 0), None
#     Edge 25, Type (0, 0), None
#     Edge 26, Type (0, 0), None
#     Edge 27, Type (0, 0), None
#     Edge 28, Type (0, 0), None
#     Edge 29, Type (0, 0), None
#     Edge 30, Type (0, 0), None
#     Edge 31, Type (0, 0), None
#     Edge 32, Type (0, 0), None
#     Edge 33, Type (0, 0), None
#     Edge 34, Type (0, 0), None
#     Edge 35, Type (0, 0), None
# Relax obj value: 0.224
# Max RMSD: 0.199
# Mean RMSD: 0.199
data_MOF--net-uof--node1-AZAVOO_clean_sbu_0--edge1-none
_symmetry_space_group_name_H-M    P1
_symmetry_Int_Tables_number       1
_symmetry_cell_setting            triclinic
loop_
_symmetry_equiv_pos_as_xyz
'x, y, z'
_cell_length_a     14.671832
_cell_length_b     14.672128
_cell_length_c     29.357949
_cell_angle_alpha  89.998409
_cell_angle_beta   90.001673
_cell_angle_gamma 120.00192
loop_
_atom_site_label
_atom_site_type_symbol
_atom_site_fract_x
_atom_site_fract_y
_atom_site_fract_z
_atom_type_partial_charge
Mg0 Mg 0.24428 0.34333 0.21342 0.0
O1 O 0.2664 0.21501 0.18116 0.0
O2 O 0.41347 0.22603 0.20958 0.0
Mg3 Mg 0.46443 0.33582 0.27088 0.0
C4 C 0.33697 0.1886 0.18152 0.0
C5 C 0.07456 0.32149 0.14171 0.0
O6 O 0.15618 0.40624 0.12529 0.0
O7 O 0.17118 0.24746 0.27805 0.0
O8 O 0.30975 0.24416 0.30876 0.0
O9 O 0.37359 0.45648 0.16498 0.0
O10 O 0.39535 0.41672 0.23535 0.0
C11 C 0.21336 0.22015 0.3094 0.0
C12 C 0.43545 0.46302 0.19783 0.0
O13 O 0.08531 0.27788 0.17714 0.0
Mg14 Mg 0.89578 0.24685 0.54675 0.0
O15 O 0.04622 0.26898 0.51448 0.0
O16 O 0.18228 0.41603 0.54291 0.0
Mg17 Mg 0.12346 0.467 0.6042 0.0
C18 C 0.1432 0.33953 0.51484 0.0
C19 C 0.74793 0.07714 0.47503 0.0
O20 O 0.74484 0.15877 0.45859 0.0
O21 O 0.91856 0.17376 0.61138 0.0
O22 O 0.06043 0.31232 0.64208 0.0
O23 O 0.91194 0.37617 0.49831 0.0
O24 O 0.97346 0.39792 0.56868 0.0
C25 C 0.98805 0.21593 0.64272 0.0
C26 C 0.96726 0.43802 0.53116 0.0
O27 O 0.80225 0.08789 0.51047 0.0
Mg28 Mg 0.64381 0.89834 0.88009 0.0
O29 O 0.77214 0.04879 0.84782 0.0
O30 O 0.76113 0.18484 0.87624 0.0
Mg31 Mg 0.65133 0.12601 0.93754 0.0
C32 C 0.79855 0.14576 0.84818 0.0
C33 C 0.66567 0.75049 0.80838 0.0
O34 O 0.58094 0.74739 0.79194 0.0
O35 O 0.73969 0.92113 0.94472 0.0
O36 O 0.74299 0.06299 0.97542 0.0
O37 O 0.53066 0.9145 0.83164 0.0
O38 O 0.57042 0.97602 0.90202 0.0
C39 C 0.767 0.99062 0.97606 0.0
C40 C 0.52413 0.96983 0.8645 0.0
O41 O 0.70925 0.80482 0.84381 0.0
Mg42 Mg 0.74034 0.6464 0.21343 0.0
O43 O 0.7182 0.77472 0.18116 0.0
O44 O 0.57113 0.76368 0.20958 0.0
Mg45 Mg 0.52016 0.65389 0.27087 0.0
C46 C 0.64764 0.80112 0.18152 0.0
C47 C 0.91003 0.66829 0.1417 0.0
O48 O 0.82837 0.58359 0.12525 0.0
O49 O 0.81343 0.74228 0.27805 0.0
O50 O 0.67485 0.74556 0.30875 0.0
O51 O 0.61104 0.53325 0.16498 0.0
O52 O 0.58926 0.57299 0.23535 0.0
C53 C 0.77124 0.76958 0.3094 0.0
C54 C 0.54917 0.52669 0.19783 0.0
O55 O 0.8993 0.71185 0.17715 0.0
Mg56 Mg 0.08879 0.74291 0.54676 0.0
O57 O 0.93833 0.72078 0.5145 0.0
O58 O 0.80228 0.57371 0.54291 0.0
Mg59 Mg 0.86111 0.52273 0.60421 0.0
C60 C 0.84136 0.65022 0.51485 0.0
C61 C 0.23665 0.91263 0.47505 0.0
O62 O 0.23975 0.831 0.45862 0.0
O63 O 0.06601 0.81598 0.61139 0.0
O64 O 0.92414 0.6774 0.64209 0.0
O65 O 0.07263 0.61361 0.49831 0.0
O66 O 0.01111 0.59183 0.56869 0.0
C67 C -0.00348 0.7738 0.64274 0.0
C68 C 0.01731 0.55174 0.53117 0.0
O69 O 0.18231 0.90188 0.51049 0.0
Mg70 Mg 0.34078 0.09137 0.88008 0.0
O71 O 0.21244 0.94091 0.84783 0.0
O72 O 0.22346 0.80487 0.87625 0.0
Mg73 Mg 0.33327 0.86371 0.93755 0.0
C74 C 0.18603 0.84394 0.84819 0.0
C75 C 0.31889 0.23918 0.80836 0.0
O76 O 0.40359 0.24224 0.79191 0.0
O77 O 0.24492 0.0686 0.94471 0.0
O78 O 0.24162 0.92674 0.97542 0.0
O79 O 0.45391 0.07519 0.83163 0.0
O80 O 0.41418 0.01369 0.90201 0.0
C81 C 0.21761 -0.00088 0.97606 0.0
C82 C 0.46047 0.01989 0.86449 0.0
O83 O 0.27533 0.18488 0.8438 0.0
Mg84 Mg 0.65639 0.75361 0.42184 0.0
O85 O 0.76013 0.72032 0.46928 0.0
O86 O 0.76033 0.57484 0.44572 0.0
Mg87 Mg 0.72506 0.56947 0.36995 0.0
C88 C 0.77925 0.64555 0.47556 0.0
C89 C 0.69861 0.97729 0.44978 0.0
O90 O 0.66649 0.97418 0.40776 0.0
O91 O 0.79675 0.86283 0.37575 0.0
O92 O 0.84351 0.74589 0.37436 0.0
O93 O 0.51569 0.60946 0.45163 0.0
O94 O 0.59615 0.6013 0.38957 0.0
C95 C 0.82731 0.81056 0.35224 0.0
C96 C 0.52476 0.55296 0.42006 0.0
O97 O 0.69683 0.89658 0.46659 0.0
Mg98 Mg 0.89765 0.65894 0.75518 0.0
O99 O 0.03469 0.76269 0.80262 0.0
O100 O 0.18038 0.76291 0.77905 0.0
Mg101 Mg 0.15047 0.72763 0.70329 0.0
C102 C 0.12859 0.78182 0.80889 0.0
C103 C 0.7162 0.70117 0.78312 0.0
O104 O 0.68719 0.66905 0.74111 0.0
O105 O 0.92877 0.79929 0.7091 0.0
O106 O 0.09249 0.84607 0.7077 0.0
O107 O 0.90112 0.51825 0.78497 0.0
O108 O 0.98972 0.59871 0.72291 0.0
C109 C 0.01161 0.82986 0.68558 0.0
C110 C 0.96669 0.52733 0.7534 0.0
O111 O 0.79512 0.69938 0.79993 0.0
Mg112 Mg 0.23358 0.90025 0.0885 0.0
O113 O 0.26688 0.03727 0.13595 0.0
O114 O 0.41236 0.18297 0.11238 0.0
Mg115 Mg 0.41773 0.15307 0.03662 0.0
C116 C 0.34164 0.13117 0.14222 0.0
C117 C 0.00987 0.71882 0.11644 0.0
O118 O 0.01296 0.68984 0.07442 0.0
O119 O 0.12435 0.93139 0.04242 0.0
O120 O 0.24131 0.09509 0.04102 0.0
O121 O 0.37773 0.9037 0.11829 0.0
O122 O 0.38588 0.99232 0.05624 0.0
C123 C 0.17664 0.01422 0.0189 0.0
C124 C 0.43423 0.96927 0.08673 0.0
O125 O 0.09061 0.79772 0.13325 0.0
Mg126 Mg 0.3282 0.23616 0.42185 0.0
O127 O 0.22444 0.26944 0.46928 0.0
O128 O 0.22421 0.4149 0.4457 0.0
Mg129 Mg 0.2595 0.42026 0.36994 0.0
C130 C 0.2053 0.3442 0.47554 0.0
C131 C 0.28597 0.01248 0.4498 0.0
O132 O 0.31809 0.01559 0.40778 0.0
O133 O 0.18784 0.12691 0.37576 0.0
O134 O 0.14107 0.24384 0.37435 0.0
O135 O 0.46888 0.38032 0.45164 0.0
O136 O 0.38842 0.38845 0.38957 0.0
C137 C 0.15728 0.17918 0.35224 0.0
C138 C 0.4598 0.43681 0.42007 0.0
O139 O 0.28776 0.0932 0.4666 0.0
Mg140 Mg 0.08692 0.33076 0.75517 0.0
O141 O 0.94989 0.22701 0.80261 0.0
O142 O 0.80419 0.22679 0.77904 0.0
Mg143 Mg 0.83409 0.26207 0.70328 0.0
C144 C 0.85599 0.20787 0.80888 0.0
C145 C 0.26835 0.28849 0.7831 0.0
O146 O 0.29733 0.32058 0.74108 0.0
O147 O 0.05579 0.19042 0.70908 0.0
O148 O 0.89208 0.14364 0.70768 0.0
O149 O 0.08345 0.47144 0.78497 0.0
O150 O -0.00516 0.39099 0.7229 0.0
C151 C 0.97296 0.15986 0.68557 0.0
C152 C 0.01787 0.46236 0.7534 0.0
O153 O 0.18945 0.29032 0.79992 0.0
Mg154 Mg 0.75103 0.08948 0.0885 0.0
O155 O 0.71773 0.95245 0.13595 0.0
O156 O 0.57225 0.80676 0.11238 0.0
Mg157 Mg 0.56688 0.83667 0.03661 0.0
C158 C 0.64296 0.85856 0.14222 0.0
C159 C 0.97471 0.27096 0.11646 0.0
O160 O 0.97159 0.3 0.07445 0.0
O161 O 0.86026 0.05836 0.04242 0.0
O162 O 0.74331 0.89465 0.04103 0.0
O163 O 0.60688 0.08602 0.11829 0.0
O164 O 0.59872 -0.00258 0.05623 0.0
C165 C 0.80798 0.97552 0.01891 0.0
C166 C 0.55038 0.02045 0.08673 0.0
O167 O 0.894 0.19201 0.13326 0.0
loop_
_geom_bond_atom_site_label_1
_geom_bond_atom_site_label_2
_geom_bond_distance
_geom_bond_site_symmetry_2
_ccdc_geom_bond_type
Mg0 O1 2.028 . S
Mg0 O7 1.986 . S
Mg0 O9 2.114 . S
Mg0 O10 2.251 . S
Mg0 O13 2.010 . S
O1 Mg0 2.028 . S
O1 C4 1.250 . S
O2 Mg3 2.028 . S
O2 C4 1.248 . S
Mg3 O2 2.028 . S
Mg3 O8 2.032 . S
Mg3 O10 2.079 . S
C4 O1 1.250 . S
C4 O2 1.248 . S
C5 O6 1.263 1_455 S
C5 O13 1.249 . S
O6 C5 1.263 1_655 S
O7 Mg0 1.986 . S
O7 C11 1.246 . S
O8 Mg3 2.032 . S
O8 C11 1.259 . S
O9 Mg0 2.114 . S
O9 C12 1.252 . S
O10 Mg0 2.251 . S
O10 Mg3 2.079 . S
O10 C12 1.273 . S
C11 O7 1.246 . S
C11 O8 1.259 . S
C12 O9 1.252 . S
C12 O10 1.273 . S
O13 Mg0 2.010 . S
O13 C5 1.249 . S
Mg14 O15 2.028 1_655 S
Mg14 O21 1.986 . S
Mg14 O23 2.114 . S
Mg14 O24 2.251 1_655 S
Mg14 O27 2.010 . S
O15 Mg14 2.028 1_455 S
O15 C18 1.250 . S
O16 Mg17 2.028 . S
O16 C18 1.248 . S
Mg17 O16 2.028 . S
Mg17 O22 2.032 . S
Mg17 O24 2.079 . S
C18 O15 1.250 . S
C18 O16 1.248 . S
C19 O20 1.264 1_545 S
C19 O27 1.249 . S
O20 C19 1.264 1_565 S
O21 Mg14 1.986 . S
O21 C25 1.246 1_655 S
O22 Mg17 2.032 . S
O22 C25 1.259 . S
O23 Mg14 2.114 . S
O23 C26 1.252 . S
O24 Mg14 2.251 1_455 S
O24 Mg17 2.079 . S
O24 C26 1.273 1_455 S
C25 O21 1.246 1_455 S
C25 O22 1.259 . S
C26 O23 1.252 . S
C26 O24 1.273 1_655 S
O27 Mg14 2.010 . S
O27 C19 1.249 . S
Mg28 O29 2.028 1_565 S
Mg28 O35 1.986 . S
Mg28 O37 2.114 . S
Mg28 O38 2.251 1_565 S
Mg28 O41 2.010 . S
O29 Mg28 2.028 1_545 S
O29 C32 1.250 . S
O30 Mg31 2.028 . S
O30 C32 1.248 . S
Mg31 O30 2.028 . S
Mg31 O36 2.032 . S
Mg31 O38 2.079 . S
C32 O29 1.250 . S
C32 O30 1.248 . S
C33 O34 1.264 . S
C33 O41 1.249 . S
O34 C33 1.264 . S
O35 Mg28 1.986 . S
O35 C39 1.246 1_565 S
O36 Mg31 2.032 . S
O36 C39 1.259 . S
O37 Mg28 2.114 . S
O37 C40 1.252 . S
O38 Mg28 2.251 1_545 S
O38 Mg31 2.079 . S
O38 C40 1.273 1_545 S
C39 O35 1.246 1_545 S
C39 O36 1.259 . S
C40 O37 1.252 . S
C40 O38 1.273 1_565 S
O41 Mg28 2.010 . S
O41 C33 1.249 . S
Mg42 O43 2.028 . S
Mg42 O49 1.986 . S
Mg42 O51 2.114 . S
Mg42 O52 2.251 . S
Mg42 O55 2.010 . S
O43 Mg42 2.028 . S
O43 C46 1.250 . S
O44 Mg45 2.028 . S
O44 C46 1.248 . S
Mg45 O44 2.028 . S
Mg45 O50 2.032 . S
Mg45 O52 2.079 . S
C46 O43 1.250 . S
C46 O44 1.248 . S
C47 O48 1.263 1_655 S
C47 O55 1.249 . S
O48 C47 1.263 1_455 S
O49 Mg42 1.986 . S
O49 C53 1.246 . S
O50 Mg45 2.032 . S
O50 C53 1.259 . S
O51 Mg42 2.114 . S
O51 C54 1.252 . S
O52 Mg42 2.251 . S
O52 Mg45 2.079 . S
O52 C54 1.273 . S
C53 O49 1.246 . S
C53 O50 1.259 . S
C54 O51 1.252 . S
C54 O52 1.273 . S
O55 Mg42 2.010 . S
O55 C47 1.249 . S
Mg56 O57 2.028 1_455 S
Mg56 O63 1.986 . S
Mg56 O65 2.114 . S
Mg56 O66 2.251 1_455 S
Mg56 O69 2.010 . S
O57 Mg56 2.028 1_655 S
O57 C60 1.250 . S
O58 Mg59 2.028 . S
O58 C60 1.248 . S
Mg59 O58 2.028 . S
Mg59 O64 2.032 . S
Mg59 O66 2.079 . S
C60 O57 1.250 . S
C60 O58 1.248 . S
C61 O62 1.264 1_565 S
C61 O69 1.249 . S
O62 C61 1.264 1_545 S
O63 Mg56 1.986 . S
O63 C67 1.246 1_455 S
O64 Mg59 2.032 . S
O64 C67 1.259 . S
O65 Mg56 2.114 . S
O65 C68 1.252 . S
O66 Mg56 2.251 1_655 S
O66 Mg59 2.079 . S
O66 C68 1.273 1_655 S
C67 O63 1.246 1_655 S
C67 O64 1.259 . S
C68 O65 1.252 . S
C68 O66 1.273 1_455 S
O69 Mg56 2.010 . S
O69 C61 1.249 . S
Mg70 O71 2.028 1_545 S
Mg70 O77 1.986 . S
Mg70 O79 2.114 . S
Mg70 O80 2.251 1_545 S
Mg70 O83 2.010 . S
O71 Mg70 2.028 1_565 S
O71 C74 1.250 . S
O72 Mg73 2.028 . S
O72 C74 1.248 . S
Mg73 O72 2.028 . S
Mg73 O78 2.032 . S
Mg73 O80 2.079 . S
C74 O71 1.250 . S
C74 O72 1.248 . S
C75 O76 1.264 . S
C75 O83 1.249 . S
O76 C75 1.264 . S
O77 Mg70 1.986 . S
O77 C81 1.246 1_545 S
O78 Mg73 2.032 . S
O78 C81 1.259 . S
O79 Mg70 2.114 . S
O79 C82 1.252 . S
O80 Mg70 2.251 1_565 S
O80 Mg73 2.079 . S
O80 C82 1.273 1_565 S
C81 O77 1.246 1_565 S
C81 O78 1.259 . S
C82 O79 1.252 . S
C82 O80 1.273 1_545 S
O83 Mg70 2.010 . S
O83 C75 1.249 . S
Mg84 O85 2.028 . S
Mg84 O91 1.986 . S
Mg84 O93 2.114 . S
Mg84 O94 2.251 . S
Mg84 O97 2.010 . S
O85 Mg84 2.028 . S
O85 C88 1.250 . S
O86 Mg87 2.028 . S
O86 C88 1.248 . S
Mg87 O86 2.028 . S
Mg87 O92 2.032 . S
Mg87 O94 2.079 . S
C88 O85 1.250 . S
C88 O86 1.248 . S
C89 O90 1.263 1_565 S
C89 O97 1.249 . S
O90 C89 1.263 1_545 S
O91 Mg84 1.986 . S
O91 C95 1.246 . S
O92 Mg87 2.032 . S
O92 C95 1.259 . S
O93 Mg84 2.114 . S
O93 C96 1.252 . S
O94 Mg84 2.251 . S
O94 Mg87 2.079 . S
O94 C96 1.273 . S
C95 O91 1.246 . S
C95 O92 1.259 . S
C96 O93 1.252 . S
C96 O94 1.273 . S
O97 Mg84 2.010 . S
O97 C89 1.249 . S
Mg98 O99 2.028 1_655 S
Mg98 O105 1.986 . S
Mg98 O107 2.114 . S
Mg98 O108 2.251 1_655 S
Mg98 O111 2.010 . S
O99 Mg98 2.028 1_455 S
O99 C102 1.250 . S
O100 Mg101 2.028 . S
O100 C102 1.248 . S
Mg101 O100 2.028 . S
Mg101 O106 2.032 . S
Mg101 O108 2.079 . S
C102 O99 1.250 . S
C102 O100 1.248 . S
C103 O104 1.264 . S
C103 O111 1.249 . S
O104 C103 1.264 . S
O105 Mg98 1.986 . S
O105 C109 1.246 1_655 S
O106 Mg101 2.032 . S
O106 C109 1.259 . S
O107 Mg98 2.114 . S
O107 C110 1.252 . S
O108 Mg98 2.251 1_455 S
O108 Mg101 2.079 . S
O108 C110 1.273 1_455 S
C109 O105 1.246 1_455 S
C109 O106 1.259 . S
C110 O107 1.252 . S
C110 O108 1.273 1_655 S
O111 Mg98 2.010 . S
O111 C103 1.249 . S
Mg112 O113 2.028 1_565 S
Mg112 O119 1.986 . S
Mg112 O121 2.114 . S
Mg112 O122 2.251 1_565 S
Mg112 O125 2.010 . S
O113 Mg112 2.028 1_545 S
O113 C116 1.250 . S
O114 Mg115 2.028 . S
O114 C116 1.248 . S
Mg115 O114 2.028 . S
Mg115 O120 2.032 . S
Mg115 O122 2.079 . S
C116 O113 1.250 . S
C116 O114 1.248 . S
C117 O118 1.264 1_455 S
C117 O125 1.249 . S
O118 C117 1.264 1_655 S
O119 Mg112 1.986 . S
O119 C123 1.246 1_565 S
O120 Mg115 2.032 . S
O120 C123 1.259 . S
O121 Mg112 2.114 . S
O121 C124 1.252 . S
O122 Mg112 2.251 1_545 S
O122 Mg115 2.079 . S
O122 C124 1.273 1_545 S
C123 O119 1.246 1_545 S
C123 O120 1.259 . S
C124 O121 1.252 . S
C124 O122 1.273 1_565 S
O125 Mg112 2.010 . S
O125 C117 1.249 . S
Mg126 O127 2.028 . S
Mg126 O133 1.986 . S
Mg126 O135 2.114 . S
Mg126 O136 2.251 . S
Mg126 O139 2.010 . S
O127 Mg126 2.028 . S
O127 C130 1.250 . S
O128 Mg129 2.028 . S
O128 C130 1.248 . S
Mg129 O128 2.028 . S
Mg129 O134 2.032 . S
Mg129 O136 2.079 . S
C130 O127 1.250 . S
C130 O128 1.248 . S
C131 O132 1.263 1_545 S
C131 O139 1.249 . S
O132 C131 1.263 1_565 S
O133 Mg126 1.986 . S
O133 C137 1.246 . S
O134 Mg129 2.032 . S
O134 C137 1.259 . S
O135 Mg126 2.114 . S
O135 C138 1.252 . S
O136 Mg126 2.251 . S
O136 Mg129 2.079 . S
O136 C138 1.273 . S
C137 O133 1.246 . S
C137 O134 1.259 . S
C138 O135 1.252 . S
C138 O136 1.273 . S
O139 Mg126 2.010 . S
O139 C131 1.249 . S
Mg140 O141 2.028 1_455 S
Mg140 O147 1.986 . S
Mg140 O149 2.114 . S
Mg140 O150 2.251 1_455 S
Mg140 O153 2.010 . S
O141 Mg140 2.028 1_655 S
O141 C144 1.250 . S
O142 Mg143 2.028 . S
O142 C144 1.248 . S
Mg143 O142 2.028 . S
Mg143 O148 2.032 . S
Mg143 O150 2.079 . S
C144 O141 1.250 . S
C144 O142 1.248 . S
C145 O146 1.264 . S
C145 O153 1.249 . S
O146 C145 1.264 . S
O147 Mg140 1.986 . S
O147 C151 1.246 1_455 S
O148 Mg143 2.032 . S
O148 C151 1.259 . S
O149 Mg140 2.114 . S
O149 C152 1.252 . S
O150 Mg140 2.251 1_655 S
O150 Mg143 2.079 . S
O150 C152 1.273 1_655 S
C151 O147 1.246 1_655 S
C151 O148 1.259 . S
C152 O149 1.252 . S
C152 O150 1.273 1_455 S
O153 Mg140 2.010 . S
O153 C145 1.249 . S
Mg154 O155 2.028 1_545 S
Mg154 O161 1.986 . S
Mg154 O163 2.114 . S
Mg154 O164 2.251 1_545 S
Mg154 O167 2.010 . S
O155 Mg154 2.028 1_565 S
O155 C158 1.250 . S
O156 Mg157 2.028 . S
O156 C158 1.248 . S
Mg157 O156 2.028 . S
Mg157 O162 2.032 . S
Mg157 O164 2.079 . S
C158 O155 1.250 . S
C158 O156 1.248 . S
C159 O160 1.264 1_655 S
C159 O167 1.249 . S
O160 C159 1.264 1_455 S
O161 Mg154 1.986 . S
O161 C165 1.246 1_545 S
O162 Mg157 2.032 . S
O162 C165 1.259 . S
O163 Mg154 2.114 . S
O163 C166 1.252 . S
O164 Mg154 2.251 1_565 S
O164 Mg157 2.079 . S
O164 C166 1.273 1_565 S
C165 O161 1.246 1_565 S
C165 O162 1.259 . S
C166 O163 1.252 . S
C166 O164 1.273 1_545 S
O167 Mg154 2.010 . S
O167 C159 1.249 . S
C159 C5 1.023 1_655 S
C19 C89 1.023 1_545 S
C33 C103 1.023 . S
C47 C117 1.023 1_655 S
C131 C61 1.023 1_545 S
C75 C145 1.023 . S
C54 C12 1.627 . S
C68 C26 1.627 1_455 S
C82 C40 1.627 1_545 S
C96 C138 1.627 . S
C110 C152 1.627 1_655 S
C124 C166 1.627 1_565 S
C116 C4 1.037 . S
C18 C130 1.037 . S
C144 C32 1.037 . S
C158 C46 1.037 . S
C88 C60 1.037 . S
C74 C102 1.037 . S
C137 C11 1.501 . S
C25 C151 1.501 1_455 S
C165 C39 1.501 1_564 S
C53 C95 1.501 . S
C67 C109 1.501 1_655 S
C123 C81 1.501 1_544 S
