# Generated by pormake.
# Topology unc, (4)-cn, num edge types: 1
# Building blocks:
#     Node 0, Type 0, BuildingBlock: NAHDIM_clean_sbu_0, # of connection points: 4
#     Node 1, Type 0, BuildingBlock: NAHDIM_clean_sbu_0, # of connection points: 4
#     Node 2, Type 0, BuildingBlock: NAHDIM_clean_sbu_0, # of connection points: 4
#     Node 3, Type 0, BuildingBlock: NAHDIM_clean_sbu_0, # of connection points: 4
#     Edge 4, Type (0, 0), BuildingBlock: XIVTED_clean_linker_0, # of connection points: 2
#     Edge 5, Type (0, 0), BuildingBlock: XIVTED_clean_linker_0, # of connection points: 2
#     Edge 6, Type (0, 0), BuildingBlock: XIVTED_clean_linker_0, # of connection points: 2
#     Edge 7, Type (0, 0), BuildingBlock: XIVTED_clean_linker_0, # of connection points: 2
#     Edge 8, Type (0, 0), BuildingBlock: XIVTED_clean_linker_0, # of connection points: 2
#     Edge 9, Type (0, 0), BuildingBlock: XIVTED_clean_linker_0, # of connection points: 2
#     Edge 10, Type (0, 0), BuildingBlock: XIVTED_clean_linker_0, # of connection points: 2
#     Edge 11, Type (0, 0), BuildingBlock: XIVTED_clean_linker_0, # of connection points: 2
# Relax obj value: 0.112
# Max RMSD: 0.174
# Mean RMSD: 0.174
data_MOF--net-unc--node1-NAHDIM_clean_sbu_0--edge1-XIVTED_clean_linker_0
_symmetry_space_group_name_H-M    P1
_symmetry_Int_Tables_number       1
_symmetry_cell_setting            triclinic
loop_
_symmetry_equiv_pos_as_xyz
'x, y, z'
_cell_length_a     29.885336
_cell_length_b     30.154827
_cell_length_c     22.417452
_cell_angle_alpha  90.099126
_cell_angle_beta   90.127786
_cell_angle_gamma 95.19481
loop_
_atom_site_label
_atom_site_type_symbol
_atom_site_fract_x
_atom_site_fract_y
_atom_site_fract_z
_atom_type_partial_charge
C0 C 0.9536 0.75757 0.94619 0.0
O1 O 0.99563 0.77456 0.94725 0.0
O2 O 0.00645 0.64029 0.90865 0.0
Zn3 Zn 0.99472 0.67891 -0.0215 0.0
O4 O 0.05093 0.71705 0.00056 0.0
C5 C 0.00826 0.61045 0.05614 0.0
O6 O 0.04327 0.61131 0.02066 0.0
O7 O 0.94445 0.71664 0.95856 0.0
C8 C 0.05211 0.73743 0.05025 0.0
O9 O 0.01672 0.73289 0.08513 0.0
C10 C 0.03455 0.6507 0.86748 0.0
O11 O 0.05709 0.69019 0.86795 0.0
O12 O 0.97934 0.63817 0.04743 0.0
C13 C 0.31516 0.0845 0.29532 0.0
O14 O 0.31343 0.04614 0.32329 0.0
O15 O 0.40291 0.01123 0.26608 0.0
Zn16 Zn 0.35828 0.03399 0.20936 0.0
O17 O 0.30773 0.987 0.1939 0.0
C18 C 0.42531 0.0756 0.13114 0.0
O19 O 0.44033 0.09484 0.18082 0.0
O20 O 0.33355 0.08792 0.24431 0.0
C21 C 0.31284 0.95568 0.15727 0.0
O22 O 0.35163 0.95435 0.13017 0.0
C23 C 0.39389 0.97833 0.30072 0.0
O24 O 0.35335 0.95746 0.3003 0.0
O25 O 0.38973 0.04921 0.13245 0.0
C26 C 0.12805 0.31958 0.4408 0.0
O27 O 0.12818 0.35763 0.41232 0.0
O28 O 0.03477 0.3783 0.41046 0.0
Zn29 Zn 0.04387 0.34484 0.48573 0.0
O30 O 0.98852 0.30452 0.50286 0.0
C31 C 0.07518 0.4262 0.54739 0.0
O32 O 0.09378 0.43731 0.49586 0.0
O33 O 0.09592 0.3079 0.47606 0.0
C34 C 0.98611 0.28417 0.55243 0.0
O35 O 0.0199 0.29013 0.59007 0.0
C36 C 0.00497 0.40562 0.40668 0.0
O37 O 0.97893 0.41123 0.45274 0.0
O38 O 0.05379 0.3881 0.55326 0.0
C39 C 0.73319 0.95838 0.78895 0.0
O40 O 0.73617 0.00065 0.80413 0.0
O41 O 0.63054 0.01484 0.76401 0.0
Zn42 Zn 0.67565 0.99342 0.7071 0.0
O43 O 0.72242 0.04303 0.68711 0.0
C44 C 0.60686 0.94761 0.63457 0.0
O45 O 0.59149 0.9332 0.68657 0.0
O46 O 0.70717 0.94518 0.74634 0.0
C47 C 0.71954 0.06921 0.64325 0.0
O48 O 0.68392 0.06465 0.60857 0.0
C49 C 0.63716 0.0503 0.79471 0.0
O50 O 0.67532 0.07524 0.78949 0.0
O51 O 0.64359 0.97227 0.63246 0.0
H52 H 0.94567 0.60462 0.14613 0.0
H53 H 0.05469 0.40252 0.30508 0.0
H54 H 0.06054 0.54309 0.0792 0.0
H55 H 0.94828 0.47041 0.38434 0.0
H56 H 0.05232 0.45003 0.21774 0.0
H57 H 0.9414 0.55222 0.22985 0.0
C58 C 0.96983 0.58 0.14889 0.0
C59 C 0.00366 0.57834 0.10582 0.0
C60 C 0.02934 0.45452 0.25409 0.0
C61 C -0.00106 0.51848 0.2011 0.0
C62 C 0.03064 0.42732 0.30403 0.0
C63 C 0.0018 0.43267 0.35227 0.0
C64 C -0.00097 0.48745 0.25221 0.0
C65 C 0.97124 0.46527 0.34822 0.0
C66 C 0.96741 0.55018 0.19666 0.0
C67 C 0.03406 0.54578 0.11151 0.0
N68 N 0.97077 0.49161 0.2991 0.0
N69 N 0.03101 0.51725 0.15829 0.0
H70 H 0.48309 0.00735 0.30402 0.0
H71 H 0.52296 0.90321 0.62378 0.0
H72 H 0.38255 0.92088 0.3953 0.0
H73 H 0.62635 0.97822 0.52205 0.0
H74 H 0.47304 0.90298 0.53719 0.0
H75 H 0.53778 0.99139 0.37996 0.0
C76 C 0.47257 0.98476 0.33989 0.0
C77 C 0.42804 0.96582 0.34372 0.0
C78 C 0.50684 0.919 0.53362 0.0
C79 C 0.49054 0.94753 0.43116 0.0
C80 C 0.53539 0.9191 0.58302 0.0
C81 C 0.57869 0.9413 0.58043 0.0
C82 C 0.52165 0.9415 0.48147 0.0
C83 C 0.59308 0.96109 0.52634 0.0
C84 C 0.50388 0.97555 0.38321 0.0
C85 C 0.41646 0.93643 0.39084 0.0
N86 N 0.56446 0.96117 0.47928 0.0
N87 N 0.44742 0.92857 0.43315 0.0
H88 H 0.00036 0.56388 0.86221 0.0
H89 H 0.11185 0.5131 0.54873 0.0
H90 H 0.08752 0.66171 0.76748 0.0
H91 H 0.03728 0.41418 0.65746 0.0
H92 H 0.10475 0.56818 0.62781 0.0
H93 H 0.01401 0.50901 0.78647 0.0
C94 C 0.02236 0.5739 0.82535 0.0
C95 C 0.0427 0.61756 0.82108 0.0
C96 C 0.09024 0.53433 0.6344 0.0
C97 C 0.05863 0.55456 0.7339 0.0
C98 C 0.09433 0.50286 0.58936 0.0
C99 C 0.07489 0.45903 0.59634 0.0
C100 C 0.06638 0.52183 0.68653 0.0
C101 C 0.05261 0.44761 0.64992 0.0
C102 C 0.0303 0.54242 0.78215 0.0
C103 C 0.0711 0.62843 0.77244 0.0
N104 N 0.04876 0.47886 0.69271 0.0
N105 N 0.07811 0.59714 0.73053 0.0
H106 H 0.40532 0.03728 0.02263 0.0
H107 H 0.64537 0.1145 0.88185 0.0
H108 H 0.50657 0.12378 0.1137 0.0
H109 H 0.55159 0.01153 0.80767 0.0
H110 H 0.59043 0.12784 0.95921 0.0
H111 H 0.4539 0.03766 0.93545 0.0
C112 C 0.43761 0.05674 0.02413 0.0
C113 C 0.45215 0.08008 0.07587 0.0
C114 C 0.58182 0.10258 0.92569 0.0
C115 C 0.50808 0.08042 -0.02385 0.0
C116 C 0.6131 0.09499 0.88148 0.0
C117 C 0.60322 0.06151 0.83866 0.0
C118 C 0.54036 0.07664 0.92679 0.0
C119 C 0.56085 0.03735 0.84019 0.0
C120 C 0.46538 0.05685 0.97431 0.0
C121 C 0.49417 0.10498 0.07496 0.0
N122 N 0.5311 0.04524 0.88372 0.0
N123 N 0.52088 0.10418 0.02603 0.0
H124 H 0.23097 0.94453 0.21227 0.0
H125 H 0.13255 0.75089 -0.00817 0.0
H126 H 0.30884 0.88992 0.07256 0.0
H127 H 0.06226 0.79235 0.14749 0.0
H128 H 0.19709 0.80243 0.01954 0.0
H129 H 0.16831 0.8898 0.18807 0.0
C130 C 0.23493 0.92097 0.17656 0.0
C131 C 0.27517 0.92188 0.14425 0.0
C132 C 0.16761 0.80012 0.04775 0.0
C133 C 0.20349 0.8592 0.11622 0.0
C134 C 0.13072 0.77075 0.03192 0.0
C135 C 0.09191 0.7674 0.06734 0.0
C136 C 0.16558 0.82653 0.09916 0.0
C137 C 0.09147 0.79386 0.11885 0.0
C138 C 0.19915 0.88967 0.16284 0.0
C139 C 0.27843 0.89044 0.0986 0.0
N140 N 0.12768 0.82245 0.13306 0.0
N141 N 0.24297 0.8605 0.08576 0.0
H142 H 0.31347 0.16887 0.25055 0.0
H143 H 0.13972 0.24019 0.49495 0.0
H144 H 0.26797 0.08625 0.39953 0.0
H145 H 0.19332 0.32752 0.3549 0.0
H146 H 0.19053 0.18543 0.46459 0.0
H147 H 0.27352 0.22921 0.29148 0.0
C148 C 0.2953 0.16349 0.29204 0.0
C149 C 0.29372 0.1223 0.32139 0.0
C150 C 0.19148 0.21671 0.44078 0.0
C151 C 0.24785 0.19118 0.36839 0.0
C152 C 0.16246 0.24803 0.45811 0.0
C153 C 0.16196 0.28833 0.42703 0.0
C154 C 0.22002 0.22558 0.39172 0.0
C155 C 0.19239 0.29679 0.37993 0.0
C156 C 0.27255 0.19799 0.31544 0.0
C157 C 0.26989 0.11733 0.37518 0.0
N158 N 0.21989 0.26547 0.36332 0.0
N159 N 0.24762 0.15124 0.39669 0.0
H160 H 0.72884 0.12658 0.54829 0.0
H161 H 0.97126 0.234 0.65312 0.0
H162 H 0.7956 0.08939 0.70928 0.0
H163 H 0.9096 0.26566 0.48596 0.0
H164 H 0.90521 0.18356 0.67654 0.0
H165 H 0.79281 0.18066 0.52687 0.0
C166 C 0.75683 0.12989 0.57924 0.0
C167 C 0.75694 0.1033 0.63052 0.0
C168 C 0.90607 0.20156 0.63475 0.0
C169 C 0.83018 0.16498 0.60629 0.0
C170 C 0.9438 0.2304 0.62134 0.0
C171 C 0.94603 0.25399 0.56741 0.0
C172 C 0.87021 0.19626 0.59398 0.0
C173 C 0.90937 0.24804 0.528 0.0
C174 C 0.79337 0.16071 0.56693 0.0
C175 C 0.79411 0.10903 0.66907 0.0
N176 N 0.87298 0.21971 0.54205 0.0
N177 N 0.82922 0.13917 0.65609 0.0
H178 H 0.80131 0.97975 0.86779 0.0
H179 H 0.8676 0.731 0.90975 0.0
H180 H 0.73122 0.8675 0.77713 0.0
H181 H 0.95838 0.84813 0.94296 0.0
H182 H 0.81054 0.77905 0.87606 0.0
H183 H 0.85224 0.92997 0.91144 0.0
C184 C 0.79641 0.94456 0.85734 0.0
C185 C 0.76216 0.92779 0.81835 0.0
C186 C 0.84293 0.79408 0.89096 0.0
C187 C 0.8204 0.87064 0.86837 0.0
C188 C 0.87539 0.76678 0.91038 0.0
C189 C 0.91784 0.78567 0.92882 0.0
C190 C 0.8529 0.84048 0.89091 0.0
C191 C 0.92622 0.83217 0.92866 0.0
C192 C 0.82562 0.9162 0.88216 0.0
C193 C 0.7574 0.88185 0.80662 0.0
N194 N 0.89403 0.85798 0.91005 0.0
N195 N 0.7863 0.85479 0.83149 0.0
loop_
_geom_bond_atom_site_label_1
_geom_bond_atom_site_label_2
_geom_bond_distance
_geom_bond_site_symmetry_2
_ccdc_geom_bond_type
C0 O1 1.160 . S
C0 O7 1.185 1_556 S
O1 C0 1.160 . S
O2 Zn3 1.899 1_556 S
O2 C10 1.286 . S
Zn3 O2 1.899 1_554 S
Zn3 O4 2.032 . S
Zn3 O7 2.086 1_455 S
Zn3 O12 1.977 1_455 S
O4 Zn3 2.032 . S
O4 C8 1.278 . S
C5 O6 1.203 . S
C5 O12 1.267 1_455 S
O6 C5 1.203 . S
O7 C0 1.185 1_554 S
O7 Zn3 2.086 1_655 S
C8 O4 1.278 . S
C8 O9 1.211 . S
O9 C8 1.211 . S
C10 O2 1.286 . S
C10 O11 1.273 . S
O11 C10 1.273 . S
O12 Zn3 1.977 1_655 S
O12 C5 1.267 1_655 S
C13 O14 1.160 . S
C13 O20 1.185 . S
O14 C13 1.160 . S
O15 Zn16 1.899 . S
O15 C23 1.284 . S
Zn16 O15 1.899 . S
Zn16 O17 2.032 . S
Zn16 O20 2.086 . S
Zn16 O25 1.977 . S
O17 Zn16 2.032 . S
O17 C21 1.278 1_545 S
C18 O19 1.203 . S
C18 O25 1.267 . S
O19 C18 1.203 . S
O20 C13 1.185 . S
O20 Zn16 2.086 . S
C21 O17 1.278 1_565 S
C21 O22 1.211 . S
O22 C21 1.211 . S
C23 O15 1.284 . S
C23 O24 1.273 1_545 S
O24 C23 1.273 1_565 S
O25 Zn16 1.977 . S
O25 C18 1.267 . S
C26 O27 1.160 . S
C26 O33 1.185 . S
O27 C26 1.160 . S
O28 Zn29 1.899 . S
O28 C36 1.284 . S
Zn29 O28 1.899 . S
Zn29 O30 2.032 . S
Zn29 O33 2.086 . S
Zn29 O38 1.977 . S
O30 Zn29 2.032 . S
O30 C34 1.278 1_455 S
C31 O32 1.203 . S
C31 O38 1.267 . S
O32 C31 1.203 . S
O33 C26 1.185 . S
O33 Zn29 2.086 . S
C34 O30 1.278 1_655 S
C34 O35 1.211 . S
O35 C34 1.211 . S
C36 O28 1.284 . S
C36 O37 1.273 1_455 S
O37 C36 1.273 1_655 S
O38 Zn29 1.977 . S
O38 C31 1.267 . S
C39 O40 1.160 . S
C39 O46 1.185 . S
O40 C39 1.160 . S
O41 Zn42 1.899 . S
O41 C49 1.286 . S
Zn42 O41 1.899 . S
Zn42 O43 2.032 . S
Zn42 O46 2.086 1_545 S
Zn42 O51 1.977 1_545 S
O43 Zn42 2.032 . S
O43 C47 1.278 . S
C44 O45 1.203 . S
C44 O51 1.267 1_545 S
O45 C44 1.203 . S
O46 C39 1.185 . S
O46 Zn42 2.086 1_565 S
C47 O43 1.278 . S
C47 O48 1.211 . S
O48 C47 1.211 . S
C49 O41 1.286 . S
C49 O50 1.273 . S
O50 C49 1.273 . S
O51 Zn42 1.977 1_565 S
O51 C44 1.267 1_565 S
H52 C58 0.930 . S
H53 C62 0.930 . S
H54 C67 0.929 . S
H55 C65 0.929 . S
H56 C60 0.929 . S
H57 C66 0.929 . S
C58 H52 0.930 . S
C58 C59 1.367 . S
C58 C66 1.378 . S
C59 C58 1.367 . S
C59 C67 1.433 1_655 S
C60 H56 0.929 . S
C60 C62 1.378 . S
C60 C64 1.350 . S
C61 C64 1.463 . S
C61 C66 1.350 1_455 S
C61 N69 1.427 . S
C62 H53 0.930 . S
C62 C60 1.378 . S
C62 C63 1.367 . S
C63 C62 1.367 . S
C63 C65 1.433 1_455 S
C64 C60 1.350 . S
C64 C61 1.463 . S
C64 N68 1.427 1_455 S
C65 H55 0.929 . S
C65 C63 1.433 1_655 S
C65 N68 1.384 . S
C66 H57 0.929 . S
C66 C58 1.378 . S
C66 C61 1.350 1_655 S
C67 H54 0.929 . S
C67 C59 1.433 1_455 S
C67 N69 1.384 . S
N68 C64 1.427 1_655 S
N68 C65 1.384 . S
N69 C61 1.427 . S
N69 C67 1.384 . S
H70 C76 0.930 . S
H71 C80 0.930 . S
H72 C85 0.929 . S
H73 C83 0.931 . S
H74 C78 0.929 . S
H75 C84 0.929 . S
C76 H70 0.930 . S
C76 C77 1.367 . S
C76 C84 1.378 . S
C77 C76 1.367 . S
C77 C85 1.433 . S
C78 H74 0.929 . S
C78 C80 1.378 . S
C78 C82 1.350 . S
C79 C82 1.463 . S
C79 C84 1.350 . S
C79 N87 1.427 . S
C80 H71 0.930 . S
C80 C78 1.378 . S
C80 C81 1.366 1_545 S
C81 C80 1.366 1_565 S
C81 C83 1.433 . S
C82 C78 1.350 . S
C82 C79 1.463 . S
C82 N86 1.427 . S
C83 H73 0.931 . S
C83 C81 1.433 . S
C83 N86 1.382 1_565 S
C84 H75 0.929 . S
C84 C76 1.378 . S
C84 C79 1.350 . S
C85 H72 0.929 . S
C85 C77 1.433 . S
C85 N87 1.384 . S
N86 C82 1.427 . S
N86 C83 1.382 1_545 S
N87 C79 1.427 . S
N87 C85 1.384 . S
H88 C94 0.930 . S
H89 C98 0.930 . S
H90 C103 0.929 . S
H91 C101 0.929 . S
H92 C96 0.929 . S
H93 C102 0.929 . S
C94 H88 0.930 . S
C94 C95 1.367 . S
C94 C102 1.378 . S
C95 C94 1.367 . S
C95 C103 1.433 . S
C96 H92 0.929 . S
C96 C98 1.378 . S
C96 C100 1.350 . S
C97 C100 1.463 . S
C97 C102 1.350 . S
C97 N105 1.427 . S
C98 H89 0.930 . S
C98 C96 1.378 . S
C98 C99 1.367 . S
C99 C98 1.367 . S
C99 C101 1.433 . S
C100 C96 1.350 . S
C100 C97 1.463 . S
C100 N104 1.427 . S
C101 H91 0.929 . S
C101 C99 1.433 . S
C101 N104 1.384 . S
C102 H93 0.929 . S
C102 C94 1.378 . S
C102 C97 1.350 . S
C103 H90 0.929 . S
C103 C95 1.433 . S
C103 N105 1.384 . S
N104 C100 1.427 . S
N104 C101 1.384 . S
N105 C97 1.427 . S
N105 C103 1.384 . S
H106 C112 0.930 1_565 S
H107 C116 0.930 . S
H108 C121 0.929 . S
H109 C119 0.929 1_565 S
H110 C114 0.929 . S
H111 C120 0.929 1_566 S
C112 H106 0.930 1_545 S
C112 C113 1.367 . S
C112 C120 1.378 . S
C113 C112 1.367 . S
C113 C121 1.433 . S
C114 H110 0.929 . S
C114 C116 1.378 . S
C114 C118 1.350 . S
C115 C118 1.463 1_554 S
C115 C120 1.350 . S
C115 N123 1.427 . S
C116 H107 0.930 . S
C116 C114 1.378 . S
C116 C117 1.367 . S
C117 C116 1.367 . S
C117 C119 1.433 . S
C118 C114 1.350 . S
C118 C115 1.463 1_556 S
C118 N122 1.427 . S
C119 H109 0.929 1_545 S
C119 C117 1.433 . S
C119 N122 1.384 . S
C120 H111 0.929 1_544 S
C120 C112 1.378 . S
C120 C115 1.350 . S
C121 H108 0.929 . S
C121 C113 1.433 . S
C121 N123 1.384 . S
N122 C118 1.427 . S
N122 C119 1.384 . S
N123 C115 1.427 . S
N123 C121 1.384 . S
H124 C130 0.930 . S
H125 C134 0.930 1_556 S
H126 C139 0.929 . S
H127 C137 0.929 . S
H128 C132 0.929 . S
H129 C138 0.929 . S
C130 H124 0.930 . S
C130 C131 1.367 . S
C130 C138 1.378 . S
C131 C130 1.367 . S
C131 C139 1.433 . S
C132 H128 0.929 . S
C132 C134 1.378 . S
C132 C136 1.350 . S
C133 C136 1.463 . S
C133 C138 1.350 . S
C133 N141 1.427 . S
C134 H125 0.930 1_554 S
C134 C132 1.378 . S
C134 C135 1.367 . S
C135 C134 1.367 . S
C135 C137 1.433 . S
C136 C132 1.350 . S
C136 C133 1.463 . S
C136 N140 1.427 . S
C137 H127 0.929 . S
C137 C135 1.433 . S
C137 N140 1.384 . S
C138 H129 0.929 . S
C138 C130 1.378 . S
C138 C133 1.350 . S
C139 H126 0.929 . S
C139 C131 1.433 . S
C139 N141 1.384 . S
N140 C136 1.427 . S
N140 C137 1.384 . S
N141 C133 1.427 . S
N141 C139 1.384 . S
H142 C148 0.930 . S
H143 C152 0.930 . S
H144 C157 0.929 . S
H145 C155 0.929 . S
H146 C150 0.929 . S
H147 C156 0.929 . S
C148 H142 0.930 . S
C148 C149 1.367 . S
C148 C156 1.378 . S
C149 C148 1.367 . S
C149 C157 1.433 . S
C150 H146 0.929 . S
C150 C152 1.378 . S
C150 C154 1.350 . S
C151 C154 1.463 . S
C151 C156 1.350 . S
C151 N159 1.427 . S
C152 H143 0.930 . S
C152 C150 1.378 . S
C152 C153 1.367 . S
C153 C152 1.367 . S
C153 C155 1.433 . S
C154 C150 1.350 . S
C154 C151 1.463 . S
C154 N158 1.427 . S
C155 H145 0.929 . S
C155 C153 1.433 . S
C155 N158 1.384 . S
C156 H147 0.929 . S
C156 C148 1.378 . S
C156 C151 1.350 . S
C157 H144 0.929 . S
C157 C149 1.433 . S
C157 N159 1.384 . S
N158 C154 1.427 . S
N158 C155 1.384 . S
N159 C151 1.427 . S
N159 C157 1.384 . S
H160 C166 0.930 . S
H161 C170 0.930 . S
H162 C175 0.929 . S
H163 C173 0.929 . S
H164 C168 0.929 . S
H165 C174 0.929 . S
C166 H160 0.930 . S
C166 C167 1.367 . S
C166 C174 1.378 . S
C167 C166 1.367 . S
C167 C175 1.433 . S
C168 H164 0.929 . S
C168 C170 1.378 . S
C168 C172 1.350 . S
C169 C172 1.463 . S
C169 C174 1.350 . S
C169 N177 1.427 . S
C170 H161 0.930 . S
C170 C168 1.378 . S
C170 C171 1.367 . S
C171 C170 1.367 . S
C171 C173 1.433 . S
C172 C168 1.350 . S
C172 C169 1.463 . S
C172 N176 1.427 . S
C173 H163 0.929 . S
C173 C171 1.433 . S
C173 N176 1.384 . S
C174 H165 0.929 . S
C174 C166 1.378 . S
C174 C169 1.350 . S
C175 H162 0.929 . S
C175 C167 1.433 . S
C175 N177 1.384 . S
N176 C172 1.427 . S
N176 C173 1.384 . S
N177 C169 1.427 . S
N177 C175 1.384 . S
H178 C184 0.930 . S
H179 C188 0.930 . S
H180 C193 0.929 . S
H181 C191 0.929 . S
H182 C186 0.929 . S
H183 C192 0.929 . S
C184 H178 0.930 . S
C184 C185 1.367 . S
C184 C192 1.378 . S
C185 C184 1.367 . S
C185 C193 1.433 . S
C186 H182 0.929 . S
C186 C188 1.378 . S
C186 C190 1.350 . S
C187 C190 1.463 . S
C187 C192 1.350 . S
C187 N195 1.427 . S
C188 H179 0.930 . S
C188 C186 1.378 . S
C188 C189 1.367 . S
C189 C188 1.367 . S
C189 C191 1.433 . S
C190 C186 1.350 . S
C190 C187 1.463 . S
C190 N194 1.427 . S
C191 H181 0.929 . S
C191 C189 1.433 . S
C191 N194 1.384 . S
C192 H183 0.929 . S
C192 C184 1.378 . S
C192 C187 1.350 . S
C193 H180 0.929 . S
C193 C185 1.433 . S
C193 N195 1.384 . S
N194 C190 1.427 . S
N194 C191 1.384 . S
N195 C187 1.427 . S
N195 C193 1.384 . S
C59 C5 1.101 1_655 S
C63 C36 1.133 . S
C77 C23 1.131 . S
C81 C44 1.081 1_565 S
C95 C10 1.131 . S
C99 C31 1.083 . S
C113 C18 1.087 . S
C117 C49 1.130 . S
C131 C21 1.458 . S
C135 C8 1.458 . S
C149 C13 1.446 . S
C153 C26 1.446 . S
C167 C47 1.443 . S
C171 C34 1.444 . S
C185 C39 1.436 . S
C189 C0 1.435 . S
