# Generated by pormake.
# Topology mon, (4)-cn, num edge types: 1
# Building blocks:
#     Node 0, Type 0, BuildingBlock: AZAVOO_clean_sbu_0, # of connection points: 4
#     Node 1, Type 0, BuildingBlock: AZAVOO_clean_sbu_0, # of connection points: 4
#     Node 2, Type 0, BuildingBlock: AZAVOO_clean_sbu_0, # of connection points: 4
#     Node 3, Type 0, BuildingBlock: AZAVOO_clean_sbu_0, # of connection points: 4
#     Node 4, Type 0, BuildingBlock: AZAVOO_clean_sbu_0, # of connection points: 4
#     Node 5, Type 0, BuildingBlock: AZAVOO_clean_sbu_0, # of connection points: 4
#     Node 6, Type 0, BuildingBlock: AZAVOO_clean_sbu_0, # of connection points: 4
#     Node 7, Type 0, BuildingBlock: AZAVOO_clean_sbu_0, # of connection points: 4
#     Node 8, Type 0, BuildingBlock: AZAVOO_clean_sbu_0, # of connection points: 4
#     Node 9, Type 0, BuildingBlock: AZAVOO_clean_sbu_0, # of connection points: 4
#     Node 10, Type 0, BuildingBlock: AZAVOO_clean_sbu_0, # of connection points: 4
#     Node 11, Type 0, BuildingBlock: AZAVOO_clean_sbu_0, # of connection points: 4
#     Node 12, Type 0, BuildingBlock: AZAVOO_clean_sbu_0, # of connection points: 4
#     Node 13, Type 0, BuildingBlock: AZAVOO_clean_sbu_0, # of connection points: 4
#     Node 14, Type 0, BuildingBlock: AZAVOO_clean_sbu_0, # of connection points: 4
#     Node 15, Type 0, BuildingBlock: AZAVOO_clean_sbu_0, # of connection points: 4
#     Edge 16, Type (0, 0), None
#     Edge 17, Type (0, 0), None
#     Edge 18, Type (0, 0), None
#     Edge 19, Type (0, 0), None
#     Edge 20, Type (0, 0), None
#     Edge 21, Type (0, 0), None
#     Edge 22, Type (0, 0), None
#     Edge 23, Type (0, 0), None
#     Edge 24, Type (0, 0), None
#     Edge 25, Type (0, 0), None
#     Edge 26, Type (0, 0), None
#     Edge 27, Type (0, 0), None
#     Edge 28, Type (0, 0), None
#     Edge 29, Type (0, 0), None
#     Edge 30, Type (0, 0), None
#     Edge 31, Type (0, 0), None
#     Edge 32, Type (0, 0), None
#     Edge 33, Type (0, 0), None
#     Edge 34, Type (0, 0), None
#     Edge 35, Type (0, 0), None
#     Edge 36, Type (0, 0), None
#     Edge 37, Type (0, 0), None
#     Edge 38, Type (0, 0), None
#     Edge 39, Type (0, 0), None
#     Edge 40, Type (0, 0), None
#     Edge 41, Type (0, 0), None
#     Edge 42, Type (0, 0), None
#     Edge 43, Type (0, 0), None
#     Edge 44, Type (0, 0), None
#     Edge 45, Type (0, 0), None
#     Edge 46, Type (0, 0), None
#     Edge 47, Type (0, 0), None
# Relax obj value: 0.177
# Max RMSD: 0.146
# Mean RMSD: 0.145
data_MOF--net-mon--node1-AZAVOO_clean_sbu_0--edge1-none
_symmetry_space_group_name_H-M    P1
_symmetry_Int_Tables_number       1
_symmetry_cell_setting            triclinic
loop_
_symmetry_equiv_pos_as_xyz
'x, y, z'
_cell_length_a     15.561851
_cell_length_b     15.561811
_cell_length_c     39.767068
_cell_angle_alpha  90.001678
_cell_angle_beta   89.999999
_cell_angle_gamma 89.998873
loop_
_atom_site_label
_atom_site_type_symbol
_atom_site_fract_x
_atom_site_fract_y
_atom_site_fract_z
_atom_type_partial_charge
Mg0 Mg 0.09486 0.00028 0.54001 0.0
O1 O 0.20713 0.95704 0.57194 0.0
O2 O 0.31838 0.04442 0.56378 0.0
Mg3 Mg 0.28107 0.1328 0.52027 0.0
C4 C 0.28324 0.9811 0.57858 0.0
C5 C 0.93093 0.94094 0.58094 0.0
O6 O 0.90233 0.01556 0.57034 0.0
O7 O 0.07264 0.12183 0.57092 0.0
O8 O 0.18007 0.20345 0.5516 0.0
O9 O 0.1365 0.91479 0.49853 0.0
O10 O 0.17309 0.05147 0.50138 0.0
C11 C 0.11039 0.19451 0.56822 0.0
C12 C 0.17278 0.98077 0.48463 0.0
O13 O 0.00675 0.91742 0.57331 0.0
Mg14 Mg 0.31592 0.74432 0.79001 0.0
O15 O 0.35914 0.8566 0.82194 0.0
O16 O 0.27175 0.96784 0.81378 0.0
Mg17 Mg 0.18338 0.93054 0.77027 0.0
C18 C 0.33509 0.93271 0.82858 0.0
C19 C 0.37527 0.5804 0.83095 0.0
O20 O 0.30066 0.55179 0.82035 0.0
O21 O 0.19436 0.7221 0.82092 0.0
O22 O 0.11274 0.82953 0.8016 0.0
O23 O 0.4014 0.78597 0.74853 0.0
O24 O 0.26472 0.82256 0.75138 0.0
C25 C 0.12167 0.75984 0.81822 0.0
C26 C 0.33541 0.82225 0.73463 0.0
O27 O 0.39879 0.65621 0.82331 0.0
Mg28 Mg 0.57186 0.96536 0.04001 0.0
O29 O 0.45959 0.0086 0.07194 0.0
O30 O 0.34834 0.92121 0.06378 0.0
Mg31 Mg 0.38565 0.83283 0.02027 0.0
C32 C 0.38348 -0.01546 0.07858 0.0
C33 C 0.73579 0.0247 0.08094 0.0
O34 O 0.7644 0.95009 0.07033 0.0
O35 O 0.59408 0.84381 0.07092 0.0
O36 O 0.48665 0.76219 0.0516 0.0
O37 O 0.53022 0.05084 -0.00147 0.0
O38 O 0.49363 0.91416 0.00138 0.0
C39 C 0.55633 0.77113 0.06822 0.0
C40 C 0.49394 -0.01514 -0.01537 0.0
O41 O 0.65997 0.04822 0.07331 0.0
Mg42 Mg 0.3508 0.22129 0.29001 0.0
O43 O 0.30757 0.10902 0.32194 0.0
O44 O 0.39496 -0.00223 0.31378 0.0
Mg45 Mg 0.48334 0.03507 0.27027 0.0
C46 C 0.33163 0.03291 0.32858 0.0
C47 C 0.29145 0.38521 0.33095 0.0
O48 O 0.36607 0.41382 0.32035 0.0
O49 O 0.47236 0.24351 0.32092 0.0
O50 O 0.55398 0.13608 0.3016 0.0
O51 O 0.26532 0.17965 0.24853 0.0
O52 O 0.402 0.14306 0.25138 0.0
C53 C 0.54505 0.20577 0.31822 0.0
C54 C 0.33131 0.14337 0.23463 0.0
O55 O 0.26793 0.3094 0.32332 0.0
Mg56 Mg 0.09494 0.96542 0.39244 0.0
O57 O 0.2072 0.00864 0.36051 0.0
O58 O 0.31845 0.92125 0.36866 0.0
Mg59 Mg 0.28115 0.83288 0.41218 0.0
C60 C 0.28331 -0.01542 0.35387 0.0
C61 C 0.931 0.02477 0.35152 0.0
O62 O 0.90239 0.95017 0.36213 0.0
O63 O 0.07269 0.84385 0.36154 0.0
O64 O 0.18014 0.76223 0.38085 0.0
O65 O 0.13659 0.05094 0.43391 0.0
O66 O 0.17315 0.9142 0.43108 0.0
C67 C 0.11044 0.77117 0.36423 0.0
C68 C 0.17283 -0.01507 0.4478 0.0
O69 O 0.00683 0.04828 0.35914 0.0
Mg70 Mg 0.35075 0.74442 0.64245 0.0
O71 O 0.30752 0.85667 0.61051 0.0
O72 O 0.3949 0.96792 0.61866 0.0
Mg73 Mg 0.48328 0.93063 0.66217 0.0
C74 C 0.33157 0.93278 0.60387 0.0
C75 C 0.29141 0.58047 0.60153 0.0
O76 O 0.36601 0.55186 0.61215 0.0
O77 O 0.47231 0.72217 0.61154 0.0
O78 O 0.55392 0.82962 0.63085 0.0
O79 O 0.26524 0.78607 0.68391 0.0
O80 O 0.40197 0.82264 0.68108 0.0
C81 C 0.54499 0.75992 0.61423 0.0
C82 C 0.33125 0.82231 0.69781 0.0
O83 O 0.26789 0.6563 0.60915 0.0
Mg84 Mg 0.57178 0.00021 0.89244 0.0
O85 O 0.45952 0.95698 0.86051 0.0
O86 O 0.34827 0.04437 0.86867 0.0
Mg87 Mg 0.38557 0.13274 0.91218 0.0
C88 C 0.38341 0.98104 0.85387 0.0
C89 C 0.73572 0.94085 0.85152 0.0
O90 O 0.76433 0.01544 0.86214 0.0
O91 O 0.59402 0.12176 0.86154 0.0
O92 O 0.48658 0.20339 0.88085 0.0
O93 O 0.53014 0.91469 0.93391 0.0
O94 O 0.49357 0.05143 0.93108 0.0
C95 C 0.55628 0.19445 0.86423 0.0
C96 C 0.49389 0.9807 0.9478 0.0
O97 O 0.65989 0.91734 0.85914 0.0
Mg98 Mg 0.31597 0.22123 0.14245 0.0
O99 O 0.3592 0.10897 0.11051 0.0
O100 O 0.27182 -0.00228 0.11866 0.0
Mg101 Mg 0.18344 0.03502 0.16217 0.0
C102 C 0.33515 0.03287 0.10386 0.0
C103 C 0.37532 0.38517 0.10154 0.0
O104 O 0.30072 0.41378 0.11215 0.0
O105 O 0.19442 0.24348 0.11154 0.0
O106 O 0.1128 0.13603 0.13084 0.0
O107 O 0.40148 0.17957 0.18391 0.0
O108 O 0.26474 0.143 0.18108 0.0
C109 C 0.12173 0.20573 0.11423 0.0
C110 C 0.33547 0.14332 0.19781 0.0
O111 O 0.39883 0.30935 0.10915 0.0
Mg112 Mg 0.85079 0.24424 0.14243 0.0
O113 O 0.80753 0.35651 0.11051 0.0
O114 O 0.89487 0.46779 0.11867 0.0
Mg115 Mg -0.01673 0.43051 0.16218 0.0
C116 C 0.83156 0.43263 0.10387 0.0
C117 C 0.79143 0.08032 0.1015 0.0
O118 O 0.86605 0.0517 0.11209 0.0
O119 O 0.97235 0.22205 0.11152 0.0
O120 O 0.05393 0.32959 0.13081 0.0
O121 O 0.76532 0.28586 0.18392 0.0
O122 O 0.902 0.32247 0.18107 0.0
C123 C 0.04498 0.25991 0.11418 0.0
C124 C 0.83131 0.32214 0.19782 0.0
O125 O 0.76792 0.15614 0.10913 0.0
Mg126 Mg 0.81593 0.7214 0.64244 0.0
O127 O 0.85919 0.60913 0.6105 0.0
O128 O 0.77185 0.49785 0.61867 0.0
Mg129 Mg 0.68345 0.53514 0.66217 0.0
C130 C 0.83516 0.53301 0.60387 0.0
C131 C 0.87529 0.88532 0.6015 0.0
O132 O 0.80068 0.91394 0.6121 0.0
O133 O 0.69437 0.7436 0.61152 0.0
O134 O 0.61279 0.63606 0.63081 0.0
O135 O 0.9014 0.67977 0.68392 0.0
O136 O 0.76472 0.64317 0.68106 0.0
C137 C 0.62174 0.70574 0.61418 0.0
C138 C 0.83541 0.6435 0.69782 0.0
O139 O 0.8988 0.80951 0.60914 0.0
Mg140 Mg 0.81599 0.2443 0.29001 0.0
O141 O 0.85924 0.35657 0.32194 0.0
O142 O 0.77189 0.46784 0.31378 0.0
Mg143 Mg 0.68349 0.43055 0.27028 0.0
C144 C 0.83521 0.43269 0.32858 0.0
C145 C 0.87536 0.08039 0.33095 0.0
O146 O 0.80074 0.05177 0.32036 0.0
O147 O 0.69443 0.22208 0.32092 0.0
O148 O 0.61284 0.32963 0.30164 0.0
O149 O 0.90149 0.28593 0.24854 0.0
O150 O 0.76476 0.32251 0.25138 0.0
C151 C 0.6218 0.25995 0.31827 0.0
C152 C 0.83548 0.32218 0.23465 0.0
O153 O 0.89888 0.1562 0.32331 0.0
Mg154 Mg 0.85073 0.72131 0.79001 0.0
O155 O 0.80748 0.60905 0.82194 0.0
O156 O 0.89482 0.49777 0.81377 0.0
Mg157 Mg -0.01678 0.53506 0.77027 0.0
C158 C 0.83151 0.53293 0.82858 0.0
C159 C 0.79136 0.88522 0.83096 0.0
O160 O 0.86598 0.91384 0.82037 0.0
O161 O 0.97229 0.74352 0.82092 0.0
O162 O 0.05388 0.63597 0.80164 0.0
O163 O 0.76523 0.67969 0.74854 0.0
O164 O 0.90196 0.6431 0.75138 0.0
C165 C 0.04492 0.70566 0.81827 0.0
C166 C 0.83124 0.64344 0.73464 0.0
O167 O 0.76785 0.80941 0.82332 0.0
Mg168 Mg 0.59483 0.50018 0.04002 0.0
O169 O 0.70711 0.45692 0.07195 0.0
O170 O 0.81839 0.54426 0.06378 0.0
Mg171 Mg 0.78109 0.63265 0.02027 0.0
C172 C 0.78323 0.48095 0.07858 0.0
C173 C 0.43093 0.44082 0.08097 0.0
O174 O 0.40232 0.51544 0.07039 0.0
O175 O 0.57265 0.62174 0.07094 0.0
O176 O 0.68019 0.70332 0.05164 0.0
O177 O 0.63644 0.41471 -0.00147 0.0
O178 O 0.67305 0.55139 0.00139 0.0
C179 C 0.61051 0.69437 0.06827 0.0
C180 C 0.67271 0.4807 -0.01537 0.0
O181 O 0.50674 0.4173 0.07333 0.0
Mg182 Mg 0.07189 0.46546 0.54002 0.0
O183 O 0.95961 0.50872 0.57195 0.0
O184 O 0.84833 0.42138 0.56377 0.0
Mg185 Mg 0.88563 0.33298 0.52027 0.0
C186 C 0.88348 0.48469 0.57858 0.0
C187 C 0.23579 0.52482 0.58097 0.0
O188 O 0.26441 0.4502 0.57038 0.0
O189 O 0.09407 0.3439 0.57094 0.0
O190 O -0.01347 0.26232 0.55164 0.0
O191 O 0.03028 0.55092 0.49853 0.0
O192 O -0.00633 0.41425 0.50139 0.0
C193 C 0.05621 0.27127 0.56827 0.0
C194 C -0.00598 0.48493 0.48463 0.0
O195 O 0.15998 0.54833 0.57333 0.0
Mg196 Mg 0.59482 0.46539 0.89244 0.0
O197 O 0.70708 0.50864 0.86051 0.0
O198 O 0.81836 0.42129 0.86867 0.0
Mg199 Mg 0.78108 0.33289 0.91217 0.0
C200 C 0.7832 0.4846 0.85387 0.0
C201 C 0.4309 0.52476 0.85151 0.0
O202 O 0.40228 0.45015 0.86211 0.0
O203 O 0.5726 0.34384 0.86153 0.0
O204 O 0.68015 0.26224 0.88081 0.0
O205 O 0.63647 0.55089 0.93392 0.0
O206 O 0.67305 0.41416 0.93107 0.0
C207 C 0.61046 0.2712 0.86419 0.0
C208 C 0.67272 0.48487 0.94781 0.0
O209 O 0.50671 0.54828 0.85914 0.0
Mg210 Mg 0.0719 0.50023 0.39244 0.0
O211 O 0.95964 0.45698 0.36051 0.0
O212 O 0.84836 0.54432 0.36867 0.0
Mg213 Mg 0.88564 0.63274 0.41217 0.0
C214 C 0.88352 0.48101 0.35387 0.0
C215 C 0.23583 0.44085 0.35151 0.0
O216 O 0.26444 0.51546 0.36211 0.0
O217 O 0.09412 0.62178 0.36153 0.0
O218 O -0.01343 0.70338 0.38081 0.0
O219 O 0.03026 0.41474 0.43392 0.0
O220 O -0.00633 0.55147 0.43107 0.0
C221 C 0.05626 0.69441 0.36419 0.0
C222 C -0.006 0.48075 0.44781 0.0
O223 O 0.16001 0.41734 0.35914 0.0
loop_
_geom_bond_atom_site_label_1
_geom_bond_atom_site_label_2
_geom_bond_distance
_geom_bond_site_symmetry_2
_ccdc_geom_bond_type
Mg0 O1 2.028 1_545 S
Mg0 O7 1.986 . S
Mg0 O9 2.114 1_545 S
Mg0 O10 2.251 . S
Mg0 O13 2.010 1_545 S
O1 Mg0 2.028 1_565 S
O1 C4 1.250 . S
O2 Mg3 2.028 . S
O2 C4 1.248 1_545 S
Mg3 O2 2.028 . S
Mg3 O8 2.032 . S
Mg3 O10 2.079 . S
C4 O1 1.250 . S
C4 O2 1.248 1_565 S
C5 O6 1.264 . S
C5 O13 1.249 1_655 S
O6 C5 1.264 . S
O7 Mg0 1.986 . S
O7 C11 1.246 . S
O8 Mg3 2.032 . S
O8 C11 1.259 . S
O9 Mg0 2.114 1_565 S
O9 C12 1.252 1_565 S
O10 Mg0 2.251 . S
O10 Mg3 2.079 . S
O10 C12 1.273 . S
C11 O7 1.246 . S
C11 O8 1.259 . S
C12 O9 1.252 1_545 S
C12 O10 1.273 . S
O13 Mg0 2.010 1_565 S
O13 C5 1.249 1_455 S
Mg14 O15 2.028 . S
Mg14 O21 1.986 . S
Mg14 O23 2.114 . S
Mg14 O24 2.251 . S
Mg14 O27 2.010 . S
O15 Mg14 2.028 . S
O15 C18 1.250 . S
O16 Mg17 2.028 . S
O16 C18 1.248 . S
Mg17 O16 2.028 . S
Mg17 O22 2.032 . S
Mg17 O24 2.079 . S
C18 O15 1.250 . S
C18 O16 1.248 . S
C19 O20 1.264 . S
C19 O27 1.249 . S
O20 C19 1.264 . S
O21 Mg14 1.986 . S
O21 C25 1.246 . S
O22 Mg17 2.032 . S
O22 C25 1.259 . S
O23 Mg14 2.114 . S
O23 C26 1.252 . S
O24 Mg14 2.251 . S
O24 Mg17 2.079 . S
O24 C26 1.273 . S
C25 O21 1.246 . S
C25 O22 1.259 . S
C26 O23 1.252 . S
C26 O24 1.273 . S
O27 Mg14 2.010 . S
O27 C19 1.249 . S
Mg28 O29 2.028 1_565 S
Mg28 O35 1.986 . S
Mg28 O37 2.114 1_565 S
Mg28 O38 2.251 . S
Mg28 O41 2.010 1_565 S
O29 Mg28 2.028 1_545 S
O29 C32 1.250 . S
O30 Mg31 2.028 . S
O30 C32 1.248 1_565 S
Mg31 O30 2.028 . S
Mg31 O36 2.032 . S
Mg31 O38 2.079 . S
C32 O29 1.250 . S
C32 O30 1.248 1_545 S
C33 O34 1.264 . S
C33 O41 1.249 . S
O34 C33 1.264 . S
O35 Mg28 1.986 . S
O35 C39 1.246 . S
O36 Mg31 2.032 . S
O36 C39 1.259 . S
O37 Mg28 2.114 1_545 S
O37 C40 1.252 1_545 S
O38 Mg28 2.251 . S
O38 Mg31 2.079 . S
O38 C40 1.273 . S
C39 O35 1.246 . S
C39 O36 1.259 . S
C40 O37 1.252 1_565 S
C40 O38 1.273 . S
O41 Mg28 2.010 1_545 S
O41 C33 1.249 . S
Mg42 O43 2.028 . S
Mg42 O49 1.986 . S
Mg42 O51 2.114 . S
Mg42 O52 2.251 . S
Mg42 O55 2.010 . S
O43 Mg42 2.028 . S
O43 C46 1.250 . S
O44 Mg45 2.028 . S
O44 C46 1.248 . S
Mg45 O44 2.028 . S
Mg45 O50 2.032 . S
Mg45 O52 2.079 . S
C46 O43 1.250 . S
C46 O44 1.248 . S
C47 O48 1.264 . S
C47 O55 1.249 . S
O48 C47 1.264 . S
O49 Mg42 1.986 . S
O49 C53 1.246 . S
O50 Mg45 2.032 . S
O50 C53 1.259 . S
O51 Mg42 2.114 . S
O51 C54 1.252 . S
O52 Mg42 2.251 . S
O52 Mg45 2.079 . S
O52 C54 1.273 . S
C53 O49 1.246 . S
C53 O50 1.259 . S
C54 O51 1.252 . S
C54 O52 1.273 . S
O55 Mg42 2.010 . S
O55 C47 1.249 . S
Mg56 O57 2.028 1_565 S
Mg56 O63 1.986 . S
Mg56 O65 2.114 1_565 S
Mg56 O66 2.251 . S
Mg56 O69 2.010 1_565 S
O57 Mg56 2.028 1_545 S
O57 C60 1.250 . S
O58 Mg59 2.028 . S
O58 C60 1.248 1_565 S
Mg59 O58 2.028 . S
Mg59 O64 2.032 . S
Mg59 O66 2.079 . S
C60 O57 1.250 . S
C60 O58 1.248 1_545 S
C61 O62 1.264 . S
C61 O69 1.249 1_655 S
O62 C61 1.264 . S
O63 Mg56 1.986 . S
O63 C67 1.246 . S
O64 Mg59 2.032 . S
O64 C67 1.259 . S
O65 Mg56 2.114 1_545 S
O65 C68 1.252 1_545 S
O66 Mg56 2.251 . S
O66 Mg59 2.079 . S
O66 C68 1.273 . S
C67 O63 1.246 . S
C67 O64 1.259 . S
C68 O65 1.252 1_565 S
C68 O66 1.273 . S
O69 Mg56 2.010 1_545 S
O69 C61 1.249 1_455 S
Mg70 O71 2.028 . S
Mg70 O77 1.986 . S
Mg70 O79 2.114 . S
Mg70 O80 2.251 . S
Mg70 O83 2.010 . S
O71 Mg70 2.028 . S
O71 C74 1.250 . S
O72 Mg73 2.028 . S
O72 C74 1.248 . S
Mg73 O72 2.028 . S
Mg73 O78 2.032 . S
Mg73 O80 2.079 . S
C74 O71 1.250 . S
C74 O72 1.248 . S
C75 O76 1.264 . S
C75 O83 1.249 . S
O76 C75 1.264 . S
O77 Mg70 1.986 . S
O77 C81 1.246 . S
O78 Mg73 2.032 . S
O78 C81 1.259 . S
O79 Mg70 2.114 . S
O79 C82 1.252 . S
O80 Mg70 2.251 . S
O80 Mg73 2.079 . S
O80 C82 1.273 . S
C81 O77 1.246 . S
C81 O78 1.259 . S
C82 O79 1.252 . S
C82 O80 1.273 . S
O83 Mg70 2.010 . S
O83 C75 1.249 . S
Mg84 O85 2.028 1_545 S
Mg84 O91 1.986 . S
Mg84 O93 2.114 1_545 S
Mg84 O94 2.251 . S
Mg84 O97 2.010 1_545 S
O85 Mg84 2.028 1_565 S
O85 C88 1.250 . S
O86 Mg87 2.028 . S
O86 C88 1.248 1_545 S
Mg87 O86 2.028 . S
Mg87 O92 2.032 . S
Mg87 O94 2.079 . S
C88 O85 1.250 . S
C88 O86 1.248 1_565 S
C89 O90 1.264 . S
C89 O97 1.249 . S
O90 C89 1.264 . S
O91 Mg84 1.986 . S
O91 C95 1.246 . S
O92 Mg87 2.032 . S
O92 C95 1.259 . S
O93 Mg84 2.114 1_565 S
O93 C96 1.252 1_565 S
O94 Mg84 2.251 . S
O94 Mg87 2.079 . S
O94 C96 1.273 . S
C95 O91 1.246 . S
C95 O92 1.259 . S
C96 O93 1.252 1_545 S
C96 O94 1.273 . S
O97 Mg84 2.010 1_565 S
O97 C89 1.249 . S
Mg98 O99 2.028 . S
Mg98 O105 1.986 . S
Mg98 O107 2.114 . S
Mg98 O108 2.251 . S
Mg98 O111 2.010 . S
O99 Mg98 2.028 . S
O99 C102 1.250 . S
O100 Mg101 2.028 . S
O100 C102 1.248 . S
Mg101 O100 2.028 . S
Mg101 O106 2.032 . S
Mg101 O108 2.079 . S
C102 O99 1.250 . S
C102 O100 1.248 . S
C103 O104 1.264 . S
C103 O111 1.249 . S
O104 C103 1.264 . S
O105 Mg98 1.986 . S
O105 C109 1.246 . S
O106 Mg101 2.032 . S
O106 C109 1.259 . S
O107 Mg98 2.114 . S
O107 C110 1.252 . S
O108 Mg98 2.251 . S
O108 Mg101 2.079 . S
O108 C110 1.273 . S
C109 O105 1.246 . S
C109 O106 1.259 . S
C110 O107 1.252 . S
C110 O108 1.273 . S
O111 Mg98 2.010 . S
O111 C103 1.249 . S
Mg112 O113 2.028 . S
Mg112 O119 1.986 1_655 S
Mg112 O121 2.114 . S
Mg112 O122 2.251 . S
Mg112 O125 2.010 . S
O113 Mg112 2.028 . S
O113 C116 1.250 . S
O114 Mg115 2.028 . S
O114 C116 1.248 . S
Mg115 O114 2.028 . S
Mg115 O120 2.032 1_655 S
Mg115 O122 2.079 . S
C116 O113 1.250 . S
C116 O114 1.248 . S
C117 O118 1.264 . S
C117 O125 1.249 . S
O118 C117 1.264 . S
O119 Mg112 1.986 1_455 S
O119 C123 1.246 . S
O120 Mg115 2.032 1_455 S
O120 C123 1.259 . S
O121 Mg112 2.114 . S
O121 C124 1.252 . S
O122 Mg112 2.251 . S
O122 Mg115 2.079 . S
O122 C124 1.273 . S
C123 O119 1.246 . S
C123 O120 1.259 . S
C124 O121 1.252 . S
C124 O122 1.273 . S
O125 Mg112 2.010 . S
O125 C117 1.249 . S
Mg126 O127 2.028 . S
Mg126 O133 1.986 . S
Mg126 O135 2.114 . S
Mg126 O136 2.251 . S
Mg126 O139 2.010 . S
O127 Mg126 2.028 . S
O127 C130 1.250 . S
O128 Mg129 2.028 . S
O128 C130 1.248 . S
Mg129 O128 2.028 . S
Mg129 O134 2.032 . S
Mg129 O136 2.079 . S
C130 O127 1.250 . S
C130 O128 1.248 . S
C131 O132 1.264 . S
C131 O139 1.249 . S
O132 C131 1.264 . S
O133 Mg126 1.986 . S
O133 C137 1.246 . S
O134 Mg129 2.032 . S
O134 C137 1.259 . S
O135 Mg126 2.114 . S
O135 C138 1.252 . S
O136 Mg126 2.251 . S
O136 Mg129 2.079 . S
O136 C138 1.273 . S
C137 O133 1.246 . S
C137 O134 1.259 . S
C138 O135 1.252 . S
C138 O136 1.273 . S
O139 Mg126 2.010 . S
O139 C131 1.249 . S
Mg140 O141 2.028 . S
Mg140 O147 1.986 . S
Mg140 O149 2.114 . S
Mg140 O150 2.251 . S
Mg140 O153 2.010 . S
O141 Mg140 2.028 . S
O141 C144 1.250 . S
O142 Mg143 2.028 . S
O142 C144 1.248 . S
Mg143 O142 2.028 . S
Mg143 O148 2.032 . S
Mg143 O150 2.079 . S
C144 O141 1.250 . S
C144 O142 1.248 . S
C145 O146 1.264 . S
C145 O153 1.249 . S
O146 C145 1.264 . S
O147 Mg140 1.986 . S
O147 C151 1.246 . S
O148 Mg143 2.032 . S
O148 C151 1.259 . S
O149 Mg140 2.114 . S
O149 C152 1.252 . S
O150 Mg140 2.251 . S
O150 Mg143 2.079 . S
O150 C152 1.273 . S
C151 O147 1.246 . S
C151 O148 1.259 . S
C152 O149 1.252 . S
C152 O150 1.273 . S
O153 Mg140 2.010 . S
O153 C145 1.249 . S
Mg154 O155 2.028 . S
Mg154 O161 1.986 1_655 S
Mg154 O163 2.114 . S
Mg154 O164 2.251 . S
Mg154 O167 2.010 . S
O155 Mg154 2.028 . S
O155 C158 1.250 . S
O156 Mg157 2.028 . S
O156 C158 1.248 . S
Mg157 O156 2.028 . S
Mg157 O162 2.032 1_655 S
Mg157 O164 2.079 . S
C158 O155 1.250 . S
C158 O156 1.248 . S
C159 O160 1.264 . S
C159 O167 1.249 . S
O160 C159 1.264 . S
O161 Mg154 1.986 1_455 S
O161 C165 1.246 . S
O162 Mg157 2.032 1_455 S
O162 C165 1.259 . S
O163 Mg154 2.114 . S
O163 C166 1.252 . S
O164 Mg154 2.251 . S
O164 Mg157 2.079 . S
O164 C166 1.273 . S
C165 O161 1.246 . S
C165 O162 1.259 . S
C166 O163 1.252 . S
C166 O164 1.273 . S
O167 Mg154 2.010 . S
O167 C159 1.249 . S
Mg168 O169 2.028 . S
Mg168 O175 1.986 . S
Mg168 O177 2.114 . S
Mg168 O178 2.251 . S
Mg168 O181 2.010 . S
O169 Mg168 2.028 . S
O169 C172 1.250 . S
O170 Mg171 2.028 . S
O170 C172 1.248 . S
Mg171 O170 2.028 . S
Mg171 O176 2.032 . S
Mg171 O178 2.079 . S
C172 O169 1.250 . S
C172 O170 1.248 . S
C173 O174 1.264 . S
C173 O181 1.249 . S
O174 C173 1.264 . S
O175 Mg168 1.986 . S
O175 C179 1.246 . S
O176 Mg171 2.032 . S
O176 C179 1.259 . S
O177 Mg168 2.114 . S
O177 C180 1.252 . S
O178 Mg168 2.251 . S
O178 Mg171 2.079 . S
O178 C180 1.273 . S
C179 O175 1.246 . S
C179 O176 1.259 . S
C180 O177 1.252 . S
C180 O178 1.273 . S
O181 Mg168 2.010 . S
O181 C173 1.249 . S
Mg182 O183 2.028 1_455 S
Mg182 O189 1.986 . S
Mg182 O191 2.114 . S
Mg182 O192 2.251 1_455 S
Mg182 O195 2.010 . S
O183 Mg182 2.028 1_655 S
O183 C186 1.250 . S
O184 Mg185 2.028 . S
O184 C186 1.248 . S
Mg185 O184 2.028 . S
Mg185 O190 2.032 . S
Mg185 O192 2.079 . S
C186 O183 1.250 . S
C186 O184 1.248 . S
C187 O188 1.264 . S
C187 O195 1.249 . S
O188 C187 1.264 . S
O189 Mg182 1.986 . S
O189 C193 1.246 . S
O190 Mg185 2.032 . S
O190 C193 1.259 1_655 S
O191 Mg182 2.114 . S
O191 C194 1.252 . S
O192 Mg182 2.251 1_655 S
O192 Mg185 2.079 . S
O192 C194 1.273 1_655 S
C193 O189 1.246 . S
C193 O190 1.259 1_455 S
C194 O191 1.252 . S
C194 O192 1.273 1_455 S
O195 Mg182 2.010 . S
O195 C187 1.249 . S
Mg196 O197 2.028 . S
Mg196 O203 1.986 . S
Mg196 O205 2.114 . S
Mg196 O206 2.251 . S
Mg196 O209 2.010 . S
O197 Mg196 2.028 . S
O197 C200 1.250 . S
O198 Mg199 2.028 . S
O198 C200 1.248 . S
Mg199 O198 2.028 . S
Mg199 O204 2.032 . S
Mg199 O206 2.079 . S
C200 O197 1.250 . S
C200 O198 1.248 . S
C201 O202 1.264 . S
C201 O209 1.249 . S
O202 C201 1.264 . S
O203 Mg196 1.986 . S
O203 C207 1.246 . S
O204 Mg199 2.032 . S
O204 C207 1.259 . S
O205 Mg196 2.114 . S
O205 C208 1.252 . S
O206 Mg196 2.251 . S
O206 Mg199 2.079 . S
O206 C208 1.273 . S
C207 O203 1.246 . S
C207 O204 1.259 . S
C208 O205 1.252 . S
C208 O206 1.273 . S
O209 Mg196 2.010 . S
O209 C201 1.249 . S
Mg210 O211 2.028 1_455 S
Mg210 O217 1.986 . S
Mg210 O219 2.114 . S
Mg210 O220 2.251 1_455 S
Mg210 O223 2.010 . S
O211 Mg210 2.028 1_655 S
O211 C214 1.250 . S
O212 Mg213 2.028 . S
O212 C214 1.248 . S
Mg213 O212 2.028 . S
Mg213 O218 2.032 . S
Mg213 O220 2.079 . S
C214 O211 1.250 . S
C214 O212 1.248 . S
C215 O216 1.264 . S
C215 O223 1.249 . S
O216 C215 1.264 . S
O217 Mg210 1.986 . S
O217 C221 1.246 . S
O218 Mg213 2.032 . S
O218 C221 1.259 1_655 S
O219 Mg210 2.114 . S
O219 C222 1.252 . S
O220 Mg210 2.251 1_655 S
O220 Mg213 2.079 . S
O220 C222 1.273 1_655 S
C221 O217 1.246 . S
C221 O218 1.259 1_455 S
C222 O219 1.252 . S
C222 O220 1.273 1_455 S
O223 Mg210 2.010 . S
O223 C215 1.249 . S
C11 C193 1.839 . S
C165 C25 1.839 . S
C179 C39 1.840 . S
C151 C53 1.840 . S
C67 C221 1.839 . S
C81 C137 1.840 . S
C207 C95 1.840 . S
C109 C123 1.839 . S
C68 C12 1.645 1_565 S
C26 C82 1.645 . S
C40 C96 1.645 1_564 S
C110 C54 1.645 . S
C124 C152 1.645 . S
C138 C166 1.645 . S
C208 C180 1.645 1_556 S
C194 C222 1.645 . S
C74 C4 1.324 . S
C18 C88 1.323 . S
C32 C102 1.323 . S
C60 C46 1.324 . S
C61 C145 0.767 . S
C33 C117 0.767 . S
C159 C89 0.767 . S
C131 C5 0.767 . S
C116 C172 1.324 . S
C144 C214 1.324 . S
C186 C130 1.324 . S
C158 C200 1.324 . S
C201 C19 0.767 . S
C187 C75 0.767 . S
C215 C47 0.767 . S
C173 C103 0.767 . S
