# Generated by pormake.
# Topology lon, (4)-cn, num edge types: 1
# Building blocks:
#     Node 0, Type 0, BuildingBlock: GALJAG_clean_sbu_0, # of connection points: 4
#     Node 1, Type 0, BuildingBlock: GALJAG_clean_sbu_0, # of connection points: 4
#     Node 2, Type 0, BuildingBlock: GALJAG_clean_sbu_0, # of connection points: 4
#     Node 3, Type 0, BuildingBlock: GALJAG_clean_sbu_0, # of connection points: 4
#     Edge 4, Type (0, 0), BuildingBlock: XIVTED_clean_linker_0, # of connection points: 2
#     Edge 5, Type (0, 0), BuildingBlock: XIVTED_clean_linker_0, # of connection points: 2
#     Edge 6, Type (0, 0), BuildingBlock: XIVTED_clean_linker_0, # of connection points: 2
#     Edge 7, Type (0, 0), BuildingBlock: XIVTED_clean_linker_0, # of connection points: 2
#     Edge 8, Type (0, 0), BuildingBlock: XIVTED_clean_linker_0, # of connection points: 2
#     Edge 9, Type (0, 0), BuildingBlock: XIVTED_clean_linker_0, # of connection points: 2
#     Edge 10, Type (0, 0), BuildingBlock: XIVTED_clean_linker_0, # of connection points: 2
#     Edge 11, Type (0, 0), BuildingBlock: XIVTED_clean_linker_0, # of connection points: 2
# Relax obj value: 0.209
# Max RMSD: 0.226
# Mean RMSD: 0.214
data_MOF--net-lon--node1-GALJAG_clean_sbu_0--edge1-XIVTED_clean_linker_0
_symmetry_space_group_name_H-M    P1
_symmetry_Int_Tables_number       1
_symmetry_cell_setting            triclinic
loop_
_symmetry_equiv_pos_as_xyz
'x, y, z'
_cell_length_a     23.29528
_cell_length_b     25.946138
_cell_length_c     40.781493
_cell_angle_alpha  97.40279
_cell_angle_beta   89.682723
_cell_angle_gamma 116.71171
loop_
_atom_site_label
_atom_site_type_symbol
_atom_site_fract_x
_atom_site_fract_y
_atom_site_fract_z
_atom_type_partial_charge
In0 In 0.37569 0.69484 0.0593 0.0
O1 O 0.26733 0.66179 0.06142 0.0
O2 O 0.30177 0.63254 0.01823 0.0
C3 C 0.43172 0.79952 0.0369 0.0
C4 C 0.37384 0.70845 0.12601 0.0
C5 C 0.43364 0.62672 0.04177 0.0
O6 O 0.3836 0.75617 0.02211 0.0
O7 O 0.45173 0.79034 0.06311 0.0
O8 O 0.38187 0.60948 0.05645 0.0
O9 O 0.45699 0.6789 0.03624 0.0
C10 C 0.25375 0.63039 0.03355 0.0
O11 O 0.41053 0.69107 0.11072 0.0
O12 O 0.3395 0.72065 0.10773 0.0
In13 In 0.61549 0.3245 0.5594 0.0
O14 O 0.52691 0.23661 0.54687 0.0
O15 O 0.61846 0.24065 0.53721 0.0
C16 C 0.55067 0.38074 0.54044 0.0
C17 C 0.62327 0.31547 0.6243 0.0
C18 C 0.73038 0.38935 0.53556 0.0
O19 O 0.5508 0.33709 0.52289 0.0
O20 O 0.58298 0.39597 0.56776 0.0
O21 O 0.71603 0.40129 0.56445 0.0
O22 O 0.68676 0.34481 0.51866 0.0
C23 C 0.55833 0.20965 0.53627 0.0
O24 O 0.66494 0.31484 0.60463 0.0
O25 O 0.57785 0.3213 0.61135 0.0
In26 In 0.28781 0.66625 0.43156 0.0
O27 O 0.28394 0.752 0.44778 0.0
O28 O 0.37522 0.7524 0.44989 0.0
C29 C 0.16685 0.60989 0.45105 0.0
C30 C 0.3058 0.67404 0.36651 0.0
C31 C 0.33783 0.60217 0.45581 0.0
O32 O 0.21267 0.64843 0.47005 0.0
O33 O 0.18185 0.59973 0.422 0.0
O34 O 0.3039 0.5854 0.42895 0.0
O35 O 0.34649 0.65123 0.47045 0.0
C36 C 0.34368 0.7812 0.45457 0.0
O37 O 0.34299 0.66606 0.38526 0.0
O38 O 0.25875 0.6772 0.3804 0.0
In39 In 0.67525 0.29115 0.93094 0.0
O40 O 0.70666 0.28018 0.87832 0.0
O41 O 0.62003 0.28795 0.88436 0.0
C42 C 0.79985 0.3537 0.95256 0.0
C43 C 0.62229 0.3608 0.95475 0.0
C44 C 0.62655 0.18448 0.95122 0.0
O45 O 0.7831 0.32227 0.92461 0.0
O46 O 0.75394 0.35225 0.96955 0.0
O47 O 0.6708 0.22935 0.96733 0.0
O48 O 0.60689 0.19307 0.92475 0.0
C49 C 0.65953 0.28257 0.86466 0.0
O50 O 0.59952 0.3084 0.95984 0.0
O51 O 0.67082 0.37735 0.93754 0.0
H52 H 0.29098 0.73531 0.16369 0.0
H53 H 0.40125 0.66471 0.33104 0.0
H54 H 0.44213 0.6836 0.17034 0.0
H55 H 0.23745 0.69889 0.32208 0.0
H56 H 0.42111 0.6773 0.27302 0.0
H57 H 0.27565 0.72927 0.22271 0.0
C58 C 0.32132 0.72318 0.17765 0.0
C59 C 0.3678 0.70981 0.16212 0.0
C60 C 0.3808 0.68205 0.28371 0.0
C61 C 0.35026 0.7024 0.22955 0.0
C62 C 0.36941 0.67481 0.31682 0.0
C63 C 0.31751 0.6806 0.33133 0.0
C64 C 0.34012 0.69539 0.26497 0.0
C65 C 0.27788 0.69385 0.31181 0.0
C66 C 0.31237 0.7195 0.2113 0.0
C67 C 0.40568 0.6942 0.18134 0.0
N68 N 0.29003 0.70083 0.27962 0.0
N69 N 0.39593 0.69075 0.21403 0.0
H70 H 0.53885 0.3143 0.67139 0.0
H71 H 0.74058 0.2766 0.81705 0.0
H72 H 0.71605 0.30163 0.65731 0.0
H73 H 0.56321 0.28916 0.83056 0.0
H74 H 0.73096 0.2826 0.75807 0.0
H75 H 0.5458 0.3029 0.72959 0.0
C76 C 0.57924 0.30915 0.68057 0.0
C77 C 0.62702 0.30904 0.65955 0.0
C78 C 0.69401 0.2838 0.77391 0.0
C79 C 0.63529 0.29583 0.72608 0.0
C80 C 0.69942 0.28024 0.80755 0.0
C81 C 0.65267 0.28248 0.82869 0.0
C82 C 0.64151 0.28973 0.76139 0.0
C83 C 0.60039 0.28733 0.81513 0.0
C84 C 0.58317 0.30256 0.71379 0.0
C85 C 0.67823 0.30208 0.67271 0.0
N86 N 0.59633 0.29098 0.78237 0.0
N87 N 0.68105 0.29581 0.70515 0.0
H88 H 0.39014 0.51274 0.05006 0.0
H89 H 0.66728 0.47558 0.94854 0.0
H90 H 0.54329 0.65232 0.00844 0.0
H91 H 0.51647 0.33615 0.99143 0.0
H92 H 0.62311 0.54114 0.97092 0.0
H93 H 0.43656 0.44776 0.02972 0.0
C94 C 0.43374 0.52977 0.03676 0.0
C95 C 0.46292 0.58795 0.03086 0.0
C96 C 0.59961 0.49624 0.97548 0.0
C97 C 0.51613 0.51382 0.00741 0.0
C98 C 0.62475 0.45874 0.96266 0.0
C99 C 0.59535 0.40033 0.9681 0.0
C100 C 0.54454 0.4752 0.99386 0.0
C101 C 0.54053 0.38089 0.98664 0.0
C102 C 0.46016 0.49263 0.02512 0.0
C103 C 0.51925 0.60773 0.01349 0.0
N104 N 0.5168 0.41827 -0.00116 0.0
N105 N 0.54395 0.57066 0.0023 0.0
H106 H 0.06071 0.52224 0.41575 0.0
H107 H 0.83287 0.48477 0.56802 0.0
H108 H 0.12381 0.62658 0.51192 0.0
H109 H 0.77188 0.37284 0.47405 0.0
H110 H 0.93835 0.54022 0.54689 0.0
H111 H 0.95302 0.4698 0.43561 0.0
C112 C 0.05183 0.53418 0.44101 0.0
C113 C 0.10121 0.57868 0.46226 0.0
C114 C 0.90191 0.5036 0.53084 0.0
C115 C 0.97837 0.51899 0.48515 0.0
C116 C 0.84167 0.47197 0.5429 0.0
C117 C 0.79369 0.42408 0.52277 0.0
C118 C 0.91427 0.48726 0.49839 0.0
C119 C 0.80762 0.40943 0.49041 0.0
C120 C -0.00959 0.50423 0.45235 0.0
C121 C 0.08713 0.59245 0.49474 0.0
N122 N 0.86671 0.44085 0.47923 0.0
N123 N 0.02705 0.56267 0.50519 0.0
H124 H 0.53149 0.0813 0.92047 0.0
H125 H 0.53289 0.90066 0.06562 0.0
H126 H 0.6591 0.1569 0.00845 0.0
H127 H 0.39979 0.82738 0.97967 0.0
H128 H 0.58201 0.99424 0.04438 0.0
H129 H 0.48502 0.98704 0.94089 0.0
C130 C 0.54978 0.078 0.94407 0.0
C131 C 0.59911 0.12695 0.96283 0.0
C132 C 0.54209 0.95769 0.03014 0.0
C133 C 0.54613 0.01933 0.98642 0.0
C134 C 0.51407 0.90428 0.04226 0.0
C135 C 0.46215 0.85627 0.02439 0.0
C136 C 0.51809 0.96308 -0.0001 0.0
C137 C 0.43966 0.86334 0.99427 0.0
C138 C 0.52322 0.02421 0.95574 0.0
C139 C 0.62109 0.12023 0.9932 0.0
N140 N 0.46775 0.91573 0.98298 0.0
N141 N 0.59438 0.06744 0.00408 0.0
H142 H 0.54798 0.47903 0.57235 0.0
H143 H 0.32847 0.49693 0.42792 0.0
H144 H 0.47593 0.35398 0.48347 0.0
H145 H 0.41127 0.62868 0.51335 0.0
H146 H 0.37757 0.44131 0.44934 0.0
H147 H 0.49362 0.5319 0.55265 0.0
C148 C 0.52053 0.46262 0.54874 0.0
C149 C 0.51656 0.41217 0.52946 0.0
C150 C 0.38496 0.48234 0.46344 0.0
C151 C 0.45434 0.47237 0.50676 0.0
C152 C 0.3569 0.51407 0.45123 0.0
C153 C 0.366 0.56754 0.46885 0.0
C154 C 0.42236 0.5042 0.49353 0.0
C155 C 0.40318 0.58769 0.49894 0.0
C156 C 0.48959 0.49283 0.53749 0.0
C157 C 0.48036 0.39279 0.49908 0.0
N158 N 0.43009 0.55603 0.51031 0.0
N159 N 0.45074 0.42297 0.48865 0.0
H160 H 0.14351 0.61561 0.06344 0.0
H161 H 0.90872 0.37003 0.91986 0.0
H162 H 0.21203 0.55646 0.97499 0.0
H163 H 0.84483 0.425 0.01129 0.0
H164 H 0.02016 0.43836 0.93885 0.0
H165 H 0.0333 0.54732 0.04362 0.0
C166 C 0.13527 0.58843 0.03973 0.0
C167 C 0.18688 0.59164 0.02082 0.0
C168 C 0.98171 0.43528 0.95476 0.0
C169 C 0.06083 0.51301 -0.00198 0.0
C170 C 0.91821 0.39622 0.94398 0.0
C171 C 0.86759 0.39192 0.96405 0.0
C172 C -0.00558 0.47023 0.98577 0.0
C173 C 0.88242 0.42693 -0.00498 0.0
C174 C 0.07234 0.54928 0.02846 0.0
C175 C 0.17351 0.55533 0.99032 0.0
N176 N 0.94441 0.46466 0.00487 0.0
N177 N 0.1117 0.51739 0.97986 0.0
H178 H 0.61656 0.14145 0.51538 0.0
H179 H 0.28508 0.85116 0.46961 0.0
H180 H 0.42965 0.13476 0.52921 0.0
H181 H 0.47191 0.85442 0.46716 0.0
H182 H 0.33705 0.9558 0.48943 0.0
H183 H 0.56434 0.03694 0.49546 0.0
C184 C 0.56449 0.11794 0.51419 0.0
C185 C 0.52731 0.1467 0.52396 0.0
C186 C 0.36669 0.93362 0.4846 0.0
C187 C 0.46723 0.0272 0.50119 0.0
C188 C 0.33706 0.87394 0.47327 0.0
C189 C 0.37431 0.84418 0.46677 0.0
C190 C 0.43406 0.96377 0.48932 0.0
C191 C 0.44141 0.87573 0.47192 0.0
C192 C 0.53471 0.05828 0.50287 0.0
C193 C 0.46008 0.1142 0.52193 0.0
N194 N 0.46917 0.93386 0.48284 0.0
N195 N 0.43215 0.05614 0.51073 0.0
loop_
_geom_bond_atom_site_label_1
_geom_bond_atom_site_label_2
_geom_bond_distance
_geom_bond_site_symmetry_2
_ccdc_geom_bond_type
In0 O1 2.294 . S
In0 O2 2.326 . S
In0 O6 2.266 . S
In0 O7 2.326 . S
In0 O8 2.266 . S
In0 O9 2.326 . S
In0 O11 2.294 . S
In0 O12 2.326 . S
O1 In0 2.294 . S
O1 C10 1.240 . S
O2 In0 2.326 . S
O2 C10 1.252 . S
C3 O6 1.252 . S
C3 O7 1.260 . S
C4 O11 1.240 . S
C4 O12 1.252 . S
C5 O8 1.252 . S
C5 O9 1.260 . S
O6 In0 2.266 . S
O6 C3 1.252 . S
O7 In0 2.326 . S
O7 C3 1.260 . S
O8 In0 2.266 . S
O8 C5 1.252 . S
O9 In0 2.326 . S
O9 C5 1.260 . S
C10 O1 1.240 . S
C10 O2 1.252 . S
O11 In0 2.294 . S
O11 C4 1.240 . S
O12 In0 2.326 . S
O12 C4 1.252 . S
In13 O14 2.294 . S
In13 O15 2.326 . S
In13 O19 2.266 . S
In13 O20 2.326 . S
In13 O21 2.266 . S
In13 O22 2.326 . S
In13 O24 2.294 . S
In13 O25 2.326 . S
O14 In13 2.294 . S
O14 C23 1.240 . S
O15 In13 2.326 . S
O15 C23 1.252 . S
C16 O19 1.252 . S
C16 O20 1.260 . S
C17 O24 1.240 . S
C17 O25 1.252 . S
C18 O21 1.252 . S
C18 O22 1.260 . S
O19 In13 2.266 . S
O19 C16 1.252 . S
O20 In13 2.326 . S
O20 C16 1.260 . S
O21 In13 2.266 . S
O21 C18 1.252 . S
O22 In13 2.326 . S
O22 C18 1.260 . S
C23 O14 1.240 . S
C23 O15 1.252 . S
O24 In13 2.294 . S
O24 C17 1.240 . S
O25 In13 2.326 . S
O25 C17 1.252 . S
In26 O27 2.294 . S
In26 O28 2.326 . S
In26 O32 2.266 . S
In26 O33 2.326 . S
In26 O34 2.266 . S
In26 O35 2.326 . S
In26 O37 2.294 . S
In26 O38 2.326 . S
O27 In26 2.294 . S
O27 C36 1.240 . S
O28 In26 2.326 . S
O28 C36 1.252 . S
C29 O32 1.252 . S
C29 O33 1.260 . S
C30 O37 1.240 . S
C30 O38 1.252 . S
C31 O34 1.252 . S
C31 O35 1.260 . S
O32 In26 2.266 . S
O32 C29 1.252 . S
O33 In26 2.326 . S
O33 C29 1.260 . S
O34 In26 2.266 . S
O34 C31 1.252 . S
O35 In26 2.326 . S
O35 C31 1.260 . S
C36 O27 1.240 . S
C36 O28 1.252 . S
O37 In26 2.294 . S
O37 C30 1.240 . S
O38 In26 2.326 . S
O38 C30 1.252 . S
In39 O40 2.294 . S
In39 O41 2.326 . S
In39 O45 2.266 . S
In39 O46 2.326 . S
In39 O47 2.266 . S
In39 O48 2.326 . S
In39 O50 2.294 . S
In39 O51 2.326 . S
O40 In39 2.294 . S
O40 C49 1.240 . S
O41 In39 2.326 . S
O41 C49 1.252 . S
C42 O45 1.252 . S
C42 O46 1.260 . S
C43 O50 1.240 . S
C43 O51 1.252 . S
C44 O47 1.252 . S
C44 O48 1.260 . S
O45 In39 2.266 . S
O45 C42 1.252 . S
O46 In39 2.326 . S
O46 C42 1.260 . S
O47 In39 2.266 . S
O47 C44 1.252 . S
O48 In39 2.326 . S
O48 C44 1.260 . S
C49 O40 1.240 . S
C49 O41 1.252 . S
O50 In39 2.294 . S
O50 C43 1.240 . S
O51 In39 2.326 . S
O51 C43 1.252 . S
H52 C58 0.930 . S
H53 C62 0.930 . S
H54 C67 0.929 . S
H55 C65 0.929 . S
H56 C60 0.929 . S
H57 C66 0.929 . S
C58 H52 0.930 . S
C58 C59 1.367 . S
C58 C66 1.378 . S
C59 C58 1.367 . S
C59 C67 1.433 . S
C60 H56 0.929 . S
C60 C62 1.378 . S
C60 C64 1.350 . S
C61 C64 1.463 . S
C61 C66 1.350 . S
C61 N69 1.427 . S
C62 H53 0.930 . S
C62 C60 1.378 . S
C62 C63 1.367 . S
C63 C62 1.367 . S
C63 C65 1.433 . S
C64 C60 1.350 . S
C64 C61 1.463 . S
C64 N68 1.427 . S
C65 H55 0.929 . S
C65 C63 1.433 . S
C65 N68 1.384 . S
C66 H57 0.929 . S
C66 C58 1.378 . S
C66 C61 1.350 . S
C67 H54 0.929 . S
C67 C59 1.433 . S
C67 N69 1.384 . S
N68 C64 1.427 . S
N68 C65 1.384 . S
N69 C61 1.427 . S
N69 C67 1.384 . S
H70 C76 0.930 . S
H71 C80 0.930 . S
H72 C85 0.929 . S
H73 C83 0.929 . S
H74 C78 0.929 . S
H75 C84 0.929 . S
C76 H70 0.930 . S
C76 C77 1.367 . S
C76 C84 1.378 . S
C77 C76 1.367 . S
C77 C85 1.433 . S
C78 H74 0.929 . S
C78 C80 1.378 . S
C78 C82 1.350 . S
C79 C82 1.463 . S
C79 C84 1.350 . S
C79 N87 1.427 . S
C80 H71 0.930 . S
C80 C78 1.378 . S
C80 C81 1.367 . S
C81 C80 1.367 . S
C81 C83 1.433 . S
C82 C78 1.350 . S
C82 C79 1.463 . S
C82 N86 1.427 . S
C83 H73 0.929 . S
C83 C81 1.433 . S
C83 N86 1.384 . S
C84 H75 0.929 . S
C84 C76 1.378 . S
C84 C79 1.350 . S
C85 H72 0.929 . S
C85 C77 1.433 . S
C85 N87 1.384 . S
N86 C82 1.427 . S
N86 C83 1.384 . S
N87 C79 1.427 . S
N87 C85 1.384 . S
H88 C94 0.930 . S
H89 C98 0.930 . S
H90 C103 0.940 . S
H91 C101 0.929 . S
H92 C96 0.929 . S
H93 C102 0.929 . S
C94 H88 0.930 . S
C94 C95 1.367 . S
C94 C102 1.378 . S
C95 C94 1.367 . S
C95 C103 1.415 1_554 S
C96 H92 0.929 . S
C96 C98 1.378 . S
C96 C100 1.350 . S
C97 C100 1.463 . S
C97 C102 1.350 1_556 S
C97 N105 1.427 . S
C98 H89 0.930 . S
C98 C96 1.378 . S
C98 C99 1.367 . S
C99 C98 1.367 . S
C99 C101 1.433 . S
C100 C96 1.350 . S
C100 C97 1.463 . S
C100 N104 1.427 . S
C101 H91 0.929 . S
C101 C99 1.433 . S
C101 N104 1.384 . S
C102 H93 0.929 . S
C102 C94 1.378 . S
C102 C97 1.350 1_554 S
C103 H90 0.940 . S
C103 C95 1.415 1_556 S
C103 N105 1.392 . S
N104 C100 1.427 . S
N104 C101 1.384 . S
N105 C97 1.427 . S
N105 C103 1.392 . S
H106 C112 0.930 . S
H107 C116 0.930 . S
H108 C121 0.929 . S
H109 C119 0.929 . S
H110 C114 0.929 . S
H111 C120 0.929 . S
C112 H106 0.930 . S
C112 C113 1.367 . S
C112 C120 1.378 1_455 S
C113 C112 1.367 . S
C113 C121 1.433 . S
C114 H110 0.929 . S
C114 C116 1.378 . S
C114 C118 1.350 . S
C115 C118 1.463 . S
C115 C120 1.350 . S
C115 N123 1.427 1_655 S
C116 H107 0.930 . S
C116 C114 1.378 . S
C116 C117 1.367 . S
C117 C116 1.367 . S
C117 C119 1.433 . S
C118 C114 1.350 . S
C118 C115 1.463 . S
C118 N122 1.427 . S
C119 H109 0.929 . S
C119 C117 1.433 . S
C119 N122 1.384 . S
C120 H111 0.929 . S
C120 C112 1.378 1_655 S
C120 C115 1.350 . S
C121 H108 0.929 . S
C121 C113 1.433 . S
C121 N123 1.384 . S
N122 C118 1.427 . S
N122 C119 1.384 . S
N123 C115 1.427 1_455 S
N123 C121 1.384 . S
H124 C130 0.930 . S
H125 C134 0.930 . S
H126 C139 0.925 1_554 S
H127 C137 0.929 1_556 S
H128 C132 0.929 1_545 S
H129 C138 0.929 1_565 S
C130 H124 0.930 . S
C130 C131 1.367 . S
C130 C138 1.378 . S
C131 C130 1.367 . S
C131 C139 1.444 . S
C132 H128 0.929 1_565 S
C132 C134 1.378 . S
C132 C136 1.350 . S
C133 C136 1.463 1_546 S
C133 C138 1.350 . S
C133 N141 1.427 1_556 S
C134 H125 0.930 . S
C134 C132 1.378 . S
C134 C135 1.367 . S
C135 C134 1.367 . S
C135 C137 1.433 . S
C136 C132 1.350 . S
C136 C133 1.463 1_564 S
C136 N140 1.427 1_554 S
C137 H127 0.929 1_554 S
C137 C135 1.433 . S
C137 N140 1.384 1_554 S
C138 H129 0.929 1_545 S
C138 C130 1.378 . S
C138 C133 1.350 . S
C139 H126 0.925 1_556 S
C139 C131 1.444 . S
C139 N141 1.377 1_556 S
N140 C136 1.427 1_556 S
N140 C137 1.384 1_556 S
N141 C133 1.427 1_554 S
N141 C139 1.377 1_554 S
H142 C148 0.930 . S
H143 C152 0.930 . S
H144 C157 0.929 . S
H145 C155 0.929 . S
H146 C150 0.929 . S
H147 C156 0.929 . S
C148 H142 0.930 . S
C148 C149 1.367 . S
C148 C156 1.378 . S
C149 C148 1.367 . S
C149 C157 1.433 . S
C150 H146 0.929 . S
C150 C152 1.378 . S
C150 C154 1.350 . S
C151 C154 1.463 . S
C151 C156 1.350 . S
C151 N159 1.427 . S
C152 H143 0.930 . S
C152 C150 1.378 . S
C152 C153 1.367 . S
C153 C152 1.367 . S
C153 C155 1.433 . S
C154 C150 1.350 . S
C154 C151 1.463 . S
C154 N158 1.427 . S
C155 H145 0.929 . S
C155 C153 1.433 . S
C155 N158 1.384 . S
C156 H147 0.929 . S
C156 C148 1.378 . S
C156 C151 1.350 . S
C157 H144 0.929 . S
C157 C149 1.433 . S
C157 N159 1.384 . S
N158 C154 1.427 . S
N158 C155 1.384 . S
N159 C151 1.427 . S
N159 C157 1.384 . S
H160 C166 0.930 . S
H161 C170 0.930 . S
H162 C175 0.929 1_556 S
H163 C173 0.929 . S
H164 C168 0.929 1_455 S
H165 C174 0.929 . S
C166 H160 0.930 . S
C166 C167 1.367 . S
C166 C174 1.378 . S
C167 C166 1.367 . S
C167 C175 1.433 . S
C168 H164 0.929 1_655 S
C168 C170 1.378 . S
C168 C172 1.350 1_556 S
C169 C172 1.463 1_455 S
C169 C174 1.350 . S
C169 N177 1.427 1_554 S
C170 H161 0.930 . S
C170 C168 1.378 . S
C170 C171 1.367 . S
C171 C170 1.367 . S
C171 C173 1.433 1_556 S
C172 C168 1.350 1_554 S
C172 C169 1.463 1_655 S
C172 N176 1.427 . S
C173 H163 0.929 . S
C173 C171 1.433 1_554 S
C173 N176 1.384 . S
C174 H165 0.929 . S
C174 C166 1.378 . S
C174 C169 1.350 . S
C175 H162 0.929 1_554 S
C175 C167 1.433 . S
C175 N177 1.384 1_554 S
N176 C172 1.427 . S
N176 C173 1.384 . S
N177 C169 1.427 1_556 S
N177 C175 1.384 1_556 S
H178 C184 0.930 . S
H179 C188 0.930 . S
H180 C193 0.929 . S
H181 C191 0.929 . S
H182 C186 0.929 . S
H183 C192 0.929 . S
C184 H178 0.930 . S
C184 C185 1.367 . S
C184 C192 1.378 . S
C185 C184 1.367 . S
C185 C193 1.433 . S
C186 H182 0.929 . S
C186 C188 1.378 . S
C186 C190 1.350 . S
C187 C190 1.463 1_545 S
C187 C192 1.350 . S
C187 N195 1.427 . S
C188 H179 0.930 . S
C188 C186 1.378 . S
C188 C189 1.367 . S
C189 C188 1.367 . S
C189 C191 1.433 . S
C190 C186 1.350 . S
C190 C187 1.463 1_565 S
C190 N194 1.427 . S
C191 H181 0.929 . S
C191 C189 1.433 . S
C191 N194 1.384 . S
C192 H183 0.929 . S
C192 C184 1.378 . S
C192 C187 1.350 . S
C193 H180 0.929 . S
C193 C185 1.433 . S
C193 N195 1.384 . S
N194 C190 1.427 . S
N194 C191 1.384 . S
N195 C187 1.427 . S
N195 C193 1.384 . S
C59 C4 1.598 . S
C63 C30 1.590 . S
C77 C17 1.595 . S
C81 C49 1.596 . S
C95 C5 1.458 . S
C99 C43 1.481 . S
C113 C29 1.710 . S
C117 C18 1.700 . S
C131 C44 1.903 . S
C135 C3 1.901 . S
C149 C16 1.711 . S
C153 C31 1.702 . S
C167 C10 1.481 . S
C171 C42 1.460 . S
C185 C23 1.280 . S
C189 C36 1.276 . S
