# Generated by pormake.
# Topology pcu, (6)-cn, num edge types: 1
# Building blocks:
#     Node 0, Type 0, BuildingBlock: MIDCAF_clean_sbu_0, # of connection points: 6
#     Edge 1, Type (0, 0), BuildingBlock: FUNLAD_clean_linker_1, # of connection points: 2
#     Edge 2, Type (0, 0), BuildingBlock: FUNLAD_clean_linker_1, # of connection points: 2
#     Edge 3, Type (0, 0), BuildingBlock: FUNLAD_clean_linker_1, # of connection points: 2
# Relax obj value: 0.148
# Max RMSD: 0.201
# Mean RMSD: 0.201
data_MOF--net-pcu--node1-MIDCAF_clean_sbu_0--edge1-FUNLAD_clean_linker_1
_symmetry_space_group_name_H-M    P1
_symmetry_Int_Tables_number       1
_symmetry_cell_setting            triclinic
loop_
_symmetry_equiv_pos_as_xyz
'x, y, z'
_cell_length_a     15.985976
_cell_length_b     16.048259
_cell_length_c     16.02799
_cell_angle_alpha  87.348727
_cell_angle_beta   99.913587
_cell_angle_gamma 107.06769
loop_
_atom_site_label
_atom_site_type_symbol
_atom_site_fract_x
_atom_site_fract_y
_atom_site_fract_z
_atom_type_partial_charge
Zn0 Zn 0.87302 0.90227 0.9131 0.0
Zn1 Zn 0.13821 0.13205 0.10276 0.0
Zn2 Zn 1.00652 1.01714 0.00735 0.0
C3 C 0.2063 0.10704 0.96315 0.0
C4 C 0.0848 0.98306 0.2012 0.0
O5 O 0.89026 0.06992 0.97438 0.0
O6 O 0.78249 0.96372 0.90513 0.0
C7 C 0.01664 0.95723 0.82268 0.0
O8 O 0.12721 0.05443 0.94542 0.0
O9 O 0.22941 0.15163 0.03046 0.0
O10 O 0.1431 0.05625 0.20438 0.0
O11 O 0.02935 0.95755 0.13254 0.0
O12 O 0.93639 0.91178 0.81506 0.0
O13 O 0.0557 0.99933 0.89175 0.0
O14 O 0.97941 0.88986 0.07303 0.0
O15 O 0.8675 0.80069 0.98935 0.0
C16 C 0.92496 0.81343 0.05587 0.0
O17 O 0.95882 0.12973 0.02784 0.0
O18 O 0.07637 0.22203 0.10216 0.0
C19 C 0.80958 0.03978 0.93586 0.0
C20 C 0.99666 0.20377 0.0655 0.0
H21 H 1.00192 0.90426 0.28857 0.0
C22 C 0.07025 0.93599 0.28098 0.0
H23 H 0.20353 0.97948 0.33873 0.0
H24 H 0.12185 0.10674 0.67155 0.0
H25 H 0.21842 0.2365 0.61957 0.0
H26 H 0.26988 0.2353 0.48342 0.0
H27 H 0.2249 0.10464 0.39878 0.0
C28 C 0.13572 0.94872 0.34842 0.0
C29 C 0.11614 0.94394 0.43663 0.0
C30 C 0.14643 1.02104 0.4873 0.0
C31 C 0.11784 0.02166 0.56662 0.0
C32 C 0.14389 0.10105 0.61268 0.0
C33 C 0.19877 0.17675 0.58308 0.0
C34 C 0.22765 0.17608 0.50645 0.0
C35 C 0.20152 0.0998 0.45861 0.0
H36 H 0.13638 0.98171 0.76212 0.0
C37 C 0.06431 0.96273 0.75075 0.0
H38 H 0.94669 0.92772 0.6612 0.0
H39 H 0.05562 0.78233 0.36175 0.0
H40 H 0.95512 0.65284 0.41368 0.0
H41 H 0.90843 0.65379 0.55167 0.0
H42 H 0.95776 0.78462 0.63775 0.0
C43 C 0.01882 0.94638 0.6716 0.0
C44 C 0.06079 0.9447 0.59603 0.0
C45 C 0.03431 0.86682 0.54754 0.0
C46 C 0.06204 0.86623 0.46795 0.0
C47 C 0.03426 0.78724 0.42131 0.0
C48 C 0.97799 0.71213 0.45086 0.0
C49 C 0.95115 0.71266 0.52856 0.0
C50 C 0.97947 0.78855 0.57699 0.0
H51 H 0.26954 0.04544 0.88189 0.0
C52 C 0.2753 0.10593 0.91327 0.0
H53 H 0.35681 0.23075 0.95363 0.0
H54 H 0.68368 0.08579 0.06805 0.0
H55 H 0.65449 0.12633 0.20045 0.0
H56 H 0.52625 0.18052 0.20531 0.0
H57 H 0.42618 0.19325 0.07753 0.0
C58 C 0.3522 0.17052 0.92232 0.0
C59 C 0.43678 0.15238 0.91555 0.0
C60 C 0.49753 0.14955 0.99087 0.0
C61 C 0.57301 0.12067 0.98779 0.0
C62 C 0.62789 0.11124 0.0651 0.0
C63 C 0.61134 0.13344 0.1423 0.0
C64 C 0.53912 0.16376 0.14507 0.0
C65 C 0.48228 0.17108 0.07074 0.0
H66 H 0.76973 0.15815 0.9545 0.0
C67 C 0.74616 0.09142 0.9314 0.0
H68 H 0.63532 0.98801 0.88045 0.0
H69 H 0.33885 0.16034 0.75941 0.0
H70 H 0.3705 0.12441 0.62475 0.0
H71 H 0.50357 0.07856 0.61838 0.0
H72 H 0.6057 0.06756 0.74655 0.0
C73 C 0.65879 0.05421 0.90528 0.0
C74 C 0.5894 0.09814 0.9087 0.0
C75 C 0.53125 0.10596 0.83304 0.0
C76 C 0.45462 0.1327 0.83651 0.0
C77 C 0.39736 0.13922 0.76018 0.0
C78 C 0.41497 0.11931 0.68253 0.0
C79 C 0.48992 0.09341 0.67896 0.0
C80 C 0.54774 0.08693 0.75304 0.0
H81 H 0.01008 0.73851 0.12302 0.0
C82 C 0.9412 0.73679 0.10233 0.0
H83 H 0.80816 0.66158 0.08003 0.0
H84 H 0.88009 0.33871 0.93344 0.0
H85 H 0.77505 0.37582 0.82224 0.0
H86 H 0.72407 0.5047 0.83502 0.0
H87 H 0.7779 0.59685 0.95861 0.0
C88 C 0.87639 0.66071 0.09958 0.0
C89 C 0.89625 0.57523 0.09952 0.0
C90 C 0.86134 0.51998 0.02691 0.0
C91 C 0.88975 0.44471 0.01973 0.0
C92 C 0.85851 0.39442 0.94422 0.0
C93 C 0.79863 0.41552 0.87907 0.0
C94 C 0.77001 0.48806 0.88626 0.0
C95 C 0.80138 0.54033 0.95847 0.0
H96 H 0.87649 0.24753 0.06115 0.0
C97 C 0.94823 0.26892 0.06652 0.0
H98 H 0.06498 0.37432 0.08052 0.0
H99 H 0.96549 0.65821 0.25252 0.0
H100 H 0.07327 0.62097 0.36319 0.0
H101 H 0.12032 0.49004 0.3511 0.0
H102 H 0.06383 0.3971 0.2271 0.0
C103 C 0.99307 0.35412 0.07494 0.0
C104 C 0.95146 0.42375 0.08584 0.0
C105 C 0.98248 0.47611 0.16007 0.0
C106 C 0.95473 0.55161 0.16719 0.0
C107 C 0.98679 0.602 0.24244 0.0
C108 C 0.04729 0.58061 0.30707 0.0
C109 C 0.07429 0.50699 0.30016 0.0
C110 C 0.04181 0.45462 0.22819 0.0
loop_
_geom_bond_atom_site_label_1
_geom_bond_atom_site_label_2
_geom_bond_distance
_geom_bond_site_symmetry_2
_ccdc_geom_bond_type
Zn0 O6 1.920 . S
Zn0 O12 1.898 . S
Zn0 O15 1.905 . S
Zn1 O9 1.905 . S
Zn1 O10 1.898 . S
Zn1 O18 1.920 . S
Zn2 O5 2.075 1_455 S
Zn2 O8 2.120 . S
Zn2 O11 2.119 1_465 S
Zn2 O13 2.120 1_464 S
Zn2 O14 2.117 1_554 S
Zn2 O17 2.078 1_564 S
C3 O8 1.166 1_545 S
C3 O9 1.182 . S
C4 O10 1.175 . S
C4 O11 1.300 1_455 S
O5 Zn2 2.075 1_655 S
O5 C19 1.305 1_554 S
O6 Zn0 1.920 . S
O6 C19 1.234 . S
C7 O12 1.173 . S
C7 O13 1.300 1_565 S
O8 Zn2 2.120 . S
O8 C3 1.166 1_565 S
O9 Zn1 1.905 . S
O9 C3 1.182 . S
O10 Zn1 1.898 . S
O10 C4 1.175 . S
O11 Zn2 2.119 1_645 S
O11 C4 1.300 1_655 S
O12 Zn0 1.898 . S
O12 C7 1.173 . S
O13 Zn2 2.120 1_646 S
O13 C7 1.300 1_545 S
O14 Zn2 2.117 1_556 S
O14 C16 1.166 1_455 S
O15 Zn0 1.905 . S
O15 C16 1.182 . S
C16 O14 1.166 1_655 S
C16 O15 1.182 . S
O17 Zn2 2.078 1_546 S
O17 C20 1.305 1_556 S
O18 Zn1 1.920 . S
O18 C20 1.234 . S
C19 O5 1.305 1_556 S
C19 O6 1.234 . S
C20 O17 1.305 1_554 S
C20 O18 1.234 . S
H21 C22 0.951 1_655 S
C22 H21 0.951 1_455 S
C22 C28 1.265 . S
H23 C28 0.950 . S
H24 C32 0.949 . S
H25 C33 0.950 . S
H26 C34 0.951 . S
H27 C35 0.951 . S
C28 C22 1.265 . S
C28 H23 0.950 . S
C28 C29 1.478 . S
C29 C28 1.478 . S
C29 C30 1.397 1_565 S
C29 C46 1.394 . S
C30 C29 1.397 1_545 S
C30 C31 1.438 . S
C30 C35 1.429 . S
C31 C30 1.438 . S
C31 C32 1.428 . S
C31 C44 1.394 1_545 S
C32 H24 0.949 . S
C32 C31 1.428 . S
C32 C33 1.345 . S
C33 H25 0.950 . S
C33 C32 1.345 . S
C33 C34 1.424 . S
C34 H26 0.951 . S
C34 C33 1.424 . S
C34 C35 1.347 . S
C35 H27 0.951 . S
C35 C30 1.429 . S
C35 C34 1.347 . S
H36 C37 0.951 . S
C37 H36 0.951 . S
C37 C43 1.265 1_455 S
H38 C43 0.950 . S
H39 C47 0.949 1_455 S
H40 C48 0.950 . S
H41 C49 0.951 . S
H42 C50 0.951 . S
C43 C37 1.265 1_655 S
C43 H38 0.950 . S
C43 C44 1.478 1_655 S
C44 C31 1.394 1_565 S
C44 C43 1.478 1_455 S
C44 C45 1.397 1_455 S
C45 C44 1.397 1_655 S
C45 C46 1.438 1_655 S
C45 C50 1.429 . S
C46 C29 1.394 . S
C46 C45 1.438 1_455 S
C46 C47 1.428 1_455 S
C47 H39 0.949 1_655 S
C47 C46 1.428 1_655 S
C47 C48 1.345 . S
C48 H40 0.950 . S
C48 C47 1.345 . S
C48 C49 1.424 . S
C49 H41 0.951 . S
C49 C48 1.424 . S
C49 C50 1.347 . S
C50 H42 0.951 . S
C50 C45 1.429 . S
C50 C49 1.347 . S
H51 C52 0.951 1_565 S
C52 H51 0.951 1_545 S
C52 C58 1.265 . S
H53 C58 0.950 1_554 S
H54 C62 0.949 . S
H55 C63 0.950 . S
H56 C64 0.951 . S
H57 C65 0.951 . S
C58 C52 1.265 . S
C58 H53 0.950 1_556 S
C58 C59 1.478 . S
C59 C58 1.478 . S
C59 C60 1.397 1_556 S
C59 C76 1.394 . S
C60 C59 1.397 1_554 S
C60 C61 1.438 . S
C60 C65 1.429 . S
C61 C60 1.438 . S
C61 C62 1.428 . S
C61 C74 1.394 1_554 S
C62 H54 0.949 . S
C62 C61 1.428 . S
C62 C63 1.345 . S
C63 H55 0.950 . S
C63 C62 1.345 . S
C63 C64 1.424 . S
C64 H56 0.951 . S
C64 C63 1.424 . S
C64 C65 1.347 . S
C65 H57 0.951 . S
C65 C60 1.429 . S
C65 C64 1.347 . S
H66 C67 0.951 . S
C67 H66 0.951 . S
C67 C73 1.265 1_545 S
H68 C73 0.950 . S
H69 C77 0.949 . S
H70 C78 0.950 . S
H71 C79 0.951 . S
H72 C80 0.952 . S
C73 C67 1.265 1_565 S
C73 H68 0.950 . S
C73 C74 1.478 1_565 S
C74 C61 1.394 1_556 S
C74 C73 1.478 1_545 S
C74 C75 1.397 . S
C75 C74 1.397 . S
C75 C76 1.438 . S
C75 C80 1.428 1_545 S
C76 C59 1.394 . S
C76 C75 1.438 . S
C76 C77 1.428 . S
C77 H69 0.949 . S
C77 C76 1.428 . S
C77 C78 1.345 . S
C78 H70 0.950 . S
C78 C77 1.345 . S
C78 C79 1.424 1_545 S
C79 H71 0.951 . S
C79 C78 1.424 1_565 S
C79 C80 1.347 . S
C80 H72 0.952 . S
C80 C75 1.428 1_565 S
C80 C79 1.347 . S
H81 C82 0.951 1_455 S
C82 H81 0.951 1_655 S
C82 C88 1.265 . S
H83 C88 0.950 . S
H84 C92 0.949 . S
H85 C93 0.950 . S
H86 C94 0.951 . S
H87 C95 0.951 . S
C88 C82 1.265 . S
C88 H83 0.950 . S
C88 C89 1.478 . S
C89 C88 1.478 . S
C89 C90 1.397 1_554 S
C89 C106 1.394 . S
C90 C89 1.397 1_556 S
C90 C91 1.438 . S
C90 C95 1.429 . S
C91 C90 1.438 . S
C91 C92 1.428 . S
C91 C104 1.394 1_556 S
C92 H84 0.949 . S
C92 C91 1.428 . S
C92 C93 1.345 . S
C93 H85 0.950 . S
C93 C92 1.345 . S
C93 C94 1.424 . S
C94 H86 0.951 . S
C94 C93 1.424 . S
C94 C95 1.347 . S
C95 H87 0.951 . S
C95 C90 1.429 . S
C95 C94 1.347 . S
H96 C97 0.951 . S
C97 H96 0.951 . S
C97 C103 1.265 1_655 S
H98 C103 0.950 . S
H99 C107 0.949 . S
H100 C108 0.950 . S
H101 C109 0.951 . S
H102 C110 0.951 . S
C103 C97 1.265 1_455 S
C103 H98 0.950 . S
C103 C104 1.478 1_455 S
C104 C91 1.394 1_554 S
C104 C103 1.478 1_655 S
C104 C105 1.397 . S
C105 C104 1.397 . S
C105 C106 1.438 . S
C105 C110 1.429 1_655 S
C106 C89 1.394 . S
C106 C105 1.438 . S
C106 C107 1.428 . S
C107 H99 0.949 . S
C107 C106 1.428 . S
C107 C108 1.345 1_655 S
C108 H100 0.950 . S
C108 C107 1.345 1_455 S
C108 C109 1.424 . S
C109 H101 0.951 . S
C109 C108 1.424 . S
C109 C110 1.347 . S
C110 H102 0.951 . S
C110 C105 1.429 1_455 S
C110 C109 1.347 . S
C22 C4 1.336 1_565 S
C37 C7 1.372 1_455 S
C52 C3 1.371 1_556 S
C67 C19 1.393 1_545 S
C82 C16 1.360 1_554 S
C97 C20 1.390 1_655 S
