# Generated by pormake.
# Topology snp, (6)-cn, num edge types: 1
# Building blocks:
#     Node 0, Type 0, BuildingBlock: FUNLAD_clean_sbu_0, # of connection points: 6
#     Node 1, Type 0, BuildingBlock: FUNLAD_clean_sbu_0, # of connection points: 6
#     Node 2, Type 0, BuildingBlock: FUNLAD_clean_sbu_0, # of connection points: 6
#     Node 3, Type 0, BuildingBlock: FUNLAD_clean_sbu_0, # of connection points: 6
#     Edge 4, Type (0, 0), BuildingBlock: EYOCIG_clean_linker_4, # of connection points: 2
#     Edge 5, Type (0, 0), BuildingBlock: EYOCIG_clean_linker_4, # of connection points: 2
#     Edge 6, Type (0, 0), BuildingBlock: EYOCIG_clean_linker_4, # of connection points: 2
#     Edge 7, Type (0, 0), BuildingBlock: EYOCIG_clean_linker_4, # of connection points: 2
#     Edge 8, Type (0, 0), BuildingBlock: EYOCIG_clean_linker_4, # of connection points: 2
#     Edge 9, Type (0, 0), BuildingBlock: EYOCIG_clean_linker_4, # of connection points: 2
#     Edge 10, Type (0, 0), BuildingBlock: EYOCIG_clean_linker_4, # of connection points: 2
#     Edge 11, Type (0, 0), BuildingBlock: EYOCIG_clean_linker_4, # of connection points: 2
#     Edge 12, Type (0, 0), BuildingBlock: EYOCIG_clean_linker_4, # of connection points: 2
#     Edge 13, Type (0, 0), BuildingBlock: EYOCIG_clean_linker_4, # of connection points: 2
#     Edge 14, Type (0, 0), BuildingBlock: EYOCIG_clean_linker_4, # of connection points: 2
#     Edge 15, Type (0, 0), BuildingBlock: EYOCIG_clean_linker_4, # of connection points: 2
# Relax obj value: 1.408
# Max RMSD: 0.256
# Mean RMSD: 0.256
data_MOF--net-snp--node1-FUNLAD_clean_sbu_0--edge1-EYOCIG_clean_linker_4
_symmetry_space_group_name_H-M    P1
_symmetry_Int_Tables_number       1
_symmetry_cell_setting            triclinic
loop_
_symmetry_equiv_pos_as_xyz
'x, y, z'
_cell_length_a     29.45761
_cell_length_b     29.538306
_cell_length_c     16.389751
_cell_angle_alpha  91.467691
_cell_angle_beta   89.841066
_cell_angle_gamma 89.865759
loop_
_atom_site_label
_atom_site_type_symbol
_atom_site_fract_x
_atom_site_fract_y
_atom_site_fract_z
_atom_type_partial_charge
C0 C 0.23169 0.98925 0.91742 0.0
N1 N 0.34393 0.06472 1.01887 0.0
C2 C 0.36582 0.02399 1.01407 0.0
C3 C 0.41341 0.02171 1.01511 0.0
C4 C 0.43888 0.06163 1.02194 0.0
C5 C 0.41578 0.10319 1.02699 0.0
C6 C 0.36808 0.10401 1.02508 0.0
Zn7 Zn 0.27276 0.06586 1.02084 0.0
C8 C 0.22995 0.1235 0.88743 0.0
N9 N 0.13008 0.06941 1.02526 0.0
C10 C 0.10719 0.04533 0.95006 0.0
C11 C 0.11354 0.08586 0.11233 0.0
C12 C 0.06197 0.08036 0.15319 0.0
C13 C 0.02077 0.05039 0.10377 0.0
C14 C 0.05317 0.0279 0.95484 0.0
Zn15 Zn 0.19785 0.06741 1.01899 0.0
O16 O 0.26995 1.00776 0.93289 0.0
C17 C 0.23245 1.00914 0.15334 0.0
O18 O 0.19604 1.00673 0.94784 0.0
H19 H 0.13746 0.10094 0.15423 0.0
H20 H 0.34638 0.99302 1.01012 0.0
H21 H 0.12644 0.03788 0.89517 0.0
O22 O 0.27129 0.01754 0.12227 0.0
O23 O 0.19764 0.02789 0.12435 0.0
H24 H 0.35039 0.13611 0.02908 0.0
O25 O 0.20012 0.12739 0.08862 0.0
O26 O 0.27302 0.12305 0.11077 0.0
O27 O 0.19495 0.1054 0.91649 0.0
O28 O 0.26894 0.11472 0.91812 0.0
C29 C 0.23494 0.14244 0.12427 0.0
H30 H 0.43011 0.98901 1.01115 0.0
H31 H 0.43437 0.13472 0.03253 0.0
H32 H 0.05387 0.09839 0.20873 0.0
H33 H 0.03955 1.00764 0.90375 0.0
C34 C 0.11057 0.24426 0.38737 0.0
N35 N 0.04346 0.34823 0.52826 0.0
C36 C 0.08453 0.36955 0.52753 0.0
C37 C 0.08729 0.41714 0.52849 0.0
C38 C 0.04749 0.44337 0.53037 0.0
C39 C 1.00565 0.4208 0.53348 0.0
C40 C 1.00437 0.37311 0.53218 0.0
Zn41 Zn 0.04058 0.27699 0.50937 0.0
C42 C 0.97543 0.24805 0.37894 0.0
N43 N 0.03207 0.13428 0.45751 0.0
C44 C 0.04695 0.12211 0.38119 0.0
C45 C 1.01152 0.10286 0.50445 0.0
C46 C 1.01411 0.05705 0.48059 0.0
C47 C 0.04528 0.04465 0.41909 0.0
C48 C 0.05313 0.07658 0.3603 0.0
Zn49 Zn 0.03867 0.20125 0.4904 0.0
O50 O 0.09461 0.28137 0.41685 0.0
C51 C 0.10555 0.22349 0.61872 0.0
O52 O 0.09328 0.2073 0.40858 0.0
H53 H 0.99489 0.11261 0.56104 0.0
H54 H 0.11537 0.34966 0.52374 0.0
H55 H 0.05822 0.1471 0.33894 0.0
O56 O 0.09334 0.26395 0.60202 0.0
O57 O 0.08662 0.18989 0.58269 0.0
H58 H 0.97194 0.35599 0.53187 0.0
O59 O 0.98616 0.19578 0.5743 0.0
O60 O 0.98668 0.26891 0.60329 0.0
O61 O 0.99252 0.21113 0.39997 0.0
O62 O 0.98807 0.28489 0.4143 0.0
C63 C 0.97082 0.22927 0.61533 0.0
H64 H 0.12026 0.43323 0.52603 0.0
H65 H 0.97414 0.4398 0.53502 0.0
H66 H 0.99936 0.03176 0.51861 0.0
H67 H 0.07757 0.06843 0.31306 0.0
C68 C 0.87065 0.10611 0.8789 0.0
N69 N 0.76351 0.0486 1.0251 0.0
C70 C 0.74169 0.08899 1.01715 0.0
C71 C 0.69409 0.09128 1.01836 0.0
C72 C 0.66866 0.0517 1.0279 0.0
C73 C 0.69178 1.01057 0.03684 0.0
C74 C 0.73945 1.00975 0.03522 0.0
Zn75 Zn 0.83418 0.04599 1.01697 0.0
C76 C 0.86768 0.97143 0.90295 0.0
N77 N 0.9757 0.04016 0.98788 0.0
C78 C 1.00025 0.08666 0.98206 0.0
C79 C 0.98962 0.99133 1.01458 0.0
C80 C 0.03925 0.9747 0.05329 0.0
C81 C 0.08157 1.013 0.0727 0.0
C82 C 0.05347 0.093 1.01568 0.0
Zn83 Zn 0.9087 0.04685 0.99903 0.0
O84 O 0.83369 0.09389 0.91322 0.0
C85 C 0.88021 0.12162 0.11348 0.0
O86 O 0.90777 0.08899 0.90093 0.0
H87 H 0.96429 0.96502 1.01182 0.0
H88 H 0.7612 0.11952 1.00899 0.0
H89 H 0.98152 0.11646 0.9652 0.0
O90 O 0.84108 0.10442 0.10058 0.0
O91 O 0.91482 0.10412 0.07869 0.0
H92 H 0.75722 0.97793 0.04116 0.0
O93 O 0.91157 1.0055 0.10215 0.0
O94 O 0.83868 1.00012 0.12294 0.0
O95 O 0.90403 0.99145 0.92108 0.0
O96 O 0.83024 0.98642 0.93229 0.0
C97 C 0.87924 0.99029 0.14359 0.0
H98 H 0.67736 0.12363 1.01126 0.0
H99 H 0.67322 0.97932 0.04433 0.0
H100 H 0.04209 0.94025 0.07399 0.0
H101 H 0.0678 0.12715 1.01899 0.0
C102 C 0.13376 0.8915 0.44359 0.0
N103 N 0.07756 0.97538 0.63063 0.0
C104 C 0.12123 0.9816 0.65708 0.0
C105 C 0.13352 0.02093 0.7 0.0
C106 C 0.10568 0.05855 0.69005 0.0
C107 C 0.05889 0.04952 0.68196 0.0
C108 C 0.04534 1.00672 0.65133 0.0
Zn109 Zn 0.06487 0.91225 0.57834 0.0
C110 C 1.0014 0.90037 0.44141 0.0
N111 N 0.06191 0.7684 0.5117 0.0
C112 C 0.1009 0.74345 0.50467 0.0
C113 C 0.02089 0.7471 0.51493 0.0
C114 C 0.01816 0.69949 0.51386 0.0
C115 C 0.05791 0.67323 0.50951 0.0
C116 C 0.09963 0.69577 0.50337 0.0
Zn117 Zn 0.06647 0.83867 0.5408 0.0
O118 O 0.11943 0.92148 0.49436 0.0
C119 C 0.12985 0.85622 0.67652 0.0
O120 O 0.11821 0.85113 0.44675 0.0
H121 H 0.9902 0.76699 0.52198 0.0
H122 H 0.14758 0.95724 0.64238 0.0
H123 H 0.13336 0.76048 0.50378 0.0
O124 O 0.10767 0.89189 0.6686 0.0
O125 O 0.1214 0.82272 0.62884 0.0
H126 H 1.00992 0.99956 0.63994 0.0
O127 O 1.01255 0.83112 0.63439 0.0
O128 O 1.01086 0.90484 0.65608 0.0
O129 O 1.01338 0.85901 0.45209 0.0
O130 O 0.01888 0.93205 0.48561 0.0
C131 C 0.99475 0.86613 0.66921 0.0
H132 H 0.16914 0.02553 0.71465 0.0
H133 H 0.03437 0.07687 0.68507 0.0
H134 H 0.98529 0.6834 0.51882 0.0
H135 H 0.13111 0.67677 0.50005 0.0
C136 C 0.07279 0.98991 0.2133 0.0
C137 C 0.09739 0.99749 0.15466 0.0
C138 C 0.02513 1.00104 0.22094 0.0
C139 C 1.00269 0.02373 0.17387 0.0
C140 C 0.13235 0.07574 0.55341 0.0
C141 C 0.12408 0.08389 0.62418 0.0
C142 C 0.1194 0.0465 0.48871 0.0
C143 C 0.08853 0.03099 0.44933 0.0
C144 C 0.57798 0.05525 1.02698 0.0
C145 C 0.61922 0.05333 1.02747 0.0
C146 C 0.52954 0.05777 1.02557 0.0
C147 C 0.48831 0.05981 1.02396 0.0
C148 C 0.05163 0.53409 0.52315 0.0
C149 C 0.04961 0.49287 0.52643 0.0
C150 C 0.05404 0.58254 0.5181 0.0
C151 C 0.05596 0.62374 0.51417 0.0
C152 C 0.17868 0.22898 0.28531 0.0
C153 C 0.14863 0.242 0.3312 0.0
C154 C 0.20917 0.2047 0.23222 0.0
C155 C 0.22784 0.17765 0.18611 0.0
C156 C 0.91142 0.2005 0.72304 0.0
C157 C 0.93735 0.21969 0.67759 0.0
C158 C 0.88691 0.17073 0.77455 0.0
C159 C 0.87314 0.14239 0.82108 0.0
C160 C 0.9411 0.92536 0.32848 0.0
C161 C 0.96829 0.91202 0.37881 0.0
C162 C 0.91156 0.94451 0.2685 0.0
C163 C 0.89118 0.96406 0.21481 0.0
C164 C 0.1931 0.88082 0.77793 0.0
C165 C 0.16805 0.85992 0.73162 0.0
C166 C 0.21496 0.91544 0.82627 0.0
C167 C 0.22716 0.94854 0.86625 0.0
C168 C 0.89049 0.90263 0.80858 0.0
C169 C 0.87186 0.93159 0.85055 0.0
C170 C 0.9225 0.87694 0.76125 0.0
C171 C 0.95442 0.86452 0.71935 0.0
C172 C 0.21096 0.95178 0.26997 0.0
C173 C 0.22561 0.97678 0.21795 0.0
C174 C 0.18759 0.92486 0.3285 0.0
C175 C 0.16357 0.90597 0.37796 0.0
C176 C 0.17139 0.20031 0.72066 0.0
C177 C 0.14204 0.21452 0.67574 0.0
C178 C 0.20251 0.17814 0.77345 0.0
C179 C 0.22236 0.15526 0.82282 0.0
C180 C 0.89815 0.19244 0.21109 0.0
C181 C 0.88648 0.16053 0.16795 0.0
C182 C 0.91855 0.22534 0.26449 0.0
C183 C 0.94196 0.24481 0.315 0.0
loop_
_geom_bond_atom_site_label_1
_geom_bond_atom_site_label_2
_geom_bond_distance
_geom_bond_site_symmetry_2
_ccdc_geom_bond_type
C0 O16 1.251 1_565 S
C0 O18 1.254 1_565 S
N1 C2 1.333 1_554 S
N1 C6 1.307 . S
N1 Zn7 2.020 . S
C2 N1 1.333 1_556 S
C2 C3 1.379 . S
C2 H20 0.937 1_545 S
C3 C2 1.379 . S
C3 C4 1.388 1_556 S
C3 H30 0.949 1_545 S
C4 C3 1.388 1_554 S
C4 C5 1.358 . S
C5 C4 1.358 . S
C5 C6 1.370 . S
C5 H31 0.950 . S
C6 N1 1.307 . S
C6 C5 1.370 . S
C6 H24 0.948 . S
Zn7 N1 2.020 . S
Zn7 O16 2.039 1_554 S
Zn7 O22 2.034 . S
Zn7 O26 2.025 . S
Zn7 O28 2.024 1_554 S
C8 O27 1.246 . S
C8 O28 1.249 . S
N9 C10 1.307 . S
N9 C11 1.333 1_556 S
N9 Zn15 2.020 1_556 S
C10 N9 1.307 . S
C10 C14 1.370 . S
C10 H21 0.948 1_545 S
C11 N9 1.333 1_554 S
C11 C12 1.379 . S
C11 H19 0.952 . S
C12 C11 1.379 . S
C12 C13 1.390 . S
C12 H32 0.949 . S
C13 C12 1.390 . S
C13 C14 1.357 1_554 S
C14 C10 1.370 . S
C14 C13 1.357 1_556 S
C14 H33 0.950 1_545 S
Zn15 N9 2.020 1_554 S
Zn15 O18 2.025 1_554 S
Zn15 O23 2.024 . S
Zn15 O25 2.039 . S
Zn15 O27 2.034 1_554 S
O16 C0 1.251 1_545 S
O16 Zn7 2.039 1_556 S
C17 O22 1.246 1_565 S
C17 O23 1.249 1_565 S
O18 C0 1.254 1_545 S
O18 Zn15 2.025 1_556 S
H19 C11 0.952 . S
H20 C2 0.937 1_565 S
H21 C10 0.948 1_565 S
O22 Zn7 2.034 . S
O22 C17 1.246 1_545 S
O23 Zn15 2.024 . S
O23 C17 1.249 1_545 S
H24 C6 0.948 . S
O25 Zn15 2.039 . S
O25 C29 1.251 . S
O26 Zn7 2.025 . S
O26 C29 1.254 . S
O27 C8 1.246 . S
O27 Zn15 2.034 1_556 S
O28 Zn7 2.024 1_556 S
O28 C8 1.249 . S
C29 O25 1.251 . S
C29 O26 1.254 . S
H30 C3 0.949 1_565 S
H31 C5 0.950 . S
H32 C12 0.949 . S
H33 C14 0.950 1_565 S
C34 O50 1.251 . S
C34 O52 1.254 . S
N35 C36 1.333 . S
N35 C40 1.307 1_455 S
N35 Zn41 2.020 . S
C36 N35 1.333 . S
C36 C37 1.379 . S
C36 H54 0.952 . S
C37 C36 1.379 . S
C37 C38 1.390 . S
C37 H64 0.949 . S
C38 C37 1.390 . S
C38 C39 1.357 1_455 S
C39 C38 1.357 1_655 S
C39 C40 1.370 . S
C39 H65 0.950 . S
C40 N35 1.307 1_655 S
C40 C39 1.370 . S
C40 H58 0.948 . S
Zn41 N35 2.020 . S
Zn41 O50 2.039 . S
Zn41 O56 2.034 . S
Zn41 O60 2.025 1_455 S
Zn41 O62 2.024 1_455 S
C42 O61 1.246 . S
C42 O62 1.249 . S
N43 C44 1.307 . S
N43 C45 1.333 1_455 S
N43 Zn49 2.020 . S
C44 N43 1.307 . S
C44 C48 1.370 . S
C44 H55 0.948 . S
C45 N43 1.333 1_655 S
C45 C46 1.379 . S
C45 H53 0.952 . S
C46 C45 1.379 . S
C46 C47 1.390 1_655 S
C46 H66 0.949 . S
C47 C46 1.390 1_455 S
C47 C48 1.357 . S
C48 C44 1.370 . S
C48 C47 1.357 . S
C48 H67 0.950 . S
Zn49 N43 2.020 . S
Zn49 O52 2.025 . S
Zn49 O57 2.024 . S
Zn49 O59 2.039 1_455 S
Zn49 O61 2.034 1_455 S
O50 C34 1.251 . S
O50 Zn41 2.039 . S
C51 O56 1.246 . S
C51 O57 1.249 . S
O52 C34 1.254 . S
O52 Zn49 2.025 . S
H53 C45 0.952 . S
H54 C36 0.952 . S
H55 C44 0.948 . S
O56 Zn41 2.034 . S
O56 C51 1.246 . S
O57 Zn49 2.024 . S
O57 C51 1.249 . S
H58 C40 0.948 . S
O59 Zn49 2.039 1_655 S
O59 C63 1.251 . S
O60 Zn41 2.025 1_655 S
O60 C63 1.254 . S
O61 C42 1.246 . S
O61 Zn49 2.034 1_655 S
O62 Zn41 2.024 1_655 S
O62 C42 1.249 . S
C63 O59 1.251 . S
C63 O60 1.254 . S
H64 C37 0.949 . S
H65 C39 0.950 . S
H66 C46 0.949 . S
H67 C48 0.950 . S
C68 O84 1.251 . S
C68 O86 1.254 . S
N69 C70 1.333 1_554 S
N69 C74 1.307 1_545 S
N69 Zn75 2.020 . S
C70 N69 1.333 1_556 S
C70 C71 1.379 . S
C70 H88 0.952 . S
C71 C70 1.379 . S
C71 C72 1.394 . S
C71 H98 0.949 . S
C72 C71 1.394 . S
C72 C73 1.353 1_546 S
C73 C72 1.353 1_564 S
C73 C74 1.370 . S
C73 H99 0.950 . S
C74 N69 1.307 1_565 S
C74 C73 1.370 . S
C74 H92 0.948 . S
Zn75 N69 2.020 . S
Zn75 O84 2.039 1_554 S
Zn75 O90 2.034 . S
Zn75 O94 2.025 1_545 S
Zn75 O96 2.024 1_544 S
C76 O95 1.246 . S
C76 O96 1.249 . S
N77 C78 1.307 . S
N77 C79 1.333 1_546 S
N77 Zn83 2.020 1_556 S
C78 N77 1.307 . S
C78 C82 1.370 1_655 S
C78 H89 0.948 . S
C79 N77 1.333 1_564 S
C79 C80 1.379 1_655 S
C79 H87 0.952 . S
C80 C79 1.379 1_455 S
C80 C81 1.390 1_565 S
C80 H100 0.949 . S
C81 C80 1.390 1_545 S
C81 C82 1.357 1_554 S
C82 C78 1.370 1_455 S
C82 C81 1.357 1_556 S
C82 H101 0.950 . S
Zn83 N77 2.020 1_554 S
Zn83 O86 2.025 1_554 S
Zn83 O91 2.024 . S
Zn83 O93 2.039 1_545 S
Zn83 O95 2.034 1_544 S
O84 C68 1.251 . S
O84 Zn75 2.039 1_556 S
C85 O90 1.246 . S
C85 O91 1.249 . S
O86 C68 1.254 . S
O86 Zn83 2.025 1_556 S
H87 C79 0.952 . S
H88 C70 0.952 . S
H89 C78 0.948 . S
O90 Zn75 2.034 . S
O90 C85 1.246 . S
O91 Zn83 2.024 . S
O91 C85 1.249 . S
H92 C74 0.948 . S
O93 Zn83 2.039 1_565 S
O93 C97 1.251 . S
O94 Zn75 2.025 1_565 S
O94 C97 1.254 . S
O95 C76 1.246 . S
O95 Zn83 2.034 1_566 S
O96 Zn75 2.024 1_566 S
O96 C76 1.249 . S
C97 O93 1.251 . S
C97 O94 1.254 . S
H98 C71 0.949 . S
H99 C73 0.950 . S
H100 C80 0.949 . S
H101 C82 0.950 . S
C102 O118 1.251 . S
C102 O120 1.254 . S
N103 C104 1.333 . S
N103 C108 1.307 . S
N103 Zn109 2.020 . S
C104 N103 1.333 . S
C104 C105 1.379 1_565 S
C104 H122 0.952 . S
C105 C104 1.379 1_545 S
C105 C106 1.390 . S
C105 H132 0.949 . S
C106 C105 1.390 . S
C106 C107 1.357 . S
C107 C106 1.357 . S
C107 C108 1.370 1_545 S
C107 H133 0.950 1_455 S
C108 N103 1.307 . S
C108 C107 1.370 1_565 S
C108 H126 0.948 1_455 S
Zn109 N103 2.020 . S
Zn109 O118 2.039 . S
Zn109 O124 2.034 . S
Zn109 O128 2.025 . S
Zn109 O130 2.024 . S
C110 O129 1.246 1_655 S
C110 O130 1.249 1_655 S
N111 C112 1.307 . S
N111 C113 1.333 . S
N111 Zn117 2.020 . S
C112 N111 1.307 . S
C112 C116 1.370 . S
C112 H123 0.948 . S
C113 N111 1.333 . S
C113 C114 1.379 . S
C113 H121 0.937 1_455 S
C114 C113 1.379 . S
C114 C115 1.390 . S
C114 H134 0.949 1_455 S
C115 C114 1.390 . S
C115 C116 1.357 . S
C116 C112 1.370 . S
C116 C115 1.357 . S
C116 H135 0.950 . S
Zn117 N111 2.020 . S
Zn117 O120 2.025 . S
Zn117 O125 2.024 . S
Zn117 O127 2.039 . S
Zn117 O129 2.034 . S
O118 C102 1.251 . S
O118 Zn109 2.039 . S
C119 O124 1.246 . S
C119 O125 1.249 . S
O120 C102 1.254 . S
O120 Zn117 2.025 . S
H121 C113 0.937 1_655 S
H122 C104 0.952 . S
H123 C112 0.948 . S
O124 Zn109 2.034 . S
O124 C119 1.246 . S
O125 Zn117 2.024 . S
O125 C119 1.249 . S
H126 C108 0.948 1_655 S
O127 Zn117 2.039 . S
O127 C131 1.251 1_455 S
O128 Zn109 2.025 . S
O128 C131 1.254 1_455 S
O129 C110 1.246 1_455 S
O129 Zn117 2.034 . S
O130 Zn109 2.024 . S
O130 C110 1.249 1_455 S
C131 O127 1.251 1_655 S
C131 O128 1.254 1_655 S
H132 C105 0.949 . S
H133 C107 0.950 1_655 S
H134 C114 0.949 1_655 S
H135 C116 0.950 . S
C136 C137 1.170 . S
C136 C138 1.380 . S
C137 C136 1.170 . S
C138 C136 1.380 . S
C138 C139 1.170 1_455 S
C139 C138 1.170 1_655 S
C140 C141 1.170 . S
C140 C142 1.380 . S
C141 C140 1.170 . S
C142 C140 1.380 . S
C142 C143 1.170 1_545 S
C143 C142 1.170 1_565 S
C144 C145 1.170 . S
C144 C146 1.380 . S
C145 C144 1.170 . S
C146 C144 1.380 . S
C146 C147 1.170 . S
C147 C146 1.170 . S
C148 C149 1.170 . S
C148 C150 1.380 . S
C149 C148 1.170 . S
C150 C148 1.380 . S
C150 C151 1.170 . S
C151 C150 1.170 . S
C152 C153 1.170 . S
C152 C154 1.380 . S
C153 C152 1.170 . S
C154 C152 1.380 . S
C154 C155 1.170 . S
C155 C154 1.170 . S
C156 C157 1.170 . S
C156 C158 1.380 . S
C157 C156 1.170 . S
C158 C156 1.380 . S
C158 C159 1.170 . S
C159 C158 1.170 . S
C160 C161 1.170 . S
C160 C162 1.380 . S
C161 C160 1.170 . S
C162 C160 1.380 . S
C162 C163 1.170 . S
C163 C162 1.170 . S
C164 C165 1.170 . S
C164 C166 1.380 . S
C165 C164 1.170 . S
C166 C164 1.380 . S
C166 C167 1.170 . S
C167 C166 1.170 . S
C168 C169 1.170 . S
C168 C170 1.380 . S
C169 C168 1.170 . S
C170 C168 1.380 . S
C170 C171 1.170 . S
C171 C170 1.170 . S
C172 C173 1.170 . S
C172 C174 1.380 . S
C173 C172 1.170 . S
C174 C172 1.380 . S
C174 C175 1.170 . S
C175 C174 1.170 . S
C176 C177 1.170 . S
C176 C178 1.380 . S
C177 C176 1.170 . S
C178 C176 1.380 . S
C178 C179 1.170 . S
C179 C178 1.170 . S
C180 C181 1.170 . S
C180 C182 1.380 . S
C181 C180 1.170 . S
C182 C180 1.380 . S
C182 C183 1.170 . S
C183 C182 1.170 . S
C137 C81 1.479 . S
C139 C13 1.501 1_655 S
C141 C106 1.473 . S
C143 C47 1.495 1_565 S
C145 C72 1.220 . S
C147 C4 1.231 1_556 S
C149 C38 1.227 . S
C151 C115 1.229 . S
C153 C34 2.042 . S
C155 C29 2.028 . S
C157 C63 2.078 . S
C159 C68 2.089 . S
C161 C110 2.058 . S
C163 C97 2.054 . S
C165 C119 2.043 . S
C167 C0 2.057 . S
C169 C76 2.059 . S
C171 C131 2.041 . S
C173 C17 2.046 . S
C175 C102 2.053 . S
C177 C51 2.062 . S
C179 C8 2.094 . S
C181 C85 2.013 . S
C183 C42 2.030 . S
