# Generated by pormake.
# Topology uoj, (4)-cn, num edge types: 1
# Building blocks:
#     Node 0, Type 0, BuildingBlock: CEKHIL_clean_sbu_0, # of connection points: 4
#     Node 1, Type 0, BuildingBlock: CEKHIL_clean_sbu_0, # of connection points: 4
#     Node 2, Type 0, BuildingBlock: CEKHIL_clean_sbu_0, # of connection points: 4
#     Node 3, Type 0, BuildingBlock: CEKHIL_clean_sbu_0, # of connection points: 4
#     Node 4, Type 0, BuildingBlock: CEKHIL_clean_sbu_0, # of connection points: 4
#     Node 5, Type 0, BuildingBlock: CEKHIL_clean_sbu_0, # of connection points: 4
#     Node 6, Type 0, BuildingBlock: CEKHIL_clean_sbu_0, # of connection points: 4
#     Node 7, Type 0, BuildingBlock: CEKHIL_clean_sbu_0, # of connection points: 4
#     Edge 8, Type (0, 0), None
#     Edge 9, Type (0, 0), None
#     Edge 10, Type (0, 0), None
#     Edge 11, Type (0, 0), None
#     Edge 12, Type (0, 0), None
#     Edge 13, Type (0, 0), None
#     Edge 14, Type (0, 0), None
#     Edge 15, Type (0, 0), None
#     Edge 16, Type (0, 0), None
#     Edge 17, Type (0, 0), None
#     Edge 18, Type (0, 0), None
#     Edge 19, Type (0, 0), None
#     Edge 20, Type (0, 0), None
#     Edge 21, Type (0, 0), None
#     Edge 22, Type (0, 0), None
#     Edge 23, Type (0, 0), None
# Relax obj value: 0.110
# Max RMSD: 0.134
# Mean RMSD: 0.131
data_MOF--net-uoj--node1-CEKHIL_clean_sbu_0--edge1-none
_symmetry_space_group_name_H-M    P1
_symmetry_Int_Tables_number       1
_symmetry_cell_setting            triclinic
loop_
_symmetry_equiv_pos_as_xyz
'x, y, z'
_cell_length_a     14.553476
_cell_length_b     14.545622
_cell_length_c     15.781386
_cell_angle_alpha  90.119371
_cell_angle_beta   90.041068
_cell_angle_gamma 89.433379
loop_
_atom_site_label
_atom_site_type_symbol
_atom_site_fract_x
_atom_site_fract_y
_atom_site_fract_z
_atom_type_partial_charge
Co0 Co 0.08945 0.28945 0.42929 0.0
O1 O 0.18372 0.35477 0.36763 0.0
O2 O 0.05376 0.30605 0.31139 0.0
C3 C 0.18181 0.19074 0.4984 0.0
O4 O 0.9763 0.22149 0.47344 0.0
Co5 Co 0.09188 0.29192 0.62987 0.0
O6 O 0.9952 0.19913 0.61403 0.0
C7 C 0.02224 0.45039 0.53209 0.0
C8 C 0.13055 0.35003 0.3019 0.0
C9 C 0.95082 0.18794 0.54519 0.0
O10 O 0.0313 0.40837 0.46108 0.0
O11 O 0.04739 0.41852 0.60398 0.0
O12 O 0.15704 0.17232 0.42094 0.0
O13 O 0.15868 0.27015 0.52686 0.0
Co14 Co 0.27451 0.92303 0.58953 0.0
O15 O 0.15529 0.89063 0.62771 0.0
O16 O 0.21034 0.85238 0.50175 0.0
C17 C 0.35305 0.88094 0.7088 0.0
O18 O 0.39773 0.94706 0.53524 0.0
Co19 Co 0.35744 0.08513 0.68944 0.0
O20 O 0.4571 0.06774 0.60618 0.0
C21 C 0.22747 0.12502 0.55441 0.0
C22 C 0.14243 0.85062 0.55569 0.0
C23 C 0.46079 0.00705 0.5479 0.0
O24 O 0.22432 0.03921 0.53663 0.0
O25 O 0.26916 0.15722 0.61897 0.0
O26 O 0.33176 0.82087 0.65156 0.0
O27 O 0.31347 0.96035 0.69914 0.0
Co28 Co 0.92009 0.70048 0.42385 0.0
O29 O 0.82711 0.63431 0.36131 0.0
O30 O 0.95921 0.67996 0.30738 0.0
C31 C 0.8257 0.80177 0.4879 0.0
O32 O 0.03251 0.7686 0.47037 0.0
Co33 Co 0.90833 0.70088 0.62417 0.0
O34 O 0.00898 0.7896 0.61066 0.0
C35 C 0.98057 0.54039 0.5309 0.0
C36 C 0.88228 0.6363 0.29703 0.0
C37 C 0.05606 0.80077 0.54342 0.0
O38 O 0.97594 0.58186 0.45945 0.0
O39 O 0.95175 0.57318 0.60135 0.0
O40 O 0.85379 0.81811 0.41114 0.0
O41 O 0.84727 0.72296 0.51838 0.0
Co42 Co 0.729 0.06859 0.57898 0.0
O43 O 0.84845 0.09366 0.62245 0.0
O44 O 0.79786 0.1418 0.4976 0.0
C45 C 0.64785 0.10595 0.69951 0.0
O46 O 0.60673 0.05632 0.51953 0.0
Co47 Co 0.62771 0.90559 0.65942 0.0
O48 O 0.58057 0.90939 0.54055 0.0
C49 C 0.77525 0.86776 0.54021 0.0
C50 C 0.86414 0.13808 0.55316 0.0
C51 C 0.55249 0.98744 0.51643 0.0
O52 O 0.77748 0.95345 0.52173 0.0
O53 O 0.72801 0.83556 0.60129 0.0
O54 O 0.67433 0.16819 0.64645 0.0
O55 O 0.68209 0.02478 0.68513 0.0
Co56 Co 0.4423 0.78243 0.91236 0.0
O57 O 0.33951 0.83944 0.85445 0.0
O58 O 0.47724 0.82156 0.79833 0.0
C59 C 0.36687 0.65535 0.95558 0.0
O60 O 0.56312 0.7225 0.95639 0.0
Co61 Co 0.42651 0.77484 0.10272 0.0
O62 O 0.52526 0.68291 0.08933 0.0
C63 C 0.48981 0.94515 0.03008 0.0
C64 C 0.39267 0.85061 0.79005 0.0
C65 C 0.58008 0.67985 0.02663 0.0
O66 O 0.47966 0.90574 0.95804 0.0
O67 O 0.46926 0.90615 0.09989 0.0
O68 O 0.40228 0.66255 0.88082 0.0
O69 O 0.36551 0.731 1.0001 0.0
Co70 Co 0.793 0.55059 0.08859 0.0
O71 O 0.84445 0.6531 0.15033 0.0
O72 O 0.82842 0.51407 0.20335 0.0
C73 C 0.66508 0.62644 0.04365 0.0
O74 O 0.73832 0.42966 0.04089 0.0
Co75 Co 0.7894 0.56885 0.89947 0.0
O76 O 0.7009 0.46823 0.90746 0.0
C77 C 0.96077 0.50805 0.97487 0.0
C78 C 0.85387 0.59896 0.21435 0.0
C79 C 0.69799 0.41276 0.9695 0.0
O80 O 0.91957 0.51597 0.04635 0.0
O81 O 0.9221 0.52893 0.90476 0.0
O82 O 0.67103 0.58793 0.11715 0.0
O83 O 0.74176 0.6297 1.0011 0.0
Co84 Co 0.56879 0.20115 0.90914 0.0
O85 O 0.66841 0.14433 0.84587 0.0
O86 O 0.52815 0.16284 0.79596 0.0
C87 C 0.64726 0.32736 0.9509 0.0
O88 O 0.45019 0.26104 0.95823 0.0
Co89 Co 0.59266 0.21044 0.09988 0.0
O90 O 0.49233 0.30132 0.09018 0.0
C91 C 0.52609 0.03947 0.02897 0.0
C92 C 0.61215 0.13402 0.78341 0.0
C93 C 0.43532 0.30361 0.02907 0.0
O94 O 0.53342 0.07785 0.95615 0.0
O95 O 0.5494 0.07928 0.09784 0.0
O96 O 0.60837 0.32128 0.87738 0.0
O97 O 0.64928 0.25146 0.9946 0.0
Co98 Co 0.22215 0.432 0.09312 0.0
O99 O 0.16962 0.33053 0.15534 0.0
O100 O 0.1861 0.47023 0.20733 0.0
C101 C 0.34975 0.35509 0.04864 0.0
O102 O 0.27745 0.55229 0.04558 0.0
Co103 Co 0.22906 0.41127 0.90237 0.0
O104 O 0.31615 0.51313 0.9124 0.0
C105 C 0.05662 0.4737 0.97605 0.0
C106 C 0.16037 0.38562 0.21901 0.0
C107 C 0.31796 0.56907 0.97443 0.0
O108 O 0.09629 0.46676 0.04854 0.0
O109 O 0.09646 0.45158 0.90673 0.0
O110 O 0.34411 0.39336 0.12249 0.0
O111 O 0.27313 0.35293 1.00601 0.0
loop_
_geom_bond_atom_site_label_1
_geom_bond_atom_site_label_2
_geom_bond_distance
_geom_bond_site_symmetry_2
_ccdc_geom_bond_type
Co0 O1 2.216 . S
Co0 O2 2.091 . S
Co0 O4 2.004 1_455 S
Co0 O10 2.021 . S
Co0 O12 2.137 . S
Co0 O13 2.244 . S
O1 Co0 2.216 . S
O1 C8 1.247 . S
O2 Co0 2.091 . S
O2 C8 1.261 . S
C3 O12 1.247 . S
C3 O13 1.272 . S
O4 Co0 2.004 1_655 S
O4 C9 1.259 . S
Co5 O6 2.061 1_455 S
Co5 O11 2.052 . S
Co5 O13 2.135 . S
O6 Co5 2.061 1_655 S
O6 C9 1.235 . S
C7 O10 1.238 . S
C7 O11 1.241 . S
C8 O1 1.247 . S
C8 O2 1.261 . S
C9 O4 1.259 . S
C9 O6 1.235 . S
O10 Co0 2.021 . S
O10 C7 1.238 . S
O11 Co5 2.052 . S
O11 C7 1.241 . S
O12 Co0 2.137 . S
O12 C3 1.247 . S
O13 Co0 2.244 . S
O13 C3 1.272 . S
O13 Co5 2.135 . S
Co14 O15 2.216 . S
Co14 O16 2.091 . S
Co14 O18 2.004 . S
Co14 O24 2.021 1_565 S
Co14 O26 2.137 . S
Co14 O27 2.244 . S
O15 Co14 2.216 . S
O15 C22 1.247 . S
O16 Co14 2.091 . S
O16 C22 1.261 . S
C17 O26 1.247 . S
C17 O27 1.272 . S
O18 Co14 2.004 . S
O18 C23 1.259 . S
Co19 O20 2.061 . S
Co19 O25 2.052 . S
Co19 O27 2.135 1_545 S
O20 Co19 2.061 . S
O20 C23 1.235 1_545 S
C21 O24 1.238 . S
C21 O25 1.241 . S
C22 O15 1.247 . S
C22 O16 1.261 . S
C23 O18 1.259 . S
C23 O20 1.235 1_565 S
O24 Co14 2.021 1_545 S
O24 C21 1.238 . S
O25 Co19 2.052 . S
O25 C21 1.241 . S
O26 Co14 2.137 . S
O26 C17 1.247 . S
O27 Co14 2.244 . S
O27 C17 1.272 . S
O27 Co19 2.135 1_565 S
Co28 O29 2.216 . S
Co28 O30 2.091 . S
Co28 O32 2.004 1_655 S
Co28 O38 2.021 . S
Co28 O40 2.137 . S
Co28 O41 2.244 . S
O29 Co28 2.216 . S
O29 C36 1.247 . S
O30 Co28 2.091 . S
O30 C36 1.261 . S
C31 O40 1.247 . S
C31 O41 1.272 . S
O32 Co28 2.004 1_455 S
O32 C37 1.259 . S
Co33 O34 2.061 1_655 S
Co33 O39 2.052 . S
Co33 O41 2.135 . S
O34 Co33 2.061 1_455 S
O34 C37 1.235 . S
C35 O38 1.238 . S
C35 O39 1.241 . S
C36 O29 1.247 . S
C36 O30 1.261 . S
C37 O32 1.259 . S
C37 O34 1.235 . S
O38 Co28 2.021 . S
O38 C35 1.238 . S
O39 Co33 2.052 . S
O39 C35 1.241 . S
O40 Co28 2.137 . S
O40 C31 1.247 . S
O41 Co28 2.244 . S
O41 C31 1.272 . S
O41 Co33 2.135 . S
Co42 O43 2.216 . S
Co42 O44 2.091 . S
Co42 O46 2.004 . S
Co42 O52 2.021 1_545 S
Co42 O54 2.137 . S
Co42 O55 2.244 . S
O43 Co42 2.216 . S
O43 C50 1.247 . S
O44 Co42 2.091 . S
O44 C50 1.261 . S
C45 O54 1.247 . S
C45 O55 1.272 . S
O46 Co42 2.004 . S
O46 C51 1.259 . S
Co47 O48 2.061 . S
Co47 O53 2.052 . S
Co47 O55 2.135 1_565 S
O48 Co47 2.061 . S
O48 C51 1.235 1_565 S
C49 O52 1.238 . S
C49 O53 1.241 . S
C50 O43 1.247 . S
C50 O44 1.261 . S
C51 O46 1.259 . S
C51 O48 1.235 1_545 S
O52 Co42 2.021 1_565 S
O52 C49 1.238 . S
O53 Co47 2.052 . S
O53 C49 1.241 . S
O54 Co42 2.137 . S
O54 C45 1.247 . S
O55 Co42 2.244 . S
O55 C45 1.272 . S
O55 Co47 2.135 1_545 S
Co56 O57 2.216 . S
Co56 O58 2.091 . S
Co56 O60 2.004 . S
Co56 O66 2.021 . S
Co56 O68 2.137 . S
Co56 O69 2.244 1_556 S
O57 Co56 2.216 . S
O57 C64 1.247 . S
O58 Co56 2.091 . S
O58 C64 1.261 . S
C59 O68 1.247 1_554 S
C59 O69 1.272 . S
O60 Co56 2.004 . S
O60 C65 1.259 1_556 S
Co61 O62 2.061 . S
Co61 O67 2.052 . S
Co61 O69 2.135 . S
O62 Co61 2.061 . S
O62 C65 1.235 . S
C63 O66 1.238 1_554 S
C63 O67 1.241 . S
C64 O57 1.247 . S
C64 O58 1.261 . S
C65 O60 1.259 1_554 S
C65 O62 1.235 . S
O66 Co56 2.021 . S
O66 C63 1.238 1_556 S
O67 Co61 2.052 . S
O67 C63 1.241 . S
O68 Co56 2.137 . S
O68 C59 1.247 1_556 S
O69 Co56 2.244 1_554 S
O69 C59 1.272 . S
O69 Co61 2.135 . S
Co70 O71 2.216 . S
Co70 O72 2.091 . S
Co70 O74 2.004 . S
Co70 O80 2.021 . S
Co70 O82 2.137 . S
Co70 O83 2.244 1_554 S
O71 Co70 2.216 . S
O71 C78 1.247 . S
O72 Co70 2.091 . S
O72 C78 1.261 . S
C73 O82 1.247 1_556 S
C73 O83 1.272 . S
O74 Co70 2.004 . S
O74 C79 1.259 1_554 S
Co75 O76 2.061 . S
Co75 O81 2.052 . S
Co75 O83 2.135 . S
O76 Co75 2.061 . S
O76 C79 1.235 . S
C77 O80 1.238 1_556 S
C77 O81 1.241 . S
C78 O71 1.247 . S
C78 O72 1.261 . S
C79 O74 1.259 1_556 S
C79 O76 1.235 . S
O80 Co70 2.021 . S
O80 C77 1.238 1_554 S
O81 Co75 2.052 . S
O81 C77 1.241 . S
O82 Co70 2.137 . S
O82 C73 1.247 1_554 S
O83 Co70 2.244 1_556 S
O83 C73 1.272 . S
O83 Co75 2.135 . S
Co84 O85 2.216 . S
Co84 O86 2.091 . S
Co84 O88 2.004 . S
Co84 O94 2.021 . S
Co84 O96 2.137 . S
Co84 O97 2.244 1_556 S
O85 Co84 2.216 . S
O85 C92 1.247 . S
O86 Co84 2.091 . S
O86 C92 1.261 . S
C87 O96 1.247 1_554 S
C87 O97 1.272 . S
O88 Co84 2.004 . S
O88 C93 1.259 1_556 S
Co89 O90 2.061 . S
Co89 O95 2.052 . S
Co89 O97 2.135 . S
O90 Co89 2.061 . S
O90 C93 1.235 . S
C91 O94 1.238 1_554 S
C91 O95 1.241 . S
C92 O85 1.247 . S
C92 O86 1.261 . S
C93 O88 1.259 1_554 S
C93 O90 1.235 . S
O94 Co84 2.021 . S
O94 C91 1.238 1_556 S
O95 Co89 2.052 . S
O95 C91 1.241 . S
O96 Co84 2.137 . S
O96 C87 1.247 1_556 S
O97 Co84 2.244 1_554 S
O97 C87 1.272 . S
O97 Co89 2.135 . S
Co98 O99 2.216 . S
Co98 O100 2.091 . S
Co98 O102 2.004 . S
Co98 O108 2.021 . S
Co98 O110 2.137 . S
Co98 O111 2.244 1_554 S
O99 Co98 2.216 . S
O99 C106 1.247 . S
O100 Co98 2.091 . S
O100 C106 1.261 . S
C101 O110 1.247 1_556 S
C101 O111 1.272 . S
O102 Co98 2.004 . S
O102 C107 1.259 1_554 S
Co103 O104 2.061 . S
Co103 O109 2.052 . S
Co103 O111 2.135 . S
O104 Co103 2.061 . S
O104 C107 1.235 . S
C105 O108 1.238 1_556 S
C105 O109 1.241 . S
C106 O99 1.247 . S
C106 O100 1.261 . S
C107 O102 1.259 1_556 S
C107 O104 1.235 . S
O108 Co98 2.021 . S
O108 C105 1.238 1_554 S
O109 Co103 2.052 . S
O109 C105 1.241 . S
O110 Co98 2.137 . S
O110 C101 1.247 1_554 S
O111 Co98 2.244 1_556 S
O111 C101 1.272 . S
O111 Co103 2.135 . S
C106 C8 1.593 . S
C17 C64 1.569 . S
C36 C78 1.593 . S
C92 C45 1.569 . S
C21 C3 1.451 . S
C22 C37 1.736 . S
C49 C31 1.451 . S
C50 C9 1.736 . S
C107 C59 1.783 1_556 S
C73 C65 1.698 1_556 S
C79 C87 1.783 1_556 S
C93 C101 1.698 1_554 S
C35 C7 1.470 1_655 S
C51 C23 1.016 1_545 S
C91 C63 1.505 1_545 S
C105 C77 1.429 1_455 S
