# Generated by pormake.
# Topology rob, (6)-cn, num edge types: 1
# Building blocks:
#     Node 0, Type 0, BuildingBlock: BETFEN_clean_sbu_0, # of connection points: 6
#     Node 1, Type 0, BuildingBlock: BETFEN_clean_sbu_0, # of connection points: 6
#     Node 2, Type 0, BuildingBlock: BETFEN_clean_sbu_0, # of connection points: 6
#     Node 3, Type 0, BuildingBlock: BETFEN_clean_sbu_0, # of connection points: 6
#     Edge 4, Type (0, 0), None
#     Edge 5, Type (0, 0), None
#     Edge 6, Type (0, 0), None
#     Edge 7, Type (0, 0), None
#     Edge 8, Type (0, 0), None
#     Edge 9, Type (0, 0), None
#     Edge 10, Type (0, 0), None
#     Edge 11, Type (0, 0), None
#     Edge 12, Type (0, 0), None
#     Edge 13, Type (0, 0), None
#     Edge 14, Type (0, 0), None
#     Edge 15, Type (0, 0), None
# Relax obj value: 0.061
# Max RMSD: 0.221
# Mean RMSD: 0.221
data_MOF--net-rob--node1-BETFEN_clean_sbu_0--edge1-none
_symmetry_space_group_name_H-M    P1
_symmetry_Int_Tables_number       1
_symmetry_cell_setting            triclinic
loop_
_symmetry_equiv_pos_as_xyz
'x, y, z'
_cell_length_a     11.032972
_cell_length_b     9.8790953
_cell_length_c     20.769161
_cell_angle_alpha  93.291484
_cell_angle_beta   90.004731
_cell_angle_gamma 89.994037
loop_
_atom_site_label
_atom_site_type_symbol
_atom_site_fract_x
_atom_site_fract_y
_atom_site_fract_z
_atom_type_partial_charge
Pr0 Pr 0.11288 0.3314 0.08165 0.0
Pr1 Pr 0.19156 0.15097 1.0464 0.0
C2 C -0.02893 0.4557 0.16752 0.0
C3 C -0.05024 0.42473 0.2352 0.0
C4 C -0.08484 0.56881 0.2795 0.0
C5 C 0.74699 0.52625 0.36412 0.0
C6 C 0.71218 0.35924 0.36477 0.0
C7 C 0.77674 0.24193 0.31032 0.0
C8 C 0.88539 0.27137 0.25224 0.0
C9 C 0.34164 0.45111 0.06263 0.0
C10 C 0.18919 0.15935 0.19743 0.0
C11 C 0.33311 0.02624 0.96055 0.0
C12 C 0.35459 0.05737 0.8929 0.0
C13 C 0.3892 0.91337 0.84855 0.0
C14 C 0.55737 0.95607 0.76395 0.0
C15 C 0.59219 0.12308 0.76336 0.0
C16 C 0.52762 0.24033 0.81785 0.0
C17 C 0.41897 0.21079 0.87592 0.0
C18 C -0.03745 0.03195 0.06568 0.0
C19 C 0.11523 0.32284 0.93059 0.0
O20 O -0.07318 0.37139 0.12289 0.0
O21 O 0.07494 0.50852 0.15317 0.0
O22 O 0.32347 0.33304 0.08533 0.0
O23 O 0.23965 0.50271 1.04365 0.0
O24 O 0.2069 0.07137 0.14885 0.0
O25 O 0.17418 0.28338 0.18414 0.0
O26 O 0.37759 0.11022 1.00525 0.0
O27 O 0.22904 0.97381 0.97483 0.0
O28 O -0.01883 0.14944 1.04248 0.0
O29 O 0.06442 0.98043 0.08487 0.0
O30 O 0.09747 0.41082 0.97917 0.0
O31 O 0.13035 0.19883 0.94388 0.0
H32 H -0.04151 0.66219 0.265 0.0
H33 H 0.70188 0.59477 0.39999 0.0
H34 H 0.75365 0.13681 0.31585 0.0
H35 H -0.0917 0.18524 0.22002 0.0
H36 H 0.34586 0.81997 0.86301 0.0
H37 H 0.60249 0.8876 0.72806 0.0
H38 H 0.55071 0.34546 0.81235 0.0
H39 H 0.39604 0.29686 0.90818 0.0
Pr40 Pr 0.61289 0.83138 0.08164 0.0
Pr41 Pr 0.69155 0.65099 1.0464 0.0
C42 C 0.47107 0.95566 0.16752 0.0
C43 C 0.44978 0.92471 0.2352 0.0
C44 C 0.41518 0.0688 0.2795 0.0
C45 C 0.24701 0.02626 0.36412 0.0
C46 C 0.2122 0.85925 0.36477 0.0
C47 C 0.27676 0.74193 0.31033 0.0
C48 C 0.38541 0.77136 0.25225 0.0
C49 C 0.84162 0.95115 0.06268 0.0
C50 C 0.68917 0.65936 0.19743 0.0
C51 C 0.83312 0.52628 0.96055 0.0
C52 C 0.85457 0.55739 0.8929 0.0
C53 C 0.88918 0.41338 0.84855 0.0
C54 C 0.05735 0.45606 0.76395 0.0
C55 C 0.09217 0.62307 0.76335 0.0
C56 C 0.0276 0.74033 0.81784 0.0
C57 C -0.08105 0.7108 0.87591 0.0
C58 C 0.46256 0.53191 0.06562 0.0
C59 C 0.61524 0.82283 0.93059 0.0
O60 O 0.42683 0.87131 0.1229 0.0
O61 O 0.57492 0.00852 0.15315 0.0
O62 O 0.82347 0.83304 0.08535 0.0
O63 O 0.73965 0.00271 1.04366 0.0
O64 O 0.70686 0.57137 0.14885 0.0
O65 O 0.6742 0.78339 0.18414 0.0
O66 O 0.87758 0.6103 1.00524 0.0
O67 O 0.72907 0.47382 0.97485 0.0
O68 O 0.48117 0.64943 1.04245 0.0
O69 O 0.56441 0.48043 0.08487 0.0
O70 O 0.59751 0.91082 0.97917 0.0
O71 O 0.63033 0.69882 0.94388 0.0
H72 H 0.45851 0.16218 0.26499 0.0
H73 H 0.2019 0.09478 0.39999 0.0
H74 H 0.25367 0.63681 0.31587 0.0
H75 H 0.40832 0.68523 0.22003 0.0
H76 H 0.84585 0.31998 0.86301 0.0
H77 H 0.10247 0.38758 0.72807 0.0
H78 H 0.05069 0.84546 0.81233 0.0
H79 H 0.89603 0.79687 0.90816 0.0
Pr80 Pr 0.11289 0.65086 0.54639 0.0
Pr81 Pr 0.19155 0.83128 0.58172 0.0
C82 C -0.02877 0.52676 0.4604 0.0
C83 C -0.05 0.55779 0.39271 0.0
C84 C -0.08464 0.41368 0.34844 0.0
C85 C 0.74682 0.45612 0.26397 0.0
C86 C 0.71186 0.62311 0.26338 0.0
C87 C 0.77655 0.74049 0.31775 0.0
C88 C 0.88544 0.71112 0.37572 0.0
C89 C 0.34164 0.53113 0.56545 0.0
C90 C 0.18938 0.823 0.4307 0.0
C91 C 0.33296 0.95581 0.66769 0.0
C92 C 0.35435 0.92461 0.73535 0.0
C93 C 0.389 0.06864 0.77968 0.0
C94 C 0.55754 0.02606 0.86411 0.0
C95 C 0.5925 0.85907 0.86465 0.0
C96 C 0.52781 0.74176 0.81025 0.0
C97 C 0.41892 0.77123 0.75227 0.0
C98 C -0.03745 0.95031 0.5624 0.0
C99 C 0.11504 0.65931 0.69743 0.0
O100 O -0.0731 0.61101 0.50502 0.0
O101 O 0.07506 0.47385 0.47479 0.0
O102 O 0.32348 0.64924 0.54278 0.0
O103 O 0.23964 0.4795 0.58438 0.0
O104 O 0.20702 0.91098 0.47929 0.0
O105 O 0.17433 0.69897 0.44396 0.0
O106 O 0.3775 0.87188 0.62299 0.0
O107 O 0.22892 0.00832 0.65337 0.0
O108 O -0.01884 0.83279 0.58557 0.0
O109 O 0.06442 0.00187 0.54325 0.0
O110 O 0.09735 0.57134 0.64884 0.0
O111 O 0.13021 0.78332 0.68418 0.0
H112 H -0.04118 0.32033 0.36289 0.0
H113 H 0.70163 0.38759 0.22814 0.0
H114 H 0.75337 0.8456 0.31222 0.0
H115 H -0.0916 0.79725 0.40792 0.0
H116 H 0.34554 0.16202 0.76526 0.0
H117 H 0.60273 0.09456 0.89996 0.0
H118 H 0.55099 0.63664 0.81574 0.0
H119 H 0.39595 0.68515 0.72004 0.0
Pr120 Pr 0.6129 0.15088 0.5464 0.0
Pr121 Pr 0.69154 0.33126 0.58171 0.0
C122 C 0.47122 0.0268 0.4604 0.0
C123 C 0.45002 0.05781 0.39271 0.0
C124 C 0.41538 0.91369 0.34844 0.0
C125 C 0.24684 0.95612 0.26398 0.0
C126 C 0.21188 0.12311 0.26338 0.0
C127 C 0.27657 0.24049 0.31774 0.0
C128 C 0.38546 0.21113 0.37571 0.0
C129 C 0.84162 0.0311 0.56539 0.0
C130 C 0.68936 0.32299 0.4307 0.0
C131 C 0.83296 0.45577 0.66769 0.0
C132 C 0.85433 0.42459 0.73535 0.0
C133 C 0.88898 0.56863 0.77967 0.0
C134 C 0.05752 0.52607 0.86411 0.0
C135 C 0.09248 0.35908 0.86465 0.0
C136 C 0.02779 0.24176 0.81025 0.0
C137 C -0.0811 0.27122 0.75228 0.0
C138 C 0.46256 0.45035 0.56246 0.0
C139 C 0.61505 0.15932 0.69744 0.0
O140 O 0.42691 0.1111 0.50502 0.0
O141 O 0.57503 0.97385 0.47481 0.0
O142 O 0.82348 0.14924 0.54275 0.0
O143 O 0.73965 0.9795 0.58437 0.0
O144 O 0.70698 0.41097 0.47929 0.0
O145 O 0.67435 0.19896 0.44396 0.0
O146 O 0.87749 0.3718 0.623 0.0
O147 O 0.72895 0.50832 0.65335 0.0
O148 O 0.48116 0.33279 0.5856 0.0
O149 O 0.56442 0.50186 0.54326 0.0
O150 O 0.59739 0.07135 0.64885 0.0
O151 O 0.63019 0.28334 0.68418 0.0
H152 H 0.45884 0.82034 0.3629 0.0
H153 H 0.20166 0.88757 0.22814 0.0
H154 H 0.25338 0.3456 0.31221 0.0
H155 H 0.40842 0.29727 0.40791 0.0
H156 H 0.84552 0.66201 0.76525 0.0
H157 H 0.10271 0.59457 0.89996 0.0
H158 H 0.05098 0.13664 0.81575 0.0
H159 H 0.89593 0.18513 0.72005 0.0
loop_
_geom_bond_atom_site_label_1
_geom_bond_atom_site_label_2
_geom_bond_distance
_geom_bond_site_symmetry_2
_ccdc_geom_bond_type
Pr0 C2 2.880 1_455 S
Pr0 O20 2.562 1_455 S
Pr0 O21 2.490 . S
Pr0 O22 2.695 1_554 S
Pr0 O23 2.512 . S
Pr0 O25 2.437 . S
Pr0 O28 2.436 . S
Pr0 O30 2.438 1_554 S
Pr1 C11 2.880 . S
Pr1 O22 2.436 . S
Pr1 O24 2.438 1_556 S
Pr1 O26 2.562 . S
Pr1 O27 2.490 1_545 S
Pr1 O28 2.695 1_556 S
Pr1 O29 2.512 1_545 S
Pr1 O31 2.437 . S
C2 Pr0 2.880 1_655 S
C2 C3 1.491 . S
C2 O20 1.254 . S
C2 O21 1.225 1_655 S
C3 C2 1.491 . S
C3 C4 1.392 . S
C3 C8 1.356 . S
C4 C3 1.392 . S
C4 C5 1.368 . S
C4 H32 0.929 . S
C5 C4 1.368 . S
C5 C6 1.386 . S
C5 H33 0.929 . S
C6 C5 1.386 . S
C6 C7 1.373 . S
C7 C6 1.373 . S
C7 C8 1.409 . S
C7 H34 0.931 . S
C8 C3 1.356 . S
C8 C7 1.409 . S
C8 H35 0.930 . S
C9 O22 1.270 1_554 S
C9 O23 1.248 . S
C10 O24 1.267 . S
C10 O25 1.278 . S
C11 Pr1 2.880 . S
C11 C12 1.491 . S
C11 O26 1.254 . S
C11 O27 1.225 1_545 S
C12 C11 1.491 . S
C12 C13 1.392 1_545 S
C12 C17 1.356 . S
C13 C12 1.392 1_565 S
C13 C14 1.368 . S
C13 H36 0.929 . S
C14 C13 1.368 . S
C14 C15 1.386 1_565 S
C14 H37 0.929 . S
C15 C14 1.386 1_545 S
C15 C16 1.373 . S
C16 C15 1.373 . S
C16 C17 1.409 . S
C16 H38 0.931 . S
C17 C12 1.356 . S
C17 C16 1.409 . S
C17 H39 0.930 . S
C18 O28 1.270 1_556 S
C18 O29 1.248 1_545 S
C19 O30 1.267 . S
C19 O31 1.278 . S
O20 Pr0 2.562 1_655 S
O20 C2 1.254 . S
O21 Pr0 2.490 . S
O21 C2 1.225 1_455 S
O22 Pr0 2.695 1_556 S
O22 Pr1 2.436 . S
O22 C9 1.270 1_556 S
O23 Pr0 2.512 . S
O23 C9 1.248 . S
O24 Pr1 2.438 1_554 S
O24 C10 1.267 . S
O25 Pr0 2.437 . S
O25 C10 1.278 . S
O26 Pr1 2.562 . S
O26 C11 1.254 . S
O27 Pr1 2.490 1_565 S
O27 C11 1.225 1_565 S
O28 Pr0 2.436 . S
O28 Pr1 2.695 1_554 S
O28 C18 1.270 1_554 S
O29 Pr1 2.512 1_565 S
O29 C18 1.248 1_565 S
O30 Pr0 2.438 1_556 S
O30 C19 1.267 . S
O31 Pr1 2.437 . S
O31 C19 1.278 . S
H32 C4 0.929 . S
H33 C5 0.929 . S
H34 C7 0.931 . S
H35 C8 0.930 . S
H36 C13 0.929 . S
H37 C14 0.929 . S
H38 C16 0.931 . S
H39 C17 0.930 . S
Pr40 C42 2.880 . S
Pr40 O60 2.562 . S
Pr40 O61 2.490 1_565 S
Pr40 O62 2.695 1_554 S
Pr40 O63 2.512 1_565 S
Pr40 O65 2.437 . S
Pr40 O68 2.436 . S
Pr40 O70 2.438 1_554 S
Pr41 C51 2.880 1_655 S
Pr41 O62 2.436 . S
Pr41 O64 2.438 1_556 S
Pr41 O66 2.562 1_655 S
Pr41 O67 2.490 . S
Pr41 O68 2.695 1_556 S
Pr41 O69 2.512 . S
Pr41 O71 2.437 . S
C42 Pr40 2.880 . S
C42 C43 1.491 . S
C42 O60 1.254 . S
C42 O61 1.225 1_565 S
C43 C42 1.491 . S
C43 C44 1.392 1_565 S
C43 C48 1.356 . S
C44 C43 1.392 1_545 S
C44 C45 1.368 . S
C44 H72 0.929 . S
C45 C44 1.368 . S
C45 C46 1.386 1_545 S
C45 H73 0.929 . S
C46 C45 1.386 1_565 S
C46 C47 1.373 . S
C47 C46 1.373 . S
C47 C48 1.409 . S
C47 H74 0.931 . S
C48 C43 1.356 . S
C48 C47 1.409 . S
C48 H75 0.930 . S
C49 O62 1.270 1_554 S
C49 O63 1.248 1_565 S
C50 O64 1.267 . S
C50 O65 1.278 . S
C51 Pr41 2.880 1_455 S
C51 C52 1.491 . S
C51 O66 1.254 . S
C51 O67 1.225 1_455 S
C52 C51 1.491 . S
C52 C53 1.392 . S
C52 C57 1.356 . S
C53 C52 1.392 . S
C53 C54 1.368 . S
C53 H76 0.929 . S
C54 C53 1.368 . S
C54 C55 1.386 . S
C54 H77 0.929 . S
C55 C54 1.386 . S
C55 C56 1.373 . S
C56 C55 1.373 . S
C56 C57 1.409 . S
C56 H78 0.931 . S
C57 C52 1.356 . S
C57 C56 1.409 . S
C57 H79 0.930 . S
C58 O68 1.270 1_556 S
C58 O69 1.248 . S
C59 O70 1.267 . S
C59 O71 1.278 . S
O60 Pr40 2.562 . S
O60 C42 1.254 . S
O61 Pr40 2.490 1_545 S
O61 C42 1.225 1_545 S
O62 Pr40 2.695 1_556 S
O62 Pr41 2.436 . S
O62 C49 1.270 1_556 S
O63 Pr40 2.512 1_545 S
O63 C49 1.248 1_545 S
O64 Pr41 2.438 1_554 S
O64 C50 1.267 . S
O65 Pr40 2.437 . S
O65 C50 1.278 . S
O66 Pr41 2.562 1_455 S
O66 C51 1.254 . S
O67 Pr41 2.490 . S
O67 C51 1.225 1_655 S
O68 Pr40 2.436 . S
O68 Pr41 2.695 1_554 S
O68 C58 1.270 1_554 S
O69 Pr41 2.512 . S
O69 C58 1.248 . S
O70 Pr40 2.438 1_556 S
O70 C59 1.267 . S
O71 Pr41 2.437 . S
O71 C59 1.278 . S
H72 C44 0.929 . S
H73 C45 0.929 . S
H74 C47 0.931 . S
H75 C48 0.930 . S
H76 C53 0.929 . S
H77 C54 0.929 . S
H78 C56 0.931 . S
H79 C57 0.930 . S
Pr80 C82 2.880 1_455 S
Pr80 O100 2.562 1_455 S
Pr80 O101 2.490 . S
Pr80 O102 2.695 . S
Pr80 O103 2.512 . S
Pr80 O105 2.437 . S
Pr80 O108 2.436 . S
Pr80 O110 2.438 . S
Pr81 C91 2.880 . S
Pr81 O102 2.436 . S
Pr81 O104 2.438 . S
Pr81 O106 2.562 . S
Pr81 O107 2.490 1_565 S
Pr81 O108 2.695 . S
Pr81 O109 2.512 1_565 S
Pr81 O111 2.437 . S
C82 Pr80 2.880 1_655 S
C82 C83 1.491 . S
C82 O100 1.254 . S
C82 O101 1.225 1_655 S
C83 C82 1.491 . S
C83 C84 1.392 . S
C83 C88 1.356 . S
C84 C83 1.392 . S
C84 C85 1.368 . S
C84 H112 0.929 . S
C85 C84 1.368 . S
C85 C86 1.386 . S
C85 H113 0.929 . S
C86 C85 1.386 . S
C86 C87 1.373 . S
C87 C86 1.373 . S
C87 C88 1.409 . S
C87 H114 0.931 . S
C88 C83 1.356 . S
C88 C87 1.409 . S
C88 H115 0.930 . S
C89 O102 1.270 . S
C89 O103 1.248 . S
C90 O104 1.267 . S
C90 O105 1.278 . S
C91 Pr81 2.880 . S
C91 C92 1.491 . S
C91 O106 1.254 . S
C91 O107 1.225 1_565 S
C92 C91 1.491 . S
C92 C93 1.392 1_565 S
C92 C97 1.356 . S
C93 C92 1.392 1_545 S
C93 C94 1.368 . S
C93 H116 0.929 . S
C94 C93 1.368 . S
C94 C95 1.386 1_545 S
C94 H117 0.929 . S
C95 C94 1.386 1_565 S
C95 C96 1.373 . S
C96 C95 1.373 . S
C96 C97 1.409 . S
C96 H118 0.931 . S
C97 C92 1.356 . S
C97 C96 1.409 . S
C97 H119 0.930 . S
C98 O108 1.270 . S
C98 O109 1.248 1_565 S
C99 O110 1.267 . S
C99 O111 1.278 . S
O100 Pr80 2.562 1_655 S
O100 C82 1.254 . S
O101 Pr80 2.490 . S
O101 C82 1.225 1_455 S
O102 Pr80 2.695 . S
O102 Pr81 2.436 . S
O102 C89 1.270 . S
O103 Pr80 2.512 . S
O103 C89 1.248 . S
O104 Pr81 2.438 . S
O104 C90 1.267 . S
O105 Pr80 2.437 . S
O105 C90 1.278 . S
O106 Pr81 2.562 . S
O106 C91 1.254 . S
O107 Pr81 2.490 1_545 S
O107 C91 1.225 1_545 S
O108 Pr80 2.436 . S
O108 Pr81 2.695 . S
O108 C98 1.270 . S
O109 Pr81 2.512 1_545 S
O109 C98 1.248 1_545 S
O110 Pr80 2.438 . S
O110 C99 1.267 . S
O111 Pr81 2.437 . S
O111 C99 1.278 . S
H112 C84 0.929 . S
H113 C85 0.929 . S
H114 C87 0.931 . S
H115 C88 0.930 . S
H116 C93 0.929 . S
H117 C94 0.929 . S
H118 C96 0.931 . S
H119 C97 0.930 . S
Pr120 C122 2.880 . S
Pr120 O140 2.562 . S
Pr120 O141 2.490 1_545 S
Pr120 O142 2.695 . S
Pr120 O143 2.512 1_545 S
Pr120 O145 2.437 . S
Pr120 O148 2.436 . S
Pr120 O150 2.438 . S
Pr121 C131 2.880 1_655 S
Pr121 O142 2.436 . S
Pr121 O144 2.438 . S
Pr121 O146 2.562 1_655 S
Pr121 O147 2.490 . S
Pr121 O148 2.695 . S
Pr121 O149 2.512 . S
Pr121 O151 2.437 . S
C122 Pr120 2.880 . S
C122 C123 1.491 . S
C122 O140 1.254 . S
C122 O141 1.225 1_545 S
C123 C122 1.491 . S
C123 C124 1.392 1_545 S
C123 C128 1.356 . S
C124 C123 1.392 1_565 S
C124 C125 1.368 . S
C124 H152 0.929 . S
C125 C124 1.368 . S
C125 C126 1.386 1_565 S
C125 H153 0.929 . S
C126 C125 1.386 1_545 S
C126 C127 1.373 . S
C127 C126 1.373 . S
C127 C128 1.409 . S
C127 H154 0.931 . S
C128 C123 1.356 . S
C128 C127 1.409 . S
C128 H155 0.930 . S
C129 O142 1.270 . S
C129 O143 1.248 1_545 S
C130 O144 1.267 . S
C130 O145 1.278 . S
C131 Pr121 2.880 1_455 S
C131 C132 1.491 . S
C131 O146 1.254 . S
C131 O147 1.225 1_455 S
C132 C131 1.491 . S
C132 C133 1.392 . S
C132 C137 1.356 . S
C133 C132 1.392 . S
C133 C134 1.368 . S
C133 H156 0.929 . S
C134 C133 1.368 . S
C134 C135 1.386 . S
C134 H157 0.929 . S
C135 C134 1.386 . S
C135 C136 1.373 . S
C136 C135 1.373 . S
C136 C137 1.409 . S
C136 H158 0.931 . S
C137 C132 1.356 . S
C137 C136 1.409 . S
C137 H159 0.930 . S
C138 O148 1.270 . S
C138 O149 1.248 . S
C139 O150 1.267 . S
C139 O151 1.278 . S
O140 Pr120 2.562 . S
O140 C122 1.254 . S
O141 Pr120 2.490 1_565 S
O141 C122 1.225 1_565 S
O142 Pr120 2.695 . S
O142 Pr121 2.436 . S
O142 C129 1.270 . S
O143 Pr120 2.512 1_565 S
O143 C129 1.248 1_565 S
O144 Pr121 2.438 . S
O144 C130 1.267 . S
O145 Pr120 2.437 . S
O145 C130 1.278 . S
O146 Pr121 2.562 1_455 S
O146 C131 1.254 . S
O147 Pr121 2.490 . S
O147 C131 1.225 1_655 S
O148 Pr120 2.436 . S
O148 Pr121 2.695 . S
O148 C138 1.270 . S
O149 Pr121 2.512 . S
O149 C138 1.248 . S
O150 Pr120 2.438 . S
O150 C139 1.267 . S
O151 Pr121 2.437 . S
O151 C139 1.278 . S
H152 C124 0.929 . S
H153 C125 0.929 . S
H154 C127 0.931 . S
H155 C128 0.930 . S
H156 C133 0.929 . S
H157 C134 0.929 . S
H158 C136 0.931 . S
H159 C137 0.930 . S
C58 C9 2.158 1_556 S
C89 C138 2.158 . S
C18 C49 2.158 1_446 S
C129 C98 2.158 1_645 S
C126 C10 2.199 . S
C46 C90 2.199 . S
C59 C95 2.201 . S
C139 C15 2.201 . S
C50 C86 2.199 . S
C130 C6 2.199 . S
C135 C19 2.201 . S
C99 C55 2.201 . S
