# Generated by pormake.
# Topology cdl, (4)-cn, num edge types: 1
# Building blocks:
#     Node 0, Type 0, BuildingBlock: ESEHIV_clean_sbu_0, # of connection points: 4
#     Node 1, Type 0, BuildingBlock: ESEHIV_clean_sbu_0, # of connection points: 4
#     Node 2, Type 0, BuildingBlock: ESEHIV_clean_sbu_0, # of connection points: 4
#     Node 3, Type 0, BuildingBlock: ESEHIV_clean_sbu_0, # of connection points: 4
#     Edge 4, Type (0, 0), BuildingBlock: XIVTED_clean_linker_0, # of connection points: 2
#     Edge 5, Type (0, 0), BuildingBlock: XIVTED_clean_linker_0, # of connection points: 2
#     Edge 6, Type (0, 0), BuildingBlock: XIVTED_clean_linker_0, # of connection points: 2
#     Edge 7, Type (0, 0), BuildingBlock: XIVTED_clean_linker_0, # of connection points: 2
#     Edge 8, Type (0, 0), BuildingBlock: XIVTED_clean_linker_0, # of connection points: 2
#     Edge 9, Type (0, 0), BuildingBlock: XIVTED_clean_linker_0, # of connection points: 2
#     Edge 10, Type (0, 0), BuildingBlock: XIVTED_clean_linker_0, # of connection points: 2
#     Edge 11, Type (0, 0), BuildingBlock: XIVTED_clean_linker_0, # of connection points: 2
# Relax obj value: 0.000
# Max RMSD: 0.146
# Mean RMSD: 0.094
data_MOF--net-cdl--node1-ESEHIV_clean_sbu_0--edge1-XIVTED_clean_linker_0
_symmetry_space_group_name_H-M    P1
_symmetry_Int_Tables_number       1
_symmetry_cell_setting            triclinic
loop_
_symmetry_equiv_pos_as_xyz
'x, y, z'
_cell_length_a     14.688985
_cell_length_b     17.074592
_cell_length_c     63.217262
_cell_angle_alpha  100.95756
_cell_angle_beta   99.703627
_cell_angle_gamma 88.43277
loop_
_atom_site_label
_atom_site_type_symbol
_atom_site_fract_x
_atom_site_fract_y
_atom_site_fract_z
_atom_type_partial_charge
Cu0 Cu 0.04079 0.11328 0.12265 0.0
N1 N 0.97604 1.01876 0.10961 0.0
N2 N 0.93379 0.89047 0.10237 0.0
C3 C 0.98245 0.94912 0.11682 0.0
C4 C 0.89562 0.92424 0.08535 0.0
C5 C 0.92161 1.00355 0.0899 0.0
O6 O 0.09182 0.10876 0.15301 0.0
C7 C 0.16647 0.07142 0.0926 0.0
O8 O 0.15197 0.99777 0.09456 0.0
H9 H 0.02504 0.94071 0.13195 0.0
H10 H 0.9044 0.04661 0.07934 0.0
N11 N 0.96169 0.20076 0.12229 0.0
N12 N 0.91324 0.32455 0.12005 0.0
C13 C 0.98218 0.2714 0.11766 0.0
C14 C 0.87643 0.20923 0.12756 0.0
C15 C 0.8466 0.28584 0.12634 0.0
C16 C 0.03559 0.09088 0.16468 0.0
O17 O 0.9488 0.07696 0.15572 0.0
H18 H 0.04749 0.28429 0.11324 0.0
H19 H 0.83886 0.16331 0.13215 0.0
O20 O 0.13227 0.12866 0.10482 0.0
H21 H 0.85267 0.89365 0.07063 0.0
H22 H 0.78103 0.31109 0.12975 0.0
Cu23 Cu 0.21127 0.21493 0.65866 0.0
N24 N 0.23677 0.15509 0.68091 0.0
N25 N 0.24889 0.12575 0.71431 0.0
C26 C 0.23884 0.18403 0.70234 0.0
C27 C 0.25638 0.0576 0.69986 0.0
C28 C 0.24893 0.07591 0.67926 0.0
O29 O 0.10363 0.28214 0.66231 0.0
C30 C 0.38883 0.24199 0.65255 0.0
O31 O 0.38234 0.16534 0.64429 0.0
H32 H 0.22847 0.24641 0.70881 0.0
H33 H 0.24854 1.03411 0.66407 0.0
N34 N 0.18321 0.15009 0.63096 0.0
N35 N 0.17103 0.10976 0.59481 0.0
C36 C 0.20886 0.1633 0.61245 0.0
C37 C 0.12597 0.08662 0.62476 0.0
C38 C 0.11831 0.06154 0.60242 0.0
C39 C 0.04212 0.26371 0.67252 0.0
O40 O 0.05279 0.20002 0.68145 0.0
H41 H 0.25229 0.21273 0.61183 0.0
H42 H 0.09081 0.06148 0.63566 0.0
O43 O 0.32077 0.2778 0.66008 0.0
H44 H 0.26131 0.99829 0.70366 0.0
H45 H 0.07733 1.01182 0.59256 0.0
Cu46 Cu 0.06815 0.11978 0.90313 0.0
N47 N 0.98948 1.03128 0.89618 0.0
N48 N 0.94006 0.90721 0.89429 0.0
C49 C 1.00653 0.96216 0.90339 0.0
C50 C 0.87856 0.94315 0.88089 0.0
C51 C 0.90894 1.01997 0.88221 0.0
O52 O 0.15286 0.10655 0.9294 0.0
C53 C 0.07743 0.14208 0.8612 0.0
O54 O 0.98979 0.15766 0.86183 0.0
H55 H 0.06812 0.95148 0.91453 0.0
H56 H 0.87528 0.06395 0.87335 0.0
N57 N 1.0007 0.21329 0.90965 0.0
N58 N 0.95611 0.34041 0.91233 0.0
C59 C 1.00993 0.28296 0.90315 0.0
C60 C 0.93924 0.22729 0.92348 0.0
C61 C 0.91176 0.30588 0.92523 0.0
C62 C 0.18296 0.16458 0.94462 0.0
O63 O 0.16881 0.23788 0.9413 0.0
H64 H 0.0576 0.29222 0.89253 0.0
H65 H 0.91771 0.1838 0.93206 0.0
O66 O 0.12798 0.12349 0.87796 0.0
H67 H 0.81632 0.91577 0.87086 0.0
H68 H 0.86324 0.33541 0.93522 0.0
Cu69 Cu 0.21628 0.20076 0.38694 0.0
N70 N 0.1904 0.12926 0.36037 0.0
N71 N 0.16718 0.07968 0.32449 0.0
C72 C 0.19673 0.14291 0.34036 0.0
C73 C 0.14258 1.02392 0.33506 0.0
C74 C 0.15709 0.05464 0.35716 0.0
O75 O 0.32491 0.26265 0.38571 0.0
C76 C 0.04108 0.27587 0.37718 0.0
O77 O 0.05656 0.26097 0.35694 0.0
H78 H 0.21868 0.19941 0.33747 0.0
H79 H 0.14272 1.0253 0.36998 0.0
N80 N 0.24726 0.1424 0.40928 0.0
N81 N 0.25627 0.10447 0.4415 0.0
C82 C 0.21128 0.15002 0.42781 0.0
C83 C 0.31666 0.08982 0.4112 0.0
C84 C 0.32263 0.06652 0.4311 0.0
C85 C 0.38707 0.28502 0.40233 0.0
O86 O 0.37112 0.27818 0.42173 0.0
H87 H 0.15613 0.1909 0.43161 0.0
H88 H 0.36158 0.07182 0.39924 0.0
O89 O 0.10416 0.2609 0.39237 0.0
H90 H 0.11505 0.96533 0.32741 0.0
H91 H 0.37271 1.02573 0.43757 0.0
H92 H 0.84143 0.45136 0.14441 0.0
H93 H 0.93164 0.76013 0.07027 0.0
H94 H 0.98417 0.38408 0.0895 0.0
H95 H 0.92281 0.8336 0.13899 0.0
H96 H 0.92474 0.62015 0.07425 0.0
H97 H 0.84428 0.59097 0.13993 0.0
C98 C 0.87272 0.46605 0.13132 0.0
C99 C 0.91274 0.40638 0.11731 0.0
C100 C 0.92424 0.66701 0.08843 0.0
C101 C 0.91557 0.5652 0.11198 0.0
C102 C 0.92755 0.74665 0.08614 0.0
C103 C 0.92786 0.80821 0.10434 0.0
C104 C 0.91918 0.64899 0.10897 0.0
C105 C 0.92344 0.78771 0.12462 0.0
C106 C 0.87487 0.54555 0.12886 0.0
C107 C 0.9533 0.42853 0.10073 0.0
N108 N 0.91858 0.70981 0.12637 0.0
N109 N 0.95312 0.50615 0.09841 0.0
H110 H 0.47861 0.34545 0.68775 0.0
H111 H 0.94418 0.31686 0.63739 0.0
H112 H 0.50091 0.228 0.62216 0.0
H113 H 0.93321 0.29531 0.70377 0.0
H114 H 0.77788 0.34527 0.63203 0.0
H115 H 0.64164 0.38648 0.69335 0.0
C116 C 0.51705 0.33073 0.67434 0.0
C117 C 0.47751 0.28265 0.65458 0.0
C118 C 0.81281 0.33692 0.64796 0.0
C119 C 0.66152 0.32991 0.6607 0.0
C120 C 0.90747 0.32122 0.65106 0.0
C121 C 0.95153 0.30288 0.67096 0.0
C122 C 0.76312 0.33555 0.66501 0.0
C123 C 0.901 0.30835 0.68811 0.0
C124 C 0.60968 0.35381 0.67755 0.0
C125 C 0.52983 0.26432 0.63771 0.0
N126 N 0.80899 0.32338 0.68469 0.0
N127 N 0.61959 0.2875 0.6412 0.0
H128 H 0.9604 0.39505 0.87509 0.0
H129 H 0.99527 0.8523 0.93182 0.0
H130 H 0.93876 0.4717 0.94304 0.0
H131 H 0.88187 0.77694 0.86369 0.0
H132 H 0.9959 0.71267 0.93646 0.0
H133 H 0.95269 0.53488 0.87059 0.0
C134 C 0.95422 0.44148 0.88904 0.0
C135 C 0.95007 0.4221 0.90945 0.0
C136 C 0.9705 0.72686 0.92053 0.0
C137 C 0.94221 0.58161 0.90452 0.0
C138 C 0.97061 0.80622 0.91787 0.0
C139 C 0.93833 0.8259 0.89736 0.0
C140 C 0.93986 0.66666 0.90245 0.0
C141 C 0.90647 0.76418 0.8798 0.0
C142 C 0.94928 0.52099 0.88646 0.0
C143 C 0.94134 0.48429 0.92702 0.0
N144 N 0.90888 0.68717 0.88268 0.0
N145 N 0.93859 0.56143 0.92421 0.0
H146 H 0.54051 0.31982 0.43391 0.0
H147 H 0.88768 0.30102 0.34796 0.0
H148 H 0.4515 0.29219 0.36425 0.0
H149 H 0.97685 0.29751 0.41641 0.0
H150 H 0.72849 0.31808 0.35449 0.0
H151 H 0.70001 0.33218 0.42855 0.0
C152 C 0.55414 0.31746 0.41749 0.0
C153 C 0.48204 0.30435 0.39949 0.0
C154 C 0.7829 0.31435 0.36813 0.0
C155 C 0.66558 0.31797 0.39323 0.0
C156 C 0.87414 0.30486 0.36444 0.0
C157 C 0.94621 0.29722 0.38163 0.0
C158 C 0.76294 0.31635 0.38919 0.0
C159 C 0.92382 0.30284 0.40263 0.0
C160 C 0.64555 0.32422 0.41445 0.0
C161 C 0.50455 0.30193 0.37862 0.0
N162 N 0.83427 0.31146 0.40577 0.0
N163 N 0.59421 0.30803 0.37607 0.0
H164 H 0.21333 1.02092 0.95807 0.0
H165 H 0.19866 0.21585 0.08206 0.0
H166 H 0.22283 0.27491 0.9826 0.0
H167 H 0.21594 0.96219 0.05874 0.0
H168 H 0.22997 0.23902 0.047 0.0
H169 H 0.23672 0.99843 0.99562 0.0
C170 C 0.22196 0.07203 0.97134 0.0
C171 C 0.2148 0.14999 0.9671 0.0
C172 C 0.22837 0.1783 0.04966 0.0
C173 C 0.24034 0.12457 1.01024 0.0
C174 C 0.21068 0.16499 0.06973 0.0
C175 C 0.20332 0.08685 0.0733 0.0
C176 C 0.23795 0.11303 0.0329 0.0
C177 C 0.22009 1.02344 0.0567 0.0
C178 C 0.23514 0.05912 0.99282 0.0
C179 C 0.22702 0.21376 0.98502 0.0
N180 N 0.23516 0.03788 0.03714 0.0
N181 N 0.23776 0.19965 1.00576 0.0
H182 H 0.09324 0.11534 0.45658 0.0
H183 H 0.32711 0.14386 0.58096 0.0
H184 H 0.38625 0.08905 0.47631 0.0
H185 H 0.04443 0.06799 0.55797 0.0
H186 H 0.34764 0.14026 0.54313 0.0
H187 H 0.07088 0.11389 0.49417 0.0
C188 C 0.15274 0.10935 0.46884 0.0
C189 C 0.24167 0.1021 0.46335 0.0
C190 C 0.28118 0.12415 0.54635 0.0
C191 C 0.21689 0.10116 0.50627 0.0
C192 C 0.26933 0.12667 0.56791 0.0
C193 C 0.18396 0.10623 0.57256 0.0
C194 C 0.20664 0.10244 0.52929 0.0
C195 C 0.11151 0.08355 0.55504 0.0
C196 C 0.13995 0.10808 0.49021 0.0
C197 C 0.31649 0.09392 0.4798 0.0
N198 N 0.1242 0.08292 0.53416 0.0
N199 N 0.30252 0.09435 0.50054 0.0
H200 H 0.04401 0.98873 0.29327 0.0
H201 H 0.19478 0.14824 0.19281 0.0
H202 H 0.26289 0.16137 0.30216 0.0
H203 H 0.94264 1.01919 0.1895 0.0
H204 H 0.23409 0.14172 0.23189 0.0
H205 H 1.02016 0.98621 0.25413 0.0
C206 C 0.08787 1.02556 0.287 0.0
C207 C 0.15552 0.07546 0.30114 0.0
C208 C 0.17039 0.11471 0.22251 0.0
C209 C 0.12761 0.07363 0.25605 0.0
C210 C 0.14814 0.11814 0.20024 0.0
C211 C 0.06503 0.08468 0.18791 0.0
C212 C 0.10955 0.07669 0.23236 0.0
C213 C 1.00704 0.04649 0.19835 0.0
C214 C 0.07369 1.02457 0.26459 0.0
C215 C 0.20917 0.12276 0.29193 0.0
N216 N 0.03038 0.04358 0.21988 0.0
N217 N 0.19404 0.12077 0.26997 0.0
H218 H 0.31987 1.03024 0.74298 0.0
H219 H 1.00728 0.22697 0.83013 0.0
H220 H 0.14924 0.23725 0.73712 0.0
H221 H 0.23011 0.06753 0.84629 0.0
H222 H 0.05831 0.22788 0.79553 0.0
H223 H 0.28822 0.03871 0.78032 0.0
C224 C 0.27635 0.07767 0.74957 0.0
C225 C 0.23728 0.13311 0.73685 0.0
C226 C 0.09675 0.19304 0.80664 0.0
C227 C 0.20057 0.14294 0.77941 0.0
C228 C 0.0674 0.19229 0.82641 0.0
C229 C 0.11426 0.14678 0.84108 0.0
C230 C 0.17293 0.14694 0.80117 0.0
C231 C 0.19218 0.10355 0.83544 0.0
C232 C 0.25873 0.08271 0.77089 0.0
C233 C 0.18196 0.19377 0.7463 0.0
N234 N 0.21858 0.10391 0.81577 0.0
N235 N 0.16473 0.19655 0.76686 0.0
loop_
_geom_bond_atom_site_label_1
_geom_bond_atom_site_label_2
_geom_bond_distance
_geom_bond_site_symmetry_2
_ccdc_geom_bond_type
Cu0 N1 1.999 1_545 S
Cu0 O6 1.974 . S
Cu0 N11 1.985 . S
Cu0 O20 1.959 . S
N1 Cu0 1.999 1_565 S
N1 C3 1.263 . S
N1 C5 1.389 . S
N2 C3 1.358 . S
N2 C4 1.400 . S
C3 N1 1.263 . S
C3 N2 1.358 . S
C3 H9 0.930 . S
C4 N2 1.400 . S
C4 C5 1.351 . S
C4 H21 0.930 . S
C5 N1 1.389 . S
C5 C4 1.351 . S
C5 H10 0.930 . S
O6 Cu0 1.974 . S
O6 C16 1.282 . S
C7 O8 1.261 . S
C7 O20 1.251 . S
O8 C7 1.261 . S
H9 C3 0.930 . S
H10 C5 0.930 . S
N11 Cu0 1.985 . S
N11 C13 1.335 . S
N11 C14 1.390 . S
N12 C13 1.345 . S
N12 C15 1.336 . S
C13 N11 1.335 . S
C13 N12 1.345 . S
C13 H18 0.930 . S
C14 N11 1.390 . S
C14 C15 1.346 . S
C14 H19 0.930 . S
C15 N12 1.336 . S
C15 C14 1.346 . S
C15 H22 0.929 . S
C16 O6 1.282 . S
C16 O17 1.216 . S
O17 C16 1.216 . S
H18 C13 0.930 . S
H19 C14 0.930 . S
O20 Cu0 1.959 . S
O20 C7 1.251 . S
H21 C4 0.930 . S
H22 C15 0.929 . S
Cu23 N24 1.999 . S
Cu23 O29 1.974 1_455 S
Cu23 N34 1.985 . S
Cu23 O43 1.959 . S
N24 Cu23 1.999 . S
N24 C26 1.263 . S
N24 C28 1.389 . S
N25 C26 1.358 . S
N25 C27 1.400 . S
C26 N24 1.263 . S
C26 N25 1.358 . S
C26 H32 0.930 1_455 S
C27 N25 1.400 . S
C27 C28 1.351 . S
C27 H44 0.930 . S
C28 N24 1.389 . S
C28 C27 1.351 . S
C28 H33 0.930 . S
O29 Cu23 1.974 1_655 S
O29 C39 1.282 . S
C30 O31 1.261 . S
C30 O43 1.251 . S
O31 C30 1.261 . S
H32 C26 0.930 1_655 S
H33 C28 0.930 . S
N34 Cu23 1.985 . S
N34 C36 1.335 . S
N34 C37 1.390 1_455 S
N35 C36 1.345 . S
N35 C38 1.336 1_455 S
C36 N34 1.335 . S
C36 N35 1.345 . S
C36 H41 0.930 . S
C37 N34 1.390 1_655 S
C37 C38 1.346 . S
C37 H42 0.930 . S
C38 N35 1.336 1_655 S
C38 C37 1.346 . S
C38 H45 0.929 . S
C39 O29 1.282 . S
C39 O40 1.216 . S
O40 C39 1.216 . S
H41 C36 0.930 . S
H42 C37 0.930 . S
O43 Cu23 1.959 . S
O43 C30 1.251 . S
H44 C27 0.930 . S
H45 C38 0.929 . S
Cu46 N47 1.999 . S
Cu46 O52 1.974 . S
Cu46 N57 1.985 . S
Cu46 O66 1.959 . S
N47 Cu46 1.999 . S
N47 C49 1.263 1_545 S
N47 C51 1.389 1_545 S
N48 C49 1.358 . S
N48 C50 1.400 . S
C49 N47 1.263 1_565 S
C49 N48 1.358 . S
C49 H55 0.930 1_455 S
C50 N48 1.400 . S
C50 C51 1.351 . S
C50 H67 0.930 . S
C51 N47 1.389 1_565 S
C51 C50 1.351 . S
C51 H56 0.930 . S
O52 Cu46 1.974 . S
O52 C62 1.282 1_455 S
C53 O54 1.261 . S
C53 O66 1.251 1_655 S
O54 C53 1.261 . S
H55 C49 0.930 1_655 S
H56 C51 0.930 . S
N57 Cu46 1.985 . S
N57 C59 1.335 . S
N57 C60 1.390 1_455 S
N58 C59 1.345 . S
N58 C61 1.336 1_455 S
C59 N57 1.335 . S
C59 N58 1.345 . S
C59 H64 0.930 . S
C60 N57 1.390 1_655 S
C60 C61 1.346 . S
C60 H65 0.930 . S
C61 N58 1.336 1_655 S
C61 C60 1.346 . S
C61 H68 0.929 . S
C62 O52 1.282 1_655 S
C62 O63 1.216 . S
O63 C62 1.216 . S
H64 C59 0.930 . S
H65 C60 0.930 . S
O66 Cu46 1.959 . S
O66 C53 1.251 1_455 S
H67 C50 0.930 . S
H68 C61 0.929 . S
Cu69 N70 1.999 . S
Cu69 O75 1.974 . S
Cu69 N80 1.985 . S
Cu69 O89 1.959 1_455 S
N70 Cu69 1.999 . S
N70 C72 1.263 . S
N70 C74 1.389 . S
N71 C72 1.358 . S
N71 C73 1.400 . S
C72 N70 1.263 . S
C72 N71 1.358 . S
C72 H78 0.930 . S
C73 N71 1.400 . S
C73 C74 1.351 . S
C73 H90 0.930 . S
C74 N70 1.389 . S
C74 C73 1.351 . S
C74 H79 0.930 1_455 S
O75 Cu69 1.974 . S
O75 C85 1.282 . S
C76 O77 1.261 1_545 S
C76 O89 1.251 . S
O77 C76 1.261 1_565 S
H78 C72 0.930 . S
H79 C74 0.930 1_655 S
N80 Cu69 1.985 . S
N80 C82 1.335 . S
N80 C83 1.390 . S
N81 C82 1.345 . S
N81 C84 1.336 . S
C82 N80 1.335 . S
C82 N81 1.345 . S
C82 H87 0.930 . S
C83 N80 1.390 . S
C83 C84 1.346 . S
C83 H88 0.930 . S
C84 N81 1.336 . S
C84 C83 1.346 . S
C84 H91 0.929 . S
C85 O75 1.282 . S
C85 O86 1.216 1_545 S
O86 C85 1.216 1_565 S
H87 C82 0.930 . S
H88 C83 0.930 . S
O89 Cu69 1.959 1_655 S
O89 C76 1.251 . S
H90 C73 0.930 . S
H91 C84 0.929 . S
H92 C98 0.930 . S
H93 C102 0.930 . S
H94 C107 0.929 . S
H95 C105 0.929 . S
H96 C100 0.929 . S
H97 C106 0.929 . S
C98 H92 0.930 . S
C98 C99 1.367 . S
C98 C106 1.378 . S
C99 C98 1.367 . S
C99 C107 1.433 . S
C100 H96 0.929 . S
C100 C102 1.378 . S
C100 C104 1.350 . S
C101 C104 1.463 . S
C101 C106 1.350 . S
C101 N109 1.427 . S
C102 H93 0.930 . S
C102 C100 1.378 . S
C102 C103 1.367 . S
C103 C102 1.367 . S
C103 C105 1.433 . S
C104 C100 1.350 . S
C104 C101 1.463 . S
C104 N108 1.427 . S
C105 H95 0.929 . S
C105 C103 1.433 . S
C105 N108 1.384 . S
C106 H97 0.929 . S
C106 C98 1.378 . S
C106 C101 1.350 . S
C107 H94 0.929 . S
C107 C99 1.433 . S
C107 N109 1.384 . S
N108 C104 1.427 . S
N108 C105 1.384 . S
N109 C101 1.427 . S
N109 C107 1.384 . S
H110 C116 0.930 . S
H111 C120 0.930 . S
H112 C125 0.929 . S
H113 C123 0.929 . S
H114 C118 0.929 . S
H115 C124 0.929 . S
C116 H110 0.930 . S
C116 C117 1.367 . S
C116 C124 1.378 . S
C117 C116 1.367 . S
C117 C125 1.433 . S
C118 H114 0.929 . S
C118 C120 1.378 . S
C118 C122 1.350 . S
C119 C122 1.463 . S
C119 C124 1.350 . S
C119 N127 1.427 . S
C120 H111 0.930 . S
C120 C118 1.378 . S
C120 C121 1.367 . S
C121 C120 1.367 . S
C121 C123 1.433 . S
C122 C118 1.350 . S
C122 C119 1.463 . S
C122 N126 1.427 . S
C123 H113 0.929 . S
C123 C121 1.433 . S
C123 N126 1.384 . S
C124 H115 0.929 . S
C124 C116 1.378 . S
C124 C119 1.350 . S
C125 H112 0.929 . S
C125 C117 1.433 . S
C125 N127 1.384 . S
N126 C122 1.427 . S
N126 C123 1.384 . S
N127 C119 1.427 . S
N127 C125 1.384 . S
H128 C134 0.930 . S
H129 C138 0.930 . S
H130 C143 0.929 . S
H131 C141 0.929 . S
H132 C136 0.929 . S
H133 C142 0.929 . S
C134 H128 0.930 . S
C134 C135 1.367 1_655 S
C134 C142 1.378 . S
C135 C134 1.367 1_455 S
C135 C143 1.433 . S
C136 H132 0.929 . S
C136 C138 1.378 . S
C136 C140 1.350 . S
C137 C140 1.463 . S
C137 C142 1.350 1_455 S
C137 N145 1.427 . S
C138 H129 0.930 . S
C138 C136 1.378 . S
C138 C139 1.367 . S
C139 C138 1.367 . S
C139 C141 1.433 1_455 S
C140 C136 1.350 . S
C140 C137 1.463 . S
C140 N144 1.427 1_455 S
C141 H131 0.929 . S
C141 C139 1.433 1_655 S
C141 N144 1.384 . S
C142 H133 0.929 . S
C142 C134 1.378 . S
C142 C137 1.350 1_655 S
C143 H130 0.929 . S
C143 C135 1.433 . S
C143 N145 1.384 . S
N144 C140 1.427 1_655 S
N144 C141 1.384 . S
N145 C137 1.427 . S
N145 C143 1.384 . S
H146 C152 0.930 . S
H147 C156 0.930 . S
H148 C161 0.929 . S
H149 C159 0.929 . S
H150 C154 0.929 . S
H151 C160 0.929 . S
C152 H146 0.930 . S
C152 C153 1.367 . S
C152 C160 1.378 . S
C153 C152 1.367 . S
C153 C161 1.433 1_545 S
C154 H150 0.929 . S
C154 C156 1.378 . S
C154 C158 1.350 1_565 S
C155 C158 1.463 . S
C155 C160 1.350 . S
C155 N163 1.427 1_545 S
C156 H147 0.930 . S
C156 C154 1.378 . S
C156 C157 1.367 1_565 S
C157 C156 1.367 1_545 S
C157 C159 1.433 . S
C158 C154 1.350 1_545 S
C158 C155 1.463 . S
C158 N162 1.427 . S
C159 H149 0.929 . S
C159 C157 1.433 . S
C159 N162 1.384 . S
C160 H151 0.929 . S
C160 C152 1.378 . S
C160 C155 1.350 . S
C161 H148 0.929 . S
C161 C153 1.433 1_565 S
C161 N163 1.384 . S
N162 C158 1.427 . S
N162 C159 1.384 . S
N163 C155 1.427 1_565 S
N163 C161 1.384 . S
H164 C170 0.930 . S
H165 C174 0.930 . S
H166 C179 0.929 . S
H167 C177 0.929 1_565 S
H168 C172 0.929 . S
H169 C178 0.929 . S
C170 H164 0.930 . S
C170 C171 1.367 . S
C170 C178 1.378 . S
C171 C170 1.367 . S
C171 C179 1.433 1_455 S
C172 H168 0.929 . S
C172 C174 1.378 . S
C172 C176 1.350 . S
C173 C176 1.463 1_556 S
C173 C178 1.350 . S
C173 N181 1.427 . S
C174 H165 0.930 . S
C174 C172 1.378 . S
C174 C175 1.367 . S
C175 C174 1.367 . S
C175 C177 1.433 . S
C176 C172 1.350 . S
C176 C173 1.463 1_554 S
C176 N180 1.427 . S
C177 H167 0.929 1_545 S
C177 C175 1.433 . S
C177 N180 1.384 . S
C178 H169 0.929 . S
C178 C170 1.378 . S
C178 C173 1.350 . S
C179 H166 0.929 . S
C179 C171 1.433 1_655 S
C179 N181 1.384 1_655 S
N180 C176 1.427 . S
N180 C177 1.384 . S
N181 C173 1.427 . S
N181 C179 1.384 1_455 S
H182 C188 0.930 . S
H183 C192 0.930 . S
H184 C197 0.925 1_565 S
H185 C195 0.929 1_655 S
H186 C190 0.929 . S
H187 C196 0.929 . S
C188 H182 0.930 . S
C188 C189 1.367 . S
C188 C196 1.378 . S
C189 C188 1.367 . S
C189 C197 1.433 . S
C190 H186 0.929 . S
C190 C192 1.378 . S
C190 C194 1.350 . S
C191 C194 1.463 . S
C191 C196 1.350 . S
C191 N199 1.427 . S
C192 H183 0.930 . S
C192 C190 1.378 . S
C192 C193 1.367 . S
C193 C192 1.367 . S
C193 C195 1.433 . S
C194 C190 1.350 . S
C194 C191 1.463 . S
C194 N198 1.427 . S
C195 H185 0.929 1_455 S
C195 C193 1.433 . S
C195 N198 1.384 . S
C196 H187 0.929 . S
C196 C188 1.378 . S
C196 C191 1.350 . S
C197 H184 0.925 1_545 S
C197 C189 1.433 . S
C197 N199 1.384 . S
N198 C194 1.427 . S
N198 C195 1.384 . S
N199 C191 1.427 . S
N199 C197 1.384 . S
H200 C206 0.930 1_565 S
H201 C210 0.930 . S
H202 C215 0.929 . S
H203 C213 0.929 1_565 S
H204 C208 0.929 . S
H205 C214 0.929 1_565 S
C206 H200 0.930 1_545 S
C206 C207 1.367 . S
C206 C214 1.378 . S
C207 C206 1.367 . S
C207 C215 1.433 . S
C208 H204 0.929 . S
C208 C210 1.378 . S
C208 C212 1.350 . S
C209 C212 1.463 . S
C209 C214 1.350 . S
C209 N217 1.427 . S
C210 H201 0.930 . S
C210 C208 1.378 . S
C210 C211 1.367 . S
C211 C210 1.367 . S
C211 C213 1.433 . S
C212 C208 1.350 . S
C212 C209 1.463 . S
C212 N216 1.427 . S
C213 H203 0.929 1_545 S
C213 C211 1.433 . S
C213 N216 1.384 . S
C214 H205 0.929 1_545 S
C214 C206 1.378 . S
C214 C209 1.350 . S
C215 H202 0.929 . S
C215 C207 1.433 . S
C215 N217 1.384 . S
N216 C212 1.427 . S
N216 C213 1.384 . S
N217 C209 1.427 . S
N217 C215 1.384 . S
H218 C224 0.930 . S
H219 C228 0.930 . S
H220 C233 0.929 . S
H221 C231 0.929 . S
H222 C226 0.929 . S
H223 C232 0.929 . S
C224 H218 0.930 . S
C224 C225 1.367 . S
C224 C232 1.378 . S
C225 C224 1.367 . S
C225 C233 1.433 1_455 S
C226 H222 0.929 . S
C226 C228 1.378 . S
C226 C230 1.350 . S
C227 C230 1.463 1_455 S
C227 C232 1.350 . S
C227 N235 1.427 1_455 S
C228 H219 0.930 . S
C228 C226 1.378 . S
C228 C229 1.367 . S
C229 C228 1.367 . S
C229 C231 1.433 1_655 S
C230 C226 1.350 . S
C230 C227 1.463 1_655 S
C230 N234 1.427 1_655 S
C231 H221 0.929 . S
C231 C229 1.433 1_455 S
C231 N234 1.384 . S
C232 H223 0.929 . S
C232 C224 1.378 . S
C232 C227 1.350 . S
C233 H220 0.929 . S
C233 C225 1.433 1_655 S
C233 N235 1.384 . S
N234 C230 1.427 1_455 S
N234 C231 1.384 . S
N235 C227 1.427 1_655 S
N235 C233 1.384 . S
C99 N12 1.458 . S
C103 N2 1.458 . S
C117 C30 1.489 . S
C121 C39 1.484 . S
C135 N58 1.465 . S
C139 N48 1.461 . S
C153 C85 1.484 . S
C157 C76 1.489 . S
C171 C62 1.558 1_455 S
C175 C7 1.550 . S
C189 N81 1.512 . S
C193 N35 1.493 . S
C207 N71 1.454 . S
C211 C16 1.484 . S
C225 N25 1.576 . S
C229 C53 1.589 . S
