# Generated by pormake.
# Topology uni, (4)-cn, num edge types: 1
# Building blocks:
#     Node 0, Type 0, BuildingBlock: NAHDIM_clean_sbu_0, # of connection points: 4
#     Node 1, Type 0, BuildingBlock: NAHDIM_clean_sbu_0, # of connection points: 4
#     Node 2, Type 0, BuildingBlock: NAHDIM_clean_sbu_0, # of connection points: 4
#     Node 3, Type 0, BuildingBlock: NAHDIM_clean_sbu_0, # of connection points: 4
#     Node 4, Type 0, BuildingBlock: NAHDIM_clean_sbu_0, # of connection points: 4
#     Node 5, Type 0, BuildingBlock: NAHDIM_clean_sbu_0, # of connection points: 4
#     Edge 6, Type (0, 0), BuildingBlock: OJICUG_clean_linker_0, # of connection points: 2
#     Edge 7, Type (0, 0), BuildingBlock: OJICUG_clean_linker_0, # of connection points: 2
#     Edge 8, Type (0, 0), BuildingBlock: OJICUG_clean_linker_0, # of connection points: 2
#     Edge 9, Type (0, 0), BuildingBlock: OJICUG_clean_linker_0, # of connection points: 2
#     Edge 10, Type (0, 0), BuildingBlock: OJICUG_clean_linker_0, # of connection points: 2
#     Edge 11, Type (0, 0), BuildingBlock: OJICUG_clean_linker_0, # of connection points: 2
#     Edge 12, Type (0, 0), BuildingBlock: OJICUG_clean_linker_0, # of connection points: 2
#     Edge 13, Type (0, 0), BuildingBlock: OJICUG_clean_linker_0, # of connection points: 2
#     Edge 14, Type (0, 0), BuildingBlock: OJICUG_clean_linker_0, # of connection points: 2
#     Edge 15, Type (0, 0), BuildingBlock: OJICUG_clean_linker_0, # of connection points: 2
#     Edge 16, Type (0, 0), BuildingBlock: OJICUG_clean_linker_0, # of connection points: 2
#     Edge 17, Type (0, 0), BuildingBlock: OJICUG_clean_linker_0, # of connection points: 2
# Relax obj value: 0.044
# Max RMSD: 0.077
# Mean RMSD: 0.077
data_MOF--net-uni--node1-NAHDIM_clean_sbu_0--edge1-OJICUG_clean_linker_0
_symmetry_space_group_name_H-M    P1
_symmetry_Int_Tables_number       1
_symmetry_cell_setting            triclinic
loop_
_symmetry_equiv_pos_as_xyz
'x, y, z'
_cell_length_a     28.514344
_cell_length_b     28.605423
_cell_length_c     17.073601
_cell_angle_alpha  90.029208
_cell_angle_beta   90.045177
_cell_angle_gamma 119.56095
loop_
_atom_site_label
_atom_site_type_symbol
_atom_site_fract_x
_atom_site_fract_y
_atom_site_fract_z
_atom_type_partial_charge
C0 C 0.66925 0.93307 0.12035 0.0
O1 O 0.69427 0.97827 0.16 0.0
O2 O 0.71028 0.05723 0.00855 0.0
Zn3 Zn 0.63594 -0.00312 0.03692 0.0
O4 O 0.60795 0.01406 0.13491 0.0
C5 C 0.59188 0.02061 0.90091 0.0
O6 O 0.63539 0.06752 0.9101 0.0
O7 O 0.64109 0.93074 0.06111 0.0
C8 C 0.57917 0.03668 0.13681 0.0
O9 O 0.56764 0.05277 0.07116 0.0
C10 C 0.72495 0.10598 0.0242 0.0
O11 O 0.69172 0.11736 0.062 0.0
O12 O 0.58329 0.98268 0.94784 0.0
C13 C 0.75204 0.66459 0.24051 0.0
O14 O 0.75385 0.68762 0.17319 0.0
O15 O 0.64328 0.69862 0.19831 0.0
Zn16 Zn 0.6363 0.629 0.23658 0.0
O17 O 0.58422 0.60071 0.32651 0.0
C18 C 0.62365 0.58793 0.07868 0.0
O19 O 0.66474 0.6359 0.06497 0.0
O20 O 0.70722 0.63835 0.27575 0.0
C21 C 0.53378 0.57088 0.31626 0.0
O22 O 0.51451 0.55997 0.24459 0.0
C23 C 0.67101 0.74325 0.2332 0.0
O24 O 0.69708 0.74493 0.29757 0.0
O25 O 0.60611 0.57539 0.14826 0.0
C26 C 0.10602 0.76401 0.4414 0.0
O27 O 0.06447 0.73824 0.48818 0.0
O28 O 0.97795 0.67265 0.32424 0.0
Zn29 Zn 0.04522 0.66924 0.35075 0.0
O30 O 0.03754 0.62186 0.44316 0.0
C31 C 0.03193 0.58952 0.24225 0.0
O32 O 0.99204 0.5618 0.29087 0.0
O33 O 0.10653 0.74287 0.3761 0.0
C34 C 0.99574 0.58236 0.47221 0.0
O35 O 0.94814 0.56784 0.4419 0.0
C36 C 0.94279 0.67181 0.37077 0.0
O37 O 0.94853 0.66874 0.44661 0.0
O38 O 0.06303 0.63924 0.25551 0.0
C39 C 0.38107 0.11125 0.63424 0.0
O40 O 0.38033 0.07646 0.68513 0.0
O41 O 0.33663 0.97729 0.51152 0.0
Zn42 Zn 0.40508 0.04658 0.53323 0.0
O43 O 0.44886 0.03982 0.62064 0.0
C44 C 0.4733 0.0363 0.42508 0.0
O45 O 0.46769 0.00102 0.47875 0.0
O46 O 0.38993 0.10637 0.56245 0.0
C47 C 0.43814 -0.00095 0.66255 0.0
O48 O 0.3929 0.95388 0.65122 0.0
C49 C 0.29153 0.96102 0.54527 0.0
O50 O 0.28745 0.9897 0.60218 0.0
O51 O 0.44977 0.06381 0.43484 0.0
C52 C 0.27696 0.37271 0.74522 0.0
O53 O 0.27087 0.33959 0.68778 0.0
O54 O 0.38122 0.33551 0.69908 0.0
Zn55 Zn 0.39258 0.40708 0.73614 0.0
O56 O 0.44457 0.43409 0.82682 0.0
C57 C 0.40429 0.44981 0.57937 0.0
O58 O 0.35831 0.40554 0.56735 0.0
O59 O 0.32379 0.40347 0.77252 0.0
C60 C 0.49502 0.4638 0.8166 0.0
O61 O 0.51411 0.47481 0.74491 0.0
C62 C 0.37206 0.29749 0.7459 0.0
O63 O 0.36793 0.30422 0.82121 0.0
O64 O 0.42511 0.45941 0.64736 0.0
C65 C 0.92295 0.2775 0.89655 0.0
O66 O 0.96649 0.27289 0.89233 0.0
O67 O 0.05403 0.37407 0.82487 0.0
Zn68 Zn 0.99437 0.38978 0.85377 0.0
O69 O 0.01138 0.43503 0.95123 0.0
C70 C 0.02158 0.46167 0.72405 0.0
O71 O 0.06995 0.4698 0.74138 0.0
O72 O 0.92572 0.322 0.87925 0.0
C73 C 0.04106 0.48568 0.9572 0.0
O74 O 0.06679 0.51399 0.89537 0.0
C75 C 0.09762 0.3926 0.8638 0.0
O76 O 0.10368 0.42143 0.92679 0.0
O77 O 0.98156 0.42805 0.76416 0.0
C78 C 0.56168 0.01645 0.27955 0.0
C79 C 0.55563 0.04093 0.2119 0.0
H80 H 0.54055 -0.00404 0.39957 0.0
C81 C 0.52488 0.06705 0.21618 0.0
H82 H 0.58522 -0.00387 0.27848 0.0
C83 C 0.49942 0.06725 0.28619 0.0
C84 C 0.50388 0.04091 0.35287 0.0
H85 H 0.51965 0.08649 0.16514 0.0
H86 H 0.47501 0.08664 0.28738 0.0
C87 C 0.53593 0.01625 0.34906 0.0
C88 C 0.44488 0.50288 0.37289 0.0
C89 C 0.49834 0.54409 0.3841 0.0
H90 H 0.37305 0.44076 0.4259 0.0
C91 C 0.51882 0.55701 0.46073 0.0
H92 H 0.42783 0.49206 0.3146 0.0
C93 C 0.4874 0.52778 0.52446 0.0
C94 C 0.43486 0.4848 0.51295 0.0
H95 H 0.55971 0.5888 0.47147 0.0
H96 H 0.50504 0.53782 0.58249 0.0
C97 C 0.41349 0.47343 0.43669 0.0
C98 C 0.0596 0.53409 0.62296 0.0
C99 C 0.01435 0.49234 0.65996 0.0
H100 H 0.08922 0.59532 0.53548 0.0
C101 C 0.96258 0.48063 0.63533 0.0
H102 H 0.10004 0.54432 0.64064 0.0
C103 C 0.95631 0.50989 0.57448 0.0
C104 C 0.00168 0.55164 0.53752 0.0
H105 H 0.9269 0.44868 0.66273 0.0
H106 H 0.91596 0.49978 0.55647 0.0
C107 C 0.05335 0.56349 0.56269 0.0
C108 C 0.56315 0.05674 0.7892 0.0
C109 C 0.55259 0.01356 0.83896 0.0
H110 H 0.5356 0.08602 0.69517 0.0
C111 C 0.50405 0.96485 0.82979 0.0
H112 H 0.60011 0.09484 0.7945 0.0
C113 C 0.46668 0.95973 0.77229 0.0
C114 C 0.47723 0.00325 0.7231 0.0
H115 H 0.49473 0.93085 0.86732 0.0
H116 H 0.4295 0.92186 0.76673 0.0
C117 C 0.52599 0.05167 0.73212 0.0
C118 C 0.61423 0.56426 0.93615 0.0
C119 C 0.59372 0.55186 0.01273 0.0
H120 H 0.59942 0.54568 0.81411 0.0
C121 C 0.54241 0.50704 0.02479 0.0
H122 H 0.65376 0.59832 0.92497 0.0
C123 C 0.51109 0.47709 0.9612 0.0
C124 C 0.53061 0.49104 0.88429 0.0
H125 H 0.52545 0.49629 0.08309 0.0
H126 H 0.47096 0.44396 0.97222 0.0
C127 C 0.58309 0.53399 0.8726 0.0
C128 C 0.00963 0.48213 0.09464 0.0
C129 C 0.04265 0.51245 0.03212 0.0
H130 H 0.98052 0.48267 0.20958 0.0
C131 C 0.07479 0.56842 0.04096 0.0
H132 H 0.98448 0.43892 0.09004 0.0
C133 C 0.07268 0.59363 0.11017 0.0
C134 C 0.03811 0.56332 0.17143 0.0
H135 H 0.10079 0.59289 0.99396 0.0
H136 H 0.09702 0.63692 0.11482 0.0
C137 C 0.00726 0.50726 0.16328 0.0
C138 C 0.64366 0.79011 0.13434 0.0
C139 C 0.67239 0.79234 0.20259 0.0
H140 H 0.62025 0.83269 0.05467 0.0
C141 C 0.70149 0.84165 0.24196 0.0
H142 H 0.62093 0.75278 0.10242 0.0
C143 C 0.70113 0.8875 0.21447 0.0
C144 C 0.67165 0.88505 0.14701 0.0
H145 H 0.72414 0.8448 0.29456 0.0
H146 H 0.72349 0.92472 0.24675 0.0
C147 C 0.6433 0.83595 0.10688 0.0
C148 C 0.84865 0.65623 0.38512 0.0
C149 C 0.8947 0.67208 0.3387 0.0
H150 H 0.76725 0.64094 0.39029 0.0
C151 C 0.8939 0.68677 0.26031 0.0
H152 H 0.84796 0.64455 0.44564 0.0
C153 C 0.84791 0.68526 0.22883 0.0
C154 C 0.80145 0.66825 0.2747 0.0
H155 H 0.92884 0.69938 0.22307 0.0
H156 H 0.8485 0.6965 0.16811 0.0
C157 C 0.80236 0.65396 0.35329 0.0
C158 C 0.20131 0.83783 0.42416 0.0
C159 C 0.1529 0.81528 0.46671 0.0
H160 H 0.28309 0.90113 0.41596 0.0
C161 C 0.15027 0.84126 0.53515 0.0
H162 H 0.20474 0.81873 0.37135 0.0
C163 C 0.19519 0.88871 0.56063 0.0
C164 C 0.24379 0.91089 0.51857 0.0
H165 H 0.11352 0.8249 0.56924 0.0
H166 H 0.1919 0.90774 0.61361 0.0
C167 C 0.24632 0.88497 0.44999 0.0
C168 C 0.36388 0.20723 0.7684 0.0
C169 C 0.37029 0.24796 0.71633 0.0
H170 H 0.36202 0.13214 0.78329 0.0
C171 C 0.37741 0.24198 0.63613 0.0
H172 H 0.35815 0.21047 0.83046 0.0
C173 C 0.37965 0.19698 0.60898 0.0
C174 C 0.37484 0.15704 0.66146 0.0
H175 H 0.3823 0.27255 0.59436 0.0
H176 H 0.38622 0.19408 0.54711 0.0
C177 C 0.36614 0.16229 0.74127 0.0
C178 C 0.19289 0.41132 0.87297 0.0
C179 C 0.14245 0.38495 0.83557 0.0
H180 H 0.27473 0.42822 0.8738 0.0
C181 C 0.13602 0.35291 0.76949 0.0
H182 H 0.19926 0.43628 0.924 0.0
C183 C 0.1794 0.34811 0.74074 0.0
C184 C 0.23016 0.37552 0.77719 0.0
H185 H 0.09762 0.33197 0.7394 0.0
H186 H 0.17336 0.32364 0.68923 0.0
C187 C 0.23625 0.40679 0.844 0.0
C188 C 0.86429 0.18069 0.93352 0.0
C189 C 0.87211 0.23306 0.92783 0.0
H190 H 0.81134 0.09915 0.96818 0.0
C191 C 0.83148 0.24327 0.95493 0.0
H192 H 0.89493 0.17164 0.91324 0.0
C193 C 0.78424 0.20214 0.98754 0.0
C194 C 0.77613 0.14967 0.99267 0.0
H195 H 0.83641 0.28327 0.95194 0.0
H196 H 0.75375 0.21141 0.00777 0.0
C197 C 0.81651 0.13925 0.96504 0.0
loop_
_geom_bond_atom_site_label_1
_geom_bond_atom_site_label_2
_geom_bond_distance
_geom_bond_site_symmetry_2
_ccdc_geom_bond_type
C0 O1 1.160 . S
C0 O7 1.185 . S
O1 C0 1.160 . S
O2 Zn3 1.899 . S
O2 C10 1.284 . S
Zn3 O2 1.899 . S
Zn3 O4 2.032 . S
Zn3 O7 2.086 1_545 S
Zn3 O12 1.977 1_544 S
O4 Zn3 2.032 . S
O4 C8 1.278 . S
C5 O6 1.203 . S
C5 O12 1.267 1_545 S
O6 C5 1.203 . S
O7 C0 1.185 . S
O7 Zn3 2.086 1_565 S
C8 O4 1.278 . S
C8 O9 1.211 . S
O9 C8 1.211 . S
C10 O2 1.284 . S
C10 O11 1.273 . S
O11 C10 1.273 . S
O12 Zn3 1.977 1_566 S
O12 C5 1.267 1_565 S
C13 O14 1.160 . S
C13 O20 1.185 . S
O14 C13 1.160 . S
O15 Zn16 1.899 . S
O15 C23 1.284 . S
Zn16 O15 1.899 . S
Zn16 O17 2.032 . S
Zn16 O20 2.086 . S
Zn16 O25 1.977 . S
O17 Zn16 2.032 . S
O17 C21 1.278 . S
C18 O19 1.203 . S
C18 O25 1.267 . S
O19 C18 1.203 . S
O20 C13 1.185 . S
O20 Zn16 2.086 . S
C21 O17 1.278 . S
C21 O22 1.211 . S
O22 C21 1.211 . S
C23 O15 1.284 . S
C23 O24 1.273 . S
O24 C23 1.273 . S
O25 Zn16 1.977 . S
O25 C18 1.267 . S
C26 O27 1.160 . S
C26 O33 1.185 . S
O27 C26 1.160 . S
O28 Zn29 1.899 1_655 S
O28 C36 1.284 . S
Zn29 O28 1.899 1_455 S
Zn29 O30 2.032 . S
Zn29 O33 2.086 . S
Zn29 O38 1.977 . S
O30 Zn29 2.032 . S
O30 C34 1.278 . S
C31 O32 1.203 1_455 S
C31 O38 1.267 . S
O32 C31 1.203 1_655 S
O33 C26 1.185 . S
O33 Zn29 2.086 . S
C34 O30 1.278 . S
C34 O35 1.211 1_455 S
O35 C34 1.211 1_655 S
C36 O28 1.284 . S
C36 O37 1.273 . S
O37 C36 1.273 . S
O38 Zn29 1.977 . S
O38 C31 1.267 . S
C39 O40 1.160 . S
C39 O46 1.185 . S
O40 C39 1.160 . S
O41 Zn42 1.899 1_565 S
O41 C49 1.284 . S
Zn42 O41 1.899 1_545 S
Zn42 O43 2.032 . S
Zn42 O46 2.086 . S
Zn42 O51 1.977 . S
O43 Zn42 2.032 . S
O43 C47 1.278 . S
C44 O45 1.203 1_545 S
C44 O51 1.267 . S
O45 C44 1.203 1_565 S
O46 C39 1.185 . S
O46 Zn42 2.086 . S
C47 O43 1.278 . S
C47 O48 1.219 . S
O48 C47 1.219 . S
C49 O41 1.284 . S
C49 O50 1.273 . S
O50 C49 1.273 . S
O51 Zn42 1.977 . S
O51 C44 1.267 . S
C52 O53 1.160 . S
C52 O59 1.185 . S
O53 C52 1.160 . S
O54 Zn55 1.899 . S
O54 C62 1.284 . S
Zn55 O54 1.899 . S
Zn55 O56 2.032 . S
Zn55 O59 2.086 . S
Zn55 O64 1.977 . S
O56 Zn55 2.032 . S
O56 C60 1.278 . S
C57 O58 1.203 . S
C57 O64 1.267 . S
O58 C57 1.203 . S
O59 C52 1.185 . S
O59 Zn55 2.086 . S
C60 O56 1.278 . S
C60 O61 1.211 . S
O61 C60 1.211 . S
C62 O54 1.284 . S
C62 O63 1.273 . S
O63 C62 1.273 . S
O64 Zn55 1.977 . S
O64 C57 1.267 . S
C65 O66 1.160 . S
C65 O72 1.185 . S
O66 C65 1.160 . S
O67 Zn68 1.899 . S
O67 C75 1.284 . S
Zn68 O67 1.899 . S
Zn68 O69 2.032 . S
Zn68 O72 2.086 1_455 S
Zn68 O77 1.977 1_455 S
O69 Zn68 2.032 . S
O69 C73 1.278 . S
C70 O71 1.203 . S
C70 O77 1.267 1_455 S
O71 C70 1.203 . S
O72 C65 1.185 . S
O72 Zn68 2.086 1_655 S
C73 O69 1.278 . S
C73 O74 1.211 . S
O74 C73 1.211 . S
C75 O67 1.284 . S
C75 O76 1.273 . S
O76 C75 1.273 . S
O77 Zn68 1.977 1_655 S
O77 C70 1.267 1_655 S
C78 C79 1.387 1_565 S
C78 H82 0.950 . S
C78 C87 1.390 . S
C79 C78 1.387 1_545 S
C79 C81 1.387 . S
H80 C87 0.950 . S
C81 C79 1.387 . S
C81 C83 1.390 . S
C81 H85 0.950 . S
H82 C78 0.950 . S
C83 C81 1.390 . S
C83 C84 1.387 . S
C83 H86 0.950 . S
C84 C83 1.387 . S
C84 C87 1.387 1_545 S
H85 C81 0.950 . S
H86 C83 0.950 . S
C87 C78 1.390 . S
C87 H80 0.950 . S
C87 C84 1.387 1_565 S
C88 C89 1.387 . S
C88 H92 0.950 . S
C88 C97 1.390 . S
C89 C88 1.387 . S
C89 C91 1.387 . S
H90 C97 0.950 . S
C91 C89 1.387 . S
C91 C93 1.390 . S
C91 H95 0.950 . S
H92 C88 0.950 . S
C93 C91 1.390 . S
C93 C94 1.387 . S
C93 H96 0.950 . S
C94 C93 1.387 . S
C94 C97 1.387 . S
H95 C91 0.950 . S
H96 C93 0.950 . S
C97 C88 1.390 . S
C97 H90 0.950 . S
C97 C94 1.387 . S
C98 C99 1.387 . S
C98 H102 0.950 . S
C98 C107 1.390 . S
C99 C98 1.387 . S
C99 C101 1.387 . S
H100 C107 0.950 . S
C101 C99 1.387 . S
C101 C103 1.390 . S
C101 H105 0.957 1_455 S
H102 C98 0.950 . S
C103 C101 1.390 . S
C103 C104 1.387 . S
C103 H106 0.950 . S
C104 C103 1.387 . S
C104 C107 1.387 . S
H105 C101 0.957 1_655 S
H106 C103 0.950 . S
C107 C98 1.390 . S
C107 H100 0.950 . S
C107 C104 1.387 . S
C108 C109 1.387 . S
C108 H112 0.950 . S
C108 C117 1.390 . S
C109 C108 1.387 . S
C109 C111 1.387 1_545 S
H110 C117 0.950 . S
C111 C109 1.387 1_565 S
C111 C113 1.390 . S
C111 H115 0.950 . S
H112 C108 0.950 . S
C113 C111 1.390 . S
C113 C114 1.387 1_565 S
C113 H116 0.950 . S
C114 C113 1.387 1_545 S
C114 C117 1.387 . S
H115 C111 0.950 . S
H116 C113 0.950 . S
C117 C108 1.390 . S
C117 H110 0.950 . S
C117 C114 1.387 . S
C118 C119 1.387 1_556 S
C118 H122 0.950 . S
C118 C127 1.390 . S
C119 C118 1.387 1_554 S
C119 C121 1.387 . S
H120 C127 0.950 . S
C121 C119 1.387 . S
C121 C123 1.390 1_554 S
C121 H125 0.950 . S
H122 C118 0.950 . S
C123 C121 1.390 1_556 S
C123 C124 1.387 . S
C123 H126 0.950 . S
C124 C123 1.387 . S
C124 C127 1.387 . S
H125 C121 0.950 . S
H126 C123 0.950 . S
C127 C118 1.390 . S
C127 H120 0.950 . S
C127 C124 1.387 . S
C128 C129 1.387 1_655 S
C128 H132 0.950 . S
C128 C137 1.390 . S
C129 C128 1.387 1_455 S
C129 C131 1.387 . S
H130 C137 0.950 . S
C131 C129 1.387 . S
C131 C133 1.390 . S
C131 H135 0.950 . S
H132 C128 0.950 . S
C133 C131 1.390 . S
C133 C134 1.387 . S
C133 H136 0.950 . S
C134 C133 1.387 . S
C134 C137 1.387 1_455 S
H135 C131 0.950 . S
H136 C133 0.950 . S
C137 C128 1.390 . S
C137 H130 0.950 . S
C137 C134 1.387 1_655 S
C138 C139 1.387 . S
C138 H142 0.950 . S
C138 C147 1.390 . S
C139 C138 1.387 . S
C139 C141 1.387 . S
H140 C147 0.950 . S
C141 C139 1.387 . S
C141 C143 1.390 . S
C141 H145 0.950 . S
H142 C138 0.950 . S
C143 C141 1.390 . S
C143 C144 1.387 . S
C143 H146 0.950 . S
C144 C143 1.387 . S
C144 C147 1.387 . S
H145 C141 0.950 . S
H146 C143 0.950 . S
C147 C138 1.390 . S
C147 H140 0.950 . S
C147 C144 1.387 . S
C148 C149 1.387 . S
C148 H152 0.950 . S
C148 C157 1.390 . S
C149 C148 1.387 . S
C149 C151 1.387 . S
H150 C157 0.950 . S
C151 C149 1.387 . S
C151 C153 1.390 . S
C151 H155 0.950 . S
H152 C148 0.950 . S
C153 C151 1.390 . S
C153 C154 1.387 . S
C153 H156 0.950 . S
C154 C153 1.387 . S
C154 C157 1.387 . S
H155 C151 0.950 . S
H156 C153 0.950 . S
C157 C148 1.390 . S
C157 H150 0.950 . S
C157 C154 1.387 . S
C158 C159 1.387 . S
C158 H162 0.950 . S
C158 C167 1.390 . S
C159 C158 1.387 . S
C159 C161 1.387 . S
H160 C167 0.950 . S
C161 C159 1.387 . S
C161 C163 1.390 . S
C161 H165 0.950 . S
H162 C158 0.950 . S
C163 C161 1.390 . S
C163 C164 1.387 . S
C163 H166 0.950 . S
C164 C163 1.387 . S
C164 C167 1.387 . S
H165 C161 0.950 . S
H166 C163 0.950 . S
C167 C158 1.390 . S
C167 H160 0.950 . S
C167 C164 1.387 . S
C168 C169 1.387 . S
C168 H172 0.950 . S
C168 C177 1.390 . S
C169 C168 1.387 . S
C169 C171 1.387 . S
H170 C177 0.950 . S
C171 C169 1.387 . S
C171 C173 1.390 . S
C171 H175 0.950 . S
H172 C168 0.950 . S
C173 C171 1.390 . S
C173 C174 1.387 . S
C173 H176 0.950 . S
C174 C173 1.387 . S
C174 C177 1.387 . S
H175 C171 0.950 . S
H176 C173 0.950 . S
C177 C168 1.390 . S
C177 H170 0.950 . S
C177 C174 1.387 . S
C178 C179 1.387 . S
C178 H182 0.950 . S
C178 C187 1.390 . S
C179 C178 1.387 . S
C179 C181 1.387 . S
H180 C187 0.950 . S
C181 C179 1.387 . S
C181 C183 1.390 . S
C181 H185 0.950 . S
H182 C178 0.950 . S
C183 C181 1.390 . S
C183 C184 1.387 . S
C183 H186 0.950 . S
C184 C183 1.387 . S
C184 C187 1.387 . S
H185 C181 0.950 . S
H186 C183 0.950 . S
C187 C178 1.390 . S
C187 H180 0.950 . S
C187 C184 1.387 . S
C188 C189 1.387 . S
C188 H192 0.950 . S
C188 C197 1.390 1_556 S
C189 C188 1.387 . S
C189 C191 1.387 . S
H190 C197 0.950 . S
C191 C189 1.387 . S
C191 C193 1.390 . S
C191 H195 0.950 . S
H192 C188 0.950 . S
C193 C191 1.390 . S
C193 C194 1.387 1_556 S
C193 H196 0.950 . S
C194 C193 1.387 1_554 S
C194 C197 1.387 . S
H195 C191 0.950 . S
H196 C193 0.950 . S
C197 C188 1.390 1_554 S
C197 H190 0.950 . S
C197 C194 1.387 . S
C79 C8 1.403 . S
C84 C44 1.417 . S
C89 C21 1.404 . S
C94 C57 1.416 . S
C99 C70 1.419 . S
C104 C34 1.404 . S
C109 C5 1.417 . S
C114 C47 1.403 . S
C119 C18 1.416 . S
C124 C60 1.403 . S
C129 C73 1.403 1_554 S
C134 C31 1.417 . S
C139 C23 1.452 . S
C144 C0 1.444 . S
C149 C36 1.452 . S
C154 C13 1.443 . S
C159 C26 1.444 . S
C164 C49 1.452 . S
C169 C62 1.451 . S
C174 C39 1.442 . S
C179 C75 1.452 . S
C184 C52 1.443 . S
C189 C65 1.443 . S
C194 C10 1.451 . S
