# Generated by pormake.
# Topology kag, (6)-cn, num edge types: 1
# Building blocks:
#     Node 0, Type 0, BuildingBlock: LEVNOQ01_clean_sbu_1, # of connection points: 6
#     Node 1, Type 0, BuildingBlock: LEVNOQ01_clean_sbu_1, # of connection points: 6
#     Node 2, Type 0, BuildingBlock: LEVNOQ01_clean_sbu_1, # of connection points: 6
#     Edge 3, Type (0, 0), BuildingBlock: EZIPEK_clean_linker_0, # of connection points: 2
#     Edge 4, Type (0, 0), BuildingBlock: EZIPEK_clean_linker_0, # of connection points: 2
#     Edge 5, Type (0, 0), BuildingBlock: EZIPEK_clean_linker_0, # of connection points: 2
#     Edge 6, Type (0, 0), BuildingBlock: EZIPEK_clean_linker_0, # of connection points: 2
#     Edge 7, Type (0, 0), BuildingBlock: EZIPEK_clean_linker_0, # of connection points: 2
#     Edge 8, Type (0, 0), BuildingBlock: EZIPEK_clean_linker_0, # of connection points: 2
#     Edge 9, Type (0, 0), BuildingBlock: EZIPEK_clean_linker_0, # of connection points: 2
#     Edge 10, Type (0, 0), BuildingBlock: EZIPEK_clean_linker_0, # of connection points: 2
#     Edge 11, Type (0, 0), BuildingBlock: EZIPEK_clean_linker_0, # of connection points: 2
# Relax obj value: 0.110
# Max RMSD: 0.157
# Mean RMSD: 0.150
data_MOF--net-kag--node1-LEVNOQ01_clean_sbu_1--edge1-EZIPEK_clean_linker_0
_symmetry_space_group_name_H-M    P1
_symmetry_Int_Tables_number       1
_symmetry_cell_setting            triclinic
loop_
_symmetry_equiv_pos_as_xyz
'x, y, z'
_cell_length_a     23.861077
_cell_length_b     23.468079
_cell_length_c     12.036042
_cell_angle_alpha  89.618726
_cell_angle_beta   105.36217
_cell_angle_gamma 120.10761
loop_
_atom_site_label
_atom_site_type_symbol
_atom_site_fract_x
_atom_site_fract_y
_atom_site_fract_z
_atom_type_partial_charge
O0 O 0.85306 0.31856 0.8581 0.0
Mg1 Mg 0.8872 0.41078 0.7974 0.0
O2 O 0.94724 0.357 0.00592 0.0
Mg3 Mg 0.01662 0.46973 -0.00539 0.0
O4 O -0.01716 0.45465 0.78668 0.0
O5 O 0.88801 0.41049 0.63162 0.0
O6 O 0.083 0.58347 0.98283 0.0
O7 O 0.09635 0.44479 0.97054 0.0
Mg8 Mg 0.15162 0.54045 0.19149 0.0
O9 O 0.05425 0.48629 0.2005 0.0
O10 O 0.17637 0.63177 0.13211 0.0
O11 O 0.1852 0.48464 0.12835 0.0
O12 O 0.14795 0.53467 0.35676 0.0
C13 C 0.88517 0.49564 0.96225 0.0
C14 C 0.88777 0.30979 0.94843 0.0
C15 C 0.95333 0.44106 0.67386 0.0
C16 C 0.1387 0.63558 0.03969 0.0
C17 C 0.15314 0.45142 0.02728 0.0
C18 C 0.08265 0.4996 0.31341 0.0
O19 O 0.86217 0.47632 0.85375 0.0
O20 O 0.93489 0.49112 0.02358 0.0
O21 O 0.49619 0.83151 0.90693 0.0
Mg22 Mg 0.43007 0.85812 0.80371 0.0
O23 O 0.53656 0.91548 0.04607 0.0
Mg24 Mg 0.49521 -0.01402 0.97682 0.0
O25 O 0.47593 0.95583 0.77979 0.0
O26 O 0.43116 0.86956 0.63784 0.0
O27 O 0.45577 0.05739 0.91661 0.0
O28 O 0.6089 0.06651 0.96751 0.0
Mg29 Mg 0.57449 0.08667 0.12537 0.0
O30 O 0.50413 0.00901 0.17826 0.0
O31 O 0.54972 0.14776 0.01566 0.0
O32 O 0.66394 0.08476 0.15123 0.0
O33 O 0.57367 0.11211 0.28319 0.0
C34 C 0.33146 0.85204 0.91442 0.0
C35 C 0.53299 0.86261 0.00846 0.0
C36 C 0.4622 0.93286 0.67164 0.0
C37 C 0.49134 0.12061 0.94168 0.0
C38 C 0.66557 0.09114 0.04847 0.0
C39 C 0.52807 0.05026 0.27401 0.0
O40 O 0.33691 0.82237 0.83421 0.0
O41 O 0.38259 0.90718 0.97311 0.0
O42 O 0.37695 0.45045 0.82828 0.0
Mg43 Mg 0.4732 0.53755 0.88274 0.0
O44 O 0.42331 0.47457 0.01638 0.0
Mg45 Mg 0.53967 0.50837 0.02615 0.0
O46 O 0.5403 0.52491 0.83068 0.0
O47 O 0.49194 0.58212 0.74473 0.0
O48 O 0.64811 0.53183 0.05041 0.0
O49 O 0.50364 0.39584 0.95645 0.0
Mg50 Mg 0.54086 0.42174 0.16501 0.0
O51 O 0.55049 0.50582 0.22507 0.0
O52 O 0.62984 0.44002 0.12556 0.0
O53 O 0.4389 0.35054 0.06407 0.0
O54 O 0.55522 0.42949 0.33655 0.0
C55 C 0.54796 0.64793 0.06947 0.0
C56 C 0.3699 0.44914 0.92814 0.0
C57 C 0.5268 0.55448 0.7447 0.0
C58 C 0.6668 0.49069 0.08404 0.0
C59 C 0.45963 0.34281 0.98338 0.0
C60 C 0.55622 0.48465 0.32495 0.0
O61 O 0.48955 0.61659 -0.00341 0.0
O62 O 0.58366 0.62104 0.0886 0.0
C63 C -0.0098 0.50721 0.51794 0.0
C64 C -0.00761 0.45962 0.58947 0.0
C65 C 0.04847 0.43348 0.47205 0.0
C66 C 0.04253 0.47821 0.39634 0.0
N67 N -0.00015 0.55099 0.33629 0.0
N68 N 0.01453 0.37074 0.6275 0.0
C69 C 0.01061 0.5128 0.41566 0.0
C70 C 0.01935 0.42106 0.56499 0.0
N71 N -0.0293 0.54864 0.55054 0.0
N72 N 0.08274 0.40345 0.45555 0.0
H73 H -0.00433 0.36173 0.69871 0.0
H74 H 0.02572 0.33561 0.60542 0.0
H75 H 0.09985 0.40701 0.38304 0.0
H76 H 0.09688 0.37749 0.51594 0.0
H77 H -0.02554 0.58902 0.50942 0.0
H78 H 0.95641 0.54639 0.626 0.0
H79 H -0.02974 0.57155 0.33844 0.0
H80 H 0.01606 0.55805 0.26231 0.0
C81 C 0.44736 0.00634 0.39309 0.0
C82 C 0.51146 0.02524 0.38028 0.0
C83 C 0.54913 0.00523 0.57845 0.0
C84 C 0.48219 0.97712 0.5845 0.0
N85 N 0.36624 0.94865 0.49964 0.0
N86 N 0.62184 0.03696 0.45444 0.0
C87 C 0.43095 0.97755 0.49266 0.0
C88 C 0.56234 0.02393 0.47181 0.0
N89 N 0.40312 0.01744 0.31168 0.0
N90 N 0.59978 0.01315 0.67431 0.0
H91 H 0.63329 0.04984 0.3768 0.0
H92 H 0.6576 0.02951 0.51292 0.0
H93 H 0.59117 -0.0015 0.75305 0.0
H94 H 0.65096 0.03962 0.67903 0.0
H95 H 0.35827 0.01085 0.32148 0.0
H96 H 0.41367 0.03774 0.23721 0.0
H97 H 0.32464 0.93964 0.42997 0.0
H98 H 0.35376 0.93098 0.57468 0.0
C99 C 0.4804 0.51108 0.53443 0.0
C100 C 0.53796 0.54427 0.63498 0.0
C101 C 0.61186 0.54893 0.52454 0.0
C102 C 0.55442 0.51833 0.42386 0.0
N103 N 0.43839 0.4868 0.32481 0.0
N104 N 0.65945 0.60551 0.72389 0.0
C105 C 0.49039 0.50586 0.4259 0.0
C106 C 0.60428 0.56669 0.62966 0.0
N107 N 0.41589 0.47945 0.54368 0.0
N108 N 0.67283 0.55937 0.51966 0.0
H109 H 0.65508 0.6192 0.80207 0.0
H110 H 0.70944 0.62822 0.72202 0.0
H111 H 0.68047 0.55033 0.44172 0.0
H112 H 0.71474 0.57432 0.59281 0.0
H113 H 0.37271 0.44851 0.47449 0.0
H114 H 0.4053 0.47746 0.62268 0.0
H115 H 0.39305 0.48419 0.32146 0.0
H116 H 0.44262 0.47974 0.24287 0.0
C117 C 0.21556 0.39194 0.03382 0.0
C118 C 0.18837 0.42872 0.97239 0.0
C119 C 0.27712 0.47507 0.87822 0.0
C120 C 0.30496 0.43826 0.9389 0.0
N121 N 0.29102 0.34936 0.05135 0.0
N122 N 0.1776 0.48359 0.80449 0.0
C123 C 0.27101 0.39256 0.0095 0.0
C124 C 0.21325 0.46204 0.88268 0.0
N125 N 0.18931 0.35812 0.11765 0.0
N126 N 0.31392 0.52684 0.82506 0.0
H127 H 0.13034 0.47491 0.80439 0.0
H128 H 0.19118 0.50286 0.73119 0.0
H129 H 0.36362 0.54315 0.82711 0.0
H130 H 0.29815 0.55913 0.79073 0.0
H131 H 0.2118 0.33712 0.17592 0.0
H132 H 0.14568 0.35327 0.13089 0.0
H133 H 0.26496 0.3112 0.09567 0.0
H134 H 0.33036 0.348 0.03202 0.0
C135 C 0.76471 0.20853 0.09868 0.0
C136 C 0.73006 0.1442 0.03127 0.0
C137 C 0.81578 0.18571 0.92829 0.0
C138 C 0.85063 0.24897 -0.00152 0.0
N139 N 0.87218 0.31085 0.17973 0.0
N140 N 0.73305 0.06739 0.90472 0.0
C141 C 0.83029 0.25665 0.09458 0.0
C142 C 0.7589 0.13129 0.95304 0.0
N143 N 0.73332 0.226 0.15964 0.0
N144 N 0.83598 0.17851 0.83603 0.0
H145 H 0.69173 0.02687 0.92224 0.0
H146 H 0.75582 0.05435 0.85518 0.0
H147 H 0.87979 0.21675 0.8207 0.0
H148 H 0.80809 0.13601 0.77328 0.0
H149 H 0.75452 0.27449 0.20004 0.0
H150 H 0.68302 0.19496 0.15806 0.0
H151 H 0.86089 0.31577 0.2558 0.0
H152 H 0.92157 0.34638 0.18187 0.0
C153 C 0.53271 0.78924 0.15773 0.0
C154 C 0.56679 0.83181 0.08403 0.0
C155 C 0.62301 0.76975 0.07367 0.0
C156 C 0.57458 0.71775 0.11761 0.0
N157 N 0.4956 0.68212 0.22776 0.0
N158 N 0.65444 0.87291 -0.0083 0.0
C159 C 0.53464 0.72987 0.17119 0.0
C160 C 0.61678 0.82626 0.05126 0.0
N161 N 0.49608 0.80428 0.20883 0.0
N162 N 0.67255 0.76347 0.04937 0.0
H163 H 0.65149 0.91552 0.97921 0.0
H164 H 0.68719 0.86933 0.95374 0.0
H165 H 0.6783 0.72291 0.06769 0.0
H166 H 0.71135 0.80057 0.02133 0.0
H167 H 0.47115 0.77674 0.26653 0.0
H168 H 0.49489 0.84792 0.19923 0.0
H169 H 0.46031 0.68386 0.26082 0.0
H170 H 0.49903 0.63977 0.24093 0.0
C171 C 0.77688 0.43579 0.00619 0.0
C172 C 0.83761 0.49704 0.01727 0.0
C173 C 0.791 0.55545 0.09147 0.0
C174 C 0.72644 0.4952 0.05996 0.0
N175 N 0.65558 0.38223 0.95539 0.0
N176 N 0.90343 0.61639 0.06548 0.0
C177 C 0.71866 0.43632 0.00898 0.0
C178 C 0.84526 0.5575 0.05903 0.0
N179 N 0.77466 0.37694 -0.00839 0.0
N180 N 0.8011 0.60951 0.15522 0.0
H181 H 0.94464 0.61841 0.04677 0.0
H182 H 0.90926 0.66274 0.08343 0.0
H183 H 0.7631 0.6091 0.18309 0.0
H184 H 0.84859 0.65263 0.18906 0.0
H185 H 0.73273 0.33099 -0.00742 0.0
H186 H 0.81749 0.3751 -0.00755 0.0
H187 H 0.64817 0.34043 0.90891 0.0
H188 H 0.61078 0.38233 0.94386 0.0
C189 C 0.20789 0.75942 0.08404 0.0
C190 C 0.16421 0.7018 -0.00183 0.0
C191 C 0.20727 0.76976 0.85212 0.0
C192 C 0.26559 0.81675 0.94243 0.0
N193 N 0.31234 0.86693 0.145 0.0
N194 N 0.11146 0.65699 0.79197 0.0
C195 C 0.26258 0.81589 0.05867 0.0
C196 C 0.15907 0.7087 0.87899 0.0
N197 N 0.19618 0.7595 0.18911 0.0
N198 N 0.19883 0.78414 0.74096 0.0
H199 H 0.06957 0.61488 0.8038 0.0
H200 H 0.11343 0.65627 0.70658 0.0
H201 H 0.23321 0.82986 0.72174 0.0
H202 H 0.15504 0.75455 0.67184 0.0
H203 H 0.22282 0.80124 0.25321 0.0
H204 H 0.15454 0.71908 0.20639 0.0
H205 H 0.31857 0.86382 0.23337 0.0
H206 H 0.34662 0.91314 0.12823 0.0
C207 C 0.44094 0.23011 0.03532 0.0
C208 C 0.4532 0.2771 0.95469 0.0
C209 C 0.47659 0.209 0.84114 0.0
C210 C 0.4594 0.16139 0.91803 0.0
N211 N 0.39811 0.11447 0.05659 0.0
N212 N 0.46218 0.29752 0.76074 0.0
C213 C 0.43034 0.16716 0.00166 0.0
C214 C 0.46427 0.26213 0.85057 0.0
N215 N 0.44846 0.24702 0.14915 0.0
N216 N 0.50596 0.20433 0.76139 0.0
H217 H 0.449 0.33366 0.76154 0.0
H218 H 0.46581 0.2856 0.68069 0.0
H219 H 0.51241 0.16413 0.75008 0.0
H220 H 0.52643 0.24167 0.71146 0.0
H221 H 0.44315 0.21397 0.2095 0.0
H222 H 0.47207 0.29563 0.1902 0.0
H223 H 0.37266 0.11585 0.11396 0.0
H224 H 0.39038 0.06764 0.03438 0.0
loop_
_geom_bond_atom_site_label_1
_geom_bond_atom_site_label_2
_geom_bond_distance
_geom_bond_site_symmetry_2
_ccdc_geom_bond_type
O0 Mg1 1.990 . S
O0 C14 1.253 . S
Mg1 O0 1.990 . S
Mg1 O4 2.180 1_655 S
Mg1 O5 2.117 . S
Mg1 O19 2.030 . S
O2 Mg3 2.072 1_655 S
O2 C14 1.260 1_554 S
Mg3 O2 2.072 1_455 S
Mg3 O4 2.099 1_554 S
Mg3 O6 2.079 . S
Mg3 O7 2.072 1_554 S
Mg3 O9 2.099 . S
Mg3 O20 2.079 1_455 S
O4 Mg1 2.180 1_455 S
O4 Mg3 2.099 1_556 S
O4 C15 1.279 . S
O5 Mg1 2.117 . S
O5 C15 1.250 1_655 S
O6 Mg3 2.079 . S
O6 C16 1.264 . S
O7 Mg3 2.072 1_556 S
O7 C17 1.260 1_556 S
Mg8 O9 2.180 . S
Mg8 O10 2.030 . S
Mg8 O11 1.990 . S
Mg8 O12 2.117 . S
O9 Mg3 2.099 . S
O9 Mg8 2.180 . S
O9 C18 1.279 . S
O10 Mg8 2.030 . S
O10 C16 1.248 . S
O11 Mg8 1.990 . S
O11 C17 1.253 . S
O12 Mg8 2.117 . S
O12 C18 1.250 . S
C13 O19 1.248 . S
C13 O20 1.264 1_556 S
C14 O0 1.253 . S
C14 O2 1.260 1_556 S
C15 O4 1.279 . S
C15 O5 1.250 1_455 S
C16 O6 1.264 . S
C16 O10 1.248 . S
C17 O7 1.260 1_554 S
C17 O11 1.253 . S
C18 O9 1.279 . S
C18 O12 1.250 . S
O19 Mg1 2.030 . S
O19 C13 1.248 . S
O20 Mg3 2.079 1_655 S
O20 C13 1.264 1_554 S
O21 Mg22 1.990 . S
O21 C35 1.253 1_556 S
Mg22 O21 1.990 . S
Mg22 O25 2.180 . S
Mg22 O26 2.117 . S
Mg22 O40 2.030 . S
O23 Mg24 2.072 1_565 S
O23 C35 1.260 . S
Mg24 O23 2.072 1_545 S
Mg24 O25 2.099 1_544 S
Mg24 O27 2.079 1_554 S
Mg24 O28 2.072 1_554 S
Mg24 O30 2.099 . S
Mg24 O41 2.079 1_545 S
O25 Mg22 2.180 . S
O25 Mg24 2.099 1_566 S
O25 C36 1.279 . S
O26 Mg22 2.117 . S
O26 C36 1.250 . S
O27 Mg24 2.079 1_556 S
O27 C37 1.264 1_556 S
O28 Mg24 2.072 1_556 S
O28 C38 1.260 1_556 S
Mg29 O30 2.180 . S
Mg29 O31 2.030 . S
Mg29 O32 1.990 . S
Mg29 O33 2.117 . S
O30 Mg24 2.099 . S
O30 Mg29 2.180 . S
O30 C39 1.279 . S
O31 Mg29 2.030 . S
O31 C37 1.248 . S
O32 Mg29 1.990 . S
O32 C38 1.253 . S
O33 Mg29 2.117 . S
O33 C39 1.250 . S
C34 O40 1.248 . S
C34 O41 1.264 1_556 S
C35 O21 1.253 1_554 S
C35 O23 1.260 . S
C36 O25 1.279 . S
C36 O26 1.250 . S
C37 O27 1.264 1_554 S
C37 O31 1.248 . S
C38 O28 1.260 1_554 S
C38 O32 1.253 . S
C39 O30 1.279 . S
C39 O33 1.250 . S
O40 Mg22 2.030 . S
O40 C34 1.248 . S
O41 Mg24 2.079 1_565 S
O41 C34 1.264 1_554 S
O42 Mg43 1.990 . S
O42 C56 1.253 . S
Mg43 O42 1.990 . S
Mg43 O46 2.180 . S
Mg43 O47 2.117 . S
Mg43 O61 2.030 . S
O44 Mg45 2.072 . S
O44 C56 1.260 1_554 S
Mg45 O44 2.072 . S
Mg45 O46 2.099 1_554 S
Mg45 O48 2.079 . S
Mg45 O49 2.072 1_554 S
Mg45 O51 2.099 . S
Mg45 O62 2.079 . S
O46 Mg43 2.180 . S
O46 Mg45 2.099 1_556 S
O46 C57 1.279 . S
O47 Mg43 2.117 . S
O47 C57 1.250 . S
O48 Mg45 2.079 . S
O48 C58 1.264 . S
O49 Mg45 2.072 1_556 S
O49 C59 1.260 1_556 S
Mg50 O51 2.180 . S
Mg50 O52 2.030 . S
Mg50 O53 1.990 . S
Mg50 O54 2.117 . S
O51 Mg45 2.099 . S
O51 Mg50 2.180 . S
O51 C60 1.279 . S
O52 Mg50 2.030 . S
O52 C58 1.248 . S
O53 Mg50 1.990 . S
O53 C59 1.253 . S
O54 Mg50 2.117 . S
O54 C60 1.250 . S
C55 O61 1.248 1_554 S
C55 O62 1.264 . S
C56 O42 1.253 . S
C56 O44 1.260 1_556 S
C57 O46 1.279 . S
C57 O47 1.250 . S
C58 O48 1.264 . S
C58 O52 1.248 . S
C59 O49 1.260 1_554 S
C59 O53 1.253 . S
C60 O51 1.279 . S
C60 O54 1.250 . S
O61 Mg43 2.030 . S
O61 C55 1.248 1_556 S
O62 Mg45 2.079 . S
O62 C55 1.264 . S
C63 C64 1.363 . S
C63 C69 1.379 . S
C63 N71 1.356 . S
C64 C63 1.363 . S
C64 C70 1.363 . S
C65 C66 1.363 . S
C65 C70 1.379 . S
C65 N72 1.356 . S
C66 C65 1.363 . S
C66 C69 1.363 . S
N67 C69 1.356 . S
N67 H79 0.984 . S
N67 H80 0.985 . S
N68 C70 1.356 . S
N68 H73 0.984 . S
N68 H74 0.985 . S
C69 C63 1.379 . S
C69 C66 1.363 . S
C69 N67 1.356 . S
C70 C64 1.363 . S
C70 C65 1.379 . S
C70 N68 1.356 . S
N71 C63 1.356 . S
N71 H77 0.984 . S
N71 H78 0.984 . S
N72 C65 1.356 . S
N72 H75 0.984 . S
N72 H76 0.985 . S
H73 N68 0.984 . S
H74 N68 0.985 . S
H75 N72 0.984 . S
H76 N72 0.985 . S
H77 N71 0.984 . S
H78 N71 0.984 . S
H79 N67 0.984 . S
H80 N67 0.985 . S
C81 C82 1.363 . S
C81 C87 1.379 . S
C81 N89 1.356 . S
C82 C81 1.363 . S
C82 C88 1.363 1_545 S
C83 C84 1.363 . S
C83 C88 1.379 1_545 S
C83 N90 1.356 1_545 S
C84 C83 1.363 . S
C84 C87 1.363 . S
N85 C87 1.356 . S
N85 H97 0.984 . S
N85 H98 0.985 . S
N86 C88 1.356 . S
N86 H91 0.984 . S
N86 H92 0.985 . S
C87 C81 1.379 . S
C87 C84 1.363 . S
C87 N85 1.356 . S
C88 C82 1.363 1_565 S
C88 C83 1.379 1_565 S
C88 N86 1.356 . S
N89 C81 1.356 . S
N89 H95 0.984 . S
N89 H96 0.984 . S
N90 C83 1.356 1_565 S
N90 H93 0.984 1_565 S
N90 H94 0.985 . S
H91 N86 0.984 . S
H92 N86 0.985 . S
H93 N90 0.984 1_545 S
H94 N90 0.985 . S
H95 N89 0.984 . S
H96 N89 0.984 . S
H97 N85 0.984 . S
H98 N85 0.985 . S
C99 C100 1.363 . S
C99 C105 1.379 . S
C99 N107 1.356 . S
C100 C99 1.363 . S
C100 C106 1.363 . S
C101 C102 1.363 . S
C101 C106 1.379 . S
C101 N108 1.356 . S
C102 C101 1.363 . S
C102 C105 1.363 . S
N103 C105 1.356 . S
N103 H115 0.984 . S
N103 H116 0.985 . S
N104 C106 1.356 . S
N104 H109 0.984 . S
N104 H110 0.985 . S
C105 C99 1.379 . S
C105 C102 1.363 . S
C105 N103 1.356 . S
C106 C100 1.363 . S
C106 C101 1.379 . S
C106 N104 1.356 . S
N107 C99 1.356 . S
N107 H113 0.984 . S
N107 H114 0.984 . S
N108 C101 1.356 . S
N108 H111 0.984 . S
N108 H112 0.985 . S
H109 N104 0.984 . S
H110 N104 0.985 . S
H111 N108 0.984 . S
H112 N108 0.985 . S
H113 N107 0.984 . S
H114 N107 0.984 . S
H115 N103 0.984 . S
H116 N103 0.985 . S
C117 C118 1.363 . S
C117 C123 1.379 . S
C117 N125 1.356 . S
C118 C117 1.363 . S
C118 C124 1.363 1_554 S
C119 C120 1.363 1_556 S
C119 C124 1.379 . S
C119 N126 1.356 . S
C120 C119 1.363 1_554 S
C120 C123 1.363 . S
N121 C123 1.356 . S
N121 H133 0.984 . S
N121 H134 0.985 . S
N122 C124 1.356 . S
N122 H127 0.984 . S
N122 H128 0.985 . S
C123 C117 1.379 . S
C123 C120 1.363 . S
C123 N121 1.356 . S
C124 C118 1.363 1_556 S
C124 C119 1.379 . S
C124 N122 1.356 . S
N125 C117 1.356 . S
N125 H131 0.984 . S
N125 H132 0.984 . S
N126 C119 1.356 . S
N126 H129 0.984 . S
N126 H130 0.985 . S
H127 N122 0.984 . S
H128 N122 0.985 . S
H129 N126 0.984 . S
H130 N126 0.985 . S
H131 N125 0.984 . S
H132 N125 0.984 . S
H133 N121 0.984 . S
H134 N121 0.985 . S
C135 C136 1.363 . S
C135 C141 1.379 . S
C135 N143 1.356 . S
C136 C135 1.363 . S
C136 C142 1.363 1_554 S
C137 C138 1.363 1_556 S
C137 C142 1.379 . S
C137 N144 1.356 . S
C138 C137 1.363 1_554 S
C138 C141 1.363 . S
N139 C141 1.356 . S
N139 H151 0.984 . S
N139 H152 0.985 . S
N140 C142 1.356 . S
N140 H145 0.984 . S
N140 H146 0.985 . S
C141 C135 1.379 . S
C141 C138 1.363 . S
C141 N139 1.356 . S
C142 C136 1.363 1_556 S
C142 C137 1.379 . S
C142 N140 1.356 . S
N143 C135 1.356 . S
N143 H149 0.984 . S
N143 H150 0.984 . S
N144 C137 1.356 . S
N144 H147 0.984 . S
N144 H148 0.985 . S
H145 N140 0.984 . S
H146 N140 0.985 . S
H147 N144 0.984 . S
H148 N144 0.985 . S
H149 N143 0.984 . S
H150 N143 0.984 . S
H151 N139 0.984 . S
H152 N139 0.985 . S
C153 C154 1.363 1_556 S
C153 C159 1.379 . S
C153 N161 1.356 . S
C154 C153 1.363 1_554 S
C154 C160 1.363 . S
C155 C156 1.363 . S
C155 C160 1.379 . S
C155 N162 1.356 . S
C156 C155 1.363 . S
C156 C159 1.363 1_554 S
N157 C159 1.356 . S
N157 H169 0.984 . S
N157 H170 0.985 . S
N158 C160 1.356 . S
N158 H163 0.984 . S
N158 H164 0.985 . S
C159 C153 1.379 . S
C159 C156 1.363 1_556 S
C159 N157 1.356 . S
C160 C154 1.363 . S
C160 C155 1.379 . S
C160 N158 1.356 . S
N161 C153 1.356 . S
N161 H167 0.984 . S
N161 H168 0.984 . S
N162 C155 1.356 . S
N162 H165 0.984 . S
N162 H166 0.985 . S
H163 N158 0.984 . S
H164 N158 0.985 . S
H165 N162 0.984 . S
H166 N162 0.985 . S
H167 N161 0.984 . S
H168 N161 0.984 . S
H169 N157 0.984 . S
H170 N157 0.985 . S
C171 C172 1.363 1_556 S
C171 C177 1.379 . S
C171 N179 1.356 . S
C172 C171 1.363 1_554 S
C172 C178 1.363 . S
C173 C174 1.363 . S
C173 C178 1.379 . S
C173 N180 1.356 . S
C174 C173 1.363 . S
C174 C177 1.363 1_554 S
N175 C177 1.356 . S
N175 H187 0.984 . S
N175 H188 0.985 . S
N176 C178 1.356 . S
N176 H181 0.984 . S
N176 H182 0.985 . S
C177 C171 1.379 . S
C177 C174 1.363 1_556 S
C177 N175 1.356 . S
C178 C172 1.363 . S
C178 C173 1.379 . S
C178 N176 1.356 . S
N179 C171 1.356 . S
N179 H185 0.984 . S
N179 H186 0.984 . S
N180 C173 1.356 . S
N180 H183 0.984 . S
N180 H184 0.985 . S
H181 N176 0.984 . S
H182 N176 0.985 . S
H183 N180 0.984 . S
H184 N180 0.985 . S
H185 N179 0.984 . S
H186 N179 0.984 . S
H187 N175 0.984 . S
H188 N175 0.985 . S
C189 C190 1.363 . S
C189 C195 1.379 . S
C189 N197 1.356 . S
C190 C189 1.363 . S
C190 C196 1.363 1_554 S
C191 C192 1.363 1_556 S
C191 C196 1.379 . S
C191 N198 1.356 . S
C192 C191 1.363 1_554 S
C192 C195 1.363 . S
N193 C195 1.356 . S
N193 H205 0.984 . S
N193 H206 0.985 . S
N194 C196 1.356 . S
N194 H199 0.984 . S
N194 H200 0.985 . S
C195 C189 1.379 . S
C195 C192 1.363 . S
C195 N193 1.356 . S
C196 C190 1.363 1_556 S
C196 C191 1.379 . S
C196 N194 1.356 . S
N197 C189 1.356 . S
N197 H203 0.984 . S
N197 H204 0.984 . S
N198 C191 1.356 . S
N198 H201 0.984 . S
N198 H202 0.985 . S
H199 N194 0.984 . S
H200 N194 0.985 . S
H201 N198 0.984 . S
H202 N198 0.985 . S
H203 N197 0.984 . S
H204 N197 0.984 . S
H205 N193 0.984 . S
H206 N193 0.985 . S
C207 C208 1.363 1_554 S
C207 C213 1.379 . S
C207 N215 1.356 . S
C208 C207 1.363 1_556 S
C208 C214 1.363 . S
C209 C210 1.363 . S
C209 C214 1.379 . S
C209 N216 1.356 . S
C210 C209 1.363 . S
C210 C213 1.363 1_556 S
N211 C213 1.356 . S
N211 H223 0.984 . S
N211 H224 0.985 . S
N212 C214 1.356 . S
N212 H217 0.984 . S
N212 H218 0.985 . S
C213 C207 1.379 . S
C213 C210 1.363 1_554 S
C213 N211 1.356 . S
C214 C208 1.363 . S
C214 C209 1.379 . S
C214 N212 1.356 . S
N215 C207 1.356 . S
N215 H221 0.984 . S
N215 H222 0.984 . S
N216 C209 1.356 . S
N216 H219 0.984 . S
N216 H220 0.985 . S
H217 N212 0.984 . S
H218 N212 0.985 . S
H219 N216 0.984 . S
H220 N216 0.985 . S
H221 N215 0.984 . S
H222 N215 0.984 . S
H223 N211 0.984 . S
H224 N211 0.985 . S
C64 C15 1.298 . S
C66 C18 1.298 . S
C82 C39 1.268 . S
C84 C36 1.268 1_545 S
C100 C57 1.268 . S
C102 C60 1.268 . S
C118 C17 1.263 . S
C120 C56 1.265 1_554 S
C136 C38 1.265 . S
C138 C14 1.263 1_554 S
C154 C35 1.230 . S
C156 C55 1.246 . S
C172 C13 1.226 1_554 S
C174 C58 1.222 . S
C190 C16 1.226 . S
C192 C34 1.222 1_554 S
C208 C59 1.230 1_556 S
C210 C37 1.246 1_556 S
