# Generated by pormake.
# Topology etb, (3)-cn, num edge types: 1
# Building blocks:
#     Node 0, Type 0, BuildingBlock: OLANEW_clean_sbu_2, # of connection points: 3
#     Node 1, Type 0, BuildingBlock: OLANEW_clean_sbu_2, # of connection points: 3
#     Node 2, Type 0, BuildingBlock: OLANEW_clean_sbu_2, # of connection points: 3
#     Node 3, Type 0, BuildingBlock: OLANEW_clean_sbu_2, # of connection points: 3
#     Node 4, Type 0, BuildingBlock: OLANEW_clean_sbu_2, # of connection points: 3
#     Node 5, Type 0, BuildingBlock: OLANEW_clean_sbu_2, # of connection points: 3
#     Node 6, Type 0, BuildingBlock: OLANEW_clean_sbu_2, # of connection points: 3
#     Node 7, Type 0, BuildingBlock: OLANEW_clean_sbu_2, # of connection points: 3
#     Node 8, Type 0, BuildingBlock: OLANEW_clean_sbu_2, # of connection points: 3
#     Node 9, Type 0, BuildingBlock: OLANEW_clean_sbu_2, # of connection points: 3
#     Node 10, Type 0, BuildingBlock: OLANEW_clean_sbu_2, # of connection points: 3
#     Node 11, Type 0, BuildingBlock: OLANEW_clean_sbu_2, # of connection points: 3
#     Node 12, Type 0, BuildingBlock: OLANEW_clean_sbu_2, # of connection points: 3
#     Node 13, Type 0, BuildingBlock: OLANEW_clean_sbu_2, # of connection points: 3
#     Node 14, Type 0, BuildingBlock: OLANEW_clean_sbu_2, # of connection points: 3
#     Node 15, Type 0, BuildingBlock: OLANEW_clean_sbu_2, # of connection points: 3
#     Node 16, Type 0, BuildingBlock: OLANEW_clean_sbu_2, # of connection points: 3
#     Node 17, Type 0, BuildingBlock: OLANEW_clean_sbu_2, # of connection points: 3
#     Edge 18, Type (0, 0), None
#     Edge 19, Type (0, 0), None
#     Edge 20, Type (0, 0), None
#     Edge 21, Type (0, 0), None
#     Edge 22, Type (0, 0), None
#     Edge 23, Type (0, 0), None
#     Edge 24, Type (0, 0), None
#     Edge 25, Type (0, 0), None
#     Edge 26, Type (0, 0), None
#     Edge 27, Type (0, 0), None
#     Edge 28, Type (0, 0), None
#     Edge 29, Type (0, 0), None
#     Edge 30, Type (0, 0), None
#     Edge 31, Type (0, 0), None
#     Edge 32, Type (0, 0), None
#     Edge 33, Type (0, 0), None
#     Edge 34, Type (0, 0), None
#     Edge 35, Type (0, 0), None
#     Edge 36, Type (0, 0), None
#     Edge 37, Type (0, 0), None
#     Edge 38, Type (0, 0), None
#     Edge 39, Type (0, 0), None
#     Edge 40, Type (0, 0), None
#     Edge 41, Type (0, 0), None
#     Edge 42, Type (0, 0), None
#     Edge 43, Type (0, 0), None
#     Edge 44, Type (0, 0), None
# Relax obj value: 0.022
# Max RMSD: 0.063
# Mean RMSD: 0.044
data_MOF--net-etb--node1-OLANEW_clean_sbu_2--edge1-none
_symmetry_space_group_name_H-M    P1
_symmetry_Int_Tables_number       1
_symmetry_cell_setting            triclinic
loop_
_symmetry_equiv_pos_as_xyz
'x, y, z'
_cell_length_a     48.116874
_cell_length_b     44.884942
_cell_length_c     13.319702
_cell_angle_alpha  79.819973
_cell_angle_beta   100.03449
_cell_angle_gamma 126.68086
loop_
_atom_site_label
_atom_site_type_symbol
_atom_site_fract_x
_atom_site_fract_y
_atom_site_fract_z
_atom_type_partial_charge
O0 O 0.465 0.10373 0.12967 0.0
Cd1 Cd 0.47482 0.0772 0.29724 0.0
O2 O 0.41466 0.09001 0.1586 0.0
Cd3 Cd 0.40905 0.05264 0.29441 0.0
O4 O 0.37744 0.99776 0.37638 0.0
C5 C 0.36483 0.96905 0.33083 0.0
O6 O 0.37283 0.97315 0.2376 0.0
C7 C 0.43946 0.10569 0.10199 0.0
C8 C 0.49684 0.03331 0.28205 0.0
O9 O 0.46536 0.01814 0.29891 0.0
O10 O 0.51782 0.06896 0.27235 0.0
O11 O 0.07417 0.497 0.05168 0.0
Cd12 Cd 0.06913 0.53966 0.92059 0.0
O13 O 0.02451 0.44387 0.01223 0.0
Cd14 Cd 0.01317 0.466 0.86512 0.0
O15 O 0.01699 0.43625 0.76155 0.0
C16 C 0.04731 0.44537 0.75628 0.0
O17 O 0.07415 0.47411 0.80252 0.0
C18 C 0.05249 0.46194 0.06962 0.0
C19 C 0.03523 0.5659 0.98101 0.0
O20 O 0.06578 0.57681 0.0203 0.0
O21 O 0.02034 0.54239 0.91364 0.0
O22 O 0.70186 0.59536 0.78712 0.0
Cd23 Cd 0.67275 0.5296 0.84811 0.0
O24 O 0.69918 0.60489 0.93983 0.0
Cd25 Cd 0.70332 0.63832 0.05007 0.0
O26 O 0.70251 0.67081 0.1518 0.0
C27 C 0.73035 0.70009 0.18492 0.0
O28 O 0.76043 0.71108 0.15847 0.0
C29 C 0.70676 0.61725 0.84783 0.0
C30 C 0.60447 0.50131 0.87158 0.0
O31 O 0.61309 0.50135 0.78584 0.0
O32 O 0.62774 0.51349 0.94735 0.0
O33 O 0.58428 0.98483 0.36751 0.0
Cd34 Cd 0.53156 0.96762 0.25578 0.0
O35 O 0.60805 0.00449 0.22237 0.0
Cd36 Cd 0.65092 0.0297 0.12674 0.0
O37 O 0.69148 0.05106 0.02575 0.0
C38 C 0.68379 0.03586 0.94387 0.0
O39 O 0.65159 0.00766 0.92103 0.0
C40 C 0.61109 1.00025 0.31966 0.0
C41 C 0.50868 0.01052 0.2734 0.0
O42 O 0.4933 0.97707 0.31591 0.0
O43 O 0.53477 0.02373 0.22314 0.0
O44 O 0.02672 0.67115 0.12742 0.0
Cd45 Cd 0.98535 0.6078 0.07444 0.0
O46 O 0.98525 0.67807 0.13209 0.0
Cd47 Cd 0.9452 0.6354 0.03265 0.0
O48 O 0.92457 0.65196 0.89224 0.0
C49 C 0.93454 0.68553 0.88791 0.0
O50 O 0.95407 0.70521 0.96552 0.0
C51 C 0.01682 0.68956 0.15061 0.0
C52 C 0.01781 0.5801 0.01272 0.0
O53 O 0.01983 0.58417 0.10699 0.0
O54 O 1.00061 0.58912 0.94691 0.0
O55 O 0.45871 0.40576 0.92504 0.0
Cd56 Cd 0.5041 0.47241 0.89553 0.0
O57 O 0.43618 0.41985 0.02121 0.0
Cd58 Cd 0.39619 0.40541 0.11572 0.0
O59 O 0.36068 0.38702 0.23119 0.0
C60 C 0.33144 0.3553 0.23291 0.0
O61 O 0.32148 0.33313 0.16175 0.0
C62 C 0.43508 0.3954 0.98128 0.0
C63 C 0.56929 0.48962 0.88106 0.0
O64 O 0.56035 0.48881 0.96722 0.0
O65 O 0.54736 0.48179 0.80219 0.0
O66 O 0.09883 0.32213 0.46421 0.0
Cd67 Cd 0.12685 0.31259 0.34912 0.0
O68 O 0.08772 0.34845 0.324 0.0
Cd69 Cd 0.06469 0.3764 0.2405 0.0
O70 O 0.04512 0.40637 0.14757 0.0
C71 C 0.06188 0.44143 0.14854 0.0
O72 O 0.09074 0.45957 0.20864 0.0
C73 C 0.0846 0.33785 0.41888 0.0
C74 C 0.17407 0.29696 0.43813 0.0
O75 O 0.18414 0.33064 0.41133 0.0
O76 O 0.14154 0.27062 0.42597 0.0
O77 O 0.70646 0.80967 0.56366 0.0
Cd78 Cd 0.67525 0.82897 0.43669 0.0
O79 O 0.72643 0.80414 0.43761 0.0
Cd80 Cd 0.74904 0.78306 0.36991 0.0
O81 O 0.75607 0.75202 0.28085 0.0
C82 C 0.7286 0.72201 0.24973 0.0
O83 O 0.69831 0.71125 0.27358 0.0
C84 C 0.72341 0.80009 0.53284 0.0
C85 C 0.69384 0.90073 0.43802 0.0
O86 O 0.67236 0.87391 0.49921 0.0
O87 O 0.70733 0.894 0.37836 0.0
O88 O 0.328 0.90324 0.3328 0.0
Cd89 Cd 0.28335 0.83889 0.39346 0.0
O90 O 0.32812 0.92749 0.46283 0.0
Cd91 Cd 0.34661 0.97635 0.53999 0.0
O92 O 0.37604 0.03145 0.59612 0.0
C93 C 0.40889 0.05257 0.59343 0.0
O94 O 0.42418 0.04087 0.5572 0.0
C95 C 0.33956 0.93162 0.37853 0.0
C96 C 0.21693 0.8223 0.352 0.0
O97 O 0.23229 0.82253 0.28214 0.0
O98 O 0.23276 0.82983 0.44173 0.0
O99 O 0.26843 0.27515 0.71512 0.0
Cd100 Cd 0.2484 0.27293 0.53262 0.0
O101 O 0.30274 0.33668 0.70222 0.0
Cd102 Cd 0.29858 0.3441 0.53592 0.0
O103 O 0.32188 0.36332 0.39102 0.0
C104 C 0.31081 0.34218 0.32019 0.0
O105 O 0.28301 0.30763 0.33062 0.0
C106 C 0.28946 0.30562 0.75643 0.0
C107 C 0.19949 0.28868 0.47583 0.0
O108 O 0.18972 0.25509 0.50217 0.0
O109 O 0.23211 0.31481 0.47794 0.0
O110 O 0.77239 0.05301 0.50176 0.0
Cd111 Cd 0.71503 0.00793 0.42055 0.0
O112 O 0.75396 0.06526 0.61812 0.0
Cd113 Cd 0.69988 0.0316 0.55223 0.0
O114 O 0.64792 0.00813 0.4728 0.0
C115 C 0.64513 0.01359 0.37579 0.0
O116 O 0.67321 0.03255 0.32629 0.0
C117 C 0.7787 0.0699 0.57892 0.0
C118 C 0.7018 0.93795 0.43361 0.0
O119 O 0.71858 0.96297 0.36153 0.0
O120 O 0.69121 0.94582 0.49972 0.0
O121 O 0.07296 0.7363 0.22379 0.0
Cd122 Cd 0.11605 0.79809 0.28482 0.0
O123 O 0.03129 0.74416 0.2091 0.0
Cd124 Cd 0.05915 0.79391 0.29059 0.0
O125 O 0.04704 0.80889 0.41507 0.0
C126 C 0.01675 0.80125 0.40733 0.0
O127 O 0.9963 0.78827 0.3232 0.0
C128 C 0.04166 0.72491 0.19687 0.0
C129 C 0.1821 0.81382 0.3293 0.0
O130 O 0.17043 0.81673 0.23682 0.0
O131 O 0.16268 0.8034 0.40122 0.0
O132 O 0.75518 0.77372 0.57813 0.0
Cd133 Cd 0.77681 0.74227 0.69893 0.0
O134 O 0.72512 0.76912 0.69472 0.0
Cd135 Cd 0.73267 0.73075 0.79985 0.0
O136 O 0.72297 0.67761 0.86794 0.0
C137 C 0.71829 0.65536 0.80887 0.0
O138 O 0.72059 0.66544 0.71023 0.0
C139 C 0.73581 0.78083 0.60563 0.0
C140 C 0.82287 0.73341 0.63113 0.0
O141 O 0.78997 0.70849 0.61966 0.0
O142 O 0.83403 0.76302 0.67144 0.0
O143 O 0.41122 0.12495 0.97296 0.0
Cd144 Cd 0.40945 0.1627 0.81892 0.0
O145 O 0.46012 0.13628 0.93974 0.0
Cd146 Cd 0.44701 0.14403 0.77714 0.0
O147 O 0.41549 0.09982 0.67424 0.0
C148 C 0.42998 0.08768 0.64178 0.0
O149 O 0.46362 0.10443 0.66229 0.0
C150 C 0.43725 0.12386 0.00126 0.0
C151 C 0.38966 0.20483 0.86962 0.0
O152 O 0.36805 0.17632 0.81921 0.0
O153 O 0.42055 0.21386 0.89405 0.0
O154 O 0.04175 0.34783 0.42198 0.0
Cd155 Cd 0.99261 0.33672 0.4937 0.0
O156 O 0.0645 0.33773 0.57024 0.0
Cd157 Cd 0.03824 0.35357 0.64234 0.0
O158 O 0.02661 0.38846 0.69312 0.0
C159 C 0.05219 0.42158 0.71044 0.0
O160 O 0.08373 0.43297 0.69779 0.0
C161 C 0.06318 0.34195 0.47316 0.0
C162 C 0.95056 0.26025 0.55043 0.0
O163 O 0.94988 0.27326 0.45715 0.0
O164 O 0.96996 0.28328 0.61829 0.0
O165 O 0.90854 0.68535 0.71858 0.0
Cd166 Cd 0.89381 0.71392 0.56397 0.0
O167 O 0.94425 0.73914 0.78611 0.0
Cd168 Cd 0.94811 0.77112 0.63933 0.0
O169 O 0.97039 0.78643 0.49408 0.0
C170 C 0.00247 0.80009 0.49764 0.0
O171 O 0.0211 0.80713 0.58639 0.0
C172 C 0.92816 0.70392 0.79387 0.0
C173 C 0.84726 0.72732 0.6038 0.0
O174 O 0.83622 0.69654 0.57072 0.0
O175 O 0.88015 0.75197 0.61693 0.0
O176 O 0.40226 0.33271 0.94145 0.0
Cd177 Cd 0.35879 0.2653 0.96846 0.0
O178 O 0.38387 0.34481 0.05831 0.0
Cd179 Cd 0.33399 0.29015 0.05172 0.0
O180 O 0.29823 0.27658 0.91392 0.0
C181 C 0.30226 0.30568 0.86456 0.0
O182 O 0.3238 0.33768 0.90488 0.0
C183 C 0.40601 0.35579 0.99545 0.0
C184 C 0.37907 0.22594 0.90215 0.0
O185 O 0.39306 0.242 0.98517 0.0
O186 O 0.35536 0.22828 0.84966 0.0
O187 O 0.83938 0.10365 0.57149 0.0
Cd188 Cd 0.90106 0.14415 0.62944 0.0
O189 O 0.82214 0.10887 0.70538 0.0
Cd190 Cd 0.78221 0.09482 0.79948 0.0
O191 O 0.74199 0.07636 0.8985 0.0
C192 C 0.71079 0.04923 0.87619 0.0
O193 O 0.70298 0.03279 0.79305 0.0
C194 C 0.81491 0.09532 0.62071 0.0
C195 C 0.93176 0.21997 0.57732 0.0
O196 O 0.92384 0.20566 0.66898 0.0
O197 O 0.92474 0.19859 0.51046 0.0
loop_
_geom_bond_atom_site_label_1
_geom_bond_atom_site_label_2
_geom_bond_distance
_geom_bond_site_symmetry_2
_ccdc_geom_bond_type
O0 Cd1 2.300 1_556 S
O0 C7 1.275 . S
Cd1 O0 2.300 1_554 S
Cd1 O9 2.381 1_554 S
Cd1 O10 2.378 . S
O2 Cd3 2.385 . S
O2 C7 1.255 1_554 S
Cd3 O2 2.385 . S
Cd3 O4 2.317 . S
O4 Cd3 2.317 . S
O4 C5 1.232 . S
C5 O4 1.232 . S
C5 O6 1.218 . S
O6 C5 1.218 . S
C7 O0 1.275 . S
C7 O2 1.255 1_556 S
C8 O9 1.258 1_554 S
C8 O10 1.256 . S
O9 Cd1 2.381 1_556 S
O9 C8 1.258 1_556 S
O10 Cd1 2.378 . S
O10 C8 1.256 . S
O11 Cd12 2.300 . S
O11 C18 1.275 . S
Cd12 O11 2.300 . S
Cd12 O20 2.381 . S
Cd12 O21 2.378 1_554 S
O13 Cd14 2.385 1_554 S
O13 C18 1.255 . S
Cd14 O13 2.385 1_556 S
Cd14 O15 2.317 . S
O15 Cd14 2.317 . S
O15 C16 1.232 . S
C16 O15 1.232 . S
C16 O17 1.218 . S
O17 C16 1.218 . S
C18 O11 1.275 . S
C18 O13 1.255 . S
C19 O20 1.258 . S
C19 O21 1.256 1_554 S
O20 Cd12 2.381 . S
O20 C19 1.258 . S
O21 Cd12 2.378 1_556 S
O21 C19 1.256 1_556 S
O22 Cd23 2.300 1_556 S
O22 C29 1.275 . S
Cd23 O22 2.300 1_554 S
Cd23 O31 2.381 1_554 S
Cd23 O32 2.378 . S
O24 Cd25 2.385 . S
O24 C29 1.255 1_554 S
Cd25 O24 2.385 . S
Cd25 O26 2.317 . S
O26 Cd25 2.317 . S
O26 C27 1.232 . S
C27 O26 1.232 . S
C27 O28 1.218 . S
O28 C27 1.218 . S
C29 O22 1.275 . S
C29 O24 1.255 1_556 S
C30 O31 1.258 1_554 S
C30 O32 1.256 . S
O31 Cd23 2.381 1_556 S
O31 C30 1.258 1_556 S
O32 Cd23 2.378 . S
O32 C30 1.256 . S
O33 Cd34 2.306 . S
O33 C40 1.274 . S
Cd34 O33 2.306 . S
Cd34 O42 2.381 . S
Cd34 O43 2.378 . S
O35 Cd36 2.385 . S
O35 C40 1.255 . S
Cd36 O35 2.385 . S
Cd36 O37 2.317 1_554 S
O37 Cd36 2.317 1_556 S
O37 C38 1.232 . S
C38 O37 1.232 . S
C38 O39 1.218 . S
O39 C38 1.218 . S
C40 O33 1.274 . S
C40 O35 1.255 . S
C41 O42 1.258 . S
C41 O43 1.256 . S
O42 Cd34 2.381 . S
O42 C41 1.258 . S
O43 Cd34 2.378 . S
O43 C41 1.256 . S
O44 Cd45 2.300 . S
O44 C51 1.275 . S
Cd45 O44 2.300 . S
Cd45 O53 2.381 . S
Cd45 O54 2.378 . S
O46 Cd47 2.385 . S
O46 C51 1.255 1_655 S
Cd47 O46 2.385 . S
Cd47 O48 2.317 1_554 S
O48 Cd47 2.317 1_556 S
O48 C49 1.232 . S
C49 O48 1.232 . S
C49 O50 1.218 . S
O50 C49 1.218 . S
C51 O44 1.275 . S
C51 O46 1.255 1_455 S
C52 O53 1.258 . S
C52 O54 1.256 . S
O53 Cd45 2.381 . S
O53 C52 1.258 . S
O54 Cd45 2.378 . S
O54 C52 1.256 . S
O55 Cd56 2.300 . S
O55 C62 1.275 . S
Cd56 O55 2.300 . S
Cd56 O64 2.381 1_556 S
Cd56 O65 2.378 1_556 S
O57 Cd58 2.385 . S
O57 C62 1.255 . S
Cd58 O57 2.385 . S
Cd58 O59 2.317 1_556 S
O59 Cd58 2.317 1_554 S
O59 C60 1.232 . S
C60 O59 1.232 . S
C60 O61 1.218 . S
O61 C60 1.218 . S
C62 O55 1.275 . S
C62 O57 1.255 . S
C63 O64 1.258 . S
C63 O65 1.256 . S
O64 Cd56 2.381 1_554 S
O64 C63 1.258 . S
O65 Cd56 2.378 1_554 S
O65 C63 1.256 . S
O66 Cd67 2.300 . S
O66 C73 1.275 . S
Cd67 O66 2.300 . S
Cd67 O75 2.381 . S
Cd67 O76 2.378 . S
O68 Cd69 2.385 . S
O68 C73 1.255 . S
Cd69 O68 2.385 . S
Cd69 O70 2.317 . S
O70 Cd69 2.317 . S
O70 C71 1.232 . S
C71 O70 1.232 . S
C71 O72 1.218 . S
O72 C71 1.218 . S
C73 O66 1.275 . S
C73 O68 1.255 . S
C74 O75 1.258 . S
C74 O76 1.256 . S
O75 Cd67 2.381 . S
O75 C74 1.258 . S
O76 Cd67 2.378 . S
O76 C74 1.256 . S
O77 Cd78 2.300 . S
O77 C84 1.275 . S
Cd78 O77 2.300 . S
Cd78 O86 2.381 . S
Cd78 O87 2.378 . S
O79 Cd80 2.385 . S
O79 C84 1.255 . S
Cd80 O79 2.385 . S
Cd80 O81 2.317 . S
O81 Cd80 2.317 . S
O81 C82 1.232 . S
C82 O81 1.232 . S
C82 O83 1.218 . S
O83 C82 1.218 . S
C84 O77 1.275 . S
C84 O79 1.255 . S
C85 O86 1.258 . S
C85 O87 1.256 . S
O86 Cd78 2.381 . S
O86 C85 1.258 . S
O87 Cd78 2.378 . S
O87 C85 1.256 . S
O88 Cd89 2.300 . S
O88 C95 1.275 . S
Cd89 O88 2.300 . S
Cd89 O97 2.381 . S
Cd89 O98 2.378 . S
O90 Cd91 2.385 . S
O90 C95 1.255 . S
Cd91 O90 2.385 . S
Cd91 O92 2.317 . S
O92 Cd91 2.317 . S
O92 C93 1.232 1_565 S
C93 O92 1.232 1_545 S
C93 O94 1.218 . S
O94 C93 1.218 . S
C95 O88 1.275 . S
C95 O90 1.255 . S
C96 O97 1.258 . S
C96 O98 1.256 . S
O97 Cd89 2.381 . S
O97 C96 1.258 . S
O98 Cd89 2.378 . S
O98 C96 1.256 . S
O99 Cd100 2.300 . S
O99 C106 1.275 . S
Cd100 O99 2.300 . S
Cd100 O108 2.381 . S
Cd100 O109 2.378 . S
O101 Cd102 2.385 . S
O101 C106 1.255 . S
Cd102 O101 2.385 . S
Cd102 O103 2.317 . S
O103 Cd102 2.317 . S
O103 C104 1.232 . S
C104 O103 1.232 . S
C104 O105 1.218 . S
O105 C104 1.218 . S
C106 O99 1.275 . S
C106 O101 1.255 . S
C107 O108 1.258 . S
C107 O109 1.256 . S
O108 Cd100 2.381 . S
O108 C107 1.258 . S
O109 Cd100 2.378 . S
O109 C107 1.256 . S
O110 Cd111 2.300 1_545 S
O110 C117 1.275 . S
Cd111 O110 2.300 1_565 S
Cd111 O119 2.381 . S
Cd111 O120 2.378 . S
O112 Cd113 2.385 1_545 S
O112 C117 1.255 . S
Cd113 O112 2.385 1_565 S
Cd113 O114 2.317 . S
O114 Cd113 2.317 . S
O114 C115 1.232 1_565 S
C115 O114 1.232 1_545 S
C115 O116 1.218 . S
O116 C115 1.218 . S
C117 O110 1.275 . S
C117 O112 1.255 . S
C118 O119 1.258 . S
C118 O120 1.256 . S
O119 Cd111 2.381 . S
O119 C118 1.258 . S
O120 Cd111 2.378 . S
O120 C118 1.256 . S
O121 Cd122 2.300 . S
O121 C128 1.275 . S
Cd122 O121 2.300 . S
Cd122 O130 2.381 . S
Cd122 O131 2.378 . S
O123 Cd124 2.385 . S
O123 C128 1.255 . S
Cd124 O123 2.385 . S
Cd124 O125 2.317 . S
O125 Cd124 2.317 . S
O125 C126 1.232 1_455 S
C126 O125 1.232 1_655 S
C126 O127 1.218 . S
O127 C126 1.218 . S
C128 O121 1.275 . S
C128 O123 1.255 . S
C129 O130 1.258 . S
C129 O131 1.256 . S
O130 Cd122 2.381 . S
O130 C129 1.258 . S
O131 Cd122 2.378 . S
O131 C129 1.256 . S
O132 Cd133 2.300 . S
O132 C139 1.275 . S
Cd133 O132 2.300 . S
Cd133 O141 2.381 . S
Cd133 O142 2.378 . S
O134 Cd135 2.385 . S
O134 C139 1.255 . S
Cd135 O134 2.385 . S
Cd135 O136 2.317 . S
O136 Cd135 2.317 . S
O136 C137 1.232 . S
C137 O136 1.232 . S
C137 O138 1.218 . S
O138 C137 1.218 . S
C139 O132 1.275 . S
C139 O134 1.255 . S
C140 O141 1.258 . S
C140 O142 1.256 . S
O141 Cd133 2.381 . S
O141 C140 1.258 . S
O142 Cd133 2.378 . S
O142 C140 1.256 . S
O143 Cd144 2.300 . S
O143 C150 1.275 . S
Cd144 O143 2.300 . S
Cd144 O152 2.381 . S
Cd144 O153 2.378 . S
O145 Cd146 2.385 . S
O145 C150 1.255 . S
Cd146 O145 2.385 . S
Cd146 O147 2.317 . S
O147 Cd146 2.317 . S
O147 C148 1.232 . S
C148 O147 1.232 . S
C148 O149 1.218 . S
O149 C148 1.218 . S
C150 O143 1.275 . S
C150 O145 1.255 . S
C151 O152 1.258 . S
C151 O153 1.256 . S
O152 Cd144 2.381 . S
O152 C151 1.258 . S
O153 Cd144 2.378 . S
O153 C151 1.256 . S
O154 Cd155 2.300 1_455 S
O154 C161 1.275 . S
Cd155 O154 2.300 1_655 S
Cd155 O163 2.381 . S
Cd155 O164 2.378 . S
O156 Cd157 2.385 . S
O156 C161 1.255 . S
Cd157 O156 2.385 . S
Cd157 O158 2.317 . S
O158 Cd157 2.317 . S
O158 C159 1.232 . S
C159 O158 1.232 . S
C159 O160 1.218 . S
O160 C159 1.218 . S
C161 O154 1.275 . S
C161 O156 1.255 . S
C162 O163 1.258 . S
C162 O164 1.256 . S
O163 Cd155 2.381 . S
O163 C162 1.258 . S
O164 Cd155 2.378 . S
O164 C162 1.256 . S
O165 Cd166 2.300 . S
O165 C172 1.275 . S
Cd166 O165 2.300 . S
Cd166 O174 2.381 . S
Cd166 O175 2.378 . S
O167 Cd168 2.385 1_655 S
O167 C172 1.255 . S
Cd168 O167 2.385 1_455 S
Cd168 O169 2.317 1_455 S
O169 Cd168 2.317 1_655 S
O169 C170 1.227 1_655 S
C170 O169 1.227 1_455 S
C170 O171 1.222 . S
O171 C170 1.222 . S
C172 O165 1.275 . S
C172 O167 1.255 . S
C173 O174 1.258 . S
C173 O175 1.256 . S
O174 Cd166 2.381 . S
O174 C173 1.258 . S
O175 Cd166 2.378 . S
O175 C173 1.256 . S
O176 Cd177 2.300 . S
O176 C183 1.275 . S
Cd177 O176 2.300 . S
Cd177 O185 2.381 . S
Cd177 O186 2.378 . S
O178 Cd179 2.385 . S
O178 C183 1.255 . S
Cd179 O178 2.385 . S
Cd179 O180 2.317 . S
O180 Cd179 2.317 . S
O180 C181 1.232 . S
C181 O180 1.232 . S
C181 O182 1.218 . S
O182 C181 1.218 . S
C183 O176 1.275 . S
C183 O178 1.255 . S
C184 O185 1.258 . S
C184 O186 1.256 . S
O185 Cd177 2.381 . S
O185 C184 1.258 . S
O186 Cd177 2.378 . S
O186 C184 1.256 . S
O187 Cd188 2.300 . S
O187 C194 1.275 . S
Cd188 O187 2.300 . S
Cd188 O196 2.381 . S
Cd188 O197 2.378 . S
O189 Cd190 2.385 . S
O189 C194 1.255 . S
Cd190 O189 2.385 . S
Cd190 O191 2.317 . S
O191 Cd190 2.317 . S
O191 C192 1.232 . S
C192 O191 1.232 . S
C192 O193 1.218 . S
O193 C192 1.218 . S
C194 O187 1.275 . S
C194 O189 1.255 . S
C195 O196 1.258 . S
C195 O197 1.256 . S
O196 Cd188 2.381 . S
O196 C195 1.258 . S
O197 Cd188 2.378 . S
O197 C195 1.256 . S
C41 C8 1.610 . S
C19 C52 2.031 . S
C63 C30 1.605 . S
C107 C74 1.678 . S
C118 C85 1.799 . S
C96 C129 2.022 . S
C173 C140 1.646 . S
C184 C151 2.140 . S
C162 C195 1.796 . S
C95 C5 2.014 1_565 S
C71 C18 1.825 . S
C82 C27 1.062 . S
C16 C159 1.423 . S
C137 C29 1.903 . S
C7 C150 1.538 . S
C192 C38 1.440 . S
C172 C49 1.645 . S
C62 C183 1.821 . S
C128 C51 2.057 . S
C104 C60 1.402 . S
C40 C115 1.470 . S
C73 C161 1.458 . S
C139 C84 1.457 . S
C93 C148 1.642 . S
C117 C194 1.766 . S
C126 C170 1.573 1_655 S
C106 C181 1.604 . S
