# Generated by pormake.
# Topology pcu, (6)-cn, num edge types: 1
# Building blocks:
#     Node 0, Type 0, BuildingBlock: MIDCAF_clean_sbu_0, # of connection points: 6
#     Edge 1, Type (0, 0), BuildingBlock: UVAHIK_clean_linker_0, # of connection points: 2
#     Edge 2, Type (0, 0), BuildingBlock: UVAHIK_clean_linker_0, # of connection points: 2
#     Edge 3, Type (0, 0), BuildingBlock: UVAHIK_clean_linker_0, # of connection points: 2
# Relax obj value: 0.148
# Max RMSD: 0.201
# Mean RMSD: 0.201
data_MOF--net-pcu--node1-MIDCAF_clean_sbu_0--edge1-UVAHIK_clean_linker_0
_symmetry_space_group_name_H-M    P1
_symmetry_Int_Tables_number       1
_symmetry_cell_setting            triclinic
loop_
_symmetry_equiv_pos_as_xyz
'x, y, z'
_cell_length_a     19.418276
_cell_length_b     19.134245
_cell_length_c     19.141843
_cell_angle_alpha  104.35481
_cell_angle_beta   105.47394
_cell_angle_gamma 106.27064
loop_
_atom_site_label
_atom_site_type_symbol
_atom_site_fract_x
_atom_site_fract_y
_atom_site_fract_z
_atom_type_partial_charge
Zn0 Zn 0.92186 0.93892 0.95821 0.0
Zn1 Zn 0.15962 0.17084 0.18748 0.0
Zn2 Zn 0.04074 1.05547 0.07224 0.0
C3 C 0.20487 1.04519 0.15545 0.0
C4 C 1.03747 0.14266 0.23908 0.0
O5 O 0.94253 1.02676 0.11134 0.0
O6 O 0.85432 0.91956 1.01843 0.0
C7 C 0.95327 0.06416 0.90704 0.0
O8 O 0.1386 1.01702 0.10045 0.0
O9 O 0.22679 0.11107 0.20658 0.0
O10 O 0.10403 0.19232 0.25833 0.0
O11 O 1.00643 0.08662 0.17331 0.0
O12 O 0.90205 0.99819 0.88841 0.0
O13 O 1.01016 0.09324 0.97217 0.0
O14 O 0.07484 0.95454 1.04103 0.0
O15 O 0.97725 0.86836 0.93646 0.0
C16 C 0.04376 0.88834 0.98544 0.0
O17 O 0.07185 0.15579 1.03407 0.0
O18 O 0.17994 0.24071 0.12796 0.0
C19 C 0.87612 0.97122 0.08385 0.0
C20 C 0.12884 0.22148 1.06249 0.0
C21 C 0.96184 0.07925 0.30806 0.0
C22 C 0.99935 0.14678 0.29601 0.0
C23 C 0.93861 0.0845 0.37161 0.0
C24 C 0.99675 0.22212 0.568 0.0
H25 H 0.83333 1.05718 0.5769 0.0
C26 C 0.87921 0.09496 0.79887 0.0
C27 C 0.95047 0.10294 0.84948 0.0
C28 C 0.87496 0.11872 0.73504 0.0
C29 C 0.87835 0.10489 0.57568 0.0
H30 H 1.03762 0.27226 0.33706 0.0
H31 H 0.99515 0.28164 0.44692 0.0
H32 H 0.83623 0.06173 0.45199 0.0
H33 H 0.07331 0.14411 0.87505 0.0
H34 H 0.06631 0.18461 0.76333 0.0
H35 H 1.039 0.26512 0.69169 0.0
C36 C 0.98517 0.22466 0.40865 0.0
C37 C 0.88057 0.10677 0.50383 0.0
C38 C 1.00906 0.21935 0.34558 0.0
C39 C 1.01782 0.13865 0.8376 0.0
C40 C 1.01362 0.16191 0.77347 0.0
C41 C 0.99409 0.22068 0.63982 0.0
C42 C 0.95242 0.15752 0.4242 0.0
C43 C 0.94141 0.16368 0.49915 0.0
C44 C 0.94185 0.14973 0.71993 0.0
C45 C 0.93655 0.16037 0.64458 0.0
H46 H 0.9548 1.02271 0.27123 0.0
H47 H 0.91447 1.03153 0.38208 0.0
H48 H 0.04485 0.26666 0.56692 0.0
H49 H 0.82645 0.06766 0.80709 0.0
H50 H 0.81896 0.10992 0.69588 0.0
C51 C 0.26826 0.97344 0.08406 0.0
C52 C 0.26074 1.00691 0.15426 0.0
C53 C 0.33251 0.95429 0.08395 0.0
C54 C 0.50405 1.00792 0.11669 0.0
H55 H 0.60291 0.89953 0.23155 0.0
C56 C 0.81315 1.04318 0.15565 0.0
C57 C 0.81988 0.97257 0.12217 0.0
C58 C 0.7486 1.04351 0.17455 0.0
C59 C 0.57583 0.93024 0.19969 0.0
H60 H 0.31083 1.04151 0.27888 0.0
H61 H 0.42319 1.00735 0.27861 0.0
H62 H 0.47401 0.89597 0.22741 0.0
H63 H 0.76803 0.84741 0.08746 0.0
H64 H 0.65513 0.84806 0.12118 0.0
H65 H 0.60533 1.04336 0.08974 0.0
C66 C 0.37935 0.99567 0.22387 0.0
C67 C 0.5024 0.92798 0.1971 0.0
C68 C 0.31539 1.01548 0.22401 0.0
C69 C 0.7641 0.9026 0.11348 0.0
C70 C 0.69981 0.90296 0.13303 0.0
C71 C 0.57754 1.01137 0.12046 0.0
C72 C 0.39007 0.96827 0.15402 0.0
C73 C 0.4658 0.96633 0.15493 0.0
C74 C 0.68993 0.97324 0.16033 0.0
C75 C 0.61413 0.97262 0.16187 0.0
H76 H 0.22761 0.96742 1.02962 0.0
H77 H 0.33951 0.93285 1.02934 0.0
H78 H 0.47758 1.03903 0.08486 0.0
H79 H 0.85468 0.09781 0.16177 0.0
H80 H 0.74227 0.09845 0.19594 0.0
C81 C 0.11903 0.81991 1.04806 0.0
C82 C 0.0819 0.83182 0.98099 0.0
C83 C 0.14248 0.75673 1.04252 0.0
C84 C 0.08559 0.56019 0.90515 0.0
H85 H 0.2486 0.55309 0.06869 0.0
C86 C 0.2031 0.33058 1.03111 0.0
C87 C 0.13178 0.27905 1.02363 0.0
C88 C 0.20742 0.3945 1.00734 0.0
C89 C 0.20371 0.55383 1.02138 0.0
H90 H 0.04443 0.79093 0.85603 0.0
H91 H 0.08726 0.68171 0.84615 0.0
H92 H 0.2454 0.67801 1.06445 0.0
H93 H 1.00891 0.25198 0.98335 0.0
H94 H 1.01602 0.36381 0.9428 0.0
H95 H 0.04374 0.43601 0.86226 0.0
C96 C 0.09681 0.71981 0.90299 0.0
C97 C 0.20131 0.62567 1.01967 0.0
C98 C 0.0727 0.78251 0.90858 0.0
C99 C 0.06445 0.2901 0.98839 0.0
C100 C 0.06872 0.35431 0.96511 0.0
C101 C 0.08842 0.48839 0.90641 0.0
C102 C 0.12927 0.70438 0.96969 0.0
C103 C 0.14058 0.62965 0.96328 0.0
C104 C 0.14053 0.40879 0.97681 0.0
C105 C 0.14581 0.48426 0.96624 0.0
H106 H 0.12564 0.85653 0.10446 0.0
H107 H 0.16637 0.74631 0.09516 0.0
H108 H 1.03759 0.56072 0.86101 0.0
H109 H 0.25585 0.32302 1.05805 0.0
H110 H 0.26346 0.43442 1.01579 0.0
loop_
_geom_bond_atom_site_label_1
_geom_bond_atom_site_label_2
_geom_bond_distance
_geom_bond_site_symmetry_2
_ccdc_geom_bond_type
Zn0 O6 1.920 . S
Zn0 O12 1.898 . S
Zn0 O15 1.905 . S
Zn1 O9 1.905 . S
Zn1 O10 1.898 . S
Zn1 O18 1.920 . S
Zn2 O5 2.075 1_455 S
Zn2 O8 2.120 . S
Zn2 O11 2.119 1_465 S
Zn2 O13 2.120 1_464 S
Zn2 O14 2.116 1_554 S
Zn2 O17 2.079 1_564 S
C3 O8 1.166 1_545 S
C3 O9 1.182 . S
C4 O10 1.175 . S
C4 O11 1.300 1_455 S
O5 Zn2 2.075 1_655 S
O5 C19 1.305 1_554 S
O6 Zn0 1.920 . S
O6 C19 1.234 . S
C7 O12 1.173 . S
C7 O13 1.300 1_565 S
O8 Zn2 2.120 . S
O8 C3 1.166 1_565 S
O9 Zn1 1.905 . S
O9 C3 1.182 . S
O10 Zn1 1.898 . S
O10 C4 1.175 . S
O11 Zn2 2.119 1_645 S
O11 C4 1.300 1_655 S
O12 Zn0 1.898 . S
O12 C7 1.173 . S
O13 Zn2 2.120 1_646 S
O13 C7 1.300 1_545 S
O14 Zn2 2.116 1_556 S
O14 C16 1.166 1_455 S
O15 Zn0 1.905 . S
O15 C16 1.182 . S
C16 O14 1.166 1_655 S
C16 O15 1.182 . S
O17 Zn2 2.079 1_546 S
O17 C20 1.305 1_556 S
O18 Zn1 1.920 . S
O18 C20 1.234 . S
C19 O5 1.305 1_556 S
C19 O6 1.234 . S
C20 O17 1.305 1_554 S
C20 O18 1.234 . S
C21 C22 1.349 . S
C21 C23 1.327 . S
C21 H46 0.950 . S
C22 C21 1.349 . S
C22 C38 1.349 1_465 S
C23 C21 1.327 . S
C23 C42 1.429 . S
C23 H47 0.950 . S
C24 C41 1.574 . S
C24 C43 1.368 1_645 S
C24 H48 0.949 . S
H25 C29 0.949 . S
C26 C27 1.349 1_645 S
C26 C28 1.327 . S
C26 H49 0.950 . S
C27 C26 1.349 1_465 S
C27 C39 1.349 . S
C28 C26 1.327 . S
C28 C44 1.429 1_645 S
C28 H50 0.950 . S
C29 H25 0.949 . S
C29 C37 1.574 . S
C29 C45 1.368 . S
H30 C38 0.950 . S
H31 C36 0.950 . S
H32 C37 0.949 . S
H33 C39 0.950 . S
H34 C40 0.950 . S
H35 C41 0.949 . S
C36 H31 0.950 . S
C36 C38 1.327 . S
C36 C42 1.429 1_645 S
C37 C29 1.574 . S
C37 H32 0.949 . S
C37 C43 1.368 . S
C38 C22 1.349 1_645 S
C38 H30 0.950 . S
C38 C36 1.327 . S
C39 C27 1.349 . S
C39 H33 0.950 . S
C39 C40 1.327 . S
C40 H34 0.950 . S
C40 C39 1.327 . S
C40 C44 1.429 . S
C41 C24 1.574 . S
C41 H35 0.949 . S
C41 C45 1.368 1_645 S
C42 C23 1.429 . S
C42 C36 1.429 1_465 S
C42 C43 1.523 . S
C43 C24 1.368 1_465 S
C43 C37 1.368 . S
C43 C42 1.523 . S
C44 C28 1.429 1_465 S
C44 C40 1.429 . S
C44 C45 1.523 . S
C45 C29 1.368 . S
C45 C41 1.368 1_465 S
C45 C44 1.523 . S
H46 C21 0.950 . S
H47 C23 0.950 . S
H48 C24 0.949 . S
H49 C26 0.950 . S
H50 C28 0.950 . S
C51 C52 1.349 . S
C51 C53 1.327 . S
C51 H76 0.950 . S
C52 C51 1.349 . S
C52 C68 1.349 1_546 S
C53 C51 1.327 . S
C53 C72 1.429 . S
C53 H77 0.950 . S
C54 C71 1.574 . S
C54 C73 1.368 1_564 S
C54 H78 0.949 . S
H55 C59 0.949 . S
C56 C57 1.349 1_564 S
C56 C58 1.327 . S
C56 H79 0.950 . S
C57 C56 1.349 1_546 S
C57 C69 1.349 . S
C58 C56 1.327 . S
C58 C74 1.429 1_564 S
C58 H80 0.950 . S
C59 H55 0.949 . S
C59 C67 1.574 . S
C59 C75 1.368 . S
H60 C68 0.950 . S
H61 C66 0.950 . S
H62 C67 0.949 . S
H63 C69 0.950 . S
H64 C70 0.950 . S
H65 C71 0.949 . S
C66 H61 0.950 . S
C66 C68 1.327 . S
C66 C72 1.429 1_564 S
C67 C59 1.574 . S
C67 H62 0.949 . S
C67 C73 1.368 . S
C68 C52 1.349 1_564 S
C68 H60 0.950 . S
C68 C66 1.327 . S
C69 C57 1.349 . S
C69 H63 0.950 . S
C69 C70 1.327 . S
C70 H64 0.950 . S
C70 C69 1.327 . S
C70 C74 1.429 . S
C71 C54 1.574 . S
C71 H65 0.949 . S
C71 C75 1.368 1_564 S
C72 C53 1.429 . S
C72 C66 1.429 1_546 S
C72 C73 1.523 . S
C73 C54 1.368 1_546 S
C73 C67 1.368 . S
C73 C72 1.523 . S
C74 C58 1.429 1_546 S
C74 C70 1.429 . S
C74 C75 1.523 . S
C75 C59 1.368 . S
C75 C71 1.368 1_546 S
C75 C74 1.523 . S
H76 C51 0.950 . S
H77 C53 0.950 . S
H78 C54 0.949 . S
H79 C56 0.950 . S
H80 C58 0.950 . S
C81 C82 1.349 . S
C81 C83 1.327 . S
C81 H106 0.950 . S
C82 C81 1.349 . S
C82 C98 1.349 1_654 S
C83 C81 1.327 . S
C83 C102 1.429 . S
C83 H107 0.950 . S
C84 C101 1.574 . S
C84 C103 1.368 1_456 S
C84 H108 0.949 . S
H85 C89 0.949 . S
C86 C87 1.349 1_456 S
C86 C88 1.327 . S
C86 H109 0.950 . S
C87 C86 1.349 1_654 S
C87 C99 1.349 . S
C88 C86 1.327 . S
C88 C104 1.429 1_456 S
C88 H110 0.950 . S
C89 H85 0.949 . S
C89 C97 1.574 . S
C89 C105 1.368 . S
H90 C98 0.950 . S
H91 C96 0.950 . S
H92 C97 0.949 . S
H93 C99 0.950 . S
H94 C100 0.950 . S
H95 C101 0.949 . S
C96 H91 0.950 . S
C96 C98 1.327 . S
C96 C102 1.429 1_456 S
C97 C89 1.574 . S
C97 H92 0.949 . S
C97 C103 1.368 . S
C98 C82 1.349 1_456 S
C98 H90 0.950 . S
C98 C96 1.327 . S
C99 C87 1.349 . S
C99 H93 0.950 . S
C99 C100 1.327 . S
C100 H94 0.950 . S
C100 C99 1.327 . S
C100 C104 1.429 . S
C101 C84 1.574 . S
C101 H95 0.949 . S
C101 C105 1.368 1_456 S
C102 C83 1.429 . S
C102 C96 1.429 1_654 S
C102 C103 1.523 . S
C103 C84 1.368 1_654 S
C103 C97 1.368 . S
C103 C102 1.523 . S
C104 C88 1.429 1_654 S
C104 C100 1.429 . S
C104 C105 1.523 . S
C105 C89 1.368 . S
C105 C101 1.368 1_654 S
C105 C104 1.523 . S
H106 C81 0.950 . S
H107 C83 0.950 . S
H108 C84 0.949 . S
H109 C86 0.950 . S
H110 C88 0.950 . S
C22 C4 1.280 1_565 S
C27 C7 1.282 1_455 S
C52 C3 1.307 1_556 S
C57 C19 1.304 1_545 S
C82 C16 1.307 1_554 S
C87 C20 1.304 1_655 S
