# Generated by pormake.
# Topology unj, (4)-cn, num edge types: 1
# Building blocks:
#     Node 0, Type 0, BuildingBlock: QUQFOY_clean_sbu_1, # of connection points: 4
#     Node 1, Type 0, BuildingBlock: QUQFOY_clean_sbu_1, # of connection points: 4
#     Node 2, Type 0, BuildingBlock: QUQFOY_clean_sbu_1, # of connection points: 4
#     Node 3, Type 0, BuildingBlock: QUQFOY_clean_sbu_1, # of connection points: 4
#     Node 4, Type 0, BuildingBlock: QUQFOY_clean_sbu_1, # of connection points: 4
#     Node 5, Type 0, BuildingBlock: QUQFOY_clean_sbu_1, # of connection points: 4
#     Edge 6, Type (0, 0), None
#     Edge 7, Type (0, 0), None
#     Edge 8, Type (0, 0), None
#     Edge 9, Type (0, 0), None
#     Edge 10, Type (0, 0), None
#     Edge 11, Type (0, 0), None
#     Edge 12, Type (0, 0), None
#     Edge 13, Type (0, 0), None
#     Edge 14, Type (0, 0), None
#     Edge 15, Type (0, 0), None
#     Edge 16, Type (0, 0), None
#     Edge 17, Type (0, 0), None
# Relax obj value: 0.136
# Max RMSD: 0.187
# Mean RMSD: 0.187
data_MOF--net-unj--node1-QUQFOY_clean_sbu_1--edge1-none
_symmetry_space_group_name_H-M    P1
_symmetry_Int_Tables_number       1
_symmetry_cell_setting            triclinic
loop_
_symmetry_equiv_pos_as_xyz
'x, y, z'
_cell_length_a     17.071333
_cell_length_b     17.07107
_cell_length_c     16.003185
_cell_angle_alpha  90.000175
_cell_angle_beta   89.999833
_cell_angle_gamma 120.0015
loop_
_atom_site_label
_atom_site_type_symbol
_atom_site_fract_x
_atom_site_fract_y
_atom_site_fract_z
_atom_type_partial_charge
O0 O 0.43513 0.13613 0.76539 0.0
Cd1 Cd 0.35597 0.13413 0.66797 0.0
Cd2 Cd 0.49011 0.30114 0.64309 0.0
O3 O 0.55403 0.2692 0.73659 0.0
O4 O 0.26186 0.0055 0.65241 0.0
O5 O 0.36576 0.08314 0.55661 0.0
C6 C 0.29713 0.00795 0.58071 0.0
C7 C 0.57138 0.36786 0.52191 0.0
C8 C 0.51564 0.19778 0.78076 0.0
C9 C 0.31203 0.2788 0.70059 0.0
O10 O 0.39349 0.33403 0.68073 0.0
O11 O 0.28144 0.19427 0.69679 0.0
O12 O 0.58374 0.41415 0.5891 0.0
O13 O 0.51244 0.28259 0.52281 0.0
O14 O 0.2703 0.4495 0.93206 0.0
Cd15 Cd 0.19315 0.37034 0.83463 0.0
Cd16 Cd 0.16029 0.5045 0.80976 0.0
O17 O 0.25615 0.56842 0.90326 0.0
O18 O 0.22766 0.27623 0.81909 0.0
O19 O 0.25396 0.38014 0.72328 0.0
C20 C 0.2605 0.3115 0.7474 0.0
C21 C 0.17483 0.58577 0.68859 0.0
C22 C 0.28916 0.53001 0.94743 0.0
C23 C 0.00454 0.32641 0.86725 0.0
O24 O 0.03078 0.40788 0.8474 0.0
O25 O 0.05847 0.29581 0.86343 0.0
O26 O 0.14091 0.59813 0.75577 0.0
O27 O 0.20116 0.52683 0.68947 0.0
O28 O 0.59422 0.04514 1.01406 0.0
Cd29 Cd 0.62711 0.17465 0.97642 0.0
Cd30 Cd 0.79412 0.20752 1.0013 0.0
O31 O 0.73398 0.07284 1.0301 0.0
O32 O 0.5141 0.15526 0.92243 0.0
O33 O 0.64565 0.21552 0.85613 0.0
C34 C 0.56038 0.18919 0.85525 0.0
C35 C 0.92031 0.27487 0.91406 0.0
C36 C 0.64945 0.0189 1.03391 0.0
C37 C 0.73046 0.30352 0.11409 0.0
O38 O 0.79211 0.28467 0.09873 0.0
O39 O 0.65905 0.27051 0.06992 0.0
O40 O 0.92274 0.24203 0.98575 0.0
O41 O 0.84513 0.26833 0.88994 0.0
O42 O 0.47877 0.80649 0.2654 0.0
Cd43 Cd 0.55792 0.80848 0.16797 0.0
Cd44 Cd 0.42377 0.64148 0.1431 0.0
O45 O 0.35985 0.67342 0.2366 0.0
O46 O 0.65203 0.93711 0.15242 0.0
O47 O 0.54812 0.85949 1.05661 0.0
C48 C 0.61675 0.93467 0.08073 0.0
C49 C 0.3425 0.57475 1.02192 0.0
C50 C 0.39826 0.74484 0.28077 0.0
C51 C 0.60185 0.66381 0.20058 0.0
O52 O 0.52038 0.60858 0.18074 0.0
O53 O 0.63245 0.74834 0.19677 0.0
O54 O 0.33013 0.52846 0.0891 0.0
O55 O 0.40144 0.66002 1.02281 0.0
O56 O 0.64358 0.49311 0.43206 0.0
Cd57 Cd 0.72073 0.57227 0.33464 0.0
Cd58 Cd 0.75359 0.43812 0.30976 0.0
O59 O 0.65773 0.3742 0.40326 0.0
O60 O 0.68622 0.66639 0.31909 0.0
O61 O 0.65993 0.56248 0.22328 0.0
C62 C 0.65338 0.63111 0.2474 0.0
C63 C 0.73905 0.35686 0.18858 0.0
C64 C 0.62471 0.4126 0.44742 0.0
C65 C 0.90934 0.61621 0.36725 0.0
O66 O 0.8831 0.53475 0.3474 0.0
O67 O 0.85541 0.64681 0.36344 0.0
O68 O 0.77298 0.3445 0.25577 0.0
O69 O 0.71272 0.4158 0.18947 0.0
O70 O 0.31968 0.8975 0.51406 0.0
Cd71 Cd 0.28679 0.76798 0.47643 0.0
Cd72 Cd 0.11976 0.73511 0.5013 0.0
O73 O 0.1799 0.86979 0.53009 0.0
O74 O 0.3998 0.78737 0.42244 0.0
O75 O 0.26824 0.7271 0.35614 0.0
C76 C 0.35352 0.75343 0.35525 0.0
C77 C -0.00643 0.66775 0.41407 0.0
C78 C 0.26444 0.92373 0.53388 0.0
C79 C 0.18343 0.63911 0.61409 0.0
O80 O 0.12178 0.65796 0.59873 0.0
O81 O 0.25484 0.67213 0.56993 0.0
O82 O -0.00886 0.70059 0.48576 0.0
O83 O 0.06875 0.6743 0.38995 0.0
loop_
_geom_bond_atom_site_label_1
_geom_bond_atom_site_label_2
_geom_bond_distance
_geom_bond_site_symmetry_2
_ccdc_geom_bond_type
O0 Cd1 2.223 . S
O0 C8 1.315 . S
Cd1 O0 2.223 . S
Cd1 O4 2.297 1_545 S
Cd1 O5 2.439 . S
Cd1 O11 2.240 . S
Cd2 O3 2.240 . S
Cd2 O10 2.223 . S
Cd2 O12 2.297 . S
Cd2 O13 2.439 . S
O3 Cd2 2.240 . S
O3 C8 1.279 . S
O4 Cd1 2.297 1_565 S
O4 C6 1.247 . S
O5 Cd1 2.439 . S
O5 C6 1.208 1_545 S
C6 O4 1.247 . S
C6 O5 1.208 1_565 S
C7 O12 1.247 . S
C7 O13 1.208 . S
C8 O0 1.315 . S
C8 O3 1.279 . S
C9 O10 1.315 . S
C9 O11 1.279 . S
O10 Cd2 2.223 . S
O10 C9 1.315 . S
O11 Cd1 2.240 . S
O11 C9 1.279 . S
O12 Cd2 2.297 . S
O12 C7 1.247 . S
O13 Cd2 2.439 . S
O13 C7 1.208 . S
O14 Cd15 2.223 . S
O14 C22 1.315 . S
Cd15 O14 2.223 . S
Cd15 O18 2.297 . S
Cd15 O19 2.439 . S
Cd15 O25 2.240 . S
Cd16 O17 2.240 . S
Cd16 O24 2.223 . S
Cd16 O26 2.297 . S
Cd16 O27 2.439 . S
O17 Cd16 2.240 . S
O17 C22 1.279 . S
O18 Cd15 2.297 . S
O18 C20 1.247 . S
O19 Cd15 2.439 . S
O19 C20 1.208 . S
C20 O18 1.247 . S
C20 O19 1.208 . S
C21 O26 1.247 . S
C21 O27 1.208 . S
C22 O14 1.315 . S
C22 O17 1.279 . S
C23 O24 1.315 . S
C23 O25 1.279 . S
O24 Cd16 2.223 . S
O24 C23 1.315 . S
O25 Cd15 2.240 . S
O25 C23 1.279 . S
O26 Cd16 2.297 . S
O26 C21 1.247 . S
O27 Cd16 2.439 . S
O27 C21 1.208 . S
O28 Cd29 2.223 . S
O28 C36 1.315 . S
Cd29 O28 2.223 . S
Cd29 O32 2.297 . S
Cd29 O33 2.439 . S
Cd29 O39 2.240 . S
Cd30 O31 2.240 . S
Cd30 O38 2.223 1_556 S
Cd30 O40 2.297 1_655 S
Cd30 O41 2.439 . S
O31 Cd30 2.240 . S
O31 C36 1.279 . S
O32 Cd29 2.297 . S
O32 C34 1.247 . S
O33 Cd29 2.439 . S
O33 C34 1.208 . S
C34 O32 1.247 . S
C34 O33 1.208 . S
C35 O40 1.247 . S
C35 O41 1.208 1_455 S
C36 O28 1.315 . S
C36 O31 1.279 . S
C37 O38 1.315 . S
C37 O39 1.279 1_554 S
O38 Cd30 2.223 1_554 S
O38 C37 1.315 . S
O39 Cd29 2.240 . S
O39 C37 1.279 1_556 S
O40 Cd30 2.297 1_455 S
O40 C35 1.247 . S
O41 Cd30 2.439 . S
O41 C35 1.208 1_655 S
O42 Cd43 2.223 . S
O42 C50 1.315 . S
Cd43 O42 2.223 . S
Cd43 O46 2.297 1_565 S
Cd43 O47 2.439 . S
Cd43 O53 2.240 . S
Cd44 O45 2.240 . S
Cd44 O52 2.223 . S
Cd44 O54 2.297 1_554 S
Cd44 O55 2.439 1_554 S
O45 Cd44 2.240 . S
O45 C50 1.279 . S
O46 Cd43 2.297 1_545 S
O46 C48 1.247 . S
O47 Cd43 2.439 . S
O47 C48 1.208 1_565 S
C48 O46 1.247 . S
C48 O47 1.208 1_545 S
C49 O54 1.247 . S
C49 O55 1.208 . S
C50 O42 1.315 . S
C50 O45 1.279 . S
C51 O52 1.315 . S
C51 O53 1.279 . S
O52 Cd44 2.223 . S
O52 C51 1.315 . S
O53 Cd43 2.240 . S
O53 C51 1.279 . S
O54 Cd44 2.297 1_556 S
O54 C49 1.247 . S
O55 Cd44 2.439 1_556 S
O55 C49 1.208 . S
O56 Cd57 2.223 . S
O56 C64 1.315 . S
Cd57 O56 2.223 . S
Cd57 O60 2.297 . S
Cd57 O61 2.439 . S
Cd57 O67 2.240 . S
Cd58 O59 2.240 . S
Cd58 O66 2.223 . S
Cd58 O68 2.297 . S
Cd58 O69 2.439 . S
O59 Cd58 2.240 . S
O59 C64 1.279 . S
O60 Cd57 2.297 . S
O60 C62 1.247 . S
O61 Cd57 2.439 . S
O61 C62 1.208 . S
C62 O60 1.247 . S
C62 O61 1.208 . S
C63 O68 1.247 . S
C63 O69 1.208 . S
C64 O56 1.315 . S
C64 O59 1.279 . S
C65 O66 1.315 . S
C65 O67 1.279 . S
O66 Cd58 2.223 . S
O66 C65 1.315 . S
O67 Cd57 2.240 . S
O67 C65 1.279 . S
O68 Cd58 2.297 . S
O68 C63 1.247 . S
O69 Cd58 2.439 . S
O69 C63 1.208 . S
O70 Cd71 2.223 . S
O70 C78 1.315 . S
Cd71 O70 2.223 . S
Cd71 O74 2.297 . S
Cd71 O75 2.439 . S
Cd71 O81 2.240 . S
Cd72 O73 2.240 . S
Cd72 O80 2.223 . S
Cd72 O82 2.297 1_455 S
Cd72 O83 2.439 . S
O73 Cd72 2.240 . S
O73 C78 1.279 . S
O74 Cd71 2.297 . S
O74 C76 1.247 . S
O75 Cd71 2.439 . S
O75 C76 1.208 . S
C76 O74 1.247 . S
C76 O75 1.208 . S
C77 O82 1.247 . S
C77 O83 1.208 1_655 S
C78 O70 1.315 . S
C78 O73 1.279 . S
C79 O80 1.315 . S
C79 O81 1.279 . S
O80 Cd72 2.223 . S
O80 C79 1.315 . S
O81 Cd71 2.240 . S
O81 C79 1.279 . S
O82 Cd72 2.297 1_655 S
O82 C77 1.247 . S
O83 Cd72 2.439 . S
O83 C77 1.208 1_455 S
C6 C78 1.880 . S
C9 C20 1.880 . S
C35 C23 1.880 . S
C48 C36 1.880 1_554 S
C62 C51 1.880 . S
C77 C65 1.880 . S
C7 C64 1.466 . S
C79 C21 1.465 . S
C34 C8 1.465 . S
C22 C49 1.466 . S
C37 C63 1.465 . S
C76 C50 1.465 . S
