# Generated by pormake.
# Topology kag, (6)-cn, num edge types: 1
# Building blocks:
#     Node 0, Type 0, BuildingBlock: BETGAK_clean_sbu_0, # of connection points: 6
#     Node 1, Type 0, BuildingBlock: BETGAK_clean_sbu_0, # of connection points: 6
#     Node 2, Type 0, BuildingBlock: BETGAK_clean_sbu_0, # of connection points: 6
#     Edge 3, Type (0, 0), BuildingBlock: OJICUG_clean_linker_0, # of connection points: 2
#     Edge 4, Type (0, 0), BuildingBlock: OJICUG_clean_linker_0, # of connection points: 2
#     Edge 5, Type (0, 0), BuildingBlock: OJICUG_clean_linker_0, # of connection points: 2
#     Edge 6, Type (0, 0), BuildingBlock: OJICUG_clean_linker_0, # of connection points: 2
#     Edge 7, Type (0, 0), BuildingBlock: OJICUG_clean_linker_0, # of connection points: 2
#     Edge 8, Type (0, 0), BuildingBlock: OJICUG_clean_linker_0, # of connection points: 2
#     Edge 9, Type (0, 0), BuildingBlock: OJICUG_clean_linker_0, # of connection points: 2
#     Edge 10, Type (0, 0), BuildingBlock: OJICUG_clean_linker_0, # of connection points: 2
#     Edge 11, Type (0, 0), BuildingBlock: OJICUG_clean_linker_0, # of connection points: 2
# Relax obj value: 0.124
# Max RMSD: 0.237
# Mean RMSD: 0.125
data_MOF--net-kag--node1-BETGAK_clean_sbu_0--edge1-OJICUG_clean_linker_0
_symmetry_space_group_name_H-M    P1
_symmetry_Int_Tables_number       1
_symmetry_cell_setting            triclinic
loop_
_symmetry_equiv_pos_as_xyz
'x, y, z'
_cell_length_a     22.741834
_cell_length_b     33.702898
_cell_length_c     10.356156
_cell_angle_alpha  95.641218
_cell_angle_beta   91.232525
_cell_angle_gamma 90.043241
loop_
_atom_site_label
_atom_site_type_symbol
_atom_site_fract_x
_atom_site_fract_y
_atom_site_fract_z
_atom_type_partial_charge
La0 La 0.0978 0.48569 0.03045 0.0
La1 La 1.0923 0.57314 1.02438 0.0
C2 C 1.08683 0.41447 0.08339 0.0
C3 C 1.04554 0.38036 0.05828 0.0
C4 C 1.05713 0.34988 0.95949 0.0
C5 C 1.02166 0.31582 0.94175 0.0
C6 C 0.97398 0.31117 1.02314 0.0
C7 C 0.96174 0.34193 0.12074 0.0
C8 C 0.99715 0.37614 0.13823 0.0
C9 C 0.10171 0.50951 0.7941 0.0
C10 C 0.97264 0.52833 1.01843 0.0
C11 C 0.10318 0.64443 0.97212 0.0
C12 C 0.14456 0.67851 0.99688 0.0
C13 C 0.13291 0.70912 0.09514 0.0
C14 C 0.16844 0.74316 0.11256 0.0
C15 C 0.21623 0.74764 0.03132 0.0
C16 C 0.22852 0.71674 0.93425 0.0
C17 C 0.19306 0.68255 0.91711 0.0
C18 C 1.08824 0.54909 0.26059 0.0
C19 C 0.21746 0.5305 0.03611 0.0
O20 O 0.11552 0.42497 0.98408 0.0
O21 O 1.06976 0.44545 0.15961 0.0
O22 O 0.12843 0.47852 0.8303 0.0
O23 O 1.07038 0.52412 0.88572 0.0
O24 O 1.00277 0.49702 0.05052 0.0
O25 O 0.99988 0.55993 0.98201 0.0
O26 O 1.07486 0.63385 0.07183 0.0
O27 O 0.11994 0.61351 0.89527 0.0
O28 O 1.06136 0.58003 0.22445 0.0
O29 O 0.11974 0.53474 0.16895 0.0
O30 O 0.18731 0.56181 1.004 0.0
O31 O 0.19023 0.49892 0.07265 0.0
H32 H 0.09459 0.35187 0.89755 0.0
H33 H 1.03291 0.29248 0.867 0.0
H34 H 0.92503 0.33942 0.18437 0.0
H35 H 0.98722 0.39887 0.21596 0.0
H36 H 0.09536 0.70726 0.15691 0.0
H37 H 0.15714 0.76662 0.18689 0.0
H38 H 0.26532 0.71912 0.87077 0.0
H39 H 0.20305 0.6597 0.83979 0.0
La40 La 0.65974 1.02874 1.01419 0.0
La41 La 0.5304 0.03007 0.03801 0.0
C42 C 0.76265 0.0455 0.95179 0.0
C43 C 0.7948 0.08383 0.95294 0.0
C44 C 0.8418 0.09236 0.04147 0.0
C45 C 0.86969 0.12957 0.05124 0.0
C46 C 0.85143 0.15907 0.97209 0.0
C47 C 0.80535 0.15017 0.88113 0.0
C48 C 0.77733 0.11298 0.8716 0.0
C49 C 0.62295 1.02392 0.25236 0.0
C50 C 0.58999 0.11228 0.05086 0.0
C51 C 0.42738 1.01334 0.09967 0.0
C52 C 0.39528 0.975 0.09896 0.0
C53 C 0.34835 0.96633 1.01036 0.0
C54 C 0.32052 0.92911 1.00098 0.0
C55 C 0.33877 0.89973 0.08062 0.0
C56 C 0.38479 0.90877 0.17164 0.0
C57 C 0.41275 0.94598 0.18076 0.0
C58 C 0.56752 0.03497 0.79994 0.0
C59 C 0.60015 0.94655 1.00181 0.0
O60 O 0.74948 0.03467 0.06553 0.0
O61 O 0.71883 0.0393 0.8681 0.0
O62 O 0.66852 1.00544 0.20351 0.0
O63 O 0.60151 0.04565 0.17063 0.0
O64 O 0.63708 0.09209 1.00969 0.0
O65 O 0.54242 0.09377 0.08525 0.0
O66 O 0.44078 1.02394 0.98579 0.0
O67 O 0.471 1.01974 0.18375 0.0
O68 O 0.52199 0.05353 0.84871 0.0
O69 O 0.58858 1.01314 0.88173 0.0
O70 O 0.55312 0.96676 0.04319 0.0
O71 O 0.64767 0.96504 0.96706 0.0
H72 H 0.85642 0.07041 0.10477 0.0
H73 H 0.90574 0.1352 0.1207 0.0
H74 H 0.78988 0.17232 0.81948 0.0
H75 H 0.74111 0.10752 0.80249 0.0
H76 H 0.33375 0.98818 0.94668 0.0
H77 H 0.28452 0.92337 0.93145 0.0
H78 H 0.40025 0.88672 0.23366 0.0
H79 H 0.44892 0.95155 0.24993 0.0
La80 La 0.59759 0.57378 0.03324 0.0
La81 La 0.59251 0.4851 1.02073 0.0
C82 C 0.59253 0.64698 1.0078 0.0
C83 C 0.5889 0.69035 0.99655 0.0
C84 C 0.56861 0.7161 0.10096 0.0
C85 C 0.56943 0.75736 0.09608 0.0
C86 C 0.59081 0.77398 0.98685 0.0
C87 C 0.61055 0.74819 0.88157 0.0
C88 C 0.60939 0.70675 0.8862 0.0
C89 C 0.61004 0.54441 0.25957 0.0
C90 C 0.47294 0.52974 1.02426 0.0
C91 C 0.59754 0.41187 0.0457 0.0
C92 C 0.60115 0.36849 0.0568 0.0
C93 C 0.6216 0.34278 0.95247 0.0
C94 C 0.62079 0.30151 0.95724 0.0
C95 C 0.59926 0.28486 0.06627 0.0
C96 C 0.57936 0.31061 0.17145 0.0
C97 C 0.5805 0.35206 0.16694 0.0
C98 C 0.57996 0.51468 0.79456 0.0
C99 C 0.71716 0.52914 0.03003 0.0
O100 O 0.58246 0.63198 0.11691 0.0
O101 O 0.60356 0.62037 0.91043 0.0
O102 O 0.63833 0.57505 0.22665 0.0
O103 O 0.57525 0.53202 0.16818 0.0
O104 O 0.50282 0.5617 0.99769 0.0
O105 O 0.50011 0.49694 0.05232 0.0
O106 O 0.60773 0.42694 0.93676 0.0
O107 O 0.5864 0.43843 0.14315 0.0
O108 O 0.55161 0.48405 0.82735 0.0
O109 O 0.61486 0.52683 0.88596 0.0
O110 O 0.68725 0.49719 0.05661 0.0
O111 O 0.69 0.56193 1.00183 0.0
H112 H 0.55292 0.70442 0.18777 0.0
H113 H 0.55459 0.77632 0.17951 0.0
H114 H 0.62676 0.76005 0.79556 0.0
H115 H 0.62563 0.68762 0.80458 0.0
H116 H 0.6374 0.35449 0.86582 0.0
H117 H 0.63575 0.28257 0.87388 0.0
H118 H 0.56303 0.29872 0.25731 0.0
H119 H 0.56414 0.37116 0.2485 0.0
C120 C 1.06192 0.55087 0.62262 0.0
C121 C 0.09844 0.51995 0.65797 0.0
H122 H 1.02991 0.58407 0.46928 0.0
C123 C 0.13151 0.4985 0.56123 0.0
H124 H 1.03586 0.5679 0.69473 0.0
C125 C 0.12809 0.5077 0.43201 0.0
C126 C 1.09156 0.53861 0.39668 0.0
H127 H 0.16009 0.47449 0.58538 0.0
H128 H 0.15415 0.49067 0.35988 0.0
C129 C 1.05848 0.56006 0.49341 0.0
C130 C 0.63898 1.00341 0.47715 0.0
C131 C 0.60812 1.02646 0.39205 0.0
H132 H 0.65063 0.98806 0.6726 0.0
C133 C 0.56423 0.05251 0.44257 0.0
H134 H 0.67311 0.98308 0.44125 0.0
C135 C 0.55155 0.05545 0.57517 0.0
C136 C 0.5824 0.0324 0.66028 0.0
H137 H 0.53987 0.07078 0.37975 0.0
H138 H 0.51742 0.07578 0.61105 0.0
C139 C 0.62627 1.00634 0.60977 0.0
C140 C 0.6292 0.55044 0.62532 0.0
C141 C 0.58663 0.52317 0.65824 0.0
H142 H 0.67051 0.57807 0.47283 0.0
C143 C 0.55252 0.50239 0.5588 0.0
H144 H 0.6564 0.56667 0.69986 0.0
C145 C 0.56087 0.50868 0.42886 0.0
C146 C 0.60342 0.53595 0.39592 0.0
H147 H 0.51953 0.48106 0.58132 0.0
H148 H 0.53366 0.49244 0.35434 0.0
C149 C 0.63754 0.55674 0.49537 0.0
C150 C 0.31496 0.49752 0.06505 0.0
C151 C 0.28284 0.53108 0.03452 0.0
H152 H 0.39925 0.47073 0.08529 0.0
C153 C 0.31386 0.56453 1.00012 0.0
H154 H 0.29274 0.47117 0.09163 0.0
C155 C 0.37555 0.5643 0.99638 0.0
C156 C 0.40754 0.53057 1.02658 0.0
H157 H 0.29055 0.5909 0.97576 0.0
H158 H 0.39808 0.59051 0.96966 0.0
C159 C 0.37633 0.49725 0.06104 0.0
C160 C 0.89446 0.21781 0.87438 0.0
C161 C 0.88032 0.19896 0.98497 0.0
H162 H 0.93446 0.26813 0.79958 0.0
C163 C 0.89477 0.21825 0.10821 0.0
H164 H 0.88419 0.2037 0.77802 0.0
C165 C 0.92377 0.25508 0.12055 0.0
C166 C 0.93924 0.27347 1.00993 0.0
H167 H 0.88373 0.20483 0.19541 0.0
H168 H 0.9355 0.26861 0.21686 0.0
C169 C 0.92372 0.25457 0.88671 0.0
C170 C 0.54813 0.88311 0.03642 0.0
C171 C 0.598 0.90232 0.99361 0.0
H172 H 0.5064 0.82796 0.06602 0.0
C173 C 0.64503 0.87882 0.94418 0.0
H174 H 0.51091 0.90009 0.07436 0.0
C175 C 0.64238 0.83711 0.93935 0.0
C176 C 0.59281 0.81807 0.98456 0.0
H177 H 0.68404 0.89261 0.91007 0.0
H178 H 0.67971 0.81982 0.9031 0.0
C179 C 0.54559 0.84163 0.03212 0.0
C180 C 0.87516 0.56133 0.9894 0.0
C181 C 0.90726 0.52776 1.01994 0.0
H182 H 0.79088 0.58814 0.9691 0.0
C183 C 0.87621 0.49432 0.05431 0.0
H184 H 0.8974 0.58768 0.96284 0.0
C185 C 0.81452 0.49457 0.05802 0.0
C186 C 0.78256 0.5283 0.0278 0.0
H187 H 0.8995 0.46795 0.07869 0.0
H188 H 0.79197 0.46836 0.08471 0.0
C189 C 0.81378 0.56161 0.99337 0.0
C190 C 0.26644 0.80438 0.16716 0.0
C191 C 0.25101 0.78533 0.04411 0.0
H192 H 0.30588 0.85539 0.27529 0.0
C193 C 0.26659 0.80355 0.93323 0.0
H194 H 0.2556 0.79096 0.25449 0.0
C195 C 0.29559 0.84037 0.94515 0.0
C196 C 0.30993 0.85983 0.06821 0.0
H197 H 0.25494 0.78988 0.83704 0.0
H198 H 0.3067 0.85367 0.85776 0.0
C199 C 0.29569 0.84114 0.17907 0.0
C200 C 0.54764 0.22169 0.11324 0.0
C201 C 0.59728 0.24076 0.06845 0.0
H202 H 0.50595 0.16617 0.14208 0.0
C203 C 0.64459 0.21724 1.02124 0.0
H204 H 0.51024 0.23897 0.14922 0.0
C205 C 0.64207 0.17575 1.01687 0.0
C206 C 0.59213 0.15651 0.05924 0.0
H207 H 0.68382 0.23092 0.98767 0.0
H208 H 0.67937 0.15879 0.97921 0.0
C209 C 0.54501 0.17998 0.10832 0.0
loop_
_geom_bond_atom_site_label_1
_geom_bond_atom_site_label_2
_geom_bond_distance
_geom_bond_site_symmetry_2
_ccdc_geom_bond_type
La0 C2 2.928 . S
La0 O20 2.521 . S
La0 O21 2.628 1_556 S
La0 O22 2.554 . S
La0 O23 2.757 1_655 S
La0 O24 2.470 . S
La0 O29 2.482 1_556 S
La0 O31 2.503 1_655 S
La1 C11 2.928 . S
La1 O23 2.482 1_554 S
La1 O25 2.503 1_455 S
La1 O26 2.521 . S
La1 O27 2.628 1_554 S
La1 O28 2.554 . S
La1 O29 2.757 1_455 S
La1 O30 2.470 . S
C2 La0 2.928 . S
C2 C3 1.503 . S
C2 O20 1.261 . S
C2 O21 1.243 1_556 S
C3 C2 1.503 . S
C3 C4 1.394 . S
C3 C8 1.373 1_556 S
C4 C3 1.394 . S
C4 C5 1.380 . S
C4 H32 0.930 . S
C5 C4 1.380 . S
C5 C6 1.376 . S
C5 H33 0.930 . S
C6 C5 1.376 . S
C6 C7 1.370 1_556 S
C7 C6 1.370 1_554 S
C7 C8 1.396 . S
C7 H34 0.929 . S
C8 C3 1.373 1_554 S
C8 C7 1.396 . S
C8 H35 0.929 . S
C9 O22 1.240 1_455 S
C9 O23 1.289 . S
C10 O24 1.258 . S
C10 O25 1.256 1_556 S
C11 La1 2.928 . S
C11 C12 1.503 . S
C11 O26 1.261 . S
C11 O27 1.243 1_554 S
C12 C11 1.503 . S
C12 C13 1.394 . S
C12 C17 1.373 1_554 S
C13 C12 1.394 . S
C13 C14 1.380 . S
C13 H36 0.930 . S
C14 C13 1.380 . S
C14 C15 1.376 . S
C14 H37 0.930 . S
C15 C14 1.376 . S
C15 C16 1.370 1_554 S
C16 C15 1.370 1_556 S
C16 C17 1.396 . S
C16 H38 0.929 . S
C17 C12 1.373 1_556 S
C17 C16 1.396 . S
C17 H39 0.929 . S
C18 O28 1.244 . S
C18 O29 1.286 1_455 S
C19 O30 1.258 . S
C19 O31 1.256 1_554 S
O20 La0 2.521 . S
O20 C2 1.261 . S
O21 La0 2.628 1_554 S
O21 C2 1.243 1_554 S
O22 La0 2.554 . S
O22 C9 1.240 1_655 S
O23 La0 2.757 1_455 S
O23 La1 2.482 1_556 S
O23 C9 1.289 . S
O24 La0 2.470 . S
O24 C10 1.258 . S
O25 La1 2.503 1_655 S
O25 C10 1.256 1_554 S
O26 La1 2.521 . S
O26 C11 1.261 . S
O27 La1 2.628 1_556 S
O27 C11 1.243 1_556 S
O28 La1 2.554 . S
O28 C18 1.244 . S
O29 La0 2.482 1_554 S
O29 La1 2.757 1_655 S
O29 C18 1.286 1_655 S
O30 La1 2.470 . S
O30 C19 1.258 . S
O31 La0 2.503 1_455 S
O31 C19 1.256 1_556 S
H32 C4 0.930 . S
H33 C5 0.930 . S
H34 C7 0.929 . S
H35 C8 0.929 . S
H36 C13 0.930 . S
H37 C14 0.930 . S
H38 C16 0.929 . S
H39 C17 0.929 . S
La40 C42 2.928 1_554 S
La40 O60 2.521 . S
La40 O61 2.628 1_554 S
La40 O62 2.554 . S
La40 O63 2.757 1_545 S
La40 O64 2.470 . S
La40 O69 2.482 1_554 S
La40 O71 2.503 1_544 S
La41 C51 2.928 1_556 S
La41 O63 2.482 1_556 S
La41 O65 2.503 1_566 S
La41 O66 2.521 . S
La41 O67 2.628 1_556 S
La41 O68 2.554 . S
La41 O69 2.757 1_565 S
La41 O70 2.470 . S
C42 La40 2.928 1_556 S
C42 C43 1.503 . S
C42 O60 1.261 1_556 S
C42 O61 1.243 . S
C43 C42 1.503 . S
C43 C44 1.394 1_556 S
C43 C48 1.373 . S
C44 C43 1.394 1_554 S
C44 C45 1.380 . S
C44 H72 0.930 . S
C45 C44 1.380 . S
C45 C46 1.376 1_554 S
C45 H73 0.930 . S
C46 C45 1.376 1_556 S
C46 C47 1.370 . S
C47 C46 1.370 . S
C47 C48 1.396 . S
C47 H74 0.929 . S
C48 C43 1.373 . S
C48 C47 1.396 . S
C48 H75 0.929 . S
C49 O62 1.240 . S
C49 O63 1.289 1_545 S
C50 O64 1.258 . S
C50 O65 1.256 . S
C51 La41 2.928 1_554 S
C51 C52 1.503 . S
C51 O66 1.261 1_554 S
C51 O67 1.243 . S
C52 C51 1.503 . S
C52 C53 1.394 1_554 S
C52 C57 1.373 . S
C53 C52 1.394 1_556 S
C53 C54 1.380 . S
C53 H76 0.930 . S
C54 C53 1.380 . S
C54 C55 1.376 1_556 S
C54 H77 0.930 . S
C55 C54 1.376 1_554 S
C55 C56 1.370 . S
C56 C55 1.370 . S
C56 C57 1.396 . S
C56 H78 0.929 . S
C57 C52 1.373 . S
C57 C56 1.396 . S
C57 H79 0.929 . S
C58 O68 1.240 . S
C58 O69 1.289 1_565 S
C59 O70 1.258 . S
C59 O71 1.256 . S
O60 La40 2.521 . S
O60 C42 1.261 1_554 S
O61 La40 2.628 1_556 S
O61 C42 1.243 . S
O62 La40 2.554 . S
O62 C49 1.240 . S
O63 La40 2.757 1_565 S
O63 La41 2.482 1_554 S
O63 C49 1.289 1_565 S
O64 La40 2.470 . S
O64 C50 1.258 . S
O65 La41 2.503 1_544 S
O65 C50 1.256 . S
O66 La41 2.521 . S
O66 C51 1.261 1_556 S
O67 La41 2.628 1_554 S
O67 C51 1.243 . S
O68 La41 2.554 . S
O68 C58 1.240 . S
O69 La40 2.482 1_556 S
O69 La41 2.757 1_545 S
O69 C58 1.289 1_545 S
O70 La41 2.470 . S
O70 C59 1.258 . S
O71 La40 2.503 1_566 S
O71 C59 1.256 . S
H72 C44 0.930 . S
H73 C45 0.930 . S
H74 C47 0.929 . S
H75 C48 0.929 . S
H76 C53 0.930 . S
H77 C54 0.930 . S
H78 C56 0.929 . S
H79 C57 0.929 . S
La80 C82 2.928 . S
La80 O100 2.521 . S
La80 O101 2.628 1_554 S
La80 O102 2.554 . S
La80 O103 2.757 . S
La80 O104 2.470 . S
La80 O109 2.482 1_554 S
La80 O111 2.503 . S
La81 C91 2.928 . S
La81 O103 2.482 1_556 S
La81 O105 2.503 . S
La81 O106 2.521 . S
La81 O107 2.628 1_556 S
La81 O108 2.554 . S
La81 O109 2.757 . S
La81 O110 2.470 . S
C82 La80 2.928 . S
C82 C83 1.503 . S
C82 O100 1.261 . S
C82 O101 1.243 1_554 S
C83 C82 1.503 . S
C83 C84 1.394 . S
C83 C88 1.373 1_554 S
C84 C83 1.394 . S
C84 C85 1.380 . S
C84 H112 0.930 . S
C85 C84 1.380 . S
C85 C86 1.376 . S
C85 H113 0.930 . S
C86 C85 1.376 . S
C86 C87 1.370 1_554 S
C87 C86 1.370 1_556 S
C87 C88 1.396 . S
C87 H114 0.929 . S
C88 C83 1.373 1_556 S
C88 C87 1.396 . S
C88 H115 0.929 . S
C89 O102 1.240 . S
C89 O103 1.289 . S
C90 O104 1.258 . S
C90 O105 1.256 1_554 S
C91 La81 2.928 . S
C91 C92 1.503 . S
C91 O106 1.261 . S
C91 O107 1.243 1_556 S
C92 C91 1.503 . S
C92 C93 1.394 . S
C92 C97 1.373 1_556 S
C93 C92 1.394 . S
C93 C94 1.380 . S
C93 H116 0.930 . S
C94 C93 1.380 . S
C94 C95 1.374 1_556 S
C94 H117 0.930 . S
C95 C94 1.374 1_554 S
C95 C96 1.372 . S
C96 C95 1.372 . S
C96 C97 1.396 . S
C96 H118 0.929 . S
C97 C92 1.373 1_554 S
C97 C96 1.396 . S
C97 H119 0.929 . S
C98 O108 1.240 . S
C98 O109 1.289 . S
C99 O110 1.258 . S
C99 O111 1.256 1_556 S
O100 La80 2.521 . S
O100 C82 1.261 . S
O101 La80 2.628 1_556 S
O101 C82 1.243 1_556 S
O102 La80 2.554 . S
O102 C89 1.240 . S
O103 La80 2.757 . S
O103 La81 2.482 1_554 S
O103 C89 1.289 . S
O104 La80 2.470 . S
O104 C90 1.258 . S
O105 La81 2.503 . S
O105 C90 1.256 1_556 S
O106 La81 2.521 . S
O106 C91 1.261 . S
O107 La81 2.628 1_554 S
O107 C91 1.243 1_554 S
O108 La81 2.554 . S
O108 C98 1.240 . S
O109 La80 2.482 1_556 S
O109 La81 2.757 . S
O109 C98 1.289 . S
O110 La81 2.470 . S
O110 C99 1.258 . S
O111 La80 2.503 . S
O111 C99 1.256 1_554 S
H112 C84 0.930 . S
H113 C85 0.930 . S
H114 C87 0.929 . S
H115 C88 0.929 . S
H116 C93 0.930 . S
H117 C94 0.930 . S
H118 C96 0.929 . S
H119 C97 0.929 . S
C120 C121 1.387 . S
C120 H124 0.950 . S
C120 C129 1.390 . S
C121 C120 1.387 . S
C121 C123 1.387 1_455 S
H122 C129 0.950 . S
C123 C121 1.387 1_655 S
C123 C125 1.390 . S
C123 H127 0.950 . S
H124 C120 0.950 . S
C125 C123 1.390 . S
C125 C126 1.386 1_655 S
C125 H128 0.950 . S
C126 C125 1.386 1_455 S
C126 C129 1.390 . S
H127 C123 0.950 . S
H128 C125 0.950 . S
C129 C120 1.390 . S
C129 H122 0.950 . S
C129 C126 1.390 . S
C130 C131 1.380 1_565 S
C130 H134 0.950 . S
C130 C139 1.390 . S
C131 C130 1.380 1_545 S
C131 C133 1.394 . S
H132 C139 0.950 . S
C133 C131 1.394 . S
C133 C135 1.390 . S
C133 H137 0.950 . S
H134 C130 0.950 . S
C135 C133 1.390 . S
C135 C136 1.385 1_545 S
C135 H138 0.950 . S
C136 C135 1.385 1_565 S
C136 C139 1.389 . S
H137 C133 0.950 . S
H138 C135 0.950 . S
C139 C130 1.390 . S
C139 H132 0.950 . S
C139 C136 1.389 . S
C140 C141 1.387 . S
C140 H144 0.950 . S
C140 C149 1.390 . S
C141 C140 1.387 . S
C141 C143 1.387 . S
H142 C149 0.950 . S
C143 C141 1.387 . S
C143 C145 1.390 . S
C143 H147 0.950 . S
H144 C140 0.950 . S
C145 C143 1.390 . S
C145 C146 1.387 . S
C145 H148 0.950 . S
C146 C145 1.387 . S
C146 C149 1.387 . S
H147 C143 0.950 . S
H148 C145 0.950 . S
C149 C140 1.390 . S
C149 H142 0.950 . S
C149 C146 1.387 . S
C150 C151 1.387 1_554 S
C150 H154 0.950 . S
C150 C159 1.390 . S
C151 C150 1.387 1_556 S
C151 C153 1.387 . S
H152 C159 0.950 . S
C153 C151 1.387 . S
C153 C155 1.390 . S
C153 H157 0.950 . S
H154 C150 0.950 . S
C155 C153 1.390 . S
C155 C156 1.387 . S
C155 H158 0.950 . S
C156 C155 1.387 . S
C156 C159 1.387 1_556 S
H157 C153 0.950 . S
H158 C155 0.950 . S
C159 C150 1.390 . S
C159 H152 0.950 . S
C159 C156 1.387 1_554 S
C160 C161 1.387 . S
C160 H164 0.950 . S
C160 C169 1.390 . S
C161 C160 1.387 . S
C161 C163 1.387 1_556 S
H162 C169 0.950 . S
C163 C161 1.387 1_554 S
C163 C165 1.390 . S
C163 H167 0.950 . S
H164 C160 0.950 . S
C165 C163 1.390 . S
C165 C166 1.387 1_554 S
C165 H168 0.950 . S
C166 C165 1.387 1_556 S
C166 C169 1.387 . S
H167 C163 0.950 . S
H168 C165 0.950 . S
C169 C160 1.390 . S
C169 H162 0.950 . S
C169 C166 1.387 . S
C170 C171 1.387 1_554 S
C170 H174 0.950 . S
C170 C179 1.390 . S
C171 C170 1.387 1_556 S
C171 C173 1.387 . S
H172 C179 0.950 . S
C173 C171 1.387 . S
C173 C175 1.390 . S
C173 H177 0.950 . S
H174 C170 0.950 . S
C175 C173 1.390 . S
C175 C176 1.387 . S
C175 H178 0.950 . S
C176 C175 1.387 . S
C176 C179 1.387 1_556 S
H177 C173 0.950 . S
H178 C175 0.950 . S
C179 C170 1.390 . S
C179 H172 0.950 . S
C179 C176 1.387 1_554 S
C180 C181 1.387 1_556 S
C180 H184 0.950 . S
C180 C189 1.390 . S
C181 C180 1.387 1_554 S
C181 C183 1.387 . S
H182 C189 0.950 . S
C183 C181 1.387 . S
C183 C185 1.390 . S
C183 H187 0.950 . S
H184 C180 0.950 . S
C185 C183 1.390 . S
C185 C186 1.387 . S
C185 H188 0.950 . S
C186 C185 1.387 . S
C186 C189 1.387 1_554 S
H187 C183 0.950 . S
H188 C185 0.950 . S
C189 C180 1.390 . S
C189 H182 0.950 . S
C189 C186 1.387 1_556 S
C190 C191 1.387 . S
C190 H194 0.950 . S
C190 C199 1.390 . S
C191 C190 1.387 . S
C191 C193 1.387 1_554 S
H192 C199 0.950 . S
C193 C191 1.387 1_556 S
C193 C195 1.390 . S
C193 H197 0.950 . S
H194 C190 0.950 . S
C195 C193 1.390 . S
C195 C196 1.387 1_556 S
C195 H198 0.950 . S
C196 C195 1.387 1_554 S
C196 C199 1.387 . S
H197 C193 0.950 . S
H198 C195 0.950 . S
C199 C190 1.390 . S
C199 H192 0.950 . S
C199 C196 1.387 . S
C200 C201 1.387 . S
C200 H204 0.950 . S
C200 C209 1.390 . S
C201 C200 1.387 . S
C201 C203 1.387 1_554 S
H202 C209 0.950 . S
C203 C201 1.387 1_556 S
C203 C205 1.390 . S
C203 H207 0.950 . S
H204 C200 0.950 . S
C205 C203 1.390 . S
C205 C206 1.387 1_556 S
C205 H208 0.950 . S
C206 C205 1.387 1_554 S
C206 C209 1.387 . S
H207 C203 0.950 . S
H208 C205 0.950 . S
C209 C200 1.390 . S
C209 H202 0.950 . S
C209 C206 1.387 . S
C121 C9 1.452 . S
C126 C18 1.452 . S
C131 C49 1.449 . S
C136 C58 1.448 . S
C141 C98 1.457 . S
C146 C89 1.457 . S
C151 C19 2.665 1_556 S
C156 C90 2.573 1_556 S
C161 C46 0.952 . S
C166 C6 0.954 . S
C171 C59 2.317 . S
C176 C86 2.215 1_556 S
C181 C10 2.665 1_554 S
C186 C99 2.575 1_554 S
C191 C15 0.952 . S
C196 C55 0.950 . S
C201 C95 2.212 . S
C206 C50 2.315 . S
