# Generated by pormake.
# Topology ukb, (4)-cn, num edge types: 1
# Building blocks:
#     Node 0, Type 0, BuildingBlock: AZAVOO_clean_sbu_0, # of connection points: 4
#     Node 1, Type 0, BuildingBlock: AZAVOO_clean_sbu_0, # of connection points: 4
#     Node 2, Type 0, BuildingBlock: AZAVOO_clean_sbu_0, # of connection points: 4
#     Node 3, Type 0, BuildingBlock: AZAVOO_clean_sbu_0, # of connection points: 4
#     Node 4, Type 0, BuildingBlock: AZAVOO_clean_sbu_0, # of connection points: 4
#     Node 5, Type 0, BuildingBlock: AZAVOO_clean_sbu_0, # of connection points: 4
#     Node 6, Type 0, BuildingBlock: AZAVOO_clean_sbu_0, # of connection points: 4
#     Node 7, Type 0, BuildingBlock: AZAVOO_clean_sbu_0, # of connection points: 4
#     Node 8, Type 0, BuildingBlock: AZAVOO_clean_sbu_0, # of connection points: 4
#     Node 9, Type 0, BuildingBlock: AZAVOO_clean_sbu_0, # of connection points: 4
#     Node 10, Type 0, BuildingBlock: AZAVOO_clean_sbu_0, # of connection points: 4
#     Node 11, Type 0, BuildingBlock: AZAVOO_clean_sbu_0, # of connection points: 4
#     Node 12, Type 0, BuildingBlock: AZAVOO_clean_sbu_0, # of connection points: 4
#     Node 13, Type 0, BuildingBlock: AZAVOO_clean_sbu_0, # of connection points: 4
#     Node 14, Type 0, BuildingBlock: AZAVOO_clean_sbu_0, # of connection points: 4
#     Node 15, Type 0, BuildingBlock: AZAVOO_clean_sbu_0, # of connection points: 4
#     Edge 16, Type (0, 0), None
#     Edge 17, Type (0, 0), None
#     Edge 18, Type (0, 0), None
#     Edge 19, Type (0, 0), None
#     Edge 20, Type (0, 0), None
#     Edge 21, Type (0, 0), None
#     Edge 22, Type (0, 0), None
#     Edge 23, Type (0, 0), None
#     Edge 24, Type (0, 0), None
#     Edge 25, Type (0, 0), None
#     Edge 26, Type (0, 0), None
#     Edge 27, Type (0, 0), None
#     Edge 28, Type (0, 0), None
#     Edge 29, Type (0, 0), None
#     Edge 30, Type (0, 0), None
#     Edge 31, Type (0, 0), None
#     Edge 32, Type (0, 0), None
#     Edge 33, Type (0, 0), None
#     Edge 34, Type (0, 0), None
#     Edge 35, Type (0, 0), None
#     Edge 36, Type (0, 0), None
#     Edge 37, Type (0, 0), None
#     Edge 38, Type (0, 0), None
#     Edge 39, Type (0, 0), None
#     Edge 40, Type (0, 0), None
#     Edge 41, Type (0, 0), None
#     Edge 42, Type (0, 0), None
#     Edge 43, Type (0, 0), None
#     Edge 44, Type (0, 0), None
#     Edge 45, Type (0, 0), None
#     Edge 46, Type (0, 0), None
#     Edge 47, Type (0, 0), None
# Relax obj value: 0.158
# Max RMSD: 0.213
# Mean RMSD: 0.183
data_MOF--net-ukb--node1-AZAVOO_clean_sbu_0--edge1-none
_symmetry_space_group_name_H-M    P1
_symmetry_Int_Tables_number       1
_symmetry_cell_setting            triclinic
loop_
_symmetry_equiv_pos_as_xyz
'x, y, z'
_cell_length_a     18.118943
_cell_length_b     19.88501
_cell_length_c     18.194613
_cell_angle_alpha  90.020175
_cell_angle_beta   89.992342
_cell_angle_gamma 89.978191
loop_
_atom_site_label
_atom_site_type_symbol
_atom_site_fract_x
_atom_site_fract_y
_atom_site_fract_z
_atom_type_partial_charge
Mg0 Mg 0.55041 0.12089 0.18055 0.0
O1 O 0.55735 0.21978 0.24933 0.0
O2 O 0.57433 0.18312 0.36478 0.0
Mg3 Mg 0.57089 0.06916 0.37144 0.0
C4 C 0.56898 0.23055 0.31784 0.0
C5 C 0.48981 0.20637 0.02146 0.0
O6 O 0.48018 0.17208 0.9605 0.0
O7 O 0.43324 0.10157 0.21809 0.0
O8 O 0.44696 0.06833 0.33443 0.0
O9 O 0.66874 0.12606 0.16535 0.0
O10 O 0.61798 0.07347 0.25998 0.0
C11 C 0.40627 0.08064 0.27851 0.0
C12 C 0.67669 0.09672 0.22824 0.0
O13 O 0.51163 0.17659 0.07908 0.0
Mg14 Mg 0.35579 0.53391 0.67406 0.0
O15 O 0.24966 0.59896 0.70956 0.0
O16 O 0.23561 0.57821 0.83068 0.0
Mg17 Mg 0.33436 0.51971 0.87664 0.0
C18 C 0.21425 0.60588 0.77088 0.0
C19 C 0.28791 0.5172 0.50683 0.0
O20 O 0.30024 0.51045 0.43624 0.0
O21 O 0.29839 0.4361 0.69914 0.0
O22 O 0.29125 0.42597 0.81621 0.0
O23 O 0.42488 0.62333 0.67999 0.0
O24 O 0.39386 0.56167 0.77733 0.0
C25 C 0.32512 0.41108 0.75749 0.0
C26 C 0.42604 0.61449 0.75036 0.0
O27 O 0.34239 0.52324 0.54983 0.0
Mg28 Mg 0.95047 0.36466 0.18053 0.0
O29 O 0.94376 0.26537 0.2489 0.0
O30 O 0.92664 0.30232 0.36439 0.0
Mg31 Mg 0.92993 0.41625 0.37164 0.0
C32 C 0.93201 0.2548 0.31749 0.0
C33 C 0.01091 0.27982 1.02022 0.0
O34 O 0.02252 0.31168 0.9581 0.0
O35 O 0.06759 0.3839 0.21821 0.0
O36 O 0.05385 0.41728 0.33453 0.0
O37 O 0.83205 0.35966 0.16518 0.0
O38 O 0.88285 0.41123 0.2604 0.0
C39 C 0.09454 0.40494 0.27861 0.0
C40 C 0.82407 0.38862 0.22829 0.0
O41 O 0.98959 0.31262 0.07619 0.0
Mg42 Mg 0.14498 0.95173 0.67408 0.0
O43 O 0.25114 0.88668 0.70956 0.0
O44 O 0.26515 0.90744 0.8307 0.0
Mg45 Mg 0.1664 0.96596 0.87667 0.0
C46 C 0.28653 0.87976 0.77088 0.0
C47 C 0.21286 0.96844 0.50684 0.0
O48 O 0.20054 0.9752 0.43626 0.0
O49 O 0.20233 0.04958 0.69919 0.0
O50 O 0.20953 0.05966 0.81626 0.0
O51 O 0.07589 0.86229 0.67999 0.0
O52 O 0.10691 0.92398 0.77735 0.0
C53 C 0.17564 0.07459 0.7576 0.0
C54 C 0.07474 0.87115 0.75038 0.0
O55 O 0.15838 0.96239 0.54985 0.0
Mg56 Mg 0.55034 0.36478 0.86107 0.0
O57 O 0.55725 0.26572 0.79254 0.0
O58 O 0.57433 0.30246 0.67711 0.0
Mg59 Mg 0.57092 0.41642 0.67026 0.0
C60 C 0.56895 0.255 0.72402 0.0
C61 C 0.4891 0.2797 1.02023 0.0
O62 O 0.47907 0.31326 0.08159 0.0
O63 O 0.43321 0.38408 0.82357 0.0
O64 O 0.44699 0.41732 0.70726 0.0
O65 O 0.66869 0.35957 0.87645 0.0
O66 O 0.61796 0.41191 0.78163 0.0
C67 C 0.40627 0.40504 0.76315 0.0
C68 C 0.67668 0.38886 0.81353 0.0
O69 O 0.51106 0.3104 0.96321 0.0
Mg70 Mg 0.14499 0.53397 0.36765 0.0
O71 O 0.2511 0.59905 0.33227 0.0
O72 O 0.26554 0.57795 0.21126 0.0
Mg73 Mg 0.16668 0.51974 0.16513 0.0
C74 C 0.28671 0.60579 0.27104 0.0
C75 C 0.2128 0.51714 0.53488 0.0
O76 O 0.20048 0.51033 0.60546 0.0
O77 O 0.20244 0.4362 0.34248 0.0
O78 O 0.20943 0.42574 0.22535 0.0
O79 O 0.0758 0.62336 0.36177 0.0
O80 O 0.10705 0.56175 0.26439 0.0
C81 C 0.1757 0.41104 0.28419 0.0
C82 C 0.07476 0.61455 0.29138 0.0
O83 O 0.15831 0.52317 0.49188 0.0
Mg84 Mg 0.9503 0.12093 0.86137 0.0
O85 O 0.94349 0.22003 0.79277 0.0
O86 O 0.9265 0.18319 0.67728 0.0
Mg87 Mg 0.92992 0.06925 0.67028 0.0
C88 C 0.93185 0.23068 0.72421 0.0
C89 C 0.01002 0.20646 0.0214 0.0
O90 O 0.02062 0.17414 0.08341 0.0
O91 O 0.06756 0.10164 0.82381 0.0
O92 O 0.05377 0.06839 0.70744 0.0
O93 O 0.83194 0.12595 0.87654 0.0
O94 O 0.88285 0.07392 0.7816 0.0
C95 C 0.09449 0.08067 0.76334 0.0
C96 C 0.82405 0.09679 0.81353 0.0
O97 O 0.98877 0.17436 0.96495 0.0
Mg98 Mg 0.35579 0.95172 0.36764 0.0
O99 O 0.24968 0.88662 0.33226 0.0
O100 O 0.23523 0.90768 0.21125 0.0
Mg101 Mg 0.33411 0.96585 0.16512 0.0
C102 C 0.21407 0.87986 0.27104 0.0
C103 C 0.28797 0.96852 0.53488 0.0
O104 O 0.30028 0.97532 0.60546 0.0
O105 O 0.29837 0.04949 0.34244 0.0
O106 O 0.29135 0.0599 0.22532 0.0
O107 O 0.42495 0.86232 0.36176 0.0
O108 O 0.39373 0.92389 0.26438 0.0
C109 C 0.32511 0.0746 0.28414 0.0
C110 C 0.42601 0.87111 0.29137 0.0
O111 O 0.34246 0.96252 0.49187 0.0
Mg112 Mg 0.49282 0.77038 0.87037 0.0
O113 O 0.39785 0.8367 0.82029 0.0
O114 O 0.31515 0.76539 0.77848 0.0
Mg115 Mg 0.31267 0.69321 0.87908 0.0
C116 C 0.34076 0.82479 0.78128 0.0
C117 C 0.57994 0.87866 0.78958 0.0
O118 O 0.57055 0.83527 0.736 0.0
O119 O 0.46053 0.80053 0.98659 0.0
O120 O 0.34952 0.78071 0.94986 0.0
O121 O 0.50239 0.71071 0.76849 0.0
O122 O 0.43225 0.67715 0.86121 0.0
C123 C 0.39801 0.77419 0.99966 0.0
C124 C 0.45762 0.66693 0.7964 0.0
O125 O 0.56189 0.86276 0.85468 0.0
Mg126 Mg 0.61948 0.41605 0.38587 0.0
O127 O 0.73481 0.40537 0.32587 0.0
O128 O 0.69799 0.3841 0.21018 0.0
Mg129 Mg 0.5753 0.38029 0.19204 0.0
C130 C 0.74866 0.39388 0.25766 0.0
C131 C 0.71372 0.47038 0.53714 0.0
O132 O 0.70565 0.48834 0.60605 0.0
O133 O 0.6095 0.51956 0.33482 0.0
O134 O 0.5779 0.49306 0.21928 0.0
O135 O 0.61136 0.30692 0.40967 0.0
O136 O 0.57131 0.35213 0.30684 0.0
C137 C 0.59234 0.53619 0.26931 0.0
C138 C 0.58239 0.29891 0.34541 0.0
O139 O 0.65656 0.45683 0.49935 0.0
Mg140 Mg 0.00795 0.71529 0.87037 0.0
O141 O 0.10291 0.64895 0.82028 0.0
O142 O 0.18561 0.72024 0.77848 0.0
Mg143 Mg 0.1881 0.79244 0.8791 0.0
C144 C 0.16002 0.66085 0.78128 0.0
C145 C 0.92083 0.60699 0.78959 0.0
O146 O 0.93022 0.65036 0.73602 0.0
O147 O 0.04025 0.68513 0.98656 0.0
O148 O 0.15127 0.70493 0.94982 0.0
O149 O 0.99839 0.77492 0.7685 0.0
O150 O 0.06853 0.80851 0.86121 0.0
C151 C 0.10277 0.71145 0.99965 0.0
C152 C 0.04317 0.81871 0.7964 0.0
O153 O 0.93889 0.62291 0.85469 0.0
Mg154 Mg 0.88127 0.06954 0.38589 0.0
O155 O 0.76592 0.08012 0.32587 0.0
O156 O 0.80278 0.10142 0.21021 0.0
Mg157 Mg 0.92546 0.10526 0.19204 0.0
C158 C 0.75209 0.09157 0.25766 0.0
C159 C 0.78703 0.01525 0.53716 0.0
O160 O 0.79509 -0.0027 0.60605 0.0
O161 O 0.89126 0.96605 0.33484 0.0
O162 O 0.92286 0.99253 0.2193 0.0
O163 O 0.88947 0.17873 0.40956 0.0
O164 O 0.92951 0.13326 0.30682 0.0
C165 C 0.90842 0.94942 0.26932 0.0
C166 C 0.91848 0.18656 0.34527 0.0
O167 O 0.84421 0.02881 0.49938 0.0
Mg168 Mg 0.49286 0.71521 0.17142 0.0
O169 O 0.39798 0.64891 0.2216 0.0
O170 O 0.31513 0.72018 0.26333 0.0
Mg171 Mg 0.31264 0.7924 0.16275 0.0
C172 C 0.34085 0.6608 0.26059 0.0
C173 C 0.57999 0.60697 0.25224 0.0
O174 O 0.57055 0.65037 0.30582 0.0
O175 O 0.46055 0.68501 0.05525 0.0
O176 O 0.34943 0.70487 0.09193 0.0
O177 O 0.50244 0.7749 0.27326 0.0
O178 O 0.43222 0.80841 0.18056 0.0
C179 C 0.398 0.71133 0.04217 0.0
C180 C 0.45761 0.81866 0.24535 0.0
O181 O 0.56198 0.62286 0.18713 0.0
Mg182 Mg 0.88128 0.41607 0.65596 0.0
O183 O 0.76594 0.40552 0.71596 0.0
O184 O 0.80275 0.38422 0.83164 0.0
Mg185 Mg 0.92543 0.38035 0.84982 0.0
C186 C 0.75209 0.39406 0.78417 0.0
C187 C 0.78704 0.47039 0.50469 0.0
O188 O 0.7951 0.48834 0.43579 0.0
O189 O 0.89126 0.51958 0.70701 0.0
O190 O 0.92285 0.4931 0.82256 0.0
O191 O 0.88944 0.3069 0.63223 0.0
O192 O 0.92947 0.35224 0.73502 0.0
C193 C 0.90841 0.53621 0.77253 0.0
C194 C 0.91841 0.29897 0.69652 0.0
O195 O 0.84422 0.45684 0.54247 0.0
Mg196 Mg 0.00793 0.7704 0.17143 0.0
O197 O 0.1028 0.83674 0.22161 0.0
O198 O 0.18563 0.76548 0.26333 0.0
Mg199 Mg 0.18815 0.69325 0.16272 0.0
C200 C 0.15993 0.82486 0.2606 0.0
C201 C 0.92079 0.87865 0.25223 0.0
O202 O 0.93023 0.83528 0.30579 0.0
O203 O 0.04024 0.80063 0.05528 0.0
O204 O 0.15134 0.78077 0.09195 0.0
O205 O 0.99833 0.71075 0.27327 0.0
O206 O 0.06857 0.6772 0.18057 0.0
C207 C 0.10278 0.77431 0.04219 0.0
C208 C 0.04317 0.66698 0.24536 0.0
O209 O 0.9388 0.86274 0.18711 0.0
Mg210 Mg 0.61949 0.06955 0.65596 0.0
O211 O 0.73485 0.08014 0.7159 0.0
O212 O 0.69799 0.10142 0.83159 0.0
Mg213 Mg 0.57532 0.10535 0.84979 0.0
C214 C 0.74867 0.09158 0.78412 0.0
C215 C 0.71373 0.01523 0.50469 0.0
O216 O 0.7057 -0.00271 0.43578 0.0
O217 O 0.60951 0.96605 0.70701 0.0
O218 O 0.5779 0.99257 0.82257 0.0
O219 O 0.61137 0.17868 0.63214 0.0
O220 O 0.57132 0.13346 0.73498 0.0
C221 C 0.59236 0.94944 0.77252 0.0
C222 C 0.58239 0.18667 0.69641 0.0
O223 O 0.65653 0.02877 0.54247 0.0
loop_
_geom_bond_atom_site_label_1
_geom_bond_atom_site_label_2
_geom_bond_distance
_geom_bond_site_symmetry_2
_ccdc_geom_bond_type
Mg0 O1 2.028 . S
Mg0 O7 1.986 . S
Mg0 O9 2.114 . S
Mg0 O10 2.251 . S
Mg0 O13 2.010 . S
O1 Mg0 2.028 . S
O1 C4 1.250 . S
O2 Mg3 2.028 . S
O2 C4 1.248 . S
Mg3 O2 2.028 . S
Mg3 O8 2.032 . S
Mg3 O10 2.079 . S
C4 O1 1.250 . S
C4 O2 1.248 . S
C5 O6 1.265 . S
C5 O13 1.248 1_556 S
O6 C5 1.265 . S
O7 Mg0 1.986 . S
O7 C11 1.246 . S
O8 Mg3 2.032 . S
O8 C11 1.259 . S
O9 Mg0 2.114 . S
O9 C12 1.252 . S
O10 Mg0 2.251 . S
O10 Mg3 2.079 . S
O10 C12 1.273 . S
C11 O7 1.246 . S
C11 O8 1.259 . S
C12 O9 1.252 . S
C12 O10 1.273 . S
O13 Mg0 2.010 . S
O13 C5 1.248 1_554 S
Mg14 O15 2.028 . S
Mg14 O21 1.986 . S
Mg14 O23 2.114 . S
Mg14 O24 2.251 . S
Mg14 O27 2.010 . S
O15 Mg14 2.028 . S
O15 C18 1.250 . S
O16 Mg17 2.028 . S
O16 C18 1.248 . S
Mg17 O16 2.028 . S
Mg17 O22 2.032 . S
Mg17 O24 2.079 . S
C18 O15 1.250 . S
C18 O16 1.248 . S
C19 O20 1.264 . S
C19 O27 1.249 . S
O20 C19 1.264 . S
O21 Mg14 1.986 . S
O21 C25 1.246 . S
O22 Mg17 2.032 . S
O22 C25 1.259 . S
O23 Mg14 2.114 . S
O23 C26 1.252 . S
O24 Mg14 2.251 . S
O24 Mg17 2.079 . S
O24 C26 1.273 . S
C25 O21 1.246 . S
C25 O22 1.259 . S
C26 O23 1.252 . S
C26 O24 1.273 . S
O27 Mg14 2.010 . S
O27 C19 1.249 . S
Mg28 O29 2.028 . S
Mg28 O35 1.986 1_655 S
Mg28 O37 2.114 . S
Mg28 O38 2.251 . S
Mg28 O41 2.010 . S
O29 Mg28 2.028 . S
O29 C32 1.250 . S
O30 Mg31 2.028 . S
O30 C32 1.248 . S
Mg31 O30 2.028 . S
Mg31 O36 2.032 1_655 S
Mg31 O38 2.079 . S
C32 O29 1.250 . S
C32 O30 1.248 . S
C33 O34 1.265 . S
C33 O41 1.248 1_556 S
O34 C33 1.265 . S
O35 Mg28 1.986 1_455 S
O35 C39 1.246 . S
O36 Mg31 2.032 1_455 S
O36 C39 1.259 . S
O37 Mg28 2.114 . S
O37 C40 1.252 . S
O38 Mg28 2.251 . S
O38 Mg31 2.079 . S
O38 C40 1.273 . S
C39 O35 1.246 . S
C39 O36 1.259 . S
C40 O37 1.252 . S
C40 O38 1.273 . S
O41 Mg28 2.010 . S
O41 C33 1.248 1_554 S
Mg42 O43 2.028 . S
Mg42 O49 1.986 1_565 S
Mg42 O51 2.114 . S
Mg42 O52 2.251 . S
Mg42 O55 2.010 . S
O43 Mg42 2.028 . S
O43 C46 1.250 . S
O44 Mg45 2.028 . S
O44 C46 1.248 . S
Mg45 O44 2.028 . S
Mg45 O50 2.032 1_565 S
Mg45 O52 2.079 . S
C46 O43 1.250 . S
C46 O44 1.248 . S
C47 O48 1.264 . S
C47 O55 1.249 . S
O48 C47 1.264 . S
O49 Mg42 1.986 1_545 S
O49 C53 1.246 . S
O50 Mg45 2.032 1_545 S
O50 C53 1.259 . S
O51 Mg42 2.114 . S
O51 C54 1.252 . S
O52 Mg42 2.251 . S
O52 Mg45 2.079 . S
O52 C54 1.273 . S
C53 O49 1.246 . S
C53 O50 1.259 . S
C54 O51 1.252 . S
C54 O52 1.273 . S
O55 Mg42 2.010 . S
O55 C47 1.249 . S
Mg56 O57 2.028 . S
Mg56 O63 1.986 . S
Mg56 O65 2.114 . S
Mg56 O66 2.251 . S
Mg56 O69 2.010 . S
O57 Mg56 2.028 . S
O57 C60 1.250 . S
O58 Mg59 2.028 . S
O58 C60 1.248 . S
Mg59 O58 2.028 . S
Mg59 O64 2.032 . S
Mg59 O66 2.079 . S
C60 O57 1.250 . S
C60 O58 1.248 . S
C61 O62 1.265 . S
C61 O69 1.248 1_554 S
O62 C61 1.265 . S
O63 Mg56 1.986 . S
O63 C67 1.246 . S
O64 Mg59 2.032 . S
O64 C67 1.259 . S
O65 Mg56 2.114 . S
O65 C68 1.252 . S
O66 Mg56 2.251 . S
O66 Mg59 2.079 . S
O66 C68 1.273 . S
C67 O63 1.246 . S
C67 O64 1.259 . S
C68 O65 1.252 . S
C68 O66 1.273 . S
O69 Mg56 2.010 . S
O69 C61 1.248 1_556 S
Mg70 O71 2.028 . S
Mg70 O77 1.986 . S
Mg70 O79 2.114 . S
Mg70 O80 2.251 . S
Mg70 O83 2.010 . S
O71 Mg70 2.028 . S
O71 C74 1.250 . S
O72 Mg73 2.028 . S
O72 C74 1.248 . S
Mg73 O72 2.028 . S
Mg73 O78 2.032 . S
Mg73 O80 2.079 . S
C74 O71 1.250 . S
C74 O72 1.248 . S
C75 O76 1.264 . S
C75 O83 1.249 . S
O76 C75 1.264 . S
O77 Mg70 1.986 . S
O77 C81 1.246 . S
O78 Mg73 2.032 . S
O78 C81 1.259 . S
O79 Mg70 2.114 . S
O79 C82 1.252 . S
O80 Mg70 2.251 . S
O80 Mg73 2.079 . S
O80 C82 1.273 . S
C81 O77 1.246 . S
C81 O78 1.259 . S
C82 O79 1.252 . S
C82 O80 1.273 . S
O83 Mg70 2.010 . S
O83 C75 1.249 . S
Mg84 O85 2.028 . S
Mg84 O91 1.986 1_655 S
Mg84 O93 2.114 . S
Mg84 O94 2.251 . S
Mg84 O97 2.010 . S
O85 Mg84 2.028 . S
O85 C88 1.250 . S
O86 Mg87 2.028 . S
O86 C88 1.248 . S
Mg87 O86 2.028 . S
Mg87 O92 2.032 1_655 S
Mg87 O94 2.079 . S
C88 O85 1.250 . S
C88 O86 1.248 . S
C89 O90 1.265 . S
C89 O97 1.248 1_554 S
O90 C89 1.265 . S
O91 Mg84 1.986 1_455 S
O91 C95 1.246 . S
O92 Mg87 2.032 1_455 S
O92 C95 1.259 . S
O93 Mg84 2.114 . S
O93 C96 1.252 . S
O94 Mg84 2.251 . S
O94 Mg87 2.079 . S
O94 C96 1.273 . S
C95 O91 1.246 . S
C95 O92 1.259 . S
C96 O93 1.252 . S
C96 O94 1.273 . S
O97 Mg84 2.010 . S
O97 C89 1.248 1_556 S
Mg98 O99 2.028 . S
Mg98 O105 1.986 1_565 S
Mg98 O107 2.114 . S
Mg98 O108 2.251 . S
Mg98 O111 2.010 . S
O99 Mg98 2.028 . S
O99 C102 1.250 . S
O100 Mg101 2.028 . S
O100 C102 1.248 . S
Mg101 O100 2.028 . S
Mg101 O106 2.032 1_565 S
Mg101 O108 2.079 . S
C102 O99 1.250 . S
C102 O100 1.248 . S
C103 O104 1.264 . S
C103 O111 1.249 . S
O104 C103 1.264 . S
O105 Mg98 1.986 1_545 S
O105 C109 1.246 . S
O106 Mg101 2.032 1_545 S
O106 C109 1.259 . S
O107 Mg98 2.114 . S
O107 C110 1.252 . S
O108 Mg98 2.251 . S
O108 Mg101 2.079 . S
O108 C110 1.273 . S
C109 O105 1.246 . S
C109 O106 1.259 . S
C110 O107 1.252 . S
C110 O108 1.273 . S
O111 Mg98 2.010 . S
O111 C103 1.249 . S
Mg112 O113 2.028 . S
Mg112 O119 1.986 . S
Mg112 O121 2.114 . S
Mg112 O122 2.251 . S
Mg112 O125 2.010 . S
O113 Mg112 2.028 . S
O113 C116 1.250 . S
O114 Mg115 2.028 . S
O114 C116 1.248 . S
Mg115 O114 2.028 . S
Mg115 O120 2.032 . S
Mg115 O122 2.079 . S
C116 O113 1.250 . S
C116 O114 1.248 . S
C117 O118 1.264 . S
C117 O125 1.249 . S
O118 C117 1.264 . S
O119 Mg112 1.986 . S
O119 C123 1.246 . S
O120 Mg115 2.032 . S
O120 C123 1.259 . S
O121 Mg112 2.114 . S
O121 C124 1.252 . S
O122 Mg112 2.251 . S
O122 Mg115 2.079 . S
O122 C124 1.273 . S
C123 O119 1.246 . S
C123 O120 1.259 . S
C124 O121 1.252 . S
C124 O122 1.273 . S
O125 Mg112 2.010 . S
O125 C117 1.249 . S
Mg126 O127 2.028 . S
Mg126 O133 1.986 . S
Mg126 O135 2.114 . S
Mg126 O136 2.251 . S
Mg126 O139 2.010 . S
O127 Mg126 2.028 . S
O127 C130 1.250 . S
O128 Mg129 2.028 . S
O128 C130 1.248 . S
Mg129 O128 2.028 . S
Mg129 O134 2.032 . S
Mg129 O136 2.079 . S
C130 O127 1.250 . S
C130 O128 1.248 . S
C131 O132 1.264 . S
C131 O139 1.249 . S
O132 C131 1.264 . S
O133 Mg126 1.986 . S
O133 C137 1.246 . S
O134 Mg129 2.032 . S
O134 C137 1.259 . S
O135 Mg126 2.114 . S
O135 C138 1.252 . S
O136 Mg126 2.251 . S
O136 Mg129 2.079 . S
O136 C138 1.273 . S
C137 O133 1.246 . S
C137 O134 1.259 . S
C138 O135 1.252 . S
C138 O136 1.273 . S
O139 Mg126 2.010 . S
O139 C131 1.249 . S
Mg140 O141 2.028 . S
Mg140 O147 1.986 . S
Mg140 O149 2.114 . S
Mg140 O150 2.251 . S
Mg140 O153 2.010 1_455 S
O141 Mg140 2.028 . S
O141 C144 1.250 . S
O142 Mg143 2.028 . S
O142 C144 1.248 . S
Mg143 O142 2.028 . S
Mg143 O148 2.032 . S
Mg143 O150 2.079 . S
C144 O141 1.250 . S
C144 O142 1.248 . S
C145 O146 1.264 . S
C145 O153 1.249 . S
O146 C145 1.264 . S
O147 Mg140 1.986 . S
O147 C151 1.246 . S
O148 Mg143 2.032 . S
O148 C151 1.259 . S
O149 Mg140 2.114 . S
O149 C152 1.252 . S
O150 Mg140 2.251 . S
O150 Mg143 2.079 . S
O150 C152 1.273 . S
C151 O147 1.246 . S
C151 O148 1.259 . S
C152 O149 1.252 . S
C152 O150 1.273 . S
O153 Mg140 2.010 1_655 S
O153 C145 1.249 . S
Mg154 O155 2.028 . S
Mg154 O161 1.986 1_545 S
Mg154 O163 2.114 . S
Mg154 O164 2.251 . S
Mg154 O167 2.010 . S
O155 Mg154 2.028 . S
O155 C158 1.250 . S
O156 Mg157 2.028 . S
O156 C158 1.248 . S
Mg157 O156 2.028 . S
Mg157 O162 2.032 1_545 S
Mg157 O164 2.079 . S
C158 O155 1.250 . S
C158 O156 1.248 . S
C159 O160 1.264 . S
C159 O167 1.249 . S
O160 C159 1.264 . S
O161 Mg154 1.986 1_565 S
O161 C165 1.246 . S
O162 Mg157 2.032 1_565 S
O162 C165 1.259 . S
O163 Mg154 2.114 . S
O163 C166 1.252 . S
O164 Mg154 2.251 . S
O164 Mg157 2.079 . S
O164 C166 1.273 . S
C165 O161 1.246 . S
C165 O162 1.259 . S
C166 O163 1.252 . S
C166 O164 1.273 . S
O167 Mg154 2.010 . S
O167 C159 1.249 . S
Mg168 O169 2.028 . S
Mg168 O175 1.986 . S
Mg168 O177 2.114 . S
Mg168 O178 2.251 . S
Mg168 O181 2.010 . S
O169 Mg168 2.028 . S
O169 C172 1.250 . S
O170 Mg171 2.028 . S
O170 C172 1.248 . S
Mg171 O170 2.028 . S
Mg171 O176 2.032 . S
Mg171 O178 2.079 . S
C172 O169 1.250 . S
C172 O170 1.248 . S
C173 O174 1.264 . S
C173 O181 1.249 . S
O174 C173 1.264 . S
O175 Mg168 1.986 . S
O175 C179 1.246 . S
O176 Mg171 2.032 . S
O176 C179 1.259 . S
O177 Mg168 2.114 . S
O177 C180 1.252 . S
O178 Mg168 2.251 . S
O178 Mg171 2.079 . S
O178 C180 1.273 . S
C179 O175 1.246 . S
C179 O176 1.259 . S
C180 O177 1.252 . S
C180 O178 1.273 . S
O181 Mg168 2.010 . S
O181 C173 1.249 . S
Mg182 O183 2.028 . S
Mg182 O189 1.986 . S
Mg182 O191 2.114 . S
Mg182 O192 2.251 . S
Mg182 O195 2.010 . S
O183 Mg182 2.028 . S
O183 C186 1.250 . S
O184 Mg185 2.028 . S
O184 C186 1.248 . S
Mg185 O184 2.028 . S
Mg185 O190 2.032 . S
Mg185 O192 2.079 . S
C186 O183 1.250 . S
C186 O184 1.248 . S
C187 O188 1.264 . S
C187 O195 1.249 . S
O188 C187 1.264 . S
O189 Mg182 1.986 . S
O189 C193 1.246 . S
O190 Mg185 2.032 . S
O190 C193 1.259 . S
O191 Mg182 2.114 . S
O191 C194 1.252 . S
O192 Mg182 2.251 . S
O192 Mg185 2.079 . S
O192 C194 1.273 . S
C193 O189 1.246 . S
C193 O190 1.259 . S
C194 O191 1.252 . S
C194 O192 1.273 . S
O195 Mg182 2.010 . S
O195 C187 1.249 . S
Mg196 O197 2.028 . S
Mg196 O203 1.986 . S
Mg196 O205 2.114 . S
Mg196 O206 2.251 . S
Mg196 O209 2.010 1_455 S
O197 Mg196 2.028 . S
O197 C200 1.250 . S
O198 Mg199 2.028 . S
O198 C200 1.248 . S
Mg199 O198 2.028 . S
Mg199 O204 2.032 . S
Mg199 O206 2.079 . S
C200 O197 1.250 . S
C200 O198 1.248 . S
C201 O202 1.264 . S
C201 O209 1.249 . S
O202 C201 1.264 . S
O203 Mg196 1.986 . S
O203 C207 1.246 . S
O204 Mg199 2.032 . S
O204 C207 1.259 . S
O205 Mg196 2.114 . S
O205 C208 1.252 . S
O206 Mg196 2.251 . S
O206 Mg199 2.079 . S
O206 C208 1.273 . S
C207 O203 1.246 . S
C207 O204 1.259 . S
C208 O205 1.252 . S
C208 O206 1.273 . S
O209 Mg196 2.010 1_655 S
O209 C201 1.249 . S
Mg210 O211 2.028 . S
Mg210 O217 1.986 1_545 S
Mg210 O219 2.114 . S
Mg210 O220 2.251 . S
Mg210 O223 2.010 . S
O211 Mg210 2.028 . S
O211 C214 1.250 . S
O212 Mg213 2.028 . S
O212 C214 1.248 . S
Mg213 O212 2.028 . S
Mg213 O218 2.032 1_545 S
Mg213 O220 2.079 . S
C214 O211 1.250 . S
C214 O212 1.248 . S
C215 O216 1.264 . S
C215 O223 1.249 . S
O216 C215 1.264 . S
O217 Mg210 1.986 1_565 S
O217 C221 1.246 . S
O218 Mg213 2.032 1_565 S
O218 C221 1.259 . S
O219 Mg210 2.114 . S
O219 C222 1.252 . S
O220 Mg210 2.251 . S
O220 Mg213 2.079 . S
O220 C222 1.273 . S
C221 O217 1.246 . S
C221 O218 1.259 . S
C222 O219 1.252 . S
C222 O220 1.273 . S
O223 Mg210 2.010 . S
O223 C215 1.249 . S
C11 C109 1.516 . S
C25 C67 1.516 . S
C39 C81 1.516 . S
C53 C95 1.516 . S
C117 C221 1.460 . S
C173 C137 1.460 . S
C145 C193 1.460 . S
C165 C201 1.460 . S
C4 C138 1.318 . S
C18 C144 1.639 . S
C166 C32 1.318 . S
C46 C116 1.639 . S
C60 C222 1.318 . S
C172 C74 1.639 . S
C194 C88 1.318 . S
C200 C102 1.639 . S
C26 C124 1.249 . S
C40 C130 1.207 . S
C152 C54 1.249 . S
C12 C158 1.207 . S
C180 C110 1.249 . S
C186 C68 1.207 . S
C82 C208 1.249 . S
C96 C214 1.207 . S
C5 C61 2.052 1_556 S
C75 C19 1.505 . S
C33 C89 2.052 1_556 S
C103 C47 1.505 . S
C123 C179 1.649 1_556 S
C187 C131 2.069 . S
C207 C151 1.649 1_554 S
C215 C159 2.069 . S
