# Generated by pormake.
# Topology qtz, (4)-cn, num edge types: 1
# Building blocks:
#     Node 0, Type 0, BuildingBlock: QUQFOY_clean_sbu_3, # of connection points: 4
#     Node 1, Type 0, BuildingBlock: QUQFOY_clean_sbu_3, # of connection points: 4
#     Node 2, Type 0, BuildingBlock: QUQFOY_clean_sbu_3, # of connection points: 4
#     Edge 3, Type (0, 0), BuildingBlock: EYOCIG_clean_linker_4, # of connection points: 2
#     Edge 4, Type (0, 0), BuildingBlock: EYOCIG_clean_linker_4, # of connection points: 2
#     Edge 5, Type (0, 0), BuildingBlock: EYOCIG_clean_linker_4, # of connection points: 2
#     Edge 6, Type (0, 0), BuildingBlock: EYOCIG_clean_linker_4, # of connection points: 2
#     Edge 7, Type (0, 0), BuildingBlock: EYOCIG_clean_linker_4, # of connection points: 2
#     Edge 8, Type (0, 0), BuildingBlock: EYOCIG_clean_linker_4, # of connection points: 2
# Relax obj value: 0.008
# Max RMSD: 0.056
# Mean RMSD: 0.047
data_MOF--net-qtz--node1-QUQFOY_clean_sbu_3--edge1-EYOCIG_clean_linker_4
_symmetry_space_group_name_H-M    P1
_symmetry_Int_Tables_number       1
_symmetry_cell_setting            triclinic
loop_
_symmetry_equiv_pos_as_xyz
'x, y, z'
_cell_length_a     20.10404
_cell_length_b     19.8419
_cell_length_c     24.301877
_cell_angle_alpha  89.751815
_cell_angle_beta   91.082009
_cell_angle_gamma 121.35238
loop_
_atom_site_label
_atom_site_type_symbol
_atom_site_fract_x
_atom_site_fract_y
_atom_site_fract_z
_atom_type_partial_charge
C0 C 0.85632 0.51557 0.08933 0.0
O1 O 0.85603 0.55047 0.13282 0.0
Cd2 Cd 0.93096 0.56301 0.21433 0.0
O3 O 0.89931 0.48617 0.08553 0.0
Cd4 Cd -0.00253 0.47546 0.14358 0.0
C5 C 0.86299 0.36746 0.23996 0.0
O6 O 0.06076 0.60679 0.18646 0.0
O7 O 0.09065 0.52511 0.22107 0.0
O8 O 0.07913 0.50658 0.0627 0.0
C9 C 0.10184 0.59403 0.22006 0.0
O10 O 0.86797 0.43149 0.25435 0.0
C11 C 0.08586 0.44663 0.06614 0.0
O12 O 0.89987 0.36434 0.19893 0.0
O13 O 0.05037 0.39842 0.10474 0.0
C14 C 0.43359 0.09573 0.539 0.0
O15 O 0.40181 0.09967 0.49454 0.0
Cd16 Cd 0.39253 0.02817 0.41237 0.0
O17 O 0.46138 0.05102 0.54314 0.0
Cd18 Cd 0.47127 0.95386 0.48418 0.0
C19 C 0.58518 0.09312 0.39166 0.0
O20 O 0.34359 0.8936 0.4371 0.0
O21 O 0.4251 0.8642 0.40493 0.0
O22 O 0.43401 0.86645 0.56341 0.0
C23 C 0.35723 0.85331 0.40396 0.0
O24 O 0.52354 0.09088 0.37547 0.0
C25 C 0.49244 0.85832 0.56239 0.0
O26 O 0.58523 0.05319 0.43281 0.0
O27 O 0.54259 0.89548 0.52568 0.0
C28 C 0.63944 0.51504 0.87697 0.0
O29 O 0.67745 0.54929 0.83425 0.0
Cd30 Cd 0.61908 0.56196 0.75104 0.0
O31 O 0.56619 0.48632 0.87884 0.0
Cd32 Cd 0.46028 0.47647 0.81722 0.0
C33 C 0.48668 0.36681 0.7229 0.0
O34 O 0.535 0.60834 0.77617 0.0
O35 O 0.42258 0.52806 0.73843 0.0
O36 O 0.40732 0.50685 0.89684 0.0
C37 C 0.4825 0.59673 0.74122 0.0
O38 O 0.54811 0.43056 0.70956 0.0
C39 C 0.3389 0.44745 0.89137 0.0
O40 O 0.44516 0.36443 0.76269 0.0
O41 O 0.32616 0.39997 0.8521 0.0
C42 C 0.22991 0.43107 0.95909 0.0
C43 C 0.27793 0.43635 0.92734 0.0
C44 C 0.17681 0.43096 -0.00337 0.0
C45 C 0.13481 0.4361 0.02906 0.0
C46 C 0.76761 0.24411 0.29953 0.0
C47 C 0.81226 0.29728 0.27029 0.0
C48 C 0.70991 0.18733 0.33432 0.0
C49 C 0.65586 0.14302 0.36263 0.0
C50 C 0.50138 0.76209 0.63348 0.0
C51 C 0.4995 0.80655 0.60033 0.0
C52 C 0.49831 0.70681 0.67181 0.0
C53 C 0.4924 0.65752 0.70392 0.0
C54 C 0.71846 0.50676 0.96215 0.0
C55 C 0.6805 0.50943 0.92409 0.0
C56 C 0.76587 0.50705 0.00595 0.0
C57 C 0.80765 0.51014 0.04341 0.0
C58 C 0.25276 0.75543 0.33107 0.0
C59 C 0.29949 0.80044 0.36471 0.0
C60 C 0.19947 0.70129 0.29166 0.0
C61 C 0.15456 0.65332 0.25857 0.0
C62 C 0.45241 0.24351 0.661 0.0
C63 C 0.46404 0.2969 0.69116 0.0
C64 C 0.44428 0.18752 0.62145 0.0
C65 C 0.44043 0.1448 0.58473 0.0
loop_
_geom_bond_atom_site_label_1
_geom_bond_atom_site_label_2
_geom_bond_distance
_geom_bond_site_symmetry_2
_ccdc_geom_bond_type
C0 O1 1.306 . S
C0 O3 1.160 . S
O1 C0 1.306 . S
O1 Cd2 2.228 . S
Cd2 O1 2.228 . S
Cd2 O6 2.273 1_655 S
Cd2 O10 2.277 . S
O3 C0 1.160 . S
O3 Cd4 2.203 1_655 S
Cd4 O3 2.203 1_455 S
Cd4 O6 2.411 . S
Cd4 O7 2.333 . S
Cd4 O8 2.352 . S
Cd4 O12 2.277 1_455 S
Cd4 O13 2.356 . S
C5 O10 1.209 . S
C5 O12 1.226 . S
O6 Cd2 2.273 1_455 S
O6 Cd4 2.411 . S
O6 C9 1.320 . S
O7 Cd4 2.333 . S
O7 C9 1.214 . S
O8 Cd4 2.352 . S
O8 C11 1.258 . S
C9 O6 1.320 . S
C9 O7 1.214 . S
O10 Cd2 2.277 . S
O10 C5 1.209 . S
C11 O8 1.258 . S
C11 O13 1.282 . S
O12 Cd4 2.277 1_655 S
O12 C5 1.226 . S
O13 Cd4 2.356 . S
O13 C11 1.282 . S
C14 O15 1.306 . S
C14 O17 1.160 . S
O15 C14 1.306 . S
O15 Cd16 2.228 . S
Cd16 O15 2.228 . S
Cd16 O20 2.273 1_545 S
Cd16 O24 2.277 . S
O17 C14 1.160 . S
O17 Cd18 2.203 . S
Cd18 O17 2.203 . S
Cd18 O20 2.411 1_545 S
Cd18 O21 2.333 1_545 S
Cd18 O22 2.352 1_545 S
Cd18 O26 2.277 . S
Cd18 O27 2.356 1_545 S
C19 O24 1.209 . S
C19 O26 1.226 . S
O20 Cd16 2.273 1_565 S
O20 Cd18 2.411 1_565 S
O20 C23 1.320 . S
O21 Cd18 2.333 1_565 S
O21 C23 1.214 . S
O22 Cd18 2.352 1_565 S
O22 C25 1.258 . S
C23 O20 1.320 . S
C23 O21 1.214 . S
O24 Cd16 2.277 . S
O24 C19 1.209 . S
C25 O22 1.258 . S
C25 O27 1.282 . S
O26 Cd18 2.277 . S
O26 C19 1.226 . S
O27 Cd18 2.356 1_565 S
O27 C25 1.282 . S
C28 O29 1.306 . S
C28 O31 1.160 . S
O29 C28 1.306 . S
O29 Cd30 2.228 . S
Cd30 O29 2.228 . S
Cd30 O34 2.273 . S
Cd30 O38 2.277 . S
O31 C28 1.160 . S
O31 Cd32 2.203 . S
Cd32 O31 2.203 . S
Cd32 O34 2.411 . S
Cd32 O35 2.333 . S
Cd32 O36 2.352 . S
Cd32 O40 2.277 . S
Cd32 O41 2.356 . S
C33 O38 1.209 . S
C33 O40 1.226 . S
O34 Cd30 2.273 . S
O34 Cd32 2.411 . S
O34 C37 1.320 . S
O35 Cd32 2.333 . S
O35 C37 1.214 . S
O36 Cd32 2.352 . S
O36 C39 1.258 . S
C37 O34 1.320 . S
C37 O35 1.214 . S
O38 Cd30 2.277 . S
O38 C33 1.209 . S
C39 O36 1.258 . S
C39 O41 1.282 . S
O40 Cd32 2.277 . S
O40 C33 1.226 . S
O41 Cd32 2.356 . S
O41 C39 1.282 . S
C42 C43 1.170 . S
C42 C44 1.380 1_556 S
C43 C42 1.170 . S
C44 C42 1.380 1_554 S
C44 C45 1.170 . S
C45 C44 1.170 . S
C46 C47 1.170 . S
C46 C48 1.380 . S
C47 C46 1.170 . S
C48 C46 1.380 . S
C48 C49 1.170 . S
C49 C48 1.170 . S
C50 C51 1.170 . S
C50 C52 1.380 . S
C51 C50 1.170 . S
C52 C50 1.380 . S
C52 C53 1.170 . S
C53 C52 1.170 . S
C54 C55 1.170 . S
C54 C56 1.380 1_556 S
C55 C54 1.170 . S
C56 C54 1.380 1_554 S
C56 C57 1.170 . S
C57 C56 1.170 . S
C58 C59 1.170 . S
C58 C60 1.380 . S
C59 C58 1.170 . S
C60 C58 1.380 . S
C60 C61 1.170 . S
C61 C60 1.170 . S
C62 C63 1.170 . S
C62 C64 1.380 . S
C63 C62 1.170 . S
C64 C62 1.380 . S
C64 C65 1.170 . S
C65 C64 1.170 . S
C43 C39 1.429 . S
C45 C11 1.435 . S
C47 C5 1.517 . S
C49 C19 1.519 . S
C51 C25 1.436 . S
C53 C37 1.424 . S
C55 C28 1.443 . S
C57 C0 1.443 . S
C59 C23 1.446 . S
C61 C9 1.443 . S
C63 C33 1.483 . S
C65 C14 1.480 . S
