# Generated by pormake.
# Topology uoo, (4)-cn, num edge types: 1
# Building blocks:
#     Node 0, Type 0, BuildingBlock: GALJAG_clean_sbu_0, # of connection points: 4
#     Node 1, Type 0, BuildingBlock: GALJAG_clean_sbu_0, # of connection points: 4
#     Node 2, Type 0, BuildingBlock: GALJAG_clean_sbu_0, # of connection points: 4
#     Node 3, Type 0, BuildingBlock: GALJAG_clean_sbu_0, # of connection points: 4
#     Node 4, Type 0, BuildingBlock: GALJAG_clean_sbu_0, # of connection points: 4
#     Node 5, Type 0, BuildingBlock: GALJAG_clean_sbu_0, # of connection points: 4
#     Edge 6, Type (0, 0), BuildingBlock: EYOCIG_clean_linker_4, # of connection points: 2
#     Edge 7, Type (0, 0), BuildingBlock: EYOCIG_clean_linker_4, # of connection points: 2
#     Edge 8, Type (0, 0), BuildingBlock: EYOCIG_clean_linker_4, # of connection points: 2
#     Edge 9, Type (0, 0), BuildingBlock: EYOCIG_clean_linker_4, # of connection points: 2
#     Edge 10, Type (0, 0), BuildingBlock: EYOCIG_clean_linker_4, # of connection points: 2
#     Edge 11, Type (0, 0), BuildingBlock: EYOCIG_clean_linker_4, # of connection points: 2
#     Edge 12, Type (0, 0), BuildingBlock: EYOCIG_clean_linker_4, # of connection points: 2
#     Edge 13, Type (0, 0), BuildingBlock: EYOCIG_clean_linker_4, # of connection points: 2
#     Edge 14, Type (0, 0), BuildingBlock: EYOCIG_clean_linker_4, # of connection points: 2
#     Edge 15, Type (0, 0), BuildingBlock: EYOCIG_clean_linker_4, # of connection points: 2
#     Edge 16, Type (0, 0), BuildingBlock: EYOCIG_clean_linker_4, # of connection points: 2
#     Edge 17, Type (0, 0), BuildingBlock: EYOCIG_clean_linker_4, # of connection points: 2
# Relax obj value: 0.098
# Max RMSD: 0.113
# Mean RMSD: 0.113
data_MOF--net-uoo--node1-GALJAG_clean_sbu_0--edge1-EYOCIG_clean_linker_4
_symmetry_space_group_name_H-M    P1
_symmetry_Int_Tables_number       1
_symmetry_cell_setting            triclinic
loop_
_symmetry_equiv_pos_as_xyz
'x, y, z'
_cell_length_a     20.477593
_cell_length_b     20.477121
_cell_length_c     30.953219
_cell_angle_alpha  89.972798
_cell_angle_beta   90.019569
_cell_angle_gamma 119.99738
loop_
_atom_site_label
_atom_site_type_symbol
_atom_site_fract_x
_atom_site_fract_y
_atom_site_fract_z
_atom_type_partial_charge
In0 In 0.14848 0.31569 0.01331 0.0
O1 O 0.05895 0.21277 0.05056 0.0
O2 O 0.13227 0.31155 0.08624 0.0
C3 C 0.14875 0.24522 0.93978 0.0
C4 C 0.0744 0.39152 -0.00055 0.0
C5 C 0.29834 0.39128 0.02723 0.0
O6 O 0.13493 0.2128 0.97599 0.0
O7 O 0.16097 0.31185 0.94039 0.0
O8 O 0.26384 0.42202 0.01124 0.0
O9 O 0.25786 0.32249 0.03666 0.0
C10 C 0.07771 0.245 0.08681 0.0
O11 O 0.13957 0.42209 0.01551 0.0
O12 O 0.04607 0.32277 0.9899 0.0
In13 In 0.82414 0.15335 0.34661 0.0
O14 O 0.83586 0.06261 0.38366 0.0
O15 O 0.81161 0.13662 0.41951 0.0
C16 C 0.89606 0.15391 0.27352 0.0
C17 C 0.67442 0.08009 0.33226 0.0
C18 C 0.8983 0.30318 0.36058 0.0
O19 O 0.91449 0.14053 0.30991 0.0
O20 O 0.84124 0.16551 0.27375 0.0
O21 O 0.83353 0.26884 0.34399 0.0
O22 O 0.92617 0.26255 0.37061 0.0
C23 C 0.8226 0.08141 0.41995 0.0
O24 O 0.709 0.14481 0.34889 0.0
O25 O 0.71476 0.05182 0.3224 0.0
In26 In 0.66084 0.8279 0.68021 0.0
O27 O 0.55472 0.71239 0.68196 0.0
O28 O 0.65458 0.71881 0.65681 0.0
C29 C 0.58483 0.90163 0.69448 0.0
C30 C 0.73147 0.82772 0.75373 0.0
C31 C 0.73098 0.89904 0.60667 0.0
O32 O 0.55417 0.83636 0.67857 0.0
O33 O 0.65375 0.93024 0.70366 0.0
O34 O 0.76352 0.91751 0.64284 0.0
O35 O 0.66438 0.84457 0.60732 0.0
C36 C 0.58574 0.67812 0.66606 0.0
O37 O 0.76393 0.84184 0.71753 0.0
O38 O 0.66472 0.81512 0.7531 0.0
In39 In 0.82358 0.66592 0.0136 0.0
O40 O 0.9142 0.76862 0.05049 0.0
O41 O 0.83994 0.67069 0.08654 0.0
C42 C 0.8228 0.73713 0.94045 0.0
C43 C 0.89732 0.58981 -0.00034 0.0
C44 C 0.67371 0.58947 0.02738 0.0
O45 O 0.83571 0.7688 0.97685 0.0
O46 O 0.81178 0.67091 0.9407 0.0
O47 O 0.70841 0.55945 0.01077 0.0
O48 O 0.714 0.65796 0.03751 0.0
C49 C 0.89518 0.73686 0.08687 0.0
O50 O 0.83268 0.55966 0.01639 0.0
O51 O 0.9253 0.65827 0.98951 0.0
In52 In 0.14947 0.82842 0.34655 0.0
O53 O 0.26493 0.83768 0.3483 0.0
O54 O 0.25851 0.93095 0.3228 0.0
C55 C 0.07581 0.67856 0.36051 0.0
C56 C 0.15038 0.89936 0.42013 0.0
C57 C 0.07769 0.82788 0.27337 0.0
O58 O 0.14074 0.7132 0.34415 0.0
O59 O 0.04751 0.71891 0.37029 0.0
O60 O 0.05925 0.84132 0.30972 0.0
O61 O 0.13244 0.81618 0.27368 0.0
C62 C 0.29918 0.90281 0.33216 0.0
O63 O 0.13632 0.91792 0.38396 0.0
O64 O 0.16251 0.8449 0.41945 0.0
In65 In 0.31126 0.15303 0.68025 0.0
O66 O 0.41774 0.2682 0.68297 0.0
O67 O 0.31932 0.2625 0.65597 0.0
C68 C 0.38693 0.07899 0.69463 0.0
C69 C 0.23991 0.154 0.75327 0.0
C70 C 0.24091 0.08135 0.60689 0.0
O71 O 0.41753 0.14394 0.67825 0.0
O72 O 0.31824 0.05089 0.70425 0.0
O73 O 0.20862 0.06281 0.64313 0.0
O74 O 0.30731 0.13619 0.60738 0.0
C75 C 0.38779 0.30283 0.66614 0.0
O76 O 0.20836 0.14115 0.71682 0.0
O77 O 0.30606 0.16488 0.75313 0.0
C78 C 0.18256 0.17003 0.82611 0.0
C79 C 0.20586 0.16196 0.79193 0.0
C80 C 0.16425 0.18837 0.8666 0.0
C81 C 0.15638 0.21149 0.90088 0.0
C82 C 0.96908 0.16963 0.20058 0.0
C83 C 0.9379 0.16165 0.23481 0.0
C84 C 0.00555 0.18797 0.16003 0.0
C85 C 0.03643 0.21116 0.12572 0.0
C86 C 0.80611 0.00828 0.49299 0.0
C87 C 0.81438 0.0396 0.45876 0.0
C88 C 0.78768 0.9716 0.53349 0.0
C89 C 0.76459 0.94049 0.56776 0.0
C90 C 0.80687 0.79431 0.86748 0.0
C91 C 0.8149 0.7711 0.90171 0.0
C92 C 0.78852 0.8125 0.82694 0.0
C93 C 0.76535 0.82027 0.79263 0.0
C94 C 0.00468 0.81224 0.2004 0.0
C95 C 0.03591 0.82017 0.23462 0.0
C96 C 0.96802 0.79393 0.15991 0.0
C97 C 0.93686 0.7707 0.12566 0.0
C98 C 0.18432 0.00838 0.53383 0.0
C99 C 0.2073 0.03962 0.56807 0.0
C100 C 0.16615 0.97177 0.49333 0.0
C101 C 0.15817 0.94072 0.45905 0.0
C102 C 0.44632 0.46812 0.03555 0.0
C103 C 0.37872 0.43136 0.03221 0.0
C104 C 0.52572 0.51205 0.03558 0.0
C105 C 0.59332 0.54902 0.03231 0.0
C106 C 0.96947 0.45117 0.36887 0.0
C107 C 0.93862 0.38356 0.36557 0.0
C108 C 0.00502 0.53058 0.36884 0.0
C109 C 0.03575 0.59817 0.36549 0.0
C110 C 0.46378 0.0079 0.70312 0.0
C111 C 0.42698 0.03868 0.69973 0.0
C112 C 0.50769 0.9724 0.70306 0.0
C113 C 0.54455 0.9417 0.69959 0.0
C114 C 0.46528 0.45077 0.65766 0.0
C115 C 0.42827 0.38319 0.66105 0.0
C116 C 0.50922 0.53016 0.65764 0.0
C117 C 0.54591 0.59776 0.66101 0.0
C118 C 0.96803 0.51256 0.99126 0.0
C119 C 0.93738 0.54949 0.99461 0.0
C120 C 0.00345 0.46857 0.99122 0.0
C121 C 0.03419 0.43171 0.99451 0.0
C122 C 0.52651 0.0096 0.32363 0.0
C123 C 0.59408 0.04018 0.3271 0.0
C124 C 0.44711 0.97412 0.32361 0.0
C125 C 0.37953 0.94326 0.32704 0.0
loop_
_geom_bond_atom_site_label_1
_geom_bond_atom_site_label_2
_geom_bond_distance
_geom_bond_site_symmetry_2
_ccdc_geom_bond_type
In0 O1 2.294 . S
In0 O2 2.326 . S
In0 O6 2.266 1_554 S
In0 O7 2.326 1_554 S
In0 O8 2.266 . S
In0 O9 2.326 . S
In0 O11 2.294 . S
In0 O12 2.326 . S
O1 In0 2.294 . S
O1 C10 1.240 . S
O2 In0 2.326 . S
O2 C10 1.252 . S
C3 O6 1.252 . S
C3 O7 1.260 . S
C4 O11 1.240 . S
C4 O12 1.252 . S
C5 O8 1.252 . S
C5 O9 1.260 . S
O6 In0 2.266 1_556 S
O6 C3 1.252 . S
O7 In0 2.326 1_556 S
O7 C3 1.260 . S
O8 In0 2.266 . S
O8 C5 1.252 . S
O9 In0 2.326 . S
O9 C5 1.260 . S
C10 O1 1.240 . S
C10 O2 1.252 . S
O11 In0 2.294 . S
O11 C4 1.240 . S
O12 In0 2.326 . S
O12 C4 1.252 . S
In13 O14 2.294 . S
In13 O15 2.326 . S
In13 O19 2.266 . S
In13 O20 2.326 . S
In13 O21 2.266 . S
In13 O22 2.326 . S
In13 O24 2.294 . S
In13 O25 2.326 . S
O14 In13 2.294 . S
O14 C23 1.240 . S
O15 In13 2.326 . S
O15 C23 1.252 . S
C16 O19 1.252 . S
C16 O20 1.260 . S
C17 O24 1.240 . S
C17 O25 1.252 . S
C18 O21 1.252 . S
C18 O22 1.260 . S
O19 In13 2.266 . S
O19 C16 1.252 . S
O20 In13 2.326 . S
O20 C16 1.260 . S
O21 In13 2.266 . S
O21 C18 1.252 . S
O22 In13 2.326 . S
O22 C18 1.260 . S
C23 O14 1.240 . S
C23 O15 1.252 . S
O24 In13 2.294 . S
O24 C17 1.240 . S
O25 In13 2.326 . S
O25 C17 1.252 . S
In26 O27 2.294 . S
In26 O28 2.326 . S
In26 O32 2.266 . S
In26 O33 2.326 . S
In26 O34 2.266 . S
In26 O35 2.326 . S
In26 O37 2.294 . S
In26 O38 2.326 . S
O27 In26 2.294 . S
O27 C36 1.240 . S
O28 In26 2.326 . S
O28 C36 1.252 . S
C29 O32 1.252 . S
C29 O33 1.260 . S
C30 O37 1.240 . S
C30 O38 1.252 . S
C31 O34 1.252 . S
C31 O35 1.260 . S
O32 In26 2.266 . S
O32 C29 1.252 . S
O33 In26 2.326 . S
O33 C29 1.260 . S
O34 In26 2.266 . S
O34 C31 1.252 . S
O35 In26 2.326 . S
O35 C31 1.260 . S
C36 O27 1.240 . S
C36 O28 1.252 . S
O37 In26 2.294 . S
O37 C30 1.240 . S
O38 In26 2.326 . S
O38 C30 1.252 . S
In39 O40 2.294 . S
In39 O41 2.326 . S
In39 O45 2.266 1_554 S
In39 O46 2.326 1_554 S
In39 O47 2.266 . S
In39 O48 2.326 . S
In39 O50 2.294 . S
In39 O51 2.326 . S
O40 In39 2.294 . S
O40 C49 1.240 . S
O41 In39 2.326 . S
O41 C49 1.252 . S
C42 O45 1.252 . S
C42 O46 1.260 . S
C43 O50 1.240 . S
C43 O51 1.252 . S
C44 O47 1.252 . S
C44 O48 1.260 . S
O45 In39 2.266 1_556 S
O45 C42 1.252 . S
O46 In39 2.326 1_556 S
O46 C42 1.260 . S
O47 In39 2.266 . S
O47 C44 1.252 . S
O48 In39 2.326 . S
O48 C44 1.260 . S
C49 O40 1.240 . S
C49 O41 1.252 . S
O50 In39 2.294 . S
O50 C43 1.240 . S
O51 In39 2.326 . S
O51 C43 1.252 . S
In52 O53 2.294 . S
In52 O54 2.326 . S
In52 O58 2.266 . S
In52 O59 2.326 . S
In52 O60 2.266 . S
In52 O61 2.326 . S
In52 O63 2.294 . S
In52 O64 2.326 . S
O53 In52 2.294 . S
O53 C62 1.240 . S
O54 In52 2.326 . S
O54 C62 1.252 . S
C55 O58 1.252 . S
C55 O59 1.260 . S
C56 O63 1.240 . S
C56 O64 1.252 . S
C57 O60 1.252 . S
C57 O61 1.260 . S
O58 In52 2.266 . S
O58 C55 1.252 . S
O59 In52 2.326 . S
O59 C55 1.260 . S
O60 In52 2.266 . S
O60 C57 1.252 . S
O61 In52 2.326 . S
O61 C57 1.260 . S
C62 O53 1.240 . S
C62 O54 1.252 . S
O63 In52 2.294 . S
O63 C56 1.240 . S
O64 In52 2.326 . S
O64 C56 1.252 . S
In65 O66 2.294 . S
In65 O67 2.326 . S
In65 O71 2.266 . S
In65 O72 2.326 . S
In65 O73 2.266 . S
In65 O74 2.326 . S
In65 O76 2.294 . S
In65 O77 2.326 . S
O66 In65 2.294 . S
O66 C75 1.240 . S
O67 In65 2.326 . S
O67 C75 1.252 . S
C68 O71 1.252 . S
C68 O72 1.260 . S
C69 O76 1.240 . S
C69 O77 1.252 . S
C70 O73 1.252 . S
C70 O74 1.260 . S
O71 In65 2.266 . S
O71 C68 1.252 . S
O72 In65 2.326 . S
O72 C68 1.260 . S
O73 In65 2.266 . S
O73 C70 1.252 . S
O74 In65 2.326 . S
O74 C70 1.260 . S
C75 O66 1.240 . S
C75 O67 1.252 . S
O76 In65 2.294 . S
O76 C69 1.240 . S
O77 In65 2.326 . S
O77 C69 1.252 . S
C78 C79 1.170 . S
C78 C80 1.380 . S
C79 C78 1.170 . S
C80 C78 1.380 . S
C80 C81 1.170 . S
C81 C80 1.170 . S
C82 C83 1.170 . S
C82 C84 1.380 1_655 S
C83 C82 1.170 . S
C84 C82 1.380 1_455 S
C84 C85 1.170 . S
C85 C84 1.170 . S
C86 C87 1.170 . S
C86 C88 1.380 1_545 S
C87 C86 1.170 . S
C88 C86 1.380 1_565 S
C88 C89 1.170 . S
C89 C88 1.170 . S
C90 C91 1.170 . S
C90 C92 1.380 . S
C91 C90 1.170 . S
C92 C90 1.380 . S
C92 C93 1.170 . S
C93 C92 1.170 . S
C94 C95 1.170 . S
C94 C96 1.380 1_455 S
C95 C94 1.170 . S
C96 C94 1.380 1_655 S
C96 C97 1.170 . S
C97 C96 1.170 . S
C98 C99 1.170 . S
C98 C100 1.380 1_545 S
C99 C98 1.170 . S
C100 C98 1.380 1_565 S
C100 C101 1.170 . S
C101 C100 1.170 . S
C102 C103 1.170 . S
C102 C104 1.380 . S
C103 C102 1.170 . S
C104 C102 1.380 . S
C104 C105 1.170 . S
C105 C104 1.170 . S
C106 C107 1.170 . S
C106 C108 1.380 1_655 S
C107 C106 1.170 . S
C108 C106 1.380 1_455 S
C108 C109 1.170 . S
C109 C108 1.170 . S
C110 C111 1.170 . S
C110 C112 1.380 1_545 S
C111 C110 1.170 . S
C112 C110 1.380 1_565 S
C112 C113 1.170 . S
C113 C112 1.170 . S
C114 C115 1.170 . S
C114 C116 1.380 . S
C115 C114 1.170 . S
C116 C114 1.380 . S
C116 C117 1.170 . S
C117 C116 1.170 . S
C118 C119 1.170 . S
C118 C120 1.380 1_655 S
C119 C118 1.170 . S
C120 C118 1.380 1_455 S
C120 C121 1.170 . S
C121 C120 1.170 . S
C122 C123 1.170 . S
C122 C124 1.380 1_545 S
C123 C122 1.170 . S
C124 C122 1.380 1_565 S
C124 C125 1.170 . S
C125 C124 1.170 . S
C79 C69 1.377 . S
C81 C3 1.380 . S
C83 C16 1.382 . S
C85 C10 1.381 . S
C87 C23 1.368 . S
C89 C31 1.373 . S
C91 C42 1.378 . S
C93 C30 1.378 . S
C95 C57 1.382 . S
C97 C49 1.380 . S
C99 C70 1.365 . S
C101 C56 1.361 . S
C103 C5 1.493 . S
C105 C44 1.483 . S
C107 C18 1.492 . S
C109 C55 1.484 . S
C111 C68 1.494 . S
C113 C29 1.483 . S
C115 C75 1.478 . S
C117 C36 1.486 . S
C119 C43 1.476 . S
C121 C4 1.487 . S
C123 C17 1.478 . S
C125 C62 1.487 . S
