# Generated by pormake.
# Topology hex, (8)-cn, num edge types: 1
# Building blocks:
#     Node 0, Type 0, BuildingBlock: NUHRAL_clean_sbu_3, # of connection points: 8
#     Edge 1, Type (0, 0), None
#     Edge 2, Type (0, 0), None
#     Edge 3, Type (0, 0), None
#     Edge 4, Type (0, 0), None
# Relax obj value: 0.031
# Max RMSD: 0.084
# Mean RMSD: 0.084
data_MOF--net-hex--node1-NUHRAL_clean_sbu_3--edge1-none
_symmetry_space_group_name_H-M    P1
_symmetry_Int_Tables_number       1
_symmetry_cell_setting            triclinic
loop_
_symmetry_equiv_pos_as_xyz
'x, y, z'
_cell_length_a     15.045313
_cell_length_b     7.5554529
_cell_length_c     6.5821267
_cell_angle_alpha  105.95089
_cell_angle_beta   110.23948
_cell_angle_gamma 103.34689
loop_
_atom_site_label
_atom_site_type_symbol
_atom_site_fract_x
_atom_site_fract_y
_atom_site_fract_z
_atom_type_partial_charge
C0 C 0.60073 0.91349 0.76292 0.0
C1 C 0.57715 0.75836 0.83563 0.0
C2 C 0.53461 0.77068 -0.00333 0.0
C3 C 0.51882 0.95029 0.08536 0.0
C4 C 0.53519 1.10451 0.00041 0.0
C5 C 0.57427 1.07769 0.83385 0.0
O6 O 0.90452 1.16047 0.15968 0.0
Tb7 Tb 0.85031 1.0012 0.78433 0.0
O8 O 0.88471 0.74102 0.8078 0.0
O9 O 0.07058 0.1833 0.30882 0.0
Eu10 Eu 0.12101 0.3048 0.07773 0.0
O11 O 0.70462 0.78266 0.61143 0.0
C12 C 0.31549 0.39233 0.26799 0.0
O13 O 0.72813 1.09579 0.69613 0.0
O14 O 0.06419 1.13776 0.69044 0.0
O15 O 0.89555 1.1056 0.5465 0.0
C16 C 0.66372 0.91877 0.63467 0.0
C17 C 0.9943 0.57171 0.94801 0.0
O18 O 0.91708 0.42031 0.9043 0.0
C19 C 0.9841 1.15477 0.31971 0.0
C20 C 0.98109 1.1319 0.52904 0.0
O21 O 0.08704 0.57288 0.04069 0.0
C22 C 0.39903 0.42245 0.19867 0.0
C23 C 0.50888 0.2764 0.0692 0.0
C24 C 0.43858 0.27253 0.1641 0.0
C25 C 0.4322 0.58663 0.14758 0.0
C26 C 0.50618 0.60595 0.06163 0.0
C27 C 0.54551 0.45022 0.0295 0.0
C28 C 0.97735 0.74067 0.89545 0.0
O29 O 0.05461 0.89214 0.93977 0.0
O30 O 0.27369 0.52713 0.28809 0.0
O31 O 0.24907 0.2111 0.16585 0.0
H32 H 0.59081 0.62711 0.76023 0.0
H33 H 0.49914 0.97393 0.23061 0.0
H34 H 0.58496 0.18393 0.75481 0.0
H35 H 0.40657 1.14497 0.19533 0.0
H36 H 0.39504 0.69275 0.16294 0.0
H37 H 0.60849 0.46867 -0.01533 0.0
loop_
_geom_bond_atom_site_label_1
_geom_bond_atom_site_label_2
_geom_bond_distance
_geom_bond_site_symmetry_2
_ccdc_geom_bond_type
C0 C1 1.387 . S
C0 C5 1.380 . S
C0 C16 1.494 . S
C1 C0 1.387 . S
C1 C2 1.386 1_556 S
C1 H32 0.930 . S
C2 C1 1.386 1_554 S
C2 C3 1.397 . S
C3 C2 1.397 . S
C3 C4 1.393 1_554 S
C3 H33 0.930 . S
C4 C3 1.393 1_556 S
C4 C5 1.395 . S
C5 C0 1.380 . S
C5 C4 1.395 . S
C5 H34 0.930 . S
O6 Tb7 2.295 1_554 S
O6 C19 1.242 1_665 S
Tb7 O6 2.295 1_556 S
Tb7 O8 2.312 . S
Tb7 O11 2.438 . S
Tb7 O13 2.472 . S
Tb7 O15 2.308 . S
Tb7 C16 2.821 . S
O8 Tb7 2.312 . S
O8 C28 1.264 1_655 S
O9 Eu10 2.308 . S
O9 C19 1.243 . S
Eu10 O9 2.308 . S
Eu10 C12 2.821 . S
Eu10 O14 2.295 1_554 S
Eu10 O21 2.312 . S
Eu10 O30 2.438 . S
Eu10 O31 2.472 . S
O11 Tb7 2.438 . S
O11 C16 1.263 . S
C12 Eu10 2.821 . S
C12 C22 1.494 . S
C12 O30 1.263 . S
C12 O31 1.264 . S
O13 Tb7 2.472 . S
O13 C16 1.264 . S
O14 Eu10 2.295 1_556 S
O14 C20 1.242 1_445 S
O15 Tb7 2.308 . S
O15 C20 1.243 . S
C16 C0 1.494 . S
C16 Tb7 2.821 . S
C16 O11 1.263 . S
C16 O13 1.264 . S
C17 O18 1.260 . S
C17 O21 1.264 1_655 S
O18 C17 1.260 . S
C19 O6 1.242 1_445 S
C19 O9 1.243 . S
C20 O14 1.242 1_665 S
C20 O15 1.243 . S
O21 Eu10 2.312 . S
O21 C17 1.264 1_455 S
C22 C12 1.494 . S
C22 C24 1.380 . S
C22 C25 1.387 . S
C23 C24 1.395 . S
C23 C27 1.393 1_554 S
C24 C22 1.380 . S
C24 C23 1.395 . S
C24 H35 0.930 . S
C25 C22 1.387 . S
C25 C26 1.386 1_554 S
C25 H36 0.930 . S
C26 C25 1.386 1_556 S
C26 C27 1.397 . S
C27 C23 1.393 1_556 S
C27 C26 1.397 . S
C27 H37 0.930 . S
C28 O8 1.264 1_455 S
C28 O29 1.260 . S
O29 C28 1.260 . S
O30 Eu10 2.438 . S
O30 C12 1.263 . S
O31 Eu10 2.472 . S
O31 C12 1.264 . S
H32 C1 0.930 . S
H33 C3 0.930 . S
H34 C5 0.930 . S
H35 C24 0.930 . S
H36 C25 0.930 . S
H37 C27 0.930 . S
C17 C28 1.428 1_654 S
C4 C23 2.915 1_566 S
C26 C2 2.920 1_556 S
C20 C19 1.501 1_665 S
