# Generated by pormake.
# Topology vby, (6)-cn, num edge types: 1
# Building blocks:
#     Node 0, Type 0, BuildingBlock: MIDCAF_clean_sbu_0, # of connection points: 6
#     Node 1, Type 0, BuildingBlock: MIDCAF_clean_sbu_0, # of connection points: 6
#     Node 2, Type 0, BuildingBlock: MIDCAF_clean_sbu_0, # of connection points: 6
#     Node 3, Type 0, BuildingBlock: MIDCAF_clean_sbu_0, # of connection points: 6
#     Node 4, Type 0, BuildingBlock: MIDCAF_clean_sbu_0, # of connection points: 6
#     Node 5, Type 0, BuildingBlock: MIDCAF_clean_sbu_0, # of connection points: 6
#     Node 6, Type 0, BuildingBlock: MIDCAF_clean_sbu_0, # of connection points: 6
#     Node 7, Type 0, BuildingBlock: MIDCAF_clean_sbu_0, # of connection points: 6
#     Edge 8, Type (0, 0), None
#     Edge 9, Type (0, 0), None
#     Edge 10, Type (0, 0), None
#     Edge 11, Type (0, 0), None
#     Edge 12, Type (0, 0), None
#     Edge 13, Type (0, 0), None
#     Edge 14, Type (0, 0), None
#     Edge 15, Type (0, 0), None
#     Edge 16, Type (0, 0), None
#     Edge 17, Type (0, 0), None
#     Edge 18, Type (0, 0), None
#     Edge 19, Type (0, 0), None
#     Edge 20, Type (0, 0), None
#     Edge 21, Type (0, 0), None
#     Edge 22, Type (0, 0), None
#     Edge 23, Type (0, 0), None
#     Edge 24, Type (0, 0), None
#     Edge 25, Type (0, 0), None
#     Edge 26, Type (0, 0), None
#     Edge 27, Type (0, 0), None
#     Edge 28, Type (0, 0), None
#     Edge 29, Type (0, 0), None
#     Edge 30, Type (0, 0), None
#     Edge 31, Type (0, 0), None
# Relax obj value: 0.138
# Max RMSD: 0.180
# Mean RMSD: 0.180
data_MOF--net-vby--node1-MIDCAF_clean_sbu_0--edge1-none
_symmetry_space_group_name_H-M    P1
_symmetry_Int_Tables_number       1
_symmetry_cell_setting            triclinic
loop_
_symmetry_equiv_pos_as_xyz
'x, y, z'
_cell_length_a     7.6683554
_cell_length_b     27.195649
_cell_length_c     14.176784
_cell_angle_alpha  85.619808
_cell_angle_beta   90.001314
_cell_angle_gamma 90.006859
loop_
_atom_site_label
_atom_site_type_symbol
_atom_site_fract_x
_atom_site_fract_y
_atom_site_fract_z
_atom_type_partial_charge
Zn0 Zn 0.85766 0.29426 0.95192 0.0
Zn1 Zn 0.21579 0.44108 0.84282 0.0
Zn2 Zn 0.0269 0.36926 0.91443 0.0
C3 C 0.07115 0.47298 0.00743 0.0
C4 C -0.03272 0.41432 0.70882 0.0
O5 O 0.18187 0.30051 0.93197 0.0
O6 O -0.00423 0.23936 0.91467 0.0
C7 C 0.90809 0.34713 0.11904 0.0
O8 O 0.02028 0.42766 0.01414 0.0
O9 O 0.15762 0.48966 0.9362 0.0
O10 O 0.10289 0.43954 0.71851 0.0
O11 O 0.89906 0.38876 0.77963 0.0
O12 O 0.87425 0.30547 0.08958 0.0
O13 O -0.04077 0.3826 0.06051 0.0
O14 O 0.75837 0.36816 0.84567 0.0
O15 O 0.62215 0.30117 0.90594 0.0
C16 C 0.61621 0.34264 0.86097 0.0
O17 O 0.30233 0.34439 0.8806 0.0
O18 O 0.44712 0.41336 0.83903 0.0
C19 C 0.14811 0.25396 0.93044 0.0
C20 C 0.44516 0.36711 0.85349 0.0
Zn21 Zn 0.69667 0.55367 0.04557 0.0
Zn22 Zn 0.01667 0.69283 0.10324 0.0
Zn23 Zn 0.8629 0.61849 0.09261 0.0
C24 C 0.27162 0.63069 0.0584 0.0
C25 C 0.91094 0.65964 0.2849 0.0
O26 O 0.5834 0.63536 0.05208 0.0
O27 O 0.45519 0.56236 0.07846 0.0
C28 C 0.894 0.59506 0.89271 0.0
O29 O 0.13279 0.60548 0.0413 0.0
O30 O 0.25909 0.67249 0.09023 0.0
O31 O 0.93472 0.69958 0.23493 0.0
O32 O 0.89593 0.61937 0.24483 0.0
O33 O 0.73884 0.58083 0.90644 0.0
O34 O -0.00527 0.59813 0.9654 0.0
O35 O 0.01881 0.55492 0.0469 0.0
O36 O 0.84016 0.49633 0.10072 0.0
C37 C -0.01398 0.50862 0.06492 0.0
O38 O 0.7129 0.67643 0.01333 0.0
O39 O 0.91598 0.73386 0.99843 0.0
C40 C 0.44412 0.60828 0.05821 0.0
C41 C 0.76833 0.71834 0.97639 0.0
Zn42 Zn 0.21573 0.56858 0.66415 0.0
Zn43 Zn 0.85769 0.71538 0.55501 0.0
Zn44 Zn 0.02689 0.64039 0.59251 0.0
C45 C 0.61621 0.66702 0.64597 0.0
C46 C 0.9081 0.66251 0.3879 0.0
O47 O 0.30234 0.66527 0.62634 0.0
O48 O 0.44707 0.5963 0.66797 0.0
C49 C -0.0328 0.59533 0.79812 0.0
O50 O 0.75836 0.64149 0.66127 0.0
O51 O 0.62218 0.70848 0.60098 0.0
O52 O 0.87429 0.70417 0.41735 0.0
O53 O -0.04078 0.62704 0.44643 0.0
O54 O 0.10278 0.57011 0.78844 0.0
O55 O 0.89902 0.62089 0.7273 0.0
O56 O 0.0203 0.58199 0.49281 0.0
O57 O 0.15763 0.52 0.57075 0.0
C58 C 0.0712 0.53667 0.49951 0.0
O59 O 0.18189 0.70914 0.57498 0.0
O60 O -0.00418 0.77028 0.59228 0.0
C61 C 0.44515 0.64255 0.65348 0.0
C62 C 0.14815 0.75569 0.57652 0.0
Zn63 Zn 0.01667 0.31682 0.40368 0.0
Zn64 Zn 0.69677 0.45598 0.46137 0.0
Zn65 Zn 0.86297 0.39116 0.41432 0.0
C66 C -0.01388 0.50103 0.442 0.0
C67 C 0.89409 0.41459 0.61422 0.0
O68 O 0.71294 0.33322 0.49361 0.0
O69 O 0.91602 0.2758 0.50852 0.0
C70 C 0.91092 0.35001 0.22204 0.0
O71 O 0.0189 0.45473 0.46003 0.0
O72 O 0.84028 0.51331 0.40618 0.0
O73 O 0.73892 0.42882 0.60051 0.0
O74 O -0.00518 0.41152 0.54154 0.0
O75 O 0.93464 0.31006 0.27201 0.0
O76 O 0.89599 0.39027 0.26211 0.0
O77 O 0.13286 0.40416 0.46564 0.0
O78 O 0.25911 0.33716 0.41667 0.0
C79 C 0.27168 0.37895 0.44853 0.0
O80 O 0.58344 0.37428 0.45485 0.0
O81 O 0.45529 0.44729 0.42848 0.0
C82 C 0.76837 0.29131 0.53056 0.0
C83 C 0.44419 0.40137 0.44872 0.0
Zn84 Zn 0.35767 0.79425 0.95193 0.0
Zn85 Zn 0.71582 0.94108 0.84282 0.0
Zn86 Zn 0.52692 0.86926 0.91442 0.0
C87 C 0.57118 0.97298 0.00743 0.0
C88 C 0.4673 0.91432 0.70881 0.0
O89 O 0.68189 0.80051 0.93194 0.0
O90 O 0.49577 0.73936 0.91465 0.0
C91 C 0.40813 0.84712 0.11904 0.0
O92 O 0.5203 0.92765 0.01413 0.0
O93 O 0.65764 0.98966 0.9362 0.0
O94 O 0.60291 0.93954 0.71851 0.0
O95 O 0.39908 0.88876 0.77962 0.0
O96 O 0.37431 0.80546 0.08958 0.0
O97 O 0.45925 0.8826 0.06051 0.0
O98 O 0.2584 0.86816 0.84566 0.0
O99 O 0.12216 0.80117 0.90595 0.0
C100 C 0.11623 0.84264 0.86097 0.0
O101 O 0.80236 0.84439 0.88059 0.0
O102 O 0.94715 0.91336 0.83902 0.0
C103 C 0.64811 0.75396 0.93037 0.0
C104 C 0.94519 0.86711 0.85348 0.0
Zn105 Zn 0.1967 0.05366 0.04558 0.0
Zn106 Zn 0.51671 0.19283 0.10324 0.0
Zn107 Zn 0.36293 0.11848 0.09262 0.0
C108 C 0.77165 0.13069 0.0584 0.0
C109 C 0.41099 0.15964 0.2849 0.0
O110 O 0.08342 0.13535 0.05208 0.0
O111 O -0.04479 0.06235 0.07846 0.0
C112 C 0.39402 0.09506 0.89272 0.0
O113 O 0.63281 0.10547 0.04131 0.0
O114 O 0.75913 0.17249 0.09022 0.0
O115 O 0.43477 0.19959 0.23492 0.0
O116 O 0.39597 0.11937 0.24484 0.0
O117 O 0.23886 0.08083 0.90644 0.0
O118 O 0.49475 0.09813 0.96541 0.0
O119 O 0.51884 0.05491 0.0469 0.0
O120 O 0.34019 0.99632 0.10072 0.0
C121 C 0.48604 0.00861 0.06493 0.0
O122 O 0.21291 0.17642 0.01334 0.0
O123 O 0.41602 0.23386 0.99843 0.0
C124 C 0.94415 0.10827 0.05822 0.0
C125 C 0.26836 0.21833 0.9764 0.0
Zn126 Zn 0.71576 0.06858 0.66415 0.0
Zn127 Zn 0.35771 0.21539 0.555 0.0
Zn128 Zn 0.52691 0.14039 0.59252 0.0
C129 C 0.11624 0.16702 0.64597 0.0
C130 C 0.40815 0.16252 0.3879 0.0
O131 O 0.80237 0.16527 0.62635 0.0
O132 O 0.9471 0.0963 0.66797 0.0
C133 C 0.46722 0.09532 0.79812 0.0
O134 O 0.25839 0.14149 0.66127 0.0
O135 O 0.1222 0.20848 0.60096 0.0
O136 O 0.37436 0.20418 0.41735 0.0
O137 O 0.45925 0.12705 0.44643 0.0
O138 O 0.60281 0.0701 0.78844 0.0
O139 O 0.39904 0.12089 0.72731 0.0
O140 O 0.52033 0.08199 0.49281 0.0
O141 O 0.65765 0.02 0.57075 0.0
C142 C 0.57122 0.03668 0.49951 0.0
O143 O 0.68192 0.20914 0.57501 0.0
O144 O 0.49582 0.27029 0.59231 0.0
C145 C 0.94518 0.14255 0.65348 0.0
C146 C 0.64815 0.25569 0.57659 0.0
Zn147 Zn 0.51671 0.81683 0.40369 0.0
Zn148 Zn 0.19679 0.95599 0.46136 0.0
Zn149 Zn 0.36299 0.89116 0.41431 0.0
C150 C 0.48614 1.00104 0.44199 0.0
C151 C 0.39411 0.9146 0.61421 0.0
O152 O 0.21295 0.83323 0.4936 0.0
O153 O 0.41605 0.7758 0.50852 0.0
C154 C 0.41097 0.85 0.22204 0.0
O155 O 0.51893 0.95474 0.46003 0.0
O156 O 0.3403 0.01332 0.40618 0.0
O157 O 0.23895 0.92882 0.6005 0.0
O158 O 0.49484 0.91152 0.54154 0.0
O159 O 0.43469 0.81006 0.27202 0.0
O160 O 0.39603 0.89027 0.2621 0.0
O161 O 0.63288 0.90417 0.46563 0.0
O162 O 0.75914 0.83717 0.41668 0.0
C163 C 0.7717 0.87896 0.44853 0.0
O164 O 0.08347 0.87429 0.45485 0.0
O165 O -0.04469 0.9473 0.42848 0.0
C166 C 0.2684 0.79132 0.53055 0.0
C167 C 0.94421 0.90138 0.44871 0.0
loop_
_geom_bond_atom_site_label_1
_geom_bond_atom_site_label_2
_geom_bond_distance
_geom_bond_site_symmetry_2
_ccdc_geom_bond_type
Zn0 O6 1.920 1_655 S
Zn0 O12 1.898 . S
Zn0 O15 1.905 . S
Zn1 O9 1.905 . S
Zn1 O10 1.898 . S
Zn1 O18 1.920 . S
Zn2 O5 2.080 1_554 S
Zn2 O8 2.114 1_554 S
Zn2 O11 2.120 1_554 S
Zn2 O13 2.120 . S
Zn2 O14 2.114 1_455 S
Zn2 O17 2.080 . S
C3 O8 1.166 . S
C3 O9 1.182 . S
C4 O10 1.167 . S
C4 O11 1.299 . S
O5 Zn2 2.080 1_556 S
O5 C19 1.305 1_556 S
O6 Zn0 1.920 1_455 S
O6 C19 1.234 . S
C7 O12 1.167 . S
C7 O13 1.299 1_655 S
O8 Zn2 2.114 1_556 S
O8 C3 1.166 . S
O9 Zn1 1.905 . S
O9 C3 1.182 . S
O10 Zn1 1.898 . S
O10 C4 1.167 . S
O11 Zn2 2.120 1_556 S
O11 C4 1.299 . S
O12 Zn0 1.898 . S
O12 C7 1.167 . S
O13 Zn2 2.120 . S
O13 C7 1.299 1_455 S
O14 Zn2 2.114 1_655 S
O14 C16 1.166 . S
O15 Zn0 1.905 . S
O15 C16 1.182 . S
C16 O14 1.166 . S
C16 O15 1.182 . S
O17 Zn2 2.080 . S
O17 C20 1.305 1_554 S
O18 Zn1 1.920 . S
O18 C20 1.234 . S
C19 O5 1.305 1_554 S
C19 O6 1.234 . S
C20 O17 1.305 1_556 S
C20 O18 1.234 . S
Zn21 O27 1.920 . S
Zn21 O33 1.898 . S
Zn21 O36 1.905 . S
Zn22 O30 1.905 . S
Zn22 O31 1.898 . S
Zn22 O39 1.920 1_455 S
Zn23 O26 2.080 . S
Zn23 O29 2.114 1_655 S
Zn23 O32 2.120 . S
Zn23 O34 2.120 1_554 S
Zn23 O35 2.114 1_554 S
Zn23 O38 2.080 1_554 S
C24 O29 1.166 . S
C24 O30 1.182 . S
C25 O31 1.167 . S
C25 O32 1.299 1_455 S
O26 Zn23 2.080 . S
O26 C40 1.305 1_554 S
O27 Zn21 1.920 . S
O27 C40 1.234 . S
C28 O33 1.167 . S
C28 O34 1.299 . S
O29 Zn23 2.114 1_455 S
O29 C24 1.166 . S
O30 Zn22 1.905 . S
O30 C24 1.182 . S
O31 Zn22 1.898 . S
O31 C25 1.167 . S
O32 Zn23 2.120 . S
O32 C25 1.299 1_655 S
O33 Zn21 1.898 . S
O33 C28 1.167 . S
O34 Zn23 2.120 1_556 S
O34 C28 1.299 . S
O35 Zn23 2.114 1_556 S
O35 C37 1.166 . S
O36 Zn21 1.905 . S
O36 C37 1.182 . S
C37 O35 1.166 . S
C37 O36 1.182 . S
O38 Zn23 2.080 1_556 S
O38 C41 1.305 1_556 S
O39 Zn22 1.920 1_655 S
O39 C41 1.234 . S
C40 O26 1.305 1_556 S
C40 O27 1.234 . S
C41 O38 1.305 1_554 S
C41 O39 1.234 . S
Zn42 O48 1.920 . S
Zn42 O54 1.898 . S
Zn42 O57 1.905 . S
Zn43 O51 1.905 . S
Zn43 O52 1.898 . S
Zn43 O60 1.920 1_655 S
Zn44 O47 2.080 . S
Zn44 O50 2.114 1_455 S
Zn44 O53 2.120 . S
Zn44 O55 2.120 . S
Zn44 O56 2.114 . S
Zn44 O59 2.080 . S
C45 O50 1.166 . S
C45 O51 1.182 . S
C46 O52 1.167 . S
C46 O53 1.299 1_655 S
O47 Zn44 2.080 . S
O47 C61 1.305 . S
O48 Zn42 1.920 . S
O48 C61 1.234 . S
C49 O54 1.167 . S
C49 O55 1.299 . S
O50 Zn44 2.114 1_655 S
O50 C45 1.166 . S
O51 Zn43 1.905 . S
O51 C45 1.182 . S
O52 Zn43 1.898 . S
O52 C46 1.167 . S
O53 Zn44 2.120 . S
O53 C46 1.299 1_455 S
O54 Zn42 1.898 . S
O54 C49 1.167 . S
O55 Zn44 2.120 . S
O55 C49 1.299 . S
O56 Zn44 2.114 . S
O56 C58 1.166 . S
O57 Zn42 1.905 . S
O57 C58 1.182 . S
C58 O56 1.166 . S
C58 O57 1.182 . S
O59 Zn44 2.080 . S
O59 C62 1.305 . S
O60 Zn43 1.920 1_455 S
O60 C62 1.234 . S
C61 O47 1.305 . S
C61 O48 1.234 . S
C62 O59 1.305 . S
C62 O60 1.234 . S
Zn63 O69 1.920 1_455 S
Zn63 O75 1.898 . S
Zn63 O78 1.905 . S
Zn64 O72 1.905 . S
Zn64 O73 1.898 . S
Zn64 O81 1.920 . S
Zn65 O68 2.080 . S
Zn65 O71 2.114 . S
Zn65 O74 2.120 . S
Zn65 O76 2.120 . S
Zn65 O77 2.114 1_655 S
Zn65 O80 2.080 . S
C66 O71 1.166 . S
C66 O72 1.182 . S
C67 O73 1.167 . S
C67 O74 1.299 . S
O68 Zn65 2.080 . S
O68 C82 1.305 . S
O69 Zn63 1.920 1_655 S
O69 C82 1.234 . S
C70 O75 1.167 . S
C70 O76 1.299 1_455 S
O71 Zn65 2.114 . S
O71 C66 1.166 . S
O72 Zn64 1.905 . S
O72 C66 1.182 . S
O73 Zn64 1.898 . S
O73 C67 1.167 . S
O74 Zn65 2.120 . S
O74 C67 1.299 . S
O75 Zn63 1.898 . S
O75 C70 1.167 . S
O76 Zn65 2.120 . S
O76 C70 1.299 1_655 S
O77 Zn65 2.114 1_455 S
O77 C79 1.166 . S
O78 Zn63 1.905 . S
O78 C79 1.182 . S
C79 O77 1.166 . S
C79 O78 1.182 . S
O80 Zn65 2.080 . S
O80 C83 1.305 . S
O81 Zn64 1.920 . S
O81 C83 1.234 . S
C82 O68 1.305 . S
C82 O69 1.234 . S
C83 O80 1.305 . S
C83 O81 1.234 . S
Zn84 O90 1.920 . S
Zn84 O96 1.898 . S
Zn84 O99 1.905 . S
Zn85 O93 1.905 1_565 S
Zn85 O94 1.898 . S
Zn85 O102 1.920 1_655 S
Zn86 O89 2.080 1_554 S
Zn86 O92 2.114 1_554 S
Zn86 O95 2.120 1_554 S
Zn86 O97 2.120 . S
Zn86 O98 2.114 . S
Zn86 O101 2.080 . S
C87 O92 1.166 . S
C87 O93 1.182 1_565 S
C88 O94 1.167 . S
C88 O95 1.299 . S
O89 Zn86 2.080 1_556 S
O89 C103 1.305 1_556 S
O90 Zn84 1.920 . S
O90 C103 1.234 . S
C91 O96 1.167 . S
C91 O97 1.299 . S
O92 Zn86 2.114 1_556 S
O92 C87 1.166 . S
O93 Zn85 1.905 1_545 S
O93 C87 1.182 1_545 S
O94 Zn85 1.898 . S
O94 C88 1.167 . S
O95 Zn86 2.120 1_556 S
O95 C88 1.299 . S
O96 Zn84 1.898 . S
O96 C91 1.167 . S
O97 Zn86 2.120 . S
O97 C91 1.299 . S
O98 Zn86 2.114 . S
O98 C100 1.166 . S
O99 Zn84 1.905 . S
O99 C100 1.182 . S
C100 O98 1.166 . S
C100 O99 1.182 . S
O101 Zn86 2.080 . S
O101 C104 1.305 1_654 S
O102 Zn85 1.920 1_455 S
O102 C104 1.234 . S
C103 O89 1.305 1_554 S
C103 O90 1.234 . S
C104 O101 1.305 1_456 S
C104 O102 1.234 . S
Zn105 O111 1.920 1_455 S
Zn105 O117 1.898 . S
Zn105 O120 1.905 1_545 S
Zn106 O114 1.905 . S
Zn106 O115 1.898 . S
Zn106 O123 1.920 . S
Zn107 O110 2.080 . S
Zn107 O113 2.114 . S
Zn107 O116 2.120 . S
Zn107 O118 2.120 1_554 S
Zn107 O119 2.114 1_554 S
Zn107 O122 2.080 1_554 S
C108 O113 1.166 . S
C108 O114 1.182 . S
C109 O115 1.167 . S
C109 O116 1.299 . S
O110 Zn107 2.080 . S
O110 C124 1.305 1_454 S
O111 Zn105 1.920 1_655 S
O111 C124 1.234 . S
C112 O117 1.167 . S
C112 O118 1.299 . S
O113 Zn107 2.114 . S
O113 C108 1.166 . S
O114 Zn106 1.905 . S
O114 C108 1.182 . S
O115 Zn106 1.898 . S
O115 C109 1.167 . S
O116 Zn107 2.120 . S
O116 C109 1.299 . S
O117 Zn105 1.898 . S
O117 C112 1.167 . S
O118 Zn107 2.120 1_556 S
O118 C112 1.299 . S
O119 Zn107 2.114 1_556 S
O119 C121 1.166 . S
O120 Zn105 1.905 1_565 S
O120 C121 1.182 1_565 S
C121 O119 1.166 . S
C121 O120 1.182 1_545 S
O122 Zn107 2.080 1_556 S
O122 C125 1.305 1_556 S
O123 Zn106 1.920 . S
O123 C125 1.234 . S
C124 O110 1.305 1_656 S
C124 O111 1.234 . S
C125 O122 1.305 1_554 S
C125 O123 1.234 . S
Zn126 O132 1.920 1_655 S
Zn126 O138 1.898 . S
Zn126 O141 1.905 1_545 S
Zn127 O135 1.905 . S
Zn127 O136 1.898 . S
Zn127 O144 1.920 . S
Zn128 O131 2.080 . S
Zn128 O134 2.114 . S
Zn128 O137 2.120 . S
Zn128 O139 2.120 . S
Zn128 O140 2.114 . S
Zn128 O143 2.080 . S
C129 O134 1.166 . S
C129 O135 1.182 . S
C130 O136 1.167 . S
C130 O137 1.299 . S
O131 Zn128 2.080 . S
O131 C145 1.305 1_655 S
O132 Zn126 1.920 1_455 S
O132 C145 1.234 . S
C133 O138 1.167 . S
C133 O139 1.299 . S
O134 Zn128 2.114 . S
O134 C129 1.166 . S
O135 Zn127 1.905 . S
O135 C129 1.182 . S
O136 Zn127 1.898 . S
O136 C130 1.167 . S
O137 Zn128 2.120 . S
O137 C130 1.299 . S
O138 Zn126 1.898 . S
O138 C133 1.167 . S
O139 Zn128 2.120 . S
O139 C133 1.299 . S
O140 Zn128 2.114 . S
O140 C142 1.166 . S
O141 Zn126 1.905 1_565 S
O141 C142 1.182 1_565 S
C142 O140 1.166 . S
C142 O141 1.182 1_545 S
O143 Zn128 2.080 . S
O143 C146 1.305 . S
O144 Zn127 1.920 . S
O144 C146 1.234 . S
C145 O131 1.305 1_455 S
C145 O132 1.234 . S
C146 O143 1.305 . S
C146 O144 1.234 . S
Zn147 O153 1.920 . S
Zn147 O159 1.898 . S
Zn147 O162 1.905 . S
Zn148 O156 1.905 1_565 S
Zn148 O157 1.898 . S
Zn148 O165 1.920 1_455 S
Zn149 O152 2.080 . S
Zn149 O155 2.114 . S
Zn149 O158 2.120 . S
Zn149 O160 2.120 . S
Zn149 O161 2.114 . S
Zn149 O164 2.080 . S
C150 O155 1.166 . S
C150 O156 1.182 1_565 S
C151 O157 1.167 . S
C151 O158 1.299 . S
O152 Zn149 2.080 . S
O152 C166 1.305 . S
O153 Zn147 1.920 . S
O153 C166 1.234 . S
C154 O159 1.167 . S
C154 O160 1.299 . S
O155 Zn149 2.114 . S
O155 C150 1.166 . S
O156 Zn148 1.905 1_545 S
O156 C150 1.182 1_545 S
O157 Zn148 1.898 . S
O157 C151 1.167 . S
O158 Zn149 2.120 . S
O158 C151 1.299 . S
O159 Zn147 1.898 . S
O159 C154 1.167 . S
O160 Zn149 2.120 . S
O160 C154 1.299 . S
O161 Zn149 2.114 . S
O161 C163 1.166 . S
O162 Zn147 1.905 . S
O162 C163 1.182 . S
C163 O161 1.166 . S
C163 O162 1.182 . S
O164 Zn149 2.080 . S
O164 C167 1.305 1_455 S
O165 Zn148 1.920 1_655 S
O165 C167 1.234 . S
C166 O152 1.305 . S
C166 O153 1.234 . S
C167 O164 1.305 1_655 S
C167 O165 1.234 . S
C20 C16 1.874 1_556 S
C24 C40 1.874 1_554 S
C45 C61 1.874 . S
C83 C79 1.874 . S
C104 C100 1.874 1_556 S
C124 C108 1.874 1_556 S
C129 C145 1.874 . S
C163 C167 1.874 . S
C37 C3 1.760 1_655 S
C66 C58 1.760 1_655 S
C87 C121 1.760 1_565 S
C142 C150 1.760 1_545 S
C19 C125 1.679 . S
C103 C41 1.679 . S
C62 C166 1.679 . S
C82 C146 1.679 . S
C7 C70 1.011 1_655 S
C25 C46 1.011 1_455 S
C28 C49 1.173 1_655 S
C67 C4 1.173 1_655 S
C91 C154 1.011 . S
C109 C130 1.011 . S
C112 C133 1.173 . S
C151 C88 1.173 . S
