# Generated by pormake.
# Topology npo, (4)-cn, num edge types: 1
# Building blocks:
#     Node 0, Type 0, BuildingBlock: GALJAG_clean_sbu_0, # of connection points: 4
#     Node 1, Type 0, BuildingBlock: GALJAG_clean_sbu_0, # of connection points: 4
#     Node 2, Type 0, BuildingBlock: GALJAG_clean_sbu_0, # of connection points: 4
#     Node 3, Type 0, BuildingBlock: GALJAG_clean_sbu_0, # of connection points: 4
#     Node 4, Type 0, BuildingBlock: GALJAG_clean_sbu_0, # of connection points: 4
#     Node 5, Type 0, BuildingBlock: GALJAG_clean_sbu_0, # of connection points: 4
#     Edge 6, Type (0, 0), None
#     Edge 7, Type (0, 0), None
#     Edge 8, Type (0, 0), None
#     Edge 9, Type (0, 0), None
#     Edge 10, Type (0, 0), None
#     Edge 11, Type (0, 0), None
#     Edge 12, Type (0, 0), None
#     Edge 13, Type (0, 0), None
#     Edge 14, Type (0, 0), None
#     Edge 15, Type (0, 0), None
#     Edge 16, Type (0, 0), None
#     Edge 17, Type (0, 0), None
# Relax obj value: 0.168
# Max RMSD: 0.203
# Mean RMSD: 0.203
data_MOF--net-npo--node1-GALJAG_clean_sbu_0--edge1-none
_symmetry_space_group_name_H-M    P1
_symmetry_Int_Tables_number       1
_symmetry_cell_setting            triclinic
loop_
_symmetry_equiv_pos_as_xyz
'x, y, z'
_cell_length_a     21.017548
_cell_length_b     21.017086
_cell_length_c     10.394747
_cell_angle_alpha  90.000483
_cell_angle_beta   89.999369
_cell_angle_gamma 120.00022
loop_
_atom_site_label
_atom_site_type_symbol
_atom_site_fract_x
_atom_site_fract_y
_atom_site_fract_z
_atom_type_partial_charge
In0 In 0.55711 0.11961 0.21374 0.0
O1 O 0.47048 0.04776 0.06617 0.0
O2 O 0.57188 0.04775 0.06619 0.0
C3 C 0.51607 0.22253 0.21375 0.0
C4 C 0.50906 0.02353 0.41047 0.0
C5 C 0.70106 0.22253 0.21374 0.0
O6 O 0.52417 0.19505 0.11158 0.0
O7 O 0.52416 0.19504 0.31592 0.0
O8 O 0.66549 0.19505 0.31591 0.0
O9 O 0.66549 0.19504 0.11157 0.0
C10 C 0.50907 0.02353 0.01701 0.0
O11 O 0.57188 0.04775 0.36131 0.0
O12 O 0.47047 0.04776 0.3613 0.0
In13 In 0.43477 0.55844 0.71375 0.0
O14 O 0.42 0.47181 0.56618 0.0
O15 O 0.52141 0.57323 0.56619 0.0
C16 C 0.29082 0.51739 0.71375 0.0
C17 C 0.48282 0.5104 0.91048 0.0
C18 C 0.47581 0.70239 0.71374 0.0
O19 O 0.32639 0.52549 0.61158 0.0
O20 O 0.32639 0.52549 0.81592 0.0
O21 O 0.46771 0.66682 0.81591 0.0
O22 O 0.46772 0.66682 0.61157 0.0
C23 C 0.48282 0.51041 0.51701 0.0
O24 O 0.5214 0.57323 0.86132 0.0
O25 O 0.42 0.4718 0.86129 0.0
In26 In 0.87362 0.43613 0.21375 0.0
O27 O 0.94546 0.42135 0.06617 0.0
O28 O 0.94549 0.52277 0.0662 0.0
C29 C 0.77069 0.2922 0.21375 0.0
C30 C 0.9697 0.48416 0.41047 0.0
C31 C 0.77072 0.47718 0.21373 0.0
O32 O 0.79818 0.32775 0.11157 0.0
O33 O 0.79819 0.32776 0.31594 0.0
O34 O 0.79819 0.46909 0.31591 0.0
O35 O 0.7982 0.46909 0.11157 0.0
C36 C 0.9697 0.48417 0.01702 0.0
O37 O 0.94548 0.52276 0.36131 0.0
O38 O 0.94547 0.42135 0.3613 0.0
In39 In 0.43477 0.87496 0.71374 0.0
O40 O 0.42 0.94682 0.8613 0.0
O41 O 0.52141 0.94681 0.86129 0.0
C42 C 0.29082 0.77205 0.71373 0.0
C43 C 0.48282 0.97104 0.51702 0.0
C44 C 0.47576 0.77202 0.71375 0.0
O45 O 0.32639 0.79953 0.81591 0.0
O46 O 0.32639 0.79953 0.61157 0.0
O47 O 0.46771 0.79952 0.61156 0.0
O48 O 0.46771 0.79952 0.81593 0.0
C49 C 0.48283 0.97104 0.91047 0.0
O50 O 0.5214 0.94681 0.56617 0.0
O51 O 0.42 0.94683 0.5662 0.0
In52 In 0.55712 0.43613 0.21374 0.0
O53 O 0.57188 0.52276 0.06618 0.0
O54 O 0.47048 0.42135 0.06619 0.0
C55 C 0.70104 0.47714 0.21375 0.0
C56 C 0.50907 0.48417 0.41047 0.0
C57 C 0.51612 0.2922 0.21374 0.0
O58 O 0.66549 0.46908 0.11156 0.0
O59 O 0.66549 0.46908 0.31593 0.0
O60 O 0.52417 0.32775 0.31592 0.0
O61 O 0.52417 0.32776 0.11155 0.0
C62 C 0.50906 0.48416 0.01702 0.0
O63 O 0.47048 0.42135 0.36131 0.0
O64 O 0.57188 0.52277 0.36129 0.0
In65 In 0.11827 0.55844 0.71374 0.0
O66 O 0.04641 0.47181 0.8613 0.0
O67 O 0.04641 0.57323 0.8613 0.0
C68 C 0.22119 0.51744 0.71374 0.0
C69 C 0.02218 0.5104 0.51702 0.0
C70 C 0.22119 0.70237 0.71375 0.0
O71 O 0.1937 0.5255 0.81592 0.0
O72 O 0.1937 0.52549 0.61155 0.0
O73 O 0.1937 0.66682 0.61156 0.0
O74 O 0.1937 0.66682 0.81593 0.0
C75 C 0.02218 0.51041 0.91047 0.0
O76 O 0.04642 0.57323 0.56618 0.0
O77 O 0.0464 0.4718 0.5662 0.0
loop_
_geom_bond_atom_site_label_1
_geom_bond_atom_site_label_2
_geom_bond_distance
_geom_bond_site_symmetry_2
_ccdc_geom_bond_type
In0 O1 2.294 . S
In0 O2 2.326 . S
In0 O6 2.266 . S
In0 O7 2.326 . S
In0 O8 2.266 . S
In0 O9 2.326 . S
In0 O11 2.294 . S
In0 O12 2.326 . S
O1 In0 2.294 . S
O1 C10 1.240 . S
O2 In0 2.326 . S
O2 C10 1.252 . S
C3 O6 1.252 . S
C3 O7 1.260 . S
C4 O11 1.240 . S
C4 O12 1.252 . S
C5 O8 1.252 . S
C5 O9 1.260 . S
O6 In0 2.266 . S
O6 C3 1.252 . S
O7 In0 2.326 . S
O7 C3 1.260 . S
O8 In0 2.266 . S
O8 C5 1.252 . S
O9 In0 2.326 . S
O9 C5 1.260 . S
C10 O1 1.240 . S
C10 O2 1.252 . S
O11 In0 2.294 . S
O11 C4 1.240 . S
O12 In0 2.326 . S
O12 C4 1.252 . S
In13 O14 2.294 . S
In13 O15 2.326 . S
In13 O19 2.266 . S
In13 O20 2.326 . S
In13 O21 2.266 . S
In13 O22 2.326 . S
In13 O24 2.294 . S
In13 O25 2.326 . S
O14 In13 2.294 . S
O14 C23 1.240 . S
O15 In13 2.326 . S
O15 C23 1.252 . S
C16 O19 1.252 . S
C16 O20 1.260 . S
C17 O24 1.240 . S
C17 O25 1.252 . S
C18 O21 1.252 . S
C18 O22 1.260 . S
O19 In13 2.266 . S
O19 C16 1.252 . S
O20 In13 2.326 . S
O20 C16 1.260 . S
O21 In13 2.266 . S
O21 C18 1.252 . S
O22 In13 2.326 . S
O22 C18 1.260 . S
C23 O14 1.240 . S
C23 O15 1.252 . S
O24 In13 2.294 . S
O24 C17 1.240 . S
O25 In13 2.326 . S
O25 C17 1.252 . S
In26 O27 2.294 . S
In26 O28 2.326 . S
In26 O32 2.266 . S
In26 O33 2.326 . S
In26 O34 2.266 . S
In26 O35 2.326 . S
In26 O37 2.294 . S
In26 O38 2.326 . S
O27 In26 2.294 . S
O27 C36 1.240 . S
O28 In26 2.326 . S
O28 C36 1.252 . S
C29 O32 1.252 . S
C29 O33 1.260 . S
C30 O37 1.240 . S
C30 O38 1.252 . S
C31 O34 1.252 . S
C31 O35 1.260 . S
O32 In26 2.266 . S
O32 C29 1.252 . S
O33 In26 2.326 . S
O33 C29 1.260 . S
O34 In26 2.266 . S
O34 C31 1.252 . S
O35 In26 2.326 . S
O35 C31 1.260 . S
C36 O27 1.240 . S
C36 O28 1.252 . S
O37 In26 2.294 . S
O37 C30 1.240 . S
O38 In26 2.326 . S
O38 C30 1.252 . S
In39 O40 2.294 . S
In39 O41 2.326 . S
In39 O45 2.266 . S
In39 O46 2.326 . S
In39 O47 2.266 . S
In39 O48 2.326 . S
In39 O50 2.294 . S
In39 O51 2.326 . S
O40 In39 2.294 . S
O40 C49 1.240 . S
O41 In39 2.326 . S
O41 C49 1.252 . S
C42 O45 1.252 . S
C42 O46 1.260 . S
C43 O50 1.240 . S
C43 O51 1.252 . S
C44 O47 1.252 . S
C44 O48 1.260 . S
O45 In39 2.266 . S
O45 C42 1.252 . S
O46 In39 2.326 . S
O46 C42 1.260 . S
O47 In39 2.266 . S
O47 C44 1.252 . S
O48 In39 2.326 . S
O48 C44 1.260 . S
C49 O40 1.240 . S
C49 O41 1.252 . S
O50 In39 2.294 . S
O50 C43 1.240 . S
O51 In39 2.326 . S
O51 C43 1.252 . S
In52 O53 2.294 . S
In52 O54 2.326 . S
In52 O58 2.266 . S
In52 O59 2.326 . S
In52 O60 2.266 . S
In52 O61 2.326 . S
In52 O63 2.294 . S
In52 O64 2.326 . S
O53 In52 2.294 . S
O53 C62 1.240 . S
O54 In52 2.326 . S
O54 C62 1.252 . S
C55 O58 1.252 . S
C55 O59 1.260 . S
C56 O63 1.240 . S
C56 O64 1.252 . S
C57 O60 1.252 . S
C57 O61 1.260 . S
O58 In52 2.266 . S
O58 C55 1.252 . S
O59 In52 2.326 . S
O59 C55 1.260 . S
O60 In52 2.266 . S
O60 C57 1.252 . S
O61 In52 2.326 . S
O61 C57 1.260 . S
C62 O53 1.240 . S
C62 O54 1.252 . S
O63 In52 2.294 . S
O63 C56 1.240 . S
O64 In52 2.326 . S
O64 C56 1.252 . S
In65 O66 2.294 . S
In65 O67 2.326 . S
In65 O71 2.266 . S
In65 O72 2.326 . S
In65 O73 2.266 . S
In65 O74 2.326 . S
In65 O76 2.294 . S
In65 O77 2.326 . S
O66 In65 2.294 . S
O66 C75 1.240 . S
O67 In65 2.326 . S
O67 C75 1.252 . S
C68 O71 1.252 . S
C68 O72 1.260 . S
C69 O76 1.240 . S
C69 O77 1.252 . S
C70 O73 1.252 . S
C70 O74 1.260 . S
O71 In65 2.266 . S
O71 C68 1.252 . S
O72 In65 2.326 . S
O72 C68 1.260 . S
O73 In65 2.266 . S
O73 C70 1.252 . S
O74 In65 2.326 . S
O74 C70 1.260 . S
C75 O66 1.240 . S
C75 O67 1.252 . S
O76 In65 2.294 . S
O76 C69 1.240 . S
O77 In65 2.326 . S
O77 C69 1.252 . S
C3 C57 1.564 . S
C16 C68 1.564 . S
C5 C29 1.564 . S
C44 C18 1.564 . S
C55 C31 1.564 . S
C42 C70 1.564 . S
C49 C10 1.486 1_566 S
C56 C23 1.486 . S
C75 C36 1.486 1_456 S
C4 C43 1.486 1_545 S
C17 C62 1.486 1_556 S
C69 C30 1.486 1_455 S
