# Generated by pormake.
# Topology lcy, (6)-cn, num edge types: 1
# Building blocks:
#     Node 0, Type 0, BuildingBlock: OJICUG_clean_sbu_0, # of connection points: 6
#     Node 1, Type 0, BuildingBlock: OJICUG_clean_sbu_0, # of connection points: 6
#     Node 2, Type 0, BuildingBlock: OJICUG_clean_sbu_0, # of connection points: 6
#     Node 3, Type 0, BuildingBlock: OJICUG_clean_sbu_0, # of connection points: 6
#     Edge 4, Type (0, 0), BuildingBlock: AJUNOK_clean_linker_0, # of connection points: 2
#     Edge 5, Type (0, 0), BuildingBlock: AJUNOK_clean_linker_0, # of connection points: 2
#     Edge 6, Type (0, 0), BuildingBlock: AJUNOK_clean_linker_0, # of connection points: 2
#     Edge 7, Type (0, 0), BuildingBlock: AJUNOK_clean_linker_0, # of connection points: 2
#     Edge 8, Type (0, 0), BuildingBlock: AJUNOK_clean_linker_0, # of connection points: 2
#     Edge 9, Type (0, 0), BuildingBlock: AJUNOK_clean_linker_0, # of connection points: 2
#     Edge 10, Type (0, 0), BuildingBlock: AJUNOK_clean_linker_0, # of connection points: 2
#     Edge 11, Type (0, 0), BuildingBlock: AJUNOK_clean_linker_0, # of connection points: 2
#     Edge 12, Type (0, 0), BuildingBlock: AJUNOK_clean_linker_0, # of connection points: 2
#     Edge 13, Type (0, 0), BuildingBlock: AJUNOK_clean_linker_0, # of connection points: 2
#     Edge 14, Type (0, 0), BuildingBlock: AJUNOK_clean_linker_0, # of connection points: 2
#     Edge 15, Type (0, 0), BuildingBlock: AJUNOK_clean_linker_0, # of connection points: 2
# Relax obj value: 0.357
# Max RMSD: 0.279
# Mean RMSD: 0.279
data_MOF--net-lcy--node1-OJICUG_clean_sbu_0--edge1-AJUNOK_clean_linker_0
_symmetry_space_group_name_H-M    P1
_symmetry_Int_Tables_number       1
_symmetry_cell_setting            triclinic
loop_
_symmetry_equiv_pos_as_xyz
'x, y, z'
_cell_length_a     19.680299
_cell_length_b     19.530746
_cell_length_c     19.711762
_cell_angle_alpha  90.277665
_cell_angle_beta   90.090637
_cell_angle_gamma 90.020705
loop_
_atom_site_label
_atom_site_type_symbol
_atom_site_fract_x
_atom_site_fract_y
_atom_site_fract_z
_atom_type_partial_charge
Sc0 Sc 0.3278 0.46433 0.39888 0.0
Sc1 Sc 0.3493 0.292 0.41502 0.0
Sc2 Sc 0.44472 0.38091 0.29935 0.0
O3 O 0.37456 0.37911 0.37032 0.0
C4 C 0.32203 0.47666 0.24491 0.0
C5 C 0.2124 0.34807 0.4098 0.0
C6 C 0.38861 0.24105 0.26472 0.0
C7 C 0.33561 0.40501 0.53304 0.0
C8 C 0.47615 0.52011 0.35943 0.0
C9 C 0.5038 0.28379 0.41843 0.0
O10 O 0.2897 0.47661 0.30046 0.0
O11 O 0.24965 0.30672 0.3769 0.0
O12 O 0.39536 0.30173 0.24425 0.0
O13 O 0.36794 0.44749 0.4971 0.0
O14 O 0.4985 0.46029 0.34985 0.0
O15 O 0.44874 0.28193 0.45161 0.0
O16 O 0.41352 0.53113 0.3724 0.0
O17 O 0.32052 0.34573 0.50947 0.0
O18 O 0.50878 0.30821 0.35805 0.0
O19 O 0.23504 0.40729 0.42656 0.0
O20 O 0.383 0.45363 0.23832 0.0
O21 O 0.37686 0.22804 0.32709 0.0
Sc22 Sc 0.94564 0.11828 0.68663 0.0
Sc23 Sc 0.82713 0.03555 0.58796 0.0
Sc24 Sc 0.85024 0.20806 0.57136 0.0
O25 O 0.87471 0.12069 0.61618 0.0
C26 C 0.88945 0.25788 0.72233 0.0
C27 C 0.82495 0.02018 0.74136 0.0
C28 C 0.71247 0.15231 0.57724 0.0
C29 C 0.97571 0.97967 0.62575 0.0
C30 C 0.00442 0.21822 0.57016 0.0
C31 C 0.83535 0.09501 0.45333 0.0
O32 O 0.89694 0.19716 0.74267 0.0
O33 O 0.79012 0.02213 0.68719 0.0
O34 O 0.75039 0.19408 0.60888 0.0
O35 O -0.00153 0.03951 0.63441 0.0
O36 O 0.95017 0.21926 0.53544 0.0
O37 O 0.86674 0.05201 0.48954 0.0
O38 O 0.009 0.19176 0.62956 0.0
O39 O 0.91281 0.96876 0.61393 0.0
O40 O 0.82116 0.15459 0.47667 0.0
O41 O 0.88536 0.04471 0.74696 0.0
O42 O 0.87751 0.2711 0.65998 0.0
O43 O 0.73453 0.093 0.56017 0.0
Sc44 Sc 0.16689 0.53611 0.89997 0.0
Sc45 Sc 0.14969 0.71011 0.91308 0.0
Sc46 Sc 0.05054 0.62001 0.80012 0.0
O47 O 0.12162 0.62197 0.87045 0.0
C48 C 0.16849 0.51736 0.74613 0.0
C49 C 0.28501 0.64983 0.90721 0.0
C50 C 0.10881 0.75777 0.7628 0.0
C51 C 0.16102 0.60114 0.03391 0.0
C52 C 0.01708 0.48254 0.86229 0.0
C53 C -0.00458 0.72409 0.91645 0.0
O54 O 0.20226 0.51714 0.80103 0.0
O55 O 0.2483 0.69127 0.87416 0.0
O56 O 0.10072 0.69676 0.74336 0.0
O57 O 0.12927 0.55717 -0.00141 0.0
O58 O -0.0044 0.54244 0.85159 0.0
O59 O 0.05051 0.72599 0.94992 0.0
O60 O 0.07937 0.47096 0.87618 0.0
O61 O 0.17842 0.65866 0.00833 0.0
O62 O 0.98902 0.69499 0.8581 0.0
O63 O 0.26146 0.59151 0.92511 0.0
O64 O 0.10981 0.54561 0.73966 0.0
O65 O 0.12251 0.77208 0.82458 0.0
Sc66 Sc 0.65059 0.78992 0.07342 0.0
Sc67 Sc 0.66599 0.96442 0.08469 0.0
Sc68 Sc 0.55018 0.88057 0.18495 0.0
O69 O 0.62161 0.87826 0.11514 0.0
C70 C 0.49607 0.77412 0.0698 0.0
C71 C 0.66111 0.89855 0.95174 0.0
C72 C 0.51642 0.0177 0.12257 0.0
C73 C 0.78523 0.85207 0.07728 0.0
C74 C 0.60959 0.74297 0.22412 0.0
C75 C 0.66833 0.98397 0.23853 0.0
O76 O 0.55159 0.77117 0.03725 0.0
O77 O 0.62764 0.94155 0.98656 0.0
O78 O 0.4952 0.95765 0.13268 0.0
O79 O 0.74934 0.81092 0.1115 0.0
O80 O 0.59934 0.80387 0.24296 0.0
O81 O 0.70178 0.98444 0.18349 0.0
O82 O 0.62491 0.72862 0.16275 0.0
O83 O 0.76085 0.90995 0.05918 0.0
O84 O 0.60982 0.95528 0.24513 0.0
O85 O 0.67785 0.84083 0.9774 0.0
O86 O 0.48881 0.80556 0.12683 0.0
O87 O 0.57857 0.02948 0.1086 0.0
C88 C 0.26563 0.5975 0.10666 0.0
C89 C 0.19903 0.57433 0.09287 0.0
C90 C 0.30788 0.56296 0.15276 0.0
C91 C 0.28429 0.50492 0.18718 0.0
H92 H 0.28589 0.64157 0.08055 0.0
H93 H 0.3583 0.58285 0.16294 0.0
S94 S 0.11322 0.42635 0.17317 0.0
N95 N 0.11122 0.49129 0.11993 0.0
N96 N 0.18997 0.42736 0.20704 0.0
C97 C 0.21754 0.48235 0.17513 0.0
C98 C 0.17497 0.51694 0.12815 0.0
C99 C 0.7355 0.079 0.28953 0.0
C100 C 0.70217 0.01563 0.29723 0.0
C101 C 0.77846 0.10495 0.34032 0.0
C102 C 0.79133 0.06708 0.39921 0.0
H103 H 0.72919 0.10808 0.24327 0.0
H104 H 0.80298 0.154 0.33279 0.0
S105 S 0.71287 0.90019 0.44501 0.0
N106 N 0.68151 0.91772 0.36935 0.0
N107 N 0.76355 0.96481 0.46432 0.0
C108 C 0.75683 0.00428 0.40807 0.0
C109 C 0.71178 0.97901 0.3572 0.0
C110 C 0.23243 0.42093 0.69437 0.0
C111 C 0.20212 0.48584 0.68754 0.0
C112 C 0.27549 0.39459 0.64405 0.0
C113 C 0.29145 0.43349 0.58661 0.0
H114 H 0.22372 0.39092 0.73963 0.0
H115 H 0.29772 0.34435 0.65089 0.0
S116 S 0.22104 0.6047 0.54341 0.0
N117 N 0.1874 0.58657 0.61784 0.0
N118 N 0.26941 0.53854 0.52357 0.0
C119 C 0.25988 0.49795 0.5786 0.0
C120 C 0.21487 0.52377 0.62904 0.0
C121 C 0.69878 0.99722 0.881 0.0
C122 C 0.7018 0.92633 0.89462 0.0
C123 C 0.74257 0.02789 0.83447 0.0
C124 C 0.79116 0.98919 0.79961 0.0
H125 H 0.66276 0.03 0.90698 0.0
H126 H 0.73723 0.08214 0.8244 0.0
S127 S 0.81784 0.80199 0.8109 0.0
N128 N 0.75667 0.81802 0.86607 0.0
N129 N 0.83806 0.87656 0.77725 0.0
C130 C 0.79445 0.91847 0.81101 0.0
C131 C 0.74999 0.88684 0.8588 0.0
C132 C 0.09941 0.21349 0.48957 0.0
C133 C 0.0631 0.25062 0.53834 0.0
C134 C 0.1451 0.2462 0.44627 0.0
C135 C 0.15615 0.31762 0.44987 0.0
H136 H 0.09092 0.15895 0.48352 0.0
H137 H 0.17233 0.2147 0.41004 0.0
S138 S 0.06773 0.43805 0.56654 0.0
N139 N 0.03688 0.36205 0.58618 0.0
N140 N 0.12342 0.42452 0.50529 0.0
C141 C 0.11883 0.35544 0.49823 0.0
C142 C 0.07222 0.3217 0.54235 0.0
C143 C 0.10242 0.88138 0.73138 0.0
C144 C 0.08676 0.81293 0.71614 0.0
C145 C 0.07016 0.93509 0.6974 0.0
C146 C 0.01982 0.92252 0.64775 0.0
H147 H 0.13736 0.8937 0.77219 0.0
H148 H 0.08152 0.98685 0.71385 0.0
S149 S 0.96702 0.75284 0.58187 0.0
N150 N 0.02342 0.73555 0.64144 0.0
N151 N 0.96152 0.83711 0.57959 0.0
C152 C 0.00715 0.8546 0.62853 0.0
C153 C 0.04101 0.79968 0.66211 0.0
C154 C 0.34088 0.75084 0.96178 0.0
C155 C 0.34127 0.67982 0.94758 0.0
C156 C 0.3883 0.78048 0.00596 0.0
C157 C 0.43815 0.74042 0.03709 0.0
H158 H 0.30301 0.78408 0.93943 0.0
H159 H 0.38748 0.83544 0.01384 0.0
S160 S 0.4617 0.55303 0.01878 0.0
N161 N 0.3955 0.57038 0.97016 0.0
N162 N 0.48607 0.62695 0.0519 0.0
C163 C 0.43941 0.66969 0.02394 0.0
C164 C 0.39065 0.63917 0.97951 0.0
C165 C 0.39458 0.11667 0.23392 0.0
C166 C 0.40894 0.18502 0.2176 0.0
C167 C 0.42512 0.06258 0.19837 0.0
C168 C 0.47244 0.07467 0.14597 0.0
H169 H 0.36208 0.10475 0.27657 0.0
H170 H 0.41514 0.01099 0.21566 0.0
S171 S 0.52022 0.24372 0.07654 0.0
N172 N 0.46735 0.26156 0.13909 0.0
N173 N 0.52604 0.15944 0.07433 0.0
C174 C 0.48347 0.14241 0.1258 0.0
C175 C 0.45136 0.19766 0.16102 0.0
C176 C 0.63876 0.15866 0.4734 0.0
C177 C 0.65507 0.18264 0.53914 0.0
C178 C 0.59342 0.19459 0.43146 0.0
C179 C 0.56266 0.25526 0.45423 0.0
H180 H 0.66203 0.11259 0.45359 0.0
H181 H 0.58063 0.1736 0.38208 0.0
S182 S 0.5849 0.33801 0.62245 0.0
N183 N 0.63471 0.27007 0.62504 0.0
N184 N 0.54925 0.33673 0.5466 0.0
C185 C 0.57771 0.27921 0.51982 0.0
C186 C 0.62375 0.24306 0.56225 0.0
C187 C 0.92505 0.43672 0.78774 0.0
C188 C 0.97296 0.42523 0.83986 0.0
C189 C 0.89444 0.38225 0.75279 0.0
C190 C 0.90935 0.3141 0.76942 0.0
H191 H 0.9147 0.48812 0.77011 0.0
H192 H 0.86156 0.39373 0.7102 0.0
S193 S 0.02198 0.25694 0.9103 0.0
N194 N 0.02748 0.34125 0.91189 0.0
N195 N 0.96867 0.23837 0.84815 0.0
C196 C 0.95222 0.30205 0.82588 0.0
C197 C 0.9844 0.3577 0.86053 0.0
C198 C 0.89815 0.71841 -0.0055 0.0
C199 C 0.93719 0.75677 0.94925 0.0
C200 C 0.85152 0.75029 0.03773 0.0
C201 C 0.84193 0.822 0.03727 0.0
H202 H 0.90513 0.66348 -0.00214 0.0
H203 H 0.82223 0.71789 0.07121 0.0
S204 S 0.93531 0.94509 0.92861 0.0
N205 N 0.96656 0.86948 0.90737 0.0
N206 N 0.87739 0.93019 0.98732 0.0
C207 C 0.88145 0.86092 0.99202 0.0
C208 C 0.92948 0.82814 0.94841 0.0
C209 C 0.60281 0.61895 0.25429 0.0
C210 C 0.58827 0.68736 0.27079 0.0
C211 C 0.57017 0.56503 0.28757 0.0
C212 C 0.52058 0.57729 0.33789 0.0
H213 H 0.63694 0.60683 0.21286 0.0
H214 H 0.58059 0.51345 0.27004 0.0
S215 S 0.47198 0.74635 0.40818 0.0
N216 N 0.52764 0.76405 0.3482 0.0
N217 N 0.46493 0.66214 0.40862 0.0
C218 C 0.50937 0.645 0.35865 0.0
C219 C 0.54366 0.70013 0.32578 0.0
loop_
_geom_bond_atom_site_label_1
_geom_bond_atom_site_label_2
_geom_bond_distance
_geom_bond_site_symmetry_2
_ccdc_geom_bond_type
Sc0 O3 2.025 . S
Sc0 O10 2.105 . S
Sc0 O13 2.105 . S
Sc0 O16 2.105 . S
Sc0 O19 2.105 . S
Sc1 O3 2.025 . S
Sc1 O11 2.105 . S
Sc1 O15 2.105 . S
Sc1 O17 2.105 . S
Sc1 O21 2.105 . S
Sc2 O3 2.025 . S
Sc2 O12 2.105 . S
Sc2 O14 2.105 . S
Sc2 O18 2.105 . S
Sc2 O20 2.105 . S
O3 Sc0 2.025 . S
O3 Sc1 2.025 . S
O3 Sc2 2.025 . S
C4 O10 1.268 . S
C4 O20 1.268 . S
C5 O11 1.268 . S
C5 O19 1.268 . S
C6 O12 1.268 . S
C6 O21 1.268 . S
C7 O13 1.268 . S
C7 O17 1.268 . S
C8 O14 1.268 . S
C8 O16 1.268 . S
C9 O15 1.268 . S
C9 O18 1.268 . S
O10 Sc0 2.105 . S
O10 C4 1.268 . S
O11 Sc1 2.105 . S
O11 C5 1.268 . S
O12 Sc2 2.105 . S
O12 C6 1.268 . S
O13 Sc0 2.105 . S
O13 C7 1.268 . S
O14 Sc2 2.105 . S
O14 C8 1.268 . S
O15 Sc1 2.105 . S
O15 C9 1.268 . S
O16 Sc0 2.105 . S
O16 C8 1.268 . S
O17 Sc1 2.105 . S
O17 C7 1.268 . S
O18 Sc2 2.105 . S
O18 C9 1.268 . S
O19 Sc0 2.105 . S
O19 C5 1.268 . S
O20 Sc2 2.105 . S
O20 C4 1.268 . S
O21 Sc1 2.105 . S
O21 C6 1.268 . S
Sc22 O25 2.025 . S
Sc22 O32 2.105 . S
Sc22 O35 2.105 . S
Sc22 O38 2.105 1_655 S
Sc22 O41 2.105 . S
Sc23 O25 2.025 . S
Sc23 O33 2.105 . S
Sc23 O37 2.105 . S
Sc23 O39 2.105 1_545 S
Sc23 O43 2.105 . S
Sc24 O25 2.025 . S
Sc24 O34 2.105 . S
Sc24 O36 2.105 . S
Sc24 O40 2.105 . S
Sc24 O42 2.105 . S
O25 Sc22 2.025 . S
O25 Sc23 2.025 . S
O25 Sc24 2.025 . S
C26 O32 1.268 . S
C26 O42 1.268 . S
C27 O33 1.268 . S
C27 O41 1.268 . S
C28 O34 1.268 . S
C28 O43 1.268 . S
C29 O35 1.268 1_565 S
C29 O39 1.268 . S
C30 O36 1.268 1_455 S
C30 O38 1.268 . S
C31 O37 1.268 . S
C31 O40 1.268 . S
O32 Sc22 2.105 . S
O32 C26 1.268 . S
O33 Sc23 2.105 . S
O33 C27 1.268 . S
O34 Sc24 2.105 . S
O34 C28 1.268 . S
O35 Sc22 2.105 . S
O35 C29 1.268 1_545 S
O36 Sc24 2.105 . S
O36 C30 1.268 1_655 S
O37 Sc23 2.105 . S
O37 C31 1.268 . S
O38 Sc22 2.105 1_455 S
O38 C30 1.268 . S
O39 Sc23 2.105 1_565 S
O39 C29 1.268 . S
O40 Sc24 2.105 . S
O40 C31 1.268 . S
O41 Sc22 2.105 . S
O41 C27 1.268 . S
O42 Sc24 2.105 . S
O42 C26 1.268 . S
O43 Sc23 2.105 . S
O43 C28 1.268 . S
Sc44 O47 2.025 . S
Sc44 O54 2.105 . S
Sc44 O57 2.105 . S
Sc44 O60 2.105 . S
Sc44 O63 2.105 . S
Sc45 O47 2.025 . S
Sc45 O55 2.105 . S
Sc45 O59 2.105 . S
Sc45 O61 2.105 1_556 S
Sc45 O65 2.105 . S
Sc46 O47 2.025 . S
Sc46 O56 2.105 . S
Sc46 O58 2.105 . S
Sc46 O62 2.105 1_455 S
Sc46 O64 2.105 . S
O47 Sc44 2.025 . S
O47 Sc45 2.025 . S
O47 Sc46 2.025 . S
C48 O54 1.268 . S
C48 O64 1.268 . S
C49 O55 1.268 . S
C49 O63 1.268 . S
C50 O56 1.268 . S
C50 O65 1.268 . S
C51 O57 1.268 1_554 S
C51 O61 1.268 . S
C52 O58 1.268 . S
C52 O60 1.268 . S
C53 O59 1.268 1_655 S
C53 O62 1.268 . S
O54 Sc44 2.105 . S
O54 C48 1.268 . S
O55 Sc45 2.105 . S
O55 C49 1.268 . S
O56 Sc46 2.105 . S
O56 C50 1.268 . S
O57 Sc44 2.105 . S
O57 C51 1.268 1_556 S
O58 Sc46 2.105 . S
O58 C52 1.268 . S
O59 Sc45 2.105 . S
O59 C53 1.268 1_455 S
O60 Sc44 2.105 . S
O60 C52 1.268 . S
O61 Sc45 2.105 1_554 S
O61 C51 1.268 . S
O62 Sc46 2.105 1_655 S
O62 C53 1.268 . S
O63 Sc44 2.105 . S
O63 C49 1.268 . S
O64 Sc46 2.105 . S
O64 C48 1.268 . S
O65 Sc45 2.105 . S
O65 C50 1.268 . S
Sc66 O69 2.025 . S
Sc66 O76 2.105 . S
Sc66 O79 2.105 . S
Sc66 O82 2.105 . S
Sc66 O85 2.105 1_554 S
Sc67 O69 2.025 . S
Sc67 O77 2.105 . S
Sc67 O81 2.105 . S
Sc67 O83 2.105 . S
Sc67 O87 2.105 1_565 S
Sc68 O69 2.025 . S
Sc68 O78 2.105 . S
Sc68 O80 2.105 . S
Sc68 O84 2.105 . S
Sc68 O86 2.105 . S
O69 Sc66 2.025 . S
O69 Sc67 2.025 . S
O69 Sc68 2.025 . S
C70 O76 1.268 . S
C70 O86 1.268 . S
C71 O77 1.268 1_556 S
C71 O85 1.268 . S
C72 O78 1.268 1_545 S
C72 O87 1.268 . S
C73 O79 1.268 . S
C73 O83 1.268 . S
C74 O80 1.268 . S
C74 O82 1.268 . S
C75 O81 1.268 . S
C75 O84 1.268 . S
O76 Sc66 2.105 . S
O76 C70 1.268 . S
O77 Sc67 2.105 . S
O77 C71 1.268 1_554 S
O78 Sc68 2.105 . S
O78 C72 1.268 1_565 S
O79 Sc66 2.105 . S
O79 C73 1.268 . S
O80 Sc68 2.105 . S
O80 C74 1.268 . S
O81 Sc67 2.105 . S
O81 C75 1.268 . S
O82 Sc66 2.105 . S
O82 C74 1.268 . S
O83 Sc67 2.105 . S
O83 C73 1.268 . S
O84 Sc68 2.105 . S
O84 C75 1.268 . S
O85 Sc66 2.105 1_556 S
O85 C71 1.268 . S
O86 Sc68 2.105 . S
O86 C70 1.268 . S
O87 Sc67 2.105 1_545 S
O87 C72 1.268 . S
C88 C89 1.369 . S
C88 C90 1.419 . S
C88 H92 0.930 . S
C89 C88 1.369 . S
C89 C98 1.429 . S
C90 C88 1.419 . S
C90 C91 1.363 . S
C90 H93 0.929 . S
C91 C90 1.363 . S
C91 C97 1.428 . S
H92 C88 0.930 . S
H93 C90 0.929 . S
S94 N95 1.613 . S
S94 N96 1.610 . S
N95 S94 1.613 . S
N95 C98 1.350 . S
N96 S94 1.610 . S
N96 C97 1.351 . S
C97 C91 1.428 . S
C97 N96 1.351 . S
C97 C98 1.434 . S
C98 C89 1.429 . S
C98 N95 1.350 . S
C98 C97 1.434 . S
C99 C100 1.369 . S
C99 C101 1.419 1_565 S
C99 H103 0.930 1_565 S
C100 C99 1.369 . S
C100 C109 1.429 . S
C101 C99 1.419 1_545 S
C101 C102 1.363 . S
C101 H104 0.929 . S
C102 C101 1.363 . S
C102 C108 1.428 1_545 S
H103 C99 0.930 1_545 S
H104 C101 0.929 . S
S105 N106 1.613 . S
S105 N107 1.610 . S
N106 S105 1.613 . S
N106 C109 1.350 . S
N107 S105 1.610 . S
N107 C108 1.351 . S
C108 C102 1.428 1_565 S
C108 N107 1.351 . S
C108 C109 1.434 . S
C109 C100 1.429 . S
C109 N106 1.350 . S
C109 C108 1.434 . S
C110 C111 1.369 . S
C110 C112 1.419 . S
C110 H114 0.930 . S
C111 C110 1.369 . S
C111 C120 1.429 . S
C112 C110 1.419 . S
C112 C113 1.363 . S
C112 H115 0.929 . S
C113 C112 1.363 . S
C113 C119 1.428 . S
H114 C110 0.930 . S
H115 C112 0.929 . S
S116 N117 1.613 . S
S116 N118 1.610 . S
N117 S116 1.613 . S
N117 C120 1.350 . S
N118 S116 1.610 . S
N118 C119 1.351 . S
C119 C113 1.428 . S
C119 N118 1.351 . S
C119 C120 1.434 . S
C120 C111 1.429 . S
C120 N117 1.350 . S
C120 C119 1.434 . S
C121 C122 1.369 1_545 S
C121 C123 1.419 . S
C121 H125 0.930 . S
C122 C121 1.369 1_565 S
C122 C131 1.429 . S
C123 C121 1.419 . S
C123 C124 1.363 . S
C123 H126 0.929 . S
C124 C123 1.363 . S
C124 C130 1.428 . S
H125 C121 0.930 . S
H126 C123 0.929 . S
S127 N128 1.613 . S
S127 N129 1.610 1_565 S
N128 S127 1.613 . S
N128 C131 1.350 . S
N129 S127 1.610 1_545 S
N129 C130 1.351 . S
C130 C124 1.428 . S
C130 N129 1.351 . S
C130 C131 1.434 1_545 S
C131 C122 1.429 . S
C131 N128 1.350 . S
C131 C130 1.434 1_565 S
C132 C133 1.369 . S
C132 C134 1.419 . S
C132 H136 0.930 . S
C133 C132 1.369 . S
C133 C142 1.429 . S
C134 C132 1.419 . S
C134 C135 1.363 . S
C134 H137 0.929 . S
C135 C134 1.363 . S
C135 C141 1.428 . S
H136 C132 0.930 . S
H137 C134 0.929 . S
S138 N139 1.613 . S
S138 N140 1.610 1_655 S
N139 S138 1.613 . S
N139 C142 1.350 1_655 S
N140 S138 1.610 1_455 S
N140 C141 1.351 . S
C141 C135 1.428 . S
C141 N140 1.351 . S
C141 C142 1.434 . S
C142 C133 1.429 . S
C142 N139 1.350 1_455 S
C142 C141 1.434 . S
C143 C144 1.369 . S
C143 C145 1.419 . S
C143 H147 0.930 . S
C144 C143 1.369 . S
C144 C153 1.429 . S
C145 C143 1.419 . S
C145 C146 1.363 1_455 S
C145 H148 0.929 . S
C146 C145 1.363 1_655 S
C146 C152 1.428 . S
H147 C143 0.930 . S
H148 C145 0.929 . S
S149 N150 1.613 . S
S149 N151 1.610 1_455 S
N150 S149 1.613 . S
N150 C153 1.350 . S
N151 S149 1.610 1_655 S
N151 C152 1.351 . S
C152 C146 1.428 . S
C152 N151 1.351 . S
C152 C153 1.434 1_655 S
C153 C144 1.429 . S
C153 N150 1.350 . S
C153 C152 1.434 1_455 S
C154 C155 1.369 . S
C154 C156 1.419 1_556 S
C154 H158 0.930 1_556 S
C155 C154 1.369 . S
C155 C164 1.429 . S
C156 C154 1.419 1_554 S
C156 C157 1.363 . S
C156 H159 0.929 . S
C157 C156 1.363 . S
C157 C163 1.428 1_554 S
H158 C154 0.930 1_554 S
H159 C156 0.929 . S
S160 N161 1.613 . S
S160 N162 1.610 . S
N161 S160 1.613 . S
N161 C164 1.350 . S
N162 S160 1.610 . S
N162 C163 1.351 . S
C163 C157 1.428 1_556 S
C163 N162 1.351 . S
C163 C164 1.434 . S
C164 C155 1.429 . S
C164 N161 1.350 . S
C164 C163 1.434 . S
C165 C166 1.369 . S
C165 C167 1.419 . S
C165 H169 0.930 . S
C166 C165 1.369 . S
C166 C175 1.429 . S
C167 C165 1.419 . S
C167 C168 1.363 . S
C167 H170 0.929 . S
C168 C167 1.363 . S
C168 C174 1.428 . S
H169 C165 0.930 . S
H170 C167 0.929 . S
S171 N172 1.613 . S
S171 N173 1.610 . S
N172 S171 1.613 . S
N172 C175 1.350 . S
N173 S171 1.610 . S
N173 C174 1.351 . S
C174 C168 1.428 . S
C174 N173 1.351 . S
C174 C175 1.434 . S
C175 C166 1.429 . S
C175 N172 1.350 . S
C175 C174 1.434 . S
C176 C177 1.369 . S
C176 C178 1.419 . S
C176 H180 0.930 . S
C177 C176 1.369 . S
C177 C186 1.429 . S
C178 C176 1.419 . S
C178 C179 1.363 . S
C178 H181 0.929 . S
C179 C178 1.363 . S
C179 C185 1.428 . S
H180 C176 0.930 . S
H181 C178 0.929 . S
S182 N183 1.613 . S
S182 N184 1.610 . S
N183 S182 1.613 . S
N183 C186 1.350 . S
N184 S182 1.610 . S
N184 C185 1.351 . S
C185 C179 1.428 . S
C185 N184 1.351 . S
C185 C186 1.434 . S
C186 C177 1.429 . S
C186 N183 1.350 . S
C186 C185 1.434 . S
C187 C188 1.369 . S
C187 C189 1.419 1_455 S
C187 H191 0.930 . S
C188 C187 1.369 . S
C188 C197 1.429 1_455 S
C189 C187 1.419 1_655 S
C189 C190 1.363 . S
C189 H192 0.929 . S
C190 C189 1.363 . S
C190 C196 1.428 . S
H191 C187 0.930 . S
H192 C189 0.929 . S
S193 N194 1.613 . S
S193 N195 1.610 . S
N194 S193 1.613 . S
N194 C197 1.350 . S
N195 S193 1.610 . S
N195 C196 1.351 . S
C196 C190 1.428 . S
C196 N195 1.351 . S
C196 C197 1.434 . S
C197 C188 1.429 1_655 S
C197 N194 1.350 . S
C197 C196 1.434 . S
C198 C199 1.369 . S
C198 C200 1.419 1_556 S
C198 H202 0.930 . S
C199 C198 1.369 . S
C199 C208 1.429 1_556 S
C200 C198 1.419 1_554 S
C200 C201 1.363 . S
C200 H203 0.929 . S
C201 C200 1.363 . S
C201 C207 1.428 . S
H202 C198 0.930 . S
H203 C200 0.929 . S
S204 N205 1.613 . S
S204 N206 1.610 1_455 S
N205 S204 1.613 . S
N205 C208 1.350 1_455 S
N206 S204 1.610 1_655 S
N206 C207 1.351 . S
C207 C201 1.428 . S
C207 N206 1.351 . S
C207 C208 1.434 . S
C208 C199 1.429 1_554 S
C208 N205 1.350 1_655 S
C208 C207 1.434 . S
C209 C210 1.369 . S
C209 C211 1.419 . S
C209 H213 0.930 . S
C210 C209 1.369 . S
C210 C219 1.429 . S
C211 C209 1.419 . S
C211 C212 1.363 . S
C211 H214 0.929 . S
C212 C211 1.363 . S
C212 C218 1.428 . S
H213 C209 0.930 . S
H214 C211 0.929 . S
S215 N216 1.613 . S
S215 N217 1.610 . S
N216 S215 1.613 . S
N216 C219 1.350 . S
N217 S215 1.610 . S
N217 C218 1.351 . S
C218 C212 1.428 . S
C218 N217 1.351 . S
C218 C219 1.434 . S
C219 C210 1.429 . S
C219 N216 1.350 . S
C219 C218 1.434 . S
C89 C51 1.435 . S
C91 C4 1.427 . S
C100 C75 1.434 . S
C102 C31 1.431 . S
C111 C48 1.435 . S
C113 C7 1.429 . S
C122 C71 1.422 . S
C124 C27 1.429 . S
C133 C30 1.423 . S
C135 C5 1.433 . S
C144 C50 1.427 . S
C146 C29 1.434 . S
C155 C49 1.435 . S
C157 C70 1.426 . S
C166 C6 1.424 . S
C168 C72 1.433 . S
C177 C28 1.432 . S
C179 C9 1.433 . S
C188 C52 1.435 . S
C190 C26 1.426 . S
C199 C53 1.423 . S
C201 C73 1.433 . S
C210 C74 1.423 . S
C212 C8 1.433 . S
