# Generated by pormake.
# Topology bcg, (8)-cn, num edge types: 1
# Building blocks:
#     Node 0, Type 0, BuildingBlock: TAGTUT_clean_sbu_1, # of connection points: 8
#     Node 1, Type 0, BuildingBlock: TAGTUT_clean_sbu_1, # of connection points: 8
#     Node 2, Type 0, BuildingBlock: TAGTUT_clean_sbu_1, # of connection points: 8
#     Node 3, Type 0, BuildingBlock: TAGTUT_clean_sbu_1, # of connection points: 8
#     Edge 4, Type (0, 0), None
#     Edge 5, Type (0, 0), None
#     Edge 6, Type (0, 0), None
#     Edge 7, Type (0, 0), None
#     Edge 8, Type (0, 0), None
#     Edge 9, Type (0, 0), None
#     Edge 10, Type (0, 0), None
#     Edge 11, Type (0, 0), None
#     Edge 12, Type (0, 0), None
#     Edge 13, Type (0, 0), None
#     Edge 14, Type (0, 0), None
#     Edge 15, Type (0, 0), None
#     Edge 16, Type (0, 0), None
#     Edge 17, Type (0, 0), None
#     Edge 18, Type (0, 0), None
#     Edge 19, Type (0, 0), None
# Relax obj value: 0.107
# Max RMSD: 0.225
# Mean RMSD: 0.225
data_MOF--net-bcg--node1-TAGTUT_clean_sbu_1--edge1-none
_symmetry_space_group_name_H-M    P1
_symmetry_Int_Tables_number       1
_symmetry_cell_setting            triclinic
loop_
_symmetry_equiv_pos_as_xyz
'x, y, z'
_cell_length_a     7.445489
_cell_length_b     12.285599
_cell_length_c     21.230137
_cell_angle_alpha  83.080177
_cell_angle_beta   89.996796
_cell_angle_gamma 90.000674
loop_
_atom_site_label
_atom_site_type_symbol
_atom_site_fract_x
_atom_site_fract_y
_atom_site_fract_z
_atom_type_partial_charge
C0 C 0.03248 0.24019 0.17808 0.0
C1 C 0.47098 0.29 0.12467 0.0
C2 C 0.43038 0.50024 0.91433 0.0
Mg3 Mg 0.21628 0.11794 0.08001 0.0
O4 O 0.17104 0.2409 0.02224 0.0
Mg5 Mg 0.13712 0.38952 0.03842 0.0
Mg6 Mg 0.25766 0.26882 -0.06651 0.0
O7 O 0.3443 0.29703 0.84484 0.0
Mg8 Mg 0.29919 0.42013 0.78714 0.0
Mg9 Mg 0.37848 0.14863 0.82855 0.0
C10 C 0.08409 0.03865 -0.0473 0.0
C11 C 0.67577 0.24892 0.92718 0.0
O12 O 0.03137 0.32743 0.13824 0.0
O13 O 0.07287 0.14605 0.16273 0.0
O14 O 0.39045 0.37469 0.09659 0.0
O15 O 0.45853 0.19285 0.10803 0.0
O16 O 0.0696 0.02545 0.01327 0.0
O17 O 0.22665 0.08734 0.9269 0.0
C18 C 0.83965 0.28909 -0.06019 0.0
O19 O 0.96975 0.27176 0.90372 0.0
O20 O 0.86468 0.34329 -0.01227 0.0
O21 O 0.48409 0.21108 0.72877 0.0
O22 O 0.44279 0.39248 0.70439 0.0
O23 O 0.12511 0.16349 0.77037 0.0
C24 C 0.4831 0.29838 0.68898 0.0
O25 O 0.05707 0.34535 0.75894 0.0
O26 O 0.44496 0.51338 0.85377 0.0
C27 C 0.04461 0.2482 0.7423 0.0
O28 O 0.28924 0.44993 -0.05988 0.0
O29 O 0.54563 0.26613 -0.03672 0.0
O30 O 0.6508 0.19477 0.87924 0.0
C31 C 0.53248 0.74019 0.17808 0.0
C32 C 0.97098 0.79 0.12467 0.0
C33 C 0.93039 1.00024 0.91433 0.0
Mg34 Mg 0.71628 0.61794 0.08001 0.0
O35 O 0.67105 0.7409 0.02224 0.0
Mg36 Mg 0.63712 0.88952 0.03842 0.0
Mg37 Mg 0.75766 0.76882 -0.06651 0.0
O38 O 0.84431 0.79703 0.84484 0.0
Mg39 Mg 0.79919 0.92013 0.78714 0.0
Mg40 Mg 0.87848 0.64863 0.82855 0.0
C41 C 0.58409 0.53865 -0.0473 0.0
C42 C 0.17577 0.74892 0.92718 0.0
O43 O 0.53137 0.82743 0.13824 0.0
O44 O 0.57287 0.64605 0.16273 0.0
O45 O 0.89045 0.87469 0.09659 0.0
O46 O 0.95853 0.69285 0.10803 0.0
O47 O 0.5696 0.52545 0.01327 0.0
O48 O 0.72665 0.58734 0.9269 0.0
C49 C 0.33965 0.78909 -0.06019 0.0
O50 O 0.46975 0.77176 0.90372 0.0
O51 O 0.36468 0.84329 -0.01227 0.0
O52 O 0.98408 0.71108 0.72877 0.0
O53 O 0.94279 0.89248 0.70439 0.0
O54 O 0.62511 0.66349 0.77037 0.0
C55 C 0.9831 0.79838 0.68898 0.0
O56 O 0.55707 0.84535 0.75894 0.0
O57 O 0.94496 1.01338 0.85377 0.0
C58 C 0.54461 0.74821 0.7423 0.0
O59 O 0.78924 0.94993 -0.05988 0.0
O60 O 0.04563 0.76613 -0.03672 0.0
O61 O 0.1508 0.69477 0.87924 0.0
C62 C 0.03244 0.7982 0.18894 0.0
C63 C 0.47121 0.7484 0.24239 0.0
C64 C 0.43038 0.53818 0.45268 0.0
Mg65 Mg 0.21626 0.92046 0.28699 0.0
O66 O 0.17108 0.7975 0.34477 0.0
Mg67 Mg 0.13713 0.64888 0.32859 0.0
Mg68 Mg 0.25766 0.76959 0.43352 0.0
O69 O 0.34426 0.74141 0.52217 0.0
Mg70 Mg 0.29921 0.6183 0.57987 0.0
Mg71 Mg 0.37848 0.88981 0.53845 0.0
C72 C 0.08409 0.99977 0.4143 0.0
C73 C 0.67577 0.7895 0.43983 0.0
O74 O 0.03136 0.71095 0.22879 0.0
O75 O 0.07276 0.89234 0.2043 0.0
O76 O 0.39045 0.66375 0.2704 0.0
O77 O 0.45851 0.84561 0.25893 0.0
O78 O 0.06961 1.01297 0.35374 0.0
O79 O 0.22664 0.95107 0.44011 0.0
C80 C 0.83964 0.74932 0.4272 0.0
O81 O 0.96974 0.76666 0.46329 0.0
O82 O 0.86469 0.69511 0.37929 0.0
O83 O 0.4841 0.82737 0.63822 0.0
O84 O 0.44289 0.64596 0.66259 0.0
O85 O 0.12511 0.87491 0.59666 0.0
C86 C 0.48315 0.74006 0.67801 0.0
O87 O 0.05708 0.69302 0.60812 0.0
O88 O 0.44495 0.52504 0.51324 0.0
C89 C 0.04437 0.79023 0.62466 0.0
O90 O 0.28924 0.58849 0.42689 0.0
O91 O 0.54564 0.77228 0.40373 0.0
O92 O 0.65079 0.84367 0.48776 0.0
C93 C 0.53244 0.2982 0.18894 0.0
C94 C 0.97121 0.2484 0.24239 0.0
C95 C 0.93039 0.03818 0.45268 0.0
Mg96 Mg 0.71626 0.42046 0.28699 0.0
O97 O 0.67108 0.2975 0.34477 0.0
Mg98 Mg 0.63713 0.14889 0.32859 0.0
Mg99 Mg 0.75766 0.26959 0.43352 0.0
O100 O 0.84426 0.24141 0.52217 0.0
Mg101 Mg 0.79921 0.1183 0.57987 0.0
Mg102 Mg 0.87848 0.38981 0.53845 0.0
C103 C 0.58409 0.49977 0.41431 0.0
C104 C 0.17577 0.2895 0.43983 0.0
O105 O 0.53136 0.21095 0.22879 0.0
O106 O 0.57276 0.39235 0.2043 0.0
O107 O 0.89045 0.16375 0.2704 0.0
O108 O 0.95851 0.34561 0.25893 0.0
O109 O 0.56961 0.51297 0.35374 0.0
O110 O 0.72664 0.45107 0.44011 0.0
C111 C 0.33965 0.24932 0.4272 0.0
O112 O 0.46974 0.26666 0.46329 0.0
O113 O 0.36469 0.19511 0.37929 0.0
O114 O 0.9841 0.32737 0.63822 0.0
O115 O 0.9429 0.14596 0.66259 0.0
O116 O 0.62511 0.37491 0.59666 0.0
C117 C 0.98315 0.24006 0.67801 0.0
O118 O 0.55708 0.19302 0.60812 0.0
O119 O 0.94495 0.02504 0.51324 0.0
C120 C 0.54437 0.29023 0.62466 0.0
O121 O 0.78925 0.08849 0.42689 0.0
O122 O 0.04564 0.27228 0.40373 0.0
O123 O 0.15079 0.34366 0.48776 0.0
loop_
_geom_bond_atom_site_label_1
_geom_bond_atom_site_label_2
_geom_bond_distance
_geom_bond_site_symmetry_2
_ccdc_geom_bond_type
C0 O12 1.241 . S
C0 O13 1.280 1_655 S
C1 O14 1.277 . S
C1 O15 1.245 . S
C2 O26 1.247 . S
C2 O28 1.289 1_556 S
Mg3 O4 1.926 . S
Mg3 O13 1.984 . S
Mg3 O15 1.988 . S
Mg3 O16 2.061 . S
O4 Mg3 1.926 . S
O4 Mg5 1.986 . S
O4 Mg6 1.927 . S
Mg5 O4 1.986 . S
Mg5 O12 2.042 1_455 S
Mg5 O14 2.041 . S
Mg5 O20 2.038 1_455 S
Mg5 O28 2.238 . S
Mg6 O4 1.927 . S
Mg6 O7 1.907 1_554 S
Mg6 O17 2.103 1_554 S
Mg6 O19 2.077 1_454 S
Mg6 O28 2.110 . S
Mg6 O29 2.081 . S
O7 Mg6 1.907 1_556 S
O7 Mg8 1.926 . S
O7 Mg9 1.986 . S
Mg8 O7 1.926 . S
Mg8 O22 1.984 . S
Mg8 O25 1.988 . S
Mg8 O26 2.061 . S
Mg9 O7 1.986 . S
Mg9 O17 2.238 . S
Mg9 O21 2.042 . S
Mg9 O23 2.041 . S
Mg9 O30 2.038 . S
C10 O16 1.247 . S
C10 O17 1.289 1_554 S
C11 O29 1.245 1_556 S
C11 O30 1.274 . S
O12 C0 1.241 . S
O12 Mg5 2.042 1_655 S
O13 C0 1.280 1_455 S
O13 Mg3 1.984 . S
O14 C1 1.277 . S
O14 Mg5 2.041 . S
O15 C1 1.245 . S
O15 Mg3 1.988 . S
O16 Mg3 2.061 . S
O16 C10 1.247 . S
O17 Mg6 2.103 1_556 S
O17 Mg9 2.238 . S
O17 C10 1.289 1_556 S
C18 O19 1.245 1_554 S
C18 O20 1.274 . S
O19 Mg6 2.077 1_656 S
O19 C18 1.245 1_556 S
O20 Mg5 2.038 1_655 S
O20 C18 1.274 . S
O21 Mg9 2.042 . S
O21 C24 1.241 . S
O22 Mg8 1.984 . S
O22 C24 1.280 . S
O23 Mg9 2.041 . S
O23 C27 1.277 . S
C24 O21 1.241 . S
C24 O22 1.280 . S
O25 Mg8 1.988 . S
O25 C27 1.245 . S
O26 C2 1.247 . S
O26 Mg8 2.061 . S
C27 O23 1.277 . S
C27 O25 1.245 . S
O28 C2 1.289 1_554 S
O28 Mg5 2.238 . S
O28 Mg6 2.110 . S
O29 Mg6 2.081 . S
O29 C11 1.245 1_554 S
O30 Mg9 2.038 . S
O30 C11 1.274 . S
C31 O43 1.241 . S
C31 O44 1.280 . S
C32 O45 1.277 . S
C32 O46 1.245 . S
C33 O57 1.247 . S
C33 O59 1.289 1_556 S
Mg34 O35 1.926 . S
Mg34 O44 1.984 . S
Mg34 O46 1.988 . S
Mg34 O47 2.061 . S
O35 Mg34 1.926 . S
O35 Mg36 1.986 . S
O35 Mg37 1.927 . S
Mg36 O35 1.986 . S
Mg36 O43 2.042 . S
Mg36 O45 2.041 . S
Mg36 O51 2.038 . S
Mg36 O59 2.238 . S
Mg37 O35 1.927 . S
Mg37 O38 1.907 1_554 S
Mg37 O48 2.103 1_554 S
Mg37 O50 2.077 1_554 S
Mg37 O59 2.110 . S
Mg37 O60 2.081 1_655 S
O38 Mg37 1.907 1_556 S
O38 Mg39 1.926 . S
O38 Mg40 1.986 . S
Mg39 O38 1.926 . S
Mg39 O53 1.984 . S
Mg39 O56 1.988 . S
Mg39 O57 2.061 . S
Mg40 O38 1.986 . S
Mg40 O48 2.238 . S
Mg40 O52 2.042 1_655 S
Mg40 O54 2.041 . S
Mg40 O61 2.038 1_655 S
C41 O47 1.247 . S
C41 O48 1.289 1_554 S
C42 O60 1.245 1_556 S
C42 O61 1.274 . S
O43 C31 1.241 . S
O43 Mg36 2.042 . S
O44 C31 1.280 . S
O44 Mg34 1.984 . S
O45 C32 1.277 . S
O45 Mg36 2.041 . S
O46 C32 1.245 . S
O46 Mg34 1.988 . S
O47 Mg34 2.061 . S
O47 C41 1.247 . S
O48 Mg37 2.103 1_556 S
O48 Mg40 2.238 . S
O48 C41 1.289 1_556 S
C49 O50 1.245 1_554 S
C49 O51 1.274 . S
O50 Mg37 2.077 1_556 S
O50 C49 1.245 1_556 S
O51 Mg36 2.038 . S
O51 C49 1.274 . S
O52 Mg40 2.042 1_455 S
O52 C55 1.241 . S
O53 Mg39 1.984 . S
O53 C55 1.280 1_655 S
O54 Mg40 2.041 . S
O54 C58 1.277 . S
C55 O52 1.241 . S
C55 O53 1.280 1_455 S
O56 Mg39 1.988 . S
O56 C58 1.245 . S
O57 C33 1.247 . S
O57 Mg39 2.061 . S
C58 O54 1.277 . S
C58 O56 1.245 . S
O59 C33 1.289 1_554 S
O59 Mg36 2.238 . S
O59 Mg37 2.110 . S
O60 Mg37 2.081 1_455 S
O60 C42 1.245 1_554 S
O61 Mg40 2.038 1_455 S
O61 C42 1.274 . S
C62 O74 1.241 . S
C62 O75 1.280 1_655 S
C63 O76 1.277 . S
C63 O77 1.245 . S
C64 O88 1.247 . S
C64 O90 1.289 . S
Mg65 O66 1.926 . S
Mg65 O75 1.984 . S
Mg65 O77 1.988 . S
Mg65 O78 2.061 . S
O66 Mg65 1.926 . S
O66 Mg67 1.986 . S
O66 Mg68 1.917 . S
Mg67 O66 1.986 . S
Mg67 O74 2.042 1_455 S
Mg67 O76 2.041 . S
Mg67 O82 2.038 1_455 S
Mg67 O90 2.238 . S
Mg68 O66 1.917 . S
Mg68 O69 1.917 . S
Mg68 O79 2.106 . S
Mg68 O81 2.079 1_455 S
Mg68 O90 2.106 . S
Mg68 O91 2.079 . S
O69 Mg68 1.917 . S
O69 Mg70 1.926 . S
O69 Mg71 1.986 . S
Mg70 O69 1.926 . S
Mg70 O84 1.984 . S
Mg70 O87 1.988 . S
Mg70 O88 2.061 . S
Mg71 O69 1.986 . S
Mg71 O79 2.238 . S
Mg71 O83 2.042 . S
Mg71 O85 2.041 . S
Mg71 O92 2.038 . S
C72 O78 1.247 . S
C72 O79 1.289 . S
C73 O91 1.245 . S
C73 O92 1.274 . S
O74 C62 1.241 . S
O74 Mg67 2.042 1_655 S
O75 C62 1.280 1_455 S
O75 Mg65 1.984 . S
O76 C63 1.277 . S
O76 Mg67 2.041 . S
O77 C63 1.245 . S
O77 Mg65 1.988 . S
O78 Mg65 2.061 . S
O78 C72 1.247 . S
O79 Mg68 2.106 . S
O79 Mg71 2.238 . S
O79 C72 1.289 . S
C80 O81 1.245 . S
C80 O82 1.274 . S
O81 Mg68 2.079 1_655 S
O81 C80 1.245 . S
O82 Mg67 2.038 1_655 S
O82 C80 1.274 . S
O83 Mg71 2.042 . S
O83 C86 1.241 . S
O84 Mg70 1.984 . S
O84 C86 1.280 . S
O85 Mg71 2.041 . S
O85 C89 1.277 . S
C86 O83 1.241 . S
C86 O84 1.280 . S
O87 Mg70 1.988 . S
O87 C89 1.245 . S
O88 C64 1.247 . S
O88 Mg70 2.061 . S
C89 O85 1.277 . S
C89 O87 1.245 . S
O90 C64 1.289 . S
O90 Mg67 2.238 . S
O90 Mg68 2.106 . S
O91 Mg68 2.079 . S
O91 C73 1.245 . S
O92 Mg71 2.038 . S
O92 C73 1.274 . S
C93 O105 1.241 . S
C93 O106 1.280 . S
C94 O107 1.277 . S
C94 O108 1.245 . S
C95 O119 1.247 . S
C95 O121 1.289 . S
Mg96 O97 1.926 . S
Mg96 O106 1.984 . S
Mg96 O108 1.988 . S
Mg96 O109 2.061 . S
O97 Mg96 1.926 . S
O97 Mg98 1.986 . S
O97 Mg99 1.917 . S
Mg98 O97 1.986 . S
Mg98 O105 2.042 . S
Mg98 O107 2.041 . S
Mg98 O113 2.038 . S
Mg98 O121 2.238 . S
Mg99 O97 1.917 . S
Mg99 O100 1.917 . S
Mg99 O110 2.106 . S
Mg99 O112 2.079 . S
Mg99 O121 2.106 . S
Mg99 O122 2.079 1_655 S
O100 Mg99 1.917 . S
O100 Mg101 1.926 . S
O100 Mg102 1.986 . S
Mg101 O100 1.926 . S
Mg101 O115 1.984 . S
Mg101 O118 1.988 . S
Mg101 O119 2.061 . S
Mg102 O100 1.986 . S
Mg102 O110 2.238 . S
Mg102 O114 2.042 1_655 S
Mg102 O116 2.041 . S
Mg102 O123 2.038 1_655 S
C103 O109 1.247 . S
C103 O110 1.289 . S
C104 O122 1.245 . S
C104 O123 1.274 . S
O105 C93 1.241 . S
O105 Mg98 2.042 . S
O106 C93 1.280 . S
O106 Mg96 1.984 . S
O107 C94 1.277 . S
O107 Mg98 2.041 . S
O108 C94 1.245 . S
O108 Mg96 1.988 . S
O109 Mg96 2.061 . S
O109 C103 1.247 . S
O110 Mg99 2.106 . S
O110 Mg102 2.238 . S
O110 C103 1.289 . S
C111 O112 1.245 . S
C111 O113 1.274 . S
O112 Mg99 2.079 . S
O112 C111 1.245 . S
O113 Mg98 2.038 . S
O113 C111 1.274 . S
O114 Mg102 2.042 1_455 S
O114 C117 1.241 . S
O115 Mg101 1.984 . S
O115 C117 1.280 1_655 S
O116 Mg102 2.041 . S
O116 C120 1.277 . S
C117 O114 1.241 . S
C117 O115 1.280 1_455 S
O118 Mg101 1.988 . S
O118 C120 1.245 . S
O119 C95 1.247 . S
O119 Mg101 2.061 . S
C120 O116 1.277 . S
C120 O118 1.245 . S
O121 C95 1.289 . S
O121 Mg98 2.238 . S
O121 Mg99 2.106 . S
O122 Mg99 2.079 1_455 S
O122 C104 1.245 . S
O123 Mg102 2.038 1_455 S
O123 C104 1.274 . S
C11 C18 3.080 1_556 S
C42 C49 3.080 1_556 S
C73 C80 3.080 . S
C104 C111 3.080 . S
C41 C2 2.400 1_554 S
C103 C64 2.400 . S
C10 C33 2.400 1_444 S
C95 C72 2.400 1_645 S
C93 C1 0.893 . S
C31 C63 0.893 . S
C86 C58 0.893 . S
C24 C120 0.893 . S
C62 C32 0.893 . S
C94 C0 0.893 . S
C27 C117 0.893 . S
C89 C55 0.893 . S
