# Generated by pormake.
# Topology sma, (6)-cn, num edge types: 1
# Building blocks:
#     Node 0, Type 0, BuildingBlock: PAMTUU_clean_sbu_0, # of connection points: 6
#     Node 1, Type 0, BuildingBlock: PAMTUU_clean_sbu_0, # of connection points: 6
#     Node 2, Type 0, BuildingBlock: PAMTUU_clean_sbu_0, # of connection points: 6
#     Edge 3, Type (0, 0), None
#     Edge 4, Type (0, 0), None
#     Edge 5, Type (0, 0), None
#     Edge 6, Type (0, 0), None
#     Edge 7, Type (0, 0), None
#     Edge 8, Type (0, 0), None
#     Edge 9, Type (0, 0), None
#     Edge 10, Type (0, 0), None
#     Edge 11, Type (0, 0), None
# Relax obj value: 0.025
# Max RMSD: 0.135
# Mean RMSD: 0.129
data_MOF--net-sma--node1-PAMTUU_clean_sbu_0--edge1-none
_symmetry_space_group_name_H-M    P1
_symmetry_Int_Tables_number       1
_symmetry_cell_setting            triclinic
loop_
_symmetry_equiv_pos_as_xyz
'x, y, z'
_cell_length_a     23.8134
_cell_length_b     23.896002
_cell_length_c     6.7283889
_cell_angle_alpha  96.28162
_cell_angle_beta   89.426575
_cell_angle_gamma 119.96807
loop_
_atom_site_label
_atom_site_type_symbol
_atom_site_fract_x
_atom_site_fract_y
_atom_site_fract_z
_atom_type_partial_charge
Tb0 Tb 1.01886 0.56773 0.18701 0.0
Tb1 Tb 0.12952 0.51602 0.15761 0.0
C2 C 0.07163 0.53855 0.77943 0.0
C3 C 0.88325 0.60444 0.0957 0.0
C4 C 0.7681 0.59293 -0.06427 0.0
C5 C 0.81374 0.65026 0.05358 0.0
C6 C 0.87061 0.65585 0.13254 0.0
C7 C 0.83944 0.54809 -0.02893 0.0
C8 C 0.78235 0.54243 0.89134 0.0
C9 C 0.93961 0.60944 0.20264 0.0
O10 O 0.96366 0.46164 0.12293 0.0
O11 O 1.03838 0.43475 0.22832 0.0
O12 O 0.11329 0.52655 0.47162 0.0
O13 O 1.03481 0.55775 0.49009 0.0
O14 O 0.15936 0.45056 0.03591 0.0
O15 O 0.219 0.53112 0.26195 0.0
O16 O 0.17902 0.61836 0.11861 0.0
O17 O 0.11391 0.64845 0.29772 0.0
O18 O 1.04559 0.56875 0.88134 0.0
O19 O 0.09653 0.50712 0.85454 0.0
C20 C 0.97834 0.42002 0.1872 0.0
O21 O 0.93064 0.55829 0.2814 0.0
O22 O 0.99545 0.63814 0.1209 0.0
C23 C 0.07315 0.54071 0.56835 0.0
C24 C 0.2736 0.49463 0.03413 0.0
C25 C 0.39445 0.51795 0.89254 0.0
C26 C 0.3466 0.45513 -0.07054 0.0
C27 C 0.2869 0.44371 -0.0004 0.0
C28 C 0.31952 0.55674 -0.01371 0.0
C29 C 0.37955 0.56829 0.91543 0.0
C30 C 0.21481 0.48276 0.13926 0.0
C31 C 0.1701 0.66271 0.22245 0.0
H32 H 0.80469 0.69024 0.09051 0.0
H33 H 0.90383 0.69973 0.22838 0.0
H34 H 0.84836 0.5078 -0.05939 0.0
H35 H 0.74834 0.49753 0.80133 0.0
H36 H 0.35607 0.41504 0.91154 0.0
H37 H 0.25209 0.39547 0.03516 0.0
H38 H 0.3101 0.5968 0.0113 0.0
H39 H 0.41528 0.61719 0.88828 0.0
Tb40 Tb 0.50994 0.99476 0.48871 0.0
Tb41 Tb 0.67246 0.10526 0.51805 0.0
C42 C 0.59179 0.04879 0.11238 0.0
C43 C 0.33412 0.85409 0.38365 0.0
C44 C 0.22621 0.72968 0.26607 0.0
C45 C 0.21759 0.7797 0.36382 0.0
C46 C 0.27106 0.84128 0.42169 0.0
C47 C 0.34313 0.80529 0.27944 0.0
C48 C 0.2895 0.74358 0.22019 0.0
C49 C 0.38892 0.91582 0.47632 0.0
O50 O 0.56029 0.93951 0.43995 0.0
O51 O 0.66103 1.01397 0.59094 0.0
O52 O 0.64738 0.08955 0.82434 0.0
O53 O 0.53634 1.01515 0.80196 0.0
O54 O 0.7668 0.13196 0.43015 0.0
O55 O 0.74845 0.19747 0.63244 0.0
O56 O 0.62 0.15532 0.46403 0.0
O57 O 0.52342 0.08953 0.60083 0.0
O58 O 0.53555 1.02433 0.19434 0.0
O59 O 0.6473 0.06933 0.2076 0.0
C60 C 0.61547 0.95372 0.53086 0.0
O61 O 0.43165 0.91191 0.58415 0.0
O62 O 0.4158 0.96491 0.37198 0.0
C63 C 0.59204 0.05156 0.90116 0.0
C64 C 0.83444 0.24503 0.41249 0.0
C65 C 0.92588 0.35627 0.23939 0.0
C66 C 0.94139 0.30943 0.28677 0.0
C67 C 0.89625 0.25463 0.37253 0.0
C68 C 0.81714 0.28954 0.35493 0.0
C69 C 0.86252 0.34473 0.26889 0.0
C70 C 0.79104 0.19059 0.52465 0.0
C71 C 0.56561 0.1456 0.54208 0.0
H72 H 0.16968 0.77093 0.40049 0.0
H73 H 0.26329 0.87833 0.50331 0.0
H74 H 0.39156 0.81419 0.25014 0.0
H75 H 0.29796 0.70622 0.14487 0.0
H76 H 0.98946 0.31629 0.26511 0.0
H77 H 0.9105 0.22077 0.41426 0.0
H78 H 0.76941 0.2829 0.38258 0.0
H79 H 0.84896 0.37981 0.23494 0.0
Tb80 Tb 0.55809 0.47768 0.79956 0.0
Tb81 Tb 0.60835 0.63992 0.85914 0.0
C82 C 0.5818 0.55865 0.43841 0.0
C83 C 0.53067 0.30507 0.67644 0.0
C84 C 0.55266 0.20034 0.57373 0.0
C85 C 0.49111 0.18898 0.62924 0.0
C86 C 0.4803 0.24089 0.67977 0.0
C87 C 0.59144 0.31684 0.61185 0.0
C88 C 0.60227 0.26474 0.55976 0.0
C89 C 0.52069 0.35771 0.76948 0.0
O90 O 0.66217 0.53028 0.76462 0.0
O91 O 0.68834 0.6273 -0.04736 0.0
O92 O 0.59741 0.61467 0.1598 0.0
O93 O 0.56642 0.50476 0.11705 0.0
O94 O 0.67853 0.73424 0.80235 0.0
O95 O 0.59395 0.71744 -0.03366 0.0
O96 O 0.50371 0.58712 0.79176 0.0
O97 O 0.47637 0.48801 0.89365 0.0
O98 O 0.55052 0.50214 0.50642 0.0
O99 O 0.61492 0.61459 0.5483 0.0
C100 C 0.70387 0.58397 0.87625 0.0
O101 O 0.56681 0.402 0.89463 0.0
O102 O 0.49558 0.38227 0.65965 0.0
C103 C 0.58147 0.5594 0.22657 0.0
C104 C 0.63792 0.80556 0.76957 0.0
C105 C 0.6245 0.90045 0.59086 0.0
C106 C 0.6844 0.91535 0.67985 0.0
C107 C 0.6909 0.8685 0.76822 0.0
C108 C 0.57877 0.78915 0.672 0.0
C109 C 0.57212 0.83623 0.58326 0.0
C110 C 0.64523 0.75981 0.8832 0.0
C111 C 0.46106 0.53127 0.85198 0.0
H112 H 0.45166 0.14005 0.63954 0.0
H113 H 0.43321 0.23098 0.73061 0.0
H114 H 0.6311 0.36621 0.60985 0.0
H115 H 0.65021 0.27515 0.51695 0.0
H116 H 0.72596 0.96405 0.6881 0.0
H117 H 0.73705 0.88212 0.84149 0.0
H118 H 0.53721 0.74064 0.66972 0.0
H119 H 0.52524 0.823 0.51667 0.0
loop_
_geom_bond_atom_site_label_1
_geom_bond_atom_site_label_2
_geom_bond_distance
_geom_bond_site_symmetry_2
_ccdc_geom_bond_type
Tb0 C9 2.764 . S
Tb0 O10 2.325 . S
Tb0 O13 2.303 1_655 S
Tb0 O17 2.322 1_655 S
Tb0 O18 2.349 1_554 S
Tb0 O21 2.415 . S
Tb0 O22 2.399 1_554 S
Tb1 O11 2.322 1_455 S
Tb1 O12 2.349 . S
Tb1 O14 2.415 1_554 S
Tb1 O15 2.399 . S
Tb1 O16 2.325 . S
Tb1 O19 2.303 1_554 S
Tb1 C30 2.764 . S
C2 O18 1.261 1_455 S
C2 O19 1.257 . S
C3 C6 1.358 . S
C3 C7 1.332 . S
C3 C9 1.504 . S
C4 C5 1.373 . S
C4 C8 1.308 . S
C5 C4 1.373 . S
C5 C6 1.429 . S
C5 H32 0.932 1_554 S
C6 C3 1.358 . S
C6 C5 1.429 . S
C6 H33 0.930 1_554 S
C7 C3 1.332 . S
C7 C8 1.394 . S
C7 H34 0.932 . S
C8 C4 1.308 . S
C8 C7 1.394 . S
C8 H35 0.929 . S
C9 Tb0 2.764 . S
C9 C3 1.504 . S
C9 O21 1.239 . S
C9 O22 1.263 1_554 S
O10 Tb0 2.325 . S
O10 C20 1.236 . S
O11 Tb1 2.322 1_655 S
O11 C20 1.257 . S
O12 Tb1 2.349 . S
O12 C23 1.261 . S
O13 Tb0 2.303 1_455 S
O13 C23 1.257 . S
O14 Tb1 2.415 1_556 S
O14 C30 1.239 1_556 S
O15 Tb1 2.399 . S
O15 C30 1.263 . S
O16 Tb1 2.325 . S
O16 C31 1.236 . S
O17 Tb0 2.322 1_455 S
O17 C31 1.257 . S
O18 Tb0 2.349 1_556 S
O18 C2 1.261 1_655 S
O19 Tb1 2.303 1_556 S
O19 C2 1.257 . S
C20 O10 1.236 . S
C20 O11 1.257 . S
O21 Tb0 2.415 . S
O21 C9 1.239 . S
O22 Tb0 2.399 1_556 S
O22 C9 1.263 1_556 S
C23 O12 1.261 . S
C23 O13 1.257 . S
C24 C27 1.358 . S
C24 C28 1.332 1_554 S
C24 C30 1.504 . S
C25 C26 1.373 . S
C25 C29 1.308 1_554 S
C26 C25 1.373 . S
C26 C27 1.429 . S
C26 H36 0.932 . S
C27 C24 1.358 . S
C27 C26 1.429 . S
C27 H37 0.930 . S
C28 C24 1.332 1_556 S
C28 C29 1.394 . S
C28 H38 0.932 . S
C29 C25 1.308 1_556 S
C29 C28 1.394 . S
C29 H39 0.929 . S
C30 Tb1 2.764 . S
C30 O14 1.239 1_554 S
C30 O15 1.263 . S
C30 C24 1.504 . S
C31 O16 1.236 . S
C31 O17 1.257 . S
H32 C5 0.932 1_556 S
H33 C6 0.930 1_556 S
H34 C7 0.932 . S
H35 C8 0.929 . S
H36 C26 0.932 . S
H37 C27 0.930 . S
H38 C28 0.932 . S
H39 C29 0.929 . S
Tb40 C49 2.764 . S
Tb40 O50 2.325 . S
Tb40 O53 2.303 1_565 S
Tb40 O57 2.322 1_565 S
Tb40 O58 2.349 . S
Tb40 O61 2.415 . S
Tb40 O62 2.399 . S
Tb41 O51 2.322 1_545 S
Tb41 O52 2.349 . S
Tb41 O54 2.415 . S
Tb41 O55 2.399 . S
Tb41 O56 2.325 . S
Tb41 O59 2.303 . S
Tb41 C70 2.764 . S
C42 O58 1.261 1_545 S
C42 O59 1.257 . S
C43 C46 1.358 . S
C43 C47 1.332 . S
C43 C49 1.504 . S
C44 C45 1.373 . S
C44 C48 1.308 . S
C45 C44 1.373 . S
C45 C46 1.429 . S
C45 H72 0.932 . S
C46 C43 1.358 . S
C46 C45 1.429 . S
C46 H73 0.930 . S
C47 C43 1.332 . S
C47 C48 1.394 . S
C47 H74 0.932 . S
C48 C44 1.308 . S
C48 C47 1.394 . S
C48 H75 0.929 . S
C49 Tb40 2.764 . S
C49 C43 1.504 . S
C49 O61 1.239 . S
C49 O62 1.263 . S
O50 Tb40 2.325 . S
O50 C60 1.236 . S
O51 Tb41 2.322 1_565 S
O51 C60 1.257 . S
O52 Tb41 2.349 . S
O52 C63 1.261 . S
O53 Tb40 2.303 1_545 S
O53 C63 1.257 . S
O54 Tb41 2.415 . S
O54 C70 1.239 . S
O55 Tb41 2.399 . S
O55 C70 1.263 . S
O56 Tb41 2.325 . S
O56 C71 1.236 . S
O57 Tb40 2.322 1_545 S
O57 C71 1.257 . S
O58 Tb40 2.349 . S
O58 C42 1.261 1_565 S
O59 Tb41 2.303 . S
O59 C42 1.257 . S
C60 O50 1.236 . S
C60 O51 1.257 . S
O61 Tb40 2.415 . S
O61 C49 1.239 . S
O62 Tb40 2.399 . S
O62 C49 1.263 . S
C63 O52 1.261 . S
C63 O53 1.257 . S
C64 C67 1.358 . S
C64 C68 1.332 . S
C64 C70 1.504 . S
C65 C66 1.373 . S
C65 C69 1.308 . S
C66 C65 1.373 . S
C66 C67 1.429 . S
C66 H76 0.932 . S
C67 C64 1.358 . S
C67 C66 1.429 . S
C67 H77 0.930 . S
C68 C64 1.332 . S
C68 C69 1.394 . S
C68 H78 0.932 . S
C69 C65 1.308 . S
C69 C68 1.394 . S
C69 H79 0.929 . S
C70 Tb41 2.764 . S
C70 O54 1.239 . S
C70 O55 1.263 . S
C70 C64 1.504 . S
C71 O56 1.236 . S
C71 O57 1.257 . S
H72 C45 0.932 . S
H73 C46 0.930 . S
H74 C47 0.932 . S
H75 C48 0.929 . S
H76 C66 0.932 . S
H77 C67 0.930 . S
H78 C68 0.932 . S
H79 C69 0.929 . S
Tb80 C89 2.764 . S
Tb80 O90 2.325 . S
Tb80 O93 2.303 1_556 S
Tb80 O97 2.322 . S
Tb80 O98 2.349 . S
Tb80 O101 2.415 . S
Tb80 O102 2.399 . S
Tb81 O91 2.322 . S
Tb81 O92 2.349 1_556 S
Tb81 O94 2.415 . S
Tb81 O95 2.399 1_556 S
Tb81 O96 2.325 . S
Tb81 O99 2.303 . S
Tb81 C110 2.764 . S
C82 O98 1.261 . S
C82 O99 1.257 . S
C83 C86 1.358 . S
C83 C87 1.332 . S
C83 C89 1.504 . S
C84 C85 1.373 . S
C84 C88 1.308 1_556 S
C85 C84 1.373 . S
C85 C86 1.429 . S
C85 H112 0.932 . S
C86 C83 1.358 . S
C86 C85 1.429 . S
C86 H113 0.930 . S
C87 C83 1.332 . S
C87 C88 1.394 1_556 S
C87 H114 0.932 1_556 S
C88 C84 1.308 1_554 S
C88 C87 1.394 1_554 S
C88 H115 0.929 . S
C89 Tb80 2.764 . S
C89 C83 1.504 . S
C89 O101 1.239 . S
C89 O102 1.263 . S
O90 Tb80 2.325 . S
O90 C100 1.236 . S
O91 Tb81 2.322 . S
O91 C100 1.257 . S
O92 Tb81 2.349 1_554 S
O92 C103 1.261 . S
O93 Tb80 2.303 1_554 S
O93 C103 1.257 . S
O94 Tb81 2.415 . S
O94 C110 1.239 . S
O95 Tb81 2.399 1_554 S
O95 C110 1.263 1_554 S
O96 Tb81 2.325 . S
O96 C111 1.236 . S
O97 Tb80 2.322 . S
O97 C111 1.257 . S
O98 Tb80 2.349 . S
O98 C82 1.261 . S
O99 Tb81 2.303 . S
O99 C82 1.257 . S
C100 O90 1.236 . S
C100 O91 1.257 . S
O101 Tb80 2.415 . S
O101 C89 1.239 . S
O102 Tb80 2.399 . S
O102 C89 1.263 . S
C103 O92 1.261 . S
C103 O93 1.257 . S
C104 C107 1.358 1_556 S
C104 C108 1.332 . S
C104 C110 1.504 . S
C105 C106 1.373 1_556 S
C105 C109 1.308 . S
C106 C105 1.373 1_554 S
C106 C107 1.429 . S
C106 H116 0.932 . S
C107 C104 1.358 1_554 S
C107 C106 1.429 . S
C107 H117 0.930 . S
C108 C104 1.332 . S
C108 C109 1.394 . S
C108 H118 0.932 . S
C109 C105 1.308 . S
C109 C108 1.394 . S
C109 H119 0.929 . S
C110 Tb81 2.764 . S
C110 O94 1.239 . S
C110 O95 1.263 1_556 S
C110 C104 1.504 . S
C111 O96 1.236 . S
C111 O97 1.257 . S
H112 C85 0.932 . S
H113 C86 0.930 . S
H114 C87 0.932 1_554 S
H115 C88 0.929 . S
H116 C106 0.932 . S
H117 C107 0.930 . S
H118 C108 0.932 . S
H119 C109 0.929 . S
C25 C111 1.944 1_554 S
C65 C20 2.483 . S
C60 C105 2.516 . S
C100 C4 2.912 1_556 S
C44 C31 2.261 . S
C84 C71 2.223 . S
C2 C23 0.522 . S
C42 C63 0.742 1_554 S
C82 C103 0.805 . S
