# Generated by pormake.
# Topology uoo, (4)-cn, num edge types: 1
# Building blocks:
#     Node 0, Type 0, BuildingBlock: CEKHIL_clean_sbu_0, # of connection points: 4
#     Node 1, Type 0, BuildingBlock: CEKHIL_clean_sbu_0, # of connection points: 4
#     Node 2, Type 0, BuildingBlock: CEKHIL_clean_sbu_0, # of connection points: 4
#     Node 3, Type 0, BuildingBlock: CEKHIL_clean_sbu_0, # of connection points: 4
#     Node 4, Type 0, BuildingBlock: CEKHIL_clean_sbu_0, # of connection points: 4
#     Node 5, Type 0, BuildingBlock: CEKHIL_clean_sbu_0, # of connection points: 4
#     Edge 6, Type (0, 0), BuildingBlock: AJUNOK_clean_linker_0, # of connection points: 2
#     Edge 7, Type (0, 0), BuildingBlock: AJUNOK_clean_linker_0, # of connection points: 2
#     Edge 8, Type (0, 0), BuildingBlock: AJUNOK_clean_linker_0, # of connection points: 2
#     Edge 9, Type (0, 0), BuildingBlock: AJUNOK_clean_linker_0, # of connection points: 2
#     Edge 10, Type (0, 0), BuildingBlock: AJUNOK_clean_linker_0, # of connection points: 2
#     Edge 11, Type (0, 0), BuildingBlock: AJUNOK_clean_linker_0, # of connection points: 2
#     Edge 12, Type (0, 0), BuildingBlock: AJUNOK_clean_linker_0, # of connection points: 2
#     Edge 13, Type (0, 0), BuildingBlock: AJUNOK_clean_linker_0, # of connection points: 2
#     Edge 14, Type (0, 0), BuildingBlock: AJUNOK_clean_linker_0, # of connection points: 2
#     Edge 15, Type (0, 0), BuildingBlock: AJUNOK_clean_linker_0, # of connection points: 2
#     Edge 16, Type (0, 0), BuildingBlock: AJUNOK_clean_linker_0, # of connection points: 2
#     Edge 17, Type (0, 0), BuildingBlock: AJUNOK_clean_linker_0, # of connection points: 2
# Relax obj value: 0.255
# Max RMSD: 0.173
# Mean RMSD: 0.173
data_MOF--net-uoo--node1-CEKHIL_clean_sbu_0--edge1-AJUNOK_clean_linker_0
_symmetry_space_group_name_H-M    P1
_symmetry_Int_Tables_number       1
_symmetry_cell_setting            triclinic
loop_
_symmetry_equiv_pos_as_xyz
'x, y, z'
_cell_length_a     18.080534
_cell_length_b     18.109926
_cell_length_c     27.883736
_cell_angle_alpha  90.005217
_cell_angle_beta   89.884
_cell_angle_gamma 119.96261
loop_
_atom_site_label
_atom_site_type_symbol
_atom_site_fract_x
_atom_site_fract_y
_atom_site_fract_z
_atom_type_partial_charge
Co0 Co 0.13736 0.32378 0.99171 0.0
O1 O 0.02457 0.30571 0.97858 0.0
O2 O 0.13752 0.42722 0.00193 0.0
C3 C 0.1512 0.25994 0.92615 0.0
O4 O 0.26158 0.37451 0.00599 0.0
Co5 Co 0.18581 0.18758 0.01133 0.0
O6 O 0.30659 0.28048 0.00369 0.0
C7 C 0.09671 0.22781 0.0864 0.0
C8 C 0.05834 0.38644 0.98894 0.0
C9 C 0.32157 0.35691 0.00592 0.0
O10 O 0.10499 0.28999 0.06035 0.0
O11 O 0.12029 0.17539 0.07233 0.0
O12 O 0.16412 0.33718 0.92424 0.0
O13 O 0.12355 0.22048 0.96679 0.0
Co14 Co 0.83085 0.15327 0.33159 0.0
O15 O 0.73178 0.04992 0.30989 0.0
O16 O 0.73176 0.16099 0.34368 0.0
C17 C 0.91169 0.17529 0.26589 0.0
O18 O 0.90928 0.2703 0.35579 0.0
Co19 Co 0.00948 0.1852 0.35153 0.0
O20 O 0.04676 0.30876 0.35616 0.0
C21 C 0.87315 0.08906 0.42229 0.0
C22 C 0.68927 0.087 0.32373 0.0
C23 C 0.9873 0.32615 0.36162 0.0
O24 O 0.82217 0.10263 0.39669 0.0
O25 O 0.95003 0.11314 0.4096 0.0
O26 O 0.85307 0.19676 0.26702 0.0
O27 O 0.91757 0.13665 0.30372 0.0
Co28 Co 0.66708 0.81798 0.66417 0.0
O29 O 0.67148 0.71862 0.6433 0.0
O30 O 0.55939 0.71954 0.6754 0.0
C31 C 0.72889 0.89804 0.59863 0.0
O32 O 0.62899 0.89759 0.6874 0.0
Co33 Co 0.81461 -0.00378 0.68433 0.0
O34 O 0.72905 0.0343 0.69109 0.0
C35 C 0.77085 0.86014 0.75579 0.0
C36 C 0.59138 0.67667 0.65625 0.0
C37 C 0.65177 0.97524 0.69518 0.0
O38 O 0.70657 0.80924 0.73002 0.0
O39 O 0.82473 0.93626 0.74272 0.0
O40 O 0.64851 0.8403 0.599 0.0
O41 O 0.77162 0.90357 0.63714 0.0
Co42 Co 0.83262 0.66849 0.00387 0.0
O43 O 0.93134 0.66654 0.97935 0.0
O44 O 0.82254 0.56119 0.01825 0.0
C45 C 0.81089 0.7245 0.93712 0.0
O46 O 0.72111 0.64065 0.03349 0.0
Co47 Co 0.79928 0.81342 0.02111 0.0
O48 O 0.67854 0.72597 0.005 0.0
C49 C 0.9006 0.77907 0.0919 0.0
C50 C 0.89436 0.58878 0.99591 0.0
C51 C 0.66265 0.65125 0.01556 0.0
O52 O 0.89081 0.71604 0.0662 0.0
O53 O 0.87014 0.82712 0.08024 0.0
O54 O 0.78342 0.64324 0.94052 0.0
O55 O 0.8508 0.77061 0.97423 0.0
Co56 Co 0.18126 0.84653 0.32888 0.0
O57 O 0.27587 0.95703 0.31178 0.0
O58 O 0.28448 0.84542 0.33762 0.0
C59 C 0.10009 0.83014 0.26451 0.0
O60 O 0.10891 0.72441 0.34711 0.0
Co61 Co -0.00172 0.79862 0.35191 0.0
O62 O 0.97023 0.67752 0.35567 0.0
C63 C 0.13226 0.89397 0.42328 0.0
C64 C 0.32282 0.92309 0.32215 0.0
C65 C 0.0331 0.66449 0.35496 0.0
O66 O 0.18524 0.88487 0.39671 0.0
O67 O 0.05524 0.8687 0.41068 0.0
O68 O 0.16273 0.81444 0.26235 0.0
O69 O 0.09035 0.85986 0.30495 0.0
Co70 Co 0.32628 0.16997 0.66373 0.0
O71 O 0.31016 0.26315 0.64354 0.0
O72 O 0.4288 0.27396 0.67392 0.0
C73 C 0.26825 0.08712 0.59909 0.0
O74 O 0.37626 0.0995 0.6856 0.0
Co75 Co 0.19104 0.98692 0.68598 0.0
O76 O 0.28512 0.9603 0.69083 0.0
C77 C 0.22165 0.12142 0.75542 0.0
C78 C 0.38998 0.31102 0.65583 0.0
C79 C 0.36059 0.0236 0.69254 0.0
O80 O 0.28532 0.17461 0.7299 0.0
O81 O 0.17229 0.04387 0.74303 0.0
O82 O 0.34623 0.15045 0.59832 0.0
O83 O 0.22509 0.07789 0.63809 0.0
C84 C 0.22313 0.23903 0.80198 0.0
C85 C 0.2033 0.15356 0.79997 0.0
C86 C 0.20599 0.27218 0.84301 0.0
C87 C 0.16932 0.22163 0.88408 0.0
H88 H 0.25098 0.28063 0.77125 0.0
H89 H 0.22175 0.33826 0.84231 0.0
S90 S 0.11055 0.99491 0.89835 0.0
N91 N 0.1475 0.01927 0.84295 0.0
N92 N 0.11705 0.08232 0.92092 0.0
C93 C 0.15065 0.13629 0.88302 0.0
C94 C 0.167 0.10203 0.84073 0.0
C95 C 0.95812 0.23921 0.18482 0.0
C96 C 0.96447 0.19068 0.22227 0.0
C97 C 0.00214 0.25151 0.14168 0.0
C98 C 0.05422 0.21532 0.13372 0.0
H99 H 0.91793 0.26754 0.18849 0.0
H100 H 0.99357 0.28845 0.11393 0.0
S101 S 0.09731 0.08712 0.22136 0.0
N102 N 0.03042 0.10942 0.2496 0.0
N103 N 0.11285 0.13184 0.16791 0.0
C104 C 0.06266 0.16782 0.17115 0.0
C105 C 0.0181 0.15586 0.21556 0.0
C106 C 0.75141 0.98672 0.47315 0.0
C107 C 0.83976 0.04224 0.46804 0.0
C108 C 0.71679 0.94153 0.51566 0.0
C109 C 0.76878 0.95035 0.55521 0.0
H110 H 0.70835 0.97706 0.44377 0.0
H111 H 0.64838 0.89893 0.51729 0.0
S112 S 0.00383 0.09221 0.56162 0.0
N113 N 0.9786 0.10627 0.50682 0.0
N114 N 0.91322 0.02185 0.58726 0.0
C115 C 0.85724 0.00689 0.55108 0.0
C116 C 0.89278 0.0525 0.50736 0.0
C117 C 0.75404 0.70759 0.85401 0.0
C118 C 0.79984 0.76183 0.89226 0.0
C119 C 0.74512 0.74012 0.81026 0.0
C120 C 0.78223 0.82841 0.80268 0.0
H121 H 0.72498 0.6391 0.85763 0.0
H122 H 0.70957 0.69544 0.78194 0.0
S123 S 0.90449 -0.00196 0.89216 0.0
N124 N 0.87999 0.90848 0.92037 0.0
N125 N 0.86373 0.96972 0.83786 0.0
C126 C 0.82752 0.88361 0.84076 0.0
C127 C 0.83604 0.85032 0.88561 0.0
C128 C 0.06146 0.78415 0.17997 0.0
C129 C 0.04678 0.81832 0.2218 0.0
C130 C 0.01441 0.77299 0.13831 0.0
C131 C 0.951 0.7962 0.13638 0.0
H132 H 0.10977 0.76545 0.17917 0.0
H133 H 0.02831 0.74612 0.10717 0.0
S134 S 0.8854 0.88647 0.23628 0.0
N135 N 0.96263 0.87386 0.25913 0.0
N136 N 0.87465 0.85386 0.18007 0.0
C137 C 0.93558 0.83097 0.17775 0.0
C138 C 0.98315 0.84153 0.22066 0.0
C139 C 0.28432 0.04317 0.51706 0.0
C140 C 0.23091 0.0326 0.55631 0.0
C141 C 0.25166 -0.00292 0.47472 0.0
C142 C 0.16396 0.93894 0.46953 0.0
H143 H 0.3522 0.08816 0.51871 0.0
H144 H 0.29562 0.00867 0.4454 0.0
S145 S -0.00278 0.88298 0.56267 0.0
N146 N 0.08625 0.95601 0.5883 0.0
N147 N 0.02445 0.86997 0.50808 0.0
C148 C 0.1097 0.92635 0.50873 0.0
C149 C 0.14329 0.97283 0.5523 0.0
C150 C 0.42235 0.51358 0.01255 0.0
C151 C 0.40977 0.43019 0.00818 0.0
C152 C 0.50407 0.5852 0.01406 0.0
C153 C 0.57647 0.57627 0.0118 0.0
H154 H 0.36861 0.52425 0.01493 0.0
H155 H 0.51044 0.64765 0.01789 0.0
S156 S 0.58005 0.37396 0.99669 0.0
N157 N 0.47768 0.34412 0.99922 0.0
N158 N 0.63152 0.47865 0.00217 0.0
C159 C 0.56532 0.49375 0.00656 0.0
C160 C 0.482 0.42076 0.00479 0.0
C161 C 0.07939 0.48245 0.35006 0.0
C162 C 0.00504 0.41406 0.36908 0.0
C163 C 0.08775 0.56323 0.3465 0.0
C164 C 0.02206 0.57866 0.36179 0.0
H165 H 0.12931 0.47266 0.3353 0.0
H166 H 0.14531 0.61324 0.32992 0.0
S167 S 0.82019 0.42314 0.42127 0.0
N168 N 0.8686 0.36857 0.40888 0.0
N169 N 0.88444 0.52073 0.40144 0.0
C170 C 0.94957 0.51194 0.38351 0.0
C171 C 0.94125 0.42969 0.38752 0.0
C172 C 0.51682 0.07871 0.68495 0.0
C173 C 0.43549 0.01268 0.69961 0.0
C174 C 0.58884 0.06927 0.68714 0.0
C175 C 0.5822 0.99352 0.70413 0.0
H176 H 0.5247 0.13718 0.66961 0.0
H177 H 0.64867 0.11948 0.67274 0.0
S178 S 0.38797 0.80771 0.75493 0.0
N179 N 0.35518 0.87354 0.73717 0.0
N180 N 0.49084 0.85572 0.7421 0.0
C181 C 0.50278 0.92956 0.72234 0.0
C182 C 0.42925 0.93898 0.71971 0.0
C183 C 0.52712 0.44515 0.6461 0.0
C184 C 0.4375 0.40378 0.64979 0.0
C185 C 0.57657 0.53385 0.64613 0.0
C186 C 0.53801 0.58404 0.65048 0.0
H187 H 0.5597 0.40868 0.64424 0.0
H188 H 0.64543 0.56299 0.64466 0.0
S189 S 0.30512 0.50666 0.6566 0.0
N190 N 0.31172 0.41903 0.65429 0.0
N191 N 0.40446 0.58659 0.65463 0.0
C192 C 0.44808 0.54357 0.65192 0.0
C193 C 0.39774 0.45304 0.6514 0.0
C194 C 0.01803 0.56994 0.97694 0.0
C195 C 0.93208 0.53376 0.99031 0.0
C196 C 0.0572 0.52039 0.97509 0.0
C197 C 0.01149 0.43281 0.98586 0.0
H198 H 0.05617 0.63747 0.96926 0.0
H199 H 0.1244 0.55136 0.96589 0.0
S200 S 0.78342 0.30588 0.01953 0.0
N201 N 0.80078 0.40375 0.01213 0.0
N202 N 0.87542 0.31076 0.00812 0.0
C203 C 0.92471 0.3948 0.99724 0.0
C204 C 0.88475 0.4454 0.9997 0.0
C205 C 0.54623 0.9594 0.31256 0.0
C206 C 0.5965 0.04782 0.31795 0.0
C207 C 0.45736 0.92024 0.31235 0.0
C208 C 0.41593 0.9683 0.31692 0.0
H209 H 0.57544 0.91984 0.31033 0.0
H210 H 0.42082 0.8514 0.30955 0.0
S211 S 0.51911 0.2029 0.32688 0.0
N212 N 0.59909 0.18353 0.3242 0.0
N213 N 0.43135 0.10894 0.32358 0.0
C214 C 0.46535 0.05709 0.31974 0.0
C215 C 0.55598 0.09713 0.3204 0.0
loop_
_geom_bond_atom_site_label_1
_geom_bond_atom_site_label_2
_geom_bond_distance
_geom_bond_site_symmetry_2
_ccdc_geom_bond_type
Co0 O1 2.216 . S
Co0 O2 2.091 . S
Co0 O4 2.004 1_556 S
Co0 O10 2.021 1_556 S
Co0 O12 2.137 . S
Co0 O13 2.244 . S
O1 Co0 2.216 . S
O1 C8 1.247 . S
O2 Co0 2.091 . S
O2 C8 1.261 . S
C3 O12 1.247 . S
C3 O13 1.272 . S
O4 Co0 2.004 1_554 S
O4 C9 1.259 . S
Co5 O6 2.061 . S
Co5 O11 2.052 . S
Co5 O13 2.135 1_554 S
O6 Co5 2.061 . S
O6 C9 1.235 . S
C7 O10 1.238 . S
C7 O11 1.241 . S
C8 O1 1.247 . S
C8 O2 1.261 . S
C9 O4 1.259 . S
C9 O6 1.235 . S
O10 Co0 2.021 1_554 S
O10 C7 1.238 . S
O11 Co5 2.052 . S
O11 C7 1.241 . S
O12 Co0 2.137 . S
O12 C3 1.247 . S
O13 Co0 2.244 . S
O13 C3 1.272 . S
O13 Co5 2.135 1_556 S
Co14 O15 2.216 . S
Co14 O16 2.091 . S
Co14 O18 2.004 . S
Co14 O24 2.021 . S
Co14 O26 2.137 . S
Co14 O27 2.244 . S
O15 Co14 2.216 . S
O15 C22 1.247 . S
O16 Co14 2.091 . S
O16 C22 1.261 . S
C17 O26 1.247 . S
C17 O27 1.272 . S
O18 Co14 2.004 . S
O18 C23 1.259 . S
Co19 O20 2.061 . S
Co19 O25 2.052 1_455 S
Co19 O27 2.135 1_455 S
O20 Co19 2.061 . S
O20 C23 1.235 1_455 S
C21 O24 1.238 . S
C21 O25 1.241 . S
C22 O15 1.247 . S
C22 O16 1.261 . S
C23 O18 1.259 . S
C23 O20 1.235 1_655 S
O24 Co14 2.021 . S
O24 C21 1.238 . S
O25 Co19 2.052 1_655 S
O25 C21 1.241 . S
O26 Co14 2.137 . S
O26 C17 1.247 . S
O27 Co14 2.244 . S
O27 C17 1.272 . S
O27 Co19 2.135 1_655 S
Co28 O29 2.216 . S
Co28 O30 2.091 . S
Co28 O32 2.004 . S
Co28 O38 2.021 . S
Co28 O40 2.137 . S
Co28 O41 2.244 . S
O29 Co28 2.216 . S
O29 C36 1.247 . S
O30 Co28 2.091 . S
O30 C36 1.261 . S
C31 O40 1.247 . S
C31 O41 1.272 . S
O32 Co28 2.004 . S
O32 C37 1.259 . S
Co33 O34 2.061 . S
Co33 O39 2.052 1_545 S
Co33 O41 2.135 1_545 S
O34 Co33 2.061 . S
O34 C37 1.235 1_545 S
C35 O38 1.238 . S
C35 O39 1.241 . S
C36 O29 1.247 . S
C36 O30 1.261 . S
C37 O32 1.259 . S
C37 O34 1.235 1_565 S
O38 Co28 2.021 . S
O38 C35 1.238 . S
O39 Co33 2.052 1_565 S
O39 C35 1.241 . S
O40 Co28 2.137 . S
O40 C31 1.247 . S
O41 Co28 2.244 . S
O41 C31 1.272 . S
O41 Co33 2.135 1_565 S
Co42 O43 2.216 . S
Co42 O44 2.091 . S
Co42 O46 2.004 1_556 S
Co42 O52 2.021 1_556 S
Co42 O54 2.137 . S
Co42 O55 2.244 . S
O43 Co42 2.216 . S
O43 C50 1.247 . S
O44 Co42 2.091 . S
O44 C50 1.261 . S
C45 O54 1.247 . S
C45 O55 1.272 . S
O46 Co42 2.004 1_554 S
O46 C51 1.259 . S
Co47 O48 2.061 . S
Co47 O53 2.052 . S
Co47 O55 2.135 1_554 S
O48 Co47 2.061 . S
O48 C51 1.235 . S
C49 O52 1.238 . S
C49 O53 1.241 . S
C50 O43 1.247 . S
C50 O44 1.261 . S
C51 O46 1.259 . S
C51 O48 1.235 . S
O52 Co42 2.021 1_554 S
O52 C49 1.238 . S
O53 Co47 2.052 . S
O53 C49 1.241 . S
O54 Co42 2.137 . S
O54 C45 1.247 . S
O55 Co42 2.244 . S
O55 C45 1.272 . S
O55 Co47 2.135 1_556 S
Co56 O57 2.216 . S
Co56 O58 2.091 . S
Co56 O60 2.004 . S
Co56 O66 2.021 . S
Co56 O68 2.137 . S
Co56 O69 2.244 . S
O57 Co56 2.216 . S
O57 C64 1.247 . S
O58 Co56 2.091 . S
O58 C64 1.261 . S
C59 O68 1.247 . S
C59 O69 1.272 . S
O60 Co56 2.004 . S
O60 C65 1.259 . S
Co61 O62 2.061 . S
Co61 O67 2.052 1_655 S
Co61 O69 2.135 1_655 S
O62 Co61 2.061 . S
O62 C65 1.235 1_655 S
C63 O66 1.238 . S
C63 O67 1.241 . S
C64 O57 1.247 . S
C64 O58 1.261 . S
C65 O60 1.259 . S
C65 O62 1.235 1_455 S
O66 Co56 2.021 . S
O66 C63 1.238 . S
O67 Co61 2.052 1_455 S
O67 C63 1.241 . S
O68 Co56 2.137 . S
O68 C59 1.247 . S
O69 Co56 2.244 . S
O69 C59 1.272 . S
O69 Co61 2.135 1_455 S
Co70 O71 2.216 . S
Co70 O72 2.091 . S
Co70 O74 2.004 . S
Co70 O80 2.021 . S
Co70 O82 2.137 . S
Co70 O83 2.244 . S
O71 Co70 2.216 . S
O71 C78 1.247 . S
O72 Co70 2.091 . S
O72 C78 1.261 . S
C73 O82 1.247 . S
C73 O83 1.272 . S
O74 Co70 2.004 . S
O74 C79 1.259 . S
Co75 O76 2.061 . S
Co75 O81 2.052 1_565 S
Co75 O83 2.135 1_565 S
O76 Co75 2.061 . S
O76 C79 1.235 1_565 S
C77 O80 1.238 . S
C77 O81 1.241 . S
C78 O71 1.247 . S
C78 O72 1.261 . S
C79 O74 1.259 . S
C79 O76 1.235 1_545 S
O80 Co70 2.021 . S
O80 C77 1.238 . S
O81 Co75 2.052 1_545 S
O81 C77 1.241 . S
O82 Co70 2.137 . S
O82 C73 1.247 . S
O83 Co70 2.244 . S
O83 C73 1.272 . S
O83 Co75 2.135 1_545 S
C84 C85 1.369 . S
C84 C86 1.419 . S
C84 H88 0.930 . S
C85 C84 1.369 . S
C85 C94 1.429 . S
C86 C84 1.419 . S
C86 C87 1.363 . S
C86 H89 0.929 . S
C87 C86 1.363 . S
C87 C93 1.428 . S
H88 C84 0.930 . S
H89 C86 0.929 . S
S90 N91 1.613 . S
S90 N92 1.610 . S
N91 S90 1.613 . S
N91 C94 1.350 . S
N92 S90 1.610 . S
N92 C93 1.351 . S
C93 C87 1.428 . S
C93 N92 1.351 . S
C93 C94 1.434 . S
C94 C85 1.429 . S
C94 N91 1.350 . S
C94 C93 1.434 . S
C95 C96 1.369 . S
C95 C97 1.419 1_655 S
C95 H99 0.930 . S
C96 C95 1.369 . S
C96 C105 1.429 . S
C97 C95 1.419 1_455 S
C97 C98 1.363 . S
C97 H100 0.929 . S
C98 C97 1.363 . S
C98 C104 1.428 . S
H99 C95 0.930 . S
H100 C97 0.929 . S
S101 N102 1.613 1_565 S
S101 N103 1.610 1_665 S
N102 S101 1.613 1_545 S
N102 C105 1.350 . S
N103 S101 1.610 1_445 S
N103 C104 1.351 . S
C104 C98 1.428 . S
C104 N103 1.351 . S
C104 C105 1.434 1_455 S
C105 C96 1.429 . S
C105 N102 1.350 . S
C105 C104 1.434 1_655 S
C106 C107 1.369 1_565 S
C106 C108 1.419 . S
C106 H110 0.930 . S
C107 C106 1.369 1_545 S
C107 C116 1.429 . S
C108 C106 1.419 . S
C108 C109 1.363 . S
C108 H111 0.929 . S
C109 C108 1.363 . S
C109 C115 1.428 1_565 S
H110 C106 0.930 . S
H111 C108 0.929 . S
S112 N113 1.613 . S
S112 N114 1.610 1_455 S
N113 S112 1.613 . S
N113 C116 1.350 1_455 S
N114 S112 1.610 1_655 S
N114 C115 1.351 . S
C115 C109 1.428 1_545 S
C115 N114 1.351 . S
C115 C116 1.434 . S
C116 C107 1.429 . S
C116 N113 1.350 1_655 S
C116 C115 1.434 . S
C117 C118 1.369 . S
C117 C119 1.419 . S
C117 H121 0.930 . S
C118 C117 1.369 . S
C118 C127 1.429 . S
C119 C117 1.419 . S
C119 C120 1.363 . S
C119 H122 0.929 . S
C120 C119 1.363 . S
C120 C126 1.428 . S
H121 C117 0.930 . S
H122 C119 0.929 . S
S123 N124 1.613 1_545 S
S123 N125 1.610 . S
N124 S123 1.613 1_565 S
N124 C127 1.350 . S
N125 S123 1.610 . S
N125 C126 1.351 1_545 S
C126 C120 1.428 . S
C126 N125 1.351 1_565 S
C126 C127 1.434 . S
C127 C118 1.429 . S
C127 N124 1.350 . S
C127 C126 1.434 . S
C128 C129 1.369 . S
C128 C130 1.419 . S
C128 H132 0.930 . S
C129 C128 1.369 . S
C129 C138 1.429 1_455 S
C130 C128 1.419 . S
C130 C131 1.363 1_455 S
C130 H133 0.929 . S
C131 C130 1.363 1_655 S
C131 C137 1.428 . S
H132 C128 0.930 . S
H133 C130 0.929 . S
S134 N135 1.613 . S
S134 N136 1.610 . S
N135 S134 1.613 . S
N135 C138 1.350 . S
N136 S134 1.610 . S
N136 C137 1.351 . S
C137 C131 1.428 . S
C137 N136 1.351 . S
C137 C138 1.434 . S
C138 C129 1.429 1_655 S
C138 N135 1.350 . S
C138 C137 1.434 . S
C139 C140 1.369 . S
C139 C141 1.419 . S
C139 H143 0.930 . S
C140 C139 1.369 . S
C140 C149 1.429 1_545 S
C141 C139 1.419 . S
C141 C142 1.363 1_545 S
C141 H144 0.929 . S
C142 C141 1.363 1_565 S
C142 C148 1.428 . S
H143 C139 0.930 . S
H144 C141 0.929 . S
S145 N146 1.613 1_655 S
S145 N147 1.614 . S
N146 S145 1.613 1_455 S
N146 C149 1.350 . S
N147 S145 1.614 . S
N147 C148 1.345 1_655 S
C148 C142 1.428 . S
C148 N147 1.345 1_455 S
C148 C149 1.434 . S
C149 C140 1.429 1_565 S
C149 N146 1.350 . S
C149 C148 1.434 . S
C150 C151 1.369 . S
C150 C152 1.419 . S
C150 H154 0.930 . S
C151 C150 1.369 . S
C151 C160 1.429 . S
C152 C150 1.419 . S
C152 C153 1.363 . S
C152 H155 0.929 . S
C153 C152 1.363 . S
C153 C159 1.428 . S
H154 C150 0.930 . S
H155 C152 0.929 . S
S156 N157 1.613 . S
S156 N158 1.610 . S
N157 S156 1.613 . S
N157 C160 1.350 1_556 S
N158 S156 1.610 . S
N158 C159 1.351 1_556 S
C159 C153 1.428 . S
C159 N158 1.351 1_554 S
C159 C160 1.434 . S
C160 C151 1.429 . S
C160 N157 1.350 1_554 S
C160 C159 1.434 . S
C161 C162 1.369 1_455 S
C161 C163 1.419 . S
C161 H165 0.930 . S
C162 C161 1.369 1_655 S
C162 C171 1.429 . S
C163 C161 1.419 . S
C163 C164 1.363 . S
C163 H166 0.929 . S
C164 C163 1.363 . S
C164 C170 1.428 1_455 S
H165 C161 0.930 . S
H166 C163 0.929 . S
S167 N168 1.613 . S
S167 N169 1.610 . S
N168 S167 1.613 . S
N168 C171 1.350 . S
N169 S167 1.610 . S
N169 C170 1.351 . S
C170 C164 1.428 1_655 S
C170 N169 1.351 . S
C170 C171 1.434 . S
C171 C162 1.429 . S
C171 N168 1.350 . S
C171 C170 1.434 . S
C172 C173 1.369 . S
C172 C174 1.419 . S
C172 H176 0.930 . S
C173 C172 1.369 . S
C173 C182 1.429 1_545 S
C174 C172 1.419 . S
C174 C175 1.363 1_545 S
C174 H177 0.929 . S
C175 C174 1.363 1_565 S
C175 C181 1.428 . S
H176 C172 0.930 . S
H177 C174 0.929 . S
S178 N179 1.613 . S
S178 N180 1.610 . S
N179 S178 1.613 . S
N179 C182 1.350 . S
N180 S178 1.610 . S
N180 C181 1.351 . S
C181 C175 1.428 . S
C181 N180 1.351 . S
C181 C182 1.434 . S
C182 C173 1.429 1_565 S
C182 N179 1.350 . S
C182 C181 1.434 . S
C183 C184 1.369 . S
C183 C185 1.419 . S
C183 H187 0.930 . S
C184 C183 1.369 . S
C184 C193 1.429 . S
C185 C183 1.419 . S
C185 C186 1.363 . S
C185 H188 0.929 . S
C186 C185 1.363 . S
C186 C192 1.428 . S
H187 C183 0.930 . S
H188 C185 0.929 . S
S189 N190 1.613 . S
S189 N191 1.610 . S
N190 S189 1.613 . S
N190 C193 1.350 . S
N191 S189 1.610 . S
N191 C192 1.351 . S
C192 C186 1.428 . S
C192 N191 1.351 . S
C192 C193 1.434 . S
C193 C184 1.429 . S
C193 N190 1.350 . S
C193 C192 1.434 . S
C194 C195 1.369 1_455 S
C194 C196 1.419 . S
C194 H198 0.930 . S
C195 C194 1.369 1_655 S
C195 C204 1.429 1_556 S
C196 C194 1.419 . S
C196 C197 1.363 . S
C196 H199 0.929 . S
C197 C196 1.363 . S
C197 C203 1.428 1_456 S
H198 C194 0.930 . S
H199 C196 0.929 . S
S200 N201 1.613 . S
S200 N202 1.610 . S
N201 S200 1.613 . S
N201 C204 1.350 . S
N202 S200 1.610 . S
N202 C203 1.351 . S
C203 C197 1.428 1_654 S
C203 N202 1.351 . S
C203 C204 1.434 . S
C204 C195 1.429 1_554 S
C204 N201 1.350 . S
C204 C203 1.434 . S
C205 C206 1.369 1_565 S
C205 C207 1.419 . S
C205 H209 0.930 . S
C206 C205 1.369 1_545 S
C206 C215 1.429 . S
C207 C205 1.419 . S
C207 C208 1.363 . S
C207 H210 0.929 . S
C208 C207 1.363 . S
C208 C214 1.428 1_565 S
H209 C205 0.930 . S
H210 C207 0.929 . S
S211 N212 1.613 . S
S211 N213 1.610 . S
N212 S211 1.613 . S
N212 C215 1.350 . S
N213 S211 1.610 . S
N213 C214 1.351 . S
C214 C208 1.428 1_545 S
C214 N213 1.351 . S
C214 C215 1.434 . S
C215 C206 1.429 . S
C215 N212 1.350 . S
C215 C214 1.434 . S
C85 C77 1.369 . S
C87 C3 1.350 . S
C96 C17 1.353 . S
C98 C7 1.368 . S
C107 C21 1.368 . S
C109 C31 1.352 . S
C118 C45 1.352 . S
C120 C35 1.369 . S
C129 C59 1.349 . S
C131 C49 1.369 . S
C140 C73 1.351 . S
C142 C63 1.369 . S
C151 C9 1.584 . S
C153 C51 1.581 . S
C162 C23 1.580 . S
C164 C65 1.584 . S
C173 C79 1.584 . S
C175 C37 1.583 . S
C184 C78 1.486 . S
C186 C36 1.477 . S
C195 C50 1.480 . S
C197 C8 1.480 . S
C206 C22 1.478 . S
C208 C64 1.482 . S
