# Generated by pormake.
# Topology rob, (6)-cn, num edge types: 1
# Building blocks:
#     Node 0, Type 0, BuildingBlock: PAMTOO_clean_sbu_0, # of connection points: 6
#     Node 1, Type 0, BuildingBlock: PAMTOO_clean_sbu_0, # of connection points: 6
#     Node 2, Type 0, BuildingBlock: PAMTOO_clean_sbu_0, # of connection points: 6
#     Node 3, Type 0, BuildingBlock: PAMTOO_clean_sbu_0, # of connection points: 6
#     Edge 4, Type (0, 0), None
#     Edge 5, Type (0, 0), None
#     Edge 6, Type (0, 0), None
#     Edge 7, Type (0, 0), None
#     Edge 8, Type (0, 0), None
#     Edge 9, Type (0, 0), None
#     Edge 10, Type (0, 0), None
#     Edge 11, Type (0, 0), None
#     Edge 12, Type (0, 0), None
#     Edge 13, Type (0, 0), None
#     Edge 14, Type (0, 0), None
#     Edge 15, Type (0, 0), None
# Relax obj value: 0.098
# Max RMSD: 0.272
# Mean RMSD: 0.272
data_MOF--net-rob--node1-PAMTOO_clean_sbu_0--edge1-none
_symmetry_space_group_name_H-M    P1
_symmetry_Int_Tables_number       1
_symmetry_cell_setting            triclinic
loop_
_symmetry_equiv_pos_as_xyz
'x, y, z'
_cell_length_a     11.42576
_cell_length_b     7.7762627
_cell_length_c     21.923636
_cell_angle_alpha  100.76056
_cell_angle_beta   90.000282
_cell_angle_gamma 90.000235
loop_
_atom_site_label
_atom_site_type_symbol
_atom_site_fract_x
_atom_site_fract_y
_atom_site_fract_z
_atom_type_partial_charge
Dy0 Dy 0.23769 0.14225 0.94924 0.0
Dy1 Dy 0.11199 0.46823 0.0614 0.0
C2 C 0.37009 0.50546 0.00852 0.0
O3 O 0.24663 1.00853 0.03059 0.0
O4 O 0.24005 0.28022 0.09284 0.0
O5 O 0.23503 1.05161 0.84938 0.0
O6 O 0.36194 0.94336 0.90246 0.0
O7 O -0.02449 0.2774 0.01446 0.0
O8 O 0.07561 1.02007 0.98078 0.0
O9 O 0.10303 0.60192 0.98004 0.0
O10 O 0.10961 0.33023 0.9178 0.0
O11 O 0.11464 0.55884 0.16125 0.0
O12 O -0.01225 0.66714 0.10817 0.0
C13 C 0.24919 0.10746 0.08584 0.0
O14 O 0.37415 0.33311 0.99618 0.0
O15 O 0.27405 0.59043 0.02986 0.0
C16 C 0.42197 0.96423 0.78788 0.0
C17 C 0.56718 1.04346 0.64335 0.0
C18 C 0.62441 0.18499 0.70256 0.0
C19 C 0.58553 0.19301 0.77538 0.0
C20 C 0.39151 0.83777 0.71155 0.0
C21 C 0.46416 0.88211 0.64723 0.0
C22 C 0.32793 0.95341 0.84635 0.0
C23 C -0.02043 0.10504 1.00211 0.0
C24 C 0.10047 0.50299 0.92479 0.0
C25 C -0.07229 0.64629 0.22276 0.0
C26 C 0.78247 0.56713 0.36729 0.0
C27 C 0.72521 0.42563 0.30808 0.0
C28 C 0.7641 0.41759 0.23526 0.0
C29 C -0.04181 0.77273 0.29909 0.0
C30 C 0.88554 0.72842 0.36341 0.0
C31 C 0.02176 0.65707 0.16429 0.0
H32 H 0.68198 0.28547 0.69411 0.0
H33 H 0.6271 0.29605 0.80829 0.0
H34 H 0.39699 0.89359 0.75508 0.0
H35 H 0.4478 0.7901 0.60697 0.0
H36 H 0.66761 0.32519 0.31653 0.0
H37 H 0.7225 0.31458 0.20235 0.0
H38 H -0.04729 0.71692 0.25556 0.0
H39 H 0.90191 0.82043 0.40366 0.0
Dy40 Dy 0.73767 0.64228 0.94923 0.0
Dy41 Dy 0.61197 0.96826 0.0614 0.0
C42 C 0.87009 1.00547 0.00851 0.0
O43 O 0.74663 0.50859 0.0306 0.0
O44 O 0.74005 0.78028 0.09283 0.0
O45 O 0.73502 0.55167 0.84938 0.0
O46 O 0.86191 0.44337 0.90246 0.0
O47 O 0.47551 0.7774 0.01445 0.0
O48 O 0.57561 0.52007 0.98078 0.0
O49 O 0.60302 0.10198 0.98004 0.0
O50 O 0.60961 0.83029 0.9178 0.0
O51 O 0.61463 0.0589 0.16125 0.0
O52 O 0.48772 0.16715 0.10817 0.0
C53 C 0.74919 0.60752 0.08584 0.0
O54 O 0.87414 0.83312 0.99617 0.0
O55 O 0.77404 0.09045 0.02985 0.0
C56 C 0.92195 0.46422 0.78788 0.0
C57 C 0.06719 0.54338 0.64334 0.0
C58 C 0.12445 0.68488 0.70256 0.0
C59 C 0.08556 0.69292 0.77537 0.0
C60 C 0.89147 0.33778 0.71155 0.0
C61 C -0.03587 0.38209 0.64722 0.0
C62 C 0.82791 0.45343 0.84634 0.0
C63 C 0.47957 0.60504 1.00212 0.0
C64 C 0.60047 1.00305 0.92479 0.0
C65 C 0.42769 0.14628 0.22275 0.0
C66 C 0.28247 0.06705 0.36729 0.0
C67 C 0.22525 0.92551 0.30807 0.0
C68 C 0.26413 0.9175 0.23526 0.0
C69 C 0.45814 0.27274 0.29908 0.0
C70 C 0.3855 0.22839 0.36341 0.0
C71 C 0.52173 0.1571 0.16429 0.0
H72 H 0.18204 0.78533 0.6941 0.0
H73 H 0.12716 0.79593 0.80828 0.0
H74 H 0.89696 0.39359 0.75507 0.0
H75 H -0.05225 0.29008 0.60697 0.0
H76 H 0.16768 0.82503 0.31652 0.0
H77 H 0.22256 0.81445 0.20234 0.0
H78 H 0.45267 0.21692 0.25556 0.0
H79 H 0.40185 0.3204 0.40366 0.0
Dy80 Dy 0.23768 0.96825 0.5614 0.0
Dy81 Dy 0.11196 0.64223 0.44924 0.0
C82 C 0.37009 0.60504 0.50211 0.0
O83 O 0.24665 0.10194 0.48003 0.0
O84 O 0.24003 0.83022 0.41781 0.0
O85 O 0.23502 0.05885 0.66125 0.0
O86 O 0.3619 0.16718 0.60818 0.0
O87 O -0.0245 0.8331 0.49617 0.0
O88 O 0.07561 0.09043 0.52986 0.0
O89 O 0.10301 0.50852 0.53059 0.0
O90 O 0.10963 0.78022 0.59283 0.0
O91 O 0.11463 0.5516 0.34938 0.0
O92 O -0.01227 0.44332 0.40246 0.0
C93 C 0.24916 1.00298 0.42479 0.0
O94 O 0.37415 0.7774 0.51447 0.0
O95 O 0.27405 0.52007 0.48078 0.0
C96 C 0.42193 0.14631 0.72276 0.0
C97 C 0.56722 0.06719 0.86729 0.0
C98 C 0.62447 0.92568 0.80807 0.0
C99 C 0.58556 0.91764 0.73526 0.0
C100 C 0.39146 0.27275 0.7991 0.0
C101 C 0.46413 0.22845 0.86342 0.0
C102 C 0.32789 0.1571 0.66429 0.0
C103 C -0.02044 1.00546 0.50852 0.0
C104 C 0.1005 0.60746 0.58584 0.0
C105 C -0.0723 0.46421 0.28787 0.0
C106 C 0.78244 0.5434 0.14335 0.0
C107 C 0.72523 0.68494 0.20257 0.0
C108 C 0.76413 0.69296 0.27538 0.0
C109 C -0.04184 0.33776 0.21154 0.0
C110 C 0.8855 0.38209 0.14722 0.0
C111 C 0.02174 0.45338 0.34634 0.0
H112 H 0.68205 0.82523 0.81653 0.0
H113 H 0.62718 0.81464 0.70235 0.0
H114 H 0.39694 0.21694 0.75557 0.0
H115 H 0.44775 0.32044 0.90367 0.0
H116 H 0.66767 0.78544 0.19411 0.0
H117 H 0.72254 0.79599 0.30829 0.0
H118 H -0.04732 0.39357 0.25507 0.0
H119 H 0.90186 0.2901 0.10696 0.0
Dy120 Dy 0.7377 0.46828 0.5614 0.0
Dy121 Dy 0.61198 0.14226 0.44923 0.0
C122 C 0.87009 0.10504 0.50212 0.0
O123 O 0.74665 0.60199 0.48004 0.0
O124 O 0.74004 0.33029 0.41781 0.0
O125 O 0.73502 0.55891 0.66125 0.0
O126 O 0.86193 0.66719 0.60818 0.0
O127 O 0.47551 0.33311 0.49616 0.0
O128 O 0.57562 0.59045 0.52985 0.0
O129 O 0.60301 1.00857 0.5306 0.0
O130 O 0.60962 0.28028 0.59282 0.0
O131 O 0.61464 1.05166 0.34938 0.0
O132 O 0.48776 0.94333 0.40245 0.0
C133 C 0.74916 0.50305 0.4248 0.0
O134 O 0.87415 0.2774 0.51446 0.0
O135 O 0.77405 1.02007 0.48078 0.0
C136 C 0.92195 0.6463 0.72276 0.0
C137 C 0.06722 0.56712 0.86729 0.0
C138 C 0.12443 0.42558 0.80807 0.0
C139 C 0.08554 0.41755 0.73526 0.0
C140 C 0.8915 0.77275 0.79909 0.0
C141 C -0.03584 0.72842 0.86341 0.0
C142 C 0.82792 0.65712 0.66429 0.0
C143 C 0.47957 0.50547 0.50851 0.0
C144 C 0.6005 0.10752 0.58584 0.0
C145 C 0.42773 0.9642 0.28787 0.0
C146 C 0.28244 1.04331 0.14334 0.0
C147 C 0.22519 0.18482 0.20256 0.0
C148 C 0.26409 0.19286 0.27537 0.0
C149 C 0.45821 0.83776 0.21154 0.0
C150 C 0.38553 0.88206 0.14721 0.0
C151 C 0.52177 0.95341 0.34634 0.0
H152 H 0.18199 0.32508 0.81652 0.0
H153 H 0.12712 0.31453 0.70234 0.0
H154 H 0.89697 0.71694 0.75556 0.0
H155 H -0.0522 0.82041 0.90367 0.0
H156 H 0.1676 0.28528 0.1941 0.0
H157 H 0.22248 0.29586 0.30829 0.0
H158 H 0.45272 0.89357 0.25506 0.0
H159 H 0.40191 0.79007 0.10696 0.0
loop_
_geom_bond_atom_site_label_1
_geom_bond_atom_site_label_2
_geom_bond_distance
_geom_bond_site_symmetry_2
_ccdc_geom_bond_type
Dy0 O3 2.307 1_556 S
Dy0 O5 2.395 . S
Dy0 O6 2.379 1_545 S
Dy0 O8 2.339 1_545 S
Dy0 O10 2.298 . S
Dy0 O14 2.275 . S
Dy0 C22 2.738 . S
Dy1 O4 2.298 . S
Dy1 O7 2.275 . S
Dy1 O9 2.307 1_554 S
Dy1 O11 2.395 . S
Dy1 O12 2.379 . S
Dy1 O15 2.339 . S
Dy1 C31 2.738 . S
C2 O14 1.254 1_554 S
C2 O15 1.257 . S
O3 Dy0 2.307 1_554 S
O3 C13 1.266 . S
O4 Dy1 2.298 . S
O4 C13 1.236 . S
O5 Dy0 2.395 . S
O5 C22 1.255 . S
O6 Dy0 2.379 1_565 S
O6 C22 1.249 1_565 S
O7 Dy1 2.275 . S
O7 C23 1.254 1_544 S
O8 Dy0 2.339 1_565 S
O8 C23 1.257 . S
O9 Dy1 2.307 1_556 S
O9 C24 1.266 . S
O10 Dy0 2.298 . S
O10 C24 1.236 . S
O11 Dy1 2.395 . S
O11 C31 1.255 . S
O12 Dy1 2.379 . S
O12 C31 1.249 . S
C13 O3 1.266 . S
C13 O4 1.236 . S
O14 Dy0 2.275 . S
O14 C2 1.254 1_556 S
O15 Dy1 2.339 . S
O15 C2 1.257 . S
C16 C19 1.344 . S
C16 C20 1.328 1_545 S
C16 C22 1.516 . S
C17 C18 1.304 1_565 S
C17 C21 1.323 . S
C18 C17 1.304 1_545 S
C18 C19 1.371 . S
C18 H32 0.930 . S
C19 C16 1.344 . S
C19 C18 1.371 . S
C19 H33 0.931 . S
C20 C16 1.328 1_565 S
C20 C21 1.433 . S
C20 H34 0.931 . S
C21 C17 1.323 . S
C21 C20 1.433 . S
C21 H35 0.933 . S
C22 Dy0 2.738 . S
C22 O5 1.255 . S
C22 O6 1.249 1_545 S
C22 C16 1.516 . S
C23 O7 1.254 1_566 S
C23 O8 1.257 . S
C24 O9 1.266 . S
C24 O10 1.236 . S
C25 C28 1.344 . S
C25 C29 1.328 . S
C25 C31 1.516 1_655 S
C26 C27 1.304 . S
C26 C30 1.323 . S
C27 C26 1.304 . S
C27 C28 1.371 . S
C27 H36 0.930 . S
C28 C25 1.344 . S
C28 C27 1.371 . S
C28 H37 0.931 . S
C29 C25 1.328 . S
C29 C30 1.433 . S
C29 H38 0.931 1_655 S
C30 C26 1.323 . S
C30 C29 1.433 . S
C30 H39 0.933 . S
C31 Dy1 2.738 . S
C31 O11 1.255 . S
C31 O12 1.249 . S
C31 C25 1.516 1_455 S
H32 C18 0.930 . S
H33 C19 0.931 . S
H34 C20 0.931 . S
H35 C21 0.933 . S
H36 C27 0.930 . S
H37 C28 0.931 . S
H38 C29 0.931 1_455 S
H39 C30 0.933 . S
Dy40 O43 2.307 1_556 S
Dy40 O45 2.395 . S
Dy40 O46 2.379 . S
Dy40 O48 2.339 . S
Dy40 O50 2.298 . S
Dy40 O54 2.275 . S
Dy40 C62 2.738 . S
Dy41 O44 2.298 . S
Dy41 O47 2.275 . S
Dy41 O49 2.307 1_554 S
Dy41 O51 2.395 . S
Dy41 O52 2.379 1_565 S
Dy41 O55 2.339 1_565 S
Dy41 C71 2.738 . S
C42 O54 1.254 1_544 S
C42 O55 1.257 . S
O43 Dy40 2.307 1_554 S
O43 C53 1.266 . S
O44 Dy41 2.298 . S
O44 C53 1.236 . S
O45 Dy40 2.395 . S
O45 C62 1.255 . S
O46 Dy40 2.379 . S
O46 C62 1.249 . S
O47 Dy41 2.275 . S
O47 C63 1.254 1_554 S
O48 Dy40 2.339 . S
O48 C63 1.257 . S
O49 Dy41 2.307 1_556 S
O49 C64 1.266 . S
O50 Dy40 2.298 . S
O50 C64 1.236 . S
O51 Dy41 2.395 . S
O51 C71 1.255 . S
O52 Dy41 2.379 1_545 S
O52 C71 1.249 1_545 S
C53 O43 1.266 . S
C53 O44 1.236 . S
O54 Dy40 2.275 . S
O54 C42 1.254 1_566 S
O55 Dy41 2.339 1_545 S
O55 C42 1.257 . S
C56 C59 1.344 . S
C56 C60 1.328 . S
C56 C62 1.516 1_455 S
C57 C58 1.304 . S
C57 C61 1.323 . S
C58 C57 1.304 . S
C58 C59 1.371 . S
C58 H72 0.930 . S
C59 C56 1.344 . S
C59 C58 1.371 . S
C59 H73 0.931 . S
C60 C56 1.328 . S
C60 C61 1.433 . S
C60 H74 0.931 1_455 S
C61 C57 1.323 . S
C61 C60 1.433 . S
C61 H75 0.933 . S
C62 Dy40 2.738 . S
C62 O45 1.255 . S
C62 O46 1.249 . S
C62 C56 1.516 1_655 S
C63 O47 1.254 1_556 S
C63 O48 1.257 . S
C64 O49 1.266 . S
C64 O50 1.236 . S
C65 C68 1.344 . S
C65 C69 1.328 1_565 S
C65 C71 1.516 . S
C66 C67 1.304 1_545 S
C66 C70 1.323 . S
C67 C66 1.304 1_565 S
C67 C68 1.371 . S
C67 H76 0.930 . S
C68 C65 1.344 . S
C68 C67 1.371 . S
C68 H77 0.931 . S
C69 C65 1.328 1_545 S
C69 C70 1.433 . S
C69 H78 0.931 . S
C70 C66 1.323 . S
C70 C69 1.433 . S
C70 H79 0.933 . S
C71 Dy41 2.738 . S
C71 O51 1.255 . S
C71 O52 1.249 1_565 S
C71 C65 1.516 . S
H72 C58 0.930 . S
H73 C59 0.931 . S
H74 C60 0.931 1_655 S
H75 C61 0.933 . S
H76 C67 0.930 . S
H77 C68 0.931 . S
H78 C69 0.931 . S
H79 C70 0.933 . S
Dy80 O83 2.307 . S
Dy80 O85 2.395 . S
Dy80 O86 2.379 1_565 S
Dy80 O88 2.339 1_565 S
Dy80 O90 2.298 . S
Dy80 O94 2.275 . S
Dy80 C102 2.738 . S
Dy81 O84 2.298 . S
Dy81 O87 2.275 . S
Dy81 O89 2.307 . S
Dy81 O91 2.395 . S
Dy81 O92 2.379 . S
Dy81 O95 2.339 . S
Dy81 C111 2.738 . S
C82 O94 1.254 . S
C82 O95 1.257 . S
O83 Dy80 2.307 . S
O83 C93 1.266 . S
O84 Dy81 2.298 . S
O84 C93 1.236 . S
O85 Dy80 2.395 . S
O85 C102 1.255 . S
O86 Dy80 2.379 1_545 S
O86 C102 1.249 1_545 S
O87 Dy81 2.275 . S
O87 C103 1.254 1_565 S
O88 Dy80 2.339 1_545 S
O88 C103 1.257 . S
O89 Dy81 2.307 . S
O89 C104 1.266 . S
O90 Dy80 2.298 . S
O90 C104 1.236 . S
O91 Dy81 2.395 . S
O91 C111 1.255 . S
O92 Dy81 2.379 . S
O92 C111 1.249 . S
C93 O83 1.266 . S
C93 O84 1.236 . S
O94 Dy80 2.275 . S
O94 C82 1.254 . S
O95 Dy81 2.339 . S
O95 C82 1.257 . S
C96 C99 1.344 . S
C96 C100 1.328 1_565 S
C96 C102 1.516 . S
C97 C98 1.304 1_545 S
C97 C101 1.323 . S
C98 C97 1.304 1_565 S
C98 C99 1.371 . S
C98 H112 0.930 . S
C99 C96 1.344 . S
C99 C98 1.371 . S
C99 H113 0.931 . S
C100 C96 1.328 1_545 S
C100 C101 1.433 . S
C100 H114 0.931 . S
C101 C97 1.323 . S
C101 C100 1.433 . S
C101 H115 0.933 . S
C102 Dy80 2.738 . S
C102 O85 1.255 . S
C102 O86 1.249 1_565 S
C102 C96 1.516 . S
C103 O87 1.254 1_545 S
C103 O88 1.257 . S
C104 O89 1.266 . S
C104 O90 1.236 . S
C105 C108 1.344 . S
C105 C109 1.328 . S
C105 C111 1.516 1_655 S
C106 C107 1.304 . S
C106 C110 1.323 . S
C107 C106 1.304 . S
C107 C108 1.371 . S
C107 H116 0.930 . S
C108 C105 1.344 . S
C108 C107 1.371 . S
C108 H117 0.931 . S
C109 C105 1.328 . S
C109 C110 1.433 . S
C109 H118 0.931 1_655 S
C110 C106 1.323 . S
C110 C109 1.433 . S
C110 H119 0.933 . S
C111 Dy81 2.738 . S
C111 O91 1.255 . S
C111 O92 1.249 . S
C111 C105 1.516 1_455 S
H112 C98 0.930 . S
H113 C99 0.931 . S
H114 C100 0.931 . S
H115 C101 0.933 . S
H116 C107 0.930 . S
H117 C108 0.931 . S
H118 C109 0.931 1_455 S
H119 C110 0.933 . S
Dy120 O123 2.307 . S
Dy120 O125 2.395 . S
Dy120 O126 2.379 . S
Dy120 O128 2.339 . S
Dy120 O130 2.298 . S
Dy120 O134 2.275 . S
Dy120 C142 2.738 . S
Dy121 O124 2.298 . S
Dy121 O127 2.275 . S
Dy121 O129 2.307 . S
Dy121 O131 2.395 . S
Dy121 O132 2.379 1_545 S
Dy121 O135 2.339 1_545 S
Dy121 C151 2.738 . S
C122 O134 1.254 1_565 S
C122 O135 1.257 . S
O123 Dy120 2.307 . S
O123 C133 1.266 . S
O124 Dy121 2.298 . S
O124 C133 1.236 . S
O125 Dy120 2.395 . S
O125 C142 1.255 . S
O126 Dy120 2.379 . S
O126 C142 1.249 . S
O127 Dy121 2.275 . S
O127 C143 1.254 . S
O128 Dy120 2.339 . S
O128 C143 1.257 . S
O129 Dy121 2.307 . S
O129 C144 1.266 . S
O130 Dy120 2.298 . S
O130 C144 1.236 . S
O131 Dy121 2.395 . S
O131 C151 1.255 . S
O132 Dy121 2.379 1_565 S
O132 C151 1.249 1_565 S
C133 O123 1.266 . S
C133 O124 1.236 . S
O134 Dy120 2.275 . S
O134 C122 1.254 1_545 S
O135 Dy121 2.339 1_565 S
O135 C122 1.257 . S
C136 C139 1.344 . S
C136 C140 1.328 . S
C136 C142 1.516 1_455 S
C137 C138 1.304 . S
C137 C141 1.323 . S
C138 C137 1.304 . S
C138 C139 1.371 . S
C138 H152 0.930 . S
C139 C136 1.344 . S
C139 C138 1.371 . S
C139 H153 0.931 . S
C140 C136 1.328 . S
C140 C141 1.433 . S
C140 H154 0.931 1_455 S
C141 C137 1.323 . S
C141 C140 1.433 . S
C141 H155 0.933 . S
C142 Dy120 2.738 . S
C142 O125 1.255 . S
C142 O126 1.249 . S
C142 C136 1.516 1_655 S
C143 O127 1.254 . S
C143 O128 1.257 . S
C144 O129 1.266 . S
C144 O130 1.236 . S
C145 C148 1.344 . S
C145 C149 1.328 1_545 S
C145 C151 1.516 . S
C146 C147 1.304 1_565 S
C146 C150 1.323 . S
C147 C146 1.304 1_545 S
C147 C148 1.371 . S
C147 H156 0.930 . S
C148 C145 1.344 . S
C148 C147 1.371 . S
C148 H157 0.931 . S
C149 C145 1.328 1_565 S
C149 C150 1.433 . S
C149 H158 0.931 . S
C150 C146 1.323 . S
C150 C149 1.433 . S
C150 H159 0.933 . S
C151 Dy121 2.738 . S
C151 O131 1.255 . S
C151 O132 1.249 1_545 S
C151 C145 1.516 . S
H152 C138 0.930 . S
H153 C139 0.931 . S
H154 C140 0.931 1_655 S
H155 C141 0.933 . S
H156 C147 0.930 . S
H157 C148 0.931 . S
H158 C149 0.931 . S
H159 C150 0.933 . S
C63 C2 2.298 1_556 S
C82 C143 2.298 . S
C23 C42 2.298 1_466 S
C122 C103 2.298 1_665 S
C146 C13 2.379 1_565 S
C66 C93 2.379 1_545 S
C64 C97 2.375 1_565 S
C144 C17 2.375 1_545 S
C53 C106 2.379 . S
C133 C26 2.379 . S
C137 C24 2.375 . S
C104 C57 2.375 . S
