# Generated by pormake.
# Topology pcu, (6)-cn, num edge types: 1
# Building blocks:
#     Node 0, Type 0, BuildingBlock: KUMBUR_clean_sbu_0, # of connection points: 6
#     Edge 1, Type (0, 0), BuildingBlock: AJUNOK_clean_linker_0, # of connection points: 2
#     Edge 2, Type (0, 0), BuildingBlock: AJUNOK_clean_linker_0, # of connection points: 2
#     Edge 3, Type (0, 0), BuildingBlock: AJUNOK_clean_linker_0, # of connection points: 2
# Relax obj value: 0.000
# Max RMSD: 0.000
# Mean RMSD: 0.000
data_MOF--net-pcu--node1-KUMBUR_clean_sbu_0--edge1-AJUNOK_clean_linker_0
_symmetry_space_group_name_H-M    P1
_symmetry_Int_Tables_number       1
_symmetry_cell_setting            triclinic
loop_
_symmetry_equiv_pos_as_xyz
'x, y, z'
_cell_length_a     9.863413
_cell_length_b     20.414658
_cell_length_c     11.102338
_cell_angle_alpha  114.61689
_cell_angle_beta   76.770978
_cell_angle_gamma 112.65263
loop_
_atom_site_label
_atom_site_type_symbol
_atom_site_fract_x
_atom_site_fract_y
_atom_site_fract_z
_atom_type_partial_charge
Tb0 Tb 0.12469 0.09585 0.05611 0.0
C1 C 0.70465 0.78567 0.74053 0.0
C2 C 0.47296 0.78849 0.87069 0.0
C3 C 0.4751 0.71492 0.63331 0.0
C4 C 0.62824 0.81158 0.86055 0.0
C5 C 0.62899 0.73428 0.62631 0.0
C6 C 0.39706 0.74225 0.75554 0.0
C7 C 0.85913 0.71532 0.51466 0.0
N8 N 0.85227 0.80452 0.73927 0.0
C9 C 0.92871 0.76669 0.63094 0.0
C10 C 0.70924 0.70054 0.51118 0.0
Tb11 Tb 0.95851 0.88853 0.93333 0.0
N12 N 0.70586 0.8546 0.96925 0.0
C13 C 0.63288 0.87083 0.09332 0.0
C14 C 0.39881 0.80991 0.99676 0.0
C15 C 0.47916 0.84982 0.10867 0.0
H16 H 0.0446 0.77775 0.63342 0.0
H17 H 0.42355 0.86552 0.20709 0.0
H18 H 0.2779 0.72467 0.76095 0.0
H19 H 0.921 0.68698 0.42806 0.0
H20 H 0.69191 0.90235 0.18154 0.0
H21 H 0.66963 0.1351 0.79543 0.0
H22 H 0.2799 0.79407 0.00904 0.0
H23 H 1.02016 0.18886 0.36543 0.0
H24 H 0.39942 0.09156 0.8132 0.0
H25 H 0.13327 0.26926 0.57856 0.0
H26 H 0.41497 0.6764 0.54626 0.0
H27 H 0.80451 0.20546 0.99822 0.0
H28 H 0.79653 0.26768 0.24753 0.0
H29 H 0.65537 0.66038 0.4214 0.0
H30 H 0.65035 0.30422 0.46182 0.0
N31 N 0.37785 0.13554 0.02557 0.0
C32 C 0.45518 0.1227 0.90333 0.0
C33 C 0.68527 0.18688 0.00704 0.0
C34 C 0.60625 0.2038 0.13156 0.0
C35 C 0.60943 0.14734 0.89241 0.0
C36 C 0.45092 0.17753 0.13732 0.0
H37 H 0.40245 0.30576 0.58654 0.0
N38 N 0.2211 0.17481 0.25626 0.0
C39 C 0.20139 0.24984 0.4889 0.0
C40 C 0.36948 0.19755 0.25728 0.0
C41 C 0.13752 0.20414 0.3682 0.0
C42 C 0.35304 0.26966 0.49312 0.0
C43 C 0.43978 0.24505 0.37564 0.0
O44 O 1.0252 0.17971 0.10995 0.0
O45 O 0.93236 -0.0021 0.98615 0.0
O46 O 0.98909 0.91912 0.76025 0.0
O47 O 0.13801 0.04826 0.83685 0.0
O48 O 0.89912 0.08947 0.14438 0.0
O49 O 0.19881 0.17083 0.95199 0.0
O50 O 0.05733 0.80512 0.88657 0.0
O51 O 0.15024 0.98655 0.99757 0.0
O52 O 0.12184 0.06097 0.21789 0.0
O53 O 0.95152 0.93734 0.15268 0.0
O54 O 0.18343 0.89276 0.8459 0.0
O55 O 0.88345 0.81682 0.04331 0.0
C56 C 0.83283 0.02326 0.06194 0.0
C57 C 0.1732 0.29275 0.07339 0.0
C58 C 0.17077 0.41381 0.08332 0.0
C59 C 0.12104 0.33371 0.03034 0.0
C60 C 0.27409 0.45283 0.17907 0.0
C61 C 0.27881 0.33254 0.16714 0.0
C62 C 0.32882 0.4122 0.21972 0.0
C63 C 0.0721 0.98367 0.74194 0.0
C64 C 0.11027 0.20905 0.02414 0.0
C65 C 0.59414 0.26839 0.37177 0.0
C66 C 0.67734 0.24769 0.24979 0.0
C67 C 0.2496 0.96092 0.92279 0.0
C68 C 0.90865 0.69476 0.93101 0.0
C69 C 0.97038 0.65583 0.96971 0.0
C70 C 0.91768 0.57603 0.92467 0.0
C71 C 0.80189 0.53506 0.84102 0.0
C72 C 0.79107 0.65345 0.84937 0.0
C73 C 0.7382 0.57382 0.80442 0.0
C74 C 1.03493 -0.00129 0.24112 0.0
C75 C 0.97181 0.77802 0.97463 0.0
H76 H 1.03936 0.30342 0.95794 0.0
H77 H 0.31292 0.51459 0.22152 0.0
H78 H 0.32178 0.30241 0.20059 0.0
H79 H 0.40934 0.4425 0.29291 0.0
H80 H 0.06084 0.6874 0.03324 0.0
H81 H 0.76028 0.47331 0.80515 0.0
H82 H 0.74047 0.68241 0.82024 0.0
H83 H 0.64798 0.54212 0.74085 0.0
C84 C 1.03399 0.05354 0.4888 0.0
C85 C 0.0441 -0.00613 0.36768 0.0
C86 C 0.04883 0.05089 0.60913 0.0
C87 C 0.0732 0.9881 0.61237 0.0
H88 H 1.01037 0.10153 0.49125 0.0
H89 H 1.03588 0.09712 0.70069 0.0
S90 S 0.12111 0.82053 0.32127 0.0
N91 N 0.08876 0.87252 0.25733 0.0
N92 N 0.11724 0.86782 0.48347 0.0
C93 C 0.08653 0.92893 0.49176 0.0
C94 C 0.0715 0.93165 0.36936 0.0
C95 C 0.43219 0.00968 0.09114 0.0
C96 C 0.39991 0.98097 0.958 0.0
C97 C 0.57316 0.02391 0.12318 0.0
C98 C 0.68512 0.0072 0.02333 0.0
H99 H 0.34825 0.0204 0.17127 0.0
H100 H 0.59363 0.04631 0.22696 0.0
S101 S 0.65688 0.9354 0.65947 0.0
N102 N 0.49084 0.93848 0.72624 0.0
N103 N 0.75528 0.96605 0.78572 0.0
C104 C 0.65409 0.9798 0.89002 0.0
C105 C 0.51102 0.96546 0.85761 0.0
C106 C 0.96262 0.53881 0.09566 0.0
C107 C 0.98516 0.53557 0.96395 0.0
C108 C 1.02456 0.49977 0.13406 0.0
C109 C 0.11084 0.45656 0.04181 0.0
H110 H 0.89549 0.57103 0.16877 0.0
H111 H 1.00334 0.50248 0.23592 0.0
S112 S 0.21776 0.43905 0.69019 0.0
N113 N 0.10885 0.49174 0.74472 0.0
N114 N 0.22559 0.41812 0.81663 0.0
C115 C 0.13742 0.45481 0.91095 0.0
C116 C 0.07446 0.49452 0.87206 0.0
loop_
_geom_bond_atom_site_label_1
_geom_bond_atom_site_label_2
_geom_bond_distance
_geom_bond_site_symmetry_2
_ccdc_geom_bond_type
Tb0 N31 2.660 1_554 S
Tb0 N38 2.600 . S
Tb0 O44 2.546 . S
Tb0 O45 2.610 1_444 S
Tb0 O47 2.320 1_554 S
Tb0 O48 2.552 1_455 S
Tb0 O49 2.413 . S
Tb0 O51 2.362 . S
Tb0 O52 2.421 1_455 S
Tb0 C64 2.833 . S
C1 C4 1.432 . S
C1 C5 1.414 . S
C1 N8 1.359 . S
C2 C4 1.417 . S
C2 C6 1.432 . S
C2 C14 1.410 1_556 S
C3 C5 1.444 . S
C3 C6 1.317 . S
C3 H26 0.929 . S
C4 C1 1.432 . S
C4 C2 1.417 . S
C4 N12 1.360 1_556 S
C5 C1 1.414 . S
C5 C3 1.444 . S
C5 C10 1.385 . S
C6 C2 1.432 . S
C6 C3 1.317 . S
C6 H18 0.930 . S
C7 C9 1.392 . S
C7 C10 1.370 . S
C7 H19 0.931 . S
N8 C1 1.359 . S
N8 C9 1.327 . S
N8 Tb11 2.600 . S
C9 C7 1.392 . S
C9 N8 1.327 . S
C9 H16 0.930 . S
C10 C5 1.385 . S
C10 C7 1.370 . S
C10 H29 0.930 . S
Tb11 N8 2.600 . S
Tb11 N12 2.660 1_556 S
Tb11 O45 2.362 . S
Tb11 O46 2.421 1_655 S
Tb11 O50 2.546 . S
Tb11 O51 2.610 1_666 S
Tb11 O53 2.320 1_556 S
Tb11 O54 2.552 1_655 S
Tb11 O55 2.413 . S
Tb11 C75 2.833 . S
N12 C4 1.360 1_554 S
N12 Tb11 2.660 1_554 S
N12 C13 1.305 . S
C13 N12 1.305 . S
C13 C15 1.407 . S
C13 H20 0.930 . S
C14 C2 1.410 1_554 S
C14 C15 1.345 . S
C14 H22 0.930 . S
C15 C13 1.407 . S
C15 C14 1.345 . S
C15 H17 0.930 . S
H16 C9 0.930 . S
H17 C15 0.930 . S
H18 C6 0.930 . S
H19 C7 0.931 . S
H20 C13 0.930 . S
H21 C35 0.930 . S
H22 C14 0.930 . S
H23 C41 0.930 . S
H24 C32 0.930 . S
H25 C39 0.931 . S
H26 C3 0.929 . S
H27 C33 0.930 . S
H28 C66 0.930 . S
H29 C10 0.930 . S
H30 C65 0.929 . S
N31 Tb0 2.660 1_556 S
N31 C32 1.305 . S
N31 C36 1.360 1_556 S
C32 H24 0.930 . S
C32 N31 1.305 . S
C32 C35 1.407 . S
C33 H27 0.930 . S
C33 C34 1.410 1_556 S
C33 C35 1.345 . S
C34 C33 1.410 1_554 S
C34 C36 1.417 . S
C34 C66 1.432 . S
C35 H21 0.930 . S
C35 C32 1.407 . S
C35 C33 1.345 . S
C36 N31 1.360 1_554 S
C36 C34 1.417 . S
C36 C40 1.432 . S
H37 C42 0.930 . S
N38 Tb0 2.600 . S
N38 C40 1.359 . S
N38 C41 1.327 . S
C39 H25 0.931 . S
C39 C41 1.392 . S
C39 C42 1.370 . S
C40 C36 1.432 . S
C40 N38 1.359 . S
C40 C43 1.414 . S
C41 H23 0.930 . S
C41 N38 1.327 . S
C41 C39 1.392 . S
C42 H37 0.930 . S
C42 C39 1.370 . S
C42 C43 1.385 . S
C43 C40 1.414 . S
C43 C42 1.385 . S
C43 C65 1.444 . S
O44 Tb0 2.546 . S
O44 C64 1.251 . S
O45 Tb0 2.610 1_666 S
O45 Tb11 2.362 . S
O45 C56 1.283 1_566 S
O46 Tb11 2.421 1_455 S
O46 C63 1.262 . S
O47 Tb0 2.320 1_556 S
O47 C63 1.260 1_545 S
O48 Tb0 2.552 1_655 S
O48 C56 1.243 . S
O49 Tb0 2.413 . S
O49 C64 1.256 . S
O50 Tb11 2.546 . S
O50 C75 1.251 . S
O51 Tb0 2.362 . S
O51 Tb11 2.610 1_444 S
O51 C67 1.283 1_544 S
O52 Tb0 2.421 1_655 S
O52 C74 1.262 . S
O53 Tb11 2.320 1_554 S
O53 C74 1.260 1_565 S
O54 Tb11 2.552 1_455 S
O54 C67 1.243 . S
O55 Tb11 2.413 . S
O55 C75 1.256 . S
C56 O45 1.283 1_544 S
C56 O48 1.243 . S
C57 C59 1.382 . S
C57 C61 1.393 . S
C57 C64 1.500 . S
C58 C59 1.400 . S
C58 C60 1.384 . S
C59 C57 1.382 . S
C59 C58 1.400 . S
C59 H76 0.930 1_554 S
C60 C58 1.384 . S
C60 C62 1.392 . S
C60 H77 0.931 . S
C61 C57 1.393 . S
C61 C62 1.401 . S
C61 H78 0.930 . S
C62 C60 1.392 . S
C62 C61 1.401 . S
C62 H79 0.930 . S
C63 O46 1.262 . S
C63 O47 1.260 1_565 S
C64 Tb0 2.833 . S
C64 O44 1.251 . S
C64 O49 1.256 . S
C64 C57 1.500 . S
C65 H30 0.929 . S
C65 C43 1.444 . S
C65 C66 1.317 . S
C66 H28 0.930 . S
C66 C34 1.432 . S
C66 C65 1.317 . S
C67 O51 1.283 1_566 S
C67 O54 1.243 . S
C68 C69 1.382 . S
C68 C72 1.393 . S
C68 C75 1.500 . S
C69 C68 1.382 . S
C69 C70 1.400 . S
C69 H80 0.930 1_556 S
C70 C69 1.400 . S
C70 C71 1.384 . S
C71 C70 1.384 . S
C71 C73 1.392 . S
C71 H81 0.931 . S
C72 C68 1.393 . S
C72 C73 1.401 . S
C72 H82 0.930 . S
C73 C71 1.392 . S
C73 C72 1.401 . S
C73 H83 0.930 . S
C74 O52 1.262 . S
C74 O53 1.260 1_545 S
C75 Tb11 2.833 . S
C75 O50 1.251 . S
C75 O55 1.256 . S
C75 C68 1.500 . S
H76 C59 0.930 1_556 S
H77 C60 0.931 . S
H78 C61 0.930 . S
H79 C62 0.930 . S
H80 C69 0.930 1_554 S
H81 C71 0.931 . S
H82 C72 0.930 . S
H83 C73 0.930 . S
C84 C85 1.361 1_545 S
C84 C86 1.419 . S
C84 H88 0.930 . S
C85 C84 1.361 1_565 S
C85 C94 1.444 1_655 S
C86 C84 1.419 . S
C86 C87 1.353 1_645 S
C86 H89 0.929 . S
C87 C86 1.353 1_465 S
C87 C93 1.434 . S
H88 C84 0.930 . S
H89 C86 0.929 . S
S90 N91 1.613 . S
S90 N92 1.610 . S
N91 S90 1.613 . S
N91 C94 1.350 . S
N92 S90 1.610 . S
N92 C93 1.351 . S
C93 C87 1.434 . S
C93 N92 1.351 . S
C93 C94 1.434 . S
C94 C85 1.444 1_455 S
C94 N91 1.350 . S
C94 C93 1.434 . S
C95 C96 1.368 1_544 S
C95 C97 1.419 . S
C95 H99 0.930 . S
C96 C95 1.368 1_566 S
C96 C105 1.438 . S
C97 C95 1.419 . S
C97 C98 1.354 1_544 S
C97 H100 0.929 . S
C98 C97 1.354 1_566 S
C98 C104 1.435 . S
H99 C95 0.930 . S
H100 C97 0.929 . S
S101 N102 1.613 . S
S101 N103 1.610 . S
N102 S101 1.613 . S
N102 C105 1.350 . S
N103 S101 1.610 . S
N103 C104 1.351 . S
C104 C98 1.435 . S
C104 N103 1.351 . S
C104 C105 1.434 . S
C105 C96 1.438 . S
C105 N102 1.350 . S
C105 C104 1.434 . S
C106 C107 1.367 1_654 S
C106 C108 1.419 . S
C106 H110 0.930 . S
C107 C106 1.367 1_456 S
C107 C116 1.435 . S
C108 C106 1.419 . S
C108 C109 1.357 1_654 S
C108 H111 0.929 . S
C109 C108 1.357 1_456 S
C109 C115 1.430 . S
H110 C106 0.930 . S
H111 C108 0.929 . S
S112 N113 1.613 . S
S112 N114 1.610 . S
N113 S112 1.613 . S
N113 C116 1.350 . S
N114 S112 1.610 . S
N114 C115 1.351 . S
C115 C109 1.430 . S
C115 N114 1.351 . S
C115 C116 1.434 . S
C116 C107 1.435 . S
C116 N113 1.350 . S
C116 C115 1.434 . S
C85 C74 1.465 1_565 S
C87 C63 1.476 . S
C96 C67 1.426 . S
C98 C56 1.439 1_566 S
C107 C70 1.310 1_455 S
C109 C58 1.330 1_556 S
