# Generated by pormake.
# Topology npo, (4)-cn, num edge types: 1
# Building blocks:
#     Node 0, Type 0, BuildingBlock: NAHDIM_clean_sbu_0, # of connection points: 4
#     Node 1, Type 0, BuildingBlock: NAHDIM_clean_sbu_0, # of connection points: 4
#     Node 2, Type 0, BuildingBlock: NAHDIM_clean_sbu_0, # of connection points: 4
#     Node 3, Type 0, BuildingBlock: NAHDIM_clean_sbu_0, # of connection points: 4
#     Node 4, Type 0, BuildingBlock: NAHDIM_clean_sbu_0, # of connection points: 4
#     Node 5, Type 0, BuildingBlock: NAHDIM_clean_sbu_0, # of connection points: 4
#     Edge 6, Type (0, 0), BuildingBlock: OJICUG_clean_linker_0, # of connection points: 2
#     Edge 7, Type (0, 0), BuildingBlock: OJICUG_clean_linker_0, # of connection points: 2
#     Edge 8, Type (0, 0), BuildingBlock: OJICUG_clean_linker_0, # of connection points: 2
#     Edge 9, Type (0, 0), BuildingBlock: OJICUG_clean_linker_0, # of connection points: 2
#     Edge 10, Type (0, 0), BuildingBlock: OJICUG_clean_linker_0, # of connection points: 2
#     Edge 11, Type (0, 0), BuildingBlock: OJICUG_clean_linker_0, # of connection points: 2
#     Edge 12, Type (0, 0), BuildingBlock: OJICUG_clean_linker_0, # of connection points: 2
#     Edge 13, Type (0, 0), BuildingBlock: OJICUG_clean_linker_0, # of connection points: 2
#     Edge 14, Type (0, 0), BuildingBlock: OJICUG_clean_linker_0, # of connection points: 2
#     Edge 15, Type (0, 0), BuildingBlock: OJICUG_clean_linker_0, # of connection points: 2
#     Edge 16, Type (0, 0), BuildingBlock: OJICUG_clean_linker_0, # of connection points: 2
#     Edge 17, Type (0, 0), BuildingBlock: OJICUG_clean_linker_0, # of connection points: 2
# Relax obj value: 0.247
# Max RMSD: 0.227
# Mean RMSD: 0.223
data_MOF--net-npo--node1-NAHDIM_clean_sbu_0--edge1-OJICUG_clean_linker_0
_symmetry_space_group_name_H-M    P1
_symmetry_Int_Tables_number       1
_symmetry_cell_setting            triclinic
loop_
_symmetry_equiv_pos_as_xyz
'x, y, z'
_cell_length_a     30.130018
_cell_length_b     31.801819
_cell_length_c     18.566036
_cell_angle_alpha  92.876766
_cell_angle_beta   89.911668
_cell_angle_gamma 118.45878
loop_
_atom_site_label
_atom_site_type_symbol
_atom_site_fract_x
_atom_site_fract_y
_atom_site_fract_z
_atom_type_partial_charge
C0 C 0.49939 0.04814 0.37556 0.0
O1 O 0.5448 0.0622 0.35044 0.0
O2 O 0.56814 0.13385 0.25213 0.0
Zn3 Zn 0.49188 0.09792 0.25472 0.0
O4 O 0.46444 0.05543 0.16388 0.0
C5 C 0.47527 0.17302 0.20543 0.0
O6 O 0.48919 0.16036 0.14464 0.0
O7 O 0.46935 0.05882 0.34293 0.0
C8 C 0.42075 0.0419 0.13657 0.0
O9 O 0.39015 0.05478 0.16957 0.0
C10 C 0.5916 0.14114 0.19321 0.0
O11 O 0.56578 0.1226 0.13242 0.0
O12 O 0.47058 0.14919 0.26053 0.0
C13 C 0.5044 0.58546 0.57865 0.0
O14 O 0.47625 0.60533 0.56354 0.0
O15 O 0.4088 0.56231 0.72783 0.0
Zn16 Zn 0.48421 0.60129 0.72787 0.0
O17 O 0.5093 0.58712 0.8179 0.0
C18 C 0.49542 0.69 0.7871 0.0
O19 O 0.48835 0.66704 0.84649 0.0
O20 O 0.51305 0.58138 0.64407 0.0
C21 C 0.55436 0.60807 0.84286 0.0
O22 O 0.58938 0.64405 0.80945 0.0
C23 C 0.37912 0.52652 0.687 0.0
O24 O 0.39743 0.51006 0.63525 0.0
O25 O 0.49878 0.67004 0.72779 0.0
C26 C 0.96162 0.44114 0.33873 0.0
O27 O 0.97756 0.46706 0.28204 0.0
O28 O 0.83954 0.42212 0.23726 0.0
Zn29 Zn 0.87559 0.38331 0.24462 0.0
O30 O 0.91633 0.39386 0.15517 0.0
C31 C 0.79622 0.29407 0.18837 0.0
O32 O 0.81159 0.3159 0.12792 0.0
O33 O 0.91911 0.40332 0.33505 0.0
C34 C 0.95509 0.38828 0.14702 0.0
O35 O 0.97131 0.37316 0.20041 0.0
C36 C 0.84117 0.45501 0.28074 0.0
O37 O 0.87039 0.46803 0.33894 0.0
O38 O 0.82032 0.31502 0.24677 0.0
C39 C 0.44059 0.94117 0.63349 0.0
O40 O 0.47475 0.93718 0.67218 0.0
O41 O 0.41926 0.84477 0.73711 0.0
Zn42 Zn 0.37816 0.8798 0.73915 0.0
O43 O 0.39438 0.92148 0.83106 0.0
C44 C 0.2894 0.80177 0.78823 0.0
O45 O 0.31949 0.81197 0.84501 0.0
O46 O 0.3948 0.91979 0.65229 0.0
C47 C 0.36329 0.93206 0.86276 0.0
O48 O 0.31797 0.91644 0.83397 0.0
C49 C 0.43998 0.83991 0.79342 0.0
O50 O 0.43661 0.86007 0.85522 0.0
O51 O 0.30532 0.82824 0.7349 0.0
C52 C 0.59962 0.53445 0.09449 0.0
O53 O 0.6423 0.55875 0.13151 0.0
O54 O 0.64564 0.47578 0.21255 0.0
Zn55 Zn 0.57475 0.46559 0.20426 0.0
O56 O 0.55589 0.49535 0.28862 0.0
C57 C 0.50863 0.36626 0.24319 0.0
O58 O 0.50945 0.38488 0.30823 0.0
O59 O 0.56657 0.49421 0.11538 0.0
C60 C 0.56838 0.49538 0.3539 0.0
O61 O 0.59461 0.47372 0.36977 0.0
C62 C 0.68374 0.50653 0.2497 0.0
O63 O 0.68043 0.53997 0.29012 0.0
O64 O 0.53095 0.39387 0.1928 0.0
C65 C 0.0721 0.45922 0.8921 0.0
O66 O 0.11887 0.46668 0.88997 0.0
O67 O 0.15867 0.49832 0.75235 0.0
Zn68 Zn 0.09805 0.5086 0.75911 0.0
O69 O 0.05804 0.48758 0.66526 0.0
C70 C 0.12426 0.61088 0.74531 0.0
O71 O 0.09467 0.597 0.68744 0.0
O72 O 0.05497 0.4734 0.84148 0.0
C73 C 0.07901 0.50328 0.60588 0.0
O74 O 0.12743 0.53419 0.60617 0.0
C75 C 0.16864 0.47298 0.70687 0.0
O76 O 0.13508 0.44636 0.65637 0.0
O77 O 0.12792 0.57982 0.78175 0.0
C78 C 0.46794 0.23718 0.28051 0.0
C79 C 0.47411 0.21908 0.21274 0.0
H80 H 0.47348 0.29791 0.34329 0.0
C81 C 0.48471 0.24778 0.15332 0.0
H82 H 0.45938 0.21587 0.32732 0.0
C83 C 0.4928 0.29479 0.16247 0.0
C84 C 0.49044 0.31414 0.23125 0.0
H85 H 0.48921 0.2348 0.1002 0.0
H86 H 0.50329 0.31664 0.11611 0.0
C87 C 0.476 0.28426 0.28967 0.0
C88 C 0.30587 0.52002 0.7571 0.0
C89 C 0.32408 0.50657 0.69534 0.0
H90 H 0.24252 0.51913 0.80967 0.0
C91 C 0.28959 0.47697 0.64052 0.0
H92 H 0.33132 0.5422 0.80085 0.0
C93 C 0.23819 0.46367 0.64556 0.0
C94 C 0.22067 0.4797 0.70557 0.0
H95 H 0.30253 0.46586 0.59243 0.0
H96 H 0.21273 0.44272 0.60112 0.0
C97 C 0.25483 0.50669 0.76222 0.0
C98 C 0.67406 0.1961 0.25698 0.0
C99 C 0.64633 0.17523 0.19226 0.0
H100 H 0.74354 0.24961 0.30664 0.0
C101 C 0.67046 0.19012 0.1264 0.0
H102 H 0.65671 0.18517 0.30867 0.0
C103 C 0.72018 0.22715 0.12523 0.0
C104 C 0.74695 0.24992 0.18989 0.0
H105 H 0.65033 0.17459 0.07553 0.0
H106 H 0.73695 0.2391 0.07352 0.0
C107 C 0.72392 0.23298 0.25582 0.0
C108 C 0.46677 0.78616 0.72481 0.0
C109 C 0.46181 0.80688 0.79097 0.0
H110 H 0.48224 0.73346 0.6715 0.0
C111 C 0.47414 0.79281 0.85522 0.0
H112 H 0.45799 0.79653 0.67429 0.0
C113 C 0.48783 0.75653 0.85364 0.0
C114 C 0.48988 0.73382 0.78775 0.0
H115 H 0.47105 0.80826 0.90709 0.0
H116 H 0.4949 0.74503 0.9043 0.0
C117 C 0.48088 0.75013 0.7232 0.0
C118 C 0.76323 0.51887 0.31235 0.0
C119 C 0.72907 0.50008 0.25316 0.0
H120 H 0.8258 0.51921 0.36791 0.0
C121 C 0.73562 0.47073 0.1999 0.0
H122 H 0.75905 0.5416 0.35422 0.0
C123 C 0.77362 0.45809 0.20752 0.0
C124 C 0.80587 0.47425 0.26887 0.0
H125 H 0.71027 0.45615 0.1532 0.0
H126 H 0.77641 0.43414 0.16637 0.0
C127 C 0.8013 0.50591 0.32027 0.0
C128 C 0.22864 0.72341 0.83675 0.0
C129 C 0.24155 0.756 0.7821 0.0
H130 H 0.1811 0.6521 0.86821 0.0
C131 C 0.21103 0.74229 0.71899 0.0
H132 H 0.25101 0.73288 0.88633 0.0
C133 C 0.17054 0.69586 0.7088 0.0
C134 C 0.16011 0.66222 0.76129 0.0
H135 H 0.21974 0.76669 0.67607 0.0
H136 H 0.14928 0.68563 0.65814 0.0
C137 C 0.1885 0.677 0.82635 0.0
C138 C 0.34384 0.97219 0.96885 0.0
C139 C 0.37776 0.96038 0.93262 0.0
H140 H 0.33067 0.0071 0.06176 0.0
C141 C 0.42568 0.97536 0.96428 0.0
H142 H 0.3066 0.96114 0.94598 0.0
C143 C 0.43939 0.00154 0.03057 0.0
C144 C 0.40555 0.01343 0.06685 0.0
H145 H 0.45273 0.96681 0.93797 0.0
H146 H 0.47668 0.01255 0.05322 0.0
C147 C 0.3576 -0.00152 0.03528 0.0
C148 C 0.52505 0.54266 0.39392 0.0
C149 C 0.55323 0.5196 0.4112 0.0
H150 H 0.48773 0.58179 0.43313 0.0
C151 C 0.56661 0.51982 0.48365 0.0
H152 H 0.51427 0.5433 0.33852 0.0
C153 C 0.55149 0.54199 0.5378 0.0
C154 C 0.52265 0.56442 0.52067 0.0
H155 H 0.58846 0.50257 0.49873 0.0
H156 H 0.562 0.54105 0.59323 0.0
C157 C 0.50992 0.56485 0.44811 0.0
C158 C -0.00773 0.43317 0.96001 0.0
C159 C 0.0408 0.43753 0.95507 0.0
H160 H 0.92718 0.41399 0.02413 0.0
C161 C 0.05979 0.42279 0.01219 0.0
H162 H 0.97638 0.44397 0.9169 0.0
C163 C 0.03141 0.4054 0.07387 0.0
C164 C 0.9836 0.40261 0.0797 0.0
H165 H 0.09698 0.4255 0.00993 0.0
H166 H 0.0475 0.39532 0.11762 0.0
C167 C 0.96405 0.41598 0.02162 0.0
C168 C 0.51912 0.01345 0.4811 0.0
C169 C 0.48394 0.02085 0.4416 0.0
H170 H 0.53315 0.98288 0.57256 0.0
C171 C 0.43425 0.00213 0.46606 0.0
H172 H 0.55774 0.02747 0.46393 0.0
C173 C 0.42004 0.97631 0.52848 0.0
C174 C 0.45532 0.96896 0.56791 0.0
H175 H 0.40623 0.00721 0.43685 0.0
H176 H 0.38144 0.96216 0.54581 0.0
C177 C 0.50503 0.98794 0.54359 0.0
C178 C 0.52981 0.54802 0.93648 0.0
C179 C 0.56677 0.59024 0.90766 0.0
H180 H 0.51129 0.49736 0.0173 0.0
C181 C 0.61506 0.61426 0.94077 0.0
H182 H 0.49223 0.52849 0.91226 0.0
C183 C 0.62602 0.59632 0.00173 0.0
C184 C 0.58895 0.55392 0.03012 0.0
H185 H 0.6443 0.64688 0.91976 0.0
H186 H 0.66349 0.61553 0.02635 0.0
C187 C 0.5408 0.53003 -0.00325 0.0
C188 C -0.00044 0.44898 0.53536 0.0
C189 C 0.0492 0.48709 0.53737 0.0
H190 H 0.93314 0.40435 0.47103 0.0
C191 C 0.07003 0.50959 0.47333 0.0
H192 H 0.98247 0.43078 0.58373 0.0
C193 C 0.04163 0.49461 0.40875 0.0
C194 C -0.00802 0.45654 0.40677 0.0
H195 H 0.10817 0.53908 0.4731 0.0
H196 H 0.05865 0.51286 0.36039 0.0
C197 C 0.97134 0.43373 0.4707 0.0
loop_
_geom_bond_atom_site_label_1
_geom_bond_atom_site_label_2
_geom_bond_distance
_geom_bond_site_symmetry_2
_ccdc_geom_bond_type
C0 O1 1.160 . S
C0 O7 1.185 . S
O1 C0 1.160 . S
O2 Zn3 1.899 . S
O2 C10 1.284 . S
Zn3 O2 1.899 . S
Zn3 O4 2.032 . S
Zn3 O7 2.086 . S
Zn3 O12 1.977 . S
O4 Zn3 2.032 . S
O4 C8 1.278 . S
C5 O6 1.203 . S
C5 O12 1.267 . S
O6 C5 1.203 . S
O7 C0 1.185 . S
O7 Zn3 2.086 . S
C8 O4 1.278 . S
C8 O9 1.211 . S
O9 C8 1.211 . S
C10 O2 1.284 . S
C10 O11 1.273 . S
O11 C10 1.273 . S
O12 Zn3 1.977 . S
O12 C5 1.267 . S
C13 O14 1.160 . S
C13 O20 1.185 . S
O14 C13 1.160 . S
O15 Zn16 1.899 . S
O15 C23 1.284 . S
Zn16 O15 1.899 . S
Zn16 O17 2.032 . S
Zn16 O20 2.086 . S
Zn16 O25 1.977 . S
O17 Zn16 2.032 . S
O17 C21 1.278 . S
C18 O19 1.203 . S
C18 O25 1.267 . S
O19 C18 1.203 . S
O20 C13 1.185 . S
O20 Zn16 2.086 . S
C21 O17 1.278 . S
C21 O22 1.211 . S
O22 C21 1.211 . S
C23 O15 1.284 . S
C23 O24 1.273 . S
O24 C23 1.273 . S
O25 Zn16 1.977 . S
O25 C18 1.267 . S
C26 O27 1.160 . S
C26 O33 1.185 . S
O27 C26 1.160 . S
O28 Zn29 1.899 . S
O28 C36 1.284 . S
Zn29 O28 1.899 . S
Zn29 O30 2.032 . S
Zn29 O33 2.086 . S
Zn29 O38 1.977 . S
O30 Zn29 2.032 . S
O30 C34 1.278 . S
C31 O32 1.203 . S
C31 O38 1.267 . S
O32 C31 1.203 . S
O33 C26 1.185 . S
O33 Zn29 2.086 . S
C34 O30 1.278 . S
C34 O35 1.211 . S
O35 C34 1.211 . S
C36 O28 1.284 . S
C36 O37 1.273 . S
O37 C36 1.273 . S
O38 Zn29 1.977 . S
O38 C31 1.267 . S
C39 O40 1.160 . S
C39 O46 1.185 . S
O40 C39 1.160 . S
O41 Zn42 1.899 . S
O41 C49 1.284 . S
Zn42 O41 1.899 . S
Zn42 O43 2.032 . S
Zn42 O46 2.086 . S
Zn42 O51 1.977 . S
O43 Zn42 2.032 . S
O43 C47 1.278 . S
C44 O45 1.203 . S
C44 O51 1.267 . S
O45 C44 1.203 . S
O46 C39 1.185 . S
O46 Zn42 2.086 . S
C47 O43 1.278 . S
C47 O48 1.211 . S
O48 C47 1.211 . S
C49 O41 1.284 . S
C49 O50 1.273 . S
O50 C49 1.273 . S
O51 Zn42 1.977 . S
O51 C44 1.267 . S
C52 O53 1.160 . S
C52 O59 1.185 . S
O53 C52 1.160 . S
O54 Zn55 1.899 . S
O54 C62 1.284 . S
Zn55 O54 1.899 . S
Zn55 O56 2.032 . S
Zn55 O59 2.086 . S
Zn55 O64 1.977 . S
O56 Zn55 2.032 . S
O56 C60 1.278 . S
C57 O58 1.203 . S
C57 O64 1.267 . S
O58 C57 1.203 . S
O59 C52 1.185 . S
O59 Zn55 2.086 . S
C60 O56 1.278 . S
C60 O61 1.211 . S
O61 C60 1.211 . S
C62 O54 1.284 . S
C62 O63 1.273 . S
O63 C62 1.273 . S
O64 Zn55 1.977 . S
O64 C57 1.267 . S
C65 O66 1.160 . S
C65 O72 1.185 . S
O66 C65 1.160 . S
O67 Zn68 1.899 . S
O67 C75 1.284 . S
Zn68 O67 1.899 . S
Zn68 O69 2.032 . S
Zn68 O72 2.086 . S
Zn68 O77 1.977 . S
O69 Zn68 2.032 . S
O69 C73 1.278 . S
C70 O71 1.203 . S
C70 O77 1.267 . S
O71 C70 1.203 . S
O72 C65 1.185 . S
O72 Zn68 2.086 . S
C73 O69 1.278 . S
C73 O74 1.211 . S
O74 C73 1.211 . S
C75 O67 1.284 . S
C75 O76 1.273 . S
O76 C75 1.273 . S
O77 Zn68 1.977 . S
O77 C70 1.267 . S
C78 C79 1.387 . S
C78 H82 0.950 . S
C78 C87 1.390 . S
C79 C78 1.387 . S
C79 C81 1.387 . S
H80 C87 0.950 . S
C81 C79 1.387 . S
C81 C83 1.390 . S
C81 H85 0.950 . S
H82 C78 0.950 . S
C83 C81 1.390 . S
C83 C84 1.387 . S
C83 H86 0.950 . S
C84 C83 1.387 . S
C84 C87 1.387 . S
H85 C81 0.950 . S
H86 C83 0.950 . S
C87 C78 1.390 . S
C87 H80 0.950 . S
C87 C84 1.387 . S
C88 C89 1.387 . S
C88 H92 0.950 . S
C88 C97 1.390 . S
C89 C88 1.387 . S
C89 C91 1.387 . S
H90 C97 0.950 . S
C91 C89 1.387 . S
C91 C93 1.390 . S
C91 H95 0.950 . S
H92 C88 0.950 . S
C93 C91 1.390 . S
C93 C94 1.387 . S
C93 H96 0.950 . S
C94 C93 1.387 . S
C94 C97 1.387 . S
H95 C91 0.950 . S
H96 C93 0.950 . S
C97 C88 1.390 . S
C97 H90 0.950 . S
C97 C94 1.387 . S
C98 C99 1.387 . S
C98 H102 0.950 . S
C98 C107 1.390 . S
C99 C98 1.387 . S
C99 C101 1.387 . S
H100 C107 0.950 . S
C101 C99 1.387 . S
C101 C103 1.390 . S
C101 H105 0.950 . S
H102 C98 0.950 . S
C103 C101 1.390 . S
C103 C104 1.387 . S
C103 H106 0.950 . S
C104 C103 1.387 . S
C104 C107 1.387 . S
H105 C101 0.950 . S
H106 C103 0.950 . S
C107 C98 1.390 . S
C107 H100 0.950 . S
C107 C104 1.387 . S
C108 C109 1.387 . S
C108 H112 0.950 . S
C108 C117 1.390 . S
C109 C108 1.387 . S
C109 C111 1.387 . S
H110 C117 0.950 . S
C111 C109 1.387 . S
C111 C113 1.390 . S
C111 H115 0.950 . S
H112 C108 0.950 . S
C113 C111 1.390 . S
C113 C114 1.387 . S
C113 H116 0.950 . S
C114 C113 1.387 . S
C114 C117 1.387 . S
H115 C111 0.950 . S
H116 C113 0.950 . S
C117 C108 1.390 . S
C117 H110 0.950 . S
C117 C114 1.387 . S
C118 C119 1.387 . S
C118 H122 0.950 . S
C118 C127 1.390 . S
C119 C118 1.387 . S
C119 C121 1.387 . S
H120 C127 0.950 . S
C121 C119 1.387 . S
C121 C123 1.390 . S
C121 H125 0.950 . S
H122 C118 0.950 . S
C123 C121 1.390 . S
C123 C124 1.387 . S
C123 H126 0.950 . S
C124 C123 1.387 . S
C124 C127 1.387 . S
H125 C121 0.950 . S
H126 C123 0.950 . S
C127 C118 1.390 . S
C127 H120 0.950 . S
C127 C124 1.387 . S
C128 C129 1.387 . S
C128 H132 0.950 . S
C128 C137 1.390 . S
C129 C128 1.387 . S
C129 C131 1.387 . S
H130 C137 0.950 . S
C131 C129 1.387 . S
C131 C133 1.390 . S
C131 H135 0.950 . S
H132 C128 0.950 . S
C133 C131 1.390 . S
C133 C134 1.387 . S
C133 H136 0.950 . S
C134 C133 1.387 . S
C134 C137 1.387 . S
H135 C131 0.950 . S
H136 C133 0.950 . S
C137 C128 1.390 . S
C137 H130 0.950 . S
C137 C134 1.387 . S
C138 C139 1.387 . S
C138 H142 0.950 . S
C138 C147 1.390 1_566 S
C139 C138 1.387 . S
C139 C141 1.387 . S
H140 C147 0.950 . S
C141 C139 1.387 . S
C141 C143 1.390 1_566 S
C141 H145 0.950 . S
H142 C138 0.950 . S
C143 C141 1.390 1_544 S
C143 C144 1.387 . S
C143 H146 0.950 . S
C144 C143 1.387 . S
C144 C147 1.387 . S
H145 C141 0.950 . S
H146 C143 0.950 . S
C147 C138 1.390 1_544 S
C147 H140 0.950 . S
C147 C144 1.387 . S
C148 C149 1.387 . S
C148 H152 0.950 . S
C148 C157 1.390 . S
C149 C148 1.387 . S
C149 C151 1.387 . S
H150 C157 0.950 . S
C151 C149 1.387 . S
C151 C153 1.390 . S
C151 H155 0.950 . S
H152 C148 0.950 . S
C153 C151 1.390 . S
C153 C154 1.387 . S
C153 H156 0.950 . S
C154 C153 1.387 . S
C154 C157 1.387 . S
H155 C151 0.950 . S
H156 C153 0.950 . S
C157 C148 1.390 . S
C157 H150 0.950 . S
C157 C154 1.387 . S
C158 C159 1.387 1_554 S
C158 H162 0.950 . S
C158 C167 1.390 1_455 S
C159 C158 1.387 1_556 S
C159 C161 1.387 1_455 S
H160 C167 0.950 . S
C161 C159 1.387 1_655 S
C161 C163 1.390 1_556 S
C161 H165 0.959 . S
H162 C158 0.950 . S
C163 C161 1.390 1_554 S
C163 C164 1.387 . S
C163 H166 0.950 . S
C164 C163 1.387 . S
C164 C167 1.387 . S
H165 C161 0.959 . S
H166 C163 0.950 . S
C167 C158 1.390 1_655 S
C167 H160 0.950 . S
C167 C164 1.387 . S
C168 C169 1.387 . S
C168 H172 0.950 . S
C168 C177 1.390 1_545 S
C169 C168 1.387 . S
C169 C171 1.387 . S
H170 C177 0.950 . S
C171 C169 1.387 . S
C171 C173 1.390 1_545 S
C171 H175 0.950 . S
H172 C168 0.950 . S
C173 C171 1.390 1_565 S
C173 C174 1.387 . S
C173 H176 0.950 . S
C174 C173 1.387 . S
C174 C177 1.387 . S
H175 C171 0.950 . S
H176 C173 0.950 . S
C177 C168 1.390 1_565 S
C177 H170 0.950 . S
C177 C174 1.387 . S
C178 C179 1.387 . S
C178 H182 0.950 . S
C178 C187 1.390 . S
C179 C178 1.387 . S
C179 C181 1.387 . S
H180 C187 0.950 . S
C181 C179 1.387 . S
C181 C183 1.390 1_556 S
C181 H185 0.950 . S
H182 C178 0.950 . S
C183 C181 1.390 1_554 S
C183 C184 1.387 . S
C183 H186 0.950 . S
C184 C183 1.387 . S
C184 C187 1.387 1_554 S
H185 C181 0.950 . S
H186 C183 0.950 . S
C187 C178 1.390 . S
C187 H180 0.950 . S
C187 C184 1.387 1_556 S
C188 C189 1.387 1_655 S
C188 H192 0.950 . S
C188 C197 1.390 . S
C189 C188 1.387 1_455 S
C189 C191 1.387 . S
H190 C197 0.950 . S
C191 C189 1.387 . S
C191 C193 1.390 . S
C191 H195 0.950 . S
H192 C188 0.950 . S
C193 C191 1.390 . S
C193 C194 1.387 1_455 S
C193 H196 0.950 . S
C194 C193 1.387 1_655 S
C194 C197 1.387 . S
H195 C191 0.950 . S
H196 C193 0.950 . S
C197 C188 1.390 . S
C197 H190 0.950 . S
C197 C194 1.387 . S
C79 C5 1.114 . S
C84 C57 1.105 . S
C89 C23 1.182 . S
C94 C75 1.174 . S
C99 C10 1.188 . S
C104 C31 1.131 . S
C109 C49 1.188 . S
C114 C18 1.132 . S
C119 C62 1.177 . S
C124 C36 1.184 . S
C129 C44 1.108 . S
C134 C70 1.110 . S
C139 C47 1.340 . S
C144 C8 1.340 . S
C149 C60 1.381 . S
C154 C13 1.374 . S
C159 C65 1.362 . S
C164 C34 1.380 . S
C169 C0 1.379 . S
C174 C39 1.379 . S
C179 C21 1.381 . S
C184 C52 1.362 . S
C189 C73 1.379 . S
C194 C26 1.372 . S
