# Generated by pormake.
# Topology wli, (5)-cn, num edge types: 1
# Building blocks:
#     Node 0, Type 0, BuildingBlock: BEQFEK_clean_sbu_0, # of connection points: 5
#     Node 1, Type 0, BuildingBlock: BEQFEK_clean_sbu_0, # of connection points: 5
#     Node 2, Type 0, BuildingBlock: BEQFEK_clean_sbu_0, # of connection points: 5
#     Node 3, Type 0, BuildingBlock: BEQFEK_clean_sbu_0, # of connection points: 5
#     Node 4, Type 0, BuildingBlock: BEQFEK_clean_sbu_0, # of connection points: 5
#     Node 5, Type 0, BuildingBlock: BEQFEK_clean_sbu_0, # of connection points: 5
#     Edge 6, Type (0, 0), None
#     Edge 7, Type (0, 0), None
#     Edge 8, Type (0, 0), None
#     Edge 9, Type (0, 0), None
#     Edge 10, Type (0, 0), None
#     Edge 11, Type (0, 0), None
#     Edge 12, Type (0, 0), None
#     Edge 13, Type (0, 0), None
#     Edge 14, Type (0, 0), None
#     Edge 15, Type (0, 0), None
#     Edge 16, Type (0, 0), None
#     Edge 17, Type (0, 0), None
#     Edge 18, Type (0, 0), None
#     Edge 19, Type (0, 0), None
#     Edge 20, Type (0, 0), None
# Relax obj value: 0.210
# Max RMSD: 0.102
# Mean RMSD: 0.101
data_MOF--net-wli--node1-BEQFEK_clean_sbu_0--edge1-none
_symmetry_space_group_name_H-M    P1
_symmetry_Int_Tables_number       1
_symmetry_cell_setting            triclinic
loop_
_symmetry_equiv_pos_as_xyz
'x, y, z'
_cell_length_a     17.732241
_cell_length_b     17.732786
_cell_length_c     15.497052
_cell_angle_alpha  89.980865
_cell_angle_beta   90.019139
_cell_angle_gamma 120.00282
loop_
_atom_site_label
_atom_site_type_symbol
_atom_site_fract_x
_atom_site_fract_y
_atom_site_fract_z
_atom_type_partial_charge
Co0 Co 0.28234 0.47827 0.91145 0.0
Co1 Co 0.14744 0.34971 0.04591 0.0
C2 C 0.30879 0.34325 0.99481 0.0
O3 O 0.33887 0.41054 0.94741 0.0
O4 O 0.23553 0.31271 0.03201 0.0
C5 C 0.42979 0.57428 0.80196 0.0
O6 O 0.43597 0.50385 0.80897 0.0
C7 C 0.12138 0.30076 0.22485 0.0
C8 C 0.97913 0.21716 0.23748 0.0
C9 C 0.05596 0.25592 0.28477 0.0
N10 N 0.08495 0.29059 0.14661 0.0
N11 N 0.99991 0.23918 0.15405 0.0
C12 C 0.21666 0.35858 0.24203 0.0
H13 H 0.25259 0.38922 0.18173 0.0
H14 H 0.22667 0.41049 0.28836 0.0
H15 H 0.24335 0.31977 0.27152 0.0
C16 C 0.27681 0.60785 0.02912 0.0
N17 N 0.25602 0.52564 0.00896 0.0
N18 N 0.19582 0.47138 0.06261 0.0
C19 C 0.17335 0.51691 0.11605 0.0
C20 C 0.22455 0.60488 0.09723 0.0
C21 C 0.33797 0.68623 0.9776 0.0
H22 H 0.31039 0.68132 0.91218 0.0
H23 H 0.40102 0.68787 0.97014 0.0
H24 H 0.34911 0.7474 0.0085 0.0
O25 O 0.17134 0.40194 0.84555 0.0
O26 O 0.07219 0.31684 0.94311 0.0
H27 H 0.04551 0.4159 0.15306 0.0
H28 H 0.07617 0.52075 0.19875 0.0
C29 C 0.10033 0.47634 0.18013 0.0
H30 H 0.12373 0.45982 0.23954 0.0
H31 H 0.956 0.22177 0.10291 0.0
O32 O 0.36624 0.57658 0.83702 0.0
C33 C 0.09366 0.34365 0.86579 0.0
Co34 Co 0.62861 0.83808 0.57806 0.0
Co35 Co 0.75714 0.83165 0.7125 0.0
C36 C 0.76358 0.99949 0.66149 0.0
O37 O 0.69629 0.96231 0.61407 0.0
O38 O 0.79413 0.95674 0.69864 0.0
C39 C 0.53255 0.88953 0.46863 0.0
O40 O 0.60295 0.96617 0.47567 0.0
C41 C 0.80606 0.85451 0.89141 0.0
C42 C 0.88972 0.79595 0.90414 0.0
C43 C 0.85093 0.83398 0.95137 0.0
N44 N 0.81624 0.82826 0.81321 0.0
N45 N 0.86769 0.79468 0.8207 0.0
C46 C 0.74818 0.89191 0.90854 0.0
H47 H 0.71748 0.89711 0.84823 0.0
H48 H 0.69631 0.85001 0.95492 0.0
H49 H 0.78697 0.95744 0.93794 0.0
C50 C 0.49899 0.7029 0.69572 0.0
N51 N 0.58121 0.76432 0.67556 0.0
N52 N 0.63547 0.75833 0.72919 0.0
C53 C 0.58993 0.6903 0.78263 0.0
C54 C 0.50196 0.65353 0.76379 0.0
C55 C 0.42061 0.68578 0.64425 0.0
H56 H 0.42545 0.66311 0.57883 0.0
H57 H 0.41904 0.74723 0.63679 0.0
H58 H 0.35943 0.63577 0.67518 0.0
O59 O 0.70495 0.80344 0.51216 0.0
O60 O 0.79003 0.78932 0.60971 0.0
H61 H 0.69095 0.66349 0.8197 0.0
H62 H 0.58607 0.58922 0.86533 0.0
C63 C 0.63048 0.65781 0.84673 0.0
H64 H 0.64697 0.69769 0.90615 0.0
H65 H 0.88513 0.7682 0.76959 0.0
O66 O 0.53031 0.82367 0.50363 0.0
C67 C 0.76321 0.78402 0.5324 0.0
Co68 Co 0.2687 0.82447 0.24475 0.0
Co69 Co 0.2751 0.9594 0.37916 0.0
C70 C 0.10726 0.79799 0.32812 0.0
O71 O 0.14445 0.76791 0.28071 0.0
O72 O 0.15001 0.87127 0.36528 0.0
C73 C 0.21736 0.67702 0.13528 0.0
O74 O 0.14069 0.67073 0.14221 0.0
C75 C 0.25225 0.98547 0.55807 0.0
C76 C 0.31083 0.1277 0.57069 0.0
C77 C 0.2728 0.05088 0.61798 0.0
N78 N 0.2785 1.02189 0.47985 0.0
N79 N 0.31208 0.10692 0.48727 0.0
C80 C 0.21484 0.8902 0.57528 0.0
H81 H 0.2096 0.85428 0.51499 0.0
H82 H 0.25675 0.88022 0.62166 0.0
H83 H 0.14932 0.86347 0.6047 0.0
C84 C 0.40389 0.83007 0.36243 0.0
N85 N 0.34244 0.85082 0.34227 0.0
N86 N 0.34841 0.91105 0.39588 0.0
C87 C 0.41647 0.93357 0.4493 0.0
C88 C 0.45328 0.88241 0.43047 0.0
C89 C 0.42105 0.76885 0.31096 0.0
H90 H 0.4437 0.7964 0.24554 0.0
H91 H 0.35962 0.70582 0.30353 0.0
H92 H 0.47109 0.75772 0.34189 0.0
O93 O 0.30336 0.93547 0.17883 0.0
O94 O 0.31744 0.03462 0.27634 0.0
H95 H 0.44328 0.06139 0.4863 0.0
H96 H 0.51753 0.03078 0.532 0.0
C97 C 0.44894 1.00659 0.51338 0.0
H98 H 0.40904 0.98318 0.57278 0.0
H99 H 0.33856 0.15083 0.43613 0.0
O100 O 0.28316 0.74061 0.17037 0.0
C101 C 0.32278 1.01315 0.19905 0.0
Co102 Co 0.4912 0.26933 0.08635 0.0
Co103 Co 0.36265 0.13444 0.95188 0.0
C104 C 0.35622 0.29581 0.00292 0.0
O105 O 0.4235 0.32587 0.05035 0.0
O106 O 0.32567 0.22254 0.96574 0.0
C107 C 0.58718 0.41678 0.19583 0.0
O108 O 0.51674 0.42295 0.18881 0.0
C109 C 0.31376 0.10836 0.77293 0.0
C110 C 0.23005 0.96612 0.76033 0.0
C111 C 0.26893 0.04292 0.71303 0.0
N112 N 0.30355 0.07194 0.85118 0.0
N113 N 0.25208 0.98691 0.84376 0.0
C114 C 0.37158 0.20363 0.75574 0.0
H115 H 0.40226 0.23956 0.81603 0.0
H116 H 0.42346 0.21364 0.70937 0.0
H117 H 0.33275 0.23033 0.7263 0.0
C118 C 0.6208 0.26379 0.96872 0.0
N119 N 0.53859 0.243 0.98886 0.0
N120 N 0.48433 0.1828 0.93522 0.0
C121 C 0.52987 0.16033 0.88179 0.0
C122 C 0.61784 0.21153 0.90061 0.0
C123 C 0.69918 0.32497 0.02024 0.0
H124 H 0.69427 0.29741 0.08566 0.0
H125 H 0.70081 0.38801 0.02768 0.0
H126 H 0.76036 0.3361 0.98934 0.0
O127 O 0.41485 0.15834 0.15225 0.0
O128 O 0.32975 0.0592 0.0547 0.0
H129 H 0.42884 0.03251 0.84474 0.0
H130 H 0.53371 0.06312 0.79913 0.0
C131 C 0.48931 0.08731 0.8177 0.0
H132 H 0.47284 0.11073 0.75827 0.0
H133 H 0.2346 0.94301 0.89492 0.0
O134 O 0.5895 0.35324 0.16079 0.0
C135 C 0.35656 0.08067 0.13201 0.0
Co136 Co 0.83745 0.25576 0.75308 0.0
Co137 Co 0.97239 0.26222 0.61864 0.0
C138 C 0.811 0.09436 0.66966 0.0
O139 O 0.78092 0.13152 0.7171 0.0
O140 O 0.88428 0.13712 0.6325 0.0
C141 C 0.68999 0.20437 0.86255 0.0
O142 O 0.68373 0.12771 0.85561 0.0
C143 C 0.99848 0.23945 0.43971 0.0
C144 C 0.14072 0.29798 0.42712 0.0
C145 C 0.06392 0.26004 0.37982 0.0
N146 N 1.03489 0.26566 0.51795 0.0
N147 N 0.11993 0.29923 0.51054 0.0
C148 C 0.9032 0.20198 0.4225 0.0
H149 H 0.86727 0.19674 0.48279 0.0
H150 H 0.89319 0.24385 0.3761 0.0
H151 H 0.87651 0.13645 0.39311 0.0
C152 C 0.84296 0.39091 0.6354 0.0
N153 N 0.86377 0.3295 0.65556 0.0
N154 N 0.92399 0.33549 0.60193 0.0
C155 C 0.94645 0.40352 0.54849 0.0
C156 C 0.89522 0.44025 0.5673 0.0
C157 C 0.78174 0.40805 0.68689 0.0
H158 H 0.80931 0.43071 0.75231 0.0
H159 H 0.71872 0.34661 0.69435 0.0
H160 H 0.77058 0.45807 0.65596 0.0
O161 O 0.94845 0.29044 0.81899 0.0
O162 O 0.04762 0.30456 0.72146 0.0
H163 H 0.07429 0.43039 0.51147 0.0
H164 H 0.04363 0.50462 0.46581 0.0
C165 C 1.01948 0.43603 0.48441 0.0
H166 H 0.99607 0.39615 0.425 0.0
H167 H 0.16383 0.32565 0.56169 0.0
O168 O 0.75358 0.27018 0.82747 0.0
C169 C 1.02614 0.30987 0.79876 0.0
Co170 Co 0.85098 0.61563 0.41973 0.0
Co171 Co 0.84455 0.74415 0.28528 0.0
C172 C 1.01239 0.75055 0.33628 0.0
O173 O 0.97521 0.68329 0.38372 0.0
O174 O 0.96964 0.78111 0.29913 0.0
C175 C 0.90237 0.51957 0.52923 0.0
O176 O 0.97902 0.58998 0.52229 0.0
C177 C 0.86735 0.79299 0.10635 0.0
C178 C 0.80893 0.87679 0.09364 0.0
C179 C 0.84681 0.83785 0.0464 0.0
N180 N 0.84115 0.80323 0.18456 0.0
N181 N 0.80766 0.85475 0.17709 0.0
C182 C 0.90473 0.73511 0.08922 0.0
H183 H 0.90992 0.70439 0.14953 0.0
H184 H 0.86284 0.68325 0.04282 0.0
H185 H 0.97027 0.77389 0.05984 0.0
C186 C 0.7158 0.48601 0.30208 0.0
N187 N 0.77721 0.56823 0.32224 0.0
N188 N 0.77121 0.62248 0.26861 0.0
C189 C 0.70317 0.57693 0.21518 0.0
C190 C 0.66642 0.48896 0.23401 0.0
C191 C 0.6987 0.40762 0.35354 0.0
H192 H 0.67602 0.41245 0.41896 0.0
H193 H 0.76016 0.40608 0.361 0.0
H194 H 0.6487 0.34645 0.3226 0.0
O195 O 0.81636 0.69199 0.48562 0.0
O196 O 0.80225 0.77707 0.38806 0.0
H197 H 0.67641 0.67798 0.17807 0.0
H198 H 0.60206 0.57308 0.13255 0.0
C199 C 0.67067 0.61747 0.15107 0.0
H200 H 0.7105 0.63388 0.09163 0.0
H201 H 0.78127 0.87228 0.22821 0.0
O202 O 0.83654 0.51733 0.49415 0.0
C203 C 0.79696 0.75026 0.46538 0.0
loop_
_geom_bond_atom_site_label_1
_geom_bond_atom_site_label_2
_geom_bond_distance
_geom_bond_site_symmetry_2
_ccdc_geom_bond_type
Co0 O3 1.970 . S
Co0 N17 1.989 . S
Co0 O25 1.967 . S
Co0 O32 1.920 . S
Co1 O4 1.966 . S
Co1 N10 2.022 . S
Co1 N18 1.993 . S
Co1 O26 1.941 1_554 S
C2 O3 1.258 . S
C2 O4 1.263 1_556 S
O3 Co0 1.970 . S
O3 C2 1.258 . S
O4 Co1 1.966 . S
O4 C2 1.263 1_554 S
C5 O6 1.235 . S
C5 O32 1.289 . S
O6 C5 1.235 . S
C7 C9 1.400 1_455 S
C7 N10 1.351 . S
C7 C12 1.501 . S
C8 C9 1.387 . S
C8 N11 1.341 . S
C9 C7 1.400 1_655 S
C9 C8 1.387 . S
N10 Co1 2.022 . S
N10 C7 1.351 . S
N10 N11 1.365 1_455 S
N11 C8 1.341 . S
N11 N10 1.365 1_655 S
N11 H31 0.862 . S
C12 C7 1.501 . S
C12 H13 0.961 . S
C12 H14 0.961 . S
C12 H15 0.960 . S
H13 C12 0.961 . S
H14 C12 0.961 . S
H15 C12 0.960 . S
C16 N17 1.342 1_554 S
C16 C20 1.401 . S
C16 C21 1.499 1_554 S
N17 Co0 1.989 . S
N17 C16 1.342 1_556 S
N17 N18 1.388 1_556 S
N18 Co1 1.993 . S
N18 N17 1.388 1_554 S
N18 C19 1.346 . S
C19 N18 1.346 . S
C19 C20 1.396 . S
C19 C29 1.510 . S
C20 C16 1.401 . S
C20 C19 1.396 . S
C21 C16 1.499 1_556 S
C21 H22 0.959 . S
C21 H23 0.960 . S
C21 H24 0.961 . S
H22 C21 0.959 . S
H23 C21 0.960 . S
H24 C21 0.961 . S
O25 Co0 1.967 . S
O25 C33 1.258 . S
O26 Co1 1.941 1_556 S
O26 C33 1.266 . S
H27 C29 0.959 . S
H28 C29 0.961 . S
C29 C19 1.510 . S
C29 H27 0.959 . S
C29 H28 0.961 . S
C29 H30 0.960 . S
H30 C29 0.960 . S
H31 N11 0.862 . S
O32 Co0 1.920 . S
O32 C5 1.289 . S
C33 O25 1.258 . S
C33 O26 1.266 . S
Co34 O37 1.970 . S
Co34 N51 1.989 . S
Co34 O59 1.967 . S
Co34 O66 1.920 . S
Co35 O38 1.966 . S
Co35 N44 2.022 . S
Co35 N52 1.993 . S
Co35 O60 1.941 . S
C36 O37 1.258 . S
C36 O38 1.263 . S
O37 Co34 1.970 . S
O37 C36 1.258 . S
O38 Co35 1.966 . S
O38 C36 1.263 . S
C39 O40 1.235 . S
C39 O66 1.289 . S
O40 C39 1.235 . S
C41 C43 1.400 . S
C41 N44 1.351 . S
C41 C46 1.501 . S
C42 C43 1.387 . S
C42 N45 1.341 . S
C43 C41 1.400 . S
C43 C42 1.387 . S
N44 Co35 2.022 . S
N44 C41 1.351 . S
N44 N45 1.365 . S
N45 C42 1.341 . S
N45 N44 1.365 . S
N45 H65 0.862 . S
C46 C41 1.501 . S
C46 H47 0.961 . S
C46 H48 0.961 . S
C46 H49 0.960 . S
H47 C46 0.961 . S
H48 C46 0.961 . S
H49 C46 0.960 . S
C50 N51 1.342 . S
C50 C54 1.401 . S
C50 C55 1.499 . S
N51 Co34 1.989 . S
N51 C50 1.342 . S
N51 N52 1.388 . S
N52 Co35 1.993 . S
N52 N51 1.388 . S
N52 C53 1.346 . S
C53 N52 1.346 . S
C53 C54 1.396 . S
C53 C63 1.510 . S
C54 C50 1.401 . S
C54 C53 1.396 . S
C55 C50 1.499 . S
C55 H56 0.959 . S
C55 H57 0.960 . S
C55 H58 0.961 . S
H56 C55 0.959 . S
H57 C55 0.960 . S
H58 C55 0.961 . S
O59 Co34 1.967 . S
O59 C67 1.258 . S
O60 Co35 1.941 . S
O60 C67 1.266 . S
H61 C63 0.959 . S
H62 C63 0.961 . S
C63 C53 1.510 . S
C63 H61 0.959 . S
C63 H62 0.961 . S
C63 H64 0.960 . S
H64 C63 0.960 . S
H65 N45 0.862 . S
O66 Co34 1.920 . S
O66 C39 1.289 . S
C67 O59 1.258 . S
C67 O60 1.266 . S
Co68 O71 1.970 . S
Co68 N85 1.989 . S
Co68 O93 1.967 . S
Co68 O100 1.920 . S
Co69 O72 1.966 . S
Co69 N78 2.022 1_565 S
Co69 N86 1.993 . S
Co69 O94 1.941 1_565 S
C70 O71 1.258 . S
C70 O72 1.263 . S
O71 Co68 1.970 . S
O71 C70 1.258 . S
O72 Co69 1.966 . S
O72 C70 1.263 . S
C73 O74 1.235 . S
C73 O100 1.289 . S
O74 C73 1.235 . S
C75 C77 1.400 1_565 S
C75 N78 1.351 1_565 S
C75 C80 1.501 . S
C76 C77 1.387 . S
C76 N79 1.341 . S
C77 C75 1.400 1_545 S
C77 C76 1.387 . S
N78 Co69 2.022 1_545 S
N78 C75 1.351 1_545 S
N78 N79 1.365 . S
N79 C76 1.341 . S
N79 N78 1.365 . S
N79 H99 0.862 . S
C80 C75 1.501 . S
C80 H81 0.961 . S
C80 H82 0.961 . S
C80 H83 0.960 . S
H81 C80 0.961 . S
H82 C80 0.961 . S
H83 C80 0.960 . S
C84 N85 1.342 . S
C84 C88 1.401 . S
C84 C89 1.499 . S
N85 Co68 1.989 . S
N85 C84 1.342 . S
N85 N86 1.388 . S
N86 Co69 1.993 . S
N86 N85 1.388 . S
N86 C87 1.346 . S
C87 N86 1.346 . S
C87 C88 1.396 . S
C87 C97 1.510 . S
C88 C84 1.401 . S
C88 C87 1.396 . S
C89 C84 1.499 . S
C89 H90 0.959 . S
C89 H91 0.960 . S
C89 H92 0.961 . S
H90 C89 0.959 . S
H91 C89 0.960 . S
H92 C89 0.961 . S
O93 Co68 1.967 . S
O93 C101 1.258 . S
O94 Co69 1.941 1_545 S
O94 C101 1.266 1_545 S
H95 C97 0.959 . S
H96 C97 0.961 . S
C97 C87 1.510 . S
C97 H95 0.959 . S
C97 H96 0.961 . S
C97 H98 0.960 . S
H98 C97 0.960 . S
H99 N79 0.862 . S
O100 Co68 1.920 . S
O100 C73 1.289 . S
C101 O93 1.258 . S
C101 O94 1.266 1_565 S
Co102 O105 1.970 . S
Co102 N119 1.989 . S
Co102 O127 1.967 . S
Co102 O134 1.920 . S
Co103 O106 1.966 . S
Co103 N112 2.022 . S
Co103 N120 1.993 . S
Co103 O128 1.941 1_556 S
C104 O105 1.258 . S
C104 O106 1.263 1_554 S
O105 Co102 1.970 . S
O105 C104 1.258 . S
O106 Co103 1.966 . S
O106 C104 1.263 1_556 S
C107 O108 1.235 . S
C107 O134 1.289 . S
O108 C107 1.235 . S
C109 C111 1.400 1_545 S
C109 N112 1.351 . S
C109 C114 1.501 . S
C110 C111 1.387 . S
C110 N113 1.341 . S
C111 C109 1.400 1_565 S
C111 C110 1.387 . S
N112 Co103 2.022 . S
N112 C109 1.351 . S
N112 N113 1.365 1_545 S
N113 C110 1.341 . S
N113 N112 1.365 1_565 S
N113 H133 0.862 . S
C114 C109 1.501 . S
C114 H115 0.961 . S
C114 H116 0.961 . S
C114 H117 0.960 . S
H115 C114 0.961 . S
H116 C114 0.961 . S
H117 C114 0.960 . S
C118 N119 1.342 1_556 S
C118 C122 1.401 . S
C118 C123 1.499 1_556 S
N119 Co102 1.989 . S
N119 C118 1.342 1_554 S
N119 N120 1.388 1_554 S
N120 Co103 1.993 . S
N120 N119 1.388 1_556 S
N120 C121 1.346 . S
C121 N120 1.346 . S
C121 C122 1.396 . S
C121 C131 1.510 . S
C122 C118 1.401 . S
C122 C121 1.396 . S
C123 C118 1.499 1_554 S
C123 H124 0.959 . S
C123 H125 0.960 . S
C123 H126 0.961 . S
H124 C123 0.959 . S
H125 C123 0.960 . S
H126 C123 0.961 . S
O127 Co102 1.967 . S
O127 C135 1.258 . S
O128 Co103 1.941 1_554 S
O128 C135 1.266 . S
H129 C131 0.959 . S
H130 C131 0.961 . S
C131 C121 1.510 . S
C131 H129 0.959 . S
C131 H130 0.961 . S
C131 H132 0.960 . S
H132 C131 0.960 . S
H133 N113 0.862 . S
O134 Co102 1.920 . S
O134 C107 1.289 . S
C135 O127 1.258 . S
C135 O128 1.266 . S
Co136 O139 1.970 . S
Co136 N153 1.989 . S
Co136 O161 1.967 . S
Co136 O168 1.920 . S
Co137 O140 1.966 . S
Co137 N146 2.022 1_655 S
Co137 N154 1.993 . S
Co137 O162 1.941 1_655 S
C138 O139 1.258 . S
C138 O140 1.263 . S
O139 Co136 1.970 . S
O139 C138 1.258 . S
O140 Co137 1.966 . S
O140 C138 1.263 . S
C141 O142 1.235 . S
C141 O168 1.289 . S
O142 C141 1.235 . S
C143 C145 1.400 1_655 S
C143 N146 1.351 1_655 S
C143 C148 1.501 . S
C144 C145 1.387 . S
C144 N147 1.341 . S
C145 C143 1.400 1_455 S
C145 C144 1.387 . S
N146 Co137 2.022 1_455 S
N146 C143 1.351 1_455 S
N146 N147 1.365 . S
N147 C144 1.341 . S
N147 N146 1.365 . S
N147 H167 0.862 . S
C148 C143 1.501 . S
C148 H149 0.961 . S
C148 H150 0.961 . S
C148 H151 0.960 . S
H149 C148 0.961 . S
H150 C148 0.961 . S
H151 C148 0.960 . S
C152 N153 1.342 . S
C152 C156 1.401 . S
C152 C157 1.499 . S
N153 Co136 1.989 . S
N153 C152 1.342 . S
N153 N154 1.388 . S
N154 Co137 1.993 . S
N154 N153 1.388 . S
N154 C155 1.346 . S
C155 N154 1.346 . S
C155 C156 1.396 . S
C155 C165 1.510 . S
C156 C152 1.401 . S
C156 C155 1.396 . S
C157 C152 1.499 . S
C157 H158 0.959 . S
C157 H159 0.960 . S
C157 H160 0.961 . S
H158 C157 0.959 . S
H159 C157 0.960 . S
H160 C157 0.961 . S
O161 Co136 1.967 . S
O161 C169 1.258 . S
O162 Co137 1.941 1_455 S
O162 C169 1.266 1_455 S
H163 C165 0.959 . S
H164 C165 0.961 . S
C165 C155 1.510 . S
C165 H163 0.959 . S
C165 H164 0.961 . S
C165 H166 0.960 . S
H166 C165 0.960 . S
H167 N147 0.862 . S
O168 Co136 1.920 . S
O168 C141 1.289 . S
C169 O161 1.258 . S
C169 O162 1.266 1_655 S
Co170 O173 1.970 . S
Co170 N187 1.989 . S
Co170 O195 1.967 . S
Co170 O202 1.920 . S
Co171 O174 1.966 . S
Co171 N180 2.022 . S
Co171 N188 1.993 . S
Co171 O196 1.941 . S
C172 O173 1.258 . S
C172 O174 1.263 . S
O173 Co170 1.970 . S
O173 C172 1.258 . S
O174 Co171 1.966 . S
O174 C172 1.263 . S
C175 O176 1.235 . S
C175 O202 1.289 . S
O176 C175 1.235 . S
C177 C179 1.400 . S
C177 N180 1.351 . S
C177 C182 1.501 . S
C178 C179 1.387 . S
C178 N181 1.341 . S
C179 C177 1.400 . S
C179 C178 1.387 . S
N180 Co171 2.022 . S
N180 C177 1.351 . S
N180 N181 1.365 . S
N181 C178 1.341 . S
N181 N180 1.365 . S
N181 H201 0.862 . S
C182 C177 1.501 . S
C182 H183 0.961 . S
C182 H184 0.961 . S
C182 H185 0.960 . S
H183 C182 0.961 . S
H184 C182 0.961 . S
H185 C182 0.960 . S
C186 N187 1.342 . S
C186 C190 1.401 . S
C186 C191 1.499 . S
N187 Co170 1.989 . S
N187 C186 1.342 . S
N187 N188 1.388 . S
N188 Co171 1.993 . S
N188 N187 1.388 . S
N188 C189 1.346 . S
C189 N188 1.346 . S
C189 C190 1.396 . S
C189 C199 1.510 . S
C190 C186 1.401 . S
C190 C189 1.396 . S
C191 C186 1.499 . S
C191 H192 0.959 . S
C191 H193 0.960 . S
C191 H194 0.961 . S
H192 C191 0.959 . S
H193 C191 0.960 . S
H194 C191 0.961 . S
O195 Co170 1.967 . S
O195 C203 1.258 . S
O196 Co171 1.941 . S
O196 C203 1.266 . S
H197 C199 0.959 . S
H198 C199 0.961 . S
C199 C189 1.510 . S
C199 H197 0.959 . S
C199 H198 0.961 . S
C199 H200 0.960 . S
H200 C199 0.960 . S
H201 N181 0.862 . S
O202 Co170 1.920 . S
O202 C175 1.289 . S
C203 O195 1.258 . S
C203 O196 1.266 . S
C73 C20 1.721 . S
C54 C5 1.760 . S
C88 C39 1.738 . S
C122 C141 1.721 . S
C175 C156 1.738 . S
C107 C190 1.760 . S
C169 C33 1.561 1_655 S
C203 C67 1.563 . S
C135 C101 1.561 1_545 S
C104 C2 2.091 1_554 S
C138 C36 2.170 1_545 S
C70 C172 2.170 1_455 S
C145 C9 2.125 1_455 S
C43 C179 2.142 1_556 S
C111 C77 2.125 1_565 S
