# Generated by pormake.
# Topology pcu, (6)-cn, num edge types: 1
# Building blocks:
#     Node 0, Type 0, BuildingBlock: CUWYAW_clean_sbu_0, # of connection points: 6
#     Edge 1, Type (0, 0), BuildingBlock: MIFKUJ_clean_linker_0, # of connection points: 2
#     Edge 2, Type (0, 0), BuildingBlock: MIFKUJ_clean_linker_0, # of connection points: 2
#     Edge 3, Type (0, 0), BuildingBlock: MIFKUJ_clean_linker_0, # of connection points: 2
# Relax obj value: 0.000
# Max RMSD: 0.000
# Mean RMSD: 0.000
data_MOF--net-pcu--node1-CUWYAW_clean_sbu_0--edge1-MIFKUJ_clean_linker_0
_symmetry_space_group_name_H-M    P1
_symmetry_Int_Tables_number       1
_symmetry_cell_setting            triclinic
loop_
_symmetry_equiv_pos_as_xyz
'x, y, z'
_cell_length_a     30.188232
_cell_length_b     19.984737
_cell_length_c     18.88009
_cell_angle_alpha  91.389958
_cell_angle_beta   98.702862
_cell_angle_gamma 122.05544
loop_
_atom_site_label
_atom_site_type_symbol
_atom_site_fract_x
_atom_site_fract_y
_atom_site_fract_z
_atom_type_partial_charge
C0 C 0.17356 0.08342 0.97781 0.0
Eu1 Eu 0.08043 0.03396 1.00958 0.0
C2 C 0.2144 0.06263 0.9844 0.0
C3 C 0.24214 0.06426 0.05208 0.0
C4 C 0.28323 0.05014 0.05677 0.0
C5 C 0.2975 0.03382 0.99397 0.0
C6 C 0.26896 0.03068 0.92638 0.0
C7 C 0.22809 0.04521 0.92172 0.0
C8 C 0.05737 0.02729 0.14343 0.0
C9 C 1.0157 0.84149 0.01632 0.0
C10 C 0.86784 0.89042 0.04467 0.0
Eu11 Eu 0.96116 0.94011 0.01344 0.0
C12 C 0.82704 0.9113 0.03813 0.0
C13 C 0.79927 0.90963 0.97046 0.0
C14 C 0.75819 0.92378 0.96581 0.0
C15 C 0.74397 0.94017 0.02863 0.0
C16 C 0.77254 0.94335 0.0962 0.0
C17 C 0.8134 0.92879 0.10083 0.0
C18 C 0.98459 0.94696 0.87969 0.0
C19 C 0.02592 0.13261 1.00704 0.0
O20 O 0.12847 0.03604 0.93275 0.0
O21 O 0.16703 0.10987 0.03696 0.0
O22 O 0.09815 0.08832 0.12487 0.0
O23 O 0.03305 0.97088 0.09257 0.0
O24 O 0.05732 0.90563 0.99975 0.0
O25 O 0.97517 0.84212 0.03372 0.0
O26 O 0.91281 0.93745 0.09006 0.0
O27 O 0.87456 0.86441 0.98545 0.0
O28 O 0.94386 0.88574 0.89814 0.0
O29 O 1.0085 0.00324 0.93061 0.0
O30 O 0.98431 0.06846 0.0236 0.0
O31 O 0.06641 0.13198 0.98949 0.0
H32 H 0.23264 0.07741 0.10155 0.0
H33 H 0.30387 0.05204 0.10969 0.0
H34 H 0.27921 0.01923 0.87691 0.0
H35 H 0.20775 0.04424 0.86886 0.0
H36 H 0.80872 0.89641 0.92098 0.0
H37 H 0.73752 0.92184 0.9129 0.0
H38 H 0.76233 0.95485 0.14569 0.0
H39 H 0.83376 0.92978 0.15368 0.0
H40 H 0.11187 0.14077 0.2601 0.0
H41 H 0.09921 0.12699 0.38509 0.0
H42 H 0.96924 0.88293 0.32074 0.0
H43 H 0.98137 0.89681 0.19521 0.0
H44 H 0.94562 0.95797 0.41467 0.0
H45 H 0.09173 0.92753 0.40297 0.0
H46 H 0.17905 0.96543 0.37624 0.0
H47 H 0.25547 0.17922 0.52476 0.0
H48 H 0.16844 0.14314 0.55162 0.0
H49 H 0.93047 0.8337 0.76288 0.0
H50 H 0.9433 0.84789 0.63797 0.0
H51 H 0.07287 0.09212 0.7028 0.0
H52 H 0.06055 0.07785 0.82826 0.0
H53 H 0.09675 0.01725 0.6087 0.0
H54 H 0.95061 0.04753 0.62051 0.0
H55 H 0.86326 0.00951 0.64726 0.0
H56 H 0.78691 0.79589 0.49853 0.0
H57 H 0.87395 0.83209 0.47165 0.0
C58 C 0.08048 0.08426 0.27258 0.0
C59 C 0.04784 0.01967 0.21812 0.0
C60 C 0.07343 0.07635 0.34405 0.0
C61 C 0.03383 0.00354 0.36254 0.0
C62 C 1.00019 0.93956 0.3078 0.0
C63 C 1.00721 0.94748 0.23619 0.0
C64 C 0.02789 -0.00593 0.43905 0.0
C65 C 0.97846 0.96988 0.45694 0.0
C66 C 0.07108 0.01135 0.49453 0.0
C67 C 0.1235 0.03299 0.47877 0.0
C68 C 0.1271 0.98292 0.42952 0.0
C69 C 0.17655 0.00403 0.41441 0.0
C70 C 0.22276 0.07479 0.44864 0.0
C71 C 0.21963 0.12448 0.49821 0.0
C72 C 0.17026 0.1037 0.51344 0.0
C73 C 0.96181 0.89034 0.75052 0.0
C74 C 0.99427 0.95486 0.80508 0.0
C75 C 0.96896 0.89847 0.6791 0.0
C76 C 1.00849 0.97145 0.66078 0.0
C77 C 0.04197 0.03537 0.71562 0.0
C78 C 0.03484 0.02722 0.78718 0.0
C79 C 1.01448 0.98112 0.58431 0.0
C80 C 0.06392 0.00535 0.56643 0.0
C81 C 0.9713 0.96386 0.52884 0.0
C82 C 0.91887 0.94216 0.5446 0.0
C83 C 0.91524 -0.00786 0.59392 0.0
C84 C 0.86578 0.97097 0.60904 0.0
C85 C 0.81958 0.90023 0.57475 0.0
C86 C 0.82274 0.85062 0.52512 0.0
C87 C 0.87212 0.87146 0.50988 0.0
H88 H 0.78132 0.88395 0.58653 0.0
H89 H 0.26102 0.09103 0.43688 0.0
H90 H 0.39463 0.11804 0.08601 0.0
H91 H 0.46976 0.10161 0.09182 0.0
H92 H 0.37921 0.90884 0.91784 0.0
H93 H 0.30339 0.92383 0.91274 0.0
H94 H 0.43198 0.87334 0.02394 0.0
H95 H 0.47522 0.09161 0.88692 0.0
H96 H 0.48994 0.22174 0.86201 0.0
H97 H 0.61559 0.33665 0.04904 0.0
H98 H 0.6011 0.20695 0.07569 0.0
H99 H 0.64681 0.85593 0.93666 0.0
H100 H 0.57169 0.87237 0.93089 0.0
H101 H 0.66231 0.0652 0.10481 0.0
H102 H 0.73812 0.0502 0.10986 0.0
H103 H 0.60951 0.10068 0.99877 0.0
H104 H 0.56628 0.88244 0.13579 0.0
H105 H 0.55156 0.7523 0.16072 0.0
H106 H 0.42588 0.63736 0.97372 0.0
H107 H 0.44038 0.76706 0.94705 0.0
C108 C 0.39041 0.07154 0.04946 0.0
C109 C 0.34288 0.02236 0.99878 0.0
C110 C 0.43366 0.06271 0.05239 0.0
C111 C 0.4305 0.00459 1.00468 0.0
C112 C 0.38276 0.95434 0.95502 0.0
C113 C 0.33955 0.96337 0.95183 0.0
C114 C 0.477 -0.00355 1.00645 0.0
C115 C 0.47059 0.92278 0.01744 0.0
C116 C 0.52783 0.06135 0.99962 0.0
C117 C 0.53669 0.13944 0.98372 0.0
C118 C 0.50569 0.14453 0.9231 0.0
C119 C 0.51404 0.21823 0.9086 0.0
C120 C 0.55358 0.2874 0.95403 0.0
C121 C 0.58493 0.28301 0.01397 0.0
C122 C 0.57668 0.20942 0.02877 0.0
C123 C 0.65105 0.90244 0.97321 0.0
C124 C 0.6986 0.95163 0.02385 0.0
C125 C 0.6078 0.91128 0.9703 0.0
C126 C 0.61098 0.96942 0.018 0.0
C127 C 0.65874 0.01968 0.06764 0.0
C128 C 0.70195 0.01065 0.0708 0.0
C129 C 0.56449 0.97757 0.01626 0.0
C130 C 0.57089 0.05124 1.00527 0.0
C131 C 0.51366 0.91267 0.0231 0.0
C132 C 0.5048 0.83458 0.039 0.0
C133 C 0.53581 0.8295 0.09962 0.0
C134 C 0.52745 0.75581 0.11413 0.0
C135 C 0.48791 0.68663 0.06872 0.0
C136 C 0.45656 0.69101 1.00879 0.0
C137 C 0.4648 0.7646 0.99397 0.0
H138 H 0.48149 0.62962 0.08006 0.0
H139 H 0.56 0.34441 0.9427 0.0
H140 H 0.93024 0.68848 0.99987 0.0
H141 H 0.93166 0.56716 0.99751 0.0
H142 H 0.10363 0.70908 0.03653 0.0
H143 H 0.10229 0.83 0.03564 0.0
H144 H 0.06882 0.59324 0.93623 0.0
H145 H 0.0291 0.61313 0.17128 0.0
H146 H 0.97827 0.62474 0.25624 0.0
H147 H 0.8374 0.40548 0.15177 0.0
H148 H 0.88722 0.39308 0.06562 0.0
H149 H 0.11141 0.2856 0.02363 0.0
H150 H 0.11005 0.40696 0.0262 0.0
H151 H 0.93807 0.26515 0.98723 0.0
H152 H 0.93936 0.14419 0.98794 0.0
H153 H 0.97292 0.38096 0.08755 0.0
H154 H 1.01261 0.36111 0.85247 0.0
H155 H 0.06342 0.3495 0.76748 0.0
H156 H 0.20434 0.5687 0.87201 0.0
H157 H 0.15452 0.5811 0.95818 0.0
C158 C 0.96827 0.69357 1.0083 0.0
C159 C 1.01612 0.76836 0.01797 0.0
C160 C 0.96908 0.62436 1.00724 0.0
C161 C 1.01781 0.62912 0.01785 0.0
C162 C 0.06559 0.70399 0.0281 0.0
C163 C 0.06477 0.77299 0.02771 0.0
C164 C 1.01928 0.55628 0.01654 0.0
C165 C 0.0484 0.54726 0.97003 0.0
C166 C 0.99161 0.49549 0.05934 0.0
C167 C 0.9618 0.50255 0.11164 0.0
C168 C 0.98721 0.56765 0.16618 0.0
C169 C 0.95859 0.57433 0.21458 0.0
C170 C 0.90462 0.51598 0.20931 0.0
C171 C 0.87919 0.45067 0.15576 0.0
C172 C 0.90761 0.44374 0.10719 0.0
C173 C 0.07339 0.28055 0.01527 0.0
C174 C 0.02553 0.20577 1.00555 0.0
C175 C 0.07261 0.34978 0.01644 0.0
C176 C 0.0239 0.34506 1.00589 0.0
C177 C 0.9761 0.27021 0.99562 0.0
C178 C 0.9769 0.20118 0.9959 0.0
C179 C 0.02245 0.41792 1.00724 0.0
C180 C 0.99334 0.42695 0.05376 0.0
C181 C 0.05013 0.47872 0.96445 0.0
C182 C 0.07993 0.47165 0.91213 0.0
C183 C 0.0545 0.40658 0.85757 0.0
C184 C 0.08312 0.39989 0.80916 0.0
C185 C 0.1371 0.45823 0.81444 0.0
C186 C 0.16254 0.52352 0.86801 0.0
C187 C 0.13412 0.53045 0.91659 0.0
H188 H 0.15919 0.45291 0.77695 0.0
H189 H 0.88252 0.52129 0.24679 0.0
loop_
_geom_bond_atom_site_label_1
_geom_bond_atom_site_label_2
_geom_bond_distance
_geom_bond_site_symmetry_2
_ccdc_geom_bond_type
C0 Eu1 2.835 . S
C0 C2 1.500 . S
C0 O20 1.257 1_554 S
C0 O21 1.260 . S
Eu1 C0 2.835 . S
Eu1 O20 2.473 1_554 S
Eu1 O21 2.480 . S
Eu1 O22 2.430 . S
Eu1 O23 2.670 1_455 S
Eu1 O24 2.394 1_545 S
Eu1 O29 2.355 1_544 S
Eu1 O31 2.374 . S
C2 C0 1.500 . S
C2 C3 1.377 . S
C2 C7 1.377 1_544 S
C3 C2 1.377 . S
C3 C4 1.395 . S
C3 H32 0.931 . S
C4 C3 1.395 . S
C4 C5 1.388 . S
C4 H33 0.931 . S
C5 C4 1.388 . S
C5 C6 1.396 1_544 S
C6 C5 1.396 1_566 S
C6 C7 1.378 . S
C6 H34 0.931 . S
C7 C2 1.377 1_566 S
C7 C6 1.378 . S
C7 H35 0.931 . S
C8 O22 1.259 . S
C8 O23 1.270 1_455 S
C9 O24 1.251 1_655 S
C9 O25 1.251 1_554 S
C10 Eu11 2.835 . S
C10 C12 1.500 . S
C10 O26 1.257 1_556 S
C10 O27 1.260 . S
Eu11 C10 2.835 . S
Eu11 O23 2.355 1_566 S
Eu11 O25 2.374 . S
Eu11 O26 2.473 1_556 S
Eu11 O27 2.480 . S
Eu11 O28 2.430 . S
Eu11 O29 2.670 1_655 S
Eu11 O30 2.394 1_565 S
C12 C10 1.500 . S
C12 C13 1.377 . S
C12 C17 1.377 1_566 S
C13 C12 1.377 . S
C13 C14 1.395 . S
C13 H36 0.931 . S
C14 C13 1.395 . S
C14 C15 1.386 . S
C14 H37 0.931 . S
C15 C14 1.386 . S
C15 C16 1.395 1_566 S
C16 C15 1.395 1_544 S
C16 C17 1.378 . S
C16 H38 0.931 . S
C17 C12 1.377 1_544 S
C17 C16 1.378 . S
C17 H39 0.931 . S
C18 O28 1.259 . S
C18 O29 1.270 1_655 S
C19 O30 1.251 1_455 S
C19 O31 1.251 1_556 S
O20 C0 1.257 1_556 S
O20 Eu1 2.473 1_556 S
O21 C0 1.260 . S
O21 Eu1 2.480 . S
O22 Eu1 2.430 . S
O22 C8 1.259 . S
O23 Eu1 2.670 1_655 S
O23 C8 1.270 1_655 S
O23 Eu11 2.355 1_544 S
O24 Eu1 2.394 1_565 S
O24 C9 1.251 1_455 S
O25 C9 1.251 1_556 S
O25 Eu11 2.374 . S
O26 C10 1.257 1_554 S
O26 Eu11 2.473 1_554 S
O27 C10 1.260 . S
O27 Eu11 2.480 . S
O28 Eu11 2.430 . S
O28 C18 1.259 . S
O29 Eu1 2.355 1_566 S
O29 Eu11 2.670 1_455 S
O29 C18 1.270 1_455 S
O30 Eu11 2.394 1_545 S
O30 C19 1.251 1_655 S
O31 Eu1 2.374 . S
O31 C19 1.251 1_554 S
H32 C3 0.931 . S
H33 C4 0.931 . S
H34 C6 0.931 . S
H35 C7 0.931 . S
H36 C13 0.931 . S
H37 C14 0.931 . S
H38 C16 0.931 . S
H39 C17 0.931 . S
H40 C58 0.951 . S
H41 C60 0.951 . S
H42 C62 0.950 . S
H43 C63 0.950 . S
H44 C65 0.950 . S
H45 C68 0.937 1_565 S
H46 C69 0.950 . S
H47 C71 0.950 . S
H48 C72 0.950 . S
H49 C73 0.951 . S
H50 C75 0.951 . S
H51 C77 0.950 . S
H52 C78 0.950 . S
H53 C80 0.950 . S
H54 C83 0.950 1_545 S
H55 C84 0.950 . S
H56 C86 0.950 . S
H57 C87 0.950 . S
C58 H40 0.951 . S
C58 C59 1.365 . S
C58 C60 1.388 . S
C59 C58 1.365 . S
C59 C63 1.385 1_445 S
C60 H41 0.951 . S
C60 C58 1.388 . S
C60 C61 1.367 1_545 S
C61 C60 1.367 1_565 S
C61 C62 1.413 1_455 S
C61 C64 1.499 . S
C62 H42 0.950 . S
C62 C61 1.413 1_655 S
C62 C63 1.374 . S
C63 H43 0.950 . S
C63 C59 1.385 1_665 S
C63 C62 1.374 . S
C64 C61 1.499 . S
C64 C65 1.373 1_455 S
C64 C66 1.389 1_565 S
C65 H44 0.950 . S
C65 C64 1.373 1_655 S
C65 C81 1.377 . S
C66 C64 1.389 1_545 S
C66 C67 1.524 . S
C66 C80 1.377 . S
C67 C66 1.524 . S
C67 C68 1.397 . S
C67 C72 1.363 . S
C68 H45 0.937 1_545 S
C68 C67 1.397 . S
C68 C69 1.334 . S
C69 H46 0.950 . S
C69 C68 1.334 . S
C69 C70 1.287 . S
C70 C69 1.287 . S
C70 C71 1.524 . S
C70 H89 0.913 . S
C71 H47 0.950 . S
C71 C70 1.524 . S
C71 C72 1.415 . S
C72 H48 0.950 . S
C72 C67 1.363 . S
C72 C71 1.415 . S
C73 H49 0.951 . S
C73 C74 1.365 1_665 S
C73 C75 1.388 . S
C74 C73 1.365 1_445 S
C74 C78 1.385 . S
C75 H50 0.951 . S
C75 C73 1.388 . S
C75 C76 1.364 1_565 S
C76 C75 1.364 1_545 S
C76 C77 1.415 1_655 S
C76 C79 1.499 . S
C77 H51 0.950 . S
C77 C76 1.415 1_455 S
C77 C78 1.374 . S
C78 H52 0.950 . S
C78 C74 1.385 . S
C78 C77 1.374 . S
C79 C76 1.499 . S
C79 C80 1.373 1_655 S
C79 C81 1.389 1_545 S
C80 H53 0.950 . S
C80 C66 1.377 . S
C80 C79 1.373 1_455 S
C81 C65 1.377 . S
C81 C79 1.389 1_565 S
C81 C82 1.524 . S
C82 C81 1.524 . S
C82 C83 1.397 . S
C82 C87 1.363 . S
C83 H54 0.950 1_565 S
C83 C82 1.397 . S
C83 C84 1.334 . S
C84 H55 0.950 . S
C84 C83 1.334 . S
C84 C85 1.287 . S
C85 C84 1.287 . S
C85 C86 1.524 . S
C85 H88 0.999 . S
C86 H56 0.950 . S
C86 C85 1.524 . S
C86 C87 1.415 . S
C87 H57 0.950 . S
C87 C82 1.363 . S
C87 C86 1.415 . S
H88 C85 0.999 . S
H89 C70 0.913 . S
H90 C108 0.951 . S
H91 C110 0.951 . S
H92 C112 0.950 . S
H93 C113 0.950 . S
H94 C115 0.950 . S
H95 C118 0.950 . S
H96 C119 0.950 . S
H97 C121 0.950 1_554 S
H98 C122 0.950 . S
H99 C123 0.951 . S
H100 C125 0.951 . S
H101 C127 0.950 . S
H102 C128 0.950 . S
H103 C130 0.950 . S
H104 C133 0.950 . S
H105 C134 0.950 . S
H106 C136 0.950 1_556 S
H107 C137 0.950 . S
C108 H90 0.951 . S
C108 C109 1.367 1_545 S
C108 C110 1.388 . S
C109 C108 1.367 1_565 S
C109 C113 1.382 1_554 S
C110 H91 0.951 . S
C110 C108 1.388 . S
C110 C111 1.366 1_554 S
C111 C110 1.366 1_556 S
C111 C112 1.414 1_545 S
C111 C114 1.504 . S
C112 H92 0.950 . S
C112 C111 1.414 1_565 S
C112 C113 1.374 . S
C113 H93 0.950 . S
C113 C109 1.382 1_556 S
C113 C112 1.374 . S
C114 C111 1.504 . S
C114 C115 1.363 1_546 S
C114 C116 1.393 . S
C115 H94 0.950 . S
C115 C114 1.363 1_564 S
C115 C131 1.377 . S
C116 C114 1.393 . S
C116 C117 1.524 . S
C116 C130 1.377 . S
C117 C116 1.524 . S
C117 C118 1.397 . S
C117 C122 1.363 1_556 S
C118 H95 0.950 . S
C118 C117 1.397 . S
C118 C119 1.334 . S
C119 H96 0.950 . S
C119 C118 1.334 . S
C119 C120 1.287 . S
C120 C119 1.287 . S
C120 C121 1.524 . S
C120 H139 0.913 . S
C121 H97 0.950 1_556 S
C121 C120 1.524 . S
C121 C122 1.415 1_556 S
C122 H98 0.950 . S
C122 C117 1.363 1_554 S
C122 C121 1.415 1_554 S
C123 H99 0.951 . S
C123 C124 1.366 1_566 S
C123 C125 1.388 . S
C124 C123 1.366 1_544 S
C124 C128 1.386 . S
C125 H100 0.951 . S
C125 C123 1.388 . S
C125 C126 1.366 1_556 S
C126 C125 1.366 1_554 S
C126 C127 1.414 1_565 S
C126 C129 1.502 . S
C127 H101 0.950 . S
C127 C126 1.414 1_545 S
C127 C128 1.374 . S
C128 H102 0.950 . S
C128 C124 1.386 . S
C128 C127 1.374 . S
C129 C126 1.502 . S
C129 C130 1.367 1_564 S
C129 C131 1.392 . S
C130 H103 0.950 . S
C130 C116 1.377 . S
C130 C129 1.367 1_546 S
C131 C115 1.377 . S
C131 C129 1.392 . S
C131 C132 1.524 . S
C132 C131 1.524 . S
C132 C133 1.397 . S
C132 C137 1.363 1_554 S
C133 H104 0.950 . S
C133 C132 1.397 . S
C133 C134 1.334 . S
C134 H105 0.950 . S
C134 C133 1.334 . S
C134 C135 1.287 . S
C135 C134 1.287 . S
C135 C136 1.524 . S
C135 H138 0.999 . S
C136 H106 0.950 1_554 S
C136 C135 1.524 . S
C136 C137 1.415 1_554 S
C137 H107 0.950 . S
C137 C132 1.363 1_556 S
C137 C136 1.415 1_556 S
H138 C135 0.999 . S
H139 C120 0.913 . S
H140 C158 0.951 . S
H141 C160 0.951 . S
H142 C162 0.950 . S
H143 C163 0.950 . S
H144 C165 0.950 . S
H145 C168 0.950 . S
H146 C169 0.950 . S
H147 C171 0.950 . S
H148 C172 0.950 . S
H149 C173 0.951 . S
H150 C175 0.951 . S
H151 C177 0.950 . S
H152 C178 0.950 . S
H153 C180 0.950 . S
H154 C183 0.950 . S
H155 C184 0.950 . S
H156 C186 0.950 . S
H157 C187 0.950 . S
C158 H140 0.951 . S
C158 C159 1.366 1_656 S
C158 C160 1.388 . S
C159 C158 1.366 1_454 S
C159 C163 1.386 . S
C160 H141 0.951 . S
C160 C158 1.388 . S
C160 C161 1.366 1_556 S
C161 C160 1.366 1_554 S
C161 C162 1.414 1_655 S
C161 C164 1.499 . S
C162 H142 0.950 . S
C162 C161 1.414 1_455 S
C162 C163 1.374 . S
C163 H143 0.950 . S
C163 C159 1.386 . S
C163 C162 1.374 . S
C164 C161 1.499 . S
C164 C165 1.373 1_655 S
C164 C166 1.389 1_554 S
C165 H144 0.950 . S
C165 C164 1.373 1_455 S
C165 C181 1.377 . S
C166 C164 1.389 1_556 S
C166 C167 1.524 . S
C166 C180 1.377 . S
C167 C166 1.524 . S
C167 C168 1.397 1_556 S
C167 C172 1.363 . S
C168 H145 0.950 . S
C168 C167 1.397 1_554 S
C168 C169 1.334 . S
C169 H146 0.950 . S
C169 C168 1.334 . S
C169 C170 1.287 1_554 S
C170 C169 1.287 1_556 S
C170 C171 1.524 . S
C170 H189 0.913 . S
C171 H147 0.950 . S
C171 C170 1.524 . S
C171 C172 1.415 . S
C172 H148 0.950 . S
C172 C167 1.363 . S
C172 C171 1.415 . S
C173 H149 0.951 . S
C173 C174 1.366 . S
C173 C175 1.388 . S
C174 C173 1.366 . S
C174 C178 1.386 1_454 S
C175 H150 0.951 . S
C175 C173 1.388 . S
C175 C176 1.366 1_554 S
C176 C175 1.366 1_556 S
C176 C177 1.414 1_455 S
C176 C179 1.499 . S
C177 H151 0.950 . S
C177 C176 1.414 1_655 S
C177 C178 1.374 . S
C178 H152 0.950 . S
C178 C174 1.386 1_656 S
C178 C177 1.374 . S
C179 C176 1.499 . S
C179 C180 1.373 1_455 S
C179 C181 1.389 1_556 S
C180 H153 0.950 . S
C180 C166 1.377 . S
C180 C179 1.373 1_655 S
C181 C165 1.377 . S
C181 C179 1.389 1_554 S
C181 C182 1.524 . S
C182 C181 1.524 . S
C182 C183 1.397 1_554 S
C182 C187 1.363 . S
C183 H154 0.950 . S
C183 C182 1.397 1_556 S
C183 C184 1.334 . S
C184 H155 0.950 . S
C184 C183 1.334 . S
C184 C185 1.287 1_556 S
C185 C184 1.287 1_554 S
C185 C186 1.524 . S
C185 H188 0.999 . S
C186 H156 0.950 . S
C186 C185 1.524 . S
C186 C187 1.415 . S
C187 H157 0.950 . S
C187 C182 1.363 . S
C187 C186 1.415 . S
H188 C185 0.999 . S
H189 C170 0.913 . S
C59 C8 1.452 . S
C74 C18 1.452 1_445 S
C109 C5 1.495 1_565 S
C124 C15 1.495 1_544 S
C159 C9 1.487 1_455 S
C174 C19 1.487 1_554 S
