# Generated by pormake.
# Topology pcu, (6)-cn, num edge types: 1
# Building blocks:
#     Node 0, Type 0, BuildingBlock: PAMTUU_clean_sbu_0, # of connection points: 6
#     Edge 1, Type (0, 0), None
#     Edge 2, Type (0, 0), None
#     Edge 3, Type (0, 0), None
# Relax obj value: 0.000
# Max RMSD: 0.000
# Mean RMSD: 0.000
data_MOF--net-pcu--node1-PAMTUU_clean_sbu_0--edge1-none
_symmetry_space_group_name_H-M    P1
_symmetry_Int_Tables_number       1
_symmetry_cell_setting            triclinic
loop_
_symmetry_equiv_pos_as_xyz
'x, y, z'
_cell_length_a     17.194332
_cell_length_b     6.8425781
_cell_length_c     6.8067982
_cell_angle_alpha  83.055436
_cell_angle_beta   99.893345
_cell_angle_gamma 114.03957
loop_
_atom_site_label
_atom_site_type_symbol
_atom_site_fract_x
_atom_site_fract_y
_atom_site_fract_z
_atom_type_partial_charge
Tb0 Tb 0.15469 0.08954 0.01153 0.0
Tb1 Tb 0.9336 0.86476 0.94285 0.0
C2 C 1.04372 0.97679 0.37 0.0
C3 C 0.3844 0.16301 0.0407 0.0
C4 C 0.51169 0.01795 -0.00593 0.0
C5 C 0.52217 0.13963 0.1565 0.0
C6 C 0.45915 0.2115 0.17924 0.0
C7 C 0.37351 0.04263 0.87766 0.0
C8 C 0.4368 0.97137 0.85413 0.0
C9 C 0.317 0.22943 0.07635 0.0
O10 O 0.11748 0.74716 -0.0024 0.0
O11 O 0.96777 0.59252 0.95664 0.0
O12 O 0.97224 0.86777 0.65577 0.0
O13 O 0.11798 0.08525 0.69082 0.0
O14 O 0.81449 0.66615 0.03815 0.0
O15 O 0.82106 0.84646 0.75486 0.0
O16 O 0.97081 0.20704 0.95731 0.0
O17 O 0.12045 0.36207 -0.00603 0.0
O18 O 0.11569 0.08971 0.29727 0.0
O19 O 0.97089 0.86566 0.26339 0.0
C20 C 1.04326 0.58231 0.97689 0.0
O21 O 0.27441 0.28979 0.92087 0.0
O22 O 0.2664 0.10442 0.2021 0.0
C23 C 0.04471 0.97728 0.58381 0.0
C24 C 0.70565 0.79512 0.92265 0.0
C25 C 0.5786 0.93989 0.97134 0.0
C26 C 0.55534 0.73352 0.9059 0.0
C27 C 0.61842 0.66204 0.88158 0.0
C28 C 0.72939 -0.00031 -0.00927 0.0
C29 C 0.66644 0.07156 0.01462 0.0
C30 C 0.77111 0.72415 0.88307 0.0
C31 C 0.04499 0.37214 0.97545 0.0
H32 H 0.57838 0.1762 0.26837 0.0
H33 H 0.46823 0.30267 0.307 0.0
H34 H 0.31588 0.00219 0.76971 0.0
H35 H 0.42722 0.88071 0.72584 0.0
H36 H 0.4884 0.62684 0.8741 0.0
H37 H 0.59907 0.50376 0.82841 0.0
H38 H 0.79657 0.10513 0.022 0.0
H39 H 0.68662 0.23203 0.06301 0.0
loop_
_geom_bond_atom_site_label_1
_geom_bond_atom_site_label_2
_geom_bond_distance
_geom_bond_site_symmetry_2
_ccdc_geom_bond_type
Tb0 C9 2.764 . S
Tb0 O10 2.325 1_545 S
Tb0 O13 2.303 1_554 S
Tb0 O17 2.322 . S
Tb0 O18 2.349 . S
Tb0 O21 2.415 1_554 S
Tb0 O22 2.399 . S
Tb1 O11 2.322 . S
Tb1 O12 2.349 . S
Tb1 O14 2.415 1_556 S
Tb1 O15 2.399 . S
Tb1 O16 2.325 1_565 S
Tb1 O19 2.303 1_556 S
Tb1 C30 2.764 . S
C2 O18 1.261 . S
C2 O19 1.257 1_445 S
C3 C6 1.358 . S
C3 C7 1.332 1_544 S
C3 C9 1.504 . S
C4 C5 1.373 1_566 S
C4 C8 1.308 . S
C5 C4 1.373 1_544 S
C5 C6 1.429 . S
C5 H32 0.932 . S
C6 C3 1.358 . S
C6 C5 1.429 . S
C6 H33 0.930 . S
C7 C3 1.332 1_566 S
C7 C8 1.394 . S
C7 H34 0.932 . S
C8 C4 1.308 . S
C8 C7 1.394 . S
C8 H35 0.929 . S
C9 Tb0 2.764 . S
C9 C3 1.504 . S
C9 O21 1.239 1_554 S
C9 O22 1.263 . S
O10 Tb0 2.325 1_565 S
O10 C20 1.231 1_455 S
O11 Tb1 2.322 . S
O11 C20 1.268 1_556 S
O12 Tb1 2.349 . S
O12 C23 1.261 . S
O13 Tb0 2.303 1_556 S
O13 C23 1.257 1_445 S
O14 Tb1 2.415 1_554 S
O14 C30 1.239 1_554 S
O15 Tb1 2.399 . S
O15 C30 1.263 . S
O16 Tb1 2.325 1_545 S
O16 C31 1.229 1_655 S
O17 Tb0 2.322 . S
O17 C31 1.271 1_554 S
O18 Tb0 2.349 . S
O18 C2 1.261 . S
O19 Tb1 2.303 1_554 S
O19 C2 1.257 1_665 S
C20 O10 1.231 1_655 S
C20 O11 1.268 1_554 S
O21 Tb0 2.415 1_556 S
O21 C9 1.239 1_556 S
O22 Tb0 2.399 . S
O22 C9 1.263 . S
C23 O12 1.261 . S
C23 O13 1.257 1_665 S
C24 C27 1.358 . S
C24 C28 1.332 1_566 S
C24 C30 1.504 . S
C25 C26 1.373 1_544 S
C25 C29 1.308 . S
C26 C25 1.373 1_566 S
C26 C27 1.429 . S
C26 H36 0.932 . S
C27 C24 1.358 . S
C27 C26 1.429 . S
C27 H37 0.930 . S
C28 C24 1.332 1_544 S
C28 C29 1.394 . S
C28 H38 0.932 . S
C29 C25 1.308 . S
C29 C28 1.394 . S
C29 H39 0.929 . S
C30 Tb1 2.764 . S
C30 O14 1.239 1_556 S
C30 O15 1.263 . S
C30 C24 1.504 . S
C31 O16 1.229 1_455 S
C31 O17 1.271 1_556 S
H32 C5 0.932 . S
H33 C6 0.930 . S
H34 C7 0.932 . S
H35 C8 0.929 . S
H36 C26 0.932 . S
H37 C27 0.930 . S
H38 C28 0.932 . S
H39 C29 0.929 . S
C2 C23 1.500 1_445 S
C4 C25 1.500 1_566 S
C20 C31 1.487 1_654 S
