# Generated by pormake.
# Topology uni, (4)-cn, num edge types: 1
# Building blocks:
#     Node 0, Type 0, BuildingBlock: NAHDIM_clean_sbu_0, # of connection points: 4
#     Node 1, Type 0, BuildingBlock: NAHDIM_clean_sbu_0, # of connection points: 4
#     Node 2, Type 0, BuildingBlock: NAHDIM_clean_sbu_0, # of connection points: 4
#     Node 3, Type 0, BuildingBlock: NAHDIM_clean_sbu_0, # of connection points: 4
#     Node 4, Type 0, BuildingBlock: NAHDIM_clean_sbu_0, # of connection points: 4
#     Node 5, Type 0, BuildingBlock: NAHDIM_clean_sbu_0, # of connection points: 4
#     Edge 6, Type (0, 0), BuildingBlock: EYOCIG_clean_linker_4, # of connection points: 2
#     Edge 7, Type (0, 0), BuildingBlock: EYOCIG_clean_linker_4, # of connection points: 2
#     Edge 8, Type (0, 0), BuildingBlock: EYOCIG_clean_linker_4, # of connection points: 2
#     Edge 9, Type (0, 0), BuildingBlock: EYOCIG_clean_linker_4, # of connection points: 2
#     Edge 10, Type (0, 0), BuildingBlock: EYOCIG_clean_linker_4, # of connection points: 2
#     Edge 11, Type (0, 0), BuildingBlock: EYOCIG_clean_linker_4, # of connection points: 2
#     Edge 12, Type (0, 0), BuildingBlock: EYOCIG_clean_linker_4, # of connection points: 2
#     Edge 13, Type (0, 0), BuildingBlock: EYOCIG_clean_linker_4, # of connection points: 2
#     Edge 14, Type (0, 0), BuildingBlock: EYOCIG_clean_linker_4, # of connection points: 2
#     Edge 15, Type (0, 0), BuildingBlock: EYOCIG_clean_linker_4, # of connection points: 2
#     Edge 16, Type (0, 0), BuildingBlock: EYOCIG_clean_linker_4, # of connection points: 2
#     Edge 17, Type (0, 0), BuildingBlock: EYOCIG_clean_linker_4, # of connection points: 2
# Relax obj value: 0.044
# Max RMSD: 0.077
# Mean RMSD: 0.077
data_MOF--net-uni--node1-NAHDIM_clean_sbu_0--edge1-EYOCIG_clean_linker_4
_symmetry_space_group_name_H-M    P1
_symmetry_Int_Tables_number       1
_symmetry_cell_setting            triclinic
loop_
_symmetry_equiv_pos_as_xyz
'x, y, z'
_cell_length_a     31.290933
_cell_length_b     31.276974
_cell_length_c     18.603771
_cell_angle_alpha  89.959896
_cell_angle_beta   90.003724
_cell_angle_gamma 120.0202
loop_
_atom_site_label
_atom_site_type_symbol
_atom_site_fract_x
_atom_site_fract_y
_atom_site_fract_z
_atom_type_partial_charge
C0 C 0.657 0.93228 0.09942 0.0
O1 O 0.68928 0.97358 0.13063 0.0
O2 O 0.69063 0.04988 0.01482 0.0
Zn3 Zn 0.62264 -0.0055 0.04236 0.0
O4 O 0.59831 0.00806 0.13579 0.0
C5 C 0.57952 0.0202 0.9249 0.0
O6 O 0.61614 0.06485 0.9378 0.0
O7 O 0.62496 0.93191 0.05719 0.0
C8 C 0.57322 0.02975 0.13822 0.0
O9 O 0.56391 0.04644 0.07911 0.0
C10 C 0.70824 0.09361 0.03823 0.0
O11 O 0.68271 0.10423 0.08336 0.0
O12 O 0.57449 0.984 0.96237 0.0
C13 C 0.74593 0.66712 0.26605 0.0
O14 O 0.73708 0.69964 0.29679 0.0
O15 O 0.66201 0.70056 0.18109 0.0
Zn16 Zn 0.64932 0.63259 0.20905 0.0
O17 O 0.61132 0.60839 0.30244 0.0
C18 C 0.58067 0.58928 0.09155 0.0
O19 O 0.57278 0.62602 0.10403 0.0
O20 O 0.71415 0.63489 0.22413 0.0
C21 C 0.56451 0.5837 0.30491 0.0
O22 O 0.53857 0.57479 0.24585 0.0
C23 C 0.63581 0.71817 0.20415 0.0
O24 O 0.59956 0.69266 0.2492 0.0
O25 O 0.61169 0.58424 0.12928 0.0
C26 C 0.09972 0.75647 0.43302 0.0
O27 O 0.0583 0.74732 0.46395 0.0
O28 O 0.98251 0.67233 0.34789 0.0
Zn29 Zn 0.0379 0.65988 0.37581 0.0
O30 O 0.02414 0.62199 0.46933 0.0
C31 C 0.01272 0.59106 0.25855 0.0
O32 O 0.96801 0.58287 0.27125 0.0
O33 O 0.1003 0.72488 0.39086 0.0
C34 C 0.00257 0.57519 0.47187 0.0
O35 O 0.98615 0.54916 0.41278 0.0
C36 C 0.93868 0.64584 0.37075 0.0
O37 O 0.92798 0.60941 0.41547 0.0
O38 O 0.04877 0.62232 0.29607 0.0
C39 C 0.36582 0.11036 0.60079 0.0
O40 O 0.33427 0.06916 0.63304 0.0
O41 O 0.33148 0.9929 0.51476 0.0
Zn42 Zn 0.3995 0.04812 0.54233 0.0
O43 O 0.42372 0.03437 0.63574 0.0
C44 C 0.44255 0.02241 0.42487 0.0
O45 O 0.40587 0.97779 0.43781 0.0
O46 O 0.39725 0.1107 0.55731 0.0
C47 C 0.44879 0.01265 0.6382 0.0
O48 O 0.45813 -0.00398 0.5791 0.0
C49 C 0.31382 0.9491 0.53798 0.0
O50 O 0.33931 0.93829 0.58293 0.0
O51 O 0.44766 0.05862 0.46232 0.0
C52 C 0.27628 0.37543 0.76699 0.0
O53 O 0.28549 0.34342 0.7987 0.0
O54 O 0.36007 0.34164 0.68175 0.0
Zn55 Zn 0.37262 0.4096 0.70929 0.0
O56 O 0.41056 0.43391 0.80263 0.0
C57 C 0.44124 0.45279 0.59161 0.0
O58 O 0.44911 0.41604 0.60422 0.0
O59 O 0.30774 0.40722 0.72421 0.0
C60 C 0.45737 0.45859 0.80505 0.0
O61 O 0.48332 0.46749 0.74598 0.0
C62 C 0.38618 0.32407 0.70534 0.0
O63 O 0.42221 0.34959 0.75066 0.0
O64 O 0.41024 0.45788 0.62933 0.0
C65 C 0.9224 0.28654 0.93357 0.0
O66 O 0.96375 0.29559 0.9646 0.0
O67 O 0.03977 0.37051 0.84839 0.0
Zn68 Zn 0.98447 0.38312 0.87619 0.0
O69 O -0.00172 0.42106 0.96958 0.0
C70 C 0.00989 0.45194 0.75872 0.0
O71 O 0.05453 0.45995 0.77138 0.0
O72 O 0.92194 0.3182 0.89132 0.0
C73 C 0.02012 0.46788 0.972 0.0
O74 O 0.03679 0.49388 0.91287 0.0
C75 C 0.08358 0.39685 0.87137 0.0
O76 O 0.09431 0.43321 0.91617 0.0
O77 O 0.97378 0.42078 0.79633 0.0
C78 C 0.53082 0.03381 0.25862 0.0
C79 C 0.55062 0.03148 0.20439 0.0
C80 C 0.50319 0.03325 0.31891 0.0
C81 C 0.47642 0.02999 0.36775 0.0
C82 C 0.51793 0.54125 0.42528 0.0
C83 C 0.54005 0.56103 0.37101 0.0
C84 C 0.49091 0.51358 0.48562 0.0
C85 C 0.46746 0.48675 0.53449 0.0
C86 C -0.00115 0.50171 0.65284 0.0
C87 C 0.00217 0.4782 0.70166 0.0
C88 C -0.00169 0.52877 0.59248 0.0
C89 C 0.00073 0.55088 0.53815 0.0
C90 C 0.51885 0.00925 0.81894 0.0
C91 C 0.54565 0.01258 0.86778 0.0
C92 C 0.4912 0.00861 0.75862 0.0
C93 C 0.47141 0.01091 0.70436 0.0
C94 C 0.53099 0.52849 0.98571 0.0
C95 C 0.55446 0.55531 0.03452 0.0
C96 C 0.50396 0.50089 0.92539 0.0
C97 C 0.48184 0.48118 0.87114 0.0
C98 C 0.02448 0.51439 0.09244 0.0
C99 C 0.02203 0.49226 0.03817 0.0
C100 C 0.02393 0.54143 0.15276 0.0
C101 C 0.02056 0.5649 0.20154 0.0
C102 C 0.64947 0.80377 0.15709 0.0
C103 C 0.64397 0.7648 0.17777 0.0
C104 C 0.65351 0.84878 0.13464 0.0
C105 C 0.65499 0.88683 0.11843 0.0
C106 C 0.86668 0.6594 0.32392 0.0
C107 C 0.90015 0.65391 0.34454 0.0
C108 C 0.82578 0.66351 0.30148 0.0
C109 C 0.78929 0.66506 0.2852 0.0
C110 C 0.18307 0.83641 0.46869 0.0
C111 C 0.14506 0.79989 0.45233 0.0
C112 C 0.22811 0.87728 0.49119 0.0
C113 C 0.26714 0.91067 0.51179 0.0
C114 C 0.37293 0.2386 0.6586 0.0
C115 C 0.37827 0.27752 0.67914 0.0
C116 C 0.36909 0.19369 0.63616 0.0
C117 C 0.36775 0.15575 0.61983 0.0
C118 C 0.15551 0.38318 0.82464 0.0
C119 C 0.12206 0.38871 0.8452 0.0
C120 C 0.19641 0.37905 0.80226 0.0
C121 C 0.23291 0.3775 0.78604 0.0
C122 C 0.83895 0.20659 0.96912 0.0
C123 C 0.87699 0.24312 0.95279 0.0
C124 C 0.79391 0.16565 0.99156 0.0
C125 C 0.7549 0.13217 0.01211 0.0
loop_
_geom_bond_atom_site_label_1
_geom_bond_atom_site_label_2
_geom_bond_distance
_geom_bond_site_symmetry_2
_ccdc_geom_bond_type
C0 O1 1.160 . S
C0 O7 1.185 . S
O1 C0 1.160 . S
O2 Zn3 1.899 . S
O2 C10 1.284 . S
Zn3 O2 1.899 . S
Zn3 O4 2.032 . S
Zn3 O7 2.086 1_545 S
Zn3 O12 1.977 1_544 S
O4 Zn3 2.032 . S
O4 C8 1.278 . S
C5 O6 1.203 . S
C5 O12 1.267 1_545 S
O6 C5 1.203 . S
O7 C0 1.185 . S
O7 Zn3 2.086 1_565 S
C8 O4 1.278 . S
C8 O9 1.211 . S
O9 C8 1.211 . S
C10 O2 1.284 . S
C10 O11 1.273 . S
O11 C10 1.273 . S
O12 Zn3 1.977 1_566 S
O12 C5 1.267 1_565 S
C13 O14 1.160 . S
C13 O20 1.185 . S
O14 C13 1.160 . S
O15 Zn16 1.899 . S
O15 C23 1.284 . S
Zn16 O15 1.899 . S
Zn16 O17 2.032 . S
Zn16 O20 2.086 . S
Zn16 O25 1.977 . S
O17 Zn16 2.032 . S
O17 C21 1.278 . S
C18 O19 1.203 . S
C18 O25 1.267 . S
O19 C18 1.203 . S
O20 C13 1.185 . S
O20 Zn16 2.086 . S
C21 O17 1.278 . S
C21 O22 1.211 . S
O22 C21 1.211 . S
C23 O15 1.284 . S
C23 O24 1.273 . S
O24 C23 1.273 . S
O25 Zn16 1.977 . S
O25 C18 1.267 . S
C26 O27 1.160 . S
C26 O33 1.185 . S
O27 C26 1.160 . S
O28 Zn29 1.899 1_655 S
O28 C36 1.284 . S
Zn29 O28 1.899 1_455 S
Zn29 O30 2.032 . S
Zn29 O33 2.086 . S
Zn29 O38 1.977 . S
O30 Zn29 2.032 . S
O30 C34 1.278 . S
C31 O32 1.203 1_455 S
C31 O38 1.267 . S
O32 C31 1.203 1_655 S
O33 C26 1.185 . S
O33 Zn29 2.086 . S
C34 O30 1.278 . S
C34 O35 1.211 1_455 S
O35 C34 1.211 1_655 S
C36 O28 1.284 . S
C36 O37 1.273 . S
O37 C36 1.273 . S
O38 Zn29 1.977 . S
O38 C31 1.267 . S
C39 O40 1.160 . S
C39 O46 1.185 . S
O40 C39 1.160 . S
O41 Zn42 1.899 1_565 S
O41 C49 1.284 . S
Zn42 O41 1.899 1_545 S
Zn42 O43 2.032 . S
Zn42 O46 2.086 . S
Zn42 O51 1.977 . S
O43 Zn42 2.032 . S
O43 C47 1.278 . S
C44 O45 1.203 1_545 S
C44 O51 1.267 . S
O45 C44 1.203 1_565 S
O46 C39 1.185 . S
O46 Zn42 2.086 . S
C47 O43 1.278 . S
C47 O48 1.211 . S
O48 C47 1.211 . S
C49 O41 1.284 . S
C49 O50 1.273 . S
O50 C49 1.273 . S
O51 Zn42 1.977 . S
O51 C44 1.267 . S
C52 O53 1.160 . S
C52 O59 1.185 . S
O53 C52 1.160 . S
O54 Zn55 1.899 . S
O54 C62 1.284 . S
Zn55 O54 1.899 . S
Zn55 O56 2.032 . S
Zn55 O59 2.086 . S
Zn55 O64 1.977 . S
O56 Zn55 2.032 . S
O56 C60 1.278 . S
C57 O58 1.203 . S
C57 O64 1.267 . S
O58 C57 1.203 . S
O59 C52 1.185 . S
O59 Zn55 2.086 . S
C60 O56 1.278 . S
C60 O61 1.211 . S
O61 C60 1.211 . S
C62 O54 1.284 . S
C62 O63 1.273 . S
O63 C62 1.273 . S
O64 Zn55 1.977 . S
O64 C57 1.267 . S
C65 O66 1.160 . S
C65 O72 1.185 . S
O66 C65 1.160 . S
O67 Zn68 1.899 . S
O67 C75 1.284 . S
Zn68 O67 1.899 . S
Zn68 O69 2.032 . S
Zn68 O72 2.086 1_455 S
Zn68 O77 1.977 1_455 S
O69 Zn68 2.032 . S
O69 C73 1.278 . S
C70 O71 1.203 . S
C70 O77 1.267 1_455 S
O71 C70 1.203 . S
O72 C65 1.185 . S
O72 Zn68 2.086 1_655 S
C73 O69 1.278 . S
C73 O74 1.211 . S
O74 C73 1.211 . S
C75 O67 1.284 . S
C75 O76 1.273 . S
O76 C75 1.273 . S
O77 Zn68 1.977 1_655 S
O77 C70 1.267 1_655 S
C78 C79 1.170 . S
C78 C80 1.380 . S
C79 C78 1.170 . S
C80 C78 1.380 . S
C80 C81 1.170 . S
C81 C80 1.170 . S
C82 C83 1.170 . S
C82 C84 1.380 . S
C83 C82 1.170 . S
C84 C82 1.380 . S
C84 C85 1.170 . S
C85 C84 1.170 . S
C86 C87 1.170 . S
C86 C88 1.380 . S
C87 C86 1.170 . S
C88 C86 1.380 . S
C88 C89 1.170 . S
C89 C88 1.170 . S
C90 C91 1.170 . S
C90 C92 1.380 . S
C91 C90 1.170 . S
C92 C90 1.380 . S
C92 C93 1.170 . S
C93 C92 1.170 . S
C94 C95 1.170 1_556 S
C94 C96 1.380 . S
C95 C94 1.170 1_554 S
C96 C94 1.380 . S
C96 C97 1.170 . S
C97 C96 1.170 . S
C98 C99 1.170 . S
C98 C100 1.380 . S
C99 C98 1.170 . S
C100 C98 1.380 . S
C100 C101 1.170 . S
C101 C100 1.170 . S
C102 C103 1.170 . S
C102 C104 1.380 . S
C103 C102 1.170 . S
C104 C102 1.380 . S
C104 C105 1.170 . S
C105 C104 1.170 . S
C106 C107 1.170 . S
C106 C108 1.380 . S
C107 C106 1.170 . S
C108 C106 1.380 . S
C108 C109 1.170 . S
C109 C108 1.170 . S
C110 C111 1.170 . S
C110 C112 1.380 . S
C111 C110 1.170 . S
C112 C110 1.380 . S
C112 C113 1.170 . S
C113 C112 1.170 . S
C114 C115 1.170 . S
C114 C116 1.380 . S
C115 C114 1.170 . S
C116 C114 1.380 . S
C116 C117 1.170 . S
C117 C116 1.170 . S
C118 C119 1.170 . S
C118 C120 1.380 . S
C119 C118 1.170 . S
C120 C118 1.380 . S
C120 C121 1.170 . S
C121 C120 1.170 . S
C122 C123 1.170 . S
C122 C124 1.380 . S
C123 C122 1.170 . S
C124 C122 1.380 . S
C124 C125 1.170 1_556 S
C125 C124 1.170 1_554 S
C79 C8 1.386 . S
C81 C44 1.407 . S
C83 C21 1.379 . S
C85 C57 1.424 . S
C87 C70 1.395 . S
C89 C34 1.403 . S
C91 C5 1.400 . S
C93 C47 1.394 . S
C95 C18 1.426 . S
C97 C60 1.389 . S
C99 C73 1.381 1_554 S
C101 C31 1.425 . S
C103 C23 1.447 . S
C105 C0 1.422 . S
C107 C36 1.439 . S
C109 C13 1.432 . S
C111 C26 1.425 . S
C113 C49 1.445 . S
C115 C62 1.439 . S
C117 C39 1.435 . S
C119 C75 1.431 . S
C121 C52 1.443 . S
C123 C65 1.421 . S
C125 C10 1.448 . S
