# Generated by pormake.
# Topology vby, (6)-cn, num edge types: 1
# Building blocks:
#     Node 0, Type 0, BuildingBlock: LEVNOQ01_clean_sbu_1, # of connection points: 6
#     Node 1, Type 0, BuildingBlock: LEVNOQ01_clean_sbu_1, # of connection points: 6
#     Node 2, Type 0, BuildingBlock: LEVNOQ01_clean_sbu_1, # of connection points: 6
#     Node 3, Type 0, BuildingBlock: LEVNOQ01_clean_sbu_1, # of connection points: 6
#     Node 4, Type 0, BuildingBlock: LEVNOQ01_clean_sbu_1, # of connection points: 6
#     Node 5, Type 0, BuildingBlock: LEVNOQ01_clean_sbu_1, # of connection points: 6
#     Node 6, Type 0, BuildingBlock: LEVNOQ01_clean_sbu_1, # of connection points: 6
#     Node 7, Type 0, BuildingBlock: LEVNOQ01_clean_sbu_1, # of connection points: 6
#     Edge 8, Type (0, 0), None
#     Edge 9, Type (0, 0), None
#     Edge 10, Type (0, 0), None
#     Edge 11, Type (0, 0), None
#     Edge 12, Type (0, 0), None
#     Edge 13, Type (0, 0), None
#     Edge 14, Type (0, 0), None
#     Edge 15, Type (0, 0), None
#     Edge 16, Type (0, 0), None
#     Edge 17, Type (0, 0), None
#     Edge 18, Type (0, 0), None
#     Edge 19, Type (0, 0), None
#     Edge 20, Type (0, 0), None
#     Edge 21, Type (0, 0), None
#     Edge 22, Type (0, 0), None
#     Edge 23, Type (0, 0), None
#     Edge 24, Type (0, 0), None
#     Edge 25, Type (0, 0), None
#     Edge 26, Type (0, 0), None
#     Edge 27, Type (0, 0), None
#     Edge 28, Type (0, 0), None
#     Edge 29, Type (0, 0), None
#     Edge 30, Type (0, 0), None
#     Edge 31, Type (0, 0), None
# Relax obj value: 0.086
# Max RMSD: 0.126
# Mean RMSD: 0.126
data_MOF--net-vby--node1-LEVNOQ01_clean_sbu_1--edge1-none
_symmetry_space_group_name_H-M    P1
_symmetry_Int_Tables_number       1
_symmetry_cell_setting            triclinic
loop_
_symmetry_equiv_pos_as_xyz
'x, y, z'
_cell_length_a     8.1443378
_cell_length_b     29.533111
_cell_length_c     15.253082
_cell_angle_alpha  90.144547
_cell_angle_beta   89.96889
_cell_angle_gamma 89.991727
loop_
_atom_site_label
_atom_site_type_symbol
_atom_site_fract_x
_atom_site_fract_y
_atom_site_fract_z
_atom_type_partial_charge
O0 O 0.63633 0.39744 0.89509 0.0
Mg1 Mg 0.8655 0.38569 0.85163 0.0
O2 O 0.74648 0.35563 -0.00136 0.0
Mg3 Mg 0.03822 0.36331 -0.02752 0.0
O4 O 0.01943 0.33548 0.81826 0.0
O5 O 0.7708 0.34403 0.75863 0.0
O6 O 0.32927 0.37065 0.95756 0.0
O7 O 0.10815 0.28688 0.01001 0.0
Mg8 Mg 0.27438 0.35676 0.16315 0.0
O9 O 0.06964 0.38446 0.11636 0.0
O10 O 0.4608 0.3784 0.08657 0.0
O11 O 0.24637 0.2872 0.13783 0.0
O12 O 0.14299 0.39426 0.25476 0.0
C13 C -0.04071 0.4668 0.87472 0.0
C14 C 0.62086 0.37494 -0.03669 0.0
C15 C 0.91609 0.32805 0.75372 0.0
C16 C 0.46109 0.37452 0.00423 0.0
C17 C 0.1913 0.26672 0.07057 0.0
C18 C 0.03196 0.39682 0.19523 0.0
O19 O 0.9427 0.44634 0.80269 0.0
O20 O -0.01148 0.44398 0.94462 0.0
O21 O 0.26399 0.58659 0.89522 0.0
Mg22 Mg 0.03478 0.59762 0.85179 0.0
O23 O 0.15114 0.62782 -0.0007 0.0
Mg24 Mg 0.85997 0.61989 -0.02745 0.0
O25 O 0.87771 0.64682 0.81811 0.0
O26 O 0.12736 0.63956 0.75882 0.0
O27 O 0.56924 0.6124 0.95808 0.0
O28 O 0.79048 0.69656 0.00969 0.0
Mg29 Mg 0.62662 0.62834 0.16371 0.0
O30 O 0.82894 0.59908 0.11616 0.0
O31 O 0.43698 0.60817 0.08758 0.0
O32 O 0.65976 0.69767 0.13973 0.0
O33 O 0.75395 0.58953 0.25419 0.0
C34 C 0.94178 0.51625 0.87479 0.0
C35 C 0.27773 0.60888 -0.03599 0.0
C36 C -0.01971 0.65417 0.75321 0.0
C37 C 0.4372 0.60995 0.005 0.0
C38 C 0.71156 0.71744 0.07115 0.0
C39 C 0.86425 0.58573 0.19455 0.0
O40 O -0.03931 0.53658 0.80296 0.0
O41 O 0.91022 0.53918 0.94451 0.0
O42 O 0.24534 0.69366 0.27914 0.0
Mg43 Mg 0.27418 0.62408 0.25428 0.0
O44 O 0.10813 0.69387 0.40731 0.0
Mg45 Mg 0.0383 0.61742 0.44496 0.0
O46 O 0.07013 0.59597 0.3012 0.0
O47 O 0.14355 0.58653 0.16259 0.0
O48 O -0.01173 0.53682 0.47347 0.0
O49 O 0.74671 0.62509 0.41887 0.0
Mg50 Mg 0.86414 0.59507 0.56686 0.0
O51 O 0.01967 0.64504 0.59902 0.0
O52 O 0.94083 0.53432 0.61537 0.0
O53 O 0.63558 0.58353 0.5226 0.0
O54 O 0.77051 0.63763 0.65887 0.0
C55 C 0.46121 0.6064 0.41314 0.0
C56 C 0.19069 0.7141 0.34656 0.0
C57 C 0.03248 0.58391 0.22217 0.0
C58 C -0.04175 0.51394 0.54327 0.0
C59 C 0.6208 0.60588 0.45416 0.0
C60 C 0.91654 0.65313 0.66343 0.0
O61 O 0.46119 0.60277 0.33076 0.0
O62 O 0.32923 0.61007 0.45982 0.0
O63 O 0.26275 0.39433 0.52203 0.0
Mg64 Mg 0.0336 0.3831 0.56549 0.0
O65 O 0.1503 0.35299 0.41808 0.0
Mg66 Mg 0.85904 0.36094 0.44484 0.0
O67 O 0.8765 0.33395 0.59922 0.0
O68 O 0.12669 0.34088 0.65793 0.0
O69 O 0.56825 0.36846 0.45932 0.0
O70 O 0.78957 0.28427 0.40757 0.0
Mg71 Mg 0.62619 0.35255 0.25365 0.0
O72 O 0.82827 0.38185 0.30128 0.0
O73 O 0.43631 0.37266 0.32979 0.0
O74 O 0.65938 0.2832 0.27746 0.0
O75 O 0.75351 0.39145 0.16323 0.0
C76 C 0.94076 0.46449 0.54299 0.0
C77 C 0.27674 0.37199 0.45332 0.0
C78 C -0.0206 0.32649 0.66386 0.0
C79 C 0.43633 0.37089 0.41237 0.0
C80 C 0.71091 0.2634 0.34604 0.0
C81 C 0.86368 0.39522 0.22289 0.0
O82 O -0.04054 0.44407 0.61473 0.0
O83 O 0.9093 0.44164 0.47316 0.0
O84 O 0.13634 0.89744 0.89509 0.0
Mg85 Mg 0.36551 0.88569 0.85163 0.0
O86 O 0.24648 0.85563 -0.00136 0.0
Mg87 Mg 0.53822 0.86331 -0.02752 0.0
O88 O 0.51943 0.83548 0.81826 0.0
O89 O 0.2708 0.84403 0.75863 0.0
O90 O 0.82928 0.87065 0.95756 0.0
O91 O 0.60817 0.78689 0.01001 0.0
Mg92 Mg 0.77439 0.85677 0.16315 0.0
O93 O 0.56964 0.88446 0.11636 0.0
O94 O -0.0392 0.87842 0.08656 0.0
O95 O 0.74642 0.7872 0.13782 0.0
O96 O 0.64299 0.89426 0.25476 0.0
C97 C 0.45929 0.9668 0.87472 0.0
C98 C 0.12087 0.87495 -0.03669 0.0
C99 C 0.41609 0.82805 0.75372 0.0
C100 C -0.03891 0.87452 0.00423 0.0
C101 C 0.69137 0.76673 0.07056 0.0
C102 C 0.53196 0.89682 0.19522 0.0
O103 O 0.44271 0.94634 0.80269 0.0
O104 O 0.48852 0.94398 0.94462 0.0
O105 O 0.76398 0.08659 0.89522 0.0
Mg106 Mg 0.53477 0.09762 0.85179 0.0
O107 O 0.65113 0.12781 -0.0007 0.0
Mg108 Mg 0.35997 0.11989 -0.02744 0.0
O109 O 0.37771 0.14682 0.81811 0.0
O110 O 0.62736 0.13956 0.75883 0.0
O111 O 0.06924 0.1124 0.95808 0.0
O112 O 0.29046 0.19655 0.00969 0.0
Mg113 Mg 0.12661 0.12833 0.16371 0.0
O114 O 0.32894 0.09908 0.11616 0.0
O115 O 0.93698 0.10816 0.08758 0.0
O116 O 0.15971 0.19766 0.13973 0.0
O117 O 0.25395 0.08952 0.25419 0.0
C118 C 0.44177 0.01625 0.87479 0.0
C119 C 0.77772 0.10887 -0.03599 0.0
C120 C 0.48029 0.15417 0.75321 0.0
C121 C 0.9372 0.10995 0.005 0.0
C122 C 0.2115 0.21743 0.07115 0.0
C123 C 0.36425 0.08572 0.19455 0.0
O124 O 0.46068 0.03658 0.80296 0.0
O125 O 0.41021 0.03918 0.94451 0.0
O126 O 0.74538 0.19365 0.27914 0.0
Mg127 Mg 0.7742 0.12407 0.25428 0.0
O128 O 0.60815 0.19387 0.40731 0.0
Mg129 Mg 0.5383 0.11742 0.44496 0.0
O130 O 0.57013 0.09597 0.3012 0.0
O131 O 0.64355 0.08652 0.16259 0.0
O132 O 0.48827 0.03682 0.47347 0.0
O133 O 0.24671 0.12509 0.41887 0.0
Mg134 Mg 0.36414 0.09507 0.56686 0.0
O135 O 0.51967 0.14504 0.59902 0.0
O136 O 0.44084 0.03432 0.61537 0.0
O137 O 0.13559 0.08353 0.5226 0.0
O138 O 0.27052 0.13763 0.65886 0.0
C139 C -0.03879 0.10639 0.41314 0.0
C140 C 0.69075 0.21409 0.34657 0.0
C141 C 0.53248 0.08391 0.22217 0.0
C142 C 0.45825 0.01394 0.54327 0.0
C143 C 0.1208 0.10588 0.45416 0.0
C144 C 0.41654 0.15313 0.66343 0.0
O145 O -0.03881 0.10276 0.33076 0.0
O146 O 0.82924 0.11007 0.45982 0.0
O147 O 0.76273 0.89433 0.52203 0.0
Mg148 Mg 0.53359 0.8831 0.56549 0.0
O149 O 0.6503 0.85299 0.41808 0.0
Mg150 Mg 0.35904 0.86094 0.44484 0.0
O151 O 0.3765 0.83394 0.59922 0.0
O152 O 0.62668 0.84088 0.65793 0.0
O153 O 0.06825 0.86846 0.45931 0.0
O154 O 0.28955 0.78427 0.40757 0.0
Mg155 Mg 0.12617 0.85256 0.25365 0.0
O156 O 0.32826 0.88185 0.30128 0.0
O157 O 0.9363 0.87267 0.32979 0.0
O158 O 0.15934 0.78321 0.27746 0.0
O159 O 0.25351 0.89146 0.16323 0.0
C160 C 0.44075 0.96449 0.54299 0.0
C161 C 0.77674 0.87199 0.45332 0.0
C162 C 0.47939 0.82649 0.66386 0.0
C163 C 0.93632 0.8709 0.41237 0.0
C164 C 0.21085 0.76341 0.34604 0.0
C165 C 0.36368 0.89522 0.22288 0.0
O166 O 0.45945 0.94407 0.61474 0.0
O167 O 0.4093 0.94164 0.47316 0.0
loop_
_geom_bond_atom_site_label_1
_geom_bond_atom_site_label_2
_geom_bond_distance
_geom_bond_site_symmetry_2
_ccdc_geom_bond_type
O0 Mg1 1.990 . S
O0 C14 1.253 . S
Mg1 O0 1.990 . S
Mg1 O4 2.180 1_655 S
Mg1 O5 2.117 . S
Mg1 O19 2.030 . S
O2 Mg3 2.072 1_655 S
O2 C14 1.260 1_554 S
Mg3 O2 2.072 1_455 S
Mg3 O4 2.098 1_554 S
Mg3 O6 2.079 1_554 S
Mg3 O7 2.072 1_554 S
Mg3 O9 2.099 . S
Mg3 O20 2.079 . S
O4 Mg1 2.180 1_455 S
O4 Mg3 2.098 1_556 S
O4 C15 1.279 . S
O5 Mg1 2.117 . S
O5 C15 1.250 1_655 S
O6 Mg3 2.079 1_556 S
O6 C16 1.264 1_556 S
O7 Mg3 2.072 1_556 S
O7 C17 1.260 1_556 S
Mg8 O9 2.180 . S
Mg8 O10 2.030 . S
Mg8 O11 1.990 . S
Mg8 O12 2.117 . S
O9 Mg3 2.099 . S
O9 Mg8 2.180 . S
O9 C18 1.279 . S
O10 Mg8 2.030 . S
O10 C16 1.248 . S
O11 Mg8 1.990 . S
O11 C17 1.253 . S
O12 Mg8 2.117 . S
O12 C18 1.250 . S
C13 O19 1.248 . S
C13 O20 1.264 1_656 S
C14 O0 1.253 . S
C14 O2 1.260 1_556 S
C15 O4 1.279 . S
C15 O5 1.250 1_455 S
C16 O6 1.264 1_554 S
C16 O10 1.248 . S
C17 O7 1.260 1_554 S
C17 O11 1.253 . S
C18 O9 1.279 . S
C18 O12 1.250 . S
O19 Mg1 2.030 . S
O19 C13 1.248 . S
O20 Mg3 2.079 . S
O20 C13 1.264 1_454 S
O21 Mg22 1.990 . S
O21 C35 1.253 . S
Mg22 O21 1.990 . S
Mg22 O25 2.180 1_455 S
Mg22 O26 2.117 . S
Mg22 O40 2.030 . S
O23 Mg24 2.072 1_455 S
O23 C35 1.260 1_554 S
Mg24 O23 2.072 1_655 S
Mg24 O25 2.098 1_554 S
Mg24 O27 2.079 1_554 S
Mg24 O28 2.072 1_554 S
Mg24 O30 2.099 . S
Mg24 O41 2.079 . S
O25 Mg22 2.180 1_655 S
O25 Mg24 2.098 1_556 S
O25 C36 1.279 . S
O26 Mg22 2.117 . S
O26 C36 1.250 1_455 S
O27 Mg24 2.079 1_556 S
O27 C37 1.264 1_556 S
O28 Mg24 2.072 1_556 S
O28 C38 1.260 1_556 S
Mg29 O30 2.180 . S
Mg29 O31 2.030 . S
Mg29 O32 1.990 . S
Mg29 O33 2.117 . S
O30 Mg24 2.099 . S
O30 Mg29 2.180 . S
O30 C39 1.279 . S
O31 Mg29 2.030 . S
O31 C37 1.248 . S
O32 Mg29 1.990 . S
O32 C38 1.253 . S
O33 Mg29 2.117 . S
O33 C39 1.250 . S
C34 O40 1.248 . S
C34 O41 1.264 1_456 S
C35 O21 1.253 . S
C35 O23 1.260 1_556 S
C36 O25 1.279 . S
C36 O26 1.250 1_655 S
C37 O27 1.264 1_554 S
C37 O31 1.248 . S
C38 O28 1.260 1_554 S
C38 O32 1.253 . S
C39 O30 1.279 . S
C39 O33 1.250 . S
O40 Mg22 2.030 . S
O40 C34 1.248 . S
O41 Mg24 2.079 . S
O41 C34 1.264 1_654 S
O42 Mg43 1.990 . S
O42 C56 1.253 . S
Mg43 O42 1.990 . S
Mg43 O46 2.180 . S
Mg43 O47 2.117 . S
Mg43 O61 2.030 . S
O44 Mg45 2.072 . S
O44 C56 1.260 . S
Mg45 O44 2.072 . S
Mg45 O46 2.099 . S
Mg45 O48 2.079 . S
Mg45 O49 2.072 1_455 S
Mg45 O51 2.099 . S
Mg45 O62 2.079 . S
O46 Mg43 2.180 . S
O46 Mg45 2.099 . S
O46 C57 1.279 . S
O47 Mg43 2.117 . S
O47 C57 1.250 . S
O48 Mg45 2.079 . S
O48 C58 1.264 1_455 S
O49 Mg45 2.072 1_655 S
O49 C59 1.260 . S
Mg50 O51 2.180 1_655 S
Mg50 O52 2.030 . S
Mg50 O53 1.990 . S
Mg50 O54 2.117 . S
O51 Mg45 2.099 . S
O51 Mg50 2.180 1_455 S
O51 C60 1.279 . S
O52 Mg50 2.030 . S
O52 C58 1.248 . S
O53 Mg50 1.990 . S
O53 C59 1.253 . S
O54 Mg50 2.117 . S
O54 C60 1.250 1_655 S
C55 O61 1.248 . S
C55 O62 1.264 . S
C56 O42 1.253 . S
C56 O44 1.260 . S
C57 O46 1.279 . S
C57 O47 1.250 . S
C58 O48 1.264 1_655 S
C58 O52 1.248 . S
C59 O49 1.260 . S
C59 O53 1.253 . S
C60 O51 1.279 . S
C60 O54 1.250 1_455 S
O61 Mg43 2.030 . S
O61 C55 1.248 . S
O62 Mg45 2.079 . S
O62 C55 1.264 . S
O63 Mg64 1.990 . S
O63 C77 1.253 . S
Mg64 O63 1.990 . S
Mg64 O67 2.180 1_455 S
Mg64 O68 2.117 . S
Mg64 O82 2.030 . S
O65 Mg66 2.072 1_455 S
O65 C77 1.260 . S
Mg66 O65 2.072 1_655 S
Mg66 O67 2.099 . S
Mg66 O69 2.079 . S
Mg66 O70 2.072 . S
Mg66 O72 2.099 . S
Mg66 O83 2.079 . S
O67 Mg64 2.180 1_655 S
O67 Mg66 2.099 . S
O67 C78 1.279 . S
O68 Mg64 2.117 . S
O68 C78 1.250 1_455 S
O69 Mg66 2.079 . S
O69 C79 1.264 . S
O70 Mg66 2.072 . S
O70 C80 1.260 . S
Mg71 O72 2.180 . S
Mg71 O73 2.030 . S
Mg71 O74 1.990 . S
Mg71 O75 2.117 . S
O72 Mg66 2.099 . S
O72 Mg71 2.180 . S
O72 C81 1.279 . S
O73 Mg71 2.030 . S
O73 C79 1.248 . S
O74 Mg71 1.990 . S
O74 C80 1.253 . S
O75 Mg71 2.117 . S
O75 C81 1.250 . S
C76 O82 1.248 . S
C76 O83 1.264 1_455 S
C77 O63 1.253 . S
C77 O65 1.260 . S
C78 O67 1.279 . S
C78 O68 1.250 1_655 S
C79 O69 1.264 . S
C79 O73 1.248 . S
C80 O70 1.260 . S
C80 O74 1.253 . S
C81 O72 1.279 . S
C81 O75 1.250 . S
O82 Mg64 2.030 . S
O82 C76 1.248 . S
O83 Mg66 2.079 . S
O83 C76 1.264 1_655 S
O84 Mg85 1.990 . S
O84 C98 1.253 . S
Mg85 O84 1.990 . S
Mg85 O88 2.180 . S
Mg85 O89 2.117 . S
Mg85 O103 2.030 . S
O86 Mg87 2.072 . S
O86 C98 1.260 1_554 S
Mg87 O86 2.072 . S
Mg87 O88 2.098 1_554 S
Mg87 O90 2.079 1_554 S
Mg87 O91 2.072 1_554 S
Mg87 O93 2.099 . S
Mg87 O104 2.079 . S
O88 Mg85 2.180 . S
O88 Mg87 2.098 1_556 S
O88 C99 1.279 . S
O89 Mg85 2.117 . S
O89 C99 1.250 . S
O90 Mg87 2.079 1_556 S
O90 C100 1.264 1_656 S
O91 Mg87 2.072 1_556 S
O91 C101 1.260 1_556 S
Mg92 O93 2.180 . S
Mg92 O94 2.030 1_655 S
Mg92 O95 1.990 . S
Mg92 O96 2.117 . S
O93 Mg87 2.099 . S
O93 Mg92 2.180 . S
O93 C102 1.279 . S
O94 Mg92 2.030 1_455 S
O94 C100 1.248 . S
O95 Mg92 1.990 . S
O95 C101 1.253 . S
O96 Mg92 2.117 . S
O96 C102 1.250 . S
C97 O103 1.248 . S
C97 O104 1.264 1_556 S
C98 O84 1.253 . S
C98 O86 1.260 1_556 S
C99 O88 1.279 . S
C99 O89 1.250 . S
C100 O90 1.264 1_454 S
C100 O94 1.248 . S
C101 O91 1.260 1_554 S
C101 O95 1.253 . S
C102 O93 1.279 . S
C102 O96 1.250 . S
O103 Mg85 2.030 . S
O103 C97 1.248 . S
O104 Mg87 2.079 . S
O104 C97 1.264 1_554 S
O105 Mg106 1.990 . S
O105 C119 1.253 . S
Mg106 O105 1.990 . S
Mg106 O109 2.180 . S
Mg106 O110 2.117 . S
Mg106 O124 2.030 . S
O107 Mg108 2.072 . S
O107 C119 1.260 1_554 S
Mg108 O107 2.072 . S
Mg108 O109 2.098 1_554 S
Mg108 O111 2.079 1_554 S
Mg108 O112 2.072 1_554 S
Mg108 O114 2.099 . S
Mg108 O125 2.079 . S
O109 Mg106 2.180 . S
O109 Mg108 2.098 1_556 S
O109 C120 1.279 . S
O110 Mg106 2.117 . S
O110 C120 1.250 . S
O111 Mg108 2.079 1_556 S
O111 C121 1.264 1_456 S
O112 Mg108 2.072 1_556 S
O112 C122 1.260 1_556 S
Mg113 O114 2.180 . S
Mg113 O115 2.030 1_455 S
Mg113 O116 1.990 . S
Mg113 O117 2.117 . S
O114 Mg108 2.099 . S
O114 Mg113 2.180 . S
O114 C123 1.279 . S
O115 Mg113 2.030 1_655 S
O115 C121 1.248 . S
O116 Mg113 1.990 . S
O116 C122 1.253 . S
O117 Mg113 2.117 . S
O117 C123 1.250 . S
C118 O124 1.248 . S
C118 O125 1.264 1_556 S
C119 O105 1.253 . S
C119 O107 1.260 1_556 S
C120 O109 1.279 . S
C120 O110 1.250 . S
C121 O111 1.264 1_654 S
C121 O115 1.248 . S
C122 O112 1.260 1_554 S
C122 O116 1.253 . S
C123 O114 1.279 . S
C123 O117 1.250 . S
O124 Mg106 2.030 . S
O124 C118 1.248 . S
O125 Mg108 2.079 . S
O125 C118 1.264 1_554 S
O126 Mg127 1.990 . S
O126 C140 1.253 . S
Mg127 O126 1.990 . S
Mg127 O130 2.180 . S
Mg127 O131 2.117 . S
Mg127 O145 2.030 1_655 S
O128 Mg129 2.072 . S
O128 C140 1.260 . S
Mg129 O128 2.072 . S
Mg129 O130 2.099 . S
Mg129 O132 2.079 . S
Mg129 O133 2.072 . S
Mg129 O135 2.099 . S
Mg129 O146 2.079 . S
O130 Mg127 2.180 . S
O130 Mg129 2.099 . S
O130 C141 1.279 . S
O131 Mg127 2.117 . S
O131 C141 1.250 . S
O132 Mg129 2.079 . S
O132 C142 1.264 . S
O133 Mg129 2.072 . S
O133 C143 1.260 . S
Mg134 O135 2.180 . S
Mg134 O136 2.030 . S
Mg134 O137 1.990 . S
Mg134 O138 2.117 . S
O135 Mg129 2.099 . S
O135 Mg134 2.180 . S
O135 C144 1.279 . S
O136 Mg134 2.030 . S
O136 C142 1.248 . S
O137 Mg134 1.990 . S
O137 C143 1.253 . S
O138 Mg134 2.117 . S
O138 C144 1.250 . S
C139 O145 1.248 . S
C139 O146 1.264 1_455 S
C140 O126 1.253 . S
C140 O128 1.260 . S
C141 O130 1.279 . S
C141 O131 1.250 . S
C142 O132 1.264 . S
C142 O136 1.248 . S
C143 O133 1.260 . S
C143 O137 1.253 . S
C144 O135 1.279 . S
C144 O138 1.250 . S
O145 Mg127 2.030 1_455 S
O145 C139 1.248 . S
O146 Mg129 2.079 . S
O146 C139 1.264 1_655 S
O147 Mg148 1.990 . S
O147 C161 1.253 . S
Mg148 O147 1.990 . S
Mg148 O151 2.180 . S
Mg148 O152 2.117 . S
Mg148 O166 2.030 . S
O149 Mg150 2.072 . S
O149 C161 1.260 . S
Mg150 O149 2.072 . S
Mg150 O151 2.099 . S
Mg150 O153 2.079 . S
Mg150 O154 2.072 . S
Mg150 O156 2.099 . S
Mg150 O167 2.079 . S
O151 Mg148 2.180 . S
O151 Mg150 2.099 . S
O151 C162 1.279 . S
O152 Mg148 2.117 . S
O152 C162 1.250 . S
O153 Mg150 2.079 . S
O153 C163 1.264 1_455 S
O154 Mg150 2.072 . S
O154 C164 1.260 . S
Mg155 O156 2.180 . S
Mg155 O157 2.030 1_455 S
Mg155 O158 1.990 . S
Mg155 O159 2.117 . S
O156 Mg150 2.099 . S
O156 Mg155 2.180 . S
O156 C165 1.279 . S
O157 Mg155 2.030 1_655 S
O157 C163 1.248 . S
O158 Mg155 1.990 . S
O158 C164 1.253 . S
O159 Mg155 2.117 . S
O159 C165 1.250 . S
C160 O166 1.248 . S
C160 O167 1.264 . S
C161 O147 1.253 . S
C161 O149 1.260 . S
C162 O151 1.279 . S
C162 O152 1.250 . S
C163 O153 1.264 1_655 S
C163 O157 1.248 . S
C164 O154 1.260 . S
C164 O158 1.253 . S
C165 O156 1.279 . S
C165 O159 1.250 . S
O166 Mg148 2.030 . S
O166 C160 1.248 . S
O167 Mg150 2.079 . S
O167 C160 1.264 . S
C16 C14 1.132 1_554 S
C35 C37 1.132 1_556 S
C59 C55 1.132 . S
C79 C77 1.132 . S
C100 C98 1.132 1_554 S
C121 C119 1.132 1_554 S
C143 C139 1.132 . S
C161 C163 1.132 . S
C34 C13 1.661 1_455 S
C76 C58 1.661 1_455 S
C97 C118 1.661 1_565 S
C142 C160 1.661 1_545 S
C17 C122 1.458 . S
C101 C38 1.458 . S
C56 C164 1.458 . S
C80 C140 1.458 . S
C18 C81 1.250 1_455 S
C39 C57 1.250 1_655 S
C36 C60 0.686 1_655 S
C78 C15 0.686 1_655 S
C102 C165 1.250 . S
C123 C141 1.250 . S
C120 C144 0.686 . S
C162 C99 0.686 . S
