# Generated by pormake.
# Topology sra, (4)-cn, num edge types: 1
# Building blocks:
#     Node 0, Type 0, BuildingBlock: GALJAG_clean_sbu_0, # of connection points: 4
#     Node 1, Type 0, BuildingBlock: GALJAG_clean_sbu_0, # of connection points: 4
#     Node 2, Type 0, BuildingBlock: GALJAG_clean_sbu_0, # of connection points: 4
#     Node 3, Type 0, BuildingBlock: GALJAG_clean_sbu_0, # of connection points: 4
#     Node 4, Type 0, BuildingBlock: GALJAG_clean_sbu_0, # of connection points: 4
#     Node 5, Type 0, BuildingBlock: GALJAG_clean_sbu_0, # of connection points: 4
#     Node 6, Type 0, BuildingBlock: GALJAG_clean_sbu_0, # of connection points: 4
#     Node 7, Type 0, BuildingBlock: GALJAG_clean_sbu_0, # of connection points: 4
#     Edge 8, Type (0, 0), BuildingBlock: EYOCIG_clean_linker_4, # of connection points: 2
#     Edge 9, Type (0, 0), BuildingBlock: EYOCIG_clean_linker_4, # of connection points: 2
#     Edge 10, Type (0, 0), BuildingBlock: EYOCIG_clean_linker_4, # of connection points: 2
#     Edge 11, Type (0, 0), BuildingBlock: EYOCIG_clean_linker_4, # of connection points: 2
#     Edge 12, Type (0, 0), BuildingBlock: EYOCIG_clean_linker_4, # of connection points: 2
#     Edge 13, Type (0, 0), BuildingBlock: EYOCIG_clean_linker_4, # of connection points: 2
#     Edge 14, Type (0, 0), BuildingBlock: EYOCIG_clean_linker_4, # of connection points: 2
#     Edge 15, Type (0, 0), BuildingBlock: EYOCIG_clean_linker_4, # of connection points: 2
#     Edge 16, Type (0, 0), BuildingBlock: EYOCIG_clean_linker_4, # of connection points: 2
#     Edge 17, Type (0, 0), BuildingBlock: EYOCIG_clean_linker_4, # of connection points: 2
#     Edge 18, Type (0, 0), BuildingBlock: EYOCIG_clean_linker_4, # of connection points: 2
#     Edge 19, Type (0, 0), BuildingBlock: EYOCIG_clean_linker_4, # of connection points: 2
#     Edge 20, Type (0, 0), BuildingBlock: EYOCIG_clean_linker_4, # of connection points: 2
#     Edge 21, Type (0, 0), BuildingBlock: EYOCIG_clean_linker_4, # of connection points: 2
#     Edge 22, Type (0, 0), BuildingBlock: EYOCIG_clean_linker_4, # of connection points: 2
#     Edge 23, Type (0, 0), BuildingBlock: EYOCIG_clean_linker_4, # of connection points: 2
# Relax obj value: 0.076
# Max RMSD: 0.110
# Mean RMSD: 0.110
data_MOF--net-sra--node1-GALJAG_clean_sbu_0--edge1-EYOCIG_clean_linker_4
_symmetry_space_group_name_H-M    P1
_symmetry_Int_Tables_number       1
_symmetry_cell_setting            triclinic
loop_
_symmetry_equiv_pos_as_xyz
'x, y, z'
_cell_length_a     22.239078
_cell_length_b     41.895513
_cell_length_c     25.259933
_cell_angle_alpha  89.996133
_cell_angle_beta   90.044914
_cell_angle_gamma 89.963317
loop_
_atom_site_label
_atom_site_type_symbol
_atom_site_fract_x
_atom_site_fract_y
_atom_site_fract_z
_atom_type_partial_charge
In0 In 0.0387 0.11223 0.1038 0.0
O1 O 0.03565 0.09446 0.01834 0.0
O2 O 0.03945 0.0598 0.0801 0.0
C3 C 0.03883 0.17587 0.0901 0.0
C4 C 0.92914 0.104 0.14663 0.0
C5 C 0.14898 0.10519 0.14627 0.0
O6 O 0.04057 0.15679 0.05148 0.0
O7 O 0.03695 0.16311 0.13521 0.0
O8 O 0.1018 0.10061 0.17295 0.0
O9 O 0.14081 0.11298 0.09866 0.0
C10 C 0.037 0.06537 0.03114 0.0
O11 O 0.97658 0.09733 0.17178 0.0
O12 O 0.93674 0.11467 0.10053 0.0
In13 In 0.03991 0.39859 0.10521 0.0
O14 O 0.04349 0.41631 0.01974 0.0
O15 O 0.03885 0.451 0.08138 0.0
C16 C 0.03989 0.33497 0.09107 0.0
C17 C 0.1493 0.40695 0.14854 0.0
C18 C 0.92956 0.40549 0.14751 0.0
O19 O 0.03798 0.35416 0.05261 0.0
O20 O 0.04188 0.34762 0.13628 0.0
O21 O 0.97671 0.40992 0.17435 0.0
O22 O 0.93777 0.39792 0.09983 0.0
C23 C 0.04176 0.44541 0.03246 0.0
O24 O 0.10175 0.41371 0.17339 0.0
O25 O 0.1419 0.39611 0.10252 0.0
In26 In 0.03929 0.89849 0.78406 0.0
O27 O 0.97726 0.91308 0.7157 0.0
O28 O 0.93732 0.89605 0.78704 0.0
C29 C 0.14962 0.90526 0.74176 0.0
C30 C 0.0373 0.94575 0.85599 0.0
C31 C 0.03957 0.83494 0.79893 0.0
O32 O 0.10248 0.90959 0.71485 0.0
O33 O 0.1414 0.89785 0.78952 0.0
O34 O 0.0413 0.85428 0.83719 0.0
O35 O 0.03763 0.8474 0.75358 0.0
C36 C 0.92978 0.90652 0.74079 0.0
O37 O 0.03586 0.91674 0.86922 0.0
O38 O 0.03999 0.95106 0.80697 0.0
In39 In 0.04021 0.61231 0.78539 0.0
O40 O 0.04321 0.59401 0.87053 0.0
O41 O 0.03975 0.55973 0.80818 0.0
C42 C 0.04042 0.67589 0.79982 0.0
C43 C 0.14959 0.60433 0.74206 0.0
C44 C 0.92966 0.60552 0.74346 0.0
O45 O 0.03917 0.65666 0.83824 0.0
O46 O 0.04161 0.66331 0.75455 0.0
O47 O 0.97664 0.60083 0.71656 0.0
O48 O 0.93815 0.61332 0.79102 0.0
C49 C 0.04205 0.565 0.85724 0.0
O50 O 0.10205 0.59805 0.71681 0.0
O51 O 0.14218 0.61447 0.78852 0.0
In52 In 0.53927 0.61216 0.60517 0.0
O53 O 0.47689 0.59782 0.67329 0.0
O54 O 0.43732 0.61465 0.60158 0.0
C55 C 0.64943 0.60535 0.64792 0.0
C56 C 0.53764 0.56477 0.53346 0.0
C57 C 0.53961 0.67572 0.59037 0.0
O58 O 0.6022 0.60094 0.67461 0.0
O59 O 0.64137 0.61284 0.60017 0.0
O60 O 0.54138 0.6564 0.55209 0.0
O61 O 0.53759 0.66323 0.6357 0.0
C62 C 0.42955 0.60434 0.64788 0.0
O63 O 0.53638 0.59377 0.52007 0.0
O64 O 0.53997 0.55956 0.58252 0.0
In65 In 0.54002 0.89839 0.60382 0.0
O66 O 0.60227 0.91298 0.67198 0.0
O67 O 0.64198 0.89618 0.60037 0.0
C68 C 0.42971 0.90518 0.64618 0.0
C69 C 0.54132 0.94551 0.53161 0.0
C70 C 0.54034 0.83478 0.58968 0.0
O71 O 0.47687 0.90987 0.67291 0.0
O72 O 0.43791 0.89739 0.59859 0.0
O73 O 0.5386 0.85396 0.55119 0.0
O74 O 0.54197 0.84744 0.63489 0.0
C75 C 0.64967 0.90655 0.64665 0.0
O76 O 0.54257 0.91647 0.51852 0.0
O77 O 0.53917 0.9509 0.58063 0.0
In78 In 0.53912 0.39853 0.28523 0.0
O79 O 0.47676 0.41373 0.21746 0.0
O80 O 0.43716 0.39612 0.28858 0.0
C81 C 0.64944 0.40557 0.24304 0.0
C82 C 0.53759 0.44514 0.35832 0.0
C83 C 0.5392 0.33482 0.29805 0.0
O84 O 0.6023 0.41039 0.21635 0.0
O85 O 0.64122 0.39755 0.29053 0.0
O86 O 0.54093 0.35371 0.33693 0.0
O87 O 0.53734 0.34781 0.2531 0.0
C88 C 0.4294 0.40697 0.2426 0.0
O89 O 0.53622 0.41601 0.37087 0.0
O90 O 0.53998 0.45086 0.30941 0.0
In91 In 0.53973 0.11199 0.28374 0.0
O92 O 0.60171 0.09727 0.21551 0.0
O93 O 0.6417 0.11419 0.28697 0.0
C94 C 0.42924 0.10506 0.24173 0.0
C95 C 0.54132 0.0651 0.35636 0.0
C96 C 0.53996 0.17565 0.29722 0.0
O97 O 0.47626 0.10015 0.21499 0.0
O98 O 0.43766 0.11314 0.28917 0.0
O99 O 0.53862 0.15661 0.33591 0.0
O100 O 0.54125 0.16283 0.25212 0.0
C101 C 0.6492 0.10374 0.24071 0.0
O102 O 0.54257 0.09419 0.3692 0.0
O103 O 0.53907 0.05955 0.30739 0.0
C104 C 0.03949 0.27228 0.08134 0.0
C105 C 0.0396 0.30099 0.08424 0.0
C106 C 0.0393 0.2386 0.08106 0.0
C107 C 0.03915 0.20988 0.08356 0.0
C108 C 0.04012 0.77227 0.80913 0.0
C109 C 0.03994 0.80098 0.8061 0.0
C110 C 0.04027 0.73859 0.80938 0.0
C111 C 0.04029 0.70987 0.80671 0.0
C112 C 0.54017 0.73839 0.58036 0.0
C113 C 0.53999 0.70968 0.58327 0.0
C114 C 0.54029 0.77207 0.58023 0.0
C115 C 0.54025 0.80079 0.58292 0.0
C116 C 0.53965 0.27206 0.3065 0.0
C117 C 0.53951 0.30079 0.30415 0.0
C118 C 0.53979 0.23838 0.30632 0.0
C119 C 0.53983 0.20966 0.30367 0.0
C120 C 0.31903 0.10128 0.20334 0.0
C121 C 0.36993 0.10278 0.2196 0.0
C122 C 0.25902 0.10131 0.18501 0.0
C123 C 0.20817 0.10286 0.16862 0.0
C124 C 0.75953 0.40934 0.20449 0.0
C125 C 0.70866 0.40785 0.22081 0.0
C126 C 0.8195 0.4093 0.18613 0.0
C127 C 0.87034 0.40777 0.16977 0.0
C128 C 0.2597 0.90892 0.70318 0.0
C129 C 0.20885 0.90746 0.71952 0.0
C130 C 0.31966 0.90891 0.68482 0.0
C131 C 0.37051 0.90743 0.66847 0.0
C132 C 0.75941 0.60169 0.68683 0.0
C133 C 0.70857 0.60314 0.67039 0.0
C134 C 0.81941 0.60174 0.70517 0.0
C135 C 0.87032 0.60325 0.72141 0.0
C136 C 0.75965 0.91173 0.68482 0.0
C137 C 0.70864 0.90976 0.66904 0.0
C138 C 0.81992 0.91172 0.70235 0.0
C139 C 0.8709 0.90975 0.71823 0.0
C140 C 0.31957 0.5993 0.68595 0.0
C141 C 0.37056 0.60122 0.67017 0.0
C142 C 0.25935 0.59929 0.70351 0.0
C143 C 0.20842 0.6012 0.71944 0.0
C144 C 0.75904 0.09858 0.20235 0.0
C145 C 0.70807 0.10053 0.21819 0.0
C146 C 0.81926 0.09865 0.18481 0.0
C147 C 0.87023 0.10068 0.16901 0.0
C148 C 0.25909 0.41236 0.18707 0.0
C149 C 0.20812 0.41032 0.17118 0.0
C150 C 0.31937 0.41237 0.20458 0.0
C151 C 0.3704 0.41032 0.22029 0.0
C152 C 0.03531 0.01851 -0.03858 0.0
C153 C 0.03605 0.04019 -0.00726 0.0
C154 C 0.03537 0.99289 0.9252 0.0
C155 C 0.03622 0.97114 0.89403 0.0
C156 C 0.0437 0.51782 0.92638 0.0
C157 C 0.04297 0.53959 0.89523 0.0
C158 C 0.04364 0.49221 -0.03738 0.0
C159 C 0.04282 0.47056 -0.00601 0.0
C160 C 0.53597 0.49186 0.4283 0.0
C161 C 0.53667 0.47021 0.39692 0.0
C162 C 0.53598 0.51751 0.46447 0.0
C163 C 0.53672 0.53932 0.49554 0.0
C164 C 0.54283 0.99257 0.46224 0.0
C165 C 0.54217 0.97083 0.49345 0.0
C166 C 0.54285 0.0182 0.42603 0.0
C167 C 0.54218 0.03989 0.39473 0.0
loop_
_geom_bond_atom_site_label_1
_geom_bond_atom_site_label_2
_geom_bond_distance
_geom_bond_site_symmetry_2
_ccdc_geom_bond_type
In0 O1 2.294 . S
In0 O2 2.326 . S
In0 O6 2.266 . S
In0 O7 2.326 . S
In0 O8 2.266 . S
In0 O9 2.326 . S
In0 O11 2.294 1_455 S
In0 O12 2.326 1_455 S
O1 In0 2.294 . S
O1 C10 1.240 . S
O2 In0 2.326 . S
O2 C10 1.252 . S
C3 O6 1.252 . S
C3 O7 1.260 . S
C4 O11 1.240 . S
C4 O12 1.252 . S
C5 O8 1.252 . S
C5 O9 1.260 . S
O6 In0 2.266 . S
O6 C3 1.252 . S
O7 In0 2.326 . S
O7 C3 1.260 . S
O8 In0 2.266 . S
O8 C5 1.252 . S
O9 In0 2.326 . S
O9 C5 1.260 . S
C10 O1 1.240 . S
C10 O2 1.252 . S
O11 In0 2.294 1_655 S
O11 C4 1.240 . S
O12 In0 2.326 1_655 S
O12 C4 1.252 . S
In13 O14 2.294 . S
In13 O15 2.326 . S
In13 O19 2.266 . S
In13 O20 2.326 . S
In13 O21 2.266 1_455 S
In13 O22 2.326 1_455 S
In13 O24 2.294 . S
In13 O25 2.326 . S
O14 In13 2.294 . S
O14 C23 1.240 . S
O15 In13 2.326 . S
O15 C23 1.252 . S
C16 O19 1.252 . S
C16 O20 1.260 . S
C17 O24 1.240 . S
C17 O25 1.252 . S
C18 O21 1.252 . S
C18 O22 1.260 . S
O19 In13 2.266 . S
O19 C16 1.252 . S
O20 In13 2.326 . S
O20 C16 1.260 . S
O21 In13 2.266 1_655 S
O21 C18 1.252 . S
O22 In13 2.326 1_655 S
O22 C18 1.260 . S
C23 O14 1.240 . S
C23 O15 1.252 . S
O24 In13 2.294 . S
O24 C17 1.240 . S
O25 In13 2.326 . S
O25 C17 1.252 . S
In26 O27 2.294 1_455 S
In26 O28 2.326 1_455 S
In26 O32 2.266 . S
In26 O33 2.326 . S
In26 O34 2.266 . S
In26 O35 2.326 . S
In26 O37 2.294 . S
In26 O38 2.326 . S
O27 In26 2.294 1_655 S
O27 C36 1.240 . S
O28 In26 2.326 1_655 S
O28 C36 1.252 . S
C29 O32 1.252 . S
C29 O33 1.260 . S
C30 O37 1.240 . S
C30 O38 1.252 . S
C31 O34 1.252 . S
C31 O35 1.260 . S
O32 In26 2.266 . S
O32 C29 1.252 . S
O33 In26 2.326 . S
O33 C29 1.260 . S
O34 In26 2.266 . S
O34 C31 1.252 . S
O35 In26 2.326 . S
O35 C31 1.260 . S
C36 O27 1.240 . S
C36 O28 1.252 . S
O37 In26 2.294 . S
O37 C30 1.240 . S
O38 In26 2.326 . S
O38 C30 1.252 . S
In39 O40 2.294 . S
In39 O41 2.326 . S
In39 O45 2.266 . S
In39 O46 2.326 . S
In39 O47 2.266 1_455 S
In39 O48 2.326 1_455 S
In39 O50 2.294 . S
In39 O51 2.326 . S
O40 In39 2.294 . S
O40 C49 1.240 . S
O41 In39 2.326 . S
O41 C49 1.252 . S
C42 O45 1.252 . S
C42 O46 1.260 . S
C43 O50 1.240 . S
C43 O51 1.252 . S
C44 O47 1.252 . S
C44 O48 1.260 . S
O45 In39 2.266 . S
O45 C42 1.252 . S
O46 In39 2.326 . S
O46 C42 1.260 . S
O47 In39 2.266 1_655 S
O47 C44 1.252 . S
O48 In39 2.326 1_655 S
O48 C44 1.260 . S
C49 O40 1.240 . S
C49 O41 1.252 . S
O50 In39 2.294 . S
O50 C43 1.240 . S
O51 In39 2.326 . S
O51 C43 1.252 . S
In52 O53 2.294 . S
In52 O54 2.326 . S
In52 O58 2.266 . S
In52 O59 2.326 . S
In52 O60 2.266 . S
In52 O61 2.326 . S
In52 O63 2.294 . S
In52 O64 2.326 . S
O53 In52 2.294 . S
O53 C62 1.240 . S
O54 In52 2.326 . S
O54 C62 1.252 . S
C55 O58 1.252 . S
C55 O59 1.260 . S
C56 O63 1.240 . S
C56 O64 1.252 . S
C57 O60 1.252 . S
C57 O61 1.260 . S
O58 In52 2.266 . S
O58 C55 1.252 . S
O59 In52 2.326 . S
O59 C55 1.260 . S
O60 In52 2.266 . S
O60 C57 1.252 . S
O61 In52 2.326 . S
O61 C57 1.260 . S
C62 O53 1.240 . S
C62 O54 1.252 . S
O63 In52 2.294 . S
O63 C56 1.240 . S
O64 In52 2.326 . S
O64 C56 1.252 . S
In65 O66 2.294 . S
In65 O67 2.326 . S
In65 O71 2.266 . S
In65 O72 2.326 . S
In65 O73 2.266 . S
In65 O74 2.326 . S
In65 O76 2.294 . S
In65 O77 2.326 . S
O66 In65 2.294 . S
O66 C75 1.240 . S
O67 In65 2.326 . S
O67 C75 1.252 . S
C68 O71 1.252 . S
C68 O72 1.260 . S
C69 O76 1.240 . S
C69 O77 1.252 . S
C70 O73 1.252 . S
C70 O74 1.260 . S
O71 In65 2.266 . S
O71 C68 1.252 . S
O72 In65 2.326 . S
O72 C68 1.260 . S
O73 In65 2.266 . S
O73 C70 1.252 . S
O74 In65 2.326 . S
O74 C70 1.260 . S
C75 O66 1.240 . S
C75 O67 1.252 . S
O76 In65 2.294 . S
O76 C69 1.240 . S
O77 In65 2.326 . S
O77 C69 1.252 . S
In78 O79 2.294 . S
In78 O80 2.326 . S
In78 O84 2.266 . S
In78 O85 2.326 . S
In78 O86 2.266 . S
In78 O87 2.326 . S
In78 O89 2.294 . S
In78 O90 2.326 . S
O79 In78 2.294 . S
O79 C88 1.240 . S
O80 In78 2.326 . S
O80 C88 1.252 . S
C81 O84 1.252 . S
C81 O85 1.260 . S
C82 O89 1.240 . S
C82 O90 1.252 . S
C83 O86 1.252 . S
C83 O87 1.260 . S
O84 In78 2.266 . S
O84 C81 1.252 . S
O85 In78 2.326 . S
O85 C81 1.260 . S
O86 In78 2.266 . S
O86 C83 1.252 . S
O87 In78 2.326 . S
O87 C83 1.260 . S
C88 O79 1.240 . S
C88 O80 1.252 . S
O89 In78 2.294 . S
O89 C82 1.240 . S
O90 In78 2.326 . S
O90 C82 1.252 . S
In91 O92 2.294 . S
In91 O93 2.326 . S
In91 O97 2.266 . S
In91 O98 2.326 . S
In91 O99 2.266 . S
In91 O100 2.326 . S
In91 O102 2.294 . S
In91 O103 2.326 . S
O92 In91 2.294 . S
O92 C101 1.240 . S
O93 In91 2.326 . S
O93 C101 1.252 . S
C94 O97 1.252 . S
C94 O98 1.260 . S
C95 O102 1.240 . S
C95 O103 1.252 . S
C96 O99 1.252 . S
C96 O100 1.260 . S
O97 In91 2.266 . S
O97 C94 1.252 . S
O98 In91 2.326 . S
O98 C94 1.260 . S
O99 In91 2.266 . S
O99 C96 1.252 . S
O100 In91 2.326 . S
O100 C96 1.260 . S
C101 O92 1.240 . S
C101 O93 1.252 . S
O102 In91 2.294 . S
O102 C95 1.240 . S
O103 In91 2.326 . S
O103 C95 1.252 . S
C104 C105 1.170 . S
C104 C106 1.380 . S
C105 C104 1.170 . S
C106 C104 1.380 . S
C106 C107 1.170 . S
C107 C106 1.170 . S
C108 C109 1.170 . S
C108 C110 1.380 . S
C109 C108 1.170 . S
C110 C108 1.380 . S
C110 C111 1.170 . S
C111 C110 1.170 . S
C112 C113 1.170 . S
C112 C114 1.380 . S
C113 C112 1.170 . S
C114 C112 1.380 . S
C114 C115 1.170 . S
C115 C114 1.170 . S
C116 C117 1.170 . S
C116 C118 1.380 . S
C117 C116 1.170 . S
C118 C116 1.380 . S
C118 C119 1.170 . S
C119 C118 1.170 . S
C120 C121 1.170 . S
C120 C122 1.380 . S
C121 C120 1.170 . S
C122 C120 1.380 . S
C122 C123 1.170 . S
C123 C122 1.170 . S
C124 C125 1.170 . S
C124 C126 1.380 . S
C125 C124 1.170 . S
C126 C124 1.380 . S
C126 C127 1.170 . S
C127 C126 1.170 . S
C128 C129 1.170 . S
C128 C130 1.380 . S
C129 C128 1.170 . S
C130 C128 1.380 . S
C130 C131 1.170 . S
C131 C130 1.170 . S
C132 C133 1.170 . S
C132 C134 1.380 . S
C133 C132 1.170 . S
C134 C132 1.380 . S
C134 C135 1.170 . S
C135 C134 1.170 . S
C136 C137 1.170 . S
C136 C138 1.380 . S
C137 C136 1.170 . S
C138 C136 1.380 . S
C138 C139 1.170 . S
C139 C138 1.170 . S
C140 C141 1.170 . S
C140 C142 1.380 . S
C141 C140 1.170 . S
C142 C140 1.380 . S
C142 C143 1.170 . S
C143 C142 1.170 . S
C144 C145 1.170 . S
C144 C146 1.380 . S
C145 C144 1.170 . S
C146 C144 1.380 . S
C146 C147 1.170 . S
C147 C146 1.170 . S
C148 C149 1.170 . S
C148 C150 1.380 . S
C149 C148 1.170 . S
C150 C148 1.380 . S
C150 C151 1.170 . S
C151 C150 1.170 . S
C152 C153 1.170 . S
C152 C154 1.380 1_544 S
C153 C152 1.170 . S
C154 C152 1.380 1_566 S
C154 C155 1.170 . S
C155 C154 1.170 . S
C156 C157 1.170 . S
C156 C158 1.380 1_556 S
C157 C156 1.170 . S
C158 C156 1.380 1_554 S
C158 C159 1.170 . S
C159 C158 1.170 . S
C160 C161 1.170 . S
C160 C162 1.380 . S
C161 C160 1.170 . S
C162 C160 1.380 . S
C162 C163 1.170 . S
C163 C162 1.170 . S
C164 C165 1.170 . S
C164 C166 1.380 1_565 S
C165 C164 1.170 . S
C166 C164 1.380 1_545 S
C166 C167 1.170 . S
C167 C166 1.170 . S
C105 C16 1.477 . S
C107 C3 1.473 . S
C109 C31 1.479 . S
C111 C42 1.469 . S
C113 C57 1.478 . S
C115 C70 1.470 . S
C117 C83 1.473 . S
C119 C96 1.467 . S
C121 C94 1.644 . S
C123 C5 1.641 . S
C125 C81 1.637 . S
C127 C18 1.648 . S
C129 C29 1.648 . S
C131 C68 1.637 . S
C133 C55 1.648 . S
C135 C44 1.637 . S
C137 C75 1.262 . S
C139 C36 1.263 . S
C141 C62 1.259 . S
C143 C43 1.259 . S
C145 C101 1.261 . S
C147 C4 1.260 . S
C149 C17 1.267 . S
C151 C88 1.265 . S
C153 C10 1.436 . S
C155 C30 1.433 . S
C157 C49 1.433 . S
C159 C23 1.435 . S
C161 C82 1.435 . S
C163 C56 1.433 . S
C165 C69 1.433 . S
C167 C95 1.432 . S
