# Generated by pormake.
# Topology umx, (4)-cn, num edge types: 1
# Building blocks:
#     Node 0, Type 0, BuildingBlock: ESEHIV_clean_sbu_0, # of connection points: 4
#     Node 1, Type 0, BuildingBlock: ESEHIV_clean_sbu_0, # of connection points: 4
#     Node 2, Type 0, BuildingBlock: ESEHIV_clean_sbu_0, # of connection points: 4
#     Node 3, Type 0, BuildingBlock: ESEHIV_clean_sbu_0, # of connection points: 4
#     Node 4, Type 0, BuildingBlock: ESEHIV_clean_sbu_0, # of connection points: 4
#     Node 5, Type 0, BuildingBlock: ESEHIV_clean_sbu_0, # of connection points: 4
#     Node 6, Type 0, BuildingBlock: ESEHIV_clean_sbu_0, # of connection points: 4
#     Node 7, Type 0, BuildingBlock: ESEHIV_clean_sbu_0, # of connection points: 4
#     Edge 8, Type (0, 0), None
#     Edge 9, Type (0, 0), None
#     Edge 10, Type (0, 0), None
#     Edge 11, Type (0, 0), None
#     Edge 12, Type (0, 0), None
#     Edge 13, Type (0, 0), None
#     Edge 14, Type (0, 0), None
#     Edge 15, Type (0, 0), None
#     Edge 16, Type (0, 0), None
#     Edge 17, Type (0, 0), None
#     Edge 18, Type (0, 0), None
#     Edge 19, Type (0, 0), None
#     Edge 20, Type (0, 0), None
#     Edge 21, Type (0, 0), None
#     Edge 22, Type (0, 0), None
#     Edge 23, Type (0, 0), None
# Relax obj value: 0.197
# Max RMSD: 0.196
# Mean RMSD: 0.175
data_MOF--net-umx--node1-ESEHIV_clean_sbu_0--edge1-none
_symmetry_space_group_name_H-M    P1
_symmetry_Int_Tables_number       1
_symmetry_cell_setting            triclinic
loop_
_symmetry_equiv_pos_as_xyz
'x, y, z'
_cell_length_a     16.871738
_cell_length_b     24.160899
_cell_length_c     13.38377
_cell_angle_alpha  90.014672
_cell_angle_beta   89.936022
_cell_angle_gamma 89.997937
loop_
_atom_site_label
_atom_site_type_symbol
_atom_site_fract_x
_atom_site_fract_y
_atom_site_fract_z
_atom_type_partial_charge
Cu0 Cu 0.17535 0.3994 1.11724 0.0
N1 N 0.25235 0.42792 1.03359 0.0
N2 N 0.30175 0.48454 0.91995 0.0
C3 C 0.23766 0.45597 0.94965 0.0
C4 C 0.35969 0.47401 0.98599 0.0
C5 C 0.32852 0.43919 1.05735 0.0
O6 O 0.15851 0.31835 1.11267 0.0
C7 C 0.06719 0.49214 1.08778 0.0
O8 O 0.1306 0.52353 1.08896 0.0
H9 H 0.17947 0.45919 0.91623 0.0
H10 H 0.35735 0.42623 0.1256 0.0
N11 N 0.20706 0.41977 0.24319 0.0
N12 N 0.2346 0.48015 0.36268 0.0
C13 C 0.23123 0.4713 0.26412 0.0
C14 C 0.19646 0.39432 0.33148 0.0
C15 C 0.21348 0.43185 0.4062 0.0
C16 C 0.20008 0.2739 0.11883 0.0
O17 O 0.16271 0.22737 0.13803 0.0
H18 H 0.24035 0.50293 0.20834 0.0
H19 H 0.1719 0.35328 0.34071 0.0
O20 O 0.07422 0.43938 1.09449 0.0
H21 H 0.41719 0.49386 0.98725 0.0
H22 H 0.20365 0.42562 0.48529 0.0
Cu23 Cu 0.56172 0.19575 0.65177 0.0
N24 N 0.58144 0.11982 0.65407 0.0
N25 N 0.55046 0.03009 0.65665 0.0
C26 C 0.52251 0.08219 0.65191 0.0
C27 C 0.63008 0.03469 0.66214 0.0
C28 C 0.64909 0.09045 0.66087 0.0
O29 O 0.4858 0.20579 0.76391 0.0
C30 C 0.55022 0.20991 0.43631 0.0
O31 O 0.62755 0.20405 0.43699 0.0
H32 H 0.46043 0.09307 0.64728 0.0
H33 H 0.70781 0.10812 0.66582 0.0
N34 N 0.65266 0.2403 0.66691 0.0
N35 N 0.77743 0.27253 0.66383 0.0
C36 C 0.72725 0.23212 0.63324 0.0
C37 C 0.6563 0.28713 0.72118 0.0
C38 C 0.73337 0.30585 0.72195 0.0
C39 C 0.49054 0.20402 0.85999 0.0
O40 O 0.42422 0.20244 0.91082 0.0
H41 H 0.74477 0.19677 0.58869 0.0
H42 H 0.60759 0.30368 0.76451 0.0
O43 O 0.51215 0.20988 0.51941 0.0
H44 H 0.67133 1.00058 0.66804 0.0
H45 H 0.75689 0.33516 0.77436 0.0
Cu46 Cu 0.87989 0.61142 0.11774 0.0
N47 N 0.80298 0.58315 1.0339 0.0
N48 N 0.75358 0.52644 0.9205 0.0
C49 C 0.81771 0.55496 0.95005 0.0
C50 C 0.69556 0.53716 0.9865 0.0
C51 C 0.72674 0.57203 1.05772 0.0
O52 O 0.89712 0.69242 1.11363 0.0
C53 C 0.98797 0.51854 1.08775 0.0
O54 O 0.92456 0.48715 1.08819 0.0
H55 H 0.87595 0.55159 0.91664 0.0
H56 H 0.69787 0.58508 0.12598 0.0
N57 N 0.84749 0.59104 0.24347 0.0
N58 N 0.81897 0.53079 0.36286 0.0
C59 C 0.8236 0.53944 0.2643 0.0
C60 C 0.85649 0.61679 0.33174 0.0
C61 C 0.83888 0.57934 0.40639 0.0
C62 C 0.85559 0.73686 0.12032 0.0
O63 O 0.89298 0.78333 0.13996 0.0
H64 H 0.81545 0.50769 0.20852 0.0
H65 H 0.8802 0.65806 0.34112 0.0
O66 O 0.98095 0.57128 1.09511 0.0
H67 H 0.63801 0.51739 0.98788 0.0
H68 H 0.84736 0.58592 0.48562 0.0
Cu69 Cu 0.49394 0.81521 0.65409 0.0
N70 N 0.4742 0.89112 0.65601 0.0
N71 N 0.50518 0.98085 0.65743 0.0
C72 C 0.53301 0.92876 0.65121 0.0
C73 C 0.42577 0.97622 0.6666 0.0
C74 C 0.40676 0.92046 0.66608 0.0
O75 O 0.56973 0.80538 0.76622 0.0
C76 C 0.50565 0.8011 0.43871 0.0
O77 O 0.42837 0.80728 0.43958 0.0
H78 H 0.59495 0.9179 0.64398 0.0
H79 H 0.34827 0.90275 0.67406 0.0
N80 N 0.4029 0.77073 0.6692 0.0
N81 N 0.2781 0.73858 0.66566 0.0
C82 C 0.32839 0.77908 0.63563 0.0
C83 C 0.3991 0.72372 0.7229 0.0
C84 C 0.32199 0.70503 0.72339 0.0
C85 C 0.56498 0.80706 0.86232 0.0
O86 O 0.63128 0.80897 0.91295 0.0
H87 H 0.31102 0.81461 0.5915 0.0
H88 H 0.44772 0.70695 0.76596 0.0
O89 O 0.54367 0.80093 0.52174 0.0
H90 H 0.38471 0.01032 0.67473 0.0
H91 H 0.29833 0.67551 0.77533 0.0
Cu92 Cu 0.17375 0.61258 0.65415 0.0
N93 N 0.25113 0.58424 0.73715 0.0
N94 N 0.3013 0.52735 0.84964 0.0
C95 C 0.23674 0.5555 0.82045 0.0
C96 C 0.35929 0.53895 0.7841 0.0
C97 C 0.32762 0.57392 0.71338 0.0
O98 O 0.15618 0.69353 0.65951 0.0
C99 C 0.06692 0.51909 0.6829 0.0
O100 O 0.13077 0.48815 0.6809 0.0
H101 H 0.17857 0.55161 0.85384 0.0
H102 H 0.35642 0.58768 0.64554 0.0
N103 N 0.20561 0.59271 0.5279 0.0
N104 N 0.23388 0.53264 0.40813 0.0
C105 C 0.23092 0.54147 0.50671 0.0
C106 C 0.19391 0.61801 0.43971 0.0
C107 C 0.21145 0.58068 0.3648 0.0
C108 C 0.19781 0.73799 0.65475 0.0
O109 O 0.1608 0.78457 0.63487 0.0
H110 H 0.24109 0.50995 0.56239 0.0
H111 H 0.16828 0.65874 0.43074 0.0
O112 O 0.07317 0.57193 0.67688 0.0
H113 H 0.41729 0.51982 0.78277 0.0
H114 H 0.20112 0.58679 0.2858 0.0
Cu115 Cu 0.4957 0.19584 0.1237 0.0
N116 N 0.47513 0.12004 0.12196 0.0
N117 N 0.50535 0.03018 0.12056 0.0
C118 C 0.53357 0.08214 0.12726 0.0
C119 C 0.42607 0.03515 1.11052 0.0
C120 C 0.40754 0.091 1.11101 0.0
O121 O 0.57164 0.20511 1.01136 0.0
C122 C 0.50742 0.20999 0.33901 0.0
O123 O 0.43005 0.20433 0.33828 0.0
H124 H 0.59555 0.09273 0.13504 0.0
H125 H 0.34929 0.10896 1.10221 0.0
N126 N 0.40526 0.24087 1.10855 0.0
N127 N 0.28054 0.27326 1.10982 0.0
C128 C 0.33021 0.23254 0.14043 0.0
C129 C 0.40251 0.28817 1.05561 0.0
C130 C 0.32552 0.30706 1.0538 0.0
C131 C 0.56683 0.20349 0.91528 0.0
O132 O 0.63308 0.201 0.86442 0.0
H133 H 0.31201 0.19682 0.18353 0.0
H134 H 0.45181 0.30493 1.01365 0.0
O135 O 0.54549 0.2099 0.25592 0.0
H136 H 0.38481 1.00124 1.10165 0.0
H137 H 0.30283 0.33679 1.00173 0.0
Cu138 Cu 0.88136 0.39853 0.65402 0.0
N139 N 0.80407 0.42662 0.73767 0.0
N140 N 0.75397 0.48354 0.85033 0.0
C141 C 0.81849 0.45535 0.82096 0.0
C142 C 0.69596 0.47195 0.78496 0.0
C143 C 0.72759 0.43697 0.71414 0.0
O144 O 0.89932 0.31762 0.65874 0.0
C145 C 0.98811 0.49213 0.68307 0.0
O146 O 0.92425 0.52307 0.68223 0.0
H147 H 0.87669 0.45926 0.85411 0.0
H148 H 0.69879 0.42328 0.64632 0.0
N149 N 0.84889 0.41846 0.52817 0.0
N150 N 0.81969 0.4784 0.40867 0.0
C151 C 0.82395 0.46979 0.50724 0.0
C152 C 0.85892 0.39282 0.43992 0.0
C153 C 0.84082 0.43008 0.36518 0.0
C154 C 0.85775 0.27317 0.6532 0.0
O155 O 0.89486 0.22667 0.6329 0.0
H156 H 0.8148 0.50145 0.56298 0.0
H157 H 0.88361 0.35182 0.43064 0.0
O158 O 0.98188 0.43932 0.67622 0.0
H159 H 0.638 0.49115 0.78376 0.0
H160 H 0.84975 0.4236 0.28598 0.0
Cu161 Cu 0.56003 0.81508 0.12586 0.0
N162 N 0.58048 0.89091 0.1236 0.0
N163 N 0.55023 0.98076 0.12123 0.0
C164 C 0.52186 0.92878 0.12591 0.0
C165 C 0.62981 0.97585 1.11563 0.0
C166 C 0.64837 0.92002 1.11675 0.0
O167 O 0.48396 0.80551 1.01395 0.0
C168 C 0.54847 0.8009 0.34131 0.0
O169 O 0.62588 0.80627 0.34038 0.0
H170 H 0.45968 0.91815 0.13062 0.0
H171 H 0.70695 0.90215 1.11163 0.0
N172 N 0.65049 0.77004 1.11036 0.0
N173 N 0.77515 0.73756 1.11134 0.0
C174 C 0.72545 0.77818 0.14248 0.0
C175 C 0.65331 0.72294 1.05679 0.0
C176 C 0.73028 0.70401 1.0548 0.0
C177 C 0.4887 0.80719 0.91785 0.0
O178 O 0.4224 0.80931 0.86723 0.0
H179 H 0.74361 0.81368 0.18617 0.0
H180 H 0.6041 0.70637 1.01454 0.0
O181 O 0.51038 0.80117 0.25834 0.0
H182 H 0.67134 0.00981 1.10971 0.0
H183 H 0.75307 0.67447 1.00234 0.0
loop_
_geom_bond_atom_site_label_1
_geom_bond_atom_site_label_2
_geom_bond_distance
_geom_bond_site_symmetry_2
_ccdc_geom_bond_type
Cu0 N1 1.999 1_554 S
Cu0 O6 1.974 . S
Cu0 N11 1.985 . S
Cu0 O20 1.959 . S
N1 Cu0 1.999 1_556 S
N1 C3 1.263 . S
N1 C5 1.389 . S
N2 C3 1.358 . S
N2 C4 1.400 . S
C3 N1 1.263 . S
C3 N2 1.358 . S
C3 H9 0.930 . S
C4 N2 1.400 . S
C4 C5 1.351 . S
C4 H21 0.930 . S
C5 N1 1.389 . S
C5 C4 1.351 . S
C5 H10 0.930 . S
O6 Cu0 1.974 . S
O6 C16 1.282 . S
C7 O8 1.261 . S
C7 O20 1.251 . S
O8 C7 1.261 . S
H9 C3 0.930 . S
H10 C5 0.930 . S
N11 Cu0 1.985 . S
N11 C13 1.335 . S
N11 C14 1.390 . S
N12 C13 1.345 . S
N12 C15 1.336 . S
C13 N11 1.335 . S
C13 N12 1.345 . S
C13 H18 0.930 . S
C14 N11 1.390 . S
C14 C15 1.346 . S
C14 H19 0.930 . S
C15 N12 1.336 . S
C15 C14 1.346 . S
C15 H22 0.929 . S
C16 O6 1.282 . S
C16 O17 1.216 . S
O17 C16 1.216 . S
H18 C13 0.930 . S
H19 C14 0.930 . S
O20 Cu0 1.959 . S
O20 C7 1.251 . S
H21 C4 0.930 . S
H22 C15 0.929 . S
Cu23 N24 1.999 . S
Cu23 O29 1.974 . S
Cu23 N34 1.985 . S
Cu23 O43 1.959 . S
N24 Cu23 1.999 . S
N24 C26 1.263 . S
N24 C28 1.389 . S
N25 C26 1.358 . S
N25 C27 1.400 . S
C26 N24 1.263 . S
C26 N25 1.358 . S
C26 H32 0.930 . S
C27 N25 1.400 . S
C27 C28 1.351 . S
C27 H44 0.930 1_545 S
C28 N24 1.389 . S
C28 C27 1.351 . S
C28 H33 0.930 . S
O29 Cu23 1.974 . S
O29 C39 1.282 . S
C30 O31 1.261 . S
C30 O43 1.251 . S
O31 C30 1.261 . S
H32 C26 0.930 . S
H33 C28 0.930 . S
N34 Cu23 1.985 . S
N34 C36 1.335 . S
N34 C37 1.390 . S
N35 C36 1.345 . S
N35 C38 1.336 . S
C36 N34 1.335 . S
C36 N35 1.345 . S
C36 H41 0.930 . S
C37 N34 1.390 . S
C37 C38 1.346 . S
C37 H42 0.930 . S
C38 N35 1.336 . S
C38 C37 1.346 . S
C38 H45 0.929 . S
C39 O29 1.282 . S
C39 O40 1.216 . S
O40 C39 1.216 . S
H41 C36 0.930 . S
H42 C37 0.930 . S
O43 Cu23 1.959 . S
O43 C30 1.251 . S
H44 C27 0.930 1_565 S
H45 C38 0.929 . S
Cu46 N47 1.999 1_554 S
Cu46 O52 1.974 . S
Cu46 N57 1.985 . S
Cu46 O66 1.959 . S
N47 Cu46 1.999 1_556 S
N47 C49 1.263 . S
N47 C51 1.389 . S
N48 C49 1.358 . S
N48 C50 1.400 . S
C49 N47 1.263 . S
C49 N48 1.358 . S
C49 H55 0.930 . S
C50 N48 1.400 . S
C50 C51 1.351 . S
C50 H67 0.930 . S
C51 N47 1.389 . S
C51 C50 1.351 . S
C51 H56 0.930 . S
O52 Cu46 1.974 . S
O52 C62 1.282 . S
C53 O54 1.261 . S
C53 O66 1.251 . S
O54 C53 1.261 . S
H55 C49 0.930 . S
H56 C51 0.930 . S
N57 Cu46 1.985 . S
N57 C59 1.335 . S
N57 C60 1.390 . S
N58 C59 1.345 . S
N58 C61 1.336 . S
C59 N57 1.335 . S
C59 N58 1.345 . S
C59 H64 0.930 . S
C60 N57 1.390 . S
C60 C61 1.346 . S
C60 H65 0.930 . S
C61 N58 1.336 . S
C61 C60 1.346 . S
C61 H68 0.929 . S
C62 O52 1.282 . S
C62 O63 1.216 . S
O63 C62 1.216 . S
H64 C59 0.930 . S
H65 C60 0.930 . S
O66 Cu46 1.959 . S
O66 C53 1.251 . S
H67 C50 0.930 . S
H68 C61 0.929 . S
Cu69 N70 1.999 . S
Cu69 O75 1.974 . S
Cu69 N80 1.985 . S
Cu69 O89 1.959 . S
N70 Cu69 1.999 . S
N70 C72 1.263 . S
N70 C74 1.389 . S
N71 C72 1.358 . S
N71 C73 1.400 . S
C72 N70 1.263 . S
C72 N71 1.358 . S
C72 H78 0.930 . S
C73 N71 1.400 . S
C73 C74 1.351 . S
C73 H90 0.930 1_565 S
C74 N70 1.389 . S
C74 C73 1.351 . S
C74 H79 0.930 . S
O75 Cu69 1.974 . S
O75 C85 1.282 . S
C76 O77 1.261 . S
C76 O89 1.251 . S
O77 C76 1.261 . S
H78 C72 0.930 . S
H79 C74 0.930 . S
N80 Cu69 1.985 . S
N80 C82 1.335 . S
N80 C83 1.390 . S
N81 C82 1.345 . S
N81 C84 1.336 . S
C82 N80 1.335 . S
C82 N81 1.345 . S
C82 H87 0.930 . S
C83 N80 1.390 . S
C83 C84 1.346 . S
C83 H88 0.930 . S
C84 N81 1.336 . S
C84 C83 1.346 . S
C84 H91 0.929 . S
C85 O75 1.282 . S
C85 O86 1.216 . S
O86 C85 1.216 . S
H87 C82 0.930 . S
H88 C83 0.930 . S
O89 Cu69 1.959 . S
O89 C76 1.251 . S
H90 C73 0.930 1_545 S
H91 C84 0.929 . S
Cu92 N93 1.999 . S
Cu92 O98 1.974 . S
Cu92 N103 1.985 . S
Cu92 O112 1.959 . S
N93 Cu92 1.999 . S
N93 C95 1.263 . S
N93 C97 1.389 . S
N94 C95 1.358 . S
N94 C96 1.400 . S
C95 N93 1.263 . S
C95 N94 1.358 . S
C95 H101 0.930 . S
C96 N94 1.400 . S
C96 C97 1.351 . S
C96 H113 0.930 . S
C97 N93 1.389 . S
C97 C96 1.351 . S
C97 H102 0.930 . S
O98 Cu92 1.974 . S
O98 C108 1.282 . S
C99 O100 1.261 . S
C99 O112 1.251 . S
O100 C99 1.261 . S
H101 C95 0.930 . S
H102 C97 0.930 . S
N103 Cu92 1.985 . S
N103 C105 1.335 . S
N103 C106 1.390 . S
N104 C105 1.345 . S
N104 C107 1.336 . S
C105 N103 1.335 . S
C105 N104 1.345 . S
C105 H110 0.930 . S
C106 N103 1.390 . S
C106 C107 1.346 . S
C106 H111 0.930 . S
C107 N104 1.336 . S
C107 C106 1.346 . S
C107 H114 0.929 . S
C108 O98 1.282 . S
C108 O109 1.216 . S
O109 C108 1.216 . S
H110 C105 0.930 . S
H111 C106 0.930 . S
O112 Cu92 1.959 . S
O112 C99 1.251 . S
H113 C96 0.930 . S
H114 C107 0.929 . S
Cu115 N116 1.999 . S
Cu115 O121 1.974 1_554 S
Cu115 N126 1.984 1_554 S
Cu115 O135 1.959 . S
N116 Cu115 1.999 . S
N116 C118 1.263 1_554 S
N116 C120 1.389 . S
N117 C118 1.358 . S
N117 C119 1.400 1_556 S
C118 N116 1.263 1_556 S
C118 N117 1.358 . S
C118 H124 0.930 . S
C119 N117 1.400 1_554 S
C119 C120 1.351 . S
C119 H136 0.930 1_545 S
C120 N116 1.389 . S
C120 C119 1.351 . S
C120 H125 0.930 . S
O121 Cu115 1.974 1_556 S
O121 C131 1.282 . S
C122 O123 1.261 . S
C122 O135 1.251 . S
O123 C122 1.261 . S
H124 C118 0.930 . S
H125 C120 0.930 . S
N126 Cu115 1.984 1_556 S
N126 C128 1.330 1_556 S
N126 C129 1.396 . S
N127 C128 1.345 . S
N127 C130 1.336 1_554 S
C128 N126 1.330 1_554 S
C128 N127 1.345 . S
C128 H133 0.930 . S
C129 N126 1.396 . S
C129 C130 1.346 . S
C129 H134 0.930 . S
C130 N127 1.336 1_556 S
C130 C129 1.346 . S
C130 H137 0.929 . S
C131 O121 1.282 . S
C131 O132 1.216 . S
O132 C131 1.216 . S
H133 C128 0.930 . S
H134 C129 0.930 . S
O135 Cu115 1.959 . S
O135 C122 1.251 . S
H136 C119 0.930 1_565 S
H137 C130 0.929 . S
Cu138 N139 1.999 . S
Cu138 O144 1.974 . S
Cu138 N149 1.985 . S
Cu138 O158 1.959 . S
N139 Cu138 1.999 . S
N139 C141 1.263 . S
N139 C143 1.389 . S
N140 C141 1.358 . S
N140 C142 1.400 . S
C141 N139 1.263 . S
C141 N140 1.358 . S
C141 H147 0.930 . S
C142 N140 1.400 . S
C142 C143 1.351 . S
C142 H159 0.930 . S
C143 N139 1.389 . S
C143 C142 1.351 . S
C143 H148 0.930 . S
O144 Cu138 1.974 . S
O144 C154 1.282 . S
C145 O146 1.261 . S
C145 O158 1.251 . S
O146 C145 1.261 . S
H147 C141 0.930 . S
H148 C143 0.930 . S
N149 Cu138 1.985 . S
N149 C151 1.335 . S
N149 C152 1.390 . S
N150 C151 1.345 . S
N150 C153 1.336 . S
C151 N149 1.335 . S
C151 N150 1.345 . S
C151 H156 0.930 . S
C152 N149 1.390 . S
C152 C153 1.346 . S
C152 H157 0.930 . S
C153 N150 1.336 . S
C153 C152 1.346 . S
C153 H160 0.929 . S
C154 O144 1.282 . S
C154 O155 1.216 . S
O155 C154 1.216 . S
H156 C151 0.930 . S
H157 C152 0.930 . S
O158 Cu138 1.959 . S
O158 C145 1.251 . S
H159 C142 0.930 . S
H160 C153 0.929 . S
Cu161 N162 1.999 . S
Cu161 O167 1.974 1_554 S
Cu161 N172 1.984 1_554 S
Cu161 O181 1.959 . S
N162 Cu161 1.999 . S
N162 C164 1.263 1_554 S
N162 C166 1.389 . S
N163 C164 1.358 . S
N163 C165 1.400 1_556 S
C164 N162 1.263 1_556 S
C164 N163 1.358 . S
C164 H170 0.930 . S
C165 N163 1.400 1_554 S
C165 C166 1.351 . S
C165 H182 0.930 1_565 S
C166 N162 1.389 . S
C166 C165 1.351 . S
C166 H171 0.930 . S
O167 Cu161 1.974 1_556 S
O167 C177 1.282 . S
C168 O169 1.261 . S
C168 O181 1.251 . S
O169 C168 1.261 . S
H170 C164 0.930 . S
H171 C166 0.930 . S
N172 Cu161 1.984 1_556 S
N172 C174 1.330 1_556 S
N172 C175 1.396 . S
N173 C174 1.345 . S
N173 C176 1.336 1_554 S
C174 N172 1.330 1_554 S
C174 N173 1.345 . S
C174 H179 0.930 . S
C175 N172 1.396 . S
C175 C176 1.346 . S
C175 H180 0.930 . S
C176 N173 1.336 1_556 S
C176 C175 1.346 . S
C176 H183 0.929 . S
C177 O167 1.282 . S
C177 O178 1.216 . S
O178 C177 1.216 . S
H179 C174 0.930 . S
H180 C175 0.930 . S
O181 Cu161 1.959 . S
O181 C168 1.251 . S
H182 C165 0.930 1_545 S
H183 C176 0.929 . S
N12 N104 0.725 . S
C39 C131 2.641 . S
N150 N58 0.725 . S
C177 C85 2.641 . S
N140 N48 0.762 . S
C168 C76 3.477 . S
N2 N94 0.762 . S
C30 C122 3.477 . S
C53 C7 2.238 1_655 S
N71 N25 1.935 1_565 S
C99 C145 2.238 1_455 S
N163 N117 1.934 1_565 S
C16 N127 1.878 . S
C154 N35 1.878 . S
C62 N173 1.878 . S
N81 C108 1.878 . S
