# Generated by pormake.
# Topology una, (4)-cn, num edge types: 1
# Building blocks:
#     Node 0, Type 0, BuildingBlock: CEKHIL_clean_sbu_0, # of connection points: 4
#     Node 1, Type 0, BuildingBlock: CEKHIL_clean_sbu_0, # of connection points: 4
#     Node 2, Type 0, BuildingBlock: CEKHIL_clean_sbu_0, # of connection points: 4
#     Node 3, Type 0, BuildingBlock: CEKHIL_clean_sbu_0, # of connection points: 4
#     Node 4, Type 0, BuildingBlock: CEKHIL_clean_sbu_0, # of connection points: 4
#     Node 5, Type 0, BuildingBlock: CEKHIL_clean_sbu_0, # of connection points: 4
#     Node 6, Type 0, BuildingBlock: CEKHIL_clean_sbu_0, # of connection points: 4
#     Node 7, Type 0, BuildingBlock: CEKHIL_clean_sbu_0, # of connection points: 4
#     Node 8, Type 0, BuildingBlock: CEKHIL_clean_sbu_0, # of connection points: 4
#     Node 9, Type 0, BuildingBlock: CEKHIL_clean_sbu_0, # of connection points: 4
#     Node 10, Type 0, BuildingBlock: CEKHIL_clean_sbu_0, # of connection points: 4
#     Node 11, Type 0, BuildingBlock: CEKHIL_clean_sbu_0, # of connection points: 4
#     Edge 12, Type (0, 0), None
#     Edge 13, Type (0, 0), None
#     Edge 14, Type (0, 0), None
#     Edge 15, Type (0, 0), None
#     Edge 16, Type (0, 0), None
#     Edge 17, Type (0, 0), None
#     Edge 18, Type (0, 0), None
#     Edge 19, Type (0, 0), None
#     Edge 20, Type (0, 0), None
#     Edge 21, Type (0, 0), None
#     Edge 22, Type (0, 0), None
#     Edge 23, Type (0, 0), None
#     Edge 24, Type (0, 0), None
#     Edge 25, Type (0, 0), None
#     Edge 26, Type (0, 0), None
#     Edge 27, Type (0, 0), None
#     Edge 28, Type (0, 0), None
#     Edge 29, Type (0, 0), None
#     Edge 30, Type (0, 0), None
#     Edge 31, Type (0, 0), None
#     Edge 32, Type (0, 0), None
#     Edge 33, Type (0, 0), None
#     Edge 34, Type (0, 0), None
#     Edge 35, Type (0, 0), None
# Relax obj value: 0.018
# Max RMSD: 0.036
# Mean RMSD: 0.036
data_MOF--net-una--node1-CEKHIL_clean_sbu_0--edge1-none
_symmetry_space_group_name_H-M    P1
_symmetry_Int_Tables_number       1
_symmetry_cell_setting            triclinic
loop_
_symmetry_equiv_pos_as_xyz
'x, y, z'
_cell_length_a     25.604525
_cell_length_b     25.615808
_cell_length_c     9.4314779
_cell_angle_alpha  89.985016
_cell_angle_beta   90.030258
_cell_angle_gamma 120.03577
loop_
_atom_site_label
_atom_site_type_symbol
_atom_site_fract_x
_atom_site_fract_y
_atom_site_fract_z
_atom_type_partial_charge
Co0 Co 0.13875 0.44569 1.02404 0.0
O1 O 0.08946 0.44456 0.86708 0.0
O2 O 0.05414 0.39783 0.07209 0.0
C3 C 0.20048 0.43041 0.87829 0.0
O4 O 0.17432 0.4351 0.20957 0.0
Co5 Co 0.27798 0.52752 0.04722 0.0
O6 O 0.27203 0.4655 0.18228 0.0
C7 C 0.19345 0.57243 0.1337 0.0
C8 C 0.0433 0.40944 0.94473 0.0
C9 C 0.22388 0.43965 0.2552 0.0
O10 O 0.14469 0.52196 0.1077 0.0
O11 O 0.24659 0.58135 0.109 0.0
O12 O 0.15072 0.38405 0.92238 0.0
O13 O 0.21084 0.48176 0.9241 0.0
Co14 Co 0.70145 0.13448 0.19049 0.0
O15 O 0.65327 0.08515 0.03362 0.0
O16 O 0.66477 0.04992 0.23869 0.0
C17 C 0.77845 0.19621 0.04454 0.0
O18 O 0.74769 0.17012 0.37593 0.0
Co19 Co 0.75893 0.27367 0.21335 0.0
O20 O 0.81506 0.26778 0.34844 0.0
C21 C 0.62942 0.18912 0.30019 0.0
C22 C 0.64231 0.03904 0.11132 0.0
C23 C 0.79273 0.21968 0.42148 0.0
O24 O 0.63108 0.14037 0.27419 0.0
O25 O 0.67368 0.24224 0.27537 0.0
O26 O 0.77512 0.14652 0.08876 0.0
O27 O 0.73744 0.20652 0.09039 0.0
Co28 Co 0.57558 0.69737 0.35728 0.0
O29 O 0.57665 0.6492 0.20041 0.0
O30 O 0.62347 0.66069 0.40538 0.0
C31 C 0.59084 0.77433 0.21129 0.0
O32 O 0.58623 0.7436 0.54271 0.0
Co33 Co 0.49379 0.75471 0.38022 0.0
O34 O 0.5559 0.81088 0.51511 0.0
C35 C 0.44884 0.62527 0.46713 0.0
C36 C 0.61181 0.63821 0.27806 0.0
C37 C 0.58172 0.78861 0.5882 0.0
O38 O 0.49929 0.62699 0.44109 0.0
O39 O 0.43995 0.66947 0.44231 0.0
O40 O 0.63723 0.77101 0.25544 0.0
O41 O 0.53948 0.73331 0.2572 0.0
Co42 Co 0.8866 0.57127 0.52423 0.0
O43 O 0.93578 0.57232 0.36727 0.0
O44 O 0.97124 0.6191 0.5722 0.0
C45 C 0.82488 0.58659 0.37839 0.0
O46 O 0.85109 0.58194 0.70972 0.0
Co47 Co 0.74736 0.48955 0.54739 0.0
O48 O 0.75342 0.55168 0.68217 0.0
C49 C 0.83184 0.44454 0.6339 0.0
C50 C 0.982 0.60744 0.44485 0.0
C51 C 0.80156 0.57747 0.75521 0.0
O52 O 0.88062 0.49499 0.60796 0.0
O53 O 0.7787 0.43566 0.60917 0.0
O54 O 0.87466 0.63294 0.42246 0.0
O55 O 0.81448 0.53523 0.4243 0.0
Co56 Co 0.32378 0.88235 0.69062 0.0
O57 O 0.37196 0.93166 0.53378 0.0
O58 O 0.36051 0.96691 0.73878 0.0
C59 C 0.24677 0.82064 0.54461 0.0
O60 O 0.27755 0.84673 0.87602 0.0
Co61 Co 0.26626 0.74317 0.71363 0.0
O62 O 0.21014 0.74909 0.84851 0.0
C63 C 0.39583 0.82768 0.80026 0.0
C64 C 0.38295 0.97778 0.61144 0.0
C65 C 0.23248 0.7972 0.92152 0.0
O66 O 0.39415 0.87643 0.7744 0.0
O67 O 0.35156 0.77457 0.77543 0.0
O68 O 0.25012 0.87033 0.58875 0.0
O69 O 0.28777 0.81031 0.59059 0.0
Co70 Co 0.44979 0.31949 0.85722 0.0
O71 O 0.44865 0.36766 0.70038 0.0
O72 O 0.4019 0.35613 0.90536 0.0
C73 C 0.43454 0.24253 0.71126 0.0
O74 O 0.43919 0.27327 0.04266 0.0
Co75 Co 0.53164 0.2622 0.88031 0.0
O76 O 0.4696 0.20605 1.01528 0.0
C77 C 0.57658 0.39166 0.967 0.0
C78 C 0.41352 0.37863 0.77807 0.0
C79 C 0.44374 0.22828 0.08823 0.0
O80 O 0.52609 0.38989 0.94104 0.0
O81 O 0.58549 0.34747 0.9422 0.0
O82 O 0.38814 0.24583 0.75536 0.0
O83 O 0.4859 0.28357 0.75719 0.0
Co84 Co 0.57555 0.88237 0.97343 0.0
O85 O 0.57663 0.93159 0.13034 0.0
O86 O 0.62342 0.96696 0.92542 0.0
C87 C 0.59083 0.82066 0.11934 0.0
O88 O 0.5862 0.84682 0.78798 0.0
Co89 Co 0.49375 0.74319 0.9502 0.0
O90 O 0.55592 0.74919 0.8156 0.0
C91 C 0.44877 0.82767 0.86363 0.0
C92 C 0.61175 0.97775 0.05273 0.0
C93 C 0.58176 0.7973 0.74262 0.0
O94 O 0.49925 0.87641 0.8896 0.0
O95 O 0.43987 0.77455 0.88835 0.0
O96 O 0.63722 0.87041 0.07532 0.0
O97 O 0.53947 0.81028 0.07337 0.0
Co98 Co 0.70157 0.57133 0.14029 0.0
O99 O 0.65339 0.57241 0.29711 0.0
O100 O 0.66488 0.61919 0.09214 0.0
C101 C 0.77855 0.5866 0.28636 0.0
O102 O 0.74783 0.58197 0.95491 0.0
Co103 Co 0.75905 0.48966 0.11735 0.0
O104 O 0.81527 0.55182 0.98272 0.0
C105 C 0.62951 0.44461 0.03048 0.0
C106 C 0.64242 0.60757 0.21947 0.0
C107 C 0.79295 0.57758 0.90962 0.0
O108 O 0.63119 0.49503 0.05644 0.0
O109 O 0.67377 0.43578 0.05531 0.0
O110 O 0.77524 0.63297 0.24221 0.0
O111 O 0.73754 0.53526 0.24036 0.0
Co112 Co 0.13869 0.69726 0.30677 0.0
O113 O 0.08947 0.6491 0.46372 0.0
O114 O 0.05406 0.66046 0.25873 0.0
C115 C 0.20043 0.77429 0.45261 0.0
O116 O 0.17424 0.74345 0.12129 0.0
Co117 Co 0.27795 0.75484 0.28372 0.0
O118 O 0.2719 0.81096 0.149 0.0
C119 C 0.19343 0.62532 0.19706 0.0
C120 C 0.04327 0.63806 0.38613 0.0
C121 C 0.22377 0.78858 0.07593 0.0
O122 O 0.14465 0.62695 0.22308 0.0
O123 O 0.24657 0.66961 0.22178 0.0
O124 O 0.15067 0.77087 0.40849 0.0
O125 O 0.2108 0.73333 0.40674 0.0
Co126 Co 0.44979 0.13446 0.47356 0.0
O127 O 0.44871 0.08522 0.6305 0.0
O128 O 0.40189 0.04988 0.42551 0.0
C129 C 0.43454 0.19619 0.6194 0.0
O130 O 0.43916 0.17004 0.28807 0.0
Co131 Co 0.53164 0.27365 0.45048 0.0
O132 O 0.4695 0.26768 0.31567 0.0
C133 C 0.57653 0.18913 0.3637 0.0
C134 C 0.41355 0.03907 0.55285 0.0
C135 C 0.44365 0.21957 0.24265 0.0
O136 O 0.52607 0.14039 0.38981 0.0
O137 O 0.58545 0.24225 0.38841 0.0
O138 O 0.38815 0.14644 0.57531 0.0
O139 O 0.4859 0.20654 0.57357 0.0
Co140 Co 0.3238 0.44564 0.64048 0.0
O141 O 0.37199 0.44447 0.79731 0.0
O142 O 0.36042 0.39774 0.59225 0.0
C143 C 0.24683 0.43039 0.78646 0.0
O144 O 0.27755 0.43507 0.45506 0.0
Co145 Co 0.26643 0.52741 0.61754 0.0
O146 O 0.21021 0.46536 0.48262 0.0
C147 C 0.39592 0.57235 0.53068 0.0
C148 C 0.38291 0.40931 0.71958 0.0
C149 C 0.23248 0.43955 0.40963 0.0
O150 O 0.39421 0.52192 0.55671 0.0
O151 O 0.35169 0.58123 0.55548 0.0
O152 O 0.25012 0.38402 0.74229 0.0
O153 O 0.28788 0.48173 0.74056 0.0
Co154 Co 0.88654 0.3196 0.80683 0.0
O155 O 0.93584 0.36776 0.96376 0.0
O156 O 0.97114 0.35636 0.75875 0.0
C157 C 0.82481 0.24257 0.95265 0.0
O158 O 0.85095 0.27342 0.62135 0.0
Co159 Co 0.7473 0.26208 0.78362 0.0
O160 O 0.75327 0.20597 0.64883 0.0
C161 C 0.83183 0.39161 0.69719 0.0
C162 C 0.98199 0.37879 0.88611 0.0
C163 C 0.8014 0.22831 0.5759 0.0
O164 O 0.8806 0.38993 0.72313 0.0
O165 O 0.77869 0.34734 0.72188 0.0
O166 O 0.87455 0.24597 0.90858 0.0
O167 O 0.81446 0.28355 0.90675 0.0
loop_
_geom_bond_atom_site_label_1
_geom_bond_atom_site_label_2
_geom_bond_distance
_geom_bond_site_symmetry_2
_ccdc_geom_bond_type
Co0 O1 2.216 1_554 S
Co0 O2 2.091 . S
Co0 O4 2.004 . S
Co0 O10 2.021 . S
Co0 O12 2.137 1_554 S
Co0 O13 2.244 1_554 S
O1 Co0 2.216 1_556 S
O1 C8 1.247 . S
O2 Co0 2.091 . S
O2 C8 1.261 1_554 S
C3 O12 1.247 . S
C3 O13 1.272 . S
O4 Co0 2.004 . S
O4 C9 1.259 . S
Co5 O6 2.061 . S
Co5 O11 2.052 . S
Co5 O13 2.135 1_554 S
O6 Co5 2.061 . S
O6 C9 1.235 . S
C7 O10 1.238 . S
C7 O11 1.241 . S
C8 O1 1.247 . S
C8 O2 1.261 1_556 S
C9 O4 1.259 . S
C9 O6 1.235 . S
O10 Co0 2.021 . S
O10 C7 1.238 . S
O11 Co5 2.052 . S
O11 C7 1.241 . S
O12 Co0 2.137 1_556 S
O12 C3 1.247 . S
O13 Co0 2.244 1_556 S
O13 C3 1.272 . S
O13 Co5 2.135 1_556 S
Co14 O15 2.216 . S
Co14 O16 2.091 . S
Co14 O18 2.004 . S
Co14 O24 2.021 . S
Co14 O26 2.137 . S
Co14 O27 2.244 . S
O15 Co14 2.216 . S
O15 C22 1.247 . S
O16 Co14 2.091 . S
O16 C22 1.261 . S
C17 O26 1.247 . S
C17 O27 1.272 . S
O18 Co14 2.004 . S
O18 C23 1.259 . S
Co19 O20 2.061 . S
Co19 O25 2.052 . S
Co19 O27 2.135 . S
O20 Co19 2.061 . S
O20 C23 1.235 . S
C21 O24 1.238 . S
C21 O25 1.241 . S
C22 O15 1.247 . S
C22 O16 1.261 . S
C23 O18 1.259 . S
C23 O20 1.235 . S
O24 Co14 2.021 . S
O24 C21 1.238 . S
O25 Co19 2.052 . S
O25 C21 1.241 . S
O26 Co14 2.137 . S
O26 C17 1.247 . S
O27 Co14 2.244 . S
O27 C17 1.272 . S
O27 Co19 2.135 . S
Co28 O29 2.216 . S
Co28 O30 2.091 . S
Co28 O32 2.004 . S
Co28 O38 2.021 . S
Co28 O40 2.137 . S
Co28 O41 2.244 . S
O29 Co28 2.216 . S
O29 C36 1.247 . S
O30 Co28 2.091 . S
O30 C36 1.261 . S
C31 O40 1.247 . S
C31 O41 1.272 . S
O32 Co28 2.004 . S
O32 C37 1.259 . S
Co33 O34 2.061 . S
Co33 O39 2.052 . S
Co33 O41 2.135 . S
O34 Co33 2.061 . S
O34 C37 1.235 . S
C35 O38 1.238 . S
C35 O39 1.241 . S
C36 O29 1.247 . S
C36 O30 1.261 . S
C37 O32 1.259 . S
C37 O34 1.235 . S
O38 Co28 2.021 . S
O38 C35 1.238 . S
O39 Co33 2.052 . S
O39 C35 1.241 . S
O40 Co28 2.137 . S
O40 C31 1.247 . S
O41 Co28 2.244 . S
O41 C31 1.272 . S
O41 Co33 2.135 . S
Co42 O43 2.216 . S
Co42 O44 2.091 . S
Co42 O46 2.004 . S
Co42 O52 2.021 . S
Co42 O54 2.137 . S
Co42 O55 2.244 . S
O43 Co42 2.216 . S
O43 C50 1.247 . S
O44 Co42 2.091 . S
O44 C50 1.261 . S
C45 O54 1.247 . S
C45 O55 1.272 . S
O46 Co42 2.004 . S
O46 C51 1.259 . S
Co47 O48 2.061 . S
Co47 O53 2.052 . S
Co47 O55 2.135 . S
O48 Co47 2.061 . S
O48 C51 1.235 . S
C49 O52 1.238 . S
C49 O53 1.241 . S
C50 O43 1.247 . S
C50 O44 1.261 . S
C51 O46 1.259 . S
C51 O48 1.235 . S
O52 Co42 2.021 . S
O52 C49 1.238 . S
O53 Co47 2.052 . S
O53 C49 1.241 . S
O54 Co42 2.137 . S
O54 C45 1.247 . S
O55 Co42 2.244 . S
O55 C45 1.272 . S
O55 Co47 2.135 . S
Co56 O57 2.216 . S
Co56 O58 2.091 . S
Co56 O60 2.004 . S
Co56 O66 2.021 . S
Co56 O68 2.137 . S
Co56 O69 2.244 . S
O57 Co56 2.216 . S
O57 C64 1.247 . S
O58 Co56 2.091 . S
O58 C64 1.261 . S
C59 O68 1.247 . S
C59 O69 1.272 . S
O60 Co56 2.004 . S
O60 C65 1.259 . S
Co61 O62 2.061 . S
Co61 O67 2.052 . S
Co61 O69 2.135 . S
O62 Co61 2.061 . S
O62 C65 1.235 . S
C63 O66 1.238 . S
C63 O67 1.241 . S
C64 O57 1.247 . S
C64 O58 1.261 . S
C65 O60 1.259 . S
C65 O62 1.235 . S
O66 Co56 2.021 . S
O66 C63 1.238 . S
O67 Co61 2.052 . S
O67 C63 1.241 . S
O68 Co56 2.137 . S
O68 C59 1.247 . S
O69 Co56 2.244 . S
O69 C59 1.272 . S
O69 Co61 2.135 . S
Co70 O71 2.216 . S
Co70 O72 2.091 . S
Co70 O74 2.004 1_556 S
Co70 O80 2.021 . S
Co70 O82 2.137 . S
Co70 O83 2.244 . S
O71 Co70 2.216 . S
O71 C78 1.247 . S
O72 Co70 2.091 . S
O72 C78 1.261 . S
C73 O82 1.247 . S
C73 O83 1.272 . S
O74 Co70 2.004 1_554 S
O74 C79 1.259 . S
Co75 O76 2.061 1_556 S
Co75 O81 2.052 . S
Co75 O83 2.135 . S
O76 Co75 2.061 1_554 S
O76 C79 1.235 . S
C77 O80 1.238 . S
C77 O81 1.241 . S
C78 O71 1.247 . S
C78 O72 1.261 . S
C79 O74 1.259 . S
C79 O76 1.235 . S
O80 Co70 2.021 . S
O80 C77 1.238 . S
O81 Co75 2.052 . S
O81 C77 1.241 . S
O82 Co70 2.137 . S
O82 C73 1.247 . S
O83 Co70 2.244 . S
O83 C73 1.272 . S
O83 Co75 2.135 . S
Co84 O85 2.216 1_556 S
Co84 O86 2.091 . S
Co84 O88 2.004 . S
Co84 O94 2.021 . S
Co84 O96 2.137 1_556 S
Co84 O97 2.244 1_556 S
O85 Co84 2.216 1_554 S
O85 C92 1.247 . S
O86 Co84 2.091 . S
O86 C92 1.261 1_556 S
C87 O96 1.247 . S
C87 O97 1.272 . S
O88 Co84 2.004 . S
O88 C93 1.259 . S
Co89 O90 2.061 . S
Co89 O95 2.052 . S
Co89 O97 2.135 1_556 S
O90 Co89 2.061 . S
O90 C93 1.235 . S
C91 O94 1.238 . S
C91 O95 1.241 . S
C92 O85 1.247 . S
C92 O86 1.261 1_554 S
C93 O88 1.259 . S
C93 O90 1.235 . S
O94 Co84 2.021 . S
O94 C91 1.238 . S
O95 Co89 2.052 . S
O95 C91 1.241 . S
O96 Co84 2.137 1_554 S
O96 C87 1.247 . S
O97 Co84 2.244 1_554 S
O97 C87 1.272 . S
O97 Co89 2.135 1_554 S
Co98 O99 2.216 . S
Co98 O100 2.091 . S
Co98 O102 2.004 1_554 S
Co98 O108 2.021 1_554 S
Co98 O110 2.137 . S
Co98 O111 2.244 . S
O99 Co98 2.216 . S
O99 C106 1.247 . S
O100 Co98 2.091 . S
O100 C106 1.261 . S
C101 O110 1.247 . S
C101 O111 1.272 . S
O102 Co98 2.004 1_556 S
O102 C107 1.259 . S
Co103 O104 2.061 1_554 S
Co103 O109 2.052 . S
Co103 O111 2.135 . S
O104 Co103 2.061 1_556 S
O104 C107 1.235 . S
C105 O108 1.238 . S
C105 O109 1.241 1_556 S
C106 O99 1.247 . S
C106 O100 1.261 . S
C107 O102 1.259 . S
C107 O104 1.235 . S
O108 Co98 2.021 1_556 S
O108 C105 1.238 . S
O109 Co103 2.052 . S
O109 C105 1.241 1_554 S
O110 Co98 2.137 . S
O110 C101 1.247 . S
O111 Co98 2.244 . S
O111 C101 1.272 . S
O111 Co103 2.135 . S
Co112 O113 2.216 . S
Co112 O114 2.091 . S
Co112 O116 2.004 . S
Co112 O122 2.021 . S
Co112 O124 2.137 . S
Co112 O125 2.244 . S
O113 Co112 2.216 . S
O113 C120 1.247 . S
O114 Co112 2.091 . S
O114 C120 1.261 . S
C115 O124 1.247 . S
C115 O125 1.272 . S
O116 Co112 2.004 . S
O116 C121 1.259 . S
Co117 O118 2.061 . S
Co117 O123 2.052 . S
Co117 O125 2.135 . S
O118 Co117 2.061 . S
O118 C121 1.235 . S
C119 O122 1.238 . S
C119 O123 1.241 . S
C120 O113 1.247 . S
C120 O114 1.261 . S
C121 O116 1.259 . S
C121 O118 1.235 . S
O122 Co112 2.021 . S
O122 C119 1.238 . S
O123 Co117 2.052 . S
O123 C119 1.241 . S
O124 Co112 2.137 . S
O124 C115 1.247 . S
O125 Co112 2.244 . S
O125 C115 1.272 . S
O125 Co117 2.135 . S
Co126 O127 2.216 . S
Co126 O128 2.091 . S
Co126 O130 2.004 . S
Co126 O136 2.021 . S
Co126 O138 2.137 . S
Co126 O139 2.244 . S
O127 Co126 2.216 . S
O127 C134 1.247 . S
O128 Co126 2.091 . S
O128 C134 1.261 . S
C129 O138 1.247 . S
C129 O139 1.272 . S
O130 Co126 2.004 . S
O130 C135 1.259 . S
Co131 O132 2.061 . S
Co131 O137 2.052 . S
Co131 O139 2.135 . S
O132 Co131 2.061 . S
O132 C135 1.235 . S
C133 O136 1.238 . S
C133 O137 1.241 . S
C134 O127 1.247 . S
C134 O128 1.261 . S
C135 O130 1.259 . S
C135 O132 1.235 . S
O136 Co126 2.021 . S
O136 C133 1.238 . S
O137 Co131 2.052 . S
O137 C133 1.241 . S
O138 Co126 2.137 . S
O138 C129 1.247 . S
O139 Co126 2.244 . S
O139 C129 1.272 . S
O139 Co131 2.135 . S
Co140 O141 2.216 . S
Co140 O142 2.091 . S
Co140 O144 2.004 . S
Co140 O150 2.021 . S
Co140 O152 2.137 . S
Co140 O153 2.244 . S
O141 Co140 2.216 . S
O141 C148 1.247 . S
O142 Co140 2.091 . S
O142 C148 1.261 . S
C143 O152 1.247 . S
C143 O153 1.272 . S
O144 Co140 2.004 . S
O144 C149 1.259 . S
Co145 O146 2.061 . S
Co145 O151 2.052 . S
Co145 O153 2.135 . S
O146 Co145 2.061 . S
O146 C149 1.235 . S
C147 O150 1.238 . S
C147 O151 1.241 . S
C148 O141 1.247 . S
C148 O142 1.261 . S
C149 O144 1.259 . S
C149 O146 1.235 . S
O150 Co140 2.021 . S
O150 C147 1.238 . S
O151 Co145 2.052 . S
O151 C147 1.241 . S
O152 Co140 2.137 . S
O152 C143 1.247 . S
O153 Co140 2.244 . S
O153 C143 1.272 . S
O153 Co145 2.135 . S
Co154 O155 2.216 . S
Co154 O156 2.091 . S
Co154 O158 2.004 . S
Co154 O164 2.021 . S
Co154 O166 2.137 . S
Co154 O167 2.244 . S
O155 Co154 2.216 . S
O155 C162 1.247 . S
O156 Co154 2.091 . S
O156 C162 1.261 . S
C157 O166 1.247 . S
C157 O167 1.272 . S
O158 Co154 2.004 . S
O158 C163 1.259 . S
Co159 O160 2.061 . S
Co159 O165 2.052 . S
Co159 O167 2.135 . S
O160 Co159 2.061 . S
O160 C163 1.235 . S
C161 O164 1.238 . S
C161 O165 1.241 . S
C162 O155 1.247 . S
C162 O156 1.261 . S
C163 O158 1.259 . S
C163 O160 1.235 . S
O164 Co154 2.021 . S
O164 C161 1.238 . S
O165 Co159 2.052 . S
O165 C161 1.241 . S
O166 Co154 2.137 . S
O166 C157 1.247 . S
O167 Co154 2.244 . S
O167 C157 1.272 . S
O167 Co159 2.135 . S
C9 C149 1.303 . S
C163 C23 1.303 . S
C37 C93 1.303 . S
C51 C107 1.303 . S
C65 C121 1.303 1_556 S
C135 C79 1.303 . S
C7 C119 1.482 . S
C21 C133 1.482 . S
C147 C35 1.481 . S
C49 C161 1.482 . S
C63 C91 1.482 . S
C77 C105 1.482 . S
C143 C3 1.489 . S
C17 C157 1.490 1_554 S
C31 C87 1.490 . S
C45 C101 1.489 . S
C115 C59 1.490 . S
C73 C129 1.489 . S
C8 C162 1.474 1_455 S
C92 C22 1.474 1_565 S
C106 C36 1.474 . S
C120 C50 1.474 1_455 S
C134 C64 1.474 1_545 S
C148 C78 1.474 . S
