# Generated by pormake.
# Topology msw, (6)-cn, num edge types: 1
# Building blocks:
#     Node 0, Type 0, BuildingBlock: VOLQOD_clean_sbu_1, # of connection points: 6
#     Node 1, Type 0, BuildingBlock: VOLQOD_clean_sbu_1, # of connection points: 6
#     Edge 2, Type (0, 0), BuildingBlock: ZUJKAS_clean_linker_0, # of connection points: 2
#     Edge 3, Type (0, 0), BuildingBlock: ZUJKAS_clean_linker_0, # of connection points: 2
#     Edge 4, Type (0, 0), BuildingBlock: ZUJKAS_clean_linker_0, # of connection points: 2
#     Edge 5, Type (0, 0), BuildingBlock: ZUJKAS_clean_linker_0, # of connection points: 2
#     Edge 6, Type (0, 0), BuildingBlock: ZUJKAS_clean_linker_0, # of connection points: 2
#     Edge 7, Type (0, 0), BuildingBlock: ZUJKAS_clean_linker_0, # of connection points: 2
# Relax obj value: 0.242
# Max RMSD: 0.190
# Mean RMSD: 0.190
data_MOF--net-msw--node1-VOLQOD_clean_sbu_1--edge1-ZUJKAS_clean_linker_0
_symmetry_space_group_name_H-M    P1
_symmetry_Int_Tables_number       1
_symmetry_cell_setting            triclinic
loop_
_symmetry_equiv_pos_as_xyz
'x, y, z'
_cell_length_a     26.055694
_cell_length_b     26.617751
_cell_length_c     19.090109
_cell_angle_alpha  90.835356
_cell_angle_beta   91.030115
_cell_angle_gamma 90.152372
loop_
_atom_site_label
_atom_site_type_symbol
_atom_site_fract_x
_atom_site_fract_y
_atom_site_fract_z
_atom_type_partial_charge
O0 O 0.8262 0.27929 0.37682 0.0
Zn1 Zn 0.86332 0.26311 0.28661 0.0
O2 O 0.81839 0.28321 0.21306 0.0
Zn3 Zn 0.79801 0.22535 0.16112 0.0
Zn4 Zn 0.75651 0.31189 0.24361 0.0
Zn5 Zn 0.85207 0.33205 0.15696 0.0
O6 O 0.79321 0.25181 0.06454 0.0
O7 O 0.86857 0.29171 0.07094 0.0
O8 O 0.89847 0.19488 0.26185 0.0
O9 O 0.85385 0.1755 0.16463 0.0
O10 O 0.73379 0.19362 0.20231 0.0
O11 O 0.70476 0.25836 0.264 0.0
O12 O 0.72893 0.36429 0.17576 0.0
O13 O 0.91856 0.31341 0.29879 0.0
O14 O 0.80083 0.3835 0.12157 0.0
O15 O 0.91136 0.36809 0.21273 0.0
C16 C 0.80166 0.32085 0.3844 0.0
C17 C 0.82964 0.27559 0.03546 0.0
C18 C 0.70153 0.21243 0.24485 0.0
C19 C 0.89051 0.16677 0.20753 0.0
C20 C 0.75298 0.39022 0.13106 0.0
C21 C 0.9321 0.35406 0.27046 0.0
O22 O 0.77704 0.34109 0.33396 0.0
O23 O 0.30693 0.74613 0.54404 0.0
Zn24 Zn 0.3311 0.72943 0.64216 0.0
O25 O 0.31355 0.78606 0.69758 0.0
Zn26 Zn 0.37139 0.80528 0.75485 0.0
Zn27 Zn 0.28434 0.84302 0.65504 0.0
Zn28 Zn 0.2724 0.76956 0.77686 0.0
O29 O 0.3317 0.79748 0.85099 0.0
O30 O 0.32905 0.79642 0.85142 0.0
O31 O 0.40384 0.70099 0.66476 0.0
O32 O 0.42466 0.75243 0.75332 0.0
O33 O 0.40076 0.87221 0.71949 0.0
O34 O 0.341 0.89215 0.6398 0.0
O35 O 0.22845 0.87654 0.71588 0.0
O36 O 0.28329 0.6754 0.66604 0.0
O37 O 0.21438 0.81638 0.79223 0.0
O38 O 0.24289 0.69723 0.76349 0.0
C39 C 0.27386 0.77873 0.52382 0.0
C40 C 0.33263 0.80864 0.91579 0.0
C41 C 0.38451 0.90008 0.66962 0.0
C42 C 0.43393 0.71372 0.71589 0.0
C43 C 0.20404 0.85944 0.76803 0.0
C44 C 0.25075 0.66618 0.71284 0.0
O45 O 0.25954 0.81583 0.56205 0.0
H46 H 0.74262 0.32522 0.00429 0.0
H47 H 0.72784 0.38104 0.90623 0.0
H48 H 0.87437 0.33799 0.82147 0.0
H49 H 0.89146 0.28656 0.92422 0.0
H50 H 0.86256 0.43191 0.80257 0.0
H51 H 0.67454 0.34311 0.72553 0.0
H52 H 0.67775 0.37588 0.80794 0.0
H53 H 0.7128 0.31808 0.79581 0.0
C54 C 0.77138 0.32754 -0.03583 0.0
C55 C 0.8178 0.30125 -0.02956 0.0
C56 C 0.7629 0.35948 0.90821 0.0
C57 C 0.79954 0.36345 0.85582 0.0
C58 C 0.84563 0.33615 0.86169 0.0
H59 H 0.86526 0.3049 0.49728 0.0
H60 H 0.86497 0.35014 0.60934 0.0
C61 C 0.85511 0.30602 0.91938 0.0
C62 C 0.7898 0.39308 0.79223 0.0
H63 H 0.71818 0.38577 0.6419 0.0
C64 C 0.83034 0.42277 0.76786 0.0
C65 C 0.74643 0.38363 0.74797 0.0
C66 C 0.70049 0.35338 0.77033 0.0
C67 C 0.83348 0.43411 0.69684 0.0
C68 C 0.79423 0.41693 0.65094 0.0
C69 C 0.74882 0.39744 0.67785 0.0
C70 C 0.80519 0.40233 0.5785 0.0
C71 C 0.88126 0.4588 0.67014 0.0
C72 C 0.77187 0.41693 0.52446 0.0
C73 C 0.77126 0.3905 0.46114 0.0
C74 C 0.8037 0.3488 0.45123 0.0
C75 C 0.83911 0.33609 0.50407 0.0
C76 C 0.8399 0.36281 0.56731 0.0
H77 H 0.89729 0.48596 0.70955 0.0
H78 H 0.91081 0.42964 0.6606 0.0
H79 H 0.8734 0.47855 0.62024 0.0
H80 H 0.74416 0.44659 0.5329 0.0
H81 H 0.74395 0.40174 0.42093 0.0
H82 H 0.21404 0.69969 0.48431 0.0
H83 H 0.1658 0.68896 0.37331 0.0
H84 H 0.22757 0.82994 0.30246 0.0
H85 H 0.27209 0.84215 0.41505 0.0
H86 H 0.12947 0.81845 0.25813 0.0
H87 H 0.23462 0.63973 0.2031 0.0
H88 H 0.19193 0.64342 0.27572 0.0
H89 H 0.25192 0.67711 0.27924 0.0
C90 C 0.21705 0.72811 0.44449 0.0
C91 C 0.24754 0.77107 0.45643 0.0
C92 C 0.18946 0.72208 0.38145 0.0
C93 C 0.19369 0.75816 0.32895 0.0
C94 C 0.22333 0.80167 0.34226 0.0
H95 H 0.31419 0.85608 0.03651 0.0
H96 H 0.24582 0.83949 0.11863 0.0
C97 C 0.24944 0.8084 0.40591 0.0
C98 C 0.17305 0.74962 0.25704 0.0
H99 H 0.21541 0.69113 0.10963 0.0
C100 C 0.14638 0.78944 0.22544 0.0
C101 C 0.19287 0.71059 0.21421 0.0
C102 C 0.21942 0.66519 0.24439 0.0
C103 C 0.14914 0.79687 0.15316 0.0
C104 C 0.17846 0.76323 0.11273 0.0
C105 C 0.19437 0.71767 0.14174 0.0
C106 C 0.20897 0.7816 0.05414 0.0
C107 C 0.12713 0.84412 0.1223 0.0
C108 C 0.21096 0.75458 -0.00928 0.0
C109 C 0.25028 0.76402 0.94387 0.0
C110 C 0.2885 0.79999 0.96074 0.0
C111 C 0.28527 0.82811 0.02279 0.0
C112 C 0.24563 0.8193 0.06892 0.0
H113 H 0.09073 0.85446 0.14821 0.0
H114 H 0.15464 0.87556 0.1313 0.0
H115 H 0.11995 0.83967 0.06501 0.0
H116 H 0.18383 0.72452 -0.02068 0.0
H117 H 0.25217 0.74148 0.8964 0.0
H118 H 0.49962 0.73115 0.82582 0.0
H119 H 0.55866 0.6737 0.88081 0.0
H120 H 0.52679 0.56293 0.71858 0.0
H121 H 0.46393 0.62013 0.66455 0.0
H122 H 0.5273 0.51846 0.83706 0.0
H123 H 0.70051 0.63615 0.84422 0.0
H124 H 0.65036 0.67081 0.88536 0.0
H125 H 0.64435 0.65342 0.7937 0.0
C126 C 0.50541 0.69497 0.80053 0.0
C127 C 0.47673 0.68062 0.74014 0.0
C128 C 0.53998 0.66206 0.83211 0.0
C129 C 0.54863 0.61411 0.80336 0.0
C130 C 0.52129 0.59986 0.74174 0.0
H131 H 0.79 0.44323 0.02076 0.0
H132 H 0.74187 0.4928 0.93604 0.0
C133 C 0.48561 0.63276 0.71046 0.0
C134 C 0.5831 0.57837 0.84157 0.0
H135 H 0.69547 0.57409 0.93648 0.0
C136 C 0.56451 0.53035 0.85769 0.0
C137 C 0.63246 0.59278 0.86741 0.0
C138 C 0.65819 0.64089 0.84592 0.0
C139 C 0.59245 0.49777 0.90158 0.0
C140 C 0.63924 0.51448 0.9334 0.0
C141 C 0.65903 0.56139 0.91418 0.0
C142 C 0.6685 0.48411 -0.01385 0.0
C143 C 0.57167 0.44551 0.9122 0.0
C144 C 0.64409 0.4634 0.04433 0.0
C145 C 0.67152 0.4339 0.09238 0.0
C146 C 0.72441 0.42548 0.08457 0.0
C147 C 0.74931 0.44862 0.0286 0.0
C148 C 0.72168 0.47714 -0.02019 0.0
H149 H 0.54777 0.43281 0.86648 0.0
H150 H 0.60303 0.41793 0.92031 0.0
H151 H 0.54678 0.44565 0.95876 0.0
H152 H 0.60366 0.46988 0.0527 0.0
H153 H 0.65111 0.41732 0.13527 0.0
H154 H 1.00468 0.42528 0.23104 0.0
H155 H 0.05987 0.4769 0.31085 0.0
H156 H 0.98453 0.41364 0.48864 0.0
H157 H 0.9318 0.36167 0.41098 0.0
H158 H 1.04154 0.54816 0.41247 0.0
H159 H 0.13108 0.38388 0.53815 0.0
H160 H 0.09272 0.37827 0.45885 0.0
H161 H 0.06255 0.3809 0.54306 0.0
C162 C 1.00035 0.42238 0.28715 0.0
C163 C 0.96492 0.38827 0.31454 0.0
C164 C 1.03174 0.45186 0.33274 0.0
C165 C 1.02761 0.44794 0.40609 0.0
C166 C 0.99014 0.41599 0.43269 0.0
H167 H 0.14587 0.66404 0.72162 0.0
H168 H 0.08892 0.60877 0.65107 0.0
C169 C 0.9598 0.38627 0.38782 0.0
C170 C 0.06183 0.47665 0.45604 0.0
H171 H 0.13907 0.46207 0.60114 0.0
C172 C 0.06321 0.52934 0.45336 0.0
C173 C 0.09085 0.45222 0.50905 0.0
C174 C 0.09471 0.3957 0.51203 0.0
C175 C 0.09164 0.55815 0.5031 0.0
C176 C 0.11815 0.53372 0.55853 0.0
C177 C 0.11775 0.48101 0.56001 0.0
C178 C 0.15013 0.5618 0.61188 0.0
C179 C 0.09407 0.61439 0.49461 0.0
C180 C 0.20269 0.5511 0.61859 0.0
C181 C 0.2349 0.58172 0.66019 0.0
C182 C 0.21538 0.62382 0.69621 0.0
C183 C 0.162 0.63153 0.69536 0.0
C184 C 0.1296 0.60067 0.65357 0.0
H185 H 0.08313 0.62563 0.44054 0.0
H186 H 0.06693 0.63256 0.53118 0.0
H187 H 0.13323 0.62898 0.50686 0.0
H188 H 0.21954 0.52103 0.5879 0.0
H189 H 0.2759 0.57505 0.65931 0.0
H190 H 0.13855 0.82971 0.86942 0.0
H191 H 0.08886 0.8822 0.9485 0.0
H192 H 0.1397 1.01462 0.84206 0.0
H193 H 0.1893 0.96197 0.76132 0.0
H194 H 0.12479 0.95413 0.04082 0.0
H195 H 0.98591 1.03754 0.8518 0.0
H196 H 1.02533 0.98425 0.8294 0.0
H197 H 1.05214 0.04656 0.83063 0.0
C198 C 0.13858 0.86995 0.86167 0.0
C199 C 0.16781 0.8915 0.80834 0.0
C200 C 0.11033 0.89999 0.90752 0.0
C201 C 0.11031 0.95242 0.90143 0.0
C202 C 0.1384 0.97419 0.84727 0.0
H203 H 0.99597 0.16649 0.21918 0.0
H204 H 1.054 0.11263 0.15108 0.0
C205 C 0.16667 0.94401 0.80093 0.0
C206 C 0.08189 0.98378 0.95324 0.0
H207 H 0.98338 0.06747 -0.03127 0.0
C208 C 0.09399 0.97909 0.02504 0.0
C209 C 1.0414 1.01605 0.93284 0.0
C210 C 1.02497 1.02123 0.85709 0.0
C211 C 0.06657 1.00549 0.07673 0.0
C212 C 1.02624 1.03781 0.05621 0.0
C213 C 1.01449 0.04284 -0.01553 0.0
C214 C 0.99357 0.06492 0.10772 0.0
C215 C 0.07982 0.99749 0.15295 0.0
C216 C 0.9407 0.055 0.10809 0.0
C217 C 0.90779 0.08542 0.14693 0.0
C218 C 0.92684 0.12668 0.18641 0.0
C219 C 0.98025 0.13445 0.19041 0.0
C220 C 1.01339 0.10388 0.15104 0.0
H221 H 0.10553 0.9647 0.16051 0.0
H222 H 0.09962 1.03143 0.17455 0.0
H223 H 1.04445 0.99172 0.18345 0.0
H224 H 0.9245 1.02509 0.07545 0.0
H225 H 0.86683 0.07857 0.1425 0.0
H226 H 0.48967 0.9093 0.68195 0.0
H227 H 0.5453 0.96288 0.61213 0.0
H228 H 0.41186 1.03021 0.51572 0.0
H229 H 0.35632 0.97679 0.58428 0.0
H230 H 0.48077 0.99461 0.41888 0.0
H231 H 0.58004 0.11303 0.62178 0.0
H232 H 0.58359 0.04647 0.63553 0.0
H233 H 0.52262 0.07763 0.63952 0.0
C234 C 0.4722 0.93644 0.64724 0.0
C235 C 0.41847 0.93862 0.63875 0.0
C236 C 0.50407 0.96702 0.6072 0.0
C237 C 0.48279 1.00064 0.55857 0.0
C238 C 0.42922 1.00443 0.55257 0.0
H239 H 0.62474 0.24106 0.33258 0.0
H240 H 0.57199 0.18755 0.40511 0.0
C241 C 0.39748 0.97392 0.59215 0.0
C242 C 0.51566 1.02964 0.51039 0.0
H243 H 0.60802 0.12083 0.50517 0.0
C244 C 0.50867 1.02217 0.43776 0.0
C245 C 0.55186 0.06576 0.53497 0.0
C246 C 0.55987 0.07668 0.61215 0.0
C247 C 0.53655 0.04998 0.38915 0.0
C248 C 0.573 0.08587 0.4137 0.0
C249 C 0.58022 0.09316 0.48633 0.0
C250 C 0.60274 0.11764 0.36514 0.0
C251 C 0.52567 1.04169 0.31194 0.0
C252 C 0.63706 0.0962 0.31729 0.0
C253 C 0.66724 0.12681 0.2751 0.0
C254 C 0.66398 0.17954 0.28035 0.0
C255 C 0.62836 0.20068 0.32686 0.0
C256 C 0.59827 0.17012 0.3688 0.0
H257 H 0.48857 1.02191 0.30221 0.0
H258 H 0.5248 0.07796 0.28393 0.0
H259 H 0.55659 1.01829 0.28931 0.0
H260 H 0.64175 0.05583 0.31416 0.0
H261 H 0.69459 0.10918 0.24055 0.0
loop_
_geom_bond_atom_site_label_1
_geom_bond_atom_site_label_2
_geom_bond_distance
_geom_bond_site_symmetry_2
_ccdc_geom_bond_type
O0 Zn1 1.953 . S
O0 C16 1.225 . S
Zn1 O0 1.953 . S
Zn1 O2 1.949 . S
Zn1 O8 1.919 . S
Zn1 O13 1.924 . S
O2 Zn1 1.949 . S
O2 Zn3 1.923 . S
O2 Zn4 1.950 . S
O2 Zn5 1.945 . S
Zn3 O2 1.923 . S
Zn3 O6 1.933 . S
Zn3 O9 1.941 . S
Zn3 O10 1.965 . S
Zn4 O2 1.950 . S
Zn4 O11 1.938 . S
Zn4 O12 1.906 . S
Zn4 O22 1.953 . S
Zn5 O2 1.945 . S
Zn5 O7 1.932 . S
Zn5 O14 1.977 . S
Zn5 O15 1.910 . S
O6 Zn3 1.933 . S
O6 C17 1.226 . S
O7 Zn5 1.932 . S
O7 C17 1.307 . S
O8 Zn1 1.919 . S
O8 C19 1.253 . S
O9 Zn3 1.941 . S
O9 C19 1.283 . S
O10 Zn3 1.965 . S
O10 C18 1.303 . S
O11 Zn4 1.938 . S
O11 C18 1.247 . S
O12 Zn4 1.906 . S
O12 C20 1.304 . S
O13 Zn1 1.924 . S
O13 C21 1.311 . S
O14 Zn5 1.977 . S
O14 C20 1.272 . S
O15 Zn5 1.910 . S
O15 C21 1.231 . S
C16 O0 1.225 . S
C16 O22 1.298 . S
C17 O6 1.226 . S
C17 O7 1.307 . S
C18 O10 1.303 . S
C18 O11 1.247 . S
C19 O8 1.253 . S
C19 O9 1.283 . S
C20 O12 1.304 . S
C20 O14 1.272 . S
C21 O13 1.311 . S
C21 O15 1.231 . S
O22 Zn4 1.953 . S
O22 C16 1.298 . S
O23 Zn24 1.953 . S
O23 C39 1.225 . S
Zn24 O23 1.953 . S
Zn24 O25 1.949 . S
Zn24 O31 1.919 . S
Zn24 O36 1.924 . S
O25 Zn24 1.949 . S
O25 Zn26 1.923 . S
O25 Zn27 1.950 . S
O25 Zn28 1.945 . S
Zn26 O25 1.923 . S
Zn26 O29 1.933 . S
Zn26 O32 1.941 . S
Zn26 O33 1.965 . S
Zn27 O25 1.950 . S
Zn27 O34 1.938 . S
Zn27 O35 1.906 . S
Zn27 O45 1.953 . S
Zn28 O25 1.945 . S
Zn28 O30 1.932 . S
Zn28 O37 1.977 . S
Zn28 O38 1.910 . S
O29 Zn26 1.933 . S
O29 C40 1.226 . S
O30 Zn28 1.932 . S
O30 C40 1.307 . S
O31 Zn24 1.919 . S
O31 C42 1.253 . S
O32 Zn26 1.941 . S
O32 C42 1.283 . S
O33 Zn26 1.965 . S
O33 C41 1.303 . S
O34 Zn27 1.938 . S
O34 C41 1.247 . S
O35 Zn27 1.906 . S
O35 C43 1.304 . S
O36 Zn24 1.924 . S
O36 C44 1.311 . S
O37 Zn28 1.977 . S
O37 C43 1.272 . S
O38 Zn28 1.910 . S
O38 C44 1.231 . S
C39 O23 1.225 . S
C39 O45 1.298 . S
C40 O29 1.226 . S
C40 O30 1.307 . S
C41 O33 1.303 . S
C41 O34 1.247 . S
C42 O31 1.253 . S
C42 O32 1.283 . S
C43 O35 1.304 . S
C43 O37 1.272 . S
C44 O36 1.311 . S
C44 O38 1.231 . S
O45 Zn27 1.953 . S
O45 C39 1.298 . S
H46 C54 0.929 . S
H47 C56 0.930 . S
H48 C58 0.930 . S
H49 C61 0.929 . S
H50 C64 0.930 . S
H51 C66 0.960 . S
H52 C66 0.960 . S
H53 C66 0.960 . S
C54 H46 0.929 . S
C54 C55 1.377 . S
C54 C56 1.384 1_554 S
C55 C54 1.377 . S
C55 C61 1.390 . S
C56 H47 0.930 . S
C56 C54 1.384 1_556 S
C56 C57 1.372 . S
C57 C56 1.372 . S
C57 C58 1.400 . S
C57 C62 1.490 . S
C58 H48 0.930 . S
C58 C57 1.400 . S
C58 C61 1.386 1_556 S
H59 C75 0.930 . S
H60 C76 0.931 . S
C61 H49 0.929 . S
C61 C55 1.390 . S
C61 C58 1.386 1_554 S
C62 C57 1.490 . S
C62 C64 1.395 . S
C62 C65 1.403 . S
H63 C69 0.930 . S
C64 H50 0.930 . S
C64 C62 1.395 . S
C64 C67 1.403 . S
C65 C62 1.403 . S
C65 C66 1.524 . S
C65 C69 1.400 . S
C66 H51 0.960 . S
C66 H52 0.960 . S
C66 H53 0.960 . S
C66 C65 1.524 . S
C67 C64 1.403 . S
C67 C68 1.392 . S
C67 C71 1.495 . S
C68 C67 1.392 . S
C68 C69 1.385 . S
C68 C70 1.478 . S
C69 H63 0.930 . S
C69 C65 1.400 . S
C69 C68 1.385 . S
C70 C68 1.478 . S
C70 C72 1.381 . S
C70 C76 1.383 . S
C71 C67 1.495 . S
C71 H77 0.959 . S
C71 H78 0.961 . S
C71 H79 0.960 . S
C72 C70 1.381 . S
C72 C73 1.394 . S
C72 H80 0.930 . S
C73 C72 1.394 . S
C73 C74 1.383 . S
C73 H81 0.929 . S
C74 C73 1.383 . S
C74 C75 1.377 . S
C75 H59 0.930 . S
C75 C74 1.377 . S
C75 C76 1.379 . S
C76 H60 0.931 . S
C76 C70 1.383 . S
C76 C75 1.379 . S
H77 C71 0.959 . S
H78 C71 0.961 . S
H79 C71 0.960 . S
H80 C72 0.930 . S
H81 C73 0.929 . S
H82 C90 0.929 . S
H83 C92 0.930 . S
H84 C94 0.930 . S
H85 C97 0.929 . S
H86 C100 0.930 . S
H87 C102 0.960 . S
H88 C102 0.960 . S
H89 C102 0.960 . S
C90 H82 0.929 . S
C90 C91 1.377 . S
C90 C92 1.384 . S
C91 C90 1.377 . S
C91 C97 1.390 . S
C92 H83 0.930 . S
C92 C90 1.384 . S
C92 C93 1.372 . S
C93 C92 1.372 . S
C93 C94 1.400 . S
C93 C98 1.490 . S
C94 H84 0.930 . S
C94 C93 1.400 . S
C94 C97 1.386 . S
H95 C111 0.930 . S
H96 C112 0.931 . S
C97 H85 0.929 . S
C97 C91 1.390 . S
C97 C94 1.386 . S
C98 C93 1.490 . S
C98 C100 1.395 . S
C98 C101 1.403 . S
H99 C105 0.930 . S
C100 H86 0.930 . S
C100 C98 1.395 . S
C100 C103 1.403 . S
C101 C98 1.403 . S
C101 C102 1.524 . S
C101 C105 1.400 . S
C102 H87 0.960 . S
C102 H88 0.960 . S
C102 H89 0.960 . S
C102 C101 1.524 . S
C103 C100 1.403 . S
C103 C104 1.392 . S
C103 C107 1.495 . S
C104 C103 1.392 . S
C104 C105 1.385 . S
C104 C106 1.478 . S
C105 H99 0.930 . S
C105 C101 1.400 . S
C105 C104 1.385 . S
C106 C104 1.478 . S
C106 C108 1.381 . S
C106 C112 1.383 . S
C107 C103 1.495 . S
C107 H113 0.959 . S
C107 H114 0.961 . S
C107 H115 0.960 . S
C108 C106 1.381 . S
C108 C109 1.394 1_554 S
C108 H116 0.930 . S
C109 C108 1.394 1_556 S
C109 C110 1.383 . S
C109 H117 0.929 . S
C110 C109 1.383 . S
C110 C111 1.377 . S
C111 H95 0.930 . S
C111 C110 1.377 . S
C111 C112 1.379 1_556 S
C112 H96 0.931 . S
C112 C106 1.383 . S
C112 C111 1.379 1_554 S
H113 C107 0.959 . S
H114 C107 0.961 . S
H115 C107 0.960 . S
H116 C108 0.930 . S
H117 C109 0.929 . S
H118 C126 0.929 . S
H119 C128 0.930 1_554 S
H120 C130 0.930 . S
H121 C133 0.929 . S
H122 C136 0.930 . S
H123 C138 0.960 . S
H124 C138 0.960 . S
H125 C138 0.960 . S
C126 H118 0.929 . S
C126 C127 1.377 . S
C126 C128 1.384 . S
C127 C126 1.377 . S
C127 C133 1.390 . S
C128 H119 0.930 1_556 S
C128 C126 1.384 . S
C128 C129 1.372 . S
C129 C128 1.372 . S
C129 C130 1.400 . S
C129 C134 1.490 . S
C130 H120 0.930 . S
C130 C129 1.400 . S
C130 C133 1.386 . S
H131 C147 0.930 . S
H132 C148 0.931 . S
C133 H121 0.929 . S
C133 C127 1.390 . S
C133 C130 1.386 . S
C134 C129 1.490 . S
C134 C136 1.395 1_556 S
C134 C137 1.403 . S
H135 C141 0.930 . S
C136 H122 0.930 . S
C136 C134 1.395 1_554 S
C136 C139 1.403 . S
C137 C134 1.403 . S
C137 C138 1.524 . S
C137 C141 1.400 . S
C138 H123 0.960 . S
C138 H124 0.960 . S
C138 H125 0.960 . S
C138 C137 1.524 . S
C139 C136 1.403 . S
C139 C140 1.392 . S
C139 C143 1.495 . S
C140 C139 1.392 . S
C140 C141 1.385 1_554 S
C140 C142 1.478 . S
C141 H135 0.930 . S
C141 C137 1.400 . S
C141 C140 1.385 1_556 S
C142 C140 1.478 . S
C142 C144 1.381 . S
C142 C148 1.383 . S
C143 C139 1.495 . S
C143 H149 0.959 . S
C143 H150 0.961 . S
C143 H151 0.960 . S
C144 C142 1.381 . S
C144 C145 1.394 . S
C144 H152 0.930 . S
C145 C144 1.394 . S
C145 C146 1.383 . S
C145 H153 0.929 . S
C146 C145 1.383 . S
C146 C147 1.377 . S
C147 H131 0.930 . S
C147 C146 1.377 . S
C147 C148 1.379 . S
C148 H132 0.931 . S
C148 C142 1.383 . S
C148 C147 1.379 . S
H149 C143 0.959 . S
H150 C143 0.961 . S
H151 C143 0.960 . S
H152 C144 0.930 . S
H153 C145 0.929 . S
H154 C162 0.929 . S
H155 C164 0.930 . S
H156 C166 0.930 . S
H157 C169 0.929 . S
H158 C172 0.930 . S
H159 C174 0.960 . S
H160 C174 0.960 . S
H161 C174 0.960 . S
C162 H154 0.929 . S
C162 C163 1.377 . S
C162 C164 1.384 . S
C163 C162 1.377 . S
C163 C169 1.390 . S
C164 H155 0.930 . S
C164 C162 1.384 . S
C164 C165 1.372 . S
C165 C164 1.372 . S
C165 C166 1.400 . S
C165 C170 1.490 . S
C166 H156 0.930 . S
C166 C165 1.400 . S
C166 C169 1.386 . S
H167 C183 0.930 . S
H168 C184 0.931 . S
C169 H157 0.929 . S
C169 C163 1.390 . S
C169 C166 1.386 . S
C170 C165 1.490 . S
C170 C172 1.395 . S
C170 C173 1.403 1_655 S
H171 C177 0.930 . S
C172 H158 0.930 . S
C172 C170 1.395 . S
C172 C175 1.403 . S
C173 C170 1.403 1_455 S
C173 C174 1.524 . S
C173 C177 1.400 . S
C174 H159 0.960 . S
C174 H160 0.960 . S
C174 H161 0.960 . S
C174 C173 1.524 . S
C175 C172 1.403 . S
C175 C176 1.392 1_655 S
C175 C179 1.495 . S
C176 C175 1.392 1_455 S
C176 C177 1.385 . S
C176 C178 1.478 . S
C177 H171 0.930 . S
C177 C173 1.400 . S
C177 C176 1.385 . S
C178 C176 1.478 . S
C178 C180 1.381 . S
C178 C184 1.383 . S
C179 C175 1.495 . S
C179 H185 0.959 . S
C179 H186 0.961 . S
C179 H187 0.960 . S
C180 C178 1.381 . S
C180 C181 1.394 . S
C180 H188 0.930 . S
C181 C180 1.394 . S
C181 C182 1.383 . S
C181 H189 0.929 . S
C182 C181 1.383 . S
C182 C183 1.377 . S
C183 H167 0.930 . S
C183 C182 1.377 . S
C183 C184 1.379 . S
C184 H168 0.931 . S
C184 C178 1.383 . S
C184 C183 1.379 . S
H185 C179 0.959 . S
H186 C179 0.961 . S
H187 C179 0.960 . S
H188 C180 0.930 . S
H189 C181 0.929 . S
H190 C198 0.929 . S
H191 C200 0.930 . S
H192 C202 0.930 . S
H193 C205 0.929 . S
H194 C208 0.930 . S
H195 C210 0.960 . S
H196 C210 0.960 . S
H197 C210 0.960 . S
C198 H190 0.929 . S
C198 C199 1.377 . S
C198 C200 1.384 . S
C199 C198 1.377 . S
C199 C205 1.390 . S
C200 H191 0.930 . S
C200 C198 1.384 . S
C200 C201 1.372 . S
C201 C200 1.372 . S
C201 C202 1.400 . S
C201 C206 1.490 . S
C202 H192 0.930 . S
C202 C201 1.400 . S
C202 C205 1.386 . S
H203 C219 0.930 . S
H204 C220 0.931 . S
C205 H193 0.929 . S
C205 C199 1.390 . S
C205 C202 1.386 . S
C206 C201 1.490 . S
C206 C208 1.395 1_556 S
C206 C209 1.403 1_565 S
H207 C213 0.930 . S
C208 H194 0.930 . S
C208 C206 1.395 1_554 S
C208 C211 1.403 1_455 S
C209 C206 1.403 1_545 S
C209 C210 1.524 . S
C209 C213 1.400 1_455 S
C210 H195 0.960 . S
C210 H196 0.960 . S
C210 H197 0.960 . S
C210 C209 1.524 . S
C211 C208 1.403 1_655 S
C211 C212 1.392 1_565 S
C211 C215 1.495 . S
C212 C211 1.392 1_545 S
C212 C213 1.385 1_554 S
C212 C214 1.478 . S
C213 H207 0.930 . S
C213 C209 1.400 1_655 S
C213 C212 1.385 1_556 S
C214 C212 1.478 . S
C214 C216 1.381 . S
C214 C220 1.383 . S
C215 C211 1.495 . S
C215 H221 0.959 . S
C215 H222 0.961 . S
C215 H223 0.960 . S
C216 C214 1.381 . S
C216 C217 1.394 . S
C216 H224 0.930 . S
C217 C216 1.394 . S
C217 C218 1.383 . S
C217 H225 0.929 . S
C218 C217 1.383 . S
C218 C219 1.377 . S
C219 H203 0.930 . S
C219 C218 1.377 . S
C219 C220 1.379 . S
C220 H204 0.931 . S
C220 C214 1.383 . S
C220 C219 1.379 . S
H221 C215 0.959 . S
H222 C215 0.961 . S
H223 C215 0.960 . S
H224 C216 0.930 . S
H225 C217 0.929 . S
H226 C234 0.929 . S
H227 C236 0.930 . S
H228 C238 0.930 . S
H229 C241 0.929 . S
H230 C244 0.930 . S
H231 C246 0.960 . S
H232 C246 0.960 1_565 S
H233 C246 0.960 . S
C234 H226 0.929 . S
C234 C235 1.377 . S
C234 C236 1.384 . S
C235 C234 1.377 . S
C235 C241 1.390 . S
C236 H227 0.930 . S
C236 C234 1.384 . S
C236 C237 1.372 . S
C237 C236 1.372 . S
C237 C238 1.400 . S
C237 C242 1.490 . S
C238 H228 0.930 . S
C238 C237 1.400 . S
C238 C241 1.386 . S
H239 C255 0.930 . S
H240 C256 0.931 . S
C241 H229 0.929 . S
C241 C235 1.390 . S
C241 C238 1.386 . S
C242 C237 1.490 . S
C242 C244 1.395 . S
C242 C245 1.401 . S
H243 C249 0.930 . S
C244 H230 0.930 . S
C244 C242 1.395 . S
C244 C247 1.403 . S
C245 C242 1.401 . S
C245 C246 1.524 1_565 S
C245 C249 1.401 1_565 S
C246 H231 0.960 . S
C246 H232 0.960 1_545 S
C246 H233 0.960 . S
C246 C245 1.524 1_545 S
C247 C244 1.403 . S
C247 C248 1.392 1_565 S
C247 C251 1.495 . S
C248 C247 1.392 1_545 S
C248 C249 1.385 . S
C248 C250 1.478 . S
C249 H243 0.930 . S
C249 C245 1.401 1_545 S
C249 C248 1.385 . S
C250 C248 1.478 . S
C250 C252 1.381 . S
C250 C256 1.383 . S
C251 C247 1.495 . S
C251 H257 0.959 . S
C251 H258 0.961 1_565 S
C251 H259 0.960 . S
C252 C250 1.381 . S
C252 C253 1.394 . S
C252 H260 0.930 . S
C253 C252 1.394 . S
C253 C254 1.383 . S
C253 H261 0.929 . S
C254 C253 1.383 . S
C254 C255 1.377 . S
C255 H239 0.930 . S
C255 C254 1.377 . S
C255 C256 1.379 . S
C256 H240 0.931 . S
C256 C250 1.383 . S
C256 C255 1.379 . S
H257 C251 0.959 . S
H258 C251 0.961 1_545 S
H259 C251 0.960 . S
H260 C252 0.930 . S
H261 C253 0.929 . S
C55 C17 0.437 . S
C74 C16 0.452 . S
C91 C39 0.434 . S
C110 C40 0.448 . S
C127 C42 2.160 . S
C146 C20 2.156 . S
C163 C21 2.111 . S
C182 C44 2.112 . S
C199 C43 2.152 . S
C218 C19 2.158 . S
C235 C41 2.203 . S
C254 C18 2.201 . S
