# Generated by pormake.
# Topology bcu, (8)-cn, num edge types: 1
# Building blocks:
#     Node 0, Type 0, BuildingBlock: TAGTUT_clean_sbu_3, # of connection points: 8
#     Node 1, Type 0, BuildingBlock: TAGTUT_clean_sbu_3, # of connection points: 8
#     Edge 2, Type (0, 0), BuildingBlock: AJUNOK_clean_linker_0, # of connection points: 2
#     Edge 3, Type (0, 0), BuildingBlock: AJUNOK_clean_linker_0, # of connection points: 2
#     Edge 4, Type (0, 0), BuildingBlock: AJUNOK_clean_linker_0, # of connection points: 2
#     Edge 5, Type (0, 0), BuildingBlock: AJUNOK_clean_linker_0, # of connection points: 2
#     Edge 6, Type (0, 0), BuildingBlock: AJUNOK_clean_linker_0, # of connection points: 2
#     Edge 7, Type (0, 0), BuildingBlock: AJUNOK_clean_linker_0, # of connection points: 2
#     Edge 8, Type (0, 0), BuildingBlock: AJUNOK_clean_linker_0, # of connection points: 2
#     Edge 9, Type (0, 0), BuildingBlock: AJUNOK_clean_linker_0, # of connection points: 2
# Relax obj value: 0.008
# Max RMSD: 0.054
# Mean RMSD: 0.054
data_MOF--net-bcu--node1-TAGTUT_clean_sbu_3--edge1-AJUNOK_clean_linker_0
_symmetry_space_group_name_H-M    P1
_symmetry_Int_Tables_number       1
_symmetry_cell_setting            triclinic
loop_
_symmetry_equiv_pos_as_xyz
'x, y, z'
_cell_length_a     15.403277
_cell_length_b     15.347088
_cell_length_c     16.752681
_cell_angle_alpha  89.610025
_cell_angle_beta   90.241311
_cell_angle_gamma 111.96705
loop_
_atom_site_label
_atom_site_type_symbol
_atom_site_fract_x
_atom_site_fract_y
_atom_site_fract_z
_atom_type_partial_charge
C0 C 0.14408 0.13136 0.0812 0.0
C1 C 0.24514 0.85496 0.06281 0.0
C2 C 0.12648 0.80666 0.82714 0.0
Mg3 Mg 0.97474 0.178 -0.00226 0.0
Mg4 Mg 0.7728 0.00771 0.956 0.0
O5 O 0.90294 0.05276 0.95018 0.0
Mg6 Mg 0.98162 0.97955 -0.02521 0.0
O7 O 0.07104 0.91693 2e-05 0.0
Mg8 Mg 0.18699 0.00136 0.94463 0.0
Mg9 Mg 0.04349 0.78803 -0.00768 0.0
C10 C 0.80255 0.84184 0.86605 0.0
O11 O 0.88298 0.87858 0.06756 0.0
O12 O 0.8922 0.23796 0.90958 0.0
O13 O 0.91217 0.7448 0.05571 0.0
O14 O 0.86259 0.15541 0.09552 0.0
O15 O 0.76521 0.11149 0.87599 0.0
O16 O 0.72848 0.03601 0.07101 0.0
O17 O 0.08924 0.06422 0.87962 0.0
O18 O 0.07975 0.20304 0.89943 0.0
C19 C 0.11388 0.15139 0.86222 0.0
C20 C 0.81958 0.19721 0.86585 0.0
O21 O 0.89112 0.87291 0.88164 0.0
O22 O 0.26871 0.9335 0.02505 0.0
O23 O 0.74588 0.8737 0.90004 0.0
O24 O 0.17292 0.8918 0.84708 0.0
O25 O 0.16338 0.79055 0.05815 0.0
O26 O 0.06165 0.7521 0.87167 0.0
O27 O 0.0558 0.0967 0.06746 0.0
O28 O 0.20013 0.10418 0.0423 0.0
C29 C 0.77838 0.10427 0.11463 0.0
C30 C 0.86571 0.79147 0.08467 0.0
C31 C 0.64898 0.62754 0.57946 0.0
C32 C 0.71055 0.3294 0.57842 0.0
C33 C 0.61202 0.28106 0.34043 0.0
Mg34 Mg 0.4966 0.6911 0.48531 0.0
Mg35 Mg 0.2868 0.53683 0.43761 0.0
O36 O 0.41543 0.56713 0.4404 0.0
Mg37 Mg 0.48126 0.48351 0.47204 0.0
O38 O 0.55835 0.41005 0.5032 0.0
Mg39 Mg 0.68061 0.48254 0.45068 0.0
Mg40 Mg 0.51579 0.27956 0.49634 0.0
C41 C 0.29945 0.35573 0.36115 0.0
O42 O 0.37511 0.39523 0.56652 0.0
O43 O 0.42997 0.7607 0.39093 0.0
O44 O 0.38353 0.25156 0.55545 0.0
O45 O 0.38254 0.68576 0.5768 0.0
O46 O 0.29774 0.64328 0.35194 0.0
O47 O 0.24334 0.57403 0.54961 0.0
O48 O 0.59522 0.55298 0.37672 0.0
O49 O 0.60126 0.69904 0.39074 0.0
C50 C 0.6266 0.63929 0.35571 0.0
C51 C 0.35952 0.72618 0.34373 0.0
O52 O 0.38616 0.3784 0.38096 0.0
O53 O 0.74557 0.407 0.53935 0.0
O54 O 0.24764 0.39793 0.38785 0.0
O55 O 0.66326 0.36522 0.35957 0.0
O56 O 0.62594 0.27178 0.56966 0.0
O57 O 0.53831 0.23413 0.37957 0.0
O58 O 0.56163 0.60081 0.56276 0.0
O59 O 0.70093 0.59248 0.54377 0.0
C60 C 0.2954 0.64256 0.59201 0.0
C61 C 0.34732 0.30721 0.5852 0.0
C62 C 0.12556 0.19634 0.21413 0.0
C63 C 0.18343 0.19258 0.15066 0.0
C64 C 0.164 0.24548 0.28412 0.0
C65 C 0.26154 0.29167 0.29343 0.0
H66 H 0.05039 0.1601 0.2103 0.0
H67 H 0.11681 0.24805 0.33108 0.0
S68 S 0.44317 0.30852 0.14277 0.0
N69 N 0.34329 0.24398 0.10009 0.0
N70 N 0.41472 0.33379 0.232 0.0
C71 C 0.32006 0.28866 0.23035 0.0
C72 C 0.28112 0.24014 0.15881 0.0
C73 C 0.63662 0.11652 0.18017 0.0
C74 C 0.73398 0.13677 0.18055 0.0
C75 C 0.59639 0.16256 0.23222 0.0
C76 C 0.65245 0.23127 0.28537 0.0
H77 H 0.59166 0.06786 0.13712 0.0
H78 H 0.5217 0.14642 0.22916 0.0
S79 S 0.90743 0.29632 0.32063 0.0
N80 N 0.88243 0.22022 0.24681 0.0
N81 N 0.8078 0.30719 0.34319 0.0
C82 C 0.74869 0.24758 0.28966 0.0
C83 C 0.78914 0.20016 0.23772 0.0
C84 C 0.809 0.67496 0.19576 0.0
C85 C 0.79654 0.74496 0.14715 0.0
C86 C 0.75166 0.63782 0.26207 0.0
C87 C 0.68065 0.67005 0.28182 0.0
H88 H 0.8659 0.65138 0.18461 0.0
H89 H 0.76539 0.58674 0.29976 0.0
S90 S 0.60742 0.83778 0.16514 0.0
N91 N 0.69975 0.83483 0.11726 0.0
N92 N 0.59188 0.7654 0.24175 0.0
C93 C 0.6635 0.73522 0.23076 0.0
C94 C 0.72161 0.77275 0.16344 0.0
C95 C 0.3271 0.89624 0.19306 0.0
C96 C 0.3076 0.84096 0.1235 0.0
C97 C 0.35199 0.86291 0.26466 0.0
C98 C 0.35755 0.77373 0.26765 0.0
H99 H 0.31411 0.96091 0.19422 0.0
H100 H 0.35918 0.90327 0.31878 0.0
S101 S 0.33399 0.61302 0.09748 0.0
N102 N 0.31038 0.70113 0.05909 0.0
N103 N 0.35851 0.63904 0.1925 0.0
C104 C 0.34871 0.7234 0.19628 0.0
C105 C 0.32339 0.75699 0.12422 0.0
C106 C 0.12774 0.66873 0.74763 0.0
C107 C 0.16114 0.76681 0.75925 0.0
C108 C 0.17118 0.62845 0.69352 0.0
C109 C 0.25088 0.68451 0.65051 0.0
H110 H 0.06943 0.62228 0.78227 0.0
H111 H 0.14344 0.5528 0.68667 0.0
S112 S 0.35741 0.94542 0.6492 0.0
N113 N 0.27201 0.91935 0.71504 0.0
N114 N 0.35483 0.84357 0.61592 0.0
C115 C 0.28228 0.78273 0.65869 0.0
C116 C 0.23702 0.82382 0.71224 0.0
C117 C 0.24286 0.17175 0.66659 0.0
C118 C 0.28069 0.2695 0.65196 0.0
C119 C 0.19114 0.13417 0.73559 0.0
C120 C 0.17488 0.19275 0.79278 0.0
H121 H 0.25442 0.12345 0.62499 0.0
H122 H 0.1631 0.05858 0.74364 0.0
S123 S 0.2593 0.45381 0.78396 0.0
N124 N 0.29808 0.42411 0.70091 0.0
N125 N 0.20148 0.354 0.83066 0.0
C126 C 0.21167 0.29071 0.77876 0.0
C127 C 0.264 0.3289 0.70826 0.0
C128 C 0.77703 0.18121 0.72341 0.0
C129 C 0.8078 0.24064 0.78995 0.0
C130 C 0.75526 0.21391 0.65148 0.0
C131 C 0.76377 0.30748 0.64287 0.0
H132 H 0.76657 0.10744 0.7275 0.0
H133 H 0.72599 0.1641 0.6037 0.0
S134 S 0.85324 0.49521 0.79456 0.0
N135 N 0.85602 0.4002 0.83992 0.0
N136 N 0.81347 0.46227 0.7034 0.0
C137 C 0.80185 0.37009 0.70628 0.0
C138 C 0.82437 0.33646 0.78032 0.0
C139 C 0.63059 0.69518 0.71096 0.0
C140 C 0.68929 0.68567 0.65058 0.0
C141 C 0.66783 0.74097 0.78248 0.0
C142 C 0.76533 0.77942 0.79655 0.0
H143 H 0.55523 0.6659 0.7036 0.0
H144 H 0.61946 0.74754 0.82661 0.0
S145 S 0.94966 0.77385 0.65675 0.0
N146 N 0.85032 0.71909 0.60918 0.0
N147 N 0.91968 0.80421 0.74351 0.0
C148 C 0.82478 0.76934 0.73691 0.0
C149 C 0.78698 0.72325 0.66392 0.0
loop_
_geom_bond_atom_site_label_1
_geom_bond_atom_site_label_2
_geom_bond_distance
_geom_bond_site_symmetry_2
_ccdc_geom_bond_type
C0 O27 1.312 . S
C0 O28 1.208 . S
C1 O22 1.331 . S
C1 O25 1.244 . S
C2 O24 1.264 . S
C2 O26 1.273 . S
Mg3 O5 1.937 1_455 S
Mg3 O12 2.085 1_455 S
Mg3 O14 2.019 1_456 S
Mg3 O18 2.034 . S
Mg3 O27 2.288 1_556 S
Mg4 O5 1.963 . S
Mg4 O15 1.942 . S
Mg4 O16 1.955 1_556 S
Mg4 O23 1.986 1_545 S
O5 Mg3 1.937 1_655 S
O5 Mg4 1.963 . S
O5 Mg6 1.915 1_546 S
Mg6 O5 1.915 1_564 S
Mg6 O7 1.915 1_655 S
Mg6 O11 2.013 . S
Mg6 O17 2.114 1_664 S
Mg6 O21 2.013 1_554 S
Mg6 O27 2.114 1_665 S
O7 Mg6 1.915 1_455 S
O7 Mg8 1.938 1_565 S
O7 Mg9 1.963 . S
Mg8 O7 1.938 1_545 S
Mg8 O17 2.286 1_554 S
Mg8 O22 2.087 1_545 S
Mg8 O24 2.017 1_544 S
Mg8 O28 2.036 . S
Mg9 O7 1.963 . S
Mg9 O13 1.986 1_455 S
Mg9 O25 1.942 . S
Mg9 O26 1.955 1_554 S
C10 O21 1.191 . S
C10 O23 1.307 . S
O11 Mg6 2.013 . S
O11 C30 1.191 . S
O12 Mg3 2.085 1_655 S
O12 C20 1.331 . S
O13 Mg9 1.986 1_655 S
O13 C30 1.307 . S
O14 Mg3 2.019 1_654 S
O14 C29 1.264 . S
O15 Mg4 1.942 . S
O15 C20 1.244 . S
O16 Mg4 1.955 1_554 S
O16 C29 1.273 . S
O17 Mg6 2.114 1_446 S
O17 Mg8 2.286 1_556 S
O17 C19 1.312 . S
O18 Mg3 2.034 . S
O18 C19 1.208 . S
C19 O17 1.312 . S
C19 O18 1.208 . S
C20 O12 1.331 . S
C20 O15 1.244 . S
O21 Mg6 2.013 1_556 S
O21 C10 1.191 . S
O22 C1 1.331 . S
O22 Mg8 2.087 1_565 S
O23 Mg4 1.986 1_565 S
O23 C10 1.307 . S
O24 C2 1.264 . S
O24 Mg8 2.017 1_566 S
O25 C1 1.244 . S
O25 Mg9 1.942 . S
O26 C2 1.273 . S
O26 Mg9 1.955 1_556 S
O27 C0 1.312 . S
O27 Mg3 2.288 1_554 S
O27 Mg6 2.114 1_445 S
O28 C0 1.208 . S
O28 Mg8 2.036 . S
C29 O14 1.264 . S
C29 O16 1.273 . S
C30 O11 1.191 . S
C30 O13 1.307 . S
C31 O58 1.312 . S
C31 O59 1.208 . S
C32 O53 1.331 . S
C32 O56 1.244 . S
C33 O55 1.264 . S
C33 O57 1.273 . S
Mg34 O36 1.936 . S
Mg34 O43 2.081 . S
Mg34 O45 2.023 . S
Mg34 O49 2.031 . S
Mg34 O58 2.291 . S
Mg35 O36 1.963 . S
Mg35 O46 1.942 . S
Mg35 O47 1.955 . S
Mg35 O54 1.986 . S
O36 Mg34 1.936 . S
O36 Mg35 1.963 . S
O36 Mg37 1.915 . S
Mg37 O36 1.915 . S
Mg37 O38 1.915 . S
Mg37 O42 2.013 . S
Mg37 O48 2.114 . S
Mg37 O52 2.013 . S
Mg37 O58 2.114 . S
O38 Mg37 1.915 . S
O38 Mg39 1.936 . S
O38 Mg40 1.963 . S
Mg39 O38 1.936 . S
Mg39 O48 2.291 . S
Mg39 O53 2.081 . S
Mg39 O55 2.023 . S
Mg39 O59 2.031 . S
Mg40 O38 1.963 . S
Mg40 O44 1.986 . S
Mg40 O56 1.942 . S
Mg40 O57 1.955 . S
C41 O52 1.191 . S
C41 O54 1.307 . S
O42 Mg37 2.013 . S
O42 C61 1.191 . S
O43 Mg34 2.081 . S
O43 C51 1.331 . S
O44 Mg40 1.986 . S
O44 C61 1.307 . S
O45 Mg34 2.023 . S
O45 C60 1.264 . S
O46 Mg35 1.942 . S
O46 C51 1.244 . S
O47 Mg35 1.955 . S
O47 C60 1.273 . S
O48 Mg37 2.114 . S
O48 Mg39 2.291 . S
O48 C50 1.312 . S
O49 Mg34 2.031 . S
O49 C50 1.208 . S
C50 O48 1.312 . S
C50 O49 1.208 . S
C51 O43 1.331 . S
C51 O46 1.244 . S
O52 Mg37 2.013 . S
O52 C41 1.191 . S
O53 C32 1.331 . S
O53 Mg39 2.081 . S
O54 Mg35 1.986 . S
O54 C41 1.307 . S
O55 C33 1.264 . S
O55 Mg39 2.023 . S
O56 C32 1.244 . S
O56 Mg40 1.942 . S
O57 C33 1.273 . S
O57 Mg40 1.955 . S
O58 C31 1.312 . S
O58 Mg34 2.291 . S
O58 Mg37 2.114 . S
O59 C31 1.208 . S
O59 Mg39 2.031 . S
C60 O45 1.264 . S
C60 O47 1.273 . S
C61 O42 1.191 . S
C61 O44 1.307 . S
C62 C63 1.369 . S
C62 C64 1.419 . S
C62 H66 0.930 . S
C63 C62 1.369 . S
C63 C72 1.429 . S
C64 C62 1.419 . S
C64 C65 1.363 . S
C64 H67 0.929 . S
C65 C64 1.363 . S
C65 C71 1.428 . S
H66 C62 0.930 . S
H67 C64 0.929 . S
S68 N69 1.613 . S
S68 N70 1.610 . S
N69 S68 1.613 . S
N69 C72 1.350 . S
N70 S68 1.610 . S
N70 C71 1.351 . S
C71 C65 1.428 . S
C71 N70 1.351 . S
C71 C72 1.434 . S
C72 C63 1.429 . S
C72 N69 1.350 . S
C72 C71 1.434 . S
C73 C74 1.369 . S
C73 C75 1.419 . S
C73 H77 0.930 . S
C74 C73 1.369 . S
C74 C83 1.429 . S
C75 C73 1.419 . S
C75 C76 1.363 . S
C75 H78 0.929 . S
C76 C75 1.363 . S
C76 C82 1.428 . S
H77 C73 0.930 . S
H78 C75 0.929 . S
S79 N80 1.613 . S
S79 N81 1.610 . S
N80 S79 1.613 . S
N80 C83 1.350 . S
N81 S79 1.610 . S
N81 C82 1.351 . S
C82 C76 1.428 . S
C82 N81 1.351 . S
C82 C83 1.434 . S
C83 C74 1.429 . S
C83 N80 1.350 . S
C83 C82 1.434 . S
C84 C85 1.369 . S
C84 C86 1.419 . S
C84 H88 0.930 . S
C85 C84 1.369 . S
C85 C94 1.429 . S
C86 C84 1.419 . S
C86 C87 1.363 . S
C86 H89 0.929 . S
C87 C86 1.363 . S
C87 C93 1.428 . S
H88 C84 0.930 . S
H89 C86 0.929 . S
S90 N91 1.613 . S
S90 N92 1.610 . S
N91 S90 1.613 . S
N91 C94 1.350 . S
N92 S90 1.610 . S
N92 C93 1.351 . S
C93 C87 1.428 . S
C93 N92 1.351 . S
C93 C94 1.434 . S
C94 C85 1.429 . S
C94 N91 1.350 . S
C94 C93 1.434 . S
C95 C96 1.369 . S
C95 C97 1.419 . S
C95 H99 0.930 . S
C96 C95 1.369 . S
C96 C105 1.429 . S
C97 C95 1.419 . S
C97 C98 1.363 . S
C97 H100 0.929 . S
C98 C97 1.363 . S
C98 C104 1.428 . S
H99 C95 0.930 . S
H100 C97 0.929 . S
S101 N102 1.613 . S
S101 N103 1.610 . S
N102 S101 1.613 . S
N102 C105 1.350 . S
N103 S101 1.610 . S
N103 C104 1.351 . S
C104 C98 1.428 . S
C104 N103 1.351 . S
C104 C105 1.434 . S
C105 C96 1.429 . S
C105 N102 1.350 . S
C105 C104 1.434 . S
C106 C107 1.369 . S
C106 C108 1.419 . S
C106 H110 0.930 . S
C107 C106 1.369 . S
C107 C116 1.429 . S
C108 C106 1.419 . S
C108 C109 1.363 . S
C108 H111 0.929 . S
C109 C108 1.363 . S
C109 C115 1.428 . S
H110 C106 0.930 . S
H111 C108 0.929 . S
S112 N113 1.613 . S
S112 N114 1.610 . S
N113 S112 1.613 . S
N113 C116 1.350 . S
N114 S112 1.610 . S
N114 C115 1.351 . S
C115 C109 1.428 . S
C115 N114 1.351 . S
C115 C116 1.434 . S
C116 C107 1.429 . S
C116 N113 1.350 . S
C116 C115 1.434 . S
C117 C118 1.369 . S
C117 C119 1.419 . S
C117 H121 0.930 . S
C118 C117 1.369 . S
C118 C127 1.429 . S
C119 C117 1.419 . S
C119 C120 1.363 . S
C119 H122 0.929 . S
C120 C119 1.363 . S
C120 C126 1.428 . S
H121 C117 0.930 . S
H122 C119 0.929 . S
S123 N124 1.613 . S
S123 N125 1.610 . S
N124 S123 1.613 . S
N124 C127 1.350 . S
N125 S123 1.610 . S
N125 C126 1.351 . S
C126 C120 1.428 . S
C126 N125 1.351 . S
C126 C127 1.434 . S
C127 C118 1.429 . S
C127 N124 1.350 . S
C127 C126 1.434 . S
C128 C129 1.369 . S
C128 C130 1.419 . S
C128 H132 0.930 . S
C129 C128 1.369 . S
C129 C138 1.429 . S
C130 C128 1.419 . S
C130 C131 1.363 . S
C130 H133 0.929 . S
C131 C130 1.363 . S
C131 C137 1.428 . S
H132 C128 0.930 . S
H133 C130 0.929 . S
S134 N135 1.613 . S
S134 N136 1.610 . S
N135 S134 1.613 . S
N135 C138 1.350 . S
N136 S134 1.610 . S
N136 C137 1.351 . S
C137 C131 1.428 . S
C137 N136 1.351 . S
C137 C138 1.434 . S
C138 C129 1.429 . S
C138 N135 1.350 . S
C138 C137 1.434 . S
C139 C140 1.369 . S
C139 C141 1.419 . S
C139 H143 0.930 . S
C140 C139 1.369 . S
C140 C149 1.429 . S
C141 C139 1.419 . S
C141 C142 1.363 . S
C141 H144 0.929 . S
C142 C141 1.363 . S
C142 C148 1.428 . S
H143 C139 0.930 . S
H144 C141 0.929 . S
S145 N146 1.613 . S
S145 N147 1.610 . S
N146 S145 1.613 . S
N146 C149 1.350 . S
N147 S145 1.610 . S
N147 C148 1.351 . S
C148 C142 1.428 . S
C148 N147 1.351 . S
C148 C149 1.434 . S
C149 C140 1.429 . S
C149 N146 1.350 . S
C149 C148 1.434 . S
C63 C0 1.334 . S
C65 C41 1.360 . S
C74 C29 1.616 . S
C76 C33 1.609 . S
C85 C30 1.362 . S
C87 C50 1.335 . S
C96 C1 1.480 . S
C98 C51 1.483 . S
C107 C2 1.614 . S
C109 C60 1.612 . S
C118 C61 1.363 . S
C120 C19 1.334 . S
C129 C20 1.480 . S
C131 C32 1.487 . S
C140 C31 1.333 . S
C142 C10 1.364 . S
