# Generated by pormake.
# Topology qtz-e, (6)-cn, num edge types: 1
# Building blocks:
#     Node 0, Type 0, BuildingBlock: BETGAK_clean_sbu_0, # of connection points: 6
#     Node 1, Type 0, BuildingBlock: BETGAK_clean_sbu_0, # of connection points: 6
#     Node 2, Type 0, BuildingBlock: BETGAK_clean_sbu_0, # of connection points: 6
#     Node 3, Type 0, BuildingBlock: BETGAK_clean_sbu_0, # of connection points: 6
#     Node 4, Type 0, BuildingBlock: BETGAK_clean_sbu_0, # of connection points: 6
#     Node 5, Type 0, BuildingBlock: BETGAK_clean_sbu_0, # of connection points: 6
#     Edge 6, Type (0, 0), None
#     Edge 7, Type (0, 0), None
#     Edge 8, Type (0, 0), None
#     Edge 9, Type (0, 0), None
#     Edge 10, Type (0, 0), None
#     Edge 11, Type (0, 0), None
#     Edge 12, Type (0, 0), None
#     Edge 13, Type (0, 0), None
#     Edge 14, Type (0, 0), None
#     Edge 15, Type (0, 0), None
#     Edge 16, Type (0, 0), None
#     Edge 17, Type (0, 0), None
#     Edge 18, Type (0, 0), None
#     Edge 19, Type (0, 0), None
#     Edge 20, Type (0, 0), None
#     Edge 21, Type (0, 0), None
#     Edge 22, Type (0, 0), None
#     Edge 23, Type (0, 0), None
# Relax obj value: 0.369
# Max RMSD: 0.279
# Mean RMSD: 0.279
data_MOF--net-qtz-e--node1-BETGAK_clean_sbu_0--edge1-none
_symmetry_space_group_name_H-M    P1
_symmetry_Int_Tables_number       1
_symmetry_cell_setting            triclinic
loop_
_symmetry_equiv_pos_as_xyz
'x, y, z'
_cell_length_a     12.116032
_cell_length_b     12.10956
_cell_length_c     27.464808
_cell_angle_alpha  89.99954
_cell_angle_beta   90.003622
_cell_angle_gamma 119.97233
loop_
_atom_site_label
_atom_site_type_symbol
_atom_site_fract_x
_atom_site_fract_y
_atom_site_fract_z
_atom_type_partial_charge
La0 La 0.16938 0.64879 0.31761 0.0
La1 La 0.03775 0.3933 0.31084 0.0
C2 C 0.27216 0.87213 0.34826 0.0
C3 C 0.32251 0.90211 0.39877 0.0
C4 C 0.45322 0.94918 0.40906 0.0
C5 C 0.49475 0.94823 0.45704 0.0
C6 C 0.40539 0.89758 0.49492 0.0
C7 C 0.2756 0.84964 0.48386 0.0
C8 C 0.23574 0.85519 0.43725 0.0
C9 C 0.33361 0.58271 0.29237 0.0
C10 C 0.04949 0.47315 0.41868 0.0
C11 C 0.95252 0.17308 0.27587 0.0
C12 C 0.97643 0.12952 0.22808 0.0
C13 C 0.90294 0.11834 0.18663 0.0
C14 C 0.92705 0.07873 0.14177 0.0
C15 C 1.02292 0.04583 0.13745 0.0
C16 C 0.09285 0.05276 0.17927 0.0
C17 C 0.07245 0.09735 0.22348 0.0
C18 C 0.88763 0.49832 0.29873 0.0
C19 C 0.14051 0.53531 0.21402 0.0
O20 O 0.33168 0.83192 0.32059 0.0
O21 O 0.14807 0.80089 0.34305 0.0
O22 O 0.33913 0.68824 0.28193 0.0
O23 O 0.24184 0.51742 0.32299 0.0
O24 O 0.09808 0.58588 0.39603 0.0
O25 O 1.02816 0.37473 0.39132 0.0
O26 O 0.89038 0.235 0.27467 0.0
O27 O 0.04663 0.22404 0.30706 0.0
O28 O 0.87478 0.41483 0.33126 0.0
O29 O 0.99485 0.53622 0.28067 0.0
O30 O 0.12174 0.43802 0.2403 0.0
O31 O 0.13969 0.63318 0.23631 0.0
H32 H 0.52263 0.98401 0.37987 0.0
H33 H 0.59546 0.98898 0.46451 0.0
H34 H 0.2031 0.81038 0.51194 0.0
H35 H 0.13501 0.81689 0.43117 0.0
H36 H 0.82753 0.14152 0.18862 0.0
H37 H 0.87007 0.07329 1.11051 0.0
H38 H 0.16653 0.02741 0.17749 0.0
H39 H 0.13283 0.10735 0.25408 0.0
La40 La 0.89719 0.51268 0.57576 0.0
La41 La 1.02886 0.38886 0.58253 0.0
C42 C 0.79433 0.6332 0.5451 0.0
C43 C 0.74402 0.61285 0.49459 0.0
C44 C 0.61333 0.5292 0.48428 0.0
C45 C 0.57184 0.48673 0.43629 0.0
C46 C 0.66124 0.52549 0.39842 0.0
C47 C 0.791 0.60736 0.40949 0.0
C48 C 0.83082 0.65274 0.45611 0.0
C49 C 0.73301 0.28241 0.60102 0.0
C50 C 1.01711 0.45695 0.47469 0.0
C51 C 0.11409 0.25384 0.61751 0.0
C52 C 0.09013 0.18634 0.6653 0.0
C53 C 0.16358 0.24861 0.70676 0.0
C54 C 0.13945 0.18487 0.75161 0.0
C55 C 0.04361 0.0561 0.75591 0.0
C56 C 0.97374 0.99315 0.71408 0.0
C57 C 0.99415 0.05818 0.66987 0.0
C58 C 0.17897 0.64395 0.59461 0.0
C59 C 0.92613 0.42817 0.67935 0.0
O60 O 0.73483 0.53346 0.57275 0.0
O61 O 0.91842 0.68607 0.55032 0.0
O62 O 0.7275 0.38243 0.61147 0.0
O63 O 0.82476 0.30887 0.57039 0.0
O64 O 0.96851 0.52109 0.49734 0.0
O65 O 0.03846 0.37987 0.50205 0.0
O66 O 0.17621 0.37787 0.61872 0.0
O67 O 1.02 0.21072 0.58631 0.0
O68 O 0.19182 0.57328 0.56209 0.0
O69 O 0.07177 0.57468 0.61269 0.0
O70 O 0.94493 0.34965 0.65308 0.0
O71 O 0.9269 0.52682 0.65706 0.0
H72 H 0.54389 0.49457 0.51346 0.0
H73 H 0.47115 0.42676 0.42881 0.0
H74 H 0.86353 0.64064 0.38142 0.0
H75 H 0.93153 0.71518 0.4622 0.0
H76 H 0.23897 0.3472 0.70479 0.0
H77 H 0.19638 0.23637 0.78288 0.0
H78 H 0.90008 0.89412 0.71584 0.0
H79 H 0.9338 1.00783 0.63927 0.0
La80 La 0.40749 0.53361 0.98431 0.0
La81 La 0.66298 0.65725 0.97753 0.0
C82 C 0.18427 0.4131 1.01494 0.0
C83 C 0.15425 0.43338 1.06545 0.0
C84 C 0.10719 0.51709 1.07578 0.0
C85 C 0.10811 0.55948 0.12378 0.0
C86 C 0.15871 0.52056 0.16164 0.0
C87 C 0.20664 0.43864 0.15055 0.0
C88 C 0.20113 0.39335 1.10392 0.0
C89 C 0.47358 0.76398 0.95913 0.0
C90 C 0.58311 0.5892 1.08537 0.0
C91 C 0.88311 0.79194 0.94257 0.0
C92 C 0.92667 0.8594 0.89478 0.0
C93 C 0.93781 0.79704 0.85332 0.0
C94 C 0.9774 0.86074 0.80847 0.0
C95 C 1.01033 0.98956 0.80416 0.0
C96 C 1.00344 0.05259 0.84598 0.0
C97 C 0.95884 0.98761 0.89018 0.0
C98 C 0.5579 0.40213 0.96536 0.0
C99 C 0.52096 0.61831 0.88073 0.0
O100 O 0.2244 0.51289 0.9873 0.0
O101 O 0.25553 0.3602 1.0097 0.0
O102 O 0.36801 0.66412 0.94874 0.0
O103 O 0.53886 0.73733 0.98971 0.0
O104 O 0.47042 0.52517 1.06273 0.0
O105 O 0.68148 0.66617 1.05801 0.0
O106 O 0.82116 0.66791 0.94135 0.0
O107 O 0.83221 0.83522 0.97375 0.0
O108 O 0.64133 0.47261 0.99792 0.0
O109 O 0.52006 0.47161 0.94734 0.0
O110 O 0.61822 0.69673 0.90701 0.0
O111 O 0.42316 0.51967 0.903 0.0
H112 H 0.07241 0.55183 1.04662 0.0
H113 H 0.06741 0.61953 0.13129 0.0
H114 H 0.2459 0.40528 0.1786 0.0
H115 H 0.23944 0.33087 1.0978 0.0
H116 H 0.91461 0.69841 0.8553 0.0
H117 H 0.98281 0.80918 0.7772 0.0
H118 H 1.02882 0.15166 0.8442 0.0
H119 H 0.94883 0.03802 0.92078 0.0
La120 La 0.54381 0.39733 0.24244 0.0
La121 La 0.66731 0.65291 0.24922 0.0
C122 C 0.42353 0.17401 0.21177 0.0
C123 C 0.44378 0.14405 0.16123 0.0
C124 C 0.52754 0.0971 0.15087 0.0
C125 C 0.56988 0.09809 1.10287 0.0
C126 C 0.53086 0.14865 1.06503 0.0
C127 C 0.44886 0.19644 1.07615 0.0
C128 C 0.40365 0.19089 0.12279 0.0
C129 C 0.77404 0.46359 0.26771 0.0
C130 C 0.59931 0.57301 0.14139 0.0
C131 C 0.80213 0.87311 0.28419 0.0
C132 C 0.86963 0.91663 0.33198 0.0
C133 C 0.80743 0.92787 0.37345 0.0
C134 C 0.87121 0.96749 0.41828 0.0
C135 C 0.99995 1.00038 0.42256 0.0
C136 C 0.06282 0.99338 0.38072 0.0
C137 C 0.99776 0.94874 0.33653 0.0
C138 C 0.41256 0.54809 0.26133 0.0
C139 C 0.62824 0.5108 0.34605 0.0
O140 O 0.52331 0.21424 0.23938 0.0
O141 O 0.37056 0.2452 0.21704 0.0
O142 O 0.67425 0.35795 0.27811 0.0
O143 O 0.74743 0.52879 0.23707 0.0
O144 O 0.53533 0.46027 0.16403 0.0
O145 O 0.67624 0.67143 0.16875 0.0
O146 O 0.67816 0.81124 0.28543 0.0
O147 O 0.84527 0.82213 0.25298 0.0
O148 O 0.48294 0.63158 0.22878 0.0
O149 O 0.4817 0.50991 0.27939 0.0
O150 O 0.70655 0.60818 0.31979 0.0
O151 O 0.52976 0.41287 0.32375 0.0
H152 H 0.56235 0.06234 0.18002 0.0
H153 H 0.62998 0.05747 1.09534 0.0
H154 H 0.41541 0.23564 1.0481 0.0
H155 H 0.34114 0.22913 0.12893 0.0
H156 H 0.70887 0.90471 0.3715 0.0
H157 H 0.81977 0.97297 0.44957 0.0
H158 H 0.16183 1.01873 0.38247 0.0
H159 H 0.04806 0.93868 0.30592 0.0
La160 La 0.52279 0.88683 0.6509 0.0
La161 La 0.39926 1.01888 0.64412 0.0
C162 C 0.64306 0.78375 0.68159 0.0
C163 C 0.62282 0.73358 0.73212 0.0
C164 C 0.53904 0.60289 0.74249 0.0
C165 C 0.49671 0.56159 0.7905 0.0
C166 C 0.53576 0.65118 0.82834 0.0
C167 C 0.61778 0.78094 0.81721 0.0
C168 C 0.66299 0.82056 0.77056 0.0
C169 C 0.29259 0.72289 0.6256 0.0
C170 C 0.46726 1.00697 0.75196 0.0
C171 C 0.26439 0.10424 0.60915 0.0
C172 C 0.19688 0.08024 0.56137 0.0
C173 C 0.25906 0.1537 0.5199 0.0
C174 C 0.19528 0.12955 0.47506 0.0
C175 C 0.06656 0.03368 0.47079 0.0
C176 C 1.00371 0.96379 0.51262 0.0
C177 C 0.06878 0.98421 0.55681 0.0
C178 C 0.65401 0.16883 0.63204 0.0
C179 C 0.43842 0.91593 0.54729 0.0
O180 O 0.54327 0.72422 0.65398 0.0
O181 O 0.69605 0.9079 0.6763 0.0
O182 O 0.39242 0.71709 0.61518 0.0
O183 O 0.31915 0.81466 0.65626 0.0
O184 O 0.53126 0.95823 0.72932 0.0
O185 O 0.39031 0.02846 0.7246 0.0
O186 O 0.38836 0.16633 0.60792 0.0
O187 O 0.22128 1.01014 0.64036 0.0
O188 O 0.58359 0.1819 0.66458 0.0
O189 O 0.58492 0.06153 0.61397 0.0
O190 O 0.36009 0.935 0.57355 0.0
O191 O 0.53688 0.91644 0.56959 0.0
H192 H 0.50421 0.53332 0.71335 0.0
H193 H 0.43658 0.4609 0.79804 0.0
H194 H 0.65123 0.85361 0.84524 0.0
H195 H 0.72551 0.92128 0.76441 0.0
H196 H 0.3576 0.22912 0.52185 0.0
H197 H 0.2467 0.18648 0.44378 0.0
H198 H 0.90472 0.89013 0.51088 0.0
H199 H 1.0185 0.92385 0.58742 0.0
La200 La 0.65905 0.15936 0.90904 0.0
La201 La 0.40349 0.0275 0.91582 0.0
C202 C 0.88229 0.26212 0.87842 0.0
C203 C 0.91232 0.31242 0.82791 0.0
C204 C 0.95945 0.44319 0.81758 0.0
C205 C 0.95854 0.48469 0.76959 0.0
C206 C 0.90789 0.39521 0.73173 0.0
C207 C 0.85989 0.26535 0.74281 0.0
C208 C 0.86538 0.22553 0.78944 0.0
C209 C 0.59276 0.32346 0.93427 0.0
C210 C 0.48344 0.03934 0.80798 0.0
C211 C 0.18336 0.94229 0.95075 0.0
C212 C 0.13982 0.96615 0.99855 0.0
C213 C 0.12878 0.89268 1.04001 0.0
C214 C 0.0892 0.91677 1.08487 0.0
C215 C 0.05618 1.01259 1.08919 0.0
C216 C 0.06297 0.08249 1.04738 0.0
C217 C 0.10755 0.06212 1.00316 0.0
C218 C 0.50834 0.87743 0.928 0.0
C219 C 0.54558 0.13048 1.01264 0.0
O220 O 0.84208 0.32174 0.90604 0.0
O221 O 0.81108 0.13798 0.88365 0.0
O222 O 0.69842 0.3293 0.94463 0.0
O223 O 0.52759 0.23162 0.90364 0.0
O224 O 0.59613 0.08797 0.83062 0.0
O225 O 0.38506 1.01796 0.83533 0.0
O226 O 0.24516 0.88004 0.95193 0.0
O227 O 0.2344 0.03655 0.91961 0.0
O228 O 0.42491 0.86437 0.89542 0.0
O229 O 0.54647 0.9848 0.94601 0.0
O230 O 0.44822 0.11149 0.98638 0.0
O231 O 0.64345 0.12977 0.99035 0.0
H232 H 0.99427 0.51269 0.84676 0.0
H233 H 0.9993 0.58544 0.76209 0.0
H234 H 0.8206 0.19276 0.71475 0.0
H235 H 0.82703 0.12475 0.79555 0.0
H236 H 0.15206 0.8173 1.03801 0.0
H237 H 0.08388 0.85982 0.11614 0.0
H238 H 0.03752 0.15613 1.04916 0.0
H239 H 0.11746 0.12251 0.97256 0.0
loop_
_geom_bond_atom_site_label_1
_geom_bond_atom_site_label_2
_geom_bond_distance
_geom_bond_site_symmetry_2
_ccdc_geom_bond_type
La0 C2 2.928 . S
La0 O20 2.521 . S
La0 O21 2.628 1_455 S
La0 O22 2.554 . S
La0 O23 2.757 . S
La0 O24 2.470 . S
La0 O29 2.482 1_455 S
La0 O31 2.503 . S
La1 C11 2.928 . S
La1 O23 2.482 1_655 S
La1 O25 2.503 . S
La1 O26 2.521 . S
La1 O27 2.628 1_655 S
La1 O28 2.554 . S
La1 O29 2.757 . S
La1 O30 2.470 . S
C2 La0 2.928 . S
C2 C3 1.503 . S
C2 O20 1.261 . S
C2 O21 1.243 1_455 S
C3 C2 1.503 . S
C3 C4 1.394 . S
C3 C8 1.373 1_455 S
C4 C3 1.394 . S
C4 C5 1.380 . S
C4 H32 0.930 . S
C5 C4 1.380 . S
C5 C6 1.376 . S
C5 H33 0.930 . S
C6 C5 1.376 . S
C6 C7 1.370 . S
C7 C6 1.370 . S
C7 C8 1.396 1_455 S
C7 H34 0.929 1_455 S
C8 C3 1.373 1_655 S
C8 C7 1.396 1_655 S
C8 H35 0.929 . S
C9 O22 1.240 . S
C9 O23 1.289 . S
C10 O24 1.258 1_655 S
C10 O25 1.256 . S
C11 La1 2.928 . S
C11 C12 1.503 . S
C11 O26 1.261 . S
C11 O27 1.243 1_655 S
C12 C11 1.503 . S
C12 C13 1.394 1_545 S
C12 C17 1.373 1_655 S
C13 C12 1.394 1_565 S
C13 C14 1.380 . S
C13 H36 0.930 . S
C14 C13 1.380 . S
C14 C15 1.376 . S
C14 H37 0.930 . S
C15 C14 1.376 . S
C15 C16 1.370 1_665 S
C16 C15 1.370 1_445 S
C16 C17 1.396 . S
C16 H38 0.929 . S
C17 C12 1.373 1_455 S
C17 C16 1.396 . S
C17 H39 0.929 . S
C18 O28 1.240 . S
C18 O29 1.289 . S
C19 O30 1.258 1_455 S
C19 O31 1.256 . S
O20 La0 2.521 . S
O20 C2 1.261 . S
O21 La0 2.628 1_655 S
O21 C2 1.243 1_655 S
O22 La0 2.554 . S
O22 C9 1.240 . S
O23 La0 2.757 . S
O23 La1 2.482 1_455 S
O23 C9 1.289 . S
O24 La0 2.470 . S
O24 C10 1.258 1_455 S
O25 La1 2.503 . S
O25 C10 1.256 . S
O26 La1 2.521 . S
O26 C11 1.261 . S
O27 La1 2.628 1_455 S
O27 C11 1.243 1_455 S
O28 La1 2.554 . S
O28 C18 1.240 . S
O29 La0 2.482 1_655 S
O29 La1 2.757 . S
O29 C18 1.289 . S
O30 La1 2.470 . S
O30 C19 1.258 1_655 S
O31 La0 2.503 . S
O31 C19 1.256 . S
H32 C4 0.930 . S
H33 C5 0.930 . S
H34 C7 0.929 1_655 S
H35 C8 0.929 . S
H36 C13 0.930 . S
H37 C14 0.930 . S
H38 C16 0.929 . S
H39 C17 0.929 . S
La40 C42 2.928 . S
La40 O60 2.521 . S
La40 O61 2.628 1_655 S
La40 O62 2.554 . S
La40 O63 2.757 . S
La40 O64 2.470 . S
La40 O69 2.482 1_655 S
La40 O71 2.503 . S
La41 C51 2.928 . S
La41 O63 2.482 1_455 S
La41 O65 2.503 . S
La41 O66 2.521 . S
La41 O67 2.628 1_455 S
La41 O68 2.554 . S
La41 O69 2.757 . S
La41 O70 2.470 . S
C42 La40 2.928 . S
C42 C43 1.503 . S
C42 O60 1.261 . S
C42 O61 1.243 1_655 S
C43 C42 1.503 . S
C43 C44 1.394 . S
C43 C48 1.373 1_655 S
C44 C43 1.394 . S
C44 C45 1.380 . S
C44 H72 0.930 . S
C45 C44 1.380 . S
C45 C46 1.376 . S
C45 H73 0.930 . S
C46 C45 1.376 . S
C46 C47 1.370 . S
C47 C46 1.370 . S
C47 C48 1.396 1_655 S
C47 H74 0.929 1_655 S
C48 C43 1.373 1_455 S
C48 C47 1.396 1_455 S
C48 H75 0.929 . S
C49 O62 1.240 . S
C49 O63 1.289 . S
C50 O64 1.258 1_455 S
C50 O65 1.256 . S
C51 La41 2.928 . S
C51 C52 1.503 . S
C51 O66 1.261 . S
C51 O67 1.243 1_455 S
C52 C51 1.503 . S
C52 C53 1.394 . S
C52 C57 1.373 1_455 S
C53 C52 1.394 . S
C53 C54 1.380 . S
C53 H76 0.930 . S
C54 C53 1.380 . S
C54 C55 1.376 . S
C54 H77 0.930 . S
C55 C54 1.376 . S
C55 C56 1.370 1_445 S
C56 C55 1.370 1_665 S
C56 C57 1.396 1_565 S
C56 H78 0.929 . S
C57 C52 1.373 1_655 S
C57 C56 1.396 1_545 S
C57 H79 0.929 . S
C58 O68 1.240 . S
C58 O69 1.289 . S
C59 O70 1.258 1_655 S
C59 O71 1.256 . S
O60 La40 2.521 . S
O60 C42 1.261 . S
O61 La40 2.628 1_455 S
O61 C42 1.243 1_455 S
O62 La40 2.554 . S
O62 C49 1.240 . S
O63 La40 2.757 . S
O63 La41 2.482 1_655 S
O63 C49 1.289 . S
O64 La40 2.470 . S
O64 C50 1.258 1_655 S
O65 La41 2.503 . S
O65 C50 1.256 . S
O66 La41 2.521 . S
O66 C51 1.261 . S
O67 La41 2.628 1_655 S
O67 C51 1.243 1_655 S
O68 La41 2.554 . S
O68 C58 1.240 . S
O69 La40 2.482 1_455 S
O69 La41 2.757 . S
O69 C58 1.289 . S
O70 La41 2.470 . S
O70 C59 1.258 1_455 S
O71 La40 2.503 . S
O71 C59 1.256 . S
H72 C44 0.930 . S
H73 C45 0.930 . S
H74 C47 0.929 1_455 S
H75 C48 0.929 . S
H76 C53 0.930 . S
H77 C54 0.930 . S
H78 C56 0.929 . S
H79 C57 0.929 . S
La80 C82 2.928 . S
La80 O100 2.521 . S
La80 O101 2.628 . S
La80 O102 2.554 . S
La80 O103 2.757 . S
La80 O104 2.470 . S
La80 O109 2.482 . S
La80 O111 2.503 . S
La81 C91 2.928 . S
La81 O103 2.482 . S
La81 O105 2.503 . S
La81 O106 2.521 . S
La81 O107 2.628 . S
La81 O108 2.554 . S
La81 O109 2.757 . S
La81 O110 2.470 . S
C82 La80 2.928 . S
C82 C83 1.503 1_556 S
C82 O100 1.261 . S
C82 O101 1.243 . S
C83 C82 1.503 1_554 S
C83 C84 1.394 . S
C83 C88 1.373 . S
C84 C83 1.394 . S
C84 C85 1.380 . S
C84 H112 0.930 . S
C85 C84 1.380 . S
C85 C86 1.376 . S
C85 H113 0.930 . S
C86 C85 1.376 . S
C86 C87 1.370 . S
C87 C86 1.370 . S
C87 C88 1.396 . S
C87 H114 0.929 . S
C88 C83 1.373 . S
C88 C87 1.396 . S
C88 H115 0.929 . S
C89 O102 1.240 . S
C89 O103 1.289 . S
C90 O104 1.258 . S
C90 O105 1.256 . S
C91 La81 2.928 . S
C91 C92 1.503 . S
C91 O106 1.261 . S
C91 O107 1.243 . S
C92 C91 1.503 . S
C92 C93 1.394 1_655 S
C92 C97 1.373 . S
C93 C92 1.394 1_455 S
C93 C94 1.380 . S
C93 H116 0.930 . S
C94 C93 1.380 . S
C94 C95 1.376 . S
C94 H117 0.930 . S
C95 C94 1.376 . S
C95 C96 1.370 1_465 S
C96 C95 1.370 1_645 S
C96 C97 1.396 1_545 S
C96 H118 0.929 . S
C97 C92 1.373 . S
C97 C96 1.396 1_565 S
C97 H119 0.929 . S
C98 O108 1.240 . S
C98 O109 1.289 . S
C99 O110 1.258 . S
C99 O111 1.256 . S
O100 La80 2.521 . S
O100 C82 1.261 . S
O101 La80 2.628 . S
O101 C82 1.243 . S
O102 La80 2.554 . S
O102 C89 1.240 . S
O103 La80 2.757 . S
O103 La81 2.482 . S
O103 C89 1.289 . S
O104 La80 2.470 . S
O104 C90 1.258 . S
O105 La81 2.503 . S
O105 C90 1.256 . S
O106 La81 2.521 . S
O106 C91 1.261 . S
O107 La81 2.628 . S
O107 C91 1.243 . S
O108 La81 2.554 . S
O108 C98 1.240 . S
O109 La80 2.482 . S
O109 La81 2.757 . S
O109 C98 1.289 . S
O110 La81 2.470 . S
O110 C99 1.258 . S
O111 La80 2.503 . S
O111 C99 1.256 . S
H112 C84 0.930 . S
H113 C85 0.930 . S
H114 C87 0.929 . S
H115 C88 0.929 . S
H116 C93 0.930 . S
H117 C94 0.930 . S
H118 C96 0.929 . S
H119 C97 0.929 . S
La120 C122 2.928 . S
La120 O140 2.521 . S
La120 O141 2.628 . S
La120 O142 2.554 . S
La120 O143 2.757 . S
La120 O144 2.470 . S
La120 O149 2.482 . S
La120 O151 2.503 . S
La121 C131 2.928 . S
La121 O143 2.482 . S
La121 O145 2.503 . S
La121 O146 2.521 . S
La121 O147 2.628 . S
La121 O148 2.554 . S
La121 O149 2.757 . S
La121 O150 2.470 . S
C122 La120 2.928 . S
C122 C123 1.503 1_554 S
C122 O140 1.261 . S
C122 O141 1.243 . S
C123 C122 1.503 1_556 S
C123 C124 1.394 . S
C123 C128 1.373 . S
C124 C123 1.394 . S
C124 C125 1.380 . S
C124 H152 0.930 . S
C125 C124 1.380 . S
C125 C126 1.376 . S
C125 H153 0.930 . S
C126 C125 1.376 . S
C126 C127 1.370 . S
C127 C126 1.370 . S
C127 C128 1.396 . S
C127 H154 0.929 . S
C128 C123 1.373 . S
C128 C127 1.396 . S
C128 H155 0.929 . S
C129 O142 1.240 . S
C129 O143 1.289 . S
C130 O144 1.258 . S
C130 O145 1.256 . S
C131 La121 2.928 . S
C131 C132 1.503 . S
C131 O146 1.261 . S
C131 O147 1.243 . S
C132 C131 1.503 . S
C132 C133 1.394 1_565 S
C132 C137 1.373 . S
C133 C132 1.394 1_545 S
C133 C134 1.380 . S
C133 H156 0.930 . S
C134 C133 1.380 . S
C134 C135 1.376 . S
C134 H157 0.930 . S
C135 C134 1.376 . S
C135 C136 1.370 1_645 S
C136 C135 1.370 1_465 S
C136 C137 1.396 1_455 S
C136 H158 0.929 . S
C137 C132 1.373 . S
C137 C136 1.396 1_655 S
C137 H159 0.929 . S
C138 O148 1.240 . S
C138 O149 1.289 . S
C139 O150 1.258 . S
C139 O151 1.256 . S
O140 La120 2.521 . S
O140 C122 1.261 . S
O141 La120 2.628 . S
O141 C122 1.243 . S
O142 La120 2.554 . S
O142 C129 1.240 . S
O143 La120 2.757 . S
O143 La121 2.482 . S
O143 C129 1.289 . S
O144 La120 2.470 . S
O144 C130 1.258 . S
O145 La121 2.503 . S
O145 C130 1.256 . S
O146 La121 2.521 . S
O146 C131 1.261 . S
O147 La121 2.628 . S
O147 C131 1.243 . S
O148 La121 2.554 . S
O148 C138 1.240 . S
O149 La120 2.482 . S
O149 La121 2.757 . S
O149 C138 1.289 . S
O150 La121 2.470 . S
O150 C139 1.258 . S
O151 La120 2.503 . S
O151 C139 1.256 . S
H152 C124 0.930 . S
H153 C125 0.930 . S
H154 C127 0.929 . S
H155 C128 0.929 . S
H156 C133 0.930 . S
H157 C134 0.930 . S
H158 C136 0.929 . S
H159 C137 0.929 . S
La160 C162 2.928 . S
La160 O180 2.521 . S
La160 O181 2.628 1_565 S
La160 O182 2.554 . S
La160 O183 2.757 . S
La160 O184 2.470 . S
La160 O189 2.482 1_565 S
La160 O191 2.503 . S
La161 C171 2.928 . S
La161 O183 2.482 1_545 S
La161 O185 2.503 . S
La161 O186 2.521 . S
La161 O187 2.628 1_545 S
La161 O188 2.554 . S
La161 O189 2.757 . S
La161 O190 2.470 . S
C162 La160 2.928 . S
C162 C163 1.503 . S
C162 O180 1.261 . S
C162 O181 1.243 1_565 S
C163 C162 1.503 . S
C163 C164 1.394 . S
C163 C168 1.373 1_565 S
C164 C163 1.394 . S
C164 C165 1.380 . S
C164 H192 0.930 . S
C165 C164 1.380 . S
C165 C166 1.376 . S
C165 H193 0.930 . S
C166 C165 1.376 . S
C166 C167 1.370 . S
C167 C166 1.370 . S
C167 C168 1.396 1_565 S
C167 H194 0.929 1_565 S
C168 C163 1.373 1_545 S
C168 C167 1.396 1_545 S
C168 H195 0.929 . S
C169 O182 1.240 . S
C169 O183 1.289 . S
C170 O184 1.258 1_545 S
C170 O185 1.256 . S
C171 La161 2.928 . S
C171 C172 1.503 . S
C171 O186 1.261 . S
C171 O187 1.243 1_545 S
C172 C171 1.503 . S
C172 C173 1.394 . S
C172 C177 1.373 1_545 S
C173 C172 1.394 . S
C173 C174 1.380 . S
C173 H196 0.930 . S
C174 C173 1.380 . S
C174 C175 1.376 . S
C174 H197 0.930 . S
C175 C174 1.376 . S
C175 C176 1.370 1_445 S
C176 C175 1.370 1_665 S
C176 C177 1.396 1_655 S
C176 H198 0.929 . S
C177 C172 1.373 1_565 S
C177 C176 1.396 1_455 S
C177 H199 0.929 . S
C178 O188 1.240 . S
C178 O189 1.289 . S
C179 O190 1.258 1_565 S
C179 O191 1.256 . S
O180 La160 2.521 . S
O180 C162 1.261 . S
O181 La160 2.628 1_545 S
O181 C162 1.243 1_545 S
O182 La160 2.554 . S
O182 C169 1.240 . S
O183 La160 2.757 . S
O183 La161 2.482 1_565 S
O183 C169 1.289 . S
O184 La160 2.470 . S
O184 C170 1.258 1_565 S
O185 La161 2.503 . S
O185 C170 1.256 . S
O186 La161 2.521 . S
O186 C171 1.261 . S
O187 La161 2.628 1_565 S
O187 C171 1.243 1_565 S
O188 La161 2.554 . S
O188 C178 1.240 . S
O189 La160 2.482 1_545 S
O189 La161 2.757 . S
O189 C178 1.289 . S
O190 La161 2.470 . S
O190 C179 1.258 1_545 S
O191 La160 2.503 . S
O191 C179 1.256 . S
H192 C164 0.930 . S
H193 C165 0.930 . S
H194 C167 0.929 1_545 S
H195 C168 0.929 . S
H196 C173 0.930 . S
H197 C174 0.930 . S
H198 C176 0.929 . S
H199 C177 0.929 . S
La200 C202 2.928 . S
La200 O220 2.521 . S
La200 O221 2.628 1_545 S
La200 O222 2.554 . S
La200 O223 2.757 . S
La200 O224 2.470 . S
La200 O229 2.482 1_545 S
La200 O231 2.503 . S
La201 C211 2.928 . S
La201 O223 2.482 1_565 S
La201 O225 2.503 . S
La201 O226 2.521 . S
La201 O227 2.628 1_565 S
La201 O228 2.554 . S
La201 O229 2.757 . S
La201 O230 2.470 . S
C202 La200 2.928 . S
C202 C203 1.503 . S
C202 O220 1.261 . S
C202 O221 1.243 1_545 S
C203 C202 1.503 . S
C203 C204 1.394 . S
C203 C208 1.373 1_545 S
C204 C203 1.394 . S
C204 C205 1.380 . S
C204 H232 0.930 . S
C205 C204 1.380 . S
C205 C206 1.376 . S
C205 H233 0.930 . S
C206 C205 1.376 . S
C206 C207 1.370 . S
C207 C206 1.370 . S
C207 C208 1.396 1_545 S
C207 H234 0.929 1_545 S
C208 C203 1.373 1_565 S
C208 C207 1.396 1_565 S
C208 H235 0.929 . S
C209 O222 1.240 . S
C209 O223 1.289 . S
C210 O224 1.258 1_565 S
C210 O225 1.256 . S
C211 La201 2.928 . S
C211 C212 1.503 . S
C211 O226 1.261 . S
C211 O227 1.243 1_565 S
C212 C211 1.503 . S
C212 C213 1.394 1_455 S
C212 C217 1.373 1_565 S
C213 C212 1.394 1_655 S
C213 C214 1.380 . S
C213 H236 0.930 . S
C214 C213 1.380 . S
C214 C215 1.376 . S
C214 H237 0.930 . S
C215 C214 1.376 . S
C215 C216 1.370 1_665 S
C216 C215 1.370 1_445 S
C216 C217 1.396 . S
C216 H238 0.929 . S
C217 C212 1.373 1_545 S
C217 C216 1.396 . S
C217 H239 0.929 . S
C218 O228 1.240 . S
C218 O229 1.289 . S
C219 O230 1.258 1_545 S
C219 O231 1.256 . S
O220 La200 2.521 . S
O220 C202 1.261 . S
O221 La200 2.628 1_565 S
O221 C202 1.243 1_565 S
O222 La200 2.554 . S
O222 C209 1.240 . S
O223 La200 2.757 . S
O223 La201 2.482 1_545 S
O223 C209 1.289 . S
O224 La200 2.470 . S
O224 C210 1.258 1_545 S
O225 La201 2.503 . S
O225 C210 1.256 . S
O226 La201 2.521 . S
O226 C211 1.261 . S
O227 La201 2.628 1_545 S
O227 C211 1.243 1_545 S
O228 La201 2.554 . S
O228 C218 1.240 . S
O229 La200 2.482 1_565 S
O229 La201 2.757 . S
O229 C218 1.289 . S
O230 La201 2.470 . S
O230 C219 1.258 1_565 S
O231 La200 2.503 . S
O231 C219 1.256 . S
H232 C204 0.930 . S
H233 C205 0.930 . S
H234 C207 0.929 1_565 S
H235 C208 0.929 . S
H236 C213 0.930 . S
H237 C214 0.930 . S
H238 C216 0.929 . S
H239 C217 0.929 . S
C179 C6 3.836 . S
C206 C59 3.836 . S
C19 C86 3.835 . S
C46 C139 3.836 . S
C99 C166 3.835 . S
C126 C219 3.835 . S
C9 C138 4.157 . S
C169 C58 4.158 . S
C218 C89 4.156 . S
C98 C209 4.156 . S
C18 C129 4.157 . S
C178 C49 4.157 . S
C215 C15 0.817 1_556 S
C50 C10 2.987 1_455 S
C95 C55 0.817 1_565 S
C90 C130 2.987 1_556 S
C175 C135 0.818 1_455 S
C210 C170 2.988 1_565 S
