# Generated by pormake.
# Topology smk, (6)-cn, num edge types: 1
# Building blocks:
#     Node 0, Type 0, BuildingBlock: OJICUG_clean_sbu_0, # of connection points: 6
#     Node 1, Type 0, BuildingBlock: OJICUG_clean_sbu_0, # of connection points: 6
#     Node 2, Type 0, BuildingBlock: OJICUG_clean_sbu_0, # of connection points: 6
#     Node 3, Type 0, BuildingBlock: OJICUG_clean_sbu_0, # of connection points: 6
#     Node 4, Type 0, BuildingBlock: OJICUG_clean_sbu_0, # of connection points: 6
#     Node 5, Type 0, BuildingBlock: OJICUG_clean_sbu_0, # of connection points: 6
#     Edge 6, Type (0, 0), BuildingBlock: EYOCIG_clean_linker_4, # of connection points: 2
#     Edge 7, Type (0, 0), BuildingBlock: EYOCIG_clean_linker_4, # of connection points: 2
#     Edge 8, Type (0, 0), BuildingBlock: EYOCIG_clean_linker_4, # of connection points: 2
#     Edge 9, Type (0, 0), BuildingBlock: EYOCIG_clean_linker_4, # of connection points: 2
#     Edge 10, Type (0, 0), BuildingBlock: EYOCIG_clean_linker_4, # of connection points: 2
#     Edge 11, Type (0, 0), BuildingBlock: EYOCIG_clean_linker_4, # of connection points: 2
#     Edge 12, Type (0, 0), BuildingBlock: EYOCIG_clean_linker_4, # of connection points: 2
#     Edge 13, Type (0, 0), BuildingBlock: EYOCIG_clean_linker_4, # of connection points: 2
#     Edge 14, Type (0, 0), BuildingBlock: EYOCIG_clean_linker_4, # of connection points: 2
#     Edge 15, Type (0, 0), BuildingBlock: EYOCIG_clean_linker_4, # of connection points: 2
#     Edge 16, Type (0, 0), BuildingBlock: EYOCIG_clean_linker_4, # of connection points: 2
#     Edge 17, Type (0, 0), BuildingBlock: EYOCIG_clean_linker_4, # of connection points: 2
#     Edge 18, Type (0, 0), BuildingBlock: EYOCIG_clean_linker_4, # of connection points: 2
#     Edge 19, Type (0, 0), BuildingBlock: EYOCIG_clean_linker_4, # of connection points: 2
#     Edge 20, Type (0, 0), BuildingBlock: EYOCIG_clean_linker_4, # of connection points: 2
#     Edge 21, Type (0, 0), BuildingBlock: EYOCIG_clean_linker_4, # of connection points: 2
#     Edge 22, Type (0, 0), BuildingBlock: EYOCIG_clean_linker_4, # of connection points: 2
#     Edge 23, Type (0, 0), BuildingBlock: EYOCIG_clean_linker_4, # of connection points: 2
# Relax obj value: 0.194
# Max RMSD: 0.221
# Mean RMSD: 0.221
data_MOF--net-smk--node1-OJICUG_clean_sbu_0--edge1-EYOCIG_clean_linker_4
_symmetry_space_group_name_H-M    P1
_symmetry_Int_Tables_number       1
_symmetry_cell_setting            triclinic
loop_
_symmetry_equiv_pos_as_xyz
'x, y, z'
_cell_length_a     35.794864
_cell_length_b     35.807977
_cell_length_c     12.778832
_cell_angle_alpha  89.986986
_cell_angle_beta   90.027258
_cell_angle_gamma 119.97059
loop_
_atom_site_label
_atom_site_type_symbol
_atom_site_fract_x
_atom_site_fract_y
_atom_site_fract_z
_atom_type_partial_charge
Sc0 Sc 0.44796 0.19254 0.47263 0.0
Sc1 Sc 0.34919 0.17255 0.5833 0.0
Sc2 Sc 0.44797 0.25113 0.69425 0.0
O3 O 0.41501 0.20539 0.58339 0.0
C4 C 0.50582 0.20634 0.67261 0.0
C5 C 0.36975 0.09829 0.52817 0.0
C6 C 0.36982 0.18268 0.82984 0.0
C7 C 0.36985 0.18301 0.33682 0.0
C8 C 0.50585 0.29509 0.49442 0.0
C9 C 0.36982 0.26736 0.63856 0.0
O10 O 0.49106 0.18962 0.58401 0.0
O11 O 0.3461 0.11101 0.57158 0.0
O12 O 0.40907 0.2114 0.82009 0.0
O13 O 0.40908 0.19344 0.34667 0.0
O14 O 0.4911 0.29709 0.58298 0.0
O15 O 0.34616 0.23105 0.59502 0.0
O16 O 0.49372 0.26011 0.44465 0.0
O17 O 0.34418 0.17412 0.41371 0.0
O18 O 0.4064 0.27862 0.67913 0.0
O19 O 0.40635 0.12354 0.48771 0.0
O20 O 0.4937 0.22922 0.72234 0.0
O21 O 0.34415 0.16598 0.75288 0.0
Sc22 Sc 0.24707 0.45248 0.64013 0.0
Sc23 Sc 0.16833 0.35375 0.75081 0.0
Sc24 Sc 0.18834 0.45252 0.86145 0.0
O25 O 0.20123 0.41955 0.7508 0.0
C26 C 0.29095 0.51032 0.84017 0.0
C27 C 0.26319 0.3743 0.69582 0.0
C28 C 0.17874 0.37439 0.99729 0.0
C29 C 0.17855 0.37439 0.50431 0.0
C30 C 0.20234 0.51038 0.66142 0.0
C31 C 0.09406 0.37439 0.80572 0.0
O32 O 0.29298 0.49561 0.75157 0.0
O33 O 0.2268 0.35063 0.739 0.0
O34 O 0.18907 0.41359 0.98745 0.0
O35 O 0.20741 0.41358 0.51415 0.0
O36 O 0.1856 0.49568 0.75002 0.0
O37 O 0.10677 0.35069 0.76261 0.0
O38 O 0.22518 0.49819 0.61176 0.0
O39 O 0.1617 0.34875 0.58123 0.0
O40 O 0.11932 0.41102 0.84599 0.0
O41 O 0.27456 0.41093 0.65553 0.0
O42 O 0.25594 0.49817 0.88984 0.0
O43 O 0.16996 0.34875 0.92039 0.0
Sc44 Sc 0.78618 0.25116 0.80628 0.0
Sc45 Sc 0.8064 0.17251 0.91702 0.0
Sc46 Sc 0.72752 0.19241 0.02765 0.0
O47 O 0.77338 0.20534 0.91698 0.0
C48 C 0.77211 0.29496 0.00641 0.0
C49 C 0.88053 0.26743 0.86208 0.0
C50 C 0.79614 0.18286 0.16349 0.0
C51 C 0.79597 0.18272 0.67052 0.0
C52 C 0.68357 0.20635 0.82751 0.0
C53 C 0.71155 0.0982 0.97192 0.0
O54 O 0.78873 0.29699 0.91765 0.0
O55 O 0.86789 0.23101 0.90503 0.0
O56 O 0.76715 0.19305 0.15364 0.0
O57 O 0.78564 0.21161 0.68031 0.0
O58 O 0.6816 0.18973 0.91627 0.0
O59 O 0.748 0.11094 0.92903 0.0
O60 O 0.71856 0.22912 0.7777 0.0
O61 O 0.80472 0.16583 0.74746 0.0
O62 O 0.70007 0.12342 0.012 0.0
O63 O 0.85521 0.27878 0.82192 0.0
O64 O 0.7494 0.25996 0.05622 0.0
O65 O 0.81311 0.1742 0.08659 0.0
Sc66 Sc 0.52659 0.79049 0.97324 0.0
Sc67 Sc 0.62534 0.81042 0.08417 0.0
Sc68 Sc 0.52652 0.73184 0.19487 0.0
O69 O 0.55952 0.7776 0.0841 0.0
C70 C 0.46873 0.77669 0.17309 0.0
C71 C 0.60484 0.88472 0.0289 0.0
C72 C 0.60468 0.80025 0.33066 0.0
C73 C 0.60469 0.79998 0.83764 0.0
C74 C 0.46865 0.68793 0.99489 0.0
C75 C 0.60465 0.71557 0.13936 0.0
O76 O 0.4835 0.79342 0.08452 0.0
O77 O 0.62847 0.87199 0.07239 0.0
O78 O 0.56543 0.77153 0.32081 0.0
O79 O 0.56546 0.78958 0.8474 0.0
O80 O 0.48339 0.68591 0.0835 0.0
O81 O 0.62833 0.7519 0.09594 0.0
O82 O 0.48081 0.72293 0.94515 0.0
O83 O 0.63035 0.80885 0.9146 0.0
O84 O 0.56806 0.70431 0.17981 0.0
O85 O 0.56823 0.85949 0.98838 0.0
O86 O 0.48083 0.75379 0.22286 0.0
O87 O 0.63035 0.81698 0.25376 0.0
Sc88 Sc 0.72747 0.53052 0.14032 0.0
Sc89 Sc 0.80621 0.62925 0.2511 0.0
Sc90 Sc 0.78622 0.53048 0.36176 0.0
O91 O 0.77332 0.56345 0.25106 0.0
C92 C 0.68362 0.47269 0.34038 0.0
C93 C 0.71132 0.60866 0.19606 0.0
C94 C 0.79586 0.60862 0.49758 0.0
C95 C 0.79598 0.60864 0.0046 0.0
C96 C 0.77219 0.47262 0.1617 0.0
C97 C 0.88049 0.60859 0.30602 0.0
O98 O 0.6816 0.48735 0.25168 0.0
O99 O 0.74774 0.63235 0.23918 0.0
O100 O 0.78558 0.56944 0.48774 0.0
O101 O 0.7671 0.56946 0.0144 0.0
O102 O 0.78889 0.48726 0.25039 0.0
O103 O 0.86776 0.63231 0.26303 0.0
O104 O 0.7494 0.48485 0.11191 0.0
O105 O 0.81285 0.63427 0.08154 0.0
O106 O 0.85524 0.57194 0.34622 0.0
O107 O 0.69995 0.57203 0.15579 0.0
O108 O 0.71863 0.48487 0.39018 0.0
O109 O 0.80458 0.63425 0.42067 0.0
Sc110 Sc 0.18838 0.73188 0.30597 0.0
Sc111 Sc 0.16818 0.81054 0.41659 0.0
Sc112 Sc 0.24704 0.79061 0.52745 0.0
O113 O 0.20118 0.7777 0.41667 0.0
C114 C 0.20245 0.68807 0.5062 0.0
C115 C 0.09404 0.7156 0.36172 0.0
C116 C 0.17844 0.80021 0.6631 0.0
C117 C 0.17857 0.80032 0.17012 0.0
C118 C 0.29097 0.77667 0.32739 0.0
C119 C 0.26305 0.88483 0.47156 0.0
O120 O 0.18588 0.68606 0.41734 0.0
O121 O 0.10669 0.75205 0.40455 0.0
O122 O 0.20743 0.79002 0.65335 0.0
O123 O 0.18887 0.77141 0.17997 0.0
O124 O 0.29294 0.79324 0.4162 0.0
O125 O 0.22659 0.8721 0.42865 0.0
O126 O 0.256 0.75395 0.27744 0.0
O127 O 0.16985 0.81723 0.24703 0.0
O128 O 0.27452 0.8596 0.51171 0.0
O129 O 0.11935 0.70424 0.32163 0.0
O130 O 0.22511 0.72306 0.55611 0.0
O131 O 0.16147 0.80886 0.58614 0.0
C132 C 0.34704 0.17283 0.13853 0.0
C133 C 0.3534 0.1765 0.23173 0.0
C134 C 0.34703 0.1701 0.02808 0.0
C135 C 0.35337 0.17277 0.93488 0.0
C136 C 0.16591 0.35163 0.30603 0.0
C137 C 0.16859 0.35796 0.39924 0.0
C138 C 0.16861 0.35163 0.19558 0.0
C139 C 0.17227 0.35797 0.10237 0.0
C140 C 0.80883 0.17279 0.3618 0.0
C141 C 0.80615 0.17643 0.26858 0.0
C142 C 0.80613 0.1701 0.47226 0.0
C143 C 0.80245 0.17277 0.56546 0.0
C144 C 0.62748 0.81283 0.52895 0.0
C145 C 0.62113 0.81016 0.43574 0.0
C146 C 0.62748 0.81012 0.6394 0.0
C147 C 0.62113 0.80646 0.7326 0.0
C148 C 0.80596 0.63138 0.69586 0.0
C149 C 0.80231 0.62503 0.60266 0.0
C150 C 0.80865 0.6314 0.80632 0.0
C151 C 0.80596 0.62507 0.89954 0.0
C152 C 0.16843 0.81297 0.97182 0.0
C153 C 0.1721 0.81029 0.06504 0.0
C154 C 0.16574 0.81028 0.86136 0.0
C155 C 0.16843 0.80663 0.76815 0.0
C156 C 0.33609 0.01417 0.50647 0.0
C157 C 0.35225 0.05271 0.51529 0.0
C158 C 0.3135 0.96896 0.49299 0.0
C159 C 0.29114 0.93041 0.48429 0.0
C160 C 0.33621 0.31791 0.66043 0.0
C161 C 0.35235 0.29549 0.65153 0.0
C162 C 0.31364 0.34056 0.67406 0.0
C163 C 0.29128 0.35677 0.6829 0.0
C164 C 0.96467 0.31803 0.84066 0.0
C165 C 0.92612 0.2956 0.84935 0.0
C166 C 0.00989 0.3407 0.82724 0.0
C167 C 0.04846 0.3569 0.81853 0.0
C168 C 0.63854 0.96886 0.00708 0.0
C169 C 0.62236 0.93031 0.01596 0.0
C170 C 0.66113 0.01406 0.9935 0.0
C171 C 0.68349 0.05261 0.98472 0.0
C172 C 0.66081 0.64234 0.17453 0.0
C173 C 0.6832 0.62615 0.18326 0.0
C174 C 0.63823 0.66499 0.16105 0.0
C175 C 0.62209 0.68742 0.15225 0.0
C176 C 0.96467 0.64226 0.32731 0.0
C177 C 0.92609 0.62605 0.31872 0.0
C178 C 0.0099 0.66495 0.34055 0.0
C179 C 0.04846 0.6874 0.34912 0.0
C180 C 0.57233 0.36798 0.43004 0.0
C181 C 0.54206 0.33396 0.45622 0.0
C182 C 0.6107 0.40631 0.40498 0.0
C183 C 0.64475 0.43653 0.37875 0.0
C184 C 0.19592 0.57684 0.59656 0.0
C185 C 0.19967 0.54657 0.623 0.0
C186 C 0.19596 0.61519 0.57119 0.0
C187 C 0.19974 0.64921 0.54477 0.0
C188 C 0.61062 0.19982 0.76263 0.0
C189 C 0.64467 0.20362 0.78904 0.0
C190 C 0.57226 0.19981 0.73731 0.0
C191 C 0.54201 0.20361 0.71094 0.0
C192 C 0.40219 0.61506 0.93022 0.0
C193 C 0.43245 0.64907 0.95654 0.0
C194 C 0.36385 0.57673 0.90496 0.0
C195 C 0.32983 0.54649 0.87859 0.0
C196 C 0.77862 0.40617 0.09682 0.0
C197 C 0.77487 0.43643 0.12326 0.0
C198 C 0.77859 0.36782 0.07141 0.0
C199 C 0.77481 0.33381 0.04496 0.0
C200 C 0.4023 0.78323 0.23756 0.0
C201 C 0.43255 0.77943 0.21131 0.0
C202 C 0.36393 0.78323 0.26273 0.0
C203 C 0.32988 0.77942 0.28901 0.0
loop_
_geom_bond_atom_site_label_1
_geom_bond_atom_site_label_2
_geom_bond_distance
_geom_bond_site_symmetry_2
_ccdc_geom_bond_type
Sc0 O3 2.025 . S
Sc0 O10 2.105 . S
Sc0 O13 2.105 . S
Sc0 O16 2.105 . S
Sc0 O19 2.105 . S
Sc1 O3 2.025 . S
Sc1 O11 2.105 . S
Sc1 O15 2.105 . S
Sc1 O17 2.105 . S
Sc1 O21 2.105 . S
Sc2 O3 2.025 . S
Sc2 O12 2.105 . S
Sc2 O14 2.105 . S
Sc2 O18 2.105 . S
Sc2 O20 2.105 . S
O3 Sc0 2.025 . S
O3 Sc1 2.025 . S
O3 Sc2 2.025 . S
C4 O10 1.268 . S
C4 O20 1.268 . S
C5 O11 1.268 . S
C5 O19 1.268 . S
C6 O12 1.268 . S
C6 O21 1.268 . S
C7 O13 1.268 . S
C7 O17 1.268 . S
C8 O14 1.268 . S
C8 O16 1.268 . S
C9 O15 1.268 . S
C9 O18 1.268 . S
O10 Sc0 2.105 . S
O10 C4 1.268 . S
O11 Sc1 2.105 . S
O11 C5 1.268 . S
O12 Sc2 2.105 . S
O12 C6 1.268 . S
O13 Sc0 2.105 . S
O13 C7 1.268 . S
O14 Sc2 2.105 . S
O14 C8 1.268 . S
O15 Sc1 2.105 . S
O15 C9 1.268 . S
O16 Sc0 2.105 . S
O16 C8 1.268 . S
O17 Sc1 2.105 . S
O17 C7 1.268 . S
O18 Sc2 2.105 . S
O18 C9 1.268 . S
O19 Sc0 2.105 . S
O19 C5 1.268 . S
O20 Sc2 2.105 . S
O20 C4 1.268 . S
O21 Sc1 2.105 . S
O21 C6 1.268 . S
Sc22 O25 2.025 . S
Sc22 O32 2.105 . S
Sc22 O35 2.105 . S
Sc22 O38 2.105 . S
Sc22 O41 2.105 . S
Sc23 O25 2.025 . S
Sc23 O33 2.105 . S
Sc23 O37 2.105 . S
Sc23 O39 2.105 . S
Sc23 O43 2.105 . S
Sc24 O25 2.025 . S
Sc24 O34 2.105 . S
Sc24 O36 2.105 . S
Sc24 O40 2.105 . S
Sc24 O42 2.105 . S
O25 Sc22 2.025 . S
O25 Sc23 2.025 . S
O25 Sc24 2.025 . S
C26 O32 1.268 . S
C26 O42 1.268 . S
C27 O33 1.268 . S
C27 O41 1.268 . S
C28 O34 1.268 . S
C28 O43 1.268 . S
C29 O35 1.268 . S
C29 O39 1.268 . S
C30 O36 1.268 . S
C30 O38 1.268 . S
C31 O37 1.268 . S
C31 O40 1.268 . S
O32 Sc22 2.105 . S
O32 C26 1.268 . S
O33 Sc23 2.105 . S
O33 C27 1.268 . S
O34 Sc24 2.105 . S
O34 C28 1.268 . S
O35 Sc22 2.105 . S
O35 C29 1.268 . S
O36 Sc24 2.105 . S
O36 C30 1.268 . S
O37 Sc23 2.105 . S
O37 C31 1.268 . S
O38 Sc22 2.105 . S
O38 C30 1.268 . S
O39 Sc23 2.105 . S
O39 C29 1.268 . S
O40 Sc24 2.105 . S
O40 C31 1.268 . S
O41 Sc22 2.105 . S
O41 C27 1.268 . S
O42 Sc24 2.105 . S
O42 C26 1.268 . S
O43 Sc23 2.105 . S
O43 C28 1.268 . S
Sc44 O47 2.025 . S
Sc44 O54 2.105 . S
Sc44 O57 2.105 . S
Sc44 O60 2.105 . S
Sc44 O63 2.105 . S
Sc45 O47 2.025 . S
Sc45 O55 2.105 . S
Sc45 O59 2.105 . S
Sc45 O61 2.105 . S
Sc45 O65 2.105 1_556 S
Sc46 O47 2.025 1_554 S
Sc46 O56 2.105 . S
Sc46 O58 2.105 1_554 S
Sc46 O62 2.105 1_554 S
Sc46 O64 2.105 . S
O47 Sc44 2.025 . S
O47 Sc45 2.025 . S
O47 Sc46 2.025 1_556 S
C48 O54 1.268 1_554 S
C48 O64 1.268 . S
C49 O55 1.268 . S
C49 O63 1.268 . S
C50 O56 1.268 . S
C50 O65 1.268 . S
C51 O57 1.268 . S
C51 O61 1.268 . S
C52 O58 1.268 . S
C52 O60 1.268 . S
C53 O59 1.268 . S
C53 O62 1.268 . S
O54 Sc44 2.105 . S
O54 C48 1.268 1_556 S
O55 Sc45 2.105 . S
O55 C49 1.268 . S
O56 Sc46 2.105 . S
O56 C50 1.268 . S
O57 Sc44 2.105 . S
O57 C51 1.268 . S
O58 Sc46 2.105 1_556 S
O58 C52 1.268 . S
O59 Sc45 2.105 . S
O59 C53 1.268 . S
O60 Sc44 2.105 . S
O60 C52 1.268 . S
O61 Sc45 2.105 . S
O61 C51 1.268 . S
O62 Sc46 2.105 1_556 S
O62 C53 1.268 . S
O63 Sc44 2.105 . S
O63 C49 1.268 . S
O64 Sc46 2.105 . S
O64 C48 1.268 . S
O65 Sc45 2.105 1_554 S
O65 C50 1.268 . S
Sc66 O69 2.025 1_556 S
Sc66 O76 2.105 1_556 S
Sc66 O79 2.105 . S
Sc66 O82 2.105 . S
Sc66 O85 2.105 1_556 S
Sc67 O69 2.025 . S
Sc67 O77 2.105 . S
Sc67 O81 2.105 . S
Sc67 O83 2.105 1_554 S
Sc67 O87 2.105 . S
Sc68 O69 2.025 . S
Sc68 O78 2.105 . S
Sc68 O80 2.105 . S
Sc68 O84 2.105 . S
Sc68 O86 2.105 . S
O69 Sc66 2.025 1_554 S
O69 Sc67 2.025 . S
O69 Sc68 2.025 . S
C70 O76 1.268 . S
C70 O86 1.268 . S
C71 O77 1.268 . S
C71 O85 1.268 . S
C72 O78 1.268 . S
C72 O87 1.268 . S
C73 O79 1.268 . S
C73 O83 1.268 . S
C74 O80 1.268 1_556 S
C74 O82 1.268 . S
C75 O81 1.268 . S
C75 O84 1.268 . S
O76 Sc66 2.105 1_554 S
O76 C70 1.268 . S
O77 Sc67 2.105 . S
O77 C71 1.268 . S
O78 Sc68 2.105 . S
O78 C72 1.268 . S
O79 Sc66 2.105 . S
O79 C73 1.268 . S
O80 Sc68 2.105 . S
O80 C74 1.268 1_554 S
O81 Sc67 2.105 . S
O81 C75 1.268 . S
O82 Sc66 2.105 . S
O82 C74 1.268 . S
O83 Sc67 2.105 1_556 S
O83 C73 1.268 . S
O84 Sc68 2.105 . S
O84 C75 1.268 . S
O85 Sc66 2.105 1_554 S
O85 C71 1.268 . S
O86 Sc68 2.105 . S
O86 C70 1.268 . S
O87 Sc67 2.105 . S
O87 C72 1.268 . S
Sc88 O91 2.025 . S
Sc88 O98 2.105 . S
Sc88 O101 2.105 . S
Sc88 O104 2.105 . S
Sc88 O107 2.105 . S
Sc89 O91 2.025 . S
Sc89 O99 2.105 . S
Sc89 O103 2.105 . S
Sc89 O105 2.105 . S
Sc89 O109 2.105 . S
Sc90 O91 2.025 . S
Sc90 O100 2.105 . S
Sc90 O102 2.105 . S
Sc90 O106 2.105 . S
Sc90 O108 2.105 . S
O91 Sc88 2.025 . S
O91 Sc89 2.025 . S
O91 Sc90 2.025 . S
C92 O98 1.268 . S
C92 O108 1.268 . S
C93 O99 1.268 . S
C93 O107 1.268 . S
C94 O100 1.268 . S
C94 O109 1.268 . S
C95 O101 1.268 . S
C95 O105 1.268 . S
C96 O102 1.268 . S
C96 O104 1.268 . S
C97 O103 1.268 . S
C97 O106 1.268 . S
O98 Sc88 2.105 . S
O98 C92 1.268 . S
O99 Sc89 2.105 . S
O99 C93 1.268 . S
O100 Sc90 2.105 . S
O100 C94 1.268 . S
O101 Sc88 2.105 . S
O101 C95 1.268 . S
O102 Sc90 2.105 . S
O102 C96 1.268 . S
O103 Sc89 2.105 . S
O103 C97 1.268 . S
O104 Sc88 2.105 . S
O104 C96 1.268 . S
O105 Sc89 2.105 . S
O105 C95 1.268 . S
O106 Sc90 2.105 . S
O106 C97 1.268 . S
O107 Sc88 2.105 . S
O107 C93 1.268 . S
O108 Sc90 2.105 . S
O108 C92 1.268 . S
O109 Sc89 2.105 . S
O109 C94 1.268 . S
Sc110 O113 2.025 . S
Sc110 O120 2.105 . S
Sc110 O123 2.105 . S
Sc110 O126 2.105 . S
Sc110 O129 2.105 . S
Sc111 O113 2.025 . S
Sc111 O121 2.105 . S
Sc111 O125 2.105 . S
Sc111 O127 2.105 . S
Sc111 O131 2.105 . S
Sc112 O113 2.025 . S
Sc112 O122 2.105 . S
Sc112 O124 2.105 . S
Sc112 O128 2.105 . S
Sc112 O130 2.105 . S
O113 Sc110 2.025 . S
O113 Sc111 2.025 . S
O113 Sc112 2.025 . S
C114 O120 1.268 . S
C114 O130 1.268 . S
C115 O121 1.268 . S
C115 O129 1.268 . S
C116 O122 1.268 . S
C116 O131 1.268 . S
C117 O123 1.268 . S
C117 O127 1.268 . S
C118 O124 1.268 . S
C118 O126 1.268 . S
C119 O125 1.268 . S
C119 O128 1.268 . S
O120 Sc110 2.105 . S
O120 C114 1.268 . S
O121 Sc111 2.105 . S
O121 C115 1.268 . S
O122 Sc112 2.105 . S
O122 C116 1.268 . S
O123 Sc110 2.105 . S
O123 C117 1.268 . S
O124 Sc112 2.105 . S
O124 C118 1.268 . S
O125 Sc111 2.105 . S
O125 C119 1.268 . S
O126 Sc110 2.105 . S
O126 C118 1.268 . S
O127 Sc111 2.105 . S
O127 C117 1.268 . S
O128 Sc112 2.105 . S
O128 C119 1.268 . S
O129 Sc110 2.105 . S
O129 C115 1.268 . S
O130 Sc112 2.105 . S
O130 C114 1.268 . S
O131 Sc111 2.105 . S
O131 C116 1.268 . S
C132 C133 1.170 . S
C132 C134 1.380 . S
C133 C132 1.170 . S
C134 C132 1.380 . S
C134 C135 1.170 1_554 S
C135 C134 1.170 1_556 S
C136 C137 1.170 . S
C136 C138 1.380 . S
C137 C136 1.170 . S
C138 C136 1.380 . S
C138 C139 1.170 . S
C139 C138 1.170 . S
C140 C141 1.170 . S
C140 C142 1.380 . S
C141 C140 1.170 . S
C142 C140 1.380 . S
C142 C143 1.170 . S
C143 C142 1.170 . S
C144 C145 1.170 . S
C144 C146 1.380 . S
C145 C144 1.170 . S
C146 C144 1.380 . S
C146 C147 1.170 . S
C147 C146 1.170 . S
C148 C149 1.170 . S
C148 C150 1.380 . S
C149 C148 1.170 . S
C150 C148 1.380 . S
C150 C151 1.170 . S
C151 C150 1.170 . S
C152 C153 1.170 1_556 S
C152 C154 1.380 . S
C153 C152 1.170 1_554 S
C154 C152 1.380 . S
C154 C155 1.170 . S
C155 C154 1.170 . S
C156 C157 1.170 . S
C156 C158 1.380 1_545 S
C157 C156 1.170 . S
C158 C156 1.380 1_565 S
C158 C159 1.170 . S
C159 C158 1.170 . S
C160 C161 1.170 . S
C160 C162 1.380 . S
C161 C160 1.170 . S
C162 C160 1.380 . S
C162 C163 1.170 . S
C163 C162 1.170 . S
C164 C165 1.170 . S
C164 C166 1.380 1_655 S
C165 C164 1.170 . S
C166 C164 1.380 1_455 S
C166 C167 1.170 . S
C167 C166 1.170 . S
C168 C169 1.170 . S
C168 C170 1.380 1_564 S
C169 C168 1.170 . S
C170 C168 1.380 1_546 S
C170 C171 1.170 . S
C171 C170 1.170 . S
C172 C173 1.170 . S
C172 C174 1.380 . S
C173 C172 1.170 . S
C174 C172 1.380 . S
C174 C175 1.170 . S
C175 C174 1.170 . S
C176 C177 1.170 . S
C176 C178 1.380 1_655 S
C177 C176 1.170 . S
C178 C176 1.380 1_455 S
C178 C179 1.170 . S
C179 C178 1.170 . S
C180 C181 1.170 . S
C180 C182 1.380 . S
C181 C180 1.170 . S
C182 C180 1.380 . S
C182 C183 1.170 . S
C183 C182 1.170 . S
C184 C185 1.170 . S
C184 C186 1.380 . S
C185 C184 1.170 . S
C186 C184 1.380 . S
C186 C187 1.170 . S
C187 C186 1.170 . S
C188 C189 1.170 . S
C188 C190 1.380 . S
C189 C188 1.170 . S
C190 C188 1.380 . S
C190 C191 1.170 . S
C191 C190 1.170 . S
C192 C193 1.170 . S
C192 C194 1.380 . S
C193 C192 1.170 . S
C194 C192 1.380 . S
C194 C195 1.170 . S
C195 C194 1.170 . S
C196 C197 1.170 . S
C196 C198 1.380 . S
C197 C196 1.170 . S
C198 C196 1.380 . S
C198 C199 1.170 . S
C199 C198 1.170 . S
C200 C201 1.170 . S
C200 C202 1.380 . S
C201 C200 1.170 . S
C202 C200 1.380 . S
C202 C203 1.170 . S
C203 C202 1.170 . S
C133 C7 1.542 . S
C135 C6 1.514 . S
C137 C29 1.533 . S
C139 C28 1.513 1_554 S
C141 C50 1.513 . S
C143 C51 1.532 . S
C145 C72 1.538 . S
C147 C73 1.513 . S
C149 C94 1.529 . S
C151 C95 1.514 1_556 S
C153 C117 1.550 . S
C155 C116 1.548 . S
C157 C5 1.606 . S
C159 C119 1.631 . S
C161 C9 1.611 . S
C163 C27 1.606 . S
C165 C49 1.640 . S
C167 C31 1.622 . S
C169 C71 1.603 . S
C171 C53 1.621 . S
C173 C93 1.636 . S
C175 C75 1.612 . S
C177 C97 1.616 . S
C179 C115 1.639 . S
C181 C8 1.314 . S
C183 C92 1.311 . S
C185 C30 1.324 . S
C187 C114 1.296 . S
C189 C52 1.323 . S
C191 C4 1.298 . S
C193 C74 1.282 . S
C195 C26 1.324 . S
C197 C96 1.293 . S
C199 C48 1.325 . S
C201 C70 1.318 . S
C203 C118 1.306 . S
