# Generated by pormake.
# Topology qtz-e, (6)-cn, num edge types: 1
# Building blocks:
#     Node 0, Type 0, BuildingBlock: MIFKUJ_clean_sbu_0, # of connection points: 6
#     Node 1, Type 0, BuildingBlock: MIFKUJ_clean_sbu_0, # of connection points: 6
#     Node 2, Type 0, BuildingBlock: MIFKUJ_clean_sbu_0, # of connection points: 6
#     Node 3, Type 0, BuildingBlock: MIFKUJ_clean_sbu_0, # of connection points: 6
#     Node 4, Type 0, BuildingBlock: MIFKUJ_clean_sbu_0, # of connection points: 6
#     Node 5, Type 0, BuildingBlock: MIFKUJ_clean_sbu_0, # of connection points: 6
#     Edge 6, Type (0, 0), None
#     Edge 7, Type (0, 0), None
#     Edge 8, Type (0, 0), None
#     Edge 9, Type (0, 0), None
#     Edge 10, Type (0, 0), None
#     Edge 11, Type (0, 0), None
#     Edge 12, Type (0, 0), None
#     Edge 13, Type (0, 0), None
#     Edge 14, Type (0, 0), None
#     Edge 15, Type (0, 0), None
#     Edge 16, Type (0, 0), None
#     Edge 17, Type (0, 0), None
#     Edge 18, Type (0, 0), None
#     Edge 19, Type (0, 0), None
#     Edge 20, Type (0, 0), None
#     Edge 21, Type (0, 0), None
#     Edge 22, Type (0, 0), None
#     Edge 23, Type (0, 0), None
# Relax obj value: 0.222
# Max RMSD: 0.244
# Mean RMSD: 0.244
data_MOF--net-qtz-e--node1-MIFKUJ_clean_sbu_0--edge1-none
_symmetry_space_group_name_H-M    P1
_symmetry_Int_Tables_number       1
_symmetry_cell_setting            triclinic
loop_
_symmetry_equiv_pos_as_xyz
'x, y, z'
_cell_length_a     11.710252
_cell_length_b     11.664717
_cell_length_c     25.813552
_cell_angle_alpha  89.793613
_cell_angle_beta   90.020791
_cell_angle_gamma 119.75903
loop_
_atom_site_label
_atom_site_type_symbol
_atom_site_fract_x
_atom_site_fract_y
_atom_site_fract_z
_atom_type_partial_charge
Zn0 Zn 0.14763 0.36091 0.93217 0.0
Zn1 Zn 0.11684 0.36395 0.08439 0.0
C2 C 0.17238 0.49907 0.83701 0.0
O3 O 0.04775 0.41367 0.82893 0.0
C4 C 0.059 0.19908 0.1736 0.0
O5 O 0.18639 0.27487 0.17993 0.0
O6 O 0.08827 0.19848 0.88651 0.0
O7 O 0.31265 0.4161 -0.02617 0.0
O8 O 0.29727 0.41013 0.05973 0.0
C9 C 0.13547 0.12182 0.89181 0.0
O10 O 0.19275 0.12333 0.93576 0.0
O11 O 0.22887 0.49402 0.87809 0.0
C12 C 0.22756 0.62067 0.12911 0.0
O13 O 0.26613 0.66596 0.08195 0.0
O14 O 0.16776 0.49766 0.13806 0.0
O15 O 0.00726 0.41902 0.04204 0.0
O16 O 0.01561 0.41024 0.95627 0.0
O17 O 0.00952 0.20015 0.12963 0.0
C18 C 0.36448 0.43462 0.01843 0.0
C19 C -0.02643 0.4365 -0.00273 0.0
Zn20 Zn 0.74059 0.15883 0.26156 0.0
Zn21 Zn 0.71614 0.13443 0.4201 0.0
C22 C 0.63486 0.20019 0.16832 0.0
O23 O 0.59326 0.07509 0.15882 0.0
C24 C 0.8109 0.07133 0.51053 0.0
O25 O 0.86674 0.20004 0.51561 0.0
O26 O 0.85076 0.10999 0.21477 0.0
O27 O 0.84013 0.30626 0.31299 0.0
O28 O 0.85798 0.31395 0.39863 0.0
C29 C -0.02566 0.16066 0.22023 0.0
O30 O 0.02775 0.21689 0.26451 0.0
O31 O 0.69469 0.2524 0.21013 0.0
C32 C 0.56437 0.24405 0.46229 0.0
O33 O 0.56581 0.28959 0.41556 0.0
O34 O 0.62297 0.17977 0.47148 0.0
O35 O 0.57016 0.03566 0.36845 0.0
O36 O 0.56125 0.01734 0.28293 0.0
O37 O 0.76208 0.02089 0.46658 0.0
C38 C 0.88651 0.37067 0.35467 0.0
C39 C 0.5053 -0.01097 0.32692 0.0
Zn40 Zn 0.51708 0.76714 0.59891 0.0
Zn41 Zn 0.51171 0.7258 0.75054 0.0
C42 C 0.38136 0.65269 0.50372 0.0
O43 O 0.46713 0.61308 0.49596 0.0
C44 C 0.67534 0.8358 0.83957 0.0
O45 O 0.5985 0.88701 0.84564 0.0
O46 O 0.68033 0.86602 0.55313 0.0
O47 O 0.46277 0.8817 0.6386 0.0
O48 O 0.46394 0.85886 0.72407 0.0
C49 C 0.75882 -0.01076 0.55777 0.0
O50 O 0.75768 0.04721 0.60114 0.0
O51 O 0.38574 0.71497 0.54444 0.0
C52 C 0.25612 0.58338 0.79576 0.0
O53 O 0.21118 0.57475 0.74849 0.0
O54 O 0.37858 0.64654 0.80454 0.0
O55 O 0.45816 0.55818 0.71039 0.0
O56 O 0.46509 0.58532 0.62503 0.0
O57 O 0.67496 0.78455 0.79588 0.0
C58 C 0.44246 0.90896 0.68405 0.0
C59 C 0.44029 0.51224 0.66478 0.0
Zn60 Zn 0.71963 0.55881 0.9277 0.0
Zn61 Zn 0.73886 0.55203 0.08781 0.0
C62 C 0.67807 0.41309 0.83488 0.0
O63 O 0.80306 0.49515 0.8256 0.0
C64 C 0.80312 0.70922 0.17819 0.0
O65 O 0.67546 0.6347 0.18445 0.0
O66 O 0.76659 0.71817 0.88113 0.0
O67 O 0.57745 0.51266 -0.01784 0.0
O68 O 0.55994 0.51748 0.06745 0.0
C69 C 0.71469 0.79064 0.88641 0.0
O70 O 0.65796 0.78761 0.93068 0.0
O71 O 0.62532 0.42035 0.87672 0.0
C72 C 0.6345 0.28774 0.12836 0.0
O73 O 0.58701 0.24422 0.08198 0.0
O74 O 0.69767 0.41031 0.13755 0.0
O75 O 0.83539 0.51243 0.03233 0.0
O76 O 0.86371 0.52267 0.9476 0.0
O77 O 0.85226 0.71056 0.1339 0.0
C78 C 0.50795 0.49199 0.02274 0.0
C79 C 0.88755 0.49436 -0.00767 0.0
Zn80 Zn 0.11595 0.73363 0.26468 0.0
Zn81 Zn 0.1465 0.75858 0.41776 0.0
C82 C 0.22701 0.70526 0.16996 0.0
O83 O 0.26783 0.83084 0.16156 0.0
C84 C 0.04516 0.82073 0.50708 0.0
O85 O -0.00717 0.69286 0.51426 0.0
O86 O 0.01061 0.79124 0.21901 0.0
O87 O 0.00941 0.57079 0.30842 0.0
O88 O 0.01077 0.57847 0.39443 0.0
C89 C 0.88743 0.74356 0.2247 0.0
O90 O 0.83297 0.68584 0.26881 0.0
O91 O 0.16525 0.64925 0.21109 0.0
C92 C 0.29584 0.65006 0.4626 0.0
O93 O 0.3039 0.61202 0.41559 0.0
O94 O 0.23083 0.7082 0.47119 0.0
O95 O 0.30706 0.86517 0.37351 0.0
O96 O 0.29692 0.8675 0.28764 0.0
O97 O 0.09359 0.86874 0.46266 0.0
C98 C -0.02758 0.51475 0.35231 0.0
C99 C 0.36174 0.90365 0.32956 0.0
Zn100 Zn 0.3275 0.14342 0.5931 0.0
Zn101 Zn 0.32825 0.16609 0.7551 0.0
C102 C 0.4783 0.24518 0.50238 0.0
O103 O 0.39525 0.28728 0.49254 0.0
C104 C 0.17021 0.0729 0.84504 0.0
O105 O 0.2441 0.01823 0.85096 0.0
O106 O 0.17043 0.03025 0.54642 0.0
O107 O 0.36467 0.05118 0.65255 0.0
O108 O 0.36139 0.0184 0.73677 0.0
C109 C 0.09405 0.90718 0.55303 0.0
O110 O 0.09402 0.85424 0.59803 0.0
O111 O 0.47036 0.18505 0.54442 0.0
C112 C 0.59174 0.32664 0.79486 0.0
O113 O 0.63658 0.31864 0.7492 0.0
O114 O 0.46944 0.27049 0.80353 0.0
O115 O 0.36236 0.29135 0.69507 0.0
O116 O 0.35858 0.32345 0.61136 0.0
O117 O 0.16982 0.12278 0.80099 0.0
C118 C 0.38597 -0.0039 0.69116 0.0
C119 C 0.38334 0.36904 0.65705 0.0
loop_
_geom_bond_atom_site_label_1
_geom_bond_atom_site_label_2
_geom_bond_distance
_geom_bond_site_symmetry_2
_ccdc_geom_bond_type
Zn0 O6 1.969 . S
Zn0 O7 1.965 1_556 S
Zn0 O11 2.024 . S
Zn0 O16 1.969 . S
Zn1 O8 1.969 . S
Zn1 O14 1.969 . S
Zn1 O15 1.965 . S
Zn1 O17 2.024 . S
C2 O3 1.229 . S
C2 O11 1.058 . S
O3 C2 1.229 . S
C4 O5 1.229 . S
C4 O17 1.058 . S
O5 C4 1.229 . S
O6 Zn0 1.969 . S
O6 C9 1.267 . S
O7 Zn0 1.965 1_554 S
O7 C18 1.260 . S
O8 Zn1 1.969 . S
O8 C18 1.258 . S
C9 O6 1.267 . S
C9 O10 1.228 . S
O10 C9 1.228 . S
O11 Zn0 2.024 . S
O11 C2 1.058 . S
C12 O13 1.228 . S
C12 O14 1.267 . S
O13 C12 1.228 . S
O14 Zn1 1.969 . S
O14 C12 1.267 . S
O15 Zn1 1.965 . S
O15 C19 1.260 . S
O16 Zn0 1.969 . S
O16 C19 1.258 1_556 S
O17 Zn1 2.024 . S
O17 C4 1.058 . S
C18 O7 1.260 . S
C18 O8 1.258 . S
C19 O15 1.260 . S
C19 O16 1.258 1_554 S
Zn20 O26 1.969 . S
Zn20 O27 1.965 . S
Zn20 O31 2.024 . S
Zn20 O36 1.969 . S
Zn21 O28 1.969 . S
Zn21 O34 1.969 . S
Zn21 O35 1.965 . S
Zn21 O37 2.024 . S
C22 O23 1.229 . S
C22 O31 1.058 . S
O23 C22 1.229 . S
C24 O25 1.229 . S
C24 O37 1.058 . S
O25 C24 1.229 . S
O26 Zn20 1.969 . S
O26 C29 1.267 1_655 S
O27 Zn20 1.965 . S
O27 C38 1.260 1_655 S
O28 Zn21 1.969 . S
O28 C38 1.258 1_655 S
C29 O26 1.267 1_455 S
C29 O30 1.228 . S
O30 C29 1.228 . S
O31 Zn20 2.024 . S
O31 C22 1.058 . S
C32 O33 1.228 . S
C32 O34 1.267 . S
O33 C32 1.228 . S
O34 Zn21 1.969 . S
O34 C32 1.267 . S
O35 Zn21 1.965 . S
O35 C39 1.260 . S
O36 Zn20 1.969 . S
O36 C39 1.258 . S
O37 Zn21 2.024 . S
O37 C24 1.058 . S
C38 O27 1.260 1_455 S
C38 O28 1.258 1_455 S
C39 O35 1.260 . S
C39 O36 1.258 . S
Zn40 O46 1.969 . S
Zn40 O47 1.965 . S
Zn40 O51 2.024 . S
Zn40 O56 1.969 . S
Zn41 O48 1.969 . S
Zn41 O54 1.969 . S
Zn41 O55 1.965 . S
Zn41 O57 2.024 . S
C42 O43 1.229 . S
C42 O51 1.058 . S
O43 C42 1.229 . S
C44 O45 1.229 . S
C44 O57 1.058 . S
O45 C44 1.229 . S
O46 Zn40 1.969 . S
O46 C49 1.267 1_565 S
O47 Zn40 1.965 . S
O47 C58 1.260 1_565 S
O48 Zn41 1.969 . S
O48 C58 1.258 1_565 S
C49 O46 1.267 1_545 S
C49 O50 1.228 . S
O50 C49 1.228 . S
O51 Zn40 2.024 . S
O51 C42 1.058 . S
C52 O53 1.228 . S
C52 O54 1.267 . S
O53 C52 1.228 . S
O54 Zn41 1.969 . S
O54 C52 1.267 . S
O55 Zn41 1.965 . S
O55 C59 1.260 . S
O56 Zn40 1.969 . S
O56 C59 1.258 . S
O57 Zn41 2.024 . S
O57 C44 1.058 . S
C58 O47 1.260 1_545 S
C58 O48 1.258 1_545 S
C59 O55 1.260 . S
C59 O56 1.258 . S
Zn60 O66 1.969 . S
Zn60 O67 1.965 1_556 S
Zn60 O71 2.024 . S
Zn60 O76 1.969 . S
Zn61 O68 1.969 . S
Zn61 O74 1.969 . S
Zn61 O75 1.965 . S
Zn61 O77 2.024 . S
C62 O63 1.229 . S
C62 O71 1.058 . S
O63 C62 1.229 . S
C64 O65 1.229 . S
C64 O77 1.058 . S
O65 C64 1.229 . S
O66 Zn60 1.969 . S
O66 C69 1.267 . S
O67 Zn60 1.965 1_554 S
O67 C78 1.260 . S
O68 Zn61 1.969 . S
O68 C78 1.258 . S
C69 O66 1.267 . S
C69 O70 1.228 . S
O70 C69 1.228 . S
O71 Zn60 2.024 . S
O71 C62 1.058 . S
C72 O73 1.228 . S
C72 O74 1.267 . S
O73 C72 1.228 . S
O74 Zn61 1.969 . S
O74 C72 1.267 . S
O75 Zn61 1.965 . S
O75 C79 1.260 . S
O76 Zn60 1.969 . S
O76 C79 1.258 1_556 S
O77 Zn61 2.024 . S
O77 C64 1.058 . S
C78 O67 1.260 . S
C78 O68 1.258 . S
C79 O75 1.260 . S
C79 O76 1.258 1_554 S
Zn80 O86 1.969 . S
Zn80 O87 1.965 . S
Zn80 O91 2.024 . S
Zn80 O96 1.969 . S
Zn81 O88 1.969 . S
Zn81 O94 1.969 . S
Zn81 O95 1.965 . S
Zn81 O97 2.024 . S
C82 O83 1.229 . S
C82 O91 1.058 . S
O83 C82 1.229 . S
C84 O85 1.229 . S
C84 O97 1.058 . S
O85 C84 1.229 . S
O86 Zn80 1.969 . S
O86 C89 1.267 1_455 S
O87 Zn80 1.965 . S
O87 C98 1.260 1_455 S
O88 Zn81 1.969 . S
O88 C98 1.258 1_455 S
C89 O86 1.267 1_655 S
C89 O90 1.228 . S
O90 C89 1.228 . S
O91 Zn80 2.024 . S
O91 C82 1.058 . S
C92 O93 1.228 . S
C92 O94 1.267 . S
O93 C92 1.228 . S
O94 Zn81 1.969 . S
O94 C92 1.267 . S
O95 Zn81 1.965 . S
O95 C99 1.260 . S
O96 Zn80 1.969 . S
O96 C99 1.258 . S
O97 Zn81 2.024 . S
O97 C84 1.058 . S
C98 O87 1.260 1_655 S
C98 O88 1.258 1_655 S
C99 O95 1.260 . S
C99 O96 1.258 . S
Zn100 O106 1.969 . S
Zn100 O107 1.965 . S
Zn100 O111 2.024 . S
Zn100 O116 1.969 . S
Zn101 O108 1.969 . S
Zn101 O114 1.969 . S
Zn101 O115 1.965 . S
Zn101 O117 2.024 . S
C102 O103 1.229 . S
C102 O111 1.058 . S
O103 C102 1.229 . S
C104 O105 1.229 . S
C104 O117 1.058 . S
O105 C104 1.229 . S
O106 Zn100 1.969 . S
O106 C109 1.267 1_545 S
O107 Zn100 1.965 . S
O107 C118 1.260 1_545 S
O108 Zn101 1.969 . S
O108 C118 1.258 1_545 S
C109 O106 1.267 1_565 S
C109 O110 1.228 . S
O110 C109 1.228 . S
O111 Zn100 2.024 . S
O111 C102 1.058 . S
C112 O113 1.228 . S
C112 O114 1.267 . S
O113 C112 1.228 . S
O114 Zn101 1.969 . S
O114 C112 1.267 . S
O115 Zn101 1.965 . S
O115 C119 1.260 . S
O116 Zn100 1.969 . S
O116 C119 1.258 . S
O117 Zn101 2.024 . S
O117 C104 1.058 . S
C118 O107 1.260 1_565 S
C118 O108 1.258 1_565 S
C119 O115 1.260 . S
C119 O116 1.258 . S
C82 C12 0.818 . S
C102 C32 0.818 . S
C2 C52 0.818 . S
C22 C72 0.818 . S
C42 C92 0.818 . S
C62 C112 0.818 . S
C18 C78 2.736 . S
C98 C38 2.736 1_655 S
C118 C58 2.736 1_565 S
C59 C119 2.101 . S
C19 C79 2.101 1_455 S
C99 C39 2.101 1_565 S
C104 C9 0.690 . S
C29 C4 0.690 . S
C49 C24 0.690 . S
C44 C69 0.690 . S
C89 C64 0.690 . S
C109 C84 0.690 . S
