# Generated by pormake.
# Topology uom, (4)-cn, num edge types: 1
# Building blocks:
#     Node 0, Type 0, BuildingBlock: MUDLON_clean_sbu_0, # of connection points: 4
#     Node 1, Type 0, BuildingBlock: MUDLON_clean_sbu_0, # of connection points: 4
#     Node 2, Type 0, BuildingBlock: MUDLON_clean_sbu_0, # of connection points: 4
#     Node 3, Type 0, BuildingBlock: MUDLON_clean_sbu_0, # of connection points: 4
#     Node 4, Type 0, BuildingBlock: MUDLON_clean_sbu_0, # of connection points: 4
#     Node 5, Type 0, BuildingBlock: MUDLON_clean_sbu_0, # of connection points: 4
#     Edge 6, Type (0, 0), None
#     Edge 7, Type (0, 0), None
#     Edge 8, Type (0, 0), None
#     Edge 9, Type (0, 0), None
#     Edge 10, Type (0, 0), None
#     Edge 11, Type (0, 0), None
#     Edge 12, Type (0, 0), None
#     Edge 13, Type (0, 0), None
#     Edge 14, Type (0, 0), None
#     Edge 15, Type (0, 0), None
#     Edge 16, Type (0, 0), None
#     Edge 17, Type (0, 0), None
# Relax obj value: 0.092
# Max RMSD: 0.087
# Mean RMSD: 0.087
data_MOF--net-uom--node1-MUDLON_clean_sbu_0--edge1-none
_symmetry_space_group_name_H-M    P1
_symmetry_Int_Tables_number       1
_symmetry_cell_setting            triclinic
loop_
_symmetry_equiv_pos_as_xyz
'x, y, z'
_cell_length_a     13.743056
_cell_length_b     13.744318
_cell_length_c     17.567024
_cell_angle_alpha  89.99928
_cell_angle_beta   90.000107
_cell_angle_gamma 120.00857
loop_
_atom_site_label
_atom_site_type_symbol
_atom_site_fract_x
_atom_site_fract_y
_atom_site_fract_z
_atom_type_partial_charge
Mg0 Mg 0.24686 0.96481 0.11152 0.0
C1 C 0.33739 0.03481 0.2688 0.0
O2 O 0.42155 0.10925 0.22769 0.0
C3 C 0.05585 0.78769 1.01239 0.0
O4 O 0.99643 0.82593 1.04595 0.0
C5 C 0.48059 0.0186 1.06735 0.0
O6 O 0.4336 0.90934 0.07591 0.0
O7 O 0.42055 0.0647 0.07371 0.0
O8 O 0.25535 0.95172 0.23538 0.0
O9 O 0.15737 0.05631 0.10166 0.0
C10 C 0.07499 0.0255 0.147 0.0
O11 O 0.05131 0.94505 0.1964 0.0
O12 O 0.15548 0.8198 1.03567 0.0
Mg13 Mg 0.33567 0.2583 0.44475 0.0
C14 C 0.35603 0.34882 0.60202 0.0
O15 O 0.36559 0.4329 0.56089 0.0
C16 C 0.32191 0.06733 0.34576 0.0
O17 O 0.22428 1.00787 0.37936 0.0
C18 C 0.51558 0.49205 0.40058 0.0
O19 O 0.5779 0.44512 0.40915 0.0
O20 O 0.40942 0.43197 0.40692 0.0
O21 O 0.35725 0.26688 0.56862 0.0
O22 O 0.15466 0.1686 0.43481 0.0
C23 C 0.10309 0.08647 0.48035 0.0
O24 O 0.15987 0.06322 0.53001 0.0
O25 O 0.38943 0.167 0.36897 0.0
Mg26 Mg 0.13086 0.34708 0.77814 0.0
C27 C 0.06092 0.3675 0.93545 0.0
O28 O 0.98646 0.37722 0.89437 0.0
C29 C 0.30804 0.3333 0.67899 0.0
O30 O 0.26996 0.23568 0.71258 0.0
C31 C 0.0771 0.52701 0.73403 0.0
O32 O 0.18638 0.5893 0.74257 0.0
O33 O 0.03097 0.42087 0.74039 0.0
O34 O 0.14401 0.3686 0.90201 0.0
O35 O 0.03926 0.1661 0.76829 0.0
C36 C 0.07025 0.11452 0.81348 0.0
O37 O 0.15097 0.17131 0.86271 0.0
O38 O 0.27583 0.40074 0.70222 0.0
Mg39 Mg 0.8374 0.14234 0.11152 0.0
C40 C 0.74688 0.07236 0.2688 0.0
O41 O 0.66271 0.99792 0.2277 0.0
C42 C 0.02843 0.31948 1.01241 0.0
O43 O 0.08789 0.28129 1.04597 0.0
C44 C 0.60368 0.08856 1.06735 0.0
O45 O 0.65065 0.19783 0.07587 0.0
O46 O 0.66371 0.04246 0.07372 0.0
O47 O 0.82892 0.15545 0.23539 0.0
O48 O 0.92689 0.05085 0.10166 0.0
C49 C 1.00928 0.08167 0.147 0.0
O50 O 0.03296 0.16213 0.19639 0.0
O51 O 0.92878 0.28735 1.03566 0.0
Mg52 Mg 0.74859 0.84886 0.44476 0.0
C53 C 0.72824 0.75834 0.60203 0.0
O54 O 0.71868 0.67427 0.5609 0.0
C55 C 0.76236 0.03984 0.34577 0.0
O56 O 0.86 0.09929 0.37936 0.0
C57 C 0.56868 0.61513 0.40058 0.0
O58 O 0.50635 0.66204 0.40912 0.0
O59 O 0.67484 0.6752 0.40694 0.0
O60 O 0.72702 0.84029 0.56863 0.0
O61 O 0.92961 0.93856 0.43482 0.0
C62 C 0.98118 0.02069 0.48036 0.0
O63 O 0.9244 0.04394 0.53001 0.0
O64 O 0.69484 0.94018 0.36897 0.0
Mg65 Mg 0.95341 0.76008 0.77815 0.0
C66 C 0.02332 0.7396 0.93545 0.0
O67 O 0.09776 0.7298 0.89441 0.0
C68 C 0.77623 0.77386 0.679 0.0
O69 O 0.8143 0.87147 0.71259 0.0
C70 C 1.00716 0.58014 0.73403 0.0
O71 O 0.89788 0.51784 0.74254 0.0
O72 O 0.05329 0.68628 0.7404 0.0
O73 O 0.94026 0.73857 0.90201 0.0
O74 O 0.04501 0.94106 0.76829 0.0
C75 C 1.01402 0.99263 0.81349 0.0
O76 O 0.93331 0.93585 0.86272 0.0
O77 O 0.80844 0.70642 0.70223 0.0
loop_
_geom_bond_atom_site_label_1
_geom_bond_atom_site_label_2
_geom_bond_distance
_geom_bond_site_symmetry_2
_ccdc_geom_bond_type
Mg0 O7 2.141 . S
Mg0 O8 2.048 . S
Mg0 O9 2.048 . S
Mg0 O12 2.141 1_554 S
C1 O2 1.313 . S
C1 O8 1.195 . S
O2 C1 1.313 . S
C3 O4 1.245 . S
C3 O12 1.289 1_565 S
O4 C3 1.245 . S
C5 O6 1.245 1_545 S
C5 O7 1.289 . S
O6 C5 1.245 1_565 S
O7 Mg0 2.141 . S
O7 C5 1.289 . S
O8 Mg0 2.048 . S
O8 C1 1.195 . S
O9 Mg0 2.048 . S
O9 C10 1.195 . S
C10 O9 1.195 . S
C10 O11 1.313 1_545 S
O11 C10 1.313 1_565 S
O12 Mg0 2.141 1_556 S
O12 C3 1.289 1_545 S
Mg13 O20 2.141 . S
Mg13 O21 2.048 . S
Mg13 O22 2.048 . S
Mg13 O25 2.141 . S
C14 O15 1.313 . S
C14 O21 1.195 . S
O15 C14 1.313 . S
C16 O17 1.245 . S
C16 O25 1.289 . S
O17 C16 1.245 . S
C18 O19 1.245 . S
C18 O20 1.289 . S
O19 C18 1.245 . S
O20 Mg13 2.141 . S
O20 C18 1.289 . S
O21 Mg13 2.048 . S
O21 C14 1.195 . S
O22 Mg13 2.048 . S
O22 C23 1.195 . S
C23 O22 1.195 . S
C23 O24 1.313 . S
O24 C23 1.313 . S
O25 Mg13 2.141 . S
O25 C16 1.289 . S
Mg26 O33 2.141 . S
Mg26 O34 2.048 . S
Mg26 O35 2.048 . S
Mg26 O38 2.141 1_655 S
C27 O28 1.313 1_655 S
C27 O34 1.195 . S
O28 C27 1.313 1_455 S
C29 O30 1.245 . S
C29 O38 1.289 . S
O30 C29 1.245 . S
C31 O32 1.245 . S
C31 O33 1.289 1_455 S
O32 C31 1.245 . S
O33 Mg26 2.141 . S
O33 C31 1.289 1_655 S
O34 Mg26 2.048 . S
O34 C27 1.195 . S
O35 Mg26 2.048 . S
O35 C36 1.195 1_655 S
C36 O35 1.195 1_455 S
C36 O37 1.313 . S
O37 C36 1.313 . S
O38 Mg26 2.141 1_455 S
O38 C29 1.289 . S
Mg39 O46 2.141 1_545 S
Mg39 O47 2.048 1_545 S
Mg39 O48 2.048 . S
Mg39 O51 2.141 1_554 S
C40 O41 1.313 1_565 S
C40 O47 1.195 . S
O41 C40 1.313 1_545 S
C42 O43 1.245 . S
C42 O51 1.289 . S
O43 C42 1.245 . S
C44 O45 1.245 . S
C44 O46 1.289 1_545 S
O45 C44 1.245 . S
O46 Mg39 2.141 1_565 S
O46 C44 1.289 1_565 S
O47 Mg39 2.048 1_565 S
O47 C40 1.195 . S
O48 Mg39 2.048 . S
O48 C49 1.195 . S
C49 O48 1.195 . S
C49 O50 1.313 1_655 S
O50 C49 1.313 1_455 S
O51 Mg39 2.141 1_556 S
O51 C42 1.289 . S
Mg52 O59 2.141 . S
Mg52 O60 2.048 . S
Mg52 O61 2.048 . S
Mg52 O64 2.141 . S
C53 O54 1.313 . S
C53 O60 1.195 . S
O54 C53 1.313 . S
C55 O56 1.245 . S
C55 O64 1.289 . S
O56 C55 1.245 . S
C57 O58 1.245 . S
C57 O59 1.289 . S
O58 C57 1.245 . S
O59 Mg52 2.141 . S
O59 C57 1.289 . S
O60 Mg52 2.048 . S
O60 C53 1.195 . S
O61 Mg52 2.048 . S
O61 C62 1.195 1_565 S
C62 O61 1.195 1_545 S
C62 O63 1.313 . S
O63 C62 1.313 . S
O64 Mg52 2.141 . S
O64 C55 1.289 . S
Mg65 O72 2.141 . S
Mg65 O73 2.048 . S
Mg65 O74 2.048 . S
Mg65 O77 2.141 1_455 S
C66 O67 1.313 1_455 S
C66 O73 1.195 . S
O67 C66 1.313 1_655 S
C68 O69 1.245 . S
C68 O77 1.289 . S
O69 C68 1.245 . S
C70 O71 1.245 . S
C70 O72 1.289 1_655 S
O71 C70 1.245 . S
O72 Mg65 2.141 . S
O72 C70 1.289 1_455 S
O73 Mg65 2.048 . S
O73 C66 1.195 . S
O74 Mg65 2.048 . S
O74 C75 1.203 . S
C75 O74 1.203 . S
C75 O76 1.307 1_455 S
O76 C75 1.307 1_655 S
O77 Mg65 2.141 1_655 S
O77 C68 1.289 . S
C1 C16 1.809 . S
C14 C29 1.809 . S
C42 C27 1.809 . S
C40 C55 1.810 . S
C68 C53 1.809 . S
C3 C66 1.809 . S
C10 C49 1.120 1_455 S
C62 C23 1.120 1_655 S
C36 C75 1.120 1_545 S
C44 C5 1.559 . S
C57 C18 1.558 . S
C70 C31 1.559 1_655 S
