# Generated by pormake.
# Topology pcu, (6)-cn, num edge types: 1
# Building blocks:
#     Node 0, Type 0, BuildingBlock: CUKXOW_clean_sbu_0, # of connection points: 6
#     Edge 1, Type (0, 0), BuildingBlock: XUDNAN_clean_linker_2, # of connection points: 2
#     Edge 2, Type (0, 0), BuildingBlock: XUDNAN_clean_linker_2, # of connection points: 2
#     Edge 3, Type (0, 0), BuildingBlock: XUDNAN_clean_linker_2, # of connection points: 2
# Relax obj value: 0.000
# Max RMSD: 0.000
# Mean RMSD: 0.000
data_MOF--net-pcu--node1-CUKXOW_clean_sbu_0--edge1-XUDNAN_clean_linker_2
_symmetry_space_group_name_H-M    P1
_symmetry_Int_Tables_number       1
_symmetry_cell_setting            triclinic
loop_
_symmetry_equiv_pos_as_xyz
'x, y, z'
_cell_length_a     13.975287
_cell_length_b     17.965381
_cell_length_c     15.287336
_cell_angle_alpha  86.70346
_cell_angle_beta   102.30413
_cell_angle_gamma 123.60477
loop_
_atom_site_label
_atom_site_type_symbol
_atom_site_fract_x
_atom_site_fract_y
_atom_site_fract_z
_atom_type_partial_charge
Tb0 Tb 0.067 0.09646 0.98351 0.0
C1 C 0.99867 0.99393 0.79498 0.0
Tb2 Tb 0.9773 0.89546 0.97618 0.0
O3 O 0.24787 0.13725 0.03499 0.0
O4 O 0.12854 0.018 0.95437 0.0
O5 O 1.01391 0.06272 0.83905 0.0
C6 C 0.99951 0.75744 0.00363 0.0
O7 O 0.99208 0.92415 0.836 0.0
C8 C 0.81786 0.93234 0.97009 0.0
C9 C 0.05944 0.00466 0.16635 0.0
O10 O 0.90824 0.75254 0.95277 0.0
O11 O 0.07528 0.83872 0.03859 0.0
O12 O 0.79057 0.85539 0.93848 0.0
O13 O 0.92348 0.97502 0.00981 0.0
O14 O 0.02995 0.92979 0.12336 0.0
O15 O 0.06448 0.07273 0.12355 0.0
C16 C 0.07928 0.25007 0.97828 0.0
O17 O 0.16739 0.24193 0.0048 0.0
O18 O 0.98355 0.17144 0.95258 0.0
C19 C 0.23007 0.06377 0.00406 0.0
H20 H 0.96414 0.87157 0.28489 0.0
H21 H 0.19728 0.15898 0.27036 0.0
H22 H 0.20763 0.18365 0.42888 0.0
H23 H 0.80049 0.87927 0.42423 0.0
H24 H 0.78809 0.79059 0.49288 0.0
H25 H 0.80595 0.79129 0.37953 0.0
H26 H 0.99036 0.78618 0.43641 0.0
H27 H 0.97188 0.78386 0.54993 0.0
H28 H 0.10964 0.8691 0.52184 0.0
H29 H 0.17373 0.18196 0.5777 0.0
H30 H 0.1228 0.15308 0.72479 0.0
H31 H 0.92081 0.86603 0.65614 0.0
C32 C 1.01985 0.93923 0.31611 0.0
C33 C 0.07925 0.01347 0.2651 0.0
C34 C 0.15003 0.1012 0.30777 0.0
C35 C 0.1567 0.11606 0.39791 0.0
C36 C 0.09335 0.04244 0.44535 0.0
C37 C 0.02837 0.95554 0.40738 0.0
C38 C 0.9668 0.88959 0.47495 0.0
C39 C 0.83235 0.83444 0.44082 0.0
C40 C 1.01242 0.82857 0.4971 0.0
C41 C 1.00509 0.95371 0.55516 0.0
C42 C 0.07741 0.04138 0.53541 0.0
C43 C 0.11891 0.11363 0.59492 0.0
C44 C 0.08811 0.09628 0.67816 0.0
C45 C 1.01749 0.0072 0.70221 0.0
C46 C 0.97532 0.93475 0.63972 0.0
H47 H 0.23169 0.93598 0.91099 0.0
H48 H 0.44138 0.15669 0.11709 0.0
H49 H 0.60826 0.14227 0.12977 0.0
H50 H 0.35494 0.80443 0.00909 0.0
H51 H 0.35228 0.76756 0.90104 0.0
H52 H 0.2457 0.79132 0.91213 0.0
H53 H 0.31227 0.90317 0.78788 0.0
H54 H 0.421 0.88096 0.77931 0.0
H55 H 0.46494 0.99418 0.8027 0.0
H56 H 0.75286 0.11256 0.11766 0.0
H57 H 0.87452 0.06421 0.08654 0.0
H58 H 0.58058 0.85856 0.88822 0.0
C59 C 0.31245 0.98018 0.95946 0.0
C60 C 0.32404 0.0476 0.01323 0.0
C61 C 0.43089 0.10488 0.07528 0.0
C62 C 0.52616 0.09717 0.08308 0.0
C63 C 0.51317 0.03147 0.02859 0.0
C64 C 0.40951 0.9733 0.96835 0.0
C65 C 0.42288 0.91052 0.91685 0.0
C66 C 0.33881 0.8126 0.93589 0.0
C67 C 0.40417 0.92299 0.81567 0.0
C68 C 0.55047 0.94351 0.95756 0.0
C69 C 0.59946 0.01339 0.02169 0.0
C70 C 0.7156 0.05746 0.06816 0.0
C71 C 0.78429 0.0293 0.04948 0.0
C72 C 0.73763 0.95742 0.98483 0.0
C73 C 0.61852 0.91344 0.93819 0.0
H74 H 0.86039 0.58313 0.9263 0.0
H75 H 0.19248 0.77253 0.10653 0.0
H76 H 0.24698 0.66317 0.11775 0.0
H77 H 0.81493 0.38305 0.04164 0.0
H78 H 0.7508 0.31261 0.93883 0.0
H79 H 0.73461 0.40468 0.94643 0.0
H80 H 0.82498 0.46757 0.80689 0.0
H81 H 0.84266 0.37629 0.79944 0.0
H82 H 0.96801 0.49041 0.80732 0.0
H83 H 0.27509 0.54189 0.10033 0.0
H84 H 0.26402 0.40361 0.0713 0.0
H85 H 0.9098 0.285 0.91012 0.0
C86 C 0.94372 0.60075 0.96887 0.0
C87 C 0.02266 0.6864 0.01512 0.0
C88 C 0.13082 0.70734 0.07038 0.0
C89 C 0.16284 0.6458 0.07708 0.0
C90 C 0.08509 0.56301 0.02898 0.0
C91 C 0.97676 0.53922 0.97734 0.0
C92 C 0.91 0.44475 0.93367 0.0
C93 C 0.79583 0.38261 0.96716 0.0
C94 C 0.88497 0.44481 0.83072 0.0
C95 C 0.99889 0.42039 0.96786 0.0
C96 C 0.09953 0.49027 0.022 0.0
C97 C 0.19628 0.48609 0.05902 0.0
C98 C 0.1894 0.40753 0.04171 0.0
C99 C 0.08607 0.33389 0.98882 0.0
C100 C 0.98964 0.34043 0.9511 0.0
loop_
_geom_bond_atom_site_label_1
_geom_bond_atom_site_label_2
_geom_bond_distance
_geom_bond_site_symmetry_2
_ccdc_geom_bond_type
Tb0 O3 2.453 . S
Tb0 O4 2.596 1_545 S
Tb0 O5 2.374 1_554 S
Tb0 O13 2.343 1_454 S
Tb0 O15 2.353 . S
Tb0 O17 2.427 . S
Tb0 O18 2.513 1_554 S
C1 O5 1.251 1_655 S
C1 O7 1.263 1_545 S
Tb2 O4 2.343 1_656 S
Tb2 O7 2.353 . S
Tb2 O10 2.427 . S
Tb2 O11 2.513 1_556 S
Tb2 O12 2.453 . S
Tb2 O13 2.596 1_565 S
Tb2 O14 2.374 1_556 S
O3 Tb0 2.453 . S
O3 C19 1.245 . S
O4 Tb0 2.596 1_565 S
O4 Tb2 2.343 1_454 S
O4 C19 1.259 1_565 S
O5 Tb0 2.374 1_556 S
O5 C1 1.251 1_455 S
C6 O10 1.273 1_554 S
C6 O11 1.247 . S
O7 C1 1.263 1_565 S
O7 Tb2 2.353 . S
C8 O12 1.245 . S
C8 O13 1.259 1_565 S
C9 O14 1.250 1_455 S
C9 O15 1.263 1_565 S
O10 Tb2 2.427 . S
O10 C6 1.273 1_556 S
O11 Tb2 2.513 1_554 S
O11 C6 1.247 . S
O12 Tb2 2.453 . S
O12 C8 1.245 . S
O13 Tb0 2.343 1_656 S
O13 Tb2 2.596 1_545 S
O13 C8 1.259 1_545 S
O14 Tb2 2.374 1_554 S
O14 C9 1.250 1_655 S
O15 Tb0 2.353 . S
O15 C9 1.263 1_545 S
C16 O17 1.276 1_556 S
C16 O18 1.245 . S
O17 Tb0 2.427 . S
O17 C16 1.276 1_554 S
O18 Tb0 2.513 1_556 S
O18 C16 1.245 . S
C19 O3 1.245 . S
C19 O4 1.259 1_545 S
H20 C32 0.930 . S
H21 C34 0.930 . S
H22 C35 0.930 . S
H23 C39 0.959 . S
H24 C39 0.959 . S
H25 C39 0.961 . S
H26 C40 0.960 . S
H27 C40 0.961 . S
H28 C40 0.959 1_455 S
H29 C43 0.929 . S
H30 C44 0.931 . S
H31 C46 0.930 . S
C32 H20 0.930 . S
C32 C33 1.399 1_665 S
C32 C37 1.399 . S
C33 C32 1.399 1_445 S
C33 C34 1.376 . S
C34 H21 0.930 . S
C34 C33 1.376 . S
C34 C35 1.388 . S
C35 H22 0.930 . S
C35 C34 1.388 . S
C35 C36 1.390 . S
C36 C35 1.390 . S
C36 C37 1.394 1_445 S
C36 C42 1.465 . S
C37 C32 1.399 . S
C37 C36 1.394 1_665 S
C37 C38 1.516 . S
C38 C37 1.516 . S
C38 C39 1.502 . S
C38 C40 1.561 . S
C38 C41 1.526 . S
C39 H23 0.959 . S
C39 H24 0.959 . S
C39 H25 0.961 . S
C39 C38 1.502 . S
C40 H26 0.960 . S
C40 H27 0.961 . S
C40 H28 0.959 1_655 S
C40 C38 1.561 . S
C41 C38 1.526 . S
C41 C42 1.396 1_665 S
C41 C46 1.390 . S
C42 C36 1.465 . S
C42 C41 1.396 1_445 S
C42 C43 1.399 . S
C43 H29 0.929 . S
C43 C42 1.399 . S
C43 C44 1.385 . S
C44 H30 0.931 . S
C44 C43 1.385 . S
C44 C45 1.389 . S
C45 C44 1.389 . S
C45 C46 1.387 1_445 S
C46 H31 0.930 . S
C46 C41 1.390 . S
C46 C45 1.387 1_665 S
H47 C59 0.930 . S
H48 C61 0.930 . S
H49 C62 0.930 . S
H50 C66 0.959 . S
H51 C66 0.959 1_556 S
H52 C66 0.961 . S
H53 C67 0.960 . S
H54 C67 0.961 . S
H55 C67 0.959 . S
H56 C70 0.929 . S
H57 C71 0.931 . S
H58 C73 0.930 . S
C59 H47 0.930 . S
C59 C60 1.399 1_565 S
C59 C64 1.399 . S
C60 C59 1.399 1_545 S
C60 C61 1.376 1_556 S
C61 H48 0.930 . S
C61 C60 1.376 1_554 S
C61 C62 1.388 . S
C62 H49 0.930 . S
C62 C61 1.388 . S
C62 C63 1.390 . S
C63 C62 1.390 . S
C63 C64 1.394 1_544 S
C63 C69 1.465 . S
C64 C59 1.399 . S
C64 C63 1.394 1_566 S
C64 C65 1.516 . S
C65 C64 1.516 . S
C65 C66 1.502 1_556 S
C65 C67 1.561 . S
C65 C68 1.526 . S
C66 H50 0.959 . S
C66 H51 0.959 1_554 S
C66 H52 0.961 . S
C66 C65 1.502 1_554 S
C67 H53 0.960 . S
C67 H54 0.961 . S
C67 H55 0.959 . S
C67 C65 1.561 . S
C68 C65 1.526 . S
C68 C69 1.396 1_566 S
C68 C73 1.390 . S
C69 C63 1.465 . S
C69 C68 1.396 1_544 S
C69 C70 1.399 . S
C70 H56 0.929 . S
C70 C69 1.399 . S
C70 C71 1.385 . S
C71 H57 0.931 . S
C71 C70 1.385 . S
C71 C72 1.389 . S
C72 C71 1.389 . S
C72 C73 1.387 1_544 S
C73 H58 0.930 . S
C73 C68 1.390 . S
C73 C72 1.387 1_566 S
H74 C86 0.930 . S
H75 C88 0.930 . S
H76 C89 0.930 . S
H77 C93 0.959 . S
H78 C93 0.959 . S
H79 C93 0.961 . S
H80 C94 0.960 . S
H81 C94 0.961 . S
H82 C94 0.959 . S
H83 C97 0.929 . S
H84 C98 0.931 . S
H85 C100 0.930 . S
C86 H74 0.930 . S
C86 C87 1.399 1_656 S
C86 C91 1.399 . S
C87 C86 1.399 1_454 S
C87 C88 1.376 . S
C88 H75 0.930 . S
C88 C87 1.376 . S
C88 C89 1.388 . S
C89 H76 0.930 . S
C89 C88 1.388 . S
C89 C90 1.390 . S
C90 C89 1.390 . S
C90 C91 1.394 1_454 S
C90 C96 1.465 . S
C91 C86 1.399 . S
C91 C90 1.394 1_656 S
C91 C92 1.516 . S
C92 C91 1.516 . S
C92 C93 1.502 . S
C92 C94 1.561 1_655 S
C92 C95 1.526 . S
C93 H77 0.959 . S
C93 H78 0.959 . S
C93 H79 0.961 . S
C93 C92 1.502 . S
C94 H80 0.960 . S
C94 H81 0.961 . S
C94 H82 0.959 . S
C94 C92 1.561 1_455 S
C95 C92 1.526 . S
C95 C96 1.396 1_656 S
C95 C100 1.390 . S
C96 C90 1.465 . S
C96 C95 1.396 1_454 S
C96 C97 1.399 . S
C97 H83 0.929 . S
C97 C96 1.399 . S
C97 C98 1.385 . S
C98 H84 0.931 . S
C98 C97 1.385 . S
C98 C99 1.389 . S
C99 C98 1.389 . S
C99 C100 1.387 1_454 S
C100 H85 0.930 . S
C100 C95 1.390 . S
C100 C99 1.387 1_656 S
C33 C9 1.476 1_545 S
C45 C1 1.480 1_455 S
C60 C19 1.406 1_556 S
C72 C8 1.475 1_544 S
C87 C6 1.484 1_455 S
C99 C16 1.463 1_554 S
