# Generated by pormake.
# Topology unm, (4)-cn, num edge types: 1
# Building blocks:
#     Node 0, Type 0, BuildingBlock: GALJAG_clean_sbu_0, # of connection points: 4
#     Node 1, Type 0, BuildingBlock: GALJAG_clean_sbu_0, # of connection points: 4
#     Node 2, Type 0, BuildingBlock: GALJAG_clean_sbu_0, # of connection points: 4
#     Node 3, Type 0, BuildingBlock: GALJAG_clean_sbu_0, # of connection points: 4
#     Node 4, Type 0, BuildingBlock: GALJAG_clean_sbu_0, # of connection points: 4
#     Node 5, Type 0, BuildingBlock: GALJAG_clean_sbu_0, # of connection points: 4
#     Node 6, Type 0, BuildingBlock: GALJAG_clean_sbu_0, # of connection points: 4
#     Node 7, Type 0, BuildingBlock: GALJAG_clean_sbu_0, # of connection points: 4
#     Edge 8, Type (0, 0), BuildingBlock: EYOCIG_clean_linker_4, # of connection points: 2
#     Edge 9, Type (0, 0), BuildingBlock: EYOCIG_clean_linker_4, # of connection points: 2
#     Edge 10, Type (0, 0), BuildingBlock: EYOCIG_clean_linker_4, # of connection points: 2
#     Edge 11, Type (0, 0), BuildingBlock: EYOCIG_clean_linker_4, # of connection points: 2
#     Edge 12, Type (0, 0), BuildingBlock: EYOCIG_clean_linker_4, # of connection points: 2
#     Edge 13, Type (0, 0), BuildingBlock: EYOCIG_clean_linker_4, # of connection points: 2
#     Edge 14, Type (0, 0), BuildingBlock: EYOCIG_clean_linker_4, # of connection points: 2
#     Edge 15, Type (0, 0), BuildingBlock: EYOCIG_clean_linker_4, # of connection points: 2
#     Edge 16, Type (0, 0), BuildingBlock: EYOCIG_clean_linker_4, # of connection points: 2
#     Edge 17, Type (0, 0), BuildingBlock: EYOCIG_clean_linker_4, # of connection points: 2
#     Edge 18, Type (0, 0), BuildingBlock: EYOCIG_clean_linker_4, # of connection points: 2
#     Edge 19, Type (0, 0), BuildingBlock: EYOCIG_clean_linker_4, # of connection points: 2
#     Edge 20, Type (0, 0), BuildingBlock: EYOCIG_clean_linker_4, # of connection points: 2
#     Edge 21, Type (0, 0), BuildingBlock: EYOCIG_clean_linker_4, # of connection points: 2
#     Edge 22, Type (0, 0), BuildingBlock: EYOCIG_clean_linker_4, # of connection points: 2
#     Edge 23, Type (0, 0), BuildingBlock: EYOCIG_clean_linker_4, # of connection points: 2
# Relax obj value: 0.111
# Max RMSD: 0.116
# Mean RMSD: 0.116
data_MOF--net-unm--node1-GALJAG_clean_sbu_0--edge1-EYOCIG_clean_linker_4
_symmetry_space_group_name_H-M    P1
_symmetry_Int_Tables_number       1
_symmetry_cell_setting            triclinic
loop_
_symmetry_equiv_pos_as_xyz
'x, y, z'
_cell_length_a     21.355639
_cell_length_b     21.358694
_cell_length_c     33.529106
_cell_angle_alpha  89.994067
_cell_angle_beta   89.998917
_cell_angle_gamma 90.003799
loop_
_atom_site_label
_atom_site_type_symbol
_atom_site_fract_x
_atom_site_fract_y
_atom_site_fract_z
_atom_type_partial_charge
In0 In 0.15579 0.29162 0.16804 0.0
O1 O 0.24353 0.32181 0.20125 0.0
O2 O 0.2302 0.22389 0.19228 0.0
C3 C 0.10915 0.40129 0.15217 0.0
C4 C 0.19094 0.26861 0.09285 0.0
C5 C 0.05205 0.26037 0.21211 0.0
O6 O 0.15514 0.39635 0.1756 0.0
O7 O 0.08897 0.35192 0.13631 0.0
O8 O 0.06557 0.23301 0.17977 0.0
O9 O 0.09269 0.2991 0.2237 0.0
C10 C 0.26519 0.26727 0.20516 0.0
O11 O 0.15594 0.23127 0.11188 0.0
O12 O 0.20813 0.31676 0.11144 0.0
In13 In 0.20179 0.65544 0.66802 0.0
O14 O 0.17199 0.74274 0.70164 0.0
O15 O 0.26985 0.72977 0.69209 0.0
C16 C 0.09147 0.61026 0.65194 0.0
C17 C 0.22267 0.69268 0.5928 0.0
C18 C 0.23405 0.55182 0.71189 0.0
O19 O 0.0973 0.65603 0.67542 0.0
O20 O 0.14064 0.58813 0.63682 0.0
O21 O 0.26058 0.56553 0.6793 0.0
O22 O 0.19534 0.59224 0.72389 0.0
C23 C 0.22651 0.76458 0.70526 0.0
O24 O 0.26066 0.65724 0.61099 0.0
O25 O 0.17502 0.70901 0.61217 0.0
In26 In 0.83794 0.70169 0.16792 0.0
O27 O 0.75113 0.67031 0.20157 0.0
O28 O 0.76267 0.7684 0.19253 0.0
C29 C 0.88307 0.59119 0.15242 0.0
C30 C 0.80179 0.72266 0.09255 0.0
C31 C 0.94174 0.73343 0.21183 0.0
O32 O 0.83693 0.59736 0.17554 0.0
O33 O 0.90526 0.64013 0.13702 0.0
O34 O 0.92805 0.76069 0.17947 0.0
O35 O 0.90126 0.69458 0.22349 0.0
C36 C 0.72852 0.72441 0.20555 0.0
O37 O 0.83667 0.76081 0.11102 0.0
O38 O 0.7852 0.67499 0.1118 0.0
In39 In 0.79219 0.33755 0.66787 0.0
O40 O 0.73291 0.33503 0.61113 0.0
O41 O 0.81918 0.28422 0.61198 0.0
C42 C 0.76001 0.44259 0.71035 0.0
C43 C 0.76981 0.22827 0.70565 0.0
C44 C 0.90094 0.38566 0.65156 0.0
O45 O 0.73246 0.4273 0.67839 0.0
O46 O 0.79906 0.40275 0.72265 0.0
O47 O 0.89684 0.34045 0.67568 0.0
O48 O 0.85122 0.40453 0.63549 0.0
C49 C 0.77124 0.30021 0.59275 0.0
O50 O 0.82393 0.2509 0.70158 0.0
O51 O 0.72572 0.26244 0.69279 0.0
In52 In 0.65582 0.20164 0.3325 0.0
O53 O 0.74324 0.17112 0.29909 0.0
O54 O 0.73104 0.26902 0.30857 0.0
C55 C 0.61096 0.09103 0.34816 0.0
C56 C 0.69319 0.2232 0.40748 0.0
C57 C 0.55089 0.23348 0.28977 0.0
O58 O 0.65645 0.0973 0.3245 0.0
O59 O 0.58925 0.1399 0.3639 0.0
O60 O 0.56558 0.26059 0.32199 0.0
O61 O 0.59121 0.195 0.27737 0.0
C62 C 0.76583 0.22536 0.29581 0.0
O63 O 0.65788 0.26111 0.38914 0.0
O64 O 0.70898 0.17504 0.38845 0.0
In65 In 0.29195 0.15537 0.83236 0.0
O66 O 0.32321 0.24308 0.79937 0.0
O67 O 0.22518 0.23107 0.80831 0.0
C68 C 0.40282 0.111 0.8481 0.0
C69 C 0.2685 0.19066 0.90746 0.0
C70 C 0.26049 0.05063 0.78934 0.0
O71 O 0.39643 0.15664 0.8246 0.0
O72 O 0.35398 0.08902 0.86372 0.0
O73 O 0.23321 0.06491 0.82157 0.0
O74 O 0.29884 0.09121 0.77716 0.0
C75 C 0.26906 0.26581 0.79582 0.0
O76 O 0.23109 0.15593 0.88831 0.0
O77 O 0.31706 0.20722 0.88909 0.0
In78 In 0.33752 0.79166 0.33249 0.0
O79 O 0.33522 0.73263 0.38927 0.0
O80 O 0.28418 0.81876 0.38834 0.0
C81 C 0.44231 0.75842 0.28992 0.0
C82 C 0.22757 0.76815 0.29587 0.0
C83 C 0.38528 0.90086 0.34818 0.0
O84 O 0.42701 0.73153 0.3221 0.0
O85 O 0.40262 0.79753 0.27746 0.0
O86 O 0.34006 0.89621 0.32411 0.0
O87 O 0.40426 0.85145 0.3646 0.0
C88 C 0.30003 0.77074 0.40754 0.0
O89 O 0.2502 0.82242 0.2991 0.0
O90 O 0.26224 0.72447 0.30871 0.0
In91 In 0.70209 0.83753 0.83236 0.0
O92 O 0.76177 0.83525 0.88882 0.0
O93 O 0.67595 0.78366 0.88821 0.0
C94 C 0.73534 0.94231 0.78994 0.0
C95 C 0.72619 0.72863 0.79461 0.0
C96 C 0.59262 0.88489 0.84811 0.0
O97 O 0.76191 0.92722 0.82225 0.0
O98 O 0.69637 0.90257 0.77738 0.0
O99 O 0.59742 0.83943 0.82425 0.0
O100 O 0.642 0.90425 0.86436 0.0
C101 C 0.72414 0.7997 0.90719 0.0
O102 O 0.67172 0.75055 0.79844 0.0
O103 O 0.76966 0.76329 0.80774 0.0
C104 C 0.22787 0.24548 0.01951 0.0
C105 C 0.21137 0.25666 0.05301 0.0
C106 C 0.24478 0.22849 0.98051 0.0
C107 C 0.25621 0.21156 0.94714 0.0
C108 C 0.24365 0.73193 0.5196 0.0
C109 C 0.23329 0.71447 0.55304 0.0
C110 C 0.26049 0.74902 0.48055 0.0
C111 C 0.27803 0.75982 0.4472 0.0
C112 C 0.76419 0.74302 0.01898 0.0
C113 C 0.78094 0.73302 0.05259 0.0
C114 C 0.74717 0.75974 0.97992 0.0
C115 C 0.73581 0.77749 0.94669 0.0
C116 C 0.73345 0.24536 0.48026 0.0
C117 C 0.7155 0.23449 0.44701 0.0
C118 C 0.7505 0.26213 0.51931 0.0
C119 C 0.76082 0.27902 0.55286 0.0
C120 C 0.37857 0.25054 0.23654 0.0
C121 C 0.32668 0.25626 0.22208 0.0
C122 C 0.43921 0.24554 0.25439 0.0
C123 C 0.48988 0.24046 0.27076 0.0
C124 C 0.24286 0.87797 0.73668 0.0
C125 C 0.23743 0.82608 0.72218 0.0
C126 C 0.24799 0.93874 0.75432 0.0
C127 C 0.25382 0.98973 0.77016 0.0
C128 C 0.55404 0.7445 0.25474 0.0
C129 C 0.50335 0.75043 0.27102 0.0
C130 C 0.61481 0.73929 0.237 0.0
C131 C 0.6668 0.73419 0.22253 0.0
C132 C 0.7549 0.11441 0.73679 0.0
C133 C 0.76005 0.16647 0.72246 0.0
C134 C 0.74962 0.05371 0.75453 0.0
C135 C 0.74354 0.00317 0.77092 0.0
C136 C 0.88056 0.24094 0.26609 0.0
C137 C 0.82809 0.23565 0.2798 0.0
C138 C 0.94142 0.24654 0.24857 0.0
C139 C 0.9919 0.25314 0.23218 0.0
C140 C 0.24781 0.44159 0.74885 0.0
C141 C 0.24196 0.49159 0.73176 0.0
C142 C 0.25345 0.38077 0.76641 0.0
C143 C 0.25903 0.32822 0.77995 0.0
C144 C 0.11298 0.75242 0.26608 0.0
C145 C 0.16539 0.75782 0.27982 0.0
C146 C 0.05223 0.74696 0.24847 0.0
C147 C 0.00191 0.74075 0.23182 0.0
C148 C 0.74764 0.5545 0.74543 0.0
C149 C 0.75283 0.50374 0.72918 0.0
C150 C 0.74262 0.6152 0.7632 0.0
C151 C 0.73699 0.6671 0.77767 0.0
C152 C 0.96359 0.50528 0.14631 0.0
C153 C 0.9186 0.53647 0.15145 0.0
C154 C 0.02392 0.48251 0.1467 0.0
C155 C 0.0707 0.45399 0.15182 0.0
C156 C 0.98164 0.471 0.64376 0.0
C157 C 0.95334 0.42443 0.64999 0.0
C158 C 0.00469 0.53122 0.64328 0.0
C159 C 0.03627 0.57559 0.64954 0.0
C160 C 0.53103 0.00469 0.3554 0.0
C161 C 0.57566 0.03617 0.3497 0.0
C162 C 0.47079 0.98167 0.35489 0.0
C163 C 0.42414 0.95324 0.3491 0.0
C164 C 0.4889 0.03073 0.85477 0.0
C165 C 0.45766 0.07561 0.84934 0.0
C166 C 0.5117 0.97039 0.85427 0.0
C167 C 0.54013 0.92366 0.84876 0.0
loop_
_geom_bond_atom_site_label_1
_geom_bond_atom_site_label_2
_geom_bond_distance
_geom_bond_site_symmetry_2
_ccdc_geom_bond_type
In0 O1 2.294 . S
In0 O2 2.326 . S
In0 O6 2.266 . S
In0 O7 2.326 . S
In0 O8 2.266 . S
In0 O9 2.326 . S
In0 O11 2.294 . S
In0 O12 2.326 . S
O1 In0 2.294 . S
O1 C10 1.240 . S
O2 In0 2.326 . S
O2 C10 1.252 . S
C3 O6 1.252 . S
C3 O7 1.260 . S
C4 O11 1.240 . S
C4 O12 1.252 . S
C5 O8 1.252 . S
C5 O9 1.260 . S
O6 In0 2.266 . S
O6 C3 1.252 . S
O7 In0 2.326 . S
O7 C3 1.260 . S
O8 In0 2.266 . S
O8 C5 1.252 . S
O9 In0 2.326 . S
O9 C5 1.260 . S
C10 O1 1.240 . S
C10 O2 1.252 . S
O11 In0 2.294 . S
O11 C4 1.240 . S
O12 In0 2.326 . S
O12 C4 1.252 . S
In13 O14 2.294 . S
In13 O15 2.326 . S
In13 O19 2.266 . S
In13 O20 2.326 . S
In13 O21 2.266 . S
In13 O22 2.326 . S
In13 O24 2.294 . S
In13 O25 2.326 . S
O14 In13 2.294 . S
O14 C23 1.240 . S
O15 In13 2.326 . S
O15 C23 1.252 . S
C16 O19 1.252 . S
C16 O20 1.260 . S
C17 O24 1.240 . S
C17 O25 1.252 . S
C18 O21 1.252 . S
C18 O22 1.260 . S
O19 In13 2.266 . S
O19 C16 1.252 . S
O20 In13 2.326 . S
O20 C16 1.260 . S
O21 In13 2.266 . S
O21 C18 1.252 . S
O22 In13 2.326 . S
O22 C18 1.260 . S
C23 O14 1.240 . S
C23 O15 1.252 . S
O24 In13 2.294 . S
O24 C17 1.240 . S
O25 In13 2.326 . S
O25 C17 1.252 . S
In26 O27 2.294 . S
In26 O28 2.326 . S
In26 O32 2.266 . S
In26 O33 2.326 . S
In26 O34 2.266 . S
In26 O35 2.326 . S
In26 O37 2.294 . S
In26 O38 2.326 . S
O27 In26 2.294 . S
O27 C36 1.240 . S
O28 In26 2.326 . S
O28 C36 1.252 . S
C29 O32 1.252 . S
C29 O33 1.260 . S
C30 O37 1.240 . S
C30 O38 1.252 . S
C31 O34 1.252 . S
C31 O35 1.260 . S
O32 In26 2.266 . S
O32 C29 1.252 . S
O33 In26 2.326 . S
O33 C29 1.260 . S
O34 In26 2.266 . S
O34 C31 1.252 . S
O35 In26 2.326 . S
O35 C31 1.260 . S
C36 O27 1.240 . S
C36 O28 1.252 . S
O37 In26 2.294 . S
O37 C30 1.240 . S
O38 In26 2.326 . S
O38 C30 1.252 . S
In39 O40 2.294 . S
In39 O41 2.326 . S
In39 O45 2.266 . S
In39 O46 2.326 . S
In39 O47 2.266 . S
In39 O48 2.326 . S
In39 O50 2.294 . S
In39 O51 2.326 . S
O40 In39 2.294 . S
O40 C49 1.240 . S
O41 In39 2.326 . S
O41 C49 1.252 . S
C42 O45 1.252 . S
C42 O46 1.260 . S
C43 O50 1.240 . S
C43 O51 1.252 . S
C44 O47 1.252 . S
C44 O48 1.260 . S
O45 In39 2.266 . S
O45 C42 1.252 . S
O46 In39 2.326 . S
O46 C42 1.260 . S
O47 In39 2.266 . S
O47 C44 1.252 . S
O48 In39 2.326 . S
O48 C44 1.260 . S
C49 O40 1.240 . S
C49 O41 1.252 . S
O50 In39 2.294 . S
O50 C43 1.240 . S
O51 In39 2.326 . S
O51 C43 1.252 . S
In52 O53 2.294 . S
In52 O54 2.326 . S
In52 O58 2.266 . S
In52 O59 2.326 . S
In52 O60 2.266 . S
In52 O61 2.326 . S
In52 O63 2.294 . S
In52 O64 2.326 . S
O53 In52 2.294 . S
O53 C62 1.240 . S
O54 In52 2.326 . S
O54 C62 1.252 . S
C55 O58 1.252 . S
C55 O59 1.260 . S
C56 O63 1.240 . S
C56 O64 1.252 . S
C57 O60 1.252 . S
C57 O61 1.260 . S
O58 In52 2.266 . S
O58 C55 1.252 . S
O59 In52 2.326 . S
O59 C55 1.260 . S
O60 In52 2.266 . S
O60 C57 1.252 . S
O61 In52 2.326 . S
O61 C57 1.260 . S
C62 O53 1.240 . S
C62 O54 1.252 . S
O63 In52 2.294 . S
O63 C56 1.240 . S
O64 In52 2.326 . S
O64 C56 1.252 . S
In65 O66 2.294 . S
In65 O67 2.326 . S
In65 O71 2.266 . S
In65 O72 2.326 . S
In65 O73 2.266 . S
In65 O74 2.326 . S
In65 O76 2.294 . S
In65 O77 2.326 . S
O66 In65 2.294 . S
O66 C75 1.240 . S
O67 In65 2.326 . S
O67 C75 1.252 . S
C68 O71 1.252 . S
C68 O72 1.260 . S
C69 O76 1.240 . S
C69 O77 1.252 . S
C70 O73 1.252 . S
C70 O74 1.260 . S
O71 In65 2.266 . S
O71 C68 1.252 . S
O72 In65 2.326 . S
O72 C68 1.260 . S
O73 In65 2.266 . S
O73 C70 1.252 . S
O74 In65 2.326 . S
O74 C70 1.260 . S
C75 O66 1.240 . S
C75 O67 1.252 . S
O76 In65 2.294 . S
O76 C69 1.240 . S
O77 In65 2.326 . S
O77 C69 1.252 . S
In78 O79 2.294 . S
In78 O80 2.326 . S
In78 O84 2.266 . S
In78 O85 2.326 . S
In78 O86 2.266 . S
In78 O87 2.326 . S
In78 O89 2.294 . S
In78 O90 2.326 . S
O79 In78 2.294 . S
O79 C88 1.240 . S
O80 In78 2.326 . S
O80 C88 1.252 . S
C81 O84 1.252 . S
C81 O85 1.260 . S
C82 O89 1.240 . S
C82 O90 1.252 . S
C83 O86 1.252 . S
C83 O87 1.260 . S
O84 In78 2.266 . S
O84 C81 1.252 . S
O85 In78 2.326 . S
O85 C81 1.260 . S
O86 In78 2.266 . S
O86 C83 1.252 . S
O87 In78 2.326 . S
O87 C83 1.260 . S
C88 O79 1.240 . S
C88 O80 1.252 . S
O89 In78 2.294 . S
O89 C82 1.240 . S
O90 In78 2.326 . S
O90 C82 1.252 . S
In91 O92 2.294 . S
In91 O93 2.326 . S
In91 O97 2.266 . S
In91 O98 2.326 . S
In91 O99 2.266 . S
In91 O100 2.326 . S
In91 O102 2.294 . S
In91 O103 2.326 . S
O92 In91 2.294 . S
O92 C101 1.240 . S
O93 In91 2.326 . S
O93 C101 1.252 . S
C94 O97 1.252 . S
C94 O98 1.260 . S
C95 O102 1.240 . S
C95 O103 1.252 . S
C96 O99 1.252 . S
C96 O100 1.260 . S
O97 In91 2.266 . S
O97 C94 1.252 . S
O98 In91 2.326 . S
O98 C94 1.260 . S
O99 In91 2.266 . S
O99 C96 1.252 . S
O100 In91 2.326 . S
O100 C96 1.260 . S
C101 O92 1.240 . S
C101 O93 1.252 . S
O102 In91 2.294 . S
O102 C95 1.240 . S
O103 In91 2.326 . S
O103 C95 1.252 . S
C104 C105 1.170 . S
C104 C106 1.380 1_554 S
C105 C104 1.170 . S
C106 C104 1.380 1_556 S
C106 C107 1.170 . S
C107 C106 1.170 . S
C108 C109 1.170 . S
C108 C110 1.380 . S
C109 C108 1.170 . S
C110 C108 1.380 . S
C110 C111 1.170 . S
C111 C110 1.170 . S
C112 C113 1.170 . S
C112 C114 1.380 1_554 S
C113 C112 1.170 . S
C114 C112 1.380 1_556 S
C114 C115 1.170 . S
C115 C114 1.170 . S
C116 C117 1.170 . S
C116 C118 1.380 . S
C117 C116 1.170 . S
C118 C116 1.380 . S
C118 C119 1.170 . S
C119 C118 1.170 . S
C120 C121 1.170 . S
C120 C122 1.380 . S
C121 C120 1.170 . S
C122 C120 1.380 . S
C122 C123 1.170 . S
C123 C122 1.170 . S
C124 C125 1.170 . S
C124 C126 1.380 . S
C125 C124 1.170 . S
C126 C124 1.380 . S
C126 C127 1.170 . S
C127 C126 1.170 . S
C128 C129 1.170 . S
C128 C130 1.380 . S
C129 C128 1.170 . S
C130 C128 1.380 . S
C130 C131 1.170 . S
C131 C130 1.170 . S
C132 C133 1.170 . S
C132 C134 1.380 . S
C133 C132 1.170 . S
C134 C132 1.380 . S
C134 C135 1.170 . S
C135 C134 1.170 . S
C136 C137 1.170 . S
C136 C138 1.380 . S
C137 C136 1.170 . S
C138 C136 1.380 . S
C138 C139 1.170 . S
C139 C138 1.170 . S
C140 C141 1.170 . S
C140 C142 1.380 . S
C141 C140 1.170 . S
C142 C140 1.380 . S
C142 C143 1.170 . S
C143 C142 1.170 . S
C144 C145 1.170 . S
C144 C146 1.380 . S
C145 C144 1.170 . S
C146 C144 1.380 . S
C146 C147 1.170 . S
C147 C146 1.170 . S
C148 C149 1.170 . S
C148 C150 1.380 . S
C149 C148 1.170 . S
C150 C148 1.380 . S
C150 C151 1.170 . S
C151 C150 1.170 . S
C152 C153 1.170 . S
C152 C154 1.380 1_655 S
C153 C152 1.170 . S
C154 C152 1.380 1_455 S
C154 C155 1.170 . S
C155 C154 1.170 . S
C156 C157 1.170 . S
C156 C158 1.380 1_655 S
C157 C156 1.170 . S
C158 C156 1.380 1_455 S
C158 C159 1.170 . S
C159 C158 1.170 . S
C160 C161 1.170 . S
C160 C162 1.380 1_545 S
C161 C160 1.170 . S
C162 C160 1.380 1_565 S
C162 C163 1.170 . S
C163 C162 1.170 . S
C164 C165 1.170 . S
C164 C166 1.380 1_545 S
C165 C164 1.170 . S
C166 C164 1.380 1_565 S
C166 C167 1.170 . S
C167 C166 1.170 . S
C105 C4 1.469 . S
C107 C69 1.470 . S
C109 C17 1.477 . S
C111 C88 1.478 . S
C113 C30 1.473 . S
C115 C101 1.478 . S
C117 C56 1.478 . S
C119 C49 1.476 . S
C121 C10 1.727 . S
C123 C57 1.695 . S
C125 C23 1.727 . S
C127 C70 1.695 1_565 S
C129 C81 1.709 . S
C131 C36 1.722 . S
C133 C43 1.720 . S
C135 C94 1.711 1_545 S
C137 C62 1.718 . S
C139 C5 1.706 1_655 S
C141 C18 1.709 . S
C143 C75 1.716 . S
C145 C82 1.718 . S
C147 C31 1.705 1_455 S
C149 C42 1.696 . S
C151 C95 1.727 . S
C153 C29 0.772 . S
C155 C3 0.726 . S
C157 C44 0.717 . S
C159 C16 0.779 . S
C161 C55 0.778 . S
C163 C83 0.719 . S
C165 C68 0.776 . S
C167 C96 0.721 . S
