# Generated by pormake.
# Topology kag, (6)-cn, num edge types: 1
# Building blocks:
#     Node 0, Type 0, BuildingBlock: UKALOJ_clean_sbu_0, # of connection points: 6
#     Node 1, Type 0, BuildingBlock: UKALOJ_clean_sbu_0, # of connection points: 6
#     Node 2, Type 0, BuildingBlock: UKALOJ_clean_sbu_0, # of connection points: 6
#     Edge 3, Type (0, 0), BuildingBlock: XIVTED_clean_linker_0, # of connection points: 2
#     Edge 4, Type (0, 0), BuildingBlock: XIVTED_clean_linker_0, # of connection points: 2
#     Edge 5, Type (0, 0), BuildingBlock: XIVTED_clean_linker_0, # of connection points: 2
#     Edge 6, Type (0, 0), BuildingBlock: XIVTED_clean_linker_0, # of connection points: 2
#     Edge 7, Type (0, 0), BuildingBlock: XIVTED_clean_linker_0, # of connection points: 2
#     Edge 8, Type (0, 0), BuildingBlock: XIVTED_clean_linker_0, # of connection points: 2
#     Edge 9, Type (0, 0), BuildingBlock: XIVTED_clean_linker_0, # of connection points: 2
#     Edge 10, Type (0, 0), BuildingBlock: XIVTED_clean_linker_0, # of connection points: 2
#     Edge 11, Type (0, 0), BuildingBlock: XIVTED_clean_linker_0, # of connection points: 2
# Relax obj value: 0.124
# Max RMSD: 0.168
# Mean RMSD: 0.168
data_MOF--net-kag--node1-UKALOJ_clean_sbu_0--edge1-XIVTED_clean_linker_0
_symmetry_space_group_name_H-M    P1
_symmetry_Int_Tables_number       1
_symmetry_cell_setting            triclinic
loop_
_symmetry_equiv_pos_as_xyz
'x, y, z'
_cell_length_a     29.273738
_cell_length_b     29.293985
_cell_length_c     20.380636
_cell_angle_alpha  89.909429
_cell_angle_beta   90.512653
_cell_angle_gamma 119.68809
loop_
_atom_site_label
_atom_site_type_symbol
_atom_site_fract_x
_atom_site_fract_y
_atom_site_fract_z
_atom_type_partial_charge
Zn0 Zn -0.01416 0.44257 0.95519 0.0
O1 O 0.0422 0.52223 0.94412 0.0
C2 C 0.06607 0.41552 0.98599 0.0
Zn3 Zn -0.00242 0.44565 0.06368 0.0
C4 C 0.06503 0.54799 0.99573 0.0
O5 O 0.05463 0.52476 0.05082 0.0
C6 C 0.91574 0.34123 0.02404 0.0
O7 O 0.94248 0.47017 0.0824 0.0
O8 O 0.93024 0.46589 0.97566 0.0
N9 N 0.01849 0.45174 0.16063 0.0
C10 C -0.00853 0.44242 0.21695 0.0
C11 C 0.07111 0.46714 0.24285 0.0
N12 N 0.06792 0.46712 0.17694 0.0
N13 N 0.02375 0.45201 0.2693 0.0
C14 C -0.00828 0.44608 0.80186 0.0
C15 C 0.91157 0.41911 0.77625 0.0
N16 N 0.96474 0.43618 0.85828 0.0
N17 N 0.91499 0.41942 0.84215 0.0
N18 N 0.95911 0.43544 0.74963 0.0
H19 H 0.06985 0.49175 0.84302 0.0
H20 H 0.06614 0.49426 0.7546 0.0
H21 H 0.05898 0.43616 0.79438 0.0
C22 C 0.05011 0.46873 0.79832 0.0
C23 C 0.93328 0.42133 0.22023 0.0
H24 H 0.92559 0.45469 0.22415 0.0
H25 H 0.91653 0.3958 0.26381 0.0
H26 H 0.91323 0.39872 0.17543 0.0
O27 O 0.93955 0.36698 0.07521 0.0
O28 O 0.9285 0.36328 0.96825 0.0
C29 C 0.92007 0.47637 0.0323 0.0
O30 O 0.04277 0.42078 0.93618 0.0
O31 O 0.05342 0.42245 0.04306 0.0
Zn32 Zn 0.43887 0.0031 0.96745 0.0
O33 O 0.46257 0.94748 0.94787 0.0
C34 C 0.33478 0.92185 1.00675 0.0
Zn35 Zn 0.43728 -0.00836 0.07564 0.0
C36 C 0.46928 0.92498 0.99731 0.0
O37 O 0.45982 0.93541 0.05439 0.0
C38 C 0.41066 0.07255 0.0462 0.0
O39 O 0.51718 0.04755 0.08696 0.0
O40 O 0.51835 0.05974 0.98047 0.0
N41 N 0.43161 0.97103 0.17225 0.0
C42 C 0.44143 -0.00165 0.22874 0.0
C43 C 0.41428 0.91839 0.25413 0.0
N44 N 0.41478 0.92141 0.18822 0.0
N45 N 0.43057 0.96608 0.28084 0.0
C46 C 0.43491 -0.00389 0.81442 0.0
C47 C 0.45994 0.07559 0.78868 0.0
N48 N 0.44423 0.0235 0.87079 0.0
N49 N 0.45976 0.07282 0.8546 0.0
N50 N 0.44475 0.02806 0.76216 0.0
H51 H 0.39041 0.91816 0.85508 0.0
H52 H 0.44683 0.92998 0.80829 0.0
H53 H 0.38842 0.92104 0.76661 0.0
C54 C 0.41356 0.93791 0.81093 0.0
C55 C 0.46421 0.05674 0.23253 0.0
H56 H 0.48783 0.07619 0.18855 0.0
H57 H 0.48927 0.07291 0.27705 0.0
H58 H 0.43166 0.06574 0.23509 0.0
O59 O 0.41633 0.04922 0.09548 0.0
O60 O 0.41654 0.05953 0.98879 0.0
C61 C 0.54232 0.07016 0.03542 0.0
O62 O 0.35987 0.94546 0.95565 0.0
O63 O 0.35763 0.93469 0.06243 0.0
Zn64 Zn 0.54191 0.5536 0.06793 0.0
O65 O 0.51893 0.47452 0.08627 0.0
C66 C 0.64766 0.57824 0.0321 0.0
Zn67 Zn 0.54644 0.54617 0.95973 0.0
C68 C 0.51392 0.44658 0.03627 0.0
O69 O 0.52465 0.46758 0.97981 0.0
C70 C 0.57076 0.65222 0.99074 0.0
O71 O 0.46659 0.52187 0.94566 0.0
O72 O 0.46227 0.53046 0.05213 0.0
N73 N 0.55446 0.53293 0.86326 0.0
C74 C 0.54431 0.55015 0.80657 0.0
C75 C 0.5736 0.49876 0.78177 0.0
N76 N 0.57268 0.50107 0.84766 0.0
N77 N 0.55624 0.5294 0.7547 0.0
C78 C 0.54381 0.54917 0.22103 0.0
C79 C 0.51682 0.60239 0.24614 0.0
N80 N 0.53422 0.56699 0.16444 0.0
N81 N 0.51742 0.59997 0.18024 0.0
N82 N 0.53297 0.57071 0.27304 0.0
H83 H 0.53369 0.47197 0.2285 0.0
H84 H 0.59193 0.52207 0.2691 0.0
H85 H 0.58931 0.51628 0.18074 0.0
C86 C 0.56634 0.5131 0.22501 0.0
C87 C 0.52018 0.58482 0.80232 0.0
H88 H 0.49485 0.57535 0.75791 0.0
H89 H 0.552 0.62636 0.79922 0.0
H90 H 0.49655 0.58065 0.84632 0.0
O91 O 0.56653 0.62436 0.94098 0.0
O92 O 0.5637 0.63231 0.04773 0.0
C93 C 0.43984 0.51796 0.99617 0.0
O94 O 0.62107 0.5752 0.0824 0.0
O95 O 0.62612 0.56928 0.97561 0.0
H96 H 0.91922 0.47186 0.65721 0.0
H97 H 0.06208 0.41382 0.36149 0.0
H98 H 0.02108 0.40615 0.68422 0.0
H99 H 0.96295 0.4827 0.33494 0.0
H100 H 0.0472 0.41011 0.47989 0.0
H101 H 0.93391 0.47534 0.53877 0.0
C102 C 0.94506 0.45861 0.63803 0.0
C103 C 0.96992 0.43983 0.6805 0.0
C104 C 0.02832 0.42566 0.4482 0.0
C105 C -0.01345 0.44301 0.54524 0.0
C106 C 0.0368 0.42773 0.38075 0.0
C107 C 0.01276 0.44749 0.3384 0.0
C108 C -0.00409 0.44401 0.47364 0.0
C109 C -0.01922 0.46557 0.36562 0.0
C110 C 0.95344 0.46055 0.57057 0.0
C111 C 0.00258 0.42252 0.65341 0.0
N112 N 0.97327 0.46339 0.43154 0.0
N113 N 0.00995 0.42453 0.58746 0.0
H114 H 0.39994 0.02797 0.34383 0.0
H115 H 0.47658 0.96717 0.69897 0.0
H116 H 0.46612 0.92703 0.37545 0.0
H117 H 0.40764 0.06575 0.66773 0.0
H118 H 0.4728 0.95157 0.5807 0.0
H119 H 0.40344 0.04335 0.46217 0.0
C120 C 0.41619 0.00991 0.37568 0.0
C121 C 0.43405 0.97727 0.34993 0.0
C122 C 0.45808 0.97629 0.59966 0.0
C123 C 0.43662 -0.00683 0.48545 0.0
C124 C 0.45966 -0.01536 0.66725 0.0
C125 C 0.44113 0.01669 0.6931 0.0
C126 C 0.43828 0.0006 0.55759 0.0
C127 C 0.42186 0.04041 0.64954 0.0
C128 C 0.41759 0.01813 0.44329 0.0
C129 C 0.45246 0.95284 0.39358 0.0
N130 N 0.42081 0.03182 0.58392 0.0
N131 N 0.45343 0.96138 0.4592 0.0
H132 H 0.58358 0.62043 0.69007 0.0
H133 H 0.50426 0.47946 0.33794 0.0
H134 H 0.52154 0.45429 0.66154 0.0
H135 H 0.5694 0.64609 0.36598 0.0
H136 H 0.51042 0.46927 0.4563 0.0
H137 H 0.57772 0.63069 0.57163 0.0
C138 C 0.5678 0.586 0.65889 0.0
C139 C 0.55177 0.53624 0.68553 0.0
C140 C 0.52376 0.50816 0.4366 0.0
C141 C 0.54643 0.54771 0.54993 0.0
C142 C 0.5208 0.514 0.36896 0.0
C143 C 0.53759 0.56387 0.34219 0.0
C144 C 0.54321 0.55248 0.47778 0.0
C145 C 0.55647 0.60707 0.38489 0.0
C146 C 0.56501 0.59188 0.59123 0.0
C147 C 0.53383 0.49321 0.64271 0.0
N148 N 0.55891 0.60044 0.45056 0.0
N149 N 0.53147 0.49987 0.57704 0.0
H150 H 0.12521 0.43212 0.87571 0.0
H151 H 0.36993 0.48376 0.09613 0.0
H152 H 0.11552 0.38947 0.08006 0.0
H153 H 0.37914 0.49876 0.88514 0.0
H154 H 0.27498 0.44369 0.08834 0.0
H155 H 0.21532 0.4476 0.87375 0.0
C156 C 0.14148 0.42457 0.91962 0.0
C157 C 0.11337 0.4106 0.97854 0.0
C158 C 0.29757 0.45541 0.04357 0.0
C159 C 0.21628 0.42915 0.97695 0.0
C160 C 0.35193 0.47883 0.04807 0.0
C161 C 0.38247 0.49519 0.99123 0.0
C162 C 0.2734 0.44883 0.98184 0.0
C163 C 0.35695 0.48704 0.9302 0.0
C164 C 0.19304 0.43378 0.91859 0.0
C165 C 0.13622 0.40125 0.03392 0.0
N166 N 0.30374 0.46482 0.92711 0.0
N167 N 0.18668 0.41158 0.03206 0.0
H168 H 0.60679 0.10796 0.14393 0.0
H169 H 0.86211 0.27187 0.92554 0.0
H170 H 0.60844 0.11079 0.932 0.0
H171 H 0.8603 0.29355 0.13487 0.0
H172 H 0.77298 0.19784 0.9312 0.0
H173 H 0.70268 0.16421 0.14476 0.0
C174 C 0.62728 0.12044 0.09769 0.0
C175 C 0.59963 0.10525 0.03782 0.0
C176 C 0.79229 0.21833 0.97609 0.0
C177 C 0.70878 0.16841 0.03846 0.0
C178 C 0.8433 0.2604 0.97293 0.0
C179 C 0.86815 0.28948 0.0296 0.0
C180 C 0.76583 0.20558 0.03623 0.0
C181 C 0.84226 0.27247 0.08985 0.0
C182 C 0.6819 0.15222 0.09821 0.0
C183 C 0.62805 0.12206 0.97933 0.0
N184 N 0.79197 0.23207 0.09145 0.0
N185 N 0.68101 0.15279 0.98117 0.0
H186 H 0.48405 0.88309 0.88407 0.0
H187 H 0.60122 0.72877 0.08325 0.0
H188 H 0.50713 0.8888 0.09417 0.0
H189 H 0.54897 0.69309 0.88164 0.0
H190 H 0.58676 0.8037 0.07933 0.0
H191 H 0.52348 0.82634 0.87536 0.0
C192 C 0.49739 0.87245 0.92822 0.0
C193 C 0.4917 0.89006 0.99 0.0
C194 C 0.57913 0.77997 0.03557 0.0
C195 C 0.53754 0.82653 0.98026 0.0
C196 C 0.5877 0.73739 0.03769 0.0
C197 C 0.57531 0.70422 0.98308 0.0
C198 C 0.55742 0.78904 0.9787 0.0
C199 C 0.55859 0.71754 0.92501 0.0
C200 C 0.52006 0.84037 0.92318 0.0
C201 C 0.51002 0.87557 0.0456 0.0
N202 N 0.5491 0.75851 0.92466 0.0
N203 N 0.53201 0.84464 0.03936 0.0
H204 H 0.88019 0.4954 0.14425 0.0
H205 H 0.72112 0.60346 0.9373 0.0
H206 H 0.88295 0.51143 0.93336 0.0
H207 H 0.69252 0.56313 0.14242 0.0
H208 H 0.79642 0.58954 0.9423 0.0
H209 H 0.82403 0.53566 0.15031 0.0
C210 C 0.86902 0.50736 0.09937 0.0
C211 C 0.88559 0.49941 0.03817 0.0
C212 C 0.77417 0.58441 0.98654 0.0
C213 C 0.82272 0.54615 0.04484 0.0
C214 C 0.73137 0.59267 0.98376 0.0
C215 C 0.70001 0.58336 0.03916 0.0
C216 C 0.78525 0.56608 0.04489 0.0
C217 C 0.71545 0.57018 0.09837 0.0
C218 C 0.83731 0.53053 0.10289 0.0
C219 C 0.87051 0.51607 0.98157 0.0
N220 N 0.75653 0.56086 0.09942 0.0
N221 N 0.83989 0.53849 0.98633 0.0
H222 H 0.10192 0.61118 0.8871 0.0
H223 H 0.26633 0.86914 0.10514 0.0
H224 H 0.10657 0.6153 0.09903 0.0
H225 H 0.28612 0.8653 0.89587 0.0
H226 H 0.19269 0.77973 0.09953 0.0
H227 H 0.15771 0.70706 0.88609 0.0
C228 C 0.11473 0.6322 0.93331 0.0
C229 C 0.10013 0.60525 0.99323 0.0
C230 C 0.21266 0.79864 0.05464 0.0
C231 C 0.16276 0.7144 0.99238 0.0
C232 C 0.25449 0.84982 0.05777 0.0
C233 C 0.28296 0.87419 1.0011 0.0
C234 C 0.19955 0.77154 0.99454 0.0
C235 C 0.26551 0.84765 0.94087 0.0
C236 C 0.14623 0.68682 0.93268 0.0
C237 C 0.11736 0.63435 0.05166 0.0
N238 N 0.22538 0.79721 0.9393 0.0
N239 N 0.14779 0.68729 0.04972 0.0
H240 H 0.47763 0.37505 0.9373 0.0
H241 H 0.43154 0.13343 0.1566 0.0
H242 H 0.49765 0.38771 0.14794 0.0
H243 H 0.38219 0.12118 0.95409 0.0
H244 H 0.4478 0.22379 0.15928 0.0
H245 H 0.43802 0.28045 0.94571 0.0
C246 C 0.47393 0.35789 0.98546 0.0
C247 C 0.49153 0.38935 0.04198 0.0
C248 C 0.43233 0.20088 0.11475 0.0
C249 C 0.44566 0.28048 0.05206 0.0
C250 C 0.42267 0.14918 0.11331 0.0
C251 C 0.4065 0.12023 0.0546 0.0
C252 C 0.42592 0.2234 0.057 0.0
C253 C 0.39561 0.1425 1.00001 0.0
C254 C 0.45074 0.30368 0.9903 0.0
C255 C 0.48492 0.3648 0.10312 0.0
N256 N 0.40636 0.19305 1.00223 0.0
N257 N 0.46291 0.31166 0.10654 0.0
loop_
_geom_bond_atom_site_label_1
_geom_bond_atom_site_label_2
_geom_bond_distance
_geom_bond_site_symmetry_2
_ccdc_geom_bond_type
Zn0 O1 2.055 . S
Zn0 O8 2.046 1_455 S
Zn0 N16 2.036 . S
Zn0 O28 2.053 1_455 S
Zn0 O30 2.066 . S
O1 Zn0 2.055 . S
O1 C4 1.259 . S
C2 O30 1.256 . S
C2 O31 1.244 1_556 S
Zn3 O5 2.046 . S
Zn3 O7 2.055 1_455 S
Zn3 N9 2.036 . S
Zn3 O27 2.066 1_455 S
Zn3 O31 2.053 . S
C4 O1 1.259 . S
C4 O5 1.254 1_556 S
O5 Zn3 2.046 . S
O5 C4 1.254 1_554 S
C6 O27 1.256 . S
C6 O28 1.244 1_554 S
O7 Zn3 2.055 1_655 S
O7 C29 1.259 . S
O8 Zn0 2.046 1_655 S
O8 C29 1.254 1_556 S
N9 Zn3 2.036 . S
N9 C10 1.298 1_455 S
N9 N12 1.398 . S
C10 N9 1.298 1_655 S
C10 N13 1.367 1_655 S
C10 C23 1.481 . S
C11 N12 1.299 . S
C11 N13 1.379 . S
N12 N9 1.398 . S
N12 C11 1.299 . S
N13 C10 1.367 1_455 S
N13 C11 1.379 . S
C14 N16 1.298 . S
C14 N18 1.367 . S
C14 C22 1.481 . S
C15 N17 1.299 . S
C15 N18 1.379 1_655 S
N16 Zn0 2.036 . S
N16 C14 1.298 . S
N16 N17 1.398 1_455 S
N17 C15 1.299 . S
N17 N16 1.398 1_655 S
N18 C14 1.367 . S
N18 C15 1.379 1_455 S
H19 C22 0.980 . S
H20 C22 0.981 . S
H21 C22 0.981 . S
C22 C14 1.481 . S
C22 H19 0.980 . S
C22 H20 0.981 . S
C22 H21 0.981 . S
C23 C10 1.481 . S
C23 H24 0.980 . S
C23 H25 0.981 . S
C23 H26 0.981 . S
H24 C23 0.980 . S
H25 C23 0.981 . S
H26 C23 0.981 . S
O27 Zn3 2.066 1_655 S
O27 C6 1.256 . S
O28 Zn0 2.053 1_655 S
O28 C6 1.244 1_556 S
C29 O7 1.259 . S
C29 O8 1.254 1_554 S
O30 Zn0 2.066 . S
O30 C2 1.256 . S
O31 C2 1.244 1_554 S
O31 Zn3 2.053 . S
Zn32 O33 2.055 1_545 S
Zn32 O40 2.046 . S
Zn32 N48 2.036 . S
Zn32 O60 2.053 . S
Zn32 O62 2.066 1_545 S
O33 Zn32 2.055 1_565 S
O33 C36 1.259 . S
C34 O62 1.256 . S
C34 O63 1.244 1_556 S
Zn35 O37 2.046 1_545 S
Zn35 O39 2.055 . S
Zn35 N41 2.036 . S
Zn35 O59 2.066 . S
Zn35 O63 2.053 1_545 S
C36 O33 1.259 . S
C36 O37 1.254 1_556 S
O37 Zn35 2.046 1_565 S
O37 C36 1.254 1_554 S
C38 O59 1.256 . S
C38 O60 1.244 1_554 S
O39 Zn35 2.055 . S
O39 C61 1.259 . S
O40 Zn32 2.046 . S
O40 C61 1.254 1_556 S
N41 Zn35 2.036 . S
N41 C42 1.298 . S
N41 N44 1.398 1_545 S
C42 N41 1.298 . S
C42 N45 1.367 . S
C42 C55 1.481 . S
C43 N44 1.299 . S
C43 N45 1.379 1_565 S
N44 N41 1.398 1_565 S
N44 C43 1.299 . S
N45 C42 1.367 . S
N45 C43 1.379 1_545 S
C46 N48 1.298 1_565 S
C46 N50 1.367 1_565 S
C46 C54 1.481 . S
C47 N49 1.299 . S
C47 N50 1.379 . S
N48 Zn32 2.036 . S
N48 C46 1.298 1_545 S
N48 N49 1.398 . S
N49 C47 1.299 . S
N49 N48 1.398 . S
N50 C46 1.367 1_545 S
N50 C47 1.379 . S
H51 C54 0.980 . S
H52 C54 0.981 . S
H53 C54 0.981 . S
C54 C46 1.481 . S
C54 H51 0.980 . S
C54 H52 0.981 . S
C54 H53 0.981 . S
C55 C42 1.481 . S
C55 H56 0.980 . S
C55 H57 0.981 . S
C55 H58 0.981 . S
H56 C55 0.980 . S
H57 C55 0.981 . S
H58 C55 0.981 . S
O59 Zn35 2.066 . S
O59 C38 1.256 . S
O60 Zn32 2.053 . S
O60 C38 1.244 1_556 S
C61 O39 1.259 . S
C61 O40 1.254 1_554 S
O62 Zn32 2.066 1_565 S
O62 C34 1.256 . S
O63 C34 1.244 1_554 S
O63 Zn35 2.053 1_565 S
Zn64 O65 2.055 . S
Zn64 O72 2.046 . S
Zn64 N80 2.036 . S
Zn64 O92 2.053 . S
Zn64 O94 2.066 . S
O65 Zn64 2.055 . S
O65 C68 1.259 . S
C66 O94 1.256 . S
C66 O95 1.244 1_554 S
Zn67 O69 2.046 . S
Zn67 O71 2.055 . S
Zn67 N73 2.036 . S
Zn67 O91 2.066 . S
Zn67 O95 2.053 . S
C68 O65 1.259 . S
C68 O69 1.254 1_554 S
O69 Zn67 2.046 . S
O69 C68 1.254 1_556 S
C70 O91 1.256 . S
C70 O92 1.244 1_556 S
O71 Zn67 2.055 . S
O71 C93 1.259 . S
O72 Zn64 2.046 . S
O72 C93 1.254 1_554 S
N73 Zn67 2.036 . S
N73 C74 1.298 . S
N73 N76 1.398 . S
C74 N73 1.298 . S
C74 N77 1.367 . S
C74 C87 1.481 . S
C75 N76 1.299 . S
C75 N77 1.379 . S
N76 N73 1.398 . S
N76 C75 1.299 . S
N77 C74 1.367 . S
N77 C75 1.379 . S
C78 N80 1.298 . S
C78 N82 1.367 . S
C78 C86 1.481 . S
C79 N81 1.299 . S
C79 N82 1.379 . S
N80 Zn64 2.036 . S
N80 C78 1.298 . S
N80 N81 1.398 . S
N81 C79 1.299 . S
N81 N80 1.398 . S
N82 C78 1.367 . S
N82 C79 1.379 . S
H83 C86 0.980 . S
H84 C86 0.981 . S
H85 C86 0.981 . S
C86 C78 1.481 . S
C86 H83 0.980 . S
C86 H84 0.981 . S
C86 H85 0.981 . S
C87 C74 1.481 . S
C87 H88 0.980 . S
C87 H89 0.981 . S
C87 H90 0.981 . S
H88 C87 0.980 . S
H89 C87 0.981 . S
H90 C87 0.981 . S
O91 Zn67 2.066 . S
O91 C70 1.256 . S
O92 Zn64 2.053 . S
O92 C70 1.244 1_554 S
C93 O71 1.259 . S
C93 O72 1.254 1_556 S
O94 Zn64 2.066 . S
O94 C66 1.256 . S
O95 C66 1.244 1_556 S
O95 Zn67 2.053 . S
H96 C102 0.916 1_655 S
H97 C106 0.930 . S
H98 C111 0.929 . S
H99 C109 0.929 . S
H100 C104 0.929 . S
H101 C110 0.929 1_655 S
C102 H96 0.916 1_455 S
C102 C103 1.367 . S
C102 C110 1.378 . S
C103 C102 1.367 . S
C103 C111 1.433 . S
C104 H100 0.929 . S
C104 C106 1.378 . S
C104 C108 1.350 . S
C105 C108 1.463 . S
C105 C110 1.350 . S
C105 N113 1.427 . S
C106 H97 0.930 . S
C106 C104 1.378 . S
C106 C107 1.367 1_455 S
C107 C106 1.367 1_655 S
C107 C109 1.433 . S
C108 C104 1.350 . S
C108 C105 1.463 . S
C108 N112 1.427 1_455 S
C109 H99 0.929 . S
C109 C107 1.433 . S
C109 N112 1.384 . S
C110 H101 0.929 1_455 S
C110 C102 1.378 . S
C110 C105 1.350 . S
C111 H98 0.929 . S
C111 C103 1.433 . S
C111 N113 1.384 . S
N112 C108 1.427 1_655 S
N112 C109 1.384 . S
N113 C105 1.427 . S
N113 C111 1.384 . S
H114 C120 0.930 . S
H115 C124 0.930 . S
H116 C129 0.929 . S
H117 C127 0.929 . S
H118 C122 0.929 . S
H119 C128 0.929 . S
C120 H114 0.930 . S
C120 C121 1.367 . S
C120 C128 1.378 . S
C121 C120 1.367 . S
C121 C129 1.433 1_545 S
C122 H118 0.929 . S
C122 C124 1.378 . S
C122 C126 1.350 1_565 S
C123 C126 1.463 . S
C123 C128 1.350 . S
C123 N131 1.427 1_545 S
C124 H115 0.930 . S
C124 C122 1.378 . S
C124 C125 1.367 . S
C125 C124 1.367 . S
C125 C127 1.433 1_565 S
C126 C122 1.350 1_545 S
C126 C123 1.463 . S
C126 N130 1.427 . S
C127 H117 0.929 . S
C127 C125 1.433 1_545 S
C127 N130 1.384 . S
C128 H119 0.929 . S
C128 C120 1.378 . S
C128 C123 1.350 . S
C129 H116 0.929 . S
C129 C121 1.433 1_565 S
C129 N131 1.384 . S
N130 C126 1.427 . S
N130 C127 1.384 . S
N131 C123 1.427 1_565 S
N131 C129 1.384 . S
H132 C138 0.930 . S
H133 C142 0.930 . S
H134 C147 0.929 . S
H135 C145 0.929 . S
H136 C140 0.929 . S
H137 C146 0.929 . S
C138 H132 0.930 . S
C138 C139 1.367 . S
C138 C146 1.378 . S
C139 C138 1.367 . S
C139 C147 1.433 . S
C140 H136 0.929 . S
C140 C142 1.378 . S
C140 C144 1.350 . S
C141 C144 1.463 . S
C141 C146 1.350 . S
C141 N149 1.427 . S
C142 H133 0.930 . S
C142 C140 1.378 . S
C142 C143 1.367 . S
C143 C142 1.367 . S
C143 C145 1.433 . S
C144 C140 1.350 . S
C144 C141 1.463 . S
C144 N148 1.427 . S
C145 H135 0.929 . S
C145 C143 1.433 . S
C145 N148 1.384 . S
C146 H137 0.929 . S
C146 C138 1.378 . S
C146 C141 1.350 . S
C147 H134 0.929 . S
C147 C139 1.433 . S
C147 N149 1.384 . S
N148 C144 1.427 . S
N148 C145 1.384 . S
N149 C141 1.427 . S
N149 C147 1.384 . S
H150 C156 0.930 . S
H151 C160 0.930 . S
H152 C165 0.929 . S
H153 C163 0.929 . S
H154 C158 0.929 . S
H155 C164 0.929 . S
C156 H150 0.930 . S
C156 C157 1.367 . S
C156 C164 1.378 . S
C157 C156 1.367 . S
C157 C165 1.433 1_556 S
C158 H154 0.929 . S
C158 C160 1.378 . S
C158 C162 1.350 1_554 S
C159 C162 1.463 . S
C159 C164 1.350 . S
C159 N167 1.427 1_556 S
C160 H151 0.930 . S
C160 C158 1.378 . S
C160 C161 1.367 1_554 S
C161 C160 1.367 1_556 S
C161 C163 1.433 . S
C162 C158 1.350 1_556 S
C162 C159 1.463 . S
C162 N166 1.427 . S
C163 H153 0.929 . S
C163 C161 1.433 . S
C163 N166 1.384 . S
C164 H155 0.929 . S
C164 C156 1.378 . S
C164 C159 1.350 . S
C165 H152 0.929 . S
C165 C157 1.433 1_554 S
C165 N167 1.384 . S
N166 C162 1.427 . S
N166 C163 1.384 . S
N167 C159 1.427 1_554 S
N167 C165 1.384 . S
H168 C174 0.930 . S
H169 C178 0.930 . S
H170 C183 0.929 . S
H171 C181 0.929 . S
H172 C176 0.929 . S
H173 C182 0.929 . S
C174 H168 0.930 . S
C174 C175 1.367 . S
C174 C182 1.378 . S
C175 C174 1.367 . S
C175 C183 1.433 1_554 S
C176 H172 0.929 . S
C176 C178 1.378 . S
C176 C180 1.350 1_556 S
C177 C180 1.463 . S
C177 C182 1.350 . S
C177 N185 1.427 1_554 S
C178 H169 0.930 . S
C178 C176 1.378 . S
C178 C179 1.367 1_556 S
C179 C178 1.367 1_554 S
C179 C181 1.433 . S
C180 C176 1.350 1_554 S
C180 C177 1.463 . S
C180 N184 1.427 . S
C181 H171 0.929 . S
C181 C179 1.433 . S
C181 N184 1.384 . S
C182 H173 0.929 . S
C182 C174 1.378 . S
C182 C177 1.350 . S
C183 H170 0.929 . S
C183 C175 1.433 1_556 S
C183 N185 1.384 . S
N184 C180 1.427 . S
N184 C181 1.384 . S
N185 C177 1.427 1_556 S
N185 C183 1.384 . S
H186 C192 0.930 . S
H187 C196 0.930 . S
H188 C201 0.929 . S
H189 C199 0.929 . S
H190 C194 0.929 . S
H191 C200 0.929 . S
C192 H186 0.930 . S
C192 C193 1.367 . S
C192 C200 1.378 . S
C193 C192 1.367 . S
C193 C201 1.433 1_556 S
C194 H190 0.929 . S
C194 C196 1.378 . S
C194 C198 1.350 1_554 S
C195 C198 1.463 . S
C195 C200 1.350 . S
C195 N203 1.427 1_556 S
C196 H187 0.930 . S
C196 C194 1.378 . S
C196 C197 1.367 1_554 S
C197 C196 1.367 1_556 S
C197 C199 1.433 . S
C198 C194 1.350 1_556 S
C198 C195 1.463 . S
C198 N202 1.427 . S
C199 H189 0.929 . S
C199 C197 1.433 . S
C199 N202 1.384 . S
C200 H191 0.929 . S
C200 C192 1.378 . S
C200 C195 1.350 . S
C201 H188 0.929 . S
C201 C193 1.433 1_554 S
C201 N203 1.384 . S
N202 C198 1.427 . S
N202 C199 1.384 . S
N203 C195 1.427 1_554 S
N203 C201 1.384 . S
H204 C210 0.930 . S
H205 C214 0.930 . S
H206 C219 0.929 . S
H207 C217 0.929 . S
H208 C212 0.929 . S
H209 C218 0.929 . S
C210 H204 0.930 . S
C210 C211 1.367 . S
C210 C218 1.378 . S
C211 C210 1.367 . S
C211 C219 1.433 1_554 S
C212 H208 0.929 . S
C212 C214 1.378 . S
C212 C216 1.350 1_556 S
C213 C216 1.463 . S
C213 C218 1.350 . S
C213 N221 1.427 1_554 S
C214 H205 0.930 . S
C214 C212 1.378 . S
C214 C215 1.367 1_556 S
C215 C214 1.367 1_554 S
C215 C217 1.433 . S
C216 C212 1.350 1_554 S
C216 C213 1.463 . S
C216 N220 1.427 . S
C217 H207 0.929 . S
C217 C215 1.433 . S
C217 N220 1.384 . S
C218 H209 0.929 . S
C218 C210 1.378 . S
C218 C213 1.350 . S
C219 H206 0.929 . S
C219 C211 1.433 1_556 S
C219 N221 1.384 . S
N220 C216 1.427 . S
N220 C217 1.384 . S
N221 C213 1.427 1_556 S
N221 C219 1.384 . S
H222 C228 0.930 . S
H223 C232 0.930 . S
H224 C237 0.929 . S
H225 C235 0.929 . S
H226 C230 0.929 . S
H227 C236 0.929 . S
C228 H222 0.930 . S
C228 C229 1.367 . S
C228 C236 1.378 . S
C229 C228 1.367 . S
C229 C237 1.433 1_556 S
C230 H226 0.929 . S
C230 C232 1.378 . S
C230 C234 1.350 1_554 S
C231 C234 1.463 . S
C231 C236 1.350 . S
C231 N239 1.427 1_556 S
C232 H223 0.930 . S
C232 C230 1.378 . S
C232 C233 1.367 1_554 S
C233 C232 1.367 1_556 S
C233 C235 1.433 . S
C234 C230 1.350 1_556 S
C234 C231 1.463 . S
C234 N238 1.427 . S
C235 H225 0.929 . S
C235 C233 1.433 . S
C235 N238 1.384 . S
C236 H227 0.929 . S
C236 C228 1.378 . S
C236 C231 1.350 . S
C237 H224 0.929 . S
C237 C229 1.433 1_554 S
C237 N239 1.384 . S
N238 C234 1.427 . S
N238 C235 1.384 . S
N239 C231 1.427 1_554 S
N239 C237 1.384 . S
H240 C246 0.930 . S
H241 C250 0.930 . S
H242 C255 0.929 . S
H243 C253 0.929 . S
H244 C248 0.929 . S
H245 C254 0.929 . S
C246 H240 0.930 . S
C246 C247 1.367 1_556 S
C246 C254 1.378 . S
C247 C246 1.367 1_554 S
C247 C255 1.433 . S
C248 H244 0.929 . S
C248 C250 1.378 . S
C248 C252 1.350 . S
C249 C252 1.463 . S
C249 C254 1.350 1_554 S
C249 N257 1.427 . S
C250 H241 0.930 . S
C250 C248 1.378 . S
C250 C251 1.367 . S
C251 C250 1.367 . S
C251 C253 1.433 1_554 S
C252 C248 1.350 . S
C252 C249 1.463 . S
C252 N256 1.427 1_554 S
C253 H243 0.929 . S
C253 C251 1.433 1_556 S
C253 N256 1.384 . S
C254 H245 0.929 . S
C254 C246 1.378 . S
C254 C249 1.350 1_556 S
C255 H242 0.929 . S
C255 C247 1.433 . S
C255 N257 1.384 . S
N256 C252 1.427 1_556 S
N256 C253 1.384 . S
N257 C249 1.427 . S
N257 C255 1.384 . S
C103 N18 1.470 . S
C107 N13 1.473 1_655 S
C121 N45 1.483 . S
C125 N50 1.481 1_565 S
C139 N77 1.478 . S
C143 N82 1.476 . S
C157 C2 1.183 . S
C161 C93 1.189 . S
C175 C61 1.189 . S
C179 C6 1.181 . S
C193 C36 1.190 . S
C197 C70 1.183 . S
C211 C29 1.190 . S
C215 C66 1.185 . S
C229 C4 1.190 . S
C233 C34 1.183 . S
C247 C68 1.189 . S
C251 C38 1.187 . S
