# Generated by pormake.
# Topology nbo, (4)-cn, num edge types: 1
# Building blocks:
#     Node 0, Type 0, BuildingBlock: ESEHIV_clean_sbu_0, # of connection points: 4
#     Node 1, Type 0, BuildingBlock: ESEHIV_clean_sbu_0, # of connection points: 4
#     Node 2, Type 0, BuildingBlock: ESEHIV_clean_sbu_0, # of connection points: 4
#     Node 3, Type 0, BuildingBlock: ESEHIV_clean_sbu_0, # of connection points: 4
#     Node 4, Type 0, BuildingBlock: ESEHIV_clean_sbu_0, # of connection points: 4
#     Node 5, Type 0, BuildingBlock: ESEHIV_clean_sbu_0, # of connection points: 4
#     Edge 6, Type (0, 0), BuildingBlock: OJICUG_clean_linker_0, # of connection points: 2
#     Edge 7, Type (0, 0), BuildingBlock: OJICUG_clean_linker_0, # of connection points: 2
#     Edge 8, Type (0, 0), BuildingBlock: OJICUG_clean_linker_0, # of connection points: 2
#     Edge 9, Type (0, 0), BuildingBlock: OJICUG_clean_linker_0, # of connection points: 2
#     Edge 10, Type (0, 0), BuildingBlock: OJICUG_clean_linker_0, # of connection points: 2
#     Edge 11, Type (0, 0), BuildingBlock: OJICUG_clean_linker_0, # of connection points: 2
#     Edge 12, Type (0, 0), BuildingBlock: OJICUG_clean_linker_0, # of connection points: 2
#     Edge 13, Type (0, 0), BuildingBlock: OJICUG_clean_linker_0, # of connection points: 2
#     Edge 14, Type (0, 0), BuildingBlock: OJICUG_clean_linker_0, # of connection points: 2
#     Edge 15, Type (0, 0), BuildingBlock: OJICUG_clean_linker_0, # of connection points: 2
#     Edge 16, Type (0, 0), BuildingBlock: OJICUG_clean_linker_0, # of connection points: 2
#     Edge 17, Type (0, 0), BuildingBlock: OJICUG_clean_linker_0, # of connection points: 2
# Relax obj value: 0.000
# Max RMSD: 0.095
# Mean RMSD: 0.094
data_MOF--net-nbo--node1-ESEHIV_clean_sbu_0--edge1-OJICUG_clean_linker_0
_symmetry_space_group_name_H-M    P1
_symmetry_Int_Tables_number       1
_symmetry_cell_setting            triclinic
loop_
_symmetry_equiv_pos_as_xyz
'x, y, z'
_cell_length_a     21.572934
_cell_length_b     25.652527
_cell_length_c     23.302685
_cell_angle_alpha  102.49738
_cell_angle_beta   101.36044
_cell_angle_gamma 102.84903
loop_
_atom_site_label
_atom_site_type_symbol
_atom_site_fract_x
_atom_site_fract_y
_atom_site_fract_z
_atom_type_partial_charge
Cu0 Cu 0.07268 0.09961 0.56624 0.0
N1 N 0.08902 0.17235 0.61443 0.0
N2 N 0.07891 0.25868 0.63238 0.0
C3 C 0.06016 0.20807 0.59289 0.0
C4 C 0.12232 0.25562 0.68094 0.0
C5 C 0.12791 0.20172 0.67005 0.0
O6 O 0.98099 0.08297 0.52086 0.0
C7 C 0.19825 0.12237 0.54734 0.0
O8 O 0.21238 0.14506 0.60618 0.0
H9 H 0.0269 0.19742 0.54812 0.0
H10 H 0.15896 0.18562 0.69997 0.0
N11 N 0.0774 0.04476 0.60737 0.0
N12 N 0.06596 0.95804 0.6166 0.0
C13 C 0.04701 0.99025 0.58154 0.0
C14 C 0.11707 0.04742 0.66089 0.0
C15 C 0.11005 0.99401 0.66676 0.0
C16 C 0.94252 0.09223 0.5548 0.0
O17 O 0.96616 0.10591 0.61413 0.0
H18 H 1.01442 0.9744 0.53617 0.0
H19 H 0.15082 0.0851 0.69217 0.0
O20 O 0.13792 0.09975 0.51836 0.0
H21 H 0.14802 0.28974 0.72101 0.0
H22 H 0.1365 0.98258 0.70444 0.0
Cu23 Cu 0.5416 0.07292 1.00396 0.0
N24 N 0.50007 1.00918 0.02298 0.0
N25 N 0.49654 0.93417 0.05796 0.0
C26 C 0.52974 0.96962 0.03207 0.0
C27 C 0.44301 0.95157 0.06436 0.0
C28 C 0.44552 0.99808 0.04309 0.0
O29 O 0.62929 0.09882 0.05994 0.0
C30 C 0.50846 0.06382 0.87344 0.0
O31 O 0.4632 0.08786 0.8861 0.0
H32 H 0.5769 0.96901 0.023 0.0
H33 H 0.41244 1.024 0.04621 0.0
N34 N 0.50279 0.1315 0.0204 0.0
N35 N 0.49454 0.21875 0.04698 0.0
C36 C 0.53563 0.18596 0.04279 0.0
C37 C 0.43865 0.12966 1.01032 0.0
C38 C 0.43341 0.18326 0.02654 0.0
C39 C 0.6516 0.0963 0.11429 0.0
O40 O 0.71541 0.11543 0.1382 0.0
H41 H 0.58871 0.20124 0.05406 0.0
H42 H 0.39843 0.09215 0.99106 0.0
O43 O 0.54669 0.05398 0.91699 0.0
H44 H 0.40692 0.93421 0.08642 0.0
H45 H 0.38797 0.19506 0.02326 0.0
Cu46 Cu 0.03654 0.55898 0.96947 0.0
N47 N 1.01751 0.52381 0.8846 0.0
N48 N 0.02691 0.5176 0.78882 0.0
C49 C 0.032 0.55183 0.84363 0.0
C50 C 1.00843 0.46583 0.79548 0.0
C51 C 1.00196 0.4697 0.8542 0.0
O52 O 0.13144 0.59499 0.99248 0.0
C53 C 0.91542 0.57955 0.9531 0.0
O54 O 0.90103 0.5298 0.91553 0.0
H55 H 0.05151 0.59655 0.85544 0.0
H56 H 0.99174 0.43568 0.87455 0.0
N57 N 0.02513 0.51681 0.02635 0.0
N58 N 1.02296 0.50755 0.12049 0.0
C59 C 1.01308 0.538 0.08035 0.0
C60 C 0.04327 0.47096 0.03248 0.0
C61 C 0.04173 0.46506 0.09008 0.0
C62 C 0.16521 0.56313 0.97294 0.0
O63 O 0.13445 0.51183 0.94087 0.0
H64 H 1.00195 0.57752 0.09152 0.0
H65 H 0.06036 0.44549 0.99905 0.0
O66 O 0.97587 0.60462 0.97993 0.0
H67 H 1.00357 0.428 0.76138 0.0
H68 H 0.0554 0.43282 0.10863 0.0
Cu69 Cu 0.57307 0.59888 0.06696 0.0
N70 N 0.58937 0.67168 0.115 0.0
N71 N 0.57927 0.75802 0.13266 0.0
C72 C 0.56028 0.70725 0.09344 0.0
C73 C 0.62307 0.75518 0.18108 0.0
C74 C 0.62866 0.70128 0.17038 0.0
O75 O 0.48138 0.58217 0.02152 0.0
C76 C 0.69869 0.62128 0.04822 0.0
O77 O 0.71278 0.64355 0.10714 0.0
H78 H 0.52677 0.69643 0.04877 0.0
H79 H 0.66002 0.68536 0.20023 0.0
N80 N 0.57776 0.5441 0.10819 0.0
N81 N 0.56625 0.4574 0.1175 0.0
C82 C 0.54737 0.48959 0.08238 0.0
C83 C 0.61735 0.54678 0.16176 0.0
C84 C 0.61029 0.49338 0.16767 0.0
C85 C 0.44285 0.59136 0.05543 0.0
O86 O 0.46645 0.60501 0.11477 0.0
H87 H 0.51484 0.47372 0.03698 0.0
H88 H 0.65106 0.58448 0.19305 0.0
O89 O 0.63835 0.59898 0.01911 0.0
H90 H 0.64907 0.78945 0.22092 0.0
H91 H 0.63667 0.48197 0.20541 0.0
Cu92 Cu 0.04129 0.57345 0.50385 0.0
N93 N 0.99953 0.50982 0.52289 0.0
N94 N 0.99605 0.43484 0.55791 0.0
C95 C 0.02887 0.46996 0.53144 0.0
C96 C 0.94307 0.45277 0.56523 0.0
C97 C 0.94556 0.49927 0.54393 0.0
O98 O 0.12889 0.5993 0.56 0.0
C99 C 1.00763 0.56316 0.37312 0.0
O100 O 0.96136 0.58606 0.38541 0.0
H101 H 0.07566 0.46897 0.52168 0.0
H102 H 0.91304 0.52562 0.54779 0.0
N103 N 1.00252 0.63209 0.52 0.0
N104 N 0.9943 0.71938 0.54626 0.0
C105 C 0.03538 0.68657 0.54221 0.0
C106 C 0.93839 0.63028 0.5099 0.0
C107 C 0.93317 0.68389 0.52593 0.0
C108 C 0.15111 0.59665 0.61431 0.0
O109 O 0.21489 0.6158 0.63834 0.0
H110 H 0.08846 0.70183 0.55346 0.0
H111 H 0.89817 0.59274 0.49083 0.0
O112 O 0.04663 0.55439 0.41698 0.0
H113 H 0.90752 0.43586 0.58803 0.0
H114 H 0.88773 0.69571 0.52262 0.0
Cu115 Cu 0.53619 0.05947 0.46932 0.0
N116 N 0.51723 1.02412 0.38451 0.0
N117 N 0.52683 1.01772 0.28876 0.0
C118 C 0.5318 0.05203 0.34348 0.0
C119 C 0.50835 0.966 0.29554 0.0
C120 C 0.50175 0.96998 0.35424 0.0
O121 O 0.63103 0.09559 0.49221 0.0
C122 C 0.41501 0.07991 0.45277 0.0
O123 O 0.40067 1.03004 0.41545 0.0
H124 H 0.55133 0.09675 0.35521 0.0
H125 H 0.49152 0.93602 0.37468 0.0
N126 N 0.5249 1.01745 0.52635 0.0
N127 N 0.52285 1.00816 0.62051 0.0
C128 C 0.51341 1.03887 0.58055 0.0
C129 C 0.54223 0.9712 0.53215 0.0
C130 C 0.54076 0.96529 0.58976 0.0
C131 C 0.66481 0.06365 0.47288 0.0
O132 O 0.63408 1.01222 0.44122 0.0
H133 H 0.50291 0.07863 0.59194 0.0
H134 H 0.55862 0.94537 0.49843 0.0
O135 O 0.47544 0.10506 0.47957 0.0
H136 H 0.50364 0.92812 0.26157 0.0
H137 H 0.55383 0.93272 0.60806 0.0
C138 C 0.10526 0.35238 0.61794 0.0
C139 C 0.05887 0.30594 0.62088 0.0
H140 H 0.12166 0.42879 0.59332 0.0
C141 C 0.99171 0.3029 0.60444 0.0
H142 H 0.15715 0.35477 0.62923 0.0
C143 C 0.97113 0.34573 0.58515 0.0
C144 C 1.01731 0.39163 0.58014 0.0
H145 H 0.95523 0.26676 0.60556 0.0
H146 H 0.919 0.34199 0.57212 0.0
C147 C 0.08467 0.3944 0.59685 0.0
C148 C 0.84105 0.12049 0.56689 0.0
C149 C 0.87337 0.09097 0.52994 0.0
H150 H 0.74962 0.13641 0.57718 0.0
C151 C 0.83802 0.05865 0.47115 0.0
H152 H 0.86738 0.14655 0.61219 0.0
C153 C 0.77059 0.05272 0.45144 0.0
C154 C 0.73753 0.07983 0.48965 0.0
H155 H 0.86164 1.03581 0.4416 0.0
H156 H 0.74369 1.02516 0.40696 0.0
C157 C 0.77382 0.11534 0.54673 0.0
C158 C 0.96844 0.80855 0.54321 0.0
C159 C 1.01183 0.77958 0.56544 0.0
H160 H 0.95129 0.88751 0.54223 0.0
C161 C 0.07287 0.8106 0.60615 0.0
H162 H 0.92131 0.7863 0.51145 0.0
C163 C 0.09016 0.8689 0.62379 0.0
C164 C 0.04713 0.89783 0.60077 0.0
H165 H 0.10727 0.78982 0.62469 0.0
H166 H 0.13789 0.89129 0.65448 0.0
C167 C 0.98593 0.86678 0.56045 0.0
C168 C 0.37153 0.13844 0.52772 0.0
C169 C 0.36038 0.09957 0.47159 0.0
H170 H 0.32896 0.17618 0.59545 0.0
C171 C 0.29493 0.07322 0.43716 0.0
H172 H 0.42116 0.15926 0.55548 0.0
C173 C 0.24186 0.08277 0.46004 0.0
C174 C 0.25306 0.11864 0.51808 0.0
H175 H 0.28457 0.04318 0.3935 0.0
H176 H 0.19228 0.05994 0.43354 0.0
C177 C 0.31847 0.14773 0.55076 0.0
C178 C 0.53009 0.07158 0.21153 0.0
C179 C 0.55208 1.03325 0.23976 0.0
H180 H 0.54212 0.12005 0.14729 0.0
C181 C 0.6026 1.01285 0.22211 0.0
H182 H 0.49146 0.08823 0.22461 0.0
C183 C 0.63258 1.03213 0.1796 0.0
C184 C 0.61096 0.0703 0.15109 0.0
H185 H 0.62112 0.98393 0.24353 0.0
H186 H 0.67412 1.01802 0.16993 0.0
C187 C 0.55867 0.08941 0.16699 0.0
C188 C 0.97803 0.55246 0.20278 0.0
C189 C 1.01938 0.52064 0.18378 0.0
H190 H 0.94178 0.59017 0.27571 0.0
C191 C 0.05756 0.50276 0.22824 0.0
H192 H 0.94739 0.56664 0.17029 0.0
C193 C 0.0547 0.51669 0.28962 0.0
C194 C 1.013 0.54838 0.30833 0.0
H195 H 0.09055 0.47867 0.21589 0.0
H196 H 0.08492 0.50236 0.3223 0.0
C197 C 0.97468 0.56581 0.26368 0.0
C198 C 0.47911 0.0539 0.70327 0.0
C199 C 0.51951 1.02127 0.68388 0.0
H200 H 0.44382 0.09228 0.77657 0.0
C201 C 0.55697 1.00256 0.72801 0.0
H202 H 0.44901 0.06873 0.67106 0.0
C203 C 0.55432 1.01646 0.78945 0.0
C204 C 0.51358 0.04899 0.80857 0.0
H205 H 0.58923 0.97782 0.71536 0.0
H206 H 0.58397 1.00148 0.82188 0.0
C207 C 0.47598 0.06726 0.76424 0.0
C208 C 0.13158 0.53171 0.67871 0.0
C209 C 0.11039 0.57047 0.65094 0.0
H210 H 0.11995 0.48297 0.74211 0.0
C211 C 0.05873 0.59009 0.66763 0.0
H212 H 0.17271 0.51725 0.66847 0.0
C213 C 0.03034 0.57215 0.71222 0.0
C214 C 0.05189 0.53324 0.73973 0.0
H215 H 0.04258 0.62119 0.64852 0.0
H216 H 0.99224 0.5892 0.72593 0.0
C217 C 0.10175 0.51234 0.72126 0.0
C218 C 0.27408 0.6144 0.04724 0.0
C219 C 0.23794 0.57918 0.98996 0.0
H220 H 0.36747 0.64528 0.11296 0.0
C221 C 0.27112 0.55225 0.95174 0.0
H222 H 0.24979 0.63532 0.07771 0.0
C223 C 0.33851 0.55808 0.97159 0.0
C224 C 0.37371 0.59011 0.03053 0.0
H225 H 0.24434 0.52492 0.90711 0.0
H226 H 0.36221 0.53539 0.94199 0.0
C227 C 0.34126 0.61945 0.06752 0.0
C228 C 0.59039 0.36825 0.12471 0.0
C229 C 0.54738 0.39719 0.10169 0.0
H230 H 0.60747 0.28914 0.12553 0.0
C231 C 0.48618 0.36617 0.06136 0.0
H232 H 0.63811 0.39062 0.15541 0.0
C233 C 0.46868 0.30795 0.04407 0.0
C234 C 0.51206 0.27895 0.06626 0.0
H235 H 0.45155 0.38692 0.04315 0.0
H236 H 0.42155 0.28571 1.01228 0.0
C237 C 0.57309 0.30994 0.10701 0.0
C238 C 0.872 0.63752 0.0286 0.0
C239 C 0.86083 0.59908 0.97217 0.0
H240 H 0.82945 0.67471 0.09668 0.0
C241 C 0.79537 0.57297 0.93763 0.0
H242 H 0.92163 0.65814 0.05647 0.0
C243 C 0.74231 0.58231 0.96065 0.0
C244 C 0.75352 0.61774 0.01894 0.0
H245 H 0.785 0.54325 0.89375 0.0
H246 H 0.69272 0.55967 0.93402 0.0
C247 C 0.81895 0.6466 0.05178 0.0
C248 C 0.4919 0.80171 0.10339 0.0
C249 C 0.55912 0.8052 0.12099 0.0
H250 H 0.41923 0.84046 0.07014 0.0
C251 C 0.6056 0.85216 0.11926 0.0
H252 H 0.45535 0.76523 0.10363 0.0
C253 C 0.5851 0.89421 0.09817 0.0
C254 C 0.5177 0.89097 0.08027 0.0
H255 H 0.65757 0.85496 0.1315 0.0
H256 H 0.62219 0.92901 0.09553 0.0
C257 C 0.47138 0.84456 0.0841 0.0
loop_
_geom_bond_atom_site_label_1
_geom_bond_atom_site_label_2
_geom_bond_distance
_geom_bond_site_symmetry_2
_ccdc_geom_bond_type
Cu0 N1 1.999 . S
Cu0 O6 1.974 1_455 S
Cu0 N11 1.985 1_445 S
Cu0 O20 1.959 . S
N1 Cu0 1.999 . S
N1 C3 1.263 . S
N1 C5 1.389 . S
N2 C3 1.358 . S
N2 C4 1.400 . S
C3 N1 1.263 . S
C3 N2 1.358 . S
C3 H9 0.930 1_455 S
C4 N2 1.400 . S
C4 C5 1.351 . S
C4 H21 0.930 . S
C5 N1 1.389 . S
C5 C4 1.351 . S
C5 H10 0.930 . S
O6 Cu0 1.974 1_655 S
O6 C16 1.282 . S
C7 O8 1.261 . S
C7 O20 1.251 . S
O8 C7 1.261 . S
H9 C3 0.930 1_655 S
H10 C5 0.930 . S
N11 Cu0 1.985 1_665 S
N11 C13 1.335 1_655 S
N11 C14 1.390 . S
N12 C13 1.345 . S
N12 C15 1.336 1_455 S
C13 N11 1.335 1_455 S
C13 N12 1.345 . S
C13 H18 0.930 . S
C14 N11 1.390 . S
C14 C15 1.346 . S
C14 H19 0.930 . S
C15 N12 1.336 1_655 S
C15 C14 1.346 . S
C15 H22 0.929 . S
C16 O6 1.282 . S
C16 O17 1.216 . S
O17 C16 1.216 . S
H18 C13 0.930 . S
H19 C14 0.930 . S
O20 Cu0 1.959 . S
O20 C7 1.251 . S
H21 C4 0.930 . S
H22 C15 0.929 . S
Cu23 N24 1.999 1_545 S
Cu23 O29 1.974 . S
Cu23 N34 1.985 . S
Cu23 O43 1.959 1_554 S
N24 Cu23 1.999 1_565 S
N24 C26 1.263 . S
N24 C28 1.389 1_554 S
N25 C26 1.358 . S
N25 C27 1.400 1_554 S
C26 N24 1.263 . S
C26 N25 1.358 . S
C26 H32 0.930 . S
C27 N25 1.400 1_556 S
C27 C28 1.351 . S
C27 H44 0.930 . S
C28 N24 1.389 1_556 S
C28 C27 1.351 . S
C28 H33 0.930 . S
O29 Cu23 1.974 . S
O29 C39 1.282 . S
C30 O31 1.261 . S
C30 O43 1.251 . S
O31 C30 1.261 . S
H32 C26 0.930 . S
H33 C28 0.930 . S
N34 Cu23 1.985 . S
N34 C36 1.335 . S
N34 C37 1.390 . S
N35 C36 1.345 . S
N35 C38 1.336 . S
C36 N34 1.335 . S
C36 N35 1.345 . S
C36 H41 0.930 1_554 S
C37 N34 1.390 . S
C37 C38 1.346 . S
C37 H42 0.930 . S
C38 N35 1.336 . S
C38 C37 1.346 . S
C38 H45 0.929 . S
C39 O29 1.282 . S
C39 O40 1.216 . S
O40 C39 1.216 . S
H41 C36 0.930 1_556 S
H42 C37 0.930 . S
O43 Cu23 1.959 1_556 S
O43 C30 1.251 . S
H44 C27 0.930 . S
H45 C38 0.929 . S
Cu46 N47 1.999 1_554 S
Cu46 O52 1.974 . S
Cu46 N57 1.985 . S
Cu46 O66 1.959 1_455 S
N47 Cu46 1.999 1_556 S
N47 C49 1.263 . S
N47 C51 1.389 1_455 S
N48 C49 1.358 . S
N48 C50 1.400 1_455 S
C49 N47 1.263 . S
C49 N48 1.358 . S
C49 H55 0.930 . S
C50 N48 1.400 1_655 S
C50 C51 1.351 . S
C50 H67 0.930 . S
C51 N47 1.389 1_655 S
C51 C50 1.351 . S
C51 H56 0.930 . S
O52 Cu46 1.974 . S
O52 C62 1.282 . S
C53 O54 1.261 1_554 S
C53 O66 1.251 . S
O54 C53 1.261 1_556 S
H55 C49 0.930 . S
H56 C51 0.930 . S
N57 Cu46 1.985 . S
N57 C59 1.335 . S
N57 C60 1.390 . S
N58 C59 1.345 . S
N58 C61 1.336 . S
C59 N57 1.335 . S
C59 N58 1.345 . S
C59 H64 0.930 1_455 S
C60 N57 1.390 . S
C60 C61 1.346 . S
C60 H65 0.930 . S
C61 N58 1.336 . S
C61 C60 1.346 . S
C61 H68 0.929 . S
C62 O52 1.282 . S
C62 O63 1.216 1_554 S
O63 C62 1.216 1_556 S
H64 C59 0.930 1_655 S
H65 C60 0.930 . S
O66 Cu46 1.959 1_655 S
O66 C53 1.251 . S
H67 C50 0.930 . S
H68 C61 0.929 . S
Cu69 N70 1.999 . S
Cu69 O75 1.974 . S
Cu69 N80 1.985 . S
Cu69 O89 1.959 . S
N70 Cu69 1.999 . S
N70 C72 1.263 . S
N70 C74 1.389 . S
N71 C72 1.358 . S
N71 C73 1.400 . S
C72 N70 1.263 . S
C72 N71 1.358 . S
C72 H78 0.930 1_556 S
C73 N71 1.400 . S
C73 C74 1.351 . S
C73 H90 0.930 . S
C74 N70 1.389 . S
C74 C73 1.351 . S
C74 H79 0.930 . S
O75 Cu69 1.974 . S
O75 C85 1.282 1_556 S
C76 O77 1.261 . S
C76 O89 1.251 1_554 S
O77 C76 1.261 . S
H78 C72 0.930 1_554 S
H79 C74 0.930 . S
N80 Cu69 1.985 . S
N80 C82 1.335 . S
N80 C83 1.390 1_556 S
N81 C82 1.345 . S
N81 C84 1.336 1_556 S
C82 N80 1.335 . S
C82 N81 1.345 . S
C82 H87 0.930 . S
C83 N80 1.390 1_554 S
C83 C84 1.346 . S
C83 H88 0.930 . S
C84 N81 1.336 1_554 S
C84 C83 1.346 . S
C84 H91 0.929 . S
C85 O75 1.282 1_554 S
C85 O86 1.216 . S
O86 C85 1.216 . S
H87 C82 0.930 . S
H88 C83 0.930 . S
O89 Cu69 1.959 . S
O89 C76 1.251 1_556 S
H90 C73 0.930 . S
H91 C84 0.929 . S
Cu92 N93 1.999 . S
Cu92 O98 1.974 . S
Cu92 N103 1.985 . S
Cu92 O112 1.959 . S
N93 Cu92 1.999 . S
N93 C95 1.263 . S
N93 C97 1.389 . S
N94 C95 1.358 . S
N94 C96 1.400 . S
C95 N93 1.263 . S
C95 N94 1.358 . S
C95 H101 0.930 . S
C96 N94 1.400 . S
C96 C97 1.351 . S
C96 H113 0.930 . S
C97 N93 1.389 . S
C97 C96 1.351 . S
C97 H102 0.930 . S
O98 Cu92 1.974 . S
O98 C108 1.282 1_455 S
C99 O100 1.258 1_455 S
C99 O112 1.254 . S
O100 C99 1.258 1_655 S
H101 C95 0.930 . S
H102 C97 0.930 . S
N103 Cu92 1.985 . S
N103 C105 1.335 . S
N103 C106 1.390 . S
N104 C105 1.345 . S
N104 C107 1.336 . S
C105 N103 1.335 . S
C105 N104 1.345 . S
C105 H110 0.930 . S
C106 N103 1.390 . S
C106 C107 1.346 . S
C106 H111 0.930 1_455 S
C107 N104 1.336 . S
C107 C106 1.346 . S
C107 H114 0.929 1_455 S
C108 O98 1.282 1_655 S
C108 O109 1.216 . S
O109 C108 1.216 . S
H110 C105 0.930 . S
H111 C106 0.930 1_655 S
O112 Cu92 1.959 . S
O112 C99 1.254 . S
H113 C96 0.930 . S
H114 C107 0.929 1_655 S
Cu115 N116 1.999 . S
Cu115 O121 1.974 . S
Cu115 N126 1.985 . S
Cu115 O135 1.959 . S
N116 Cu115 1.999 . S
N116 C118 1.263 . S
N116 C120 1.389 . S
N117 C118 1.358 . S
N117 C119 1.400 . S
C118 N116 1.263 . S
C118 N117 1.358 . S
C118 H124 0.930 . S
C119 N117 1.400 . S
C119 C120 1.351 . S
C119 H136 0.930 . S
C120 N116 1.389 . S
C120 C119 1.351 . S
C120 H125 0.930 . S
O121 Cu115 1.974 . S
O121 C131 1.282 . S
C122 O123 1.261 1_545 S
C122 O135 1.251 . S
O123 C122 1.261 1_565 S
H124 C118 0.930 . S
H125 C120 0.930 . S
N126 Cu115 1.985 . S
N126 C128 1.335 . S
N126 C129 1.390 . S
N127 C128 1.345 . S
N127 C130 1.336 . S
C128 N126 1.335 . S
C128 N127 1.345 . S
C128 H133 0.930 . S
C129 N126 1.390 . S
C129 C130 1.346 . S
C129 H134 0.930 . S
C130 N127 1.336 . S
C130 C129 1.346 . S
C130 H137 0.929 . S
C131 O121 1.282 . S
C131 O132 1.216 1_545 S
O132 C131 1.216 1_565 S
H133 C128 0.930 . S
H134 C129 0.930 . S
O135 Cu115 1.959 . S
O135 C122 1.251 . S
H136 C119 0.930 . S
H137 C130 0.929 . S
C138 C139 1.387 . S
C138 H142 0.950 . S
C138 C147 1.390 . S
C139 C138 1.387 . S
C139 C141 1.387 . S
H140 C147 0.950 . S
C141 C139 1.387 . S
C141 C143 1.390 . S
C141 H145 0.950 1_455 S
H142 C138 0.950 . S
C143 C141 1.390 . S
C143 C144 1.387 . S
C143 H146 0.950 . S
C144 C143 1.387 . S
C144 C147 1.387 . S
H145 C141 0.950 1_655 S
H146 C143 0.950 . S
C147 C138 1.390 . S
C147 H140 0.950 . S
C147 C144 1.387 . S
C148 C149 1.387 . S
C148 H152 0.950 . S
C148 C157 1.390 . S
C149 C148 1.387 . S
C149 C151 1.387 1_545 S
H150 C157 0.950 . S
C151 C149 1.387 1_565 S
C151 C153 1.390 . S
C151 H155 0.950 . S
H152 C148 0.950 . S
C153 C151 1.390 . S
C153 C154 1.387 1_565 S
C153 H156 0.950 . S
C154 C153 1.387 1_545 S
C154 C157 1.387 . S
H155 C151 0.950 . S
H156 C153 0.950 . S
C157 C148 1.390 . S
C157 H150 0.950 . S
C157 C154 1.387 . S
C158 C159 1.387 1_655 S
C158 H162 0.950 . S
C158 C167 1.390 . S
C159 C158 1.387 1_455 S
C159 C161 1.387 . S
H160 C167 0.950 . S
C161 C159 1.387 . S
C161 C163 1.390 . S
C161 H165 0.950 . S
H162 C158 0.950 . S
C163 C161 1.390 . S
C163 C164 1.387 . S
C163 H166 0.950 . S
C164 C163 1.387 . S
C164 C167 1.387 1_455 S
H165 C161 0.950 . S
H166 C163 0.950 . S
C167 C158 1.390 . S
C167 H160 0.950 . S
C167 C164 1.387 1_655 S
C168 C169 1.387 1_565 S
C168 H172 0.950 . S
C168 C177 1.390 1_565 S
C169 C168 1.387 1_545 S
C169 C171 1.387 . S
H170 C177 0.950 1_565 S
C171 C169 1.387 . S
C171 C173 1.390 . S
C171 H175 0.950 . S
H172 C168 0.950 . S
C173 C171 1.390 . S
C173 C174 1.387 . S
C173 H176 0.950 . S
C174 C173 1.387 . S
C174 C177 1.387 . S
H175 C171 0.950 . S
H176 C173 0.950 . S
C177 C168 1.390 1_545 S
C177 H170 0.950 1_545 S
C177 C174 1.387 . S
C178 C179 1.387 . S
C178 H182 0.950 . S
C178 C187 1.390 . S
C179 C178 1.387 . S
C179 C181 1.387 . S
H180 C187 0.950 . S
C181 C179 1.387 . S
C181 C183 1.390 1_545 S
C181 H185 0.950 1_545 S
H182 C178 0.950 . S
C183 C181 1.390 1_565 S
C183 C184 1.387 1_565 S
C183 H186 0.950 . S
C184 C183 1.387 1_545 S
C184 C187 1.387 . S
H185 C181 0.950 1_565 S
H186 C183 0.950 . S
C187 C178 1.390 . S
C187 H180 0.950 . S
C187 C184 1.387 . S
C188 C189 1.387 1_655 S
C188 H192 0.950 . S
C188 C197 1.390 . S
C189 C188 1.387 1_455 S
C189 C191 1.387 . S
H190 C197 0.950 . S
C191 C189 1.387 . S
C191 C193 1.390 . S
C191 H195 0.950 . S
H192 C188 0.950 . S
C193 C191 1.390 . S
C193 C194 1.387 . S
C193 H196 0.950 . S
C194 C193 1.387 . S
C194 C197 1.387 1_455 S
H195 C191 0.950 . S
H196 C193 0.950 . S
C197 C188 1.390 . S
C197 H190 0.950 . S
C197 C194 1.387 1_655 S
C198 C199 1.387 . S
C198 H202 0.950 . S
C198 C207 1.390 . S
C199 C198 1.387 . S
C199 C201 1.387 . S
H200 C207 0.950 . S
C201 C199 1.387 . S
C201 C203 1.389 1_545 S
C201 H205 0.950 1_545 S
H202 C198 0.950 . S
C203 C201 1.389 1_565 S
C203 C204 1.386 1_565 S
C203 H206 0.953 . S
C204 C203 1.386 1_545 S
C204 C207 1.387 . S
H205 C201 0.950 1_565 S
H206 C203 0.953 . S
C207 C198 1.390 . S
C207 H200 0.950 . S
C207 C204 1.387 . S
C208 C209 1.387 . S
C208 H212 0.952 1_455 S
C208 C217 1.390 . S
C209 C208 1.387 . S
C209 C211 1.387 . S
H210 C217 0.950 . S
C211 C209 1.387 . S
C211 C213 1.390 . S
C211 H215 0.950 . S
H212 C208 0.952 1_655 S
C213 C211 1.390 . S
C213 C214 1.387 . S
C213 H216 0.950 . S
C214 C213 1.387 . S
C214 C217 1.387 . S
H215 C211 0.950 . S
H216 C213 0.950 . S
C217 C208 1.390 . S
C217 H210 0.950 . S
C217 C214 1.387 . S
C218 C219 1.387 . S
C218 H222 0.950 . S
C218 C227 1.390 . S
C219 C218 1.387 . S
C219 C221 1.387 1_554 S
H220 C227 0.950 . S
C221 C219 1.387 1_556 S
C221 C223 1.390 . S
C221 H225 0.950 . S
H222 C218 0.950 . S
C223 C221 1.390 . S
C223 C224 1.387 1_556 S
C223 H226 0.950 . S
C224 C223 1.387 1_554 S
C224 C227 1.387 . S
H225 C221 0.950 . S
H226 C223 0.950 . S
C227 C218 1.390 . S
C227 H220 0.950 . S
C227 C224 1.387 . S
C228 C229 1.387 1_554 S
C228 H232 0.950 . S
C228 C237 1.390 . S
C229 C228 1.387 1_556 S
C229 C231 1.387 . S
H230 C237 0.950 . S
C231 C229 1.387 . S
C231 C233 1.390 . S
C231 H235 0.950 . S
H232 C228 0.950 . S
C233 C231 1.390 . S
C233 C234 1.387 1_556 S
C233 H236 0.950 . S
C234 C233 1.387 1_554 S
C234 C237 1.387 . S
H235 C231 0.950 . S
H236 C233 0.950 . S
C237 C228 1.390 . S
C237 H230 0.950 . S
C237 C234 1.387 . S
C238 C239 1.387 . S
C238 H242 0.950 1_554 S
C238 C247 1.390 . S
C239 C238 1.387 . S
C239 C241 1.387 . S
H240 C247 0.950 . S
C241 C239 1.387 . S
C241 C243 1.390 . S
C241 H245 0.950 . S
H242 C238 0.950 1_556 S
C243 C241 1.390 . S
C243 C244 1.387 . S
C243 H246 0.950 . S
C244 C243 1.387 . S
C244 C247 1.387 . S
H245 C241 0.950 . S
H246 C243 0.950 . S
C247 C238 1.390 . S
C247 H240 0.950 . S
C247 C244 1.387 . S
C248 C249 1.387 . S
C248 H252 0.950 . S
C248 C257 1.390 . S
C249 C248 1.387 . S
C249 C251 1.387 1_556 S
H250 C257 0.950 . S
C251 C249 1.387 1_554 S
C251 C253 1.390 . S
C251 H255 0.950 . S
H252 C248 0.950 . S
C253 C251 1.390 . S
C253 C254 1.387 . S
C253 H256 0.950 . S
C254 C253 1.387 . S
C254 C257 1.387 1_554 S
H255 C251 0.950 . S
H256 C253 0.950 . S
C257 C248 1.390 . S
C257 H250 0.950 . S
C257 C254 1.387 1_556 S
C139 N2 1.507 . S
C144 N94 1.498 . S
C149 C16 1.489 . S
C154 C131 1.493 . S
C159 N104 1.480 . S
C164 N12 1.471 . S
C169 C122 1.533 . S
C174 C7 1.534 . S
C179 N117 1.484 . S
C184 C39 1.508 . S
C189 N58 1.485 . S
C194 C99 1.520 . S
C199 N127 1.484 . S
C204 C30 1.519 . S
C209 C108 1.507 1_455 S
C214 N48 1.485 . S
C219 C62 1.493 . S
C224 C85 1.489 . S
C229 N81 1.474 . S
C234 N35 1.478 . S
C239 C53 1.532 . S
C244 C76 1.533 . S
C249 N71 1.505 . S
C254 N25 1.500 . S
