# Generated by pormake.
# Topology qtz, (4)-cn, num edge types: 1
# Building blocks:
#     Node 0, Type 0, BuildingBlock: QUQFOY_clean_sbu_1, # of connection points: 4
#     Node 1, Type 0, BuildingBlock: QUQFOY_clean_sbu_1, # of connection points: 4
#     Node 2, Type 0, BuildingBlock: QUQFOY_clean_sbu_1, # of connection points: 4
#     Edge 3, Type (0, 0), BuildingBlock: FUNLAD_clean_linker_1, # of connection points: 2
#     Edge 4, Type (0, 0), BuildingBlock: FUNLAD_clean_linker_1, # of connection points: 2
#     Edge 5, Type (0, 0), BuildingBlock: FUNLAD_clean_linker_1, # of connection points: 2
#     Edge 6, Type (0, 0), BuildingBlock: FUNLAD_clean_linker_1, # of connection points: 2
#     Edge 7, Type (0, 0), BuildingBlock: FUNLAD_clean_linker_1, # of connection points: 2
#     Edge 8, Type (0, 0), BuildingBlock: FUNLAD_clean_linker_1, # of connection points: 2
# Relax obj value: 0.038
# Max RMSD: 0.133
# Mean RMSD: 0.103
data_MOF--net-qtz--node1-QUQFOY_clean_sbu_1--edge1-FUNLAD_clean_linker_1
_symmetry_space_group_name_H-M    P1
_symmetry_Int_Tables_number       1
_symmetry_cell_setting            triclinic
loop_
_symmetry_equiv_pos_as_xyz
'x, y, z'
_cell_length_a     23.340027
_cell_length_b     26.669777
_cell_length_c     30.356429
_cell_angle_alpha  90.429035
_cell_angle_beta   89.577408
_cell_angle_gamma 120.58116
loop_
_atom_site_label
_atom_site_type_symbol
_atom_site_fract_x
_atom_site_fract_y
_atom_site_fract_z
_atom_type_partial_charge
O0 O 0.9176 0.47531 0.13835 0.0
Cd1 Cd 0.97705 0.46604 0.18402 0.0
Cd2 Cd 0.04041 0.58188 0.18173 0.0
O3 O 0.95533 0.56864 0.1512 0.0
O4 O 0.92389 0.38692 0.21074 0.0
O5 O 0.95778 0.46894 0.24805 0.0
C6 C 0.92577 0.4128 0.24728 0.0
C7 C 0.08022 0.64005 0.24441 0.0
C8 C 0.91433 0.52097 0.13254 0.0
C9 C 0.11012 0.52317 0.14304 0.0
O10 O 0.10625 0.56901 0.14415 0.0
O11 O 0.06646 0.477 0.16199 0.0
O12 O 0.09154 0.66303 0.20571 0.0
O13 O 0.04548 0.58412 0.24753 0.0
O14 O 0.56692 0.10299 0.47911 0.0
Cd15 Cd 0.48189 0.04771 0.51444 0.0
Cd16 Cd 0.54272 0.98487 0.51648 0.0
O17 O 0.62392 0.05942 0.49242 0.0
O18 O 0.44466 0.09684 0.53468 0.0
O19 O 0.4839 0.05698 0.58021 0.0
C20 C 0.45888 0.08988 0.57433 0.0
C21 C 0.54931 0.93414 0.57646 0.0
C22 C 0.62033 0.10138 0.47599 0.0
C23 C 0.41664 0.93616 0.46448 0.0
O24 O 0.46951 0.93511 0.47169 0.0
O25 O 0.40774 0.97527 0.48184 0.0
O26 O 0.57544 0.93383 0.53894 0.0
O27 O 0.52159 0.96528 0.58053 0.0
O28 O 0.47253 0.55871 0.89362 0.0
Cd29 Cd 0.54393 0.5717 0.8468 0.0
Cd30 Cd 0.4704 0.45644 0.84513 0.0
O31 O 0.39794 0.47 0.87178 0.0
O32 O 0.59227 0.65654 0.83289 0.0
O33 O 0.52862 0.58812 0.78469 0.0
C34 C 0.56631 0.64269 0.79422 0.0
C35 C 0.45266 0.39815 0.78341 0.0
C36 C 0.41367 0.51501 0.89493 0.0
C37 C 0.60387 0.5091 0.88595 0.0
O38 O 0.54474 0.46604 0.88701 0.0
O39 O 0.61744 0.55462 0.8647 0.0
O40 O 0.4292 0.37548 0.8215 0.0
O41 O 0.48386 0.4542 0.77992 0.0
H42 H 0.31156 0.49002 0.91503 0.0
C43 C 0.36363 0.51553 0.92438 0.0
H44 H 0.43285 0.56789 0.97282 0.0
H45 H 0.27002 0.65872 0.07481 0.0
H46 H 0.36689 0.74784 0.0501 0.0
H47 H 0.44726 0.74523 0.99835 0.0
H48 H 0.43191 0.65351 0.97167 0.0
C49 C 0.38071 0.54335 0.96346 0.0
C50 C 0.33078 0.54415 0.99405 0.0
C51 C 0.33948 0.59839 1.00831 0.0
C52 C 0.29185 0.59997 0.03693 0.0
C53 C 0.30344 0.65478 0.05209 0.0
C54 C 0.35907 0.70642 0.0383 0.0
C55 C 0.40438 0.70494 1.00926 0.0
C56 C 0.39499 0.65179 0.99431 0.0
H57 H 0.18113 0.49381 0.12787 0.0
C58 C 0.16298 0.52201 0.11715 0.0
H59 H 0.16391 0.57736 0.06773 0.0
H60 H 0.30654 0.43255 0.98299 0.0
H61 H 0.20495 0.34347 1.00193 0.0
H62 H 0.1124 0.34662 0.039 0.0
H63 H 0.12244 0.43867 0.05924 0.0
C64 C 0.18352 0.55025 0.07854 0.0
C65 C 0.23404 0.54743 0.04984 0.0
C66 C 0.22433 0.49318 0.03443 0.0
C67 C 0.27468 0.49148 1.00889 0.0
C68 C 0.2676 0.43658 0.99906 0.0
C69 C 0.20981 0.38501 1.01023 0.0
C70 C 0.15794 0.38677 0.03138 0.0
C71 C 0.16477 0.44005 0.04335 0.0
H72 H 0.88612 0.40357 0.3148 0.0
C73 C 0.88954 0.37964 0.28674 0.0
H74 H 0.85986 0.297 0.25955 0.0
H75 H 0.78475 0.24729 0.47454 0.0
H76 H 0.90341 0.3065 0.48792 0.0
H77 H 0.98202 0.35577 0.42665 0.0
H78 H 0.94235 0.34708 0.35178 0.0
C79 C 0.8581 0.32124 0.28797 0.0
C80 C 0.81231 0.2878 0.32484 0.0
C81 C 0.83673 0.29145 0.36814 0.0
C82 C 0.79171 0.26076 0.40318 0.0
C83 C 0.81697 0.26775 0.44646 0.0
C84 C 0.88494 0.30191 0.45465 0.0
C85 C 0.92918 0.32983 0.42017 0.0
C86 C 0.90567 0.32477 0.37737 0.0
H87 H 0.7172 0.13761 0.44194 0.0
C88 C 0.67639 0.14501 0.44918 0.0
H89 H 0.63343 0.19637 0.43622 0.0
H90 H 0.74874 0.27208 0.24587 0.0
H91 H 0.63092 0.20955 0.232 0.0
H92 H 0.55375 0.15214 0.29189 0.0
H93 H 0.59384 0.15738 0.36604 0.0
C94 C 0.67509 0.18976 0.43015 0.0
C95 C 0.7228 0.22438 0.39446 0.0
C96 C 0.69858 0.22008 0.35103 0.0
C97 C 0.74328 0.25211 0.31629 0.0
C98 C 0.71738 0.24793 0.27343 0.0
C99 C 0.64971 0.21228 0.26496 0.0
C100 C 0.60626 0.18005 0.29868 0.0
C101 C 0.63006 0.18367 0.34121 0.0
H102 H 0.51038 0.88674 0.63897 0.0
C103 C 0.54623 0.89618 0.61264 0.0
H104 H 0.61826 0.87971 0.58543 0.0
H105 H 0.53905 0.7602 0.7886 0.0
H106 H 0.57174 0.85629 0.81667 0.0
H107 H 0.61008 0.93958 0.76625 0.0
H108 H 0.61315 0.92655 0.68738 0.0
C109 C 0.58301 0.87037 0.61214 0.0
C110 C 0.57106 0.82314 0.64364 0.0
C111 C 0.57514 0.8327 0.68989 0.0
C112 C 0.55891 0.78583 0.71921 0.0
C113 C 0.55583 0.79508 0.76498 0.0
C114 C 0.57374 0.84996 0.78155 0.0
C115 C 0.59489 0.89674 0.75316 0.0
C116 C 0.59574 0.8885 0.70786 0.0
H117 H 0.62468 0.73074 0.76629 0.0
C118 C 0.57908 0.68891 0.76262 0.0
H119 H 0.48772 0.64108 0.72945 0.0
H120 H 0.55521 0.78827 0.55696 0.0
H121 H 0.53077 0.69423 0.52922 0.0
H122 H 0.51476 0.61636 0.58 0.0
H123 H 0.52193 0.63183 0.65891 0.0
C124 C 0.53374 0.68267 0.73271 0.0
C125 C 0.54547 0.73098 0.70239 0.0
C126 C 0.54313 0.72187 0.65619 0.0
C127 C 0.55469 0.76754 0.62685 0.0
C128 C 0.54899 0.75605 0.5809 0.0
C129 C 0.53463 0.70202 0.56442 0.0
C130 C 0.52546 0.65815 0.593 0.0
C131 C 0.52957 0.66766 0.63832 0.0
H132 H 0.70724 0.53228 0.89947 0.0
C133 C 0.65638 0.50816 0.91171 0.0
H134 H 0.59247 0.46051 0.96404 0.0
H135 H 0.76041 0.37722 0.06433 0.0
H136 H 0.66257 0.28629 0.04362 0.0
H137 H 0.58011 0.28471 0.99245 0.0
H138 H 0.59439 0.37419 0.96237 0.0
C139 C 0.64339 0.4835 0.95176 0.0
C140 C 0.69615 0.4851 0.98023 0.0
C141 C 0.68828 0.43209 0.99628 0.0
C142 C 0.73705 0.43283 0.02458 0.0
C143 C 0.72606 0.37936 0.0418 0.0
C144 C 0.6699 0.32669 0.03029 0.0
C145 C 0.62342 0.32581 1.00157 0.0
C146 C 0.63219 0.37767 0.98466 0.0
H147 H 0.84533 0.54881 0.1101 0.0
C148 C 0.86383 0.51953 0.10308 0.0
H149 H 0.86444 0.4584 0.05906 0.0
H150 H 0.72094 0.59613 0.96456 0.0
H151 H 0.82413 0.68611 0.97839 0.0
H152 H 0.91825 0.68541 1.01424 0.0
H153 H 0.90806 0.59486 0.03849 0.0
C154 C 0.84471 0.48675 0.06627 0.0
C155 C 0.79511 0.4864 0.03532 0.0
C156 C 0.8048 0.53911 1.0171 0.0
C157 C 0.7534 0.53887 0.99208 0.0
C158 C 0.76053 0.59304 0.98008 0.0
C159 C 0.81928 0.64523 0.98837 0.0
C160 C 0.87204 0.64489 1.00884 0.0
C161 C 0.86519 0.5926 0.02309 0.0
H162 H 0.38388 0.86824 0.41375 0.0
C163 C 0.36767 0.89272 0.43384 0.0
H164 H 0.28853 0.90667 0.44916 0.0
H165 H 0.14619 0.81554 0.26493 0.0
H166 H 0.16336 0.91302 0.26915 0.0
H167 H 0.22594 0.97871 0.33071 0.0
H168 H 0.27075 0.94704 0.38876 0.0
C169 C 0.30521 0.88216 0.42962 0.0
C170 C 0.25995 0.84005 0.39565 0.0
C171 C 0.2346 0.85955 0.36174 0.0
C172 C 0.20006 0.82219 0.32559 0.0
C173 C 0.17414 0.84245 0.29263 0.0
C174 C 0.18342 0.89829 0.2947 0.0
C175 C 0.21855 0.93523 0.32939 0.0
C176 C 0.24402 0.9164 0.36256 0.0
H177 H 0.0855 0.65711 0.31592 0.0
C178 C 0.10755 0.6762 0.28426 0.0
H179 H 0.18368 0.74872 0.2508 0.0
H180 H 0.28393 0.78304 0.46105 0.0
H181 H 0.2722 0.68738 0.4557 0.0
H182 H 0.22961 0.62874 0.38776 0.0
H183 H 0.19592 0.66411 0.32585 0.0
C184 C 0.16173 0.72976 0.28253 0.0
C185 C 0.19252 0.76598 0.32272 0.0
C186 C 0.21682 0.74608 0.35719 0.0
C187 C 0.24713 0.782 0.39473 0.0
C188 C 0.26481 0.759 0.4306 0.0
C189 C 0.25779 0.70401 0.42812 0.0
C190 C 0.23342 0.67087 0.39 0.0
C191 C 0.21338 0.6915 0.35481 0.0
H192 H 0.46455 0.38196 0.71331 0.0
C193 C 0.44767 0.3614 0.7453 0.0
H194 H 0.41092 0.2838 0.78182 0.0
H195 H 0.30525 0.10586 0.62405 0.0
H196 H 0.20173 0.08472 0.65948 0.0
H197 H 0.20101 0.14765 0.71919 0.0
H198 H 0.30368 0.23199 0.74399 0.0
C199 C 0.42836 0.3048 0.75003 0.0
C200 C 0.42914 0.26846 0.71267 0.0
C201 C 0.36858 0.21956 0.69831 0.0
C202 C 0.36885 0.18355 0.66356 0.0
C203 C 0.30773 0.13482 0.65011 0.0
C204 C 0.248 0.12218 0.67017 0.0
C205 C 0.2476 0.15758 0.70382 0.0
C206 C 0.30697 0.2058 0.71781 0.0
H207 H 0.46682 0.1165 0.64418 0.0
C208 C 0.45098 0.12156 0.61177 0.0
H209 H 0.41281 0.16451 0.57421 0.0
H210 H 0.55562 0.35379 0.73587 0.0
H211 H 0.65817 0.37608 0.69904 0.0
H212 H 0.65744 0.31784 0.63532 0.0
H213 H 0.5541 0.23618 0.60868 0.0
C214 C 0.42957 0.15934 0.60625 0.0
C215 C 0.42958 0.19643 0.64316 0.0
C216 C 0.49016 0.24548 0.65726 0.0
C217 C 0.49018 0.28075 0.69271 0.0
C218 C 0.552 0.32716 0.70782 0.0
C219 C 0.61149 0.34017 0.68721 0.0
C220 C 0.61112 0.30727 0.65144 0.0
C221 C 0.55138 0.26037 0.63657 0.0
loop_
_geom_bond_atom_site_label_1
_geom_bond_atom_site_label_2
_geom_bond_distance
_geom_bond_site_symmetry_2
_ccdc_geom_bond_type
O0 Cd1 2.223 . S
O0 C8 1.315 . S
Cd1 O0 2.223 . S
Cd1 O4 2.297 . S
Cd1 O5 2.439 . S
Cd1 O11 2.240 1_655 S
Cd2 O3 2.240 1_455 S
Cd2 O10 2.223 . S
Cd2 O12 2.297 . S
Cd2 O13 2.439 . S
O3 Cd2 2.240 1_655 S
O3 C8 1.279 . S
O4 Cd1 2.297 . S
O4 C6 1.247 . S
O5 Cd1 2.439 . S
O5 C6 1.208 . S
C6 O4 1.247 . S
C6 O5 1.208 . S
C7 O12 1.247 . S
C7 O13 1.208 . S
C8 O0 1.315 . S
C8 O3 1.279 . S
C9 O10 1.315 . S
C9 O11 1.279 . S
O10 Cd2 2.223 . S
O10 C9 1.315 . S
O11 Cd1 2.240 1_455 S
O11 C9 1.279 . S
O12 Cd2 2.297 . S
O12 C7 1.247 . S
O13 Cd2 2.439 . S
O13 C7 1.208 . S
O14 Cd15 2.223 . S
O14 C22 1.315 . S
Cd15 O14 2.223 . S
Cd15 O18 2.297 . S
Cd15 O19 2.439 . S
Cd15 O25 2.240 1_545 S
Cd16 O17 2.240 1_565 S
Cd16 O24 2.223 . S
Cd16 O26 2.297 . S
Cd16 O27 2.439 . S
O17 Cd16 2.240 1_545 S
O17 C22 1.279 . S
O18 Cd15 2.297 . S
O18 C20 1.247 . S
O19 Cd15 2.439 . S
O19 C20 1.208 . S
C20 O18 1.247 . S
C20 O19 1.208 . S
C21 O26 1.247 . S
C21 O27 1.208 . S
C22 O14 1.315 . S
C22 O17 1.279 . S
C23 O24 1.315 . S
C23 O25 1.279 . S
O24 Cd16 2.223 . S
O24 C23 1.315 . S
O25 Cd15 2.240 1_565 S
O25 C23 1.279 . S
O26 Cd16 2.297 . S
O26 C21 1.247 . S
O27 Cd16 2.439 . S
O27 C21 1.208 . S
O28 Cd29 2.223 . S
O28 C36 1.315 . S
Cd29 O28 2.223 . S
Cd29 O32 2.297 . S
Cd29 O33 2.439 . S
Cd29 O39 2.240 . S
Cd30 O31 2.240 . S
Cd30 O38 2.223 . S
Cd30 O40 2.297 . S
Cd30 O41 2.439 . S
O31 Cd30 2.240 . S
O31 C36 1.279 . S
O32 Cd29 2.297 . S
O32 C34 1.247 . S
O33 Cd29 2.439 . S
O33 C34 1.208 . S
C34 O32 1.247 . S
C34 O33 1.208 . S
C35 O40 1.247 . S
C35 O41 1.208 . S
C36 O28 1.315 . S
C36 O31 1.279 . S
C37 O38 1.315 . S
C37 O39 1.279 . S
O38 Cd30 2.223 . S
O38 C37 1.315 . S
O39 Cd29 2.240 . S
O39 C37 1.279 . S
O40 Cd30 2.297 . S
O40 C35 1.247 . S
O41 Cd30 2.439 . S
O41 C35 1.208 . S
H42 C43 0.951 . S
C43 H42 0.951 . S
C43 C49 1.265 . S
H44 C49 0.950 . S
H45 C53 0.949 . S
H46 C54 0.950 . S
H47 C55 0.951 . S
H48 C56 0.951 . S
C49 C43 1.265 . S
C49 H44 0.950 . S
C49 C50 1.478 . S
C50 C49 1.478 . S
C50 C51 1.397 . S
C50 C67 1.394 . S
C51 C50 1.397 . S
C51 C52 1.438 1_556 S
C51 C56 1.429 . S
C52 C51 1.438 1_554 S
C52 C53 1.428 . S
C52 C65 1.394 . S
C53 H45 0.949 . S
C53 C52 1.428 . S
C53 C54 1.345 . S
C54 H46 0.950 . S
C54 C53 1.345 . S
C54 C55 1.424 . S
C55 H47 0.951 . S
C55 C54 1.424 . S
C55 C56 1.347 1_554 S
C56 H48 0.951 . S
C56 C51 1.429 . S
C56 C55 1.347 1_556 S
H57 C58 0.951 . S
C58 H57 0.951 . S
C58 C64 1.265 . S
H59 C64 0.950 . S
H60 C68 0.949 . S
H61 C69 0.950 . S
H62 C70 0.951 . S
H63 C71 0.952 1_554 S
C64 C58 1.265 . S
C64 H59 0.950 . S
C64 C65 1.478 . S
C65 C52 1.394 . S
C65 C64 1.478 . S
C65 C66 1.384 1_554 S
C66 C65 1.384 1_556 S
C66 C67 1.452 . S
C66 C71 1.429 . S
C67 C50 1.394 . S
C67 C66 1.452 . S
C67 C68 1.428 . S
C68 H60 0.949 . S
C68 C67 1.428 . S
C68 C69 1.345 . S
C69 H61 0.950 . S
C69 C68 1.345 . S
C69 C70 1.424 . S
C70 H62 0.951 . S
C70 C69 1.424 . S
C70 C71 1.346 . S
C71 H63 0.952 1_556 S
C71 C66 1.429 . S
C71 C70 1.346 . S
H72 C73 0.951 . S
C73 H72 0.951 . S
C73 C79 1.265 . S
H74 C79 0.950 . S
H75 C83 0.949 . S
H76 C84 0.950 . S
H77 C85 0.951 . S
H78 C86 0.951 . S
C79 C73 1.265 . S
C79 H74 0.950 . S
C79 C80 1.478 . S
C80 C79 1.478 . S
C80 C81 1.397 . S
C80 C97 1.394 . S
C81 C80 1.397 . S
C81 C82 1.438 . S
C81 C86 1.429 . S
C82 C81 1.438 . S
C82 C83 1.428 . S
C82 C95 1.394 . S
C83 H75 0.949 . S
C83 C82 1.428 . S
C83 C84 1.345 . S
C84 H76 0.950 . S
C84 C83 1.345 . S
C84 C85 1.424 . S
C85 H77 0.951 . S
C85 C84 1.424 . S
C85 C86 1.347 . S
C86 H78 0.951 . S
C86 C81 1.429 . S
C86 C85 1.347 . S
H87 C88 0.951 . S
C88 H87 0.951 . S
C88 C94 1.265 . S
H89 C94 0.950 . S
H90 C98 0.949 . S
H91 C99 0.950 . S
H92 C100 0.951 . S
H93 C101 0.951 . S
C94 C88 1.265 . S
C94 H89 0.950 . S
C94 C95 1.478 . S
C95 C82 1.394 . S
C95 C94 1.478 . S
C95 C96 1.397 . S
C96 C95 1.397 . S
C96 C97 1.438 . S
C96 C101 1.429 . S
C97 C80 1.394 . S
C97 C96 1.438 . S
C97 C98 1.428 . S
C98 H90 0.949 . S
C98 C97 1.428 . S
C98 C99 1.345 . S
C99 H91 0.950 . S
C99 C98 1.345 . S
C99 C100 1.424 . S
C100 H92 0.951 . S
C100 C99 1.424 . S
C100 C101 1.347 . S
C101 H93 0.951 . S
C101 C96 1.429 . S
C101 C100 1.347 . S
H102 C103 0.951 . S
C103 H102 0.951 . S
C103 C109 1.265 . S
H104 C109 0.950 . S
H105 C113 0.949 . S
H106 C114 0.950 . S
H107 C115 0.951 . S
H108 C116 0.951 . S
C109 C103 1.265 . S
C109 H104 0.950 . S
C109 C110 1.478 . S
C110 C109 1.478 . S
C110 C111 1.397 . S
C110 C127 1.394 . S
C111 C110 1.397 . S
C111 C112 1.438 . S
C111 C116 1.429 . S
C112 C111 1.438 . S
C112 C113 1.428 . S
C112 C125 1.394 . S
C113 H105 0.949 . S
C113 C112 1.428 . S
C113 C114 1.345 . S
C114 H106 0.950 . S
C114 C113 1.345 . S
C114 C115 1.424 . S
C115 H107 0.951 . S
C115 C114 1.424 . S
C115 C116 1.347 . S
C116 H108 0.951 . S
C116 C111 1.429 . S
C116 C115 1.347 . S
H117 C118 0.951 . S
C118 H117 0.951 . S
C118 C124 1.265 . S
H119 C124 0.950 . S
H120 C128 0.949 . S
H121 C129 0.950 . S
H122 C130 0.951 . S
H123 C131 0.951 . S
C124 C118 1.265 . S
C124 H119 0.950 . S
C124 C125 1.478 . S
C125 C112 1.394 . S
C125 C124 1.478 . S
C125 C126 1.397 . S
C126 C125 1.397 . S
C126 C127 1.438 . S
C126 C131 1.429 . S
C127 C110 1.394 . S
C127 C126 1.438 . S
C127 C128 1.428 . S
C128 H120 0.949 . S
C128 C127 1.428 . S
C128 C129 1.345 . S
C129 H121 0.950 . S
C129 C128 1.345 . S
C129 C130 1.424 . S
C130 H122 0.951 . S
C130 C129 1.424 . S
C130 C131 1.347 . S
C131 H123 0.951 . S
C131 C126 1.429 . S
C131 C130 1.347 . S
H132 C133 0.951 . S
C133 H132 0.951 . S
C133 C139 1.265 . S
H134 C139 0.950 . S
H135 C143 0.949 . S
H136 C144 0.950 . S
H137 C145 0.951 . S
H138 C146 0.951 . S
C139 C133 1.265 . S
C139 H134 0.950 . S
C139 C140 1.478 . S
C140 C139 1.478 . S
C140 C141 1.397 . S
C140 C157 1.394 . S
C141 C140 1.397 . S
C141 C142 1.438 1_556 S
C141 C146 1.429 . S
C142 C141 1.438 1_554 S
C142 C143 1.428 . S
C142 C155 1.394 . S
C143 H135 0.949 . S
C143 C142 1.428 . S
C143 C144 1.345 . S
C144 H136 0.950 . S
C144 C143 1.345 . S
C144 C145 1.424 . S
C145 H137 0.951 . S
C145 C144 1.424 . S
C145 C146 1.347 1_554 S
C146 H138 0.951 . S
C146 C141 1.429 . S
C146 C145 1.347 1_556 S
H147 C148 0.951 . S
C148 H147 0.951 . S
C148 C154 1.265 . S
H149 C154 0.950 . S
H150 C158 0.949 . S
H151 C159 0.950 . S
H152 C160 0.951 . S
H153 C161 0.951 . S
C154 C148 1.265 . S
C154 H149 0.950 . S
C154 C155 1.478 . S
C155 C142 1.394 . S
C155 C154 1.478 . S
C155 C156 1.397 . S
C156 C155 1.397 . S
C156 C157 1.438 1_554 S
C156 C161 1.429 . S
C157 C140 1.394 . S
C157 C156 1.438 1_556 S
C157 C158 1.428 . S
C158 H150 0.949 . S
C158 C157 1.428 . S
C158 C159 1.345 . S
C159 H151 0.950 . S
C159 C158 1.345 . S
C159 C160 1.424 . S
C160 H152 0.951 . S
C160 C159 1.424 . S
C160 C161 1.347 1_556 S
C161 H153 0.951 . S
C161 C156 1.429 . S
C161 C160 1.347 1_554 S
H162 C163 0.951 . S
C163 H162 0.951 . S
C163 C169 1.265 . S
H164 C169 0.950 . S
H165 C173 0.949 . S
H166 C174 0.950 . S
H167 C175 0.951 . S
H168 C176 0.951 . S
C169 C163 1.265 . S
C169 H164 0.950 . S
C169 C170 1.478 . S
C170 C169 1.478 . S
C170 C171 1.397 . S
C170 C187 1.394 . S
C171 C170 1.397 . S
C171 C172 1.438 . S
C171 C176 1.429 . S
C172 C171 1.438 . S
C172 C173 1.428 . S
C172 C185 1.394 . S
C173 H165 0.949 . S
C173 C172 1.428 . S
C173 C174 1.345 . S
C174 H166 0.950 . S
C174 C173 1.345 . S
C174 C175 1.424 . S
C175 H167 0.951 . S
C175 C174 1.424 . S
C175 C176 1.347 . S
C176 H168 0.951 . S
C176 C171 1.429 . S
C176 C175 1.347 . S
H177 C178 0.951 . S
C178 H177 0.951 . S
C178 C184 1.265 . S
H179 C184 0.950 . S
H180 C188 0.949 . S
H181 C189 0.950 . S
H182 C190 0.951 . S
H183 C191 0.951 . S
C184 C178 1.265 . S
C184 H179 0.950 . S
C184 C185 1.478 . S
C185 C172 1.394 . S
C185 C184 1.478 . S
C185 C186 1.397 . S
C186 C185 1.397 . S
C186 C187 1.438 . S
C186 C191 1.429 . S
C187 C170 1.394 . S
C187 C186 1.438 . S
C187 C188 1.428 . S
C188 H180 0.949 . S
C188 C187 1.428 . S
C188 C189 1.345 . S
C189 H181 0.950 . S
C189 C188 1.345 . S
C189 C190 1.424 . S
C190 H182 0.951 . S
C190 C189 1.424 . S
C190 C191 1.347 . S
C191 H183 0.951 . S
C191 C186 1.429 . S
C191 C190 1.347 . S
H192 C193 0.951 . S
C193 H192 0.951 . S
C193 C199 1.265 . S
H194 C199 0.950 . S
H195 C203 0.949 . S
H196 C204 0.950 . S
H197 C205 0.951 . S
H198 C206 0.951 . S
C199 C193 1.265 . S
C199 H194 0.950 . S
C199 C200 1.478 . S
C200 C199 1.478 . S
C200 C201 1.397 . S
C200 C217 1.394 . S
C201 C200 1.397 . S
C201 C202 1.438 . S
C201 C206 1.429 . S
C202 C201 1.438 . S
C202 C203 1.428 . S
C202 C215 1.394 . S
C203 H195 0.949 . S
C203 C202 1.428 . S
C203 C204 1.345 . S
C204 H196 0.950 . S
C204 C203 1.345 . S
C204 C205 1.424 . S
C205 H197 0.951 . S
C205 C204 1.424 . S
C205 C206 1.347 . S
C206 H198 0.951 . S
C206 C201 1.429 . S
C206 C205 1.347 . S
H207 C208 0.951 . S
C208 H207 0.951 . S
C208 C214 1.265 . S
H209 C214 0.950 . S
H210 C218 0.949 . S
H211 C219 0.950 . S
H212 C220 0.951 . S
H213 C221 0.951 . S
C214 C208 1.265 . S
C214 H209 0.950 . S
C214 C215 1.478 . S
C215 C202 1.394 . S
C215 C214 1.478 . S
C215 C216 1.397 . S
C216 C215 1.397 . S
C216 C217 1.438 . S
C216 C221 1.429 . S
C217 C200 1.394 . S
C217 C216 1.438 . S
C217 C218 1.428 . S
C218 H210 0.949 . S
C218 C217 1.428 . S
C218 C219 1.345 . S
C219 H211 0.950 . S
C219 C218 1.345 . S
C219 C220 1.424 . S
C220 H212 0.951 . S
C220 C219 1.424 . S
C220 C221 1.347 . S
C221 H213 0.951 . S
C221 C216 1.429 . S
C221 C220 1.347 . S
C43 C36 1.648 . S
C58 C9 1.657 . S
C73 C6 1.555 . S
C88 C22 1.554 . S
C103 C21 1.365 . S
C118 C34 1.323 . S
C133 C37 1.650 . S
C148 C8 1.659 . S
C163 C23 1.486 . S
C178 C7 1.504 . S
C193 C35 1.345 . S
C208 C20 1.388 . S
