# Generated by pormake.
# Topology bcu, (8)-cn, num edge types: 1
# Building blocks:
#     Node 0, Type 0, BuildingBlock: VETTIZ_charged_sbu_0, # of connection points: 8
#     Node 1, Type 0, BuildingBlock: VETTIZ_charged_sbu_0, # of connection points: 8
#     Edge 2, Type (0, 0), BuildingBlock: XIVTED_clean_linker_0, # of connection points: 2
#     Edge 3, Type (0, 0), BuildingBlock: XIVTED_clean_linker_0, # of connection points: 2
#     Edge 4, Type (0, 0), BuildingBlock: XIVTED_clean_linker_0, # of connection points: 2
#     Edge 5, Type (0, 0), BuildingBlock: XIVTED_clean_linker_0, # of connection points: 2
#     Edge 6, Type (0, 0), BuildingBlock: XIVTED_clean_linker_0, # of connection points: 2
#     Edge 7, Type (0, 0), BuildingBlock: XIVTED_clean_linker_0, # of connection points: 2
#     Edge 8, Type (0, 0), BuildingBlock: XIVTED_clean_linker_0, # of connection points: 2
#     Edge 9, Type (0, 0), BuildingBlock: XIVTED_clean_linker_0, # of connection points: 2
# Relax obj value: 0.000
# Max RMSD: 0.009
# Mean RMSD: 0.009
data_MOF--net-bcu--node1-VETTIZ_charged_sbu_0--edge1-XIVTED_clean_linker_0
_symmetry_space_group_name_H-M    P1
_symmetry_Int_Tables_number       1
_symmetry_cell_setting            triclinic
loop_
_symmetry_equiv_pos_as_xyz
'x, y, z'
_cell_length_a     18.886648
_cell_length_b     21.404651
_cell_length_c     18.889296
_cell_angle_alpha  90.055212
_cell_angle_beta   89.978996
_cell_angle_gamma 89.957444
loop_
_atom_site_label
_atom_site_type_symbol
_atom_site_fract_x
_atom_site_fract_y
_atom_site_fract_z
_atom_type_partial_charge
Fe0 Fe 1.03249 0.90302 0.03289 0.0
O1 O 0.07726 0.97235 0.08753 0.0
Fe2 Fe 0.98502 -0.02466 0.87489 0.0
Fe3 Fe 0.07952 -0.02488 0.19118 0.0
O4 O 0.98679 0.97208 0.97859 0.0
O5 O 0.98671 -0.02188 0.97863 0.0
O6 O 0.07725 -0.0216 0.08753 0.0
Fe7 Fe 1.03123 0.04746 0.03352 0.0
C8 C 0.94852 0.89338 0.16675 0.0
O9 O 0.08793 0.83949 0.0975 0.0
O10 O 0.14954 0.90222 0.17589 0.0
O11 O 0.11666 0.05005 0.9666 0.0
O12 O 0.0619 0.04318 0.86237 0.0
O13 O 0.06321 0.90865 0.8618 0.0
O14 O 0.11801 0.90186 0.96601 0.0
O15 O 0.14845 0.04875 0.1764 0.0
O16 O 0.08578 0.11129 0.09868 0.0
C17 C 0.11694 0.89435 0.89926 0.0
O18 O 0.97536 0.11094 0.96899 0.0
O19 O 0.91468 0.04799 0.89003 0.0
O20 O 0.94704 0.90074 0.09998 0.0
O21 O 1.00247 0.90759 0.20392 0.0
C22 C 0.13779 0.84938 0.14397 0.0
C23 C 0.13597 0.10161 0.14488 0.0
C24 C 0.9473 0.05552 0.16749 0.0
O25 O 1.00156 0.04186 0.20447 0.0
O26 O 0.94583 0.04829 0.10069 0.0
C27 C 0.11543 0.05783 0.89992 0.0
O28 O 0.91612 0.90162 0.8893 0.0
O29 O 0.97797 0.83918 0.96776 0.0
C30 C 0.92567 0.10075 0.92236 0.0
C31 C 0.92824 0.84883 0.92108 0.0
Fe32 Fe 0.53259 0.54738 0.5322 0.0
O33 O 0.47771 0.47852 0.57755 0.0
Fe34 Fe 0.69089 0.47469 0.48609 0.0
Fe35 Fe 0.37395 0.47582 0.57875 0.0
O36 O 0.58722 0.47786 0.48772 0.0
O37 O 0.58723 0.47184 0.48779 0.0
O38 O 0.47774 0.47243 0.57767 0.0
Fe39 Fe 0.53226 0.40292 0.53285 0.0
C40 C 0.42058 0.60198 0.63615 0.0
O41 O 0.46626 0.5487 0.44636 0.0
O42 O 0.36182 0.54282 0.5009 0.0
O43 O 0.59711 0.33892 0.47808 0.0
O44 O 0.67608 0.40127 0.41675 0.0
O45 O 0.67637 0.54752 0.41607 0.0
O46 O 0.59779 0.61069 0.47701 0.0
O47 O 0.36141 0.40833 0.50143 0.0
O48 O 0.46584 0.40135 0.447 0.0
C49 C 0.64436 0.6004 0.42728 0.0
O50 O 0.59891 0.40099 0.61865 0.0
O51 O 0.70329 0.40784 0.56393 0.0
O52 O 0.46744 0.61148 0.58652 0.0
O53 O 0.38852 0.54929 0.64808 0.0
C54 C 0.39959 0.55671 0.44726 0.0
C55 C 0.39909 0.39388 0.44788 0.0
C56 C 0.41977 0.34977 0.63709 0.0
O57 O 0.38804 0.40275 0.64861 0.0
O58 O 0.4667 0.33964 0.58764 0.0
C59 C 0.64372 0.34866 0.4283 0.0
O60 O 0.7035 0.54223 0.56341 0.0
O61 O 0.59907 0.5494 0.61794 0.0
C62 C 0.66574 0.39371 0.61764 0.0
C63 C 0.66584 0.55681 0.61697 0.0
H64 H 0.09361 0.22239 0.1671 0.0
H65 H 0.46085 0.31875 0.34791 0.0
H66 H 0.27591 0.10134 0.17817 0.0
H67 H 0.25919 0.39636 0.41041 0.0
H68 H 0.4005 0.25674 0.25727 0.0
H69 H 0.16174 0.30432 0.22783 0.0
C70 C 0.14846 0.2137 0.18071 0.0
C71 C 0.17918 0.15503 0.16841 0.0
C72 C 0.36971 0.28797 0.29032 0.0
C73 C 0.25688 0.24789 0.23722 0.0
C74 C 0.40405 0.32348 0.3419 0.0
C75 C 0.36477 0.362 0.38752 0.0
C76 C 0.29578 0.29164 0.28371 0.0
C77 C 0.2913 0.3664 0.37714 0.0
C78 C 0.18702 0.26015 0.21572 0.0
C79 C 0.25017 0.14581 0.18752 0.0
N80 N 0.25906 0.33132 0.32656 0.0
N81 N 0.28656 0.19163 0.22132 0.0
H82 H 0.91082 0.05043 0.30741 0.0
H83 H 0.67289 0.34983 0.28763 0.0
H84 H 0.84622 0.1309 0.10815 0.0
H85 H 0.66865 0.22803 0.46923 0.0
H86 H 0.7319 0.26784 0.21955 0.0
H87 H 0.81947 0.1119 0.3674 0.0
C88 C 0.87696 0.08061 0.27622 0.0
C89 C 0.88681 0.08632 0.20285 0.0
C90 C 0.71691 0.25846 0.27385 0.0
C91 C 0.78264 0.15696 0.27117 0.0
C92 C 0.68337 0.30525 0.31269 0.0
C93 C 0.66646 0.2956 0.38411 0.0
C94 C 0.73541 0.20222 0.30724 0.0
C95 C 0.6808 0.23709 0.41417 0.0
C96 C 0.82456 0.11535 0.31043 0.0
C97 C 0.84078 0.12537 0.16487 0.0
N98 N 0.71589 0.1929 0.37595 0.0
N99 N 0.7915 0.16006 0.19966 0.0
H100 H 0.91117 0.89883 0.30642 0.0
H101 H 0.67543 0.59803 0.28698 0.0
H102 H 0.84903 0.81647 0.10725 0.0
H103 H 0.66857 0.72143 0.46739 0.0
H104 H 0.73503 0.67948 0.21888 0.0
H105 H 0.82012 0.83703 0.36616 0.0
C106 C 0.87793 0.86813 0.2752 0.0
C107 C 0.88833 0.86207 0.20193 0.0
C108 C 0.71936 0.68932 0.27291 0.0
C109 C 0.78451 0.79104 0.26998 0.0
C110 C 0.68546 0.64283 0.31178 0.0
C111 C 0.66761 0.65309 0.38289 0.0
C112 C 0.73722 0.74589 0.30599 0.0
C113 C 0.68143 0.71188 0.41257 0.0
C114 C 0.82569 0.83321 0.30926 0.0
C115 C 0.8431 0.82232 0.16389 0.0
N116 N 0.71683 0.75578 0.37437 0.0
N117 N 0.79396 0.78749 0.19855 0.0
H118 H 0.09623 0.72827 0.16435 0.0
H119 H 0.46196 0.63177 0.34793 0.0
H120 H 0.27733 0.85021 0.17919 0.0
H121 H 0.25989 0.55454 0.40907 0.0
H122 H 0.40217 0.69405 0.25719 0.0
H123 H 0.1642 0.64631 0.22512 0.0
C124 C 0.15082 0.73716 0.17879 0.0
C125 C 0.1812 0.79608 0.16753 0.0
C126 C 0.37118 0.66283 0.28996 0.0
C127 C 0.25872 0.70316 0.23638 0.0
C128 C 0.40519 0.62717 0.34158 0.0
C129 C 0.36561 0.58868 0.38684 0.0
C130 C 0.2973 0.6593 0.28292 0.0
C131 C 0.2922 0.58445 0.37606 0.0
C132 C 0.18927 0.69069 0.21382 0.0
C133 C 0.25185 0.80554 0.18771 0.0
N134 N 0.26029 0.61965 0.32541 0.0
N135 N 0.28815 0.75967 0.2215 0.0
H136 H 0.21749 0.81991 0.96083 0.0
H137 H 0.39825 0.72261 0.59365 0.0
H138 H 0.15385 0.89625 0.75912 0.0
H139 H 0.38704 0.60196 0.77601 0.0
H140 H 0.33719 0.80461 0.66161 0.0
H141 H 0.30817 0.75791 0.90038 0.0
C142 C 0.22325 0.82437 0.90398 0.0
C143 C 0.17731 0.86254 0.86475 0.0
C144 C 0.34936 0.76052 0.68694 0.0
C145 C 0.28118 0.79218 0.79564 0.0
C146 C 0.38456 0.71404 0.64849 0.0
C147 C 0.39693 0.65547 0.67928 0.0
C148 C 0.32776 0.74839 0.75678 0.0
C149 C 0.37767 0.64637 0.75024 0.0
C150 C 0.27486 0.78886 0.86959 0.0
C151 C 0.18739 0.86658 0.79122 0.0
N152 N 0.34372 0.69222 0.78653 0.0
N153 N 0.23803 0.83151 0.75892 0.0
H154 H 0.39822 0.22871 0.5955 0.0
H155 H 0.21447 0.13367 0.96167 0.0
H156 H 0.38423 0.35109 0.7765 0.0
H157 H 0.15306 0.05563 0.76 0.0
H158 H 0.30492 0.19594 0.90147 0.0
H159 H 0.33662 0.14727 0.6635 0.0
C160 C 0.38378 0.2378 0.65006 0.0
C161 C 0.39558 0.29668 0.68043 0.0
C162 C 0.27213 0.16458 0.87064 0.0
C163 C 0.32577 0.20438 0.75798 0.0
C164 C 0.22067 0.12892 0.90489 0.0
C165 C 0.17545 0.09014 0.86557 0.0
C166 C 0.27908 0.16076 0.79676 0.0
C167 C 0.18604 0.08575 0.79213 0.0
C168 C 0.34826 0.19164 0.68853 0.0
C169 C 0.37534 0.30643 0.75104 0.0
N170 N 0.23656 0.12093 0.75999 0.0
N171 N 0.34111 0.26085 0.78736 0.0
H172 H 0.7854 0.0984 0.89107 0.0
H173 H 0.80515 0.39939 0.65587 0.0
H174 H 0.96547 0.22191 0.89874 0.0
H175 H 0.60585 0.31682 0.71689 0.0
H176 H 0.86455 0.33767 0.7472 0.0
H177 H 0.71728 0.17991 0.83146 0.0
C178 C 0.8101 0.14324 0.88123 0.0
C179 C 0.88114 0.1535 0.89931 0.0
C180 C 0.80768 0.33378 0.74133 0.0
C181 C 0.80422 0.24638 0.82966 0.0
C182 C 0.77381 0.36868 0.68894 0.0
C183 C 0.70061 0.36254 0.67812 0.0
C184 C 0.7683 0.29155 0.78227 0.0
C185 C 0.66244 0.32275 0.72314 0.0
C186 C 0.77123 0.18976 0.84732 0.0
C187 C 0.91071 0.21235 0.88572 0.0
N188 N 0.69693 0.28793 0.77244 0.0
N189 N 0.87251 0.25628 0.85029 0.0
H190 H 0.60403 0.63176 0.71702 0.0
H191 H 0.97082 0.72815 0.89865 0.0
H192 H 0.80583 0.55456 0.65431 0.0
H193 H 0.78844 0.84908 0.88737 0.0
H194 H 0.90297 0.6463 0.83743 0.0
H195 H 0.66426 0.69368 0.8078 0.0
C196 C 0.66085 0.62712 0.72299 0.0
C197 C 0.70019 0.58873 0.67728 0.0
C198 C 0.87761 0.69042 0.84961 0.0
C199 C 0.76904 0.65899 0.78127 0.0
C200 C 0.916 0.73681 0.8849 0.0
C201 C 0.88517 0.79542 0.89731 0.0
C202 C 0.80781 0.70267 0.82794 0.0
C203 C 0.81424 0.80464 0.87797 0.0
C204 C 0.69511 0.66257 0.77466 0.0
C205 C 0.77367 0.58442 0.68764 0.0
N206 N 0.77802 0.75887 0.84392 0.0
N207 N 0.80584 0.61945 0.73833 0.0
loop_
_geom_bond_atom_site_label_1
_geom_bond_atom_site_label_2
_geom_bond_distance
_geom_bond_site_symmetry_2
_ccdc_geom_bond_type
Fe0 O1 1.886 . S
Fe0 O4 1.715 1_554 S
Fe0 O9 2.077 . S
Fe0 O14 1.935 1_554 S
Fe0 O20 2.077 1_455 S
Fe0 O29 1.935 1_454 S
O1 Fe0 1.886 . S
O1 Fe3 1.715 1_565 S
Fe2 O4 1.886 . S
Fe2 O5 1.715 1_565 S
Fe2 O12 1.935 1_565 S
Fe2 O13 2.077 . S
Fe2 O19 1.935 1_465 S
Fe2 O28 2.077 1_455 S
Fe3 O1 1.715 1_545 S
Fe3 O6 1.886 . S
Fe3 O10 1.935 1_545 S
Fe3 O15 2.077 . S
Fe3 O21 1.935 1_445 S
Fe3 O25 2.077 1_455 S
O4 Fe0 1.715 1_556 S
O4 Fe2 1.886 . S
O5 Fe2 1.715 1_545 S
O5 Fe7 1.886 . S
O6 Fe3 1.886 . S
O6 Fe7 1.715 1_554 S
Fe7 O5 1.886 . S
Fe7 O6 1.715 1_556 S
Fe7 O11 2.077 . S
Fe7 O16 1.935 1_556 S
Fe7 O18 2.077 1_455 S
Fe7 O26 1.935 1_456 S
C8 O20 1.381 . S
C8 O21 1.421 . S
O9 Fe0 2.077 . S
O9 C22 1.381 . S
O10 Fe3 1.935 1_565 S
O10 C22 1.421 . S
O11 Fe7 2.077 . S
O11 C27 1.381 . S
O12 Fe2 1.935 1_545 S
O12 C27 1.421 . S
O13 Fe2 2.077 . S
O13 C17 1.381 . S
O14 Fe0 1.935 1_556 S
O14 C17 1.421 . S
O15 Fe3 2.077 . S
O15 C23 1.381 . S
O16 Fe7 1.935 1_554 S
O16 C23 1.421 . S
C17 O13 1.381 . S
C17 O14 1.421 . S
O18 Fe7 2.077 1_655 S
O18 C30 1.381 . S
O19 Fe2 1.935 1_645 S
O19 C30 1.421 . S
O20 Fe0 2.077 1_655 S
O20 C8 1.381 . S
O21 Fe3 1.935 1_665 S
O21 C8 1.421 . S
C22 O9 1.381 . S
C22 O10 1.421 . S
C23 O15 1.381 . S
C23 O16 1.421 . S
C24 O25 1.381 . S
C24 O26 1.421 . S
O25 Fe3 2.077 1_655 S
O25 C24 1.381 . S
O26 Fe7 1.935 1_654 S
O26 C24 1.421 . S
C27 O11 1.381 . S
C27 O12 1.421 . S
O28 Fe2 2.077 1_655 S
O28 C31 1.381 . S
O29 Fe0 1.935 1_656 S
O29 C31 1.421 . S
C30 O18 1.381 . S
C30 O19 1.421 . S
C31 O28 1.381 . S
C31 O29 1.421 . S
Fe32 O33 1.886 . S
Fe32 O36 1.715 . S
Fe32 O41 2.077 . S
Fe32 O46 1.935 . S
Fe32 O52 2.077 . S
Fe32 O61 1.935 . S
O33 Fe32 1.886 . S
O33 Fe35 1.715 . S
Fe34 O36 1.886 . S
Fe34 O37 1.715 . S
Fe34 O44 1.935 . S
Fe34 O45 2.077 . S
Fe34 O51 1.935 . S
Fe34 O60 2.077 . S
Fe35 O33 1.715 . S
Fe35 O38 1.886 . S
Fe35 O42 1.935 . S
Fe35 O47 2.077 . S
Fe35 O53 1.935 . S
Fe35 O57 2.077 . S
O36 Fe32 1.715 . S
O36 Fe34 1.886 . S
O37 Fe34 1.715 . S
O37 Fe39 1.886 . S
O38 Fe35 1.886 . S
O38 Fe39 1.715 . S
Fe39 O37 1.886 . S
Fe39 O38 1.715 . S
Fe39 O43 2.077 . S
Fe39 O48 1.935 . S
Fe39 O50 2.077 . S
Fe39 O58 1.935 . S
C40 O52 1.381 . S
C40 O53 1.421 . S
O41 Fe32 2.077 . S
O41 C54 1.381 . S
O42 Fe35 1.935 . S
O42 C54 1.421 . S
O43 Fe39 2.077 . S
O43 C59 1.381 . S
O44 Fe34 1.935 . S
O44 C59 1.421 . S
O45 Fe34 2.077 . S
O45 C49 1.381 . S
O46 Fe32 1.935 . S
O46 C49 1.421 . S
O47 Fe35 2.077 . S
O47 C55 1.381 . S
O48 Fe39 1.935 . S
O48 C55 1.421 . S
C49 O45 1.381 . S
C49 O46 1.421 . S
O50 Fe39 2.077 . S
O50 C62 1.381 . S
O51 Fe34 1.935 . S
O51 C62 1.421 . S
O52 Fe32 2.077 . S
O52 C40 1.381 . S
O53 Fe35 1.935 . S
O53 C40 1.421 . S
C54 O41 1.381 . S
C54 O42 1.421 . S
C55 O47 1.381 . S
C55 O48 1.421 . S
C56 O57 1.381 . S
C56 O58 1.421 . S
O57 Fe35 2.077 . S
O57 C56 1.381 . S
O58 Fe39 1.935 . S
O58 C56 1.421 . S
C59 O43 1.381 . S
C59 O44 1.421 . S
O60 Fe34 2.077 . S
O60 C63 1.381 . S
O61 Fe32 1.935 . S
O61 C63 1.421 . S
C62 O50 1.381 . S
C62 O51 1.421 . S
C63 O60 1.381 . S
C63 O61 1.421 . S
H64 C70 0.930 . S
H65 C74 0.930 . S
H66 C79 0.929 . S
H67 C77 0.929 . S
H68 C72 0.929 . S
H69 C78 0.929 . S
C70 H64 0.930 . S
C70 C71 1.367 . S
C70 C78 1.378 . S
C71 C70 1.367 . S
C71 C79 1.433 . S
C72 H68 0.929 . S
C72 C74 1.378 . S
C72 C76 1.350 . S
C73 C76 1.463 . S
C73 C78 1.350 . S
C73 N81 1.427 . S
C74 H65 0.930 . S
C74 C72 1.378 . S
C74 C75 1.367 . S
C75 C74 1.367 . S
C75 C77 1.433 . S
C76 C72 1.350 . S
C76 C73 1.463 . S
C76 N80 1.427 . S
C77 H67 0.929 . S
C77 C75 1.433 . S
C77 N80 1.384 . S
C78 H69 0.929 . S
C78 C70 1.378 . S
C78 C73 1.350 . S
C79 H66 0.929 . S
C79 C71 1.433 . S
C79 N81 1.384 . S
N80 C76 1.427 . S
N80 C77 1.384 . S
N81 C73 1.427 . S
N81 C79 1.384 . S
H82 C88 0.930 . S
H83 C92 0.930 . S
H84 C97 0.929 . S
H85 C95 0.929 . S
H86 C90 0.929 . S
H87 C96 0.929 . S
C88 H82 0.930 . S
C88 C89 1.367 . S
C88 C96 1.378 . S
C89 C88 1.367 . S
C89 C97 1.433 . S
C90 H86 0.929 . S
C90 C92 1.378 . S
C90 C94 1.350 . S
C91 C94 1.463 . S
C91 C96 1.350 . S
C91 N99 1.427 . S
C92 H83 0.930 . S
C92 C90 1.378 . S
C92 C93 1.367 . S
C93 C92 1.367 . S
C93 C95 1.433 . S
C94 C90 1.350 . S
C94 C91 1.463 . S
C94 N98 1.427 . S
C95 H85 0.929 . S
C95 C93 1.433 . S
C95 N98 1.384 . S
C96 H87 0.929 . S
C96 C88 1.378 . S
C96 C91 1.350 . S
C97 H84 0.929 . S
C97 C89 1.433 . S
C97 N99 1.384 . S
N98 C94 1.427 . S
N98 C95 1.384 . S
N99 C91 1.427 . S
N99 C97 1.384 . S
H100 C106 0.930 . S
H101 C110 0.930 . S
H102 C115 0.929 . S
H103 C113 0.929 . S
H104 C108 0.929 . S
H105 C114 0.929 . S
C106 H100 0.930 . S
C106 C107 1.367 . S
C106 C114 1.378 . S
C107 C106 1.367 . S
C107 C115 1.433 . S
C108 H104 0.929 . S
C108 C110 1.378 . S
C108 C112 1.350 . S
C109 C112 1.463 . S
C109 C114 1.350 . S
C109 N117 1.427 . S
C110 H101 0.930 . S
C110 C108 1.378 . S
C110 C111 1.367 . S
C111 C110 1.367 . S
C111 C113 1.433 . S
C112 C108 1.350 . S
C112 C109 1.463 . S
C112 N116 1.427 . S
C113 H103 0.929 . S
C113 C111 1.433 . S
C113 N116 1.384 . S
C114 H105 0.929 . S
C114 C106 1.378 . S
C114 C109 1.350 . S
C115 H102 0.929 . S
C115 C107 1.433 . S
C115 N117 1.384 . S
N116 C112 1.427 . S
N116 C113 1.384 . S
N117 C109 1.427 . S
N117 C115 1.384 . S
H118 C124 0.930 . S
H119 C128 0.930 . S
H120 C133 0.929 . S
H121 C131 0.929 . S
H122 C126 0.929 . S
H123 C132 0.929 . S
C124 H118 0.930 . S
C124 C125 1.367 . S
C124 C132 1.378 . S
C125 C124 1.367 . S
C125 C133 1.433 . S
C126 H122 0.929 . S
C126 C128 1.378 . S
C126 C130 1.350 . S
C127 C130 1.463 . S
C127 C132 1.350 . S
C127 N135 1.427 . S
C128 H119 0.930 . S
C128 C126 1.378 . S
C128 C129 1.367 . S
C129 C128 1.367 . S
C129 C131 1.433 . S
C130 C126 1.350 . S
C130 C127 1.463 . S
C130 N134 1.427 . S
C131 H121 0.929 . S
C131 C129 1.433 . S
C131 N134 1.384 . S
C132 H123 0.929 . S
C132 C124 1.378 . S
C132 C127 1.350 . S
C133 H120 0.929 . S
C133 C125 1.433 . S
C133 N135 1.384 . S
N134 C130 1.427 . S
N134 C131 1.384 . S
N135 C127 1.427 . S
N135 C133 1.384 . S
H136 C142 0.930 . S
H137 C146 0.930 . S
H138 C151 0.929 . S
H139 C149 0.929 . S
H140 C144 0.929 . S
H141 C150 0.929 . S
C142 H136 0.930 . S
C142 C143 1.367 . S
C142 C150 1.378 . S
C143 C142 1.367 . S
C143 C151 1.433 . S
C144 H140 0.929 . S
C144 C146 1.378 . S
C144 C148 1.350 . S
C145 C148 1.463 . S
C145 C150 1.350 . S
C145 N153 1.427 . S
C146 H137 0.930 . S
C146 C144 1.378 . S
C146 C147 1.367 . S
C147 C146 1.367 . S
C147 C149 1.433 . S
C148 C144 1.350 . S
C148 C145 1.463 . S
C148 N152 1.427 . S
C149 H139 0.929 . S
C149 C147 1.433 . S
C149 N152 1.384 . S
C150 H141 0.929 . S
C150 C142 1.378 . S
C150 C145 1.350 . S
C151 H138 0.929 . S
C151 C143 1.433 . S
C151 N153 1.384 . S
N152 C148 1.427 . S
N152 C149 1.384 . S
N153 C145 1.427 . S
N153 C151 1.384 . S
H154 C160 0.930 . S
H155 C164 0.930 . S
H156 C169 0.929 . S
H157 C167 0.929 . S
H158 C162 0.929 . S
H159 C168 0.929 . S
C160 H154 0.930 . S
C160 C161 1.367 . S
C160 C168 1.378 . S
C161 C160 1.367 . S
C161 C169 1.433 . S
C162 H158 0.929 . S
C162 C164 1.378 . S
C162 C166 1.350 . S
C163 C166 1.463 . S
C163 C168 1.350 . S
C163 N171 1.427 . S
C164 H155 0.930 . S
C164 C162 1.378 . S
C164 C165 1.367 . S
C165 C164 1.367 . S
C165 C167 1.433 . S
C166 C162 1.350 . S
C166 C163 1.463 . S
C166 N170 1.427 . S
C167 H157 0.929 . S
C167 C165 1.433 . S
C167 N170 1.384 . S
C168 H159 0.929 . S
C168 C160 1.378 . S
C168 C163 1.350 . S
C169 H156 0.929 . S
C169 C161 1.433 . S
C169 N171 1.384 . S
N170 C166 1.427 . S
N170 C167 1.384 . S
N171 C163 1.427 . S
N171 C169 1.384 . S
H172 C178 0.930 . S
H173 C182 0.930 . S
H174 C187 0.929 . S
H175 C185 0.929 . S
H176 C180 0.929 . S
H177 C186 0.929 . S
C178 H172 0.930 . S
C178 C179 1.367 . S
C178 C186 1.378 . S
C179 C178 1.367 . S
C179 C187 1.433 . S
C180 H176 0.929 . S
C180 C182 1.378 . S
C180 C184 1.350 . S
C181 C184 1.463 . S
C181 C186 1.350 . S
C181 N189 1.427 . S
C182 H173 0.930 . S
C182 C180 1.378 . S
C182 C183 1.367 . S
C183 C182 1.367 . S
C183 C185 1.433 . S
C184 C180 1.350 . S
C184 C181 1.463 . S
C184 N188 1.427 . S
C185 H175 0.929 . S
C185 C183 1.433 . S
C185 N188 1.384 . S
C186 H177 0.929 . S
C186 C178 1.378 . S
C186 C181 1.350 . S
C187 H174 0.929 . S
C187 C179 1.433 . S
C187 N189 1.384 . S
N188 C184 1.427 . S
N188 C185 1.384 . S
N189 C181 1.427 . S
N189 C187 1.384 . S
H190 C196 0.930 . S
H191 C200 0.930 . S
H192 C205 0.929 . S
H193 C203 0.929 . S
H194 C198 0.929 . S
H195 C204 0.929 . S
C196 H190 0.930 . S
C196 C197 1.367 . S
C196 C204 1.378 . S
C197 C196 1.367 . S
C197 C205 1.433 . S
C198 H194 0.929 . S
C198 C200 1.378 . S
C198 C202 1.350 . S
C199 C202 1.463 . S
C199 C204 1.350 . S
C199 N207 1.427 . S
C200 H191 0.930 . S
C200 C198 1.378 . S
C200 C201 1.367 . S
C201 C200 1.367 . S
C201 C203 1.433 . S
C202 C198 1.350 . S
C202 C199 1.463 . S
C202 N206 1.427 . S
C203 H193 0.929 . S
C203 C201 1.433 . S
C203 N206 1.384 . S
C204 H195 0.929 . S
C204 C196 1.378 . S
C204 C199 1.350 . S
C205 H192 0.929 . S
C205 C197 1.433 . S
C205 N207 1.384 . S
N206 C202 1.427 . S
N206 C203 1.384 . S
N207 C199 1.427 . S
N207 C205 1.384 . S
C71 C23 1.445 . S
C75 C55 1.445 . S
C89 C24 1.450 . S
C93 C59 1.457 . S
C107 C8 1.453 . S
C111 C49 1.457 . S
C125 C22 1.447 . S
C129 C54 1.451 . S
C143 C17 1.448 . S
C147 C40 1.450 . S
C161 C56 1.449 . S
C165 C27 1.445 . S
C179 C30 1.452 . S
C183 C62 1.458 . S
C197 C63 1.449 . S
C201 C31 1.448 . S
