# Generated by pormake.
# Topology qzd, (4)-cn, num edge types: 1
# Building blocks:
#     Node 0, Type 0, BuildingBlock: ESEHIV_clean_sbu_0, # of connection points: 4
#     Node 1, Type 0, BuildingBlock: ESEHIV_clean_sbu_0, # of connection points: 4
#     Node 2, Type 0, BuildingBlock: ESEHIV_clean_sbu_0, # of connection points: 4
#     Edge 3, Type (0, 0), None
#     Edge 4, Type (0, 0), None
#     Edge 5, Type (0, 0), None
#     Edge 6, Type (0, 0), None
#     Edge 7, Type (0, 0), None
#     Edge 8, Type (0, 0), None
# Relax obj value: 0.000
# Max RMSD: 0.155
# Mean RMSD: 0.081
data_MOF--net-qzd--node1-ESEHIV_clean_sbu_0--edge1-none
_symmetry_space_group_name_H-M    P1
_symmetry_Int_Tables_number       1
_symmetry_cell_setting            triclinic
loop_
_symmetry_equiv_pos_as_xyz
'x, y, z'
_cell_length_a     6.6254251
_cell_length_b     8.6751842
_cell_length_c     21.223028
_cell_angle_alpha  95.84585
_cell_angle_beta   96.026554
_cell_angle_gamma 113.38416
loop_
_atom_site_label
_atom_site_type_symbol
_atom_site_fract_x
_atom_site_fract_y
_atom_site_fract_z
_atom_type_partial_charge
Cu0 Cu 0.51885 0.34987 0.07765 0.0
N1 N 0.46482 0.2657 0.15489 0.0
N2 N 0.36899 0.22829 0.25182 0.0
C3 C 0.3738 0.31579 0.20244 0.0
C4 C 0.4608 0.1197 0.23489 0.0
C5 C 0.52107 0.14398 0.17529 0.0
O6 O 0.34305 0.48213 0.06126 0.0
C7 C 0.96877 0.46808 0.04707 0.0
O8 O 0.88719 0.44759 0.98626 0.0
H9 H 0.31527 0.41578 0.20122 0.0
H10 H 0.6006 0.07756 0.1485 0.0
N11 N 0.40712 0.16361 1.01148 0.0
N12 N 0.23899 1.01852 0.91398 0.0
C13 C 0.39325 0.16659 0.9477 0.0
C14 C 0.26097 1.00723 1.01764 0.0
C15 C 0.15567 0.91825 0.95775 0.0
C16 C 0.1359 0.40099 0.06307 0.0
O17 O 0.06435 0.24613 0.07702 0.0
H18 H 0.47264 0.28065 0.92703 0.0
H19 H 0.21695 0.96631 0.06262 0.0
O20 O 0.84375 0.46485 0.08899 0.0
H21 H 0.48141 1.0285 0.26313 0.0
H22 H 1.01983 0.79292 0.94735 0.0
Cu23 Cu 0.21676 0.19708 0.43436 0.0
N24 N 0.27668 0.42654 0.45483 0.0
N25 N 0.44625 0.70483 0.45538 0.0
C26 C 0.47003 0.55741 0.45177 0.0
C27 C 0.23185 0.6668 0.4609 0.0
C28 C 0.12762 0.49446 0.46145 0.0
O29 O 0.31376 0.16651 0.3525 0.0
C30 C 0.37271 0.18645 0.56022 0.0
O31 O 0.33698 0.32451 0.57072 0.0
H32 H 0.61782 0.54251 0.44079 0.0
H33 H 0.95211 0.42221 0.46178 0.0
N34 N 0.91308 1.06437 0.42654 0.0
N35 N 0.59639 0.85659 0.43885 0.0
C36 C 0.81893 0.92771 0.45549 0.0
C37 C 0.7439 0.07784 0.38995 0.0
C38 C 0.54688 0.94791 0.39725 0.0
C39 C 0.29155 0.24815 0.30753 0.0
O40 O 0.19649 0.35432 0.31584 0.0
H41 H 0.91096 0.88072 0.48749 0.0
H42 H 0.76382 0.17332 0.35928 0.0
O43 O 0.35275 0.11838 0.50265 0.0
H44 H 0.15417 0.75516 0.46041 0.0
H45 H 0.38186 0.9164 0.37207 0.0
Cu46 Cu 0.13026 1.02607 0.72069 0.0
N47 N 0.92953 0.12877 0.71689 0.0
N48 N 0.85433 0.35211 0.70073 0.0
C49 C 0.93473 0.242 0.67713 0.0
C50 C 0.79427 0.30727 0.75708 0.0
C51 C 0.83834 0.16815 0.7666 0.0
O52 O 0.33891 0.14958 0.66671 0.0
C53 C 0.15526 0.98545 0.85055 0.0
O54 O 0.95255 0.86857 0.83024 0.0
H55 H 1.02209 0.25803 0.63651 0.0
H56 H 0.83059 0.11455 0.81049 0.0
N57 N 0.99497 0.79113 0.68894 0.0
N58 N 0.89485 0.51156 0.68199 0.0
C59 C 0.99341 0.66301 0.72035 0.0
C60 C 0.89681 0.71587 0.62828 0.0
C61 C 0.84039 0.54319 0.62341 0.0
C62 C 0.37092 0.08978 0.61325 0.0
O63 O 0.33071 0.92819 0.60052 0.0
H64 H 0.07196 0.6793 0.76922 0.0
H65 H 0.87524 0.78296 0.58971 0.0
O66 O 0.26611 1.07027 0.81064 0.0
H67 H 0.74106 0.3789 0.79125 0.0
H68 H 0.7705 0.45019 0.58039 0.0
loop_
_geom_bond_atom_site_label_1
_geom_bond_atom_site_label_2
_geom_bond_distance
_geom_bond_site_symmetry_2
_ccdc_geom_bond_type
Cu0 N1 1.999 . S
Cu0 O6 1.974 1_455 S
Cu0 N11 1.985 1_554 S
Cu0 O20 1.959 . S
N1 Cu0 1.999 . S
N1 C3 1.263 1_455 S
N1 C5 1.389 . S
N2 C3 1.358 1_455 S
N2 C4 1.400 . S
C3 N1 1.263 1_655 S
C3 N2 1.358 1_655 S
C3 H9 0.930 1_545 S
C4 N2 1.400 . S
C4 C5 1.351 . S
C4 H21 0.930 . S
C5 N1 1.389 . S
C5 C4 1.351 . S
C5 H10 0.930 . S
O6 Cu0 1.974 1_655 S
O6 C16 1.282 1_545 S
C7 O8 1.261 . S
C7 O20 1.251 1_565 S
O8 C7 1.261 . S
H9 C3 0.930 1_565 S
H10 C5 0.930 . S
N11 Cu0 1.985 1_556 S
N11 C13 1.335 . S
N11 C14 1.390 1_445 S
N12 C13 1.345 . S
N12 C15 1.336 1_445 S
C13 N11 1.335 . S
C13 N12 1.345 . S
C13 H18 0.930 . S
C14 N11 1.390 1_665 S
C14 C15 1.346 . S
C14 H19 0.930 . S
C15 N12 1.336 1_665 S
C15 C14 1.346 . S
C15 H22 0.929 . S
C16 O6 1.282 1_565 S
C16 O17 1.216 . S
O17 C16 1.216 . S
H18 C13 0.930 . S
H19 C14 0.930 . S
O20 Cu0 1.959 . S
O20 C7 1.251 1_545 S
H21 C4 0.930 . S
H22 C15 0.929 . S
Cu23 N24 1.999 . S
Cu23 O29 1.974 . S
Cu23 N34 1.985 1_445 S
Cu23 O43 1.959 . S
N24 Cu23 1.999 . S
N24 C26 1.263 . S
N24 C28 1.389 . S
N25 C26 1.358 . S
N25 C27 1.400 . S
C26 N24 1.263 . S
C26 N25 1.358 . S
C26 H32 0.930 . S
C27 N25 1.400 . S
C27 C28 1.351 . S
C27 H44 0.930 . S
C28 N24 1.389 . S
C28 C27 1.351 . S
C28 H33 0.930 . S
O29 Cu23 1.974 . S
O29 C39 1.282 1_455 S
C30 O31 1.261 . S
C30 O43 1.251 1_655 S
O31 C30 1.261 . S
H32 C26 0.930 . S
H33 C28 0.930 . S
N34 Cu23 1.985 1_665 S
N34 C36 1.335 . S
N34 C37 1.390 . S
N35 C36 1.345 . S
N35 C38 1.336 . S
C36 N34 1.335 . S
C36 N35 1.345 . S
C36 H41 0.930 . S
C37 N34 1.390 . S
C37 C38 1.346 . S
C37 H42 0.930 . S
C38 N35 1.336 . S
C38 C37 1.346 . S
C38 H45 0.929 . S
C39 O29 1.282 1_655 S
C39 O40 1.216 . S
O40 C39 1.216 . S
H41 C36 0.930 . S
H42 C37 0.930 . S
O43 Cu23 1.959 . S
O43 C30 1.251 1_455 S
H44 C27 0.930 . S
H45 C38 0.929 . S
Cu46 N47 1.999 . S
Cu46 O52 1.974 . S
Cu46 N57 1.985 1_545 S
Cu46 O66 1.959 . S
N47 Cu46 1.999 . S
N47 C49 1.263 . S
N47 C51 1.389 . S
N48 C49 1.358 . S
N48 C50 1.400 . S
C49 N47 1.263 . S
C49 N48 1.358 . S
C49 H55 0.930 . S
C50 N48 1.400 . S
C50 C51 1.351 . S
C50 H67 0.930 . S
C51 N47 1.389 . S
C51 C50 1.351 . S
C51 H56 0.930 . S
O52 Cu46 1.974 . S
O52 C62 1.282 . S
C53 O54 1.261 1_455 S
C53 O66 1.251 . S
O54 C53 1.261 1_655 S
H55 C49 0.930 . S
H56 C51 0.930 . S
N57 Cu46 1.985 1_565 S
N57 C59 1.335 . S
N57 C60 1.390 . S
N58 C59 1.345 . S
N58 C61 1.336 . S
C59 N57 1.335 . S
C59 N58 1.345 . S
C59 H64 0.930 . S
C60 N57 1.390 . S
C60 C61 1.346 . S
C60 H65 0.930 . S
C61 N58 1.336 . S
C61 C60 1.346 . S
C61 H68 0.929 . S
C62 O52 1.282 . S
C62 O63 1.216 1_455 S
O63 C62 1.216 1_655 S
H64 C59 0.930 . S
H65 C60 0.930 . S
O66 Cu46 1.959 . S
O66 C53 1.251 . S
H67 C50 0.930 . S
H68 C61 0.929 . S
C16 C7 1.509 . S
N35 N25 1.503 . S
N58 N48 1.497 . S
C39 N2 1.820 1_655 S
C62 C30 1.743 1_455 S
C53 N12 1.477 . S
