# Generated by pormake.
# Topology kag, (6)-cn, num edge types: 1
# Building blocks:
#     Node 0, Type 0, BuildingBlock: BETGAK_clean_sbu_0, # of connection points: 6
#     Node 1, Type 0, BuildingBlock: BETGAK_clean_sbu_0, # of connection points: 6
#     Node 2, Type 0, BuildingBlock: BETGAK_clean_sbu_0, # of connection points: 6
#     Edge 3, Type (0, 0), None
#     Edge 4, Type (0, 0), None
#     Edge 5, Type (0, 0), None
#     Edge 6, Type (0, 0), None
#     Edge 7, Type (0, 0), None
#     Edge 8, Type (0, 0), None
#     Edge 9, Type (0, 0), None
#     Edge 10, Type (0, 0), None
#     Edge 11, Type (0, 0), None
# Relax obj value: 0.236
# Max RMSD: 0.317
# Mean RMSD: 0.175
data_MOF--net-kag--node1-BETGAK_clean_sbu_0--edge1-none
_symmetry_space_group_name_H-M    P1
_symmetry_Int_Tables_number       1
_symmetry_cell_setting            triclinic
loop_
_symmetry_equiv_pos_as_xyz
'x, y, z'
_cell_length_a     14.249635
_cell_length_b     25.493324
_cell_length_c     6.1613888
_cell_angle_alpha  94.876531
_cell_angle_beta   90.885327
_cell_angle_gamma 82.632916
loop_
_atom_site_label
_atom_site_type_symbol
_atom_site_fract_x
_atom_site_fract_y
_atom_site_fract_z
_atom_type_partial_charge
La0 La 0.16331 0.47526 1.00385 0.0
La1 La 1.1239 0.59053 0.07141 0.0
C2 C 0.181 0.37692 0.04724 0.0
C3 C 1.13257 0.32888 1.01829 0.0
C4 C 0.14352 0.29539 0.82438 0.0
C5 C 1.10998 0.24605 0.80889 0.0
C6 C 1.06588 0.22897 0.98781 0.0
C7 C 1.05238 0.26308 0.17927 0.0
C8 C 1.08562 0.31244 0.19461 0.0
C9 C 0.15003 0.52199 0.63366 0.0
C10 C 0.94514 0.52857 1.02711 0.0
C11 C 1.1061 0.68892 1.02881 0.0
C12 C 0.15459 0.73694 0.0573 0.0
C13 C 0.14369 0.77049 0.25103 0.0
C14 C 0.17723 0.81983 0.26614 0.0
C15 C 0.2213 0.83684 0.08702 0.0
C16 C 0.23475 0.80266 0.89574 0.0
C17 C 0.20151 0.7533 0.88077 0.0
C18 C 1.13701 0.54358 0.44136 0.0
C19 C 0.34206 0.53722 0.0479 0.0
O20 O 0.2056 0.39734 0.87223 0.0
O21 O 0.15057 0.41345 0.20131 0.0
O22 O 0.2083 0.48014 0.66601 0.0
O23 O 1.09965 0.53521 0.80145 0.0
O24 O 1.00569 0.48455 0.03918 0.0
O25 O 0.97717 0.57469 1.01346 0.0
O26 O 1.08199 0.66841 0.20405 0.0
O27 O 1.13611 0.65245 0.87416 0.0
O28 O 1.07869 0.58542 0.40909 0.0
O29 O 0.18754 0.53063 0.27371 0.0
O30 O 0.28149 0.58124 1.03567 0.0
O31 O 0.31003 0.49112 0.06177 0.0
H32 H 0.18093 0.30644 0.68697 0.0
H33 H 1.12185 0.22042 0.65984 0.0
H34 H 1.01707 0.25131 0.3184 0.0
H35 H 1.07698 0.33701 0.34706 0.0
H36 H 1.10629 0.7595 0.38858 0.0
H37 H 0.16539 0.84552 0.41506 0.0
H38 H 0.27003 0.81438 0.75646 0.0
H39 H 0.21011 0.72868 0.72845 0.0
La40 La 0.7462 1.02331 0.05355 0.0
La41 La 0.54101 0.04245 1.02049 0.0
C42 C 0.91809 1.02898 0.98781 0.0
C43 C 0.96727 0.07623 0.97254 0.0
C44 C 1.02045 0.09456 0.15043 0.0
C45 C 1.05395 0.14372 0.15338 0.0
C46 C 1.0358 0.17531 0.97746 0.0
C47 C 0.98723 0.15572 0.79424 0.0
C48 C 0.95314 0.1067 0.79179 0.0
C49 C 0.66272 1.02943 0.43648 0.0
C50 C 0.64145 0.14344 0.04533 0.0
C51 C 0.36905 0.03681 0.08545 0.0
C52 C 0.31988 0.98957 0.10115 0.0
C53 C 0.26665 0.97118 0.92346 0.0
C54 C 0.23317 0.92202 0.92087 0.0
C55 C 0.25138 0.8905 0.09696 0.0
C56 C 0.3 0.91015 0.27998 0.0
C57 C 0.33408 0.95916 0.28207 0.0
C58 C 0.62487 0.0364 0.63773 0.0
C59 C 0.64575 0.92234 1.02918 0.0
O60 O 0.88399 1.02371 0.17952 0.0
O61 O 0.85776 1.01922 0.83181 0.0
O62 O 0.73755 0.99679 0.38218 0.0
O63 O 0.63791 0.05788 0.28098 0.0
O64 O 0.72037 0.10984 1.02073 0.0
O65 O 0.55918 0.12601 0.06968 0.0
O66 O 0.40337 0.04189 0.89379 0.0
O67 O 0.42919 0.04674 0.24166 0.0
O68 O 0.55004 0.06906 0.69194 0.0
O69 O 0.64922 1.00787 0.79315 0.0
O70 O 0.56684 0.95595 0.05397 0.0
O71 O 0.72799 0.93976 1.00448 0.0
H72 H 1.03316 0.07176 0.29099 0.0
H73 H 1.0931 0.15734 0.29474 0.0
H74 H 0.97233 0.17919 0.65631 0.0
H75 H 0.91269 0.09376 0.65147 0.0
H76 H 0.2539 0.99393 0.78276 0.0
H77 H 0.19398 0.90836 0.77966 0.0
H78 H 0.31496 0.88672 0.41805 0.0
H79 H 0.37459 0.97214 0.42223 0.0
La80 La 0.63259 0.59733 0.08478 0.0
La81 La 0.65461 0.46846 0.9901 0.0
C82 C 0.62959 0.69523 0.05083 0.0
C83 C 0.63305 0.75293 1.03218 0.0
C84 C 0.71998 0.77365 0.05188 0.0
C85 C 0.72407 0.82826 0.04759 0.0
C86 C 0.64114 0.86395 1.02681 0.0
C87 C 0.55399 0.84316 1.00567 0.0
C88 C 0.5501 0.78827 1.00673 0.0
C89 C 0.6395 0.54652 0.44907 0.0
C90 C 0.44771 0.53839 0.05197 0.0
C91 C 0.65759 0.37056 1.02402 0.0
C92 C 0.65412 0.31286 0.04263 0.0
C93 C 0.5672 0.29214 1.02277 0.0
C94 C 0.56311 0.23752 1.02699 0.0
C95 C 0.64604 0.20183 0.04786 0.0
C96 C 0.73318 0.22263 0.06919 0.0
C97 C 0.73707 0.27752 0.0682 0.0
C98 C 0.64772 0.51927 0.62581 0.0
C99 C 0.83948 0.52741 1.02294 0.0
O100 O 0.69582 0.6667 0.15504 0.0
O101 O 0.56425 0.66819 0.96126 0.0
O102 O 0.62765 0.59773 0.44786 0.0
O103 O 0.64253 0.52816 0.25362 0.0
O104 O 0.48283 0.58413 0.03892 0.0
O105 O 0.50283 0.4923 0.06825 0.0
O106 O 0.59139 0.3991 0.91974 0.0
O107 O 0.72291 0.39761 0.11368 0.0
O108 O 0.65959 0.46807 0.62702 0.0
O109 O 0.64461 0.53764 0.82126 0.0
O110 O 0.80436 0.48167 1.036 0.0
O111 O 0.78437 0.5735 1.00664 0.0
H112 H 0.78523 0.74756 0.07189 0.0
H113 H 0.79238 0.84258 0.06446 0.0
H114 H 0.48858 0.86929 0.98842 0.0
H115 H 0.48195 0.77366 0.99259 0.0
H116 H 0.50196 0.31823 1.00266 0.0
H117 H 0.49481 0.2232 1.00997 0.0
H118 H 0.7986 0.1965 0.08651 0.0
H119 H 0.80521 0.29214 0.08246 0.0
loop_
_geom_bond_atom_site_label_1
_geom_bond_atom_site_label_2
_geom_bond_distance
_geom_bond_site_symmetry_2
_ccdc_geom_bond_type
La0 C2 2.928 1_455 S
La0 O20 2.521 1_455 S
La0 O21 2.628 1_456 S
La0 O22 2.554 . S
La0 O23 2.757 . S
La0 O24 2.470 1_455 S
La0 O29 2.482 1_456 S
La0 O31 2.503 . S
La1 C11 2.928 1_655 S
La1 O23 2.482 1_654 S
La1 O25 2.503 . S
La1 O26 2.521 1_655 S
La1 O27 2.628 1_654 S
La1 O28 2.554 1_655 S
La1 O29 2.757 . S
La1 O30 2.470 1_655 S
C2 La0 2.928 1_655 S
C2 C3 1.503 . S
C2 O20 1.261 . S
C2 O21 1.243 1_556 S
C3 C2 1.503 . S
C3 C4 1.394 . S
C3 C8 1.373 1_556 S
C4 C3 1.394 . S
C4 C5 1.380 . S
C4 H32 0.930 . S
C5 C4 1.380 . S
C5 C6 1.376 . S
C5 H33 0.930 . S
C6 C5 1.376 . S
C6 C7 1.370 1_556 S
C7 C6 1.370 1_554 S
C7 C8 1.396 . S
C7 H34 0.929 . S
C8 C3 1.373 1_554 S
C8 C7 1.396 . S
C8 H35 0.929 . S
C9 O22 1.240 . S
C9 O23 1.289 . S
C10 O24 1.258 . S
C10 O25 1.256 1_556 S
C11 La1 2.928 1_455 S
C11 C12 1.503 . S
C11 O26 1.261 . S
C11 O27 1.243 1_554 S
C12 C11 1.503 . S
C12 C13 1.394 . S
C12 C17 1.373 1_554 S
C13 C12 1.394 . S
C13 C14 1.380 . S
C13 H36 0.930 . S
C14 C13 1.380 . S
C14 C15 1.376 . S
C14 H37 0.930 . S
C15 C14 1.376 . S
C15 C16 1.370 1_554 S
C16 C15 1.370 1_556 S
C16 C17 1.396 . S
C16 H38 0.929 . S
C17 C12 1.373 1_556 S
C17 C16 1.396 . S
C17 H39 0.929 . S
C18 O28 1.240 1_655 S
C18 O29 1.289 . S
C19 O30 1.258 . S
C19 O31 1.256 1_554 S
O20 La0 2.521 1_655 S
O20 C2 1.261 . S
O21 La0 2.628 1_654 S
O21 C2 1.243 1_554 S
O22 La0 2.554 . S
O22 C9 1.240 . S
O23 La0 2.757 . S
O23 La1 2.482 1_456 S
O23 C9 1.289 . S
O24 La0 2.470 1_655 S
O24 C10 1.258 . S
O25 La1 2.503 . S
O25 C10 1.256 1_554 S
O26 La1 2.521 1_455 S
O26 C11 1.261 . S
O27 La1 2.628 1_456 S
O27 C11 1.243 1_556 S
O28 La1 2.554 1_455 S
O28 C18 1.240 1_455 S
O29 La0 2.482 1_654 S
O29 La1 2.757 . S
O29 C18 1.289 . S
O30 La1 2.470 1_455 S
O30 C19 1.258 . S
O31 La0 2.503 . S
O31 C19 1.256 1_556 S
H32 C4 0.930 . S
H33 C5 0.930 . S
H34 C7 0.929 . S
H35 C8 0.929 . S
H36 C13 0.930 . S
H37 C14 0.930 . S
H38 C16 0.929 . S
H39 C17 0.929 . S
La40 C42 2.928 1_554 S
La40 O60 2.521 . S
La40 O61 2.628 1_554 S
La40 O62 2.554 . S
La40 O63 2.757 1_545 S
La40 O64 2.470 . S
La40 O69 2.482 1_554 S
La40 O71 2.503 1_544 S
La41 C51 2.928 1_556 S
La41 O63 2.482 1_556 S
La41 O65 2.503 1_566 S
La41 O66 2.521 . S
La41 O67 2.628 1_556 S
La41 O68 2.554 . S
La41 O69 2.757 1_565 S
La41 O70 2.470 . S
C42 La40 2.928 1_556 S
C42 C43 1.503 . S
C42 O60 1.261 1_556 S
C42 O61 1.243 . S
C43 C42 1.503 . S
C43 C44 1.394 1_556 S
C43 C48 1.373 . S
C44 C43 1.394 1_554 S
C44 C45 1.380 . S
C44 H72 0.930 . S
C45 C44 1.380 . S
C45 C46 1.376 1_554 S
C45 H73 0.930 . S
C46 C45 1.376 1_556 S
C46 C47 1.370 . S
C47 C46 1.370 . S
C47 C48 1.396 . S
C47 H74 0.929 . S
C48 C43 1.373 . S
C48 C47 1.396 . S
C48 H75 0.929 . S
C49 O62 1.240 . S
C49 O63 1.289 1_545 S
C50 O64 1.258 . S
C50 O65 1.256 . S
C51 La41 2.928 1_554 S
C51 C52 1.503 . S
C51 O66 1.261 1_554 S
C51 O67 1.243 . S
C52 C51 1.503 . S
C52 C53 1.394 1_554 S
C52 C57 1.373 . S
C53 C52 1.394 1_556 S
C53 C54 1.380 . S
C53 H76 0.930 . S
C54 C53 1.380 . S
C54 C55 1.376 1_556 S
C54 H77 0.930 . S
C55 C54 1.376 1_554 S
C55 C56 1.370 . S
C56 C55 1.370 . S
C56 C57 1.396 . S
C56 H78 0.929 . S
C57 C52 1.373 . S
C57 C56 1.396 . S
C57 H79 0.929 . S
C58 O68 1.241 1_545 S
C58 O69 1.289 . S
C59 O70 1.258 . S
C59 O71 1.256 . S
O60 La40 2.521 . S
O60 C42 1.261 1_554 S
O61 La40 2.628 1_556 S
O61 C42 1.243 . S
O62 La40 2.554 . S
O62 C49 1.240 . S
O63 La40 2.757 1_565 S
O63 La41 2.482 1_554 S
O63 C49 1.289 1_565 S
O64 La40 2.470 . S
O64 C50 1.258 . S
O65 La41 2.503 1_544 S
O65 C50 1.256 . S
O66 La41 2.521 . S
O66 C51 1.261 1_556 S
O67 La41 2.628 1_554 S
O67 C51 1.243 . S
O68 La41 2.554 . S
O68 C58 1.241 1_565 S
O69 La40 2.482 1_556 S
O69 La41 2.757 1_545 S
O69 C58 1.289 . S
O70 La41 2.470 . S
O70 C59 1.258 . S
O71 La40 2.503 1_566 S
O71 C59 1.256 . S
H72 C44 0.930 . S
H73 C45 0.930 . S
H74 C47 0.929 . S
H75 C48 0.929 . S
H76 C53 0.930 . S
H77 C54 0.930 . S
H78 C56 0.929 . S
H79 C57 0.929 . S
La80 C82 2.928 . S
La80 O100 2.521 . S
La80 O101 2.628 1_554 S
La80 O102 2.554 . S
La80 O103 2.757 . S
La80 O104 2.470 . S
La80 O109 2.482 1_554 S
La80 O111 2.503 . S
La81 C91 2.928 . S
La81 O103 2.482 1_556 S
La81 O105 2.503 . S
La81 O106 2.521 . S
La81 O107 2.628 1_556 S
La81 O108 2.554 . S
La81 O109 2.757 . S
La81 O110 2.470 . S
C82 La80 2.928 . S
C82 C83 1.503 . S
C82 O100 1.261 . S
C82 O101 1.243 1_554 S
C83 C82 1.503 . S
C83 C84 1.394 . S
C83 C88 1.373 1_554 S
C84 C83 1.394 . S
C84 C85 1.380 . S
C84 H112 0.930 . S
C85 C84 1.380 . S
C85 C86 1.376 1_554 S
C85 H113 0.930 . S
C86 C85 1.376 1_556 S
C86 C87 1.370 . S
C87 C86 1.370 . S
C87 C88 1.396 . S
C87 H114 0.929 . S
C88 C83 1.373 1_556 S
C88 C87 1.396 . S
C88 H115 0.929 . S
C89 O102 1.240 . S
C89 O103 1.289 . S
C90 O104 1.258 . S
C90 O105 1.256 1_554 S
C91 La81 2.928 . S
C91 C92 1.503 . S
C91 O106 1.261 . S
C91 O107 1.243 1_556 S
C92 C91 1.503 . S
C92 C93 1.394 . S
C92 C97 1.373 1_556 S
C93 C92 1.394 . S
C93 C94 1.380 . S
C93 H116 0.930 . S
C94 C93 1.380 . S
C94 C95 1.376 1_556 S
C94 H117 0.930 . S
C95 C94 1.376 1_554 S
C95 C96 1.370 . S
C96 C95 1.370 . S
C96 C97 1.396 . S
C96 H118 0.929 . S
C97 C92 1.373 1_554 S
C97 C96 1.396 . S
C97 H119 0.929 . S
C98 O108 1.240 . S
C98 O109 1.289 . S
C99 O110 1.258 . S
C99 O111 1.256 1_556 S
O100 La80 2.521 . S
O100 C82 1.261 . S
O101 La80 2.628 1_556 S
O101 C82 1.243 1_556 S
O102 La80 2.554 . S
O102 C89 1.240 . S
O103 La80 2.757 . S
O103 La81 2.482 1_554 S
O103 C89 1.289 . S
O104 La80 2.470 . S
O104 C90 1.258 . S
O105 La81 2.503 . S
O105 C90 1.256 1_556 S
O106 La81 2.521 . S
O106 C91 1.261 . S
O107 La81 2.628 1_554 S
O107 C91 1.243 1_554 S
O108 La81 2.554 . S
O108 C98 1.240 . S
O109 La80 2.482 1_556 S
O109 La81 2.757 . S
O109 C98 1.289 . S
O110 La81 2.470 . S
O110 C99 1.258 . S
O111 La80 2.503 . S
O111 C99 1.256 1_554 S
H112 C84 0.930 . S
H113 C85 0.930 . S
H114 C87 0.929 . S
H115 C88 0.929 . S
H116 C93 0.930 . S
H117 C94 0.930 . S
H118 C96 0.929 . S
H119 C97 0.929 . S
C9 C18 1.511 1_455 S
C49 C58 1.479 . S
C98 C89 1.535 . S
C19 C90 3.981 . S
C46 C6 1.409 . S
C59 C86 4.806 . S
C10 C99 3.981 . S
C15 C55 1.409 . S
C95 C50 4.806 . S
