# Generated by pormake.
# Topology acs, (6)-cn, num edge types: 1
# Building blocks:
#     Node 0, Type 0, BuildingBlock: IZENUY_clean_sbu_0, # of connection points: 6
#     Node 1, Type 0, BuildingBlock: IZENUY_clean_sbu_0, # of connection points: 6
#     Edge 2, Type (0, 0), BuildingBlock: XIVTED_clean_linker_0, # of connection points: 2
#     Edge 3, Type (0, 0), BuildingBlock: XIVTED_clean_linker_0, # of connection points: 2
#     Edge 4, Type (0, 0), BuildingBlock: XIVTED_clean_linker_0, # of connection points: 2
#     Edge 5, Type (0, 0), BuildingBlock: XIVTED_clean_linker_0, # of connection points: 2
#     Edge 6, Type (0, 0), BuildingBlock: XIVTED_clean_linker_0, # of connection points: 2
#     Edge 7, Type (0, 0), BuildingBlock: XIVTED_clean_linker_0, # of connection points: 2
# Relax obj value: 0.000
# Max RMSD: 0.012
# Mean RMSD: 0.012
data_MOF--net-acs--node1-IZENUY_clean_sbu_0--edge1-XIVTED_clean_linker_0
_symmetry_space_group_name_H-M    P1
_symmetry_Int_Tables_number       1
_symmetry_cell_setting            triclinic
loop_
_symmetry_equiv_pos_as_xyz
'x, y, z'
_cell_length_a     20.46448
_cell_length_b     20.473245
_cell_length_c     21.388545
_cell_angle_alpha  89.950793
_cell_angle_beta   90.018425
_cell_angle_gamma 119.79584
loop_
_atom_site_label
_atom_site_type_symbol
_atom_site_fract_x
_atom_site_fract_y
_atom_site_fract_z
_atom_type_partial_charge
Fe0 Fe 0.63569 0.32736 0.21477 0.0
Fe1 Fe 0.78617 0.32838 0.21426 0.0
O2 O 0.73548 0.37776 0.21469 0.0
Fe3 Fe 0.78462 0.47751 0.21507 0.0
O4 O 0.71388 0.48599 0.26146 0.0
O5 O 0.6319 0.36988 0.28819 0.0
O6 O 0.62744 0.24791 0.26064 0.0
C7 C 0.67361 0.24265 0.29677 0.0
C8 C 0.67108 0.44934 0.13289 0.0
O9 O 0.74364 0.28171 0.28752 0.0
C10 C 0.87037 0.44202 0.13216 0.0
O11 O 0.63271 0.28141 0.14135 0.0
O12 O 0.71616 0.24879 0.16823 0.0
O13 O 0.74122 0.48104 0.142 0.0
O14 O 0.62564 0.39759 0.16895 0.0
C15 C 0.87068 0.44962 0.29684 0.0
O16 O 0.83208 0.37187 0.14098 0.0
O17 O 0.86437 0.48737 0.16871 0.0
C18 C 0.66454 0.24296 0.13212 0.0
O19 O 0.86555 0.39879 0.26021 0.0
O20 O 0.83134 0.48065 0.2882 0.0
C21 C 0.66263 0.43985 0.29753 0.0
Fe22 Fe 0.50144 0.76248 0.71451 0.0
Fe23 Fe 0.35096 0.76146 0.71502 0.0
O24 O 0.40165 0.71208 0.71459 0.0
Fe25 Fe 0.35251 0.61233 0.7142 0.0
O26 O 0.39591 0.6088 0.78728 0.0
O27 O 0.51149 0.69225 0.76032 0.0
O28 O 0.50441 0.80843 0.78793 0.0
C29 C 0.47259 0.84689 0.79716 0.0
C30 C 0.47449 0.64999 0.63175 0.0
O31 O 0.42097 0.84105 0.76104 0.0
C32 C 0.26645 0.64022 0.63244 0.0
O33 O 0.50969 0.84194 0.66864 0.0
O34 O 0.39349 0.80814 0.64175 0.0
O35 O 0.42325 0.60385 0.66781 0.0
O36 O 0.50522 0.71997 0.64109 0.0
C37 C 0.26676 0.64782 0.79711 0.0
O38 O 0.27157 0.69105 0.66907 0.0
O39 O 0.30578 0.6092 0.64108 0.0
C40 C 0.46351 0.8472 0.63251 0.0
O41 O 0.30505 0.71797 0.7883 0.0
O42 O 0.27276 0.60248 0.76057 0.0
C43 C 0.46604 0.64051 0.79639 0.0
H44 H 0.41826 0.94053 0.8284 0.0
H45 H 0.71886 0.14931 0.10088 0.0
H46 H 0.58904 0.88508 0.87991 0.0
H47 H 0.54808 0.20476 0.04937 0.0
H48 H 0.67231 0.05276 0.02008 0.0
H49 H 0.46482 1.03709 0.9092 0.0
C50 C 0.46561 0.94857 0.85669 0.0
C51 C 0.49994 0.90461 0.84708 0.0
C52 C 0.64496 0.08598 0.0264 0.0
C53 C 0.55359 1.01554 0.93999 0.0
C54 C 0.67152 0.14127 0.07259 0.0
C55 C 0.63718 0.18523 0.0822 0.0
C56 C 0.58354 0.0743 -0.01071 0.0
C57 C 0.57624 0.17222 0.0438 0.0
C58 C 0.49216 1.00386 0.90288 0.0
C59 C 0.56089 0.91763 0.88548 0.0
N60 N 0.55132 0.11787 -0.0009 0.0
N61 N 0.58581 0.97198 0.93018 0.0
H62 H 0.58932 0.7296 0.54818 0.0
H63 H 0.54781 0.36024 0.3811 0.0
H64 H 0.42379 0.50286 0.60081 0.0
H65 H 0.71334 0.58698 0.32847 0.0
H66 H 0.50174 0.41144 0.46216 0.0
H67 H 0.63539 0.6784 0.46712 0.0
C68 C 0.56261 0.66912 0.54273 0.0
C69 C 0.50271 0.62055 0.58159 0.0
C70 C 0.54815 0.44996 0.43284 0.0
C71 C 0.5552 0.56151 0.48885 0.0
C72 C 0.57452 0.42072 0.38655 0.0
C73 C 0.63442 0.4693 0.34769 0.0
C74 C 0.58192 0.52833 0.44043 0.0
C75 C 0.66689 0.54726 0.35712 0.0
C76 C 0.58898 0.63989 0.49644 0.0
C77 C 0.47024 0.54259 0.57216 0.0
N78 N 0.6402 0.57427 0.40241 0.0
N79 N 0.49693 0.51557 0.52686 0.0
H80 H 0.96391 0.58977 0.10174 0.0
H81 H 0.17322 0.50007 0.82754 0.0
H82 H 0.90877 0.36461 0.04858 0.0
H83 H 0.22836 0.72524 0.8807 0.0
H84 H 0.07658 0.44968 0.90836 0.0
H85 H 1.06055 0.64017 0.02092 0.0
C86 C 0.97203 0.55078 0.07309 0.0
C87 C 0.92813 0.47267 0.08224 0.0
C88 C 0.10976 0.5101 0.9024 0.0
C89 C 1.03916 0.5304 -0.0107 0.0
C90 C 0.1651 0.53906 0.85619 0.0
C91 C 0.20899 0.61717 0.84704 0.0
C92 C 0.09797 0.55944 0.93998 0.0
C93 C 0.19587 0.66469 0.8859 0.0
C94 C 1.02737 0.57974 0.02688 0.0
C95 C 0.94126 0.42515 0.04337 0.0
N96 N 0.14147 0.63505 0.9306 0.0
N97 N 0.99565 0.45479 -0.00132 0.0
H98 H 0.38382 0.88212 0.54839 0.0
H99 H 0.75331 0.20773 0.38089 0.0
H100 H 0.61071 0.9433 0.6019 0.0
H101 H 0.52642 0.14655 0.32737 0.0
H102 H 0.70211 0.1112 0.4624 0.0
H103 H 0.43502 0.97864 0.46688 0.0
C104 C 0.44434 0.91576 0.54306 0.0
C105 C 0.49295 0.90463 0.58227 0.0
C106 C 0.66356 0.11893 0.43278 0.0
C107 C 0.55198 1.01525 0.48901 0.0
C108 C 0.69279 0.17408 0.38622 0.0
C109 C 0.64417 0.18522 0.347 0.0
C110 C 0.58515 0.07459 0.44027 0.0
C111 C 0.56617 0.13995 0.3563 0.0
C112 C 0.47357 0.97091 0.4965 0.0
C113 C 0.57095 0.94989 0.57298 0.0
N114 N 0.53917 0.08669 0.40186 0.0
N115 N 0.59796 1.00315 0.52741 0.0
H116 H 0.61377 0.69423 0.82736 0.0
H117 H 0.52335 0.39562 0.10192 0.0
H118 H 0.38843 0.5246 0.8796 0.0
H119 H 0.74869 0.56524 0.04968 0.0
H120 H 0.47316 0.44192 0.02068 0.0
H121 H 0.66397 0.64793 0.9086 0.0
C122 C 0.57471 0.64717 0.85588 0.0
C123 C 0.4966 0.61311 0.84636 0.0
C124 C 0.53358 0.46907 0.02694 0.0
C125 C 0.5541 0.55978 0.93981 0.0
C126 C 0.56242 0.44267 0.0734 0.0
C127 C 0.64053 0.47673 0.08291 0.0
C128 C 0.58302 0.53006 -0.01054 0.0
C129 C 0.68815 0.53731 0.0442 0.0
C130 C 0.60355 0.62077 0.90234 0.0
C131 C 0.44898 0.55253 0.88507 0.0
N132 N 0.65862 0.56207 -0.00075 0.0
N133 N 0.47851 0.52778 0.93003 0.0
H134 H 0.17128 0.69318 0.60243 0.0
H135 H 0.96585 0.39667 0.32685 0.0
H136 H 0.22965 0.52534 0.54841 0.0
H137 H 0.90748 0.56451 0.38087 0.0
H138 H 1.06227 0.44284 0.40781 0.0
H139 H 0.07486 0.647 0.52147 0.0
C140 C 0.1639 0.64654 0.57357 0.0
C141 C 0.20866 0.61293 0.58251 0.0
C142 C 1.02844 0.46963 0.40201 0.0
C143 C 0.09788 0.55974 0.48937 0.0
C144 C 0.97323 0.44331 0.35571 0.0
C145 C 0.92847 0.47691 0.34677 0.0
C146 C 1.03925 0.5301 0.43991 0.0
C147 C 0.94066 0.53694 0.38591 0.0
C148 C 0.10868 0.62021 0.52727 0.0
C149 C 0.19647 0.5529 0.54337 0.0
N150 N 0.99496 0.56165 0.43071 0.0
N151 N 0.14217 0.52819 0.49857 0.0
loop_
_geom_bond_atom_site_label_1
_geom_bond_atom_site_label_2
_geom_bond_distance
_geom_bond_site_symmetry_2
_ccdc_geom_bond_type
Fe0 O2 1.918 . S
Fe0 O5 1.997 . S
Fe0 O6 2.002 . S
Fe0 O11 1.976 . S
Fe0 O14 1.996 . S
Fe1 O2 1.918 . S
Fe1 O9 1.997 . S
Fe1 O12 1.996 . S
Fe1 O16 1.976 . S
Fe1 O19 2.002 . S
O2 Fe0 1.918 . S
O2 Fe1 1.918 . S
O2 Fe3 1.918 . S
Fe3 O2 1.918 . S
Fe3 O4 2.002 . S
Fe3 O13 1.976 . S
Fe3 O17 1.996 . S
Fe3 O20 1.997 . S
O4 Fe3 2.002 . S
O4 C21 1.295 . S
O5 Fe0 1.997 . S
O5 C21 1.235 . S
O6 Fe0 2.002 . S
O6 C7 1.295 . S
C7 O6 1.295 . S
C7 O9 1.235 . S
C8 O13 1.287 . S
C8 O14 1.255 . S
O9 Fe1 1.997 . S
O9 C7 1.235 . S
C10 O16 1.287 . S
C10 O17 1.255 . S
O11 Fe0 1.976 . S
O11 C18 1.287 . S
O12 Fe1 1.996 . S
O12 C18 1.255 . S
O13 Fe3 1.976 . S
O13 C8 1.287 . S
O14 Fe0 1.996 . S
O14 C8 1.255 . S
C15 O19 1.295 . S
C15 O20 1.235 . S
O16 Fe1 1.976 . S
O16 C10 1.287 . S
O17 Fe3 1.996 . S
O17 C10 1.255 . S
C18 O11 1.287 . S
C18 O12 1.255 . S
O19 Fe1 2.002 . S
O19 C15 1.295 . S
O20 Fe3 1.997 . S
O20 C15 1.235 . S
C21 O4 1.295 . S
C21 O5 1.235 . S
Fe22 O24 1.918 . S
Fe22 O27 1.997 . S
Fe22 O28 2.002 . S
Fe22 O33 1.976 . S
Fe22 O36 1.996 . S
Fe23 O24 1.918 . S
Fe23 O31 1.997 . S
Fe23 O34 1.996 . S
Fe23 O38 1.976 . S
Fe23 O41 2.002 . S
O24 Fe22 1.918 . S
O24 Fe23 1.918 . S
O24 Fe25 1.918 . S
Fe25 O24 1.918 . S
Fe25 O26 2.002 . S
Fe25 O35 1.976 . S
Fe25 O39 1.996 . S
Fe25 O42 1.997 . S
O26 Fe25 2.002 . S
O26 C43 1.295 . S
O27 Fe22 1.997 . S
O27 C43 1.235 . S
O28 Fe22 2.002 . S
O28 C29 1.295 . S
C29 O28 1.295 . S
C29 O31 1.235 . S
C30 O35 1.287 . S
C30 O36 1.255 . S
O31 Fe23 1.997 . S
O31 C29 1.235 . S
C32 O38 1.287 . S
C32 O39 1.255 . S
O33 Fe22 1.976 . S
O33 C40 1.287 . S
O34 Fe23 1.996 . S
O34 C40 1.255 . S
O35 Fe25 1.976 . S
O35 C30 1.287 . S
O36 Fe22 1.996 . S
O36 C30 1.255 . S
C37 O41 1.295 . S
C37 O42 1.235 . S
O38 Fe23 1.976 . S
O38 C32 1.287 . S
O39 Fe25 1.996 . S
O39 C32 1.255 . S
C40 O33 1.287 . S
C40 O34 1.255 . S
O41 Fe23 2.002 . S
O41 C37 1.295 . S
O42 Fe25 1.997 . S
O42 C37 1.235 . S
C43 O26 1.295 . S
C43 O27 1.235 . S
H44 C50 0.930 . S
H45 C54 0.930 . S
H46 C59 0.929 . S
H47 C57 0.929 . S
H48 C52 0.929 1_565 S
H49 C58 0.929 1_545 S
C50 H44 0.930 . S
C50 C51 1.367 . S
C50 C58 1.378 . S
C51 C50 1.367 . S
C51 C59 1.433 . S
C52 H48 0.929 1_545 S
C52 C54 1.378 . S
C52 C56 1.350 . S
C53 C56 1.463 1_566 S
C53 C58 1.350 . S
C53 N61 1.427 . S
C54 H45 0.930 . S
C54 C52 1.378 . S
C54 C55 1.367 . S
C55 C54 1.367 . S
C55 C57 1.433 . S
C56 C52 1.350 . S
C56 C53 1.463 1_544 S
C56 N60 1.427 . S
C57 H47 0.929 . S
C57 C55 1.433 . S
C57 N60 1.384 . S
C58 H49 0.929 1_565 S
C58 C50 1.378 . S
C58 C53 1.350 . S
C59 H46 0.929 . S
C59 C51 1.433 . S
C59 N61 1.384 . S
N60 C56 1.427 . S
N60 C57 1.384 . S
N61 C53 1.427 . S
N61 C59 1.384 . S
H62 C68 0.930 . S
H63 C72 0.930 . S
H64 C77 0.929 . S
H65 C75 0.929 . S
H66 C70 0.929 . S
H67 C76 0.929 . S
C68 H62 0.930 . S
C68 C69 1.367 . S
C68 C76 1.378 . S
C69 C68 1.367 . S
C69 C77 1.433 . S
C70 H66 0.929 . S
C70 C72 1.378 . S
C70 C74 1.350 . S
C71 C74 1.463 . S
C71 C76 1.350 . S
C71 N79 1.427 . S
C72 H63 0.930 . S
C72 C70 1.378 . S
C72 C73 1.367 . S
C73 C72 1.367 . S
C73 C75 1.433 . S
C74 C70 1.350 . S
C74 C71 1.463 . S
C74 N78 1.427 . S
C75 H65 0.929 . S
C75 C73 1.433 . S
C75 N78 1.384 . S
C76 H67 0.929 . S
C76 C68 1.378 . S
C76 C71 1.350 . S
C77 H64 0.929 . S
C77 C69 1.433 . S
C77 N79 1.384 . S
N78 C74 1.427 . S
N78 C75 1.384 . S
N79 C71 1.427 . S
N79 C77 1.384 . S
H80 C86 0.930 . S
H81 C90 0.930 . S
H82 C95 0.929 . S
H83 C93 0.929 . S
H84 C88 0.929 1_655 S
H85 C94 0.929 1_455 S
C86 H80 0.930 . S
C86 C87 1.367 . S
C86 C94 1.378 . S
C87 C86 1.367 . S
C87 C95 1.433 . S
C88 H84 0.929 1_455 S
C88 C90 1.378 . S
C88 C92 1.350 . S
C89 C92 1.463 1_654 S
C89 C94 1.350 . S
C89 N97 1.427 1_554 S
C90 H81 0.930 . S
C90 C88 1.378 . S
C90 C91 1.367 . S
C91 C90 1.367 . S
C91 C93 1.433 . S
C92 C88 1.350 . S
C92 C89 1.463 1_456 S
C92 N96 1.427 1_556 S
C93 H83 0.929 . S
C93 C91 1.433 . S
C93 N96 1.384 1_556 S
C94 H85 0.929 1_655 S
C94 C86 1.378 . S
C94 C89 1.350 . S
C95 H82 0.929 . S
C95 C87 1.433 . S
C95 N97 1.384 1_554 S
N96 C92 1.427 1_554 S
N96 C93 1.384 1_554 S
N97 C89 1.427 1_556 S
N97 C95 1.384 1_556 S
H98 C104 0.930 . S
H99 C108 0.930 . S
H100 C113 0.929 . S
H101 C111 0.929 . S
H102 C106 0.929 . S
H103 C112 0.929 . S
C104 H98 0.930 . S
C104 C105 1.367 . S
C104 C112 1.378 . S
C105 C104 1.367 . S
C105 C113 1.433 . S
C106 H102 0.929 . S
C106 C108 1.378 . S
C106 C110 1.350 . S
C107 C110 1.463 1_565 S
C107 C112 1.350 . S
C107 N115 1.427 . S
C108 H99 0.930 . S
C108 C106 1.378 . S
C108 C109 1.367 . S
C109 C108 1.367 . S
C109 C111 1.433 . S
C110 C106 1.350 . S
C110 C107 1.463 1_545 S
C110 N114 1.427 . S
C111 H101 0.929 . S
C111 C109 1.433 . S
C111 N114 1.384 . S
C112 H103 0.929 . S
C112 C104 1.378 . S
C112 C107 1.350 . S
C113 H100 0.929 . S
C113 C105 1.433 . S
C113 N115 1.384 . S
N114 C110 1.427 . S
N114 C111 1.384 . S
N115 C107 1.427 . S
N115 C113 1.384 . S
H116 C122 0.930 . S
H117 C126 0.930 . S
H118 C131 0.929 . S
H119 C129 0.929 . S
H120 C124 0.929 . S
H121 C130 0.929 . S
C122 H116 0.930 . S
C122 C123 1.367 . S
C122 C130 1.378 . S
C123 C122 1.367 . S
C123 C131 1.433 . S
C124 H120 0.929 . S
C124 C126 1.378 . S
C124 C128 1.350 . S
C125 C128 1.463 1_556 S
C125 C130 1.350 . S
C125 N133 1.427 . S
C126 H117 0.930 . S
C126 C124 1.378 . S
C126 C127 1.367 . S
C127 C126 1.367 . S
C127 C129 1.433 . S
C128 C124 1.350 . S
C128 C125 1.463 1_554 S
C128 N132 1.427 . S
C129 H119 0.929 . S
C129 C127 1.433 . S
C129 N132 1.384 . S
C130 H121 0.929 . S
C130 C122 1.378 . S
C130 C125 1.350 . S
C131 H118 0.929 . S
C131 C123 1.433 . S
C131 N133 1.384 . S
N132 C128 1.427 . S
N132 C129 1.384 . S
N133 C125 1.427 . S
N133 C131 1.384 . S
H134 C140 0.930 . S
H135 C144 0.930 . S
H136 C149 0.929 . S
H137 C147 0.929 . S
H138 C142 0.929 1_455 S
H139 C148 0.929 1_655 S
C140 H134 0.930 . S
C140 C141 1.367 . S
C140 C148 1.378 . S
C141 C140 1.367 . S
C141 C149 1.433 . S
C142 H138 0.929 1_655 S
C142 C144 1.378 . S
C142 C146 1.350 . S
C143 C146 1.463 1_455 S
C143 C148 1.350 . S
C143 N151 1.427 . S
C144 H135 0.930 . S
C144 C142 1.378 . S
C144 C145 1.367 . S
C145 C144 1.367 . S
C145 C147 1.433 . S
C146 C142 1.350 . S
C146 C143 1.463 1_655 S
C146 N150 1.427 . S
C147 H137 0.929 . S
C147 C145 1.433 . S
C147 N150 1.384 . S
C148 H139 0.929 1_455 S
C148 C140 1.378 . S
C148 C143 1.350 . S
C149 H136 0.929 . S
C149 C141 1.433 . S
C149 N151 1.384 . S
N150 C146 1.427 . S
N150 C147 1.384 . S
N151 C143 1.427 . S
N151 C149 1.384 . S
C51 C29 1.485 . S
C55 C18 1.496 . S
C69 C30 1.496 . S
C73 C21 1.485 . S
C87 C10 1.496 . S
C91 C37 1.485 . S
C105 C40 1.499 . S
C109 C7 1.491 . S
C123 C43 1.487 . S
C127 C8 1.497 . S
C141 C32 1.496 . S
C145 C15 1.484 . S
