# Generated by pormake.
# Topology pcu, (6)-cn, num edge types: 1
# Building blocks:
#     Node 0, Type 0, BuildingBlock: KUMBOL_clean_sbu_0, # of connection points: 6
#     Edge 1, Type (0, 0), BuildingBlock: EZIPEK_clean_linker_0, # of connection points: 2
#     Edge 2, Type (0, 0), BuildingBlock: EZIPEK_clean_linker_0, # of connection points: 2
#     Edge 3, Type (0, 0), BuildingBlock: EZIPEK_clean_linker_0, # of connection points: 2
# Relax obj value: 0.000
# Max RMSD: 0.000
# Mean RMSD: 0.000
data_MOF--net-pcu--node1-KUMBOL_clean_sbu_0--edge1-EZIPEK_clean_linker_0
_symmetry_space_group_name_H-M    P1
_symmetry_Int_Tables_number       1
_symmetry_cell_setting            triclinic
loop_
_symmetry_equiv_pos_as_xyz
'x, y, z'
_cell_length_a     20.110392
_cell_length_b     10.052905
_cell_length_c     10.832923
_cell_angle_alpha  78.633216
_cell_angle_beta   113.87568
_cell_angle_gamma 113.74874
loop_
_atom_site_label
_atom_site_type_symbol
_atom_site_fract_x
_atom_site_fract_y
_atom_site_fract_z
_atom_type_partial_charge
Gd0 Gd 0.13816 0.10654 0.03846 0.0
Gd1 Gd 0.92646 0.90361 0.96854 0.0
C2 C 0.78943 0.43506 0.83409 0.0
C3 C 0.69983 0.46677 0.60899 0.0
C4 C 0.79325 0.67712 0.7436 0.0
C5 C 0.82278 0.58743 0.84617 0.0
C6 C 0.73024 0.61757 0.62494 0.0
C7 C 0.72959 0.37565 0.71333 0.0
C8 C 0.81423 0.34671 0.94623 0.0
C9 C 0.86818 0.41062 0.06803 0.0
N10 N 0.87952 0.64829 0.96228 0.0
C11 C 0.9 0.56228 0.07439 0.0
H12 H 0.94139 0.61063 0.16893 0.0
C13 C 0.79136 0.91345 0.66901 0.0
N14 N 0.82379 0.82229 0.76244 0.0
C15 C 0.72875 0.85941 0.54975 0.0
C16 C 0.6985 0.71097 0.5272 0.0
H17 H 0.81404 0.02832 0.68483 0.0
H18 H 0.70426 0.25918 0.70138 0.0
H19 H 0.12335 0.39945 0.83784 0.0
H20 H 0.78969 0.2293 0.94139 0.0
H21 H 0.88524 0.3432 0.15715 0.0
H22 H 0.65202 0.41927 0.51787 0.0
H23 H 0.25063 0.98203 0.32234 0.0
H24 H 0.2749 0.7809 0.06526 0.0
H25 H 0.17948 0.66689 0.84949 0.0
H26 H 0.41241 0.59116 0.48908 0.0
H27 H 0.70382 0.93222 0.4754 0.0
H28 H 0.64983 0.66887 0.43549 0.0
H29 H 0.36021 0.75115 0.3054 0.0
H30 H 0.36076 0.07826 0.53179 0.0
N31 N 0.18511 0.36188 0.04458 0.0
C32 C 0.25038 0.66348 0.06048 0.0
C33 C 0.1965 0.59951 0.93867 0.0
C34 C 0.27513 0.57519 0.17272 0.0
C35 C 0.2418 0.42281 0.16071 0.0
C36 C 0.16469 0.44785 0.93239 0.0
N37 N 0.2408 0.188 0.24459 0.0
C38 C 0.2713 0.33318 0.26338 0.0
C39 C 0.33582 0.15101 0.45738 0.0
C40 C 0.36602 0.29946 0.47988 0.0
C41 C 0.27325 0.0969 0.3381 0.0
C42 C 0.33427 0.3928 0.38206 0.0
H43 H 0.41465 0.34161 0.57162 0.0
O44 O 0.21572 0.01903 0.01869 0.0
O45 O 0.03986 0.89445 0.99369 0.0
O46 O 1.00502 0.88629 0.18851 0.0
O47 O 0.11609 0.0958 0.2298 0.0
O48 O 0.14733 0.88556 0.11465 0.0
O49 O 0.19592 0.20608 0.89355 0.0
O50 O 0.8489 0.991 0.98846 0.0
O51 O 1.0247 0.11553 0.01284 0.0
O52 O 0.05962 0.12389 0.81846 0.0
O53 O 0.94847 0.9145 0.7771 0.0
O54 O 0.91724 0.12473 0.89282 0.0
O55 O 0.86877 0.80393 0.11352 0.0
C56 C 0.0751 0.80757 0.05749 0.0
C57 C 0.36464 0.5436 0.39794 0.0
C58 C 0.33491 0.63466 0.2935 0.0
C59 C 0.2371 0.12258 0.934 0.0
C60 C 0.32196 0.19335 0.96931 0.0
C61 C 0.36236 0.33309 0.02143 0.0
C62 C 0.36404 0.11436 0.96218 0.0
C63 C 0.44579 0.17304 0.00924 0.0
C64 C 0.44371 0.39153 0.06816 0.0
C65 C 0.48547 0.3117 0.06305 0.0
C66 C 0.06382 0.9875 0.27153 0.0
C67 C 0.98953 0.20263 0.94961 0.0
C68 C 0.82756 0.88737 0.07314 0.0
C69 C 0.7427 0.81654 0.03784 0.0
C70 C 0.70232 0.67676 0.98581 0.0
C71 C 0.70059 0.89554 0.04485 0.0
C72 C 0.61884 0.83681 0.99777 0.0
C73 C 0.62098 0.61828 0.93904 0.0
C74 C 0.57918 0.69811 0.94403 0.0
C75 C 1.00077 0.02275 0.7354 0.0
H76 H 0.33139 0.39613 0.02824 0.0
H77 H 0.33344 0.00589 0.92322 0.0
H78 H 0.47441 0.49821 0.10994 0.0
H79 H 0.54858 0.35745 0.10141 0.0
H80 H 0.73332 0.61372 0.9791 0.0
H81 H 0.73117 1.00404 0.08374 0.0
H82 H 0.5903 0.51157 0.89732 0.0
H83 H 0.51608 0.65232 0.90566 0.0
C84 C 1.00619 0.86836 0.45031 0.0
C85 C 0.06042 0.98975 0.4078 0.0
C86 C 0.05839 0.14186 0.55663 0.0
C87 C 1.00416 0.02048 0.59912 0.0
N88 N 0.9013 0.78807 0.5328 0.0
N89 N 0.16327 0.22217 0.47413 0.0
C90 C 0.97065 0.8888 0.53089 0.0
C91 C 0.09393 0.12142 0.47606 0.0
N92 N 0.99251 0.73178 0.42084 0.0
N93 N 0.07208 0.27845 0.58611 0.0
H94 H 0.19769 0.19702 0.43967 0.0
H95 H 0.19253 0.31661 0.52864 0.0
H96 H 0.03861 0.29675 0.62886 0.0
H97 H 0.10789 0.37269 0.55161 0.0
H98 H 0.95671 0.63755 0.45539 0.0
H99 H 1.02596 0.71345 0.37805 0.0
H100 H 0.87206 0.69363 0.47829 0.0
H101 H 0.86687 0.81312 0.56733 0.0
C102 C 0.5052 0.98178 0.11173 0.0
C103 C 0.49002 0.08665 0.00605 0.0
C104 C 0.5594 0.02803 0.89522 0.0
C105 C 0.57458 0.92317 1.00091 0.0
N106 N 0.55596 0.78649 0.20108 0.0
N107 N 0.5086 0.22329 0.80584 0.0
C108 C 0.54593 0.89649 0.10705 0.0
C109 C 0.51865 0.11331 0.89989 0.0
N110 N 0.48362 0.96887 0.21953 0.0
N111 N 0.58099 0.04096 0.78744 0.0
H112 H 0.4763 0.28367 0.8032 0.0
H113 H 0.53561 0.2613 0.73515 0.0
H114 H 0.61221 0.9824 0.78174 0.0
H115 H 0.5642 0.10244 0.69936 0.0
H116 H 0.50043 0.9074 0.30761 0.0
H117 H 0.4524 0.02743 0.22525 0.0
H118 H 0.52892 0.74845 0.27173 0.0
H119 H 0.58827 0.72611 0.20375 0.0
C120 C 1.02761 0.61045 0.89585 0.0
C121 C 0.05173 0.65226 0.02938 0.0
C122 C 0.03722 0.39981 0.11128 0.0
C123 C 1.0131 0.35801 0.97776 0.0
N124 N 0.96414 0.41742 0.73871 0.0
N125 N 0.10064 0.59281 0.26843 0.0
C126 C 1.00111 0.4612 0.86884 0.0
C127 C 0.06372 0.54907 0.13829 0.0
N128 N 0.04097 0.71435 0.79792 0.0
N129 N 1.0238 0.29592 0.20918 0.0
H130 H 0.11754 0.69919 0.29431 0.0
H131 H 0.11988 0.52525 0.34966 0.0
H132 H 0.99475 0.18582 0.18959 0.0
H133 H 1.02919 0.32077 0.30238 0.0
H134 H 0.03553 0.68948 0.70469 0.0
H135 H 0.07001 0.82447 0.81746 0.0
H136 H 0.94489 0.48498 0.65749 0.0
H137 H 0.94719 0.31101 0.71285 0.0
loop_
_geom_bond_atom_site_label_1
_geom_bond_atom_site_label_2
_geom_bond_distance
_geom_bond_site_symmetry_2
_ccdc_geom_bond_type
Gd0 N31 2.661 1_554 S
Gd0 N37 2.601 . S
Gd0 O44 2.545 . S
Gd0 O45 2.606 1_444 S
Gd0 O47 2.429 1_545 S
Gd0 O48 2.545 1_545 S
Gd0 O49 2.412 . S
Gd0 O51 2.362 . S
Gd0 O52 2.324 1_554 S
Gd0 C59 2.828 . S
Gd1 N10 2.661 1_556 S
Gd1 N14 2.601 . S
Gd1 O45 2.362 . S
Gd1 O46 2.324 1_556 S
Gd1 O50 2.545 . S
Gd1 O51 2.606 1_666 S
Gd1 O53 2.429 1_565 S
Gd1 O54 2.545 1_565 S
Gd1 O55 2.412 . S
Gd1 C68 2.828 . S
C2 C5 1.417 . S
C2 C7 1.431 . S
C2 C8 1.412 1_556 S
C3 C6 1.437 . S
C3 C7 1.317 . S
C3 H22 0.929 . S
C4 C5 1.426 . S
C4 C6 1.413 . S
C4 N14 1.359 . S
C5 C2 1.417 . S
C5 C4 1.426 . S
C5 N10 1.350 1_556 S
C6 C3 1.437 . S
C6 C4 1.413 . S
C6 C16 1.391 . S
C7 C2 1.431 . S
C7 C3 1.317 . S
C7 H18 0.930 . S
C8 C2 1.412 1_554 S
C8 C9 1.355 . S
C8 H20 0.930 . S
C9 C8 1.355 . S
C9 C11 1.402 . S
C9 H21 0.930 . S
N10 Gd1 2.661 1_554 S
N10 C5 1.350 1_554 S
N10 C11 1.307 . S
C11 C9 1.402 . S
C11 N10 1.307 . S
C11 H12 0.930 . S
H12 C11 0.930 . S
C13 N14 1.334 . S
C13 C15 1.394 . S
C13 H17 0.930 . S
N14 Gd1 2.601 . S
N14 C4 1.359 . S
N14 C13 1.334 . S
C15 C13 1.394 . S
C15 C16 1.359 . S
C15 H27 0.930 . S
C16 C6 1.391 . S
C16 C15 1.359 . S
C16 H28 0.929 . S
H17 C13 0.930 . S
H18 C7 0.930 . S
H19 C36 0.930 . S
H20 C8 0.930 . S
H21 C9 0.930 . S
H22 C3 0.929 . S
H23 C41 0.930 . S
H24 C32 0.930 . S
H25 C33 0.930 . S
H26 C57 0.929 . S
H27 C15 0.930 . S
H28 C16 0.929 . S
H29 C58 0.930 . S
H30 C39 0.930 . S
N31 Gd0 2.661 1_556 S
N31 C35 1.350 1_556 S
N31 C36 1.307 . S
C32 H24 0.930 . S
C32 C33 1.355 . S
C32 C34 1.412 1_556 S
C33 H25 0.930 . S
C33 C32 1.355 . S
C33 C36 1.402 . S
C34 C32 1.412 1_554 S
C34 C35 1.417 . S
C34 C58 1.431 . S
C35 N31 1.350 1_554 S
C35 C34 1.417 . S
C35 C38 1.426 . S
C36 H19 0.930 . S
C36 N31 1.307 . S
C36 C33 1.402 . S
N37 Gd0 2.601 . S
N37 C38 1.359 . S
N37 C41 1.334 . S
C38 C35 1.426 . S
C38 N37 1.359 . S
C38 C42 1.413 . S
C39 H30 0.930 . S
C39 C40 1.359 . S
C39 C41 1.394 . S
C40 C39 1.359 . S
C40 C42 1.391 . S
C40 H43 0.929 . S
C41 H23 0.930 . S
C41 N37 1.334 . S
C41 C39 1.394 . S
C42 C38 1.413 . S
C42 C40 1.391 . S
C42 C57 1.437 . S
H43 C40 0.929 . S
O44 Gd0 2.545 . S
O44 C59 1.258 . S
O45 Gd0 2.606 1_666 S
O45 Gd1 2.362 . S
O45 C56 1.284 1_656 S
O46 Gd1 2.324 1_554 S
O46 C66 1.254 1_655 S
O47 Gd0 2.429 1_565 S
O47 C66 1.268 . S
O48 Gd0 2.545 1_565 S
O48 C56 1.250 . S
O49 Gd0 2.412 . S
O49 C59 1.252 . S
O50 Gd1 2.545 . S
O50 C68 1.258 . S
O51 Gd0 2.362 . S
O51 Gd1 2.606 1_444 S
O51 C67 1.284 1_454 S
O52 Gd0 2.324 1_556 S
O52 C75 1.254 1_455 S
O53 Gd1 2.429 1_545 S
O53 C75 1.268 . S
O54 Gd1 2.545 1_545 S
O54 C67 1.250 . S
O55 Gd1 2.412 . S
O55 C68 1.252 . S
C56 O45 1.284 1_454 S
C56 O48 1.250 . S
C57 H26 0.929 . S
C57 C42 1.437 . S
C57 C58 1.317 . S
C58 H29 0.930 . S
C58 C34 1.431 . S
C58 C57 1.317 . S
C59 Gd0 2.828 . S
C59 O44 1.258 . S
C59 O49 1.252 . S
C59 C60 1.497 . S
C60 C59 1.497 . S
C60 C61 1.395 . S
C60 C62 1.380 . S
C61 C60 1.395 . S
C61 C64 1.398 . S
C61 H76 0.930 . S
C62 C60 1.380 . S
C62 C63 1.391 . S
C62 H77 0.930 1_554 S
C63 C62 1.391 . S
C63 C65 1.387 . S
C64 C61 1.398 . S
C64 C65 1.380 . S
C64 H78 0.930 . S
C65 C63 1.387 . S
C65 C64 1.380 . S
C65 H79 0.930 . S
C66 O46 1.254 1_455 S
C66 O47 1.268 . S
C67 O51 1.284 1_656 S
C67 O54 1.250 . S
C68 Gd1 2.828 . S
C68 O50 1.258 . S
C68 O55 1.252 . S
C68 C69 1.497 . S
C69 C68 1.497 . S
C69 C70 1.395 . S
C69 C71 1.380 . S
C70 C69 1.395 . S
C70 C73 1.398 . S
C70 H80 0.930 . S
C71 C69 1.380 . S
C71 C72 1.391 . S
C71 H81 0.930 1_556 S
C72 C71 1.391 . S
C72 C74 1.387 . S
C73 C70 1.398 . S
C73 C74 1.380 . S
C73 H82 0.930 . S
C74 C72 1.387 . S
C74 C73 1.380 . S
C74 H83 0.930 . S
C75 O52 1.254 1_655 S
C75 O53 1.268 . S
H76 C61 0.930 . S
H77 C62 0.930 1_556 S
H78 C64 0.930 . S
H79 C65 0.930 . S
H80 C70 0.930 . S
H81 C71 0.930 1_554 S
H82 C73 0.930 . S
H83 C74 0.930 . S
C84 C85 1.363 1_665 S
C84 C90 1.379 . S
C84 N92 1.356 . S
C85 C84 1.363 1_445 S
C85 C91 1.363 . S
C86 C87 1.363 . S
C86 C91 1.379 . S
C86 N93 1.356 . S
C87 C86 1.363 . S
C87 C90 1.363 1_445 S
N88 C90 1.356 . S
N88 H100 0.984 . S
N88 H101 0.985 . S
N89 C91 1.356 . S
N89 H94 0.984 . S
N89 H95 0.985 . S
C90 C84 1.379 . S
C90 C87 1.363 1_665 S
C90 N88 1.356 . S
C91 C85 1.363 . S
C91 C86 1.379 . S
C91 N89 1.356 . S
N92 C84 1.356 . S
N92 H98 0.984 . S
N92 H99 0.984 . S
N93 C86 1.356 . S
N93 H96 0.984 . S
N93 H97 0.985 . S
H94 N89 0.984 . S
H95 N89 0.985 . S
H96 N93 0.984 . S
H97 N93 0.985 . S
H98 N92 0.984 . S
H99 N92 0.984 . S
H100 N88 0.984 . S
H101 N88 0.985 . S
C102 C103 1.363 1_565 S
C102 C108 1.379 . S
C102 N110 1.356 . S
C103 C102 1.363 1_545 S
C103 C109 1.363 1_554 S
C104 C105 1.363 1_556 S
C104 C109 1.379 . S
C104 N111 1.356 . S
C105 C104 1.363 1_554 S
C105 C108 1.363 1_545 S
N106 C108 1.356 . S
N106 H118 0.984 . S
N106 H119 0.985 . S
N107 C109 1.356 . S
N107 H112 0.984 . S
N107 H113 0.985 . S
C108 C102 1.379 . S
C108 C105 1.363 1_565 S
C108 N106 1.356 . S
C109 C103 1.363 1_556 S
C109 C104 1.379 . S
C109 N107 1.356 . S
N110 C102 1.356 . S
N110 H116 0.984 . S
N110 H117 0.984 . S
N111 C104 1.356 . S
N111 H114 0.984 . S
N111 H115 0.985 . S
H112 N107 0.984 . S
H113 N107 0.985 . S
H114 N111 0.984 . S
H115 N111 0.985 . S
H116 N110 0.984 . S
H117 N110 0.984 . S
H118 N106 0.984 . S
H119 N106 0.985 . S
C120 C121 1.363 1_656 S
C120 C126 1.379 . S
C120 N128 1.356 . S
C121 C120 1.363 1_454 S
C121 C127 1.363 . S
C122 C123 1.363 . S
C122 C127 1.379 . S
C122 N129 1.356 . S
C123 C122 1.363 . S
C123 C126 1.363 1_454 S
N124 C126 1.356 . S
N124 H136 0.984 . S
N124 H137 0.985 . S
N125 C127 1.356 . S
N125 H130 0.984 . S
N125 H131 0.985 . S
C126 C120 1.379 . S
C126 C123 1.363 1_656 S
C126 N124 1.356 . S
C127 C121 1.363 . S
C127 C122 1.379 . S
C127 N125 1.356 . S
N128 C120 1.356 . S
N128 H134 0.984 . S
N128 H135 0.984 . S
N129 C122 1.356 . S
N129 H132 0.984 . S
N129 H133 0.985 . S
H130 N125 0.984 . S
H131 N125 0.985 . S
H132 N129 0.984 . S
H133 N129 0.985 . S
H134 N128 0.984 . S
H135 N128 0.984 . S
H136 N124 0.984 . S
H137 N124 0.985 . S
C85 C66 1.472 1_545 S
C87 C75 1.472 1_455 S
C103 C63 1.324 . S
C105 C72 1.324 1_544 S
C121 C56 1.435 . S
C123 C67 1.435 1_454 S
