# Generated by pormake.
# Topology sxa, (6)-cn, num edge types: 1
# Building blocks:
#     Node 0, Type 0, BuildingBlock: OJICUG_clean_sbu_0, # of connection points: 6
#     Node 1, Type 0, BuildingBlock: OJICUG_clean_sbu_0, # of connection points: 6
#     Node 2, Type 0, BuildingBlock: OJICUG_clean_sbu_0, # of connection points: 6
#     Node 3, Type 0, BuildingBlock: OJICUG_clean_sbu_0, # of connection points: 6
#     Edge 4, Type (0, 0), None
#     Edge 5, Type (0, 0), None
#     Edge 6, Type (0, 0), None
#     Edge 7, Type (0, 0), None
#     Edge 8, Type (0, 0), None
#     Edge 9, Type (0, 0), None
#     Edge 10, Type (0, 0), None
#     Edge 11, Type (0, 0), None
#     Edge 12, Type (0, 0), None
#     Edge 13, Type (0, 0), None
#     Edge 14, Type (0, 0), None
#     Edge 15, Type (0, 0), None
# Relax obj value: 0.172
# Max RMSD: 0.251
# Mean RMSD: 0.251
data_MOF--net-sxa--node1-OJICUG_clean_sbu_0--edge1-none
_symmetry_space_group_name_H-M    P1
_symmetry_Int_Tables_number       1
_symmetry_cell_setting            triclinic
loop_
_symmetry_equiv_pos_as_xyz
'x, y, z'
_cell_length_a     11.512347
_cell_length_b     15.171968
_cell_length_c     7.7321563
_cell_angle_alpha  89.998949
_cell_angle_beta   90.000294
_cell_angle_gamma 112.98263
loop_
_atom_site_label
_atom_site_type_symbol
_atom_site_fract_x
_atom_site_fract_y
_atom_site_fract_z
_atom_type_partial_charge
Sc0 Sc 0.02822 0.75198 0.98748 0.0
Sc1 Sc 0.1217 0.86462 0.39611 0.0
Sc2 Sc 0.93476 0.63936 0.39613 0.0
O3 O 0.02823 0.75199 0.2522 0.0
C4 C 0.78891 0.70697 0.10249 0.0
C5 C 0.04615 0.96109 0.09471 0.0
C6 C 0.8511 0.769 0.57429 0.0
C7 C 0.26753 0.79699 0.10247 0.0
C8 C 1.0103 0.54288 0.09473 0.0
C9 C 0.20536 0.73499 0.57431 0.0
O10 O 0.83674 0.67479 0.98657 0.0
O11 O 0.12074 0.96727 0.2161 0.0
O12 O 0.90067 0.71123 0.61213 0.0
O13 O 0.2197 0.82917 0.98655 0.0
O14 O 0.93574 0.5367 0.21615 0.0
O15 O 0.15578 0.79276 0.61213 0.0
O16 O 0.04921 0.61425 0.99052 0.0
O17 O 0.27142 0.82896 0.25926 0.0
O18 O 0.13221 0.65741 0.49516 0.0
O19 O 1.00722 0.88972 0.99052 0.0
O20 O 0.78502 0.675 0.25928 0.0
O21 O 0.92425 0.84658 0.49514 0.0
Sc22 Sc 0.52822 0.25198 0.98748 0.0
Sc23 Sc 0.62169 0.36462 0.39611 0.0
Sc24 Sc 0.43476 0.13935 0.39613 0.0
O25 O 0.52822 0.25198 0.2522 0.0
C26 C 0.28891 0.20698 0.10249 0.0
C27 C 0.54614 0.46109 0.09471 0.0
C28 C 0.35109 0.26899 0.57429 0.0
C29 C 0.76753 0.29699 0.10248 0.0
C30 C 0.5103 0.04288 0.09473 0.0
C31 C 0.70535 0.23498 0.5743 0.0
O32 O 0.33674 0.17479 0.98657 0.0
O33 O 0.62072 0.46727 0.21611 0.0
O34 O 0.40066 0.21123 0.61213 0.0
O35 O 0.7197 0.32917 0.98656 0.0
O36 O 0.43573 0.0367 0.21614 0.0
O37 O 0.65578 0.29275 0.61213 0.0
O38 O 0.54921 0.11425 0.99053 0.0
O39 O 0.77142 0.32896 0.25926 0.0
O40 O 0.6322 0.1574 0.49516 0.0
O41 O 0.50722 0.38972 0.99051 0.0
O42 O 0.28502 0.17501 0.25928 0.0
O43 O 0.42424 0.34657 0.49514 0.0
Sc44 Sc 0.02822 0.25198 0.17779 0.0
Sc45 Sc 0.93475 0.13935 0.76912 0.0
Sc46 Sc 0.12169 0.36463 0.76913 0.0
O47 O 0.02822 0.25199 0.91306 0.0
C48 C 0.04615 0.46109 1.07054 0.0
C49 C 0.78894 0.20698 1.06277 0.0
C50 C 0.85108 0.26898 0.59104 0.0
C51 C 1.01029 0.04288 1.07053 0.0
C52 C 0.2675 0.29699 1.06278 0.0
C53 C 0.20536 0.235 0.59104 0.0
O54 O 1.00723 0.38972 0.17475 0.0
O55 O 0.78502 0.17501 0.90598 0.0
O56 O 0.92424 0.34659 0.67009 0.0
O57 O 0.0492 0.11424 0.17474 0.0
O58 O 0.27142 0.32896 0.90599 0.0
O59 O 0.1322 0.15739 0.67009 0.0
O60 O 0.2197 0.32918 0.17871 0.0
O61 O 0.93571 0.0367 0.94913 0.0
O62 O 0.15577 0.29274 0.55312 0.0
O63 O 0.83674 0.17478 0.17871 0.0
O64 O 0.12072 0.46727 0.94913 0.0
O65 O 0.90068 0.21124 0.55312 0.0
Sc66 Sc 0.52822 0.75198 0.17779 0.0
Sc67 Sc 0.43476 0.63935 0.76911 0.0
Sc68 Sc 0.62169 0.86463 0.76913 0.0
O69 O 0.52822 0.75199 0.91306 0.0
C70 C 0.54615 0.96109 1.07055 0.0
C71 C 0.28894 0.70698 1.06276 0.0
C72 C 0.35109 0.76899 0.59104 0.0
C73 C 0.51029 0.54288 1.07052 0.0
C74 C 0.7675 0.79699 1.06279 0.0
C75 C 0.70537 0.73501 0.59104 0.0
O76 O 0.50723 0.88972 0.17475 0.0
O77 O 0.28502 0.67501 0.90597 0.0
O78 O 0.42425 0.8466 0.6701 0.0
O79 O 0.5492 0.61424 0.17474 0.0
O80 O 0.77142 0.82896 0.906 0.0
O81 O 0.63221 0.6574 0.67008 0.0
O82 O 0.7197 0.82918 0.17872 0.0
O83 O 0.43572 0.5367 0.94911 0.0
O84 O 0.65577 0.79275 0.55313 0.0
O85 O 0.33674 0.67478 0.1787 0.0
O86 O 0.62073 0.96727 0.94915 0.0
O87 O 0.40069 0.71125 0.55312 0.0
loop_
_geom_bond_atom_site_label_1
_geom_bond_atom_site_label_2
_geom_bond_distance
_geom_bond_site_symmetry_2
_ccdc_geom_bond_type
Sc0 O3 2.025 1_556 S
Sc0 O10 2.095 1_455 S
Sc0 O13 2.115 . S
Sc0 O16 2.108 1_455 S
Sc0 O19 2.102 . S
Sc1 O3 2.030 . S
Sc1 O11 2.105 . S
Sc1 O15 2.105 . S
Sc1 O17 2.105 . S
Sc1 O21 2.105 1_455 S
Sc2 O3 2.021 1_655 S
Sc2 O12 2.105 . S
Sc2 O14 2.105 . S
Sc2 O18 2.105 1_655 S
Sc2 O20 2.105 . S
O3 Sc0 2.025 1_554 S
O3 Sc1 2.030 . S
O3 Sc2 2.021 1_455 S
C4 O10 1.268 1_554 S
C4 O20 1.268 . S
C5 O11 1.268 . S
C5 O19 1.268 1_554 S
C6 O12 1.268 . S
C6 O21 1.268 . S
C7 O13 1.268 1_554 S
C7 O17 1.268 . S
C8 O14 1.268 . S
C8 O16 1.268 1_554 S
C9 O15 1.268 . S
C9 O18 1.268 . S
O10 Sc0 2.095 1_655 S
O10 C4 1.268 1_556 S
O11 Sc1 2.105 . S
O11 C5 1.268 . S
O12 Sc2 2.105 . S
O12 C6 1.268 . S
O13 Sc0 2.115 . S
O13 C7 1.268 1_556 S
O14 Sc2 2.105 . S
O14 C8 1.268 . S
O15 Sc1 2.105 . S
O15 C9 1.268 . S
O16 Sc0 2.108 1_655 S
O16 C8 1.268 1_556 S
O17 Sc1 2.105 . S
O17 C7 1.268 . S
O18 Sc2 2.105 1_455 S
O18 C9 1.268 . S
O19 Sc0 2.102 . S
O19 C5 1.268 1_556 S
O20 Sc2 2.105 . S
O20 C4 1.268 . S
O21 Sc1 2.105 1_655 S
O21 C6 1.268 . S
Sc22 O25 2.025 1_556 S
Sc22 O32 2.105 . S
Sc22 O35 2.105 . S
Sc22 O38 2.105 . S
Sc22 O41 2.105 . S
Sc23 O25 2.025 . S
Sc23 O33 2.105 . S
Sc23 O37 2.105 . S
Sc23 O39 2.105 . S
Sc23 O43 2.105 . S
Sc24 O25 2.025 . S
Sc24 O34 2.105 . S
Sc24 O36 2.105 . S
Sc24 O40 2.105 . S
Sc24 O42 2.105 . S
O25 Sc22 2.025 1_554 S
O25 Sc23 2.025 . S
O25 Sc24 2.025 . S
C26 O32 1.268 1_554 S
C26 O42 1.268 . S
C27 O33 1.268 . S
C27 O41 1.268 1_554 S
C28 O34 1.268 . S
C28 O43 1.268 . S
C29 O35 1.268 1_554 S
C29 O39 1.268 . S
C30 O36 1.268 . S
C30 O38 1.268 1_554 S
C31 O37 1.268 . S
C31 O40 1.268 . S
O32 Sc22 2.105 . S
O32 C26 1.268 1_556 S
O33 Sc23 2.105 . S
O33 C27 1.268 . S
O34 Sc24 2.105 . S
O34 C28 1.268 . S
O35 Sc22 2.105 . S
O35 C29 1.268 1_556 S
O36 Sc24 2.105 . S
O36 C30 1.268 . S
O37 Sc23 2.105 . S
O37 C31 1.268 . S
O38 Sc22 2.105 . S
O38 C30 1.268 1_556 S
O39 Sc23 2.105 . S
O39 C29 1.268 . S
O40 Sc24 2.105 . S
O40 C31 1.268 . S
O41 Sc22 2.105 . S
O41 C27 1.268 1_556 S
O42 Sc24 2.105 . S
O42 C26 1.268 . S
O43 Sc23 2.105 . S
O43 C28 1.268 . S
Sc44 O47 2.025 1_554 S
Sc44 O54 2.102 . S
Sc44 O57 2.108 1_455 S
Sc44 O60 2.114 . S
Sc44 O63 2.095 1_455 S
Sc45 O47 2.021 1_655 S
Sc45 O55 2.105 . S
Sc45 O59 2.105 1_655 S
Sc45 O61 2.105 . S
Sc45 O65 2.105 . S
Sc46 O47 2.029 . S
Sc46 O56 2.105 1_455 S
Sc46 O58 2.105 . S
Sc46 O62 2.105 . S
Sc46 O64 2.105 . S
O47 Sc44 2.025 1_556 S
O47 Sc45 2.021 1_455 S
O47 Sc46 2.029 . S
C48 O54 1.268 1_556 S
C48 O64 1.268 . S
C49 O55 1.268 . S
C49 O63 1.268 1_556 S
C50 O56 1.268 . S
C50 O65 1.268 . S
C51 O57 1.268 1_556 S
C51 O61 1.268 . S
C52 O58 1.268 . S
C52 O60 1.268 1_556 S
C53 O59 1.268 . S
C53 O62 1.268 . S
O54 Sc44 2.102 . S
O54 C48 1.268 1_554 S
O55 Sc45 2.105 . S
O55 C49 1.268 . S
O56 Sc46 2.105 1_655 S
O56 C50 1.268 . S
O57 Sc44 2.108 1_655 S
O57 C51 1.268 1_554 S
O58 Sc46 2.105 . S
O58 C52 1.268 . S
O59 Sc45 2.105 1_455 S
O59 C53 1.268 . S
O60 Sc44 2.114 . S
O60 C52 1.268 1_554 S
O61 Sc45 2.105 . S
O61 C51 1.268 . S
O62 Sc46 2.105 . S
O62 C53 1.268 . S
O63 Sc44 2.095 1_655 S
O63 C49 1.268 1_554 S
O64 Sc46 2.105 . S
O64 C48 1.268 . S
O65 Sc45 2.105 . S
O65 C50 1.268 . S
Sc66 O69 2.025 1_554 S
Sc66 O76 2.105 . S
Sc66 O79 2.105 . S
Sc66 O82 2.105 . S
Sc66 O85 2.105 . S
Sc67 O69 2.025 . S
Sc67 O77 2.105 . S
Sc67 O81 2.105 . S
Sc67 O83 2.105 . S
Sc67 O87 2.105 . S
Sc68 O69 2.025 . S
Sc68 O78 2.105 . S
Sc68 O80 2.105 . S
Sc68 O84 2.105 . S
Sc68 O86 2.105 . S
O69 Sc66 2.025 1_556 S
O69 Sc67 2.025 . S
O69 Sc68 2.025 . S
C70 O76 1.268 1_556 S
C70 O86 1.268 . S
C71 O77 1.268 . S
C71 O85 1.268 1_556 S
C72 O78 1.268 . S
C72 O87 1.268 . S
C73 O79 1.268 1_556 S
C73 O83 1.268 . S
C74 O80 1.268 . S
C74 O82 1.268 1_556 S
C75 O81 1.268 . S
C75 O84 1.268 . S
O76 Sc66 2.105 . S
O76 C70 1.268 1_554 S
O77 Sc67 2.105 . S
O77 C71 1.268 . S
O78 Sc68 2.105 . S
O78 C72 1.268 . S
O79 Sc66 2.105 . S
O79 C73 1.268 1_554 S
O80 Sc68 2.105 . S
O80 C74 1.268 . S
O81 Sc67 2.105 . S
O81 C75 1.268 . S
O82 Sc66 2.105 . S
O82 C74 1.268 1_554 S
O83 Sc67 2.105 . S
O83 C73 1.268 . S
O84 Sc68 2.105 . S
O84 C75 1.268 . S
O85 Sc66 2.105 . S
O85 C71 1.268 1_554 S
O86 Sc68 2.105 . S
O86 C70 1.268 . S
O87 Sc67 2.105 . S
O87 C72 1.268 . S
C48 C8 1.604 1_456 S
C27 C73 1.604 1_554 S
C70 C30 1.604 1_566 S
C5 C51 1.604 1_464 S
C72 C9 3.157 . S
C53 C28 3.157 . S
C50 C31 3.157 . S
C6 C75 3.157 . S
C71 C7 2.291 1_556 S
C52 C26 2.291 1_556 S
C29 C49 2.291 1_554 S
C4 C74 2.291 1_554 S
