# Generated by pormake.
# Topology qtz-x, (6)-cn, num edge types: 1
# Building blocks:
#     Node 0, Type 0, BuildingBlock: UKALOJ_clean_sbu_0, # of connection points: 6
#     Node 1, Type 0, BuildingBlock: UKALOJ_clean_sbu_0, # of connection points: 6
#     Node 2, Type 0, BuildingBlock: UKALOJ_clean_sbu_0, # of connection points: 6
#     Edge 3, Type (0, 0), BuildingBlock: OJICUG_clean_linker_0, # of connection points: 2
#     Edge 4, Type (0, 0), BuildingBlock: OJICUG_clean_linker_0, # of connection points: 2
#     Edge 5, Type (0, 0), BuildingBlock: OJICUG_clean_linker_0, # of connection points: 2
#     Edge 6, Type (0, 0), BuildingBlock: OJICUG_clean_linker_0, # of connection points: 2
#     Edge 7, Type (0, 0), BuildingBlock: OJICUG_clean_linker_0, # of connection points: 2
#     Edge 8, Type (0, 0), BuildingBlock: OJICUG_clean_linker_0, # of connection points: 2
#     Edge 9, Type (0, 0), BuildingBlock: OJICUG_clean_linker_0, # of connection points: 2
#     Edge 10, Type (0, 0), BuildingBlock: OJICUG_clean_linker_0, # of connection points: 2
#     Edge 11, Type (0, 0), BuildingBlock: OJICUG_clean_linker_0, # of connection points: 2
# Relax obj value: 0.356
# Max RMSD: 0.267
# Mean RMSD: 0.265
data_MOF--net-qtz-x--node1-UKALOJ_clean_sbu_0--edge1-OJICUG_clean_linker_0
_symmetry_space_group_name_H-M    P1
_symmetry_Int_Tables_number       1
_symmetry_cell_setting            triclinic
loop_
_symmetry_equiv_pos_as_xyz
'x, y, z'
_cell_length_a     15.721388
_cell_length_b     15.890982
_cell_length_c     21.851484
_cell_angle_alpha  93.721815
_cell_angle_beta   94.491645
_cell_angle_gamma 119.6889
loop_
_atom_site_label
_atom_site_type_symbol
_atom_site_fract_x
_atom_site_fract_y
_atom_site_fract_z
_atom_type_partial_charge
Zn0 Zn 0.0106 0.55443 0.23857 0.0
O1 O 0.11294 0.62411 0.17018 0.0
C2 C 0.84301 0.42085 0.13996 0.0
Zn3 Zn 0.01442 0.42121 0.20852 0.0
C4 C 0.1369 0.57332 0.1356 0.0
O5 O 0.10019 0.4833 0.14008 0.0
C6 C 0.89024 0.39286 0.31066 0.0
O7 O 0.15047 0.48484 0.2739 0.0
O8 O 0.13185 0.60805 0.30564 0.0
N9 N 0.01914 0.29722 0.1873 0.0
C10 C 0.04487 0.24586 0.22347 0.0
C11 C 0.99075 0.16525 0.13367 0.0
N12 N 0.98596 0.24735 0.13147 0.0
N13 N 0.02722 0.16254 0.19092 0.0
C14 C 0.05083 0.76726 0.25015 0.0
C15 C 0.91529 0.74562 0.27825 0.0
N16 N 0.9964 0.67274 0.25872 0.0
N17 N 0.91267 0.65969 0.2767 0.0
N18 N 1.00088 0.81439 0.26136 0.0
H19 H 0.19291 0.77747 0.25489 0.0
H20 H 0.19617 0.89264 0.25239 0.0
H21 H 0.15332 0.80617 0.18373 0.0
C22 C 0.15456 0.81385 0.23465 0.0
C23 C 0.09601 0.28228 0.28858 0.0
H24 H 0.17267 0.34182 0.28716 0.0
H25 H 0.10162 0.22583 0.31265 0.0
H26 H 0.05816 0.31199 0.31574 0.0
O27 O 0.92773 0.35527 0.27708 0.0
O28 O 0.91065 0.48006 0.30553 0.0
C29 C 0.18053 0.56418 0.30895 0.0
O30 O 0.88757 0.5032 0.17248 0.0
O31 O 0.8791 0.36468 0.14302 0.0
Zn32 Zn 0.61003 0.01714 0.57837 0.0
O33 O 0.55548 0.88198 0.51409 0.0
C34 C 0.63224 0.13874 0.4744 0.0
Zn35 Zn 0.47261 0.01188 0.54416 0.0
C36 C 0.477 0.85114 0.47649 0.0
O37 O 0.43012 0.89656 0.47763 0.0
C38 C 0.59558 0.17806 0.64389 0.0
O39 O 0.40541 0.9049 0.61107 0.0
O40 O 0.55222 0.93248 0.64709 0.0
N41 N 0.34318 0.00604 0.52007 0.0
C42 C 0.28459 0.02103 0.55544 0.0
C43 C 0.21308 0.98091 0.46255 0.0
N44 N 0.29895 0.98124 0.46235 0.0
N45 N 0.20328 0.00652 0.52036 0.0
C46 C 0.79441 1.00027 0.56846 0.0
C47 C 0.87147 0.05315 0.6598 0.0
N48 N 0.7389 0.02209 0.60265 0.0
N49 N 0.78649 0.05461 0.65944 0.0
N50 N 0.87744 0.01849 0.60338 0.0
H51 H 0.73722 0.88655 0.49283 0.0
H52 H 0.83878 1.00027 0.47739 0.0
H53 H 0.71781 0.98539 0.47768 0.0
C54 C 0.77069 0.96698 0.50021 0.0
C55 C 0.30367 0.04428 0.62462 0.0
H56 H 0.3514 0.01836 0.64552 0.0
H57 H 0.23336 0.01074 0.6451 0.0
H58 H 0.34107 0.12454 0.63673 0.0
O59 O 0.51397 0.13051 0.60939 0.0
O60 O 0.65757 0.14861 0.6427 0.0
C61 C 0.46024 0.88877 0.64897 0.0
O62 O 0.67272 0.105 0.50969 0.0
O63 O 0.54262 0.11462 0.47786 0.0
Zn64 Zn 0.56516 0.59121 0.91135 0.0
O65 O 0.62264 0.5292 0.84387 0.0
C66 C 0.44376 0.62037 0.81079 0.0
Zn67 Zn 0.42277 0.45725 0.87949 0.0
C68 C 0.56624 0.44971 0.80874 0.0
O69 O 0.47448 0.40461 0.81224 0.0
C70 C 0.40998 0.58946 0.97977 0.0
O71 O 0.47141 0.38759 0.94781 0.0
O72 O 0.60646 0.52816 0.97792 0.0
N73 N 0.28574 0.3392 0.85985 0.0
C74 C 0.24699 0.24474 0.86861 0.0
C75 C 0.12744 0.2673 0.84101 0.0
N76 N 0.21144 0.35282 0.84219 0.0
N77 N 0.14738 0.19821 0.85786 0.0
C78 C 0.76612 0.76786 0.8956 0.0
C79 C 0.81523 0.84601 0.9862 0.0
N80 N 0.69829 0.71539 0.93226 0.0
N81 N 0.72897 0.76372 0.98856 0.0
N82 N 0.83994 0.85037 0.92836 0.0
H83 H 0.78213 0.67388 0.82915 0.0
H84 H 0.81968 0.79041 0.80526 0.0
H85 H 0.68976 0.70368 0.80377 0.0
C86 C 0.76422 0.73315 0.8296 0.0
C87 C 0.30713 0.19772 0.88377 0.0
H88 H 0.37727 0.23382 0.86325 0.0
H89 H 0.2656 0.11892 0.86607 0.0
H90 H 0.32519 0.20553 0.93466 0.0
O91 O 0.36577 0.50838 0.94583 0.0
O92 O 0.5021 0.64562 0.9785 0.0
C93 C 0.55426 0.43799 0.98201 0.0
O94 O 0.52566 0.65929 0.84521 0.0
O95 O 0.38161 0.53073 0.81248 0.0
C96 C 0.06172 0.94666 0.19424 0.0
C97 C 0.02025 0.90909 0.24785 0.0
H98 H 0.09746 0.05875 0.13466 0.0
C99 C 0.98418 0.95841 0.2834 0.0
H100 H 0.0852 0.90778 0.16397 0.0
C101 C 0.98808 0.0426 0.26533 0.0
C102 C 0.03052 0.08065 0.21223 0.0
H103 H 0.94955 0.92951 0.32394 0.0
H104 H 0.95468 0.07605 0.29161 0.0
C105 C 0.06718 0.03201 0.17678 0.0
C106 C 0.02549 0.93018 0.52434 0.0
C107 C 0.12079 0.01036 0.54019 0.0
H108 H 0.8726 0.86817 0.53512 0.0
C109 C 0.13544 0.09238 0.57797 0.0
H110 H 0.01357 0.86597 0.49588 0.0
C111 C 0.05545 0.09396 0.60002 0.0
C112 C 0.95994 0.01395 0.58396 0.0
H113 H 0.20871 0.15517 0.59004 0.0
H114 H 0.0676 0.15827 0.62846 0.0
C115 C 0.94554 0.93151 0.54669 0.0
C116 C 0.90377 0.97222 0.85509 0.0
C117 C 0.92035 0.93253 0.90713 0.0
H118 H 0.96535 0.08615 0.79712 0.0
C119 C 0.01417 0.97953 0.94164 0.0
H120 H 0.83065 0.94022 0.82971 0.0
C121 C 0.09049 0.06476 0.92417 0.0
C122 C 0.07439 0.10373 0.87141 0.0
H123 H 0.0274 0.95155 0.98302 0.0
H124 H 0.16011 0.10237 0.95385 0.0
C125 C 0.98037 0.0561 0.8369 0.0
C126 C 0.38152 0.65949 0.07842 0.0
C127 C 0.34942 0.61549 1.0169 0.0
H128 H 0.3368 0.68334 0.16541 0.0
C129 C 0.25073 0.58118 0.99255 0.0
H130 H 0.4569 0.68608 0.09843 0.0
C131 C 0.18299 0.58077 1.03031 0.0
C132 C 0.21225 0.61522 0.09328 0.0
H133 H 0.22397 0.54777 0.94505 0.0
H134 H 0.10569 0.54485 1.01157 0.0
C135 C 0.31297 0.65883 0.11652 0.0
C136 C 0.76788 0.19045 0.40969 0.0
C137 C 0.69206 0.20326 0.42998 0.0
H138 H 0.88903 0.24005 0.35752 0.0
C139 C 0.68181 0.28136 0.41153 0.0
H140 H 0.77812 0.13125 0.42295 0.0
C141 C 0.74786 0.34616 0.37409 0.0
C142 C 0.82352 0.33227 0.354 0.0
H143 H 0.62465 0.29355 0.42713 0.0
H144 H 0.73889 0.40576 0.36015 0.0
C145 C 0.83204 0.25339 0.37217 0.0
C146 C 0.37012 0.64942 0.71261 0.0
C147 C 0.42289 0.68316 0.77234 0.0
H148 H 0.33832 0.69043 0.62535 0.0
C149 C 0.46651 0.78275 0.79403 0.0
H150 H 0.33577 0.57304 0.69479 0.0
C151 C 0.46609 0.84872 0.75521 0.0
C152 C 0.42222 0.81703 0.69363 0.0
H153 H 0.50638 0.81082 0.84019 0.0
H154 H 0.50789 0.92597 0.77174 0.0
C155 C 0.3704 0.71633 0.67321 0.0
C156 C 0.65157 0.35492 1.00089 0.0
C157 C 0.59702 0.3957 1.02407 0.0
H158 H 0.77307 0.32925 1.01988 0.0
C159 C 0.61281 0.42686 0.08745 0.0
H160 H 0.64289 0.33327 0.95172 0.0
C161 C 0.68742 0.42574 0.12591 0.0
C162 C 0.74858 0.39386 0.10194 0.0
H163 H 0.57375 0.46081 0.1062 0.0
H164 H 0.7022 0.45695 0.17379 0.0
C165 C 0.72666 0.3534 1.03972 0.0
C166 C 0.35646 0.69252 0.32836 0.0
C167 C 0.27603 0.61331 0.34896 0.0
H168 H 0.48851 0.83094 0.35422 0.0
C169 C 0.2791 0.60235 0.41215 0.0
H170 H 0.35434 0.70389 0.28006 0.0
C171 C 0.35679 0.67477 0.45466 0.0
C172 C 0.43167 0.75943 0.43454 0.0
H173 H 0.21666 0.54334 0.42927 0.0
H174 H 0.35177 0.67022 0.50364 0.0
C175 C 0.43364 0.76509 0.37081 0.0
C176 C 0.65815 0.36275 0.78407 0.0
C177 C 0.60316 0.4061 0.76404 0.0
H178 H 0.70018 0.25537 0.76112 0.0
C179 C 0.56099 0.38525 0.70223 0.0
H180 H 0.68934 0.37616 0.83209 0.0
C181 C 0.56666 0.31679 0.66226 0.0
C182 C 0.61382 0.26648 0.68321 0.0
H183 H 0.5172 0.41669 0.68597 0.0
H184 H 0.52827 0.29857 0.61572 0.0
C185 C 0.66382 0.29332 0.74368 0.0
loop_
_geom_bond_atom_site_label_1
_geom_bond_atom_site_label_2
_geom_bond_distance
_geom_bond_site_symmetry_2
_ccdc_geom_bond_type
Zn0 O1 2.055 . S
Zn0 O8 2.046 . S
Zn0 N16 2.036 . S
Zn0 O28 2.053 1_455 S
Zn0 O30 2.066 1_455 S
O1 Zn0 2.055 . S
O1 C4 1.259 . S
C2 O30 1.256 . S
C2 O31 1.244 . S
Zn3 O5 2.046 . S
Zn3 O7 2.055 . S
Zn3 N9 2.036 . S
Zn3 O27 2.066 1_455 S
Zn3 O31 2.053 1_455 S
C4 O1 1.259 . S
C4 O5 1.254 . S
O5 Zn3 2.046 . S
O5 C4 1.254 . S
C6 O27 1.256 . S
C6 O28 1.244 . S
O7 Zn3 2.055 . S
O7 C29 1.259 . S
O8 Zn0 2.046 . S
O8 C29 1.254 . S
N9 Zn3 2.036 . S
N9 C10 1.298 . S
N9 N12 1.398 1_455 S
C10 N9 1.298 . S
C10 N13 1.367 1_455 S
C10 C23 1.481 . S
C11 N12 1.299 . S
C11 N13 1.379 . S
N12 N9 1.398 1_655 S
N12 C11 1.299 . S
N13 C10 1.367 1_655 S
N13 C11 1.379 . S
C14 N16 1.298 . S
C14 N18 1.367 1_455 S
C14 C22 1.481 . S
C15 N17 1.299 . S
C15 N18 1.379 . S
N16 Zn0 2.036 . S
N16 C14 1.298 . S
N16 N17 1.398 1_455 S
N17 C15 1.299 . S
N17 N16 1.398 1_655 S
N18 C14 1.367 1_655 S
N18 C15 1.379 . S
H19 C22 0.980 . S
H20 C22 0.981 . S
H21 C22 0.981 1_655 S
C22 C14 1.481 . S
C22 H19 0.980 . S
C22 H20 0.981 . S
C22 H21 0.981 1_455 S
C23 C10 1.481 . S
C23 H24 0.980 . S
C23 H25 0.981 . S
C23 H26 0.981 . S
H24 C23 0.980 . S
H25 C23 0.981 . S
H26 C23 0.981 . S
O27 Zn3 2.066 1_655 S
O27 C6 1.256 . S
O28 Zn0 2.053 1_655 S
O28 C6 1.244 . S
C29 O7 1.259 . S
C29 O8 1.254 . S
O30 Zn0 2.066 1_655 S
O30 C2 1.256 . S
O31 C2 1.244 . S
O31 Zn3 2.053 1_655 S
Zn32 O33 2.055 . S
Zn32 O40 2.046 . S
Zn32 N48 2.036 1_565 S
Zn32 O60 2.053 1_565 S
Zn32 O62 2.066 1_565 S
O33 Zn32 2.055 . S
O33 C36 1.259 . S
C34 O62 1.256 . S
C34 O63 1.244 . S
Zn35 O37 2.046 . S
Zn35 O39 2.055 . S
Zn35 N41 2.036 1_565 S
Zn35 O59 2.066 1_565 S
Zn35 O63 2.053 1_565 S
C36 O33 1.259 . S
C36 O37 1.254 . S
O37 Zn35 2.046 . S
O37 C36 1.254 . S
C38 O59 1.256 . S
C38 O60 1.244 . S
O39 Zn35 2.055 . S
O39 C61 1.259 . S
O40 Zn32 2.046 . S
O40 C61 1.254 . S
N41 Zn35 2.036 1_545 S
N41 C42 1.298 . S
N41 N44 1.398 . S
C42 N41 1.298 . S
C42 N45 1.367 . S
C42 C55 1.481 1_545 S
C43 N44 1.299 . S
C43 N45 1.379 . S
N44 N41 1.398 . S
N44 C43 1.299 . S
N45 C42 1.367 . S
N45 C43 1.379 . S
C46 N48 1.302 . S
C46 N50 1.366 . S
C46 C54 1.478 1_545 S
C47 N49 1.299 . S
C47 N50 1.379 . S
N48 Zn32 2.036 1_545 S
N48 C46 1.302 . S
N48 N49 1.398 . S
N49 C47 1.299 . S
N49 N48 1.398 . S
N50 C46 1.366 . S
N50 C47 1.379 . S
H51 C54 0.980 . S
H52 C54 0.981 . S
H53 C54 0.981 1_545 S
C54 C46 1.478 1_565 S
C54 H51 0.980 . S
C54 H52 0.981 . S
C54 H53 0.981 1_565 S
C55 C42 1.481 1_565 S
C55 H56 0.980 . S
C55 H57 0.981 . S
C55 H58 0.981 1_565 S
H56 C55 0.980 . S
H57 C55 0.981 . S
H58 C55 0.981 1_545 S
O59 Zn35 2.066 1_545 S
O59 C38 1.256 . S
O60 Zn32 2.053 1_545 S
O60 C38 1.244 . S
C61 O39 1.259 . S
C61 O40 1.254 . S
O62 Zn32 2.066 1_545 S
O62 C34 1.256 . S
O63 C34 1.244 . S
O63 Zn35 2.053 1_545 S
Zn64 O65 2.055 . S
Zn64 O72 2.046 . S
Zn64 N80 2.036 . S
Zn64 O92 2.053 . S
Zn64 O94 2.066 . S
O65 Zn64 2.055 . S
O65 C68 1.259 . S
C66 O94 1.256 . S
C66 O95 1.244 . S
Zn67 O69 2.046 . S
Zn67 O71 2.055 . S
Zn67 N73 2.036 . S
Zn67 O91 2.066 . S
Zn67 O95 2.053 . S
C68 O65 1.259 . S
C68 O69 1.254 . S
O69 Zn67 2.046 . S
O69 C68 1.254 . S
C70 O91 1.256 . S
C70 O92 1.244 . S
O71 Zn67 2.055 . S
O71 C93 1.259 . S
O72 Zn64 2.046 . S
O72 C93 1.254 . S
N73 Zn67 2.036 . S
N73 C74 1.298 . S
N73 N76 1.398 . S
C74 N73 1.298 . S
C74 N77 1.367 . S
C74 C87 1.481 . S
C75 N76 1.299 . S
C75 N77 1.379 . S
N76 N73 1.398 . S
N76 C75 1.299 . S
N77 C74 1.367 . S
N77 C75 1.379 . S
C78 N80 1.298 . S
C78 N82 1.367 . S
C78 C86 1.481 . S
C79 N81 1.299 . S
C79 N82 1.379 . S
N80 Zn64 2.036 . S
N80 C78 1.298 . S
N80 N81 1.398 . S
N81 C79 1.299 . S
N81 N80 1.398 . S
N82 C78 1.367 . S
N82 C79 1.379 . S
H83 C86 0.980 . S
H84 C86 0.981 . S
H85 C86 0.981 . S
C86 C78 1.481 . S
C86 H83 0.980 . S
C86 H84 0.981 . S
C86 H85 0.981 . S
C87 C74 1.481 . S
C87 H88 0.980 . S
C87 H89 0.981 . S
C87 H90 0.981 . S
H88 C87 0.980 . S
H89 C87 0.981 . S
H90 C87 0.981 . S
O91 Zn67 2.066 . S
O91 C70 1.256 . S
O92 Zn64 2.053 . S
O92 C70 1.244 . S
C93 O71 1.259 . S
C93 O72 1.254 . S
O94 Zn64 2.066 . S
O94 C66 1.256 . S
O95 C66 1.244 . S
O95 Zn67 2.053 . S
C96 C97 1.387 . S
C96 H100 0.950 . S
C96 C105 1.390 1_565 S
C97 C96 1.387 . S
C97 C99 1.387 . S
H98 C105 0.950 . S
C99 C97 1.387 . S
C99 C101 1.390 1_565 S
C99 H103 0.950 . S
H100 C96 0.950 . S
C101 C99 1.390 1_545 S
C101 C102 1.387 . S
C101 H104 0.950 . S
C102 C101 1.387 . S
C102 C105 1.387 . S
H103 C99 0.950 . S
H104 C101 0.950 . S
C105 C96 1.390 1_545 S
C105 H98 0.950 . S
C105 C102 1.387 . S
C106 C107 1.387 1_565 S
C106 H110 0.950 . S
C106 C115 1.390 1_455 S
C107 C106 1.387 1_545 S
C107 C109 1.387 . S
H108 C115 0.950 . S
C109 C107 1.387 . S
C109 C111 1.390 . S
C109 H113 0.950 . S
H110 C106 0.950 . S
C111 C109 1.390 . S
C111 C112 1.387 1_455 S
C111 H114 0.950 . S
C112 C111 1.387 1_655 S
C112 C115 1.387 1_545 S
H113 C109 0.950 . S
H114 C111 0.950 . S
C115 C106 1.390 1_655 S
C115 H108 0.950 . S
C115 C112 1.387 1_565 S
C116 C117 1.387 . S
C116 H120 0.950 . S
C116 C125 1.390 1_665 S
C117 C116 1.387 . S
C117 C119 1.387 1_565 S
H118 C125 0.950 . S
C119 C117 1.387 1_545 S
C119 C121 1.390 1_655 S
C119 H123 0.950 1_545 S
H120 C116 0.950 . S
C121 C119 1.390 1_455 S
C121 C122 1.387 . S
C121 H124 0.950 . S
C122 C121 1.387 . S
C122 C125 1.387 . S
H123 C119 0.950 1_565 S
H124 C121 0.950 . S
C125 C116 1.390 1_445 S
C125 H118 0.950 . S
C125 C122 1.387 . S
C126 C127 1.387 . S
C126 H130 0.950 . S
C126 C135 1.390 1_556 S
C127 C126 1.387 . S
C127 C129 1.387 . S
H128 C135 0.950 . S
C129 C127 1.387 . S
C129 C131 1.390 1_556 S
C129 H133 0.950 . S
H130 C126 0.950 . S
C131 C129 1.390 1_554 S
C131 C132 1.387 . S
C131 H134 0.950 . S
C132 C131 1.387 . S
C132 C135 1.387 . S
H133 C129 0.950 . S
H134 C131 0.950 . S
C135 C126 1.390 1_554 S
C135 H128 0.950 . S
C135 C132 1.387 . S
C136 C137 1.387 . S
C136 H140 0.950 . S
C136 C145 1.390 . S
C137 C136 1.387 . S
C137 C139 1.387 . S
H138 C145 0.950 . S
C139 C137 1.387 . S
C139 C141 1.390 . S
C139 H143 0.950 . S
H140 C136 0.950 . S
C141 C139 1.390 . S
C141 C142 1.387 . S
C141 H144 0.950 . S
C142 C141 1.387 . S
C142 C145 1.387 . S
H143 C139 0.950 . S
H144 C141 0.950 . S
C145 C136 1.390 . S
C145 H138 0.950 . S
C145 C142 1.387 . S
C146 C147 1.387 . S
C146 H150 0.950 . S
C146 C155 1.390 . S
C147 C146 1.387 . S
C147 C149 1.387 . S
H148 C155 0.950 . S
C149 C147 1.387 . S
C149 C151 1.390 . S
C149 H153 0.950 . S
H150 C146 0.950 . S
C151 C149 1.390 . S
C151 C152 1.387 . S
C151 H154 0.950 . S
C152 C151 1.387 . S
C152 C155 1.387 . S
H153 C149 0.950 . S
H154 C151 0.950 . S
C155 C146 1.390 . S
C155 H148 0.950 . S
C155 C152 1.387 . S
C156 C157 1.387 . S
C156 H160 0.950 . S
C156 C165 1.385 1_556 S
C157 C156 1.387 . S
C157 C159 1.387 . S
H158 C165 0.950 . S
C159 C157 1.387 . S
C159 C161 1.391 1_556 S
C159 H163 0.950 . S
H160 C156 0.950 . S
C161 C159 1.391 1_554 S
C161 C162 1.387 . S
C161 H164 0.950 . S
C162 C161 1.387 . S
C162 C165 1.392 . S
H163 C159 0.950 . S
H164 C161 0.950 . S
C165 C156 1.385 1_554 S
C165 H158 0.950 . S
C165 C162 1.392 . S
C166 C167 1.387 . S
C166 H170 0.950 . S
C166 C175 1.390 . S
C167 C166 1.387 . S
C167 C169 1.387 . S
H168 C175 0.950 . S
C169 C167 1.387 . S
C169 C171 1.390 . S
C169 H173 0.950 . S
H170 C166 0.950 . S
C171 C169 1.390 . S
C171 C172 1.387 . S
C171 H174 0.950 . S
C172 C171 1.387 . S
C172 C175 1.387 . S
H173 C169 0.950 . S
H174 C171 0.950 . S
C175 C166 1.390 . S
C175 H168 0.950 . S
C175 C172 1.387 . S
C176 C177 1.387 . S
C176 H180 0.950 . S
C176 C185 1.390 . S
C177 C176 1.387 . S
C177 C179 1.387 . S
H178 C185 0.950 . S
C179 C177 1.387 . S
C179 C181 1.390 . S
C179 H183 0.950 . S
H180 C176 0.950 . S
C181 C179 1.390 . S
C181 C182 1.387 . S
C181 H184 0.950 . S
C182 C181 1.387 . S
C182 C185 1.387 . S
H183 C179 0.950 . S
H184 C181 0.950 . S
C185 C176 1.390 . S
C185 H178 0.950 . S
C185 C182 1.387 . S
C97 N18 0.894 . S
C102 N13 0.894 . S
C107 N45 0.891 . S
C112 N50 0.891 . S
C117 N82 0.883 . S
C122 N77 0.884 . S
C127 C70 1.845 . S
C132 C4 1.838 . S
C137 C34 2.118 . S
C142 C6 2.119 . S
C147 C66 1.845 . S
C152 C61 1.838 . S
C157 C93 1.868 . S
C162 C2 1.882 . S
C167 C29 1.615 . S
C172 C36 1.613 . S
C177 C68 1.868 . S
C182 C38 1.882 . S
