# Generated by pormake.
# Topology sxa, (6)-cn, num edge types: 1
# Building blocks:
#     Node 0, Type 0, BuildingBlock: BETDEL_clean_sbu_0, # of connection points: 6
#     Node 1, Type 0, BuildingBlock: BETDEL_clean_sbu_0, # of connection points: 6
#     Node 2, Type 0, BuildingBlock: BETDEL_clean_sbu_0, # of connection points: 6
#     Node 3, Type 0, BuildingBlock: BETDEL_clean_sbu_0, # of connection points: 6
#     Edge 4, Type (0, 0), BuildingBlock: EYOCIG_clean_linker_4, # of connection points: 2
#     Edge 5, Type (0, 0), BuildingBlock: EYOCIG_clean_linker_4, # of connection points: 2
#     Edge 6, Type (0, 0), BuildingBlock: EYOCIG_clean_linker_4, # of connection points: 2
#     Edge 7, Type (0, 0), BuildingBlock: EYOCIG_clean_linker_4, # of connection points: 2
#     Edge 8, Type (0, 0), BuildingBlock: EYOCIG_clean_linker_4, # of connection points: 2
#     Edge 9, Type (0, 0), BuildingBlock: EYOCIG_clean_linker_4, # of connection points: 2
#     Edge 10, Type (0, 0), BuildingBlock: EYOCIG_clean_linker_4, # of connection points: 2
#     Edge 11, Type (0, 0), BuildingBlock: EYOCIG_clean_linker_4, # of connection points: 2
#     Edge 12, Type (0, 0), BuildingBlock: EYOCIG_clean_linker_4, # of connection points: 2
#     Edge 13, Type (0, 0), BuildingBlock: EYOCIG_clean_linker_4, # of connection points: 2
#     Edge 14, Type (0, 0), BuildingBlock: EYOCIG_clean_linker_4, # of connection points: 2
#     Edge 15, Type (0, 0), BuildingBlock: EYOCIG_clean_linker_4, # of connection points: 2
# Relax obj value: 0.080
# Max RMSD: 0.223
# Mean RMSD: 0.223
data_MOF--net-sxa--node1-BETDEL_clean_sbu_0--edge1-EYOCIG_clean_linker_4
_symmetry_space_group_name_H-M    P1
_symmetry_Int_Tables_number       1
_symmetry_cell_setting            triclinic
loop_
_symmetry_equiv_pos_as_xyz
'x, y, z'
_cell_length_a     23.22407
_cell_length_b     21.188245
_cell_length_c     10.777834
_cell_angle_alpha  92.985597
_cell_angle_beta   89.88835
_cell_angle_gamma 90.212759
loop_
_atom_site_label
_atom_site_type_symbol
_atom_site_fract_x
_atom_site_fract_y
_atom_site_fract_z
_atom_type_partial_charge
Dy0 Dy 0.06807 0.78417 0.03657 0.0
C1 C 0.88861 0.78534 0.41452 0.0
C2 C 0.16325 0.8048 0.90009 0.0
Dy3 Dy 0.98559 0.80285 0.27404 0.0
O4 O 0.13038 0.75493 0.88551 0.0
O5 O 0.13602 0.84754 0.96769 0.0
O6 O 0.08365 0.68483 0.08412 0.0
O7 O 1.0045 0.726 0.12916 0.0
C8 C 0.03235 0.67436 0.12655 0.0
C9 C 1.01721 0.91201 0.16778 0.0
O10 O 0.06802 0.78256 0.37366 0.0
O11 O 0.12788 0.79111 0.20029 0.0
O12 O 0.92189 0.83494 0.42354 0.0
O13 O 0.91104 0.74338 0.33691 0.0
O14 O 0.9788 0.91054 0.25538 0.0
O15 O 0.0395 0.85814 0.16051 0.0
O16 O 0.98385 0.79276 0.93502 0.0
O17 O 0.9264 0.8016 0.11492 0.0
C18 C 0.11976 0.78568 0.32088 0.0
C19 C 0.93321 0.79722 -0.00656 0.0
Dy20 Dy 0.56914 0.28595 0.03442 0.0
C21 C 0.38826 0.28529 0.41886 0.0
C22 C 0.66641 0.3088 0.90745 0.0
Dy23 Dy 0.48482 0.30285 0.27862 0.0
O24 O 0.63263 0.26059 0.88435 0.0
O25 O 0.64049 0.34924 0.9826 0.0
O26 O 0.56807 0.18215 0.00609 0.0
O27 O 0.52201 0.22514 0.1563 0.0
C28 C 0.53242 0.17268 0.09577 0.0
C29 C 0.51307 0.41287 0.16808 0.0
O30 O 0.56799 0.28826 0.37875 0.0
O31 O 0.62765 0.28709 0.20182 0.0
O32 O 0.42342 0.33308 0.43357 0.0
O33 O 0.40833 0.24506 0.3348 0.0
O34 O 0.47969 0.4116 0.26481 0.0
O35 O 0.52896 0.35722 0.14703 0.0
O36 O 0.48459 0.30093 0.9392 0.0
O37 O 0.42706 0.291 0.11762 0.0
C38 C 0.61948 0.28696 0.32389 0.0
C39 C 0.43411 0.29547 -0.00303 0.0
Dy40 Dy 0.06846 0.29093 0.93808 0.0
C41 C 0.88784 0.29083 0.5545 0.0
C42 C 0.1662 0.26837 0.06229 0.0
Dy43 Dy 0.98481 0.27295 0.69251 0.0
O44 O 0.13284 0.31666 0.08604 0.0
O45 O 0.13975 0.22782 -0.01195 0.0
O46 O 0.06672 0.39486 0.96543 0.0
O47 O 0.02219 0.35064 0.81427 0.0
C48 C 0.03244 0.40352 0.87323 0.0
C49 C 1.01306 0.16331 0.80373 0.0
O50 O 0.06825 0.28815 0.59299 0.0
O51 O 0.12722 0.29029 0.77067 0.0
O52 O 0.92266 0.24303 0.53875 0.0
O53 O 0.9085 0.33092 0.63829 0.0
O54 O 0.98049 0.16407 0.70587 0.0
O55 O 0.02816 0.2193 0.82578 0.0
O56 O 0.98383 0.27558 0.03318 0.0
O57 O 0.92692 0.28429 0.85392 0.0
C58 C 0.11949 0.29003 0.64849 0.0
C59 C 0.93359 0.28039 0.97478 0.0
Dy60 Dy 0.56837 0.7909 0.93764 0.0
C61 C 0.38819 0.78965 0.55152 0.0
C62 C 0.66501 0.76547 0.06433 0.0
Dy63 Dy 0.48465 0.77335 0.69234 0.0
O64 O 0.63277 0.81481 0.08686 0.0
O65 O 0.63808 0.7259 -0.01106 0.0
O66 O 0.56813 0.89473 0.96467 0.0
O67 O 0.52225 0.85126 0.81438 0.0
C68 C 0.53273 0.90388 0.87464 0.0
C69 C 0.51212 0.66391 0.80499 0.0
O70 O 0.5684 0.78771 0.59272 0.0
O71 O 0.62743 0.78972 0.77029 0.0
O72 O 0.42329 0.742 0.53792 0.0
O73 O 0.40833 0.83044 0.63466 0.0
O74 O 0.47917 0.66458 0.70781 0.0
O75 O 0.52782 0.71973 0.82549 0.0
O76 O 0.48271 0.77725 0.03192 0.0
O77 O 0.42624 0.78641 0.85226 0.0
C78 C 0.61973 0.78933 0.64801 0.0
C79 C 0.4325 0.78269 0.97314 0.0
C80 C 0.99266 0.51366 0.92795 0.0
C81 C 1.00125 0.46223 0.87598 0.0
C82 C 0.99539 0.56921 0.0091 0.0
C83 C 1.00569 0.61808 0.06935 0.0
C84 C 0.52533 0.51161 0.02445 0.0
C85 C 0.52067 0.4657 0.08768 0.0
C86 C 0.52507 0.56565 0.94926 0.0
C87 C 0.52005 0.61131 0.88564 0.0
C88 C 0.48834 1.01083 0.94276 0.0
C89 C 0.49917 0.96115 0.88558 0.0
C90 C 0.4882 0.0654 0.02745 0.0
C91 C 0.49886 0.11516 0.08471 0.0
C92 C 0.02782 1.00947 0.01988 0.0
C93 C 0.025 0.96358 0.08393 0.0
C94 C 0.02649 0.06402 0.94572 0.0
C95 C 1.02123 0.11016 0.8832 0.0
C96 C 0.27916 0.78912 0.4746 0.0
C97 C 0.32891 0.78895 0.50919 0.0
C98 C 0.22029 0.78735 0.43672 0.0
C99 C 0.17171 0.786 0.39508 0.0
C100 C 0.2203 0.28717 0.533 0.0
C101 C 0.17176 0.28852 0.57498 0.0
C102 C 0.27913 0.28532 0.49502 0.0
C103 C 0.32892 0.28562 0.46067 0.0
C104 C 0.7786 0.29125 0.47935 0.0
C105 C 0.82842 0.29082 0.51335 0.0
C106 C 0.71984 0.28958 0.44085 0.0
C107 C 0.67148 0.28831 0.39809 0.0
C108 C 0.77921 0.78401 0.49084 0.0
C109 C 0.82901 0.78426 0.45574 0.0
C110 C 0.72049 0.78607 0.53078 0.0
C111 C 0.67208 0.78759 0.57407 0.0
C112 C 0.32695 0.79074 0.02159 0.0
C113 C 0.37827 0.78611 0.03505 0.0
C114 C 0.27129 0.79455 0.96943 0.0
C115 C 0.22241 0.79531 0.93199 0.0
C116 C 0.27395 0.28249 -0.00208 0.0
C117 C 0.22522 0.28027 0.03515 0.0
C118 C 0.32933 0.28754 0.94582 0.0
C119 C 0.38058 0.29246 0.93349 0.0
C120 C 0.7738 0.29414 0.97165 0.0
C121 C 0.72526 0.29652 0.93398 0.0
C122 C 0.8288 0.28884 0.0247 0.0
C123 C 0.87991 0.28374 0.03784 0.0
C124 C 0.8286 0.78055 0.94887 0.0
C125 C 0.87948 0.78745 0.93245 0.0
C126 C 0.77361 0.7756 0.0034 0.0
C127 C 0.72469 0.77531 0.04006 0.0
loop_
_geom_bond_atom_site_label_1
_geom_bond_atom_site_label_2
_geom_bond_distance
_geom_bond_site_symmetry_2
_ccdc_geom_bond_type
Dy0 O4 2.398 1_554 S
Dy0 O5 2.491 1_554 S
Dy0 O6 2.403 . S
Dy0 O7 2.664 1_455 S
Dy0 O11 2.326 . S
Dy0 O15 2.310 . S
Dy0 O16 2.351 1_454 S
C1 O12 1.185 . S
C1 O13 1.355 . S
C2 O4 1.185 . S
C2 O5 1.359 . S
Dy3 O7 2.310 . S
Dy3 O10 2.351 1_655 S
Dy3 O12 2.398 . S
Dy3 O13 2.491 . S
Dy3 O14 2.403 . S
Dy3 O15 2.664 1_655 S
Dy3 O17 2.326 . S
O4 Dy0 2.398 1_556 S
O4 C2 1.185 . S
O5 Dy0 2.491 1_556 S
O5 C2 1.359 . S
O6 Dy0 2.403 . S
O6 C8 1.254 . S
O7 Dy0 2.664 1_655 S
O7 Dy3 2.310 . S
O7 C8 1.268 1_655 S
C8 O6 1.254 . S
C8 O7 1.268 1_455 S
C9 O14 1.245 1_455 S
C9 O15 1.273 . S
O10 Dy3 2.351 1_455 S
O10 C18 1.249 . S
O11 Dy0 2.326 . S
O11 C18 1.267 . S
O12 C1 1.185 . S
O12 Dy3 2.398 . S
O13 C1 1.355 . S
O13 Dy3 2.491 . S
O14 Dy3 2.403 . S
O14 C9 1.245 1_655 S
O15 Dy0 2.310 . S
O15 Dy3 2.664 1_455 S
O15 C9 1.273 . S
O16 Dy0 2.351 1_656 S
O16 C19 1.249 1_556 S
O17 Dy3 2.326 . S
O17 C19 1.267 . S
C18 O10 1.249 . S
C18 O11 1.267 . S
C19 O16 1.249 1_554 S
C19 O17 1.267 . S
Dy20 O24 2.398 1_554 S
Dy20 O25 2.491 1_554 S
Dy20 O26 2.403 . S
Dy20 O27 2.664 . S
Dy20 O31 2.326 . S
Dy20 O35 2.310 . S
Dy20 O36 2.351 1_554 S
C21 O32 1.185 . S
C21 O33 1.355 . S
C22 O24 1.185 . S
C22 O25 1.359 . S
Dy23 O27 2.310 . S
Dy23 O30 2.351 . S
Dy23 O32 2.398 . S
Dy23 O33 2.491 . S
Dy23 O34 2.403 . S
Dy23 O35 2.664 . S
Dy23 O37 2.326 . S
O24 Dy20 2.398 1_556 S
O24 C22 1.185 . S
O25 Dy20 2.491 1_556 S
O25 C22 1.359 . S
O26 Dy20 2.403 . S
O26 C28 1.254 . S
O27 Dy20 2.664 . S
O27 Dy23 2.310 . S
O27 C28 1.268 . S
C28 O26 1.254 . S
C28 O27 1.268 . S
C29 O34 1.254 . S
C29 O35 1.268 . S
O30 Dy23 2.351 . S
O30 C38 1.249 . S
O31 Dy20 2.326 . S
O31 C38 1.267 . S
O32 C21 1.185 . S
O32 Dy23 2.398 . S
O33 C21 1.355 . S
O33 Dy23 2.491 . S
O34 Dy23 2.403 . S
O34 C29 1.254 . S
O35 Dy20 2.310 . S
O35 Dy23 2.664 . S
O35 C29 1.268 . S
O36 Dy20 2.351 1_556 S
O36 C39 1.249 1_556 S
O37 Dy23 2.326 . S
O37 C39 1.267 . S
C38 O30 1.249 . S
C38 O31 1.267 . S
C39 O36 1.249 1_554 S
C39 O37 1.267 . S
Dy40 O44 2.398 1_556 S
Dy40 O45 2.491 1_556 S
Dy40 O46 2.403 . S
Dy40 O47 2.664 1_455 S
Dy40 O51 2.326 . S
Dy40 O55 2.310 . S
Dy40 O56 2.351 1_456 S
C41 O52 1.185 . S
C41 O53 1.355 . S
C42 O44 1.185 . S
C42 O45 1.359 . S
Dy43 O47 2.310 . S
Dy43 O50 2.351 1_655 S
Dy43 O52 2.398 . S
Dy43 O53 2.491 . S
Dy43 O54 2.403 . S
Dy43 O55 2.664 1_655 S
Dy43 O57 2.326 . S
O44 Dy40 2.398 1_554 S
O44 C42 1.185 . S
O45 Dy40 2.491 1_554 S
O45 C42 1.359 . S
O46 Dy40 2.403 . S
O46 C48 1.254 . S
O47 Dy40 2.664 1_655 S
O47 Dy43 2.310 . S
O47 C48 1.268 1_655 S
C48 O46 1.254 . S
C48 O47 1.268 1_455 S
C49 O54 1.245 1_455 S
C49 O55 1.273 . S
O50 Dy43 2.351 1_455 S
O50 C58 1.249 . S
O51 Dy40 2.326 . S
O51 C58 1.267 . S
O52 C41 1.185 . S
O52 Dy43 2.398 . S
O53 C41 1.355 . S
O53 Dy43 2.491 . S
O54 Dy43 2.403 . S
O54 C49 1.245 1_655 S
O55 Dy40 2.310 . S
O55 Dy43 2.664 1_455 S
O55 C49 1.273 . S
O56 Dy40 2.351 1_654 S
O56 C59 1.249 1_554 S
O57 Dy43 2.326 . S
O57 C59 1.267 . S
C58 O50 1.249 . S
C58 O51 1.267 . S
C59 O56 1.249 1_556 S
C59 O57 1.267 . S
Dy60 O64 2.398 1_556 S
Dy60 O65 2.491 1_556 S
Dy60 O66 2.403 . S
Dy60 O67 2.664 . S
Dy60 O71 2.326 . S
Dy60 O75 2.310 . S
Dy60 O76 2.351 1_556 S
C61 O72 1.185 . S
C61 O73 1.355 . S
C62 O64 1.185 . S
C62 O65 1.359 . S
Dy63 O67 2.310 . S
Dy63 O70 2.351 . S
Dy63 O72 2.398 . S
Dy63 O73 2.491 . S
Dy63 O74 2.403 . S
Dy63 O75 2.664 . S
Dy63 O77 2.326 . S
O64 Dy60 2.398 1_554 S
O64 C62 1.185 . S
O65 Dy60 2.491 1_554 S
O65 C62 1.359 . S
O66 Dy60 2.403 . S
O66 C68 1.254 . S
O67 Dy60 2.664 . S
O67 Dy63 2.310 . S
O67 C68 1.268 . S
C68 O66 1.254 . S
C68 O67 1.268 . S
C69 O74 1.254 . S
C69 O75 1.268 . S
O70 Dy63 2.351 . S
O70 C78 1.249 . S
O71 Dy60 2.326 . S
O71 C78 1.267 . S
O72 C61 1.185 . S
O72 Dy63 2.398 . S
O73 C61 1.355 . S
O73 Dy63 2.491 . S
O74 Dy63 2.403 . S
O74 C69 1.254 . S
O75 Dy60 2.310 . S
O75 Dy63 2.664 . S
O75 C69 1.268 . S
O76 Dy60 2.351 1_554 S
O76 C79 1.249 1_554 S
O77 Dy63 2.326 . S
O77 C79 1.267 . S
C78 O70 1.249 . S
C78 O71 1.267 . S
C79 O76 1.249 1_556 S
C79 O77 1.267 . S
C80 C81 1.170 1_455 S
C80 C82 1.380 1_556 S
C81 C80 1.170 1_655 S
C82 C80 1.380 1_554 S
C82 C83 1.170 1_455 S
C83 C82 1.170 1_655 S
C84 C85 1.170 . S
C84 C86 1.380 1_554 S
C85 C84 1.170 . S
C86 C84 1.380 1_556 S
C86 C87 1.170 . S
C87 C86 1.170 . S
C88 C89 1.170 . S
C88 C90 1.380 1_566 S
C89 C88 1.170 . S
C90 C88 1.380 1_544 S
C90 C91 1.170 . S
C91 C90 1.170 . S
C92 C93 1.170 . S
C92 C94 1.380 1_564 S
C93 C92 1.170 . S
C94 C92 1.380 1_546 S
C94 C95 1.170 . S
C95 C94 1.170 . S
C96 C97 1.170 . S
C96 C98 1.380 . S
C97 C96 1.170 . S
C98 C96 1.380 . S
C98 C99 1.170 . S
C99 C98 1.170 . S
C100 C101 1.170 . S
C100 C102 1.380 . S
C101 C100 1.170 . S
C102 C100 1.380 . S
C102 C103 1.170 . S
C103 C102 1.170 . S
C104 C105 1.170 . S
C104 C106 1.380 . S
C105 C104 1.170 . S
C106 C104 1.380 . S
C106 C107 1.170 . S
C107 C106 1.170 . S
C108 C109 1.170 . S
C108 C110 1.380 . S
C109 C108 1.170 . S
C110 C108 1.380 . S
C110 C111 1.170 . S
C111 C110 1.170 . S
C112 C113 1.170 . S
C112 C114 1.380 . S
C113 C112 1.170 . S
C114 C112 1.380 . S
C114 C115 1.170 . S
C115 C114 1.170 . S
C116 C117 1.170 . S
C116 C118 1.380 . S
C117 C116 1.170 . S
C118 C116 1.380 . S
C118 C119 1.170 . S
C119 C118 1.170 . S
C120 C121 1.170 . S
C120 C122 1.380 . S
C121 C120 1.170 . S
C122 C120 1.380 . S
C122 C123 1.170 . S
C123 C122 1.170 . S
C124 C125 1.170 . S
C124 C126 1.380 . S
C125 C124 1.170 . S
C126 C124 1.380 . S
C126 C127 1.170 . S
C127 C126 1.170 . S
C81 C48 1.732 1_655 S
C83 C8 1.696 1_655 S
C85 C29 2.009 . S
C87 C69 1.997 . S
C89 C68 1.713 . S
C91 C28 1.717 . S
C93 C9 2.003 . S
C95 C49 2.015 . S
C97 C61 1.505 . S
C99 C18 1.520 . S
C101 C58 1.527 . S
C103 C21 1.506 . S
C105 C41 1.523 . S
C107 C38 1.522 . S
C109 C1 1.515 . S
C111 C78 1.528 . S
C113 C79 1.218 . S
C115 C2 1.209 . S
C117 C42 1.221 . S
C119 C39 1.197 . S
C121 C22 1.219 . S
C123 C59 1.200 . S
C125 C19 1.178 . S
C127 C62 1.236 . S
