# Generated by pormake.
# Topology hex, (8)-cn, num edge types: 1
# Building blocks:
#     Node 0, Type 0, BuildingBlock: AJUNOK_clean_sbu_0, # of connection points: 8
#     Edge 1, Type (0, 0), BuildingBlock: CIFDUS_clean_linker_0, # of connection points: 2
#     Edge 2, Type (0, 0), BuildingBlock: CIFDUS_clean_linker_0, # of connection points: 2
#     Edge 3, Type (0, 0), BuildingBlock: CIFDUS_clean_linker_0, # of connection points: 2
#     Edge 4, Type (0, 0), BuildingBlock: CIFDUS_clean_linker_0, # of connection points: 2
# Relax obj value: 0.043
# Max RMSD: 0.090
# Mean RMSD: 0.090
data_MOF--net-hex--node1-AJUNOK_clean_sbu_0--edge1-CIFDUS_clean_linker_0
_symmetry_space_group_name_H-M    P1
_symmetry_Int_Tables_number       1
_symmetry_cell_setting            triclinic
loop_
_symmetry_equiv_pos_as_xyz
'x, y, z'
_cell_length_a     19.373227
_cell_length_b     19.161666
_cell_length_c     13.554936
_cell_angle_alpha  91.47988
_cell_angle_beta   91.076822
_cell_angle_gamma 124.99831
loop_
_atom_site_label
_atom_site_type_symbol
_atom_site_fract_x
_atom_site_fract_y
_atom_site_fract_z
_atom_type_partial_charge
Cd0 Cd 0.10122 0.07404 -0.0017 0.0
Cd1 Cd 0.8566 0.83718 0.96084 0.0
C2 C 0.97168 0.1182 0.07457 0.0
N3 N 0.01016 0.11653 -0.00741 0.0
C4 C -0.01354 0.21138 0.91341 0.0
C5 C 0.95214 0.21971 -0.00026 0.0
C6 C 0.94082 0.16859 0.07909 0.0
C7 C 0.01534 0.15934 0.91158 0.0
H8 H 0.96997 0.08532 0.139 0.0
H9 H 0.04859 0.159 0.84857 0.0
C10 C -0.00823 -0.0426 0.77359 0.0
C11 C 0.94604 0.74499 0.88718 0.0
C12 C 0.95621 0.67838 0.88315 0.0
C13 C 0.9303 0.62305 0.9618 0.0
C14 C 0.90002 0.6402 0.04578 0.0
C15 C 0.89118 0.70755 0.0468 0.0
N16 N 0.91217 0.75689 0.96734 0.0
H17 H 0.96036 0.7836 0.82386 0.0
H18 H 0.86197 0.71673 0.10827 0.0
C19 C 0.80964 -0.0321 0.89667 0.0
N20 N 0.81592 0.92988 0.97639 0.0
C21 C 0.72855 -0.04369 0.06819 0.0
C22 C 0.7156 -0.00995 -0.01514 0.0
C23 C 0.76015 -0.00038 0.89977 0.0
C24 C 0.7789 0.92605 0.06215 0.0
H25 H 0.83764 -0.03214 0.82844 0.0
H26 H 0.78301 0.89339 0.12342 0.0
C27 C -0.02071 0.94076 0.18507 0.0
C28 C 0.25058 0.24323 0.01168 0.0
N29 N 0.17275 0.00922 -0.01282 0.0
C30 C 0.17921 -0.03078 0.06453 0.0
C31 C 0.23917 0.95051 0.06539 0.0
C32 C 0.2935 -0.02599 -0.01358 0.0
C33 C 0.28233 0.01143 0.9055 0.0
C34 C 0.22152 0.02881 0.90762 0.0
C35 C 0.68779 0.68882 0.94721 0.0
O36 O 0.04969 0.01527 0.83193 0.0
O37 O 0.92341 0.89459 0.80566 0.0
O38 O 0.91896 0.88623 0.12655 0.0
O39 O 0.04483 0.0072 0.15346 0.0
O40 O 0.21471 0.20518 0.92952 0.0
O41 O 0.2167 0.20251 0.08861 0.0
O42 O 0.72641 0.72354 0.02939 0.0
O43 O 0.72752 0.72391 0.87015 0.0
H44 H 0.14149 -0.04375 0.12818 0.0
H45 H 0.21638 0.06232 0.8481 0.0
H46 H -0.00223 0.25009 0.8508 0.0
H47 H 0.9132 0.1715 0.14641 0.0
H48 H -0.01902 0.66828 0.81752 0.0
H49 H 0.87819 0.5988 0.10757 0.0
H50 H 0.69584 0.94852 0.13538 0.0
H51 H 0.75131 0.02475 0.83376 0.0
H52 H 0.24603 0.92237 0.1298 0.0
H53 H 0.32189 0.02949 0.84247 0.0
H54 H 0.89575 0.27963 0.86099 0.0
H55 H -0.01423 0.32078 0.1653 0.0
H56 H -0.01445 0.4473 0.18066 0.0
H57 H 0.96989 0.55263 0.10523 0.0
H58 H 0.88396 0.51468 0.79987 0.0
H59 H 0.87637 0.38319 0.78661 0.0
C60 C 0.91535 0.31618 0.93073 0.0
C61 C 0.94062 0.29001 0.01168 0.0
C62 C 0.91786 0.39094 0.93845 0.0
C63 C 0.96433 0.33777 0.10196 0.0
C64 C 0.96546 0.41118 0.11062 0.0
C65 C 0.94892 0.51536 0.03592 0.0
C66 C 0.9284 0.54427 0.95351 0.0
C67 C 0.94384 0.43923 0.02893 0.0
C68 C 0.90206 0.49526 0.86402 0.0
C69 C 0.89675 0.41941 0.85659 0.0
H70 H 0.55641 0.88165 0.04367 0.0
H71 H 0.72072 0.12665 0.91707 0.0
H72 H 0.60409 0.14287 0.90515 0.0
H73 H 0.45532 0.08669 0.93101 0.0
H74 H 0.29136 0.83953 0.05391 0.0
H75 H 0.40855 0.8254 0.0683 0.0
C76 C 0.56706 0.93922 0.0148 0.0
C77 C 0.64725 0.00334 -0.01771 0.0
C78 C 0.49976 0.94747 0.00723 0.0
C79 C 0.65954 0.07653 0.94264 0.0
C80 C 0.59292 0.08571 0.93585 0.0
C81 C 0.44488 0.02921 0.95978 0.0
C82 C 0.36435 -0.03586 -0.00882 0.0
C83 C 0.5126 0.0213 0.96741 0.0
C84 C 0.35264 0.89091 0.03009 0.0
C85 C 0.41959 0.88266 0.03806 0.0
H86 H 0.33588 0.34049 0.85824 0.0
H87 H 0.34179 0.33987 0.17681 0.0
H88 H 0.47605 0.48034 0.1846 0.0
H89 H 0.59417 0.59977 0.10086 0.0
H90 H 0.58977 0.59927 0.78224 0.0
H91 H 0.45169 0.46246 0.77458 0.0
C92 C 0.36631 0.37125 0.92943 0.0
C93 C 0.3293 0.32977 0.01681 0.0
C94 C 0.4436 0.4515 0.93331 0.0
C95 C 0.36926 0.37045 0.10848 0.0
C96 C 0.44597 0.45067 0.113 0.0
C97 C 0.56279 0.57004 0.0297 0.0
C98 C 0.60218 0.60927 0.94223 0.0
C99 C 0.48407 0.49125 0.02586 0.0
C100 C 0.56075 0.57013 0.85062 0.0
C101 C 0.48194 0.49192 0.84618 0.0
H102 H 0.88386 0.84584 0.62678 0.0
H103 H 0.12759 0.08488 0.67878 0.0
H104 H 0.14633 0.09897 0.50145 0.0
H105 H 0.09208 0.04599 0.33197 0.0
H106 H 0.84791 0.80759 0.27956 0.0
H107 H 0.8313 0.79078 0.45704 0.0
C108 C 0.9412 0.90097 0.59946 0.0
C109 C 0.00393 -0.03566 0.66611 0.0
C110 C 0.95161 0.90893 0.49738 0.0
C111 C 0.07803 0.03517 0.62926 0.0
C112 C 0.0889 0.04338 0.52779 0.0
C113 C 0.03533 -0.00989 0.35919 0.0
C114 C 0.97126 0.92843 0.29244 0.0
C115 C 0.02585 -0.01901 0.46124 0.0
C116 C 0.89824 0.85629 0.32921 0.0
C117 C 0.88856 0.84659 0.43074 0.0
loop_
_geom_bond_atom_site_label_1
_geom_bond_atom_site_label_2
_geom_bond_distance
_geom_bond_site_symmetry_2
_ccdc_geom_bond_type
Cd0 N3 2.334 . S
Cd0 N29 2.304 . S
Cd0 O36 2.268 1_554 S
Cd0 O39 2.273 . S
Cd0 O40 2.417 1_554 S
Cd0 O41 2.330 . S
Cd1 N16 2.304 . S
Cd1 N20 2.334 . S
Cd1 O37 2.273 . S
Cd1 O38 2.268 1_556 S
Cd1 O42 2.417 1_556 S
Cd1 O43 2.330 . S
C2 N3 1.332 . S
C2 C6 1.381 . S
C2 H8 0.931 . S
N3 Cd0 2.334 . S
N3 C2 1.332 . S
N3 C7 1.328 1_554 S
C4 C5 1.396 1_556 S
C4 C7 1.378 1_655 S
C4 H46 0.931 . S
C5 C4 1.396 1_554 S
C5 C6 1.382 1_655 S
C6 C2 1.381 . S
C6 C5 1.382 1_455 S
C6 H47 0.930 . S
C7 N3 1.328 1_556 S
C7 C4 1.378 1_455 S
C7 H9 0.930 . S
H8 C2 0.931 . S
H9 C7 0.930 . S
C10 O36 1.238 1_665 S
C10 O37 1.253 . S
C11 C12 1.379 . S
C11 N16 1.337 . S
C11 H17 0.929 . S
C12 C11 1.379 . S
C12 C13 1.380 1_655 S
C12 H48 0.929 . S
C13 C12 1.380 1_455 S
C13 C14 1.399 1_556 S
C14 C13 1.399 1_554 S
C14 C15 1.376 1_455 S
C14 H49 0.931 . S
C15 C14 1.376 1_655 S
C15 N16 1.338 1_554 S
C15 H18 0.930 . S
N16 Cd1 2.304 . S
N16 C11 1.337 . S
N16 C15 1.338 1_556 S
H17 C11 0.929 . S
H18 C15 0.930 . S
C19 N20 1.332 . S
C19 C23 1.381 . S
C19 H25 0.931 . S
N20 Cd1 2.334 . S
N20 C19 1.332 . S
N20 C24 1.328 1_556 S
C21 C22 1.396 1_554 S
C21 C24 1.378 1_545 S
C21 H50 0.931 . S
C22 C21 1.396 1_556 S
C22 C23 1.382 1_545 S
C23 C19 1.381 . S
C23 C22 1.382 1_565 S
C23 H51 0.930 . S
C24 N20 1.328 1_554 S
C24 C21 1.378 1_565 S
C24 H26 0.930 . S
H25 C19 0.931 . S
H26 C24 0.930 . S
C27 O38 1.238 1_445 S
C27 O39 1.253 . S
C28 O40 1.239 . S
C28 O41 1.230 1_556 S
N29 Cd0 2.304 . S
N29 C30 1.337 . S
N29 C34 1.338 1_554 S
C30 N29 1.337 . S
C30 C31 1.379 . S
C30 H44 0.929 . S
C31 C30 1.379 . S
C31 C32 1.380 1_545 S
C31 H52 0.929 . S
C32 C31 1.380 1_565 S
C32 C33 1.399 1_554 S
C33 C32 1.399 1_556 S
C33 C34 1.376 1_565 S
C33 H53 0.931 . S
C34 N29 1.338 1_556 S
C34 C33 1.376 1_545 S
C34 H45 0.930 . S
C35 O42 1.239 . S
C35 O43 1.230 1_554 S
O36 Cd0 2.268 1_556 S
O36 C10 1.238 1_445 S
O37 Cd1 2.273 . S
O37 C10 1.253 . S
O38 Cd1 2.268 1_554 S
O38 C27 1.238 1_665 S
O39 Cd0 2.273 . S
O39 C27 1.253 . S
O40 Cd0 2.417 1_556 S
O40 C28 1.239 . S
O41 Cd0 2.330 . S
O41 C28 1.230 1_554 S
O42 Cd1 2.417 1_554 S
O42 C35 1.239 . S
O43 Cd1 2.330 . S
O43 C35 1.230 1_556 S
H44 C30 0.929 . S
H45 C34 0.930 . S
H46 C4 0.931 . S
H47 C6 0.930 . S
H48 C12 0.929 . S
H49 C14 0.931 . S
H50 C21 0.931 . S
H51 C23 0.930 . S
H52 C31 0.929 . S
H53 C33 0.931 . S
H54 C60 0.930 . S
H55 C63 0.930 . S
H56 C64 0.930 . S
H57 C65 0.930 . S
H58 C68 0.930 . S
H59 C69 0.930 . S
C60 H54 0.930 . S
C60 C61 1.355 1_556 S
C60 C62 1.415 . S
C61 C60 1.355 1_554 S
C61 C63 1.419 1_655 S
C62 C60 1.415 . S
C62 C67 1.425 1_656 S
C62 C69 1.409 . S
C63 H55 0.930 . S
C63 C61 1.419 1_455 S
C63 C64 1.362 . S
C64 H56 0.930 . S
C64 C63 1.362 . S
C64 C67 1.409 . S
C65 H57 0.930 . S
C65 C66 1.355 1_554 S
C65 C67 1.415 . S
C66 C65 1.355 1_556 S
C66 C68 1.419 1_455 S
C67 C62 1.425 1_454 S
C67 C64 1.409 . S
C67 C65 1.415 . S
C68 H58 0.930 . S
C68 C66 1.419 1_655 S
C68 C69 1.362 . S
C69 H59 0.930 . S
C69 C62 1.409 . S
C69 C68 1.362 . S
H70 C76 0.930 . S
H71 C79 0.930 . S
H72 C80 0.930 . S
H73 C81 0.930 . S
H74 C84 0.930 . S
H75 C85 0.930 . S
C76 H70 0.930 . S
C76 C77 1.355 1_564 S
C76 C78 1.415 . S
C77 C76 1.355 1_546 S
C77 C79 1.419 . S
C78 C76 1.415 . S
C78 C83 1.425 1_564 S
C78 C85 1.409 . S
C79 H71 0.930 . S
C79 C77 1.419 . S
C79 C80 1.362 . S
C80 H72 0.930 . S
C80 C79 1.362 . S
C80 C83 1.409 . S
C81 H73 0.930 . S
C81 C82 1.355 1_546 S
C81 C83 1.415 . S
C82 C81 1.355 1_564 S
C82 C84 1.419 . S
C83 C78 1.425 1_546 S
C83 C80 1.409 . S
C83 C81 1.415 . S
C84 H74 0.930 . S
C84 C82 1.419 . S
C84 C85 1.362 . S
C85 H75 0.930 . S
C85 C78 1.409 . S
C85 C84 1.362 . S
H86 C92 0.930 . S
H87 C95 0.930 . S
H88 C96 0.930 . S
H89 C97 0.930 . S
H90 C100 0.930 . S
H91 C101 0.930 . S
C92 H86 0.930 . S
C92 C93 1.355 . S
C92 C94 1.415 . S
C93 C92 1.355 . S
C93 C95 1.419 1_556 S
C94 C92 1.415 . S
C94 C99 1.425 1_556 S
C94 C101 1.409 . S
C95 H87 0.930 . S
C95 C93 1.419 1_554 S
C95 C96 1.362 . S
C96 H88 0.930 . S
C96 C95 1.362 . S
C96 C99 1.409 . S
C97 H89 0.930 . S
C97 C98 1.355 . S
C97 C99 1.415 . S
C98 C97 1.355 . S
C98 C100 1.419 1_554 S
C99 C94 1.425 1_554 S
C99 C96 1.409 . S
C99 C97 1.415 . S
C100 H90 0.930 . S
C100 C98 1.419 1_556 S
C100 C101 1.362 . S
C101 H91 0.930 . S
C101 C94 1.409 . S
C101 C100 1.362 . S
H102 C108 0.930 . S
H103 C111 0.930 . S
H104 C112 0.930 . S
H105 C113 0.930 . S
H106 C116 0.930 . S
H107 C117 0.930 . S
C108 H102 0.930 . S
C108 C109 1.355 1_665 S
C108 C110 1.415 . S
C109 C108 1.355 1_445 S
C109 C111 1.419 . S
C110 C108 1.415 . S
C110 C115 1.425 1_665 S
C110 C117 1.409 . S
C111 H103 0.930 . S
C111 C109 1.419 . S
C111 C112 1.362 . S
C112 H104 0.930 . S
C112 C111 1.362 . S
C112 C115 1.409 . S
C113 H105 0.930 . S
C113 C114 1.355 1_445 S
C113 C115 1.415 . S
C114 C113 1.355 1_665 S
C114 C116 1.419 . S
C115 C110 1.425 1_445 S
C115 C112 1.409 . S
C115 C113 1.415 . S
C116 H106 0.930 . S
C116 C114 1.419 . S
C116 C117 1.362 . S
C117 H107 0.930 . S
C117 C110 1.409 . S
C117 C116 1.362 . S
C61 C5 1.818 . S
C66 C13 1.817 . S
C77 C22 1.849 . S
C82 C32 1.849 . S
C93 C28 0.590 . S
C98 C35 0.592 . S
C109 C10 1.495 1_445 S
C114 C27 1.495 1_665 S
