# Generated by pormake.
# Topology pcu, (6)-cn, num edge types: 1
# Building blocks:
#     Node 0, Type 0, BuildingBlock: CIFDUS_clean_sbu_1, # of connection points: 6
#     Edge 1, Type (0, 0), BuildingBlock: AJUNOK_clean_linker_0, # of connection points: 2
#     Edge 2, Type (0, 0), BuildingBlock: AJUNOK_clean_linker_0, # of connection points: 2
#     Edge 3, Type (0, 0), BuildingBlock: AJUNOK_clean_linker_0, # of connection points: 2
# Relax obj value: 0.009
# Max RMSD: 0.057
# Mean RMSD: 0.057
data_MOF--net-pcu--node1-CIFDUS_clean_sbu_1--edge1-AJUNOK_clean_linker_0
_symmetry_space_group_name_H-M    P1
_symmetry_Int_Tables_number       1
_symmetry_cell_setting            triclinic
loop_
_symmetry_equiv_pos_as_xyz
'x, y, z'
_cell_length_a     11.737288
_cell_length_b     11.783421
_cell_length_c     11.491766
_cell_angle_alpha  73.412836
_cell_angle_beta   106.51441
_cell_angle_gamma 94.902323
loop_
_atom_site_label
_atom_site_type_symbol
_atom_site_fract_x
_atom_site_fract_y
_atom_site_fract_z
_atom_type_partial_charge
O0 O 0.99519 0.81202 1.02541 0.0
Mn1 Mn 1.0087 0.98724 0.04127 0.0
O2 O 0.12153 0.70754 0.20194 0.0
Mn3 Mn 0.16504 0.83353 0.26869 0.0
O4 O 0.02504 0.16175 0.06179 0.0
O5 O 0.96415 0.0381 0.84313 0.0
Mn6 Mn 0.87209 0.15924 0.82268 0.0
O7 O 0.8305 0.97739 0.04565 0.0
O8 O 0.95882 0.28202 0.86992 0.0
O9 O 0.18886 -0.00151 0.03538 0.0
O10 O 0.2942 0.91645 0.23147 0.0
O11 O 0.85616 0.16309 0.66456 0.0
O12 O 0.73773 0.11768 0.87767 0.0
C13 C 0.07039 0.89501 0.36227 0.0
C14 C 0.04741 0.71473 0.09607 0.0
C15 C 1.01204 0.26596 0.98479 0.0
C16 C 0.93066 0.07615 0.71828 0.0
C17 C 0.73648 0.03646 0.97691 0.0
C18 C 0.28941 0.97162 0.11867 0.0
O19 O 0.04637 0.93086 0.23786 0.0
O20 O 0.15135 0.81494 0.42311 0.0
C21 C 0.99677 0.86449 0.55142 0.0
C22 C 1.01612 0.94269 0.43971 0.0
C23 C 0.97559 0.90637 0.64639 0.0
C24 C 0.97335 0.02824 0.63265 0.0
H25 H 1.00112 0.76963 0.56691 0.0
H26 H 0.95876 0.84345 0.72922 0.0
S27 S 0.02587 0.26966 0.36399 0.0
N28 N 0.03483 0.14734 0.32417 0.0
N29 N 0.99652 0.22649 0.50211 0.0
C30 C 0.99278 0.10701 0.52183 0.0
C31 C 1.01295 0.06442 0.425 0.0
C32 C 0.41275 0.06658 0.96844 0.0
C33 C 0.40363 0.98842 0.08324 0.0
C34 C 0.52026 0.07999 0.93487 0.0
C35 C 0.62302 0.01508 1.01395 0.0
H36 H 0.33676 0.11845 0.90442 0.0
H37 H 0.5225 0.14261 0.84584 0.0
S38 S 0.64415 0.79283 0.32207 0.0
N39 N 0.50615 0.84067 0.27413 0.0
N40 N 0.70662 0.86679 0.21081 0.0
C41 C 0.61442 0.93506 0.128 0.0
C42 C 0.50537 0.92165 0.16254 0.0
C43 C 0.12669 0.56278 1.0301 0.0
C44 C 0.0303 0.60599 0.05482 0.0
C45 C 0.12481 0.44822 1.01578 0.0
C46 C 0.02784 0.37234 1.0295 0.0
H47 H 0.20466 0.6178 1.02313 0.0
H48 H 0.19842 0.4196 0.99182 0.0
S49 S 0.75493 0.4414 0.09623 0.0
N50 N 0.83626 0.56336 0.09371 0.0
N51 N 0.83287 0.3477 0.06695 0.0
C52 C 0.93135 0.41426 0.05442 0.0
C53 C 0.93257 0.53115 0.0675 0.0
loop_
_geom_bond_atom_site_label_1
_geom_bond_atom_site_label_2
_geom_bond_distance
_geom_bond_site_symmetry_2
_ccdc_geom_bond_type
O0 Mn1 2.163 1_666 S
O0 C14 1.244 1_656 S
Mn1 O0 2.163 1_444 S
Mn1 O4 2.160 . S
Mn1 O5 2.221 1_454 S
Mn1 O7 2.163 1_445 S
Mn1 O9 2.160 1_554 S
Mn1 O19 2.221 1_545 S
O2 Mn3 2.087 . S
O2 C14 1.256 . S
Mn3 O2 2.087 . S
Mn3 O10 2.089 . S
Mn3 O19 2.290 . S
Mn3 O20 2.251 . S
O4 Mn1 2.160 . S
O4 C15 1.239 1_454 S
O5 Mn1 2.221 1_656 S
O5 Mn6 2.290 . S
O5 C16 1.278 . S
Mn6 O5 2.290 . S
Mn6 O8 2.089 . S
Mn6 O11 2.251 . S
Mn6 O12 2.087 . S
O7 Mn1 2.163 1_665 S
O7 C17 1.244 1_564 S
O8 Mn6 2.089 . S
O8 C15 1.256 . S
O9 Mn1 2.160 1_556 S
O9 C18 1.239 1_546 S
O10 Mn3 2.089 . S
O10 C18 1.256 . S
O11 Mn6 2.251 . S
O11 C16 1.241 . S
O12 Mn6 2.087 . S
O12 C17 1.256 . S
C13 O19 1.278 . S
C13 O20 1.241 . S
C14 O0 1.244 1_454 S
C14 O2 1.256 . S
C15 O4 1.239 1_656 S
C15 O8 1.256 . S
C16 O5 1.278 . S
C16 O11 1.241 . S
C17 O7 1.244 1_546 S
C17 O12 1.256 . S
C18 O9 1.239 1_564 S
C18 O10 1.256 . S
O19 Mn1 2.221 1_565 S
O19 Mn3 2.290 . S
O19 C13 1.278 . S
O20 Mn3 2.251 . S
O20 C13 1.241 . S
C21 C22 1.369 1_455 S
C21 C23 1.419 . S
C21 H25 0.930 . S
C22 C21 1.369 1_655 S
C22 C31 1.429 1_565 S
C23 C21 1.419 . S
C23 C24 1.363 1_455 S
C23 H26 0.929 . S
C24 C23 1.363 1_655 S
C24 C30 1.428 1_565 S
H25 C21 0.930 . S
H26 C23 0.929 . S
S27 N28 1.613 . S
S27 N29 1.610 . S
N28 S27 1.613 . S
N28 C31 1.350 . S
N29 S27 1.610 . S
N29 C30 1.351 . S
C30 C24 1.428 1_545 S
C30 N29 1.351 . S
C30 C31 1.434 . S
C31 C22 1.429 1_545 S
C31 N28 1.350 . S
C31 C30 1.434 . S
C32 C33 1.369 1_556 S
C32 C34 1.419 . S
C32 H36 0.930 . S
C33 C32 1.369 1_554 S
C33 C42 1.429 1_545 S
C34 C32 1.419 . S
C34 C35 1.363 1_556 S
C34 H37 0.929 . S
C35 C34 1.363 1_554 S
C35 C41 1.428 1_545 S
H36 C32 0.930 . S
H37 C34 0.929 . S
S38 N39 1.613 . S
S38 N40 1.610 . S
N39 S38 1.613 . S
N39 C42 1.350 . S
N40 S38 1.610 . S
N40 C41 1.351 . S
C41 C35 1.428 1_565 S
C41 N40 1.351 . S
C41 C42 1.434 . S
C42 C33 1.429 1_565 S
C42 N39 1.350 . S
C42 C41 1.434 . S
C43 C44 1.369 . S
C43 C45 1.419 . S
C43 H47 0.930 . S
C44 C43 1.369 . S
C44 C53 1.429 1_456 S
C45 C43 1.419 . S
C45 C46 1.363 . S
C45 H48 0.929 . S
C46 C45 1.363 . S
C46 C52 1.428 1_456 S
H47 C43 0.930 . S
H48 C45 0.929 . S
S49 N50 1.613 . S
S49 N51 1.610 . S
N50 S49 1.613 . S
N50 C53 1.350 . S
N51 S49 1.610 . S
N51 C52 1.351 . S
C52 C46 1.428 1_654 S
C52 N51 1.351 . S
C52 C53 1.434 . S
C53 C44 1.429 1_654 S
C53 N50 1.350 . S
C53 C52 1.434 . S
C22 C13 1.313 1_655 S
C24 C16 1.301 1_565 S
C33 C18 1.449 1_545 S
C35 C17 1.456 1_554 S
C44 C14 1.450 1_556 S
C46 C15 1.454 1_455 S
