# Generated by pormake.
# Topology pcu, (6)-cn, num edge types: 1
# Building blocks:
#     Node 0, Type 0, BuildingBlock: KUMJIN_clean_sbu_1, # of connection points: 6
#     Edge 1, Type (0, 0), BuildingBlock: TEMPAE_clean_linker_10, # of connection points: 2
#     Edge 2, Type (0, 0), BuildingBlock: TEMPAE_clean_linker_10, # of connection points: 2
#     Edge 3, Type (0, 0), BuildingBlock: TEMPAE_clean_linker_10, # of connection points: 2
# Relax obj value: 0.000
# Max RMSD: 0.000
# Mean RMSD: 0.000
data_MOF--net-pcu--node1-KUMJIN_clean_sbu_1--edge1-TEMPAE_clean_linker_10
_symmetry_space_group_name_H-M    P1
_symmetry_Int_Tables_number       1
_symmetry_cell_setting            triclinic
loop_
_symmetry_equiv_pos_as_xyz
'x, y, z'
_cell_length_a     14.996567
_cell_length_b     24.950356
_cell_length_c     15.163848
_cell_angle_alpha  114.06783
_cell_angle_beta   89.549143
_cell_angle_gamma 115.29014
loop_
_atom_site_label
_atom_site_type_symbol
_atom_site_fract_x
_atom_site_fract_y
_atom_site_fract_z
_atom_type_partial_charge
Eu0 Eu 0.93678 0.90582 0.94156 0.0
C1 C 0.27735 0.1869 0.20504 0.0
N2 N 0.1789 0.16142 0.21232 0.0
C3 C 0.22773 0.20202 0.38664 0.0
C4 C 0.35496 0.21855 0.28808 0.0
C5 C 0.15363 0.17201 0.30251 0.0
C6 C 0.32877 0.22424 0.37908 0.0
C7 C 0.40188 0.21758 0.10798 0.0
C8 C 0.30083 0.18635 0.11624 0.0
C9 C 0.47942 0.2457 0.18881 0.0
C10 C 0.456 0.24608 0.27867 0.0
Eu11 Eu 0.05896 0.10842 0.06424 0.0
N12 N 0.22426 0.15859 0.03928 0.0
C13 C 0.42171 0.22164 0.01984 0.0
C14 C 0.24265 0.16576 0.95534 0.0
C15 C 0.34165 0.19659 0.9438 0.0
H16 H 0.07632 0.15789 0.31042 0.0
H17 H 0.35614 0.20082 0.8763 0.0
H18 H 0.8376 0.85757 0.71034 0.0
H19 H 0.7545 0.83489 0.21904 0.0
H20 H 0.18061 0.14638 0.89688 0.0
H21 H 0.49835 0.24539 0.01071 0.0
H22 H 0.89722 0.87793 0.14335 0.0
H23 H 0.20689 0.20871 0.45746 0.0
H24 H 0.55762 0.26908 0.18354 0.0
H25 H 0.51657 0.26993 0.34139 0.0
H26 H 0.6695 0.79714 0.60192 0.0
H27 H 0.3861 0.24823 0.44463 0.0
H28 H 0.57998 0.78532 0.13038 0.0
N29 N 0.7794 0.84845 0.83427 0.0
C30 C 0.69688 0.82202 0.86994 0.0
C31 C 0.67609 0.80417 0.67732 0.0
C32 C 0.59952 0.78736 0.81111 0.0
C33 C 0.77101 0.83854 0.73875 0.0
C34 C 0.58985 0.77895 0.7139 0.0
N35 N 0.80568 0.86051 0.0182 0.0
C36 C 0.82197 0.85973 0.10601 0.0
C37 C 0.62615 0.80172 0.00411 0.0
C38 C 0.71033 0.82935 0.96531 0.0
C39 C 0.64259 0.80581 0.09787 0.0
C40 C 0.74096 0.83389 0.14823 0.0
H41 H 0.51637 0.75255 0.66629 0.0
H42 H 0.43991 0.73581 0.80717 0.0
H43 H 0.46314 0.7482 0.9761 0.0
O44 O 0.92429 0.81248 0.9315 0.0
O45 O 0.84002 0.95281 0.92689 0.0
O46 O 0.9005 0.0463 0.07428 0.0
O47 O 0.99386 0.84878 0.82638 0.0
O48 O 1.01008 0.96555 0.1051 0.0
O49 O 0.98403 0.05802 0.1602 0.0
O50 O 1.01596 0.1605 -0.00021 0.0
O51 O 0.15406 0.05785 0.99125 0.0
O52 O 0.09297 0.97378 0.03429 0.0
O53 O 0.06234 0.20317 0.15692 0.0
O54 O 0.98593 0.04954 0.90237 0.0
O55 O 1.00145 0.95269 0.839 0.0
C56 C 0.8274 0.99954 -0.00155 0.0
C57 C 0.98649 0.74506 0.80806 0.0
C58 C 1.01368 0.65638 0.81332 0.0
C59 C 0.03182 0.63937 0.71695 0.0
C60 C 1.00525 0.72715 0.71202 0.0
C61 C 0.02711 0.67434 0.66668 0.0
C62 C 0.98951 0.70889 0.85827 0.0
C63 C 0.99746 0.01327 0.17497 0.0
C64 C 0.96849 0.80319 0.8565 0.0
C65 C 0.51541 0.76197 0.85082 0.0
C66 C 0.52868 0.76922 0.94715 0.0
C67 C 0.16418 0.01235 0.00612 0.0
C68 C 0.10584 0.27728 0.08672 0.0
C69 C 0.12827 0.37429 0.06684 0.0
C70 C 0.23246 0.40306 0.10092 0.0
C71 C 0.21014 0.30729 0.12113 0.0
C72 C 0.06509 0.31064 0.05831 0.0
C73 C 0.27299 0.36952 0.12731 0.0
C74 C 0.99859 1.00272 0.83063 0.0
C75 C 0.03959 0.21241 0.08357 0.0
H76 H 0.04954 0.59877 0.68034 0.0
H77 H 1.00327 0.75411 0.67193 0.0
H78 H 0.0413 0.66079 0.59254 0.0
H79 H 0.97675 0.72295 0.93305 0.0
H80 H 0.28266 0.45156 0.10679 0.0
H81 H 0.24306 0.28317 0.14471 0.0
H82 H 0.98459 0.28802 0.03226 0.0
H83 H 0.3533 0.39214 0.1537 0.0
C84 C 0.0914 0.03272 0.32746 0.0
C85 C 1.00119 0.01709 0.27378 0.0
C86 C 0.09516 0.0331 0.42005 0.0
C87 C 1.00511 0.01326 0.45615 0.0
C88 C 0.91347 0.99667 0.401 0.0
C89 C 0.91333 1.00081 0.31154 0.0
C90 C 0.19523 0.05468 0.479 0.0
C91 C 0.81527 0.9728 0.43505 0.0
C92 C 0.99714 0.95139 0.64891 0.0
C93 C 1.00318 1.00509 0.7345 0.0
C94 C 0.99713 0.95314 0.55742 0.0
C95 C 1.00678 0.01076 0.55226 0.0
C96 C 1.01624 0.06582 0.6388 0.0
C97 C 1.01261 0.06189 0.72831 0.0
C98 C 0.98485 0.89295 0.46602 0.0
C99 C 0.02983 0.12894 0.63694 0.0
H100 H 0.15918 0.04551 0.2974 0.0
H101 H 0.84371 0.98838 0.2688 0.0
H102 H 0.20778 0.0934 0.55479 0.0
H103 H 0.19529 0.01206 0.48566 0.0
H104 H 0.2591 0.07464 0.44457 0.0
H105 H 0.75026 0.95949 0.38157 0.0
H106 H 0.80147 0.92863 0.44563 0.0
H107 H 0.81917 0.0117 0.50723 0.0
H108 H 0.99056 0.90749 0.65285 0.0
H109 H 0.01774 0.1039 0.79375 0.0
H110 H 0.0514 0.90596 0.43148 0.0
H111 H 0.91812 0.87567 0.4111 0.0
H112 H 0.97557 0.85144 0.48211 0.0
H113 H 0.09365 0.14671 0.60119 0.0
H114 H 0.04422 0.16906 0.71203 0.0
H115 H 0.96134 0.11929 0.59275 0.0
C116 C 0.27392 0.96406 0.02604 0.0
C117 C 0.25876 1.00693 -0.00253 0.0
C118 C 0.36433 0.95987 0.02179 0.0
C119 C 0.44192 1.00007 0.98922 0.0
C120 C 0.42637 0.04238 0.9583 0.0
C121 C 0.33445 0.04463 0.96169 0.0
C122 C 0.37753 0.91339 0.05398 0.0
C123 C 0.50761 0.08641 0.92379 0.0
C124 C 0.70983 0.0424 0.07849 0.0
C125 C 0.72855 0.99928 -0.00457 0.0
C126 C 0.61707 0.04337 0.07714 0.0
C127 C 0.54068 0.99964 0.99101 0.0
C128 C 0.55881 0.95582 0.90703 0.0
C129 C 0.653 0.95675 0.90992 0.0
C130 C 0.60085 0.09127 0.1679 0.0
C131 C 0.47878 0.90802 0.81417 0.0
H132 H 0.21546 0.93407 0.05282 0.0
H133 H 0.32219 0.07615 0.93661 0.0
H134 H 0.40012 0.88005 -0.00474 0.0
H135 H 0.43866 0.94234 0.12035 0.0
H136 H 0.30769 0.88256 0.07158 0.0
H137 H 0.48089 0.1126 0.89516 0.0
H138 H 0.57254 0.12399 0.98606 0.0
H139 H 0.53532 0.05688 0.865 0.0
H140 H 0.76775 0.07561 0.14497 0.0
H141 H 0.66767 0.92459 0.84475 0.0
H142 H 0.53634 0.06365 0.1948 0.0
H143 H 0.58185 0.12435 0.14942 0.0
H144 H 0.66826 0.12239 0.22866 0.0
H145 H 0.41119 0.87446 0.83057 0.0
H146 H 0.50507 0.87743 0.75514 0.0
H147 H 0.45521 0.93561 0.78603 0.0
C148 C 0.10906 0.61059 0.86768 0.0
C149 C 0.0234 0.61988 0.86626 0.0
C150 C 0.11647 0.57072 0.90786 0.0
C151 C 0.03586 0.53885 0.9473 0.0
C152 C 0.95059 0.55001 0.94958 0.0
C153 C 0.94554 0.59076 0.90931 0.0
C154 C 0.20966 0.56128 0.90552 0.0
C155 C 0.86352 0.51725 0.99154 0.0
C156 C 0.03263 0.3856 0.94646 0.0
C157 C 0.08772 0.41197 0.04115 0.0
C158 C 1.00942 0.42542 0.91657 0.0
C159 C 0.04128 0.49278 0.98345 0.0
C160 C 0.09024 0.51793 0.08142 0.0
C161 C 0.11345 0.47732 0.10883 0.0
C162 C 0.957 0.3967 0.81148 0.0
C163 C 0.1242 0.589 0.15554 0.0
H164 H 0.17003 0.63396 0.83585 0.0
H165 H 0.87917 0.59785 0.90814 0.0
H166 H 0.24357 0.57422 0.98069 0.0
H167 H 0.18907 0.50844 0.85834 0.0
H168 H 0.26747 0.59206 0.87656 0.0
H169 H 0.80673 0.53522 -0.00464 0.0
H170 H 0.8261 0.46282 0.94489 0.0
H171 H 0.89087 0.52641 0.0666 0.0
H172 H 1.01291 0.33507 0.89408 0.0
H173 H 0.15507 0.49741 0.18252 0.0
H174 H 1.01087 0.41921 0.77095 0.0
H175 H 0.89397 0.4086 0.80947 0.0
H176 H 0.92714 0.34205 0.77223 0.0
H177 H 0.18871 0.62228 0.13558 0.0
H178 H 0.14817 0.59807 0.2316 0.0
H179 H 0.06299 0.60268 0.15484 0.0
loop_
_geom_bond_atom_site_label_1
_geom_bond_atom_site_label_2
_geom_bond_distance
_geom_bond_site_symmetry_2
_ccdc_geom_bond_type
Eu0 N29 2.600 . S
Eu0 N35 2.562 . S
Eu0 O44 2.462 . S
Eu0 O45 2.373 . S
Eu0 O47 2.432 . S
Eu0 O48 2.291 1_556 S
Eu0 O52 2.335 1_655 S
Eu0 O55 2.372 . S
Eu0 C64 2.787 . S
C1 N2 1.365 . S
C1 C4 1.405 . S
C1 C8 1.448 . S
N2 C1 1.365 . S
N2 C5 1.319 . S
N2 Eu11 2.600 . S
C3 C5 1.397 . S
C3 C6 1.367 . S
C3 H23 0.931 . S
C4 C1 1.405 . S
C4 C6 1.403 . S
C4 C10 1.439 . S
C5 N2 1.319 . S
C5 C3 1.397 . S
C5 H16 0.930 . S
C6 C3 1.367 . S
C6 C4 1.403 . S
C6 H27 0.929 . S
C7 C8 1.430 . S
C7 C9 1.387 . S
C7 C13 1.404 . S
C8 C1 1.448 . S
C8 C7 1.430 . S
C8 N12 1.351 . S
C9 C7 1.387 . S
C9 C10 1.374 . S
C9 H24 0.931 . S
C10 C4 1.439 . S
C10 C9 1.374 . S
C10 H25 0.931 . S
Eu11 N2 2.600 . S
Eu11 N12 2.562 . S
Eu11 O46 2.335 1_455 S
Eu11 O49 2.372 . S
Eu11 O50 2.462 . S
Eu11 O51 2.373 . S
Eu11 O53 2.432 . S
Eu11 O54 2.291 1_554 S
Eu11 C75 2.787 . S
N12 C8 1.351 . S
N12 Eu11 2.562 . S
N12 C14 1.325 1_554 S
C13 C7 1.404 . S
C13 C15 1.366 1_554 S
C13 H21 0.930 1_554 S
C14 N12 1.325 1_556 S
C14 C15 1.416 . S
C14 H20 0.929 . S
C15 C13 1.366 1_556 S
C15 C14 1.416 . S
C15 H17 0.930 . S
H16 C5 0.930 . S
H17 C15 0.930 . S
H18 C33 0.930 . S
H19 C40 0.930 . S
H20 C14 0.929 . S
H21 C13 0.930 1_556 S
H22 C36 0.929 . S
H23 C3 0.931 . S
H24 C9 0.931 . S
H25 C10 0.931 . S
H26 C31 0.931 . S
H27 C6 0.929 . S
H28 C39 0.930 1_554 S
N29 Eu0 2.600 . S
N29 C30 1.365 . S
N29 C33 1.319 . S
C30 N29 1.365 . S
C30 C32 1.405 . S
C30 C38 1.448 . S
C31 H26 0.931 . S
C31 C33 1.397 . S
C31 C34 1.367 . S
C32 C30 1.405 . S
C32 C34 1.403 . S
C32 C65 1.439 . S
C33 H18 0.930 . S
C33 N29 1.319 . S
C33 C31 1.397 . S
C34 C31 1.367 . S
C34 C32 1.403 . S
C34 H41 0.929 . S
N35 Eu0 2.562 . S
N35 C36 1.325 1_556 S
N35 C38 1.351 . S
C36 H22 0.929 . S
C36 N35 1.325 1_554 S
C36 C40 1.416 . S
C37 C38 1.430 . S
C37 C39 1.404 . S
C37 C66 1.387 . S
C38 C30 1.448 . S
C38 N35 1.351 . S
C38 C37 1.430 . S
C39 H28 0.930 1_556 S
C39 C37 1.404 . S
C39 C40 1.366 1_556 S
C40 H19 0.930 . S
C40 C36 1.416 . S
C40 C39 1.366 1_554 S
H41 C34 0.929 . S
H42 C65 0.931 . S
H43 C66 0.931 . S
O44 Eu0 2.462 . S
O44 C64 1.252 . S
O45 Eu0 2.373 . S
O45 C56 1.248 . S
O46 Eu11 2.335 1_655 S
O46 C56 1.264 1_544 S
O47 Eu0 2.432 . S
O47 C64 1.268 . S
O48 Eu0 2.291 1_554 S
O48 C63 1.255 1_565 S
O49 Eu11 2.372 . S
O49 C63 1.257 1_455 S
O50 Eu11 2.462 . S
O50 C75 1.252 . S
O51 Eu11 2.373 . S
O51 C67 1.252 . S
O52 Eu0 2.335 1_455 S
O52 C67 1.262 1_566 S
O53 Eu11 2.432 . S
O53 C75 1.268 . S
O54 Eu11 2.291 1_556 S
O54 C74 1.255 1_545 S
O55 Eu0 2.372 . S
O55 C74 1.257 1_655 S
C56 O45 1.248 . S
C56 O46 1.264 1_566 S
C57 C60 1.382 . S
C57 C62 1.390 . S
C57 C64 1.506 . S
C58 C59 1.398 . S
C58 C62 1.392 . S
C59 C58 1.398 . S
C59 C61 1.372 . S
C59 H76 0.931 . S
C60 C57 1.382 . S
C60 C61 1.390 . S
C60 H77 0.931 . S
C61 C59 1.372 . S
C61 C60 1.390 . S
C61 H78 0.929 . S
C62 C57 1.390 . S
C62 C58 1.392 . S
C62 H79 0.930 1_556 S
C63 O48 1.255 1_545 S
C63 O49 1.257 1_655 S
C64 Eu0 2.787 . S
C64 O44 1.252 . S
C64 O47 1.268 . S
C64 C57 1.506 . S
C65 C32 1.439 . S
C65 H42 0.931 . S
C65 C66 1.374 . S
C66 C37 1.387 . S
C66 H43 0.931 . S
C66 C65 1.374 . S
C67 O51 1.252 . S
C67 O52 1.262 1_544 S
C68 C71 1.382 . S
C68 C72 1.390 . S
C68 C75 1.506 . S
C69 C70 1.398 . S
C69 C72 1.392 . S
C70 C69 1.398 . S
C70 C73 1.372 . S
C70 H80 0.931 . S
C71 C68 1.382 . S
C71 C73 1.390 . S
C71 H81 0.931 . S
C72 C68 1.390 . S
C72 C69 1.392 . S
C72 H82 0.930 1_554 S
C73 C70 1.372 . S
C73 C71 1.390 . S
C73 H83 0.929 . S
C74 O54 1.255 1_565 S
C74 O55 1.257 1_455 S
C75 Eu11 2.787 . S
C75 O50 1.252 . S
C75 O53 1.268 . S
C75 C68 1.506 . S
H76 C59 0.931 . S
H77 C60 0.931 . S
H78 C61 0.929 . S
H79 C62 0.930 1_554 S
H80 C70 0.931 . S
H81 C71 0.931 . S
H82 C72 0.930 1_556 S
H83 C73 0.929 . S
C84 C85 1.391 1_455 S
C84 C86 1.394 . S
C84 H100 0.931 . S
C85 C84 1.391 1_655 S
C85 C89 1.376 1_545 S
C86 C84 1.394 . S
C86 C87 1.369 1_455 S
C86 C90 1.531 . S
C87 C86 1.369 1_655 S
C87 C88 1.410 1_545 S
C87 C95 1.503 . S
C88 C87 1.410 1_565 S
C88 C89 1.392 . S
C88 C91 1.511 . S
C89 C85 1.376 1_565 S
C89 C88 1.392 . S
C89 H101 0.929 . S
C90 C86 1.531 . S
C90 H102 0.960 . S
C90 H103 0.962 . S
C90 H104 0.960 . S
C91 C88 1.511 . S
C91 H105 0.961 . S
C91 H106 0.961 . S
C91 H107 0.961 . S
C92 C93 1.370 1_465 S
C92 C94 1.363 . S
C92 H108 0.931 . S
C93 C92 1.370 1_645 S
C93 C97 1.408 . S
C94 C92 1.363 . S
C94 C95 1.370 1_465 S
C94 C98 1.524 . S
C95 C87 1.503 . S
C95 C94 1.370 1_645 S
C95 C96 1.403 . S
C96 C95 1.403 . S
C96 C97 1.404 . S
C96 C99 1.539 . S
C97 C93 1.408 . S
C97 C96 1.404 . S
C97 H109 0.930 . S
C98 C94 1.524 . S
C98 H110 0.956 . S
C98 H111 0.961 1_455 S
C98 H112 0.961 . S
C99 C96 1.539 . S
C99 H113 0.958 1_655 S
C99 H114 0.961 . S
C99 H115 0.960 . S
H100 C84 0.931 . S
H101 C89 0.929 . S
H102 C90 0.960 . S
H103 C90 0.962 . S
H104 C90 0.960 . S
H105 C91 0.961 . S
H106 C91 0.961 . S
H107 C91 0.961 . S
H108 C92 0.931 . S
H109 C97 0.930 . S
H110 C98 0.956 . S
H111 C98 0.961 1_655 S
H112 C98 0.961 . S
H113 C99 0.958 1_455 S
H114 C99 0.961 . S
H115 C99 0.960 . S
C116 C117 1.391 . S
C116 C118 1.394 . S
C116 H132 0.931 . S
C117 C116 1.391 . S
C117 C121 1.376 1_565 S
C118 C116 1.394 . S
C118 C119 1.369 . S
C118 C122 1.531 . S
C119 C118 1.369 . S
C119 C120 1.410 1_565 S
C119 C127 1.503 . S
C120 C119 1.410 1_545 S
C120 C121 1.392 . S
C120 C123 1.511 . S
C121 C117 1.376 1_545 S
C121 C120 1.392 . S
C121 H133 0.929 . S
C122 C118 1.531 . S
C122 H134 0.960 . S
C122 H135 0.962 1_556 S
C122 H136 0.960 . S
C123 C120 1.511 . S
C123 H137 0.961 1_556 S
C123 H138 0.961 1_556 S
C123 H139 0.961 . S
C124 C125 1.367 1_544 S
C124 C126 1.363 . S
C124 H140 0.931 . S
C125 C124 1.367 1_566 S
C125 C129 1.406 . S
C126 C124 1.363 . S
C126 C127 1.370 1_544 S
C126 C130 1.524 . S
C127 C119 1.503 . S
C127 C126 1.370 1_566 S
C127 C128 1.403 . S
C128 C127 1.403 . S
C128 C129 1.404 . S
C128 C131 1.539 . S
C129 C125 1.406 . S
C129 C128 1.404 . S
C129 H141 0.930 . S
C130 C126 1.524 . S
C130 H142 0.956 . S
C130 H143 0.961 . S
C130 H144 0.961 . S
C131 C128 1.539 . S
C131 H145 0.958 . S
C131 H146 0.961 . S
C131 H147 0.960 . S
H132 C116 0.931 . S
H133 C121 0.929 . S
H134 C122 0.960 . S
H135 C122 0.962 1_554 S
H136 C122 0.960 . S
H137 C123 0.961 1_554 S
H138 C123 0.961 1_554 S
H139 C123 0.961 . S
H140 C124 0.931 . S
H141 C129 0.930 . S
H142 C130 0.956 . S
H143 C130 0.961 . S
H144 C130 0.961 . S
H145 C131 0.958 . S
H146 C131 0.961 . S
H147 C131 0.960 . S
C148 C149 1.399 . S
C148 C150 1.394 . S
C148 H164 0.931 . S
C149 C148 1.399 . S
C149 C153 1.372 1_455 S
C150 C148 1.394 . S
C150 C151 1.369 . S
C150 C154 1.531 . S
C151 C150 1.369 . S
C151 C152 1.410 1_455 S
C151 C159 1.503 . S
C152 C151 1.410 1_655 S
C152 C153 1.392 . S
C152 C155 1.511 . S
C153 C149 1.372 1_655 S
C153 C152 1.392 . S
C153 H165 0.929 1_554 S
C154 C150 1.531 . S
C154 H166 0.960 . S
C154 H167 0.962 1_554 S
C154 H168 0.960 . S
C155 C152 1.511 . S
C155 H169 0.961 1_554 S
C155 H170 0.961 1_554 S
C155 H171 0.961 . S
C156 C157 1.371 1_556 S
C156 C158 1.363 . S
C156 H172 0.931 . S
C157 C156 1.371 1_554 S
C157 C161 1.409 1_655 S
C158 C156 1.363 . S
C158 C159 1.370 1_656 S
C158 C162 1.524 . S
C159 C151 1.503 . S
C159 C158 1.370 1_454 S
C159 C160 1.403 . S
C160 C159 1.403 . S
C160 C161 1.404 . S
C160 C163 1.539 . S
C161 C157 1.409 1_455 S
C161 C160 1.404 . S
C161 H173 0.930 . S
C162 C158 1.524 . S
C162 H174 0.956 1_655 S
C162 H175 0.961 . S
C162 H176 0.961 . S
C163 C160 1.539 . S
C163 H177 0.958 . S
C163 H178 0.961 1_455 S
C163 H179 0.960 1_455 S
H164 C148 0.931 . S
H165 C153 0.929 1_556 S
H166 C154 0.960 . S
H167 C154 0.962 1_556 S
H168 C154 0.960 . S
H169 C155 0.961 1_556 S
H170 C155 0.961 1_556 S
H171 C155 0.961 . S
H172 C156 0.931 . S
H173 C161 0.930 . S
H174 C162 0.956 1_455 S
H175 C162 0.961 . S
H176 C162 0.961 . S
H177 C163 0.958 . S
H178 C163 0.961 1_655 S
H179 C163 0.960 1_655 S
C85 C63 1.457 . S
C93 C74 1.488 1_645 S
C117 C67 1.497 1_566 S
C125 C56 1.497 . S
C149 C58 1.402 1_454 S
C157 C69 1.337 1_655 S
