# Generated by pormake.
# Topology pcu, (6)-cn, num edge types: 1
# Building blocks:
#     Node 0, Type 0, BuildingBlock: MIFKUJ_clean_sbu_0, # of connection points: 6
#     Edge 1, Type (0, 0), BuildingBlock: EZIPEK_clean_linker_0, # of connection points: 2
#     Edge 2, Type (0, 0), BuildingBlock: EZIPEK_clean_linker_0, # of connection points: 2
#     Edge 3, Type (0, 0), BuildingBlock: EZIPEK_clean_linker_0, # of connection points: 2
# Relax obj value: 0.000
# Max RMSD: 0.000
# Mean RMSD: 0.000
data_MOF--net-pcu--node1-MIFKUJ_clean_sbu_0--edge1-EZIPEK_clean_linker_0
_symmetry_space_group_name_H-M    P1
_symmetry_Int_Tables_number       1
_symmetry_cell_setting            triclinic
loop_
_symmetry_equiv_pos_as_xyz
'x, y, z'
_cell_length_a     12.49995
_cell_length_b     14.525634
_cell_length_c     10.509828
_cell_angle_alpha  101.40187
_cell_angle_beta   89.573351
_cell_angle_gamma 109.23819
loop_
_atom_site_label
_atom_site_type_symbol
_atom_site_fract_x
_atom_site_fract_y
_atom_site_fract_z
_atom_type_partial_charge
Zn0 Zn 0.0517 0.86585 0.94639 0.0
Zn1 Zn 1.01144 0.08634 -0.00481 0.0
C2 C 0.28794 0.89361 0.91358 0.0
O3 O 0.24502 0.81025 0.82705 0.0
C4 C 0.77506 0.06225 0.02698 0.0
O5 O 0.81827 0.15164 0.1006 0.0
O6 O 1.02612 0.71878 0.91837 0.0
O7 O 0.97785 0.89934 0.112 0.0
O8 O 0.07355 0.06069 0.15594 0.0
C9 C 0.04891 0.68319 0.01183 0.0
O10 O 0.08644 0.74217 0.12571 0.0
O11 O 0.22176 0.93409 -0.02404 0.0
C12 C 1.0135 0.26836 0.92991 0.0
O13 O 0.97731 0.20892 0.81601 0.0
O14 O 0.03622 0.23343 0.02418 0.0
O15 O 0.07696 0.05478 0.82381 0.0
O16 O 0.99949 0.89057 0.77967 0.0
O17 O 0.84097 0.01706 -0.02565 0.0
C18 C 1.02658 -0.02036 0.19369 0.0
C19 C 0.03795 0.97275 0.7423 0.0
C20 C 0.13545 0.00645 0.40499 0.0
C21 C 1.02943 -0.02176 0.33415 0.0
C22 C 0.929 0.93906 0.52864 0.0
C23 C 0.03508 0.97375 0.60161 0.0
N24 N 0.23895 0.05231 0.61451 0.0
N25 N 0.8255 0.93203 0.3306 0.0
C26 C 0.13816 0.01146 0.54143 0.0
C27 C 0.92613 0.94771 0.39629 0.0
N28 N 0.23345 0.0234 0.34072 0.0
N29 N 0.83069 0.89869 0.58604 0.0
H30 H 0.81981 0.93854 0.23407 0.0
H31 H 0.7484 0.92074 0.37401 0.0
H32 H 0.82698 0.89925 0.68524 0.0
H33 H 0.75284 0.85996 0.5345 0.0
H34 H 0.31193 0.03246 0.38391 0.0
H35 H 0.23543 0.01993 0.24079 0.0
H36 H 0.31447 0.09289 0.57988 0.0
H37 H 0.24676 0.05089 0.71266 0.0
C38 C 0.4588 0.94823 0.06985 0.0
C39 C 0.41266 0.93702 0.94241 0.0
C40 C 0.60503 0.00107 0.868 0.0
C41 C 0.65048 0.01838 -0.00239 0.0
N42 N 0.62073 0.02271 0.22583 0.0
N43 N 0.43897 0.96253 0.72287 0.0
C44 C 0.57731 -0.00338 0.09974 0.0
C45 C 0.48509 0.96537 0.84186 0.0
N46 N 0.39033 0.90752 0.16068 0.0
N47 N 0.6765 0.01991 0.76992 0.0
H48 H 0.3519 0.93538 0.69905 0.0
H49 H 0.48564 -0.0067 0.65006 0.0
H50 H 0.76394 0.05525 0.78577 0.0
H51 H 0.6503 -0.00344 0.67162 0.0
H52 H 0.42078 0.90233 0.25 0.0
H53 H 0.30329 0.87074 0.14301 0.0
H54 H 0.57059 0.02061 0.3055 0.0
H55 H 0.70733 0.0532 0.25219 0.0
C56 C 0.93102 0.50187 0.96158 0.0
C57 C 0.03938 0.57687 -0.00931 0.0
C58 C 0.13061 0.4496 -0.0204 0.0
C59 C 1.0225 0.37447 0.9496 0.0
N60 N 0.81857 0.32567 0.92311 0.0
N61 N 0.24352 0.62461 0.00712 0.0
C62 C 0.9223 0.39964 0.94208 0.0
C63 C 0.13952 0.55147 -0.00451 0.0
N64 N 0.83678 0.52895 0.95194 0.0
N65 N 0.22475 0.42332 -0.00626 0.0
H66 H 0.25371 0.69985 0.01725 0.0
H67 H 0.32023 0.61124 -0.00298 0.0
H68 H 0.22346 0.34972 -0.02719 0.0
H69 H 0.30356 0.47353 0.03224 0.0
H70 H 0.75644 0.47967 0.91782 0.0
H71 H 0.83892 0.60277 -0.02556 0.0
H72 H 0.741 0.33759 0.92786 0.0
H73 H 0.80864 0.25018 0.90838 0.0
loop_
_geom_bond_atom_site_label_1
_geom_bond_atom_site_label_2
_geom_bond_distance
_geom_bond_site_symmetry_2
_ccdc_geom_bond_type
Zn0 O6 1.969 . S
Zn0 O7 1.965 1_456 S
Zn0 O11 2.024 1_556 S
Zn0 O16 1.969 . S
Zn1 O8 1.969 . S
Zn1 O14 1.969 . S
Zn1 O15 1.965 1_654 S
Zn1 O17 2.024 1_554 S
C2 O3 1.229 . S
C2 O11 1.058 1_556 S
O3 C2 1.229 . S
C4 O5 1.229 . S
C4 O17 1.058 1_554 S
O5 C4 1.229 . S
O6 Zn0 1.969 . S
O6 C9 1.267 1_556 S
O7 Zn0 1.965 1_654 S
O7 C18 1.267 . S
O8 Zn1 1.969 . S
O8 C18 1.248 1_545 S
C9 O6 1.267 1_554 S
C9 O10 1.228 . S
O10 C9 1.228 . S
O11 Zn0 2.024 1_554 S
O11 C2 1.058 1_554 S
C12 O13 1.228 . S
C12 O14 1.267 1_556 S
O13 C12 1.228 . S
O14 Zn1 1.969 . S
O14 C12 1.267 1_554 S
O15 Zn1 1.965 1_456 S
O15 C19 1.260 . S
O16 Zn0 1.969 . S
O16 C19 1.258 1_565 S
O17 Zn1 2.024 1_556 S
O17 C4 1.058 1_556 S
C18 O7 1.267 . S
C18 O8 1.248 1_565 S
C19 O15 1.260 . S
C19 O16 1.258 1_545 S
C20 C21 1.363 . S
C20 C26 1.379 . S
C20 N28 1.356 . S
C21 C20 1.363 . S
C21 C27 1.363 1_445 S
C22 C23 1.363 1_665 S
C22 C27 1.379 . S
C22 N29 1.356 . S
C23 C22 1.363 1_445 S
C23 C26 1.363 . S
N24 C26 1.356 . S
N24 H36 0.984 . S
N24 H37 0.985 . S
N25 C27 1.356 . S
N25 H30 0.984 . S
N25 H31 0.985 . S
C26 C20 1.379 . S
C26 C23 1.363 . S
C26 N24 1.356 . S
C27 C21 1.363 1_665 S
C27 C22 1.379 . S
C27 N25 1.356 . S
N28 C20 1.356 . S
N28 H34 0.984 . S
N28 H35 0.984 . S
N29 C22 1.356 . S
N29 H32 0.984 . S
N29 H33 0.985 . S
H30 N25 0.984 . S
H31 N25 0.985 . S
H32 N29 0.984 . S
H33 N29 0.985 . S
H34 N28 0.984 . S
H35 N28 0.984 . S
H36 N24 0.984 . S
H37 N24 0.985 . S
C38 C39 1.363 . S
C38 C44 1.379 . S
C38 N46 1.356 . S
C39 C38 1.363 . S
C39 C45 1.363 1_544 S
C40 C41 1.363 1_566 S
C40 C45 1.379 . S
C40 N47 1.356 . S
C41 C40 1.363 1_544 S
C41 C44 1.363 . S
N42 C44 1.356 . S
N42 H54 0.984 . S
N42 H55 0.985 . S
N43 C45 1.356 . S
N43 H48 0.984 . S
N43 H49 0.985 . S
C44 C38 1.379 . S
C44 C41 1.363 . S
C44 N42 1.356 . S
C45 C39 1.363 1_566 S
C45 C40 1.379 . S
C45 N43 1.356 . S
N46 C38 1.356 . S
N46 H52 0.984 . S
N46 H53 0.984 . S
N47 C40 1.356 . S
N47 H50 0.984 . S
N47 H51 0.985 . S
H48 N43 0.984 . S
H49 N43 0.985 . S
H50 N47 0.984 . S
H51 N47 0.985 . S
H52 N46 0.984 . S
H53 N46 0.984 . S
H54 N42 0.984 . S
H55 N42 0.985 . S
C56 C57 1.363 1_656 S
C56 C62 1.379 . S
C56 N64 1.356 . S
C57 C56 1.363 1_454 S
C57 C63 1.363 . S
C58 C59 1.363 . S
C58 C63 1.379 . S
C58 N65 1.356 . S
C59 C58 1.363 . S
C59 C62 1.363 1_454 S
N60 C62 1.356 . S
N60 H72 0.984 . S
N60 H73 0.985 . S
N61 C63 1.356 . S
N61 H66 0.984 . S
N61 H67 0.985 . S
C62 C56 1.379 . S
C62 C59 1.363 1_656 S
C62 N60 1.356 . S
C63 C57 1.363 . S
C63 C58 1.379 . S
C63 N61 1.356 . S
N64 C56 1.356 . S
N64 H70 0.984 . S
N64 H71 0.984 . S
N65 C58 1.356 . S
N65 H68 0.984 . S
N65 H69 0.985 . S
H66 N61 0.984 . S
H67 N61 0.985 . S
H68 N65 0.984 . S
H69 N65 0.985 . S
H70 N64 0.984 . S
H71 N64 0.984 . S
H72 N60 0.984 . S
H73 N60 0.985 . S
C21 C18 1.482 1_445 S
C23 C19 1.480 . S
C39 C2 1.414 1_544 S
C41 C4 1.414 . S
C57 C9 1.458 . S
C59 C12 1.458 1_454 S
