# Generated by pormake.
# Topology uon, (4)-cn, num edge types: 1
# Building blocks:
#     Node 0, Type 0, BuildingBlock: NAWXER_clean_sbu_0, # of connection points: 4
#     Node 1, Type 0, BuildingBlock: NAWXER_clean_sbu_0, # of connection points: 4
#     Node 2, Type 0, BuildingBlock: NAWXER_clean_sbu_0, # of connection points: 4
#     Node 3, Type 0, BuildingBlock: NAWXER_clean_sbu_0, # of connection points: 4
#     Node 4, Type 0, BuildingBlock: NAWXER_clean_sbu_0, # of connection points: 4
#     Node 5, Type 0, BuildingBlock: NAWXER_clean_sbu_0, # of connection points: 4
#     Edge 6, Type (0, 0), BuildingBlock: AJUNOK_clean_linker_0, # of connection points: 2
#     Edge 7, Type (0, 0), BuildingBlock: AJUNOK_clean_linker_0, # of connection points: 2
#     Edge 8, Type (0, 0), BuildingBlock: AJUNOK_clean_linker_0, # of connection points: 2
#     Edge 9, Type (0, 0), BuildingBlock: AJUNOK_clean_linker_0, # of connection points: 2
#     Edge 10, Type (0, 0), BuildingBlock: AJUNOK_clean_linker_0, # of connection points: 2
#     Edge 11, Type (0, 0), BuildingBlock: AJUNOK_clean_linker_0, # of connection points: 2
#     Edge 12, Type (0, 0), BuildingBlock: AJUNOK_clean_linker_0, # of connection points: 2
#     Edge 13, Type (0, 0), BuildingBlock: AJUNOK_clean_linker_0, # of connection points: 2
#     Edge 14, Type (0, 0), BuildingBlock: AJUNOK_clean_linker_0, # of connection points: 2
#     Edge 15, Type (0, 0), BuildingBlock: AJUNOK_clean_linker_0, # of connection points: 2
#     Edge 16, Type (0, 0), BuildingBlock: AJUNOK_clean_linker_0, # of connection points: 2
#     Edge 17, Type (0, 0), BuildingBlock: AJUNOK_clean_linker_0, # of connection points: 2
# Relax obj value: 0.135
# Max RMSD: 0.134
# Mean RMSD: 0.134
data_MOF--net-uon--node1-NAWXER_clean_sbu_0--edge1-AJUNOK_clean_linker_0
_symmetry_space_group_name_H-M    P1
_symmetry_Int_Tables_number       1
_symmetry_cell_setting            triclinic
loop_
_symmetry_equiv_pos_as_xyz
'x, y, z'
_cell_length_a     25.194081
_cell_length_b     25.202225
_cell_length_c     16.086918
_cell_angle_alpha  89.802471
_cell_angle_beta   89.984596
_cell_angle_gamma 119.89331
loop_
_atom_site_label
_atom_site_type_symbol
_atom_site_fract_x
_atom_site_fract_y
_atom_site_fract_z
_atom_type_partial_charge
C0 C 0.1155 0.38091 0.05062 0.0
C1 C 0.28033 0.50809 0.85341 0.0
O2 O 0.16894 0.3954 0.07703 0.0
Zn3 Zn 0.26091 0.44678 0.0353 0.0
O4 O 0.11012 0.39915 0.97895 0.0
Zn5 Zn 0.19635 0.44677 0.94799 0.0
O6 O 0.22429 0.38142 0.92288 0.0
O7 O 0.28869 0.38769 0.02019 0.0
O8 O 0.22391 0.49101 0.8421 0.0
O9 O 0.2979 0.49644 0.92228 0.0
O10 O 0.29717 0.51187 0.11776 0.0
O11 O 0.23366 0.52173 0.03289 0.0
C12 C 0.26183 0.36564 0.95127 0.0
C13 C 0.27135 0.54165 0.09376 0.0
C14 C 0.7636 0.09411 0.38874 0.0
C15 C 0.75299 0.26038 0.24364 0.0
O16 O 0.79853 0.14727 0.41944 0.0
Zn17 Zn 0.82925 0.24061 0.38808 0.0
O18 O 0.73851 0.09014 0.31862 0.0
Zn19 Zn 0.76431 0.17651 0.3001 0.0
O20 O 0.8553 0.22145 0.25472 0.0
O21 O 0.9154 0.28001 0.35456 0.0
O22 O 0.72553 0.20494 0.21871 0.0
O23 O 0.79299 0.27749 0.30113 0.0
O24 O 0.80042 0.26788 0.48311 0.0
O25 O 0.72695 0.19676 0.40538 0.0
C26 C 0.90877 0.26057 0.28027 0.0
C27 C 0.7436 0.23342 0.46703 0.0
C28 C 0.66234 0.87284 0.5915 0.0
C29 C 0.49387 0.6777 0.6861 0.0
O30 O 0.64375 0.82031 0.56016 0.0
Zn31 Zn 0.58542 0.77084 0.64538 0.0
O32 O 0.64306 0.87675 0.66395 0.0
Zn33 Zn 0.57905 0.81434 0.75525 0.0
O34 O 0.62347 0.81209 0.85316 0.0
O35 O 0.63448 0.76204 0.74904 0.0
O36 O 0.5104 0.72039 0.73974 0.0
O37 O 0.52575 0.68573 0.62097 0.0
O38 O 0.52291 0.80568 0.64241 0.0
O39 O 0.52145 0.84439 0.76547 0.0
C40 C 0.64426 0.77894 0.82536 0.0
C41 C 0.50146 0.8304 0.6914 0.0
C42 C 0.74132 0.6535 0.02733 0.0
C43 C 0.75406 0.48134 0.15534 0.0
O44 O 0.77837 0.63988 0.99168 0.0
Zn45 Zn 0.81654 0.5827 0.01179 0.0
O46 O 0.7182 0.62887 0.09721 0.0
Zn47 Zn 0.75228 0.5736 0.10838 0.0
O48 O 0.84513 0.62649 0.14517 0.0
O49 O 0.90329 0.63487 0.03815 0.0
O50 O 0.72302 0.50384 0.18709 0.0
O51 O 0.79146 0.50954 0.0962 0.0
O52 O 0.78599 0.52806 0.91517 0.0
O53 O 0.71396 0.51583 0.0045 0.0
C54 C 0.89847 0.64588 0.11413 0.0
C55 C 0.73019 0.49891 0.93923 0.0
C56 C 0.2925 0.79173 0.50487 0.0
C57 C 0.11605 0.74427 0.32443 0.0
O58 O 0.30526 0.81893 0.43426 0.0
Zn59 Zn 0.26151 0.82731 0.32559 0.0
O60 O 0.23689 0.75324 0.52278 0.0
Zn61 Zn 0.20255 0.76494 0.41948 0.0
O62 O 0.23698 0.72607 0.33072 0.0
O63 O 0.29525 0.798 0.24045 0.0
O64 O 0.11468 0.72343 0.39704 0.0
O65 O 0.1677 0.78294 0.29267 0.0
O66 O 0.28616 0.91354 0.33543 0.0
O67 O 0.22799 0.85806 0.4396 0.0
C68 C 0.27152 0.74297 0.26616 0.0
C69 C 0.26141 0.91045 0.40569 0.0
C70 C 0.53588 0.28059 0.7944 0.0
C71 C 0.37346 0.12073 0.62432 0.0
O72 O 0.51846 0.29869 0.73147 0.0
Zn73 Zn 0.45546 0.26616 0.634 0.0
O74 O 0.50654 0.22447 0.81707 0.0
Zn75 Zn 0.44747 0.19683 0.72486 0.0
O76 O 0.51179 0.21857 0.62952 0.0
O77 O 0.51899 0.29243 0.54678 0.0
O78 O 0.38859 0.11201 0.69656 0.0
O79 O 0.39475 0.17539 0.59727 0.0
O80 O 0.40451 0.30288 0.6597 0.0
O81 O 0.39546 0.23728 0.75725 0.0
C82 C 0.53684 0.25494 0.56831 0.0
C83 C 0.38251 0.27693 0.7294 0.0
C84 C 0.3183 0.30877 0.92469 0.0
C85 C 0.28422 0.33478 0.894 0.0
C86 C 0.34821 0.28863 0.87054 0.0
C87 C 0.3466 0.29508 0.78348 0.0
H88 H 0.3232 0.30532 0.99109 0.0
H89 H 0.37479 0.26989 0.89752 0.0
S90 S 0.26279 0.35883 0.67054 0.0
N91 N 0.24867 0.36358 0.76959 0.0
N92 N 0.3069 0.32767 0.66903 0.0
C93 C 0.31187 0.31986 0.75174 0.0
C94 C 0.28002 0.33898 0.80662 0.0
C95 C 0.02142 0.31427 0.24821 0.0
C96 C 0.96067 0.28737 0.22022 0.0
C97 C 0.07085 0.34279 0.19249 0.0
C98 C 0.06168 0.34666 0.10658 0.0
H99 H 0.03093 0.31356 0.31375 0.0
H100 H 0.11675 0.36327 0.21756 0.0
S101 S 0.91123 0.28413 1.00155 0.0
N102 N 0.89396 0.26635 0.10049 0.0
N103 N 0.98671 0.32058 0.9965 0.0
C104 C 1.00109 0.31965 0.07773 0.0
C105 C 0.95071 0.28986 0.13427 0.0
C106 C 0.71518 0.97957 0.4038 0.0
C107 C 0.74678 0.03819 0.43976 0.0
C108 C 0.69167 0.92618 0.45282 0.0
C109 C 0.69782 0.92911 0.54007 0.0
H110 H 0.70683 0.97478 0.33746 0.0
H111 H 0.66558 0.88233 0.42235 0.0
S112 S 0.78103 0.07074 0.66488 0.0
N113 N 0.78686 0.09539 0.56829 0.0
N114 N 0.74167 0.99535 0.65964 0.0
C115 C 0.73166 0.98721 0.57643 0.0
C116 C 0.7564 0.04157 0.52657 0.0
C117 C 0.73507 0.70351 0.8956 0.0
C118 C 0.72141 0.69222 0.98116 0.0
C119 C 0.71181 0.7335 0.84685 0.0
C120 C 0.67457 0.75472 0.88133 0.0
H121 H 0.76227 0.68705 0.86474 0.0
H122 H 0.72218 0.73894 0.78095 0.0
S123 S 0.62833 0.74121 0.10322 0.0
N124 N 0.67026 0.70761 0.09904 0.0
N125 N 0.62742 0.76503 0.00772 0.0
C126 C 0.66266 0.74637 0.96752 0.0
C127 C 0.68573 0.71486 0.01721 0.0
C128 C 0.01241 0.70622 0.13538 0.0
C129 C 0.95312 0.67492 0.16943 0.0
C130 C 0.06449 0.72966 0.18629 0.0
C131 C 0.0596 0.72199 0.27345 0.0
H132 H 0.01879 0.71214 0.0687 0.0
H133 H 0.10903 0.75266 0.15658 0.0
S134 S 0.91498 0.64479 0.39447 0.0
N135 N 0.89269 0.63892 0.29682 0.0
N136 N 0.99052 0.68224 0.39166 0.0
C137 C 1.00067 0.69159 0.30852 0.0
C138 C 0.94754 0.66837 0.25683 0.0
C139 C 0.30084 0.00946 0.59811 0.0
C140 C 0.33777 0.06889 0.56686 0.0
C141 C 0.27253 0.95911 0.54459 0.0
C142 C 0.28098 0.96589 0.45751 0.0
H143 H 0.295 1.00149 0.66457 0.0
H144 H 0.2465 0.91411 0.5725 0.0
S145 S 0.37006 0.11253 0.34355 0.0
N146 N 0.37812 0.13231 0.44242 0.0
N147 N 0.32587 0.0374 0.34251 0.0
C148 C 0.31557 0.02537 0.42521 0.0
C149 C 0.34372 0.07687 0.47964 0.0
C150 C 0.27913 0.6477 0.26554 0.0
C151 C 0.28083 0.69693 0.22131 0.0
C152 C 0.28026 0.59928 0.22414 0.0
C153 C 0.28154 0.59767 0.13694 0.0
H154 H 0.27547 0.64585 0.33273 0.0
H155 H 0.27674 0.56135 0.2604 0.0
S156 S 0.29068 0.71697 0.99243 0.0
N157 N 0.28821 0.74285 0.08569 0.0
N158 N 0.28833 0.651 0.00776 0.0
C159 C 0.28555 0.6476 0.09213 0.0
C160 C 0.28582 0.69752 0.13433 0.0
C161 C 0.58454 0.19618 0.52131 0.0
C162 C 0.58968 0.25387 0.53175 0.0
C163 C 0.63595 0.19021 0.50817 0.0
C164 C 0.69498 0.24168 0.50473 0.0
H165 H 0.54018 0.1549 0.52541 0.0
H166 H 0.62922 0.14472 0.49832 0.0
S167 S 0.73357 0.40333 0.52898 0.0
N168 N 0.6583 0.3637 0.53961 0.0
N169 N 0.75587 0.35268 0.51236 0.0
C170 C 0.70116 0.29989 0.51563 0.0
C171 C 0.64825 0.30598 0.52901 0.0
C172 C 0.38172 0.62866 0.69829 0.0
C173 C 0.43441 0.62266 0.69952 0.0
C174 C 0.32852 0.5874 0.74171 0.0
C175 C 0.32737 0.53994 0.78878 0.0
H176 H 0.38347 0.6684 0.66941 0.0
H177 H 0.29048 0.59594 0.74452 0.0
S178 S 0.44962 0.49846 0.79865 0.0
N179 N 0.4792 0.56109 0.74083 0.0
N180 N 0.3798 0.48347 0.82299 0.0
C181 C 0.37764 0.52998 0.78306 0.0
C182 C 0.43124 0.57153 0.73823 0.0
C183 C 0.72678 0.39449 0.25538 0.0
C184 C 0.74265 0.41898 0.17499 0.0
C185 C 0.72478 0.33923 0.27519 0.0
C186 C 0.73706 0.30607 0.21501 0.0
H187 H 0.71955 0.41976 0.30416 0.0
H188 H 0.71669 0.32381 0.33919 0.0
S189 S 0.77125 0.34535 0.99286 0.0
N190 N 0.76422 0.40191 0.03232 0.0
N191 N 0.75914 0.29793 0.07093 0.0
C192 C 0.7478 0.32722 0.13329 0.0
C193 C 0.75102 0.38383 0.11302 0.0
C194 C 0.40378 0.8513 0.53725 0.0
C195 C 0.34402 0.8078 0.5632 0.0
C196 C 0.45498 0.86387 0.58484 0.0
C197 C 0.44875 0.83451 0.66115 0.0
H198 H 0.41183 0.87406 0.47753 0.0
H199 H 0.5001 0.89382 0.55911 0.0
S200 S 0.30333 0.72343 0.76368 0.0
N201 N 0.28171 0.73996 0.67496 0.0
N202 N 0.37888 0.76441 0.76509 0.0
C203 C 0.38955 0.79468 0.69151 0.0
C204 C 0.33692 0.78109 0.64234 0.0
C205 C 0.63973 0.37125 0.78602 0.0
C206 C 0.59146 0.32731 0.83576 0.0
C207 C 0.68626 0.42596 0.81976 0.0
C208 C 0.68501 0.43902 0.904 0.0
H209 H 0.63987 0.36445 0.71955 0.0
H210 H 0.72138 0.45932 0.77904 0.0
S211 S 0.57296 0.33477 0.0623 0.0
N212 N 0.54892 0.29707 0.97399 0.0
N213 N 0.63496 0.39997 0.03853 0.0
C214 C 0.6389 0.3934 0.95528 0.0
C215 C 0.59251 0.33735 0.92093 0.0
loop_
_geom_bond_atom_site_label_1
_geom_bond_atom_site_label_2
_geom_bond_distance
_geom_bond_site_symmetry_2
_ccdc_geom_bond_type
C0 O2 1.247 . S
C0 O4 1.258 . S
C1 O8 1.247 . S
C1 O9 1.258 1_556 S
O2 C0 1.247 . S
O2 Zn3 2.028 . S
Zn3 O2 2.028 . S
Zn3 O7 2.035 . S
Zn3 O9 2.035 . S
Zn3 O10 2.028 . S
O4 C0 1.258 . S
O4 Zn5 2.035 1_554 S
Zn5 O4 2.035 1_556 S
Zn5 O6 2.028 . S
Zn5 O8 2.028 . S
Zn5 O11 2.035 1_556 S
O6 Zn5 2.028 . S
O6 C12 1.247 . S
O7 Zn3 2.035 . S
O7 C12 1.258 1_554 S
O8 C1 1.247 . S
O8 Zn5 2.028 . S
O9 C1 1.258 1_554 S
O9 Zn3 2.035 . S
O10 Zn3 2.028 . S
O10 C13 1.247 . S
O11 Zn5 2.035 1_554 S
O11 C13 1.258 . S
C12 O6 1.247 . S
C12 O7 1.258 1_556 S
C13 O10 1.247 . S
C13 O11 1.258 . S
C14 O16 1.247 . S
C14 O18 1.258 . S
C15 O22 1.247 . S
C15 O23 1.258 . S
O16 C14 1.247 . S
O16 Zn17 2.028 . S
Zn17 O16 2.028 . S
Zn17 O21 2.035 . S
Zn17 O23 2.035 . S
Zn17 O24 2.028 . S
O18 C14 1.258 . S
O18 Zn19 2.035 . S
Zn19 O18 2.035 . S
Zn19 O20 2.028 . S
Zn19 O22 2.028 . S
Zn19 O25 2.035 . S
O20 Zn19 2.028 . S
O20 C26 1.247 . S
O21 Zn17 2.035 . S
O21 C26 1.258 . S
O22 C15 1.247 . S
O22 Zn19 2.028 . S
O23 C15 1.258 . S
O23 Zn17 2.035 . S
O24 Zn17 2.028 . S
O24 C27 1.247 . S
O25 Zn19 2.035 . S
O25 C27 1.258 . S
C26 O20 1.247 . S
C26 O21 1.258 . S
C27 O24 1.247 . S
C27 O25 1.258 . S
C28 O30 1.247 . S
C28 O32 1.258 . S
C29 O36 1.247 . S
C29 O37 1.258 . S
O30 C28 1.247 . S
O30 Zn31 2.028 . S
Zn31 O30 2.028 . S
Zn31 O35 2.035 . S
Zn31 O37 2.035 . S
Zn31 O38 2.028 . S
O32 C28 1.258 . S
O32 Zn33 2.035 . S
Zn33 O32 2.035 . S
Zn33 O34 2.028 . S
Zn33 O36 2.028 . S
Zn33 O39 2.035 . S
O34 Zn33 2.028 . S
O34 C40 1.247 . S
O35 Zn31 2.035 . S
O35 C40 1.258 . S
O36 C29 1.247 . S
O36 Zn33 2.028 . S
O37 C29 1.258 . S
O37 Zn31 2.035 . S
O38 Zn31 2.028 . S
O38 C41 1.247 . S
O39 Zn33 2.035 . S
O39 C41 1.258 . S
C40 O34 1.247 . S
C40 O35 1.258 . S
C41 O38 1.247 . S
C41 O39 1.258 . S
C42 O44 1.247 . S
C42 O46 1.258 1_556 S
C43 O50 1.247 . S
C43 O51 1.258 . S
O44 C42 1.247 . S
O44 Zn45 2.028 . S
Zn45 O44 2.028 . S
Zn45 O49 2.035 1_556 S
Zn45 O51 2.035 1_556 S
Zn45 O52 2.028 . S
O46 C42 1.258 1_554 S
O46 Zn47 2.035 . S
Zn47 O46 2.035 . S
Zn47 O48 2.028 . S
Zn47 O50 2.028 . S
Zn47 O53 2.035 . S
O48 Zn47 2.028 . S
O48 C54 1.247 . S
O49 Zn45 2.035 1_554 S
O49 C54 1.258 . S
O50 C43 1.247 . S
O50 Zn47 2.028 . S
O51 C43 1.258 . S
O51 Zn45 2.035 1_554 S
O52 Zn45 2.028 . S
O52 C55 1.247 . S
O53 Zn47 2.035 . S
O53 C55 1.258 1_554 S
C54 O48 1.247 . S
C54 O49 1.258 . S
C55 O52 1.247 . S
C55 O53 1.258 1_556 S
C56 O58 1.247 . S
C56 O60 1.258 . S
C57 O64 1.247 . S
C57 O65 1.258 . S
O58 C56 1.247 . S
O58 Zn59 2.028 . S
Zn59 O58 2.028 . S
Zn59 O63 2.035 . S
Zn59 O65 2.035 . S
Zn59 O66 2.028 . S
O60 C56 1.258 . S
O60 Zn61 2.035 . S
Zn61 O60 2.035 . S
Zn61 O62 2.028 . S
Zn61 O64 2.028 . S
Zn61 O67 2.035 . S
O62 Zn61 2.028 . S
O62 C68 1.247 . S
O63 Zn59 2.035 . S
O63 C68 1.258 . S
O64 C57 1.247 . S
O64 Zn61 2.028 . S
O65 C57 1.258 . S
O65 Zn59 2.035 . S
O66 Zn59 2.028 . S
O66 C69 1.247 . S
O67 Zn61 2.035 . S
O67 C69 1.258 . S
C68 O62 1.247 . S
C68 O63 1.258 . S
C69 O66 1.247 . S
C69 O67 1.258 . S
C70 O72 1.247 . S
C70 O74 1.258 . S
C71 O78 1.247 . S
C71 O79 1.258 . S
O72 C70 1.247 . S
O72 Zn73 2.028 . S
Zn73 O72 2.028 . S
Zn73 O77 2.035 . S
Zn73 O79 2.035 . S
Zn73 O80 2.028 . S
O74 C70 1.258 . S
O74 Zn75 2.035 . S
Zn75 O74 2.035 . S
Zn75 O76 2.028 . S
Zn75 O78 2.028 . S
Zn75 O81 2.035 . S
O76 Zn75 2.028 . S
O76 C82 1.247 . S
O77 Zn73 2.035 . S
O77 C82 1.258 . S
O78 C71 1.247 . S
O78 Zn75 2.028 . S
O79 C71 1.258 . S
O79 Zn73 2.035 . S
O80 Zn73 2.028 . S
O80 C83 1.247 . S
O81 Zn75 2.035 . S
O81 C83 1.258 . S
C82 O76 1.247 . S
C82 O77 1.258 . S
C83 O80 1.247 . S
C83 O81 1.258 . S
C84 C85 1.369 . S
C84 C86 1.419 . S
C84 H88 0.930 . S
C85 C84 1.369 . S
C85 C94 1.429 . S
C86 C84 1.419 . S
C86 C87 1.363 . S
C86 H89 0.929 . S
C87 C86 1.363 . S
C87 C93 1.428 . S
H88 C84 0.930 . S
H89 C86 0.929 . S
S90 N91 1.613 . S
S90 N92 1.610 . S
N91 S90 1.613 . S
N91 C94 1.350 . S
N92 S90 1.610 . S
N92 C93 1.351 . S
C93 C87 1.428 . S
C93 N92 1.351 . S
C93 C94 1.434 . S
C94 C85 1.429 . S
C94 N91 1.350 . S
C94 C93 1.434 . S
C95 C96 1.369 . S
C95 C97 1.419 1_655 S
C95 H99 0.930 . S
C96 C95 1.369 . S
C96 C105 1.429 . S
C97 C95 1.419 1_455 S
C97 C98 1.363 . S
C97 H100 0.929 . S
C98 C97 1.363 . S
C98 C104 1.428 . S
H99 C95 0.930 . S
H100 C97 0.929 . S
S101 N102 1.613 . S
S101 N103 1.610 1_655 S
N102 S101 1.613 . S
N102 C105 1.350 . S
N103 S101 1.610 1_455 S
N103 C104 1.351 . S
C104 C98 1.428 . S
C104 N103 1.351 . S
C104 C105 1.434 1_455 S
C105 C96 1.429 . S
C105 N102 1.350 . S
C105 C104 1.434 1_655 S
C106 C107 1.369 . S
C106 C108 1.419 1_545 S
C106 H110 0.930 . S
C107 C106 1.369 . S
C107 C116 1.429 . S
C108 C106 1.419 1_565 S
C108 C109 1.363 . S
C108 H111 0.929 . S
C109 C108 1.363 . S
C109 C115 1.428 . S
H110 C106 0.930 . S
H111 C108 0.929 . S
S112 N113 1.613 . S
S112 N114 1.610 1_545 S
N113 S112 1.613 . S
N113 C116 1.350 . S
N114 S112 1.610 1_565 S
N114 C115 1.351 . S
C115 C109 1.428 . S
C115 N114 1.351 . S
C115 C116 1.434 1_565 S
C116 C107 1.429 . S
C116 N113 1.350 . S
C116 C115 1.434 1_545 S
C117 C118 1.369 . S
C117 C119 1.419 . S
C117 H121 0.930 . S
C118 C117 1.369 . S
C118 C127 1.429 . S
C119 C117 1.419 . S
C119 C120 1.363 . S
C119 H122 0.929 . S
C120 C119 1.363 . S
C120 C126 1.428 . S
H121 C117 0.930 . S
H122 C119 0.929 . S
S123 N124 1.613 . S
S123 N125 1.610 1_554 S
N124 S123 1.613 . S
N124 C127 1.350 1_554 S
N125 S123 1.610 1_556 S
N125 C126 1.351 . S
C126 C120 1.428 . S
C126 N125 1.351 . S
C126 C127 1.434 . S
C127 C118 1.429 . S
C127 N124 1.350 1_556 S
C127 C126 1.434 . S
C128 C129 1.369 . S
C128 C130 1.419 1_655 S
C128 H132 0.930 . S
C129 C128 1.369 . S
C129 C138 1.429 . S
C130 C128 1.419 1_455 S
C130 C131 1.363 . S
C130 H133 0.929 . S
C131 C130 1.363 . S
C131 C137 1.428 . S
H132 C128 0.930 . S
H133 C130 0.929 . S
S134 N135 1.613 . S
S134 N136 1.610 . S
N135 S134 1.613 . S
N135 C138 1.350 . S
N136 S134 1.610 . S
N136 C137 1.351 1_655 S
C137 C131 1.428 . S
C137 N136 1.351 1_455 S
C137 C138 1.434 1_455 S
C138 C129 1.429 . S
C138 N135 1.350 . S
C138 C137 1.434 1_655 S
C139 C140 1.369 . S
C139 C141 1.419 1_545 S
C139 H143 0.930 . S
C140 C139 1.369 . S
C140 C149 1.429 . S
C141 C139 1.419 1_565 S
C141 C142 1.363 . S
C141 H144 0.929 . S
C142 C141 1.363 . S
C142 C148 1.428 . S
H143 C139 0.930 . S
H144 C141 0.929 . S
S145 N146 1.613 . S
S145 N147 1.610 . S
N146 S145 1.613 . S
N146 C149 1.350 . S
N147 S145 1.610 . S
N147 C148 1.351 1_545 S
C148 C142 1.428 . S
C148 N147 1.351 1_565 S
C148 C149 1.434 1_565 S
C149 C140 1.429 . S
C149 N146 1.350 . S
C149 C148 1.434 1_545 S
C150 C151 1.369 . S
C150 C152 1.419 . S
C150 H154 0.930 . S
C151 C150 1.369 . S
C151 C160 1.429 . S
C152 C150 1.419 . S
C152 C153 1.363 . S
C152 H155 0.929 . S
C153 C152 1.363 . S
C153 C159 1.428 . S
H154 C150 0.930 . S
H155 C152 0.929 . S
S156 N157 1.613 . S
S156 N158 1.610 . S
N157 S156 1.613 . S
N157 C160 1.350 . S
N158 S156 1.610 . S
N158 C159 1.351 . S
C159 C153 1.428 . S
C159 N158 1.351 . S
C159 C160 1.434 . S
C160 C151 1.429 . S
C160 N157 1.350 . S
C160 C159 1.434 . S
C161 C162 1.369 . S
C161 C163 1.419 . S
C161 H165 0.930 . S
C162 C161 1.369 . S
C162 C171 1.429 . S
C163 C161 1.419 . S
C163 C164 1.363 . S
C163 H166 0.929 . S
C164 C163 1.363 . S
C164 C170 1.428 . S
H165 C161 0.930 . S
H166 C163 0.929 . S
S167 N168 1.613 . S
S167 N169 1.610 . S
N168 S167 1.613 . S
N168 C171 1.350 . S
N169 S167 1.610 . S
N169 C170 1.351 . S
C170 C164 1.428 . S
C170 N169 1.351 . S
C170 C171 1.434 . S
C171 C162 1.429 . S
C171 N168 1.350 . S
C171 C170 1.434 . S
C172 C173 1.369 . S
C172 C174 1.419 . S
C172 H176 0.930 . S
C173 C172 1.369 . S
C173 C182 1.429 . S
C174 C172 1.419 . S
C174 C175 1.363 . S
C174 H177 0.929 . S
C175 C174 1.363 . S
C175 C181 1.428 . S
H176 C172 0.930 . S
H177 C174 0.929 . S
S178 N179 1.613 . S
S178 N180 1.610 . S
N179 S178 1.613 . S
N179 C182 1.350 . S
N180 S178 1.610 . S
N180 C181 1.351 . S
C181 C175 1.428 . S
C181 N180 1.351 . S
C181 C182 1.434 . S
C182 C173 1.429 . S
C182 N179 1.350 . S
C182 C181 1.434 . S
C183 C184 1.369 . S
C183 C185 1.419 . S
C183 H187 0.930 . S
C184 C183 1.369 . S
C184 C193 1.429 . S
C185 C183 1.419 . S
C185 C186 1.363 . S
C185 H188 0.929 . S
C186 C185 1.363 . S
C186 C192 1.428 . S
H187 C183 0.930 . S
H188 C185 0.929 . S
S189 N190 1.613 . S
S189 N191 1.610 . S
N190 S189 1.613 . S
N190 C193 1.350 . S
N191 S189 1.610 . S
N191 C192 1.351 . S
C192 C186 1.428 . S
C192 N191 1.351 . S
C192 C193 1.434 . S
C193 C184 1.429 . S
C193 N190 1.350 . S
C193 C192 1.434 . S
C194 C195 1.369 . S
C194 C196 1.419 . S
C194 H198 0.930 . S
C195 C194 1.369 . S
C195 C204 1.429 . S
C196 C194 1.419 . S
C196 C197 1.363 . S
C196 H199 0.929 . S
C197 C196 1.363 . S
C197 C203 1.428 . S
H198 C194 0.930 . S
H199 C196 0.929 . S
S200 N201 1.613 . S
S200 N202 1.610 . S
N201 S200 1.613 . S
N201 C204 1.350 . S
N202 S200 1.610 . S
N202 C203 1.351 . S
C203 C197 1.428 . S
C203 N202 1.351 . S
C203 C204 1.434 . S
C204 C195 1.429 . S
C204 N201 1.350 . S
C204 C203 1.434 . S
C205 C206 1.369 . S
C205 C207 1.419 . S
C205 H209 0.930 . S
C206 C205 1.369 . S
C206 C215 1.429 . S
C207 C205 1.419 . S
C207 C208 1.363 . S
C207 H210 0.929 . S
C208 C207 1.363 . S
C208 C214 1.428 . S
H209 C205 0.930 . S
H210 C207 0.929 . S
S211 N212 1.613 1_554 S
S211 N213 1.610 . S
N212 S211 1.613 1_556 S
N212 C215 1.350 . S
N213 S211 1.610 . S
N213 C214 1.351 1_554 S
C214 C208 1.428 . S
C214 N213 1.351 1_556 S
C214 C215 1.434 . S
C215 C206 1.429 . S
C215 N212 1.350 . S
C215 C214 1.434 . S
C85 C12 1.475 . S
C87 C83 1.475 . S
C96 C26 1.473 . S
C98 C0 1.472 . S
C107 C14 1.474 . S
C109 C28 1.473 . S
C118 C42 1.473 . S
C120 C40 1.474 . S
C129 C54 1.475 . S
C131 C57 1.474 . S
C140 C71 1.474 . S
C142 C69 1.473 . S
C151 C68 1.501 . S
C153 C13 1.500 . S
C162 C82 1.499 . S
C164 C27 1.498 . S
C173 C29 1.501 . S
C175 C1 1.501 . S
C184 C43 1.500 . S
C186 C15 1.501 . S
C195 C56 1.502 . S
C197 C41 1.500 . S
C206 C70 1.501 . S
C208 C55 1.500 . S
