# Generated by pormake.
# Topology ske, (6)-cn, num edge types: 1
# Building blocks:
#     Node 0, Type 0, BuildingBlock: VOLQOD_clean_sbu_1, # of connection points: 6
#     Node 1, Type 0, BuildingBlock: VOLQOD_clean_sbu_1, # of connection points: 6
#     Node 2, Type 0, BuildingBlock: VOLQOD_clean_sbu_1, # of connection points: 6
#     Node 3, Type 0, BuildingBlock: VOLQOD_clean_sbu_1, # of connection points: 6
#     Node 4, Type 0, BuildingBlock: VOLQOD_clean_sbu_1, # of connection points: 6
#     Node 5, Type 0, BuildingBlock: VOLQOD_clean_sbu_1, # of connection points: 6
#     Node 6, Type 0, BuildingBlock: VOLQOD_clean_sbu_1, # of connection points: 6
#     Node 7, Type 0, BuildingBlock: VOLQOD_clean_sbu_1, # of connection points: 6
#     Edge 8, Type (0, 0), None
#     Edge 9, Type (0, 0), None
#     Edge 10, Type (0, 0), None
#     Edge 11, Type (0, 0), None
#     Edge 12, Type (0, 0), None
#     Edge 13, Type (0, 0), None
#     Edge 14, Type (0, 0), None
#     Edge 15, Type (0, 0), None
#     Edge 16, Type (0, 0), None
#     Edge 17, Type (0, 0), None
#     Edge 18, Type (0, 0), None
#     Edge 19, Type (0, 0), None
#     Edge 20, Type (0, 0), None
#     Edge 21, Type (0, 0), None
#     Edge 22, Type (0, 0), None
#     Edge 23, Type (0, 0), None
#     Edge 24, Type (0, 0), None
#     Edge 25, Type (0, 0), None
#     Edge 26, Type (0, 0), None
#     Edge 27, Type (0, 0), None
#     Edge 28, Type (0, 0), None
#     Edge 29, Type (0, 0), None
#     Edge 30, Type (0, 0), None
#     Edge 31, Type (0, 0), None
# Relax obj value: 0.031
# Max RMSD: 0.059
# Mean RMSD: 0.059
data_MOF--net-ske--node1-VOLQOD_clean_sbu_1--edge1-none
_symmetry_space_group_name_H-M    P1
_symmetry_Int_Tables_number       1
_symmetry_cell_setting            triclinic
loop_
_symmetry_equiv_pos_as_xyz
'x, y, z'
_cell_length_a     34.10519
_cell_length_b     17.012693
_cell_length_c     8.6102494
_cell_angle_alpha  90.000669
_cell_angle_beta   89.99955
_cell_angle_gamma 89.999913
loop_
_atom_site_label
_atom_site_type_symbol
_atom_site_fract_x
_atom_site_fract_y
_atom_site_fract_z
_atom_type_partial_charge
O0 O 0.09894 0.30925 0.94074 0.0
Zn1 Zn 0.08016 0.31718 0.71697 0.0
O2 O 0.10929 0.24015 0.60357 0.0
Zn3 Zn 0.15066 0.28607 0.48261 0.0
Zn4 Zn 0.1293 0.16025 0.73895 0.0
Zn5 Zn 0.07488 0.19097 0.46188 0.0
O6 O 0.14337 0.25104 0.25569 0.0
O7 O 0.07814 0.24392 0.25938 0.0
O8 O 0.08948 0.42441 0.61593 0.0
O9 O 0.14224 0.40269 0.46901 0.0
O10 O 0.20345 0.26495 0.59403 0.0
O11 O 0.18651 0.17573 0.77119 0.0
O12 O 0.11889 0.05034 0.65144 0.0
O13 O 0.02154 0.29216 0.70838 0.0
O14 O 0.09047 0.07972 0.42604 0.0
O15 O 0.01977 0.19462 0.53657 0.0
C16 C 0.10799 0.24754 0.01771 0.0
C17 C 0.11012 0.25162 0.18601 0.0
C18 C 0.21165 0.22141 0.71116 0.0
C19 C 0.11559 0.44808 0.52031 0.0
C20 C 0.1061 0.03038 0.51752 0.0
C21 C 0.00284 0.23925 0.63392 0.0
O22 O 0.11086 0.18007 0.95431 0.0
O23 O 0.864 0.1689 0.94073 0.0
Zn24 Zn 0.88278 0.16098 0.71696 0.0
O25 O 0.85364 0.238 0.60357 0.0
Zn26 Zn 0.81227 0.19208 0.48261 0.0
Zn27 Zn 0.83364 0.3179 0.73896 0.0
Zn28 Zn 0.88805 0.28719 0.46188 0.0
O29 O 0.81957 0.22711 0.25569 0.0
O30 O 0.88479 0.23423 0.25938 0.0
O31 O 0.87347 0.05374 0.61591 0.0
O32 O 0.8207 0.07546 0.46902 0.0
O33 O 0.75948 0.2132 0.59403 0.0
O34 O 0.77643 0.30242 0.77119 0.0
O35 O 0.84404 0.42781 0.65145 0.0
O36 O 0.9414 0.18601 0.70836 0.0
O37 O 0.87245 0.39843 0.42602 0.0
O38 O 0.94316 0.28357 0.53658 0.0
C39 C 0.85495 0.2306 0.01771 0.0
C40 C 0.85282 0.22652 0.18601 0.0
C41 C 0.75128 0.25674 0.71116 0.0
C42 C 0.84735 0.03008 0.5203 0.0
C43 C 0.85682 0.44777 0.51751 0.0
C44 C 0.96009 0.23896 0.63395 0.0
O45 O 0.85207 0.29808 0.95432 0.0
O46 O 0.09894 0.6689 0.04809 0.0
Zn47 Zn 0.08016 0.66097 0.27185 0.0
O48 O 0.10929 0.738 0.38525 0.0
Zn49 Zn 0.15066 0.69208 0.50621 0.0
Zn50 Zn 0.1293 0.8179 0.24987 0.0
Zn51 Zn 0.07487 0.78718 0.52694 0.0
O52 O 0.14337 0.72712 0.73313 0.0
O53 O 0.07814 0.73423 0.72944 0.0
O54 O 0.08948 0.55374 0.37289 0.0
O55 O 0.14224 0.57546 0.51981 0.0
O56 O 0.20345 0.7132 0.39479 0.0
O57 O 0.18651 0.80242 0.21763 0.0
O58 O 0.11889 0.92781 0.33739 0.0
O59 O 0.02154 0.68599 0.28044 0.0
O60 O 0.09047 0.89842 0.56279 0.0
O61 O 0.01977 0.78353 0.45225 0.0
C62 C 0.10798 0.73061 0.97111 0.0
C63 C 0.11011 0.72653 0.80281 0.0
C64 C 0.21165 0.75674 0.27766 0.0
C65 C 0.11559 0.53007 0.46852 0.0
C66 C 0.1061 0.94776 0.47132 0.0
C67 C 0.00284 0.7389 0.3549 0.0
O68 O 0.11086 0.79808 0.03451 0.0
O69 O 0.864 0.80925 0.04809 0.0
Zn70 Zn 0.88278 0.81717 0.27186 0.0
O71 O 0.85364 0.74015 0.38525 0.0
Zn72 Zn 0.81227 0.78608 0.5062 0.0
Zn73 Zn 0.83364 0.66025 0.24986 0.0
Zn74 Zn 0.88805 0.69097 0.52694 0.0
O75 O 0.81957 0.75104 0.73313 0.0
O76 O 0.88479 0.74393 0.72943 0.0
O77 O 0.87347 0.92441 0.37291 0.0
O78 O 0.8207 0.9027 0.5198 0.0
O79 O 0.75948 0.76495 0.39479 0.0
O80 O 0.77643 0.67573 0.21763 0.0
O81 O 0.84404 0.55034 0.33737 0.0
O82 O 0.9414 0.79214 0.28045 0.0
O83 O 0.87244 0.57973 0.56281 0.0
O84 O 0.94316 0.69458 0.45224 0.0
C85 C 0.85495 0.74755 0.97111 0.0
C86 C 0.85282 0.75163 0.80281 0.0
C87 C 0.75128 0.72141 0.27766 0.0
C88 C 0.84735 0.94808 0.46852 0.0
C89 C 0.85682 0.53039 0.47132 0.0
C90 C 0.96009 0.73919 0.35487 0.0
O91 O 0.85207 0.68007 0.0345 0.0
O92 O 0.59894 0.80925 0.44074 0.0
Zn93 Zn 0.58016 0.81718 0.21697 0.0
O94 O 0.60929 0.74015 0.10357 0.0
Zn95 Zn 0.65066 0.78607 0.98261 0.0
Zn96 Zn 0.6293 0.66025 0.23895 0.0
Zn97 Zn 0.57488 0.69097 0.96188 0.0
O98 O 0.64337 0.75104 0.75569 0.0
O99 O 0.57814 0.74392 0.75938 0.0
O100 O 0.58948 0.92441 0.11593 0.0
O101 O 0.64224 0.90269 0.96901 0.0
O102 O 0.70345 0.76495 0.09403 0.0
O103 O 0.68651 0.67573 0.27119 0.0
O104 O 0.61889 0.55034 0.15144 0.0
O105 O 0.52154 0.79216 0.20838 0.0
O106 O 0.59047 0.57972 0.92604 0.0
O107 O 0.51977 0.69462 0.03657 0.0
C108 C 0.60799 0.74754 0.51771 0.0
C109 C 0.61012 0.75162 0.68601 0.0
C110 C 0.71165 0.72141 0.21117 0.0
C111 C 0.61559 0.94808 0.02031 0.0
C112 C 0.6061 0.53038 0.01752 0.0
C113 C 0.50284 0.73925 0.13392 0.0
O114 O 0.61086 0.68007 0.45431 0.0
O115 O 0.364 0.6689 0.44073 0.0
Zn116 Zn 0.38278 0.66098 0.21696 0.0
O117 O 0.35365 0.738 0.10357 0.0
Zn118 Zn 0.31227 0.69208 0.98261 0.0
Zn119 Zn 0.33364 0.8179 0.23896 0.0
Zn120 Zn 0.38805 0.78719 0.96188 0.0
O121 O 0.31957 0.72711 0.75569 0.0
O122 O 0.38479 0.73423 0.75938 0.0
O123 O 0.37347 0.55374 0.11591 0.0
O124 O 0.3207 0.57546 0.96903 0.0
O125 O 0.25948 0.7132 0.09403 0.0
O126 O 0.27643 0.80242 0.2712 0.0
O127 O 0.34404 0.92781 0.15145 0.0
O128 O 0.4414 0.68601 0.20836 0.0
O129 O 0.37245 0.89843 0.92602 0.0
O130 O 0.44316 0.78357 0.03658 0.0
C131 C 0.35495 0.7306 0.51771 0.0
C132 C 0.35282 0.72652 0.68601 0.0
C133 C 0.25128 0.75674 0.21116 0.0
C134 C 0.34735 0.53008 0.0203 0.0
C135 C 0.35682 0.94777 0.01751 0.0
C136 C 0.46009 0.73896 0.13395 0.0
O137 O 0.35208 0.79808 0.45432 0.0
O138 O 0.59894 0.1689 0.54809 0.0
Zn139 Zn 0.58016 0.16097 0.77185 0.0
O140 O 0.60929 0.238 0.88525 0.0
Zn141 Zn 0.65066 0.19208 0.00621 0.0
Zn142 Zn 0.6293 0.3179 0.74987 0.0
Zn143 Zn 0.57487 0.28718 0.02694 0.0
O144 O 0.64337 0.22712 0.23313 0.0
O145 O 0.57814 0.23423 0.22944 0.0
O146 O 0.58948 0.05374 0.87289 0.0
O147 O 0.64224 0.07546 0.01981 0.0
O148 O 0.70345 0.2132 0.89479 0.0
O149 O 0.6865 0.30242 0.71763 0.0
O150 O 0.61889 0.42781 0.83739 0.0
O151 O 0.52154 0.18599 0.78044 0.0
O152 O 0.59047 0.39842 0.06279 0.0
O153 O 0.51977 0.28353 0.95225 0.0
C154 C 0.60798 0.23061 0.47111 0.0
C155 C 0.61011 0.22653 0.30281 0.0
C156 C 0.71165 0.25674 0.77765 0.0
C157 C 0.61559 0.03007 0.96852 0.0
C158 C 0.6061 0.44776 0.97132 0.0
C159 C 0.50284 0.2389 0.8549 0.0
O160 O 0.61086 0.29808 0.53451 0.0
O161 O 0.364 0.30925 0.54809 0.0
Zn162 Zn 0.38278 0.31717 0.77186 0.0
O163 O 0.35364 0.24015 0.88525 0.0
Zn164 Zn 0.31227 0.28607 0.0062 0.0
Zn165 Zn 0.33364 0.16025 0.74986 0.0
Zn166 Zn 0.38805 0.19097 0.02694 0.0
O167 O 0.31957 0.25104 0.23313 0.0
O168 O 0.38479 0.24393 0.22943 0.0
O169 O 0.37347 0.42441 0.87291 0.0
O170 O 0.3207 0.4027 0.0198 0.0
O171 O 0.25948 0.26495 0.89478 0.0
O172 O 0.27643 0.17573 0.71763 0.0
O173 O 0.34404 0.05034 0.83737 0.0
O174 O 0.4414 0.29214 0.78045 0.0
O175 O 0.37244 0.07973 0.06281 0.0
O176 O 0.44316 0.19458 0.95224 0.0
C177 C 0.35495 0.24755 0.47111 0.0
C178 C 0.35282 0.25163 0.30281 0.0
C179 C 0.25128 0.22141 0.77766 0.0
C180 C 0.34735 0.44808 0.96852 0.0
C181 C 0.35682 0.03039 0.97132 0.0
C182 C 0.46009 0.23919 0.85487 0.0
O183 O 0.35207 0.18007 0.5345 0.0
loop_
_geom_bond_atom_site_label_1
_geom_bond_atom_site_label_2
_geom_bond_distance
_geom_bond_site_symmetry_2
_ccdc_geom_bond_type
O0 Zn1 1.953 . S
O0 C16 1.225 1_556 S
Zn1 O0 1.953 . S
Zn1 O2 1.949 . S
Zn1 O8 1.919 . S
Zn1 O13 1.924 . S
O2 Zn1 1.949 . S
O2 Zn3 1.923 . S
O2 Zn4 1.950 . S
O2 Zn5 1.945 . S
Zn3 O2 1.923 . S
Zn3 O6 1.933 . S
Zn3 O9 1.941 . S
Zn3 O10 1.965 . S
Zn4 O2 1.950 . S
Zn4 O11 1.938 . S
Zn4 O12 1.906 . S
Zn4 O22 1.953 . S
Zn5 O2 1.945 . S
Zn5 O7 1.932 . S
Zn5 O14 1.977 . S
Zn5 O15 1.910 . S
O6 Zn3 1.933 . S
O6 C17 1.226 . S
O7 Zn5 1.932 . S
O7 C17 1.307 . S
O8 Zn1 1.919 . S
O8 C19 1.253 . S
O9 Zn3 1.941 . S
O9 C19 1.283 . S
O10 Zn3 1.965 . S
O10 C18 1.303 . S
O11 Zn4 1.938 . S
O11 C18 1.247 . S
O12 Zn4 1.906 . S
O12 C20 1.304 . S
O13 Zn1 1.924 . S
O13 C21 1.311 . S
O14 Zn5 1.977 . S
O14 C20 1.272 . S
O15 Zn5 1.910 . S
O15 C21 1.231 . S
C16 O0 1.225 1_554 S
C16 O22 1.298 1_554 S
C17 O6 1.226 . S
C17 O7 1.307 . S
C18 O10 1.303 . S
C18 O11 1.247 . S
C19 O8 1.253 . S
C19 O9 1.283 . S
C20 O12 1.304 . S
C20 O14 1.272 . S
C21 O13 1.311 . S
C21 O15 1.231 . S
O22 Zn4 1.953 . S
O22 C16 1.298 1_556 S
O23 Zn24 1.953 . S
O23 C39 1.225 1_556 S
Zn24 O23 1.953 . S
Zn24 O25 1.949 . S
Zn24 O31 1.919 . S
Zn24 O36 1.924 . S
O25 Zn24 1.949 . S
O25 Zn26 1.923 . S
O25 Zn27 1.950 . S
O25 Zn28 1.945 . S
Zn26 O25 1.923 . S
Zn26 O29 1.933 . S
Zn26 O32 1.941 . S
Zn26 O33 1.965 . S
Zn27 O25 1.950 . S
Zn27 O34 1.938 . S
Zn27 O35 1.906 . S
Zn27 O45 1.953 . S
Zn28 O25 1.945 . S
Zn28 O30 1.932 . S
Zn28 O37 1.977 . S
Zn28 O38 1.910 . S
O29 Zn26 1.933 . S
O29 C40 1.226 . S
O30 Zn28 1.932 . S
O30 C40 1.307 . S
O31 Zn24 1.919 . S
O31 C42 1.253 . S
O32 Zn26 1.941 . S
O32 C42 1.283 . S
O33 Zn26 1.965 . S
O33 C41 1.303 . S
O34 Zn27 1.938 . S
O34 C41 1.247 . S
O35 Zn27 1.906 . S
O35 C43 1.304 . S
O36 Zn24 1.924 . S
O36 C44 1.311 . S
O37 Zn28 1.977 . S
O37 C43 1.272 . S
O38 Zn28 1.910 . S
O38 C44 1.231 . S
C39 O23 1.225 1_554 S
C39 O45 1.298 1_554 S
C40 O29 1.226 . S
C40 O30 1.307 . S
C41 O33 1.303 . S
C41 O34 1.247 . S
C42 O31 1.253 . S
C42 O32 1.283 . S
C43 O35 1.304 . S
C43 O37 1.272 . S
C44 O36 1.311 . S
C44 O38 1.231 . S
O45 Zn27 1.953 . S
O45 C39 1.298 1_556 S
O46 Zn47 1.953 . S
O46 C62 1.225 1_554 S
Zn47 O46 1.953 . S
Zn47 O48 1.949 . S
Zn47 O54 1.919 . S
Zn47 O59 1.924 . S
O48 Zn47 1.949 . S
O48 Zn49 1.923 . S
O48 Zn50 1.950 . S
O48 Zn51 1.945 . S
Zn49 O48 1.923 . S
Zn49 O52 1.933 . S
Zn49 O55 1.941 . S
Zn49 O56 1.965 . S
Zn50 O48 1.950 . S
Zn50 O57 1.938 . S
Zn50 O58 1.906 . S
Zn50 O68 1.953 . S
Zn51 O48 1.945 . S
Zn51 O53 1.932 . S
Zn51 O60 1.977 . S
Zn51 O61 1.910 . S
O52 Zn49 1.933 . S
O52 C63 1.226 . S
O53 Zn51 1.932 . S
O53 C63 1.307 . S
O54 Zn47 1.919 . S
O54 C65 1.253 . S
O55 Zn49 1.941 . S
O55 C65 1.283 . S
O56 Zn49 1.965 . S
O56 C64 1.303 . S
O57 Zn50 1.938 . S
O57 C64 1.247 . S
O58 Zn50 1.906 . S
O58 C66 1.304 . S
O59 Zn47 1.924 . S
O59 C67 1.311 . S
O60 Zn51 1.977 . S
O60 C66 1.272 . S
O61 Zn51 1.910 . S
O61 C67 1.231 . S
C62 O46 1.225 1_556 S
C62 O68 1.298 1_556 S
C63 O52 1.226 . S
C63 O53 1.307 . S
C64 O56 1.303 . S
C64 O57 1.247 . S
C65 O54 1.253 . S
C65 O55 1.283 . S
C66 O58 1.304 . S
C66 O60 1.272 . S
C67 O59 1.311 . S
C67 O61 1.231 . S
O68 Zn50 1.953 . S
O68 C62 1.298 1_554 S
O69 Zn70 1.953 . S
O69 C85 1.225 1_554 S
Zn70 O69 1.953 . S
Zn70 O71 1.949 . S
Zn70 O77 1.919 . S
Zn70 O82 1.924 . S
O71 Zn70 1.949 . S
O71 Zn72 1.923 . S
O71 Zn73 1.950 . S
O71 Zn74 1.945 . S
Zn72 O71 1.923 . S
Zn72 O75 1.933 . S
Zn72 O78 1.941 . S
Zn72 O79 1.965 . S
Zn73 O71 1.950 . S
Zn73 O80 1.938 . S
Zn73 O81 1.906 . S
Zn73 O91 1.953 . S
Zn74 O71 1.945 . S
Zn74 O76 1.932 . S
Zn74 O83 1.977 . S
Zn74 O84 1.910 . S
O75 Zn72 1.933 . S
O75 C86 1.226 . S
O76 Zn74 1.932 . S
O76 C86 1.307 . S
O77 Zn70 1.919 . S
O77 C88 1.253 . S
O78 Zn72 1.941 . S
O78 C88 1.283 . S
O79 Zn72 1.965 . S
O79 C87 1.303 . S
O80 Zn73 1.938 . S
O80 C87 1.247 . S
O81 Zn73 1.906 . S
O81 C89 1.304 . S
O82 Zn70 1.924 . S
O82 C90 1.311 . S
O83 Zn74 1.977 . S
O83 C89 1.272 . S
O84 Zn74 1.910 . S
O84 C90 1.231 . S
C85 O69 1.225 1_556 S
C85 O91 1.298 1_556 S
C86 O75 1.226 . S
C86 O76 1.307 . S
C87 O79 1.303 . S
C87 O80 1.247 . S
C88 O77 1.253 . S
C88 O78 1.283 . S
C89 O81 1.304 . S
C89 O83 1.272 . S
C90 O82 1.311 . S
C90 O84 1.231 . S
O91 Zn73 1.953 . S
O91 C85 1.298 1_554 S
O92 Zn93 1.953 . S
O92 C108 1.225 . S
Zn93 O92 1.953 . S
Zn93 O94 1.949 . S
Zn93 O100 1.919 . S
Zn93 O105 1.924 . S
O94 Zn93 1.949 . S
O94 Zn95 1.923 1_554 S
O94 Zn96 1.950 . S
O94 Zn97 1.945 1_554 S
Zn95 O94 1.923 1_556 S
Zn95 O98 1.933 . S
Zn95 O101 1.941 1_556 S
Zn95 O102 1.965 1_556 S
Zn96 O94 1.950 . S
Zn96 O103 1.938 . S
Zn96 O104 1.906 . S
Zn96 O114 1.953 . S
Zn97 O94 1.945 1_556 S
Zn97 O99 1.932 . S
Zn97 O106 1.977 . S
Zn97 O107 1.910 1_556 S
O98 Zn95 1.933 . S
O98 C109 1.226 . S
O99 Zn97 1.932 . S
O99 C109 1.307 . S
O100 Zn93 1.919 . S
O100 C111 1.253 . S
O101 Zn95 1.941 1_554 S
O101 C111 1.283 . S
O102 Zn95 1.965 1_554 S
O102 C110 1.303 . S
O103 Zn96 1.938 . S
O103 C110 1.247 . S
O104 Zn96 1.906 . S
O104 C112 1.304 . S
O105 Zn93 1.924 . S
O105 C113 1.311 . S
O106 Zn97 1.977 . S
O106 C112 1.272 1_556 S
O107 Zn97 1.910 1_554 S
O107 C113 1.231 . S
C108 O92 1.225 . S
C108 O114 1.298 . S
C109 O98 1.226 . S
C109 O99 1.307 . S
C110 O102 1.303 . S
C110 O103 1.247 . S
C111 O100 1.253 . S
C111 O101 1.283 . S
C112 O104 1.304 . S
C112 O106 1.272 1_554 S
C113 O105 1.311 . S
C113 O107 1.231 . S
O114 Zn96 1.953 . S
O114 C108 1.298 . S
O115 Zn116 1.953 . S
O115 C131 1.225 . S
Zn116 O115 1.953 . S
Zn116 O117 1.949 . S
Zn116 O123 1.919 . S
Zn116 O128 1.924 . S
O117 Zn116 1.949 . S
O117 Zn118 1.923 1_554 S
O117 Zn119 1.950 . S
O117 Zn120 1.945 1_554 S
Zn118 O117 1.923 1_556 S
Zn118 O121 1.933 . S
Zn118 O124 1.941 1_556 S
Zn118 O125 1.965 1_556 S
Zn119 O117 1.950 . S
Zn119 O126 1.938 . S
Zn119 O127 1.906 . S
Zn119 O137 1.953 . S
Zn120 O117 1.945 1_556 S
Zn120 O122 1.932 . S
Zn120 O129 1.977 . S
Zn120 O130 1.910 1_556 S
O121 Zn118 1.933 . S
O121 C132 1.226 . S
O122 Zn120 1.932 . S
O122 C132 1.307 . S
O123 Zn116 1.919 . S
O123 C134 1.253 . S
O124 Zn118 1.941 1_554 S
O124 C134 1.283 . S
O125 Zn118 1.965 1_554 S
O125 C133 1.303 . S
O126 Zn119 1.938 . S
O126 C133 1.247 . S
O127 Zn119 1.906 . S
O127 C135 1.304 . S
O128 Zn116 1.924 . S
O128 C136 1.311 . S
O129 Zn120 1.977 . S
O129 C135 1.272 1_556 S
O130 Zn120 1.910 1_554 S
O130 C136 1.231 . S
C131 O115 1.225 . S
C131 O137 1.298 . S
C132 O121 1.226 . S
C132 O122 1.307 . S
C133 O125 1.303 . S
C133 O126 1.247 . S
C134 O123 1.253 . S
C134 O124 1.283 . S
C135 O127 1.304 . S
C135 O129 1.272 1_554 S
C136 O128 1.311 . S
C136 O130 1.231 . S
O137 Zn119 1.953 . S
O137 C131 1.298 . S
O138 Zn139 1.953 . S
O138 C154 1.225 . S
Zn139 O138 1.953 . S
Zn139 O140 1.949 . S
Zn139 O146 1.919 . S
Zn139 O151 1.924 . S
O140 Zn139 1.949 . S
O140 Zn141 1.923 1_556 S
O140 Zn142 1.950 . S
O140 Zn143 1.945 1_556 S
Zn141 O140 1.923 1_554 S
Zn141 O144 1.933 . S
Zn141 O147 1.941 1_554 S
Zn141 O148 1.965 1_554 S
Zn142 O140 1.950 . S
Zn142 O149 1.938 . S
Zn142 O150 1.906 . S
Zn142 O160 1.953 . S
Zn143 O140 1.945 1_554 S
Zn143 O145 1.932 . S
Zn143 O152 1.977 . S
Zn143 O153 1.910 1_554 S
O144 Zn141 1.933 . S
O144 C155 1.226 . S
O145 Zn143 1.932 . S
O145 C155 1.307 . S
O146 Zn139 1.919 . S
O146 C157 1.253 . S
O147 Zn141 1.941 1_556 S
O147 C157 1.283 . S
O148 Zn141 1.965 1_556 S
O148 C156 1.303 . S
O149 Zn142 1.938 . S
O149 C156 1.247 . S
O150 Zn142 1.906 . S
O150 C158 1.304 . S
O151 Zn139 1.924 . S
O151 C159 1.311 . S
O152 Zn143 1.977 . S
O152 C158 1.272 1_554 S
O153 Zn143 1.910 1_556 S
O153 C159 1.231 . S
C154 O138 1.225 . S
C154 O160 1.298 . S
C155 O144 1.226 . S
C155 O145 1.307 . S
C156 O148 1.303 . S
C156 O149 1.247 . S
C157 O146 1.253 . S
C157 O147 1.283 . S
C158 O150 1.304 . S
C158 O152 1.272 1_556 S
C159 O151 1.311 . S
C159 O153 1.231 . S
O160 Zn142 1.953 . S
O160 C154 1.298 . S
O161 Zn162 1.953 . S
O161 C177 1.225 . S
Zn162 O161 1.953 . S
Zn162 O163 1.949 . S
Zn162 O169 1.919 . S
Zn162 O174 1.924 . S
O163 Zn162 1.949 . S
O163 Zn164 1.923 1_556 S
O163 Zn165 1.950 . S
O163 Zn166 1.945 1_556 S
Zn164 O163 1.923 1_554 S
Zn164 O167 1.933 . S
Zn164 O170 1.941 1_554 S
Zn164 O171 1.965 1_554 S
Zn165 O163 1.950 . S
Zn165 O172 1.938 . S
Zn165 O173 1.906 . S
Zn165 O183 1.953 . S
Zn166 O163 1.945 1_554 S
Zn166 O168 1.932 . S
Zn166 O175 1.977 . S
Zn166 O176 1.910 1_554 S
O167 Zn164 1.933 . S
O167 C178 1.226 . S
O168 Zn166 1.932 . S
O168 C178 1.307 . S
O169 Zn162 1.919 . S
O169 C180 1.253 . S
O170 Zn164 1.941 1_556 S
O170 C180 1.283 . S
O171 Zn164 1.965 1_556 S
O171 C179 1.303 . S
O172 Zn165 1.938 . S
O172 C179 1.247 . S
O173 Zn165 1.906 . S
O173 C181 1.304 . S
O174 Zn162 1.924 . S
O174 C182 1.311 . S
O175 Zn166 1.977 . S
O175 C181 1.272 1_554 S
O176 Zn166 1.910 1_556 S
O176 C182 1.231 . S
C177 O161 1.225 . S
C177 O183 1.298 . S
C178 O167 1.226 . S
C178 O168 1.307 . S
C179 O171 1.303 . S
C179 O172 1.247 . S
C180 O169 1.253 . S
C180 O170 1.283 . S
C181 O173 1.304 . S
C181 O175 1.272 1_556 S
C182 O174 1.311 . S
C182 O176 1.231 . S
O183 Zn165 1.953 . S
O183 C177 1.298 . S
C18 C179 1.502 . S
C156 C41 1.502 . S
C133 C64 1.502 . S
C110 C87 1.502 . S
C66 C20 1.619 1_565 S
C43 C89 1.619 . S
C88 C42 1.687 1_565 S
C65 C19 1.687 . S
C112 C158 1.619 1_554 S
C135 C181 1.619 1_564 S
C180 C134 1.687 1_556 S
C157 C111 1.687 1_546 S
C17 C16 1.472 . S
C40 C39 1.472 . S
C62 C63 1.472 . S
C86 C85 1.472 . S
C108 C109 1.472 . S
C132 C131 1.472 . S
C155 C154 1.472 . S
C178 C177 1.472 . S
C21 C44 1.428 1_455 S
C90 C67 1.428 1_655 S
C113 C136 1.428 . S
C182 C159 1.428 . S
