# Generated by pormake.
# Topology ilc, (8)-cn, num edge types: 1
# Building blocks:
#     Node 0, Type 0, BuildingBlock: XADDAJ01_clean_sbu_3, # of connection points: 8
#     Node 1, Type 0, BuildingBlock: XADDAJ01_clean_sbu_3, # of connection points: 8
#     Node 2, Type 0, BuildingBlock: XADDAJ01_clean_sbu_3, # of connection points: 8
#     Edge 3, Type (0, 0), BuildingBlock: OJICUG_clean_linker_0, # of connection points: 2
#     Edge 4, Type (0, 0), BuildingBlock: OJICUG_clean_linker_0, # of connection points: 2
#     Edge 5, Type (0, 0), BuildingBlock: OJICUG_clean_linker_0, # of connection points: 2
#     Edge 6, Type (0, 0), BuildingBlock: OJICUG_clean_linker_0, # of connection points: 2
#     Edge 7, Type (0, 0), BuildingBlock: OJICUG_clean_linker_0, # of connection points: 2
#     Edge 8, Type (0, 0), BuildingBlock: OJICUG_clean_linker_0, # of connection points: 2
#     Edge 9, Type (0, 0), BuildingBlock: OJICUG_clean_linker_0, # of connection points: 2
#     Edge 10, Type (0, 0), BuildingBlock: OJICUG_clean_linker_0, # of connection points: 2
#     Edge 11, Type (0, 0), BuildingBlock: OJICUG_clean_linker_0, # of connection points: 2
#     Edge 12, Type (0, 0), BuildingBlock: OJICUG_clean_linker_0, # of connection points: 2
#     Edge 13, Type (0, 0), BuildingBlock: OJICUG_clean_linker_0, # of connection points: 2
#     Edge 14, Type (0, 0), BuildingBlock: OJICUG_clean_linker_0, # of connection points: 2
# Relax obj value: 0.198
# Max RMSD: 0.207
# Mean RMSD: 0.207
data_MOF--net-ilc--node1-XADDAJ01_clean_sbu_3--edge1-OJICUG_clean_linker_0
_symmetry_space_group_name_H-M    P1
_symmetry_Int_Tables_number       1
_symmetry_cell_setting            triclinic
loop_
_symmetry_equiv_pos_as_xyz
'x, y, z'
_cell_length_a     17.998082
_cell_length_b     24.051471
_cell_length_c     14.970983
_cell_angle_alpha  102.26306
_cell_angle_beta   73.635625
_cell_angle_gamma 144.03095
loop_
_atom_site_label
_atom_site_type_symbol
_atom_site_fract_x
_atom_site_fract_y
_atom_site_fract_z
_atom_type_partial_charge
C0 C 0.19726 0.04802 0.20679 0.0
C1 C 0.19301 0.08939 0.2858 0.0
C2 C 0.20964 0.08658 0.36911 0.0
C3 C 0.22524 0.03984 0.37504 0.0
C4 C 0.20695 0.98439 0.30318 0.0
C5 C 0.19957 0.99196 0.21575 0.0
O6 O 0.94878 0.03608 0.15485 0.0
Tb7 Tb 0.14318 0.12455 0.0823 0.0
Tb8 Tb 0.91075 0.94471 0.95372 0.0
O9 O 0.20595 0.23256 0.18187 0.0
O10 O 0.83036 0.89036 0.09662 0.0
O11 O 0.28509 0.15689 0.10238 0.0
C12 C 0.87782 1.02426 0.9291 0.0
O13 O 0.08968 1.00972 0.0967 0.0
O14 O 0.10357 1.02637 0.88676 0.0
O15 O 0.21377 0.17058 0.93751 0.0
C16 C 0.20179 0.06709 0.11719 0.0
C17 C 0.88264 0.8055 0.8432 0.0
O18 O 0.95347 0.83683 0.90085 0.0
C19 C 0.85197 0.94371 0.16669 0.0
C20 C 0.20154 0.11824 0.87263 0.0
O21 O 0.84146 0.83407 0.85349 0.0
C22 C 0.93716 0.09019 0.85617 0.0
C23 C 0.94231 0.1661 0.7638 0.0
C24 C 0.88326 0.10766 0.84065 0.0
C25 C 0.04551 0.12925 0.79419 0.0
C26 C 0.09362 0.17702 0.71298 0.0
C27 C 0.04954 0.20241 0.70219 0.0
C28 C 0.15885 0.25648 0.19328 0.0
O29 O 0.08549 0.22257 0.13648 0.0
O30 O 0.80559 0.93773 0.90263 0.0
O31 O 0.95881 0.05945 0.97834 0.0
H32 H 0.18009 0.12569 0.28193 0.0
H33 H 0.23956 0.03949 0.44043 0.0
H34 H 0.19354 0.9541 0.15676 0.0
H35 H 0.79608 0.07499 0.88573 0.0
H36 H 0.07798 0.10784 0.80049 0.0
H37 H 0.08536 0.23805 0.63801 0.0
C38 C 0.77371 0.31187 0.51836 0.0
C39 C 0.69927 0.3036 0.59439 0.0
C40 C 0.66364 0.26549 0.67856 0.0
C41 C 0.67996 0.2187 0.68278 0.0
C42 C 0.75659 0.22751 0.60854 0.0
C43 C 0.80598 0.27576 0.52552 0.0
O44 O 0.60088 0.36112 0.48439 0.0
Tb45 Tb 0.79526 0.44873 0.41402 0.0
Tb46 Tb 0.57936 0.27545 0.28965 0.0
O47 O 0.85462 0.55371 0.51857 0.0
O48 O 0.49713 0.21911 0.43204 0.0
O49 O 0.90551 0.45913 0.46012 0.0
C50 C 0.54204 0.35056 0.26208 0.0
O51 O 0.74479 0.33258 0.39281 0.0
O52 O 0.77328 0.36344 0.21723 0.0
O53 O 0.87952 0.50605 0.27177 0.0
C54 C 0.82943 0.37081 0.4397 0.0
C55 C 0.56915 0.14795 0.17143 0.0
O56 O 0.64226 0.18123 0.22806 0.0
C57 C 0.51003 0.27028 0.49973 0.0
C58 C 0.86537 0.45474 0.20325 0.0
O59 O 0.51958 0.17035 0.18544 0.0
C60 C 0.59098 0.4028 0.17943 0.0
C61 C 0.60493 0.48317 0.08547 0.0
C62 C 0.56299 0.44188 0.17159 0.0
C63 C 0.65442 0.40188 0.10166 0.0
C64 C 0.6842 0.43469 1.01582 0.0
C65 C 0.66954 0.48215 1.00927 0.0
C66 C 0.80557 0.57654 0.53203 0.0
O67 O 0.73343 0.54378 0.47477 0.0
O68 O 0.46315 0.2609 0.24786 0.0
O69 O 0.63156 0.39245 0.30567 0.0
H70 H 0.68711 0.34076 0.59276 0.0
H71 H 0.6545 0.19119 0.74963 0.0
H72 H 0.87293 0.28897 0.46991 0.0
H73 H 0.50541 0.43668 0.22963 0.0
H74 H 0.66616 0.36471 0.10527 0.0
H75 H 0.69007 0.50535 0.94123 0.0
C76 C 0.45721 0.65135 0.8496 0.0
C77 C 0.36002 0.62342 0.91754 0.0
C78 C 0.3102 0.57417 0.99803 0.0
C79 C 0.34799 0.54352 1.00679 0.0
C80 C 0.44629 0.57107 0.94056 0.0
C81 C 0.50291 0.62628 0.86132 0.0
O82 O 0.27921 0.70207 0.81814 0.0
Tb83 Tb 0.47189 0.78591 0.74664 0.0
Tb84 Tb 0.23566 0.60287 0.6237 0.0
O85 O 0.53967 0.89612 0.84645 0.0
O86 O 0.17118 0.5583 0.7681 0.0
O87 O 0.58589 0.79965 0.79354 0.0
C88 C 0.17198 0.65809 0.59399 0.0
O89 O 0.42646 0.6724 0.7253 0.0
O90 O 0.42852 0.69144 0.54647 0.0
O91 O 0.54642 0.83739 0.60332 0.0
C92 C 0.51195 0.71177 0.77234 0.0
C93 C 0.21903 0.47077 0.51227 0.0
O94 O 0.29283 0.50492 0.56877 0.0
C95 C 0.18402 0.61062 0.83346 0.0
C96 C 0.52423 0.78358 0.53367 0.0
O97 O 0.17188 0.49468 0.52397 0.0
C98 C 0.17339 0.67685 0.50593 0.0
C99 C 0.16527 0.74317 0.4124 0.0
C100 C 0.17279 0.73433 0.49893 0.0
C101 C 0.17656 0.63584 0.42581 0.0
C102 C 0.16083 0.64058 0.34329 0.0
C103 C 0.1449 0.68746 0.33963 0.0
C104 C 0.49585 0.92275 0.85772 0.0
O105 O 0.42323 0.89 0.80095 0.0
O106 O 0.09041 0.56855 0.60794 0.0
O107 O 0.28551 0.71636 0.61232 0.0
H108 H 0.3337 0.64996 0.91289 0.0
H109 H 0.31262 0.50822 0.07109 0.0
H110 H 0.58175 0.65033 0.81115 0.0
H111 H 0.18093 0.77269 0.5585 0.0
H112 H 0.19023 0.59971 0.42778 0.0
H113 H 0.13142 0.68934 0.2747 0.0
C114 C 0.23644 0.23215 0.55599 0.0
C115 C 0.14221 0.16335 0.62853 0.0
H116 H 0.33151 0.26103 0.41338 0.0
C117 C 0.07205 0.07132 0.61353 0.0
H118 H 0.28924 0.30286 0.5658 0.0
C119 C 0.09371 0.04776 0.5282 0.0
C120 C 0.18733 0.11565 0.45579 0.0
H121 H 0.99442 1.0151 0.6661 0.0
H122 H 0.03563 0.97539 0.51839 0.0
C123 C 0.25907 0.20816 0.46922 0.0
C124 C 0.57116 0.25055 0.84409 0.0
C125 C 0.66135 0.30688 0.7638 0.0
H126 H 0.51114 0.24871 0.98915 0.0
C127 C 0.76538 0.4063 0.76828 0.0
H128 H 0.49209 0.17403 0.84186 0.0
C129 C 0.77812 0.44895 0.852 0.0
C130 C 0.68736 0.39268 0.93206 0.0
H131 H 0.83893 0.45129 0.70744 0.0
H132 H 0.85717 0.52549 0.85413 0.0
C133 C 0.5841 0.29334 0.92802 0.0
C134 C 0.32093 0.67294 0.10186 0.0
C135 C 0.25531 0.58278 0.08235 0.0
H136 H 0.34388 0.76116 0.2011 0.0
C137 C 0.15566 0.5092 0.1501 0.0
H138 H 0.40201 0.7323 0.0529 0.0
C139 C 0.12332 0.52669 0.23703 0.0
C140 C 0.1904 0.61739 0.25519 0.0
H141 H 0.10578 0.43964 0.13655 0.0
H142 H 0.04721 0.47031 0.28943 0.0
C143 C 0.28914 0.69003 0.18732 0.0
C144 C 0.26019 0.86162 0.30289 0.0
C145 C 0.18552 0.81226 0.39003 0.0
H146 H 0.31732 0.94847 0.20402 0.0
C147 C 0.11625 0.81841 0.44625 0.0
H148 H 0.31627 0.85909 0.25799 0.0
C149 C 0.11627 0.86883 0.41441 0.0
C150 C 0.19007 0.91756 0.32692 0.0
H151 H 0.05998 0.78257 0.51344 0.0
H152 H 0.0599 0.87112 0.45928 0.0
C153 C 0.26049 0.91225 0.27109 0.0
C154 C 0.24601 0.38512 0.42302 0.0
C155 C 0.20011 0.41364 0.43181 0.0
H156 H 0.27028 0.31431 0.34124 0.0
C157 C 0.1427 0.39137 0.36051 0.0
H158 H 0.29094 0.40103 0.47643 0.0
C159 C 0.13157 0.34199 0.28257 0.0
C160 C 0.17753 0.31351 0.27377 0.0
H161 H 0.10752 0.41297 0.36429 0.0
H162 H 0.08665 0.32607 0.22915 0.0
C163 C 0.23496 0.3358 0.34507 0.0
C164 C 0.71867 0.92342 0.42335 0.0
C165 C 0.60863 0.82513 0.43999 0.0
H166 H 0.88128 0.03755 0.32471 0.0
C167 C 0.5782 0.76559 0.36539 0.0
H168 H 0.74499 0.97129 0.47889 0.0
C169 C 0.6562 0.80343 0.27653 0.0
C170 C 0.76644 0.90176 0.25998 0.0
H171 H 0.49359 0.6893 0.37536 0.0
H172 H 0.63002 0.75562 0.22097 0.0
C173 C 0.79664 0.96124 0.33455 0.0
C174 C 0.92507 0.28726 0.66943 0.0
C175 C 0.81132 0.21117 0.63353 0.0
H176 H 0.05193 0.33162 0.74396 0.0
C177 C 0.73396 0.11852 0.649 0.0
H178 H 0.98223 0.3587 0.66295 0.0
C179 C 0.77206 0.10271 0.6975 0.0
C180 C 0.88553 0.17902 0.73392 0.0
H181 H 0.64306 0.05855 0.62525 0.0
H182 H 0.71532 0.03146 0.704 0.0
C183 C 0.96196 0.27143 0.71895 0.0
C184 C 0.87742 0.65449 0.68621 0.0
C185 C 0.82459 0.63433 0.61246 0.0
H186 H 0.93459 0.72208 0.8168 0.0
C187 C 0.78822 0.6694 0.61644 0.0
H188 H 0.90616 0.62862 0.68598 0.0
C189 C 0.80533 0.72375 0.69126 0.0
C190 C 0.85785 0.74378 0.76515 0.0
H191 H 0.74783 0.65596 0.56081 0.0
H192 H 0.77902 0.75118 0.6904 0.0
C193 C 0.8934 0.70811 0.76149 0.0
C194 C 0.44513 0.2876 0.66342 0.0
C195 C 0.43026 0.23013 0.59488 0.0
H196 H 0.38666 0.29828 0.80456 0.0
C197 C 0.34431 0.1371 0.62007 0.0
H198 H 0.51158 0.36013 0.64702 0.0
C199 C 0.27221 0.10158 0.71079 0.0
C200 C 0.28566 0.15868 0.77879 0.0
H201 H 0.33317 0.09183 0.57008 0.0
H202 H 0.20524 1.02895 0.72738 0.0
C203 C 0.37409 0.25245 0.75422 0.0
C204 C 0.44393 0.43423 0.0263 0.0
C205 C 0.55736 0.5061 0.06278 0.0
H206 H 0.3234 0.39951 0.95386 0.0
C207 C 0.64099 0.60092 0.04989 0.0
H208 H 0.38165 0.36107 0.03103 0.0
C209 C 0.60949 0.62315 1.00343 0.0
C210 C 0.49635 0.55112 0.96645 0.0
H211 H 0.73161 0.65762 0.07407 0.0
H212 H 0.67103 0.6961 0.99913 0.0
C213 C 0.41345 0.45644 0.97892 0.0
C214 C 0.48068 1.01701 0.94183 0.0
C215 C 0.51918 0.98329 0.93648 0.0
H216 H 0.46482 0.09417 0.01942 0.0
C217 C 0.57323 1.00394 1.00951 0.0
H218 H 0.43824 1.00247 0.88719 0.0
C219 C 0.58902 0.05707 0.08519 0.0
C220 C 0.54999 0.09038 0.09078 0.0
H221 H 0.60181 0.97793 1.00903 0.0
H222 H 0.63086 0.0712 0.14005 0.0
C223 C 0.49548 0.06952 1.01795 0.0
C224 C 0.11404 0.62723 0.99573 0.0
C225 C 0.09966 0.56997 0.92716 0.0
H226 H 0.05097 0.63607 0.13598 0.0
C227 C 1.00808 0.47521 0.95049 0.0
H228 H 0.1838 0.70073 0.9802 0.0
C229 C 0.93366 0.43883 0.04032 0.0
C230 C 0.94852 0.49614 0.10921 0.0
H231 H 0.99473 0.42925 0.89972 0.0
H232 H 0.86431 0.36537 0.05561 0.0
C233 C 0.03885 0.59057 0.08555 0.0
loop_
_geom_bond_atom_site_label_1
_geom_bond_atom_site_label_2
_geom_bond_distance
_geom_bond_site_symmetry_2
_ccdc_geom_bond_type
C0 C1 1.386 . S
C0 C5 1.384 1_545 S
C0 C16 1.497 . S
C1 C0 1.386 . S
C1 C2 1.393 1_545 S
C1 H32 0.932 . S
C2 C1 1.393 1_565 S
C2 C3 1.387 . S
C3 C2 1.387 . S
C3 C4 1.392 . S
C3 H33 0.930 . S
C4 C3 1.392 . S
C4 C5 1.402 . S
C5 C0 1.384 1_565 S
C5 C4 1.402 . S
C5 H34 0.930 . S
O6 Tb7 2.288 1_665 S
O6 C19 1.257 . S
Tb7 O6 2.288 1_445 S
Tb7 O9 2.303 . S
Tb7 O11 2.430 . S
Tb7 O13 2.459 . S
Tb7 O15 2.301 1_554 S
Tb7 C16 2.808 . S
Tb8 O10 2.301 1_556 S
Tb8 C12 2.808 . S
Tb8 O14 2.286 1_665 S
Tb8 O21 2.303 . S
Tb8 O30 2.430 . S
Tb8 O31 2.459 . S
O9 Tb7 2.303 . S
O9 C28 1.255 . S
O10 Tb8 2.301 1_554 S
O10 C19 1.237 . S
O11 Tb7 2.430 . S
O11 C16 1.248 . S
C12 Tb8 2.808 . S
C12 C22 1.497 . S
C12 O30 1.248 . S
C12 O31 1.260 . S
O13 Tb7 2.459 . S
O13 C16 1.260 . S
O14 Tb8 2.286 1_445 S
O14 C20 1.258 . S
O15 Tb7 2.301 1_556 S
O15 C20 1.237 . S
C16 C0 1.497 . S
C16 Tb7 2.808 . S
C16 O11 1.248 . S
C16 O13 1.260 . S
C17 O18 1.255 . S
C17 O21 1.255 . S
O18 C17 1.255 . S
C19 O6 1.257 . S
C19 O10 1.237 . S
C20 O14 1.258 . S
C20 O15 1.237 . S
O21 Tb8 2.303 . S
O21 C17 1.255 . S
C22 C12 1.497 . S
C22 C24 1.384 1_565 S
C22 C25 1.386 . S
C23 C24 1.402 . S
C23 C27 1.392 . S
C24 C22 1.384 1_545 S
C24 C23 1.402 . S
C24 H35 0.930 . S
C25 C22 1.386 . S
C25 C26 1.393 1_565 S
C25 H36 0.932 . S
C26 C25 1.393 1_545 S
C26 C27 1.387 . S
C27 C23 1.392 . S
C27 C26 1.387 . S
C27 H37 0.930 . S
C28 O9 1.255 . S
C28 O29 1.255 . S
O29 C28 1.255 . S
O30 Tb8 2.430 . S
O30 C12 1.248 . S
O31 Tb8 2.459 . S
O31 C12 1.260 . S
H32 C1 0.932 . S
H33 C3 0.930 . S
H34 C5 0.930 . S
H35 C24 0.930 . S
H36 C25 0.932 . S
H37 C27 0.930 . S
C38 C39 1.386 . S
C38 C43 1.384 . S
C38 C54 1.497 . S
C39 C38 1.386 . S
C39 C40 1.393 . S
C39 H70 0.932 . S
C40 C39 1.393 . S
C40 C41 1.387 . S
C41 C40 1.387 . S
C41 C42 1.392 . S
C41 H71 0.930 . S
C42 C41 1.392 . S
C42 C43 1.402 . S
C43 C38 1.384 . S
C43 C42 1.402 . S
C43 H72 0.930 . S
O44 Tb45 2.288 . S
O44 C57 1.257 . S
Tb45 O44 2.288 . S
Tb45 O47 2.303 . S
Tb45 O49 2.430 . S
Tb45 O51 2.459 . S
Tb45 O53 2.301 . S
Tb45 C54 2.808 . S
Tb46 O48 2.301 . S
Tb46 C50 2.808 . S
Tb46 O52 2.288 . S
Tb46 O59 2.303 . S
Tb46 O68 2.430 . S
Tb46 O69 2.459 . S
O47 Tb45 2.303 . S
O47 C66 1.255 . S
O48 Tb46 2.301 . S
O48 C57 1.237 . S
O49 Tb45 2.430 . S
O49 C54 1.248 . S
C50 Tb46 2.808 . S
C50 C60 1.497 . S
C50 O68 1.248 . S
C50 O69 1.260 . S
O51 Tb45 2.459 . S
O51 C54 1.260 . S
O52 Tb46 2.288 . S
O52 C58 1.257 . S
O53 Tb45 2.301 . S
O53 C58 1.237 . S
C54 C38 1.497 . S
C54 Tb45 2.808 . S
C54 O49 1.248 . S
C54 O51 1.260 . S
C55 O56 1.255 . S
C55 O59 1.255 . S
O56 C55 1.255 . S
C57 O44 1.257 . S
C57 O48 1.237 . S
C58 O52 1.257 . S
C58 O53 1.237 . S
O59 Tb46 2.303 . S
O59 C55 1.255 . S
C60 C50 1.497 . S
C60 C62 1.384 . S
C60 C63 1.386 . S
C61 C62 1.402 . S
C61 C65 1.392 . S
C62 C60 1.384 . S
C62 C61 1.402 . S
C62 H73 0.930 . S
C63 C60 1.386 . S
C63 C64 1.393 1_554 S
C63 H74 0.932 . S
C64 C63 1.393 1_556 S
C64 C65 1.387 1_556 S
C65 C61 1.392 . S
C65 C64 1.387 1_554 S
C65 H75 0.930 1_554 S
C66 O47 1.255 . S
C66 O67 1.255 . S
O67 C66 1.255 . S
O68 Tb46 2.430 . S
O68 C50 1.248 . S
O69 Tb46 2.459 . S
O69 C50 1.260 . S
H70 C39 0.932 . S
H71 C41 0.930 . S
H72 C43 0.930 . S
H73 C62 0.930 . S
H74 C63 0.932 . S
H75 C65 0.930 1_556 S
C76 C77 1.386 . S
C76 C81 1.384 . S
C76 C92 1.497 . S
C77 C76 1.386 . S
C77 C78 1.393 1_556 S
C77 H108 0.932 . S
C78 C77 1.393 1_554 S
C78 C79 1.387 1_554 S
C79 C78 1.387 1_556 S
C79 C80 1.392 . S
C79 H109 0.930 1_556 S
C80 C79 1.392 . S
C80 C81 1.402 . S
C81 C76 1.384 . S
C81 C80 1.402 . S
C81 H110 0.930 . S
O82 Tb83 2.288 . S
O82 C95 1.257 . S
Tb83 O82 2.288 . S
Tb83 O85 2.303 . S
Tb83 O87 2.430 . S
Tb83 O89 2.459 . S
Tb83 O91 2.301 . S
Tb83 C92 2.808 . S
Tb84 O86 2.301 . S
Tb84 C88 2.808 . S
Tb84 O90 2.288 . S
Tb84 O97 2.303 . S
Tb84 O106 2.430 . S
Tb84 O107 2.459 . S
O85 Tb83 2.303 . S
O85 C104 1.255 . S
O86 Tb84 2.301 . S
O86 C95 1.237 . S
O87 Tb83 2.430 . S
O87 C92 1.248 . S
C88 Tb84 2.808 . S
C88 C98 1.497 . S
C88 O106 1.248 . S
C88 O107 1.260 . S
O89 Tb83 2.459 . S
O89 C92 1.260 . S
O90 Tb84 2.288 . S
O90 C96 1.257 . S
O91 Tb83 2.301 . S
O91 C96 1.237 . S
C92 C76 1.497 . S
C92 Tb83 2.808 . S
C92 O87 1.248 . S
C92 O89 1.260 . S
C93 O94 1.255 . S
C93 O97 1.255 . S
O94 C93 1.255 . S
C95 O82 1.257 . S
C95 O86 1.237 . S
C96 O90 1.257 . S
C96 O91 1.237 . S
O97 Tb84 2.303 . S
O97 C93 1.255 . S
C98 C88 1.497 . S
C98 C100 1.384 . S
C98 C101 1.386 . S
C99 C100 1.402 . S
C99 C103 1.392 . S
C100 C98 1.384 . S
C100 C99 1.402 . S
C100 H111 0.930 . S
C101 C98 1.386 . S
C101 C102 1.393 . S
C101 H112 0.932 . S
C102 C101 1.393 . S
C102 C103 1.387 . S
C103 C99 1.392 . S
C103 C102 1.387 . S
C103 H113 0.930 . S
C104 O85 1.255 . S
C104 O105 1.255 . S
O105 C104 1.255 . S
O106 Tb84 2.430 . S
O106 C88 1.248 . S
O107 Tb84 2.459 . S
O107 C88 1.260 . S
H108 C77 0.932 . S
H109 C79 0.930 1_554 S
H110 C81 0.930 . S
H111 C100 0.930 . S
H112 C101 0.932 . S
H113 C103 0.930 . S
C114 C115 1.387 1_455 S
C114 H118 0.950 . S
C114 C123 1.390 . S
C115 C114 1.387 1_655 S
C115 C117 1.390 1_545 S
H116 C123 0.950 . S
C117 C115 1.390 1_565 S
C117 C119 1.390 . S
C117 H121 0.950 . S
H118 C114 0.950 . S
C119 C117 1.390 . S
C119 C120 1.387 1_665 S
C119 H122 0.950 . S
C120 C119 1.387 1_445 S
C120 C123 1.390 . S
H121 C117 0.950 . S
H122 C119 0.950 . S
C123 C114 1.390 . S
C123 H116 0.950 . S
C123 C120 1.390 . S
C124 C125 1.387 . S
C124 H128 0.950 . S
C124 C133 1.390 . S
C125 C124 1.387 . S
C125 C127 1.387 . S
H126 C133 0.950 . S
C127 C125 1.387 . S
C127 C129 1.390 . S
C127 H131 0.950 . S
H128 C124 0.950 . S
C129 C127 1.390 . S
C129 C130 1.387 . S
C129 H132 0.950 . S
C130 C129 1.387 . S
C130 C133 1.387 . S
H131 C127 0.950 . S
H132 C129 0.950 . S
C133 C124 1.390 . S
C133 H126 0.950 . S
C133 C130 1.387 . S
C134 C135 1.387 . S
C134 H138 0.950 . S
C134 C143 1.390 . S
C135 C134 1.387 . S
C135 C137 1.387 . S
H136 C143 0.950 . S
C137 C135 1.387 . S
C137 C139 1.390 . S
C137 H141 0.950 . S
H138 C134 0.950 . S
C139 C137 1.390 . S
C139 C140 1.387 . S
C139 H142 0.950 . S
C140 C139 1.387 . S
C140 C143 1.387 . S
H141 C137 0.950 . S
H142 C139 0.950 . S
C143 C134 1.390 . S
C143 H136 0.950 . S
C143 C140 1.387 . S
C144 C145 1.387 . S
C144 H148 0.950 . S
C144 C153 1.390 . S
C145 C144 1.387 . S
C145 C147 1.387 . S
H146 C153 0.950 . S
C147 C145 1.387 . S
C147 C149 1.390 . S
C147 H151 0.950 . S
H148 C144 0.950 . S
C149 C147 1.390 . S
C149 C150 1.387 . S
C149 H152 0.950 . S
C150 C149 1.387 . S
C150 C153 1.387 . S
H151 C147 0.950 . S
H152 C149 0.950 . S
C153 C144 1.390 . S
C153 H146 0.950 . S
C153 C150 1.387 . S
C154 C155 1.387 . S
C154 H158 0.950 . S
C154 C163 1.390 . S
C155 C154 1.387 . S
C155 C157 1.387 . S
H156 C163 0.950 . S
C157 C155 1.387 . S
C157 C159 1.390 . S
C157 H161 0.950 . S
H158 C154 0.950 . S
C159 C157 1.390 . S
C159 C160 1.387 . S
C159 H162 0.950 . S
C160 C159 1.387 . S
C160 C163 1.387 . S
H161 C157 0.950 . S
H162 C159 0.950 . S
C163 C154 1.390 . S
C163 H156 0.950 . S
C163 C160 1.387 . S
C164 C165 1.387 . S
C164 H168 0.950 . S
C164 C173 1.390 . S
C165 C164 1.387 . S
C165 C167 1.387 . S
H166 C173 0.950 . S
C167 C165 1.387 . S
C167 C169 1.390 . S
C167 H171 0.950 . S
H168 C164 0.950 . S
C169 C167 1.390 . S
C169 C170 1.387 . S
C169 H172 0.950 . S
C170 C169 1.387 . S
C170 C173 1.387 . S
H171 C167 0.950 . S
H172 C169 0.950 . S
C173 C164 1.390 . S
C173 H166 0.950 . S
C173 C170 1.387 . S
C174 C175 1.387 . S
C174 H178 0.950 . S
C174 C183 1.390 . S
C175 C174 1.387 . S
C175 C177 1.387 . S
H176 C183 0.950 . S
C177 C175 1.387 . S
C177 C179 1.390 . S
C177 H181 0.950 . S
H178 C174 0.950 . S
C179 C177 1.390 . S
C179 C180 1.387 . S
C179 H182 0.950 . S
C180 C179 1.387 . S
C180 C183 1.387 . S
H181 C177 0.950 . S
H182 C179 0.950 . S
C183 C174 1.390 . S
C183 H176 0.950 . S
C183 C180 1.387 . S
C184 C185 1.387 . S
C184 H188 0.950 . S
C184 C193 1.390 . S
C185 C184 1.387 . S
C185 C187 1.387 . S
H186 C193 0.950 . S
C187 C185 1.387 . S
C187 C189 1.390 . S
C187 H191 0.950 . S
H188 C184 0.950 . S
C189 C187 1.390 . S
C189 C190 1.387 . S
C189 H192 0.950 . S
C190 C189 1.387 . S
C190 C193 1.387 . S
H191 C187 0.950 . S
H192 C189 0.950 . S
C193 C184 1.390 . S
C193 H186 0.950 . S
C193 C190 1.387 . S
C194 C195 1.387 . S
C194 H198 0.950 . S
C194 C203 1.390 . S
C195 C194 1.387 . S
C195 C197 1.387 . S
H196 C203 0.950 . S
C197 C195 1.387 . S
C197 C199 1.390 . S
C197 H201 0.950 . S
H198 C194 0.950 . S
C199 C197 1.390 . S
C199 C200 1.387 . S
C199 H202 0.950 . S
C200 C199 1.387 . S
C200 C203 1.387 . S
H201 C197 0.950 . S
H202 C199 0.950 . S
C203 C194 1.390 . S
C203 H196 0.950 . S
C203 C200 1.387 . S
C204 C205 1.387 . S
C204 H208 0.950 . S
C204 C213 1.390 1_554 S
C205 C204 1.387 . S
C205 C207 1.387 . S
H206 C213 0.950 . S
C207 C205 1.387 . S
C207 C209 1.390 1_554 S
C207 H211 0.950 . S
H208 C204 0.950 . S
C209 C207 1.390 1_556 S
C209 C210 1.387 . S
C209 H212 0.950 . S
C210 C209 1.387 . S
C210 C213 1.387 . S
H211 C207 0.950 . S
H212 C209 0.950 . S
C213 C204 1.390 1_556 S
C213 H206 0.950 . S
C213 C210 1.387 . S
C214 C215 1.387 1_545 S
C214 H218 0.950 . S
C214 C223 1.390 . S
C215 C214 1.387 1_565 S
C215 C217 1.387 1_556 S
H216 C223 0.950 . S
C217 C215 1.387 1_554 S
C217 C219 1.390 . S
C217 H221 0.950 . S
H218 C214 0.950 . S
C219 C217 1.390 . S
C219 C220 1.387 1_565 S
C219 H222 0.950 . S
C220 C219 1.387 1_545 S
C220 C223 1.387 1_554 S
H221 C217 0.950 . S
H222 C219 0.950 . S
C223 C214 1.390 . S
C223 H216 0.950 . S
C223 C220 1.387 1_556 S
C224 C225 1.387 1_655 S
C224 H228 0.950 . S
C224 C233 1.390 1_556 S
C225 C224 1.387 1_455 S
C225 C227 1.387 . S
H226 C233 0.950 . S
C227 C225 1.387 . S
C227 C229 1.390 1_556 S
C227 H231 0.950 . S
H228 C224 0.950 . S
C229 C227 1.390 1_554 S
C229 C230 1.387 1_455 S
C229 H232 0.950 . S
C230 C229 1.387 1_655 S
C230 C233 1.387 . S
H231 C227 0.950 . S
H232 C229 0.950 . S
C233 C224 1.390 1_554 S
C233 H226 0.950 . S
C233 C230 1.387 . S
C115 C26 1.478 . S
C120 C2 1.478 1_545 S
C125 C40 1.474 . S
C130 C64 1.474 . S
C135 C78 1.479 . S
C140 C102 1.479 . S
C145 C99 2.216 . S
C150 C4 2.216 . S
C155 C93 1.499 . S
C160 C28 1.497 . S
C165 C96 1.780 . S
C170 C19 1.779 . S
C175 C42 2.215 . S
C180 C23 2.215 . S
C185 C66 1.500 . S
C190 C17 1.502 . S
C195 C57 1.778 . S
C200 C20 1.779 . S
C205 C61 2.214 . S
C210 C80 2.214 . S
C215 C104 1.496 . S
C220 C55 1.496 . S
C225 C95 1.780 . S
C230 C58 1.780 . S
