# Generated by pormake.
# Topology unj, (4)-cn, num edge types: 1
# Building blocks:
#     Node 0, Type 0, BuildingBlock: CEKHIL_clean_sbu_0, # of connection points: 4
#     Node 1, Type 0, BuildingBlock: CEKHIL_clean_sbu_0, # of connection points: 4
#     Node 2, Type 0, BuildingBlock: CEKHIL_clean_sbu_0, # of connection points: 4
#     Node 3, Type 0, BuildingBlock: CEKHIL_clean_sbu_0, # of connection points: 4
#     Node 4, Type 0, BuildingBlock: CEKHIL_clean_sbu_0, # of connection points: 4
#     Node 5, Type 0, BuildingBlock: CEKHIL_clean_sbu_0, # of connection points: 4
#     Edge 6, Type (0, 0), None
#     Edge 7, Type (0, 0), None
#     Edge 8, Type (0, 0), None
#     Edge 9, Type (0, 0), None
#     Edge 10, Type (0, 0), None
#     Edge 11, Type (0, 0), None
#     Edge 12, Type (0, 0), None
#     Edge 13, Type (0, 0), None
#     Edge 14, Type (0, 0), None
#     Edge 15, Type (0, 0), None
#     Edge 16, Type (0, 0), None
#     Edge 17, Type (0, 0), None
# Relax obj value: 0.025
# Max RMSD: 0.076
# Mean RMSD: 0.076
data_MOF--net-unj--node1-CEKHIL_clean_sbu_0--edge1-none
_symmetry_space_group_name_H-M    P1
_symmetry_Int_Tables_number       1
_symmetry_cell_setting            triclinic
loop_
_symmetry_equiv_pos_as_xyz
'x, y, z'
_cell_length_a     13.805695
_cell_length_b     13.80752
_cell_length_c     16.472255
_cell_angle_alpha  89.999882
_cell_angle_beta   89.99984
_cell_angle_gamma 120.00742
loop_
_atom_site_label
_atom_site_type_symbol
_atom_site_fract_x
_atom_site_fract_y
_atom_site_fract_z
_atom_type_partial_charge
Co0 Co 0.56761 0.33021 0.56853 0.0
O1 O 0.60611 0.47711 0.60287 0.0
O2 O 0.44213 0.32653 0.62687 0.0
C3 C 0.63094 0.38041 0.44097 0.0
O4 O 0.4983 0.16493 0.53607 0.0
Co5 Co 0.76111 0.28965 0.51646 0.0
O6 O 0.6356 0.14875 0.47456 0.0
C7 C 0.71309 0.29186 0.68991 0.0
C8 C 0.50631 0.43463 0.63248 0.0
C9 C 0.53357 0.10926 0.49468 0.0
O10 O 0.63019 0.30625 0.6728 0.0
O11 O 0.77767 0.28644 0.63681 0.0
O12 O 0.5314 0.35974 0.46059 0.0
O13 O 0.69287 0.38091 0.49988 0.0
Co14 Co 0.28195 0.54536 0.73519 0.0
O15 O 0.17354 0.58385 0.76953 0.0
O16 O 0.16013 0.4199 0.79352 0.0
C17 C 0.2951 0.6087 0.60763 0.0
O18 O 0.37793 0.47606 0.70273 0.0
Co19 Co 0.51607 0.73882 0.68312 0.0
O20 O 0.53143 0.61331 0.64123 0.0
C21 C 0.46579 0.69085 0.85657 0.0
C22 C 0.11621 0.48407 0.79913 0.0
C23 C 0.46887 0.5113 0.66135 0.0
O24 O 0.36849 0.60794 0.83946 0.0
O25 O 0.5358 0.75541 0.80347 0.0
O26 O 0.2162 0.50917 0.62724 0.0
O27 O 0.35654 0.67061 0.66654 0.0
Co28 Co 0.7811 0.25967 0.90187 0.0
O29 O 0.63419 0.15123 0.93622 0.0
O30 O 0.78479 0.1379 0.96021 0.0
C31 C 0.73089 0.27278 0.77431 0.0
O32 O 0.9464 0.35568 0.86941 0.0
Co33 Co 0.82169 0.49372 0.84978 0.0
O34 O 0.9626 0.50913 0.80788 0.0
C35 C 0.81943 0.44349 0.02323 0.0
C36 C 0.67668 0.09394 0.96582 0.0
C37 C 1.00208 0.44661 0.82801 0.0
O38 O 0.80505 0.34621 0.00613 0.0
O39 O 0.82485 0.51348 0.97013 0.0
O40 O 0.75155 0.19392 0.79392 0.0
O41 O 0.73039 0.3342 0.83321 0.0
Co42 Co 0.56599 0.75886 0.06853 0.0
O43 O 0.52749 0.61196 0.10287 0.0
O44 O 0.69146 0.76254 0.12688 0.0
C45 C 0.50268 0.70867 0.94097 0.0
O46 O 0.63529 0.92415 0.03608 0.0
Co47 Co 0.37248 0.79941 0.01645 0.0
O48 O 0.498 0.94033 0.97457 0.0
C49 C 0.4205 0.7972 0.18991 0.0
C50 C 0.62728 0.65444 0.13248 0.0
C51 C 0.60002 0.97982 -0.00531 0.0
O52 O 0.5034 0.78281 0.17279 0.0
O53 O 0.35592 0.80262 0.1368 0.0
O54 O 0.60221 0.72933 0.96059 0.0
O55 O 0.44073 0.70816 -0.00013 0.0
Co56 Co 0.85165 0.54372 0.23518 0.0
O57 O 0.96006 0.50523 0.26952 0.0
O58 O 0.97346 0.66917 0.29352 0.0
C59 C 0.8385 0.48039 0.10763 0.0
O60 O 0.75567 0.61302 0.20274 0.0
Co61 Co 0.61753 0.35026 0.18312 0.0
O62 O 0.60216 0.47577 0.14124 0.0
C63 C 0.66783 0.39821 0.35657 0.0
C64 C 1.01739 0.60501 0.29913 0.0
C65 C 0.66473 0.57777 0.16135 0.0
O66 O 0.76511 0.48114 0.33946 0.0
O67 O 0.5978 0.33365 0.30347 0.0
O68 O 0.9174 0.57992 0.12724 0.0
O69 O 0.77706 0.41847 0.16654 0.0
Co70 Co 0.35249 0.82941 0.40186 0.0
O71 O 0.49941 0.93785 0.4362 0.0
O72 O 0.3488 0.95118 0.4602 0.0
C73 C 0.40269 0.81629 0.2743 0.0
O74 O 0.18719 0.73339 0.36941 0.0
Co75 Co 0.3119 0.59535 0.34979 0.0
O76 O 0.17099 0.57994 0.30789 0.0
C77 C 0.3142 0.64561 0.52324 0.0
C78 C 0.45691 0.99514 0.46579 0.0
C79 C 0.13151 0.64247 0.32801 0.0
O80 O 0.32855 0.74288 0.50613 0.0
O81 O 0.30875 0.57561 0.47013 0.0
O82 O 0.38203 0.89515 0.29391 0.0
O83 O 0.40319 0.75487 0.33321 0.0
loop_
_geom_bond_atom_site_label_1
_geom_bond_atom_site_label_2
_geom_bond_distance
_geom_bond_site_symmetry_2
_ccdc_geom_bond_type
Co0 O1 2.216 . S
Co0 O2 2.091 . S
Co0 O4 2.004 . S
Co0 O10 2.021 . S
Co0 O12 2.137 . S
Co0 O13 2.244 . S
O1 Co0 2.216 . S
O1 C8 1.247 . S
O2 Co0 2.091 . S
O2 C8 1.261 . S
C3 O12 1.247 . S
C3 O13 1.272 . S
O4 Co0 2.004 . S
O4 C9 1.259 . S
Co5 O6 2.061 . S
Co5 O11 2.052 . S
Co5 O13 2.135 . S
O6 Co5 2.061 . S
O6 C9 1.235 . S
C7 O10 1.238 . S
C7 O11 1.241 . S
C8 O1 1.247 . S
C8 O2 1.261 . S
C9 O4 1.259 . S
C9 O6 1.235 . S
O10 Co0 2.021 . S
O10 C7 1.238 . S
O11 Co5 2.052 . S
O11 C7 1.241 . S
O12 Co0 2.137 . S
O12 C3 1.247 . S
O13 Co0 2.244 . S
O13 C3 1.272 . S
O13 Co5 2.135 . S
Co14 O15 2.216 . S
Co14 O16 2.091 . S
Co14 O18 2.004 . S
Co14 O24 2.021 . S
Co14 O26 2.137 . S
Co14 O27 2.244 . S
O15 Co14 2.216 . S
O15 C22 1.247 . S
O16 Co14 2.091 . S
O16 C22 1.261 . S
C17 O26 1.247 . S
C17 O27 1.272 . S
O18 Co14 2.004 . S
O18 C23 1.259 . S
Co19 O20 2.061 . S
Co19 O25 2.052 . S
Co19 O27 2.135 . S
O20 Co19 2.061 . S
O20 C23 1.235 . S
C21 O24 1.238 . S
C21 O25 1.241 . S
C22 O15 1.247 . S
C22 O16 1.261 . S
C23 O18 1.259 . S
C23 O20 1.235 . S
O24 Co14 2.021 . S
O24 C21 1.238 . S
O25 Co19 2.052 . S
O25 C21 1.241 . S
O26 Co14 2.137 . S
O26 C17 1.247 . S
O27 Co14 2.244 . S
O27 C17 1.272 . S
O27 Co19 2.135 . S
Co28 O29 2.216 . S
Co28 O30 2.091 . S
Co28 O32 2.004 . S
Co28 O38 2.021 1_556 S
Co28 O40 2.137 . S
Co28 O41 2.244 . S
O29 Co28 2.216 . S
O29 C36 1.247 . S
O30 Co28 2.091 . S
O30 C36 1.261 . S
C31 O40 1.247 . S
C31 O41 1.272 . S
O32 Co28 2.004 . S
O32 C37 1.259 . S
Co33 O34 2.061 . S
Co33 O39 2.052 . S
Co33 O41 2.135 . S
O34 Co33 2.061 . S
O34 C37 1.235 . S
C35 O38 1.238 . S
C35 O39 1.241 1_554 S
C36 O29 1.247 . S
C36 O30 1.261 . S
C37 O32 1.259 . S
C37 O34 1.235 . S
O38 Co28 2.021 1_554 S
O38 C35 1.238 . S
O39 Co33 2.052 . S
O39 C35 1.241 1_556 S
O40 Co28 2.137 . S
O40 C31 1.247 . S
O41 Co28 2.244 . S
O41 C31 1.272 . S
O41 Co33 2.135 . S
Co42 O43 2.216 . S
Co42 O44 2.091 . S
Co42 O46 2.004 . S
Co42 O52 2.021 . S
Co42 O54 2.137 1_554 S
Co42 O55 2.244 . S
O43 Co42 2.216 . S
O43 C50 1.247 . S
O44 Co42 2.091 . S
O44 C50 1.261 . S
C45 O54 1.247 . S
C45 O55 1.272 1_556 S
O46 Co42 2.004 . S
O46 C51 1.259 . S
Co47 O48 2.061 . S
Co47 O53 2.052 . S
Co47 O55 2.135 . S
O48 Co47 2.061 . S
O48 C51 1.235 . S
C49 O52 1.238 . S
C49 O53 1.241 . S
C50 O43 1.247 . S
C50 O44 1.261 . S
C51 O46 1.259 . S
C51 O48 1.235 . S
O52 Co42 2.021 . S
O52 C49 1.238 . S
O53 Co47 2.052 . S
O53 C49 1.241 . S
O54 Co42 2.137 1_556 S
O54 C45 1.247 . S
O55 Co42 2.244 . S
O55 C45 1.272 1_554 S
O55 Co47 2.135 . S
Co56 O57 2.216 . S
Co56 O58 2.091 . S
Co56 O60 2.004 . S
Co56 O66 2.021 . S
Co56 O68 2.137 . S
Co56 O69 2.244 . S
O57 Co56 2.216 . S
O57 C64 1.247 . S
O58 Co56 2.091 . S
O58 C64 1.261 . S
C59 O68 1.247 . S
C59 O69 1.272 . S
O60 Co56 2.004 . S
O60 C65 1.259 . S
Co61 O62 2.061 . S
Co61 O67 2.052 . S
Co61 O69 2.135 . S
O62 Co61 2.061 . S
O62 C65 1.235 . S
C63 O66 1.238 . S
C63 O67 1.241 . S
C64 O57 1.247 . S
C64 O58 1.261 . S
C65 O60 1.259 . S
C65 O62 1.235 . S
O66 Co56 2.021 . S
O66 C63 1.238 . S
O67 Co61 2.052 . S
O67 C63 1.241 . S
O68 Co56 2.137 . S
O68 C59 1.247 . S
O69 Co56 2.244 . S
O69 C59 1.272 . S
O69 Co61 2.135 . S
Co70 O71 2.216 . S
Co70 O72 2.091 . S
Co70 O74 2.004 . S
Co70 O80 2.021 . S
Co70 O82 2.137 . S
Co70 O83 2.244 . S
O71 Co70 2.216 . S
O71 C78 1.247 . S
O72 Co70 2.091 . S
O72 C78 1.261 . S
C73 O82 1.247 . S
C73 O83 1.272 . S
O74 Co70 2.004 . S
O74 C79 1.259 . S
Co75 O76 2.061 . S
Co75 O81 2.052 . S
Co75 O83 2.135 . S
O76 Co75 2.061 . S
O76 C79 1.235 . S
C77 O80 1.238 . S
C77 O81 1.241 . S
C78 O71 1.247 . S
C78 O72 1.261 . S
C79 O74 1.259 . S
C79 O76 1.235 . S
O80 Co70 2.021 . S
O80 C77 1.238 . S
O81 Co75 2.052 . S
O81 C77 1.241 . S
O82 Co70 2.137 . S
O82 C73 1.247 . S
O83 Co70 2.244 . S
O83 C73 1.272 . S
O83 Co75 2.135 . S
C9 C78 1.615 1_545 S
C8 C23 1.614 . S
C37 C22 1.614 1_655 S
C51 C36 1.615 1_564 S
C65 C50 1.614 . S
C79 C64 1.614 1_455 S
C3 C63 1.413 . S
C77 C17 1.414 . S
C31 C7 1.413 . S
C21 C45 1.413 . S
C35 C59 1.414 . S
C73 C49 1.413 . S
