# Generated by pormake.
# Topology sxc, (6)-cn, num edge types: 1
# Building blocks:
#     Node 0, Type 0, BuildingBlock: JUFBIX_clean_sbu_0, # of connection points: 6
#     Node 1, Type 0, BuildingBlock: JUFBIX_clean_sbu_0, # of connection points: 6
#     Node 2, Type 0, BuildingBlock: JUFBIX_clean_sbu_0, # of connection points: 6
#     Edge 3, Type (0, 0), BuildingBlock: AJUNOK_clean_linker_0, # of connection points: 2
#     Edge 4, Type (0, 0), BuildingBlock: AJUNOK_clean_linker_0, # of connection points: 2
#     Edge 5, Type (0, 0), BuildingBlock: AJUNOK_clean_linker_0, # of connection points: 2
#     Edge 6, Type (0, 0), BuildingBlock: AJUNOK_clean_linker_0, # of connection points: 2
#     Edge 7, Type (0, 0), BuildingBlock: AJUNOK_clean_linker_0, # of connection points: 2
#     Edge 8, Type (0, 0), BuildingBlock: AJUNOK_clean_linker_0, # of connection points: 2
#     Edge 9, Type (0, 0), BuildingBlock: AJUNOK_clean_linker_0, # of connection points: 2
#     Edge 10, Type (0, 0), BuildingBlock: AJUNOK_clean_linker_0, # of connection points: 2
#     Edge 11, Type (0, 0), BuildingBlock: AJUNOK_clean_linker_0, # of connection points: 2
# Relax obj value: 0.698
# Max RMSD: 0.153
# Mean RMSD: 0.152
data_MOF--net-sxc--node1-JUFBIX_clean_sbu_0--edge1-AJUNOK_clean_linker_0
_symmetry_space_group_name_H-M    P1
_symmetry_Int_Tables_number       1
_symmetry_cell_setting            triclinic
loop_
_symmetry_equiv_pos_as_xyz
'x, y, z'
_cell_length_a     11.197112
_cell_length_b     11.311536
_cell_length_c     32.693802
_cell_angle_alpha  90.979623
_cell_angle_beta   91.465012
_cell_angle_gamma 119.13737
loop_
_atom_site_label
_atom_site_type_symbol
_atom_site_fract_x
_atom_site_fract_y
_atom_site_fract_z
_atom_type_partial_charge
Co0 Co 0.25581 1.05125 1.00267 0.0
C1 C 0.1926 1.07513 0.92343 0.0
Co2 Co 1.12138 0.13638 0.99933 0.0
C3 C 0.35215 0.89107 0.03527 0.0
C4 C 0.47056 0.99144 0.98437 0.0
N5 N 0.37684 0.98943 0.00965 0.0
N6 N 0.39423 0.80689 0.02037 0.0
C7 C 0.48538 0.88008 0.99208 0.0
H8 H 0.26931 0.85901 0.05627 0.0
H9 H 0.50573 1.05325 0.95777 0.0
C10 C 0.18474 0.11433 0.07861 0.0
N11 N 0.99743 0.19373 0.99267 0.0
C12 C 1.01318 0.29393 0.96904 0.0
C13 C 0.87983 0.15684 0.01181 0.0
N14 N 0.92848 0.34224 0.9789 0.0
C15 C 0.83453 0.24642 1.00227 0.0
C16 C 0.96473 0.84838 1.00169 0.0
O17 O 0.25765 1.07353 0.06076 0.0
O18 O 1.11153 0.14794 0.05695 0.0
O19 O 0.96141 0.95779 0.99834 0.0
O20 O 1.08493 0.8595 1.0045 0.0
O21 O 1.12932 0.12676 0.94145 0.0
H22 H 0.83858 1.08031 0.03464 0.0
H23 H 1.1064 0.35064 0.95263 0.0
O24 O 0.25565 1.02901 0.9448 0.0
O25 O 0.41615 0.2291 1.00024 0.0
O26 O 0.29155 0.32827 1.00095 0.0
C27 C 0.41191 0.33908 1.00054 0.0
H28 H 0.52956 0.83862 0.97097 0.0
H29 H 0.75766 0.2576 0.01873 0.0
Co30 Co 0.29988 0.17164 0.33549 0.0
C31 C 0.18536 0.11105 0.25659 0.0
Co32 Co 1.07562 1.05164 0.33316 0.0
C33 C 0.55861 0.33419 0.37498 0.0
C34 C 0.57509 0.24673 0.31843 0.0
N35 N 0.48819 0.27001 0.33995 0.0
N36 N 0.67627 0.33063 0.3797 0.0
C37 C 0.69092 0.28555 0.3425 0.0
H38 H 0.51394 0.35919 0.40024 0.0
H39 H 0.54724 0.18409 0.29069 0.0
C40 C 0.18429 0.11318 0.41231 0.0
N41 N 0.88365 0.94764 0.3348 0.0
C42 C 0.82173 1.01641 0.34773 0.0
C43 C 0.82964 0.83646 0.35831 0.0
N44 N 0.75912 0.97128 0.38316 0.0
C45 C 0.75818 0.85425 0.38929 0.0
C46 C 0.19682 0.88197 0.33354 0.0
O47 O 0.29445 0.17523 0.39386 0.0
O48 O 1.07513 1.04849 0.39118 0.0
O49 O 1.08386 0.88296 0.33103 0.0
O50 O 0.30593 0.99726 0.33635 0.0
O51 O 1.07341 1.05382 0.27527 0.0
H52 H 0.86362 0.76211 0.35927 0.0
H53 H 0.84423 0.11299 0.33619 0.0
O54 O 0.29911 0.16642 0.27714 0.0
O55 O 0.2992 0.34174 0.33425 0.0
O56 O 1.07727 0.2328 0.33466 0.0
C57 C 0.18843 0.34656 0.33401 0.0
H58 H 0.76478 0.25398 0.33596 0.0
H59 H 0.72676 0.79712 0.41692 0.0
Co60 Co 1.14808 0.98315 0.66476 0.0
C61 C 0.18046 1.09281 0.58989 0.0
Co62 Co 0.23247 0.19938 0.67094 0.0
C63 C 0.99363 0.72447 0.69048 0.0
C64 C 1.07633 0.71572 0.63342 0.0
N65 N 1.08595 0.80106 0.66405 0.0
N66 N 0.90147 0.6051 0.67314 0.0
C67 C 0.96392 0.59203 0.63979 0.0
H68 H 0.96966 0.77049 0.716 0.0
H69 H 1.12985 0.7464 0.60516 0.0
C70 C 0.20342 1.09216 0.74586 0.0
N71 N 0.28698 0.37804 0.67224 0.0
C72 C 0.3777 0.46663 0.64777 0.0
C73 C 0.2495 0.45083 0.69654 0.0
N74 N 0.41902 0.59553 0.66016 0.0
C75 C 0.32894 0.58537 0.68844 0.0
C76 C 0.94488 1.06896 0.66929 0.0
O77 O 0.16521 0.9866 0.72349 0.0
O78 O 0.23696 0.20274 0.72874 0.0
O79 O 1.05447 0.18018 0.67047 0.0
O80 O 0.95567 0.96093 0.66728 0.0
O81 O 0.22934 0.19946 0.61246 0.0
H82 H 0.17828 0.41015 0.72089 0.0
H83 H 0.43402 0.43722 0.6273 0.0
O84 O 1.13245 0.97952 0.60674 0.0
O85 O 0.32668 1.00291 0.66156 0.0
O86 O 0.42406 0.22202 0.67192 0.0
C87 C 0.43586 0.11511 0.66642 0.0
H88 H 0.91342 0.51339 0.61614 0.0
H89 H 0.33842 0.66879 0.70761 0.0
C90 C 1.07993 0.56995 0.96201 0.0
C91 C 1.00217 0.48101 0.99207 0.0
C92 C 0.21741 0.66148 0.96992 0.0
C93 C 0.27929 0.67799 0.00943 0.0
H94 H 1.04061 0.55243 0.93058 0.0
H95 H 0.27372 0.72495 0.94519 0.0
S96 S 1.10422 0.50428 0.10229 0.0
N97 N 0.98496 0.43906 0.06524 0.0
N98 N 0.24454 0.61456 0.08029 0.0
C99 C 0.19743 0.60011 0.04077 0.0
C100 C 1.05696 0.50795 0.03271 0.0
C101 C 0.843 0.30398 0.42098 0.0
C102 C 0.70847 0.28091 0.41645 0.0
C103 C 0.86606 0.19297 0.41849 0.0
C104 C 0.75377 1.06047 0.41366 0.0
H105 H 0.92753 0.40406 0.41639 0.0
H106 H 0.96832 0.21185 0.41246 0.0
S107 S 0.39904 0.959 0.43861 0.0
N108 N 0.47696 0.12602 0.43711 0.0
N109 N 0.51669 0.9155 0.42881 0.0
C110 C 0.62702 1.04008 0.42531 0.0
C111 C 0.606 0.15364 0.42928 0.0
C112 C 0.73551 0.64108 0.6333 0.0
C113 C 0.76944 0.59581 0.66961 0.0
C114 C 0.63934 0.68523 0.63274 0.0
C115 C 0.5632 0.6727 0.66735 0.0
H116 H 0.78724 0.64749 0.60524 0.0
H117 H 0.60524 0.70296 0.60331 0.0
S118 S 0.64261 0.6055 0.77243 0.0
N119 N 0.73996 0.57162 0.7428 0.0
N120 N 0.56038 0.65795 0.74157 0.0
C121 C 0.6125 0.6514 0.70503 0.0
C122 C 0.7069 0.60201 0.70563 0.0
C123 C 0.70415 1.005 0.64089 0.0
C124 C 0.81147 1.07417 0.67036 0.0
C125 C 0.58582 1.02112 0.63957 0.0
C126 C 0.57086 0.11296 0.66627 0.0
H127 H 0.7139 0.94187 0.61758 0.0
H128 H 0.50555 0.96207 0.61678 0.0
S129 S 0.8254 0.32573 0.74795 0.0
N130 N 0.89494 0.24161 0.72655 0.0
N131 N 0.67771 0.27567 0.72285 0.0
C132 C 0.67951 0.18631 0.69498 0.0
C133 C 0.79813 0.16684 0.69709 0.0
C134 C 0.78847 0.60386 0.97549 0.0
C135 C 0.82685 0.71504 1.0032 0.0
C136 C 0.65559 0.48621 0.97465 0.0
C137 C 0.54907 0.47355 1.00016 0.0
H138 H 0.86022 0.60915 0.9532 0.0
H139 H 0.6354 0.40423 0.95309 0.0
S140 S 0.59428 0.73275 0.07953 0.0
N141 N 0.74388 0.80083 0.05776 0.0
N142 N 0.49774 0.58496 0.05547 0.0
C143 C 0.58559 0.58461 0.02772 0.0
C144 C 0.72183 0.7032 0.02914 0.0
C145 C 1.07623 0.49726 0.34118 0.0
C146 C 0.19214 0.48397 0.33299 0.0
C147 C 1.07881 0.62434 0.34152 0.0
C148 C 0.19827 0.7472 0.33339 0.0
H149 H 0.98244 0.40805 0.34765 0.0
H150 H 0.98552 0.62581 0.34845 0.0
S151 S 0.52608 0.76932 0.30364 0.0
N152 N 0.42829 0.6073 0.31256 0.0
N153 N 0.43332 0.84313 0.31311 0.0
C154 C 0.31447 0.73534 0.32399 0.0
C155 C 0.31148 0.60558 0.32371 0.0
C156 C 0.29531 0.12479 0.18993 0.0
C157 C 0.18334 0.11433 0.2113 0.0
C158 C 0.29493 0.12545 0.14706 0.0
C159 C 0.18386 0.11865 0.1239 0.0
H160 H 0.38308 0.13007 0.20641 0.0
H161 H 0.38274 0.13166 0.13196 0.0
S162 S 0.86754 1.09511 0.16511 0.0
N163 N 0.95912 0.09947 0.20609 0.0
N164 N 0.95981 0.10346 0.12556 0.0
C165 C 1.07232 0.11088 0.14488 0.0
C166 C 1.07162 0.1078 0.18854 0.0
C167 C 1.08583 0.99683 0.47712 0.0
C168 C 0.1829 0.11228 0.45751 0.0
C169 C 1.0862 0.99082 0.51996 0.0
C170 C 0.18173 0.10125 0.54473 0.0
H171 H 1.01073 0.90931 0.45921 0.0
H172 H 1.01047 0.89936 0.53376 0.0
S173 S 0.45374 0.42925 0.50826 0.0
N174 N 0.37428 0.34075 0.46601 0.0
N175 N 0.37494 0.33025 0.54635 0.0
C176 C 0.27773 0.21822 0.52543 0.0
C177 C 0.27831 0.22355 0.48186 0.0
C178 C 0.19555 0.18625 0.81469 0.0
C179 C 0.20394 1.08565 0.79107 0.0
C180 C 0.19089 0.18085 0.8574 0.0
C181 C 0.19739 1.07627 0.87829 0.0
H182 H 0.19019 0.26888 0.80006 0.0
H183 H 0.18349 0.26026 0.87424 0.0
S184 S 0.22142 0.78872 0.83098 0.0
N185 N 0.21824 0.87764 0.79181 0.0
N186 N 0.2131 0.86992 0.87235 0.0
C187 C 0.20762 0.97588 0.85522 0.0
C188 C 0.20972 0.97983 0.81156 0.0
loop_
_geom_bond_atom_site_label_1
_geom_bond_atom_site_label_2
_geom_bond_distance
_geom_bond_site_symmetry_2
_ccdc_geom_bond_type
Co0 N5 2.057 1_554 S
Co0 O17 2.021 . S
Co0 O20 2.062 1_455 S
Co0 O24 2.117 1_554 S
Co0 O25 2.020 1_565 S
C1 O21 1.259 1_455 S
C1 O24 1.258 1_545 S
Co2 N11 2.057 1_556 S
Co2 O18 2.117 1_556 S
Co2 O19 2.021 1_545 S
Co2 O21 2.021 . S
Co2 O26 2.062 1_655 S
C3 N5 1.316 1_554 S
C3 N6 1.347 1_554 S
C3 H8 0.931 . S
C4 N5 1.375 . S
C4 C7 1.350 . S
C4 H9 0.930 . S
N5 Co0 2.057 1_556 S
N5 C3 1.316 1_556 S
N5 C4 1.375 . S
N6 C3 1.347 1_556 S
N6 C7 1.373 . S
C7 C4 1.350 . S
C7 N6 1.373 . S
C7 H28 0.931 . S
H8 C3 0.931 . S
H9 C4 0.930 . S
C10 O17 1.259 1_545 S
C10 O18 1.258 1_455 S
N11 Co2 2.057 1_554 S
N11 C12 1.316 1_554 S
N11 C13 1.375 . S
C12 N11 1.316 1_556 S
C12 N14 1.347 1_556 S
C12 H23 0.931 . S
C13 N11 1.375 . S
C13 C15 1.350 . S
C13 H22 0.930 . S
N14 C12 1.347 1_554 S
N14 C15 1.373 . S
C15 C13 1.350 . S
C15 N14 1.373 . S
C15 H29 0.931 . S
C16 O19 1.253 1_554 S
C16 O20 1.255 . S
O17 Co0 2.021 . S
O17 C10 1.259 1_565 S
O18 Co2 2.117 1_554 S
O18 C10 1.258 1_655 S
O19 Co2 2.021 1_565 S
O19 C16 1.253 1_556 S
O20 Co0 2.062 1_655 S
O20 C16 1.255 . S
O21 C1 1.259 1_655 S
O21 Co2 2.021 . S
H22 C13 0.930 . S
H23 C12 0.931 . S
O24 Co0 2.117 1_556 S
O24 C1 1.258 1_565 S
O25 Co0 2.020 1_545 S
O25 C27 1.254 1_554 S
O26 Co2 2.062 1_455 S
O26 C27 1.256 . S
C27 O25 1.254 1_556 S
C27 O26 1.256 . S
H28 C7 0.931 . S
H29 C15 0.931 . S
Co30 N35 2.057 . S
Co30 O47 2.021 . S
Co30 O50 2.062 1_545 S
Co30 O54 2.117 . S
Co30 O55 2.020 . S
C31 O51 1.259 1_445 S
C31 O54 1.258 . S
Co32 N41 2.057 . S
Co32 O48 2.117 . S
Co32 O49 2.020 . S
Co32 O51 2.021 . S
Co32 O56 2.062 1_565 S
C33 N35 1.316 . S
C33 N36 1.347 . S
C33 H38 0.931 . S
C34 N35 1.375 . S
C34 C37 1.350 . S
C34 H39 0.930 . S
N35 Co30 2.057 . S
N35 C33 1.316 . S
N35 C34 1.375 . S
N36 C33 1.347 . S
N36 C37 1.373 . S
C37 C34 1.350 . S
C37 N36 1.373 . S
C37 H58 0.931 . S
H38 C33 0.931 . S
H39 C34 0.930 . S
C40 O47 1.259 . S
C40 O48 1.258 1_445 S
N41 Co32 2.057 . S
N41 C42 1.316 . S
N41 C43 1.375 . S
C42 N41 1.316 . S
C42 N44 1.347 . S
C42 H53 0.931 . S
C43 N41 1.375 . S
C43 C45 1.350 . S
C43 H52 0.930 . S
N44 C42 1.347 . S
N44 C45 1.373 . S
C45 C43 1.350 . S
C45 N44 1.373 . S
C45 H59 0.931 . S
C46 O49 1.256 1_455 S
C46 O50 1.255 . S
O47 Co30 2.021 . S
O47 C40 1.259 . S
O48 Co32 2.117 . S
O48 C40 1.258 1_665 S
O49 Co32 2.020 . S
O49 C46 1.256 1_655 S
O50 Co30 2.062 1_565 S
O50 C46 1.255 . S
O51 C31 1.259 1_665 S
O51 Co32 2.021 . S
H52 C43 0.930 . S
H53 C42 0.931 . S
O54 Co30 2.117 . S
O54 C31 1.258 . S
O55 Co30 2.020 . S
O55 C57 1.256 . S
O56 Co32 2.062 1_545 S
O56 C57 1.255 1_655 S
C57 O55 1.256 . S
C57 O56 1.255 1_455 S
H58 C37 0.931 . S
H59 C45 0.931 . S
Co60 N65 2.057 . S
Co60 O77 2.021 . S
Co60 O80 2.062 . S
Co60 O84 2.117 . S
Co60 O85 2.020 1_655 S
C61 O81 1.259 . S
C61 O84 1.258 1_445 S
Co62 N71 2.057 . S
Co62 O78 2.117 . S
Co62 O79 2.020 1_455 S
Co62 O81 2.021 . S
Co62 O86 2.062 . S
C63 N65 1.316 . S
C63 N66 1.347 . S
C63 H68 0.931 . S
C64 N65 1.375 . S
C64 C67 1.350 . S
C64 H69 0.930 . S
N65 Co60 2.057 . S
N65 C63 1.316 . S
N65 C64 1.375 . S
N66 C63 1.347 . S
N66 C67 1.373 . S
C67 C64 1.350 . S
C67 N66 1.373 . S
C67 H88 0.931 . S
H68 C63 0.931 . S
H69 C64 0.930 . S
C70 O77 1.259 1_445 S
C70 O78 1.258 . S
N71 Co62 2.057 . S
N71 C72 1.316 . S
N71 C73 1.375 . S
C72 N71 1.316 . S
C72 N74 1.347 . S
C72 H83 0.931 . S
C73 N71 1.375 . S
C73 C75 1.350 . S
C73 H82 0.930 . S
N74 C72 1.347 . S
N74 C75 1.373 . S
C75 C73 1.350 . S
C75 N74 1.373 . S
C75 H89 0.931 . S
C76 O79 1.256 . S
C76 O80 1.255 1_545 S
O77 Co60 2.021 . S
O77 C70 1.259 1_665 S
O78 Co62 2.117 . S
O78 C70 1.258 . S
O79 Co62 2.020 1_655 S
O79 C76 1.256 . S
O80 Co60 2.062 . S
O80 C76 1.255 1_565 S
O81 C61 1.259 . S
O81 Co62 2.021 . S
H82 C73 0.930 . S
H83 C72 0.931 . S
O84 Co60 2.117 . S
O84 C61 1.258 1_665 S
O85 Co60 2.020 1_455 S
O85 C87 1.256 . S
O86 Co62 2.062 . S
O86 C87 1.255 1_545 S
C87 O85 1.256 . S
C87 O86 1.255 1_565 S
H88 C67 0.931 . S
H89 C75 0.931 . S
C90 C91 1.369 1_556 S
C90 C92 1.419 1_655 S
C90 H94 0.930 . S
C91 C90 1.369 1_554 S
C91 C100 1.429 1_655 S
C92 C90 1.419 1_455 S
C92 C93 1.363 1_556 S
C92 H95 0.929 . S
C93 C92 1.363 1_554 S
C93 C99 1.428 . S
H94 C90 0.930 . S
H95 C92 0.929 . S
S96 N97 1.613 . S
S96 N98 1.610 . S
N97 S96 1.613 . S
N97 C100 1.350 . S
N98 S96 1.610 . S
N98 C99 1.351 . S
C99 C93 1.428 . S
C99 N98 1.351 . S
C99 C100 1.434 . S
C100 C91 1.429 1_455 S
C100 N97 1.350 . S
C100 C99 1.434 . S
C101 C102 1.369 . S
C101 C103 1.419 . S
C101 H105 0.930 . S
C102 C101 1.369 . S
C102 C111 1.429 . S
C103 C101 1.419 . S
C103 C104 1.363 1_545 S
C103 H106 0.929 . S
C104 C103 1.363 1_565 S
C104 C110 1.428 . S
H105 C101 0.930 . S
H106 C103 0.929 . S
S107 N108 1.613 1_565 S
S107 N109 1.610 . S
N108 S107 1.613 1_545 S
N108 C111 1.350 . S
N109 S107 1.610 . S
N109 C110 1.351 . S
C110 C104 1.428 . S
C110 N109 1.351 . S
C110 C111 1.434 1_565 S
C111 C102 1.429 . S
C111 N108 1.350 . S
C111 C110 1.434 1_545 S
C112 C113 1.369 . S
C112 C114 1.419 . S
C112 H116 0.930 . S
C113 C112 1.369 . S
C113 C122 1.429 . S
C114 C112 1.419 . S
C114 C115 1.363 . S
C114 H117 0.929 . S
C115 C114 1.363 . S
C115 C121 1.428 . S
H116 C112 0.930 . S
H117 C114 0.929 . S
S118 N119 1.613 . S
S118 N120 1.610 . S
N119 S118 1.613 . S
N119 C122 1.350 . S
N120 S118 1.610 . S
N120 C121 1.351 . S
C121 C115 1.428 . S
C121 N120 1.351 . S
C121 C122 1.434 . S
C122 C113 1.429 . S
C122 N119 1.350 . S
C122 C121 1.434 . S
C123 C124 1.369 1_565 S
C123 C125 1.419 . S
C123 H127 0.930 . S
C124 C123 1.369 1_545 S
C124 C133 1.429 . S
C125 C123 1.419 . S
C125 C126 1.363 . S
C125 H128 0.929 . S
C126 C125 1.363 . S
C126 C132 1.428 1_565 S
H127 C123 0.930 . S
H128 C125 0.929 . S
S129 N130 1.613 . S
S129 N131 1.610 . S
N130 S129 1.613 . S
N130 C133 1.350 . S
N131 S129 1.610 . S
N131 C132 1.351 . S
C132 C126 1.428 1_545 S
C132 N131 1.351 . S
C132 C133 1.434 . S
C133 C124 1.429 . S
C133 N130 1.350 . S
C133 C132 1.434 . S
C134 C135 1.390 . S
C134 C136 1.419 . S
C134 H138 0.930 . S
C135 C134 1.390 . S
C135 C144 1.409 1_554 S
C136 C134 1.419 . S
C136 C137 1.367 . S
C136 H139 0.929 . S
C137 C136 1.367 . S
C137 C143 1.424 1_554 S
H138 C134 0.930 . S
H139 C136 0.929 . S
S140 N141 1.613 . S
S140 N142 1.610 . S
N141 S140 1.613 . S
N141 C144 1.350 . S
N142 S140 1.610 . S
N142 C143 1.351 . S
C143 C137 1.424 1_556 S
C143 N142 1.351 . S
C143 C144 1.434 . S
C144 C135 1.409 1_556 S
C144 N141 1.350 . S
C144 C143 1.434 . S
C145 C146 1.369 . S
C145 C147 1.419 1_455 S
C145 H149 0.930 1_455 S
C146 C145 1.369 . S
C146 C155 1.429 . S
C147 C145 1.419 1_655 S
C147 C148 1.363 1_655 S
C147 H150 0.929 . S
C148 C147 1.363 1_455 S
C148 C154 1.428 . S
H149 C145 0.930 1_655 S
H150 C147 0.929 . S
S151 N152 1.613 . S
S151 N153 1.610 . S
N152 S151 1.613 . S
N152 C155 1.350 . S
N153 S151 1.610 . S
N153 C154 1.351 . S
C154 C148 1.428 . S
C154 N153 1.351 . S
C154 C155 1.434 . S
C155 C146 1.429 . S
C155 N152 1.350 . S
C155 C154 1.434 . S
C156 C157 1.369 . S
C156 C158 1.419 . S
C156 H160 0.930 . S
C157 C156 1.369 . S
C157 C166 1.429 1_445 S
C158 C156 1.419 . S
C158 C159 1.363 . S
C158 H161 0.929 . S
C159 C158 1.363 . S
C159 C165 1.428 1_445 S
H160 C156 0.930 . S
H161 C158 0.929 . S
S162 N163 1.613 . S
S162 N164 1.610 . S
N163 S162 1.613 . S
N163 C166 1.350 . S
N164 S162 1.610 . S
N164 C165 1.351 . S
C165 C159 1.428 1_665 S
C165 N164 1.351 . S
C165 C166 1.434 . S
C166 C157 1.429 1_665 S
C166 N163 1.350 . S
C166 C165 1.434 . S
C167 C168 1.369 1_655 S
C167 C169 1.419 . S
C167 H171 0.930 . S
C168 C167 1.369 1_455 S
C168 C177 1.429 1_545 S
C169 C167 1.419 . S
C169 C170 1.363 1_655 S
C169 H172 0.929 . S
C170 C169 1.363 1_455 S
C170 C176 1.428 1_545 S
H171 C167 0.930 . S
H172 C169 0.929 . S
S173 N174 1.613 . S
S173 N175 1.610 . S
N174 S173 1.613 . S
N174 C177 1.350 . S
N175 S173 1.610 . S
N175 C176 1.351 . S
C176 C170 1.428 1_565 S
C176 N175 1.351 . S
C176 C177 1.434 . S
C177 C168 1.429 1_565 S
C177 N174 1.350 . S
C177 C176 1.434 . S
C178 C179 1.369 1_655 S
C178 C180 1.419 . S
C178 H182 0.930 . S
C179 C178 1.369 1_455 S
C179 C188 1.429 1_545 S
C180 C178 1.419 . S
C180 C181 1.363 1_655 S
C180 H183 0.929 . S
C181 C180 1.363 1_455 S
C181 C187 1.428 1_545 S
H182 C178 0.930 . S
H183 C180 0.929 . S
S184 N185 1.613 . S
S184 N186 1.610 . S
N185 S184 1.613 . S
N185 C188 1.350 . S
N186 S184 1.610 . S
N186 C187 1.351 . S
C187 C181 1.428 1_565 S
C187 N186 1.351 . S
C187 C188 1.434 . S
C188 C179 1.429 1_565 S
C188 N185 1.350 . S
C188 C187 1.434 . S
C91 N14 0.677 . S
C93 N6 0.706 1_554 S
C102 N36 0.691 . S
C104 N44 0.705 . S
C113 N66 0.708 . S
C115 N74 0.682 . S
C124 C76 2.826 . S
C126 C87 2.825 . S
C135 C16 2.825 . S
C137 C27 2.824 1_554 S
C146 C57 2.825 . S
C148 C46 2.824 . S
C157 C31 1.496 . S
C159 C10 1.496 . S
C168 C40 1.500 . S
C170 C61 1.498 . S
C179 C70 1.496 . S
C181 C1 1.500 . S
