# Generated by pormake.
# Topology rkf, (6)-cn, num edge types: 1
# Building blocks:
#     Node 0, Type 0, BuildingBlock: BETDEL_clean_sbu_0, # of connection points: 6
#     Node 1, Type 0, BuildingBlock: BETDEL_clean_sbu_0, # of connection points: 6
#     Node 2, Type 0, BuildingBlock: BETDEL_clean_sbu_0, # of connection points: 6
#     Node 3, Type 0, BuildingBlock: BETDEL_clean_sbu_0, # of connection points: 6
#     Node 4, Type 0, BuildingBlock: BETDEL_clean_sbu_0, # of connection points: 6
#     Node 5, Type 0, BuildingBlock: BETDEL_clean_sbu_0, # of connection points: 6
#     Edge 6, Type (0, 0), None
#     Edge 7, Type (0, 0), None
#     Edge 8, Type (0, 0), None
#     Edge 9, Type (0, 0), None
#     Edge 10, Type (0, 0), None
#     Edge 11, Type (0, 0), None
#     Edge 12, Type (0, 0), None
#     Edge 13, Type (0, 0), None
#     Edge 14, Type (0, 0), None
#     Edge 15, Type (0, 0), None
#     Edge 16, Type (0, 0), None
#     Edge 17, Type (0, 0), None
#     Edge 18, Type (0, 0), None
#     Edge 19, Type (0, 0), None
#     Edge 20, Type (0, 0), None
#     Edge 21, Type (0, 0), None
#     Edge 22, Type (0, 0), None
#     Edge 23, Type (0, 0), None
# Relax obj value: 0.572
# Max RMSD: 0.272
# Mean RMSD: 0.272
data_MOF--net-rkf--node1-BETDEL_clean_sbu_0--edge1-none
_symmetry_space_group_name_H-M    P1
_symmetry_Int_Tables_number       1
_symmetry_cell_setting            triclinic
loop_
_symmetry_equiv_pos_as_xyz
'x, y, z'
_cell_length_a     12.374311
_cell_length_b     12.373567
_cell_length_c     18.263498
_cell_angle_alpha  90.012833
_cell_angle_beta   90.006732
_cell_angle_gamma 119.99857
loop_
_atom_site_label
_atom_site_type_symbol
_atom_site_fract_x
_atom_site_fract_y
_atom_site_fract_z
_atom_type_partial_charge
Dy0 Dy 0.13296 0.86871 0.16964 0.0
C1 C 0.31299 0.31947 1.00002 0.0
C2 C 0.01239 0.68131 0.27118 0.0
Dy3 Dy 0.27992 0.12535 1.08967 0.0
O4 O -0.02672 0.6831 0.20558 0.0
O5 O 0.12598 0.77434 0.27666 0.0
O6 O -0.04716 0.85315 0.1331 0.0
O7 O 0.10766 0.02771 0.15093 0.0
C8 C -0.00165 -0.02825 0.12668 0.0
C9 C 0.41879 0.02668 0.13166 0.0
O10 O 0.29387 0.19303 0.20368 0.0
O11 O 0.23776 0.00409 0.26095 0.0
O12 O 0.3661 0.25219 0.99162 0.0
O13 O 0.24645 0.28294 1.05929 0.0
O14 O 0.46296 0.14658 1.12405 0.0
O15 O 0.30787 -0.03355 1.10872 0.0
O16 O 0.13373 0.79786 1.05742 0.0
O17 O 0.17262 -0.01577 1.00252 0.0
C18 C 0.2812 0.12607 0.26288 0.0
C19 C 0.13759 0.86404 0.99923 0.0
Dy20 Dy 0.26378 0.17342 0.503 0.0
C21 C -0.00696 0.35347 0.33335 0.0
C22 C 0.33064 0.05286 0.60455 0.0
Dy23 Dy 0.15412 0.32042 0.42302 0.0
O24 O 0.28971 0.01373 0.53895 0.0
O25 O 0.35122 0.16646 0.61003 0.0
O26 O 0.0992 -0.0067 0.46645 0.0
O27 O 0.0795 0.14815 0.48428 0.0
C28 C 0.02612 0.03882 0.46003 0.0
C29 C 0.39168 0.45927 0.465 0.0
O30 O 0.10044 0.3344 0.53702 0.0
O31 O 0.23324 0.27823 0.59431 0.0
O32 O 0.11342 0.40661 0.32498 0.0
O33 O -0.03695 0.28691 0.39262 0.0
O34 O 0.31597 0.50346 0.4574 0.0
O35 O 0.34096 0.34834 0.44207 0.0
O36 O 0.33533 0.17414 0.39078 0.0
O37 O 0.1879 0.21311 0.33587 0.0
C38 C 0.15472 0.32169 0.59623 0.0
C39 C 0.27305 0.17808 0.33258 0.0
Dy40 Dy 0.09 0.3042 0.83635 0.0
C41 C 0.63915 0.03349 0.66667 0.0
C42 C 0.27727 0.3708 0.93784 0.0
Dy43 Dy 0.83333 0.19457 0.75634 0.0
O44 O 0.27553 0.32985 0.87226 0.0
O45 O 0.18442 0.39162 0.9434 0.0
O46 O 0.10548 0.13961 0.79976 0.0
O47 O -0.06904 0.11992 0.8176 0.0
C48 C -0.01311 0.06654 0.79334 0.0
C49 C -0.06793 0.43214 0.79835 0.0
O50 O 0.7657 0.1409 0.87034 0.0
O51 O -0.04531 0.27364 0.92765 0.0
O52 O 0.70639 0.15388 0.6583 0.0
O53 O 0.67577 0.0035 0.72593 0.0
O54 O 0.81216 0.35643 0.79073 0.0
O55 O -0.00775 0.3814 0.77542 0.0
O56 O 0.16081 0.3758 0.72414 0.0
O57 O -0.02561 0.22839 0.6692 0.0
C58 C 0.8327 0.19516 0.92955 0.0
C59 C 0.09457 0.31354 0.66593 0.0
Dy60 Dy 0.78535 0.13043 0.16966 0.0
C61 C 0.60538 0.67958 0.99999 0.0
C62 C -0.09402 0.31774 0.27116 0.0
Dy63 Dy 0.63843 0.87375 1.08964 0.0
O64 O -0.0548 0.316 0.2056 0.0
O65 O 0.79233 0.22487 0.2767 0.0
O66 O -0.03453 0.14605 0.13311 0.0
O67 O 0.81063 -0.02862 0.15103 0.0
C68 C -0.08003 0.02743 0.12685 0.0
C69 C 0.49953 -0.02764 0.13151 0.0
O70 O 0.62439 0.80614 0.20365 0.0
O71 O 0.68051 -0.00488 0.26094 0.0
O72 O 0.55216 0.74676 0.99162 0.0
O73 O 0.67204 0.71626 1.05924 0.0
O74 O 0.45535 0.85244 1.12399 0.0
O75 O 0.61047 0.03267 1.10864 0.0
O76 O 0.78459 0.20123 1.05744 0.0
O77 O 0.74572 0.01483 1.00253 0.0
C78 C 0.63704 0.87314 0.26285 0.0
C79 C 0.7807 0.135 0.99924 0.0
Dy80 Dy 0.65447 0.82582 0.50298 0.0
C81 C -0.07469 0.64614 0.3333 0.0
C82 C 0.5878 -0.05356 0.60447 0.0
Dy83 Dy 0.76422 0.6789 0.42297 0.0
O84 O 0.62874 -0.01434 0.53891 0.0
O85 O 0.56703 0.83278 0.61 0.0
O86 O 0.81896 0.00596 0.46646 0.0
O87 O 0.83878 0.85111 0.48436 0.0
C88 C -0.10793 -0.03954 0.46019 0.0
C89 C 0.52675 0.54 0.46482 0.0
O90 O 0.8178 0.66481 0.53698 0.0
O91 O 0.685 0.72099 0.59425 0.0
O92 O 0.8049 0.59262 0.32493 0.0
O93 O -0.0446 0.71279 0.39256 0.0
O94 O 0.60247 0.49581 0.4573 0.0
O95 O 0.57736 0.65094 0.44195 0.0
O96 O 0.5829 0.82507 0.39075 0.0
O97 O 0.73038 0.78617 0.33586 0.0
C98 C 0.76349 0.67749 0.59617 0.0
C99 C 0.64521 0.82116 0.33256 0.0
Dy100 Dy 0.82826 0.69488 0.83631 0.0
C101 C 0.27876 -0.03421 0.66667 0.0
C102 C 0.64104 0.62821 0.93779 0.0
Dy103 Dy 0.08494 0.80468 0.75632 0.0
O104 O 0.64272 0.66914 0.87223 0.0
O105 O 0.73392 0.60744 0.94333 0.0
O106 O 0.8126 0.85937 0.79978 0.0
O107 O -0.01273 0.8792 0.8177 0.0
C108 C -0.0688 -0.06752 0.79352 0.0
C109 C -0.01361 0.5672 0.79817 0.0
O110 O 0.15262 0.85826 0.87034 0.0
O111 O -0.03636 0.72543 0.9276 0.0
O112 O 0.21188 0.84536 0.65831 0.0
O113 O 0.24221 -0.00412 0.72592 0.0
O114 O 0.1063 0.64293 0.79066 0.0
O115 O -0.07394 0.61781 0.77529 0.0
O116 O 0.75744 0.62332 0.72406 0.0
O117 O -0.05619 0.77082 0.6692 0.0
C118 C 0.08564 0.80384 0.92951 0.0
C119 C 0.82364 0.68564 0.66588 0.0
loop_
_geom_bond_atom_site_label_1
_geom_bond_atom_site_label_2
_geom_bond_distance
_geom_bond_site_symmetry_2
_ccdc_geom_bond_type
Dy0 O4 2.398 . S
Dy0 O5 2.491 . S
Dy0 O6 2.403 . S
Dy0 O7 2.664 1_564 S
Dy0 O11 2.326 1_565 S
Dy0 O15 2.310 1_565 S
Dy0 O16 2.351 1_554 S
C1 O12 1.185 . S
C1 O13 1.355 . S
C2 O4 1.185 . S
C2 O5 1.355 . S
Dy3 O7 2.310 . S
Dy3 O10 2.351 1_556 S
Dy3 O12 2.398 . S
Dy3 O13 2.491 . S
Dy3 O14 2.403 . S
Dy3 O15 2.664 1_556 S
Dy3 O17 2.326 . S
O4 Dy0 2.398 . S
O4 C2 1.185 . S
O5 Dy0 2.491 . S
O5 C2 1.355 . S
O6 Dy0 2.403 . S
O6 C8 1.254 1_565 S
O7 Dy0 2.664 1_546 S
O7 Dy3 2.310 . S
O7 C8 1.268 1_556 S
C8 O6 1.254 1_545 S
C8 O7 1.268 1_554 S
C9 O14 1.254 1_554 S
C9 O15 1.268 . S
O10 Dy3 2.351 1_554 S
O10 C18 1.249 . S
O11 Dy0 2.326 1_545 S
O11 C18 1.267 . S
O12 C1 1.185 . S
O12 Dy3 2.398 . S
O13 C1 1.355 . S
O13 Dy3 2.491 . S
O14 Dy3 2.403 . S
O14 C9 1.254 1_556 S
O15 Dy0 2.310 1_545 S
O15 Dy3 2.664 1_554 S
O15 C9 1.268 . S
O16 Dy0 2.351 1_556 S
O16 C19 1.249 1_565 S
O17 Dy3 2.326 . S
O17 C19 1.267 . S
C18 O10 1.249 . S
C18 O11 1.267 . S
C19 O16 1.249 1_545 S
C19 O17 1.267 . S
Dy20 O24 2.398 . S
Dy20 O25 2.491 . S
Dy20 O26 2.403 . S
Dy20 O27 2.664 . S
Dy20 O31 2.326 . S
Dy20 O35 2.310 . S
Dy20 O36 2.351 . S
C21 O32 1.185 . S
C21 O33 1.355 . S
C22 O24 1.185 . S
C22 O25 1.355 . S
Dy23 O27 2.310 . S
Dy23 O30 2.351 . S
Dy23 O32 2.398 . S
Dy23 O33 2.491 . S
Dy23 O34 2.403 . S
Dy23 O35 2.664 . S
Dy23 O37 2.326 . S
O24 Dy20 2.398 . S
O24 C22 1.185 . S
O25 Dy20 2.491 . S
O25 C22 1.355 . S
O26 Dy20 2.403 . S
O26 C28 1.254 . S
O27 Dy20 2.664 . S
O27 Dy23 2.310 . S
O27 C28 1.268 . S
C28 O26 1.254 . S
C28 O27 1.268 . S
C29 O34 1.254 . S
C29 O35 1.268 . S
O30 Dy23 2.351 . S
O30 C38 1.249 . S
O31 Dy20 2.326 . S
O31 C38 1.267 . S
O32 C21 1.185 . S
O32 Dy23 2.398 . S
O33 C21 1.355 . S
O33 Dy23 2.491 . S
O34 Dy23 2.403 . S
O34 C29 1.254 . S
O35 Dy20 2.310 . S
O35 Dy23 2.664 . S
O35 C29 1.268 . S
O36 Dy20 2.351 . S
O36 C39 1.249 . S
O37 Dy23 2.326 . S
O37 C39 1.267 . S
C38 O30 1.249 . S
C38 O31 1.267 . S
C39 O36 1.249 . S
C39 O37 1.267 . S
Dy40 O44 2.398 . S
Dy40 O45 2.491 . S
Dy40 O46 2.403 . S
Dy40 O47 2.664 1_455 S
Dy40 O51 2.326 1_455 S
Dy40 O55 2.310 . S
Dy40 O56 2.351 . S
C41 O52 1.185 . S
C41 O53 1.355 . S
C42 O44 1.185 . S
C42 O45 1.355 . S
Dy43 O47 2.310 . S
Dy43 O50 2.351 . S
Dy43 O52 2.398 . S
Dy43 O53 2.491 . S
Dy43 O54 2.403 . S
Dy43 O55 2.664 1_655 S
Dy43 O57 2.326 1_655 S
O44 Dy40 2.398 . S
O44 C42 1.185 . S
O45 Dy40 2.491 . S
O45 C42 1.355 . S
O46 Dy40 2.403 . S
O46 C48 1.254 . S
O47 Dy40 2.664 1_655 S
O47 Dy43 2.310 . S
O47 C48 1.268 1_655 S
C48 O46 1.254 . S
C48 O47 1.268 1_455 S
C49 O54 1.254 . S
C49 O55 1.268 1_655 S
O50 Dy43 2.351 . S
O50 C58 1.249 . S
O51 Dy40 2.326 1_655 S
O51 C58 1.267 . S
O52 C41 1.185 . S
O52 Dy43 2.398 . S
O53 C41 1.355 . S
O53 Dy43 2.491 . S
O54 Dy43 2.403 . S
O54 C49 1.254 . S
O55 Dy40 2.310 . S
O55 Dy43 2.664 1_455 S
O55 C49 1.268 1_455 S
O56 Dy40 2.351 . S
O56 C59 1.249 . S
O57 Dy43 2.326 1_455 S
O57 C59 1.267 . S
C58 O50 1.249 . S
C58 O51 1.267 . S
C59 O56 1.249 . S
C59 O57 1.267 . S
Dy60 O64 2.398 1_655 S
Dy60 O65 2.491 . S
Dy60 O66 2.403 1_655 S
Dy60 O67 2.664 1_544 S
Dy60 O71 2.326 1_545 S
Dy60 O75 2.310 . S
Dy60 O76 2.351 1_554 S
C61 O72 1.185 . S
C61 O73 1.355 . S
C62 O64 1.185 1_655 S
C62 O65 1.355 . S
Dy63 O67 2.310 . S
Dy63 O70 2.351 1_556 S
Dy63 O72 2.398 . S
Dy63 O73 2.491 . S
Dy63 O74 2.403 . S
Dy63 O75 2.664 1_566 S
Dy63 O77 2.326 1_565 S
O64 Dy60 2.398 1_455 S
O64 C62 1.185 1_455 S
O65 Dy60 2.491 . S
O65 C62 1.355 . S
O66 Dy60 2.403 1_455 S
O66 C68 1.254 . S
O67 Dy60 2.664 1_566 S
O67 Dy63 2.310 . S
O67 C68 1.268 1_666 S
C68 O66 1.254 . S
C68 O67 1.268 1_444 S
C69 O74 1.254 1_554 S
C69 O75 1.268 1_565 S
O70 Dy63 2.351 1_554 S
O70 C78 1.249 . S
O71 Dy60 2.326 1_565 S
O71 C78 1.267 . S
O72 C61 1.185 . S
O72 Dy63 2.398 . S
O73 C61 1.355 . S
O73 Dy63 2.491 . S
O74 Dy63 2.403 . S
O74 C69 1.254 1_556 S
O75 Dy60 2.310 . S
O75 Dy63 2.664 1_544 S
O75 C69 1.268 1_545 S
O76 Dy60 2.351 1_556 S
O76 C79 1.249 . S
O77 Dy63 2.326 1_545 S
O77 C79 1.267 . S
C78 O70 1.249 . S
C78 O71 1.267 . S
C79 O76 1.249 . S
C79 O77 1.267 . S
Dy80 O84 2.398 1_565 S
Dy80 O85 2.491 . S
Dy80 O86 2.403 1_665 S
Dy80 O87 2.664 1_655 S
Dy80 O91 2.326 . S
Dy80 O95 2.310 . S
Dy80 O96 2.351 . S
C81 O92 1.185 1_455 S
C81 O93 1.355 . S
C82 O84 1.185 1_565 S
C82 O85 1.355 . S
Dy83 O87 2.310 1_655 S
Dy83 O90 2.351 1_655 S
Dy83 O92 2.398 . S
Dy83 O93 2.491 1_655 S
Dy83 O94 2.403 . S
Dy83 O95 2.664 . S
Dy83 O97 2.326 . S
O84 Dy80 2.398 1_545 S
O84 C82 1.185 1_545 S
O85 Dy80 2.491 . S
O85 C82 1.355 . S
O86 Dy80 2.403 1_445 S
O86 C88 1.254 . S
O87 Dy80 2.664 1_455 S
O87 Dy83 2.310 1_455 S
O87 C88 1.268 1_565 S
C88 O86 1.254 . S
C88 O87 1.268 1_545 S
C89 O94 1.254 . S
C89 O95 1.268 . S
O90 Dy83 2.351 1_455 S
O90 C98 1.249 1_455 S
O91 Dy80 2.326 . S
O91 C98 1.267 . S
O92 C81 1.185 1_655 S
O92 Dy83 2.398 . S
O93 C81 1.355 . S
O93 Dy83 2.491 1_455 S
O94 Dy83 2.403 . S
O94 C89 1.254 . S
O95 Dy80 2.310 . S
O95 Dy83 2.664 . S
O95 C89 1.268 . S
O96 Dy80 2.351 . S
O96 C99 1.249 . S
O97 Dy83 2.326 . S
O97 C99 1.267 . S
C98 O90 1.249 1_655 S
C98 O91 1.267 . S
C99 O96 1.249 . S
C99 O97 1.267 . S
Dy100 O104 2.398 . S
Dy100 O105 2.491 . S
Dy100 O106 2.403 1_565 S
Dy100 O107 2.664 1_665 S
Dy100 O111 2.326 1_655 S
Dy100 O115 2.310 1_655 S
Dy100 O116 2.351 . S
C101 O112 1.185 1_545 S
C101 O113 1.355 . S
C102 O104 1.185 . S
C102 O105 1.355 . S
Dy103 O107 2.310 1_565 S
Dy103 O110 2.351 1_565 S
Dy103 O112 2.398 . S
Dy103 O113 2.491 1_565 S
Dy103 O114 2.403 . S
Dy103 O115 2.664 . S
Dy103 O117 2.326 . S
O104 Dy100 2.398 . S
O104 C102 1.185 . S
O105 Dy100 2.491 . S
O105 C102 1.355 . S
O106 Dy100 2.403 1_545 S
O106 C108 1.254 1_655 S
O107 Dy100 2.664 1_445 S
O107 Dy103 2.310 1_545 S
O107 C108 1.268 . S
C108 O106 1.254 1_455 S
C108 O107 1.268 . S
C109 O114 1.254 . S
C109 O115 1.268 . S
O110 Dy103 2.351 1_545 S
O110 C118 1.249 1_545 S
O111 Dy100 2.326 1_455 S
O111 C118 1.267 . S
O112 C101 1.185 1_565 S
O112 Dy103 2.398 . S
O113 C101 1.355 . S
O113 Dy103 2.491 1_545 S
O114 Dy103 2.403 . S
O114 C109 1.254 . S
O115 Dy100 2.310 1_455 S
O115 Dy103 2.664 . S
O115 C109 1.268 . S
O116 Dy100 2.351 . S
O116 C119 1.249 1_655 S
O117 Dy103 2.326 . S
O117 C119 1.267 . S
C118 O110 1.249 1_565 S
C118 O111 1.267 . S
C119 O116 1.249 1_455 S
C119 O117 1.267 . S
C68 C8 0.450 . S
C88 C28 0.451 . S
C108 C48 0.450 . S
C1 C42 1.921 . S
C21 C62 1.922 1_455 S
C41 C82 1.923 1_545 S
C61 C102 1.921 . S
C81 C2 1.922 . S
C101 C22 1.923 . S
C9 C69 2.542 1_545 S
C29 C89 2.546 . S
C49 C109 2.545 1_655 S
C18 C39 3.034 . S
C38 C59 3.035 . S
C58 C79 3.035 . S
C78 C99 3.035 . S
C98 C119 3.035 1_655 S
C118 C19 3.035 1_565 S
