# Generated by pormake.
# Topology bsn, (6)-cn, num edge types: 1
# Building blocks:
#     Node 0, Type 0, BuildingBlock: LEVNOQ01_clean_sbu_1, # of connection points: 6
#     Node 1, Type 0, BuildingBlock: LEVNOQ01_clean_sbu_1, # of connection points: 6
#     Node 2, Type 0, BuildingBlock: LEVNOQ01_clean_sbu_1, # of connection points: 6
#     Node 3, Type 0, BuildingBlock: LEVNOQ01_clean_sbu_1, # of connection points: 6
#     Edge 4, Type (0, 0), None
#     Edge 5, Type (0, 0), None
#     Edge 6, Type (0, 0), None
#     Edge 7, Type (0, 0), None
#     Edge 8, Type (0, 0), None
#     Edge 9, Type (0, 0), None
#     Edge 10, Type (0, 0), None
#     Edge 11, Type (0, 0), None
#     Edge 12, Type (0, 0), None
#     Edge 13, Type (0, 0), None
#     Edge 14, Type (0, 0), None
#     Edge 15, Type (0, 0), None
# Relax obj value: 0.187
# Max RMSD: 0.194
# Mean RMSD: 0.194
data_MOF--net-bsn--node1-LEVNOQ01_clean_sbu_1--edge1-none
_symmetry_space_group_name_H-M    P1
_symmetry_Int_Tables_number       1
_symmetry_cell_setting            triclinic
loop_
_symmetry_equiv_pos_as_xyz
'x, y, z'
_cell_length_a     14.74536
_cell_length_b     14.612723
_cell_length_c     7.6241513
_cell_angle_alpha  90.006091
_cell_angle_beta   97.773878
_cell_angle_gamma 90.001154
loop_
_atom_site_label
_atom_site_type_symbol
_atom_site_fract_x
_atom_site_fract_y
_atom_site_fract_z
_atom_type_partial_charge
O0 O 0.93539 0.19496 0.62281 0.0
Mg1 Mg 0.9908 0.16013 0.37295 0.0
O2 O 0.07536 0.22769 0.61015 0.0
Mg3 Mg 0.01615 0.20638 0.30577 0.0
O4 O 0.9762 0.03486 0.3177 0.0
O5 O 0.08404 0.05813 0.52351 0.0
O6 O 0.98086 0.20791 -8e-05 0.0
O7 O 0.16087 0.15546 0.2375 0.0
Mg8 Mg 0.15738 0.35286 0.18683 0.0
O9 O 0.0491 0.3588 0.31913 0.0
O10 O 0.09695 0.29599 0.93823 0.0
O11 O 0.24209 0.26575 0.36167 0.0
O12 O 0.12479 0.48367 0.26726 0.0
C13 C 0.81876 0.20515 0.22822 0.0
C14 C 0.01104 0.22201 0.7021 0.0
C15 C 0.02556 0.00144 0.45096 0.0
C16 C 0.02797 0.24483 0.88977 0.0
C17 C 0.2393 0.19211 0.27507 0.0
C18 C 0.06043 0.4457 0.33979 0.0
O19 O 0.86325 0.13542 0.1985 0.0
O20 O 0.86331 0.26522 0.32247 0.0
O21 O 0.10294 0.69494 0.28651 0.0
Mg22 Mg 0.04751 0.66009 0.53632 0.0
O23 O 0.96298 0.72769 0.29919 0.0
Mg24 Mg 0.02218 0.70637 0.60358 0.0
O25 O 0.06215 0.53486 0.59165 0.0
O26 O 0.95426 0.55811 0.3856 0.0
O27 O 0.05747 0.70791 0.90942 0.0
O28 O 0.87745 0.65545 0.67182 0.0
Mg29 Mg 0.88096 0.85289 0.72262 0.0
O30 O 0.98921 0.85879 0.59027 0.0
O31 O 0.9414 0.79601 -0.02883 0.0
O32 O 0.79625 0.76577 0.54775 0.0
O33 O 0.91358 -0.01632 0.64216 0.0
C34 C 0.21956 0.70515 0.68109 0.0
C35 C 0.0273 0.72201 0.20724 0.0
C36 C 0.01276 0.5015 0.45835 0.0
C37 C 0.01037 0.74484 0.01959 0.0
C38 C 0.79903 0.69212 0.63429 0.0
C39 C 0.97789 0.94568 0.56957 0.0
O40 O 0.17507 0.6354 0.71073 0.0
O41 O 0.175 0.76522 0.5869 0.0
O42 O 0.43541 0.69497 0.12286 0.0
Mg43 Mg 0.4908 0.66013 0.87299 0.0
O44 O 0.57538 0.72769 0.11018 0.0
Mg45 Mg 0.51616 0.70639 0.80579 0.0
O46 O 0.47621 0.53487 0.81769 0.0
O47 O 0.58403 0.55813 0.02356 0.0
O48 O 0.48087 0.70792 0.49996 0.0
O49 O 0.66088 0.65547 0.73755 0.0
Mg50 Mg 0.65741 0.85286 0.68688 0.0
O51 O 0.54912 0.8588 0.81914 0.0
O52 O 0.59699 0.79596 0.43829 0.0
O53 O 0.74218 0.76582 0.86178 0.0
O54 O 0.62481 -0.01633 0.76729 0.0
C55 C 0.31875 0.70513 0.72841 0.0
C56 C 0.51106 0.72201 0.20214 0.0
C57 C 0.52556 0.50144 0.95097 0.0
C58 C 0.528 0.74482 0.38982 0.0
C59 C 0.7393 0.69212 0.77533 0.0
C60 C 0.56045 0.9457 0.83981 0.0
O61 O 0.36324 0.6354 0.69861 0.0
O62 O 0.36334 0.76524 0.82251 0.0
O63 O 0.60292 0.19495 0.78646 0.0
Mg64 Mg 0.54751 0.1601 0.03628 0.0
O65 O 0.46296 0.22769 0.79917 0.0
Mg66 Mg 0.52217 0.20638 0.10356 0.0
O67 O 0.56213 0.03487 0.09166 0.0
O68 O 0.45426 0.0581 0.88555 0.0
O69 O 0.55746 0.20792 0.40938 0.0
O70 O 0.37744 0.15546 0.17177 0.0
Mg71 Mg 0.38092 0.35289 0.22257 0.0
O72 O 0.48919 0.35879 0.09025 0.0
O73 O 0.44136 0.29598 0.47111 0.0
O74 O 0.29616 0.26583 0.04765 0.0
O75 O 0.41356 0.48369 0.14214 0.0
C76 C 0.71956 0.20513 0.1809 0.0
C77 C 0.52727 0.22201 0.7072 0.0
C78 C 0.51276 0.0015 -0.04166 0.0
C79 C 0.51034 0.24483 0.51954 0.0
C80 C 0.29903 0.19213 0.13404 0.0
C81 C 0.47788 0.44568 0.06955 0.0
O82 O 0.67508 0.13539 0.21062 0.0
O83 O 0.67498 0.26524 0.08686 0.0
loop_
_geom_bond_atom_site_label_1
_geom_bond_atom_site_label_2
_geom_bond_distance
_geom_bond_site_symmetry_2
_ccdc_geom_bond_type
O0 Mg1 1.990 . S
O0 C14 1.253 1_655 S
Mg1 O0 1.990 . S
Mg1 O4 2.180 . S
Mg1 O5 2.117 1_645 S
Mg1 O19 2.030 . S
O2 Mg3 2.072 . S
O2 C14 1.260 . S
Mg3 O2 2.072 . S
Mg3 O4 2.099 1_455 S
Mg3 O6 2.079 1_455 S
Mg3 O7 2.072 . S
Mg3 O9 2.099 . S
Mg3 O20 2.079 1_455 S
O4 Mg1 2.180 . S
O4 Mg3 2.099 1_655 S
O4 C15 1.279 1_655 S
O5 Mg1 2.117 1_465 S
O5 C15 1.250 1_565 S
O6 Mg3 2.079 1_655 S
O6 C16 1.264 1_654 S
O7 Mg3 2.072 . S
O7 C17 1.260 . S
Mg8 O9 2.180 . S
Mg8 O10 2.030 1_554 S
Mg8 O11 1.990 . S
Mg8 O12 2.117 . S
O9 Mg3 2.099 . S
O9 Mg8 2.180 . S
O9 C18 1.279 . S
O10 Mg8 2.030 1_556 S
O10 C16 1.248 . S
O11 Mg8 1.990 . S
O11 C17 1.253 . S
O12 Mg8 2.117 . S
O12 C18 1.250 . S
C13 O19 1.248 . S
C13 O20 1.264 . S
C14 O0 1.253 1_455 S
C14 O2 1.260 . S
C15 O4 1.279 1_455 S
C15 O5 1.250 1_545 S
C16 O6 1.264 1_456 S
C16 O10 1.248 . S
C17 O7 1.260 . S
C17 O11 1.253 . S
C18 O9 1.279 . S
C18 O12 1.250 . S
O19 Mg1 2.030 . S
O19 C13 1.248 . S
O20 Mg3 2.079 1_655 S
O20 C13 1.264 . S
O21 Mg22 1.990 . S
O21 C35 1.253 . S
Mg22 O21 1.990 . S
Mg22 O25 2.180 . S
Mg22 O26 2.117 . S
Mg22 O40 2.030 . S
O23 Mg24 2.072 . S
O23 C35 1.260 . S
Mg24 O23 2.072 . S
Mg24 O25 2.099 . S
Mg24 O27 2.079 . S
Mg24 O28 2.072 1_455 S
Mg24 O30 2.099 . S
Mg24 O41 2.079 . S
O25 Mg22 2.180 . S
O25 Mg24 2.099 . S
O25 C36 1.279 . S
O26 Mg22 2.117 . S
O26 C36 1.250 . S
O27 Mg24 2.079 . S
O27 C37 1.264 1_456 S
O28 Mg24 2.072 1_655 S
O28 C38 1.260 . S
Mg29 O30 2.180 1_655 S
Mg29 O31 2.030 1_556 S
Mg29 O32 1.990 . S
Mg29 O33 2.117 1_565 S
O30 Mg24 2.099 . S
O30 Mg29 2.180 1_455 S
O30 C39 1.279 1_455 S
O31 Mg29 2.030 1_554 S
O31 C37 1.248 . S
O32 Mg29 1.990 . S
O32 C38 1.253 . S
O33 Mg29 2.117 1_545 S
O33 C39 1.250 1_545 S
C34 O40 1.248 . S
C34 O41 1.264 . S
C35 O21 1.253 . S
C35 O23 1.260 . S
C36 O25 1.279 . S
C36 O26 1.250 . S
C37 O27 1.264 1_654 S
C37 O31 1.248 . S
C38 O28 1.260 . S
C38 O32 1.253 . S
C39 O30 1.279 1_655 S
C39 O33 1.250 1_565 S
O40 Mg22 2.030 . S
O40 C34 1.248 . S
O41 Mg24 2.079 . S
O41 C34 1.264 . S
O42 Mg43 1.990 . S
O42 C56 1.253 . S
Mg43 O42 1.990 . S
Mg43 O46 2.180 1_554 S
Mg43 O47 2.117 . S
Mg43 O61 2.030 . S
O44 Mg45 2.072 1_554 S
O44 C56 1.260 . S
Mg45 O44 2.072 1_556 S
Mg45 O46 2.099 . S
Mg45 O48 2.079 . S
Mg45 O49 2.072 . S
Mg45 O51 2.099 . S
Mg45 O62 2.079 . S
O46 Mg43 2.180 1_556 S
O46 Mg45 2.099 . S
O46 C57 1.279 . S
O47 Mg43 2.117 . S
O47 C57 1.250 1_554 S
O48 Mg45 2.079 . S
O48 C58 1.264 . S
O49 Mg45 2.072 . S
O49 C59 1.260 . S
Mg50 O51 2.180 . S
Mg50 O52 2.030 . S
Mg50 O53 1.990 . S
Mg50 O54 2.117 1_565 S
O51 Mg45 2.099 . S
O51 Mg50 2.180 . S
O51 C60 1.279 . S
O52 Mg50 2.030 . S
O52 C58 1.248 . S
O53 Mg50 1.990 . S
O53 C59 1.253 . S
O54 Mg50 2.117 1_545 S
O54 C60 1.250 1_545 S
C55 O61 1.248 1_556 S
C55 O62 1.264 . S
C56 O42 1.253 . S
C56 O44 1.260 . S
C57 O46 1.279 . S
C57 O47 1.250 1_556 S
C58 O48 1.264 . S
C58 O52 1.248 . S
C59 O49 1.260 . S
C59 O53 1.253 . S
C60 O51 1.279 . S
C60 O54 1.250 1_565 S
O61 Mg43 2.030 . S
O61 C55 1.248 1_554 S
O62 Mg45 2.079 . S
O62 C55 1.264 . S
O63 Mg64 1.990 . S
O63 C77 1.253 . S
Mg64 O63 1.990 . S
Mg64 O67 2.180 1_556 S
Mg64 O68 2.117 1_545 S
Mg64 O82 2.030 . S
O65 Mg66 2.072 1_556 S
O65 C77 1.260 . S
Mg66 O65 2.072 1_554 S
Mg66 O67 2.099 . S
Mg66 O69 2.079 . S
Mg66 O70 2.072 . S
Mg66 O72 2.099 . S
Mg66 O83 2.079 . S
O67 Mg64 2.180 1_554 S
O67 Mg66 2.099 . S
O67 C78 1.279 . S
O68 Mg64 2.117 1_565 S
O68 C78 1.250 1_566 S
O69 Mg66 2.079 . S
O69 C79 1.264 . S
O70 Mg66 2.072 . S
O70 C80 1.260 . S
Mg71 O72 2.180 . S
Mg71 O73 2.030 . S
Mg71 O74 1.990 . S
Mg71 O75 2.117 . S
O72 Mg66 2.099 . S
O72 Mg71 2.180 . S
O72 C81 1.279 . S
O73 Mg71 2.030 . S
O73 C79 1.248 . S
O74 Mg71 1.990 . S
O74 C80 1.253 . S
O75 Mg71 2.117 . S
O75 C81 1.250 . S
C76 O82 1.248 1_554 S
C76 O83 1.264 . S
C77 O63 1.253 . S
C77 O65 1.260 . S
C78 O67 1.279 . S
C78 O68 1.250 1_544 S
C79 O69 1.264 . S
C79 O73 1.248 . S
C80 O70 1.260 . S
C80 O74 1.253 . S
C81 O72 1.279 . S
C81 O75 1.250 . S
O82 Mg64 2.030 . S
O82 C76 1.248 1_556 S
O83 Mg66 2.079 . S
O83 C76 1.264 . S
C18 C36 1.717 . S
C59 C38 2.040 . S
C81 C57 1.718 1_554 S
C13 C76 2.138 . S
C80 C17 2.040 . S
C55 C34 2.138 . S
C60 C78 1.717 1_566 S
C39 C15 1.718 1_665 S
C16 C14 0.936 . S
C37 C35 0.936 1_655 S
C56 C58 0.936 . S
C79 C77 0.936 . S
