# Generated by pormake.
# Topology lcy, (6)-cn, num edge types: 1
# Building blocks:
#     Node 0, Type 0, BuildingBlock: IZENUY_clean_sbu_0, # of connection points: 6
#     Node 1, Type 0, BuildingBlock: IZENUY_clean_sbu_0, # of connection points: 6
#     Node 2, Type 0, BuildingBlock: IZENUY_clean_sbu_0, # of connection points: 6
#     Node 3, Type 0, BuildingBlock: IZENUY_clean_sbu_0, # of connection points: 6
#     Edge 4, Type (0, 0), BuildingBlock: AJUNOK_clean_linker_0, # of connection points: 2
#     Edge 5, Type (0, 0), BuildingBlock: AJUNOK_clean_linker_0, # of connection points: 2
#     Edge 6, Type (0, 0), BuildingBlock: AJUNOK_clean_linker_0, # of connection points: 2
#     Edge 7, Type (0, 0), BuildingBlock: AJUNOK_clean_linker_0, # of connection points: 2
#     Edge 8, Type (0, 0), BuildingBlock: AJUNOK_clean_linker_0, # of connection points: 2
#     Edge 9, Type (0, 0), BuildingBlock: AJUNOK_clean_linker_0, # of connection points: 2
#     Edge 10, Type (0, 0), BuildingBlock: AJUNOK_clean_linker_0, # of connection points: 2
#     Edge 11, Type (0, 0), BuildingBlock: AJUNOK_clean_linker_0, # of connection points: 2
#     Edge 12, Type (0, 0), BuildingBlock: AJUNOK_clean_linker_0, # of connection points: 2
#     Edge 13, Type (0, 0), BuildingBlock: AJUNOK_clean_linker_0, # of connection points: 2
#     Edge 14, Type (0, 0), BuildingBlock: AJUNOK_clean_linker_0, # of connection points: 2
#     Edge 15, Type (0, 0), BuildingBlock: AJUNOK_clean_linker_0, # of connection points: 2
# Relax obj value: 0.232
# Max RMSD: 0.227
# Mean RMSD: 0.227
data_MOF--net-lcy--node1-IZENUY_clean_sbu_0--edge1-AJUNOK_clean_linker_0
_symmetry_space_group_name_H-M    P1
_symmetry_Int_Tables_number       1
_symmetry_cell_setting            triclinic
loop_
_symmetry_equiv_pos_as_xyz
'x, y, z'
_cell_length_a     18.926116
_cell_length_b     19.08445
_cell_length_c     19.007455
_cell_angle_alpha  89.904546
_cell_angle_beta   89.896167
_cell_angle_gamma 90.078747
loop_
_atom_site_label
_atom_site_type_symbol
_atom_site_fract_x
_atom_site_fract_y
_atom_site_fract_z
_atom_type_partial_charge
Fe0 Fe 0.45121 0.37717 0.31595 0.0
Fe1 Fe 0.39201 0.3173 0.45184 0.0
O2 O 0.39249 0.38298 0.38689 0.0
Fe3 Fe 0.3344 0.45383 0.39395 0.0
O4 O 0.29218 0.43243 0.31285 0.0
O5 O 0.39064 0.42185 0.25231 0.0
O6 O 0.41094 0.29657 0.28911 0.0
C7 C 0.42159 0.24217 0.32421 0.0
C8 C 0.46182 0.51518 0.33826 0.0
O9 O 0.42365 0.2462 0.39122 0.0
C10 C 0.36298 0.44328 0.52918 0.0
O11 O 0.52192 0.33225 0.369 0.0
O12 O 0.48048 0.33978 0.47692 0.0
O13 O 0.39544 0.51785 0.35022 0.0
O14 O 0.49359 0.45761 0.33909 0.0
C15 C 0.25273 0.33419 0.43899 0.0
O16 O 0.36029 0.37663 0.52415 0.0
O17 O 0.37497 0.47874 0.47517 0.0
C18 C 0.53155 0.33053 0.43565 0.0
O19 O 0.30347 0.29306 0.42857 0.0
O20 O 0.26299 0.40056 0.43812 0.0
C21 C 0.32432 0.43402 0.25516 0.0
Fe22 Fe 0.82979 0.06457 0.63485 0.0
Fe23 Fe 0.8912 0.19885 0.57406 0.0
O24 O 0.89127 0.13324 0.6388 0.0
Fe25 Fe 0.95228 0.13711 0.70788 0.0
O26 O 0.99105 0.05552 0.68213 0.0
O27 O 0.8899 0.99914 0.67798 0.0
O28 O 0.8654 0.03618 0.5521 0.0
C29 C 0.85752 0.07279 0.49774 0.0
C30 C 0.82528 0.08771 0.77382 0.0
O31 O 0.85788 0.13959 0.50275 0.0
C32 C 0.92484 0.27306 0.70135 0.0
O33 O 0.75961 0.11869 0.59117 0.0
O34 O 0.80346 0.22487 0.59868 0.0
O35 O 0.89241 0.09358 0.77315 0.0
O36 O 0.79117 0.09021 0.71735 0.0
C37 C 0.03089 0.1844 0.58695 0.0
O38 O 0.92479 0.2694 0.63425 0.0
O39 O 0.91549 0.21855 0.73684 0.0
C40 C 0.75157 0.18512 0.58843 0.0
O41 O 0.97893 0.17522 0.54702 0.0
O42 O 0.02269 0.18127 0.65369 0.0
C43 C 0.957 0.9992 0.68567 0.0
Fe44 Fe 0.08369 0.64054 0.81631 0.0
Fe45 Fe 0.20138 0.56327 0.89276 0.0
O46 O 0.1433 0.6343 0.88647 0.0
Fe47 Fe 0.14507 0.69959 0.95138 0.0
O48 O 0.05699 0.67808 0.97744 0.0
O49 O 1.01368 0.68534 0.87038 0.0
O50 O 0.04175 0.55977 0.8399 0.0
C51 C 0.0737 0.5023 0.8382 0.0
C52 C 0.11347 0.77607 0.82467 0.0
O53 O 0.14016 0.49975 0.84925 0.0
C54 C 0.28375 0.68184 0.93756 0.0
O55 O 0.14399 0.5962 0.75182 0.0
O56 O 0.24288 0.58574 0.81144 0.0
O57 O 0.11358 0.7712 0.89162 0.0
O58 O 0.12278 0.72186 0.78875 0.0
C59 C 0.17329 0.57296 0.02835 0.0
O60 O 0.27319 0.6156 0.93673 0.0
O61 O 0.23332 0.72306 0.92668 0.0
C62 C 0.21038 0.58389 0.75409 0.0
O63 O 0.16149 0.53759 0.97434 0.0
O64 O 0.17656 0.63961 0.02326 0.0
C65 C 1.00591 0.69011 0.93718 0.0
Fe66 Fe 0.58234 0.87912 0.20684 0.0
Fe67 Fe 0.69945 0.95535 0.12722 0.0
O68 O 0.64113 0.88429 0.1357 0.0
Fe69 Fe 0.64144 0.81758 0.07221 0.0
O70 O 0.55314 0.83938 0.04692 0.0
O71 O 0.51162 0.83317 0.15481 0.0
O72 O 0.54021 0.95907 0.1819 0.0
C73 C 0.57194 0.01673 0.18262 0.0
C74 C 0.61214 0.74392 0.20094 0.0
O75 O 0.63822 0.01966 0.16998 0.0
C76 C 0.78001 0.8353 0.08182 0.0
O77 O 0.64285 0.92481 0.26977 0.0
O78 O 0.74144 0.93528 0.20915 0.0
O79 O 0.61025 0.74724 0.13395 0.0
O80 O 0.62215 0.7988 0.23542 0.0
C81 C 0.66894 0.94174 0.99131 0.0
O82 O 0.77058 0.90172 0.08381 0.0
O83 O 0.72985 0.79439 0.09562 0.0
C84 C 0.70913 0.9371 0.26682 0.0
O85 O 0.66001 0.97953 0.04449 0.0
O86 O 0.67249 0.8755 0.99887 0.0
C87 C 0.5021 0.8304 0.08823 0.0
C88 C 0.20046 0.55552 0.15614 0.0
C89 C 0.21081 0.53625 0.08589 0.0
C90 C 0.23701 0.52124 0.21029 0.0
C91 C 0.28672 0.46778 0.19601 0.0
H92 H 0.16354 0.59681 0.16935 0.0
H93 H 0.22708 0.53775 0.26391 0.0
S94 S 0.33729 0.40181 0.0203 0.0
N95 N 0.27661 0.46183 1.00442 0.0
N96 N 0.3464 0.39957 0.10663 0.0
C97 C 0.29895 0.44934 0.12599 0.0
C98 C 0.26061 0.4829 0.07086 0.0
C99 C 0.75149 0.94023 0.39146 0.0
C100 C 0.74607 0.97217 0.32544 0.0
C101 C 0.79048 0.97192 0.44554 0.0
C102 C 0.82427 0.03764 0.43618 0.0
H103 H 0.72637 0.89006 0.40105 0.0
H104 H 0.7924 0.94519 0.4958 0.0
S105 S 0.82233 0.14395 0.27292 0.0
N106 N 0.77623 0.07319 0.2531 0.0
N107 N 0.84757 0.13365 0.35542 0.0
C108 C 0.81842 0.07022 0.37026 0.0
C109 C 0.77981 0.0373 0.31482 0.0
C110 C 0.29779 0.49622 0.71027 0.0
C111 C 0.24763 0.54912 0.69525 0.0
C112 C 0.33475 0.46153 0.65667 0.0
C113 C 0.3243 0.47971 0.58615 0.0
H114 H 0.30797 0.48061 0.76413 0.0
H115 H 0.3722 0.42092 0.67051 0.0
S116 S 0.19637 0.61181 0.51851 0.0
N117 N 0.1872 0.61528 0.60483 0.0
N118 N 0.25765 0.55215 0.50354 0.0
C119 C 0.2738 0.53221 0.57031 0.0
C120 C 0.2351 0.56624 0.62495 0.0
C121 C 0.76896 0.95023 0.90578 0.0
C122 C 0.70394 0.97619 0.93075 0.0
C123 C 0.81061 0.98912 0.85852 0.0
C124 C 0.7882 0.05487 0.8337 0.0
H125 H 0.78898 0.90054 0.92452 0.0
H126 H 0.8596 0.96659 0.83964 0.0
S127 S 0.62178 0.14538 0.88114 0.0
N128 N 0.61962 0.07193 0.92725 0.0
N129 N 0.6962 0.14329 0.83559 0.0
C130 C 0.72291 0.08081 0.85716 0.0
C131 C 0.68128 0.04199 0.90642 0.0
C132 C 0.11578 0.19823 0.48776 0.0
C133 C 0.09224 0.22031 0.55439 0.0
C134 C 0.16479 0.23775 0.44896 0.0
C135 C 0.1905 0.30229 0.47397 0.0
H136 H 0.09574 0.15002 0.46524 0.0
H137 H 0.18342 0.21724 0.39914 0.0
S138 S 0.14389 0.38494 0.64433 0.0
N139 N 0.09809 0.31124 0.64346 0.0
N140 N 0.18823 0.38668 0.56944 0.0
C141 C 0.16645 0.32569 0.5399 0.0
C142 C 0.11802 0.28435 0.58043 0.0
C143 C 0.04925 0.82655 0.72057 0.0
C144 C 0.07714 0.83567 0.78917 0.0
C145 C 1.00764 0.87817 0.6881 0.0
C146 C 0.99312 0.94126 0.72246 0.0
H147 H 0.05838 0.77848 0.69178 0.0
H148 H 0.98799 0.86923 0.63536 0.0
S149 S 0.05332 0.99287 0.90096 0.0
N150 N 0.08621 0.91358 0.88968 0.0
N151 N 1.01015 0.01132 0.82786 0.0
C152 C 0.021 0.95168 0.79041 0.0
C153 C 0.06244 0.89881 0.82392 0.0
C154 C 0.36827 0.7801 0.95116 0.0
C155 C 0.34513 0.71359 0.9735 0.0
C156 C 0.41559 0.81961 0.99141 0.0
C157 C 0.44042 0.79516 0.05664 0.0
H158 H 0.34883 0.80223 0.90235 0.0
H159 H 0.43384 0.86945 0.9708 0.0
S160 S 0.39601 0.62462 0.13953 0.0
N161 N 0.35107 0.62481 0.06511 0.0
N162 N 0.43901 0.69995 0.14157 0.0
C163 C 0.41738 0.72906 0.08009 0.0
C164 C 0.37026 0.68796 0.0382 0.0
C165 C 0.44494 0.11481 0.30243 0.0
C166 C 0.45926 0.18511 0.28713 0.0
C167 C 0.48102 0.06111 0.26717 0.0
C168 C 0.53412 0.07568 0.21659 0.0
H169 H 0.40527 0.10125 0.34131 0.0
H170 H 0.46795 1.0075 0.28083 0.0
S171 S 0.59523 0.25163 0.16172 0.0
N172 N 0.53209 0.26696 0.21972 0.0
N173 N 0.60097 0.16554 0.15563 0.0
C174 C 0.55017 0.14575 0.20223 0.0
C175 C 0.51239 0.20053 0.23681 0.0
C176 C 0.6702 0.28582 0.57057 0.0
C177 C 0.6909 0.21757 0.55163 0.0
C178 C 0.62173 0.3238 0.52999 0.0
C179 C 0.59369 0.29612 0.46747 0.0
H180 H 0.69197 0.31023 0.6172 0.0
H181 H 0.6052 0.37502 0.5482 0.0
S182 S 0.63056 0.12001 0.39401 0.0
N183 N 0.67884 0.12359 0.46624 0.0
N184 N 0.58944 0.19608 0.38887 0.0
C185 C 0.61448 0.22836 0.44732 0.0
C186 C 0.66246 0.18875 0.48974 0.0
C187 C 0.98328 0.45594 0.75438 0.0
C188 C 0.0357 0.44272 0.80571 0.0
C189 C 0.94758 0.4012 0.72026 0.0
C190 C 0.96155 0.33129 0.73763 0.0
H191 H 0.97067 0.50921 0.7392 0.0
H192 H 0.90854 0.41365 0.68056 0.0
S193 S 0.09564 0.26844 0.86626 0.0
N194 N 0.10139 0.35467 0.86998 0.0
N195 N 0.03328 0.25143 0.80809 0.0
C196 C 1.01383 0.31734 0.78901 0.0
C197 C 0.05124 0.37309 0.82235 0.0
C198 C 0.96222 0.77842 0.02359 0.0
C199 C 0.9474 0.73105 0.96822 0.0
C200 C 0.90835 0.81515 0.05826 0.0
C201 C 0.83776 0.80489 0.03952 0.0
H202 H 0.01608 0.7867 0.04094 0.0
H203 H 0.92177 0.84944 0.10162 0.0
S204 S 0.77128 0.6928 0.89391 0.0
N205 N 0.85772 0.68105 0.89265 0.0
N206 N 0.75571 0.74835 0.95863 0.0
C207 C 0.8224 0.76004 0.98235 0.0
C208 C 0.87743 0.7237 0.94633 0.0
C209 C 0.58866 0.61613 0.22034 0.0
C210 C 0.57562 0.68603 0.23823 0.0
C211 C 0.55231 0.56153 0.25421 0.0
C212 C 0.50007 0.57485 0.30583 0.0
H213 H 0.62734 0.60357 0.18023 0.0
H214 H 0.56425 0.50829 0.23853 0.0
S215 S 0.44249 0.74926 0.36786 0.0
N216 N 0.50503 0.7661 0.30953 0.0
N217 N 0.43559 0.66306 0.37103 0.0
C218 C 0.48545 0.64451 0.32305 0.0
C219 C 0.52359 0.70015 0.28992 0.0
loop_
_geom_bond_atom_site_label_1
_geom_bond_atom_site_label_2
_geom_bond_distance
_geom_bond_site_symmetry_2
_ccdc_geom_bond_type
Fe0 O2 1.918 . S
Fe0 O5 1.997 . S
Fe0 O6 2.002 . S
Fe0 O11 1.976 . S
Fe0 O14 1.996 . S
Fe1 O2 1.918 . S
Fe1 O9 1.997 . S
Fe1 O12 1.996 . S
Fe1 O16 1.976 . S
Fe1 O19 2.002 . S
O2 Fe0 1.918 . S
O2 Fe1 1.918 . S
O2 Fe3 1.918 . S
Fe3 O2 1.918 . S
Fe3 O4 2.002 . S
Fe3 O13 1.976 . S
Fe3 O17 1.996 . S
Fe3 O20 1.997 . S
O4 Fe3 2.002 . S
O4 C21 1.295 . S
O5 Fe0 1.997 . S
O5 C21 1.235 . S
O6 Fe0 2.002 . S
O6 C7 1.295 . S
C7 O6 1.295 . S
C7 O9 1.235 . S
C8 O13 1.287 . S
C8 O14 1.255 . S
O9 Fe1 1.997 . S
O9 C7 1.235 . S
C10 O16 1.287 . S
C10 O17 1.255 . S
O11 Fe0 1.976 . S
O11 C18 1.287 . S
O12 Fe1 1.996 . S
O12 C18 1.255 . S
O13 Fe3 1.976 . S
O13 C8 1.287 . S
O14 Fe0 1.996 . S
O14 C8 1.255 . S
C15 O19 1.295 . S
C15 O20 1.235 . S
O16 Fe1 1.976 . S
O16 C10 1.287 . S
O17 Fe3 1.996 . S
O17 C10 1.255 . S
C18 O11 1.287 . S
C18 O12 1.255 . S
O19 Fe1 2.002 . S
O19 C15 1.295 . S
O20 Fe3 1.997 . S
O20 C15 1.235 . S
C21 O4 1.295 . S
C21 O5 1.235 . S
Fe22 O24 1.918 . S
Fe22 O27 1.997 1_545 S
Fe22 O28 2.002 . S
Fe22 O33 1.976 . S
Fe22 O36 1.996 . S
Fe23 O24 1.918 . S
Fe23 O31 1.997 . S
Fe23 O34 1.996 . S
Fe23 O38 1.976 . S
Fe23 O41 2.002 . S
O24 Fe22 1.918 . S
O24 Fe23 1.918 . S
O24 Fe25 1.918 . S
Fe25 O24 1.918 . S
Fe25 O26 2.002 . S
Fe25 O35 1.976 . S
Fe25 O39 1.996 . S
Fe25 O42 1.997 1_655 S
O26 Fe25 2.002 . S
O26 C43 1.295 1_545 S
O27 Fe22 1.997 1_565 S
O27 C43 1.235 . S
O28 Fe22 2.002 . S
O28 C29 1.295 . S
C29 O28 1.295 . S
C29 O31 1.235 . S
C30 O35 1.287 . S
C30 O36 1.255 . S
O31 Fe23 1.997 . S
O31 C29 1.235 . S
C32 O38 1.287 . S
C32 O39 1.255 . S
O33 Fe22 1.976 . S
O33 C40 1.287 . S
O34 Fe23 1.996 . S
O34 C40 1.255 . S
O35 Fe25 1.976 . S
O35 C30 1.287 . S
O36 Fe22 1.996 . S
O36 C30 1.255 . S
C37 O41 1.295 1_455 S
C37 O42 1.235 . S
O38 Fe23 1.976 . S
O38 C32 1.287 . S
O39 Fe25 1.996 . S
O39 C32 1.255 . S
C40 O33 1.287 . S
C40 O34 1.255 . S
O41 Fe23 2.002 . S
O41 C37 1.295 1_655 S
O42 Fe25 1.997 1_455 S
O42 C37 1.235 . S
C43 O26 1.295 1_565 S
C43 O27 1.235 . S
Fe44 O46 1.918 . S
Fe44 O49 1.997 1_455 S
Fe44 O50 2.002 . S
Fe44 O55 1.976 . S
Fe44 O58 1.996 . S
Fe45 O46 1.918 . S
Fe45 O53 1.997 . S
Fe45 O56 1.996 . S
Fe45 O60 1.976 . S
Fe45 O63 2.002 . S
O46 Fe44 1.918 . S
O46 Fe45 1.918 . S
O46 Fe47 1.918 . S
Fe47 O46 1.918 . S
Fe47 O48 2.002 . S
Fe47 O57 1.976 . S
Fe47 O61 1.996 . S
Fe47 O64 1.997 1_556 S
O48 Fe47 2.002 . S
O48 C65 1.295 1_455 S
O49 Fe44 1.997 1_655 S
O49 C65 1.235 . S
O50 Fe44 2.002 . S
O50 C51 1.295 . S
C51 O50 1.295 . S
C51 O53 1.235 . S
C52 O57 1.287 . S
C52 O58 1.255 . S
O53 Fe45 1.997 . S
O53 C51 1.235 . S
C54 O60 1.287 . S
C54 O61 1.255 . S
O55 Fe44 1.976 . S
O55 C62 1.287 . S
O56 Fe45 1.996 . S
O56 C62 1.255 . S
O57 Fe47 1.976 . S
O57 C52 1.287 . S
O58 Fe44 1.996 . S
O58 C52 1.255 . S
C59 O63 1.295 1_554 S
C59 O64 1.235 . S
O60 Fe45 1.976 . S
O60 C54 1.287 . S
O61 Fe47 1.996 . S
O61 C54 1.255 . S
C62 O55 1.287 . S
C62 O56 1.255 . S
O63 Fe45 2.002 . S
O63 C59 1.295 1_556 S
O64 Fe47 1.997 1_554 S
O64 C59 1.235 . S
C65 O48 1.295 1_655 S
C65 O49 1.235 . S
Fe66 O68 1.918 . S
Fe66 O71 1.997 . S
Fe66 O72 2.002 . S
Fe66 O77 1.976 . S
Fe66 O80 1.996 . S
Fe67 O68 1.918 . S
Fe67 O75 1.997 1_565 S
Fe67 O78 1.996 . S
Fe67 O82 1.976 . S
Fe67 O85 2.002 . S
O68 Fe66 1.918 . S
O68 Fe67 1.918 . S
O68 Fe69 1.918 . S
Fe69 O68 1.918 . S
Fe69 O70 2.002 . S
Fe69 O79 1.976 . S
Fe69 O83 1.996 . S
Fe69 O86 1.997 1_554 S
O70 Fe69 2.002 . S
O70 C87 1.295 . S
O71 Fe66 1.997 . S
O71 C87 1.235 . S
O72 Fe66 2.002 . S
O72 C73 1.295 1_565 S
C73 O72 1.295 1_545 S
C73 O75 1.235 . S
C74 O79 1.287 . S
C74 O80 1.255 . S
O75 Fe67 1.997 1_545 S
O75 C73 1.235 . S
C76 O82 1.287 . S
C76 O83 1.255 . S
O77 Fe66 1.976 . S
O77 C84 1.287 . S
O78 Fe67 1.996 . S
O78 C84 1.255 . S
O79 Fe69 1.976 . S
O79 C74 1.287 . S
O80 Fe66 1.996 . S
O80 C74 1.255 . S
C81 O85 1.295 1_556 S
C81 O86 1.235 . S
O82 Fe67 1.976 . S
O82 C76 1.287 . S
O83 Fe69 1.996 . S
O83 C76 1.255 . S
C84 O77 1.287 . S
C84 O78 1.255 . S
O85 Fe67 2.002 . S
O85 C81 1.295 1_554 S
O86 Fe69 1.997 1_556 S
O86 C81 1.235 . S
C87 O70 1.295 . S
C87 O71 1.235 . S
C88 C89 1.369 . S
C88 C90 1.419 . S
C88 H92 0.930 . S
C89 C88 1.369 . S
C89 C98 1.429 . S
C90 C88 1.419 . S
C90 C91 1.363 . S
C90 H93 0.929 . S
C91 C90 1.363 . S
C91 C97 1.428 . S
H92 C88 0.930 . S
H93 C90 0.929 . S
S94 N95 1.613 . S
S94 N96 1.610 . S
N95 S94 1.613 . S
N95 C98 1.350 . S
N96 S94 1.610 . S
N96 C97 1.351 . S
C97 C91 1.428 . S
C97 N96 1.351 . S
C97 C98 1.434 . S
C98 C89 1.429 . S
C98 N95 1.350 . S
C98 C97 1.434 . S
C99 C100 1.369 . S
C99 C101 1.419 1_565 S
C99 H103 0.930 . S
C100 C99 1.369 . S
C100 C109 1.429 . S
C101 C99 1.419 1_545 S
C101 C102 1.363 . S
C101 H104 0.929 . S
C102 C101 1.363 . S
C102 C108 1.428 . S
H103 C99 0.930 . S
H104 C101 0.929 . S
S105 N106 1.613 . S
S105 N107 1.610 1_565 S
N106 S105 1.613 . S
N106 C109 1.350 . S
N107 S105 1.610 1_545 S
N107 C108 1.351 . S
C108 C102 1.428 . S
C108 N107 1.351 . S
C108 C109 1.434 1_545 S
C109 C100 1.429 . S
C109 N106 1.350 . S
C109 C108 1.434 1_565 S
C110 C111 1.369 . S
C110 C112 1.419 . S
C110 H114 0.930 . S
C111 C110 1.369 . S
C111 C120 1.429 . S
C112 C110 1.419 . S
C112 C113 1.363 . S
C112 H115 0.929 . S
C113 C112 1.363 . S
C113 C119 1.428 . S
H114 C110 0.930 . S
H115 C112 0.929 . S
S116 N117 1.613 . S
S116 N118 1.610 . S
N117 S116 1.613 . S
N117 C120 1.350 . S
N118 S116 1.610 . S
N118 C119 1.351 . S
C119 C113 1.428 . S
C119 N118 1.351 . S
C119 C120 1.434 . S
C120 C111 1.429 . S
C120 N117 1.350 . S
C120 C119 1.434 . S
C121 C122 1.369 . S
C121 C123 1.419 1_565 S
C121 H125 0.930 . S
C122 C121 1.369 . S
C122 C131 1.429 1_565 S
C123 C121 1.419 1_545 S
C123 C124 1.363 . S
C123 H126 0.929 . S
C124 C123 1.363 . S
C124 C130 1.428 . S
H125 C121 0.930 . S
H126 C123 0.929 . S
S127 N128 1.613 . S
S127 N129 1.610 . S
N128 S127 1.613 . S
N128 C131 1.350 . S
N129 S127 1.610 . S
N129 C130 1.351 . S
C130 C124 1.428 . S
C130 N129 1.351 . S
C130 C131 1.434 . S
C131 C122 1.429 1_545 S
C131 N128 1.350 . S
C131 C130 1.434 . S
C132 C133 1.369 . S
C132 C134 1.419 . S
C132 H136 0.930 . S
C133 C132 1.369 . S
C133 C142 1.429 . S
C134 C132 1.419 . S
C134 C135 1.363 . S
C134 H137 0.929 . S
C135 C134 1.363 . S
C135 C141 1.428 . S
H136 C132 0.930 . S
H137 C134 0.929 . S
S138 N139 1.613 . S
S138 N140 1.610 . S
N139 S138 1.613 . S
N139 C142 1.350 . S
N140 S138 1.610 . S
N140 C141 1.351 . S
C141 C135 1.428 . S
C141 N140 1.351 . S
C141 C142 1.434 . S
C142 C133 1.429 . S
C142 N139 1.350 . S
C142 C141 1.434 . S
C143 C144 1.357 1_655 S
C143 C145 1.427 . S
C143 H147 0.934 . S
C144 C143 1.357 1_455 S
C144 C153 1.429 . S
C145 C143 1.427 . S
C145 C146 1.363 . S
C145 H148 0.929 . S
C146 C145 1.363 . S
C146 C152 1.428 1_655 S
H147 C143 0.934 . S
H148 C145 0.929 . S
S149 N150 1.613 1_545 S
S149 N151 1.610 . S
N150 S149 1.613 1_565 S
N150 C153 1.350 . S
N151 S149 1.610 . S
N151 C152 1.351 1_545 S
C152 C146 1.428 1_455 S
C152 N151 1.351 1_565 S
C152 C153 1.434 . S
C153 C144 1.429 . S
C153 N150 1.350 . S
C153 C152 1.434 . S
C154 C155 1.369 . S
C154 C156 1.419 . S
C154 H158 0.930 . S
C155 C154 1.369 . S
C155 C164 1.429 1_556 S
C156 C154 1.419 . S
C156 C157 1.363 1_556 S
C156 H159 0.929 . S
C157 C156 1.363 1_554 S
C157 C163 1.428 . S
H158 C154 0.930 . S
H159 C156 0.929 . S
S160 N161 1.613 . S
S160 N162 1.610 . S
N161 S160 1.613 . S
N161 C164 1.350 . S
N162 S160 1.610 . S
N162 C163 1.351 . S
C163 C157 1.428 . S
C163 N162 1.351 . S
C163 C164 1.434 . S
C164 C155 1.429 1_554 S
C164 N161 1.350 . S
C164 C163 1.434 . S
C165 C166 1.369 . S
C165 C167 1.419 . S
C165 H169 0.930 . S
C166 C165 1.369 . S
C166 C175 1.429 . S
C167 C165 1.419 . S
C167 C168 1.363 . S
C167 H170 0.929 . S
C168 C167 1.363 . S
C168 C174 1.428 . S
H169 C165 0.930 . S
H170 C167 0.929 . S
S171 N172 1.613 . S
S171 N173 1.610 . S
N172 S171 1.613 . S
N172 C175 1.350 . S
N173 S171 1.610 . S
N173 C174 1.351 . S
C174 C168 1.428 . S
C174 N173 1.351 . S
C174 C175 1.434 . S
C175 C166 1.429 . S
C175 N172 1.350 . S
C175 C174 1.434 . S
C176 C177 1.369 . S
C176 C178 1.419 . S
C176 H180 0.930 . S
C177 C176 1.369 . S
C177 C186 1.429 . S
C178 C176 1.419 . S
C178 C179 1.363 . S
C178 H181 0.929 . S
C179 C178 1.363 . S
C179 C185 1.428 . S
H180 C176 0.930 . S
H181 C178 0.929 . S
S182 N183 1.613 . S
S182 N184 1.610 . S
N183 S182 1.613 . S
N183 C186 1.350 . S
N184 S182 1.610 . S
N184 C185 1.351 . S
C185 C179 1.428 . S
C185 N184 1.351 . S
C185 C186 1.434 . S
C186 C177 1.429 . S
C186 N183 1.350 . S
C186 C185 1.434 . S
C187 C188 1.369 . S
C187 C189 1.419 1_455 S
C187 H191 0.930 . S
C188 C187 1.369 . S
C188 C197 1.429 . S
C189 C187 1.419 1_655 S
C189 C190 1.363 . S
C189 H192 0.929 . S
C190 C189 1.363 . S
C190 C196 1.428 . S
H191 C187 0.930 . S
H192 C189 0.929 . S
S193 N194 1.613 . S
S193 N195 1.610 1_455 S
N194 S193 1.613 . S
N194 C197 1.350 . S
N195 S193 1.610 1_655 S
N195 C196 1.351 . S
C196 C190 1.428 . S
C196 N195 1.351 . S
C196 C197 1.434 1_655 S
C197 C188 1.429 . S
C197 N194 1.350 . S
C197 C196 1.434 1_455 S
C198 C199 1.369 1_554 S
C198 C200 1.419 . S
C198 H202 0.930 . S
C199 C198 1.369 1_556 S
C199 C208 1.429 . S
C200 C198 1.419 . S
C200 C201 1.363 . S
C200 H203 0.929 . S
C201 C200 1.363 . S
C201 C207 1.428 . S
H202 C198 0.930 . S
H203 C200 0.929 . S
S204 N205 1.613 . S
S204 N206 1.608 1_556 S
N205 S204 1.613 . S
N205 C208 1.350 . S
N206 S204 1.608 1_554 S
N206 C207 1.352 . S
C207 C201 1.428 . S
C207 N206 1.352 . S
C207 C208 1.434 1_554 S
C208 C199 1.429 . S
C208 N205 1.350 . S
C208 C207 1.434 1_556 S
C209 C210 1.369 . S
C209 C211 1.419 . S
C209 H213 0.930 . S
C210 C209 1.369 . S
C210 C219 1.429 . S
C211 C209 1.419 . S
C211 C212 1.363 . S
C211 H214 0.929 . S
C212 C211 1.363 . S
C212 C218 1.428 . S
H213 C209 0.930 . S
H214 C211 0.929 . S
S215 N216 1.613 . S
S215 N217 1.610 . S
N216 S215 1.613 . S
N216 C219 1.350 . S
N217 S215 1.610 . S
N217 C218 1.351 . S
C218 C212 1.428 . S
C218 N217 1.351 . S
C218 C219 1.434 . S
C219 C210 1.429 . S
C219 N216 1.350 . S
C219 C218 1.434 . S
C89 C59 1.483 . S
C91 C21 1.482 . S
C100 C84 1.461 . S
C102 C29 1.444 . S
C111 C62 1.416 . S
C113 C10 1.418 . S
C122 C81 1.446 . S
C124 C30 1.461 . S
C133 C37 1.487 . S
C135 C15 1.479 . S
C144 C52 1.469 . S
C146 C43 1.436 . S
C155 C54 1.461 . S
C157 C87 1.437 . S
C166 C7 1.477 . S
C168 C73 1.493 . S
C177 C40 1.412 . S
C179 C18 1.422 . S
C188 C51 1.445 . S
C190 C32 1.460 . S
C199 C65 1.444 . S
C201 C76 1.459 . S
C210 C74 1.415 . S
C212 C8 1.424 . S
