# Generated by pormake.
# Topology bcu, (8)-cn, num edge types: 1
# Building blocks:
#     Node 0, Type 0, BuildingBlock: TAGTUT_clean_sbu_1, # of connection points: 8
#     Node 1, Type 0, BuildingBlock: TAGTUT_clean_sbu_1, # of connection points: 8
#     Edge 2, Type (0, 0), BuildingBlock: AJUNOK_clean_linker_0, # of connection points: 2
#     Edge 3, Type (0, 0), BuildingBlock: AJUNOK_clean_linker_0, # of connection points: 2
#     Edge 4, Type (0, 0), BuildingBlock: AJUNOK_clean_linker_0, # of connection points: 2
#     Edge 5, Type (0, 0), BuildingBlock: AJUNOK_clean_linker_0, # of connection points: 2
#     Edge 6, Type (0, 0), BuildingBlock: AJUNOK_clean_linker_0, # of connection points: 2
#     Edge 7, Type (0, 0), BuildingBlock: AJUNOK_clean_linker_0, # of connection points: 2
#     Edge 8, Type (0, 0), BuildingBlock: AJUNOK_clean_linker_0, # of connection points: 2
#     Edge 9, Type (0, 0), BuildingBlock: AJUNOK_clean_linker_0, # of connection points: 2
# Relax obj value: 0.013
# Max RMSD: 0.070
# Mean RMSD: 0.070
data_MOF--net-bcu--node1-TAGTUT_clean_sbu_1--edge1-AJUNOK_clean_linker_0
_symmetry_space_group_name_H-M    P1
_symmetry_Int_Tables_number       1
_symmetry_cell_setting            triclinic
loop_
_symmetry_equiv_pos_as_xyz
'x, y, z'
_cell_length_a     13.644758
_cell_length_b     15.286505
_cell_length_c     17.387602
_cell_angle_alpha  91.246977
_cell_angle_beta   95.014516
_cell_angle_gamma 116.04897
loop_
_atom_site_label
_atom_site_type_symbol
_atom_site_fract_x
_atom_site_fract_y
_atom_site_fract_z
_atom_type_partial_charge
C0 C 0.94963 0.19648 0.12806 0.0
C1 C 0.91569 0.19239 0.87431 0.0
C2 C 0.85538 0.81626 0.87909 0.0
Mg3 Mg 0.10033 0.21191 0.00117 0.0
O4 O 1.02452 0.07469 0.01476 0.0
Mg5 Mg 0.86171 0.00815 -0.00856 0.0
Mg6 Mg 1.06189 0.97747 -0.04023 0.0
O7 O 0.09824 0.88019 0.90452 0.0
Mg8 Mg 1.02187 0.74275 0.91744 0.0
Mg9 Mg 0.26079 0.94617 0.92701 0.0
C10 C 0.26494 0.13747 0.04079 0.0
C11 C 0.21002 0.09415 0.82203 0.0
O12 O 0.87409 0.11816 0.09152 0.0
O13 O 1.04465 0.24441 0.10504 0.0
O14 O 0.85738 0.11085 0.90061 0.0
O15 O 1.01536 0.24453 0.9019 0.0
O16 O 0.24646 0.18884 -0.01032 0.0
O17 O 0.23954 0.04772 0.02257 0.0
C18 C 0.91308 0.86075 0.09748 0.0
O19 O 0.99759 0.87474 0.06281 0.0
O20 O 0.85543 0.90451 0.07846 0.0
O21 O 0.24895 0.83775 0.82661 0.0
O22 O 0.07802 0.71259 0.8124 0.0
O23 O 0.26298 0.84179 0.01592 0.0
C24 C 0.17314 0.76028 0.78947 0.0
O25 O 0.10573 0.70877 0.01724 0.0
O26 O 0.87489 0.76477 0.92963 0.0
C27 C 0.2058 0.76117 0.04384 0.0
O28 O 0.88537 0.90693 0.89706 0.0
O29 O 0.12556 0.08005 0.85672 0.0
O30 O 0.26774 0.05051 0.84098 0.0
C31 C 0.30686 0.63918 0.5196 0.0
C32 C 0.41031 0.63278 0.29627 0.0
C33 C 0.38449 0.27924 0.35741 0.0
Mg34 Mg 0.53041 0.67807 0.46054 0.0
O35 O 0.47194 0.5459 0.47894 0.0
Mg36 Mg 0.32643 0.45517 0.42268 0.0
Mg37 Mg 0.56099 0.47666 0.45965 0.0
O38 O 0.65005 0.40723 0.4405 0.0
Mg39 Mg 0.59263 0.27451 0.45787 0.0
Mg40 Mg 0.79521 0.49822 0.49689 0.0
C41 C 0.73746 0.67397 0.56191 0.0
C42 C 0.75124 0.60797 0.35052 0.0
O43 O 0.26105 0.5516 0.48764 0.0
O44 O 0.40789 0.6977 0.51584 0.0
O45 O 0.34758 0.5495 0.31879 0.0
O46 O 0.49544 0.69286 0.33934 0.0
O47 O 0.68948 0.72246 0.53018 0.0
O48 O 0.70156 0.58175 0.54615 0.0
C49 C 0.37104 0.34622 0.56901 0.0
O50 O 0.47188 0.37747 0.55601 0.0
O51 O 0.30385 0.3652 0.52547 0.0
O52 O 0.86172 0.4031 0.43157 0.0
O53 O 0.71591 0.25664 0.40183 0.0
O54 O 0.77279 0.40318 0.60085 0.0
C55 C 0.81683 0.31605 0.39869 0.0
O56 O 0.62765 0.25778 0.57902 0.0
O57 O 0.43334 0.23099 0.38842 0.0
C58 C 0.71074 0.31941 0.62297 0.0
O59 O 0.4202 0.37139 0.37345 0.0
O60 O 0.65019 0.57618 0.36318 0.0
O61 O 0.81827 0.58896 0.39426 0.0
C62 C 0.29236 0.26336 0.14584 0.0
C63 C 0.26621 0.16577 0.12361 0.0
C64 C 0.3157 0.29759 0.22391 0.0
C65 C 0.31528 0.23578 0.28293 0.0
H66 H 0.30222 0.31568 0.10255 0.0
H67 H 0.34464 0.37509 0.23711 0.0
S68 S 0.22506 0.96903 0.25754 0.0
N69 N 0.2211 0.00376 0.16858 0.0
N70 N 0.26472 0.06854 0.31496 0.0
C71 C 0.2758 0.13569 0.26215 0.0
C72 C 0.25221 0.10066 0.18263 0.0
C73 C 0.96715 0.32744 0.2249 0.0
C74 C 0.92904 0.2278 0.20316 0.0
C75 C 0.93975 0.35711 0.29349 0.0
C76 C 0.87457 0.28787 0.34252 0.0
H77 H 1.0134 0.38244 0.18684 0.0
H78 H 0.96305 0.43401 0.30512 0.0
S79 S 0.77949 0.02009 0.32082 0.0
N80 N 0.84028 0.06143 0.24231 0.0
N81 N 0.78974 0.11705 0.37135 0.0
C82 C 0.84572 0.18884 0.32493 0.0
C83 C 0.87248 0.15874 0.25504 0.0
C84 C 0.77266 0.77266 0.18661 0.0
C85 C 0.87489 0.79211 0.15993 0.0
C86 C 0.7328 0.712 0.2468 0.0
C87 C 0.79336 0.66837 0.28413 0.0
H88 H 0.72193 0.80491 0.16117 0.0
H89 H 0.65453 0.70069 0.26482 0.0
S90 S 1.06238 0.6894 0.2345 0.0
N91 N 1.03306 0.75796 0.17347 0.0
N92 N 0.95919 0.64459 0.28786 0.0
C93 C 0.8948 0.6851 0.25737 0.0
C94 C 0.93513 0.74656 0.19508 0.0
C95 C 0.22347 0.62935 0.11932 0.0
C96 C 0.2609 0.72882 0.10665 0.0
C97 C 0.27681 0.59843 0.17759 0.0
C98 C 0.36985 0.66572 0.22564 0.0
H99 H 0.15207 0.57493 0.08434 0.0
H100 H 0.2427 0.52111 0.18633 0.0
S101 S 0.50145 0.93506 0.21504 0.0
N102 N 0.39772 0.89475 0.14629 0.0
N103 N 0.49803 0.83683 0.25469 0.0
C104 C 0.40986 0.7653 0.21189 0.0
C105 C 0.35527 0.79674 0.15293 0.0
C106 C 0.15172 0.62994 0.69035 0.0
C107 C 0.19415 0.72947 0.71421 0.0
C108 C 0.17957 0.60022 0.62204 0.0
C109 C 0.25002 0.66933 0.57533 0.0
H110 H 0.10178 0.57465 0.72666 0.0
H111 H 0.15227 0.5229 0.60895 0.0
S112 S 0.36165 0.93866 0.60361 0.0
N113 N 0.29491 0.8968 0.67971 0.0
N114 N 0.34646 0.84127 0.55119 0.0
C115 C 0.28403 0.76894 0.59496 0.0
C116 C 0.25663 0.79899 0.66461 0.0
C117 C 0.38835 0.24025 0.67107 0.0
C118 C 0.32928 0.28623 0.63547 0.0
C119 C 0.34857 0.17964 0.73121 0.0
C120 C 0.24789 0.16247 0.75945 0.0
H121 H 0.46524 0.24959 0.65163 0.0
H122 H 0.3981 0.14554 0.75529 0.0
S123 S 0.06524 0.27235 0.6899 0.0
N124 N 0.16709 0.31527 0.63522 0.0
N125 N 0.0929 0.20125 0.74919 0.0
C126 C 0.18913 0.21026 0.72593 0.0
C127 C 0.22954 0.27195 0.66383 0.0
C128 C 0.78319 0.15896 0.7563 0.0
C129 C 0.86213 0.22681 0.81253 0.0
C130 C 0.7288 0.1886 0.698 0.0
C131 C 0.75069 0.28727 0.69396 0.0
H132 H 0.7651 0.08248 0.75625 0.0
H133 H 0.67282 0.13424 0.65392 0.0
S134 S 0.93397 0.48983 0.83669 0.0
N135 N 0.9489 0.39427 0.86669 0.0
N136 N 0.84679 0.4506 0.75736 0.0
C137 C 0.825 0.35487 0.75255 0.0
C138 C 0.88082 0.32459 0.81163 0.0
C139 C 0.80133 0.65472 0.69635 0.0
C140 C 0.80497 0.71697 0.637 0.0
C141 C 0.82406 0.68905 0.77432 0.0
C142 C 0.85276 0.78724 0.79624 0.0
H143 H 0.77039 0.57699 0.68332 0.0
H144 H 0.81198 0.63652 0.81773 0.0
S145 S 0.90197 -0.01523 0.66173 0.0
N146 N 0.86033 0.88474 0.60452 0.0
N147 N 0.90313 0.94988 0.75083 0.0
C148 C 0.86938 0.85251 0.73705 0.0
C149 C 0.84628 0.8173 0.65756 0.0
loop_
_geom_bond_atom_site_label_1
_geom_bond_atom_site_label_2
_geom_bond_distance
_geom_bond_site_symmetry_2
_ccdc_geom_bond_type
C0 O12 1.241 . S
C0 O13 1.280 . S
C1 O14 1.277 . S
C1 O15 1.245 . S
C2 O26 1.247 . S
C2 O28 1.289 . S
Mg3 O4 1.926 . S
Mg3 O13 1.984 . S
Mg3 O15 1.988 1_554 S
Mg3 O16 2.061 1_655 S
O4 Mg3 1.926 . S
O4 Mg5 1.986 1_544 S
O4 Mg6 1.917 1_655 S
Mg5 O4 1.986 1_566 S
Mg5 O12 2.042 1_566 S
Mg5 O14 2.041 1_565 S
Mg5 O20 2.038 1_556 S
Mg5 O28 2.238 . S
Mg6 O4 1.917 1_455 S
Mg6 O7 1.917 1_544 S
Mg6 O17 2.106 . S
Mg6 O19 2.079 1_445 S
Mg6 O28 2.106 1_444 S
Mg6 O29 2.079 1_554 S
O7 Mg6 1.917 1_566 S
O7 Mg8 1.926 . S
O7 Mg9 1.986 1_566 S
Mg8 O7 1.926 . S
Mg8 O22 1.984 . S
Mg8 O25 1.988 1_556 S
Mg8 O26 2.061 1_455 S
Mg9 O7 1.986 1_544 S
Mg9 O17 2.238 . S
Mg9 O21 2.042 1_544 S
Mg9 O23 2.041 1_545 S
Mg9 O30 2.038 1_554 S
C10 O16 1.247 . S
C10 O17 1.289 . S
C11 O29 1.245 . S
C11 O30 1.274 . S
O12 C0 1.241 . S
O12 Mg5 2.042 1_544 S
O13 C0 1.280 . S
O13 Mg3 1.984 . S
O14 C1 1.277 . S
O14 Mg5 2.041 1_545 S
O15 C1 1.245 . S
O15 Mg3 1.988 1_556 S
O16 Mg3 2.061 1_455 S
O16 C10 1.247 . S
O17 Mg6 2.106 . S
O17 Mg9 2.238 . S
O17 C10 1.289 . S
C18 O19 1.245 . S
C18 O20 1.274 . S
O19 Mg6 2.079 1_665 S
O19 C18 1.245 . S
O20 Mg5 2.038 1_554 S
O20 C18 1.274 . S
O21 Mg9 2.042 1_566 S
O21 C24 1.241 . S
O22 Mg8 1.984 . S
O22 C24 1.280 . S
O23 Mg9 2.041 1_565 S
O23 C27 1.277 . S
C24 O21 1.241 . S
C24 O22 1.280 . S
O25 Mg8 1.988 1_554 S
O25 C27 1.245 . S
O26 C2 1.247 . S
O26 Mg8 2.061 1_655 S
C27 O23 1.277 . S
C27 O25 1.245 . S
O28 C2 1.289 . S
O28 Mg5 2.238 . S
O28 Mg6 2.106 1_666 S
O29 Mg6 2.079 1_556 S
O29 C11 1.245 . S
O30 Mg9 2.038 1_556 S
O30 C11 1.274 . S
C31 O43 1.241 . S
C31 O44 1.280 . S
C32 O45 1.277 . S
C32 O46 1.245 . S
C33 O57 1.247 . S
C33 O59 1.289 . S
Mg34 O35 1.926 . S
Mg34 O44 1.984 . S
Mg34 O46 1.988 . S
Mg34 O47 2.061 . S
O35 Mg34 1.926 . S
O35 Mg36 1.986 . S
O35 Mg37 1.917 . S
Mg36 O35 1.986 . S
Mg36 O43 2.042 . S
Mg36 O45 2.041 . S
Mg36 O51 2.038 . S
Mg36 O59 2.238 . S
Mg37 O35 1.917 . S
Mg37 O38 1.917 . S
Mg37 O48 2.106 . S
Mg37 O50 2.079 . S
Mg37 O59 2.106 . S
Mg37 O60 2.079 . S
O38 Mg37 1.917 . S
O38 Mg39 1.926 . S
O38 Mg40 1.986 . S
Mg39 O38 1.926 . S
Mg39 O53 1.984 . S
Mg39 O56 1.988 . S
Mg39 O57 2.061 . S
Mg40 O38 1.986 . S
Mg40 O48 2.238 . S
Mg40 O52 2.042 . S
Mg40 O54 2.041 . S
Mg40 O61 2.038 . S
C41 O47 1.247 . S
C41 O48 1.289 . S
C42 O60 1.245 . S
C42 O61 1.274 . S
O43 C31 1.241 . S
O43 Mg36 2.042 . S
O44 C31 1.280 . S
O44 Mg34 1.984 . S
O45 C32 1.277 . S
O45 Mg36 2.041 . S
O46 C32 1.245 . S
O46 Mg34 1.988 . S
O47 Mg34 2.061 . S
O47 C41 1.247 . S
O48 Mg37 2.106 . S
O48 Mg40 2.238 . S
O48 C41 1.289 . S
C49 O50 1.245 . S
C49 O51 1.274 . S
O50 Mg37 2.079 . S
O50 C49 1.245 . S
O51 Mg36 2.038 . S
O51 C49 1.274 . S
O52 Mg40 2.042 . S
O52 C55 1.241 . S
O53 Mg39 1.984 . S
O53 C55 1.280 . S
O54 Mg40 2.041 . S
O54 C58 1.277 . S
C55 O52 1.241 . S
C55 O53 1.280 . S
O56 Mg39 1.988 . S
O56 C58 1.245 . S
O57 C33 1.247 . S
O57 Mg39 2.061 . S
C58 O54 1.277 . S
C58 O56 1.245 . S
O59 C33 1.289 . S
O59 Mg36 2.238 . S
O59 Mg37 2.106 . S
O60 Mg37 2.079 . S
O60 C42 1.245 . S
O61 Mg40 2.038 . S
O61 C42 1.274 . S
C62 C63 1.369 . S
C62 C64 1.419 . S
C62 H66 0.930 . S
C63 C62 1.369 . S
C63 C72 1.429 . S
C64 C62 1.419 . S
C64 C65 1.363 . S
C64 H67 0.929 . S
C65 C64 1.363 . S
C65 C71 1.428 . S
H66 C62 0.930 . S
H67 C64 0.929 . S
S68 N69 1.613 . S
S68 N70 1.610 . S
N69 S68 1.613 . S
N69 C72 1.350 . S
N70 S68 1.610 . S
N70 C71 1.351 . S
C71 C65 1.428 . S
C71 N70 1.351 . S
C71 C72 1.434 . S
C72 C63 1.429 . S
C72 N69 1.350 . S
C72 C71 1.434 . S
C73 C74 1.369 . S
C73 C75 1.419 . S
C73 H77 0.930 . S
C74 C73 1.369 . S
C74 C83 1.429 . S
C75 C73 1.419 . S
C75 C76 1.363 . S
C75 H78 0.929 . S
C76 C75 1.363 . S
C76 C82 1.428 . S
H77 C73 0.930 . S
H78 C75 0.929 . S
S79 N80 1.613 . S
S79 N81 1.610 . S
N80 S79 1.613 . S
N80 C83 1.350 . S
N81 S79 1.610 . S
N81 C82 1.351 . S
C82 C76 1.428 . S
C82 N81 1.351 . S
C82 C83 1.434 . S
C83 C74 1.429 . S
C83 N80 1.350 . S
C83 C82 1.434 . S
C84 C85 1.369 . S
C84 C86 1.419 . S
C84 H88 0.930 . S
C85 C84 1.369 . S
C85 C94 1.429 . S
C86 C84 1.419 . S
C86 C87 1.363 . S
C86 H89 0.929 . S
C87 C86 1.363 . S
C87 C93 1.428 . S
H88 C84 0.930 . S
H89 C86 0.929 . S
S90 N91 1.613 . S
S90 N92 1.610 . S
N91 S90 1.613 . S
N91 C94 1.350 . S
N92 S90 1.610 . S
N92 C93 1.351 . S
C93 C87 1.428 . S
C93 N92 1.351 . S
C93 C94 1.434 . S
C94 C85 1.429 . S
C94 N91 1.350 . S
C94 C93 1.434 . S
C95 C96 1.369 . S
C95 C97 1.419 . S
C95 H99 0.930 . S
C96 C95 1.369 . S
C96 C105 1.429 . S
C97 C95 1.419 . S
C97 C98 1.363 . S
C97 H100 0.929 . S
C98 C97 1.363 . S
C98 C104 1.428 . S
H99 C95 0.930 . S
H100 C97 0.929 . S
S101 N102 1.613 . S
S101 N103 1.610 . S
N102 S101 1.613 . S
N102 C105 1.350 . S
N103 S101 1.610 . S
N103 C104 1.351 . S
C104 C98 1.428 . S
C104 N103 1.351 . S
C104 C105 1.434 . S
C105 C96 1.429 . S
C105 N102 1.350 . S
C105 C104 1.434 . S
C106 C107 1.369 . S
C106 C108 1.419 . S
C106 H110 0.930 . S
C107 C106 1.369 . S
C107 C116 1.429 . S
C108 C106 1.419 . S
C108 C109 1.363 . S
C108 H111 0.929 . S
C109 C108 1.363 . S
C109 C115 1.428 . S
H110 C106 0.930 . S
H111 C108 0.929 . S
S112 N113 1.613 . S
S112 N114 1.610 . S
N113 S112 1.613 . S
N113 C116 1.350 . S
N114 S112 1.610 . S
N114 C115 1.351 . S
C115 C109 1.428 . S
C115 N114 1.351 . S
C115 C116 1.434 . S
C116 C107 1.429 . S
C116 N113 1.350 . S
C116 C115 1.434 . S
C117 C118 1.369 . S
C117 C119 1.419 . S
C117 H121 0.930 . S
C118 C117 1.369 . S
C118 C127 1.429 . S
C119 C117 1.419 . S
C119 C120 1.363 . S
C119 H122 0.929 . S
C120 C119 1.363 . S
C120 C126 1.428 . S
H121 C117 0.930 . S
H122 C119 0.929 . S
S123 N124 1.613 . S
S123 N125 1.610 . S
N124 S123 1.613 . S
N124 C127 1.350 . S
N125 S123 1.610 . S
N125 C126 1.351 . S
C126 C120 1.428 . S
C126 N125 1.351 . S
C126 C127 1.434 . S
C127 C118 1.429 . S
C127 N124 1.350 . S
C127 C126 1.434 . S
C128 C129 1.369 . S
C128 C130 1.419 . S
C128 H132 0.930 . S
C129 C128 1.369 . S
C129 C138 1.429 . S
C130 C128 1.419 . S
C130 C131 1.363 . S
C130 H133 0.929 . S
C131 C130 1.363 . S
C131 C137 1.428 . S
H132 C128 0.930 . S
H133 C130 0.929 . S
S134 N135 1.613 . S
S134 N136 1.610 . S
N135 S134 1.613 . S
N135 C138 1.350 . S
N136 S134 1.610 . S
N136 C137 1.351 . S
C137 C131 1.428 . S
C137 N136 1.351 . S
C137 C138 1.434 . S
C138 C129 1.429 . S
C138 N135 1.350 . S
C138 C137 1.434 . S
C139 C140 1.369 . S
C139 C141 1.419 . S
C139 H143 0.930 . S
C140 C139 1.369 . S
C140 C149 1.429 . S
C141 C139 1.419 . S
C141 C142 1.363 . S
C141 H144 0.929 . S
C142 C141 1.363 . S
C142 C148 1.428 . S
H143 C139 0.930 . S
H144 C141 0.929 . S
S145 N146 1.613 . S
S145 N147 1.610 . S
N146 S145 1.613 . S
N146 C149 1.350 . S
N147 S145 1.610 . S
N147 C148 1.351 . S
C148 C142 1.428 . S
C148 N147 1.351 . S
C148 C149 1.434 . S
C149 C140 1.429 . S
C149 N146 1.350 . S
C149 C148 1.434 . S
C63 C10 1.083 . S
C65 C33 1.075 . S
C74 C0 1.503 . S
C76 C55 1.495 . S
C85 C18 1.585 . S
C87 C42 1.580 . S
C96 C27 1.642 . S
C98 C32 1.642 . S
C107 C24 1.504 . S
C109 C31 1.497 . S
C118 C49 1.585 . S
C120 C11 1.581 . S
C129 C1 1.640 . S
C131 C58 1.646 . S
C140 C41 1.074 . S
C142 C2 1.086 . S
