# Generated by pormake.
# Topology pcu, (6)-cn, num edge types: 1
# Building blocks:
#     Node 0, Type 0, BuildingBlock: KUMBOL_clean_sbu_1, # of connection points: 6
#     Edge 1, Type (0, 0), BuildingBlock: XUDNAN_clean_linker_2, # of connection points: 2
#     Edge 2, Type (0, 0), BuildingBlock: XUDNAN_clean_linker_2, # of connection points: 2
#     Edge 3, Type (0, 0), BuildingBlock: XUDNAN_clean_linker_2, # of connection points: 2
# Relax obj value: 0.000
# Max RMSD: 0.000
# Mean RMSD: 0.000
data_MOF--net-pcu--node1-KUMBOL_clean_sbu_1--edge1-XUDNAN_clean_linker_2
_symmetry_space_group_name_H-M    P1
_symmetry_Int_Tables_number       1
_symmetry_cell_setting            triclinic
loop_
_symmetry_equiv_pos_as_xyz
'x, y, z'
_cell_length_a     14.776196
_cell_length_b     25.047423
_cell_length_c     14.939449
_cell_angle_alpha  114.7034
_cell_angle_beta   89.281806
_cell_angle_gamma 114.64865
loop_
_atom_site_label
_atom_site_type_symbol
_atom_site_fract_x
_atom_site_fract_y
_atom_site_fract_z
_atom_type_partial_charge
C0 C 0.24837 0.20741 0.20538 0.0
C1 C 0.3846 0.22073 0.11162 0.0
C2 C 0.28134 0.18813 0.1151 0.0
C3 C 0.45352 0.27347 0.19971 0.0
C4 C 0.31734 0.26035 0.29403 0.0
C5 C 0.41995 0.29331 0.29063 0.0
N6 N 0.14908 0.17424 0.2068 0.0
C7 C 0.113 0.19198 0.2935 0.0
C8 C 0.28108 0.27857 0.38359 0.0
C9 C 0.17838 0.24428 0.38324 0.0
Gd10 Gd 0.92203 0.88702 0.92052 0.0
Gd11 Gd 0.04428 0.08936 0.053 0.0
N12 N 0.21304 0.13645 0.03128 0.0
C13 C 0.4158 0.19893 0.01987 0.0
C14 C 0.24344 0.11488 0.94182 0.0
C15 C 0.34492 0.14557 0.93472 0.0
H16 H 0.19089 0.07194 0.87713 0.0
H17 H 0.36858 0.12752 0.86379 0.0
H18 H 0.82263 0.9079 0.13124 0.0
H19 H 0.03345 0.16559 0.29341 0.0
H20 H 0.65396 0.87272 0.1757 0.0
H21 H 0.4945 0.22245 0.01424 0.0
H22 H 0.53305 0.29911 0.1984 0.0
H23 H 0.88144 0.81636 0.67028 0.0
H24 H 0.33164 0.319 0.45323 0.0
H25 H 0.14952 0.25806 0.45198 0.0
H26 H 0.42214 0.73664 0.85803 0.0
H27 H 0.47404 0.33405 0.35797 0.0
H28 H 0.56023 0.70648 0.55852 0.0
H29 H 0.7355 0.74613 0.52706 0.0
N30 N 0.78938 0.81913 0.78035 0.0
C31 C 0.69394 0.7963 0.79949 0.0
C32 C 0.80513 0.80087 0.68428 0.0
C33 C 0.62393 0.73779 0.6214 0.0
C34 C 0.72273 0.76032 0.60331 0.0
C35 C 0.60847 0.75546 0.72035 0.0
H36 H 0.44408 0.70272 0.68251 0.0
N37 N 0.76551 0.8569 0.97381 0.0
C38 C 0.68156 0.81524 0.89889 0.0
C39 C 0.57372 0.81537 0.02186 0.0
C40 C 0.58338 0.79412 0.92108 0.0
C41 C 0.75653 0.87642 0.07208 0.0
C42 C 0.66069 0.8564 0.09757 0.0
O43 O 0.15318 0.04872 0.05616 0.0
O44 O 0.0888 0.94441 0.92028 0.0
O45 O 0.91998 0.81965 0.97691 0.0
O46 O 0.93596 0.79829 0.82391 0.0
O47 O 0.97524 0.02666 0.88691 0.0
O48 O 0.99453 0.93133 0.81702 0.0
O49 O 0.81991 0.93375 0.91468 0.0
O50 O 0.89727 0.01965 0.06573 0.0
O51 O 0.04163 0.15617 0.99533 0.0
O52 O 0.96227 0.14636 0.11434 0.0
O53 O 0.9955 0.94155 0.0872 0.0
O54 O 1.00866 0.04828 0.16479 0.0
C55 C 0.16199 0.99602 0.99468 0.0
C56 C 0.99682 0.98398 0.81427 0.0
C57 C 0.02088 0.76684 0.91059 0.0
C58 C 0.08236 0.69438 0.92932 0.0
C59 C 0.2012 0.80536 0.95873 0.0
C60 C 0.12101 0.8163 0.93739 0.0
C61 C 0.18254 0.74468 0.95326 0.0
C62 C 1.00142 0.70589 0.90708 0.0
C63 C 0.93712 0.78136 0.89513 0.0
C64 C 0.49815 0.75323 0.84234 0.0
C65 C 0.51065 0.73397 0.74234 0.0
H66 H 0.49958 0.80035 0.04197 0.0
C67 C 0.82081 0.98498 0.99103 0.0
C68 C 1.0148 0.99759 0.16735 0.0
C69 C 0.02271 0.2499 0.11279 0.0
C70 C 0.05039 0.35201 0.10705 0.0
C71 C 0.06417 0.35002 0.26758 0.0
C72 C 0.03946 0.28336 0.21823 0.0
C73 C 0.06931 0.38411 0.2128 0.0
C74 C 0.02782 0.28462 0.05737 0.0
C75 C 0.99019 0.17785 0.06041 0.0
H76 H 0.27794 0.84457 0.98151 0.0
H77 H 0.13668 0.86383 0.94373 0.0
H78 H 0.24691 0.73757 0.96893 0.0
H79 H 0.92353 0.66872 0.89061 0.0
H80 H 0.07655 0.37496 0.34878 0.0
H81 H 0.03038 0.25796 0.26323 0.0
H82 H 0.08452 0.43522 0.25366 0.0
H83 H 1.0126 0.25896 0.97601 0.0
H84 H 0.95016 0.89916 0.2294 0.0
H85 H 0.13913 0.10814 0.33229 0.0
H86 H 0.15575 0.12613 0.50686 0.0
H87 H 0.81955 0.90677 0.42756 0.0
H88 H 0.82445 0.83941 0.43996 0.0
H89 H 0.82863 0.84122 0.32067 0.0
H90 H 0.99744 0.83258 0.3152 0.0
H91 H 0.99313 0.82997 0.43405 0.0
H92 H 0.10316 0.89136 0.41913 0.0
H93 H 0.12396 0.12457 0.6674 0.0
H94 H 0.08433 0.10178 0.81109 0.0
H95 H 0.94709 0.89156 0.61206 0.0
C96 C 0.99613 0.94846 0.2887 0.0
C97 C 0.03811 0.0034 0.2681 0.0
C98 C 0.09994 0.0666 0.34724 0.0
C99 C 0.1115 0.07699 0.44651 0.0
C100 C 0.06427 0.02288 0.46531 0.0
C101 C 1.01113 0.95946 0.389 0.0
C102 C 0.97041 0.9104 0.43197 0.0
C103 C 0.85384 0.87221 0.40332 0.0
C104 C 0.01896 0.86328 0.39807 0.0
C105 C 1.00601 0.95683 0.54403 0.0
C106 C 0.05842 0.02146 0.56063 0.0
C107 C 0.08725 0.07412 0.65604 0.0
C108 C 0.06412 0.06052 0.73733 0.0
C109 C 0.01697 0.99482 0.72412 0.0
C110 C 0.98711 0.94219 0.62563 0.0
H111 H 0.25531 0.93367 0.85307 0.0
H112 H 0.29861 0.06654 0.16854 0.0
H113 H 0.46904 0.07662 0.19846 0.0
H114 H 0.40106 0.84811 0.88469 0.0
H115 H 0.44771 0.84538 0.77233 0.0
H116 H 0.32644 0.84544 0.7866 0.0
H117 H 0.40191 0.94748 0.74677 0.0
H118 H 0.52452 0.94838 0.74683 0.0
H119 H 0.51288 0.02079 0.83091 0.0
H120 H 0.63199 0.07446 0.19766 0.0
H121 H 0.78532 0.06022 0.16618 0.0
H122 H 0.64472 0.92801 0.85119 0.0
C123 C 0.30056 0.9642 0.92844 0.0
C124 C 0.26336 0.99909 0.00865 0.0
C125 C 0.32535 0.03951 0.1059 0.0
C126 C 0.42222 0.04537 0.1239 0.0
C127 C 0.45671 0.01061 0.04393 0.0
C128 C 0.39846 0.97063 0.94804 0.0
C129 C 0.45766 0.94135 0.87558 0.0
C130 C 0.40479 0.8656 0.827 0.0
C131 C 0.47529 0.96598 0.79528 0.0
C132 C 0.55652 0.96987 0.94688 0.0
C133 C 0.55377 0.01005 0.04321 0.0
C134 C 0.63527 0.04301 0.12267 0.0
C135 C 0.72226 0.03458 0.10373 0.0
C136 C 0.72729 0.993 0.00613 0.0
C137 C 0.64301 0.96005 0.92654 0.0
H138 H 0.18601 0.67978 0.06162 0.0
H139 H 0.93534 0.56733 0.80658 0.0
H140 H 0.90567 0.46506 0.81579 0.0
H141 H 0.28129 0.55806 0.99011 0.0
H142 H 0.31639 0.57648 0.11855 0.0
H143 H 0.31802 0.63985 0.08968 0.0
H144 H 0.19728 0.65985 0.21309 0.0
H145 H 0.19539 0.59672 0.24242 0.0
H146 H 0.07793 0.59164 0.19773 0.0
H147 H 0.90015 0.37516 0.85956 0.0
H148 H 0.91609 0.30829 0.9365 0.0
H149 H 0.17902 0.48045 0.15297 0.0
C150 C 0.12605 0.63369 0.00602 0.0
C151 C 0.06357 0.63193 0.9328 0.0
C152 C 0.98386 0.57034 0.864 0.0
C153 C 0.96699 0.51184 0.86807 0.0
C154 C 0.03093 0.5156 0.94081 0.0
C155 C 0.10902 0.57512 0.00826 0.0
C156 C 0.16576 0.56682 0.08107 0.0
C157 C 0.27694 0.58646 0.06908 0.0
C158 C 0.15859 0.60607 0.18998 0.0
C159 C 0.10647 0.49336 0.0454 0.0
C160 C 0.02913 0.46436 0.96425 0.0
C161 C 0.96129 0.39734 0.92231 0.0
C162 C 0.97144 0.35956 0.96605 0.0
C163 C 0.0488 0.38894 0.05094 0.0
C164 C 0.11848 0.45639 0.08875 0.0
loop_
_geom_bond_atom_site_label_1
_geom_bond_atom_site_label_2
_geom_bond_distance
_geom_bond_site_symmetry_2
_ccdc_geom_bond_type
C0 C2 1.422 . S
C0 C4 1.415 . S
C0 N6 1.369 . S
C1 C2 1.421 . S
C1 C3 1.417 . S
C1 C13 1.422 . S
C2 C0 1.422 . S
C2 C1 1.421 . S
C2 N12 1.359 . S
C3 C1 1.417 . S
C3 C5 1.329 . S
C3 H22 0.930 . S
C4 C0 1.415 . S
C4 C5 1.437 . S
C4 C8 1.413 . S
C5 C3 1.329 . S
C5 C4 1.437 . S
C5 H27 0.929 . S
N6 C0 1.369 . S
N6 C7 1.338 . S
N6 Gd11 2.622 . S
C7 N6 1.338 . S
C7 C9 1.378 . S
C7 H19 0.929 . S
C8 C4 1.413 . S
C8 C9 1.348 . S
C8 H24 0.931 . S
C9 C7 1.378 . S
C9 C8 1.348 . S
C9 H25 0.930 . S
Gd10 N30 2.622 . S
Gd10 N37 2.570 . S
Gd10 O44 2.353 1_655 S
Gd10 O45 2.468 . S
Gd10 O46 2.427 . S
Gd10 O48 2.388 . S
Gd10 O49 2.386 . S
Gd10 O53 2.307 1_556 S
Gd10 C63 2.805 . S
Gd11 N6 2.622 . S
Gd11 N12 2.570 . S
Gd11 O43 2.386 . S
Gd11 O47 2.307 1_554 S
Gd11 O50 2.353 1_455 S
Gd11 O51 2.468 . S
Gd11 O52 2.427 . S
Gd11 O54 2.388 . S
Gd11 C75 2.805 . S
N12 C2 1.359 . S
N12 Gd11 2.570 . S
N12 C14 1.343 1_554 S
C13 C1 1.422 . S
C13 C15 1.321 1_554 S
C13 H21 0.931 1_554 S
C14 N12 1.343 1_556 S
C14 C15 1.390 . S
C14 H16 0.931 . S
C15 C13 1.321 1_556 S
C15 C14 1.390 . S
C15 H17 0.930 . S
H16 C14 0.931 . S
H17 C15 0.930 . S
H18 C41 0.931 . S
H19 C7 0.929 . S
H20 C42 0.930 . S
H21 C13 0.931 1_556 S
H22 C3 0.930 . S
H23 C32 0.929 . S
H24 C8 0.931 . S
H25 C9 0.930 . S
H26 C64 0.930 . S
H27 C5 0.929 . S
H28 C33 0.931 . S
H29 C34 0.930 . S
N30 Gd10 2.622 . S
N30 C31 1.369 . S
N30 C32 1.338 . S
C31 N30 1.369 . S
C31 C35 1.415 . S
C31 C38 1.422 . S
C32 H23 0.929 . S
C32 N30 1.338 . S
C32 C34 1.378 . S
C33 H28 0.931 . S
C33 C34 1.348 . S
C33 C35 1.413 . S
C34 H29 0.930 . S
C34 C32 1.378 . S
C34 C33 1.348 . S
C35 C31 1.415 . S
C35 C33 1.413 . S
C35 C65 1.437 . S
H36 C65 0.929 . S
N37 Gd10 2.570 . S
N37 C38 1.359 . S
N37 C41 1.343 1_556 S
C38 C31 1.422 . S
C38 N37 1.359 . S
C38 C40 1.421 . S
C39 C40 1.422 . S
C39 C42 1.321 1_556 S
C39 H66 0.931 1_556 S
C40 C38 1.421 . S
C40 C39 1.422 . S
C40 C64 1.417 . S
C41 H18 0.931 . S
C41 N37 1.343 1_554 S
C41 C42 1.390 . S
C42 H20 0.930 . S
C42 C39 1.321 1_554 S
C42 C41 1.390 . S
O43 Gd11 2.386 . S
O43 C55 1.263 1_545 S
O44 Gd10 2.353 1_455 S
O44 C55 1.243 1_556 S
O45 Gd10 2.468 . S
O45 C63 1.263 . S
O46 Gd10 2.427 . S
O46 C63 1.252 . S
O47 Gd11 2.307 1_556 S
O47 C56 1.261 1_545 S
O48 Gd10 2.388 . S
O48 C56 1.252 1_655 S
O49 Gd10 2.386 . S
O49 C67 1.259 1_565 S
O50 Gd11 2.353 1_655 S
O50 C67 1.245 1_554 S
O51 Gd11 2.468 . S
O51 C75 1.263 . S
O52 Gd11 2.427 . S
O52 C75 1.252 . S
O53 Gd10 2.307 1_554 S
O53 C68 1.261 1_565 S
O54 Gd11 2.388 . S
O54 C68 1.252 1_455 S
C55 O43 1.263 1_565 S
C55 O44 1.243 1_554 S
C56 O47 1.261 1_565 S
C56 O48 1.252 1_455 S
C57 C60 1.394 . S
C57 C62 1.370 . S
C57 C63 1.500 . S
C58 C61 1.383 . S
C58 C62 1.395 . S
C59 C60 1.396 . S
C59 C61 1.365 . S
C59 H76 0.929 . S
C60 C57 1.394 . S
C60 C59 1.396 . S
C60 H77 0.930 . S
C61 C58 1.383 . S
C61 C59 1.365 . S
C61 H78 0.931 . S
C62 C57 1.370 . S
C62 C58 1.395 . S
C62 H79 0.930 1_556 S
C63 Gd10 2.805 . S
C63 O45 1.263 . S
C63 O46 1.252 . S
C63 C57 1.500 . S
C64 H26 0.930 . S
C64 C40 1.417 . S
C64 C65 1.329 . S
C65 C35 1.437 . S
C65 H36 0.929 . S
C65 C64 1.329 . S
H66 C39 0.931 1_554 S
C67 O49 1.259 1_545 S
C67 O50 1.245 1_556 S
C68 O53 1.261 1_545 S
C68 O54 1.252 1_655 S
C69 C72 1.394 . S
C69 C74 1.370 . S
C69 C75 1.500 . S
C70 C73 1.383 . S
C70 C74 1.395 . S
C71 C72 1.396 . S
C71 C73 1.365 . S
C71 H80 0.929 . S
C72 C69 1.394 . S
C72 C71 1.396 . S
C72 H81 0.930 . S
C73 C70 1.383 . S
C73 C71 1.365 . S
C73 H82 0.931 . S
C74 C69 1.370 . S
C74 C70 1.395 . S
C74 H83 0.930 1_554 S
C75 Gd11 2.805 . S
C75 O51 1.263 . S
C75 O52 1.252 . S
C75 C69 1.500 . S
H76 C59 0.929 . S
H77 C60 0.930 . S
H78 C61 0.931 . S
H79 C62 0.930 1_554 S
H80 C71 0.929 . S
H81 C72 0.930 . S
H82 C73 0.931 . S
H83 C74 0.930 1_556 S
H84 C96 0.930 . S
H85 C98 0.930 . S
H86 C99 0.930 . S
H87 C103 0.959 . S
H88 C103 0.959 . S
H89 C103 0.961 . S
H90 C104 0.960 . S
H91 C104 0.961 . S
H92 C104 0.959 1_455 S
H93 C107 0.929 . S
H94 C108 0.931 . S
H95 C110 0.930 . S
C96 H84 0.930 . S
C96 C97 1.399 1_665 S
C96 C101 1.399 . S
C97 C96 1.399 1_445 S
C97 C98 1.376 . S
C98 H85 0.930 . S
C98 C97 1.376 . S
C98 C99 1.388 . S
C99 H86 0.930 . S
C99 C98 1.388 . S
C99 C100 1.390 . S
C100 C99 1.390 . S
C100 C101 1.394 1_445 S
C100 C106 1.465 . S
C101 C96 1.399 . S
C101 C100 1.394 1_665 S
C101 C102 1.516 . S
C102 C101 1.516 . S
C102 C103 1.502 . S
C102 C104 1.561 . S
C102 C105 1.526 . S
C103 H87 0.959 . S
C103 H88 0.959 . S
C103 H89 0.961 . S
C103 C102 1.502 . S
C104 H90 0.960 . S
C104 H91 0.961 . S
C104 H92 0.959 1_655 S
C104 C102 1.561 . S
C105 C102 1.526 . S
C105 C106 1.396 1_665 S
C105 C110 1.390 . S
C106 C100 1.465 . S
C106 C105 1.396 1_445 S
C106 C107 1.399 . S
C107 H93 0.929 . S
C107 C106 1.399 . S
C107 C108 1.385 . S
C108 H94 0.931 . S
C108 C107 1.385 . S
C108 C109 1.389 . S
C109 C108 1.389 . S
C109 C110 1.387 1_445 S
C110 H95 0.930 . S
C110 C105 1.390 . S
C110 C109 1.387 1_665 S
H111 C123 0.930 . S
H112 C125 0.930 . S
H113 C126 0.930 . S
H114 C130 0.959 . S
H115 C130 0.959 . S
H116 C130 0.961 . S
H117 C131 0.960 . S
H118 C131 0.961 1_565 S
H119 C131 0.959 . S
H120 C134 0.929 . S
H121 C135 0.931 . S
H122 C137 0.930 . S
C123 H111 0.930 . S
C123 C124 1.399 1_566 S
C123 C128 1.399 . S
C124 C123 1.399 1_544 S
C124 C125 1.376 . S
C125 H112 0.930 . S
C125 C124 1.376 . S
C125 C126 1.388 . S
C126 H113 0.930 . S
C126 C125 1.388 . S
C126 C127 1.390 . S
C127 C126 1.390 . S
C127 C128 1.394 1_544 S
C127 C133 1.465 . S
C128 C123 1.399 . S
C128 C127 1.394 1_566 S
C128 C129 1.516 . S
C129 C128 1.516 . S
C129 C130 1.502 . S
C129 C131 1.561 1_565 S
C129 C132 1.526 . S
C130 H114 0.959 . S
C130 H115 0.959 . S
C130 H116 0.961 . S
C130 C129 1.502 . S
C131 H117 0.960 . S
C131 H118 0.961 1_545 S
C131 H119 0.959 . S
C131 C129 1.561 1_545 S
C132 C129 1.526 . S
C132 C133 1.396 1_566 S
C132 C137 1.390 . S
C133 C127 1.465 . S
C133 C132 1.396 1_544 S
C133 C134 1.399 . S
C134 H120 0.929 . S
C134 C133 1.399 . S
C134 C135 1.385 . S
C135 H121 0.931 . S
C135 C134 1.385 . S
C135 C136 1.389 . S
C136 C135 1.389 . S
C136 C137 1.387 1_544 S
C137 H122 0.930 . S
C137 C132 1.390 . S
C137 C136 1.387 1_566 S
H138 C150 0.930 . S
H139 C152 0.930 . S
H140 C153 0.930 . S
H141 C157 0.959 . S
H142 C157 0.959 . S
H143 C157 0.961 . S
H144 C158 0.960 . S
H145 C158 0.961 1_455 S
H146 C158 0.959 . S
H147 C161 0.929 . S
H148 C162 0.931 . S
H149 C164 0.930 . S
C150 H138 0.930 . S
C150 C151 1.399 1_454 S
C150 C155 1.399 . S
C151 C150 1.399 1_656 S
C151 C152 1.376 . S
C152 H139 0.930 . S
C152 C151 1.376 . S
C152 C153 1.388 . S
C153 H140 0.930 . S
C153 C152 1.388 . S
C153 C154 1.390 . S
C154 C153 1.390 . S
C154 C155 1.394 1_656 S
C154 C160 1.465 . S
C155 C150 1.399 . S
C155 C154 1.394 1_454 S
C155 C156 1.516 . S
C156 C155 1.516 . S
C156 C157 1.502 . S
C156 C158 1.561 1_455 S
C156 C159 1.526 . S
C157 H141 0.959 . S
C157 H142 0.959 . S
C157 H143 0.961 . S
C157 C156 1.502 . S
C158 H144 0.960 . S
C158 H145 0.961 1_655 S
C158 H146 0.959 . S
C158 C156 1.561 1_655 S
C159 C156 1.526 . S
C159 C160 1.396 1_454 S
C159 C164 1.390 . S
C160 C154 1.465 . S
C160 C159 1.396 1_656 S
C160 C161 1.399 . S
C161 H147 0.929 . S
C161 C160 1.399 . S
C161 C162 1.385 . S
C162 H148 0.931 . S
C162 C161 1.385 . S
C162 C163 1.389 . S
C163 C162 1.389 . S
C163 C164 1.387 1_656 S
C164 H149 0.930 . S
C164 C159 1.390 . S
C164 C163 1.387 1_454 S
C97 C68 1.470 1_455 S
C109 C56 1.484 1_545 S
C124 C55 1.483 1_545 S
C136 C67 1.501 1_554 S
C151 C58 1.305 . S
C163 C70 1.405 1_656 S
