# Generated by pormake.
# Topology mok, (4)-cn, num edge types: 1
# Building blocks:
#     Node 0, Type 0, BuildingBlock: AZAVOO_clean_sbu_0, # of connection points: 4
#     Node 1, Type 0, BuildingBlock: AZAVOO_clean_sbu_0, # of connection points: 4
#     Node 2, Type 0, BuildingBlock: AZAVOO_clean_sbu_0, # of connection points: 4
#     Node 3, Type 0, BuildingBlock: AZAVOO_clean_sbu_0, # of connection points: 4
#     Node 4, Type 0, BuildingBlock: AZAVOO_clean_sbu_0, # of connection points: 4
#     Node 5, Type 0, BuildingBlock: AZAVOO_clean_sbu_0, # of connection points: 4
#     Node 6, Type 0, BuildingBlock: AZAVOO_clean_sbu_0, # of connection points: 4
#     Node 7, Type 0, BuildingBlock: AZAVOO_clean_sbu_0, # of connection points: 4
#     Edge 8, Type (0, 0), BuildingBlock: EYOCIG_clean_linker_4, # of connection points: 2
#     Edge 9, Type (0, 0), BuildingBlock: EYOCIG_clean_linker_4, # of connection points: 2
#     Edge 10, Type (0, 0), BuildingBlock: EYOCIG_clean_linker_4, # of connection points: 2
#     Edge 11, Type (0, 0), BuildingBlock: EYOCIG_clean_linker_4, # of connection points: 2
#     Edge 12, Type (0, 0), BuildingBlock: EYOCIG_clean_linker_4, # of connection points: 2
#     Edge 13, Type (0, 0), BuildingBlock: EYOCIG_clean_linker_4, # of connection points: 2
#     Edge 14, Type (0, 0), BuildingBlock: EYOCIG_clean_linker_4, # of connection points: 2
#     Edge 15, Type (0, 0), BuildingBlock: EYOCIG_clean_linker_4, # of connection points: 2
#     Edge 16, Type (0, 0), BuildingBlock: EYOCIG_clean_linker_4, # of connection points: 2
#     Edge 17, Type (0, 0), BuildingBlock: EYOCIG_clean_linker_4, # of connection points: 2
#     Edge 18, Type (0, 0), BuildingBlock: EYOCIG_clean_linker_4, # of connection points: 2
#     Edge 19, Type (0, 0), BuildingBlock: EYOCIG_clean_linker_4, # of connection points: 2
#     Edge 20, Type (0, 0), BuildingBlock: EYOCIG_clean_linker_4, # of connection points: 2
#     Edge 21, Type (0, 0), BuildingBlock: EYOCIG_clean_linker_4, # of connection points: 2
#     Edge 22, Type (0, 0), BuildingBlock: EYOCIG_clean_linker_4, # of connection points: 2
#     Edge 23, Type (0, 0), BuildingBlock: EYOCIG_clean_linker_4, # of connection points: 2
# Relax obj value: 0.032
# Max RMSD: 0.042
# Mean RMSD: 0.042
data_MOF--net-mok--node1-AZAVOO_clean_sbu_0--edge1-EYOCIG_clean_linker_4
_symmetry_space_group_name_H-M    P1
_symmetry_Int_Tables_number       1
_symmetry_cell_setting            triclinic
loop_
_symmetry_equiv_pos_as_xyz
'x, y, z'
_cell_length_a     34.425557
_cell_length_b     17.560585
_cell_length_c     21.57225
_cell_angle_alpha  90.060251
_cell_angle_beta   89.988774
_cell_angle_gamma 89.978748
loop_
_atom_site_label
_atom_site_type_symbol
_atom_site_fract_x
_atom_site_fract_y
_atom_site_fract_z
_atom_type_partial_charge
Mg0 Mg 0.56292 0.32347 0.01024 0.0
O1 O 0.62651 0.29009 0.00695 0.0
O2 O 0.64044 0.22577 0.09324 0.0
Mg3 Mg 0.58543 0.22291 0.15343 0.0
C4 C 0.65006 0.25339 0.04087 0.0
C5 C 0.55562 0.41126 0.88882 0.0
O6 O 0.53352 0.45224 0.92539 0.0
O7 O 0.54408 0.20131 -0.00989 0.0
O8 O 0.55445 0.14585 0.08218 0.0
O9 O 0.57789 0.43225 0.05908 0.0
O10 O 0.56205 0.32596 0.10779 0.0
C11 C 0.54214 0.14409 0.02635 0.0
C12 C 0.57287 0.39602 0.11063 0.0
O13 O 0.57031 0.34984 0.90841 0.0
Mg14 Mg 0.42502 0.64386 0.0103 0.0
O15 O 0.36147 0.677 0.0064 0.0
O16 O 0.34735 0.7436 0.09146 0.0
Mg17 Mg 0.40216 0.74654 0.15229 0.0
C18 C 0.33786 0.71477 0.03944 0.0
C19 C 0.43028 0.55665 0.88699 0.0
O20 O 0.45235 0.51309 0.92148 0.0
O21 O 0.44436 0.76538 0.98946 0.0
O22 O 0.43408 0.82203 0.08116 0.0
O23 O 0.41011 0.53583 0.06021 0.0
O24 O 0.42613 0.64274 0.10799 0.0
C25 C 0.44666 0.82284 0.02547 0.0
C26 C 0.41546 0.57266 0.11145 0.0
O27 O 0.41681 0.61809 0.90863 0.0
Mg28 Mg 0.56271 0.64384 0.48724 0.0
O29 O 0.62628 0.67739 0.49111 0.0
O30 O 0.64031 0.74232 0.40517 0.0
Mg31 Mg 0.58547 0.74525 0.34459 0.0
C32 C 0.64985 0.71441 0.45747 0.0
C33 C 0.55651 0.55564 0.60912 0.0
O34 O 0.53614 0.51171 0.5723 0.0
O35 O 0.54346 0.76569 0.50748 0.0
O36 O 0.55398 0.82181 0.41574 0.0
O37 O 0.57802 0.5353 0.43804 0.0
O38 O 0.5621 0.64173 0.38963 0.0
C39 C 0.54144 0.8231 0.47146 0.0
C40 C 0.57303 0.57174 0.38659 0.0
O41 O 0.56974 0.6182 0.5893 0.0
Mg42 Mg 0.4248 0.32373 0.48781 0.0
O43 O 0.36112 0.292 0.49095 0.0
O44 O 0.34693 0.2258 0.40575 0.0
Mg45 Mg 0.4021 0.22136 0.34573 0.0
C46 C 0.3374 0.25495 0.45764 0.0
C47 C 0.43149 0.41053 0.61051 0.0
O48 O 0.45613 0.4493 0.57668 0.0
O49 O 0.44345 0.20173 0.5092 0.0
O50 O 0.43332 0.14535 0.41736 0.0
O51 O 0.41055 0.43191 0.43791 0.0
O52 O 0.42636 0.32479 0.39014 0.0
C53 C 0.44564 0.14422 0.47319 0.0
C54 C 0.41587 0.39503 0.38669 0.0
O55 O 0.4159 0.35102 0.58899 0.0
Mg56 Mg 0.06298 0.82397 0.01015 0.0
O57 O 0.12663 0.7915 0.00581 0.0
O58 O 0.14141 0.72744 0.0918 0.0
Mg59 Mg 0.08682 0.72415 0.15308 0.0
C60 C 0.15057 0.75521 0.03928 0.0
C61 C 0.05511 0.9105 0.88795 0.0
O62 O 0.0321 0.95065 0.92369 0.0
O63 O 0.04396 0.70156 -0.0092 0.0
O64 O 0.05498 0.64686 0.08299 0.0
O65 O 0.07799 0.93296 0.05881 0.0
O66 O 0.06254 0.82662 0.10774 0.0
C67 C 0.04212 0.64473 0.02749 0.0
C68 C 0.07321 0.89675 0.11043 0.0
O69 O 0.07032 0.84992 0.90823 0.0
Mg70 Mg 0.92506 0.14368 0.0109 0.0
O71 O 0.86139 0.17622 0.00703 0.0
O72 O 0.84687 0.24011 0.09338 0.0
Mg73 Mg 0.90161 0.24349 0.15424 0.0
C74 C 0.83755 0.21241 0.04086 0.0
C75 C 0.93135 0.05658 0.88832 0.0
O76 O 0.9521 0.01272 0.9246 0.0
O77 O 0.94408 0.26595 -0.00819 0.0
O78 O 0.9332 0.32088 0.08403 0.0
O79 O 0.90998 0.03465 0.05934 0.0
O80 O 0.92555 0.14092 0.10844 0.0
C81 C 0.94595 0.32288 0.02846 0.0
C82 C 0.91478 0.07086 0.11101 0.0
O83 O 0.91799 0.11883 0.90867 0.0
Mg84 Mg 0.06279 0.14403 0.48713 0.0
O85 O 0.12636 0.17729 0.49152 0.0
O86 O 0.1409 0.2413 0.40535 0.0
Mg87 Mg 0.08643 0.24374 0.34393 0.0
C88 C 0.15013 0.21394 0.45798 0.0
C89 C 0.05649 0.05692 0.6098 0.0
O90 O 0.03593 0.01264 0.57353 0.0
O91 O 0.0437 0.26632 0.50618 0.0
O92 O 0.05476 0.3212 0.41407 0.0
O93 O 0.07804 0.03495 0.43851 0.0
O94 O 0.06251 0.1412 0.38956 0.0
C95 C 0.04197 0.32326 0.46962 0.0
C96 C 0.07325 0.07112 0.38687 0.0
O97 O 0.06965 0.11926 0.58942 0.0
Mg98 Mg 0.92474 0.82424 0.48724 0.0
O99 O 0.86114 0.79123 0.49108 0.0
O100 O 0.84681 0.72688 0.40492 0.0
Mg101 Mg 0.90164 0.72374 0.34418 0.0
C102 C 0.83739 0.75475 0.45734 0.0
C103 C 0.93231 0.91113 0.60933 0.0
O104 O 0.95493 0.95173 0.57339 0.0
O105 O 0.94406 0.70221 0.5068 0.0
O106 O 0.93347 0.64702 0.4146 0.0
O107 O 0.90951 0.93293 0.43864 0.0
O108 O 0.92538 0.82664 0.38972 0.0
C109 C 0.94618 0.64526 0.47019 0.0
C110 C 0.91448 0.89665 0.38704 0.0
O111 O 0.91733 0.85026 0.58913 0.0
C112 C 0.76406 0.22717 0.00978 0.0
C113 C 0.79801 0.21838 0.02087 0.0
C114 C 0.72351 0.23715 0.00989 0.0
C115 C 0.68961 0.24654 0.02107 0.0
C116 C 0.22396 0.74042 0.00742 0.0
C117 C 0.19005 0.74925 0.01885 0.0
C118 C 0.26453 0.73053 0.00753 0.0
C119 C 0.29839 0.72125 0.01913 0.0
C120 C 0.76387 0.74014 0.48849 0.0
C121 C 0.79782 0.74883 0.47728 0.0
C122 C 0.7233 0.73036 0.48855 0.0
C123 C 0.6894 0.72104 0.47738 0.0
C124 C 0.2234 0.23072 0.48968 0.0
C125 C 0.18954 0.22094 0.47844 0.0
C126 C 0.26394 0.24081 0.4893 0.0
C127 C 0.29785 0.24929 0.47772 0.0
C128 C 0.58021 0.46551 0.21926 0.0
C129 C 0.57692 0.43421 0.16952 0.0
C130 C 0.58026 0.50268 0.27773 0.0
C131 C 0.57702 0.53378 0.32756 0.0
C132 C 0.40959 0.50306 0.22016 0.0
C133 C 0.41227 0.53487 0.1706 0.0
C134 C 0.40972 0.46472 0.27807 0.0
C135 C 0.41254 0.4328 0.32756 0.0
C136 C 0.41306 0.50468 0.77651 0.0
C137 C 0.41955 0.5322 0.82633 0.0
C138 C 0.41329 0.46836 0.7187 0.0
C139 C 0.42019 0.4387 0.66983 0.0
C140 C 0.57066 0.46752 0.77877 0.0
C141 C 0.56498 0.43869 0.82838 0.0
C142 C 0.57084 0.50313 0.7206 0.0
C143 C 0.56547 0.5306 0.6704 0.0
C144 C 0.0806 0.96577 0.21923 0.0
C145 C 0.07733 0.93493 0.16931 0.0
C146 C 0.08063 0.00225 0.27798 0.0
C147 C 0.07737 0.03297 0.32796 0.0
C148 C 0.90711 0.96552 0.27835 0.0
C149 C 0.91038 0.9347 0.3282 0.0
C150 C 0.90717 0.00206 0.21971 0.0
C151 C 0.91054 0.0328 0.16984 0.0
C152 C 0.91659 0.96773 0.71908 0.0
C153 C 0.92251 0.93866 0.66959 0.0
C154 C 0.91638 0.00379 0.77711 0.0
C155 C 0.92197 0.03154 0.82718 0.0
C156 C 0.07132 0.96801 0.7788 0.0
C157 C 0.06523 0.93849 0.828 0.0
C158 C 0.0716 0.00443 0.72097 0.0
C159 C 0.06598 0.03218 0.67095 0.0
C160 C 0.48476 0.94794 -0.00351 0.0
C161 C 0.46781 0.8889 0.00555 0.0
C162 C 0.50541 0.01745 -0.00313 0.0
C163 C 0.52177 0.07705 0.0064 0.0
C164 C 0.50413 0.94907 0.50133 0.0
C165 C 0.52075 0.88977 0.49154 0.0
C166 C 0.48339 0.01854 0.50202 0.0
C167 C 0.46659 0.07785 0.49312 0.0
C168 C 0.00433 0.51849 9e-05 0.0
C169 C 0.02113 0.57786 0.00866 0.0
C170 C 0.98356 0.44906 0.00039 0.0
C171 C 0.96681 0.38973 0.00939 0.0
C172 C 0.00479 0.44991 0.49788 0.0
C173 C 0.02133 0.39036 0.48882 0.0
C174 C 0.98412 0.51944 0.49808 0.0
C175 C 0.96724 0.57867 0.48932 0.0
loop_
_geom_bond_atom_site_label_1
_geom_bond_atom_site_label_2
_geom_bond_distance
_geom_bond_site_symmetry_2
_ccdc_geom_bond_type
Mg0 O1 2.028 . S
Mg0 O7 1.986 . S
Mg0 O9 2.114 . S
Mg0 O10 2.251 . S
Mg0 O13 2.010 1_554 S
O1 Mg0 2.028 . S
O1 C4 1.250 . S
O2 Mg3 2.028 . S
O2 C4 1.248 . S
Mg3 O2 2.028 . S
Mg3 O8 2.032 . S
Mg3 O10 2.079 . S
C4 O1 1.250 . S
C4 O2 1.248 . S
C5 O6 1.264 . S
C5 O13 1.249 . S
O6 C5 1.264 . S
O7 Mg0 1.986 . S
O7 C11 1.246 . S
O8 Mg3 2.032 . S
O8 C11 1.259 . S
O9 Mg0 2.114 . S
O9 C12 1.252 . S
O10 Mg0 2.251 . S
O10 Mg3 2.079 . S
O10 C12 1.273 . S
C11 O7 1.246 . S
C11 O8 1.259 . S
C12 O9 1.252 . S
C12 O10 1.273 . S
O13 Mg0 2.010 1_556 S
O13 C5 1.249 . S
Mg14 O15 2.028 . S
Mg14 O21 1.986 . S
Mg14 O23 2.114 . S
Mg14 O24 2.251 . S
Mg14 O27 2.010 1_554 S
O15 Mg14 2.028 . S
O15 C18 1.250 . S
O16 Mg17 2.028 . S
O16 C18 1.248 . S
Mg17 O16 2.028 . S
Mg17 O22 2.032 . S
Mg17 O24 2.079 . S
C18 O15 1.250 . S
C18 O16 1.248 . S
C19 O20 1.264 . S
C19 O27 1.249 . S
O20 C19 1.264 . S
O21 Mg14 1.986 . S
O21 C25 1.246 . S
O22 Mg17 2.032 . S
O22 C25 1.259 . S
O23 Mg14 2.114 . S
O23 C26 1.252 . S
O24 Mg14 2.251 . S
O24 Mg17 2.079 . S
O24 C26 1.273 . S
C25 O21 1.246 . S
C25 O22 1.259 . S
C26 O23 1.252 . S
C26 O24 1.273 . S
O27 Mg14 2.010 1_556 S
O27 C19 1.249 . S
Mg28 O29 2.028 . S
Mg28 O35 1.986 . S
Mg28 O37 2.114 . S
Mg28 O38 2.251 . S
Mg28 O41 2.010 . S
O29 Mg28 2.028 . S
O29 C32 1.250 . S
O30 Mg31 2.028 . S
O30 C32 1.248 . S
Mg31 O30 2.028 . S
Mg31 O36 2.032 . S
Mg31 O38 2.079 . S
C32 O29 1.250 . S
C32 O30 1.248 . S
C33 O34 1.264 . S
C33 O41 1.249 . S
O34 C33 1.264 . S
O35 Mg28 1.986 . S
O35 C39 1.246 . S
O36 Mg31 2.032 . S
O36 C39 1.259 . S
O37 Mg28 2.114 . S
O37 C40 1.252 . S
O38 Mg28 2.251 . S
O38 Mg31 2.079 . S
O38 C40 1.273 . S
C39 O35 1.246 . S
C39 O36 1.259 . S
C40 O37 1.252 . S
C40 O38 1.273 . S
O41 Mg28 2.010 . S
O41 C33 1.249 . S
Mg42 O43 2.028 . S
Mg42 O49 1.986 . S
Mg42 O51 2.114 . S
Mg42 O52 2.251 . S
Mg42 O55 2.010 . S
O43 Mg42 2.028 . S
O43 C46 1.250 . S
O44 Mg45 2.028 . S
O44 C46 1.248 . S
Mg45 O44 2.028 . S
Mg45 O50 2.032 . S
Mg45 O52 2.079 . S
C46 O43 1.250 . S
C46 O44 1.248 . S
C47 O48 1.264 . S
C47 O55 1.249 . S
O48 C47 1.264 . S
O49 Mg42 1.986 . S
O49 C53 1.246 . S
O50 Mg45 2.032 . S
O50 C53 1.259 . S
O51 Mg42 2.114 . S
O51 C54 1.252 . S
O52 Mg42 2.251 . S
O52 Mg45 2.079 . S
O52 C54 1.273 . S
C53 O49 1.246 . S
C53 O50 1.259 . S
C54 O51 1.252 . S
C54 O52 1.273 . S
O55 Mg42 2.010 . S
O55 C47 1.249 . S
Mg56 O57 2.028 . S
Mg56 O63 1.986 . S
Mg56 O65 2.114 . S
Mg56 O66 2.251 . S
Mg56 O69 2.010 1_554 S
O57 Mg56 2.028 . S
O57 C60 1.250 . S
O58 Mg59 2.028 . S
O58 C60 1.248 . S
Mg59 O58 2.028 . S
Mg59 O64 2.032 . S
Mg59 O66 2.079 . S
C60 O57 1.250 . S
C60 O58 1.248 . S
C61 O62 1.264 . S
C61 O69 1.249 . S
O62 C61 1.264 . S
O63 Mg56 1.986 . S
O63 C67 1.246 . S
O64 Mg59 2.032 . S
O64 C67 1.259 . S
O65 Mg56 2.114 . S
O65 C68 1.252 . S
O66 Mg56 2.251 . S
O66 Mg59 2.079 . S
O66 C68 1.273 . S
C67 O63 1.246 . S
C67 O64 1.259 . S
C68 O65 1.252 . S
C68 O66 1.273 . S
O69 Mg56 2.010 1_556 S
O69 C61 1.249 . S
Mg70 O71 2.028 . S
Mg70 O77 1.986 . S
Mg70 O79 2.114 . S
Mg70 O80 2.251 . S
Mg70 O83 2.010 1_554 S
O71 Mg70 2.028 . S
O71 C74 1.250 . S
O72 Mg73 2.028 . S
O72 C74 1.248 . S
Mg73 O72 2.028 . S
Mg73 O78 2.032 . S
Mg73 O80 2.079 . S
C74 O71 1.250 . S
C74 O72 1.248 . S
C75 O76 1.264 . S
C75 O83 1.249 . S
O76 C75 1.264 . S
O77 Mg70 1.986 . S
O77 C81 1.246 . S
O78 Mg73 2.032 . S
O78 C81 1.259 . S
O79 Mg70 2.114 . S
O79 C82 1.252 . S
O80 Mg70 2.251 . S
O80 Mg73 2.079 . S
O80 C82 1.273 . S
C81 O77 1.246 . S
C81 O78 1.259 . S
C82 O79 1.252 . S
C82 O80 1.273 . S
O83 Mg70 2.010 1_556 S
O83 C75 1.249 . S
Mg84 O85 2.028 . S
Mg84 O91 1.986 . S
Mg84 O93 2.114 . S
Mg84 O94 2.251 . S
Mg84 O97 2.010 . S
O85 Mg84 2.028 . S
O85 C88 1.250 . S
O86 Mg87 2.028 . S
O86 C88 1.248 . S
Mg87 O86 2.028 . S
Mg87 O92 2.032 . S
Mg87 O94 2.079 . S
C88 O85 1.250 . S
C88 O86 1.248 . S
C89 O90 1.264 . S
C89 O97 1.249 . S
O90 C89 1.264 . S
O91 Mg84 1.986 . S
O91 C95 1.246 . S
O92 Mg87 2.032 . S
O92 C95 1.259 . S
O93 Mg84 2.114 . S
O93 C96 1.252 . S
O94 Mg84 2.251 . S
O94 Mg87 2.079 . S
O94 C96 1.273 . S
C95 O91 1.246 . S
C95 O92 1.259 . S
C96 O93 1.252 . S
C96 O94 1.273 . S
O97 Mg84 2.010 . S
O97 C89 1.249 . S
Mg98 O99 2.028 . S
Mg98 O105 1.986 . S
Mg98 O107 2.114 . S
Mg98 O108 2.251 . S
Mg98 O111 2.010 . S
O99 Mg98 2.028 . S
O99 C102 1.250 . S
O100 Mg101 2.028 . S
O100 C102 1.248 . S
Mg101 O100 2.028 . S
Mg101 O106 2.032 . S
Mg101 O108 2.079 . S
C102 O99 1.250 . S
C102 O100 1.248 . S
C103 O104 1.264 . S
C103 O111 1.249 . S
O104 C103 1.264 . S
O105 Mg98 1.986 . S
O105 C109 1.246 . S
O106 Mg101 2.032 . S
O106 C109 1.259 . S
O107 Mg98 2.114 . S
O107 C110 1.252 . S
O108 Mg98 2.251 . S
O108 Mg101 2.079 . S
O108 C110 1.273 . S
C109 O105 1.246 . S
C109 O106 1.259 . S
C110 O107 1.252 . S
C110 O108 1.273 . S
O111 Mg98 2.010 . S
O111 C103 1.249 . S
C112 C113 1.170 . S
C112 C114 1.380 . S
C113 C112 1.170 . S
C114 C112 1.380 . S
C114 C115 1.170 . S
C115 C114 1.170 . S
C116 C117 1.170 . S
C116 C118 1.380 . S
C117 C116 1.170 . S
C118 C116 1.380 . S
C118 C119 1.170 . S
C119 C118 1.170 . S
C120 C121 1.170 . S
C120 C122 1.380 . S
C121 C120 1.170 . S
C122 C120 1.380 . S
C122 C123 1.170 . S
C123 C122 1.170 . S
C124 C125 1.170 . S
C124 C126 1.380 . S
C125 C124 1.170 . S
C126 C124 1.380 . S
C126 C127 1.170 . S
C127 C126 1.170 . S
C128 C129 1.170 . S
C128 C130 1.380 . S
C129 C128 1.170 . S
C130 C128 1.380 . S
C130 C131 1.170 . S
C131 C130 1.170 . S
C132 C133 1.170 . S
C132 C134 1.380 . S
C133 C132 1.170 . S
C134 C132 1.380 . S
C134 C135 1.170 . S
C135 C134 1.170 . S
C136 C137 1.170 . S
C136 C138 1.380 . S
C137 C136 1.170 . S
C138 C136 1.380 . S
C138 C139 1.170 . S
C139 C138 1.170 . S
C140 C141 1.170 . S
C140 C142 1.380 . S
C141 C140 1.170 . S
C142 C140 1.380 . S
C142 C143 1.170 . S
C143 C142 1.170 . S
C144 C145 1.170 . S
C144 C146 1.380 1_565 S
C145 C144 1.170 . S
C146 C144 1.380 1_545 S
C146 C147 1.170 . S
C147 C146 1.170 . S
C148 C149 1.170 . S
C148 C150 1.380 1_565 S
C149 C148 1.170 . S
C150 C148 1.380 1_545 S
C150 C151 1.170 . S
C151 C150 1.170 . S
C152 C153 1.170 . S
C152 C154 1.380 1_565 S
C153 C152 1.170 . S
C154 C152 1.380 1_545 S
C154 C155 1.170 . S
C155 C154 1.170 . S
C156 C157 1.170 . S
C156 C158 1.380 1_565 S
C157 C156 1.170 . S
C158 C156 1.380 1_545 S
C158 C159 1.170 . S
C159 C158 1.170 . S
C160 C161 1.170 . S
C160 C162 1.380 1_565 S
C161 C160 1.170 . S
C162 C160 1.380 1_545 S
C162 C163 1.170 . S
C163 C162 1.170 . S
C164 C165 1.170 . S
C164 C166 1.380 1_565 S
C165 C164 1.170 . S
C166 C164 1.380 1_545 S
C166 C167 1.170 . S
C167 C166 1.170 . S
C168 C169 1.170 . S
C168 C170 1.380 1_455 S
C169 C168 1.170 . S
C170 C168 1.380 1_655 S
C170 C171 1.170 . S
C171 C170 1.170 . S
C172 C173 1.170 . S
C172 C174 1.380 1_455 S
C173 C172 1.170 . S
C174 C172 1.380 1_655 S
C174 C175 1.170 . S
C175 C174 1.170 . S
C113 C74 1.469 . S
C115 C4 1.470 . S
C117 C60 1.488 . S
C119 C18 1.490 . S
C121 C102 1.475 . S
C123 C32 1.476 . S
C125 C88 1.486 . S
C127 C46 1.484 . S
C129 C12 1.422 . S
C131 C40 1.421 . S
C133 C26 1.427 . S
C135 C54 1.430 . S
C137 C19 1.289 . S
C139 C47 1.294 . S
C141 C5 1.247 . S
C143 C33 1.243 . S
C145 C68 1.423 . S
C147 C96 1.421 . S
C149 C110 1.423 . S
C151 C82 1.421 . S
C153 C103 1.246 . S
C155 C75 1.242 . S
C157 C61 1.254 . S
C159 C89 1.250 . S
C161 C25 1.512 . S
C163 C11 1.487 . S
C165 C39 1.498 . S
C167 C53 1.506 . S
C169 C67 1.490 . S
C171 C81 1.490 . S
C173 C95 1.481 . S
C175 C109 1.503 . S
