# Generated by pormake.
# Topology und, (4)-cn, num edge types: 1
# Building blocks:
#     Node 0, Type 0, BuildingBlock: NAHDIM_clean_sbu_0, # of connection points: 4
#     Node 1, Type 0, BuildingBlock: NAHDIM_clean_sbu_0, # of connection points: 4
#     Node 2, Type 0, BuildingBlock: NAHDIM_clean_sbu_0, # of connection points: 4
#     Node 3, Type 0, BuildingBlock: NAHDIM_clean_sbu_0, # of connection points: 4
#     Node 4, Type 0, BuildingBlock: NAHDIM_clean_sbu_0, # of connection points: 4
#     Node 5, Type 0, BuildingBlock: NAHDIM_clean_sbu_0, # of connection points: 4
#     Node 6, Type 0, BuildingBlock: NAHDIM_clean_sbu_0, # of connection points: 4
#     Node 7, Type 0, BuildingBlock: NAHDIM_clean_sbu_0, # of connection points: 4
#     Node 8, Type 0, BuildingBlock: NAHDIM_clean_sbu_0, # of connection points: 4
#     Node 9, Type 0, BuildingBlock: NAHDIM_clean_sbu_0, # of connection points: 4
#     Node 10, Type 0, BuildingBlock: NAHDIM_clean_sbu_0, # of connection points: 4
#     Node 11, Type 0, BuildingBlock: NAHDIM_clean_sbu_0, # of connection points: 4
#     Node 12, Type 0, BuildingBlock: NAHDIM_clean_sbu_0, # of connection points: 4
#     Node 13, Type 0, BuildingBlock: NAHDIM_clean_sbu_0, # of connection points: 4
#     Node 14, Type 0, BuildingBlock: NAHDIM_clean_sbu_0, # of connection points: 4
#     Node 15, Type 0, BuildingBlock: NAHDIM_clean_sbu_0, # of connection points: 4
#     Edge 16, Type (0, 0), None
#     Edge 17, Type (0, 0), None
#     Edge 18, Type (0, 0), None
#     Edge 19, Type (0, 0), None
#     Edge 20, Type (0, 0), None
#     Edge 21, Type (0, 0), None
#     Edge 22, Type (0, 0), None
#     Edge 23, Type (0, 0), None
#     Edge 24, Type (0, 0), None
#     Edge 25, Type (0, 0), None
#     Edge 26, Type (0, 0), None
#     Edge 27, Type (0, 0), None
#     Edge 28, Type (0, 0), None
#     Edge 29, Type (0, 0), None
#     Edge 30, Type (0, 0), None
#     Edge 31, Type (0, 0), None
#     Edge 32, Type (0, 0), None
#     Edge 33, Type (0, 0), None
#     Edge 34, Type (0, 0), None
#     Edge 35, Type (0, 0), None
#     Edge 36, Type (0, 0), None
#     Edge 37, Type (0, 0), None
#     Edge 38, Type (0, 0), None
#     Edge 39, Type (0, 0), None
#     Edge 40, Type (0, 0), None
#     Edge 41, Type (0, 0), None
#     Edge 42, Type (0, 0), None
#     Edge 43, Type (0, 0), None
#     Edge 44, Type (0, 0), None
#     Edge 45, Type (0, 0), None
#     Edge 46, Type (0, 0), None
#     Edge 47, Type (0, 0), None
# Relax obj value: 0.113
# Max RMSD: 0.175
# Mean RMSD: 0.175
data_MOF--net-und--node1-NAHDIM_clean_sbu_0--edge1-none
_symmetry_space_group_name_H-M    P1
_symmetry_Int_Tables_number       1
_symmetry_cell_setting            triclinic
loop_
_symmetry_equiv_pos_as_xyz
'x, y, z'
_cell_length_a     28.033266
_cell_length_b     28.031936
_cell_length_c     10.283298
_cell_angle_alpha  90.001602
_cell_angle_beta   89.998336
_cell_angle_gamma 98.826675
loop_
_atom_site_label
_atom_site_type_symbol
_atom_site_fract_x
_atom_site_fract_y
_atom_site_fract_z
_atom_type_partial_charge
C0 C 0.15912 0.41411 0.10578 0.0
O1 O 0.17959 0.39826 0.20864 0.0
O2 O 0.21146 0.31085 0.12846 0.0
Zn3 Zn 0.22111 0.35771 -0.02533 0.0
O4 O 0.28464 0.40204 0.94097 0.0
C5 C 0.23102 0.28232 0.80036 0.0
O6 O 0.25426 0.26734 0.89926 0.0
O7 O 0.17061 0.40122 -0.0071 0.0
C8 C 0.32238 0.39037 0.88839 0.0
O9 O 0.32702 0.34482 0.87484 0.0
C10 C 0.24011 0.28741 0.18793 0.0
O11 O 0.28612 0.29383 0.15721 0.0
O12 O 0.21033 0.31931 0.81175 0.0
C13 C 0.83635 0.09133 0.1211 0.0
O14 O 0.8522 0.07084 0.01825 0.0
O15 O 0.9396 0.03898 0.09842 0.0
Zn16 Zn 0.89274 0.02934 0.25222 0.0
O17 O 0.84842 0.9658 0.28591 0.0
C18 C 0.96813 0.01941 0.42653 0.0
O19 O -0.01689 -0.00383 0.32763 0.0
O20 O 0.84924 0.07984 0.23398 0.0
C21 C 0.86007 0.92806 0.33849 0.0
O22 O 0.90562 0.92342 0.35204 0.0
C23 C 0.96305 0.01033 0.03896 0.0
O24 O 0.95662 0.96432 0.06967 0.0
O25 O 0.93114 0.04011 0.41514 0.0
C26 C 0.30217 0.62552 0.60575 0.0
O27 O 0.28169 0.64136 0.7086 0.0
O28 O 0.24984 0.72878 0.62842 0.0
Zn29 Zn 0.24019 0.68192 0.47463 0.0
O30 O 0.17665 0.63759 0.44095 0.0
C31 C 0.23027 0.75731 0.30032 0.0
O32 O 0.20703 0.77229 0.39923 0.0
O33 O 0.29068 0.63841 0.49287 0.0
C34 C 0.13891 0.64926 0.38838 0.0
O35 O 0.13427 0.69481 0.37484 0.0
C36 C 0.22119 0.75222 0.68789 0.0
O37 O 0.17517 0.74579 0.65719 0.0
O38 O 0.25097 0.72032 0.31171 0.0
C39 C 0.62494 0.9483 0.62111 0.0
O40 O 0.6091 0.96879 0.51826 0.0
O41 O 0.52169 0.00064 0.59843 0.0
Zn42 Zn 0.56854 0.01029 0.75222 0.0
O43 O 0.61287 0.07383 0.7859 0.0
C44 C 0.49316 0.02022 0.92654 0.0
O45 O 0.47818 0.04346 0.82764 0.0
O46 O 0.61204 0.95979 0.73399 0.0
C47 C 0.60122 0.11157 0.8385 0.0
O48 O 0.55567 0.11621 0.85206 0.0
C49 C 0.49824 0.0293 0.53897 0.0
O50 O 0.50467 0.07531 0.56968 0.0
O51 O 0.53015 -0.00048 0.91515 0.0
C52 C 0.80216 0.62552 0.87111 0.0
O53 O 0.78168 0.64137 0.76826 0.0
O54 O 0.74981 0.72877 0.84843 0.0
Zn55 Zn 0.74016 0.68191 0.00222 0.0
O56 O 0.67663 0.63758 0.0359 0.0
C57 C 0.73024 0.7573 0.17654 0.0
O58 O 0.707 0.77228 0.07764 0.0
O59 O 0.79066 0.63841 -0.01601 0.0
C60 C 0.63889 0.64924 0.08848 0.0
O61 O 0.63425 0.69479 0.10204 0.0
C62 C 0.72116 0.75222 0.78897 0.0
O63 O 0.67515 0.74579 0.81968 0.0
O64 O 0.75094 0.72031 0.16515 0.0
C65 C 0.12494 0.94829 0.85575 0.0
O66 O 0.1091 0.96878 0.95861 0.0
O67 O 0.02168 0.00062 0.87844 0.0
Zn68 Zn 0.06854 0.01027 0.72464 0.0
O69 O 0.11286 0.07381 0.69095 0.0
C70 C -0.00685 0.02019 0.55034 0.0
O71 O 0.97817 0.04343 0.64924 0.0
O72 O 0.11204 0.95977 0.74287 0.0
C73 C 0.1012 0.11155 0.63837 0.0
O74 O 0.05565 0.11619 0.62482 0.0
C75 C -0.00176 0.02928 0.9379 0.0
O76 O 0.00466 0.07529 0.90719 0.0
O77 O 0.03014 -0.00051 0.56172 0.0
C78 C 0.65913 0.41411 0.37109 0.0
O79 O 0.67961 0.39826 0.26824 0.0
O80 O 0.71148 0.31086 0.34842 0.0
Zn81 Zn 0.72112 0.35772 0.50221 0.0
O82 O 0.78465 0.40205 0.5359 0.0
C83 C 0.73105 0.28233 0.67652 0.0
O84 O 0.75429 0.26734 0.57761 0.0
O85 O 0.67062 0.40122 0.48398 0.0
C86 C 0.8224 0.39039 0.58847 0.0
O87 O 0.82704 0.34484 0.602 0.0
C88 C 0.74013 0.28742 0.28895 0.0
O89 O 0.78614 0.29384 0.31965 0.0
O90 O 0.71035 0.31932 0.66514 0.0
C91 C 0.33635 0.09133 0.35578 0.0
O92 O 0.35219 0.07085 0.45863 0.0
O93 O 0.4396 0.039 0.37846 0.0
Zn94 Zn 0.39275 0.02935 0.22466 0.0
O95 O 0.34843 0.96582 0.19096 0.0
C96 C 0.46814 0.01944 0.05035 0.0
O97 O 0.48312 -0.00381 0.14924 0.0
O98 O 0.34925 0.07985 0.2429 0.0
C99 C 0.36009 0.92808 0.13836 0.0
O100 O 0.40563 0.92344 0.1248 0.0
C101 C 0.46305 0.01035 0.43792 0.0
O102 O 0.45663 0.96434 0.4072 0.0
O103 O 0.43115 0.04013 0.06174 0.0
C104 C 0.65912 0.91411 0.60578 0.0
O105 O 0.67959 0.89826 0.70863 0.0
O106 O 0.71146 0.81085 0.62845 0.0
Zn107 Zn 0.72111 0.85771 0.47466 0.0
O108 O 0.78464 0.90204 0.44097 0.0
C109 C 0.73102 0.78232 0.30035 0.0
O110 O 0.75426 0.76734 0.39924 0.0
O111 O 0.67061 0.90122 0.49289 0.0
C112 C 0.82238 0.89037 0.38838 0.0
O113 O 0.82702 0.84482 0.37482 0.0
C114 C 0.74011 0.78741 0.68791 0.0
O115 O 0.78612 0.79383 0.6572 0.0
O116 O 0.71033 0.81931 0.31174 0.0
C117 C 0.33635 0.59132 0.62109 0.0
O118 O 0.3522 0.57084 0.51824 0.0
O119 O 0.4396 0.53898 0.59842 0.0
Zn120 Zn 0.39274 0.52934 0.75221 0.0
O121 O 0.34842 0.4658 0.78591 0.0
C122 C 0.46813 0.51941 0.92652 0.0
O123 O 0.48311 0.49617 0.82762 0.0
O124 O 0.34924 0.57984 0.73398 0.0
C125 C 0.36007 0.42806 0.8385 0.0
O126 O 0.40562 0.42342 0.85206 0.0
C127 C 0.46304 0.51033 0.53895 0.0
O128 O 0.45662 0.46431 0.56966 0.0
O129 O 0.43114 0.54011 0.91514 0.0
C130 C 0.80217 0.12552 0.10575 0.0
O131 O 0.78169 0.14137 0.20861 0.0
O132 O 0.74984 0.22878 0.12842 0.0
Zn133 Zn 0.74019 0.18192 -0.02537 0.0
O134 O 0.67665 0.13759 0.94095 0.0
C135 C 0.73027 0.25731 0.80033 0.0
O136 O 0.70703 0.27229 0.89923 0.0
O137 O 0.79068 0.13841 -0.00713 0.0
C138 C 0.63891 0.14926 0.88838 0.0
O139 O 0.63427 0.19481 0.87483 0.0
C140 C 0.72118 0.25222 0.18789 0.0
O141 O 0.67517 0.24579 0.15719 0.0
O142 O 0.75096 0.22032 0.81171 0.0
C143 C 0.12494 0.4483 0.12112 0.0
O144 O 0.1091 0.46878 0.01826 0.0
O145 O 0.02169 0.50064 0.09843 0.0
Zn146 Zn 0.06854 0.51029 0.25222 0.0
O147 O 0.11287 0.57383 0.2859 0.0
C148 C -0.00684 0.52022 0.42654 0.0
O149 O 0.97818 0.54346 0.32765 0.0
O150 O 0.11204 0.45979 0.234 0.0
C151 C 0.10122 0.61157 0.3385 0.0
O152 O 0.05567 0.61621 0.35208 0.0
C153 C -0.00176 0.5293 0.03897 0.0
O154 O 0.00466 0.57531 0.06969 0.0
O155 O 0.03015 0.49952 0.41515 0.0
C156 C 0.30216 0.12552 0.37112 0.0
O157 O 0.28168 0.14137 0.26826 0.0
O158 O 0.24981 0.22877 0.34844 0.0
Zn159 Zn 0.24016 0.18191 0.50223 0.0
O160 O 0.17663 0.13758 0.53591 0.0
C161 C 0.23024 0.2573 0.67655 0.0
O162 O 0.207 0.27228 0.57765 0.0
O163 O 0.29066 0.13841 0.484 0.0
C164 C 0.13889 0.14924 0.58849 0.0
O165 O 0.13425 0.19479 0.60205 0.0
C166 C 0.22116 0.25222 0.28898 0.0
O167 O 0.17515 0.24579 0.31969 0.0
O168 O 0.25094 0.22031 0.66516 0.0
C169 C 0.62494 0.44829 0.35575 0.0
O170 O 0.6091 0.46878 0.4586 0.0
O171 O 0.52168 0.50062 0.37843 0.0
Zn172 Zn 0.56854 0.51027 0.22463 0.0
O173 O 0.61286 0.57381 0.19095 0.0
C174 C 0.49315 0.52019 0.05033 0.0
O175 O 0.47817 0.54343 0.14923 0.0
O176 O 0.61204 0.45978 0.24287 0.0
C177 C 0.6012 0.61155 0.13836 0.0
O178 O 0.55565 0.61619 0.1248 0.0
C179 C 0.49824 0.52927 0.4379 0.0
O180 O 0.50466 0.57529 0.40719 0.0
O181 O 0.53014 0.49949 0.06171 0.0
C182 C 0.15913 0.91411 0.87109 0.0
O183 O 0.1796 0.89825 0.76824 0.0
O184 O 0.21148 0.81086 0.84842 0.0
Zn185 Zn 0.22112 0.85772 0.00221 0.0
O186 O 0.28466 0.90205 0.0359 0.0
C187 C 0.23105 0.78232 0.17652 0.0
O188 O 0.25429 0.76734 0.07761 0.0
O189 O 0.17063 0.90122 -0.01602 0.0
C190 C 0.3224 0.89039 0.08848 0.0
O191 O 0.32704 0.84484 0.10202 0.0
C192 C 0.24013 0.78741 0.78895 0.0
O193 O 0.28614 0.79384 0.81965 0.0
O194 O 0.21035 0.81932 0.16513 0.0
C195 C 0.83635 0.59133 0.85578 0.0
O196 O 0.85219 0.57085 0.95863 0.0
O197 O 0.9396 0.539 0.87846 0.0
Zn198 Zn 0.89275 0.52935 0.72466 0.0
O199 O 0.84843 0.46581 0.69097 0.0
C200 C 0.96814 0.51944 0.55035 0.0
O201 O -0.01688 0.49619 0.64925 0.0
O202 O 0.84924 0.57985 0.7429 0.0
C203 C 0.86009 0.42808 0.63836 0.0
O204 O 0.90563 0.42344 0.62478 0.0
C205 C 0.96305 0.51035 0.93792 0.0
O206 O 0.95663 0.46433 0.9072 0.0
O207 O 0.93115 0.54013 0.56174 0.0
loop_
_geom_bond_atom_site_label_1
_geom_bond_atom_site_label_2
_geom_bond_distance
_geom_bond_site_symmetry_2
_ccdc_geom_bond_type
C0 O1 1.160 . S
C0 O7 1.185 . S
O1 C0 1.160 . S
O2 Zn3 1.899 . S
O2 C10 1.284 . S
Zn3 O2 1.899 . S
Zn3 O4 2.032 . S
Zn3 O7 2.086 . S
Zn3 O12 1.977 1_554 S
O4 Zn3 2.032 . S
O4 C8 1.278 1_554 S
C5 O6 1.203 . S
C5 O12 1.267 . S
O6 C5 1.203 . S
O7 C0 1.185 . S
O7 Zn3 2.086 . S
C8 O4 1.278 1_556 S
C8 O9 1.211 . S
O9 C8 1.211 . S
C10 O2 1.284 . S
C10 O11 1.273 . S
O11 C10 1.273 . S
O12 Zn3 1.977 1_556 S
O12 C5 1.267 . S
C13 O14 1.160 . S
C13 O20 1.185 . S
O14 C13 1.160 . S
O15 Zn16 1.899 . S
O15 C23 1.284 . S
Zn16 O15 1.899 . S
Zn16 O17 2.032 1_545 S
Zn16 O20 2.086 . S
Zn16 O25 1.977 . S
O17 Zn16 2.032 1_565 S
O17 C21 1.278 . S
C18 O19 1.203 1_655 S
C18 O25 1.267 . S
O19 C18 1.203 1_455 S
O20 C13 1.185 . S
O20 Zn16 2.086 . S
C21 O17 1.278 . S
C21 O22 1.211 . S
O22 C21 1.211 . S
C23 O15 1.284 . S
C23 O24 1.273 1_545 S
O24 C23 1.273 1_565 S
O25 Zn16 1.977 . S
O25 C18 1.267 . S
C26 O27 1.160 . S
C26 O33 1.185 . S
O27 C26 1.160 . S
O28 Zn29 1.899 . S
O28 C36 1.284 . S
Zn29 O28 1.899 . S
Zn29 O30 2.032 . S
Zn29 O33 2.086 . S
Zn29 O38 1.977 . S
O30 Zn29 2.032 . S
O30 C34 1.278 . S
C31 O32 1.203 . S
C31 O38 1.267 . S
O32 C31 1.203 . S
O33 C26 1.185 . S
O33 Zn29 2.086 . S
C34 O30 1.278 . S
C34 O35 1.211 . S
O35 C34 1.211 . S
C36 O28 1.284 . S
C36 O37 1.273 . S
O37 C36 1.273 . S
O38 Zn29 1.977 . S
O38 C31 1.267 . S
C39 O40 1.160 . S
C39 O46 1.185 . S
O40 C39 1.160 . S
O41 Zn42 1.899 . S
O41 C49 1.284 . S
Zn42 O41 1.899 . S
Zn42 O43 2.032 . S
Zn42 O46 2.086 1_545 S
Zn42 O51 1.977 . S
O43 Zn42 2.032 . S
O43 C47 1.278 . S
C44 O45 1.203 . S
C44 O51 1.267 . S
O45 C44 1.203 . S
O46 C39 1.185 . S
O46 Zn42 2.086 1_565 S
C47 O43 1.278 . S
C47 O48 1.211 . S
O48 C47 1.211 . S
C49 O41 1.284 . S
C49 O50 1.273 . S
O50 C49 1.273 . S
O51 Zn42 1.977 . S
O51 C44 1.267 . S
C52 O53 1.160 . S
C52 O59 1.185 1_556 S
O53 C52 1.160 . S
O54 Zn55 1.899 1_556 S
O54 C62 1.284 . S
Zn55 O54 1.899 1_554 S
Zn55 O56 2.032 . S
Zn55 O59 2.086 . S
Zn55 O64 1.977 . S
O56 Zn55 2.032 . S
O56 C60 1.278 . S
C57 O58 1.203 . S
C57 O64 1.267 . S
O58 C57 1.203 . S
O59 C52 1.185 1_554 S
O59 Zn55 2.086 . S
C60 O56 1.278 . S
C60 O61 1.211 . S
O61 C60 1.211 . S
C62 O54 1.284 . S
C62 O63 1.273 . S
O63 C62 1.273 . S
O64 Zn55 1.977 . S
O64 C57 1.267 . S
C65 O66 1.160 . S
C65 O72 1.185 . S
O66 C65 1.160 . S
O67 Zn68 1.899 . S
O67 C75 1.284 . S
Zn68 O67 1.899 . S
Zn68 O69 2.032 . S
Zn68 O72 2.086 1_545 S
Zn68 O77 1.977 . S
O69 Zn68 2.032 . S
O69 C73 1.278 . S
C70 O71 1.203 1_455 S
C70 O77 1.267 . S
O71 C70 1.203 1_655 S
O72 C65 1.185 . S
O72 Zn68 2.086 1_565 S
C73 O69 1.278 . S
C73 O74 1.211 . S
O74 C73 1.211 . S
C75 O67 1.284 . S
C75 O76 1.273 . S
O76 C75 1.273 . S
O77 Zn68 1.977 . S
O77 C70 1.267 . S
C78 O79 1.160 . S
C78 O85 1.185 . S
O79 C78 1.160 . S
O80 Zn81 1.899 . S
O80 C88 1.284 . S
Zn81 O80 1.899 . S
Zn81 O82 2.032 . S
Zn81 O85 2.086 . S
Zn81 O90 1.977 . S
O82 Zn81 2.032 . S
O82 C86 1.278 . S
C83 O84 1.203 . S
C83 O90 1.267 . S
O84 C83 1.203 . S
O85 C78 1.185 . S
O85 Zn81 2.086 . S
C86 O82 1.278 . S
C86 O87 1.211 . S
O87 C86 1.211 . S
C88 O80 1.284 . S
C88 O89 1.273 . S
O89 C88 1.273 . S
O90 Zn81 1.977 . S
O90 C83 1.267 . S
C91 O92 1.160 . S
C91 O98 1.185 . S
O92 C91 1.160 . S
O93 Zn94 1.899 . S
O93 C101 1.284 . S
Zn94 O93 1.899 . S
Zn94 O95 2.032 1_545 S
Zn94 O98 2.086 . S
Zn94 O103 1.977 . S
O95 Zn94 2.032 1_565 S
O95 C99 1.278 . S
C96 O97 1.203 . S
C96 O103 1.267 . S
O97 C96 1.203 . S
O98 C91 1.185 . S
O98 Zn94 2.086 . S
C99 O95 1.278 . S
C99 O100 1.211 . S
O100 C99 1.211 . S
C101 O93 1.284 . S
C101 O102 1.273 1_545 S
O102 C101 1.273 1_565 S
O103 Zn94 1.977 . S
O103 C96 1.267 . S
C104 O105 1.160 . S
C104 O111 1.185 . S
O105 C104 1.160 . S
O106 Zn107 1.899 . S
O106 C114 1.284 . S
Zn107 O106 1.899 . S
Zn107 O108 2.032 . S
Zn107 O111 2.086 . S
Zn107 O116 1.977 . S
O108 Zn107 2.032 . S
O108 C112 1.278 . S
C109 O110 1.203 . S
C109 O116 1.267 . S
O110 C109 1.203 . S
O111 C104 1.185 . S
O111 Zn107 2.086 . S
C112 O108 1.278 . S
C112 O113 1.211 . S
O113 C112 1.211 . S
C114 O106 1.284 . S
C114 O115 1.273 . S
O115 C114 1.273 . S
O116 Zn107 1.977 . S
O116 C109 1.267 . S
C117 O118 1.160 . S
C117 O124 1.185 . S
O118 C117 1.160 . S
O119 Zn120 1.899 . S
O119 C127 1.284 . S
Zn120 O119 1.899 . S
Zn120 O121 2.032 . S
Zn120 O124 2.086 . S
Zn120 O129 1.977 . S
O121 Zn120 2.032 . S
O121 C125 1.278 . S
C122 O123 1.203 . S
C122 O129 1.267 . S
O123 C122 1.203 . S
O124 C117 1.185 . S
O124 Zn120 2.086 . S
C125 O121 1.278 . S
C125 O126 1.211 . S
O126 C125 1.211 . S
C127 O119 1.284 . S
C127 O128 1.273 . S
O128 C127 1.273 . S
O129 Zn120 1.977 . S
O129 C122 1.267 . S
C130 O131 1.160 . S
C130 O137 1.185 . S
O131 C130 1.160 . S
O132 Zn133 1.899 . S
O132 C140 1.284 . S
Zn133 O132 1.899 . S
Zn133 O134 2.032 . S
Zn133 O137 2.086 . S
Zn133 O142 1.977 1_554 S
O134 Zn133 2.032 . S
O134 C138 1.278 1_554 S
C135 O136 1.203 . S
C135 O142 1.267 . S
O136 C135 1.203 . S
O137 C130 1.185 . S
O137 Zn133 2.086 . S
C138 O134 1.278 1_556 S
C138 O139 1.211 . S
O139 C138 1.211 . S
C140 O132 1.284 . S
C140 O141 1.273 . S
O141 C140 1.273 . S
O142 Zn133 1.977 1_556 S
O142 C135 1.267 . S
C143 O144 1.160 . S
C143 O150 1.185 . S
O144 C143 1.160 . S
O145 Zn146 1.899 . S
O145 C153 1.284 . S
Zn146 O145 1.899 . S
Zn146 O147 2.032 . S
Zn146 O150 2.086 . S
Zn146 O155 1.977 . S
O147 Zn146 2.032 . S
O147 C151 1.278 . S
C148 O149 1.203 1_455 S
C148 O155 1.267 . S
O149 C148 1.203 1_655 S
O150 C143 1.185 . S
O150 Zn146 2.086 . S
C151 O147 1.278 . S
C151 O152 1.211 . S
O152 C151 1.211 . S
C153 O145 1.284 . S
C153 O154 1.273 . S
O154 C153 1.273 . S
O155 Zn146 1.977 . S
O155 C148 1.267 . S
C156 O157 1.160 . S
C156 O163 1.185 . S
O157 C156 1.160 . S
O158 Zn159 1.899 . S
O158 C166 1.284 . S
Zn159 O158 1.899 . S
Zn159 O160 2.032 . S
Zn159 O163 2.086 . S
Zn159 O168 1.977 . S
O160 Zn159 2.032 . S
O160 C164 1.278 . S
C161 O162 1.203 . S
C161 O168 1.267 . S
O162 C161 1.203 . S
O163 C156 1.185 . S
O163 Zn159 2.086 . S
C164 O160 1.278 . S
C164 O165 1.211 . S
O165 C164 1.211 . S
C166 O158 1.284 . S
C166 O167 1.273 . S
O167 C166 1.273 . S
O168 Zn159 1.977 . S
O168 C161 1.267 . S
C169 O170 1.160 . S
C169 O176 1.185 . S
O170 C169 1.160 . S
O171 Zn172 1.899 . S
O171 C179 1.284 . S
Zn172 O171 1.899 . S
Zn172 O173 2.032 . S
Zn172 O176 2.086 . S
Zn172 O181 1.977 . S
O173 Zn172 2.032 . S
O173 C177 1.278 . S
C174 O175 1.203 . S
C174 O181 1.267 . S
O175 C174 1.203 . S
O176 C169 1.185 . S
O176 Zn172 2.086 . S
C177 O173 1.278 . S
C177 O178 1.211 . S
O178 C177 1.211 . S
C179 O171 1.284 . S
C179 O180 1.273 . S
O180 C179 1.273 . S
O181 Zn172 1.977 . S
O181 C174 1.267 . S
C182 O183 1.160 . S
C182 O189 1.185 1_556 S
O183 C182 1.160 . S
O184 Zn185 1.899 1_556 S
O184 C192 1.284 . S
Zn185 O184 1.899 1_554 S
Zn185 O186 2.032 . S
Zn185 O189 2.086 . S
Zn185 O194 1.977 . S
O186 Zn185 2.032 . S
O186 C190 1.278 . S
C187 O188 1.203 . S
C187 O194 1.267 . S
O188 C187 1.203 . S
O189 C182 1.185 1_554 S
O189 Zn185 2.086 . S
C190 O186 1.278 . S
C190 O191 1.211 . S
O191 C190 1.211 . S
C192 O184 1.284 . S
C192 O193 1.273 . S
O193 C192 1.273 . S
O194 Zn185 1.977 . S
O194 C187 1.267 . S
C195 O196 1.160 . S
C195 O202 1.185 . S
O196 C195 1.160 . S
O197 Zn198 1.899 . S
O197 C205 1.284 . S
Zn198 O197 1.899 . S
Zn198 O199 2.032 . S
Zn198 O202 2.086 . S
Zn198 O207 1.977 . S
O199 Zn198 2.032 . S
O199 C203 1.278 . S
C200 O201 1.203 1_655 S
C200 O207 1.267 . S
O201 C200 1.203 1_455 S
O202 C195 1.185 . S
O202 Zn198 2.086 . S
C203 O199 1.278 . S
C203 O204 1.211 . S
O204 C203 1.211 . S
C205 O197 1.284 . S
C205 O206 1.273 . S
O206 C205 1.273 . S
O207 Zn198 1.977 . S
O207 C200 1.267 . S
C10 C166 1.948 . S
C18 C70 1.077 1_655 S
C36 C192 1.948 . S
C96 C44 1.077 1_554 S
C187 C31 1.077 . S
C101 C49 1.948 . S
C161 C5 1.077 . S
C75 C23 1.948 1_456 S
C62 C114 1.948 . S
C88 C140 1.948 . S
C135 C83 1.077 . S
C57 C109 1.077 . S
C174 C122 1.077 1_554 S
C148 C200 1.077 1_455 S
C153 C205 1.948 1_454 S
C127 C179 1.949 . S
C143 C0 1.362 . S
C112 C21 1.472 . S
C26 C117 1.362 . S
C138 C47 1.472 . S
C151 C34 1.471 . S
C39 C104 1.362 . S
C125 C8 1.472 . S
C130 C13 1.362 . S
C52 C195 1.362 . S
C164 C73 1.471 . S
C78 C169 1.362 . S
C99 C190 1.472 . S
C86 C203 1.472 . S
C156 C91 1.362 . S
C177 C60 1.472 . S
C182 C65 1.362 . S
