# Generated by pormake.
# Topology pcu, (6)-cn, num edge types: 1
# Building blocks:
#     Node 0, Type 0, BuildingBlock: KUMJIN_clean_sbu_0, # of connection points: 6
#     Edge 1, Type (0, 0), BuildingBlock: XUDNAN_clean_linker_2, # of connection points: 2
#     Edge 2, Type (0, 0), BuildingBlock: XUDNAN_clean_linker_2, # of connection points: 2
#     Edge 3, Type (0, 0), BuildingBlock: XUDNAN_clean_linker_2, # of connection points: 2
# Relax obj value: 0.000
# Max RMSD: 0.000
# Mean RMSD: 0.000
data_MOF--net-pcu--node1-KUMJIN_clean_sbu_0--edge1-XUDNAN_clean_linker_2
_symmetry_space_group_name_H-M    P1
_symmetry_Int_Tables_number       1
_symmetry_cell_setting            triclinic
loop_
_symmetry_equiv_pos_as_xyz
'x, y, z'
_cell_length_a     14.035417
_cell_length_b     24.470375
_cell_length_c     15.13139
_cell_angle_alpha  114.84156
_cell_angle_beta   74.841082
_cell_angle_gamma 114.93357
loop_
_atom_site_label
_atom_site_type_symbol
_atom_site_fract_x
_atom_site_fract_y
_atom_site_fract_z
_atom_type_partial_charge
Eu0 Eu 0.09863 0.08931 0.04017 0.0
C1 C 0.79158 0.82164 0.80494 0.0
C2 C 0.62001 0.81112 0.89834 0.0
C3 C 0.63219 0.75667 0.72168 0.0
C4 C 0.73121 0.83667 0.89376 0.0
C5 C 0.74277 0.78039 0.7181 0.0
C6 C 0.57093 0.7717 0.8117 0.0
C7 C 0.91511 0.78207 0.63299 0.0
N8 N 0.89801 0.84363 0.80454 0.0
C9 C 0.95967 0.82213 0.72128 0.0
C10 C 0.80634 0.76189 0.63108 0.0
Eu11 Eu 0.96758 0.90976 0.95713 0.0
N12 N 0.78103 0.87303 0.97637 0.0
C13 C 0.72446 0.88321 0.06632 0.0
C14 C 0.56149 0.8242 0.99015 0.0
C15 C 0.61399 0.85979 0.07457 0.0
H16 H 0.04377 0.83749 0.72277 0.0
H17 H 0.56947 0.86923 0.14602 0.0
H18 H 0.48559 0.75165 0.81374 0.0
H19 H 0.9646 0.76669 0.5666 0.0
H20 H 0.76433 0.91063 0.13196 0.0
H21 H 0.47004 0.1089 0.79547 0.0
H22 H 0.47593 0.80581 0.99675 0.0
H23 H 0.07852 0.17885 0.28268 0.0
H24 H 0.2811 0.08633 0.83592 0.0
H25 H 0.1859 0.23369 0.42133 0.0
H26 H 0.59318 0.72516 0.65571 0.0
H27 H 0.58562 0.15355 0.92586 0.0
H28 H 0.60534 0.19271 0.10333 0.0
H29 H 0.77189 0.73039 0.56276 0.0
H30 H 0.52744 0.22477 0.27409 0.0
N31 N 0.28377 0.11386 0.99001 0.0
C32 C 0.32775 0.10413 0.89492 0.0
C33 C 0.5013 0.14234 0.94457 0.0
C34 C 0.45743 0.155 0.04192 0.0
C35 C 0.43637 0.11751 0.87095 0.0
C36 C 0.34724 0.14117 0.06302 0.0
H37 H 0.37187 0.24118 0.39326 0.0
N38 N 0.19869 0.14939 0.17781 0.0
C39 C 0.21962 0.2119 0.34839 0.0
C40 C 0.30326 0.15874 0.15946 0.0
C41 C 0.15875 0.18014 0.26958 0.0
C42 C 0.32439 0.21597 0.33223 0.0
C43 C 0.36854 0.19122 0.2366 0.0
O44 O 0.04313 0.17006 0.11978 0.0
O45 O 0.94565 0.00468 0.03024 0.0
O46 O 0.96669 0.94289 0.83792 0.0
O47 O 0.10365 0.04333 0.87478 0.0
O48 O 0.94611 0.08072 0.00288 0.0
O49 O 0.14823 0.16717 0.98453 0.0
O50 O 0.03378 0.83493 0.91731 0.0
O51 O 0.11368 0.99495 0.00363 0.0
O52 O 0.03524 0.06273 0.17664 0.0
O53 O 0.95997 0.94985 0.12381 0.0
O54 O 0.13381 0.91845 0.88268 0.0
O55 O 0.90959 0.84266 0.03578 0.0
C56 C 0.88999 0.02461 0.0064 0.0
C57 C 0.14318 0.26941 0.09498 0.0
C58 C 0.13626 0.37331 0.12068 0.0
C59 C 0.09276 0.30552 0.08656 0.0
C60 C 0.23221 0.40439 0.16298 0.0
C61 C 0.23842 0.30102 0.13761 0.0
C62 C 0.28262 0.36836 0.17145 0.0
C63 C 0.03303 0.99449 0.81707 0.0
C64 C 0.09459 0.19889 0.05665 0.0
C65 C 0.47667 0.20095 0.2157 0.0
C66 C 0.52106 0.18291 0.11851 0.0
C67 C 0.18241 0.97416 0.94353 0.0
C68 C 0.9185 0.73921 0.94579 0.0
C69 C 0.9402 0.70245 0.9835 0.0
C70 C 0.88813 0.63506 0.9527 0.0
C71 C 0.81577 0.60505 0.88252 0.0
C72 C 0.84594 0.70816 0.87601 0.0
C73 C 0.79526 0.64144 0.84431 0.0
C74 C 0.98948 0.00767 0.1931 0.0
C75 C 0.96994 0.80984 0.98117 0.0
H76 H 1.02005 0.28046 0.0518 0.0
H77 H 0.26751 0.45647 0.19069 0.0
H78 H 0.27852 0.2738 0.14427 0.0
H79 H 0.35619 0.39275 0.20447 0.0
H80 H 0.99548 0.72633 0.0382 0.0
H81 H 0.77541 0.55326 0.85676 0.0
H82 H 0.828 0.73535 0.84632 0.0
H83 H 0.73947 0.61788 0.7903 0.0
H84 H 0.98128 0.91722 0.25991 0.0
H85 H 0.96058 0.10627 0.35789 0.0
H86 H 0.9619 0.12051 0.52861 0.0
H87 H 0.81189 0.87499 0.47531 0.0
H88 H 0.8904 0.83301 0.47641 0.0
H89 H 0.87753 0.83508 0.3625 0.0
H90 H 0.08154 0.88216 0.33079 0.0
H91 H 0.09461 0.88112 0.44522 0.0
H92 H 0.155 0.95528 0.42081 0.0
H93 H 0.98739 0.1203 0.68403 0.0
H94 H 1.01813 0.10134 0.82008 0.0
H95 H 1.01225 0.91004 0.6261 0.0
C96 C 0.97427 0.96088 0.31759 0.0
C97 C 0.973 0.01132 0.2956 0.0
C98 C 0.96489 0.06794 0.37284 0.0
C99 C 0.96441 0.07615 0.47015 0.0
C100 C 0.97001 0.02672 0.48916 0.0
C101 C 0.97275 0.96963 0.41556 0.0
C102 C 0.983 0.92543 0.45623 0.0
C103 C 0.88483 0.86346 0.44175 0.0
C104 C 0.08459 0.91014 0.41054 0.0
C105 C 0.98894 0.96758 0.56354 0.0
C106 C 0.98109 0.02572 0.58058 0.0
C107 C 0.99174 0.07456 0.6721 0.0
C108 C 1.01013 0.06357 0.74856 0.0
C109 C 1.01674 0.00409 0.73334 0.0
C110 C 1.00531 0.95531 0.63988 0.0
H111 H 0.35807 0.95685 0.82267 0.0
H112 H 0.23289 0.01422 0.12815 0.0
H113 H 0.39593 0.02361 0.17592 0.0
H114 H 0.48068 0.86175 0.83623 0.0
H115 H 0.59863 0.88418 0.75581 0.0
H116 H 0.47663 0.88512 0.73967 0.0
H117 H 0.55742 0.00663 0.76028 0.0
H118 H 0.68175 0.00189 0.76129 0.0
H119 H 0.63789 0.06253 0.85941 0.0
H120 H 0.57258 0.02827 0.19097 0.0
H121 H 0.7579 0.036 0.17274 0.0
H122 H 0.76852 0.97398 0.85815 0.0
C123 C 0.36602 0.97217 0.89957 0.0
C124 C 0.28426 0.98614 0.97193 0.0
C125 C 0.29578 0.00469 0.0718 0.0
C126 C 0.38767 0.00964 0.09954 0.0
C127 C 0.46681 0.99529 0.02645 0.0
C128 C 0.45779 0.97788 0.92862 0.0
C129 C 0.55491 0.96533 0.86485 0.0
C130 C 0.52607 0.89487 0.79496 0.0
C131 C 0.61114 0.01187 0.80812 0.0
C132 C 0.62042 0.97925 0.94228 0.0
C133 C 0.56757 0.99584 0.03494 0.0
C134 C 0.61417 0.01441 0.1188 0.0
C135 C 0.71878 0.01811 0.10788 0.0
C136 C 0.77479 0.00265 0.01394 0.0
C137 C 0.72505 0.9829 0.93025 0.0
H138 H 0.07826 0.63551 0.97219 0.0
H139 H 0.73921 0.54438 0.02481 0.0
H140 H 0.76684 0.47235 0.08304 0.0
H141 H 0.13609 0.49289 0.87889 0.0
H142 H 0.25786 0.52896 0.93396 0.0
H143 H 0.21241 0.57742 0.9046 0.0
H144 H 0.21991 0.65628 0.08443 0.0
H145 H 0.26561 0.60808 0.11444 0.0
H146 H 0.14923 0.62575 0.18184 0.0
H147 H 0.8297 0.40684 0.12745 0.0
H148 H 0.92382 0.35019 0.15284 0.0
H149 H 0.2231 0.48099 0.06743 0.0
C150 C 1.01011 0.60119 0.99781 0.0
C151 C 0.90653 0.59556 0.99435 0.0
C152 C 0.81913 0.54923 0.02652 0.0
C153 C 0.83405 0.50835 0.06012 0.0
C154 C 0.93695 0.5143 0.06112 0.0
C155 C 1.02363 0.5595 0.03093 0.0
C156 C 0.12554 0.55314 0.03427 0.0
C157 C 0.18652 0.53713 0.93183 0.0
C158 C 0.19411 0.61446 0.10816 0.0
C159 C 0.08234 0.4967 0.06954 0.0
C160 C 0.9734 0.47554 0.08539 0.0
C161 C 0.91505 0.42305 0.11554 0.0
C162 C 0.96928 0.39087 0.12906 0.0
C163 C 0.08094 0.41078 0.11168 0.0
C164 C 0.13794 0.46499 0.08256 0.0
loop_
_geom_bond_atom_site_label_1
_geom_bond_atom_site_label_2
_geom_bond_distance
_geom_bond_site_symmetry_2
_ccdc_geom_bond_type
Eu0 N31 2.657 1_554 S
Eu0 N38 2.609 . S
Eu0 O44 2.558 . S
Eu0 O45 2.612 1_444 S
Eu0 O47 2.339 1_554 S
Eu0 O48 2.563 1_455 S
Eu0 O49 2.419 . S
Eu0 O51 2.380 . S
Eu0 O52 2.432 1_455 S
Eu0 C64 2.848 . S
C1 C4 1.429 . S
C1 C5 1.411 . S
C1 N8 1.377 . S
C2 C4 1.420 . S
C2 C6 1.423 . S
C2 C14 1.392 1_556 S
C3 C5 1.420 . S
C3 C6 1.351 . S
C3 H26 0.931 . S
C4 C1 1.429 . S
C4 C2 1.420 . S
C4 N12 1.362 1_556 S
C5 C1 1.411 . S
C5 C3 1.420 . S
C5 C10 1.395 . S
C6 C2 1.423 . S
C6 C3 1.351 . S
C6 H18 0.930 . S
C7 C9 1.400 . S
C7 C10 1.386 . S
C7 H19 0.930 . S
N8 C1 1.377 . S
N8 C9 1.321 . S
N8 Eu11 2.609 . S
C9 C7 1.400 . S
C9 N8 1.321 . S
C9 H16 0.930 . S
C10 C5 1.395 . S
C10 C7 1.386 . S
C10 H29 0.930 . S
Eu11 N8 2.609 . S
Eu11 N12 2.657 1_556 S
Eu11 O45 2.380 . S
Eu11 O46 2.432 1_655 S
Eu11 O50 2.558 . S
Eu11 O51 2.612 1_666 S
Eu11 O53 2.339 1_556 S
Eu11 O54 2.563 1_655 S
Eu11 O55 2.419 . S
Eu11 C75 2.848 . S
N12 C4 1.362 1_554 S
N12 Eu11 2.657 1_554 S
N12 C13 1.334 . S
C13 N12 1.334 . S
C13 C15 1.413 . S
C13 H20 0.929 . S
C14 C2 1.392 1_554 S
C14 C15 1.367 . S
C14 H22 0.930 . S
C15 C13 1.413 . S
C15 C14 1.367 . S
C15 H17 0.930 . S
H16 C9 0.930 . S
H17 C15 0.930 . S
H18 C6 0.930 . S
H19 C7 0.930 . S
H20 C13 0.929 . S
H21 C35 0.930 . S
H22 C14 0.930 . S
H23 C41 0.930 . S
H24 C32 0.929 . S
H25 C39 0.930 . S
H26 C3 0.931 . S
H27 C33 0.930 . S
H28 C66 0.930 . S
H29 C10 0.930 . S
H30 C65 0.931 . S
N31 Eu0 2.657 1_556 S
N31 C32 1.334 . S
N31 C36 1.362 1_556 S
C32 H24 0.929 . S
C32 N31 1.334 . S
C32 C35 1.413 . S
C33 H27 0.930 . S
C33 C34 1.392 1_556 S
C33 C35 1.367 . S
C34 C33 1.392 1_554 S
C34 C36 1.420 . S
C34 C66 1.423 . S
C35 H21 0.930 . S
C35 C32 1.413 . S
C35 C33 1.367 . S
C36 N31 1.362 1_554 S
C36 C34 1.420 . S
C36 C40 1.429 . S
H37 C42 0.930 . S
N38 Eu0 2.609 . S
N38 C40 1.377 . S
N38 C41 1.321 . S
C39 H25 0.930 . S
C39 C41 1.400 . S
C39 C42 1.386 . S
C40 C36 1.429 . S
C40 N38 1.377 . S
C40 C43 1.411 . S
C41 H23 0.930 . S
C41 N38 1.321 . S
C41 C39 1.400 . S
C42 H37 0.930 . S
C42 C39 1.386 . S
C42 C43 1.395 . S
C43 C40 1.411 . S
C43 C42 1.395 . S
C43 C65 1.420 . S
O44 Eu0 2.558 . S
O44 C64 1.257 . S
O45 Eu0 2.612 1_666 S
O45 Eu11 2.380 . S
O45 C56 1.276 1_566 S
O46 Eu11 2.432 1_455 S
O46 C63 1.264 . S
O47 Eu0 2.339 1_556 S
O47 C63 1.254 1_545 S
O48 Eu0 2.563 1_655 S
O48 C56 1.235 . S
O49 Eu0 2.419 . S
O49 C64 1.249 . S
O50 Eu11 2.558 . S
O50 C75 1.257 . S
O51 Eu0 2.380 . S
O51 Eu11 2.612 1_444 S
O51 C67 1.276 1_544 S
O52 Eu0 2.432 1_655 S
O52 C74 1.264 . S
O53 Eu11 2.339 1_554 S
O53 C74 1.254 1_565 S
O54 Eu11 2.563 1_455 S
O54 C67 1.235 . S
O55 Eu11 2.419 . S
O55 C75 1.249 . S
C56 O45 1.276 1_544 S
C56 O48 1.235 . S
C57 C59 1.393 . S
C57 C61 1.395 . S
C57 C64 1.492 . S
C58 C59 1.392 . S
C58 C60 1.386 . S
C59 C57 1.393 . S
C59 C58 1.392 . S
C59 H76 0.930 1_554 S
C60 C58 1.386 . S
C60 C62 1.395 . S
C60 H77 0.930 . S
C61 C57 1.395 . S
C61 C62 1.379 . S
C61 H78 0.930 . S
C62 C60 1.395 . S
C62 C61 1.379 . S
C62 H79 0.930 . S
C63 O46 1.264 . S
C63 O47 1.254 1_565 S
C64 Eu0 2.848 . S
C64 O44 1.257 . S
C64 O49 1.249 . S
C64 C57 1.492 . S
C65 H30 0.931 . S
C65 C43 1.420 . S
C65 C66 1.351 . S
C66 H28 0.930 . S
C66 C34 1.423 . S
C66 C65 1.351 . S
C67 O51 1.276 1_566 S
C67 O54 1.235 . S
C68 C69 1.393 . S
C68 C72 1.395 . S
C68 C75 1.492 . S
C69 C68 1.393 . S
C69 C70 1.392 . S
C69 H80 0.930 1_556 S
C70 C69 1.392 . S
C70 C71 1.386 . S
C71 C70 1.386 . S
C71 C73 1.395 . S
C71 H81 0.930 . S
C72 C68 1.395 . S
C72 C73 1.379 . S
C72 H82 0.930 . S
C73 C71 1.395 . S
C73 C72 1.379 . S
C73 H83 0.930 . S
C74 O52 1.264 . S
C74 O53 1.254 1_545 S
C75 Eu11 2.848 . S
C75 O50 1.257 . S
C75 O55 1.249 . S
C75 C68 1.492 . S
H76 C59 0.930 1_556 S
H77 C60 0.930 . S
H78 C61 0.930 . S
H79 C62 0.930 . S
H80 C69 0.930 1_554 S
H81 C71 0.930 . S
H82 C72 0.930 . S
H83 C73 0.930 . S
H84 C96 0.930 . S
H85 C98 0.930 . S
H86 C99 0.930 . S
H87 C103 0.959 . S
H88 C103 0.959 . S
H89 C103 0.961 . S
H90 C104 0.960 . S
H91 C104 0.961 . S
H92 C104 0.959 . S
H93 C107 0.929 . S
H94 C108 0.931 . S
H95 C110 0.930 . S
C96 H84 0.930 . S
C96 C97 1.399 1_665 S
C96 C101 1.399 . S
C97 C96 1.399 1_445 S
C97 C98 1.376 . S
C98 H85 0.930 . S
C98 C97 1.376 . S
C98 C99 1.388 . S
C99 H86 0.930 . S
C99 C98 1.388 . S
C99 C100 1.390 . S
C100 C99 1.390 . S
C100 C101 1.394 1_445 S
C100 C106 1.465 . S
C101 C96 1.399 . S
C101 C100 1.394 1_665 S
C101 C102 1.516 . S
C102 C101 1.516 . S
C102 C103 1.502 . S
C102 C104 1.561 1_655 S
C102 C105 1.526 . S
C103 H87 0.959 . S
C103 H88 0.959 . S
C103 H89 0.961 . S
C103 C102 1.502 . S
C104 H90 0.960 . S
C104 H91 0.961 . S
C104 H92 0.959 . S
C104 C102 1.561 1_455 S
C105 C102 1.526 . S
C105 C106 1.396 1_665 S
C105 C110 1.390 . S
C106 C100 1.465 . S
C106 C105 1.396 1_445 S
C106 C107 1.399 . S
C107 H93 0.929 . S
C107 C106 1.399 . S
C107 C108 1.385 . S
C108 H94 0.931 . S
C108 C107 1.385 . S
C108 C109 1.389 . S
C109 C108 1.389 . S
C109 C110 1.387 1_445 S
C110 H95 0.930 . S
C110 C105 1.390 . S
C110 C109 1.387 1_665 S
H111 C123 0.930 . S
H112 C125 0.930 . S
H113 C126 0.930 . S
H114 C130 0.959 . S
H115 C130 0.959 . S
H116 C130 0.961 . S
H117 C131 0.960 . S
H118 C131 0.961 . S
H119 C131 0.959 1_545 S
H120 C134 0.929 . S
H121 C135 0.931 . S
H122 C137 0.930 . S
C123 H111 0.930 . S
C123 C124 1.399 1_566 S
C123 C128 1.399 . S
C124 C123 1.399 1_544 S
C124 C125 1.376 . S
C125 H112 0.930 . S
C125 C124 1.376 . S
C125 C126 1.388 . S
C126 H113 0.930 . S
C126 C125 1.388 . S
C126 C127 1.390 . S
C127 C126 1.390 . S
C127 C128 1.394 1_544 S
C127 C133 1.465 . S
C128 C123 1.399 . S
C128 C127 1.394 1_566 S
C128 C129 1.516 . S
C129 C128 1.516 . S
C129 C130 1.502 . S
C129 C131 1.561 . S
C129 C132 1.526 . S
C130 H114 0.959 . S
C130 H115 0.959 . S
C130 H116 0.961 . S
C130 C129 1.502 . S
C131 H117 0.960 . S
C131 H118 0.961 . S
C131 H119 0.959 1_565 S
C131 C129 1.561 . S
C132 C129 1.526 . S
C132 C133 1.396 1_566 S
C132 C137 1.390 . S
C133 C127 1.465 . S
C133 C132 1.396 1_544 S
C133 C134 1.399 . S
C134 H120 0.929 . S
C134 C133 1.399 . S
C134 C135 1.385 . S
C135 H121 0.931 . S
C135 C134 1.385 . S
C135 C136 1.389 . S
C136 C135 1.389 . S
C136 C137 1.387 1_544 S
C137 H122 0.930 . S
C137 C132 1.390 . S
C137 C136 1.387 1_566 S
H138 C150 0.930 . S
H139 C152 0.930 . S
H140 C153 0.930 . S
H141 C157 0.959 . S
H142 C157 0.959 . S
H143 C157 0.961 . S
H144 C158 0.960 . S
H145 C158 0.961 . S
H146 C158 0.959 1_655 S
H147 C161 0.929 . S
H148 C162 0.931 . S
H149 C164 0.930 . S
C150 H138 0.930 . S
C150 C151 1.399 1_454 S
C150 C155 1.399 . S
C151 C150 1.399 1_656 S
C151 C152 1.376 . S
C152 H139 0.930 . S
C152 C151 1.376 . S
C152 C153 1.388 . S
C153 H140 0.930 . S
C153 C152 1.388 . S
C153 C154 1.390 . S
C154 C153 1.390 . S
C154 C155 1.394 1_656 S
C154 C160 1.465 . S
C155 C150 1.399 . S
C155 C154 1.394 1_454 S
C155 C156 1.516 . S
C156 C155 1.516 . S
C156 C157 1.502 . S
C156 C158 1.561 . S
C156 C159 1.526 . S
C157 H141 0.959 . S
C157 H142 0.959 . S
C157 H143 0.961 . S
C157 C156 1.502 . S
C158 H144 0.960 . S
C158 H145 0.961 . S
C158 H146 0.959 1_455 S
C158 C156 1.561 . S
C159 C156 1.526 . S
C159 C160 1.396 1_454 S
C159 C164 1.390 . S
C160 C154 1.465 . S
C160 C159 1.396 1_656 S
C160 C161 1.399 . S
C161 H147 0.929 . S
C161 C160 1.399 . S
C161 C162 1.385 . S
C162 H148 0.931 . S
C162 C161 1.385 . S
C162 C163 1.389 . S
C163 C162 1.389 . S
C163 C164 1.387 1_656 S
C164 H149 0.930 . S
C164 C159 1.390 . S
C164 C163 1.387 1_454 S
C97 C74 1.469 1_455 S
C109 C63 1.470 1_545 S
C124 C67 1.473 1_544 S
C136 C56 1.394 . S
C151 C70 1.270 . S
C163 C58 1.379 1_656 S
