# Generated by pormake.
# Topology pcu, (6)-cn, num edge types: 1
# Building blocks:
#     Node 0, Type 0, BuildingBlock: KUMJIN_clean_sbu_1, # of connection points: 6
#     Edge 1, Type (0, 0), BuildingBlock: FUNLAD_clean_linker_1, # of connection points: 2
#     Edge 2, Type (0, 0), BuildingBlock: FUNLAD_clean_linker_1, # of connection points: 2
#     Edge 3, Type (0, 0), BuildingBlock: FUNLAD_clean_linker_1, # of connection points: 2
# Relax obj value: 0.000
# Max RMSD: 0.000
# Mean RMSD: 0.000
data_MOF--net-pcu--node1-KUMJIN_clean_sbu_1--edge1-FUNLAD_clean_linker_1
_symmetry_space_group_name_H-M    P1
_symmetry_Int_Tables_number       1
_symmetry_cell_setting            triclinic
loop_
_symmetry_equiv_pos_as_xyz
'x, y, z'
_cell_length_a     15.394899
_cell_length_b     25.657188
_cell_length_c     15.487686
_cell_angle_alpha  114.9319
_cell_angle_beta   89.019608
_cell_angle_gamma 114.81526
loop_
_atom_site_label
_atom_site_type_symbol
_atom_site_fract_x
_atom_site_fract_y
_atom_site_fract_z
_atom_type_partial_charge
Eu0 Eu 0.96233 0.90669 0.94292 0.0
C1 C 0.30355 0.18252 0.14754 0.0
N2 N 0.2192 0.1581 0.17821 0.0
C3 C 0.3088 0.20094 0.33722 0.0
C4 C 0.3946 0.21578 0.21066 0.0
C5 C 0.22017 0.16797 0.27197 0.0
C6 C 0.39639 0.22451 0.30627 0.0
C7 C 0.38491 0.19877 0.01901 0.0
C8 C 0.2985 0.17295 0.05208 0.0
C9 C 0.47582 0.2311 0.08124 0.0
C10 C 0.48067 0.23935 0.17664 0.0
Eu11 Eu 0.07305 0.10262 0.06334 0.0
N12 N 0.20938 0.14084 0.99293 0.0
C13 C 0.37737 0.19299 0.92521 0.0
C14 C 0.20197 0.14019 0.90478 0.0
C15 C 0.28541 0.1645 0.86848 0.0
H16 H 0.15231 0.15027 0.29593 0.0
H17 H 0.27875 0.16262 0.79765 0.0
H18 H 0.88307 0.85905 0.71032 0.0
H19 H 0.75663 0.84672 0.20861 0.0
H20 H 0.13215 0.12319 0.86343 0.0
H21 H 0.44188 0.21261 0.89739 0.0
H22 H 0.90323 0.88612 0.14283 0.0
H23 H 0.30971 0.20832 0.41134 0.0
H24 H 0.54283 0.2507 0.05666 0.0
H25 H 0.55132 0.26475 0.22393 0.0
H26 H 0.72568 0.801 0.59491 0.0
H27 H 0.4649 0.24988 0.35699 0.0
H28 H 0.5935 0.79672 0.10886 0.0
N29 N 0.81618 0.85121 0.82804 0.0
C30 C 0.73182 0.8268 0.85871 0.0
C31 C 0.72658 0.80838 0.66903 0.0
C32 C 0.64077 0.79353 0.79559 0.0
C33 C 0.81521 0.84134 0.73429 0.0
C34 C 0.63899 0.78481 0.69998 0.0
N35 N 0.82599 0.86845 0.0133 0.0
C36 C 0.8334 0.86913 0.10147 0.0
C37 C 0.65046 0.81054 0.98724 0.0
C38 C 0.73687 0.83635 0.95417 0.0
C39 C 0.65801 0.81633 0.08104 0.0
C40 C 0.74996 0.84482 0.13778 0.0
H41 H 0.57048 0.75944 0.64926 0.0
H42 H 0.48405 0.74458 0.78232 0.0
H43 H 0.49254 0.75863 0.94959 0.0
O44 O 0.98691 0.8355 0.9708 0.0
O45 O 0.86852 0.95047 0.92078 0.0
O46 O 0.91314 0.04539 0.06002 0.0
O47 O 0.96077 0.82199 0.82303 0.0
O48 O 0.02335 0.9654 0.10659 0.0
O49 O 0.99395 0.0542 0.15398 0.0
O50 O 0.04848 0.17382 0.03546 0.0
O51 O 0.16686 0.05884 0.08549 0.0
O52 O 0.12224 0.96393 0.94624 0.0
O53 O 0.07462 0.18733 0.18323 0.0
O54 O 1.01202 0.04392 0.89966 0.0
O55 O 0.04143 0.95511 0.85228 0.0
C56 C 0.84709 0.9933 0.98714 0.0
C57 C 0.98622 0.73877 0.83754 0.0
C58 C 0.99481 0.64988 0.8535 0.0
C59 C 0.99871 0.622 0.75418 0.0
C60 C 0.9917 0.7102 0.73911 0.0
C61 C 0.99777 0.65227 0.69797 0.0
C62 C 0.98778 0.7083 0.89452 0.0
C63 C 1.00891 0.01285 0.17276 0.0
C64 C 0.97747 0.79955 0.8785 0.0
C65 C 0.55471 0.76998 0.82961 0.0
C66 C 0.55955 0.77822 0.92501 0.0
C67 C 0.18828 0.01602 0.01913 0.0
C68 C 0.04919 0.27056 0.16871 0.0
C69 C 0.0406 0.35945 0.15275 0.0
C70 C 0.03671 0.38733 0.25207 0.0
C71 C 0.04372 0.29913 0.26715 0.0
C72 C 0.04763 0.30102 0.11173 0.0
C73 C 0.03766 0.35706 0.30829 0.0
C74 C 0.02646 0.99647 0.83349 0.0
C75 C 0.05793 0.20977 0.12775 0.0
H76 H 1.0003 0.57608 0.71859 0.0
H77 H 0.99075 0.73242 0.69341 0.0
H78 H 1.00079 0.63036 0.62176 0.0
H79 H 0.98313 0.72978 0.97044 0.0
H80 H 0.03513 0.43326 0.28767 0.0
H81 H 0.04467 0.27692 0.31285 0.0
H82 H 0.05226 0.27954 0.03581 0.0
H83 H 0.03465 0.37898 0.3845 0.0
H84 H 0.97539 0.05065 0.31873 0.0
C85 C 1.00637 0.02011 0.27259 0.0
H86 H 0.07282 0.96133 0.26346 0.0
H87 H 0.08506 0.13706 0.73679 0.0
H88 H 0.18884 0.23067 0.71574 0.0
H89 H 0.22676 0.21914 0.5553 0.0
H90 H 0.16006 0.11359 0.41505 0.0
C91 C 0.04192 0.99211 0.30888 0.0
C92 C 0.03323 0.99854 0.40893 0.0
C93 C 0.0761 0.06019 0.4914 0.0
C94 C 0.05815 0.06648 0.58496 0.0
C95 C 0.09875 0.129 0.66483 0.0
C96 C 0.15816 0.18334 0.65365 0.0
C97 C 0.17919 0.17686 0.56327 0.0
C98 C 0.13929 0.11613 0.48306 0.0
H99 H 0.05998 0.95867 0.68753 0.0
C100 C 0.029 0.98921 0.73367 0.0
H101 H 0.96255 0.04799 0.7428 0.0
H102 H 0.95031 0.87226 0.26947 0.0
H103 H 0.84653 0.77865 0.29052 0.0
H104 H 0.80861 0.79017 0.45096 0.0
H105 H 0.87531 0.89572 0.59121 0.0
C106 C 0.99345 0.01721 0.69738 0.0
C107 C 1.00214 0.01078 0.59732 0.0
C108 C 0.95927 0.94913 0.51486 0.0
C109 C 0.97721 0.94284 0.4213 0.0
C110 C 0.93662 0.88032 0.34142 0.0
C111 C 0.87721 0.82598 0.35261 0.0
C112 C 0.85618 0.83245 0.44299 0.0
C113 C 0.89608 0.89318 0.5232 0.0
H114 H 0.34287 0.06917 0.09193 0.0
C115 C 0.28969 0.02591 0.03044 0.0
H116 H 0.26568 0.93877 0.90836 0.0
H117 H 0.74473 0.11017 0.97993 0.0
H118 H 0.70564 0.17023 0.91429 0.0
H119 H 0.53558 0.14927 0.87809 0.0
H120 H 0.40335 0.06922 0.90947 0.0
C121 C 0.31801 0.98341 0.96853 0.0
C122 C 0.42007 0.99389 0.985 0.0
C123 C 0.49623 0.04099 0.9664 0.0
C124 C 0.59414 0.05217 0.98544 0.0
C125 C 0.66898 0.09956 0.96645 0.0
C126 C 0.64759 0.13434 0.92869 0.0
C127 C 0.55177 0.12265 0.90856 0.0
C128 C 0.47666 0.07669 0.92718 0.0
H129 H 0.69251 0.94014 0.91434 0.0
C130 C 0.74569 0.98341 0.97583 0.0
H131 H 0.7697 0.07055 0.0979 0.0
H132 H 0.29065 0.89914 0.02633 0.0
H133 H 0.32973 0.83909 0.09198 0.0
H134 H 0.4998 0.86005 0.12818 0.0
H135 H 0.63203 0.9401 0.0968 0.0
C136 C 0.71737 0.0259 0.03773 0.0
C137 C 0.6153 0.01542 0.02126 0.0
C138 C 0.53915 0.96832 0.03986 0.0
C139 C 0.44124 0.95715 0.02082 0.0
C140 C 0.3664 0.90975 0.03981 0.0
C141 C 0.38779 0.87498 0.07758 0.0
C142 C 0.48361 0.88667 0.0977 0.0
C143 C 0.55872 0.93262 0.07908 0.0
H144 H 0.96261 0.6294 0.97947 0.0
C145 C 0.99315 0.61729 0.91415 0.0
H146 H 0.06561 0.56421 0.83155 0.0
H147 H 0.19254 0.51256 0.15981 0.0
H148 H 0.34614 0.59696 0.16406 0.0
H149 H 0.35342 0.65593 0.07074 0.0
H150 H 0.2068 0.63107 0.97307 0.0
C151 C 0.02771 0.57371 0.89168 0.0
C152 C 0.02178 0.53956 0.9508 0.0
C153 C 0.10829 0.55379 0.0062 0.0
C154 C 0.10422 0.51923 0.05915 0.0
C155 C 0.19146 0.53616 0.11648 0.0
C156 C 0.2802 0.5848 0.11999 0.0
C157 C 0.2843 0.61803 0.06749 0.0
C158 C 0.1996 0.60308 0.01143 0.0
H159 H 0.07279 0.37992 0.02677 0.0
C160 C 0.04226 0.39203 0.0921 0.0
H161 H 0.96981 0.44512 0.1747 0.0
H162 H 0.84287 0.49676 0.84643 0.0
H163 H 0.68927 0.41236 0.84219 0.0
H164 H 0.682 0.3534 0.93551 0.0
H165 H 0.82861 0.37826 0.03318 0.0
C166 C 1.00771 0.43561 0.11457 0.0
C167 C 1.01363 0.46976 0.05545 0.0
C168 C 0.92712 0.45553 1.00004 0.0
C169 C 0.93119 0.49009 0.94709 0.0
C170 C 0.84395 0.47316 0.88977 0.0
C171 C 0.75521 0.42452 0.88626 0.0
C172 C 0.75111 0.3913 0.93875 0.0
C173 C 0.83581 0.40624 0.99482 0.0
loop_
_geom_bond_atom_site_label_1
_geom_bond_atom_site_label_2
_geom_bond_distance
_geom_bond_site_symmetry_2
_ccdc_geom_bond_type
Eu0 N29 2.600 . S
Eu0 N35 2.562 . S
Eu0 O44 2.462 . S
Eu0 O45 2.373 . S
Eu0 O47 2.432 . S
Eu0 O48 2.291 1_556 S
Eu0 O52 2.335 1_655 S
Eu0 O55 2.372 . S
Eu0 C64 2.787 . S
C1 N2 1.365 . S
C1 C4 1.405 . S
C1 C8 1.448 . S
N2 C1 1.365 . S
N2 C5 1.319 . S
N2 Eu11 2.600 . S
C3 C5 1.397 . S
C3 C6 1.367 . S
C3 H23 0.931 . S
C4 C1 1.405 . S
C4 C6 1.403 . S
C4 C10 1.439 . S
C5 N2 1.319 . S
C5 C3 1.397 . S
C5 H16 0.930 . S
C6 C3 1.367 . S
C6 C4 1.403 . S
C6 H27 0.929 . S
C7 C8 1.430 . S
C7 C9 1.387 . S
C7 C13 1.404 . S
C8 C1 1.448 . S
C8 C7 1.430 . S
C8 N12 1.351 . S
C9 C7 1.387 . S
C9 C10 1.374 . S
C9 H24 0.931 . S
C10 C4 1.439 . S
C10 C9 1.374 . S
C10 H25 0.931 . S
Eu11 N2 2.600 . S
Eu11 N12 2.562 . S
Eu11 O46 2.335 1_455 S
Eu11 O49 2.372 . S
Eu11 O50 2.462 . S
Eu11 O51 2.373 . S
Eu11 O53 2.432 . S
Eu11 O54 2.291 1_554 S
Eu11 C75 2.787 . S
N12 C8 1.351 . S
N12 Eu11 2.562 . S
N12 C14 1.325 1_554 S
C13 C7 1.404 . S
C13 C15 1.366 1_554 S
C13 H21 0.930 1_554 S
C14 N12 1.325 1_556 S
C14 C15 1.416 . S
C14 H20 0.929 . S
C15 C13 1.366 1_556 S
C15 C14 1.416 . S
C15 H17 0.930 . S
H16 C5 0.930 . S
H17 C15 0.930 . S
H18 C33 0.930 . S
H19 C40 0.930 . S
H20 C14 0.929 . S
H21 C13 0.930 1_556 S
H22 C36 0.929 . S
H23 C3 0.931 . S
H24 C9 0.931 . S
H25 C10 0.931 . S
H26 C31 0.931 . S
H27 C6 0.929 . S
H28 C39 0.930 1_554 S
N29 Eu0 2.600 . S
N29 C30 1.365 . S
N29 C33 1.319 . S
C30 N29 1.365 . S
C30 C32 1.405 . S
C30 C38 1.448 . S
C31 H26 0.931 . S
C31 C33 1.397 . S
C31 C34 1.367 . S
C32 C30 1.405 . S
C32 C34 1.403 . S
C32 C65 1.439 . S
C33 H18 0.930 . S
C33 N29 1.319 . S
C33 C31 1.397 . S
C34 C31 1.367 . S
C34 C32 1.403 . S
C34 H41 0.929 . S
N35 Eu0 2.562 . S
N35 C36 1.325 1_556 S
N35 C38 1.351 . S
C36 H22 0.929 . S
C36 N35 1.325 1_554 S
C36 C40 1.416 . S
C37 C38 1.430 . S
C37 C39 1.404 . S
C37 C66 1.387 . S
C38 C30 1.448 . S
C38 N35 1.351 . S
C38 C37 1.430 . S
C39 H28 0.930 1_556 S
C39 C37 1.404 . S
C39 C40 1.366 1_556 S
C40 H19 0.930 . S
C40 C36 1.416 . S
C40 C39 1.366 1_554 S
H41 C34 0.929 . S
H42 C65 0.931 . S
H43 C66 0.931 . S
O44 Eu0 2.462 . S
O44 C64 1.252 . S
O45 Eu0 2.373 . S
O45 C56 1.248 . S
O46 Eu11 2.335 1_655 S
O46 C56 1.264 1_544 S
O47 Eu0 2.432 . S
O47 C64 1.268 . S
O48 Eu0 2.291 1_554 S
O48 C63 1.255 1_565 S
O49 Eu11 2.372 . S
O49 C63 1.257 1_455 S
O50 Eu11 2.462 . S
O50 C75 1.252 . S
O51 Eu11 2.373 . S
O51 C67 1.252 . S
O52 Eu0 2.335 1_455 S
O52 C67 1.262 1_566 S
O53 Eu11 2.432 . S
O53 C75 1.268 . S
O54 Eu11 2.291 1_556 S
O54 C74 1.255 1_545 S
O55 Eu0 2.372 . S
O55 C74 1.257 1_655 S
C56 O45 1.248 . S
C56 O46 1.264 1_566 S
C57 C60 1.382 . S
C57 C62 1.390 . S
C57 C64 1.506 . S
C58 C59 1.398 . S
C58 C62 1.392 . S
C59 C58 1.398 . S
C59 C61 1.372 . S
C59 H76 0.931 . S
C60 C57 1.382 . S
C60 C61 1.390 . S
C60 H77 0.931 . S
C61 C59 1.372 . S
C61 C60 1.390 . S
C61 H78 0.929 . S
C62 C57 1.390 . S
C62 C58 1.392 . S
C62 H79 0.930 1_556 S
C63 O48 1.255 1_545 S
C63 O49 1.257 1_655 S
C64 Eu0 2.787 . S
C64 O44 1.252 . S
C64 O47 1.268 . S
C64 C57 1.506 . S
C65 C32 1.439 . S
C65 H42 0.931 . S
C65 C66 1.374 . S
C66 C37 1.387 . S
C66 H43 0.931 . S
C66 C65 1.374 . S
C67 O51 1.252 . S
C67 O52 1.262 1_544 S
C68 C71 1.382 . S
C68 C72 1.390 . S
C68 C75 1.506 . S
C69 C70 1.398 . S
C69 C72 1.392 . S
C70 C69 1.398 . S
C70 C73 1.372 . S
C70 H80 0.931 . S
C71 C68 1.382 . S
C71 C73 1.390 . S
C71 H81 0.931 . S
C72 C68 1.390 . S
C72 C69 1.392 . S
C72 H82 0.930 1_554 S
C73 C70 1.372 . S
C73 C71 1.390 . S
C73 H83 0.929 . S
C74 O54 1.255 1_565 S
C74 O55 1.257 1_455 S
C75 Eu11 2.787 . S
C75 O50 1.252 . S
C75 O53 1.268 . S
C75 C68 1.506 . S
H76 C59 0.931 . S
H77 C60 0.931 . S
H78 C61 0.929 . S
H79 C62 0.930 1_554 S
H80 C70 0.931 . S
H81 C71 0.931 . S
H82 C72 0.930 1_556 S
H83 C73 0.929 . S
H84 C85 0.951 . S
C85 H84 0.951 . S
C85 C91 1.265 1_665 S
H86 C91 0.950 . S
H87 C95 0.949 . S
H88 C96 0.950 . S
H89 C97 0.951 . S
H90 C98 0.951 . S
C91 C85 1.265 1_445 S
C91 H86 0.950 . S
C91 C92 1.478 . S
C92 C91 1.478 . S
C92 C93 1.397 . S
C92 C109 1.394 1_445 S
C93 C92 1.397 . S
C93 C94 1.438 . S
C93 C98 1.429 . S
C94 C93 1.438 . S
C94 C95 1.428 . S
C94 C107 1.394 1_445 S
C95 H87 0.949 . S
C95 C94 1.428 . S
C95 C96 1.345 . S
C96 H88 0.950 . S
C96 C95 1.345 . S
C96 C97 1.424 . S
C97 H89 0.951 . S
C97 C96 1.424 . S
C97 C98 1.347 . S
C98 H90 0.951 . S
C98 C93 1.429 . S
C98 C97 1.347 . S
H99 C100 0.951 . S
C100 H99 0.951 . S
C100 C106 1.265 1_445 S
H101 C106 0.950 . S
H102 C110 0.949 . S
H103 C111 0.950 . S
H104 C112 0.951 . S
H105 C113 0.951 . S
C106 C100 1.265 1_665 S
C106 H101 0.950 . S
C106 C107 1.478 . S
C107 C94 1.394 1_665 S
C107 C106 1.478 . S
C107 C108 1.397 . S
C108 C107 1.397 . S
C108 C109 1.438 . S
C108 C113 1.429 . S
C109 C92 1.394 1_665 S
C109 C108 1.438 . S
C109 C110 1.428 . S
C110 H102 0.949 . S
C110 C109 1.428 . S
C110 C111 1.345 . S
C111 H103 0.950 . S
C111 C110 1.345 . S
C111 C112 1.424 . S
C112 H104 0.951 . S
C112 C111 1.424 . S
C112 C113 1.347 . S
C113 H105 0.951 . S
C113 C108 1.429 . S
C113 C112 1.347 . S
H114 C115 0.951 . S
C115 H114 0.951 . S
C115 C121 1.265 1_544 S
H116 C121 0.950 . S
H117 C125 0.949 . S
H118 C126 0.950 . S
H119 C127 0.951 . S
H120 C128 0.951 . S
C121 C115 1.265 1_566 S
C121 H116 0.950 . S
C121 C122 1.478 . S
C122 C121 1.478 . S
C122 C123 1.397 . S
C122 C139 1.394 1_566 S
C123 C122 1.397 . S
C123 C124 1.438 . S
C123 C128 1.429 . S
C124 C123 1.438 . S
C124 C125 1.428 . S
C124 C137 1.394 1_566 S
C125 H117 0.949 . S
C125 C124 1.428 . S
C125 C126 1.345 . S
C126 H118 0.950 . S
C126 C125 1.345 . S
C126 C127 1.424 . S
C127 H119 0.951 . S
C127 C126 1.424 . S
C127 C128 1.347 . S
C128 H120 0.951 . S
C128 C123 1.429 . S
C128 C127 1.347 . S
H129 C130 0.951 . S
C130 H129 0.951 . S
C130 C136 1.265 1_566 S
H131 C136 0.950 . S
H132 C140 0.949 . S
H133 C141 0.950 . S
H134 C142 0.951 . S
H135 C143 0.951 . S
C136 C130 1.265 1_544 S
C136 H131 0.950 . S
C136 C137 1.478 . S
C137 C124 1.394 1_544 S
C137 C136 1.478 . S
C137 C138 1.397 . S
C138 C137 1.397 . S
C138 C139 1.438 . S
C138 C143 1.429 . S
C139 C122 1.394 1_544 S
C139 C138 1.438 . S
C139 C140 1.428 . S
C140 H132 0.949 . S
C140 C139 1.428 . S
C140 C141 1.345 . S
C141 H133 0.950 . S
C141 C140 1.345 . S
C141 C142 1.424 . S
C142 H134 0.951 . S
C142 C141 1.424 . S
C142 C143 1.347 . S
C143 H135 0.951 . S
C143 C138 1.429 . S
C143 C142 1.347 . S
H144 C145 0.951 . S
C145 H144 0.951 . S
C145 C151 1.265 1_654 S
H146 C151 0.950 . S
H147 C155 0.949 . S
H148 C156 0.950 . S
H149 C157 0.951 . S
H150 C158 0.951 . S
C151 C145 1.265 1_456 S
C151 H146 0.950 . S
C151 C152 1.478 . S
C152 C151 1.478 . S
C152 C153 1.397 1_556 S
C152 C169 1.394 1_455 S
C153 C152 1.397 1_554 S
C153 C154 1.438 . S
C153 C158 1.429 . S
C154 C153 1.438 . S
C154 C155 1.428 . S
C154 C167 1.394 1_455 S
C155 H147 0.949 . S
C155 C154 1.428 . S
C155 C156 1.345 . S
C156 H148 0.950 . S
C156 C155 1.345 . S
C156 C157 1.424 . S
C157 H149 0.951 . S
C157 C156 1.424 . S
C157 C158 1.347 . S
C158 H150 0.951 . S
C158 C153 1.429 . S
C158 C157 1.347 . S
H159 C160 0.951 . S
C160 H159 0.951 . S
C160 C166 1.265 1_456 S
H161 C166 0.950 . S
H162 C170 0.949 . S
H163 C171 0.950 . S
H164 C172 0.951 . S
H165 C173 0.951 . S
C166 C160 1.265 1_654 S
C166 H161 0.950 . S
C166 C167 1.478 . S
C167 C154 1.394 1_655 S
C167 C166 1.478 . S
C167 C168 1.397 1_554 S
C168 C167 1.397 1_556 S
C168 C169 1.438 . S
C168 C173 1.429 . S
C169 C152 1.394 1_655 S
C169 C168 1.438 . S
C169 C170 1.428 . S
C170 H162 0.949 . S
C170 C169 1.428 . S
C170 C171 1.345 . S
C171 H163 0.950 . S
C171 C170 1.345 . S
C171 C172 1.424 . S
C172 H164 0.951 . S
C172 C171 1.424 . S
C172 C173 1.347 . S
C173 H165 0.951 . S
C173 C168 1.429 . S
C173 C172 1.347 . S
C85 C63 1.464 1_565 S
C100 C74 1.464 1_545 S
C115 C67 1.486 . S
C130 C56 1.487 . S
C145 C58 1.372 1_554 S
C160 C69 1.372 1_556 S
