# Generated by pormake.
# Topology bsn, (6)-cn, num edge types: 1
# Building blocks:
#     Node 0, Type 0, BuildingBlock: VOLQOD_clean_sbu_1, # of connection points: 6
#     Node 1, Type 0, BuildingBlock: VOLQOD_clean_sbu_1, # of connection points: 6
#     Node 2, Type 0, BuildingBlock: VOLQOD_clean_sbu_1, # of connection points: 6
#     Node 3, Type 0, BuildingBlock: VOLQOD_clean_sbu_1, # of connection points: 6
#     Edge 4, Type (0, 0), BuildingBlock: OJICUG_clean_linker_0, # of connection points: 2
#     Edge 5, Type (0, 0), BuildingBlock: OJICUG_clean_linker_0, # of connection points: 2
#     Edge 6, Type (0, 0), BuildingBlock: OJICUG_clean_linker_0, # of connection points: 2
#     Edge 7, Type (0, 0), BuildingBlock: OJICUG_clean_linker_0, # of connection points: 2
#     Edge 8, Type (0, 0), BuildingBlock: OJICUG_clean_linker_0, # of connection points: 2
#     Edge 9, Type (0, 0), BuildingBlock: OJICUG_clean_linker_0, # of connection points: 2
#     Edge 10, Type (0, 0), BuildingBlock: OJICUG_clean_linker_0, # of connection points: 2
#     Edge 11, Type (0, 0), BuildingBlock: OJICUG_clean_linker_0, # of connection points: 2
#     Edge 12, Type (0, 0), BuildingBlock: OJICUG_clean_linker_0, # of connection points: 2
#     Edge 13, Type (0, 0), BuildingBlock: OJICUG_clean_linker_0, # of connection points: 2
#     Edge 14, Type (0, 0), BuildingBlock: OJICUG_clean_linker_0, # of connection points: 2
#     Edge 15, Type (0, 0), BuildingBlock: OJICUG_clean_linker_0, # of connection points: 2
# Relax obj value: 0.019
# Max RMSD: 0.064
# Mean RMSD: 0.062
data_MOF--net-bsn--node1-VOLQOD_clean_sbu_1--edge1-OJICUG_clean_linker_0
_symmetry_space_group_name_H-M    P1
_symmetry_Int_Tables_number       1
_symmetry_cell_setting            triclinic
loop_
_symmetry_equiv_pos_as_xyz
'x, y, z'
_cell_length_a     25.103582
_cell_length_b     25.173665
_cell_length_c     13.010004
_cell_angle_alpha  90.115888
_cell_angle_beta   90.116728
_cell_angle_gamma 89.995925
loop_
_atom_site_label
_atom_site_type_symbol
_atom_site_fract_x
_atom_site_fract_y
_atom_site_fract_z
_atom_type_partial_charge
O0 O 0.04495 0.24551 0.59129 0.0
Zn1 Zn 0.05327 0.27498 0.44829 0.0
O2 O 0.00048 0.24465 0.35962 0.0
Zn3 Zn 0.03234 0.19048 0.27543 0.0
Zn4 Zn 0.94763 0.21463 0.44788 0.0
Zn5 Zn 0.96866 0.29864 0.27521 0.0
O6 O 0.01002 0.20107 0.12831 0.0
O7 O 0.99109 0.28785 0.12842 0.0
O8 O 0.1271 0.26471 0.38753 0.0
O9 O 0.11126 0.20242 0.27025 0.0
O10 O 0.01654 0.11665 0.33272 0.0
O11 O 0.96202 0.1367 0.46194 0.0
O12 O 0.87373 0.22515 0.38712 0.0
O13 O 0.03857 0.35291 0.46276 0.0
O14 O 0.88976 0.28685 0.26941 0.0
O15 O 0.98431 0.37253 0.33262 0.0
C16 C 0.00062 0.24473 0.63913 0.0
C17 C 0.00058 0.24444 0.08089 0.0
C18 C 0.98918 0.10303 0.41109 0.0
C19 C 0.14316 0.23405 0.31566 0.0
C20 C 0.85773 0.2556 0.31499 0.0
C21 C 0.01143 0.38639 0.41146 0.0
O22 O 0.95625 0.24404 0.5911 0.0
O23 O 0.04314 0.7442 0.37725 0.0
Zn24 Zn 0.05177 0.71482 0.52028 0.0
O25 O -0.00103 0.74495 0.60874 0.0
Zn26 Zn 0.03081 0.79903 0.69335 0.0
Zn27 Zn 0.94612 0.77514 0.52027 0.0
Zn28 Zn 0.96717 0.69087 0.69274 0.0
O29 O 0.00832 0.78845 0.84016 0.0
O30 O 0.98948 0.70166 0.83983 0.0
O31 O 0.12567 0.72533 0.58109 0.0
O32 O 0.10971 0.78711 0.69918 0.0
O33 O 0.01527 0.87285 0.63593 0.0
O34 O 0.96083 0.85304 0.50602 0.0
O35 O 0.87229 0.76488 0.58102 0.0
O36 O 0.03741 0.63685 0.50593 0.0
O37 O 0.88824 0.70269 0.69796 0.0
O38 O 0.98308 0.61699 0.63541 0.0
C39 C -0.00124 0.74493 0.32924 0.0
C40 C -0.00115 0.74507 0.88748 0.0
C41 C 0.98809 0.88659 0.55718 0.0
C42 C 0.14169 0.75579 0.65342 0.0
C43 C 0.85628 0.73424 0.65272 0.0
C44 C 0.01036 0.60325 0.55691 0.0
O45 O 0.95444 0.74561 0.37709 0.0
O46 O 0.49602 0.70108 0.6341 0.0
Zn47 Zn 0.46754 0.69232 0.77824 0.0
O48 O 0.49929 0.74542 0.86517 0.0
Zn49 Zn 0.55351 0.71292 0.94872 0.0
Zn50 Zn 0.53092 0.79835 0.77844 0.0
Zn51 Zn 0.44524 0.77816 0.94855 0.0
O52 O 0.54244 0.73406 0.09673 0.0
O53 O 0.45635 0.75708 0.09642 0.0
O54 O 0.47816 0.6184 0.83838 0.0
O55 O 0.54342 0.63432 0.95008 0.0
O56 O 0.62734 0.72713 0.89076 0.0
O57 O 0.60912 0.7841 0.76543 0.0
O58 O 0.52058 0.87233 0.83871 0.0
O59 O 0.38927 0.70644 0.76538 0.0
O60 O 0.45543 0.85679 0.95019 0.0
O61 O 0.37135 0.76385 0.89044 0.0
C62 C 0.49904 0.74529 0.5864 0.0
C63 C 0.49938 0.74555 0.14407 0.0
C64 C 0.64212 0.75519 0.81429 0.0
C65 C 0.51127 0.6025 0.90622 0.0
C66 C 0.48761 0.88844 0.90646 0.0
C67 C 0.35638 0.73551 0.81415 0.0
O68 O 0.50213 0.78951 0.63437 0.0
O69 O 0.50322 0.20164 0.33407 0.0
Zn70 Zn 0.53176 0.19272 0.19002 0.0
O71 O 0.50006 0.24572 0.10324 0.0
Zn72 Zn 0.4459 0.21311 0.01948 0.0
Zn73 Zn 0.46837 0.29875 0.19012 0.0
Zn74 Zn 0.55417 0.27834 0.02008 0.0
O75 O 0.45694 0.23424 0.87163 0.0
O76 O 0.54303 0.25727 0.87204 0.0
O77 O 0.52112 0.11874 0.12979 0.0
O78 O 0.45603 0.13449 0.01778 0.0
O79 O 0.37207 0.22728 0.07749 0.0
O80 O 0.39018 0.28445 0.203 0.0
O81 O 0.47869 0.37267 0.12996 0.0
O82 O 0.61003 0.20677 0.203 0.0
O83 O 0.54401 0.35696 0.0188 0.0
O84 O 0.62805 0.26399 0.07813 0.0
C85 C 0.50015 0.24587 0.38201 0.0
C86 C 0.49998 0.24578 0.82435 0.0
C87 C 0.35723 0.25542 0.15404 0.0
C88 C 0.4881 0.10273 0.06177 0.0
C89 C 0.51175 0.38868 0.0624 0.0
C90 C 0.64297 0.23572 0.15433 0.0
O91 O 0.49709 0.29008 0.33428 0.0
C92 C 0.00994 0.45286 0.55421 0.0
C93 C 0.0099 0.44194 0.44805 0.0
H94 H 0.00868 0.51267 0.67215 0.0
C95 C 0.00886 0.48434 0.37836 0.0
H96 H 0.01033 0.42076 0.60957 0.0
C97 C 0.00944 0.53677 0.41424 0.0
C98 C 0.00928 0.54768 0.52039 0.0
H99 H 0.00884 0.47695 0.29629 0.0
H100 H 0.00947 0.56887 0.35887 0.0
C101 C 0.00875 0.50528 0.59008 0.0
C102 C 0.71381 0.78107 0.68967 0.0
C103 C 0.6975 0.75101 0.77524 0.0
H104 H 0.77613 0.79901 0.58309 0.0
C105 C 0.73352 0.7146 0.81838 0.0
H106 H 0.68704 0.80931 0.65393 0.0
C107 C 0.7845 0.70836 0.77698 0.0
C108 C 0.80084 0.73845 0.69148 0.0
H109 H 0.72226 0.69049 0.88368 0.0
H110 H 0.81125 0.68014 0.81282 0.0
C111 C 0.76484 0.7749 0.64838 0.0
C112 C 0.5592 0.47004 0.00471 0.0
C113 C 0.51106 0.44426 0.02723 0.0
H114 H 0.59677 0.54079 0.9493 0.0
C115 C 0.46267 0.47014 0.00627 0.0
H116 H 0.59699 0.45064 0.01936 0.0
C117 C 0.46255 0.52088 0.96219 0.0
C118 C 0.51081 0.54691 0.94131 0.0
H119 H 0.42506 0.4506 0.02146 0.0
H120 H 0.42485 0.5403 0.94695 0.0
C121 C 0.55908 0.52127 0.96389 0.0
C122 C 0.76612 0.2154 0.31973 0.0
C123 C 0.80218 0.25162 0.27638 0.0
H124 H 0.68811 0.18144 0.31462 0.0
C125 C 0.78572 0.28177 0.19092 0.0
H126 H 0.7775 0.19125 0.385 0.0
C127 C 0.73456 0.27582 0.1498 0.0
C128 C 0.69848 0.23964 0.19319 0.0
H129 H 0.8125 0.30983 0.15491 0.0
H130 H 0.72321 0.29997 0.08452 0.0
C131 C 0.71491 0.20951 0.2787 0.0
C132 C 0.26594 0.2146 0.1498 0.0
C133 C 0.30187 0.25114 0.19309 0.0
H134 H 0.18831 0.17993 0.15527 0.0
C135 C 0.2855 0.28122 0.27882 0.0
H136 H 0.27725 0.19047 0.08438 0.0
C137 C 0.23449 0.27495 0.32014 0.0
C138 C 0.19858 0.23837 0.27689 0.0
H139 H 0.3122 0.30956 0.31468 0.0
H140 H 0.22315 0.29908 0.38555 0.0
C141 C 0.21499 0.20825 0.19123 0.0
C142 C 0.28441 0.70939 0.68957 0.0
C143 C 0.30088 0.73952 0.77529 0.0
H144 H 0.22182 0.69124 0.58308 0.0
C145 C 0.26487 0.77581 0.81886 0.0
H146 H 0.31117 0.68125 0.6535 0.0
C147 C 0.21373 0.78186 0.77772 0.0
C148 C 0.19724 0.75171 0.69205 0.0
H149 H 0.27625 0.79996 0.8843 0.0
H150 H 0.187 0.80999 0.81387 0.0
C151 C 0.23323 0.71538 0.64852 0.0
C152 C 0.44015 0.96997 0.96389 0.0
C153 C 0.48829 0.9441 0.94152 0.0
H154 H 0.40258 0.04093 0.01891 0.0
C155 C 0.53668 0.97005 0.96229 0.0
H156 H 0.40236 0.95052 0.94935 0.0
C157 C 0.5368 0.02095 0.00608 0.0
C158 C 0.48854 0.04706 0.0268 0.0
H159 H 0.57429 0.95046 0.94717 0.0
H160 H 0.57451 0.04041 0.02122 0.0
C161 C 0.44027 0.02135 0.0044 0.0
C162 C 0.99076 0.98463 0.59 0.0
C163 C 0.9897 0.94203 0.52044 0.0
H164 H 0.99017 0.06922 0.60921 0.0
C165 C 0.98968 0.95264 0.41425 0.0
H166 H 0.99078 0.97749 0.67209 0.0
C167 C 0.99088 0.00496 0.3782 0.0
C168 C 0.99034 0.04756 0.44776 0.0
H169 H 0.98927 0.92038 0.35899 0.0
H170 H 0.99094 0.01211 0.29611 0.0
C171 C 0.9902 0.03695 0.55395 0.0
C172 C 0.96278 0.27444 0.9137 0.0
C173 C 0.00059 0.24444 0.96799 0.0
H174 H 0.93245 0.29689 0.76588 0.0
C175 C 0.03843 0.21454 0.91365 0.0
H176 H 0.9331 0.29762 0.95427 0.0
C177 C 0.03901 0.21534 0.80633 0.0
C178 C 0.00065 0.24465 0.75204 0.0
H179 H 0.06809 0.1913 0.95419 0.0
H180 H 0.06884 0.19236 0.76576 0.0
C181 C 0.96226 0.27385 0.80639 0.0
C182 C 0.03638 0.77528 0.05504 0.0
C183 C -0.00123 0.7451 0.00039 0.0
H184 H 0.06657 0.79772 0.20316 0.0
C185 C 0.96111 0.71491 0.05438 0.0
H186 H 0.06591 0.79868 0.01476 0.0
C187 C 0.96054 0.71556 0.1617 0.0
C188 C -0.00128 0.74502 0.21634 0.0
H189 H 0.9316 0.69153 0.01356 0.0
H190 H 0.93086 0.69234 0.20199 0.0
C191 C 0.03691 0.77455 0.16236 0.0
C192 C 0.47094 0.78445 0.3116 0.0
C193 C 0.49931 0.74548 0.25713 0.0
H194 H 0.44983 0.8156 0.45955 0.0
C195 C 0.52754 0.70641 0.3115 0.0
H196 H 0.44906 0.81507 0.27112 0.0
C197 C 0.52668 0.70579 0.41887 0.0
C198 C 0.49906 0.74529 0.47334 0.0
H199 H 0.5495 0.67584 0.27092 0.0
H200 H 0.54834 0.67501 0.45936 0.0
C201 C 0.47156 0.78487 0.41899 0.0
C202 C 0.52756 0.28545 0.54982 0.0
C203 C 0.50007 0.24589 0.49507 0.0
H204 H 0.55013 0.3155 0.698 0.0
C205 C 0.47252 0.20632 0.54915 0.0
H206 H 0.54925 0.31623 0.50956 0.0
C207 C 0.47173 0.20681 0.65652 0.0
C208 C 0.49997 0.24584 0.71128 0.0
H209 H 0.45088 0.17555 0.50836 0.0
H210 H 0.44983 0.17618 0.69679 0.0
C211 C 0.52825 0.2849 0.6572 0.0
loop_
_geom_bond_atom_site_label_1
_geom_bond_atom_site_label_2
_geom_bond_distance
_geom_bond_site_symmetry_2
_ccdc_geom_bond_type
O0 Zn1 1.953 . S
O0 C16 1.225 . S
Zn1 O0 1.953 . S
Zn1 O2 1.949 . S
Zn1 O8 1.919 . S
Zn1 O13 1.924 . S
O2 Zn1 1.949 . S
O2 Zn3 1.923 . S
O2 Zn4 1.950 1_455 S
O2 Zn5 1.945 1_455 S
Zn3 O2 1.923 . S
Zn3 O6 1.933 . S
Zn3 O9 1.941 . S
Zn3 O10 1.965 . S
Zn4 O2 1.950 1_655 S
Zn4 O11 1.938 . S
Zn4 O12 1.906 . S
Zn4 O22 1.953 . S
Zn5 O2 1.945 1_655 S
Zn5 O7 1.932 . S
Zn5 O14 1.977 . S
Zn5 O15 1.910 . S
O6 Zn3 1.933 . S
O6 C17 1.226 . S
O7 Zn5 1.932 . S
O7 C17 1.307 1_655 S
O8 Zn1 1.919 . S
O8 C19 1.253 . S
O9 Zn3 1.941 . S
O9 C19 1.283 . S
O10 Zn3 1.965 . S
O10 C18 1.310 . S
O11 Zn4 1.938 . S
O11 C18 1.236 1_655 S
O12 Zn4 1.906 . S
O12 C20 1.304 . S
O13 Zn1 1.924 . S
O13 C21 1.311 . S
O14 Zn5 1.977 . S
O14 C20 1.272 . S
O15 Zn5 1.910 . S
O15 C21 1.231 1_655 S
C16 O0 1.225 . S
C16 O22 1.298 1_455 S
C17 O6 1.226 . S
C17 O7 1.307 1_455 S
C18 O10 1.310 . S
C18 O11 1.236 1_455 S
C19 O8 1.253 . S
C19 O9 1.283 . S
C20 O12 1.304 . S
C20 O14 1.272 . S
C21 O13 1.311 . S
C21 O15 1.231 1_455 S
O22 Zn4 1.953 . S
O22 C16 1.298 1_655 S
O23 Zn24 1.953 . S
O23 C39 1.225 . S
Zn24 O23 1.953 . S
Zn24 O25 1.949 . S
Zn24 O31 1.919 . S
Zn24 O36 1.924 . S
O25 Zn24 1.949 . S
O25 Zn26 1.923 . S
O25 Zn27 1.950 1_455 S
O25 Zn28 1.945 1_455 S
Zn26 O25 1.923 . S
Zn26 O29 1.933 . S
Zn26 O32 1.941 . S
Zn26 O33 1.965 . S
Zn27 O25 1.950 1_655 S
Zn27 O34 1.938 . S
Zn27 O35 1.906 . S
Zn27 O45 1.953 . S
Zn28 O25 1.945 1_655 S
Zn28 O30 1.932 . S
Zn28 O37 1.977 . S
Zn28 O38 1.910 . S
O29 Zn26 1.933 . S
O29 C40 1.226 . S
O30 Zn28 1.932 . S
O30 C40 1.307 1_655 S
O31 Zn24 1.919 . S
O31 C42 1.253 . S
O32 Zn26 1.941 . S
O32 C42 1.283 . S
O33 Zn26 1.965 . S
O33 C41 1.303 1_455 S
O34 Zn27 1.938 . S
O34 C41 1.247 . S
O35 Zn27 1.906 . S
O35 C43 1.304 . S
O36 Zn24 1.924 . S
O36 C44 1.311 . S
O37 Zn28 1.977 . S
O37 C43 1.272 . S
O38 Zn28 1.910 . S
O38 C44 1.231 1_655 S
C39 O23 1.225 . S
C39 O45 1.298 1_455 S
C40 O29 1.226 . S
C40 O30 1.307 1_455 S
C41 O33 1.303 1_655 S
C41 O34 1.247 . S
C42 O31 1.253 . S
C42 O32 1.283 . S
C43 O35 1.304 . S
C43 O37 1.272 . S
C44 O36 1.311 . S
C44 O38 1.231 1_455 S
O45 Zn27 1.953 . S
O45 C39 1.298 1_655 S
O46 Zn47 1.953 . S
O46 C62 1.225 . S
Zn47 O46 1.953 . S
Zn47 O48 1.949 . S
Zn47 O54 1.919 . S
Zn47 O59 1.924 . S
O48 Zn47 1.949 . S
O48 Zn49 1.923 . S
O48 Zn50 1.950 . S
O48 Zn51 1.945 . S
Zn49 O48 1.923 . S
Zn49 O52 1.933 1_556 S
Zn49 O55 1.941 . S
Zn49 O56 1.965 . S
Zn50 O48 1.950 . S
Zn50 O57 1.938 . S
Zn50 O58 1.906 . S
Zn50 O68 1.953 . S
Zn51 O48 1.945 . S
Zn51 O53 1.932 1_556 S
Zn51 O60 1.977 . S
Zn51 O61 1.910 . S
O52 Zn49 1.933 1_554 S
O52 C63 1.226 . S
O53 Zn51 1.932 1_554 S
O53 C63 1.307 . S
O54 Zn47 1.919 . S
O54 C65 1.253 . S
O55 Zn49 1.941 . S
O55 C65 1.283 . S
O56 Zn49 1.965 . S
O56 C64 1.303 . S
O57 Zn50 1.938 . S
O57 C64 1.247 . S
O58 Zn50 1.906 . S
O58 C66 1.304 . S
O59 Zn47 1.924 . S
O59 C67 1.311 . S
O60 Zn51 1.977 . S
O60 C66 1.272 . S
O61 Zn51 1.910 . S
O61 C67 1.231 . S
C62 O46 1.225 . S
C62 O68 1.298 . S
C63 O52 1.226 . S
C63 O53 1.307 . S
C64 O56 1.303 . S
C64 O57 1.247 . S
C65 O54 1.253 . S
C65 O55 1.283 . S
C66 O58 1.304 . S
C66 O60 1.272 . S
C67 O59 1.311 . S
C67 O61 1.231 . S
O68 Zn50 1.953 . S
O68 C62 1.298 . S
O69 Zn70 1.953 . S
O69 C85 1.225 . S
Zn70 O69 1.953 . S
Zn70 O71 1.949 . S
Zn70 O77 1.919 . S
Zn70 O82 1.924 . S
O71 Zn70 1.949 . S
O71 Zn72 1.923 . S
O71 Zn73 1.950 . S
O71 Zn74 1.945 . S
Zn72 O71 1.923 . S
Zn72 O75 1.933 1_554 S
Zn72 O78 1.941 . S
Zn72 O79 1.965 . S
Zn73 O71 1.950 . S
Zn73 O80 1.938 . S
Zn73 O81 1.906 . S
Zn73 O91 1.953 . S
Zn74 O71 1.945 . S
Zn74 O76 1.932 1_554 S
Zn74 O83 1.977 . S
Zn74 O84 1.910 . S
O75 Zn72 1.933 1_556 S
O75 C86 1.226 . S
O76 Zn74 1.932 1_556 S
O76 C86 1.307 . S
O77 Zn70 1.919 . S
O77 C88 1.253 . S
O78 Zn72 1.941 . S
O78 C88 1.283 . S
O79 Zn72 1.965 . S
O79 C87 1.303 . S
O80 Zn73 1.938 . S
O80 C87 1.247 . S
O81 Zn73 1.906 . S
O81 C89 1.304 . S
O82 Zn70 1.924 . S
O82 C90 1.311 . S
O83 Zn74 1.977 . S
O83 C89 1.272 . S
O84 Zn74 1.910 . S
O84 C90 1.231 . S
C85 O69 1.225 . S
C85 O91 1.298 . S
C86 O75 1.226 . S
C86 O76 1.307 . S
C87 O79 1.303 . S
C87 O80 1.247 . S
C88 O77 1.253 . S
C88 O78 1.283 . S
C89 O81 1.304 . S
C89 O83 1.272 . S
C90 O82 1.311 . S
C90 O84 1.231 . S
O91 Zn73 1.953 . S
O91 C85 1.298 . S
C92 C93 1.387 1_655 S
C92 H96 0.950 . S
C92 C101 1.390 . S
C93 C92 1.387 1_455 S
C93 C95 1.387 . S
H94 C101 0.950 . S
C95 C93 1.387 . S
C95 C97 1.390 . S
C95 H99 0.950 . S
H96 C92 0.950 . S
C97 C95 1.390 . S
C97 C98 1.387 . S
C97 H100 0.950 . S
C98 C97 1.387 . S
C98 C101 1.387 1_455 S
H99 C95 0.950 . S
H100 C97 0.950 . S
C101 C92 1.390 . S
C101 H94 0.950 . S
C101 C98 1.387 1_655 S
C102 C103 1.387 . S
C102 H106 0.950 . S
C102 C111 1.390 . S
C103 C102 1.387 . S
C103 C105 1.387 . S
H104 C111 0.950 . S
C105 C103 1.387 . S
C105 C107 1.390 . S
C105 H109 0.950 . S
H106 C102 0.950 . S
C107 C105 1.390 . S
C107 C108 1.387 . S
C107 H110 0.950 . S
C108 C107 1.387 . S
C108 C111 1.387 . S
H109 C105 0.950 . S
H110 C107 0.950 . S
C111 C102 1.390 . S
C111 H104 0.950 . S
C111 C108 1.387 . S
C112 C113 1.387 . S
C112 H116 0.950 . S
C112 C121 1.390 1_554 S
C113 C112 1.387 . S
C113 C115 1.387 . S
H114 C121 0.950 . S
C115 C113 1.387 . S
C115 C117 1.390 1_554 S
C115 H119 0.950 . S
H116 C112 0.950 . S
C117 C115 1.390 1_556 S
C117 C118 1.387 . S
C117 H120 0.950 . S
C118 C117 1.387 . S
C118 C121 1.387 . S
H119 C115 0.950 . S
H120 C117 0.950 . S
C121 C112 1.390 1_556 S
C121 H114 0.950 . S
C121 C118 1.387 . S
C122 C123 1.387 . S
C122 H126 0.950 . S
C122 C131 1.390 . S
C123 C122 1.387 . S
C123 C125 1.387 . S
H124 C131 0.950 . S
C125 C123 1.387 . S
C125 C127 1.390 . S
C125 H129 0.950 . S
H126 C122 0.950 . S
C127 C125 1.390 . S
C127 C128 1.387 . S
C127 H130 0.950 . S
C128 C127 1.387 . S
C128 C131 1.387 . S
H129 C125 0.950 . S
H130 C127 0.950 . S
C131 C122 1.390 . S
C131 H124 0.950 . S
C131 C128 1.387 . S
C132 C133 1.387 . S
C132 H136 0.950 . S
C132 C141 1.390 . S
C133 C132 1.387 . S
C133 C135 1.387 . S
H134 C141 0.950 . S
C135 C133 1.387 . S
C135 C137 1.390 . S
C135 H139 0.950 . S
H136 C132 0.950 . S
C137 C135 1.390 . S
C137 C138 1.387 . S
C137 H140 0.950 . S
C138 C137 1.387 . S
C138 C141 1.387 . S
H139 C135 0.950 . S
H140 C137 0.950 . S
C141 C132 1.390 . S
C141 H134 0.950 . S
C141 C138 1.387 . S
C142 C143 1.387 . S
C142 H146 0.950 . S
C142 C151 1.390 . S
C143 C142 1.387 . S
C143 C145 1.387 . S
H144 C151 0.950 . S
C145 C143 1.387 . S
C145 C147 1.390 . S
C145 H149 0.950 . S
H146 C142 0.950 . S
C147 C145 1.390 . S
C147 C148 1.387 . S
C147 H150 0.950 . S
C148 C147 1.387 . S
C148 C151 1.387 . S
H149 C145 0.950 . S
H150 C147 0.950 . S
C151 C142 1.390 . S
C151 H144 0.950 . S
C151 C148 1.387 . S
C152 C153 1.387 . S
C152 H156 0.950 . S
C152 C161 1.390 1_566 S
C153 C152 1.387 . S
C153 C155 1.387 . S
H154 C161 0.950 . S
C155 C153 1.387 . S
C155 C157 1.390 1_566 S
C155 H159 0.950 . S
H156 C152 0.950 . S
C157 C155 1.390 1_544 S
C157 C158 1.387 . S
C157 H160 0.950 . S
C158 C157 1.387 . S
C158 C161 1.387 . S
H159 C155 0.950 . S
H160 C157 0.950 . S
C161 C152 1.390 1_544 S
C161 H154 0.950 . S
C161 C158 1.387 . S
C162 C163 1.387 . S
C162 H166 0.950 . S
C162 C171 1.390 1_565 S
C163 C162 1.387 . S
C163 C165 1.387 1_455 S
H164 C171 0.950 . S
C165 C163 1.387 1_655 S
C165 C167 1.390 1_565 S
C165 H169 0.950 . S
H166 C162 0.950 . S
C167 C165 1.390 1_545 S
C167 C168 1.387 1_655 S
C167 H170 0.950 . S
C168 C167 1.387 1_455 S
C168 C171 1.387 . S
H169 C165 0.950 . S
H170 C167 0.950 . S
C171 C162 1.390 1_545 S
C171 H164 0.950 . S
C171 C168 1.387 . S
C172 C173 1.387 1_655 S
C172 H176 0.950 . S
C172 C181 1.390 . S
C173 C172 1.387 1_455 S
C173 C175 1.387 . S
H174 C181 0.950 . S
C175 C173 1.387 . S
C175 C177 1.390 . S
C175 H179 0.950 . S
H176 C172 0.950 . S
C177 C175 1.390 . S
C177 C178 1.387 . S
C177 H180 0.950 . S
C178 C177 1.387 . S
C178 C181 1.387 1_455 S
H179 C175 0.950 . S
H180 C177 0.950 . S
C181 C172 1.390 . S
C181 H174 0.950 . S
C181 C178 1.387 1_655 S
C182 C183 1.387 . S
C182 H186 0.950 . S
C182 C191 1.390 . S
C183 C182 1.387 . S
C183 C185 1.387 1_455 S
H184 C191 0.950 . S
C185 C183 1.387 1_655 S
C185 C187 1.390 . S
C185 H189 0.950 . S
H186 C182 0.950 . S
C187 C185 1.390 . S
C187 C188 1.387 1_655 S
C187 H190 0.950 . S
C188 C187 1.387 1_455 S
C188 C191 1.387 . S
H189 C185 0.950 . S
H190 C187 0.950 . S
C191 C182 1.390 . S
C191 H184 0.950 . S
C191 C188 1.387 . S
C192 C193 1.387 . S
C192 H196 0.950 . S
C192 C201 1.390 . S
C193 C192 1.387 . S
C193 C195 1.387 . S
H194 C201 0.950 . S
C195 C193 1.387 . S
C195 C197 1.390 . S
C195 H199 0.950 . S
H196 C192 0.950 . S
C197 C195 1.390 . S
C197 C198 1.387 . S
C197 H200 0.950 . S
C198 C197 1.387 . S
C198 C201 1.387 . S
H199 C195 0.950 . S
H200 C197 0.950 . S
C201 C192 1.390 . S
C201 H194 0.950 . S
C201 C198 1.387 . S
C202 C203 1.387 . S
C202 H206 0.950 . S
C202 C211 1.390 . S
C203 C202 1.387 . S
C203 C205 1.387 . S
H204 C211 0.950 . S
C205 C203 1.387 . S
C205 C207 1.390 . S
C205 H209 0.950 . S
H206 C202 0.950 . S
C207 C205 1.390 . S
C207 C208 1.387 . S
C207 H210 0.950 . S
C208 C207 1.387 . S
C208 C211 1.387 . S
H209 C205 0.950 . S
H210 C207 0.950 . S
C211 C202 1.390 . S
C211 H204 0.950 . S
C211 C208 1.387 . S
C93 C21 1.589 . S
C98 C44 1.586 . S
C103 C64 1.598 . S
C108 C43 1.612 . S
C113 C89 1.602 . S
C118 C65 1.604 . S
C123 C20 1.567 . S
C128 C90 1.570 . S
C133 C87 1.605 . S
C138 C19 1.619 . S
C143 C67 1.575 . S
C148 C42 1.574 . S
C153 C66 1.554 . S
C158 C88 1.556 . S
C163 C41 1.616 1_455 S
C168 C18 1.615 . S
C173 C17 1.334 1_556 S
C178 C16 1.335 . S
C183 C40 1.334 1_554 S
C188 C39 1.335 . S
C193 C63 1.334 . S
C198 C62 1.335 . S
C203 C85 1.335 . S
C208 C86 1.334 . S
