# Generated by pormake.
# Topology npo, (4)-cn, num edge types: 1
# Building blocks:
#     Node 0, Type 0, BuildingBlock: NAHDIM_clean_sbu_0, # of connection points: 4
#     Node 1, Type 0, BuildingBlock: NAHDIM_clean_sbu_0, # of connection points: 4
#     Node 2, Type 0, BuildingBlock: NAHDIM_clean_sbu_0, # of connection points: 4
#     Node 3, Type 0, BuildingBlock: NAHDIM_clean_sbu_0, # of connection points: 4
#     Node 4, Type 0, BuildingBlock: NAHDIM_clean_sbu_0, # of connection points: 4
#     Node 5, Type 0, BuildingBlock: NAHDIM_clean_sbu_0, # of connection points: 4
#     Edge 6, Type (0, 0), BuildingBlock: AJUNOK_clean_linker_0, # of connection points: 2
#     Edge 7, Type (0, 0), BuildingBlock: AJUNOK_clean_linker_0, # of connection points: 2
#     Edge 8, Type (0, 0), BuildingBlock: AJUNOK_clean_linker_0, # of connection points: 2
#     Edge 9, Type (0, 0), BuildingBlock: AJUNOK_clean_linker_0, # of connection points: 2
#     Edge 10, Type (0, 0), BuildingBlock: AJUNOK_clean_linker_0, # of connection points: 2
#     Edge 11, Type (0, 0), BuildingBlock: AJUNOK_clean_linker_0, # of connection points: 2
#     Edge 12, Type (0, 0), BuildingBlock: AJUNOK_clean_linker_0, # of connection points: 2
#     Edge 13, Type (0, 0), BuildingBlock: AJUNOK_clean_linker_0, # of connection points: 2
#     Edge 14, Type (0, 0), BuildingBlock: AJUNOK_clean_linker_0, # of connection points: 2
#     Edge 15, Type (0, 0), BuildingBlock: AJUNOK_clean_linker_0, # of connection points: 2
#     Edge 16, Type (0, 0), BuildingBlock: AJUNOK_clean_linker_0, # of connection points: 2
#     Edge 17, Type (0, 0), BuildingBlock: AJUNOK_clean_linker_0, # of connection points: 2
# Relax obj value: 0.247
# Max RMSD: 0.227
# Mean RMSD: 0.223
data_MOF--net-npo--node1-NAHDIM_clean_sbu_0--edge1-AJUNOK_clean_linker_0
_symmetry_space_group_name_H-M    P1
_symmetry_Int_Tables_number       1
_symmetry_cell_setting            triclinic
loop_
_symmetry_equiv_pos_as_xyz
'x, y, z'
_cell_length_a     30.699788
_cell_length_b     32.181379
_cell_length_c     18.799796
_cell_angle_alpha  92.583969
_cell_angle_beta   89.820408
_cell_angle_gamma 118.29068
loop_
_atom_site_label
_atom_site_type_symbol
_atom_site_fract_x
_atom_site_fract_y
_atom_site_fract_z
_atom_type_partial_charge
C0 C 0.50443 0.01907 0.32613 0.0
O1 O 0.51284 0.0035 0.2646 0.0
O2 O 0.59728 0.13501 0.22949 0.0
Zn3 Zn 0.52411 0.09881 0.24511 0.0
O4 O 0.49069 0.05439 0.16116 0.0
C5 C 0.48299 0.16088 0.21033 0.0
O6 O 0.47434 0.13912 0.1471 0.0
O7 O 0.50887 0.06042 0.33153 0.0
C8 C 0.50645 0.06326 0.09829 0.0
O9 O 0.54425 0.10452 0.08621 0.0
C10 C 0.62686 0.15613 0.28173 0.0
O11 O 0.60918 0.15002 0.34638 0.0
O12 O 0.50134 0.14768 0.25938 0.0
C13 C 0.45969 0.52601 0.57662 0.0
O14 O 0.42001 0.49977 0.61251 0.0
O15 O 0.40192 0.57007 0.69759 0.0
Zn16 Zn 0.47538 0.59364 0.69186 0.0
O17 O 0.50112 0.57412 0.77536 0.0
C18 C 0.51647 0.6922 0.74192 0.0
O19 O 0.51297 0.67535 0.80519 0.0
O20 O 0.48924 0.56746 0.60103 0.0
C21 C 0.48302 0.57092 0.837 0.0
O22 O 0.44807 0.58292 0.84777 0.0
C23 C 0.36939 0.53354 0.72651 0.0
O24 O 0.38224 0.50492 0.75697 0.0
O25 O 0.50559 0.66429 0.68714 0.0
C26 C 0.9062 0.45084 0.44271 0.0
O27 O 0.86165 0.44695 0.44026 0.0
O28 O 0.83696 0.44721 0.29352 0.0
Zn29 Zn 0.88206 0.41813 0.29667 0.0
O30 O 0.92508 0.43754 0.21098 0.0
C31 C 0.81324 0.32399 0.24274 0.0
O32 O 0.82096 0.34489 0.18209 0.0
O33 O 0.92327 0.44063 0.3868 0.0
C34 C 0.94452 0.41482 0.17968 0.0
O35 O 0.9376 0.37472 0.20474 0.0
C36 C 0.8216 0.45433 0.23499 0.0
O37 O 0.8374 0.44435 0.17491 0.0
O38 O 0.83767 0.34795 0.29783 0.0
C39 C 0.43161 0.90182 0.57081 0.0
O40 O 0.41165 0.85553 0.56581 0.0
O41 O 0.45118 0.8508 0.73619 0.0
Zn42 Zn 0.41339 0.8864 0.72031 0.0
O43 O 0.42698 0.93247 0.80326 0.0
C44 C 0.31086 0.8256 0.7611 0.0
O45 O 0.32468 0.84959 0.82258 0.0
O46 O 0.43553 0.92231 0.63158 0.0
C47 C 0.43215 0.92119 0.86531 0.0
O48 O 0.42659 0.87871 0.87429 0.0
C49 C 0.48921 0.85467 0.70377 0.0
O50 O 0.50893 0.88585 0.65482 0.0
O51 O 0.34152 0.83707 0.71071 0.0
C52 C 0.55144 0.49372 0.05819 0.0
O53 O 0.59829 0.50413 0.06103 0.0
O54 O 0.61659 0.46058 0.17959 0.0
Zn55 Zn 0.54422 0.44239 0.18432 0.0
O56 O 0.53154 0.46886 0.27543 0.0
C57 C 0.51031 0.35138 0.23691 0.0
O58 O 0.5339 0.37785 0.29363 0.0
O59 O 0.52213 0.46713 0.10387 0.0
C60 C 0.48917 0.45209 0.30303 0.0
O61 O 0.45159 0.41596 0.27046 0.0
C62 C 0.64401 0.47467 0.23542 0.0
O63 O 0.6253 0.48054 0.29556 0.0
O64 O 0.50767 0.37145 0.18161 0.0
C65 C 0.05599 0.48078 0.91973 0.0
O66 O 0.0719 0.45412 0.88581 0.0
O67 O 0.15728 0.52336 0.80037 0.0
Zn68 Zn 0.10353 0.54212 0.80523 0.0
O69 O 0.05887 0.51366 0.71934 0.0
C70 C 0.14778 0.63487 0.74722 0.0
O71 O 0.13139 0.61006 0.68675 0.0
O72 O 0.06522 0.52009 0.89475 0.0
C73 C 0.02207 0.52029 0.70716 0.0
O74 O 0.01147 0.54568 0.75377 0.0
C75 C 0.1766 0.52415 0.74027 0.0
O76 O 0.15882 0.53451 0.68427 0.0
O77 O 0.13793 0.61333 0.80499 0.0
C78 C 0.47603 0.22841 0.16097 0.0
C79 C 0.48061 0.20573 0.22059 0.0
C80 C 0.48282 0.27465 0.16736 0.0
C81 C 0.49445 0.30004 0.23363 0.0
H82 H 0.4697 0.21137 0.10822 0.0
H83 H 0.48137 0.29133 0.11928 0.0
S84 S 0.50128 0.25351 0.40811 0.0
N85 N 0.49069 0.20983 0.34954 0.0
N86 N 0.50342 0.29668 0.36152 0.0
C87 C 0.49517 0.27644 0.29448 0.0
C88 C 0.48825 0.22932 0.28798 0.0
C89 C 0.30043 0.54248 0.67357 0.0
C90 C 0.31786 0.52532 0.72804 0.0
C91 C 0.25368 0.5398 0.67658 0.0
C92 C 0.22285 0.52064 0.73488 0.0
H93 H 0.32347 0.55891 0.62868 0.0
H94 H 0.24259 0.55465 0.63407 0.0
S95 S 0.25009 0.46826 0.88947 0.0
N96 N 0.29981 0.48611 0.84015 0.0
N97 N 0.21194 0.48174 0.84659 0.0
C98 C 0.23911 0.50185 0.78866 0.0
C99 C 0.2866 0.50396 0.785 0.0
C100 C 0.70876 0.21983 0.32804 0.0
C101 C 0.67824 0.19339 0.26949 0.0
C102 C 0.75392 0.26038 0.31862 0.0
C103 C 0.77041 0.27636 0.25022 0.0
H104 H 0.6968 0.21046 0.38195 0.0
H105 H 0.77475 0.28059 0.36573 0.0
S106 S 0.70849 0.21546 0.07872 0.0
N107 N 0.67085 0.18278 0.14015 0.0
N108 N 0.75562 0.25914 0.12258 0.0
C109 C 0.74213 0.2483 0.191 0.0
C110 C 0.69612 0.2068 0.20058 0.0
C111 C 0.49822 0.79876 0.78192 0.0
C112 C 0.50644 0.81975 0.71581 0.0
C113 C 0.5056 0.75968 0.79159 0.0
C114 C 0.52054 0.73953 0.73502 0.0
H115 H 0.48401 0.81145 0.82584 0.0
H116 H 0.49634 0.7434 0.84249 0.0
S117 S 0.55303 0.7849 0.55388 0.0
N118 N 0.53544 0.82073 0.59505 0.0
N119 N 0.54845 0.74654 0.61278 0.0
C120 C 0.53214 0.76213 0.67003 0.0
C121 C 0.52535 0.80248 0.66053 0.0
C122 C 0.71002 0.46417 0.17167 0.0
C123 C 0.6935 0.47711 0.2346 0.0
C124 C 0.75296 0.45926 0.17155 0.0
C125 C 0.78103 0.46692 0.23441 0.0
H126 H 0.68866 0.45591 0.12245 0.0
H127 H 0.76286 0.44731 0.12234 0.0
S128 S 0.75819 0.50847 0.41108 0.0
N129 N 0.71194 0.50278 0.35983 0.0
N130 N 0.79249 0.49332 0.35953 0.0
C131 C 0.7668 0.48285 0.2967 0.0
C132 C 0.72313 0.48804 0.2968 0.0
C133 C 0.23989 0.75831 0.81676 0.0
C134 C 0.26393 0.78046 0.75481 0.0
C135 C 0.20067 0.71205 0.81342 0.0
C136 C 0.18358 0.68613 0.74795 0.0
H137 H 0.25298 0.77582 0.86877 0.0
H138 H 0.18494 0.69593 0.86298 0.0
S139 S 0.22898 0.7308 0.56916 0.0
N140 N 0.26424 0.77501 0.62537 0.0
N141 N 0.19033 0.68824 0.61885 0.0
C142 C 0.20492 0.70914 0.68513 0.0
C143 C 0.24514 0.7562 0.68862 0.0
C144 C 0.47325 0.00503 0.9126 0.0
C145 C 0.44765 0.95658 0.9256 0.0
C146 C 0.49161 0.03932 0.96881 0.0
C147 C 0.48429 0.02648 0.04006 0.0
H148 H 0.48042 0.01661 0.85858 0.0
H149 H 0.51196 0.07616 0.95621 0.0
S150 S 0.41704 0.90431 0.10256 0.0
N151 N 0.41428 0.89748 0.01485 0.0
N152 N 0.44802 0.96185 0.12058 0.0
C153 C 0.45738 0.97816 0.0538 0.0
C154 C 0.43931 0.94323 -0.00346 0.0
C155 C 0.43791 0.44858 0.40837 0.0
C156 C 0.48275 0.47202 0.37239 0.0
C157 C 0.43107 0.46612 0.47458 0.0
C158 C 0.46865 0.50798 0.50728 0.0
H159 H 0.4078 0.4162 0.38557 0.0
H160 H 0.39578 0.44675 0.49996 0.0
S161 S 0.5933 0.58289 0.4354 0.0
N162 N 0.56558 0.53943 0.37456 0.0
N163 N 0.55261 0.57236 0.49882 0.0
C164 C 0.51374 0.53186 0.47192 0.0
C165 C 0.52081 0.51389 0.40458 0.0
C166 C 0.02 0.42261 0.01525 0.0
C167 C 0.02779 0.46514 0.98632 0.0
C168 C -0.00659 0.40682 0.07788 0.0
C169 C 0.97341 0.43287 0.11421 0.0
H170 H 0.03452 0.40113 -0.01061 0.0
H171 H -0.01161 0.37378 0.09766 0.0
S172 S 0.9833 0.54688 0.0609 0.0
N173 N 0.01329 0.5332 -0.00085 0.0
N174 N 0.96346 0.50369 0.11651 0.0
C175 C 0.98103 0.47562 0.08599 0.0
C176 C 0.00815 0.4917 0.02222 0.0
C177 C 0.4842 0.00754 0.45481 0.0
C178 C 0.48729 0.98826 0.38753 0.0
C179 C 0.46634 0.97928 0.51341 0.0
C180 C 0.45051 0.93042 0.50728 0.0
H181 H 0.49553 0.04487 0.46251 0.0
H182 H 0.46464 -0.00396 0.56386 0.0
S183 S 0.45154 0.86237 0.34296 0.0
N184 N 0.47346 0.91714 0.31819 0.0
N185 N 0.4398 0.86397 0.42849 0.0
C186 C 0.45368 0.9106 0.44043 0.0
C187 C 0.47214 0.93952 0.3806 0.0
C188 C 0.54562 0.552 0.8901 0.0
C189 C 0.4999 0.55202 0.89494 0.0
C190 C 0.56208 0.53336 0.94334 0.0
C191 C 0.53314 0.51341 0.00302 0.0
H192 H 0.5691 0.56668 0.84492 0.0
H193 H 0.59758 0.53421 0.93715 0.0
S194 S 0.41015 0.50445 0.04076 0.0
N195 N 0.42578 0.5304 0.96421 0.0
N196 N 0.45643 0.49506 0.06403 0.0
C197 C 0.48723 0.51316 0.00852 0.0
C198 C 0.47072 0.53259 0.95462 0.0
C199 C 0.94998 0.5059 0.6289 0.0
C200 C -0.00722 0.50129 0.63979 0.0
C201 C 0.92213 0.48918 0.56529 0.0
C202 C 0.93614 0.4675 0.50969 0.0
H203 H 0.93777 0.52265 0.66975 0.0
H204 H 0.88963 0.49383 0.55951 0.0
S205 S 0.04463 0.44577 0.51152 0.0
N206 N 0.04742 0.47258 0.5896 0.0
N207 N -0.00479 0.44144 0.47015 0.0
C208 C 0.97872 0.46239 0.51987 0.0
C209 C 0.00694 0.47915 0.58485 0.0
loop_
_geom_bond_atom_site_label_1
_geom_bond_atom_site_label_2
_geom_bond_distance
_geom_bond_site_symmetry_2
_ccdc_geom_bond_type
C0 O1 1.160 . S
C0 O7 1.185 . S
O1 C0 1.160 . S
O2 Zn3 1.899 . S
O2 C10 1.284 . S
Zn3 O2 1.899 . S
Zn3 O4 2.032 . S
Zn3 O7 2.086 . S
Zn3 O12 1.977 . S
O4 Zn3 2.032 . S
O4 C8 1.278 . S
C5 O6 1.203 . S
C5 O12 1.267 . S
O6 C5 1.203 . S
O7 C0 1.185 . S
O7 Zn3 2.086 . S
C8 O4 1.278 . S
C8 O9 1.211 . S
O9 C8 1.211 . S
C10 O2 1.284 . S
C10 O11 1.273 . S
O11 C10 1.273 . S
O12 Zn3 1.977 . S
O12 C5 1.267 . S
C13 O14 1.160 . S
C13 O20 1.185 . S
O14 C13 1.160 . S
O15 Zn16 1.899 . S
O15 C23 1.284 . S
Zn16 O15 1.899 . S
Zn16 O17 2.032 . S
Zn16 O20 2.086 . S
Zn16 O25 1.977 . S
O17 Zn16 2.032 . S
O17 C21 1.278 . S
C18 O19 1.203 . S
C18 O25 1.267 . S
O19 C18 1.203 . S
O20 C13 1.185 . S
O20 Zn16 2.086 . S
C21 O17 1.278 . S
C21 O22 1.211 . S
O22 C21 1.211 . S
C23 O15 1.284 . S
C23 O24 1.273 . S
O24 C23 1.273 . S
O25 Zn16 1.977 . S
O25 C18 1.267 . S
C26 O27 1.160 . S
C26 O33 1.185 . S
O27 C26 1.160 . S
O28 Zn29 1.899 . S
O28 C36 1.284 . S
Zn29 O28 1.899 . S
Zn29 O30 2.032 . S
Zn29 O33 2.086 . S
Zn29 O38 1.977 . S
O30 Zn29 2.032 . S
O30 C34 1.278 . S
C31 O32 1.203 . S
C31 O38 1.267 . S
O32 C31 1.203 . S
O33 C26 1.185 . S
O33 Zn29 2.086 . S
C34 O30 1.278 . S
C34 O35 1.211 . S
O35 C34 1.211 . S
C36 O28 1.284 . S
C36 O37 1.273 . S
O37 C36 1.273 . S
O38 Zn29 1.977 . S
O38 C31 1.267 . S
C39 O40 1.160 . S
C39 O46 1.185 . S
O40 C39 1.160 . S
O41 Zn42 1.899 . S
O41 C49 1.284 . S
Zn42 O41 1.899 . S
Zn42 O43 2.032 . S
Zn42 O46 2.086 . S
Zn42 O51 1.977 . S
O43 Zn42 2.032 . S
O43 C47 1.278 . S
C44 O45 1.203 . S
C44 O51 1.267 . S
O45 C44 1.203 . S
O46 C39 1.185 . S
O46 Zn42 2.086 . S
C47 O43 1.278 . S
C47 O48 1.211 . S
O48 C47 1.211 . S
C49 O41 1.284 . S
C49 O50 1.273 . S
O50 C49 1.273 . S
O51 Zn42 1.977 . S
O51 C44 1.267 . S
C52 O53 1.160 . S
C52 O59 1.185 . S
O53 C52 1.160 . S
O54 Zn55 1.899 . S
O54 C62 1.284 . S
Zn55 O54 1.899 . S
Zn55 O56 2.032 . S
Zn55 O59 2.086 . S
Zn55 O64 1.977 . S
O56 Zn55 2.032 . S
O56 C60 1.278 . S
C57 O58 1.203 . S
C57 O64 1.267 . S
O58 C57 1.203 . S
O59 C52 1.185 . S
O59 Zn55 2.086 . S
C60 O56 1.278 . S
C60 O61 1.211 . S
O61 C60 1.211 . S
C62 O54 1.284 . S
C62 O63 1.273 . S
O63 C62 1.273 . S
O64 Zn55 1.977 . S
O64 C57 1.267 . S
C65 O66 1.160 . S
C65 O72 1.185 . S
O66 C65 1.160 . S
O67 Zn68 1.899 . S
O67 C75 1.284 . S
Zn68 O67 1.899 . S
Zn68 O69 2.032 . S
Zn68 O72 2.086 . S
Zn68 O77 1.977 . S
O69 Zn68 2.032 . S
O69 C73 1.278 . S
C70 O71 1.203 . S
C70 O77 1.267 . S
O71 C70 1.203 . S
O72 C65 1.185 . S
O72 Zn68 2.086 . S
C73 O69 1.278 . S
C73 O74 1.211 . S
O74 C73 1.211 . S
C75 O67 1.284 . S
C75 O76 1.273 . S
O76 C75 1.273 . S
O77 Zn68 1.977 . S
O77 C70 1.267 . S
C78 C79 1.369 . S
C78 C80 1.419 . S
C78 H82 0.930 . S
C79 C78 1.369 . S
C79 C88 1.429 . S
C80 C78 1.419 . S
C80 C81 1.363 . S
C80 H83 0.929 . S
C81 C80 1.363 . S
C81 C87 1.428 . S
H82 C78 0.930 . S
H83 C80 0.929 . S
S84 N85 1.613 . S
S84 N86 1.610 . S
N85 S84 1.613 . S
N85 C88 1.350 . S
N86 S84 1.610 . S
N86 C87 1.351 . S
C87 C81 1.428 . S
C87 N86 1.351 . S
C87 C88 1.434 . S
C88 C79 1.429 . S
C88 N85 1.350 . S
C88 C87 1.434 . S
C89 C90 1.369 . S
C89 C91 1.419 . S
C89 H93 0.930 . S
C90 C89 1.369 . S
C90 C99 1.429 . S
C91 C89 1.419 . S
C91 C92 1.363 . S
C91 H94 0.929 . S
C92 C91 1.363 . S
C92 C98 1.428 . S
H93 C89 0.930 . S
H94 C91 0.929 . S
S95 N96 1.613 . S
S95 N97 1.610 . S
N96 S95 1.613 . S
N96 C99 1.350 . S
N97 S95 1.610 . S
N97 C98 1.351 . S
C98 C92 1.428 . S
C98 N97 1.351 . S
C98 C99 1.434 . S
C99 C90 1.429 . S
C99 N96 1.350 . S
C99 C98 1.434 . S
C100 C101 1.369 . S
C100 C102 1.419 . S
C100 H104 0.930 . S
C101 C100 1.369 . S
C101 C110 1.429 . S
C102 C100 1.419 . S
C102 C103 1.363 . S
C102 H105 0.929 . S
C103 C102 1.363 . S
C103 C109 1.428 . S
H104 C100 0.930 . S
H105 C102 0.929 . S
S106 N107 1.613 . S
S106 N108 1.610 . S
N107 S106 1.613 . S
N107 C110 1.350 . S
N108 S106 1.610 . S
N108 C109 1.351 . S
C109 C103 1.428 . S
C109 N108 1.351 . S
C109 C110 1.434 . S
C110 C101 1.429 . S
C110 N107 1.350 . S
C110 C109 1.434 . S
C111 C112 1.369 . S
C111 C113 1.419 . S
C111 H115 0.930 . S
C112 C111 1.369 . S
C112 C121 1.429 . S
C113 C111 1.419 . S
C113 C114 1.363 . S
C113 H116 0.929 . S
C114 C113 1.363 . S
C114 C120 1.428 . S
H115 C111 0.930 . S
H116 C113 0.929 . S
S117 N118 1.613 . S
S117 N119 1.610 . S
N118 S117 1.613 . S
N118 C121 1.350 . S
N119 S117 1.610 . S
N119 C120 1.351 . S
C120 C114 1.428 . S
C120 N119 1.351 . S
C120 C121 1.434 . S
C121 C112 1.429 . S
C121 N118 1.350 . S
C121 C120 1.434 . S
C122 C123 1.369 . S
C122 C124 1.419 . S
C122 H126 0.930 . S
C123 C122 1.369 . S
C123 C132 1.429 . S
C124 C122 1.419 . S
C124 C125 1.363 . S
C124 H127 0.929 . S
C125 C124 1.363 . S
C125 C131 1.428 . S
H126 C122 0.930 . S
H127 C124 0.929 . S
S128 N129 1.613 . S
S128 N130 1.610 . S
N129 S128 1.613 . S
N129 C132 1.350 . S
N130 S128 1.610 . S
N130 C131 1.351 . S
C131 C125 1.428 . S
C131 N130 1.351 . S
C131 C132 1.434 . S
C132 C123 1.429 . S
C132 N129 1.350 . S
C132 C131 1.434 . S
C133 C134 1.369 . S
C133 C135 1.419 . S
C133 H137 0.930 . S
C134 C133 1.369 . S
C134 C143 1.429 . S
C135 C133 1.419 . S
C135 C136 1.363 . S
C135 H138 0.929 . S
C136 C135 1.363 . S
C136 C142 1.428 . S
H137 C133 0.930 . S
H138 C135 0.929 . S
S139 N140 1.613 . S
S139 N141 1.610 . S
N140 S139 1.613 . S
N140 C143 1.350 . S
N141 S139 1.610 . S
N141 C142 1.351 . S
C142 C136 1.428 . S
C142 N141 1.351 . S
C142 C143 1.434 . S
C143 C134 1.429 . S
C143 N140 1.350 . S
C143 C142 1.434 . S
C144 C145 1.369 1_545 S
C144 C146 1.419 1_556 S
C144 H148 0.930 . S
C145 C144 1.369 1_565 S
C145 C154 1.416 1_556 S
C146 C144 1.419 1_554 S
C146 C147 1.363 . S
C146 H149 0.930 . S
C147 C146 1.363 . S
C147 C153 1.428 1_545 S
H148 C144 0.930 . S
H149 C146 0.930 . S
S150 N151 1.613 . S
S150 N152 1.610 . S
N151 S150 1.613 . S
N151 C154 1.352 . S
N152 S150 1.610 . S
N152 C153 1.351 . S
C153 C147 1.428 1_565 S
C153 N152 1.351 . S
C153 C154 1.446 . S
C154 C145 1.416 1_554 S
C154 N151 1.352 . S
C154 C153 1.446 . S
C155 C156 1.369 . S
C155 C157 1.419 . S
C155 H159 0.930 . S
C156 C155 1.369 . S
C156 C165 1.429 . S
C157 C155 1.419 . S
C157 C158 1.363 . S
C157 H160 0.929 . S
C158 C157 1.363 . S
C158 C164 1.428 . S
H159 C155 0.930 . S
H160 C157 0.929 . S
S161 N162 1.613 . S
S161 N163 1.610 . S
N162 S161 1.613 . S
N162 C165 1.350 . S
N163 S161 1.610 . S
N163 C164 1.351 . S
C164 C158 1.428 . S
C164 N163 1.351 . S
C164 C165 1.434 . S
C165 C156 1.429 . S
C165 N162 1.350 . S
C165 C164 1.434 . S
C166 C167 1.369 . S
C166 C168 1.419 1_456 S
C166 H170 0.930 . S
C167 C166 1.369 . S
C167 C176 1.429 1_556 S
C168 C166 1.419 1_654 S
C168 C169 1.363 . S
C168 H171 0.929 . S
C169 C168 1.363 . S
C169 C175 1.428 . S
H170 C166 0.930 . S
H171 C168 0.929 . S
S172 N173 1.613 . S
S172 N174 1.610 1_455 S
N173 S172 1.613 . S
N173 C176 1.350 . S
N174 S172 1.610 1_655 S
N174 C175 1.351 . S
C175 C169 1.428 . S
C175 N174 1.351 . S
C175 C176 1.434 1_655 S
C176 C167 1.429 1_554 S
C176 N173 1.350 . S
C176 C175 1.434 1_455 S
C177 C178 1.369 . S
C177 C179 1.419 . S
C177 H181 0.930 . S
C178 C177 1.369 . S
C178 C187 1.429 1_545 S
C179 C177 1.419 . S
C179 C180 1.363 1_545 S
C179 H182 0.929 . S
C180 C179 1.363 1_565 S
C180 C186 1.428 . S
H181 C177 0.930 . S
H182 C179 0.929 . S
S183 N184 1.613 . S
S183 N185 1.610 . S
N184 S183 1.613 . S
N184 C187 1.350 . S
N185 S183 1.610 . S
N185 C186 1.351 . S
C186 C180 1.428 . S
C186 N185 1.351 . S
C186 C187 1.434 . S
C187 C178 1.429 1_565 S
C187 N184 1.350 . S
C187 C186 1.434 . S
C188 C189 1.369 . S
C188 C190 1.419 . S
C188 H192 0.930 . S
C189 C188 1.369 . S
C189 C198 1.429 . S
C190 C188 1.419 . S
C190 C191 1.363 1_556 S
C190 H193 0.929 . S
C191 C190 1.363 1_554 S
C191 C197 1.428 . S
H192 C188 0.930 . S
H193 C190 0.929 . S
S194 N195 1.613 1_554 S
S194 N196 1.610 . S
N195 S194 1.613 1_556 S
N195 C198 1.350 . S
N196 S194 1.610 . S
N196 C197 1.351 . S
C197 C191 1.428 . S
C197 N196 1.351 . S
C197 C198 1.434 1_554 S
C198 C189 1.429 . S
C198 N195 1.350 . S
C198 C197 1.434 1_556 S
C199 C200 1.369 . S
C199 C201 1.419 1_455 S
C199 H203 0.930 . S
C200 C199 1.369 . S
C200 C209 1.429 . S
C201 C199 1.419 1_655 S
C201 C202 1.363 . S
C201 H204 0.929 . S
C202 C201 1.363 . S
C202 C208 1.428 . S
H203 C199 0.930 . S
H204 C201 0.929 . S
S205 N206 1.613 . S
S205 N207 1.610 1_455 S
N206 S205 1.613 . S
N206 C209 1.350 . S
N207 S205 1.610 1_655 S
N207 C208 1.351 . S
C208 C202 1.428 . S
C208 N207 1.351 . S
C208 C209 1.434 1_655 S
C209 C200 1.429 . S
C209 N206 1.350 . S
C209 C208 1.434 1_455 S
C79 C5 1.106 . S
C81 C57 1.101 . S
C90 C23 1.178 . S
C92 C75 1.173 . S
C101 C10 1.179 . S
C103 C31 1.120 . S
C112 C49 1.185 . S
C114 C18 1.129 . S
C123 C62 1.165 . S
C125 C36 1.178 . S
C134 C44 1.104 . S
C136 C70 1.099 . S
C145 C47 1.334 . S
C147 C8 1.340 . S
C156 C60 1.382 . S
C158 C13 1.372 . S
C167 C65 1.363 . S
C169 C34 1.382 . S
C178 C0 1.379 . S
C180 C39 1.373 . S
C189 C21 1.377 . S
C191 C52 1.365 . S
C200 C73 1.379 . S
C202 C26 1.375 . S
