# Generated by pormake.
# Topology ilc, (8)-cn, num edge types: 1
# Building blocks:
#     Node 0, Type 0, BuildingBlock: HISSIN_clean_sbu_1, # of connection points: 8
#     Node 1, Type 0, BuildingBlock: HISSIN_clean_sbu_1, # of connection points: 8
#     Node 2, Type 0, BuildingBlock: HISSIN_clean_sbu_1, # of connection points: 8
#     Edge 3, Type (0, 0), BuildingBlock: AJUNOK_clean_linker_0, # of connection points: 2
#     Edge 4, Type (0, 0), BuildingBlock: AJUNOK_clean_linker_0, # of connection points: 2
#     Edge 5, Type (0, 0), BuildingBlock: AJUNOK_clean_linker_0, # of connection points: 2
#     Edge 6, Type (0, 0), BuildingBlock: AJUNOK_clean_linker_0, # of connection points: 2
#     Edge 7, Type (0, 0), BuildingBlock: AJUNOK_clean_linker_0, # of connection points: 2
#     Edge 8, Type (0, 0), BuildingBlock: AJUNOK_clean_linker_0, # of connection points: 2
#     Edge 9, Type (0, 0), BuildingBlock: AJUNOK_clean_linker_0, # of connection points: 2
#     Edge 10, Type (0, 0), BuildingBlock: AJUNOK_clean_linker_0, # of connection points: 2
#     Edge 11, Type (0, 0), BuildingBlock: AJUNOK_clean_linker_0, # of connection points: 2
#     Edge 12, Type (0, 0), BuildingBlock: AJUNOK_clean_linker_0, # of connection points: 2
#     Edge 13, Type (0, 0), BuildingBlock: AJUNOK_clean_linker_0, # of connection points: 2
#     Edge 14, Type (0, 0), BuildingBlock: AJUNOK_clean_linker_0, # of connection points: 2
# Relax obj value: 0.199
# Max RMSD: 0.208
# Mean RMSD: 0.208
data_MOF--net-ilc--node1-HISSIN_clean_sbu_1--edge1-AJUNOK_clean_linker_0
_symmetry_space_group_name_H-M    P1
_symmetry_Int_Tables_number       1
_symmetry_cell_setting            triclinic
loop_
_symmetry_equiv_pos_as_xyz
'x, y, z'
_cell_length_a     17.896021
_cell_length_b     24.405095
_cell_length_c     15.328389
_cell_angle_alpha  101.80868
_cell_angle_beta   74.050243
_cell_angle_gamma 143.88356
loop_
_atom_site_label
_atom_site_type_symbol
_atom_site_fract_x
_atom_site_fract_y
_atom_site_fract_z
_atom_type_partial_charge
Eu0 Eu 0.89653 0.92884 0.95277 0.0
C1 C 0.18292 0.11267 0.85868 0.0
O2 O 0.83685 0.8212 0.8492 0.0
C3 C 0.18933 1.02572 0.1795 0.0
C4 C 0.15293 0.97495 0.34924 0.0
C5 C 0.13982 0.03573 0.2584 0.0
C6 C 0.12197 1.01003 0.3417 0.0
C7 C 0.21833 0.98688 0.18567 0.0
C8 C 0.20046 0.9623 0.27279 0.0
Eu9 Eu 0.13995 0.11624 0.07265 0.0
O10 O 0.83233 0.88252 0.09888 0.0
O11 O 0.20055 0.22257 0.17979 0.0
O12 O 0.20022 0.16267 0.92743 0.0
O13 O 0.93943 1.02296 0.15215 0.0
C14 C 0.14081 0.23741 0.20278 0.0
O15 O 0.0528 0.19571 0.1573 0.0
O16 O 0.09866 1.0036 0.06886 0.0
C17 C 0.20679 0.05719 0.09475 0.0
C18 C 0.8922 0.80333 0.83407 0.0
O19 O 0.97453 0.84341 0.88491 0.0
O20 O 0.28583 0.14572 0.0926 0.0
O21 O 0.0968 1.02389 0.872 0.0
C22 C 0.83132 0.98733 0.92526 0.0
O23 O 0.93641 0.04067 0.9558 0.0
C24 C 0.85407 1.02066 0.83947 0.0
C25 C 0.89353 0.07209 0.66883 0.0
C26 C 0.89923 1.00694 0.76095 0.0
C27 C 0.91868 0.03293 0.67691 0.0
C28 C 0.83428 0.06538 0.83257 0.0
C29 C 0.85284 0.08982 0.74532 0.0
C30 C 0.84884 0.93348 0.16596 0.0
O31 O 0.75284 0.89888 0.92642 0.0
H32 H 0.13601 0.95468 0.41617 0.0
H33 H 0.11447 0.0633 0.2551 0.0
H34 H 0.25447 0.97689 0.12505 0.0
H35 H 0.91126 0.09261 0.60176 0.0
H36 H 0.91948 0.97599 0.76509 0.0
H37 H 0.80422 0.07987 0.89302 0.0
Eu38 Eu 0.57176 0.26376 0.28864 0.0
C39 C 0.86059 0.44779 0.19517 0.0
O40 O 0.51896 0.15804 0.18502 0.0
C41 C 0.85312 0.36157 0.51659 0.0
C42 C 0.85091 0.33597 0.68688 0.0
C43 C 0.81597 0.3807 0.59504 0.0
C44 C 0.81721 0.36907 0.67856 0.0
C45 C 0.87864 0.32067 0.52386 0.0
C46 C 0.87679 0.30774 0.61122 0.0
Eu47 Eu 0.80495 0.45117 0.40558 0.0
O48 O 0.50119 0.21957 0.43653 0.0
O49 O 0.86892 0.55926 0.51043 0.0
O50 O 0.87047 0.49714 0.26004 0.0
O51 O 0.60359 0.36026 0.47999 0.0
C52 C 0.82293 0.58425 0.52408 0.0
O53 O 0.75013 0.55325 0.46922 0.0
O54 O 0.7574 0.33585 0.40759 0.0
C55 C 0.86662 0.38938 0.43126 0.0
C56 C 0.56821 0.1356 0.17411 0.0
O57 O 0.64061 0.16797 0.23024 0.0
O58 O 0.94767 0.47821 0.42644 0.0
O59 O 0.7743 0.35929 0.21094 0.0
C60 C 0.50439 0.32005 0.25806 0.0
O61 O 0.61005 0.3744 0.28832 0.0
C62 C 0.52632 0.35301 0.17256 0.0
C63 C 0.57285 0.4088 1.00236 0.0
C64 C 0.57364 0.34062 0.09459 0.0
C65 C 0.59557 0.36821 1.01088 0.0
C66 C 0.50491 0.39669 0.16522 0.0
C67 C 0.52722 0.4233 0.07793 0.0
C68 C 0.51401 0.27181 0.49872 0.0
O69 O 0.42769 0.23202 0.25896 0.0
H70 H 0.84632 0.325 0.75436 0.0
H71 H 0.78794 0.40625 0.59116 0.0
H72 H 0.90002 0.30022 0.46374 0.0
H73 H 0.59494 0.43206 0.93567 0.0
H74 H 0.59365 0.30953 0.09887 0.0
H75 H 0.47264 0.40992 0.22508 0.0
Eu76 Eu 0.23735 0.59777 0.62299 0.0
C77 C 0.52647 0.7801 0.52976 0.0
O78 O 0.17687 0.48906 0.52033 0.0
C79 C 0.51564 0.68537 0.84487 0.0
C80 C 0.48354 0.63461 0.0119 0.0
C81 C 0.47135 0.69812 0.92522 0.0
C82 C 0.45607 0.67273 1.00746 0.0
C83 C 0.54112 0.6438 0.84798 0.0
C84 C 0.52567 0.61944 0.93367 0.0
Eu85 Eu 0.47984 0.78622 0.74049 0.0
O86 O 0.17078 0.55357 0.7701 0.0
O87 O 0.54349 0.89053 0.85095 0.0
O88 O 0.54573 0.83356 0.59464 0.0
O89 O 0.27867 0.69552 0.81573 0.0
C90 C 0.5109 0.92476 0.8609 0.0
O91 O 0.44936 0.90296 0.80166 0.0
O92 O 0.42934 0.66897 0.73571 0.0
C93 C 0.53577 0.71948 0.76175 0.0
C94 C 0.23506 0.47326 0.50302 0.0
O95 O 0.32283 0.51731 0.55026 0.0
O96 O 0.61786 0.80872 0.76204 0.0
O97 O 0.44038 0.6924 0.54905 0.0
C98 C 0.17621 0.65855 0.59262 0.0
O99 O 0.28013 0.71083 0.62418 0.0
C100 C 0.20194 0.69335 0.50679 0.0
C101 C 0.25694 0.75401 0.33643 0.0
C102 C 0.25415 0.68402 0.42966 0.0
C103 C 0.28154 0.71473 0.34571 0.0
C104 C 0.17808 0.73506 0.49854 0.0
C105 C 0.20443 0.76401 0.41128 0.0
C106 C 0.18913 0.60696 0.83424 0.0
O107 O 0.09714 0.57001 0.59304 0.0
H108 H 0.46772 0.61352 0.07752 0.0
H109 H 0.44928 0.72832 0.92391 0.0
H110 H 0.57249 0.63137 0.7861 0.0
H111 H 0.27974 0.77759 0.26956 0.0
H112 H 0.27341 0.6526 0.43479 0.0
H113 H 0.13999 0.74447 0.55786 0.0
C114 C 0.09651 0.10587 0.54984 0.0
C115 C 0.97185 1.02434 0.59543 0.0
C116 C 0.14354 0.10151 0.46416 0.0
C117 C 0.06579 1.01564 0.42329 0.0
H118 H 0.15674 0.17293 0.58053 0.0
H119 H 0.2414 0.1646 0.43065 0.0
S120 S 0.736 0.78311 0.51678 0.0
N121 N 0.77353 0.85631 0.59565 0.0
N122 N 0.86284 0.84794 0.4332 0.0
C123 C 0.94195 0.93378 0.46842 0.0
C124 C 0.89454 0.93817 0.55555 0.0
C125 C 0.83975 0.44829 0.81536 0.0
C126 C 0.76113 0.37481 0.75972 0.0
C127 C 0.78294 0.43985 0.90173 0.0
C128 C 0.6485 0.35977 0.93012 0.0
H129 H 0.94349 0.50967 0.79326 0.0
H130 H 0.84279 0.49806 0.94623 0.0
S131 S 0.38811 0.11389 0.80149 0.0
N132 N 0.54254 0.21037 0.75332 0.0
N133 N 0.54042 0.22984 0.80194 0.0
C134 C 0.55575 0.27799 0.88168 0.0
C135 C 0.61795 0.287 0.79643 0.0
C136 C 0.48956 0.77173 0.12626 0.0
C137 C 0.40803 0.68311 0.09104 0.0
C138 C 0.4506 0.78138 0.21262 0.0
C139 C 0.33027 0.70244 0.26456 0.0
H140 H 0.58392 0.83314 0.08765 0.0
H141 H 0.51318 0.85051 0.23846 0.0
S142 S 0.08444 0.45623 0.20025 0.0
N143 N 0.20435 0.51596 0.11176 0.0
N144 N 0.13071 0.53423 0.27575 0.0
C145 C 0.24909 0.61369 0.23008 0.0
C146 C 0.2881 0.60395 0.14221 0.0
C147 C 0.10559 0.76836 0.332 0.0
C148 C 0.18952 0.81111 0.39102 0.0
C149 C 0.11962 0.82023 0.28388 0.0
C150 C 0.21853 0.91694 0.29264 0.0
H151 H 1.03117 0.69448 0.32073 0.0
H152 H 0.04926 0.78389 0.24271 0.0
S153 S 0.45996 0.06108 0.44139 0.0
N154 N 0.37388 0.95503 0.45567 0.0
N155 N 0.39738 0.05218 0.36886 0.0
C156 C 0.30219 0.95996 0.35213 0.0
C157 C 0.2878 0.9072 0.40084 0.0
C158 C 0.15005 0.38733 0.35828 0.0
C159 C 0.20855 0.41083 0.42857 0.0
C160 C 0.13044 0.33261 0.28565 0.0
C161 C 0.16824 0.29852 0.27957 0.0
H162 H 0.12106 0.41274 0.35839 0.0
H163 H 0.08569 0.31742 0.23335 0.0
S164 S 0.3198 0.33586 0.4483 0.0
N165 N 0.30126 0.39312 0.48815 0.0
N166 N 0.26183 0.28936 0.35353 0.0
C167 C 0.22533 0.32049 0.34999 0.0
C168 C 0.24601 0.37666 0.42373 0.0
C169 C 0.71832 0.9143 0.4178 0.0
C170 C 0.60645 0.81793 0.43641 0.0
C171 C 0.7955 0.95041 0.33046 0.0
C172 C 0.76437 0.89183 0.25772 0.0
H173 H 0.7475 0.96245 0.47121 0.0
H174 H 0.88106 1.02531 0.32034 0.0
S175 S 0.4805 0.63384 0.2703 0.0
N176 N 0.46723 0.66419 0.37379 0.0
N177 N 0.61323 0.73223 0.21112 0.0
C178 C 0.65289 0.79534 0.27549 0.0
C179 C 0.57379 0.75847 0.36422 0.0
C180 C 0.77935 0.1586 0.62463 0.0
C181 C 0.88412 0.25566 0.63241 0.0
C182 C 0.76124 0.10321 0.67024 0.0
C183 C 0.84597 0.14257 0.72658 0.0
H184 H 0.70838 0.12499 0.58574 0.0
H185 H 0.68276 0.02911 0.65906 0.0
S186 S 0.13545 0.39291 0.76924 0.0
N187 N 0.07346 0.38843 0.70107 0.0
N188 N 0.03969 0.28422 0.78546 0.0
C189 C 0.95056 0.23916 0.735 0.0
C190 C 0.96995 0.29559 0.68792 0.0
C191 C 0.81478 0.68086 0.60638 0.0
C192 C 0.84363 0.64093 0.60355 0.0
C193 C 0.82771 0.73119 0.68143 0.0
C194 C 0.87002 0.74404 0.75751 0.0
H195 H 0.78235 0.6737 0.54971 0.0
H196 H 0.80642 0.7616 0.679 0.0
S197 S 0.94855 0.64801 0.78843 0.0
N198 N 0.90995 0.61408 0.68688 0.0
N199 N 0.93474 0.7083 0.82684 0.0
C200 C 0.89725 0.70329 0.75629 0.0
C201 C 0.8841 0.65206 0.67985 0.0
C202 C 0.31309 0.13586 0.60588 0.0
C203 C 0.4276 0.23254 0.58974 0.0
C204 C 0.2326 0.09827 0.69205 0.0
C205 C 0.2643 0.15564 0.76635 0.0
H206 H 0.28518 0.08867 0.55165 0.0
H207 H 0.14598 1.02325 0.70075 0.0
S208 S 0.55041 0.41378 0.75874 0.0
N209 N 0.5656 0.38517 0.65472 0.0
N210 N 0.41607 0.31448 0.81603 0.0
C211 C 0.37678 0.25243 0.75041 0.0
C212 C 0.45811 0.29078 0.66253 0.0
C213 C 0.62401 0.5689 0.04964 0.0
C214 C 0.51389 0.4713 0.0571 0.0
C215 C 0.63585 0.61761 0.99803 0.0
C216 C 0.53914 0.57062 0.95036 0.0
H217 H 0.70353 0.60768 0.08141 0.0
H218 H 0.71799 0.69282 0.99948 0.0
S219 S 0.23175 0.31587 0.94802 0.0
N220 N 0.30735 0.32969 1.01121 0.0
N221 N 0.32868 0.42161 0.9162 0.0
C222 C 0.42945 0.47333 0.95669 0.0
C223 C 0.41674 0.42379 1.00985 0.0
C224 C 0.52851 0.96747 0.02698 0.0
C225 C 0.53542 0.98306 0.93972 0.0
C226 C 0.53703 1.01569 0.10291 0.0
C227 C 0.55312 0.08154 0.09453 0.0
H228 H 0.5129 0.91593 0.03722 0.0
H229 H 0.52938 1.00048 0.16885 0.0
S230 S 0.60896 0.16355 0.87854 0.0
N231 N 0.57939 0.07928 0.84823 0.0
N232 N 0.59594 0.1694 0.98971 0.0
C233 C 0.56703 0.10093 1.00712 0.0
C234 C 0.55841 0.05212 0.93023 0.0
C235 C 1.00331 0.47192 0.94627 0.0
C236 C 0.10689 0.56792 0.92678 0.0
C237 C 0.92498 0.43409 0.03307 0.0
C238 C 0.94687 0.49057 0.10432 0.0
H239 H 0.98163 0.42522 0.89403 0.0
H240 H 0.84597 0.35962 0.04397 0.0
S241 S 0.20671 0.7465 0.08982 0.0
N242 N 0.22795 0.71898 0.98724 0.0
N243 N 0.08107 0.64768 0.14936 0.0
C244 C 0.05049 0.58664 0.08596 0.0
C245 C 0.1303 0.62529 0.99765 0.0
loop_
_geom_bond_atom_site_label_1
_geom_bond_atom_site_label_2
_geom_bond_distance
_geom_bond_site_symmetry_2
_ccdc_geom_bond_type
Eu0 O2 2.323 . S
Eu0 O10 2.328 1_556 S
Eu0 O21 2.316 1_665 S
Eu0 C22 2.837 . S
Eu0 O23 2.488 . S
Eu0 O31 2.461 . S
C1 O12 1.251 . S
C1 O21 1.237 . S
O2 Eu0 2.323 . S
O2 C18 1.279 . S
C3 C5 1.383 . S
C3 C7 1.388 1_545 S
C3 C17 1.491 . S
C4 C6 1.403 . S
C4 C8 1.385 . S
C4 H32 0.931 . S
C5 C3 1.383 . S
C5 C6 1.393 1_545 S
C5 H33 0.930 . S
C6 C4 1.403 . S
C6 C5 1.393 1_565 S
C7 C3 1.388 1_565 S
C7 C8 1.394 . S
C7 H34 0.930 . S
C8 C4 1.385 . S
C8 C7 1.394 . S
Eu9 O11 2.323 . S
Eu9 O12 2.328 1_554 S
Eu9 O13 2.312 1_445 S
Eu9 O16 2.488 . S
Eu9 C17 2.837 . S
Eu9 O20 2.461 . S
O10 Eu0 2.328 1_554 S
O10 C30 1.251 . S
O11 Eu9 2.323 . S
O11 C14 1.279 . S
O12 C1 1.251 . S
O12 Eu9 2.328 1_556 S
O13 Eu9 2.312 1_665 S
O13 C30 1.244 . S
C14 O11 1.279 . S
C14 O15 1.244 . S
O15 C14 1.244 . S
O16 Eu9 2.488 . S
O16 C17 1.271 . S
C17 C3 1.491 . S
C17 Eu9 2.837 . S
C17 O16 1.271 . S
C17 O20 1.261 . S
C18 O2 1.279 . S
C18 O19 1.244 . S
O19 C18 1.244 . S
O20 Eu9 2.461 . S
O20 C17 1.261 . S
O21 Eu0 2.316 1_445 S
O21 C1 1.237 . S
C22 Eu0 2.837 . S
C22 O23 1.271 . S
C22 C24 1.491 . S
C22 O31 1.261 . S
O23 Eu0 2.488 . S
O23 C22 1.271 . S
C24 C22 1.491 . S
C24 C26 1.383 . S
C24 C28 1.388 1_565 S
C25 C27 1.403 . S
C25 C29 1.385 . S
C25 H35 0.931 . S
C26 C24 1.383 . S
C26 C27 1.393 1_565 S
C26 H36 0.930 . S
C27 C25 1.403 . S
C27 C26 1.393 1_545 S
C28 C24 1.388 1_545 S
C28 C29 1.394 . S
C28 H37 0.930 . S
C29 C25 1.385 . S
C29 C28 1.394 . S
C30 O10 1.251 . S
C30 O13 1.244 . S
O31 Eu0 2.461 . S
O31 C22 1.261 . S
H32 C4 0.931 . S
H33 C5 0.930 . S
H34 C7 0.930 . S
H35 C25 0.931 . S
H36 C26 0.930 . S
H37 C28 0.930 . S
Eu38 O40 2.323 . S
Eu38 O48 2.328 . S
Eu38 O59 2.316 . S
Eu38 C60 2.837 . S
Eu38 O61 2.488 . S
Eu38 O69 2.461 . S
C39 O50 1.251 . S
C39 O59 1.237 . S
O40 Eu38 2.323 . S
O40 C56 1.279 . S
C41 C43 1.383 . S
C41 C45 1.388 . S
C41 C55 1.491 . S
C42 C44 1.403 . S
C42 C46 1.385 . S
C42 H70 0.931 . S
C43 C41 1.383 . S
C43 C44 1.393 . S
C43 H71 0.930 . S
C44 C42 1.403 . S
C44 C43 1.393 . S
C45 C41 1.388 . S
C45 C46 1.394 . S
C45 H72 0.930 . S
C46 C42 1.385 . S
C46 C45 1.394 . S
Eu47 O49 2.323 . S
Eu47 O50 2.328 . S
Eu47 O51 2.316 . S
Eu47 O54 2.488 . S
Eu47 C55 2.837 . S
Eu47 O58 2.461 . S
O48 Eu38 2.328 . S
O48 C68 1.251 . S
O49 Eu47 2.323 . S
O49 C52 1.279 . S
O50 C39 1.251 . S
O50 Eu47 2.328 . S
O51 Eu47 2.316 . S
O51 C68 1.237 . S
C52 O49 1.279 . S
C52 O53 1.244 . S
O53 C52 1.244 . S
O54 Eu47 2.488 . S
O54 C55 1.271 . S
C55 C41 1.491 . S
C55 Eu47 2.837 . S
C55 O54 1.271 . S
C55 O58 1.261 . S
C56 O40 1.279 . S
C56 O57 1.244 . S
O57 C56 1.244 . S
O58 Eu47 2.461 . S
O58 C55 1.261 . S
O59 Eu38 2.316 . S
O59 C39 1.237 . S
C60 Eu38 2.837 . S
C60 O61 1.271 . S
C60 C62 1.491 . S
C60 O69 1.261 . S
O61 Eu38 2.488 . S
O61 C60 1.271 . S
C62 C60 1.491 . S
C62 C64 1.383 . S
C62 C66 1.388 . S
C63 C65 1.403 1_554 S
C63 C67 1.385 . S
C63 H73 0.931 1_554 S
C64 C62 1.383 . S
C64 C65 1.393 1_554 S
C64 H74 0.930 . S
C65 C63 1.403 1_556 S
C65 C64 1.393 1_556 S
C66 C62 1.388 . S
C66 C67 1.394 . S
C66 H75 0.930 . S
C67 C63 1.385 . S
C67 C66 1.394 . S
C68 O48 1.251 . S
C68 O51 1.237 . S
O69 Eu38 2.461 . S
O69 C60 1.261 . S
H70 C42 0.931 . S
H71 C43 0.930 . S
H72 C45 0.930 . S
H73 C63 0.931 1_556 S
H74 C64 0.930 . S
H75 C66 0.930 . S
Eu76 O78 2.323 . S
Eu76 O86 2.328 . S
Eu76 O97 2.316 . S
Eu76 C98 2.837 . S
Eu76 O99 2.488 . S
Eu76 O107 2.461 . S
C77 O88 1.251 . S
C77 O97 1.237 . S
O78 Eu76 2.323 . S
O78 C94 1.279 . S
C79 C81 1.383 . S
C79 C83 1.388 . S
C79 C93 1.491 . S
C80 C82 1.403 1_556 S
C80 C84 1.385 . S
C80 H108 0.931 1_556 S
C81 C79 1.383 . S
C81 C82 1.393 1_556 S
C81 H109 0.930 . S
C82 C80 1.403 1_554 S
C82 C81 1.393 1_554 S
C83 C79 1.388 . S
C83 C84 1.394 . S
C83 H110 0.930 . S
C84 C80 1.385 . S
C84 C83 1.394 . S
Eu85 O87 2.323 . S
Eu85 O88 2.328 . S
Eu85 O89 2.316 . S
Eu85 O92 2.488 . S
Eu85 C93 2.837 . S
Eu85 O96 2.461 . S
O86 Eu76 2.328 . S
O86 C106 1.251 . S
O87 Eu85 2.323 . S
O87 C90 1.279 . S
O88 C77 1.251 . S
O88 Eu85 2.328 . S
O89 Eu85 2.316 . S
O89 C106 1.237 . S
C90 O87 1.279 . S
C90 O91 1.244 . S
O91 C90 1.244 . S
O92 Eu85 2.488 . S
O92 C93 1.271 . S
C93 C79 1.491 . S
C93 Eu85 2.837 . S
C93 O92 1.271 . S
C93 O96 1.261 . S
C94 O78 1.279 . S
C94 O95 1.244 . S
O95 C94 1.244 . S
O96 Eu85 2.461 . S
O96 C93 1.261 . S
O97 Eu76 2.316 . S
O97 C77 1.237 . S
C98 Eu76 2.837 . S
C98 O99 1.271 . S
C98 C100 1.491 . S
C98 O107 1.261 . S
O99 Eu76 2.488 . S
O99 C98 1.271 . S
C100 C98 1.491 . S
C100 C102 1.383 . S
C100 C104 1.388 . S
C101 C103 1.403 . S
C101 C105 1.385 . S
C101 H111 0.931 . S
C102 C100 1.383 . S
C102 C103 1.393 . S
C102 H112 0.930 . S
C103 C101 1.403 . S
C103 C102 1.393 . S
C104 C100 1.388 . S
C104 C105 1.394 . S
C104 H113 0.930 . S
C105 C101 1.385 . S
C105 C104 1.394 . S
C106 O86 1.251 . S
C106 O89 1.237 . S
O107 Eu76 2.461 . S
O107 C98 1.261 . S
H108 C80 0.931 1_554 S
H109 C81 0.930 . S
H110 C83 0.930 . S
H111 C101 0.931 . S
H112 C102 0.930 . S
H113 C104 0.930 . S
C114 C115 1.368 1_445 S
C114 C116 1.419 . S
C114 H118 0.930 . S
C115 C114 1.368 1_665 S
C115 C124 1.434 . S
C116 C114 1.419 . S
C116 C117 1.349 1_545 S
C116 H119 0.929 . S
C117 C116 1.349 1_565 S
C117 C123 1.432 1_455 S
H118 C114 0.930 . S
H119 C116 0.929 . S
S120 N121 1.613 . S
S120 N122 1.610 . S
N121 S120 1.613 . S
N121 C124 1.350 . S
N122 S120 1.610 . S
N122 C123 1.351 . S
C123 C117 1.432 1_655 S
C123 N122 1.351 . S
C123 C124 1.434 . S
C124 C115 1.434 . S
C124 N121 1.350 . S
C124 C123 1.434 . S
C125 C126 1.369 . S
C125 C127 1.419 . S
C125 H129 0.930 . S
C126 C125 1.369 . S
C126 C135 1.429 . S
C127 C125 1.419 . S
C127 C128 1.363 . S
C127 H130 0.929 . S
C128 C127 1.363 . S
C128 C134 1.428 . S
H129 C125 0.930 . S
H130 C127 0.929 . S
S131 N132 1.613 . S
S131 N133 1.610 . S
N132 S131 1.613 . S
N132 C135 1.350 . S
N133 S131 1.610 . S
N133 C134 1.351 . S
C134 C128 1.428 . S
C134 N133 1.351 . S
C134 C135 1.434 . S
C135 C126 1.429 . S
C135 N132 1.350 . S
C135 C134 1.434 . S
C136 C137 1.369 . S
C136 C138 1.419 . S
C136 H140 0.930 . S
C137 C136 1.369 . S
C137 C146 1.429 . S
C138 C136 1.419 . S
C138 C139 1.363 . S
C138 H141 0.929 . S
C139 C138 1.363 . S
C139 C145 1.428 . S
H140 C136 0.930 . S
H141 C138 0.929 . S
S142 N143 1.613 . S
S142 N144 1.610 . S
N143 S142 1.613 . S
N143 C146 1.350 . S
N144 S142 1.610 . S
N144 C145 1.351 . S
C145 C139 1.428 . S
C145 N144 1.351 . S
C145 C146 1.434 . S
C146 C137 1.429 . S
C146 N143 1.350 . S
C146 C145 1.434 . S
C147 C148 1.369 . S
C147 C149 1.419 . S
C147 H151 0.930 . S
C148 C147 1.369 . S
C148 C157 1.429 . S
C149 C147 1.419 . S
C149 C150 1.363 . S
C149 H152 0.929 . S
C150 C149 1.363 . S
C150 C156 1.428 . S
H151 C147 0.930 . S
H152 C149 0.929 . S
S153 N154 1.613 . S
S153 N155 1.610 . S
N154 S153 1.613 . S
N154 C157 1.350 . S
N155 S153 1.610 . S
N155 C156 1.351 . S
C156 C150 1.428 . S
C156 N155 1.351 . S
C156 C157 1.434 . S
C157 C148 1.429 . S
C157 N154 1.350 . S
C157 C156 1.434 . S
C158 C159 1.369 . S
C158 C160 1.419 . S
C158 H162 0.930 . S
C159 C158 1.369 . S
C159 C168 1.429 . S
C160 C158 1.419 . S
C160 C161 1.363 . S
C160 H163 0.929 . S
C161 C160 1.363 . S
C161 C167 1.428 . S
H162 C158 0.930 . S
H163 C160 0.929 . S
S164 N165 1.613 1_655 S
S164 N166 1.610 . S
N165 S164 1.613 1_455 S
N165 C168 1.350 . S
N166 S164 1.610 . S
N166 C167 1.351 1_655 S
C167 C161 1.428 . S
C167 N166 1.351 1_455 S
C167 C168 1.434 . S
C168 C159 1.429 . S
C168 N165 1.350 . S
C168 C167 1.434 . S
C169 C170 1.369 . S
C169 C171 1.419 . S
C169 H173 0.930 . S
C170 C169 1.369 . S
C170 C179 1.429 . S
C171 C169 1.419 . S
C171 C172 1.363 . S
C171 H174 0.929 . S
C172 C171 1.363 . S
C172 C178 1.428 . S
H173 C169 0.930 . S
H174 C171 0.929 . S
S175 N176 1.613 . S
S175 N177 1.610 . S
N176 S175 1.613 . S
N176 C179 1.350 . S
N177 S175 1.610 . S
N177 C178 1.351 . S
C178 C172 1.428 . S
C178 N177 1.351 . S
C178 C179 1.434 . S
C179 C170 1.429 . S
C179 N176 1.350 . S
C179 C178 1.434 . S
C180 C181 1.369 . S
C180 C182 1.419 . S
C180 H184 0.930 . S
C181 C180 1.369 . S
C181 C190 1.429 . S
C182 C180 1.419 . S
C182 C183 1.363 . S
C182 H185 0.929 . S
C183 C182 1.363 . S
C183 C189 1.428 . S
H184 C180 0.930 . S
H185 C182 0.929 . S
S186 N187 1.613 1_455 S
S186 N188 1.610 . S
N187 S186 1.613 1_655 S
N187 C190 1.350 . S
N188 S186 1.610 . S
N188 C189 1.351 1_455 S
C189 C183 1.428 . S
C189 N188 1.351 1_655 S
C189 C190 1.434 . S
C190 C181 1.429 . S
C190 N187 1.350 . S
C190 C189 1.434 . S
C191 C192 1.369 . S
C191 C193 1.419 . S
C191 H195 0.930 . S
C192 C191 1.369 . S
C192 C201 1.429 . S
C193 C191 1.419 . S
C193 C194 1.363 . S
C193 H196 0.929 . S
C194 C193 1.363 . S
C194 C200 1.428 . S
H195 C191 0.930 . S
H196 C193 0.929 . S
S197 N198 1.613 . S
S197 N199 1.610 . S
N198 S197 1.613 . S
N198 C201 1.350 . S
N199 S197 1.610 . S
N199 C200 1.351 . S
C200 C194 1.428 . S
C200 N199 1.351 . S
C200 C201 1.434 . S
C201 C192 1.429 . S
C201 N198 1.350 . S
C201 C200 1.434 . S
C202 C203 1.369 . S
C202 C204 1.419 . S
C202 H206 0.930 . S
C203 C202 1.369 . S
C203 C212 1.429 . S
C204 C202 1.419 . S
C204 C205 1.363 . S
C204 H207 0.929 . S
C205 C204 1.363 . S
C205 C211 1.428 . S
H206 C202 0.930 . S
H207 C204 0.929 . S
S208 N209 1.613 . S
S208 N210 1.610 . S
N209 S208 1.613 . S
N209 C212 1.350 . S
N210 S208 1.610 . S
N210 C211 1.351 . S
C211 C205 1.428 . S
C211 N210 1.351 . S
C211 C212 1.434 . S
C212 C203 1.429 . S
C212 N209 1.350 . S
C212 C211 1.434 . S
C213 C214 1.369 . S
C213 C215 1.419 1_554 S
C213 H217 0.930 . S
C214 C213 1.369 . S
C214 C223 1.429 . S
C215 C213 1.419 1_556 S
C215 C216 1.363 . S
C215 H218 0.929 . S
C216 C215 1.363 . S
C216 C222 1.428 . S
H217 C213 0.930 . S
H218 C215 0.929 . S
S219 N220 1.613 1_556 S
S219 N221 1.610 . S
N220 S219 1.613 1_554 S
N220 C223 1.350 . S
N221 S219 1.610 . S
N221 C222 1.351 . S
C222 C216 1.428 . S
C222 N221 1.351 . S
C222 C223 1.434 1_556 S
C223 C214 1.429 . S
C223 N220 1.350 . S
C223 C222 1.434 1_554 S
C224 C225 1.369 1_554 S
C224 C226 1.419 . S
C224 H228 0.930 . S
C225 C224 1.369 1_556 S
C225 C234 1.429 1_565 S
C226 C224 1.419 . S
C226 C227 1.363 1_565 S
C226 H229 0.929 . S
C227 C226 1.363 1_545 S
C227 C233 1.428 1_554 S
H228 C224 0.930 . S
H229 C226 0.929 . S
S230 N231 1.613 . S
S230 N232 1.610 . S
N231 S230 1.613 . S
N231 C234 1.350 . S
N232 S230 1.610 . S
N232 C233 1.351 . S
C233 C227 1.428 1_556 S
C233 N232 1.351 . S
C233 C234 1.434 . S
C234 C225 1.429 1_545 S
C234 N231 1.350 . S
C234 C233 1.434 . S
C235 C236 1.369 . S
C235 C237 1.419 1_556 S
C235 H239 0.930 . S
C236 C235 1.369 . S
C236 C245 1.429 1_455 S
C237 C235 1.419 1_554 S
C237 C238 1.363 1_455 S
C237 H240 0.929 . S
C238 C237 1.363 1_655 S
C238 C244 1.428 . S
H239 C235 0.930 . S
H240 C237 0.929 . S
S241 N242 1.613 1_554 S
S241 N243 1.610 . S
N242 S241 1.613 1_556 S
N242 C245 1.350 . S
N243 S241 1.610 . S
N243 C244 1.351 . S
C244 C238 1.428 . S
C244 N243 1.351 . S
C244 C245 1.434 1_554 S
C245 C236 1.429 1_655 S
C245 N242 1.350 . S
C245 C244 1.434 1_556 S
C115 C27 1.457 1_565 S
C117 C6 1.476 . S
C126 C44 1.458 . S
C128 C65 1.471 . S
C137 C82 1.463 . S
C139 C103 1.467 . S
C148 C105 2.234 . S
C150 C8 2.225 . S
C159 C94 1.494 . S
C161 C14 1.496 . S
C170 C77 1.779 . S
C172 C30 1.775 . S
C181 C46 2.234 . S
C183 C29 2.226 . S
C192 C52 1.500 . S
C194 C18 1.496 . S
C203 C68 1.777 . S
C205 C1 1.778 . S
C214 C67 2.224 . S
C216 C84 2.232 . S
C225 C90 1.492 . S
C227 C56 1.500 . S
C236 C106 1.779 . S
C238 C39 1.775 . S
