# Generated by pormake.
# Topology snp, (6)-cn, num edge types: 1
# Building blocks:
#     Node 0, Type 0, BuildingBlock: UKALOJ_clean_sbu_0, # of connection points: 6
#     Node 1, Type 0, BuildingBlock: UKALOJ_clean_sbu_0, # of connection points: 6
#     Node 2, Type 0, BuildingBlock: UKALOJ_clean_sbu_0, # of connection points: 6
#     Node 3, Type 0, BuildingBlock: UKALOJ_clean_sbu_0, # of connection points: 6
#     Edge 4, Type (0, 0), BuildingBlock: EYOCIG_clean_linker_4, # of connection points: 2
#     Edge 5, Type (0, 0), BuildingBlock: EYOCIG_clean_linker_4, # of connection points: 2
#     Edge 6, Type (0, 0), BuildingBlock: EYOCIG_clean_linker_4, # of connection points: 2
#     Edge 7, Type (0, 0), BuildingBlock: EYOCIG_clean_linker_4, # of connection points: 2
#     Edge 8, Type (0, 0), BuildingBlock: EYOCIG_clean_linker_4, # of connection points: 2
#     Edge 9, Type (0, 0), BuildingBlock: EYOCIG_clean_linker_4, # of connection points: 2
#     Edge 10, Type (0, 0), BuildingBlock: EYOCIG_clean_linker_4, # of connection points: 2
#     Edge 11, Type (0, 0), BuildingBlock: EYOCIG_clean_linker_4, # of connection points: 2
#     Edge 12, Type (0, 0), BuildingBlock: EYOCIG_clean_linker_4, # of connection points: 2
#     Edge 13, Type (0, 0), BuildingBlock: EYOCIG_clean_linker_4, # of connection points: 2
#     Edge 14, Type (0, 0), BuildingBlock: EYOCIG_clean_linker_4, # of connection points: 2
#     Edge 15, Type (0, 0), BuildingBlock: EYOCIG_clean_linker_4, # of connection points: 2
# Relax obj value: 0.992
# Max RMSD: 0.250
# Mean RMSD: 0.248
data_MOF--net-snp--node1-UKALOJ_clean_sbu_0--edge1-EYOCIG_clean_linker_4
_symmetry_space_group_name_H-M    P1
_symmetry_Int_Tables_number       1
_symmetry_cell_setting            triclinic
loop_
_symmetry_equiv_pos_as_xyz
'x, y, z'
_cell_length_a     26.765995
_cell_length_b     26.771636
_cell_length_c     16.982688
_cell_angle_alpha  96.37344
_cell_angle_beta   96.397849
_cell_angle_gamma 88.61604
loop_
_atom_site_label
_atom_site_type_symbol
_atom_site_fract_x
_atom_site_fract_y
_atom_site_fract_z
_atom_type_partial_charge
Zn0 Zn 0.29022 0.06628 0.10195 0.0
O1 O 0.26383 1.01569 0.99554 0.0
C2 C 0.27393 0.15385 1.00911 0.0
Zn3 Zn 0.21167 0.09797 0.10643 0.0
C4 C 0.21741 1.01646 0.96763 0.0
O5 O 0.18733 0.04735 1.00144 0.0
C6 C 0.28091 0.14723 0.23662 0.0
O7 O 0.19115 0.04528 0.18015 0.0
O8 O 0.26655 1.01039 0.17778 0.0
N9 N 0.14431 0.13614 0.10568 0.0
C10 C 0.09965 0.11539 0.08145 0.0
C11 C 0.09828 0.18589 0.03635 0.0
N12 N 0.14225 0.1817 0.0821 0.0
N13 N 0.07206 0.14313 0.03043 0.0
C14 C 0.40227 0.0415 0.06165 0.0
C15 C 0.4337 1.00948 0.16566 0.0
N16 N 0.36413 0.03719 0.10675 0.0
N17 N 0.38403 1.01689 0.17101 0.0
N18 N 0.44617 1.02488 0.09779 0.0
H19 H 0.35925 0.05509 0.95128 0.0
H20 H 0.42632 0.0473 0.9462 0.0
H21 H 0.40214 0.10442 0.99462 0.0
C22 C 0.39704 0.06314 0.98358 0.0
C23 C 0.08627 0.06372 0.0974 0.0
H24 H 0.11222 0.03564 0.07095 0.0
H25 H 0.04689 0.05473 0.07311 0.0
H26 H 0.09061 0.06158 0.16269 0.0
O27 O 0.23581 0.14581 0.20556 0.0
O28 O 0.31359 0.11754 0.20737 0.0
C29 C 0.22239 1.01133 0.20053 0.0
O30 O 0.30911 0.12323 0.02804 0.0
O31 O 0.23161 0.14983 0.03338 0.0
Zn32 Zn 0.09268 0.26196 0.60453 0.0
O33 O 0.15195 0.27521 0.53149 0.0
C34 C 0.04623 0.18407 0.46949 0.0
Zn35 Zn 0.12472 0.18379 0.60612 0.0
C36 C 0.18302 0.24033 0.51251 0.0
O37 O 0.17925 0.19727 0.53501 0.0
C38 C 0.03395 0.19989 0.69992 0.0
O39 O 0.17166 0.21307 0.70333 0.0
O40 O 0.14114 0.28974 0.71182 0.0
N41 N 0.15676 0.11539 0.62227 0.0
C42 C 0.16376 0.09454 0.69131 0.0
C43 C 0.15918 0.03538 0.59897 0.0
N44 N 0.15673 0.07834 0.56422 0.0
N45 N 0.159 0.04439 0.67884 0.0
C46 C 0.08739 0.3789 0.59046 0.0
C47 C 1.00877 0.39483 0.58053 0.0
N48 N 0.06396 0.33492 0.59379 0.0
N49 N 1.01507 0.3452 0.58776 0.0
N50 N 0.05361 0.41677 0.58201 0.0
H51 H 0.16356 0.35729 0.62969 0.0
H52 H 0.15437 0.42344 0.61859 0.0
H53 H 0.15398 0.37826 0.53203 0.0
C54 C 0.14311 0.38478 0.59355 0.0
C55 C 0.16687 0.1228 0.77359 0.0
H56 H 0.2021 0.14462 0.78483 0.0
H57 H 0.16798 0.09647 0.81995 0.0
H58 H 0.1346 0.14887 0.78028 0.0
O59 O 0.06757 0.16864 0.67857 0.0
O60 O 0.03384 0.24426 0.67855 0.0
C61 C 0.17223 0.25717 0.73788 0.0
O62 O 0.04469 0.23061 0.49672 0.0
O63 O 0.07698 0.15447 0.50424 0.0
Zn64 Zn 0.91956 0.97782 1.01115 0.0
O65 O 0.89039 0.93076 0.91411 0.0
C66 C 0.90271 0.06806 0.91649 0.0
Zn67 Zn 0.84114 1.00943 1.01306 0.0
C68 C 0.84605 0.92942 0.88038 0.0
O69 O 0.81318 0.95995 0.90698 0.0
C70 C 0.91913 0.0567 0.14722 0.0
O71 O 0.82873 0.95073 0.08748 0.0
O72 O 0.90652 0.92322 0.08245 0.0
N73 N 0.76798 0.03819 0.023 0.0
C74 C 0.72437 1.01532 0.03077 0.0
C75 C 0.70732 0.0932 0.02773 0.0
N76 N 0.75697 0.08661 1.02093 0.0
N77 N 0.68604 0.04901 0.03403 0.0
C78 C 1.00894 0.93969 0.92577 0.0
C79 C 0.06817 0.94473 1.018 0.0
N80 N 0.98812 0.94617 0.99485 0.0
N81 N 1.02527 0.94648 0.05283 0.0
N82 N 0.05902 0.94517 0.93819 0.0
H83 H 0.95906 0.90086 0.83246 0.0
H84 H 1.00688 0.93537 0.79715 0.0
H85 H 0.95422 0.96828 0.83671 0.0
C86 C 0.98059 0.93627 0.84352 0.0
C87 C 0.71929 0.96021 0.03586 0.0
H88 H 0.74422 0.93813 0.99681 0.0
H89 H 0.67984 0.94811 1.01881 0.0
H90 H 0.73036 0.95241 0.09829 0.0
O91 O 0.87258 0.05822 0.11989 0.0
O92 O 0.94871 1.02576 0.11288 0.0
C93 C 0.8637 0.91961 0.1059 0.0
O94 O 0.93433 0.03495 0.93856 0.0
O95 O 0.85829 0.06773 0.93755 0.0
Zn96 Zn 1.00568 0.89087 0.51269 0.0
O97 O 0.05833 0.91158 0.43902 0.0
C98 C 0.95681 0.82158 0.38232 0.0
Zn99 Zn 0.03776 0.81249 0.51717 0.0
C100 C 0.09246 0.88055 0.41874 0.0
O101 O 0.09364 0.8364 0.44155 0.0
C102 C 0.95 0.82834 0.60984 0.0
O103 O 0.08818 0.83899 0.62375 0.0
O104 O 0.0562 0.91534 0.61774 0.0
N105 N 0.06715 0.73875 0.5124 0.0
C106 C 0.06286 0.70054 0.55736 0.0
C107 C 0.09508 0.66934 0.45346 0.0
N108 N 0.08759 0.71899 0.44822 0.0
N109 N 0.0796 0.65674 0.5212 0.0
C110 C 0.98822 1.00275 0.53758 0.0
C111 C 0.91806 1.004 0.58374 0.0
N112 N 0.96736 0.95814 0.5134 0.0
N113 N 0.92198 0.96015 0.53764 0.0
N114 N 0.96082 1.03018 0.58921 0.0
H115 H 0.06804 0.9904 0.54774 0.0
H116 H 0.04872 0.0556 0.54496 0.0
H117 H 0.04176 1.01158 0.45577 0.0
C118 C 0.03979 1.01615 0.5211 0.0
C119 C 0.0411 0.70559 0.63531 0.0
H120 H 0.049 0.74337 0.66773 0.0
H121 H 0.05699 0.67632 0.67268 0.0
H122 H 0.99983 0.70035 0.6241 0.0
O123 O 0.98078 0.79332 0.59089 0.0
O124 O 0.95386 0.87071 0.58564 0.0
C125 C 0.08719 0.88538 0.65166 0.0
O126 O 0.95796 0.86663 0.41351 0.0
O127 O 0.98667 0.78902 0.41156 0.0
C128 C 0.07131 1.03097 0.89365 0.0
C129 C 0.07436 0.98815 0.90853 0.0
C130 C 0.05851 0.08205 0.90675 0.0
C131 C 0.05835 0.1183 0.95482 0.0
C132 C 1.02266 0.0434 0.71208 0.0
C133 C 0.98612 0.04365 0.66457 0.0
C134 C 0.07385 1.03082 0.72456 0.0
C135 C 0.11654 1.02828 0.709 0.0
C136 C 0.59079 0.0361 0.05127 0.0
C137 C 0.63493 0.04142 0.04333 0.0
C138 C 0.5391 1.03147 0.06328 0.0
C139 C 0.49573 1.0289 0.07762 0.0
C140 C 0.06756 0.51207 0.56664 0.0
C141 C 0.06179 0.46791 0.57383 0.0
C142 C 0.07261 0.56376 0.55512 0.0
C143 C 0.07537 0.60714 0.54102 0.0
C144 C 0.25385 0.23739 0.41872 0.0
C145 C 0.22074 0.24671 0.46094 0.0
C146 C 0.28248 0.2114 0.36193 0.0
C147 C 0.29196 0.18118 0.30743 0.0
C148 C 0.96849 0.16257 0.78562 0.0
C149 C 0.99625 0.18323 0.74708 0.0
C150 C 0.9395 0.13349 0.83021 0.0
C151 C 0.91902 0.10572 0.86894 0.0
C152 C 0.89293 0.82007 0.25668 0.0
C153 C 0.92305 0.81051 0.31129 0.0
C154 C 0.86704 0.84882 0.19995 0.0
C155 C 0.85768 0.88195 0.15775 0.0
C156 C 0.14863 0.92571 0.77705 0.0
C157 C 0.12179 0.90497 0.72042 0.0
C158 C 0.17734 0.95466 0.84251 0.0
C159 C 0.19793 0.98169 0.89903 0.0
C160 C 0.84909 0.86347 0.75774 0.0
C161 C 0.83702 0.8945 0.80978 0.0
C162 C 0.87913 0.83551 0.70425 0.0
C163 C 0.9122 0.82359 0.6625 0.0
C164 C 0.18588 0.94624 0.28705 0.0
C165 C 0.20607 0.97387 0.24798 0.0
C166 C 0.15731 0.91746 0.33224 0.0
C167 C 0.12982 0.89708 0.3713 0.0
C168 C 0.23797 0.2544 0.86098 0.0
C169 C 0.20685 0.26622 0.80885 0.0
C170 C 0.26622 0.22462 0.91454 0.0
C171 C 0.27842 0.19164 0.95635 0.0
C172 C 0.9602 0.11532 0.27451 0.0
C173 C 0.93918 0.08976 0.217 0.0
C174 C 0.98788 0.14302 0.34186 0.0
C175 C 1.01333 0.16402 0.3995 0.0
loop_
_geom_bond_atom_site_label_1
_geom_bond_atom_site_label_2
_geom_bond_distance
_geom_bond_site_symmetry_2
_ccdc_geom_bond_type
Zn0 O1 2.055 1_544 S
Zn0 O8 2.046 1_545 S
Zn0 N16 2.036 . S
Zn0 O28 2.053 . S
Zn0 O30 2.066 . S
O1 Zn0 2.055 1_566 S
O1 C4 1.259 . S
C2 O30 1.256 1_556 S
C2 O31 1.244 . S
Zn3 O5 2.046 1_544 S
Zn3 O7 2.055 1_545 S
Zn3 N9 2.036 . S
Zn3 O27 2.066 . S
Zn3 O31 2.053 1_554 S
C4 O1 1.259 . S
C4 O5 1.254 . S
O5 Zn3 2.046 1_566 S
O5 C4 1.254 . S
C6 O27 1.256 . S
C6 O28 1.244 . S
O7 Zn3 2.055 1_565 S
O7 C29 1.259 . S
O8 Zn0 2.046 1_565 S
O8 C29 1.254 . S
N9 Zn3 2.036 . S
N9 C10 1.298 . S
N9 N12 1.398 1_554 S
C10 N9 1.298 . S
C10 N13 1.367 . S
C10 C23 1.481 1_545 S
C11 N12 1.299 . S
C11 N13 1.379 1_556 S
N12 N9 1.398 1_556 S
N12 C11 1.299 . S
N13 C10 1.367 . S
N13 C11 1.379 1_554 S
C14 N16 1.298 . S
C14 N18 1.367 . S
C14 C22 1.481 1_544 S
C15 N17 1.299 . S
C15 N18 1.379 . S
N16 Zn0 2.036 . S
N16 C14 1.298 . S
N16 N17 1.398 . S
N17 C15 1.299 . S
N17 N16 1.398 . S
N18 C14 1.367 . S
N18 C15 1.379 . S
H19 C22 0.980 . S
H20 C22 0.981 . S
H21 C22 0.981 1_545 S
C22 C14 1.481 1_566 S
C22 H19 0.980 . S
C22 H20 0.981 . S
C22 H21 0.981 1_565 S
C23 C10 1.481 1_565 S
C23 H24 0.980 . S
C23 H25 0.981 . S
C23 H26 0.981 1_565 S
H24 C23 0.980 . S
H25 C23 0.981 . S
H26 C23 0.981 1_545 S
O27 Zn3 2.066 . S
O27 C6 1.256 . S
O28 Zn0 2.053 . S
O28 C6 1.244 . S
C29 O7 1.259 . S
C29 O8 1.254 . S
O30 Zn0 2.066 . S
O30 C2 1.256 1_554 S
O31 C2 1.244 . S
O31 Zn3 2.053 1_556 S
Zn32 O33 2.055 . S
Zn32 O40 2.046 . S
Zn32 N48 2.036 . S
Zn32 O60 2.053 1_455 S
Zn32 O62 2.066 1_455 S
O33 Zn32 2.055 . S
O33 C36 1.259 . S
C34 O62 1.256 . S
C34 O63 1.244 . S
Zn35 O37 2.046 . S
Zn35 O39 2.055 . S
Zn35 N41 2.036 . S
Zn35 O59 2.066 1_455 S
Zn35 O63 2.053 1_455 S
C36 O33 1.259 . S
C36 O37 1.254 . S
O37 Zn35 2.046 . S
O37 C36 1.254 . S
C38 O59 1.256 . S
C38 O60 1.244 . S
O39 Zn35 2.055 . S
O39 C61 1.259 . S
O40 Zn32 2.046 . S
O40 C61 1.254 . S
N41 Zn35 2.036 . S
N41 C42 1.298 . S
N41 N44 1.398 . S
C42 N41 1.298 . S
C42 N45 1.367 . S
C42 C55 1.481 . S
C43 N44 1.299 . S
C43 N45 1.379 . S
N44 N41 1.398 . S
N44 C43 1.299 . S
N45 C42 1.367 . S
N45 C43 1.379 . S
C46 N48 1.298 . S
C46 N50 1.367 . S
C46 C54 1.481 . S
C47 N49 1.299 . S
C47 N50 1.379 . S
N48 Zn32 2.036 . S
N48 C46 1.298 . S
N48 N49 1.398 . S
N49 C47 1.299 . S
N49 N48 1.398 . S
N50 C46 1.367 . S
N50 C47 1.379 . S
H51 C54 0.980 . S
H52 C54 0.981 . S
H53 C54 0.981 . S
C54 C46 1.481 . S
C54 H51 0.980 . S
C54 H52 0.981 . S
C54 H53 0.981 . S
C55 C42 1.481 . S
C55 H56 0.980 . S
C55 H57 0.981 . S
C55 H58 0.981 . S
H56 C55 0.980 . S
H57 C55 0.981 . S
H58 C55 0.981 . S
O59 Zn35 2.066 1_655 S
O59 C38 1.256 . S
O60 Zn32 2.053 1_655 S
O60 C38 1.244 . S
C61 O39 1.259 . S
C61 O40 1.254 . S
O62 Zn32 2.066 1_655 S
O62 C34 1.256 . S
O63 C34 1.244 . S
O63 Zn35 2.053 1_655 S
Zn64 O65 2.055 1_554 S
Zn64 O72 2.046 . S
Zn64 N80 2.036 1_565 S
Zn64 O92 2.053 1_565 S
Zn64 O94 2.066 1_564 S
O65 Zn64 2.055 1_556 S
O65 C68 1.259 . S
C66 O94 1.256 . S
C66 O95 1.244 . S
Zn67 O69 2.046 . S
Zn67 O71 2.055 1_556 S
Zn67 N73 2.036 1_565 S
Zn67 O91 2.066 1_566 S
Zn67 O95 2.053 1_565 S
C68 O65 1.259 . S
C68 O69 1.254 . S
O69 Zn67 2.046 . S
O69 C68 1.254 . S
C70 O91 1.256 . S
C70 O92 1.244 . S
O71 Zn67 2.055 1_554 S
O71 C93 1.259 . S
O72 Zn64 2.046 . S
O72 C93 1.254 . S
N73 Zn67 2.036 1_545 S
N73 C74 1.296 1_546 S
N73 N76 1.398 . S
C74 N73 1.296 1_564 S
C74 N77 1.361 1_564 S
C74 C87 1.487 . S
C75 N76 1.299 . S
C75 N77 1.380 . S
N76 N73 1.398 . S
N76 C75 1.299 . S
N77 C74 1.361 1_546 S
N77 C75 1.380 . S
C78 N80 1.298 1_556 S
C78 N82 1.367 1_656 S
C78 C86 1.481 1_545 S
C79 N81 1.299 1_455 S
C79 N82 1.379 . S
N80 Zn64 2.036 1_545 S
N80 C78 1.298 1_554 S
N80 N81 1.398 . S
N81 C79 1.299 1_655 S
N81 N80 1.398 . S
N82 C78 1.367 1_454 S
N82 C79 1.379 . S
H83 C86 0.980 . S
H84 C86 0.981 1_455 S
H85 C86 0.981 1_545 S
C86 C78 1.481 1_565 S
C86 H83 0.980 . S
C86 H84 0.981 1_655 S
C86 H85 0.981 1_565 S
C87 C74 1.487 . S
C87 H88 0.980 . S
C87 H89 0.981 . S
C87 H90 0.981 1_565 S
H88 C87 0.980 . S
H89 C87 0.981 . S
H90 C87 0.981 1_545 S
O91 Zn67 2.066 1_544 S
O91 C70 1.256 . S
O92 Zn64 2.053 1_545 S
O92 C70 1.244 . S
C93 O71 1.259 . S
C93 O72 1.254 . S
O94 Zn64 2.066 1_546 S
O94 C66 1.256 . S
O95 C66 1.244 . S
O95 Zn67 2.053 1_545 S
Zn96 O97 2.055 . S
Zn96 O104 2.046 . S
Zn96 N112 2.036 . S
Zn96 O124 2.053 1_455 S
Zn96 O126 2.066 1_455 S
O97 Zn96 2.055 . S
O97 C100 1.259 . S
C98 O126 1.256 . S
C98 O127 1.244 . S
Zn99 O101 2.046 . S
Zn99 O103 2.055 . S
Zn99 N105 2.036 . S
Zn99 O123 2.066 1_455 S
Zn99 O127 2.053 1_455 S
C100 O97 1.259 . S
C100 O101 1.254 . S
O101 Zn99 2.046 . S
O101 C100 1.254 . S
C102 O123 1.256 . S
C102 O124 1.244 . S
O103 Zn99 2.055 . S
O103 C125 1.259 . S
O104 Zn96 2.046 . S
O104 C125 1.254 . S
N105 Zn99 2.036 . S
N105 C106 1.298 . S
N105 N108 1.398 . S
C106 N105 1.298 . S
C106 N109 1.367 . S
C106 C119 1.481 . S
C107 N108 1.299 . S
C107 N109 1.379 . S
N108 N105 1.398 . S
N108 C107 1.299 . S
N109 C106 1.367 . S
N109 C107 1.379 . S
C110 N112 1.298 . S
C110 N114 1.367 1_565 S
C110 C118 1.481 . S
C111 N113 1.301 . S
C111 N114 1.382 1_565 S
N112 Zn96 2.036 . S
N112 C110 1.298 . S
N112 N113 1.398 . S
N113 C111 1.301 . S
N113 N112 1.398 . S
N114 C110 1.367 1_545 S
N114 C111 1.382 1_545 S
H115 C118 0.980 . S
H116 C118 0.981 . S
H117 C118 0.981 . S
C118 C110 1.481 . S
C118 H115 0.980 . S
C118 H116 0.981 . S
C118 H117 0.981 . S
C119 C106 1.481 . S
C119 H120 0.980 . S
C119 H121 0.981 . S
C119 H122 0.981 . S
H120 C119 0.980 . S
H121 C119 0.981 . S
H122 C119 0.981 . S
O123 Zn99 2.066 1_655 S
O123 C102 1.256 . S
O124 Zn96 2.053 1_655 S
O124 C102 1.244 . S
C125 O103 1.259 . S
C125 O104 1.254 . S
O126 Zn96 2.066 1_655 S
O126 C98 1.256 . S
O127 C98 1.244 . S
O127 Zn99 2.053 1_655 S
C128 C129 1.170 1_554 S
C128 C130 1.380 . S
C129 C128 1.170 1_556 S
C130 C128 1.380 . S
C130 C131 1.170 1_455 S
C131 C130 1.170 1_655 S
C132 C133 1.170 . S
C132 C134 1.380 1_545 S
C133 C132 1.170 . S
C134 C132 1.380 1_565 S
C134 C135 1.170 . S
C135 C134 1.170 . S
C136 C137 1.170 . S
C136 C138 1.380 . S
C137 C136 1.170 . S
C138 C136 1.380 . S
C138 C139 1.170 . S
C139 C138 1.170 . S
C140 C141 1.170 . S
C140 C142 1.380 . S
C141 C140 1.170 . S
C142 C140 1.380 . S
C142 C143 1.170 . S
C143 C142 1.170 . S
C144 C145 1.170 . S
C144 C146 1.380 . S
C145 C144 1.170 . S
C146 C144 1.380 . S
C146 C147 1.170 . S
C147 C146 1.170 . S
C148 C149 1.170 . S
C148 C150 1.380 . S
C149 C148 1.170 . S
C150 C148 1.380 . S
C150 C151 1.170 . S
C151 C150 1.170 . S
C152 C153 1.170 . S
C152 C154 1.380 . S
C153 C152 1.170 . S
C154 C152 1.380 . S
C154 C155 1.170 . S
C155 C154 1.170 . S
C156 C157 1.170 . S
C156 C158 1.380 . S
C157 C156 1.170 . S
C158 C156 1.380 . S
C158 C159 1.170 . S
C159 C158 1.170 . S
C160 C161 1.170 . S
C160 C162 1.380 . S
C161 C160 1.170 . S
C162 C160 1.380 . S
C162 C163 1.170 . S
C163 C162 1.170 . S
C164 C165 1.170 . S
C164 C166 1.380 . S
C165 C164 1.170 . S
C166 C164 1.380 . S
C166 C167 1.170 . S
C167 C166 1.170 . S
C168 C169 1.170 . S
C168 C170 1.380 . S
C169 C168 1.170 . S
C170 C168 1.380 . S
C170 C171 1.170 . S
C171 C170 1.170 . S
C172 C173 1.170 . S
C172 C174 1.380 . S
C173 C172 1.170 . S
C174 C172 1.380 . S
C174 C175 1.170 . S
C175 C174 1.170 . S
C129 N82 1.708 1_556 S
C131 N13 1.697 1_655 S
C133 N114 1.698 . S
C135 N45 1.708 1_565 S
C137 N77 1.192 1_554 S
C139 N18 1.185 . S
C141 N50 1.196 . S
C143 N109 1.182 . S
C145 C36 1.902 . S
C147 C6 1.874 . S
C149 C38 2.180 . S
C151 C66 2.199 . S
C153 C98 1.891 . S
C155 C93 1.874 . S
C157 C125 1.634 . S
C159 C4 1.605 . S
C161 C68 1.989 . S
C163 C102 2.021 . S
C165 C29 2.110 . S
C167 C100 2.105 . S
C169 C61 1.991 . S
C171 C2 2.005 . S
C173 C70 1.919 . S
C175 C34 1.915 . S
