# Generated by pormake.
# Topology vmh, (6)-cn, num edge types: 1
# Building blocks:
#     Node 0, Type 0, BuildingBlock: IZENUY_clean_sbu_0, # of connection points: 6
#     Node 1, Type 0, BuildingBlock: IZENUY_clean_sbu_0, # of connection points: 6
#     Node 2, Type 0, BuildingBlock: IZENUY_clean_sbu_0, # of connection points: 6
#     Node 3, Type 0, BuildingBlock: IZENUY_clean_sbu_0, # of connection points: 6
#     Node 4, Type 0, BuildingBlock: IZENUY_clean_sbu_0, # of connection points: 6
#     Node 5, Type 0, BuildingBlock: IZENUY_clean_sbu_0, # of connection points: 6
#     Node 6, Type 0, BuildingBlock: IZENUY_clean_sbu_0, # of connection points: 6
#     Node 7, Type 0, BuildingBlock: IZENUY_clean_sbu_0, # of connection points: 6
#     Edge 8, Type (0, 0), None
#     Edge 9, Type (0, 0), None
#     Edge 10, Type (0, 0), None
#     Edge 11, Type (0, 0), None
#     Edge 12, Type (0, 0), None
#     Edge 13, Type (0, 0), None
#     Edge 14, Type (0, 0), None
#     Edge 15, Type (0, 0), None
#     Edge 16, Type (0, 0), None
#     Edge 17, Type (0, 0), None
#     Edge 18, Type (0, 0), None
#     Edge 19, Type (0, 0), None
#     Edge 20, Type (0, 0), None
#     Edge 21, Type (0, 0), None
#     Edge 22, Type (0, 0), None
#     Edge 23, Type (0, 0), None
#     Edge 24, Type (0, 0), None
#     Edge 25, Type (0, 0), None
#     Edge 26, Type (0, 0), None
#     Edge 27, Type (0, 0), None
#     Edge 28, Type (0, 0), None
#     Edge 29, Type (0, 0), None
#     Edge 30, Type (0, 0), None
#     Edge 31, Type (0, 0), None
# Relax obj value: 0.245
# Max RMSD: 0.263
# Mean RMSD: 0.263
data_MOF--net-vmh--node1-IZENUY_clean_sbu_0--edge1-none
_symmetry_space_group_name_H-M    P1
_symmetry_Int_Tables_number       1
_symmetry_cell_setting            triclinic
loop_
_symmetry_equiv_pos_as_xyz
'x, y, z'
_cell_length_a     13.49835
_cell_length_b     20.6083
_cell_length_c     13.345292
_cell_angle_alpha  89.999771
_cell_angle_beta   108.91214
_cell_angle_gamma 89.999991
loop_
_atom_site_label
_atom_site_type_symbol
_atom_site_fract_x
_atom_site_fract_y
_atom_site_fract_z
_atom_type_partial_charge
Fe0 Fe 0.25054 0.12878 0.16199 0.0
Fe1 Fe 0.29016 1.00343 0.0585 0.0
O2 O 0.30648 0.08808 0.08064 0.0
Fe3 Fe 0.39176 0.13186 1.02321 0.0
O4 O 0.49611 0.13219 0.1553 0.0
O5 O 0.38893 0.15593 0.24919 0.0
O6 O 0.26033 0.06449 0.25208 0.0
C7 C 0.27159 1.00407 0.25779 0.0
C8 C 0.28928 0.23824 0.05628 0.0
O9 O 0.30781 0.97498 0.19418 0.0
C10 C 0.25952 0.06949 0.85602 0.0
O11 O 0.11461 0.09576 0.0886 0.0
O12 O 0.15038 0.99952 1.03172 0.0
O13 O 0.36869 0.21356 0.04877 0.0
O14 O 0.22294 0.20334 0.07984 0.0
C15 C 0.47935 1.02266 1.03194 0.0
O16 O 0.26294 1.02173 0.9191 0.0
O17 O 0.29103 0.12703 0.89149 0.0
C18 C 0.08709 0.03698 0.05393 0.0
O19 O 0.4311 0.99699 0.08825 0.0
O20 O 0.44146 0.06643 0.97485 0.0
C21 C 0.48354 0.1462 0.24451 0.0
Fe22 Fe 0.81492 0.12878 0.42931 0.0
Fe23 Fe 0.77529 1.00343 0.53281 0.0
O24 O 0.75898 0.08808 0.51066 0.0
Fe25 Fe 0.6737 0.13186 0.56809 0.0
O26 O 0.56934 0.13219 0.436 0.0
O27 O 0.67652 0.15593 0.34211 0.0
O28 O 0.80513 0.06449 0.33922 0.0
C29 C 0.79387 1.00407 0.33351 0.0
C30 C 0.77618 0.23824 0.53502 0.0
O31 O 0.75765 0.97498 0.39712 0.0
C32 C 0.80593 0.06949 0.73528 0.0
O33 O 0.95085 0.09576 0.5027 0.0
O34 O 0.91508 0.99952 0.55958 0.0
O35 O 0.69677 0.21356 0.54253 0.0
O36 O 0.84252 0.20334 0.51147 0.0
C37 C 0.5861 1.02266 0.55936 0.0
O38 O 0.80252 1.02174 0.6722 0.0
O39 O 0.77443 0.12703 0.69981 0.0
C40 C 0.97837 0.03698 0.53737 0.0
O41 O 0.63436 0.99699 0.50305 0.0
O42 O 0.624 0.06643 0.61646 0.0
C43 C 0.58192 0.1462 0.34679 0.0
Fe44 Fe 0.77538 0.04284 1.03285 0.0
Fe45 Fe 0.81493 0.91748 0.92936 0.0
O46 O 0.75901 0.9582 1.0107 0.0
Fe47 Fe 0.67369 0.91443 0.06811 0.0
O48 O 0.62403 0.97983 0.11659 0.0
O49 O 0.63447 0.0493 1.00323 0.0
O50 O 0.75763 0.07127 0.89714 0.0
C51 C 0.79376 0.04216 0.83349 0.0
C52 C 0.80602 0.97677 0.23526 0.0
O53 O 0.80517 0.98175 0.83926 0.0
C54 C 0.77613 0.80804 1.03506 0.0
O55 O 0.91514 0.04674 0.05951 0.0
O56 O 0.95089 0.95047 1.00272 0.0
O57 O 0.77442 0.91922 0.19985 0.0
O58 O 0.80271 0.02453 0.17224 0.0
C59 C 0.58191 0.90014 0.84681 0.0
O60 O 0.8425 0.84294 1.01154 0.0
O61 O 0.69669 0.83272 1.04248 0.0
C62 C 0.97842 1.00926 1.03733 0.0
O63 O 0.67652 0.89035 0.84216 0.0
O64 O 0.56934 0.91418 0.93601 0.0
C65 C 0.58635 0.02375 0.05976 0.0
Fe66 Fe 0.25053 0.91748 0.66195 0.0
Fe67 Fe 0.39177 0.91443 0.52319 0.0
O68 O 0.30645 0.9582 0.5806 0.0
Fe69 Fe 0.29008 0.04284 0.55846 0.0
O70 O 0.30783 0.07126 0.69416 0.0
O71 O 0.26028 0.98175 0.75204 0.0
O72 O 0.38894 0.89035 0.74915 0.0
C73 C 0.48354 0.90014 0.7445 0.0
C74 C 0.08704 1.00926 0.55397 0.0
O75 O 0.49612 0.91418 0.65529 0.0
C76 C 0.25944 0.97677 0.35604 0.0
O77 O 0.22296 0.84294 0.57977 0.0
O78 O 0.36877 0.83272 0.54883 0.0
O79 O 0.15032 0.04674 0.5318 0.0
O80 O 0.11457 0.95047 0.58858 0.0
C81 C 0.47911 0.02375 0.53155 0.0
O82 O 0.29104 0.91922 0.39145 0.0
O83 O 0.26275 0.02453 0.41906 0.0
C84 C 0.28933 0.80804 0.55624 0.0
O85 O 0.44143 0.97983 0.47471 0.0
O86 O 0.43098 0.0493 0.58807 0.0
C87 C 0.2717 0.04216 0.75782 0.0
Fe88 Fe 0.75054 0.62878 0.16199 0.0
Fe89 Fe 0.79016 0.50343 0.0585 0.0
O90 O 0.80648 0.58808 0.08064 0.0
Fe91 Fe 0.89176 0.63186 1.02321 0.0
O92 O 0.99611 0.63219 0.1553 0.0
O93 O 0.88893 0.65593 0.24919 0.0
O94 O 0.76033 0.56449 0.25208 0.0
C95 C 0.77159 0.50407 0.25779 0.0
C96 C 0.78928 0.73824 0.05628 0.0
O97 O 0.80781 0.47498 0.19418 0.0
C98 C 0.75952 0.56949 0.85602 0.0
O99 O 0.61461 0.59576 0.0886 0.0
O100 O 0.65038 0.49952 1.03172 0.0
O101 O 0.86869 0.71356 0.04877 0.0
O102 O 0.72294 0.70333 0.07983 0.0
C103 C 0.97935 0.52266 1.03194 0.0
O104 O 0.76294 0.52173 0.9191 0.0
O105 O 0.79103 0.62703 0.89149 0.0
C106 C 0.58709 0.53698 0.05393 0.0
O107 O 0.9311 0.49699 0.08825 0.0
O108 O 0.94146 0.56643 0.97485 0.0
C109 C 0.98354 0.6462 0.24451 0.0
Fe110 Fe 0.31492 0.62878 0.42931 0.0
Fe111 Fe 0.27529 0.50343 0.53281 0.0
O112 O 0.25898 0.58808 0.51066 0.0
Fe113 Fe 0.1737 0.63186 0.56809 0.0
O114 O 0.06934 0.63219 0.436 0.0
O115 O 0.17652 0.65593 0.34211 0.0
O116 O 0.30513 0.56449 0.33922 0.0
C117 C 0.29387 0.50407 0.33351 0.0
C118 C 0.27618 0.73824 0.53503 0.0
O119 O 0.25765 0.47498 0.39712 0.0
C120 C 0.30593 0.56949 0.73528 0.0
O121 O 0.45085 0.59576 0.5027 0.0
O122 O 0.41508 0.49952 0.55958 0.0
O123 O 0.19677 0.71356 0.54253 0.0
O124 O 0.34252 0.70334 0.51147 0.0
C125 C 0.0861 0.52266 0.55936 0.0
O126 O 0.30252 0.52174 0.6722 0.0
O127 O 0.27443 0.62703 0.69981 0.0
C128 C 0.47837 0.53698 0.53737 0.0
O129 O 0.13436 0.49699 0.50305 0.0
O130 O 0.124 0.56643 0.61646 0.0
C131 C 0.08192 0.6462 0.34679 0.0
Fe132 Fe 0.27538 0.54284 1.03285 0.0
Fe133 Fe 0.31493 0.41748 0.92936 0.0
O134 O 0.25901 0.4582 1.0107 0.0
Fe135 Fe 0.17369 0.41443 0.06811 0.0
O136 O 0.12403 0.47983 0.11659 0.0
O137 O 0.13447 0.5493 1.00323 0.0
O138 O 0.25763 0.57127 0.89714 0.0
C139 C 0.29376 0.54216 0.83349 0.0
C140 C 0.30602 0.47677 0.23526 0.0
O141 O 0.30517 0.48175 0.83926 0.0
C142 C 0.27613 0.30804 1.03506 0.0
O143 O 0.41514 0.54674 0.05951 0.0
O144 O 0.45089 0.45047 1.00272 0.0
O145 O 0.27442 0.41922 0.19985 0.0
O146 O 0.30271 0.52453 0.17224 0.0
C147 C 0.08191 0.40014 0.84681 0.0
O148 O 0.3425 0.34294 1.01154 0.0
O149 O 0.19669 0.33272 1.04248 0.0
C150 C 0.47842 0.50926 1.03733 0.0
O151 O 0.17652 0.39035 0.84216 0.0
O152 O 0.06934 0.41418 0.93601 0.0
C153 C 0.08635 0.52375 0.05976 0.0
Fe154 Fe 0.75053 0.41748 0.66195 0.0
Fe155 Fe 0.89177 0.41443 0.52319 0.0
O156 O 0.80645 0.4582 0.5806 0.0
Fe157 Fe 0.79008 0.54284 0.55846 0.0
O158 O 0.80783 0.57126 0.69416 0.0
O159 O 0.76028 0.48175 0.75204 0.0
O160 O 0.88894 0.39035 0.74914 0.0
C161 C 0.98354 0.40014 0.7445 0.0
C162 C 0.58704 0.50926 0.55397 0.0
O163 O 0.99612 0.41418 0.65529 0.0
C164 C 0.75944 0.47677 0.35604 0.0
O165 O 0.72296 0.34294 0.57977 0.0
O166 O 0.86877 0.33272 0.54883 0.0
O167 O 0.65032 0.54674 0.5318 0.0
O168 O 0.61457 0.45047 0.58858 0.0
C169 C 0.97911 0.52375 0.53155 0.0
O170 O 0.79104 0.41922 0.39145 0.0
O171 O 0.76275 0.52453 0.41906 0.0
C172 C 0.78933 0.30804 0.55624 0.0
O173 O 0.94143 0.47983 0.47471 0.0
O174 O 0.93098 0.5493 0.58807 0.0
C175 C 0.7717 0.54216 0.75782 0.0
loop_
_geom_bond_atom_site_label_1
_geom_bond_atom_site_label_2
_geom_bond_distance
_geom_bond_site_symmetry_2
_ccdc_geom_bond_type
Fe0 O2 1.918 . S
Fe0 O5 1.997 . S
Fe0 O6 2.002 . S
Fe0 O11 1.976 . S
Fe0 O14 1.996 . S
Fe1 O2 1.918 1_565 S
Fe1 O9 1.997 . S
Fe1 O12 1.996 1_564 S
Fe1 O16 1.976 1_564 S
Fe1 O19 2.002 . S
O2 Fe0 1.918 . S
O2 Fe1 1.918 1_545 S
O2 Fe3 1.918 1_554 S
Fe3 O2 1.918 1_556 S
Fe3 O4 2.002 1_556 S
Fe3 O13 1.976 . S
Fe3 O17 1.996 . S
Fe3 O20 1.997 . S
O4 Fe3 2.002 1_554 S
O4 C21 1.295 . S
O5 Fe0 1.997 . S
O5 C21 1.235 . S
O6 Fe0 2.002 . S
O6 C7 1.295 1_545 S
C7 O6 1.295 1_565 S
C7 O9 1.235 . S
C8 O13 1.287 1_554 S
C8 O14 1.255 . S
O9 Fe1 1.997 . S
O9 C7 1.235 . S
C10 O16 1.287 . S
C10 O17 1.255 . S
O11 Fe0 1.976 . S
O11 C18 1.287 . S
O12 Fe1 1.996 1_546 S
O12 C18 1.255 1_556 S
O13 Fe3 1.976 . S
O13 C8 1.287 1_556 S
O14 Fe0 1.996 . S
O14 C8 1.255 . S
C15 O19 1.295 . S
C15 O20 1.235 1_564 S
O16 Fe1 1.976 1_546 S
O16 C10 1.287 . S
O17 Fe3 1.996 . S
O17 C10 1.255 . S
C18 O11 1.287 . S
C18 O12 1.255 1_554 S
O19 Fe1 2.002 . S
O19 C15 1.295 . S
O20 Fe3 1.997 . S
O20 C15 1.235 1_546 S
C21 O4 1.295 . S
C21 O5 1.235 . S
Fe22 O24 1.918 . S
Fe22 O27 1.997 . S
Fe22 O28 2.002 . S
Fe22 O33 1.976 . S
Fe22 O36 1.996 . S
Fe23 O24 1.918 1_565 S
Fe23 O31 1.997 . S
Fe23 O34 1.996 1_565 S
Fe23 O38 1.976 1_565 S
Fe23 O41 2.002 . S
O24 Fe22 1.918 . S
O24 Fe23 1.918 1_545 S
O24 Fe25 1.918 . S
Fe25 O24 1.918 . S
Fe25 O26 2.002 . S
Fe25 O35 1.976 . S
Fe25 O39 1.996 . S
Fe25 O42 1.997 . S
O26 Fe25 2.002 . S
O26 C43 1.295 . S
O27 Fe22 1.997 . S
O27 C43 1.235 . S
O28 Fe22 2.002 . S
O28 C29 1.295 1_545 S
C29 O28 1.295 1_565 S
C29 O31 1.235 . S
C30 O35 1.287 . S
C30 O36 1.255 . S
O31 Fe23 1.997 . S
O31 C29 1.235 . S
C32 O38 1.287 . S
C32 O39 1.255 . S
O33 Fe22 1.976 . S
O33 C40 1.287 . S
O34 Fe23 1.996 1_545 S
O34 C40 1.255 . S
O35 Fe25 1.976 . S
O35 C30 1.287 . S
O36 Fe22 1.996 . S
O36 C30 1.255 . S
C37 O41 1.295 . S
C37 O42 1.235 1_565 S
O38 Fe23 1.976 1_545 S
O38 C32 1.287 . S
O39 Fe25 1.996 . S
O39 C32 1.255 . S
C40 O33 1.287 . S
C40 O34 1.255 . S
O41 Fe23 2.002 . S
O41 C37 1.295 . S
O42 Fe25 1.997 . S
O42 C37 1.235 1_545 S
C43 O26 1.295 . S
C43 O27 1.235 . S
Fe44 O46 1.918 1_544 S
Fe44 O49 1.997 1_554 S
Fe44 O50 2.002 1_554 S
Fe44 O55 1.976 1_545 S
Fe44 O58 1.996 1_545 S
Fe45 O46 1.918 . S
Fe45 O53 1.997 . S
Fe45 O56 1.996 . S
Fe45 O60 1.976 . S
Fe45 O63 2.002 . S
O46 Fe44 1.918 1_566 S
O46 Fe45 1.918 . S
O46 Fe47 1.918 1_556 S
Fe47 O46 1.918 1_554 S
Fe47 O48 2.002 . S
Fe47 O57 1.976 . S
Fe47 O61 1.996 . S
Fe47 O64 1.997 1_554 S
O48 Fe47 2.002 . S
O48 C65 1.295 1_564 S
O49 Fe44 1.997 1_556 S
O49 C65 1.235 . S
O50 Fe44 2.002 1_556 S
O50 C51 1.295 . S
C51 O50 1.295 . S
C51 O53 1.235 1_545 S
C52 O57 1.287 . S
C52 O58 1.255 . S
O53 Fe45 1.997 . S
O53 C51 1.235 1_565 S
C54 O60 1.287 1_554 S
C54 O61 1.255 . S
O55 Fe44 1.976 1_565 S
O55 C62 1.287 1_554 S
O56 Fe45 1.996 . S
O56 C62 1.255 . S
O57 Fe47 1.976 . S
O57 C52 1.287 . S
O58 Fe44 1.996 1_565 S
O58 C52 1.255 . S
C59 O63 1.295 . S
C59 O64 1.235 . S
O60 Fe45 1.976 . S
O60 C54 1.287 1_556 S
O61 Fe47 1.996 . S
O61 C54 1.255 . S
C62 O55 1.287 1_556 S
C62 O56 1.255 . S
O63 Fe45 2.002 . S
O63 C59 1.295 . S
O64 Fe47 1.997 1_556 S
O64 C59 1.235 . S
C65 O48 1.295 1_546 S
C65 O49 1.235 . S
Fe66 O68 1.918 . S
Fe66 O71 1.997 . S
Fe66 O72 2.002 . S
Fe66 O77 1.976 . S
Fe66 O80 1.996 . S
Fe67 O68 1.918 . S
Fe67 O75 1.997 . S
Fe67 O78 1.996 . S
Fe67 O82 1.976 . S
Fe67 O85 2.002 . S
O68 Fe66 1.918 . S
O68 Fe67 1.918 . S
O68 Fe69 1.918 1_565 S
Fe69 O68 1.918 1_545 S
Fe69 O70 2.002 . S
Fe69 O79 1.976 1_545 S
Fe69 O83 1.996 1_545 S
Fe69 O86 1.997 . S
O70 Fe69 2.002 . S
O70 C87 1.295 . S
O71 Fe66 1.997 . S
O71 C87 1.235 1_565 S
O72 Fe66 2.002 . S
O72 C73 1.295 . S
C73 O72 1.295 . S
C73 O75 1.235 . S
C74 O79 1.287 . S
C74 O80 1.255 . S
O75 Fe67 1.997 . S
O75 C73 1.235 . S
C76 O82 1.287 . S
C76 O83 1.255 . S
O77 Fe66 1.976 . S
O77 C84 1.287 . S
O78 Fe67 1.996 . S
O78 C84 1.255 . S
O79 Fe69 1.976 1_565 S
O79 C74 1.287 . S
O80 Fe66 1.996 . S
O80 C74 1.255 . S
C81 O85 1.295 1_545 S
C81 O86 1.235 . S
O82 Fe67 1.976 . S
O82 C76 1.287 . S
O83 Fe69 1.996 1_565 S
O83 C76 1.255 . S
C84 O77 1.287 . S
C84 O78 1.255 . S
O85 Fe67 2.002 . S
O85 C81 1.295 1_565 S
O86 Fe69 1.997 . S
O86 C81 1.235 . S
C87 O70 1.295 . S
C87 O71 1.235 1_545 S
Fe88 O90 1.918 . S
Fe88 O93 1.997 . S
Fe88 O94 2.002 . S
Fe88 O99 1.976 . S
Fe88 O102 1.996 . S
Fe89 O90 1.918 . S
Fe89 O97 1.997 . S
Fe89 O100 1.996 1_554 S
Fe89 O104 1.976 1_554 S
Fe89 O107 2.002 . S
O90 Fe88 1.918 . S
O90 Fe89 1.918 . S
O90 Fe91 1.918 1_554 S
Fe91 O90 1.918 1_556 S
Fe91 O92 2.002 1_556 S
Fe91 O101 1.976 . S
Fe91 O105 1.996 . S
Fe91 O108 1.997 . S
O92 Fe91 2.002 1_554 S
O92 C109 1.295 . S
O93 Fe88 1.997 . S
O93 C109 1.235 . S
O94 Fe88 2.002 . S
O94 C95 1.295 . S
C95 O94 1.295 . S
C95 O97 1.235 . S
C96 O101 1.287 1_554 S
C96 O102 1.255 . S
O97 Fe89 1.997 . S
O97 C95 1.235 . S
C98 O104 1.287 . S
C98 O105 1.255 . S
O99 Fe88 1.976 . S
O99 C106 1.287 . S
O100 Fe89 1.996 1_556 S
O100 C106 1.255 1_556 S
O101 Fe91 1.976 . S
O101 C96 1.287 1_556 S
O102 Fe88 1.996 . S
O102 C96 1.255 . S
C103 O107 1.295 . S
C103 O108 1.235 1_554 S
O104 Fe89 1.976 1_556 S
O104 C98 1.287 . S
O105 Fe91 1.996 . S
O105 C98 1.255 . S
C106 O99 1.287 . S
C106 O100 1.255 1_554 S
O107 Fe89 2.002 . S
O107 C103 1.295 . S
O108 Fe91 1.997 . S
O108 C103 1.235 1_556 S
C109 O92 1.295 . S
C109 O93 1.235 . S
Fe110 O112 1.918 . S
Fe110 O115 1.997 . S
Fe110 O116 2.002 . S
Fe110 O121 1.976 . S
Fe110 O124 1.996 . S
Fe111 O112 1.918 . S
Fe111 O119 1.997 . S
Fe111 O122 1.996 . S
Fe111 O126 1.976 . S
Fe111 O129 2.002 . S
O112 Fe110 1.918 . S
O112 Fe111 1.918 . S
O112 Fe113 1.918 . S
Fe113 O112 1.918 . S
Fe113 O114 2.002 . S
Fe113 O123 1.976 . S
Fe113 O127 1.996 . S
Fe113 O130 1.997 . S
O114 Fe113 2.002 . S
O114 C131 1.295 . S
O115 Fe110 1.997 . S
O115 C131 1.235 . S
O116 Fe110 2.002 . S
O116 C117 1.295 . S
C117 O116 1.295 . S
C117 O119 1.235 . S
C118 O123 1.287 . S
C118 O124 1.255 . S
O119 Fe111 1.997 . S
O119 C117 1.235 . S
C120 O126 1.287 . S
C120 O127 1.255 . S
O121 Fe110 1.976 . S
O121 C128 1.287 . S
O122 Fe111 1.996 . S
O122 C128 1.255 . S
O123 Fe113 1.976 . S
O123 C118 1.287 . S
O124 Fe110 1.996 . S
O124 C118 1.255 . S
C125 O129 1.295 . S
C125 O130 1.235 . S
O126 Fe111 1.976 . S
O126 C120 1.287 . S
O127 Fe113 1.996 . S
O127 C120 1.255 . S
C128 O121 1.287 . S
C128 O122 1.255 . S
O129 Fe111 2.002 . S
O129 C125 1.295 . S
O130 Fe113 1.997 . S
O130 C125 1.235 . S
C131 O114 1.295 . S
C131 O115 1.235 . S
Fe132 O134 1.918 1_554 S
Fe132 O137 1.997 1_554 S
Fe132 O138 2.002 1_554 S
Fe132 O143 1.976 . S
Fe132 O146 1.996 . S
Fe133 O134 1.918 . S
Fe133 O141 1.997 . S
Fe133 O144 1.996 . S
Fe133 O148 1.976 . S
Fe133 O151 2.002 . S
O134 Fe132 1.918 1_556 S
O134 Fe133 1.918 . S
O134 Fe135 1.918 1_556 S
Fe135 O134 1.918 1_554 S
Fe135 O136 2.002 . S
Fe135 O145 1.976 . S
Fe135 O149 1.996 . S
Fe135 O152 1.997 1_554 S
O136 Fe135 2.002 . S
O136 C153 1.295 1_554 S
O137 Fe132 1.997 1_556 S
O137 C153 1.235 . S
O138 Fe132 2.002 1_556 S
O138 C139 1.295 . S
C139 O138 1.295 . S
C139 O141 1.235 . S
C140 O145 1.287 . S
C140 O146 1.255 . S
O141 Fe133 1.997 . S
O141 C139 1.235 . S
C142 O148 1.287 1_554 S
C142 O149 1.255 . S
O143 Fe132 1.976 . S
O143 C150 1.287 1_554 S
O144 Fe133 1.996 . S
O144 C150 1.255 . S
O145 Fe135 1.976 . S
O145 C140 1.287 . S
O146 Fe132 1.996 . S
O146 C140 1.255 . S
C147 O151 1.295 . S
C147 O152 1.235 . S
O148 Fe133 1.976 . S
O148 C142 1.287 1_556 S
O149 Fe135 1.996 . S
O149 C142 1.255 . S
C150 O143 1.287 1_556 S
C150 O144 1.255 . S
O151 Fe133 2.002 . S
O151 C147 1.295 . S
O152 Fe135 1.997 1_556 S
O152 C147 1.235 . S
C153 O136 1.295 1_556 S
C153 O137 1.235 . S
Fe154 O156 1.918 . S
Fe154 O159 1.997 . S
Fe154 O160 2.002 . S
Fe154 O165 1.976 . S
Fe154 O168 1.996 . S
Fe155 O156 1.918 . S
Fe155 O163 1.997 . S
Fe155 O166 1.996 . S
Fe155 O170 1.976 . S
Fe155 O173 2.002 . S
O156 Fe154 1.918 . S
O156 Fe155 1.918 . S
O156 Fe157 1.918 . S
Fe157 O156 1.918 . S
Fe157 O158 2.002 . S
Fe157 O167 1.976 . S
Fe157 O171 1.996 . S
Fe157 O174 1.997 . S
O158 Fe157 2.002 . S
O158 C175 1.295 . S
O159 Fe154 1.997 . S
O159 C175 1.235 . S
O160 Fe154 2.002 . S
O160 C161 1.295 . S
C161 O160 1.295 . S
C161 O163 1.235 . S
C162 O167 1.287 . S
C162 O168 1.255 . S
O163 Fe155 1.997 . S
O163 C161 1.235 . S
C164 O170 1.287 . S
C164 O171 1.255 . S
O165 Fe154 1.976 . S
O165 C172 1.287 . S
O166 Fe155 1.996 . S
O166 C172 1.255 . S
O167 Fe157 1.976 . S
O167 C162 1.287 . S
O168 Fe154 1.996 . S
O168 C162 1.255 . S
C169 O173 1.295 . S
C169 O174 1.235 . S
O170 Fe155 1.976 . S
O170 C164 1.287 . S
O171 Fe157 1.996 . S
O171 C164 1.255 . S
C172 O165 1.287 . S
C172 O166 1.255 . S
O173 Fe155 2.002 . S
O173 C169 1.295 . S
O174 Fe157 1.997 . S
O174 C169 1.235 . S
C175 O158 1.295 . S
C175 O159 1.235 . S
C10 C87 1.475 . S
C51 C32 1.475 . S
C29 C52 1.441 . S
C7 C76 1.441 . S
C175 C98 1.475 . S
C120 C139 1.475 . S
C117 C140 1.441 . S
C95 C164 1.441 . S
C15 C65 1.473 1_564 S
C81 C37 1.473 1_545 S
C103 C153 1.473 1_654 S
C125 C169 1.473 1_455 S
C18 C62 2.409 1_444 S
C40 C74 2.409 1_645 S
C150 C106 2.409 1_556 S
C162 C128 2.409 . S
C21 C43 2.004 . S
C59 C73 2.002 . S
C109 C131 2.004 1_655 S
C161 C147 2.002 1_655 S
C8 C142 1.471 . S
C30 C172 1.471 . S
C54 C96 1.471 . S
C118 C84 1.471 . S
