# Generated by pormake.
# Topology pcu, (6)-cn, num edge types: 1
# Building blocks:
#     Node 0, Type 0, BuildingBlock: LEVNOQ01_clean_sbu_1, # of connection points: 6
#     Edge 1, Type (0, 0), BuildingBlock: OJICUG_clean_linker_0, # of connection points: 2
#     Edge 2, Type (0, 0), BuildingBlock: OJICUG_clean_linker_0, # of connection points: 2
#     Edge 3, Type (0, 0), BuildingBlock: OJICUG_clean_linker_0, # of connection points: 2
# Relax obj value: 0.007
# Max RMSD: 0.050
# Mean RMSD: 0.050
data_MOF--net-pcu--node1-LEVNOQ01_clean_sbu_1--edge1-OJICUG_clean_linker_0
_symmetry_space_group_name_H-M    P1
_symmetry_Int_Tables_number       1
_symmetry_cell_setting            triclinic
loop_
_symmetry_equiv_pos_as_xyz
'x, y, z'
_cell_length_a     12.147305
_cell_length_b     12.179845
_cell_length_c     11.58519
_cell_angle_alpha  63.404249
_cell_angle_beta   104.06625
_cell_angle_gamma 86.75905
loop_
_atom_site_label
_atom_site_type_symbol
_atom_site_fract_x
_atom_site_fract_y
_atom_site_fract_z
_atom_type_partial_charge
O0 O 0.69242 0.10353 0.86209 0.0
Mg1 Mg 0.83068 0.17203 0.79072 0.0
O2 O 0.8065 -0.04908 1.05798 0.0
Mg3 Mg 1.0006 0.94732 1.05858 0.0
O4 O 0.94955 0.02766 0.82263 0.0
O5 O 0.84397 0.17628 0.61672 0.0
O6 O 0.19472 0.94372 0.05919 0.0
O7 O 0.00339 0.74996 0.06565 0.0
Mg8 Mg 0.17055 0.7226 0.32646 0.0
O9 O 0.05165 0.86696 0.29454 0.0
O10 O 0.30881 0.79116 0.25512 0.0
O11 O 0.09941 0.59556 0.26903 0.0
O12 O 0.15716 0.7183 0.50045 0.0
C13 C 0.96274 0.26173 0.96887 0.0
C14 C 0.70556 0.01218 0.97814 0.0
C15 C 0.91989 0.07408 0.69127 0.0
C16 C 0.29566 0.88249 0.13905 0.0
C17 C 0.03851 0.63291 0.14827 0.0
C18 C 0.08129 0.82054 0.42589 0.0
O19 O 0.90188 0.29909 0.84811 0.0
O20 O 0.99782 0.14467 1.05151 0.0
C21 C 0.96439 0.00275 0.41679 0.0
C22 C 0.03715 0.88496 0.49265 0.0
H23 H 0.87213 0.15537 0.41993 0.0
C24 C 0.07279 0.83018 0.63523 0.0
H25 H 0.93578 0.04767 0.30723 0.0
C26 C 0.03686 0.89192 0.70037 0.0
C27 C 0.96409 0.0097 0.6245 0.0
H28 H 0.12912 0.73929 0.69722 0.0
H29 H 0.06546 0.84699 0.80992 0.0
C30 C 0.92847 0.06449 0.48192 0.0
C31 C 0.39112 0.0152 0.96934 0.0
C32 C 0.40018 0.91643 0.09737 0.0
H33 H 0.47998 0.12263 0.83139 0.0
C34 C 0.51087 0.84893 0.18617 0.0
H35 H 0.30744 0.06894 0.89849 0.0
C36 C 0.6101 0.87948 0.14785 0.0
C37 C 0.60104 -0.02176 1.01982 0.0
H38 H 0.52124 0.77205 0.2858 0.0
H39 H 0.69378 0.82573 0.2187 0.0
C40 C 0.49035 0.04575 0.93102 0.0
C41 C 0.96413 0.57481 0.96515 0.0
C42 C 0.01577 0.53838 0.10232 0.0
H43 H 0.90887 0.5165 0.81527 0.0
C44 C 0.05197 0.40978 0.19524 0.0
H45 H 0.936 0.67278 0.89082 0.0
C46 C 0.03712 0.31983 0.152 0.0
C47 C 0.98548 0.35626 1.01483 0.0
H48 H 0.09238 0.37814 0.30188 0.0
H49 H 0.06525 0.22186 0.22633 0.0
C50 C 0.94929 0.48486 0.92191 0.0
loop_
_geom_bond_atom_site_label_1
_geom_bond_atom_site_label_2
_geom_bond_distance
_geom_bond_site_symmetry_2
_ccdc_geom_bond_type
O0 Mg1 1.990 . S
O0 C14 1.253 . S
Mg1 O0 1.990 . S
Mg1 O4 2.180 . S
Mg1 O5 2.117 . S
Mg1 O19 2.030 . S
O2 Mg3 2.072 1_665 S
O2 C14 1.260 1_564 S
Mg3 O2 2.072 1_445 S
Mg3 O4 2.099 1_454 S
Mg3 O6 2.079 1_554 S
Mg3 O7 2.072 1_444 S
Mg3 O9 2.099 1_545 S
Mg3 O20 2.079 . S
O4 Mg1 2.180 . S
O4 Mg3 2.099 1_656 S
O4 C15 1.279 . S
O5 Mg1 2.117 . S
O5 C15 1.250 . S
O6 Mg3 2.079 1_556 S
O6 C16 1.264 1_546 S
O7 Mg3 2.072 1_666 S
O7 C17 1.260 1_656 S
Mg8 O9 2.180 . S
Mg8 O10 2.030 . S
Mg8 O11 1.990 . S
Mg8 O12 2.117 . S
O9 Mg3 2.099 1_565 S
O9 Mg8 2.180 . S
O9 C18 1.279 . S
O10 Mg8 2.030 . S
O10 C16 1.248 . S
O11 Mg8 1.990 . S
O11 C17 1.253 . S
O12 Mg8 2.117 . S
O12 C18 1.250 . S
C13 O19 1.248 . S
C13 O20 1.264 1_656 S
C14 O0 1.253 . S
C14 O2 1.260 1_546 S
C15 O4 1.279 . S
C15 O5 1.250 . S
C16 O6 1.264 1_564 S
C16 O10 1.248 . S
C17 O7 1.260 1_454 S
C17 O11 1.253 . S
C18 O9 1.279 . S
C18 O12 1.250 . S
O19 Mg1 2.030 . S
O19 C13 1.248 . S
O20 Mg3 2.079 . S
O20 C13 1.264 1_454 S
C21 C22 1.387 1_445 S
C21 H25 0.950 . S
C21 C30 1.390 . S
C22 C21 1.387 1_665 S
C22 C24 1.387 . S
H23 C30 0.950 . S
C24 C22 1.387 . S
C24 C26 1.390 . S
C24 H28 0.950 . S
H25 C21 0.950 . S
C26 C24 1.390 . S
C26 C27 1.387 . S
C26 H29 0.950 . S
C27 C26 1.387 . S
C27 C30 1.387 1_665 S
H28 C24 0.950 . S
H29 C26 0.950 . S
C30 C21 1.390 . S
C30 H23 0.950 . S
C30 C27 1.387 1_445 S
C31 C32 1.387 1_556 S
C31 H35 0.950 . S
C31 C40 1.390 . S
C32 C31 1.387 1_554 S
C32 C34 1.387 1_545 S
H33 C40 0.950 . S
C34 C32 1.387 1_565 S
C34 C36 1.390 . S
C34 H38 0.950 . S
H35 C31 0.950 . S
C36 C34 1.390 . S
C36 C37 1.387 1_565 S
C36 H39 0.950 . S
C37 C36 1.387 1_545 S
C37 C40 1.387 1_554 S
H38 C34 0.950 . S
H39 C36 0.950 . S
C40 C31 1.390 . S
C40 H33 0.950 . S
C40 C37 1.387 1_556 S
C41 C42 1.387 . S
C41 H45 0.950 . S
C41 C50 1.390 . S
C42 C41 1.387 . S
C42 C44 1.387 1_456 S
H43 C50 0.950 . S
C44 C42 1.387 1_654 S
C44 C46 1.390 . S
C44 H48 0.950 . S
H45 C41 0.950 . S
C46 C44 1.390 . S
C46 C47 1.387 1_654 S
C46 H49 0.950 . S
C47 C46 1.387 1_456 S
C47 C50 1.387 . S
H48 C44 0.950 . S
H49 C46 0.950 . S
C50 C41 1.390 . S
C50 H43 0.950 . S
C50 C47 1.387 . S
C22 C18 1.302 1_655 S
C27 C15 1.302 1_565 S
C32 C16 1.452 1_545 S
C37 C14 1.447 1_554 S
C42 C17 1.447 1_556 S
C47 C13 1.453 1_455 S
