# Generated by pormake.
# Topology tfs, (6)-cn, num edge types: 1
# Building blocks:
#     Node 0, Type 0, BuildingBlock: BETDEL_clean_sbu_0, # of connection points: 6
#     Node 1, Type 0, BuildingBlock: BETDEL_clean_sbu_0, # of connection points: 6
#     Node 2, Type 0, BuildingBlock: BETDEL_clean_sbu_0, # of connection points: 6
#     Node 3, Type 0, BuildingBlock: BETDEL_clean_sbu_0, # of connection points: 6
#     Node 4, Type 0, BuildingBlock: BETDEL_clean_sbu_0, # of connection points: 6
#     Node 5, Type 0, BuildingBlock: BETDEL_clean_sbu_0, # of connection points: 6
#     Edge 6, Type (0, 0), BuildingBlock: EYOCIG_clean_linker_4, # of connection points: 2
#     Edge 7, Type (0, 0), BuildingBlock: EYOCIG_clean_linker_4, # of connection points: 2
#     Edge 8, Type (0, 0), BuildingBlock: EYOCIG_clean_linker_4, # of connection points: 2
#     Edge 9, Type (0, 0), BuildingBlock: EYOCIG_clean_linker_4, # of connection points: 2
#     Edge 10, Type (0, 0), BuildingBlock: EYOCIG_clean_linker_4, # of connection points: 2
#     Edge 11, Type (0, 0), BuildingBlock: EYOCIG_clean_linker_4, # of connection points: 2
#     Edge 12, Type (0, 0), BuildingBlock: EYOCIG_clean_linker_4, # of connection points: 2
#     Edge 13, Type (0, 0), BuildingBlock: EYOCIG_clean_linker_4, # of connection points: 2
#     Edge 14, Type (0, 0), BuildingBlock: EYOCIG_clean_linker_4, # of connection points: 2
#     Edge 15, Type (0, 0), BuildingBlock: EYOCIG_clean_linker_4, # of connection points: 2
#     Edge 16, Type (0, 0), BuildingBlock: EYOCIG_clean_linker_4, # of connection points: 2
#     Edge 17, Type (0, 0), BuildingBlock: EYOCIG_clean_linker_4, # of connection points: 2
#     Edge 18, Type (0, 0), BuildingBlock: EYOCIG_clean_linker_4, # of connection points: 2
#     Edge 19, Type (0, 0), BuildingBlock: EYOCIG_clean_linker_4, # of connection points: 2
#     Edge 20, Type (0, 0), BuildingBlock: EYOCIG_clean_linker_4, # of connection points: 2
#     Edge 21, Type (0, 0), BuildingBlock: EYOCIG_clean_linker_4, # of connection points: 2
#     Edge 22, Type (0, 0), BuildingBlock: EYOCIG_clean_linker_4, # of connection points: 2
#     Edge 23, Type (0, 0), BuildingBlock: EYOCIG_clean_linker_4, # of connection points: 2
# Relax obj value: 0.447
# Max RMSD: 0.288
# Mean RMSD: 0.257
data_MOF--net-tfs--node1-BETDEL_clean_sbu_0--edge1-EYOCIG_clean_linker_4
_symmetry_space_group_name_H-M    P1
_symmetry_Int_Tables_number       1
_symmetry_cell_setting            triclinic
loop_
_symmetry_equiv_pos_as_xyz
'x, y, z'
_cell_length_a     36.498757
_cell_length_b     35.966756
_cell_length_c     11.422507
_cell_angle_alpha  91.017016
_cell_angle_beta   91.127726
_cell_angle_gamma 122.15147
loop_
_atom_site_label
_atom_site_type_symbol
_atom_site_fract_x
_atom_site_fract_y
_atom_site_fract_z
_atom_type_partial_charge
Dy0 Dy 0.1736 0.46506 0.20255 0.0
C1 C 0.22003 0.33684 0.12141 0.0
C2 C 0.16197 0.53324 0.23038 0.0
Dy3 Dy 0.20487 0.3989 0.19044 0.0
O4 O 0.17858 0.52616 0.14018 0.0
O5 O 0.15156 0.50319 0.30735 0.0
O6 O 0.14577 0.44302 0.02066 0.0
O7 O 0.20248 0.44433 0.06884 0.0
C8 C 0.17437 0.43448 0.98783 0.0
C9 C 0.19112 0.41142 0.41422 0.0
O10 O 0.26743 0.4608 0.17582 0.0
O11 O 0.2446 0.50614 0.24829 0.0
O12 O 0.24545 0.36974 0.19221 0.0
O13 O 0.1872 0.33848 0.08385 0.0
O14 O 0.20429 0.38574 0.38377 0.0
O15 O 0.18607 0.42783 0.32412 0.0
O16 O 0.11156 0.40175 0.2282 0.0
O17 O 0.13505 0.358 0.14939 0.0
C18 C 0.27504 0.49842 0.21997 0.0
C19 C 0.10454 0.36398 0.18514 0.0
Dy20 Dy 0.74877 0.17658 0.99517 0.0
C21 C 0.92714 0.24809 0.9383 0.0
C22 C 0.66374 0.14577 0.00872 0.0
Dy23 Dy 0.84674 0.22321 0.99619 0.0
O24 O 0.6826 0.14595 0.91432 0.0
O25 O 0.69101 0.16238 0.09751 0.0
O26 O 0.7472 0.1465 0.82133 0.0
O27 O 0.79778 0.21148 0.86327 0.0
C28 C 0.78231 0.1807 0.78676 0.0
C29 C 0.82272 0.2079 0.21881 0.0
O30 O 0.84228 0.28234 0.98086 0.0
O31 O 0.76843 0.24716 0.01431 0.0
O32 O 0.91685 0.27261 0.99522 0.0
O33 O 0.89306 0.21083 0.90519 0.0
O34 O 0.86275 0.22822 0.18989 0.0
O35 O 0.79872 0.19798 0.12875 0.0
O36 O 0.75672 0.12283 0.05305 0.0
O37 O 0.82437 0.15237 0.9742 0.0
C38 C 0.80712 0.28303 1.00156 0.0
C39 C 0.78924 0.11959 0.01883 0.0
Dy40 Dy 0.53374 0.75028 0.17855 0.0
C41 C 0.67829 0.9199 0.09535 0.0
C42 C 0.46683 0.67229 0.23626 0.0
Dy43 Dy 0.60922 0.84595 0.17026 0.0
O44 O 0.4684 0.69145 0.13986 0.0
O45 O 0.50134 0.69546 0.30258 0.0
O46 O 0.54558 0.73789 0.99471 0.0
O47 O 0.55831 0.80055 0.04479 0.0
C48 C 0.56111 0.77794 0.96351 0.0
C49 C 0.59882 0.82185 0.39497 0.0
O50 O 0.55232 0.85563 0.16019 0.0
O51 O 0.49838 0.78489 0.20999 0.0
O52 O 0.64968 0.91906 0.16301 0.0
O53 O 0.66856 0.88081 0.06466 0.0
O54 O 0.62825 0.8608 0.36379 0.0
O55 O 0.5781 0.79932 0.30495 0.0
O56 O 0.5875 0.73821 0.18823 0.0
O57 O 0.64002 0.80694 0.12551 0.0
C58 C 0.5117 0.82627 0.18891 0.0
C59 C 0.62624 0.7655 0.14792 0.0
Dy60 Dy 0.77268 0.52025 0.03019 0.0
C61 C 0.7132 0.64747 0.0119 0.0
C62 C 0.79625 0.46131 0.06559 0.0
Dy63 Dy 0.74217 0.59147 0.03196 0.0
O64 O 0.81772 0.49646 0.00545 0.0
O65 O 0.76282 0.45915 0.11145 0.0
O66 O 0.77165 0.51208 0.83362 0.0
O67 O 0.75458 0.5535 0.90771 0.0
C68 C 0.75962 0.53926 0.81221 0.0
C69 C 0.75613 0.57277 0.24928 0.0
O70 O 0.67938 0.52503 0.99337 0.0
O71 O 0.70069 0.47612 0.04532 0.0
O72 O 0.69337 0.61018 0.0634 0.0
O73 O 0.74816 0.65348 0.96435 0.0
O74 O 0.74444 0.60022 0.22888 0.0
O75 O 0.76028 0.55829 0.15324 0.0
O76 O 0.8352 0.5845 0.072 0.0
O77 O 0.81561 0.63466 0.01784 0.0
C78 C 0.67051 0.48471 0.01683 0.0
C79 C 0.84518 0.62486 0.04736 0.0
Dy80 Dy 0.25226 0.82655 0.17352 0.0
C81 C 0.06327 0.75617 0.10255 0.0
C82 C 0.33298 0.83761 0.20009 0.0
Dy83 Dy 0.15085 0.79519 0.15583 0.0
O84 O 0.30405 0.81406 0.1184 0.0
O85 O 0.31788 0.85531 0.2695 0.0
O86 O 0.25926 0.8498 0.9912 0.0
O87 O 0.19883 0.79603 0.03859 0.0
C88 C 0.21926 0.82258 0.95829 0.0
C89 C 0.18172 0.81367 0.38063 0.0
O90 O 0.14894 0.73177 0.14573 0.0
O91 O 0.21804 0.75629 0.22387 0.0
O92 O 0.08028 0.74352 0.18049 0.0
O93 O 0.09424 0.79051 0.05139 0.0
O94 O 0.14266 0.80216 0.34975 0.0
O95 O 0.20167 0.81642 0.28944 0.0
O96 O 0.25631 0.89089 0.19096 0.0
O97 O 0.1862 0.86786 0.11829 0.0
C98 C 0.1781 0.72461 0.19229 0.0
C99 C 0.22712 0.89905 0.14817 0.0
Dy100 Dy 0.43923 0.18516 0.01317 0.0
C101 C 0.31695 0.23456 0.08949 0.0
C102 C 0.49635 0.16168 0.9729 0.0
Dy103 Dy 0.37609 0.21646 0.02354 0.0
O104 O 0.49733 0.18364 0.0652 0.0
O105 O 0.46522 0.15363 0.89942 0.0
O106 O 0.42 0.15803 0.19122 0.0
O107 O 0.42095 0.21542 0.15037 0.0
C108 C 0.41166 0.18702 0.22674 0.0
C109 C 0.38365 0.20002 0.79801 0.0
O110 O 0.4401 0.28214 0.04163 0.0
O111 O 0.48525 0.25768 0.98757 0.0
O112 O 0.34955 0.25967 0.02538 0.0
O113 O 0.31738 0.20052 0.12241 0.0
O114 O 0.35912 0.21382 0.83082 0.0
O115 O 0.40172 0.19569 0.88659 0.0
O116 O 0.3771 0.12029 0.98974 0.0
O117 O 0.3333 0.14387 0.05904 0.0
C118 C 0.47876 0.28988 0.01302 0.0
C119 C 0.33987 0.1121 0.02948 0.0
C120 C 0.2567 0.25195 0.10562 0.0
C121 C 0.28196 0.24048 0.10463 0.0
C122 C 0.23527 0.27438 0.10012 0.0
C123 C 0.22474 0.30061 0.1026 0.0
C124 C 0.03311 0.29894 0.09835 0.0
C125 C 0.06258 0.33069 0.14703 0.0
C126 C 1.0004 0.26933 0.02026 0.0
C127 C 0.96715 0.25256 0.96491 0.0
C128 C 0.77268 0.04021 0.03311 0.0
C129 C 0.78449 0.0779 0.02242 0.0
C130 C 0.74658 0.99512 0.04756 0.0
C131 C 0.71665 0.95897 0.06416 0.0
C132 C 0.68858 0.70405 0.05032 0.0
C133 C 0.70208 0.68036 0.02818 0.0
C134 C 0.67032 0.72901 0.08461 0.0
C135 C 0.65164 0.74733 0.11197 0.0
C136 C 0.97704 0.71297 0.06727 0.0
C137 C 0.01657 0.73427 0.07846 0.0
C138 C 0.9305 0.68527 0.05825 0.0
C139 C 0.89125 0.65947 0.05171 0.0
C140 C 0.25921 0.98294 0.10144 0.0
C141 C 0.2426 0.9442 0.1208 0.0
C142 C 0.28329 0.0284 0.07524 0.0
C143 C 0.30769 0.06707 0.05621 0.0
C144 C 0.16018 0.64411 0.22307 0.0
C145 C 0.16659 0.68014 0.20713 0.0
C146 C 0.15689 0.60355 0.2379 0.0
C147 C 0.1578 0.57059 0.24257 0.0
C148 C 0.55066 0.13606 0.96958 0.0
C149 C 0.52413 0.14573 0.96075 0.0
C150 C 0.58671 0.13316 0.99143 0.0
C151 C 0.62199 0.13928 0.00619 0.0
C152 C 0.39714 0.59743 0.27118 0.0
C153 C 0.43072 0.63145 0.26544 0.0
C154 C 0.35531 0.56105 0.2596 0.0
C155 C 0.31862 0.53224 0.24123 0.0
C156 C 0.8082 0.39525 0.04824 0.0
C157 C 0.8024 0.42517 0.05683 0.0
C158 C 0.81132 0.35812 0.03023 0.0
C159 C 0.81107 0.3247 0.01634 0.0
C160 C 0.40974 0.84415 0.20817 0.0
C161 C 0.37547 0.84263 0.20974 0.0
C162 C 0.44842 0.84284 0.20127 0.0
C163 C 0.47919 0.83826 0.19379 0.0
C164 C 0.58984 0.4133 0.00972 0.0
C165 C 0.6256 0.44727 0.01113 0.0
C166 C 0.54929 0.37161 0.01082 0.0
C167 C 0.51621 0.3351 0.01306 0.0
C168 C 0.18293 0.42718 0.76126 0.0
C169 C 0.18106 0.43047 0.86595 0.0
C170 C 0.18428 0.42454 0.63797 0.0
C171 C 0.18639 0.42078 0.5336 0.0
C172 C 0.79741 0.19063 0.56177 0.0
C173 C 0.79159 0.18745 0.66529 0.0
C174 C 0.80253 0.19446 0.43996 0.0
C175 C 0.80906 0.19931 0.33695 0.0
C176 C 0.5767 0.79749 0.74051 0.0
C177 C 0.57007 0.79072 0.84356 0.0
C178 C 0.58288 0.80328 0.61842 0.0
C179 C 0.58846 0.80964 0.51487 0.0
C180 C 0.75756 0.55568 0.59195 0.0
C181 C 0.75684 0.55201 0.69643 0.0
C182 C 0.75982 0.55693 0.46909 0.0
C183 C 0.75981 0.56027 0.36458 0.0
C184 C 0.20047 0.81756 0.60654 0.0
C185 C 0.196 0.81693 0.50108 0.0
C186 C 0.20214 0.81609 0.73062 0.0
C187 C 0.2062 0.81592 0.83599 0.0
C188 C 0.39552 0.19348 0.57378 0.0
C189 C 0.39184 0.19564 0.67789 0.0
C190 C 0.39984 0.19306 0.45132 0.0
C191 C 0.40519 0.19237 0.34772 0.0
loop_
_geom_bond_atom_site_label_1
_geom_bond_atom_site_label_2
_geom_bond_distance
_geom_bond_site_symmetry_2
_ccdc_geom_bond_type
Dy0 O4 2.398 . S
Dy0 O5 2.491 . S
Dy0 O6 2.403 1_554 S
Dy0 O7 2.664 . S
Dy0 O11 2.326 . S
Dy0 O15 2.310 . S
Dy0 O16 2.351 . S
C1 O12 1.185 . S
C1 O13 1.355 . S
C2 O4 1.185 . S
C2 O5 1.355 . S
Dy3 O7 2.310 . S
Dy3 O10 2.351 . S
Dy3 O12 2.398 . S
Dy3 O13 2.491 . S
Dy3 O14 2.403 . S
Dy3 O15 2.664 . S
Dy3 O17 2.326 . S
O4 Dy0 2.398 . S
O4 C2 1.185 . S
O5 Dy0 2.491 . S
O5 C2 1.355 . S
O6 Dy0 2.403 1_556 S
O6 C8 1.254 . S
O7 Dy0 2.664 . S
O7 Dy3 2.310 . S
O7 C8 1.268 1_554 S
C8 O6 1.254 . S
C8 O7 1.268 1_556 S
C9 O14 1.254 . S
C9 O15 1.268 . S
O10 Dy3 2.351 . S
O10 C18 1.249 . S
O11 Dy0 2.326 . S
O11 C18 1.267 . S
O12 C1 1.185 . S
O12 Dy3 2.398 . S
O13 C1 1.355 . S
O13 Dy3 2.491 . S
O14 Dy3 2.403 . S
O14 C9 1.254 . S
O15 Dy0 2.310 . S
O15 Dy3 2.664 . S
O15 C9 1.268 . S
O16 Dy0 2.351 . S
O16 C19 1.249 . S
O17 Dy3 2.326 . S
O17 C19 1.267 . S
C18 O10 1.249 . S
C18 O11 1.267 . S
C19 O16 1.249 . S
C19 O17 1.267 . S
Dy20 O24 2.398 . S
Dy20 O25 2.491 1_556 S
Dy20 O26 2.403 . S
Dy20 O27 2.664 . S
Dy20 O31 2.326 . S
Dy20 O35 2.310 1_556 S
Dy20 O36 2.351 . S
C21 O32 1.185 . S
C21 O33 1.355 1_554 S
C22 O24 1.185 . S
C22 O25 1.355 1_556 S
Dy23 O27 2.310 1_554 S
Dy23 O30 2.351 . S
Dy23 O32 2.398 . S
Dy23 O33 2.491 1_554 S
Dy23 O34 2.403 . S
Dy23 O35 2.664 . S
Dy23 O37 2.326 . S
O24 Dy20 2.398 . S
O24 C22 1.185 . S
O25 Dy20 2.491 1_554 S
O25 C22 1.355 1_554 S
O26 Dy20 2.403 . S
O26 C28 1.254 . S
O27 Dy20 2.664 . S
O27 Dy23 2.310 1_556 S
O27 C28 1.268 . S
C28 O26 1.254 . S
C28 O27 1.268 . S
C29 O34 1.254 . S
C29 O35 1.268 . S
O30 Dy23 2.351 . S
O30 C38 1.249 1_554 S
O31 Dy20 2.326 . S
O31 C38 1.267 . S
O32 C21 1.185 . S
O32 Dy23 2.398 . S
O33 C21 1.355 1_556 S
O33 Dy23 2.491 1_556 S
O34 Dy23 2.403 . S
O34 C29 1.254 . S
O35 Dy20 2.310 1_554 S
O35 Dy23 2.664 . S
O35 C29 1.268 . S
O36 Dy20 2.351 . S
O36 C39 1.249 1_556 S
O37 Dy23 2.326 . S
O37 C39 1.267 . S
C38 O30 1.249 1_556 S
C38 O31 1.267 . S
C39 O36 1.249 1_554 S
C39 O37 1.267 . S
Dy40 O44 2.398 . S
Dy40 O45 2.491 . S
Dy40 O46 2.403 1_554 S
Dy40 O47 2.664 . S
Dy40 O51 2.326 . S
Dy40 O55 2.310 . S
Dy40 O56 2.351 . S
C41 O52 1.185 . S
C41 O53 1.355 . S
C42 O44 1.185 . S
C42 O45 1.355 . S
Dy43 O47 2.310 . S
Dy43 O50 2.351 . S
Dy43 O52 2.398 . S
Dy43 O53 2.491 . S
Dy43 O54 2.403 . S
Dy43 O55 2.664 . S
Dy43 O57 2.326 . S
O44 Dy40 2.398 . S
O44 C42 1.185 . S
O45 Dy40 2.491 . S
O45 C42 1.355 . S
O46 Dy40 2.403 1_556 S
O46 C48 1.254 . S
O47 Dy40 2.664 . S
O47 Dy43 2.310 . S
O47 C48 1.268 1_554 S
C48 O46 1.254 . S
C48 O47 1.268 1_556 S
C49 O54 1.254 . S
C49 O55 1.268 . S
O50 Dy43 2.351 . S
O50 C58 1.249 . S
O51 Dy40 2.326 . S
O51 C58 1.267 . S
O52 C41 1.185 . S
O52 Dy43 2.398 . S
O53 C41 1.355 . S
O53 Dy43 2.491 . S
O54 Dy43 2.403 . S
O54 C49 1.254 . S
O55 Dy40 2.310 . S
O55 Dy43 2.664 . S
O55 C49 1.268 . S
O56 Dy40 2.351 . S
O56 C59 1.249 . S
O57 Dy43 2.326 . S
O57 C59 1.267 . S
C58 O50 1.249 . S
C58 O51 1.267 . S
C59 O56 1.249 . S
C59 O57 1.267 . S
Dy60 O64 2.398 . S
Dy60 O65 2.491 1_556 S
Dy60 O66 2.403 . S
Dy60 O67 2.664 . S
Dy60 O71 2.326 . S
Dy60 O75 2.310 1_556 S
Dy60 O76 2.351 1_556 S
C61 O72 1.185 . S
C61 O73 1.355 1_554 S
C62 O64 1.185 1_554 S
C62 O65 1.355 . S
Dy63 O67 2.310 1_554 S
Dy63 O70 2.351 . S
Dy63 O72 2.398 . S
Dy63 O73 2.491 1_554 S
Dy63 O74 2.403 . S
Dy63 O75 2.664 . S
Dy63 O77 2.326 . S
O64 Dy60 2.398 . S
O64 C62 1.185 1_556 S
O65 Dy60 2.491 1_554 S
O65 C62 1.355 . S
O66 Dy60 2.403 . S
O66 C68 1.254 . S
O67 Dy60 2.664 . S
O67 Dy63 2.310 1_556 S
O67 C68 1.268 . S
C68 O66 1.254 . S
C68 O67 1.268 . S
C69 O74 1.254 . S
C69 O75 1.268 . S
O70 Dy63 2.351 . S
O70 C78 1.249 1_554 S
O71 Dy60 2.326 . S
O71 C78 1.267 . S
O72 C61 1.185 . S
O72 Dy63 2.398 . S
O73 C61 1.355 1_556 S
O73 Dy63 2.491 1_556 S
O74 Dy63 2.403 . S
O74 C69 1.254 . S
O75 Dy60 2.310 1_554 S
O75 Dy63 2.664 . S
O75 C69 1.268 . S
O76 Dy60 2.351 1_554 S
O76 C79 1.249 . S
O77 Dy63 2.326 . S
O77 C79 1.267 . S
C78 O70 1.249 1_556 S
C78 O71 1.267 . S
C79 O76 1.249 . S
C79 O77 1.267 . S
Dy80 O84 2.398 . S
Dy80 O85 2.491 . S
Dy80 O86 2.403 1_554 S
Dy80 O87 2.664 . S
Dy80 O91 2.326 . S
Dy80 O95 2.310 . S
Dy80 O96 2.351 . S
C81 O92 1.185 . S
C81 O93 1.355 . S
C82 O84 1.185 . S
C82 O85 1.355 . S
Dy83 O87 2.310 . S
Dy83 O90 2.351 . S
Dy83 O92 2.398 . S
Dy83 O93 2.491 . S
Dy83 O94 2.403 . S
Dy83 O95 2.664 . S
Dy83 O97 2.326 . S
O84 Dy80 2.398 . S
O84 C82 1.185 . S
O85 Dy80 2.491 . S
O85 C82 1.355 . S
O86 Dy80 2.403 1_556 S
O86 C88 1.254 . S
O87 Dy80 2.664 . S
O87 Dy83 2.310 . S
O87 C88 1.268 1_554 S
C88 O86 1.254 . S
C88 O87 1.268 1_556 S
C89 O94 1.254 . S
C89 O95 1.268 . S
O90 Dy83 2.351 . S
O90 C98 1.249 . S
O91 Dy80 2.326 . S
O91 C98 1.267 . S
O92 C81 1.185 . S
O92 Dy83 2.398 . S
O93 C81 1.355 . S
O93 Dy83 2.491 . S
O94 Dy83 2.403 . S
O94 C89 1.254 . S
O95 Dy80 2.310 . S
O95 Dy83 2.664 . S
O95 C89 1.268 . S
O96 Dy80 2.351 . S
O96 C99 1.249 . S
O97 Dy83 2.326 . S
O97 C99 1.267 . S
C98 O90 1.249 . S
C98 O91 1.267 . S
C99 O96 1.249 . S
C99 O97 1.267 . S
Dy100 O104 2.398 . S
Dy100 O105 2.491 1_554 S
Dy100 O106 2.403 . S
Dy100 O107 2.664 . S
Dy100 O111 2.326 . S
Dy100 O115 2.310 1_554 S
Dy100 O116 2.351 . S
C101 O112 1.185 1_554 S
C101 O113 1.355 . S
C102 O104 1.185 1_556 S
C102 O105 1.355 . S
Dy103 O107 2.310 1_556 S
Dy103 O110 2.351 . S
Dy103 O112 2.398 . S
Dy103 O113 2.491 1_556 S
Dy103 O114 2.403 . S
Dy103 O115 2.664 . S
Dy103 O117 2.326 . S
O104 Dy100 2.398 . S
O104 C102 1.185 1_554 S
O105 Dy100 2.491 1_556 S
O105 C102 1.355 . S
O106 Dy100 2.403 . S
O106 C108 1.254 . S
O107 Dy100 2.664 . S
O107 Dy103 2.310 1_554 S
O107 C108 1.268 . S
C108 O106 1.254 . S
C108 O107 1.268 . S
C109 O114 1.254 . S
C109 O115 1.268 . S
O110 Dy103 2.351 . S
O110 C118 1.249 1_556 S
O111 Dy100 2.326 . S
O111 C118 1.267 . S
O112 C101 1.185 1_556 S
O112 Dy103 2.398 . S
O113 C101 1.355 . S
O113 Dy103 2.491 1_554 S
O114 Dy103 2.403 . S
O114 C109 1.254 . S
O115 Dy100 2.310 1_556 S
O115 Dy103 2.664 . S
O115 C109 1.268 . S
O116 Dy100 2.351 . S
O116 C119 1.249 . S
O117 Dy103 2.326 . S
O117 C119 1.267 1_556 S
C118 O110 1.249 1_554 S
C118 O111 1.267 . S
C119 O116 1.249 . S
C119 O117 1.267 1_554 S
C120 C121 1.170 . S
C120 C122 1.380 . S
C121 C120 1.170 . S
C122 C120 1.380 . S
C122 C123 1.170 . S
C123 C122 1.170 . S
C124 C125 1.170 . S
C124 C126 1.380 1_455 S
C125 C124 1.170 . S
C126 C124 1.380 1_655 S
C126 C127 1.170 . S
C127 C126 1.170 . S
C128 C129 1.170 . S
C128 C130 1.380 . S
C129 C128 1.170 . S
C130 C128 1.380 . S
C130 C131 1.170 1_545 S
C131 C130 1.170 1_565 S
C132 C133 1.170 . S
C132 C134 1.380 . S
C133 C132 1.170 . S
C134 C132 1.380 . S
C134 C135 1.170 . S
C135 C134 1.170 . S
C136 C137 1.170 1_655 S
C136 C138 1.380 . S
C137 C136 1.170 1_455 S
C138 C136 1.380 . S
C138 C139 1.170 . S
C139 C138 1.170 . S
C140 C141 1.170 . S
C140 C142 1.380 1_565 S
C141 C140 1.170 . S
C142 C140 1.380 1_545 S
C142 C143 1.170 . S
C143 C142 1.170 . S
C144 C145 1.170 . S
C144 C146 1.380 . S
C145 C144 1.170 . S
C146 C144 1.380 . S
C146 C147 1.170 . S
C147 C146 1.170 . S
C148 C149 1.170 . S
C148 C150 1.380 . S
C149 C148 1.170 . S
C150 C148 1.380 . S
C150 C151 1.170 . S
C151 C150 1.170 . S
C152 C153 1.170 . S
C152 C154 1.380 . S
C153 C152 1.170 . S
C154 C152 1.380 . S
C154 C155 1.170 . S
C155 C154 1.170 . S
C156 C157 1.170 . S
C156 C158 1.380 . S
C157 C156 1.170 . S
C158 C156 1.380 . S
C158 C159 1.170 . S
C159 C158 1.170 . S
C160 C161 1.170 . S
C160 C162 1.380 . S
C161 C160 1.170 . S
C162 C160 1.380 . S
C162 C163 1.170 . S
C163 C162 1.170 . S
C164 C165 1.170 . S
C164 C166 1.380 . S
C165 C164 1.170 . S
C166 C164 1.380 . S
C166 C167 1.170 . S
C167 C166 1.170 . S
C168 C169 1.170 . S
C168 C170 1.380 . S
C169 C168 1.170 . S
C170 C168 1.380 . S
C170 C171 1.170 . S
C171 C170 1.170 . S
C172 C173 1.170 . S
C172 C174 1.380 . S
C173 C172 1.170 . S
C174 C172 1.380 . S
C174 C175 1.170 . S
C175 C174 1.170 . S
C176 C177 1.170 . S
C176 C178 1.380 . S
C177 C176 1.170 . S
C178 C176 1.380 . S
C178 C179 1.170 . S
C179 C178 1.170 . S
C180 C181 1.170 . S
C180 C182 1.380 . S
C181 C180 1.170 . S
C182 C180 1.380 . S
C182 C183 1.170 . S
C183 C182 1.170 . S
C184 C185 1.170 . S
C184 C186 1.380 . S
C185 C184 1.170 . S
C186 C184 1.380 . S
C186 C187 1.170 . S
C187 C186 1.170 . S
C188 C189 1.170 . S
C188 C190 1.380 . S
C189 C188 1.170 . S
C190 C188 1.380 . S
C190 C191 1.170 . S
C191 C190 1.170 . S
C121 C101 1.479 . S
C123 C1 1.540 . S
C125 C19 1.541 . S
C127 C21 1.296 . S
C129 C39 1.165 . S
C131 C41 1.150 . S
C133 C61 1.838 . S
C135 C59 1.950 . S
C137 C81 1.791 . S
C139 C79 1.994 . S
C141 C99 1.482 . S
C143 C119 1.489 . S
C145 C98 1.669 . S
C147 C2 1.653 . S
C149 C102 1.268 . S
C151 C22 1.262 . S
C153 C42 1.433 . S
C155 C18 1.426 . S
C157 C62 1.720 1_556 S
C159 C38 1.756 . S
C161 C82 2.010 . S
C163 C58 2.013 . S
C165 C78 2.192 . S
C167 C118 2.193 1_556 S
C169 C8 1.427 . S
C171 C9 1.392 . S
C173 C28 1.426 . S
C175 C29 1.398 . S
C177 C48 1.430 . S
C179 C49 1.417 . S
C181 C68 1.396 . S
C183 C69 1.428 . S
C185 C89 1.389 . S
C187 C88 1.412 . S
C189 C109 1.432 . S
C191 C108 1.398 . S
