# Generated by pormake.
# Topology msw, (6)-cn, num edge types: 1
# Building blocks:
#     Node 0, Type 0, BuildingBlock: VOLQOD_clean_sbu_1, # of connection points: 6
#     Node 1, Type 0, BuildingBlock: VOLQOD_clean_sbu_1, # of connection points: 6
#     Edge 2, Type (0, 0), BuildingBlock: EYOCIG_clean_linker_4, # of connection points: 2
#     Edge 3, Type (0, 0), BuildingBlock: EYOCIG_clean_linker_4, # of connection points: 2
#     Edge 4, Type (0, 0), BuildingBlock: EYOCIG_clean_linker_4, # of connection points: 2
#     Edge 5, Type (0, 0), BuildingBlock: EYOCIG_clean_linker_4, # of connection points: 2
#     Edge 6, Type (0, 0), BuildingBlock: EYOCIG_clean_linker_4, # of connection points: 2
#     Edge 7, Type (0, 0), BuildingBlock: EYOCIG_clean_linker_4, # of connection points: 2
# Relax obj value: 0.246
# Max RMSD: 0.192
# Mean RMSD: 0.192
data_MOF--net-msw--node1-VOLQOD_clean_sbu_1--edge1-EYOCIG_clean_linker_4
_symmetry_space_group_name_H-M    P1
_symmetry_Int_Tables_number       1
_symmetry_cell_setting            triclinic
loop_
_symmetry_equiv_pos_as_xyz
'x, y, z'
_cell_length_a     16.498745
_cell_length_b     16.572731
_cell_length_c     13.329356
_cell_angle_alpha  90.394809
_cell_angle_beta   89.542542
_cell_angle_gamma 90.74469
loop_
_atom_site_label
_atom_site_type_symbol
_atom_site_fract_x
_atom_site_fract_y
_atom_site_fract_z
_atom_type_partial_charge
O0 O 0.85421 0.25108 0.37725 0.0
Zn1 Zn 0.90163 0.27925 0.24565 0.0
O2 O 0.81099 0.30976 0.17168 0.0
Zn3 Zn 0.77999 0.22221 0.09034 0.0
Zn4 Zn 0.72265 0.33941 0.25179 0.0
Zn5 Zn 0.8423 0.40198 0.10064 0.0
O6 O 0.76887 0.27314 -0.04407 0.0
O7 O 0.87757 0.35653 -0.02991 0.0
O8 O 0.9702 0.19818 0.16513 0.0
O9 O 0.87474 0.15333 0.06131 0.0
O10 O 0.69096 0.15369 0.16226 0.0
O11 O 0.65764 0.24137 0.28226 0.0
O12 O 0.65228 0.42226 0.17573 0.0
O13 O 0.96679 0.37618 0.28477 0.0
O14 O 0.74374 0.46201 0.06258 0.0
O15 O 0.91874 0.47263 0.18778 0.0
C16 C 0.81768 0.30667 0.42612 0.0
C17 C 0.8279 0.31414 0.91784 0.0
C18 C 0.65211 0.17179 0.24272 0.0
C19 C 0.94732 0.1537 0.09168 0.0
C20 C 0.67201 0.4626 0.0974 0.0
C21 C 0.96306 0.44982 0.26032 0.0
O22 O 0.77484 0.36081 0.38424 0.0
O23 O 0.37043 0.76474 0.47181 0.0
Zn24 Zn 0.34073 0.71747 0.60397 0.0
O25 O 0.31125 0.80857 0.67849 0.0
Zn26 Zn 0.404 0.8408 0.74897 0.0
Zn27 Zn 0.28001 0.89553 0.59885 0.0
Zn28 Zn 0.22345 0.77907 0.76047 0.0
O29 O 0.35881 0.87484 0.88011 0.0
O30 O 0.2758 0.76603 0.89391 0.0
O31 O 0.41947 0.64789 0.68652 0.0
O32 O 0.46602 0.74368 0.78908 0.0
O33 O 0.47328 0.91873 0.66205 0.0
O34 O 0.37585 0.96358 0.56354 0.0
O35 O 0.194 0.964 0.6722 0.0
O36 O 0.24114 0.65545 0.57029 0.0
O37 O 0.15693 0.87504 0.78839 0.0
O38 O 0.15251 0.69234 0.6879 0.0
C39 C 0.31892 0.8066 0.4239 0.0
C40 C 0.3189 0.82321 -0.06764 0.0
C41 C 0.44958 0.96234 0.58937 0.0
C42 C 0.46291 0.6704 0.76103 0.0
C43 C 0.15306 0.94473 0.75048 0.0
C44 C 0.17047 0.65264 0.60815 0.0
O45 O 0.26046 0.84402 0.46657 0.0
C46 C 0.84077 0.31393 0.72338 0.0
C47 C 0.83664 0.31535 0.81258 0.0
C48 C 0.83676 0.31211 0.61948 0.0
C49 C 0.82786 0.30984 0.53096 0.0
C50 C 0.3317 0.82135 0.23043 0.0
C51 C 0.32753 0.8134 0.31902 0.0
C52 C 0.33072 0.82712 0.12667 0.0
C53 C 0.32649 0.82689 0.03755 0.0
C54 C 0.53359 0.57408 0.89125 0.0
C55 C 0.49972 0.61211 0.8266 0.0
C56 C 0.57281 0.53495 -0.0277 0.0
C57 C 0.61155 0.50065 0.03595 0.0
C58 C 1.03187 0.54415 0.39704 0.0
C59 C 0.99876 0.50756 0.32936 0.0
C60 C 0.07003 0.58118 0.48143 0.0
C61 C 0.10859 0.61476 0.54704 0.0
C62 C 0.07876 1.04237 0.87636 0.0
C63 C 0.11352 1.00499 0.81108 0.0
C64 C 1.04168 0.0804 -0.03961 0.0
C65 C 1.00551 0.11527 0.02665 0.0
C66 C 0.54252 1.03399 0.45344 0.0
C67 C 0.50691 0.9998 0.52112 0.0
C68 C 0.57883 0.07242 0.36879 0.0
C69 C 0.61285 0.11053 0.30317 0.0
loop_
_geom_bond_atom_site_label_1
_geom_bond_atom_site_label_2
_geom_bond_distance
_geom_bond_site_symmetry_2
_ccdc_geom_bond_type
O0 Zn1 1.953 . S
O0 C16 1.225 . S
Zn1 O0 1.953 . S
Zn1 O2 1.949 . S
Zn1 O8 1.919 . S
Zn1 O13 1.924 . S
O2 Zn1 1.949 . S
O2 Zn3 1.923 . S
O2 Zn4 1.950 . S
O2 Zn5 1.945 . S
Zn3 O2 1.923 . S
Zn3 O6 1.933 1_554 S
Zn3 O9 1.941 . S
Zn3 O10 1.965 . S
Zn4 O2 1.950 . S
Zn4 O11 1.938 . S
Zn4 O12 1.906 . S
Zn4 O22 1.953 . S
Zn5 O2 1.945 . S
Zn5 O7 1.932 1_554 S
Zn5 O14 1.977 . S
Zn5 O15 1.910 . S
O6 Zn3 1.933 1_556 S
O6 C17 1.226 . S
O7 Zn5 1.932 1_556 S
O7 C17 1.307 . S
O8 Zn1 1.919 . S
O8 C19 1.253 . S
O9 Zn3 1.941 . S
O9 C19 1.283 . S
O10 Zn3 1.965 . S
O10 C18 1.303 . S
O11 Zn4 1.938 . S
O11 C18 1.247 . S
O12 Zn4 1.906 . S
O12 C20 1.304 . S
O13 Zn1 1.924 . S
O13 C21 1.311 . S
O14 Zn5 1.977 . S
O14 C20 1.272 . S
O15 Zn5 1.910 . S
O15 C21 1.231 . S
C16 O0 1.225 . S
C16 O22 1.298 . S
C17 O6 1.226 . S
C17 O7 1.307 . S
C18 O10 1.303 . S
C18 O11 1.247 . S
C19 O8 1.253 . S
C19 O9 1.283 . S
C20 O12 1.304 . S
C20 O14 1.272 . S
C21 O13 1.311 . S
C21 O15 1.231 . S
O22 Zn4 1.953 . S
O22 C16 1.298 . S
O23 Zn24 1.953 . S
O23 C39 1.225 . S
Zn24 O23 1.953 . S
Zn24 O25 1.949 . S
Zn24 O31 1.919 . S
Zn24 O36 1.924 . S
O25 Zn24 1.949 . S
O25 Zn26 1.923 . S
O25 Zn27 1.950 . S
O25 Zn28 1.945 . S
Zn26 O25 1.923 . S
Zn26 O29 1.933 1_556 S
Zn26 O32 1.941 . S
Zn26 O33 1.965 . S
Zn27 O25 1.950 . S
Zn27 O34 1.938 . S
Zn27 O35 1.906 . S
Zn27 O45 1.953 . S
Zn28 O25 1.945 . S
Zn28 O30 1.932 1_556 S
Zn28 O37 1.977 . S
Zn28 O38 1.910 . S
O29 Zn26 1.933 1_554 S
O29 C40 1.226 . S
O30 Zn28 1.932 1_554 S
O30 C40 1.307 . S
O31 Zn24 1.919 . S
O31 C42 1.253 . S
O32 Zn26 1.941 . S
O32 C42 1.283 . S
O33 Zn26 1.965 . S
O33 C41 1.303 . S
O34 Zn27 1.938 . S
O34 C41 1.247 . S
O35 Zn27 1.906 . S
O35 C43 1.304 . S
O36 Zn24 1.924 . S
O36 C44 1.311 . S
O37 Zn28 1.977 . S
O37 C43 1.272 . S
O38 Zn28 1.910 . S
O38 C44 1.231 . S
C39 O23 1.225 . S
C39 O45 1.298 . S
C40 O29 1.226 . S
C40 O30 1.307 . S
C41 O33 1.303 . S
C41 O34 1.247 . S
C42 O31 1.253 . S
C42 O32 1.283 . S
C43 O35 1.304 . S
C43 O37 1.272 . S
C44 O36 1.311 . S
C44 O38 1.231 . S
O45 Zn27 1.953 . S
O45 C39 1.298 . S
C46 C47 1.170 . S
C46 C48 1.380 . S
C47 C46 1.170 . S
C48 C46 1.380 . S
C48 C49 1.170 . S
C49 C48 1.170 . S
C50 C51 1.170 . S
C50 C52 1.380 . S
C51 C50 1.170 . S
C52 C50 1.380 . S
C52 C53 1.170 . S
C53 C52 1.170 . S
C54 C55 1.170 . S
C54 C56 1.380 1_556 S
C55 C54 1.170 . S
C56 C54 1.380 1_554 S
C56 C57 1.170 . S
C57 C56 1.170 . S
C58 C59 1.170 . S
C58 C60 1.380 1_655 S
C59 C58 1.170 . S
C60 C58 1.380 1_455 S
C60 C61 1.170 . S
C61 C60 1.170 . S
C62 C63 1.170 . S
C62 C64 1.380 1_466 S
C63 C62 1.170 . S
C64 C62 1.380 1_644 S
C64 C65 1.170 . S
C65 C64 1.170 . S
C66 C67 1.170 . S
C66 C68 1.380 1_565 S
C67 C66 1.170 . S
C68 C66 1.380 1_545 S
C68 C69 1.170 . S
C69 C68 1.170 . S
C47 C17 0.289 . S
C49 C16 0.248 . S
C51 C39 0.271 . S
C53 C40 0.244 . S
C55 C42 2.065 . S
C57 C20 2.036 . S
C59 C21 2.040 . S
C61 C44 2.023 . S
C63 C43 2.057 . S
C65 C19 2.066 . S
C67 C41 2.059 . S
C69 C18 2.079 . S
