# Generated by pormake.
# Topology hex, (8)-cn, num edge types: 1
# Building blocks:
#     Node 0, Type 0, BuildingBlock: TAGTUT_clean_sbu_3, # of connection points: 8
#     Edge 1, Type (0, 0), BuildingBlock: OJICUG_clean_linker_0, # of connection points: 2
#     Edge 2, Type (0, 0), BuildingBlock: OJICUG_clean_linker_0, # of connection points: 2
#     Edge 3, Type (0, 0), BuildingBlock: OJICUG_clean_linker_0, # of connection points: 2
#     Edge 4, Type (0, 0), BuildingBlock: OJICUG_clean_linker_0, # of connection points: 2
# Relax obj value: 0.104
# Max RMSD: 0.228
# Mean RMSD: 0.228
data_MOF--net-hex--node1-TAGTUT_clean_sbu_3--edge1-OJICUG_clean_linker_0
_symmetry_space_group_name_H-M    P1
_symmetry_Int_Tables_number       1
_symmetry_cell_setting            triclinic
loop_
_symmetry_equiv_pos_as_xyz
'x, y, z'
_cell_length_a     15.840796
_cell_length_b     14.637904
_cell_length_c     11.958926
_cell_angle_alpha  96.557871
_cell_angle_beta   95.674948
_cell_angle_gamma 136.43471
loop_
_atom_site_label
_atom_site_type_symbol
_atom_site_fract_x
_atom_site_fract_y
_atom_site_fract_z
_atom_type_partial_charge
C0 C 0.93245 0.94294 0.7244 0.0
C1 C 0.21948 0.94214 0.88814 0.0
C2 C 0.04032 0.75849 0.10298 0.0
Mg3 Mg 0.79282 0.99765 0.83056 0.0
Mg4 Mg 0.8735 0.15376 0.10487 0.0
O5 O 0.83888 0.02094 0.00122 0.0
Mg6 Mg 0.95788 0.01 0.00207 0.0
O7 O 0.05692 0.97815 -0.01303 0.0
Mg8 Mg 0.92792 0.78385 0.89412 0.0
Mg9 Mg 0.196 0.05095 0.09602 0.0
C10 C 0.94781 0.06235 0.27884 0.0
O11 O 0.15277 0.24254 0.04802 0.0
O12 O 0.63988 0.97374 0.85462 0.0
O13 O 0.28625 0.25653 0.16055 0.0
O14 O 0.92823 0.24015 0.86875 0.0
O15 O 0.69778 0.08698 0.03997 0.0
O16 O 0.02668 0.33173 0.05904 0.0
O17 O 0.78234 0.7771 0.94595 0.0
O18 O 0.65578 0.76625 0.82689 0.0
C19 C 0.67107 0.71128 0.88992 0.0
C20 C 0.62063 0.01426 0.9376 0.0
O21 O -0.03309 0.01684 0.19845 0.0
O22 O 0.09866 0.82986 0.85971 0.0
O23 O 0.91634 0.12029 0.26099 0.0
O24 O 0.94467 0.73001 0.05887 0.0
O25 O 0.27276 0.04988 0.96481 0.0
O26 O 0.14692 0.88395 0.15341 0.0
O27 O 0.94428 0.01271 0.81267 0.0
O28 O 0.92358 0.85061 0.73407 0.0
C29 C 0.00768 0.34519 0.95962 0.0
C30 C 0.26612 0.30957 0.10067 0.0
C31 C 0.93707 0.44669 0.91857 0.0
C32 C 0.03589 0.4672 0.96651 0.0
H33 H 0.85822 0.51834 0.92692 0.0
C34 C 0.14168 0.59048 0.05337 0.0
H35 H 0.85287 0.35179 0.85377 0.0
C36 C 0.14411 0.68565 0.09729 0.0
C37 C 0.04029 0.65942 0.05608 0.0
H38 H 0.21854 0.60837 0.09345 0.0
H39 H 0.22532 0.77725 0.1664 0.0
C40 C 0.9387 0.54081 0.96337 0.0
C41 C 0.38813 0.85488 0.88833 0.0
C42 C 0.51229 0.98782 0.90808 0.0
H43 H 0.19151 0.73297 0.85961 0.0
C44 C 0.53286 0.09457 0.89004 0.0
H45 H 0.37132 0.77038 0.89789 0.0
C46 C 0.43083 0.0721 0.86317 0.0
C47 C 0.30759 0.94362 0.85774 0.0
H48 H 0.62814 0.19628 0.90023 0.0
H49 H 0.44989 0.15894 0.85814 0.0
C50 C 0.28555 0.83274 0.86347 0.0
C51 C 0.35217 0.46582 0.96655 0.0
C52 C 0.37331 0.42492 0.05637 0.0
H53 H 0.42647 0.58375 0.84122 0.0
C54 C 0.49194 0.4763 0.0873 0.0
H55 H 0.26176 0.42735 0.93865 0.0
C56 C 0.58494 0.56266 0.02902 0.0
C57 C 0.56377 0.60267 0.93848 0.0
H58 H 0.51221 0.44652 0.15461 0.0
H59 H 0.67459 0.59944 0.05642 0.0
C60 C 0.44602 0.55351 0.90865 0.0
C61 C 0.93921 0.909 0.51717 0.0
C62 C 0.9359 0.97352 0.61045 0.0
H63 H 0.94779 0.88804 0.33992 0.0
C64 C 0.94228 0.07185 0.59518 0.0
H65 H 0.93572 0.83361 0.52635 0.0
C66 C 0.94972 0.10336 0.48831 0.0
C67 C 0.95172 0.03782 0.39465 0.0
H68 H 0.94125 0.12437 0.66556 0.0
H69 H 0.95296 0.17854 0.47897 0.0
C70 C 0.94751 0.94118 0.41053 0.0
loop_
_geom_bond_atom_site_label_1
_geom_bond_atom_site_label_2
_geom_bond_distance
_geom_bond_site_symmetry_2
_ccdc_geom_bond_type
C0 O27 1.312 1_565 S
C0 O28 1.208 . S
C1 O22 1.331 . S
C1 O25 1.244 . S
C2 O24 1.264 1_454 S
C2 O26 1.273 . S
Mg3 O5 1.936 1_566 S
Mg3 O12 2.081 . S
Mg3 O14 2.023 1_565 S
Mg3 O18 2.031 . S
Mg3 O27 2.291 1_565 S
Mg4 O5 1.963 . S
Mg4 O15 1.942 . S
Mg4 O16 1.955 1_655 S
Mg4 O23 1.986 1_655 S
O5 Mg3 1.936 1_544 S
O5 Mg4 1.963 . S
O5 Mg6 1.915 1_655 S
Mg6 O5 1.915 1_455 S
Mg6 O7 1.915 1_544 S
Mg6 O11 2.013 . S
Mg6 O17 2.114 1_444 S
Mg6 O21 2.013 1_545 S
Mg6 O27 2.114 1_454 S
O7 Mg6 1.915 1_566 S
O7 Mg8 1.936 1_455 S
O7 Mg9 1.963 1_566 S
Mg8 O7 1.936 1_655 S
Mg8 O17 2.291 . S
Mg8 O22 2.081 1_655 S
Mg8 O24 2.023 . S
Mg8 O28 2.031 . S
Mg9 O7 1.963 1_544 S
Mg9 O13 1.986 . S
Mg9 O25 1.942 1_544 S
Mg9 O26 1.955 1_545 S
C10 O21 1.191 1_545 S
C10 O23 1.307 . S
O11 Mg6 2.013 . S
O11 C30 1.191 . S
O12 Mg3 2.081 . S
O12 C20 1.331 1_566 S
O13 Mg9 1.986 . S
O13 C30 1.307 . S
O14 Mg3 2.023 1_545 S
O14 C29 1.264 . S
O15 Mg4 1.942 . S
O15 C20 1.244 . S
O16 Mg4 1.955 1_455 S
O16 C29 1.273 1_454 S
O17 Mg6 2.114 1_666 S
O17 Mg8 2.291 . S
O17 C19 1.312 . S
O18 Mg3 2.031 . S
O18 C19 1.208 . S
C19 O17 1.312 . S
C19 O18 1.208 . S
C20 O12 1.331 1_544 S
C20 O15 1.244 . S
O21 Mg6 2.013 1_565 S
O21 C10 1.191 1_565 S
O22 C1 1.331 . S
O22 Mg8 2.081 1_455 S
O23 Mg4 1.986 1_455 S
O23 C10 1.307 . S
O24 C2 1.264 1_656 S
O24 Mg8 2.023 . S
O25 C1 1.244 . S
O25 Mg9 1.942 1_566 S
O26 C2 1.273 . S
O26 Mg9 1.955 1_565 S
O27 C0 1.312 1_545 S
O27 Mg3 2.291 1_545 S
O27 Mg6 2.114 1_656 S
O28 C0 1.208 . S
O28 Mg8 2.031 . S
C29 O14 1.264 . S
C29 O16 1.273 1_656 S
C30 O11 1.191 . S
C30 O13 1.307 . S
C31 C32 1.387 1_655 S
C31 H35 0.950 . S
C31 C40 1.390 1_655 S
C32 C31 1.387 1_455 S
C32 C34 1.387 1_556 S
H33 C40 0.950 1_655 S
C34 C32 1.387 1_554 S
C34 C36 1.390 . S
C34 H38 0.950 . S
H35 C31 0.950 . S
C36 C34 1.390 . S
C36 C37 1.387 . S
C36 H39 0.950 . S
C37 C36 1.387 . S
C37 C40 1.387 1_554 S
H38 C34 0.950 . S
H39 C36 0.950 . S
C40 C31 1.390 1_455 S
C40 H33 0.950 1_455 S
C40 C37 1.387 1_556 S
C41 C42 1.387 1_556 S
C41 H45 0.950 . S
C41 C50 1.390 . S
C42 C41 1.387 1_554 S
C42 C44 1.387 1_565 S
H43 C50 0.950 . S
C44 C42 1.387 1_545 S
C44 C46 1.390 1_554 S
C44 H48 0.950 . S
H45 C41 0.950 . S
C46 C44 1.390 1_556 S
C46 C47 1.387 1_545 S
C46 H49 0.950 . S
C47 C46 1.387 1_565 S
C47 C50 1.387 . S
H48 C44 0.950 . S
H49 C46 0.950 . S
C50 C41 1.390 . S
C50 H43 0.950 . S
C50 C47 1.387 . S
C51 C52 1.387 1_556 S
C51 H55 0.950 . S
C51 C60 1.390 . S
C52 C51 1.387 1_554 S
C52 C54 1.387 . S
H53 C60 0.950 . S
C54 C52 1.387 . S
C54 C56 1.390 . S
C54 H58 0.950 . S
H55 C51 0.950 . S
C56 C54 1.390 . S
C56 C57 1.387 1_554 S
C56 H59 0.950 . S
C57 C56 1.387 1_556 S
C57 C60 1.387 . S
H58 C54 0.950 . S
H59 C56 0.950 . S
C60 C51 1.390 . S
C60 H53 0.950 . S
C60 C57 1.387 . S
C61 C62 1.387 . S
C61 H65 0.950 . S
C61 C70 1.390 . S
C62 C61 1.387 . S
C62 C64 1.387 1_665 S
H63 C70 0.950 . S
C64 C62 1.387 1_445 S
C64 C66 1.390 . S
C64 H68 0.950 . S
H65 C61 0.950 . S
C66 C64 1.390 . S
C66 C67 1.387 . S
C66 H69 0.950 . S
C67 C66 1.387 . S
C67 C70 1.387 1_445 S
H68 C64 0.950 . S
H69 C66 0.950 . S
C70 C61 1.390 . S
C70 H63 0.950 . S
C70 C67 1.387 1_665 S
C32 C29 1.588 1_455 S
C37 C2 1.553 . S
C42 C20 1.478 1_565 S
C47 C1 1.383 . S
C52 C30 1.826 . S
C57 C19 1.848 . S
C62 C0 1.473 . S
C67 C10 1.484 . S
