# Generated by pormake.
# Topology sxc, (6)-cn, num edge types: 1
# Building blocks:
#     Node 0, Type 0, BuildingBlock: UKALOJ_clean_sbu_0, # of connection points: 6
#     Node 1, Type 0, BuildingBlock: UKALOJ_clean_sbu_0, # of connection points: 6
#     Node 2, Type 0, BuildingBlock: UKALOJ_clean_sbu_0, # of connection points: 6
#     Edge 3, Type (0, 0), None
#     Edge 4, Type (0, 0), None
#     Edge 5, Type (0, 0), None
#     Edge 6, Type (0, 0), None
#     Edge 7, Type (0, 0), None
#     Edge 8, Type (0, 0), None
#     Edge 9, Type (0, 0), None
#     Edge 10, Type (0, 0), None
#     Edge 11, Type (0, 0), None
# Relax obj value: 0.079
# Max RMSD: 0.187
# Mean RMSD: 0.187
data_MOF--net-sxc--node1-UKALOJ_clean_sbu_0--edge1-none
_symmetry_space_group_name_H-M    P1
_symmetry_Int_Tables_number       1
_symmetry_cell_setting            triclinic
loop_
_symmetry_equiv_pos_as_xyz
'x, y, z'
_cell_length_a     6.7540341
_cell_length_b     6.7262154
_cell_length_c     35.644745
_cell_angle_alpha  88.492986
_cell_angle_beta   90.830586
_cell_angle_gamma 120.41056
loop_
_atom_site_label
_atom_site_type_symbol
_atom_site_fract_x
_atom_site_fract_y
_atom_site_fract_z
_atom_type_partial_charge
Zn0 Zn -0.01181 0.0859 1.00446 0.0
O1 O 0.0575 0.81483 1.00462 0.0
C2 C 0.56933 0.69458 0.03565 0.0
Zn3 Zn -0.0092 0.07971 0.067 0.0
C4 C 0.0325 0.70694 0.0356 0.0
O5 O 0.05943 0.8085 0.06638 0.0
C6 C 0.9457 0.45816 0.03587 0.0
O7 O 0.33145 0.36215 0.06674 0.0
O8 O 0.32879 0.36944 1.00503 0.0
N9 N -0.01004 0.06021 0.12453 0.0
C10 C 0.09397 0.21664 0.15169 0.0
C11 C 0.92049 0.88413 0.17855 0.0
N12 N 0.8822 0.85433 0.14139 0.0
N13 N 0.04994 0.11009 0.1857 0.0
C14 C 0.93892 0.94903 0.91971 0.0
C15 C 0.08643 0.28083 0.89279 0.0
N16 N -0.00401 0.10512 0.9469 0.0
N17 N 0.08702 0.31054 0.93 0.0
N18 N -0.0089 0.05527 0.88564 0.0
H19 H -0.01943 0.65748 0.92809 0.0
H20 H 0.72433 0.5972 0.90275 0.0
H21 H 0.74043 0.63553 0.95277 0.0
C22 C 0.8387 0.69505 0.92632 0.0
C23 C 0.24233 0.47145 0.14507 0.0
H24 H 0.42265 0.51389 0.14183 0.0
H25 H 0.23309 0.5669 0.16927 0.0
H26 H 0.19094 0.529 0.11932 0.0
O27 O 0.9198 0.34979 0.06687 0.0
O28 O 0.92018 0.35737 1.00503 0.0
C29 C 0.4093 0.47159 0.03581 0.0
O30 O 0.64677 0.80451 1.00471 0.0
O31 O 0.65043 0.79604 0.06648 0.0
Zn32 Zn 0.22832 0.24852 0.33812 0.0
O33 O 0.8889 0.18319 0.33872 0.0
C34 C 0.26051 0.6646 0.36901 0.0
Zn35 Zn 0.22746 0.23879 0.40048 0.0
C36 C 0.80884 0.20152 0.36963 0.0
O37 O 0.88597 0.16845 0.40044 0.0
C38 C 0.64796 0.28825 0.36968 0.0
O39 O 0.17326 0.89953 0.39972 0.0
O40 O 0.16969 0.90624 0.33804 0.0
N41 N 0.22673 0.23299 0.45786 0.0
C42 C 0.0998 0.06099 0.48265 0.0
C43 C 0.31681 0.36163 0.51412 0.0
N44 N 0.36053 0.41943 0.47741 0.0
N45 N 0.15575 0.13723 0.51803 0.0
C46 C 0.07069 0.13878 0.25523 0.0
C47 C 0.3778 0.36712 0.22509 0.0
N48 N 0.23482 0.26015 0.28076 0.0
N49 N 0.42518 0.40111 0.26202 0.0
N50 N 0.15605 0.20522 0.2202 0.0
H51 H 0.81883 0.86538 0.29041 0.0
H52 H 0.73266 0.85116 0.24186 0.0
H53 H 0.7361 0.06302 0.27127 0.0
C54 C 0.82607 -0.03195 0.26505 0.0
C55 C 0.93384 0.81764 0.47185 0.0
H56 H 0.84086 0.8156 0.44582 0.0
H57 H 0.8088 0.71879 0.49424 0.0
H58 H 0.03091 0.72872 0.46647 0.0
O59 O 0.56935 0.30993 0.40055 0.0
O60 O 0.56892 0.31711 0.33874 0.0
C61 C 0.19776 0.82382 0.36889 0.0
O62 O 0.28797 0.59009 0.33822 0.0
O63 O 0.28496 0.58061 0.39998 0.0
Zn64 Zn -0.00437 0.91819 0.73287 0.0
O65 O 0.72104 -0.01799 0.73257 0.0
C66 C 0.60726 0.50347 0.70183 0.0
Zn67 Zn -0.00376 0.93029 0.67042 0.0
C68 C 0.61884 -0.03449 0.70162 0.0
O69 O 0.72529 -0.00034 0.67088 0.0
C70 C 0.37103 0.88026 0.70138 0.0
O71 O 0.27773 0.27158 0.67108 0.0
O72 O 0.27929 0.26029 0.73281 0.0
N73 N -0.01199 0.94131 0.61282 0.0
C74 C 0.15028 0.05403 0.58623 0.0
C75 C 0.82563 0.88795 0.55837 0.0
N76 N 0.78704 0.83813 0.59533 0.0
N77 N 0.05232 0.0206 0.55199 0.0
C78 C -0.03411 0.02706 0.81604 0.0
C79 C 0.04991 0.79858 0.84553 0.0
N80 N 0.00107 0.9055 0.79019 0.0
N81 N 0.05368 0.76444 0.80853 0.0
N82 N -0.00686 0.96079 0.8509 0.0
H83 H -0.0187 0.30009 0.78116 0.0
H84 H 0.92066 0.31476 0.82987 0.0
H85 H 0.70391 0.10233 0.80075 0.0
C86 C 0.89098 0.19759 0.80666 0.0
C87 C 0.40256 0.20098 0.5936 0.0
H88 H 0.44374 0.38057 0.59789 0.0
H89 H 0.50309 0.20029 0.5693 0.0
H90 H 0.45465 0.14078 0.61895 0.0
O91 O 0.26622 0.85854 0.67047 0.0
O92 O 0.26734 0.85135 0.73225 0.0
C93 C 0.3843 0.34466 0.70192 0.0
O94 O 0.71404 0.57684 0.73268 0.0
O95 O 0.71175 0.58808 0.67089 0.0
loop_
_geom_bond_atom_site_label_1
_geom_bond_atom_site_label_2
_geom_bond_distance
_geom_bond_site_symmetry_2
_ccdc_geom_bond_type
Zn0 O1 2.055 1_545 S
Zn0 O8 2.046 . S
Zn0 N16 2.036 . S
Zn0 O28 2.053 1_455 S
Zn0 O30 2.066 1_445 S
O1 Zn0 2.055 1_565 S
O1 C4 1.259 1_556 S
C2 O30 1.252 1_554 S
C2 O31 1.248 . S
Zn3 O5 2.046 1_545 S
Zn3 O7 2.055 . S
Zn3 N9 2.036 1_455 S
Zn3 O27 2.066 1_455 S
Zn3 O31 2.053 1_445 S
C4 O1 1.259 1_554 S
C4 O5 1.254 . S
O5 Zn3 2.046 1_565 S
O5 C4 1.254 . S
C6 O27 1.256 . S
C6 O28 1.244 1_554 S
O7 Zn3 2.055 . S
O7 C29 1.259 . S
O8 Zn0 2.046 . S
O8 C29 1.254 1_556 S
N9 Zn3 2.036 1_655 S
N9 C10 1.298 1_655 S
N9 N12 1.398 1_545 S
C10 N9 1.298 1_455 S
C10 N13 1.367 1_455 S
C10 C23 1.481 . S
C11 N12 1.299 . S
C11 N13 1.379 1_565 S
N12 N9 1.398 1_565 S
N12 C11 1.299 . S
N13 C10 1.367 1_655 S
N13 C11 1.379 1_545 S
C14 N16 1.298 1_665 S
C14 N18 1.367 1_565 S
C14 C22 1.481 . S
C15 N17 1.299 1_655 S
C15 N18 1.379 . S
N16 Zn0 2.036 . S
N16 C14 1.298 1_445 S
N16 N17 1.398 . S
N17 C15 1.299 1_455 S
N17 N16 1.398 . S
N18 C14 1.367 1_545 S
N18 C15 1.379 . S
H19 C22 0.980 1_455 S
H20 C22 0.981 . S
H21 C22 0.981 . S
C22 C14 1.481 . S
C22 H19 0.980 1_655 S
C22 H20 0.981 . S
C22 H21 0.981 . S
C23 C10 1.481 . S
C23 H24 0.980 . S
C23 H25 0.981 . S
C23 H26 0.981 . S
H24 C23 0.980 . S
H25 C23 0.981 . S
H26 C23 0.981 . S
O27 Zn3 2.066 1_655 S
O27 C6 1.256 . S
O28 Zn0 2.053 1_655 S
O28 C6 1.244 1_556 S
C29 O7 1.259 . S
C29 O8 1.254 1_554 S
O30 Zn0 2.066 1_665 S
O30 C2 1.252 1_556 S
O31 C2 1.248 . S
O31 Zn3 2.053 1_665 S
Zn32 O33 2.055 1_455 S
Zn32 O40 2.046 1_545 S
Zn32 N48 2.036 . S
Zn32 O60 2.053 . S
Zn32 O62 2.066 . S
O33 Zn32 2.055 1_655 S
O33 C36 1.259 . S
C34 O62 1.256 . S
C34 O63 1.244 . S
Zn35 O37 2.046 1_455 S
Zn35 O39 2.055 1_545 S
Zn35 N41 2.036 . S
Zn35 O59 2.066 . S
Zn35 O63 2.053 . S
C36 O33 1.259 . S
C36 O37 1.254 . S
O37 Zn35 2.046 1_655 S
O37 C36 1.254 . S
C38 O59 1.256 . S
C38 O60 1.244 . S
O39 Zn35 2.055 1_565 S
O39 C61 1.259 . S
O40 Zn32 2.046 1_565 S
O40 C61 1.254 . S
N41 Zn35 2.036 . S
N41 C42 1.298 . S
N41 N44 1.398 . S
C42 N41 1.298 . S
C42 N45 1.367 . S
C42 C55 1.481 1_545 S
C43 N44 1.299 . S
C43 N45 1.379 . S
N44 N41 1.398 . S
N44 C43 1.299 . S
N45 C42 1.367 . S
N45 C43 1.379 . S
C46 N48 1.298 . S
C46 N50 1.367 . S
C46 C54 1.481 1_455 S
C47 N49 1.299 . S
C47 N50 1.379 . S
N48 Zn32 2.036 . S
N48 C46 1.298 . S
N48 N49 1.398 . S
N49 C47 1.299 . S
N49 N48 1.398 . S
N50 C46 1.367 . S
N50 C47 1.379 . S
H51 C54 0.980 . S
H52 C54 0.981 . S
H53 C54 0.981 . S
C54 C46 1.481 1_655 S
C54 H51 0.980 . S
C54 H52 0.981 . S
C54 H53 0.981 . S
C55 C42 1.481 1_565 S
C55 H56 0.980 . S
C55 H57 0.981 . S
C55 H58 0.981 . S
H56 C55 0.980 . S
H57 C55 0.981 . S
H58 C55 0.981 . S
O59 Zn35 2.066 . S
O59 C38 1.256 . S
O60 Zn32 2.053 . S
O60 C38 1.244 . S
C61 O39 1.259 . S
C61 O40 1.254 . S
O62 Zn32 2.066 . S
O62 C34 1.256 . S
O63 C34 1.244 . S
O63 Zn35 2.053 . S
Zn64 O65 2.055 1_455 S
Zn64 O72 2.046 . S
Zn64 N80 2.036 . S
Zn64 O92 2.053 1_545 S
Zn64 O94 2.066 1_445 S
O65 Zn64 2.055 1_655 S
O65 C68 1.259 . S
C66 O94 1.256 . S
C66 O95 1.244 . S
Zn67 O69 2.046 1_455 S
Zn67 O71 2.055 . S
Zn67 N73 2.036 1_545 S
Zn67 O91 2.066 1_545 S
Zn67 O95 2.053 1_445 S
C68 O65 1.259 . S
C68 O69 1.254 . S
O69 Zn67 2.046 1_655 S
O69 C68 1.254 . S
C70 O91 1.256 . S
C70 O92 1.244 . S
O71 Zn67 2.055 . S
O71 C93 1.259 . S
O72 Zn64 2.046 . S
O72 C93 1.254 . S
N73 Zn67 2.036 1_565 S
N73 C74 1.298 1_565 S
N73 N76 1.398 1_455 S
C74 N73 1.298 1_545 S
C74 N77 1.367 1_545 S
C74 C87 1.481 . S
C75 N76 1.299 . S
C75 N77 1.379 1_655 S
N76 N73 1.398 1_655 S
N76 C75 1.299 . S
N77 C74 1.367 1_565 S
N77 C75 1.379 1_455 S
C78 N80 1.298 1_665 S
C78 N82 1.367 1_655 S
C78 C86 1.481 . S
C79 N81 1.299 1_565 S
C79 N82 1.379 . S
N80 Zn64 2.036 . S
N80 C78 1.298 1_445 S
N80 N81 1.398 . S
N81 C79 1.299 1_545 S
N81 N80 1.398 . S
N82 C78 1.367 1_455 S
N82 C79 1.379 . S
H83 C86 0.980 1_545 S
H84 C86 0.981 . S
H85 C86 0.981 . S
C86 C78 1.481 . S
C86 H83 0.980 1_565 S
C86 H84 0.981 . S
C86 H85 0.981 . S
C87 C74 1.481 . S
C87 H88 0.980 . S
C87 H89 0.981 . S
C87 H90 0.981 . S
H88 C87 0.980 . S
H89 C87 0.981 . S
H90 C87 0.981 . S
O91 Zn67 2.066 1_565 S
O91 C70 1.256 . S
O92 Zn64 2.053 1_565 S
O92 C70 1.244 . S
C93 O71 1.259 . S
C93 O72 1.254 . S
O94 Zn64 2.066 1_665 S
O94 C66 1.256 . S
O95 C66 1.244 . S
O95 Zn67 2.053 1_665 S
C6 C4 1.691 1_655 S
C38 C36 1.691 . S
C66 C93 1.692 . S
C68 C70 1.691 1_545 S
C2 C29 1.692 . S
C34 C61 1.691 . S
N50 N13 2.000 1_455 S
N45 N77 2.000 1_545 S
N82 N18 2.000 1_465 S
