# Generated by pormake.
# Topology sxc, (6)-cn, num edge types: 1
# Building blocks:
#     Node 0, Type 0, BuildingBlock: VOLQOD_clean_sbu_1, # of connection points: 6
#     Node 1, Type 0, BuildingBlock: VOLQOD_clean_sbu_1, # of connection points: 6
#     Node 2, Type 0, BuildingBlock: VOLQOD_clean_sbu_1, # of connection points: 6
#     Edge 3, Type (0, 0), None
#     Edge 4, Type (0, 0), None
#     Edge 5, Type (0, 0), None
#     Edge 6, Type (0, 0), None
#     Edge 7, Type (0, 0), None
#     Edge 8, Type (0, 0), None
#     Edge 9, Type (0, 0), None
#     Edge 10, Type (0, 0), None
#     Edge 11, Type (0, 0), None
# Relax obj value: 0.310
# Max RMSD: 0.245
# Mean RMSD: 0.245
data_MOF--net-sxc--node1-VOLQOD_clean_sbu_1--edge1-none
_symmetry_space_group_name_H-M    P1
_symmetry_Int_Tables_number       1
_symmetry_cell_setting            triclinic
loop_
_symmetry_equiv_pos_as_xyz
'x, y, z'
_cell_length_a     8.2692152
_cell_length_b     8.2689323
_cell_length_c     26.965873
_cell_angle_alpha  89.950551
_cell_angle_beta   90.070075
_cell_angle_gamma 120.00228
loop_
_atom_site_label
_atom_site_type_symbol
_atom_site_fract_x
_atom_site_fract_y
_atom_site_fract_z
_atom_type_partial_charge
O0 O 0.08727 0.97014 0.09639 0.0
Zn1 Zn 0.15072 -0.00968 0.02389 0.0
O2 O -0.0382 -0.01497 -0.01853 0.0
Zn3 Zn 0.83661 0.78522 0.93534 0.0
Zn4 Zn 0.77289 -0.02026 0.02374 0.0
Zn5 Zn 0.08706 0.185 0.93536 0.0
O6 O 0.91664 0.83481 0.86381 0.0
O7 O 0.0075 0.13562 0.86377 0.0
O8 O 0.11619 0.72294 0.01047 0.0
O9 O 0.86064 0.58777 0.96283 0.0
O10 O 0.56649 0.67236 0.9384 0.0
O11 O 0.56147 0.6899 0.01924 0.0
O12 O 0.80789 0.24736 0.01038 0.0
O13 O 0.36216 0.28025 0.01937 0.0
O14 O 0.06333 0.38264 0.96282 0.0
O15 O 0.35708 0.29728 0.93852 0.0
C16 C -0.03854 -0.01539 0.11944 0.0
C17 C -0.03771 -0.01473 0.84051 0.0
C18 C 0.51059 0.59026 0.97974 0.0
C19 C -0.02976 0.57643 -0.00687 0.0
C20 C 0.9539 0.39391 -0.00689 0.0
C21 C 0.41301 0.37965 0.97982 0.0
O22 O 0.83588 -0.00066 0.09626 0.0
O23 O 0.10193 0.11002 0.42961 0.0
Zn24 Zn 0.14468 0.17296 0.35708 0.0
O25 O -0.03924 -0.01607 0.3148 0.0
Zn26 Zn 0.03515 0.85852 0.26874 0.0
Zn27 Zn 0.7774 0.7951 0.35722 0.0
Zn28 Zn 0.88585 0.10898 0.26863 0.0
O29 O 0.06587 0.93861 0.19719 0.0
O30 O 0.85596 0.0295 0.19705 0.0
O31 O 0.37732 0.1381 0.34366 0.0
O32 O 0.25646 0.88209 0.29627 0.0
O33 O 0.87726 0.58848 0.27183 0.0
O34 O 0.85562 0.58352 0.35268 0.0
O35 O 0.54457 0.82981 0.34386 0.0
O36 O 0.0659 0.38418 0.35259 0.0
O37 O 0.66427 0.08476 0.29603 0.0
O38 O 0.04294 0.37911 0.27176 0.0
C39 C -0.03822 -0.01556 0.45278 0.0
C40 C -0.0389 -0.01576 0.17384 0.0
C41 C 0.9038 0.53249 0.31314 0.0
C42 C 0.37761 -0.00811 0.32647 0.0
C43 C 0.54378 -0.02445 0.32643 0.0
C44 C 0.01683 0.43492 0.31309 0.0
O45 O 0.82132 0.85862 0.42972 0.0
O46 O 0.94827 0.84516 0.76303 0.0
Zn47 Zn -0.03169 0.80191 0.69052 0.0
O48 O -0.03716 -0.0145 0.64814 0.0
Zn49 Zn 0.76277 0.91079 0.60203 0.0
Zn50 Zn -0.04228 0.16917 0.69045 0.0
Zn51 Zn 0.16252 0.06009 0.602 0.0
O52 O 0.81183 0.88005 0.5305 0.0
O53 O 0.11264 0.08999 0.53041 0.0
O54 O 0.70087 0.56901 0.67707 0.0
O55 O 0.56541 0.68944 0.62955 0.0
O56 O 0.65012 0.06823 0.60509 0.0
O57 O 0.66788 0.09082 0.68593 0.0
O58 O 0.22533 0.40176 0.67712 0.0
O59 O 0.25826 0.88055 0.68601 0.0
O60 O 0.36025 0.28163 0.62943 0.0
O61 O 0.27505 0.90256 0.60516 0.0
C62 C -0.03728 -0.0146 0.78611 0.0
C63 C -0.03789 -0.01519 0.50718 0.0
C64 C 0.56814 0.04209 0.64642 0.0
C65 C 0.55426 0.5685 0.6598 0.0
C66 C 0.37174 0.40233 0.65978 0.0
C67 C 0.35754 0.92908 0.64647 0.0
O68 O -0.02255 0.12576 0.76297 0.0
loop_
_geom_bond_atom_site_label_1
_geom_bond_atom_site_label_2
_geom_bond_distance
_geom_bond_site_symmetry_2
_ccdc_geom_bond_type
O0 Zn1 1.953 . S
O0 C16 1.225 1_565 S
Zn1 O0 1.953 . S
Zn1 O2 1.947 1_565 S
Zn1 O8 1.919 . S
Zn1 O13 1.924 1_565 S
O2 Zn1 1.947 1_545 S
O2 Zn3 1.924 1_444 S
O2 Zn4 1.949 1_455 S
O2 Zn5 1.946 1_554 S
Zn3 O2 1.924 1_666 S
Zn3 O6 1.933 . S
Zn3 O9 1.941 . S
Zn3 O10 1.965 . S
Zn4 O2 1.949 1_655 S
Zn4 O11 1.938 1_545 S
Zn4 O12 1.906 . S
Zn4 O22 1.953 . S
Zn5 O2 1.946 1_556 S
Zn5 O7 1.932 . S
Zn5 O14 1.977 . S
Zn5 O15 1.910 . S
O6 Zn3 1.933 . S
O6 C17 1.226 1_665 S
O7 Zn5 1.932 . S
O7 C17 1.307 . S
O8 Zn1 1.919 . S
O8 C19 1.253 1_554 S
O9 Zn3 1.941 . S
O9 C19 1.283 1_655 S
O10 Zn3 1.965 . S
O10 C18 1.303 1_556 S
O11 Zn4 1.938 1_565 S
O11 C18 1.247 . S
O12 Zn4 1.906 . S
O12 C20 1.304 1_554 S
O13 Zn1 1.924 1_545 S
O13 C21 1.311 . S
O14 Zn5 1.977 . S
O14 C20 1.272 1_455 S
O15 Zn5 1.910 . S
O15 C21 1.231 1_556 S
C16 O0 1.225 1_545 S
C16 O22 1.298 1_455 S
C17 O6 1.226 1_445 S
C17 O7 1.307 . S
C18 O10 1.303 1_554 S
C18 O11 1.247 . S
C19 O8 1.253 1_556 S
C19 O9 1.283 1_455 S
C20 O12 1.304 1_556 S
C20 O14 1.272 1_655 S
C21 O13 1.311 . S
C21 O15 1.231 1_554 S
O22 Zn4 1.953 . S
O22 C16 1.298 1_655 S
O23 Zn24 1.953 . S
O23 C39 1.225 . S
Zn24 O23 1.953 . S
Zn24 O25 1.946 1_455 S
Zn24 O31 1.919 . S
Zn24 O36 1.924 . S
O25 Zn24 1.946 1_655 S
O25 Zn26 1.920 1_645 S
O25 Zn27 1.952 1_545 S
O25 Zn28 1.947 . S
Zn26 O25 1.920 1_465 S
Zn26 O29 1.933 . S
Zn26 O32 1.941 . S
Zn26 O33 1.965 1_455 S
Zn27 O25 1.952 1_565 S
Zn27 O34 1.938 . S
Zn27 O35 1.906 . S
Zn27 O45 1.953 . S
Zn28 O25 1.947 . S
Zn28 O30 1.932 . S
Zn28 O37 1.977 . S
Zn28 O38 1.910 1_655 S
O29 Zn26 1.933 . S
O29 C40 1.226 1_565 S
O30 Zn28 1.932 . S
O30 C40 1.307 1_655 S
O31 Zn24 1.919 . S
O31 C42 1.253 . S
O32 Zn26 1.941 . S
O32 C42 1.283 1_565 S
O33 Zn26 1.965 1_655 S
O33 C41 1.303 . S
O34 Zn27 1.938 . S
O34 C41 1.247 . S
O35 Zn27 1.906 . S
O35 C43 1.304 . S
O36 Zn24 1.924 . S
O36 C44 1.311 . S
O37 Zn28 1.977 . S
O37 C43 1.272 1_545 S
O38 Zn28 1.910 1_455 S
O38 C44 1.231 . S
C39 O23 1.225 . S
C39 O45 1.298 1_445 S
C40 O29 1.226 1_545 S
C40 O30 1.307 1_455 S
C41 O33 1.303 . S
C41 O34 1.247 . S
C42 O31 1.253 . S
C42 O32 1.283 1_545 S
C43 O35 1.304 . S
C43 O37 1.272 1_565 S
C44 O36 1.311 . S
C44 O38 1.231 . S
O45 Zn27 1.953 . S
O45 C39 1.298 1_665 S
O46 Zn47 1.953 . S
O46 C62 1.225 1_665 S
Zn47 O46 1.953 . S
Zn47 O48 1.949 1_665 S
Zn47 O54 1.919 . S
Zn47 O59 1.924 1_655 S
O48 Zn47 1.949 1_445 S
O48 Zn49 1.923 1_445 S
O48 Zn50 1.950 . S
O48 Zn51 1.945 . S
Zn49 O48 1.923 1_665 S
Zn49 O52 1.933 . S
Zn49 O55 1.941 . S
Zn49 O56 1.965 1_565 S
Zn50 O48 1.950 . S
Zn50 O57 1.938 1_455 S
Zn50 O58 1.906 . S
Zn50 O68 1.953 . S
Zn51 O48 1.945 . S
Zn51 O53 1.932 . S
Zn51 O60 1.977 . S
Zn51 O61 1.910 1_545 S
O52 Zn49 1.933 . S
O52 C63 1.226 1_665 S
O53 Zn51 1.932 . S
O53 C63 1.307 . S
O54 Zn47 1.919 . S
O54 C65 1.253 . S
O55 Zn49 1.941 . S
O55 C65 1.283 . S
O56 Zn49 1.965 1_545 S
O56 C64 1.303 . S
O57 Zn50 1.938 1_655 S
O57 C64 1.247 . S
O58 Zn50 1.906 . S
O58 C66 1.304 . S
O59 Zn47 1.924 1_455 S
O59 C67 1.311 . S
O60 Zn51 1.977 . S
O60 C66 1.272 . S
O61 Zn51 1.910 1_565 S
O61 C67 1.231 . S
C62 O46 1.225 1_445 S
C62 O68 1.298 . S
C63 O52 1.226 1_445 S
C63 O53 1.307 . S
C64 O56 1.303 . S
C64 O57 1.247 . S
C65 O54 1.253 . S
C65 O55 1.283 . S
C66 O58 1.304 . S
C66 O60 1.272 . S
C67 O59 1.311 . S
C67 O61 1.231 . S
O68 Zn50 1.953 . S
O68 C62 1.298 . S
C20 C19 1.726 1_655 S
C42 C43 1.727 1_545 S
C65 C66 1.725 . S
C64 C67 2.293 1_545 S
C18 C21 2.293 . S
C44 C41 2.294 1_455 S
C40 C16 1.499 . S
C39 C63 1.498 . S
C62 C17 1.500 . S
