# Generated by pormake.
# Topology wjh, (4)-cn, num edge types: 1
# Building blocks:
#     Node 0, Type 0, BuildingBlock: QUQFOY_clean_sbu_1, # of connection points: 4
#     Node 1, Type 0, BuildingBlock: QUQFOY_clean_sbu_1, # of connection points: 4
#     Node 2, Type 0, BuildingBlock: QUQFOY_clean_sbu_1, # of connection points: 4
#     Node 3, Type 0, BuildingBlock: QUQFOY_clean_sbu_1, # of connection points: 4
#     Node 4, Type 0, BuildingBlock: QUQFOY_clean_sbu_1, # of connection points: 4
#     Node 5, Type 0, BuildingBlock: QUQFOY_clean_sbu_1, # of connection points: 4
#     Node 6, Type 0, BuildingBlock: QUQFOY_clean_sbu_1, # of connection points: 4
#     Node 7, Type 0, BuildingBlock: QUQFOY_clean_sbu_1, # of connection points: 4
#     Node 8, Type 0, BuildingBlock: QUQFOY_clean_sbu_1, # of connection points: 4
#     Node 9, Type 0, BuildingBlock: QUQFOY_clean_sbu_1, # of connection points: 4
#     Node 10, Type 0, BuildingBlock: QUQFOY_clean_sbu_1, # of connection points: 4
#     Node 11, Type 0, BuildingBlock: QUQFOY_clean_sbu_1, # of connection points: 4
#     Edge 12, Type (0, 0), None
#     Edge 13, Type (0, 0), None
#     Edge 14, Type (0, 0), None
#     Edge 15, Type (0, 0), None
#     Edge 16, Type (0, 0), None
#     Edge 17, Type (0, 0), None
#     Edge 18, Type (0, 0), None
#     Edge 19, Type (0, 0), None
#     Edge 20, Type (0, 0), None
#     Edge 21, Type (0, 0), None
#     Edge 22, Type (0, 0), None
#     Edge 23, Type (0, 0), None
#     Edge 24, Type (0, 0), None
#     Edge 25, Type (0, 0), None
#     Edge 26, Type (0, 0), None
#     Edge 27, Type (0, 0), None
#     Edge 28, Type (0, 0), None
#     Edge 29, Type (0, 0), None
#     Edge 30, Type (0, 0), None
#     Edge 31, Type (0, 0), None
#     Edge 32, Type (0, 0), None
#     Edge 33, Type (0, 0), None
#     Edge 34, Type (0, 0), None
#     Edge 35, Type (0, 0), None
# Relax obj value: 0.037
# Max RMSD: 0.071
# Mean RMSD: 0.071
data_MOF--net-wjh--node1-QUQFOY_clean_sbu_1--edge1-none
_symmetry_space_group_name_H-M    P1
_symmetry_Int_Tables_number       1
_symmetry_cell_setting            triclinic
loop_
_symmetry_equiv_pos_as_xyz
'x, y, z'
_cell_length_a     29.452045
_cell_length_b     29.451048
_cell_length_c     12.616157
_cell_angle_alpha  90.004748
_cell_angle_beta   89.990503
_cell_angle_gamma 119.99986
loop_
_atom_site_label
_atom_site_type_symbol
_atom_site_fract_x
_atom_site_fract_y
_atom_site_fract_z
_atom_type_partial_charge
O0 O 0.49691 0.05949 0.08823 0.0
Cd1 Cd 0.54972 0.13842 0.07729 0.0
Cd2 Cd 0.4722 0.13616 0.19575 0.0
O3 O 0.42539 0.06076 0.13618 0.0
O4 O 0.6016 0.14187 0.97031 0.0
O5 O 0.54811 0.17263 0.93965 0.0
C6 C 0.58327 0.16235 0.90532 0.0
C7 C 0.45806 0.20602 0.18038 0.0
C8 C 0.44776 0.03579 0.10444 0.0
C9 C 0.57384 0.16277 0.3022 0.0
O10 O 0.52498 0.1454 0.31264 0.0
O11 O 0.59441 0.16988 0.21083 0.0
O12 O 0.43306 0.17031 0.25096 0.0
O13 O 0.48827 0.20012 0.11422 0.0
O14 O 0.44459 0.49323 0.25493 0.0
Cd15 Cd 0.41847 0.54603 0.244 0.0
Cd16 Cd 0.3432 0.4685 0.36242 0.0
O17 O 0.37181 0.4217 0.30283 0.0
O18 O 0.4669 0.59792 0.13703 0.0
O19 O 0.38264 0.54441 0.10636 0.0
C20 C 0.42809 0.57958 0.07204 0.0
C21 C 0.25922 0.45439 0.34701 0.0
C22 C 0.41914 0.44407 0.27112 0.0
C23 C 0.41823 0.57014 0.46892 0.0
O24 O 0.38675 0.52128 0.47933 0.0
O25 O 0.43169 0.59072 0.37756 0.0
O26 O 0.26991 0.42937 0.41758 0.0
O27 O 0.29534 0.4846 0.28088 0.0
O28 O 0.95856 0.44094 0.42154 0.0
Cd29 Cd 0.87964 0.41482 0.41062 0.0
Cd30 Cd 0.8819 0.33956 0.52906 0.0
O31 O 0.95731 0.36816 0.46947 0.0
O32 O 0.8762 0.46326 0.30367 0.0
O33 O 0.84543 0.37901 0.27298 0.0
C34 C 0.85572 0.42446 0.23867 0.0
C35 C 0.81204 0.25556 0.51367 0.0
C36 C 0.98227 0.41549 0.43774 0.0
C37 C 0.85529 0.4146 0.63555 0.0
O38 O 0.87267 0.38311 0.64597 0.0
O39 O 0.84818 0.42806 0.54419 0.0
O40 O 0.84775 0.26627 0.58424 0.0
O41 O 0.81795 0.29168 0.44753 0.0
O42 O 0.52483 0.9549 0.58821 0.0
Cd43 Cd 0.47203 0.87597 0.57727 0.0
Cd44 Cd 0.54955 0.87823 0.6957 0.0
O45 O 0.59636 0.95364 0.63611 0.0
O46 O 0.42014 0.87252 0.47033 0.0
O47 O 0.47364 0.84176 0.43961 0.0
C48 C 0.43848 0.85205 0.40532 0.0
C49 C 0.56368 0.80837 0.68032 0.0
C50 C 0.57399 0.9786 0.6044 0.0
C51 C 0.4479 0.85162 0.80219 0.0
O52 O 0.49676 0.869 0.81261 0.0
O53 O 0.42733 0.8445 0.71084 0.0
O54 O 0.58868 0.84409 0.75089 0.0
O55 O 0.53348 0.81427 0.61417 0.0
O56 O 0.57711 0.52115 0.75491 0.0
Cd57 Cd 0.60325 0.46836 0.74396 0.0
Cd58 Cd 0.67851 0.54589 0.86238 0.0
O59 O 0.6499 0.59268 0.80279 0.0
O60 O 0.55481 0.41646 0.63701 0.0
O61 O 0.63906 0.46997 0.60629 0.0
C62 C 0.59361 0.4348 0.57199 0.0
C63 C 0.7625 0.56003 0.84701 0.0
C64 C 0.60256 0.57031 0.77109 0.0
C65 C 0.60348 0.44424 0.96887 0.0
O66 O 0.63495 0.4931 0.97928 0.0
O67 O 0.59003 0.42366 0.87751 0.0
O68 O 0.75178 0.58504 0.91758 0.0
O69 O 0.7264 0.52982 0.78086 0.0
O70 O 0.06316 0.57348 0.92155 0.0
Cd71 Cd 0.14208 0.5996 0.9106 0.0
Cd72 Cd 0.13981 0.67486 1.02906 0.0
O73 O 0.06441 0.64626 0.96948 0.0
O74 O 0.14553 0.55116 0.80363 0.0
O75 O 0.17629 0.63542 0.77294 0.0
C76 C 0.166 0.58996 0.73863 0.0
C77 C 0.20968 0.75885 1.01369 0.0
C78 C 0.03945 0.59893 0.93776 0.0
C79 C 0.16642 0.59982 0.13551 0.0
O80 O 0.14904 0.6313 0.14594 0.0
O81 O 0.17354 0.58636 1.04414 0.0
O82 O 0.17396 0.74814 0.08427 0.0
O83 O 0.20378 0.72274 0.94753 0.0
O84 O 0.95856 0.52118 0.9422 0.0
Cd85 Cd 0.87964 0.46837 0.95315 0.0
Cd86 Cd 0.8819 0.5459 0.83471 0.0
O87 O 0.9573 0.5927 0.8943 0.0
O88 O 0.87619 0.41648 0.0601 0.0
O89 O 0.84543 0.46998 0.09081 0.0
C90 C 0.85573 0.43482 0.1251 0.0
C91 C 0.81204 0.56003 0.85008 0.0
C92 C 0.98226 0.57033 0.92601 0.0
C93 C 0.85528 0.44425 0.72824 0.0
O94 O 0.87267 0.49312 0.71781 0.0
O95 O 0.84817 0.42367 0.81959 0.0
O96 O 0.84776 0.58504 0.77951 0.0
O97 O 0.81793 0.52983 0.91624 0.0
O98 O 0.44461 0.95489 0.10887 0.0
Cd99 Cd 0.41849 0.87597 0.11981 0.0
Cd100 Cd 0.34322 0.87823 1.00139 0.0
O101 O 0.37183 0.95364 0.06099 0.0
O102 O 0.46693 0.87252 0.22675 0.0
O103 O 0.38267 0.84176 0.25746 0.0
C104 C 0.42812 0.85206 0.29175 0.0
C105 C 0.25922 0.80838 1.01675 0.0
C106 C 0.41916 0.9786 0.09269 0.0
C107 C 0.41824 0.85161 0.89489 0.0
O108 O 0.38677 0.869 0.88447 0.0
O109 O 0.43171 0.8445 0.98623 0.0
O110 O 0.26994 0.8441 0.9462 0.0
O111 O 0.29532 0.81427 0.08291 0.0
O112 O 0.49689 0.44093 0.27556 0.0
Cd113 Cd 0.54971 0.41482 0.28648 0.0
Cd114 Cd 0.47218 0.33954 0.16805 0.0
O115 O 0.42538 0.36815 0.22764 0.0
O116 O 0.60159 0.46326 0.39344 0.0
O117 O 0.5481 0.37899 0.42411 0.0
C118 C 0.58325 0.42445 0.45842 0.0
C119 C 0.45806 0.25556 0.18343 0.0
C120 C 0.44774 0.41548 0.25937 0.0
C121 C 0.57383 0.41458 0.06156 0.0
O122 O 0.52497 0.38309 0.05114 0.0
O123 O 0.5944 0.42806 0.15291 0.0
O124 O 0.43305 0.26626 0.11286 0.0
O125 O 0.48826 0.29166 0.24958 0.0
O126 O 0.06316 0.49325 0.44219 0.0
Cd127 Cd 0.14208 0.54606 0.45311 0.0
Cd128 Cd 0.13983 0.46852 0.33466 0.0
O129 O 0.06442 0.42172 0.39425 0.0
O130 O 0.14552 0.59794 0.56008 0.0
O131 O 0.17629 0.54445 0.59074 0.0
C132 C 0.16599 0.5796 0.62506 0.0
C133 C 0.20969 0.4544 0.35005 0.0
C134 C 0.03946 0.44409 0.42599 0.0
C135 C 0.16644 0.57017 0.22819 0.0
O136 O 0.14907 0.52131 0.21776 0.0
O137 O 0.17354 0.59075 0.31954 0.0
O138 O 0.17398 0.42939 0.27948 0.0
O139 O 0.20378 0.48461 0.4162 0.0
O140 O 0.57713 0.0595 0.60884 0.0
Cd141 Cd 0.60324 0.13842 0.61979 0.0
Cd142 Cd 0.67852 0.13616 0.50134 0.0
O143 O 0.64991 0.06076 0.56093 0.0
O144 O 0.55481 0.14187 0.72677 0.0
O145 O 0.63907 0.17263 0.75742 0.0
C146 C 0.59362 0.16234 0.79174 0.0
C147 C 0.76251 0.20603 0.51672 0.0
C148 C 0.60258 0.03579 0.59265 0.0
C149 C 0.6035 0.16278 0.39488 0.0
O150 O 0.63498 0.1454 0.38444 0.0
O151 O 0.59002 0.16989 0.48623 0.0
O152 O 0.75181 0.17031 0.44615 0.0
O153 O 0.72639 0.20012 0.58288 0.0
O154 O 0.52481 0.57344 0.77555 0.0
Cd155 Cd 0.472 0.59955 0.7865 0.0
Cd156 Cd 0.54953 0.67483 0.66804 0.0
O157 O 0.59633 0.64623 0.72761 0.0
O158 O 0.42011 0.55111 0.89348 0.0
O159 O 0.47361 0.63538 0.92414 0.0
C160 C 0.43845 0.58993 0.95846 0.0
C161 C 0.56367 0.75883 0.68339 0.0
C162 C 0.57396 0.5989 0.75935 0.0
C163 C 0.44788 0.5998 0.5616 0.0
O164 O 0.49674 0.63128 0.55116 0.0
O165 O 0.42731 0.58632 0.65296 0.0
O166 O 0.58868 0.74811 0.61281 0.0
O167 O 0.53347 0.72273 0.74957 0.0
loop_
_geom_bond_atom_site_label_1
_geom_bond_atom_site_label_2
_geom_bond_distance
_geom_bond_site_symmetry_2
_ccdc_geom_bond_type
O0 Cd1 2.223 . S
O0 C8 1.315 . S
Cd1 O0 2.223 . S
Cd1 O4 2.297 1_554 S
Cd1 O5 2.439 1_554 S
Cd1 O11 2.240 . S
Cd2 O3 2.240 . S
Cd2 O10 2.223 . S
Cd2 O12 2.297 . S
Cd2 O13 2.439 . S
O3 Cd2 2.240 . S
O3 C8 1.279 . S
O4 Cd1 2.297 1_556 S
O4 C6 1.247 . S
O5 Cd1 2.439 1_556 S
O5 C6 1.208 . S
C6 O4 1.247 . S
C6 O5 1.208 . S
C7 O12 1.247 . S
C7 O13 1.208 . S
C8 O0 1.315 . S
C8 O3 1.279 . S
C9 O10 1.315 . S
C9 O11 1.279 . S
O10 Cd2 2.223 . S
O10 C9 1.315 . S
O11 Cd1 2.240 . S
O11 C9 1.279 . S
O12 Cd2 2.297 . S
O12 C7 1.247 . S
O13 Cd2 2.439 . S
O13 C7 1.208 . S
O14 Cd15 2.223 . S
O14 C22 1.315 . S
Cd15 O14 2.223 . S
Cd15 O18 2.297 . S
Cd15 O19 2.439 . S
Cd15 O25 2.240 . S
Cd16 O17 2.240 . S
Cd16 O24 2.223 . S
Cd16 O26 2.297 . S
Cd16 O27 2.439 . S
O17 Cd16 2.240 . S
O17 C22 1.279 . S
O18 Cd15 2.297 . S
O18 C20 1.247 . S
O19 Cd15 2.439 . S
O19 C20 1.208 . S
C20 O18 1.247 . S
C20 O19 1.208 . S
C21 O26 1.247 . S
C21 O27 1.208 . S
C22 O14 1.315 . S
C22 O17 1.279 . S
C23 O24 1.315 . S
C23 O25 1.279 . S
O24 Cd16 2.223 . S
O24 C23 1.315 . S
O25 Cd15 2.240 . S
O25 C23 1.279 . S
O26 Cd16 2.297 . S
O26 C21 1.247 . S
O27 Cd16 2.439 . S
O27 C21 1.208 . S
O28 Cd29 2.223 . S
O28 C36 1.315 . S
Cd29 O28 2.223 . S
Cd29 O32 2.297 . S
Cd29 O33 2.439 . S
Cd29 O39 2.240 . S
Cd30 O31 2.240 . S
Cd30 O38 2.223 . S
Cd30 O40 2.297 . S
Cd30 O41 2.439 . S
O31 Cd30 2.240 . S
O31 C36 1.279 . S
O32 Cd29 2.297 . S
O32 C34 1.247 . S
O33 Cd29 2.439 . S
O33 C34 1.208 . S
C34 O32 1.247 . S
C34 O33 1.208 . S
C35 O40 1.247 . S
C35 O41 1.208 . S
C36 O28 1.315 . S
C36 O31 1.279 . S
C37 O38 1.315 . S
C37 O39 1.279 . S
O38 Cd30 2.223 . S
O38 C37 1.315 . S
O39 Cd29 2.240 . S
O39 C37 1.279 . S
O40 Cd30 2.297 . S
O40 C35 1.247 . S
O41 Cd30 2.439 . S
O41 C35 1.208 . S
O42 Cd43 2.223 . S
O42 C50 1.315 . S
Cd43 O42 2.223 . S
Cd43 O46 2.297 . S
Cd43 O47 2.439 . S
Cd43 O53 2.240 . S
Cd44 O45 2.240 . S
Cd44 O52 2.223 . S
Cd44 O54 2.297 . S
Cd44 O55 2.439 . S
O45 Cd44 2.240 . S
O45 C50 1.279 . S
O46 Cd43 2.297 . S
O46 C48 1.247 . S
O47 Cd43 2.439 . S
O47 C48 1.208 . S
C48 O46 1.247 . S
C48 O47 1.208 . S
C49 O54 1.247 . S
C49 O55 1.208 . S
C50 O42 1.315 . S
C50 O45 1.279 . S
C51 O52 1.315 . S
C51 O53 1.279 . S
O52 Cd44 2.223 . S
O52 C51 1.315 . S
O53 Cd43 2.240 . S
O53 C51 1.279 . S
O54 Cd44 2.297 . S
O54 C49 1.247 . S
O55 Cd44 2.439 . S
O55 C49 1.208 . S
O56 Cd57 2.223 . S
O56 C64 1.315 . S
Cd57 O56 2.223 . S
Cd57 O60 2.297 . S
Cd57 O61 2.439 . S
Cd57 O67 2.240 . S
Cd58 O59 2.240 . S
Cd58 O66 2.223 . S
Cd58 O68 2.297 . S
Cd58 O69 2.439 . S
O59 Cd58 2.240 . S
O59 C64 1.279 . S
O60 Cd57 2.297 . S
O60 C62 1.247 . S
O61 Cd57 2.439 . S
O61 C62 1.208 . S
C62 O60 1.247 . S
C62 O61 1.208 . S
C63 O68 1.247 . S
C63 O69 1.208 . S
C64 O56 1.315 . S
C64 O59 1.279 . S
C65 O66 1.315 . S
C65 O67 1.279 . S
O66 Cd58 2.223 . S
O66 C65 1.315 . S
O67 Cd57 2.240 . S
O67 C65 1.279 . S
O68 Cd58 2.297 . S
O68 C63 1.247 . S
O69 Cd58 2.439 . S
O69 C63 1.208 . S
O70 Cd71 2.223 . S
O70 C78 1.315 . S
Cd71 O70 2.223 . S
Cd71 O74 2.297 . S
Cd71 O75 2.439 . S
Cd71 O81 2.240 1_556 S
Cd72 O73 2.240 . S
Cd72 O80 2.223 1_556 S
Cd72 O82 2.297 1_556 S
Cd72 O83 2.439 . S
O73 Cd72 2.240 . S
O73 C78 1.279 . S
O74 Cd71 2.297 . S
O74 C76 1.247 . S
O75 Cd71 2.439 . S
O75 C76 1.208 . S
C76 O74 1.247 . S
C76 O75 1.208 . S
C77 O82 1.247 1_556 S
C77 O83 1.208 . S
C78 O70 1.315 . S
C78 O73 1.279 . S
C79 O80 1.315 . S
C79 O81 1.279 . S
O80 Cd72 2.223 1_554 S
O80 C79 1.315 . S
O81 Cd71 2.240 1_554 S
O81 C79 1.279 . S
O82 Cd72 2.297 1_554 S
O82 C77 1.247 1_554 S
O83 Cd72 2.439 . S
O83 C77 1.208 . S
O84 Cd85 2.223 . S
O84 C92 1.315 . S
Cd85 O84 2.223 . S
Cd85 O88 2.297 1_556 S
Cd85 O89 2.439 1_556 S
Cd85 O95 2.240 . S
Cd86 O87 2.240 . S
Cd86 O94 2.223 . S
Cd86 O96 2.297 . S
Cd86 O97 2.439 . S
O87 Cd86 2.240 . S
O87 C92 1.279 . S
O88 Cd85 2.297 1_554 S
O88 C90 1.247 . S
O89 Cd85 2.439 1_554 S
O89 C90 1.208 . S
C90 O88 1.247 . S
C90 O89 1.208 . S
C91 O96 1.247 . S
C91 O97 1.208 . S
C92 O84 1.315 . S
C92 O87 1.279 . S
C93 O94 1.315 . S
C93 O95 1.279 . S
O94 Cd86 2.223 . S
O94 C93 1.315 . S
O95 Cd85 2.240 . S
O95 C93 1.279 . S
O96 Cd86 2.297 . S
O96 C91 1.247 . S
O97 Cd86 2.439 . S
O97 C91 1.208 . S
O98 Cd99 2.223 . S
O98 C106 1.315 . S
Cd99 O98 2.223 . S
Cd99 O102 2.297 . S
Cd99 O103 2.439 . S
Cd99 O109 2.240 1_554 S
Cd100 O101 2.240 1_556 S
Cd100 O108 2.223 . S
Cd100 O110 2.297 . S
Cd100 O111 2.439 1_556 S
O101 Cd100 2.240 1_554 S
O101 C106 1.279 . S
O102 Cd99 2.297 . S
O102 C104 1.247 . S
O103 Cd99 2.439 . S
O103 C104 1.208 . S
C104 O102 1.247 . S
C104 O103 1.208 . S
C105 O110 1.247 . S
C105 O111 1.208 1_556 S
C106 O98 1.315 . S
C106 O101 1.279 . S
C107 O108 1.315 . S
C107 O109 1.279 . S
O108 Cd100 2.223 . S
O108 C107 1.315 . S
O109 Cd99 2.240 1_556 S
O109 C107 1.279 . S
O110 Cd100 2.297 . S
O110 C105 1.247 . S
O111 Cd100 2.439 1_554 S
O111 C105 1.208 1_554 S
O112 Cd113 2.223 . S
O112 C120 1.315 . S
Cd113 O112 2.223 . S
Cd113 O116 2.297 . S
Cd113 O117 2.439 . S
Cd113 O123 2.240 . S
Cd114 O115 2.240 . S
Cd114 O122 2.218 1_554 S
Cd114 O124 2.297 . S
Cd114 O125 2.439 . S
O115 Cd114 2.240 . S
O115 C120 1.279 . S
O116 Cd113 2.297 . S
O116 C118 1.247 . S
O117 Cd113 2.439 . S
O117 C118 1.208 . S
C118 O116 1.247 . S
C118 O117 1.208 . S
C119 O124 1.247 . S
C119 O125 1.208 . S
C120 O112 1.315 . S
C120 O115 1.279 . S
C121 O122 1.314 1_554 S
C121 O123 1.279 . S
O122 Cd114 2.218 1_556 S
O122 C121 1.314 1_556 S
O123 Cd113 2.240 . S
O123 C121 1.279 . S
O124 Cd114 2.297 . S
O124 C119 1.247 . S
O125 Cd114 2.439 . S
O125 C119 1.208 . S
O126 Cd127 2.223 . S
O126 C134 1.315 . S
Cd127 O126 2.223 . S
Cd127 O130 2.297 . S
Cd127 O131 2.439 . S
Cd127 O137 2.240 . S
Cd128 O129 2.240 . S
Cd128 O136 2.223 . S
Cd128 O138 2.297 . S
Cd128 O139 2.439 . S
O129 Cd128 2.240 . S
O129 C134 1.279 . S
O130 Cd127 2.297 . S
O130 C132 1.247 . S
O131 Cd127 2.439 . S
O131 C132 1.208 . S
C132 O130 1.247 . S
C132 O131 1.208 . S
C133 O138 1.247 . S
C133 O139 1.208 . S
C134 O126 1.315 . S
C134 O129 1.279 . S
C135 O136 1.315 . S
C135 O137 1.279 . S
O136 Cd128 2.223 . S
O136 C135 1.315 . S
O137 Cd127 2.240 . S
O137 C135 1.279 . S
O138 Cd128 2.297 . S
O138 C133 1.247 . S
O139 Cd128 2.439 . S
O139 C133 1.208 . S
O140 Cd141 2.223 . S
O140 C148 1.315 . S
Cd141 O140 2.223 . S
Cd141 O144 2.297 . S
Cd141 O145 2.439 . S
Cd141 O151 2.240 . S
Cd142 O143 2.240 . S
Cd142 O150 2.223 . S
Cd142 O152 2.297 . S
Cd142 O153 2.439 . S
O143 Cd142 2.240 . S
O143 C148 1.279 . S
O144 Cd141 2.297 . S
O144 C146 1.247 . S
O145 Cd141 2.439 . S
O145 C146 1.208 . S
C146 O144 1.247 . S
C146 O145 1.208 . S
C147 O152 1.247 . S
C147 O153 1.208 . S
C148 O140 1.315 . S
C148 O143 1.279 . S
C149 O150 1.315 . S
C149 O151 1.279 . S
O150 Cd142 2.223 . S
O150 C149 1.315 . S
O151 Cd141 2.240 . S
O151 C149 1.279 . S
O152 Cd142 2.297 . S
O152 C147 1.247 . S
O153 Cd142 2.439 . S
O153 C147 1.208 . S
O154 Cd155 2.223 . S
O154 C162 1.315 . S
Cd155 O154 2.223 . S
Cd155 O158 2.297 . S
Cd155 O159 2.439 . S
Cd155 O165 2.240 . S
Cd156 O157 2.240 . S
Cd156 O164 2.223 . S
Cd156 O166 2.297 . S
Cd156 O167 2.439 . S
O157 Cd156 2.240 . S
O157 C162 1.279 . S
O158 Cd155 2.297 . S
O158 C160 1.247 . S
O159 Cd155 2.439 . S
O159 C160 1.208 . S
C160 O158 1.247 . S
C160 O159 1.208 . S
C161 O166 1.247 . S
C161 O167 1.208 . S
C162 O154 1.315 . S
C162 O157 1.279 . S
C163 O164 1.315 . S
C163 O165 1.279 . S
O164 Cd156 2.223 . S
O164 C163 1.315 . S
O165 Cd155 2.240 . S
O165 C163 1.279 . S
O166 Cd156 2.297 . S
O166 C161 1.247 . S
O167 Cd156 2.439 . S
O167 C161 1.208 . S
C9 C149 2.039 . S
C23 C163 2.039 . S
C93 C37 2.039 . S
C51 C107 2.039 . S
C121 C65 2.039 1_554 S
C135 C79 2.039 . S
C119 C7 1.499 . S
C21 C133 1.500 . S
C147 C35 1.500 . S
C49 C161 1.499 . S
C63 C91 1.500 . S
C77 C105 1.500 . S
C146 C6 1.214 . S
C160 C20 1.214 1_556 S
C90 C34 1.214 . S
C48 C104 1.214 . S
C62 C118 1.214 . S
C132 C76 1.214 . S
C8 C106 1.247 1_545 S
C120 C22 1.247 . S
C134 C36 1.247 1_455 S
C50 C148 1.247 1_565 S
C64 C162 1.247 . S
C78 C92 1.247 1_455 S
