# Generated by pormake.
# Topology pcu, (6)-cn, num edge types: 1
# Building blocks:
#     Node 0, Type 0, BuildingBlock: KUMBUR_clean_sbu_1, # of connection points: 6
#     Edge 1, Type (0, 0), BuildingBlock: UVAHIK_clean_linker_0, # of connection points: 2
#     Edge 2, Type (0, 0), BuildingBlock: UVAHIK_clean_linker_0, # of connection points: 2
#     Edge 3, Type (0, 0), BuildingBlock: UVAHIK_clean_linker_0, # of connection points: 2
# Relax obj value: 0.000
# Max RMSD: 0.000
# Mean RMSD: 0.000
data_MOF--net-pcu--node1-KUMBUR_clean_sbu_1--edge1-UVAHIK_clean_linker_0
_symmetry_space_group_name_H-M    P1
_symmetry_Int_Tables_number       1
_symmetry_cell_setting            triclinic
loop_
_symmetry_equiv_pos_as_xyz
'x, y, z'
_cell_length_a     19.326381
_cell_length_b     28.876483
_cell_length_c     19.365888
_cell_angle_alpha  114.26514
_cell_angle_beta   89.240636
_cell_angle_gamma 115.60541
loop_
_atom_site_label
_atom_site_type_symbol
_atom_site_fract_x
_atom_site_fract_y
_atom_site_fract_z
_atom_type_partial_charge
Tb0 Tb 0.96296 0.92626 0.94121 0.0
C1 C 0.24629 0.16708 0.1221 0.0
N2 N 0.17759 0.14333 0.14392 0.0
C3 C 0.24743 0.1732 0.26844 0.0
C4 C 0.3187 0.19378 0.1723 0.0
C5 C 0.17703 0.14671 0.21635 0.0
C6 C 0.3186 0.19664 0.24626 0.0
C7 C 0.31346 0.18587 0.02272 0.0
C8 C 0.24343 0.16226 0.04779 0.0
C9 C 0.38592 0.21201 0.07216 0.0
C10 C 0.38853 0.21591 0.14675 0.0
Tb11 Tb 0.06635 0.10094 0.05441 0.0
N12 N 0.17211 0.13583 0.00104 0.0
C13 C 0.30858 0.18384 0.94949 0.0
C14 C 0.16761 0.13918 0.93299 0.0
C15 C 0.23531 0.16147 0.90515 0.0
H16 H 0.12228 0.12952 0.23422 0.0
H17 H 0.23096 0.16266 0.85029 0.0
H18 H 0.90708 0.89769 0.76139 0.0
H19 H 0.79828 0.86461 0.14533 0.0
H20 H 0.11263 0.12707 0.90099 0.0
H21 H 0.36096 0.20158 0.92808 0.0
H22 H 0.91662 0.90017 0.09465 0.0
H23 H 0.24675 0.17558 0.32568 0.0
H24 H 0.44028 0.22997 0.05361 0.0
H25 H 0.44481 0.23632 0.18429 0.0
H26 H 0.78264 0.85164 0.6699 0.0
H27 H 0.37303 0.21681 0.28658 0.0
H28 H 0.66829 0.82568 0.06749 0.0
N29 N 0.85174 0.88388 0.85167 0.0
C30 C 0.78303 0.86013 0.87348 0.0
C31 C 0.78194 0.85401 0.72714 0.0
C32 C 0.71064 0.83344 0.82326 0.0
C33 C 0.85232 0.88051 0.77924 0.0
C34 C 0.71076 0.83058 0.7493 0.0
N35 N 0.85718 0.89136 0.99454 0.0
C36 C 0.86166 0.88806 0.06262 0.0
C37 C 0.71582 0.84136 0.97284 0.0
C38 C 0.78587 0.86496 0.94778 0.0
C39 C 0.72068 0.84341 0.04609 0.0
C40 C 0.79394 0.86578 0.09046 0.0
H41 H 0.65634 0.81042 0.70897 0.0
H42 H 0.58451 0.79092 0.81125 0.0
H43 H 0.58901 0.79727 0.94193 0.0
O44 O 0.98174 0.86346 0.95829 0.0
O45 O 0.89373 0.96992 0.93999 0.0
O46 O 0.9435 0.05159 0.05622 0.0
O47 O 0.95555 0.8551 0.84383 0.0
O48 O 0.01665 0.9696 0.06514 0.0
O49 O 1.00439 0.05317 0.11804 0.0
O50 O 0.04756 0.16375 0.03734 0.0
O51 O 0.13559 0.0573 0.05563 0.0
O52 O 0.08582 0.97562 0.93941 0.0
O53 O 0.07378 0.17211 0.1518 0.0
O54 O 1.01266 0.05761 0.93048 0.0
O55 O 0.02494 0.97404 0.87758 0.0
C56 C 0.88595 1.01087 0.99731 0.0
C57 C 0.97446 0.77802 0.84582 0.0
C58 C 0.99216 0.69963 0.84896 0.0
C59 C 0.98572 0.67592 0.76827 0.0
C60 C 0.96829 0.75294 0.76517 0.0
C61 C 0.97375 0.70234 0.72692 0.0
C62 C 0.9858 0.7508 0.88773 0.0
C63 C 1.01247 1.01195 0.12438 0.0
C64 C 0.97049 0.83289 0.88403 0.0
C65 C 0.64079 0.81132 0.8488 0.0
C66 C 0.64338 0.81523 0.92339 0.0
C67 C 0.14337 0.01634 -0.00168 0.0
C68 C 0.05485 0.24919 0.14982 0.0
C69 C 0.03715 0.32757 0.14669 0.0
C70 C 0.04359 0.35128 0.22738 0.0
C71 C 0.06103 0.27427 0.23046 0.0
C72 C 0.04351 0.27641 0.10791 0.0
C73 C 0.05556 0.32487 0.26872 0.0
C74 C 0.01685 0.01526 0.87125 0.0
C75 C 0.05883 0.19431 0.1116 0.0
H76 H 0.98903 0.6363 0.73677 0.0
H77 H 0.95958 0.77258 0.73125 0.0
H78 H 0.96878 0.68351 0.66482 0.0
H79 H 0.99091 0.76966 0.94991 0.0
H80 H 0.04027 0.3909 0.25888 0.0
H81 H 0.06974 0.25462 0.26439 0.0
H82 H 0.0384 0.25755 0.04573 0.0
H83 H 0.06053 0.34369 0.33083 0.0
C84 C 0.04418 0.98121 0.21841 0.0
C85 C 1.01399 1.01246 0.20117 0.0
C86 C 0.04463 0.98149 0.29082 0.0
C87 C 0.95004 1.00998 0.46013 0.0
H88 H 0.13052 0.02094 0.56412 0.0
C89 C 0.98514 0.04599 0.77721 0.0
C90 C 0.01534 0.01475 0.79446 0.0
C91 C 0.98469 0.04571 0.7048 0.0
C92 C 0.0793 0.01723 0.53549 0.0
H93 H 0.96112 0.06887 0.24664 0.0
H94 H 0.96291 0.06996 0.37299 0.0
H95 H 0.13059 0.02016 0.43773 0.0
H96 H 0.06824 0.95836 0.749 0.0
H97 H 0.06646 0.95726 0.62265 0.0
H98 H 0.89875 1.00705 0.55789 0.0
C99 C 0.98521 0.04455 0.3303 0.0
C100 C 0.07934 0.01675 0.46301 0.0
C101 C 0.98481 0.0443 0.25803 0.0
C102 C 0.04454 0.98292 0.7376 0.0
C103 C 0.04415 0.98267 0.66534 0.0
C104 C 0.95 1.01046 0.53262 0.0
C105 C 0.01491 1.01304 0.34755 0.0
C106 C 0.01473 1.01315 0.42445 0.0
C107 C 1.01443 0.01417 0.64807 0.0
C108 C 0.01461 0.01406 0.57117 0.0
H109 H 0.06736 0.95644 0.17589 0.0
H110 H 0.06727 0.95632 0.30197 0.0
H111 H 0.89882 1.00627 0.4315 0.0
H112 H 0.96195 0.07076 0.81972 0.0
H113 H 0.96205 0.07088 0.69364 0.0
C114 C 0.27598 0.04722 0.0675 0.0
C115 C 0.22009 0.01661 -0.00142 0.0
C116 C 0.34825 0.04707 0.06736 0.0
C117 C 0.44564 0.96335 0.95385 0.0
H118 H 0.63656 0.10354 0.07537 0.0
C119 C 0.75334 0.97999 0.92813 0.0
C120 C 0.80923 1.0106 0.99705 0.0
C121 C 0.68108 0.98015 0.92827 0.0
C122 C 0.58368 0.06386 0.04178 0.0
H123 H 0.19606 0.96162 0.87539 0.0
H124 H 0.32188 0.96127 0.87515 0.0
H125 H 0.51157 0.10539 0.07599 0.0
H126 H 0.83326 0.06558 0.12024 0.0
H127 H 0.70744 0.06594 0.12049 0.0
H128 H 0.51775 0.92183 0.91964 0.0
C129 C 0.30979 0.98512 0.92947 0.0
C130 C 0.51204 0.06494 0.04216 0.0
C131 C 0.23774 0.98548 0.9296 0.0
C132 C 0.79158 0.04173 0.06603 0.0
C133 C 0.71953 0.04209 0.06616 0.0
C134 C 0.51728 0.96227 0.95347 0.0
C135 C 0.36589 0.01581 -0.00165 0.0
C136 C 0.44215 0.0147 -0.00183 0.0
C137 C 0.66343 1.01141 0.99728 0.0
C138 C 0.58717 1.01251 0.99746 0.0
H139 H 0.26337 0.0704 0.12186 0.0
H140 H 0.38964 0.07046 0.12165 0.0
H141 H 0.39276 0.92368 0.92027 0.0
H142 H 0.76595 0.95682 0.87377 0.0
H143 H 0.63968 0.95676 0.87399 0.0
C144 C 0.95679 0.65571 0.94145 0.0
C145 C 1.00464 0.66942 0.89031 0.0
C146 C 0.96109 0.61951 0.97043 0.0
C147 C 0.02363 0.50669 0.92315 0.0
H148 H 0.99994 0.52746 0.13118 0.0
C149 C 0.07251 0.37149 0.0542 0.0
C150 C 0.02466 0.35779 0.10534 0.0
C151 C 0.0682 0.4077 0.02521 0.0
C152 C 1.00565 0.52052 0.07249 0.0
H153 H 0.0982 0.6592 0.83381 0.0
H154 H 0.1067 0.59728 0.88511 0.0
H155 H 0.99883 0.59671 0.09066 0.0
H156 H 0.93111 0.36801 0.16184 0.0
H157 H 0.92259 0.42992 0.11055 0.0
H158 H 0.03045 0.4305 0.90498 0.0
C159 C 0.06411 0.61281 0.90115 0.0
C160 C 1.00512 0.5604 0.04931 0.0
C161 C 0.05963 0.64868 0.87215 0.0
C162 C 0.96967 0.37852 0.12351 0.0
C163 C 0.96518 0.4144 0.0945 0.0
C164 C 0.02417 0.4668 0.94634 0.0
C165 C 1.01359 0.59646 0.94911 0.0
C166 C 1.01423 0.55412 0.97434 0.0
C167 C 0.01571 0.43075 0.04655 0.0
C168 C 0.01506 0.47308 0.02131 0.0
H169 H 0.91345 0.67066 0.95603 0.0
H170 H 0.92102 0.60773 0.00699 0.0
H171 H 0.02935 0.49974 0.86447 0.0
H172 H 0.11584 0.35655 0.03962 0.0
H173 H 0.10827 0.41948 0.98865 0.0
loop_
_geom_bond_atom_site_label_1
_geom_bond_atom_site_label_2
_geom_bond_distance
_geom_bond_site_symmetry_2
_ccdc_geom_bond_type
Tb0 N29 2.617 . S
Tb0 N35 2.572 . S
Tb0 O44 2.465 . S
Tb0 O45 2.387 . S
Tb0 O47 2.428 . S
Tb0 O48 2.308 1_556 S
Tb0 O52 2.349 1_655 S
Tb0 O55 2.393 . S
Tb0 C64 2.802 . S
C1 N2 1.379 . S
C1 C4 1.416 . S
C1 C8 1.424 . S
N2 C1 1.379 . S
N2 C5 1.334 . S
N2 Tb11 2.617 . S
C3 C5 1.390 . S
C3 C6 1.339 . S
C3 H23 0.930 . S
C4 C1 1.416 . S
C4 C6 1.416 . S
C4 C10 1.448 . S
C5 N2 1.334 . S
C5 C3 1.390 . S
C5 H16 0.930 . S
C6 C3 1.339 . S
C6 C4 1.416 . S
C6 H27 0.930 . S
C7 C8 1.413 . S
C7 C9 1.427 . S
C7 C13 1.416 . S
C8 C1 1.424 . S
C8 C7 1.413 . S
C8 N12 1.361 . S
C9 C7 1.427 . S
C9 C10 1.328 . S
C9 H24 0.929 . S
C10 C4 1.448 . S
C10 C9 1.328 . S
C10 H25 0.930 . S
Tb11 N2 2.617 . S
Tb11 N12 2.572 . S
Tb11 O46 2.349 1_455 S
Tb11 O49 2.393 . S
Tb11 O50 2.465 . S
Tb11 O51 2.387 . S
Tb11 O53 2.428 . S
Tb11 O54 2.308 1_554 S
Tb11 C75 2.802 . S
N12 C8 1.361 . S
N12 Tb11 2.572 . S
N12 C14 1.340 1_554 S
C13 C7 1.416 . S
C13 C15 1.332 1_554 S
C13 H21 0.931 1_554 S
C14 N12 1.340 1_556 S
C14 C15 1.407 . S
C14 H20 0.930 . S
C15 C13 1.332 1_556 S
C15 C14 1.407 . S
C15 H17 0.929 . S
H16 C5 0.930 . S
H17 C15 0.929 . S
H18 C33 0.930 . S
H19 C40 0.929 . S
H20 C14 0.930 . S
H21 C13 0.931 1_556 S
H22 C36 0.930 . S
H23 C3 0.930 . S
H24 C9 0.929 . S
H25 C10 0.930 . S
H26 C31 0.930 . S
H27 C6 0.930 . S
H28 C39 0.931 1_554 S
N29 Tb0 2.617 . S
N29 C30 1.379 . S
N29 C33 1.334 . S
C30 N29 1.379 . S
C30 C32 1.416 . S
C30 C38 1.424 . S
C31 H26 0.930 . S
C31 C33 1.390 . S
C31 C34 1.339 . S
C32 C30 1.416 . S
C32 C34 1.416 . S
C32 C65 1.448 . S
C33 H18 0.930 . S
C33 N29 1.334 . S
C33 C31 1.390 . S
C34 C31 1.339 . S
C34 C32 1.416 . S
C34 H41 0.930 . S
N35 Tb0 2.572 . S
N35 C36 1.340 1_556 S
N35 C38 1.361 . S
C36 H22 0.930 . S
C36 N35 1.340 1_554 S
C36 C40 1.407 . S
C37 C38 1.413 . S
C37 C39 1.416 . S
C37 C66 1.427 . S
C38 C30 1.424 . S
C38 N35 1.361 . S
C38 C37 1.413 . S
C39 H28 0.931 1_556 S
C39 C37 1.416 . S
C39 C40 1.332 1_556 S
C40 H19 0.929 . S
C40 C36 1.407 . S
C40 C39 1.332 1_554 S
H41 C34 0.930 . S
H42 C65 0.930 . S
H43 C66 0.929 . S
O44 Tb0 2.465 . S
O44 C64 1.264 . S
O45 Tb0 2.387 . S
O45 C56 1.257 1_565 S
O46 Tb11 2.349 1_655 S
O46 C56 1.247 1_554 S
O47 Tb0 2.428 . S
O47 C64 1.256 . S
O48 Tb0 2.308 1_554 S
O48 C63 1.266 1_565 S
O49 Tb11 2.393 . S
O49 C63 1.248 1_455 S
O50 Tb11 2.465 . S
O50 C75 1.264 . S
O51 Tb11 2.387 . S
O51 C67 1.262 1_545 S
O52 Tb0 2.349 1_455 S
O52 C67 1.245 1_556 S
O53 Tb11 2.428 . S
O53 C75 1.256 . S
O54 Tb11 2.308 1_556 S
O54 C74 1.266 1_545 S
O55 Tb0 2.393 . S
O55 C74 1.248 1_655 S
C56 O45 1.257 1_545 S
C56 O46 1.247 1_556 S
C57 C60 1.399 . S
C57 C62 1.383 . S
C57 C64 1.496 . S
C58 C59 1.399 . S
C58 C62 1.389 . S
C59 C58 1.399 . S
C59 C61 1.380 . S
C59 H76 0.929 . S
C60 C57 1.399 . S
C60 C61 1.392 . S
C60 H77 0.929 . S
C61 C59 1.380 . S
C61 C60 1.392 . S
C61 H78 0.929 . S
C62 C57 1.383 . S
C62 C58 1.389 . S
C62 H79 0.931 1_556 S
C63 O48 1.266 1_545 S
C63 O49 1.248 1_655 S
C64 Tb0 2.802 . S
C64 O44 1.264 . S
C64 O47 1.256 . S
C64 C57 1.496 . S
C65 C32 1.448 . S
C65 H42 0.930 . S
C65 C66 1.328 . S
C66 C37 1.427 . S
C66 H43 0.929 . S
C66 C65 1.328 . S
C67 O51 1.262 1_565 S
C67 O52 1.245 1_554 S
C68 C71 1.399 . S
C68 C72 1.383 . S
C68 C75 1.496 . S
C69 C70 1.399 . S
C69 C72 1.389 . S
C70 C69 1.399 . S
C70 C73 1.380 . S
C70 H80 0.929 . S
C71 C68 1.399 . S
C71 C73 1.392 . S
C71 H81 0.929 . S
C72 C68 1.383 . S
C72 C69 1.389 . S
C72 H82 0.931 1_554 S
C73 C70 1.380 . S
C73 C71 1.392 . S
C73 H83 0.929 . S
C74 O54 1.266 1_565 S
C74 O55 1.248 1_455 S
C75 Tb11 2.802 . S
C75 O50 1.264 . S
C75 O53 1.256 . S
C75 C68 1.496 . S
H76 C59 0.929 . S
H77 C60 0.929 . S
H78 C61 0.929 . S
H79 C62 0.931 1_554 S
H80 C70 0.929 . S
H81 C71 0.929 . S
H82 C72 0.931 1_556 S
H83 C73 0.929 . S
C84 C85 1.349 1_565 S
C84 C86 1.327 . S
C84 H109 0.950 . S
C85 C84 1.349 1_545 S
C85 C101 1.349 1_455 S
C86 C84 1.327 . S
C86 C105 1.429 1_565 S
C86 H110 0.950 . S
C87 C104 1.574 . S
C87 C106 1.368 1_655 S
C87 H111 0.949 . S
H88 C92 0.949 . S
C89 C90 1.349 1_655 S
C89 C91 1.327 . S
C89 H112 0.950 . S
C90 C89 1.349 1_455 S
C90 C102 1.349 1_545 S
C91 C89 1.327 . S
C91 C107 1.429 1_655 S
C91 H113 0.950 . S
C92 H88 0.949 . S
C92 C100 1.574 . S
C92 C108 1.368 1_565 S
H93 C101 0.950 . S
H94 C99 0.950 . S
H95 C100 0.949 . S
H96 C102 0.950 . S
H97 C103 0.950 . S
H98 C104 0.949 . S
C99 H94 0.950 . S
C99 C101 1.327 . S
C99 C105 1.429 1_655 S
C100 C92 1.574 . S
C100 H95 0.949 . S
C100 C106 1.368 1_565 S
C101 C85 1.349 1_655 S
C101 H93 0.950 . S
C101 C99 1.327 . S
C102 C90 1.349 1_565 S
C102 H96 0.950 . S
C102 C103 1.327 . S
C103 H97 0.950 . S
C103 C102 1.327 . S
C103 C107 1.429 1_565 S
C104 C87 1.574 . S
C104 H98 0.949 . S
C104 C108 1.368 1_655 S
C105 C86 1.429 1_545 S
C105 C99 1.429 1_455 S
C105 C106 1.523 . S
C106 C87 1.368 1_455 S
C106 C100 1.368 1_545 S
C106 C105 1.523 . S
C107 C91 1.429 1_455 S
C107 C103 1.429 1_545 S
C107 C108 1.523 . S
C108 C92 1.368 1_545 S
C108 C104 1.368 1_455 S
C108 C107 1.523 . S
H109 C84 0.950 . S
H110 C86 0.950 . S
H111 C87 0.949 . S
H112 C89 0.950 . S
H113 C91 0.950 . S
C114 C115 1.349 . S
C114 C116 1.327 . S
C114 H139 0.950 . S
C115 C114 1.349 . S
C115 C131 1.349 1_544 S
C116 C114 1.327 . S
C116 C135 1.429 . S
C116 H140 0.950 . S
C117 C134 1.574 . S
C117 C136 1.368 1_566 S
C117 H141 0.949 . S
H118 C122 0.949 . S
C119 C120 1.349 1_566 S
C119 C121 1.327 . S
C119 H142 0.950 . S
C120 C119 1.349 1_544 S
C120 C132 1.349 . S
C121 C119 1.327 . S
C121 C137 1.429 1_566 S
C121 H143 0.950 . S
C122 H118 0.949 . S
C122 C130 1.574 . S
C122 C138 1.368 . S
H123 C131 0.950 . S
H124 C129 0.950 . S
H125 C130 0.949 . S
H126 C132 0.950 . S
H127 C133 0.950 . S
H128 C134 0.949 . S
C129 H124 0.950 . S
C129 C131 1.327 . S
C129 C135 1.429 1_566 S
C130 C122 1.574 . S
C130 H125 0.949 . S
C130 C136 1.368 . S
C131 C115 1.349 1_566 S
C131 H123 0.950 . S
C131 C129 1.327 . S
C132 C120 1.349 . S
C132 H126 0.950 . S
C132 C133 1.327 . S
C133 H127 0.950 . S
C133 C132 1.327 . S
C133 C137 1.429 . S
C134 C117 1.574 . S
C134 H128 0.949 . S
C134 C138 1.368 1_566 S
C135 C116 1.429 . S
C135 C129 1.429 1_544 S
C135 C136 1.523 . S
C136 C117 1.368 1_544 S
C136 C130 1.368 . S
C136 C135 1.523 . S
C137 C121 1.429 1_544 S
C137 C133 1.429 . S
C137 C138 1.523 . S
C138 C122 1.368 . S
C138 C134 1.368 1_544 S
C138 C137 1.523 . S
H139 C114 0.950 . S
H140 C116 0.950 . S
H141 C117 0.949 . S
H142 C119 0.950 . S
H143 C121 0.950 . S
C144 C145 1.349 1_655 S
C144 C146 1.327 . S
C144 H169 0.950 . S
C145 C144 1.349 1_455 S
C145 C161 1.349 1_554 S
C146 C144 1.327 . S
C146 C165 1.429 1_655 S
C146 H170 0.950 . S
C147 C164 1.574 . S
C147 C166 1.368 1_556 S
C147 H171 0.949 . S
H148 C152 0.949 . S
C149 C150 1.349 1_556 S
C149 C151 1.327 . S
C149 H172 0.950 . S
C150 C149 1.349 1_554 S
C150 C162 1.349 1_455 S
C151 C149 1.327 . S
C151 C167 1.429 1_556 S
C151 H173 0.950 . S
C152 H148 0.949 . S
C152 C160 1.574 . S
C152 C168 1.368 1_655 S
H153 C161 0.950 . S
H154 C159 0.950 . S
H155 C160 0.949 . S
H156 C162 0.950 . S
H157 C163 0.950 . S
H158 C164 0.949 . S
C159 H154 0.950 . S
C159 C161 1.327 . S
C159 C165 1.429 1_556 S
C160 C152 1.574 . S
C160 H155 0.949 . S
C160 C166 1.368 1_655 S
C161 C145 1.349 1_556 S
C161 H153 0.950 . S
C161 C159 1.327 . S
C162 C150 1.349 1_655 S
C162 H156 0.950 . S
C162 C163 1.327 . S
C163 H157 0.950 . S
C163 C162 1.327 . S
C163 C167 1.429 1_655 S
C164 C147 1.574 . S
C164 H158 0.949 . S
C164 C168 1.368 1_556 S
C165 C146 1.429 1_455 S
C165 C159 1.429 1_554 S
C165 C166 1.523 . S
C166 C147 1.368 1_554 S
C166 C160 1.368 1_455 S
C166 C165 1.523 . S
C167 C151 1.429 1_554 S
C167 C163 1.429 1_455 S
C167 C168 1.523 . S
C168 C152 1.368 1_455 S
C168 C164 1.368 1_554 S
C168 C167 1.523 . S
H169 C144 0.950 . S
H170 C146 0.950 . S
H171 C147 0.949 . S
H172 C149 0.950 . S
H173 C151 0.950 . S
C85 C63 1.480 1_455 S
C90 C74 1.480 1_545 S
C115 C67 1.496 1_545 S
C120 C56 1.499 1_554 S
C145 C58 1.358 1_454 S
C150 C69 1.358 . S
