# Generated by pormake.
# Topology mmt, (4)-cn, num edge types: 1
# Building blocks:
#     Node 0, Type 0, BuildingBlock: NAHDIM_clean_sbu_0, # of connection points: 4
#     Node 1, Type 0, BuildingBlock: NAHDIM_clean_sbu_0, # of connection points: 4
#     Node 2, Type 0, BuildingBlock: NAHDIM_clean_sbu_0, # of connection points: 4
#     Node 3, Type 0, BuildingBlock: NAHDIM_clean_sbu_0, # of connection points: 4
#     Node 4, Type 0, BuildingBlock: NAHDIM_clean_sbu_0, # of connection points: 4
#     Node 5, Type 0, BuildingBlock: NAHDIM_clean_sbu_0, # of connection points: 4
#     Node 6, Type 0, BuildingBlock: NAHDIM_clean_sbu_0, # of connection points: 4
#     Node 7, Type 0, BuildingBlock: NAHDIM_clean_sbu_0, # of connection points: 4
#     Edge 8, Type (0, 0), BuildingBlock: EYOCIG_clean_linker_4, # of connection points: 2
#     Edge 9, Type (0, 0), BuildingBlock: EYOCIG_clean_linker_4, # of connection points: 2
#     Edge 10, Type (0, 0), BuildingBlock: EYOCIG_clean_linker_4, # of connection points: 2
#     Edge 11, Type (0, 0), BuildingBlock: EYOCIG_clean_linker_4, # of connection points: 2
#     Edge 12, Type (0, 0), BuildingBlock: EYOCIG_clean_linker_4, # of connection points: 2
#     Edge 13, Type (0, 0), BuildingBlock: EYOCIG_clean_linker_4, # of connection points: 2
#     Edge 14, Type (0, 0), BuildingBlock: EYOCIG_clean_linker_4, # of connection points: 2
#     Edge 15, Type (0, 0), BuildingBlock: EYOCIG_clean_linker_4, # of connection points: 2
#     Edge 16, Type (0, 0), BuildingBlock: EYOCIG_clean_linker_4, # of connection points: 2
#     Edge 17, Type (0, 0), BuildingBlock: EYOCIG_clean_linker_4, # of connection points: 2
#     Edge 18, Type (0, 0), BuildingBlock: EYOCIG_clean_linker_4, # of connection points: 2
#     Edge 19, Type (0, 0), BuildingBlock: EYOCIG_clean_linker_4, # of connection points: 2
#     Edge 20, Type (0, 0), BuildingBlock: EYOCIG_clean_linker_4, # of connection points: 2
#     Edge 21, Type (0, 0), BuildingBlock: EYOCIG_clean_linker_4, # of connection points: 2
#     Edge 22, Type (0, 0), BuildingBlock: EYOCIG_clean_linker_4, # of connection points: 2
#     Edge 23, Type (0, 0), BuildingBlock: EYOCIG_clean_linker_4, # of connection points: 2
# Relax obj value: 0.078
# Max RMSD: 0.130
# Mean RMSD: 0.130
data_MOF--net-mmt--node1-NAHDIM_clean_sbu_0--edge1-EYOCIG_clean_linker_4
_symmetry_space_group_name_H-M    P1
_symmetry_Int_Tables_number       1
_symmetry_cell_setting            triclinic
loop_
_symmetry_equiv_pos_as_xyz
'x, y, z'
_cell_length_a     17.969347
_cell_length_b     29.571307
_cell_length_c     36.129486
_cell_angle_alpha  90.0041
_cell_angle_beta   90.006053
_cell_angle_gamma 89.967294
loop_
_atom_site_label
_atom_site_type_symbol
_atom_site_fract_x
_atom_site_fract_y
_atom_site_fract_z
_atom_type_partial_charge
C0 C 0.04268 0.54584 0.40613 0.0
O1 O 0.00538 0.57938 0.39124 0.0
O2 O 0.16534 0.61889 0.34577 0.0
Zn3 Zn 0.12771 0.55472 0.33964 0.0
O4 O 0.03739 0.55045 0.30631 0.0
C5 C 0.25769 0.53497 0.29634 0.0
O6 O 0.25376 0.57842 0.28937 0.0
O7 O 0.09885 0.52953 0.38949 0.0
C8 C 0.04249 0.54895 0.27127 0.0
O9 O 0.10763 0.55261 0.25522 0.0
C10 C 0.1453 0.6517 0.32541 0.0
O11 O 0.09506 0.64562 0.29957 0.0
O12 O 0.21012 0.51654 0.31751 0.0
C13 C 0.42557 0.95648 0.40576 0.0
O14 O 0.46316 0.92316 0.39073 0.0
O15 O 0.30245 0.88328 0.34555 0.0
Zn16 Zn 0.34012 0.94743 0.33942 0.0
O17 O 0.43037 0.9517 0.30605 0.0
C18 C 0.21009 0.96723 0.29616 0.0
O19 O 0.21396 0.92377 0.2892 0.0
O20 O 0.36909 0.9726 0.38926 0.0
C21 C 0.42526 0.95304 0.27101 0.0
O22 O 0.36013 0.94918 0.25497 0.0
C23 C 0.32266 0.8504 0.32531 0.0
O24 O 0.37314 0.85639 0.29956 0.0
O25 O 0.25772 0.98564 0.31732 0.0
C26 C 0.54179 0.45708 0.06637 0.0
O27 O 0.50393 0.42395 0.08149 0.0
O28 O 0.66536 0.38346 0.12628 0.0
Zn29 Zn 0.6276 0.4476 0.13254 0.0
O30 O 0.53738 0.45181 0.16594 0.0
C31 C 0.75758 0.46716 0.17586 0.0
O32 O 0.75371 0.42368 0.1827 0.0
O33 O 0.59859 0.47293 0.08275 0.0
C34 C 0.54249 0.45286 0.20099 0.0
O35 O 0.6076 0.44873 0.21701 0.0
C36 C 0.64488 0.35047 0.14631 0.0
O37 O 0.59401 0.35631 0.17189 0.0
O38 O 0.70998 0.48569 0.15474 0.0
C39 C 0.92499 0.0458 0.06594 0.0
O40 O 0.9621 0.07945 0.08074 0.0
O41 O 0.80226 0.11886 0.12627 0.0
Zn42 Zn 0.84007 0.05471 0.13246 0.0
O43 O 0.93034 0.05047 0.16583 0.0
C44 C 0.71012 0.03508 0.17576 0.0
O45 O 0.71394 0.07855 0.18263 0.0
O46 O 0.86898 0.02944 0.08265 0.0
C47 C 0.92528 0.04951 0.20088 0.0
O48 O 0.86021 0.05376 0.21692 0.0
C49 C 0.82296 0.15188 0.14622 0.0
O50 O 0.8741 0.14607 0.17167 0.0
O51 O 0.75774 0.01659 0.15463 0.0
C52 C 0.92516 0.45715 0.56634 0.0
O53 O 0.9633 0.42415 0.58153 0.0
O54 O 0.8016 0.38324 0.62607 0.0
Zn55 Zn 0.83907 0.44741 0.6324 0.0
O56 O 0.92922 0.45162 0.66585 0.0
C57 C 0.70887 0.46688 0.67563 0.0
O58 O 0.71285 0.4234 0.68247 0.0
O59 O 0.86809 0.4728 0.58264 0.0
C60 C 0.92399 0.453 0.70089 0.0
O61 O 0.85879 0.44925 0.71687 0.0
C62 C 0.82154 0.35039 0.64641 0.0
O63 O 0.87157 0.35644 0.67236 0.0
O64 O 0.75648 0.48543 0.65455 0.0
C65 C 0.54283 0.04502 0.5661 0.0
O66 O 0.50516 0.07835 0.58107 0.0
O67 O 0.66549 0.11858 0.62619 0.0
Zn68 Zn 0.62823 0.05435 0.63243 0.0
O69 O 0.5381 0.04996 0.66586 0.0
C70 C 0.7585 0.03503 0.67563 0.0
O71 O 0.75439 0.07851 0.68247 0.0
O72 O 0.59935 0.029 0.58263 0.0
C73 C 0.54333 0.04885 0.70091 0.0
O74 O 0.60847 0.05304 0.71689 0.0
C75 C 0.64477 0.15151 0.64624 0.0
O76 O 0.59397 0.14554 0.67183 0.0
O77 O 0.71092 0.01642 0.65456 0.0
C78 C 0.42397 0.54549 0.90606 0.0
O79 O 0.46103 0.57912 0.8912 0.0
O80 O 0.3014 0.61848 0.84573 0.0
Zn81 Zn 0.33895 0.55428 0.83957 0.0
O82 O 0.42915 0.54994 0.80617 0.0
C83 C 0.20885 0.53472 0.79634 0.0
O84 O 0.21279 0.57819 0.78943 0.0
O85 O 0.36794 0.52908 0.88939 0.0
C86 C 0.42397 0.54867 0.77112 0.0
O87 O 0.35881 0.55262 0.75512 0.0
C88 C 0.32182 0.65136 0.82555 0.0
O89 O 0.37243 0.64532 0.79987 0.0
O90 O 0.25646 0.51621 0.81746 0.0
C91 C 0.04248 0.95708 0.9057 0.0
O92 O 0.00445 0.92406 0.89052 0.0
O93 O 0.16572 0.88327 0.84575 0.0
Zn94 Zn 0.1284 0.94752 0.83956 0.0
O95 O 0.03829 0.95195 0.80612 0.0
C96 C 0.25867 0.9669 0.7964 0.0
O97 O 0.25466 0.92343 0.78952 0.0
O98 O 0.09942 0.97281 0.88937 0.0
C99 C 0.04353 0.95324 0.77108 0.0
O100 O 0.10871 0.94925 0.7551 0.0
C101 C 0.1452 0.85042 0.82557 0.0
O102 O 0.09462 0.85651 0.79988 0.0
O103 O 0.21105 0.98548 0.81748 0.0
C104 C 0.36432 0.49022 0.26219 0.0
C105 C 0.31435 0.50847 0.27868 0.0
C106 C 0.42496 0.47379 0.24132 0.0
C107 C 0.47851 0.46424 0.22283 0.0
C108 C 0.04281 0.02849 0.2412 0.0
C109 C -0.01075 0.03808 0.22271 0.0
C110 C 0.10346 0.01203 0.26204 0.0
C111 C 0.15343 0.99375 0.27852 0.0
C112 C 0.86419 0.51175 0.21012 0.0
C113 C 0.81423 0.49357 0.19358 0.0
C114 C 0.92483 0.5281 0.23101 0.0
C115 C 0.97839 0.53762 0.2495 0.0
C116 C 0.6035 0.9904 0.20992 0.0
C117 C 0.65346 0.00863 0.19343 0.0
C118 C 0.54285 0.97399 0.23076 0.0
C119 C 0.48928 0.96442 0.24923 0.0
C120 C 0.54149 0.52779 0.73077 0.0
C121 C 0.48796 0.53732 0.74929 0.0
C122 C 0.60214 0.51144 0.70987 0.0
C123 C 0.65215 0.49328 0.69334 0.0
C124 C 0.86539 0.99056 0.70983 0.0
C125 C 0.81532 0.0087 0.69333 0.0
C126 C 0.92606 0.9742 0.7307 0.0
C127 C 0.97959 0.96463 0.74922 0.0
C128 C 0.10217 0.49013 0.76214 0.0
C129 C 0.15216 0.5083 0.77865 0.0
C130 C 0.04152 0.47379 0.74125 0.0
C131 C -0.01201 0.4643 0.72273 0.0
C132 C 0.36539 0.01144 0.7622 0.0
C133 C 0.31539 0.99327 0.77871 0.0
C134 C 0.42599 0.02784 0.74131 0.0
C135 C 0.47946 0.03743 0.72279 0.0
C136 C -0.00319 0.51084 0.46943 0.0
C137 C 0.01817 0.52659 0.44052 0.0
C138 C 0.97105 0.49229 0.50311 0.0
C139 C 0.94964 0.47648 0.53198 0.0
C140 C 0.47142 0.99142 0.46909 0.0
C141 C 0.45008 0.97569 0.44018 0.0
C142 C 0.4971 0.00995 0.5028 0.0
C143 C 0.51842 0.02572 0.5317 0.0
C144 C 0.49582 0.4921 0.00308 0.0
C145 C 0.51726 0.47635 0.03197 0.0
C146 C 0.47001 0.51059 0.96938 0.0
C147 C 0.44857 0.52629 0.94047 0.0
C148 C -0.00339 0.99217 0.96897 0.0
C149 C 0.01799 0.97638 0.94008 0.0
C150 C 0.97087 0.01074 0.00266 0.0
C151 C 0.94951 0.02652 0.03155 0.0
C152 C 0.21497 0.73015 0.32995 0.0
C153 C 0.18348 0.69422 0.32809 0.0
C154 C 0.253 0.77195 0.32992 0.0
C155 C 0.2845 0.80788 0.32801 0.0
C156 C 0.75301 0.23028 0.14166 0.0
C157 C 0.78464 0.19438 0.14355 0.0
C158 C 0.71481 0.27206 0.14167 0.0
C159 C 0.68319 0.30797 0.1436 0.0
C160 C 0.71413 0.23006 0.64165 0.0
C161 C 0.68277 0.19409 0.64356 0.0
C162 C 0.75203 0.2719 0.64167 0.0
C163 C 0.78343 0.30786 0.64361 0.0
C164 C 0.25237 0.72992 0.83014 0.0
C165 C 0.28376 0.69394 0.82825 0.0
C166 C 0.2145 0.7718 0.83015 0.0
C167 C 0.18316 0.80781 0.82825 0.0
loop_
_geom_bond_atom_site_label_1
_geom_bond_atom_site_label_2
_geom_bond_distance
_geom_bond_site_symmetry_2
_ccdc_geom_bond_type
C0 O1 1.160 . S
C0 O7 1.185 . S
O1 C0 1.160 . S
O2 Zn3 1.899 . S
O2 C10 1.284 . S
Zn3 O2 1.899 . S
Zn3 O4 2.032 . S
Zn3 O7 2.086 . S
Zn3 O12 1.977 . S
O4 Zn3 2.032 . S
O4 C8 1.278 . S
C5 O6 1.203 . S
C5 O12 1.267 . S
O6 C5 1.203 . S
O7 C0 1.185 . S
O7 Zn3 2.086 . S
C8 O4 1.278 . S
C8 O9 1.211 . S
O9 C8 1.211 . S
C10 O2 1.284 . S
C10 O11 1.273 . S
O11 C10 1.273 . S
O12 Zn3 1.977 . S
O12 C5 1.267 . S
C13 O14 1.160 . S
C13 O20 1.185 . S
O14 C13 1.160 . S
O15 Zn16 1.899 . S
O15 C23 1.284 . S
Zn16 O15 1.899 . S
Zn16 O17 2.032 . S
Zn16 O20 2.086 . S
Zn16 O25 1.977 . S
O17 Zn16 2.032 . S
O17 C21 1.278 . S
C18 O19 1.203 . S
C18 O25 1.267 . S
O19 C18 1.203 . S
O20 C13 1.185 . S
O20 Zn16 2.086 . S
C21 O17 1.278 . S
C21 O22 1.211 . S
O22 C21 1.211 . S
C23 O15 1.284 . S
C23 O24 1.273 . S
O24 C23 1.273 . S
O25 Zn16 1.977 . S
O25 C18 1.267 . S
C26 O27 1.160 . S
C26 O33 1.185 . S
O27 C26 1.160 . S
O28 Zn29 1.899 . S
O28 C36 1.284 . S
Zn29 O28 1.899 . S
Zn29 O30 2.032 . S
Zn29 O33 2.086 . S
Zn29 O38 1.977 . S
O30 Zn29 2.032 . S
O30 C34 1.278 . S
C31 O32 1.203 . S
C31 O38 1.267 . S
O32 C31 1.203 . S
O33 C26 1.185 . S
O33 Zn29 2.086 . S
C34 O30 1.278 . S
C34 O35 1.211 . S
O35 C34 1.211 . S
C36 O28 1.284 . S
C36 O37 1.273 . S
O37 C36 1.273 . S
O38 Zn29 1.977 . S
O38 C31 1.267 . S
C39 O40 1.160 . S
C39 O46 1.185 . S
O40 C39 1.160 . S
O41 Zn42 1.899 . S
O41 C49 1.284 . S
Zn42 O41 1.899 . S
Zn42 O43 2.032 . S
Zn42 O46 2.086 . S
Zn42 O51 1.977 . S
O43 Zn42 2.032 . S
O43 C47 1.278 . S
C44 O45 1.203 . S
C44 O51 1.267 . S
O45 C44 1.203 . S
O46 C39 1.185 . S
O46 Zn42 2.086 . S
C47 O43 1.278 . S
C47 O48 1.211 . S
O48 C47 1.211 . S
C49 O41 1.284 . S
C49 O50 1.273 . S
O50 C49 1.273 . S
O51 Zn42 1.977 . S
O51 C44 1.267 . S
C52 O53 1.160 . S
C52 O59 1.185 . S
O53 C52 1.160 . S
O54 Zn55 1.899 . S
O54 C62 1.284 . S
Zn55 O54 1.899 . S
Zn55 O56 2.032 . S
Zn55 O59 2.086 . S
Zn55 O64 1.977 . S
O56 Zn55 2.032 . S
O56 C60 1.278 . S
C57 O58 1.203 . S
C57 O64 1.267 . S
O58 C57 1.203 . S
O59 C52 1.185 . S
O59 Zn55 2.086 . S
C60 O56 1.278 . S
C60 O61 1.211 . S
O61 C60 1.211 . S
C62 O54 1.284 . S
C62 O63 1.273 . S
O63 C62 1.273 . S
O64 Zn55 1.977 . S
O64 C57 1.267 . S
C65 O66 1.160 . S
C65 O72 1.185 . S
O66 C65 1.160 . S
O67 Zn68 1.899 . S
O67 C75 1.284 . S
Zn68 O67 1.899 . S
Zn68 O69 2.032 . S
Zn68 O72 2.086 . S
Zn68 O77 1.977 . S
O69 Zn68 2.032 . S
O69 C73 1.278 . S
C70 O71 1.203 . S
C70 O77 1.267 . S
O71 C70 1.203 . S
O72 C65 1.185 . S
O72 Zn68 2.086 . S
C73 O69 1.278 . S
C73 O74 1.211 . S
O74 C73 1.211 . S
C75 O67 1.284 . S
C75 O76 1.273 . S
O76 C75 1.273 . S
O77 Zn68 1.977 . S
O77 C70 1.267 . S
C78 O79 1.160 . S
C78 O85 1.185 . S
O79 C78 1.160 . S
O80 Zn81 1.899 . S
O80 C88 1.284 . S
Zn81 O80 1.899 . S
Zn81 O82 2.032 . S
Zn81 O85 2.086 . S
Zn81 O90 1.977 . S
O82 Zn81 2.032 . S
O82 C86 1.278 . S
C83 O84 1.203 . S
C83 O90 1.267 . S
O84 C83 1.203 . S
O85 C78 1.185 . S
O85 Zn81 2.086 . S
C86 O82 1.278 . S
C86 O87 1.211 . S
O87 C86 1.211 . S
C88 O80 1.284 . S
C88 O89 1.273 . S
O89 C88 1.273 . S
O90 Zn81 1.977 . S
O90 C83 1.267 . S
C91 O92 1.160 . S
C91 O98 1.185 . S
O92 C91 1.160 . S
O93 Zn94 1.899 . S
O93 C101 1.284 . S
Zn94 O93 1.899 . S
Zn94 O95 2.032 . S
Zn94 O98 2.086 . S
Zn94 O103 1.977 . S
O95 Zn94 2.032 . S
O95 C99 1.278 . S
C96 O97 1.203 . S
C96 O103 1.267 . S
O97 C96 1.203 . S
O98 C91 1.185 . S
O98 Zn94 2.086 . S
C99 O95 1.278 . S
C99 O100 1.211 . S
O100 C99 1.211 . S
C101 O93 1.284 . S
C101 O102 1.273 . S
O102 C101 1.273 . S
O103 Zn94 1.977 . S
O103 C96 1.267 . S
C104 C105 1.170 . S
C104 C106 1.380 . S
C105 C104 1.170 . S
C106 C104 1.380 . S
C106 C107 1.170 . S
C107 C106 1.170 . S
C108 C109 1.170 . S
C108 C110 1.380 . S
C109 C108 1.170 . S
C110 C108 1.380 . S
C110 C111 1.170 1_545 S
C111 C110 1.170 1_565 S
C112 C113 1.170 . S
C112 C114 1.380 . S
C113 C112 1.170 . S
C114 C112 1.380 . S
C114 C115 1.170 . S
C115 C114 1.170 . S
C116 C117 1.170 1_565 S
C116 C118 1.380 . S
C117 C116 1.170 1_545 S
C118 C116 1.380 . S
C118 C119 1.170 . S
C119 C118 1.170 . S
C120 C121 1.170 . S
C120 C122 1.380 . S
C121 C120 1.170 . S
C122 C120 1.380 . S
C122 C123 1.170 . S
C123 C122 1.170 . S
C124 C125 1.170 1_565 S
C124 C126 1.380 . S
C125 C124 1.170 1_545 S
C126 C124 1.380 . S
C126 C127 1.170 . S
C127 C126 1.170 . S
C128 C129 1.170 . S
C128 C130 1.380 . S
C129 C128 1.170 . S
C130 C128 1.380 . S
C130 C131 1.170 . S
C131 C130 1.170 . S
C132 C133 1.170 1_545 S
C132 C134 1.380 . S
C133 C132 1.170 1_565 S
C134 C132 1.380 . S
C134 C135 1.170 . S
C135 C134 1.170 . S
C136 C137 1.170 . S
C136 C138 1.380 1_455 S
C137 C136 1.170 . S
C138 C136 1.380 1_655 S
C138 C139 1.170 . S
C139 C138 1.170 . S
C140 C141 1.170 . S
C140 C142 1.380 1_565 S
C141 C140 1.170 . S
C142 C140 1.380 1_545 S
C142 C143 1.170 . S
C143 C142 1.170 . S
C144 C145 1.170 . S
C144 C146 1.380 1_554 S
C145 C144 1.170 . S
C146 C144 1.380 1_556 S
C146 C147 1.170 . S
C147 C146 1.170 . S
C148 C149 1.170 . S
C148 C150 1.380 1_466 S
C149 C148 1.170 . S
C150 C148 1.380 1_644 S
C150 C151 1.170 . S
C151 C150 1.170 . S
C152 C153 1.170 . S
C152 C154 1.380 . S
C153 C152 1.170 . S
C154 C152 1.380 . S
C154 C155 1.170 . S
C155 C154 1.170 . S
C156 C157 1.170 . S
C156 C158 1.380 . S
C157 C156 1.170 . S
C158 C156 1.380 . S
C158 C159 1.170 . S
C159 C158 1.170 . S
C160 C161 1.170 . S
C160 C162 1.380 . S
C161 C160 1.170 . S
C162 C160 1.380 . S
C162 C163 1.170 . S
C163 C162 1.170 . S
C164 C165 1.170 . S
C164 C166 1.380 . S
C165 C164 1.170 . S
C166 C164 1.380 . S
C166 C167 1.170 . S
C167 C166 1.170 . S
C105 C5 1.196 . S
C107 C34 1.240 . S
C109 C47 1.238 1_455 S
C111 C18 1.218 . S
C113 C31 1.198 . S
C115 C8 1.243 1_655 S
C117 C44 1.209 . S
C119 C21 1.243 . S
C121 C86 1.213 . S
C123 C57 1.195 . S
C125 C70 1.207 . S
C127 C99 1.232 1_655 S
C129 C83 1.197 . S
C131 C60 1.218 1_455 S
C133 C96 1.205 . S
C135 C73 1.196 . S
C137 C0 1.495 . S
C139 C52 1.510 . S
C141 C13 1.496 . S
C143 C65 1.523 . S
C145 C26 1.514 . S
C147 C78 1.509 . S
C149 C91 1.509 . S
C151 C39 1.495 . S
C153 C10 1.522 . S
C155 C23 1.528 . S
C157 C49 1.536 . S
C159 C36 1.532 . S
C161 C75 1.524 . S
C163 C62 1.523 . S
C165 C88 1.522 . S
C167 C101 1.523 . S
