# Generated by pormake.
# Topology reo, (8)-cn, num edge types: 1
# Building blocks:
#     Node 0, Type 0, BuildingBlock: LIZSOE_clean_sbu_0, # of connection points: 8
#     Node 1, Type 0, BuildingBlock: LIZSOE_clean_sbu_0, # of connection points: 8
#     Node 2, Type 0, BuildingBlock: LIZSOE_clean_sbu_0, # of connection points: 8
#     Edge 3, Type (0, 0), None
#     Edge 4, Type (0, 0), None
#     Edge 5, Type (0, 0), None
#     Edge 6, Type (0, 0), None
#     Edge 7, Type (0, 0), None
#     Edge 8, Type (0, 0), None
#     Edge 9, Type (0, 0), None
#     Edge 10, Type (0, 0), None
#     Edge 11, Type (0, 0), None
#     Edge 12, Type (0, 0), None
#     Edge 13, Type (0, 0), None
#     Edge 14, Type (0, 0), None
# Relax obj value: 0.520
# Max RMSD: 0.340
# Mean RMSD: 0.304
data_MOF--net-reo--node1-LIZSOE_clean_sbu_0--edge1-none
_symmetry_space_group_name_H-M    P1
_symmetry_Int_Tables_number       1
_symmetry_cell_setting            triclinic
loop_
_symmetry_equiv_pos_as_xyz
'x, y, z'
_cell_length_a     15.659622
_cell_length_b     12.123012
_cell_length_c     10.401115
_cell_angle_alpha  85.255212
_cell_angle_beta   115.29124
_cell_angle_gamma 123.98658
loop_
_atom_site_label
_atom_site_type_symbol
_atom_site_fract_x
_atom_site_fract_y
_atom_site_fract_z
_atom_type_partial_charge
Co0 Co 0.19537 0.02117 0.41764 0.0
N1 N 0.34552 0.11596 0.40943 0.0
C2 C 0.45046 0.16623 0.52257 0.0
N3 N 0.47025 0.12804 0.33086 0.0
C4 C 0.36122 0.09499 0.29407 0.0
C5 C 0.52611 0.17988 0.47508 0.0
Co6 Co 0.86889 0.97713 0.66616 0.0
N7 N 0.7235 0.9131 0.67039 0.0
N8 N 0.5906 0.91839 0.70671 0.0
C9 C 0.53873 0.79492 0.63175 0.0
C10 C 0.62121 0.79122 0.61712 0.0
C11 C 0.69646 0.98964 0.71243 0.0
Co12 Co 1.02341 0.97956 0.51503 0.0
C13 C 0.99778 0.17235 0.69391 0.0
H14 H 0.60837 0.70331 0.57303 0.0
O15 O 0.03613 0.87444 0.3717 0.0
O16 O 0.85213 0.90581 0.35942 0.0
O17 O 0.06699 0.14969 0.40998 0.0
O18 O 0.18869 0.05922 0.66692 0.0
O19 O 0.2492 0.9657 0.58486 0.0
O20 O 0.78572 0.95011 0.47847 0.0
O21 O 1.01277 0.07602 0.67051 0.0
O22 O 0.85718 0.78311 0.67366 0.0
O23 O 0.1324 0.10946 0.27528 0.0
O24 O 0.16646 0.88395 0.32355 0.0
O25 O 0.99016 0.81234 0.62085 0.0
O26 O 0.89523 0.13651 0.64891 0.0
C27 C 0.09719 0.17643 0.30549 0.0
C28 C 0.75932 0.13924 0.72868 0.0
H29 H 0.75683 0.16877 0.62404 0.0
H30 H 0.71554 0.17385 0.75471 0.0
H31 H 0.84789 0.18605 0.81456 0.0
C32 C 0.78285 0.93285 0.36176 0.0
C33 C 0.2449 1.00726 0.68928 0.0
H34 H 0.46946 0.18607 0.63424 0.0
H35 H 0.25924 0.95874 0.08644 0.0
H36 H 0.28649 0.12439 0.08023 0.0
H37 H 0.1811 1.00327 0.13223 0.0
C38 C 0.26606 0.04073 0.13996 0.0
C39 C 0.07217 0.80933 0.32934 0.0
C40 C 0.92531 0.74623 0.68371 0.0
H41 H 0.61813 0.22965 0.54257 0.0
H42 H 0.45058 0.70903 0.60214 0.0
Co43 Co 0.53895 0.22555 0.04071 0.0
N44 N 0.54851 0.37633 0.94348 0.0
C45 C 0.4075 0.31236 0.82722 0.0
N46 N 0.50155 0.50128 0.07733 0.0
C47 C 0.60516 0.49127 0.08796 0.0
C48 C 0.37182 0.39737 0.92497 0.0
Co49 Co 0.53454 0.84048 0.98025 0.0
N50 N 0.5508 0.73306 0.90821 0.0
N51 N 0.63157 0.63765 0.90119 0.0
C52 C 0.52153 0.53947 0.87665 0.0
C53 C 0.46967 0.60927 0.83053 0.0
C54 C 0.65109 0.75112 0.94675 0.0
Co55 Co 0.51484 0.99364 1.00613 0.0
C56 C 0.57745 0.9419 0.8221 0.0
H57 H 0.37889 0.56924 0.78263 0.0
O58 O 0.51877 0.09414 0.15404 0.0
O59 O 0.65839 1.0061 0.19132 0.0
O60 O 0.62947 0.15517 0.95213 0.0
O61 O 0.3899 0.98612 0.84039 0.0
O62 O 0.36913 0.11244 0.94261 0.0
O63 O 0.60714 0.80314 0.14767 0.0
O64 O 0.47966 0.87772 0.82518 0.0
O65 O 0.38482 0.68616 0.97164 0.0
O66 O 0.7081 0.32205 0.11918 0.0
O67 O 0.55855 0.28941 0.21675 0.0
O68 O 0.39205 0.84864 0.05254 0.0
O69 O 0.66394 0.98685 0.95108 0.0
C70 C 0.71699 0.26965 0.02877 0.0
C71 C 0.77122 0.87281 0.04673 0.0
H72 H 0.78602 0.94763 0.11708 0.0
H73 H 0.82181 0.8375 0.12047 0.0
H74 H 0.80803 0.94426 0.98299 0.0
C75 C 0.67735 0.91397 0.23124 0.0
C76 C 0.33137 0.02737 0.83534 0.0
H77 H 0.35373 0.32976 0.83961 0.0
H78 H 0.71134 0.53122 0.31952 0.0
H79 H 0.7644 0.66935 0.23682 0.0
H80 H 0.77786 0.53706 0.21159 0.0
C81 C 0.72126 0.55879 0.22013 0.0
C82 C 0.52621 0.17309 0.24353 0.0
C83 C 0.34006 0.72383 0.01716 0.0
H84 H 0.30122 0.41201 0.89559 0.0
H85 H 0.45574 0.32754 0.0299 0.0
Co86 Co 0.19088 0.3972 0.02341 0.0
N87 N 0.32805 0.43644 0.15886 0.0
C88 C 0.36045 0.36168 0.23634 0.0
N89 N 0.50624 0.53304 0.20743 0.0
C90 C 0.42853 0.55591 0.18756 0.0
C91 C 0.47593 0.42993 0.2789 0.0
Co92 Co 0.88856 0.57609 0.0209 0.0
N93 N 0.77938 0.57291 0.88101 0.0
N94 N 0.66955 0.63916 0.80182 0.0
C95 C 0.61286 0.51834 0.71434 0.0
C96 C 0.67934 0.47228 0.77269 0.0
C97 C 0.77892 0.68258 0.86793 0.0
Co98 Co 1.02551 0.4739 0.0181 0.0
C99 C 0.99495 0.68097 0.21052 0.0
H100 H 0.65235 0.36961 0.75131 0.0
O101 O 0.04329 0.35025 0.88526 0.0
O102 O 0.96035 0.55367 0.81198 0.0
O103 O 0.16636 0.64896 0.02708 0.0
O104 O 0.0792 0.38201 0.20786 0.0
O105 O 0.12873 0.2804 0.12243 0.0
O106 O 0.98149 0.70511 0.93553 0.0
O107 O 1.02238 0.60363 0.1666 0.0
O108 O 0.84177 0.43174 0.92506 0.0
O109 O 0.23123 0.53968 0.12211 0.0
O110 O 0.15135 0.2617 0.92653 0.0
O111 O 0.88175 0.30237 0.01725 0.0
O112 O 0.91499 0.69016 0.12411 0.0
C113 C 0.24309 0.63356 0.05551 0.0
C114 C 0.88664 0.83592 0.92731 0.0
H115 H 0.96375 0.87107 0.91593 0.0
H116 H 0.86491 0.9017 0.8672 0.0
H117 H 0.93277 0.87657 0.04447 0.0
C118 C 0.9588 0.66305 0.81163 0.0
C119 C 0.09529 0.28467 0.2083 0.0
H120 H 0.30387 0.26575 0.25433 0.0
H121 H 0.56536 0.72759 0.35812 0.0
H122 H 0.43198 0.61714 0.37745 0.0
H123 H 0.45093 0.7401 0.26931 0.0
C124 C 0.47013 0.66563 0.30295 0.0
C125 C 0.07173 0.27548 0.83869 0.0
C126 C 0.8182 0.33912 0.99448 0.0
H127 H 0.5318 0.40196 0.34839 0.0
H128 H 0.52014 0.45327 0.64393 0.0
loop_
_geom_bond_atom_site_label_1
_geom_bond_atom_site_label_2
_geom_bond_distance
_geom_bond_site_symmetry_2
_ccdc_geom_bond_type
Co0 N1 2.034 . S
Co0 O15 2.262 1_545 S
Co0 O19 1.958 . S
Co0 O23 1.950 . S
Co0 O24 2.057 1_545 S
N1 Co0 2.034 . S
N1 C2 1.366 . S
N1 C4 1.332 . S
C2 N1 1.366 . S
C2 C5 1.377 . S
C2 H34 0.931 . S
N3 C4 1.346 . S
N3 C5 1.337 . S
C4 N1 1.332 . S
C4 N3 1.346 . S
C4 C38 1.361 . S
C5 C2 1.377 . S
C5 N3 1.337 . S
C5 H41 0.930 . S
Co6 N7 2.034 . S
Co6 O20 1.950 . S
Co6 O21 2.262 1_665 S
Co6 O22 1.958 . S
Co6 O26 2.057 1_565 S
N7 Co6 2.034 . S
N7 C10 1.366 . S
N7 C11 1.332 . S
N8 C9 1.337 . S
N8 C11 1.346 . S
C9 N8 1.337 . S
C9 C10 1.377 . S
C9 H42 0.930 . S
C10 N7 1.366 . S
C10 C9 1.377 . S
C10 H14 0.931 . S
C11 N7 1.332 . S
C11 N8 1.346 . S
C11 C28 1.361 . S
Co12 O15 2.097 1_545 S
Co12 O16 2.065 1_445 S
Co12 O17 2.065 . S
Co12 O18 2.042 . S
Co12 O21 2.097 . S
Co12 O25 2.042 1_445 S
C13 O21 1.253 . S
C13 O26 1.263 1_455 S
H14 C10 0.931 . S
O15 Co0 2.262 1_565 S
O15 Co12 2.097 1_565 S
O15 C39 1.253 1_455 S
O16 Co12 2.065 1_665 S
O16 C32 1.221 . S
O17 Co12 2.065 . S
O17 C27 1.221 . S
O18 Co12 2.042 . S
O18 C33 1.237 . S
O19 Co0 1.958 . S
O19 C33 1.278 . S
O20 Co6 1.950 . S
O20 C32 1.277 . S
O21 Co6 2.262 1_445 S
O21 Co12 2.097 . S
O21 C13 1.253 . S
O22 Co6 1.958 . S
O22 C40 1.278 . S
O23 Co0 1.950 . S
O23 C27 1.277 . S
O24 Co0 2.057 1_565 S
O24 C39 1.263 1_455 S
O25 Co12 2.042 1_665 S
O25 C40 1.237 . S
O26 Co6 2.057 1_545 S
O26 C13 1.263 1_655 S
C27 O17 1.221 . S
C27 O23 1.277 . S
C28 C11 1.361 . S
C28 H29 0.960 1_565 S
C28 H30 0.961 . S
C28 H31 0.961 1_565 S
H29 C28 0.960 1_545 S
H30 C28 0.961 . S
H31 C28 0.961 1_545 S
C32 O16 1.221 . S
C32 O20 1.277 . S
C33 O18 1.237 . S
C33 O19 1.278 . S
H34 C2 0.931 . S
H35 C38 0.961 . S
H36 C38 0.961 . S
H37 C38 0.960 . S
C38 C4 1.361 . S
C38 H35 0.961 . S
C38 H36 0.961 . S
C38 H37 0.960 . S
C39 O15 1.253 1_655 S
C39 O24 1.263 1_655 S
C40 O22 1.278 . S
C40 O25 1.237 . S
H41 C5 0.930 . S
H42 C9 0.930 . S
Co43 N44 2.034 1_554 S
Co43 O58 2.262 . S
Co43 O62 1.958 1_554 S
Co43 O66 1.950 . S
Co43 O67 2.057 . S
N44 Co43 2.034 1_556 S
N44 C45 1.366 . S
N44 C47 1.332 1_556 S
C45 N44 1.366 . S
C45 C48 1.377 . S
C45 H77 0.931 . S
N46 C47 1.346 . S
N46 C48 1.337 1_554 S
C47 N44 1.332 1_554 S
C47 N46 1.346 . S
C47 C81 1.361 . S
C48 C45 1.377 . S
C48 N46 1.337 1_556 S
C48 H84 0.930 . S
Co49 N50 2.034 1_556 S
Co49 O63 1.950 1_556 S
Co49 O64 2.262 . S
Co49 O65 1.958 . S
Co49 O69 2.057 . S
N50 Co49 2.034 1_554 S
N50 C53 1.366 1_554 S
N50 C54 1.332 . S
N51 C52 1.337 1_554 S
N51 C54 1.346 . S
C52 N51 1.337 1_556 S
C52 C53 1.377 . S
C52 H85 0.930 . S
C53 N50 1.366 1_556 S
C53 C52 1.377 . S
C53 H57 0.931 . S
C54 N50 1.332 . S
C54 N51 1.346 . S
C54 C71 1.361 . S
Co55 O58 2.097 1_556 S
Co55 O59 2.065 1_556 S
Co55 O60 2.065 1_556 S
Co55 O61 2.042 1_545 S
Co55 O64 2.097 1_545 S
Co55 O68 2.042 1_545 S
C56 O64 1.253 . S
C56 O69 1.263 . S
H57 C53 0.931 . S
O58 Co43 2.262 . S
O58 Co55 2.097 1_554 S
O58 C82 1.253 . S
O59 Co55 2.065 1_554 S
O59 C75 1.221 . S
O60 Co55 2.065 1_554 S
O60 C70 1.221 . S
O61 Co55 2.042 1_565 S
O61 C76 1.237 1_565 S
O62 Co43 1.958 1_556 S
O62 C76 1.278 . S
O63 Co49 1.950 1_554 S
O63 C75 1.277 1_565 S
O64 Co49 2.262 . S
O64 Co55 2.097 1_565 S
O64 C56 1.253 . S
O65 Co49 1.958 . S
O65 C83 1.278 . S
O66 Co43 1.950 . S
O66 C70 1.277 . S
O67 Co43 2.057 . S
O67 C82 1.263 . S
O68 Co55 2.042 1_565 S
O68 C83 1.237 . S
O69 Co49 2.057 . S
O69 C56 1.263 . S
C70 O60 1.221 . S
C70 O66 1.277 . S
C71 C54 1.361 . S
C71 H72 0.960 . S
C71 H73 0.961 . S
C71 H74 0.961 1_554 S
H72 C71 0.960 . S
H73 C71 0.961 . S
H74 C71 0.961 1_556 S
C75 O59 1.221 . S
C75 O63 1.277 1_545 S
C76 O61 1.237 1_545 S
C76 O62 1.278 . S
H77 C45 0.931 . S
H78 C81 0.961 . S
H79 C81 0.961 . S
H80 C81 0.960 . S
C81 C47 1.361 . S
C81 H78 0.961 . S
C81 H79 0.961 . S
C81 H80 0.960 . S
C82 O58 1.253 . S
C82 O67 1.263 . S
C83 O65 1.278 . S
C83 O68 1.237 . S
H84 C48 0.930 . S
H85 C52 0.930 . S
Co86 N87 2.034 . S
Co86 O101 2.262 1_554 S
Co86 O105 1.958 . S
Co86 O109 1.950 . S
Co86 O110 2.057 1_554 S
N87 Co86 2.034 . S
N87 C88 1.366 . S
N87 C90 1.332 . S
C88 N87 1.366 . S
C88 C91 1.377 . S
C88 H120 0.931 . S
N89 C90 1.346 . S
N89 C91 1.337 . S
C90 N87 1.332 . S
C90 N89 1.346 . S
C90 C124 1.361 1_554 S
C91 C88 1.377 . S
C91 N89 1.337 . S
C91 H127 0.930 . S
Co92 N93 2.034 . S
Co92 O106 1.950 . S
Co92 O107 2.262 1_556 S
Co92 O108 1.958 . S
Co92 O112 2.057 1_556 S
N93 Co92 2.034 . S
N93 C96 1.366 . S
N93 C97 1.332 . S
N94 C95 1.337 . S
N94 C97 1.346 . S
C95 N94 1.337 . S
C95 C96 1.377 . S
C95 H128 0.930 . S
C96 N93 1.366 . S
C96 C95 1.377 . S
C96 H100 0.931 . S
C97 N93 1.332 . S
C97 N94 1.346 . S
C97 C114 1.361 . S
Co98 O101 2.097 1_554 S
Co98 O102 2.065 1_454 S
Co98 O103 2.065 . S
Co98 O104 2.042 . S
Co98 O107 2.097 1_455 S
Co98 O111 2.042 1_454 S
C99 O107 1.253 1_455 S
C99 O112 1.263 1_455 S
H100 C96 0.931 . S
O101 Co86 2.262 1_556 S
O101 Co98 2.097 1_556 S
O101 C125 1.253 1_455 S
O102 Co98 2.065 1_656 S
O102 C118 1.221 . S
O103 Co98 2.065 . S
O103 C113 1.221 . S
O104 Co98 2.042 . S
O104 C119 1.237 . S
O105 Co86 1.958 . S
O105 C119 1.278 . S
O106 Co92 1.950 . S
O106 C118 1.277 . S
O107 Co92 2.262 1_554 S
O107 Co98 2.097 1_655 S
O107 C99 1.253 1_655 S
O108 Co92 1.958 . S
O108 C126 1.278 . S
O109 Co86 1.950 . S
O109 C113 1.277 . S
O110 Co86 2.057 1_556 S
O110 C125 1.263 1_455 S
O111 Co98 2.042 1_656 S
O111 C126 1.237 . S
O112 Co92 2.057 1_554 S
O112 C99 1.263 1_655 S
C113 O103 1.221 . S
C113 O109 1.277 . S
C114 C97 1.361 . S
C114 H115 0.960 . S
C114 H116 0.961 . S
C114 H117 0.961 1_556 S
H115 C114 0.960 . S
H116 C114 0.961 . S
H117 C114 0.961 1_554 S
C118 O102 1.221 . S
C118 O106 1.277 . S
C119 O104 1.237 . S
C119 O105 1.278 . S
H120 C88 0.931 . S
H121 C124 0.961 . S
H122 C124 0.961 . S
H123 C124 0.960 . S
C124 C90 1.361 1_556 S
C124 H121 0.961 . S
C124 H122 0.961 . S
C124 H123 0.960 . S
C125 O101 1.253 1_655 S
C125 O110 1.263 1_655 S
C126 O108 1.278 . S
C126 O111 1.237 . S
H127 C91 0.930 . S
H128 C95 0.930 . S
C119 C27 3.227 . S
C32 C75 2.513 1_565 S
C39 C99 2.753 1_655 S
C82 N3 1.396 . S
C40 C118 3.161 . S
C76 C33 2.144 . S
C125 C13 2.804 1_655 S
C56 N8 1.217 . S
N89 N46 1.510 . S
C113 C83 1.473 1_554 S
C70 C126 1.370 1_554 S
N94 N51 1.731 1_556 S
