# Generated by pormake.
# Topology uni, (4)-cn, num edge types: 1
# Building blocks:
#     Node 0, Type 0, BuildingBlock: TATPOV_clean_sbu_0, # of connection points: 4
#     Node 1, Type 0, BuildingBlock: TATPOV_clean_sbu_0, # of connection points: 4
#     Node 2, Type 0, BuildingBlock: TATPOV_clean_sbu_0, # of connection points: 4
#     Node 3, Type 0, BuildingBlock: TATPOV_clean_sbu_0, # of connection points: 4
#     Node 4, Type 0, BuildingBlock: TATPOV_clean_sbu_0, # of connection points: 4
#     Node 5, Type 0, BuildingBlock: TATPOV_clean_sbu_0, # of connection points: 4
#     Edge 6, Type (0, 0), None
#     Edge 7, Type (0, 0), None
#     Edge 8, Type (0, 0), None
#     Edge 9, Type (0, 0), None
#     Edge 10, Type (0, 0), None
#     Edge 11, Type (0, 0), None
#     Edge 12, Type (0, 0), None
#     Edge 13, Type (0, 0), None
#     Edge 14, Type (0, 0), None
#     Edge 15, Type (0, 0), None
#     Edge 16, Type (0, 0), None
#     Edge 17, Type (0, 0), None
# Relax obj value: 0.031
# Max RMSD: 0.065
# Mean RMSD: 0.065
data_MOF--net-uni--node1-TATPOV_clean_sbu_0--edge1-none
_symmetry_space_group_name_H-M    P1
_symmetry_Int_Tables_number       1
_symmetry_cell_setting            triclinic
loop_
_symmetry_equiv_pos_as_xyz
'x, y, z'
_cell_length_a     17.944565
_cell_length_b     17.931721
_cell_length_c     11.550012
_cell_angle_alpha  90.001008
_cell_angle_beta   89.998157
_cell_angle_gamma 120.12519
loop_
_atom_site_label
_atom_site_type_symbol
_atom_site_fract_x
_atom_site_fract_y
_atom_site_fract_z
_atom_type_partial_charge
Zn0 Zn 0.46649 0.9027 0.00659 0.0
Zn1 Zn 0.63965 0.01665 -0.00525 0.0
O2 O 0.64634 0.9082 0.03734 0.0
O3 O 0.50579 0.81722 0.04289 0.0
O4 O 0.75825 0.1176 -0.04514 0.0
O5 O 0.43893 0.92312 0.84402 0.0
O6 O 0.57865 0.01264 0.84242 0.0
C7 C 0.58255 0.8327 0.05506 0.0
C8 C 0.52872 0.03572 0.18145 0.0
O9 O 0.60215 0.05901 0.13688 0.0
O10 O 0.46098 0.9732 0.13919 0.0
C11 C 0.74924 0.18109 0.92532 0.0
O12 O 0.67271 0.17345 0.93409 0.0
C13 C 0.50588 0.97871 0.79204 0.0
Zn14 Zn 0.58899 0.47781 0.1712 0.0
Zn15 Zn 0.64887 0.65115 0.15984 0.0
O16 O 0.76401 0.65781 0.20226 0.0
O17 O 0.71384 0.51714 0.20736 0.0
O18 O 0.66663 0.76988 0.1211 0.0
O19 O 0.54106 0.45075 0.00865 0.0
O20 O 0.59183 0.59058 0.0072 0.0
C21 C 0.77541 0.59393 0.21969 0.0
C22 C 0.51837 0.53953 0.34623 0.0
O23 O 0.5688 0.61305 0.3018 0.0
O24 O 0.51288 0.4718 0.30386 0.0
C25 C 0.59395 0.7607 0.09223 0.0
O26 O 0.52499 0.68393 0.10053 0.0
C27 C 0.55269 0.51778 -0.04323 0.0
Zn28 Zn 0.13651 0.6004 0.33653 0.0
Zn29 Zn 0.0232 0.65996 0.32519 0.0
O30 O 0.13175 0.77505 0.36888 0.0
O31 O 0.22219 0.72514 0.37421 0.0
O32 O 0.92244 0.67782 0.28639 0.0
O33 O 0.1163 0.55327 0.17355 0.0
O34 O 0.02712 0.60358 0.17216 0.0
C35 C 0.20698 0.78654 0.38695 0.0
C36 C 0.00356 0.52881 0.5109 0.0
O37 O 0.98068 0.57932 0.46666 0.0
O38 O 0.06586 0.52353 0.4685 0.0
C39 C 0.85879 0.60523 0.25675 0.0
O40 O 0.86634 0.53622 0.26436 0.0
C41 C 0.06101 0.56488 0.12156 0.0
Zn42 Zn 0.56172 0.14819 0.5066 0.0
Zn43 Zn 0.38855 0.03423 0.49476 0.0
O44 O 0.38186 0.14268 0.53735 0.0
O45 O 0.52241 0.23366 0.5429 0.0
O46 O 0.26995 0.93328 0.45487 0.0
O47 O 0.58927 0.12776 0.34402 0.0
O48 O 0.44955 0.03824 0.34243 0.0
C49 C 0.44566 0.21818 0.55507 0.0
C50 C 0.49948 0.01516 0.68144 0.0
O51 O 0.42605 0.99186 0.63689 0.0
O52 O 0.56722 0.07768 0.63918 0.0
C53 C 0.27896 0.86979 0.42533 0.0
O54 O 0.35548 0.87742 0.43409 0.0
C55 C 0.52232 0.07217 0.29204 0.0
Zn56 Zn 0.43922 0.57309 0.67121 0.0
Zn57 Zn 0.37933 0.39973 0.65985 0.0
O58 O 0.26419 0.39308 0.70226 0.0
O59 O 0.31437 0.53374 0.70737 0.0
O60 O 0.36157 0.28101 0.62111 0.0
O61 O 0.48715 0.60014 0.50866 0.0
O62 O 0.43638 0.4603 0.5072 0.0
C63 C 0.25279 0.45696 0.7197 0.0
C64 C 0.50984 0.51136 0.84622 0.0
O65 O 0.4594 0.43783 0.8018 0.0
O66 O 0.51533 0.57909 0.80386 0.0
C67 C 0.43425 0.29018 0.59224 0.0
O68 O 0.50322 0.36696 0.60053 0.0
C69 C 0.47551 0.53311 0.45678 0.0
Zn70 Zn 0.89167 0.45048 0.83654 0.0
Zn71 Zn 0.005 0.39092 0.82518 0.0
O72 O 0.89645 0.27583 0.86887 0.0
O73 O 0.80601 0.32574 0.87422 0.0
O74 O 0.10575 0.37307 0.78638 0.0
O75 O 0.9119 0.49761 0.67356 0.0
O76 O 0.00108 0.4473 0.67216 0.0
C77 C 0.82121 0.26434 0.88695 0.0
C78 C 0.02464 0.52208 0.01088 0.0
O79 O 0.04751 0.47156 -0.03334 0.0
O80 O 0.96234 0.52735 -0.03149 0.0
C81 C 0.16941 0.44565 0.75675 0.0
O82 O 0.16186 0.51467 0.76436 0.0
C83 C 0.96718 0.486 0.62157 0.0
loop_
_geom_bond_atom_site_label_1
_geom_bond_atom_site_label_2
_geom_bond_distance
_geom_bond_site_symmetry_2
_ccdc_geom_bond_type
Zn0 O3 2.031 . S
Zn0 O5 2.049 1_554 S
Zn0 O10 2.067 . S
Zn1 O2 1.962 1_545 S
Zn1 O4 1.986 1_554 S
Zn1 O6 1.996 1_554 S
Zn1 O9 1.943 . S
O2 Zn1 1.962 1_565 S
O2 C7 1.254 . S
O3 Zn0 2.031 . S
O3 C7 1.269 . S
O4 Zn1 1.986 1_556 S
O4 C11 1.262 1_556 S
O5 Zn0 2.049 1_556 S
O5 C13 1.260 . S
O6 Zn1 1.996 1_556 S
O6 C13 1.257 1_545 S
C7 O2 1.254 . S
C7 O3 1.269 . S
C8 O9 1.249 . S
C8 O10 1.270 1_545 S
O9 Zn1 1.943 . S
O9 C8 1.249 . S
O10 Zn0 2.067 . S
O10 C8 1.270 1_565 S
C11 O4 1.262 1_554 S
C11 O12 1.232 . S
O12 C11 1.232 . S
C13 O5 1.260 . S
C13 O6 1.257 1_565 S
Zn14 O17 2.031 . S
Zn14 O19 2.049 . S
Zn14 O24 2.067 . S
Zn15 O16 1.962 . S
Zn15 O18 1.986 . S
Zn15 O20 1.996 . S
Zn15 O23 1.943 . S
O16 Zn15 1.962 . S
O16 C21 1.254 . S
O17 Zn14 2.031 . S
O17 C21 1.269 . S
O18 Zn15 1.986 . S
O18 C25 1.262 . S
O19 Zn14 2.049 . S
O19 C27 1.260 . S
O20 Zn15 1.996 . S
O20 C27 1.257 . S
C21 O16 1.254 . S
C21 O17 1.269 . S
C22 O23 1.249 . S
C22 O24 1.270 . S
O23 Zn15 1.943 . S
O23 C22 1.249 . S
O24 Zn14 2.067 . S
O24 C22 1.270 . S
C25 O18 1.262 . S
C25 O26 1.232 . S
O26 C25 1.232 . S
C27 O19 1.260 . S
C27 O20 1.257 . S
Zn28 O31 2.031 . S
Zn28 O33 2.049 . S
Zn28 O38 2.067 . S
Zn29 O30 1.958 1_655 S
Zn29 O32 1.996 . S
Zn29 O34 1.989 1_655 S
Zn29 O37 1.941 . S
O30 Zn29 1.958 1_455 S
O30 C35 1.254 . S
O31 Zn28 2.031 . S
O31 C35 1.269 . S
O32 Zn29 1.996 . S
O32 C39 1.262 . S
O33 Zn28 2.049 . S
O33 C41 1.260 . S
O34 Zn29 1.989 1_455 S
O34 C41 1.257 . S
C35 O30 1.254 . S
C35 O31 1.269 . S
C36 O37 1.249 1_455 S
C36 O38 1.270 . S
O37 Zn29 1.941 . S
O37 C36 1.249 1_655 S
O38 Zn28 2.067 . S
O38 C36 1.270 . S
C39 O32 1.262 . S
C39 O40 1.232 . S
O40 C39 1.232 . S
C41 O33 1.260 . S
C41 O34 1.257 . S
Zn42 O45 2.031 . S
Zn42 O47 2.049 . S
Zn42 O52 2.067 . S
Zn43 O44 1.962 . S
Zn43 O46 1.986 1_545 S
Zn43 O48 1.996 . S
Zn43 O51 1.943 1_545 S
O44 Zn43 1.962 . S
O44 C49 1.254 . S
O45 Zn42 2.031 . S
O45 C49 1.269 . S
O46 Zn43 1.986 1_565 S
O46 C53 1.262 . S
O47 Zn42 2.049 . S
O47 C55 1.260 . S
O48 Zn43 1.996 . S
O48 C55 1.257 . S
C49 O44 1.254 . S
C49 O45 1.269 . S
C50 O51 1.249 1_545 S
C50 O52 1.270 . S
O51 Zn43 1.943 1_565 S
O51 C50 1.249 1_565 S
O52 Zn42 2.067 . S
O52 C50 1.270 . S
C53 O46 1.262 . S
C53 O54 1.232 . S
O54 C53 1.232 . S
C55 O47 1.260 . S
C55 O48 1.257 . S
Zn56 O59 2.031 . S
Zn56 O61 2.049 . S
Zn56 O66 2.067 . S
Zn57 O58 1.962 . S
Zn57 O60 1.986 . S
Zn57 O62 1.996 . S
Zn57 O65 1.943 . S
O58 Zn57 1.962 . S
O58 C63 1.254 . S
O59 Zn56 2.031 . S
O59 C63 1.269 . S
O60 Zn57 1.986 . S
O60 C67 1.262 . S
O61 Zn56 2.049 . S
O61 C69 1.260 . S
O62 Zn57 1.996 . S
O62 C69 1.257 . S
C63 O58 1.254 . S
C63 O59 1.269 . S
C64 O65 1.249 . S
C64 O66 1.270 . S
O65 Zn57 1.943 . S
O65 C64 1.249 . S
O66 Zn56 2.067 . S
O66 C64 1.270 . S
C67 O60 1.262 . S
C67 O68 1.232 . S
O68 C67 1.232 . S
C69 O61 1.260 . S
C69 O62 1.257 . S
Zn70 O73 2.031 . S
Zn70 O75 2.049 . S
Zn70 O80 2.067 1_556 S
Zn71 O72 1.962 1_455 S
Zn71 O74 1.986 . S
Zn71 O76 1.996 1_455 S
Zn71 O79 1.943 1_556 S
O72 Zn71 1.962 1_655 S
O72 C77 1.254 . S
O73 Zn70 2.031 . S
O73 C77 1.269 . S
O74 Zn71 1.986 . S
O74 C81 1.262 . S
O75 Zn70 2.049 . S
O75 C83 1.260 . S
O76 Zn71 1.996 1_655 S
O76 C83 1.257 . S
C77 O72 1.254 . S
C77 O73 1.269 . S
C78 O79 1.249 . S
C78 O80 1.270 1_455 S
O79 Zn71 1.943 1_554 S
O79 C78 1.249 . S
O80 Zn70 2.067 1_554 S
O80 C78 1.270 1_655 S
C81 O74 1.262 . S
C81 O82 1.232 . S
O82 C81 1.232 . S
C83 O75 1.260 . S
C83 O76 1.257 . S
C8 C55 1.362 . S
C22 C69 1.362 . S
C83 C36 1.362 1_655 S
C13 C50 1.362 1_565 S
C27 C64 1.362 1_554 S
C78 C41 1.362 . S
C25 C7 1.507 . S
C39 C21 1.507 . S
C35 C53 1.507 . S
C67 C49 1.507 . S
C81 C63 1.507 . S
C77 C11 1.507 1_556 S
