# Generated by pormake.
# Topology smc, (6)-cn, num edge types: 1
# Building blocks:
#     Node 0, Type 0, BuildingBlock: CIFDUS_clean_sbu_1, # of connection points: 6
#     Node 1, Type 0, BuildingBlock: CIFDUS_clean_sbu_1, # of connection points: 6
#     Node 2, Type 0, BuildingBlock: CIFDUS_clean_sbu_1, # of connection points: 6
#     Node 3, Type 0, BuildingBlock: CIFDUS_clean_sbu_1, # of connection points: 6
#     Node 4, Type 0, BuildingBlock: CIFDUS_clean_sbu_1, # of connection points: 6
#     Node 5, Type 0, BuildingBlock: CIFDUS_clean_sbu_1, # of connection points: 6
#     Node 6, Type 0, BuildingBlock: CIFDUS_clean_sbu_1, # of connection points: 6
#     Node 7, Type 0, BuildingBlock: CIFDUS_clean_sbu_1, # of connection points: 6
#     Node 8, Type 0, BuildingBlock: CIFDUS_clean_sbu_1, # of connection points: 6
#     Edge 9, Type (0, 0), None
#     Edge 10, Type (0, 0), None
#     Edge 11, Type (0, 0), None
#     Edge 12, Type (0, 0), None
#     Edge 13, Type (0, 0), None
#     Edge 14, Type (0, 0), None
#     Edge 15, Type (0, 0), None
#     Edge 16, Type (0, 0), None
#     Edge 17, Type (0, 0), None
#     Edge 18, Type (0, 0), None
#     Edge 19, Type (0, 0), None
#     Edge 20, Type (0, 0), None
#     Edge 21, Type (0, 0), None
#     Edge 22, Type (0, 0), None
#     Edge 23, Type (0, 0), None
#     Edge 24, Type (0, 0), None
#     Edge 25, Type (0, 0), None
#     Edge 26, Type (0, 0), None
#     Edge 27, Type (0, 0), None
#     Edge 28, Type (0, 0), None
#     Edge 29, Type (0, 0), None
#     Edge 30, Type (0, 0), None
#     Edge 31, Type (0, 0), None
#     Edge 32, Type (0, 0), None
#     Edge 33, Type (0, 0), None
#     Edge 34, Type (0, 0), None
#     Edge 35, Type (0, 0), None
# Relax obj value: 0.156
# Max RMSD: 0.229
# Mean RMSD: 0.229
data_MOF--net-smc--node1-CIFDUS_clean_sbu_1--edge1-none
_symmetry_space_group_name_H-M    P1
_symmetry_Int_Tables_number       1
_symmetry_cell_setting            triclinic
loop_
_symmetry_equiv_pos_as_xyz
'x, y, z'
_cell_length_a     13.794363
_cell_length_b     13.794889
_cell_length_c     18.217145
_cell_angle_alpha  89.999794
_cell_angle_beta   89.99944
_cell_angle_gamma 120.00085
loop_
_atom_site_label
_atom_site_type_symbol
_atom_site_fract_x
_atom_site_fract_y
_atom_site_fract_z
_atom_type_partial_charge
O0 O 0.9066 0.33478 0.09343 0.0
Mn1 Mn 0.03013 0.50022 0.0715 0.0
O2 O 0.85794 0.34249 0.21082 0.0
Mn3 Mn 0.96253 0.49025 0.23493 0.0
O4 O 0.1561 0.67039 1.05185 0.0
O5 O 0.98315 0.47477 0.96385 0.0
Mn6 Mn 0.09773 0.55785 0.90807 0.0
O7 O 0.15365 0.4583 1.04956 0.0
O8 O 0.14014 0.70169 0.93361 0.0
O9 O 0.90417 0.54443 0.09115 0.0
O10 O 0.92012 0.59167 0.20939 0.0
O11 O 0.98355 0.4676 0.84517 0.0
O12 O 0.20233 0.51469 0.93218 0.0
C13 C 0.12655 0.51401 0.23791 0.0
C14 C 0.84487 0.28982 0.1503 0.0
C15 C 0.18451 0.73687 0.99599 0.0
C16 C 0.93371 0.4176 0.90509 0.0
C17 C 0.21538 0.47508 0.9927 0.0
C18 C 0.87575 0.58249 0.14701 0.0
O19 O 0.07711 0.52173 0.17915 0.0
O20 O 0.07671 0.51416 0.29783 0.0
O21 O 0.5948 0.7112 1.04956 0.0
Mn22 Mn 0.55288 0.54575 0.0715 0.0
O23 O 0.53839 0.70347 0.93218 0.0
Mn24 Mn 0.49524 0.55572 0.90807 0.0
O25 O 0.50868 0.37559 0.09114 0.0
O26 O 0.53135 0.57121 0.17915 0.0
Mn27 Mn 0.56285 0.48814 0.23493 0.0
O28 O 0.71833 0.58766 0.09343 0.0
O29 O 0.46145 0.34429 0.20939 0.0
O30 O 0.38271 0.50154 1.05185 0.0
O31 O 0.35139 0.45428 0.93359 0.0
O32 O 0.5389 0.57838 0.29782 0.0
O33 O 0.71062 0.53133 0.21083 0.0
C34 C 0.63551 0.53198 0.90508 0.0
C35 C 0.57801 0.75615 0.9927 0.0
C36 C 0.47064 0.30912 0.14701 0.0
C37 C 0.53907 0.62837 0.23791 0.0
C38 C 0.76329 0.57094 0.15031 0.0
C39 C 0.31623 0.46341 0.99599 0.0
O40 O 0.57833 0.52424 0.96384 0.0
O41 O 0.58552 0.53183 0.84517 0.0
O42 O 0.46548 0.14653 0.09343 0.0
Mn43 Mn 0.50739 0.02299 0.0715 0.0
O44 O 0.52183 0.19516 0.21083 0.0
Mn45 Mn 0.56501 0.09058 0.23493 0.0
O46 O 0.55159 0.89703 1.05186 0.0
O47 O 0.52891 0.06997 0.96384 0.0
Mn48 Mn 0.49743 0.9554 0.90806 0.0
O49 O 0.34194 0.89946 1.04956 0.0
O50 O 0.59884 0.91296 0.93359 0.0
O51 O 0.67755 0.14895 0.09114 0.0
O52 O 0.70886 0.13302 0.20941 0.0
O53 O 0.52135 0.06958 0.84517 0.0
O54 O 0.34966 0.85082 0.93217 0.0
C55 C 0.42475 0.92658 0.23791 0.0
C56 C 0.48221 0.20822 0.15031 0.0
C57 C 0.5897 0.86867 0.99599 0.0
C58 C 0.52118 0.1194 0.90508 0.0
C59 C 0.29699 0.83777 0.99269 0.0
C60 C 0.74402 0.1773 0.14701 0.0
O61 O 0.48193 0.97602 0.17915 0.0
O62 O 0.47474 0.9764 0.29783 0.0
O63 O 0.57327 0.6681 0.42676 0.0
Mn64 Mn 0.6968 0.83355 0.40483 0.0
O65 O 0.52458 0.67583 0.54414 0.0
Mn66 Mn 0.62919 0.82358 0.56825 0.0
O67 O 0.82276 1.00371 0.38518 0.0
O68 O 0.64984 0.80808 0.29718 0.0
Mn69 Mn 0.76439 0.89116 0.2414 0.0
O70 O 0.82034 0.79164 0.38289 0.0
O71 O 0.80681 0.035 0.26694 0.0
O72 O 0.57083 0.87775 0.42447 0.0
O73 O 0.58679 0.92501 0.54271 0.0
O74 O 0.65026 0.80095 0.17845 0.0
O75 O 0.86899 0.84801 0.2655 0.0
C76 C 0.7932 0.84732 0.57124 0.0
C77 C 0.51153 0.62315 0.48362 0.0
C78 C 0.85118 0.07018 0.32931 0.0
C79 C 0.60048 0.75099 0.23838 0.0
C80 C 0.88206 0.80841 0.32603 0.0
C81 C 0.54242 0.91582 0.48033 0.0
O82 O 0.74377 0.85506 0.51248 0.0
O83 O 0.74336 0.84748 0.63116 0.0
O84 O 0.38501 0.92102 0.42676 0.0
Mn85 Mn 0.21955 0.8791 0.40483 0.0
O86 O 0.37728 0.86465 0.54415 0.0
Mn87 Mn 0.22952 0.82146 0.56825 0.0
O88 O 0.04939 0.83488 0.38518 0.0
O89 O 0.24502 0.85761 0.29717 0.0
Mn90 Mn 0.16193 0.88907 0.24139 0.0
O91 O 0.26146 0.04454 0.38289 0.0
O92 O 1.01808 0.78764 0.26692 0.0
O93 O 0.17536 0.70894 0.42447 0.0
O94 O 0.12811 0.67762 0.54271 0.0
O95 O 0.25217 0.86518 0.17844 0.0
O96 O 0.20507 0.03682 0.26551 0.0
C97 C 0.20576 0.96171 0.57124 0.0
C98 C 0.42996 0.90427 0.48363 0.0
C99 C 0.98292 0.79676 0.32932 0.0
C100 C 0.30213 0.86537 0.23838 0.0
C101 C 0.24468 0.08949 0.32603 0.0
C102 C 0.1373 0.64245 0.48033 0.0
O103 O 0.19803 0.90454 0.51248 0.0
O104 O 0.20559 0.91171 0.63116 0.0
O105 O 0.13212 0.47985 0.42676 0.0
Mn106 Mn 0.17404 0.35632 0.40483 0.0
O107 O 0.18852 0.52852 0.54414 0.0
Mn108 Mn 0.23168 0.42393 0.56826 0.0
O109 O 0.21825 0.23037 0.38519 0.0
O110 O 0.19554 0.40328 0.29718 0.0
Mn111 Mn 0.16408 0.28874 0.24139 0.0
O112 O 1.0086 0.23278 0.38289 0.0
O113 O 0.26548 0.24629 0.26692 0.0
O114 O 0.34421 0.48228 0.42447 0.0
O115 O 0.37553 0.46634 0.54273 0.0
O116 O 0.188 0.40287 0.17844 0.0
O117 O 1.01632 0.18415 0.2655 0.0
C118 C 0.09141 0.25993 0.57124 0.0
C119 C 0.14888 0.54156 0.48363 0.0
C120 C 0.25636 0.20201 0.32932 0.0
C121 C 0.18779 0.45263 0.23838 0.0
C122 C 0.96364 0.17109 0.32602 0.0
C123 C 0.41069 0.51063 0.48033 0.0
O124 O 0.14859 0.30936 0.51249 0.0
O125 O 0.14141 0.30976 0.63116 0.0
O126 O 0.23993 1.00142 0.76009 0.0
Mn127 Mn 0.36346 0.16687 0.73817 0.0
O128 O 0.19125 1.00914 0.87748 0.0
Mn129 Mn 0.29586 0.15689 0.90159 0.0
O130 O 0.48943 0.33703 0.71853 0.0
O131 O 0.31651 0.14141 0.63052 0.0
Mn132 Mn 0.43107 0.22451 0.57474 0.0
O133 O 0.48699 0.12495 0.71623 0.0
O134 O 0.47347 0.36834 0.60029 0.0
O135 O 0.23751 0.21108 0.75781 0.0
O136 O 0.25346 0.25832 0.87605 0.0
O137 O 0.31695 0.13429 0.51179 0.0
O138 O 0.53568 0.18137 0.59885 0.0
C139 C 0.45977 0.1806 0.90461 0.0
C140 C 0.17819 0.95647 0.81696 0.0
C141 C 0.51784 0.40351 0.66266 0.0
C142 C 0.26716 0.08432 0.57172 0.0
C143 C 0.54873 0.14175 0.65937 0.0
C144 C 0.2091 0.24915 0.81367 0.0
O145 O 0.41041 0.18835 0.84582 0.0
O146 O 0.40998 0.18079 0.96455 0.0
O147 O 0.92815 0.37789 0.71623 0.0
Mn148 Mn 0.88623 0.21244 0.73816 0.0
O149 O 0.87172 0.37015 0.59886 0.0
Mn150 Mn 0.82859 0.22241 0.57473 0.0
O151 O 0.84203 0.04228 0.7578 0.0
O152 O 0.86473 0.2379 0.84581 0.0
Mn153 Mn 0.8962 0.15482 0.90159 0.0
O154 O 0.05168 0.25435 0.76009 0.0
O155 O 0.7948 1.01098 0.87605 0.0
O156 O 0.71606 0.16823 0.71853 0.0
O157 O 0.68475 0.12096 0.60027 0.0
O158 O 0.87227 0.24502 0.96454 0.0
O159 O 0.04396 0.19799 0.87749 0.0
C160 C 0.9688 0.19872 0.57171 0.0
C161 C 0.91135 0.42283 0.65938 0.0
C162 C 0.80398 0.9758 0.81367 0.0
C163 C 0.87248 0.29499 0.90461 0.0
C164 C 0.09663 0.2376 0.81697 0.0
C165 C 0.64959 0.13009 0.66267 0.0
O166 O 0.91168 0.19095 0.63051 0.0
O167 O 0.91883 0.19854 0.51178 0.0
O168 O 0.79879 0.8132 0.76009 0.0
Mn169 Mn 0.8407 0.68966 0.73816 0.0
O170 O 0.85517 0.86185 0.87748 0.0
Mn171 Mn 0.89833 0.75726 0.9016 0.0
O172 O 0.8849 0.5637 0.71853 0.0
O173 O 0.8622 0.7366 0.63051 0.0
Mn174 Mn 0.83074 0.62206 0.57473 0.0
O175 O 0.67525 0.56612 0.71624 0.0
O176 O 0.93216 0.57963 0.60027 0.0
O177 O 1.01087 0.81561 0.7578 0.0
O178 O 0.04218 0.79968 0.87607 0.0
O179 O 0.85464 0.73618 0.51178 0.0
O180 O 0.68298 0.51747 0.59885 0.0
C181 C 0.75813 0.59336 0.90461 0.0
C182 C 0.81555 0.8749 0.81696 0.0
C183 C 0.92302 0.53535 0.66267 0.0
C184 C 0.85444 0.78595 0.57172 0.0
C185 C 0.63031 0.50442 0.65936 0.0
C186 C 0.07734 0.84396 0.81367 0.0
O187 O 0.81524 0.64271 0.84582 0.0
O188 O 0.80809 0.64313 0.96455 0.0
loop_
_geom_bond_atom_site_label_1
_geom_bond_atom_site_label_2
_geom_bond_distance
_geom_bond_site_symmetry_2
_ccdc_geom_bond_type
O0 Mn1 2.163 1_656 S
O0 C14 1.244 1_556 S
Mn1 O0 2.163 1_454 S
Mn1 O4 2.160 . S
Mn1 O5 2.221 1_554 S
Mn1 O7 2.163 . S
Mn1 O9 2.160 1_455 S
Mn1 O19 2.221 1_455 S
O2 Mn3 2.087 . S
O2 C14 1.256 . S
Mn3 O2 2.087 . S
Mn3 O10 2.089 . S
Mn3 O19 2.290 . S
Mn3 O20 2.251 . S
O4 Mn1 2.160 . S
O4 C15 1.239 1_554 S
O5 Mn1 2.221 1_556 S
O5 Mn6 2.290 . S
O5 C16 1.278 . S
Mn6 O5 2.290 . S
Mn6 O8 2.089 . S
Mn6 O11 2.251 . S
Mn6 O12 2.087 . S
O7 Mn1 2.163 . S
O7 C17 1.244 1_554 S
O8 Mn6 2.089 . S
O8 C15 1.256 . S
O9 Mn1 2.160 1_655 S
O9 C18 1.239 . S
O10 Mn3 2.089 . S
O10 C18 1.256 . S
O11 Mn6 2.251 . S
O11 C16 1.241 . S
O12 Mn6 2.087 . S
O12 C17 1.256 . S
C13 O19 1.278 1_455 S
C13 O20 1.241 1_455 S
C14 O0 1.244 1_554 S
C14 O2 1.256 . S
C15 O4 1.239 1_556 S
C15 O8 1.256 . S
C16 O5 1.278 . S
C16 O11 1.241 . S
C17 O7 1.244 1_556 S
C17 O12 1.256 . S
C18 O9 1.239 . S
C18 O10 1.256 . S
O19 Mn1 2.221 1_655 S
O19 Mn3 2.290 . S
O19 C13 1.278 1_655 S
O20 Mn3 2.251 . S
O20 C13 1.241 1_655 S
O21 Mn22 2.163 . S
O21 C35 1.244 1_554 S
Mn22 O21 2.163 . S
Mn22 O25 2.160 . S
Mn22 O26 2.221 . S
Mn22 O28 2.163 1_554 S
Mn22 O30 2.160 . S
Mn22 O40 2.221 1_554 S
O23 Mn24 2.087 . S
O23 C35 1.256 . S
Mn24 O23 2.087 . S
Mn24 O31 2.089 . S
Mn24 O40 2.290 . S
Mn24 O41 2.251 . S
O25 Mn22 2.160 . S
O25 C36 1.239 . S
O26 Mn22 2.221 . S
O26 Mn27 2.290 . S
O26 C37 1.278 . S
Mn27 O26 2.290 . S
Mn27 O29 2.089 . S
Mn27 O32 2.251 . S
Mn27 O33 2.087 . S
O28 Mn22 2.163 1_556 S
O28 C38 1.244 1_556 S
O29 Mn27 2.089 . S
O29 C36 1.256 . S
O30 Mn22 2.160 . S
O30 C39 1.239 1_554 S
O31 Mn24 2.089 . S
O31 C39 1.256 . S
O32 Mn27 2.251 . S
O32 C37 1.241 . S
O33 Mn27 2.087 . S
O33 C38 1.256 . S
C34 O40 1.278 . S
C34 O41 1.241 . S
C35 O21 1.244 1_556 S
C35 O23 1.256 . S
C36 O25 1.239 . S
C36 O29 1.256 . S
C37 O26 1.278 . S
C37 O32 1.241 . S
C38 O28 1.244 1_554 S
C38 O33 1.256 . S
C39 O30 1.239 1_556 S
C39 O31 1.256 . S
O40 Mn22 2.221 1_556 S
O40 Mn24 2.290 . S
O40 C34 1.278 . S
O41 Mn24 2.251 . S
O41 C34 1.241 . S
O42 Mn43 2.163 1_556 S
O42 C56 1.244 1_556 S
Mn43 O42 2.163 1_554 S
Mn43 O46 2.160 1_545 S
Mn43 O47 2.221 1_544 S
Mn43 O49 2.163 1_545 S
Mn43 O51 2.160 . S
Mn43 O61 2.221 . S
O44 Mn45 2.087 . S
O44 C56 1.256 . S
Mn45 O44 2.087 . S
Mn45 O52 2.089 . S
Mn45 O61 2.290 . S
Mn45 O62 2.251 . S
O46 Mn43 2.160 1_565 S
O46 C57 1.239 1_554 S
O47 Mn43 2.221 1_566 S
O47 Mn48 2.290 . S
O47 C58 1.278 1_565 S
Mn48 O47 2.290 . S
Mn48 O50 2.089 . S
Mn48 O53 2.251 . S
Mn48 O54 2.087 . S
O49 Mn43 2.163 1_565 S
O49 C59 1.244 1_554 S
O50 Mn48 2.089 . S
O50 C57 1.256 . S
O51 Mn43 2.160 . S
O51 C60 1.239 . S
O52 Mn45 2.089 . S
O52 C60 1.256 . S
O53 Mn48 2.251 . S
O53 C58 1.241 1_565 S
O54 Mn48 2.087 . S
O54 C59 1.256 . S
C55 O61 1.278 . S
C55 O62 1.241 . S
C56 O42 1.244 1_554 S
C56 O44 1.256 . S
C57 O46 1.239 1_556 S
C57 O50 1.256 . S
C58 O47 1.278 1_545 S
C58 O53 1.241 1_545 S
C59 O49 1.244 1_556 S
C59 O54 1.256 . S
C60 O51 1.239 . S
C60 O52 1.256 . S
O61 Mn43 2.221 . S
O61 Mn45 2.290 . S
O61 C55 1.278 . S
O62 Mn45 2.251 . S
O62 C55 1.241 . S
O63 Mn64 2.163 . S
O63 C77 1.244 . S
Mn64 O63 2.163 . S
Mn64 O67 2.160 . S
Mn64 O68 2.221 . S
Mn64 O70 2.163 . S
Mn64 O72 2.160 . S
Mn64 O82 2.221 . S
O65 Mn66 2.087 . S
O65 C77 1.256 . S
Mn66 O65 2.087 . S
Mn66 O73 2.089 . S
Mn66 O82 2.290 . S
Mn66 O83 2.251 . S
O67 Mn64 2.160 . S
O67 C78 1.239 1_565 S
O68 Mn64 2.221 . S
O68 Mn69 2.290 . S
O68 C79 1.278 . S
Mn69 O68 2.290 . S
Mn69 O71 2.089 1_565 S
Mn69 O74 2.251 . S
Mn69 O75 2.087 . S
O70 Mn64 2.163 . S
O70 C80 1.244 . S
O71 Mn69 2.089 1_545 S
O71 C78 1.256 . S
O72 Mn64 2.160 . S
O72 C81 1.239 . S
O73 Mn66 2.089 . S
O73 C81 1.256 . S
O74 Mn69 2.251 . S
O74 C79 1.241 . S
O75 Mn69 2.087 . S
O75 C80 1.256 . S
C76 O82 1.278 . S
C76 O83 1.241 . S
C77 O63 1.244 . S
C77 O65 1.256 . S
C78 O67 1.239 1_545 S
C78 O71 1.256 . S
C79 O68 1.278 . S
C79 O74 1.241 . S
C80 O70 1.244 . S
C80 O75 1.256 . S
C81 O72 1.239 . S
C81 O73 1.256 . S
O82 Mn64 2.221 . S
O82 Mn66 2.290 . S
O82 C76 1.278 . S
O83 Mn66 2.251 . S
O83 C76 1.241 . S
O84 Mn85 2.163 . S
O84 C98 1.244 . S
Mn85 O84 2.163 . S
Mn85 O88 2.160 . S
Mn85 O89 2.221 . S
Mn85 O91 2.163 1_565 S
Mn85 O93 2.160 . S
Mn85 O103 2.221 . S
O86 Mn87 2.087 . S
O86 C98 1.256 . S
Mn87 O86 2.087 . S
Mn87 O94 2.089 . S
Mn87 O103 2.290 . S
Mn87 O104 2.251 . S
O88 Mn85 2.160 . S
O88 C99 1.239 1_455 S
O89 Mn85 2.221 . S
O89 Mn90 2.290 . S
O89 C100 1.278 . S
Mn90 O89 2.290 . S
Mn90 O92 2.089 1_455 S
Mn90 O95 2.251 . S
Mn90 O96 2.087 1_565 S
O91 Mn85 2.163 1_545 S
O91 C101 1.244 . S
O92 Mn90 2.089 1_655 S
O92 C99 1.256 . S
O93 Mn85 2.160 . S
O93 C102 1.239 . S
O94 Mn87 2.089 . S
O94 C102 1.256 . S
O95 Mn90 2.251 . S
O95 C100 1.241 . S
O96 Mn90 2.087 1_545 S
O96 C101 1.256 . S
C97 O103 1.278 . S
C97 O104 1.241 . S
C98 O84 1.244 . S
C98 O86 1.256 . S
C99 O88 1.239 1_655 S
C99 O92 1.256 . S
C100 O89 1.278 . S
C100 O95 1.241 . S
C101 O91 1.244 . S
C101 O96 1.256 . S
C102 O93 1.239 . S
C102 O94 1.256 . S
O103 Mn85 2.221 . S
O103 Mn87 2.290 . S
O103 C97 1.278 . S
O104 Mn87 2.251 . S
O104 C97 1.241 . S
O105 Mn106 2.163 . S
O105 C119 1.244 . S
Mn106 O105 2.163 . S
Mn106 O109 2.160 . S
Mn106 O110 2.221 . S
Mn106 O112 2.163 1_455 S
Mn106 O114 2.160 . S
Mn106 O124 2.221 . S
O107 Mn108 2.087 . S
O107 C119 1.256 . S
Mn108 O107 2.087 . S
Mn108 O115 2.089 . S
Mn108 O124 2.290 . S
Mn108 O125 2.251 . S
O109 Mn106 2.160 . S
O109 C120 1.239 . S
O110 Mn106 2.221 . S
O110 Mn111 2.290 . S
O110 C121 1.278 . S
Mn111 O110 2.290 . S
Mn111 O113 2.089 . S
Mn111 O116 2.251 . S
Mn111 O117 2.087 1_455 S
O112 Mn106 2.163 1_655 S
O112 C122 1.244 . S
O113 Mn111 2.089 . S
O113 C120 1.256 . S
O114 Mn106 2.160 . S
O114 C123 1.239 . S
O115 Mn108 2.089 . S
O115 C123 1.256 . S
O116 Mn111 2.251 . S
O116 C121 1.241 . S
O117 Mn111 2.087 1_655 S
O117 C122 1.256 . S
C118 O124 1.278 . S
C118 O125 1.241 . S
C119 O105 1.244 . S
C119 O107 1.256 . S
C120 O109 1.239 . S
C120 O113 1.256 . S
C121 O110 1.278 . S
C121 O116 1.241 . S
C122 O112 1.244 . S
C122 O117 1.256 . S
C123 O114 1.239 . S
C123 O115 1.256 . S
O124 Mn106 2.221 . S
O124 Mn108 2.290 . S
O124 C118 1.278 . S
O125 Mn108 2.251 . S
O125 C118 1.241 . S
O126 Mn127 2.163 1_565 S
O126 C140 1.244 . S
Mn127 O126 2.163 1_545 S
Mn127 O130 2.160 . S
Mn127 O131 2.221 . S
Mn127 O133 2.163 . S
Mn127 O135 2.160 . S
Mn127 O145 2.221 . S
O128 Mn129 2.087 1_565 S
O128 C140 1.256 . S
Mn129 O128 2.087 1_545 S
Mn129 O136 2.089 . S
Mn129 O145 2.290 . S
Mn129 O146 2.251 . S
O130 Mn127 2.160 . S
O130 C141 1.239 . S
O131 Mn127 2.221 . S
O131 Mn132 2.290 . S
O131 C142 1.278 . S
Mn132 O131 2.290 . S
Mn132 O134 2.089 . S
Mn132 O137 2.251 . S
Mn132 O138 2.087 . S
O133 Mn127 2.163 . S
O133 C143 1.244 . S
O134 Mn132 2.089 . S
O134 C141 1.256 . S
O135 Mn127 2.160 . S
O135 C144 1.239 . S
O136 Mn129 2.089 . S
O136 C144 1.256 . S
O137 Mn132 2.251 . S
O137 C142 1.241 . S
O138 Mn132 2.087 . S
O138 C143 1.256 . S
C139 O145 1.278 . S
C139 O146 1.241 . S
C140 O126 1.244 . S
C140 O128 1.256 . S
C141 O130 1.239 . S
C141 O134 1.256 . S
C142 O131 1.278 . S
C142 O137 1.241 . S
C143 O133 1.244 . S
C143 O138 1.256 . S
C144 O135 1.239 . S
C144 O136 1.256 . S
O145 Mn127 2.221 . S
O145 Mn129 2.290 . S
O145 C139 1.278 . S
O146 Mn129 2.251 . S
O146 C139 1.241 . S
O147 Mn148 2.163 . S
O147 C161 1.244 . S
Mn148 O147 2.163 . S
Mn148 O151 2.160 . S
Mn148 O152 2.221 . S
Mn148 O154 2.163 1_655 S
Mn148 O156 2.160 . S
Mn148 O166 2.221 . S
O149 Mn150 2.087 . S
O149 C161 1.256 . S
Mn150 O149 2.087 . S
Mn150 O157 2.089 . S
Mn150 O166 2.290 . S
Mn150 O167 2.251 . S
O151 Mn148 2.160 . S
O151 C162 1.239 1_545 S
O152 Mn148 2.221 . S
O152 Mn153 2.290 . S
O152 C163 1.278 . S
Mn153 O152 2.290 . S
Mn153 O155 2.089 1_545 S
Mn153 O158 2.251 . S
Mn153 O159 2.087 1_655 S
O154 Mn148 2.163 1_455 S
O154 C164 1.244 . S
O155 Mn153 2.089 1_565 S
O155 C162 1.256 . S
O156 Mn148 2.160 . S
O156 C165 1.239 . S
O157 Mn150 2.089 . S
O157 C165 1.256 . S
O158 Mn153 2.251 . S
O158 C163 1.241 . S
O159 Mn153 2.087 1_455 S
O159 C164 1.256 . S
C160 O166 1.278 . S
C160 O167 1.241 . S
C161 O147 1.244 . S
C161 O149 1.256 . S
C162 O151 1.239 1_565 S
C162 O155 1.256 . S
C163 O152 1.278 . S
C163 O158 1.241 . S
C164 O154 1.244 . S
C164 O159 1.256 . S
C165 O156 1.239 . S
C165 O157 1.256 . S
O166 Mn148 2.221 . S
O166 Mn150 2.290 . S
O166 C160 1.278 . S
O167 Mn150 2.251 . S
O167 C160 1.241 . S
O168 Mn169 2.163 . S
O168 C182 1.244 . S
Mn169 O168 2.163 . S
Mn169 O172 2.160 . S
Mn169 O173 2.221 . S
Mn169 O175 2.163 . S
Mn169 O177 2.160 . S
Mn169 O187 2.221 . S
O170 Mn171 2.087 . S
O170 C182 1.256 . S
Mn171 O170 2.087 . S
Mn171 O178 2.089 1_655 S
Mn171 O187 2.290 . S
Mn171 O188 2.251 . S
O172 Mn169 2.160 . S
O172 C183 1.239 . S
O173 Mn169 2.221 . S
O173 Mn174 2.290 . S
O173 C184 1.278 . S
Mn174 O173 2.290 . S
Mn174 O176 2.089 . S
Mn174 O179 2.251 . S
Mn174 O180 2.087 . S
O175 Mn169 2.163 . S
O175 C185 1.244 . S
O176 Mn174 2.089 . S
O176 C183 1.256 . S
O177 Mn169 2.160 . S
O177 C186 1.239 1_655 S
O178 Mn171 2.089 1_455 S
O178 C186 1.256 . S
O179 Mn174 2.251 . S
O179 C184 1.241 . S
O180 Mn174 2.087 . S
O180 C185 1.256 . S
C181 O187 1.278 . S
C181 O188 1.241 . S
C182 O168 1.244 . S
C182 O170 1.256 . S
C183 O172 1.239 . S
C183 O176 1.256 . S
C184 O173 1.278 . S
C184 O179 1.241 . S
C185 O175 1.244 . S
C185 O180 1.256 . S
C186 O177 1.239 1_455 S
C186 O178 1.256 . S
O187 Mn169 2.221 . S
O187 Mn171 2.290 . S
O187 C181 1.278 . S
O188 Mn171 2.251 . S
O188 C181 1.241 . S
C39 C17 1.218 . S
C57 C35 1.218 . S
C59 C15 1.218 . S
C56 C36 1.218 . S
C60 C14 1.218 . S
C18 C38 1.218 . S
C80 C99 1.218 . S
C120 C101 1.218 . S
C122 C78 1.218 . S
C102 C119 1.218 . S
C123 C77 1.218 . S
C98 C81 1.218 . S
C165 C143 1.218 . S
C161 C183 1.218 . S
C185 C141 1.218 . S
C182 C162 1.218 . S
C186 C140 1.218 . S
C144 C164 1.218 . S
C121 C13 2.475 . S
C79 C37 2.475 . S
C55 C100 2.475 1_545 S
C58 C139 2.475 . S
C16 C163 2.475 1_455 S
C181 C34 2.475 . S
C76 C184 2.475 . S
C97 C142 2.475 1_565 S
C160 C118 2.475 1_655 S
