# Generated by pormake.
# Topology ukt, (4)-cn, num edge types: 1
# Building blocks:
#     Node 0, Type 0, BuildingBlock: AZAVOO_clean_sbu_0, # of connection points: 4
#     Node 1, Type 0, BuildingBlock: AZAVOO_clean_sbu_0, # of connection points: 4
#     Node 2, Type 0, BuildingBlock: AZAVOO_clean_sbu_0, # of connection points: 4
#     Node 3, Type 0, BuildingBlock: AZAVOO_clean_sbu_0, # of connection points: 4
#     Node 4, Type 0, BuildingBlock: AZAVOO_clean_sbu_0, # of connection points: 4
#     Node 5, Type 0, BuildingBlock: AZAVOO_clean_sbu_0, # of connection points: 4
#     Node 6, Type 0, BuildingBlock: AZAVOO_clean_sbu_0, # of connection points: 4
#     Node 7, Type 0, BuildingBlock: AZAVOO_clean_sbu_0, # of connection points: 4
#     Node 8, Type 0, BuildingBlock: AZAVOO_clean_sbu_0, # of connection points: 4
#     Node 9, Type 0, BuildingBlock: AZAVOO_clean_sbu_0, # of connection points: 4
#     Node 10, Type 0, BuildingBlock: AZAVOO_clean_sbu_0, # of connection points: 4
#     Node 11, Type 0, BuildingBlock: AZAVOO_clean_sbu_0, # of connection points: 4
#     Node 12, Type 0, BuildingBlock: AZAVOO_clean_sbu_0, # of connection points: 4
#     Node 13, Type 0, BuildingBlock: AZAVOO_clean_sbu_0, # of connection points: 4
#     Node 14, Type 0, BuildingBlock: AZAVOO_clean_sbu_0, # of connection points: 4
#     Node 15, Type 0, BuildingBlock: AZAVOO_clean_sbu_0, # of connection points: 4
#     Edge 16, Type (0, 0), None
#     Edge 17, Type (0, 0), None
#     Edge 18, Type (0, 0), None
#     Edge 19, Type (0, 0), None
#     Edge 20, Type (0, 0), None
#     Edge 21, Type (0, 0), None
#     Edge 22, Type (0, 0), None
#     Edge 23, Type (0, 0), None
#     Edge 24, Type (0, 0), None
#     Edge 25, Type (0, 0), None
#     Edge 26, Type (0, 0), None
#     Edge 27, Type (0, 0), None
#     Edge 28, Type (0, 0), None
#     Edge 29, Type (0, 0), None
#     Edge 30, Type (0, 0), None
#     Edge 31, Type (0, 0), None
#     Edge 32, Type (0, 0), None
#     Edge 33, Type (0, 0), None
#     Edge 34, Type (0, 0), None
#     Edge 35, Type (0, 0), None
#     Edge 36, Type (0, 0), None
#     Edge 37, Type (0, 0), None
#     Edge 38, Type (0, 0), None
#     Edge 39, Type (0, 0), None
#     Edge 40, Type (0, 0), None
#     Edge 41, Type (0, 0), None
#     Edge 42, Type (0, 0), None
#     Edge 43, Type (0, 0), None
#     Edge 44, Type (0, 0), None
#     Edge 45, Type (0, 0), None
#     Edge 46, Type (0, 0), None
#     Edge 47, Type (0, 0), None
# Relax obj value: 0.257
# Max RMSD: 0.212
# Mean RMSD: 0.198
data_MOF--net-ukt--node1-AZAVOO_clean_sbu_0--edge1-none
_symmetry_space_group_name_H-M    P1
_symmetry_Int_Tables_number       1
_symmetry_cell_setting            triclinic
loop_
_symmetry_equiv_pos_as_xyz
'x, y, z'
_cell_length_a     18.907283
_cell_length_b     18.907283
_cell_length_c     17.008104
_cell_angle_alpha  90.0
_cell_angle_beta   90.0
_cell_angle_gamma 90.0
loop_
_atom_site_label
_atom_site_type_symbol
_atom_site_fract_x
_atom_site_fract_y
_atom_site_fract_z
_atom_type_partial_charge
Mg0 Mg 0.5162 0.14719 0.0543 0.0
O1 O 0.62717 0.10735 1.02059 0.0
O2 O 0.6934 0.20075 0.03917 0.0
Mg3 Mg 0.62824 0.30033 0.06062 0.0
C4 C 0.687 0.13664 1.0197 0.0
C5 C 0.51884 -0.00727 0.98795 0.0
O6 O 0.5282 0.02924 0.9231 0.0
O7 O 0.54199 0.17823 0.19081 0.0
O8 O 0.59693 0.28379 0.18365 0.0
O9 O 0.50665 0.19427 0.9266 0.0
O10 O 0.53026 0.25354 0.03188 0.0
C11 C 0.56458 0.2369 0.22254 0.0
C12 C 0.52148 0.25392 0.95902 0.0
O13 O 0.50477 0.02544 0.05219 0.0
Mg14 Mg 0.33814 0.5162 0.0543 0.0
O15 O 0.37799 0.62717 1.02059 0.0
O16 O 0.28458 0.6934 0.03917 0.0
Mg17 Mg 0.185 0.62824 0.06062 0.0
C18 C 0.34869 0.687 1.0197 0.0
C19 C 0.49261 0.51884 0.98795 0.0
O20 O 0.45609 0.5282 0.9231 0.0
O21 O 0.3071 0.54199 0.19081 0.0
O22 O 0.20155 0.59693 0.18365 0.0
O23 O 0.29106 0.50665 0.9266 0.0
O24 O 0.23179 0.53026 0.03188 0.0
C25 C 0.24843 0.56458 0.22254 0.0
C26 C 0.23141 0.52148 0.95902 0.0
O27 O 0.45989 0.50477 0.05219 0.0
Mg28 Mg 0.96913 0.33814 0.0543 0.0
O29 O 0.85817 0.37799 1.02059 0.0
O30 O 0.79194 0.28458 0.03917 0.0
Mg31 Mg 0.85709 0.185 0.06062 0.0
C32 C 0.79834 0.34869 1.0197 0.0
C33 C 0.96649 0.49261 0.98795 0.0
O34 O 0.95713 0.45609 0.9231 0.0
O35 O 0.94334 0.3071 0.19081 0.0
O36 O 0.88841 0.20155 0.18365 0.0
O37 O 0.97868 0.29106 0.9266 0.0
O38 O 0.95507 0.23179 0.03188 0.0
C39 C 0.92076 0.24843 0.22254 0.0
C40 C 0.96385 0.23141 0.95902 0.0
O41 O 0.98057 0.45989 0.05219 0.0
Mg42 Mg 0.14719 0.96913 0.0543 0.0
O43 O 0.10735 0.85817 1.02059 0.0
O44 O 0.20075 0.79194 0.03917 0.0
Mg45 Mg 0.30033 0.85709 0.06062 0.0
C46 C 0.13664 0.79834 1.0197 0.0
C47 C -0.00727 0.96649 0.98795 0.0
O48 O 0.02924 0.95713 0.9231 0.0
O49 O 0.17823 0.94334 0.19081 0.0
O50 O 0.28379 0.88841 0.18365 0.0
O51 O 0.19427 0.97868 0.9266 0.0
O52 O 0.25354 0.95507 0.03188 0.0
C53 C 0.2369 0.92076 0.22254 0.0
C54 C 0.25392 0.96385 0.95902 0.0
O55 O 0.02544 0.98057 0.05219 0.0
Mg56 Mg 0.5162 0.33814 0.47658 0.0
O57 O 0.62717 0.37799 0.51029 0.0
O58 O 0.6934 0.28458 0.49172 0.0
Mg59 Mg 0.62825 0.185 0.47027 0.0
C60 C 0.687 0.3487 0.51118 0.0
C61 C 0.51884 0.4926 0.54294 0.0
O62 O 0.5282 0.45609 0.60778 0.0
O63 O 0.54199 0.30709 0.34007 0.0
O64 O 0.59693 0.20153 0.34724 0.0
O65 O 0.50665 0.29106 0.60429 0.0
O66 O 0.53027 0.23179 0.49901 0.0
C67 C 0.56456 0.24841 0.30836 0.0
C68 C 0.52148 0.23141 0.57187 0.0
O69 O 0.50477 0.45989 0.47869 0.0
Mg70 Mg 0.1472 0.5162 0.47658 0.0
O71 O 0.10735 0.62717 0.51029 0.0
O72 O 0.20075 0.6934 0.49172 0.0
Mg73 Mg 0.30033 0.62825 0.47027 0.0
C74 C 0.13664 0.687 0.51118 0.0
C75 C -0.00727 0.51884 0.54294 0.0
O76 O 0.02925 0.5282 0.60778 0.0
O77 O 0.17824 0.54199 0.34007 0.0
O78 O 0.2838 0.59693 0.34724 0.0
O79 O 0.19427 0.50665 0.60429 0.0
O80 O 0.25354 0.53027 0.49901 0.0
C81 C 0.23692 0.56456 0.30836 0.0
C82 C 0.25393 0.52148 0.57187 0.0
O83 O 0.02545 0.50477 0.47869 0.0
Mg84 Mg 0.96913 0.1472 0.47658 0.0
O85 O 0.85817 0.10735 0.51029 0.0
O86 O 0.79193 0.20075 0.49172 0.0
Mg87 Mg 0.85709 0.30033 0.47027 0.0
C88 C 0.79834 0.13664 0.51118 0.0
C89 C 0.96649 -0.00727 0.54294 0.0
O90 O 0.95713 0.02925 0.60778 0.0
O91 O 0.94334 0.17824 0.34007 0.0
O92 O 0.88841 0.2838 0.34724 0.0
O93 O 0.97868 0.19427 0.60429 0.0
O94 O 0.95507 0.25354 0.49901 0.0
C95 C 0.92077 0.23692 0.30836 0.0
C96 C 0.96385 0.25393 0.57187 0.0
O97 O 0.98057 0.02545 0.47869 0.0
Mg98 Mg 0.33814 0.96913 0.47658 0.0
O99 O 0.37799 0.85817 0.51029 0.0
O100 O 0.28458 0.79193 0.49172 0.0
Mg101 Mg 0.185 0.85709 0.47027 0.0
C102 C 0.3487 0.79834 0.51118 0.0
C103 C 0.4926 0.96649 0.54294 0.0
O104 O 0.45609 0.95713 0.60778 0.0
O105 O 0.30709 0.94334 0.34007 0.0
O106 O 0.20153 0.88841 0.34724 0.0
O107 O 0.29106 0.97868 0.60429 0.0
O108 O 0.23179 0.95507 0.49901 0.0
C109 C 0.24841 0.92077 0.30836 0.0
C110 C 0.23141 0.96385 0.57187 0.0
O111 O 0.45989 0.98057 0.47869 0.0
Mg112 Mg 0.43084 0.88355 0.86946 0.0
O113 O 0.39299 0.77695 0.93356 0.0
O114 O 0.40249 0.78984 0.06463 0.0
Mg115 Mg 0.41365 0.90997 0.08683 0.0
C116 C 0.38947 0.7521 1.00418 0.0
C117 C 0.48863 0.77069 0.73604 0.0
O118 O 0.51168 0.7572 0.66483 0.0
O119 O 0.53988 0.88185 0.92648 0.0
O120 O 0.52519 0.88432 0.05159 0.0
O121 O 0.31789 0.91722 0.84739 0.0
O122 O 0.37668 0.93426 0.95881 0.0
C123 C 0.54063 0.91764 0.98993 0.0
C124 C 0.31866 0.94118 0.91867 0.0
O125 O 0.47073 0.83352 0.75372 0.0
Mg126 Mg 0.60179 0.43084 0.86946 0.0
O127 O 0.70839 0.39299 0.93356 0.0
O128 O 0.69549 0.40249 0.06463 0.0
Mg129 Mg 0.57536 0.41365 0.08683 0.0
C130 C 0.73323 0.38947 1.00418 0.0
C131 C 0.71465 0.48863 0.73604 0.0
O132 O 0.72814 0.51168 0.66483 0.0
O133 O 0.60348 0.53988 0.92648 0.0
O134 O 0.60101 0.52519 0.05159 0.0
O135 O 0.56812 0.31789 0.84739 0.0
O136 O 0.55108 0.37668 0.95881 0.0
C137 C 0.56769 0.54063 0.98993 0.0
C138 C 0.54416 0.31866 0.91867 0.0
O139 O 0.65181 0.47073 0.75372 0.0
Mg140 Mg 0.0545 0.60179 0.86946 0.0
O141 O 0.09235 0.70839 0.93356 0.0
O142 O 0.08285 0.69549 0.06463 0.0
Mg143 Mg 0.07168 0.57536 0.08683 0.0
C144 C 0.09587 0.73323 1.00418 0.0
C145 C -0.00329 0.71465 0.73604 0.0
O146 O 0.97366 0.72814 0.66483 0.0
O147 O 0.94546 0.60348 0.92648 0.0
O148 O 0.96014 0.60101 0.05159 0.0
O149 O 0.16744 0.56812 0.84739 0.0
O150 O 0.10865 0.55108 0.95881 0.0
C151 C 0.9447 0.56769 0.98993 0.0
C152 C 0.16667 0.54416 0.91867 0.0
O153 O 0.0146 0.65181 0.75372 0.0
Mg154 Mg 0.88355 0.0545 0.86946 0.0
O155 O 0.77695 0.09235 0.93356 0.0
O156 O 0.78984 0.08285 0.06463 0.0
Mg157 Mg 0.90997 0.07168 0.08683 0.0
C158 C 0.7521 0.09587 1.00418 0.0
C159 C 0.77069 -0.00329 0.73604 0.0
O160 O 0.7572 0.97366 0.66483 0.0
O161 O 0.88185 0.94546 0.92648 0.0
O162 O 0.88432 0.96014 0.05159 0.0
O163 O 0.91722 0.16744 0.84739 0.0
O164 O 0.93426 0.10865 0.95881 0.0
C165 C 0.91764 0.9447 0.98993 0.0
C166 C 0.94118 0.16667 0.91867 0.0
O167 O 0.83352 0.0146 0.75372 0.0
Mg168 Mg 0.43084 0.60178 0.66143 0.0
O169 O 0.39299 0.70839 0.59732 0.0
O170 O 0.40249 0.69549 0.46625 0.0
Mg171 Mg 0.41365 0.57536 0.44406 0.0
C172 C 0.38947 0.73323 0.52671 0.0
C173 C 0.48863 0.71464 0.79484 0.0
O174 O 0.51168 0.72814 0.86605 0.0
O175 O 0.53988 0.60348 0.6044 0.0
O176 O 0.52519 0.60101 0.47929 0.0
O177 O 0.3179 0.56811 0.68349 0.0
O178 O 0.37668 0.55108 0.57208 0.0
C179 C 0.54063 0.56769 0.54095 0.0
C180 C 0.31866 0.54416 0.61221 0.0
O181 O 0.47074 0.65181 0.77717 0.0
Mg182 Mg 0.88355 0.43084 0.66143 0.0
O183 O 0.77695 0.39299 0.59732 0.0
O184 O 0.78984 0.40249 0.46625 0.0
Mg185 Mg 0.90997 0.41365 0.44406 0.0
C186 C 0.7521 0.38947 0.52671 0.0
C187 C 0.77069 0.48863 0.79484 0.0
O188 O 0.75719 0.51168 0.86605 0.0
O189 O 0.88185 0.53988 0.6044 0.0
O190 O 0.88432 0.52519 0.47929 0.0
O191 O 0.91722 0.3179 0.68349 0.0
O192 O 0.93426 0.37668 0.57208 0.0
C193 C 0.91764 0.54063 0.54095 0.0
C194 C 0.94118 0.31866 0.61221 0.0
O195 O 0.83352 0.47074 0.77717 0.0
Mg196 Mg 0.05449 0.88355 0.66143 0.0
O197 O 0.09234 0.77695 0.59732 0.0
O198 O 0.08284 0.78984 0.46625 0.0
Mg199 Mg 0.07168 0.90997 0.44406 0.0
C200 C 0.09586 0.7521 0.52671 0.0
C201 C -0.0033 0.77069 0.79484 0.0
O202 O 0.97366 0.75719 0.86605 0.0
O203 O 0.94546 0.88185 0.6044 0.0
O204 O 0.96014 0.88432 0.47929 0.0
O205 O 0.16744 0.91722 0.68349 0.0
O206 O 0.10865 0.93426 0.57208 0.0
C207 C 0.9447 0.91764 0.54095 0.0
C208 C 0.16667 0.94118 0.61221 0.0
O209 O 0.0146 0.83352 0.77717 0.0
Mg210 Mg 0.60178 0.05449 0.66143 0.0
O211 O 0.70839 0.09234 0.59732 0.0
O212 O 0.69549 0.08284 0.46625 0.0
Mg213 Mg 0.57536 0.07168 0.44406 0.0
C214 C 0.73323 0.09586 0.52671 0.0
C215 C 0.71464 -0.0033 0.79484 0.0
O216 O 0.72814 0.97366 0.86605 0.0
O217 O 0.60348 0.94546 0.6044 0.0
O218 O 0.60101 0.96014 0.47929 0.0
O219 O 0.56811 0.16744 0.68349 0.0
O220 O 0.55108 0.10865 0.57208 0.0
C221 C 0.56769 0.9447 0.54095 0.0
C222 C 0.54416 0.16667 0.61221 0.0
O223 O 0.65181 0.0146 0.77717 0.0
loop_
_geom_bond_atom_site_label_1
_geom_bond_atom_site_label_2
_geom_bond_distance
_geom_bond_site_symmetry_2
_ccdc_geom_bond_type
Mg0 O1 2.028 . S
Mg0 O7 1.986 . S
Mg0 O9 2.114 1_554 S
Mg0 O10 2.251 . S
Mg0 O13 2.010 . S
O1 Mg0 2.028 . S
O1 C4 1.250 . S
O2 Mg3 2.028 . S
O2 C4 1.248 . S
Mg3 O2 2.028 . S
Mg3 O8 2.032 . S
Mg3 O10 2.079 . S
C4 O1 1.250 . S
C4 O2 1.248 . S
C5 O6 1.264 . S
C5 O13 1.249 . S
O6 C5 1.264 . S
O7 Mg0 1.986 . S
O7 C11 1.246 . S
O8 Mg3 2.032 . S
O8 C11 1.259 . S
O9 Mg0 2.114 1_556 S
O9 C12 1.252 . S
O10 Mg0 2.251 . S
O10 Mg3 2.079 . S
O10 C12 1.273 1_554 S
C11 O7 1.246 . S
C11 O8 1.259 . S
C12 O9 1.252 . S
C12 O10 1.273 1_556 S
O13 Mg0 2.010 . S
O13 C5 1.249 . S
Mg14 O15 2.028 . S
Mg14 O21 1.986 . S
Mg14 O23 2.114 1_554 S
Mg14 O24 2.251 . S
Mg14 O27 2.010 . S
O15 Mg14 2.028 . S
O15 C18 1.250 . S
O16 Mg17 2.028 . S
O16 C18 1.248 . S
Mg17 O16 2.028 . S
Mg17 O22 2.032 . S
Mg17 O24 2.079 . S
C18 O15 1.250 . S
C18 O16 1.248 . S
C19 O20 1.264 . S
C19 O27 1.249 . S
O20 C19 1.264 . S
O21 Mg14 1.986 . S
O21 C25 1.246 . S
O22 Mg17 2.032 . S
O22 C25 1.259 . S
O23 Mg14 2.114 1_556 S
O23 C26 1.252 . S
O24 Mg14 2.251 . S
O24 Mg17 2.079 . S
O24 C26 1.273 1_554 S
C25 O21 1.246 . S
C25 O22 1.259 . S
C26 O23 1.252 . S
C26 O24 1.273 1_556 S
O27 Mg14 2.010 . S
O27 C19 1.249 . S
Mg28 O29 2.028 . S
Mg28 O35 1.986 . S
Mg28 O37 2.114 1_554 S
Mg28 O38 2.251 . S
Mg28 O41 2.010 . S
O29 Mg28 2.028 . S
O29 C32 1.250 . S
O30 Mg31 2.028 . S
O30 C32 1.248 . S
Mg31 O30 2.028 . S
Mg31 O36 2.032 . S
Mg31 O38 2.079 . S
C32 O29 1.250 . S
C32 O30 1.248 . S
C33 O34 1.264 . S
C33 O41 1.249 1_455 S
O34 C33 1.264 . S
O35 Mg28 1.986 . S
O35 C39 1.246 . S
O36 Mg31 2.032 . S
O36 C39 1.259 . S
O37 Mg28 2.114 1_556 S
O37 C40 1.252 . S
O38 Mg28 2.251 . S
O38 Mg31 2.079 . S
O38 C40 1.273 1_554 S
C39 O35 1.246 . S
C39 O36 1.259 . S
C40 O37 1.252 . S
C40 O38 1.273 1_556 S
O41 Mg28 2.010 . S
O41 C33 1.249 1_655 S
Mg42 O43 2.028 . S
Mg42 O49 1.986 . S
Mg42 O51 2.114 1_554 S
Mg42 O52 2.251 . S
Mg42 O55 2.010 . S
O43 Mg42 2.028 . S
O43 C46 1.250 . S
O44 Mg45 2.028 . S
O44 C46 1.248 . S
Mg45 O44 2.028 . S
Mg45 O50 2.032 . S
Mg45 O52 2.079 . S
C46 O43 1.250 . S
C46 O44 1.248 . S
C47 O48 1.264 . S
C47 O55 1.249 1_545 S
O48 C47 1.264 . S
O49 Mg42 1.986 . S
O49 C53 1.246 . S
O50 Mg45 2.032 . S
O50 C53 1.259 . S
O51 Mg42 2.114 1_556 S
O51 C54 1.252 . S
O52 Mg42 2.251 . S
O52 Mg45 2.079 . S
O52 C54 1.273 1_554 S
C53 O49 1.246 . S
C53 O50 1.259 . S
C54 O51 1.252 . S
C54 O52 1.273 1_556 S
O55 Mg42 2.010 . S
O55 C47 1.249 1_565 S
Mg56 O57 2.028 . S
Mg56 O63 1.986 . S
Mg56 O65 2.114 . S
Mg56 O66 2.251 . S
Mg56 O69 2.010 . S
O57 Mg56 2.028 . S
O57 C60 1.250 . S
O58 Mg59 2.028 . S
O58 C60 1.248 . S
Mg59 O58 2.028 . S
Mg59 O64 2.032 . S
Mg59 O66 2.079 . S
C60 O57 1.250 . S
C60 O58 1.248 . S
C61 O62 1.264 . S
C61 O69 1.249 . S
O62 C61 1.264 . S
O63 Mg56 1.986 . S
O63 C67 1.246 . S
O64 Mg59 2.032 . S
O64 C67 1.259 . S
O65 Mg56 2.114 . S
O65 C68 1.252 . S
O66 Mg56 2.251 . S
O66 Mg59 2.079 . S
O66 C68 1.273 . S
C67 O63 1.246 . S
C67 O64 1.259 . S
C68 O65 1.252 . S
C68 O66 1.273 . S
O69 Mg56 2.010 . S
O69 C61 1.249 . S
Mg70 O71 2.028 . S
Mg70 O77 1.986 . S
Mg70 O79 2.114 . S
Mg70 O80 2.251 . S
Mg70 O83 2.010 . S
O71 Mg70 2.028 . S
O71 C74 1.250 . S
O72 Mg73 2.028 . S
O72 C74 1.248 . S
Mg73 O72 2.028 . S
Mg73 O78 2.032 . S
Mg73 O80 2.079 . S
C74 O71 1.250 . S
C74 O72 1.248 . S
C75 O76 1.264 . S
C75 O83 1.249 . S
O76 C75 1.264 . S
O77 Mg70 1.986 . S
O77 C81 1.246 . S
O78 Mg73 2.032 . S
O78 C81 1.259 . S
O79 Mg70 2.114 . S
O79 C82 1.252 . S
O80 Mg70 2.251 . S
O80 Mg73 2.079 . S
O80 C82 1.273 . S
C81 O77 1.246 . S
C81 O78 1.259 . S
C82 O79 1.252 . S
C82 O80 1.273 . S
O83 Mg70 2.010 . S
O83 C75 1.249 . S
Mg84 O85 2.028 . S
Mg84 O91 1.986 . S
Mg84 O93 2.114 . S
Mg84 O94 2.251 . S
Mg84 O97 2.010 . S
O85 Mg84 2.028 . S
O85 C88 1.250 . S
O86 Mg87 2.028 . S
O86 C88 1.248 . S
Mg87 O86 2.028 . S
Mg87 O92 2.032 . S
Mg87 O94 2.079 . S
C88 O85 1.250 . S
C88 O86 1.248 . S
C89 O90 1.264 . S
C89 O97 1.249 1_455 S
O90 C89 1.264 . S
O91 Mg84 1.986 . S
O91 C95 1.246 . S
O92 Mg87 2.032 . S
O92 C95 1.259 . S
O93 Mg84 2.114 . S
O93 C96 1.252 . S
O94 Mg84 2.251 . S
O94 Mg87 2.079 . S
O94 C96 1.273 . S
C95 O91 1.246 . S
C95 O92 1.259 . S
C96 O93 1.252 . S
C96 O94 1.273 . S
O97 Mg84 2.010 . S
O97 C89 1.249 1_655 S
Mg98 O99 2.028 . S
Mg98 O105 1.986 . S
Mg98 O107 2.114 . S
Mg98 O108 2.251 . S
Mg98 O111 2.010 . S
O99 Mg98 2.028 . S
O99 C102 1.250 . S
O100 Mg101 2.028 . S
O100 C102 1.248 . S
Mg101 O100 2.028 . S
Mg101 O106 2.032 . S
Mg101 O108 2.079 . S
C102 O99 1.250 . S
C102 O100 1.248 . S
C103 O104 1.264 . S
C103 O111 1.249 1_545 S
O104 C103 1.264 . S
O105 Mg98 1.986 . S
O105 C109 1.246 . S
O106 Mg101 2.032 . S
O106 C109 1.259 . S
O107 Mg98 2.114 . S
O107 C110 1.252 . S
O108 Mg98 2.251 . S
O108 Mg101 2.079 . S
O108 C110 1.273 . S
C109 O105 1.246 . S
C109 O106 1.259 . S
C110 O107 1.252 . S
C110 O108 1.273 . S
O111 Mg98 2.010 . S
O111 C103 1.249 1_565 S
Mg112 O113 2.028 . S
Mg112 O119 1.986 . S
Mg112 O121 2.114 . S
Mg112 O122 2.251 1_556 S
Mg112 O125 2.010 . S
O113 Mg112 2.028 . S
O113 C116 1.250 1_556 S
O114 Mg115 2.028 . S
O114 C116 1.248 . S
Mg115 O114 2.028 . S
Mg115 O120 2.032 . S
Mg115 O122 2.079 . S
C116 O113 1.250 1_554 S
C116 O114 1.248 . S
C117 O118 1.264 . S
C117 O125 1.249 . S
O118 C117 1.264 . S
O119 Mg112 1.986 . S
O119 C123 1.246 . S
O120 Mg115 2.032 . S
O120 C123 1.259 1_554 S
O121 Mg112 2.114 . S
O121 C124 1.252 . S
O122 Mg112 2.251 1_554 S
O122 Mg115 2.079 . S
O122 C124 1.273 1_554 S
C123 O119 1.246 . S
C123 O120 1.259 1_556 S
C124 O121 1.252 . S
C124 O122 1.273 1_556 S
O125 Mg112 2.010 . S
O125 C117 1.249 . S
Mg126 O127 2.028 . S
Mg126 O133 1.986 . S
Mg126 O135 2.114 . S
Mg126 O136 2.251 1_556 S
Mg126 O139 2.010 . S
O127 Mg126 2.028 . S
O127 C130 1.250 1_556 S
O128 Mg129 2.028 . S
O128 C130 1.248 . S
Mg129 O128 2.028 . S
Mg129 O134 2.032 . S
Mg129 O136 2.079 . S
C130 O127 1.250 1_554 S
C130 O128 1.248 . S
C131 O132 1.264 . S
C131 O139 1.249 . S
O132 C131 1.264 . S
O133 Mg126 1.986 . S
O133 C137 1.246 . S
O134 Mg129 2.032 . S
O134 C137 1.259 1_554 S
O135 Mg126 2.114 . S
O135 C138 1.252 . S
O136 Mg126 2.251 1_554 S
O136 Mg129 2.079 . S
O136 C138 1.273 1_554 S
C137 O133 1.246 . S
C137 O134 1.259 1_556 S
C138 O135 1.252 . S
C138 O136 1.273 1_556 S
O139 Mg126 2.010 . S
O139 C131 1.249 . S
Mg140 O141 2.028 . S
Mg140 O147 1.986 . S
Mg140 O149 2.114 . S
Mg140 O150 2.251 1_556 S
Mg140 O153 2.010 . S
O141 Mg140 2.028 . S
O141 C144 1.250 1_556 S
O142 Mg143 2.028 . S
O142 C144 1.248 . S
Mg143 O142 2.028 . S
Mg143 O148 2.032 . S
Mg143 O150 2.079 . S
C144 O141 1.250 1_554 S
C144 O142 1.248 . S
C145 O146 1.264 . S
C145 O153 1.249 . S
O146 C145 1.264 . S
O147 Mg140 1.986 . S
O147 C151 1.246 1_455 S
O148 Mg143 2.032 . S
O148 C151 1.259 1_454 S
O149 Mg140 2.114 . S
O149 C152 1.252 . S
O150 Mg140 2.251 1_554 S
O150 Mg143 2.079 . S
O150 C152 1.273 1_554 S
C151 O147 1.246 1_655 S
C151 O148 1.259 1_656 S
C152 O149 1.252 . S
C152 O150 1.273 1_556 S
O153 Mg140 2.010 . S
O153 C145 1.249 . S
Mg154 O155 2.028 . S
Mg154 O161 1.986 . S
Mg154 O163 2.114 . S
Mg154 O164 2.251 1_556 S
Mg154 O167 2.010 . S
O155 Mg154 2.028 . S
O155 C158 1.250 1_556 S
O156 Mg157 2.028 . S
O156 C158 1.248 . S
Mg157 O156 2.028 . S
Mg157 O162 2.032 . S
Mg157 O164 2.079 . S
C158 O155 1.250 1_554 S
C158 O156 1.248 . S
C159 O160 1.264 . S
C159 O167 1.249 . S
O160 C159 1.264 . S
O161 Mg154 1.986 . S
O161 C165 1.246 1_545 S
O162 Mg157 2.032 . S
O162 C165 1.259 1_544 S
O163 Mg154 2.114 . S
O163 C166 1.252 . S
O164 Mg154 2.251 1_554 S
O164 Mg157 2.079 . S
O164 C166 1.273 1_554 S
C165 O161 1.246 1_565 S
C165 O162 1.259 1_566 S
C166 O163 1.252 . S
C166 O164 1.273 1_556 S
O167 Mg154 2.010 . S
O167 C159 1.249 . S
Mg168 O169 2.028 . S
Mg168 O175 1.986 . S
Mg168 O177 2.114 . S
Mg168 O178 2.251 . S
Mg168 O181 2.010 . S
O169 Mg168 2.028 . S
O169 C172 1.250 . S
O170 Mg171 2.028 . S
O170 C172 1.248 . S
Mg171 O170 2.028 . S
Mg171 O176 2.032 . S
Mg171 O178 2.079 . S
C172 O169 1.250 . S
C172 O170 1.248 . S
C173 O174 1.264 . S
C173 O181 1.249 . S
O174 C173 1.264 . S
O175 Mg168 1.986 . S
O175 C179 1.246 . S
O176 Mg171 2.032 . S
O176 C179 1.259 . S
O177 Mg168 2.114 . S
O177 C180 1.252 . S
O178 Mg168 2.251 . S
O178 Mg171 2.079 . S
O178 C180 1.273 . S
C179 O175 1.246 . S
C179 O176 1.259 . S
C180 O177 1.252 . S
C180 O178 1.273 . S
O181 Mg168 2.010 . S
O181 C173 1.249 . S
Mg182 O183 2.028 . S
Mg182 O189 1.986 . S
Mg182 O191 2.114 . S
Mg182 O192 2.251 . S
Mg182 O195 2.010 . S
O183 Mg182 2.028 . S
O183 C186 1.250 . S
O184 Mg185 2.028 . S
O184 C186 1.248 . S
Mg185 O184 2.028 . S
Mg185 O190 2.032 . S
Mg185 O192 2.079 . S
C186 O183 1.250 . S
C186 O184 1.248 . S
C187 O188 1.264 . S
C187 O195 1.249 . S
O188 C187 1.264 . S
O189 Mg182 1.986 . S
O189 C193 1.246 . S
O190 Mg185 2.032 . S
O190 C193 1.259 . S
O191 Mg182 2.114 . S
O191 C194 1.252 . S
O192 Mg182 2.251 . S
O192 Mg185 2.079 . S
O192 C194 1.273 . S
C193 O189 1.246 . S
C193 O190 1.259 . S
C194 O191 1.252 . S
C194 O192 1.273 . S
O195 Mg182 2.010 . S
O195 C187 1.249 . S
Mg196 O197 2.028 . S
Mg196 O203 1.986 . S
Mg196 O205 2.114 . S
Mg196 O206 2.251 . S
Mg196 O209 2.010 . S
O197 Mg196 2.028 . S
O197 C200 1.250 . S
O198 Mg199 2.028 . S
O198 C200 1.248 . S
Mg199 O198 2.028 . S
Mg199 O204 2.032 . S
Mg199 O206 2.079 . S
C200 O197 1.250 . S
C200 O198 1.248 . S
C201 O202 1.264 . S
C201 O209 1.249 . S
O202 C201 1.264 . S
O203 Mg196 1.986 . S
O203 C207 1.246 1_455 S
O204 Mg199 2.032 . S
O204 C207 1.259 1_455 S
O205 Mg196 2.114 . S
O205 C208 1.252 . S
O206 Mg196 2.251 . S
O206 Mg199 2.079 . S
O206 C208 1.273 . S
C207 O203 1.246 1_655 S
C207 O204 1.259 1_655 S
C208 O205 1.252 . S
C208 O206 1.273 . S
O209 Mg196 2.010 . S
O209 C201 1.249 . S
Mg210 O211 2.028 . S
Mg210 O217 1.986 . S
Mg210 O219 2.114 . S
Mg210 O220 2.251 . S
Mg210 O223 2.010 . S
O211 Mg210 2.028 . S
O211 C214 1.250 . S
O212 Mg213 2.028 . S
O212 C214 1.248 . S
Mg213 O212 2.028 . S
Mg213 O218 2.032 . S
Mg213 O220 2.079 . S
C214 O211 1.250 . S
C214 O212 1.248 . S
C215 O216 1.264 . S
C215 O223 1.249 . S
O216 C215 1.264 . S
O217 Mg210 1.986 . S
O217 C221 1.246 1_545 S
O218 Mg213 2.032 . S
O218 C221 1.259 1_545 S
O219 Mg210 2.114 . S
O219 C222 1.252 . S
O220 Mg210 2.251 . S
O220 Mg213 2.079 . S
O220 C222 1.273 . S
C221 O217 1.246 1_565 S
C221 O218 1.259 1_565 S
C222 O219 1.252 . S
C222 O220 1.273 . S
O223 Mg210 2.010 . S
O223 C215 1.249 . S
C12 C138 0.679 . S
C152 C26 0.679 . S
C166 C40 0.679 . S
C124 C54 0.679 . S
C68 C222 0.679 . S
C180 C82 0.679 . S
C194 C96 0.679 . S
C208 C110 0.679 . S
C116 C18 1.108 . S
C130 C32 1.108 . S
C144 C46 1.108 . S
C4 C158 1.108 . S
C172 C102 1.108 . S
C186 C60 1.108 . S
C74 C200 1.108 . S
C214 C88 1.108 . S
C123 C5 1.987 1_566 S
C19 C137 1.987 1_554 S
C151 C33 1.987 1_656 S
C47 C165 1.987 1_444 S
C179 C61 1.986 . S
C75 C193 1.986 1_455 S
C207 C89 1.986 1_665 S
C221 C103 1.986 1_565 S
C67 C11 2.313 . S
C81 C25 2.313 . S
C39 C95 2.314 . S
C109 C53 2.314 . S
C117 C173 2.731 . S
C187 C131 2.731 . S
C201 C145 2.731 . S
C215 C159 2.731 . S
