# Generated by pormake.
# Topology hex, (8)-cn, num edge types: 1
# Building blocks:
#     Node 0, Type 0, BuildingBlock: VETTIZ_charged_sbu_0, # of connection points: 8
#     Edge 1, Type (0, 0), BuildingBlock: EZIPEK_clean_linker_0, # of connection points: 2
#     Edge 2, Type (0, 0), BuildingBlock: EZIPEK_clean_linker_0, # of connection points: 2
#     Edge 3, Type (0, 0), BuildingBlock: EZIPEK_clean_linker_0, # of connection points: 2
#     Edge 4, Type (0, 0), BuildingBlock: EZIPEK_clean_linker_0, # of connection points: 2
# Relax obj value: 0.198
# Max RMSD: 0.293
# Mean RMSD: 0.293
data_MOF--net-hex--node1-VETTIZ_charged_sbu_0--edge1-EZIPEK_clean_linker_0
_symmetry_space_group_name_H-M    P1
_symmetry_Int_Tables_number       1
_symmetry_cell_setting            triclinic
loop_
_symmetry_equiv_pos_as_xyz
'x, y, z'
_cell_length_a     12.53027
_cell_length_b     12.884842
_cell_length_c     12.631558
_cell_angle_alpha  88.00673
_cell_angle_beta   87.66051
_cell_angle_gamma 125.35626
loop_
_atom_site_label
_atom_site_type_symbol
_atom_site_fract_x
_atom_site_fract_y
_atom_site_fract_z
_atom_type_partial_charge
Fe0 Fe 1.02423 0.91989 0.10963 0.0
O1 O 0.15101 0.07077 1.00948 0.0
Fe2 Fe 0.77998 0.9794 0.15552 0.0
Fe3 Fe 0.27477 0.07009 0.90972 0.0
O4 O 0.90515 0.96837 0.06234 0.0
O5 O 0.90373 0.97871 0.05576 0.0
O6 O 0.1496 0.08112 1.00289 0.0
Fe7 Fe 0.03051 0.1296 0.9556 0.0
C8 C 0.31906 1.00327 0.11407 0.0
O9 O 0.98254 0.79471 0.99569 0.0
O10 O 0.18261 0.86895 0.93668 0.0
O11 O 0.86048 0.13364 0.92117 0.0
O12 O 0.69875 0.95482 1.0193 0.0
O13 O 0.68254 0.78698 0.17746 0.0
O14 O 0.84324 0.75732 0.18198 0.0
O15 O 0.17935 0.0498 0.77499 0.0
O16 O 0.98953 1.02036 0.8275 0.0
C17 C 0.72821 0.72335 0.15417 0.0
O18 O 0.07221 0.25477 0.06955 0.0
O19 O 0.87214 0.18054 0.12856 0.0
O20 O 0.19427 0.91585 0.14407 0.0
O21 O 0.356 0.09467 0.04594 0.0
C22 C 0.0675 0.77382 0.97232 0.0
C23 C 0.06938 0.0285 0.75598 0.0
C24 C 0.32653 0.32614 0.91108 0.0
O25 O 0.37221 0.26251 0.88779 0.0
O26 O 0.21151 0.29216 0.88327 0.0
C27 C 0.73569 0.04622 0.95117 0.0
O28 O 0.87541 0.99969 0.29025 0.0
O29 O 0.06522 0.02913 0.23774 0.0
C30 C 0.98725 0.27567 0.09292 0.0
C31 C 0.98537 1.02099 0.30926 0.0
C32 C 0.98742 0.4678 0.13883 0.0
C33 C 1.01288 0.40609 0.06192 0.0
C34 C 0.06734 0.58169 0.9264 0.0
C35 C 0.04187 0.6434 1.00332 0.0
N36 N 0.96694 0.63476 0.18493 0.0
N37 N 0.08781 0.41472 0.88031 0.0
C38 C 0.99748 0.58224 0.10944 0.0
C39 C 0.05727 0.46725 0.9558 0.0
N40 N 0.96363 0.42265 0.24312 0.0
N41 N 0.09113 0.62684 0.82211 0.0
H42 H 0.05358 0.32094 0.88867 0.0
H43 H 0.14613 0.46344 0.8105 0.0
H44 H 0.09755 0.70824 0.79689 0.0
H45 H 0.09323 0.57877 0.7585 0.0
H46 H 0.96154 0.47073 0.30673 0.0
H47 H 0.9572 0.34125 0.26835 0.0
H48 H 0.90861 0.58604 0.25473 0.0
H49 H 1.00117 0.72855 0.17657 0.0
C50 C 0.50266 0.94538 0.94996 0.0
C51 C 0.62837 0.06379 0.95015 0.0
C52 C 0.55209 0.10411 0.11529 0.0
C53 C 0.42638 0.98571 0.11509 0.0
N54 N 0.32064 0.77313 0.06577 0.0
N55 N 0.73412 0.27636 0.99949 0.0
C56 C 0.4133 0.89959 0.04221 0.0
C57 C 0.64146 0.1499 1.02304 0.0
N58 N 0.47781 0.87064 0.8678 0.0
N59 N 0.57693 0.17887 0.19744 0.0
H60 H 0.79323 0.30815 0.92841 0.0
H61 H 0.74065 0.34657 0.04347 0.0
H62 H 0.50764 0.14745 0.26186 0.0
H63 H 0.6679 0.26502 0.20399 0.0
H64 H 0.38685 0.78449 0.86126 0.0
H65 H 0.54711 0.90204 0.80337 0.0
H66 H 0.3141 0.70293 1.02176 0.0
H67 H 0.2615 0.74133 0.13683 0.0
C68 C 0.43526 0.40427 0.08469 0.0
C69 C 0.41154 0.43356 0.98117 0.0
C70 C 0.61948 0.64522 0.98056 0.0
C71 C 0.6432 0.61593 0.08408 0.0
N72 N 0.58575 0.45879 0.22374 0.0
N73 N 0.469 0.5907 0.8415 0.0
C74 C 0.55485 0.49214 0.13214 0.0
C75 C 0.4999 0.55735 0.93311 0.0
N76 N 0.33719 0.29718 0.14271 0.0
N77 N 0.71753 0.75234 0.92255 0.0
H78 H 0.38209 0.52729 0.80613 0.0
H79 H 0.52181 0.68301 0.806 0.0
H80 H 0.81168 0.80402 0.94599 0.0
H81 H 0.71252 0.77827 0.84501 0.0
H82 H 0.34224 0.27124 0.22024 0.0
H83 H 0.24304 0.24542 0.11926 0.0
H84 H 0.53293 0.36648 0.25924 0.0
H85 H 0.67266 0.5222 0.25913 0.0
C86 C 0.04385 0.12492 0.59115 0.0
C87 C 0.03869 1.02206 0.64329 0.0
C88 C 1.01091 0.92457 0.47408 0.0
C89 C 1.01607 0.02743 0.42195 0.0
N90 N 0.05928 0.23478 0.42434 0.0
N91 N 0.99548 0.81471 0.64089 0.0
C92 C 0.03754 0.12978 0.47897 0.0
C93 C 1.01722 0.91971 0.58626 0.0
N94 N 0.05261 0.21685 0.64926 0.0
N95 N 1.00214 0.83264 0.41598 0.0
H96 H 0.99518 0.80721 0.72343 0.0
H97 H 0.96689 0.73066 0.60694 0.0
H98 H 0.99359 0.83038 0.3345 0.0
H99 H 1.01225 0.76293 0.44631 0.0
H100 H 0.0425 0.28655 0.61892 0.0
H101 H 0.06117 0.21912 0.73073 0.0
H102 H 0.08786 0.31883 0.4583 0.0
H103 H 0.05957 0.24228 0.34181 0.0
loop_
_geom_bond_atom_site_label_1
_geom_bond_atom_site_label_2
_geom_bond_distance
_geom_bond_site_symmetry_2
_ccdc_geom_bond_type
Fe0 O1 1.886 1_554 S
Fe0 O4 1.715 1_455 S
Fe0 O9 2.077 1_455 S
Fe0 O14 1.935 1_455 S
Fe0 O20 2.077 . S
Fe0 O29 1.935 . S
O1 Fe0 1.886 1_556 S
O1 Fe3 1.715 1_565 S
Fe2 O4 1.886 . S
Fe2 O5 1.715 1_565 S
Fe2 O12 1.935 . S
Fe2 O13 2.077 . S
Fe2 O19 1.935 1_565 S
Fe2 O28 2.077 1_565 S
Fe3 O1 1.715 1_545 S
Fe3 O6 1.886 . S
Fe3 O10 1.935 1_545 S
Fe3 O15 2.077 1_545 S
Fe3 O21 1.935 . S
Fe3 O25 2.077 . S
O4 Fe0 1.715 1_655 S
O4 Fe2 1.886 . S
O5 Fe2 1.715 1_545 S
O5 Fe7 1.886 1_554 S
O6 Fe3 1.886 . S
O6 Fe7 1.715 1_455 S
Fe7 O5 1.886 1_556 S
Fe7 O6 1.715 1_655 S
Fe7 O11 2.077 . S
Fe7 O16 1.935 . S
Fe7 O18 2.077 1_655 S
Fe7 O26 1.935 1_655 S
C8 O20 1.381 . S
C8 O21 1.421 1_564 S
O9 Fe0 2.077 1_655 S
O9 C22 1.381 1_654 S
O10 Fe3 1.935 1_565 S
O10 C22 1.421 . S
O11 Fe7 2.077 . S
O11 C27 1.381 . S
O12 Fe2 1.935 . S
O12 C27 1.421 1_564 S
O13 Fe2 2.077 . S
O13 C17 1.381 . S
O14 Fe0 1.935 1_655 S
O14 C17 1.421 . S
O15 Fe3 2.077 1_565 S
O15 C23 1.381 1_565 S
O16 Fe7 1.935 . S
O16 C23 1.421 1_655 S
C17 O13 1.381 . S
C17 O14 1.421 . S
O18 Fe7 2.077 1_455 S
O18 C30 1.381 1_456 S
O19 Fe2 1.935 1_545 S
O19 C30 1.421 . S
O20 Fe0 2.077 . S
O20 C8 1.381 . S
O21 Fe3 1.935 . S
O21 C8 1.421 1_546 S
C22 O9 1.381 1_456 S
C22 O10 1.421 . S
C23 O15 1.381 1_545 S
C23 O16 1.421 1_455 S
C24 O25 1.381 . S
C24 O26 1.421 . S
O25 Fe3 2.077 . S
O25 C24 1.381 . S
O26 Fe7 1.935 1_455 S
O26 C24 1.421 . S
C27 O11 1.381 . S
C27 O12 1.421 1_546 S
O28 Fe2 2.077 1_545 S
O28 C31 1.381 1_545 S
O29 Fe0 1.935 . S
O29 C31 1.421 1_455 S
C30 O18 1.381 1_654 S
C30 O19 1.421 . S
C31 O28 1.381 1_565 S
C31 O29 1.421 1_655 S
C32 C33 1.364 1_455 S
C32 C38 1.379 . S
C32 N40 1.356 . S
C33 C32 1.364 1_655 S
C33 C39 1.363 1_554 S
C34 C35 1.365 1_655 S
C34 C39 1.379 . S
C34 N41 1.356 . S
C35 C34 1.365 1_455 S
C35 C38 1.363 1_556 S
N36 C38 1.356 . S
N36 H48 0.984 . S
N36 H49 0.985 1_554 S
N37 C39 1.356 . S
N37 H42 0.984 1_556 S
N37 H43 0.985 . S
C38 C32 1.379 . S
C38 C35 1.363 1_554 S
C38 N36 1.356 . S
C39 C33 1.363 1_556 S
C39 C34 1.379 . S
C39 N37 1.356 . S
N40 C32 1.356 . S
N40 H46 0.984 . S
N40 H47 0.984 . S
N41 C34 1.356 . S
N41 H44 0.984 . S
N41 H45 0.985 . S
H42 N37 0.984 1_554 S
H43 N37 0.985 . S
H44 N41 0.984 . S
H45 N41 0.985 . S
H46 N40 0.984 . S
H47 N40 0.984 . S
H48 N36 0.984 . S
H49 N36 0.985 1_556 S
C50 C51 1.362 1_565 S
C50 C56 1.379 . S
C50 N58 1.356 . S
C51 C50 1.362 1_545 S
C51 C57 1.366 1_556 S
C52 C53 1.363 1_545 S
C52 C57 1.379 . S
C52 N59 1.356 . S
C53 C52 1.363 1_565 S
C53 C56 1.364 1_554 S
N54 C56 1.356 . S
N54 H66 0.984 . S
N54 H67 0.985 1_556 S
N55 C57 1.356 . S
N55 H60 0.984 1_554 S
N55 H61 0.985 . S
C56 C50 1.379 . S
C56 C53 1.364 1_556 S
C56 N54 1.356 . S
C57 C51 1.366 1_554 S
C57 C52 1.379 . S
C57 N55 1.356 . S
N58 C50 1.356 . S
N58 H64 0.984 . S
N58 H65 0.984 . S
N59 C52 1.356 . S
N59 H62 0.984 . S
N59 H63 0.985 . S
H60 N55 0.984 1_556 S
H61 N55 0.985 . S
H62 N59 0.984 . S
H63 N59 0.985 . S
H64 N58 0.984 . S
H65 N58 0.984 . S
H66 N54 0.984 . S
H67 N54 0.985 1_554 S
C68 C69 1.363 1_554 S
C68 C74 1.379 . S
C68 N76 1.356 . S
C69 C68 1.363 1_556 S
C69 C75 1.363 . S
C70 C71 1.363 1_556 S
C70 C75 1.379 . S
C70 N77 1.356 . S
C71 C70 1.363 1_554 S
C71 C74 1.363 . S
N72 C74 1.356 . S
N72 H84 0.984 . S
N72 H85 0.985 . S
N73 C75 1.356 . S
N73 H78 0.984 . S
N73 H79 0.985 . S
C74 C68 1.379 . S
C74 C71 1.363 . S
C74 N72 1.356 . S
C75 C69 1.363 . S
C75 C70 1.379 . S
C75 N73 1.356 . S
N76 C68 1.356 . S
N76 H82 0.984 . S
N76 H83 0.984 1_554 S
N77 C70 1.356 . S
N77 H80 0.984 1_556 S
N77 H81 0.985 . S
H78 N73 0.984 . S
H79 N73 0.985 . S
H80 N77 0.984 1_554 S
H81 N77 0.985 . S
H82 N76 0.984 . S
H83 N76 0.984 1_556 S
H84 N72 0.984 . S
H85 N72 0.985 . S
C86 C87 1.365 1_655 S
C86 C92 1.379 . S
C86 N94 1.356 . S
C87 C86 1.365 1_455 S
C87 C93 1.362 1_545 S
C88 C89 1.364 1_455 S
C88 C93 1.379 . S
C88 N95 1.356 . S
C89 C88 1.364 1_655 S
C89 C92 1.362 1_565 S
N90 C92 1.356 . S
N90 H102 0.984 . S
N90 H103 0.985 . S
N91 C93 1.356 . S
N91 H96 0.984 . S
N91 H97 0.985 . S
C92 C86 1.379 . S
C92 C89 1.362 1_545 S
C92 N90 1.356 . S
C93 C87 1.362 1_565 S
C93 C88 1.379 . S
C93 N91 1.356 . S
N94 C86 1.356 . S
N94 H100 0.984 . S
N94 H101 0.984 . S
N95 C88 1.356 . S
N95 H98 0.984 . S
N95 H99 0.985 . S
H96 N91 0.984 . S
H97 N91 0.985 . S
H98 N95 0.984 . S
H99 N95 0.985 . S
H100 N94 0.984 . S
H101 N94 0.984 . S
H102 N90 0.984 . S
H103 N90 0.985 . S
C33 C30 1.659 . S
C35 C22 1.659 . S
C51 C27 1.583 . S
C53 C8 1.584 . S
C69 C24 1.875 . S
C71 C17 1.875 . S
C87 C23 1.452 . S
C89 C31 1.451 . S
