# Generated by pormake.
# Topology unh, (4)-cn, num edge types: 1
# Building blocks:
#     Node 0, Type 0, BuildingBlock: CEKHIL_clean_sbu_0, # of connection points: 4
#     Node 1, Type 0, BuildingBlock: CEKHIL_clean_sbu_0, # of connection points: 4
#     Node 2, Type 0, BuildingBlock: CEKHIL_clean_sbu_0, # of connection points: 4
#     Node 3, Type 0, BuildingBlock: CEKHIL_clean_sbu_0, # of connection points: 4
#     Node 4, Type 0, BuildingBlock: CEKHIL_clean_sbu_0, # of connection points: 4
#     Node 5, Type 0, BuildingBlock: CEKHIL_clean_sbu_0, # of connection points: 4
#     Edge 6, Type (0, 0), BuildingBlock: AJUNOK_clean_linker_0, # of connection points: 2
#     Edge 7, Type (0, 0), BuildingBlock: AJUNOK_clean_linker_0, # of connection points: 2
#     Edge 8, Type (0, 0), BuildingBlock: AJUNOK_clean_linker_0, # of connection points: 2
#     Edge 9, Type (0, 0), BuildingBlock: AJUNOK_clean_linker_0, # of connection points: 2
#     Edge 10, Type (0, 0), BuildingBlock: AJUNOK_clean_linker_0, # of connection points: 2
#     Edge 11, Type (0, 0), BuildingBlock: AJUNOK_clean_linker_0, # of connection points: 2
#     Edge 12, Type (0, 0), BuildingBlock: AJUNOK_clean_linker_0, # of connection points: 2
#     Edge 13, Type (0, 0), BuildingBlock: AJUNOK_clean_linker_0, # of connection points: 2
#     Edge 14, Type (0, 0), BuildingBlock: AJUNOK_clean_linker_0, # of connection points: 2
#     Edge 15, Type (0, 0), BuildingBlock: AJUNOK_clean_linker_0, # of connection points: 2
#     Edge 16, Type (0, 0), BuildingBlock: AJUNOK_clean_linker_0, # of connection points: 2
#     Edge 17, Type (0, 0), BuildingBlock: AJUNOK_clean_linker_0, # of connection points: 2
# Relax obj value: 0.073
# Max RMSD: 0.185
# Mean RMSD: 0.185
data_MOF--net-unh--node1-CEKHIL_clean_sbu_0--edge1-AJUNOK_clean_linker_0
_symmetry_space_group_name_H-M    P1
_symmetry_Int_Tables_number       1
_symmetry_cell_setting            triclinic
loop_
_symmetry_equiv_pos_as_xyz
'x, y, z'
_cell_length_a     30.804891
_cell_length_b     30.825135
_cell_length_c     16.116984
_cell_angle_alpha  90.010787
_cell_angle_beta   90.074402
_cell_angle_gamma 119.89669
loop_
_atom_site_label
_atom_site_type_symbol
_atom_site_fract_x
_atom_site_fract_y
_atom_site_fract_z
_atom_type_partial_charge
Co0 Co 0.12728 0.55864 0.1292 0.0
O1 O 0.08036 0.51412 0.20948 0.0
O2 O 0.08147 0.58188 0.16199 0.0
C3 C 0.19617 0.56603 0.19238 0.0
O4 O 0.17245 0.61467 0.04936 0.0
Co5 Co 0.18537 0.52157 0.02398 0.0
O6 O 0.22025 0.59051 0.97973 0.0
C7 C 0.08382 0.49447 0.97156 0.0
C8 C 0.06234 0.5441 0.213 0.0
C9 C 0.20703 0.62261 0.99651 0.0
O10 O 0.08169 0.51911 0.03443 0.0
O11 O 0.12131 0.4883 0.95826 0.0
O12 O 0.17594 0.59211 0.21563 0.0
O13 O 0.1708 0.53149 0.13768 0.0
Co14 Co 0.5779 0.13127 0.289 0.0
O15 O 0.57145 0.08113 0.36619 0.0
O16 O 0.50935 0.09352 0.32903 0.0
C17 C 0.64792 0.19403 0.34563 0.0
O18 O 0.57204 0.18138 0.21315 0.0
Co19 Co 0.66951 0.17766 0.17205 0.0
O20 O 0.64538 0.22471 0.14559 0.0
C21 C 0.58335 0.08028 0.12819 0.0
C22 C 0.52503 0.06927 0.37486 0.0
C23 C 0.60186 0.21688 0.16421 0.0
O24 O 0.56092 0.08351 0.19314 0.0
O25 O 0.62872 0.11269 0.11086 0.0
O26 O 0.60432 0.18112 0.37647 0.0
O27 O 0.64868 0.16544 0.28732 0.0
Co28 Co 0.44555 0.57545 0.45862 0.0
O29 O 0.4899 0.56778 0.53277 0.0
O30 O 0.41631 0.50573 0.49324 0.0
C31 C 0.45058 0.64266 0.52368 0.0
O32 O 0.38925 0.57148 0.38529 0.0
Co33 Co 0.49065 0.67188 0.35173 0.0
O34 O 0.41915 0.6481 0.32881 0.0
C35 C 0.5052 0.58922 0.29765 0.0
C36 C 0.45607 0.52108 0.53949 0.0
C37 C 0.38351 0.60394 0.34331 0.0
O38 O 0.47779 0.56318 0.359 0.0
O39 O 0.51795 0.63516 0.28654 0.0
O40 O 0.42085 0.59777 0.55047 0.0
O41 O 0.48032 0.64604 0.46403 0.0
Co42 Co 0.8709 0.44206 0.63086 0.0
O43 O 0.91846 0.48563 0.71182 0.0
O44 O 0.91484 0.41661 0.66402 0.0
C45 C 0.80319 0.43805 0.69241 0.0
O46 O 0.82481 0.38647 0.55098 0.0
Co47 Co 0.81491 0.48108 0.52343 0.0
O48 O 0.77824 0.41176 0.48028 0.0
C49 C 0.91611 0.50558 0.47354 0.0
C50 C 0.93507 0.45445 0.71491 0.0
C51 C 0.7904 0.37894 0.49789 0.0
O52 O 0.91724 0.48031 0.53632 0.0
O53 O 0.87956 0.51321 0.45969 0.0
O54 O 0.82132 0.41022 0.71682 0.0
O55 O 0.8296 0.47163 0.63728 0.0
Co56 Co 0.41834 0.87004 0.78563 0.0
O57 O 0.42121 0.91984 0.86044 0.0
O58 O 0.48591 0.91056 0.82834 0.0
C59 C 0.3492 0.80592 0.84127 0.0
O60 O 0.42878 0.82105 0.71477 0.0
Co61 Co 0.32948 0.81687 0.66412 0.0
O62 O 0.36193 0.77789 0.6313 0.0
C63 C 0.4099 0.91803 0.62365 0.0
C64 C 0.46782 0.93317 0.87265 0.0
C65 C 0.40459 0.78764 0.65891 0.0
O66 O 0.43406 0.91645 0.68782 0.0
O67 O 0.36538 0.88343 0.60642 0.0
O68 O 0.39282 0.82125 0.87434 0.0
O69 O 0.34754 0.83254 0.78038 0.0
Co70 Co 0.55202 0.42458 0.95678 0.0
O71 O 0.50804 0.43013 0.03428 0.0
O72 O 0.57884 0.49421 0.99013 0.0
C73 C 0.55375 0.36051 0.02045 0.0
O74 O 0.60753 0.43069 0.87921 0.0
Co75 Co 0.50865 0.32831 0.85186 0.0
O76 O 0.58048 0.35276 0.83087 0.0
C77 C 0.48988 0.4081 0.79743 0.0
C78 C 0.54006 0.47748 0.03894 0.0
C79 C 0.61475 0.3982 0.84033 0.0
O80 O 0.51582 0.43398 0.86011 0.0
O81 O 0.47983 0.36307 0.78455 0.0
O82 O 0.58198 0.4062 0.04515 0.0
O83 O 0.52044 0.35391 0.9648 0.0
C84 C 0.00451 0.48868 0.91952 0.0
C85 C 0.04333 0.47767 0.90774 0.0
C86 C 0.9698 0.48047 0.85682 0.0
C87 C 0.97156 0.46004 0.77982 0.0
H88 H 0.00154 0.50532 0.97689 0.0
H89 H 0.94133 0.49054 0.86883 0.0
S90 S 0.06344 0.42212 0.71676 0.0
N91 N 0.08019 0.44356 0.81226 0.0
N92 N 0.01364 0.42709 0.69536 0.0
C93 C 0.00857 0.44681 0.76762 0.0
C94 C 0.04472 0.45586 0.83127 0.0
C95 C 0.54969 0.99697 0.93606 0.0
C96 C 0.49712 0.96929 0.93912 0.0
C97 C 0.57746 0.03186 0.99841 0.0
C98 C 0.55376 0.03973 0.06702 0.0
H99 H 0.56947 0.99244 0.88428 0.0
H100 H 0.61781 0.05321 0.99211 0.0
S101 S 0.41659 0.97264 0.10746 0.0
N102 N 0.42245 0.94963 0.01848 0.0
N103 N 0.47407 0.01419 0.13567 0.0
C104 C 0.50111 0.01069 0.07197 0.0
C105 C 0.47297 0.97582 0.00805 0.0
C106 C 0.48944 0.51038 0.2281 0.0
C107 C 0.51788 0.56287 0.23285 0.0
C108 C 0.49686 0.48391 0.16463 0.0
C109 C 0.5335 0.50841 0.10303 0.0
H110 H 0.46017 0.48923 0.27284 0.0
H111 H 0.47349 0.44355 0.16446 0.0
S112 S 0.61976 0.64534 0.08819 0.0
N113 N 0.58524 0.63862 0.17079 0.0
N114 N 0.59969 0.58833 0.05182 0.0
C115 C 0.56301 0.56082 0.10738 0.0
C116 C 0.55507 0.58812 0.17201 0.0
C117 C 0.98614 0.49823 0.41037 0.0
C118 C 0.95596 0.52064 0.40945 0.0
C119 C 0.01977 0.50605 0.34627 0.0
C120 C 0.02552 0.5372 0.27842 0.0
H121 H 0.98291 0.47305 0.45991 0.0
H122 H 0.04153 0.48731 0.35033 0.0
S123 S 0.95799 0.60742 0.24731 0.0
N124 N 0.93546 0.57705 0.33541 0.0
N125 N -0.00025 0.5924 0.21542 0.0
C126 C 0.99691 0.56122 0.27738 0.0
C127 C 0.96192 0.55278 0.3426 0.0
C128 C 0.51734 0.02101 0.50289 0.0
C129 C 0.49358 0.03209 0.43843 0.0
C130 C 0.48983 0.98568 0.56389 0.0
C131 C 0.43715 0.95916 0.56278 0.0
H132 H 0.55783 0.03975 0.50647 0.0
H133 H 0.51036 0.97817 0.61096 0.0
S134 S 0.35655 0.9757 0.40896 0.0
N135 N 0.41425 0.01527 0.37857 0.0
N136 N 0.36208 0.94792 0.49273 0.0
C137 C 0.4127 0.97051 0.49942 0.0
C138 C 0.44099 0.0072 0.43753 0.0
C139 C 0.50273 0.48704 0.73235 0.0
C140 C 0.4766 0.43437 0.73313 0.0
C141 C 0.49568 0.51393 0.66917 0.0
C142 C 0.46162 0.4897 0.60393 0.0
H143 H 0.53012 0.50815 0.77991 0.0
H144 H 0.51728 0.55441 0.67201 0.0
S145 S 0.38165 0.35246 0.57783 0.0
N146 N 0.41396 0.35873 0.66333 0.0
N147 N 0.39997 0.40983 0.54506 0.0
C148 C 0.43407 0.4371 0.60449 0.0
C149 C 0.44178 0.40936 0.66875 0.0
C150 C 0.25907 0.53879 0.22722 0.0
C151 C 0.24369 0.57482 0.23098 0.0
C152 C 0.30332 0.5469 0.26709 0.0
C153 C 0.33371 0.59155 0.31088 0.0
H154 H 0.23677 0.50413 0.19366 0.0
H155 H 0.31459 0.51889 0.26147 0.0
S156 S 0.30975 0.69706 0.34134 0.0
N157 N 0.26253 0.65653 0.28382 0.0
N158 N 0.34467 0.6712 0.35802 0.0
C159 C 0.31831 0.62733 0.3159 0.0
C160 C 0.27362 0.61916 0.27605 0.0
C161 C 0.71594 0.2825 0.33322 0.0
C162 C 0.69282 0.23785 0.37885 0.0
C163 C 0.74977 0.32791 0.37149 0.0
C164 C 0.76212 0.3299 0.45616 0.0
H165 H 0.70537 0.28298 0.26929 0.0
H166 H 0.76487 0.36203 0.33539 0.0
S167 S 0.71379 0.22241 0.6007 0.0
N168 N 0.68574 0.19767 0.51157 0.0
N169 N 0.75065 0.28279 0.58289 0.0
C170 C 0.74153 0.28495 0.50093 0.0
C171 C 0.70635 0.23894 0.46239 0.0
C172 C 0.43423 0.7561 0.54185 0.0
C173 C 0.42541 0.75703 0.62734 0.0
C174 C 0.44662 0.72146 0.50878 0.0
C175 C 0.44862 0.6856 0.55993 0.0
H176 H 0.43007 0.78133 0.50008 0.0
H177 H 0.4516 0.72086 0.44242 0.0
S178 S 0.43072 0.67416 0.78816 0.0
N179 N 0.42245 0.72147 0.76278 0.0
N180 N 0.44344 0.6549 0.70062 0.0
C181 C 0.44153 0.68743 0.64583 0.0
C182 C 0.43042 0.72353 0.67959 0.0
C183 C 0.67911 0.37557 0.80415 0.0
C184 C 0.66449 0.4121 0.80544 0.0
C185 C 0.72369 0.3847 0.76673 0.0
C186 C 0.75564 0.43063 0.72797 0.0
H187 H 0.65578 0.33928 0.83242 0.0
H188 H 0.7329 0.35505 0.76778 0.0
S189 S 0.73505 0.53916 0.71419 0.0
N190 N 0.6857 0.49643 0.76533 0.0
N191 N 0.76996 0.51358 0.6937 0.0
C192 C 0.7418 0.46779 0.72866 0.0
C193 C 0.69626 0.45862 0.76806 0.0
C194 C 0.27923 0.7182 0.83025 0.0
C195 C 0.30479 0.76255 0.87631 0.0
C196 C 0.24508 0.67317 0.86904 0.0
C197 C 0.23473 0.67147 0.95452 0.0
H198 H 0.2882 0.7176 0.76542 0.0
H199 H 0.22822 0.63903 0.83269 0.0
S200 S 0.28948 0.7786 0.10033 0.0
N201 N 0.31608 0.80293 0.01028 0.0
N202 N 0.25055 0.71859 0.08252 0.0
C203 C 0.25769 0.71627 0.99982 0.0
C204 C 0.29324 0.7618 0.9608 0.0
C205 C 0.61267 0.33504 0.07464 0.0
C206 C 0.56339 0.32105 0.05163 0.0
C207 C 0.62414 0.301 0.11132 0.0
C208 C 0.58673 0.25148 0.12782 0.0
H209 H 0.64293 0.37292 0.06442 0.0
H210 H 0.66282 0.31393 0.12783 0.0
S211 S 0.4516 0.19562 0.07853 0.0
N212 N 0.47669 0.25417 0.0464 0.0
N213 N 0.49815 0.18968 0.11697 0.0
C214 C 0.5371 0.23668 0.10495 0.0
C215 C 0.52548 0.2715 0.06607 0.0
loop_
_geom_bond_atom_site_label_1
_geom_bond_atom_site_label_2
_geom_bond_distance
_geom_bond_site_symmetry_2
_ccdc_geom_bond_type
Co0 O1 2.216 . S
Co0 O2 2.091 . S
Co0 O4 2.004 . S
Co0 O10 2.021 . S
Co0 O12 2.137 . S
Co0 O13 2.244 . S
O1 Co0 2.216 . S
O1 C8 1.247 . S
O2 Co0 2.091 . S
O2 C8 1.261 . S
C3 O12 1.247 . S
C3 O13 1.272 . S
O4 Co0 2.004 . S
O4 C9 1.255 1_554 S
Co5 O6 2.061 . S
Co5 O11 2.052 . S
Co5 O13 2.135 1_556 S
O6 Co5 2.061 . S
O6 C9 1.238 . S
C7 O10 1.238 1_556 S
C7 O11 1.241 . S
C8 O1 1.247 . S
C8 O2 1.261 . S
C9 O4 1.255 1_556 S
C9 O6 1.238 . S
O10 Co0 2.021 . S
O10 C7 1.238 1_554 S
O11 Co5 2.052 . S
O11 C7 1.241 . S
O12 Co0 2.137 . S
O12 C3 1.247 . S
O13 Co0 2.244 . S
O13 C3 1.272 . S
O13 Co5 2.135 1_554 S
Co14 O15 2.216 . S
Co14 O16 2.091 . S
Co14 O18 2.004 . S
Co14 O24 2.021 . S
Co14 O26 2.137 . S
Co14 O27 2.244 . S
O15 Co14 2.216 . S
O15 C22 1.247 . S
O16 Co14 2.091 . S
O16 C22 1.261 . S
C17 O26 1.247 . S
C17 O27 1.272 . S
O18 Co14 2.004 . S
O18 C23 1.259 . S
Co19 O20 2.061 . S
Co19 O25 2.052 . S
Co19 O27 2.135 . S
O20 Co19 2.061 . S
O20 C23 1.235 . S
C21 O24 1.238 . S
C21 O25 1.241 . S
C22 O15 1.247 . S
C22 O16 1.261 . S
C23 O18 1.259 . S
C23 O20 1.235 . S
O24 Co14 2.021 . S
O24 C21 1.238 . S
O25 Co19 2.052 . S
O25 C21 1.241 . S
O26 Co14 2.137 . S
O26 C17 1.247 . S
O27 Co14 2.244 . S
O27 C17 1.272 . S
O27 Co19 2.135 . S
Co28 O29 2.216 . S
Co28 O30 2.091 . S
Co28 O32 2.004 . S
Co28 O38 2.021 . S
Co28 O40 2.137 . S
Co28 O41 2.244 . S
O29 Co28 2.216 . S
O29 C36 1.247 . S
O30 Co28 2.091 . S
O30 C36 1.261 . S
C31 O40 1.247 . S
C31 O41 1.272 . S
O32 Co28 2.004 . S
O32 C37 1.259 . S
Co33 O34 2.061 . S
Co33 O39 2.052 . S
Co33 O41 2.135 . S
O34 Co33 2.061 . S
O34 C37 1.235 . S
C35 O38 1.238 . S
C35 O39 1.241 . S
C36 O29 1.247 . S
C36 O30 1.261 . S
C37 O32 1.259 . S
C37 O34 1.235 . S
O38 Co28 2.021 . S
O38 C35 1.238 . S
O39 Co33 2.052 . S
O39 C35 1.241 . S
O40 Co28 2.137 . S
O40 C31 1.247 . S
O41 Co28 2.244 . S
O41 C31 1.272 . S
O41 Co33 2.135 . S
Co42 O43 2.216 . S
Co42 O44 2.091 . S
Co42 O46 2.004 . S
Co42 O52 2.021 . S
Co42 O54 2.137 . S
Co42 O55 2.244 . S
O43 Co42 2.216 . S
O43 C50 1.247 . S
O44 Co42 2.091 . S
O44 C50 1.261 . S
C45 O54 1.247 . S
C45 O55 1.272 . S
O46 Co42 2.004 . S
O46 C51 1.259 . S
Co47 O48 2.061 . S
Co47 O53 2.052 . S
Co47 O55 2.135 . S
O48 Co47 2.061 . S
O48 C51 1.235 . S
C49 O52 1.238 . S
C49 O53 1.241 . S
C50 O43 1.247 . S
C50 O44 1.261 . S
C51 O46 1.259 . S
C51 O48 1.235 . S
O52 Co42 2.021 . S
O52 C49 1.238 . S
O53 Co47 2.052 . S
O53 C49 1.241 . S
O54 Co42 2.137 . S
O54 C45 1.247 . S
O55 Co42 2.244 . S
O55 C45 1.272 . S
O55 Co47 2.135 . S
Co56 O57 2.216 . S
Co56 O58 2.091 . S
Co56 O60 2.004 . S
Co56 O66 2.021 . S
Co56 O68 2.137 . S
Co56 O69 2.244 . S
O57 Co56 2.216 . S
O57 C64 1.247 . S
O58 Co56 2.091 . S
O58 C64 1.261 . S
C59 O68 1.247 . S
C59 O69 1.272 . S
O60 Co56 2.004 . S
O60 C65 1.259 . S
Co61 O62 2.061 . S
Co61 O67 2.052 . S
Co61 O69 2.135 . S
O62 Co61 2.061 . S
O62 C65 1.235 . S
C63 O66 1.238 . S
C63 O67 1.241 . S
C64 O57 1.247 . S
C64 O58 1.261 . S
C65 O60 1.259 . S
C65 O62 1.235 . S
O66 Co56 2.021 . S
O66 C63 1.238 . S
O67 Co61 2.052 . S
O67 C63 1.241 . S
O68 Co56 2.137 . S
O68 C59 1.247 . S
O69 Co56 2.244 . S
O69 C59 1.272 . S
O69 Co61 2.135 . S
Co70 O71 2.216 1_556 S
Co70 O72 2.091 1_556 S
Co70 O74 2.004 . S
Co70 O80 2.021 . S
Co70 O82 2.137 1_556 S
Co70 O83 2.244 . S
O71 Co70 2.216 1_554 S
O71 C78 1.247 . S
O72 Co70 2.091 1_554 S
O72 C78 1.261 . S
C73 O82 1.247 1_556 S
C73 O83 1.272 . S
O74 Co70 2.004 . S
O74 C79 1.259 . S
Co75 O76 2.061 . S
Co75 O81 2.052 . S
Co75 O83 2.135 . S
O76 Co75 2.061 . S
O76 C79 1.235 . S
C77 O80 1.238 . S
C77 O81 1.241 . S
C78 O71 1.247 . S
C78 O72 1.261 . S
C79 O74 1.259 . S
C79 O76 1.235 . S
O80 Co70 2.021 . S
O80 C77 1.238 . S
O81 Co75 2.052 . S
O81 C77 1.241 . S
O82 Co70 2.137 1_554 S
O82 C73 1.247 1_554 S
O83 Co70 2.244 . S
O83 C73 1.272 . S
O83 Co75 2.135 . S
C84 C85 1.369 1_655 S
C84 C86 1.419 . S
C84 H88 0.930 . S
C85 C84 1.369 1_455 S
C85 C94 1.429 . S
C86 C84 1.419 . S
C86 C87 1.363 . S
C86 H89 0.929 . S
C87 C86 1.363 . S
C87 C93 1.428 1_655 S
H88 C84 0.930 . S
H89 C86 0.929 . S
S90 N91 1.613 . S
S90 N92 1.610 . S
N91 S90 1.613 . S
N91 C94 1.350 . S
N92 S90 1.610 . S
N92 C93 1.351 . S
C93 C87 1.428 1_455 S
C93 N92 1.351 . S
C93 C94 1.434 . S
C94 C85 1.429 . S
C94 N91 1.350 . S
C94 C93 1.434 . S
C95 C96 1.369 1_545 S
C95 C97 1.419 1_556 S
C95 H99 0.930 . S
C96 C95 1.369 1_565 S
C96 C105 1.429 . S
C97 C95 1.419 1_554 S
C97 C98 1.363 . S
C97 H100 0.929 . S
C98 C97 1.363 . S
C98 C104 1.428 . S
H99 C95 0.930 . S
H100 C97 0.929 . S
S101 N102 1.613 1_554 S
S101 N103 1.610 1_565 S
N102 S101 1.613 1_556 S
N102 C105 1.350 . S
N103 S101 1.610 1_545 S
N103 C104 1.351 . S
C104 C98 1.428 . S
C104 N103 1.351 . S
C104 C105 1.434 1_544 S
C105 C96 1.429 . S
C105 N102 1.350 . S
C105 C104 1.434 1_566 S
C106 C107 1.369 . S
C106 C108 1.419 . S
C106 H110 0.930 . S
C107 C106 1.369 . S
C107 C116 1.429 . S
C108 C106 1.419 . S
C108 C109 1.363 . S
C108 H111 0.929 . S
C109 C108 1.363 . S
C109 C115 1.428 . S
H110 C106 0.930 . S
H111 C108 0.929 . S
S112 N113 1.613 . S
S112 N114 1.610 . S
N113 S112 1.613 . S
N113 C116 1.350 . S
N114 S112 1.610 . S
N114 C115 1.351 . S
C115 C109 1.428 . S
C115 N114 1.351 . S
C115 C116 1.434 . S
C116 C107 1.429 . S
C116 N113 1.350 . S
C116 C115 1.434 . S
C117 C118 1.360 1_455 S
C117 C119 1.424 . S
C117 H121 0.934 . S
C118 C117 1.360 1_655 S
C118 C127 1.429 . S
C119 C117 1.424 . S
C119 C120 1.363 . S
C119 H122 0.929 . S
C120 C119 1.363 . S
C120 C126 1.428 1_455 S
H121 C117 0.934 . S
H122 C119 0.929 . S
S123 N124 1.613 . S
S123 N125 1.610 . S
N124 S123 1.613 . S
N124 C127 1.350 . S
N125 S123 1.610 . S
N125 C126 1.351 . S
C126 C120 1.428 1_655 S
C126 N125 1.351 . S
C126 C127 1.434 . S
C127 C118 1.429 . S
C127 N124 1.350 . S
C127 C126 1.434 . S
C128 C129 1.369 . S
C128 C130 1.419 1_545 S
C128 H132 0.930 . S
C129 C128 1.369 . S
C129 C138 1.429 . S
C130 C128 1.419 1_565 S
C130 C131 1.363 . S
C130 H133 0.929 . S
C131 C130 1.363 . S
C131 C137 1.428 . S
H132 C128 0.930 . S
H133 C130 0.929 . S
S134 N135 1.613 . S
S134 N136 1.610 1_545 S
N135 S134 1.613 . S
N135 C138 1.350 . S
N136 S134 1.610 1_565 S
N136 C137 1.351 . S
C137 C131 1.428 . S
C137 N136 1.351 . S
C137 C138 1.434 1_565 S
C138 C129 1.429 . S
C138 N135 1.350 . S
C138 C137 1.434 1_545 S
C139 C140 1.369 . S
C139 C141 1.419 . S
C139 H143 0.930 . S
C140 C139 1.369 . S
C140 C149 1.429 . S
C141 C139 1.419 . S
C141 C142 1.363 . S
C141 H144 0.929 . S
C142 C141 1.363 . S
C142 C148 1.428 . S
H143 C139 0.930 . S
H144 C141 0.929 . S
S145 N146 1.613 . S
S145 N147 1.610 . S
N146 S145 1.613 . S
N146 C149 1.350 . S
N147 S145 1.610 . S
N147 C148 1.351 . S
C148 C142 1.428 . S
C148 N147 1.351 . S
C148 C149 1.434 . S
C149 C140 1.429 . S
C149 N146 1.350 . S
C149 C148 1.434 . S
C150 C151 1.369 . S
C150 C152 1.419 . S
C150 H154 0.930 . S
C151 C150 1.369 . S
C151 C160 1.429 . S
C152 C150 1.419 . S
C152 C153 1.363 . S
C152 H155 0.929 . S
C153 C152 1.363 . S
C153 C159 1.428 . S
H154 C150 0.930 . S
H155 C152 0.929 . S
S156 N157 1.613 . S
S156 N158 1.610 . S
N157 S156 1.613 . S
N157 C160 1.350 . S
N158 S156 1.610 . S
N158 C159 1.351 . S
C159 C153 1.428 . S
C159 N158 1.351 . S
C159 C160 1.434 . S
C160 C151 1.429 . S
C160 N157 1.350 . S
C160 C159 1.434 . S
C161 C162 1.369 . S
C161 C163 1.419 . S
C161 H165 0.930 . S
C162 C161 1.369 . S
C162 C171 1.429 . S
C163 C161 1.419 . S
C163 C164 1.363 . S
C163 H166 0.929 . S
C164 C163 1.363 . S
C164 C170 1.428 . S
H165 C161 0.930 . S
H166 C163 0.929 . S
S167 N168 1.613 . S
S167 N169 1.610 . S
N168 S167 1.613 . S
N168 C171 1.350 . S
N169 S167 1.610 . S
N169 C170 1.351 . S
C170 C164 1.428 . S
C170 N169 1.351 . S
C170 C171 1.434 . S
C171 C162 1.429 . S
C171 N168 1.350 . S
C171 C170 1.434 . S
C172 C173 1.369 . S
C172 C174 1.419 . S
C172 H176 0.930 . S
C173 C172 1.369 . S
C173 C182 1.429 . S
C174 C172 1.419 . S
C174 C175 1.363 . S
C174 H177 0.929 . S
C175 C174 1.363 . S
C175 C181 1.428 . S
H176 C172 0.930 . S
H177 C174 0.929 . S
S178 N179 1.613 . S
S178 N180 1.610 . S
N179 S178 1.613 . S
N179 C182 1.350 . S
N180 S178 1.610 . S
N180 C181 1.351 . S
C181 C175 1.428 . S
C181 N180 1.351 . S
C181 C182 1.434 . S
C182 C173 1.429 . S
C182 N179 1.350 . S
C182 C181 1.434 . S
C183 C184 1.369 . S
C183 C185 1.419 . S
C183 H187 0.930 . S
C184 C183 1.369 . S
C184 C193 1.429 . S
C185 C183 1.419 . S
C185 C186 1.363 . S
C185 H188 0.929 . S
C186 C185 1.363 . S
C186 C192 1.428 . S
H187 C183 0.930 . S
H188 C185 0.929 . S
S189 N190 1.613 . S
S189 N191 1.610 . S
N190 S189 1.613 . S
N190 C193 1.350 . S
N191 S189 1.610 . S
N191 C192 1.351 . S
C192 C186 1.428 . S
C192 N191 1.351 . S
C192 C193 1.434 . S
C193 C184 1.429 . S
C193 N190 1.350 . S
C193 C192 1.434 . S
C194 C195 1.369 . S
C194 C196 1.419 . S
C194 H198 0.930 . S
C195 C194 1.369 . S
C195 C204 1.429 . S
C196 C194 1.419 . S
C196 C197 1.363 . S
C196 H199 0.929 . S
C197 C196 1.363 . S
C197 C203 1.428 . S
H198 C194 0.930 . S
H199 C196 0.929 . S
S200 N201 1.613 1_554 S
S200 N202 1.610 . S
N201 S200 1.613 1_556 S
N201 C204 1.350 . S
N202 S200 1.610 . S
N202 C203 1.351 1_554 S
C203 C197 1.428 . S
C203 N202 1.351 1_556 S
C203 C204 1.434 . S
C204 C195 1.429 . S
C204 N201 1.350 . S
C204 C203 1.434 . S
C205 C206 1.369 . S
C205 C207 1.419 . S
C205 H209 0.930 . S
C206 C205 1.369 . S
C206 C215 1.429 . S
C207 C205 1.419 . S
C207 C208 1.363 . S
C207 H210 0.929 . S
C208 C207 1.363 . S
C208 C214 1.428 . S
H209 C205 0.930 . S
H210 C207 0.929 . S
S211 N212 1.613 . S
S211 N213 1.610 . S
N212 S211 1.613 . S
N212 C215 1.350 . S
N213 S211 1.610 . S
N213 C214 1.351 . S
C214 C208 1.428 . S
C214 N213 1.351 . S
C214 C215 1.434 . S
C215 C206 1.429 . S
C215 N212 1.350 . S
C215 C214 1.434 . S
C85 C7 1.365 . S
C87 C50 1.380 . S
C96 C64 1.379 . S
C98 C21 1.367 . S
C107 C35 1.367 . S
C109 C78 1.381 . S
C118 C49 1.364 . S
C120 C8 1.382 . S
C129 C22 1.381 . S
C131 C63 1.368 . S
C140 C77 1.365 . S
C142 C36 1.382 . S
C151 C3 1.326 . S
C153 C37 1.301 . S
C162 C17 1.325 . S
C164 C51 1.307 . S
C173 C65 1.305 . S
C175 C31 1.325 . S
C184 C79 1.309 . S
C186 C45 1.330 . S
C195 C59 1.327 . S
C197 C9 1.310 . S
C206 C73 1.328 1_554 S
C208 C23 1.308 . S
