# Generated by pormake.
# Topology kag, (6)-cn, num edge types: 1
# Building blocks:
#     Node 0, Type 0, BuildingBlock: MIFKUJ_clean_sbu_0, # of connection points: 6
#     Node 1, Type 0, BuildingBlock: MIFKUJ_clean_sbu_0, # of connection points: 6
#     Node 2, Type 0, BuildingBlock: MIFKUJ_clean_sbu_0, # of connection points: 6
#     Edge 3, Type (0, 0), None
#     Edge 4, Type (0, 0), None
#     Edge 5, Type (0, 0), None
#     Edge 6, Type (0, 0), None
#     Edge 7, Type (0, 0), None
#     Edge 8, Type (0, 0), None
#     Edge 9, Type (0, 0), None
#     Edge 10, Type (0, 0), None
#     Edge 11, Type (0, 0), None
# Relax obj value: 0.017
# Max RMSD: 0.081
# Mean RMSD: 0.049
data_MOF--net-kag--node1-MIFKUJ_clean_sbu_0--edge1-none
_symmetry_space_group_name_H-M    P1
_symmetry_Int_Tables_number       1
_symmetry_cell_setting            triclinic
loop_
_symmetry_equiv_pos_as_xyz
'x, y, z'
_cell_length_a     17.754279
_cell_length_b     18.826772
_cell_length_c     6.1842261
_cell_angle_alpha  92.914194
_cell_angle_beta   95.149388
_cell_angle_gamma 112.85294
loop_
_atom_site_label
_atom_site_type_symbol
_atom_site_fract_x
_atom_site_fract_y
_atom_site_fract_z
_atom_type_partial_charge
Zn0 Zn 0.09481 0.56186 -0.03245 0.0
Zn1 Zn 0.96677 0.39549 0.92229 0.0
C2 C 0.23421 0.53215 0.1143 0.0
O3 O 0.22963 0.57398 0.28521 0.0
C4 C 0.82737 0.4252 0.77554 0.0
O5 O 0.83196 0.38337 0.60463 0.0
O6 O 0.16796 0.67514 0.02679 0.0
O7 O 0.032 0.54005 0.66863 0.0
O8 O 1.0273 0.42126 0.65869 0.0
C9 C 0.21797 0.70518 0.89084 0.0
O10 O 0.21133 0.66529 0.70445 0.0
O11 O 0.17785 0.51263 -0.0451 0.0
C12 C 0.8436 0.25219 -0.00103 0.0
O13 O 0.85022 0.29209 0.18532 0.0
O14 O 0.89362 0.28221 0.86305 0.0
O15 O 1.02958 0.4173 0.2212 0.0
O16 O 0.03429 0.53609 0.23114 0.0
O17 O 0.88373 0.44472 0.93494 0.0
C18 C 1.02991 0.47974 0.56206 0.0
C19 C 0.03167 0.47762 0.32777 0.0
Zn20 Zn 0.47055 0.8574 0.91394 0.0
Zn21 Zn 0.59101 0.09997 -0.02412 0.0
C22 C 0.52282 0.73925 0.75989 0.0
O23 O 0.5139 0.76624 0.57186 0.0
C24 C 0.53874 0.21813 0.12993 0.0
O25 O 0.54766 0.19114 0.31796 0.0
O26 O 0.34979 0.7927 0.83653 0.0
O27 O 0.49517 0.91129 0.21719 0.0
O28 O 0.55943 0.0397 0.23776 0.0
C29 C 0.29396 0.77327 -0.03771 0.0
O30 O 0.31129 0.802 0.16724 0.0
O31 O 0.5153 0.774 0.93248 0.0
C32 C 0.7676 0.18411 0.92754 0.0
O33 O 0.75028 0.15535 0.72261 0.0
O34 O 0.71176 0.16467 0.0533 0.0
O35 O 0.56639 0.04608 0.67262 0.0
O36 O 0.50213 0.91767 0.65206 0.0
O37 O 0.54625 0.18337 -0.04267 0.0
C38 C 0.52835 0.97699 0.32617 0.0
C39 C 0.5332 -0.01962 0.56365 0.0
Zn40 Zn 0.61696 0.45072 -0.03107 0.0
Zn41 Zn 0.44464 0.50666 0.92092 0.0
C42 C 0.54421 0.29797 0.12778 0.0
O43 O 0.55582 0.33852 0.31515 0.0
C44 C 0.51736 0.65941 0.76205 0.0
O45 O 0.50576 0.61886 0.57468 0.0
O46 O 0.73628 0.46307 -0.02842 0.0
O47 O 0.59521 0.49282 0.68628 0.0
O48 O 0.45985 0.4586 0.63556 0.0
C49 C 0.7511 0.43705 0.7931 0.0
O50 O 0.69211 0.40962 0.62998 0.0
O51 O 0.55808 0.33264 -0.04537 0.0
C52 C 0.31048 0.5203 0.09675 0.0
O53 O 0.36947 0.54773 0.25986 0.0
O54 O 0.32531 0.49429 0.91826 0.0
O55 O 0.4664 0.46458 0.20358 0.0
O56 O 0.60176 0.49879 0.25429 0.0
O57 O 0.5035 0.62474 0.9352 0.0
C58 C 0.5288 0.47603 0.5618 0.0
C59 C 0.53281 0.48136 0.32805 0.0
loop_
_geom_bond_atom_site_label_1
_geom_bond_atom_site_label_2
_geom_bond_distance
_geom_bond_site_symmetry_2
_ccdc_geom_bond_type
Zn0 O6 1.969 . S
Zn0 O7 1.965 1_554 S
Zn0 O11 2.024 1_554 S
Zn0 O16 1.969 . S
Zn1 O8 1.969 . S
Zn1 O14 1.969 . S
Zn1 O15 1.965 1_556 S
Zn1 O17 2.024 1_556 S
C2 O3 1.229 . S
C2 O11 1.058 1_554 S
O3 C2 1.229 . S
C4 O5 1.229 . S
C4 O17 1.058 1_556 S
O5 C4 1.229 . S
O6 Zn0 1.969 . S
O6 C9 1.267 1_554 S
O7 Zn0 1.965 1_556 S
O7 C18 1.260 1_455 S
O8 Zn1 1.969 . S
O8 C18 1.258 . S
C9 O6 1.267 1_556 S
C9 O10 1.228 . S
O10 C9 1.228 . S
O11 Zn0 2.024 1_556 S
O11 C2 1.058 1_556 S
C12 O13 1.228 . S
C12 O14 1.267 1_554 S
O13 C12 1.228 . S
O14 Zn1 1.969 . S
O14 C12 1.267 1_556 S
O15 Zn1 1.965 1_554 S
O15 C19 1.260 1_655 S
O16 Zn0 1.969 . S
O16 C19 1.258 . S
O17 Zn1 2.024 1_554 S
O17 C4 1.058 1_554 S
C18 O7 1.260 1_655 S
C18 O8 1.258 . S
C19 O15 1.260 1_455 S
C19 O16 1.258 . S
Zn20 O26 1.969 . S
Zn20 O27 1.965 1_556 S
Zn20 O31 2.024 1_556 S
Zn20 O36 1.969 . S
Zn21 O28 1.969 . S
Zn21 O34 1.969 . S
Zn21 O35 1.965 1_554 S
Zn21 O37 2.024 1_554 S
C22 O23 1.229 . S
C22 O31 1.058 1_556 S
O23 C22 1.229 . S
C24 O25 1.229 . S
C24 O37 1.058 1_554 S
O25 C24 1.229 . S
O26 Zn20 1.969 . S
O26 C29 1.267 1_556 S
O27 Zn20 1.965 1_554 S
O27 C38 1.260 1_565 S
O28 Zn21 1.969 . S
O28 C38 1.258 . S
C29 O26 1.267 1_554 S
C29 O30 1.228 . S
O30 C29 1.228 . S
O31 Zn20 2.024 1_554 S
O31 C22 1.058 1_554 S
C32 O33 1.228 . S
C32 O34 1.267 1_556 S
O33 C32 1.228 . S
O34 Zn21 1.969 . S
O34 C32 1.267 1_554 S
O35 Zn21 1.965 1_556 S
O35 C39 1.260 1_545 S
O36 Zn20 1.969 . S
O36 C39 1.258 . S
O37 Zn21 2.024 1_556 S
O37 C24 1.058 1_556 S
C38 O27 1.260 1_545 S
C38 O28 1.258 . S
C39 O35 1.260 1_565 S
C39 O36 1.258 . S
Zn40 O46 1.969 . S
Zn40 O47 1.965 1_554 S
Zn40 O51 2.024 1_554 S
Zn40 O56 1.969 . S
Zn41 O48 1.969 . S
Zn41 O54 1.969 . S
Zn41 O55 1.965 1_556 S
Zn41 O57 2.024 1_556 S
C42 O43 1.229 . S
C42 O51 1.058 1_554 S
O43 C42 1.229 . S
C44 O45 1.229 . S
C44 O57 1.058 1_556 S
O45 C44 1.229 . S
O46 Zn40 1.969 . S
O46 C49 1.267 1_554 S
O47 Zn40 1.965 1_556 S
O47 C58 1.260 . S
O48 Zn41 1.969 . S
O48 C58 1.258 . S
C49 O46 1.267 1_556 S
C49 O50 1.228 . S
O50 C49 1.228 . S
O51 Zn40 2.024 1_556 S
O51 C42 1.058 1_556 S
C52 O53 1.228 . S
C52 O54 1.267 1_554 S
O53 C52 1.228 . S
O54 Zn41 1.969 . S
O54 C52 1.267 1_556 S
O55 Zn41 1.965 1_554 S
O55 C59 1.260 . S
O56 Zn40 1.969 . S
O56 C59 1.258 . S
O57 Zn41 2.024 1_554 S
O57 C44 1.058 1_554 S
C58 O47 1.260 . S
C58 O48 1.258 . S
C59 O55 1.260 . S
C59 O56 1.258 . S
C18 C19 1.611 1_655 S
C38 C39 1.523 1_545 S
C58 C59 1.469 . S
C2 C52 1.151 . S
C32 C12 1.155 1_556 S
C22 C44 1.223 . S
C4 C49 1.152 . S
C9 C29 1.155 1_556 S
C42 C24 1.223 . S
