# Generated by pormake.
# Topology pcu, (6)-cn, num edge types: 1
# Building blocks:
#     Node 0, Type 0, BuildingBlock: BETDAH_clean_sbu_0, # of connection points: 6
#     Edge 1, Type (0, 0), BuildingBlock: UVAHIK_clean_linker_0, # of connection points: 2
#     Edge 2, Type (0, 0), BuildingBlock: UVAHIK_clean_linker_0, # of connection points: 2
#     Edge 3, Type (0, 0), BuildingBlock: UVAHIK_clean_linker_0, # of connection points: 2
# Relax obj value: 0.000
# Max RMSD: 0.000
# Mean RMSD: 0.000
data_MOF--net-pcu--node1-BETDAH_clean_sbu_0--edge1-UVAHIK_clean_linker_0
_symmetry_space_group_name_H-M    P1
_symmetry_Int_Tables_number       1
_symmetry_cell_setting            triclinic
loop_
_symmetry_equiv_pos_as_xyz
'x, y, z'
_cell_length_a     29.55128
_cell_length_b     20.046769
_cell_length_c     18.716949
_cell_angle_alpha  86.994869
_cell_angle_beta   99.047302
_cell_angle_gamma 126.00664
loop_
_atom_site_label
_atom_site_type_symbol
_atom_site_fract_x
_atom_site_fract_y
_atom_site_fract_z
_atom_type_partial_charge
Ho0 Ho 0.96529 0.93114 0.02634 0.0
Ho1 Ho 0.09007 0.04137 1.00488 0.0
C2 C 0.03035 0.12964 1.00899 0.0
C3 C 0.86934 0.86794 0.07022 0.0
C4 C 0.82764 0.88665 0.0644 0.0
C5 C 0.78248 0.84211 0.1038 0.0
C6 C 0.74157 0.85741 0.09759 0.0
C7 C 0.74497 0.91767 0.05166 0.0
C8 C 0.79093 0.96304 1.01291 0.0
C9 C 0.83188 0.94763 0.01922 0.0
C10 C 0.98329 0.94386 0.88782 0.0
C11 C 1.02499 0.84286 0.02202 0.0
C12 C 0.18618 0.10476 0.96141 0.0
C13 C 0.22783 0.08594 0.96713 0.0
C14 C 0.27299 0.13051 0.92775 0.0
C15 C 0.31387 0.11514 0.93391 0.0
C16 C 0.31043 0.0548 0.97976 0.0
C17 C 0.26444 0.00939 0.01847 0.0
C18 C 0.22353 0.02485 1.01221 0.0
C19 C 0.07174 0.02846 0.14336 0.0
O20 O 0.989 0.06055 0.03411 0.0
O21 O 0.07119 0.13408 0.98324 0.0
O22 O 0.87407 0.84398 1.00992 0.0
O23 O 0.91848 0.9207 0.10966 0.0
O24 O 0.94175 0.87766 0.91246 0.0
O25 O 1.01035 0.00144 0.93604 0.0
O26 O 0.06631 0.91196 0.9969 0.0
O27 O 0.98417 0.83842 0.04787 0.0
O28 O 0.18131 0.12832 0.02181 0.0
O29 O 0.13712 0.05231 0.92168 0.0
O30 O 0.11324 0.09481 0.11882 0.0
O31 O 0.04503 0.97106 0.09505 0.0
H32 H 0.77871 0.79511 0.13924 0.0
H33 H 0.70744 0.82231 0.12922 0.0
H34 H 0.79469 0.00931 0.97655 0.0
H35 H 0.86651 0.98268 0.98831 0.0
H36 H 0.27681 0.17758 0.89239 0.0
H37 H 0.34802 0.15027 0.90231 0.0
H38 H 0.26064 0.96305 0.05477 0.0
H39 H 0.18888 -0.01022 0.0431 0.0
C40 C 0.0949 0.08768 0.26882 0.0
C41 C 0.06148 0.01943 0.21908 0.0
C42 C 0.08608 0.07941 0.34092 0.0
C43 C 1.02401 0.92395 0.4787 0.0
H44 H 0.032 0.09574 0.57922 0.0
C45 C 0.95973 0.88436 0.76235 0.0
C46 C 0.99335 0.95267 0.81202 0.0
C47 C 0.96839 0.89247 0.69018 0.0
C48 C 0.0303 0.04767 0.55221 0.0
H49 H 0.99236 0.88914 0.20523 0.0
H50 H 0.9764 0.87466 0.33114 0.0
H51 H 0.04532 0.10953 0.45261 0.0
H52 H 0.06266 0.08288 0.82567 0.0
H53 H 0.07831 0.09708 0.69965 0.0
H54 H 1.00898 0.86208 0.57831 0.0
C55 C 1.00994 0.93441 0.31474 0.0
C56 C 0.03788 0.05553 0.47958 0.0
C57 C 1.01879 0.94276 0.24255 0.0
C58 C 0.03607 0.02923 0.78841 0.0
C59 C 0.04475 0.03741 0.71616 0.0
C60 C 1.01642 0.91608 0.55133 0.0
C61 C 0.0436 0.00264 0.36486 0.0
C62 C 0.03486 -0.00621 0.44193 0.0
C63 C 1.01089 0.96914 0.66611 0.0
C64 C 1.01948 0.97785 0.58899 0.0
H65 H 0.12818 0.14751 0.25213 0.0
H66 H 0.11323 0.13296 0.37821 0.0
H67 H 1.02233 0.87589 0.4517 0.0
H68 H 0.92643 0.82462 0.77914 0.0
H69 H 0.94112 0.83889 0.65294 0.0
C70 C 0.41241 0.10688 0.99025 0.0
C71 C 0.35502 0.04024 0.98765 0.0
C72 C 0.45434 0.09357 0.9973 0.0
C73 C 0.47564 0.93215 0.97171 0.0
H74 H 0.61932 0.08221 0.09506 0.0
C75 C 0.64298 0.86555 0.04119 0.0
C76 C 0.70037 0.9322 0.04375 0.0
C77 C 0.60104 0.87885 0.03413 0.0
C78 C 0.57972 0.04024 0.05969 0.0
H79 H 0.29699 0.90699 0.99014 0.0
H80 H 0.37021 0.88391 1.00385 0.0
H81 H 0.54593 0.1046 0.08387 0.0
H82 H 0.75838 0.06544 0.04118 0.0
H83 H 0.68514 0.0885 0.02747 0.0
H84 H 0.50943 0.86779 0.94754 0.0
C85 C 0.38273 0.94655 0.9996 0.0
C86 C 0.53755 0.05306 0.05329 0.0
C87 C 0.34075 0.95988 0.99259 0.0
C88 C 0.71462 0.01256 0.03877 0.0
C89 C 0.67264 0.02587 0.03175 0.0
C90 C 0.51781 0.91933 0.97811 0.0
C91 C 0.44011 0.01323 1.00201 0.0
C92 C 0.48493 -0.00079 1.00919 0.0
C93 C 0.61526 0.95917 0.02938 0.0
C94 C 0.57044 0.97318 0.02221 0.0
H95 H 0.42515 0.16972 0.98755 0.0
H96 H 0.49796 0.14636 0.99818 0.0
H97 H 0.43604 0.89019 0.93634 0.0
H98 H 0.63025 0.80273 0.04393 0.0
H99 H 0.55743 0.82605 0.03328 0.0
C100 C 0.07021 0.77464 0.99789 0.0
C101 C 1.02578 0.7697 0.02248 0.0
C102 C 0.07077 0.70555 0.99692 0.0
C103 C 0.97707 0.47827 0.99459 0.0
H104 H 0.11772 0.50157 0.0537 0.0
C105 C 0.9851 0.19787 0.03299 0.0
C106 C 0.02954 0.20279 1.00845 0.0
C107 C 0.98453 0.26695 0.03391 0.0
C108 C 0.07824 0.49422 0.03619 0.0
H109 H 0.94726 0.68823 0.06586 0.0
H110 H 0.94852 0.5677 0.06466 0.0
H111 H 0.117 0.62225 0.05846 0.0
H112 H 0.10806 0.28423 0.96507 0.0
H113 H 0.10679 0.40476 0.96618 0.0
H114 H 0.93831 0.35024 0.97232 0.0
C115 C 0.98259 0.62492 0.04536 0.0
C116 C 0.07781 0.56334 0.03901 0.0
C117 C 0.98206 0.69414 0.04646 0.0
C118 C 0.07326 0.27833 0.98445 0.0
C119 C 0.07272 0.34755 0.98549 0.0
C120 C 0.9775 0.40916 0.99177 0.0
C121 C 1.0269 0.62983 0.02041 0.0
C122 C 1.02722 0.55616 0.01823 0.0
C123 C 0.02841 0.34266 1.0104 0.0
C124 C 0.02809 0.41633 1.01256 0.0
H125 H 0.10458 0.83178 0.97889 0.0
H126 H 0.10515 0.71116 0.97655 0.0
H127 H 0.93759 0.47093 0.97709 0.0
H128 H 0.95073 0.14073 0.05202 0.0
H129 H 0.95015 0.26135 0.05426 0.0
loop_
_geom_bond_atom_site_label_1
_geom_bond_atom_site_label_2
_geom_bond_distance
_geom_bond_site_symmetry_2
_ccdc_geom_bond_type
Ho0 C3 2.811 . S
Ho0 O20 2.322 1_565 S
Ho0 O22 2.378 . S
Ho0 O23 2.524 1_556 S
Ho0 O24 2.381 . S
Ho0 O25 2.669 1_665 S
Ho0 O27 2.346 . S
Ho0 O31 2.305 1_556 S
Ho1 C12 2.811 . S
Ho1 O21 2.346 . S
Ho1 O25 2.305 1_554 S
Ho1 O26 2.322 1_545 S
Ho1 O28 2.378 . S
Ho1 O29 2.524 1_554 S
Ho1 O30 2.381 . S
Ho1 O31 2.669 1_445 S
C2 O20 1.259 1_455 S
C2 O21 1.268 1_556 S
C3 Ho0 2.811 . S
C3 C4 1.490 . S
C3 O22 1.215 . S
C3 O23 1.289 1_556 S
C4 C3 1.490 . S
C4 C5 1.339 1_566 S
C4 C9 1.421 . S
C5 C4 1.339 1_544 S
C5 C6 1.442 . S
C5 H32 0.930 . S
C6 C5 1.442 . S
C6 C7 1.368 1_544 S
C6 H33 0.931 . S
C7 C6 1.368 1_566 S
C7 C8 1.336 . S
C8 C7 1.336 . S
C8 C9 1.403 . S
C8 H34 0.934 . S
C9 C4 1.421 . S
C9 C8 1.403 . S
C9 H35 0.930 . S
C10 O24 1.275 . S
C10 O25 1.256 1_665 S
C11 O26 1.259 1_655 S
C11 O27 1.268 1_554 S
C12 Ho1 2.811 . S
C12 C13 1.490 . S
C12 O28 1.215 . S
C12 O29 1.289 1_554 S
C13 C12 1.490 . S
C13 C14 1.336 1_544 S
C13 C18 1.424 . S
C14 C13 1.336 1_566 S
C14 C15 1.442 . S
C14 H36 0.930 . S
C15 C14 1.442 . S
C15 C16 1.381 1_566 S
C15 H37 0.931 . S
C16 C15 1.381 1_544 S
C16 C17 1.321 . S
C17 C16 1.321 . S
C17 C18 1.403 . S
C17 H38 0.934 . S
C18 C13 1.424 . S
C18 C17 1.403 . S
C18 H39 0.930 . S
C19 O30 1.275 . S
C19 O31 1.256 1_445 S
O20 Ho0 2.322 1_545 S
O20 C2 1.259 1_655 S
O21 Ho1 2.346 . S
O21 C2 1.268 1_554 S
O22 Ho0 2.378 . S
O22 C3 1.215 . S
O23 Ho0 2.524 1_554 S
O23 C3 1.289 1_554 S
O24 Ho0 2.381 . S
O24 C10 1.275 . S
O25 Ho0 2.669 1_445 S
O25 Ho1 2.305 1_556 S
O25 C10 1.256 1_445 S
O26 Ho1 2.322 1_565 S
O26 C11 1.259 1_455 S
O27 Ho0 2.346 . S
O27 C11 1.268 1_556 S
O28 Ho1 2.378 . S
O28 C12 1.215 . S
O29 Ho1 2.524 1_556 S
O29 C12 1.289 1_556 S
O30 Ho1 2.381 . S
O30 C19 1.275 . S
O31 Ho0 2.305 1_554 S
O31 Ho1 2.669 1_665 S
O31 C19 1.256 1_665 S
H32 C5 0.930 . S
H33 C6 0.931 . S
H34 C8 0.934 . S
H35 C9 0.930 . S
H36 C14 0.930 . S
H37 C15 0.931 . S
H38 C17 0.934 . S
H39 C18 0.930 . S
C40 C41 1.349 1_655 S
C40 C42 1.327 . S
C40 H65 0.950 . S
C41 C40 1.349 1_455 S
C41 C57 1.349 1_545 S
C42 C40 1.327 . S
C42 C61 1.429 1_655 S
C42 H66 0.950 . S
C43 C60 1.574 . S
C43 C62 1.368 1_565 S
C43 H67 0.949 . S
H44 C48 0.949 . S
C45 C46 1.349 1_565 S
C45 C47 1.327 . S
C45 H68 0.950 . S
C46 C45 1.349 1_545 S
C46 C58 1.349 1_455 S
C47 C45 1.327 . S
C47 C63 1.429 1_565 S
C47 H69 0.950 . S
C48 H44 0.949 . S
C48 C56 1.574 . S
C48 C64 1.368 1_655 S
H49 C57 0.950 . S
H50 C55 0.950 . S
H51 C56 0.949 . S
H52 C58 0.950 . S
H53 C59 0.950 . S
H54 C60 0.949 . S
C55 H50 0.950 . S
C55 C57 1.327 . S
C55 C61 1.429 1_565 S
C56 C48 1.574 . S
C56 H51 0.949 . S
C56 C62 1.368 1_655 S
C57 C41 1.349 1_565 S
C57 H49 0.950 . S
C57 C55 1.327 . S
C58 C46 1.349 1_655 S
C58 H52 0.950 . S
C58 C59 1.327 . S
C59 H53 0.950 . S
C59 C58 1.327 . S
C59 C63 1.429 1_655 S
C60 C43 1.574 . S
C60 H54 0.949 . S
C60 C64 1.368 1_565 S
C61 C42 1.429 1_455 S
C61 C55 1.429 1_545 S
C61 C62 1.523 . S
C62 C43 1.368 1_545 S
C62 C56 1.368 1_455 S
C62 C61 1.523 . S
C63 C47 1.429 1_545 S
C63 C59 1.429 1_455 S
C63 C64 1.523 . S
C64 C48 1.368 1_455 S
C64 C60 1.368 1_545 S
C64 C63 1.523 . S
H65 C40 0.950 . S
H66 C42 0.950 . S
H67 C43 0.949 . S
H68 C45 0.950 . S
H69 C47 0.950 . S
C70 C71 1.349 1_556 S
C70 C72 1.327 . S
C70 H95 0.950 . S
C71 C70 1.349 1_554 S
C71 C87 1.349 1_545 S
C72 C70 1.327 . S
C72 C91 1.429 1_556 S
C72 H96 0.950 . S
C73 C90 1.574 . S
C73 C92 1.368 1_565 S
C73 H97 0.949 . S
H74 C78 0.949 . S
C75 C76 1.349 1_565 S
C75 C77 1.327 . S
C75 H98 0.950 . S
C76 C75 1.349 1_545 S
C76 C88 1.349 1_554 S
C77 C75 1.327 . S
C77 C93 1.429 1_565 S
C77 H99 0.950 . S
C78 H74 0.949 . S
C78 C86 1.574 . S
C78 C94 1.368 1_556 S
H79 C87 0.950 . S
H80 C85 0.950 . S
H81 C86 0.949 . S
H82 C88 0.950 . S
H83 C89 0.950 . S
H84 C90 0.949 . S
C85 H80 0.950 . S
C85 C87 1.327 . S
C85 C91 1.429 1_565 S
C86 C78 1.574 . S
C86 H81 0.949 . S
C86 C92 1.368 1_556 S
C87 C71 1.349 1_565 S
C87 H79 0.950 . S
C87 C85 1.327 . S
C88 C76 1.349 1_556 S
C88 H82 0.950 . S
C88 C89 1.327 . S
C89 H83 0.950 . S
C89 C88 1.327 . S
C89 C93 1.429 1_556 S
C90 C73 1.574 . S
C90 H84 0.949 . S
C90 C94 1.368 1_565 S
C91 C72 1.429 1_554 S
C91 C85 1.429 1_545 S
C91 C92 1.523 . S
C92 C73 1.368 1_545 S
C92 C86 1.368 1_554 S
C92 C91 1.523 . S
C93 C77 1.429 1_545 S
C93 C89 1.429 1_554 S
C93 C94 1.523 . S
C94 C78 1.368 1_554 S
C94 C90 1.368 1_545 S
C94 C93 1.523 . S
H95 C70 0.950 . S
H96 C72 0.950 . S
H97 C73 0.949 . S
H98 C75 0.950 . S
H99 C77 0.950 . S
C100 C101 1.349 1_556 S
C100 C102 1.327 . S
C100 H125 0.950 . S
C101 C100 1.349 1_554 S
C101 C117 1.349 1_455 S
C102 C100 1.327 . S
C102 C121 1.429 1_556 S
C102 H126 0.950 . S
C103 C120 1.574 . S
C103 C122 1.368 1_655 S
C103 H127 0.949 . S
H104 C108 0.949 . S
C105 C106 1.349 1_655 S
C105 C107 1.327 . S
C105 H128 0.950 . S
C106 C105 1.349 1_455 S
C106 C118 1.349 1_554 S
C107 C105 1.327 . S
C107 C123 1.429 1_655 S
C107 H129 0.950 . S
C108 H104 0.949 . S
C108 C116 1.574 . S
C108 C124 1.368 1_556 S
H109 C117 0.950 . S
H110 C115 0.950 . S
H111 C116 0.949 . S
H112 C118 0.950 . S
H113 C119 0.950 . S
H114 C120 0.949 . S
C115 H110 0.950 . S
C115 C117 1.327 . S
C115 C121 1.429 1_655 S
C116 C108 1.574 . S
C116 H111 0.949 . S
C116 C122 1.368 1_556 S
C117 C101 1.349 1_655 S
C117 H109 0.950 . S
C117 C115 1.327 . S
C118 C106 1.349 1_556 S
C118 H112 0.950 . S
C118 C119 1.327 . S
C119 H113 0.950 . S
C119 C118 1.327 . S
C119 C123 1.429 1_556 S
C120 C103 1.574 . S
C120 H114 0.949 . S
C120 C124 1.368 1_655 S
C121 C102 1.429 1_554 S
C121 C115 1.429 1_455 S
C121 C122 1.523 . S
C122 C103 1.368 1_455 S
C122 C116 1.368 1_554 S
C122 C121 1.523 . S
C123 C107 1.429 1_455 S
C123 C119 1.429 1_554 S
C123 C124 1.523 . S
C124 C108 1.368 1_554 S
C124 C120 1.368 1_455 S
C124 C123 1.523 . S
H125 C100 0.950 . S
H126 C102 0.950 . S
H127 C103 0.949 . S
H128 C105 0.950 . S
H129 C107 0.950 . S
C41 C19 1.461 . S
C46 C10 1.461 1_445 S
C71 C16 1.499 . S
C76 C7 1.497 1_544 S
C101 C11 1.491 1_455 S
C106 C2 1.491 1_554 S
