# Generated by pormake.
# Topology lon, (4)-cn, num edge types: 1
# Building blocks:
#     Node 0, Type 0, BuildingBlock: QUQFOY_clean_sbu_3, # of connection points: 4
#     Node 1, Type 0, BuildingBlock: QUQFOY_clean_sbu_3, # of connection points: 4
#     Node 2, Type 0, BuildingBlock: QUQFOY_clean_sbu_3, # of connection points: 4
#     Node 3, Type 0, BuildingBlock: QUQFOY_clean_sbu_3, # of connection points: 4
#     Edge 4, Type (0, 0), BuildingBlock: OJICUG_clean_linker_0, # of connection points: 2
#     Edge 5, Type (0, 0), BuildingBlock: OJICUG_clean_linker_0, # of connection points: 2
#     Edge 6, Type (0, 0), BuildingBlock: OJICUG_clean_linker_0, # of connection points: 2
#     Edge 7, Type (0, 0), BuildingBlock: OJICUG_clean_linker_0, # of connection points: 2
#     Edge 8, Type (0, 0), BuildingBlock: OJICUG_clean_linker_0, # of connection points: 2
#     Edge 9, Type (0, 0), BuildingBlock: OJICUG_clean_linker_0, # of connection points: 2
#     Edge 10, Type (0, 0), BuildingBlock: OJICUG_clean_linker_0, # of connection points: 2
#     Edge 11, Type (0, 0), BuildingBlock: OJICUG_clean_linker_0, # of connection points: 2
# Relax obj value: 0.137
# Max RMSD: 0.174
# Mean RMSD: 0.169
data_MOF--net-lon--node1-QUQFOY_clean_sbu_3--edge1-OJICUG_clean_linker_0
_symmetry_space_group_name_H-M    P1
_symmetry_Int_Tables_number       1
_symmetry_cell_setting            triclinic
loop_
_symmetry_equiv_pos_as_xyz
'x, y, z'
_cell_length_a     18.078028
_cell_length_b     19.57552
_cell_length_c     31.074002
_cell_angle_alpha  88.543935
_cell_angle_beta   89.752172
_cell_angle_gamma 117.66778
loop_
_atom_site_label
_atom_site_type_symbol
_atom_site_fract_x
_atom_site_fract_y
_atom_site_fract_z
_atom_type_partial_charge
C0 C 0.09541 0.58583 0.03439 0.0
O1 O 0.11028 0.65575 0.03692 0.0
Cd2 Cd 0.24225 0.7613 0.05278 0.0
O3 O 0.15303 0.56605 0.03908 0.0
Cd4 Cd 0.30667 0.6262 0.05006 0.0
C5 C 0.28908 0.69405 0.1475 0.0
O6 O 0.32688 0.73308 0.00528 0.0
O7 O 0.44155 0.74106 0.02922 0.0
O8 O 0.29563 0.52294 0.00485 0.0
C9 C 0.40528 0.77143 0.00705 0.0
O10 O 0.26889 0.74106 0.12821 0.0
C11 C 0.34873 0.51002 0.0253 0.0
O12 O 0.30312 0.64598 0.12665 0.0
O13 O 0.38163 0.55071 0.05778 0.0
C14 C 0.5868 0.42188 0.50071 0.0
O15 O 0.59398 0.39079 0.46666 0.0
Cd16 Cd 0.63348 0.29143 0.46318 0.0
O17 O 0.60121 0.40061 0.53747 0.0
Cd18 Cd 0.64572 0.30549 0.56446 0.0
C19 C 0.82558 0.38934 0.50647 0.0
O20 O 0.55443 0.20338 0.52028 0.0
O21 O 0.65141 0.18448 0.54965 0.0
O22 O 0.55728 0.27409 0.62888 0.0
C23 C 0.58451 0.15791 0.52846 0.0
O24 O 0.78393 0.35709 0.47341 0.0
C25 C 0.61602 0.28869 0.65512 0.0
O26 O 0.78922 0.38308 0.54254 0.0
O27 O 0.68892 0.31277 0.63914 0.0
C28 C 0.17649 0.6009 0.49091 0.0
O29 O 0.21495 0.63533 0.52416 0.0
Cd30 Cd 0.35526 0.73494 0.52396 0.0
O31 O 0.2123 0.61846 0.45393 0.0
Cd32 Cd 0.35002 0.70905 0.4226 0.0
C33 C 0.44853 0.63311 0.48501 0.0
O34 O 0.36201 0.8152 0.46288 0.0
O35 O 0.476 0.83456 0.43038 0.0
O36 O 0.28771 0.72667 0.35632 0.0
C37 C 0.43651 0.86142 0.45218 0.0
O38 O 0.43895 0.66707 0.51731 0.0
C39 C 0.32838 0.70457 0.33185 0.0
O40 O 0.41855 0.63717 0.4487 0.0
O41 O 0.37899 0.68499 0.3497 0.0
C42 C 0.44813 0.28899 0.96425 0.0
O43 O 0.39376 0.22624 0.94883 0.0
Cd44 Cd 0.41909 0.12542 0.92192 0.0
O45 O 0.52519 0.30548 0.965 0.0
Cd46 Cd 0.61996 0.25312 0.94249 0.0
C47 C 0.55259 0.2247 0.83768 0.0
O48 O 0.52376 0.13064 0.96954 0.0
O49 O 0.63743 0.13395 0.94544 0.0
O50 O 0.72023 0.3101 0.00012 0.0
C51 C 0.5649 0.09474 0.96197 0.0
O52 O 0.48072 0.17333 0.85062 0.0
C53 C 0.77663 0.35971 0.97533 0.0
O54 O 0.61046 0.26072 0.86421 0.0
O55 O 0.76039 0.35891 0.9356 0.0
C56 C 0.33987 0.65959 0.21524 0.0
C57 C 0.29793 0.69611 0.19477 0.0
H58 H 0.383 0.63431 0.27454 0.0
C59 C 0.26551 0.73514 0.21984 0.0
H60 H 0.36587 0.62929 0.19683 0.0
C61 C 0.27465 0.73734 0.2645 0.0
C62 C 0.3174 0.70149 0.28481 0.0
H63 H 0.23267 0.76365 0.20501 0.0
H64 H 0.24898 0.76775 0.28303 0.0
C65 C 0.34997 0.66269 0.25975 0.0
C66 C 0.66637 0.30154 0.73076 0.0
C67 C 0.59981 0.27528 0.70193 0.0
H68 H 0.70367 0.30659 0.79635 0.0
C69 C 0.51764 0.23357 0.71809 0.0
H70 H 0.73038 0.33389 0.7192 0.0
C71 C 0.50236 0.21715 0.76218 0.0
C72 C 0.5689 0.24291 0.79106 0.0
H73 H 0.46509 0.2124 0.69662 0.0
H74 H 0.43831 0.1843 0.7736 0.0
C75 C 0.65104 0.28593 0.77494 0.0
C76 C 0.44765 0.4539 0.02478 0.0
C77 C 0.37269 0.45175 0.01111 0.0
H78 H 0.53093 0.40446 0.02016 0.0
C79 C 0.32193 0.39485 0.9827 0.0
H80 H 0.48806 0.4974 0.04658 0.0
C81 C 0.34584 0.34111 0.96805 0.0
C82 C 0.42169 0.34421 0.98095 0.0
H83 H 0.2637 0.39182 0.97175 0.0
H84 H 0.30563 0.29807 0.94598 0.0
C85 C 0.47234 0.401 0.00951 0.0
C86 C 0.04789 0.52365 0.53557 0.0
C87 C 0.08825 0.54203 0.49506 0.0
H88 H 0.93352 0.46065 0.57096 0.0
C89 C 0.04266 0.50588 0.45854 0.0
H90 H 0.08133 0.55008 0.5644 0.0
C91 C 0.95762 0.45432 0.46232 0.0
C92 C 0.91671 0.43814 0.50268 0.0
H93 H 0.07212 0.51857 0.42688 0.0
H94 H 0.92365 0.42873 0.43348 0.0
C95 C 0.96304 0.47229 0.53934 0.0
C96 C 0.43933 0.96786 0.96931 0.0
C97 C 0.52662 0.01084 0.96948 0.0
H98 H 0.33303 0.85841 0.98013 0.0
C99 C 0.57504 0.97361 0.97914 0.0
H100 H 0.40058 -0.00492 0.96159 0.0
C101 C 0.53601 0.89484 0.99061 0.0
C102 C 0.44837 0.8525 0.9916 0.0
H103 H 0.64256 0.00587 0.97946 0.0
H104 H 0.57414 0.86748 -0.00061 0.0
C105 C 0.40066 0.88943 0.97982 0.0
C106 C 0.54242 0.51271 0.53419 0.0
C107 C 0.55828 0.48119 0.49726 0.0
H108 H 0.49543 0.58623 0.55935 0.0
C109 C 0.54341 0.50453 0.45651 0.0
H110 H 0.55364 0.49609 0.56603 0.0
C111 C 0.51027 0.55576 0.45273 0.0
C112 C 0.49132 0.58509 0.48958 0.0
H113 H 0.55566 0.482 0.42736 0.0
H114 H 0.49798 0.57114 0.42079 0.0
C115 C 0.50928 0.56441 0.53037 0.0
C116 C -0.02464 0.45253 0.03877 0.0
C117 C 0.01207 0.52817 0.02131 0.0
H118 H 0.8696 0.33966 0.03856 0.0
C119 C -0.02977 0.54811 0.98938 0.0
H120 H 0.00681 0.43605 0.06338 0.0
C121 C 0.89388 0.4928 0.97427 0.0
C122 C 0.8568 0.41736 0.99185 0.0
H123 H -0.00221 0.60596 0.97518 0.0
H124 H 0.86345 0.50916 0.94904 0.0
C125 C 0.89727 0.39774 0.02469 0.0
C126 C 0.46353 0.04594 0.49898 0.0
C127 C 0.54843 0.08191 0.50922 0.0
H128 H 0.36185 0.94744 0.4729 0.0
C129 C 0.5978 0.04606 0.49944 0.0
H130 H 0.4243 0.07262 0.50621 0.0
C131 C 0.56235 -0.02496 0.47931 0.0
C132 C 0.47695 0.93867 0.46987 0.0
H133 H 0.66368 0.07332 0.50677 0.0
H134 H 0.60102 0.9478 0.47214 0.0
C135 C 0.42791 -0.02543 0.4799 0.0
loop_
_geom_bond_atom_site_label_1
_geom_bond_atom_site_label_2
_geom_bond_distance
_geom_bond_site_symmetry_2
_ccdc_geom_bond_type
C0 O1 1.306 . S
C0 O3 1.160 . S
O1 C0 1.306 . S
O1 Cd2 2.228 . S
Cd2 O1 2.228 . S
Cd2 O6 2.273 . S
Cd2 O10 2.277 . S
O3 C0 1.160 . S
O3 Cd4 2.203 . S
Cd4 O3 2.203 . S
Cd4 O6 2.411 . S
Cd4 O7 2.333 . S
Cd4 O8 2.352 1_554 S
Cd4 O12 2.277 . S
Cd4 O13 2.356 . S
C5 O10 1.209 . S
C5 O12 1.226 . S
O6 Cd2 2.273 . S
O6 Cd4 2.411 . S
O6 C9 1.320 . S
O7 Cd4 2.333 . S
O7 C9 1.214 . S
O8 Cd4 2.352 1_556 S
O8 C11 1.258 1_556 S
C9 O6 1.320 . S
C9 O7 1.214 . S
O10 Cd2 2.277 . S
O10 C5 1.209 . S
C11 O8 1.258 1_554 S
C11 O13 1.282 . S
O12 Cd4 2.277 . S
O12 C5 1.226 . S
O13 Cd4 2.356 . S
O13 C11 1.282 . S
C14 O15 1.306 . S
C14 O17 1.160 . S
O15 C14 1.306 . S
O15 Cd16 2.228 . S
Cd16 O15 2.228 . S
Cd16 O20 2.273 . S
Cd16 O24 2.277 . S
O17 C14 1.160 . S
O17 Cd18 2.203 . S
Cd18 O17 2.203 . S
Cd18 O20 2.411 . S
Cd18 O21 2.333 . S
Cd18 O22 2.352 . S
Cd18 O26 2.277 . S
Cd18 O27 2.356 . S
C19 O24 1.209 . S
C19 O26 1.226 . S
O20 Cd16 2.273 . S
O20 Cd18 2.411 . S
O20 C23 1.320 . S
O21 Cd18 2.333 . S
O21 C23 1.214 . S
O22 Cd18 2.352 . S
O22 C25 1.258 . S
C23 O20 1.320 . S
C23 O21 1.214 . S
O24 Cd16 2.277 . S
O24 C19 1.209 . S
C25 O22 1.258 . S
C25 O27 1.282 . S
O26 Cd18 2.277 . S
O26 C19 1.226 . S
O27 Cd18 2.356 . S
O27 C25 1.282 . S
C28 O29 1.306 . S
C28 O31 1.160 . S
O29 C28 1.306 . S
O29 Cd30 2.228 . S
Cd30 O29 2.228 . S
Cd30 O34 2.273 . S
Cd30 O38 2.277 . S
O31 C28 1.160 . S
O31 Cd32 2.203 . S
Cd32 O31 2.203 . S
Cd32 O34 2.411 . S
Cd32 O35 2.333 . S
Cd32 O36 2.352 . S
Cd32 O40 2.277 . S
Cd32 O41 2.356 . S
C33 O38 1.209 . S
C33 O40 1.226 . S
O34 Cd30 2.273 . S
O34 Cd32 2.411 . S
O34 C37 1.320 . S
O35 Cd32 2.333 . S
O35 C37 1.214 . S
O36 Cd32 2.352 . S
O36 C39 1.258 . S
C37 O34 1.320 . S
C37 O35 1.214 . S
O38 Cd30 2.277 . S
O38 C33 1.209 . S
C39 O36 1.258 . S
C39 O41 1.282 . S
O40 Cd32 2.277 . S
O40 C33 1.226 . S
O41 Cd32 2.356 . S
O41 C39 1.282 . S
C42 O43 1.306 . S
C42 O45 1.160 . S
O43 C42 1.306 . S
O43 Cd44 2.228 . S
Cd44 O43 2.228 . S
Cd44 O48 2.273 . S
Cd44 O52 2.277 . S
O45 C42 1.160 . S
O45 Cd46 2.203 . S
Cd46 O45 2.203 . S
Cd46 O48 2.411 . S
Cd46 O49 2.333 . S
Cd46 O50 2.352 1_556 S
Cd46 O54 2.277 . S
Cd46 O55 2.356 . S
C47 O52 1.209 . S
C47 O54 1.226 . S
O48 Cd44 2.273 . S
O48 Cd46 2.411 . S
O48 C51 1.320 . S
O49 Cd46 2.333 . S
O49 C51 1.214 . S
O50 Cd46 2.352 1_554 S
O50 C53 1.258 1_554 S
C51 O48 1.320 . S
C51 O49 1.214 . S
O52 Cd44 2.277 . S
O52 C47 1.209 . S
C53 O50 1.258 1_556 S
C53 O55 1.282 . S
O54 Cd46 2.277 . S
O54 C47 1.226 . S
O55 Cd46 2.356 . S
O55 C53 1.282 . S
C56 C57 1.387 . S
C56 H60 0.950 . S
C56 C65 1.390 . S
C57 C56 1.387 . S
C57 C59 1.387 . S
H58 C65 0.950 . S
C59 C57 1.387 . S
C59 C61 1.390 . S
C59 H63 0.950 . S
H60 C56 0.950 . S
C61 C59 1.390 . S
C61 C62 1.387 . S
C61 H64 0.950 . S
C62 C61 1.387 . S
C62 C65 1.387 . S
H63 C59 0.950 . S
H64 C61 0.950 . S
C65 C56 1.390 . S
C65 H58 0.950 . S
C65 C62 1.387 . S
C66 C67 1.387 . S
C66 H70 0.950 . S
C66 C75 1.390 . S
C67 C66 1.387 . S
C67 C69 1.387 . S
H68 C75 0.950 . S
C69 C67 1.387 . S
C69 C71 1.390 . S
C69 H73 0.950 . S
H70 C66 0.950 . S
C71 C69 1.390 . S
C71 C72 1.387 . S
C71 H74 0.950 . S
C72 C71 1.387 . S
C72 C75 1.387 . S
H73 C69 0.950 . S
H74 C71 0.950 . S
C75 C66 1.390 . S
C75 H68 0.950 . S
C75 C72 1.387 . S
C76 C77 1.387 1_554 S
C76 H80 0.950 . S
C76 C85 1.390 . S
C77 C76 1.387 1_556 S
C77 C79 1.387 . S
H78 C85 0.950 . S
C79 C77 1.387 . S
C79 C81 1.390 . S
C79 H83 0.950 . S
H80 C76 0.950 . S
C81 C79 1.390 . S
C81 C82 1.387 . S
C81 H84 0.950 . S
C82 C81 1.387 . S
C82 C85 1.387 1_556 S
H83 C79 0.950 . S
H84 C81 0.950 . S
C85 C76 1.390 . S
C85 H78 0.950 . S
C85 C82 1.387 1_554 S
C86 C87 1.387 . S
C86 H90 0.950 . S
C86 C95 1.390 1_455 S
C87 C86 1.387 . S
C87 C89 1.390 . S
H88 C95 0.950 . S
C89 C87 1.390 . S
C89 C91 1.387 1_455 S
C89 H93 0.950 . S
H90 C86 0.950 . S
C91 C89 1.387 1_655 S
C91 C92 1.387 . S
C91 H94 0.950 . S
C92 C91 1.387 . S
C92 C95 1.387 . S
H93 C89 0.950 . S
H94 C91 0.950 . S
C95 C86 1.390 1_655 S
C95 H88 0.950 . S
C95 C92 1.387 . S
C96 C97 1.387 . S
C96 H100 0.950 . S
C96 C105 1.390 1_546 S
C97 C96 1.387 . S
C97 C99 1.387 . S
H98 C105 0.950 . S
C99 C97 1.387 . S
C99 C101 1.390 1_546 S
C99 H103 0.950 . S
H100 C96 0.950 . S
C101 C99 1.390 1_564 S
C101 C102 1.387 . S
C101 H104 0.950 . S
C102 C101 1.387 . S
C102 C105 1.387 . S
H103 C99 0.950 . S
H104 C101 0.950 . S
C105 C96 1.390 1_564 S
C105 H98 0.950 . S
C105 C102 1.387 . S
C106 C107 1.387 . S
C106 H110 0.950 . S
C106 C115 1.390 . S
C107 C106 1.387 . S
C107 C109 1.387 . S
H108 C115 0.950 . S
C109 C107 1.387 . S
C109 C111 1.390 . S
C109 H113 0.950 . S
H110 C106 0.950 . S
C111 C109 1.390 . S
C111 C112 1.387 . S
C111 H114 0.950 . S
C112 C111 1.387 . S
C112 C115 1.387 . S
H113 C109 0.950 . S
H114 C111 0.950 . S
C115 C106 1.390 . S
C115 H108 0.950 . S
C115 C112 1.387 . S
C116 C117 1.387 . S
C116 H120 0.950 . S
C116 C125 1.390 1_455 S
C117 C116 1.387 . S
C117 C119 1.387 1_554 S
H118 C125 0.950 . S
C119 C117 1.387 1_556 S
C119 C121 1.390 1_455 S
C119 H123 0.950 . S
H120 C116 0.950 . S
C121 C119 1.390 1_655 S
C121 C122 1.387 1_556 S
C121 H124 0.950 . S
C122 C121 1.387 1_554 S
C122 C125 1.387 . S
H123 C119 0.950 . S
H124 C121 0.950 . S
C125 C116 1.390 1_655 S
C125 H118 0.950 . S
C125 C122 1.387 . S
C126 C127 1.387 . S
C126 H130 0.950 . S
C126 C135 1.390 1_545 S
C127 C126 1.387 . S
C127 C129 1.387 . S
H128 C135 0.950 . S
C129 C127 1.387 . S
C129 C131 1.390 1_545 S
C129 H133 0.950 . S
H130 C126 0.950 . S
C131 C129 1.390 1_565 S
C131 C132 1.387 . S
C131 H134 0.950 . S
C132 C131 1.387 . S
C132 C135 1.387 . S
H133 C129 0.950 . S
H134 C131 0.950 . S
C135 C126 1.390 1_565 S
C135 H128 0.950 . S
C135 C132 1.387 . S
C57 C5 1.577 . S
C62 C39 1.561 . S
C67 C25 1.561 . S
C72 C47 1.577 . S
C77 C11 1.451 1_556 S
C82 C42 1.467 . S
C87 C28 1.637 . S
C92 C19 1.634 . S
C97 C51 1.527 . S
C102 C9 1.527 . S
C107 C14 1.637 . S
C112 C33 1.634 . S
C117 C0 1.467 . S
C122 C53 1.451 1_554 S
C127 C23 1.590 . S
C132 C37 1.590 . S
