# Generated by pormake.
# Topology irl, (4)-cn, num edge types: 1
# Building blocks:
#     Node 0, Type 0, BuildingBlock: TATPOV_clean_sbu_0, # of connection points: 4
#     Node 1, Type 0, BuildingBlock: TATPOV_clean_sbu_0, # of connection points: 4
#     Node 2, Type 0, BuildingBlock: TATPOV_clean_sbu_0, # of connection points: 4
#     Node 3, Type 0, BuildingBlock: TATPOV_clean_sbu_0, # of connection points: 4
#     Node 4, Type 0, BuildingBlock: TATPOV_clean_sbu_0, # of connection points: 4
#     Node 5, Type 0, BuildingBlock: TATPOV_clean_sbu_0, # of connection points: 4
#     Node 6, Type 0, BuildingBlock: TATPOV_clean_sbu_0, # of connection points: 4
#     Node 7, Type 0, BuildingBlock: TATPOV_clean_sbu_0, # of connection points: 4
#     Edge 8, Type (0, 0), None
#     Edge 9, Type (0, 0), None
#     Edge 10, Type (0, 0), None
#     Edge 11, Type (0, 0), None
#     Edge 12, Type (0, 0), None
#     Edge 13, Type (0, 0), None
#     Edge 14, Type (0, 0), None
#     Edge 15, Type (0, 0), None
#     Edge 16, Type (0, 0), None
#     Edge 17, Type (0, 0), None
#     Edge 18, Type (0, 0), None
#     Edge 19, Type (0, 0), None
#     Edge 20, Type (0, 0), None
#     Edge 21, Type (0, 0), None
#     Edge 22, Type (0, 0), None
#     Edge 23, Type (0, 0), None
# Relax obj value: 0.134
# Max RMSD: 0.166
# Mean RMSD: 0.166
data_MOF--net-irl--node1-TATPOV_clean_sbu_0--edge1-none
_symmetry_space_group_name_H-M    P1
_symmetry_Int_Tables_number       1
_symmetry_cell_setting            triclinic
loop_
_symmetry_equiv_pos_as_xyz
'x, y, z'
_cell_length_a     19.827724
_cell_length_b     12.464425
_cell_length_c     12.539806
_cell_angle_alpha  89.999999
_cell_angle_beta   90.000002
_cell_angle_gamma 89.999122
loop_
_atom_site_label
_atom_site_type_symbol
_atom_site_fract_x
_atom_site_fract_y
_atom_site_fract_z
_atom_type_partial_charge
Zn0 Zn 0.92907 0.2825 0.00433 0.0
Zn1 Zn 0.06511 0.27348 0.0047 0.0
O2 O 0.03932 0.3428 0.86211 0.0
O3 O 0.9289 0.35826 0.86088 0.0
O4 O 0.16669 0.27203 0.00396 0.0
O5 O 0.92958 0.35591 0.149 0.0
O6 O 0.04006 0.33906 0.14935 0.0
C7 C 0.98514 0.3685 0.81404 0.0
C8 C -0.01374 0.06581 0.00269 0.0
O9 O 0.04254 0.1147 0.00312 0.0
O10 O 0.93126 0.11787 0.00306 0.0
C11 C 0.19879 0.25906 0.9172 0.0
O12 O 0.16564 0.24953 0.82709 0.0
C13 C 0.98559 0.36466 0.19687 0.0
Zn14 Zn 0.04225 0.7315 0.00433 0.0
Zn15 Zn 0.9062 0.74052 0.0047 0.0
O16 O 0.93199 0.6712 0.86211 0.0
O17 O 0.04241 0.65575 0.86088 0.0
O18 O 0.80463 0.74198 0.00396 0.0
O19 O 0.04173 0.65809 0.149 0.0
O20 O 0.93125 0.67494 0.14935 0.0
C21 C -0.01383 0.6455 0.81404 0.0
C22 C 0.98506 0.94819 0.00269 0.0
O23 O 0.92878 0.89931 0.00312 0.0
O24 O 0.04006 0.89613 0.00306 0.0
C25 C 0.77253 0.75494 0.9172 0.0
O26 O 0.80568 0.76447 0.82709 0.0
C27 C -0.01427 0.64934 0.19687 0.0
Zn28 Zn 0.92901 0.73152 0.50658 0.0
Zn29 Zn 0.06511 0.7405 0.50621 0.0
O30 O 0.03933 0.67115 0.64879 0.0
O31 O 0.92888 0.65576 0.65004 0.0
O32 O 0.16669 0.74197 0.50695 0.0
O33 O 0.92956 0.6581 0.36191 0.0
O34 O 0.04007 0.6749 0.36157 0.0
C35 C 0.98514 0.64546 0.69682 0.0
C36 C -0.01375 0.94819 0.50823 0.0
O37 O 0.04252 0.89929 0.50779 0.0
O38 O 0.93124 0.89615 0.50785 0.0
C39 C 0.19879 0.75493 0.59371 0.0
O40 O 0.16564 0.76446 0.68383 0.0
C41 C 0.98558 0.6493 0.31409 0.0
Zn42 Zn 0.0423 0.28248 0.50658 0.0
Zn43 Zn 0.9062 0.27351 0.50621 0.0
O44 O 0.93199 0.34285 0.64879 0.0
O45 O 0.04243 0.35824 0.65004 0.0
O46 O 0.80463 0.27204 0.50695 0.0
O47 O 0.04175 0.3559 0.36191 0.0
O48 O 0.93125 0.3391 0.36157 0.0
C49 C -0.01382 0.36854 0.69682 0.0
C50 C 0.98506 0.06582 0.50823 0.0
O51 O 0.92879 0.11472 0.50779 0.0
O52 O 0.04007 0.11785 0.50785 0.0
C53 C 0.77253 0.25907 0.59371 0.0
O54 O 0.80568 0.24955 0.68382 0.0
C55 C -0.01427 0.3647 0.31409 0.0
Zn56 Zn 0.42907 0.7825 0.00433 0.0
Zn57 Zn 0.56511 0.77348 0.0047 0.0
O58 O 0.53932 0.8428 0.86211 0.0
O59 O 0.4289 0.85826 0.86088 0.0
O60 O 0.66669 0.77203 0.00396 0.0
O61 O 0.42958 0.85591 0.149 0.0
O62 O 0.54006 0.83906 0.14935 0.0
C63 C 0.48514 0.8685 0.81404 0.0
C64 C 0.48626 0.56581 0.00269 0.0
O65 O 0.54253 0.6147 0.00312 0.0
O66 O 0.43126 0.61787 0.00306 0.0
C67 C 0.69879 0.75907 0.9172 0.0
O68 O 0.66564 0.74954 0.82709 0.0
C69 C 0.48559 0.86466 0.19687 0.0
Zn70 Zn 0.54225 0.2315 0.00433 0.0
Zn71 Zn 0.4062 0.24052 0.0047 0.0
O72 O 0.43199 0.1712 0.86211 0.0
O73 O 0.54242 0.15575 0.86088 0.0
O74 O 0.30463 0.24197 0.00396 0.0
O75 O 0.54174 0.15809 0.149 0.0
O76 O 0.43125 0.17494 0.14935 0.0
C77 C 0.48618 0.1455 0.81404 0.0
C78 C 0.48506 0.44819 0.00269 0.0
O79 O 0.42878 0.39931 0.00312 0.0
O80 O 0.54006 0.39613 0.00306 0.0
C81 C 0.27253 0.25494 0.9172 0.0
O82 O 0.30568 0.26446 0.82709 0.0
C83 C 0.48573 0.14934 0.19687 0.0
Zn84 Zn 0.42901 0.23152 0.50658 0.0
Zn85 Zn 0.56511 0.2405 0.50621 0.0
O86 O 0.53933 0.17115 0.64879 0.0
O87 O 0.42888 0.15576 0.65004 0.0
O88 O 0.66669 0.24197 0.50695 0.0
O89 O 0.42956 0.1581 0.36191 0.0
O90 O 0.54007 0.1749 0.36157 0.0
C91 C 0.48514 0.14546 0.69682 0.0
C92 C 0.48625 0.44819 0.50823 0.0
O93 O 0.54252 0.39929 0.50779 0.0
O94 O 0.43124 0.39615 0.50785 0.0
C95 C 0.69879 0.25493 0.59371 0.0
O96 O 0.66564 0.26445 0.68383 0.0
C97 C 0.48558 0.1493 0.31409 0.0
Zn98 Zn 0.5423 0.78248 0.50658 0.0
Zn99 Zn 0.4062 0.77351 0.50621 0.0
O100 O 0.43199 0.84285 0.64879 0.0
O101 O 0.54243 0.85825 0.65004 0.0
O102 O 0.30463 0.77204 0.50695 0.0
O103 O 0.54175 0.8559 0.36191 0.0
O104 O 0.43125 0.8391 0.36157 0.0
C105 C 0.48618 0.86854 0.69682 0.0
C106 C 0.48506 0.56582 0.50823 0.0
O107 O 0.42879 0.61472 0.50779 0.0
O108 O 0.54007 0.61785 0.50785 0.0
C109 C 0.27253 0.75907 0.59371 0.0
O110 O 0.30568 0.74955 0.68383 0.0
C111 C 0.48573 0.8647 0.31409 0.0
loop_
_geom_bond_atom_site_label_1
_geom_bond_atom_site_label_2
_geom_bond_distance
_geom_bond_site_symmetry_2
_ccdc_geom_bond_type
Zn0 O3 2.031 1_554 S
Zn0 O5 2.049 . S
Zn0 O10 2.067 . S
Zn1 O2 1.962 1_554 S
Zn1 O4 1.986 . S
Zn1 O6 1.996 . S
Zn1 O9 1.943 . S
O2 Zn1 1.962 1_556 S
O2 C7 1.254 1_455 S
O3 Zn0 2.031 1_556 S
O3 C7 1.269 . S
O4 Zn1 1.986 . S
O4 C11 1.262 . S
O5 Zn0 2.049 . S
O5 C13 1.260 . S
O6 Zn1 1.996 . S
O6 C13 1.257 1_455 S
C7 O2 1.254 1_655 S
C7 O3 1.269 . S
C8 O9 1.249 . S
C8 O10 1.270 1_455 S
O9 Zn1 1.943 . S
O9 C8 1.249 . S
O10 Zn0 2.067 . S
O10 C8 1.270 1_655 S
C11 O4 1.262 . S
C11 O12 1.232 1_554 S
O12 C11 1.232 1_556 S
C13 O5 1.260 . S
C13 O6 1.257 1_655 S
Zn14 O17 2.031 1_554 S
Zn14 O19 2.049 . S
Zn14 O24 2.067 . S
Zn15 O16 1.962 1_554 S
Zn15 O18 1.986 . S
Zn15 O20 1.996 . S
Zn15 O23 1.943 . S
O16 Zn15 1.962 1_556 S
O16 C21 1.254 1_655 S
O17 Zn14 2.031 1_556 S
O17 C21 1.269 . S
O18 Zn15 1.986 . S
O18 C25 1.262 . S
O19 Zn14 2.049 . S
O19 C27 1.260 . S
O20 Zn15 1.996 . S
O20 C27 1.257 1_655 S
C21 O16 1.254 1_455 S
C21 O17 1.269 . S
C22 O23 1.249 . S
C22 O24 1.270 1_655 S
O23 Zn15 1.943 . S
O23 C22 1.249 . S
O24 Zn14 2.067 . S
O24 C22 1.270 1_455 S
C25 O18 1.262 . S
C25 O26 1.232 1_554 S
O26 C25 1.232 1_556 S
C27 O19 1.260 . S
C27 O20 1.257 1_455 S
Zn28 O31 2.031 . S
Zn28 O33 2.049 . S
Zn28 O38 2.067 . S
Zn29 O30 1.962 . S
Zn29 O32 1.986 . S
Zn29 O34 1.996 . S
Zn29 O37 1.943 . S
O30 Zn29 1.962 . S
O30 C35 1.254 1_455 S
O31 Zn28 2.031 . S
O31 C35 1.269 . S
O32 Zn29 1.986 . S
O32 C39 1.262 . S
O33 Zn28 2.049 . S
O33 C41 1.260 . S
O34 Zn29 1.996 . S
O34 C41 1.257 1_455 S
C35 O30 1.254 1_655 S
C35 O31 1.269 . S
C36 O37 1.249 . S
C36 O38 1.270 1_455 S
O37 Zn29 1.943 . S
O37 C36 1.249 . S
O38 Zn28 2.067 . S
O38 C36 1.270 1_655 S
C39 O32 1.262 . S
C39 O40 1.232 . S
O40 C39 1.232 . S
C41 O33 1.260 . S
C41 O34 1.257 1_655 S
Zn42 O45 2.031 . S
Zn42 O47 2.049 . S
Zn42 O52 2.067 . S
Zn43 O44 1.962 . S
Zn43 O46 1.986 . S
Zn43 O48 1.996 . S
Zn43 O51 1.943 . S
O44 Zn43 1.962 . S
O44 C49 1.254 1_655 S
O45 Zn42 2.031 . S
O45 C49 1.269 . S
O46 Zn43 1.986 . S
O46 C53 1.262 . S
O47 Zn42 2.049 . S
O47 C55 1.260 . S
O48 Zn43 1.996 . S
O48 C55 1.257 1_655 S
C49 O44 1.254 1_455 S
C49 O45 1.269 . S
C50 O51 1.249 . S
C50 O52 1.270 1_655 S
O51 Zn43 1.943 . S
O51 C50 1.249 . S
O52 Zn42 2.067 . S
O52 C50 1.270 1_455 S
C53 O46 1.262 . S
C53 O54 1.232 . S
O54 C53 1.232 . S
C55 O47 1.260 . S
C55 O48 1.257 1_455 S
Zn56 O59 2.031 1_554 S
Zn56 O61 2.049 . S
Zn56 O66 2.067 . S
Zn57 O58 1.962 1_554 S
Zn57 O60 1.986 . S
Zn57 O62 1.996 . S
Zn57 O65 1.943 . S
O58 Zn57 1.962 1_556 S
O58 C63 1.254 . S
O59 Zn56 2.031 1_556 S
O59 C63 1.269 . S
O60 Zn57 1.986 . S
O60 C67 1.262 . S
O61 Zn56 2.049 . S
O61 C69 1.260 . S
O62 Zn57 1.996 . S
O62 C69 1.257 . S
C63 O58 1.254 . S
C63 O59 1.269 . S
C64 O65 1.249 . S
C64 O66 1.270 . S
O65 Zn57 1.943 . S
O65 C64 1.249 . S
O66 Zn56 2.067 . S
O66 C64 1.270 . S
C67 O60 1.262 . S
C67 O68 1.232 1_554 S
O68 C67 1.232 1_556 S
C69 O61 1.260 . S
C69 O62 1.257 . S
Zn70 O73 2.031 1_554 S
Zn70 O75 2.049 . S
Zn70 O80 2.067 . S
Zn71 O72 1.962 1_554 S
Zn71 O74 1.986 . S
Zn71 O76 1.996 . S
Zn71 O79 1.943 . S
O72 Zn71 1.962 1_556 S
O72 C77 1.254 . S
O73 Zn70 2.031 1_556 S
O73 C77 1.269 . S
O74 Zn71 1.986 . S
O74 C81 1.262 . S
O75 Zn70 2.049 . S
O75 C83 1.260 . S
O76 Zn71 1.996 . S
O76 C83 1.257 . S
C77 O72 1.254 . S
C77 O73 1.269 . S
C78 O79 1.249 . S
C78 O80 1.270 . S
O79 Zn71 1.943 . S
O79 C78 1.249 . S
O80 Zn70 2.067 . S
O80 C78 1.270 . S
C81 O74 1.262 . S
C81 O82 1.232 1_554 S
O82 C81 1.232 1_556 S
C83 O75 1.260 . S
C83 O76 1.257 . S
Zn84 O87 2.031 . S
Zn84 O89 2.049 . S
Zn84 O94 2.067 . S
Zn85 O86 1.962 . S
Zn85 O88 1.986 . S
Zn85 O90 1.996 . S
Zn85 O93 1.943 . S
O86 Zn85 1.962 . S
O86 C91 1.254 . S
O87 Zn84 2.031 . S
O87 C91 1.269 . S
O88 Zn85 1.986 . S
O88 C95 1.262 . S
O89 Zn84 2.049 . S
O89 C97 1.260 . S
O90 Zn85 1.996 . S
O90 C97 1.257 . S
C91 O86 1.254 . S
C91 O87 1.269 . S
C92 O93 1.249 . S
C92 O94 1.270 . S
O93 Zn85 1.943 . S
O93 C92 1.249 . S
O94 Zn84 2.067 . S
O94 C92 1.270 . S
C95 O88 1.262 . S
C95 O96 1.232 . S
O96 C95 1.232 . S
C97 O89 1.260 . S
C97 O90 1.257 . S
Zn98 O101 2.031 . S
Zn98 O103 2.049 . S
Zn98 O108 2.067 . S
Zn99 O100 1.962 . S
Zn99 O102 1.986 . S
Zn99 O104 1.996 . S
Zn99 O107 1.943 . S
O100 Zn99 1.962 . S
O100 C105 1.254 . S
O101 Zn98 2.031 . S
O101 C105 1.269 . S
O102 Zn99 1.986 . S
O102 C109 1.262 . S
O103 Zn98 2.049 . S
O103 C111 1.260 . S
O104 Zn99 1.996 . S
O104 C111 1.257 . S
C105 O100 1.254 . S
C105 O101 1.269 . S
C106 O107 1.249 . S
C106 O108 1.270 . S
O107 Zn99 1.943 . S
O107 C106 1.249 . S
O108 Zn98 2.067 . S
O108 C106 1.270 . S
C109 O102 1.262 . S
C109 O110 1.232 . S
O110 C109 1.232 . S
C111 O103 1.260 . S
C111 O104 1.257 . S
C22 C8 1.332 1_665 S
C36 C50 1.332 1_465 S
C64 C78 1.332 . S
C92 C106 1.332 . S
C13 C55 1.849 1_655 S
C41 C27 1.849 1_655 S
C35 C21 1.647 1_655 S
C7 C49 1.647 1_655 S
C69 C111 1.849 . S
C97 C83 1.849 . S
C77 C91 1.647 . S
C63 C105 1.647 . S
C81 C11 1.608 . S
C67 C25 1.608 . S
C39 C109 1.608 . S
C95 C53 1.608 . S
