# Generated by pormake.
# Topology uon, (4)-cn, num edge types: 1
# Building blocks:
#     Node 0, Type 0, BuildingBlock: NAWXER_clean_sbu_0, # of connection points: 4
#     Node 1, Type 0, BuildingBlock: NAWXER_clean_sbu_0, # of connection points: 4
#     Node 2, Type 0, BuildingBlock: NAWXER_clean_sbu_0, # of connection points: 4
#     Node 3, Type 0, BuildingBlock: NAWXER_clean_sbu_0, # of connection points: 4
#     Node 4, Type 0, BuildingBlock: NAWXER_clean_sbu_0, # of connection points: 4
#     Node 5, Type 0, BuildingBlock: NAWXER_clean_sbu_0, # of connection points: 4
#     Edge 6, Type (0, 0), BuildingBlock: OJICUG_clean_linker_0, # of connection points: 2
#     Edge 7, Type (0, 0), BuildingBlock: OJICUG_clean_linker_0, # of connection points: 2
#     Edge 8, Type (0, 0), BuildingBlock: OJICUG_clean_linker_0, # of connection points: 2
#     Edge 9, Type (0, 0), BuildingBlock: OJICUG_clean_linker_0, # of connection points: 2
#     Edge 10, Type (0, 0), BuildingBlock: OJICUG_clean_linker_0, # of connection points: 2
#     Edge 11, Type (0, 0), BuildingBlock: OJICUG_clean_linker_0, # of connection points: 2
#     Edge 12, Type (0, 0), BuildingBlock: OJICUG_clean_linker_0, # of connection points: 2
#     Edge 13, Type (0, 0), BuildingBlock: OJICUG_clean_linker_0, # of connection points: 2
#     Edge 14, Type (0, 0), BuildingBlock: OJICUG_clean_linker_0, # of connection points: 2
#     Edge 15, Type (0, 0), BuildingBlock: OJICUG_clean_linker_0, # of connection points: 2
#     Edge 16, Type (0, 0), BuildingBlock: OJICUG_clean_linker_0, # of connection points: 2
#     Edge 17, Type (0, 0), BuildingBlock: OJICUG_clean_linker_0, # of connection points: 2
# Relax obj value: 0.135
# Max RMSD: 0.134
# Mean RMSD: 0.134
data_MOF--net-uon--node1-NAWXER_clean_sbu_0--edge1-OJICUG_clean_linker_0
_symmetry_space_group_name_H-M    P1
_symmetry_Int_Tables_number       1
_symmetry_cell_setting            triclinic
loop_
_symmetry_equiv_pos_as_xyz
'x, y, z'
_cell_length_a     24.904366
_cell_length_b     24.313944
_cell_length_c     15.197379
_cell_angle_alpha  88.92891
_cell_angle_beta   90.992913
_cell_angle_gamma 120.18312
loop_
_atom_site_label
_atom_site_type_symbol
_atom_site_fract_x
_atom_site_fract_y
_atom_site_fract_z
_atom_type_partial_charge
C0 C 0.12857 0.35967 0.13142 0.0
C1 C 0.3046 0.5134 0.95682 0.0
O2 O 0.18016 0.38152 0.17378 0.0
Zn3 Zn 0.27735 0.44533 0.14912 0.0
O4 O 0.12896 0.37452 0.05072 0.0
Zn5 Zn 0.21694 0.4326 0.04124 0.0
O6 O 0.25585 0.37228 0.03997 0.0
O7 O 0.31595 0.39219 0.15678 0.0
O8 O 0.24816 0.48024 0.93269 0.0
O9 O 0.32086 0.5056 0.03471 0.0
O10 O 0.29341 0.50711 0.24042 0.0
O11 O 0.2301 0.5043 0.13461 0.0
C12 C 0.29297 0.36131 0.08631 0.0
C13 C 0.25879 0.52705 0.20771 0.0
C14 C 0.74602 0.08048 0.34818 0.0
C15 C 0.75455 0.28133 0.26435 0.0
O16 O 0.77961 0.12699 0.39936 0.0
Zn17 Zn 0.80815 0.22538 0.41355 0.0
O18 O 0.71835 0.08925 0.28291 0.0
Zn19 Zn 0.74869 0.1794 0.30376 0.0
O20 O 0.84585 0.22183 0.27808 0.0
O21 O 0.89728 0.26532 0.40076 0.0
O22 O 0.72604 0.22843 0.22462 0.0
O23 O 0.78567 0.2858 0.33468 0.0
O24 O 0.77337 0.22452 0.52729 0.0
O25 O 0.7023 0.17522 0.42416 0.0
C26 C 0.89751 0.25282 0.31992 0.0
C27 C 0.71647 0.19327 0.50427 0.0
C28 C 0.65906 0.85353 0.53313 0.0
C29 C 0.49076 0.70375 0.7265 0.0
O30 O 0.62311 0.79455 0.51797 0.0
Zn31 Zn 0.57593 0.77569 0.62641 0.0
O32 O 0.65464 0.87734 0.60534 0.0
Zn33 Zn 0.59706 0.85056 0.71926 0.0
O34 O 0.65444 0.8648 0.81645 0.0
O35 O 0.64178 0.78783 0.72777 0.0
O36 O 0.52177 0.7604 0.75608 0.0
O37 O 0.50424 0.69132 0.65186 0.0
O38 O 0.53548 0.83217 0.59667 0.0
O39 O 0.55879 0.90372 0.69975 0.0
C40 C 0.66698 0.82197 0.79608 0.0
C41 C 0.53321 0.8798 0.62613 0.0
C42 C 0.77735 0.70159 0.99333 0.0
C43 C 0.77916 0.51477 0.11905 0.0
O44 O 0.81007 0.68436 0.95001 0.0
Zn45 Zn 0.83986 0.61554 0.959 0.0
O46 O 0.75409 0.67428 0.06651 0.0
Zn47 Zn 0.78277 0.61297 0.06439 0.0
O48 O 0.8799 0.66977 0.08981 0.0
O49 O 0.93016 0.66674 0.97405 0.0
O50 O 0.75594 0.54537 0.15345 0.0
O51 O 0.81096 0.53626 0.04845 0.0
O52 O 0.80332 0.56943 0.85058 0.0
O53 O 0.73454 0.56039 0.94855 0.0
C54 C 0.93133 0.68683 0.05107 0.0
C55 C 0.74697 0.54785 0.8725 0.0
C56 C 0.35648 0.89752 0.41593 0.0
C57 C 0.15925 0.82086 0.25286 0.0
O58 O 0.35276 0.91308 0.33636 0.0
Zn59 Zn 0.26116 0.86292 0.32777 0.0
O60 O 0.30749 0.8575 0.45653 0.0
Zn61 Zn 0.21074 0.80274 0.4404 0.0
O62 O 0.19947 0.71633 0.44615 0.0
O63 O 0.24716 0.76999 0.32597 0.0
O64 O 0.15395 0.79826 0.33118 0.0
O65 O 0.21284 0.86073 0.2235 0.0
O66 O 0.23743 0.9082 0.42576 0.0
O67 O 0.18819 0.84058 0.53467 0.0
C68 C 0.2245 0.71905 0.37255 0.0
C69 C 0.21207 0.89651 0.50163 0.0
C70 C 0.53129 0.34031 0.73073 0.0
C71 C 0.34855 0.13172 0.67505 0.0
O72 O 0.49154 0.32782 0.66935 0.0
Zn73 Zn 0.43744 0.23846 0.70274 0.0
O74 O 0.52332 0.29767 0.78788 0.0
Zn75 Zn 0.45958 0.20046 0.81798 0.0
O76 O 0.51699 0.16799 0.80836 0.0
O77 O 0.4976 0.20131 0.68177 0.0
O78 O 0.37911 0.1322 0.74431 0.0
O79 O 0.36599 0.18324 0.63195 0.0
O80 O 0.39727 0.24549 0.82066 0.0
O81 O 0.42731 0.20743 0.93189 0.0
C82 C 0.52523 0.17715 0.72565 0.0
C83 C 0.39681 0.23319 0.90299 0.0
C84 C 0.36364 0.31441 0.08748 0.0
C85 C 0.31289 0.31777 0.05121 0.0
H86 H 0.42997 0.28352 0.06928 0.0
C87 C 0.28489 0.2842 0.97365 0.0
H88 H 0.38617 0.33959 0.14726 0.0
C89 C 0.31001 0.25283 0.92933 0.0
C90 C 0.36332 0.25332 0.96179 0.0
H91 H 0.24528 0.28485 0.94423 0.0
H92 H 0.28932 0.23061 0.86708 0.0
C93 C 0.38856 0.28211 0.04316 0.0
C94 C 0.95647 0.27214 0.18011 0.0
C95 C 0.95653 0.27518 0.27252 0.0
H96 H 1.01067 0.29602 0.06294 0.0
C97 C 1.01342 0.30123 0.31823 0.0
H98 H 0.9134 0.25215 0.14279 0.0
C99 C 0.06916 0.32556 0.27233 0.0
C100 C 0.06926 0.32506 0.17969 0.0
H101 H 1.01502 0.30383 0.38937 0.0
H102 H 0.11234 0.34704 0.3095 0.0
C103 C 1.01222 0.29713 0.13419 0.0
C104 C 0.68144 0.96089 0.3438 0.0
C105 C 0.73458 1.01625 0.37348 0.0
H106 H 0.6165 0.86247 0.37079 0.0
C107 C 0.77162 1.01049 0.43984 0.0
H108 H 0.65212 0.96366 0.2925 0.0
C109 C 0.75135 0.9527 0.48421 0.0
C110 C 0.69403 0.89943 0.46252 0.0
H111 H 0.81353 0.05195 0.46316 0.0
H112 H 0.77708 0.95157 0.54181 0.0
C113 C 0.66142 0.90264 0.38796 0.0
C114 C 0.72017 0.76299 0.99147 0.0
C115 C 0.75966 0.74567 0.95033 0.0
H116 H 0.66069 0.80297 0.97454 0.0
C117 C 0.7759 0.76394 0.86191 0.0
H118 H 0.70681 0.74975 0.05943 0.0
C119 C 0.74889 0.79322 0.81356 0.0
C120 C 0.70632 0.80657 0.85287 0.0
H121 H 0.80639 0.75187 0.8279 0.0
H122 H 0.75892 0.80255 0.74399 0.0
C123 C 0.69406 0.79375 0.94313 0.0
C124 C 0.04883 0.75257 0.05738 0.0
C125 C 0.99083 0.72728 0.0988 0.0
H126 H 0.14831 0.80378 0.07336 0.0
C127 C 0.98969 0.73903 0.18881 0.0
H128 H 0.05136 0.74471 0.98805 0.0
C129 C 0.04472 0.77223 0.2372 0.0
C130 C 0.10261 0.79555 0.19692 0.0
H131 H 0.94608 0.72071 0.22307 0.0
H132 H 0.04185 0.77821 0.30713 0.0
C133 C 0.10432 0.78687 0.10596 0.0
C134 C 0.27349 0.06752 0.55546 0.0
C135 C 0.2984 0.07023 0.64001 0.0
H136 H 0.22421 1.00895 0.44564 0.0
C137 C 0.28074 1.01276 0.68572 0.0
H138 H 0.2854 0.1107 0.5187 0.0
C139 C 0.24459 0.95415 0.64413 0.0
C140 C 0.22606 0.95212 0.55588 0.0
H141 H 0.29844 1.01306 0.75143 0.0
H142 H 0.23674 0.91118 0.67807 0.0
C143 C 0.23792 1.00909 0.51374 0.0
C144 C 0.21553 0.65285 0.24568 0.0
C145 C 0.22715 0.66467 0.33603 0.0
H146 H 0.21647 0.60071 0.13504 0.0
C147 C 0.24871 0.63019 0.38558 0.0
H148 H 0.19926 0.67913 0.20588 0.0
C149 C 0.26017 0.58583 0.34422 0.0
C150 C 0.24911 0.57475 0.25323 0.0
H151 H 0.25898 0.63931 0.4551 0.0
H152 H 0.2775 0.56023 0.38326 0.0
C153 C 0.22578 0.60816 0.20502 0.0
C154 C 0.63192 0.19253 0.71114 0.0
C155 C 0.57098 0.16732 0.67867 0.0
H156 H 0.72651 0.22149 0.68092 0.0
C157 C 0.55732 0.14446 0.59234 0.0
H158 H 0.64373 0.21141 0.77711 0.0
C159 C 0.60421 0.15006 0.53755 0.0
C160 C 0.66624 0.17973 0.56731 0.0
H161 H 0.51068 0.12504 0.56572 0.0
H162 H 0.5921 0.13383 0.47038 0.0
C163 C 0.67933 0.199 0.65568 0.0
C164 C 0.44963 0.65961 0.87525 0.0
C165 C 0.4427 0.65358 0.78331 0.0
H166 H 0.41212 0.61981 1.00154 0.0
C167 C 0.38988 0.60056 0.74818 0.0
H168 H 0.49007 0.69973 0.90437 0.0
C169 C 0.34423 0.5552 0.80434 0.0
C170 C 0.35163 0.56129 0.8964 0.0
H171 H 0.38333 0.59483 0.6776 0.0
H172 H 0.30359 0.51501 0.77582 0.0
C173 C 0.40508 0.6137 0.93104 0.0
C174 C 0.76179 0.40491 0.10153 0.0
C175 C 0.76853 0.45357 0.15731 0.0
H176 H 0.75013 0.31157 0.09164 0.0
C177 C 0.76703 0.44366 0.24878 0.0
H178 H 0.76237 0.4111 0.03069 0.0
C179 C 0.76161 0.38723 0.28367 0.0
C180 C 0.75546 0.33881 0.22775 0.0
H181 H 0.77223 0.48037 0.29323 0.0
H182 H 0.76256 0.38158 0.35446 0.0
C183 C 0.75437 0.34777 0.13634 0.0
C184 C 0.4611 0.90889 0.42465 0.0
C185 C 0.41576 0.91847 0.46264 0.0
H186 H 0.53463 0.88909 0.44854 0.0
C187 C 0.41873 0.92967 0.55381 0.0
H188 H 0.45945 0.89955 0.35493 0.0
C189 C 0.46173 0.92373 0.60769 0.0
C190 C 0.50149 0.90556 0.57088 0.0
H191 H 0.3839 0.93705 0.58447 0.0
H192 H 0.45961 0.9271 0.67839 0.0
C193 C 0.50345 0.90204 0.47858 0.0
C194 C 0.58315 0.45021 0.78633 0.0
C195 C 0.58701 0.40314 0.73997 0.0
H196 H 0.63178 0.53389 0.8645 0.0
C197 C 0.64553 0.40972 0.72534 0.0
H198 H 0.53831 0.44513 0.80011 0.0
C199 C 0.69923 0.46065 0.76167 0.0
C200 C 0.69463 0.50453 0.81512 0.0
H201 H 0.64914 0.37288 0.6915 0.0
H202 H 0.74327 0.46244 0.75433 0.0
C203 C 0.63654 0.50044 0.82391 0.0
loop_
_geom_bond_atom_site_label_1
_geom_bond_atom_site_label_2
_geom_bond_distance
_geom_bond_site_symmetry_2
_ccdc_geom_bond_type
C0 O2 1.247 . S
C0 O4 1.258 . S
C1 O8 1.247 . S
C1 O9 1.258 1_556 S
O2 C0 1.247 . S
O2 Zn3 2.028 . S
Zn3 O2 2.028 . S
Zn3 O7 2.035 . S
Zn3 O9 2.035 . S
Zn3 O10 2.028 . S
O4 C0 1.258 . S
O4 Zn5 2.035 1_554 S
Zn5 O4 2.035 1_556 S
Zn5 O6 2.028 . S
Zn5 O8 2.028 . S
Zn5 O11 2.035 1_556 S
O6 Zn5 2.028 . S
O6 C12 1.247 . S
O7 Zn3 2.035 . S
O7 C12 1.258 1_554 S
O8 C1 1.247 . S
O8 Zn5 2.028 . S
O9 C1 1.258 1_554 S
O9 Zn3 2.035 . S
O10 Zn3 2.028 . S
O10 C13 1.247 . S
O11 Zn5 2.035 1_554 S
O11 C13 1.258 . S
C12 O6 1.247 . S
C12 O7 1.258 1_556 S
C13 O10 1.247 . S
C13 O11 1.258 . S
C14 O16 1.247 . S
C14 O18 1.258 . S
C15 O22 1.247 . S
C15 O23 1.258 . S
O16 C14 1.247 . S
O16 Zn17 2.028 . S
Zn17 O16 2.028 . S
Zn17 O21 2.035 . S
Zn17 O23 2.035 . S
Zn17 O24 2.028 . S
O18 C14 1.258 . S
O18 Zn19 2.035 . S
Zn19 O18 2.035 . S
Zn19 O20 2.028 . S
Zn19 O22 2.028 . S
Zn19 O25 2.035 . S
O20 Zn19 2.028 . S
O20 C26 1.247 . S
O21 Zn17 2.035 . S
O21 C26 1.258 . S
O22 C15 1.247 . S
O22 Zn19 2.028 . S
O23 C15 1.258 . S
O23 Zn17 2.035 . S
O24 Zn17 2.028 . S
O24 C27 1.247 . S
O25 Zn19 2.035 . S
O25 C27 1.258 . S
C26 O20 1.247 . S
C26 O21 1.258 . S
C27 O24 1.247 . S
C27 O25 1.258 . S
C28 O30 1.247 . S
C28 O32 1.258 . S
C29 O36 1.247 . S
C29 O37 1.258 . S
O30 C28 1.247 . S
O30 Zn31 2.028 . S
Zn31 O30 2.028 . S
Zn31 O35 2.035 . S
Zn31 O37 2.035 . S
Zn31 O38 2.028 . S
O32 C28 1.258 . S
O32 Zn33 2.035 . S
Zn33 O32 2.035 . S
Zn33 O34 2.028 . S
Zn33 O36 2.028 . S
Zn33 O39 2.035 . S
O34 Zn33 2.028 . S
O34 C40 1.247 . S
O35 Zn31 2.035 . S
O35 C40 1.258 . S
O36 C29 1.247 . S
O36 Zn33 2.028 . S
O37 C29 1.258 . S
O37 Zn31 2.035 . S
O38 Zn31 2.028 . S
O38 C41 1.247 . S
O39 Zn33 2.035 . S
O39 C41 1.258 . S
C40 O34 1.247 . S
C40 O35 1.258 . S
C41 O38 1.247 . S
C41 O39 1.258 . S
C42 O44 1.247 . S
C42 O46 1.258 1_556 S
C43 O50 1.247 . S
C43 O51 1.258 . S
O44 C42 1.247 . S
O44 Zn45 2.028 . S
Zn45 O44 2.028 . S
Zn45 O49 2.035 1_556 S
Zn45 O51 2.035 1_556 S
Zn45 O52 2.028 . S
O46 C42 1.258 1_554 S
O46 Zn47 2.035 . S
Zn47 O46 2.035 . S
Zn47 O48 2.028 . S
Zn47 O50 2.028 . S
Zn47 O53 2.035 . S
O48 Zn47 2.028 . S
O48 C54 1.247 . S
O49 Zn45 2.035 1_554 S
O49 C54 1.258 . S
O50 C43 1.247 . S
O50 Zn47 2.028 . S
O51 C43 1.258 . S
O51 Zn45 2.035 1_554 S
O52 Zn45 2.028 . S
O52 C55 1.247 . S
O53 Zn47 2.035 . S
O53 C55 1.258 1_554 S
C54 O48 1.247 . S
C54 O49 1.258 . S
C55 O52 1.247 . S
C55 O53 1.258 1_556 S
C56 O58 1.247 . S
C56 O60 1.258 . S
C57 O64 1.247 . S
C57 O65 1.258 . S
O58 C56 1.247 . S
O58 Zn59 2.028 . S
Zn59 O58 2.028 . S
Zn59 O63 2.035 . S
Zn59 O65 2.035 . S
Zn59 O66 2.028 . S
O60 C56 1.258 . S
O60 Zn61 2.035 . S
Zn61 O60 2.035 . S
Zn61 O62 2.028 . S
Zn61 O64 2.028 . S
Zn61 O67 2.035 . S
O62 Zn61 2.028 . S
O62 C68 1.247 . S
O63 Zn59 2.035 . S
O63 C68 1.258 . S
O64 C57 1.247 . S
O64 Zn61 2.028 . S
O65 C57 1.258 . S
O65 Zn59 2.035 . S
O66 Zn59 2.028 . S
O66 C69 1.247 . S
O67 Zn61 2.035 . S
O67 C69 1.258 . S
C68 O62 1.247 . S
C68 O63 1.258 . S
C69 O66 1.247 . S
C69 O67 1.258 . S
C70 O72 1.247 . S
C70 O74 1.258 . S
C71 O78 1.247 . S
C71 O79 1.258 . S
O72 C70 1.247 . S
O72 Zn73 2.028 . S
Zn73 O72 2.028 . S
Zn73 O77 2.035 . S
Zn73 O79 2.035 . S
Zn73 O80 2.028 . S
O74 C70 1.258 . S
O74 Zn75 2.035 . S
Zn75 O74 2.035 . S
Zn75 O76 2.028 . S
Zn75 O78 2.028 . S
Zn75 O81 2.035 . S
O76 Zn75 2.028 . S
O76 C82 1.247 . S
O77 Zn73 2.035 . S
O77 C82 1.258 . S
O78 C71 1.247 . S
O78 Zn75 2.028 . S
O79 C71 1.258 . S
O79 Zn73 2.035 . S
O80 Zn73 2.028 . S
O80 C83 1.247 . S
O81 Zn75 2.035 . S
O81 C83 1.258 . S
C82 O76 1.247 . S
C82 O77 1.258 . S
C83 O80 1.247 . S
C83 O81 1.258 . S
C84 C85 1.387 . S
C84 H88 0.950 . S
C84 C93 1.390 . S
C85 C84 1.387 . S
C85 C87 1.387 . S
H86 C93 0.950 . S
C87 C85 1.387 . S
C87 C89 1.390 . S
C87 H91 0.950 . S
H88 C84 0.950 . S
C89 C87 1.390 . S
C89 C90 1.387 . S
C89 H92 0.950 . S
C90 C89 1.387 . S
C90 C93 1.387 . S
H91 C87 0.950 . S
H92 C89 0.950 . S
C93 C84 1.390 . S
C93 H86 0.950 . S
C93 C90 1.387 . S
C94 C95 1.387 . S
C94 H98 0.950 . S
C94 C103 1.390 1_655 S
C95 C94 1.387 . S
C95 C97 1.387 . S
H96 C103 0.950 . S
C97 C95 1.387 . S
C97 C99 1.390 1_655 S
C97 H101 0.950 . S
H98 C94 0.950 . S
C99 C97 1.390 1_455 S
C99 C100 1.387 . S
C99 H102 0.950 . S
C100 C99 1.387 . S
C100 C103 1.387 . S
H101 C97 0.950 . S
H102 C99 0.950 . S
C103 C94 1.390 1_455 S
C103 H96 0.950 . S
C103 C100 1.387 . S
C104 C105 1.387 . S
C104 H108 0.950 . S
C104 C113 1.390 1_545 S
C105 C104 1.387 . S
C105 C107 1.387 . S
H106 C113 0.950 . S
C107 C105 1.387 . S
C107 C109 1.390 1_545 S
C107 H111 0.950 . S
H108 C104 0.950 . S
C109 C107 1.390 1_565 S
C109 C110 1.387 . S
C109 H112 0.950 . S
C110 C109 1.387 . S
C110 C113 1.387 . S
H111 C107 0.950 . S
H112 C109 0.950 . S
C113 C104 1.390 1_565 S
C113 H106 0.950 . S
C113 C110 1.387 . S
C114 C115 1.387 . S
C114 H118 0.950 . S
C114 C123 1.390 . S
C115 C114 1.387 . S
C115 C117 1.387 . S
H116 C123 0.950 . S
C117 C115 1.387 . S
C117 C119 1.390 . S
C117 H121 0.950 . S
H118 C114 0.950 . S
C119 C117 1.390 . S
C119 C120 1.387 . S
C119 H122 0.950 . S
C120 C119 1.387 . S
C120 C123 1.387 . S
H121 C117 0.950 . S
H122 C119 0.950 . S
C123 C114 1.390 . S
C123 H116 0.950 . S
C123 C120 1.387 . S
C124 C125 1.387 . S
C124 H128 0.950 . S
C124 C133 1.390 1_655 S
C125 C124 1.387 . S
C125 C127 1.387 . S
H126 C133 0.950 . S
C127 C125 1.387 . S
C127 C129 1.390 1_655 S
C127 H131 0.950 . S
H128 C124 0.950 . S
C129 C127 1.390 1_455 S
C129 C130 1.387 . S
C129 H132 0.950 . S
C130 C129 1.387 . S
C130 C133 1.387 . S
H131 C127 0.950 . S
H132 C129 0.950 . S
C133 C124 1.390 1_455 S
C133 H126 0.950 . S
C133 C130 1.387 . S
C134 C135 1.387 . S
C134 H138 0.950 . S
C134 C143 1.390 1_545 S
C135 C134 1.387 . S
C135 C137 1.387 . S
H136 C143 0.950 . S
C137 C135 1.387 . S
C137 C139 1.390 1_545 S
C137 H141 0.950 . S
H138 C134 0.950 . S
C139 C137 1.390 1_565 S
C139 C140 1.387 . S
C139 H142 0.950 . S
C140 C139 1.387 . S
C140 C143 1.387 . S
H141 C137 0.950 . S
H142 C139 0.950 . S
C143 C134 1.390 1_565 S
C143 H136 0.950 . S
C143 C140 1.387 . S
C144 C145 1.387 . S
C144 H148 0.950 . S
C144 C153 1.390 . S
C145 C144 1.387 . S
C145 C147 1.387 . S
H146 C153 0.950 . S
C147 C145 1.387 . S
C147 C149 1.390 . S
C147 H151 0.950 . S
H148 C144 0.950 . S
C149 C147 1.390 . S
C149 C150 1.387 . S
C149 H152 0.950 . S
C150 C149 1.387 . S
C150 C153 1.387 . S
H151 C147 0.950 . S
H152 C149 0.950 . S
C153 C144 1.390 . S
C153 H146 0.950 . S
C153 C150 1.387 . S
C154 C155 1.387 . S
C154 H158 0.950 . S
C154 C163 1.390 . S
C155 C154 1.387 . S
C155 C157 1.387 . S
H156 C163 0.950 . S
C157 C155 1.387 . S
C157 C159 1.390 . S
C157 H161 0.950 . S
H158 C154 0.950 . S
C159 C157 1.390 . S
C159 C160 1.387 . S
C159 H162 0.950 . S
C160 C159 1.387 . S
C160 C163 1.387 . S
H161 C157 0.950 . S
H162 C159 0.950 . S
C163 C154 1.390 . S
C163 H156 0.950 . S
C163 C160 1.387 . S
C164 C165 1.387 . S
C164 H168 0.950 . S
C164 C173 1.390 . S
C165 C164 1.387 . S
C165 C167 1.387 . S
H166 C173 0.950 . S
C167 C165 1.387 . S
C167 C169 1.390 . S
C167 H171 0.950 . S
H168 C164 0.950 . S
C169 C167 1.390 . S
C169 C170 1.387 . S
C169 H172 0.950 . S
C170 C169 1.387 . S
C170 C173 1.387 . S
H171 C167 0.950 . S
H172 C169 0.950 . S
C173 C164 1.390 . S
C173 H166 0.950 . S
C173 C170 1.387 . S
C174 C175 1.387 . S
C174 H178 0.950 . S
C174 C183 1.390 . S
C175 C174 1.387 . S
C175 C177 1.387 . S
H176 C183 0.950 . S
C177 C175 1.387 . S
C177 C179 1.390 . S
C177 H181 0.950 . S
H178 C174 0.950 . S
C179 C177 1.390 . S
C179 C180 1.387 . S
C179 H182 0.950 . S
C180 C179 1.387 . S
C180 C183 1.387 . S
H181 C177 0.950 . S
H182 C179 0.950 . S
C183 C174 1.390 . S
C183 H176 0.950 . S
C183 C180 1.387 . S
C184 C185 1.387 . S
C184 H188 0.950 . S
C184 C193 1.390 . S
C185 C184 1.387 . S
C185 C187 1.387 . S
H186 C193 0.950 . S
C187 C185 1.387 . S
C187 C189 1.390 . S
C187 H191 0.950 . S
H188 C184 0.950 . S
C189 C187 1.390 . S
C189 C190 1.387 . S
C189 H192 0.950 . S
C190 C189 1.387 . S
C190 C193 1.387 . S
H191 C187 0.950 . S
H192 C189 0.950 . S
C193 C184 1.390 . S
C193 H186 0.950 . S
C193 C190 1.387 . S
C194 C195 1.387 . S
C194 H198 0.950 . S
C194 C203 1.390 . S
C195 C194 1.387 . S
C195 C197 1.387 . S
H196 C203 0.953 . S
C197 C195 1.387 . S
C197 C199 1.390 . S
C197 H201 0.950 . S
H198 C194 0.950 . S
C199 C197 1.390 . S
C199 C200 1.387 . S
C199 H202 0.950 . S
C200 C199 1.387 . S
C200 C203 1.387 . S
H201 C197 0.950 . S
H202 C199 0.950 . S
C203 C194 1.390 . S
C203 H196 0.953 . S
C203 C200 1.387 . S
C85 C12 1.475 . S
C90 C83 1.475 . S
C95 C26 1.476 . S
C100 C0 1.475 . S
C105 C14 1.476 . S
C110 C28 1.476 . S
C115 C42 1.475 . S
C120 C40 1.476 . S
C125 C54 1.475 . S
C130 C57 1.475 . S
C135 C71 1.475 . S
C140 C69 1.475 . S
C145 C68 1.502 . S
C150 C13 1.500 . S
C155 C82 1.501 . S
C160 C27 1.501 . S
C165 C29 1.501 . S
C170 C1 1.500 . S
C175 C43 1.500 . S
C180 C15 1.501 . S
C185 C56 1.501 . S
C190 C41 1.501 . S
C195 C70 1.502 . S
C200 C55 1.500 . S
