# Generated by pormake.
# Topology acs, (6)-cn, num edge types: 1
# Building blocks:
#     Node 0, Type 0, BuildingBlock: OJICUG_clean_sbu_0, # of connection points: 6
#     Node 1, Type 0, BuildingBlock: OJICUG_clean_sbu_0, # of connection points: 6
#     Edge 2, Type (0, 0), BuildingBlock: EZIPEK_clean_linker_0, # of connection points: 2
#     Edge 3, Type (0, 0), BuildingBlock: EZIPEK_clean_linker_0, # of connection points: 2
#     Edge 4, Type (0, 0), BuildingBlock: EZIPEK_clean_linker_0, # of connection points: 2
#     Edge 5, Type (0, 0), BuildingBlock: EZIPEK_clean_linker_0, # of connection points: 2
#     Edge 6, Type (0, 0), BuildingBlock: EZIPEK_clean_linker_0, # of connection points: 2
#     Edge 7, Type (0, 0), BuildingBlock: EZIPEK_clean_linker_0, # of connection points: 2
# Relax obj value: 0.000
# Max RMSD: 0.000
# Mean RMSD: 0.000
data_MOF--net-acs--node1-OJICUG_clean_sbu_0--edge1-EZIPEK_clean_linker_0
_symmetry_space_group_name_H-M    P1
_symmetry_Int_Tables_number       1
_symmetry_cell_setting            triclinic
loop_
_symmetry_equiv_pos_as_xyz
'x, y, z'
_cell_length_a     16.152065
_cell_length_b     16.152941
_cell_length_c     16.710776
_cell_angle_alpha  90.015204
_cell_angle_beta   89.961747
_cell_angle_gamma 120.06951
loop_
_atom_site_label
_atom_site_type_symbol
_atom_site_fract_x
_atom_site_fract_y
_atom_site_fract_z
_atom_type_partial_charge
Sc0 Sc 0.73397 0.47588 0.2398 0.0
Sc1 Sc 0.51527 0.25683 0.23954 0.0
Sc2 Sc 0.73419 0.25739 0.23992 0.0
O3 O 0.66114 0.33003 0.23973 0.0
C4 C 0.85973 0.4287 0.12067 0.0
C5 C 0.56293 0.42992 0.12043 0.0
C6 C 0.56165 0.1319 0.12034 0.0
C7 C 0.56096 0.42735 0.35939 0.0
C8 C 0.85867 0.4302 0.35966 0.0
C9 C 0.56271 0.13168 0.35892 0.0
O10 O 0.83356 0.48483 0.14947 0.0
O11 O 0.50668 0.34759 0.14928 0.0
O12 O 0.64381 0.158 0.14942 0.0
O13 O 0.64304 0.484 0.33026 0.0
O14 O 0.83312 0.34814 0.33054 0.0
O15 O 0.50645 0.15746 0.32988 0.0
O16 O 0.82799 0.48407 0.33446 0.0
O17 O 0.50704 0.34268 0.33421 0.0
O18 O 0.64772 0.16302 0.33432 0.0
O19 O 0.64786 0.48368 0.14516 0.0
O20 O 0.82856 0.34382 0.14547 0.0
O21 O 0.50777 0.16293 0.14493 0.0
Sc22 Sc 0.25531 0.51745 0.73952 0.0
Sc23 Sc 0.47411 0.7364 0.73985 0.0
Sc24 Sc 0.2553 0.73605 0.73944 0.0
O25 O 0.32824 0.66331 0.73963 0.0
C26 C 0.13074 0.56332 0.61966 0.0
C27 C 0.42831 0.56588 0.61996 0.0
C28 C 0.42685 0.8617 0.62048 0.0
C29 C 0.42627 0.56323 0.85892 0.0
C30 C 0.12962 0.56473 0.85865 0.0
C31 C 0.42784 0.86139 0.85907 0.0
O32 O 0.16134 0.50939 0.64486 0.0
O33 O 0.48229 0.65053 0.64517 0.0
O34 O 0.34185 0.83042 0.64508 0.0
O35 O 0.34134 0.50953 0.83416 0.0
O36 O 0.16086 0.64964 0.83386 0.0
O37 O 0.48167 0.83031 0.83447 0.0
O38 O 0.15574 0.50857 0.82985 0.0
O39 O 0.48257 0.64555 0.8301 0.0
O40 O 0.3457 0.83537 0.82998 0.0
O41 O 0.3462 0.50928 0.64906 0.0
O42 O 0.15636 0.64539 0.64879 0.0
O43 O 0.48305 0.83583 0.64953 0.0
C44 C 0.41946 0.90071 0.00259 0.0
C45 C 0.46203 0.93076 0.92586 0.0
C46 C 0.57005 0.09257 0.97682 0.0
C47 C 0.52749 0.06252 0.05356 0.0
N48 N 0.40754 0.94307 0.14001 0.0
N49 N 0.58207 0.05018 0.83944 0.0
C50 C 0.45091 0.9679 0.06659 0.0
C51 C 0.53863 0.02537 0.91284 0.0
N52 N 0.35231 0.80661 0.01484 0.0
N53 N 0.63714 0.18668 0.96455 0.0
H54 H 0.558 0.00458 0.79009 0.0
H55 H 0.6447 0.11399 0.82748 0.0
H56 H 0.66225 0.23769 0.01007 0.0
H57 H 0.66436 0.21665 0.90884 0.0
H58 H 0.32502 0.77663 0.07053 0.0
H59 H 0.32718 0.75561 0.96931 0.0
H60 H 0.34495 0.87924 0.15202 0.0
H61 H 0.43163 0.98867 0.18937 0.0
C62 C 0.41975 0.51769 0.47652 0.0
C63 C 0.46293 0.53135 0.55305 0.0
C64 C 0.56952 0.47556 0.50282 0.0
C65 C 0.52631 0.46186 0.42629 0.0
N66 N 0.41815 0.47695 0.33617 0.0
N67 N 0.57092 0.51602 0.6432 0.0
C68 C 0.45288 0.4841 0.41214 0.0
C69 C 0.53631 0.50905 0.56721 0.0
N70 N 0.34631 0.53599 0.46606 0.0
N71 N 0.64307 0.45743 0.51326 0.0
H72 H 0.54953 0.54186 0.69143 0.0
H73 H 0.61727 0.4922 0.66042 0.0
H74 H 0.66555 0.42773 0.46881 0.0
H75 H 0.68497 0.47465 0.56449 0.0
H76 H 0.30451 0.51899 0.41479 0.0
H77 H 0.32387 0.56573 0.51051 0.0
H78 H 0.37164 0.50055 0.31894 0.0
H79 H 0.43952 0.45106 0.28796 0.0
C80 C 0.89902 0.47686 0.9772 0.0
C81 C 0.92894 0.46362 0.05369 0.0
C82 C 0.09034 0.5166 0.00213 0.0
C83 C 0.06042 0.52985 0.92564 0.0
N84 N 0.94158 0.53269 0.8402 0.0
N85 N 0.04781 0.46089 0.13916 0.0
C86 C 0.96614 0.51283 0.91314 0.0
C87 C 0.02323 0.48067 0.0662 0.0
N88 N 0.80501 0.45015 0.96514 0.0
N89 N 0.18434 0.54326 0.01417 0.0
H90 H 0.00228 0.43896 0.18858 0.0
H91 H 0.11124 0.4612 0.15056 0.0
H92 H 0.23538 0.56943 0.96864 0.0
H93 H 0.21427 0.54571 0.0698 0.0
H94 H 0.7751 0.44766 0.9095 0.0
H95 H 0.75396 0.42395 0.01066 0.0
H96 H 0.87817 0.53242 0.82883 0.0
H97 H 0.98712 0.55465 0.79079 0.0
C98 C 0.47315 0.90053 0.47668 0.0
C99 C 0.46194 0.93096 0.55365 0.0
C100 C 0.51647 0.09287 0.50274 0.0
C101 C 0.52768 0.06243 0.42577 0.0
N102 N 0.52599 0.94241 0.33886 0.0
N103 N 0.46374 0.05101 0.64059 0.0
C104 C 0.50861 0.96757 0.41257 0.0
C105 C 0.48105 0.02583 0.56686 0.0
N106 N 0.44531 0.80627 0.4644 0.0
N107 N 0.54425 0.18712 0.515 0.0
H108 H 0.44225 0.00537 0.68992 0.0
H109 H 0.466 0.11519 0.65293 0.0
H110 H 0.56976 0.23799 0.46935 0.0
H111 H 0.54789 0.21733 0.57075 0.0
H112 H 0.44164 0.77607 0.40864 0.0
H113 H 0.41978 0.75539 0.51004 0.0
H114 H 0.52378 0.87825 0.32656 0.0
H115 H 0.5475 0.98805 0.28953 0.0
C116 C 0.4777 0.4514 0.91329 0.0
C117 C 0.46111 0.5289 0.92582 0.0
C118 C 0.51139 0.54167 0.06608 0.0
C119 C 0.52802 0.46419 0.05354 0.0
N120 N 0.54045 0.35308 0.96499 0.0
N121 N 0.4487 0.64004 0.01437 0.0
C122 C 0.51404 0.42054 0.97717 0.0
C123 C 0.47508 0.57255 0.0022 0.0
N124 N 0.45712 0.40648 0.84052 0.0
N125 N 0.53192 0.58656 0.13887 0.0
H126 H 0.42213 0.66459 0.969 0.0
H127 H 0.4468 0.66788 0.06999 0.0
H128 H 0.55411 0.56319 0.1882 0.0
H129 H 0.532 0.64989 0.15017 0.0
H130 H 0.45701 0.34312 0.82924 0.0
H131 H 0.4349 0.42982 0.7912 0.0
H132 H 0.54236 0.32526 0.90935 0.0
H133 H 0.56704 0.32854 0.01035 0.0
C134 C 0.96586 0.45442 0.56705 0.0
C135 C 0.06137 0.5286 0.55289 0.0
C136 C 0.02354 0.53918 0.41227 0.0
C137 C 0.92804 0.46498 0.42643 0.0
N138 N 0.80747 0.34691 0.51328 0.0
N139 N 0.18197 0.64662 0.46604 0.0
C140 C 0.89896 0.42112 0.50282 0.0
C141 C 0.09045 0.57245 0.4765 0.0
N142 N 0.93849 0.41917 0.64296 0.0
N143 N 0.05087 0.57448 0.33638 0.0
H144 H 0.23435 0.66905 0.51028 0.0
H145 H 0.2063 0.68902 0.41503 0.0
H146 H 0.00353 0.55295 0.28824 0.0
H147 H 0.12095 0.62159 0.31912 0.0
H148 H 0.8684 0.37214 0.66022 0.0
H149 H 0.98582 0.44071 0.6911 0.0
H150 H 0.78318 0.30448 0.56427 0.0
H151 H 0.75508 0.32446 0.46904 0.0
loop_
_geom_bond_atom_site_label_1
_geom_bond_atom_site_label_2
_geom_bond_distance
_geom_bond_site_symmetry_2
_ccdc_geom_bond_type
Sc0 O3 2.025 . S
Sc0 O10 2.105 . S
Sc0 O13 2.105 . S
Sc0 O16 2.105 . S
Sc0 O19 2.105 . S
Sc1 O3 2.025 . S
Sc1 O11 2.105 . S
Sc1 O15 2.105 . S
Sc1 O17 2.105 . S
Sc1 O21 2.105 . S
Sc2 O3 2.025 . S
Sc2 O12 2.105 . S
Sc2 O14 2.105 . S
Sc2 O18 2.105 . S
Sc2 O20 2.105 . S
O3 Sc0 2.025 . S
O3 Sc1 2.025 . S
O3 Sc2 2.025 . S
C4 O10 1.268 . S
C4 O20 1.268 . S
C5 O11 1.268 . S
C5 O19 1.268 . S
C6 O12 1.268 . S
C6 O21 1.268 . S
C7 O13 1.268 . S
C7 O17 1.268 . S
C8 O14 1.268 . S
C8 O16 1.268 . S
C9 O15 1.268 . S
C9 O18 1.268 . S
O10 Sc0 2.105 . S
O10 C4 1.268 . S
O11 Sc1 2.105 . S
O11 C5 1.268 . S
O12 Sc2 2.105 . S
O12 C6 1.268 . S
O13 Sc0 2.105 . S
O13 C7 1.268 . S
O14 Sc2 2.105 . S
O14 C8 1.268 . S
O15 Sc1 2.105 . S
O15 C9 1.268 . S
O16 Sc0 2.105 . S
O16 C8 1.268 . S
O17 Sc1 2.105 . S
O17 C7 1.268 . S
O18 Sc2 2.105 . S
O18 C9 1.268 . S
O19 Sc0 2.105 . S
O19 C5 1.268 . S
O20 Sc2 2.105 . S
O20 C4 1.268 . S
O21 Sc1 2.105 . S
O21 C6 1.268 . S
Sc22 O25 2.025 . S
Sc22 O32 2.105 . S
Sc22 O35 2.105 . S
Sc22 O38 2.105 . S
Sc22 O41 2.105 . S
Sc23 O25 2.025 . S
Sc23 O33 2.105 . S
Sc23 O37 2.105 . S
Sc23 O39 2.105 . S
Sc23 O43 2.105 . S
Sc24 O25 2.025 . S
Sc24 O34 2.105 . S
Sc24 O36 2.105 . S
Sc24 O40 2.105 . S
Sc24 O42 2.105 . S
O25 Sc22 2.025 . S
O25 Sc23 2.025 . S
O25 Sc24 2.025 . S
C26 O32 1.268 . S
C26 O42 1.268 . S
C27 O33 1.268 . S
C27 O41 1.268 . S
C28 O34 1.268 . S
C28 O43 1.268 . S
C29 O35 1.268 . S
C29 O39 1.268 . S
C30 O36 1.268 . S
C30 O38 1.268 . S
C31 O37 1.268 . S
C31 O40 1.268 . S
O32 Sc22 2.105 . S
O32 C26 1.268 . S
O33 Sc23 2.105 . S
O33 C27 1.268 . S
O34 Sc24 2.105 . S
O34 C28 1.268 . S
O35 Sc22 2.105 . S
O35 C29 1.268 . S
O36 Sc24 2.105 . S
O36 C30 1.268 . S
O37 Sc23 2.105 . S
O37 C31 1.268 . S
O38 Sc22 2.105 . S
O38 C30 1.268 . S
O39 Sc23 2.105 . S
O39 C29 1.268 . S
O40 Sc24 2.105 . S
O40 C31 1.268 . S
O41 Sc22 2.105 . S
O41 C27 1.268 . S
O42 Sc24 2.105 . S
O42 C26 1.268 . S
O43 Sc23 2.105 . S
O43 C28 1.268 . S
C44 C45 1.363 1_554 S
C44 C50 1.379 . S
C44 N52 1.356 . S
C45 C44 1.363 1_556 S
C45 C51 1.363 1_565 S
C46 C47 1.363 1_556 S
C46 C51 1.379 . S
C46 N53 1.356 . S
C47 C46 1.363 1_554 S
C47 C50 1.363 1_545 S
N48 C50 1.356 1_545 S
N48 H60 0.984 1_545 S
N48 H61 0.985 . S
N49 C51 1.356 1_565 S
N49 H54 0.984 . S
N49 H55 0.985 1_565 S
C50 C44 1.379 . S
C50 C47 1.363 1_565 S
C50 N48 1.356 1_565 S
C51 C45 1.363 1_545 S
C51 C46 1.379 . S
C51 N49 1.356 1_545 S
N52 C44 1.356 . S
N52 H58 0.984 . S
N52 H59 0.984 1_554 S
N53 C46 1.356 . S
N53 H56 0.984 1_556 S
N53 H57 0.985 . S
H54 N49 0.984 . S
H55 N49 0.985 1_545 S
H56 N53 0.984 1_554 S
H57 N53 0.985 . S
H58 N52 0.984 . S
H59 N52 0.984 1_556 S
H60 N48 0.984 1_565 S
H61 N48 0.985 . S
C62 C63 1.363 . S
C62 C68 1.379 . S
C62 N70 1.356 . S
C63 C62 1.363 . S
C63 C69 1.363 . S
C64 C65 1.363 . S
C64 C69 1.379 . S
C64 N71 1.356 . S
C65 C64 1.363 . S
C65 C68 1.363 . S
N66 C68 1.356 . S
N66 H78 0.984 . S
N66 H79 0.985 . S
N67 C69 1.356 . S
N67 H72 0.984 . S
N67 H73 0.985 . S
C68 C62 1.379 . S
C68 C65 1.363 . S
C68 N66 1.356 . S
C69 C63 1.363 . S
C69 C64 1.379 . S
C69 N67 1.356 . S
N70 C62 1.356 . S
N70 H76 0.984 . S
N70 H77 0.984 . S
N71 C64 1.356 . S
N71 H74 0.984 . S
N71 H75 0.985 . S
H72 N67 0.984 . S
H73 N67 0.985 . S
H74 N71 0.984 . S
H75 N71 0.985 . S
H76 N70 0.984 . S
H77 N70 0.984 . S
H78 N66 0.984 . S
H79 N66 0.985 . S
C80 C81 1.363 . S
C80 C86 1.379 1_654 S
C80 N88 1.356 . S
C81 C80 1.363 . S
C81 C87 1.363 . S
C82 C83 1.363 . S
C82 C87 1.379 1_456 S
C82 N89 1.356 . S
C83 C82 1.363 . S
C83 C86 1.363 . S
N84 C86 1.356 . S
N84 H96 0.984 . S
N84 H97 0.985 . S
N85 C87 1.356 . S
N85 H90 0.984 . S
N85 H91 0.985 . S
C86 C80 1.379 1_456 S
C86 C83 1.363 . S
C86 N84 1.356 . S
C87 C81 1.363 . S
C87 C82 1.379 1_654 S
C87 N85 1.356 . S
N88 C80 1.356 . S
N88 H94 0.984 . S
N88 H95 0.984 . S
N89 C82 1.356 . S
N89 H92 0.984 . S
N89 H93 0.985 . S
H90 N85 0.984 . S
H91 N85 0.985 . S
H92 N89 0.984 . S
H93 N89 0.985 . S
H94 N88 0.984 . S
H95 N88 0.984 . S
H96 N84 0.984 . S
H97 N84 0.985 . S
C98 C99 1.363 . S
C98 C104 1.379 . S
C98 N106 1.356 . S
C99 C98 1.363 . S
C99 C105 1.363 1_565 S
C100 C101 1.363 . S
C100 C105 1.379 . S
C100 N107 1.356 . S
C101 C100 1.363 . S
C101 C104 1.363 1_545 S
N102 C104 1.356 1_545 S
N102 H114 0.984 1_545 S
N102 H115 0.985 . S
N103 C105 1.356 1_565 S
N103 H108 0.984 . S
N103 H109 0.985 1_565 S
C104 C98 1.379 . S
C104 C101 1.363 1_565 S
C104 N102 1.356 1_565 S
C105 C99 1.363 1_545 S
C105 C100 1.379 . S
C105 N103 1.356 1_545 S
N106 C98 1.356 . S
N106 H112 0.984 . S
N106 H113 0.984 . S
N107 C100 1.356 . S
N107 H110 0.984 . S
N107 H111 0.985 . S
H108 N103 0.984 . S
H109 N103 0.985 1_545 S
H110 N107 0.984 . S
H111 N107 0.985 . S
H112 N106 0.984 . S
H113 N106 0.984 . S
H114 N102 0.984 1_565 S
H115 N102 0.985 . S
C116 C117 1.363 . S
C116 C122 1.379 1_556 S
C116 N124 1.356 . S
C117 C116 1.363 . S
C117 C123 1.363 . S
C118 C119 1.363 . S
C118 C123 1.379 1_554 S
C118 N125 1.356 . S
C119 C118 1.363 . S
C119 C122 1.363 . S
N120 C122 1.356 . S
N120 H132 0.984 . S
N120 H133 0.985 . S
N121 C123 1.356 . S
N121 H126 0.984 . S
N121 H127 0.985 . S
C122 C116 1.379 1_554 S
C122 C119 1.363 . S
C122 N120 1.356 . S
C123 C117 1.363 . S
C123 C118 1.379 1_556 S
C123 N121 1.356 . S
N124 C116 1.356 . S
N124 H130 0.984 . S
N124 H131 0.984 . S
N125 C118 1.356 . S
N125 H128 0.984 . S
N125 H129 0.985 . S
H126 N121 0.984 . S
H127 N121 0.985 . S
H128 N125 0.984 . S
H129 N125 0.985 . S
H130 N124 0.984 . S
H131 N124 0.984 . S
H132 N120 0.984 . S
H133 N120 0.985 . S
C134 C135 1.363 . S
C134 C140 1.379 1_455 S
C134 N142 1.356 . S
C135 C134 1.363 . S
C135 C141 1.363 . S
C136 C137 1.363 . S
C136 C141 1.379 1_655 S
C136 N143 1.356 . S
C137 C136 1.363 . S
C137 C140 1.363 . S
N138 C140 1.356 . S
N138 H150 0.984 . S
N138 H151 0.985 . S
N139 C141 1.356 . S
N139 H144 0.984 . S
N139 H145 0.985 . S
C140 C134 1.379 1_655 S
C140 C137 1.363 . S
C140 N138 1.356 . S
C141 C135 1.363 . S
C141 C136 1.379 1_455 S
C141 N139 1.356 . S
N142 C134 1.356 . S
N142 H148 0.984 1_455 S
N142 H149 0.984 . S
N143 C136 1.356 . S
N143 H146 0.984 . S
N143 H147 0.985 1_655 S
H144 N139 0.984 . S
H145 N139 0.985 . S
H146 N143 0.984 . S
H147 N143 0.985 1_455 S
H148 N142 0.984 1_655 S
H149 N142 0.984 . S
H150 N138 0.984 . S
H151 N138 0.985 . S
C45 C31 1.480 . S
C47 C6 1.480 . S
C63 C27 1.480 . S
C65 C7 1.480 . S
C81 C4 1.480 . S
C83 C30 1.480 . S
C99 C28 1.480 . S
C101 C9 1.480 . S
C117 C29 1.480 . S
C119 C5 1.480 . S
C135 C26 1.480 . S
C137 C8 1.480 . S
