# Generated by pormake.
# Topology hex, (8)-cn, num edge types: 1
# Building blocks:
#     Node 0, Type 0, BuildingBlock: AJUNOK_clean_sbu_0, # of connection points: 8
#     Edge 1, Type (0, 0), BuildingBlock: EYOCIG_clean_linker_4, # of connection points: 2
#     Edge 2, Type (0, 0), BuildingBlock: EYOCIG_clean_linker_4, # of connection points: 2
#     Edge 3, Type (0, 0), BuildingBlock: EYOCIG_clean_linker_4, # of connection points: 2
#     Edge 4, Type (0, 0), BuildingBlock: EYOCIG_clean_linker_4, # of connection points: 2
# Relax obj value: 0.042
# Max RMSD: 0.088
# Mean RMSD: 0.088
data_MOF--net-hex--node1-AJUNOK_clean_sbu_0--edge1-EYOCIG_clean_linker_4
_symmetry_space_group_name_H-M    P1
_symmetry_Int_Tables_number       1
_symmetry_cell_setting            triclinic
loop_
_symmetry_equiv_pos_as_xyz
'x, y, z'
_cell_length_a     17.857639
_cell_length_b     17.8828
_cell_length_c     12.179025
_cell_angle_alpha  92.407681
_cell_angle_beta   92.440025
_cell_angle_gamma 126.18923
loop_
_atom_site_label
_atom_site_type_symbol
_atom_site_fract_x
_atom_site_fract_y
_atom_site_fract_z
_atom_type_partial_charge
Cd0 Cd 0.10542 0.08302 -0.00949 0.0
Cd1 Cd 0.85534 0.83242 0.97807 0.0
C2 C 0.02699 0.18865 0.09782 0.0
N3 N 0.01813 0.14157 0.00147 0.0
C4 C 0.96176 0.21436 0.90309 0.0
C5 C 0.97762 0.26885 -0.00052 0.0
C6 C 0.00621 0.25272 0.09876 0.0
C7 C -0.01691 0.15077 0.90578 0.0
H8 H 0.05827 0.18321 0.17204 0.0
H9 H 0.97955 0.1153 0.82958 0.0
C10 C 0.95939 0.93726 0.75257 0.0
C11 C 0.93277 0.72541 0.87467 0.0
C12 C 0.95326 0.66114 0.87417 0.0
C13 C -0.01778 0.64552 0.97353 0.0
C14 C -0.00154 0.70052 0.06963 0.0
C15 C 0.97727 0.76425 0.06653 0.0
N16 N 0.94208 0.77309 0.97068 0.0
H17 H 0.90143 0.73068 0.80038 0.0
H18 H -0.01878 0.80026 0.14248 0.0
C19 C 0.74968 0.91039 0.87013 0.0
N20 N 0.79641 0.91934 0.96695 0.0
C21 C 0.72279 -0.02457 0.06391 0.0
C22 C 0.66871 -0.04046 0.96696 0.0
C23 C 0.68543 0.93101 0.86819 0.0
C24 C 0.7866 0.95425 0.06223 0.0
H25 H 0.75549 0.87915 0.79625 0.0
H26 H 0.8218 -0.04214 0.1388 0.0
C27 C 0.00095 -0.02117 0.21674 0.0
C28 C 0.2751 0.25398 0.96626 0.0
N29 N 0.1648 -0.00367 -0.00222 0.0
C30 C 0.21287 0.00535 0.09338 0.0
C31 C 0.27692 -0.01551 0.09301 0.0
C32 C 0.29189 0.95547 -0.00679 0.0
C33 C 0.23643 0.93951 0.89762 0.0
C34 C 0.17299 -0.03893 0.90159 0.0
C35 C 0.68326 0.66175 -0.00524 0.0
O36 O 0.02634 0.00456 0.81428 0.0
O37 O 0.89014 0.86694 0.79089 0.0
O38 O 0.93349 0.91132 0.15555 0.0
O39 O 0.07086 0.04823 0.17786 0.0
O40 O 0.22216 0.20364 0.88177 0.0
O41 O 0.24941 0.22486 0.05988 0.0
O42 O 0.73173 0.7123 0.08145 0.0
O43 O 0.71476 0.69028 0.90288 0.0
H44 H 0.20802 0.03666 0.16797 0.0
H45 H 0.13669 0.95731 0.82596 0.0
H46 H 0.94011 0.22586 0.82505 0.0
H47 H 0.01946 0.29434 0.1744 0.0
H48 H 0.93965 0.61911 0.79878 0.0
H49 H 0.02041 0.68941 0.14773 0.0
H50 H 0.7108 -0.00297 0.14158 0.0
H51 H 0.64411 0.91768 0.79215 0.0
H52 H 0.31931 -0.00217 0.16805 0.0
H53 H 0.24702 0.91752 0.8192 0.0
C54 C 0.97784 0.41661 -0.01059 0.0
C55 C 0.97766 0.34922 -0.00633 0.0
C56 C -0.01772 0.49793 0.98382 0.0
C57 C -0.01763 0.56527 0.97963 0.0
C58 C 0.52061 -0.04078 0.97547 0.0
C59 C 0.58811 -0.04061 0.9717 0.0
C60 C 0.43926 0.95489 0.98122 0.0
C61 C 0.37199 0.95501 -0.01391 0.0
C62 C 0.43492 0.4155 0.96712 0.0
C63 C 0.36109 0.34118 0.95821 0.0
C64 C 0.52114 0.50159 -0.01312 0.0
C65 C 0.59554 0.57531 -0.00161 0.0
C66 C 0.97292 0.95223 0.54055 0.0
C67 C 0.96337 0.942 0.63671 0.0
C68 C -0.01292 -0.03359 0.42907 0.0
C69 C -0.00316 -0.0245 0.33276 0.0
loop_
_geom_bond_atom_site_label_1
_geom_bond_atom_site_label_2
_geom_bond_distance
_geom_bond_site_symmetry_2
_ccdc_geom_bond_type
Cd0 N3 2.334 . S
Cd0 N29 2.304 . S
Cd0 O36 2.268 1_554 S
Cd0 O39 2.273 . S
Cd0 O40 2.417 1_554 S
Cd0 O41 2.330 . S
Cd1 N16 2.304 . S
Cd1 N20 2.334 . S
Cd1 O37 2.273 . S
Cd1 O38 2.268 1_556 S
Cd1 O42 2.417 1_556 S
Cd1 O43 2.330 . S
C2 N3 1.332 . S
C2 C6 1.381 . S
C2 H8 0.931 . S
N3 Cd0 2.334 . S
N3 C2 1.332 . S
N3 C7 1.328 1_554 S
C4 C5 1.396 1_556 S
C4 C7 1.378 1_655 S
C4 H46 0.931 . S
C5 C4 1.396 1_554 S
C5 C6 1.382 1_655 S
C6 C2 1.381 . S
C6 C5 1.382 1_455 S
C6 H47 0.930 . S
C7 N3 1.328 1_556 S
C7 C4 1.378 1_455 S
C7 H9 0.930 . S
H8 C2 0.931 . S
H9 C7 0.930 . S
C10 O36 1.238 1_665 S
C10 O37 1.253 . S
C11 C12 1.379 . S
C11 N16 1.337 . S
C11 H17 0.929 . S
C12 C11 1.379 . S
C12 C13 1.380 1_655 S
C12 H48 0.929 . S
C13 C12 1.380 1_455 S
C13 C14 1.399 1_556 S
C14 C13 1.399 1_554 S
C14 C15 1.376 1_455 S
C14 H49 0.931 . S
C15 C14 1.376 1_655 S
C15 N16 1.338 1_554 S
C15 H18 0.930 . S
N16 Cd1 2.304 . S
N16 C11 1.337 . S
N16 C15 1.338 1_556 S
H17 C11 0.929 . S
H18 C15 0.930 . S
C19 N20 1.332 . S
C19 C23 1.381 . S
C19 H25 0.931 . S
N20 Cd1 2.334 . S
N20 C19 1.332 . S
N20 C24 1.328 1_556 S
C21 C22 1.396 1_554 S
C21 C24 1.378 1_545 S
C21 H50 0.931 . S
C22 C21 1.396 1_556 S
C22 C23 1.382 1_545 S
C23 C19 1.381 . S
C23 C22 1.382 1_565 S
C23 H51 0.930 . S
C24 N20 1.328 1_554 S
C24 C21 1.378 1_565 S
C24 H26 0.930 . S
H25 C19 0.931 . S
H26 C24 0.930 . S
C27 O38 1.238 1_445 S
C27 O39 1.253 . S
C28 O40 1.239 . S
C28 O41 1.230 1_556 S
N29 Cd0 2.304 . S
N29 C30 1.337 . S
N29 C34 1.338 1_554 S
C30 N29 1.337 . S
C30 C31 1.379 . S
C30 H44 0.929 . S
C31 C30 1.379 . S
C31 C32 1.380 1_545 S
C31 H52 0.929 . S
C32 C31 1.380 1_565 S
C32 C33 1.399 1_554 S
C33 C32 1.399 1_556 S
C33 C34 1.376 1_565 S
C33 H53 0.931 . S
C34 N29 1.338 1_556 S
C34 C33 1.376 1_545 S
C34 H45 0.930 . S
C35 O42 1.239 . S
C35 O43 1.230 1_554 S
O36 Cd0 2.268 1_556 S
O36 C10 1.238 1_445 S
O37 Cd1 2.273 . S
O37 C10 1.253 . S
O38 Cd1 2.268 1_554 S
O38 C27 1.238 1_665 S
O39 Cd0 2.273 . S
O39 C27 1.253 . S
O40 Cd0 2.417 1_556 S
O40 C28 1.239 . S
O41 Cd0 2.330 . S
O41 C28 1.230 1_554 S
O42 Cd1 2.417 1_554 S
O42 C35 1.239 . S
O43 Cd1 2.330 . S
O43 C35 1.230 1_556 S
H44 C30 0.929 . S
H45 C34 0.930 . S
H46 C4 0.931 . S
H47 C6 0.930 . S
H48 C12 0.929 . S
H49 C14 0.931 . S
H50 C21 0.931 . S
H51 C23 0.930 . S
H52 C31 0.929 . S
H53 C33 0.931 . S
C54 C55 1.170 1_556 S
C54 C56 1.380 1_655 S
C55 C54 1.170 1_554 S
C56 C54 1.380 1_455 S
C56 C57 1.170 . S
C57 C56 1.170 . S
C58 C59 1.170 . S
C58 C60 1.380 1_545 S
C59 C58 1.170 . S
C60 C58 1.380 1_565 S
C60 C61 1.170 1_556 S
C61 C60 1.170 1_554 S
C62 C63 1.170 . S
C62 C64 1.380 . S
C63 C62 1.170 . S
C64 C62 1.380 . S
C64 C65 1.170 1_556 S
C65 C64 1.170 1_554 S
C66 C67 1.170 1_655 S
C66 C68 1.380 . S
C67 C66 1.170 1_455 S
C68 C66 1.380 . S
C68 C69 1.170 . S
C69 C68 1.170 . S
C55 C5 1.824 . S
C57 C13 1.833 . S
C59 C22 1.815 . S
C61 C32 1.819 . S
C63 C28 0.707 . S
C65 C35 0.676 . S
C67 C10 1.484 1_445 S
C69 C27 1.480 1_655 S
