# Generated by pormake.
# Topology hcp, (12)-cn, num edge types: 1
# Building blocks:
#     Node 0, Type 0, BuildingBlock: ZALLEG_clean_sbu_0, # of connection points: 12
#     Node 1, Type 0, BuildingBlock: ZALLEG_clean_sbu_0, # of connection points: 12
#     Edge 2, Type (0, 0), BuildingBlock: EYOCIG_clean_linker_4, # of connection points: 2
#     Edge 3, Type (0, 0), BuildingBlock: EYOCIG_clean_linker_4, # of connection points: 2
#     Edge 4, Type (0, 0), BuildingBlock: EYOCIG_clean_linker_4, # of connection points: 2
#     Edge 5, Type (0, 0), BuildingBlock: EYOCIG_clean_linker_4, # of connection points: 2
#     Edge 6, Type (0, 0), BuildingBlock: EYOCIG_clean_linker_4, # of connection points: 2
#     Edge 7, Type (0, 0), BuildingBlock: EYOCIG_clean_linker_4, # of connection points: 2
#     Edge 8, Type (0, 0), BuildingBlock: EYOCIG_clean_linker_4, # of connection points: 2
#     Edge 9, Type (0, 0), BuildingBlock: EYOCIG_clean_linker_4, # of connection points: 2
#     Edge 10, Type (0, 0), BuildingBlock: EYOCIG_clean_linker_4, # of connection points: 2
#     Edge 11, Type (0, 0), BuildingBlock: EYOCIG_clean_linker_4, # of connection points: 2
#     Edge 12, Type (0, 0), BuildingBlock: EYOCIG_clean_linker_4, # of connection points: 2
#     Edge 13, Type (0, 0), BuildingBlock: EYOCIG_clean_linker_4, # of connection points: 2
# Relax obj value: 0.186
# Max RMSD: 0.270
# Mean RMSD: 0.270
data_MOF--net-hcp--node1-ZALLEG_clean_sbu_0--edge1-EYOCIG_clean_linker_4
_symmetry_space_group_name_H-M    P1
_symmetry_Int_Tables_number       1
_symmetry_cell_setting            triclinic
loop_
_symmetry_equiv_pos_as_xyz
'x, y, z'
_cell_length_a     15.432575
_cell_length_b     15.44005
_cell_length_c     23.52083
_cell_angle_alpha  89.942351
_cell_angle_beta   90.019154
_cell_angle_gamma 120.37379
loop_
_atom_site_label
_atom_site_type_symbol
_atom_site_fract_x
_atom_site_fract_y
_atom_site_fract_z
_atom_type_partial_charge
H0 H 0.55657 0.11381 0.2647 0.0
O1 O 0.59033 0.18439 0.27717 0.0
Tb2 Tb 0.51609 0.25958 0.24616 0.0
Tb3 Tb 0.59907 0.18646 0.36641 0.0
Tb4 Tb 0.73576 0.26 0.24652 0.0
O5 O 0.51224 0.24957 0.33649 0.0
O6 O 0.66348 0.33374 0.21243 0.0
O7 O 0.58752 0.40447 0.27744 0.0
O8 O 0.66258 0.33225 0.39748 0.0
O9 O 0.8118 0.41015 0.27775 0.0
O10 O 0.74457 0.26587 0.33683 0.0
H11 H 0.44334 0.21349 0.35207 0.0
H12 H 0.66378 0.33393 0.17034 0.0
Tb13 Tb 0.57994 0.3945 0.36666 0.0
Tb14 Tb 0.73822 0.48064 0.24667 0.0
H15 H 0.55057 0.43777 0.26501 0.0
H16 H 0.66254 0.33217 0.43918 0.0
Tb17 Tb 0.80874 0.41668 0.36699 0.0
H18 H 0.88251 0.44758 0.2654 0.0
H19 H 0.78005 0.2329 0.3525 0.0
O20 O 0.73116 0.48323 0.33701 0.0
H21 H 0.76448 0.55193 0.35278 0.0
O22 O 0.39113 0.10782 0.26632 0.0
O23 O 0.93342 0.5688 0.35093 0.0
O24 O 0.84348 0.35793 0.43846 0.0
O25 O 0.50514 0.35705 0.17626 0.0
O26 O 0.62743 0.06415 0.35002 0.0
O27 O 0.71062 0.60328 0.26732 0.0
O28 O 0.84718 0.49311 0.17671 0.0
O29 O 0.50484 0.14971 0.43776 0.0
O30 O 0.63926 0.15118 0.17634 0.0
O31 O 0.63719 0.48797 0.4383 0.0
O32 O 0.42879 0.36582 0.35019 0.0
O33 O 0.88642 0.28781 0.26732 0.0
O34 O 0.4482 0.05646 0.34766 0.0
O35 O 0.8856 0.61301 0.26448 0.0
O36 O 0.66594 0.50619 0.17516 0.0
O37 O 0.69107 0.20109 0.44776 0.0
O38 O 0.38482 0.27388 0.26358 0.0
O39 O 0.93759 0.39636 0.34881 0.0
O40 O 0.79339 0.49327 0.44837 0.0
O41 O 0.49081 0.16219 0.17452 0.0
O42 O 0.50247 0.30193 0.44804 0.0
O43 O 0.83427 0.33272 0.17514 0.0
O44 O 0.72119 0.11421 0.26396 0.0
O45 O 0.60076 0.54404 0.34836 0.0
C46 C 0.38049 0.04245 0.30727 0.0
C47 C 0.94877 0.63088 0.30766 0.0
C48 C 0.78319 0.27531 0.4665 0.0
C49 C 0.57172 0.45127 0.15727 0.0
C50 C 0.67541 0.05082 0.30693 0.0
C51 C 0.65494 0.61202 0.30819 0.0
C52 C 0.87441 0.42699 0.15751 0.0
C53 C 0.48381 0.20973 0.46641 0.0
C54 C 0.54549 0.12315 0.15694 0.0
C55 C 0.71911 0.51049 0.4668 0.0
C56 C 0.36735 0.31878 0.30681 0.0
C57 C 0.95113 0.34282 0.30845 0.0
H58 H 0.11123 0.56074 0.76472 0.0
O59 O 0.18185 0.59386 0.77714 0.0
Tb60 Tb 0.18468 0.60371 0.86641 0.0
Tb61 Tb 0.25587 0.5185 0.74602 0.0
Tb62 Tb 0.257 0.73847 0.74584 0.0
O63 O 0.24628 0.51546 0.83642 0.0
O64 O 0.26357 0.7483 0.8362 0.0
O65 O 0.33001 0.66532 0.89743 0.0
O66 O 0.40054 0.58833 0.77711 0.0
O67 O 0.40716 0.81321 0.7769 0.0
O68 O 0.32952 0.66504 0.71161 0.0
H69 H 0.21019 0.44675 0.85227 0.0
H70 H 0.23103 0.78411 0.85192 0.0
Tb71 Tb 0.39101 0.5816 0.8664 0.0
Tb72 Tb 0.41405 0.81063 0.8662 0.0
H73 H 0.33002 0.66555 0.93916 0.0
H74 H 0.4334 0.55099 0.76467 0.0
Tb75 Tb 0.47618 0.73822 0.74574 0.0
H76 H 0.44482 0.88382 0.76442 0.0
H77 H 0.32951 0.66497 0.66952 0.0
O78 O 0.47948 0.73207 0.83614 0.0
H79 H 0.54827 0.76487 0.85182 0.0
O80 O 0.05477 0.45471 0.84826 0.0
O81 O 0.6085 0.88344 0.76312 0.0
O82 O 0.50141 0.66596 0.67432 0.0
O83 O 0.19987 0.69623 0.94741 0.0
O84 O 0.15763 0.49267 0.67465 0.0
O85 O 0.49177 0.79593 0.94732 0.0
O86 O 0.39496 0.9403 0.84779 0.0
O87 O 0.26889 0.38646 0.76362 0.0
O88 O 0.11143 0.72443 0.76339 0.0
O89 O 0.54032 0.60181 0.84799 0.0
O90 O 0.29844 0.50444 0.94776 0.0
O91 O 0.32974 0.83645 0.67432 0.0
O92 O 0.10478 0.39616 0.76696 0.0
O93 O 0.56551 0.93262 0.84954 0.0
O94 O 0.35758 0.84723 0.93787 0.0
O95 O 0.35213 0.50566 0.67612 0.0
O96 O 0.14765 0.5099 0.93805 0.0
O97 O 0.48952 0.84786 0.67584 0.0
O98 O 0.59879 0.71038 0.76637 0.0
O99 O 0.06233 0.63214 0.84998 0.0
O100 O 0.36139 0.43013 0.85009 0.0
O101 O 0.28599 0.88957 0.76641 0.0
O102 O 0.14715 0.6414 0.67606 0.0
O103 O 0.48509 0.63906 0.93787 0.0
C104 C 0.04061 0.38732 0.808 0.0
C105 C 0.62651 0.94611 0.80625 0.0
C106 C 0.44629 0.57167 0.65683 0.0
C107 C 0.27475 0.78798 0.96598 0.0
C108 C 0.11858 0.54735 0.65697 0.0
C109 C 0.50869 0.72156 0.96597 0.0
C110 C 0.3415 0.95424 0.80745 0.0
C111 C 0.3139 0.36871 0.80678 0.0
C112 C 0.0485 0.67936 0.80663 0.0
C113 C 0.60793 0.65532 0.80752 0.0
C114 C 0.20685 0.48718 0.96636 0.0
C115 C 0.42393 0.87593 0.65666 0.0
C116 C 0.34132 0.88687 1.05967 0.0
C117 C 0.28656 0.82556 1.02392 0.0
C118 C 0.42262 0.96586 0.09229 0.0
C119 C 0.48852 0.03499 0.1203 0.0
C120 C 0.5692 0.53742 0.59277 0.0
C121 C 0.50315 0.54036 0.62049 0.0
C122 C 0.65083 0.54035 0.56048 0.0
C123 C 0.70617 0.53469 0.52494 0.0
C124 C 0.03118 0.46077 0.09293 0.0
C125 C 0.96252 0.4581 0.12087 0.0
C126 C 0.1093 0.45746 1.06037 0.0
C127 C 0.16992 0.46296 1.02459 0.0
C128 C 0.45859 0.03351 0.59254 0.0
C129 C 0.45565 0.96444 0.62022 0.0
C130 C 0.45541 0.1121 0.56031 0.0
C131 C 0.46071 0.17299 0.52474 0.0
C132 C 0.53808 0.57397 0.09248 0.0
C133 C 0.54102 0.50824 0.12054 0.0
C134 C 0.54064 0.65503 1.05977 0.0
C135 C 0.5343 0.70968 1.024 0.0
C136 C 0.88133 0.34238 0.56039 0.0
C137 C 0.82004 0.28732 0.52468 0.0
C138 C 0.96054 0.42399 0.5928 0.0
C139 C 0.02999 0.49015 0.62056 0.0
C140 C 0.66999 0.87888 0.30736 0.0
C141 C 0.67386 0.9582 0.30591 0.0
C142 C 0.66199 0.7847 0.30924 0.0
C143 C 0.65699 0.70485 0.31006 0.0
C144 C 0.87587 0.67259 0.80689 0.0
C145 C 0.95552 0.67713 0.80545 0.0
C146 C 0.78121 0.66355 0.80874 0.0
C147 C 0.70105 0.65793 0.80956 0.0
C148 C 0.20511 0.87454 0.30847 0.0
C149 C 0.28591 0.95047 0.309 0.0
C150 C 0.12385 0.79921 0.30755 0.0
C151 C 0.04338 0.72291 0.3066 0.0
C152 C 0.32195 0.20354 0.80685 0.0
C153 C 0.31662 0.27819 0.80532 0.0
C154 C 0.33232 0.11874 0.80885 0.0
C155 C 0.33864 0.04463 0.80977 0.0
C156 C 0.20153 0.32548 0.30731 0.0
C157 C 0.27655 0.32088 0.30567 0.0
C158 C 0.11609 0.33462 0.30949 0.0
C159 C 0.04168 0.34034 0.31048 0.0
C160 C 0.87629 0.21386 0.80926 0.0
C161 C 0.95031 0.29439 0.81039 0.0
C162 C 0.79189 0.11875 0.80671 0.0
C163 C 0.71715 0.03884 0.80482 0.0
loop_
_geom_bond_atom_site_label_1
_geom_bond_atom_site_label_2
_geom_bond_distance
_geom_bond_site_symmetry_2
_ccdc_geom_bond_type
H0 O1 0.850 . S
O1 H0 0.850 . S
O1 Tb2 2.341 . S
O1 Tb3 2.341 . S
O1 Tb4 2.341 . S
Tb2 O1 2.341 . S
Tb2 O5 2.341 . S
Tb2 O6 2.341 . S
Tb2 O7 2.341 . S
Tb2 O22 2.344 . S
Tb2 O25 2.344 . S
Tb2 O38 2.344 . S
Tb2 O41 2.344 . S
Tb3 O1 2.341 . S
Tb3 O5 2.341 . S
Tb3 O8 2.341 . S
Tb3 O10 2.341 . S
Tb3 O26 2.344 . S
Tb3 O29 2.344 . S
Tb3 O34 2.344 . S
Tb3 O37 2.344 . S
Tb4 O1 2.341 . S
Tb4 O6 2.341 . S
Tb4 O9 2.341 . S
Tb4 O10 2.341 . S
Tb4 O30 2.344 . S
Tb4 O33 2.344 . S
Tb4 O43 2.344 . S
Tb4 O44 2.344 . S
O5 Tb2 2.341 . S
O5 Tb3 2.341 . S
O5 H11 0.850 . S
O5 Tb13 2.341 . S
O6 Tb2 2.341 . S
O6 Tb4 2.341 . S
O6 H12 0.850 . S
O6 Tb14 2.341 . S
O7 Tb2 2.341 . S
O7 Tb13 2.341 . S
O7 Tb14 2.341 . S
O7 H15 0.850 . S
O8 Tb3 2.341 . S
O8 Tb13 2.341 . S
O8 H16 0.850 . S
O8 Tb17 2.341 . S
O9 Tb4 2.341 . S
O9 Tb14 2.341 . S
O9 Tb17 2.341 . S
O9 H18 0.850 . S
O10 Tb3 2.341 . S
O10 Tb4 2.341 . S
O10 Tb17 2.341 . S
O10 H19 0.850 . S
H11 O5 0.850 . S
H12 O6 0.850 . S
Tb13 O5 2.341 . S
Tb13 O7 2.341 . S
Tb13 O8 2.341 . S
Tb13 O20 2.341 . S
Tb13 O31 2.344 . S
Tb13 O32 2.344 . S
Tb13 O42 2.344 . S
Tb13 O45 2.344 . S
Tb14 O6 2.341 . S
Tb14 O7 2.341 . S
Tb14 O9 2.341 . S
Tb14 O20 2.341 . S
Tb14 O27 2.344 . S
Tb14 O28 2.344 . S
Tb14 O35 2.344 . S
Tb14 O36 2.344 . S
H15 O7 0.850 . S
H16 O8 0.850 . S
Tb17 O8 2.341 . S
Tb17 O9 2.341 . S
Tb17 O10 2.341 . S
Tb17 O20 2.341 . S
Tb17 O23 2.344 . S
Tb17 O24 2.344 . S
Tb17 O39 2.344 . S
Tb17 O40 2.344 . S
H18 O9 0.850 . S
H19 O10 0.850 . S
O20 Tb13 2.341 . S
O20 Tb14 2.341 . S
O20 Tb17 2.341 . S
O20 H21 0.850 . S
H21 O20 0.850 . S
O22 Tb2 2.344 . S
O22 C46 1.272 . S
O23 Tb17 2.344 . S
O23 C47 1.272 . S
O24 Tb17 2.344 . S
O24 C48 1.272 . S
O25 Tb2 2.344 . S
O25 C49 1.272 . S
O26 Tb3 2.344 . S
O26 C50 1.272 . S
O27 Tb14 2.344 . S
O27 C51 1.272 . S
O28 Tb14 2.344 . S
O28 C52 1.272 . S
O29 Tb3 2.344 . S
O29 C53 1.272 . S
O30 Tb4 2.344 . S
O30 C54 1.272 . S
O31 Tb13 2.344 . S
O31 C55 1.272 . S
O32 Tb13 2.344 . S
O32 C56 1.272 . S
O33 Tb4 2.344 . S
O33 C57 1.272 . S
O34 Tb3 2.344 . S
O34 C46 1.272 . S
O35 Tb14 2.344 . S
O35 C47 1.272 . S
O36 Tb14 2.344 . S
O36 C49 1.272 . S
O37 Tb3 2.344 . S
O37 C48 1.272 . S
O38 Tb2 2.344 . S
O38 C56 1.272 . S
O39 Tb17 2.344 . S
O39 C57 1.272 . S
O40 Tb17 2.344 . S
O40 C55 1.272 . S
O41 Tb2 2.344 . S
O41 C54 1.272 . S
O42 Tb13 2.344 . S
O42 C53 1.272 . S
O43 Tb4 2.344 . S
O43 C52 1.272 . S
O44 Tb4 2.344 . S
O44 C50 1.272 . S
O45 Tb13 2.344 . S
O45 C51 1.272 . S
C46 O22 1.272 . S
C46 O34 1.272 . S
C47 O23 1.272 . S
C47 O35 1.272 . S
C48 O24 1.272 . S
C48 O37 1.272 . S
C49 O25 1.272 . S
C49 O36 1.272 . S
C50 O26 1.272 . S
C50 O44 1.272 . S
C51 O27 1.272 . S
C51 O45 1.272 . S
C52 O28 1.272 . S
C52 O43 1.272 . S
C53 O29 1.272 . S
C53 O42 1.272 . S
C54 O30 1.272 . S
C54 O41 1.272 . S
C55 O31 1.272 . S
C55 O40 1.272 . S
C56 O32 1.272 . S
C56 O38 1.272 . S
C57 O33 1.272 . S
C57 O39 1.272 . S
H58 O59 0.850 . S
O59 H58 0.850 . S
O59 Tb60 2.341 . S
O59 Tb61 2.341 . S
O59 Tb62 2.341 . S
Tb60 O59 2.341 . S
Tb60 O63 2.341 . S
Tb60 O64 2.341 . S
Tb60 O65 2.341 . S
Tb60 O80 2.344 . S
Tb60 O83 2.344 . S
Tb60 O96 2.344 . S
Tb60 O99 2.344 . S
Tb61 O59 2.341 . S
Tb61 O63 2.341 . S
Tb61 O66 2.341 . S
Tb61 O68 2.341 . S
Tb61 O84 2.344 . S
Tb61 O87 2.344 . S
Tb61 O92 2.344 . S
Tb61 O95 2.344 . S
Tb62 O59 2.341 . S
Tb62 O64 2.341 . S
Tb62 O67 2.341 . S
Tb62 O68 2.341 . S
Tb62 O88 2.344 . S
Tb62 O91 2.344 . S
Tb62 O101 2.344 . S
Tb62 O102 2.344 . S
O63 Tb60 2.341 . S
O63 Tb61 2.341 . S
O63 H69 0.850 . S
O63 Tb71 2.341 . S
O64 Tb60 2.341 . S
O64 Tb62 2.341 . S
O64 H70 0.850 . S
O64 Tb72 2.341 . S
O65 Tb60 2.341 . S
O65 Tb71 2.341 . S
O65 Tb72 2.341 . S
O65 H73 0.850 . S
O66 Tb61 2.341 . S
O66 Tb71 2.341 . S
O66 H74 0.850 . S
O66 Tb75 2.341 . S
O67 Tb62 2.341 . S
O67 Tb72 2.341 . S
O67 Tb75 2.341 . S
O67 H76 0.850 . S
O68 Tb61 2.341 . S
O68 Tb62 2.341 . S
O68 Tb75 2.341 . S
O68 H77 0.850 . S
H69 O63 0.850 . S
H70 O64 0.850 . S
Tb71 O63 2.341 . S
Tb71 O65 2.341 . S
Tb71 O66 2.341 . S
Tb71 O78 2.341 . S
Tb71 O89 2.344 . S
Tb71 O90 2.344 . S
Tb71 O100 2.344 . S
Tb71 O103 2.344 . S
Tb72 O64 2.341 . S
Tb72 O65 2.341 . S
Tb72 O67 2.341 . S
Tb72 O78 2.341 . S
Tb72 O85 2.344 . S
Tb72 O86 2.344 . S
Tb72 O93 2.344 . S
Tb72 O94 2.344 . S
H73 O65 0.850 . S
H74 O66 0.850 . S
Tb75 O66 2.341 . S
Tb75 O67 2.341 . S
Tb75 O68 2.341 . S
Tb75 O78 2.341 . S
Tb75 O81 2.344 . S
Tb75 O82 2.344 . S
Tb75 O97 2.344 . S
Tb75 O98 2.344 . S
H76 O67 0.850 . S
H77 O68 0.850 . S
O78 Tb71 2.341 . S
O78 Tb72 2.341 . S
O78 Tb75 2.341 . S
O78 H79 0.850 . S
H79 O78 0.850 . S
O80 Tb60 2.344 . S
O80 C104 1.272 . S
O81 Tb75 2.344 . S
O81 C105 1.272 . S
O82 Tb75 2.344 . S
O82 C106 1.272 . S
O83 Tb60 2.344 . S
O83 C107 1.272 . S
O84 Tb61 2.344 . S
O84 C108 1.272 . S
O85 Tb72 2.344 . S
O85 C109 1.272 . S
O86 Tb72 2.344 . S
O86 C110 1.272 . S
O87 Tb61 2.344 . S
O87 C111 1.272 . S
O88 Tb62 2.344 . S
O88 C112 1.272 . S
O89 Tb71 2.344 . S
O89 C113 1.272 . S
O90 Tb71 2.344 . S
O90 C114 1.272 . S
O91 Tb62 2.344 . S
O91 C115 1.272 . S
O92 Tb61 2.344 . S
O92 C104 1.272 . S
O93 Tb72 2.344 . S
O93 C105 1.272 . S
O94 Tb72 2.344 . S
O94 C107 1.272 . S
O95 Tb61 2.344 . S
O95 C106 1.272 . S
O96 Tb60 2.344 . S
O96 C114 1.272 . S
O97 Tb75 2.344 . S
O97 C115 1.272 . S
O98 Tb75 2.344 . S
O98 C113 1.272 . S
O99 Tb60 2.344 . S
O99 C112 1.272 . S
O100 Tb71 2.344 . S
O100 C111 1.272 . S
O101 Tb62 2.344 . S
O101 C110 1.272 . S
O102 Tb62 2.344 . S
O102 C108 1.272 . S
O103 Tb71 2.344 . S
O103 C109 1.272 . S
C104 O80 1.272 . S
C104 O92 1.272 . S
C105 O81 1.272 . S
C105 O93 1.272 . S
C106 O82 1.272 . S
C106 O95 1.272 . S
C107 O83 1.272 . S
C107 O94 1.272 . S
C108 O84 1.272 . S
C108 O102 1.272 . S
C109 O85 1.272 . S
C109 O103 1.272 . S
C110 O86 1.272 . S
C110 O101 1.272 . S
C111 O87 1.272 . S
C111 O100 1.272 . S
C112 O88 1.272 . S
C112 O99 1.272 . S
C113 O89 1.272 . S
C113 O98 1.272 . S
C114 O90 1.272 . S
C114 O96 1.272 . S
C115 O91 1.272 . S
C115 O97 1.272 . S
C116 C117 1.170 . S
C116 C118 1.380 1_556 S
C117 C116 1.170 . S
C118 C116 1.380 1_554 S
C118 C119 1.170 1_565 S
C119 C118 1.170 1_545 S
C120 C121 1.170 . S
C120 C122 1.380 . S
C121 C120 1.170 . S
C122 C120 1.380 . S
C122 C123 1.170 . S
C123 C122 1.170 . S
C124 C125 1.170 1_455 S
C124 C126 1.380 1_554 S
C125 C124 1.170 1_655 S
C126 C124 1.380 1_556 S
C126 C127 1.170 . S
C127 C126 1.170 . S
C128 C129 1.170 1_545 S
C128 C130 1.380 . S
C129 C128 1.170 1_565 S
C130 C128 1.380 . S
C130 C131 1.170 . S
C131 C130 1.170 . S
C132 C133 1.170 . S
C132 C134 1.380 1_554 S
C133 C132 1.170 . S
C134 C132 1.380 1_556 S
C134 C135 1.170 . S
C135 C134 1.170 . S
C136 C137 1.170 . S
C136 C138 1.380 . S
C137 C136 1.170 . S
C138 C136 1.380 . S
C138 C139 1.170 1_655 S
C139 C138 1.170 1_455 S
C140 C141 1.170 . S
C140 C142 1.380 . S
C141 C140 1.170 . S
C142 C140 1.380 . S
C142 C143 1.170 . S
C143 C142 1.170 . S
C144 C145 1.170 . S
C144 C146 1.380 . S
C145 C144 1.170 . S
C146 C144 1.380 . S
C146 C147 1.170 . S
C147 C146 1.170 . S
C148 C149 1.170 . S
C148 C150 1.380 . S
C149 C148 1.170 . S
C150 C148 1.380 . S
C150 C151 1.170 . S
C151 C150 1.170 . S
C152 C153 1.170 . S
C152 C154 1.380 . S
C153 C152 1.170 . S
C154 C152 1.380 . S
C154 C155 1.170 . S
C155 C154 1.170 . S
C156 C157 1.170 . S
C156 C158 1.380 . S
C157 C156 1.170 . S
C158 C156 1.380 . S
C158 C159 1.170 . S
C159 C158 1.170 . S
C160 C161 1.170 . S
C160 C162 1.380 . S
C161 C160 1.170 . S
C162 C160 1.380 . S
C162 C163 1.170 . S
C163 C162 1.170 . S
C117 C107 1.866 . S
C119 C54 2.067 . S
C121 C106 2.047 . S
C123 C55 1.881 . S
C125 C52 2.063 . S
C127 C114 1.864 . S
C129 C115 2.041 . S
C131 C53 1.912 . S
C133 C49 2.063 . S
C135 C109 1.881 . S
C137 C48 1.883 . S
C139 C108 2.064 . S
C141 C50 1.203 1_565 S
C143 C51 1.227 . S
C145 C112 1.213 1_655 S
C147 C113 1.232 . S
C149 C46 1.213 1_565 S
C151 C47 1.214 1_455 S
C153 C111 1.208 . S
C155 C110 1.219 1_545 S
C157 C56 1.201 . S
C159 C57 1.232 1_455 S
C161 C104 1.224 1_655 S
C163 C105 1.205 1_545 S
