# Generated by pormake.
# Topology ukf, (4)-cn, num edge types: 1
# Building blocks:
#     Node 0, Type 0, BuildingBlock: CEKHIL_clean_sbu_0, # of connection points: 4
#     Node 1, Type 0, BuildingBlock: CEKHIL_clean_sbu_0, # of connection points: 4
#     Node 2, Type 0, BuildingBlock: CEKHIL_clean_sbu_0, # of connection points: 4
#     Node 3, Type 0, BuildingBlock: CEKHIL_clean_sbu_0, # of connection points: 4
#     Node 4, Type 0, BuildingBlock: CEKHIL_clean_sbu_0, # of connection points: 4
#     Node 5, Type 0, BuildingBlock: CEKHIL_clean_sbu_0, # of connection points: 4
#     Node 6, Type 0, BuildingBlock: CEKHIL_clean_sbu_0, # of connection points: 4
#     Node 7, Type 0, BuildingBlock: CEKHIL_clean_sbu_0, # of connection points: 4
#     Node 8, Type 0, BuildingBlock: CEKHIL_clean_sbu_0, # of connection points: 4
#     Node 9, Type 0, BuildingBlock: CEKHIL_clean_sbu_0, # of connection points: 4
#     Node 10, Type 0, BuildingBlock: CEKHIL_clean_sbu_0, # of connection points: 4
#     Node 11, Type 0, BuildingBlock: CEKHIL_clean_sbu_0, # of connection points: 4
#     Edge 12, Type (0, 0), None
#     Edge 13, Type (0, 0), None
#     Edge 14, Type (0, 0), None
#     Edge 15, Type (0, 0), None
#     Edge 16, Type (0, 0), None
#     Edge 17, Type (0, 0), None
#     Edge 18, Type (0, 0), None
#     Edge 19, Type (0, 0), None
#     Edge 20, Type (0, 0), None
#     Edge 21, Type (0, 0), None
#     Edge 22, Type (0, 0), None
#     Edge 23, Type (0, 0), None
#     Edge 24, Type (0, 0), None
#     Edge 25, Type (0, 0), None
#     Edge 26, Type (0, 0), None
#     Edge 27, Type (0, 0), None
#     Edge 28, Type (0, 0), None
#     Edge 29, Type (0, 0), None
#     Edge 30, Type (0, 0), None
#     Edge 31, Type (0, 0), None
#     Edge 32, Type (0, 0), None
#     Edge 33, Type (0, 0), None
#     Edge 34, Type (0, 0), None
#     Edge 35, Type (0, 0), None
# Relax obj value: 0.098
# Max RMSD: 0.083
# Mean RMSD: 0.083
data_MOF--net-ukf--node1-CEKHIL_clean_sbu_0--edge1-none
_symmetry_space_group_name_H-M    P1
_symmetry_Int_Tables_number       1
_symmetry_cell_setting            triclinic
loop_
_symmetry_equiv_pos_as_xyz
'x, y, z'
_cell_length_a     14.082543
_cell_length_b     14.083984
_cell_length_c     30.704707
_cell_angle_alpha  89.999835
_cell_angle_beta   90.000001
_cell_angle_gamma 120.00929
loop_
_atom_site_label
_atom_site_type_symbol
_atom_site_fract_x
_atom_site_fract_y
_atom_site_fract_z
_atom_type_partial_charge
Co0 Co 0.50146 0.29811 -0.0038 0.0
O1 O 0.60691 0.44856 0.01091 0.0
O2 O 0.43806 0.39133 -0.01239 0.0
C3 C 0.61776 0.26798 -0.04281 0.0
O4 O 0.3745 0.15357 -0.02745 0.0
Co5 Co 0.5258 0.1068 0.02931 0.0
O6 O 0.41401 1.02045 -0.01423 0.0
C7 C 0.46165 0.2189 0.09092 0.0
C8 C 0.53241 0.47229 -8e-05 0.0
C9 C 0.35945 0.05654 -0.03413 0.0
O10 O 0.44882 0.27045 0.05883 0.0
O11 O 0.49773 0.15265 0.08652 0.0
O12 O 0.56904 0.31625 0.93976 0.0
O13 O 0.60259 0.24764 -0.00143 0.0
Co14 Co 0.23262 0.48681 0.32953 0.0
O15 O 0.18764 0.59225 0.34425 0.0
O16 O 0.07597 0.42342 0.32094 0.0
C17 C 0.37906 0.60311 0.29052 0.0
O18 O 0.25018 0.35986 0.30587 0.0
Co19 Co 0.44827 0.51113 0.36263 0.0
O20 O 0.42278 0.39927 0.31912 0.0
C21 C 0.27203 0.44704 0.42425 0.0
C22 C 0.08939 0.51776 0.33326 0.0
C23 C 0.33215 0.34476 0.29921 0.0
O24 O 0.20764 0.43417 0.39216 0.0
O25 O 0.37438 0.48313 0.41985 0.0
O26 O 0.28206 0.55438 0.27309 0.0
O27 O 0.38425 0.58795 0.33189 0.0
Co28 Co 0.77507 0.218 0.66288 0.0
O29 O 0.62462 0.17298 0.6776 0.0
O30 O 0.68184 0.06137 0.65429 0.0
C31 C 0.80519 0.36441 0.62387 0.0
O32 O 0.9196 0.2356 0.63923 0.0
Co33 Co 0.96639 0.43365 0.69599 0.0
O34 O 0.05276 0.40824 0.65246 0.0
C35 C 0.85426 0.2574 0.7576 0.0
C36 C 0.60088 0.07474 0.66661 0.0
C37 C 1.01666 0.3176 0.63255 0.0
O38 O 0.80272 0.19302 0.72551 0.0
O39 O 0.92053 0.35974 0.75321 0.0
O40 O 0.75693 0.26741 0.60644 0.0
O41 O 0.82554 0.36961 0.66524 0.0
Co42 Co 0.58636 0.76041 -0.0038 0.0
O43 O 0.4809 0.60997 0.01091 0.0
O44 O 0.64976 0.66719 -0.01239 0.0
C45 C 0.47006 0.79054 -0.04281 0.0
O46 O 0.71332 0.90495 -0.02745 0.0
Co47 Co 0.56202 0.95172 0.0293 0.0
O48 O 0.67381 0.03807 -0.01424 0.0
C49 C 0.62616 0.83962 0.09092 0.0
C50 C 0.5554 0.58623 -8e-05 0.0
C51 C 0.72837 1.00199 -0.03413 0.0
O52 O 0.63899 0.78807 0.05883 0.0
O53 O 0.59009 0.90588 0.08652 0.0
O54 O 0.51878 0.74228 0.93976 0.0
O55 O 0.48522 0.81088 -0.00143 0.0
Co56 Co 0.85521 0.57172 0.32952 0.0
O57 O 0.90018 0.46628 0.34425 0.0
O58 O 1.01186 0.63511 0.32094 0.0
C59 C 0.70877 0.45543 0.29051 0.0
O60 O 0.83766 0.69868 0.30587 0.0
Co61 Co 0.63956 0.54741 0.36262 0.0
O62 O 0.66505 0.65927 0.31912 0.0
C63 C 0.81579 0.61148 0.42424 0.0
C64 C 0.99844 0.54077 0.33325 0.0
C65 C 0.75569 0.71378 0.29921 0.0
O66 O 0.88019 0.62436 0.39216 0.0
O67 O 0.71344 0.5754 0.41985 0.0
O68 O 0.80577 0.50416 0.27309 0.0
O69 O 0.70357 0.47059 0.33189 0.0
Co70 Co 0.31274 0.84052 0.66288 0.0
O71 O 0.46319 0.88554 0.6776 0.0
O72 O 0.40597 0.99715 0.65429 0.0
C73 C 0.28261 0.69411 0.62387 0.0
O74 O 0.16821 0.82292 0.63923 0.0
Co75 Co 0.12142 0.62487 0.69599 0.0
O76 O 1.03504 0.65029 0.65246 0.0
C77 C 0.23355 0.80113 0.7576 0.0
C78 C 0.48693 0.98377 0.6666 0.0
C79 C 0.07115 0.74092 0.63255 0.0
O80 O 0.28509 0.8655 0.72551 0.0
O81 O 0.16728 0.69879 0.75321 0.0
O82 O 0.33088 0.7911 0.60644 0.0
O83 O 0.26226 0.68891 0.66524 0.0
Co84 Co 0.77529 0.57215 0.56264 0.0
O85 O 0.62561 0.46757 0.54638 0.0
O86 O 0.68129 0.63469 0.57134 0.0
C87 C 0.80462 0.45468 0.60121 0.0
O88 O 0.91832 0.69657 0.58855 0.0
Co89 Co 0.96905 0.55425 0.53046 0.0
O90 O 0.06324 0.68922 0.56294 0.0
C91 C 0.85442 0.61206 0.46834 0.0
C92 C 0.60103 0.54109 0.55798 0.0
C93 C 1.02112 0.72642 0.58959 0.0
O94 O 0.80593 0.62887 0.50051 0.0
O95 O 0.91853 0.5736 0.47294 0.0
O96 O 0.75421 0.50141 0.61845 0.0
O97 O 0.82694 0.47152 0.56001 0.0
Co98 Co 0.23238 0.76066 0.89598 0.0
O99 O 0.18732 0.61103 0.8797 0.0
O100 O 0.07581 0.66659 0.90468 0.0
C101 C 0.37921 0.79 0.93454 0.0
O102 O 0.25095 0.90362 0.92192 0.0
Co103 Co 0.44401 0.95449 0.86383 0.0
O104 O 0.40304 0.04862 0.89623 0.0
C105 C 0.2716 0.83979 0.8017 0.0
C106 C 0.08919 0.58639 0.89131 0.0
C107 C 0.3238 1.00645 0.92292 0.0
O108 O 0.20627 0.79132 0.83387 0.0
O109 O 0.37418 0.9039 0.8063 0.0
O110 O 0.28206 0.73955 -0.04822 0.0
O111 O 0.38469 0.81236 0.89335 0.0
Co112 Co 0.50098 0.21772 0.2293 0.0
O113 O 0.60557 0.17267 0.21303 0.0
O114 O 0.43846 0.06116 0.238 0.0
C115 C 0.61848 0.36455 0.26787 0.0
O116 O 0.37656 0.23629 0.25524 0.0
Co117 Co 0.51883 0.42935 0.19715 0.0
O118 O 0.38376 0.38843 0.22958 0.0
C119 C 0.46105 0.25694 0.13502 0.0
C120 C 0.53206 0.07454 0.22464 0.0
C121 C 0.34663 0.30916 0.25626 0.0
O122 O 0.44421 0.19161 0.16719 0.0
O123 O 0.49952 0.3595 0.13962 0.0
O124 O 0.57177 0.26741 0.28511 0.0
O125 O 0.6016 0.37001 0.22667 0.0
Co126 Co 0.31252 0.48637 0.56264 0.0
O127 O 0.4622 0.59096 0.54638 0.0
O128 O 0.40653 0.42383 0.57134 0.0
C129 C 0.28319 0.60383 0.60121 0.0
O130 O 0.16949 0.36195 0.58856 0.0
Co131 Co 0.11876 0.50426 0.53047 0.0
O132 O 1.02457 0.36928 0.56294 0.0
C133 C 0.23339 0.44646 0.46835 0.0
C134 C 0.48678 0.51744 0.55799 0.0
C135 C 0.06669 0.33209 0.58959 0.0
O136 O 0.28189 0.42965 0.50052 0.0
O137 O 0.16929 0.48492 0.47295 0.0
O138 O 0.3336 0.55712 0.61845 0.0
O139 O 0.26087 0.58699 0.56001 0.0
Co140 Co 0.85543 0.29786 0.89598 0.0
O141 O 0.90049 0.4475 0.8797 0.0
O142 O 1.01201 0.39193 0.90468 0.0
C143 C 0.70861 0.26852 0.93455 0.0
O144 O 0.83687 0.1549 0.92192 0.0
Co145 Co 0.64381 0.10403 0.86383 0.0
O146 O 0.68479 1.0099 0.89623 0.0
C147 C 0.81621 0.21873 0.8017 0.0
C148 C 0.99862 0.47213 0.89131 0.0
C149 C 0.76403 0.05207 0.92292 0.0
O150 O 0.88155 0.26721 0.83387 0.0
O151 O 0.71364 0.15462 0.8063 0.0
O152 O 0.80576 0.31897 -0.04822 0.0
O153 O 0.70312 0.24616 0.89335 0.0
Co154 Co 0.58685 0.84081 0.2293 0.0
O155 O 0.48225 0.88586 0.21303 0.0
O156 O 0.64936 0.99738 0.238 0.0
C157 C 0.46936 0.69399 0.26787 0.0
O158 O 0.71127 0.82225 0.25524 0.0
Co159 Co 0.56901 0.62919 0.19715 0.0
O160 O 0.70409 0.67012 0.22958 0.0
C161 C 0.62677 0.80159 0.13502 0.0
C162 C 0.55575 0.98398 0.22464 0.0
C163 C 0.74122 0.74939 0.25625 0.0
O164 O 0.64361 0.86692 0.16719 0.0
O165 O 0.5883 0.69903 0.13963 0.0
O166 O 0.51606 0.79113 0.28511 0.0
O167 O 0.48623 0.68852 0.22668 0.0
loop_
_geom_bond_atom_site_label_1
_geom_bond_atom_site_label_2
_geom_bond_distance
_geom_bond_site_symmetry_2
_ccdc_geom_bond_type
Co0 O1 2.216 . S
Co0 O2 2.091 . S
Co0 O4 2.004 . S
Co0 O10 2.021 . S
Co0 O12 2.137 1_554 S
Co0 O13 2.244 . S
O1 Co0 2.216 . S
O1 C8 1.247 . S
O2 Co0 2.091 . S
O2 C8 1.261 . S
C3 O12 1.258 . S
C3 O13 1.251 1_556 S
O4 Co0 2.004 . S
O4 C9 1.259 . S
Co5 O6 2.061 . S
Co5 O11 2.052 . S
Co5 O13 2.135 . S
O6 Co5 2.061 . S
O6 C9 1.235 . S
C7 O10 1.238 . S
C7 O11 1.241 . S
C8 O1 1.247 . S
C8 O2 1.261 . S
C9 O4 1.259 . S
C9 O6 1.235 . S
O10 Co0 2.021 . S
O10 C7 1.238 . S
O11 Co5 2.052 . S
O11 C7 1.241 . S
O12 Co0 2.137 1_556 S
O12 C3 1.258 . S
O13 Co0 2.244 . S
O13 C3 1.251 1_554 S
O13 Co5 2.135 . S
Co14 O15 2.216 . S
Co14 O16 2.091 . S
Co14 O18 2.004 . S
Co14 O24 2.021 . S
Co14 O26 2.137 . S
Co14 O27 2.244 . S
O15 Co14 2.216 . S
O15 C22 1.247 . S
O16 Co14 2.091 . S
O16 C22 1.261 . S
C17 O26 1.247 . S
C17 O27 1.272 . S
O18 Co14 2.004 . S
O18 C23 1.259 . S
Co19 O20 2.061 . S
Co19 O25 2.052 . S
Co19 O27 2.135 . S
O20 Co19 2.061 . S
O20 C23 1.235 . S
C21 O24 1.238 . S
C21 O25 1.241 . S
C22 O15 1.247 . S
C22 O16 1.261 . S
C23 O18 1.259 . S
C23 O20 1.235 . S
O24 Co14 2.021 . S
O24 C21 1.238 . S
O25 Co19 2.052 . S
O25 C21 1.241 . S
O26 Co14 2.137 . S
O26 C17 1.247 . S
O27 Co14 2.244 . S
O27 C17 1.272 . S
O27 Co19 2.135 . S
Co28 O29 2.216 . S
Co28 O30 2.091 . S
Co28 O32 2.004 . S
Co28 O38 2.021 . S
Co28 O40 2.137 . S
Co28 O41 2.244 . S
O29 Co28 2.216 . S
O29 C36 1.247 . S
O30 Co28 2.091 . S
O30 C36 1.261 . S
C31 O40 1.247 . S
C31 O41 1.272 . S
O32 Co28 2.004 . S
O32 C37 1.259 . S
Co33 O34 2.061 . S
Co33 O39 2.052 . S
Co33 O41 2.135 . S
O34 Co33 2.061 . S
O34 C37 1.235 . S
C35 O38 1.238 . S
C35 O39 1.241 . S
C36 O29 1.247 . S
C36 O30 1.261 . S
C37 O32 1.259 . S
C37 O34 1.235 . S
O38 Co28 2.021 . S
O38 C35 1.238 . S
O39 Co33 2.052 . S
O39 C35 1.241 . S
O40 Co28 2.137 . S
O40 C31 1.247 . S
O41 Co28 2.244 . S
O41 C31 1.272 . S
O41 Co33 2.135 . S
Co42 O43 2.216 . S
Co42 O44 2.091 . S
Co42 O46 2.004 . S
Co42 O52 2.021 . S
Co42 O54 2.137 1_554 S
Co42 O55 2.244 . S
O43 Co42 2.216 . S
O43 C50 1.247 . S
O44 Co42 2.091 . S
O44 C50 1.261 . S
C45 O54 1.258 . S
C45 O55 1.251 1_556 S
O46 Co42 2.004 . S
O46 C51 1.259 . S
Co47 O48 2.061 . S
Co47 O53 2.052 . S
Co47 O55 2.135 . S
O48 Co47 2.061 . S
O48 C51 1.235 . S
C49 O52 1.238 . S
C49 O53 1.241 . S
C50 O43 1.247 . S
C50 O44 1.261 . S
C51 O46 1.259 . S
C51 O48 1.235 . S
O52 Co42 2.021 . S
O52 C49 1.238 . S
O53 Co47 2.052 . S
O53 C49 1.241 . S
O54 Co42 2.137 1_556 S
O54 C45 1.258 . S
O55 Co42 2.244 . S
O55 C45 1.251 1_554 S
O55 Co47 2.135 . S
Co56 O57 2.216 . S
Co56 O58 2.091 . S
Co56 O60 2.004 . S
Co56 O66 2.021 . S
Co56 O68 2.137 . S
Co56 O69 2.244 . S
O57 Co56 2.216 . S
O57 C64 1.247 . S
O58 Co56 2.091 . S
O58 C64 1.261 . S
C59 O68 1.247 . S
C59 O69 1.272 . S
O60 Co56 2.004 . S
O60 C65 1.259 . S
Co61 O62 2.061 . S
Co61 O67 2.052 . S
Co61 O69 2.135 . S
O62 Co61 2.061 . S
O62 C65 1.235 . S
C63 O66 1.238 . S
C63 O67 1.241 . S
C64 O57 1.247 . S
C64 O58 1.261 . S
C65 O60 1.259 . S
C65 O62 1.235 . S
O66 Co56 2.021 . S
O66 C63 1.238 . S
O67 Co61 2.052 . S
O67 C63 1.241 . S
O68 Co56 2.137 . S
O68 C59 1.247 . S
O69 Co56 2.244 . S
O69 C59 1.272 . S
O69 Co61 2.135 . S
Co70 O71 2.216 . S
Co70 O72 2.091 . S
Co70 O74 2.004 . S
Co70 O80 2.021 . S
Co70 O82 2.137 . S
Co70 O83 2.244 . S
O71 Co70 2.216 . S
O71 C78 1.247 . S
O72 Co70 2.091 . S
O72 C78 1.261 . S
C73 O82 1.247 . S
C73 O83 1.272 . S
O74 Co70 2.004 . S
O74 C79 1.259 . S
Co75 O76 2.061 . S
Co75 O81 2.052 . S
Co75 O83 2.135 . S
O76 Co75 2.061 . S
O76 C79 1.235 . S
C77 O80 1.238 . S
C77 O81 1.241 . S
C78 O71 1.247 . S
C78 O72 1.261 . S
C79 O74 1.259 . S
C79 O76 1.235 . S
O80 Co70 2.021 . S
O80 C77 1.238 . S
O81 Co75 2.052 . S
O81 C77 1.241 . S
O82 Co70 2.137 . S
O82 C73 1.247 . S
O83 Co70 2.244 . S
O83 C73 1.272 . S
O83 Co75 2.135 . S
Co84 O85 2.216 . S
Co84 O86 2.091 . S
Co84 O88 2.004 . S
Co84 O94 2.021 . S
Co84 O96 2.137 . S
Co84 O97 2.244 . S
O85 Co84 2.216 . S
O85 C92 1.247 . S
O86 Co84 2.091 . S
O86 C92 1.261 . S
C87 O96 1.247 . S
C87 O97 1.272 . S
O88 Co84 2.004 . S
O88 C93 1.259 . S
Co89 O90 2.061 . S
Co89 O95 2.052 . S
Co89 O97 2.135 . S
O90 Co89 2.061 . S
O90 C93 1.235 . S
C91 O94 1.238 . S
C91 O95 1.241 . S
C92 O85 1.247 . S
C92 O86 1.261 . S
C93 O88 1.259 . S
C93 O90 1.235 . S
O94 Co84 2.021 . S
O94 C91 1.238 . S
O95 Co89 2.052 . S
O95 C91 1.241 . S
O96 Co84 2.137 . S
O96 C87 1.247 . S
O97 Co84 2.244 . S
O97 C87 1.272 . S
O97 Co89 2.135 . S
Co98 O99 2.216 . S
Co98 O100 2.091 . S
Co98 O102 2.004 . S
Co98 O108 2.021 . S
Co98 O110 2.137 1_556 S
Co98 O111 2.244 . S
O99 Co98 2.216 . S
O99 C106 1.247 . S
O100 Co98 2.091 . S
O100 C106 1.261 . S
C101 O110 1.258 . S
C101 O111 1.251 1_554 S
O102 Co98 2.004 . S
O102 C107 1.259 . S
Co103 O104 2.061 . S
Co103 O109 2.052 . S
Co103 O111 2.135 . S
O104 Co103 2.061 . S
O104 C107 1.235 . S
C105 O108 1.238 . S
C105 O109 1.241 . S
C106 O99 1.247 . S
C106 O100 1.261 . S
C107 O102 1.259 . S
C107 O104 1.235 . S
O108 Co98 2.021 . S
O108 C105 1.238 . S
O109 Co103 2.052 . S
O109 C105 1.241 . S
O110 Co98 2.137 1_554 S
O110 C101 1.258 . S
O111 Co98 2.244 . S
O111 C101 1.251 1_556 S
O111 Co103 2.135 . S
Co112 O113 2.216 . S
Co112 O114 2.091 . S
Co112 O116 2.004 . S
Co112 O122 2.021 . S
Co112 O124 2.137 . S
Co112 O125 2.244 . S
O113 Co112 2.216 . S
O113 C120 1.247 . S
O114 Co112 2.091 . S
O114 C120 1.261 . S
C115 O124 1.247 . S
C115 O125 1.272 . S
O116 Co112 2.004 . S
O116 C121 1.259 . S
Co117 O118 2.061 . S
Co117 O123 2.052 . S
Co117 O125 2.135 . S
O118 Co117 2.061 . S
O118 C121 1.235 . S
C119 O122 1.238 . S
C119 O123 1.241 . S
C120 O113 1.247 . S
C120 O114 1.261 . S
C121 O116 1.259 . S
C121 O118 1.235 . S
O122 Co112 2.021 . S
O122 C119 1.238 . S
O123 Co117 2.052 . S
O123 C119 1.241 . S
O124 Co112 2.137 . S
O124 C115 1.247 . S
O125 Co112 2.244 . S
O125 C115 1.272 . S
O125 Co117 2.135 . S
Co126 O127 2.216 . S
Co126 O128 2.091 . S
Co126 O130 2.004 . S
Co126 O136 2.021 . S
Co126 O138 2.137 . S
Co126 O139 2.244 . S
O127 Co126 2.216 . S
O127 C134 1.247 . S
O128 Co126 2.091 . S
O128 C134 1.261 . S
C129 O138 1.247 . S
C129 O139 1.272 . S
O130 Co126 2.004 . S
O130 C135 1.259 . S
Co131 O132 2.061 . S
Co131 O137 2.052 . S
Co131 O139 2.135 . S
O132 Co131 2.061 . S
O132 C135 1.235 . S
C133 O136 1.238 . S
C133 O137 1.241 . S
C134 O127 1.247 . S
C134 O128 1.261 . S
C135 O130 1.259 . S
C135 O132 1.235 . S
O136 Co126 2.021 . S
O136 C133 1.238 . S
O137 Co131 2.052 . S
O137 C133 1.241 . S
O138 Co126 2.137 . S
O138 C129 1.247 . S
O139 Co126 2.244 . S
O139 C129 1.272 . S
O139 Co131 2.135 . S
Co140 O141 2.216 . S
Co140 O142 2.091 . S
Co140 O144 2.004 . S
Co140 O150 2.021 . S
Co140 O152 2.137 1_556 S
Co140 O153 2.244 . S
O141 Co140 2.216 . S
O141 C148 1.247 . S
O142 Co140 2.091 . S
O142 C148 1.261 . S
C143 O152 1.258 . S
C143 O153 1.251 1_554 S
O144 Co140 2.004 . S
O144 C149 1.259 . S
Co145 O146 2.061 . S
Co145 O151 2.052 . S
Co145 O153 2.135 . S
O146 Co145 2.061 . S
O146 C149 1.235 . S
C147 O150 1.238 . S
C147 O151 1.241 . S
C148 O141 1.247 . S
C148 O142 1.261 . S
C149 O144 1.259 . S
C149 O146 1.235 . S
O150 Co140 2.021 . S
O150 C147 1.238 . S
O151 Co145 2.052 . S
O151 C147 1.241 . S
O152 Co140 2.137 1_554 S
O152 C143 1.258 . S
O153 Co140 2.244 . S
O153 C143 1.251 1_556 S
O153 Co145 2.135 . S
Co154 O155 2.216 . S
Co154 O156 2.091 . S
Co154 O158 2.004 . S
Co154 O164 2.021 . S
Co154 O166 2.137 . S
Co154 O167 2.244 . S
O155 Co154 2.216 . S
O155 C162 1.247 . S
O156 Co154 2.091 . S
O156 C162 1.261 . S
C157 O166 1.247 . S
C157 O167 1.272 . S
O158 Co154 2.004 . S
O158 C163 1.259 . S
Co159 O160 2.061 . S
Co159 O165 2.052 . S
Co159 O167 2.135 . S
O160 Co159 2.061 . S
O160 C163 1.235 . S
C161 O164 1.238 . S
C161 O165 1.241 . S
C162 O155 1.247 . S
C162 O156 1.261 . S
C163 O158 1.259 . S
C163 O160 1.235 . S
O164 Co154 2.021 . S
O164 C161 1.238 . S
O165 Co159 2.052 . S
O165 C161 1.241 . S
O166 Co154 2.137 . S
O166 C157 1.247 . S
O167 Co154 2.244 . S
O167 C157 1.272 . S
O167 Co159 2.135 . S
C107 C9 1.341 1_566 S
C23 C121 1.341 . S
C37 C135 1.341 1_655 S
C51 C149 1.341 1_564 S
C163 C65 1.341 . S
C93 C79 1.341 1_655 S
C143 C3 1.632 1_554 S
C17 C157 1.633 . S
C31 C87 1.633 . S
C101 C45 1.632 1_554 S
C115 C59 1.633 . S
C129 C73 1.633 . S
C7 C119 1.572 . S
C21 C133 1.572 . S
C147 C35 1.572 . S
C49 C161 1.572 . S
C91 C63 1.572 . S
C105 C77 1.572 . S
C50 C8 1.685 . S
C64 C22 1.685 1_655 S
C36 C78 1.685 1_545 S
C92 C134 1.685 . S
C106 C148 1.685 1_455 S
C162 C120 1.685 1_565 S
