# Generated by pormake.
# Topology pcu, (6)-cn, num edge types: 1
# Building blocks:
#     Node 0, Type 0, BuildingBlock: KUMBOL_clean_sbu_0, # of connection points: 6
#     Edge 1, Type (0, 0), BuildingBlock: OJICUG_clean_linker_0, # of connection points: 2
#     Edge 2, Type (0, 0), BuildingBlock: OJICUG_clean_linker_0, # of connection points: 2
#     Edge 3, Type (0, 0), BuildingBlock: OJICUG_clean_linker_0, # of connection points: 2
# Relax obj value: 0.000
# Max RMSD: 0.000
# Mean RMSD: 0.000
data_MOF--net-pcu--node1-KUMBOL_clean_sbu_0--edge1-OJICUG_clean_linker_0
_symmetry_space_group_name_H-M    P1
_symmetry_Int_Tables_number       1
_symmetry_cell_setting            triclinic
loop_
_symmetry_equiv_pos_as_xyz
'x, y, z'
_cell_length_a     20.480361
_cell_length_b     9.8600047
_cell_length_c     11.127102
_cell_angle_alpha  76.017905
_cell_angle_beta   116.13217
_cell_angle_gamma 112.74409
loop_
_atom_site_label
_atom_site_type_symbol
_atom_site_fract_x
_atom_site_fract_y
_atom_site_fract_z
_atom_type_partial_charge
Gd0 Gd 0.12765 0.09915 0.06006 0.0
Gd1 Gd 0.91561 0.92003 0.93811 0.0
C2 C 0.80014 0.44101 0.83472 0.0
C3 C 0.73074 0.46806 0.59284 0.0
C4 C 0.8057 0.68466 0.71931 0.0
C5 C 0.82753 0.59581 0.83664 0.0
C6 C 0.75588 0.62192 0.59633 0.0
C7 C 0.75293 0.37774 0.71187 0.0
C8 C 0.8197 0.35449 0.9567 0.0
C9 C 0.86319 0.42233 0.07674 0.0
N10 N 0.87296 0.66052 0.95354 0.0
C11 C 0.88872 0.57637 0.07344 0.0
H12 H 0.92274 0.62753 0.16683 0.0
C13 C 0.80447 0.92387 0.61614 0.0
N14 N 0.83086 0.83258 0.72652 0.0
C15 C 0.75539 0.86706 0.49163 0.0
C16 C 0.73158 0.71555 0.48127 0.0
H17 H 0.82309 0.04114 0.62367 0.0
H18 H 0.73196 0.25903 0.70829 0.0
H19 H 0.12061 0.39163 0.83129 0.0
H20 H 0.80034 0.2355 0.95942 0.0
H21 H 0.87751 0.35615 0.17178 0.0
H22 H 0.69296 0.41772 0.49916 0.0
H23 H 0.22009 0.97809 0.3746 0.0
H24 H 0.24299 0.7837 0.03863 0.0
H25 H 0.16587 0.66301 0.82629 0.0
H26 H 0.35026 0.60156 0.49895 0.0
H27 H 0.7361 0.94018 0.40387 0.0
H28 H 0.69337 0.67181 0.38475 0.0
H29 H 0.31132 0.76022 0.28977 0.0
H30 H 0.30703 0.07909 0.59439 0.0
N31 N 0.17034 0.35867 0.04459 0.0
C32 C 0.22363 0.66471 0.04137 0.0
C33 C 0.18016 0.59684 0.92134 0.0
C34 C 0.24315 0.57821 0.16337 0.0
C35 C 0.21575 0.4234 0.16148 0.0
C36 C 0.15462 0.4428 0.92467 0.0
N37 N 0.21236 0.18664 0.27167 0.0
C38 C 0.23753 0.33457 0.27884 0.0
C39 C 0.28777 0.15219 0.5066 0.0
C40 C 0.31159 0.30371 0.51691 0.0
C41 C 0.23871 0.09536 0.38209 0.0
C42 C 0.28734 0.39733 0.40182 0.0
H43 H 0.34979 0.34747 0.61343 0.0
O44 O 0.21761 1.00869 0.10368 0.0
O45 O 0.0291 0.89709 0.99604 0.0
O46 O 0.97504 0.89752 0.16702 0.0
O47 O 0.09096 0.09177 0.22487 0.0
O48 O 0.12604 0.86567 0.15054 0.0
O49 O 0.19556 0.17701 0.93801 0.0
O50 O 0.82564 0.01042 0.89456 0.0
O51 O 1.01414 0.12196 0.00186 0.0
O52 O 0.06825 0.12168 0.83114 0.0
O53 O 0.95225 0.92756 0.7732 0.0
O54 O 0.91718 0.15362 0.84783 0.0
O55 O 0.84775 0.84213 0.06026 0.0
C56 C 0.0572 0.79928 0.07161 0.0
C57 C 0.31249 0.55119 0.40528 0.0
C58 C 0.29034 0.6415 0.28622 0.0
C59 C 0.23896 0.09474 0.00935 0.0
C60 C 0.32194 0.16507 0.04626 0.0
C61 C 0.36213 0.29468 0.11276 0.0
C62 C 0.36171 0.09823 0.01673 0.0
C63 C 0.44168 0.15876 0.05421 0.0
C64 C 0.44157 0.35643 0.14952 0.0
C65 C 0.48132 0.28891 0.12093 0.0
C66 C 0.03227 0.99375 0.25215 0.0
C67 C 0.98609 0.21994 0.92659 0.0
C68 C 0.80432 0.92437 0.98893 0.0
C69 C 0.72135 0.85402 0.95208 0.0
C70 C 0.68116 0.72435 0.88565 0.0
C71 C 0.68158 0.9209 0.98156 0.0
C72 C 0.60161 0.86035 0.94411 0.0
C73 C 0.60173 0.6626 0.84891 0.0
C74 C 0.56197 0.73016 0.87745 0.0
C75 C 1.01096 0.02557 0.74593 0.0
H76 H 0.3323 0.34765 0.13636 0.0
H77 H 0.33037 0.99721 0.96656 0.0
H78 H 0.47247 0.45667 0.20064 0.0
H79 H 0.54283 0.33918 0.14987 0.0
H80 H 0.71099 0.67135 0.86208 0.0
H81 H 0.71292 0.02196 0.03166 0.0
H82 H 0.57082 0.56232 0.79784 0.0
H83 H 0.50047 0.67988 0.84854 0.0
C84 C 0.96817 0.89595 0.4168 0.0
C85 C 0.02806 0.99885 0.38049 0.0
H86 H 0.91554 0.8239 0.55948 0.0
C87 C 0.08136 0.11282 0.4641 0.0
H88 H 0.9259 0.80711 0.35473 0.0
C89 C 0.07504 0.12341 0.58126 0.0
C90 C 1.01515 0.02051 0.61757 0.0
H91 H 0.12766 0.19546 0.43858 0.0
H92 H 0.11731 0.21225 0.64333 0.0
C93 C 0.96184 0.90655 0.53395 0.0
C94 C 0.45188 0.02362 0.90194 0.0
C95 C 0.48324 0.08412 0.02541 0.0
H96 H 0.46476 0.90672 0.77902 0.0
C97 C 0.55349 0.06932 0.12231 0.0
H98 H 0.39833 0.03475 0.82462 0.0
C99 C 0.59142 0.99553 0.09635 0.0
C100 C 0.56006 0.93502 0.97289 0.0
H101 H 0.57854 0.11242 0.21928 0.0
H102 H 0.64497 0.9844 0.17366 0.0
C103 C 0.4898 0.94982 0.87598 0.0
C104 C 1.00286 0.62022 0.89865 0.0
C105 C 0.03668 0.65005 0.03418 0.0
H106 H 0.95992 0.45969 0.75893 0.0
C107 C 0.05649 0.53883 0.13425 0.0
H108 H 0.98933 0.70463 0.81892 0.0
C109 C 0.04054 0.39902 0.09964 0.0
C110 C 1.00673 0.3692 0.9641 0.0
H111 H 0.08348 0.55957 0.23936 0.0
H112 H 0.05404 0.3146 0.17936 0.0
C113 C 0.98693 0.48043 0.86404 0.0
loop_
_geom_bond_atom_site_label_1
_geom_bond_atom_site_label_2
_geom_bond_distance
_geom_bond_site_symmetry_2
_ccdc_geom_bond_type
Gd0 N31 2.661 1_554 S
Gd0 N37 2.601 . S
Gd0 O44 2.545 . S
Gd0 O45 2.606 1_444 S
Gd0 O47 2.429 1_545 S
Gd0 O48 2.545 1_545 S
Gd0 O49 2.412 . S
Gd0 O51 2.362 . S
Gd0 O52 2.324 1_554 S
Gd0 C59 2.828 . S
Gd1 N10 2.661 1_556 S
Gd1 N14 2.601 . S
Gd1 O45 2.362 . S
Gd1 O46 2.324 1_556 S
Gd1 O50 2.545 . S
Gd1 O51 2.606 1_666 S
Gd1 O53 2.429 1_565 S
Gd1 O54 2.545 1_565 S
Gd1 O55 2.412 . S
Gd1 C68 2.828 . S
C2 C5 1.417 . S
C2 C7 1.431 . S
C2 C8 1.412 1_556 S
C3 C6 1.437 . S
C3 C7 1.317 . S
C3 H22 0.929 . S
C4 C5 1.426 . S
C4 C6 1.413 . S
C4 N14 1.359 . S
C5 C2 1.417 . S
C5 C4 1.426 . S
C5 N10 1.350 1_556 S
C6 C3 1.437 . S
C6 C4 1.413 . S
C6 C16 1.391 . S
C7 C2 1.431 . S
C7 C3 1.317 . S
C7 H18 0.930 . S
C8 C2 1.412 1_554 S
C8 C9 1.355 . S
C8 H20 0.930 . S
C9 C8 1.355 . S
C9 C11 1.402 . S
C9 H21 0.930 . S
N10 Gd1 2.661 1_554 S
N10 C5 1.350 1_554 S
N10 C11 1.307 . S
C11 C9 1.402 . S
C11 N10 1.307 . S
C11 H12 0.930 . S
H12 C11 0.930 . S
C13 N14 1.334 . S
C13 C15 1.394 . S
C13 H17 0.930 . S
N14 Gd1 2.601 . S
N14 C4 1.359 . S
N14 C13 1.334 . S
C15 C13 1.394 . S
C15 C16 1.359 . S
C15 H27 0.930 . S
C16 C6 1.391 . S
C16 C15 1.359 . S
C16 H28 0.929 . S
H17 C13 0.930 . S
H18 C7 0.930 . S
H19 C36 0.930 . S
H20 C8 0.930 . S
H21 C9 0.930 . S
H22 C3 0.929 . S
H23 C41 0.930 . S
H24 C32 0.930 . S
H25 C33 0.930 . S
H26 C57 0.929 . S
H27 C15 0.930 . S
H28 C16 0.929 . S
H29 C58 0.930 . S
H30 C39 0.930 . S
N31 Gd0 2.661 1_556 S
N31 C35 1.350 1_556 S
N31 C36 1.307 . S
C32 H24 0.930 . S
C32 C33 1.355 . S
C32 C34 1.412 1_556 S
C33 H25 0.930 . S
C33 C32 1.355 . S
C33 C36 1.402 . S
C34 C32 1.412 1_554 S
C34 C35 1.417 . S
C34 C58 1.431 . S
C35 N31 1.350 1_554 S
C35 C34 1.417 . S
C35 C38 1.426 . S
C36 H19 0.930 . S
C36 N31 1.307 . S
C36 C33 1.402 . S
N37 Gd0 2.601 . S
N37 C38 1.359 . S
N37 C41 1.334 . S
C38 C35 1.426 . S
C38 N37 1.359 . S
C38 C42 1.413 . S
C39 H30 0.930 . S
C39 C40 1.359 . S
C39 C41 1.394 . S
C40 C39 1.359 . S
C40 C42 1.391 . S
C40 H43 0.929 . S
C41 H23 0.930 . S
C41 N37 1.334 . S
C41 C39 1.394 . S
C42 C38 1.413 . S
C42 C40 1.391 . S
C42 C57 1.437 . S
H43 C40 0.929 . S
O44 Gd0 2.545 . S
O44 C59 1.258 . S
O45 Gd0 2.606 1_666 S
O45 Gd1 2.362 . S
O45 C56 1.284 1_656 S
O46 Gd1 2.324 1_554 S
O46 C66 1.254 1_655 S
O47 Gd0 2.429 1_565 S
O47 C66 1.268 . S
O48 Gd0 2.545 1_565 S
O48 C56 1.250 . S
O49 Gd0 2.412 . S
O49 C59 1.252 . S
O50 Gd1 2.545 . S
O50 C68 1.258 . S
O51 Gd0 2.362 . S
O51 Gd1 2.606 1_444 S
O51 C67 1.284 1_454 S
O52 Gd0 2.324 1_556 S
O52 C75 1.254 1_455 S
O53 Gd1 2.429 1_545 S
O53 C75 1.268 . S
O54 Gd1 2.545 1_545 S
O54 C67 1.250 . S
O55 Gd1 2.412 . S
O55 C68 1.252 . S
C56 O45 1.284 1_454 S
C56 O48 1.250 . S
C57 H26 0.929 . S
C57 C42 1.437 . S
C57 C58 1.317 . S
C58 H29 0.930 . S
C58 C34 1.431 . S
C58 C57 1.317 . S
C59 Gd0 2.828 . S
C59 O44 1.258 . S
C59 O49 1.252 . S
C59 C60 1.497 . S
C60 C59 1.497 . S
C60 C61 1.395 . S
C60 C62 1.380 . S
C61 C60 1.395 . S
C61 C64 1.398 . S
C61 H76 0.930 . S
C62 C60 1.380 . S
C62 C63 1.391 . S
C62 H77 0.930 1_554 S
C63 C62 1.391 . S
C63 C65 1.387 . S
C64 C61 1.398 . S
C64 C65 1.380 . S
C64 H78 0.930 . S
C65 C63 1.387 . S
C65 C64 1.380 . S
C65 H79 0.930 . S
C66 O46 1.254 1_455 S
C66 O47 1.268 . S
C67 O51 1.284 1_656 S
C67 O54 1.250 . S
C68 Gd1 2.828 . S
C68 O50 1.258 . S
C68 O55 1.252 . S
C68 C69 1.497 . S
C69 C68 1.497 . S
C69 C70 1.395 . S
C69 C71 1.380 . S
C70 C69 1.395 . S
C70 C73 1.398 . S
C70 H80 0.930 . S
C71 C69 1.380 . S
C71 C72 1.391 . S
C71 H81 0.930 1_556 S
C72 C71 1.391 . S
C72 C74 1.387 . S
C73 C70 1.398 . S
C73 C74 1.380 . S
C73 H82 0.930 . S
C74 C72 1.387 . S
C74 C73 1.380 . S
C74 H83 0.930 . S
C75 O52 1.254 1_655 S
C75 O53 1.268 . S
H76 C61 0.930 . S
H77 C62 0.930 1_556 S
H78 C64 0.930 . S
H79 C65 0.930 . S
H80 C70 0.930 . S
H81 C71 0.930 1_554 S
H82 C73 0.930 . S
H83 C74 0.930 . S
C84 C85 1.387 . S
C84 H88 0.950 . S
C84 C93 1.390 . S
C85 C84 1.387 . S
C85 C87 1.389 1_665 S
H86 C93 0.950 . S
C87 C85 1.389 1_445 S
C87 C89 1.390 . S
C87 H91 0.950 . S
H88 C84 0.950 . S
C89 C87 1.390 . S
C89 C90 1.389 . S
C89 H92 0.950 . S
C90 C89 1.389 . S
C90 C93 1.389 1_445 S
H91 C87 0.950 . S
H92 C89 0.950 . S
C93 C84 1.390 . S
C93 H86 0.950 . S
C93 C90 1.389 1_665 S
C94 C95 1.388 1_545 S
C94 H98 0.950 . S
C94 C103 1.390 . S
C95 C94 1.388 1_565 S
C95 C97 1.389 1_556 S
H96 C103 0.950 . S
C97 C95 1.389 1_554 S
C97 C99 1.390 . S
C97 H101 0.950 . S
H98 C94 0.950 . S
C99 C97 1.390 . S
C99 C100 1.390 1_565 S
C99 H102 0.950 . S
C100 C99 1.390 1_545 S
C100 C103 1.390 1_554 S
H101 C97 0.950 . S
H102 C99 0.950 . S
C103 C94 1.390 . S
C103 H96 0.950 . S
C103 C100 1.390 1_556 S
C104 C105 1.386 . S
C104 H108 0.950 . S
C104 C113 1.390 . S
C105 C104 1.386 . S
C105 C107 1.388 1_656 S
H106 C113 0.950 . S
C107 C105 1.388 1_454 S
C107 C109 1.390 . S
C107 H111 0.950 . S
H108 C104 0.950 . S
C109 C107 1.390 . S
C109 C110 1.386 . S
C109 H112 0.950 . S
C110 C109 1.386 . S
C110 C113 1.386 1_454 S
H111 C107 0.950 . S
H112 C109 0.950 . S
C113 C104 1.390 . S
C113 H106 0.950 . S
C113 C110 1.386 1_656 S
C85 C66 1.471 1_655 S
C90 C75 1.469 1_455 S
C95 C63 1.323 1_566 S
C100 C72 1.320 1_544 S
C105 C56 1.437 1_656 S
C110 C67 1.438 1_454 S
