# Generated by pormake.
# Topology ilc, (8)-cn, num edge types: 1
# Building blocks:
#     Node 0, Type 0, BuildingBlock: TAGTUT_clean_sbu_1, # of connection points: 8
#     Node 1, Type 0, BuildingBlock: TAGTUT_clean_sbu_1, # of connection points: 8
#     Node 2, Type 0, BuildingBlock: TAGTUT_clean_sbu_1, # of connection points: 8
#     Edge 3, Type (0, 0), BuildingBlock: OJICUG_clean_linker_0, # of connection points: 2
#     Edge 4, Type (0, 0), BuildingBlock: OJICUG_clean_linker_0, # of connection points: 2
#     Edge 5, Type (0, 0), BuildingBlock: OJICUG_clean_linker_0, # of connection points: 2
#     Edge 6, Type (0, 0), BuildingBlock: OJICUG_clean_linker_0, # of connection points: 2
#     Edge 7, Type (0, 0), BuildingBlock: OJICUG_clean_linker_0, # of connection points: 2
#     Edge 8, Type (0, 0), BuildingBlock: OJICUG_clean_linker_0, # of connection points: 2
#     Edge 9, Type (0, 0), BuildingBlock: OJICUG_clean_linker_0, # of connection points: 2
#     Edge 10, Type (0, 0), BuildingBlock: OJICUG_clean_linker_0, # of connection points: 2
#     Edge 11, Type (0, 0), BuildingBlock: OJICUG_clean_linker_0, # of connection points: 2
#     Edge 12, Type (0, 0), BuildingBlock: OJICUG_clean_linker_0, # of connection points: 2
#     Edge 13, Type (0, 0), BuildingBlock: OJICUG_clean_linker_0, # of connection points: 2
#     Edge 14, Type (0, 0), BuildingBlock: OJICUG_clean_linker_0, # of connection points: 2
# Relax obj value: 0.144
# Max RMSD: 0.143
# Mean RMSD: 0.143
data_MOF--net-ilc--node1-TAGTUT_clean_sbu_1--edge1-OJICUG_clean_linker_0
_symmetry_space_group_name_H-M    P1
_symmetry_Int_Tables_number       1
_symmetry_cell_setting            triclinic
loop_
_symmetry_equiv_pos_as_xyz
'x, y, z'
_cell_length_a     19.739694
_cell_length_b     22.137679
_cell_length_c     12.125721
_cell_angle_alpha  102.59013
_cell_angle_beta   80.97368
_cell_angle_gamma 138.84871
loop_
_atom_site_label
_atom_site_type_symbol
_atom_site_fract_x
_atom_site_fract_y
_atom_site_fract_z
_atom_type_partial_charge
C0 C 0.15556 0.90481 0.15434 0.0
C1 C 0.11374 0.06526 0.27804 0.0
C2 C 0.81655 0.90136 0.06699 0.0
Mg3 Mg 0.22613 0.06919 0.07266 0.0
O4 O 0.09552 0.97702 0.00314 0.0
Mg5 Mg 0.96959 0.87658 0.08455 0.0
Mg6 Mg 0.0438 1.01392 0.9421 0.0
O7 O 0.99251 0.0506 0.87304 0.0
Mg8 Mg 0.84507 0.96829 0.84271 0.0
Mg9 Mg 0.12795 0.15732 0.78702 0.0
C10 C 0.28414 0.14768 0.84408 0.0
C11 C 0.13933 0.20986 0.06978 0.0
O12 O 0.06067 0.856 0.14155 0.0
O13 O 0.2304 0.9857 0.12547 0.0
O14 O 1.03393 0.9814 0.23682 0.0
O15 O 0.20069 0.11878 0.2282 0.0
O16 O 0.3107 0.13689 0.9215 0.0
O17 O 0.19936 0.12153 0.8505 0.0
C18 C 0.93176 0.80767 0.81209 0.0
O19 O 0.97535 0.88779 0.8037 0.0
O20 O 0.91892 0.78524 0.9089 0.0
O21 O 1.03345 0.17431 0.7297 0.0
O22 O 0.869 0.07014 0.79238 0.0
O23 O 0.98044 1.00519 0.77358 0.0
C24 C 0.94324 0.13913 0.73977 0.0
O25 O 0.83317 0.89176 0.68491 0.0
O26 O 0.78882 0.91839 0.00187 0.0
C27 C 0.93094 0.95476 0.68034 0.0
O28 O 0.88989 0.91045 0.0389 0.0
O29 O 0.11055 0.13681 0.08133 0.0
O30 O 0.14476 0.22647 -0.02809 0.0
C31 C 0.83179 0.24643 0.4818 0.0
C32 C 0.77939 0.39817 0.61827 0.0
C33 C 0.49027 0.2404 0.41097 0.0
Mg34 Mg 0.89788 0.41122 0.41045 0.0
O35 O 0.76701 0.3164 0.34123 0.0
Mg36 Mg 0.64179 0.21373 0.42126 0.0
Mg37 Mg 0.7118 0.3492 0.27892 0.0
O38 O 0.65675 0.38298 0.20995 0.0
Mg39 Mg 0.50764 0.29788 0.18233 0.0
Mg40 Mg 0.7904 0.48835 0.12075 0.0
C41 C 0.94895 0.48072 0.17528 0.0
C42 C 0.80818 0.54574 0.404 0.0
O43 O 0.73647 0.19697 0.47242 0.0
O44 O 0.9056 0.32845 0.4562 0.0
O45 O 0.70196 0.31484 0.57391 0.0
O46 O 0.86707 0.4553 0.56993 0.0
O47 O 0.97847 0.47375 0.2543 0.0
O48 O 0.86539 0.45654 0.18465 0.0
C49 C 0.60663 0.14475 0.15215 0.0
O50 O 0.64641 0.22317 0.14264 0.0
O51 O 0.59384 0.123 0.249 0.0
O52 O 0.69203 0.50052 0.06093 0.0
O53 O 0.52682 0.39459 0.12125 0.0
O54 O 0.64388 0.33602 0.11359 0.0
C55 C 0.60063 0.463 0.0674 0.0
O56 O 0.49551 0.21774 0.02867 0.0
O57 O 0.45945 0.25561 0.34734 0.0
C58 C 0.59322 0.2817 0.02205 0.0
O59 O 0.55964 0.24514 0.37717 0.0
O60 O 0.77713 0.47167 0.41558 0.0
O61 O 0.81351 0.56232 0.30593 0.0
C62 C 0.49118 0.56153 0.786 0.0
C63 C 0.45998 0.72549 0.92774 0.0
C64 C 0.14955 0.56186 0.73696 0.0
Mg65 Mg 0.5603 0.72869 0.71846 0.0
O66 O 0.42787 0.63755 0.65176 0.0
Mg67 Mg 0.30587 0.53889 0.73854 0.0
Mg68 Mg 0.37481 0.67977 0.61169 0.0
O69 O 0.32307 0.72374 0.57256 0.0
Mg70 Mg 0.18843 0.6338 0.51317 0.0
Mg71 Mg 0.44431 0.81937 0.48246 0.0
C72 C 0.60871 0.80973 0.50055 0.0
C73 C 0.5009 0.89109 0.74578 0.0
O74 O 0.39633 0.51406 0.7787 0.0
O75 O 0.56568 0.6431 0.75912 0.0
O76 O 0.38083 0.64347 0.88272 0.0
O77 O 0.54659 0.78197 0.87879 0.0
O78 O 0.63981 0.80006 0.57314 0.0
O79 O 0.52243 0.78163 0.51342 0.0
C80 C 0.25132 0.46985 0.47342 0.0
O81 O 0.29202 0.54965 0.46729 0.0
O82 O 0.24594 0.44889 0.56751 0.0
O83 O 0.35516 0.84492 0.43749 0.0
O84 O 0.18584 0.71938 0.46344 0.0
O85 O 0.3638 0.70935 0.34394 0.0
C86 C 0.26073 0.79877 0.43076 0.0
O87 O 0.19699 0.57368 0.35643 0.0
O88 O 0.11843 0.57412 0.66846 0.0
C89 C 0.28228 0.62628 0.30411 0.0
O90 O 0.22678 0.57658 0.71157 0.0
O91 O 0.45818 0.81059 0.75333 0.0
O92 O 0.50747 0.91228 0.65113 0.0
C93 C 0.08312 0.03244 0.56191 0.0
C94 C 0.98681 0.99662 0.57971 0.0
H95 H 0.20849 0.09366 0.44865 0.0
C96 C 0.95597 1.01781 0.51463 0.0
H97 H 0.11045 0.02088 0.61582 0.0
C98 C 1.01587 0.06543 0.42408 0.0
C99 C 0.10416 0.08814 0.39589 0.0
H100 H 0.88531 0.99646 0.53271 0.0
H101 H 0.98552 0.07223 0.36681 0.0
C102 C 0.14206 0.07866 0.47045 0.0
C103 C 0.67586 0.39012 0.76519 0.0
C104 C 0.76569 0.41508 0.73708 0.0
H105 H 0.54538 0.32041 0.87374 0.0
C106 C 0.80172 0.40226 0.80905 0.0
H107 H 0.64462 0.3966 0.70894 0.0
C108 C 0.74259 0.35517 0.89999 0.0
C109 C 0.64682 0.32022 0.91922 0.0
H110 H 0.86737 0.41633 0.78581 0.0
H111 H 0.76971 0.34289 0.95293 0.0
C112 C 0.6159 0.34161 0.85497 0.0
C113 C 0.36617 0.7249 0.07193 0.0
C114 C 0.44792 0.73787 0.04633 0.0
H115 H 0.2231 0.64893 0.15464 0.0
C116 C 0.45389 0.69141 0.0988 0.0
H117 H 0.35842 0.75812 0.03027 0.0
C118 C 0.37003 0.62037 0.15814 0.0
C119 C 0.28945 0.60887 0.18543 0.0
H120 H 0.51528 0.69894 0.07814 0.0
H121 H 0.37699 0.58641 0.19942 0.0
C122 C 0.28304 0.65471 0.13229 0.0
C123 C 0.31142 0.90762 0.31055 0.0
C124 C 0.23469 0.82963 0.36604 0.0
H125 H 0.34703 0.99093 0.19871 0.0
C126 C 0.13089 0.77423 0.34721 0.0
H127 H 0.39188 0.95112 0.3211 0.0
C128 C 0.10472 0.79611 0.27513 0.0
C129 C 0.18148 0.87422 0.21987 0.0
H130 H 0.06911 0.71279 0.38699 0.0
H131 H 1.02426 0.75238 0.26407 0.0
C132 C 0.28526 0.92961 0.23872 0.0
C133 C 0.19087 0.40125 0.26845 0.0
C134 C 0.21879 0.40244 0.36933 0.0
H135 H 0.14439 0.34022 0.09426 0.0
C136 C 0.21886 0.3391 0.37033 0.0
H137 H 0.187 0.44684 0.26536 0.0
C138 C 0.19391 0.2779 0.27324 0.0
C139 C 0.16671 0.27666 0.17207 0.0
H140 H 0.2407 0.338 0.44583 0.0
H141 H 0.19861 0.23316 0.27714 0.0
C142 C 0.16571 0.33947 0.17057 0.0
C143 C 0.73446 0.83405 0.36269 0.0
C144 C 0.66678 0.83957 0.3929 0.0
H145 H 0.83209 0.84583 0.23641 0.0
C146 C 0.64792 0.86341 0.31425 0.0
H147 H 0.74938 0.81379 0.42016 0.0
C148 C 0.69604 0.88212 0.20904 0.0
C149 C 0.7633 0.87606 0.17815 0.0
H150 H 0.59551 0.86706 0.33347 0.0
H151 H 0.67985 0.90138 0.15164 0.0
C152 C 0.78183 0.85181 0.25673 0.0
C153 C 0.78642 0.14493 0.60828 0.0
C154 C 0.85882 0.21423 0.53978 0.0
H155 H 0.75678 0.06953 0.72744 0.0
C156 C 0.96049 0.26016 0.53861 0.0
H157 H 0.70794 0.10905 0.6126 0.0
C158 C 0.98913 0.23759 0.60507 0.0
C159 C 0.9171 0.16957 0.67544 0.0
H160 H 1.01825 0.31422 0.48697 0.0
H161 H 0.06734 0.27298 0.60082 0.0
C162 C 0.81524 0.12333 0.67565 0.0
C163 C 0.82361 0.59128 0.61469 0.0
C164 C 0.83841 0.61339 0.50711 0.0
H165 H 0.84153 0.63346 0.79355 0.0
C166 C 0.88275 0.70025 0.50046 0.0
H167 H 0.78895 0.52534 0.62299 0.0
C168 C 0.91227 0.76306 0.59914 0.0
C169 C 0.8981 0.74055 0.70691 0.0
H170 H 0.89543 0.72012 0.41921 0.0
H171 H 0.94698 0.82951 0.59066 0.0
C172 C 0.85324 0.65359 0.71292 0.0
C173 C 0.448 0.17975 0.5945 0.0
C174 C 0.44451 0.22097 0.52611 0.0
H175 H 0.40078 0.12528 0.74971 0.0
C176 C 0.39552 0.24536 0.56871 0.0
H177 H 0.4854 0.16065 0.56522 0.0
C178 C 0.34675 0.22482 0.67336 0.0
C179 C 0.34704 0.18085 0.74002 0.0
H180 H 0.39288 0.27918 0.52 0.0
H181 H 0.30754 0.24225 0.70124 0.0
C182 C 0.39974 0.15992 0.70039 0.0
C183 C 0.46926 0.4334 -0.02161 0.0
C184 C 0.57338 0.48924 -0.00428 0.0
H185 H 0.36127 0.41018 0.89654 0.0
C186 C 0.64896 0.56427 0.93567 0.0
H187 H 0.40821 0.37368 0.02123 0.0
C188 C 0.62161 0.58431 0.86236 0.0
C189 C 0.5177 0.52978 0.84706 0.0
H190 H 0.72944 0.60803 0.94605 0.0
H191 H 0.68254 0.64432 0.81998 0.0
C192 C 0.44184 0.45328 0.90502 0.0
C193 C 0.55832 0.03621 0.84396 0.0
C194 C 0.53463 0.95895 0.84946 0.0
H195 H 0.59845 0.15426 0.93404 0.0
C196 C 0.53729 0.94494 -0.04464 0.0
H197 H 0.55745 0.0499 0.76401 0.0
C198 C 0.55879 1.00404 0.05383 0.0
C199 C 0.58038 0.08008 0.04835 0.0
H200 H 0.52277 0.88839 -0.03775 0.0
H201 H 0.55949 0.99052 0.13407 0.0
C202 C 0.58117 0.09603 0.94195 0.0
C203 C 0.10149 0.49851 0.92021 0.0
C204 C 0.10008 0.54047 0.85041 0.0
H205 H 0.05415 0.44637 0.07754 0.0
C206 C 0.05371 0.56752 0.89197 0.0
H207 H 0.13756 0.478 0.89202 0.0
C208 C 1.00707 0.55048 -0.00198 0.0
C209 C 1.00665 0.50714 0.06703 0.0
H210 H 0.05279 0.6019 0.84192 0.0
H211 H 0.97081 0.57086 0.02565 0.0
C212 C 0.05432 0.48119 0.02686 0.0
loop_
_geom_bond_atom_site_label_1
_geom_bond_atom_site_label_2
_geom_bond_distance
_geom_bond_site_symmetry_2
_ccdc_geom_bond_type
C0 O12 1.241 . S
C0 O13 1.280 . S
C1 O14 1.277 1_445 S
C1 O15 1.245 . S
C2 O26 1.247 1_554 S
C2 O28 1.289 . S
Mg3 O4 1.926 1_545 S
Mg3 O13 1.984 1_545 S
Mg3 O15 1.988 . S
Mg3 O16 2.061 . S
O4 Mg3 1.926 1_565 S
O4 Mg5 1.986 1_455 S
O4 Mg6 1.917 1_565 S
Mg5 O4 1.986 1_655 S
Mg5 O12 2.042 1_655 S
Mg5 O14 2.041 . S
Mg5 O20 2.038 . S
Mg5 O28 2.238 . S
Mg6 O4 1.917 1_545 S
Mg6 O7 1.917 1_454 S
Mg6 O17 2.106 1_554 S
Mg6 O19 2.079 1_444 S
Mg6 O28 2.106 1_445 S
Mg6 O29 2.079 . S
O7 Mg6 1.917 1_656 S
O7 Mg8 1.926 1_545 S
O7 Mg9 1.986 1_655 S
Mg8 O7 1.926 1_565 S
Mg8 O22 1.984 1_565 S
Mg8 O25 1.988 . S
Mg8 O26 2.061 . S
Mg9 O7 1.986 1_455 S
Mg9 O17 2.238 . S
Mg9 O21 2.042 1_455 S
Mg9 O23 2.041 . S
Mg9 O30 2.038 . S
C10 O16 1.247 1_556 S
C10 O17 1.289 . S
C11 O29 1.245 . S
C11 O30 1.274 1_554 S
O12 C0 1.241 . S
O12 Mg5 2.042 1_455 S
O13 C0 1.280 . S
O13 Mg3 1.984 1_565 S
O14 C1 1.277 1_665 S
O14 Mg5 2.041 . S
O15 C1 1.245 . S
O15 Mg3 1.988 . S
O16 Mg3 2.061 . S
O16 C10 1.247 1_554 S
O17 Mg6 2.106 1_556 S
O17 Mg9 2.238 . S
O17 C10 1.289 . S
C18 O19 1.245 . S
C18 O20 1.274 1_556 S
O19 Mg6 2.079 1_666 S
O19 C18 1.245 . S
O20 Mg5 2.038 . S
O20 C18 1.274 1_554 S
O21 Mg9 2.042 1_655 S
O21 C24 1.241 . S
O22 Mg8 1.984 1_545 S
O22 C24 1.280 . S
O23 Mg9 2.041 . S
O23 C27 1.277 1_445 S
C24 O21 1.241 . S
C24 O22 1.280 . S
O25 Mg8 1.988 . S
O25 C27 1.245 . S
O26 C2 1.247 1_556 S
O26 Mg8 2.061 . S
C27 O23 1.277 1_665 S
C27 O25 1.245 . S
O28 C2 1.289 . S
O28 Mg5 2.238 . S
O28 Mg6 2.106 1_665 S
O29 Mg6 2.079 . S
O29 C11 1.245 . S
O30 Mg9 2.038 . S
O30 C11 1.274 1_556 S
C31 O43 1.241 . S
C31 O44 1.280 . S
C32 O45 1.277 . S
C32 O46 1.245 . S
C33 O57 1.247 . S
C33 O59 1.289 . S
Mg34 O35 1.926 . S
Mg34 O44 1.984 . S
Mg34 O46 1.988 . S
Mg34 O47 2.061 . S
O35 Mg34 1.926 . S
O35 Mg36 1.986 . S
O35 Mg37 1.917 . S
Mg36 O35 1.986 . S
Mg36 O43 2.042 . S
Mg36 O45 2.041 . S
Mg36 O51 2.038 . S
Mg36 O59 2.238 . S
Mg37 O35 1.917 . S
Mg37 O38 1.917 . S
Mg37 O48 2.106 . S
Mg37 O50 2.079 . S
Mg37 O59 2.106 . S
Mg37 O60 2.079 . S
O38 Mg37 1.917 . S
O38 Mg39 1.926 . S
O38 Mg40 1.986 . S
Mg39 O38 1.926 . S
Mg39 O53 1.984 . S
Mg39 O56 1.988 1_554 S
Mg39 O57 2.061 . S
Mg40 O38 1.986 . S
Mg40 O48 2.238 . S
Mg40 O52 2.042 . S
Mg40 O54 2.041 1_554 S
Mg40 O61 2.038 . S
C41 O47 1.247 . S
C41 O48 1.289 . S
C42 O60 1.245 . S
C42 O61 1.274 . S
O43 C31 1.241 . S
O43 Mg36 2.042 . S
O44 C31 1.280 . S
O44 Mg34 1.984 . S
O45 C32 1.277 . S
O45 Mg36 2.041 . S
O46 C32 1.245 . S
O46 Mg34 1.988 . S
O47 Mg34 2.061 . S
O47 C41 1.247 . S
O48 Mg37 2.106 . S
O48 Mg40 2.238 . S
O48 C41 1.289 . S
C49 O50 1.245 . S
C49 O51 1.274 . S
O50 Mg37 2.079 . S
O50 C49 1.245 . S
O51 Mg36 2.038 . S
O51 C49 1.274 . S
O52 Mg40 2.042 . S
O52 C55 1.241 . S
O53 Mg39 1.984 . S
O53 C55 1.280 . S
O54 Mg40 2.041 1_556 S
O54 C58 1.277 . S
C55 O52 1.241 . S
C55 O53 1.280 . S
O56 Mg39 1.988 1_556 S
O56 C58 1.245 . S
O57 C33 1.247 . S
O57 Mg39 2.061 . S
C58 O54 1.277 . S
C58 O56 1.245 . S
O59 C33 1.289 . S
O59 Mg36 2.238 . S
O59 Mg37 2.106 . S
O60 Mg37 2.079 . S
O60 C42 1.245 . S
O61 Mg40 2.038 . S
O61 C42 1.274 . S
C62 O74 1.241 . S
C62 O75 1.280 . S
C63 O76 1.277 . S
C63 O77 1.245 . S
C64 O88 1.247 . S
C64 O90 1.289 . S
Mg65 O66 1.926 . S
Mg65 O75 1.984 . S
Mg65 O77 1.988 1_556 S
Mg65 O78 2.061 . S
O66 Mg65 1.926 . S
O66 Mg67 1.986 . S
O66 Mg68 1.917 . S
Mg67 O66 1.986 . S
Mg67 O74 2.042 . S
Mg67 O76 2.041 1_556 S
Mg67 O82 2.038 . S
Mg67 O90 2.238 . S
Mg68 O66 1.917 . S
Mg68 O69 1.917 . S
Mg68 O79 2.106 . S
Mg68 O81 2.079 . S
Mg68 O90 2.106 . S
Mg68 O91 2.079 . S
O69 Mg68 1.917 . S
O69 Mg70 1.926 . S
O69 Mg71 1.986 . S
Mg70 O69 1.926 . S
Mg70 O84 1.984 . S
Mg70 O87 1.988 . S
Mg70 O88 2.061 . S
Mg71 O69 1.986 . S
Mg71 O79 2.238 . S
Mg71 O83 2.042 . S
Mg71 O85 2.041 . S
Mg71 O92 2.038 . S
C72 O78 1.247 . S
C72 O79 1.289 . S
C73 O91 1.245 . S
C73 O92 1.274 . S
O74 C62 1.241 . S
O74 Mg67 2.042 . S
O75 C62 1.280 . S
O75 Mg65 1.984 . S
O76 C63 1.277 . S
O76 Mg67 2.041 1_554 S
O77 C63 1.245 . S
O77 Mg65 1.988 1_554 S
O78 Mg65 2.061 . S
O78 C72 1.247 . S
O79 Mg68 2.106 . S
O79 Mg71 2.238 . S
O79 C72 1.289 . S
C80 O81 1.245 . S
C80 O82 1.274 . S
O81 Mg68 2.079 . S
O81 C80 1.245 . S
O82 Mg67 2.038 . S
O82 C80 1.274 . S
O83 Mg71 2.042 . S
O83 C86 1.241 . S
O84 Mg70 1.984 . S
O84 C86 1.280 . S
O85 Mg71 2.041 . S
O85 C89 1.277 . S
C86 O83 1.241 . S
C86 O84 1.280 . S
O87 Mg70 1.988 . S
O87 C89 1.245 . S
O88 C64 1.247 . S
O88 Mg70 2.061 . S
C89 O85 1.277 . S
C89 O87 1.245 . S
O90 C64 1.289 . S
O90 Mg67 2.238 . S
O90 Mg68 2.106 . S
O91 Mg68 2.079 . S
O91 C73 1.245 . S
O92 Mg71 2.038 . S
O92 C73 1.274 . S
C93 C94 1.387 . S
C93 H97 0.950 . S
C93 C102 1.390 . S
C94 C93 1.387 . S
C94 C96 1.387 1_665 S
H95 C102 0.950 . S
C96 C94 1.387 1_445 S
C96 C98 1.390 . S
C96 H100 0.950 . S
H97 C93 0.950 . S
C98 C96 1.390 . S
C98 C99 1.387 . S
C98 H101 0.950 . S
C99 C98 1.387 . S
C99 C102 1.387 1_445 S
H100 C96 0.950 . S
H101 C98 0.950 . S
C102 C93 1.390 . S
C102 H95 0.950 . S
C102 C99 1.387 1_665 S
C103 C104 1.387 . S
C103 H107 0.950 . S
C103 C112 1.390 . S
C104 C103 1.387 . S
C104 C106 1.387 . S
H105 C112 0.950 1_554 S
C106 C104 1.387 . S
C106 C108 1.390 . S
C106 H110 0.950 . S
H107 C103 0.950 . S
C108 C106 1.390 . S
C108 C109 1.387 . S
C108 H111 0.950 . S
C109 C108 1.387 . S
C109 C112 1.387 . S
H110 C106 0.950 . S
H111 C108 0.950 . S
C112 C103 1.390 . S
C112 H105 0.950 1_556 S
C112 C109 1.387 . S
C113 C114 1.387 . S
C113 H117 0.950 1_554 S
C113 C122 1.390 . S
C114 C113 1.387 . S
C114 C116 1.387 . S
H115 C122 0.950 . S
C116 C114 1.387 . S
C116 C118 1.390 . S
C116 H120 0.950 . S
H117 C113 0.950 1_556 S
C118 C116 1.390 . S
C118 C119 1.387 . S
C118 H121 0.950 . S
C119 C118 1.387 . S
C119 C122 1.387 . S
H120 C116 0.950 . S
H121 C118 0.950 . S
C122 C113 1.390 . S
C122 H115 0.950 . S
C122 C119 1.387 . S
C123 C124 1.387 . S
C123 H127 0.950 . S
C123 C132 1.390 . S
C124 C123 1.387 . S
C124 C126 1.387 . S
H125 C132 0.950 . S
C126 C124 1.387 . S
C126 C128 1.390 . S
C126 H130 0.950 . S
H127 C123 0.950 . S
C128 C126 1.390 . S
C128 C129 1.387 . S
C128 H131 0.950 . S
C129 C128 1.387 . S
C129 C132 1.387 . S
H130 C126 0.950 . S
H131 C128 0.950 . S
C132 C123 1.390 . S
C132 H125 0.950 . S
C132 C129 1.387 . S
C133 C134 1.387 . S
C133 H137 0.950 . S
C133 C142 1.390 . S
C134 C133 1.387 . S
C134 C136 1.387 . S
H135 C142 0.950 . S
C136 C134 1.387 . S
C136 C138 1.390 . S
C136 H140 0.950 . S
H137 C133 0.950 . S
C138 C136 1.390 . S
C138 C139 1.387 . S
C138 H141 0.950 . S
C139 C138 1.387 . S
C139 C142 1.387 . S
H140 C136 0.950 . S
H141 C138 0.950 . S
C142 C133 1.390 . S
C142 H135 0.950 . S
C142 C139 1.387 . S
C143 C144 1.387 . S
C143 H147 0.950 . S
C143 C152 1.390 . S
C144 C143 1.387 . S
C144 C146 1.387 . S
H145 C152 0.950 . S
C146 C144 1.387 . S
C146 C148 1.390 . S
C146 H150 0.950 . S
H147 C143 0.950 . S
C148 C146 1.390 . S
C148 C149 1.387 . S
C148 H151 0.950 . S
C149 C148 1.387 . S
C149 C152 1.387 . S
H150 C146 0.950 . S
H151 C148 0.950 . S
C152 C143 1.390 . S
C152 H145 0.950 . S
C152 C149 1.387 . S
C153 C154 1.387 . S
C153 H157 0.950 . S
C153 C162 1.390 . S
C154 C153 1.387 . S
C154 C156 1.387 . S
H155 C162 0.950 . S
C156 C154 1.387 . S
C156 C158 1.390 . S
C156 H160 0.950 . S
H157 C153 0.950 . S
C158 C156 1.390 . S
C158 C159 1.387 . S
C158 H161 0.950 . S
C159 C158 1.387 . S
C159 C162 1.387 . S
H160 C156 0.950 . S
H161 C158 0.950 . S
C162 C153 1.390 . S
C162 H155 0.950 . S
C162 C159 1.387 . S
C163 C164 1.387 . S
C163 H167 0.950 . S
C163 C172 1.390 . S
C164 C163 1.387 . S
C164 C166 1.387 . S
H165 C172 0.950 . S
C166 C164 1.387 . S
C166 C168 1.390 . S
C166 H170 0.950 . S
H167 C163 0.950 . S
C168 C166 1.390 . S
C168 C169 1.387 . S
C168 H171 0.950 . S
C169 C168 1.387 . S
C169 C172 1.387 . S
H170 C166 0.950 . S
H171 C168 0.950 . S
C172 C163 1.390 . S
C172 H165 0.950 . S
C172 C169 1.387 . S
C173 C174 1.387 . S
C173 H177 0.950 . S
C173 C182 1.390 . S
C174 C173 1.387 . S
C174 C176 1.387 . S
H175 C182 0.950 . S
C176 C174 1.387 . S
C176 C178 1.390 . S
C176 H180 0.950 . S
H177 C173 0.950 . S
C178 C176 1.390 . S
C178 C179 1.387 . S
C178 H181 0.950 . S
C179 C178 1.387 . S
C179 C182 1.387 . S
H180 C176 0.950 . S
H181 C178 0.950 . S
C182 C173 1.390 . S
C182 H175 0.950 . S
C182 C179 1.387 . S
C183 C184 1.387 1_556 S
C183 H187 0.950 . S
C183 C192 1.390 . S
C184 C183 1.387 1_554 S
C184 C186 1.387 . S
H185 C192 0.950 . S
C186 C184 1.387 . S
C186 C188 1.390 . S
C186 H190 0.950 . S
H187 C183 0.950 . S
C188 C186 1.390 . S
C188 C189 1.387 1_554 S
C188 H191 0.950 . S
C189 C188 1.387 1_556 S
C189 C192 1.387 . S
H190 C186 0.950 . S
H191 C188 0.950 . S
C192 C183 1.390 . S
C192 H185 0.950 . S
C192 C189 1.387 . S
C193 C194 1.387 . S
C193 H197 0.950 . S
C193 C202 1.390 1_566 S
C194 C193 1.387 . S
C194 C196 1.387 . S
H195 C202 0.950 . S
C196 C194 1.387 . S
C196 C198 1.390 1_566 S
C196 H200 0.950 . S
H197 C193 0.950 . S
C198 C196 1.390 1_544 S
C198 C199 1.387 . S
C198 H201 0.950 . S
C199 C198 1.387 . S
C199 C202 1.387 . S
H200 C196 0.950 . S
H201 C198 0.950 . S
C202 C193 1.390 1_544 S
C202 H195 0.950 . S
C202 C199 1.387 . S
C203 C204 1.387 1_655 S
C203 H207 0.950 . S
C203 C212 1.390 1_556 S
C204 C203 1.387 1_455 S
C204 C206 1.387 . S
H205 C212 0.950 . S
C206 C204 1.387 . S
C206 C208 1.390 1_556 S
C206 H210 0.950 . S
H207 C203 0.950 . S
C208 C206 1.390 1_554 S
C208 C209 1.387 1_455 S
C208 H211 0.950 . S
C209 C208 1.387 1_655 S
C209 C212 1.387 . S
H210 C206 0.950 . S
H211 C208 0.950 . S
C212 C203 1.390 1_554 S
C212 H205 0.950 . S
C212 C209 1.387 . S
C94 C27 0.556 . S
C99 C1 0.556 . S
C104 C32 0.557 . S
C109 C58 0.557 . S
C114 C63 0.558 . S
C119 C89 0.558 . S
C124 C86 1.853 . S
C129 C0 1.853 . S
C134 C80 1.992 . S
C139 C11 1.991 . S
C144 C72 1.775 . S
C149 C2 1.775 . S
C154 C31 1.850 . S
C159 C24 1.850 . S
C164 C42 1.993 . S
C169 C18 1.995 . S
C174 C33 1.775 . S
C179 C10 1.776 . S
C184 C55 1.850 . S
C189 C62 1.850 . S
C194 C73 1.992 . S
C199 C49 1.992 . S
C204 C64 1.775 . S
C209 C41 1.775 . S
