# Generated by pormake.
# Topology rob, (6)-cn, num edge types: 1
# Building blocks:
#     Node 0, Type 0, BuildingBlock: JUFBIX_clean_sbu_0, # of connection points: 6
#     Node 1, Type 0, BuildingBlock: JUFBIX_clean_sbu_0, # of connection points: 6
#     Node 2, Type 0, BuildingBlock: JUFBIX_clean_sbu_0, # of connection points: 6
#     Node 3, Type 0, BuildingBlock: JUFBIX_clean_sbu_0, # of connection points: 6
#     Edge 4, Type (0, 0), None
#     Edge 5, Type (0, 0), None
#     Edge 6, Type (0, 0), None
#     Edge 7, Type (0, 0), None
#     Edge 8, Type (0, 0), None
#     Edge 9, Type (0, 0), None
#     Edge 10, Type (0, 0), None
#     Edge 11, Type (0, 0), None
#     Edge 12, Type (0, 0), None
#     Edge 13, Type (0, 0), None
#     Edge 14, Type (0, 0), None
#     Edge 15, Type (0, 0), None
# Relax obj value: 0.411
# Max RMSD: 0.307
# Mean RMSD: 0.307
data_MOF--net-rob--node1-JUFBIX_clean_sbu_0--edge1-none
_symmetry_space_group_name_H-M    P1
_symmetry_Int_Tables_number       1
_symmetry_cell_setting            triclinic
loop_
_symmetry_equiv_pos_as_xyz
'x, y, z'
_cell_length_a     8.5070828
_cell_length_b     10.924793
_cell_length_c     13.823001
_cell_angle_alpha  95.846164
_cell_angle_beta   90.009679
_cell_angle_gamma 90.00022
loop_
_atom_site_label
_atom_site_type_symbol
_atom_site_fract_x
_atom_site_fract_y
_atom_site_fract_z
_atom_type_partial_charge
Co0 Co 0.19513 0.24751 1.01946 0.0
C1 C 0.09886 0.00525 0.04755 0.0
Co2 Co 0.3934 0.14952 0.07288 0.0
C3 C 0.05806 0.33481 0.85172 0.0
C4 C 0.89385 0.31118 0.96565 0.0
N5 N 0.04781 0.32393 0.94857 0.0
N6 N 0.91753 0.31945 0.80761 0.0
C7 C 0.81355 0.30725 0.87964 0.0
H8 H 0.16793 0.33447 0.81214 0.0
H9 H 0.84662 0.28912 1.03402 0.0
C10 C 0.48967 0.39178 1.04479 0.0
N11 N 0.54072 0.07309 0.14377 0.0
C12 C 0.53047 0.06222 0.24062 0.0
C13 C 0.69468 0.08585 0.12669 0.0
N14 N 0.671 0.07758 0.28473 0.0
C15 C 0.77498 0.08978 0.2127 0.0
C16 C 0.38858 0.11039 0.8805 0.0
O17 O 0.34573 0.39286 1.01613 0.0
O18 O 0.53849 0.29095 0.07187 0.0
O19 O 0.4773 0.08173 0.94876 0.0
O20 O 0.27087 0.17655 0.90197 0.0
O21 O 0.2428 0.00417 0.07621 0.0
H22 H 0.74191 0.10791 0.05832 0.0
H23 H 0.4206 0.06256 0.28019 0.0
O24 O 0.05004 0.10608 1.02047 0.0
O25 O 0.11123 0.3153 0.14358 0.0
O26 O 0.31766 0.22048 0.19037 0.0
C27 C 0.19995 0.28664 0.21184 0.0
H28 H 0.68991 0.28588 0.86972 0.0
H29 H 0.89862 0.11115 0.22262 0.0
Co30 Co 0.69513 0.74751 1.01946 0.0
C31 C 0.59886 0.50525 0.04755 0.0
Co32 Co 0.8934 0.64952 0.07288 0.0
C33 C 0.55806 0.83481 0.85172 0.0
C34 C 0.39385 0.81118 0.96565 0.0
N35 N 0.54781 0.82393 0.94857 0.0
N36 N 0.41753 0.81945 0.80761 0.0
C37 C 0.31355 0.80725 0.87964 0.0
H38 H 0.66793 0.83447 0.81214 0.0
H39 H 0.34662 0.78912 1.03402 0.0
C40 C 0.98967 0.89178 1.04479 0.0
N41 N 1.04072 0.57309 0.14377 0.0
C42 C 1.03047 0.56222 0.24062 0.0
C43 C 0.19468 0.58585 0.12669 0.0
N44 N 0.171 0.57758 0.28473 0.0
C45 C 0.27498 0.58978 0.2127 0.0
C46 C 0.88858 0.61039 0.8805 0.0
O47 O 0.84573 0.89286 1.01613 0.0
O48 O 1.03849 0.79095 0.07187 0.0
O49 O 0.9773 0.58173 0.94876 0.0
O50 O 0.77087 0.67655 0.90197 0.0
O51 O 0.7428 0.50417 0.07621 0.0
H52 H 0.24191 0.6079 0.05832 0.0
H53 H 0.9206 0.56256 0.28019 0.0
O54 O 0.55004 0.60608 1.02047 0.0
O55 O 0.61123 0.8153 0.14358 0.0
O56 O 0.81766 0.72048 0.19037 0.0
C57 C 0.69995 0.78664 0.21184 0.0
H58 H 0.18991 0.78588 0.86972 0.0
H59 H 0.39862 0.61115 0.22262 0.0
Co60 Co 0.19517 0.64949 0.57289 0.0
C61 C 0.09886 0.89178 0.54477 0.0
Co62 Co 0.39336 0.74754 0.51945 0.0
C63 C 0.0581 0.56231 0.74064 0.0
C64 C 0.89389 0.58589 0.62665 0.0
N65 N 0.04785 0.57309 0.64377 0.0
N66 N 0.91761 0.57792 0.78471 0.0
C67 C 0.81359 0.58998 0.71266 0.0
H68 H 0.16797 0.56258 0.78023 0.0
H69 H 0.84668 0.60787 0.55825 0.0
C70 C 0.48967 0.50525 0.54757 0.0
N71 N 0.54068 0.82394 0.44857 0.0
C72 C 0.53043 0.83472 0.3517 0.0
C73 C 0.69464 0.81114 0.46569 0.0
N74 N 0.67092 0.81911 0.30763 0.0
C75 C 0.77494 0.80705 0.37968 0.0
C76 C 0.3886 0.78673 0.71183 0.0
O77 O 0.34576 0.50415 0.57624 0.0
O78 O 0.53845 0.6061 0.52049 0.0
O79 O 0.47728 0.81538 0.64357 0.0
O80 O 0.27094 0.7205 0.69038 0.0
O81 O 0.24277 0.89287 0.51609 0.0
H82 H 0.74185 0.78916 0.53409 0.0
H83 H 0.42056 0.83445 0.31211 0.0
O84 O 0.05008 0.79093 0.57185 0.0
O85 O 0.11125 0.58165 0.44877 0.0
O86 O 0.31759 0.67653 0.40196 0.0
C87 C 0.19993 0.6103 0.38051 0.0
H88 H 0.68996 0.61135 0.72254 0.0
H89 H 0.89857 0.78568 0.3698 0.0
Co90 Co 0.69517 0.14949 0.57289 0.0
C91 C 0.59886 0.39178 0.54477 0.0
Co92 Co 0.89336 0.24754 0.51945 0.0
C93 C 0.5581 0.06231 0.74064 0.0
C94 C 0.39389 0.08589 0.62665 0.0
N95 N 0.54785 0.07309 0.64377 0.0
N96 N 0.41761 0.07792 0.78471 0.0
C97 C 0.31359 0.08998 0.71266 0.0
H98 H 0.66797 0.06258 0.78023 0.0
H99 H 0.34668 0.10787 0.55825 0.0
C100 C 0.98967 0.00525 0.54756 0.0
N101 N 1.04068 0.32394 0.44857 0.0
C102 C 1.03043 0.33472 0.3517 0.0
C103 C 0.19464 0.31114 0.46569 0.0
N104 N 0.17092 0.31911 0.30763 0.0
C105 C 0.27494 0.30705 0.37968 0.0
C106 C 0.8886 0.28673 0.71183 0.0
O107 O 0.84576 0.00415 0.57624 0.0
O108 O 1.03845 0.1061 0.52049 0.0
O109 O 0.97728 0.31538 0.64357 0.0
O110 O 0.77094 0.2205 0.69038 0.0
O111 O 0.74277 0.39287 0.5161 0.0
H112 H 0.24185 0.28916 0.53409 0.0
H113 H 0.92056 0.33445 0.31211 0.0
O114 O 0.55008 0.29093 0.57185 0.0
O115 O 0.61125 0.08165 0.44877 0.0
O116 O 0.81759 0.17653 0.40196 0.0
C117 C 0.69993 0.1103 0.38051 0.0
H118 H 0.18996 0.11135 0.72254 0.0
H119 H 0.39857 0.28568 0.3698 0.0
loop_
_geom_bond_atom_site_label_1
_geom_bond_atom_site_label_2
_geom_bond_distance
_geom_bond_site_symmetry_2
_ccdc_geom_bond_type
Co0 N5 2.057 1_455 S
Co0 O17 2.021 . S
Co0 O20 2.062 . S
Co0 O24 2.117 . S
Co0 O25 2.020 1_556 S
C1 O21 1.263 . S
C1 O24 1.254 1_554 S
Co2 N11 2.057 . S
Co2 O18 2.117 . S
Co2 O19 2.020 1_554 S
Co2 O21 2.021 . S
Co2 O26 2.062 . S
C3 N5 1.316 . S
C3 N6 1.347 . S
C3 H8 0.931 1_655 S
C4 N5 1.375 . S
C4 C7 1.350 . S
C4 H9 0.930 . S
N5 Co0 2.057 1_655 S
N5 C3 1.316 . S
N5 C4 1.375 . S
N6 C3 1.347 . S
N6 C7 1.373 . S
C7 C4 1.350 . S
C7 N6 1.373 . S
C7 H28 0.931 . S
H8 C3 0.931 1_455 S
H9 C4 0.930 . S
C10 O17 1.261 . S
C10 O18 1.256 1_556 S
N11 Co2 2.057 . S
N11 C12 1.316 . S
N11 C13 1.375 . S
C12 N11 1.316 . S
C12 N14 1.347 . S
C12 H23 0.931 1_545 S
C13 N11 1.375 . S
C13 C15 1.350 . S
C13 H22 0.930 . S
N14 C12 1.347 . S
N14 C15 1.373 . S
C15 C13 1.350 . S
C15 N14 1.373 . S
C15 H29 0.931 . S
C16 O19 1.256 . S
C16 O20 1.255 . S
O17 Co0 2.021 . S
O17 C10 1.261 . S
O18 Co2 2.117 . S
O18 C10 1.256 1_554 S
O19 Co2 2.020 1_556 S
O19 C16 1.256 . S
O20 Co0 2.062 . S
O20 C16 1.255 . S
O21 C1 1.263 . S
O21 Co2 2.021 . S
H22 C13 0.930 . S
H23 C12 0.931 1_565 S
O24 Co0 2.117 . S
O24 C1 1.254 1_556 S
O25 Co0 2.020 1_554 S
O25 C27 1.256 . S
O26 Co2 2.062 . S
O26 C27 1.255 . S
C27 O25 1.256 . S
C27 O26 1.255 . S
H28 C7 0.931 . S
H29 C15 0.931 . S
Co30 N35 2.057 . S
Co30 O47 2.021 . S
Co30 O50 2.062 . S
Co30 O54 2.117 . S
Co30 O55 2.020 1_556 S
C31 O51 1.263 . S
C31 O54 1.254 1_554 S
Co32 N41 2.057 1_655 S
Co32 O48 2.117 . S
Co32 O49 2.020 1_554 S
Co32 O51 2.021 . S
Co32 O56 2.062 . S
C33 N35 1.316 . S
C33 N36 1.347 . S
C33 H38 0.931 1_565 S
C34 N35 1.375 . S
C34 C37 1.350 . S
C34 H39 0.930 . S
N35 Co30 2.057 . S
N35 C33 1.316 . S
N35 C34 1.375 . S
N36 C33 1.347 . S
N36 C37 1.373 . S
C37 C34 1.350 . S
C37 N36 1.373 . S
C37 H58 0.931 . S
H38 C33 0.931 1_545 S
H39 C34 0.930 . S
C40 O47 1.261 . S
C40 O48 1.256 1_556 S
N41 Co32 2.057 1_455 S
N41 C42 1.316 . S
N41 C43 1.375 . S
C42 N41 1.316 . S
C42 N44 1.347 . S
C42 H53 0.931 1_455 S
C43 N41 1.375 . S
C43 C45 1.350 . S
C43 H52 0.930 . S
N44 C42 1.347 . S
N44 C45 1.373 . S
C45 C43 1.350 . S
C45 N44 1.373 . S
C45 H59 0.931 . S
C46 O49 1.256 . S
C46 O50 1.255 . S
O47 Co30 2.021 . S
O47 C40 1.261 . S
O48 Co32 2.117 . S
O48 C40 1.256 1_554 S
O49 Co32 2.020 1_556 S
O49 C46 1.256 . S
O50 Co30 2.062 . S
O50 C46 1.255 . S
O51 C31 1.263 . S
O51 Co32 2.021 . S
H52 C43 0.930 . S
H53 C42 0.931 1_655 S
O54 Co30 2.117 . S
O54 C31 1.254 1_556 S
O55 Co30 2.020 1_554 S
O55 C57 1.256 . S
O56 Co32 2.062 . S
O56 C57 1.255 . S
C57 O55 1.256 . S
C57 O56 1.255 . S
H58 C37 0.931 . S
H59 C45 0.931 . S
Co60 N65 2.057 1_455 S
Co60 O77 2.021 . S
Co60 O80 2.062 . S
Co60 O84 2.117 . S
Co60 O85 2.020 . S
C61 O81 1.259 . S
C61 O84 1.258 . S
Co62 N71 2.057 . S
Co62 O78 2.117 . S
Co62 O79 2.020 . S
Co62 O81 2.021 . S
Co62 O86 2.062 . S
C63 N65 1.316 . S
C63 N66 1.347 . S
C63 H68 0.931 1_655 S
C64 N65 1.375 . S
C64 C67 1.350 . S
C64 H69 0.930 . S
N65 Co60 2.057 1_655 S
N65 C63 1.316 . S
N65 C64 1.375 . S
N66 C63 1.347 . S
N66 C67 1.373 . S
C67 C64 1.350 . S
C67 N66 1.373 . S
C67 H88 0.931 . S
H68 C63 0.931 1_455 S
H69 C64 0.930 . S
C70 O77 1.259 . S
C70 O78 1.258 . S
N71 Co62 2.057 . S
N71 C72 1.316 . S
N71 C73 1.375 . S
C72 N71 1.316 . S
C72 N74 1.347 . S
C72 H83 0.931 1_565 S
C73 N71 1.375 . S
C73 C75 1.350 . S
C73 H82 0.930 . S
N74 C72 1.347 . S
N74 C75 1.373 . S
C75 C73 1.350 . S
C75 N74 1.373 . S
C75 H89 0.931 . S
C76 O79 1.256 . S
C76 O80 1.255 . S
O77 Co60 2.021 . S
O77 C70 1.259 . S
O78 Co62 2.117 . S
O78 C70 1.258 . S
O79 Co62 2.020 . S
O79 C76 1.256 . S
O80 Co60 2.062 . S
O80 C76 1.255 . S
O81 C61 1.259 . S
O81 Co62 2.021 . S
H82 C73 0.930 . S
H83 C72 0.931 1_545 S
O84 Co60 2.117 . S
O84 C61 1.258 . S
O85 Co60 2.020 . S
O85 C87 1.256 . S
O86 Co62 2.062 . S
O86 C87 1.255 . S
C87 O85 1.256 . S
C87 O86 1.255 . S
H88 C67 0.931 . S
H89 C75 0.931 . S
Co90 N95 2.057 . S
Co90 O107 2.021 . S
Co90 O110 2.062 . S
Co90 O114 2.117 . S
Co90 O115 2.020 . S
C91 O111 1.259 . S
C91 O114 1.258 . S
Co92 N101 2.057 1_655 S
Co92 O108 2.117 . S
Co92 O109 2.020 . S
Co92 O111 2.021 . S
Co92 O116 2.062 . S
C93 N95 1.316 . S
C93 N96 1.347 . S
C93 H98 0.931 1_545 S
C94 N95 1.375 . S
C94 C97 1.350 . S
C94 H99 0.930 . S
N95 Co90 2.057 . S
N95 C93 1.316 . S
N95 C94 1.375 . S
N96 C93 1.347 . S
N96 C97 1.373 . S
C97 C94 1.350 . S
C97 N96 1.373 . S
C97 H118 0.931 . S
H98 C93 0.931 1_565 S
H99 C94 0.930 . S
C100 O107 1.259 . S
C100 O108 1.258 . S
N101 Co92 2.057 1_455 S
N101 C102 1.316 . S
N101 C103 1.375 . S
C102 N101 1.316 . S
C102 N104 1.347 . S
C102 H113 0.931 1_455 S
C103 N101 1.375 . S
C103 C105 1.350 . S
C103 H112 0.930 . S
N104 C102 1.347 . S
N104 C105 1.373 . S
C105 C103 1.350 . S
C105 N104 1.373 . S
C105 H119 0.931 . S
C106 O109 1.256 . S
C106 O110 1.255 . S
O107 Co90 2.021 . S
O107 C100 1.259 . S
O108 Co92 2.117 . S
O108 C100 1.258 . S
O109 Co92 2.020 . S
O109 C106 1.256 . S
O110 Co90 2.062 . S
O110 C106 1.255 . S
O111 C91 1.259 . S
O111 Co92 2.021 . S
H112 C103 0.930 . S
H113 C102 0.931 1_655 S
O114 Co90 2.117 . S
O114 C91 1.258 . S
O115 Co90 2.020 . S
O115 C117 1.256 . S
O116 Co92 2.062 . S
O116 C117 1.255 . S
C117 O115 1.256 . S
C117 O116 1.255 . S
H118 C97 0.931 . S
H119 C105 0.931 . S
C31 C10 2.516 1_554 S
C70 C91 2.516 . S
C1 C40 2.516 1_444 S
C100 C61 2.516 1_645 S
C117 N14 1.609 . S
C57 N74 1.609 . S
N36 C76 1.611 . S
N96 C16 1.611 . S
N44 C87 1.609 . S
N104 C27 1.609 . S
C106 N6 1.611 . S
N66 C46 1.611 . S
