# Generated by pormake.
# Topology snp, (6)-cn, num edge types: 1
# Building blocks:
#     Node 0, Type 0, BuildingBlock: LEVNOQ01_clean_sbu_1, # of connection points: 6
#     Node 1, Type 0, BuildingBlock: LEVNOQ01_clean_sbu_1, # of connection points: 6
#     Node 2, Type 0, BuildingBlock: LEVNOQ01_clean_sbu_1, # of connection points: 6
#     Node 3, Type 0, BuildingBlock: LEVNOQ01_clean_sbu_1, # of connection points: 6
#     Edge 4, Type (0, 0), BuildingBlock: OJICUG_clean_linker_0, # of connection points: 2
#     Edge 5, Type (0, 0), BuildingBlock: OJICUG_clean_linker_0, # of connection points: 2
#     Edge 6, Type (0, 0), BuildingBlock: OJICUG_clean_linker_0, # of connection points: 2
#     Edge 7, Type (0, 0), BuildingBlock: OJICUG_clean_linker_0, # of connection points: 2
#     Edge 8, Type (0, 0), BuildingBlock: OJICUG_clean_linker_0, # of connection points: 2
#     Edge 9, Type (0, 0), BuildingBlock: OJICUG_clean_linker_0, # of connection points: 2
#     Edge 10, Type (0, 0), BuildingBlock: OJICUG_clean_linker_0, # of connection points: 2
#     Edge 11, Type (0, 0), BuildingBlock: OJICUG_clean_linker_0, # of connection points: 2
#     Edge 12, Type (0, 0), BuildingBlock: OJICUG_clean_linker_0, # of connection points: 2
#     Edge 13, Type (0, 0), BuildingBlock: OJICUG_clean_linker_0, # of connection points: 2
#     Edge 14, Type (0, 0), BuildingBlock: OJICUG_clean_linker_0, # of connection points: 2
#     Edge 15, Type (0, 0), BuildingBlock: OJICUG_clean_linker_0, # of connection points: 2
# Relax obj value: 0.507
# Max RMSD: 0.250
# Mean RMSD: 0.247
data_MOF--net-snp--node1-LEVNOQ01_clean_sbu_1--edge1-OJICUG_clean_linker_0
_symmetry_space_group_name_H-M    P1
_symmetry_Int_Tables_number       1
_symmetry_cell_setting            triclinic
loop_
_symmetry_equiv_pos_as_xyz
'x, y, z'
_cell_length_a     19.962867
_cell_length_b     19.744245
_cell_length_c     16.878388
_cell_angle_alpha  102.2803
_cell_angle_beta   101.35549
_cell_angle_gamma 94.056047
loop_
_atom_site_label
_atom_site_type_symbol
_atom_site_fract_x
_atom_site_fract_y
_atom_site_fract_z
_atom_type_partial_charge
O0 O 0.21936 0.98367 0.92448 0.0
Mg1 Mg 0.20363 0.89758 0.98635 0.0
O2 O 0.26272 0.07592 1.03037 0.0
Mg3 Mg 0.28642 0.02179 0.14077 0.0
O4 O 0.18336 0.95824 0.0863 0.0
O5 O 0.10407 0.8775 1.00116 0.0
O6 O 0.29822 0.96187 0.24567 0.0
O7 O 0.23559 0.10733 0.22643 0.0
Mg8 Mg 0.39262 0.11834 0.32479 0.0
O9 O 0.38601 0.08479 0.20142 0.0
O10 O 0.35324 0.03109 0.3672 0.0
O11 O 0.31566 0.18642 0.31878 0.0
O12 O 0.48753 0.11014 0.28399 0.0
C13 C 0.32727 0.87548 1.03045 0.0
C14 C 0.23654 0.04968 0.95278 0.0
C15 C 0.12108 0.92928 0.06485 0.0
C16 C 0.31827 0.97392 0.32472 0.0
C17 C 0.25301 0.16421 0.28393 0.0
C18 C 0.45077 0.0828 0.21105 0.0
O19 O 0.27934 0.85067 1.05758 0.0
O20 O 0.34193 0.94176 1.05346 0.0
O21 O 0.89178 0.29433 0.81047 0.0
Mg22 Mg -0.0146 0.3356 0.78851 0.0
O23 O 0.87292 0.21603 0.69106 0.0
Mg24 Mg 0.94715 0.23108 0.60405 0.0
O25 O 0.97519 0.34623 0.66861 0.0
O26 O 0.00141 0.43707 0.77719 0.0
O27 O 0.02141 0.24028 0.51077 0.0
O28 O 0.84664 0.25088 0.50729 0.0
Mg29 Mg 0.90612 0.0965 0.42567 0.0
O30 O 0.91849 0.12137 0.54773 0.0
O31 O -0.00019 0.14151 0.41038 0.0
O32 O 0.82723 0.15627 0.40042 0.0
O33 O 0.88325 0.01412 0.48278 0.0
C34 C 0.08239 0.22466 0.76926 0.0
C35 C 0.85694 0.24065 0.76024 0.0
C36 C -0.0088 0.41275 0.69797 0.0
C37 C 0.0341 0.20068 0.44554 0.0
C38 C 0.81018 0.21325 0.43763 0.0
C39 C 0.89402 0.061 0.55092 0.0
O40 O 0.07024 0.27945 0.81665 0.0
O41 O 0.04488 0.2019 0.69557 0.0
O42 O 0.66826 0.99091 0.83267 0.0
Mg43 Mg 0.6301 0.89386 0.85544 0.0
O44 O 0.73097 0.04258 0.95895 0.0
Mg45 Mg 0.72939 0.97168 1.05169 0.0
O46 O 0.62966 0.91835 0.97675 0.0
O47 O 0.53124 0.89084 0.8883 0.0
O48 O 0.73433 0.90529 0.14747 0.0
O49 O 0.67064 0.05312 0.13616 0.0
Mg50 Mg 0.79675 0.07832 0.20985 0.0
O51 O 0.83646 0.02058 0.12419 0.0
O52 O 0.76296 0.99128 0.26212 0.0
O53 O 0.74167 0.13599 0.12912 0.0
O54 O 0.90186 0.09972 0.23107 0.0
C55 C 0.76816 0.83744 0.9014 0.0
C56 C 0.70754 0.04254 0.88269 0.0
C57 C 0.56439 0.91559 0.96366 0.0
C58 C 0.74944 0.92601 0.22676 0.0
C59 C 0.68794 0.11893 0.15118 0.0
C60 C 0.89618 0.0495 0.1665 0.0
O61 O 0.70749 0.82458 0.85584 0.0
O62 O 0.78385 0.88781 0.96724 0.0
O63 O 0.9408 0.71691 0.36579 0.0
Mg64 Mg 0.03423 0.6742 0.39715 0.0
O65 O 0.9453 0.78963 0.48804 0.0
Mg66 Mg 0.0428 0.77359 0.58872 0.0
O67 O 0.04111 0.66364 0.51398 0.0
O68 O 0.03569 0.57185 0.41117 0.0
O69 O 0.14672 0.75375 0.68269 0.0
O70 O 0.96927 0.73619 0.66503 0.0
Mg71 Mg 0.09431 0.85089 0.74033 0.0
O72 O 0.02629 0.8858 0.66109 0.0
O73 O 0.1868 0.86123 0.69902 0.0
O74 O 0.04679 0.76697 0.78192 0.0
O75 O 0.05829 0.93355 0.80003 0.0
C76 C 0.14635 0.79683 0.45193 0.0
C77 C 0.91599 0.76438 0.41104 0.0
C78 C 0.03791 0.59688 0.48881 0.0
C79 C 0.19869 0.80109 0.70655 0.0
C80 C -0.01443 0.74241 0.74352 0.0
C81 C 0.01486 0.92356 0.72979 0.0
O82 O 0.12377 0.73823 0.40216 0.0
O83 O 0.12046 0.81907 0.51545 0.0
C84 C 0.01395 0.06228 0.14524 0.0
C85 C 0.95623 0.01936 0.14749 0.0
H86 H 0.11358 0.06589 0.11711 0.0
C87 C 0.95547 0.94673 0.13094 0.0
H88 H 0.0134 0.11816 0.15548 0.0
C89 C 0.0119 0.91688 0.10904 0.0
C90 C 0.06886 0.95975 0.10388 0.0
H91 H 0.91089 0.91324 0.13357 0.0
H92 H 0.01021 0.86053 0.09341 0.0
C93 C 0.07062 0.03251 0.12381 0.0
C94 C 0.89561 0.93372 0.668 0.0
C95 C 0.95745 0.96436 0.72335 0.0
H96 H 0.81499 0.94989 0.57249 0.0
C97 C 0.97026 0.03686 0.75012 0.0
H98 H 0.88254 0.87753 0.65072 0.0
C99 C 0.93403 0.0767 0.70179 0.0
C100 C 0.88687 0.0426 0.62874 0.0
H101 H 0.015 0.06154 0.79776 0.0
H102 H 0.95209 0.1309 0.71309 0.0
C103 C 0.8577 0.97473 0.62294 0.0
C104 C 0.48781 0.00304 1.00451 0.0
C105 C 0.53149 0.95415 1.02586 0.0
H106 H 0.42743 0.08285 1.04783 0.0
C107 C 0.54935 0.94841 0.10839 0.0
H108 H 0.47532 0.00943 0.94127 0.0
C109 C 0.5236 0.99141 0.16925 0.0
C110 C 0.47979 0.04019 0.14775 0.0
H111 H 0.58395 0.91159 0.12583 0.0
H112 H 0.53738 0.98619 0.23287 0.0
C113 C 0.46148 0.04554 0.06515 0.0
C114 C -0.00446 0.43348 0.55869 0.0
C115 C 0.00241 0.45978 0.64414 0.0
H116 H 0.00236 0.45655 0.44253 0.0
C117 C 0.02308 0.53131 0.67879 0.0
H118 H 0.98 0.37855 0.5305 0.0
C119 C 0.03634 0.5759 0.62859 0.0
C120 C 0.02883 0.54972 0.5431 0.0
H121 H 0.02937 0.55296 0.74476 0.0
H122 H 0.05245 0.63067 0.65665 0.0
C123 C 0.00882 0.47811 0.50856 0.0
C124 C 0.07971 0.2083 0.32141 0.0
C125 C 0.09166 0.21946 0.40846 0.0
H126 H 0.12268 0.18377 0.21291 0.0
C127 C 0.15946 0.22748 0.4542 0.0
H128 H 0.02762 0.20272 0.2851 0.0
C129 C 0.21345 0.21609 0.41278 0.0
C130 C 0.20009 0.19598 0.32521 0.0
H131 H 0.16994 0.23512 0.52117 0.0
H132 H 0.26458 0.21644 0.44947 0.0
C133 C 0.13352 0.19647 0.28007 0.0
C134 C 0.80435 0.2111 0.87325 0.0
C135 C 0.80583 0.19878 0.78843 0.0
H136 H 0.77198 0.17123 0.96976 0.0
C137 C 0.76598 0.1396 0.73348 0.0
H138 H 0.83432 0.25625 0.91733 0.0
C139 C 0.7299 0.09101 0.76359 0.0
C140 C 0.73346 0.10033 0.84936 0.0
H141 H 0.76569 0.12876 0.66772 0.0
H142 H 0.70289 0.04405 0.72009 0.0
C143 C 0.76889 0.16215 0.90347 0.0
C144 C 0.83317 0.85575 0.40932 0.0
C145 C 0.85723 0.79592 0.36845 0.0
H146 H 0.77491 0.94214 0.39682 0.0
C147 C 0.8304 0.77099 0.28245 0.0
H148 H 0.85178 0.87502 0.4753 0.0
C149 C 0.78794 0.80954 0.23737 0.0
C150 C 0.77087 0.87419 0.27694 0.0
H151 H 0.84612 0.72406 0.24838 0.0
H152 H 0.77374 0.79142 0.17041 0.0
C153 C 0.78976 0.89416 0.36421 0.0
C154 C 0.30855 0.85829 0.8024 0.0
C155 C 0.25874 0.79906 0.77376 0.0
H156 H 0.36847 0.93146 0.90853 0.0
C157 C 0.25523 0.75287 0.82578 0.0
H158 H 0.31423 0.89416 0.76301 0.0
C159 C 0.29053 0.77266 0.90923 0.0
C160 C 0.32682 0.84029 0.94254 0.0
H161 H 0.21868 0.70611 0.80559 0.0
H162 H 0.2804 0.7395 0.95011 0.0
C163 C 0.34092 0.8797 0.88649 0.0
C164 C 0.89154 0.81066 0.91325 0.0
C165 C 0.82282 0.7987 0.86908 0.0
H166 H -0.00324 0.79899 0.9098 0.0
C167 C 0.80774 0.75517 0.78819 0.0
H168 H 0.90499 0.84297 0.97559 0.0
C169 C 0.8604 0.73047 0.74981 0.0
C170 C 0.92976 0.74777 0.79142 0.0
H171 H 0.75542 0.74379 0.75193 0.0
H172 H 0.84691 0.70189 0.68545 0.0
C173 C 0.94421 0.78497 0.87528 0.0
C174 C 0.26788 0.95171 0.4433 0.0
C175 C 0.28808 0.92575 0.3681 0.0
H176 H 0.20638 0.93177 0.52908 0.0
C177 C 0.26824 0.85557 0.3275 0.0
H178 H 0.28186 0.006 0.47559 0.0
C179 C 0.22576 0.8133 0.35824 0.0
C180 C 0.20068 0.8403 0.42974 0.0
H181 H 0.28301 0.83409 0.26966 0.0
H182 H 0.20995 0.76 0.32307 0.0
C183 C 0.22418 0.90942 0.47367 0.0
C184 C 0.17636 0.21126 0.88651 0.0
C185 C 0.13514 0.18315 0.8064 0.0
H186 H 0.24156 0.19229 0.99445 0.0
C187 C 0.13882 0.11302 0.76908 0.0
H188 H 0.17619 0.26531 0.91719 0.0
C189 C 0.17674 0.07058 0.81414 0.0
C190 C 0.21252 0.09738 0.89736 0.0
H191 H 0.10847 0.0895 0.70737 0.0
H192 H 0.17448 0.01571 0.78531 0.0
C193 C 0.21443 0.16919 0.93113 0.0
C194 C 0.66087 0.13928 0.29356 0.0
C195 C 0.67874 0.1665 0.22919 0.0
H196 H 0.68433 0.14476 0.42388 0.0
C197 C 0.71272 0.2354 0.25062 0.0
H198 H 0.63362 0.08747 0.28053 0.0
C199 C 0.74563 0.26624 0.33333 0.0
C200 C 0.74307 0.22908 0.39496 0.0
H201 H 0.72485 0.25983 0.20263 0.0
H202 H 0.78358 0.31131 0.34535 0.0
C203 C 0.68999 0.17307 0.3767 0.0
loop_
_geom_bond_atom_site_label_1
_geom_bond_atom_site_label_2
_geom_bond_distance
_geom_bond_site_symmetry_2
_ccdc_geom_bond_type
O0 Mg1 1.990 . S
O0 C14 1.253 . S
Mg1 O0 1.990 . S
Mg1 O4 2.180 1_556 S
Mg1 O5 2.117 . S
Mg1 O19 2.030 1_545 S
O2 Mg3 2.072 . S
O2 C14 1.260 1_554 S
Mg3 O2 2.072 . S
Mg3 O4 2.099 . S
Mg3 O6 2.079 1_545 S
Mg3 O7 2.072 . S
Mg3 O9 2.099 . S
Mg3 O20 2.079 1_544 S
O4 Mg1 2.180 1_554 S
O4 Mg3 2.099 . S
O4 C15 1.279 . S
O5 Mg1 2.117 . S
O5 C15 1.250 1_556 S
O6 Mg3 2.079 1_565 S
O6 C16 1.264 . S
O7 Mg3 2.072 . S
O7 C17 1.260 . S
Mg8 O9 2.180 . S
Mg8 O10 2.030 1_545 S
Mg8 O11 1.990 . S
Mg8 O12 2.117 . S
O9 Mg3 2.099 . S
O9 Mg8 2.180 . S
O9 C18 1.279 . S
O10 Mg8 2.030 1_565 S
O10 C16 1.248 . S
O11 Mg8 1.990 . S
O11 C17 1.253 . S
O12 Mg8 2.117 . S
O12 C18 1.250 . S
C13 O19 1.248 . S
C13 O20 1.264 . S
C14 O0 1.253 . S
C14 O2 1.260 1_556 S
C15 O4 1.279 . S
C15 O5 1.250 1_554 S
C16 O6 1.264 . S
C16 O10 1.248 . S
C17 O7 1.260 . S
C17 O11 1.253 . S
C18 O9 1.279 . S
C18 O12 1.250 . S
O19 Mg1 2.030 1_565 S
O19 C13 1.248 . S
O20 Mg3 2.079 1_566 S
O20 C13 1.264 . S
O21 Mg22 1.990 1_655 S
O21 C35 1.253 . S
Mg22 O21 1.990 1_455 S
Mg22 O25 2.180 . S
Mg22 O26 2.117 1_455 S
Mg22 O40 2.030 . S
O23 Mg24 2.072 1_655 S
O23 C35 1.260 . S
Mg24 O23 2.072 1_455 S
Mg24 O25 2.099 . S
Mg24 O27 2.079 . S
Mg24 O28 2.072 1_455 S
Mg24 O30 2.099 . S
Mg24 O41 2.079 . S
O25 Mg22 2.180 . S
O25 Mg24 2.099 . S
O25 C36 1.279 . S
O26 Mg22 2.117 1_655 S
O26 C36 1.250 1_655 S
O27 Mg24 2.079 . S
O27 C37 1.264 . S
O28 Mg24 2.072 1_655 S
O28 C38 1.260 . S
Mg29 O30 2.180 . S
Mg29 O31 2.030 . S
Mg29 O32 1.990 1_455 S
Mg29 O33 2.117 1_455 S
O30 Mg24 2.099 . S
O30 Mg29 2.180 . S
O30 C39 1.279 . S
O31 Mg29 2.030 . S
O31 C37 1.248 . S
O32 Mg29 1.990 1_655 S
O32 C38 1.253 . S
O33 Mg29 2.117 1_655 S
O33 C39 1.250 1_655 S
C34 O40 1.248 . S
C34 O41 1.264 . S
C35 O21 1.253 . S
C35 O23 1.260 . S
C36 O25 1.279 . S
C36 O26 1.250 1_455 S
C37 O27 1.264 . S
C37 O31 1.248 . S
C38 O28 1.260 . S
C38 O32 1.253 . S
C39 O30 1.279 . S
C39 O33 1.250 1_455 S
O40 Mg22 2.030 . S
O40 C34 1.248 . S
O41 Mg24 2.079 . S
O41 C34 1.264 . S
O42 Mg43 1.990 1_545 S
O42 C56 1.253 . S
Mg43 O42 1.990 1_565 S
Mg43 O46 2.180 . S
Mg43 O47 2.117 1_565 S
Mg43 O61 2.030 . S
O44 Mg45 2.072 1_546 S
O44 C56 1.260 . S
Mg45 O44 2.072 1_564 S
Mg45 O46 2.099 1_554 S
Mg45 O48 2.079 . S
Mg45 O49 2.072 1_565 S
Mg45 O51 2.099 . S
Mg45 O62 2.079 1_554 S
O46 Mg43 2.180 . S
O46 Mg45 2.099 1_556 S
O46 C57 1.279 1_565 S
O47 Mg43 2.117 1_545 S
O47 C57 1.250 . S
O48 Mg45 2.079 . S
O48 C58 1.264 . S
O49 Mg45 2.072 1_545 S
O49 C59 1.260 . S
Mg50 O51 2.181 1_545 S
Mg50 O52 2.020 1_545 S
Mg50 O53 2.003 . S
Mg50 O54 2.121 1_655 S
O51 Mg45 2.099 . S
O51 Mg50 2.181 1_565 S
O51 C60 1.279 1_565 S
O52 Mg50 2.020 1_565 S
O52 C58 1.248 . S
O53 Mg50 2.003 . S
O53 C59 1.253 . S
O54 Mg50 2.121 1_455 S
O54 C60 1.248 1_455 S
C55 O61 1.248 . S
C55 O62 1.264 . S
C56 O42 1.253 . S
C56 O44 1.260 . S
C57 O46 1.279 1_545 S
C57 O47 1.250 . S
C58 O48 1.264 . S
C58 O52 1.248 . S
C59 O49 1.260 . S
C59 O53 1.253 . S
C60 O51 1.279 1_545 S
C60 O54 1.248 1_655 S
O61 Mg43 2.030 . S
O61 C55 1.248 . S
O62 Mg45 2.079 1_556 S
O62 C55 1.264 . S
O63 Mg64 1.990 1_655 S
O63 C77 1.253 . S
Mg64 O63 1.990 1_455 S
Mg64 O67 2.180 . S
Mg64 O68 2.117 1_455 S
Mg64 O82 2.030 . S
O65 Mg66 2.072 1_655 S
O65 C77 1.260 . S
Mg66 O65 2.072 1_455 S
Mg66 O67 2.099 . S
Mg66 O69 2.079 . S
Mg66 O70 2.072 1_455 S
Mg66 O72 2.099 . S
Mg66 O83 2.079 . S
O67 Mg64 2.180 . S
O67 Mg66 2.099 . S
O67 C78 1.279 1_455 S
O68 Mg64 2.117 1_655 S
O68 C78 1.250 . S
O69 Mg66 2.079 . S
O69 C79 1.264 . S
O70 Mg66 2.072 1_655 S
O70 C80 1.260 . S
Mg71 O72 2.180 . S
Mg71 O73 2.030 . S
Mg71 O74 1.990 1_455 S
Mg71 O75 2.117 1_455 S
O72 Mg66 2.099 . S
O72 Mg71 2.180 . S
O72 C81 1.279 1_455 S
O73 Mg71 2.030 . S
O73 C79 1.248 . S
O74 Mg71 1.990 1_655 S
O74 C80 1.253 . S
O75 Mg71 2.117 1_655 S
O75 C81 1.250 . S
C76 O82 1.248 . S
C76 O83 1.264 . S
C77 O63 1.253 . S
C77 O65 1.260 . S
C78 O67 1.279 1_655 S
C78 O68 1.250 . S
C79 O69 1.264 . S
C79 O73 1.248 . S
C80 O70 1.260 . S
C80 O74 1.253 . S
C81 O72 1.279 1_655 S
C81 O75 1.250 . S
O82 Mg64 2.030 . S
O82 C76 1.248 . S
O83 Mg66 2.079 . S
O83 C76 1.264 . S
C84 C85 1.387 . S
C84 H88 0.950 . S
C84 C93 1.390 1_656 S
C85 C84 1.387 . S
C85 C87 1.387 1_546 S
H86 C93 0.950 . S
C87 C85 1.387 1_564 S
C87 C89 1.390 1_655 S
C87 H91 0.950 . S
H88 C84 0.950 . S
C89 C87 1.390 1_455 S
C89 C90 1.387 1_565 S
C89 H92 0.950 . S
C90 C89 1.387 1_545 S
C90 C93 1.387 . S
H91 C87 0.950 . S
H92 C89 0.950 . S
C93 C84 1.390 1_454 S
C93 H86 0.950 . S
C93 C90 1.387 . S
C94 C95 1.387 . S
C94 H98 0.950 . S
C94 C103 1.390 1_565 S
C95 C94 1.387 . S
C95 C97 1.387 1_655 S
H96 C103 0.950 . S
C97 C95 1.387 1_455 S
C97 C99 1.390 1_565 S
C97 H101 0.950 . S
H98 C94 0.950 . S
C99 C97 1.390 1_545 S
C99 C100 1.387 . S
C99 H102 0.950 . S
C100 C99 1.387 . S
C100 C103 1.387 1_455 S
H101 C97 0.950 . S
H102 C99 0.950 . S
C103 C94 1.390 1_545 S
C103 H96 0.950 . S
C103 C100 1.387 1_655 S
C104 C105 1.387 . S
C104 H108 0.950 . S
C104 C113 1.390 . S
C105 C104 1.387 . S
C105 C107 1.387 1_545 S
H106 C113 0.950 . S
C107 C105 1.387 1_565 S
C107 C109 1.390 . S
C107 H111 0.950 . S
H108 C104 0.950 . S
C109 C107 1.390 . S
C109 C110 1.387 1_565 S
C109 H112 0.950 . S
C110 C109 1.387 1_545 S
C110 C113 1.387 . S
H111 C107 0.950 . S
H112 C109 0.950 . S
C113 C104 1.390 . S
C113 H106 0.950 . S
C113 C110 1.387 . S
C114 C115 1.387 1_655 S
C114 H118 0.950 . S
C114 C123 1.390 . S
C115 C114 1.387 1_455 S
C115 C117 1.387 . S
H116 C123 0.950 . S
C117 C115 1.387 . S
C117 C119 1.390 . S
C117 H121 0.950 . S
H118 C114 0.950 . S
C119 C117 1.390 . S
C119 C120 1.387 1_455 S
C119 H122 0.950 . S
C120 C119 1.387 1_655 S
C120 C123 1.387 . S
H121 C117 0.950 . S
H122 C119 0.950 . S
C123 C114 1.390 . S
C123 H116 0.950 . S
C123 C120 1.387 . S
C124 C125 1.387 . S
C124 H128 0.950 . S
C124 C133 1.390 . S
C125 C124 1.387 . S
C125 C127 1.387 . S
H126 C133 0.950 . S
C127 C125 1.387 . S
C127 C129 1.390 . S
C127 H131 0.950 . S
H128 C124 0.950 . S
C129 C127 1.390 . S
C129 C130 1.387 . S
C129 H132 0.950 . S
C130 C129 1.387 . S
C130 C133 1.387 . S
H131 C127 0.950 . S
H132 C129 0.950 . S
C133 C124 1.390 . S
C133 H126 0.950 . S
C133 C130 1.387 . S
C134 C135 1.387 . S
C134 H138 0.950 . S
C134 C143 1.390 . S
C135 C134 1.387 . S
C135 C137 1.387 . S
H136 C143 0.950 . S
C137 C135 1.387 . S
C137 C139 1.390 . S
C137 H141 0.950 . S
H138 C134 0.950 . S
C139 C137 1.390 . S
C139 C140 1.387 . S
C139 H142 0.950 . S
C140 C139 1.387 . S
C140 C143 1.387 . S
H141 C137 0.950 . S
H142 C139 0.950 . S
C143 C134 1.390 . S
C143 H136 0.950 . S
C143 C140 1.387 . S
C144 C145 1.387 . S
C144 H148 0.950 . S
C144 C153 1.390 . S
C145 C144 1.387 . S
C145 C147 1.387 . S
H146 C153 0.950 . S
C147 C145 1.387 . S
C147 C149 1.390 . S
C147 H151 0.950 . S
H148 C144 0.950 . S
C149 C147 1.390 . S
C149 C150 1.387 . S
C149 H152 0.950 . S
C150 C149 1.387 . S
C150 C153 1.387 . S
H151 C147 0.950 . S
H152 C149 0.950 . S
C153 C144 1.390 . S
C153 H146 0.950 . S
C153 C150 1.387 . S
C154 C155 1.387 . S
C154 H158 0.950 . S
C154 C163 1.390 . S
C155 C154 1.387 . S
C155 C157 1.387 . S
H156 C163 0.950 . S
C157 C155 1.387 . S
C157 C159 1.390 . S
C157 H161 0.950 . S
H158 C154 0.950 . S
C159 C157 1.390 . S
C159 C160 1.387 . S
C159 H162 0.950 . S
C160 C159 1.387 . S
C160 C163 1.387 . S
H161 C157 0.950 . S
H162 C159 0.950 . S
C163 C154 1.390 . S
C163 H156 0.950 . S
C163 C160 1.387 . S
C164 C165 1.387 . S
C164 H168 0.950 . S
C164 C173 1.390 . S
C165 C164 1.387 . S
C165 C167 1.387 . S
H166 C173 0.950 . S
C167 C165 1.387 . S
C167 C169 1.390 . S
C167 H171 0.950 . S
H168 C164 0.950 . S
C169 C167 1.390 . S
C169 C170 1.387 . S
C169 H172 0.950 . S
C170 C169 1.387 . S
C170 C173 1.387 . S
H171 C167 0.950 . S
H172 C169 0.950 . S
C173 C164 1.390 . S
C173 H166 0.950 . S
C173 C170 1.387 . S
C174 C175 1.387 . S
C174 H178 0.950 . S
C174 C183 1.390 . S
C175 C174 1.387 . S
C175 C177 1.387 . S
H176 C183 0.950 . S
C177 C175 1.387 . S
C177 C179 1.390 . S
C177 H181 0.950 . S
H178 C174 0.950 . S
C179 C177 1.390 . S
C179 C180 1.387 . S
C179 H182 0.950 . S
C180 C179 1.387 . S
C180 C183 1.387 . S
H181 C177 0.950 . S
H182 C179 0.950 . S
C183 C174 1.390 . S
C183 H176 0.950 . S
C183 C180 1.387 . S
C184 C185 1.387 . S
C184 H188 0.950 . S
C184 C193 1.390 . S
C185 C184 1.387 . S
C185 C187 1.387 . S
H186 C193 0.950 . S
C187 C185 1.387 . S
C187 C189 1.390 . S
C187 H191 0.950 . S
H188 C184 0.950 . S
C189 C187 1.390 . S
C189 C190 1.387 . S
C189 H192 0.950 . S
C190 C189 1.387 . S
C190 C193 1.387 . S
H191 C187 0.950 . S
H192 C189 0.950 . S
C193 C184 1.390 . S
C193 H186 0.950 . S
C193 C190 1.387 . S
C194 C195 1.387 . S
C194 H198 0.950 . S
C194 C203 1.390 . S
C195 C194 1.387 . S
C195 C197 1.387 . S
H196 C203 0.950 . S
C197 C195 1.387 . S
C197 C199 1.390 . S
C197 H201 0.950 . S
H198 C194 0.950 . S
C199 C197 1.390 . S
C199 C200 1.387 . S
C199 H202 0.950 . S
C200 C199 1.387 . S
C200 C203 1.387 . S
H201 C197 0.950 . S
H202 C199 0.950 . S
C203 C194 1.390 . S
C203 H196 0.950 . S
C203 C200 1.387 . S
C85 C60 0.897 1_556 S
C90 C15 0.897 . S
C95 C81 0.898 . S
C100 C39 0.898 . S
C105 C57 0.986 1_554 S
C110 C18 0.986 . S
C115 C36 0.986 . S
C120 C78 0.986 . S
C125 C37 1.374 . S
C130 C17 1.555 . S
C135 C35 1.802 . S
C140 C56 1.802 . S
C145 C77 1.555 . S
C150 C58 1.374 . S
C155 C79 1.174 . S
C160 C13 1.169 . S
C165 C55 1.580 . S
C170 C80 1.402 . S
C175 C16 1.662 . S
C180 C76 1.661 . S
C185 C34 1.580 . S
C190 C14 1.400 . S
C195 C59 1.322 . S
C200 C38 1.317 . S
