# Generated by pormake.
# Topology sml, (6)-cn, num edge types: 1
# Building blocks:
#     Node 0, Type 0, BuildingBlock: IZENUY_clean_sbu_0, # of connection points: 6
#     Node 1, Type 0, BuildingBlock: IZENUY_clean_sbu_0, # of connection points: 6
#     Node 2, Type 0, BuildingBlock: IZENUY_clean_sbu_0, # of connection points: 6
#     Node 3, Type 0, BuildingBlock: IZENUY_clean_sbu_0, # of connection points: 6
#     Node 4, Type 0, BuildingBlock: IZENUY_clean_sbu_0, # of connection points: 6
#     Node 5, Type 0, BuildingBlock: IZENUY_clean_sbu_0, # of connection points: 6
#     Edge 6, Type (0, 0), None
#     Edge 7, Type (0, 0), None
#     Edge 8, Type (0, 0), None
#     Edge 9, Type (0, 0), None
#     Edge 10, Type (0, 0), None
#     Edge 11, Type (0, 0), None
#     Edge 12, Type (0, 0), None
#     Edge 13, Type (0, 0), None
#     Edge 14, Type (0, 0), None
#     Edge 15, Type (0, 0), None
#     Edge 16, Type (0, 0), None
#     Edge 17, Type (0, 0), None
#     Edge 18, Type (0, 0), None
#     Edge 19, Type (0, 0), None
#     Edge 20, Type (0, 0), None
#     Edge 21, Type (0, 0), None
#     Edge 22, Type (0, 0), None
#     Edge 23, Type (0, 0), None
# Relax obj value: 0.327
# Max RMSD: 0.283
# Mean RMSD: 0.283
data_MOF--net-sml--node1-IZENUY_clean_sbu_0--edge1-none
_symmetry_space_group_name_H-M    P1
_symmetry_Int_Tables_number       1
_symmetry_cell_setting            triclinic
loop_
_symmetry_equiv_pos_as_xyz
'x, y, z'
_cell_length_a     19.049987
_cell_length_b     19.049673
_cell_length_c     6.1205273
_cell_angle_alpha  90.002687
_cell_angle_beta   89.997538
_cell_angle_gamma 119.99999
loop_
_atom_site_label
_atom_site_type_symbol
_atom_site_fract_x
_atom_site_fract_y
_atom_site_fract_z
_atom_type_partial_charge
Fe0 Fe 0.35563 0.51082 0.18688 0.0
Fe1 Fe 0.2041 0.35039 1.07156 0.0
O2 O 0.25728 0.45671 1.07157 0.0
Fe3 Fe 0.21305 0.51084 0.95632 0.0
O4 O 0.21649 0.54914 0.22213 0.0
O5 O 0.34525 0.60279 0.26898 0.0
O6 O 0.31895 0.47055 0.45582 0.0
C7 C 0.25959 0.40064 0.49284 0.0
C8 C 0.38599 0.61015 0.8748 0.0
O9 O 0.24107 0.34603 0.34704 0.0
C10 C 0.19894 0.40071 0.65037 0.0
O11 O 0.38454 0.43279 0.11547 0.0
O12 O 0.28249 0.34577 0.92338 0.0
O13 O 0.31538 0.60286 0.87449 0.0
O14 O 0.39051 0.54921 0.92116 0.0
C15 C 0.08462 0.38401 0.18949 0.0
O16 O 0.1628 0.34606 0.79605 0.0
O17 O 0.20955 0.47065 0.68733 0.0
C18 C 0.35717 0.38389 0.95373 0.0
O19 O 0.12111 0.34583 0.21977 0.0
O20 O 0.1061 0.43277 1.02747 0.0
C21 C 0.28192 0.61005 0.2688 0.0
Fe22 Fe 0.87367 0.34122 0.52024 0.0
Fe23 Fe 0.88257 0.18968 0.40489 0.0
O24 O 0.82943 0.24287 0.4049 0.0
Fe25 Fe 0.73107 0.19864 0.28965 0.0
O26 O 0.69621 0.20207 0.55546 0.0
O27 O 0.77133 0.33084 0.60234 0.0
O28 O 0.87726 0.30454 0.78917 0.0
C29 C 0.88781 0.24517 0.82618 0.0
C30 C 0.8047 0.37158 0.20816 0.0
O31 O 0.92389 0.22665 0.68037 0.0
C32 C 0.82709 0.18453 0.9837 0.0
O33 O 0.98062 0.37015 0.44882 0.0
O34 O 0.96558 0.26807 0.25673 0.0
O35 O 0.74138 0.30097 0.20784 0.0
O36 O 0.87016 0.37611 0.25453 0.0
C37 C 0.72946 0.0702 0.5228 0.0
O38 O 0.84559 0.14838 0.12937 0.0
O39 O 0.76776 0.19514 1.02066 0.0
C40 C 1.00213 0.34274 0.28717 0.0
O41 O 0.80414 0.1067 0.5531 0.0
O42 O 0.70219 0.09169 0.36078 0.0
C43 C 0.70073 0.2675 0.60215 0.0
Fe44 Fe 0.5613 0.71665 0.62293 0.0
Fe45 Fe 0.5613 0.85925 0.85354 0.0
O46 O 0.61542 0.81501 0.73825 0.0
Fe47 Fe 0.72174 0.86815 0.73824 0.0
O48 O 0.72629 0.78972 0.88645 0.0
O49 O 0.63939 0.68779 0.69402 0.0
O50 O 0.523 0.68174 0.8887 0.0
C51 C 0.46213 0.68632 0.93548 0.0
C52 C 0.67142 0.81272 0.317 0.0
O53 O 0.46936 0.7569 0.93566 0.0
C54 C 0.68825 0.98772 0.62049 0.0
O55 O 0.46926 0.72694 0.54116 0.0
O56 O 0.5229 0.85572 0.58782 0.0
O57 O 0.72604 0.83116 0.46271 0.0
O58 O 0.60149 0.75337 0.35396 0.0
C59 C 0.6715 0.87344 0.15948 0.0
O60 O 0.63931 0.9662 0.7821 0.0
O61 O 0.72638 0.95117 0.59009 0.0
C62 C 0.46197 0.79025 0.54147 0.0
O63 O 0.60157 0.86286 0.12248 0.0
O64 O 0.72613 0.90949 1.01372 0.0
C65 C 0.68813 0.71505 0.85609 0.0
Fe66 Fe 0.87351 0.54689 0.95625 0.0
Fe67 Fe 0.73091 0.54689 0.18685 0.0
O68 O 0.82927 0.60101 1.07158 0.0
Fe69 Fe 0.88246 0.70734 1.07158 0.0
O70 O 0.96543 0.71189 0.21979 0.0
O71 O 0.98046 0.62499 1.02734 0.0
O72 O 0.87013 0.5086 0.22202 0.0
C73 C 0.80467 0.44772 0.26881 0.0
C74 C 0.88756 0.65701 0.65033 0.0
O75 O 0.74132 0.45495 0.26899 0.0
C76 C 0.7294 0.67384 0.95379 0.0
O77 O 0.77119 0.45485 0.87448 0.0
O78 O 0.69605 0.50849 0.92113 0.0
O79 O 0.92375 0.71164 0.79605 0.0
O80 O 0.87697 0.58708 0.68728 0.0
C81 C 0.82692 0.65709 0.49281 0.0
O82 O 0.70197 0.6249 0.1154 0.0
O83 O 0.80407 0.71198 0.92342 0.0
C84 C 0.70058 0.44755 0.87479 0.0
O85 O 0.76757 0.58717 0.4558 0.0
O86 O 0.8455 0.71173 0.34706 0.0
C87 C 1.00194 0.67372 0.18943 0.0
Fe88 Fe 0.35548 0.85909 0.28959 0.0
Fe89 Fe 0.21287 0.71648 0.52019 0.0
O90 O 0.25712 0.81484 0.40491 0.0
Fe91 Fe 0.20398 0.86804 0.40492 0.0
O92 O 0.28241 0.95101 0.55315 0.0
O93 O 0.38434 0.96604 0.36071 0.0
O94 O 0.39038 0.85568 0.55537 0.0
C95 C 0.3858 0.79023 0.60212 0.0
C96 C 0.25941 0.87315 0.98368 0.0
O97 O 0.31521 0.72687 0.60229 0.0
C98 C 0.08442 0.71499 0.28714 0.0
O99 O 0.34519 0.75676 0.20778 0.0
O100 O 0.21637 0.68159 0.25447 0.0
O101 O 0.24098 0.90933 0.12941 0.0
O102 O 0.31876 0.86256 1.02063 0.0
C103 C 0.1987 0.81251 0.82615 0.0
O104 O 0.10592 0.68756 0.44877 0.0
O105 O 0.12096 0.78966 0.25675 0.0
C106 C 0.28185 0.68617 0.20807 0.0
O107 O 0.20927 0.75316 0.78913 0.0
O108 O 0.16264 0.83109 0.6804 0.0
C109 C 0.35709 0.98752 0.5228 0.0
Fe110 Fe 0.52524 0.19846 0.85355 0.0
Fe111 Fe 0.36481 0.18957 0.73824 0.0
O112 O 0.47114 0.24271 0.73823 0.0
Fe113 Fe 0.52527 0.34108 0.62296 0.0
O114 O 0.56357 0.37597 0.88874 0.0
O115 O 0.6172 0.3008 0.93565 0.0
O116 O 0.48497 0.19487 0.12248 0.0
C117 C 0.41506 0.18432 0.15951 0.0
C118 C 0.62454 0.26743 0.54143 0.0
O119 O 0.36045 0.14823 1.01371 0.0
C120 C 0.41513 0.24504 0.31704 0.0
O121 O 0.44722 0.09151 0.78214 0.0
O122 O 0.36019 0.10655 0.59005 0.0
O123 O 0.61729 0.33077 0.54114 0.0
O124 O 0.56364 0.20195 0.58784 0.0
C125 C 0.39842 0.34266 0.85605 0.0
O126 O 0.36049 0.22655 0.46272 0.0
O127 O 0.48507 0.30437 0.35398 0.0
C128 C 0.3983 0.07 0.62048 0.0
O129 O 0.36024 0.26799 0.88646 0.0
O130 O 0.4472 0.36996 0.69409 0.0
C131 C 0.62444 0.37139 0.93549 0.0
loop_
_geom_bond_atom_site_label_1
_geom_bond_atom_site_label_2
_geom_bond_distance
_geom_bond_site_symmetry_2
_ccdc_geom_bond_type
Fe0 O2 1.918 1_554 S
Fe0 O5 1.997 . S
Fe0 O6 2.002 . S
Fe0 O11 1.976 . S
Fe0 O14 1.996 1_554 S
Fe1 O2 1.918 . S
Fe1 O9 1.997 1_556 S
Fe1 O12 1.996 . S
Fe1 O16 1.976 . S
Fe1 O19 2.002 1_556 S
O2 Fe0 1.918 1_556 S
O2 Fe1 1.918 . S
O2 Fe3 1.918 . S
Fe3 O2 1.918 . S
Fe3 O4 2.002 1_556 S
Fe3 O13 1.976 . S
Fe3 O17 1.996 . S
Fe3 O20 1.997 . S
O4 Fe3 2.002 1_554 S
O4 C21 1.295 . S
O5 Fe0 1.997 . S
O5 C21 1.235 . S
O6 Fe0 2.002 . S
O6 C7 1.295 . S
C7 O6 1.295 . S
C7 O9 1.235 . S
C8 O13 1.287 . S
C8 O14 1.255 . S
O9 Fe1 1.997 1_554 S
O9 C7 1.235 . S
C10 O16 1.287 . S
C10 O17 1.255 . S
O11 Fe0 1.976 . S
O11 C18 1.287 . S
O12 Fe1 1.996 . S
O12 C18 1.255 1_556 S
O13 Fe3 1.976 . S
O13 C8 1.287 . S
O14 Fe0 1.996 1_556 S
O14 C8 1.255 . S
C15 O19 1.295 1_556 S
C15 O20 1.235 . S
O16 Fe1 1.976 . S
O16 C10 1.287 . S
O17 Fe3 1.996 . S
O17 C10 1.255 . S
C18 O11 1.287 . S
C18 O12 1.255 1_554 S
O19 Fe1 2.002 1_554 S
O19 C15 1.295 1_554 S
O20 Fe3 1.997 . S
O20 C15 1.235 . S
C21 O4 1.295 . S
C21 O5 1.235 . S
Fe22 O24 1.918 . S
Fe22 O27 1.997 . S
Fe22 O28 2.002 . S
Fe22 O33 1.976 . S
Fe22 O36 1.996 . S
Fe23 O24 1.918 . S
Fe23 O31 1.997 . S
Fe23 O34 1.996 . S
Fe23 O38 1.976 . S
Fe23 O41 2.002 . S
O24 Fe22 1.918 . S
O24 Fe23 1.918 . S
O24 Fe25 1.918 . S
Fe25 O24 1.918 . S
Fe25 O26 2.002 . S
Fe25 O35 1.976 . S
Fe25 O39 1.996 1_554 S
Fe25 O42 1.997 . S
O26 Fe25 2.002 . S
O26 C43 1.295 . S
O27 Fe22 1.997 . S
O27 C43 1.235 . S
O28 Fe22 2.002 . S
O28 C29 1.295 . S
C29 O28 1.295 . S
C29 O31 1.235 . S
C30 O35 1.287 . S
C30 O36 1.255 . S
O31 Fe23 1.997 . S
O31 C29 1.235 . S
C32 O38 1.287 1_556 S
C32 O39 1.255 . S
O33 Fe22 1.976 . S
O33 C40 1.287 . S
O34 Fe23 1.996 . S
O34 C40 1.255 . S
O35 Fe25 1.976 . S
O35 C30 1.287 . S
O36 Fe22 1.996 . S
O36 C30 1.255 . S
C37 O41 1.295 . S
C37 O42 1.235 . S
O38 Fe23 1.976 . S
O38 C32 1.287 1_554 S
O39 Fe25 1.996 1_556 S
O39 C32 1.255 . S
C40 O33 1.287 . S
C40 O34 1.255 . S
O41 Fe23 2.002 . S
O41 C37 1.295 . S
O42 Fe25 1.997 . S
O42 C37 1.235 . S
C43 O26 1.295 . S
C43 O27 1.235 . S
Fe44 O46 1.918 . S
Fe44 O49 1.997 . S
Fe44 O50 2.002 . S
Fe44 O55 1.976 . S
Fe44 O58 1.996 . S
Fe45 O46 1.918 . S
Fe45 O53 1.997 . S
Fe45 O56 1.996 . S
Fe45 O60 1.976 . S
Fe45 O63 2.002 1_556 S
O46 Fe44 1.918 . S
O46 Fe45 1.918 . S
O46 Fe47 1.918 . S
Fe47 O46 1.918 . S
Fe47 O48 2.002 . S
Fe47 O57 1.976 . S
Fe47 O61 1.996 . S
Fe47 O64 1.997 . S
O48 Fe47 2.002 . S
O48 C65 1.295 . S
O49 Fe44 1.997 . S
O49 C65 1.235 . S
O50 Fe44 2.002 . S
O50 C51 1.295 . S
C51 O50 1.295 . S
C51 O53 1.235 . S
C52 O57 1.287 . S
C52 O58 1.255 . S
O53 Fe45 1.997 . S
O53 C51 1.235 . S
C54 O60 1.287 . S
C54 O61 1.255 . S
O55 Fe44 1.976 . S
O55 C62 1.287 . S
O56 Fe45 1.996 . S
O56 C62 1.255 . S
O57 Fe47 1.976 . S
O57 C52 1.287 . S
O58 Fe44 1.996 . S
O58 C52 1.255 . S
C59 O63 1.295 . S
C59 O64 1.235 1_554 S
O60 Fe45 1.976 . S
O60 C54 1.287 . S
O61 Fe47 1.996 . S
O61 C54 1.255 . S
C62 O55 1.287 . S
C62 O56 1.255 . S
O63 Fe45 2.002 1_554 S
O63 C59 1.295 . S
O64 Fe47 1.997 . S
O64 C59 1.235 1_556 S
C65 O48 1.295 . S
C65 O49 1.235 . S
Fe66 O68 1.918 . S
Fe66 O71 1.997 . S
Fe66 O72 2.002 1_556 S
Fe66 O77 1.976 . S
Fe66 O80 1.996 . S
Fe67 O68 1.918 1_554 S
Fe67 O75 1.997 . S
Fe67 O78 1.996 1_554 S
Fe67 O82 1.976 . S
Fe67 O85 2.002 . S
O68 Fe66 1.918 . S
O68 Fe67 1.918 1_556 S
O68 Fe69 1.918 . S
Fe69 O68 1.918 . S
Fe69 O70 2.002 1_556 S
Fe69 O79 1.976 . S
Fe69 O83 1.996 . S
Fe69 O86 1.997 1_556 S
O70 Fe69 2.002 1_554 S
O70 C87 1.295 1_554 S
O71 Fe66 1.997 . S
O71 C87 1.235 . S
O72 Fe66 2.002 1_554 S
O72 C73 1.295 . S
C73 O72 1.295 . S
C73 O75 1.235 . S
C74 O79 1.287 . S
C74 O80 1.255 . S
O75 Fe67 1.997 . S
O75 C73 1.235 . S
C76 O82 1.287 . S
C76 O83 1.255 1_554 S
O77 Fe66 1.976 . S
O77 C84 1.287 . S
O78 Fe67 1.996 1_556 S
O78 C84 1.255 . S
O79 Fe69 1.976 . S
O79 C74 1.287 . S
O80 Fe66 1.996 . S
O80 C74 1.255 . S
C81 O85 1.295 . S
C81 O86 1.235 . S
O82 Fe67 1.976 . S
O82 C76 1.287 . S
O83 Fe69 1.996 . S
O83 C76 1.255 1_556 S
C84 O77 1.287 . S
C84 O78 1.255 . S
O85 Fe67 2.002 . S
O85 C81 1.295 . S
O86 Fe69 1.997 1_554 S
O86 C81 1.235 . S
C87 O70 1.295 1_556 S
C87 O71 1.235 . S
Fe88 O90 1.918 . S
Fe88 O93 1.997 . S
Fe88 O94 2.002 . S
Fe88 O99 1.976 . S
Fe88 O102 1.996 1_554 S
Fe89 O90 1.918 . S
Fe89 O97 1.997 . S
Fe89 O100 1.996 . S
Fe89 O104 1.976 . S
Fe89 O107 2.002 . S
O90 Fe88 1.918 . S
O90 Fe89 1.918 . S
O90 Fe91 1.918 . S
Fe91 O90 1.918 . S
Fe91 O92 2.002 . S
Fe91 O101 1.976 . S
Fe91 O105 1.996 . S
Fe91 O108 1.997 . S
O92 Fe91 2.002 . S
O92 C109 1.295 . S
O93 Fe88 1.997 . S
O93 C109 1.235 . S
O94 Fe88 2.002 . S
O94 C95 1.295 . S
C95 O94 1.295 . S
C95 O97 1.235 . S
C96 O101 1.287 1_556 S
C96 O102 1.255 . S
O97 Fe89 1.997 . S
O97 C95 1.235 . S
C98 O104 1.287 . S
C98 O105 1.255 . S
O99 Fe88 1.976 . S
O99 C106 1.287 . S
O100 Fe89 1.996 . S
O100 C106 1.255 . S
O101 Fe91 1.976 . S
O101 C96 1.287 1_554 S
O102 Fe88 1.996 1_556 S
O102 C96 1.255 . S
C103 O107 1.295 . S
C103 O108 1.235 . S
O104 Fe89 1.976 . S
O104 C98 1.287 . S
O105 Fe91 1.996 . S
O105 C98 1.255 . S
C106 O99 1.287 . S
C106 O100 1.255 . S
O107 Fe89 2.002 . S
O107 C103 1.295 . S
O108 Fe91 1.997 . S
O108 C103 1.235 . S
C109 O92 1.295 . S
C109 O93 1.235 . S
Fe110 O112 1.918 . S
Fe110 O115 1.997 . S
Fe110 O116 2.002 1_556 S
Fe110 O121 1.976 . S
Fe110 O124 1.996 . S
Fe111 O112 1.918 . S
Fe111 O119 1.997 . S
Fe111 O122 1.996 . S
Fe111 O126 1.976 . S
Fe111 O129 2.002 . S
O112 Fe110 1.918 . S
O112 Fe111 1.918 . S
O112 Fe113 1.918 . S
Fe113 O112 1.918 . S
Fe113 O114 2.002 . S
Fe113 O123 1.976 . S
Fe113 O127 1.996 . S
Fe113 O130 1.997 . S
O114 Fe113 2.002 . S
O114 C131 1.295 . S
O115 Fe110 1.997 . S
O115 C131 1.235 . S
O116 Fe110 2.002 1_554 S
O116 C117 1.295 . S
C117 O116 1.295 . S
C117 O119 1.235 1_554 S
C118 O123 1.287 . S
C118 O124 1.255 . S
O119 Fe111 1.997 . S
O119 C117 1.235 1_556 S
C120 O126 1.287 . S
C120 O127 1.255 . S
O121 Fe110 1.976 . S
O121 C128 1.287 . S
O122 Fe111 1.996 . S
O122 C128 1.255 . S
O123 Fe113 1.976 . S
O123 C118 1.287 . S
O124 Fe110 1.996 . S
O124 C118 1.255 . S
C125 O129 1.295 . S
C125 O130 1.235 . S
O126 Fe111 1.976 . S
O126 C120 1.287 . S
O127 Fe113 1.996 . S
O127 C120 1.255 . S
C128 O121 1.287 . S
C128 O122 1.255 . S
O129 Fe111 2.002 . S
O129 C125 1.295 . S
O130 Fe113 1.997 . S
O130 C125 1.235 . S
C131 O114 1.295 . S
C131 O115 1.235 . S
C125 C18 2.622 1_556 S
C15 C40 2.622 1_456 S
C37 C54 2.622 1_545 S
C65 C76 2.622 1_556 S
C98 C87 2.622 1_454 S
C128 C109 2.622 1_545 S
C10 C7 1.646 . S
C32 C29 1.646 . S
C52 C59 1.646 . S
C74 C81 1.646 . S
C103 C96 1.646 . S
C120 C117 1.646 . S
C21 C106 1.503 . S
C43 C118 1.503 . S
C8 C51 1.503 . S
C30 C73 1.503 . S
C95 C62 1.503 . S
C84 C131 1.503 . S
