# Generated by pormake.
# Topology qtz-a, (4)-cn, num edge types: 1
# Building blocks:
#     Node 0, Type 0, BuildingBlock: AZAVOO_clean_sbu_0, # of connection points: 4
#     Node 1, Type 0, BuildingBlock: AZAVOO_clean_sbu_0, # of connection points: 4
#     Node 2, Type 0, BuildingBlock: AZAVOO_clean_sbu_0, # of connection points: 4
#     Node 3, Type 0, BuildingBlock: AZAVOO_clean_sbu_0, # of connection points: 4
#     Node 4, Type 0, BuildingBlock: AZAVOO_clean_sbu_0, # of connection points: 4
#     Node 5, Type 0, BuildingBlock: AZAVOO_clean_sbu_0, # of connection points: 4
#     Node 6, Type 0, BuildingBlock: AZAVOO_clean_sbu_0, # of connection points: 4
#     Node 7, Type 0, BuildingBlock: AZAVOO_clean_sbu_0, # of connection points: 4
#     Node 8, Type 0, BuildingBlock: AZAVOO_clean_sbu_0, # of connection points: 4
#     Node 9, Type 0, BuildingBlock: AZAVOO_clean_sbu_0, # of connection points: 4
#     Node 10, Type 0, BuildingBlock: AZAVOO_clean_sbu_0, # of connection points: 4
#     Node 11, Type 0, BuildingBlock: AZAVOO_clean_sbu_0, # of connection points: 4
#     Edge 12, Type (0, 0), None
#     Edge 13, Type (0, 0), None
#     Edge 14, Type (0, 0), None
#     Edge 15, Type (0, 0), None
#     Edge 16, Type (0, 0), None
#     Edge 17, Type (0, 0), None
#     Edge 18, Type (0, 0), None
#     Edge 19, Type (0, 0), None
#     Edge 20, Type (0, 0), None
#     Edge 21, Type (0, 0), None
#     Edge 22, Type (0, 0), None
#     Edge 23, Type (0, 0), None
#     Edge 24, Type (0, 0), None
#     Edge 25, Type (0, 0), None
#     Edge 26, Type (0, 0), None
#     Edge 27, Type (0, 0), None
#     Edge 28, Type (0, 0), None
#     Edge 29, Type (0, 0), None
#     Edge 30, Type (0, 0), None
#     Edge 31, Type (0, 0), None
#     Edge 32, Type (0, 0), None
#     Edge 33, Type (0, 0), None
#     Edge 34, Type (0, 0), None
#     Edge 35, Type (0, 0), None
# Relax obj value: 0.767
# Max RMSD: 0.323
# Mean RMSD: 0.320
data_MOF--net-qtz-a--node1-AZAVOO_clean_sbu_0--edge1-none
_symmetry_space_group_name_H-M    P1
_symmetry_Int_Tables_number       1
_symmetry_cell_setting            triclinic
loop_
_symmetry_equiv_pos_as_xyz
'x, y, z'
_cell_length_a     18.049269
_cell_length_b     18.049134
_cell_length_c     23.042154
_cell_angle_alpha  90.086505
_cell_angle_beta   89.933316
_cell_angle_gamma 98.533836
loop_
_atom_site_label
_atom_site_type_symbol
_atom_site_fract_x
_atom_site_fract_y
_atom_site_fract_z
_atom_type_partial_charge
Mg0 Mg 0.41714 0.14098 0.01331 0.0
O1 O 0.54433 0.14744 0.97404 0.0
O2 O 0.52498 0.10882 0.88365 0.0
Mg3 Mg 0.4326 0.00153 0.89252 0.0
C4 C 0.56945 0.12551 0.92563 0.0
C5 C 0.42142 0.26951 0.10495 0.0
O6 O 0.42594 0.33782 0.12519 0.0
O7 O 0.33098 0.17655 0.93431 0.0
O8 O 0.3432 0.11306 0.85519 0.0
O9 O 0.47731 0.07851 0.07815 0.0
O10 O 0.42386 0.02424 -9e-05 0.0
C11 C 0.29917 0.13492 0.89245 0.0
C12 C 0.46564 0.02123 0.04422 0.0
O13 O 0.43022 0.25948 0.05077 0.0
Mg14 Mg 0.30619 0.45455 0.40219 0.0
O15 O 0.27946 0.57337 0.36832 0.0
O16 O 0.3118 0.58631 0.27578 0.0
Mg17 Mg 0.32362 0.4687 0.27061 0.0
C18 C 0.30547 0.61531 0.32512 0.0
C19 C 0.20154 0.40826 0.51732 0.0
O20 O 0.13772 0.37429 0.53793 0.0
O21 O 0.24768 0.37869 0.33135 0.0
O22 O 0.31795 0.34506 0.26348 0.0
O23 O 0.41138 0.4984 0.45076 0.0
O24 O 0.40722 0.4846 0.35561 0.0
C25 C 0.28436 0.32894 0.31082 0.0
C26 C 0.44726 0.49326 0.40295 0.0
O27 O 0.20629 0.42178 0.46308 0.0
Mg28 Mg 0.97256 0.3022 0.85831 0.0
O29 O 0.87869 0.31922 0.79387 0.0
O30 O 0.95302 0.33343 0.71945 0.0
Mg31 Mg 0.08848 0.41345 0.73592 0.0
C32 C 0.88855 0.34193 0.742 0.0
C33 C 0.84613 0.14557 0.86272 0.0
O34 O 0.80823 0.09483 0.89593 0.0
O35 O 0.02813 0.22146 0.79503 0.0
O36 O 0.02429 0.29323 0.7213 0.0
O37 O 0.93908 0.4062 0.90372 0.0
O38 O 0.04215 0.42249 0.85145 0.0
C39 C 0.06298 0.25578 0.75252 0.0
C40 C -0.0081 0.45246 0.88012 0.0
O41 O 0.89007 0.19839 0.88749 0.0
Mg42 Mg 0.56392 0.84729 0.01314 0.0
O43 O 0.43679 0.84064 0.97391 0.0
O44 O 0.45631 0.8791 0.88354 0.0
Mg45 Mg 0.5487 0.98641 0.89247 0.0
C46 C 0.41176 0.86248 0.92553 0.0
C47 C 0.55981 0.71901 0.10457 0.0
O48 O 0.5555 0.65074 0.12465 0.0
O49 O 0.65025 0.81152 0.93411 0.0
O50 O 0.6382 0.87484 0.85504 0.0
O51 O 0.5035 0.9098 0.07804 0.0
O52 O 0.55713 0.96396 -0.00016 0.0
C53 C 0.68215 0.85307 0.89228 0.0
C54 C 0.51525 0.96702 0.04417 0.0
O55 O 0.55101 0.72895 0.05043 0.0
Mg56 Mg 0.67481 0.5344 0.40341 0.0
O57 O 0.69523 0.41382 0.36869 0.0
O58 O 0.65878 0.40294 0.27638 0.0
Mg59 Mg 0.65407 0.52084 0.27036 0.0
C60 C 0.66946 0.37314 0.32464 0.0
C61 C 0.78038 0.5793 0.51768 0.0
O62 O 0.84432 0.61299 0.53824 0.0
O63 O 0.73276 0.60843 0.33123 0.0
O64 O 0.66527 0.64498 0.26288 0.0
O65 O 0.56721 0.4943 0.45205 0.0
O66 O 0.57424 0.50632 0.35738 0.0
C67 C 0.69754 0.65937 0.3109 0.0
C68 C 0.53256 0.49863 0.40375 0.0
O69 O 0.77559 0.56563 0.46344 0.0
Mg70 Mg 0.00864 0.68582 0.85841 0.0
O71 O 0.10253 0.66861 0.79387 0.0
O72 O 0.02825 0.65422 0.71952 0.0
Mg73 Mg 0.89282 0.57424 0.73612 0.0
C74 C 0.09271 0.64578 0.74199 0.0
C75 C 0.13515 0.8424 0.86275 0.0
O76 O 0.17305 0.8932 0.89595 0.0
O77 O 0.95318 0.76642 0.79524 0.0
O78 O 0.95703 0.69443 0.72147 0.0
O79 O 0.04207 0.58194 0.90373 0.0
O80 O 0.93903 0.56551 0.85159 0.0
C81 C 0.91835 0.73199 0.75276 0.0
C82 C 0.98928 0.53562 0.88015 0.0
O83 O 0.09114 0.78968 0.88754 0.0
Mg84 Mg 0.84394 0.56721 0.64842 0.0
O85 O 0.83724 0.44008 0.68761 0.0
O86 O 0.87577 0.45959 0.77798 0.0
Mg87 Mg 0.98307 0.55194 0.76907 0.0
C88 C 0.85911 0.41505 0.73598 0.0
C89 C 0.71572 0.56322 0.55693 0.0
O90 O 0.64747 0.55905 0.53681 0.0
O91 O 0.80821 0.65363 0.72738 0.0
O92 O 0.87156 0.6415 0.80657 0.0
O93 O 0.90638 0.50673 0.58354 0.0
O94 O 0.96059 0.56037 0.66173 0.0
C95 C 0.84959 0.68538 0.76938 0.0
C96 C 0.96361 0.51846 0.6174 0.0
O97 O 0.72561 0.5544 0.61108 0.0
Mg98 Mg 0.29892 0.97585 0.80316 0.0
O99 O 0.31599 0.88203 0.86758 0.0
O100 O 0.33026 0.95637 0.94212 0.0
Mg101 Mg 0.41026 0.09183 0.92557 0.0
C102 C 0.33864 0.89192 0.91947 0.0
C103 C 0.14229 0.84943 0.79877 0.0
O104 O 0.09152 0.81151 0.76557 0.0
O105 O 0.21821 0.03148 0.86642 0.0
O106 O 0.29004 0.02767 0.94026 0.0
O107 O 0.40288 0.94233 0.75776 0.0
O108 O 0.4192 0.04541 0.81005 0.0
C109 C 0.25246 0.06621 0.90903 0.0
C110 C 0.44916 -0.00486 0.78139 0.0
O111 O 0.19508 0.89336 0.77398 0.0
Mg112 Mg 0.45126 0.30945 0.2593 0.0
O113 O 0.57008 0.28246 0.29302 0.0
O114 O 0.58325 0.31442 0.38565 0.0
Mg115 Mg 0.4657 0.32679 0.39087 0.0
C116 C 0.6121 0.30832 0.33623 0.0
C117 C 0.40481 0.20492 0.1441 0.0
O118 O 0.37084 0.14112 0.12342 0.0
O119 O 0.37548 0.2509 0.33016 0.0
O120 O 0.34211 0.32145 0.39804 0.0
O121 O 0.49511 0.41466 0.21078 0.0
O122 O 0.48144 0.41048 0.30593 0.0
C123 C 0.32584 0.28763 0.3508 0.0
C124 C 0.49002 0.45054 0.25861 0.0
O125 O 0.41832 0.20962 0.19834 0.0
Mg126 Mg 0.13755 0.42034 0.64816 0.0
O127 O 0.14403 0.54753 0.68745 0.0
O128 O 0.10549 0.52822 0.77785 0.0
Mg129 Mg -0.0018 0.43584 0.76898 0.0
C130 C 0.12215 0.57266 0.73587 0.0
C131 C 0.2661 0.42481 0.55652 0.0
O132 O 0.33443 0.42942 0.53632 0.0
O133 O 0.17314 0.33408 0.72705 0.0
O134 O 0.10972 0.34644 0.80632 0.0
O135 O 0.07507 0.48056 0.58339 0.0
O136 O 0.0208 0.42701 0.6616 0.0
C137 C 0.13173 0.30246 0.76908 0.0
C138 C 0.01781 0.46885 0.61732 0.0
O139 O 0.25604 0.43349 0.61071 0.0
Mg140 Mg 0.68251 0.01185 0.80312 0.0
O141 O 0.6653 0.10581 0.86761 0.0
O142 O 0.65091 0.03165 0.94211 0.0
Mg143 Mg 0.57093 0.89616 0.92545 0.0
C144 C 0.64257 0.09606 0.91951 0.0
C145 C 0.83908 0.13836 0.79874 0.0
O146 O 0.88984 0.17626 0.76552 0.0
O147 O 0.76314 0.95645 0.86633 0.0
O148 O 0.69112 0.96039 0.94018 0.0
O149 O 0.57864 0.04524 0.75777 0.0
O150 O 0.5622 0.94227 0.80997 0.0
C151 C 0.72881 0.9218 0.90891 0.0
C152 C 0.53231 0.99249 0.78138 0.0
O153 O 0.78635 0.09432 0.77396 0.0
Mg154 Mg 0.53107 0.67812 0.25815 0.0
O155 O 0.41053 0.69885 0.29273 0.0
O156 O 0.39948 0.66273 0.38511 0.0
Mg157 Mg 0.51735 0.65754 0.39117 0.0
C158 C 0.36979 0.67324 0.33677 0.0
C159 C 0.57599 0.78364 0.14386 0.0
O160 O 0.6097 0.84757 0.12333 0.0
O161 O 0.6051 0.73613 0.33036 0.0
O162 O 0.64145 0.66841 0.39872 0.0
O163 O 0.49094 0.57048 0.20952 0.0
O164 O 0.5029 0.57755 0.3042 0.0
C165 C 0.65595 0.70086 0.35079 0.0
C166 C 0.49525 0.53584 0.25782 0.0
O167 O 0.5624 0.77883 0.1981 0.0
loop_
_geom_bond_atom_site_label_1
_geom_bond_atom_site_label_2
_geom_bond_distance
_geom_bond_site_symmetry_2
_ccdc_geom_bond_type
Mg0 O1 2.028 1_554 S
Mg0 O7 1.986 1_554 S
Mg0 O9 2.114 . S
Mg0 O10 2.251 1_554 S
Mg0 O13 2.010 . S
O1 Mg0 2.028 1_556 S
O1 C4 1.250 . S
O2 Mg3 2.028 . S
O2 C4 1.248 . S
Mg3 O2 2.028 . S
Mg3 O8 2.032 . S
Mg3 O10 2.079 . S
C4 O1 1.250 . S
C4 O2 1.248 . S
C5 O6 1.264 . S
C5 O13 1.249 . S
O6 C5 1.264 . S
O7 Mg0 1.986 1_556 S
O7 C11 1.246 . S
O8 Mg3 2.032 . S
O8 C11 1.259 . S
O9 Mg0 2.114 . S
O9 C12 1.252 . S
O10 Mg0 2.251 1_556 S
O10 Mg3 2.079 . S
O10 C12 1.273 1_556 S
C11 O7 1.246 . S
C11 O8 1.259 . S
C12 O9 1.252 . S
C12 O10 1.273 1_554 S
O13 Mg0 2.010 . S
O13 C5 1.249 . S
Mg14 O15 2.028 . S
Mg14 O21 1.986 . S
Mg14 O23 2.114 . S
Mg14 O24 2.251 . S
Mg14 O27 2.010 . S
O15 Mg14 2.028 . S
O15 C18 1.250 . S
O16 Mg17 2.028 . S
O16 C18 1.248 . S
Mg17 O16 2.028 . S
Mg17 O22 2.032 . S
Mg17 O24 2.079 . S
C18 O15 1.250 . S
C18 O16 1.248 . S
C19 O20 1.264 . S
C19 O27 1.249 . S
O20 C19 1.264 . S
O21 Mg14 1.986 . S
O21 C25 1.246 . S
O22 Mg17 2.032 . S
O22 C25 1.259 . S
O23 Mg14 2.114 . S
O23 C26 1.252 . S
O24 Mg14 2.251 . S
O24 Mg17 2.079 . S
O24 C26 1.273 . S
C25 O21 1.246 . S
C25 O22 1.259 . S
C26 O23 1.252 . S
C26 O24 1.273 . S
O27 Mg14 2.010 . S
O27 C19 1.249 . S
Mg28 O29 2.028 . S
Mg28 O35 1.986 1_655 S
Mg28 O37 2.114 . S
Mg28 O38 2.251 1_655 S
Mg28 O41 2.010 . S
O29 Mg28 2.028 . S
O29 C32 1.250 . S
O30 Mg31 2.028 1_655 S
O30 C32 1.248 . S
Mg31 O30 2.028 1_455 S
Mg31 O36 2.032 . S
Mg31 O38 2.079 . S
C32 O29 1.250 . S
C32 O30 1.248 . S
C33 O34 1.264 . S
C33 O41 1.249 . S
O34 C33 1.264 . S
O35 Mg28 1.986 1_455 S
O35 C39 1.246 . S
O36 Mg31 2.032 . S
O36 C39 1.259 . S
O37 Mg28 2.114 . S
O37 C40 1.252 . S
O38 Mg28 2.251 1_455 S
O38 Mg31 2.079 . S
O38 C40 1.273 1_455 S
C39 O35 1.246 . S
C39 O36 1.259 . S
C40 O37 1.252 . S
C40 O38 1.273 1_655 S
O41 Mg28 2.010 . S
O41 C33 1.249 . S
Mg42 O43 2.028 1_554 S
Mg42 O49 1.986 1_554 S
Mg42 O51 2.114 . S
Mg42 O52 2.251 1_554 S
Mg42 O55 2.010 . S
O43 Mg42 2.028 1_556 S
O43 C46 1.250 . S
O44 Mg45 2.028 . S
O44 C46 1.248 . S
Mg45 O44 2.028 . S
Mg45 O50 2.032 . S
Mg45 O52 2.079 . S
C46 O43 1.250 . S
C46 O44 1.248 . S
C47 O48 1.264 . S
C47 O55 1.249 . S
O48 C47 1.264 . S
O49 Mg42 1.986 1_556 S
O49 C53 1.246 . S
O50 Mg45 2.032 . S
O50 C53 1.259 . S
O51 Mg42 2.114 . S
O51 C54 1.252 . S
O52 Mg42 2.251 1_556 S
O52 Mg45 2.079 . S
O52 C54 1.273 1_556 S
C53 O49 1.246 . S
C53 O50 1.259 . S
C54 O51 1.252 . S
C54 O52 1.273 1_554 S
O55 Mg42 2.010 . S
O55 C47 1.249 . S
Mg56 O57 2.028 . S
Mg56 O63 1.986 . S
Mg56 O65 2.114 . S
Mg56 O66 2.251 . S
Mg56 O69 2.010 . S
O57 Mg56 2.028 . S
O57 C60 1.250 . S
O58 Mg59 2.028 . S
O58 C60 1.248 . S
Mg59 O58 2.028 . S
Mg59 O64 2.032 . S
Mg59 O66 2.079 . S
C60 O57 1.250 . S
C60 O58 1.248 . S
C61 O62 1.264 . S
C61 O69 1.249 . S
O62 C61 1.264 . S
O63 Mg56 1.986 . S
O63 C67 1.246 . S
O64 Mg59 2.032 . S
O64 C67 1.259 . S
O65 Mg56 2.114 . S
O65 C68 1.252 . S
O66 Mg56 2.251 . S
O66 Mg59 2.079 . S
O66 C68 1.273 . S
C67 O63 1.246 . S
C67 O64 1.259 . S
C68 O65 1.252 . S
C68 O66 1.273 . S
O69 Mg56 2.010 . S
O69 C61 1.249 . S
Mg70 O71 2.028 . S
Mg70 O77 1.986 1_455 S
Mg70 O79 2.114 . S
Mg70 O80 2.251 1_455 S
Mg70 O83 2.010 . S
O71 Mg70 2.028 . S
O71 C74 1.250 . S
O72 Mg73 2.028 1_455 S
O72 C74 1.248 . S
Mg73 O72 2.028 1_655 S
Mg73 O78 2.032 . S
Mg73 O80 2.079 . S
C74 O71 1.250 . S
C74 O72 1.248 . S
C75 O76 1.264 . S
C75 O83 1.249 . S
O76 C75 1.264 . S
O77 Mg70 1.986 1_655 S
O77 C81 1.246 . S
O78 Mg73 2.032 . S
O78 C81 1.259 . S
O79 Mg70 2.114 . S
O79 C82 1.252 . S
O80 Mg70 2.251 1_655 S
O80 Mg73 2.079 . S
O80 C82 1.273 1_655 S
C81 O77 1.246 . S
C81 O78 1.259 . S
C82 O79 1.252 . S
C82 O80 1.273 1_455 S
O83 Mg70 2.010 . S
O83 C75 1.249 . S
Mg84 O85 2.028 . S
Mg84 O91 1.986 . S
Mg84 O93 2.114 . S
Mg84 O94 2.251 . S
Mg84 O97 2.010 . S
O85 Mg84 2.028 . S
O85 C88 1.250 . S
O86 Mg87 2.028 . S
O86 C88 1.248 . S
Mg87 O86 2.028 . S
Mg87 O92 2.032 . S
Mg87 O94 2.079 . S
C88 O85 1.250 . S
C88 O86 1.248 . S
C89 O90 1.264 . S
C89 O97 1.249 . S
O90 C89 1.264 . S
O91 Mg84 1.986 . S
O91 C95 1.246 . S
O92 Mg87 2.032 . S
O92 C95 1.259 . S
O93 Mg84 2.114 . S
O93 C96 1.252 . S
O94 Mg84 2.251 . S
O94 Mg87 2.079 . S
O94 C96 1.273 . S
C95 O91 1.246 . S
C95 O92 1.259 . S
C96 O93 1.252 . S
C96 O94 1.273 . S
O97 Mg84 2.010 . S
O97 C89 1.249 . S
Mg98 O99 2.028 . S
Mg98 O105 1.986 1_565 S
Mg98 O107 2.114 . S
Mg98 O108 2.251 1_565 S
Mg98 O111 2.010 . S
O99 Mg98 2.028 . S
O99 C102 1.250 . S
O100 Mg101 2.028 1_565 S
O100 C102 1.248 . S
Mg101 O100 2.028 1_545 S
Mg101 O106 2.032 . S
Mg101 O108 2.079 . S
C102 O99 1.250 . S
C102 O100 1.248 . S
C103 O104 1.264 . S
C103 O111 1.249 . S
O104 C103 1.264 . S
O105 Mg98 1.986 1_545 S
O105 C109 1.246 . S
O106 Mg101 2.032 . S
O106 C109 1.259 . S
O107 Mg98 2.114 . S
O107 C110 1.252 . S
O108 Mg98 2.251 1_545 S
O108 Mg101 2.079 . S
O108 C110 1.273 1_545 S
C109 O105 1.246 . S
C109 O106 1.259 . S
C110 O107 1.252 . S
C110 O108 1.273 1_565 S
O111 Mg98 2.010 . S
O111 C103 1.249 . S
Mg112 O113 2.028 . S
Mg112 O119 1.986 . S
Mg112 O121 2.114 . S
Mg112 O122 2.251 . S
Mg112 O125 2.010 . S
O113 Mg112 2.028 . S
O113 C116 1.250 . S
O114 Mg115 2.028 . S
O114 C116 1.248 . S
Mg115 O114 2.028 . S
Mg115 O120 2.032 . S
Mg115 O122 2.079 . S
C116 O113 1.250 . S
C116 O114 1.248 . S
C117 O118 1.264 . S
C117 O125 1.249 . S
O118 C117 1.264 . S
O119 Mg112 1.986 . S
O119 C123 1.246 . S
O120 Mg115 2.032 . S
O120 C123 1.259 . S
O121 Mg112 2.114 . S
O121 C124 1.252 . S
O122 Mg112 2.251 . S
O122 Mg115 2.079 . S
O122 C124 1.273 . S
C123 O119 1.246 . S
C123 O120 1.259 . S
C124 O121 1.252 . S
C124 O122 1.273 . S
O125 Mg112 2.010 . S
O125 C117 1.249 . S
Mg126 O127 2.028 . S
Mg126 O133 1.986 . S
Mg126 O135 2.114 . S
Mg126 O136 2.251 . S
Mg126 O139 2.010 . S
O127 Mg126 2.028 . S
O127 C130 1.250 . S
O128 Mg129 2.028 . S
O128 C130 1.248 . S
Mg129 O128 2.028 . S
Mg129 O134 2.032 . S
Mg129 O136 2.079 . S
C130 O127 1.250 . S
C130 O128 1.248 . S
C131 O132 1.264 . S
C131 O139 1.249 . S
O132 C131 1.264 . S
O133 Mg126 1.986 . S
O133 C137 1.246 . S
O134 Mg129 2.032 . S
O134 C137 1.259 . S
O135 Mg126 2.114 . S
O135 C138 1.252 . S
O136 Mg126 2.251 . S
O136 Mg129 2.079 . S
O136 C138 1.273 . S
C137 O133 1.246 . S
C137 O134 1.259 . S
C138 O135 1.252 . S
C138 O136 1.273 . S
O139 Mg126 2.010 . S
O139 C131 1.249 . S
Mg140 O141 2.028 . S
Mg140 O147 1.986 1_545 S
Mg140 O149 2.114 . S
Mg140 O150 2.251 1_545 S
Mg140 O153 2.010 . S
O141 Mg140 2.028 . S
O141 C144 1.250 . S
O142 Mg143 2.028 1_545 S
O142 C144 1.248 . S
Mg143 O142 2.028 1_565 S
Mg143 O148 2.032 . S
Mg143 O150 2.079 . S
C144 O141 1.250 . S
C144 O142 1.248 . S
C145 O146 1.264 . S
C145 O153 1.249 . S
O146 C145 1.264 . S
O147 Mg140 1.986 1_565 S
O147 C151 1.246 . S
O148 Mg143 2.032 . S
O148 C151 1.259 . S
O149 Mg140 2.114 . S
O149 C152 1.252 . S
O150 Mg140 2.251 1_565 S
O150 Mg143 2.079 . S
O150 C152 1.273 1_565 S
C151 O147 1.246 . S
C151 O148 1.259 . S
C152 O149 1.252 . S
C152 O150 1.273 1_545 S
O153 Mg140 2.010 . S
O153 C145 1.249 . S
Mg154 O155 2.028 . S
Mg154 O161 1.986 . S
Mg154 O163 2.114 . S
Mg154 O164 2.251 . S
Mg154 O167 2.010 . S
O155 Mg154 2.028 . S
O155 C158 1.250 . S
O156 Mg157 2.028 . S
O156 C158 1.248 . S
Mg157 O156 2.028 . S
Mg157 O162 2.032 . S
Mg157 O164 2.079 . S
C158 O155 1.250 . S
C158 O156 1.248 . S
C159 O160 1.264 . S
C159 O167 1.249 . S
O160 C159 1.264 . S
O161 Mg154 1.986 . S
O161 C165 1.246 . S
O162 Mg157 2.032 . S
O162 C165 1.259 . S
O163 Mg154 2.114 . S
O163 C166 1.252 . S
O164 Mg154 2.251 . S
O164 Mg157 2.079 . S
O164 C166 1.273 . S
C165 O161 1.246 . S
C165 O162 1.259 . S
C166 O163 1.252 . S
C166 O164 1.273 . S
O167 Mg154 2.010 . S
O167 C159 1.249 . S
C4 C144 1.255 . S
C158 C18 1.408 . S
C88 C32 1.255 . S
C46 C102 1.255 . S
C60 C116 1.408 . S
C130 C74 1.255 . S
C11 C109 0.779 . S
C123 C25 2.182 . S
C137 C39 0.779 . S
C53 C151 0.779 . S
C165 C67 2.182 . S
C81 C95 0.779 . S
C54 C12 0.564 1_565 S
C68 C26 1.157 . S
C82 C40 1.645 1_455 S
C96 C138 0.564 1_655 S
C110 C152 1.645 1_565 S
C124 C166 1.157 . S
C117 C5 1.329 . S
C131 C19 1.329 . S
C145 C33 3.053 . S
C159 C47 1.329 . S
C89 C61 1.328 . S
C75 C103 3.051 . S
