# Generated by pormake.
# Topology lon, (4)-cn, num edge types: 1
# Building blocks:
#     Node 0, Type 0, BuildingBlock: AZAVOO_clean_sbu_0, # of connection points: 4
#     Node 1, Type 0, BuildingBlock: AZAVOO_clean_sbu_0, # of connection points: 4
#     Node 2, Type 0, BuildingBlock: AZAVOO_clean_sbu_0, # of connection points: 4
#     Node 3, Type 0, BuildingBlock: AZAVOO_clean_sbu_0, # of connection points: 4
#     Edge 4, Type (0, 0), BuildingBlock: AJUNOK_clean_linker_0, # of connection points: 2
#     Edge 5, Type (0, 0), BuildingBlock: AJUNOK_clean_linker_0, # of connection points: 2
#     Edge 6, Type (0, 0), BuildingBlock: AJUNOK_clean_linker_0, # of connection points: 2
#     Edge 7, Type (0, 0), BuildingBlock: AJUNOK_clean_linker_0, # of connection points: 2
#     Edge 8, Type (0, 0), BuildingBlock: AJUNOK_clean_linker_0, # of connection points: 2
#     Edge 9, Type (0, 0), BuildingBlock: AJUNOK_clean_linker_0, # of connection points: 2
#     Edge 10, Type (0, 0), BuildingBlock: AJUNOK_clean_linker_0, # of connection points: 2
#     Edge 11, Type (0, 0), BuildingBlock: AJUNOK_clean_linker_0, # of connection points: 2
# Relax obj value: 0.024
# Max RMSD: 0.075
# Mean RMSD: 0.064
data_MOF--net-lon--node1-AZAVOO_clean_sbu_0--edge1-AJUNOK_clean_linker_0
_symmetry_space_group_name_H-M    P1
_symmetry_Int_Tables_number       1
_symmetry_cell_setting            triclinic
loop_
_symmetry_equiv_pos_as_xyz
'x, y, z'
_cell_length_a     18.39867
_cell_length_b     17.736431
_cell_length_c     31.398205
_cell_angle_alpha  98.196612
_cell_angle_beta   90.210524
_cell_angle_gamma 121.53034
loop_
_atom_site_label
_atom_site_type_symbol
_atom_site_fract_x
_atom_site_fract_y
_atom_site_fract_z
_atom_type_partial_charge
Mg0 Mg 0.45538 0.70421 0.07445 0.0
O1 O 0.3122 0.61976 0.05154 0.0
O2 O 0.25063 0.69103 0.08211 0.0
Mg3 Mg 0.35307 0.81655 0.12821 0.0
C4 C 0.24632 0.62545 0.05685 0.0
C5 C 0.54921 0.6217 0.02566 0.0
O6 O 0.60218 0.67081 0.06031 0.0
O7 O 0.47371 0.80547 0.03189 0.0
O8 O 0.42295 0.88148 0.07056 0.0
O9 O 0.43491 0.63374 0.13046 0.0
O10 O 0.43131 0.75658 0.13296 0.0
C11 C 0.46028 0.86974 0.03831 0.0
C12 C 0.42361 0.69384 0.1524 0.0
O13 O 0.48078 0.62207 0.02072 0.0
Mg14 Mg 0.67965 0.41092 0.57041 0.0
O15 O 0.6101 0.26116 0.54042 0.0
O16 O 0.49572 0.19055 0.57747 0.0
Mg17 Mg 0.49379 0.29243 0.63075 0.0
C18 C 0.54244 0.18984 0.54757 0.0
C19 C 0.83742 0.5202 0.52892 0.0
O20 O 0.8523 0.5534 0.57039 0.0
O21 O 0.57541 0.4183 0.53721 0.0
O22 O 0.46648 0.35741 0.57853 0.0
O23 O 0.7602 0.3987 0.61854 0.0
O24 O 0.63265 0.37796 0.62926 0.0
C25 C 0.50034 0.39711 0.54659 0.0
C26 C 0.69844 0.37774 0.64319 0.0
O27 O 0.76328 0.45354 0.51475 0.0
Mg28 Mg 0.29247 0.63397 0.4031 0.0
O29 O 0.37314 0.78308 0.43407 0.0
O30 O 0.32966 0.85425 0.39744 0.0
Mg31 Mg 0.22775 0.75372 0.34244 0.0
C32 C 0.37632 0.85435 0.42776 0.0
C33 C 0.33374 0.52007 0.44332 0.0
O34 O 0.30704 0.4847 0.40243 0.0
O35 O 0.17955 0.62507 0.43522 0.0
O36 O 0.13257 0.6854 0.39289 0.0
O37 O 0.38607 0.64666 0.35582 0.0
O38 O 0.27985 0.66772 0.34417 0.0
C39 C 0.12522 0.64478 0.42469 0.0
C40 C 0.34554 0.66712 0.33062 0.0
O41 O 0.33265 0.58982 0.45843 0.0
Mg42 Mg 0.75749 0.31111 0.89574 0.0
O43 O 0.69414 0.38989 0.91971 0.0
O44 O 0.56268 0.3164 0.88572 0.0
Mg45 Mg 0.54487 0.19683 0.83738 0.0
C46 C 0.62125 0.38105 0.91296 0.0
C47 C 0.92745 0.37983 0.94712 0.0
O48 O 0.92456 0.32457 0.91355 0.0
O49 O 0.67241 0.20316 0.9349 0.0
O50 O 0.54765 0.12702 0.89339 0.0
O51 O 0.81079 0.3893 0.84245 0.0
O52 O 0.68461 0.26356 0.83596 0.0
C53 C 0.59522 0.13704 0.92614 0.0
C54 C 0.74062 0.33 0.81872 0.0
O55 O 0.86369 0.38923 0.95107 0.0
C56 C 0.39424 0.6185 0.21712 0.0
C57 C 0.40341 0.69001 0.1981 0.0
C58 C 0.37775 0.61346 0.26041 0.0
C59 C 0.36813 0.67854 0.28617 0.0
H60 H 0.40003 0.56592 0.19853 0.0
H61 H 0.37055 0.55683 0.27358 0.0
S62 S 0.39318 0.88317 0.25419 0.0
N63 N 0.40808 0.83146 0.21022 0.0
N64 N 0.37313 0.8188 0.29115 0.0
C65 C 0.37785 0.75083 0.26818 0.0
C66 C 0.39654 0.75723 0.22424 0.0
C67 C 0.77928 0.42666 0.71499 0.0
C68 C 0.70704 0.36185 0.68702 0.0
C69 C 0.78855 0.41615 0.75761 0.0
C70 C 0.72649 0.33935 0.77367 0.0
H71 H 0.82848 0.48702 0.70405 0.0
H72 H 0.84507 0.46868 0.77803 0.0
S73 S 0.5298 0.14516 0.71077 0.0
N74 N 0.5747 0.21646 0.67668 0.0
N75 N 0.5931 0.19376 0.75629 0.0
C76 C 0.65495 0.27258 0.74526 0.0
C77 C 0.64482 0.28443 0.70204 0.0
C78 C 0.64431 0.56555 0.00099 0.0
C79 C 0.56738 0.5634 -0.00548 0.0
C80 C 0.66177 0.50809 0.97391 0.0
C81 C 0.60311 0.44543 0.93914 0.0
H82 H 0.69128 0.61125 0.02763 0.0
H83 H 0.72143 0.51187 0.98101 0.0
S84 S 0.394 0.41601 0.90652 0.0
N85 N 0.43329 0.4958 0.94947 0.0
N86 N 0.46601 0.38788 0.89854 0.0
C87 C 0.52668 0.44411 0.93154 0.0
C88 C 0.50902 0.50293 0.95918 0.0
C89 C 0.0624 0.62381 0.49509 0.0
C90 C 0.05105 0.61828 0.45026 0.0
C91 C 0.99285 0.59366 0.52009 0.0
C92 C 0.90882 0.55469 0.50114 0.0
H93 H 0.12574 0.65151 0.51099 0.0
H94 H 1.00493 0.59885 0.55453 0.0
S95 S 0.84499 0.52605 0.38497 0.0
N96 N 0.9501 0.57362 0.38783 0.0
N97 N 0.81826 0.51396 0.43485 0.0
C98 C 0.89649 0.54933 0.45632 0.0
C99 C 0.96785 0.58208 0.43092 0.0
C100 C 0.57063 0.09325 -0.00075 0.0
C101 C 0.56004 0.06806 0.95409 0.0
C102 C 0.53644 0.02824 0.02619 0.0
C103 C 0.49304 0.93611 0.00895 0.0
H104 H 0.60443 0.16356 0.01372 0.0
H105 H 0.54542 0.05025 0.06088 0.0
S106 S 0.4506 0.83592 0.89287 0.0
N107 N 0.50317 0.94527 0.89322 0.0
N108 N 0.44208 0.82308 0.94408 0.0
C109 C 0.48323 0.9102 0.96389 0.0
C110 C 0.51586 0.97625 0.93645 0.0
C111 C 0.40703 0.4592 0.53913 0.0
C112 C 0.45243 0.42163 0.5198 0.0
C113 C 0.36857 0.49126 0.51431 0.0
C114 C 0.37233 0.48435 0.46927 0.0
H115 H 0.40376 0.46665 0.5738 0.0
H116 H 0.33573 0.52153 0.53042 0.0
S117 S 0.48003 0.38716 0.40316 0.0
N118 N 0.49704 0.37713 0.45313 0.0
N119 N 0.42326 0.43499 0.40636 0.0
C120 C 0.4154 0.4444 0.44956 0.0
C121 C 0.45584 0.41363 0.47484 0.0
C122 C 0.09161 0.56527 0.03476 0.0
C123 C 0.16353 0.55672 0.03113 0.0
C124 C 1.01494 0.50621 0.00849 0.0
C125 C 1.00651 0.43604 0.97736 0.0
H126 H 0.09495 0.61924 0.05741 0.0
H127 H 0.96248 0.51737 0.01195 0.0
S128 S 0.17242 0.37875 0.95725 0.0
N129 N 0.21885 0.46806 -0.00442 0.0
N130 N 0.07502 0.35756 0.94641 0.0
C131 C 0.07664 0.42437 0.97447 0.0
C132 C 0.15475 0.4845 0.00128 0.0
C133 C 0.51137 0.10318 0.47293 0.0
C134 C 0.51206 0.10451 0.51783 0.0
C135 C 0.46997 0.02173 0.44384 0.0
C136 C 0.43001 0.93889 0.45859 0.0
H137 H 0.53887 0.16534 0.46023 0.0
H138 H 0.46737 0.02354 0.40953 0.0
S139 S 0.4214 0.90665 0.57308 0.0
N140 N 0.47388 0.01665 0.57572 0.0
N141 N 0.3987 0.86356 0.52108 0.0
C142 C 0.4348 0.93958 0.5034 0.0
C143 C 0.47506 0.02242 0.53299 0.0
loop_
_geom_bond_atom_site_label_1
_geom_bond_atom_site_label_2
_geom_bond_distance
_geom_bond_site_symmetry_2
_ccdc_geom_bond_type
Mg0 O1 2.028 . S
Mg0 O7 1.986 . S
Mg0 O9 2.114 . S
Mg0 O10 2.251 . S
Mg0 O13 2.010 . S
O1 Mg0 2.028 . S
O1 C4 1.250 . S
O2 Mg3 2.028 . S
O2 C4 1.248 . S
Mg3 O2 2.028 . S
Mg3 O8 2.032 . S
Mg3 O10 2.079 . S
C4 O1 1.250 . S
C4 O2 1.248 . S
C5 O6 1.264 . S
C5 O13 1.249 . S
O6 C5 1.264 . S
O7 Mg0 1.986 . S
O7 C11 1.246 . S
O8 Mg3 2.032 . S
O8 C11 1.259 . S
O9 Mg0 2.114 . S
O9 C12 1.252 . S
O10 Mg0 2.251 . S
O10 Mg3 2.079 . S
O10 C12 1.273 . S
C11 O7 1.246 . S
C11 O8 1.259 . S
C12 O9 1.252 . S
C12 O10 1.273 . S
O13 Mg0 2.010 . S
O13 C5 1.249 . S
Mg14 O15 2.028 . S
Mg14 O21 1.986 . S
Mg14 O23 2.114 . S
Mg14 O24 2.251 . S
Mg14 O27 2.010 . S
O15 Mg14 2.028 . S
O15 C18 1.250 . S
O16 Mg17 2.028 . S
O16 C18 1.248 . S
Mg17 O16 2.028 . S
Mg17 O22 2.032 . S
Mg17 O24 2.079 . S
C18 O15 1.250 . S
C18 O16 1.248 . S
C19 O20 1.264 . S
C19 O27 1.249 . S
O20 C19 1.264 . S
O21 Mg14 1.986 . S
O21 C25 1.246 . S
O22 Mg17 2.032 . S
O22 C25 1.259 . S
O23 Mg14 2.114 . S
O23 C26 1.252 . S
O24 Mg14 2.251 . S
O24 Mg17 2.079 . S
O24 C26 1.273 . S
C25 O21 1.246 . S
C25 O22 1.259 . S
C26 O23 1.252 . S
C26 O24 1.273 . S
O27 Mg14 2.010 . S
O27 C19 1.249 . S
Mg28 O29 2.028 . S
Mg28 O35 1.986 . S
Mg28 O37 2.114 . S
Mg28 O38 2.251 . S
Mg28 O41 2.010 . S
O29 Mg28 2.028 . S
O29 C32 1.250 . S
O30 Mg31 2.028 . S
O30 C32 1.248 . S
Mg31 O30 2.028 . S
Mg31 O36 2.032 . S
Mg31 O38 2.079 . S
C32 O29 1.250 . S
C32 O30 1.248 . S
C33 O34 1.264 . S
C33 O41 1.249 . S
O34 C33 1.264 . S
O35 Mg28 1.986 . S
O35 C39 1.246 . S
O36 Mg31 2.032 . S
O36 C39 1.259 . S
O37 Mg28 2.114 . S
O37 C40 1.252 . S
O38 Mg28 2.251 . S
O38 Mg31 2.079 . S
O38 C40 1.273 . S
C39 O35 1.246 . S
C39 O36 1.259 . S
C40 O37 1.252 . S
C40 O38 1.273 . S
O41 Mg28 2.010 . S
O41 C33 1.249 . S
Mg42 O43 2.028 . S
Mg42 O49 1.986 . S
Mg42 O51 2.114 . S
Mg42 O52 2.251 . S
Mg42 O55 2.010 . S
O43 Mg42 2.028 . S
O43 C46 1.250 . S
O44 Mg45 2.028 . S
O44 C46 1.248 . S
Mg45 O44 2.028 . S
Mg45 O50 2.032 . S
Mg45 O52 2.079 . S
C46 O43 1.250 . S
C46 O44 1.248 . S
C47 O48 1.264 . S
C47 O55 1.249 . S
O48 C47 1.264 . S
O49 Mg42 1.986 . S
O49 C53 1.246 . S
O50 Mg45 2.032 . S
O50 C53 1.259 . S
O51 Mg42 2.114 . S
O51 C54 1.252 . S
O52 Mg42 2.251 . S
O52 Mg45 2.079 . S
O52 C54 1.273 . S
C53 O49 1.246 . S
C53 O50 1.259 . S
C54 O51 1.252 . S
C54 O52 1.273 . S
O55 Mg42 2.010 . S
O55 C47 1.249 . S
C56 C57 1.369 . S
C56 C58 1.419 . S
C56 H60 0.930 . S
C57 C56 1.369 . S
C57 C66 1.429 . S
C58 C56 1.419 . S
C58 C59 1.363 . S
C58 H61 0.929 . S
C59 C58 1.363 . S
C59 C65 1.428 . S
H60 C56 0.930 . S
H61 C58 0.929 . S
S62 N63 1.613 . S
S62 N64 1.610 . S
N63 S62 1.613 . S
N63 C66 1.350 . S
N64 S62 1.610 . S
N64 C65 1.351 . S
C65 C59 1.428 . S
C65 N64 1.351 . S
C65 C66 1.434 . S
C66 C57 1.429 . S
C66 N63 1.350 . S
C66 C65 1.434 . S
C67 C68 1.369 . S
C67 C69 1.419 . S
C67 H71 0.930 . S
C68 C67 1.369 . S
C68 C77 1.429 . S
C69 C67 1.419 . S
C69 C70 1.363 . S
C69 H72 0.929 . S
C70 C69 1.363 . S
C70 C76 1.428 . S
H71 C67 0.930 . S
H72 C69 0.929 . S
S73 N74 1.613 . S
S73 N75 1.610 . S
N74 S73 1.613 . S
N74 C77 1.350 . S
N75 S73 1.610 . S
N75 C76 1.351 . S
C76 C70 1.428 . S
C76 N75 1.351 . S
C76 C77 1.434 . S
C77 C68 1.429 . S
C77 N74 1.350 . S
C77 C76 1.434 . S
C78 C79 1.369 . S
C78 C80 1.419 1_554 S
C78 H82 0.930 . S
C79 C78 1.369 . S
C79 C88 1.429 1_554 S
C80 C78 1.419 1_556 S
C80 C81 1.363 . S
C80 H83 0.929 . S
C81 C80 1.363 . S
C81 C87 1.428 . S
H82 C78 0.930 . S
H83 C80 0.929 . S
S84 N85 1.613 . S
S84 N86 1.610 . S
N85 S84 1.613 . S
N85 C88 1.350 . S
N86 S84 1.610 . S
N86 C87 1.351 . S
C87 C81 1.428 . S
C87 N86 1.351 . S
C87 C88 1.434 . S
C88 C79 1.429 1_556 S
C88 N85 1.350 . S
C88 C87 1.434 . S
C89 C90 1.369 . S
C89 C91 1.419 1_455 S
C89 H93 0.930 . S
C90 C89 1.369 . S
C90 C99 1.429 . S
C91 C89 1.419 1_655 S
C91 C92 1.363 . S
C91 H94 0.929 . S
C92 C91 1.363 . S
C92 C98 1.428 . S
H93 C89 0.930 . S
H94 C91 0.929 . S
S95 N96 1.613 1_655 S
S95 N97 1.610 . S
N96 S95 1.613 1_455 S
N96 C99 1.350 . S
N97 S95 1.610 . S
N97 C98 1.351 . S
C98 C92 1.428 . S
C98 N97 1.351 . S
C98 C99 1.434 1_655 S
C99 C90 1.429 . S
C99 N96 1.350 . S
C99 C98 1.434 1_455 S
C100 C101 1.369 1_554 S
C100 C102 1.419 1_545 S
C100 H104 0.930 . S
C101 C100 1.369 1_556 S
C101 C110 1.429 . S
C102 C100 1.419 1_565 S
C102 C103 1.363 . S
C102 H105 0.929 . S
C103 C102 1.363 . S
C103 C109 1.428 1_554 S
H104 C100 0.930 . S
H105 C102 0.929 . S
S106 N107 1.613 1_565 S
S106 N108 1.610 . S
N107 S106 1.613 1_545 S
N107 C110 1.350 . S
N108 S106 1.610 . S
N108 C109 1.351 . S
C109 C103 1.428 1_556 S
C109 N108 1.351 . S
C109 C110 1.434 1_565 S
C110 C101 1.429 . S
C110 N107 1.350 . S
C110 C109 1.434 1_545 S
C111 C112 1.369 . S
C111 C113 1.419 . S
C111 H115 0.930 . S
C112 C111 1.369 . S
C112 C121 1.429 . S
C113 C111 1.419 . S
C113 C114 1.363 . S
C113 H116 0.929 . S
C114 C113 1.363 . S
C114 C120 1.428 . S
H115 C111 0.930 . S
H116 C113 0.929 . S
S117 N118 1.613 . S
S117 N119 1.610 . S
N118 S117 1.613 . S
N118 C121 1.350 . S
N119 S117 1.610 . S
N119 C120 1.351 . S
C120 C114 1.428 . S
C120 N119 1.351 . S
C120 C121 1.434 . S
C121 C112 1.429 . S
C121 N118 1.350 . S
C121 C120 1.434 . S
C122 C123 1.369 . S
C122 C124 1.419 1_455 S
C122 H126 0.930 . S
C123 C122 1.369 . S
C123 C132 1.430 . S
C124 C122 1.419 1_655 S
C124 C125 1.363 1_554 S
C124 H127 0.929 . S
C125 C124 1.363 1_556 S
C125 C131 1.428 . S
H126 C122 0.930 . S
H127 C124 0.929 . S
S128 N129 1.613 . S
S128 N130 1.610 1_455 S
N129 S128 1.613 . S
N129 C132 1.349 1_556 S
N130 S128 1.610 1_655 S
N130 C131 1.351 . S
C131 C125 1.428 . S
C131 N130 1.351 . S
C131 C132 1.433 1_656 S
C132 C123 1.430 . S
C132 N129 1.349 1_554 S
C132 C131 1.433 1_454 S
C133 C134 1.369 . S
C133 C135 1.419 1_545 S
C133 H137 0.930 . S
C134 C133 1.369 . S
C134 C143 1.429 . S
C135 C133 1.419 1_565 S
C135 C136 1.363 . S
C135 H138 0.929 . S
C136 C135 1.363 . S
C136 C142 1.428 . S
H137 C133 0.930 . S
H138 C135 0.929 . S
S139 N140 1.613 1_565 S
S139 N141 1.610 . S
N140 S139 1.613 1_545 S
N140 C143 1.350 . S
N141 S139 1.610 . S
N141 C142 1.351 . S
C142 C136 1.428 . S
C142 N141 1.351 . S
C142 C143 1.434 1_565 S
C143 C134 1.429 . S
C143 N140 1.350 . S
C143 C142 1.434 1_545 S
C57 C12 1.505 . S
C59 C40 1.506 . S
C68 C26 1.506 . S
C70 C54 1.505 . S
C79 C5 1.274 . S
C81 C46 1.539 . S
C90 C39 1.426 . S
C92 C19 1.137 . S
C101 C53 1.327 . S
C103 C11 1.328 . S
C112 C25 1.430 . S
C114 C33 1.139 . S
C123 C4 1.547 . S
C125 C47 1.260 . S
C134 C18 1.641 . S
C136 C32 1.644 . S
