# Generated by pormake.
# Topology kag, (6)-cn, num edge types: 1
# Building blocks:
#     Node 0, Type 0, BuildingBlock: NUHQIS_clean_sbu_0, # of connection points: 6
#     Node 1, Type 0, BuildingBlock: NUHQIS_clean_sbu_0, # of connection points: 6
#     Node 2, Type 0, BuildingBlock: NUHQIS_clean_sbu_0, # of connection points: 6
#     Edge 3, Type (0, 0), BuildingBlock: EYOCIG_clean_linker_4, # of connection points: 2
#     Edge 4, Type (0, 0), BuildingBlock: EYOCIG_clean_linker_4, # of connection points: 2
#     Edge 5, Type (0, 0), BuildingBlock: EYOCIG_clean_linker_4, # of connection points: 2
#     Edge 6, Type (0, 0), BuildingBlock: EYOCIG_clean_linker_4, # of connection points: 2
#     Edge 7, Type (0, 0), BuildingBlock: EYOCIG_clean_linker_4, # of connection points: 2
#     Edge 8, Type (0, 0), BuildingBlock: EYOCIG_clean_linker_4, # of connection points: 2
#     Edge 9, Type (0, 0), BuildingBlock: EYOCIG_clean_linker_4, # of connection points: 2
#     Edge 10, Type (0, 0), BuildingBlock: EYOCIG_clean_linker_4, # of connection points: 2
#     Edge 11, Type (0, 0), BuildingBlock: EYOCIG_clean_linker_4, # of connection points: 2
# Relax obj value: 0.109
# Max RMSD: 0.222
# Mean RMSD: 0.126
data_MOF--net-kag--node1-NUHQIS_clean_sbu_0--edge1-EYOCIG_clean_linker_4
_symmetry_space_group_name_H-M    P1
_symmetry_Int_Tables_number       1
_symmetry_cell_setting            triclinic
loop_
_symmetry_equiv_pos_as_xyz
'x, y, z'
_cell_length_a     42.951893
_cell_length_b     24.947971
_cell_length_c     12.136611
_cell_angle_alpha  87.710545
_cell_angle_beta   96.082583
_cell_angle_gamma 123.4836
loop_
_atom_site_label
_atom_site_type_symbol
_atom_site_fract_x
_atom_site_fract_y
_atom_site_fract_z
_atom_type_partial_charge
Tb0 Tb 0.05404 0.50368 -0.0092 0.0
Eu1 Eu 1.0412 0.62248 0.97991 0.0
C2 C 0.04805 0.56009 0.21288 0.0
C3 C 0.97124 0.46884 0.97901 0.0
C4 C 0.11844 0.4542 -0.011 0.0
C5 C 0.17699 0.46988 0.07316 0.0
C6 C 0.13867 0.44353 0.07563 0.0
C7 C 0.13741 0.49193 0.89945 0.0
C8 C 0.17577 0.51807 0.89692 0.0
C9 C 0.19569 0.50729 0.98405 0.0
C10 C 0.07935 0.43354 0.00081 0.0
O11 O 1.04347 0.5136 0.81237 0.0
O12 O 0.05133 0.61267 0.80434 0.0
O13 O 0.10385 0.67903 0.98169 0.0
O14 O 0.10978 0.59244 -0.00058 0.0
C15 C 0.04747 0.56285 0.75604 0.0
O16 O 1.02014 0.6745 0.88579 0.0
O17 O 1.03466 0.69151 0.06259 0.0
O18 O 0.05541 0.61257 0.16162 0.0
O19 O 1.04058 0.50904 0.15841 0.0
O20 O 0.9929 0.44661 0.98272 0.0
O21 O 0.98418 0.53021 0.97773 0.0
C22 C 0.12414 0.65427 -0.00791 0.0
O23 O 0.07539 0.4571 0.08796 0.0
O24 O 0.0599 0.4361 0.9131 0.0
C25 C 0.97665 0.67502 -0.01357 0.0
C26 C 0.89909 0.61889 -0.01165 0.0
C27 C 0.91786 0.65736 0.90025 0.0
C28 C 0.95637 0.68525 0.89928 0.0
C29 C 0.95763 0.63675 0.07545 0.0
C30 C 0.9191 0.60906 0.07644 0.0
C31 C 1.01573 0.69582 0.97518 0.0
H32 H 0.19204 0.46114 0.14112 0.0
H33 H 0.12499 0.41598 0.14656 0.0
H34 H 0.12287 0.50235 0.83246 0.0
H35 H 0.18983 0.54673 0.82722 0.0
H36 H 0.90269 0.66548 0.83175 0.0
H37 H 0.97015 0.71333 0.82884 0.0
H38 H 0.97223 0.62679 0.14295 0.0
H39 H 0.90495 0.57975 0.14549 0.0
Tb40 Tb 0.59519 0.11207 -0.00855 0.0
Eu41 Eu 0.50072 1.01695 0.97508 0.0
C42 C 0.55278 0.06842 0.20935 0.0
C43 C 0.55249 0.95661 -0.01027 0.0
C44 C 0.70558 0.23571 -0.00872 0.0
C45 C 0.76835 0.28615 0.08936 0.0
C46 C 0.72916 0.24694 0.08942 0.0
C47 C 0.72212 0.26851 0.89538 0.0
C48 C 0.76127 0.30752 0.89538 0.0
C49 C 0.78462 0.31441 -0.00879 0.0
C50 C 0.66539 0.18135 0.98126 0.0
O51 O 0.57389 0.0679 0.82603 0.0
O52 O 0.51779 1.05877 0.80642 0.0
O53 O 0.51391 0.118 -0.00678 0.0
O54 O 0.57763 0.18095 0.97433 0.0
C55 C 0.54621 0.06478 0.76322 0.0
O56 O 0.44687 0.94737 0.88006 0.0
O57 O 0.44786 0.98064 0.04472 0.0
O58 O 0.52225 1.02097 0.1546 0.0
O59 O 0.58181 0.11376 0.16012 0.0
O60 O 0.58332 1.01411 0.01442 0.0
O61 O 0.51937 0.9479 0.96323 0.0
C62 C 0.54525 0.17446 0.98386 0.0
O63 O 0.64982 0.14459 0.06471 0.0
O64 O 0.6411 0.18101 0.90658 0.0
C65 C 0.38835 0.88945 0.96631 0.0
C66 C 0.31056 0.8066 0.98425 0.0
C67 C 0.32382 0.82872 0.88059 0.0
C68 C 0.36235 0.86971 0.87171 0.0
C69 C 0.37516 0.86299 0.06911 0.0
C70 C 0.33644 0.82155 0.07784 0.0
C71 C 0.42727 0.94523 0.95727 0.0
H72 H 0.78591 0.29146 0.16459 0.0
H73 H 0.71746 0.22249 0.16463 0.0
H74 H 0.70485 0.26069 0.81818 0.0
H75 H 0.77323 0.32933 0.81885 0.0
H76 H 0.30431 0.81735 0.80724 0.0
H77 H 0.37169 0.88941 0.79163 0.0
H78 H 0.39453 0.87702 0.14344 0.0
H79 H 0.3267 0.80424 0.15853 0.0
Tb80 Tb 0.50235 0.52622 0.97341 0.0
Eu81 Eu 0.59474 0.60413 -0.00228 0.0
C82 C 0.54614 0.56228 0.76081 0.0
C83 C 0.53942 0.44399 0.98229 0.0
C84 C 0.40934 0.5065 0.96425 0.0
C85 C 0.35821 0.51536 0.88277 0.0
C86 C 0.38286 0.49605 0.87505 0.0
C87 C 0.41195 0.53958 0.05988 0.0
C88 C 0.38712 0.55885 0.06758 0.0
C89 C 0.3596 0.54536 0.97985 0.0
C90 C 0.43283 0.48067 0.95583 0.0
O91 O 0.5182 0.5226 0.14839 0.0
O92 O 0.57925 0.60937 0.16625 0.0
O93 O 0.58748 0.68751 -0.00378 0.0
O94 O 0.52264 0.62952 0.97987 0.0
C95 C 0.54849 0.56598 0.209 0.0
O96 O 0.64629 0.63078 0.10062 0.0
O97 O 0.64833 0.65425 0.92669 0.0
O98 O 0.57764 0.60519 0.81702 0.0
O99 O 0.51598 0.52046 0.80823 0.0
O100 O 0.50839 0.44384 0.9729 0.0
O101 O 0.57305 0.49761 -0.00761 0.0
C102 C 0.55578 0.6847 -0.0117 0.0
O103 O 0.45291 0.49994 0.87232 0.0
O104 O 0.4515 0.47895 0.04618 0.0
C105 C 0.68916 0.6236 0.00651 0.0
C106 C 0.73614 0.57949 -0.01147 0.0
C107 C 0.73932 0.61169 0.08511 0.0
C108 C 0.716 0.63359 0.09406 0.0
C109 C 0.68475 0.58844 0.91148 0.0
C110 C 0.70825 0.56657 0.90254 0.0
C111 C 0.66637 0.65044 0.01687 0.0
H112 H 0.33709 0.50461 0.81431 0.0
H113 H 0.38053 0.47125 0.80026 0.0
H114 H 0.43241 0.54904 0.12958 0.0
H115 H 0.38846 0.58191 0.14336 0.0
H116 H 0.76079 0.62199 0.15217 0.0
H117 H 0.71953 0.65972 0.16853 0.0
H118 H 0.66382 0.57912 0.84332 0.0
H119 H 0.7056 0.5419 0.82714 0.0
C120 C 0.04739 0.56033 0.53479 0.0
C121 C 0.04744 0.56177 0.63545 0.0
C122 C 0.04743 0.55905 0.43416 0.0
C123 C 0.04756 0.55845 0.33348 0.0
C124 C 0.55223 0.07058 0.42844 0.0
C125 C 0.55359 0.07131 0.32887 0.0
C126 C 0.5493 0.06848 0.54476 0.0
C127 C 0.54708 0.06666 0.64396 0.0
C128 C 0.54539 0.56136 0.54266 0.0
C129 C 0.54497 0.56073 0.64205 0.0
C130 C 0.54676 0.56336 0.42649 0.0
C131 C 0.5479 0.56506 0.32735 0.0
C132 C 0.26738 0.54941 0.98533 0.0
C133 C 0.2348 0.53154 0.98052 0.0
C134 C 0.30306 0.55859 -0.00922 0.0
C135 C 0.32984 0.55457 -0.0074 0.0
C136 C 0.85809 0.36972 0.98318 0.0
C137 C 0.82464 0.34463 -0.01382 0.0
C138 C 0.89726 0.39781 0.98028 0.0
C139 C 0.931 0.4255 0.97978 0.0
C140 C 0.55627 0.8518 -0.00912 0.0
C141 C 0.55507 0.89994 -0.00923 0.0
C142 C 0.557 0.79431 -0.00986 0.0
C143 C 0.55699 0.745 -0.01056 0.0
C144 C 0.82686 0.57264 0.98329 0.0
C145 C 0.8597 0.59237 -0.01013 0.0
C146 C 0.79106 0.56268 0.97631 0.0
C147 C 0.7647 0.56777 0.974 0.0
C148 C 0.19819 0.72169 -0.00316 0.0
C149 C 0.16449 0.69518 -0.00598 0.0
C150 C 0.23737 0.74938 -0.00239 0.0
C151 C 0.27085 0.77521 -0.00491 0.0
C152 C 0.53846 0.33461 0.98169 0.0
C153 C 0.53729 0.38282 0.98147 0.0
C154 C 0.54127 0.27915 0.98232 0.0
C155 C 0.54367 0.23219 0.98285 0.0
loop_
_geom_bond_atom_site_label_1
_geom_bond_atom_site_label_2
_geom_bond_distance
_geom_bond_site_symmetry_2
_ccdc_geom_bond_type
Tb0 C10 2.825 . S
Tb0 O11 2.347 1_554 S
Tb0 O14 2.366 . S
Tb0 O19 2.418 . S
Tb0 O20 2.384 1_455 S
Tb0 O23 2.479 . S
Tb0 O24 2.471 1_554 S
Eu1 O12 2.418 . S
Eu1 O13 2.384 1_655 S
Eu1 O16 2.479 . S
Eu1 O17 2.471 1_556 S
Eu1 O18 2.347 1_556 S
Eu1 O21 2.366 . S
Eu1 C31 2.825 . S
C2 O18 1.259 1_455 S
C2 O19 1.265 . S
C3 O20 1.255 1_556 S
C3 O21 1.265 . S
C4 C6 1.373 1_556 S
C4 C7 1.383 . S
C4 C10 1.505 1_556 S
C5 C6 1.384 . S
C5 C9 1.387 1_554 S
C5 H32 0.930 . S
C6 C4 1.373 1_554 S
C6 C5 1.384 . S
C6 H33 0.931 . S
C7 C4 1.383 . S
C7 C8 1.390 . S
C7 H34 0.930 . S
C8 C7 1.390 . S
C8 C9 1.391 . S
C8 H35 0.930 . S
C9 C5 1.387 1_556 S
C9 C8 1.391 . S
C10 Tb0 2.825 . S
C10 C4 1.505 1_554 S
C10 O23 1.238 . S
C10 O24 1.247 1_554 S
O11 Tb0 2.347 1_556 S
O11 C15 1.259 1_455 S
O12 Eu1 2.418 . S
O12 C15 1.265 . S
O13 Eu1 2.384 1_455 S
O13 C22 1.255 1_556 S
O14 Tb0 2.366 . S
O14 C22 1.265 . S
C15 O11 1.259 1_655 S
C15 O12 1.265 . S
O16 Eu1 2.479 . S
O16 C31 1.238 . S
O17 Eu1 2.471 1_554 S
O17 C31 1.247 1_554 S
O18 Eu1 2.347 1_554 S
O18 C2 1.259 1_655 S
O19 Tb0 2.418 . S
O19 C2 1.265 . S
O20 Tb0 2.384 1_655 S
O20 C3 1.255 1_554 S
O21 Eu1 2.366 . S
O21 C3 1.265 . S
C22 O13 1.255 1_554 S
C22 O14 1.265 . S
O23 Tb0 2.479 . S
O23 C10 1.238 . S
O24 Tb0 2.471 1_556 S
O24 C10 1.247 1_556 S
C25 C28 1.380 1_554 S
C25 C29 1.374 . S
C25 C31 1.507 1_554 S
C26 C27 1.387 1_554 S
C26 C30 1.391 . S
C27 C26 1.387 1_556 S
C27 C28 1.384 . S
C27 H36 0.930 . S
C28 C25 1.380 1_556 S
C28 C27 1.384 . S
C28 H37 0.931 . S
C29 C25 1.374 . S
C29 C30 1.390 . S
C29 H38 0.930 . S
C30 C26 1.391 . S
C30 C29 1.390 . S
C30 H39 0.930 . S
C31 Eu1 2.825 . S
C31 O16 1.238 . S
C31 O17 1.247 1_556 S
C31 C25 1.507 1_556 S
H32 C5 0.930 . S
H33 C6 0.931 . S
H34 C7 0.930 . S
H35 C8 0.930 . S
H36 C27 0.930 . S
H37 C28 0.931 . S
H38 C29 0.930 . S
H39 C30 0.930 . S
Tb40 C50 2.825 . S
Tb40 O51 2.347 1_554 S
Tb40 O54 2.366 . S
Tb40 O59 2.418 . S
Tb40 O60 2.384 1_545 S
Tb40 O63 2.479 . S
Tb40 O64 2.471 1_554 S
Eu41 O52 2.418 . S
Eu41 O53 2.384 1_565 S
Eu41 O56 2.479 . S
Eu41 O57 2.471 1_556 S
Eu41 O58 2.347 1_556 S
Eu41 O61 2.366 . S
Eu41 C71 2.825 . S
C42 O58 1.259 1_545 S
C42 O59 1.265 . S
C43 O60 1.253 1_556 S
C43 O61 1.267 . S
C44 C46 1.380 . S
C44 C47 1.374 1_554 S
C44 C50 1.507 . S
C45 C46 1.384 . S
C45 C49 1.387 1_554 S
C45 H72 0.930 . S
C46 C44 1.380 . S
C46 C45 1.384 . S
C46 H73 0.931 . S
C47 C44 1.374 1_556 S
C47 C48 1.390 . S
C47 H74 0.930 . S
C48 C47 1.390 . S
C48 C49 1.391 . S
C48 H75 0.930 . S
C49 C45 1.387 1_556 S
C49 C48 1.391 . S
C50 Tb40 2.825 . S
C50 C44 1.507 . S
C50 O63 1.238 . S
C50 O64 1.247 1_554 S
O51 Tb40 2.347 1_556 S
O51 C55 1.259 1_545 S
O52 Eu41 2.418 . S
O52 C55 1.265 . S
O53 Eu41 2.384 1_545 S
O53 C62 1.255 1_556 S
O54 Tb40 2.366 . S
O54 C62 1.265 . S
C55 O51 1.259 1_565 S
C55 O52 1.265 . S
O56 Eu41 2.479 . S
O56 C71 1.238 . S
O57 Eu41 2.471 1_554 S
O57 C71 1.247 1_554 S
O58 Eu41 2.347 1_554 S
O58 C42 1.259 1_565 S
O59 Tb40 2.418 . S
O59 C42 1.265 . S
O60 Tb40 2.384 1_565 S
O60 C43 1.253 1_554 S
O61 Eu41 2.366 . S
O61 C43 1.267 . S
C62 O53 1.255 1_554 S
C62 O54 1.265 . S
O63 Tb40 2.479 . S
O63 C50 1.238 . S
O64 Tb40 2.471 1_556 S
O64 C50 1.247 1_556 S
C65 C68 1.380 . S
C65 C69 1.374 1_556 S
C65 C71 1.507 . S
C66 C67 1.387 1_554 S
C66 C70 1.391 . S
C67 C66 1.387 1_556 S
C67 C68 1.384 . S
C67 H76 0.930 . S
C68 C65 1.380 . S
C68 C67 1.384 . S
C68 H77 0.931 . S
C69 C65 1.374 1_554 S
C69 C70 1.390 . S
C69 H78 0.930 . S
C70 C66 1.391 . S
C70 C69 1.390 . S
C70 H79 0.930 . S
C71 Eu41 2.825 . S
C71 O56 1.238 . S
C71 O57 1.247 1_556 S
C71 C65 1.507 . S
H72 C45 0.930 . S
H73 C46 0.931 . S
H74 C47 0.930 . S
H75 C48 0.930 . S
H76 C67 0.930 . S
H77 C68 0.931 . S
H78 C69 0.930 . S
H79 C70 0.930 . S
Tb80 C90 2.825 . S
Tb80 O91 2.347 1_556 S
Tb80 O94 2.366 . S
Tb80 O99 2.418 . S
Tb80 O100 2.384 . S
Tb80 O103 2.479 . S
Tb80 O104 2.471 1_556 S
Eu81 O92 2.418 . S
Eu81 O93 2.384 . S
Eu81 O96 2.479 . S
Eu81 O97 2.471 1_554 S
Eu81 O98 2.347 1_554 S
Eu81 O101 2.366 . S
Eu81 C111 2.825 . S
C82 O98 1.259 . S
C82 O99 1.265 . S
C83 O100 1.255 1_554 S
C83 O101 1.265 . S
C84 C86 1.380 . S
C84 C87 1.374 1_556 S
C84 C90 1.507 . S
C85 C86 1.384 . S
C85 C89 1.387 1_556 S
C85 H112 0.930 . S
C86 C84 1.380 . S
C86 C85 1.384 . S
C86 H113 0.931 . S
C87 C84 1.374 1_554 S
C87 C88 1.390 . S
C87 H114 0.930 . S
C88 C87 1.390 . S
C88 C89 1.391 . S
C88 H115 0.930 . S
C89 C85 1.387 1_554 S
C89 C88 1.391 . S
C90 Tb80 2.825 . S
C90 C84 1.507 . S
C90 O103 1.238 . S
C90 O104 1.247 1_556 S
O91 Tb80 2.347 1_554 S
O91 C95 1.259 . S
O92 Eu81 2.418 . S
O92 C95 1.265 . S
O93 Eu81 2.384 . S
O93 C102 1.255 1_554 S
O94 Tb80 2.366 . S
O94 C102 1.265 . S
C95 O91 1.259 . S
C95 O92 1.265 . S
O96 Eu81 2.479 . S
O96 C111 1.238 . S
O97 Eu81 2.471 1_556 S
O97 C111 1.247 1_556 S
O98 Eu81 2.347 1_556 S
O98 C82 1.259 . S
O99 Tb80 2.418 . S
O99 C82 1.265 . S
O100 Tb80 2.384 . S
O100 C83 1.255 1_556 S
O101 Eu81 2.366 . S
O101 C83 1.265 . S
C102 O93 1.255 1_556 S
C102 O94 1.265 . S
O103 Tb80 2.479 . S
O103 C90 1.238 . S
O104 Tb80 2.471 1_554 S
O104 C90 1.247 1_554 S
C105 C108 1.380 . S
C105 C109 1.374 1_554 S
C105 C111 1.507 . S
C106 C107 1.387 1_556 S
C106 C110 1.391 . S
C107 C106 1.387 1_554 S
C107 C108 1.384 . S
C107 H116 0.930 . S
C108 C105 1.380 . S
C108 C107 1.384 . S
C108 H117 0.931 . S
C109 C105 1.374 1_556 S
C109 C110 1.390 . S
C109 H118 0.930 . S
C110 C106 1.391 . S
C110 C109 1.390 . S
C110 H119 0.930 . S
C111 Eu81 2.825 . S
C111 O96 1.238 . S
C111 O97 1.247 1_554 S
C111 C105 1.507 . S
H112 C85 0.930 . S
H113 C86 0.931 . S
H114 C87 0.930 . S
H115 C88 0.930 . S
H116 C107 0.930 . S
H117 C108 0.931 . S
H118 C109 0.930 . S
H119 C110 0.930 . S
C120 C121 1.170 . S
C120 C122 1.379 1_655 S
C121 C120 1.170 . S
C122 C120 1.379 1_455 S
C122 C123 1.172 . S
C123 C122 1.172 . S
C124 C125 1.169 1_545 S
C124 C126 1.380 . S
C125 C124 1.169 1_565 S
C126 C124 1.380 . S
C126 C127 1.170 . S
C127 C126 1.170 . S
C128 C129 1.170 . S
C128 C130 1.380 . S
C129 C128 1.170 . S
C130 C128 1.380 . S
C130 C131 1.170 . S
C131 C130 1.170 . S
C132 C133 1.170 . S
C132 C134 1.380 . S
C133 C132 1.170 . S
C134 C132 1.380 . S
C134 C135 1.170 1_556 S
C135 C134 1.170 1_554 S
C136 C137 1.170 . S
C136 C138 1.380 . S
C137 C136 1.170 . S
C138 C136 1.380 . S
C138 C139 1.170 . S
C139 C138 1.170 . S
C140 C141 1.170 . S
C140 C142 1.380 . S
C141 C140 1.170 . S
C142 C140 1.380 . S
C142 C143 1.170 . S
C143 C142 1.170 . S
C144 C145 1.170 . S
C144 C146 1.380 1_554 S
C145 C144 1.170 . S
C146 C144 1.380 1_556 S
C146 C147 1.170 . S
C147 C146 1.170 . S
C148 C149 1.170 . S
C148 C150 1.380 . S
C149 C148 1.170 . S
C150 C148 1.380 . S
C150 C151 1.170 . S
C151 C150 1.170 . S
C152 C153 1.170 1_556 S
C152 C154 1.380 . S
C153 C152 1.170 1_554 S
C154 C152 1.380 . S
C154 C155 1.170 . S
C155 C154 1.170 . S
C121 C15 1.462 . S
C123 C2 1.465 . S
C125 C42 1.477 1_565 S
C127 C55 1.453 1_545 S
C129 C82 1.451 . S
C131 C95 1.481 . S
C133 C9 0.944 . S
C135 C89 0.934 . S
C137 C49 2.045 . S
C139 C3 2.198 . S
C141 C43 2.594 . S
C143 C102 2.635 . S
C145 C26 0.939 . S
C147 C106 0.966 . S
C149 C22 2.178 . S
C151 C66 2.087 . S
C153 C83 2.635 . S
C155 C62 2.586 1_556 S
