# Generated by pormake.
# Topology hex, (8)-cn, num edge types: 1
# Building blocks:
#     Node 0, Type 0, BuildingBlock: EBIMEJ_clean_sbu_0, # of connection points: 8
#     Edge 1, Type (0, 0), BuildingBlock: AJUNOK_clean_linker_0, # of connection points: 2
#     Edge 2, Type (0, 0), BuildingBlock: AJUNOK_clean_linker_0, # of connection points: 2
#     Edge 3, Type (0, 0), BuildingBlock: AJUNOK_clean_linker_0, # of connection points: 2
#     Edge 4, Type (0, 0), BuildingBlock: AJUNOK_clean_linker_0, # of connection points: 2
# Relax obj value: 0.009
# Max RMSD: 0.048
# Mean RMSD: 0.048
data_MOF--net-hex--node1-EBIMEJ_clean_sbu_0--edge1-AJUNOK_clean_linker_0
_symmetry_space_group_name_H-M    P1
_symmetry_Int_Tables_number       1
_symmetry_cell_setting            triclinic
loop_
_symmetry_equiv_pos_as_xyz
'x, y, z'
_cell_length_a     13.656378
_cell_length_b     16.283501
_cell_length_c     12.240117
_cell_angle_alpha  75.738383
_cell_angle_beta   112.81996
_cell_angle_gamma 126.78076
loop_
_atom_site_label
_atom_site_type_symbol
_atom_site_fract_x
_atom_site_fract_y
_atom_site_fract_z
_atom_type_partial_charge
Co0 Co 0.99733 0.85914 0.9536 0.0
Co1 Co 0.88041 0.96179 0.01527 0.0
Co2 Co 0.14904 0.09791 0.99535 0.0
H3 H 0.06071 0.97637 -0.0009 0.0
O4 O 0.02875 0.95374 0.0567 0.0
H5 H 0.96788 0.08293 0.00955 0.0
O6 O 0.99994 0.1054 0.95199 0.0
Co7 Co 0.02966 0.19963 0.05451 0.0
O8 O 0.84623 0.13551 0.04568 0.0
O9 O 0.73563 0.9766 0.97974 0.0
O10 O 0.22001 0.30398 0.07515 0.0
O11 O 0.26567 0.24798 0.96433 0.0
O12 O 0.0468 0.78289 0.89825 0.0
O13 O 0.95158 0.71633 0.02483 0.0
O14 O 0.07151 0.15294 0.22223 0.0
O15 O 0.9293 0.98579 0.18821 0.0
C16 C 0.2898 1.0081 0.01329 0.0
C17 C 0.74 0.73783 0.00182 0.0
C18 C 0.02608 0.35424 0.02375 0.0
C19 C 0.01897 0.99852 0.75268 0.0
C20 C 0.74096 0.04994 0.00873 0.0
C21 C 0.29243 0.31942 0.02025 0.0
C22 C 1.00007 0.70616 0.96464 0.0
C23 C 0.00794 0.06126 0.25894 0.0
O24 O 0.18443 0.92264 0.97576 0.0
O25 O 0.29473 0.08363 0.03527 0.0
O26 O 0.76491 0.81268 0.04945 0.0
O27 O 0.81119 0.74932 0.94802 0.0
O28 O 0.9814 0.28286 0.09632 0.0
O29 O 0.07244 0.33763 0.96767 0.0
O30 O 0.94655 0.90921 0.78996 0.0
O31 O 0.10485 0.07402 0.82297 0.0
C32 C 0.94531 0.44564 0.0566 0.0
C33 C 0.02101 0.44484 0.00564 0.0
C34 C 0.93833 0.53021 0.0418 0.0
C35 C 0.00646 0.61702 0.97516 0.0
H36 H 0.89056 0.38026 0.10826 0.0
H37 H 0.87895 0.52738 0.08296 0.0
S38 S 0.22122 0.65441 0.82579 0.0
N39 N 0.16788 0.53906 0.88809 0.0
N40 N 0.15295 0.69754 0.85818 0.0
C41 C 0.08208 0.61713 0.92305 0.0
C42 C 0.08995 0.53117 0.93894 0.0
C43 C 0.61236 0.12025 0.97868 0.0
C44 C 0.62303 0.03601 0.00694 0.0
C45 C 0.50679 0.11232 0.98555 0.0
C46 C 0.40865 1.02003 0.02179 0.0
H47 H 0.68598 0.19285 0.95027 0.0
H48 H 0.50038 0.17795 0.95932 0.0
S49 S 0.40095 0.78242 0.12292 0.0
N50 N 0.53272 0.86085 0.08316 0.0
N51 N 0.33477 0.84596 0.09716 0.0
C52 C 0.42037 0.93639 0.05411 0.0
C53 C 0.52729 0.94427 0.04626 0.0
C54 C 0.47804 0.45379 0.94219 0.0
C55 C 0.40867 0.4257 0.01982 0.0
C56 C 0.58406 0.55463 0.93697 0.0
C57 C 0.6256 0.63216 0.00904 0.0
H58 H 0.44959 0.39787 0.88375 0.0
H59 H 0.6333 0.57181 0.87492 0.0
S60 S 0.48351 0.59739 0.23447 0.0
N61 N 0.39376 0.48345 0.17531 0.0
N62 N 0.59225 0.67211 0.16478 0.0
C63 C 0.55839 0.60491 0.08838 0.0
C64 C 0.4505 0.50214 0.09402 0.0
C65 C 0.06298 0.11026 0.57237 0.0
C66 C 0.01327 1.01228 0.62628 0.0
C67 C 0.06343 0.12547 0.45467 0.0
C68 C 0.0148 0.04339 0.38599 0.0
H69 H 0.10104 0.17579 0.62112 0.0
H70 H 0.10035 0.20226 0.41679 0.0
S71 S 0.88413 0.77279 0.48866 0.0
N72 N 0.92096 0.83241 0.60388 0.0
N73 N 0.92181 0.86134 0.38309 0.0
C74 C 0.96708 0.94526 0.43953 0.0
C75 C 0.96627 0.92963 0.55934 0.0
loop_
_geom_bond_atom_site_label_1
_geom_bond_atom_site_label_2
_geom_bond_distance
_geom_bond_site_symmetry_2
_ccdc_geom_bond_type
Co0 H3 2.400 1_556 S
Co0 O4 2.009 1_556 S
Co0 O12 2.115 1_455 S
Co0 O13 2.315 1_556 S
Co0 O24 2.053 . S
Co0 O27 2.094 1_455 S
Co0 O30 2.122 1_455 S
Co1 O4 2.126 1_655 S
Co1 H5 2.388 1_564 S
Co1 O6 2.053 1_564 S
Co1 O9 2.047 1_554 S
Co1 O15 2.113 . S
Co1 O26 2.063 . S
Co2 H3 2.388 1_546 S
Co2 O4 2.053 1_546 S
Co2 O6 2.126 1_455 S
Co2 O11 2.063 . S
Co2 O25 2.047 1_556 S
Co2 O31 2.113 . S
H3 Co0 2.400 1_554 S
H3 Co2 2.388 1_564 S
H3 O4 0.760 . S
O4 Co0 2.009 1_554 S
O4 Co1 2.126 1_455 S
O4 Co2 2.053 1_564 S
O4 H3 0.760 . S
H5 Co1 2.388 1_546 S
H5 O6 0.760 . S
H5 Co7 2.400 1_556 S
O6 Co1 2.053 1_546 S
O6 Co2 2.126 1_655 S
O6 H5 0.760 . S
O6 Co7 2.009 1_556 S
Co7 H5 2.400 1_554 S
Co7 O6 2.009 1_554 S
Co7 O8 2.053 . S
Co7 O10 2.094 1_655 S
Co7 O14 2.122 1_655 S
Co7 O28 2.115 1_655 S
Co7 O29 2.315 1_554 S
O8 Co7 2.053 . S
O8 C20 1.259 . S
O9 Co1 2.047 1_556 S
O9 C20 1.257 1_566 S
O10 Co7 2.094 1_455 S
O10 C21 1.253 . S
O11 Co2 2.063 . S
O11 C21 1.268 1_556 S
O12 Co0 2.115 1_655 S
O12 C22 1.281 1_556 S
O13 Co0 2.315 1_554 S
O13 C22 1.252 1_455 S
O14 Co7 2.122 1_455 S
O14 C23 1.272 1_455 S
O15 Co1 2.113 . S
O15 C23 1.245 1_565 S
C16 O24 1.259 . S
C16 O25 1.257 1_566 S
C17 O26 1.268 1_556 S
C17 O27 1.253 . S
C18 O28 1.281 1_556 S
C18 O29 1.252 1_455 S
C19 O30 1.272 1_455 S
C19 O31 1.245 1_565 S
C20 O8 1.259 . S
C20 O9 1.257 1_544 S
C21 O10 1.253 . S
C21 O11 1.268 1_554 S
C22 O12 1.281 1_554 S
C22 O13 1.252 1_655 S
C23 O14 1.272 1_655 S
C23 O15 1.245 1_545 S
O24 Co0 2.053 . S
O24 C16 1.259 . S
O25 Co2 2.047 1_554 S
O25 C16 1.257 1_544 S
O26 Co1 2.063 . S
O26 C17 1.268 1_554 S
O27 Co0 2.094 1_655 S
O27 C17 1.253 . S
O28 Co7 2.115 1_455 S
O28 C18 1.281 1_554 S
O29 Co7 2.315 1_556 S
O29 C18 1.252 1_655 S
O30 Co0 2.122 1_655 S
O30 C19 1.272 1_655 S
O31 Co2 2.113 . S
O31 C19 1.245 1_545 S
C32 C33 1.369 1_654 S
C32 C34 1.419 . S
C32 H36 0.930 . S
C33 C32 1.369 1_456 S
C33 C42 1.429 . S
C34 C32 1.419 . S
C34 C35 1.363 . S
C34 H37 0.929 . S
C35 C34 1.363 . S
C35 C41 1.428 1_654 S
H36 C32 0.930 . S
H37 C34 0.929 . S
S38 N39 1.613 . S
S38 N40 1.610 . S
N39 S38 1.613 . S
N39 C42 1.350 . S
N40 S38 1.610 . S
N40 C41 1.351 . S
C41 C35 1.428 1_456 S
C41 N40 1.351 . S
C41 C42 1.434 . S
C42 C33 1.429 . S
C42 N39 1.350 . S
C42 C41 1.434 . S
C43 C44 1.369 1_546 S
C43 C45 1.419 . S
C43 H47 0.930 . S
C44 C43 1.369 1_564 S
C44 C53 1.429 . S
C45 C43 1.419 . S
C45 C46 1.363 . S
C45 H48 0.929 . S
C46 C45 1.363 . S
C46 C52 1.428 1_546 S
H47 C43 0.930 . S
H48 C45 0.929 . S
S49 N50 1.613 . S
S49 N51 1.610 . S
N50 S49 1.613 . S
N50 C53 1.350 . S
N51 S49 1.610 . S
N51 C52 1.351 . S
C52 C46 1.428 1_564 S
C52 N51 1.351 . S
C52 C53 1.434 . S
C53 C44 1.429 . S
C53 N50 1.350 . S
C53 C52 1.434 . S
C54 C55 1.369 1_556 S
C54 C56 1.419 . S
C54 H58 0.930 . S
C55 C54 1.369 1_554 S
C55 C64 1.429 . S
C56 C54 1.419 . S
C56 C57 1.363 . S
C56 H59 0.929 . S
C57 C56 1.363 . S
C57 C63 1.428 1_556 S
H58 C54 0.930 . S
H59 C56 0.929 . S
S60 N61 1.613 . S
S60 N62 1.610 . S
N61 S60 1.613 . S
N61 C64 1.350 . S
N62 S60 1.610 . S
N62 C63 1.351 . S
C63 C57 1.428 1_554 S
C63 N62 1.351 . S
C63 C64 1.434 . S
C64 C55 1.429 . S
C64 N61 1.350 . S
C64 C63 1.434 . S
C65 C66 1.369 1_645 S
C65 C67 1.419 . S
C65 H69 0.930 . S
C66 C65 1.369 1_465 S
C66 C75 1.429 . S
C67 C65 1.419 . S
C67 C68 1.370 1_655 S
C67 H70 0.929 . S
C68 C67 1.370 1_455 S
C68 C74 1.423 1_545 S
H69 C65 0.930 . S
H70 C67 0.929 . S
S71 N72 1.613 . S
S71 N73 1.610 . S
N72 S71 1.613 . S
N72 C75 1.350 . S
N73 S71 1.610 . S
N73 C74 1.351 . S
C74 C68 1.423 1_565 S
C74 N73 1.351 . S
C74 C75 1.434 . S
C75 C66 1.429 . S
C75 N72 1.350 . S
C75 C74 1.434 . S
C33 C18 1.585 . S
C35 C22 1.579 . S
C44 C20 1.167 1_565 S
C46 C16 1.162 1_545 S
C55 C21 1.714 . S
C57 C17 1.714 . S
C66 C19 1.462 . S
C68 C23 1.468 1_455 S
