# Generated by pormake.
# Topology uog, (4)-cn, num edge types: 1
# Building blocks:
#     Node 0, Type 0, BuildingBlock: QUQFOY_clean_sbu_3, # of connection points: 4
#     Node 1, Type 0, BuildingBlock: QUQFOY_clean_sbu_3, # of connection points: 4
#     Node 2, Type 0, BuildingBlock: QUQFOY_clean_sbu_3, # of connection points: 4
#     Node 3, Type 0, BuildingBlock: QUQFOY_clean_sbu_3, # of connection points: 4
#     Node 4, Type 0, BuildingBlock: QUQFOY_clean_sbu_3, # of connection points: 4
#     Node 5, Type 0, BuildingBlock: QUQFOY_clean_sbu_3, # of connection points: 4
#     Edge 6, Type (0, 0), BuildingBlock: EYOCIG_clean_linker_4, # of connection points: 2
#     Edge 7, Type (0, 0), BuildingBlock: EYOCIG_clean_linker_4, # of connection points: 2
#     Edge 8, Type (0, 0), BuildingBlock: EYOCIG_clean_linker_4, # of connection points: 2
#     Edge 9, Type (0, 0), BuildingBlock: EYOCIG_clean_linker_4, # of connection points: 2
#     Edge 10, Type (0, 0), BuildingBlock: EYOCIG_clean_linker_4, # of connection points: 2
#     Edge 11, Type (0, 0), BuildingBlock: EYOCIG_clean_linker_4, # of connection points: 2
#     Edge 12, Type (0, 0), BuildingBlock: EYOCIG_clean_linker_4, # of connection points: 2
#     Edge 13, Type (0, 0), BuildingBlock: EYOCIG_clean_linker_4, # of connection points: 2
#     Edge 14, Type (0, 0), BuildingBlock: EYOCIG_clean_linker_4, # of connection points: 2
#     Edge 15, Type (0, 0), BuildingBlock: EYOCIG_clean_linker_4, # of connection points: 2
#     Edge 16, Type (0, 0), BuildingBlock: EYOCIG_clean_linker_4, # of connection points: 2
#     Edge 17, Type (0, 0), BuildingBlock: EYOCIG_clean_linker_4, # of connection points: 2
# Relax obj value: 0.081
# Max RMSD: 0.175
# Mean RMSD: 0.175
data_MOF--net-uog--node1-QUQFOY_clean_sbu_3--edge1-EYOCIG_clean_linker_4
_symmetry_space_group_name_H-M    P1
_symmetry_Int_Tables_number       1
_symmetry_cell_setting            triclinic
loop_
_symmetry_equiv_pos_as_xyz
'x, y, z'
_cell_length_a     24.270774
_cell_length_b     24.279345
_cell_length_c     36.209216
_cell_angle_alpha  90.058925
_cell_angle_beta   90.077228
_cell_angle_gamma 120.07233
loop_
_atom_site_label
_atom_site_type_symbol
_atom_site_fract_x
_atom_site_fract_y
_atom_site_fract_z
_atom_type_partial_charge
C0 C 0.65058 0.327 0.19956 0.0
O1 O 0.69573 0.37173 0.18179 0.0
Cd2 Cd 0.675 0.39377 0.11953 0.0
O3 O 0.59906 0.28833 0.18348 0.0
Cd4 Cd 0.55624 0.26309 0.12054 0.0
C5 C 0.53166 0.38612 0.13286 0.0
O6 O 0.64214 0.31073 0.07396 0.0
O7 O 0.54597 0.28658 0.05777 0.0
O8 O 0.56405 0.16809 0.12487 0.0
C9 C 0.60314 0.30567 0.0487 0.0
O10 O 0.59091 0.41956 0.12622 0.0
C11 C 0.505 0.12897 0.12167 0.0
O12 O 0.5038 0.32552 0.13479 0.0
O13 O 0.46782 0.1515 0.11819 0.0
C14 C 0.29903 0.66272 0.53296 0.0
O15 O 0.2998 0.708 0.51516 0.0
Cd16 Cd 0.25671 0.6874 0.45292 0.0
O17 O 0.28565 0.6111 0.51691 0.0
Cd18 Cd 0.26746 0.56826 0.45396 0.0
C19 C 0.12018 0.54465 0.46628 0.0
O20 O 0.30637 0.65415 0.40736 0.0
O21 O 0.23357 0.55823 0.39118 0.0
O22 O 0.36993 0.57523 0.45832 0.0
C23 C 0.27215 0.61527 0.3821 0.0
O24 O 0.14641 0.60391 0.45962 0.0
C25 C 0.3495 0.51614 0.4551 0.0
O26 O 0.15258 0.51648 0.46821 0.0
O27 O 0.28963 0.4793 0.45161 0.0
C28 C 0.61113 0.31152 0.8662 0.0
O29 O 0.56634 0.31177 0.84834 0.0
Cd30 Cd 0.54412 0.26868 0.7861 0.0
O31 O 0.64975 0.29868 0.85021 0.0
Cd32 Cd 0.67465 0.28086 0.7873 0.0
C33 C 0.55177 0.13311 0.79963 0.0
O34 O 0.62694 0.31889 0.74056 0.0
O35 O 0.65073 0.24665 0.72456 0.0
O36 O 0.76993 0.38369 0.79156 0.0
C37 C 0.63184 0.28481 0.71538 0.0
O38 O 0.51828 0.15878 0.79289 0.0
C39 C 0.80886 0.36363 0.7884 0.0
O40 O 0.61239 0.16602 0.80162 0.0
O41 O 0.78607 0.30383 0.785 0.0
C42 C 0.27511 0.62343 0.19956 0.0
O43 O 0.22992 0.57876 0.18163 0.0
Cd44 Cd 0.2505 0.55653 0.1194 0.0
O45 O 0.3267 0.66198 0.18364 0.0
Cd46 Cd 0.36952 0.68692 0.12078 0.0
C47 C 0.39353 0.56352 0.13297 0.0
O48 O 0.28362 0.63954 0.07397 0.0
O49 O 0.37966 0.66316 0.05804 0.0
O50 O 0.36224 0.78222 0.12503 0.0
C51 C 0.32257 0.64439 0.04881 0.0
O52 O 0.33426 0.53026 0.12618 0.0
C53 C 0.42132 0.82113 0.12194 0.0
O54 O 0.42158 0.62413 0.13504 0.0
O55 O 0.4583 0.79833 0.1186 0.0
C56 C 0.62604 0.28698 0.53283 0.0
O57 O 0.62572 0.24196 0.51492 0.0
Cd58 Cd 0.66852 0.26286 0.45272 0.0
O59 O 0.63883 0.33847 0.51691 0.0
Cd60 Cd 0.65642 0.38131 0.45406 0.0
C61 C 0.80429 0.40635 0.46638 0.0
O62 O 0.61824 0.29556 0.40722 0.0
O63 O 0.69037 0.39179 0.39136 0.0
O64 O 0.55347 0.37331 0.45825 0.0
C65 C 0.65226 0.33464 0.3821 0.0
O66 O 0.7785 0.34714 0.45958 0.0
C67 C 0.57344 0.43233 0.4552 0.0
O68 O 0.77144 0.43404 0.46842 0.0
O69 O 0.63324 0.46957 0.4519 0.0
C70 C 0.31486 0.63887 0.86628 0.0
O71 O 0.35953 0.6384 0.84848 0.0
Cd72 Cd 0.38173 0.6812 0.78628 0.0
O73 O 0.27634 0.65185 0.85024 0.0
Cd74 Cd 0.25141 0.66966 0.78733 0.0
C75 C 0.37485 0.81725 0.79972 0.0
O76 O 0.29864 0.63104 0.74067 0.0
O77 O 0.2751 0.70341 0.72461 0.0
O78 O 0.15588 0.56709 0.7915 0.0
C79 C 0.29379 0.66507 0.71546 0.0
O80 O 0.4081 0.79131 0.79304 0.0
C81 C 0.11713 0.58739 0.78835 0.0
O82 O 0.31422 0.78457 0.80167 0.0
O83 O 0.14014 0.64721 0.78497 0.0
C84 C 0.46955 0.00684 0.12177 0.0
C85 C 0.48238 0.06174 0.12151 0.0
C86 C 0.45714 0.94334 0.12184 0.0
C87 C 0.44419 0.8884 0.12168 0.0
C88 C 0.43565 0.48008 0.45514 0.0
C89 C 0.39373 0.49311 0.4549 0.0
C90 C 0.48672 0.46765 0.45517 0.0
C91 C 0.52879 0.45485 0.45499 0.0
C92 C 0.93114 0.45016 0.78835 0.0
C93 C 0.87614 0.40816 0.78817 0.0
C94 C -0.00524 0.50116 0.78833 0.0
C95 C 0.04979 0.54308 0.78813 0.0
C96 C -0.00459 0.48751 0.47296 0.0
C97 C 0.05221 0.50976 0.47035 0.0
C98 C 0.92912 0.46423 0.473 0.0
C99 C 0.87227 0.44175 0.47045 0.0
C100 C 0.44207 0.94204 0.80635 0.0
C101 C 0.40769 0.8852 0.80377 0.0
C102 C 0.48491 0.00837 0.80633 0.0
C103 C 0.51918 0.0652 0.80373 0.0
C104 C 0.45084 0.49618 0.13955 0.0
C105 C 0.42857 0.53066 0.13701 0.0
C106 C 0.47406 0.45317 0.13952 0.0
C107 C 0.49642 0.41877 0.13694 0.0
C108 C 0.62247 0.32606 0.93859 0.0
C109 C 0.61547 0.3198 0.90557 0.0
C110 C 0.62575 0.32506 -0.02249 0.0
C111 C 0.62088 0.31781 0.01053 0.0
C112 C 0.27178 0.63466 0.27193 0.0
C113 C 0.27111 0.62773 0.23891 0.0
C114 C 0.27587 0.63787 0.31086 0.0
C115 C 0.27804 0.63295 0.34389 0.0
C116 C 0.61258 0.28795 0.64411 0.0
C117 C 0.61979 0.29035 0.67715 0.0
C118 C 0.61159 0.28366 0.60519 0.0
C119 C 0.6178 0.28294 0.57218 0.0
C120 C 0.30345 0.62431 0.93861 0.0
C121 C 0.31049 0.63056 0.90562 0.0
C122 C 0.30008 0.62525 -0.02247 0.0
C123 C 0.3049 0.63241 0.01057 0.0
C124 C 0.64924 0.31228 0.31084 0.0
C125 C 0.64676 0.31703 0.34386 0.0
C126 C 0.65367 0.31569 0.27193 0.0
C127 C 0.65452 0.32272 0.23892 0.0
C128 C 0.31285 0.66161 0.64424 0.0
C129 C 0.30573 0.6593 0.67726 0.0
C130 C 0.31374 0.66588 0.60532 0.0
C131 C 0.30744 0.66668 0.57232 0.0
loop_
_geom_bond_atom_site_label_1
_geom_bond_atom_site_label_2
_geom_bond_distance
_geom_bond_site_symmetry_2
_ccdc_geom_bond_type
C0 O1 1.306 . S
C0 O3 1.160 . S
O1 C0 1.306 . S
O1 Cd2 2.228 . S
Cd2 O1 2.228 . S
Cd2 O6 2.273 . S
Cd2 O10 2.277 . S
O3 C0 1.160 . S
O3 Cd4 2.203 . S
Cd4 O3 2.203 . S
Cd4 O6 2.411 . S
Cd4 O7 2.333 . S
Cd4 O8 2.352 . S
Cd4 O12 2.277 . S
Cd4 O13 2.356 . S
C5 O10 1.209 . S
C5 O12 1.226 . S
O6 Cd2 2.273 . S
O6 Cd4 2.411 . S
O6 C9 1.320 . S
O7 Cd4 2.333 . S
O7 C9 1.214 . S
O8 Cd4 2.352 . S
O8 C11 1.258 . S
C9 O6 1.320 . S
C9 O7 1.214 . S
O10 Cd2 2.277 . S
O10 C5 1.209 . S
C11 O8 1.258 . S
C11 O13 1.282 . S
O12 Cd4 2.277 . S
O12 C5 1.226 . S
O13 Cd4 2.356 . S
O13 C11 1.282 . S
C14 O15 1.306 . S
C14 O17 1.160 . S
O15 C14 1.306 . S
O15 Cd16 2.228 . S
Cd16 O15 2.228 . S
Cd16 O20 2.273 . S
Cd16 O24 2.277 . S
O17 C14 1.160 . S
O17 Cd18 2.203 . S
Cd18 O17 2.203 . S
Cd18 O20 2.411 . S
Cd18 O21 2.333 . S
Cd18 O22 2.352 . S
Cd18 O26 2.277 . S
Cd18 O27 2.356 . S
C19 O24 1.209 . S
C19 O26 1.226 . S
O20 Cd16 2.273 . S
O20 Cd18 2.411 . S
O20 C23 1.320 . S
O21 Cd18 2.333 . S
O21 C23 1.214 . S
O22 Cd18 2.352 . S
O22 C25 1.258 . S
C23 O20 1.320 . S
C23 O21 1.214 . S
O24 Cd16 2.277 . S
O24 C19 1.209 . S
C25 O22 1.258 . S
C25 O27 1.282 . S
O26 Cd18 2.277 . S
O26 C19 1.226 . S
O27 Cd18 2.356 . S
O27 C25 1.282 . S
C28 O29 1.306 . S
C28 O31 1.160 . S
O29 C28 1.306 . S
O29 Cd30 2.228 . S
Cd30 O29 2.228 . S
Cd30 O34 2.273 . S
Cd30 O38 2.277 . S
O31 C28 1.160 . S
O31 Cd32 2.203 . S
Cd32 O31 2.203 . S
Cd32 O34 2.411 . S
Cd32 O35 2.333 . S
Cd32 O36 2.352 . S
Cd32 O40 2.277 . S
Cd32 O41 2.356 . S
C33 O38 1.209 . S
C33 O40 1.226 . S
O34 Cd30 2.273 . S
O34 Cd32 2.411 . S
O34 C37 1.320 . S
O35 Cd32 2.333 . S
O35 C37 1.214 . S
O36 Cd32 2.352 . S
O36 C39 1.258 . S
C37 O34 1.320 . S
C37 O35 1.214 . S
O38 Cd30 2.277 . S
O38 C33 1.209 . S
C39 O36 1.258 . S
C39 O41 1.282 . S
O40 Cd32 2.277 . S
O40 C33 1.226 . S
O41 Cd32 2.356 . S
O41 C39 1.282 . S
C42 O43 1.306 . S
C42 O45 1.160 . S
O43 C42 1.306 . S
O43 Cd44 2.228 . S
Cd44 O43 2.228 . S
Cd44 O48 2.273 . S
Cd44 O52 2.277 . S
O45 C42 1.160 . S
O45 Cd46 2.203 . S
Cd46 O45 2.203 . S
Cd46 O48 2.411 . S
Cd46 O49 2.333 . S
Cd46 O50 2.352 . S
Cd46 O54 2.277 . S
Cd46 O55 2.356 . S
C47 O52 1.209 . S
C47 O54 1.226 . S
O48 Cd44 2.273 . S
O48 Cd46 2.411 . S
O48 C51 1.320 . S
O49 Cd46 2.333 . S
O49 C51 1.214 . S
O50 Cd46 2.352 . S
O50 C53 1.258 . S
C51 O48 1.320 . S
C51 O49 1.214 . S
O52 Cd44 2.277 . S
O52 C47 1.209 . S
C53 O50 1.258 . S
C53 O55 1.282 . S
O54 Cd46 2.277 . S
O54 C47 1.226 . S
O55 Cd46 2.356 . S
O55 C53 1.282 . S
C56 O57 1.306 . S
C56 O59 1.160 . S
O57 C56 1.306 . S
O57 Cd58 2.228 . S
Cd58 O57 2.228 . S
Cd58 O62 2.273 . S
Cd58 O66 2.277 . S
O59 C56 1.160 . S
O59 Cd60 2.203 . S
Cd60 O59 2.203 . S
Cd60 O62 2.411 . S
Cd60 O63 2.333 . S
Cd60 O64 2.352 . S
Cd60 O68 2.277 . S
Cd60 O69 2.356 . S
C61 O66 1.209 . S
C61 O68 1.226 . S
O62 Cd58 2.273 . S
O62 Cd60 2.411 . S
O62 C65 1.320 . S
O63 Cd60 2.333 . S
O63 C65 1.214 . S
O64 Cd60 2.352 . S
O64 C67 1.258 . S
C65 O62 1.320 . S
C65 O63 1.214 . S
O66 Cd58 2.277 . S
O66 C61 1.209 . S
C67 O64 1.258 . S
C67 O69 1.282 . S
O68 Cd60 2.277 . S
O68 C61 1.226 . S
O69 Cd60 2.356 . S
O69 C67 1.282 . S
C70 O71 1.306 . S
C70 O73 1.160 . S
O71 C70 1.306 . S
O71 Cd72 2.228 . S
Cd72 O71 2.228 . S
Cd72 O76 2.273 . S
Cd72 O80 2.277 . S
O73 C70 1.160 . S
O73 Cd74 2.203 . S
Cd74 O73 2.203 . S
Cd74 O76 2.411 . S
Cd74 O77 2.333 . S
Cd74 O78 2.352 . S
Cd74 O82 2.277 . S
Cd74 O83 2.356 . S
C75 O80 1.209 . S
C75 O82 1.226 . S
O76 Cd72 2.273 . S
O76 Cd74 2.411 . S
O76 C79 1.320 . S
O77 Cd74 2.333 . S
O77 C79 1.214 . S
O78 Cd74 2.352 . S
O78 C81 1.258 . S
C79 O76 1.320 . S
C79 O77 1.214 . S
O80 Cd72 2.277 . S
O80 C75 1.209 . S
C81 O78 1.258 . S
C81 O83 1.282 . S
O82 Cd74 2.277 . S
O82 C75 1.226 . S
O83 Cd74 2.356 . S
O83 C81 1.282 . S
C84 C85 1.170 . S
C84 C86 1.380 1_545 S
C85 C84 1.170 . S
C86 C84 1.380 1_565 S
C86 C87 1.170 . S
C87 C86 1.170 . S
C88 C89 1.170 . S
C88 C90 1.380 . S
C89 C88 1.170 . S
C90 C88 1.380 . S
C90 C91 1.170 . S
C91 C90 1.170 . S
C92 C93 1.170 . S
C92 C94 1.380 1_655 S
C93 C92 1.170 . S
C94 C92 1.380 1_455 S
C94 C95 1.170 . S
C95 C94 1.170 . S
C96 C97 1.170 . S
C96 C98 1.380 1_455 S
C97 C96 1.170 . S
C98 C96 1.380 1_655 S
C98 C99 1.170 . S
C99 C98 1.170 . S
C100 C101 1.170 . S
C100 C102 1.380 1_565 S
C101 C100 1.170 . S
C102 C100 1.380 1_545 S
C102 C103 1.170 . S
C103 C102 1.170 . S
C104 C105 1.170 . S
C104 C106 1.380 . S
C105 C104 1.170 . S
C106 C104 1.380 . S
C106 C107 1.170 . S
C107 C106 1.170 . S
C108 C109 1.170 . S
C108 C110 1.380 1_556 S
C109 C108 1.170 . S
C110 C108 1.380 1_554 S
C110 C111 1.170 . S
C111 C110 1.170 . S
C112 C113 1.170 . S
C112 C114 1.380 . S
C113 C112 1.170 . S
C114 C112 1.380 . S
C114 C115 1.170 . S
C115 C114 1.170 . S
C116 C117 1.170 . S
C116 C118 1.380 . S
C117 C116 1.170 . S
C118 C116 1.380 . S
C118 C119 1.170 . S
C119 C118 1.170 . S
C120 C121 1.170 . S
C120 C122 1.380 1_556 S
C121 C120 1.170 . S
C122 C120 1.380 1_554 S
C122 C123 1.170 . S
C123 C122 1.170 . S
C124 C125 1.170 . S
C124 C126 1.380 . S
C125 C124 1.170 . S
C126 C124 1.380 . S
C126 C127 1.170 . S
C127 C126 1.170 . S
C128 C129 1.170 . S
C128 C130 1.380 . S
C129 C128 1.170 . S
C130 C128 1.380 . S
C130 C131 1.170 . S
C131 C130 1.170 . S
C85 C11 1.386 . S
C87 C53 1.388 . S
C89 C25 1.386 . S
C91 C67 1.383 . S
C93 C39 1.384 . S
C95 C81 1.387 . S
C97 C19 1.543 . S
C99 C61 1.549 . S
C101 C75 1.543 . S
C103 C33 1.549 . S
C105 C47 1.545 . S
C107 C5 1.547 . S
C109 C28 1.398 . S
C111 C9 1.374 . S
C113 C42 1.384 . S
C115 C23 1.346 . S
C117 C37 1.320 . S
C119 C56 1.400 . S
C121 C70 1.409 . S
C123 C51 1.322 . S
C125 C65 1.323 . S
C127 C0 1.393 . S
C129 C79 1.373 . S
C131 C14 1.396 . S
