# Generated by pormake.
# Topology umo, (4)-cn, num edge types: 1
# Building blocks:
#     Node 0, Type 0, BuildingBlock: GALJAG_clean_sbu_0, # of connection points: 4
#     Node 1, Type 0, BuildingBlock: GALJAG_clean_sbu_0, # of connection points: 4
#     Node 2, Type 0, BuildingBlock: GALJAG_clean_sbu_0, # of connection points: 4
#     Node 3, Type 0, BuildingBlock: GALJAG_clean_sbu_0, # of connection points: 4
#     Node 4, Type 0, BuildingBlock: GALJAG_clean_sbu_0, # of connection points: 4
#     Node 5, Type 0, BuildingBlock: GALJAG_clean_sbu_0, # of connection points: 4
#     Node 6, Type 0, BuildingBlock: GALJAG_clean_sbu_0, # of connection points: 4
#     Node 7, Type 0, BuildingBlock: GALJAG_clean_sbu_0, # of connection points: 4
#     Node 8, Type 0, BuildingBlock: GALJAG_clean_sbu_0, # of connection points: 4
#     Node 9, Type 0, BuildingBlock: GALJAG_clean_sbu_0, # of connection points: 4
#     Node 10, Type 0, BuildingBlock: GALJAG_clean_sbu_0, # of connection points: 4
#     Node 11, Type 0, BuildingBlock: GALJAG_clean_sbu_0, # of connection points: 4
#     Edge 12, Type (0, 0), None
#     Edge 13, Type (0, 0), None
#     Edge 14, Type (0, 0), None
#     Edge 15, Type (0, 0), None
#     Edge 16, Type (0, 0), None
#     Edge 17, Type (0, 0), None
#     Edge 18, Type (0, 0), None
#     Edge 19, Type (0, 0), None
#     Edge 20, Type (0, 0), None
#     Edge 21, Type (0, 0), None
#     Edge 22, Type (0, 0), None
#     Edge 23, Type (0, 0), None
#     Edge 24, Type (0, 0), None
#     Edge 25, Type (0, 0), None
#     Edge 26, Type (0, 0), None
#     Edge 27, Type (0, 0), None
#     Edge 28, Type (0, 0), None
#     Edge 29, Type (0, 0), None
#     Edge 30, Type (0, 0), None
#     Edge 31, Type (0, 0), None
#     Edge 32, Type (0, 0), None
#     Edge 33, Type (0, 0), None
#     Edge 34, Type (0, 0), None
#     Edge 35, Type (0, 0), None
# Relax obj value: 0.202
# Max RMSD: 0.196
# Mean RMSD: 0.196
data_MOF--net-umo--node1-GALJAG_clean_sbu_0--edge1-none
_symmetry_space_group_name_H-M    P1
_symmetry_Int_Tables_number       1
_symmetry_cell_setting            triclinic
loop_
_symmetry_equiv_pos_as_xyz
'x, y, z'
_cell_length_a     22.772678
_cell_length_b     22.77665
_cell_length_c     16.428998
_cell_angle_alpha  90.0
_cell_angle_beta   90.0
_cell_angle_gamma 120.01102
loop_
_atom_site_label
_atom_site_type_symbol
_atom_site_fract_x
_atom_site_fract_y
_atom_site_fract_z
_atom_type_partial_charge
In0 In 0.14298 0.53103 0.39349 0.0
O1 O 0.12722 0.49772 0.52565 0.0
O2 O 0.11454 0.58186 0.49028 0.0
C3 C 0.20728 0.49498 0.28339 0.0
C4 C 0.01441 0.46348 0.34878 0.0
C5 C 0.25309 0.64819 0.41613 0.0
O6 O 0.20126 0.47682 0.35756 0.0
O7 O 0.17785 0.52787 0.26456 0.0
O8 O 0.20343 0.64473 0.37632 0.0
O9 O 0.24763 0.59292 0.44007 0.0
C10 C 0.11559 0.54489 0.54687 0.0
O11 O 0.05136 0.52663 0.33572 0.0
O12 O 0.04336 0.43375 0.38031 0.0
In13 In 0.59746 0.1502 0.56019 0.0
O14 O 0.61502 0.13447 0.69235 0.0
O15 O 0.51816 0.12173 0.65698 0.0
C16 C 0.69783 0.21451 0.45008 0.0
C17 C 0.53649 0.02165 0.51551 0.0
C18 C 0.59037 0.26026 0.58281 0.0
O19 O 0.70997 0.20851 0.52425 0.0
O20 O 0.63549 0.18505 0.43125 0.0
O21 O 0.54417 0.2106 0.543 0.0
O22 O 0.64021 0.25483 0.60675 0.0
C23 C 0.5562 0.1228 0.71356 0.0
O24 O 0.51024 0.05855 0.50243 0.0
O25 O 0.59518 0.05063 0.54704 0.0
In26 In 0.43292 0.60474 0.72681 0.0
O27 O 0.43728 0.51752 0.66904 0.0
O28 O 0.53019 0.60241 0.71362 0.0
C29 C 0.31575 0.59767 0.74944 0.0
C30 C 0.41905 0.56351 0.88019 0.0
C31 C 0.46902 0.70513 0.61673 0.0
O32 O 0.31921 0.55148 0.70963 0.0
O33 O 0.37104 0.64749 0.77338 0.0
O34 O 0.48717 0.71725 0.6909 0.0
O35 O 0.43611 0.6428 0.59788 0.0
C36 C 0.50044 0.54373 0.6821 0.0
O37 O 0.46624 0.62231 0.85897 0.0
O38 O 0.38207 0.52548 0.82361 0.0
In39 In 0.8137 0.4401 0.89349 0.0
O40 O 0.90532 0.4445 0.83572 0.0
O41 O 0.91332 0.53738 0.88031 0.0
C42 C 0.70359 0.32294 0.91613 0.0
C43 C 0.84109 0.42625 0.04687 0.0
C44 C 0.7494 0.47616 0.78339 0.0
O45 O 0.75325 0.32641 0.87632 0.0
O46 O 0.70905 0.37822 0.94007 0.0
O47 O 0.75542 0.49431 0.85756 0.0
O48 O 0.77883 0.44327 0.76456 0.0
C49 C 0.94227 0.50766 0.84878 0.0
O50 O 0.82946 0.47342 0.02565 0.0
O51 O 0.84214 0.38928 0.99028 0.0
In52 In 0.35923 0.82094 0.06019 0.0
O53 O 0.44644 0.91259 1.00243 0.0
O54 O 0.3615 0.9205 0.04704 0.0
C55 C 0.36631 0.71087 0.08281 0.0
C56 C 0.40048 0.84833 0.21356 0.0
C57 C 0.25885 0.75663 0.95008 0.0
O58 O 0.41251 0.76054 0.043 0.0
O59 O 0.31647 0.71631 0.10675 0.0
O60 O 0.24671 0.76263 0.02425 0.0
O61 O 0.32119 0.78608 0.93125 0.0
C62 C 0.42019 0.94949 0.01551 0.0
O63 O 0.34166 0.83667 0.19235 0.0
O64 O 0.43852 0.8494 0.15698 0.0
In65 In 0.52376 0.36639 0.22681 0.0
O66 O 0.5194 0.45362 0.16904 0.0
O67 O 0.42649 0.36872 0.21362 0.0
C68 C 0.64093 0.37347 0.24944 0.0
C69 C 0.53763 0.40763 0.38019 0.0
C70 C 0.48766 0.26601 0.11673 0.0
O71 O 0.63747 0.41966 0.20963 0.0
O72 O 0.58564 0.32364 0.27338 0.0
O73 O 0.46951 0.25388 0.1909 0.0
O74 O 0.52057 0.32834 0.09788 0.0
C75 C 0.45624 0.42741 0.1821 0.0
O76 O 0.49044 0.34882 0.35897 0.0
O77 O 0.57461 0.44566 0.32361 0.0
In78 In 0.43291 0.82094 0.45204 0.0
O79 O 0.46624 0.83672 0.31988 0.0
O80 O 0.38205 0.84935 0.35526 0.0
C81 C 0.46898 0.75661 0.56205 0.0
C82 C 0.50043 0.94948 0.49677 0.0
C83 C 0.31574 0.71084 0.42942 0.0
O84 O 0.48718 0.76269 0.4879 0.0
O85 O 0.43609 0.78604 0.58095 0.0
O86 O 0.3192 0.76048 0.46924 0.0
O87 O 0.37102 0.71631 0.40545 0.0
C88 C 0.41903 0.84831 0.29867 0.0
O89 O 0.43727 0.91251 0.50984 0.0
O90 O 0.53019 0.92056 0.46524 0.0
In91 In 0.59747 0.44006 0.61866 0.0
O92 O 0.51026 0.44448 0.67644 0.0
O93 O 0.5952 0.53735 0.63183 0.0
C94 C 0.59038 0.3229 0.59607 0.0
C95 C 0.55621 0.42617 0.4653 0.0
C96 C 0.69787 0.47611 0.7287 0.0
O97 O 0.54418 0.32637 0.63587 0.0
O98 O 0.64021 0.37817 0.57209 0.0
O99 O 0.71 0.4943 0.65454 0.0
O100 O 0.63554 0.44324 0.74759 0.0
C101 C 0.5365 0.50763 0.66337 0.0
O102 O 0.61503 0.47336 0.4865 0.0
O103 O 0.51817 0.38921 0.52189 0.0
In104 In 0.14301 0.60473 0.78534 0.0
O105 O 0.12725 0.62227 0.65317 0.0
O106 O 0.11455 0.52544 0.68856 0.0
C107 C 0.20737 0.70511 0.89538 0.0
C108 C 0.01444 0.54374 0.83005 0.0
C109 C 0.25311 0.59767 0.76272 0.0
O110 O 0.20131 0.71724 0.82122 0.0
O111 O 0.17791 0.64278 0.91426 0.0
O112 O 0.20344 0.55147 0.80253 0.0
O113 O 0.24766 0.64748 0.73876 0.0
C114 C 0.11562 0.56346 0.63197 0.0
O115 O 0.05138 0.51752 0.84312 0.0
O116 O 0.04341 0.60242 0.79851 0.0
In117 In 0.52377 0.1502 0.95204 0.0
O118 O 0.49045 0.13442 0.81988 0.0
O119 O 0.57463 0.12178 0.85526 0.0
C120 C 0.4877 0.21453 0.06205 0.0
C121 C 0.45625 0.02165 0.99677 0.0
C122 C 0.64094 0.2603 0.92942 0.0
O123 O 0.4695 0.20844 0.9879 0.0
O124 O 0.52059 0.1851 0.08095 0.0
O125 O 0.63748 0.21065 0.96924 0.0
O126 O 0.58566 0.25483 0.90545 0.0
C127 C 0.53765 0.12283 0.79867 0.0
O128 O 0.51941 0.05862 0.00984 0.0
O129 O 0.42649 0.05058 0.96524 0.0
In130 In 0.35921 0.53108 0.11866 0.0
O131 O 0.44642 0.52666 0.17644 0.0
O132 O 0.36148 0.43379 0.13183 0.0
C133 C 0.3663 0.64823 0.09607 0.0
C134 C 0.40047 0.54496 0.9653 0.0
C135 C 0.25881 0.49502 0.2287 0.0
O136 O 0.4125 0.64477 0.13587 0.0
O137 O 0.31647 0.59296 0.07209 0.0
O138 O 0.24668 0.47684 0.15454 0.0
O139 O 0.32114 0.5279 0.24759 0.0
C140 C 0.42018 0.4635 0.16337 0.0
O141 O 0.34165 0.49778 0.9865 0.0
O142 O 0.43851 0.58193 0.02189 0.0
In143 In 0.81367 0.36641 0.28534 0.0
O144 O 0.9053 0.45362 0.34312 0.0
O145 O 0.91327 0.36872 0.29851 0.0
C146 C 0.70357 0.37347 0.26272 0.0
C147 C 0.84106 0.40767 0.13197 0.0
C148 C 0.74931 0.26603 0.39538 0.0
O149 O 0.75324 0.41966 0.30253 0.0
O150 O 0.70902 0.32365 0.23876 0.0
O151 O 0.75537 0.2539 0.32122 0.0
O152 O 0.77877 0.32835 0.41426 0.0
C153 C 0.94224 0.4274 0.33005 0.0
O154 O 0.82943 0.34887 0.15317 0.0
O155 O 0.84213 0.4457 0.18856 0.0
loop_
_geom_bond_atom_site_label_1
_geom_bond_atom_site_label_2
_geom_bond_distance
_geom_bond_site_symmetry_2
_ccdc_geom_bond_type
In0 O1 2.294 . S
In0 O2 2.326 . S
In0 O6 2.266 . S
In0 O7 2.326 . S
In0 O8 2.266 . S
In0 O9 2.326 . S
In0 O11 2.294 . S
In0 O12 2.326 . S
O1 In0 2.294 . S
O1 C10 1.240 . S
O2 In0 2.326 . S
O2 C10 1.252 . S
C3 O6 1.252 . S
C3 O7 1.260 . S
C4 O11 1.240 . S
C4 O12 1.252 . S
C5 O8 1.252 . S
C5 O9 1.260 . S
O6 In0 2.266 . S
O6 C3 1.252 . S
O7 In0 2.326 . S
O7 C3 1.260 . S
O8 In0 2.266 . S
O8 C5 1.252 . S
O9 In0 2.326 . S
O9 C5 1.260 . S
C10 O1 1.240 . S
C10 O2 1.252 . S
O11 In0 2.294 . S
O11 C4 1.240 . S
O12 In0 2.326 . S
O12 C4 1.252 . S
In13 O14 2.294 . S
In13 O15 2.326 . S
In13 O19 2.266 . S
In13 O20 2.326 . S
In13 O21 2.266 . S
In13 O22 2.326 . S
In13 O24 2.294 . S
In13 O25 2.326 . S
O14 In13 2.294 . S
O14 C23 1.240 . S
O15 In13 2.326 . S
O15 C23 1.252 . S
C16 O19 1.252 . S
C16 O20 1.260 . S
C17 O24 1.240 . S
C17 O25 1.252 . S
C18 O21 1.252 . S
C18 O22 1.260 . S
O19 In13 2.266 . S
O19 C16 1.252 . S
O20 In13 2.326 . S
O20 C16 1.260 . S
O21 In13 2.266 . S
O21 C18 1.252 . S
O22 In13 2.326 . S
O22 C18 1.260 . S
C23 O14 1.240 . S
C23 O15 1.252 . S
O24 In13 2.294 . S
O24 C17 1.240 . S
O25 In13 2.326 . S
O25 C17 1.252 . S
In26 O27 2.294 . S
In26 O28 2.326 . S
In26 O32 2.266 . S
In26 O33 2.326 . S
In26 O34 2.266 . S
In26 O35 2.326 . S
In26 O37 2.294 . S
In26 O38 2.326 . S
O27 In26 2.294 . S
O27 C36 1.240 . S
O28 In26 2.326 . S
O28 C36 1.252 . S
C29 O32 1.252 . S
C29 O33 1.260 . S
C30 O37 1.240 . S
C30 O38 1.252 . S
C31 O34 1.252 . S
C31 O35 1.260 . S
O32 In26 2.266 . S
O32 C29 1.252 . S
O33 In26 2.326 . S
O33 C29 1.260 . S
O34 In26 2.266 . S
O34 C31 1.252 . S
O35 In26 2.326 . S
O35 C31 1.260 . S
C36 O27 1.240 . S
C36 O28 1.252 . S
O37 In26 2.294 . S
O37 C30 1.240 . S
O38 In26 2.326 . S
O38 C30 1.252 . S
In39 O40 2.294 . S
In39 O41 2.326 . S
In39 O45 2.266 . S
In39 O46 2.326 . S
In39 O47 2.266 . S
In39 O48 2.326 . S
In39 O50 2.294 1_556 S
In39 O51 2.326 1_556 S
O40 In39 2.294 . S
O40 C49 1.240 . S
O41 In39 2.326 . S
O41 C49 1.252 . S
C42 O45 1.252 . S
C42 O46 1.260 . S
C43 O50 1.240 . S
C43 O51 1.252 . S
C44 O47 1.252 . S
C44 O48 1.260 . S
O45 In39 2.266 . S
O45 C42 1.252 . S
O46 In39 2.326 . S
O46 C42 1.260 . S
O47 In39 2.266 . S
O47 C44 1.252 . S
O48 In39 2.326 . S
O48 C44 1.260 . S
C49 O40 1.240 . S
C49 O41 1.252 . S
O50 In39 2.294 1_554 S
O50 C43 1.240 . S
O51 In39 2.326 1_554 S
O51 C43 1.252 . S
In52 O53 2.294 . S
In52 O54 2.326 . S
In52 O58 2.266 . S
In52 O59 2.326 . S
In52 O60 2.266 . S
In52 O61 2.326 1_554 S
In52 O63 2.294 . S
In52 O64 2.326 . S
O53 In52 2.294 . S
O53 C62 1.240 . S
O54 In52 2.326 . S
O54 C62 1.252 . S
C55 O58 1.252 . S
C55 O59 1.260 . S
C56 O63 1.240 . S
C56 O64 1.252 . S
C57 O60 1.252 1_556 S
C57 O61 1.260 . S
O58 In52 2.266 . S
O58 C55 1.252 . S
O59 In52 2.326 . S
O59 C55 1.260 . S
O60 In52 2.266 . S
O60 C57 1.252 1_554 S
O61 In52 2.326 1_556 S
O61 C57 1.260 . S
C62 O53 1.240 . S
C62 O54 1.252 . S
O63 In52 2.294 . S
O63 C56 1.240 . S
O64 In52 2.326 . S
O64 C56 1.252 . S
In65 O66 2.294 . S
In65 O67 2.326 . S
In65 O71 2.266 . S
In65 O72 2.326 . S
In65 O73 2.266 . S
In65 O74 2.326 . S
In65 O76 2.294 . S
In65 O77 2.326 . S
O66 In65 2.294 . S
O66 C75 1.240 . S
O67 In65 2.326 . S
O67 C75 1.252 . S
C68 O71 1.252 . S
C68 O72 1.260 . S
C69 O76 1.240 . S
C69 O77 1.252 . S
C70 O73 1.252 . S
C70 O74 1.260 . S
O71 In65 2.266 . S
O71 C68 1.252 . S
O72 In65 2.326 . S
O72 C68 1.260 . S
O73 In65 2.266 . S
O73 C70 1.252 . S
O74 In65 2.326 . S
O74 C70 1.260 . S
C75 O66 1.240 . S
C75 O67 1.252 . S
O76 In65 2.294 . S
O76 C69 1.240 . S
O77 In65 2.326 . S
O77 C69 1.252 . S
In78 O79 2.294 . S
In78 O80 2.326 . S
In78 O84 2.266 . S
In78 O85 2.326 . S
In78 O86 2.266 . S
In78 O87 2.326 . S
In78 O89 2.294 . S
In78 O90 2.326 . S
O79 In78 2.294 . S
O79 C88 1.240 . S
O80 In78 2.326 . S
O80 C88 1.252 . S
C81 O84 1.252 . S
C81 O85 1.260 . S
C82 O89 1.240 . S
C82 O90 1.252 . S
C83 O86 1.252 . S
C83 O87 1.260 . S
O84 In78 2.266 . S
O84 C81 1.252 . S
O85 In78 2.326 . S
O85 C81 1.260 . S
O86 In78 2.266 . S
O86 C83 1.252 . S
O87 In78 2.326 . S
O87 C83 1.260 . S
C88 O79 1.240 . S
C88 O80 1.252 . S
O89 In78 2.294 . S
O89 C82 1.240 . S
O90 In78 2.326 . S
O90 C82 1.252 . S
In91 O92 2.294 . S
In91 O93 2.326 . S
In91 O97 2.266 . S
In91 O98 2.326 . S
In91 O99 2.266 . S
In91 O100 2.326 . S
In91 O102 2.294 . S
In91 O103 2.326 . S
O92 In91 2.294 . S
O92 C101 1.240 . S
O93 In91 2.326 . S
O93 C101 1.252 . S
C94 O97 1.252 . S
C94 O98 1.260 . S
C95 O102 1.240 . S
C95 O103 1.252 . S
C96 O99 1.252 . S
C96 O100 1.260 . S
O97 In91 2.266 . S
O97 C94 1.252 . S
O98 In91 2.326 . S
O98 C94 1.260 . S
O99 In91 2.266 . S
O99 C96 1.252 . S
O100 In91 2.326 . S
O100 C96 1.260 . S
C101 O92 1.240 . S
C101 O93 1.252 . S
O102 In91 2.294 . S
O102 C95 1.240 . S
O103 In91 2.326 . S
O103 C95 1.252 . S
In104 O105 2.294 . S
In104 O106 2.326 . S
In104 O110 2.266 . S
In104 O111 2.326 . S
In104 O112 2.266 . S
In104 O113 2.326 . S
In104 O115 2.294 . S
In104 O116 2.326 . S
O105 In104 2.294 . S
O105 C114 1.240 . S
O106 In104 2.326 . S
O106 C114 1.252 . S
C107 O110 1.252 . S
C107 O111 1.260 . S
C108 O115 1.240 . S
C108 O116 1.252 . S
C109 O112 1.252 . S
C109 O113 1.260 . S
O110 In104 2.266 . S
O110 C107 1.252 . S
O111 In104 2.326 . S
O111 C107 1.260 . S
O112 In104 2.266 . S
O112 C109 1.252 . S
O113 In104 2.326 . S
O113 C109 1.260 . S
C114 O105 1.240 . S
C114 O106 1.252 . S
O115 In104 2.294 . S
O115 C108 1.240 . S
O116 In104 2.326 . S
O116 C108 1.252 . S
In117 O118 2.294 . S
In117 O119 2.326 . S
In117 O123 2.266 . S
In117 O124 2.326 1_556 S
In117 O125 2.266 . S
In117 O126 2.326 . S
In117 O128 2.294 . S
In117 O129 2.326 . S
O118 In117 2.294 . S
O118 C127 1.240 . S
O119 In117 2.326 . S
O119 C127 1.252 . S
C120 O123 1.252 1_554 S
C120 O124 1.260 . S
C121 O128 1.240 . S
C121 O129 1.252 . S
C122 O125 1.252 . S
C122 O126 1.260 . S
O123 In117 2.266 . S
O123 C120 1.252 1_556 S
O124 In117 2.326 1_554 S
O124 C120 1.260 . S
O125 In117 2.266 . S
O125 C122 1.252 . S
O126 In117 2.326 . S
O126 C122 1.260 . S
C127 O118 1.240 . S
C127 O119 1.252 . S
O128 In117 2.294 . S
O128 C121 1.240 . S
O129 In117 2.326 . S
O129 C121 1.252 . S
In130 O131 2.294 . S
In130 O132 2.326 . S
In130 O136 2.266 . S
In130 O137 2.326 . S
In130 O138 2.266 . S
In130 O139 2.326 . S
In130 O141 2.294 1_554 S
In130 O142 2.326 1_554 S
O131 In130 2.294 . S
O131 C140 1.240 . S
O132 In130 2.326 . S
O132 C140 1.252 . S
C133 O136 1.252 . S
C133 O137 1.260 . S
C134 O141 1.240 . S
C134 O142 1.252 . S
C135 O138 1.252 . S
C135 O139 1.260 . S
O136 In130 2.266 . S
O136 C133 1.252 . S
O137 In130 2.326 . S
O137 C133 1.260 . S
O138 In130 2.266 . S
O138 C135 1.252 . S
O139 In130 2.326 . S
O139 C135 1.260 . S
C140 O131 1.240 . S
C140 O132 1.252 . S
O141 In130 2.294 1_556 S
O141 C134 1.240 . S
O142 In130 2.326 1_556 S
O142 C134 1.252 . S
In143 O144 2.294 . S
In143 O145 2.326 . S
In143 O149 2.266 . S
In143 O150 2.326 . S
In143 O151 2.266 . S
In143 O152 2.326 . S
In143 O154 2.294 . S
In143 O155 2.326 . S
O144 In143 2.294 . S
O144 C153 1.240 . S
O145 In143 2.326 . S
O145 C153 1.252 . S
C146 O149 1.252 . S
C146 O150 1.260 . S
C147 O154 1.240 . S
C147 O155 1.252 . S
C148 O151 1.252 . S
C148 O152 1.260 . S
O149 In143 2.266 . S
O149 C146 1.252 . S
O150 In143 2.326 . S
O150 C146 1.260 . S
O151 In143 2.266 . S
O151 C148 1.252 . S
O152 In143 2.326 . S
O152 C148 1.260 . S
C153 O144 1.240 . S
C153 O145 1.252 . S
O154 In143 2.294 . S
O154 C147 1.240 . S
O155 In143 2.326 . S
O155 C147 1.252 . S
C5 C83 1.280 . S
C18 C94 1.280 . S
C109 C29 1.280 . S
C42 C122 1.280 . S
C55 C133 1.280 . S
C146 C68 1.280 . S
C114 C10 2.065 . S
C23 C127 2.065 . S
C134 C30 2.065 . S
C147 C43 2.065 . S
C56 C88 2.065 . S
C69 C95 2.065 . S
C153 C4 1.425 1_655 S
C82 C17 1.425 1_565 S
C36 C101 1.425 . S
C108 C49 1.425 1_455 S
C121 C62 1.425 1_546 S
C140 C75 1.425 . S
C3 C135 1.738 . S
C148 C16 1.738 . S
C31 C81 1.738 . S
C44 C96 1.738 . S
C57 C107 1.738 . S
C70 C120 1.738 . S
