# Generated by pormake.
# Topology smt, (6)-cn, num edge types: 1
# Building blocks:
#     Node 0, Type 0, BuildingBlock: MIDCAF_clean_sbu_0, # of connection points: 6
#     Node 1, Type 0, BuildingBlock: MIDCAF_clean_sbu_0, # of connection points: 6
#     Node 2, Type 0, BuildingBlock: MIDCAF_clean_sbu_0, # of connection points: 6
#     Node 3, Type 0, BuildingBlock: MIDCAF_clean_sbu_0, # of connection points: 6
#     Node 4, Type 0, BuildingBlock: MIDCAF_clean_sbu_0, # of connection points: 6
#     Node 5, Type 0, BuildingBlock: MIDCAF_clean_sbu_0, # of connection points: 6
#     Edge 6, Type (0, 0), None
#     Edge 7, Type (0, 0), None
#     Edge 8, Type (0, 0), None
#     Edge 9, Type (0, 0), None
#     Edge 10, Type (0, 0), None
#     Edge 11, Type (0, 0), None
#     Edge 12, Type (0, 0), None
#     Edge 13, Type (0, 0), None
#     Edge 14, Type (0, 0), None
#     Edge 15, Type (0, 0), None
#     Edge 16, Type (0, 0), None
#     Edge 17, Type (0, 0), None
#     Edge 18, Type (0, 0), None
#     Edge 19, Type (0, 0), None
#     Edge 20, Type (0, 0), None
#     Edge 21, Type (0, 0), None
#     Edge 22, Type (0, 0), None
#     Edge 23, Type (0, 0), None
# Relax obj value: 0.228
# Max RMSD: 0.198
# Mean RMSD: 0.198
data_MOF--net-smt--node1-MIDCAF_clean_sbu_0--edge1-none
_symmetry_space_group_name_H-M    P1
_symmetry_Int_Tables_number       1
_symmetry_cell_setting            triclinic
loop_
_symmetry_equiv_pos_as_xyz
'x, y, z'
_cell_length_a     15.681111
_cell_length_b     15.682371
_cell_length_c     11.900496
_cell_angle_alpha  89.988772
_cell_angle_beta   90.006819
_cell_angle_gamma 119.9904
loop_
_atom_site_label
_atom_site_type_symbol
_atom_site_fract_x
_atom_site_fract_y
_atom_site_fract_z
_atom_type_partial_charge
Zn0 Zn 0.61247 0.19838 0.8546 0.0
Zn1 Zn 0.23497 0.96863 0.16374 0.0
Zn2 Zn 0.43305 0.08854 0.9454 0.0
C3 C 0.24698 0.89538 0.94544 0.0
C4 C 0.31816 0.15135 0.07748 0.0
O5 O 0.53969 0.13475 0.07606 0.0
O6 O 0.67566 0.16945 -0.01589 0.0
C7 C 0.51379 0.00905 0.7796 0.0
O8 O 0.30003 0.97093 0.88602 0.0
O9 O 0.26905 0.8926 0.0469 0.0
O10 O 0.23007 0.08626 0.09942 0.0
O11 O 0.38445 0.12733 0.08766 0.0
O12 O 0.53986 0.09157 0.73431 0.0
O13 O 0.48267 -0.00411 0.88009 0.0
O14 O 0.44143 0.2038 0.84168 0.0
O15 O 0.59169 0.3149 0.88156 0.0
C16 C 0.51015 0.2932 0.83819 0.0
O17 O 0.42377 0.0511 0.13225 0.0
O18 O 0.33903 0.01025 0.28924 0.0
C19 C 0.6308 0.15881 0.07606 0.0
C20 C 0.41802 0.02993 0.23845 0.0
Zn21 Zn 0.40795 0.61556 0.02111 0.0
Zn22 Zn 0.2603 0.23808 0.33108 0.0
Zn23 Zn 0.33859 0.43641 0.11209 0.0
C24 C 0.3455 0.2501 0.1122 0.0
C25 C 0.16063 0.32101 0.24406 0.0
O26 O 0.39886 0.5428 0.24272 0.0
O27 O 0.50006 0.67872 0.15067 0.0
C28 C 0.49864 0.51686 0.94617 0.0
O29 O 0.32336 0.30338 0.05263 0.0
O30 O 0.37027 0.27208 0.2137 0.0
O31 O 0.13764 0.23299 0.26646 0.0
O32 O 0.25095 0.38726 0.25421 0.0
O33 O 0.44214 0.54287 0.90084 0.0
O34 O 0.48073 0.48579 0.04668 0.0
O35 O 0.23159 0.44452 0.0083 0.0
O36 O 0.27061 0.59471 0.04827 0.0
C37 C 0.21081 0.51318 0.0049 0.0
O38 O 0.36444 0.42502 0.29921 0.0
O39 O 0.32272 0.34199 0.45717 0.0
C40 C 0.46592 0.63387 0.24266 0.0
C41 C 0.38148 0.42047 0.40519 0.0
Zn42 Zn 0.78616 0.41095 0.18773 0.0
Zn43 Zn 0.01608 0.26313 0.49707 0.0
Zn44 Zn 0.89605 0.34132 0.2787 0.0
C45 C 0.08927 0.34849 0.27864 0.0
C46 C 0.83342 0.16365 0.41081 0.0
O47 O 0.85003 0.40199 0.40924 0.0
O48 O 0.81509 0.50309 0.31723 0.0
C49 C 0.97553 0.50155 0.11268 0.0
O50 O 0.01377 0.3261 0.21915 0.0
O51 O 0.09196 0.37324 0.38011 0.0
O52 O 0.89844 0.14057 0.4329 0.0
O53 O 0.85749 0.25395 0.42097 0.0
O54 O 0.89302 0.44512 0.06737 0.0
O55 O 0.98869 0.48348 0.21313 0.0
O56 O 0.78078 0.2344 0.17516 0.0
O57 O 0.66967 0.27365 0.21498 0.0
C58 C 0.69139 0.21378 0.17175 0.0
O59 O 0.93352 0.36943 0.46556 0.0
O60 O 0.97445 0.32557 0.62255 0.0
C61 C 0.82588 0.46898 0.40921 0.0
C62 C 0.95471 0.38485 0.57174 0.0
Zn63 Zn 0.74673 0.01907 0.66356 0.0
Zn64 Zn 0.36904 0.78911 0.35437 0.0
Zn65 Zn 0.54869 0.89909 0.44537 0.0
C66 C 0.47155 0.69444 0.33835 0.0
C67 C 0.4679 0.9785 0.2795 0.0
O68 O 0.55755 0.93652 0.63217 0.0
O69 O 0.64267 0.97737 0.78901 0.0
C70 C 0.6636 0.83638 0.57746 0.0
O71 O 0.5403 0.78382 0.34177 0.0
O72 O 0.38997 0.6727 0.38163 0.0
O73 O 0.44179 0.89601 0.23416 0.0
O74 O 0.49903 0.99168 0.37998 0.0
O75 O 0.7517 0.90145 0.59938 0.0
O76 O 0.59732 0.8604 0.58763 0.0
O77 O 0.68162 0.01676 0.38581 0.0
O78 O 0.71242 0.09494 0.54671 0.0
C79 C 0.73458 0.09229 0.44528 0.0
O80 O 0.44185 0.85306 0.57585 0.0
O81 O 0.3058 0.81802 0.48381 0.0
C82 C 0.56357 0.9576 0.7384 0.0
C83 C 0.35069 0.82885 0.57579 0.0
Zn84 Zn 0.57371 0.37221 0.52092 0.0
Zn85 Zn 0.72143 0.74975 0.83039 0.0
Zn86 Zn 0.64331 0.55155 0.61193 0.0
C87 C 0.63621 0.73759 0.61204 0.0
C88 C 0.82095 0.66655 0.7441 0.0
O89 O 0.58281 0.44495 0.74267 0.0
O90 O 0.48159 0.30903 0.65056 0.0
C91 C 0.48316 0.471 0.44525 0.0
O92 O 0.65865 0.68454 0.55255 0.0
O93 O 0.61132 0.71545 0.71346 0.0
O94 O 0.84395 0.75463 0.76613 0.0
O95 O 0.73066 0.60028 0.75423 0.0
O96 O 0.53942 0.44464 0.40004 0.0
O97 O 0.50138 0.5024 0.54565 0.0
O98 O 0.75029 0.54331 0.50841 0.0
O99 O 0.71104 0.39295 0.54814 0.0
C100 C 0.77092 0.47455 0.50494 0.0
O101 O 0.61518 0.56089 0.79888 0.0
O102 O 0.65912 0.64577 0.95589 0.0
C103 C 0.51573 0.35386 0.74255 0.0
C104 C 0.59989 0.56676 0.90509 0.0
Zn105 Zn 0.19541 0.57676 0.6878 0.0
Zn106 Zn 0.96557 0.72442 -0.00289 0.0
Zn107 Zn 0.08553 0.64626 0.77869 0.0
C108 C 0.89236 0.63916 0.77874 0.0
C109 C 0.14828 0.82389 0.91072 0.0
O110 O 0.13172 0.58587 0.90942 0.0
O111 O 0.16641 0.48462 0.81733 0.0
C112 C 0.00608 0.48613 0.61278 0.0
O113 O 0.96792 0.66171 0.71932 0.0
O114 O 0.88959 0.61432 0.88019 0.0
O115 O 0.08317 0.84688 0.9327 0.0
O116 O 0.12449 0.73366 0.92094 0.0
O117 O 0.08857 0.54255 0.56744 0.0
O118 O -0.0071 0.50405 0.71328 0.0
O119 O 0.20073 0.75319 0.67496 0.0
O120 O 0.31193 0.71407 0.71482 0.0
C121 C 0.29014 0.77388 0.67153 0.0
O122 O 0.0481 0.61844 0.9656 0.0
O123 O 0.00715 0.66207 0.12277 0.0
C124 C 0.15572 0.51877 0.90931 0.0
C125 C 0.02688 0.60289 0.07178 0.0
loop_
_geom_bond_atom_site_label_1
_geom_bond_atom_site_label_2
_geom_bond_distance
_geom_bond_site_symmetry_2
_ccdc_geom_bond_type
Zn0 O6 1.920 . S
Zn0 O12 1.898 . S
Zn0 O15 1.905 . S
Zn1 O9 1.905 . S
Zn1 O10 1.898 1_565 S
Zn1 O18 1.920 . S
Zn2 O5 2.080 . S
Zn2 O8 2.114 1_554 S
Zn2 O11 2.120 . S
Zn2 O13 2.120 1_554 S
Zn2 O14 2.114 1_554 S
Zn2 O17 2.080 . S
C3 O8 1.166 1_565 S
C3 O9 1.182 1_556 S
C4 O10 1.167 . S
C4 O11 1.299 . S
O5 Zn2 2.080 . S
O5 C19 1.305 . S
O6 Zn0 1.920 . S
O6 C19 1.234 1_556 S
C7 O12 1.167 . S
C7 O13 1.299 . S
O8 Zn2 2.114 1_556 S
O8 C3 1.166 1_545 S
O9 Zn1 1.905 . S
O9 C3 1.182 1_554 S
O10 Zn1 1.898 1_545 S
O10 C4 1.167 . S
O11 Zn2 2.120 . S
O11 C4 1.299 . S
O12 Zn0 1.898 . S
O12 C7 1.167 . S
O13 Zn2 2.120 1_556 S
O13 C7 1.299 . S
O14 Zn2 2.114 1_556 S
O14 C16 1.166 . S
O15 Zn0 1.905 . S
O15 C16 1.182 . S
C16 O14 1.166 . S
C16 O15 1.182 . S
O17 Zn2 2.080 . S
O17 C20 1.305 1_545 S
O18 Zn1 1.920 . S
O18 C20 1.234 . S
C19 O5 1.305 . S
C19 O6 1.234 1_554 S
C20 O17 1.305 1_565 S
C20 O18 1.234 . S
Zn21 O27 1.920 . S
Zn21 O33 1.898 1_554 S
Zn21 O36 1.905 1_554 S
Zn22 O30 1.905 . S
Zn22 O31 1.898 . S
Zn22 O39 1.920 . S
Zn23 O26 2.080 . S
Zn23 O29 2.114 . S
Zn23 O32 2.120 . S
Zn23 O34 2.120 . S
Zn23 O35 2.114 . S
Zn23 O38 2.080 . S
C24 O29 1.166 . S
C24 O30 1.182 . S
C25 O31 1.167 . S
C25 O32 1.299 . S
O26 Zn23 2.080 . S
O26 C40 1.305 . S
O27 Zn21 1.920 . S
O27 C40 1.234 . S
C28 O33 1.167 . S
C28 O34 1.299 1_556 S
O29 Zn23 2.114 . S
O29 C24 1.166 . S
O30 Zn22 1.905 . S
O30 C24 1.182 . S
O31 Zn22 1.898 . S
O31 C25 1.167 . S
O32 Zn23 2.120 . S
O32 C25 1.299 . S
O33 Zn21 1.898 1_556 S
O33 C28 1.167 . S
O34 Zn23 2.120 . S
O34 C28 1.299 1_554 S
O35 Zn23 2.114 . S
O35 C37 1.166 . S
O36 Zn21 1.905 1_556 S
O36 C37 1.182 1_556 S
C37 O35 1.166 . S
C37 O36 1.182 1_554 S
O38 Zn23 2.080 . S
O38 C41 1.305 . S
O39 Zn22 1.920 . S
O39 C41 1.234 . S
C40 O26 1.305 . S
C40 O27 1.234 . S
C41 O38 1.305 . S
C41 O39 1.234 . S
Zn42 O48 1.920 . S
Zn42 O54 1.898 . S
Zn42 O57 1.905 . S
Zn43 O51 1.905 . S
Zn43 O52 1.898 1_455 S
Zn43 O60 1.920 . S
Zn44 O47 2.080 . S
Zn44 O50 2.114 . S
Zn44 O53 2.120 . S
Zn44 O55 2.120 . S
Zn44 O56 2.114 . S
Zn44 O59 2.080 . S
C45 O50 1.166 1_455 S
C45 O51 1.182 . S
C46 O52 1.167 . S
C46 O53 1.299 . S
O47 Zn44 2.080 . S
O47 C61 1.305 . S
O48 Zn42 1.920 . S
O48 C61 1.234 . S
C49 O54 1.167 . S
C49 O55 1.299 . S
O50 Zn44 2.114 . S
O50 C45 1.166 1_655 S
O51 Zn43 1.905 . S
O51 C45 1.182 . S
O52 Zn43 1.898 1_655 S
O52 C46 1.167 . S
O53 Zn44 2.120 . S
O53 C46 1.299 . S
O54 Zn42 1.898 . S
O54 C49 1.167 . S
O55 Zn44 2.120 . S
O55 C49 1.299 . S
O56 Zn44 2.114 . S
O56 C58 1.166 . S
O57 Zn42 1.905 . S
O57 C58 1.182 . S
C58 O56 1.166 . S
C58 O57 1.182 . S
O59 Zn44 2.080 . S
O59 C62 1.305 1_655 S
O60 Zn43 1.920 . S
O60 C62 1.234 . S
C61 O47 1.305 . S
C61 O48 1.234 . S
C62 O59 1.305 1_455 S
C62 O60 1.234 . S
Zn63 O69 1.920 . S
Zn63 O75 1.898 1_545 S
Zn63 O78 1.905 . S
Zn64 O72 1.905 . S
Zn64 O73 1.898 . S
Zn64 O81 1.920 . S
Zn65 O68 2.080 . S
Zn65 O71 2.114 . S
Zn65 O74 2.120 . S
Zn65 O76 2.120 . S
Zn65 O77 2.114 . S
Zn65 O80 2.080 . S
C66 O71 1.166 . S
C66 O72 1.182 . S
C67 O73 1.167 . S
C67 O74 1.299 . S
O68 Zn65 2.080 . S
O68 C82 1.305 1_565 S
O69 Zn63 1.920 . S
O69 C82 1.234 . S
C70 O75 1.167 . S
C70 O76 1.299 . S
O71 Zn65 2.114 . S
O71 C66 1.166 . S
O72 Zn64 1.905 . S
O72 C66 1.182 . S
O73 Zn64 1.898 . S
O73 C67 1.167 . S
O74 Zn65 2.120 . S
O74 C67 1.299 . S
O75 Zn63 1.898 1_565 S
O75 C70 1.167 . S
O76 Zn65 2.120 . S
O76 C70 1.299 . S
O77 Zn65 2.114 . S
O77 C79 1.166 1_565 S
O78 Zn63 1.905 . S
O78 C79 1.182 . S
C79 O77 1.166 1_545 S
C79 O78 1.182 . S
O80 Zn65 2.080 . S
O80 C83 1.305 . S
O81 Zn64 1.920 . S
O81 C83 1.234 . S
C82 O68 1.305 1_545 S
C82 O69 1.234 . S
C83 O80 1.305 . S
C83 O81 1.234 . S
Zn84 O90 1.920 . S
Zn84 O96 1.898 . S
Zn84 O99 1.905 . S
Zn85 O93 1.905 . S
Zn85 O94 1.898 . S
Zn85 O102 1.920 . S
Zn86 O89 2.080 . S
Zn86 O92 2.114 . S
Zn86 O95 2.120 . S
Zn86 O97 2.120 . S
Zn86 O98 2.114 . S
Zn86 O101 2.080 . S
C87 O92 1.166 . S
C87 O93 1.182 . S
C88 O94 1.167 . S
C88 O95 1.299 . S
O89 Zn86 2.080 . S
O89 C103 1.305 . S
O90 Zn84 1.920 . S
O90 C103 1.234 . S
C91 O96 1.167 . S
C91 O97 1.299 . S
O92 Zn86 2.114 . S
O92 C87 1.166 . S
O93 Zn85 1.905 . S
O93 C87 1.182 . S
O94 Zn85 1.898 . S
O94 C88 1.167 . S
O95 Zn86 2.120 . S
O95 C88 1.299 . S
O96 Zn84 1.898 . S
O96 C91 1.167 . S
O97 Zn86 2.120 . S
O97 C91 1.299 . S
O98 Zn86 2.114 . S
O98 C100 1.166 . S
O99 Zn84 1.905 . S
O99 C100 1.182 . S
C100 O98 1.166 . S
C100 O99 1.182 . S
O101 Zn86 2.080 . S
O101 C104 1.305 . S
O102 Zn85 1.920 . S
O102 C104 1.234 . S
C103 O89 1.305 . S
C103 O90 1.234 . S
C104 O101 1.305 . S
C104 O102 1.234 . S
Zn105 O111 1.920 . S
Zn105 O117 1.898 . S
Zn105 O120 1.905 . S
Zn106 O114 1.905 1_554 S
Zn106 O115 1.898 1_654 S
Zn106 O123 1.920 . S
Zn107 O110 2.080 . S
Zn107 O113 2.114 . S
Zn107 O116 2.120 . S
Zn107 O118 2.120 . S
Zn107 O119 2.114 . S
Zn107 O122 2.080 . S
C108 O113 1.166 1_655 S
C108 O114 1.182 . S
C109 O115 1.167 . S
C109 O116 1.299 . S
O110 Zn107 2.080 . S
O110 C124 1.305 . S
O111 Zn105 1.920 . S
O111 C124 1.234 . S
C112 O117 1.167 . S
C112 O118 1.299 . S
O113 Zn107 2.114 . S
O113 C108 1.166 1_455 S
O114 Zn106 1.905 1_556 S
O114 C108 1.182 . S
O115 Zn106 1.898 1_456 S
O115 C109 1.167 . S
O116 Zn107 2.120 . S
O116 C109 1.299 . S
O117 Zn105 1.898 . S
O117 C112 1.167 . S
O118 Zn107 2.120 . S
O118 C112 1.299 . S
O119 Zn107 2.114 . S
O119 C121 1.166 . S
O120 Zn105 1.905 . S
O120 C121 1.182 . S
C121 O119 1.166 . S
C121 O120 1.182 . S
O122 Zn107 2.080 . S
O122 C125 1.305 1_456 S
O123 Zn106 1.920 . S
O123 C125 1.234 . S
C124 O110 1.305 . S
C124 O111 1.234 . S
C125 O122 1.305 1_654 S
C125 O123 1.234 . S
C3 C109 1.029 . S
C24 C4 1.029 . S
C45 C25 1.029 . S
C46 C79 1.029 . S
C70 C87 1.029 . S
C108 C88 1.029 . S
C20 C67 1.344 . S
C41 C91 1.344 . S
C112 C62 1.344 . S
C82 C7 1.344 . S
C28 C104 1.344 . S
C125 C49 1.344 . S
C16 C103 1.196 . S
C124 C37 1.196 1_556 S
C19 C58 1.196 . S
C66 C40 1.196 . S
C61 C100 1.196 . S
C83 C121 1.196 . S
