# Generated by pormake.
# Topology lon, (4)-cn, num edge types: 1
# Building blocks:
#     Node 0, Type 0, BuildingBlock: GALJAG_clean_sbu_0, # of connection points: 4
#     Node 1, Type 0, BuildingBlock: GALJAG_clean_sbu_0, # of connection points: 4
#     Node 2, Type 0, BuildingBlock: GALJAG_clean_sbu_0, # of connection points: 4
#     Node 3, Type 0, BuildingBlock: GALJAG_clean_sbu_0, # of connection points: 4
#     Edge 4, Type (0, 0), BuildingBlock: EZIPEK_clean_linker_0, # of connection points: 2
#     Edge 5, Type (0, 0), BuildingBlock: EZIPEK_clean_linker_0, # of connection points: 2
#     Edge 6, Type (0, 0), BuildingBlock: EZIPEK_clean_linker_0, # of connection points: 2
#     Edge 7, Type (0, 0), BuildingBlock: EZIPEK_clean_linker_0, # of connection points: 2
#     Edge 8, Type (0, 0), BuildingBlock: EZIPEK_clean_linker_0, # of connection points: 2
#     Edge 9, Type (0, 0), BuildingBlock: EZIPEK_clean_linker_0, # of connection points: 2
#     Edge 10, Type (0, 0), BuildingBlock: EZIPEK_clean_linker_0, # of connection points: 2
#     Edge 11, Type (0, 0), BuildingBlock: EZIPEK_clean_linker_0, # of connection points: 2
# Relax obj value: 0.209
# Max RMSD: 0.226
# Mean RMSD: 0.214
data_MOF--net-lon--node1-GALJAG_clean_sbu_0--edge1-EZIPEK_clean_linker_0
_symmetry_space_group_name_H-M    P1
_symmetry_Int_Tables_number       1
_symmetry_cell_setting            triclinic
loop_
_symmetry_equiv_pos_as_xyz
'x, y, z'
_cell_length_a     16.830067
_cell_length_b     18.701963
_cell_length_c     29.557705
_cell_angle_alpha  97.287856
_cell_angle_beta   90.003983
_cell_angle_gamma 116.55941
loop_
_atom_site_label
_atom_site_type_symbol
_atom_site_fract_x
_atom_site_fract_y
_atom_site_fract_z
_atom_type_partial_charge
In0 In 0.37136 0.70639 0.06463 0.0
O1 O 0.22896 0.68335 0.04758 0.0
O2 O 0.25697 0.58236 0.04083 0.0
C3 C 0.4414 0.85156 0.03443 0.0
C4 C 0.35321 0.70264 0.15492 0.0
C5 C 0.48757 0.65325 0.03014 0.0
O6 O 0.38308 0.78827 0.01124 0.0
O7 O 0.46435 0.84218 0.07302 0.0
O8 O 0.49802 0.69118 0.06985 0.0
O9 O 0.41714 0.64128 0.00846 0.0
C10 C 0.19988 0.60799 0.03765 0.0
O11 O 0.37124 0.6531 0.12963 0.0
O12 O 0.34624 0.75574 0.13519 0.0
In13 In 0.63769 0.31998 0.56543 0.0
O14 O 0.52046 0.20193 0.53497 0.0
O15 O 0.64383 0.2003 0.54871 0.0
C16 C 0.56245 0.4095 0.53892 0.0
C17 C 0.63022 0.3134 0.65616 0.0
C18 C 0.79345 0.39278 0.52668 0.0
O19 O 0.53018 0.33427 0.5268 0.0
O20 O 0.63207 0.43979 0.56524 0.0
O21 O 0.7846 0.409 0.56855 0.0
O22 O 0.72411 0.33931 0.50418 0.0
C23 C 0.56327 0.16116 0.53434 0.0
O24 O 0.69321 0.31185 0.63385 0.0
O25 O 0.57164 0.32046 0.63328 0.0
In26 In 0.30563 0.66128 0.43611 0.0
O27 O 0.30715 0.78175 0.46286 0.0
O28 O 0.43094 0.77694 0.46223 0.0
C29 C 0.13813 0.56954 0.45799 0.0
C30 C 0.30456 0.66642 0.34542 0.0
C31 C 0.39594 0.58976 0.47026 0.0
O32 O 0.19177 0.6327 0.48319 0.0
O33 O 0.16818 0.55216 0.42132 0.0
O34 O 0.41329 0.61856 0.43312 0.0
O35 O 0.33445 0.59849 0.49067 0.0
C36 C 0.39025 0.81901 0.47091 0.0
O37 O 0.33058 0.62237 0.36344 0.0
O38 O 0.27579 0.70559 0.37266 0.0
In39 In 0.66674 0.30911 0.94014 0.0
O40 O 0.71116 0.30042 0.86788 0.0
O41 O 0.57827 0.28277 0.87506 0.0
C42 C 0.83538 0.39156 0.97563 0.0
C43 C 0.61935 0.42652 0.96834 0.0
C44 C 0.59219 0.16079 0.96727 0.0
O45 O 0.81584 0.36017 0.93433 0.0
O46 O 0.76988 0.37838 -9e-05 0.0
O47 O 0.5497 0.201 0.96393 0.0
O48 O 0.67155 0.19432 0.95629 0.0
C49 C 0.63892 0.28877 0.84853 0.0
O50 O 0.59188 0.36274 0.98655 0.0
O51 O 0.66955 0.43056 0.93619 0.0
C52 C 0.25429 0.67079 0.22041 0.0
C53 C 0.34098 0.69797 0.20413 0.0
C54 C 0.40386 0.71303 0.2815 0.0
C55 C 0.31644 0.67825 0.29692 0.0
N56 N 0.15752 0.61622 0.28123 0.0
N57 N 0.49762 0.73819 0.21732 0.0
C58 C 0.24128 0.65561 0.26652 0.0
C59 C 0.41556 0.71691 0.23414 0.0
N60 N 0.18447 0.65917 0.19174 0.0
N61 N 0.47583 0.74606 0.31247 0.0
H62 H 0.51032 0.74701 0.18341 0.0
H63 H 0.55214 0.74251 0.23626 0.0
H64 H 0.47023 0.74604 0.34761 0.0
H65 H 0.54086 0.78009 0.30398 0.0
H66 H 0.12169 0.64802 0.2026 0.0
H67 H 0.19046 0.6658 0.15722 0.0
H68 H 0.09983 0.59014 0.25972 0.0
H69 H 0.14562 0.60406 0.31472 0.0
C70 C 0.56375 0.23796 0.72186 0.0
C71 C 0.62701 0.30892 0.70573 0.0
C72 C 0.68794 0.36985 0.78405 0.0
C73 C 0.63165 0.29571 0.79958 0.0
N74 N 0.52125 0.15675 0.78384 0.0
N75 N 0.75363 0.44046 0.72008 0.0
C76 C 0.57021 0.22922 0.76872 0.0
C77 C 0.69046 0.37425 0.73644 0.0
N78 N 0.49786 0.17892 0.69234 0.0
N79 N 0.73588 0.43724 0.81499 0.0
H80 H 0.75398 0.44888 0.68585 0.0
H81 H 0.80878 0.48506 0.7399 0.0
H82 H 0.73468 0.43726 0.85024 0.0
H83 H 0.77046 0.49497 0.80609 0.0
H84 H 0.44424 0.12975 0.7027 0.0
H85 H 0.49319 0.1816 0.65748 0.0
H86 H 0.48246 0.10336 0.76235 0.0
H87 H 0.52425 0.14846 0.81793 0.0
C88 C 0.60064 0.60055 0.04184 0.0
C89 C 0.54474 0.61494 0.01207 0.0
C90 C 0.55112 0.51558 0.9516 0.0
C91 C 0.59554 0.49257 0.98334 0.0
N92 N 0.66553 0.51324 0.05836 0.0
N93 N 0.5091 0.61739 0.9337 0.0
C94 C 0.62148 0.5353 0.02838 0.0
C95 C 0.53267 0.58181 0.96531 0.0
N96 N 0.64028 0.65339 0.08076 0.0
N97 N 0.52156 0.47117 0.90924 0.0
H98 H 0.5041 0.671 0.94254 0.0
H99 H 0.50656 0.60064 0.89856 0.0
H100 H 0.5318 0.421 0.89794 0.0
H101 H 0.47987 0.47955 0.88672 0.0
H102 H 0.6859 0.64923 0.10269 0.0
H103 H 0.63855 0.70865 0.08766 0.0
H104 H 0.67554 0.5342 0.09323 0.0
H105 H 0.68843 0.47045 0.0489 0.0
C106 C 0.04006 0.47328 0.50891 0.0
C107 C 0.04845 0.5177 0.47214 0.0
C108 C 0.8886 0.47901 0.47027 0.0
C109 C 0.87984 0.43235 0.506 0.0
N110 N 0.94189 0.37016 0.55235 0.0
N111 N 0.98032 0.5523 0.41234 0.0
C112 C 0.95414 0.42533 0.52341 0.0
C113 C 0.97236 0.51673 0.45086 0.0
N114 N 0.11438 0.47747 0.53028 0.0
N115 N 0.81838 0.49118 0.45675 0.0
H116 H 0.04115 0.58331 0.39826 0.0
H117 H 0.92608 0.54609 0.39234 0.0
H118 H 0.75633 0.46557 0.47049 0.0
H119 H 0.82322 0.53175 0.43456 0.0
H120 H 0.11395 0.45547 0.56097 0.0
H121 H 0.17789 0.50694 0.51867 0.0
H122 H 0.99172 0.35597 0.56253 0.0
H123 H 0.87958 0.33264 0.56298 0.0
C124 C 0.51845 0.07498 0.02824 0.0
C125 C 0.55295 0.08147 0.98429 0.0
C126 C 0.52296 0.93925 0.97556 0.0
C127 C 0.48025 0.9308 0.01736 0.0
N128 N 0.42258 0.98676 0.07943 0.0
N129 N 0.57369 0.01658 0.91251 0.0
C130 C 0.47396 0.99764 0.04265 0.0
C131 C 0.55136 0.0127 0.95692 0.0
N132 N 0.53148 0.14302 0.05711 0.0
N133 N 0.53978 0.87837 0.95456 0.0
H134 H 0.59339 0.06884 0.89733 0.0
H135 H 0.56466 0.96615 0.88948 0.0
H136 H 0.52178 0.82427 0.96756 0.0
H137 H 0.57903 0.88445 0.92669 0.0
H138 H 0.51638 0.14262 0.09128 0.0
H139 H 0.56527 0.20105 0.04836 0.0
H140 H 0.40768 0.0314 0.09608 0.0
H141 H 0.38774 0.9309 0.09073 0.0
C142 C 0.50187 0.44846 0.47399 0.0
C143 C 0.52353 0.45867 0.52153 0.0
C144 C 0.47517 0.5649 0.53403 0.0
C145 C 0.44166 0.54603 0.48772 0.0
N146 N 0.40577 0.45606 0.41617 0.0
N147 N 0.51549 0.51672 0.59823 0.0
C148 C 0.4503 0.4841 0.45828 0.0
C149 C 0.50627 0.51437 0.55205 0.0
N150 N 0.53334 0.40746 0.44349 0.0
N151 N 0.48049 0.63262 0.56042 0.0
H152 H 0.53513 0.47893 0.613 0.0
H153 H 0.49497 0.55045 0.6218 0.0
H154 H 0.46157 0.67293 0.54806 0.0
H155 H 0.51244 0.65327 0.593 0.0
H156 H 0.52635 0.40523 0.40823 0.0
H157 H 0.57506 0.3836 0.45322 0.0
H158 H 0.40314 0.40546 0.3955 0.0
H159 H 0.36338 0.47723 0.4039 0.0
C160 C 0.05462 0.49003 0.0478 0.0
C161 C 0.10597 0.55352 0.02264 0.0
C162 C 0.97613 0.51666 0.97089 0.0
C163 C 0.9278 0.44761 0.99269 0.0
N164 N 0.92393 0.36169 0.04785 0.0
N165 N 0.12092 0.61867 0.95547 0.0
C166 C 0.96766 0.43243 0.03019 0.0
C167 C 0.06822 0.56465 0.98289 0.0
N168 N 0.08765 0.48647 0.08927 0.0
N169 N 0.93335 0.53853 0.94009 0.0
H170 H 0.18917 0.65429 0.96259 0.0
H171 H 0.09863 0.62265 0.92344 0.0
H172 H 0.86524 0.50659 0.93123 0.0
H173 H 0.96351 0.59292 0.92685 0.0
H174 H 0.04971 0.44679 0.11137 0.0
H175 H 0.15069 0.52808 0.10357 0.0
H176 H 0.9535 0.34338 0.0719 0.0
H177 H 0.86035 0.31783 0.03564 0.0
C178 C 0.51425 0.01879 0.54852 0.0
C179 C 0.5218 0.07374 0.51783 0.0
C180 C 0.44044 0.96141 0.4569 0.0
C181 C 0.43691 0.90659 0.48689 0.0
N182 N 0.47974 0.88152 0.55885 0.0
N183 N 0.50708 0.09991 0.44128 0.0
C184 C 0.47711 0.93488 0.53194 0.0
C185 C 0.48867 0.04578 0.4716 0.0
N186 N 0.5384 0.04646 0.59396 0.0
N187 N 0.39768 0.9328 0.41433 0.0
H188 H 0.54326 0.1622 0.45068 0.0
H189 H 0.49338 0.08337 0.40614 0.0
H190 H 0.36726 0.87174 0.40087 0.0
H191 H 0.38799 0.96898 0.39313 0.0
H192 H 0.5251 0.00888 0.619 0.0
H193 H 0.56584 0.10745 0.60748 0.0
H194 H 0.51716 0.89909 0.58987 0.0
H195 H 0.44896 0.81916 0.54891 0.0
loop_
_geom_bond_atom_site_label_1
_geom_bond_atom_site_label_2
_geom_bond_distance
_geom_bond_site_symmetry_2
_ccdc_geom_bond_type
In0 O1 2.294 . S
In0 O2 2.326 . S
In0 O6 2.266 . S
In0 O7 2.326 . S
In0 O8 2.266 . S
In0 O9 2.326 1_554 S
In0 O11 2.294 . S
In0 O12 2.326 . S
O1 In0 2.294 . S
O1 C10 1.240 . S
O2 In0 2.326 . S
O2 C10 1.252 . S
C3 O6 1.252 . S
C3 O7 1.260 . S
C4 O11 1.240 . S
C4 O12 1.252 . S
C5 O8 1.252 . S
C5 O9 1.260 1_554 S
O6 In0 2.266 . S
O6 C3 1.252 . S
O7 In0 2.326 . S
O7 C3 1.260 . S
O8 In0 2.266 . S
O8 C5 1.252 . S
O9 In0 2.326 1_556 S
O9 C5 1.260 1_556 S
C10 O1 1.240 . S
C10 O2 1.252 . S
O11 In0 2.294 . S
O11 C4 1.240 . S
O12 In0 2.326 . S
O12 C4 1.252 . S
In13 O14 2.294 . S
In13 O15 2.326 . S
In13 O19 2.266 . S
In13 O20 2.326 . S
In13 O21 2.266 . S
In13 O22 2.326 . S
In13 O24 2.294 . S
In13 O25 2.326 . S
O14 In13 2.294 . S
O14 C23 1.240 . S
O15 In13 2.326 . S
O15 C23 1.252 . S
C16 O19 1.252 . S
C16 O20 1.260 . S
C17 O24 1.240 . S
C17 O25 1.252 . S
C18 O21 1.252 . S
C18 O22 1.260 . S
O19 In13 2.266 . S
O19 C16 1.252 . S
O20 In13 2.326 . S
O20 C16 1.260 . S
O21 In13 2.266 . S
O21 C18 1.252 . S
O22 In13 2.326 . S
O22 C18 1.260 . S
C23 O14 1.240 . S
C23 O15 1.252 . S
O24 In13 2.294 . S
O24 C17 1.240 . S
O25 In13 2.326 . S
O25 C17 1.252 . S
In26 O27 2.294 . S
In26 O28 2.326 . S
In26 O32 2.266 . S
In26 O33 2.326 . S
In26 O34 2.266 . S
In26 O35 2.326 . S
In26 O37 2.294 . S
In26 O38 2.326 . S
O27 In26 2.294 . S
O27 C36 1.240 . S
O28 In26 2.326 . S
O28 C36 1.252 . S
C29 O32 1.252 . S
C29 O33 1.260 . S
C30 O37 1.240 . S
C30 O38 1.252 . S
C31 O34 1.252 . S
C31 O35 1.260 . S
O32 In26 2.266 . S
O32 C29 1.252 . S
O33 In26 2.326 . S
O33 C29 1.260 . S
O34 In26 2.266 . S
O34 C31 1.252 . S
O35 In26 2.326 . S
O35 C31 1.260 . S
C36 O27 1.240 . S
C36 O28 1.252 . S
O37 In26 2.294 . S
O37 C30 1.240 . S
O38 In26 2.326 . S
O38 C30 1.252 . S
In39 O40 2.294 . S
In39 O41 2.326 . S
In39 O45 2.266 . S
In39 O46 2.326 1_556 S
In39 O47 2.266 . S
In39 O48 2.326 . S
In39 O50 2.294 . S
In39 O51 2.326 . S
O40 In39 2.294 . S
O40 C49 1.240 . S
O41 In39 2.326 . S
O41 C49 1.252 . S
C42 O45 1.252 . S
C42 O46 1.260 1_556 S
C43 O50 1.240 . S
C43 O51 1.252 . S
C44 O47 1.252 . S
C44 O48 1.260 . S
O45 In39 2.266 . S
O45 C42 1.252 . S
O46 In39 2.326 1_554 S
O46 C42 1.260 1_554 S
O47 In39 2.266 . S
O47 C44 1.252 . S
O48 In39 2.326 . S
O48 C44 1.260 . S
C49 O40 1.240 . S
C49 O41 1.252 . S
O50 In39 2.294 . S
O50 C43 1.240 . S
O51 In39 2.326 . S
O51 C43 1.252 . S
C52 C53 1.363 . S
C52 C58 1.379 . S
C52 N60 1.356 . S
C53 C52 1.363 . S
C53 C59 1.363 . S
C54 C55 1.363 . S
C54 C59 1.379 . S
C54 N61 1.356 . S
C55 C54 1.363 . S
C55 C58 1.363 . S
N56 C58 1.356 . S
N56 H68 0.984 . S
N56 H69 0.985 . S
N57 C59 1.356 . S
N57 H62 0.984 . S
N57 H63 0.985 . S
C58 C52 1.379 . S
C58 C55 1.363 . S
C58 N56 1.356 . S
C59 C53 1.363 . S
C59 C54 1.379 . S
C59 N57 1.356 . S
N60 C52 1.356 . S
N60 H66 0.984 . S
N60 H67 0.984 . S
N61 C54 1.356 . S
N61 H64 0.984 . S
N61 H65 0.985 . S
H62 N57 0.984 . S
H63 N57 0.985 . S
H64 N61 0.984 . S
H65 N61 0.985 . S
H66 N60 0.984 . S
H67 N60 0.984 . S
H68 N56 0.984 . S
H69 N56 0.985 . S
C70 C71 1.363 . S
C70 C76 1.379 . S
C70 N78 1.356 . S
C71 C70 1.363 . S
C71 C77 1.363 . S
C72 C73 1.363 . S
C72 C77 1.379 . S
C72 N79 1.356 . S
C73 C72 1.363 . S
C73 C76 1.363 . S
N74 C76 1.356 . S
N74 H86 0.984 . S
N74 H87 0.985 . S
N75 C77 1.356 . S
N75 H80 0.984 . S
N75 H81 0.985 . S
C76 C70 1.379 . S
C76 C73 1.363 . S
C76 N74 1.356 . S
C77 C71 1.363 . S
C77 C72 1.379 . S
C77 N75 1.356 . S
N78 C70 1.356 . S
N78 H84 0.984 . S
N78 H85 0.984 . S
N79 C72 1.356 . S
N79 H82 0.984 . S
N79 H83 0.985 . S
H80 N75 0.984 . S
H81 N75 0.985 . S
H82 N79 0.984 . S
H83 N79 0.985 . S
H84 N78 0.984 . S
H85 N78 0.984 . S
H86 N74 0.984 . S
H87 N74 0.985 . S
C88 C89 1.363 1_554 S
C88 C94 1.379 . S
C88 N96 1.356 . S
C89 C88 1.363 1_556 S
C89 C95 1.363 . S
C90 C91 1.363 . S
C90 C95 1.379 . S
C90 N97 1.356 . S
C91 C90 1.363 . S
C91 C94 1.363 1_556 S
N92 C94 1.356 . S
N92 H104 0.984 . S
N92 H105 0.985 . S
N93 C95 1.356 . S
N93 H98 0.984 . S
N93 H99 0.985 . S
C94 C88 1.379 . S
C94 C91 1.363 1_554 S
C94 N92 1.356 . S
C95 C89 1.363 . S
C95 C90 1.379 . S
C95 N93 1.356 . S
N96 C88 1.356 . S
N96 H102 0.984 . S
N96 H103 0.984 . S
N97 C90 1.356 . S
N97 H100 0.984 . S
N97 H101 0.985 . S
H98 N93 0.984 . S
H99 N93 0.985 . S
H100 N97 0.984 . S
H101 N97 0.985 . S
H102 N96 0.984 . S
H103 N96 0.984 . S
H104 N92 0.984 . S
H105 N92 0.985 . S
C106 C107 1.363 . S
C106 C112 1.379 1_455 S
C106 N114 1.356 . S
C107 C106 1.363 . S
C107 C113 1.363 1_455 S
C108 C109 1.363 . S
C108 C113 1.379 . S
C108 N115 1.356 . S
C109 C108 1.363 . S
C109 C112 1.363 . S
N110 C112 1.356 . S
N110 H122 0.984 . S
N110 H123 0.985 . S
N111 C113 1.356 1_455 S
N111 H116 0.984 . S
N111 H117 0.985 1_455 S
C112 C106 1.379 1_655 S
C112 C109 1.363 . S
C112 N110 1.356 . S
C113 C107 1.363 1_655 S
C113 C108 1.379 . S
C113 N111 1.356 1_655 S
N114 C106 1.356 . S
N114 H120 0.984 . S
N114 H121 0.984 . S
N115 C108 1.356 . S
N115 H118 0.984 . S
N115 H119 0.985 . S
H116 N111 0.984 . S
H117 N111 0.985 1_655 S
H118 N115 0.984 . S
H119 N115 0.985 . S
H120 N114 0.984 . S
H121 N114 0.984 . S
H122 N110 0.984 . S
H123 N110 0.985 . S
C124 C125 1.363 1_554 S
C124 C130 1.379 1_545 S
C124 N132 1.356 . S
C125 C124 1.363 1_556 S
C125 C131 1.363 . S
C126 C127 1.363 1_556 S
C126 C131 1.379 1_565 S
C126 N133 1.356 . S
C127 C126 1.363 1_554 S
C127 C130 1.363 . S
N128 C130 1.356 . S
N128 H140 0.984 . S
N128 H141 0.985 . S
N129 C131 1.356 . S
N129 H134 0.984 . S
N129 H135 0.985 . S
C130 C124 1.379 1_565 S
C130 C127 1.363 . S
C130 N128 1.356 . S
C131 C125 1.363 . S
C131 C126 1.379 1_545 S
C131 N129 1.356 . S
N132 C124 1.356 . S
N132 H138 0.984 . S
N132 H139 0.984 1_554 S
N133 C126 1.356 . S
N133 H136 0.984 1_556 S
N133 H137 0.985 . S
H134 N129 0.984 . S
H135 N129 0.985 . S
H136 N133 0.984 1_554 S
H137 N133 0.985 . S
H138 N132 0.984 . S
H139 N132 0.984 1_556 S
H140 N128 0.984 . S
H141 N128 0.985 . S
C142 C143 1.363 . S
C142 C148 1.379 . S
C142 N150 1.356 . S
C143 C142 1.363 . S
C143 C149 1.363 . S
C144 C145 1.363 . S
C144 C149 1.379 . S
C144 N151 1.356 . S
C145 C144 1.363 . S
C145 C148 1.363 . S
N146 C148 1.356 . S
N146 H158 0.984 . S
N146 H159 0.985 . S
N147 C149 1.356 . S
N147 H152 0.984 . S
N147 H153 0.985 . S
C148 C142 1.379 . S
C148 C145 1.363 . S
C148 N146 1.356 . S
C149 C143 1.363 . S
C149 C144 1.379 . S
C149 N147 1.356 . S
N150 C142 1.356 . S
N150 H156 0.984 . S
N150 H157 0.984 . S
N151 C144 1.356 . S
N151 H154 0.984 . S
N151 H155 0.985 . S
H152 N147 0.984 . S
H153 N147 0.985 . S
H154 N151 0.984 . S
H155 N151 0.985 . S
H156 N150 0.984 . S
H157 N150 0.984 . S
H158 N146 0.984 . S
H159 N146 0.985 . S
C160 C161 1.363 . S
C160 C166 1.379 1_455 S
C160 N168 1.356 . S
C161 C160 1.363 . S
C161 C167 1.363 1_554 S
C162 C163 1.363 1_556 S
C162 C167 1.379 1_655 S
C162 N169 1.356 . S
C163 C162 1.363 1_554 S
C163 C166 1.363 . S
N164 C166 1.356 . S
N164 H176 0.984 . S
N164 H177 0.985 . S
N165 C167 1.356 . S
N165 H170 0.984 . S
N165 H171 0.985 . S
C166 C160 1.379 1_655 S
C166 C163 1.363 . S
C166 N164 1.356 . S
C167 C161 1.363 1_556 S
C167 C162 1.379 1_455 S
C167 N165 1.356 . S
N168 C160 1.356 . S
N168 H174 0.984 . S
N168 H175 0.984 . S
N169 C162 1.356 . S
N169 H172 0.984 . S
N169 H173 0.985 . S
H170 N165 0.984 . S
H171 N165 0.985 . S
H172 N169 0.984 . S
H173 N169 0.985 . S
H174 N168 0.984 . S
H175 N168 0.984 . S
H176 N164 0.984 . S
H177 N164 0.985 . S
C178 C179 1.363 . S
C178 C184 1.379 1_545 S
C178 N186 1.356 . S
C179 C178 1.363 . S
C179 C185 1.363 . S
C180 C181 1.363 . S
C180 C185 1.379 1_565 S
C180 N187 1.356 . S
C181 C180 1.363 . S
C181 C184 1.363 . S
N182 C184 1.356 . S
N182 H194 0.984 . S
N182 H195 0.985 . S
N183 C185 1.356 . S
N183 H188 0.984 . S
N183 H189 0.985 . S
C184 C178 1.379 1_565 S
C184 C181 1.363 . S
C184 N182 1.356 . S
C185 C179 1.363 . S
C185 C180 1.379 1_545 S
C185 N183 1.356 . S
N186 C178 1.356 . S
N186 H192 0.984 . S
N186 H193 0.984 . S
N187 C180 1.356 . S
N187 H190 0.984 . S
N187 H191 0.985 . S
H188 N183 0.984 . S
H189 N183 0.985 . S
H190 N187 0.984 . S
H191 N187 0.985 . S
H192 N186 0.984 . S
H193 N186 0.984 . S
H194 N182 0.984 . S
H195 N182 0.985 . S
C53 C4 1.594 . S
C55 C30 1.590 . S
C71 C17 1.590 . S
C73 C49 1.594 . S
C89 C5 1.496 1_556 S
C91 C43 1.523 . S
C107 C29 1.679 . S
C109 C18 1.670 . S
C125 C44 1.828 . S
C127 C3 1.828 . S
C143 C16 1.679 . S
C145 C31 1.670 . S
C161 C10 1.523 . S
C163 C42 1.496 1_554 S
C179 C23 1.361 . S
C181 C36 1.361 . S
